
#######################################################################
#
#                 Cambridge Crystallographic Data Centre
#                                CCDC 
#
#######################################################################
#
# If this CIF has been generated from an entry in the Cambridge 
# Structural Database, then it will include bibliographic, chemical, 
# crystal, experimental, refinement or atomic coordinate data resulting 
# from the CCDC's data processing and validation procedures.
#
#######################################################################

data_WIRCEH
_symmetry_cell_setting           monoclinic
_symmetry_space_group_name_H-M   'P 21/c'
_symmetry_Int_Tables_number      14
_space_group_name_Hall           '-P 2ybc'
loop_
_symmetry_equiv_pos_site_id
_symmetry_equiv_pos_as_xyz
1 x,y,z
2 -x,1/2+y,1/2-z
3 -x,-y,-z
4 x,1/2-y,1/2+z
_cell_length_a                   15.440(7)
_cell_length_b                   15.677(6)
_cell_length_c                   16.500(10)
_cell_angle_alpha                90
_cell_angle_beta                 117.826(5)
_cell_angle_gamma                90
_cell_volume                     3532.06
loop_
_atom_site_label
_atom_site_type_symbol
_atom_site_fract_x
_atom_site_fract_y
_atom_site_fract_z
Co1 Co 1.0000 0.5000 0.5000
Co2 Co 0.77069(3) 0.51405(3) 0.28851(3)
Co3 Co 0.76891(3) 0.49778(2) 0.48095(3)
O1 O 1.00081(16) 0.57488(13) 0.39548(15)
O2 O 1.15784(17) 0.60911(15) 0.43674(16)
O3 O 0.98976(16) 0.88711(13) 0.06481(15)
O4 O 0.85418(17) 0.91344(16) 0.07613(17)
O5 O 0.85218(15) 0.47752(13) 0.41414(14)
H1 H 0.8637 0.4193 0.4060
O6 O 0.66006(19) 0.41644(17) 0.38118(17)
O7 O 0.6574(2) 0.43351(19) 0.24644(18)
O8 O 0.27937(19) 0.13049(16) 0.22597(19)
O9 O 0.30400(19) 0.10514(16) 0.10540(19)
N1 N 0.6772(2) 0.50231(17) 0.5419(2)
N2 N 0.5888(2) 0.4532(2) 0.6045(2)
N3 N 0.8202(3) 0.4015(3) 1.0882(2)
N4 N 0.8090(2) 0.4831(2) 1.1912(2)
C1 C 1.0661(2) 0.61826(19) 0.3904(2)
C2 C 1.0320(2) 0.68880(19) 0.3188(2)
C3 C 1.0648(3) 0.6894(2) 0.2547(2)
H2 H 1.1098 0.6486 0.2573
C4 C 1.0310(2) 0.7514(2) 0.1851(2)
H3 H 1.0515 0.7489 0.1403
C5 C 0.9686(2) 0.81554(19) 0.1814(2)
C6 C 0.9345(2) 0.87762(18) 0.1014(2)
C7 C 0.9367(2) 0.8203(2) 0.2500(2)
C8 C 0.8798(3) 0.8884(2) 0.2569(3)
H4 H 0.8604 0.9323 0.2141
C9 C 0.8531(3) 0.8908(3) 0.3245(3)
H5 H 0.8164 0.9365 0.3276
C10 C 0.8807(3) 0.8248(3) 0.3900(3)
H6 H 0.8604 0.8263 0.4350
C11 C 0.9365(3) 0.7590(2) 0.3876(2)
H7 H 0.9551 0.7162 0.4316
C12 C 0.9672(2) 0.75452(19) 0.3186(2)
C13 C 0.6238(2) 0.4036(2) 0.2976(2)
C14 C 0.5338(2) 0.3472(2) 0.2555(2)
C15 C 0.5165(3) 0.2999(2) 0.3162(2)
H8 H 0.5569 0.3074 0.3786
C16 C 0.4399(3) 0.2406(2) 0.2874(2)
H9 H 0.4295 0.2107 0.3308
C17 C 0.3802(2) 0.2264(2) 0.1960(2)
C18 C 0.3141(2) 0.1494(2) 0.1719(2)
C19 C 0.3904(2) 0.2774(2) 0.1288(2)
C20 C 0.3248(3) 0.2706(2) 0.0336(3)
H10 H 0.2737 0.2314 0.0138
C21 C 0.3349(3) 0.3200(3) -0.0291(3)
H11 H 0.2911 0.3144 -0.0910
C22 C 0.4116(3) 0.3797(3) -0.0003(3)
H12 H 0.4185 0.4132 -0.0435
C23 C 0.4761(3) 0.3890(2) 0.0903(3)
H13 H 0.5263 0.4288 0.1078
C24 C 0.4683(2) 0.3394(2) 0.1585(2)
C25 C 0.6394(3) 0.4337(2) 0.5594(3)
H14 H 0.6468 0.3787 0.5426
C26 C 0.6509(3) 0.5686(2) 0.5786(3)
H15 H 0.6678 0.6253 0.5772
C27 C 0.5966(3) 0.5397(3) 0.6172(3)
H16 H 0.5696 0.5722 0.6469
C28 C 0.5432(3) 0.3941(3) 0.6411(3)
H17 H 0.5292 0.3407 0.6076
H18 H 0.4817 0.4178 0.6333
C29 C 0.6103(3) 0.3777(3) 0.7419(3)
C30 C 0.6835(3) 0.3174(3) 0.7696(3)
H19 H 0.6909 0.2855 0.7256
C31 C 0.7456(3) 0.3035(3) 0.8603(3)
H20 H 0.7937 0.2618 0.8773
C32 C 0.7373(4) 0.3509(3) 0.9267(3)
C33 C 0.6636(4) 0.4113(3) 0.8993(3)
H21 H 0.6559 0.4430 0.9432
C34 C 0.6014(4) 0.4246(3) 0.8078(3)
H22 H 0.5528 0.4660 0.7904
C35 C 0.8050(5) 0.3302(4) 1.0257(3)
H23 H 0.7782 0.2824 1.0440
H24 H 0.8679 0.3128 1.0315
C36 C 0.7820(3) 0.4111(3) 1.1446(3)
H25 H 0.7407 0.3715 1.1507
C37 C 0.8751(4) 0.4721(5) 1.0986(4)
H26 H 0.9106 0.4839 1.0673
C38 C 0.8692(4) 0.5225(4) 1.1626(3)
H27 H 0.9006 0.5746 1.1835
Co2B Co 1.22931(3) 0.48595(3) 0.71149(3)
Co3B Co 1.23109(3) 0.50222(2) 0.51905(3)
O1B O 0.99919(16) 0.42512(13) 0.60452(15)
O2B O 0.84216(17) 0.39089(15) 0.56326(16)
O3B O 1.01024(16) 0.11289(13) 0.93519(15)
O4B O 1.14582(17) 0.08656(16) 0.92387(17)
O5B O 1.14782(15) 0.52248(13) 0.58586(14)
H1B H 1.1363 0.5807 0.5940
O6B O 1.33994(19) 0.58356(17) 0.61882(17)
O7B O 1.3426(2) 0.56649(19) 0.75356(18)
O8B O 1.72063(19) 0.86951(16) 0.77403(19)
O9B O 1.69600(19) 0.89486(16) 0.89460(19)
N1B N 1.3228(2) 0.49769(17) 0.4581(2)
N2B N 1.4112(2) 0.5468(2) 0.3955(2)
N3B N 1.1798(3) 0.5985(3) -0.0882(2)
N4B N 1.1910(2) 0.5169(2) -0.1912(2)
C1B C 0.9339(2) 0.38174(19) 0.6096(2)
C2B C 0.9680(2) 0.31120(19) 0.6812(2)
C3B C 0.9352(3) 0.3106(2) 0.7453(2)
H2B H 0.8902 0.3514 0.7427
C4B C 0.9690(2) 0.2486(2) 0.8149(2)
H3B H 0.9485 0.2511 0.8597
C5B C 1.0314(2) 0.18446(19) 0.8186(2)
C6B C 1.0655(2) 0.12238(18) 0.8986(2)
C7B C 1.0633(2) 0.1797(2) 0.7500(2)
C8B C 1.1202(3) 0.1116(2) 0.7431(3)
H4B H 1.1396 0.0677 0.7859
C9B C 1.1469(3) 0.1092(3) 0.6755(3)
H5B H 1.1836 0.0635 0.6724
C10B C 1.1193(3) 0.1752(3) 0.6100(3)
H6B H 1.1396 0.1737 0.5650
C11B C 1.0635(3) 0.2410(2) 0.6124(2)
H7B H 1.0449 0.2838 0.5684
C12B C 1.0328(2) 0.24548(19) 0.6814(2)
C13B C 1.3762(2) 0.5964(2) 0.7024(2)
C14B C 1.4662(2) 0.6528(2) 0.7445(2)
C15B C 1.4835(3) 0.7001(2) 0.6838(2)
H8B H 1.4431 0.6926 0.6214
C16B C 1.5601(3) 0.7594(2) 0.7126(2)
H9B H 1.5705 0.7893 0.6692
C17B C 1.6198(2) 0.7736(2) 0.8040(2)
C18B C 1.6859(2) 0.8506(2) 0.8281(2)
C19B C 1.6096(2) 0.7226(2) 0.8712(2)
C20B C 1.6752(3) 0.7294(2) 0.9664(3)
H10B H 1.7263 0.7686 0.9862
C21B C 1.6651(3) 0.6800(3) 1.0291(3)
H11B H 1.7089 0.6856 1.0910
C22B C 1.5884(3) 0.6203(3) 1.0003(3)
H12B H 1.5815 0.5868 1.0435
C23B C 1.5239(3) 0.6110(2) 0.9097(3)
H13B H 1.4737 0.5712 0.8922
C24B C 1.5317(2) 0.6606(2) 0.8415(2)
C25B C 1.3606(3) 0.5663(2) 0.4406(3)
H14B H 1.3532 0.6213 0.4574
C26B C 1.3491(3) 0.4314(2) 0.4214(3)
H15B H 1.3322 0.3747 0.4228
C27B C 1.4034(3) 0.4603(3) 0.3828(3)
H16B H 1.4304 0.4278 0.3531
C28B C 1.4568(3) 0.6059(3) 0.3589(3)
H17B H 1.4708 0.6593 0.3924
H18B H 1.5183 0.5822 0.3667
C29B C 1.3897(3) 0.6223(3) 0.2581(3)
C30B C 1.3165(3) 0.6826(3) 0.2304(3)
H19B H 1.3091 0.7145 0.2744
C31B C 1.2544(3) 0.6965(3) 0.1397(3)
H20B H 1.2063 0.7382 0.1227
C32B C 1.2627(4) 0.6491(3) 0.0733(3)
C33B C 1.3364(4) 0.5887(3) 0.1007(3)
H21B H 1.3441 0.5570 0.0568
C34B C 1.3986(4) 0.5754(3) 0.1922(3)
H22B H 1.4472 0.5340 0.2096
C35B C 1.1950(5) 0.6698(4) -0.0257(3)
H23B H 1.2218 0.7176 -0.0440
H24B H 1.1321 0.6872 -0.0315
C36B C 1.2180(3) 0.5889(3) -0.1446(3)
H25B H 1.2593 0.6285 -0.1507
C37B C 1.1249(4) 0.5279(5) -0.0986(4)
H26B H 1.0894 0.5161 -0.0673
C38B C 1.1308(4) 0.4775(4) -0.1626(3)
H27B H 1.0994 0.4254 -0.1835
Co1A Co 1.0000 0.0000 1.0000
Co1A_2 Co 1.0000 1.0000 0.0000
Co2_2 Co 0.77069(3) 0.51405(3) 1.28851(3)
Co2A Co 0.22931(3) 0.01405(3) 0.21149(3)
Co2B_2 Co 1.22931(3) 0.48595(3) -0.28851(3)
Co2C Co 1.77069(3) 0.98595(3) 0.78851(3)
Co3A Co 0.23109(3) -0.00222(2) 0.01905(3)
Co3A_2 Co 1.23109(3) -0.00222(2) 1.01905(3)
Co3C Co 0.76891(3) 1.00222(2) -0.01905(3)
Co3C_2 Co 1.76891(3) 1.00222(2) 0.98095(3)
O3A O 1.01024(16) 0.38711(13) 0.43519(15)
O3C O 0.98976(16) 0.61289(13) 0.56481(15)
O4A O 1.14582(17) 0.41344(16) 0.42387(17)
O4C O 0.85418(17) 0.58656(16) 0.57613(17)
O8A O 0.72063(19) 0.63049(16) 0.27403(19)
O8C O 1.27937(19) 0.36951(16) 0.72597(19)
O9A O 0.69600(19) 0.60514(16) 0.39460(19)
O9C O 1.30400(19) 0.39486(16) 0.60540(19)
N4_2 N 0.8090(2) 0.4831(2) 0.1912(2)
N4B_2 N 1.1910(2) 0.5169(2) 0.8088(2)
loop_
_geom_bond_atom_site_label_1
_geom_bond_atom_site_label_2
_geom_bond_site_symmetry_1
_geom_bond_site_symmetry_2
Co1 O1 1_555 1_555
Co2 O5 1_555 1_555
Co3 O5 1_555 1_555
O1 C1 1_555 1_555
O2 C1 1_555 1_555
O3 C6 1_555 1_555
O4 C6 1_555 1_555
O5 Co1 1_555 1_555
H1 O5 1_555 1_555
O6 Co3 1_555 1_555
O7 Co2 1_555 1_555
O8 C18 1_555 1_555
O9 C18 1_555 1_555
N1 Co3 1_555 1_555
N2 C25 1_555 1_555
N3 C35 1_555 1_555
N4 C36 1_555 1_555
C1 C2 1_555 1_555
C2 C3 1_555 1_555
C3 H2 1_555 1_555
C4 C3 1_555 1_555
H3 C4 1_555 1_555
C5 C4 1_555 1_555
C6 C5 1_555 1_555
C7 C5 1_555 1_555
C8 C7 1_555 1_555
H4 C8 1_555 1_555
C9 C8 1_555 1_555
H5 C9 1_555 1_555
C10 C9 1_555 1_555
H6 C10 1_555 1_555
C11 C10 1_555 1_555
H7 C11 1_555 1_555
C12 C2 1_555 1_555
C13 O6 1_555 1_555
C14 C13 1_555 1_555
C15 C14 1_555 1_555
H8 C15 1_555 1_555
C16 C15 1_555 1_555
H9 C16 1_555 1_555
C17 C16 1_555 1_555
C18 C17 1_555 1_555
C19 C17 1_555 1_555
C20 C19 1_555 1_555
H10 C20 1_555 1_555
C21 C20 1_555 1_555
H11 C21 1_555 1_555
C22 C21 1_555 1_555
H12 C22 1_555 1_555
C23 C22 1_555 1_555
H13 C23 1_555 1_555
C24 C14 1_555 1_555
C25 N1 1_555 1_555
H14 C25 1_555 1_555
C26 N1 1_555 1_555
H15 C26 1_555 1_555
C27 N2 1_555 1_555
H16 C27 1_555 1_555
C28 N2 1_555 1_555
H17 C28 1_555 1_555
H18 C28 1_555 1_555
C29 C28 1_555 1_555
C30 C29 1_555 1_555
H19 C30 1_555 1_555
C31 C30 1_555 1_555
H20 C31 1_555 1_555
C32 C31 1_555 1_555
C33 C32 1_555 1_555
H21 C33 1_555 1_555
C34 C29 1_555 1_555
H22 C34 1_555 1_555
C35 C32 1_555 1_555
H23 C35 1_555 1_555
H24 C35 1_555 1_555
C36 N3 1_555 1_555
H25 C36 1_555 1_555
C37 N3 1_555 1_555
H26 C37 1_555 1_555
C38 N4 1_555 1_555
H27 C38 1_555 1_555
Co2B O5B 1_555 1_555
Co3B O2 1_555 1_555
O1B Co1 1_555 1_555
O2B Co3 1_555 1_555
O3B C6B 1_555 1_555
O4B C6B 1_555 1_555
O5B Co1 1_555 1_555
H1B O5B 1_555 1_555
O6B Co3B 1_555 1_555
O7B Co2B 1_555 1_555
O8B C18B 1_555 1_555
O9B C18B 1_555 1_555
N1B Co3B 1_555 1_555
N2B C25B 1_555 1_555
N3B C35B 1_555 1_555
N4B C36B 1_555 1_555
C1B O1B 1_555 1_555
C2B C1B 1_555 1_555
C3B C2B 1_555 1_555
H2B C3B 1_555 1_555
C4B C3B 1_555 1_555
H3B C4B 1_555 1_555
C5B C4B 1_555 1_555
C6B C5B 1_555 1_555
C7B C5B 1_555 1_555
C8B C7B 1_555 1_555
H4B C8B 1_555 1_555
C9B C8B 1_555 1_555
H5B C9B 1_555 1_555
C10B C9B 1_555 1_555
H6B C10B 1_555 1_555
C11B C10B 1_555 1_555
H7B C11B 1_555 1_555
C12B C2B 1_555 1_555
C13B O6B 1_555 1_555
C14B C13B 1_555 1_555
C15B C14B 1_555 1_555
H8B C15B 1_555 1_555
C16B C15B 1_555 1_555
H9B C16B 1_555 1_555
C17B C16B 1_555 1_555
C18B C17B 1_555 1_555
C19B C17B 1_555 1_555
C20B C19B 1_555 1_555
H10B C20B 1_555 1_555
C21B C20B 1_555 1_555
H11B C21B 1_555 1_555
C22B C21B 1_555 1_555
H12B C22B 1_555 1_555
C23B C22B 1_555 1_555
H13B C23B 1_555 1_555
C24B C14B 1_555 1_555
C25B N1B 1_555 1_555
H14B C25B 1_555 1_555
C26B N1B 1_555 1_555
H15B C26B 1_555 1_555
C27B N2B 1_555 1_555
H16B C27B 1_555 1_555
C28B N2B 1_555 1_555
H17B C28B 1_555 1_555
H18B C28B 1_555 1_555
C29B C28B 1_555 1_555
C30B C29B 1_555 1_555
H19B C30B 1_555 1_555
C31B C30B 1_555 1_555
H20B C31B 1_555 1_555
C32B C31B 1_555 1_555
C33B C32B 1_555 1_555
H21B C33B 1_555 1_555
C34B C29B 1_555 1_555
H22B C34B 1_555 1_555
C35B C32B 1_555 1_555
H23B C35B 1_555 1_555
H24B C35B 1_555 1_555
C36B N3B 1_555 1_555
H25B C36B 1_555 1_555
C37B N3B 1_555 1_555
H26B C37B 1_555 1_555
C38B N4B 1_555 1_555
H27B C38B 1_555 1_555
Co1A O3B 1_555 1_555
Co1A_2 O3 1_555 1_555
Co2_2 N4 1_555 1_555
Co2A O8 1_555 1_555
Co2B_2 N4B 1_555 1_555
Co2C O8B 1_555 1_555
Co3A O9 1_555 1_555
Co3A_2 O4B 1_555 1_555
Co3C O4 1_555 1_555
Co3C_2 O9B 1_555 1_555
O3A Co1 1_555 1_555
O3C Co1 1_555 1_555
O4A Co3B 1_555 1_555
O4C Co3 1_555 1_555
O8A Co2 1_555 1_555
O8C Co2B 1_555 1_555
O9A Co3 1_555 1_555
O9C Co3B 1_555 1_555
N4_2 Co2 1_555 1_555
N4B_2 Co2B 1_555 1_555
O7 C13 1_555 1_555
C7 C12 1_555 1_555
C11 C12 1_555 1_555
C19 C24 1_555 1_555
C23 C24 1_555 1_555
C26 C27 1_555 1_555
C33 C34 1_555 1_555
C37 C38 1_555 1_555
Co3B O5B 1_555 1_555
O2B C1B 1_555 1_555
O7B C13B 1_555 1_555
C7B C12B 1_555 1_555
C11B C12B 1_555 1_555
C19B C24B 1_555 1_555
C23B C24B 1_555 1_555
C26B C27B 1_555 1_555
C33B C34B 1_555 1_555
C37B C38B 1_555 1_555

#END
