
#######################################################################
#
#                 Cambridge Crystallographic Data Centre
#                                CCDC 
#
#######################################################################
#
# If this CIF has been generated from an entry in the Cambridge 
# Structural Database, then it will include bibliographic, chemical, 
# crystal, experimental, refinement or atomic coordinate data resulting 
# from the CCDC's data processing and validation procedures.
#
#######################################################################

data_WIRDUY
_symmetry_cell_setting           monoclinic
_symmetry_space_group_name_H-M   'P 21/c'
_symmetry_Int_Tables_number      14
_space_group_name_Hall           '-P 2ybc'
loop_
_symmetry_equiv_pos_site_id
_symmetry_equiv_pos_as_xyz
1 x,y,z
2 -x,1/2+y,1/2-z
3 -x,-y,-z
4 x,1/2-y,1/2+z
_cell_length_a                   14.459(3)
_cell_length_b                   11.799(2)
_cell_length_c                   18.051(4)
_cell_angle_alpha                90
_cell_angle_beta                 112.973(4)
_cell_angle_gamma                90
_cell_volume                     2835.29
loop_
_atom_site_label
_atom_site_type_symbol
_atom_site_fract_x
_atom_site_fract_y
_atom_site_fract_z
Zn1 Zn 0.17267(4) 0.93568(4) 0.32250(3)
Zn2 Zn -0.28250(4) 0.93435(4) 0.18208(3)
N1 N 0.2606(3) 1.0700(3) 0.3341(2)
N2 N 0.2309(3) 0.7980(3) 0.2916(2)
N3 N -0.1346(3) 0.9294(3) 0.1848(2)
C1 C 0.2180(4) 0.6898(4) 0.3098(3)
H1 H 0.1785 0.6709 0.3381
C2 C 0.2307(4) 1.1790(4) 0.3184(3)
H2 H 0.1637 1.1994 0.2911
N4 N 0.0324(3) 0.9514(3) 0.2370(2)
C3 C -0.0526(4) 0.9536(4) 0.2485(3)
H3 H -0.0545 0.9711 0.2981
N5 N 0.1610(3) 0.9230(3) 0.4294(2)
C4 C 0.0038(4) 0.9242(4) 0.1567(3)
C5 C 0.3629(4) 1.0779(4) 0.3741(3)
N6 N 0.2658(3) 0.6119(3) 0.2845(2)
N7 N 0.3044(3) 1.2550(3) 0.3448(2)
N8 N 0.4753(4) 0.9020(4) 0.4192(3)
O1 O -0.3477(3) 0.9816(3) 0.0596(2)
C6 C 0.4260(4) 0.9803(4) 0.3994(3)
C7 C 0.3143(4) 0.6744(4) 0.2463(3)
C8 C 0.3304(4) 0.8799(4) 0.2199(3)
O2 O -0.2396(4) 0.8911(3) 0.3036(2)
C9 C 0.4886(4) 1.2342(4) 0.4208(3)
C10 C 0.3903(4) 1.1910(4) 0.3806(3)
C11 C 0.2927(4) 0.7866(4) 0.2501(3)
C12 C 0.0316(4) 0.7756(4) 0.4021(3)
O3 O -0.4372(4) 0.9454(4) 0.1673(4)
C13 C 0.1027(4) 0.8997(4) 0.5266(3)
N9 N 0.3616(4) 0.9515(4) 0.1950(3)
N10 N 0.4315(5) 0.5947(5) 0.1839(4)
C14 C -0.0996(4) 0.9092(4) 0.1258(3)
N11 N -0.0167(4) 0.7064(4) 0.3613(3)
C15 C -0.1606(4) 0.8698(5) 0.0471(3)
N12 N 0.1751(4) 0.9824(4) 0.5529(3)
N13 N 0.0017(5) 0.8448(4) 0.6110(3)
C16 C 0.0469(5) 0.8676(5) 0.5737(3)
N14 N 0.1180(4) 0.9075(5) 0.0790(3)
C17 C 0.0949(4) 0.8631(4) 0.4518(3)
C18 C 0.0685(4) 0.9140(5) 0.1149(3)
C19 C 0.2063(5) 0.9932(5) 0.4931(3)
H4 H 0.2555 1.0450 0.4947
C20 C 0.3776(5) 0.6278(4) 0.2101(3)
N15 N 0.5688(4) 1.2632(4) 0.4544(4)
N16 N -0.2055(5) 0.8360(6) -0.0165(3)
H5 H -0.365(6) 0.924(3) 0.029(2)
H6 H -0.309(4) 1.023(5) 0.046(3)
H7 H -0.207(5) 0.934(3) 0.3430(11)
H8 H -0.257(5) 0.830(3) 0.3194(15)
H9 H -0.451(4) 0.917(6) 0.206(3)
H10 H -0.467(4) 1.008(3) 0.154(4)
Zn2A Zn 0.28250(4) 0.43435(4) 0.31792(3)
Zn2A_2 Zn 0.28250(4) 1.43435(4) 0.31792(3)
N6A N -0.2658(3) 1.1119(3) 0.2155(2)
N7A N -0.3044(3) 0.7550(3) 0.1552(2)
O4 O -0.3468(4) 0.7072(4) 0.3282(3)
H11 H -0.384(4) 0.652(4) 0.303(4)
H12 H -0.386(4) 0.763(4) 0.327(5)
O5 O -0.2401(4) 1.1307(4) 0.0138(2)
H13 H -0.293(3) 1.169(6) -0.012(4)
H14 H -0.207(5) 1.121(7) -0.016(4)
O6 O -0.5321(4) 1.1439(4) 0.0786(3)
H15 H -0.563(5) 1.100(5) 0.099(5)
H16 H -0.560(6) 1.209(3) 0.070(5)
loop_
_geom_bond_atom_site_label_1
_geom_bond_atom_site_label_2
_geom_bond_site_symmetry_1
_geom_bond_site_symmetry_2
Zn1 N1 1_555 1_555
Zn2 N3 1_555 1_555
N1 C2 1_555 1_555
N2 Zn1 1_555 1_555
N3 C3 1_555 1_555
C1 N2 1_555 1_555
H1 C1 1_555 1_555
C2 H2 1_555 1_555
N4 Zn1 1_555 1_555
C3 N4 1_555 1_555
H3 C3 1_555 1_555
N5 Zn1 1_555 1_555
C4 N4 1_555 1_555
C5 N1 1_555 1_555
N6 C1 1_555 1_555
N7 C2 1_555 1_555
N8 C6 1_555 1_555
O1 Zn2 1_555 1_555
C6 C5 1_555 1_555
C7 N6 1_555 1_555
C8 C11 1_555 1_555
O2 Zn2 1_555 1_555
C9 C10 1_555 1_555
C10 C5 1_555 1_555
C11 N2 1_555 1_555
C12 N11 1_555 1_555
O3 Zn2 1_555 1_555
C13 N12 1_555 1_555
N9 C8 1_555 1_555
N10 C20 1_555 1_555
C14 N3 1_555 1_555
C15 C14 1_555 1_555
N12 C19 1_555 1_555
N13 C16 1_555 1_555
C16 C13 1_555 1_555
N14 C18 1_555 1_555
C17 N5 1_555 1_555
C18 C4 1_555 1_555
C19 N5 1_555 1_555
H4 C19 1_555 1_555
C20 C7 1_555 1_555
N15 C9 1_555 1_555
N16 C15 1_555 1_555
H5 O1 1_555 1_555
H6 O1 1_555 1_555
H7 O2 1_555 1_555
H8 O2 1_555 1_555
H9 O3 1_555 1_555
H10 O3 1_555 1_555
O4 H11 1_555 1_555
H12 O4 1_555 1_555
O5 H13 1_555 1_555
H14 O5 1_555 1_555
O6 H15 1_555 1_555
H16 O6 1_555 1_555
Zn2A N6 1_555 1_555
Zn2A_2 N7 1_555 1_555
N6A Zn2 1_555 1_555
N7A Zn2 1_555 1_555
C4 C14 1_555 1_555
N7 C10 1_555 1_555
C7 C11 1_555 1_555
C12 C17 1_555 1_555
C13 C17 1_555 1_555

#END
