
#######################################################################
#
#                 Cambridge Crystallographic Data Centre
#                                CCDC 
#
#######################################################################
#
# If this CIF has been generated from an entry in the Cambridge 
# Structural Database, then it will include bibliographic, chemical, 
# crystal, experimental, refinement or atomic coordinate data resulting 
# from the CCDC's data processing and validation procedures.
#
#######################################################################

data_WIRFAG
_symmetry_cell_setting           monoclinic
_symmetry_space_group_name_H-M   'C 2/c'
_symmetry_Int_Tables_number      15
_space_group_name_Hall           '-C 2yn'
loop_
_symmetry_equiv_pos_site_id
_symmetry_equiv_pos_as_xyz
1 x,y,z
2 -x,y,1/2-z
3 1/2+x,1/2+y,z
4 1/2-x,1/2+y,1/2-z
5 -x,-y,-z
6 x,-y,1/2+z
7 1/2-x,1/2-y,-z
8 1/2+x,1/2-y,1/2+z
_cell_length_a                   21.6833(8)
_cell_length_b                   11.0827(4)
_cell_length_c                   17.6206(6)
_cell_angle_alpha                90
_cell_angle_beta                 97.354(3)
_cell_angle_gamma                90
_cell_volume                     4199.57
loop_
_atom_site_label
_atom_site_type_symbol
_atom_site_fract_x
_atom_site_fract_y
_atom_site_fract_z
Fe1 Fe 0.00000 0.26654(3) 0.25000
N1 N -0.08625(7) 0.26291(12) 0.19466(8)
N2 N 0.00000 -0.55320(18) 0.25000
C1 C -0.10413(8) 0.25732(15) 0.11634(10)
C2 C -0.09332(9) 0.37152(18) -0.06372(10)
H1 H -0.0785 0.4445 -0.0397
N3 N 0.00000 0.08746(18) 0.25000
N4 N 0.03381(7) 0.27134(13) 0.15069(8)
C3 C -0.13832(9) 0.2663(2) -0.17635(11)
H2 H -0.1543 0.2666 -0.2291
C4 C -0.11728(9) 0.3718(2) -0.14061(11)
H3 H -0.1192 0.4451 -0.1688
C5 C 0.00057(8) 0.27600(15) 0.07821(10)
C6 C -0.13608(10) 0.16038(19) -0.13510(11)
H4 H -0.1508 0.0876 -0.1595
C7 C -0.17059(9) 0.25312(16) 0.09964(10)
H5 H -0.194 0.2479 0.0504
C8 C -0.06361(8) 0.26522(15) 0.06108(10)
C9 C -0.09086(8) 0.26488(17) -0.02163(10)
C10 C 0.09563(9) 0.27896(16) 0.13920(10)
C11 C 0.29070(10) 0.2057(2) 0.10369(11)
H6 H 0.3075 0.1402 0.0782
C12 C 0.23501(9) 0.19142(19) 0.13330(11)
H7 H 0.2139 0.1162 0.1278
C13 C 0.03644(8) -0.36517(16) 0.30589(9)
H8 H 0.0627 -0.3244 0.345
C14 C 0.04269(9) 0.28803(16) 0.02165(10)
H9 H 0.0315 0.2931 -0.0322
C15 C 0.00000 -0.2995(2) 0.25000
C16 C 0.00000 -0.1664(2) 0.25000
C17 C -0.19336(9) 0.25792(17) 0.16691(10)
H10 H -0.236 0.2569 0.1741
C18 C 0.20973(9) 0.28581(17) 0.17093(10)
C19 C -0.01093(9) -0.10057(16) 0.18256(10)
H11 H -0.0184 -0.1413 0.1348
C20 C -0.01094(9) 0.02326(16) 0.18466(10)
H12 H -0.0191 0.0659 0.1377
C21 C -0.11232(9) 0.15965(18) -0.05796(10)
H13 H -0.1108 0.0862 -0.03
C22 C 0.10041(9) 0.29071(16) 0.05900(10)
H14 H 0.1378 0.2989 0.0366
C23 C 0.03468(8) -0.48952(16) 0.30484(10)
H15 H 0.0591 -0.5323 0.3447
C24 C -0.14127(8) 0.26487(15) 0.22588(10)
C25 C 0.24270(9) 0.39339(18) 0.17998(11)
H16 H 0.2268 0.4581 0.2071
C26 C 0.32174(10) 0.3135(2) 0.11097(11)
H17 H 0.3593 0.3235 0.0892
C27 C 0.14639(8) 0.27512(16) 0.19603(10)
C28 C 0.29841(9) 0.4081(2) 0.15011(11)
H18 H 0.3204 0.4823 0.1565
N1A N 0.08625(7) 0.26291(12) 0.30534(8)
C1A C 0.10413(8) 0.25732(15) 0.38366(10)
C2A C 0.09332(9) 0.37152(18) 0.56372(10)
H1A H 0.0785 0.4445 0.5397
N4A N -0.03381(7) 0.27134(13) 0.34931(8)
C3A C 0.13832(9) 0.2663(2) 0.67635(11)
H2A H 0.1543 0.2666 0.7291
C4A C 0.11728(9) 0.3718(2) 0.64061(11)
H3A H 0.1192 0.4451 0.6688
C5A C -0.00057(8) 0.27600(15) 0.42179(10)
C6A C 0.13608(10) 0.16038(19) 0.63510(11)
H4A H 0.1508 0.0876 0.6595
C7A C 0.17059(9) 0.25312(16) 0.40036(10)
H5A H 0.194 0.2479 0.4496
C8A C 0.06361(8) 0.26522(15) 0.43892(10)
C9A C 0.09086(8) 0.26488(17) 0.52163(10)
C10A C -0.09563(9) 0.27896(16) 0.36080(10)
C11A C -0.29070(10) 0.2057(2) 0.39631(11)
H6A H -0.3075 0.1402 0.4218
C12A C -0.23501(9) 0.19142(19) 0.36670(11)
H7A H -0.2139 0.1162 0.3722
C14A C -0.04269(9) 0.28803(16) 0.47835(10)
H9A H -0.0315 0.2931 0.5322
C17A C 0.19336(9) 0.25792(17) 0.33309(10)
H10A H 0.236 0.2569 0.3259
C18A C -0.20973(9) 0.28581(17) 0.32907(10)
C21A C 0.11232(9) 0.15965(18) 0.55796(10)
H13A H 0.1108 0.0862 0.53
C22A C -0.10041(9) 0.29071(16) 0.44100(10)
H14A H -0.1378 0.2989 0.4634
C24A C 0.14127(8) 0.26487(15) 0.27412(10)
C25A C -0.24270(9) 0.39339(18) 0.32002(11)
H16A H -0.2268 0.4581 0.2929
C26A C -0.32174(10) 0.3135(2) 0.38903(11)
H17A H -0.3593 0.3235 0.4108
C27A C -0.14639(8) 0.27512(16) 0.30397(10)
C28A C -0.29841(9) 0.4081(2) 0.34989(11)
H18A H -0.3204 0.4823 0.3435
C19A C 0.01093(9) -0.10057(16) 0.31744(10)
H11A H 0.0184 -0.1413 0.3652
C20A C 0.01094(9) 0.02326(16) 0.31534(10)
H12A H 0.0191 0.0659 0.3623
C13A C -0.03644(8) -0.36517(16) 0.19411(9)
H8A H -0.0627 -0.3244 0.155
C23A C -0.03468(8) -0.48952(16) 0.19516(10)
H15A H -0.0591 -0.5323 0.1553
Fe1_2 Fe 0.00000 -0.73346(3) 0.25000
N2_2 N 0.00000 0.44680(18) 0.25000
loop_
_geom_bond_atom_site_label_1
_geom_bond_atom_site_label_2
_geom_bond_site_symmetry_1
_geom_bond_site_symmetry_2
Fe1 N1 1_555 1_555
N1 C1 1_555 1_555
N2 C23 1_555 1_555
C1 C7 1_555 1_555
C2 H1 1_555 1_555
N3 Fe1 1_555 1_555
N4 Fe1 1_555 1_555
C3 H2 1_555 1_555
C4 C2 1_555 1_555
H3 C4 1_555 1_555
C5 N4 1_555 1_555
C6 C3 1_555 1_555
H4 C6 1_555 1_555
C7 H5 1_555 1_555
C8 C1 1_555 1_555
C9 C2 1_555 1_555
C10 N4 1_555 1_555
C11 H6 1_555 1_555
C12 C11 1_555 1_555
H7 C12 1_555 1_555
C13 H8 1_555 1_555
C14 C5 1_555 1_555
H9 C14 1_555 1_555
C15 C13 1_555 1_555
C16 C15 1_555 1_555
C17 C7 1_555 1_555
H10 C17 1_555 1_555
C18 C12 1_555 1_555
C19 C16 1_555 1_555
H11 C19 1_555 1_555
C20 N3 1_555 1_555
H12 C20 1_555 1_555
C21 C6 1_555 1_555
H13 C21 1_555 1_555
C22 C10 1_555 1_555
H14 C22 1_555 1_555
C23 C13 1_555 1_555
H15 C23 1_555 1_555
C24 N1 1_555 1_555
C25 C18 1_555 1_555
H16 C25 1_555 1_555
C26 C11 1_555 1_555
H17 C26 1_555 1_555
C27 C10 1_555 1_555
C28 C25 1_555 1_555
H18 C28 1_555 1_555
N1A Fe1 1_555 1_555
C1A N1A 1_555 1_555
C2A H1A 1_555 1_555
N4A Fe1 1_555 1_555
C3A H2A 1_555 1_555
C4A C2A 1_555 1_555
H3A C4A 1_555 1_555
C5A N4A 1_555 1_555
C6A C3A 1_555 1_555
H4A C6A 1_555 1_555
C7A C1A 1_555 1_555
H5A C7A 1_555 1_555
C8A C1A 1_555 1_555
C9A C2A 1_555 1_555
C10A N4A 1_555 1_555
C11A H6A 1_555 1_555
C12A C11A 1_555 1_555
H7A C12A 1_555 1_555
C14A C5A 1_555 1_555
H9A C14A 1_555 1_555
C17A C7A 1_555 1_555
H10A C17A 1_555 1_555
C18A C12A 1_555 1_555
C21A C6A 1_555 1_555
H13A C21A 1_555 1_555
C22A C10A 1_555 1_555
H14A C22A 1_555 1_555
C24A C27 1_555 1_555
C25A C18A 1_555 1_555
H16A C25A 1_555 1_555
C26A C11A 1_555 1_555
H17A C26A 1_555 1_555
C27A C24 1_555 1_555
C28A C25A 1_555 1_555
H18A C28A 1_555 1_555
C19A C16 1_555 1_555
H11A C19A 1_555 1_555
C20A N3 1_555 1_555
H12A C20A 1_555 1_555
C13A C15 1_555 1_555
H8A C13A 1_555 1_555
C23A N2 1_555 1_555
H15A C23A 1_555 1_555
Fe1_2 N2 1_555 1_555
N2_2 Fe1 1_555 1_555
C3 C4 1_555 1_555
C5 C8 1_555 1_555
C8 C9 1_555 1_555
C9 C21 1_555 1_555
C14 C22 1_555 1_555
C17 C24 1_555 1_555
C18 C27 1_555 1_555
C19 C20 1_555 1_555
C26 C28 1_555 1_555
N1A C24A 1_555 1_555
C3A C4A 1_555 1_555
C5A C8A 1_555 1_555
C8A C9A 1_555 1_555
C9A C21A 1_555 1_555
C10A C27A 1_555 1_555
C14A C22A 1_555 1_555
C17A C24A 1_555 1_555
C18A C27A 1_555 1_555
C26A C28A 1_555 1_555
C19A C20A 1_555 1_555
C13A C23A 1_555 1_555

#END
