
#######################################################################
#
#                 Cambridge Crystallographic Data Centre
#                                CCDC 
#
#######################################################################
#
# If this CIF has been generated from an entry in the Cambridge 
# Structural Database, then it will include bibliographic, chemical, 
# crystal, experimental, refinement or atomic coordinate data resulting 
# from the CCDC's data processing and validation procedures.
#
#######################################################################

data_WIRGOT
_symmetry_cell_setting           monoclinic
_symmetry_space_group_name_H-M   'P 21/c'
_symmetry_Int_Tables_number      14
_space_group_name_Hall           '-P 2ybc'
loop_
_symmetry_equiv_pos_site_id
_symmetry_equiv_pos_as_xyz
1 x,y,z
2 -x,1/2+y,1/2-z
3 -x,-y,-z
4 x,1/2-y,1/2+z
_cell_length_a                   16.445(2)
_cell_length_b                   6.3075(6)
_cell_length_c                   21.092(3)
_cell_angle_alpha                90
_cell_angle_beta                 112.02(1)
_cell_angle_gamma                90
_cell_volume                     2028.21
loop_
_atom_site_label
_atom_site_type_symbol
_atom_site_fract_x
_atom_site_fract_y
_atom_site_fract_z
Sn1 Sn 0.25785(2) 0.19297(4) 0.01932(1)
Cl1 Cl 0.40228(7) 0.0193(2) 0.07883(6)
Cl2 Cl 0.17348(8) 0.0135(2) 0.07984(7)
O1 O 0.3283(2) 0.3846(6) -0.0440(2)
S1 S 0.39773(7) 0.2832(2) -0.06527(5)
C1 C 0.3896(3) 0.4170(8) -0.1417(2)
C2 C 0.4268(4) 0.329(1) -0.1828(3)
C3 C 0.4191(4) 0.428(1) -0.2434(3)
C4 C 0.3745(5) 0.610(1) -0.2621(3)
C5 C 0.3378(5) 0.698(1) -0.2211(3)
C6 C 0.3434(4) 0.604(1) -0.1608(3)
O2 O 0.1278(2) 0.3869(6) -0.0468(2)
S2 S 0.03389(7) 0.3082(2) -0.07375(6)
C7 C -0.0239(3) 0.4923(8) -0.1403(2)
C8 C 0.0225(4) 0.6531(8) -0.1547(2)
C9 C -0.0213(4) 0.797(1) -0.2057(3)
C10 C -0.1085(5) 0.782(1) -0.2403(3)
C11 C -0.1535(4) 0.620(1) -0.2247(4)
C12 C -0.1123(3) 0.471(1) -0.1758(3)
C13 C 0.2191(3) -0.0200(9) -0.0635(3)
C14 C 0.2879(3) 0.4639(7) 0.0819(2)
C15 C 0.5009(3) 0.3826(7) -0.0067(2)
C16 C -0.0097(3) 0.3862(7) -0.0104(2)
H1 H 0.4576 0.202 -0.1704
H2 H 0.4450 0.3678 -0.2714
H3 H 0.3691 0.6757 -0.3030
H4 H 0.3078 0.825 -0.2339
H5 H 0.3166 0.6655 -0.1335
H6 H 0.0826 0.6653 -0.1306
H7 H 0.0100 0.9055 -0.2161
H8 H -0.1378 0.8803 -0.2742
H9 H -0.2139 0.6106 -0.2481
H10 H -0.1435 0.3604 -0.1669
H11 H 0.1590 -0.0866 -0.0627
H12 H 0.2689 -0.1414 -0.0507
H13 H 0.2077 0.0409 -0.1140
H14 H 0.2780 0.3992 0.1259
H15 H 0.2476 0.6034 0.0642
H16 H 0.3561 0.5060 0.0959
H17 H 0.5169 0.3068 0.0363
H18 H 0.5458 0.3545 -0.0251
H19 H -0.0727 0.3647 -0.0286
H20 H 0.0154 0.2967 0.0297
C15B C 0.4991(3) 0.6174(7) 0.0067(2)
C16B C 0.0097(3) 0.6138(7) 0.0104(2)
loop_
_geom_bond_atom_site_label_1
_geom_bond_atom_site_label_2
_geom_bond_site_symmetry_1
_geom_bond_site_symmetry_2
Sn1 Cl1 1_555 1_555
Cl2 Sn1 1_555 1_555
O1 Sn1 1_555 1_555
S1 O1 1_555 1_555
C1 S1 1_555 1_555
C2 C1 1_555 1_555
C3 C2 1_555 1_555
C4 C3 1_555 1_555
C5 C4 1_555 1_555
C6 C1 1_555 1_555
O2 Sn1 1_555 1_555
S2 O2 1_555 1_555
C7 S2 1_555 1_555
C8 C7 1_555 1_555
C9 C8 1_555 1_555
C10 C9 1_555 1_555
C11 C10 1_555 1_555
C12 C7 1_555 1_555
C13 Sn1 1_555 1_555
C14 Sn1 1_555 1_555
C15 S1 1_555 1_555
C16 S2 1_555 1_555
H1 C2 1_555 1_555
H2 C3 1_555 1_555
H3 C4 1_555 1_555
H4 C5 1_555 1_555
H5 C6 1_555 1_555
H6 C8 1_555 1_555
H7 C9 1_555 1_555
H8 C10 1_555 1_555
H9 C11 1_555 1_555
H10 C12 1_555 1_555
H11 C13 1_555 1_555
H12 C13 1_555 1_555
H13 C13 1_555 1_555
H14 C14 1_555 1_555
H15 C14 1_555 1_555
H16 C14 1_555 1_555
H17 C15 1_555 1_555
H18 C15 1_555 1_555
H19 C16 1_555 1_555
H20 C16 1_555 1_555
C15B C15 1_555 1_555
C16B C16 1_555 1_555
C5 C6 1_555 1_555
C11 C12 1_555 1_555

#END
