
#######################################################################
#
#                 Cambridge Crystallographic Data Centre
#                                CCDC 
#
#######################################################################
#
# If this CIF has been generated from an entry in the Cambridge 
# Structural Database, then it will include bibliographic, chemical, 
# crystal, experimental, refinement or atomic coordinate data resulting 
# from the CCDC's data processing and validation procedures.
#
#######################################################################

data_WIRJOY
_symmetry_cell_setting           monoclinic
_symmetry_space_group_name_H-M   'P 21'
_symmetry_Int_Tables_number      4
_space_group_name_Hall           'P 2yb'
loop_
_symmetry_equiv_pos_site_id
_symmetry_equiv_pos_as_xyz
1 x,y,z
2 -x,1/2+y,-z
_cell_length_a                   6.3226(2)
_cell_length_b                   17.6883(6)
_cell_length_c                   21.9405(8)
_cell_angle_alpha                90
_cell_angle_beta                 90.7950(10)
_cell_angle_gamma                90
_cell_volume                     2453.5
loop_
_atom_site_label
_atom_site_type_symbol
_atom_site_fract_x
_atom_site_fract_y
_atom_site_fract_z
N1 N 0.0714(7) 0.9059(4) 1.0427(2)
C1 C 0.2315(10) 0.8585(4) 1.0505(3)
H1 H 0.2273 0.8235 1.0833
C2 C 0.4060(10) 0.8580(4) 1.0124(3)
H2 H 0.5171 0.8228 1.0195
C3 C 0.4190(8) 0.9087(4) 0.9641(2)
Hg1 Hg 1.66088(3) 0.904872(13) 0.622911(10)
Hg2 Hg -0.20416(3) 0.918756(13) 0.115122(10)
Cl1 Cl 1.7554(3) 1.03088(11) 0.59921(11)
Cl2 Cl 1.8078(3) 0.78653(11) 0.65068(10)
N2 N 1.3928(7) 0.8969(3) 0.5459(2)
N3 N 0.0688(8) 0.9324(3) 0.1905(2)
O1 O 0.8341(6) 0.7761(2) 0.4137(2)
O2 O 0.6540(7) 1.0566(2) 0.3141(2)
C4 C 0.8547(11) 0.9772(4) 0.3831(3)
H3 H 0.9345 1.0199 0.3961
C5 C 0.7822(12) 0.8450(5) 0.3889(4)
C6 C 1.2131(10) 0.8569(4) 0.5524(3)
H4 H 1.1951 0.8273 0.5880
C7 C 1.0715(8) 0.9018(4) 0.4564(2)
C8 C 1.2561(9) 0.9432(3) 0.4509(3)
H5 H 1.2767 0.9742 0.4162
C9 C 0.9006(8) 0.9072(4) 0.4096(2)
C10 C 0.7014(10) 0.9874(4) 0.3397(3)
C11 C 0.4071(10) 0.9780(3) 0.2243(3)
H6 H 0.5228 1.0112 0.2180
C12 C 0.2398(10) 0.9757(4) 0.1833(3)
H7 H 0.2466 1.0066 0.1480
C13 C 0.2251(9) 0.8874(4) 0.2833(3)
H8 H 0.2138 0.8559 0.3182
C14 C 0.5820(9) 0.9255(4) 0.3197(2)
C15 C 0.4035(9) 0.9309(4) 0.2752(3)
C16 C 1.0540(10) 0.8581(3) 0.5083(3)
H9 H 0.9306 0.8284 0.5139
C17 C 1.4099(10) 0.9394(3) 0.4959(3)
H10 H 1.5348 0.9686 0.4911
C18 C 0.6265(10) 0.8548(4) 0.3446(3)
H11 H 0.5480 0.8122 0.3309
C19 C 0.0627(9) 0.8900(4) 0.2404(3)
H12 H -0.0593 0.8599 0.2470
C20 C 0.8009(10) 0.6443(4) 0.4276(3)
H13 H 0.9199 0.6367 0.3994
H14 H 0.7048 0.6004 0.4229
C21 C 0.6827(10) 0.7142(4) 0.4082(3)
H15 H 0.6403 0.7088 0.3644
C22 C 0.7417(11) 1.1254(4) 0.3392(3)
H16 H 0.8958 1.1178 0.3481
N4 N 1.3982(7) 0.9178(3) 0.6992(2)
C23 C 1.0874(9) 0.9255(4) 0.7879(3)
C24 C 1.2244(10) 0.9598(4) 0.6908(3)
H17 H 1.2089 0.9874 0.6539
C25 C 1.0679(10) 0.9648(4) 0.7330(3)
H18 H 0.9463 0.9949 0.7250
C26 C 1.4190(10) 0.8801(4) 0.7516(3)
H19 H 1.5422 0.8503 0.7581
C27 C 1.2704(10) 0.8824(4) 0.7965(3)
H20 H 1.2918 0.8548 0.8332
Cl3 Cl -0.3079(3) 1.04125(10) 0.08288(9)
Cl4 Cl -0.3429(3) 0.80335(10) 0.15248(9)
C28 C 0.2490(9) 0.9581(3) 0.9569(3)
H21 H 0.2490 0.9939 0.9247
C29 C 0.0815(9) 0.9555(4) 0.9960(3)
H22 H -0.0320 0.9901 0.9899
C30 C 0.7152(11) 1.1838(4) 0.2891(3)
H23 H 0.7514 1.2343 0.3057
H24 H 0.5650 1.1850 0.2758
C31 C 0.8888(11) 0.6445(4) 0.4925(3)
H25 H 0.9746 0.6900 0.4991
H26 H 0.9769 0.5995 0.4990
H27 H 0.7717 0.6441 0.5213
C32 C 0.9185(8) 0.9242(3) 0.8338(2)
C33 C 0.6003(8) 0.9122(4) 0.9217(2)
C34 C 0.7235(11) 0.8488(4) 0.9071(4)
C35 C 0.6499(10) 0.9818(4) 0.8945(3)
H28 H 0.5748 1.0258 0.9064
C36 C 0.8780(11) 0.8561(4) 0.8624(3)
H29 H 0.9578 0.8128 0.8513
C37 C 0.8021(10) 0.9878(4) 0.8518(3)
O3 O 0.8601(6) 1.0550(2) 0.8246(2)
O4 O 0.6808(7) 0.7827(2) 0.9362(2)
C38 C 0.7180(11) 1.1188(4) 0.8247(4)
H30 H 0.6749 1.1287 0.8676
C39 C 0.8520(12) 1.1682(4) 0.2341(3)
H31 H 1.0005 1.1647 0.2472
H32 H 0.8356 1.2095 0.2046
H33 H 0.8081 1.1205 0.2151
C40 C 0.6313(13) 1.1451(4) 0.3972(3)
H34 H 0.4823 1.1562 0.3882
H35 H 0.6986 1.1896 0.4157
H36 H 0.6410 1.1024 0.4255
C41 C 0.7766(11) 0.7125(4) 0.9147(4)
H37 H 0.9290 0.7215 0.9056
C42 C 0.7602(12) 0.6580(4) 0.9665(3)
H38 H 0.7973 0.6069 0.9518
H39 H 0.6116 0.6565 0.9801
C43 C 0.6617(13) 0.6879(4) 0.8571(4)
H40 H 0.5168 0.6729 0.8669
H41 H 0.7359 0.6448 0.8390
H42 H 0.6579 0.7299 0.8280
C44 C 0.9273(11) 1.1783(4) 0.7383(3)
H43 H 1.0091 1.1316 0.7342
H44 H 1.0171 1.2218 0.7287
H45 H 0.8059 1.1771 0.7100
C45 C 0.8495(10) 1.1854(3) 0.8029(3)
H46 H 0.7635 1.2319 0.8060
H47 H 0.9734 1.1912 0.8306
C46 C 0.5226(10) 1.1033(4) 0.7870(3)
H48 H 0.5631 1.0885 0.7457
H49 H 0.4351 1.1490 0.7850
H50 H 0.4420 1.0622 0.8057
C47 C 0.4866(11) 0.7310(4) 0.4449(3)
H51 H 0.5267 0.7382 0.4878
H52 H 0.3877 0.6885 0.4413
H53 H 0.4188 0.7770 0.4293
C48 C 0.9026(12) 0.6775(4) 1.0210(3)
H54 H 1.0506 0.6775 1.0083
H55 H 0.8833 0.6398 1.0532
H56 H 0.8653 0.7276 1.0365
N1_2 N 0.0714(7) 0.9059(4) 0.0427(2)
Hg2_2 Hg -0.20416(3) 0.918756(13) 1.115122(10)
loop_
_geom_bond_atom_site_label_1
_geom_bond_atom_site_label_2
_geom_bond_site_symmetry_1
_geom_bond_site_symmetry_2
N1 C1 1_555 1_555
C1 H1 1_555 1_555
C2 C1 1_555 1_555
H2 C2 1_555 1_555
C3 C2 1_555 1_555
Hg1 Cl1 1_555 1_555
Hg2 N3 1_555 1_555
Cl2 Hg1 1_555 1_555
N2 Hg1 1_555 1_555
N3 C12 1_555 1_555
O1 C5 1_555 1_555
O2 C10 1_555 1_555
C4 H3 1_555 1_555
C5 C9 1_555 1_555
C6 N2 1_555 1_555
H4 C6 1_555 1_555
C7 C8 1_555 1_555
C8 H5 1_555 1_555
C9 C4 1_555 1_555
C10 C4 1_555 1_555
C11 H6 1_555 1_555
C12 C11 1_555 1_555
H7 C12 1_555 1_555
C13 H8 1_555 1_555
C14 C10 1_555 1_555
C15 C11 1_555 1_555
C16 C6 1_555 1_555
H9 C16 1_555 1_555
C17 N2 1_555 1_555
H10 C17 1_555 1_555
C18 C5 1_555 1_555
H11 C18 1_555 1_555
C19 N3 1_555 1_555
H12 C19 1_555 1_555
C20 H13 1_555 1_555
H14 C20 1_555 1_555
C21 O1 1_555 1_555
H15 C21 1_555 1_555
C22 O2 1_555 1_555
H16 C22 1_555 1_555
N4 Hg1 1_555 1_555
C23 C25 1_555 1_555
C24 N4 1_555 1_555
H17 C24 1_555 1_555
C25 C24 1_555 1_555
H18 C25 1_555 1_555
C26 N4 1_555 1_555
H19 C26 1_555 1_555
C27 C23 1_555 1_555
H20 C27 1_555 1_555
Cl3 Hg2 1_555 1_555
Cl4 Hg2 1_555 1_555
C28 C3 1_555 1_555
H21 C28 1_555 1_555
C29 N1 1_555 1_555
H22 C29 1_555 1_555
C30 C22 1_555 1_555
H23 C30 1_555 1_555
H24 C30 1_555 1_555
C31 C20 1_555 1_555
H25 C31 1_555 1_555
H26 C31 1_555 1_555
H27 C31 1_555 1_555
C32 C23 1_555 1_555
C33 C3 1_555 1_555
C34 C33 1_555 1_555
C35 C33 1_555 1_555
H28 C35 1_555 1_555
C36 C32 1_555 1_555
H29 C36 1_555 1_555
C37 C32 1_555 1_555
O3 C37 1_555 1_555
O4 C34 1_555 1_555
C38 O3 1_555 1_555
H30 C38 1_555 1_555
C39 C30 1_555 1_555
H31 C39 1_555 1_555
H32 C39 1_555 1_555
H33 C39 1_555 1_555
C40 C22 1_555 1_555
H34 C40 1_555 1_555
H35 C40 1_555 1_555
H36 C40 1_555 1_555
C41 O4 1_555 1_555
H37 C41 1_555 1_555
C42 C41 1_555 1_555
H38 C42 1_555 1_555
H39 C42 1_555 1_555
C43 C41 1_555 1_555
H40 C43 1_555 1_555
H41 C43 1_555 1_555
H42 C43 1_555 1_555
C44 H43 1_555 1_555
H44 C44 1_555 1_555
H45 C44 1_555 1_555
C45 C38 1_555 1_555
H46 C45 1_555 1_555
H47 C45 1_555 1_555
C46 C38 1_555 1_555
H48 C46 1_555 1_555
H49 C46 1_555 1_555
H50 C46 1_555 1_555
C47 C21 1_555 1_555
H51 C47 1_555 1_555
H52 C47 1_555 1_555
H53 C47 1_555 1_555
C48 C42 1_555 1_555
H54 C48 1_555 1_555
H55 C48 1_555 1_555
H56 C48 1_555 1_555
N1_2 Hg2 1_555 1_555
Hg2_2 N1 1_555 1_555
C7 C9 1_555 1_555
C7 C16 1_555 1_555
C8 C17 1_555 1_555
C13 C15 1_555 1_555
C13 C19 1_555 1_555
C14 C15 1_555 1_555
C14 C18 1_555 1_555
C20 C21 1_555 1_555
C26 C27 1_555 1_555
C28 C29 1_555 1_555
C34 C36 1_555 1_555
C35 C37 1_555 1_555
C44 C45 1_555 1_555

#END
