
#######################################################################
#
#                 Cambridge Crystallographic Data Centre
#                                CCDC 
#
#######################################################################
#
# If this CIF has been generated from an entry in the Cambridge 
# Structural Database, then it will include bibliographic, chemical, 
# crystal, experimental, refinement or atomic coordinate data resulting 
# from the CCDC's data processing and validation procedures.
#
#######################################################################

data_WIRJIS
_symmetry_cell_setting           triclinic
_symmetry_space_group_name_H-M   'P 1'
_symmetry_Int_Tables_number      1
_space_group_name_Hall           'P 1'
loop_
_symmetry_equiv_pos_site_id
_symmetry_equiv_pos_as_xyz
1 x,y,z
_cell_length_a                   5.0861(2)
_cell_length_b                   14.8867(8)
_cell_length_c                   22.8798(11)
_cell_angle_alpha                98.776(4)
_cell_angle_beta                 94.498(3)
_cell_angle_gamma                96.439(2)
_cell_volume                     1693.2
loop_
_atom_site_label
_atom_site_type_symbol
_atom_site_fract_x
_atom_site_fract_y
_atom_site_fract_z
Hg1 Hg 1.61808(4) -0.113888(19) 1.351218(16)
Cl1 Cl 1.7376(9) 0.0173(2) 1.42327(19)
Cl2 Cl 1.7348(8) -0.2373(3) 1.2849(2)
Hg2 Hg -1.25130(4) 0.437386(19) 0.871474(16)
Cl3 Cl -1.3821(10) 0.2945(3) 0.8072(2)
Cl4 Cl -1.3482(9) 0.5720(3) 0.9317(2)
N1 N 1.304(2) -0.0548(7) 1.2862(6)
C1 C 1.228(3) -0.0948(8) 1.2321(7)
H1 H 1.3088 -0.1473 1.2177
C2 C 1.046(3) -0.0695(10) 1.1946(8)
H2 H 1.0023 -0.1016 1.1553
C3 C 0.926(2) 0.0065(8) 1.2161(6)
C4 C 1.013(3) 0.0510(10) 1.2702(8)
H3 H 0.9439 0.1058 1.2847
C5 C 1.205(3) 0.0192(10) 1.3063(7)
H4 H 1.2615 0.0514 1.3452
C6 C 0.720(3) 0.0406(10) 1.1772(7)
H5 H 0.6690 0.0046 1.1392
C7 C 0.604(3) 0.1137(8) 1.1895(6)
H6 H 0.6667 0.1535 1.2256
C8 C 0.382(2) 0.1410(9) 1.1525(6)
C9 C 0.291(3) 0.2223(9) 1.1729(6)
C10 C 0.079(2) 0.2510(9) 1.1347(6)
H7 H 0.0136 0.3073 1.1477
C11 C -0.024(2) 0.2019(8) 1.0831(5)
C12 C 0.083(3) 0.1207(10) 1.0617(6)
C13 C 0.281(3) 0.0908(10) 1.0962(8)
H8 H 0.3494 0.0357 1.0819
O1 O 0.400(2) 0.2707(6) 1.2265(4)
C14 C 0.278(3) 0.3382(11) 1.2541(8)
H9 H 0.0864 0.3173 1.2540
H10 H 0.2969 0.3919 1.2333
C15 C 0.413(3) 0.3657(11) 1.3208(7)
H11 H 0.6066 0.3844 1.3181
C16 C 0.399(3) 0.2922(11) 1.3541(8)
H12 H 0.4544 0.2376 1.3301
H13 H 0.2126 0.2766 1.3622
C17 C 0.575(3) 0.3157(13) 1.4128(8)
H14 H 0.5486 0.3766 1.4328
H15 H 0.7617 0.3153 1.4052
H16 H 0.5273 0.2702 1.4382
C18 C 0.298(3) 0.4549(10) 1.3499(7)
H17 H 0.1097 0.4513 1.3355
H18 H 0.3969 0.5092 1.3390
H19 H 0.3154 0.4592 1.3933
O2 O -0.023(2) 0.0731(6) 1.0102(4)
C19 C 0.132(3) 0.0046(10) 0.9773(6)
H20 H 0.1467 -0.0482 0.9984
H21 H 0.3124 0.0331 0.9725
C20 C -0.032(3) -0.0256(9) 0.9169(5)
H22 H -0.2175 -0.0486 0.9236
C21 C 0.089(3) -0.1020(10) 0.8852(6)
H23 H 0.1107 -0.1478 0.9118
H24 H 0.2681 -0.0785 0.8759
C22 C -0.076(3) -0.1493(10) 0.8272(7)
H25 H -0.2656 -0.1521 0.8328
H26 H -0.0301 -0.2116 0.8168
H27 H -0.0372 -0.1145 0.7952
C23 C -0.040(5) 0.0557(10) 0.8832(8)
H28 H 0.1322 0.0942 0.8905
H29 H -0.1793 0.0920 0.8971
H30 H -0.0792 0.0330 0.8405
C24 C -0.213(2) 0.2337(7) 1.0423(6)
H31 H -0.2453 0.1999 1.0032
C25 C -0.344(2) 0.3059(9) 1.0546(6)
H32 H -0.3001 0.3429 1.0925
C26 C -0.549(3) 0.3329(10) 1.0154(7)
C27 C -0.620(3) 0.2842(10) 0.9565(7)
H33 H -0.5360 0.2323 0.9425
C28 C -0.813(3) 0.3136(11) 0.9198(8)
H34 H -0.8569 0.2805 0.8807
N2 N -0.943(2) 0.3871(9) 0.9367(6)
C29 C -0.865(3) 0.4379(9) 0.9900(7)
H35 H -0.9366 0.4934 1.0019
C30 C -0.672(3) 0.4068(10) 1.0289(7)
H36 H -0.6290 0.4417 1.0675
N3 N -0.939(2) 0.5065(7) 0.8126(5)
C31 C -0.827(2) 0.4532(8) 0.7703(5)
H37 H -0.8909 0.3896 0.7626
C32 C -0.633(2) 0.4831(8) 0.7382(6)
H38 H -0.5558 0.4412 0.7111
C33 C -0.548(2) 0.5776(7) 0.7460(5)
C34 C -0.663(3) 0.6300(8) 0.7907(7)
H39 H -0.6018 0.6936 0.8008
C35 C -0.864(3) 0.5923(9) 0.8209(6)
H40 H -0.9477 0.6316 0.8484
C36 C -0.350(2) 0.6179(8) 0.7121(5)
H41 H -0.3052 0.6825 0.7203
C37 C -0.225(2) 0.5717(7) 0.6702(5)
H42 H -0.2712 0.5071 0.6630
C38 C -0.029(2) 0.6078(7) 0.6343(5)
C39 C 0.074(2) 0.5488(7) 0.5919(5)
C40 C 0.275(2) 0.5828(7) 0.5583(6)
H43 H 0.3447 0.5422 0.5289
C41 C 0.3710(19) 0.6757(8) 0.5686(4)
C42 C 0.272(2) 0.7351(7) 0.6133(5)
C43 C 0.079(2) 0.7017(8) 0.6474(5)
H44 H 0.0203 0.7413 0.6790
O3 O -0.0326(17) 0.4595(5) 0.5807(4)
C44 C 0.101(2) 0.3927(7) 0.5489(6)
H45 H 0.2930 0.4033 0.5630
H46 H 0.0826 0.3970 0.5060
C45 C -0.016(3) 0.2991(8) 0.5581(6)
H47 H -0.2100 0.2949 0.5456
C46 C 0.004(3) 0.2899(10) 0.6252(7)
H48 H 0.1909 0.2842 0.6383
H49 H -0.0420 0.3469 0.6483
C47 C -0.169(3) 0.2114(9) 0.6394(8)
H50 H -0.3399 0.2040 0.6154
H51 H -0.1969 0.2225 0.6817
H52 H -0.0834 0.1556 0.6307
C48 C 0.078(3) 0.2241(9) 0.5205(7)
H53 H 0.0395 0.2301 0.4787
H54 H -0.0130 0.1658 0.5277
H55 H 0.2699 0.2258 0.5296
O4 O 0.3823(19) 0.8250(5) 0.6213(4)
C49 C 0.257(3) 0.8903(7) 0.6604(7)
H56 H 0.2880 0.8804 0.7021
H57 H 0.0631 0.8829 0.6491
C50 C 0.381(3) 0.9855(8) 0.6539(8)
H58 H 0.5793 0.9912 0.6602
C51 C 0.271(4) 1.0582(11) 0.6984(8)
H59 H 0.0778 1.0415 0.7002
H60 H 0.2990 1.1192 0.6861
C52 C 0.425(7) 1.0595(13) 0.7597(9)
H61 H 0.3485 1.0081 0.7777
H62 H 0.4121 1.1173 0.7857
H63 H 0.6123 1.0538 0.7546
C53 C 0.292(6) 1.0020(12) 0.5943(11)
H64 H 0.1612 0.9509 0.5746
H65 H 0.4452 1.0071 0.5709
H66 H 0.2113 1.0591 0.5975
C54 C 0.582(2) 0.7142(7) 0.5338(6)
H67 H 0.6369 0.7782 0.5440
C55 C 0.700(2) 0.6709(8) 0.4911(6)
H68 H 0.6515 0.6067 0.4796
C56 C 0.904(2) 0.7172(7) 0.4606(5)
C57 C 1.022(2) 0.6694(7) 0.4185(6)
H69 H 0.9756 0.6048 0.4093
C58 C 1.212(3) 0.7123(8) 0.3873(7)
H70 H 1.2838 0.6766 0.3558
N4 N 1.299(2) 0.8038(7) 0.4008(5)
C59 C 1.187(3) 0.8498(8) 0.4401(6)
H71 H 1.2361 0.9142 0.4485
C60 C 0.989(3) 0.8101(7) 0.4728(6)
H72 H 0.9151 0.8478 0.5030
Hg1_2 Hg 1.61808(4) 0.886112(19) 0.351218(16)
N4_2 N 1.299(2) -0.1962(7) 1.4008(5)
C61 C 0.498(3) 0.7456(12) 0.0368(9)
H73 H 0.6170 0.7000 0.0215
Cl5 Cl 0.6143(9) 0.8514(3) 0.0194(2)
Cl6 Cl 0.1757(17) 0.7083(6) 0.0044(5)
Cl7 Cl 0.502(2) 0.7513(7) 0.1125(4)
C62 C 0.894(4) 0.5846(11) 0.1829(7)
H74 H 0.7761 0.6328 0.1936
Cl8 Cl 0.8849(10) 0.5687(4) 0.1065(2)
Cl9 Cl 1.1929(7) 0.6252(3) 0.22153(17)
Cl10 Cl 0.7487(18) 0.4858(5) 0.2093(5)
loop_
_geom_bond_atom_site_label_1
_geom_bond_atom_site_label_2
_geom_bond_site_symmetry_1
_geom_bond_site_symmetry_2
Hg1 Cl1 1_555 1_555
Cl2 Hg1 1_555 1_555
Hg2 Cl3 1_555 1_555
Cl4 Hg2 1_555 1_555
N1 Hg1 1_555 1_555
C1 N1 1_555 1_555
H1 C1 1_555 1_555
C2 C1 1_555 1_555
H2 C2 1_555 1_555
C3 C2 1_555 1_555
C4 C3 1_555 1_555
H3 C4 1_555 1_555
C5 N1 1_555 1_555
H4 C5 1_555 1_555
C6 C3 1_555 1_555
H5 C6 1_555 1_555
C7 C6 1_555 1_555
H6 C7 1_555 1_555
C8 C7 1_555 1_555
C9 C8 1_555 1_555
C10 C9 1_555 1_555
H7 C10 1_555 1_555
C11 C10 1_555 1_555
C12 C11 1_555 1_555
C13 C8 1_555 1_555
H8 C13 1_555 1_555
O1 C9 1_555 1_555
C14 O1 1_555 1_555
H9 C14 1_555 1_555
H10 C14 1_555 1_555
C15 C14 1_555 1_555
H11 C15 1_555 1_555
C16 C15 1_555 1_555
H12 C16 1_555 1_555
H13 C16 1_555 1_555
C17 C16 1_555 1_555
H14 C17 1_555 1_555
H15 C17 1_555 1_555
H16 C17 1_555 1_555
C18 C15 1_555 1_555
H17 C18 1_555 1_555
H18 C18 1_555 1_555
H19 C18 1_555 1_555
O2 C12 1_555 1_555
C19 O2 1_555 1_555
H20 C19 1_555 1_555
H21 C19 1_555 1_555
C20 C19 1_555 1_555
H22 C20 1_555 1_555
C21 C20 1_555 1_555
H23 C21 1_555 1_555
H24 C21 1_555 1_555
C22 C21 1_555 1_555
H25 C22 1_555 1_555
H26 C22 1_555 1_555
H27 C22 1_555 1_555
C23 C20 1_555 1_555
H28 C23 1_555 1_555
H29 C23 1_555 1_555
H30 C23 1_555 1_555
C24 C11 1_555 1_555
H31 C24 1_555 1_555
C25 C24 1_555 1_555
H32 C25 1_555 1_555
C26 C25 1_555 1_555
C27 C26 1_555 1_555
H33 C27 1_555 1_555
C28 C27 1_555 1_555
H34 C28 1_555 1_555
N2 Hg2 1_555 1_555
C29 N2 1_555 1_555
H35 C29 1_555 1_555
C30 C26 1_555 1_555
H36 C30 1_555 1_555
N3 Hg2 1_555 1_555
C31 N3 1_555 1_555
H37 C31 1_555 1_555
C32 C31 1_555 1_555
H38 C32 1_555 1_555
C33 C32 1_555 1_555
C34 C33 1_555 1_555
H39 C34 1_555 1_555
C35 N3 1_555 1_555
H40 C35 1_555 1_555
C36 C33 1_555 1_555
H41 C36 1_555 1_555
C37 C36 1_555 1_555
H42 C37 1_555 1_555
C38 C37 1_555 1_555
C39 C38 1_555 1_555
C40 C39 1_555 1_555
H43 C40 1_555 1_555
C41 C40 1_555 1_555
C42 C41 1_555 1_555
C43 C38 1_555 1_555
H44 C43 1_555 1_555
O3 C39 1_555 1_555
C44 O3 1_555 1_555
H45 C44 1_555 1_555
H46 C44 1_555 1_555
C45 C44 1_555 1_555
H47 C45 1_555 1_555
C46 C45 1_555 1_555
H48 C46 1_555 1_555
H49 C46 1_555 1_555
C47 C46 1_555 1_555
H50 C47 1_555 1_555
H51 C47 1_555 1_555
H52 C47 1_555 1_555
C48 C45 1_555 1_555
H53 C48 1_555 1_555
H54 C48 1_555 1_555
H55 C48 1_555 1_555
O4 C42 1_555 1_555
C49 O4 1_555 1_555
H56 C49 1_555 1_555
H57 C49 1_555 1_555
C50 C49 1_555 1_555
H58 C50 1_555 1_555
C51 C50 1_555 1_555
H59 C51 1_555 1_555
H60 C51 1_555 1_555
C52 C51 1_555 1_555
H61 C52 1_555 1_555
H62 C52 1_555 1_555
H63 C52 1_555 1_555
C53 C50 1_555 1_555
H64 C53 1_555 1_555
H65 C53 1_555 1_555
H66 C53 1_555 1_555
C54 C41 1_555 1_555
H67 C54 1_555 1_555
C55 C54 1_555 1_555
H68 C55 1_555 1_555
C56 C55 1_555 1_555
C57 C56 1_555 1_555
H69 C57 1_555 1_555
C58 C57 1_555 1_555
H70 C58 1_555 1_555
N4 C58 1_555 1_555
C59 N4 1_555 1_555
H71 C59 1_555 1_555
C60 C56 1_555 1_555
H72 C60 1_555 1_555
C61 H73 1_555 1_555
Cl5 C61 1_555 1_555
Cl6 C61 1_555 1_555
Cl7 C61 1_555 1_555
C62 H74 1_555 1_555
Cl8 C62 1_555 1_555
Cl9 C62 1_555 1_555
Cl10 C62 1_555 1_555
Hg1_2 N4 1_555 1_555
N4_2 Hg1 1_555 1_555
C4 C5 1_555 1_555
C12 C13 1_555 1_555
C28 N2 1_555 1_555
C29 C30 1_555 1_555
C34 C35 1_555 1_555
C42 C43 1_555 1_555
C59 C60 1_555 1_555

#END
