
#######################################################################
#
#                 Cambridge Crystallographic Data Centre
#                                CCDC 
#
#######################################################################
#
# If this CIF has been generated from an entry in the Cambridge 
# Structural Database, then it will include bibliographic, chemical, 
# crystal, experimental, refinement or atomic coordinate data resulting 
# from the CCDC's data processing and validation procedures.
#
#######################################################################

data_WIRKOZ
_symmetry_cell_setting           rhombohedral
_symmetry_space_group_name_H-M   'R -3 c'
_symmetry_Int_Tables_number      167
_space_group_name_Hall           '-R 3 2"c'
loop_
_symmetry_equiv_pos_site_id
_symmetry_equiv_pos_as_xyz
1 x,y,z
2 -y,x-y,z
3 -x+y,-x,z
4 y,x,1/2-z
5 x-y,-y,1/2-z
6 -x,-x+y,1/2-z
7 2/3+x,1/3+y,1/3+z
8 2/3-y,1/3+x-y,1/3+z
9 2/3-x+y,1/3-x,1/3+z
10 2/3+y,1/3+x,5/6-z
11 2/3+x-y,1/3-y,5/6-z
12 2/3-x,1/3-x+y,5/6-z
13 1/3+x,2/3+y,2/3+z
14 1/3-y,2/3+x-y,2/3+z
15 1/3-x+y,2/3-x,2/3+z
16 1/3+y,2/3+x,1/6-z
17 1/3+x-y,2/3-y,1/6-z
18 1/3-x,2/3-x+y,1/6-z
19 -x,-y,-z
20 y,-x+y,-z
21 x-y,x,-z
22 -y,-x,1/2+z
23 -x+y,y,1/2+z
24 x,x-y,1/2+z
25 1/3-x,2/3-y,2/3-z
26 1/3+y,2/3-x+y,2/3-z
27 1/3+x-y,2/3+x,2/3-z
28 1/3-y,2/3-x,1/6+z
29 1/3-x+y,2/3+y,1/6+z
30 1/3+x,2/3+x-y,1/6+z
31 2/3-x,1/3-y,1/3-z
32 2/3+y,1/3-x+y,1/3-z
33 2/3+x-y,1/3+x,1/3-z
34 2/3-y,1/3-x,5/6+z
35 2/3-x+y,1/3+y,5/6+z
36 2/3+x,1/3+x-y,5/6+z
_cell_length_a                   33.48(2)
_cell_length_b                   33.48(2)
_cell_length_c                   105.59(7)
_cell_angle_alpha                90
_cell_angle_beta                 90
_cell_angle_gamma                120
_cell_volume                     102500
loop_
_atom_site_label
_atom_site_type_symbol
_atom_site_fract_x
_atom_site_fract_y
_atom_site_fract_z
Zn1 Zn 0.77898(6) 0.40121(6) 0.039619(14)
O1 O 0.7222(3) 0.3817(2) 0.03097(6)
O2 O 0.8257(3) 0.4185(3) 0.02634(8)
O3 O 0.7964(3) 0.4551(4) 0.04914(8)
O4 O 0.7840(5) 0.3594(3) 0.05005(7)
Zn2 Zn 0.73910(6) 0.44170(6) 0.023401(14)
Zn3 Zn 0.6667 0.3333 0.04219(3)
C1 C 0.8223(6) 0.4413(5) 0.01729(15)
C2 C 0.7857(6) 0.4865(5) 0.04567(14)
O5 O 0.7958(4) 0.4559(3) 0.01466(8)
O6 O 0.7597(3) 0.4855(3) 0.03682(8)
O7 O 0.7089(4) 0.4609(7) 0.01148(9)
O8 O 0.6793(5) 0.3879(3) 0.05389(7)
C3 C 0.8594(6) 0.4508(5) 0.00707(12)
C4 C 0.8047(5) 0.5281(6) 0.05462(13)
C5 C 0.8618(5) 0.4749(5) -0.00444(15)
C6 C 0.8915(5) 0.4382(5) 0.00822(13)
C7 C 0.8330(4) 0.5336(4) 0.06569(14)
C8 C 0.8012(5) 0.5657(6) 0.05127(12)
C9 C 0.8942(7) 0.4836(6) -0.01283(15)
H1 H 0.8400 0.4845 -0.0060
H2 H 0.8908 0.4219 0.0157
C10 C 0.9256(5) 0.4470(5) -0.00060(16)
C11 C 0.8518(5) 0.5731(6) 0.07317(14)
H3 H 0.8388 0.5094 0.0679
H4 H 0.7872 0.5660 0.0435
C12 C 0.8188(6) 0.6050(5) 0.05963(16)
C13 C 0.9268(6) 0.4691(6) -0.01183(16)
H5 H 0.8957 0.5011 -0.0201
H6 H 0.9479 0.4380 0.0010
C14 C 0.8435(6) 0.6079(6) 0.07022(14)
H7 H 0.8703 0.5758 0.0803
H8 H 0.8131 0.6294 0.0577
C15 C 0.9603(6) 0.4751(6) -0.02182(15)
C16 C 0.8588(6) 0.6498(5) 0.07836(14)
H9 H 0.9921 0.4941 -0.0186
H10 H 0.9559 0.4446 -0.0243
O9 O 0.9539(4) 0.4965(4) -0.03226(13)
H11 H 0.8757 0.6781 0.0732
H12 H 0.8317 0.6496 0.0822
O10 O 0.8875(4) 0.6489(4) 0.08787(11)
C17 C 0.9903(7) 0.5177(6) -0.04079(17)
C18 C 0.9077(6) 0.6855(7) 0.09548(16)
C19 C 1.0245(7) 0.5055(5) -0.04107(15)
C20 C 0.9818(7) 0.5381(7) -0.05178(18)
C21 C 0.8968(6) 0.7196(7) 0.09558(14)
C22 C 0.9312(7) 0.6800(7) 0.10635(18)
H13 H 1.0235 0.4829 -0.0354
C23 C 1.0603(6) 0.5272(5) -0.04984(16)
C24 C 1.0169(7) 0.5582(7) -0.06009(17)
C25 C 0.9438(8) 0.5469(9) -0.0542(2)
C26 C 0.9184(6) 0.7554(6) 0.10500(19)
H14 H 0.8757 0.7198 0.0896
C27 C 0.9526(7) 0.7141(7) 0.11521(18)
C28 C 0.9434(7) 0.6436(6) 0.10815(17)
H15 H 1.0879 0.5259 -0.0489
C29 C 1.0544(6) 0.5515(7) -0.06031(17)
C30 C 1.0086(7) 0.5880(8) -0.06974(19)
H16 H 0.9182 0.5313 -0.0479
C31 C 0.9290(9) 0.5338(9) -0.0665(3)
C32 C 0.9665(7) 0.5976(10) -0.0535(2)
C33 C 0.9455(8) 0.7498(10) 0.1154(2)
H17 H 0.9154 0.7821 0.1046
C34 C 0.9826(7) 0.7112(6) 0.12437(17)
H18 H 0.9287 0.6184 0.1017
C35 C 0.9921(8) 0.6639(7) 0.10855(18)
C36 C 0.9251(6) 0.6268(7) 0.12191(17)
O11 O 1.0866(4) 0.5725(4) -0.06906(10)
H19 H 1.0338 0.6035 -0.0762
C37 C 0.9618(9) 0.5532(7) -0.0755(2)
C38 C 1.0002(7) 0.6201(10) -0.0624(2)
C39 C 0.8846(10) 0.5037(10) -0.0706(3)
C40 C 0.9542(9) 0.6233(10) -0.0455(2)
O12 O 0.9626(4) 0.7869(5) 0.12418(11)
H20 H 0.9988 0.7388 0.1300
C41 C 1.0137(8) 0.6999(7) 0.11726(17)
C42 C 0.9477(6) 0.6660(7) 0.13138(18)
C43 C 1.0201(9) 0.6522(7) 0.10137(19)
C44 C 0.8952(6) 0.5823(7) 0.12564(19)
C45 C 1.1200(6) 0.5645(5) -0.06995(11)
C46 C 0.9493(9) 0.5407(8) -0.0895(3)
C47 C 1.0237(9) 0.6629(12) -0.06417(19)
C48 C 0.8777(10) 0.4917(11) -0.0860(3)
H21 H 0.8593 0.4906 -0.0649
C49 C 0.9782(9) 0.6686(10) -0.0464(2)
H22 H 0.9295 0.6085 -0.0396
C50 C 0.9445(7) 0.8157(7) 0.12557(17)
C51 C 1.0586(10) 0.7217(9) 0.1186(2)
C52 C 0.9368(6) 0.6555(7) 0.14378(16)
H23 H 1.0055 0.6265 0.0958
C53 C 1.0667(9) 0.6753(8) 0.1019(2)
H24 H 0.8812 0.5579 0.1197
C54 C 0.8861(6) 0.5744(7) 0.13864(18)
H25 H 1.1069 0.5309 -0.0711
H26 H 1.1368 0.5729 -0.0618
C55 C 1.1543(5) 0.5890(5) -0.08031(11)
H27 H 0.9725 0.5550 -0.0958
C56 C 0.9058(10) 0.5096(10) -0.0930(3)
H28 H 1.0478 0.6750 -0.0703
C57 C 1.0139(9) 0.6937(9) -0.0570(2)
H29 H 0.8483 0.4685 -0.0889
H30 H 0.9733 0.6865 -0.0403
H31 H 0.9104 0.7974 0.1260
H32 H 0.9532 0.8370 0.1183
C58 C 0.9634(7) 0.8418(7) 0.1373(2)
C59 C 1.0844(8) 0.7081(9) 0.1112(2)
H33 H 1.0734 0.7465 0.1244
C60 C 0.9057(7) 0.6132(7) 0.14751(17)
H34 H 0.9518 0.6790 0.1500
H35 H 1.0854 0.6694 0.0963
H36 H 0.8673 0.5439 0.1417
C61 C 1.1428(5) 0.6103(5) -0.08958(13)
C62 C 1.1979(5) 0.5922(4) -0.08147(12)
H37 H 0.8992 0.5029 -0.1017
H38 H 1.0280 0.7259 -0.0586
C63 C 0.9527(7) 0.8770(8) 0.1412(2)
C64 C 0.9852(8) 0.8314(7) 0.1458(2)
H39 H 1.1166 0.7226 0.1128
H40 H 0.8960 0.6081 0.1561
H41 H 1.1140 0.6092 -0.0890
C65 C 1.1714(5) 0.6335(4) -0.09991(11)
C66 C 1.2248(4) 0.6146(5) -0.09162(13)
H42 H 1.2083 0.5790 -0.0752
H43 H 0.9358 0.8865 0.1360
C67 C 0.9690(7) 0.8960(6) 0.15328(17)
C68 C 1.0073(7) 0.8584(6) 0.15779(16)
H44 H 0.9874 0.8045 0.1444
H45 H 1.1618 0.6467 -0.1063
C69 C 1.2153(5) 0.6366(4) -0.10041(11)
H46 H 1.2529 0.6143 -0.0925
H47 H 0.9598 0.9172 0.1560
C70 C 0.9942(7) 0.8897(6) 0.16117(15)
H48 H 1.0287 0.8540 0.1626
C71 C 1.2473(5) 0.6635(8) -0.11080(11)
C72 C 1.0154(9) 0.9184(11) 0.1719(2)
O13 O 0.9934(4) 0.9365(6) 0.17579(8)
O1A O 0.6183(2) 0.3405(4) 0.03097(6)
O1B O 0.6595(4) 0.2778(3) 0.03097(6)
O8B O 0.7086(6) 0.3207(5) 0.05389(7)
O8A O 0.6121(3) 0.2914(6) 0.05389(7)
Zn1A Zn 0.59879(6) 0.37777(8) 0.039619(14)
Zn2A Zn 0.55830(6) 0.29740(8) 0.023401(14)
Zn1B Zn 0.62223(8) 0.22102(6) 0.039619(14)
Zn2B Zn 0.70260(8) 0.26090(6) 0.023401(14)
O2A O 0.5815(3) 0.4072(4) 0.02634(8)
O3A O 0.5449(4) 0.3413(5) 0.04914(8)
O4A O 0.6406(3) 0.4246(6) 0.05005(7)
O5A O 0.5441(3) 0.3399(5) 0.01466(8)
O6A O 0.5145(3) 0.2742(4) 0.03682(8)
O7A O 0.5391(7) 0.2480(8) 0.01148(9)
O2B O 0.5928(4) 0.1743(3) 0.02634(8)
O3B O 0.6587(5) 0.2036(3) 0.04914(8)
O4B O 0.5754(6) 0.2160(5) 0.05005(7)
O5B O 0.6601(5) 0.2042(4) 0.01466(8)
O6B O 0.7258(4) 0.2403(3) 0.03682(8)
O7B O 0.7520(8) 0.2911(4) 0.01148(9)
C1A C 0.5587(5) 0.3810(8) 0.01729(15)
C2A C 0.5135(5) 0.2992(8) 0.04567(14)
C1B C 0.6190(8) 0.1777(6) 0.01729(15)
C2B C 0.7008(8) 0.2143(6) 0.04567(14)
C3A C 0.5492(5) 0.4086(8) 0.00707(12)
C4A C 0.4719(6) 0.2766(8) 0.05462(13)
C3B C 0.5914(8) 0.1406(6) 0.00707(12)
C4B C 0.7234(8) 0.1953(5) 0.05462(13)
C5A C 0.5251(5) 0.3869(7) -0.00444(15)
C6A C 0.5618(5) 0.4533(7) 0.00822(13)
C7A C 0.4664(4) 0.2994(6) 0.06569(14)
C8A C 0.4343(6) 0.2355(8) 0.05127(12)
C5B C 0.6131(7) 0.1382(5) -0.00444(15)
C6B C 0.5467(7) 0.1085(5) 0.00822(13)
C7B C 0.7006(6) 0.1670(4) 0.06569(14)
C8B C 0.7645(8) 0.1988(5) 0.05127(12)
C9A C 0.5164(6) 0.4106(9) -0.01283(15)
H1A H 0.5155 0.3555 -0.0060
H2A H 0.5781 0.4689 0.0157
C10A C 0.5530(5) 0.4786(7) -0.00060(16)
C11A C 0.4269(6) 0.2787(8) 0.07317(14)
H3A H 0.4906 0.3294 0.0679
H4A H 0.4340 0.2212 0.0435
C12A C 0.3950(5) 0.2138(8) 0.05963(16)
C9B C 0.5894(9) 0.1058(7) -0.01283(15)
H1B H 0.6445 0.1600 -0.0060
H2B H 0.5311 0.1092 0.0157
C10B C 0.5214(7) 0.0744(5) -0.00060(16)
C11B C 0.7213(8) 0.1482(5) 0.07317(14)
H3B H 0.6706 0.1612 0.0679
H4B H 0.7788 0.2128 0.0435
C12B C 0.7862(8) 0.1812(6) 0.05963(16)
C13A C 0.5309(6) 0.4577(8) -0.01183(16)
H5A H 0.4989 0.3946 -0.0201
H6A H 0.5620 0.5099 0.0010
C14A C 0.3921(6) 0.2356(8) 0.07022(14)
H7A H 0.4242 0.2945 0.0803
H8A H 0.3706 0.1837 0.0577
C13B C 0.5423(8) 0.0732(6) -0.01183(16)
H5B H 0.6054 0.1043 -0.0201
H6B H 0.4901 0.0521 0.0010
C14B C 0.7644(8) 0.1565(6) 0.07022(14)
H7B H 0.7055 0.1297 0.0803
H8B H 0.8163 0.1869 0.0577
C15A C 0.5249(6) 0.4852(8) -0.02182(15)
C16A C 0.3502(5) 0.2090(8) 0.07836(14)
C15B C 0.5148(8) 0.0397(6) -0.02182(15)
C16B C 0.7910(8) 0.1412(6) 0.07836(14)
H9A H 0.5059 0.4980 -0.0186
H10A H 0.5554 0.5113 -0.0243
O9A O 0.5035(4) 0.4574(6) -0.03226(13)
H11A H 0.3219 0.1976 0.0732
H12A H 0.3504 0.1821 0.0822
O10A O 0.3511(4) 0.2386(6) 0.08787(11)
H9B H 0.5020 0.0079 -0.0186
H10B H 0.4887 0.0441 -0.0243
O9B O 0.5426(6) 0.0461(4) -0.03226(13)
H11B H 0.8024 0.1243 0.0732
H12B H 0.8179 0.1683 0.0822
O10B O 0.7614(6) 0.1125(4) 0.08787(11)
C17A C 0.4823(6) 0.4726(9) -0.04079(17)
C18A C 0.3145(7) 0.2222(9) 0.09548(16)
C17B C 0.5274(9) 0.0097(7) -0.04079(17)
C18B C 0.7778(9) 0.0923(6) 0.09548(16)
C19A C 0.4945(5) 0.5190(9) -0.04107(15)
C20A C 0.4619(7) 0.4437(10) -0.05178(18)
C21A C 0.2804(7) 0.1772(9) 0.09558(14)
C22A C 0.3200(7) 0.2512(10) 0.10635(18)
C19B C 0.4810(9) -0.0245(7) -0.04107(15)
C20B C 0.5563(10) 0.0182(7) -0.05178(18)
C21B C 0.8228(9) 0.1032(6) 0.09558(14)
C22B C 0.7488(10) 0.0688(7) 0.10635(18)
H13A H 0.5171 0.5406 -0.0354
C23A C 0.4728(5) 0.5331(8) -0.04984(16)
C24A C 0.4418(7) 0.4587(10) -0.06009(17)
C25A C 0.4531(9) 0.3969(12) -0.0542(2)
C26A C 0.2446(6) 0.1630(8) 0.10500(19)
H14A H 0.2802 0.1559 0.0896
C27A C 0.2859(7) 0.2385(10) 0.11521(18)
C28A C 0.3564(6) 0.2998(9) 0.10815(17)
H13B H 0.4594 -0.0235 -0.0354
C23B C 0.4669(8) -0.0603(6) -0.04984(16)
C24B C 0.5413(10) -0.0169(7) -0.06009(17)
C25B C 0.6031(12) 0.0562(8) -0.0542(2)
C26B C 0.8370(8) 0.0816(6) 0.10500(19)
H14B H 0.8441 0.1243 0.0896
C27B C 0.7615(10) 0.0474(7) 0.11521(18)
C28B C 0.7002(9) 0.0566(7) 0.10815(17)
H15A H 0.4741 0.5620 -0.0489
C29A C 0.4485(7) 0.5029(9) -0.06031(17)
C30A C 0.4120(8) 0.4206(11) -0.06974(19)
H16A H 0.4687 0.3869 -0.0479
C31A C 0.4662(9) 0.3952(13) -0.0665(3)
C32A C 0.4024(10) 0.3689(12) -0.0535(2)
C33A C 0.2502(10) 0.1957(13) 0.1154(2)
H17A H 0.2179 0.1333 0.1046
C34A C 0.2888(6) 0.2714(9) 0.12437(17)
H18A H 0.3816 0.3103 0.1017
C35A C 0.3361(7) 0.3282(11) 0.10855(18)
C36A C 0.3732(7) 0.2983(9) 0.12191(17)
H15B H 0.4380 -0.0879 -0.0489
C29B C 0.4971(9) -0.0544(6) -0.06031(17)
C30B C 0.5794(11) -0.0086(7) -0.06974(19)
H16B H 0.6131 0.0818 -0.0479
C31B C 0.6048(13) 0.0710(9) -0.0665(3)
C32B C 0.6311(12) 0.0335(7) -0.0535(2)
C33B C 0.8043(13) 0.0545(8) 0.1154(2)
H17B H 0.8667 0.0846 0.1046
C34B C 0.7286(9) 0.0174(7) 0.12437(17)
H18B H 0.6897 0.0713 0.1017
C35B C 0.6718(11) 0.0079(8) 0.10855(18)
C36B C 0.7017(9) 0.0749(6) 0.12191(17)
O11A O 0.4275(4) 0.5141(6) -0.06906(10)
H19A H 0.3965 0.4303 -0.0762
C37A C 0.4468(7) 0.4086(11) -0.0755(2)
C38A C 0.3799(10) 0.3801(12) -0.0624(2)
C39A C 0.4963(10) 0.3809(14) -0.0706(3)
C40A C 0.3767(10) 0.3309(13) -0.0455(2)
O12A O 0.2131(5) 0.1757(6) 0.12418(11)
H20A H 0.2612 0.2600 0.1300
C41A C 0.3001(7) 0.3138(11) 0.11726(17)
C42A C 0.3340(7) 0.2817(9) 0.13138(18)
C43A C 0.3478(7) 0.3679(11) 0.10137(19)
C44A C 0.4177(7) 0.3129(9) 0.12564(19)
O11B O 0.4859(6) -0.0866(4) -0.06906(10)
H19B H 0.5697 -0.0338 -0.0762
C37B C 0.5914(11) 0.0382(9) -0.0755(2)
C38B C 0.6199(12) -0.0002(7) -0.0624(2)
C39B C 0.6191(14) 0.1154(10) -0.0706(3)
C40B C 0.6691(13) 0.0458(9) -0.0455(2)
O12B O 0.8243(6) 0.0374(4) 0.12418(11)
H20B H 0.7400 0.0012 0.1300
C41B C 0.6862(11) -0.0137(8) 0.11726(17)
C42B C 0.7183(9) 0.0523(6) 0.13138(18)
C43B C 0.6321(11) -0.0201(9) 0.10137(19)
C44B C 0.6871(9) 0.1048(6) 0.12564(19)
C45A C 0.4355(5) 0.5555(8) -0.06995(11)
C46A C 0.4593(8) 0.4086(12) -0.0895(3)
C47A C 0.3371(12) 0.3608(15) -0.06417(19)
C48A C 0.5083(11) 0.3860(15) -0.0860(3)
H21A H 0.5094 0.3687 -0.0649
C49A C 0.3314(10) 0.3096(13) -0.0464(2)
H22A H 0.3915 0.3210 -0.0396
C50A C 0.1843(7) 0.1288(10) 0.12557(17)
C51A C 0.2783(9) 0.3369(13) 0.1186(2)
C52A C 0.3445(7) 0.2813(9) 0.14378(16)
H23A H 0.3735 0.3790 0.0958
C53A C 0.3247(8) 0.3914(12) 0.1019(2)
H24A H 0.4421 0.3233 0.1197
C54A C 0.4256(7) 0.3117(9) 0.13864(18)
C45B C 0.4445(8) -0.1200(6) -0.06995(11)
C46B C 0.5914(12) 0.0507(9) -0.0895(3)
C47B C 0.6392(15) -0.0237(9) -0.06417(19)
C48B C 0.6140(15) 0.1223(10) -0.0860(3)
H21B H 0.6313 0.1407 -0.0649
C49B C 0.6904(13) 0.0218(9) -0.0464(2)
H22B H 0.6790 0.0705 -0.0396
C50B C 0.8712(10) 0.0555(7) 0.12557(17)
C51B C 0.6631(13) -0.0586(10) 0.1186(2)
C52B C 0.7187(9) 0.0632(6) 0.14378(16)
H23B H 0.6210 -0.0055 0.0958
C53B C 0.6086(12) -0.0667(9) 0.1019(2)
H24B H 0.6767 0.1188 0.1197
C54B C 0.6883(9) 0.1139(6) 0.13864(18)
H25A H 0.4691 0.5760 -0.0711
H26A H 0.4271 0.5639 -0.0618
C55A C 0.4110(5) 0.5653(7) -0.08031(11)
H27A H 0.4450 0.4175 -0.0958
C56A C 0.4904(10) 0.3962(14) -0.0930(3)
H28A H 0.3250 0.3728 -0.0703
C57A C 0.3063(9) 0.3202(13) -0.0570(2)
H29A H 0.5315 0.3798 -0.0889
H30A H 0.3135 0.2868 -0.0403
H31A H 0.2026 0.1130 0.1260
H32A H 0.1630 0.1162 0.1183
C58A C 0.1582(7) 0.1216(10) 0.1373(2)
C59A C 0.2919(9) 0.3763(12) 0.1112(2)
H33A H 0.2535 0.3269 0.1244
C60A C 0.3868(7) 0.2925(10) 0.14751(17)
H34A H 0.3210 0.2728 0.1500
H35A H 0.3306 0.4160 0.0963
H36A H 0.4561 0.3234 0.1417
H25B H 0.4240 -0.1069 -0.0711
H26B H 0.4361 -0.1368 -0.0618
C55B C 0.4347(7) -0.1543(5) -0.08031(11)
H27B H 0.5825 0.0275 -0.0958
C56B C 0.6038(14) 0.0942(10) -0.0930(3)
H28B H 0.6272 -0.0478 -0.0703
C57B C 0.6798(13) -0.0139(9) -0.0570(2)
H29B H 0.6202 0.1517 -0.0889
H30B H 0.7132 0.0267 -0.0403
H31B H 0.8870 0.0896 0.1260
H32B H 0.8838 0.0468 0.1183
C58B C 0.8784(10) 0.0366(7) 0.1373(2)
C59B C 0.6237(12) -0.0844(8) 0.1112(2)
H33B H 0.6731 -0.0734 0.1244
C60B C 0.7075(10) 0.0943(7) 0.14751(17)
H34B H 0.7272 0.0482 0.1500
H35B H 0.5840 -0.0854 0.0963
H36B H 0.6766 0.1327 0.1417
C61A C 0.3897(5) 0.5325(7) -0.08958(13)
C62A C 0.4078(4) 0.6057(6) -0.08147(12)
H37A H 0.4971 0.3963 -0.1017
H38A H 0.2741 0.3021 -0.0586
C63A C 0.1230(8) 0.0757(11) 0.1412(2)
C64A C 0.1686(7) 0.1538(11) 0.1458(2)
H39A H 0.2774 0.3940 0.1128
H40A H 0.3919 0.2879 0.1561
C61B C 0.4675(7) -0.1428(5) -0.08958(13)
C62B C 0.3943(6) -0.1979(5) -0.08147(12)
H37B H 0.6037 0.1008 -0.1017
H38B H 0.6979 -0.0280 -0.0586
C63B C 0.9243(11) 0.0473(7) 0.1412(2)
C64B C 0.8462(11) 0.0148(8) 0.1458(2)
H39B H 0.6060 -0.1166 0.1128
H40B H 0.7121 0.1040 0.1561
O8GA O 1.2788(3) 0.6540(5) -0.11278(7)
O4HA O 1.2421(6) 0.6927(3) -0.11662(7)
O7CA O 1.0422(4) 0.9147(8) 0.17815(9)
H41A H 0.3908 0.5048 -0.0890
C65A C 0.3665(4) 0.5379(6) -0.09991(11)
C66A C 0.3854(5) 0.6102(6) -0.09162(13)
H42A H 0.4210 0.6293 -0.0752
H43A H 0.1135 0.0493 0.1360
C67A C 0.1040(6) 0.0730(9) 0.15328(17)
C68A C 0.1416(6) 0.1489(9) 0.15779(16)
H44A H 0.1955 0.1829 0.1444
H41B H 0.4952 -0.1140 -0.0890
C65B C 0.4621(6) -0.1714(5) -0.09991(11)
C66B C 0.3898(6) -0.2248(4) -0.09162(13)
H42B H 0.3707 -0.2083 -0.0752
H43B H 0.9507 0.0642 0.1360
C67B C 0.9270(9) 0.0310(7) 0.15328(17)
C68B C 0.8511(9) -0.0073(7) 0.15779(16)
H44B H 0.8171 0.0126 0.1444
Zn3GA Zn 1.3334 0.6666 -0.12448(3)
Zn1HA Zn 1.28890(8) 0.73454(6) -0.127048(14)
Zn2CA Zn 1.07243(6) 0.96407(8) 0.190068(14)
H45A H 0.3533 0.5151 -0.1063
C69A C 0.3634(4) 0.5787(6) -0.10041(11)
H46A H 0.3857 0.6386 -0.0925
H47A H 0.0828 0.0426 0.1560
C70A C 0.1103(6) 0.1045(9) 0.16117(15)
H48A H 0.1460 0.1747 0.1626
H45B H 0.4849 -0.1618 -0.1063
C69B C 0.4213(6) -0.2153(5) -0.10041(11)
H46B H 0.3614 -0.2529 -0.0925
H47B H 0.9574 0.0402 0.1560
C70B C 0.8955(9) 0.0058(7) 0.16117(15)
H48B H 0.8253 -0.0287 0.1626
C71A C 0.3365(8) 0.5838(9) -0.11080(11)
C72A C 0.0816(11) 0.0970(14) 0.1719(2)
C71B C 0.4162(9) -0.2473(5) -0.11080(11)
C72B C 0.9030(14) -0.0154(9) 0.1719(2)
O8IA O 0.3460(5) 0.6247(6) -0.11278(7)
O4GA O 0.3073(3) 0.5493(5) -0.11662(7)
O7BA O 0.0853(8) 0.1276(7) 0.17815(9)
O13A O 0.0635(6) 0.0569(7) 0.17579(8)
O8HA O 0.3753(6) -0.2788(3) -0.11278(7)
O4IA O 0.4507(5) -0.2421(6) -0.11662(7)
O7AA O 0.8724(7) -0.0422(4) 0.17815(9)
O13B O 0.9431(7) 0.0066(4) 0.17579(8)
Zn3GA_2 Zn 0.3334 0.6666 -0.12448(3)
Zn1GA Zn 0.26546(6) 0.55435(6) -0.127048(14)
Zn2BA Zn 0.03593(8) 0.10837(6) 0.190068(14)
Zn3GA_3 Zn 0.3334 -0.3334 -0.12448(3)
Zn1IA Zn 0.44565(6) -0.28890(8) -0.127048(14)
Zn2AA Zn 0.89163(6) -0.07243(6) 0.190068(14)
loop_
_geom_bond_atom_site_label_1
_geom_bond_atom_site_label_2
_geom_bond_site_symmetry_1
_geom_bond_site_symmetry_2
Zn1 O1 1_555 1_555
O1 Zn2 1_555 1_555
O2 Zn1 1_555 1_555
O3 Zn1 1_555 1_555
O4 Zn1 1_555 1_555
Zn2 O5 1_555 1_555
Zn3 O1 1_555 1_555
C1 O2 1_555 1_555
C2 O3 1_555 1_555
O5 C1 1_555 1_555
O6 Zn2 1_555 1_555
O7 Zn2 1_555 1_555
O8 Zn3 1_555 1_555
C3 C1 1_555 1_555
C4 C2 1_555 1_555
C5 C3 1_555 1_555
C6 C3 1_555 1_555
C7 C4 1_555 1_555
C8 C4 1_555 1_555
C9 C5 1_555 1_555
H1 C5 1_555 1_555
H2 C6 1_555 1_555
C10 C6 1_555 1_555
C11 C7 1_555 1_555
H3 C7 1_555 1_555
H4 C8 1_555 1_555
C12 C8 1_555 1_555
C13 C9 1_555 1_555
H5 C9 1_555 1_555
H6 C10 1_555 1_555
C14 C11 1_555 1_555
H7 C11 1_555 1_555
H8 C12 1_555 1_555
C15 C13 1_555 1_555
C16 C14 1_555 1_555
H9 C15 1_555 1_555
H10 C15 1_555 1_555
O9 C15 1_555 1_555
H11 C16 1_555 1_555
H12 C16 1_555 1_555
O10 C16 1_555 1_555
C17 O9 1_555 1_555
C18 O10 1_555 1_555
C19 C17 1_555 1_555
C20 C17 1_555 1_555
C21 C18 1_555 1_555
C22 C18 1_555 1_555
H13 C19 1_555 1_555
C23 C19 1_555 1_555
C24 C20 1_555 1_555
C25 C20 1_555 1_555
C26 C21 1_555 1_555
H14 C21 1_555 1_555
C27 C22 1_555 1_555
C28 C22 1_555 1_555
H15 C23 1_555 1_555
C29 C23 1_555 1_555
C30 C24 1_555 1_555
H16 C25 1_555 1_555
C31 C25 1_555 1_555
C32 C25 1_555 1_555
C33 C26 1_555 1_555
H17 C26 1_555 1_555
C34 C27 1_555 1_555
H18 C28 1_555 1_555
C35 C28 1_555 1_555
C36 C28 1_555 1_555
O11 C29 1_555 1_555
H19 C30 1_555 1_555
C37 C30 1_555 1_555
C38 C30 1_555 1_555
C39 C31 1_555 1_555
C40 C32 1_555 1_555
O12 C33 1_555 1_555
H20 C34 1_555 1_555
C41 C34 1_555 1_555
C42 C34 1_555 1_555
C43 C35 1_555 1_555
C44 C36 1_555 1_555
C45 O11 1_555 1_555
C46 C37 1_555 1_555
C47 C38 1_555 1_555
C48 C39 1_555 1_555
H21 C39 1_555 1_555
C49 C40 1_555 1_555
H22 C40 1_555 1_555
C50 O12 1_555 1_555
C51 C41 1_555 1_555
C52 C42 1_555 1_555
H23 C43 1_555 1_555
C53 C43 1_555 1_555
H24 C44 1_555 1_555
C54 C44 1_555 1_555
H25 C45 1_555 1_555
H26 C45 1_555 1_555
C55 C45 1_555 1_555
H27 C46 1_555 1_555
C56 C46 1_555 1_555
H28 C47 1_555 1_555
C57 C47 1_555 1_555
H29 C48 1_555 1_555
H30 C49 1_555 1_555
H31 C50 1_555 1_555
H32 C50 1_555 1_555
C58 C50 1_555 1_555
C59 C51 1_555 1_555
H33 C51 1_555 1_555
C60 C52 1_555 1_555
H34 C52 1_555 1_555
H35 C53 1_555 1_555
H36 C54 1_555 1_555
C61 C55 1_555 1_555
C62 C55 1_555 1_555
H37 C56 1_555 1_555
H38 C57 1_555 1_555
C63 C58 1_555 1_555
C64 C58 1_555 1_555
H39 C59 1_555 1_555
H40 C60 1_555 1_555
H41 C61 1_555 1_555
C65 C61 1_555 1_555
C66 C62 1_555 1_555
H42 C62 1_555 1_555
H43 C63 1_555 1_555
C67 C63 1_555 1_555
C68 C64 1_555 1_555
H44 C64 1_555 1_555
H45 C65 1_555 1_555
C69 C65 1_555 1_555
H46 C66 1_555 1_555
H47 C67 1_555 1_555
C70 C67 1_555 1_555
H48 C68 1_555 1_555
C71 C69 1_555 1_555
C72 C70 1_555 1_555
O13 C72 1_555 1_555
O1A Zn3 1_555 1_555
O1B Zn3 1_555 1_555
O8B Zn3 1_555 1_555
O8A Zn3 1_555 1_555
Zn1A O1A 1_555 1_555
Zn2A O1A 1_555 1_555
Zn1B O1B 1_555 1_555
Zn2B O1B 1_555 1_555
O2A Zn1A 1_555 1_555
O3A Zn1A 1_555 1_555
O4A Zn1A 1_555 1_555
O5A Zn2A 1_555 1_555
O6A Zn2A 1_555 1_555
O7A Zn2A 1_555 1_555
O2B Zn1B 1_555 1_555
O3B Zn1B 1_555 1_555
O4B Zn1B 1_555 1_555
O5B Zn2B 1_555 1_555
O6B Zn2B 1_555 1_555
O7B Zn2B 1_555 1_555
C1A O2A 1_555 1_555
C2A O3A 1_555 1_555
C1B O2B 1_555 1_555
C2B O3B 1_555 1_555
C3A C1A 1_555 1_555
C4A C2A 1_555 1_555
C3B C1B 1_555 1_555
C4B C2B 1_555 1_555
C5A C3A 1_555 1_555
C6A C3A 1_555 1_555
C7A C4A 1_555 1_555
C8A C4A 1_555 1_555
C5B C3B 1_555 1_555
C6B C3B 1_555 1_555
C7B C4B 1_555 1_555
C8B C4B 1_555 1_555
C9A C5A 1_555 1_555
H1A C5A 1_555 1_555
H2A C6A 1_555 1_555
C10A C6A 1_555 1_555
C11A C7A 1_555 1_555
H3A C7A 1_555 1_555
H4A C8A 1_555 1_555
C12A C8A 1_555 1_555
C9B C5B 1_555 1_555
H1B C5B 1_555 1_555
H2B C6B 1_555 1_555
C10B C6B 1_555 1_555
C11B C7B 1_555 1_555
H3B C7B 1_555 1_555
H4B C8B 1_555 1_555
C12B C8B 1_555 1_555
C13A C9A 1_555 1_555
H5A C9A 1_555 1_555
H6A C10A 1_555 1_555
C14A C11A 1_555 1_555
H7A C11A 1_555 1_555
H8A C12A 1_555 1_555
C13B C9B 1_555 1_555
H5B C9B 1_555 1_555
H6B C10B 1_555 1_555
C14B C11B 1_555 1_555
H7B C11B 1_555 1_555
H8B C12B 1_555 1_555
C15A C13A 1_555 1_555
C16A C14A 1_555 1_555
C15B C13B 1_555 1_555
C16B C14B 1_555 1_555
H9A C15A 1_555 1_555
H10A C15A 1_555 1_555
O9A C15A 1_555 1_555
H11A C16A 1_555 1_555
H12A C16A 1_555 1_555
O10A C16A 1_555 1_555
H9B C15B 1_555 1_555
H10B C15B 1_555 1_555
O9B C15B 1_555 1_555
H11B C16B 1_555 1_555
H12B C16B 1_555 1_555
O10B C16B 1_555 1_555
C17A O9A 1_555 1_555
C18A O10A 1_555 1_555
C17B O9B 1_555 1_555
C18B O10B 1_555 1_555
C19A C17A 1_555 1_555
C20A C17A 1_555 1_555
C21A C18A 1_555 1_555
C22A C18A 1_555 1_555
C19B C17B 1_555 1_555
C20B C17B 1_555 1_555
C21B C18B 1_555 1_555
C22B C18B 1_555 1_555
H13A C19A 1_555 1_555
C23A C19A 1_555 1_555
C24A C20A 1_555 1_555
C25A C20A 1_555 1_555
C26A C21A 1_555 1_555
H14A C21A 1_555 1_555
C27A C22A 1_555 1_555
C28A C22A 1_555 1_555
H13B C19B 1_555 1_555
C23B C19B 1_555 1_555
C24B C20B 1_555 1_555
C25B C20B 1_555 1_555
C26B C21B 1_555 1_555
H14B C21B 1_555 1_555
C27B C22B 1_555 1_555
C28B C22B 1_555 1_555
H15A C23A 1_555 1_555
C29A C23A 1_555 1_555
C30A C24A 1_555 1_555
H16A C25A 1_555 1_555
C31A C25A 1_555 1_555
C32A C25A 1_555 1_555
C33A C26A 1_555 1_555
H17A C26A 1_555 1_555
C34A C27A 1_555 1_555
H18A C28A 1_555 1_555
C35A C28A 1_555 1_555
C36A C28A 1_555 1_555
H15B C23B 1_555 1_555
C29B C23B 1_555 1_555
C30B C24B 1_555 1_555
H16B C25B 1_555 1_555
C31B C25B 1_555 1_555
C32B C25B 1_555 1_555
C33B C26B 1_555 1_555
H17B C26B 1_555 1_555
C34B C27B 1_555 1_555
H18B C28B 1_555 1_555
C35B C28B 1_555 1_555
C36B C28B 1_555 1_555
O11A C29A 1_555 1_555
H19A C30A 1_555 1_555
C37A C30A 1_555 1_555
C38A C30A 1_555 1_555
C39A C31A 1_555 1_555
C40A C32A 1_555 1_555
O12A C33A 1_555 1_555
H20A C34A 1_555 1_555
C41A C34A 1_555 1_555
C42A C34A 1_555 1_555
C43A C35A 1_555 1_555
C44A C36A 1_555 1_555
O11B C29B 1_555 1_555
H19B C30B 1_555 1_555
C37B C30B 1_555 1_555
C38B C30B 1_555 1_555
C39B C31B 1_555 1_555
C40B C32B 1_555 1_555
O12B C33B 1_555 1_555
H20B C34B 1_555 1_555
C41B C34B 1_555 1_555
C42B C34B 1_555 1_555
C43B C35B 1_555 1_555
C44B C36B 1_555 1_555
C45A O11A 1_555 1_555
C46A C37A 1_555 1_555
C47A C38A 1_555 1_555
C48A C39A 1_555 1_555
H21A C39A 1_555 1_555
C49A C40A 1_555 1_555
H22A C40A 1_555 1_555
C50A O12A 1_555 1_555
C51A C41A 1_555 1_555
C52A C42A 1_555 1_555
H23A C43A 1_555 1_555
C53A C43A 1_555 1_555
H24A C44A 1_555 1_555
C54A C44A 1_555 1_555
C45B O11B 1_555 1_555
C46B C37B 1_555 1_555
C47B C38B 1_555 1_555
C48B C39B 1_555 1_555
H21B C39B 1_555 1_555
C49B C40B 1_555 1_555
H22B C40B 1_555 1_555
C50B O12B 1_555 1_555
C51B C41B 1_555 1_555
C52B C42B 1_555 1_555
H23B C43B 1_555 1_555
C53B C43B 1_555 1_555
H24B C44B 1_555 1_555
C54B C44B 1_555 1_555
H25A C45A 1_555 1_555
H26A C45A 1_555 1_555
C55A C45A 1_555 1_555
H27A C46A 1_555 1_555
C56A C46A 1_555 1_555
H28A C47A 1_555 1_555
C57A C47A 1_555 1_555
H29A C48A 1_555 1_555
H30A C49A 1_555 1_555
H31A C50A 1_555 1_555
H32A C50A 1_555 1_555
C58A C50A 1_555 1_555
C59A C51A 1_555 1_555
H33A C51A 1_555 1_555
C60A C52A 1_555 1_555
H34A C52A 1_555 1_555
H35A C53A 1_555 1_555
H36A C54A 1_555 1_555
H25B C45B 1_555 1_555
H26B C45B 1_555 1_555
C55B C45B 1_555 1_555
H27B C46B 1_555 1_555
C56B C46B 1_555 1_555
H28B C47B 1_555 1_555
C57B C47B 1_555 1_555
H29B C48B 1_555 1_555
H30B C49B 1_555 1_555
H31B C50B 1_555 1_555
H32B C50B 1_555 1_555
C58B C50B 1_555 1_555
C59B C51B 1_555 1_555
H33B C51B 1_555 1_555
C60B C52B 1_555 1_555
H34B C52B 1_555 1_555
H35B C53B 1_555 1_555
H36B C54B 1_555 1_555
C61A C55A 1_555 1_555
C62A C55A 1_555 1_555
H37A C56A 1_555 1_555
H38A C57A 1_555 1_555
C63A C58A 1_555 1_555
C64A C58A 1_555 1_555
H39A C59A 1_555 1_555
H40A C60A 1_555 1_555
C61B C55B 1_555 1_555
C62B C55B 1_555 1_555
H37B C56B 1_555 1_555
H38B C57B 1_555 1_555
C63B C58B 1_555 1_555
C64B C58B 1_555 1_555
H39B C59B 1_555 1_555
H40B C60B 1_555 1_555
O8GA C71 1_555 1_555
O4HA C71 1_555 1_555
O7CA C72 1_555 1_555
H41A C61A 1_555 1_555
C65A C61A 1_555 1_555
C66A C62A 1_555 1_555
H42A C62A 1_555 1_555
H43A C63A 1_555 1_555
C67A C63A 1_555 1_555
C68A C64A 1_555 1_555
H44A C64A 1_555 1_555
H41B C61B 1_555 1_555
C65B C61B 1_555 1_555
C66B C62B 1_555 1_555
H42B C62B 1_555 1_555
H43B C63B 1_555 1_555
C67B C63B 1_555 1_555
C68B C64B 1_555 1_555
H44B C64B 1_555 1_555
Zn3GA O8GA 1_555 1_555
Zn1HA O4HA 1_555 1_555
Zn2CA O7CA 1_555 1_555
H45A C65A 1_555 1_555
C69A C65A 1_555 1_555
H46A C66A 1_555 1_555
H47A C67A 1_555 1_555
C70A C67A 1_555 1_555
H48A C68A 1_555 1_555
H45B C65B 1_555 1_555
C69B C65B 1_555 1_555
H46B C66B 1_555 1_555
H47B C67B 1_555 1_555
C70B C67B 1_555 1_555
H48B C68B 1_555 1_555
C71A C69A 1_555 1_555
C72A C70A 1_555 1_555
C71B C69B 1_555 1_555
C72B C70B 1_555 1_555
O8IA C71A 1_555 1_555
O4GA C71A 1_555 1_555
O7BA C72A 1_555 1_555
O13A C72A 1_555 1_555
O8HA C71B 1_555 1_555
O4IA C71B 1_555 1_555
O7AA C72B 1_555 1_555
O13B C72B 1_555 1_555
Zn3GA_2 O8IA 1_555 1_555
Zn1GA O4GA 1_555 1_555
Zn2BA O7BA 1_555 1_555
Zn3GA_3 O8HA 1_555 1_555
Zn1IA O4IA 1_555 1_555
Zn2AA O7AA 1_555 1_555
C2 O6 1_555 1_555
C10 C13 1_555 1_555
C12 C14 1_555 1_555
C24 C29 1_555 1_555
C27 C33 1_555 1_555
C31 C37 1_555 1_555
C32 C38 1_555 1_555
C35 C41 1_555 1_555
C36 C42 1_555 1_555
C48 C56 1_555 1_555
C49 C57 1_555 1_555
C53 C59 1_555 1_555
C54 C60 1_555 1_555
C66 C69 1_555 1_555
C68 C70 1_555 1_555
O5A C1A 1_555 1_555
O6A C2A 1_555 1_555
O5B C1B 1_555 1_555
O6B C2B 1_555 1_555
C10A C13A 1_555 1_555
C12A C14A 1_555 1_555
C10B C13B 1_555 1_555
C12B C14B 1_555 1_555
C24A C29A 1_555 1_555
C27A C33A 1_555 1_555
C24B C29B 1_555 1_555
C27B C33B 1_555 1_555
C31A C37A 1_555 1_555
C32A C38A 1_555 1_555
C35A C41A 1_555 1_555
C36A C42A 1_555 1_555
C31B C37B 1_555 1_555
C32B C38B 1_555 1_555
C35B C41B 1_555 1_555
C36B C42B 1_555 1_555
C48A C56A 1_555 1_555
C49A C57A 1_555 1_555
C53A C59A 1_555 1_555
C54A C60A 1_555 1_555
C48B C56B 1_555 1_555
C49B C57B 1_555 1_555
C53B C59B 1_555 1_555
C54B C60B 1_555 1_555
C66A C69A 1_555 1_555
C68A C70A 1_555 1_555
C66B C69B 1_555 1_555
C68B C70B 1_555 1_555

#END
