
#######################################################################
#
#                 Cambridge Crystallographic Data Centre
#                                CCDC 
#
#######################################################################
#
# If this CIF has been generated from an entry in the Cambridge 
# Structural Database, then it will include bibliographic, chemical, 
# crystal, experimental, refinement or atomic coordinate data resulting 
# from the CCDC's data processing and validation procedures.
#
#######################################################################

data_WIRLUG
_symmetry_cell_setting           monoclinic
_symmetry_space_group_name_H-M   'P 21/c'
_symmetry_Int_Tables_number      14
_space_group_name_Hall           '-P 2ybc'
loop_
_symmetry_equiv_pos_site_id
_symmetry_equiv_pos_as_xyz
1 x,y,z
2 -x,1/2+y,1/2-z
3 -x,-y,-z
4 x,1/2-y,1/2+z
_cell_length_a                   8.817(3)
_cell_length_b                   35.043(11)
_cell_length_c                   14.690(4)
_cell_angle_alpha                90
_cell_angle_beta                 121.574(14)
_cell_angle_gamma                90
_cell_volume                     3866.92
loop_
_atom_site_label
_atom_site_type_symbol
_atom_site_fract_x
_atom_site_fract_y
_atom_site_fract_z
Cd1 Cd 1.14074(3) 0.651643(7) 0.45750(2)
Cd2 Cd 1.21297(3) 0.650815(7) 0.20342(2)
Cd3 Cd 1.45039(3) 0.501116(7) 1.121133(19)
O1 O 1.2708(4) 0.55002(8) 1.0217(2)
O2 O 1.3625(4) 0.53004(8) 0.9173(2)
O3 O 0.9823(4) 0.65664(9) 0.5484(2)
O4 O 1.2043(4) 0.61685(8) 0.6021(2)
O5 O 1.4252(3) 0.60646(7) 0.30540(19)
O6 O 1.2937(3) 0.62390(7) 0.3900(2)
O7 O 1.4428(4) 0.53520(8) 0.7167(2)
O8 O 1.6878(4) 0.50210(8) 0.7825(2)
O9 O 1.2868(3) 0.64144(8) 0.0753(2)
H1 H 1.2665 0.6176 0.0680
H2 H 1.3882 0.6498 0.0908
N1 N 0.7552(4) 0.54560(8) -0.0080(2)
N2 N 1.0068(4) 0.59950(8) 0.1205(2)
N3 N 0.9470(4) 0.67548(8) 0.0838(2)
N4 N 0.8854(4) 0.71103(8) 0.0460(2)
N5 N 0.6701(4) 0.66808(8) -0.0573(2)
N6 N 0.3827(4) 0.79840(8) -0.2104(2)
N7 N 0.6824(4) 0.54533(8) 0.2183(2)
N8 N 0.9431(4) 0.59682(8) 0.3511(2)
N9 N 0.9087(4) 0.67376(8) 0.3055(2)
N10 N 0.8508(4) 0.70989(8) 0.2706(2)
N11 N 0.6287(4) 0.66824(8) 0.1703(2)
N12 N 0.3353(4) 0.79919(9) 0.0313(2)
C1 C 0.9174(5) 0.53530(10) 0.0719(3)
H3 H 0.9467 0.5095 0.0840
C2 C 1.0416(4) 0.56214(10) 0.1364(3)
H4 H 1.1522 0.5541 0.1923
C3 C 0.7197(4) 0.58270(10) -0.0247(3)
H5 H 0.6084 0.5905 -0.0803
C4 C 0.8445(4) 0.60998(10) 0.0386(3)
C5 C 0.8172(4) 0.65124(9) 0.0205(3)
C6 C 0.7193(5) 0.70514(10) -0.0377(3)
C7 C 0.6038(5) 0.73694(10) -0.0986(3)
C8 C 0.6660(5) 0.77445(10) -0.0753(3)
H6 H 0.7831 0.7794 -0.0217
C9 C 0.5535(5) 0.80389(11) -0.1317(3)
H7 H 0.5967 0.8287 -0.1150
C10 C 0.3235(5) 0.76245(11) -0.2339(3)
H8 H 0.2066 0.7583 -0.2890
C11 C 0.4275(5) 0.73130(11) -0.1803(3)
H9 H 0.3807 0.7068 -0.1985
C12 C 0.8353(5) 0.53351(10) 0.3032(3)
H10 H 0.8554 0.5075 0.3176
C13 C 0.9640(5) 0.55946(10) 0.3697(3)
H11 H 1.0683 0.5506 0.4292
C14 C 0.6608(5) 0.58271(10) 0.1982(3)
H12 H 0.5561 0.5915 0.1387
C15 C 0.7914(4) 0.60884(10) 0.2641(3)
C16 C 0.7747(4) 0.65015(10) 0.2450(3)
C17 C 0.6829(5) 0.70515(10) 0.1891(3)
C18 C 0.5657(5) 0.73766(10) 0.1326(3)
C19 C 0.6186(5) 0.77471(11) 0.1662(3)
H13 H 0.7325 0.7797 0.2238
C20 C 0.5016(5) 0.80416(12) 0.1140(3)
H14 H 0.5401 0.8289 0.1374
C21 C 0.2859(5) 0.76334(12) -0.0018(3)
H15 H 0.1718 0.7591 -0.0600
C22 C 0.3948(6) 0.73230(12) 0.0456(3)
H16 H 0.3541 0.7079 0.0195
C23 C 1.4067(4) 0.60380(9) 0.3846(3)
C24 C 1.5209(4) 0.57584(10) 0.4703(3)
C25 C 1.6645(6) 0.56048(13) 0.4680(3)
H17 H 1.6855 0.5680 0.4148
C26 C 1.7747(6) 0.53455(15) 0.5430(4)
H18 H 1.8706 0.5245 0.5410
C27 C 1.7442(6) 0.52318(13) 0.6218(4)
H19 H 1.8193 0.5054 0.6724
C28 C 1.6035(5) 0.53793(10) 0.6266(3)
C29 C 1.4922(4) 0.56481(10) 0.5511(3)
H20 H 1.3987 0.5754 0.5546
C30 C 1.5740(5) 0.52439(10) 0.7132(3)
C31 C 1.2679(4) 0.55099(9) 0.9349(3)
C32 C 1.1417(5) 0.57829(10) 0.8510(3)
C33 C 0.9989(5) 0.59240(13) 0.8558(3)
H21 H 0.9820 0.5844 0.9103
C34 C 0.8826(6) 0.61793(16) 0.7812(4)
H22 H 0.7855 0.6267 0.7839
C35 C 0.9098(6) 0.63057(15) 0.7022(4)
H23 H 0.8318 0.6482 0.6523
C36 C 1.0523(5) 0.61723(12) 0.6964(3)
C37 C 1.1672(5) 0.59029(10) 0.7702(3)
H24 H 1.2605 0.5804 0.7652
C38 C 1.0813(5) 0.63110(11) 0.6104(3)
Cd1C Cd 0.14074(3) 0.848357(7) -0.04250(2)
Cd2C Cd 0.21297(3) 0.849185(7) -0.29658(2)
Cd3_2 Cd 0.45039(3) 0.501116(7) 0.121133(19)
Cd3B Cd 0.54961(3) 0.498884(7) -0.121133(19)
Cd3B_2 Cd 1.54961(3) 0.498884(7) 0.878867(19)
O2B O 1.6375(4) 0.46996(8) 1.0827(2)
O7B O 1.5572(4) 0.46480(8) 1.2833(2)
O8B O 1.3122(4) 0.49790(8) 1.2175(2)
N1B N 1.2448(4) 0.45440(8) 1.0080(2)
N6C N 1.3827(4) 0.70160(8) 0.2896(2)
N7_2 N 1.6824(4) 0.54533(8) 1.2183(2)
N12C N 1.3353(4) 0.70081(9) 0.5313(2)
O10 O 0.0006(19) 0.7844(4) 0.2041(12)
H25 H 0.0704 0.7959 0.1897
H26 H -0.0707 0.7675 0.1616
O11 O 0.042(2) 0.8092(5) 0.3962(12)
H27 H 0.0346 0.8330 0.3830
H28 H 0.0017 0.7967 0.3384
loop_
_geom_bond_atom_site_label_1
_geom_bond_atom_site_label_2
_geom_bond_site_symmetry_1
_geom_bond_site_symmetry_2
Cd1 O3 1_555 1_555
Cd2 O5 1_555 1_555
Cd3 O1 1_555 1_555
O1 C31 1_555 1_555
O2 C31 1_555 1_555
O3 C38 1_555 1_555
O4 Cd1 1_555 1_555
O5 C23 1_555 1_555
O6 Cd1 1_555 1_555
O7 C30 1_555 1_555
O8 C30 1_555 1_555
O9 Cd2 1_555 1_555
H1 O9 1_555 1_555
H2 O9 1_555 1_555
N1 C1 1_555 1_555
N2 Cd2 1_555 1_555
N3 Cd2 1_555 1_555
N4 N3 1_555 1_555
N5 C5 1_555 1_555
N6 C9 1_555 1_555
N7 C12 1_555 1_555
N8 Cd1 1_555 1_555
N9 Cd1 1_555 1_555
N10 N9 1_555 1_555
N11 C16 1_555 1_555
N12 C20 1_555 1_555
C1 H3 1_555 1_555
C2 N2 1_555 1_555
H4 C2 1_555 1_555
C3 N1 1_555 1_555
H5 C3 1_555 1_555
C4 N2 1_555 1_555
C5 N3 1_555 1_555
C6 N4 1_555 1_555
C7 C6 1_555 1_555
C8 C7 1_555 1_555
H6 C8 1_555 1_555
C9 C8 1_555 1_555
H7 C9 1_555 1_555
C10 N6 1_555 1_555
H8 C10 1_555 1_555
C11 C7 1_555 1_555
H9 C11 1_555 1_555
C12 H10 1_555 1_555
C13 N8 1_555 1_555
H11 C13 1_555 1_555
C14 N7 1_555 1_555
H12 C14 1_555 1_555
C15 N8 1_555 1_555
C16 N9 1_555 1_555
C17 N10 1_555 1_555
C18 C17 1_555 1_555
C19 C18 1_555 1_555
H13 C19 1_555 1_555
C20 C19 1_555 1_555
H14 C20 1_555 1_555
C21 N12 1_555 1_555
H15 C21 1_555 1_555
C22 C18 1_555 1_555
H16 C22 1_555 1_555
C23 O6 1_555 1_555
C24 C23 1_555 1_555
C25 C24 1_555 1_555
H17 C25 1_555 1_555
C26 C25 1_555 1_555
H18 C26 1_555 1_555
C27 C26 1_555 1_555
H19 C27 1_555 1_555
C28 C27 1_555 1_555
C29 C24 1_555 1_555
H20 C29 1_555 1_555
C30 C28 1_555 1_555
C31 C32 1_555 1_555
C32 C33 1_555 1_555
C33 H21 1_555 1_555
C34 C33 1_555 1_555
H22 C34 1_555 1_555
C35 C34 1_555 1_555
H23 C35 1_555 1_555
C36 C35 1_555 1_555
C37 C32 1_555 1_555
H24 C37 1_555 1_555
C38 O4 1_555 1_555
O10 H25 1_555 1_555
H26 O10 1_555 1_555
O11 H27 1_555 1_555
H28 O11 1_555 1_555
Cd1C N12 1_555 1_555
Cd2C N6 1_555 1_555
Cd3_2 N7 1_555 1_555
Cd3B N1 1_555 1_555
Cd3B_2 O2 1_555 1_555
O2B Cd3 1_555 1_555
O7B Cd3 1_555 1_555
O8B Cd3 1_555 1_555
N1B Cd3 1_555 1_555
N6C Cd2 1_555 1_555
N7_2 Cd3 1_555 1_555
N12C Cd1 1_555 1_555
Cd2 O6 1_555 1_555
O7 Cd3B_2 1_555 1_555
O8 Cd3B_2 1_555 1_555
N5 C6 1_555 1_555
N11 C17 1_555 1_555
C1 C2 1_555 1_555
C3 C4 1_555 1_555
C4 C5 1_555 1_555
C10 C11 1_555 1_555
C12 C13 1_555 1_555
C14 C15 1_555 1_555
C15 C16 1_555 1_555
C21 C22 1_555 1_555
C28 C29 1_555 1_555
C36 C37 1_555 1_555
C36 C38 1_555 1_555

#END
