
#######################################################################
#
#                 Cambridge Crystallographic Data Centre
#                                CCDC 
#
#######################################################################
#
# If this CIF has been generated from an entry in the Cambridge 
# Structural Database, then it will include bibliographic, chemical, 
# crystal, experimental, refinement or atomic coordinate data resulting 
# from the CCDC's data processing and validation procedures.
#
#######################################################################

data_WIRLEQ
_symmetry_cell_setting           monoclinic
_symmetry_space_group_name_H-M   'P 21/c'
_symmetry_Int_Tables_number      14
_space_group_name_Hall           '-P 2ybc'
loop_
_symmetry_equiv_pos_site_id
_symmetry_equiv_pos_as_xyz
1 x,y,z
2 -x,1/2+y,1/2-z
3 -x,-y,-z
4 x,1/2-y,1/2+z
_cell_length_a                   9.7676(4)
_cell_length_b                   8.5338(3)
_cell_length_c                   25.7855(7)
_cell_angle_alpha                90
_cell_angle_beta                 94.527(3)
_cell_angle_gamma                90
_cell_volume                     2142.64
loop_
_atom_site_label
_atom_site_type_symbol
_atom_site_fract_x
_atom_site_fract_y
_atom_site_fract_z
Rb1 Rb 0.65174(6) 0.20511(6) 0.60738(2)
Cu1 Cu 0.30182(7) 0.40056(8) 0.62592(3)
Cu2 Cu 0.12124(8) 0.73178(10) 0.60502(3)
Cu3 Cu -0.00463(7) 0.41887(8) 0.66984(3)
O1 O 0.4358(4) 0.4181(4) 0.57533(14)
O2 O 0.5909(4) 0.5889(5) 0.55181(15)
O3 O 0.5070(4) 0.3859(5) 0.69779(16)
H1 H 0.4659 0.3967 0.7213
H2 H 0.5493 0.4623 0.6942
O4 O 0.2939(3) 0.6286(4) 0.62214(12)
O5 O 0.2076(4) 0.8237(5) 0.54828(14)
O6 O 0.4071(4) 0.8444(5) 0.51346(16)
O7 O -0.0433(4) 0.8462(6) 0.58586(16)
O8 O -0.2492(4) 0.9004(4) 0.61079(15)
O9 O 0.0204(4) 0.6430(4) 0.65903(13)
O10 O -0.1980(4) 0.4623(4) 0.65764(14)
O11 O -0.3392(4) 0.6519(4) 0.67798(14)
O12 O -0.0461(4) 0.2046(4) 0.68640(16)
O13 O 0.0520(4) 0.0034(4) 0.73006(15)
O14 O 0.1851(3) 0.3611(4) 0.68170(12)
O15 O 0.3186(4) 0.1739(4) 0.62107(14)
O16 O 0.2975(5) -0.0375(5) 0.66947(16)
C1 C -0.2264(5) 0.6050(6) 0.66610(17)
C2 C -0.1068(5) 0.7215(5) 0.66297(18)
H3 H -0.0994 0.7853 0.6956
C3 C 0.0587(5) 0.1257(6) 0.70595(19)
C4 C -0.1406(5) 0.8325(6) 0.6169(2)
C5 C 0.1981(5) 0.2026(5) 0.69817(19)
H4 H 0.2535 0.2014 0.7325
C6 C 0.3963(5) 0.6883(5) 0.59167(19)
H5 H 0.4589 0.7556 0.6148
C7 C 0.4827(5) 0.5569(6) 0.57078(18)
C8 C 0.2751(5) 0.1025(6) 0.65990(19)
C9 C 0.3350(5) 0.7920(6) 0.5466(2)
O17 O 0.0835(5) 0.4086(6) 0.56797(19)
H6 H 0.1000 0.4475 0.5343
H7 H 0.0120 0.3543 0.5720
Cu3A Cu 0.00463(7) -0.08113(8) 0.83016(3)
O13A O -0.0520(4) 0.5034(4) 0.76994(15)
Rb2 Rb -0.25070(5) 0.20835(6) 0.762214(19)
Rb3 Rb -0.30257(5) 0.83769(6) 0.494845(18)
O18 O 0.4185(4) 0.4659(5) 0.79806(16)
H8 H 0.4919 0.4582 0.8070
H9 H 0.3693 0.3792 0.8088
O19 O 0.1770(6) 0.5074(9) 0.4800(2)
H10 H 0.1236 0.4790 0.4527
H11 H 0.2550 0.5183 0.4680
H12 H 0.8875 0.1605 0.5217
H13 H 0.9397 0.0632 0.5625
O20 O 0.9948(11) 0.1296(13) 0.5358(4)
H14? H 0.9766 0.0296 0.5539
H15? H 0.9262 0.1333 0.5053
O21? O 0.9341(10) 0.1585(12) 0.5501(4)
loop_
_geom_bond_atom_site_label_1
_geom_bond_atom_site_label_2
_geom_bond_site_symmetry_1
_geom_bond_site_symmetry_2
Cu1 O1 1_555 1_555
Cu2 O4 1_555 1_555
Cu3 O9 1_555 1_555
O1 C7 1_555 1_555
O2 C7 1_555 1_555
O3 Cu1 1_555 1_555
H1 O3 1_555 1_555
H2 O3 1_555 1_555
O4 Cu1 1_555 1_555
O5 Cu2 1_555 1_555
O6 C9 1_555 1_555
O7 Cu2 1_555 1_555
O8 C4 1_555 1_555
O9 Cu2 1_555 1_555
O10 Cu3 1_555 1_555
O11 C1 1_555 1_555
O12 Cu3 1_555 1_555
O13 C3 1_555 1_555
O14 Cu1 1_555 1_555
O15 Cu1 1_555 1_555
O16 C8 1_555 1_555
C1 O10 1_555 1_555
C2 O9 1_555 1_555
H3 C2 1_555 1_555
C3 O12 1_555 1_555
C4 O7 1_555 1_555
C5 O14 1_555 1_555
H4 C5 1_555 1_555
C6 O4 1_555 1_555
H5 C6 1_555 1_555
C7 C6 1_555 1_555
C8 O15 1_555 1_555
C9 O5 1_555 1_555
O17 Cu1 1_555 1_555
H6 O17 1_555 1_555
H7 O17 1_555 1_555
O18 H8 1_555 1_555
H9 O18 1_555 1_555
O19 H10 1_555 1_555
H11 O19 1_555 1_555
H12 O20 1_555 1_555
H13 O20 1_555 1_555
Cu3A O13 1_555 1_555
O13A Cu3 1_555 1_555
Cu3 O14 1_555 1_555
C1 C2 1_555 1_555
C2 C4 1_555 1_555
C3 C5 1_555 1_555
C5 C8 1_555 1_555
C6 C9 1_555 1_555

#END
