
#######################################################################
#
#                 Cambridge Crystallographic Data Centre
#                                CCDC 
#
#######################################################################
#
# If this CIF has been generated from an entry in the Cambridge 
# Structural Database, then it will include bibliographic, chemical, 
# crystal, experimental, refinement or atomic coordinate data resulting 
# from the CCDC's data processing and validation procedures.
#
#######################################################################

data_WIRLIU
_symmetry_cell_setting           triclinic
_symmetry_space_group_name_H-M   'P -1'
_symmetry_Int_Tables_number      2
_space_group_name_Hall           '-P 1'
loop_
_symmetry_equiv_pos_site_id
_symmetry_equiv_pos_as_xyz
1 x,y,z
2 -x,-y,-z
_cell_length_a                   8.5543(3)
_cell_length_b                   11.2377(4)
_cell_length_c                   12.8604(5)
_cell_angle_alpha                74.196(4)
_cell_angle_beta                 88.056(3)
_cell_angle_gamma                69.815(3)
_cell_volume                     1114.02
loop_
_atom_site_label
_atom_site_type_symbol
_atom_site_fract_x
_atom_site_fract_y
_atom_site_fract_z
Rb1 Rb -0.46385(8) 0.52083(6) 0.18055(5)
Rb2 Rb 0.36652(10) 0.20044(8) 0.39530(6)
Rb3 Rb 1.11571(9) 0.04240(8) 0.20746(9)
Cu1 Cu 0.33522(10) 0.28432(9) 0.08290(7)
Cu2 Cu 0.50005(11) 0.12596(8) -0.10524(7)
Cu3 Cu 0.09859(11) 0.30651(9) -0.14900(7)
O1 O 0.5108(5) 0.2522(4) 0.1866(4)
O2 O 0.7849(6) 0.1718(7) 0.2162(5)
O3 O 0.5125(5) 0.2257(4) -0.0083(3)
O4 O 0.8770(6) -0.0511(5) 0.1139(4)
O5 O 0.6824(5) -0.0154(4) -0.0123(4)
O6 O 0.1643(6) 0.3102(5) 0.1867(4)
O7 O -0.1017(6) 0.4278(5) 0.1964(4)
O8 O 0.1451(5) 0.3396(4) -0.0169(3)
O9 O -0.1267(6) 0.3600(5) -0.1065(4)
O10 O -0.2960(5) 0.4744(4) -0.0062(4)
O11 O 0.0259(6) 0.3136(5) -0.2920(4)
O12 O 0.1230(8) 0.2864(9) -0.4498(5)
O13 O 0.3193(5) 0.2636(4) -0.2003(3)
O14 O 0.5126(6) 0.0285(5) -0.2102(4)
O15 O 0.4335(9) 0.0590(6) -0.3800(5)
C1 C 0.6570(8) 0.1964(6) 0.1596(6)
C2 C 0.6713(7) 0.1685(6) 0.0497(5)
H1 H 0.7445 0.2147 0.0079
C3 C 0.7523(7) 0.0229(6) 0.0542(5)
C4 C 0.0177(7) 0.3839(6) 0.1450(5)
C5 C 0.0044(7) 0.4232(6) 0.0189(5)
C6 C -0.1539(7) 0.4190(6) -0.0318(5)
C7 C 0.1454(10) 0.2833(8) -0.3539(6)
C8 C 0.3225(8) 0.2424(7) -0.3035(5)
H2 H 0.3778 0.3005 -0.3511
C9 C 0.4281(9) 0.0982(7) -0.2995(6)
O16 O 0.7123(8) 0.2330(7) -0.2324(8)
O6A O -0.1643(6) 0.6898(5) -0.1867(4)
O7A O 0.1017(6) 0.5722(5) -0.1964(4)
O8A O -0.1451(5) 0.6604(4) 0.0169(3)
O9A O 0.1267(6) 0.6400(5) 0.1065(4)
O10A O 0.2960(5) 0.5256(4) 0.0062(4)
C4A C -0.0177(7) 0.6161(6) -0.1450(5)
C5A C -0.0044(7) 0.5768(6) -0.0189(5)
C6A C 0.1539(7) 0.5810(6) 0.0318(5)
Cu1A Cu -0.33522(10) 0.71568(9) -0.08290(7)
Cu2A Cu -0.50005(11) 0.87404(8) 0.10524(7)
Cu3A Cu -0.09859(11) 0.69349(9) 0.14900(7)
O1A O -0.5108(5) 0.7478(4) -0.1866(4)
O2A O -0.7849(6) 0.8282(7) -0.2162(5)
O3A O -0.5125(5) 0.7743(4) 0.0083(3)
O4A O -0.8770(6) 1.0511(5) -0.1139(4)
O5A O -0.6824(5) 1.0154(4) 0.0123(4)
O11A O -0.0259(6) 0.6864(5) 0.2920(4)
O12A O -0.1230(8) 0.7136(9) 0.4498(5)
O13A O -0.3193(5) 0.7364(4) 0.2003(3)
O14A O -0.5126(6) 0.9715(5) 0.2102(4)
O15A O -0.4335(9) 0.9410(6) 0.3800(5)
C1A C -0.6570(8) 0.8036(6) -0.1596(6)
C2A C -0.6713(7) 0.8315(6) -0.0497(5)
H1A H -0.7445 0.7853 -0.0079
C3A C -0.7523(7) 0.9771(6) -0.0542(5)
C7A C -0.1454(10) 0.7167(8) 0.3539(6)
C8A C -0.3225(8) 0.7576(7) 0.3035(5)
H2A H -0.3778 0.6995 0.3511
C9A C -0.4281(9) 0.9018(7) 0.2995(6)
O16A O -0.7123(8) 0.7670(7) 0.2324(8)
Cu2_2 Cu -0.49995(11) 1.12596(8) -0.10524(7)
Cu2A_2 Cu 0.49995(11) -0.12596(8) 0.10524(7)
Cu3_2 Cu -0.90141(11) 1.30651(9) -0.14900(7)
Cu3A_2 Cu 0.90141(11) -0.30651(9) 0.14900(7)
O4_2 O -0.1230(6) 0.9489(5) 0.1139(4)
O4A_2 O 0.1230(6) 0.0511(5) -0.1139(4)
O5_2 O -0.3176(5) 0.9846(4) -0.0123(4)
O5A_2 O 0.3176(5) 0.0154(4) 0.0123(4)
O17 O 0.1429(16) 0.0462(16) 0.4438(15)
O18 O 0.2874(13) 0.4815(10) 0.3749(8)
O19 O 0.7021(15) 0.2076(16) 0.4159(9)
H3 H 0.7136 0.2305 0.4747
H4 H 0.7768 0.1291 0.4205
O20 O -0.1553(9) 0.4065(9) 0.4115(5)
H5 H -0.1428 0.4479 0.3457
H6 H -0.0592 0.3706 0.4483
loop_
_geom_bond_atom_site_label_1
_geom_bond_atom_site_label_2
_geom_bond_site_symmetry_1
_geom_bond_site_symmetry_2
Cu1 O1 1_555 1_555
Cu2 O3 1_555 1_555
Cu3 O8 1_555 1_555
O1 C1 1_555 1_555
O2 C1 1_555 1_555
O3 Cu1 1_555 1_555
O4 C3 1_555 1_555
O5 Cu2 1_555 1_555
O6 Cu1 1_555 1_555
O7 C4 1_555 1_555
O8 Cu1 1_555 1_555
O9 Cu3 1_555 1_555
O10 C6 1_555 1_555
O11 Cu3 1_555 1_555
O12 C7 1_555 1_555
O13 Cu2 1_555 1_555
O14 Cu2 1_555 1_555
O15 C9 1_555 1_555
C1 C2 1_555 1_555
C2 O3 1_555 1_555
H1 C2 1_555 1_555
C3 O5 1_555 1_555
C4 O6 1_555 1_555
C5 O8 1_555 1_555
C6 O9 1_555 1_555
C7 O11 1_555 1_555
C8 O13 1_555 1_555
H2 C8 1_555 1_555
C9 O14 1_555 1_555
O16 Cu2 1_555 1_555
O19 H3 1_555 1_555
H4 O19 1_555 1_555
O20 H5 1_555 1_555
H6 O20 1_555 1_555
O6A C4A 1_555 1_555
O7A C4A 1_555 1_555
O8A C5A 1_555 1_555
O9A C6A 1_555 1_555
O10A Cu1 1_555 1_555
C4A C5A 1_555 1_555
C5A C5 1_555 1_555
C6A O10A 1_555 1_555
Cu1A O10 1_555 1_555
Cu2A O3A 1_555 1_555
Cu3A O8A 1_555 1_555
O1A Cu1A 1_555 1_555
O2A C1A 1_555 1_555
O3A Cu1A 1_555 1_555
O4A C3A 1_555 1_555
O5A Cu2A 1_555 1_555
O11A Cu3A 1_555 1_555
O12A C7A 1_555 1_555
O13A Cu2A 1_555 1_555
O14A Cu2A 1_555 1_555
O15A C9A 1_555 1_555
C1A O1A 1_555 1_555
C2A O3A 1_555 1_555
H1A C2A 1_555 1_555
C3A O5A 1_555 1_555
C7A O11A 1_555 1_555
C8A O13A 1_555 1_555
H2A C8A 1_555 1_555
C9A O14A 1_555 1_555
O16A Cu2A 1_555 1_555
Cu2_2 O5A 1_555 1_555
Cu2A_2 O5 1_555 1_555
Cu3_2 O4A 1_555 1_555
Cu3A_2 O4 1_555 1_555
O4_2 Cu3A 1_555 1_555
O4A_2 Cu3 1_555 1_555
O5_2 Cu2A 1_555 1_555
O5A_2 Cu2 1_555 1_555
Cu3 O13 1_555 1_555
C2 C3 1_555 1_555
C4 C5 1_555 1_555
C5 C6 1_555 1_555
C7 C8 1_555 1_555
C8 C9 1_555 1_555
O6A Cu1A 1_555 1_555
O8A Cu1A 1_555 1_555
O9A Cu3A 1_555 1_555
C5A C6A 1_555 1_555
Cu3A O13A 1_555 1_555
C1A C2A 1_555 1_555
C2A C3A 1_555 1_555
C7A C8A 1_555 1_555
C8A C9A 1_555 1_555
Cu2_2 O5_2 1_555 1_555
Cu2A_2 O5A_2 1_555 1_555

#END
