
#######################################################################
#
#                 Cambridge Crystallographic Data Centre
#                                CCDC 
#
#######################################################################
#
# If this CIF has been generated from an entry in the Cambridge 
# Structural Database, then it will include bibliographic, chemical, 
# crystal, experimental, refinement or atomic coordinate data resulting 
# from the CCDC's data processing and validation procedures.
#
#######################################################################

data_WIRTOI
_symmetry_cell_setting           monoclinic
_symmetry_space_group_name_H-M   'C 2/c'
_symmetry_Int_Tables_number      15
_space_group_name_Hall           '-C 2yn'
loop_
_symmetry_equiv_pos_site_id
_symmetry_equiv_pos_as_xyz
1 x,y,z
2 -x,y,1/2-z
3 1/2+x,1/2+y,z
4 1/2-x,1/2+y,1/2-z
5 -x,-y,-z
6 x,-y,1/2+z
7 1/2-x,1/2-y,-z
8 1/2+x,1/2-y,1/2+z
_cell_length_a                   24.891(3)
_cell_length_b                   9.1781(6)
_cell_length_c                   14.5217(15)
_cell_angle_alpha                90
_cell_angle_beta                 124.310(16)
_cell_angle_gamma                90
_cell_volume                     2740.27
loop_
_atom_site_label
_atom_site_type_symbol
_atom_site_fract_x
_atom_site_fract_y
_atom_site_fract_z
C1 C -0.08744(15) 0.5195(3) -0.1524(2)
C2 C -0.16046(15) 0.5288(3) -0.2280(2)
C3 C -0.19546(15) 0.4330(3) -0.3177(2)
H1 H -0.1734 0.3688 -0.3349
C4 C -0.26290(15) 0.4333(3) -0.3814(3)
H2 H -0.2860 0.3692 -0.4410
C5 C -0.29616(15) 0.5301(3) -0.3558(2)
C6 C -0.26112(16) 0.6284(4) -0.2689(3)
H3 H -0.2831 0.6945 -0.2529
C7 C -0.19370(16) 0.6291(4) -0.2055(3)
H4 H -0.1707 0.6963 -0.1481
C8 C -0.36909(15) 0.5264(3) -0.4176(2)
C9 C 0.04910(14) 1.0331(3) 0.2122(2)
C10 C 0.07459(15) 1.1528(3) 0.2970(3)
C11 C 0.03591(15) 1.2699(3) 0.2902(3)
C12 C 0.12559(15) 1.3834(3) 0.4386(3)
H5 H 0.1436 1.4632 0.4861
C13 C 0.16625(16) 1.2693(4) 0.4551(3)
H6 H 0.2100 1.2708 0.5137
C14 C 0.14031(16) 1.1527(3) 0.3821(3)
H7 H 0.1667 1.0752 0.3900
N1 N 0.06173(13) 1.3860(3) 0.3583(2)
O1 O -0.06119(10) 0.4024(2) -0.15316(17)
O2 O -0.05672(10) 0.6276(2) -0.09144(17)
O3 O -0.39673(10) 0.6369(2) -0.41081(17)
O4 O -0.39741(10) 0.4109(2) -0.47037(18)
O5 O 0.06039(10) 0.9023(2) 0.24222(17)
O6 O 0.01687(10) 1.0669(2) 0.10902(17)
O7 O -0.05632(11) 0.6881(2) 0.12161(19)
H8 H -0.0533 0.7437 0.1723
H9 H -0.0392 0.6045 0.1510
Eu1 Eu -0.000287(7) 0.797103(15) 0.046366(12)
C9A C -0.04910(14) 1.0331(3) 0.2878(2)
C10A C -0.07459(15) 1.1528(3) 0.2030(3)
C11A C -0.03591(15) 1.2699(3) 0.2098(3)
C12A C -0.12559(15) 1.3834(3) 0.0614(3)
H5A H -0.1436 1.4632 0.0139
C13A C -0.16625(16) 1.2693(4) 0.0449(3)
H6A H -0.2100 1.2708 -0.0137
C14A C -0.14031(16) 1.1527(3) 0.1179(3)
H7A H -0.1667 1.0752 0.1100
N1A N -0.06173(13) 1.3860(3) 0.1417(2)
O5A O -0.06039(10) 0.9023(2) 0.25778(17)
O6A O -0.01687(10) 1.0669(2) 0.39098(17)
C1A C 0.08744(15) 0.5195(3) 0.6524(2)
C2A C 0.16046(15) 0.5288(3) 0.7280(2)
C3A C 0.19546(15) 0.4330(3) 0.8177(2)
H1A H 0.1734 0.3688 0.8349
C4A C 0.26290(15) 0.4333(3) 0.8814(3)
H2A H 0.2860 0.3692 0.9410
C5A C 0.29616(15) 0.5301(3) 0.8558(2)
C6A C 0.26112(16) 0.6284(4) 0.7689(3)
H3A H 0.2831 0.6945 0.7529
C7A C 0.19370(16) 0.6291(4) 0.7055(3)
H4A H 0.1707 0.6963 0.6481
C8A C 0.36909(15) 0.5264(3) 0.9176(2)
O1A O 0.06119(10) 0.4024(2) 0.65316(17)
O2A O 0.05672(10) 0.6276(2) 0.59144(17)
O3A O 0.39673(10) 0.6369(2) 0.91081(17)
O4A O 0.39741(10) 0.4109(2) 0.97037(18)
O7A O 0.05632(11) 0.6881(2) 0.37839(19)
H8A H 0.0533 0.7437 0.3277
H9A H 0.0392 0.6045 0.3490
Eu1A Eu 0.000287(7) 0.797103(15) 0.453634(12)
O1D O 0.06119(10) 0.5976(2) 0.15316(17)
O1E O -0.06119(10) 0.5976(2) 0.34684(17)
O3F O -0.10327(10) 0.8631(2) 0.41081(17)
O3G O 0.10327(10) 0.8631(2) 0.08919(17)
O4B O 0.10259(10) 0.9109(2) 0.52963(18)
O4C O -0.10259(10) 0.9109(2) -0.02963(18)
O6D O -0.01687(10) 0.9331(2) -0.10902(17)
O6E O 0.01687(10) 0.9331(2) 0.60902(17)
Eu1B Eu 0.499713(7) 0.297103(15) 1.046366(12)
Eu1C Eu -0.499713(7) 0.297103(15) -0.546366(12)
Eu1D Eu 0.000287(7) 0.202897(15) -0.046366(12)
Eu1D_2 Eu 0.000287(7) 1.202897(15) -0.046366(12)
Eu1E Eu -0.000287(7) 0.202897(15) 0.546366(12)
Eu1E_2 Eu -0.000287(7) 1.202897(15) 0.546366(12)
Eu1F Eu 0.500287(7) 0.702897(15) 0.953634(12)
Eu1G Eu -0.500287(7) 0.702897(15) -0.453634(12)
loop_
_geom_bond_atom_site_label_1
_geom_bond_atom_site_label_2
_geom_bond_site_symmetry_1
_geom_bond_site_symmetry_2
C1 C2 1_555 1_555
C2 C3 1_555 1_555
C3 H1 1_555 1_555
C4 C3 1_555 1_555
H2 C4 1_555 1_555
C5 C4 1_555 1_555
C6 C5 1_555 1_555
H3 C6 1_555 1_555
C7 C2 1_555 1_555
H4 C7 1_555 1_555
C8 C5 1_555 1_555
C9 C10 1_555 1_555
C10 C11 1_555 1_555
C11 N1 1_555 1_555
C12 H5 1_555 1_555
C13 C12 1_555 1_555
H6 C13 1_555 1_555
C14 C10 1_555 1_555
H7 C14 1_555 1_555
N1 C12 1_555 1_555
O1 C1 1_555 1_555
O2 C1 1_555 1_555
O3 C8 1_555 1_555
O4 C8 1_555 1_555
O5 C9 1_555 1_555
O6 C9 1_555 1_555
O7 H8 1_555 1_555
H9 O7 1_555 1_555
Eu1 O2 1_555 1_555
C9A C10A 1_555 1_555
C10A C11A 1_555 1_555
C11A C11 1_555 1_555
C12A H5A 1_555 1_555
C13A C12A 1_555 1_555
H6A C13A 1_555 1_555
C14A C10A 1_555 1_555
H7A C14A 1_555 1_555
N1A C11A 1_555 1_555
O5A C9A 1_555 1_555
O6A C9A 1_555 1_555
C1A C2A 1_555 1_555
C2A C3A 1_555 1_555
C3A H1A 1_555 1_555
C4A C3A 1_555 1_555
H2A C4A 1_555 1_555
C5A C4A 1_555 1_555
C6A C5A 1_555 1_555
H3A C6A 1_555 1_555
C7A C2A 1_555 1_555
H4A C7A 1_555 1_555
C8A C5A 1_555 1_555
O1A C1A 1_555 1_555
O2A C1A 1_555 1_555
O3A C8A 1_555 1_555
O4A C8A 1_555 1_555
O7A H8A 1_555 1_555
H9A O7A 1_555 1_555
Eu1A O5A 1_555 1_555
O1D Eu1 1_555 1_555
O1E Eu1A 1_555 1_555
O3F Eu1A 1_555 1_555
O3G Eu1 1_555 1_555
O4B Eu1A 1_555 1_555
O4C Eu1 1_555 1_555
O6D Eu1 1_555 1_555
O6E Eu1A 1_555 1_555
Eu1B O4A 1_555 1_555
Eu1C O4 1_555 1_555
Eu1D O1 1_555 1_555
Eu1D_2 O6 1_555 1_555
Eu1E O1A 1_555 1_555
Eu1E_2 O6A 1_555 1_555
Eu1F O3A 1_555 1_555
Eu1G O3 1_555 1_555
C6 C7 1_555 1_555
C13 C14 1_555 1_555
O5 Eu1 1_555 1_555
O6 Eu1 1_555 1_555
O7 Eu1 1_555 1_555
C12A N1A 1_555 1_555
C13A C14A 1_555 1_555
O6A Eu1A 1_555 1_555
C6A C7A 1_555 1_555
O2A Eu1A 1_555 1_555
O7A Eu1A 1_555 1_555
O6D Eu1D_2 1_555 1_555
O6E Eu1E_2 1_555 1_555

#END
