
#######################################################################
#
#                 Cambridge Crystallographic Data Centre
#                                CCDC 
#
#######################################################################
#
# If this CIF has been generated from an entry in the Cambridge 
# Structural Database, then it will include bibliographic, chemical, 
# crystal, experimental, refinement or atomic coordinate data resulting 
# from the CCDC's data processing and validation procedures.
#
#######################################################################

data_WIRTUO
_symmetry_cell_setting           monoclinic
_symmetry_space_group_name_H-M   'C 2/c'
_symmetry_Int_Tables_number      15
_space_group_name_Hall           '-C 2yn'
loop_
_symmetry_equiv_pos_site_id
_symmetry_equiv_pos_as_xyz
1 x,y,z
2 -x,y,1/2-z
3 1/2+x,1/2+y,z
4 1/2-x,1/2+y,1/2-z
5 -x,-y,-z
6 x,-y,1/2+z
7 1/2-x,1/2-y,-z
8 1/2+x,1/2-y,1/2+z
_cell_length_a                   24.796(3)
_cell_length_b                   9.1235(5)
_cell_length_c                   14.5153(15)
_cell_angle_alpha                90
_cell_angle_beta                 124.310(15)
_cell_angle_gamma                90
_cell_volume                     2712.37
loop_
_atom_site_label
_atom_site_type_symbol
_atom_site_fract_x
_atom_site_fract_y
_atom_site_fract_z
C1 C 0.08717(18) -0.0205(4) 0.1509(3)
C2 C 0.16002(18) -0.0292(4) 0.2271(3)
C3 C 0.19374(18) -0.1294(4) 0.2036(3)
H1 H 0.1709 -0.1960 0.1453
C4 C 0.26124(19) -0.1283(4) 0.2677(3)
H2 H 0.2835 -0.1942 0.2517
C5 C 0.29655(18) -0.0304(4) 0.3558(3)
C6 C 0.26310(18) 0.0659(4) 0.3820(3)
H3 H 0.2861 0.1297 0.4422
C7 C 0.19553(18) 0.0652(4) 0.3177(3)
H4 H 0.1734 0.1291 0.3353
C8 C 0.36997(18) -0.0269(4) 0.4183(3)
C9 C 0.04889(18) 0.5324(4) 0.2106(3)
C10 C 0.07491(18) 0.6528(4) 0.2969(3)
C11 C 0.14097(18) 0.6519(4) 0.3821(3)
H5 H 0.1675 0.5743 0.3896
C12 C 0.16655(19) 0.7696(4) 0.4559(3)
H6 H 0.2102 0.7706 0.5153
C13 C 0.12621(18) 0.8839(4) 0.4393(3)
H7 H 0.1443 0.9645 0.4864
C14 C 0.03617(18) 0.7701(4) 0.2909(3)
N1 N 0.06171(15) 0.8863(3) 0.3585(3)
O1 O 0.05646(12) -0.1285(3) 0.0900(2)
O2 O 0.06088(12) 0.0980(3) 0.1513(2)
O3 O 0.39747(12) -0.1383(3) 0.4107(2)
O4 O 0.39807(12) 0.0886(3) 0.4707(2)
O5 O 0.05998(12) 0.4007(3) 0.2408(2)
O6 O 0.01717(12) 0.5675(3) 0.1084(2)
O7 O -0.05583(14) 0.1893(3) 0.1210(2)
H8 H -0.0522 0.2446 0.1733
H9 H -0.0393 0.1035 0.1496
Tb1 Tb -0.000179(8) 0.297406(17) 0.046407(14)
C9A C -0.04889(18) 0.5324(4) 0.2894(3)
C10A C -0.07491(18) 0.6528(4) 0.2031(3)
C11A C -0.14097(18) 0.6519(4) 0.1179(3)
H5A H -0.1675 0.5743 0.1104
C12A C -0.16655(19) 0.7696(4) 0.0441(3)
H6A H -0.2102 0.7706 -0.0153
C13A C -0.12621(18) 0.8839(4) 0.0607(3)
H7A H -0.1443 0.9645 0.0136
C14A C -0.03617(18) 0.7701(4) 0.2091(3)
N1A N -0.06171(15) 0.8863(3) 0.1415(3)
O5A O -0.05998(12) 0.4007(3) 0.2592(2)
O6A O -0.01717(12) 0.5675(3) 0.3916(2)
C1A C -0.08717(18) -0.0205(4) 0.3491(3)
C2A C -0.16002(18) -0.0292(4) 0.2729(3)
C3A C -0.19374(18) -0.1294(4) 0.2964(3)
H1A H -0.1709 -0.1960 0.3547
C4A C -0.26124(19) -0.1283(4) 0.2323(3)
H2A H -0.2835 -0.1942 0.2483
C5A C -0.29655(18) -0.0304(4) 0.1442(3)
C6A C -0.26310(18) 0.0659(4) 0.1180(3)
H3A H -0.2861 0.1297 0.0578
C7A C -0.19553(18) 0.0652(4) 0.1823(3)
H4A H -0.1734 0.1291 0.1647
C8A C -0.36997(18) -0.0269(4) 0.0817(3)
O1A O -0.05646(12) -0.1285(3) 0.4100(2)
O2A O -0.06088(12) 0.0980(3) 0.3487(2)
O3A O -0.39747(12) -0.1383(3) 0.0893(2)
O4A O -0.39807(12) 0.0886(3) 0.0293(2)
O7A O 0.05583(14) 0.1893(3) 0.3790(2)
H8A H 0.0522 0.2446 0.3267
H9A H 0.0393 0.1035 0.3504
Tb1A Tb 0.000179(8) 0.297406(17) 0.453593(14)
O1D O -0.05646(12) 0.1285(3) -0.0900(2)
O1E O 0.05646(12) 0.1285(3) 0.5900(2)
O3B O -0.10253(12) 0.3617(3) 0.4107(2)
O3C O 0.10253(12) 0.3617(3) 0.0893(2)
O4F O 0.10193(12) 0.4114(3) 0.5293(2)
O4G O -0.10193(12) 0.4114(3) -0.0293(2)
O6D O -0.01717(12) 0.4325(3) -0.1084(2)
O6E O 0.01717(12) 0.4325(3) 0.6084(2)
Tb1B Tb -0.500179(8) -0.202594(17) 0.046407(14)
Tb1C Tb 0.500179(8) -0.202594(17) 0.453593(14)
Tb1D Tb 0.000179(8) -0.297406(17) -0.046407(14)
Tb1D_2 Tb 0.000179(8) 0.702594(17) -0.046407(14)
Tb1E Tb -0.000179(8) -0.297406(17) 0.546407(14)
Tb1E_2 Tb -0.000179(8) 0.702594(17) 0.546407(14)
Tb1F Tb -0.499821(8) 0.202594(17) -0.046407(14)
Tb1G Tb 0.499821(8) 0.202594(17) 0.546407(14)
loop_
_geom_bond_atom_site_label_1
_geom_bond_atom_site_label_2
_geom_bond_site_symmetry_1
_geom_bond_site_symmetry_2
C1 C2 1_555 1_555
C2 C3 1_555 1_555
C3 H1 1_555 1_555
C4 C3 1_555 1_555
H2 C4 1_555 1_555
C5 C4 1_555 1_555
C6 C5 1_555 1_555
H3 C6 1_555 1_555
C7 C2 1_555 1_555
H4 C7 1_555 1_555
C8 C5 1_555 1_555
C9 C10 1_555 1_555
C10 C11 1_555 1_555
C11 H5 1_555 1_555
C12 C11 1_555 1_555
H6 C12 1_555 1_555
C13 C12 1_555 1_555
H7 C13 1_555 1_555
C14 C10 1_555 1_555
N1 C13 1_555 1_555
O1 C1 1_555 1_555
O2 C1 1_555 1_555
O3 C8 1_555 1_555
O4 C8 1_555 1_555
O5 C9 1_555 1_555
O6 C9 1_555 1_555
O7 H8 1_555 1_555
H9 O7 1_555 1_555
Tb1 O2 1_555 1_555
C9A C10A 1_555 1_555
C10A C11A 1_555 1_555
C11A H5A 1_555 1_555
C12A C11A 1_555 1_555
H6A C12A 1_555 1_555
C13A C12A 1_555 1_555
H7A C13A 1_555 1_555
C14A C14 1_555 1_555
N1A C13A 1_555 1_555
O5A C9A 1_555 1_555
O6A C9A 1_555 1_555
C1A C2A 1_555 1_555
C2A C3A 1_555 1_555
C3A H1A 1_555 1_555
C4A C3A 1_555 1_555
H2A C4A 1_555 1_555
C5A C4A 1_555 1_555
C6A C5A 1_555 1_555
H3A C6A 1_555 1_555
C7A C2A 1_555 1_555
H4A C7A 1_555 1_555
C8A C5A 1_555 1_555
O1A C1A 1_555 1_555
O2A C1A 1_555 1_555
O3A C8A 1_555 1_555
O4A C8A 1_555 1_555
O7A H8A 1_555 1_555
H9A O7A 1_555 1_555
Tb1A O5A 1_555 1_555
O1D Tb1 1_555 1_555
O1E Tb1A 1_555 1_555
O3B Tb1A 1_555 1_555
O3C Tb1 1_555 1_555
O4F Tb1A 1_555 1_555
O4G Tb1 1_555 1_555
O6D Tb1 1_555 1_555
O6E Tb1A 1_555 1_555
Tb1B O3A 1_555 1_555
Tb1C O3 1_555 1_555
Tb1D O1 1_555 1_555
Tb1D_2 O6 1_555 1_555
Tb1E O1A 1_555 1_555
Tb1E_2 O6A 1_555 1_555
Tb1F O4A 1_555 1_555
Tb1G O4 1_555 1_555
C6 C7 1_555 1_555
C14 N1 1_555 1_555
O5 Tb1 1_555 1_555
O6 Tb1 1_555 1_555
O7 Tb1 1_555 1_555
C10A C14A 1_555 1_555
C14A N1A 1_555 1_555
O6A Tb1A 1_555 1_555
C6A C7A 1_555 1_555
O2A Tb1A 1_555 1_555
O7A Tb1A 1_555 1_555
O6D Tb1D_2 1_555 1_555
O6E Tb1E_2 1_555 1_555

#END
