
#######################################################################
#
#                 Cambridge Crystallographic Data Centre
#                                CCDC 
#
#######################################################################
#
# If this CIF has been generated from an entry in the Cambridge 
# Structural Database, then it will include bibliographic, chemical, 
# crystal, experimental, refinement or atomic coordinate data resulting 
# from the CCDC's data processing and validation procedures.
#
#######################################################################

data_WISJUF
_symmetry_cell_setting           triclinic
_symmetry_space_group_name_H-M   'P -1'
_symmetry_Int_Tables_number      2
_space_group_name_Hall           '-P 1'
loop_
_symmetry_equiv_pos_site_id
_symmetry_equiv_pos_as_xyz
1 x,y,z
2 -x,-y,-z
_cell_length_a                   14.7362(6)
_cell_length_b                   15.6481(6)
_cell_length_c                   17.4414(9)
_cell_angle_alpha                98.090(4)
_cell_angle_beta                 104.804(4)
_cell_angle_gamma                98.347(3)
_cell_volume                     3780.12
loop_
_atom_site_label
_atom_site_type_symbol
_atom_site_fract_x
_atom_site_fract_y
_atom_site_fract_z
Eu1 Eu 0.106353(12) 0.921012(12) 0.506404(13)
Eu2 Eu 0.386392(12) 0.941033(12) 0.538146(13)
O1 O 0.08932(18) 0.82561(19) 0.37715(19)
O2 O 0.24078(18) 0.87362(18) 0.44167(19)
O3 O 0.03232(17) 1.03070(18) 0.58029(17)
O4 O 0.0878(2) 0.93122(19) 0.64581(19)
O5 O 0.16995(17) 1.03277(18) 0.44521(18)
O6 O 0.32731(17) 1.04922(18) 0.4571(2)
O7 O 0.16512(19) 0.80346(18) 0.5582(2)
O8 O 0.32460(19) 0.82476(18) 0.59492(19)
O9 O 0.25699(18) 1.00031(17) 0.59514(18)
O10 O 0.40059(18) 1.0135(2) 0.67551(19)
O11 O 0.48305(17) 0.93157(16) 0.43538(17)
O12 O 0.4149(2) 0.80797(18) 0.4589(2)
O13 O -0.03304(19) 0.8138(2) 0.4915(2)
O14 O 0.53181(18) 0.90495(19) 0.6168(2)
H1 H 0.5214 0.8509 0.6235
H2 H 0.5757 0.9112 0.5920
N1 N -0.1783(2) 0.7284(3) 0.4554(3)
C1 C 0.1976(6) 0.5305(5) -0.0334(4)
H3 H 0.2647 0.5365 -0.0288
H4 H 0.1663 0.5514 -0.0806
H5 H 0.1707 0.4697 -0.0379
C2 C 0.2458(4) 0.6653(4) 0.1766(4)
H6 H 0.2979 0.6866 0.2218
C3 C 0.2585(4) 0.6153(5) 0.1097(5)
H7 H 0.3186 0.6026 0.1112
C4 C 0.1838(5) 0.5839(4) 0.0408(4)
C5 C 0.0963(4) 0.6028(4) 0.0415(4)
H8 H 0.0445 0.5824 -0.0041
C6 C 0.0839(4) 0.6518(3) 0.1090(3)
H9 H 0.0234 0.6633 0.1078
C7 C 0.1579(3) 0.6843(3) 0.1777(3)
C8 C 0.1412(3) 0.7358(3) 0.2473(3)
H10 H 0.0777 0.7393 0.2433
C9 C 0.2039(3) 0.7783(3) 0.3154(3)
H11 H 0.2682 0.7765 0.3220
C10 C 0.1765(3) 0.8284(3) 0.3814(3)
C11 C -0.0239(7) 1.1826(5) 1.0767(5)
H12 H -0.0282 1.2426 1.0733
H13 H 0.0276 1.1807 1.1226
H14 H -0.0829 1.1525 1.0822
C12 C -0.0494(5) 1.0948(4) 0.8560(4)
H15 H -0.0910 1.0956 0.8061
C13 C -0.0668(6) 1.1333(4) 0.9256(5)
H16 H -0.1217 1.1570 0.9219
C14 C -0.0053(7) 1.1374(4) 0.9996(5)
C15 C 0.0722(6) 1.0973(5) 1.0040(4)
H17 H 0.1139 1.0971 1.0540
C16 C 0.0883(5) 1.0572(4) 0.9345(4)
H18 H 0.1415 1.0306 0.9386
C17 C 0.0290(4) 1.0551(3) 0.8596(3)
C18 C 0.0500(3) 1.0162(3) 0.7855(3)
H19 H 0.0872 0.9730 0.7900
C19 C 0.0218(3) 1.0364(3) 0.7145(3)
H20 H -0.0167 1.0785 0.7083
C20 C 0.0474(3) 0.9963(3) 0.6437(3)
C21 C 0.0755(5) 1.4559(4) 0.1963(4)
H21 H 0.0078 1.4496 0.1735
H22 H 0.1067 1.4582 0.1543
H23 H 0.0989 1.5091 0.2358
C22 C 0.2065(3) 1.2850(3) 0.2860(3)
H24 H 0.2673 1.2715 0.2942
C23 C 0.1852(4) 1.3559(3) 0.2489(3)
H25 H 0.2321 1.3889 0.2325
C24 C 0.0964(4) 1.3777(3) 0.2363(3)
C25 C 0.0283(4) 1.3267(3) 0.2598(3)
H26 H -0.0325 1.3403 0.2510
C26 C 0.0470(3) 1.2563(3) 0.2958(3)
H27 H -0.0010 1.2227 0.3106
C27 C 0.1379(3) 1.2348(3) 0.3104(3)
C28 C 0.1565(3) 1.1637(3) 0.3543(3)
H28 H 0.1034 1.1320 0.3640
C29 C 0.2377(3) 1.1380(3) 0.3824(3)
H29 H 0.2922 1.1647 0.3711
C30 C 0.2451(3) 1.0677(3) 0.4315(3)
C31 C 0.1178(4) 0.3204(4) 0.7360(4)
H30 H 0.1765 0.2988 0.7426
H31 H 0.0667 0.2777 0.6984
H32 H 0.1042 0.3307 0.7872
C32 C 0.2263(3) 0.5371(3) 0.6940(4)
H33 H 0.2868 0.5721 0.7072
C33 C 0.2148(4) 0.4600(3) 0.7223(4)
H34 H 0.2681 0.4441 0.7547
C34 C 0.1271(4) 0.4051(3) 0.7045(4)
C35 C 0.0505(4) 0.4307(3) 0.6566(4)
H35 H -0.0098 0.3953 0.6433
C36 C 0.0612(3) 0.5084(3) 0.6278(3)
H36 H 0.0080 0.5240 0.5952
C37 C 0.1495(3) 0.5635(3) 0.6463(3)
C38 C 0.1592(3) 0.6457(3) 0.6152(3)
H37 H 0.1029 0.6614 0.5879
C39 C 0.2399(3) 0.6998(3) 0.6220(3)
H38 H 0.2973 0.6856 0.6488
C40 C 0.2427(3) 0.7821(3) 0.5888(3)
C41 C 0.2921(6) 1.3099(5) 1.0835(4)
H39 H 0.3119 1.3717 1.0861
H40 H 0.3285 1.2930 1.1311
H41 H 0.2254 1.2974 1.0803
C42 C 0.4029(4) 1.1774(4) 0.9459(4)
H42 H 0.4592 1.1558 0.9504
C43 C 0.3890(5) 1.2252(4) 1.0130(4)
H43 H 0.4359 1.2346 1.0621
C44 C 0.3090(5) 1.2589(4) 1.0094(4)
C45 C 0.2420(4) 1.2444(4) 0.9364(4)
H44 H 0.1871 1.2683 0.9324
C46 C 0.2529(4) 1.1951(3) 0.8680(3)
H45 H 0.2051 1.1851 0.8193
C47 C 0.3349(3) 1.1610(3) 0.8721(3)
C48 C 0.3506(3) 1.1088(3) 0.8019(3)
H46 H 0.4102 1.0927 0.8100
C49 C 0.2917(3) 1.0814(3) 0.7288(3)
H47 H 0.2316 1.0966 0.7177
C50 C 0.3172(3) 1.0278(3) 0.6639(3)
C51 C 0.5524(5) 0.4595(4) 0.1014(4)
H48 H 0.4950 0.4375 0.0580
H49 H 0.5735 0.4116 0.1253
H50 H 0.6012 0.4874 0.0809
C52 C 0.5236(3) 0.6732(3) 0.2168(3)
H51 H 0.5296 0.7319 0.2115
C53 C 0.5410(3) 0.6133(3) 0.1587(3)
H52 H 0.5583 0.6322 0.1153
C54 C 0.5328(3) 0.5254(3) 0.1644(4)
C55 C 0.5080(4) 0.5012(3) 0.2301(4)
H53 H 0.5028 0.4426 0.2357
C56 C 0.4905(3) 0.5605(3) 0.2878(3)
H54 H 0.4736 0.5415 0.3313
C57 C 0.4979(3) 0.6492(3) 0.2820(3)
C58 C 0.4783(3) 0.7102(3) 0.3437(3)
H55 H 0.4529 0.6844 0.3804
C59 C 0.4911(3) 0.7971(3) 0.3555(3)
H56 H 0.5186 0.8270 0.3221
C60 C 0.4626(3) 0.8473(3) 0.4205(3)
C61 C -0.1184(3) 0.7999(3) 0.4580(3)
H57 H -0.1428 0.8433 0.4323
C62 C -0.2802(3) 0.7195(4) 0.4179(5)
H58 H -0.3135 0.7193 0.4586
H59 H -0.3030 0.6654 0.3795
H60 H -0.2915 0.7679 0.3908
C63 C -0.1462(4) 0.6579(3) 0.4935(4)
H61 H -0.0776 0.6673 0.5081
H62 H -0.1722 0.6030 0.4567
H63 H -0.1673 0.6566 0.5411
Eu1A Eu -0.106353(12) 1.078988(12) 0.493596(13)
Eu2A Eu 0.613608(12) 1.058967(12) 0.461854(13)
O3A O -0.03232(17) 0.96930(18) 0.41971(17)
O11A O 0.51695(17) 1.06843(16) 0.56462(17)
O15 O 0.4682(4) 0.6092(3) 0.5795(4)
N2 N 0.3403(4) 0.5696(4) 0.4703(4)
C64 C 0.4022(6) 0.6263(4) 0.5304(5)
H64 H 0.3946 0.6846 0.5356
C65 C 0.2631(6) 0.5958(6) 0.4179(6)
H65 H 0.2661 0.5820 0.3633
H66 H 0.2671 0.6580 0.4327
H67 H 0.2038 0.5653 0.4223
C66 C 0.3512(5) 0.4786(4) 0.4570(6)
H68 H 0.3515 0.4550 0.5050
H69 H 0.4103 0.4751 0.4443
H70 H 0.2989 0.4453 0.4130
O16 O 0.4493(3) 0.7562(4) 0.8002(3)
N3 N 0.3254(4) 0.8119(4) 0.8255(4)
C67 C 0.3952(6) 0.8099(5) 0.7942(4)
H71 H 0.4062 0.8530 0.7642
C68 C 0.2585(6) 0.8718(5) 0.8101(6)
H72 H 0.2717 0.9042 0.7701
H73 H 0.2655 0.9119 0.8591
H74 H 0.1944 0.8387 0.7909
C69 C 0.3058(6) 0.7466(5) 0.8712(6)
H75 H 0.2415 0.7147 0.8477
H76 H 0.3131 0.7742 0.9257
H77 H 0.3495 0.7067 0.8710
O17 O 0.5573(3) 0.7610(3) 0.6884(4)
H78 H 0.534(5) 0.714(3) 0.653(3)
H79 H 0.533(4) 0.758(4) 0.728(2)
O18 O 0.6370(17) 1.1117(15) 0.9360(15)
N4 N 0.6584(6) 1.0198(7) 0.8552(7)
C70 C 0.6428(9) 1.0798(9) 0.8057(9)
C71 C 0.6500(17) 1.0318(15) 0.9376(15)
C72 C 0.6933(11) 0.9429(10) 0.8289(10)
loop_
_geom_bond_atom_site_label_1
_geom_bond_atom_site_label_2
_geom_bond_site_symmetry_1
_geom_bond_site_symmetry_2
Eu1 O1 1_555 1_555
Eu2 O2 1_555 1_555
O1 C10 1_555 1_555
O2 Eu1 1_555 1_555
O3 Eu1 1_555 1_555
O4 Eu1 1_555 1_555
O5 Eu1 1_555 1_555
O6 Eu2 1_555 1_555
O7 Eu1 1_555 1_555
O8 Eu2 1_555 1_555
O9 Eu1 1_555 1_555
O10 Eu2 1_555 1_555
O11 Eu2 1_555 1_555
O12 Eu2 1_555 1_555
O13 Eu1 1_555 1_555
O14 Eu2 1_555 1_555
H1 O14 1_555 1_555
H2 O14 1_555 1_555
N1 C61 1_555 1_555
C1 H3 1_555 1_555
H4 C1 1_555 1_555
H5 C1 1_555 1_555
C2 H6 1_555 1_555
C3 C2 1_555 1_555
H7 C3 1_555 1_555
C4 C1 1_555 1_555
C5 C4 1_555 1_555
H8 C5 1_555 1_555
C6 C5 1_555 1_555
H9 C6 1_555 1_555
C7 C2 1_555 1_555
C8 C7 1_555 1_555
H10 C8 1_555 1_555
C9 C8 1_555 1_555
H11 C9 1_555 1_555
C10 O2 1_555 1_555
C11 H12 1_555 1_555
H13 C11 1_555 1_555
H14 C11 1_555 1_555
C12 H15 1_555 1_555
C13 C12 1_555 1_555
H16 C13 1_555 1_555
C14 C11 1_555 1_555
C15 C14 1_555 1_555
H17 C15 1_555 1_555
C16 C15 1_555 1_555
H18 C16 1_555 1_555
C17 C12 1_555 1_555
C18 C17 1_555 1_555
H19 C18 1_555 1_555
C19 C18 1_555 1_555
H20 C19 1_555 1_555
C20 O3 1_555 1_555
C21 H21 1_555 1_555
H22 C21 1_555 1_555
H23 C21 1_555 1_555
C22 H24 1_555 1_555
C23 C22 1_555 1_555
H25 C23 1_555 1_555
C24 C21 1_555 1_555
C25 C24 1_555 1_555
H26 C25 1_555 1_555
C26 C25 1_555 1_555
H27 C26 1_555 1_555
C27 C22 1_555 1_555
C28 C27 1_555 1_555
H28 C28 1_555 1_555
C29 C28 1_555 1_555
H29 C29 1_555 1_555
C30 O5 1_555 1_555
C31 H30 1_555 1_555
H31 C31 1_555 1_555
H32 C31 1_555 1_555
C32 H33 1_555 1_555
C33 C32 1_555 1_555
H34 C33 1_555 1_555
C34 C31 1_555 1_555
C35 C34 1_555 1_555
H35 C35 1_555 1_555
C36 C35 1_555 1_555
H36 C36 1_555 1_555
C37 C32 1_555 1_555
C38 C37 1_555 1_555
H37 C38 1_555 1_555
C39 C38 1_555 1_555
H38 C39 1_555 1_555
C40 O7 1_555 1_555
C41 H39 1_555 1_555
H40 C41 1_555 1_555
H41 C41 1_555 1_555
C42 H42 1_555 1_555
C43 C42 1_555 1_555
H43 C43 1_555 1_555
C44 C41 1_555 1_555
C45 C44 1_555 1_555
H44 C45 1_555 1_555
C46 C45 1_555 1_555
H45 C46 1_555 1_555
C47 C42 1_555 1_555
C48 C47 1_555 1_555
H46 C48 1_555 1_555
C49 C48 1_555 1_555
H47 C49 1_555 1_555
C50 O9 1_555 1_555
C51 H48 1_555 1_555
H49 C51 1_555 1_555
H50 C51 1_555 1_555
C52 H51 1_555 1_555
C53 C52 1_555 1_555
H52 C53 1_555 1_555
C54 C51 1_555 1_555
C55 C54 1_555 1_555
H53 C55 1_555 1_555
C56 C55 1_555 1_555
H54 C56 1_555 1_555
C57 C52 1_555 1_555
C58 C57 1_555 1_555
H55 C58 1_555 1_555
C59 C58 1_555 1_555
H56 C59 1_555 1_555
C60 O11 1_555 1_555
C61 O13 1_555 1_555
H57 C61 1_555 1_555
C62 N1 1_555 1_555
H58 C62 1_555 1_555
H59 C62 1_555 1_555
H60 C62 1_555 1_555
C63 N1 1_555 1_555
H61 C63 1_555 1_555
H62 C63 1_555 1_555
H63 C63 1_555 1_555
O15 C64 1_555 1_555
N2 C64 1_555 1_555
C64 H64 1_555 1_555
C65 N2 1_555 1_555
H65 C65 1_555 1_555
H66 C65 1_555 1_555
H67 C65 1_555 1_555
C66 N2 1_555 1_555
H68 C66 1_555 1_555
H69 C66 1_555 1_555
H70 C66 1_555 1_555
O16 C67 1_555 1_555
N3 C67 1_555 1_555
C67 H71 1_555 1_555
C68 N3 1_555 1_555
H72 C68 1_555 1_555
H73 C68 1_555 1_555
H74 C68 1_555 1_555
C69 N3 1_555 1_555
H75 C69 1_555 1_555
H76 C69 1_555 1_555
H77 C69 1_555 1_555
O17 H78 1_555 1_555
H79 O17 1_555 1_555
O18 C71 1_555 1_555
N4 C70 1_555 1_555
C71 N4 1_555 1_555
C72 N4 1_555 1_555
Eu1A O3 1_555 1_555
Eu2A O11 1_555 1_555
O3A Eu1 1_555 1_555
O11A Eu2 1_555 1_555
Eu2 O9 1_555 1_555
O4 C20 1_555 1_555
O6 C30 1_555 1_555
O8 C40 1_555 1_555
O10 C50 1_555 1_555
O12 C60 1_555 1_555
C3 C4 1_555 1_555
C6 C7 1_555 1_555
C9 C10 1_555 1_555
C13 C14 1_555 1_555
C16 C17 1_555 1_555
C19 C20 1_555 1_555
C23 C24 1_555 1_555
C26 C27 1_555 1_555
C29 C30 1_555 1_555
C33 C34 1_555 1_555
C36 C37 1_555 1_555
C39 C40 1_555 1_555
C43 C44 1_555 1_555
C46 C47 1_555 1_555
C49 C50 1_555 1_555
C53 C54 1_555 1_555
C56 C57 1_555 1_555
C59 C60 1_555 1_555
Eu1A O3A 1_555 1_555
Eu2A O11A 1_555 1_555

#END
