
#######################################################################
#
#                 Cambridge Crystallographic Data Centre
#                                CCDC 
#
#######################################################################
#
# If this CIF has been generated from an entry in the Cambridge 
# Structural Database, then it will include bibliographic, chemical, 
# crystal, experimental, refinement or atomic coordinate data resulting 
# from the CCDC's data processing and validation procedures.
#
#######################################################################

data_WISLAN
_symmetry_cell_setting           monoclinic
_symmetry_space_group_name_H-M   'P 21/c'
_symmetry_Int_Tables_number      14
_space_group_name_Hall           '-P 2ybc'
loop_
_symmetry_equiv_pos_site_id
_symmetry_equiv_pos_as_xyz
1 x,y,z
2 -x,1/2+y,1/2-z
3 -x,-y,-z
4 x,1/2-y,1/2+z
_cell_length_a                   11.5136(2)
_cell_length_b                   28.6234(5)
_cell_length_c                   17.0116(4)
_cell_angle_alpha                90
_cell_angle_beta                 131.3130(10)
_cell_angle_gamma                90
_cell_volume                     4210.98
loop_
_atom_site_label
_atom_site_type_symbol
_atom_site_fract_x
_atom_site_fract_y
_atom_site_fract_z
C1 C 0.3604(6) 0.17862(16) 0.6945(3)
C2 C 0.3613(5) 0.21079(16) 0.7638(3)
C3 C 0.2273(6) 0.21232(18) 0.7496(4)
H1 H 0.1437 0.1936 0.6983
C4 C 0.2153(6) 0.24053(17) 0.8087(4)
H2 H 0.1241 0.2412 0.7970
C5 C 0.3395(5) 0.26816(16) 0.8863(3)
C6 C 0.4757(5) 0.26558(15) 0.9031(3)
H3 H 0.5607 0.2831 0.9570
C7 C 0.4887(5) 0.23801(15) 0.8425(3)
C8 C 0.3209(6) 0.30396(16) 0.9412(3)
C9 C 0.6313(5) 0.24465(15) 0.8571(3)
C10 C 0.7804(5) 0.23245(15) 0.9492(3)
C11 C 0.9088(5) 0.24949(17) 0.9665(4)
H4 H 1.0074 0.2419 1.0283
C12 C 0.8929(6) 0.27728(18) 0.8939(4)
H5 H 0.9799 0.2894 0.9080
C13 C 0.7468(5) 0.28708(17) 0.7998(4)
C14 C 0.6180(5) 0.27056(16) 0.7824(3)
H6 H 0.5200 0.2771 0.7190
C15 C 0.7222(6) 0.31755(18) 0.7185(4)
C16 C 0.8020(5) 0.19728(16) 1.0237(3)
C17 C 0.0989(5) 0.05652(16) 0.4092(3)
C18 C -0.0197(5) 0.01984(16) 0.3371(3)
C19 C -0.1164(6) 0.00396(18) 0.3538(4)
H7 H -0.1028 0.0154 0.4106
C20 C -0.2315(6) -0.02832(18) 0.2883(4)
H8 H -0.2954 -0.0383 0.3004
C21 C -0.2511(6) -0.04565(18) 0.2043(4)
C22 C -0.1521(5) -0.03113(17) 0.1891(4)
H9 H -0.1634 -0.0437 0.1339
C23 C -0.0366(5) 0.00165(15) 0.2543(3)
C24 C -0.3791(6) -0.07898(19) 0.1282(4)
C25 C 0.0738(5) 0.00970(15) 0.2365(3)
C26 C 0.2133(5) -0.01447(15) 0.2999(4)
H10 H 0.2455 -0.0284 0.3609
C27 C 0.3061(5) -0.01850(16) 0.2752(4)
C28 C 0.2611(6) 0.00405(17) 0.1867(4)
H11 H 0.3222 0.0019 0.1692
C29 C 0.1269(6) 0.02953(17) 0.1249(4)
H12 H 0.0987 0.0449 0.0663
C30 C 0.0323(5) 0.03281(15) 0.1486(3)
C31 C -0.1086(5) 0.06362(16) 0.0809(4)
C32 C 0.4421(5) -0.05142(16) 0.3367(4)
C33 C 1.3548(6) 0.10686(18) 1.3270(4)
H13 H 1.3728 0.0906 1.3815
C34 C 1.2475(6) 0.14850(18) 1.1894(4)
H14 H 1.1761 0.1669 1.1307
C35 C 1.3845(7) 0.1346(2) 1.2216(4)
H15 H 1.4247 0.1414 1.1901
C36 C 1.6098(7) 0.0887(2) 1.3757(5)
H16 H 1.6324 0.0807 1.3316
H17 H 1.6121 0.0600 1.4071
C37 C 1.7369(7) 0.1213(3) 1.4630(5)
H18 H 1.8364 0.1105 1.4885
H19 H 1.7200 0.1525 1.4346
C38 C 1.7404(7) 0.1237(2) 1.5537(5)
H20 H 1.6394 0.1336 1.5270
H21 H 1.7585 0.0925 1.5821
C39 C 1.8603(8) 0.1559(3) 1.6413(5)
H22 H 1.9585 0.1503 1.6593
H23 H 1.8305 0.1880 1.6178
C40 C 2.0108(6) 0.1353(2) 1.8308(4)
H24 H 2.1084 0.1322 1.8522
C41 C 1.7672(6) 0.1499(2) 1.7394(4)
H25 H 1.6656 0.1589 1.6844
C42 C 1.9722(6) 0.1270(2) 1.8888(4)
H26 H 2.0399 0.1166 1.9578
Cd1 Cd 0.32462(4) 0.119441(11) 0.55059(2)
Cd2 Cd 0.65277(4) 0.115124(12) 0.85397(2)
Cd3 Cd 0.62628(4) 0.124671(12) 1.05534(3)
Cd4 Cd 1.03118(4) 0.143436(12) 1.25148(3)
N1 N 1.2285(5) 0.13163(15) 1.2555(3)
N2 N 1.4532(5) 0.10852(16) 1.3098(3)
N3 N 1.8791(5) 0.14917(17) 1.7347(3)
N4 N 1.8192(5) 0.13619(16) 1.8317(3)
O1 O 0.2351(4) 0.16567(14) 0.6103(3)
O2 O 0.4889(4) 0.16542(11) 0.7226(2)
O3 O 0.6959(4) 0.16628(11) 0.9807(2)
O4 O 0.9194(4) 0.19856(12) 1.1177(2)
O5 O 0.4361(4) 0.32543(12) 1.0180(3)
O6 O 0.1843(4) 0.31368(12) 0.9028(3)
O7 O 0.8334(4) 0.34289(14) 0.7444(3)
O8 O 0.5932(5) 0.31841(15) 0.6288(3)
O9 O 0.1523(5) 0.05817(15) 0.5008(3)
O10 O 0.1419(4) 0.08502(11) 0.3759(2)
O11 O -0.1476(4) 0.08480(11) 0.1263(2)
O12 O -0.1720(4) 0.06768(14) -0.0120(3)
O13 O -0.4863(5) -0.08495(17) 0.1259(4)
O14 O -0.3812(6) -0.0982(2) 0.0621(4)
O15 O 0.4999(4) -0.06394(13) 0.4260(3)
O16 O 0.4885(4) -0.06681(12) 0.2917(3)
O17 O 0.6195(8) 0.0732(2) 1.1590(5)
H27 H 0.5223 0.0560 1.1208
H28 H 0.6973 0.0474 1.1940
Cd1B Cd 0.67538(4) -0.119441(11) 0.44941(2)
Cd1C Cd 0.32462(4) 0.380559(11) 1.05059(2)
Cd2_2 Cd -0.34723(4) 0.115124(12) -0.14603(2)
Cd2_3 Cd 1.65277(4) 0.115124(12) 1.85397(2)
Cd2B Cd -0.65277(4) -0.115124(12) 0.14603(2)
Cd2B_2 Cd 0.34723(4) -0.115124(12) 0.14603(2)
Cd3_2 Cd -0.37372(4) 0.124671(12) 0.05534(3)
Cd3B Cd -0.62628(4) -0.124671(12) -0.05534(3)
Cd3C Cd 0.62628(4) 0.375329(12) 0.55534(3)
Cd4_2 Cd 0.03118(4) 0.143436(12) 0.25148(3)
Cd4C Cd 0.03118(4) 0.356564(12) 0.75148(3)
Cd4C_2 Cd 1.03118(4) 0.356564(12) 0.75148(3)
N4_2 N 0.8192(5) 0.13619(16) 0.8317(3)
O5C O 0.4361(4) 0.17457(12) 0.5180(3)
O6C O 0.1843(4) 0.18632(12) 0.4028(3)
O6C_2 O 1.1843(4) 0.18632(12) 1.4028(3)
O7C O 0.8334(4) 0.15711(14) 1.2444(3)
O8C O 0.5932(5) 0.18159(15) 1.1288(3)
O10_2 O 1.1419(4) 0.08502(11) 1.3759(2)
O11_2 O 0.8524(4) 0.08480(11) 1.1263(2)
O12_2 O 0.8280(4) 0.06768(14) 0.9880(3)
O13B O 0.4863(5) 0.08495(17) 0.8741(4)
O14B O 0.3812(6) 0.0982(2) 0.9379(4)
O15B O 0.5001(4) 0.06394(13) 0.5740(3)
O16B O 0.5115(4) 0.06681(12) 0.7083(3)
O18 O 0.4077(12) 0.0108(4) 0.0587(8)
loop_
_geom_bond_atom_site_label_1
_geom_bond_atom_site_label_2
_geom_bond_site_symmetry_1
_geom_bond_site_symmetry_2
C1 C2 1_555 1_555
C2 C3 1_555 1_555
C3 H1 1_555 1_555
C4 C3 1_555 1_555
H2 C4 1_555 1_555
C5 C4 1_555 1_555
C6 C5 1_555 1_555
H3 C6 1_555 1_555
C7 C2 1_555 1_555
C8 C5 1_555 1_555
C9 C7 1_555 1_555
C10 C9 1_555 1_555
C11 C10 1_555 1_555
H4 C11 1_555 1_555
C12 C11 1_555 1_555
H5 C12 1_555 1_555
C13 C12 1_555 1_555
C14 C9 1_555 1_555
H6 C14 1_555 1_555
C15 C13 1_555 1_555
C16 C10 1_555 1_555
C17 C18 1_555 1_555
C18 C19 1_555 1_555
C19 H7 1_555 1_555
C20 C19 1_555 1_555
H8 C20 1_555 1_555
C21 C20 1_555 1_555
C22 C21 1_555 1_555
H9 C22 1_555 1_555
C23 C18 1_555 1_555
C24 C21 1_555 1_555
C25 C23 1_555 1_555
C26 C25 1_555 1_555
H10 C26 1_555 1_555
C27 C26 1_555 1_555
C28 C27 1_555 1_555
H11 C28 1_555 1_555
C29 C28 1_555 1_555
H12 C29 1_555 1_555
C30 C25 1_555 1_555
C31 C30 1_555 1_555
C32 C27 1_555 1_555
C33 H13 1_555 1_555
C34 H14 1_555 1_555
C35 C34 1_555 1_555
H15 C35 1_555 1_555
C36 H16 1_555 1_555
H17 C36 1_555 1_555
C37 C36 1_555 1_555
H18 C37 1_555 1_555
H19 C37 1_555 1_555
C38 C37 1_555 1_555
H20 C38 1_555 1_555
H21 C38 1_555 1_555
C39 C38 1_555 1_555
H22 C39 1_555 1_555
H23 C39 1_555 1_555
C40 H24 1_555 1_555
C41 H25 1_555 1_555
C42 C40 1_555 1_555
H26 C42 1_555 1_555
Cd1 O1 1_555 1_555
Cd2 O2 1_555 1_555
Cd3 O3 1_555 1_555
Cd4 N1 1_555 1_555
N1 C33 1_555 1_555
N2 C33 1_555 1_555
N3 C39 1_555 1_555
N4 C41 1_555 1_555
O1 C1 1_555 1_555
O2 C1 1_555 1_555
O3 C16 1_555 1_555
O4 C16 1_555 1_555
O5 C8 1_555 1_555
O6 C8 1_555 1_555
O7 C15 1_555 1_555
O8 C15 1_555 1_555
O9 C17 1_555 1_555
O10 C17 1_555 1_555
O11 C31 1_555 1_555
O12 C31 1_555 1_555
O13 C24 1_555 1_555
O14 C24 1_555 1_555
O15 C32 1_555 1_555
O16 C32 1_555 1_555
O17 Cd3 1_555 1_555
H27 O17 1_555 1_555
H28 O17 1_555 1_555
Cd1B O15 1_555 1_555
Cd1C O5 1_555 1_555
Cd2_2 O12 1_555 1_555
Cd2_3 N4 1_555 1_555
Cd2B O13 1_555 1_555
Cd2B_2 O16 1_555 1_555
Cd3_2 O11 1_555 1_555
Cd3B O13 1_555 1_555
Cd3C O7 1_555 1_555
Cd4_2 O10 1_555 1_555
Cd4C O6 1_555 1_555
Cd4C_2 O7 1_555 1_555
N4_2 Cd2 1_555 1_555
O5C Cd1 1_555 1_555
O6C Cd1 1_555 1_555
O6C_2 Cd4 1_555 1_555
O7C Cd3 1_555 1_555
O8C Cd3 1_555 1_555
O10_2 Cd4 1_555 1_555
O11_2 Cd3 1_555 1_555
O12_2 Cd2 1_555 1_555
O13B Cd2 1_555 1_555
O14B Cd3 1_555 1_555
O15B Cd1 1_555 1_555
O16B Cd1 1_555 1_555
C6 C7 1_555 1_555
C13 C14 1_555 1_555
C22 C23 1_555 1_555
C29 C30 1_555 1_555
C34 N1 1_555 1_555
C35 N2 1_555 1_555
C36 N2 1_555 1_555
C40 N3 1_555 1_555
C41 N3 1_555 1_555
C42 N4 1_555 1_555
Cd1 O2 1_555 1_555
Cd1 O9 1_555 1_555
Cd1 O10 1_555 1_555
Cd2 O3 1_555 1_555
Cd2 O16B 1_555 1_555
Cd3 O13B 1_555 1_555
Cd4 O4 1_555 1_555
Cd4 O7C 1_555 1_555
Cd4 O11_2 1_555 1_555
O6 Cd1C 1_555 1_555
O8 Cd3C 1_555 1_555
O11 Cd4_2 1_555 1_555
O14 Cd3B 1_555 1_555
O16 Cd1B 1_555 1_555
Cd4_2 O6C 1_555 1_555

#END
