
#######################################################################
#
#                 Cambridge Crystallographic Data Centre
#                                CCDC 
#
#######################################################################
#
# If this CIF has been generated from an entry in the Cambridge 
# Structural Database, then it will include bibliographic, chemical, 
# crystal, experimental, refinement or atomic coordinate data resulting 
# from the CCDC's data processing and validation procedures.
#
#######################################################################

data_WISRIB
_symmetry_cell_setting           triclinic
_symmetry_space_group_name_H-M   'P -1'
_symmetry_Int_Tables_number      2
_space_group_name_Hall           '-P 1'
loop_
_symmetry_equiv_pos_site_id
_symmetry_equiv_pos_as_xyz
1 x,y,z
2 -x,-y,-z
_cell_length_a                   7.9963(11)
_cell_length_b                   9.9322(14)
_cell_length_c                   14.448(2)
_cell_angle_alpha                76.013(9)
_cell_angle_beta                 85.738(12)
_cell_angle_gamma                79.627(12)
_cell_volume                     1094.68
loop_
_atom_site_label
_atom_site_type_symbol
_atom_site_fract_x
_atom_site_fract_y
_atom_site_fract_z
Pb1 Pb 0.45080(3) 0.05149(3) 0.689040(17)
O1 O 0.3199(6) 0.0416(5) 0.8502(3)
O2 O 0.2903(6) -0.1325(5) 0.7861(3)
O3 O 0.2634(6) 0.0226(7) 1.1875(3)
O4 O 0.6272(6) -0.1912(6) 0.6212(3)
O5 O 0.5471(6) -0.2420(5) 0.4956(3)
O6 O 0.3852(5) -0.0899(5) 0.5624(3)
N1 N 0.2434(7) 0.0283(7) 1.0292(4)
N2 N 0.3567(6) 0.3151(6) 0.6974(4)
N3 N 0.1518(6) 0.1540(6) 0.6452(4)
N4 N 0.5204(7) -0.1772(7) 0.5598(4)
C1 C 0.2768(8) -0.0767(8) 0.8561(5)
C2 C 0.2107(7) -0.1537(8) 0.9504(5)
C3 C 0.1650(9) -0.2839(8) 0.9558(5)
H1 H 0.1728 -0.3181 0.9002
C4 C 0.1089(9) -0.3647(9) 1.0397(5)
H2 H 0.0800 -0.4531 1.0417
C5 C 0.0961(9) -0.3128(10) 1.1201(5)
H3 H 0.0582 -0.3672 1.1778
C6 C 0.1371(9) -0.1836(9) 1.1192(5)
H4 H 0.1240 -0.1497 1.1751
C7 C 0.1983(7) -0.1031(8) 1.0343(4)
C8 C 0.2747(8) 0.0840(9) 1.1032(5)
C9 C 0.3228(9) 0.2287(9) 1.0714(5)
C10 C 0.3262(11) 0.2971(11) 1.1420(7)
C11 C 0.3638(9) 0.2872(9) 0.9707(6)
H5 H 0.2627 0.3036 0.9337
H6 H 0.4516 0.2213 0.9473
H7 H 0.4044 0.3755 0.9645
C12 C 0.4554(9) 0.3921(9) 0.7233(5)
H8 H 0.5650 0.3489 0.7441
C13 C 0.4039(11) 0.5350(9) 0.7210(5)
H9 H 0.4783 0.5867 0.7391
C14 C 0.2457(11) 0.5979(9) 0.6925(5)
H10 H 0.2086 0.6936 0.6913
C15 C 0.1367(9) 0.5192(8) 0.6645(5)
C16 C -0.0316(9) 0.5794(9) 0.6327(5)
H11 H -0.0728 0.6751 0.6299
C17 C -0.1308(9) 0.5001(9) 0.6069(5)
H12 H -0.2411 0.5417 0.5866
C18 C -0.0739(8) 0.3530(8) 0.6093(5)
C19 C -0.1738(8) 0.2665(10) 0.5815(5)
H13 H -0.2839 0.3045 0.5594
C20 C -0.1117(9) 0.1307(10) 0.5866(5)
H14 H -0.1769 0.0728 0.5676
C21 C 0.0527(8) 0.0758(8) 0.6210(5)
H15 H 0.0939 -0.0206 0.6270
C22 C 0.2000(8) 0.3762(7) 0.6675(4)
C23 C 0.0906(8) 0.2923(8) 0.6405(4)
Pb1A Pb 0.54920(3) -0.05149(3) 0.310960(17)
Pb1A_2 Pb 0.54920(3) -0.05149(3) 1.310960(17)
O3A O 0.7366(6) -0.0226(7) 0.8125(3)
O5A O 0.4529(6) 0.2420(5) 0.5044(3)
loop_
_geom_bond_atom_site_label_1
_geom_bond_atom_site_label_2
_geom_bond_site_symmetry_1
_geom_bond_site_symmetry_2
Pb1 O1 1_555 1_555
O1 C1 1_555 1_555
O2 Pb1 1_555 1_555
O3 C8 1_555 1_555
O4 Pb1 1_555 1_555
O5 N4 1_555 1_555
O6 Pb1 1_555 1_555
N1 C7 1_555 1_555
N2 Pb1 1_555 1_555
N3 Pb1 1_555 1_555
N4 O4 1_555 1_555
C1 O2 1_555 1_555
C2 C1 1_555 1_555
C3 C2 1_555 1_555
H1 C3 1_555 1_555
C4 C3 1_555 1_555
H2 C4 1_555 1_555
C5 C4 1_555 1_555
H3 C5 1_555 1_555
C6 C5 1_555 1_555
H4 C6 1_555 1_555
C7 C2 1_555 1_555
C8 N1 1_555 1_555
C9 C8 1_555 1_555
C10 C9 1_555 1_555
C11 C9 1_555 1_555
H5 C11 1_555 1_555
H6 C11 1_555 1_555
H7 C11 1_555 1_555
C12 N2 1_555 1_555
H8 C12 1_555 1_555
C13 C12 1_555 1_555
H9 C13 1_555 1_555
C14 C13 1_555 1_555
H10 C14 1_555 1_555
C15 C14 1_555 1_555
C16 C15 1_555 1_555
H11 C16 1_555 1_555
C17 C16 1_555 1_555
H12 C17 1_555 1_555
C18 C17 1_555 1_555
C19 C18 1_555 1_555
H13 C19 1_555 1_555
C20 C19 1_555 1_555
H14 C20 1_555 1_555
C21 N3 1_555 1_555
H15 C21 1_555 1_555
C22 N2 1_555 1_555
C23 N3 1_555 1_555
Pb1A O5 1_555 1_555
Pb1A_2 O3 1_555 1_555
O3A Pb1 1_555 1_555
O5A Pb1 1_555 1_555
O6 N4 1_555 1_555
C6 C7 1_555 1_555
C15 C22 1_555 1_555
C18 C23 1_555 1_555
C20 C21 1_555 1_555
C22 C23 1_555 1_555

#END
