
#######################################################################
#
#                 Cambridge Crystallographic Data Centre
#                                CCDC 
#
#######################################################################
#
# If this CIF has been generated from an entry in the Cambridge 
# Structural Database, then it will include bibliographic, chemical, 
# crystal, experimental, refinement or atomic coordinate data resulting 
# from the CCDC's data processing and validation procedures.
#
#######################################################################

data_WISWUQ
_symmetry_cell_setting           monoclinic
_symmetry_space_group_name_H-M   'P 21/a'
_symmetry_Int_Tables_number      14
_space_group_name_Hall           '-P 2yab'
loop_
_symmetry_equiv_pos_site_id
_symmetry_equiv_pos_as_xyz
1 x,y,z
2 1/2-x,1/2+y,-z
3 -x,-y,-z
4 1/2+x,1/2-y,z
_cell_length_a                   15.5564(17)
_cell_length_b                   16.831(2)
_cell_length_c                   17.5946(19)
_cell_angle_alpha                90
_cell_angle_beta                 110.796(11)
_cell_angle_gamma                90
_cell_volume                     4306.66
loop_
_atom_site_label
_atom_site_type_symbol
_atom_site_fract_x
_atom_site_fract_y
_atom_site_fract_z
Mn1 Mn 0.0000 0.0000 0.0000
N1 N -0.1516(2) 0.02166(18) -0.0512(2)
N2 N -0.1993(2) 0.05873(18) -0.0222(2)
N3 N -0.2429(3) 0.0931(3) 0.0050(3)
N4 N 0.0311(2) 0.02399(18) 0.1325(2)
N5 N -0.0141(2) 0.05733(19) 0.1660(2)
N6 N -0.0544(3) 0.0888(3) 0.1993(3)
N7 N 0.0285(2) 0.13176(17) -0.0172(2)
C1 C -0.0307(3) 0.1895(2) -0.0143(3)
H1 H -0.0845 0.1746 -0.0063
C2 C -0.0158(3) 0.2691(2) -0.0226(3)
C3 C 0.0659(3) 0.2913(2) -0.0335(3)
H2 H 0.0794 0.3446 -0.0379
C4 C 0.1256(3) 0.2327(2) -0.0377(3)
H3 H 0.1799 0.2461 -0.0455
C5 C 0.1050(3) 0.1547(2) -0.0303(3)
H4 H 0.1455 0.1158 -0.0345
C6 C -0.0848(3) 0.3266(2) -0.0186(3)
O1 O -0.1606(2) 0.30842(17) -0.0215(3)
O2 O -0.0556(2) 0.40161(16) -0.0138(2)
C7 C -0.1206(4) 0.4625(3) -0.0125(4)
H5 H -0.1704 0.4635 -0.0639
H6 H -0.0904 0.5132 -0.0027
H7 H -0.1441 0.4512 0.0299
Mn2 Mn -0.18211(4) -0.00343(3) -0.18275(4)
N8 N -0.3336(2) 0.01734(19) -0.2326(2)
N9 N -0.3835(2) 0.05850(19) -0.2106(2)
N10 N -0.4316(3) 0.0982(3) -0.1914(3)
N11 N -0.2138(3) -0.0285(2) -0.3149(2)
N12 N -0.1731(3) -0.0577(2) -0.3542(2)
N13 N -0.1371(3) -0.0870(3) -0.3943(3)
N14 N -0.2130(2) -0.13584(18) -0.1698(2)
C8 C -0.1548(3) -0.1925(2) -0.1765(3)
H8 H -0.1008 -0.1769 -0.1836
C9 C -0.1716(3) -0.2726(2) -0.1731(3)
C10 C -0.2541(3) -0.2958(2) -0.1640(3)
H9 H -0.2688 -0.3493 -0.1633
C11 C -0.3125(3) -0.2383(2) -0.1562(3)
H10 H -0.3668 -0.2522 -0.1489
C12 C -0.2902(3) -0.1596(2) -0.1594(3)
H11 H -0.3306 -0.1212 -0.1540
C13 C -0.1038(3) -0.3295(2) -0.1805(3)
O3 O -0.0275(2) -0.31071(17) -0.1766(2)
O4 O -0.1338(2) -0.40477(16) -0.1886(2)
C14 C -0.0696(4) -0.4649(3) -0.1929(4)
H12 H -0.0203 -0.4688 -0.1413
H13 H -0.1005 -0.5152 -0.2061
H14 H -0.0452 -0.4509 -0.2341
N15 N -0.1569(2) 0.12860(18) -0.2054(2)
C15 C -0.2172(3) 0.1871(2) -0.2065(3)
H15 H -0.2707 0.1731 -0.1977
C16 C -0.2040(3) 0.2656(2) -0.2198(3)
C17 C -0.1238(3) 0.2869(2) -0.2328(3)
H16 H -0.1123 0.3397 -0.2416
C18 C -0.0620(3) 0.2283(2) -0.2325(3)
H17 H -0.0079 0.2409 -0.2410
C19 C -0.0809(3) 0.1517(3) -0.2195(3)
H18 H -0.0388 0.1128 -0.2204
C20 C -0.2748(3) 0.3236(2) -0.2186(3)
O5 O -0.3490(2) 0.30586(18) -0.2189(3)
O6 O -0.2464(2) 0.39849(16) -0.2177(2)
C21 C -0.3122(4) 0.4592(3) -0.2166(4)
H19 H -0.3219 0.4572 -0.1657
H20 H -0.2889 0.5105 -0.2232
H21 H -0.3695 0.4499 -0.2603
Mn3 Mn -0.36467(5) -0.01036(4) -0.36293(4)
N16 N -0.5113(3) 0.0153(2) -0.3901(3)
N17 N -0.5710(3) 0.0256(2) -0.4521(3)
N18 N -0.3691(3) -0.0358(3) -0.4883(3)
N19 N -0.3993(3) -0.1428(2) -0.3600(2)
C22 C -0.3427(3) -0.1996(3) -0.3685(3)
H22 H -0.2875 -0.1837 -0.3731
C23 C -0.3608(4) -0.2796(3) -0.3707(3)
C24 C -0.4441(3) -0.3033(3) -0.3639(3)
H23 H -0.4592 -0.3569 -0.3651
C25 C -0.5030(3) -0.2466(3) -0.3556(3)
H24 H -0.5586 -0.2612 -0.3510
C26 C -0.4793(3) -0.1681(3) -0.3542(3)
H25 H -0.5203 -0.1302 -0.3489
C27 C -0.2924(4) -0.3360(3) -0.3783(3)
O7 O -0.2156(3) -0.3172(2) -0.3723(3)
O8 O -0.3242(2) -0.41124(18) -0.3906(2)
C28 C -0.2607(4) -0.4702(3) -0.3992(4)
H26 H -0.1997 -0.4485 -0.3805
H27 H -0.2623 -0.5161 -0.3674
H28 H -0.2781 -0.4850 -0.4553
N20 N -0.3497(3) 0.1217(2) -0.3942(2)
C29 C -0.4107(3) 0.1784(2) -0.3973(3)
H29 H -0.4620 0.1642 -0.3849
C30 C -0.4034(3) 0.2559(3) -0.4174(3)
C31 C -0.3283(3) 0.2795(3) -0.4389(3)
C32 C -0.2653(4) 0.2208(3) -0.4360(3)
H30 H -0.2139 0.2332 -0.4489
C33 C -0.2772(3) 0.1451(3) -0.4146(3)
H31 H -0.2333 0.1074 -0.4140
C34 C -0.4753(3) 0.3129(3) -0.4170(3)
O9 O -0.5492(3) 0.2946(2) -0.4160(3)
O10 O -0.4493(3) 0.38880(19) -0.4164(2)
C35 C -0.5143(4) 0.4478(3) -0.4126(4)
H32 H -0.5174 0.4483 -0.3591
H33 H -0.4951 0.4991 -0.4245
H34 H -0.5738 0.4355 -0.4517
N1B N 0.1516(2) -0.02166(18) 0.0512(2)
N4B N -0.0311(2) -0.02399(18) -0.1325(2)
N7B N -0.0285(2) -0.13176(17) 0.0172(2)
Mn2B Mn 0.18211(4) 0.00343(3) 0.18275(4)
N18B N -0.6309(3) 0.0358(3) -0.5117(3)
N17B N -0.4290(3) -0.0256(2) -0.5479(3)
N2B N 0.1993(2) -0.05873(18) 0.0222(2)
N5B N 0.0141(2) -0.05733(19) -0.1660(2)
C1B C 0.0307(3) -0.1895(2) 0.0143(3)
C5B C -0.1050(3) -0.1547(2) 0.0303(3)
N8B N 0.3336(2) -0.01734(19) 0.2326(2)
N11B N 0.2138(3) 0.0285(2) 0.3149(2)
N14B N 0.2130(2) 0.13584(18) 0.1698(2)
N15B N 0.1569(2) -0.12860(18) 0.2054(2)
Mn3B Mn -0.63533(5) 0.01036(4) -0.63707(4)
N16B N -0.4887(3) -0.0153(2) -0.6099(3)
N3B N 0.2429(3) -0.0931(3) -0.0050(3)
N6B N 0.0544(3) -0.0888(3) -0.1993(3)
H1B H 0.0845 -0.1746 0.0063
C2B C 0.0158(3) -0.2691(2) 0.0226(3)
C4B C -0.1256(3) -0.2327(2) 0.0377(3)
H4B H -0.1455 -0.1158 0.0345
N9B N 0.3835(2) -0.05850(19) 0.2106(2)
Mn3B_2 Mn 0.36467(5) 0.01036(4) 0.36293(4)
N12B N 0.1731(3) 0.0577(2) 0.3542(2)
C8B C 0.1548(3) 0.1925(2) 0.1765(3)
C12B C 0.2902(3) 0.1596(2) 0.1594(3)
C15B C 0.2172(3) -0.1871(2) 0.2065(3)
C19B C 0.0809(3) -0.1517(3) 0.2195(3)
C3B C -0.0659(3) -0.2913(2) 0.0335(3)
C6B C 0.0848(3) -0.3266(2) 0.0186(3)
H3B H -0.1799 -0.2461 0.0455
N10B N 0.4316(3) -0.0982(3) 0.1914(3)
N16B_2 N 0.5113(3) -0.0153(2) 0.3901(3)
N18B_2 N 0.3691(3) 0.0358(3) 0.4883(3)
N19B N 0.3993(3) 0.1428(2) 0.3600(2)
N20B N 0.3497(3) -0.1217(2) 0.3942(2)
N13B N 0.1371(3) 0.0870(3) 0.3943(3)
H8B H 0.1008 0.1769 0.1836
C9B C 0.1716(3) 0.2726(2) 0.1731(3)
C11B C 0.3125(3) 0.2383(2) 0.1562(3)
H11B H 0.3306 0.1212 0.1540
H15B H 0.2707 -0.1731 0.1977
C16B C 0.2040(3) -0.2656(2) 0.2198(3)
C18B C 0.0620(3) -0.2283(2) 0.2325(3)
H18B H 0.0388 -0.1128 0.2204
H2B H -0.0794 -0.3446 0.0379
O1B O 0.1606(2) -0.30842(17) 0.0215(3)
O2B O 0.0556(2) -0.40161(16) 0.0138(2)
C22B C 0.3427(3) 0.1996(3) 0.3685(3)
C26B C 0.4793(3) 0.1681(3) 0.3542(3)
C29B C 0.4107(3) -0.1784(2) 0.3973(3)
C33B C 0.2772(3) -0.1451(3) 0.4146(3)
C10B C 0.2541(3) 0.2958(2) 0.1640(3)
C13B C 0.1038(3) 0.3295(2) 0.1805(3)
H10B H 0.3668 0.2522 0.1489
C17B C 0.1238(3) -0.2869(2) 0.2328(3)
C20B C 0.2748(3) -0.3236(2) 0.2186(3)
H17B H 0.0079 -0.2409 0.2410
C7B C 0.1206(4) -0.4625(3) 0.0125(4)
H22B H 0.2875 0.1837 0.3731
C23B C 0.3608(4) 0.2796(3) 0.3707(3)
C25B C 0.5030(3) 0.2466(3) 0.3556(3)
H25B H 0.5203 0.1302 0.3489
H29B H 0.4620 -0.1642 0.3849
C30B C 0.4034(3) -0.2559(3) 0.4174(3)
C32B C 0.2653(4) -0.2208(3) 0.4360(3)
H31B H 0.2333 -0.1074 0.4140
H9B H 0.2688 0.3493 0.1633
O3B O 0.0275(2) 0.31071(17) 0.1766(2)
O4B O 0.1338(2) 0.40477(16) 0.1886(2)
H16B H 0.1123 -0.3397 0.2416
O5B O 0.3490(2) -0.30586(18) 0.2189(3)
O6B O 0.2464(2) -0.39849(16) 0.2177(2)
H5B H 0.1704 -0.4635 0.0639
H6B H 0.0904 -0.5132 0.0027
H7B H 0.1441 -0.4512 -0.0299
C24B C 0.4441(3) 0.3033(3) 0.3639(3)
C27B C 0.2924(4) 0.3360(3) 0.3783(3)
H24B H 0.5586 0.2612 0.3510
C31B C 0.3283(3) -0.2795(3) 0.4389(3)
C34B C 0.4753(3) -0.3129(3) 0.4170(3)
H30B H 0.2139 -0.2332 0.4489
C14B C 0.0696(4) 0.4649(3) 0.1929(4)
C21B C 0.3122(4) -0.4592(3) 0.2166(4)
H23B H 0.4592 0.3569 0.3651
O7B O 0.2156(3) 0.3172(2) 0.3723(3)
O8B O 0.3242(2) 0.41124(18) 0.3906(2)
O9B O 0.5492(3) -0.2946(2) 0.4160(3)
O10B O 0.4493(3) -0.38880(19) 0.4164(2)
H12B H 0.0203 0.4688 0.1413
H13B H 0.1005 0.5152 0.2061
H14B H 0.0452 0.4509 0.2341
H19B H 0.3219 -0.4572 0.1657
H20B H 0.2889 -0.5105 0.2232
H21B H 0.3695 -0.4499 0.2603
C28B C 0.2607(4) 0.4702(3) 0.3992(4)
C35B C 0.5143(4) -0.4478(3) 0.4126(4)
H26B H 0.1997 0.4485 0.3805
H27B H 0.2623 0.5161 0.3674
H28B H 0.2781 0.4850 0.4553
H32B H 0.5174 -0.4483 0.3591
H33B H 0.4951 -0.4991 0.4245
H34B H 0.5738 -0.4355 0.4517
loop_
_geom_bond_atom_site_label_1
_geom_bond_atom_site_label_2
_geom_bond_site_symmetry_1
_geom_bond_site_symmetry_2
Mn1 N1 1_555 1_555
N1 N2 1_555 1_555
N2 N3 1_555 1_555
N4 Mn1 1_555 1_555
N5 N4 1_555 1_555
N6 N5 1_555 1_555
N7 Mn1 1_555 1_555
C1 N7 1_555 1_555
H1 C1 1_555 1_555
C2 C1 1_555 1_555
C3 C2 1_555 1_555
H2 C3 1_555 1_555
C4 C3 1_555 1_555
H3 C4 1_555 1_555
C5 N7 1_555 1_555
H4 C5 1_555 1_555
C6 C2 1_555 1_555
O1 C6 1_555 1_555
O2 C6 1_555 1_555
C7 O2 1_555 1_555
H5 C7 1_555 1_555
H6 C7 1_555 1_555
H7 C7 1_555 1_555
Mn2 N1 1_555 1_555
N8 Mn2 1_555 1_555
N9 N8 1_555 1_555
N10 N9 1_555 1_555
N11 Mn2 1_555 1_555
N12 N11 1_555 1_555
N13 N12 1_555 1_555
N14 Mn2 1_555 1_555
C8 N14 1_555 1_555
H8 C8 1_555 1_555
C9 C8 1_555 1_555
C10 C9 1_555 1_555
H9 C10 1_555 1_555
C11 C10 1_555 1_555
H10 C11 1_555 1_555
C12 N14 1_555 1_555
H11 C12 1_555 1_555
C13 C9 1_555 1_555
O3 C13 1_555 1_555
O4 C13 1_555 1_555
C14 O4 1_555 1_555
H12 C14 1_555 1_555
H13 C14 1_555 1_555
H14 C14 1_555 1_555
N15 Mn2 1_555 1_555
C15 N15 1_555 1_555
H15 C15 1_555 1_555
C16 C15 1_555 1_555
C17 C16 1_555 1_555
H16 C17 1_555 1_555
C18 C17 1_555 1_555
H17 C18 1_555 1_555
C19 N15 1_555 1_555
H18 C19 1_555 1_555
C20 C16 1_555 1_555
O5 C20 1_555 1_555
O6 C20 1_555 1_555
C21 O6 1_555 1_555
H19 C21 1_555 1_555
H20 C21 1_555 1_555
H21 C21 1_555 1_555
Mn3 N8 1_555 1_555
N16 Mn3 1_555 1_555
N17 N16 1_555 1_555
N18 Mn3 1_555 1_555
N19 Mn3 1_555 1_555
C22 N19 1_555 1_555
H22 C22 1_555 1_555
C23 C22 1_555 1_555
C24 C23 1_555 1_555
H23 C24 1_555 1_555
C25 C24 1_555 1_555
H24 C25 1_555 1_555
C26 N19 1_555 1_555
H25 C26 1_555 1_555
C27 C23 1_555 1_555
O7 C27 1_555 1_555
O8 C27 1_555 1_555
C28 O8 1_555 1_555
H26 C28 1_555 1_555
H27 C28 1_555 1_555
H28 C28 1_555 1_555
N20 Mn3 1_555 1_555
C29 N20 1_555 1_555
H29 C29 1_555 1_555
C30 C29 1_555 1_555
C31 C30 1_555 1_555
C32 C31 1_555 1_555
H30 C32 1_555 1_555
C33 N20 1_555 1_555
H31 C33 1_555 1_555
C34 C30 1_555 1_555
O9 C34 1_555 1_555
O10 C34 1_555 1_555
C35 O10 1_555 1_555
H32 C35 1_555 1_555
H33 C35 1_555 1_555
H34 C35 1_555 1_555
N1B Mn1 1_555 1_555
N4B Mn1 1_555 1_555
N7B Mn1 1_555 1_555
Mn2B N4 1_555 1_555
N18B N17 1_555 1_555
N17B N18 1_555 1_555
N2B N1B 1_555 1_555
N5B N4B 1_555 1_555
C1B N7B 1_555 1_555
C5B N7B 1_555 1_555
N8B Mn2B 1_555 1_555
N11B Mn2B 1_555 1_555
N14B Mn2B 1_555 1_555
N15B Mn2B 1_555 1_555
Mn3B N18B 1_555 1_555
N16B N17B 1_555 1_555
N3B N2B 1_555 1_555
N6B N5B 1_555 1_555
H1B C1B 1_555 1_555
C2B C1B 1_555 1_555
C4B C5B 1_555 1_555
H4B C5B 1_555 1_555
N9B N8B 1_555 1_555
Mn3B_2 N8B 1_555 1_555
N12B N11B 1_555 1_555
C8B N14B 1_555 1_555
C12B N14B 1_555 1_555
C15B N15B 1_555 1_555
C19B N15B 1_555 1_555
C3B C2B 1_555 1_555
C6B C2B 1_555 1_555
H3B C4B 1_555 1_555
N10B N9B 1_555 1_555
N16B_2 Mn3B_2 1_555 1_555
N18B_2 Mn3B_2 1_555 1_555
N19B Mn3B_2 1_555 1_555
N20B Mn3B_2 1_555 1_555
N13B N12B 1_555 1_555
H8B C8B 1_555 1_555
C9B C8B 1_555 1_555
C11B C12B 1_555 1_555
H11B C12B 1_555 1_555
H15B C15B 1_555 1_555
C16B C15B 1_555 1_555
C18B C19B 1_555 1_555
H18B C19B 1_555 1_555
H2B C3B 1_555 1_555
O1B C6B 1_555 1_555
O2B C6B 1_555 1_555
C22B N19B 1_555 1_555
C26B N19B 1_555 1_555
C29B N20B 1_555 1_555
C33B N20B 1_555 1_555
C10B C9B 1_555 1_555
C13B C9B 1_555 1_555
H10B C11B 1_555 1_555
C17B C16B 1_555 1_555
C20B C16B 1_555 1_555
H17B C18B 1_555 1_555
C7B O2B 1_555 1_555
H22B C22B 1_555 1_555
C23B C22B 1_555 1_555
C25B C26B 1_555 1_555
H25B C26B 1_555 1_555
H29B C29B 1_555 1_555
C30B C29B 1_555 1_555
C32B C33B 1_555 1_555
H31B C33B 1_555 1_555
H9B C10B 1_555 1_555
O3B C13B 1_555 1_555
O4B C13B 1_555 1_555
H16B C17B 1_555 1_555
O5B C20B 1_555 1_555
O6B C20B 1_555 1_555
H5B C7B 1_555 1_555
H6B C7B 1_555 1_555
H7B C7B 1_555 1_555
C24B C23B 1_555 1_555
C27B C23B 1_555 1_555
H24B C25B 1_555 1_555
C31B C30B 1_555 1_555
C34B C30B 1_555 1_555
H30B C32B 1_555 1_555
C14B O4B 1_555 1_555
C21B O6B 1_555 1_555
H23B C24B 1_555 1_555
O7B C27B 1_555 1_555
O8B C27B 1_555 1_555
O9B C34B 1_555 1_555
O10B C34B 1_555 1_555
H12B C14B 1_555 1_555
H13B C14B 1_555 1_555
H14B C14B 1_555 1_555
H19B C21B 1_555 1_555
H20B C21B 1_555 1_555
H21B C21B 1_555 1_555
C28B O8B 1_555 1_555
C35B O10B 1_555 1_555
H26B C28B 1_555 1_555
H27B C28B 1_555 1_555
H28B C28B 1_555 1_555
H32B C35B 1_555 1_555
H33B C35B 1_555 1_555
H34B C35B 1_555 1_555
C4 C5 1_555 1_555
Mn2 N4B 1_555 1_555
N11 Mn3 1_555 1_555
C11 C12 1_555 1_555
C18 C19 1_555 1_555
C25 C26 1_555 1_555
C32 C33 1_555 1_555
N1B Mn2B 1_555 1_555
N11B Mn3B_2 1_555 1_555
Mn3B N16B 1_555 1_555
C4B C3B 1_555 1_555
C11B C10B 1_555 1_555
C18B C17B 1_555 1_555
C25B C24B 1_555 1_555
C32B C31B 1_555 1_555

#END
