
#######################################################################
#
#                 Cambridge Crystallographic Data Centre
#                                CCDC 
#
#######################################################################
#
# If this CIF has been generated from an entry in the Cambridge 
# Structural Database, then it will include bibliographic, chemical, 
# crystal, experimental, refinement or atomic coordinate data resulting 
# from the CCDC's data processing and validation procedures.
#
#######################################################################

data_WISWOK
_symmetry_cell_setting           monoclinic
_symmetry_space_group_name_H-M   'P 21/n'
_symmetry_Int_Tables_number      14
_space_group_name_Hall           '-P 2yn'
loop_
_symmetry_equiv_pos_site_id
_symmetry_equiv_pos_as_xyz
1 x,y,z
2 1/2-x,1/2+y,1/2-z
3 -x,-y,-z
4 1/2+x,1/2-y,1/2+z
_cell_length_a                   11.201(3)
_cell_length_b                   14.499(4)
_cell_length_c                   14.308(4)
_cell_angle_alpha                90
_cell_angle_beta                 106.05(2)
_cell_angle_gamma                90
_cell_volume                     2233.09
loop_
_atom_site_label
_atom_site_type_symbol
_atom_site_fract_x
_atom_site_fract_y
_atom_site_fract_z
Mn1 Mn -0.01379(3) -0.00663(2) -0.38227(3)
Mn2 Mn 0.0000 0.0000 0.0000
N1 N 0.1282(2) -0.02299(14) -0.46667(14)
N2 N 0.2364(2) -0.01037(14) -0.4317(2)
N3 N 0.3408(2) 0.0014(2) -0.3969(2)
N4 N -0.1630(2) 0.0054(2) -0.3073(2)
N5 N -0.1493(2) 0.01750(13) -0.2242(2)
N6 N -0.1405(2) 0.0298(2) -0.1424(2)
N7 N 0.1321(2) -0.0414(2) -0.2450(2)
N8 N 0.1353(2) -0.02878(13) -0.1638(2)
N9 N 0.1424(2) -0.0170(2) -0.0817(2)
N10 N 0.0332(2) 0.14587(14) -0.3452(2)
C1 C -0.0516(3) 0.2080(2) -0.3381(2)
H1 H -0.1335(3) 0.1884(2) -0.3504(2)
C2 C -0.0256(3) 0.2997(2) -0.3135(2)
C3 C 0.0962(3) 0.3275(2) -0.2977(2)
H2 H 0.1185(3) 0.3886(2) -0.2822(2)
C4 C 0.1839(3) 0.2643(2) -0.3049(2)
H3 H 0.2664(3) 0.2821(2) -0.2943(2)
C5 C 0.1494(3) 0.1750(2) -0.3279(2)
H4 H 0.2103(3) 0.1326(2) -0.3316(2)
C6 C -0.1248(3) 0.3649(3) -0.3035(4)
H5 H -0.1543(17) 0.3467(10) -0.2493(11)
H6 H -0.1925(11) 0.3637(13) -0.3619(8)
H7 H -0.0914(7) 0.4263(4) -0.2930(19)
N11 N -0.0646(2) -0.15744(14) -0.4087(2)
C7 C 0.0204(2) -0.2211(2) -0.4118(2)
H8 H 0.1024(2) -0.2018(2) -0.3996(2)
C8 C -0.0044(3) -0.3135(2) -0.4315(2)
C9 C -0.1268(3) -0.3400(2) -0.4513(2)
H9 H -0.1488(3) -0.4013(2) -0.4656(2)
C10 C -0.2163(3) -0.2760(2) -0.4498(2)
H10 H -0.2993(3) -0.2934(2) -0.4637(2)
C11 C -0.1823(3) -0.1856(2) -0.4274(2)
H11 H -0.2433(3) -0.1428(2) -0.4254(2)
C12 C 0.0976(3) -0.3802(2) -0.4286(3)
H12 H 0.1099(15) -0.4188(11) -0.3723(10)
H13 H 0.1728(6) -0.3471(2) -0.4256(18)
H14 H 0.0759(10) -0.4177(11) -0.4862(9)
N12 N 0.0446(2) 0.15154(15) 0.0170(2)
C13 C 0.0454(2) 0.1975(2) 0.0979(2)
H15 H 0.0321(2) 0.1639(2) 0.1495(2)
C14 C 0.0645(2) 0.2911(2) 0.1106(2)
C15 C 0.0837(3) 0.3396(2) 0.0340(2)
H16 H 0.0963(3) 0.4031(2) 0.0386(2)
C16 C 0.0840(4) 0.2937(2) -0.0498(2)
H17 H 0.0975(4) 0.3257(2) -0.1022(2)
C17 C 0.0645(3) 0.2005(2) -0.0558(2)
H18 H 0.0653(3) 0.1702(2) -0.1130(2)
C18 C 0.0648(3) 0.3371(2) 0.2041(2)
H19 H -0.0005(12) 0.3821(10) 0.1923(3)
H20 H 0.1434(7) 0.3669(12) 0.2309(7)
H21 H 0.0517(18) 0.2918(3) 0.2492(5)
N6B N 0.1405(2) -0.0298(2) 0.1424(2)
N5B N 0.1493(2) -0.01750(13) 0.2242(2)
N4B N 0.1630(2) -0.0054(2) 0.3073(2)
N9B N -0.1424(2) 0.0170(2) 0.0817(2)
N8B N -0.1353(2) 0.02878(13) 0.1638(2)
N7B N -0.1321(2) 0.0414(2) 0.2450(2)
N12B N -0.0446(2) -0.15154(15) -0.0170(2)
C13B C -0.0454(2) -0.1975(2) -0.0979(2)
H15B H -0.0321(2) -0.1639(2) -0.1495(2)
C14B C -0.0645(2) -0.2911(2) -0.1106(2)
C15B C -0.0837(3) -0.3396(2) -0.0340(2)
H16B H -0.0963(3) -0.4031(2) -0.0386(2)
C16B C -0.0840(4) -0.2937(2) 0.0498(2)
H17B H -0.0975(4) -0.3257(2) 0.1022(2)
C17B C -0.0645(3) -0.2005(2) 0.0558(2)
H18B H -0.0653(3) -0.1702(2) 0.1130(2)
C18B C -0.0648(3) -0.3371(2) -0.2041(2)
H19B H 0.0005(12) -0.3821(10) -0.1923(3)
H20B H -0.1434(7) -0.3669(12) -0.2309(7)
H21B H -0.0517(18) -0.2918(3) -0.2492(5)
N1B N -0.1282(2) 0.02299(14) -0.53333(14)
N2B N -0.2364(2) 0.01037(14) -0.5683(2)
N3B N -0.3408(2) -0.0014(2) -0.6031(2)
Mn1B Mn 0.01379(3) 0.00663(2) -0.61773(3)
Mn1B_2 Mn 0.01379(3) 0.00663(2) 0.38227(3)
N4B_2 N 0.1630(2) -0.0054(2) -0.6927(2)
N7B_2 N -0.1321(2) 0.0414(2) -0.7550(2)
N10B N -0.0332(2) -0.14587(14) -0.6548(2)
C1B C 0.0516(3) -0.2080(2) -0.6619(2)
H1B H 0.1335(3) -0.1884(2) -0.6496(2)
C2B C 0.0256(3) -0.2997(2) -0.6865(2)
C3B C -0.0962(3) -0.3275(2) -0.7023(2)
H2B H -0.1185(3) -0.3886(2) -0.7178(2)
C4B C -0.1839(3) -0.2643(2) -0.6951(2)
H3B H -0.2664(3) -0.2821(2) -0.7057(2)
C5B C -0.1494(3) -0.1750(2) -0.6721(2)
H4B H -0.2103(3) -0.1326(2) -0.6684(2)
C6B C 0.1248(3) -0.3649(3) -0.6965(4)
H5B H 0.1543(17) -0.3467(10) -0.7507(11)
H6B H 0.1925(11) -0.3637(13) -0.6381(8)
H7B H 0.0914(7) -0.4263(4) -0.7070(19)
N11B N 0.0646(2) 0.15744(14) -0.5913(2)
C7B C -0.0204(2) 0.2211(2) -0.5882(2)
H8B H -0.1024(2) 0.2018(2) -0.6004(2)
C8B C 0.0044(3) 0.3135(2) -0.5685(2)
C9B C 0.1268(3) 0.3400(2) -0.5487(2)
H9B H 0.1488(3) 0.4013(2) -0.5344(2)
C10B C 0.2163(3) 0.2760(2) -0.5502(2)
H10B H 0.2993(3) 0.2934(2) -0.5363(2)
C11B C 0.1823(3) 0.1856(2) -0.5726(2)
H11B H 0.2433(3) 0.1428(2) -0.5746(2)
C12B C -0.0976(3) 0.3802(2) -0.5714(3)
H12B H -0.1099(15) 0.4188(11) -0.6277(10)
H13B H -0.1728(6) 0.3471(2) -0.5744(18)
H14B H -0.0759(10) 0.4177(11) -0.5138(9)
loop_
_geom_bond_atom_site_label_1
_geom_bond_atom_site_label_2
_geom_bond_site_symmetry_1
_geom_bond_site_symmetry_2
Mn1 N1 1_555 1_555
Mn2 N6 1_555 1_555
N1 N2 1_555 1_555
N2 N3 1_555 1_555
N4 Mn1 1_555 1_555
N5 N4 1_555 1_555
N6 N5 1_555 1_555
N7 Mn1 1_555 1_555
N8 N7 1_555 1_555
N9 Mn2 1_555 1_555
N10 Mn1 1_555 1_555
C1 N10 1_555 1_555
H1 C1 1_555 1_555
C2 C1 1_555 1_555
C3 C2 1_555 1_555
H2 C3 1_555 1_555
C4 C3 1_555 1_555
H3 C4 1_555 1_555
C5 N10 1_555 1_555
H4 C5 1_555 1_555
C6 C2 1_555 1_555
H5 C6 1_555 1_555
H6 C6 1_555 1_555
H7 C6 1_555 1_555
N11 Mn1 1_555 1_555
C7 N11 1_555 1_555
H8 C7 1_555 1_555
C8 C7 1_555 1_555
C9 C8 1_555 1_555
H9 C9 1_555 1_555
C10 C9 1_555 1_555
H10 C10 1_555 1_555
C11 N11 1_555 1_555
H11 C11 1_555 1_555
C12 C8 1_555 1_555
H12 C12 1_555 1_555
H13 C12 1_555 1_555
H14 C12 1_555 1_555
N12 Mn2 1_555 1_555
C13 N12 1_555 1_555
H15 C13 1_555 1_555
C14 C13 1_555 1_555
C15 C14 1_555 1_555
H16 C15 1_555 1_555
C16 C15 1_555 1_555
H17 C16 1_555 1_555
C17 N12 1_555 1_555
H18 C17 1_555 1_555
C18 C14 1_555 1_555
H19 C18 1_555 1_555
H20 C18 1_555 1_555
H21 C18 1_555 1_555
N6B Mn2 1_555 1_555
N5B N6B 1_555 1_555
N4B N5B 1_555 1_555
N9B Mn2 1_555 1_555
N8B N9B 1_555 1_555
N7B N8B 1_555 1_555
N12B Mn2 1_555 1_555
C13B N12B 1_555 1_555
H15B C13B 1_555 1_555
C14B C13B 1_555 1_555
C15B C14B 1_555 1_555
H16B C15B 1_555 1_555
C16B C15B 1_555 1_555
H17B C16B 1_555 1_555
C17B N12B 1_555 1_555
H18B C17B 1_555 1_555
C18B C14B 1_555 1_555
H19B C18B 1_555 1_555
H20B C18B 1_555 1_555
H21B C18B 1_555 1_555
N1B Mn1 1_555 1_555
N2B N1B 1_555 1_555
N3B N2B 1_555 1_555
Mn1B N1 1_555 1_555
Mn1B_2 N4B 1_555 1_555
N4B_2 Mn1B 1_555 1_555
N7B_2 Mn1B 1_555 1_555
N10B Mn1B 1_555 1_555
C1B N10B 1_555 1_555
H1B C1B 1_555 1_555
C2B C1B 1_555 1_555
C3B C2B 1_555 1_555
H2B C3B 1_555 1_555
C4B C3B 1_555 1_555
H3B C4B 1_555 1_555
C5B N10B 1_555 1_555
H4B C5B 1_555 1_555
C6B C2B 1_555 1_555
H5B C6B 1_555 1_555
H6B C6B 1_555 1_555
H7B C6B 1_555 1_555
N11B Mn1B 1_555 1_555
C7B N11B 1_555 1_555
H8B C7B 1_555 1_555
C8B C7B 1_555 1_555
C9B C8B 1_555 1_555
H9B C9B 1_555 1_555
C10B C9B 1_555 1_555
H10B C10B 1_555 1_555
C11B N11B 1_555 1_555
H11B C11B 1_555 1_555
C12B C8B 1_555 1_555
H12B C12B 1_555 1_555
H13B C12B 1_555 1_555
H14B C12B 1_555 1_555
N8 N9 1_555 1_555
C4 C5 1_555 1_555
C10 C11 1_555 1_555
C16 C17 1_555 1_555
N7B Mn1B_2 1_555 1_555
C16B C17B 1_555 1_555
N1B Mn1B 1_555 1_555
C4B C5B 1_555 1_555
C10B C11B 1_555 1_555

#END
