
#######################################################################
#
#                 Cambridge Crystallographic Data Centre
#                                CCDC 
#
#######################################################################
#
# If this CIF has been generated from an entry in the Cambridge 
# Structural Database, then it will include bibliographic, chemical, 
# crystal, experimental, refinement or atomic coordinate data resulting 
# from the CCDC's data processing and validation procedures.
#
#######################################################################

data_WISZOP
_symmetry_cell_setting           rhombohedral
_symmetry_space_group_name_H-M   'R -3'
_symmetry_Int_Tables_number      148
_space_group_name_Hall           '-R 3'
loop_
_symmetry_equiv_pos_site_id
_symmetry_equiv_pos_as_xyz
1 x,y,z
2 -y,x-y,z
3 -x+y,-x,z
4 2/3+x,1/3+y,1/3+z
5 2/3-y,1/3+x-y,1/3+z
6 2/3-x+y,1/3-x,1/3+z
7 1/3+x,2/3+y,2/3+z
8 1/3-y,2/3+x-y,2/3+z
9 1/3-x+y,2/3-x,2/3+z
10 -x,-y,-z
11 y,-x+y,-z
12 x-y,x,-z
13 1/3-x,2/3-y,2/3-z
14 1/3+y,2/3-x+y,2/3-z
15 1/3+x-y,2/3+x,2/3-z
16 2/3-x,1/3-y,1/3-z
17 2/3+y,1/3-x+y,1/3-z
18 2/3+x-y,1/3+x,1/3-z
_cell_length_a                   19.123(3)
_cell_length_b                   19.123(3)
_cell_length_c                   12.976(5)
_cell_angle_alpha                90
_cell_angle_beta                 90
_cell_angle_gamma                120
_cell_volume                     4109.45
loop_
_atom_site_label
_atom_site_type_symbol
_atom_site_fract_x
_atom_site_fract_y
_atom_site_fract_z
Zn1 Zn -0.31876(2) -0.11931(2) 0.20737(3)
O1 O -0.22021(14) -0.11487(16) 0.1612(2)
O2 O -0.18438(18) 0.01382(19) 0.1478(3)
N1 N -0.38966(16) -0.09143(15) 0.1263(2)
C1 C -0.0197(2) 0.0608(2) 0.1434(3)
C2 C -0.08096(18) -0.0201(2) 0.1440(3)
C3 C -0.1671(2) -0.0404(2) 0.1503(3)
C4 C -0.3173(2) -0.0578(3) -0.0425(3)
H1 H -0.3208 -0.0345 -0.1065
H2 H -0.3265 -0.1113 -0.0546
H3 H -0.2646 -0.0250 -0.0132
C5 C -0.37946(19) -0.06180(19) 0.0302(2)
C6 C -0.45240(19) -0.0848(2) 0.1646(2)
C7 C -0.4862(3) -0.1103(3) 0.2703(3)
H4 H -0.5299 -0.0998 0.2800
H5 H -0.4447 -0.0804 0.3202
H6 H -0.5057 -0.1669 0.2787
H7 H -0.031(2) 0.096(2) 0.150(3)
N2 N -0.43123(16) -0.03742(17) 0.0100(2)
N3 N -0.47802(15) -0.05172(16) 0.0967(2)
O1A O 0.11487(16) -0.10534(21) 0.1612(2)
O2A O -0.01382(19) -0.19820(26) 0.1478(3)
C1A C -0.0608(2) -0.0805(3) 0.1434(3)
C2A C 0.0201(2) -0.06086(27) 0.1440(3)
C3A C 0.0404(2) -0.1267(3) 0.1503(3)
H7A H -0.096(2) -0.127(3) 0.150(3)
O1B O 0.10534(21) 0.22021(14) 0.1612(2)
O2B O 0.19820(26) 0.18438(18) 0.1478(3)
C1B C 0.0805(3) 0.0197(2) 0.1434(3)
C2B C 0.06086(27) 0.08096(18) 0.1440(3)
C3B C 0.1267(3) 0.1671(2) 0.1503(3)
H7B H 0.127(3) 0.031(2) 0.150(3)
Zn1A Zn 0.11931(2) -0.19945(3) 0.20737(3)
N1A N 0.09143(15) -0.29823(22) 0.1263(2)
C4A C 0.0578(3) -0.2595(4) -0.0425(3)
H1A H 0.0345 -0.2863 -0.1065
H2A H 0.1113 -0.2152 -0.0546
H3A H 0.0250 -0.2396 -0.0132
C5A C 0.06180(19) -0.31766(27) 0.0302(2)
C6A C 0.0848(2) -0.36760(28) 0.1646(2)
C7A C 0.1103(3) -0.3759(4) 0.2703(3)
H4A H 0.0998 -0.4301 0.2800
H5A H 0.0804 -0.3643 0.3202
H6A H 0.1669 -0.3388 0.2787
N2A N 0.03742(17) -0.39381(23) 0.0100(2)
N3A N 0.05172(16) -0.42630(22) 0.0967(2)
Zn1B Zn 0.19945(3) 0.31876(2) 0.20737(3)
N1B N 0.29823(22) 0.38966(16) 0.1263(2)
C4B C 0.2595(4) 0.3173(2) -0.0425(3)
H1B H 0.2863 0.3208 -0.1065
H2B H 0.2152 0.3265 -0.0546
H3B H 0.2396 0.2646 -0.0132
C5B C 0.31766(27) 0.37946(19) 0.0302(2)
C6B C 0.36760(28) 0.45240(19) 0.1646(2)
C7B C 0.3759(4) 0.4862(3) 0.2703(3)
H4B H 0.4301 0.5299 0.2800
H5B H 0.3643 0.4447 0.3202
H6B H 0.3388 0.5057 0.2787
N2B N 0.39381(23) 0.43123(16) 0.0100(2)
N3B N 0.42630(22) 0.47802(15) 0.0967(2)
Zn1F Zn 0.01457(2) -0.45264(2) -0.12596(3)
Zn1G Zn 0.45264(2) 0.46722(3) -0.12596(3)
Zn1H Zn -0.46722(3) -0.01457(2) -0.12596(3)
Zn1O Zn -0.01457(2) -0.54736(2) 0.12596(3)
Zn1P Zn 0.54736(2) 0.53278(3) 0.12596(3)
Zn1Q Zn -0.53278(3) 0.01457(2) 0.12596(3)
N2C N 0.23544(16) 0.29591(17) 0.3433(2)
N2D N -0.29591(17) -0.06048(23) 0.3433(2)
N2E N 0.06048(23) -0.23544(16) 0.3433(2)
N3O N 0.14469(15) 0.38505(16) 0.2366(2)
N3P N -0.38505(16) -0.24037(22) 0.2366(2)
N3Q N 0.24037(22) -0.14469(15) 0.2366(2)
loop_
_geom_bond_atom_site_label_1
_geom_bond_atom_site_label_2
_geom_bond_site_symmetry_1
_geom_bond_site_symmetry_2
Zn1 O1 1_555 1_555
O1 C3 1_555 1_555
O2 C3 1_555 1_555
N1 Zn1 1_555 1_555
C1 C2 1_555 1_555
C2 C3 1_555 1_555
C4 H1 1_555 1_555
H2 C4 1_555 1_555
H3 C4 1_555 1_555
C5 N1 1_555 1_555
C6 N1 1_555 1_555
C7 C6 1_555 1_555
H4 C7 1_555 1_555
H5 C7 1_555 1_555
H6 C7 1_555 1_555
H7 C1 1_555 1_555
N2 C5 1_555 1_555
N3 C6 1_555 1_555
O1A C3A 1_555 1_555
O2A C3A 1_555 1_555
C1A C2 1_555 1_555
C2A C1A 1_555 1_555
C3A C2A 1_555 1_555
H7A C1A 1_555 1_555
O1B C3B 1_555 1_555
O2B C3B 1_555 1_555
C1B C2A 1_555 1_555
C2B C1 1_555 1_555
C3B C2B 1_555 1_555
H7B C1B 1_555 1_555
Zn1A O1A 1_555 1_555
N1A Zn1A 1_555 1_555
C4A H1A 1_555 1_555
H2A C4A 1_555 1_555
H3A C4A 1_555 1_555
C5A N1A 1_555 1_555
C6A N1A 1_555 1_555
C7A C6A 1_555 1_555
H4A C7A 1_555 1_555
H5A C7A 1_555 1_555
H6A C7A 1_555 1_555
N2A C5A 1_555 1_555
N3A C6A 1_555 1_555
Zn1B O1B 1_555 1_555
N1B Zn1B 1_555 1_555
C4B H1B 1_555 1_555
H2B C4B 1_555 1_555
H3B C4B 1_555 1_555
C5B N1B 1_555 1_555
C6B N1B 1_555 1_555
C7B C6B 1_555 1_555
H4B C7B 1_555 1_555
H5B C7B 1_555 1_555
H6B C7B 1_555 1_555
N2B C5B 1_555 1_555
N3B C6B 1_555 1_555
Zn1F N2A 1_555 1_555
Zn1G N2B 1_555 1_555
Zn1H N2 1_555 1_555
Zn1O N3A 1_555 1_555
Zn1P N3B 1_555 1_555
Zn1Q N3 1_555 1_555
N2C Zn1B 1_555 1_555
N2D Zn1 1_555 1_555
N2E Zn1A 1_555 1_555
N3O Zn1B 1_555 1_555
N3P Zn1 1_555 1_555
N3Q Zn1A 1_555 1_555
C4 C5 1_555 1_555
N2 N3 1_555 1_555
C1B C2B 1_555 1_555
C4A C5A 1_555 1_555
N2A N3A 1_555 1_555
C4B C5B 1_555 1_555
N2B N3B 1_555 1_555

#END
