
#######################################################################
#
#                 Cambridge Crystallographic Data Centre
#                                CCDC 
#
#######################################################################
#
# If this CIF has been generated from an entry in the Cambridge 
# Structural Database, then it will include bibliographic, chemical, 
# crystal, experimental, refinement or atomic coordinate data resulting 
# from the CCDC's data processing and validation procedures.
#
#######################################################################

data_WISZON
_symmetry_cell_setting           trigonal
_symmetry_space_group_name_H-M   'P 31'
_symmetry_Int_Tables_number      144
_space_group_name_Hall           'P 31'
loop_
_symmetry_equiv_pos_site_id
_symmetry_equiv_pos_as_xyz
1 x,y,z
2 -y,x-y,1/3+z
3 -x+y,-x,2/3+z
_cell_length_a                   12.317(2)
_cell_length_b                   12.317(2)
_cell_length_c                   6.8200(10)
_cell_angle_alpha                90
_cell_angle_beta                 90
_cell_angle_gamma                120
_cell_volume                     896.035
loop_
_atom_site_label
_atom_site_type_symbol
_atom_site_fract_x
_atom_site_fract_y
_atom_site_fract_z
Zn1 Zn 0.34730(3) 0.81525(3) 0.09651(2)
O1 O 0.4082(2) 0.7761(2) -0.1781(3)
C1 C 0.4722(3) 0.8743(3) -0.2827(4)
O2 O 0.5448(2) 0.8790(3) -0.4124(4)
C2 C 0.4595(4) 0.9880(4) -0.2430(6)
H1 H 0.4160 1.0000 -0.3539
C3 C 0.5892(7) 1.1054(5) -0.2218(14)
H2 H 0.5808 1.1788 -0.2258
H3 H 0.6422 1.1085 -0.3273
H4 H 0.6257 1.1025 -0.0990
N1 N 0.3844(3) 0.9677(3) -0.0643(4)
C4 C 0.3462(3) 1.0443(3) -0.0231(5)
H5 H 0.3615 1.1057 -0.1159
C5 C 0.2817(3) 1.0451(3) 0.1535(5)
C6 C 0.2534(3) 0.9619(3) 0.3119(5)
O3 O 0.2794(3) 0.8703(2) 0.3159(4)
C7 C 0.1923(4) 0.9776(4) 0.4773(6)
H6 H 0.1722 0.9240 0.5840
C8 C 0.1627(4) 1.0709(4) 0.4812(8)
H7 H 0.1239 1.0802 0.5917
C9 C 0.1892(5) 1.1515(4) 0.3245(10)
H8 H 0.1669 1.2133 0.3279
C10 C 0.2484(4) 1.1391(4) 0.1656(8)
H9 H 0.2677 1.1943 0.0613
O4 O 0.5140(3) 0.8485(3) 0.1986(4)
H10 H 0.539(4) 0.809(4) 0.135(5)
H11 H 0.527(4) 0.851(4) 0.316(3)
Zn1B Zn 0.46795(4) 0.65270(3) -0.23682(2)
O1A O 0.2239(2) 0.6321(3) 0.1552(3)
loop_
_geom_bond_atom_site_label_1
_geom_bond_atom_site_label_2
_geom_bond_site_symmetry_1
_geom_bond_site_symmetry_2
Zn1 O1 1_555 1_555
O1 C1 1_555 1_555
C1 O2 1_555 1_555
C2 C1 1_555 1_555
H1 C2 1_555 1_555
C3 C2 1_555 1_555
H2 C3 1_555 1_555
H3 C3 1_555 1_555
H4 C3 1_555 1_555
N1 Zn1 1_555 1_555
C4 N1 1_555 1_555
H5 C4 1_555 1_555
C5 C4 1_555 1_555
C6 C5 1_555 1_555
O3 Zn1 1_555 1_555
C7 C6 1_555 1_555
H6 C7 1_555 1_555
C8 C7 1_555 1_555
H7 C8 1_555 1_555
C9 C8 1_555 1_555
H8 C9 1_555 1_555
C10 C5 1_555 1_555
H9 C10 1_555 1_555
O4 Zn1 1_555 1_555
H10 O4 1_555 1_555
H11 O4 1_555 1_555
Zn1B O1 1_555 1_555
O1A Zn1 1_555 1_555
C2 N1 1_555 1_555
C6 O3 1_555 1_555
C9 C10 1_555 1_555

#END
