
#######################################################################
#
#                 Cambridge Crystallographic Data Centre
#                                CCDC 
#
#######################################################################
#
# If this CIF has been generated from an entry in the Cambridge 
# Structural Database, then it will include bibliographic, chemical, 
# crystal, experimental, refinement or atomic coordinate data resulting 
# from the CCDC's data processing and validation procedures.
#
#######################################################################

data_WISZUT
_symmetry_cell_setting           trigonal
_symmetry_space_group_name_H-M   'P 31'
_symmetry_Int_Tables_number      144
_space_group_name_Hall           'P 31'
loop_
_symmetry_equiv_pos_site_id
_symmetry_equiv_pos_as_xyz
1 x,y,z
2 -y,x-y,1/3+z
3 -x+y,-x,2/3+z
_cell_length_a                   12.815(3)
_cell_length_b                   12.815(3)
_cell_length_c                   6.8020(10)
_cell_angle_alpha                90
_cell_angle_beta                 90
_cell_angle_gamma                120
_cell_volume                     967.396
loop_
_atom_site_label
_atom_site_type_symbol
_atom_site_fract_x
_atom_site_fract_y
_atom_site_fract_z
Zn1 Zn 0.68315(8) 0.20462(9) -0.00037(14)
O1 O 0.7418(5) 0.3035(5) 0.2720(8)
O2 O 0.8763(6) 0.3429(6) 0.5043(8)
O3 O 0.6198(6) 0.0826(6) -0.2160(8)
O4 O 0.8370(6) 0.3386(6) -0.1088(7)
H1 H 0.886(8) 0.411(5) -0.043(12)
H2 H 0.831(8) 0.361(8) -0.242(7)
N1 N 0.7175(7) 0.0961(6) 0.1685(10)
C1 C 0.8056(8) 0.2734(7) 0.3795(10)
C2 C 0.7882(8) 0.1484(8) 0.3488(11)
H3 H 0.7406 0.0982 0.4595
C3 C 0.9086(11) 0.1479(14) 0.3461(17)
H4 H 0.8859 0.0670 0.2993
C4 C 0.6689(8) -0.0192(8) 0.1390(13)
H5 H 0.6760 -0.0645 0.2394
C5 C 0.6054(7) -0.0826(7) -0.0336(13)
C6 C 0.5830(8) -0.0324(8) -0.1991(13)
C7 C 0.5206(9) -0.1093(9) -0.3581(15)
H6 H 0.5044 -0.0773 -0.4689
C8 C 0.4830(9) -0.2304(10) -0.3541(17)
H7 H 0.4442 -0.2781 -0.4629
C9 C 0.5023(11) -0.2811(10) -0.191(2)
H8 H 0.4747 -0.3634 -0.1862
C10 C 0.5648(10) -0.2064(9) -0.0314(18)
H9 H 0.5795 -0.2400 0.0789
C11 C 0.9583(12) 0.1536(16) 0.539(2)
H10 H 0.9989 0.2355 0.5850
H11 H 1.0145 0.1249 0.5327
H12 H 0.8944 0.1042 0.6287
C12 C 0.9920(11) 0.2296(13) 0.190(2)
H13 H 0.9456 0.2316 0.0803
H14 H 1.0438 0.2000 0.1463
H15 H 1.0400 0.3094 0.2418
Zn1A Zn 0.79538(9) 0.47853(12) 0.33296(14)
O1B O 0.5617(7) 0.2582(5) -0.0613(8)
loop_
_geom_bond_atom_site_label_1
_geom_bond_atom_site_label_2
_geom_bond_site_symmetry_1
_geom_bond_site_symmetry_2
Zn1 O1 1_555 1_555
O1 C1 1_555 1_555
O2 C1 1_555 1_555
O3 Zn1 1_555 1_555
O4 Zn1 1_555 1_555
H1 O4 1_555 1_555
H2 O4 1_555 1_555
N1 Zn1 1_555 1_555
C1 C2 1_555 1_555
C2 N1 1_555 1_555
H3 C2 1_555 1_555
C3 C2 1_555 1_555
H4 C3 1_555 1_555
C4 N1 1_555 1_555
H5 C4 1_555 1_555
C5 C4 1_555 1_555
C6 O3 1_555 1_555
C7 C6 1_555 1_555
H6 C7 1_555 1_555
C8 C7 1_555 1_555
H7 C8 1_555 1_555
C9 C8 1_555 1_555
H8 C9 1_555 1_555
C10 C5 1_555 1_555
H9 C10 1_555 1_555
C11 C3 1_555 1_555
H10 C11 1_555 1_555
H11 C11 1_555 1_555
H12 C11 1_555 1_555
C12 C3 1_555 1_555
H13 C12 1_555 1_555
H14 C12 1_555 1_555
H15 C12 1_555 1_555
Zn1A O1 1_555 1_555
O1B Zn1 1_555 1_555
C5 C6 1_555 1_555
C9 C10 1_555 1_555

#END
