
#######################################################################
#
#                 Cambridge Crystallographic Data Centre
#                                CCDC 
#
#######################################################################
#
# If this CIF has been generated from an entry in the Cambridge 
# Structural Database, then it will include bibliographic, chemical, 
# crystal, experimental, refinement or atomic coordinate data resulting 
# from the CCDC's data processing and validation procedures.
#
#######################################################################

data_WISZIJ
_symmetry_cell_setting           monoclinic
_symmetry_space_group_name_H-M   'C 2/c'
_symmetry_Int_Tables_number      15
_space_group_name_Hall           '-C 2yn'
loop_
_symmetry_equiv_pos_site_id
_symmetry_equiv_pos_as_xyz
1 x,y,z
2 -x,y,1/2-z
3 1/2+x,1/2+y,z
4 1/2-x,1/2+y,1/2-z
5 -x,-y,-z
6 x,-y,1/2+z
7 1/2-x,1/2-y,-z
8 1/2+x,1/2-y,1/2+z
_cell_length_a                   16.466(3)
_cell_length_b                   7.4696(15)
_cell_length_c                   20.854(4)
_cell_angle_alpha                90
_cell_angle_beta                 103.79(3)
_cell_angle_gamma                90
_cell_volume                     2490.99
loop_
_atom_site_label
_atom_site_type_symbol
_atom_site_fract_x
_atom_site_fract_y
_atom_site_fract_z
Zn1 Zn 0.06800(6) 0.76936(12) 0.32878(5)
O1 O 0.0789(4) 0.9687(8) 0.4026(3)
O2 O 0.1829(4) 0.9668(9) 0.3541(3)
O3 O 0.0954(5) 1.3429(9) 0.3455(4)
O4 O 0.1295(4) 1.5996(8) 0.3988(3)
N1 N 0.1072(4) 0.6783(10) 0.2474(3)
N2 N 0.0545(4) 0.6848(10) 0.1841(4)
N3 N 0.1757(5) 0.5889(11) 0.1769(4)
H1 H 0.2169 0.5601 0.1651
C1 C 0.1986(5) 1.1485(11) 0.4500(4)
C2 C 0.1941(5) 1.3355(11) 0.4476(4)
C3 C 0.2455(5) 1.4340(12) 0.4981(4)
C4 C 0.1490(5) 1.0247(11) 0.3977(4)
C5 C 0.1341(5) 1.4318(11) 0.3921(4)
C6 C 0.2536(6) 0.5833(17) 0.2955(6)
H2 H 0.2415 0.6139 0.3369
H3 H 0.2995 0.6546 0.2890
H4 H 0.2682 0.4588 0.2956
C7 C 0.1798(5) 0.6177(12) 0.2418(5)
C8 C 0.0666(8) 0.614(2) 0.0702(5)
H5 H 0.0092 0.6517 0.0578
H6 H 0.0706 0.4915 0.0572
H7 H 0.0996 0.6881 0.0487
O5 O 0.0000 0.9689(12) 0.2500
H8 H 0.0277 1.0576 0.2305
H9 H 0.246(6) 1.553(16) 0.493(5)
C9 C 0.0983(6) 0.6294(13) 0.1437(5)
O1F O 0.4211(4) 1.5313(8) 0.5974(3)
O2F O 0.3171(4) 1.5332(9) 0.6459(3)
O3F O 0.4046(5) 1.1571(9) 0.6545(4)
O4F O 0.3705(4) 0.9004(8) 0.6012(3)
C1F C 0.3014(5) 1.3515(11) 0.5500(4)
C2F C 0.3059(5) 1.1645(11) 0.5524(4)
C3F C 0.2545(5) 1.0660(12) 0.5019(4)
C4F C 0.3510(5) 1.4753(11) 0.6023(4)
C5F C 0.3659(5) 1.0682(11) 0.6079(4)
H9F H 0.254(6) 0.947(16) 0.507(5)
H8A H -0.0277 1.0576 0.2695
Zn1A Zn -0.06800(6) 0.76936(12) 0.17122(5)
N1A N -0.1072(4) 0.6783(10) 0.2526(3)
N2A N -0.0545(4) 0.6848(10) 0.3159(4)
N3A N -0.1757(5) 0.5889(11) 0.3231(4)
H1A H -0.2169 0.5601 0.3349
C6A C -0.2536(6) 0.5833(17) 0.2045(6)
H2A H -0.2415 0.6139 0.1631
H3A H -0.2995 0.6546 0.2110
H4A H -0.2682 0.4588 0.2044
C7A C -0.1798(5) 0.6177(12) 0.2582(5)
C8A C -0.0666(8) 0.614(2) 0.4298(5)
H5A H -0.0092 0.6517 0.4422
H6A H -0.0706 0.4915 0.4428
H7A H -0.0996 0.6881 0.4513
C9A C -0.0983(6) 0.6294(13) 0.3563(5)
Zn1_2 Zn 0.06800(6) 1.76936(12) 0.32878(5)
Zn1F Zn 0.43200(6) 0.73064(12) 0.67122(5)
Zn1F_2 Zn 0.43200(6) 1.73064(12) 0.67122(5)
O1A O -0.0789(4) 0.9687(8) 0.0974(3)
O2A O -0.1829(4) 0.9668(9) 0.1459(3)
O4_2 O 0.1295(4) 0.5996(8) 0.3988(3)
O4A O -0.1295(4) 0.5996(8) 0.1012(3)
O6 O -0.0680(7) 1.2491(16) 0.2963(11)
H10 H -0.0637 1.1922 0.3429
H11 H -0.0034 1.2696 0.3198
loop_
_geom_bond_atom_site_label_1
_geom_bond_atom_site_label_2
_geom_bond_site_symmetry_1
_geom_bond_site_symmetry_2
Zn1 O1 1_555 1_555
O1 C4 1_555 1_555
O2 Zn1 1_555 1_555
O3 C5 1_555 1_555
O4 C5 1_555 1_555
N1 Zn1 1_555 1_555
N2 N1 1_555 1_555
N3 H1 1_555 1_555
C1 C2 1_555 1_555
C2 C3 1_555 1_555
C3 H9 1_555 1_555
C4 O2 1_555 1_555
C5 C2 1_555 1_555
C6 H2 1_555 1_555
H3 C6 1_555 1_555
H4 C6 1_555 1_555
C7 N1 1_555 1_555
C8 H5 1_555 1_555
H6 C8 1_555 1_555
H7 C8 1_555 1_555
O5 Zn1 1_555 1_555
H8 O5 1_555 1_555
C9 N2 1_555 1_555
O6 H10 1_555 1_555
H11 O6 1_555 1_555
O1F C4F 1_555 1_555
O2F C4F 1_555 1_555
O3F C5F 1_555 1_555
O4F C5F 1_555 1_555
C1F C3 1_555 1_555
C2F C1F 1_555 1_555
C3F C1 1_555 1_555
C4F C1F 1_555 1_555
C5F C2F 1_555 1_555
H9F C3F 1_555 1_555
H8A O5 1_555 1_555
Zn1A N2 1_555 1_555
N1A Zn1A 1_555 1_555
N2A Zn1 1_555 1_555
N3A H1A 1_555 1_555
C6A H2A 1_555 1_555
H3A C6A 1_555 1_555
H4A C6A 1_555 1_555
C7A N1A 1_555 1_555
C8A H5A 1_555 1_555
H6A C8A 1_555 1_555
H7A C8A 1_555 1_555
C9A N2A 1_555 1_555
Zn1_2 O4 1_555 1_555
Zn1F O4F 1_555 1_555
Zn1F_2 O1F 1_555 1_555
O1A Zn1A 1_555 1_555
O2A Zn1A 1_555 1_555
O4_2 Zn1 1_555 1_555
O4A Zn1A 1_555 1_555
N3 C7 1_555 1_555
N3 C9 1_555 1_555
C1 C4 1_555 1_555
C6 C7 1_555 1_555
C8 C9 1_555 1_555
O5 Zn1A 1_555 1_555
O2F Zn1F_2 1_555 1_555
C2F C3F 1_555 1_555
N1A N2A 1_555 1_555
N3A C7A 1_555 1_555
N3A C9A 1_555 1_555
C6A C7A 1_555 1_555
C8A C9A 1_555 1_555

#END
