
#######################################################################
#
#                 Cambridge Crystallographic Data Centre
#                                CCDC 
#
#######################################################################
#
# If this CIF has been generated from an entry in the Cambridge 
# Structural Database, then it will include bibliographic, chemical, 
# crystal, experimental, refinement or atomic coordinate data resulting 
# from the CCDC's data processing and validation procedures.
#
#######################################################################

data_WITBIM
_symmetry_cell_setting           triclinic
_symmetry_space_group_name_H-M   'P -1'
_symmetry_Int_Tables_number      2
_space_group_name_Hall           '-P 1'
loop_
_symmetry_equiv_pos_site_id
_symmetry_equiv_pos_as_xyz
1 x,y,z
2 -x,-y,-z
_cell_length_a                   7.7517(16)
_cell_length_b                   9.5829(19)
_cell_length_c                   11.840(2)
_cell_angle_alpha                113.28(3)
_cell_angle_beta                 99.38(3)
_cell_angle_gamma                93.94(3)
_cell_volume                     788.464
loop_
_atom_site_label
_atom_site_type_symbol
_atom_site_fract_x
_atom_site_fract_y
_atom_site_fract_z
Cd1 Cd 0.66690(2) 0.851254(19) 0.506990(16)
N1 N 0.6387(3) 0.8595(3) 0.3068(2)
O1 O 0.7357(3) 0.5943(2) 0.3943(2)
C1 C 0.5537(4) 0.7269(3) 0.0819(3)
H1 H 0.4923 0.6406 0.0127
C2 C 0.6490(4) 0.8449(3) 0.0652(3)
C3 C 0.5522(4) 0.7408(4) 0.2020(3)
H2 H 0.4866 0.6623 0.2109
O2 O 0.9490(3) 0.7885(2) 0.4990(2)
C4 C 0.7371(5) 0.9686(4) 0.1749(3)
H3 H 0.8015 1.0502 0.1693
C5 C 0.7305(5) 0.9721(4) 0.2922(3)
H4 H 0.7922 1.0560 0.3633
C6 C 0.9523(4) 0.3906(3) 0.2742(3)
H5 H 1.0430 0.3243 0.2641
H6 H 0.8626 0.3517 0.3071
C7 C 0.8906(4) 0.5003(4) 0.1153(3)
C8 C 0.8703(5) 0.3852(4) 0.1483(4)
C9 C 0.8940(4) 0.6499(3) 0.4238(3)
C10 C 1.0342(4) 0.5534(3) 0.3683(3)
H7 H 1.1183 0.5471 0.4370
C11 C 1.0080(4) 0.6500(3) 0.1980(3)
H8 H 0.9361 0.7280 0.2350
H9 H 1.0739 0.6830 0.1478
C12 C 1.1357(4) 0.6323(3) 0.3014(3)
H10 H 1.2122 0.5600 0.2592
C13 C 1.2578(4) 0.7787(3) 0.3907(3)
O3 O 1.2358(3) 0.9000(2) 0.3765(2)
O4 O 1.3785(3) 0.7673(3) 0.4692(2)
C14 C 0.6556(4) 0.8369(3) -0.0617(3)
C15 C 0.5576(4) 0.7205(4) -0.1725(3)
H11 H 0.4872 0.6402 -0.1692
C16 C 0.7618(4) 0.9497(4) -0.0767(3)
H12 H 0.8337 1.0283 -0.0066
C17 C 0.5646(4) 0.7241(4) -0.2874(3)
H13 H 0.4969 0.6455 -0.3597
N2 N 0.6639(3) 0.8350(3) -0.2996(2)
C18 C 0.7610(5) 0.9455(4) -0.1946(3)
H14 H 0.8315 1.0233 -0.2011
H15 H 0.838(5) 0.500(4) 0.039(4)
H16 H 0.804(6) 0.303(5) 0.093(5)
Cd1_2 Cd 0.66690(2) 0.851254(19) -0.493010(16)
Cd1_3 Cd 1.66690(2) 0.851254(19) 0.506990(16)
Cd1A Cd 1.33310(2) 1.148746(19) 0.493010(16)
O3A O 0.7642(3) 1.1000(2) 0.6235(2)
O4_2 O 0.3785(3) 0.7673(3) 0.4692(2)
N2_2 N 0.6639(3) 0.8350(3) 0.7004(2)
loop_
_geom_bond_atom_site_label_1
_geom_bond_atom_site_label_2
_geom_bond_site_symmetry_1
_geom_bond_site_symmetry_2
Cd1 N1 1_555 1_555
N1 C3 1_555 1_555
O1 Cd1 1_555 1_555
C1 H1 1_555 1_555
C2 C1 1_555 1_555
C3 C1 1_555 1_555
H2 C3 1_555 1_555
O2 Cd1 1_555 1_555
C4 C2 1_555 1_555
H3 C4 1_555 1_555
C5 N1 1_555 1_555
H4 C5 1_555 1_555
C6 H5 1_555 1_555
H6 C6 1_555 1_555
C7 C8 1_555 1_555
C8 C6 1_555 1_555
C9 O1 1_555 1_555
C10 C6 1_555 1_555
H7 C10 1_555 1_555
C11 C7 1_555 1_555
H8 C11 1_555 1_555
H9 C11 1_555 1_555
C12 C10 1_555 1_555
H10 C12 1_555 1_555
C13 C12 1_555 1_555
O3 C13 1_555 1_555
O4 C13 1_555 1_555
C14 C2 1_555 1_555
C15 C14 1_555 1_555
H11 C15 1_555 1_555
C16 C14 1_555 1_555
H12 C16 1_555 1_555
C17 C15 1_555 1_555
H13 C17 1_555 1_555
N2 C17 1_555 1_555
C18 C16 1_555 1_555
H14 C18 1_555 1_555
H15 C7 1_555 1_555
H16 C8 1_555 1_555
Cd1_2 N2 1_555 1_555
Cd1_3 O4 1_555 1_555
Cd1A O3 1_555 1_555
O3A Cd1 1_555 1_555
O4_2 Cd1 1_555 1_555
N2_2 Cd1 1_555 1_555
O2 C9 1_555 1_555
C4 C5 1_555 1_555
C9 C10 1_555 1_555
C11 C12 1_555 1_555
N2 C18 1_555 1_555

#END
