
#######################################################################
#
#                 Cambridge Crystallographic Data Centre
#                                CCDC 
#
#######################################################################
#
# If this CIF has been generated from an entry in the Cambridge 
# Structural Database, then it will include bibliographic, chemical, 
# crystal, experimental, refinement or atomic coordinate data resulting 
# from the CCDC's data processing and validation procedures.
#
#######################################################################

data_WITBIM01
_symmetry_cell_setting           triclinic
_symmetry_space_group_name_H-M   'P -1'
_symmetry_Int_Tables_number      2
_space_group_name_Hall           '-P 1'
loop_
_symmetry_equiv_pos_site_id
_symmetry_equiv_pos_as_xyz
1 x,y,z
2 -x,-y,-z
_cell_length_a                   7.7499(16)
_cell_length_b                   9.5902(19)
_cell_length_c                   11.860(2)
_cell_angle_alpha                113.30(3)
_cell_angle_beta                 99.40(3)
_cell_angle_gamma                93.88(3)
_cell_volume                     790.158
loop_
_atom_site_label
_atom_site_type_symbol
_atom_site_fract_x
_atom_site_fract_y
_atom_site_fract_z
Cd1 Cd 0.66691(3) 0.85127(2) 0.506989(18)
N1 N 0.6386(4) 0.8593(3) 0.3068(3)
O1 O 0.7356(3) 0.5942(3) 0.3942(3)
C1 C 0.5536(5) 0.7271(4) 0.0823(3)
H1 H 0.4922 0.6407 0.0134
C2 C 0.6490(4) 0.8451(4) 0.0651(3)
C3 C 0.5524(5) 0.7412(4) 0.2021(3)
H2 H 0.4867 0.6627 0.2109
O2 O 0.9490(3) 0.7885(3) 0.4989(2)
C4 C 0.7373(5) 0.9683(4) 0.1750(4)
H3 H 0.8023 1.0497 0.1696
C5 C 0.7305(5) 0.9720(4) 0.2920(3)
H4 H 0.7919 1.0560 0.3630
C6 C 0.9524(5) 0.3906(4) 0.2744(4)
H5 H 1.0431 0.3243 0.2644
H6 H 0.8625 0.3518 0.3071
C7 C 0.8908(5) 0.5004(4) 0.1155(3)
C8 C 0.8707(5) 0.3856(4) 0.1485(4)
C9 C 0.8941(4) 0.6498(3) 0.4238(3)
C10 C 1.0340(4) 0.5533(4) 0.3684(3)
H7 H 1.1181 0.5470 0.4370
C11 C 1.0081(5) 0.6500(4) 0.1981(3)
H8 H 0.9360 0.7281 0.2349
H9 H 1.0742 0.6830 0.1480
C12 C 1.1357(4) 0.6325(4) 0.3016(3)
H10 H 1.2123 0.5603 0.2595
C13 C 1.2579(4) 0.7788(4) 0.3907(3)
O3 O 1.2359(3) 0.9002(2) 0.3765(2)
O4 O 1.3784(3) 0.7673(3) 0.4692(2)
C14 C 0.6554(4) 0.8368(4) -0.0616(3)
C15 C 0.5577(5) 0.7208(4) -0.1726(3)
H11 H 0.4872 0.6405 -0.1696
C16 C 0.7622(5) 0.9496(4) -0.0773(3)
H12 H 0.8345 1.0281 -0.0075
C17 C 0.5649(5) 0.7243(4) -0.2872(3)
H13 H 0.4974 0.6456 -0.3594
N2 N 0.6640(4) 0.8352(3) -0.2996(3)
C18 C 0.7607(5) 0.9451(4) -0.1946(4)
H14 H 0.8310 1.0230 -0.2011
H15 H 0.838(5) 0.500(4) 0.039(4)
H16 H 0.808(6) 0.305(5) 0.094(5)
Cd1_2 Cd 0.66691(3) 0.85127(2) -0.493011(18)
Cd1_3 Cd 1.66691(3) 0.85127(2) 0.506989(18)
Cd1A Cd 1.33309(3) 1.14873(2) 0.493011(18)
O3A O 0.7641(3) 1.0998(2) 0.6235(2)
O4_2 O 0.3784(3) 0.7673(3) 0.4692(2)
N2_2 N 0.6640(4) 0.8352(3) 0.7004(3)
loop_
_geom_bond_atom_site_label_1
_geom_bond_atom_site_label_2
_geom_bond_site_symmetry_1
_geom_bond_site_symmetry_2
Cd1 N1 1_555 1_555
N1 C3 1_555 1_555
O1 Cd1 1_555 1_555
C1 H1 1_555 1_555
C2 C1 1_555 1_555
C3 C1 1_555 1_555
H2 C3 1_555 1_555
O2 Cd1 1_555 1_555
C4 C2 1_555 1_555
H3 C4 1_555 1_555
C5 N1 1_555 1_555
H4 C5 1_555 1_555
C6 H5 1_555 1_555
H6 C6 1_555 1_555
C7 C8 1_555 1_555
C8 C6 1_555 1_555
C9 O1 1_555 1_555
C10 C6 1_555 1_555
H7 C10 1_555 1_555
C11 C7 1_555 1_555
H8 C11 1_555 1_555
H9 C11 1_555 1_555
C12 C10 1_555 1_555
H10 C12 1_555 1_555
C13 C12 1_555 1_555
O3 C13 1_555 1_555
O4 C13 1_555 1_555
C14 C2 1_555 1_555
C15 C14 1_555 1_555
H11 C15 1_555 1_555
C16 C14 1_555 1_555
H12 C16 1_555 1_555
C17 C15 1_555 1_555
H13 C17 1_555 1_555
N2 C17 1_555 1_555
C18 C16 1_555 1_555
H14 C18 1_555 1_555
H15 C7 1_555 1_555
H16 C8 1_555 1_555
Cd1_2 N2 1_555 1_555
Cd1_3 O4 1_555 1_555
Cd1A O3 1_555 1_555
O3A Cd1 1_555 1_555
O4_2 Cd1 1_555 1_555
N2_2 Cd1 1_555 1_555
O2 C9 1_555 1_555
C4 C5 1_555 1_555
C9 C10 1_555 1_555
C11 C12 1_555 1_555
N2 C18 1_555 1_555

#END
