
#######################################################################
#
#                 Cambridge Crystallographic Data Centre
#                                CCDC 
#
#######################################################################
#
# If this CIF has been generated from an entry in the Cambridge 
# Structural Database, then it will include bibliographic, chemical, 
# crystal, experimental, refinement or atomic coordinate data resulting 
# from the CCDC's data processing and validation procedures.
#
#######################################################################

data_WITBEI
_symmetry_cell_setting           triclinic
_symmetry_space_group_name_H-M   'P -1'
_symmetry_Int_Tables_number      2
_space_group_name_Hall           '-P 1'
loop_
_symmetry_equiv_pos_site_id
_symmetry_equiv_pos_as_xyz
1 x,y,z
2 -x,-y,-z
_cell_length_a                   6.7128(15)
_cell_length_b                   9.917(2)
_cell_length_c                   11.354(3)
_cell_angle_alpha                74.653(3)
_cell_angle_beta                 74.333(4)
_cell_angle_gamma                88.554(3)
_cell_volume                     700.941
loop_
_atom_site_label
_atom_site_type_symbol
_atom_site_fract_x
_atom_site_fract_y
_atom_site_fract_z
Mn1 Mn 0.5000 0.5000 0.5000
Ni1 Ni 0.76732(6) 0.67206(4) 0.68385(3)
O1 O 0.4868(3) 0.5760(2) 0.80119(19)
O2 O 0.8920(4) 0.4754(2) 0.6929(2)
N1 N 0.6493(4) 0.8704(3) 0.6914(2)
O3 O 0.3506(4) 0.4553(2) 0.6977(2)
N2 N 0.6902(4) 0.6735(3) 0.5140(2)
N3 N 0.7811(4) 0.7617(3) 0.4193(2)
C1 C 0.2387(5) 0.4161(3) 1.0359(3)
H1 H 0.3150 0.4936 1.0347
C2 C 0.3662(5) 0.4853(3) 0.7957(3)
C3 C 0.2308(5) 0.3963(3) 0.9204(3)
C4 C 0.5278(5) 0.8873(4) 0.8019(3)
H2 H 0.4698 0.8077 0.8663
N4 N 0.8679(5) 0.8462(3) 0.3302(3)
C5 C 0.1076(5) 0.2836(4) 0.9231(3)
H3 H 0.0960 0.2676 0.8481
C6 C 0.4853(6) 1.0158(4) 0.8244(3)
H4 H 0.3999 1.0226 0.9019
C7 C 0.7280(5) 0.9875(3) 0.5994(3)
H5 H 0.8093 0.9784 0.5216
C8 C 0.8077(5) 1.2469(3) 0.5120(3)
C9 C 0.6941(5) 1.1212(3) 0.6146(3)
C10 C 0.5715(5) 1.1347(4) 0.7298(3)
H6 H 0.5473 1.2228 0.7434
O4 O 0.7603(3) 1.3670(2) 0.5258(2)
O5 O 0.9480(3) 1.2221(2) 0.42332(19)
N5 N 0.1423(4) 0.3295(3) 1.1485(2)
C11 C 0.0240(5) 0.2211(4) 1.1491(3)
H7 H -0.0460 0.1608 1.2266
C12 C 0.0033(6) 0.1965(4) 1.0393(3)
H8 H -0.0807 0.1214 1.0433
Ni1A Ni 0.23268(6) 0.32794(4) 0.31615(3)
O1A O 0.5132(3) 0.4240(2) 0.19881(19)
O2A O 0.1080(4) 0.5246(2) 0.3071(2)
N1A N 0.3507(4) 0.1296(3) 0.3086(2)
O3A O 0.6494(4) 0.5447(2) 0.3023(2)
N2A N 0.3098(4) 0.3265(3) 0.4860(2)
N3A N 0.2189(4) 0.2383(3) 0.5807(2)
C1A C 0.7613(5) 0.5839(3) -0.0359(3)
H1A H 0.6850 0.5064 -0.0347
C2A C 0.6338(5) 0.5147(3) 0.2043(3)
C3A C 0.7692(5) 0.6037(3) 0.0796(3)
C4A C 0.4722(5) 0.1127(4) 0.1981(3)
H2A H 0.5302 0.1923 0.1337
N4A N 0.1321(5) 0.1538(3) 0.6698(3)
C5A C 0.8924(5) 0.7164(4) 0.0769(3)
H3A H 0.9040 0.7324 0.1519
C6A C 0.5147(6) -0.0158(4) 0.1756(3)
H4A H 0.6001 -0.0226 0.0981
C7A C 0.2720(5) 0.0125(3) 0.4006(3)
H5A H 0.1907 0.0216 0.4784
C8A C 0.1923(5) -0.2469(3) 0.4880(3)
C9A C 0.3059(5) -0.1212(3) 0.3854(3)
C10A C 0.4285(5) -0.1347(4) 0.2702(3)
H6A H 0.4527 -0.2228 0.2566
O4A O 0.2397(3) -0.3670(2) 0.4742(2)
O5A O 0.0520(3) -0.2221(2) 0.57668(19)
N5A N 0.8577(4) 0.6705(3) -0.1485(2)
C11A C 0.9760(5) 0.7789(4) -0.1491(3)
H7A H 1.0460 0.8392 -0.2266
C12A C 0.9967(6) 0.8035(4) -0.0393(3)
H8A H 1.0807 0.8786 -0.0433
Mn1_2 Mn 0.5000 -0.5000 0.5000
Mn1_3 Mn 0.5000 1.5000 0.5000
Ni1_2 Ni -0.23268(6) -0.32794(4) 0.68385(3)
Ni1_3 Ni 0.76732(6) 0.67206(4) -0.31615(3)
Ni1A_2 Ni 0.23268(6) 0.32794(4) 1.31615(3)
Ni1A_3 Ni 1.23268(6) 1.32794(4) 0.31615(3)
O4_2 O 0.7603(3) 0.3670(2) 0.5258(2)
O4A_2 O 0.2397(3) 0.6330(2) 0.4742(2)
O5_2 O -0.0520(3) 0.2221(2) 0.42332(19)
O5A_2 O 1.0520(3) 0.7779(2) 0.57668(19)
N5_2 N 0.1423(4) 0.3295(3) 0.1485(2)
N5A_2 N 0.8577(4) 0.6705(3) 0.8515(2)
loop_
_geom_bond_atom_site_label_1
_geom_bond_atom_site_label_2
_geom_bond_site_symmetry_1
_geom_bond_site_symmetry_2
Mn1 O3 1_555 1_555
Ni1 O1 1_555 1_555
O1 C2 1_555 1_555
O2 Ni1 1_555 1_555
N1 Ni1 1_555 1_555
O3 C2 1_555 1_555
N2 Mn1 1_555 1_555
N3 N2 1_555 1_555
C1 H1 1_555 1_555
C2 C3 1_555 1_555
C3 C1 1_555 1_555
C4 N1 1_555 1_555
H2 C4 1_555 1_555
N4 N3 1_555 1_555
C5 C3 1_555 1_555
H3 C5 1_555 1_555
C6 C4 1_555 1_555
H4 C6 1_555 1_555
C7 N1 1_555 1_555
H5 C7 1_555 1_555
C8 C9 1_555 1_555
C9 C7 1_555 1_555
C10 C6 1_555 1_555
H6 C10 1_555 1_555
O4 C8 1_555 1_555
O5 C8 1_555 1_555
N5 C1 1_555 1_555
C11 N5 1_555 1_555
H7 C11 1_555 1_555
C12 C5 1_555 1_555
H8 C12 1_555 1_555
Ni1A O1A 1_555 1_555
O1A C2A 1_555 1_555
O2A Ni1A 1_555 1_555
N1A Ni1A 1_555 1_555
O3A Mn1 1_555 1_555
N2A Mn1 1_555 1_555
N3A N2A 1_555 1_555
C1A H1A 1_555 1_555
C2A O3A 1_555 1_555
C3A C1A 1_555 1_555
C4A N1A 1_555 1_555
H2A C4A 1_555 1_555
N4A N3A 1_555 1_555
C5A C3A 1_555 1_555
H3A C5A 1_555 1_555
C6A C4A 1_555 1_555
H4A C6A 1_555 1_555
C7A N1A 1_555 1_555
H5A C7A 1_555 1_555
C8A C9A 1_555 1_555
C9A C7A 1_555 1_555
C10A C6A 1_555 1_555
H6A C10A 1_555 1_555
O4A C8A 1_555 1_555
O5A C8A 1_555 1_555
N5A C1A 1_555 1_555
C11A N5A 1_555 1_555
H7A C11A 1_555 1_555
C12A C5A 1_555 1_555
H8A C12A 1_555 1_555
Mn1_2 O4A 1_555 1_555
Mn1_3 O4 1_555 1_555
Ni1_2 O5A 1_555 1_555
Ni1_3 N5A 1_555 1_555
Ni1A_2 N5 1_555 1_555
Ni1A_3 O5 1_555 1_555
O4_2 Mn1 1_555 1_555
O4A_2 Mn1 1_555 1_555
O5_2 Ni1A 1_555 1_555
O5A_2 Ni1 1_555 1_555
N5_2 Ni1A 1_555 1_555
N5A_2 Ni1 1_555 1_555
Ni1 N2 1_555 1_555
C9 C10 1_555 1_555
C11 C12 1_555 1_555
Ni1A N2A 1_555 1_555
C2A C3A 1_555 1_555
C9A C10A 1_555 1_555
C11A C12A 1_555 1_555

#END
