
#######################################################################
#
#                 Cambridge Crystallographic Data Centre
#                                CCDC 
#
#######################################################################
#
# If this CIF has been generated from an entry in the Cambridge 
# Structural Database, then it will include bibliographic, chemical, 
# crystal, experimental, refinement or atomic coordinate data resulting 
# from the CCDC's data processing and validation procedures.
#
#######################################################################

data_WITFEM
_symmetry_cell_setting           monoclinic
_symmetry_space_group_name_H-M   'P 21/c'
_symmetry_Int_Tables_number      14
_space_group_name_Hall           '-P 2ybc'
loop_
_symmetry_equiv_pos_site_id
_symmetry_equiv_pos_as_xyz
1 x,y,z
2 -x,1/2+y,1/2-z
3 -x,-y,-z
4 x,1/2-y,1/2+z
_cell_length_a                   12.3442(4)
_cell_length_b                   18.1532(7)
_cell_length_c                   18.2571(7)
_cell_angle_alpha                90
_cell_angle_beta                 92.994(3)
_cell_angle_gamma                90
_cell_volume                     4085.59
loop_
_atom_site_label
_atom_site_type_symbol
_atom_site_fract_x
_atom_site_fract_y
_atom_site_fract_z
Zn1 Zn 1.02380(4) 0.08917(3) 0.38177(3)
Zn2 Zn 0.27505(4) 0.40663(3) 0.39949(3)
O1 O 0.8605(3) 0.08667(19) 0.3873(2)
O2 O 0.9276(3) 0.1974(2) 0.3807(2)
O3 O 1.0509(2) -0.01926(17) 0.37955(17)
H1 H 1.1146 -0.0344 0.3724
H2 H 1.0040 -0.0424 0.3526
O4 O 0.3796(3) 0.32513(18) 0.42068(18)
O5 O 0.4205(3) 0.3489(2) 0.3063(2)
O6 O 0.1599(4) 0.4118(3) 0.4723(3)
O7 O 0.2921(4) 0.4508(3) 0.5489(3)
O8 O -0.0810(3) 0.5890(2) 0.7903(2)
O9 O -0.1942(3) 0.6012(2) 0.6960(2)
N1 N 1.1137(3) 0.1266(2) 0.29791(19)
N2 N 1.1210(3) 0.3774(2) -0.03029(19)
N3 N 1.7491(3) 0.4131(2) 0.1324(2)
N4 N 1.6336(3) -0.0006(2) 0.1175(2)
C1 C 1.1831(4) 0.0813(3) 0.2666(3)
H3 H 1.1801 0.0308 0.2776
C2 C 1.2588(4) 0.1051(3) 0.2192(3)
H4 H 1.3058 0.0712 0.1983
C3 C 1.2654(3) 0.1794(3) 0.2022(2)
C4 C 1.1935(4) 0.2263(3) 0.2340(3)
H5 H 1.1954 0.2771 0.2243
C5 C 1.1188(4) 0.1981(3) 0.2801(3)
H6 H 1.0689 0.2307 0.3001
C6 C 1.3425(3) 0.2049(2) 0.1476(2)
H7 H 1.3243 0.1786 0.1010
C7 C 1.1510(4) 0.3067(3) -0.0310(3)
H8 H 1.1183 0.2757 -0.0669
C8 C 1.2265(4) 0.2772(3) 0.0176(3)
H9 H 1.2464 0.2275 0.0133
C9 C 1.2742(3) 0.3200(2) 0.0734(2)
C10 C 1.2406(4) 0.3924(3) 0.0756(3)
H10 H 1.2685 0.4236 0.1131
C11 C 1.1661(4) 0.4195(3) 0.0230(2)
H11 H 1.1466 0.4694 0.0248
C12 C 1.3547(3) 0.2873(2) 0.1293(2)
H12 H 1.3568 0.3169 0.1749
C13 C 1.6711(5) 0.4139(3) 0.1799(3)
H13 H 1.6783 0.4466 0.2198
C14 C 1.5794(4) 0.3693(3) 0.1742(3)
H14 H 1.5265 0.3726 0.2092
C15 C 1.5668(3) 0.3204(2) 0.1170(2)
C16 C 1.6496(4) 0.3179(3) 0.0691(3)
H15 H 1.6462 0.2841 0.0301
C17 C 1.7371(4) 0.3646(3) 0.0781(3)
H16 H 1.7914 0.3620 0.0440
C18 C 1.4724(3) 0.2685(2) 0.1080(2)
H17 H 1.4690 0.2496 0.0571
C19 C 1.5998(4) 0.0447(3) 0.0633(3)
H18 H 1.6133 0.0314 0.0149
C20 C 1.5462(4) 0.1097(3) 0.0749(3)
H19 H 1.5233 0.1393 0.0348
C21 C 1.5261(3) 0.1317(2) 0.1454(2)
C22 C 1.5585(4) 0.0833(3) 0.2017(3)
H20 H 1.5444 0.0947 0.2505
C23 C 1.6111(4) 0.0192(3) 0.1858(3)
H21 H 1.6324 -0.0125 0.2247
C24 C 1.4686(3) 0.2016(2) 0.1614(2)
H22 H 1.4887 0.2179 0.2121
C25 C 0.8471(4) 0.1560(3) 0.3837(3)
C26 C 0.7362(4) 0.1905(3) 0.3823(3)
C27 C 0.7337(4) 0.2658(3) 0.3737(3)
H23 H 0.7994 0.2915 0.3707
C28 C 0.6362(4) 0.3054(3) 0.3693(3)
H24 H 0.6378 0.3566 0.3622
C29 C 0.5392(4) 0.2708(3) 0.3750(3)
C30 C 0.5366(3) 0.1932(3) 0.3859(2)
C31 C 0.4374(4) 0.1559(3) 0.3937(3)
H25 H 0.3722 0.1826 0.3902
C32 C 0.4343(4) 0.0820(3) 0.4060(3)
H26 H 0.3677 0.0580 0.4116
C33 C 0.5318(4) 0.0420(3) 0.4104(3)
H27 H 0.5297 -0.0089 0.4194
C34 C 0.6289(4) 0.0750(3) 0.4019(3)
H28 H 0.6925 0.0465 0.4045
C35 C 0.6361(3) 0.1517(3) 0.3894(2)
C36 C 0.4379(4) 0.3174(3) 0.3657(3)
C37 C 0.1946(5) 0.4421(4) 0.5285(4)
C38 C 0.1085(5) 0.4713(3) 0.5789(4)
C39 C 0.1260(5) 0.5404(3) 0.6054(4)
H29 H 0.1873 0.5668 0.5916
C40 C 0.0550(5) 0.5731(3) 0.6525(4)
H30 H 0.0671 0.6221 0.6676
C41 C -0.0313(5) 0.5359(3) 0.6773(4)
C42 C -0.1323(5) 0.4199(3) 0.6869(4)
H31 H -0.1756 0.4408 0.7224
C43 C -0.0502(5) 0.4619(3) 0.6560(4)
C44 C -0.1487(5) 0.3483(3) 0.6650(4)
H32 H -0.2019 0.3192 0.6860
C45 C -0.0832(5) 0.3187(3) 0.6096(4)
H33 H -0.0977 0.2709 0.5920
C46 C -0.0034(5) 0.3565(3) 0.5826(4)
H34 H 0.0403 0.3340 0.5484
C47 C 0.0181(5) 0.4296(3) 0.6037(4)
C48 C -0.1064(4) 0.5766(3) 0.7249(3)
Zn1C Zn 1.02380(4) 0.41083(3) -0.11823(3)
Zn2A Zn 1.72495(4) -0.09337(3) 0.10051(3)
Zn2B Zn -0.27505(4) 0.59337(3) 0.60051(3)
O9B O 0.1942(3) 0.3988(2) 0.3040(2)
N2C N 1.1210(3) 0.1226(2) 0.46971(19)
N4A N 0.3664(3) 0.4994(2) 0.3825(2)
loop_
_geom_bond_atom_site_label_1
_geom_bond_atom_site_label_2
_geom_bond_site_symmetry_1
_geom_bond_site_symmetry_2
Zn1 O1 1_555 1_555
Zn2 O4 1_555 1_555
O1 C25 1_555 1_555
O2 Zn1 1_555 1_555
O3 Zn1 1_555 1_555
H1 O3 1_555 1_555
H2 O3 1_555 1_555
O4 C36 1_555 1_555
O5 C36 1_555 1_555
O6 Zn2 1_555 1_555
O7 C37 1_555 1_555
O8 C48 1_555 1_555
O9 C48 1_555 1_555
N1 Zn1 1_555 1_555
N2 C7 1_555 1_555
N3 C13 1_555 1_555
N4 C19 1_555 1_555
C1 N1 1_555 1_555
H3 C1 1_555 1_555
C2 C1 1_555 1_555
H4 C2 1_555 1_555
C3 C2 1_555 1_555
C4 C3 1_555 1_555
H5 C4 1_555 1_555
C5 N1 1_555 1_555
H6 C5 1_555 1_555
C6 C3 1_555 1_555
H7 C6 1_555 1_555
C7 H8 1_555 1_555
C8 C7 1_555 1_555
H9 C8 1_555 1_555
C9 C8 1_555 1_555
C10 C9 1_555 1_555
H10 C10 1_555 1_555
C11 N2 1_555 1_555
H11 C11 1_555 1_555
C12 C6 1_555 1_555
H12 C12 1_555 1_555
C13 H13 1_555 1_555
C14 C13 1_555 1_555
H14 C14 1_555 1_555
C15 C14 1_555 1_555
C16 C15 1_555 1_555
H15 C16 1_555 1_555
C17 N3 1_555 1_555
H16 C17 1_555 1_555
C18 C12 1_555 1_555
H17 C18 1_555 1_555
C19 H18 1_555 1_555
C20 C19 1_555 1_555
H19 C20 1_555 1_555
C21 C20 1_555 1_555
C22 C21 1_555 1_555
H20 C22 1_555 1_555
C23 N4 1_555 1_555
H21 C23 1_555 1_555
C24 C6 1_555 1_555
H22 C24 1_555 1_555
C25 O2 1_555 1_555
C26 C25 1_555 1_555
C27 C26 1_555 1_555
H23 C27 1_555 1_555
C28 C27 1_555 1_555
H24 C28 1_555 1_555
C29 C28 1_555 1_555
C30 C29 1_555 1_555
C31 C30 1_555 1_555
H25 C31 1_555 1_555
C32 C31 1_555 1_555
H26 C32 1_555 1_555
C33 C32 1_555 1_555
H27 C33 1_555 1_555
C34 C33 1_555 1_555
H28 C34 1_555 1_555
C35 C26 1_555 1_555
C36 C29 1_555 1_555
C37 O6 1_555 1_555
C38 C37 1_555 1_555
C39 C38 1_555 1_555
H29 C39 1_555 1_555
C40 C39 1_555 1_555
H30 C40 1_555 1_555
C41 C40 1_555 1_555
C42 H31 1_555 1_555
C43 C41 1_555 1_555
C44 C42 1_555 1_555
H32 C44 1_555 1_555
C45 C44 1_555 1_555
H33 C45 1_555 1_555
C46 C45 1_555 1_555
H34 C46 1_555 1_555
C47 C38 1_555 1_555
C48 C41 1_555 1_555
Zn1C N2 1_555 1_555
Zn2A N4 1_555 1_555
Zn2B O9 1_555 1_555
O9B Zn2 1_555 1_555
N2C Zn1 1_555 1_555
N4A Zn2 1_555 1_555
C4 C5 1_555 1_555
C9 C12 1_555 1_555
C10 C11 1_555 1_555
C15 C18 1_555 1_555
C16 C17 1_555 1_555
C18 C24 1_555 1_555
C21 C24 1_555 1_555
C22 C23 1_555 1_555
C30 C35 1_555 1_555
C34 C35 1_555 1_555
C42 C43 1_555 1_555
C43 C47 1_555 1_555
C46 C47 1_555 1_555

#END
