
#######################################################################
#
#                 Cambridge Crystallographic Data Centre
#                                CCDC 
#
#######################################################################
#
# If this CIF has been generated from an entry in the Cambridge 
# Structural Database, then it will include bibliographic, chemical, 
# crystal, experimental, refinement or atomic coordinate data resulting 
# from the CCDC's data processing and validation procedures.
#
#######################################################################

data_WITFIO
_symmetry_cell_setting           orthorhombic
_symmetry_space_group_name_H-M   'P 21 21 21'
_symmetry_Int_Tables_number      19
_space_group_name_Hall           'P 2ac 2ab'
loop_
_symmetry_equiv_pos_site_id
_symmetry_equiv_pos_as_xyz
1 x,y,z
2 1/2-x,-y,1/2+z
3 1/2+x,1/2-y,-z
4 -x,1/2+y,1/2-z
_cell_length_a                   10.774(3)
_cell_length_b                   11.869(2)
_cell_length_c                   18.141(2)
_cell_angle_alpha                90
_cell_angle_beta                 90
_cell_angle_gamma                90
_cell_volume                     2319.81
loop_
_atom_site_label
_atom_site_type_symbol
_atom_site_fract_x
_atom_site_fract_y
_atom_site_fract_z
Cu1 Cu -0.60739(11) 0.12513(10) -0.35577(6)
O1 O -0.4645(7) 0.0629(5) -0.4010(4)
N1 N -0.5237(7) 0.2703(6) -0.3432(4)
N2 N -0.4568(9) 0.4415(6) -0.2975(4)
O2 O -0.4544(8) 0.5357(5) -0.2669(3)
C1 C -0.3859(10) 0.1190(8) -0.4416(4)
C2 C -0.3114(13) 0.0448(10) -0.4939(7)
H1 H -0.2546 0.0914 -0.5230
C3 C -0.239(2) -0.0410(16) -0.4508(10)
H2 H -0.1812 -0.0033 -0.4191
H3 H -0.1949 -0.0892 -0.4843
H4 H -0.2951 -0.0854 -0.4217
C4 C -0.406(2) -0.0147(19) -0.5458(11)
H5 H -0.3623 -0.0606 -0.5807
H6 H -0.4539 0.0411 -0.5716
H7 H -0.4607 -0.0612 -0.5171
C5 C -0.3689(10) 0.2326(8) -0.4357(5)
C6 C -0.2767(13) 0.2812(8) -0.4840(6)
N3 N -0.2066(11) 0.3169(8) -0.5239(5)
C7 C -0.4290(9) 0.3036(7) -0.3799(5)
C8 C -0.3788(10) 0.4185(7) -0.3634(5)
C9 C -0.4043(19) 0.5046(8) -0.4233(6)
H8 H -0.4906 0.5025 -0.4363
H9 H -0.3550 0.4874 -0.4660
H10 H -0.3834 0.5785 -0.4057
C10 C -0.2435(11) 0.4195(12) -0.3395(8)
H11 H -0.2313 0.3649 -0.3012
H12 H -0.2222 0.4930 -0.3215
H13 H -0.1917 0.4012 -0.3809
C11 C -0.5542(9) 0.3578(8) -0.2872(4)
C12 C -0.5475(13) 0.3119(9) -0.2092(5)
H14 H -0.4677 0.2779 -0.2012
H15 H -0.6113 0.2564 -0.2023
H16 H -0.5592 0.3722 -0.1747
C13 C -0.6790(11) 0.4141(11) -0.3025(8)
H17 H -0.7098 0.4478 -0.2581
H18 H -0.7370 0.3586 -0.3197
H19 H -0.6685 0.4712 -0.3395
O3 O -0.6769(7) -0.0249(6) -0.3762(3)
O4 O -0.7642(7) 0.1687(6) -0.3101(4)
C14 C -0.7877(13) -0.0525(9) -0.3739(5)
C15 C -0.8829(12) 0.0100(9) -0.3458(6)
H20 H -0.9634 -0.0183 -0.3479
C16 C -0.8628(10) 0.1128(11) -0.3148(6)
C17 C -0.8127(16) -0.1682(10) -0.3999(8)
F1 F -0.9299(9) -0.1881(6) -0.4178(5)
F2 F -0.7842(9) -0.2446(6) -0.3512(5)
F3 F -0.7506(11) -0.1937(6) -0.4595(5)
C18 C -0.978(2) 0.176(2) -0.290(2)
F4 F -1.0735(9) 0.1287(12) -0.2847(12)
F5 F -0.9780(13) 0.2745(10) -0.2898(17)
F6 F -0.9563(18) 0.183(2) -0.2117(11)
N3B N -0.7066(11) 0.1831(8) -0.4761(5)
Cu1C Cu -0.39261(11) 0.62513(10) -0.14423(6)
O2C O -0.5456(8) 0.0357(5) -0.2331(3)
Cu1B Cu -0.10739(11) 0.37487(10) -0.64423(6)
loop_
_geom_bond_atom_site_label_1
_geom_bond_atom_site_label_2
_geom_bond_site_symmetry_1
_geom_bond_site_symmetry_2
Cu1 O1 1_555 1_555
O1 C1 1_555 1_555
N1 Cu1 1_555 1_555
N2 O2 1_555 1_555
O2 Cu1C 1_555 1_555
C1 C2 1_555 1_555
C2 H1 1_555 1_555
C3 C2 1_555 1_555
H2 C3 1_555 1_555
H3 C3 1_555 1_555
H4 C3 1_555 1_555
C4 C2 1_555 1_555
H5 C4 1_555 1_555
H6 C4 1_555 1_555
H7 C4 1_555 1_555
C5 C1 1_555 1_555
C6 C5 1_555 1_555
N3 C6 1_555 1_555
C7 N1 1_555 1_555
C8 N2 1_555 1_555
C9 C8 1_555 1_555
H8 C9 1_555 1_555
H9 C9 1_555 1_555
H10 C9 1_555 1_555
C10 C8 1_555 1_555
H11 C10 1_555 1_555
H12 C10 1_555 1_555
H13 C10 1_555 1_555
C11 N1 1_555 1_555
C12 C11 1_555 1_555
H14 C12 1_555 1_555
H15 C12 1_555 1_555
H16 C12 1_555 1_555
C13 C11 1_555 1_555
H17 C13 1_555 1_555
H18 C13 1_555 1_555
H19 C13 1_555 1_555
O3 Cu1 1_555 1_555
O4 Cu1 1_555 1_555
C14 O3 1_555 1_555
C15 C14 1_555 1_555
H20 C15 1_555 1_555
C16 O4 1_555 1_555
C17 C14 1_555 1_555
F1 C17 1_555 1_555
F2 C17 1_555 1_555
F3 C17 1_555 1_555
C18 C16 1_555 1_555
F4 C18 1_555 1_555
F5 C18 1_555 1_555
F6 C18 1_555 1_555
N3B Cu1 1_555 1_555
O2C Cu1 1_555 1_555
Cu1B N3 1_555 1_555
N2 C11 1_555 1_555
C5 C7 1_555 1_555
C7 C8 1_555 1_555
C15 C16 1_555 1_555

#END
