
#######################################################################
#
#                 Cambridge Crystallographic Data Centre
#                                CCDC 
#
#######################################################################
#
# If this CIF has been generated from an entry in the Cambridge 
# Structural Database, then it will include bibliographic, chemical, 
# crystal, experimental, refinement or atomic coordinate data resulting 
# from the CCDC's data processing and validation procedures.
#
#######################################################################

data_WITFOU
_symmetry_cell_setting           monoclinic
_symmetry_space_group_name_H-M   'C 2/c'
_symmetry_Int_Tables_number      15
_space_group_name_Hall           '-C 2yn'
loop_
_symmetry_equiv_pos_site_id
_symmetry_equiv_pos_as_xyz
1 x,y,z
2 1/2+x,1/2+y,z
3 x,-y,1/2+z
4 1/2+x,1/2-y,1/2+z
5 -x,-y,-z
6 1/2-x,1/2-y,-z
7 -x,y,1/2-z
8 1/2-x,1/2+y,1/2-z
_cell_length_a                   33.811(5)
_cell_length_b                   13.925(3)
_cell_length_c                   23.150(4)
_cell_angle_alpha                90
_cell_angle_beta                 117.230(10)
_cell_angle_gamma                90
_cell_volume                     9691.53
loop_
_atom_site_label
_atom_site_type_symbol
_atom_site_fract_x
_atom_site_fract_y
_atom_site_fract_z
Cu1 Cu -0.304040(12) 0.24326(3) -0.223340(17)
Cu2 Cu -0.416590(12) 0.34772(3) -0.579490(17)
O1 O -0.24793(5) 0.30133(12) -0.17962(8)
N1 N -0.31753(6) 0.31982(15) -0.30147(9)
N2 N -0.34690(7) 0.37058(17) -0.40890(9)
O2 O -0.36788(6) 0.37653(17) -0.46906(8)
C1 C -0.23451(8) 0.3808(2) -0.18999(11)
C2 C -0.19109(8) 0.4151(2) -0.13666(12)
H1 H -0.1870 0.4825 -0.1430
H2 H -0.1913 0.4082 -0.0951
C3 C -0.15391(10) 0.3581(3) -0.13671(14)
H3 H -0.1273 0.3736 -0.0971
H4 H -0.1603 0.2909 -0.1341
C4 C -0.14384(11) 0.3680(4) -0.18765(15)
H5 H -0.1196 0.3261 -0.1811
H6 H -0.1355 0.4333 -0.1899
H7 H -0.1694 0.3514 -0.2275
C5 C -0.25764(8) 0.43500(19) -0.24774(11)
C6 C -0.24126(8) 0.5283(2) -0.25354(12)
N3 N -0.22832(7) 0.60305(17) -0.25543(10)
C7 C -0.29642(8) 0.39671(19) -0.30335(12)
C8 C -0.31431(8) 0.4439(2) -0.37063(12)
C9 C -0.33979(9) 0.5397(2) -0.37447(13)
H8 H -0.3612 0.5287 -0.3588
H9 H -0.3547 0.5612 -0.4187
H10 H -0.3190 0.5878 -0.3482
C10 C -0.27801(7) 0.4501(2) -0.39289(11)
H11 H -0.2642 0.3884 -0.3883
H12 H -0.2560 0.4963 -0.3667
H13 H -0.2911 0.4696 -0.4376
C11 C -0.35446(8) 0.2985(2) -0.37002(12)
C12 C -0.40073(8) 0.3205(2) -0.37307(13)
H14 H -0.4007 0.3847 -0.3580
H15 H -0.4063 0.2758 -0.3460
H16 H -0.4236 0.3145 -0.4171
C13 C -0.34993(10) 0.1980(2) -0.39261(14)
H17 H -0.3205 0.1899 -0.3883
H18 H -0.3713 0.1898 -0.4373
H19 H -0.3551 0.1510 -0.3665
O3 O -0.28828(6) 0.18654(14) -0.13706(8)
O4 O -0.36112(5) 0.17496(14) -0.25953(8)
C14 C -0.31338(8) 0.1417(2) -0.12467(12)
C15 C -0.35649(9) 0.1113(2) -0.16174(13)
H20 H -0.3718 0.0793 -0.1429
C16 C -0.37676(9) 0.1298(2) -0.22888(12)
C17 C -0.29616(10) 0.1188(3) -0.05220(15)
F1 F -0.25184(7) 0.11677(17) -0.01748(8)
F2 F -0.30627(7) 0.18424(18) -0.02122(9)
F3 F -0.30941(8) 0.04605(17) -0.03834(10)
C18 C -0.42839(11) 0.1081(3) -0.27340(18)
F4 F -0.43369(7) 0.0740(2) -0.32653(12)
F5 F -0.43591(9) 0.0306(2) -0.24765(16)
F6 F -0.45875(9) 0.1699(3) -0.28609(16)
N4 N -0.36883(6) 0.33688(16) -0.60605(9)
O5 O -0.42119(6) 0.48299(13) -0.59157(9)
N5 N -0.31023(6) 0.29022(17) -0.62187(10)
O6 O -0.28194(6) 0.23634(17) -0.62458(9)
C19 C -0.40237(8) 0.5401(2) -0.61345(13)
C20 C -0.42485(12) 0.6428(3) -0.63511(15)
H21 H -0.4571 0.6393 -0.6572
H22 H -0.4143 0.6770 -0.6619
C21 C -0.40941(14) 0.6807(2) -0.57576(16)
H23 H -0.4193 0.6450 -0.5487
H24 H -0.3772 0.6851 -0.5542
C22 C -0.43312(13) 0.7878(3) -0.5955(2)
H25 H -0.4267 0.8235 -0.5567
H26 H -0.4217 0.8218 -0.6208
H27 H -0.4647 0.7803 -0.6205
O7 O -0.42194(5) 0.20785(14) -0.57101(8)
O8 O -0.46690(5) 0.36803(16) -0.56255(8)
C23 C -0.37119(8) 0.5078(2) -0.63395(12)
C24 C -0.35635(8) 0.5790(2) -0.66472(12)
N6 N -0.34456(8) 0.6304(2) -0.68916(12)
C25 C -0.35484(8) 0.4101(2) -0.62808(11)
C26 C -0.31701(8) 0.3881(2) -0.64383(12)
C27 C -0.32955(7) 0.3937(2) -0.71428(10)
H28 H -0.3570 0.3599 -0.7387
H29 H -0.3331 0.4597 -0.7276
H30 H -0.3066 0.3650 -0.7220
C28 C -0.27484(8) 0.4403(2) -0.60165(13)
H31 H -0.2694 0.4368 -0.5572
H32 H -0.2505 0.4112 -0.6059
H33 H -0.2776 0.5063 -0.6148
C29 C -0.34353(8) 0.2499(2) -0.60224(11)
C30 C -0.31981(9) 0.2113(2) -0.53233(12)
H34 H -0.3033 0.2623 -0.5034
H35 H -0.3415 0.1869 -0.5201
H36 H -0.2998 0.1607 -0.5298
C31 C -0.37089(9) 0.17339(19) -0.65081(13)
H37 H -0.3853 0.2009 -0.6935
H38 H -0.3517 0.1220 -0.6502
H39 H -0.3930 0.1489 -0.6395
C32 C -0.44889(8) 0.1673(2) -0.55972(13)
C33 C -0.48087(9) 0.2090(2) -0.55155(14)
H40 H -0.4998 0.1693 -0.5432
C34 C -0.48929(9) 0.3112(3) -0.55441(15)
C35 C -0.44733(11) 0.0590(2) -0.56496(17)
F7 F -0.47067(7) 0.01338(17) -0.54337(12)
F8 F -0.40825(8) 0.03412(16) -0.52895(13)
F9 F -0.45907(10) 0.02517(18) -0.62006(13)
C36 C -0.52711(9) 0.3555(4) -0.54515(15)
F10 F -0.55667(6) 0.2909(2) -0.54575(12)
F11 F -0.51641(6) 0.3889(2) -0.49167(11)
F12 F -0.55555(7) 0.3984(3) -0.59304(14)
N3G N -0.27168(7) 0.10305(17) -0.24457(10)
Cu1G Cu -0.195960(12) 0.74326(3) -0.276660(17)
Cu1B Cu -0.304040(12) 0.75674(3) -0.723340(17)
N6B N -0.34456(8) 0.3696(2) -0.18916(12)
loop_
_geom_bond_atom_site_label_1
_geom_bond_atom_site_label_2
_geom_bond_site_symmetry_1
_geom_bond_site_symmetry_2
Cu1 O1 1_555 1_555
Cu2 O2 1_555 1_555
O1 C1 1_555 1_555
N1 Cu1 1_555 1_555
N2 O2 1_555 1_555
C1 C2 1_555 1_555
C2 H1 1_555 1_555
H2 C2 1_555 1_555
C3 C2 1_555 1_555
H3 C3 1_555 1_555
H4 C3 1_555 1_555
C4 C3 1_555 1_555
H5 C4 1_555 1_555
H6 C4 1_555 1_555
H7 C4 1_555 1_555
C5 C1 1_555 1_555
C6 C5 1_555 1_555
N3 C6 1_555 1_555
C7 N1 1_555 1_555
C8 N2 1_555 1_555
C9 C8 1_555 1_555
H8 C9 1_555 1_555
H9 C9 1_555 1_555
H10 C9 1_555 1_555
C10 C8 1_555 1_555
H11 C10 1_555 1_555
H12 C10 1_555 1_555
H13 C10 1_555 1_555
C11 N1 1_555 1_555
C12 C11 1_555 1_555
H14 C12 1_555 1_555
H15 C12 1_555 1_555
H16 C12 1_555 1_555
C13 C11 1_555 1_555
H17 C13 1_555 1_555
H18 C13 1_555 1_555
H19 C13 1_555 1_555
O3 Cu1 1_555 1_555
O4 Cu1 1_555 1_555
C14 O3 1_555 1_555
C15 C14 1_555 1_555
H20 C15 1_555 1_555
C16 O4 1_555 1_555
C17 C14 1_555 1_555
F1 C17 1_555 1_555
F2 C17 1_555 1_555
F3 C17 1_555 1_555
C18 C16 1_555 1_555
F4 C18 1_555 1_555
F5 C18 1_555 1_555
F6 C18 1_555 1_555
N4 Cu2 1_555 1_555
O5 Cu2 1_555 1_555
N5 O6 1_555 1_555
C19 O5 1_555 1_555
C20 C19 1_555 1_555
H21 C20 1_555 1_555
H22 C20 1_555 1_555
C21 C20 1_555 1_555
H23 C21 1_555 1_555
H24 C21 1_555 1_555
C22 C21 1_555 1_555
H25 C22 1_555 1_555
H26 C22 1_555 1_555
H27 C22 1_555 1_555
O7 Cu2 1_555 1_555
O8 Cu2 1_555 1_555
C23 C19 1_555 1_555
C24 C23 1_555 1_555
N6 C24 1_555 1_555
C25 N4 1_555 1_555
C26 N5 1_555 1_555
C27 C26 1_555 1_555
H28 C27 1_555 1_555
H29 C27 1_555 1_555
H30 C27 1_555 1_555
C28 C26 1_555 1_555
H31 C28 1_555 1_555
H32 C28 1_555 1_555
H33 C28 1_555 1_555
C29 N4 1_555 1_555
C30 C29 1_555 1_555
H34 C30 1_555 1_555
H35 C30 1_555 1_555
H36 C30 1_555 1_555
C31 C29 1_555 1_555
H37 C31 1_555 1_555
H38 C31 1_555 1_555
H39 C31 1_555 1_555
C32 O7 1_555 1_555
C33 C32 1_555 1_555
H40 C33 1_555 1_555
C34 O8 1_555 1_555
C35 C32 1_555 1_555
F7 C35 1_555 1_555
F8 C35 1_555 1_555
F9 C35 1_555 1_555
C36 C34 1_555 1_555
F10 C36 1_555 1_555
F11 C36 1_555 1_555
F12 C36 1_555 1_555
N3G Cu1 1_555 1_555
Cu1G N3 1_555 1_555
Cu1B N6 1_555 1_555
N6B Cu1 1_555 1_555
N2 C11 1_555 1_555
C5 C7 1_555 1_555
C7 C8 1_555 1_555
C15 C16 1_555 1_555
N5 C29 1_555 1_555
C23 C25 1_555 1_555
C25 C26 1_555 1_555
C33 C34 1_555 1_555

#END
