
#######################################################################
#
#                 Cambridge Crystallographic Data Centre
#                                CCDC 
#
#######################################################################
#
# If this CIF has been generated from an entry in the Cambridge 
# Structural Database, then it will include bibliographic, chemical, 
# crystal, experimental, refinement or atomic coordinate data resulting 
# from the CCDC's data processing and validation procedures.
#
#######################################################################

data_WITGUD
_symmetry_cell_setting           monoclinic
_symmetry_space_group_name_H-M   'P 21/n'
_symmetry_Int_Tables_number      14
_space_group_name_Hall           '-P 2yn'
loop_
_symmetry_equiv_pos_site_id
_symmetry_equiv_pos_as_xyz
1 x,y,z
2 1/2-x,1/2+y,1/2-z
3 -x,-y,-z
4 1/2+x,1/2-y,1/2+z
_cell_length_a                   9.4803(14)
_cell_length_b                   9.4473(14)
_cell_length_c                   15.163(2)
_cell_angle_alpha                90
_cell_angle_beta                 94.868(2)
_cell_angle_gamma                90
_cell_volume                     1353.15
loop_
_atom_site_label
_atom_site_type_symbol
_atom_site_fract_x
_atom_site_fract_y
_atom_site_fract_z
Ag1 Ag 0.43039(4) 0.36222(4) 1.03745(2)
C1 C 0.8213(5) -0.1163(5) 1.0068(3)
H1 H 0.7858 -0.0920 1.0601
C2 C 0.7726(4) -0.0618(5) 0.9269(3)
C3 C 0.8457(4) -0.1197(4) 0.8571(3)
C4 C 0.9473(5) -0.2133(5) 0.8865(3)
H2 H 1.0060 -0.2605 0.8501
C5 C 0.6333(5) 0.1324(5) 0.9822(3)
H3 H 0.6820 0.1356 1.0380
C6 C 0.4862(5) 0.1751(5) 0.8712(3)
H4 H 0.4120 0.2149 0.8355
C7 C 0.5699(5) 0.0716(5) 0.8463(3)
H5 H 0.5648 0.0271 0.7914
C8 C 0.8995(4) 0.0048(4) 0.7204(3)
H6 H 0.9792 0.0527 0.7449
C9 C 0.7154(5) -0.1350(5) 0.7060(3)
H7 H 0.6456 -0.1999 0.7176
C10 C 0.7336(5) -0.0732(5) 0.6281(3)
H8 H 0.6766 -0.0874 0.5758
N1 N 0.6649(3) 0.0435(4) 0.9172(2)
N2 N 0.5251(4) 0.2142(4) 0.9568(2)
N3 N 0.8208(3) -0.0832(4) 0.7655(2)
N4 N 0.8493(4) 0.0143(4) 0.6376(2)
S1 S 0.95426(13) -0.23371(15) 0.99772(9)
Ag1B Ag 0.56961(4) 0.63778(4) 0.96255(2)
Ag1C Ag 0.93039(4) 0.13778(4) 0.53745(2)
N4C N 0.3493(4) 0.4857(4) 1.1376(2)
N5 N 0.6729(5) 0.1819(5) 1.2360(3)
O1 O 0.7657(4) 0.1016(5) 1.2178(3)
O2 O 0.6348(4) 0.1934(5) 1.3102(3)
O3 O 0.6111(4) 0.2528(4) 1.1773(3)
O4 O 0.2231(4) 0.5449(5) 0.9164(3)
H9 H 0.2715 0.6020 0.8878
H10 H 0.1558 0.5112 0.8821
loop_
_geom_bond_atom_site_label_1
_geom_bond_atom_site_label_2
_geom_bond_site_symmetry_1
_geom_bond_site_symmetry_2
Ag1 N2 1_555 1_555
C1 H1 1_555 1_555
C2 C1 1_555 1_555
C3 C2 1_555 1_555
C4 C3 1_555 1_555
H2 C4 1_555 1_555
C5 H3 1_555 1_555
C6 H4 1_555 1_555
C7 C6 1_555 1_555
H5 C7 1_555 1_555
C8 H6 1_555 1_555
C9 H7 1_555 1_555
C10 C9 1_555 1_555
H8 C10 1_555 1_555
N1 C2 1_555 1_555
N2 C5 1_555 1_555
N3 C3 1_555 1_555
N4 C8 1_555 1_555
S1 C1 1_555 1_555
N5 O1 1_555 1_555
O2 N5 1_555 1_555
O3 N5 1_555 1_555
O4 H9 1_555 1_555
H10 O4 1_555 1_555
Ag1B Ag1 1_555 1_555
Ag1C N4 1_555 1_555
N4C Ag1 1_555 1_555
C4 S1 1_555 1_555
C5 N1 1_555 1_555
C6 N2 1_555 1_555
C7 N1 1_555 1_555
C8 N3 1_555 1_555
C9 N3 1_555 1_555
C10 N4 1_555 1_555

#END
