
#######################################################################
#
#                 Cambridge Crystallographic Data Centre
#                                CCDC 
#
#######################################################################
#
# If this CIF has been generated from an entry in the Cambridge 
# Structural Database, then it will include bibliographic, chemical, 
# crystal, experimental, refinement or atomic coordinate data resulting 
# from the CCDC's data processing and validation procedures.
#
#######################################################################

data_WITHAK
_symmetry_cell_setting           monoclinic
_symmetry_space_group_name_H-M   'P 21/c'
_symmetry_Int_Tables_number      14
_space_group_name_Hall           '-P 2ybc'
loop_
_symmetry_equiv_pos_site_id
_symmetry_equiv_pos_as_xyz
1 x,y,z
2 -x,1/2+y,1/2-z
3 -x,-y,-z
4 x,1/2-y,1/2+z
_cell_length_a                   9.5081(6)
_cell_length_b                   13.1649(9)
_cell_length_c                   13.5056(10)
_cell_angle_alpha                90
_cell_angle_beta                 127.0540(10)
_cell_angle_gamma                90
_cell_volume                     1349.16
loop_
_atom_site_label
_atom_site_type_symbol
_atom_site_fract_x
_atom_site_fract_y
_atom_site_fract_z
Ag1 Ag 0.54946(6) 0.26498(3) 0.89263(4)
C1 C 0.4722(6) 0.5002(3) 0.8631(4)
H1 H 0.5860 0.5168 0.8915
C2 C 0.2421(6) 0.4165(3) 0.8065(5)
H2 H 0.1670 0.3623 0.7880
C3 C 0.1964(6) 0.5157(3) 0.7933(5)
H3 H 0.0878 0.5422 0.7660
C4 C 0.3548(6) 0.6761(3) 0.8255(4)
C5 C 0.2181(7) 0.7410(4) 0.7591(6)
H4 H 0.1006 0.7210 0.7084
C6 C 0.2747(7) 0.8430(4) 0.7755(5)
H5 H 0.1980 0.8977 0.7364
C7 C 0.4505(5) 0.8528(3) 0.8534(4)
C8 C 0.7283(6) 0.9539(4) 0.9518(5)
H6 H 0.8103 0.9021 0.9781
C9 C 0.7606(6) 1.0540(3) 0.9649(5)
H7 H 0.8707 1.0835 1.0025
C10 C 0.4834(6) 1.0372(3) 0.8722(4)
H8 H 0.3653 1.0515 0.8339
N1 N 0.4144(5) 0.4071(3) 0.8510(3)
N2 N 0.3445(5) 0.5689(3) 0.8288(3)
N3 N 0.5505(4) 0.9428(3) 0.8918(3)
N4 N 0.6067(5) 1.1061(3) 0.9144(4)
S1 S 0.55496(14) 0.73729(8) 0.91094(13)
Cl1 Cl 1.03591(18) 0.33827(10) 1.09652(15)
O1 O 0.8470(5) 0.3685(3) 1.0122(4)
O2 O 1.1245(5) 0.3471(4) 1.2313(4)
O3 O 1.1292(6) 0.4078(3) 1.0608(5)
O4 O 1.0581(6) 0.2359(3) 1.0583(5)
Ag1_2 Ag 0.54946(6) 1.26498(3) 0.89263(4)
N4_2 N 0.6067(5) 0.1061(3) 0.9144(4)
loop_
_geom_bond_atom_site_label_1
_geom_bond_atom_site_label_2
_geom_bond_site_symmetry_1
_geom_bond_site_symmetry_2
Ag1 N1 1_555 1_555
C1 H1 1_555 1_555
C2 H2 1_555 1_555
C3 C2 1_555 1_555
H3 C3 1_555 1_555
C4 C5 1_555 1_555
C5 H4 1_555 1_555
C6 C5 1_555 1_555
H5 C6 1_555 1_555
C7 C6 1_555 1_555
C8 H6 1_555 1_555
C9 C8 1_555 1_555
H7 C9 1_555 1_555
C10 H8 1_555 1_555
N1 C1 1_555 1_555
N2 C1 1_555 1_555
N3 C7 1_555 1_555
N4 C9 1_555 1_555
S1 C4 1_555 1_555
Cl1 O1 1_555 1_555
O1 Ag1 1_555 1_555
O2 Cl1 1_555 1_555
O3 Cl1 1_555 1_555
O4 Cl1 1_555 1_555
Ag1_2 N4 1_555 1_555
N4_2 Ag1 1_555 1_555
C2 N1 1_555 1_555
C3 N2 1_555 1_555
C4 N2 1_555 1_555
C7 S1 1_555 1_555
C8 N3 1_555 1_555
C10 N3 1_555 1_555
C10 N4 1_555 1_555

#END
