
#######################################################################
#
#                 Cambridge Crystallographic Data Centre
#                                CCDC 
#
#######################################################################
#
# If this CIF has been generated from an entry in the Cambridge 
# Structural Database, then it will include bibliographic, chemical, 
# crystal, experimental, refinement or atomic coordinate data resulting 
# from the CCDC's data processing and validation procedures.
#
#######################################################################

data_WITHEO
_symmetry_cell_setting           monoclinic
_symmetry_space_group_name_H-M   'P 21/n'
_symmetry_Int_Tables_number      14
_space_group_name_Hall           '-P 2yn'
loop_
_symmetry_equiv_pos_site_id
_symmetry_equiv_pos_as_xyz
1 x,y,z
2 1/2-x,1/2+y,1/2-z
3 -x,-y,-z
4 1/2+x,1/2-y,1/2+z
_cell_length_a                   9.3474(11)
_cell_length_b                   10.4189(12)
_cell_length_c                   14.0975(16)
_cell_angle_alpha                90
_cell_angle_beta                 97.117(2)
_cell_angle_gamma                90
_cell_volume                     1362.37
loop_
_atom_site_label
_atom_site_type_symbol
_atom_site_fract_x
_atom_site_fract_y
_atom_site_fract_z
Ag1 Ag 0.00446(6) 0.28457(5) 0.43312(3)
C1 C 0.0149(6) 0.7289(6) 0.1342(4)
H1 H -0.0411 0.7635 0.1780
C2 C 0.1037(6) 0.6281(5) 0.1534(4)
C3 C 0.1795(6) 0.5978(5) 0.0749(4)
C4 C 0.1409(6) 0.6758(6) -0.0012(4)
H2 H 0.1783 0.6698 -0.0592
C5 C 0.0626(6) 0.4521(5) 0.2644(4)
H3 H 0.0016 0.4033 0.2215
C6 C 0.1919(7) 0.5180(6) 0.3929(4)
H4 H 0.2359 0.5215 0.4558
C7 C 0.2074(7) 0.6045(6) 0.3258(4)
H5 H 0.2629 0.6787 0.3331
C8 C 0.3044(7) 0.4251(6) 0.0001(4)
H6 H 0.2468 0.4271 -0.0586
C9 C 0.4719(7) 0.3767(6) 0.1134(4)
H7 H 0.5522 0.3379 0.1472
C10 C 0.3908(6) 0.4681(6) 0.1479(4)
H8 H 0.4045 0.5037 0.2088
N1 N 0.1254(5) 0.5632(4) 0.2431(3)
N2 N 0.1005(5) 0.4226(5) 0.3550(3)
N3 N 0.2831(5) 0.4988(4) 0.0752(3)
N4 N 0.4173(5) 0.3494(5) 0.0200(3)
S1 S 0.0158(2) 0.78563(16) 0.02286(13)
Ag1C Ag 0.50446(6) 0.21543(5) -0.06688(3)
N4C N -0.0827(5) 0.1506(5) 0.5200(3)
Cl1 Cl 0.20927(16) 0.91620(14) 0.80940(10)
O1 O 0.3227(5) 0.8729(6) 0.8763(4)
O2 O 0.0747(13) 0.854(2) 0.8179(15)
O3 O 0.252(3) 0.899(4) 0.7208(14)
O4 O 0.185(3) 1.040(2) 0.824(3)
O5? O 0.119(5) 0.817(2) 0.788(2)
O6? O 0.241(2) 0.980(2) 0.7280(14)
O7? O 0.136(5) 1.005(4) 0.8523(15)
loop_
_geom_bond_atom_site_label_1
_geom_bond_atom_site_label_2
_geom_bond_site_symmetry_1
_geom_bond_site_symmetry_2
Ag1 N2 1_555 1_555
C1 H1 1_555 1_555
C2 C1 1_555 1_555
C3 C2 1_555 1_555
C4 C3 1_555 1_555
H2 C4 1_555 1_555
C5 H3 1_555 1_555
C6 H4 1_555 1_555
C7 C6 1_555 1_555
H5 C7 1_555 1_555
C8 H6 1_555 1_555
C9 H7 1_555 1_555
C10 C9 1_555 1_555
H8 C10 1_555 1_555
N1 C2 1_555 1_555
N2 C5 1_555 1_555
N3 C3 1_555 1_555
N4 C8 1_555 1_555
S1 C1 1_555 1_555
Cl1 O1 1_555 1_555
O2 Cl1 1_555 1_555
O3 Cl1 1_555 1_555
O4 Cl1 1_555 1_555
Ag1C N4 1_555 1_555
N4C Ag1 1_555 1_555
C4 S1 1_555 1_555
C5 N1 1_555 1_555
C6 N2 1_555 1_555
C7 N1 1_555 1_555
C8 N3 1_555 1_555
C9 N4 1_555 1_555
C10 N3 1_555 1_555

#END
