
#######################################################################
#
#                 Cambridge Crystallographic Data Centre
#                                CCDC 
#
#######################################################################
#
# If this CIF has been generated from an entry in the Cambridge 
# Structural Database, then it will include bibliographic, chemical, 
# crystal, experimental, refinement or atomic coordinate data resulting 
# from the CCDC's data processing and validation procedures.
#
#######################################################################

data_WITJUG
_symmetry_cell_setting           monoclinic
_symmetry_space_group_name_H-M   'P 21/n'
_symmetry_Int_Tables_number      14
_space_group_name_Hall           '-P 2yn'
loop_
_symmetry_equiv_pos_site_id
_symmetry_equiv_pos_as_xyz
1 x,y,z
2 1/2-x,1/2+y,1/2-z
3 -x,-y,-z
4 1/2+x,1/2-y,1/2+z
_cell_length_a                   18.0352(10)
_cell_length_b                   25.8676(13)
_cell_length_c                   18.0584(9)
_cell_angle_alpha                90
_cell_angle_beta                 118.861(3)
_cell_angle_gamma                90
_cell_volume                     7378.33
loop_
_atom_site_label
_atom_site_type_symbol
_atom_site_fract_x
_atom_site_fract_y
_atom_site_fract_z
O23 O 0.9990(7) 0.1455(3) 0.1292(4)
O24 O 0.8696(4) -0.1459(3) 0.0035(7)
Mn1 Mn 1.0000 0.0000 0.0000
Mn2 Mn 0.92690(5) 0.08314(3) -0.19842(5)
Mn3 Mn 0.89337(6) 0.00004(3) 0.10682(6)
Mn4 Mn 0.80174(5) 0.08320(3) -0.07292(5)
S1 S 0.53421(10) -0.09614(5) -0.46593(10)
S2 S 0.43971(17) -0.17623(8) -0.2282(2)
S3 S 0.7724(2) -0.17614(9) 0.44001(17)
O1 O 0.91579(17) 0.04786(9) 0.02127(16)
O2 O 1.02073(17) 0.04811(9) -0.08492(16)
O3 O 0.8905(2) -0.03242(12) -0.1099(2)
O4 O 0.6293(3) -0.34689(13) -0.4408(2)
O5 O 0.2303(3) -0.11371(14) -0.0187(3)
O6 O 0.7204(2) 0.01703(14) -0.0954(2)
O7 O 0.6936(3) 0.12280(17) -0.1755(3)
O8 O 0.8373(2) 0.04624(11) -0.1629(2)
O9 O 0.5591(3) -0.34678(13) -0.3710(3)
O10 O 0.9819(3) -0.11439(14) 0.2311(3)
O11 O 0.9050(3) 0.01695(14) 0.7211(2)
O12 O 0.8237(3) 0.12281(17) -0.3070(3)
O13 O 0.1920(4) -0.0518(2) -0.1123(3)
O14 O 0.8872(3) -0.0517(2) 0.1918(3)
O15 O 0.7931(3) -0.04188(17) 0.0042(3)
O16 O 1.0035(3) -0.04181(17) 0.7925(3)
O17 O 0.5404(3) -0.08091(14) -0.5394(2)
O18 O 0.4610(3) -0.08082(14) -0.4600(3)
O19 O 0.3961(5) -0.1687(3) -0.3188(5)
O20 O 0.4702(4) -0.22679(19) -0.1950(6)
O21 O 0.6842(6) -0.1703(3) 0.3977(4)
O22 O 0.8051(6) -0.22737(19) 0.4698(4)
C1 C 0.8357(4) -0.00378(19) -0.1645(3)
C2 C 0.7611(3) -0.02695(17) -0.2387(3)
C3 C 0.6999(4) 0.00270(18) -0.3001(3)
H1 H 0.7053 0.0385 -0.2949
C4 C 0.6304(4) -0.01751(19) -0.3695(4)
H2 H 0.5896 0.0038 -0.4103
C5 C 0.6238(3) -0.07139(17) -0.3761(3)
C6 C 0.6856(4) -0.10227(18) -0.3148(4)
H3 H 0.6813 -0.1381 -0.3196
C7 C 0.7523(4) -0.08025(17) -0.2479(3)
H4 H 0.7933 -0.1014 -0.2070
C8 C 0.5452(3) -0.16307(16) -0.4548(3)
C9 C 0.5137(3) -0.18952(19) -0.4096(4)
H5 H 0.4843 -0.1718 -0.3871
C10 C 0.5257(3) -0.24161(18) -0.3976(3)
H6 H 0.5026 -0.2592 -0.3687
C11 C 0.5719(3) -0.26863(16) -0.4280(3)
C12 C 0.6030(4) -0.24182(18) -0.4738(3)
H7 H 0.6327 -0.2595 -0.4961
C13 C 0.5903(4) -0.18921(19) -0.4867(3)
H8 H 0.6122 -0.1715 -0.5167
C14 C 0.5878(4) -0.32505(17) -0.4125(4)
C15 C 0.7317(5) -0.0264(2) -0.0611(5)
C16 C 0.6576(4) -0.0630(2) -0.1043(5)
C17 C 0.5924(5) -0.0544(3) -0.1859(5)
H9 H 0.5929 -0.0244 -0.2140
C18 C 0.5257(5) -0.0897(3) -0.2270(5)
H10 H 0.4834 -0.0833 -0.2821
C19 C 0.5230(5) -0.1330(3) -0.1861(6)
C20 C 0.5865(5) -0.1430(3) -0.1056(7)
H11 H 0.5837 -0.1730 -0.0787
C21 C 0.6576(5) -0.1085(2) -0.0612(6)
H12 H 0.7010 -0.1159 -0.0071
C22 C 0.3758(5) -0.1543(3) -0.1863(5)
C23 C 0.3210(5) -0.1154(3) -0.2259(5)
H13 H 0.3150 -0.1026 -0.2767
C24 C 0.2736(5) -0.0943(3) -0.1917(4)
H14 H 0.2386 -0.0660 -0.2170
C25 C 0.2794(4) -0.1163(2) -0.1187(4)
C26 C 0.3309(5) -0.1562(2) -0.0816(5)
H15 H 0.3338 -0.1710 -0.0333
C27 C 0.3810(5) -0.1760(2) -0.1154(5)
H16 H 0.4173 -0.2037 -0.0895
C28 C 0.2296(4) -0.0921(2) -0.0798(5)
C29 C 0.9196(5) -0.0922(2) 0.2288(4)
C30 C 0.8819(4) -0.1165(2) 0.2797(4)
C31 C 0.8104(5) -0.0955(3) 0.2735(4)
H17 H 0.7857 -0.0672 0.2382
C32 C 0.7733(5) -0.1159(4) 0.3199(5)
H18 H 0.7221 -0.1029 0.3126
C33 C 0.8127(6) -0.1543(3) 0.3747(5)
C34 C 0.8845(6) -0.1758(2) 0.3823(5)
H19 H 0.9111 -0.2026 0.4204
C35 C 0.9193(5) -0.1566(2) 0.3308(4)
H20 H 0.9670 -0.1719 0.3331
C36 C 0.8141(6) -0.1327(3) 0.5230(5)
C37 C 0.7741(5) -0.0897(3) 0.5265(4)
H21 H 0.7190 -0.0831 0.4845
C38 C 0.8160(5) -0.0549(2) 0.5941(4)
H22 H 0.7879 -0.0249 0.5951
C39 C 0.8965(5) -0.0633(2) 0.6587(4)
C40 C 0.9401(6) -0.1080(3) 0.6578(4)
H23 H 0.9947 -0.1151 0.7006
C41 C 0.8950(7) -0.1427(2) 0.5860(5)
H24 H 0.9218 -0.1727 0.5829
C42 C 0.9401(5) -0.0257(2) 0.7321(4)
Mn2B Mn 0.07310(5) -0.08314(3) 0.19842(5)
Mn3B Mn 0.10663(6) -0.00004(3) -0.10682(6)
Mn4B Mn 0.19826(5) -0.08320(3) 0.07292(5)
S1B S 0.46579(10) 0.09614(5) 0.46593(10)
S2B S 0.56029(17) 0.17623(8) 0.2282(2)
S3B S 0.2276(2) 0.17614(9) -0.44001(17)
O1B O 0.08421(17) -0.04786(9) -0.02127(16)
O2B O -0.02073(17) -0.04811(9) 0.08492(16)
O3B O 0.1095(2) 0.03242(12) 0.1099(2)
O4B O 0.3707(3) 0.34689(13) 0.4408(2)
O5B O 0.7697(3) 0.11371(14) 0.0187(3)
O6B O 0.2796(2) -0.01703(14) 0.0954(2)
O7B O 0.3064(3) -0.12280(17) 0.1755(3)
O8B O 0.1627(2) -0.04624(11) 0.1629(2)
O9B O 0.4409(3) 0.34678(13) 0.3710(3)
O10B O 0.0181(3) 0.11439(14) -0.2311(3)
O11B O 0.0950(3) -0.01695(14) -0.7211(2)
O12B O 0.1763(3) -0.12281(17) 0.3070(3)
O13B O 0.8080(4) 0.0518(2) 0.1123(3)
O14B O 0.1128(3) 0.0517(2) -0.1918(3)
O15B O 0.2069(3) 0.04188(17) -0.0042(3)
O16B O -0.0035(3) 0.04181(17) -0.7925(3)
O17B O 0.4596(3) 0.08091(14) 0.5394(2)
O18B O 0.5390(3) 0.08082(14) 0.4600(3)
O19B O 0.6039(5) 0.1687(3) 0.3188(5)
O20B O 0.5298(4) 0.22679(19) 0.1950(6)
O21B O 0.3158(6) 0.1703(3) -0.3977(4)
O22B O 0.1949(6) 0.22737(19) -0.4698(4)
C1B C 0.1643(4) 0.00378(19) 0.1645(3)
C2B C 0.2389(3) 0.02695(17) 0.2387(3)
C3B C 0.3001(4) -0.00270(18) 0.3001(3)
H1B H 0.2947 -0.0385 0.2949
C4B C 0.3696(4) 0.01751(19) 0.3695(4)
H2B H 0.4104 -0.0038 0.4103
C5B C 0.3762(3) 0.07139(17) 0.3761(3)
C6B C 0.3144(4) 0.10227(18) 0.3148(4)
H3B H 0.3187 0.1381 0.3196
C7B C 0.2477(4) 0.08025(17) 0.2479(3)
H4B H 0.2067 0.1014 0.2070
C8B C 0.4548(3) 0.16307(16) 0.4548(3)
C9B C 0.4863(3) 0.18952(19) 0.4096(4)
H5B H 0.5157 0.1718 0.3871
C10B C 0.4743(3) 0.24161(18) 0.3976(3)
H6B H 0.4974 0.2592 0.3687
C11B C 0.4281(3) 0.26863(16) 0.4280(3)
C12B C 0.3970(4) 0.24182(18) 0.4738(3)
H7B H 0.3673 0.2595 0.4961
C13B C 0.4097(4) 0.18921(19) 0.4867(3)
H8B H 0.3878 0.1715 0.5167
C14B C 0.4122(4) 0.32505(17) 0.4125(4)
C15B C 0.2683(5) 0.0264(2) 0.0611(5)
C16B C 0.3424(4) 0.0630(2) 0.1043(5)
C17B C 0.4076(5) 0.0544(3) 0.1859(5)
H9B H 0.4071 0.0244 0.2140
C18B C 0.4743(5) 0.0897(3) 0.2270(5)
H10B H 0.5166 0.0833 0.2821
C19B C 0.4770(5) 0.1330(3) 0.1861(6)
C20B C 0.4135(5) 0.1430(3) 0.1056(7)
H11B H 0.4163 0.1730 0.0787
C21B C 0.3424(5) 0.1085(2) 0.0612(6)
H12B H 0.2990 0.1159 0.0071
C22B C 0.6242(5) 0.1543(3) 0.1863(5)
C23B C 0.6790(5) 0.1154(3) 0.2259(5)
H13B H 0.6850 0.1026 0.2767
C24B C 0.7264(5) 0.0943(3) 0.1917(4)
H14B H 0.7614 0.0660 0.2170
C25B C 0.7206(4) 0.1163(2) 0.1187(4)
C26B C 0.6691(5) 0.1562(2) 0.0816(5)
H15B H 0.6662 0.1710 0.0333
C27B C 0.6190(5) 0.1760(2) 0.1154(5)
H16B H 0.5827 0.2037 0.0895
C28B C 0.7704(4) 0.0921(2) 0.0798(5)
C29B C 0.0804(5) 0.0922(2) -0.2288(4)
C30B C 0.1181(4) 0.1165(2) -0.2797(4)
C31B C 0.1896(5) 0.0955(3) -0.2735(4)
H17B H 0.2143 0.0672 -0.2382
C32B C 0.2267(5) 0.1159(4) -0.3199(5)
H18B H 0.2779 0.1029 -0.3126
C33B C 0.1873(6) 0.1543(3) -0.3747(5)
C34B C 0.1155(6) 0.1758(2) -0.3823(5)
H19B H 0.0889 0.2026 -0.4204
C35B C 0.0807(5) 0.1566(2) -0.3308(4)
H20B H 0.0330 0.1719 -0.3331
C36B C 0.1859(6) 0.1327(3) -0.5230(5)
C37B C 0.2259(5) 0.0897(3) -0.5265(4)
H21B H 0.2810 0.0831 -0.4845
C38B C 0.1840(5) 0.0549(2) -0.5941(4)
H22B H 0.2121 0.0249 -0.5951
C39B C 0.1035(5) 0.0633(2) -0.6587(4)
C40B C 0.0599(6) 0.1080(3) -0.6578(4)
H23B H 0.0053 0.1151 -0.7006
C41B C 0.1050(7) 0.1427(2) -0.5860(5)
H24B H 0.0782 0.1727 -0.5829
C42B C 0.0599(5) 0.0257(2) -0.7321(4)
Mn1_2 Mn 0.0000 0.0000 0.0000
Mn2_2 Mn -0.07310(5) 0.08314(3) -0.19842(5)
Mn2_3 Mn 0.92690(5) 0.08314(3) 0.80158(5)
Mn2A Mn 0.57310(5) -0.41686(3) -0.30158(5)
Mn2B_2 Mn 0.07310(5) -0.08314(3) -0.80158(5)
Mn2B_3 Mn 1.07310(5) -0.08314(3) 0.19842(5)
Mn2C Mn 0.42690(5) 0.41686(3) 0.30158(5)
Mn3_2 Mn -0.10663(6) 0.00004(3) -0.89318(6)
Mn3_3 Mn -0.10663(6) 0.00004(3) 0.10682(6)
Mn3B_2 Mn 1.10663(6) -0.00004(3) -0.10682(6)
Mn3B_3 Mn 1.10663(6) -0.00004(3) 0.89318(6)
Mn4A Mn 0.69826(5) -0.41680(3) -0.42708(5)
Mn4C Mn 0.30174(5) 0.41680(3) 0.42708(5)
O1B_2 O 1.08421(17) -0.04786(9) -0.02127(16)
O2_2 O 0.02073(17) 0.04811(9) -0.08492(16)
O2B_2 O 0.97927(17) -0.04811(9) 0.08492(16)
O3B_2 O 1.1095(2) 0.03242(12) 0.1099(2)
O4A O 0.8707(3) 0.15311(13) -0.0592(2)
O4C O 0.1293(3) -0.15311(13) 0.0592(2)
O9A O 0.9409(3) 0.15322(13) -0.1290(3)
O9C O 0.0591(3) -0.15322(13) 0.1290(3)
O10_2 O -0.0181(3) -0.11439(14) 0.2311(3)
O10B_2 O 1.0181(3) 0.11439(14) -0.2311(3)
O11_2 O 0.9050(3) 0.01695(14) -0.2789(2)
O11B_2 O 0.0950(3) -0.01695(14) 0.2789(2)
O16_2 O 0.0035(3) -0.04181(17) -0.2075(3)
O16B_2 O 0.9965(3) 0.04181(17) 0.2075(3)
loop_
_geom_bond_atom_site_label_1
_geom_bond_atom_site_label_2
_geom_bond_site_symmetry_1
_geom_bond_site_symmetry_2
Mn1 O1 1_555 1_555
Mn2 O2 1_555 1_555
Mn3 O1 1_555 1_555
Mn4 O1 1_555 1_555
S1 O17 1_555 1_555
S2 O19 1_555 1_555
S3 O21 1_555 1_555
O2 Mn1 1_555 1_555
O3 Mn1 1_555 1_555
O4 C14 1_555 1_555
O5 C28 1_555 1_555
O6 Mn4 1_555 1_555
O7 Mn4 1_555 1_555
O8 Mn2 1_555 1_555
O9 C14 1_555 1_555
O10 C29 1_555 1_555
O11 C42 1_555 1_555
O12 Mn2 1_555 1_555
O13 C28 1_555 1_555
O14 Mn3 1_555 1_555
O15 Mn3 1_555 1_555
O16 C42 1_555 1_555
O18 S1 1_555 1_555
O20 S2 1_555 1_555
O22 S3 1_555 1_555
C1 O3 1_555 1_555
C2 C1 1_555 1_555
C3 C2 1_555 1_555
H1 C3 1_555 1_555
C4 C3 1_555 1_555
H2 C4 1_555 1_555
C5 S1 1_555 1_555
C6 C5 1_555 1_555
H3 C6 1_555 1_555
C7 C2 1_555 1_555
H4 C7 1_555 1_555
C8 S1 1_555 1_555
C9 C8 1_555 1_555
H5 C9 1_555 1_555
C10 C9 1_555 1_555
H6 C10 1_555 1_555
C11 C10 1_555 1_555
C12 C11 1_555 1_555
H7 C12 1_555 1_555
C13 C8 1_555 1_555
H8 C13 1_555 1_555
C14 C11 1_555 1_555
C15 O6 1_555 1_555
C16 C15 1_555 1_555
C17 C16 1_555 1_555
H9 C17 1_555 1_555
C18 C17 1_555 1_555
H10 C18 1_555 1_555
C19 S2 1_555 1_555
C20 C19 1_555 1_555
H11 C20 1_555 1_555
C21 C16 1_555 1_555
H12 C21 1_555 1_555
C22 S2 1_555 1_555
C23 C22 1_555 1_555
H13 C23 1_555 1_555
C24 C23 1_555 1_555
H14 C24 1_555 1_555
C25 C24 1_555 1_555
C26 C25 1_555 1_555
H15 C26 1_555 1_555
C27 C22 1_555 1_555
H16 C27 1_555 1_555
C28 C25 1_555 1_555
C29 O14 1_555 1_555
C30 C29 1_555 1_555
C31 C30 1_555 1_555
H17 C31 1_555 1_555
C32 C31 1_555 1_555
H18 C32 1_555 1_555
C33 S3 1_555 1_555
C34 C33 1_555 1_555
H19 C34 1_555 1_555
C35 C30 1_555 1_555
H20 C35 1_555 1_555
C36 S3 1_555 1_555
C37 C36 1_555 1_555
H21 C37 1_555 1_555
C38 C37 1_555 1_555
H22 C38 1_555 1_555
C39 C38 1_555 1_555
C40 C39 1_555 1_555
H23 C40 1_555 1_555
C41 C36 1_555 1_555
H24 C41 1_555 1_555
C42 C39 1_555 1_555
Mn2B O2B 1_555 1_555
Mn3B O13 1_555 1_555
Mn4B O5 1_555 1_555
S1B O17B 1_555 1_555
S2B O19B 1_555 1_555
S3B O21B 1_555 1_555
O1B Mn3B 1_555 1_555
O2B Mn1_2 1_555 1_555
O3B C1B 1_555 1_555
O4B C14B 1_555 1_555
O5B Mn4 1_555 1_555
O6B Mn4B 1_555 1_555
O7B Mn4B 1_555 1_555
O8B Mn2B 1_555 1_555
O9B C14B 1_555 1_555
O10B C29B 1_555 1_555
O11B C42B 1_555 1_555
O12B Mn2B 1_555 1_555
O13B Mn3 1_555 1_555
O14B Mn3B 1_555 1_555
O15B Mn3B 1_555 1_555
O16B C42B 1_555 1_555
O18B S1B 1_555 1_555
O20B S2B 1_555 1_555
O22B S3B 1_555 1_555
C1B O8B 1_555 1_555
C2B C1B 1_555 1_555
C3B C2B 1_555 1_555
H1B C3B 1_555 1_555
C4B C3B 1_555 1_555
H2B C4B 1_555 1_555
C5B S1B 1_555 1_555
C6B C5B 1_555 1_555
H3B C6B 1_555 1_555
C7B C2B 1_555 1_555
H4B C7B 1_555 1_555
C8B S1B 1_555 1_555
C9B C8B 1_555 1_555
H5B C9B 1_555 1_555
C10B C9B 1_555 1_555
H6B C10B 1_555 1_555
C11B C10B 1_555 1_555
C12B C11B 1_555 1_555
H7B C12B 1_555 1_555
C13B C8B 1_555 1_555
H8B C13B 1_555 1_555
C14B C11B 1_555 1_555
C15B O6B 1_555 1_555
C16B C15B 1_555 1_555
C17B C16B 1_555 1_555
H9B C17B 1_555 1_555
C18B C17B 1_555 1_555
H10B C18B 1_555 1_555
C19B S2B 1_555 1_555
C20B C19B 1_555 1_555
H11B C20B 1_555 1_555
C21B C16B 1_555 1_555
H12B C21B 1_555 1_555
C22B S2B 1_555 1_555
C23B C22B 1_555 1_555
H13B C23B 1_555 1_555
C24B C23B 1_555 1_555
H14B C24B 1_555 1_555
C25B C24B 1_555 1_555
C26B C25B 1_555 1_555
H15B C26B 1_555 1_555
C27B C22B 1_555 1_555
H16B C27B 1_555 1_555
C28B O5B 1_555 1_555
C29B O14B 1_555 1_555
C30B C29B 1_555 1_555
C31B C30B 1_555 1_555
H17B C31B 1_555 1_555
C32B C31B 1_555 1_555
H18B C32B 1_555 1_555
C33B S3B 1_555 1_555
C34B C33B 1_555 1_555
H19B C34B 1_555 1_555
C35B C30B 1_555 1_555
H20B C35B 1_555 1_555
C36B S3B 1_555 1_555
C37B C36B 1_555 1_555
H21B C37B 1_555 1_555
C38B C37B 1_555 1_555
H22B C38B 1_555 1_555
C39B C38B 1_555 1_555
C40B C39B 1_555 1_555
H23B C40B 1_555 1_555
C41B C36B 1_555 1_555
H24B C41B 1_555 1_555
C42B C39B 1_555 1_555
Mn1_2 O1B 1_555 1_555
Mn2_2 O10B 1_555 1_555
Mn2_3 O11 1_555 1_555
Mn2A O9 1_555 1_555
Mn2B_2 O11B 1_555 1_555
Mn2B_3 O10 1_555 1_555
Mn2C O9B 1_555 1_555
Mn3_2 O16B 1_555 1_555
Mn3_3 O2B 1_555 1_555
Mn3B_2 O2 1_555 1_555
Mn3B_3 O16 1_555 1_555
Mn4A O4 1_555 1_555
Mn4C O4B 1_555 1_555
O1B_2 Mn1 1_555 1_555
O2_2 Mn3B 1_555 1_555
O2B_2 Mn1 1_555 1_555
O3B_2 Mn1 1_555 1_555
O4A Mn4 1_555 1_555
O4C Mn4B 1_555 1_555
O9A Mn2 1_555 1_555
O9C Mn2B 1_555 1_555
O10_2 Mn2B 1_555 1_555
O10B_2 Mn2 1_555 1_555
O11_2 Mn2 1_555 1_555
O11B_2 Mn2B 1_555 1_555
O16_2 Mn3B 1_555 1_555
O16B_2 Mn3 1_555 1_555
Mn3 O2B_2 1_555 1_555
Mn4 O8 1_555 1_555
O8 C1 1_555 1_555
O15 C15 1_555 1_555
C4 C5 1_555 1_555
C6 C7 1_555 1_555
C12 C13 1_555 1_555
C18 C19 1_555 1_555
C20 C21 1_555 1_555
C26 C27 1_555 1_555
C32 C33 1_555 1_555
C34 C35 1_555 1_555
C40 C41 1_555 1_555
Mn4B O1B 1_555 1_555
Mn4B O8B 1_555 1_555
O3B Mn1_2 1_555 1_555
O13B C28B 1_555 1_555
O15B C15B 1_555 1_555
C4B C5B 1_555 1_555
C6B C7B 1_555 1_555
C12B C13B 1_555 1_555
C18B C19B 1_555 1_555
C20B C21B 1_555 1_555
C25B C28B 1_555 1_555
C26B C27B 1_555 1_555
C32B C33B 1_555 1_555
C34B C35B 1_555 1_555
C40B C41B 1_555 1_555
Mn1_2 O2_2 1_555 1_555
Mn2_2 O2_2 1_555 1_555
Mn2B_3 O2B_2 1_555 1_555
Mn3B_2 O1B_2 1_555 1_555

#END
