
#######################################################################
#
#                 Cambridge Crystallographic Data Centre
#                                CCDC 
#
#######################################################################
#
# If this CIF has been generated from an entry in the Cambridge 
# Structural Database, then it will include bibliographic, chemical, 
# crystal, experimental, refinement or atomic coordinate data resulting 
# from the CCDC's data processing and validation procedures.
#
#######################################################################

data_WITJEQ
_symmetry_cell_setting           orthorhombic
_symmetry_space_group_name_H-M   'P n a 21'
_symmetry_Int_Tables_number      33
_space_group_name_Hall           'P 2c -2n'
loop_
_symmetry_equiv_pos_site_id
_symmetry_equiv_pos_as_xyz
1 x,y,z
2 -x,-y,1/2+z
3 1/2+x,1/2-y,z
4 1/2-x,1/2+y,1/2+z
_cell_length_a                   26.249(3)
_cell_length_b                   10.0932(13)
_cell_length_c                   47.440(6)
_cell_angle_alpha                90
_cell_angle_beta                 90
_cell_angle_gamma                90
_cell_volume                     12568.6
loop_
_atom_site_label
_atom_site_type_symbol
_atom_site_fract_x
_atom_site_fract_y
_atom_site_fract_z
Zn1 Zn 0.66626(2) 0.18878(7) 0.43715(2)
O1 O 0.67814(17) -0.0191(5) 0.44417(9)
O2 O 0.66242(18) 0.3916(5) 0.42603(11)
Zn2 Zn 0.59842(2) 0.81437(7) 0.50032(2)
O3 O 0.58710(16) 1.0211(5) 0.49346(8)
O4 O 0.60269(18) 0.6086(5) 0.51135(11)
O5 O 0.69743(19) 0.2162(5) 0.34338(9)
C1 C 0.6787(3) 0.2087(7) 0.31582(13)
C2 C 0.7033(3) 0.2787(7) 0.29508(13)
C3 C 0.6825(3) 0.2818(7) 0.26815(13)
H1 H 0.6995 0.3296 0.2537
C4 C 0.6365(3) 0.2148(7) 0.26184(14)
C5 C 0.6131(3) 0.1469(7) 0.28352(14)
H2 H 0.5823 0.1010 0.2797
C6 C 0.6329(3) 0.1426(7) 0.31105(13)
C7 C 0.6158(3) 0.2134(8) 0.23165(14)
C8 C 0.6298(5) 0.3419(10) 0.21570(17)
H3 H 0.6669 0.3526 0.2156
H4 H 0.6141 0.4180 0.2251
H5 H 0.6174 0.3364 0.1963
C9 C 0.6405(5) 0.0966(11) 0.21644(18)
H6 H 0.6316 0.0141 0.2261
H7 H 0.6776 0.1078 0.2165
H8 H 0.6282 0.0931 0.1970
C10 C 0.5586(4) 0.1994(12) 0.2310(2)
H9 H 0.5429 0.2776 0.2396
H10 H 0.5486 0.1200 0.2415
H11 H 0.5471 0.1913 0.2114
C11 C 0.6041(2) 0.0716(7) 0.33423(14)
H12 H 0.6266 0.0622 0.3509
H13 H 0.5950 -0.0184 0.3277
O6 O 0.60203(19) 0.3117(5) 0.36980(11)
H14 H 0.6244 0.2524 0.3705
C12 C 0.5572(2) 0.2588(7) 0.35936(13)
C13 C 0.5557(3) 0.1448(7) 0.34294(14)
C14 C 0.5088(3) 0.0987(9) 0.33409(18)
H15 H 0.5076 0.0186 0.3236
C15 C 0.4642(3) 0.1628(11) 0.3398(2)
C16 C 0.4664(3) 0.2806(10) 0.35555(18)
H16 H 0.4358 0.3270 0.3597
C17 C 0.5132(3) 0.3307(7) 0.36534(14)
C18 C 0.4114(4) 0.1285(15) 0.3274(2)
C19 C 0.4131(5) 0.0084(19) 0.3102(4)
H17 H 0.4393 0.0180 0.2956
H18 H 0.3799 -0.0054 0.3013
H19 H 0.4212 -0.0678 0.3222
C20 C 0.3709(3) 0.1267(12) 0.35026(19)
H20 H 0.3725 0.2095 0.3610
H21 H 0.3770 0.0516 0.3629
H22 H 0.3372 0.1179 0.3416
C21 C 0.3938(5) 0.234(2) 0.3061(3)
H23 H 0.3916 0.3202 0.3155
H24 H 0.3602 0.2097 0.2987
H25 H 0.4183 0.2391 0.2906
C22 C 0.5171(3) 0.4619(8) 0.37962(14)
H26 H 0.5367 0.4527 0.3974
H27 H 0.4827 0.4951 0.3843
O7 O 0.60749(19) 0.6027(5) 0.39484(10)
C23 C 0.5891(3) 0.6172(8) 0.36739(14)
C24 C 0.5438(3) 0.5589(7) 0.36015(14)
C25 C 0.5245(4) 0.5776(8) 0.33283(15)
H28 H 0.4924 0.5409 0.3279
C26 C 0.5519(4) 0.6496(8) 0.31291(15)
C27 C 0.5995(4) 0.6999(8) 0.32054(16)
H29 H 0.6186 0.7471 0.3068
C28 C 0.6204(3) 0.6839(8) 0.34775(14)
C29 C 0.5330(5) 0.6633(9) 0.28262(18)
C30 C 0.5555(11) 0.559(2) 0.2659(3)
H30 H 0.5492 0.4735 0.2750
H31 H 0.5923 0.5740 0.2644
H32 H 0.5404 0.5594 0.2470
C31 C 0.5390(7) 0.8024(13) 0.2715(3)
H33 H 0.5243 0.8653 0.2849
H34 H 0.5214 0.8102 0.2534
H35 H 0.5753 0.8220 0.2689
C32 C 0.4693(11) 0.658(3) 0.2822(7)
H36 H 0.4558 0.7348 0.2924
H37 H 0.4576 0.5765 0.2912
H38 H 0.4573 0.6607 0.2626
C33 C 0.6723(3) 0.7345(9) 0.35406(15)
H39 H 0.6835 0.7023 0.3728
H40 H 0.6720 0.8325 0.3544
O8 O 0.7037(2) 0.4772(5) 0.35170(10)
H41 H 0.7216 0.4084 0.3530
C34 C 0.7200(3) 0.5501(8) 0.32948(14)
C35 C 0.7092(3) 0.6858(8) 0.33134(16)
C36 C 0.7292(4) 0.7707(9) 0.31112(16)
H42 H 0.7218 0.8626 0.3124
C37 C 0.7599(4) 0.7259(9) 0.28885(16)
C38 C 0.7660(4) 0.5903(8) 0.28661(15)
H43 H 0.7845 0.5560 0.2711
C39 C 0.7458(3) 0.5015(7) 0.30640(14)
C40 C 0.7856(5) 0.8262(9) 0.26948(18)
C41 C 0.7452(4) 0.9055(11) 0.2534(2)
H44 H 0.7222 0.8444 0.2436
H45 H 0.7620 0.9629 0.2395
H46 H 0.7258 0.9599 0.2667
C42 C 0.8184(6) 0.9235(11) 0.2865(2)
H47 H 0.7968 0.9716 0.2999
H48 H 0.8347 0.9866 0.2737
H49 H 0.8446 0.8743 0.2969
C43 C 0.8203(5) 0.7618(11) 0.24826(19)
H50 H 0.8304 0.8272 0.2340
H51 H 0.8024 0.6884 0.2391
H52 H 0.8507 0.7280 0.2578
C44 C 0.7526(3) 0.3543(8) 0.30144(14)
H53 H 0.7686 0.3148 0.3184
H54 H 0.7764 0.3417 0.2855
C45 C 0.7249(3) 0.1057(7) 0.35406(13)
H55 H 0.7618 0.1261 0.3540
H56 H 0.7192 0.0282 0.3417
C46 C 0.7082(2) 0.0721(7) 0.38371(13)
O9 O 0.72888(19) -0.0245(5) 0.39496(10)
O10 O 0.67385(17) 0.1486(5) 0.39406(10)
C47 C 0.5989(3) 0.7206(8) 0.41040(15)
H57 H 0.5652 0.7576 0.4052
H58 H 0.6252 0.7868 0.4054
C48 C 0.6005(2) 0.6955(7) 0.44248(14)
O11 O 0.5956(3) 0.5825(6) 0.45185(12)
O12 O 0.60457(16) 0.7996(5) 0.45681(10)
O13 O 0.56873(17) 0.7846(5) 0.59412(9)
C49 C 0.5876(2) 0.7924(6) 0.62149(12)
C50 C 0.6327(3) 0.8602(7) 0.62674(14)
C51 C 0.6512(3) 0.8609(7) 0.65434(14)
H59 H 0.6814 0.9089 0.6585
C52 C 0.6260(3) 0.7918(8) 0.67614(14)
C53 C 0.5822(3) 0.7256(8) 0.66958(15)
H60 H 0.5652 0.6782 0.6841
C54 C 0.5612(2) 0.7244(7) 0.64245(13)
C55 C 0.6462(3) 0.8003(9) 0.70640(15)
C56 C 0.7037(4) 0.8120(16) 0.7071(2)
H61 H 0.7156 0.8059 0.7266
H62 H 0.7140 0.8975 0.6991
H63 H 0.7188 0.7401 0.6960
C57 C 0.6254(6) 0.9231(11) 0.7198(2)
H64 H 0.6500 0.9573 0.7335
H65 H 0.5933 0.9023 0.7294
H66 H 0.6192 0.9903 0.7053
C58 C 0.6297(5) 0.6813(11) 0.7239(2)
H67 H 0.5929 0.6856 0.7273
H68 H 0.6478 0.6821 0.7420
H69 H 0.6379 0.5995 0.7137
C59 C 0.5126(3) 0.6491(7) 0.63591(14)
H70 H 0.4972 0.6858 0.6185
H71 H 0.4880 0.6624 0.6515
O14 O 0.5608(2) 0.5243(5) 0.58537(10)
H72 H 0.5568 0.6047 0.5894
C60 C 0.5464(3) 0.4481(7) 0.60778(14)
C61 C 0.5216(3) 0.5014(7) 0.63194(14)
C62 C 0.5047(3) 0.4113(7) 0.65226(15)
H73 H 0.4861 0.4438 0.6680
C63 C 0.5141(4) 0.2743(9) 0.65037(17)
C64 C 0.5419(4) 0.2320(8) 0.62762(15)
H74 H 0.5498 0.1404 0.6263
C65 C 0.5590(3) 0.3154(8) 0.60636(15)
C66 C 0.4994(6) 0.1796(10) 0.6745(2)
C67 C 0.5358(8) 0.2162(14) 0.7008(2)
H75 H 0.5270 0.1605 0.7170
H76 H 0.5312 0.3097 0.7058
H77 H 0.5714 0.2007 0.6955
C68 C 0.4454(6) 0.2161(16) 0.6841(3)
H78 H 0.4355 0.1594 0.7000
H79 H 0.4215 0.2031 0.6685
H80 H 0.4447 0.3091 0.6900
C69 C 0.5120(7) 0.0398(12) 0.6675(3)
H81 H 0.4952 0.0152 0.6498
H82 H 0.5000 -0.0184 0.6826
H83 H 0.5489 0.0306 0.6654
C70 C 0.5941(3) 0.2711(8) 0.58348(16)
H84 H 0.5829 0.3088 0.5653
H85 H 0.5931 0.1733 0.5819
O15 O 0.65884(17) 0.4005(5) 0.54242(9)
C71 C 0.6770(3) 0.3857(7) 0.56975(12)
C72 C 0.6496(3) 0.3168(7) 0.58991(14)
C73 C 0.6694(3) 0.3024(7) 0.61668(16)
H86 H 0.6501 0.2560 0.6304
C74 C 0.7168(3) 0.3539(8) 0.62419(14)
C75 C 0.7426(3) 0.4271(7) 0.60399(15)
H87 H 0.7743 0.4665 0.6087
C76 C 0.7233(3) 0.4441(7) 0.57706(13)
C77 C 0.7350(4) 0.3450(9) 0.65482(17)
C78 C 0.7913(5) 0.3796(14) 0.6577(2)
H88 H 0.7967 0.4721 0.6522
H89 H 0.8115 0.3216 0.6454
H90 H 0.8020 0.3673 0.6773
C79 C 0.7011(7) 0.4348(14) 0.6726(2)
H91 H 0.6653 0.4106 0.6697
H92 H 0.7063 0.5273 0.6669
H93 H 0.7098 0.4244 0.6925
C80 C 0.7291(5) 0.2036(10) 0.6658(2)
H94 H 0.7492 0.1432 0.6541
H95 H 0.6931 0.1780 0.6651
H96 H 0.7411 0.1991 0.6853
C81 C 0.7495(3) 0.5411(7) 0.55741(13)
H97 H 0.7300 0.5490 0.5396
H98 H 0.7842 0.5091 0.5528
O16 O 0.66356(17) 0.6909(5) 0.56787(11)
H99 H 0.6425 0.7517 0.5646
C82 C 0.7075(2) 0.7444(7) 0.57788(12)
C83 C 0.7527(3) 0.6758(7) 0.57194(14)
C84 C 0.7987(3) 0.7249(9) 0.58163(17)
H100 H 0.8291 0.6775 0.5775
C85 C 0.8020(3) 0.8421(11) 0.5973(2)
C86 C 0.7560(3) 0.9062(9) 0.60362(17)
H101 H 0.7571 0.9842 0.6148
C87 C 0.7092(3) 0.8606(8) 0.59431(14)
C88 C 0.8529(4) 0.8898(16) 0.6088(3)
C89 C 0.8724(5) 0.761(2) 0.6322(3)
H102 H 0.8761 0.6781 0.6217
H103 H 0.8467 0.7497 0.6470
H104 H 0.9051 0.7847 0.6408
C90 C 0.8945(3) 0.8777(11) 0.5871(2)
H105 H 0.8879 0.8004 0.5751
H106 H 0.9274 0.8669 0.5966
H107 H 0.8952 0.9578 0.5754
C91 C 0.8543(6) 0.970(2) 0.6305(4)
H108 H 0.8241 0.9560 0.6423
H109 H 0.8550 1.0620 0.6239
H110 H 0.8850 0.9522 0.6417
C92 C 0.6614(3) 0.9307(7) 0.60341(15)
H111 H 0.6386 0.9402 0.5869
H112 H 0.6705 1.0209 0.6099
C93 C 0.5392(2) 0.8971(7) 0.58391(13)
H113 H 0.5445 0.9746 0.5964
H114 H 0.5025 0.8750 0.5838
C94 C 0.5573(2) 0.9291(7) 0.55388(12)
O17 O 0.53642(18) 1.0266(5) 0.54261(10)
O18 O 0.59087(16) 0.8551(5) 0.54334(9)
C95 C 0.6665(3) 0.2825(8) 0.52619(15)
H115 H 0.6399 0.2169 0.5311
H116 H 0.7001 0.2436 0.5310
C96 C 0.6647(2) 0.3099(7) 0.49514(14)
O19 O 0.6693(2) 0.4208(6) 0.48554(11)
O20 O 0.65960(17) 0.2029(5) 0.48060(9)
N1 N 0.7458(2) 0.2153(6) 0.44007(12)
C97 C 0.7708(3) 0.2984(9) 0.42302(19)
H117 H 0.7520 0.3493 0.4098
C98 C 0.8242(3) 0.3126(10) 0.4241(2)
H118 H 0.8410 0.3736 0.4120
C99 C 0.8512(3) 0.2380(10) 0.4426(2)
C100 C 0.8262(3) 0.1482(9) 0.4594(2)
H119 H 0.8445 0.0925 0.4720
C101 C 0.7735(3) 0.1408(9) 0.45760(19)
H120 H 0.7562 0.0796 0.4694
N2 N 0.9060(3) 0.2422(9) 0.44515(18)
N3 N 0.9267(2) 0.3241(7) 0.43021(14)
N4 N 1.08491(16) 0.3201(5) 0.43411(11)
C102 C 1.0601(2) 0.4105(7) 0.41918(13)
H121 H 1.0794 0.4751 0.4093
C103 C 1.0085(3) 0.4154(8) 0.41733(15)
H122 H 0.9918 0.4814 0.4064
C104 C 0.9812(2) 0.3197(7) 0.43201(14)
C105 C 1.0058(3) 0.2279(8) 0.44819(16)
H123 H 0.9873 0.1669 0.4595
C106 C 1.0583(2) 0.2266(7) 0.44759(15)
H124 H 1.0760 0.1575 0.4570
N5 N 0.6776(2) 0.8241(5) 0.50341(12)
C107 C 0.7038(2) 0.9145(7) 0.51828(14)
H125 H 0.6854 0.9805 0.5283
C108 C 0.7572(2) 0.9155(7) 0.51959(14)
H126 H 0.7745 0.9812 0.5302
C109 C 0.7846(2) 0.8180(7) 0.50493(14)
C110 C 0.7583(2) 0.7243(7) 0.49018(15)
H127 H 0.7758 0.6542 0.4810
C111 C 0.7047(2) 0.7333(8) 0.48876(14)
H128 H 0.6869 0.6728 0.4770
N6 N 0.8391(2) 0.8215(7) 0.50735(14)
N7 N 0.8605(2) 0.7359(11) 0.4937(3)
N8 N 1.01740(17) 0.7124(5) 0.49754(11)
C112 C 0.9935(3) 0.8019(9) 0.5136(2)
H129 H 1.0133 0.8566 0.5257
C113 C 0.9420(3) 0.8181(11) 0.5135(3)
H130 H 0.9258 0.8815 0.5253
C114 C 0.9140(3) 0.7363(10) 0.4951(2)
C115 C 0.9379(3) 0.6392(11) 0.4799(2)
H131 H 0.9189 0.5779 0.4689
C116 C 0.9902(3) 0.6328(8) 0.48091(16)
H132 H 1.0074 0.5700 0.4694
Zn1B Zn 1.16626(2) 0.31122(7) 0.43715(2)
Zn2B Zn 1.09842(2) 0.68563(7) 0.50032(2)
N4B N 0.58491(16) 0.1799(5) 0.43411(11)
N8B N 0.51740(17) 0.7876(5) 0.49754(11)
loop_
_geom_bond_atom_site_label_1
_geom_bond_atom_site_label_2
_geom_bond_site_symmetry_1
_geom_bond_site_symmetry_2
Zn1 O1 1_555 1_555
O2 Zn1 1_555 1_555
Zn2 O3 1_555 1_555
O4 Zn2 1_555 1_555
O5 C1 1_555 1_555
C1 C2 1_555 1_555
C2 C3 1_555 1_555
C3 H1 1_555 1_555
C4 C3 1_555 1_555
C5 C4 1_555 1_555
H2 C5 1_555 1_555
C6 C1 1_555 1_555
C7 C4 1_555 1_555
C8 C7 1_555 1_555
H3 C8 1_555 1_555
H4 C8 1_555 1_555
H5 C8 1_555 1_555
C9 C7 1_555 1_555
H6 C9 1_555 1_555
H7 C9 1_555 1_555
H8 C9 1_555 1_555
C10 C7 1_555 1_555
H9 C10 1_555 1_555
H10 C10 1_555 1_555
H11 C10 1_555 1_555
C11 C6 1_555 1_555
H12 C11 1_555 1_555
H13 C11 1_555 1_555
O6 H14 1_555 1_555
C12 O6 1_555 1_555
C13 C11 1_555 1_555
C14 C13 1_555 1_555
H15 C14 1_555 1_555
C15 C14 1_555 1_555
C16 C15 1_555 1_555
H16 C16 1_555 1_555
C17 C12 1_555 1_555
C18 C15 1_555 1_555
C19 C18 1_555 1_555
H17 C19 1_555 1_555
H18 C19 1_555 1_555
H19 C19 1_555 1_555
C20 C18 1_555 1_555
H20 C20 1_555 1_555
H21 C20 1_555 1_555
H22 C20 1_555 1_555
C21 C18 1_555 1_555
H23 C21 1_555 1_555
H24 C21 1_555 1_555
H25 C21 1_555 1_555
C22 C17 1_555 1_555
H26 C22 1_555 1_555
H27 C22 1_555 1_555
O7 C23 1_555 1_555
C23 C24 1_555 1_555
C24 C22 1_555 1_555
C25 C24 1_555 1_555
H28 C25 1_555 1_555
C26 C25 1_555 1_555
C27 C26 1_555 1_555
H29 C27 1_555 1_555
C28 C23 1_555 1_555
C29 C26 1_555 1_555
C30 C29 1_555 1_555
H30 C30 1_555 1_555
H31 C30 1_555 1_555
H32 C30 1_555 1_555
C31 C29 1_555 1_555
H33 C31 1_555 1_555
H34 C31 1_555 1_555
H35 C31 1_555 1_555
C32 C29 1_555 1_555
H36 C32 1_555 1_555
H37 C32 1_555 1_555
H38 C32 1_555 1_555
C33 C28 1_555 1_555
H39 C33 1_555 1_555
H40 C33 1_555 1_555
O8 H41 1_555 1_555
C34 O8 1_555 1_555
C35 C33 1_555 1_555
C36 C35 1_555 1_555
H42 C36 1_555 1_555
C37 C36 1_555 1_555
C38 C37 1_555 1_555
H43 C38 1_555 1_555
C39 C34 1_555 1_555
C40 C37 1_555 1_555
C41 C40 1_555 1_555
H44 C41 1_555 1_555
H45 C41 1_555 1_555
H46 C41 1_555 1_555
C42 C40 1_555 1_555
H47 C42 1_555 1_555
H48 C42 1_555 1_555
H49 C42 1_555 1_555
C43 C40 1_555 1_555
H50 C43 1_555 1_555
H51 C43 1_555 1_555
H52 C43 1_555 1_555
C44 C2 1_555 1_555
H53 C44 1_555 1_555
H54 C44 1_555 1_555
C45 O5 1_555 1_555
H55 C45 1_555 1_555
H56 C45 1_555 1_555
C46 C45 1_555 1_555
O9 C46 1_555 1_555
O10 Zn1 1_555 1_555
C47 O7 1_555 1_555
H57 C47 1_555 1_555
H58 C47 1_555 1_555
C48 C47 1_555 1_555
O11 C48 1_555 1_555
O12 Zn2 1_555 1_555
O13 C49 1_555 1_555
C49 C50 1_555 1_555
C50 C51 1_555 1_555
C51 H59 1_555 1_555
C52 C51 1_555 1_555
C53 C52 1_555 1_555
H60 C53 1_555 1_555
C54 C49 1_555 1_555
C55 C52 1_555 1_555
C56 C55 1_555 1_555
H61 C56 1_555 1_555
H62 C56 1_555 1_555
H63 C56 1_555 1_555
C57 C55 1_555 1_555
H64 C57 1_555 1_555
H65 C57 1_555 1_555
H66 C57 1_555 1_555
C58 C55 1_555 1_555
H67 C58 1_555 1_555
H68 C58 1_555 1_555
H69 C58 1_555 1_555
C59 C54 1_555 1_555
H70 C59 1_555 1_555
H71 C59 1_555 1_555
O14 H72 1_555 1_555
C60 O14 1_555 1_555
C61 C59 1_555 1_555
C62 C61 1_555 1_555
H73 C62 1_555 1_555
C63 C62 1_555 1_555
C64 C63 1_555 1_555
H74 C64 1_555 1_555
C65 C60 1_555 1_555
C66 C63 1_555 1_555
C67 C66 1_555 1_555
H75 C67 1_555 1_555
H76 C67 1_555 1_555
H77 C67 1_555 1_555
C68 C66 1_555 1_555
H78 C68 1_555 1_555
H79 C68 1_555 1_555
H80 C68 1_555 1_555
C69 C66 1_555 1_555
H81 C69 1_555 1_555
H82 C69 1_555 1_555
H83 C69 1_555 1_555
C70 C65 1_555 1_555
H84 C70 1_555 1_555
H85 C70 1_555 1_555
O15 C71 1_555 1_555
C71 C72 1_555 1_555
C72 C70 1_555 1_555
C73 C72 1_555 1_555
H86 C73 1_555 1_555
C74 C73 1_555 1_555
C75 C74 1_555 1_555
H87 C75 1_555 1_555
C76 C71 1_555 1_555
C77 C74 1_555 1_555
C78 C77 1_555 1_555
H88 C78 1_555 1_555
H89 C78 1_555 1_555
H90 C78 1_555 1_555
C79 C77 1_555 1_555
H91 C79 1_555 1_555
H92 C79 1_555 1_555
H93 C79 1_555 1_555
C80 C77 1_555 1_555
H94 C80 1_555 1_555
H95 C80 1_555 1_555
H96 C80 1_555 1_555
C81 C76 1_555 1_555
H97 C81 1_555 1_555
H98 C81 1_555 1_555
O16 H99 1_555 1_555
C82 O16 1_555 1_555
C83 C81 1_555 1_555
C84 C83 1_555 1_555
H100 C84 1_555 1_555
C85 C84 1_555 1_555
C86 C85 1_555 1_555
H101 C86 1_555 1_555
C87 C82 1_555 1_555
C88 C85 1_555 1_555
C89 C88 1_555 1_555
H102 C89 1_555 1_555
H103 C89 1_555 1_555
H104 C89 1_555 1_555
C90 C88 1_555 1_555
H105 C90 1_555 1_555
H106 C90 1_555 1_555
H107 C90 1_555 1_555
C91 C88 1_555 1_555
H108 C91 1_555 1_555
H109 C91 1_555 1_555
H110 C91 1_555 1_555
C92 C50 1_555 1_555
H111 C92 1_555 1_555
H112 C92 1_555 1_555
C93 O13 1_555 1_555
H113 C93 1_555 1_555
H114 C93 1_555 1_555
C94 C93 1_555 1_555
O17 C94 1_555 1_555
O18 Zn2 1_555 1_555
C95 O15 1_555 1_555
H115 C95 1_555 1_555
H116 C95 1_555 1_555
C96 C95 1_555 1_555
O19 C96 1_555 1_555
O20 Zn1 1_555 1_555
N1 Zn1 1_555 1_555
C97 N1 1_555 1_555
H117 C97 1_555 1_555
C98 C97 1_555 1_555
H118 C98 1_555 1_555
C99 C98 1_555 1_555
C100 C99 1_555 1_555
H119 C100 1_555 1_555
C101 N1 1_555 1_555
H120 C101 1_555 1_555
N2 C99 1_555 1_555
N3 N2 1_555 1_555
N4 C102 1_555 1_555
C102 H121 1_555 1_555
C103 C102 1_555 1_555
H122 C103 1_555 1_555
C104 N3 1_555 1_555
C105 C104 1_555 1_555
H123 C105 1_555 1_555
C106 N4 1_555 1_555
H124 C106 1_555 1_555
N5 Zn2 1_555 1_555
C107 N5 1_555 1_555
H125 C107 1_555 1_555
C108 C107 1_555 1_555
H126 C108 1_555 1_555
C109 C108 1_555 1_555
C110 C109 1_555 1_555
H127 C110 1_555 1_555
C111 N5 1_555 1_555
H128 C111 1_555 1_555
N6 C109 1_555 1_555
N7 N6 1_555 1_555
N8 C112 1_555 1_555
C112 H129 1_555 1_555
C113 C112 1_555 1_555
H130 C113 1_555 1_555
C114 N7 1_555 1_555
C115 C114 1_555 1_555
H131 C115 1_555 1_555
C116 N8 1_555 1_555
H132 C116 1_555 1_555
Zn1B N4 1_555 1_555
Zn2B N8 1_555 1_555
N4B Zn1 1_555 1_555
N8B Zn2 1_555 1_555
C5 C6 1_555 1_555
C12 C13 1_555 1_555
C16 C17 1_555 1_555
C27 C28 1_555 1_555
C34 C35 1_555 1_555
C38 C39 1_555 1_555
C39 C44 1_555 1_555
C46 O10 1_555 1_555
C48 O12 1_555 1_555
C53 C54 1_555 1_555
C60 C61 1_555 1_555
C64 C65 1_555 1_555
C75 C76 1_555 1_555
C82 C83 1_555 1_555
C86 C87 1_555 1_555
C87 C92 1_555 1_555
C94 O18 1_555 1_555
C96 O20 1_555 1_555
C100 C101 1_555 1_555
C103 C104 1_555 1_555
C105 C106 1_555 1_555
C110 C111 1_555 1_555
C113 C114 1_555 1_555
C115 C116 1_555 1_555

#END
