
#######################################################################
#
#                 Cambridge Crystallographic Data Centre
#                                CCDC 
#
#######################################################################
#
# If this CIF has been generated from an entry in the Cambridge 
# Structural Database, then it will include bibliographic, chemical, 
# crystal, experimental, refinement or atomic coordinate data resulting 
# from the CCDC's data processing and validation procedures.
#
#######################################################################

data_WITJOA
_symmetry_cell_setting           monoclinic
_symmetry_space_group_name_H-M   'P 21/n'
_symmetry_Int_Tables_number      14
_space_group_name_Hall           '-P 2yn'
loop_
_symmetry_equiv_pos_site_id
_symmetry_equiv_pos_as_xyz
1 x,y,z
2 1/2-x,1/2+y,1/2-z
3 -x,-y,-z
4 1/2+x,1/2-y,1/2+z
_cell_length_a                   15.9995(5)
_cell_length_b                   18.1852(7)
_cell_length_c                   24.8199(7)
_cell_angle_alpha                90
_cell_angle_beta                 102.917(3)
_cell_angle_gamma                90
_cell_volume                     7038.71
loop_
_atom_site_label
_atom_site_type_symbol
_atom_site_fract_x
_atom_site_fract_y
_atom_site_fract_z
Mn1 Mn 0.44614(4) 0.92938(3) 0.52057(2)
Mn2 Mn 0.59070(4) 0.88112(3) 0.42317(2)
Mn3 Mn 0.53544(4) 0.75007(4) 0.51480(3)
S1 S 0.09855(7) 0.74178(7) 0.62098(5)
S2 S 0.48144(7) 0.80093(9) 0.86260(4)
S3 S 0.95446(7) 1.00258(8) 0.70564(6)
O1 O 0.46072(19) 0.87809(17) 0.59708(11)
O2 O 0.85373(18) 0.63772(16) 0.96928(11)
O3 O 0.53699(14) 0.86308(13) 0.49104(9)
H1 H 0.5874 0.8775 0.5194
O4 O 0.55362(16) 1.00197(15) 0.55219(9)
O5 O 0.35313(16) 1.00168(15) 0.54883(9)
O6 O 1.0560(2) 0.7085(2) 0.86898(15)
O7 O -0.29165(19) 0.83110(17) 0.46863(13)
O8 O 0.53022(17) 1.06763(17) 0.62384(10)
O9 O 0.33445(18) 1.05156(18) 0.62591(11)
O10 O 1.0295(2) 0.7882(2) 0.93148(15)
O11 O -0.32624(19) 0.76009(19) 0.53476(13)
O12 O 0.89590(19) 0.75413(17) 0.99045(13)
O13 O 0.5486(3) 0.6347(3) 0.53823(19)
O14 O 0.53258(19) 0.77201(19) 0.60128(12)
O15 O 0.1244(2) 0.68238(19) 0.59034(18)
O16 O 0.1028(2) 0.7325(2) 0.67983(15)
O17 O 0.4255(2) 0.7411(3) 0.86884(14)
O18 O 0.4644(2) 0.8727(2) 0.88122(13)
O19 O 0.9794(2) 1.0721(2) 0.73271(17)
O20 O 0.9949(2) 0.9781(3) 0.66206(15)
C1 C 0.3217(3) 1.0005(2) 0.59112(15)
C2 C 0.2645(2) 0.9365(2) 0.59917(15)
C3 C 0.2375(3) 0.8870(3) 0.55699(18)
H2 H 0.2541 0.8929 0.5237
C4 C 0.1862(3) 0.8288(3) 0.56379(19)
H3 H 0.1688 0.7952 0.5352
C5 C 0.1606(3) 0.8198(2) 0.61233(17)
C6 C 0.1862(3) 0.8688(3) 0.65470(19)
H4 H 0.1681 0.8627 0.6875
C7 C 0.2391(3) 0.9281(3) 0.64905(18)
H5 H 0.2570 0.9611 0.6779
C8 C -0.0091(3) 0.7623(2) 0.5883(2)
C9 C -0.0315(3) 0.7832(4) 0.5345(2)
H6 H 0.0105 0.7896 0.5145
C10 C -0.1175(3) 0.7951(4) 0.5092(2)
H7 H -0.1327 0.8116 0.4728
C11 C -0.1807(3) 0.7820(2) 0.53883(18)
C12 C -0.1579(3) 0.7583(3) 0.59190(18)
H8 H -0.2003 0.7474 0.6109
C13 C -0.0713(3) 0.7499(3) 0.61871(19)
H9 H -0.0559 0.7364 0.6558
C14 C -0.2750(3) 0.7921(3) 0.51121(19)
C15 C 0.4959(3) 0.8217(3) 0.62162(16)
C16 C 0.4930(3) 0.8168(3) 0.68188(16)
C17 C 0.4641(3) 0.8757(2) 0.70764(16)
H10 H 0.4467 0.9185 0.6878
C18 C 0.4607(3) 0.8717(3) 0.76337(17)
H11 H 0.4412 0.9114 0.7808
C19 C 0.4869(3) 0.8075(3) 0.79200(16)
C20 C 0.5148(3) 0.7472(3) 0.76686(18)
H12 H 0.5311 0.7041 0.7867
C21 C 0.5182(3) 0.7519(3) 0.71106(18)
H13 H 0.5372 0.7121 0.6936
C22 C 0.5864(3) 0.7737(3) 0.89540(16)
C23 C 0.6481(3) 0.8277(3) 0.91561(17)
H14 H 0.6334 0.8772 0.9127
C24 C 0.7309(3) 0.8063(3) 0.93984(17)
H15 H 0.7724 0.8413 0.9541
C25 C 0.7515(3) 0.7309(2) 0.94263(15)
C26 C 0.6907(3) 0.6785(3) 0.92177(15)
H16 H 0.7056 0.6290 0.9229
C27 C 0.6062(3) 0.7004(3) 0.89873(16)
H17 H 0.5641 0.6655 0.8858
C28 C 0.8422(3) 0.7064(2) 0.96958(16)
C29 C 0.5776(3) 1.0308(2) 0.60033(15)
C30 C 0.6710(3) 1.0202(2) 0.62847(14)
C31 C 0.7069(3) 1.0620(3) 0.67484(15)
H18 H 0.6724 1.0938 0.6896
C32 C 0.7935(3) 1.0566(2) 0.69928(17)
H19 H 0.8179 1.0857 0.7295
C33 C 0.8426(3) 1.0070(3) 0.67779(17)
C34 C 0.8065(3) 0.9634(3) 0.63259(18)
H20 H 0.8402 0.9297 0.6189
C35 C 0.7202(3) 0.9704(3) 0.60792(17)
H21 H 0.6957 0.9414 0.5776
C36 C 0.9713(3) 0.9334(3) 0.75663(18)
C37 C 0.9604(4) 0.9492(3) 0.8093(2)
H22 H 0.9397 0.9949 0.8171
C38 C 0.9807(4) 0.8960(3) 0.8500(2)
H23 H 0.9752 0.9067 0.8857
C39 C 1.0090(3) 0.8275(3) 0.8384(2)
C40 C 1.0168(3) 0.8120(3) 0.78519(18)
H24 H 1.0353 0.7657 0.7769
C41 C 0.9970(3) 0.8655(3) 0.7439(2)
H25 H 1.0014 0.8549 0.7080
C42 C 1.0331(3) 0.7707(3) 0.8830(2)
H26 H 0.515(2) 0.629(2) 0.5599(13)
H27 H 0.538(4) 0.609(3) 0.5088(16)
Mn1B Mn 0.55386(4) 1.07062(3) 0.47943(2)
Mn1C Mn 0.94614(4) 0.57062(3) 1.02057(2)
Mn2_2 Mn -0.40930(4) 0.88112(3) 0.42317(2)
Mn2B Mn 0.40930(4) 1.11888(3) 0.57683(2)
Mn2C Mn 1.09070(4) 0.61888(3) 0.92317(2)
Mn3_2 Mn -0.46456(4) 0.75007(4) 0.51480(3)
Mn3C Mn 1.03544(4) 0.74993(4) 1.01480(3)
O2C O 0.35373(18) 0.86228(16) 0.46928(11)
O4B O 0.44638(16) 0.99803(15) 0.44781(9)
O5B O 0.64687(16) 0.99832(15) 0.45117(9)
O6C O 0.5560(2) 0.7915(2) 0.36898(15)
O7_2 O 0.70835(19) 0.83110(17) 0.46863(13)
O8B O 0.46978(17) 0.93237(17) 0.37616(10)
O9B O 0.66555(18) 0.94844(18) 0.37409(11)
O10C O 0.5295(2) 0.7118(2) 0.43148(15)
O11_2 O 0.67376(19) 0.76009(19) 0.53476(13)
O12C O 0.39590(19) 0.74587(17) 0.49045(13)
O21 O 0.3605(5) 1.0482(5) 0.7658(4)
N1 N 0.5037(3) 1.0651(3) 0.79373(19)
C43 C 0.4384(8) 1.0696(5) 0.7515(3)
C44 C 0.5867(8) 1.0838(10) 0.7776(5)
C45 C 0.5044(9) 1.0483(5) 0.8480(3)
O22 O 0.7510(4) 0.6971(4) 0.70762(19)
N2 N 0.7413(3) 0.8067(3) 0.7517(2)
C46 C 0.7300(5) 0.7662(6) 0.7075(3)
C47 C 0.7094(5) 0.8831(4) 0.7511(4)
C48 C 0.7786(4) 0.7741(4) 0.8057(3)
O23 O 0.6534(5) 0.5972(5) 0.6434(3)
H28 H 0.689(4) 0.636(4) 0.662(4)
H29 H 0.686(4) 0.570(3) 0.622(2)
H30 H 0.606(4) 0.619(5) 0.618(3)
loop_
_geom_bond_atom_site_label_1
_geom_bond_atom_site_label_2
_geom_bond_site_symmetry_1
_geom_bond_site_symmetry_2
Mn1 O1 1_555 1_555
Mn2 O3 1_555 1_555
Mn3 O3 1_555 1_555
S1 O15 1_555 1_555
S2 O17 1_555 1_555
S3 O19 1_555 1_555
O1 C15 1_555 1_555
O2 C28 1_555 1_555
O3 Mn1 1_555 1_555
H1 O3 1_555 1_555
O4 Mn1 1_555 1_555
O5 Mn1 1_555 1_555
O6 C42 1_555 1_555
O7 C14 1_555 1_555
O8 C29 1_555 1_555
O9 C1 1_555 1_555
O10 C42 1_555 1_555
O11 C14 1_555 1_555
O12 C28 1_555 1_555
O13 Mn3 1_555 1_555
O14 Mn3 1_555 1_555
O16 S1 1_555 1_555
O18 S2 1_555 1_555
O20 S3 1_555 1_555
C1 O5 1_555 1_555
C2 C1 1_555 1_555
C3 C2 1_555 1_555
H2 C3 1_555 1_555
C4 C3 1_555 1_555
H3 C4 1_555 1_555
C5 S1 1_555 1_555
C6 C5 1_555 1_555
H4 C6 1_555 1_555
C7 C2 1_555 1_555
H5 C7 1_555 1_555
C8 S1 1_555 1_555
C9 C8 1_555 1_555
H6 C9 1_555 1_555
C10 C9 1_555 1_555
H7 C10 1_555 1_555
C11 C10 1_555 1_555
C12 C11 1_555 1_555
H8 C12 1_555 1_555
C13 C8 1_555 1_555
H9 C13 1_555 1_555
C14 C11 1_555 1_555
C15 O14 1_555 1_555
C16 C15 1_555 1_555
C17 C16 1_555 1_555
H10 C17 1_555 1_555
C18 C17 1_555 1_555
H11 C18 1_555 1_555
C19 S2 1_555 1_555
C20 C19 1_555 1_555
H12 C20 1_555 1_555
C21 C16 1_555 1_555
H13 C21 1_555 1_555
C22 S2 1_555 1_555
C23 C22 1_555 1_555
H14 C23 1_555 1_555
C24 C23 1_555 1_555
H15 C24 1_555 1_555
C25 C24 1_555 1_555
C26 C25 1_555 1_555
H16 C26 1_555 1_555
C27 C22 1_555 1_555
H17 C27 1_555 1_555
C28 C25 1_555 1_555
C29 O4 1_555 1_555
C30 C29 1_555 1_555
C31 C30 1_555 1_555
H18 C31 1_555 1_555
C32 C31 1_555 1_555
H19 C32 1_555 1_555
C33 S3 1_555 1_555
C34 C33 1_555 1_555
H20 C34 1_555 1_555
C35 C30 1_555 1_555
H21 C35 1_555 1_555
C36 S3 1_555 1_555
C37 C36 1_555 1_555
H22 C37 1_555 1_555
C38 C37 1_555 1_555
H23 C38 1_555 1_555
C39 C38 1_555 1_555
C40 C39 1_555 1_555
H24 C40 1_555 1_555
C41 C36 1_555 1_555
H25 C41 1_555 1_555
C42 C39 1_555 1_555
H26 O13 1_555 1_555
H27 O13 1_555 1_555
O21 C43 1_555 1_555
N1 C43 1_555 1_555
C44 N1 1_555 1_555
C45 N1 1_555 1_555
O22 C46 1_555 1_555
N2 C46 1_555 1_555
C47 N2 1_555 1_555
C48 N2 1_555 1_555
O23 H28 1_555 1_555
H29 O23 1_555 1_555
H30 O23 1_555 1_555
Mn1B O4 1_555 1_555
Mn1C O2 1_555 1_555
Mn2_2 O7 1_555 1_555
Mn2B O5 1_555 1_555
Mn2C O6 1_555 1_555
Mn3_2 O11 1_555 1_555
Mn3C O10 1_555 1_555
O2C Mn1 1_555 1_555
O4B Mn1 1_555 1_555
O5B Mn2 1_555 1_555
O6C Mn2 1_555 1_555
O7_2 Mn2 1_555 1_555
O8B Mn2 1_555 1_555
O9B Mn2 1_555 1_555
O10C Mn3 1_555 1_555
O11_2 Mn3 1_555 1_555
O12C Mn3 1_555 1_555
O8 Mn2B 1_555 1_555
O9 Mn2B 1_555 1_555
O12 Mn3C 1_555 1_555
C4 C5 1_555 1_555
C6 C7 1_555 1_555
C12 C13 1_555 1_555
C18 C19 1_555 1_555
C20 C21 1_555 1_555
C26 C27 1_555 1_555
C32 C33 1_555 1_555
C34 C35 1_555 1_555
C40 C41 1_555 1_555
Mn1B O4B 1_555 1_555
Mn1B O5B 1_555 1_555

#END
