
#######################################################################
#
#                 Cambridge Crystallographic Data Centre
#                                CCDC 
#
#######################################################################
#
# If this CIF has been generated from an entry in the Cambridge 
# Structural Database, then it will include bibliographic, chemical, 
# crystal, experimental, refinement or atomic coordinate data resulting 
# from the CCDC's data processing and validation procedures.
#
#######################################################################

data_WITKER
_symmetry_cell_setting           monoclinic
_symmetry_space_group_name_H-M   'P 21/n'
_symmetry_Int_Tables_number      14
_space_group_name_Hall           '-P 2yn'
loop_
_symmetry_equiv_pos_site_id
_symmetry_equiv_pos_as_xyz
1 x,y,z
2 1/2-x,1/2+y,1/2-z
3 -x,-y,-z
4 1/2+x,1/2-y,1/2+z
_cell_length_a                   10.901(5)
_cell_length_b                   10.346(5)
_cell_length_c                   11.834(5)
_cell_angle_alpha                90
_cell_angle_beta                 107.066(5)
_cell_angle_gamma                90
_cell_volume                     1275.89
loop_
_atom_site_label
_atom_site_type_symbol
_atom_site_fract_x
_atom_site_fract_y
_atom_site_fract_z
Sn1 Sn 0.23743(3) 0.84753(3) 0.65280(3)
Cu1 Cu 0.0000 1.0000 0.0000
O1 O 0.0760(3) 0.9388(3) -0.1191(2)
O2 O 0.2352(3) 0.8733(3) 0.4695(3)
O3 O 0.3654(3) 0.7040(3) 0.4731(3)
O4 O 0.2377(3) 0.8171(3) -0.1411(3)
N1 N 0.1424(3) 0.9026(3) 0.1096(3)
C1 C 0.1738(4) 0.8662(4) -0.0804(4)
C2 C 0.2936(4) 0.7909(4) 0.4214(4)
C3 C 0.2136(5) 0.8405(4) 0.0513(4)
C4 C 0.3130(4) 0.7602(4) 0.1085(4)
H1 H 0.3611 0.7180 0.0666
C5 C 0.3401(4) 0.7434(4) 0.2287(4)
H2 H 0.4063 0.6885 0.2686
C6 C 0.2689(4) 0.8082(4) 0.2901(4)
C7 C 0.1685(4) 0.8882(4) 0.2252(4)
H3 H 0.1191 0.9323 0.2648
C8 C 0.4398(4) 0.8580(5) 0.7297(4)
H4 H 0.4802 0.8727 0.6689
H5 H 0.4704 0.7782 0.7694
H6 H 0.4601 0.9278 0.7856
C9 C 0.1376(5) 0.6688(4) 0.6137(4)
H7 H 0.1065 0.6444 0.6786
H8 H 0.1946 0.6034 0.6012
H9 H 0.0664 0.6781 0.5436
C10 C 0.1272(5) 1.0187(4) 0.6406(4)
H10 H 0.0385 0.9996 0.6024
H11 H 0.1566 1.0821 0.5953
H12 H 0.1366 1.0517 0.7184
Sn1B Sn -0.23743(3) 1.15247(3) -0.65280(3)
O1B O -0.0760(3) 1.0612(3) 0.1191(2)
O2B O -0.2352(3) 1.1267(3) -0.4695(3)
O3B O -0.3654(3) 1.2960(3) -0.4731(3)
O4B O -0.2377(3) 1.1829(3) 0.1411(3)
N1B N -0.1424(3) 1.0974(3) -0.1096(3)
C1B C -0.1738(4) 1.1338(4) 0.0804(4)
C2B C -0.2936(4) 1.2091(4) -0.4214(4)
C3B C -0.2136(5) 1.1595(4) -0.0513(4)
C4B C -0.3130(4) 1.2398(4) -0.1085(4)
H1B H -0.3611 1.2820 -0.0666
C5B C -0.3401(4) 1.2566(4) -0.2287(4)
H2B H -0.4063 1.3115 -0.2686
C6B C -0.2689(4) 1.1918(4) -0.2901(4)
C7B C -0.1685(4) 1.1118(4) -0.2252(4)
H3B H -0.1191 1.0677 -0.2648
C8B C -0.4398(4) 1.1420(5) -0.7297(4)
H4B H -0.4802 1.1273 -0.6689
H5B H -0.4704 1.2218 -0.7694
H6B H -0.4601 1.0722 -0.7856
C9B C -0.1376(5) 1.3312(4) -0.6137(4)
H7B H -0.1065 1.3556 -0.6786
H8B H -0.1946 1.3966 -0.6012
H9B H -0.0664 1.3219 -0.5436
C10B C -0.1272(5) 0.9813(4) -0.6406(4)
H10B H -0.0385 1.0004 -0.6024
H11B H -0.1566 0.9179 -0.5953
H12B H -0.1366 0.9483 -0.7184
Sn1_2 Sn 0.23743(3) 0.84753(3) -0.34720(3)
Sn1B_2 Sn -0.23743(3) 1.15247(3) 0.34720(3)
Cu1A Cu -0.5000 1.5000 -0.5000
Cu1A_2 Cu 0.5000 0.5000 0.5000
O3A O 0.1346(3) 1.2040(3) 0.0269(3)
O3C O -0.1346(3) 0.7960(3) -0.0269(3)
O4_2 O 0.2377(3) 0.8171(3) 0.8589(3)
O4B_2 O -0.2377(3) 1.1829(3) -0.8589(3)
loop_
_geom_bond_atom_site_label_1
_geom_bond_atom_site_label_2
_geom_bond_site_symmetry_1
_geom_bond_site_symmetry_2
Sn1 O2 1_555 1_555
Cu1 O1 1_555 1_555
O1 C1 1_555 1_555
O2 C2 1_555 1_555
O3 C2 1_555 1_555
O4 C1 1_555 1_555
N1 Cu1 1_555 1_555
C1 C3 1_555 1_555
C2 C6 1_555 1_555
C3 N1 1_555 1_555
C4 C3 1_555 1_555
H1 C4 1_555 1_555
C5 C4 1_555 1_555
H2 C5 1_555 1_555
C6 C5 1_555 1_555
C7 N1 1_555 1_555
H3 C7 1_555 1_555
C8 Sn1 1_555 1_555
H4 C8 1_555 1_555
H5 C8 1_555 1_555
H6 C8 1_555 1_555
C9 Sn1 1_555 1_555
H7 C9 1_555 1_555
H8 C9 1_555 1_555
H9 C9 1_555 1_555
C10 Sn1 1_555 1_555
H10 C10 1_555 1_555
H11 C10 1_555 1_555
H12 C10 1_555 1_555
Sn1B O2B 1_555 1_555
O1B Cu1 1_555 1_555
O2B C2B 1_555 1_555
O3B C2B 1_555 1_555
O4B C1B 1_555 1_555
N1B Cu1 1_555 1_555
C1B O1B 1_555 1_555
C2B C6B 1_555 1_555
C3B N1B 1_555 1_555
C4B C3B 1_555 1_555
H1B C4B 1_555 1_555
C5B C4B 1_555 1_555
H2B C5B 1_555 1_555
C6B C5B 1_555 1_555
C7B N1B 1_555 1_555
H3B C7B 1_555 1_555
C8B Sn1B 1_555 1_555
H4B C8B 1_555 1_555
H5B C8B 1_555 1_555
H6B C8B 1_555 1_555
C9B Sn1B 1_555 1_555
H7B C9B 1_555 1_555
H8B C9B 1_555 1_555
H9B C9B 1_555 1_555
C10B Sn1B 1_555 1_555
H10B C10B 1_555 1_555
H11B C10B 1_555 1_555
H12B C10B 1_555 1_555
Sn1_2 O4 1_555 1_555
Sn1B_2 O4B 1_555 1_555
Cu1A O3B 1_555 1_555
Cu1A_2 O3 1_555 1_555
O3A Cu1 1_555 1_555
O3C Cu1 1_555 1_555
O4_2 Sn1 1_555 1_555
O4B_2 Sn1B 1_555 1_555
C6 C7 1_555 1_555
C1B C3B 1_555 1_555
C6B C7B 1_555 1_555

#END
