
#######################################################################
#
#                 Cambridge Crystallographic Data Centre
#                                CCDC 
#
#######################################################################
#
# If this CIF has been generated from an entry in the Cambridge 
# Structural Database, then it will include bibliographic, chemical, 
# crystal, experimental, refinement or atomic coordinate data resulting 
# from the CCDC's data processing and validation procedures.
#
#######################################################################

data_WITKOB
_symmetry_cell_setting           monoclinic
_symmetry_space_group_name_H-M   'C 2/c'
_symmetry_Int_Tables_number      15
_space_group_name_Hall           '-C 2yn'
loop_
_symmetry_equiv_pos_site_id
_symmetry_equiv_pos_as_xyz
1 x,y,z
2 -x,y,1/2-z
3 1/2+x,1/2+y,z
4 1/2-x,1/2+y,1/2-z
5 -x,-y,-z
6 x,-y,1/2+z
7 1/2-x,1/2-y,-z
8 1/2+x,1/2-y,1/2+z
_cell_length_a                   10.284(3)
_cell_length_b                   31.388(10)
_cell_length_c                   20.904(7)
_cell_angle_alpha                90
_cell_angle_beta                 103.189(9)
_cell_angle_gamma                90
_cell_volume                     6569.7
loop_
_atom_site_label
_atom_site_type_symbol
_atom_site_fract_x
_atom_site_fract_y
_atom_site_fract_z
Ag1 Ag 0.42511(6) 0.193373(15) 0.54063(3)
C1 C -0.3740(7) 0.06140(18) 0.1837(3)
C2 C -0.2576(7) 0.0717(2) 0.2266(3)
H1 H -0.1927 0.0512 0.2423
C3 C -0.2404(7) 0.1140(2) 0.2458(3)
C4 C -0.3348(6) 0.14437(18) 0.2208(3)
H2 H -0.3223 0.1728 0.2335
C5 C -0.4480(6) 0.13154(18) 0.1766(3)
C6 C -0.4713(7) 0.08985(18) 0.1579(3)
H3 H -0.5498 0.0815 0.1290
O1 O -0.3451(9) -0.01075(19) 0.2590(4)
O2 O -0.3952(5) 0.01956(14) 0.1595(2)
N1 N -0.4960(7) -0.12995(19) 0.0975(3)
C7 C -0.5075(10) -0.0949(3) 0.0659(5)
H4 H -0.5420 -0.0953 0.0207
C8 C -0.4688(10) -0.0545(3) 0.0977(4)
H5 H -0.4775 -0.0291 0.0743
C9 C -0.4204(8) -0.0555(2) 0.1618(4)
C10 C -0.3968(10) -0.0911(3) 0.1949(4)
H6 H -0.3504 -0.0920 0.2386
C11 C -0.4462(11) -0.1279(3) 0.1599(5)
H7 H -0.4429 -0.1531 0.1837
C12 C -0.3792(10) -0.0128(3) 0.1974(5)
O3 O -0.1225(4) 0.12761(12) 0.2900(2)
O4 O -0.1929(6) 0.09865(18) 0.3727(3)
N2 N 0.2342(6) 0.16916(18) 0.4772(3)
C13 C 0.1997(8) 0.1816(2) 0.4149(4)
H8 H 0.2517 0.2018 0.3997
C14 C 0.0896(7) 0.1654(2) 0.3724(3)
H9 H 0.0680 0.1742 0.3288
C15 C 0.0118(6) 0.13640(19) 0.3944(3)
C16 C 0.0476(8) 0.1231(2) 0.4579(4)
H10 H -0.0020 0.1028 0.4744
C17 C 0.1590(8) 0.1407(2) 0.4960(3)
H11 H 0.1837 0.1317 0.5395
C18 C -0.1121(9) 0.1178(2) 0.3530(3)
O5 O -0.5639(5) 0.15043(17) 0.0503(2)
O6 O -0.5474(4) 0.16256(12) 0.1565(2)
N3 N -0.9285(6) 0.25523(15) 0.0594(3)
C19 C -0.8366(8) 0.25570(19) 0.1173(3)
H12 H -0.8466 0.2751 0.1495
C20 C -0.7313(7) 0.22895(19) 0.1299(3)
H13 H -0.6700 0.2303 0.1702
C21 C -0.7140(7) 0.19980(17) 0.0838(3)
C22 C -0.8076(8) 0.19883(18) 0.0239(3)
H14 H -0.8001 0.1797 -0.0090
C23 C -0.9105(6) 0.22722(19) 0.0157(3)
H15 H -0.9730 0.2266 -0.0242
C24 C -0.6039(8) 0.1684(2) 0.0913(4)
Ag1E Ag -0.57489(6) -0.193373(15) 0.04063(3)
Ag1G Ag -1.07489(6) 0.306627(15) 0.04063(3)
N1E N 0.5040(7) 0.12995(19) 0.5975(3)
N3G N 0.5715(6) 0.24477(15) 0.5594(3)
loop_
_geom_bond_atom_site_label_1
_geom_bond_atom_site_label_2
_geom_bond_site_symmetry_1
_geom_bond_site_symmetry_2
Ag1 N2 1_555 1_555
C1 C2 1_555 1_555
C2 H1 1_555 1_555
C3 C2 1_555 1_555
C4 C3 1_555 1_555
H2 C4 1_555 1_555
C5 C4 1_555 1_555
C6 C1 1_555 1_555
H3 C6 1_555 1_555
O1 C12 1_555 1_555
O2 C1 1_555 1_555
N1 C7 1_555 1_555
C7 H4 1_555 1_555
C8 C7 1_555 1_555
H5 C8 1_555 1_555
C9 C8 1_555 1_555
C10 C9 1_555 1_555
H6 C10 1_555 1_555
C11 N1 1_555 1_555
H7 C11 1_555 1_555
C12 O2 1_555 1_555
O3 C3 1_555 1_555
O4 C18 1_555 1_555
N2 C13 1_555 1_555
C13 H8 1_555 1_555
C14 C13 1_555 1_555
H9 C14 1_555 1_555
C15 C14 1_555 1_555
C16 C15 1_555 1_555
H10 C16 1_555 1_555
C17 N2 1_555 1_555
H11 C17 1_555 1_555
C18 O3 1_555 1_555
O5 C24 1_555 1_555
O6 C5 1_555 1_555
N3 C19 1_555 1_555
C19 H12 1_555 1_555
C20 C19 1_555 1_555
H13 C20 1_555 1_555
C21 C20 1_555 1_555
C22 C21 1_555 1_555
H14 C22 1_555 1_555
C23 N3 1_555 1_555
H15 C23 1_555 1_555
C24 O6 1_555 1_555
Ag1E N1 1_555 1_555
Ag1G N3 1_555 1_555
N1E Ag1 1_555 1_555
N3G Ag1 1_555 1_555
C5 C6 1_555 1_555
C9 C12 1_555 1_555
C10 C11 1_555 1_555
C15 C18 1_555 1_555
C16 C17 1_555 1_555
C21 C24 1_555 1_555
C22 C23 1_555 1_555

#END
