
#######################################################################
#
#                 Cambridge Crystallographic Data Centre
#                                CCDC 
#
#######################################################################
#
# If this CIF has been generated from an entry in the Cambridge 
# Structural Database, then it will include bibliographic, chemical, 
# crystal, experimental, refinement or atomic coordinate data resulting 
# from the CCDC's data processing and validation procedures.
#
#######################################################################

data_WITLUI
_symmetry_cell_setting           triclinic
_symmetry_space_group_name_H-M   'P -1'
_symmetry_Int_Tables_number      2
_space_group_name_Hall           '-P 1'
loop_
_symmetry_equiv_pos_site_id
_symmetry_equiv_pos_as_xyz
1 x,y,z
2 -x,-y,-z
_cell_length_a                   7.2562(14)
_cell_length_b                   10.207(2)
_cell_length_c                   11.423(2)
_cell_angle_alpha                108.061(2)
_cell_angle_beta                 92.203(3)
_cell_angle_gamma                99.553(3)
_cell_volume                     789.538
loop_
_atom_site_label
_atom_site_type_symbol
_atom_site_fract_x
_atom_site_fract_y
_atom_site_fract_z
Co1 Co 0.5000 0.5000 0.5000
O1 O 0.7402(3) 0.1271(2) -0.08648(16)
O2 O 0.7029(2) 0.67426(16) 0.50571(15)
O3 O 0.6914(2) 0.44813(17) 0.61544(16)
H1 H 0.698(4) 0.485(3) 0.693(3)
H2 H 0.6554 0.3642 0.6145
N1 N 0.6258(3) 0.3694(2) 0.35015(17)
C1 C 0.8444(3) 0.8940(2) 0.4891(2)
C2 C 1.0259(3) 0.8715(2) 0.5082(2)
H3 H 1.0438 0.7854 0.5136
C3 C 0.8200(3) 1.0236(3) 0.4808(2)
H4 H 0.6997 1.0397 0.4677
C4 C 0.6756(3) 0.7800(2) 0.4769(2)
C5 C 0.8128(3) 0.3860(2) 0.3545(2)
H5 H 0.8836 0.4603 0.4179
C6 C 0.9070(3) 0.2988(3) 0.2695(2)
H6 H 1.0375 0.3131 0.2782
C7 C 0.8058(3) 0.1899(2) 0.1717(2)
C8 C 0.6107(3) 0.1745(3) 0.1652(2)
H7 H 0.5367 0.1044 0.1002
C9 C 0.5276(3) 0.2637(3) 0.2559(2)
H8 H 0.3972 0.2497 0.2513
C10 C 0.8672(3) 0.0603(3) -0.0472(2)
C11 C 0.7235(5) 0.1116(3) -0.2157(3)
H9 H 0.8445 0.1413 -0.2400
H10 H 0.6381 0.1682 -0.2311
H11 H 0.6769 0.0150 -0.2625
C12 C 0.9036(3) 0.0922(2) 0.0813(2)
C13 C 0.9637(3) -0.0318(3) -0.1263(2)
H12 H 0.9387 -0.0535 -0.2113
O4 O 0.5208(2) 0.79841(19) 0.4385(2)
O1A O 1.2598(3) -0.1271(2) 0.08648(16)
N1A N 1.3742(3) -0.3694(2) -0.35015(17)
C5A C 1.1872(3) -0.3860(2) -0.3545(2)
H5A H 1.1164 -0.4603 -0.4179
C6A C 1.0930(3) -0.2988(3) -0.2695(2)
H6A H 0.9625 -0.3131 -0.2782
C7A C 1.1942(3) -0.1899(2) -0.1717(2)
C8A C 1.3893(3) -0.1745(3) -0.1652(2)
H7A H 1.4633 -0.1044 -0.1002
C9A C 1.4724(3) -0.2637(3) -0.2559(2)
H8A H 1.6028 -0.2497 -0.2513
C10A C 1.1328(3) -0.0603(3) 0.0472(2)
C11A C 1.2765(5) -0.1116(3) 0.2157(3)
H9A H 1.1555 -0.1413 0.2400
H10A H 1.3619 -0.1682 0.2311
H11A H 1.3231 -0.0150 0.2625
C12A C 1.0964(3) -0.0922(2) -0.0813(2)
C13A C 1.0363(3) 0.0318(3) 0.1263(2)
H12A H 1.0613 0.0535 0.2113
O2A O 1.2971(2) 1.32574(16) 0.49429(15)
C1A C 1.1556(3) 1.1060(2) 0.5109(2)
C2A C 0.9741(3) 1.1285(2) 0.4918(2)
H3A H 0.9562 1.2146 0.4864
C3A C 1.1800(3) 0.9764(3) 0.5192(2)
H4A H 1.3003 0.9603 0.5323
C4A C 1.3244(3) 1.2200(2) 0.5231(2)
O4A O 1.4792(2) 1.20159(19) 0.5615(2)
O3A O 0.3086(2) 0.55187(17) 0.38456(16)
H1A H 0.302(4) 0.515(3) 0.307(3)
H2A H 0.3446 0.6358 0.3855
Co1_2 Co 1.5000 -0.5000 -0.5000
Co1_3 Co 1.5000 1.5000 0.5000
O2A_2 O 0.2971(2) 0.32574(16) 0.49429(15)
N1A_2 N 0.3742(3) 0.6306(2) 0.64985(17)
N2 N 0.2525(4) 0.3904(3) 0.9317(2)
O5 O 0.2702(5) 0.4273(4) 1.1344(2)
C14 C 0.2303(14) 0.5369(10) 0.9537(10)
H13 H 0.2241 0.5815 1.0405
H14 H 0.1167 0.5383 0.9085
H15 H 0.3355 0.5863 0.9266
C15 C 0.2626(8) 0.3474(6) 1.0287(5)
C16 C 0.2670(16) 0.2987(12) 0.8099(10)
H16 H 0.2858 0.2095 0.8146
H17 H 0.3714 0.3392 0.7753
H18 H 0.1535 0.2861 0.7584
H19 H 0.3384 0.2345 0.9813
N3? N 0.2525(4) 0.3904(3) 0.9317(2)
O6? O 0.2702(5) 0.4273(4) 1.1344(2)
C17? C 0.3148(14) 0.2528(11) 0.9051(10)
H20? H 0.4277 0.2556 0.8641
H21? H 0.2183 0.1797 0.8528
C18? C 0.2516(13) 0.4703(10) 1.0455(7)
C19? C 0.2144(14) 0.4285(11) 0.8251(9)
H22? H 0.1737 0.5171 0.8494
H23? H 0.1176 0.3582 0.7703
H24? H 0.3263 0.4361 0.7836
loop_
_geom_bond_atom_site_label_1
_geom_bond_atom_site_label_2
_geom_bond_site_symmetry_1
_geom_bond_site_symmetry_2
Co1 O2 1_555 1_555
O1 C10 1_555 1_555
O2 C4 1_555 1_555
O3 Co1 1_555 1_555
H1 O3 1_555 1_555
H2 O3 1_555 1_555
N1 Co1 1_555 1_555
C1 C2 1_555 1_555
C2 H3 1_555 1_555
C3 C1 1_555 1_555
H4 C3 1_555 1_555
C4 C1 1_555 1_555
C5 N1 1_555 1_555
H5 C5 1_555 1_555
C6 C5 1_555 1_555
H6 C6 1_555 1_555
C7 C6 1_555 1_555
C8 C7 1_555 1_555
H7 C8 1_555 1_555
C9 N1 1_555 1_555
H8 C9 1_555 1_555
C10 C12 1_555 1_555
C11 O1 1_555 1_555
H9 C11 1_555 1_555
H10 C11 1_555 1_555
H11 C11 1_555 1_555
C12 C7 1_555 1_555
C13 C10 1_555 1_555
H12 C13 1_555 1_555
O4 C4 1_555 1_555
N2 C14 1_555 1_555
O5 C15 1_555 1_555
C14 H13 1_555 1_555
H14 C14 1_555 1_555
H15 C14 1_555 1_555
C15 N2 1_555 1_555
C16 N2 1_555 1_555
H16 C16 1_555 1_555
H17 C16 1_555 1_555
H18 C16 1_555 1_555
H19 C15 1_555 1_555
O1A C10A 1_555 1_555
N1A C5A 1_555 1_555
C5A H5A 1_555 1_555
C6A C5A 1_555 1_555
H6A C6A 1_555 1_555
C7A C6A 1_555 1_555
C8A C7A 1_555 1_555
H7A C8A 1_555 1_555
C9A N1A 1_555 1_555
H8A C9A 1_555 1_555
C10A C12A 1_555 1_555
C11A O1A 1_555 1_555
H9A C11A 1_555 1_555
H10A C11A 1_555 1_555
H11A C11A 1_555 1_555
C12A C13 1_555 1_555
C13A C12 1_555 1_555
H12A C13A 1_555 1_555
O2A C4A 1_555 1_555
C1A C2A 1_555 1_555
C2A C3 1_555 1_555
H3A C2A 1_555 1_555
C3A C2 1_555 1_555
H4A C3A 1_555 1_555
C4A C1A 1_555 1_555
O4A C4A 1_555 1_555
O3A Co1 1_555 1_555
H1A O3A 1_555 1_555
H2A O3A 1_555 1_555
Co1_2 N1A 1_555 1_555
Co1_3 O2A 1_555 1_555
O2A_2 Co1 1_555 1_555
N1A_2 Co1 1_555 1_555
C8 C9 1_555 1_555
C7A C12A 1_555 1_555
C8A C9A 1_555 1_555
C10A C13A 1_555 1_555
C1A C3A 1_555 1_555

#END
