
#######################################################################
#
#                 Cambridge Crystallographic Data Centre
#                                CCDC 
#
#######################################################################
#
# If this CIF has been generated from an entry in the Cambridge 
# Structural Database, then it will include bibliographic, chemical, 
# crystal, experimental, refinement or atomic coordinate data resulting 
# from the CCDC's data processing and validation procedures.
#
#######################################################################

data_WITLAO
_symmetry_cell_setting           triclinic
_symmetry_space_group_name_H-M   'P -1'
_symmetry_Int_Tables_number      2
_space_group_name_Hall           '-P 1'
loop_
_symmetry_equiv_pos_site_id
_symmetry_equiv_pos_as_xyz
1 x,y,z
2 -x,-y,-z
_cell_length_a                   10.889(6)
_cell_length_b                   13.384(7)
_cell_length_c                   17.350(13)
_cell_angle_alpha                104.96(2)
_cell_angle_beta                 103.60(2)
_cell_angle_gamma                102.482(17)
_cell_volume                     2268.84
loop_
_atom_site_label
_atom_site_type_symbol
_atom_site_fract_x
_atom_site_fract_y
_atom_site_fract_z
C25 C -0.0640(18) -0.4303(8) -0.1324(8)
H16 H -0.0707 -0.4536 -0.1890
C26 C 0.0581(14) -0.3998(9) -0.0746(9)
H17 H 0.1306 -0.4069 -0.0927
C27 C 0.1946(14) -0.3247(9) 0.0781(13)
H18 H 0.2712 -0.3305 0.0647
C28 C 0.2005(18) -0.2830(9) 0.1635(11)
H19 H 0.2807 -0.2634 0.2054
C29 C 0.0913(18) -0.2713(10) 0.1846(9)
H20 H 0.0978 -0.2388 0.2403
C30 C -0.1469(17) -0.3034(8) 0.1441(7)
H21 H -0.1409 -0.2725 0.1999
C31 C -0.2662(14) -0.3433(8) 0.0846(8)
H22 H -0.3415 -0.3438 0.1012
C32 C -0.4031(12) -0.4276(9) -0.0662(10)
H23 H -0.4810 -0.4282 -0.0527
C33 C -0.4075(19) -0.4686(11) -0.1473(10)
H24 H -0.4904 -0.4976 -0.1876
C34 C -0.3031(19) -0.4704(10) -0.1736(7)
H25 H -0.3118 -0.4980 -0.2303
C35 C -0.1763(15) -0.4282(7) -0.1112(6)
C36 C -0.1653(11) -0.3886(6) -0.0271(5)
C37 C -0.0436(12) -0.3486(6) 0.0379(6)
C38 C 0.0771(14) -0.3563(7) 0.0154(8)
C39 C -0.0317(14) -0.3085(7) 0.1222(7)
C40 C -0.2813(12) -0.3846(7) -0.0029(7)
C41 C 0.5452(13) 0.2013(14) 0.0366(15)
H26 H 0.5666 0.2754 0.0635
C42 C 0.5842(12) 0.1684(16) 0.1724(13)
H27 H 0.6058 0.2422 0.2005
C43 C 0.584(3) 0.097(3) 0.2149(18)
H28 H 0.6057 0.1239 0.2730
C44 C 0.5567(18) -0.003(2) 0.1814(13)
H29 H 0.5583 -0.0472 0.2152
C45 C 0.4891(15) -0.1650(16) 0.0432(17)
H30 H 0.4928 -0.2141 0.0725
C46 C 0.5517(9) 0.1296(13) 0.0865(9)
C47 C 0.5174(6) 0.0185(8) 0.0444(4)
C48 C 0.5217(8) -0.0546(13) 0.0892(7)
C41A C 0.4548(13) -0.2013(14) -0.0366(15)
H26A H 0.4334 -0.2754 -0.0635
C42A C 0.4158(12) -0.1684(16) -0.1724(13)
H27A H 0.3942 -0.2422 -0.2005
C43A C 0.416(3) -0.097(3) -0.2149(18)
H28A H 0.3943 -0.1239 -0.2730
C44A C 0.4433(18) 0.003(2) -0.1814(13)
H29A H 0.4417 0.0472 -0.2152
C45A C 0.5109(15) 0.1650(16) -0.0432(17)
H30A H 0.5072 0.2141 -0.0725
C46A C 0.4483(9) -0.1296(13) -0.0865(9)
C47A C 0.4826(6) -0.0185(8) -0.0444(4)
C48A C 0.4783(8) 0.0546(13) -0.0892(7)
P1 P 0.6507(2) 0.78342(19) 0.34242(12)
F1 F 0.6585(7) 0.9022(5) 0.3415(4)
F2 F 0.6174(8) 0.7429(6) 0.2483(3)
F3 F 0.4997(6) 0.7564(6) 0.3300(5)
F4 F 0.6436(7) 0.6704(5) 0.3490(5)
F5 F 0.7992(6) 0.8091(8) 0.3586(6)
F6 F 0.6708(10) 0.8248(6) 0.4366(4)
Ag1 Ag 0.32862(6) 0.10223(5) 0.25337(3)
O1 O 0.0859(5) -0.1138(4) 0.5389(2)
O2 O -0.2473(5) -0.3879(4) 0.5493(3)
O3 O 0.0740(4) -0.1384(4) 0.8103(2)
C1 C 0.0341(6) -0.1647(6) 0.5905(4)
C2 C -0.0762(7) -0.2514(6) 0.5508(4)
H1 H -0.1111 -0.2763 0.4927
C3 C -0.1343(7) -0.3009(5) 0.5986(4)
C4 C -0.0877(6) -0.2631(5) 0.6852(4)
H2 H -0.1289 -0.2966 0.7171
C5 C 0.0228(7) -0.1736(5) 0.7225(4)
C6 C 0.0883(6) -0.1234(5) 0.6776(3)
H3 H 0.1647 -0.0651 0.7038
N1 N 0.2806(6) -0.0044(4) 0.3336(3)
O4 O 0.2672(6) -0.1687(5) 0.5622(3)
C7 C 0.1686(8) -0.0064(6) 0.3520(4)
H4 H 0.1080 0.0198 0.3218
C8 C 0.1376(7) -0.0446(6) 0.4123(4)
H5 H 0.0582 -0.0435 0.4233
C9 C 0.2248(7) -0.0852(5) 0.4571(4)
C10 C 0.3378(7) -0.0873(5) 0.4367(4)
H6 H 0.3980 -0.1163 0.4642
C11 C 0.3618(7) -0.0462(6) 0.3752(4)
H7 H 0.4395 -0.0480 0.3621
C12 C 0.1978(8) -0.1294(6) 0.5248(4)
N2 N -0.5571(5) -0.7406(5) 0.3613(3)
O5 O -0.2442(7) -0.4815(5) 0.6372(4)
C13 C -0.5003(7) -0.6486(6) 0.3519(4)
H8 H -0.5198 -0.6447 0.2978
C14 C -0.4148(7) -0.5584(6) 0.4154(4)
H9 H -0.3798 -0.4953 0.4049
C15 C -0.3826(7) -0.5652(6) 0.4959(4)
C16 C -0.4424(7) -0.6588(6) 0.5085(4)
H10 H -0.4245 -0.6646 0.5620
C17 C -0.5290(7) -0.7434(6) 0.4405(4)
H11 H -0.5703 -0.8058 0.4496
C18 C -0.2816(7) -0.4732(7) 0.5703(4)
N3 N 0.2339(5) 0.0546(4) 1.1173(3)
O6 O 0.0475(6) 0.0243(5) 0.8182(3)
C19 C 0.2231(7) 0.1274(6) 1.0775(4)
H12 H 0.2495 0.2003 1.1093
C20 C 0.1745(7) 0.0988(6) 0.9913(4)
H13 H 0.1660 0.1514 0.9660
C21 C 0.1391(6) -0.0070(5) 0.9440(3)
C22 C 0.1496(6) -0.0826(5) 0.9845(4)
H14 H 0.1250 -0.1558 0.9539
C23 C 0.1968(6) -0.0483(6) 1.0706(4)
H15 H 0.2028 -0.0999 1.0972
C24 C 0.0812(6) -0.0378(6) 0.8515(4)
Ag1_2 Ag -0.67138(6) -0.89777(5) 0.25337(3)
Ag1_3 Ag 0.32862(6) 0.10223(5) 1.25337(3)
N2_2 N 0.4429(5) 0.2594(5) 0.3613(3)
N3_2 N 0.2339(5) 0.0546(4) 0.1173(3)
loop_
_geom_bond_atom_site_label_1
_geom_bond_atom_site_label_2
_geom_bond_site_symmetry_1
_geom_bond_site_symmetry_2
Ag1 N1 1_555 1_555
O1 C1 1_555 1_555
O2 C3 1_555 1_555
O3 C5 1_555 1_555
C1 C2 1_555 1_555
C2 H1 1_555 1_555
C3 C2 1_555 1_555
C4 C3 1_555 1_555
H2 C4 1_555 1_555
C5 C4 1_555 1_555
C6 C1 1_555 1_555
H3 C6 1_555 1_555
N1 C7 1_555 1_555
O4 C12 1_555 1_555
C7 H4 1_555 1_555
C8 C7 1_555 1_555
H5 C8 1_555 1_555
C9 C8 1_555 1_555
C10 C9 1_555 1_555
H6 C10 1_555 1_555
C11 N1 1_555 1_555
H7 C11 1_555 1_555
C12 O1 1_555 1_555
N2 C13 1_555 1_555
O5 C18 1_555 1_555
C13 H8 1_555 1_555
C14 C13 1_555 1_555
H9 C14 1_555 1_555
C15 C14 1_555 1_555
C16 C15 1_555 1_555
H10 C16 1_555 1_555
C17 N2 1_555 1_555
H11 C17 1_555 1_555
C18 O2 1_555 1_555
N3 C19 1_555 1_555
O6 C24 1_555 1_555
C19 H12 1_555 1_555
C20 C19 1_555 1_555
H13 C20 1_555 1_555
C21 C20 1_555 1_555
C22 C21 1_555 1_555
H14 C22 1_555 1_555
C23 N3 1_555 1_555
H15 C23 1_555 1_555
C24 O3 1_555 1_555
C25 H16 1_555 1_555
C26 C25 1_555 1_555
H17 C26 1_555 1_555
C27 H18 1_555 1_555
C28 C27 1_555 1_555
H19 C28 1_555 1_555
C29 C28 1_555 1_555
H20 C29 1_555 1_555
C30 H21 1_555 1_555
C31 C30 1_555 1_555
H22 C31 1_555 1_555
C32 H23 1_555 1_555
C33 C32 1_555 1_555
H24 C33 1_555 1_555
C34 C33 1_555 1_555
H25 C34 1_555 1_555
C35 C25 1_555 1_555
C36 C35 1_555 1_555
C37 C36 1_555 1_555
C38 C26 1_555 1_555
C39 C29 1_555 1_555
C40 C31 1_555 1_555
C41 H26 1_555 1_555
C42 H27 1_555 1_555
C43 C42 1_555 1_555
H28 C43 1_555 1_555
C44 C43 1_555 1_555
H29 C44 1_555 1_555
C45 H30 1_555 1_555
C46 C41 1_555 1_555
C47 C46 1_555 1_555
C48 C44 1_555 1_555
P1 F1 1_555 1_555
F2 P1 1_555 1_555
F3 P1 1_555 1_555
F4 P1 1_555 1_555
F5 P1 1_555 1_555
F6 P1 1_555 1_555
Ag1_2 N2 1_555 1_555
Ag1_3 N3 1_555 1_555
N2_2 Ag1 1_555 1_555
N3_2 Ag1 1_555 1_555
C41A C45 1_555 1_555
H26A C41A 1_555 1_555
C42A H27A 1_555 1_555
C43A C42A 1_555 1_555
H28A C43A 1_555 1_555
C44A C43A 1_555 1_555
H29A C44A 1_555 1_555
C45A C41 1_555 1_555
H30A C45A 1_555 1_555
C46A C41A 1_555 1_555
C47A C47 1_555 1_555
C48A C44A 1_555 1_555
C5 C6 1_555 1_555
C9 C12 1_555 1_555
C10 C11 1_555 1_555
C15 C18 1_555 1_555
C16 C17 1_555 1_555
C21 C24 1_555 1_555
C22 C23 1_555 1_555
C27 C38 1_555 1_555
C30 C39 1_555 1_555
C32 C40 1_555 1_555
C34 C35 1_555 1_555
C36 C40 1_555 1_555
C37 C38 1_555 1_555
C37 C39 1_555 1_555
C42 C46 1_555 1_555
C45 C48 1_555 1_555
C47 C48 1_555 1_555
C42A C46A 1_555 1_555
C45A C48A 1_555 1_555
C46A C47A 1_555 1_555
C47A C48A 1_555 1_555

#END
