
#######################################################################
#
#                 Cambridge Crystallographic Data Centre
#                                CCDC 
#
#######################################################################
#
# If this CIF has been generated from an entry in the Cambridge 
# Structural Database, then it will include bibliographic, chemical, 
# crystal, experimental, refinement or atomic coordinate data resulting 
# from the CCDC's data processing and validation procedures.
#
#######################################################################

data_WITMIX
_symmetry_cell_setting           cubic
_symmetry_space_group_name_H-M   'P a -3'
_symmetry_Int_Tables_number      205
_space_group_name_Hall           '-P 2ac 2ab 3'
loop_
_symmetry_equiv_pos_site_id
_symmetry_equiv_pos_as_xyz
1 x,y,z
2 1/2-x,-y,1/2+z
3 -x,1/2+y,1/2-z
4 1/2+x,1/2-y,-z
5 z,x,y
6 1/2+z,1/2-x,-y
7 1/2-z,-x,1/2+y
8 -z,1/2+x,1/2-y
9 y,z,x
10 -y,1/2+z,1/2-x
11 1/2+y,1/2-z,-x
12 1/2-y,-z,1/2+x
13 -x,-y,-z
14 1/2+x,y,1/2-z
15 x,1/2-y,1/2+z
16 1/2-x,1/2+y,z
17 -z,-x,-y
18 1/2-z,1/2+x,y
19 1/2+z,x,1/2-y
20 z,1/2-x,1/2+y
21 -y,-z,-x
22 y,1/2-z,1/2+x
23 1/2-y,1/2+z,x
24 1/2+y,z,1/2-x
_cell_length_a                   17.832(4)
_cell_length_b                   17.832(4)
_cell_length_c                   17.832(4)
_cell_angle_alpha                90
_cell_angle_beta                 90
_cell_angle_gamma                90
_cell_volume                     5670.22
loop_
_atom_site_label
_atom_site_type_symbol
_atom_site_fract_x
_atom_site_fract_y
_atom_site_fract_z
Cl1 Cl 0.05495(3) 0.05495(3) 0.05495(3)
Na1 Na -0.05964(6) 0.44036(6) 0.05964(6)
O1 O -0.05625(13) 0.30926(12) 0.08353(13)
N1 N 0.18099(13) 0.18099(13) 0.18099(13)
N2 N 0.03872(15) 0.22823(14) 0.11205(17)
H1 H 0.0529 0.1822 0.1097
N3 N -0.07284(15) 0.18187(14) 0.06866(17)
H2 H -0.0485 0.1402 0.0672
N4 N -0.30329(17) 0.15328(18) 0.0234(2)
C1 C 0.13718(17) 0.24788(17) 0.20466(18)
H3 H 0.1715 0.2852 0.2244
H4 H 0.1036 0.2335 0.2449
C2 C 0.09118(18) 0.28321(17) 0.14167(19)
H5 H 0.0639 0.3263 0.1607
H6 H 0.1243 0.3002 0.1020
C3 C -0.03100(16) 0.24533(16) 0.08799(16)
C4 C -0.14893(17) 0.17759(16) 0.05151(16)
C5 C -0.20247(17) 0.23076(17) 0.07208(18)
H7 H -0.1883 0.2752 0.0954
C6 C -0.27745(19) 0.2157(2) 0.0569(2)
H8 H -0.3125 0.2517 0.0710
C7 C -0.2504(2) 0.1040(2) 0.0017(2)
H9 H -0.2659 0.0610 -0.0235
C8 C -0.1749(2) 0.11315(19) 0.0144(2)
H10 H -0.1411 0.0768 -0.0015
O2 O 0.0816(3) 0.4536(3) 0.0421(3)
O1D O 0.08353(13) -0.05625(13) 0.30926(12)
N2D N 0.11205(17) 0.03872(15) 0.22823(14)
H1D H 0.1097 0.0529 0.1822
N3D N 0.06866(17) -0.07284(15) 0.18187(14)
H2D H 0.0672 -0.0485 0.1402
N4D N 0.0234(2) -0.30329(17) 0.15328(18)
C1D C 0.20466(18) 0.13718(17) 0.24788(17)
H3D H 0.2244 0.1715 0.2852
H4D H 0.2449 0.1036 0.2335
C2D C 0.14167(19) 0.09118(18) 0.28321(17)
H5D H 0.1607 0.0639 0.3263
H6D H 0.1020 0.1243 0.3002
C3D C 0.08799(16) -0.03100(16) 0.24533(16)
C4D C 0.05151(16) -0.14893(17) 0.17759(16)
C5D C 0.07208(18) -0.20247(17) 0.23076(17)
H7D H 0.0954 -0.1883 0.2752
C6D C 0.0569(2) -0.27745(19) 0.2157(2)
H8D H 0.0710 -0.3125 0.2517
C7D C 0.0017(2) -0.2504(2) 0.1040(2)
H9D H -0.0235 -0.2659 0.0610
C8D C 0.0144(2) -0.1749(2) 0.11315(19)
H10D H -0.0015 -0.1411 0.0768
O1H O 0.30926(12) 0.08353(13) -0.05625(13)
N2H N 0.22823(14) 0.11205(17) 0.03872(15)
H1H H 0.1822 0.1097 0.0529
N3H N 0.18187(14) 0.06866(17) -0.07284(15)
H2H H 0.1402 0.0672 -0.0485
N4H N 0.15328(18) 0.0234(2) -0.30329(17)
C1H C 0.24788(17) 0.20466(18) 0.13718(17)
H3H H 0.2852 0.2244 0.1715
H4H H 0.2335 0.2449 0.1036
C2H C 0.28321(17) 0.14167(19) 0.09118(18)
H5H H 0.3263 0.1607 0.0639
H6H H 0.3002 0.1020 0.1243
C3H C 0.24533(16) 0.08799(16) -0.03100(16)
C4H C 0.17759(16) 0.05151(16) -0.14893(17)
C5H C 0.23076(17) 0.07208(18) -0.20247(17)
H7H H 0.2752 0.0954 -0.1883
C6H C 0.2157(2) 0.0569(2) -0.27745(19)
H8H H 0.2517 0.0710 -0.3125
C7H C 0.1040(2) 0.0017(2) -0.2504(2)
H9H H 0.0610 -0.0235 -0.2659
C8H C 0.11315(19) 0.0144(2) -0.1749(2)
H10H H 0.0768 -0.0015 -0.1411
O2G O -0.0421(3) 0.5816(3) 0.0464(3)
O2J O -0.0464(3) 0.4579(3) -0.0816(3)
Na1B Na 0.05964(6) -0.05964(6) 0.44036(6)
Na1C Na 0.44036(6) 0.05964(6) -0.05964(6)
Na1L Na 0.05964(6) 0.55964(6) -0.05964(6)
O1G O -0.08353(13) 0.44375(13) 0.19074(12)
O1J O -0.19074(12) 0.41647(13) 0.05625(13)
O2L O -0.0816(3) 0.5464(3) -0.0421(3)
O2S O 0.0421(3) 0.4184(3) -0.0464(3)
O2V O 0.0464(3) 0.5421(3) 0.0816(3)
loop_
_geom_bond_atom_site_label_1
_geom_bond_atom_site_label_2
_geom_bond_site_symmetry_1
_geom_bond_site_symmetry_2
Na1 O1 1_555 1_555
O1 C3 1_555 1_555
N1 C1 1_555 1_555
N2 H1 1_555 1_555
N3 H2 1_555 1_555
N4 C6 1_555 1_555
C1 H3 1_555 1_555
H4 C1 1_555 1_555
C2 N2 1_555 1_555
H5 C2 1_555 1_555
H6 C2 1_555 1_555
C3 N2 1_555 1_555
C4 N3 1_555 1_555
C5 C4 1_555 1_555
H7 C5 1_555 1_555
C6 C5 1_555 1_555
H8 C6 1_555 1_555
C7 N4 1_555 1_555
H9 C7 1_555 1_555
C8 C4 1_555 1_555
H10 C8 1_555 1_555
O2 Na1 1_555 1_555
O1D C3D 1_555 1_555
N2D H1D 1_555 1_555
N3D H2D 1_555 1_555
N4D C6D 1_555 1_555
C1D N1 1_555 1_555
H3D C1D 1_555 1_555
H4D C1D 1_555 1_555
C2D N2D 1_555 1_555
H5D C2D 1_555 1_555
H6D C2D 1_555 1_555
C3D N2D 1_555 1_555
C4D N3D 1_555 1_555
C5D C4D 1_555 1_555
H7D C5D 1_555 1_555
C6D C5D 1_555 1_555
H8D C6D 1_555 1_555
C7D N4D 1_555 1_555
H9D C7D 1_555 1_555
C8D C4D 1_555 1_555
H10D C8D 1_555 1_555
O1H C3H 1_555 1_555
N2H H1H 1_555 1_555
N3H H2H 1_555 1_555
N4H C6H 1_555 1_555
C1H N1 1_555 1_555
H3H C1H 1_555 1_555
H4H C1H 1_555 1_555
C2H N2H 1_555 1_555
H5H C2H 1_555 1_555
H6H C2H 1_555 1_555
C3H N2H 1_555 1_555
C4H N3H 1_555 1_555
C5H C4H 1_555 1_555
H7H C5H 1_555 1_555
C6H C5H 1_555 1_555
H8H C6H 1_555 1_555
C7H N4H 1_555 1_555
H9H C7H 1_555 1_555
C8H C4H 1_555 1_555
H10H C8H 1_555 1_555
O2G Na1 1_555 1_555
O2J Na1 1_555 1_555
Na1B O1D 1_555 1_555
Na1C O1H 1_555 1_555
Na1L O2 1_555 1_555
O1G Na1 1_555 1_555
O1J Na1 1_555 1_555
O2L Na1 1_555 1_555
O2S Na1 1_555 1_555
O2V Na1 1_555 1_555
N3 C3 1_555 1_555
C1 C2 1_555 1_555
C7 C8 1_555 1_555
N3D C3D 1_555 1_555
C1D C2D 1_555 1_555
C7D C8D 1_555 1_555
N3H C3H 1_555 1_555
C1H C2H 1_555 1_555
C7H C8H 1_555 1_555
O2G Na1L 1_555 1_555
O2J Na1L 1_555 1_555
Na1L O2L 1_555 1_555
Na1L O2S 1_555 1_555
Na1L O2V 1_555 1_555

#END
