
#######################################################################
#
#                 Cambridge Crystallographic Data Centre
#                                CCDC 
#
#######################################################################
#
# If this CIF has been generated from an entry in the Cambridge 
# Structural Database, then it will include bibliographic, chemical, 
# crystal, experimental, refinement or atomic coordinate data resulting 
# from the CCDC's data processing and validation procedures.
#
#######################################################################

data_WITMOD
_symmetry_cell_setting           cubic
_symmetry_space_group_name_H-M   'P a -3'
_symmetry_Int_Tables_number      205
_space_group_name_Hall           '-P 2ac 2ab 3'
loop_
_symmetry_equiv_pos_site_id
_symmetry_equiv_pos_as_xyz
1 x,y,z
2 1/2-x,-y,1/2+z
3 -x,1/2+y,1/2-z
4 1/2+x,1/2-y,-z
5 z,x,y
6 1/2+z,1/2-x,-y
7 1/2-z,-x,1/2+y
8 -z,1/2+x,1/2-y
9 y,z,x
10 -y,1/2+z,1/2-x
11 1/2+y,1/2-z,-x
12 1/2-y,-z,1/2+x
13 -x,-y,-z
14 1/2+x,y,1/2-z
15 x,1/2-y,1/2+z
16 1/2-x,1/2+y,z
17 -z,-x,-y
18 1/2-z,1/2+x,y
19 1/2+z,x,1/2-y
20 z,1/2-x,1/2+y
21 -y,-z,-x
22 y,1/2-z,1/2+x
23 1/2-y,1/2+z,x
24 1/2+y,z,1/2-x
_cell_length_a                   18.148(2)
_cell_length_b                   18.148(2)
_cell_length_c                   18.148(2)
_cell_angle_alpha                90
_cell_angle_beta                 90
_cell_angle_gamma                90
_cell_volume                     5977.04
loop_
_atom_site_label
_atom_site_type_symbol
_atom_site_fract_x
_atom_site_fract_y
_atom_site_fract_z
K1 K 0.06235(4) 0.06235(4) 0.06235(4)
O1 O 0.09777(16) 0.06142(15) 0.20375(13)
N1 N 0.17887(15) -0.17887(15) 0.32113(15)
N2 N 0.07990(19) 0.07498(17) 0.32778(17)
H1 H 0.0803 0.0510 0.3687
N3 N 0.1192(2) -0.03436(18) 0.28060(17)
H2 H 0.1173 -0.0490 0.3256
N4 N 0.0235(3) 0.2977(2) 0.3551(2)
C1 C 0.0989(2) 0.0352(2) 0.2655(2)
C2 C 0.0755(2) 0.2014(2) 0.2791(2)
H3 H 0.0977 0.1885 0.2348
C3 C 0.0564(3) 0.2737(2) 0.2940(3)
H4 H 0.0675 0.3087 0.2581
C4 C 0.0603(2) 0.1488(2) 0.3324(2)
C5 C 0.2036(2) -0.1351(2) 0.2572(2)
H5 H 0.2208 -0.1684 0.2190
H6 H 0.2450 -0.1047 0.2720
C6 C 0.0248(3) 0.1727(3) 0.3960(2)
H7 H 0.0126 0.1392 0.4328
C7 C 0.1442(3) -0.0859(2) 0.2253(2)
H8 H 0.1636 -0.0592 0.1832
H9 H 0.1031 -0.1158 0.2086
C8 C 0.0078(3) 0.2457(3) 0.4041(3)
H10 H -0.0164 0.2599 0.4470
O2 O 0.0508(4) 0.0483(3) -0.0905(3)
O1F O 0.29625(13) -0.09777(16) 0.56142(15)
N2F N 0.17222(17) -0.07990(19) 0.57498(17)
H1F H 0.1313 -0.0803 0.5510
N3F N 0.21940(17) -0.1192(2) 0.46564(18)
H2F H 0.1744 -0.1173 0.4510
N4F N 0.1449(2) -0.0235(3) 0.7977(2)
C1F C 0.2345(2) -0.0989(2) 0.5352(2)
C2F C 0.2209(2) -0.0755(2) 0.7014(2)
H3F H 0.2652 -0.0977 0.6885
C3F C 0.2060(3) -0.0564(3) 0.7737(2)
H4F H 0.2419 -0.0675 0.8087
C4F C 0.1676(2) -0.0603(2) 0.6488(2)
C5F C 0.2428(2) -0.2036(2) 0.3649(2)
H5F H 0.2810 -0.2208 0.3316
H6F H 0.2280 -0.2450 0.3953
C6F C 0.1040(2) -0.0248(3) 0.6727(3)
H7F H 0.0672 -0.0126 0.6392
C7F C 0.2747(2) -0.1442(3) 0.4141(2)
H8F H 0.3168 -0.1636 0.4408
H9F H 0.2914 -0.1031 0.3842
C8F C 0.0959(3) -0.0078(3) 0.7457(3)
H10F H 0.0530 0.0164 0.7599
O1I O -0.06142(15) -0.29625(13) 0.40223(16)
N2I N -0.07498(17) -0.17222(17) 0.42010(19)
H1I H -0.0510 -0.1313 0.4197
N3I N 0.03436(18) -0.21940(17) 0.3808(2)
H2I H 0.0490 -0.1744 0.3827
N4I N -0.2977(2) -0.1449(2) 0.4765(3)
C1I C -0.0352(2) -0.2345(2) 0.4011(2)
C2I C -0.2014(2) -0.2209(2) 0.4245(2)
H3I H -0.1885 -0.2652 0.4023
C3I C -0.2737(2) -0.2060(3) 0.4436(3)
H4I H -0.3087 -0.2419 0.4325
C4I C -0.1488(2) -0.1676(2) 0.4397(2)
C5I C 0.1351(2) -0.2428(2) 0.2964(2)
H5I H 0.1684 -0.2810 0.2792
H6I H 0.1047 -0.2280 0.2550
C6I C -0.1727(3) -0.1040(2) 0.4752(3)
H7I H -0.1392 -0.0672 0.4874
C7I C 0.0859(2) -0.2747(2) 0.3558(3)
H8I H 0.0592 -0.3168 0.3364
H9I H 0.1158 -0.2914 0.3969
C8I C -0.2457(3) -0.0959(3) 0.4922(3)
H10I H -0.2599 -0.0530 0.5164
O2D O -0.0905(3) 0.0508(4) 0.0483(3)
O2H O 0.0483(3) -0.0905(3) 0.0508(4)
K1A K 0.43765(4) -0.06235(4) 0.56235(4)
K1B K -0.06235(4) -0.43765(4) 0.43765(4)
K1L K -0.06235(4) -0.06235(4) -0.06235(4)
O1D O 0.20375(13) 0.09777(16) 0.06142(15)
O1H O 0.06142(15) 0.20375(13) 0.09777(16)
O2L O -0.0508(4) -0.0483(3) 0.0905(3)
O2P O 0.0905(3) -0.0508(4) -0.0483(3)
O2T O -0.0483(3) 0.0905(3) -0.0508(4)
Cl1 Cl 0.94594(4) 0.44594(4) 0.05406(4)
loop_
_geom_bond_atom_site_label_1
_geom_bond_atom_site_label_2
_geom_bond_site_symmetry_1
_geom_bond_site_symmetry_2
K1 O1 1_555 1_555
O1 C1 1_555 1_555
N1 C5 1_555 1_555
N2 H1 1_555 1_555
N3 H2 1_555 1_555
N4 C3 1_555 1_555
C1 N2 1_555 1_555
C2 H3 1_555 1_555
C3 C2 1_555 1_555
H4 C3 1_555 1_555
C4 N2 1_555 1_555
C5 H5 1_555 1_555
H6 C5 1_555 1_555
C6 C4 1_555 1_555
H7 C6 1_555 1_555
C7 N3 1_555 1_555
H8 C7 1_555 1_555
H9 C7 1_555 1_555
C8 N4 1_555 1_555
H10 C8 1_555 1_555
O2 K1 1_555 1_555
O1F C1F 1_555 1_555
N2F H1F 1_555 1_555
N3F H2F 1_555 1_555
N4F C3F 1_555 1_555
C1F N2F 1_555 1_555
C2F H3F 1_555 1_555
C3F C2F 1_555 1_555
H4F C3F 1_555 1_555
C4F N2F 1_555 1_555
C5F N1 1_555 1_555
H5F C5F 1_555 1_555
H6F C5F 1_555 1_555
C6F C4F 1_555 1_555
H7F C6F 1_555 1_555
C7F N3F 1_555 1_555
H8F C7F 1_555 1_555
H9F C7F 1_555 1_555
C8F N4F 1_555 1_555
H10F C8F 1_555 1_555
O1I C1I 1_555 1_555
N2I H1I 1_555 1_555
N3I H2I 1_555 1_555
N4I C3I 1_555 1_555
C1I N2I 1_555 1_555
C2I H3I 1_555 1_555
C3I C2I 1_555 1_555
H4I C3I 1_555 1_555
C4I N2I 1_555 1_555
C5I N1 1_555 1_555
H5I C5I 1_555 1_555
H6I C5I 1_555 1_555
C6I C4I 1_555 1_555
H7I C6I 1_555 1_555
C7I N3I 1_555 1_555
H8I C7I 1_555 1_555
H9I C7I 1_555 1_555
C8I N4I 1_555 1_555
H10I C8I 1_555 1_555
O2D K1 1_555 1_555
O2H K1 1_555 1_555
K1A O1F 1_555 1_555
K1B O1I 1_555 1_555
K1L O2 1_555 1_555
O1D K1 1_555 1_555
O1H K1 1_555 1_555
O2L K1 1_555 1_555
O2P K1 1_555 1_555
O2T K1 1_555 1_555
N3 C1 1_555 1_555
C2 C4 1_555 1_555
C5 C7 1_555 1_555
C6 C8 1_555 1_555
N3F C1F 1_555 1_555
C2F C4F 1_555 1_555
C5F C7F 1_555 1_555
C6F C8F 1_555 1_555
N3I C1I 1_555 1_555
C2I C4I 1_555 1_555
C5I C7I 1_555 1_555
C6I C8I 1_555 1_555
O2D K1L 1_555 1_555
O2H K1L 1_555 1_555
K1L O2L 1_555 1_555
K1L O2P 1_555 1_555
K1L O2T 1_555 1_555

#END
