
#######################################################################
#
#                 Cambridge Crystallographic Data Centre
#                                CCDC 
#
#######################################################################
#
# If this CIF has been generated from an entry in the Cambridge 
# Structural Database, then it will include bibliographic, chemical, 
# crystal, experimental, refinement or atomic coordinate data resulting 
# from the CCDC's data processing and validation procedures.
#
#######################################################################

data_WITMET
_symmetry_cell_setting           monoclinic
_symmetry_space_group_name_H-M   'P 2/c'
_symmetry_Int_Tables_number      13
_space_group_name_Hall           '-P 2yc'
loop_
_symmetry_equiv_pos_site_id
_symmetry_equiv_pos_as_xyz
1 x,y,z
2 -x,y,1/2-z
3 -x,-y,-z
4 x,-y,1/2+z
_cell_length_a                   10.2536(5)
_cell_length_b                   11.9941(6)
_cell_length_c                   25.9444(12)
_cell_angle_alpha                90
_cell_angle_beta                 105.733(2)
_cell_angle_gamma                90
_cell_volume                     3071.17
loop_
_atom_site_label
_atom_site_type_symbol
_atom_site_fract_x
_atom_site_fract_y
_atom_site_fract_z
Co1 Co 0.88839(5) 0.44485(4) 0.047271(18)
O1 O 0.1957(3) 0.9910(2) -0.05050(11)
O2 O 0.5830(3) 0.9054(2) 0.14004(11)
O3 O 0.7884(2) 0.4203(2) -0.02993(8)
O4 O 0.9534(2) 0.4529(2) -0.06835(8)
C1 C 0.7990(4) 0.6765(3) 0.08016(16)
H1 H 0.883(3) 0.6763(3) 0.1023(9)
O5 O 0.7563(3) 0.3645(2) 0.08044(12)
O6 O 0.9267(3) 0.3931(3) 0.15034(13)
N1 N 0.0159(3) 1.3036(2) 0.04625(11)
N2 N 0.7633(3) 0.5916(2) 0.04622(12)
C2 C 0.5480(4) 0.6804(3) 0.01329(15)
H2 H 0.461(3) 0.6779(3) -0.0106(9)
C3 C 0.7148(4) 0.7659(3) 0.08260(16)
H3 H 0.7510(12) 0.834(2) 0.1120(9)
C4 C 0.2310(4) 1.2127(3) 0.07788(16)
H4 H 0.323(3) 1.2134(3) 0.1038(9)
C5 C 0.1958(4) 1.1268(3) 0.04014(14)
C6 C 0.1830(6) 0.9194(4) -0.0962(2)
H5 H 0.176(5) 0.861(4) -0.0863(17)
H6 H 0.276(4) 0.928(3) -0.1069(13)
C7 C 0.2924(4) 1.0341(3) 0.04092(15)
C8 C 0.5448(4) 0.3089(3) 0.23172(14)
C9 C 0.6817(4) 0.2841(3) 0.24981(15)
H7 H 0.7170(14) 0.2562(11) 0.2849(13)
C10 C 0.2917(4) 0.9688(3) -0.00360(15)
C11 C 0.3900(4) 1.0101(3) 0.08853(15)
H8 H 0.3914(4) 1.0549(15) 0.1210(11)
C12 C 0.8338(4) 0.4278(3) -0.07029(13)
C13 C 0.7385(3) 0.4047(3) -0.12328(13)
C14 C 0.4872(4) 0.8630(3) 0.04789(15)
C15 C 0.5842(4) 0.7700(3) 0.04878(15)
C16 C 0.6089(4) 0.3678(3) -0.12752(14)
H9 H 0.5823(9) 0.3494(7) -0.0946(11)
C17 C 0.3883(4) 0.8864(3) 0.00066(15)
H10 H 0.3881(4) 0.8472(15) -0.0278(11)
C18 C 0.4863(4) 0.9278(3) 0.09290(15)
C19 C 0.1394(4) 1.2960(3) 0.07955(15)
H11 H 0.1646(10) 1.349(2) 0.1052(10)
C20 C 0.7172(4) 0.3377(3) 0.16527(15)
C21 C 0.0561(5) 0.9529(4) -0.13739(16)
H12 H 0.0432 0.9062 -0.1684
H13 H -0.0201 0.9452 -0.1228
H14 H 0.0641 1.0292 -0.1473
C22 C 0.5159(4) 0.3553(3) -0.17656(14)
H15 H 0.423(3) 0.3265(10) -0.17883(16)
C23 C 0.6393(4) 0.5967(3) 0.01362(14)
H16 H 0.6154(11) 0.545(2) -0.0085(9)
C24 C -0.0174(4) 1.2221(3) 0.00953(15)
H17 H -0.109(3) 1.2258(3) -0.0163(9)
C25 C 0.0671(4) 1.1352(3) 0.00512(15)
H18 H 0.0347(11) 1.0755(19) -0.0247(10)
C26 C 0.6832(4) 0.4148(3) -0.21957(14)
H19 H 0.7102(10) 0.4305(6) -0.2528(11)
C27 C 0.7758(4) 0.4265(3) -0.17019(14)
H20 H 0.860(3) 0.4477(8) -0.16808(16)
C28 C 0.5510(4) 0.3815(3) -0.22372(13)
C29 C 0.7025(5) 0.9296(5) 0.23136(17)
H21 H 0.7075 0.9710 0.2635
H22 H 0.6911 0.8518 0.2377
H23 H 0.7846 0.9401 0.2209
C30 C 0.4955(4) 0.3455(3) 0.17966(14)
H24 H 0.407(3) 0.3622(7) 0.1672(5)
C31 C 0.5807(4) 0.3576(3) 0.14670(15)
H25 H 0.5464(14) 0.3789(9) 0.1125(13)
C32 C 0.8092(5) 0.3661(4) 0.13032(19)
C33 C 0.5845(6) 0.9690(5) 0.1870(2)
H26 H 0.490(4) 0.960(4) 0.1947(15)
H27 H 0.584(5) 1.041(4) 0.1776(17)
C34 C 0.7668(4) 0.2993(3) 0.21689(16)
H28 H 0.859(4) 0.2843(7) 0.2299(5)
O3A O 0.2116(2) 0.4203(2) -0.47007(8)
O4A O 0.0466(2) 0.4529(2) -0.43165(8)
C12A C 0.1662(4) 0.4278(3) -0.42971(13)
C13A C 0.2615(3) 0.4047(3) -0.37672(13)
C16A C 0.3911(4) 0.3678(3) -0.37248(14)
H9A H 0.4177(9) 0.3494(7) -0.4054(11)
C22A C 0.4841(4) 0.3553(3) -0.32344(14)
H15A H 0.577(3) 0.3265(10) -0.32117(16)
C26A C 0.3168(4) 0.4148(3) -0.28043(14)
H19A H 0.2898(10) 0.4305(6) -0.2472(11)
C27A C 0.2242(4) 0.4265(3) -0.32981(14)
H20A H 0.140(3) 0.4477(8) -0.33192(16)
C28A C 0.4490(4) 0.3815(3) -0.27628(13)
O5A O 0.2437(3) 0.3645(2) 0.41956(12)
O6A O 0.0733(3) 0.3931(3) 0.34966(13)
C8A C 0.4552(4) 0.3089(3) 0.26828(14)
C9A C 0.3183(4) 0.2841(3) 0.25019(15)
H7A H 0.2830(14) 0.2562(11) 0.2151(13)
C20A C 0.2828(4) 0.3377(3) 0.33473(15)
C30A C 0.5045(4) 0.3455(3) 0.32034(14)
H24A H 0.593(3) 0.3622(7) 0.3328(5)
C31A C 0.4193(4) 0.3576(3) 0.35330(15)
H25A H 0.4536(14) 0.3789(9) 0.3875(13)
C32A C 0.1908(5) 0.3661(4) 0.36968(19)
C34A C 0.2332(4) 0.2993(3) 0.28311(16)
H28A H 0.141(4) 0.2843(7) 0.2701(5)
Co1A Co 0.11161(5) 0.44485(4) -0.547271(18)
O1A O 0.8043(3) 0.9910(2) -0.44950(11)
O2A O 0.4170(3) 0.9054(2) -0.64004(11)
C1A C 0.2010(4) 0.6765(3) -0.58016(16)
H1A H 0.117(3) 0.6763(3) -0.6023(9)
N1A N 0.9841(3) 1.3036(2) -0.54625(11)
N2A N 0.2367(3) 0.5916(2) -0.54622(12)
C2A C 0.4520(4) 0.6804(3) -0.51329(15)
H2A H 0.539(3) 0.6779(3) -0.4894(9)
C3A C 0.2852(4) 0.7659(3) -0.58260(16)
H3A H 0.2490(12) 0.834(2) -0.6120(9)
C4A C 0.7690(4) 1.2127(3) -0.57788(16)
H4A H 0.677(3) 1.2134(3) -0.6038(9)
C5A C 0.8042(4) 1.1268(3) -0.54014(14)
C6A C 0.8170(6) 0.9194(4) -0.4038(2)
H5A H 0.824(5) 0.861(4) -0.4137(17)
H6A H 0.724(4) 0.928(3) -0.3931(13)
C7A C 0.7076(4) 1.0341(3) -0.54092(15)
C10A C 0.7083(4) 0.9688(3) -0.49640(15)
C11A C 0.6100(4) 1.0101(3) -0.58853(15)
H8A H 0.6086(4) 1.0549(15) -0.6210(11)
C14A C 0.5128(4) 0.8630(3) -0.54789(15)
C15A C 0.4158(4) 0.7700(3) -0.54878(15)
C17A C 0.6117(4) 0.8864(3) -0.50066(15)
H10A H 0.6119(4) 0.8472(15) -0.4722(11)
C18A C 0.5137(4) 0.9278(3) -0.59290(15)
C19A C 0.8606(4) 1.2960(3) -0.57955(15)
H11A H 0.8354(10) 1.349(2) -0.6052(10)
C21A C 0.9439(5) 0.9529(4) -0.36261(16)
H12A H 0.9568 0.9062 -0.3316
H13A H 1.0201 0.9452 -0.3772
H14A H 0.9359 1.0292 -0.3527
C23A C 0.3607(4) 0.5967(3) -0.51362(14)
H16A H 0.3846(11) 0.545(2) -0.4915(9)
C24A C 1.0174(4) 1.2221(3) -0.50953(15)
H17A H 1.109(3) 1.2258(3) -0.4837(9)
C25A C 0.9329(4) 1.1352(3) -0.50512(15)
H18A H 0.9653(11) 1.0755(19) -0.4753(10)
C29A C 0.2975(5) 0.9296(5) -0.73136(17)
H21A H 0.2925 0.9710 -0.7635
H22A H 0.3089 0.8518 -0.7377
H23A H 0.2154 0.9401 -0.7209
C33A C 0.4155(6) 0.9690(5) -0.6870(2)
H26A H 0.510(4) 0.960(4) -0.6947(15)
H27A H 0.416(5) 1.041(4) -0.6776(17)
Co1_2 Co -0.11161(5) 1.44485(4) 0.047271(18)
Co1A_2 Co 0.11161(5) 0.44485(4) 0.452729(18)
Co1A_3 Co 1.11161(5) 1.44485(4) -0.547271(18)
Co1B Co 1.11161(5) 0.55515(4) -0.047271(18)
Co1C Co -0.11161(5) 0.55515(4) -0.452729(18)
O4B O 1.0466(2) 0.5471(2) 0.06835(8)
O4C O -0.0466(2) 0.5471(2) -0.56835(8)
O5A_2 O 0.2437(3) 0.3645(2) -0.58044(12)
N1_2 N 1.0159(3) 0.3036(2) 0.04625(11)
N1A_2 N -0.0159(3) 0.3036(2) -0.54625(11)
O7 O 1.0000 0.5269(5) 0.2500
H29 H 0.9373 0.5129 0.2218
H29A H 1.0627 0.5129 0.2782
H30? H 0.9791 0.4998 0.2770
loop_
_geom_bond_atom_site_label_1
_geom_bond_atom_site_label_2
_geom_bond_site_symmetry_1
_geom_bond_site_symmetry_2
Co1 O3 1_555 1_555
O1 C6 1_555 1_555
O2 C18 1_555 1_555
O3 C12 1_555 1_555
O4 C12 1_555 1_555
C1 H1 1_555 1_555
O5 Co1 1_555 1_555
O6 C32 1_555 1_555
N1 C19 1_555 1_555
N2 Co1 1_555 1_555
C2 H2 1_555 1_555
C3 C1 1_555 1_555
H3 C3 1_555 1_555
C4 H4 1_555 1_555
C5 C4 1_555 1_555
C6 H5 1_555 1_555
H6 C6 1_555 1_555
C7 C5 1_555 1_555
C8 C9 1_555 1_555
C9 H7 1_555 1_555
C10 O1 1_555 1_555
C11 C7 1_555 1_555
H8 C11 1_555 1_555
C12 C13 1_555 1_555
C13 C16 1_555 1_555
C14 C15 1_555 1_555
C15 C2 1_555 1_555
C16 H9 1_555 1_555
C17 C10 1_555 1_555
H10 C17 1_555 1_555
C18 C11 1_555 1_555
C19 C4 1_555 1_555
H11 C19 1_555 1_555
C20 C31 1_555 1_555
C21 C6 1_555 1_555
H12 C21 1_555 1_555
H13 C21 1_555 1_555
H14 C21 1_555 1_555
C22 C16 1_555 1_555
H15 C22 1_555 1_555
C23 N2 1_555 1_555
H16 C23 1_555 1_555
C24 N1 1_555 1_555
H17 C24 1_555 1_555
C25 C5 1_555 1_555
H18 C25 1_555 1_555
C26 H19 1_555 1_555
C27 C13 1_555 1_555
H20 C27 1_555 1_555
C28 C22 1_555 1_555
C29 H21 1_555 1_555
H22 C29 1_555 1_555
H23 C29 1_555 1_555
C30 C8 1_555 1_555
H24 C30 1_555 1_555
C31 C30 1_555 1_555
H25 C31 1_555 1_555
C32 O5 1_555 1_555
C33 O2 1_555 1_555
H26 C33 1_555 1_555
H27 C33 1_555 1_555
C34 C9 1_555 1_555
H28 C34 1_555 1_555
O7 H29 1_555 1_555
O3A C12A 1_555 1_555
O4A C12A 1_555 1_555
C12A C13A 1_555 1_555
C13A C16A 1_555 1_555
C16A H9A 1_555 1_555
C22A C16A 1_555 1_555
H15A C22A 1_555 1_555
C26A H19A 1_555 1_555
C27A C13A 1_555 1_555
H20A C27A 1_555 1_555
C28A C28 1_555 1_555
O5A C32A 1_555 1_555
O6A C32A 1_555 1_555
C8A C8 1_555 1_555
C9A C8A 1_555 1_555
H7A C9A 1_555 1_555
C20A C31A 1_555 1_555
C30A C8A 1_555 1_555
H24A C30A 1_555 1_555
C31A C30A 1_555 1_555
H25A C31A 1_555 1_555
C32A C20A 1_555 1_555
C34A C9A 1_555 1_555
H28A C34A 1_555 1_555
Co1A O3A 1_555 1_555
O1A C6A 1_555 1_555
O2A C18A 1_555 1_555
C1A H1A 1_555 1_555
N1A C19A 1_555 1_555
N2A Co1A 1_555 1_555
C2A H2A 1_555 1_555
C3A C1A 1_555 1_555
H3A C3A 1_555 1_555
C4A H4A 1_555 1_555
C5A C4A 1_555 1_555
C6A H5A 1_555 1_555
H6A C6A 1_555 1_555
C7A C5A 1_555 1_555
C10A O1A 1_555 1_555
C11A C7A 1_555 1_555
H8A C11A 1_555 1_555
C14A C15A 1_555 1_555
C15A C2A 1_555 1_555
C17A C10A 1_555 1_555
H10A C17A 1_555 1_555
C18A C11A 1_555 1_555
C19A C4A 1_555 1_555
H11A C19A 1_555 1_555
C21A C6A 1_555 1_555
H12A C21A 1_555 1_555
H13A C21A 1_555 1_555
H14A C21A 1_555 1_555
C23A N2A 1_555 1_555
H16A C23A 1_555 1_555
C24A N1A 1_555 1_555
H17A C24A 1_555 1_555
C25A C5A 1_555 1_555
H18A C25A 1_555 1_555
C29A H21A 1_555 1_555
H22A C29A 1_555 1_555
H23A C29A 1_555 1_555
C33A O2A 1_555 1_555
H26A C33A 1_555 1_555
H27A C33A 1_555 1_555
Co1_2 N1 1_555 1_555
Co1A_2 O5A 1_555 1_555
Co1A_3 N1A 1_555 1_555
Co1B O4 1_555 1_555
Co1C O4A 1_555 1_555
O4B Co1 1_555 1_555
O4C Co1A 1_555 1_555
O5A_2 Co1A 1_555 1_555
N1_2 Co1 1_555 1_555
N1A_2 Co1A 1_555 1_555
H29A O7 1_555 1_555
C1 N2 1_555 1_555
C2 C23 1_555 1_555
C3 C15 1_555 1_555
C7 C10 1_555 1_555
C14 C17 1_555 1_555
C14 C18 1_555 1_555
C20 C32 1_555 1_555
C20 C34 1_555 1_555
C24 C25 1_555 1_555
C26 C27 1_555 1_555
C26 C28 1_555 1_555
C29 C33 1_555 1_555
C22A C28A 1_555 1_555
C26A C27A 1_555 1_555
C26A C28A 1_555 1_555
C20A C34A 1_555 1_555
C1A N2A 1_555 1_555
C2A C23A 1_555 1_555
C3A C15A 1_555 1_555
C7A C10A 1_555 1_555
C14A C17A 1_555 1_555
C14A C18A 1_555 1_555
C24A C25A 1_555 1_555
C29A C33A 1_555 1_555

#END
