
#######################################################################
#
#                 Cambridge Crystallographic Data Centre
#                                CCDC 
#
#######################################################################
#
# If this CIF has been generated from an entry in the Cambridge 
# Structural Database, then it will include bibliographic, chemical, 
# crystal, experimental, refinement or atomic coordinate data resulting 
# from the CCDC's data processing and validation procedures.
#
#######################################################################

data_WITMAP
_symmetry_cell_setting           triclinic
_symmetry_space_group_name_H-M   'P -1'
_symmetry_Int_Tables_number      2
_space_group_name_Hall           '-P 1'
loop_
_symmetry_equiv_pos_site_id
_symmetry_equiv_pos_as_xyz
1 x,y,z
2 -x,-y,-z
_cell_length_a                   7.3036(3)
_cell_length_b                   10.4501(4)
_cell_length_c                   11.5545(4)
_cell_angle_alpha                108.2510(10)
_cell_angle_beta                 94.8050(10)
_cell_angle_gamma                98.4340(10)
_cell_volume                     820.523
loop_
_atom_site_label
_atom_site_type_symbol
_atom_site_fract_x
_atom_site_fract_y
_atom_site_fract_z
Cd1 Cd 0.5000 0.5000 0.0000
O1 O 0.7144(3) 0.4351(3) 0.1259(2)
H1 H 0.662(6) 0.350(4) 0.093(3)
H2 H 0.728(6) 0.474(4) 0.192(4)
O2 O 0.7216(3) 0.6838(2) 0.0127(2)
O3 O 0.5289(3) 0.7964(3) -0.0593(3)
O4 O 0.2660(4) 0.8793(3) 0.59024(19)
N1 N 0.3651(3) 0.6369(2) 0.15971(19)
C1 C 0.4643(4) 0.7395(3) 0.2542(3)
H3 H 0.5940 0.7524 0.2611
C2 C 0.1807(4) 0.6212(3) 0.1520(2)
H4 H 0.1093 0.5486 0.0877
C3 C 0.0887(4) 0.7072(3) 0.2345(2)
H5 H -0.0411 0.6938 0.2234
C4 C 0.1904(4) 0.8127(3) 0.3331(2)
C5 C 0.3834(4) 0.8277(3) 0.3424(3)
H6 H 0.4582 0.8970 0.4078
C6 C 0.0945(4) 0.9087(3) 0.4207(2)
C7 C -0.0410(4) 0.9673(3) 0.3748(2)
H7 H -0.0690 0.9451 0.2900
C8 C 0.1359(4) 0.9422(3) 0.5489(3)
C9 C 0.2894(7) 0.8956(5) 0.7187(3)
H8 H 0.3435 0.9891 0.7653
H9 H 0.3705 0.8364 0.7338
H10 H 0.1700 0.8723 0.7431
C10 C 0.6870(4) 0.7830(3) -0.0194(3)
C11 C 0.8503(4) 0.8959(3) -0.0087(2)
C12 C 0.8182(4) 1.0207(3) -0.0181(3)
H11 H 0.6963 1.0348 -0.0307
C13 C 0.9665(4) 1.1233(3) -0.0089(3)
H12 H 0.9436 1.2065 -0.0145
O2A O 1.2784(3) 1.3162(2) -0.0127(2)
O3A O 1.4711(3) 1.2036(3) 0.0593(3)
C10A C 1.3130(4) 1.2170(3) 0.0194(3)
C11A C 1.1497(4) 1.1041(3) 0.0087(2)
C12A C 1.1818(4) 0.9793(3) 0.0181(3)
H11A H 1.3037 0.9652 0.0307
C13A C 1.0335(4) 0.8767(3) 0.0089(3)
H12A H 1.0564 0.7935 0.0145
O4A O -0.2660(4) 1.1207(3) 0.40976(19)
N1A N -0.3651(3) 1.3631(2) 0.84029(19)
C1A C -0.4643(4) 1.2605(3) 0.7458(3)
H3A H -0.5940 1.2476 0.7389
C2A C -0.1807(4) 1.3788(3) 0.8480(2)
H4A H -0.1093 1.4514 0.9123
C3A C -0.0887(4) 1.2928(3) 0.7655(2)
H5A H 0.0411 1.3062 0.7766
C4A C -0.1904(4) 1.1873(3) 0.6669(2)
C5A C -0.3834(4) 1.1723(3) 0.6576(3)
H6A H -0.4582 1.1030 0.5922
C6A C -0.0945(4) 1.0913(3) 0.5793(2)
C7A C 0.0410(4) 1.0327(3) 0.6252(2)
H7A H 0.0690 1.0549 0.7100
C8A C -0.1359(4) 1.0578(3) 0.4511(3)
C9A C -0.2894(7) 1.1044(5) 0.2813(3)
H8A H -0.3435 1.0109 0.2347
H9A H -0.3705 1.1636 0.2662
H10A H -0.1700 1.1277 0.2569
O1A O 0.2856(3) 0.5649(3) -0.1259(2)
H1A H 0.338(6) 0.650(4) -0.093(3)
H2A H 0.272(6) 0.526(4) -0.192(4)
Cd1_2 Cd -0.5000 1.5000 1.0000
Cd1_3 Cd 1.5000 1.5000 0.0000
O2A_2 O 0.2784(3) 0.3162(2) -0.0127(2)
N1A_2 N 0.6349(3) 0.3631(2) -0.15971(19)
N2 N 0.7545(5) 0.6095(4) 0.5717(3)
O5 O 0.7445(8) 0.5725(7) 0.3734(3)
C14 C 0.700(2) 0.7470(13) 0.6005(13)
C15 C 0.794(2) 0.5754(15) 0.6809(10)
C16 C 0.7597(15) 0.5209(19) 0.4669(8)
N3? N 0.7545(5) 0.6095(4) 0.5717(3)
O6? O 0.7445(8) 0.5725(7) 0.3734(3)
C17? C 0.758(2) 0.4491(18) 0.5336(19)
C18? C 0.762(3) 0.683(2) 0.6949(12)
C19? C 0.7504(15) 0.6558(11) 0.4776(8)
loop_
_geom_bond_atom_site_label_1
_geom_bond_atom_site_label_2
_geom_bond_site_symmetry_1
_geom_bond_site_symmetry_2
Cd1 O1 1_555 1_555
O1 H1 1_555 1_555
H2 O1 1_555 1_555
O2 Cd1 1_555 1_555
O3 C10 1_555 1_555
O4 C8 1_555 1_555
N1 Cd1 1_555 1_555
C1 N1 1_555 1_555
H3 C1 1_555 1_555
C2 N1 1_555 1_555
H4 C2 1_555 1_555
C3 C2 1_555 1_555
H5 C3 1_555 1_555
C4 C3 1_555 1_555
C5 C1 1_555 1_555
H6 C5 1_555 1_555
C6 C4 1_555 1_555
C7 C6 1_555 1_555
H7 C7 1_555 1_555
C8 C6 1_555 1_555
C9 O4 1_555 1_555
H8 C9 1_555 1_555
H9 C9 1_555 1_555
H10 C9 1_555 1_555
C10 O2 1_555 1_555
C11 C10 1_555 1_555
C12 C11 1_555 1_555
H11 C12 1_555 1_555
C13 C12 1_555 1_555
H12 C13 1_555 1_555
N2 C14 1_555 1_555
O5 C16 1_555 1_555
C15 N2 1_555 1_555
C16 N2 1_555 1_555
O2A C10A 1_555 1_555
O3A C10A 1_555 1_555
C10A C11A 1_555 1_555
C11A C13 1_555 1_555
C12A C11A 1_555 1_555
H11A C12A 1_555 1_555
C13A C11 1_555 1_555
H12A C13A 1_555 1_555
O4A C8A 1_555 1_555
N1A C1A 1_555 1_555
C1A H3A 1_555 1_555
C2A N1A 1_555 1_555
H4A C2A 1_555 1_555
C3A C2A 1_555 1_555
H5A C3A 1_555 1_555
C4A C3A 1_555 1_555
C5A C1A 1_555 1_555
H6A C5A 1_555 1_555
C6A C4A 1_555 1_555
C7A C8 1_555 1_555
H7A C7A 1_555 1_555
C8A C7 1_555 1_555
C9A O4A 1_555 1_555
H8A C9A 1_555 1_555
H9A C9A 1_555 1_555
H10A C9A 1_555 1_555
O1A Cd1 1_555 1_555
H1A O1A 1_555 1_555
H2A O1A 1_555 1_555
Cd1_2 N1A 1_555 1_555
Cd1_3 O2A 1_555 1_555
O2A_2 Cd1 1_555 1_555
N1A_2 Cd1 1_555 1_555
C4 C5 1_555 1_555
C12A C13A 1_555 1_555
C4A C5A 1_555 1_555
C6A C7A 1_555 1_555
C6A C8A 1_555 1_555

#END
