
#######################################################################
#
#                 Cambridge Crystallographic Data Centre
#                                CCDC 
#
#######################################################################
#
# If this CIF has been generated from an entry in the Cambridge 
# Structural Database, then it will include bibliographic, chemical, 
# crystal, experimental, refinement or atomic coordinate data resulting 
# from the CCDC's data processing and validation procedures.
#
#######################################################################

data_WITNIY
_symmetry_cell_setting           trigonal
_symmetry_space_group_name_H-M   'P -3'
_symmetry_Int_Tables_number      147
_space_group_name_Hall           '-P 3'
loop_
_symmetry_equiv_pos_site_id
_symmetry_equiv_pos_as_xyz
1 x,y,z
2 -y,x-y,z
3 -x+y,-x,z
4 -x,-y,-z
5 y,-x+y,-z
6 x-y,x,-z
_cell_length_a                   13.403(3)
_cell_length_b                   13.403(3)
_cell_length_c                   8.6697(17)
_cell_angle_alpha                90
_cell_angle_beta                 90
_cell_angle_gamma                120
_cell_volume                     1348.77
loop_
_atom_site_label
_atom_site_type_symbol
_atom_site_fract_x
_atom_site_fract_y
_atom_site_fract_z
Cl1 Cl 0.6667 0.3333 0.84032(10)
Mn1 Mn 1.0000 0.0000 -0.5000
O1 O 0.9921(2) 0.3517(2) 0.1611(2)
N1 N 0.6667 0.3333 0.3555(3)
N2 N 0.86510(17) 0.41493(18) 0.1450(2)
H1 H 0.8213 0.4264 0.0839
N3 N 0.88807(16) 0.32269(18) -0.0595(2)
H2 H 0.8397 0.3388 -0.1015
N4 N 0.97461(15) 0.12529(15) -0.3446(2)
C1 C 0.7833(2) 0.3636(2) 0.4056(2)
H3 H 0.7896 0.2946 0.4062
H4 H 0.7952 0.3929 0.5103
C2 C 0.8761(2) 0.4526(2) 0.3033(3)
H5 H 0.8725 0.5231 0.3072
H6 H 0.9508 0.4697 0.3424
C3 C 0.92089(19) 0.3627(2) 0.0899(3)
C4 C 0.92224(17) 0.26105(17) -0.1490(2)
C5 C 0.85845(19) 0.20939(19) -0.2815(2)
H7 H 0.7966 0.2192 -0.3076
C6 C 0.8867(2) 0.1443(2) -0.3731(3)
H8 H 0.8424 0.1110 -0.4608
C7 C 1.03651(19) 0.1775(2) -0.2177(3)
H9 H 1.0990 0.1678 -0.1955
C8 C 1.01462(19) 0.2442(2) -0.1183(3)
H10 H 1.0608 0.2775 -0.0320
O1A O 0.6483(2) 0.6404(3) 0.1611(2)
N2A N 0.58507(18) 0.45017(25) 0.1450(2)
H1A H 0.5736 0.3949 0.0839
N3A N 0.67731(18) 0.56538(24) -0.0595(2)
H2A H 0.6612 0.5009 -0.1015
N4A N 0.87471(15) 0.84932(21) -0.3446(2)
C1A C 0.6364(2) 0.4197(3) 0.4056(2)
H3A H 0.7054 0.4950 0.4062
H4A H 0.6071 0.4023 0.5103
C2A C 0.5474(2) 0.4235(3) 0.3033(3)
H5A H 0.4769 0.3494 0.3072
H6A H 0.5303 0.4811 0.3424
C3A C 0.6373(2) 0.55819(28) 0.0899(3)
C4A C 0.73895(17) 0.66119(24) -0.1490(2)
C5A C 0.79061(19) 0.64906(27) -0.2815(2)
H7A H 0.7808 0.5774 -0.3076
C6A C 0.8557(2) 0.7424(3) -0.3731(3)
H8A H 0.8890 0.7314 -0.4608
C7A C 0.8225(2) 0.85901(28) -0.2177(3)
H9A H 0.8322 0.9312 -0.1955
C8A C 0.7558(2) 0.77042(28) -0.1183(3)
H10A H 0.7225 0.7833 -0.0320
O1B O 0.3596(3) 0.0079(2) 0.1611(2)
N2B N 0.54983(25) 0.13490(17) 0.1450(2)
H1B H 0.6051 0.1787 0.0839
N3B N 0.43462(24) 0.11193(16) -0.0595(2)
H2B H 0.4991 0.1603 -0.1015
N4B N 0.15068(21) 0.02539(15) -0.3446(2)
C1B C 0.5803(3) 0.2167(2) 0.4056(2)
H3B H 0.5050 0.2104 0.4062
H4B H 0.5977 0.2048 0.5103
C2B C 0.5765(3) 0.1239(2) 0.3033(3)
H5B H 0.6506 0.1275 0.3072
H6B H 0.5189 0.0492 0.3424
C3B C 0.44181(28) 0.07911(19) 0.0899(3)
C4B C 0.33881(24) 0.07776(17) -0.1490(2)
C5B C 0.35094(27) 0.14155(19) -0.2815(2)
H7B H 0.4226 0.2034 -0.3076
C6B C 0.2576(3) 0.1133(2) -0.3731(3)
H8B H 0.2686 0.1576 -0.4608
C7B C 0.14099(28) -0.03651(19) -0.2177(3)
H9B H 0.0688 -0.0990 -0.1955
C8B C 0.22958(28) -0.01462(19) -0.1183(3)
H10B H 0.2167 -0.0608 -0.0320
O1C O 1.0079(2) -0.3517(2) -1.1611(2)
N1C N 1.3333 -0.3333 -1.3555(3)
N2C N 1.13490(17) -0.41493(18) -1.1450(2)
H1C H 1.1787 -0.4264 -1.0839
N3C N 1.11193(16) -0.32269(18) -0.9405(2)
H2C H 1.1603 -0.3388 -0.8985
N4C N 1.02539(15) -0.12529(15) -0.6554(2)
C1C C 1.2167(2) -0.3636(2) -1.4056(2)
H3C H 1.2104 -0.2946 -1.4062
H4C H 1.2048 -0.3929 -1.5103
C2C C 1.1239(2) -0.4526(2) -1.3033(3)
H5C H 1.1275 -0.5231 -1.3072
H6C H 1.0492 -0.4697 -1.3424
C3C C 1.07911(19) -0.3627(2) -1.0899(3)
C4C C 1.07776(17) -0.26105(17) -0.8510(2)
C5C C 1.14155(19) -0.20939(19) -0.7185(2)
H7C H 1.2034 -0.2192 -0.6924
C6C C 1.1133(2) -0.1443(2) -0.6269(3)
H8C H 1.1576 -0.1110 -0.5392
C7C C 0.96349(19) -0.1775(2) -0.7823(3)
H9C H 0.9010 -0.1678 -0.8045
C8C C 0.98538(19) -0.2442(2) -0.8817(3)
H10C H 0.9392 -0.2775 -0.9680
O1D O 1.3517(2) -0.6404(3) -1.1611(2)
N2D N 1.41493(18) -0.45017(25) -1.1450(2)
H1D H 1.4264 -0.3949 -1.0839
N3D N 1.32269(18) -0.56538(24) -0.9405(2)
H2D H 1.3388 -0.5009 -0.8985
N4D N 1.12529(15) -0.84932(21) -0.6554(2)
C1D C 1.3636(2) -0.4197(3) -1.4056(2)
H3D H 1.2946 -0.4950 -1.4062
H4D H 1.3929 -0.4023 -1.5103
C2D C 1.4526(2) -0.4235(3) -1.3033(3)
H5D H 1.5231 -0.3494 -1.3072
H6D H 1.4697 -0.4811 -1.3424
C3D C 1.3627(2) -0.55819(28) -1.0899(3)
C4D C 1.26105(17) -0.66119(24) -0.8510(2)
C5D C 1.20939(19) -0.64906(27) -0.7185(2)
H7D H 1.2192 -0.5774 -0.6924
C6D C 1.1443(2) -0.7424(3) -0.6269(3)
H8D H 1.1110 -0.7314 -0.5392
C7D C 1.1775(2) -0.85901(28) -0.7823(3)
H9D H 1.1678 -0.9312 -0.8045
C8D C 1.2442(2) -0.77042(28) -0.8817(3)
H10D H 1.2775 -0.7833 -0.9680
O1E O 1.6404(3) -0.0079(2) -1.1611(2)
N2E N 1.45017(25) -0.13490(17) -1.1450(2)
H1E H 1.3949 -0.1787 -1.0839
N3E N 1.56538(24) -0.11193(16) -0.9405(2)
H2E H 1.5009 -0.1603 -0.8985
N4E N 1.84932(21) -0.02539(15) -0.6554(2)
C1E C 1.4197(3) -0.2167(2) -1.4056(2)
H3E H 1.4950 -0.2104 -1.4062
H4E H 1.4023 -0.2048 -1.5103
C2E C 1.4235(3) -0.1239(2) -1.3033(3)
H5E H 1.3494 -0.1275 -1.3072
H6E H 1.4811 -0.0492 -1.3424
C3E C 1.55819(28) -0.07911(19) -1.0899(3)
C4E C 1.66119(24) -0.07776(17) -0.8510(2)
C5E C 1.64906(27) -0.14155(19) -0.7185(2)
H7E H 1.5774 -0.2034 -0.6924
C6E C 1.7424(3) -0.1133(2) -0.6269(3)
H8E H 1.7314 -0.1576 -0.5392
C7E C 1.85901(28) 0.03651(19) -0.7823(3)
H9E H 1.9312 0.0990 -0.8045
C8E C 1.77042(28) 0.01462(19) -0.8817(3)
H10E H 1.7833 0.0608 -0.9680
Mn1_2 Mn 0.0000 0.0000 -0.5000
Mn1_3 Mn 1.0000 -1.0000 -0.5000
Mn1_4 Mn 1.0000 1.0000 -0.5000
Mn1_5 Mn 2.0000 0.0000 -0.5000
N4A_2 N 0.87471(15) -0.15068(21) -0.3446(2)
N4B_2 N 1.15068(21) 0.02539(15) -0.3446(2)
N4D_2 N 1.12529(15) 0.15068(21) -0.6554(2)
N4E_2 N 0.84932(21) -0.02539(15) -0.6554(2)
loop_
_geom_bond_atom_site_label_1
_geom_bond_atom_site_label_2
_geom_bond_site_symmetry_1
_geom_bond_site_symmetry_2
Mn1 N4 1_555 1_555
O1 C3 1_555 1_555
N1 C1 1_555 1_555
N2 H1 1_555 1_555
N3 H2 1_555 1_555
N4 C6 1_555 1_555
C1 H3 1_555 1_555
H4 C1 1_555 1_555
C2 N2 1_555 1_555
H5 C2 1_555 1_555
H6 C2 1_555 1_555
C3 N2 1_555 1_555
C4 N3 1_555 1_555
C5 C4 1_555 1_555
H7 C5 1_555 1_555
C6 C5 1_555 1_555
H8 C6 1_555 1_555
C7 N4 1_555 1_555
H9 C7 1_555 1_555
C8 C4 1_555 1_555
H10 C8 1_555 1_555
O1A C3A 1_555 1_555
N2A H1A 1_555 1_555
N3A H2A 1_555 1_555
N4A C6A 1_555 1_555
C1A N1 1_555 1_555
H3A C1A 1_555 1_555
H4A C1A 1_555 1_555
C2A N2A 1_555 1_555
H5A C2A 1_555 1_555
H6A C2A 1_555 1_555
C3A N2A 1_555 1_555
C4A N3A 1_555 1_555
C5A C4A 1_555 1_555
H7A C5A 1_555 1_555
C6A C5A 1_555 1_555
H8A C6A 1_555 1_555
C7A N4A 1_555 1_555
H9A C7A 1_555 1_555
C8A C4A 1_555 1_555
H10A C8A 1_555 1_555
O1B C3B 1_555 1_555
N2B H1B 1_555 1_555
N3B H2B 1_555 1_555
N4B C6B 1_555 1_555
C1B N1 1_555 1_555
H3B C1B 1_555 1_555
H4B C1B 1_555 1_555
C2B N2B 1_555 1_555
H5B C2B 1_555 1_555
H6B C2B 1_555 1_555
C3B N2B 1_555 1_555
C4B N3B 1_555 1_555
C5B C4B 1_555 1_555
H7B C5B 1_555 1_555
C6B C5B 1_555 1_555
H8B C6B 1_555 1_555
C7B N4B 1_555 1_555
H9B C7B 1_555 1_555
C8B C4B 1_555 1_555
H10B C8B 1_555 1_555
O1C C3C 1_555 1_555
N1C C1C 1_555 1_555
N2C H1C 1_555 1_555
N3C H2C 1_555 1_555
N4C Mn1 1_555 1_555
C1C H3C 1_555 1_555
H4C C1C 1_555 1_555
C2C N2C 1_555 1_555
H5C C2C 1_555 1_555
H6C C2C 1_555 1_555
C3C N2C 1_555 1_555
C4C N3C 1_555 1_555
C5C C4C 1_555 1_555
H7C C5C 1_555 1_555
C6C N4C 1_555 1_555
H8C C6C 1_555 1_555
C7C N4C 1_555 1_555
H9C C7C 1_555 1_555
C8C C4C 1_555 1_555
H10C C8C 1_555 1_555
O1D C3D 1_555 1_555
N2D H1D 1_555 1_555
N3D H2D 1_555 1_555
N4D C6D 1_555 1_555
C1D N1C 1_555 1_555
H3D C1D 1_555 1_555
H4D C1D 1_555 1_555
C2D N2D 1_555 1_555
H5D C2D 1_555 1_555
H6D C2D 1_555 1_555
C3D N2D 1_555 1_555
C4D N3D 1_555 1_555
C5D C4D 1_555 1_555
H7D C5D 1_555 1_555
C6D C5D 1_555 1_555
H8D C6D 1_555 1_555
C7D N4D 1_555 1_555
H9D C7D 1_555 1_555
C8D C4D 1_555 1_555
H10D C8D 1_555 1_555
O1E C3E 1_555 1_555
N2E H1E 1_555 1_555
N3E H2E 1_555 1_555
N4E C6E 1_555 1_555
C1E N1C 1_555 1_555
H3E C1E 1_555 1_555
H4E C1E 1_555 1_555
C2E N2E 1_555 1_555
H5E C2E 1_555 1_555
H6E C2E 1_555 1_555
C3E N2E 1_555 1_555
C4E N3E 1_555 1_555
C5E C4E 1_555 1_555
H7E C5E 1_555 1_555
C6E C5E 1_555 1_555
H8E C6E 1_555 1_555
C7E N4E 1_555 1_555
H9E C7E 1_555 1_555
C8E C4E 1_555 1_555
H10E C8E 1_555 1_555
Mn1_2 N4B 1_555 1_555
Mn1_3 N4D 1_555 1_555
Mn1_4 N4A 1_555 1_555
Mn1_5 N4E 1_555 1_555
N4A_2 Mn1 1_555 1_555
N4B_2 Mn1 1_555 1_555
N4D_2 Mn1 1_555 1_555
N4E_2 Mn1 1_555 1_555
N3 C3 1_555 1_555
C1 C2 1_555 1_555
C7 C8 1_555 1_555
N3A C3A 1_555 1_555
C1A C2A 1_555 1_555
C7A C8A 1_555 1_555
N3B C3B 1_555 1_555
C1B C2B 1_555 1_555
C7B C8B 1_555 1_555
N3C C3C 1_555 1_555
C1C C2C 1_555 1_555
C5C C6C 1_555 1_555
C7C C8C 1_555 1_555
N3D C3D 1_555 1_555
C1D C2D 1_555 1_555
C7D C8D 1_555 1_555
N3E C3E 1_555 1_555
C1E C2E 1_555 1_555
C7E C8E 1_555 1_555

#END
