
#######################################################################
#
#                 Cambridge Crystallographic Data Centre
#                                CCDC 
#
#######################################################################
#
# If this CIF has been generated from an entry in the Cambridge 
# Structural Database, then it will include bibliographic, chemical, 
# crystal, experimental, refinement or atomic coordinate data resulting 
# from the CCDC's data processing and validation procedures.
#
#######################################################################

data_WITNOE
_symmetry_cell_setting           trigonal
_symmetry_space_group_name_H-M   'P -3'
_symmetry_Int_Tables_number      147
_space_group_name_Hall           '-P 3'
loop_
_symmetry_equiv_pos_site_id
_symmetry_equiv_pos_as_xyz
1 x,y,z
2 -y,x-y,z
3 -x+y,-x,z
4 -x,-y,-z
5 y,-x+y,-z
6 x-y,x,-z
_cell_length_a                   13.400(10)
_cell_length_b                   13.400(10)
_cell_length_c                   8.730(6)
_cell_angle_alpha                90
_cell_angle_beta                 90
_cell_angle_gamma                120
_cell_volume                     1357.55
loop_
_atom_site_label
_atom_site_type_symbol
_atom_site_fract_x
_atom_site_fract_y
_atom_site_fract_z
Co1 Co 0.0000 0.0000 1.0000
O1 O 0.35614(18) 0.3458(2) 0.3475(2)
N1 N 0.6667 0.3333 0.1542(3)
N2 N 0.54687(19) 0.41157(19) 0.3639(2)
H1 H 0.6024 0.4234 0.4244
N3 N 0.43179(17) 0.31737(19) 0.5675(2)
H2 H 0.4962 0.3330 0.6089
N4 N 0.14629(15) 0.11803(15) 0.8521(2)
C1 C 0.5794(2) 0.3626(2) 0.1045(3)
H3 H 0.5046 0.2930 0.1028
H4 H 0.5970 0.3926 0.0008
C2 C 0.5731(3) 0.4499(2) 0.2059(3)
H5 H 0.6463 0.5214 0.2022
H6 H 0.5143 0.4652 0.1671
C3 C 0.4385(2) 0.3582(2) 0.4187(3)
C4 C 0.3356(2) 0.2556(2) 0.6563(2)
C5 C 0.2256(2) 0.2380(2) 0.6251(3)
H7 H 0.2124 0.2709 0.5393
C6 C 0.1375(2) 0.1710(2) 0.7243(3)
H8 H 0.0652 0.1610 0.7019
C7 C 0.2540(2) 0.1397(2) 0.8797(3)
H9 H 0.2658 0.1080 0.9678
C8 C 0.3471(2) 0.2043(2) 0.7894(3)
H10 H 0.4188 0.2144 0.8162
O1A O 0.6542(2) 0.01034(27) 0.3475(2)
N2A N 0.58843(19) 0.13530(27) 0.3639(2)
H1A H 0.5766 0.1790 0.4244
N3A N 0.68263(19) 0.11442(25) 0.5675(2)
H2A H 0.6670 0.1632 0.6089
N4A N 0.88197(15) 0.02826(21) 0.8521(2)
C1A C 0.6374(2) 0.2168(3) 0.1045(3)
H3A H 0.7070 0.2116 0.1028
H4A H 0.6074 0.2044 0.0008
C2A C 0.5501(2) 0.1232(4) 0.2059(3)
H5A H 0.4786 0.1249 0.2022
H6A H 0.5348 0.0491 0.1671
C3A C 0.6418(2) 0.0803(3) 0.4187(3)
C4A C 0.7444(2) 0.0800(3) 0.6563(2)
C5A C 0.7620(2) -0.0124(3) 0.6251(3)
H7A H 0.7291 -0.0585 0.5393
C6A C 0.8290(2) -0.0335(3) 0.7243(3)
H8A H 0.8390 -0.0958 0.7019
C7A C 0.8603(2) 0.1143(3) 0.8797(3)
H9A H 0.8920 0.1578 0.9678
C8A C 0.7957(2) 0.1428(3) 0.7894(3)
H10A H 0.7856 0.2044 0.8162
O1B O 0.98966(27) 0.64386(18) 0.3475(2)
N2B N 0.86470(27) 0.45313(19) 0.3639(2)
H1B H 0.8210 0.3976 0.4244
N3B N 0.88558(25) 0.56821(17) 0.5675(2)
H2B H 0.8368 0.5038 0.6089
N4B N 0.97174(21) 0.85371(15) 0.8521(2)
C1B C 0.7832(3) 0.4206(2) 0.1045(3)
H3B H 0.7884 0.4954 0.1028
H4B H 0.7956 0.4030 0.0008
C2B C 0.8768(4) 0.4269(3) 0.2059(3)
H5B H 0.8751 0.3537 0.2022
H6B H 0.9509 0.4857 0.1671
C3B C 0.9197(3) 0.5615(2) 0.4187(3)
C4B C 0.9200(3) 0.6644(2) 0.6563(2)
C5B C 1.0124(3) 0.7744(2) 0.6251(3)
H7B H 1.0585 0.7876 0.5393
C6B C 1.0335(3) 0.8625(2) 0.7243(3)
H8B H 1.0958 0.9348 0.7019
C7B C 0.8857(3) 0.7460(2) 0.8797(3)
H9B H 0.8422 0.7342 0.9678
C8B C 0.8572(3) 0.6529(2) 0.7894(3)
H10B H 0.7956 0.5812 0.8162
O1C O -0.35614(18) -0.3458(2) 1.6525(2)
N1C N -0.6667 -0.3333 1.8458(3)
N2C N -0.54687(19) -0.41157(19) 1.6361(2)
H1C H -0.6024 -0.4234 1.5756
N3C N -0.43179(17) -0.31737(19) 1.4325(2)
H2C H -0.4962 -0.3330 1.3911
N4C N -0.14629(15) -0.11803(15) 1.1479(2)
C1C C -0.5794(2) -0.3626(2) 1.8955(3)
H3C H -0.5046 -0.2930 1.8972
H4C H -0.5970 -0.3926 1.9992
C2C C -0.5731(3) -0.4499(2) 1.7941(3)
H5C H -0.6463 -0.5214 1.7978
H6C H -0.5143 -0.4652 1.8329
C3C C -0.4385(2) -0.3582(2) 1.5813(3)
C4C C -0.3356(2) -0.2556(2) 1.3437(2)
C5C C -0.2256(2) -0.2380(2) 1.3749(3)
H7C H -0.2124 -0.2709 1.4607
C6C C -0.1375(2) -0.1710(2) 1.2757(3)
H8C H -0.0652 -0.1610 1.2981
C7C C -0.2540(2) -0.1397(2) 1.1203(3)
H9C H -0.2658 -0.1080 1.0322
C8C C -0.3471(2) -0.2043(2) 1.2106(3)
H10C H -0.4188 -0.2144 1.1838
O1D O -0.6542(2) -0.01034(27) 1.6525(2)
N2D N -0.58843(19) -0.13530(27) 1.6361(2)
H1D H -0.5766 -0.1790 1.5756
N3D N -0.68263(19) -0.11442(25) 1.4325(2)
H2D H -0.6670 -0.1632 1.3911
N4D N -0.88197(15) -0.02826(21) 1.1479(2)
C1D C -0.6374(2) -0.2168(3) 1.8955(3)
H3D H -0.7070 -0.2116 1.8972
H4D H -0.6074 -0.2044 1.9992
C2D C -0.5501(2) -0.1232(4) 1.7941(3)
H5D H -0.4786 -0.1249 1.7978
H6D H -0.5348 -0.0491 1.8329
C3D C -0.6418(2) -0.0803(3) 1.5813(3)
C4D C -0.7444(2) -0.0800(3) 1.3437(2)
C5D C -0.7620(2) 0.0124(3) 1.3749(3)
H7D H -0.7291 0.0585 1.4607
C6D C -0.8290(2) 0.0335(3) 1.2757(3)
H8D H -0.8390 0.0958 1.2981
C7D C -0.8603(2) -0.1143(3) 1.1203(3)
H9D H -0.8920 -0.1578 1.0322
C8D C -0.7957(2) -0.1428(3) 1.2106(3)
H10D H -0.7856 -0.2044 1.1838
O1E O -0.98966(27) -0.64386(18) 1.6525(2)
N2E N -0.86470(27) -0.45313(19) 1.6361(2)
H1E H -0.8210 -0.3976 1.5756
N3E N -0.88558(25) -0.56821(17) 1.4325(2)
H2E H -0.8368 -0.5038 1.3911
N4E N -0.97174(21) -0.85371(15) 1.1479(2)
C1E C -0.7832(3) -0.4206(2) 1.8955(3)
H3E H -0.7884 -0.4954 1.8972
H4E H -0.7956 -0.4030 1.9992
C2E C -0.8768(4) -0.4269(3) 1.7941(3)
H5E H -0.8751 -0.3537 1.7978
H6E H -0.9509 -0.4857 1.8329
C3E C -0.9197(3) -0.5615(2) 1.5813(3)
C4E C -0.9200(3) -0.6644(2) 1.3437(2)
C5E C -1.0124(3) -0.7744(2) 1.3749(3)
H7E H -1.0585 -0.7876 1.4607
C6E C -1.0335(3) -0.8625(2) 1.2757(3)
H8E H -1.0958 -0.9348 1.2981
C7E C -0.8857(3) -0.7460(2) 1.1203(3)
H9E H -0.8422 -0.7342 1.0322
C8E C -0.8572(3) -0.6529(2) 1.2106(3)
H10E H -0.7956 -0.5812 1.1838
Co1_2 Co -1.0000 -1.0000 1.0000
Co1_3 Co -1.0000 0.0000 1.0000
Co1_4 Co 1.0000 0.0000 1.0000
Co1_5 Co 1.0000 1.0000 1.0000
N4A_2 N -0.11803(15) 0.02826(21) 0.8521(2)
N4B_2 N -0.02826(21) -0.14629(15) 0.8521(2)
N4D_2 N 0.11803(15) -0.02826(21) 1.1479(2)
N4E_2 N 0.02826(21) 0.14629(15) 1.1479(2)
Cl1 Cl 0.6667 0.3333 0.66981(11)
loop_
_geom_bond_atom_site_label_1
_geom_bond_atom_site_label_2
_geom_bond_site_symmetry_1
_geom_bond_site_symmetry_2
Co1 N4 1_555 1_555
O1 C3 1_555 1_555
N1 C1 1_555 1_555
N2 H1 1_555 1_555
N3 H2 1_555 1_555
N4 C6 1_555 1_555
C1 H3 1_555 1_555
H4 C1 1_555 1_555
C2 N2 1_555 1_555
H5 C2 1_555 1_555
H6 C2 1_555 1_555
C3 N2 1_555 1_555
C4 N3 1_555 1_555
C5 C4 1_555 1_555
H7 C5 1_555 1_555
C6 C5 1_555 1_555
H8 C6 1_555 1_555
C7 N4 1_555 1_555
H9 C7 1_555 1_555
C8 C4 1_555 1_555
H10 C8 1_555 1_555
O1A C3A 1_555 1_555
N2A H1A 1_555 1_555
N3A H2A 1_555 1_555
N4A C6A 1_555 1_555
C1A N1 1_555 1_555
H3A C1A 1_555 1_555
H4A C1A 1_555 1_555
C2A N2A 1_555 1_555
H5A C2A 1_555 1_555
H6A C2A 1_555 1_555
C3A N2A 1_555 1_555
C4A N3A 1_555 1_555
C5A C4A 1_555 1_555
H7A C5A 1_555 1_555
C6A C5A 1_555 1_555
H8A C6A 1_555 1_555
C7A N4A 1_555 1_555
H9A C7A 1_555 1_555
C8A C4A 1_555 1_555
H10A C8A 1_555 1_555
O1B C3B 1_555 1_555
N2B H1B 1_555 1_555
N3B H2B 1_555 1_555
N4B C6B 1_555 1_555
C1B N1 1_555 1_555
H3B C1B 1_555 1_555
H4B C1B 1_555 1_555
C2B N2B 1_555 1_555
H5B C2B 1_555 1_555
H6B C2B 1_555 1_555
C3B N2B 1_555 1_555
C4B N3B 1_555 1_555
C5B C4B 1_555 1_555
H7B C5B 1_555 1_555
C6B C5B 1_555 1_555
H8B C6B 1_555 1_555
C7B N4B 1_555 1_555
H9B C7B 1_555 1_555
C8B C4B 1_555 1_555
H10B C8B 1_555 1_555
O1C C3C 1_555 1_555
N1C C1C 1_555 1_555
N2C H1C 1_555 1_555
N3C H2C 1_555 1_555
N4C Co1 1_555 1_555
C1C H3C 1_555 1_555
H4C C1C 1_555 1_555
C2C N2C 1_555 1_555
H5C C2C 1_555 1_555
H6C C2C 1_555 1_555
C3C N2C 1_555 1_555
C4C N3C 1_555 1_555
C5C C4C 1_555 1_555
H7C C5C 1_555 1_555
C6C N4C 1_555 1_555
H8C C6C 1_555 1_555
C7C N4C 1_555 1_555
H9C C7C 1_555 1_555
C8C C4C 1_555 1_555
H10C C8C 1_555 1_555
O1D C3D 1_555 1_555
N2D H1D 1_555 1_555
N3D H2D 1_555 1_555
N4D C6D 1_555 1_555
C1D N1C 1_555 1_555
H3D C1D 1_555 1_555
H4D C1D 1_555 1_555
C2D N2D 1_555 1_555
H5D C2D 1_555 1_555
H6D C2D 1_555 1_555
C3D N2D 1_555 1_555
C4D N3D 1_555 1_555
C5D C4D 1_555 1_555
H7D C5D 1_555 1_555
C6D C5D 1_555 1_555
H8D C6D 1_555 1_555
C7D N4D 1_555 1_555
H9D C7D 1_555 1_555
C8D C4D 1_555 1_555
H10D C8D 1_555 1_555
O1E C3E 1_555 1_555
N2E H1E 1_555 1_555
N3E H2E 1_555 1_555
N4E C6E 1_555 1_555
C1E N1C 1_555 1_555
H3E C1E 1_555 1_555
H4E C1E 1_555 1_555
C2E N2E 1_555 1_555
H5E C2E 1_555 1_555
H6E C2E 1_555 1_555
C3E N2E 1_555 1_555
C4E N3E 1_555 1_555
C5E C4E 1_555 1_555
H7E C5E 1_555 1_555
C6E C5E 1_555 1_555
H8E C6E 1_555 1_555
C7E N4E 1_555 1_555
H9E C7E 1_555 1_555
C8E C4E 1_555 1_555
H10E C8E 1_555 1_555
Co1_2 N4E 1_555 1_555
Co1_3 N4D 1_555 1_555
Co1_4 N4A 1_555 1_555
Co1_5 N4B 1_555 1_555
N4A_2 Co1 1_555 1_555
N4B_2 Co1 1_555 1_555
N4D_2 Co1 1_555 1_555
N4E_2 Co1 1_555 1_555
N3 C3 1_555 1_555
C1 C2 1_555 1_555
C7 C8 1_555 1_555
N3A C3A 1_555 1_555
C1A C2A 1_555 1_555
C7A C8A 1_555 1_555
N3B C3B 1_555 1_555
C1B C2B 1_555 1_555
C7B C8B 1_555 1_555
N3C C3C 1_555 1_555
C1C C2C 1_555 1_555
C5C C6C 1_555 1_555
C7C C8C 1_555 1_555
N3D C3D 1_555 1_555
C1D C2D 1_555 1_555
C7D C8D 1_555 1_555
N3E C3E 1_555 1_555
C1E C2E 1_555 1_555
C7E C8E 1_555 1_555

#END
