
#######################################################################
#
#                 Cambridge Crystallographic Data Centre
#                                CCDC 
#
#######################################################################
#
# If this CIF has been generated from an entry in the Cambridge 
# Structural Database, then it will include bibliographic, chemical, 
# crystal, experimental, refinement or atomic coordinate data resulting 
# from the CCDC's data processing and validation procedures.
#
#######################################################################

data_WITPUM
_symmetry_cell_setting           triclinic
_symmetry_space_group_name_H-M   'P -1'
_symmetry_Int_Tables_number      2
_space_group_name_Hall           '-P 1'
loop_
_symmetry_equiv_pos_site_id
_symmetry_equiv_pos_as_xyz
1 x,y,z
2 -x,-y,-z
_cell_length_a                   10.0495(10)
_cell_length_b                   12.6661(14)
_cell_length_c                   12.8425(13)
_cell_angle_alpha                93.859(5)
_cell_angle_beta                 94.145(5)
_cell_angle_gamma                93.990(5)
_cell_volume                     1622.16
loop_
_atom_site_label
_atom_site_type_symbol
_atom_site_fract_x
_atom_site_fract_y
_atom_site_fract_z
Cd1 Cd 0.97457(4) 0.17028(3) -0.87383(3)
C1 C 1.3098(7) 0.0648(6) -1.6311(5)
C2 C 1.3478(7) 0.0763(6) -1.5166(5)
C3 C 1.2650(9) 0.0254(7) -1.4504(6)
H1 H 1.1898 -0.0169 -1.4784
C4 C 1.2936(8) 0.0372(7) -1.3439(5)
H2 H 1.2349 0.0059 -1.3003
C5 C 1.4098(6) 0.0956(5) -1.2999(5)
C6 C 1.4920(7) 0.1432(6) -1.3668(5)
H3 H 1.5703 0.1818 -1.3394
C7 C 1.4612(7) 0.1350(6) -1.4739(5)
H4 H 1.5175 0.1695 -1.5173
C8 C 1.4366(6) 0.1098(5) -1.1840(4)
C9 C 1.3292(6) 0.1189(5) -1.1217(4)
H5 H 1.2426 0.1148 -1.1533
C10 C 1.3497(5) 0.1339(4) -1.0135(4)
C11 C 1.4776(5) 0.1382(4) -0.9656(4)
H6 H 1.4910 0.1475 -0.8930
C12 C 1.5867(5) 0.1289(4) -1.0258(4)
C13 C 1.5655(6) 0.1137(5) -1.1350(4)
H7 H 1.6381 0.1062 -1.1752
C14 C 1.2299(6) 0.1493(5) -0.9516(5)
C15 C 1.7255(6) 0.1373(5) -0.9742(5)
C16 C 0.8919(10) 0.4123(7) -0.8757(8)
H8 H 0.8076 0.3762 -0.8844
C17 C 0.9002(13) 0.5221(8) -0.8573(9)
H9 H 0.8220 0.5570 -0.8541
C18 C 1.0189(11) 0.5786(6) -0.8439(5)
C19 C 1.1268(12) 0.5206(7) -0.8563(9)
H10 H 1.2120 0.5550 -0.8532
C20 C 1.1112(10) 0.4111(7) -0.8732(9)
H11 H 1.1871 0.3738 -0.8792
C21 C 1.0328(15) 0.6970(7) -0.8194(7)
H12 H 1.1161 0.7252 -0.8443
H13 H 0.9603 0.7281 -0.8575
C22 C 1.032(2) 0.7299(8) -0.7069(8)
H14 H 1.0880 0.7956 -0.6961
H15 H 0.9411 0.7491 -0.6976
C23 C 1.065(2) 0.6733(17) -0.6239(14)
H16 H 1.1615 0.6704 -0.6169
H17 H 1.0254 0.6012 -0.6374
C24 C 1.018(3) 0.7212(14) -0.5188(11)
C25 C 1.139(2) 0.7441(14) -0.4542(13)
H18 H 1.2217 0.7372 -0.4812
C26 C 1.1307(15) 0.7762(12) -0.3526(9)
H19 H 1.2104 0.7967 -0.3128
C27 C 0.9077(14) 0.7454(13) -0.3620(8)
H20 H 0.8292 0.7405 -0.3279
C28 C 0.901(3) 0.716(2) -0.4670(12)
H21 H 0.8197 0.6931 -0.5032
N1 N 1.0217(8) 0.7808(5) -0.3060(5)
N2 N 0.9949(7) 0.3584(5) -0.8812(5)
O1 O 0.9986(5) -0.0033(4) -0.8277(3)
H22 H 1.0640 -0.0011 -0.7816
H23 H 0.9641 -0.0457 -0.8782
O2 O 1.2196(7) 0.0045(5) -1.6709(4)
O3 O 1.3824(5) 0.1305(5) -1.6847(4)
H24 H 1.320(7) 0.134(7) -1.733(5)
O4 O 1.1177(4) 0.1472(4) -1.0004(3)
O5 O 1.2450(4) 0.1684(4) -0.8538(3)
O6 O 1.8207(4) 0.1173(5) -1.0270(4)
O7 O 1.7421(5) 0.1668(4) -0.8781(4)
Cd1_2 Cd 1.97457(4) 0.17028(3) -0.87383(3)
Cd1A Cd 1.02543(4) 0.82972(3) -0.12617(3)
N1A N 0.9783(8) 0.2192(5) -0.6940(5)
O6_2 O 0.8207(4) 0.1173(5) -1.0270(4)
O7_2 O 0.7421(5) 0.1668(4) -0.8781(4)
loop_
_geom_bond_atom_site_label_1
_geom_bond_atom_site_label_2
_geom_bond_site_symmetry_1
_geom_bond_site_symmetry_2
Cd1 N2 1_555 1_555
C1 C2 1_555 1_555
C2 C3 1_555 1_555
C3 H1 1_555 1_555
C4 C3 1_555 1_555
H2 C4 1_555 1_555
C5 C4 1_555 1_555
C6 C5 1_555 1_555
H3 C6 1_555 1_555
C7 C2 1_555 1_555
H4 C7 1_555 1_555
C8 C5 1_555 1_555
C9 C8 1_555 1_555
H5 C9 1_555 1_555
C10 C9 1_555 1_555
C11 C10 1_555 1_555
H6 C11 1_555 1_555
C12 C11 1_555 1_555
C13 C8 1_555 1_555
H7 C13 1_555 1_555
C14 C10 1_555 1_555
C15 C12 1_555 1_555
C16 H8 1_555 1_555
C17 C16 1_555 1_555
H9 C17 1_555 1_555
C18 C17 1_555 1_555
C19 C18 1_555 1_555
H10 C19 1_555 1_555
C20 C19 1_555 1_555
H11 C20 1_555 1_555
C21 C18 1_555 1_555
H12 C21 1_555 1_555
H13 C21 1_555 1_555
C22 C21 1_555 1_555
H14 C22 1_555 1_555
H15 C22 1_555 1_555
C23 C22 1_555 1_555
H16 C23 1_555 1_555
H17 C23 1_555 1_555
C24 C23 1_555 1_555
C25 C24 1_555 1_555
H18 C25 1_555 1_555
C26 C25 1_555 1_555
H19 C26 1_555 1_555
C27 H20 1_555 1_555
C28 C24 1_555 1_555
H21 C28 1_555 1_555
N1 C26 1_555 1_555
N2 C16 1_555 1_555
O1 Cd1 1_555 1_555
H22 O1 1_555 1_555
H23 O1 1_555 1_555
O2 C1 1_555 1_555
O3 C1 1_555 1_555
H24 O3 1_555 1_555
O4 Cd1 1_555 1_555
O5 Cd1 1_555 1_555
O6 C15 1_555 1_555
O7 C15 1_555 1_555
Cd1_2 O6 1_555 1_555
Cd1A N1 1_555 1_555
N1A Cd1 1_555 1_555
O6_2 Cd1 1_555 1_555
O7_2 Cd1 1_555 1_555
C6 C7 1_555 1_555
C12 C13 1_555 1_555
C14 O4 1_555 1_555
C14 O5 1_555 1_555
C20 N2 1_555 1_555
C27 C28 1_555 1_555
C27 N1 1_555 1_555
O7 Cd1_2 1_555 1_555

#END
