
#######################################################################
#
#                 Cambridge Crystallographic Data Centre
#                                CCDC 
#
#######################################################################
#
# If this CIF has been generated from an entry in the Cambridge 
# Structural Database, then it will include bibliographic, chemical, 
# crystal, experimental, refinement or atomic coordinate data resulting 
# from the CCDC's data processing and validation procedures.
#
#######################################################################

data_WITPOG
_symmetry_cell_setting           triclinic
_symmetry_space_group_name_H-M   'P -1'
_symmetry_Int_Tables_number      2
_space_group_name_Hall           '-P 1'
loop_
_symmetry_equiv_pos_site_id
_symmetry_equiv_pos_as_xyz
1 x,y,z
2 -x,-y,-z
_cell_length_a                   8.6778(3)
_cell_length_b                   11.2777(4)
_cell_length_c                   14.1680(5)
_cell_angle_alpha                93.786(2)
_cell_angle_beta                 94.433(3)
_cell_angle_gamma                97.950(3)
_cell_volume                     1364.99
loop_
_atom_site_label
_atom_site_type_symbol
_atom_site_fract_x
_atom_site_fract_y
_atom_site_fract_z
Zn1 Zn 0.64780(9) 0.85292(7) 0.65177(5)
O1 O 0.6056(6) 0.8612(6) -0.1517(4)
O2 O 0.7972(5) 0.8375(4) -0.2402(3)
O3 O 1.3282(7) 0.8784(7) -0.1000(4)
H1 H 1.443(12) 0.892(8) -0.114(7)
O4 O 1.3819(6) 0.8341(7) 0.0479(4)
O5 O 0.6362(7) 0.6513(5) 0.4848(4)
O6 O 0.7526(6) 0.8369(5) 0.5363(3)
N1 N 0.4257(7) 0.7666(5) 0.6508(4)
N2 N -0.3569(7) 0.0360(5) 0.6517(4)
C1 C 0.9025(8) 0.8278(6) 0.0943(4)
C2 C 0.7994(8) 0.8293(6) 0.0149(4)
H2 H 0.6927 0.8216 0.0214
C3 C 0.8531(7) 0.8422(6) -0.0740(4)
C4 C 1.0135(8) 0.8509(6) -0.0849(4)
H3 H 1.0501 0.8596 -0.1444
C5 C 1.1169(8) 0.8463(6) -0.0059(5)
C6 C 1.0622(8) 0.8352(7) 0.0821(5)
H4 H 1.1326 0.8325 0.1346
C7 C 0.8515(8) 0.8128(6) 0.1916(4)
C8 C 0.7328(8) 0.7190(6) 0.2060(5)
H5 H 0.6820 0.6691 0.1548
C9 C 0.6928(8) 0.7021(6) 0.2963(5)
H6 H 0.6147 0.6394 0.3049
C10 C 0.7622(8) 0.7728(6) 0.3746(5)
C11 C 0.8798(8) 0.8691(6) 0.3600(5)
H7 H 0.9261 0.9206 0.4115
C12 C 0.9253(8) 0.8867(7) 0.2721(5)
H8 H 1.0057 0.9480 0.2643
C13 C 0.7425(8) 0.8457(6) -0.1597(4)
C14 C 1.2904(9) 0.8525(7) -0.0148(5)
C15 C 0.7119(9) 0.7500(6) 0.4725(5)
C16 C 0.3873(8) 0.6496(7) 0.6309(5)
H9 H 0.4655 0.6048 0.6160
C17 C 0.2364(8) 0.5903(6) 0.6311(5)
H10 H 0.2147 0.5077 0.6169
C18 C 0.1179(8) 0.6562(6) 0.6530(5)
C19 C 0.1578(8) 0.7780(6) 0.6715(5)
H11 H 0.0811 0.8255 0.6839
C20 C 0.3121(9) 0.8306(6) 0.6719(5)
H12 H 0.3375 0.9128 0.6872
C21 C -0.0505(9) 0.5984(6) 0.6553(6)
H13 H -0.1306 0.6450 0.6587
C22 C -0.0840(8) 0.4638(6) 0.6519(5)
H14 H -0.0247 0.4358 0.7046
H15 H -0.0508 0.4297 0.5935
C23 C -0.2577(9) 0.4209(6) 0.6569(6)
H16 H -0.2909 0.4570 0.7146
H17 H -0.3163 0.4481 0.6035
C24 C -0.2953(8) 0.2859(6) 0.6558(5)
C25 C -0.2757(9) 0.2141(7) 0.5752(5)
H18 H -0.2425 0.2489 0.5212
C26 C -0.3052(9) 0.0928(6) 0.5760(5)
H19 H -0.2893 0.0462 0.5220
C27 C -0.3782(8) 0.1044(6) 0.7276(5)
H20 H -0.4149 0.0677 0.7800
C28 C -0.3478(8) 0.2284(6) 0.7322(5)
H21 H -0.3631 0.2731 0.7874
Zn1_2 Zn -0.35220(9) -0.14708(7) 0.65177(5)
Zn1_3 Zn 0.64780(9) 0.85292(7) -0.34823(5)
O2_2 O 0.7972(5) 0.8375(4) 0.7598(3)
N2_2 N 0.6431(7) 1.0360(5) 0.6517(4)
loop_
_geom_bond_atom_site_label_1
_geom_bond_atom_site_label_2
_geom_bond_site_symmetry_1
_geom_bond_site_symmetry_2
Zn1 O6 1_555 1_555
O1 C13 1_555 1_555
O2 C13 1_555 1_555
O3 H1 1_555 1_555
O4 C14 1_555 1_555
O5 C15 1_555 1_555
O6 C15 1_555 1_555
N1 Zn1 1_555 1_555
N2 C26 1_555 1_555
C1 C2 1_555 1_555
C2 H2 1_555 1_555
C3 C2 1_555 1_555
C4 C3 1_555 1_555
H3 C4 1_555 1_555
C5 C4 1_555 1_555
C6 C1 1_555 1_555
H4 C6 1_555 1_555
C7 C1 1_555 1_555
C8 C7 1_555 1_555
H5 C8 1_555 1_555
C9 C8 1_555 1_555
H6 C9 1_555 1_555
C10 C9 1_555 1_555
C11 C10 1_555 1_555
H7 C11 1_555 1_555
C12 C7 1_555 1_555
H8 C12 1_555 1_555
C13 C3 1_555 1_555
C14 O3 1_555 1_555
C15 C10 1_555 1_555
C16 N1 1_555 1_555
H9 C16 1_555 1_555
C17 C16 1_555 1_555
H10 C17 1_555 1_555
C18 C17 1_555 1_555
C19 C18 1_555 1_555
H11 C19 1_555 1_555
C20 N1 1_555 1_555
H12 C20 1_555 1_555
C21 C18 1_555 1_555
H13 C21 1_555 1_555
C22 C21 1_555 1_555
H14 C22 1_555 1_555
H15 C22 1_555 1_555
C23 C22 1_555 1_555
H16 C23 1_555 1_555
H17 C23 1_555 1_555
C24 C23 1_555 1_555
C25 C24 1_555 1_555
H18 C25 1_555 1_555
C26 C25 1_555 1_555
H19 C26 1_555 1_555
C27 N2 1_555 1_555
H20 C27 1_555 1_555
C28 C24 1_555 1_555
H21 C28 1_555 1_555
Zn1_2 N2 1_555 1_555
Zn1_3 O2 1_555 1_555
O2_2 Zn1 1_555 1_555
N2_2 Zn1 1_555 1_555
C5 C6 1_555 1_555
C5 C14 1_555 1_555
C11 C12 1_555 1_555
C19 C20 1_555 1_555
C27 C28 1_555 1_555

#END
