
#######################################################################
#
#                 Cambridge Crystallographic Data Centre
#                                CCDC 
#
#######################################################################
#
# If this CIF has been generated from an entry in the Cambridge 
# Structural Database, then it will include bibliographic, chemical, 
# crystal, experimental, refinement or atomic coordinate data resulting 
# from the CCDC's data processing and validation procedures.
#
#######################################################################

data_WITQOH
_symmetry_cell_setting           monoclinic
_symmetry_space_group_name_H-M   'C 2/c'
_symmetry_Int_Tables_number      15
_space_group_name_Hall           '-C 2yn'
loop_
_symmetry_equiv_pos_site_id
_symmetry_equiv_pos_as_xyz
1 x,y,z
2 -x,y,1/2-z
3 1/2+x,1/2+y,z
4 1/2-x,1/2+y,1/2-z
5 -x,-y,-z
6 x,-y,1/2+z
7 1/2-x,1/2-y,-z
8 1/2+x,1/2-y,1/2+z
_cell_length_a                   34.543(9)
_cell_length_b                   8.324(2)
_cell_length_c                   15.572(4)
_cell_angle_alpha                90
_cell_angle_beta                 92.096(4)
_cell_angle_gamma                90
_cell_volume                     4474.51
loop_
_atom_site_label
_atom_site_type_symbol
_atom_site_fract_x
_atom_site_fract_y
_atom_site_fract_z
Ag1 Ag 0.0000 -0.19391(11) 0.2500
S1 S 0.19922(6) 0.4895(3) 0.02762(15)
O1 O 0.23467(13) 0.4144(6) 0.0598(4)
O2 O 0.18702(13) 0.6345(6) 0.0665(3)
N1 N 0.06357(16) 1.2073(8) -0.2391(4)
N2 N 0.20534(16) 0.5219(8) -0.0766(4)
N3 N 0.01176(18) -0.0980(9) 0.0963(5)
C1 C 0.1618(2) 0.3449(9) 0.0332(5)
C2 C 0.1220(2) 1.3146(9) -0.2952(5)
H1 H 0.1348 1.3996 -0.3234
C3 C 0.1998(2) 0.8076(10) -0.1137(5)
H2 H 0.2245 0.8235 -0.0863
C4 C 0.0950(2) 0.2785(10) 0.0393(5)
H3 H 0.0688 0.3118 0.0413
C5 C 0.0727(2) -0.0099(9) 0.0433(5)
C6 C 0.1035(2) 0.1138(10) 0.0409(5)
C7 C 0.1233(2) 1.0561(9) -0.2250(5)
C8 C 0.0833(2) 1.3231(9) -0.2791(5)
H4 H 0.0696 1.4166 -0.2974
C9 C 0.1440(2) 0.9137(9) -0.1907(5)
C10 C 0.1830(2) 0.6563(9) -0.1145(5)
C11 C 0.0404(2) 0.0105(9) 0.0924(5)
H5 H 0.0384 0.1064 0.1251
C12 C 0.1417(2) 1.1783(9) -0.2691(4)
H6 H 0.1683 1.1674 -0.2813
C13 C 0.1234(2) 0.3935(9) 0.0350(5)
H7 H 0.1169 0.5043 0.0332
C14 C 0.0838(2) 1.0774(10) -0.2135(5)
H8 H 0.0703 0.9941 -0.1856
C15 C 0.1712(2) 0.1821(10) 0.0350(5)
H9 H 0.1975 0.1492 0.0337
C16 C 0.1806(2) 0.9347(9) -0.1526(5)
H10 H 0.1925 1.0376 -0.1533
C17 C 0.1281(2) 0.7610(8) -0.1920(5)
H11 H 0.1034 0.7450 -0.2197
C18 C 0.0749(2) -0.1487(10) -0.0047(5)
H12 H 0.0967 -0.1678 -0.0387
C19 C 0.2141(2) 0.3915(10) -0.1290(6)
H13 H 0.1899 0.3464 -0.1551
H14 H 0.2270 0.3065 -0.0939
C20 C 0.1469(2) 0.6329(9) -0.1549(5)
H15 H 0.1354 0.5292 -0.1565
C21 C 0.1422(2) 0.0692(10) 0.0388(5)
H16 H 0.1488 -0.0416 0.0401
C22 C 0.0451(3) -0.2605(9) -0.0032(6)
H17 H 0.0456 -0.3553 -0.0370
C23 C 0.2406(3) 0.4454(10) -0.1995(7)
H18 H 0.2262 0.5153 -0.2399
H19 H 0.2500 0.3511 -0.2301
H20 H 0.2627 0.5045 -0.1739
C24 C 0.0147(3) -0.2293(11) 0.0489(6)
H21 H -0.0055 -0.3067 0.0510
S1A S -0.19922(6) 0.4895(3) 0.47238(15)
O1A O -0.23467(13) 0.4144(6) 0.4402(4)
O2A O -0.18702(13) 0.6345(6) 0.4335(3)
N1A N -0.06357(16) 1.2073(8) 0.7391(4)
N2A N -0.20534(16) 0.5219(8) 0.5766(4)
N3A N -0.01176(18) -0.0980(9) 0.4037(5)
C1A C -0.1618(2) 0.3449(9) 0.4668(5)
C2A C -0.1220(2) 1.3146(9) 0.7952(5)
H1A H -0.1348 1.3996 0.8234
C3A C -0.1998(2) 0.8076(10) 0.6137(5)
H2A H -0.2245 0.8235 0.5863
C4A C -0.0950(2) 0.2785(10) 0.4607(5)
H3A H -0.0688 0.3118 0.4587
C5A C -0.0727(2) -0.0099(9) 0.4567(5)
C6A C -0.1035(2) 0.1138(10) 0.4591(5)
C7A C -0.1233(2) 1.0561(9) 0.7250(5)
C8A C -0.0833(2) 1.3231(9) 0.7791(5)
H4A H -0.0696 1.4166 0.7974
C9A C -0.1440(2) 0.9137(9) 0.6907(5)
C10A C -0.1830(2) 0.6563(9) 0.6145(5)
C11A C -0.0404(2) 0.0105(9) 0.4076(5)
H5A H -0.0384 0.1064 0.3749
C12A C -0.1417(2) 1.1783(9) 0.7691(4)
H6A H -0.1683 1.1674 0.7813
C13A C -0.1234(2) 0.3935(9) 0.4650(5)
H7A H -0.1169 0.5043 0.4668
C14A C -0.0838(2) 1.0774(10) 0.7135(5)
H8A H -0.0703 0.9941 0.6856
C15A C -0.1712(2) 0.1821(10) 0.4650(5)
H9A H -0.1975 0.1492 0.4663
C16A C -0.1806(2) 0.9347(9) 0.6526(5)
H10A H -0.1925 1.0376 0.6533
C17A C -0.1281(2) 0.7610(8) 0.6920(5)
H11A H -0.1034 0.7450 0.7197
C18A C -0.0749(2) -0.1487(10) 0.5047(5)
H12A H -0.0967 -0.1678 0.5387
C19A C -0.2141(2) 0.3915(10) 0.6290(6)
H13A H -0.1899 0.3464 0.6551
H14A H -0.2270 0.3065 0.5939
C20A C -0.1469(2) 0.6329(9) 0.6549(5)
H15A H -0.1354 0.5292 0.6565
C21A C -0.1422(2) 0.0692(10) 0.4612(5)
H16A H -0.1488 -0.0416 0.4599
C22A C -0.0451(3) -0.2605(9) 0.5032(6)
H17A H -0.0456 -0.3553 0.5370
C23A C -0.2406(3) 0.4454(10) 0.6995(7)
H18A H -0.2262 0.5153 0.7399
H19A H -0.2500 0.3511 0.7301
H20A H -0.2627 0.5045 0.6739
C24A C -0.0147(3) -0.2293(11) 0.4511(6)
H21A H 0.0055 -0.3067 0.4490
Ag1D Ag 0.0000 1.19391(11) -0.2500
Ag1D_2 Ag 0.0000 1.19391(11) 0.7500
N1D N -0.06357(16) -0.2073(8) 0.2391(4)
N1E N 0.06357(16) -0.2073(8) 0.2609(4)
B1 B 0.0000 0.3599(18) 0.2500
F1 F 0.03161(15) 0.2664(8) 0.2614(4)
F2 F -0.0026(2) 0.4515(7) 0.3206(4)
F1A F -0.03161(15) 0.2664(8) 0.2386(4)
F2A F 0.0026(2) 0.4515(7) 0.1794(4)
loop_
_geom_bond_atom_site_label_1
_geom_bond_atom_site_label_2
_geom_bond_site_symmetry_1
_geom_bond_site_symmetry_2
Ag1 N3 1_555 1_555
S1 O1 1_555 1_555
O2 S1 1_555 1_555
N1 C8 1_555 1_555
N2 S1 1_555 1_555
N3 C11 1_555 1_555
C1 S1 1_555 1_555
C2 H1 1_555 1_555
C3 H2 1_555 1_555
C4 H3 1_555 1_555
C5 C6 1_555 1_555
C6 C4 1_555 1_555
C7 C9 1_555 1_555
C8 C2 1_555 1_555
H4 C8 1_555 1_555
C9 C16 1_555 1_555
C10 N2 1_555 1_555
C11 C5 1_555 1_555
H5 C11 1_555 1_555
C12 C2 1_555 1_555
H6 C12 1_555 1_555
C13 C1 1_555 1_555
H7 C13 1_555 1_555
C14 N1 1_555 1_555
H8 C14 1_555 1_555
C15 C1 1_555 1_555
H9 C15 1_555 1_555
C16 C3 1_555 1_555
H10 C16 1_555 1_555
C17 C9 1_555 1_555
H11 C17 1_555 1_555
C18 C5 1_555 1_555
H12 C18 1_555 1_555
C19 N2 1_555 1_555
H13 C19 1_555 1_555
H14 C19 1_555 1_555
C20 C10 1_555 1_555
H15 C20 1_555 1_555
C21 C6 1_555 1_555
H16 C21 1_555 1_555
C22 C18 1_555 1_555
H17 C22 1_555 1_555
C23 C19 1_555 1_555
H18 C23 1_555 1_555
H19 C23 1_555 1_555
H20 C23 1_555 1_555
C24 N3 1_555 1_555
H21 C24 1_555 1_555
B1 F1 1_555 1_555
F2 B1 1_555 1_555
S1A O1A 1_555 1_555
O2A S1A 1_555 1_555
N1A C8A 1_555 1_555
N2A S1A 1_555 1_555
N3A Ag1 1_555 1_555
C1A S1A 1_555 1_555
C2A H1A 1_555 1_555
C3A H2A 1_555 1_555
C4A H3A 1_555 1_555
C5A C6A 1_555 1_555
C6A C4A 1_555 1_555
C7A C9A 1_555 1_555
C8A C2A 1_555 1_555
H4A C8A 1_555 1_555
C9A C16A 1_555 1_555
C10A N2A 1_555 1_555
C11A N3A 1_555 1_555
H5A C11A 1_555 1_555
C12A C2A 1_555 1_555
H6A C12A 1_555 1_555
C13A C1A 1_555 1_555
H7A C13A 1_555 1_555
C14A N1A 1_555 1_555
H8A C14A 1_555 1_555
C15A C1A 1_555 1_555
H9A C15A 1_555 1_555
C16A C3A 1_555 1_555
H10A C16A 1_555 1_555
C17A C9A 1_555 1_555
H11A C17A 1_555 1_555
C18A C5A 1_555 1_555
H12A C18A 1_555 1_555
C19A N2A 1_555 1_555
H13A C19A 1_555 1_555
H14A C19A 1_555 1_555
C20A C10A 1_555 1_555
H15A C20A 1_555 1_555
C21A C6A 1_555 1_555
H16A C21A 1_555 1_555
C22A C18A 1_555 1_555
H17A C22A 1_555 1_555
C23A C19A 1_555 1_555
H18A C23A 1_555 1_555
H19A C23A 1_555 1_555
H20A C23A 1_555 1_555
C24A N3A 1_555 1_555
H21A C24A 1_555 1_555
Ag1D N1 1_555 1_555
Ag1D_2 N1A 1_555 1_555
N1D Ag1 1_555 1_555
N1E Ag1 1_555 1_555
F1A B1 1_555 1_555
F2A B1 1_555 1_555
C3 C10 1_555 1_555
C4 C13 1_555 1_555
C7 C12 1_555 1_555
C7 C14 1_555 1_555
C15 C21 1_555 1_555
C17 C20 1_555 1_555
C22 C24 1_555 1_555
C3A C10A 1_555 1_555
C4A C13A 1_555 1_555
C5A C11A 1_555 1_555
C7A C12A 1_555 1_555
C7A C14A 1_555 1_555
C15A C21A 1_555 1_555
C17A C20A 1_555 1_555
C22A C24A 1_555 1_555

#END
