
#######################################################################
#
#                 Cambridge Crystallographic Data Centre
#                                CCDC 
#
#######################################################################
#
# If this CIF has been generated from an entry in the Cambridge 
# Structural Database, then it will include bibliographic, chemical, 
# crystal, experimental, refinement or atomic coordinate data resulting 
# from the CCDC's data processing and validation procedures.
#
#######################################################################

data_WITQIB
_symmetry_cell_setting           triclinic
_symmetry_space_group_name_H-M   'P -1'
_symmetry_Int_Tables_number      2
_space_group_name_Hall           '-P 1'
loop_
_symmetry_equiv_pos_site_id
_symmetry_equiv_pos_as_xyz
1 x,y,z
2 -x,-y,-z
_cell_length_a                   11.094(8)
_cell_length_b                   11.531(8)
_cell_length_c                   11.635(8)
_cell_angle_alpha                87.702(10)
_cell_angle_beta                 63.717(8)
_cell_angle_gamma                79.934(9)
_cell_volume                     1312.82
loop_
_atom_site_label
_atom_site_type_symbol
_atom_site_fract_x
_atom_site_fract_y
_atom_site_fract_z
Ag1 Ag 0.53212(9) 0.93818(8) 0.61976(8)
S1 S 0.8104(4) 0.8250(3) 0.2872(3)
S2 S 0.4068(3) 0.3237(2) 0.1524(3)
F1 F 0.7051(11) 0.7240(10) 0.1762(11)
O1 O 0.8926(11) 0.7184(9) 0.2947(10)
F2 F 0.7182(10) 0.9113(9) 0.1272(8)
C1 C 0.7802(18) 0.8075(15) 0.157(2)
O2 O 0.8948(13) 0.9253(10) 0.2505(13)
O3 O 0.6784(10) 0.8609(10) 0.3885(9)
O4 O 0.4222(8) 0.2030(7) 0.1865(8)
O5 O 0.5043(8) 0.3587(7) 0.0329(7)
N1 N 0.3907(10) 0.8180(8) 0.6498(9)
N2 N -0.3390(9) 0.0423(8) 0.6485(8)
N3 N 0.2559(9) 0.3582(8) 0.1523(8)
C2 C 0.1187(14) 0.4914(15) 0.0639(14)
H1 H 0.1617 0.4460 -0.0181
H2 H 0.0921 0.5743 0.0497
H3 H 0.0375 0.4601 0.1231
C3 C 0.2084(12) 0.7284(13) 0.7960(11)
H4 H 0.1362 0.7270 0.8797
C4 C 0.2897(12) 0.8113(12) 0.7688(11)
H5 H 0.2751 0.8656 0.8349
C5 C -0.0344(12) 0.3232(10) 0.4706(12)
H6 H -0.0928 0.3683 0.5478
C6 C 0.2306(11) 0.6454(11) 0.7018(11)
H7 H 0.1764 0.5855 0.7211
C7 C 0.2186(11) 0.4817(10) 0.1208(11)
H8 H 0.3022 0.5100 0.0591
H9 H 0.1776 0.5330 0.1998
C8 C -0.2879(12) 0.1388(9) 0.7956(10)
H10 H -0.3090 0.1564 0.8822
C9 C 0.4242(11) 0.5960(10) 0.3453(11)
H11 H 0.4565 0.6688 0.3250
C10 C -0.3646(11) 0.0724(10) 0.7681(11)
H12 H -0.4394 0.0467 0.8376
C11 C 0.0310(11) 0.1428(9) 0.3431(11)
H13 H 0.0176 0.0661 0.3305
C12 C 0.3946(11) 0.4146(10) 0.2771(11)
C13 C 0.4081(11) 0.7396(10) 0.5600(11)
H14 H 0.4779 0.7449 0.4758
C14 C -0.1803(12) 0.1797(9) 0.6967(10)
H15 H -0.1255 0.2247 0.7138
C15 C 0.4415(11) 0.5211(10) 0.2480(11)
H16 H 0.4854 0.5422 0.1612
C16 C 0.1471(11) 0.3098(10) 0.2569(11)
C17 C 0.3318(11) 0.3840(10) 0.4031(10)
H17 H 0.2996 0.3112 0.4231
C18 C 0.3599(10) 0.5669(10) 0.4734(10)
C19 C 0.3323(10) 0.6520(10) 0.5806(11)
C20 C 0.1314(11) 0.1944(9) 0.2411(10)
H18 H 0.1878 0.1510 0.1622
C21 C 0.0601(11) 0.3738(10) 0.3720(10)
H19 H 0.0670 0.4535 0.3814
C22 C -0.2325(11) 0.0822(9) 0.5527(11)
H20 H -0.2104 0.0596 0.4671
C23 C -0.0475(11) 0.2021(10) 0.4601(10)
C24 C 0.3155(10) 0.4596(9) 0.5010(10)
H21 H 0.2735 0.4374 0.5875
C25 C -0.1542(10) 0.1531(9) 0.5705(10)
F3 F 0.9003(9) 0.7796(9) 0.0425(7)
Ag1_2 Ag -0.46788(9) -0.06182(8) 0.61976(8)
N2_2 N 0.6610(9) 1.0423(8) 0.6485(8)
loop_
_geom_bond_atom_site_label_1
_geom_bond_atom_site_label_2
_geom_bond_site_symmetry_1
_geom_bond_site_symmetry_2
Ag1 O3 1_555 1_555
S1 O1 1_555 1_555
S2 O4 1_555 1_555
F1 C1 1_555 1_555
F2 C1 1_555 1_555
C1 S1 1_555 1_555
O2 S1 1_555 1_555
O3 S1 1_555 1_555
O5 S2 1_555 1_555
N1 Ag1 1_555 1_555
N2 C10 1_555 1_555
N3 S2 1_555 1_555
C2 H1 1_555 1_555
H2 C2 1_555 1_555
H3 C2 1_555 1_555
C3 H4 1_555 1_555
C4 N1 1_555 1_555
H5 C4 1_555 1_555
C5 H6 1_555 1_555
C6 C3 1_555 1_555
H7 C6 1_555 1_555
C7 N3 1_555 1_555
H8 C7 1_555 1_555
H9 C7 1_555 1_555
C8 H10 1_555 1_555
C9 H11 1_555 1_555
C10 C8 1_555 1_555
H12 C10 1_555 1_555
C11 H13 1_555 1_555
C12 S2 1_555 1_555
C13 N1 1_555 1_555
H14 C13 1_555 1_555
C14 C8 1_555 1_555
H15 C14 1_555 1_555
C15 C9 1_555 1_555
H16 C15 1_555 1_555
C16 N3 1_555 1_555
C17 C12 1_555 1_555
H17 C17 1_555 1_555
C18 C9 1_555 1_555
C19 C6 1_555 1_555
C20 C11 1_555 1_555
H18 C20 1_555 1_555
C21 C5 1_555 1_555
H19 C21 1_555 1_555
C22 N2 1_555 1_555
H20 C22 1_555 1_555
C23 C5 1_555 1_555
C24 C17 1_555 1_555
H21 C24 1_555 1_555
C25 C14 1_555 1_555
F3 C1 1_555 1_555
Ag1_2 N2 1_555 1_555
N2_2 Ag1 1_555 1_555
C2 C7 1_555 1_555
C3 C4 1_555 1_555
C11 C23 1_555 1_555
C12 C15 1_555 1_555
C13 C19 1_555 1_555
C16 C20 1_555 1_555
C16 C21 1_555 1_555
C18 C19 1_555 1_555
C18 C24 1_555 1_555
C22 C25 1_555 1_555
C23 C25 1_555 1_555

#END
