
#######################################################################
#
#                 Cambridge Crystallographic Data Centre
#                                CCDC 
#
#######################################################################
#
# If this CIF has been generated from an entry in the Cambridge 
# Structural Database, then it will include bibliographic, chemical, 
# crystal, experimental, refinement or atomic coordinate data resulting 
# from the CCDC's data processing and validation procedures.
#
#######################################################################

data_WITRAU
_symmetry_cell_setting           monoclinic
_symmetry_space_group_name_H-M   'P 21/c'
_symmetry_Int_Tables_number      14
_space_group_name_Hall           '-P 2ybc'
loop_
_symmetry_equiv_pos_site_id
_symmetry_equiv_pos_as_xyz
1 x,y,z
2 -x,1/2+y,1/2-z
3 -x,-y,-z
4 x,1/2-y,1/2+z
_cell_length_a                   21.370(4)
_cell_length_b                   19.497(4)
_cell_length_c                   7.4700(14)
_cell_angle_alpha                90
_cell_angle_beta                 91.055(3)
_cell_angle_gamma                90
_cell_volume                     3111.85
loop_
_atom_site_label
_atom_site_type_symbol
_atom_site_fract_x
_atom_site_fract_y
_atom_site_fract_z
Ag1 Ag 1.03575(4) 0.75031(3) 0.60018(11)
S1 S 0.56199(11) 0.63113(9) 1.0493(2)
C1 C 0.7047(5) 0.7313(4) 0.8181(10)
H1 H 0.7107 0.7723 0.7522
C2 C 0.7545(4) 0.6900(4) 0.8560(10)
C3 C 0.7447(4) 0.6282(4) 0.9514(10)
H2 H 0.7793 0.5992 0.9786
C4 C 0.6862(5) 0.6095(4) 1.0050(10)
H3 H 0.6797 0.5679 1.0681
C5 C 0.6458(4) 0.7141(4) 0.8742(10)
H4 H 0.6114 0.7439 0.8512
C6 C 0.8190(4) 0.7070(4) 0.7929(10)
C7 C 0.6373(4) 0.6527(4) 0.9649(10)
C8 C 0.8588(5) 0.6548(4) 0.7365(14)
H5 H 0.8450 0.6085 0.7364
C9 C 0.9176(6) 0.6706(5) 0.6816(16)
H6 H 0.9436 0.6342 0.6428
C10 C 0.8409(4) 0.7728(4) 0.7824(11)
H7 H 0.8144 0.8099 0.8138
C11 C 0.9001(4) 0.7860(4) 0.7276(11)
H8 H 0.9136 0.8323 0.7228
N1 N 0.5167(4) 0.6370(3) 0.8696(8)
N2 N 0.1335(4) 0.7322(4) 1.0531(11)
N3 N 0.9412(4) 0.7357(4) 0.6792(11)
C12 C 0.4524(4) 0.6545(4) 0.9067(10)
C13 C 0.4294(4) 0.7186(4) 0.8572(11)
H9 H 0.4562 0.7511 0.8029
C14 C 0.3268(4) 0.6881(4) 0.9696(10)
C15 C 0.2169(4) 0.6531(4) 0.9987(12)
H10 H 0.2288 0.6068 0.9790
C16 C 0.5258(5) 0.5834(4) 0.7344(10)
H11 H 0.4996 0.5430 0.7625
H12 H 0.5701 0.5687 0.7355
C17 C 0.3679(5) 0.7349(4) 0.8868(11)
H13 H 0.3526 0.7786 0.8507
C18 C 0.2385(4) 0.7706(4) 1.0261(12)
H14 H 0.2666 0.8083 1.0280
C19 C 0.1555(5) 0.6690(5) 1.0282(13)
H15 H 0.1263 0.6323 1.0311
C20 C 0.2618(5) 0.7048(4) 0.9976(10)
C21 C 0.4134(4) 0.6076(4) 0.9897(11)
H16 H 0.4290 0.5640 1.0260
C22 C 0.3521(4) 0.6249(4) 1.0186(12)
H17 H 0.3258 0.5924 1.0745
C23 C 0.1761(4) 0.7823(4) 1.0515(11)
H18 H 0.1624 0.8281 1.0688
C24 C 0.5078(5) 0.6108(6) 0.5518(12)
H19 H 0.4638 0.6250 0.5511
H20 H 0.5136 0.5749 0.4618
H21 H 0.5342 0.6503 0.5238
O1 O 0.5425(3) 0.6843(3) 1.1681(7)
O2 O 0.5658(3) 0.5623(3) 1.1173(8)
N4 N 1.0370(5) 0.6405(5) 0.3855(14)
C25 C 1.0468(6) 0.5840(5) 0.3535(13)
C26 C 1.0601(7) 0.5144(6) 0.3106(17)
H22 H 1.0866 0.4943 0.4053
H23 H 1.0209 0.4885 0.3003
H24 H 1.0820 0.5125 0.1965
Ag1C Ag 0.03575(4) 0.74969(3) 1.10018(11)
N2C N 1.1335(4) 0.7678(4) 0.5531(11)
Cl1 Cl 0.30480(18) 0.41091(14) 0.4973(4)
Cl2 Cl 0.23661(17) 0.52464(16) 0.3400(4)
Cl3 Cl 0.3335(3) 0.5480(2) 0.6002(10)
C27 C 0.2757(7) 0.4930(6) 0.5311(15)
H25 H 0.2445 0.4903 0.6290
B1 B 0.1248(8) 0.4887(6) 0.7986(18)
F1 F 0.1359(4) 0.4433(3) 0.6625(10)
F2 F 0.1000(5) 0.5477(4) 0.7344(12)
F3 F 0.0830(7) 0.4533(5) 0.9087(13)
F4 F 0.1759(6) 0.5021(4) 0.8972(18)
loop_
_geom_bond_atom_site_label_1
_geom_bond_atom_site_label_2
_geom_bond_site_symmetry_1
_geom_bond_site_symmetry_2
Ag1 N3 1_555 1_555
S1 C7 1_555 1_555
C1 H1 1_555 1_555
C2 C1 1_555 1_555
C3 C2 1_555 1_555
H2 C3 1_555 1_555
C4 C3 1_555 1_555
H3 C4 1_555 1_555
C5 C1 1_555 1_555
H4 C5 1_555 1_555
C6 C2 1_555 1_555
C7 C4 1_555 1_555
C8 C6 1_555 1_555
H5 C8 1_555 1_555
C9 C8 1_555 1_555
H6 C9 1_555 1_555
C10 C6 1_555 1_555
H7 C10 1_555 1_555
C11 C10 1_555 1_555
H8 C11 1_555 1_555
N1 S1 1_555 1_555
N2 C19 1_555 1_555
N3 C9 1_555 1_555
C12 N1 1_555 1_555
C13 C12 1_555 1_555
H9 C13 1_555 1_555
C14 C17 1_555 1_555
C15 H10 1_555 1_555
C16 N1 1_555 1_555
H11 C16 1_555 1_555
H12 C16 1_555 1_555
C17 C13 1_555 1_555
H13 C17 1_555 1_555
C18 H14 1_555 1_555
C19 C15 1_555 1_555
H15 C19 1_555 1_555
C20 C14 1_555 1_555
C21 C12 1_555 1_555
H16 C21 1_555 1_555
C22 C14 1_555 1_555
H17 C22 1_555 1_555
C23 N2 1_555 1_555
H18 C23 1_555 1_555
C24 C16 1_555 1_555
H19 C24 1_555 1_555
H20 C24 1_555 1_555
H21 C24 1_555 1_555
O1 S1 1_555 1_555
O2 S1 1_555 1_555
N4 Ag1 1_555 1_555
C25 N4 1_555 1_555
C26 C25 1_555 1_555
H22 C26 1_555 1_555
H23 C26 1_555 1_555
H24 C26 1_555 1_555
Cl1 C27 1_555 1_555
Cl2 C27 1_555 1_555
Cl3 C27 1_555 1_555
C27 H25 1_555 1_555
B1 F1 1_555 1_555
F2 B1 1_555 1_555
F3 B1 1_555 1_555
F4 B1 1_555 1_555
Ag1C N2 1_555 1_555
N2C Ag1 1_555 1_555
C5 C7 1_555 1_555
C11 N3 1_555 1_555
C15 C20 1_555 1_555
C18 C20 1_555 1_555
C18 C23 1_555 1_555
C21 C22 1_555 1_555

#END
