
#######################################################################
#
#                 Cambridge Crystallographic Data Centre
#                                CCDC 
#
#######################################################################
#
# If this CIF has been generated from an entry in the Cambridge 
# Structural Database, then it will include bibliographic, chemical, 
# crystal, experimental, refinement or atomic coordinate data resulting 
# from the CCDC's data processing and validation procedures.
#
#######################################################################

data_WITREY
_symmetry_cell_setting           orthorhombic
_symmetry_space_group_name_H-M   'I b a m'
_symmetry_Int_Tables_number      72
_space_group_name_Hall           '-I 2 2c'
loop_
_symmetry_equiv_pos_site_id
_symmetry_equiv_pos_as_xyz
1 x,y,z
2 -x,-y,z
3 x,-y,1/2-z
4 -x,y,1/2-z
5 1/2+x,1/2+y,1/2+z
6 1/2-x,1/2-y,1/2+z
7 1/2+x,1/2-y,-z
8 1/2-x,1/2+y,-z
9 -x,-y,-z
10 x,y,-z
11 -x,y,1/2+z
12 x,-y,1/2+z
13 1/2-x,1/2-y,1/2-z
14 1/2+x,1/2+y,1/2-z
15 1/2-x,1/2+y,z
16 1/2+x,1/2-y,z
_cell_length_a                   12.277(4)
_cell_length_b                   22.291(7)
_cell_length_c                   45.968(14)
_cell_angle_alpha                90
_cell_angle_beta                 90
_cell_angle_gamma                90
_cell_volume                     12579.9
loop_
_atom_site_label
_atom_site_type_symbol
_atom_site_fract_x
_atom_site_fract_y
_atom_site_fract_z
Sb1 Sb 0.14940(12) 0.16057(8) 0.0000
F1 F 0.1498(7) 0.1663(5) 0.0404(2)
F2 F 0.1942(14) 0.2370(6) 0.0000
F3 F 0.0045(10) 0.1901(6) 0.0000
F4 F 0.0876(19) 0.0860(8) 0.0000
F5 F 0.2933(16) 0.129(2) 0.0000
F1I F 0.1498(7) 0.1663(5) -0.0404(2)
Ag1 Ag -0.5000 0.5000 0.10809(4)
Ag2 Ag 0.0000 0.0000 0.2500
C1 C -0.2667(8) 0.4773(5) 0.1305(3)
H1 H -0.2923 0.4958 0.1478
C2 C -0.1579(7) 0.4607(4) 0.1281(3)
H2 H -0.1103 0.4687 0.1439
C3 C -0.1169(7) 0.4335(4) 0.1040(3)
C4 C -0.1926(7) 0.4242(4) 0.0797(3)
H3 H -0.1689 0.4073 0.0618
C5 C -0.2994(9) 0.4411(5) 0.0838(3)
H4 H -0.3503 0.4340 0.0687
C6 C -0.0016(7) 0.4145(4) 0.1016(3)
C7 C 0.0500(7) 0.3921(4) 0.1261(3)
H5 H 0.0113 0.3881 0.1438
C8 C 0.1614(8) 0.3750(5) 0.1244(3)
H6 H 0.1977 0.3574 0.1405
C9 C 0.2138(7) 0.3846(4) 0.0990(3)
C10 C 0.1612(8) 0.4061(4) 0.0738(3)
H7 H 0.1998 0.4110 0.0560
C11 C 0.0539(7) 0.4195(4) 0.0757(3)
H8 H 0.0160 0.4326 0.0589
C12 C 0.3641(8) 0.2745(5) 0.0600(3)
H9 H 0.2890 0.2617 0.0552
H10 H 0.3822 0.3095 0.0477
C13 C 0.4364(10) 0.2275(5) 0.0537(3)
H11 H 0.5068 0.2441 0.0477
H12 H 0.4065 0.2029 0.0380
H13 H 0.4464 0.2026 0.0711
C14 C 0.3231(7) 0.2553(5) 0.1124(3)
C15 C 0.2220(7) 0.2281(5) 0.1075(3)
H14 H 0.1845 0.2357 0.0898
C16 C 0.1747(7) 0.1900(5) 0.1283(3)
H15 H 0.1054 0.1724 0.1249
C17 C 0.2304(8) 0.1782(5) 0.1539(3)
C18 C 0.3323(8) 0.2072(5) 0.1584(3)
H16 H 0.3710 0.2017 0.1762
C19 C 0.3742(8) 0.2433(5) 0.1367(3)
H17 H 0.4442 0.2605 0.1396
C20 C 0.1860(8) 0.1379(5) 0.1763(3)
C21 C 0.0751(10) 0.1263(6) 0.1782(4)
H18 H 0.0263 0.1463 0.1655
C22 C 0.0336(13) 0.0847(8) 0.1991(4)
H19 H -0.0416 0.0751 0.1978
C23 C 0.1916(15) 0.0745(6) 0.2176(3)
H20 H 0.2374 0.0575 0.2321
C24 C 0.2429(9) 0.1119(7) 0.1979(3)
H21 H 0.3188 0.1192 0.1995
N1 N -0.3345(6) 0.4672(4) 0.1086(3)
N2 N 0.3690(6) 0.2918(4) 0.0903(2)
N3 N 0.0878(9) 0.0592(5) 0.2191(3)
O1 O 0.4033(5) 0.3976(3) 0.07369(19)
O2 O 0.3923(6) 0.3751(3) 0.1264(2)
S1 S 0.35646(18) 0.36606(12) 0.09749(8)
C1A C -0.7333(8) 0.5227(5) 0.1305(3)
H1A H -0.7077 0.5042 0.1478
C2A C -0.8421(7) 0.5393(4) 0.1281(3)
H2A H -0.8897 0.5313 0.1439
C3A C -0.8831(7) 0.5665(4) 0.1040(3)
C4A C -0.8074(7) 0.5758(4) 0.0797(3)
H3A H -0.8311 0.5927 0.0618
C5A C -0.7006(9) 0.5589(5) 0.0838(3)
H4A H -0.6497 0.5660 0.0687
C6A C -0.9984(7) 0.5855(4) 0.1016(3)
C7A C -1.0500(7) 0.6079(4) 0.1261(3)
H5A H -1.0113 0.6119 0.1438
C8A C -1.1614(8) 0.6250(5) 0.1244(3)
H6A H -1.1977 0.6426 0.1405
C9A C -1.2138(7) 0.6154(4) 0.0990(3)
C10A C -1.1612(8) 0.5939(4) 0.0738(3)
H7A H -1.1998 0.5890 0.0560
C11A C -1.0539(7) 0.5805(4) 0.0757(3)
H8A H -1.0160 0.5674 0.0589
C12A C -1.3641(8) 0.7255(5) 0.0600(3)
H9A H -1.2890 0.7383 0.0552
H10A H -1.3822 0.6905 0.0477
C13A C -1.4364(10) 0.7725(5) 0.0537(3)
H11A H -1.5068 0.7559 0.0477
H12A H -1.4065 0.7971 0.0380
H13A H -1.4464 0.7974 0.0711
C14A C -1.3231(7) 0.7447(5) 0.1124(3)
C15A C -1.2220(7) 0.7719(5) 0.1075(3)
H14A H -1.1845 0.7643 0.0898
C16A C -1.1747(7) 0.8100(5) 0.1283(3)
H15A H -1.1054 0.8276 0.1249
C17A C -1.2304(8) 0.8218(5) 0.1539(3)
C18A C -1.3323(8) 0.7928(5) 0.1584(3)
H16A H -1.3710 0.7983 0.1762
C19A C -1.3742(8) 0.7567(5) 0.1367(3)
H17A H -1.4442 0.7395 0.1396
C20A C -1.1860(8) 0.8621(5) 0.1763(3)
C21A C -1.0751(10) 0.8737(6) 0.1782(4)
H18A H -1.0263 0.8537 0.1655
C22A C -1.0336(13) 0.9153(8) 0.1991(4)
H19A H -0.9584 0.9249 0.1978
C23A C -1.1916(15) 0.9255(6) 0.2176(3)
H20A H -1.2374 0.9425 0.2321
C24A C -1.2429(9) 0.8881(7) 0.1979(3)
H21A H -1.3188 0.8808 0.1995
N1A N -0.6655(6) 0.5328(4) 0.1086(3)
N2A N -1.3690(6) 0.7082(4) 0.0903(2)
N3A N -1.0878(9) 0.9408(5) 0.2191(3)
O1A O -1.4033(5) 0.6024(3) 0.07369(19)
O2A O -1.3923(6) 0.6249(3) 0.1264(2)
S1A S -1.35646(18) 0.63394(12) 0.09749(8)
Ag1_2 Ag 0.5000 -0.5000 0.10809(4)
C1A_2 C 0.2667(8) -0.4773(5) 0.1305(3)
H1A_2 H 0.2923 -0.4958 0.1478
C2A_2 C 0.1579(7) -0.4607(4) 0.1281(3)
H2A_2 H 0.1103 -0.4687 0.1439
C3A_2 C 0.1169(7) -0.4335(4) 0.1040(3)
C4A_2 C 0.1926(7) -0.4242(4) 0.0797(3)
H3A_2 H 0.1689 -0.4073 0.0618
C5A_2 C 0.2994(9) -0.4411(5) 0.0838(3)
H4A_2 H 0.3503 -0.4340 0.0687
C6A_2 C 0.0016(7) -0.4145(4) 0.1016(3)
C7A_2 C -0.0500(7) -0.3921(4) 0.1261(3)
H5A_2 H -0.0113 -0.3881 0.1438
C8A_2 C -0.1614(8) -0.3750(5) 0.1244(3)
H6A_2 H -0.1977 -0.3574 0.1405
C9A_2 C -0.2138(7) -0.3846(4) 0.0990(3)
C10A_2 C -0.1612(8) -0.4061(4) 0.0738(3)
H7A_2 H -0.1998 -0.4110 0.0560
C11A_2 C -0.0539(7) -0.4195(4) 0.0757(3)
H8A_2 H -0.0160 -0.4326 0.0589
C12A_2 C -0.3641(8) -0.2745(5) 0.0600(3)
H9A_2 H -0.2890 -0.2617 0.0552
H10A_2 H -0.3822 -0.3095 0.0477
C13A_2 C -0.4364(10) -0.2275(5) 0.0537(3)
H11A_2 H -0.5068 -0.2441 0.0477
H12A_2 H -0.4065 -0.2029 0.0380
H13A_2 H -0.4464 -0.2026 0.0711
C14A_2 C -0.3231(7) -0.2553(5) 0.1124(3)
C15A_2 C -0.2220(7) -0.2281(5) 0.1075(3)
H14A_2 H -0.1845 -0.2357 0.0898
C16A_2 C -0.1747(7) -0.1900(5) 0.1283(3)
H15A_2 H -0.1054 -0.1724 0.1249
C17A_2 C -0.2304(8) -0.1782(5) 0.1539(3)
C18A_2 C -0.3323(8) -0.2072(5) 0.1584(3)
H16A_2 H -0.3710 -0.2017 0.1762
C19A_2 C -0.3742(8) -0.2433(5) 0.1367(3)
H17A_2 H -0.4442 -0.2605 0.1396
C20A_2 C -0.1860(8) -0.1379(5) 0.1763(3)
C21A_2 C -0.0751(10) -0.1263(6) 0.1782(4)
H18A_2 H -0.0263 -0.1463 0.1655
C22A_2 C -0.0336(13) -0.0847(8) 0.1991(4)
H19A_2 H 0.0416 -0.0751 0.1978
C23A_2 C -0.1916(15) -0.0745(6) 0.2176(3)
H20A_2 H -0.2374 -0.0575 0.2321
C24A_2 C -0.2429(9) -0.1119(7) 0.1979(3)
H21A_2 H -0.3188 -0.1192 0.1995
N1A_2 N 0.3345(6) -0.4672(4) 0.1086(3)
N2A_2 N -0.3690(6) -0.2918(4) 0.0903(2)
N3A_2 N -0.0878(9) -0.0592(5) 0.2191(3)
O1A_2 O -0.4033(5) -0.3976(3) 0.07369(19)
O2A_2 O -0.3923(6) -0.3751(3) 0.1264(2)
S1A_2 S -0.35646(18) -0.36606(12) 0.09749(8)
C1B C -0.2667(8) -0.4773(5) 0.3695(3)
H1B H -0.2923 -0.4958 0.3522
C2B C -0.1579(7) -0.4607(4) 0.3719(3)
H2B H -0.1103 -0.4687 0.3561
C3B C -0.1169(7) -0.4335(4) 0.3960(3)
C4B C -0.1926(7) -0.4242(4) 0.4203(3)
H3B H -0.1689 -0.4073 0.4382
C5B C -0.2994(9) -0.4411(5) 0.4162(3)
H4B H -0.3503 -0.4340 0.4313
C6B C -0.0016(7) -0.4145(4) 0.3984(3)
C7B C 0.0500(7) -0.3921(4) 0.3739(3)
H5B H 0.0113 -0.3881 0.3562
C8B C 0.1614(8) -0.3750(5) 0.3756(3)
H6B H 0.1977 -0.3574 0.3595
C9B C 0.2138(7) -0.3846(4) 0.4010(3)
C10B C 0.1612(8) -0.4061(4) 0.4262(3)
H7B H 0.1998 -0.4110 0.4440
C11B C 0.0539(7) -0.4195(4) 0.4243(3)
H8B H 0.0160 -0.4326 0.4411
C12B C 0.3641(8) -0.2745(5) 0.4400(3)
H9B H 0.2890 -0.2617 0.4448
H10B H 0.3822 -0.3095 0.4523
C13B C 0.4364(10) -0.2275(5) 0.4463(3)
H11B H 0.5068 -0.2441 0.4523
H12B H 0.4065 -0.2029 0.4620
H13B H 0.4464 -0.2026 0.4289
C14B C 0.3231(7) -0.2553(5) 0.3876(3)
C15B C 0.2220(7) -0.2281(5) 0.3925(3)
H14B H 0.1845 -0.2357 0.4102
C16B C 0.1747(7) -0.1900(5) 0.3717(3)
H15B H 0.1054 -0.1724 0.3751
C17B C 0.2304(8) -0.1782(5) 0.3461(3)
C18B C 0.3323(8) -0.2072(5) 0.3416(3)
H16B H 0.3710 -0.2017 0.3238
C19B C 0.3742(8) -0.2433(5) 0.3633(3)
H17B H 0.4442 -0.2605 0.3604
C20B C 0.1860(8) -0.1379(5) 0.3237(3)
C21B C 0.0751(10) -0.1263(6) 0.3218(4)
H18B H 0.0263 -0.1463 0.3345
C22B C 0.0336(13) -0.0847(8) 0.3009(4)
H19B H -0.0416 -0.0751 0.3022
C23B C 0.1916(15) -0.0745(6) 0.2824(3)
H20B H 0.2374 -0.0575 0.2679
C24B C 0.2429(9) -0.1119(7) 0.3021(3)
H21B H 0.3188 -0.1192 0.3005
N1B N -0.3345(6) -0.4672(4) 0.3914(3)
N2B N 0.3690(6) -0.2918(4) 0.4097(2)
N3B N 0.0878(9) -0.0592(5) 0.2809(3)
O1B O 0.4033(5) -0.3976(3) 0.42631(19)
O2B O 0.3923(6) -0.3751(3) 0.3736(2)
S1B S 0.35646(18) -0.36606(12) 0.40251(8)
Ag1B Ag -0.5000 -0.5000 0.39191(4)
Ag2_2 Ag -1.0000 1.0000 0.2500
N3C N -0.0878(9) 0.0592(5) 0.2809(3)
C25 C 0.5000 0.0000 0.1893(5)
O3 O 0.5000 0.0000 0.2208(4)
O4? O 0.5902(17) 0.0845(10) 0.2133(5)
O5? O 0.5443(7) 0.0539(6) 0.22272(19)
C26? C 0.594(3) 0.0000 0.2500
loop_
_geom_bond_atom_site_label_1
_geom_bond_atom_site_label_2
_geom_bond_site_symmetry_1
_geom_bond_site_symmetry_2
Sb1 F1 1_555 1_555
F2 Sb1 1_555 1_555
F3 Sb1 1_555 1_555
F4 Sb1 1_555 1_555
F5 Sb1 1_555 1_555
Ag1 N1 1_555 1_555
Ag2 N3 1_555 1_555
C1 H1 1_555 1_555
C2 C1 1_555 1_555
H2 C2 1_555 1_555
C3 C2 1_555 1_555
C4 C3 1_555 1_555
H3 C4 1_555 1_555
C5 C4 1_555 1_555
H4 C5 1_555 1_555
C6 C3 1_555 1_555
C7 C6 1_555 1_555
H5 C7 1_555 1_555
C8 C7 1_555 1_555
H6 C8 1_555 1_555
C9 C8 1_555 1_555
C10 C9 1_555 1_555
H7 C10 1_555 1_555
C11 C6 1_555 1_555
H8 C11 1_555 1_555
C12 H9 1_555 1_555
H10 C12 1_555 1_555
C13 C12 1_555 1_555
H11 C13 1_555 1_555
H12 C13 1_555 1_555
H13 C13 1_555 1_555
C14 C15 1_555 1_555
C15 H14 1_555 1_555
C16 C15 1_555 1_555
H15 C16 1_555 1_555
C17 C16 1_555 1_555
C18 C17 1_555 1_555
H16 C18 1_555 1_555
C19 C14 1_555 1_555
H17 C19 1_555 1_555
C20 C17 1_555 1_555
C21 C20 1_555 1_555
H18 C21 1_555 1_555
C22 C21 1_555 1_555
H19 C22 1_555 1_555
C23 H20 1_555 1_555
C24 C20 1_555 1_555
H21 C24 1_555 1_555
N1 C1 1_555 1_555
N2 C12 1_555 1_555
N3 C22 1_555 1_555
O1 S1 1_555 1_555
O2 S1 1_555 1_555
S1 C9 1_555 1_555
C25 O3 1_555 1_555
F1I Sb1 1_555 1_555
C1A H1A 1_555 1_555
C2A C1A 1_555 1_555
H2A C2A 1_555 1_555
C3A C2A 1_555 1_555
C4A C3A 1_555 1_555
H3A C4A 1_555 1_555
C5A C4A 1_555 1_555
H4A C5A 1_555 1_555
C6A C3A 1_555 1_555
C7A C6A 1_555 1_555
H5A C7A 1_555 1_555
C8A C7A 1_555 1_555
H6A C8A 1_555 1_555
C9A C8A 1_555 1_555
C10A C9A 1_555 1_555
H7A C10A 1_555 1_555
C11A C6A 1_555 1_555
H8A C11A 1_555 1_555
C12A H9A 1_555 1_555
H10A C12A 1_555 1_555
C13A C12A 1_555 1_555
H11A C13A 1_555 1_555
H12A C13A 1_555 1_555
H13A C13A 1_555 1_555
C14A C15A 1_555 1_555
C15A H14A 1_555 1_555
C16A C15A 1_555 1_555
H15A C16A 1_555 1_555
C17A C16A 1_555 1_555
C18A C17A 1_555 1_555
H16A C18A 1_555 1_555
C19A C14A 1_555 1_555
H17A C19A 1_555 1_555
C20A C17A 1_555 1_555
C21A C20A 1_555 1_555
H18A C21A 1_555 1_555
C22A C21A 1_555 1_555
H19A C22A 1_555 1_555
C23A H20A 1_555 1_555
C24A C20A 1_555 1_555
H21A C24A 1_555 1_555
N1A Ag1 1_555 1_555
N2A C12A 1_555 1_555
N3A C22A 1_555 1_555
O1A S1A 1_555 1_555
O2A S1A 1_555 1_555
S1A C9A 1_555 1_555
Ag1_2 N1A_2 1_555 1_555
C1A_2 H1A_2 1_555 1_555
C2A_2 C1A_2 1_555 1_555
H2A_2 C2A_2 1_555 1_555
C3A_2 C2A_2 1_555 1_555
C4A_2 C3A_2 1_555 1_555
H3A_2 C4A_2 1_555 1_555
C5A_2 C4A_2 1_555 1_555
H4A_2 C5A_2 1_555 1_555
C6A_2 C3A_2 1_555 1_555
C7A_2 C6A_2 1_555 1_555
H5A_2 C7A_2 1_555 1_555
C8A_2 C7A_2 1_555 1_555
H6A_2 C8A_2 1_555 1_555
C9A_2 C8A_2 1_555 1_555
C10A_2 C9A_2 1_555 1_555
H7A_2 C10A_2 1_555 1_555
C11A_2 C6A_2 1_555 1_555
H8A_2 C11A_2 1_555 1_555
C12A_2 H9A_2 1_555 1_555
H10A_2 C12A_2 1_555 1_555
C13A_2 C12A_2 1_555 1_555
H11A_2 C13A_2 1_555 1_555
H12A_2 C13A_2 1_555 1_555
H13A_2 C13A_2 1_555 1_555
C14A_2 C15A_2 1_555 1_555
C15A_2 H14A_2 1_555 1_555
C16A_2 C15A_2 1_555 1_555
H15A_2 C16A_2 1_555 1_555
C17A_2 C16A_2 1_555 1_555
C18A_2 C17A_2 1_555 1_555
H16A_2 C18A_2 1_555 1_555
C19A_2 C14A_2 1_555 1_555
H17A_2 C19A_2 1_555 1_555
C20A_2 C17A_2 1_555 1_555
C21A_2 C20A_2 1_555 1_555
H18A_2 C21A_2 1_555 1_555
C22A_2 C21A_2 1_555 1_555
H19A_2 C22A_2 1_555 1_555
C23A_2 H20A_2 1_555 1_555
C24A_2 C20A_2 1_555 1_555
H21A_2 C24A_2 1_555 1_555
N1A_2 C1A_2 1_555 1_555
N2A_2 C12A_2 1_555 1_555
N3A_2 Ag2 1_555 1_555
O1A_2 S1A_2 1_555 1_555
O2A_2 S1A_2 1_555 1_555
S1A_2 C9A_2 1_555 1_555
C1B H1B 1_555 1_555
C2B C1B 1_555 1_555
H2B C2B 1_555 1_555
C3B C2B 1_555 1_555
C4B C3B 1_555 1_555
H3B C4B 1_555 1_555
C5B C4B 1_555 1_555
H4B C5B 1_555 1_555
C6B C3B 1_555 1_555
C7B C6B 1_555 1_555
H5B C7B 1_555 1_555
C8B C7B 1_555 1_555
H6B C8B 1_555 1_555
C9B C8B 1_555 1_555
C10B C9B 1_555 1_555
H7B C10B 1_555 1_555
C11B C6B 1_555 1_555
H8B C11B 1_555 1_555
C12B H9B 1_555 1_555
H10B C12B 1_555 1_555
C13B C12B 1_555 1_555
H11B C13B 1_555 1_555
H12B C13B 1_555 1_555
H13B C13B 1_555 1_555
C14B C15B 1_555 1_555
C15B H14B 1_555 1_555
C16B C15B 1_555 1_555
H15B C16B 1_555 1_555
C17B C16B 1_555 1_555
C18B C17B 1_555 1_555
H16B C18B 1_555 1_555
C19B C14B 1_555 1_555
H17B C19B 1_555 1_555
C20B C17B 1_555 1_555
C21B C20B 1_555 1_555
H18B C21B 1_555 1_555
C22B C21B 1_555 1_555
H19B C22B 1_555 1_555
C23B H20B 1_555 1_555
C24B C20B 1_555 1_555
H21B C24B 1_555 1_555
N1B C1B 1_555 1_555
N2B C12B 1_555 1_555
N3B Ag2 1_555 1_555
O1B S1B 1_555 1_555
O2B S1B 1_555 1_555
S1B C9B 1_555 1_555
Ag1B N1B 1_555 1_555
Ag2_2 N3A 1_555 1_555
N3C Ag2 1_555 1_555
C5 N1 1_555 1_555
C10 C11 1_555 1_555
C14 N2 1_555 1_555
C18 C19 1_555 1_555
C23 C24 1_555 1_555
C23 N3 1_555 1_555
N2 S1 1_555 1_555
C1A N1A 1_555 1_555
C5A N1A 1_555 1_555
C10A C11A 1_555 1_555
C14A N2A 1_555 1_555
C18A C19A 1_555 1_555
C23A C24A 1_555 1_555
C23A N3A 1_555 1_555
N2A S1A 1_555 1_555
C5A_2 N1A_2 1_555 1_555
C10A_2 C11A_2 1_555 1_555
C14A_2 N2A_2 1_555 1_555
C18A_2 C19A_2 1_555 1_555
C22A_2 N3A_2 1_555 1_555
C23A_2 C24A_2 1_555 1_555
C23A_2 N3A_2 1_555 1_555
N2A_2 S1A_2 1_555 1_555
C5B N1B 1_555 1_555
C10B C11B 1_555 1_555
C14B N2B 1_555 1_555
C18B C19B 1_555 1_555
C22B N3B 1_555 1_555
C23B C24B 1_555 1_555
C23B N3B 1_555 1_555
N2B S1B 1_555 1_555

#END
