
#######################################################################
#
#                 Cambridge Crystallographic Data Centre
#                                CCDC 
#
#######################################################################
#
# If this CIF has been generated from an entry in the Cambridge 
# Structural Database, then it will include bibliographic, chemical, 
# crystal, experimental, refinement or atomic coordinate data resulting 
# from the CCDC's data processing and validation procedures.
#
#######################################################################

data_WITVUS
_symmetry_cell_setting           monoclinic
_symmetry_space_group_name_H-M   'P 21/c'
_symmetry_Int_Tables_number      14
_space_group_name_Hall           '-P 2ybc'
loop_
_symmetry_equiv_pos_site_id
_symmetry_equiv_pos_as_xyz
1 x,y,z
2 -x,1/2+y,1/2-z
3 -x,-y,-z
4 x,1/2-y,1/2+z
_cell_length_a                   15.146(3)
_cell_length_b                   13.695(3)
_cell_length_c                   6.9265(14)
_cell_angle_alpha                90
_cell_angle_beta                 91.28(3)
_cell_angle_gamma                90
_cell_volume                     1436.37
loop_
_atom_site_label
_atom_site_type_symbol
_atom_site_fract_x
_atom_site_fract_y
_atom_site_fract_z
Cd1 Cd 0.18805(5) 0.81041(5) 0.24596(10)
Cl1 Cl 0.0959(2) 0.6856(2) 0.0585(4)
O1 O 0.7535(5) 0.6957(5) 0.2940(13)
O2 O 0.6038(5) 0.9762(5) 0.1585(11)
O3 O 0.2886(5) 0.7773(6) -0.0426(11)
O4 O 0.3169(5) 0.6254(5) -0.1148(10)
N1 N 0.6947(5) 0.8493(6) 0.2540(10)
N2 N 0.8506(5) 1.0445(6) -0.1118(11)
C1 C 0.6926(6) 0.7480(8) 0.2487(12)
C2 C 0.6160(6) 0.8907(7) 0.1814(13)
C3 C 0.5566(7) 0.8063(6) 0.1385(12)
C4 C 0.4702(7) 0.8050(7) 0.0705(13)
H1 H 0.4390 0.8623 0.0449
C5 C 0.4325(6) 0.7141(7) 0.0427(12)
C6 C 0.4788(7) 0.6290(7) 0.0789(12)
H2 H 0.4514 0.5693 0.0555
C7 C 0.5655(6) 0.6305(7) 0.1496(13)
H3 H 0.5967 0.5734 0.1770
C8 C 0.6027(6) 0.7218(7) 0.1768(12)
C9 C 0.3397(7) 0.7045(7) -0.0418(13)
C10 C 0.7729(7) 0.9048(8) 0.3152(14)
H4 H 0.8085 0.8654 0.4036
H5 H 0.7546 0.9628 0.3839
C11 C 0.8103(6) 1.0180(7) 0.0486(14)
H6 H 0.7674 1.0596 0.0962
C12 C 0.8277(6) 0.9342(7) 0.1479(13)
C13 C 0.8938(7) 0.8738(8) 0.0803(16)
H7 H 0.9091 0.8170 0.1465
C14 C 0.9370(6) 0.8993(8) -0.0874(16)
H8 H 0.9809 0.8594 -0.1363
C15 C 0.9136(7) 0.9841(8) -0.1788(15)
H9 H 0.9420 1.0009 -0.2916
Cd1B Cd 0.81195(5) 1.18959(5) -0.24596(10)
Cd1C Cd 0.18805(5) 0.68959(5) -0.25404(10)
Cl1C Cl 0.0959(2) 0.8144(2) 0.5585(4)
O3C O 0.2886(5) 0.7227(6) 0.4574(11)
O4C O 0.3169(5) 0.8746(5) 0.3852(10)
N2B N 0.1494(5) 0.9555(6) 0.1118(11)
loop_
_geom_bond_atom_site_label_1
_geom_bond_atom_site_label_2
_geom_bond_site_symmetry_1
_geom_bond_site_symmetry_2
Cd1 Cl1 1_555 1_555
Cl1 Cd1C 1_555 1_555
O1 C1 1_555 1_555
O2 C2 1_555 1_555
O3 Cd1 1_555 1_555
O4 C9 1_555 1_555
N1 C1 1_555 1_555
N2 C11 1_555 1_555
C1 C8 1_555 1_555
C2 N1 1_555 1_555
C3 C2 1_555 1_555
C4 C3 1_555 1_555
H1 C4 1_555 1_555
C5 C4 1_555 1_555
C6 C5 1_555 1_555
H2 C6 1_555 1_555
C7 C6 1_555 1_555
H3 C7 1_555 1_555
C8 C3 1_555 1_555
C9 O3 1_555 1_555
C10 N1 1_555 1_555
H4 C10 1_555 1_555
H5 C10 1_555 1_555
C11 H6 1_555 1_555
C12 C10 1_555 1_555
C13 C12 1_555 1_555
H7 C13 1_555 1_555
C14 C13 1_555 1_555
H8 C14 1_555 1_555
C15 N2 1_555 1_555
H9 C15 1_555 1_555
Cd1B N2 1_555 1_555
Cd1C O3 1_555 1_555
Cl1C Cd1 1_555 1_555
O3C Cd1 1_555 1_555
O4C Cd1 1_555 1_555
N2B Cd1 1_555 1_555
O4 Cd1C 1_555 1_555
C5 C9 1_555 1_555
C7 C8 1_555 1_555
C11 C12 1_555 1_555
C14 C15 1_555 1_555

#END
