
#######################################################################
#
#                 Cambridge Crystallographic Data Centre
#                                CCDC 
#
#######################################################################
#
# If this CIF has been generated from an entry in the Cambridge 
# Structural Database, then it will include bibliographic, chemical, 
# crystal, experimental, refinement or atomic coordinate data resulting 
# from the CCDC's data processing and validation procedures.
#
#######################################################################

data_WITWIH
_symmetry_cell_setting           monoclinic
_symmetry_space_group_name_H-M   'C 2/c'
_symmetry_Int_Tables_number      15
_space_group_name_Hall           '-C 2yn'
loop_
_symmetry_equiv_pos_site_id
_symmetry_equiv_pos_as_xyz
1 x,y,z
2 -x,y,1/2-z
3 1/2+x,1/2+y,z
4 1/2-x,1/2+y,1/2-z
5 -x,-y,-z
6 x,-y,1/2+z
7 1/2-x,1/2-y,-z
8 1/2+x,1/2-y,1/2+z
_cell_length_a                   22.3598(7)
_cell_length_b                   15.1429(4)
_cell_length_c                   23.0395(7)
_cell_angle_alpha                90
_cell_angle_beta                 110.657(4)
_cell_angle_gamma                90
_cell_volume                     7299.46
loop_
_atom_site_label
_atom_site_type_symbol
_atom_site_fract_x
_atom_site_fract_y
_atom_site_fract_z
O9 O 0.3030(4) 0.8116(6) 0.0683(4)
C31 C 0.2595(4) 0.8818(6) 0.0586(4)
H19 H 0.2710 0.9286 0.0357
H20 H 0.2168 0.8616 0.0343
C32 C 0.2601(8) 0.9145(12) 0.1157(7)
H21 H 0.2202 0.9016 0.1217
H22 H 0.2672 0.9778 0.1184
C33 C 0.3152(7) 0.8662(10) 0.1627(6)
H23 H 0.3510 0.9059 0.1808
H24 H 0.3024 0.8424 0.1956
C34 C 0.3316(5) 0.8009(7) 0.1321(4)
H25 H 0.3186 0.7448 0.1442
H26 H 0.3777 0.8001 0.1433
Zn1 Zn 0.287526(16) 0.33316(2) 0.021943(14)
N1 N 0.26364(13) 0.54976(19) 0.15607(12)
N2 N 0.33879(12) 0.44574(18) 0.05440(11)
N3 N 0.55355(15) -0.1309(2) 0.08593(15)
N4 N 0.57369(17) -0.3631(2) 0.12455(18)
O1 O 0.19836(15) 0.65345(19) 0.09022(11)
O2 O 0.31191(12) 0.46163(16) 0.24237(11)
O3 O 0.28252(12) 0.65787(16) 0.43212(10)
O4 O 0.22453(12) 0.78028(16) 0.40180(10)
O5 O 0.64043(13) -0.0387(2) 0.13001(18)
O6 O 0.45055(15) -0.18470(19) 0.04212(15)
O7 O 0.30490(11) 0.12048(17) 0.00881(11)
O8 O 0.36122(11) 0.24498(16) 0.03742(11)
C1 C 0.22590(17) 0.6254(2) 0.14216(14)
C2 C 0.28275(15) 0.5276(2) 0.21919(14)
C3 C 0.25989(14) 0.6016(2) 0.24890(13)
C4 C 0.26921(15) 0.6157(2) 0.31064(13)
H1 H 0.2919 0.5758 0.3412
C5 C 0.24303(15) 0.6925(2) 0.32527(13)
C6 C 0.20911(18) 0.7516(2) 0.27890(15)
H2 H 0.1921 0.8024 0.2896
C7 C 0.2001(2) 0.7359(3) 0.21684(15)
H3 H 0.1774 0.7752 0.1859
C8 C 0.22632(17) 0.6598(2) 0.20312(14)
C9 C 0.25066(15) 0.7118(2) 0.39196(13)
C10 C 0.26893(16) 0.4889(2) 0.10947(15)
H4 H 0.2300 0.4916 0.0734
H5 H 0.2730 0.4293 0.1258
C11 C 0.32552(15) 0.5084(2) 0.08962(13)
C12 C 0.36056(17) 0.5862(2) 0.10504(16)
H6 H 0.3504 0.6288 0.1291
C13 C 0.41073(18) 0.5995(3) 0.08411(19)
H7 H 0.4344 0.6514 0.0934
C14 C 0.42522(19) 0.5346(3) 0.0492(2)
H8 H 0.4595 0.5415 0.0356
C15 C 0.38798(17) 0.4588(3) 0.03475(17)
H9 H 0.3974 0.4156 0.0106
C16 C 0.58355(18) -0.0502(3) 0.1058(2)
C17 C 0.48690(18) -0.1233(3) 0.06129(17)
C18 C 0.47288(16) -0.0271(2) 0.06391(16)
C19 C 0.41544(16) 0.0175(2) 0.04405(15)
H10 H 0.3769 -0.0122 0.0261
C20 C 0.41735(15) 0.1095(2) 0.05196(14)
C21 C 0.47586(17) 0.1528(2) 0.07813(18)
H11 H 0.4764 0.2138 0.0830
C22 C 0.53323(18) 0.1071(3) 0.0970(2)
H12 H 0.5721 0.1364 0.1138
C23 C 0.53066(16) 0.0166(2) 0.09019(18)
C24 C 0.35619(15) 0.1623(2) 0.03113(14)
C25 C 0.5873(2) -0.2139(3) 0.0903(2)
H13 H 0.6324 -0.2018 0.1002
H14 H 0.5717 -0.2430 0.0502
C26 C 0.57937(17) -0.2756(3) 0.13846(18)
C27 C 0.5792(2) -0.2432(3) 0.19301(19)
H15 H 0.5827 -0.1829 0.2011
C28 C 0.5737(3) -0.3027(4) 0.2365(2)
H16 H 0.5737 -0.2819 0.2745
C29 C 0.5683(2) -0.3898(4) 0.2248(2)
H17 H 0.5645 -0.4294 0.2542
C30 C 0.5685(2) -0.4189(3) 0.1688(2)
H18 H 0.5649 -0.4791 0.1606
Zn1C Zn 0.212474(16) 0.83316(2) 0.478057(14)
Zn1E Zn 0.287526(16) 0.66684(2) 0.521943(14)
Zn1F Zn 0.212474(16) 0.16684(2) -0.021943(14)
O3E O 0.28252(12) 0.34213(16) -0.06788(10)
O4C O 0.27547(12) 0.28028(16) 0.09820(10)
O7F O 0.19510(11) 0.37952(17) -0.00881(11)
loop_
_geom_bond_atom_site_label_1
_geom_bond_atom_site_label_2
_geom_bond_site_symmetry_1
_geom_bond_site_symmetry_2
Zn1 N2 1_555 1_555
N1 C1 1_555 1_555
N2 C11 1_555 1_555
N3 C16 1_555 1_555
N4 C26 1_555 1_555
O1 C1 1_555 1_555
O2 C2 1_555 1_555
O3 C9 1_555 1_555
O4 C9 1_555 1_555
O5 C16 1_555 1_555
O6 C17 1_555 1_555
O7 C24 1_555 1_555
O8 Zn1 1_555 1_555
C1 C8 1_555 1_555
C2 N1 1_555 1_555
C3 C2 1_555 1_555
C4 C3 1_555 1_555
H1 C4 1_555 1_555
C5 C4 1_555 1_555
C6 C5 1_555 1_555
H2 C6 1_555 1_555
C7 C6 1_555 1_555
H3 C7 1_555 1_555
C8 C3 1_555 1_555
C9 C5 1_555 1_555
C10 N1 1_555 1_555
H4 C10 1_555 1_555
H5 C10 1_555 1_555
C11 C10 1_555 1_555
C12 C11 1_555 1_555
H6 C12 1_555 1_555
C13 C12 1_555 1_555
H7 C13 1_555 1_555
C14 C13 1_555 1_555
H8 C14 1_555 1_555
C15 N2 1_555 1_555
H9 C15 1_555 1_555
C16 C23 1_555 1_555
C17 N3 1_555 1_555
C18 C17 1_555 1_555
C19 C18 1_555 1_555
H10 C19 1_555 1_555
C20 C19 1_555 1_555
C21 C20 1_555 1_555
H11 C21 1_555 1_555
C22 C21 1_555 1_555
H12 C22 1_555 1_555
C23 C18 1_555 1_555
C24 O8 1_555 1_555
C25 N3 1_555 1_555
H13 C25 1_555 1_555
H14 C25 1_555 1_555
C26 C25 1_555 1_555
C27 C26 1_555 1_555
H15 C27 1_555 1_555
C28 C27 1_555 1_555
H16 C28 1_555 1_555
C29 C28 1_555 1_555
H17 C29 1_555 1_555
C30 N4 1_555 1_555
H18 C30 1_555 1_555
O9 C31 1_555 1_555
C31 H19 1_555 1_555
H20 C31 1_555 1_555
C32 C31 1_555 1_555
H21 C32 1_555 1_555
H22 C32 1_555 1_555
C33 C32 1_555 1_555
H23 C33 1_555 1_555
H24 C33 1_555 1_555
C34 O9 1_555 1_555
H25 C34 1_555 1_555
H26 C34 1_555 1_555
Zn1C O4 1_555 1_555
Zn1E O3 1_555 1_555
Zn1F O7 1_555 1_555
O3E Zn1 1_555 1_555
O4C Zn1 1_555 1_555
O7F Zn1 1_555 1_555
C7 C8 1_555 1_555
C14 C15 1_555 1_555
C20 C24 1_555 1_555
C22 C23 1_555 1_555
C29 C30 1_555 1_555
C33 C34 1_555 1_555

#END
