
#######################################################################
#
#                 Cambridge Crystallographic Data Centre
#                                CCDC 
#
#######################################################################
#
# If this CIF has been generated from an entry in the Cambridge 
# Structural Database, then it will include bibliographic, chemical, 
# crystal, experimental, refinement or atomic coordinate data resulting 
# from the CCDC's data processing and validation procedures.
#
#######################################################################

data_WITYIH
_symmetry_cell_setting           monoclinic
_symmetry_space_group_name_H-M   'P 21/c'
_symmetry_Int_Tables_number      14
_space_group_name_Hall           '-P 2ybc'
loop_
_symmetry_equiv_pos_site_id
_symmetry_equiv_pos_as_xyz
1 x,y,z
2 -x,1/2+y,1/2-z
3 -x,-y,-z
4 x,1/2-y,1/2+z
_cell_length_a                   13.261(2)
_cell_length_b                   10.845(2)
_cell_length_c                   11.248(2)
_cell_angle_alpha                90
_cell_angle_beta                 110.51(1)
_cell_angle_gamma                90
_cell_volume                     1515.1
loop_
_atom_site_label
_atom_site_type_symbol
_atom_site_fract_x
_atom_site_fract_y
_atom_site_fract_z
Cu1 Cu 0.5000 0.0000 0.0000
O1 O 0.3630(3) -0.0709(3) -0.0658(3)
C1 C 0.2720(4) -0.0382(5) -0.0560(5)
C2 C 0.1808(5) -0.1187(5) -0.1413(6)
O2 O 0.1323(4) -0.0961(5) -0.2490(4)
O3 O 0.1681(4) -0.2168(4) -0.0839(5)
C3 C 0.0841(7) -0.3022(7) -0.1559(10)
H1 H 0.0140 -0.2714 -0.1611
H2 H 0.0847 -0.3111 -0.2415
C4 C 0.1023(10) -0.4056(9) -0.0993(14)
H3 H 0.0472 -0.4632 -0.1444
H4 H 0.1024 -0.3957 -0.0145
H5 H 0.1711 -0.4361 -0.0963
C5 C 0.2597(4) 0.0569(5) 0.0152(4)
Br1 Br 0.11306(6) 0.07415(11) -0.00135(9)
C6 C 0.3427(4) 0.1286(5) 0.0950(4)
C7 C 0.3196(4) 0.2228(6) 0.1819(4)
C8 C 0.2808(5) 0.1705(7) 0.2815(5)
H6 H 0.2679 0.2364 0.3314
H7 H 0.3344 0.1160 0.3355
H8 H 0.2152 0.1257 0.2415
C9 C 0.2484(6) 0.3337(6) 0.1133(6)
H9 H 0.2740 0.3651 0.0493
H10 H 0.2520 0.3974 0.1739
H11 H 0.1751 0.3068 0.0744
N1 N 0.4313(4) 0.2669(4) 0.2438(3)
O4 O 0.4555(4) 0.3489(4) 0.3242(4)
C10 C 0.5088(4) 0.2100(5) 0.1942(4)
C11 C 0.5948(5) 0.1452(6) 0.3037(5)
H12 H 0.6472 0.1086 0.2735
H13 H 0.5618 0.0821 0.3377
H14 H 0.6295 0.2041 0.3690
C12 C 0.5539(5) 0.3107(5) 0.1321(5)
H15 H 0.6046 0.2751 0.0985
H16 H 0.5893 0.3720 0.1943
H17 H 0.4961 0.3482 0.0646
N2 N 0.4418(3) 0.1183(4) 0.1027(3)
O1B O 0.6370(3) 0.0709(3) 0.0658(3)
C1B C 0.7280(4) 0.0382(5) 0.0560(5)
C2B C 0.8192(5) 0.1187(5) 0.1413(6)
O2B O 0.8677(4) 0.0961(5) 0.2490(4)
O3B O 0.8319(4) 0.2168(4) 0.0839(5)
C3B C 0.9159(7) 0.3022(7) 0.1559(10)
H1B H 0.9860 0.2714 0.1611
H2B H 0.9153 0.3111 0.2415
C4B C 0.8977(10) 0.4056(9) 0.0993(14)
H3B H 0.9528 0.4632 0.1444
H4B H 0.8976 0.3957 0.0145
H5B H 0.8289 0.4361 0.0963
C5B C 0.7403(4) -0.0569(5) -0.0152(4)
Br1B Br 0.88694(6) -0.07415(11) 0.00135(9)
C6B C 0.6573(4) -0.1286(5) -0.0950(4)
C7B C 0.6804(4) -0.2228(6) -0.1819(4)
C8B C 0.7192(5) -0.1705(7) -0.2815(5)
H6B H 0.7321 -0.2364 -0.3314
H7B H 0.6656 -0.1160 -0.3355
H8B H 0.7848 -0.1257 -0.2415
C9B C 0.7516(6) -0.3337(6) -0.1133(6)
H9B H 0.7260 -0.3651 -0.0493
H10B H 0.7480 -0.3974 -0.1739
H11B H 0.8249 -0.3068 -0.0744
N1B N 0.5687(4) -0.2669(4) -0.2438(3)
O4B O 0.5445(4) -0.3489(4) -0.3242(4)
C10B C 0.4912(4) -0.2100(5) -0.1942(4)
C11B C 0.4052(5) -0.1452(6) -0.3037(5)
H12B H 0.3528 -0.1086 -0.2735
H13B H 0.4382 -0.0821 -0.3377
H14B H 0.3705 -0.2041 -0.3690
C12B C 0.4461(5) -0.3107(5) -0.1321(5)
H15B H 0.3954 -0.2751 -0.0985
H16B H 0.4107 -0.3720 -0.1943
H17B H 0.5039 -0.3482 -0.0646
N2B N 0.5582(3) -0.1183(4) -0.1027(3)
O4A O 0.5445(4) -0.1511(4) 0.1758(4)
O4C O 0.4555(4) 0.1511(4) -0.1758(4)
Cu1A Cu 0.5000 0.5000 0.5000
Cu1A_2 Cu 0.5000 -0.5000 -0.5000
loop_
_geom_bond_atom_site_label_1
_geom_bond_atom_site_label_2
_geom_bond_site_symmetry_1
_geom_bond_site_symmetry_2
Cu1 O1 1_555 1_555
O1 C1 1_555 1_555
C1 C2 1_555 1_555
C2 O2 1_555 1_555
O3 C2 1_555 1_555
C3 O3 1_555 1_555
H1 C3 1_555 1_555
H2 C3 1_555 1_555
C4 C3 1_555 1_555
H3 C4 1_555 1_555
H4 C4 1_555 1_555
H5 C4 1_555 1_555
C5 C1 1_555 1_555
Br1 C5 1_555 1_555
C6 C5 1_555 1_555
C7 C6 1_555 1_555
C8 C7 1_555 1_555
H6 C8 1_555 1_555
H7 C8 1_555 1_555
H8 C8 1_555 1_555
C9 C7 1_555 1_555
H9 C9 1_555 1_555
H10 C9 1_555 1_555
H11 C9 1_555 1_555
N1 C7 1_555 1_555
O4 N1 1_555 1_555
C10 N1 1_555 1_555
C11 C10 1_555 1_555
H12 C11 1_555 1_555
H13 C11 1_555 1_555
H14 C11 1_555 1_555
C12 C10 1_555 1_555
H15 C12 1_555 1_555
H16 C12 1_555 1_555
H17 C12 1_555 1_555
N2 Cu1 1_555 1_555
O1B Cu1 1_555 1_555
C1B O1B 1_555 1_555
C2B C1B 1_555 1_555
O2B C2B 1_555 1_555
O3B C2B 1_555 1_555
C3B O3B 1_555 1_555
H1B C3B 1_555 1_555
H2B C3B 1_555 1_555
C4B C3B 1_555 1_555
H3B C4B 1_555 1_555
H4B C4B 1_555 1_555
H5B C4B 1_555 1_555
C5B C1B 1_555 1_555
Br1B C5B 1_555 1_555
C6B C5B 1_555 1_555
C7B C6B 1_555 1_555
C8B C7B 1_555 1_555
H6B C8B 1_555 1_555
H7B C8B 1_555 1_555
H8B C8B 1_555 1_555
C9B C7B 1_555 1_555
H9B C9B 1_555 1_555
H10B C9B 1_555 1_555
H11B C9B 1_555 1_555
N1B C7B 1_555 1_555
O4B N1B 1_555 1_555
C10B N1B 1_555 1_555
C11B C10B 1_555 1_555
H12B C11B 1_555 1_555
H13B C11B 1_555 1_555
H14B C11B 1_555 1_555
C12B C10B 1_555 1_555
H15B C12B 1_555 1_555
H16B C12B 1_555 1_555
H17B C12B 1_555 1_555
N2B Cu1 1_555 1_555
O4A Cu1 1_555 1_555
O4C Cu1 1_555 1_555
Cu1A O4 1_555 1_555
Cu1A_2 O4B 1_555 1_555
C6 N2 1_555 1_555
C10 N2 1_555 1_555
C6B N2B 1_555 1_555
C10B N2B 1_555 1_555

#END
