
#######################################################################
#
#                 Cambridge Crystallographic Data Centre
#                                CCDC 
#
#######################################################################
#
# If this CIF has been generated from an entry in the Cambridge 
# Structural Database, then it will include bibliographic, chemical, 
# crystal, experimental, refinement or atomic coordinate data resulting 
# from the CCDC's data processing and validation procedures.
#
#######################################################################

data_WITYED
_symmetry_cell_setting           monoclinic
_symmetry_space_group_name_H-M   'P 21/c'
_symmetry_Int_Tables_number      14
_space_group_name_Hall           '-P 2ybc'
loop_
_symmetry_equiv_pos_site_id
_symmetry_equiv_pos_as_xyz
1 x,y,z
2 -x,1/2+y,1/2-z
3 -x,-y,-z
4 x,1/2-y,1/2+z
_cell_length_a                   12.530(3)
_cell_length_b                   9.978(2)
_cell_length_c                   11.389(2)
_cell_angle_alpha                90
_cell_angle_beta                 115.44(3)
_cell_angle_gamma                90
_cell_volume                     1285.83
loop_
_atom_site_label
_atom_site_type_symbol
_atom_site_fract_x
_atom_site_fract_y
_atom_site_fract_z
Cu1 Cu 0.0000 0.0000 0.0000
O1 O 0.1370(3) 0.1107(3) 0.0574(3)
C1 C 0.2431(5) 0.0787(6) 0.0827(5)
C2 C 0.3339(6) 0.1847(8) 0.1607(8)
F1 F 0.2831(3) 0.2946(5) 0.1718(5)
F2 F 0.4029(4) 0.2200(5) 0.1053(5)
F3 F 0.4036(4) 0.1452(5) 0.2776(5)
C3 C 0.2776(5) -0.0354(6) 0.0464(6)
Cl1 Cl 0.42752(13) -0.0723(2) 0.10353(19)
N1 N 0.0827(4) -0.1300(4) -0.0718(4)
C4 C 0.1961(5) -0.1311(6) -0.0422(5)
C5 C 0.2327(5) -0.2328(6) -0.1168(6)
C6 C 0.3074(7) -0.3486(8) -0.0360(8)
H1 H 0.312(5) -0.409(6) -0.100(6)
H2 H 0.395(7) -0.330(7) 0.009(7)
H3 H 0.283(8) -0.376(9) 0.034(9)
C7 C 0.2857(8) -0.1673(10) -0.2023(9)
H4 H 0.359(5) -0.133(6) -0.142(6)
H5 H 0.289(7) -0.236(8) -0.266(9)
H6 H 0.239(7) -0.094(9) -0.254(8)
N2 N 0.1147(4) -0.2821(5) -0.2026(4)
O2 O 0.0994(3) -0.3728(4) -0.2854(4)
C8 C 0.0226(5) -0.2374(5) -0.1654(5)
C9 C -0.0817(7) -0.1890(9) -0.2852(7)
H7 H -0.064(5) -0.126(7) -0.327(6)
H8 H -0.140(6) -0.166(6) -0.274(6)
H9 H -0.108(6) -0.265(7) -0.342(7)
C10 C -0.0070(7) -0.3541(7) -0.0986(8)
H10 H -0.055(5) -0.422(6) -0.166(6)
H11 H -0.056(4) -0.332(5) -0.072(4)
H12 H 0.065(5) -0.402(6) -0.022(6)
O1B O -0.1370(3) -0.1107(3) -0.0574(3)
C1B C -0.2431(5) -0.0787(6) -0.0827(5)
C2B C -0.3339(6) -0.1847(8) -0.1607(8)
F1B F -0.2831(3) -0.2946(5) -0.1718(5)
F2B F -0.4029(4) -0.2200(5) -0.1053(5)
F3B F -0.4036(4) -0.1452(5) -0.2776(5)
C3B C -0.2776(5) 0.0354(6) -0.0464(6)
Cl1B Cl -0.42752(13) 0.0723(2) -0.10353(19)
N1B N -0.0827(4) 0.1300(4) 0.0718(4)
C4B C -0.1961(5) 0.1311(6) 0.0422(5)
C5B C -0.2327(5) 0.2328(6) 0.1168(6)
C6B C -0.3074(7) 0.3486(8) 0.0360(8)
H1B H -0.312(5) 0.409(6) 0.100(6)
H2B H -0.395(7) 0.330(7) -0.009(7)
H3B H -0.283(8) 0.376(9) -0.034(9)
C7B C -0.2857(8) 0.1673(10) 0.2023(9)
H4B H -0.359(5) 0.133(6) 0.142(6)
H5B H -0.289(7) 0.236(8) 0.266(9)
H6B H -0.239(7) 0.094(9) 0.254(8)
N2B N -0.1147(4) 0.2821(5) 0.2026(4)
O2B O -0.0994(3) 0.3728(4) 0.2854(4)
C8B C -0.0226(5) 0.2374(5) 0.1654(5)
C9B C 0.0817(7) 0.1890(9) 0.2852(7)
H7B H 0.064(5) 0.126(7) 0.327(6)
H8B H 0.140(6) 0.166(6) 0.274(6)
H9B H 0.108(6) 0.265(7) 0.342(7)
C10B C 0.0070(7) 0.3541(7) 0.0986(8)
H10B H 0.055(5) 0.422(6) 0.166(6)
H11B H 0.056(4) 0.332(5) 0.072(4)
H12B H -0.065(5) 0.402(6) 0.022(6)
O2A O -0.0994(3) 0.1272(4) -0.2146(4)
O2C O 0.0994(3) -0.1272(4) 0.2146(4)
Cu1A Cu 0.0000 -0.5000 -0.5000
Cu1A_2 Cu 0.0000 0.5000 0.5000
loop_
_geom_bond_atom_site_label_1
_geom_bond_atom_site_label_2
_geom_bond_site_symmetry_1
_geom_bond_site_symmetry_2
Cu1 O1 1_555 1_555
O1 C1 1_555 1_555
C1 C2 1_555 1_555
C2 F1 1_555 1_555
F2 C2 1_555 1_555
F3 C2 1_555 1_555
C3 C1 1_555 1_555
Cl1 C3 1_555 1_555
N1 Cu1 1_555 1_555
C4 C3 1_555 1_555
C5 C4 1_555 1_555
C6 C5 1_555 1_555
H1 C6 1_555 1_555
H2 C6 1_555 1_555
H3 C6 1_555 1_555
C7 C5 1_555 1_555
H4 C7 1_555 1_555
H5 C7 1_555 1_555
H6 C7 1_555 1_555
N2 C5 1_555 1_555
O2 N2 1_555 1_555
C8 N1 1_555 1_555
C9 C8 1_555 1_555
H7 C9 1_555 1_555
H8 C9 1_555 1_555
H9 C9 1_555 1_555
C10 C8 1_555 1_555
H10 C10 1_555 1_555
H11 C10 1_555 1_555
H12 C10 1_555 1_555
O1B Cu1 1_555 1_555
C1B O1B 1_555 1_555
C2B C1B 1_555 1_555
F1B C2B 1_555 1_555
F2B C2B 1_555 1_555
F3B C2B 1_555 1_555
C3B C1B 1_555 1_555
Cl1B C3B 1_555 1_555
N1B Cu1 1_555 1_555
C4B C3B 1_555 1_555
C5B C4B 1_555 1_555
C6B C5B 1_555 1_555
H1B C6B 1_555 1_555
H2B C6B 1_555 1_555
H3B C6B 1_555 1_555
C7B C5B 1_555 1_555
H4B C7B 1_555 1_555
H5B C7B 1_555 1_555
H6B C7B 1_555 1_555
N2B C5B 1_555 1_555
O2B N2B 1_555 1_555
C8B N1B 1_555 1_555
C9B C8B 1_555 1_555
H7B C9B 1_555 1_555
H8B C9B 1_555 1_555
H9B C9B 1_555 1_555
C10B C8B 1_555 1_555
H10B C10B 1_555 1_555
H11B C10B 1_555 1_555
H12B C10B 1_555 1_555
O2A Cu1 1_555 1_555
O2C Cu1 1_555 1_555
Cu1A O2 1_555 1_555
Cu1A_2 O2B 1_555 1_555
N1 C4 1_555 1_555
N2 C8 1_555 1_555
N1B C4B 1_555 1_555
N2B C8B 1_555 1_555

#END
