
#######################################################################
#
#                 Cambridge Crystallographic Data Centre
#                                CCDC 
#
#######################################################################
#
# If this CIF has been generated from an entry in the Cambridge 
# Structural Database, then it will include bibliographic, chemical, 
# crystal, experimental, refinement or atomic coordinate data resulting 
# from the CCDC's data processing and validation procedures.
#
#######################################################################

data_WIVFAK
_symmetry_cell_setting           monoclinic
_symmetry_space_group_name_H-M   'C 2/c'
_symmetry_Int_Tables_number      15
_space_group_name_Hall           '-C 2yn'
loop_
_symmetry_equiv_pos_site_id
_symmetry_equiv_pos_as_xyz
1 x,y,z
2 -x,y,1/2-z
3 1/2+x,1/2+y,z
4 1/2-x,1/2+y,1/2-z
5 -x,-y,-z
6 x,-y,1/2+z
7 1/2-x,1/2-y,-z
8 1/2+x,1/2-y,1/2+z
_cell_length_a                   19.2567(15)
_cell_length_b                   18.6939(15)
_cell_length_c                   7.9020(6)
_cell_angle_alpha                90
_cell_angle_beta                 98.917(3)
_cell_angle_gamma                90
_cell_volume                     2810.2
loop_
_atom_site_label
_atom_site_type_symbol
_atom_site_fract_x
_atom_site_fract_y
_atom_site_fract_z
Zn1 Zn 0.0000 -0.19073(3) 0.2500
O1 O 0.40760(15) 0.00229(18) 0.8649(4)
O2 O 0.21997(15) 0.11966(14) 0.5689(4)
O3 O 0.07437(12) -0.12676(13) 0.3572(3)
O4 O 0.12864(13) -0.22817(13) 0.4421(3)
N1 N 0.32155(16) 0.07616(17) 0.7271(4)
N2 N 0.45915(14) 0.25280(16) 0.4273(3)
C1 C 0.35150(19) 0.0104(2) 0.7745(4)
C2 C 0.25582(18) 0.0698(2) 0.6249(4)
C3 C 0.24286(17) -0.00822(19) 0.6045(4)
C4 C 0.18549(17) -0.04446(19) 0.5188(4)
H1 H 0.1471 -0.0200 0.4599
C5 C 0.18727(16) -0.11899(19) 0.5236(4)
C6 C 0.24570(17) -0.1546(2) 0.6109(4)
H2 H 0.2463 -0.2043 0.6114
C7 C 0.30311(17) -0.1176(2) 0.6973(4)
H3 H 0.3419 -0.1416 0.7557
C8 C 0.30041(17) -0.0443(2) 0.6930(4)
C9 C 0.12622(17) -0.16287(19) 0.4351(4)
C10 C 0.3514(2) 0.1447(2) 0.7871(5)
H4 H 0.3841 0.1373 0.8921
H5 H 0.3141 0.1756 0.8136
C11 C 0.4103(2) 0.2859(2) 0.5014(6)
H6 H 0.3997 0.3335 0.4739
C12 C 0.3750(2) 0.2517(2) 0.6178(5)
H7 H 0.3418 0.2765 0.6686
C13 C 0.38913(18) 0.1815(2) 0.6584(4)
C14 C 0.43951(19) 0.1470(2) 0.5807(4)
H8 H 0.4505 0.0993 0.6046
C15 C 0.47304(17) 0.18489(19) 0.4670(4)
H9 H 0.5071 0.1616 0.4157
O1A O -0.40760(15) 0.00229(18) -0.3649(4)
O2A O -0.21997(15) 0.11966(14) -0.0689(4)
O3A O -0.07437(12) -0.12676(13) 0.1428(3)
O4A O -0.12864(13) -0.22817(13) 0.0579(3)
N1A N -0.32155(16) 0.07616(17) -0.2271(4)
N2A N -0.45915(14) 0.25280(16) 0.0727(3)
C1A C -0.35150(19) 0.0104(2) -0.2745(4)
C2A C -0.25582(18) 0.0698(2) -0.1249(4)
C3A C -0.24286(17) -0.00822(19) -0.1045(4)
C4A C -0.18549(17) -0.04446(19) -0.0188(4)
H1A H -0.1471 -0.0200 0.0401
C5A C -0.18727(16) -0.11899(19) -0.0236(4)
C6A C -0.24570(17) -0.1546(2) -0.1109(4)
H2A H -0.2463 -0.2043 -0.1114
C7A C -0.30311(17) -0.1176(2) -0.1973(4)
H3A H -0.3419 -0.1416 -0.2557
C8A C -0.30041(17) -0.0443(2) -0.1930(4)
C9A C -0.12622(17) -0.16287(19) 0.0649(4)
C10A C -0.3514(2) 0.1447(2) -0.2871(5)
H4A H -0.3841 0.1373 -0.3921
H5A H -0.3141 0.1756 -0.3136
C11A C -0.4103(2) 0.2859(2) -0.0014(6)
H6A H -0.3997 0.3335 0.0261
C12A C -0.3750(2) 0.2517(2) -0.1178(5)
H7A H -0.3418 0.2765 -0.1686
C13A C -0.38913(18) 0.1815(2) -0.1584(4)
C14A C -0.43951(19) 0.1470(2) -0.0807(4)
H8A H -0.4505 0.0993 -0.1046
C15A C -0.47304(17) 0.18489(19) 0.0330(4)
H9A H -0.5071 0.1616 0.0843
Zn1B Zn -0.5000 0.30927(3) 0.2500
Zn1B_2 Zn 0.5000 0.30927(3) 0.2500
N2B N -0.04085(14) -0.24720(16) 0.4273(3)
N2C N 0.04085(14) -0.24720(16) 0.0727(3)
O5 O 0.0146(11) 0.0352(11) 0.426(3)
loop_
_geom_bond_atom_site_label_1
_geom_bond_atom_site_label_2
_geom_bond_site_symmetry_1
_geom_bond_site_symmetry_2
Zn1 O3 1_555 1_555
O1 C1 1_555 1_555
O2 C2 1_555 1_555
O3 C9 1_555 1_555
O4 C9 1_555 1_555
N1 C1 1_555 1_555
N2 C11 1_555 1_555
C1 C8 1_555 1_555
C2 N1 1_555 1_555
C3 C2 1_555 1_555
C4 C3 1_555 1_555
H1 C4 1_555 1_555
C5 C4 1_555 1_555
C6 C5 1_555 1_555
H2 C6 1_555 1_555
C7 C6 1_555 1_555
H3 C7 1_555 1_555
C8 C3 1_555 1_555
C9 C5 1_555 1_555
C10 N1 1_555 1_555
H4 C10 1_555 1_555
H5 C10 1_555 1_555
C11 H6 1_555 1_555
C12 C11 1_555 1_555
H7 C12 1_555 1_555
C13 C10 1_555 1_555
C14 C13 1_555 1_555
H8 C14 1_555 1_555
C15 N2 1_555 1_555
H9 C15 1_555 1_555
O1A C1A 1_555 1_555
O2A C2A 1_555 1_555
O3A Zn1 1_555 1_555
O4A C9A 1_555 1_555
N1A C1A 1_555 1_555
N2A C11A 1_555 1_555
C1A C8A 1_555 1_555
C2A N1A 1_555 1_555
C3A C2A 1_555 1_555
C4A C3A 1_555 1_555
H1A C4A 1_555 1_555
C5A C4A 1_555 1_555
C6A C5A 1_555 1_555
H2A C6A 1_555 1_555
C7A C6A 1_555 1_555
H3A C7A 1_555 1_555
C8A C3A 1_555 1_555
C9A O3A 1_555 1_555
C10A N1A 1_555 1_555
H4A C10A 1_555 1_555
H5A C10A 1_555 1_555
C11A H6A 1_555 1_555
C12A C11A 1_555 1_555
H7A C12A 1_555 1_555
C13A C10A 1_555 1_555
C14A C13A 1_555 1_555
H8A C14A 1_555 1_555
C15A N2A 1_555 1_555
H9A C15A 1_555 1_555
Zn1B N2A 1_555 1_555
Zn1B_2 N2 1_555 1_555
N2B Zn1 1_555 1_555
N2C Zn1 1_555 1_555
C7 C8 1_555 1_555
C12 C13 1_555 1_555
C14 C15 1_555 1_555
C5A C9A 1_555 1_555
C7A C8A 1_555 1_555
C12A C13A 1_555 1_555
C14A C15A 1_555 1_555

#END
