
#######################################################################
#
#                 Cambridge Crystallographic Data Centre
#                                CCDC 
#
#######################################################################
#
# If this CIF has been generated from an entry in the Cambridge 
# Structural Database, then it will include bibliographic, chemical, 
# crystal, experimental, refinement or atomic coordinate data resulting 
# from the CCDC's data processing and validation procedures.
#
#######################################################################

data_WIVFUD
_symmetry_cell_setting           monoclinic
_symmetry_space_group_name_H-M   'P 21/c'
_symmetry_Int_Tables_number      14
_space_group_name_Hall           '-P 2ybc'
loop_
_symmetry_equiv_pos_site_id
_symmetry_equiv_pos_as_xyz
1 x,y,z
2 -x,1/2+y,1/2-z
3 -x,-y,-z
4 x,1/2-y,1/2+z
_cell_length_a                   8.6373(7)
_cell_length_b                   19.7418(14)
_cell_length_c                   8.6117(7)
_cell_angle_alpha                90
_cell_angle_beta                 101.893(2)
_cell_angle_gamma                90
_cell_volume                     1436.91
loop_
_atom_site_label
_atom_site_type_symbol
_atom_site_fract_x
_atom_site_fract_y
_atom_site_fract_z
Cd1 Cd 0.203912(19) 0.463432(9) 0.08388(2)
N1 N -0.0138(2) 0.40252(10) 0.4852(2)
N2 N 0.1340(2) 0.43426(11) 0.3182(2)
N3 N -0.6294(2) 0.23160(11) 0.4251(3)
N4 N -0.7387(2) 0.14288(11) 0.5126(3)
N5 N 0.4491(3) 0.49688(15) 0.2414(3)
N6 N 0.5610(2) 0.49484(11) 0.1814(2)
N7 N 0.6755(3) 0.49180(13) 0.1285(3)
N8 N 0.0709(2) 0.56409(11) 0.0618(3)
N9 N 0.1507(3) 0.61399(11) 0.0640(2)
N10 N 0.2237(3) 0.66268(13) 0.0649(3)
C1 C -0.1486(3) 0.37639(14) 0.5474(3)
H1 H -0.1984 0.4143 0.5944
H2 H -0.1094 0.3432 0.6327
C2 C -0.2713(3) 0.34284(14) 0.4211(3)
H3 H -0.2193 0.3090 0.3640
H4 H -0.3216 0.3773 0.3433
C3 C -0.3977(3) 0.30797(14) 0.4923(3)
H5 H -0.3478 0.2741 0.5718
H6 H -0.4525 0.3418 0.5466
C4 C -0.5158(3) 0.27341(14) 0.3629(3)
H7 H -0.5742 0.3082 0.2911
H8 H -0.4583 0.2445 0.2997
C5 C -0.0057(3) 0.41084(13) 0.3318(3)
H9 H -0.0897 0.4011 0.2447
C6 C 0.2189(3) 0.44239(13) 0.4713(3)
H10 H 0.3244 0.4588 0.4999
C7 C 0.1278(3) 0.42322(14) 0.5744(3)
H11 H 0.1569 0.4240 0.6869
C8 C -0.6203(3) 0.16468(13) 0.4505(3)
H12 H -0.5390 0.1365 0.4269
C9 C -0.8277(3) 0.19956(14) 0.5273(3)
H13 H -0.9216 0.1999 0.5685
C10 C -0.7611(3) 0.25471(14) 0.4740(3)
H14 H -0.7981 0.3001 0.4712
Cd1C Cd -0.796088(19) 0.036568(9) 0.58388(2)
Cd1B Cd 0.796088(19) 0.536568(9) -0.08388(2)
Cd1B_2 Cd -0.203912(19) 0.536568(9) -0.08388(2)
N4C N 0.2613(2) 0.35712(11) 0.0126(3)
N7B N 0.3245(3) 0.50820(13) -0.1285(3)
N8B N -0.0709(2) 0.43591(11) -0.0618(3)
loop_
_geom_bond_atom_site_label_1
_geom_bond_atom_site_label_2
_geom_bond_site_symmetry_1
_geom_bond_site_symmetry_2
Cd1 N2 1_555 1_555
N1 C1 1_555 1_555
N2 C5 1_555 1_555
N3 C4 1_555 1_555
N4 C8 1_555 1_555
N5 Cd1 1_555 1_555
N6 N5 1_555 1_555
N7 N6 1_555 1_555
N8 Cd1 1_555 1_555
N9 N8 1_555 1_555
N10 N9 1_555 1_555
C1 H1 1_555 1_555
H2 C1 1_555 1_555
C2 C1 1_555 1_555
H3 C2 1_555 1_555
H4 C2 1_555 1_555
C3 C2 1_555 1_555
H5 C3 1_555 1_555
H6 C3 1_555 1_555
C4 C3 1_555 1_555
H7 C4 1_555 1_555
H8 C4 1_555 1_555
C5 N1 1_555 1_555
H9 C5 1_555 1_555
C6 N2 1_555 1_555
H10 C6 1_555 1_555
C7 N1 1_555 1_555
H11 C7 1_555 1_555
C8 N3 1_555 1_555
H12 C8 1_555 1_555
C9 N4 1_555 1_555
H13 C9 1_555 1_555
C10 N3 1_555 1_555
H14 C10 1_555 1_555
Cd1C N4 1_555 1_555
Cd1B N7 1_555 1_555
Cd1B_2 N8 1_555 1_555
N4C Cd1 1_555 1_555
N7B Cd1 1_555 1_555
N8B Cd1 1_555 1_555
C6 C7 1_555 1_555
C9 C10 1_555 1_555
Cd1B_2 N8B 1_555 1_555

#END
