
#######################################################################
#
#                 Cambridge Crystallographic Data Centre
#                                CCDC 
#
#######################################################################
#
# If this CIF has been generated from an entry in the Cambridge 
# Structural Database, then it will include bibliographic, chemical, 
# crystal, experimental, refinement or atomic coordinate data resulting 
# from the CCDC's data processing and validation procedures.
#
#######################################################################

data_WIVFEO
_symmetry_cell_setting           monoclinic
_symmetry_space_group_name_H-M   'C 2/c'
_symmetry_Int_Tables_number      15
_space_group_name_Hall           '-C 2yn'
loop_
_symmetry_equiv_pos_site_id
_symmetry_equiv_pos_as_xyz
1 x,y,z
2 -x,y,1/2-z
3 1/2+x,1/2+y,z
4 1/2-x,1/2+y,1/2-z
5 -x,-y,-z
6 x,-y,1/2+z
7 1/2-x,1/2-y,-z
8 1/2+x,1/2-y,1/2+z
_cell_length_a                   23.536(5)
_cell_length_b                   11.244(2)
_cell_length_c                   8.8264(18)
_cell_angle_alpha                90
_cell_angle_beta                 107.59(3)
_cell_angle_gamma                90
_cell_volume                     2226.59
loop_
_atom_site_label
_atom_site_type_symbol
_atom_site_fract_x
_atom_site_fract_y
_atom_site_fract_z
Sm1 Sm 0.0000 0.449470(12) 0.2500
Cl1 Cl 0.0000 0.69216(8) 0.2500
O1 O 0.05981(7) 0.50532(16) 0.02458(18)
O2 O 0.10471(8) 0.42649(15) 0.2582(2)
O3 O -0.00138(7) 0.27253(14) 0.09675(18)
N1 N 0.24245(9) 0.4757(2) 0.3164(3)
N2 N 0.21137(9) 0.4038(2) 0.2022(2)
N3 N 0.22982(10) 0.2919(2) 0.2156(3)
N4 N 0.27646(9) 0.2891(2) 0.3463(3)
C1 C 0.38578(14) 0.5965(3) 0.7083(4)
C2 C 0.10499(10) 0.46029(19) 0.1236(3)
C3 C 0.16053(12) 0.4459(3) 0.0726(3)
H1 H 0.1525 0.3898 -0.0148
H2 H 0.1705 0.5217 0.0348
C4 C 0.28321(10) 0.4006(2) 0.4046(3)
C5 C 0.33139(11) 0.44162(19) 0.5438(3)
C6 C 0.37212(11) 0.3621(2) 0.6381(3)
H3 H 0.3672 0.2815 0.6142
N5 N 0.41810(10) 0.3959(2) 0.7619(3)
C7 C 0.42428(13) 0.5112(3) 0.7949(3)
H4 H 0.4561 0.5358 0.8805
C8 C 0.33892(13) 0.5612(2) 0.5799(4)
H5 H 0.3128 0.6171 0.5185
H6 H -0.0034(13) 0.278(2) -0.0010(14)
H7 H 0.0237(10) 0.2167(19) 0.132(3)
H8 H 0.3942(13) 0.6755(12) 0.736(3)
O1A O -0.05981(7) 0.50532(16) 0.47542(18)
O2A O -0.10471(8) 0.42649(15) 0.2418(2)
O3A O 0.00138(7) 0.27253(14) 0.40325(18)
N1A N -0.24245(9) 0.4757(2) 0.1836(3)
N2A N -0.21137(9) 0.4038(2) 0.2978(2)
N3A N -0.22982(10) 0.2919(2) 0.2844(3)
N4A N -0.27646(9) 0.2891(2) 0.1537(3)
C1A C -0.38578(14) 0.5965(3) -0.2083(4)
C2A C -0.10499(10) 0.46029(19) 0.3764(3)
C3A C -0.16053(12) 0.4459(3) 0.4274(3)
H1A H -0.1525 0.3898 0.5148
H2A H -0.1705 0.5217 0.4652
C4A C -0.28321(10) 0.4006(2) 0.0954(3)
C5A C -0.33139(11) 0.44162(19) -0.0438(3)
C6A C -0.37212(11) 0.3621(2) -0.1381(3)
H3A H -0.3672 0.2815 -0.1142
N5A N -0.41810(10) 0.3959(2) -0.2619(3)
C7A C -0.42428(13) 0.5112(3) -0.2949(3)
H4A H -0.4561 0.5358 -0.3805
C8A C -0.33892(13) 0.5612(2) -0.0799(4)
H5A H -0.3128 0.6171 -0.0185
H6A H 0.0034(13) 0.278(2) 0.5010(14)
H7A H -0.0237(10) 0.2167(19) 0.368(3)
H8A H -0.3942(13) 0.6755(12) -0.236(3)
Sm1D Sm 0.0000 0.550530(12) -0.2500
Sm1D_2 Sm 0.0000 0.550530(12) 0.7500
O1D O -0.05981(7) 0.49468(16) -0.02458(18)
O1E O 0.05981(7) 0.49468(16) 0.52458(18)
loop_
_geom_bond_atom_site_label_1
_geom_bond_atom_site_label_2
_geom_bond_site_symmetry_1
_geom_bond_site_symmetry_2
Sm1 Cl1 1_555 1_555
O1 Sm1 1_555 1_555
O2 Sm1 1_555 1_555
O3 Sm1 1_555 1_555
N1 N2 1_555 1_555
N2 N3 1_555 1_555
N3 N4 1_555 1_555
N4 C4 1_555 1_555
C1 C7 1_555 1_555
C2 O1 1_555 1_555
C3 N2 1_555 1_555
H1 C3 1_555 1_555
H2 C3 1_555 1_555
C4 N1 1_555 1_555
C5 C4 1_555 1_555
C6 C5 1_555 1_555
H3 C6 1_555 1_555
N5 C6 1_555 1_555
C7 N5 1_555 1_555
H4 C7 1_555 1_555
C8 C1 1_555 1_555
H5 C8 1_555 1_555
H6 O3 1_555 1_555
H7 O3 1_555 1_555
H8 C1 1_555 1_555
O1A Sm1 1_555 1_555
O2A Sm1 1_555 1_555
O3A Sm1 1_555 1_555
N1A N2A 1_555 1_555
N2A N3A 1_555 1_555
N3A N4A 1_555 1_555
N4A C4A 1_555 1_555
C1A C7A 1_555 1_555
C2A O1A 1_555 1_555
C3A N2A 1_555 1_555
H1A C3A 1_555 1_555
H2A C3A 1_555 1_555
C4A N1A 1_555 1_555
C5A C4A 1_555 1_555
C6A C5A 1_555 1_555
H3A C6A 1_555 1_555
N5A C6A 1_555 1_555
C7A N5A 1_555 1_555
H4A C7A 1_555 1_555
C8A C1A 1_555 1_555
H5A C8A 1_555 1_555
H6A O3A 1_555 1_555
H7A O3A 1_555 1_555
H8A C1A 1_555 1_555
Sm1D O1 1_555 1_555
Sm1D_2 O1A 1_555 1_555
O1D Sm1 1_555 1_555
O1E Sm1 1_555 1_555
O2 C2 1_555 1_555
C2 C3 1_555 1_555
C5 C8 1_555 1_555
O2A C2A 1_555 1_555
C2A C3A 1_555 1_555
C5A C8A 1_555 1_555
Sm1D O1D 1_555 1_555
Sm1D_2 O1E 1_555 1_555

#END
