
#######################################################################
#
#                 Cambridge Crystallographic Data Centre
#                                CCDC 
#
#######################################################################
#
# If this CIF has been generated from an entry in the Cambridge 
# Structural Database, then it will include bibliographic, chemical, 
# crystal, experimental, refinement or atomic coordinate data resulting 
# from the CCDC's data processing and validation procedures.
#
#######################################################################

data_WIVGAK
_symmetry_cell_setting           triclinic
_symmetry_space_group_name_H-M   'P -1'
_symmetry_Int_Tables_number      2
_space_group_name_Hall           '-P 1'
loop_
_symmetry_equiv_pos_site_id
_symmetry_equiv_pos_as_xyz
1 x,y,z
2 -x,-y,-z
_cell_length_a                   9.9577(7)
_cell_length_b                   22.6327(13)
_cell_length_c                   27.1552(17)
_cell_angle_alpha                72.219(3)
_cell_angle_beta                 89.388(4)
_cell_angle_gamma                85.908(4)
_cell_volume                     5812.36
loop_
_atom_site_label
_atom_site_type_symbol
_atom_site_fract_x
_atom_site_fract_y
_atom_site_fract_z
Cd1 Cd 0.53469(2) 0.655992(9) 0.334754(8)
Cd2 Cd 0.5000 0.0000 0.5000
Cd3 Cd 1.52866(2) 0.323912(9) 0.170674(8)
Cd4 Cd 1.5000 1.0000 0.0000
N1 N 0.6286(2) 0.45441(10) 0.35275(9)
N2 N 0.6223(2) 0.55543(10) 0.33956(10)
N3 N 0.4360(2) 0.20103(10) 0.49020(9)
N4 N 0.4290(2) 0.10079(11) 0.50144(9)
N5 N 0.7676(2) 0.76229(10) 0.19754(9)
N6 N 0.6472(2) 0.69942(10) 0.25710(9)
N7 N 1.2774(2) 0.91288(11) 0.14458(9)
N8 N 1.3954(2) 0.96938(11) 0.08050(9)
N9 N -0.1082(2) -0.28422(10) 0.40304(9)
N10 N -0.2769(2) -0.33018(10) 0.38169(9)
N11 N 0.4526(2) 0.85727(10) 0.32457(9)
N12 N 0.4549(2) 0.75733(10) 0.33358(9)
N13 N 0.2700(2) 0.56178(10) 0.46743(9)
N14 N 0.4114(2) 0.61590(11) 0.41128(9)
N15 N 0.1668(2) 0.61215(11) 0.26088(10)
N16 N 0.3450(2) 0.64752(11) 0.28646(10)
N17 N 0.7565(2) 0.10144(10) 0.36729(9)
N18 N 0.6209(2) 0.04269(10) 0.42326(9)
N19 N 1.2841(2) 0.23973(11) 0.31127(9)
N20 N 1.4180(2) 0.29250(11) 0.25078(9)
N21 N 0.1365(2) -0.04912(10) 0.42880(9)
N22 N 0.3079(2) -0.00573(11) 0.45180(9)
N23 N 1.4522(2) 0.52894(10) 0.14924(9)
N24 N 1.4525(2) 0.42814(10) 0.16243(9)
N25 N 1.6011(2) 0.79523(10) 0.02216(10)
N26 N 1.5836(2) 0.89595(11) 0.01187(9)
N27 N 0.6131(2) 1.11947(10) 0.19328(9)
N28 N 0.6060(2) 1.22080(11) 0.18003(9)
N29 N -0.0983(2) 0.38531(10) 0.22787(9)
N30 N -0.2732(2) 0.33977(10) 0.21042(9)
N31 N 1.7476(2) 0.42254(11) 0.02724(9)
N32 N 1.6314(2) 0.36091(11) 0.08916(9)
N33 N 1.1461(2) 0.27535(11) 0.10890(10)
N34 N 1.3301(2) 0.31182(11) 0.12944(9)
N35 N 0.8723(2) 0.05979(11) 0.06089(9)
N36 N 0.6956(2) 0.01809(11) 0.04029(9)
C1 C 0.5794(3) 0.39262(12) 0.36085(12)
H1 H 0.6450 0.3674 0.3466
H2 H 0.4930 0.3970 0.3419
C2 C 0.5591(3) 0.35943(13) 0.41755(12)
H3 H 0.4970 0.3856 0.4323
H4 H 0.6464 0.3531 0.4362
C3 C 0.5013(3) 0.29669(13) 0.42546(12)
H5 H 0.4108 0.3032 0.4091
H6 H 0.5598 0.2716 0.4085
C4 C 0.4909(3) 0.26161(13) 0.48258(12)
H7 H 0.5813 0.2553 0.4990
H8 H 0.4320 0.2866 0.4995
C5 C 0.5530(3) 0.50872(12) 0.33775(11)
H9 H 0.4613 0.5128 0.3272
C6 C 0.7489(3) 0.52977(13) 0.35680(11)
H10 H 0.8217 0.5523 0.3620
C7 C 0.7542(3) 0.46749(13) 0.36519(12)
H11 H 0.8296 0.4386 0.3773
C8 C 0.5049(3) 0.14540(13) 0.50379(11)
H12 H 0.5972 0.1388 0.5139
C9 C 0.3042(3) 0.13020(13) 0.48496(12)
H13 H 0.2277 0.1102 0.4793
C10 C 0.3070(3) 0.19173(14) 0.47803(12)
H14 H 0.2345 0.2225 0.4670
C11 C 0.8384(3) 0.81739(13) 0.17029(11)
H15 H 0.7957 0.8542 0.1783
H16 H 0.8306 0.8249 0.1325
C12 C 0.9855(3) 0.80894(13) 0.18600(11)
H17 H 1.0278 0.7717 0.1786
H18 H 0.9933 0.8022 0.2237
C13 C 1.0596(3) 0.86592(13) 0.15684(12)
H19 H 1.0579 0.8707 0.1194
H20 H 1.0127 0.9036 0.1620
C14 C 1.2042(3) 0.86022(13) 0.17531(11)
H21 H 1.2060 0.8587 0.2121
H22 H 1.2494 0.8209 0.1726
C15 C 0.6839(3) 0.75690(13) 0.23764(11)
H23 H 0.6547 0.7903 0.2504
C16 C 0.7109(3) 0.66669(14) 0.22702(12)
H24 H 0.7036 0.6238 0.2314
C17 C 0.7855(3) 0.70491(13) 0.19029(12)
H25 H 0.8391 0.6941 0.1648
C18 C 1.3572(3) 0.91314(13) 0.10437(11)
H26 H 1.3830 0.8773 0.0943
C19 C 1.3352(3) 1.00704(13) 0.10704(12)
H27 H 1.3436 1.0505 0.0988
C20 C 1.2619(3) 0.97269(14) 0.14678(12)
H28 H 1.2106 0.9872 0.1710
C21 C -0.0423(3) -0.18797(13) 0.41777(12)
H29 H -0.0670 -0.2043 0.4546
H30 H -0.1226 -0.1645 0.3982
C22 C -0.0001(3) -0.24183(13) 0.39758(12)
H31 H 0.0238 -0.2255 0.3607
H32 H 0.0808 -0.2651 0.4169
C23 C -0.1781(3) -0.29330(13) 0.36429(12)
H33 H -0.1590 -0.2754 0.3287
C24 C -0.2683(3) -0.34556(13) 0.43460(11)
H34 H -0.3262 -0.3718 0.4581
C25 C -0.1645(3) -0.31760(13) 0.44839(12)
H35 H -0.1367 -0.3206 0.4825
C26 C 0.5083(3) 0.95664(12) 0.26256(12)
H36 H 0.4170 0.9621 0.2470
H37 H 0.5680 0.9341 0.2438
C27 C 0.5031(3) 0.91816(12) 0.31910(12)
H38 H 0.5944 0.9124 0.3347
H39 H 0.4436 0.9406 0.3379
C28 C 0.5258(3) 0.80252(12) 0.33779(11)
H40 H 0.6173 0.7970 0.3488
C29 C 0.3290(3) 0.78528(13) 0.31642(11)
H41 H 0.2552 0.7643 0.3097
C30 C 0.3265(3) 0.84675(13) 0.31057(12)
H42 H 0.2525 0.8767 0.2991
C31 C 0.0404(3) 0.52820(13) 0.48809(13)
H43 H 0.0191 0.5454 0.4507
H44 H 0.0150 0.5609 0.5045
C32 C 0.1900(3) 0.51015(13) 0.49572(12)
H45 H 0.2128 0.4980 0.5330
H46 H 0.2129 0.4738 0.4834
C33 C 0.3627(3) 0.56126(13) 0.43127(11)
H47 H 0.3900 0.5255 0.4213
C34 C 0.3458(3) 0.65371(14) 0.43641(12)
H48 H 0.3596 0.6965 0.4303
C35 C 0.2589(3) 0.62107(13) 0.47108(12)
H49 H 0.2017 0.6362 0.4935
C36 C 0.0889(3) 0.52279(13) 0.23746(12)
H50 H 0.1732 0.4989 0.2530
H51 H 0.1041 0.5422 0.2001
C37 C 0.0542(3) 0.57317(14) 0.26259(13)
H52 H -0.0249 0.5997 0.2446
H53 H 0.0294 0.5536 0.2991
C38 C 0.2461(3) 0.61024(13) 0.30072(12)
H54 H 0.2330 0.5850 0.3352
C39 C 0.3259(3) 0.67474(13) 0.23427(12)
H55 H 0.3811 0.7045 0.2127
C40 C 0.2169(3) 0.65313(13) 0.21784(12)
H56 H 0.1825 0.6642 0.1835
C41 C 0.8325(3) 0.15498(13) 0.34055(12)
H57 H 0.7964 0.1918 0.3501
H58 H 0.8208 0.1643 0.3027
C42 C 0.9817(3) 0.14259(13) 0.35442(12)
H59 H 1.0177 0.1054 0.3453
H60 H 0.9937 0.1340 0.3922
C43 C 1.0603(3) 0.19832(14) 0.32571(12)
H61 H 1.0533 0.2051 0.2880
H62 H 1.0198 0.2361 0.3328
C44 C 1.2059(3) 0.18869(14) 0.34173(12)
H63 H 1.2131 0.1854 0.3788
H64 H 1.2443 0.1490 0.3374
C45 C 0.6646(3) 0.09883(13) 0.40449(11)
H65 H 0.6348 0.1333 0.4159
C46 C 0.6878(3) 0.00781(13) 0.39607(11)
H66 H 0.6767 -0.0349 0.4007
C47 C 0.7717(3) 0.04304(13) 0.36172(12)
H67 H 0.8296 0.0300 0.3384
C48 C 1.3733(3) 0.23713(13) 0.27440(11)
H68 H 1.4010 0.2002 0.2662
C49 C 1.3525(3) 0.33190(14) 0.27440(11)
H69 H 1.3638 0.3752 0.2659
C50 C 1.2694(3) 0.30030(14) 0.31165(12)
H70 H 1.2129 0.3167 0.3334
C51 C 0.0703(3) -0.14457(13) 0.41250(11)
H71 H 0.1509 -0.1681 0.4318
H72 H 0.0944 -0.1279 0.3756
C52 C 0.0281(3) -0.09104(13) 0.43326(12)
H73 H -0.0521 -0.0673 0.4138
H74 H 0.0031 -0.1078 0.4700
C53 C 0.2079(3) -0.04267(13) 0.46835(12)
H75 H 0.1892 -0.0621 0.5038
C54 C 0.2982(3) 0.01166(13) 0.39901(12)
H76 H 0.3567 0.0383 0.3761
C55 C 0.1937(3) -0.01425(13) 0.38383(12)
H77 H 0.1658 -0.0094 0.3494
C56 C 1.5018(3) 0.59012(13) 0.14418(12)
H78 H 1.5932 0.5844 0.1597
H79 H 1.4421 0.6120 0.1634
C57 C 1.5064(3) 0.62945(13) 0.08812(12)
H80 H 1.4153 0.6348 0.0725
H81 H 1.5672 0.6079 0.0690
C58 C 1.5561(3) 0.69312(13) 0.08330(12)
H82 H 1.4953 0.7146 0.1025
H83 H 1.6472 0.6878 0.0989
C59 C 1.5607(3) 0.73261(13) 0.02731(12)
H84 H 1.6252 0.7121 0.0086
H85 H 1.4707 0.7358 0.0112
C60 C 1.5231(3) 0.47391(13) 0.16571(11)
H86 H 1.6133 0.4685 0.1782
C61 C 1.3289(3) 0.45633(14) 0.14231(12)
H87 H 1.2558 0.4352 0.1353
C62 C 1.3275(3) 0.51812(14) 0.13414(12)
H88 H 1.2548 0.5482 0.1207
C63 C 1.5197(3) 0.84807(13) 0.00911(12)
H89 H 1.4278 0.8504 -0.0008
C64 C 1.7135(3) 0.87224(13) 0.02758(11)
H90 H 1.7839 0.8957 0.0331
C65 C 1.7247(3) 0.81058(13) 0.03379(12)
H91 H 1.8031 0.7832 0.0442
C66 C 0.5598(3) 1.02023(12) 0.25620(12)
H92 H 0.4992 1.0431 0.2744
H93 H 0.6505 1.0148 0.2722
C67 C 0.5669(3) 1.05771(13) 0.20009(12)
H94 H 0.6291 1.0352 0.1822
H95 H 0.4766 1.0621 0.1839
C68 C 0.5373(3) 1.17376(13) 0.17840(11)
H96 H 0.4455 1.1777 0.1680
C69 C 0.7332(3) 1.19518(13) 0.19674(11)
H97 H 0.8061 1.2178 0.2016
C70 C 0.7390(3) 1.13273(14) 0.20517(12)
H98 H 0.8149 1.1040 0.2169
C71 C -0.0238(3) 0.47882(13) 0.24458(12)
H99 H -0.0398 0.4600 0.2820
H100 H -0.1078 0.5027 0.2286
C72 C 0.0105(3) 0.42773(13) 0.22027(12)
H101 H 0.0254 0.4465 0.1828
H102 H 0.0949 0.4040 0.2360
C73 C -0.1776(3) 0.37772(13) 0.19073(11)
H103 H -0.1664 0.3972 0.1548
C74 C -0.2525(3) 0.32258(13) 0.26310(11)
H104 H -0.3058 0.2953 0.2880
C75 C -0.1453(3) 0.35002(13) 0.27446(12)
H105 H -0.1101 0.3457 0.3078
C76 C 1.9639(3) 0.47104(13) 0.01446(11)
H106 H 2.0082 0.4343 0.0069
H107 H 1.9714 0.4641 0.0522
C77 C 1.8171(3) 0.47767(13) -0.00097(12)
H108 H 1.7731 0.5148 0.0062
H109 H 1.8096 0.4840 -0.0386
C78 C 1.6687(3) 0.41797(13) 0.06835(11)
H110 H 1.6426 0.4518 0.0810
C79 C 1.6912(3) 0.32707(14) 0.05923(12)
H111 H 1.6833 0.2840 0.0647
C80 C 1.7628(3) 0.36446(14) 0.02091(12)
H112 H 1.8132 0.3529 -0.0050
C81 C 1.0594(3) 0.19282(14) 0.07894(12)
H113 H 1.0554 0.2183 0.0421
H114 H 1.1503 0.1712 0.0863
C82 C 1.0351(3) 0.23504(14) 0.11292(13)
H115 H 0.9498 0.2610 0.1022
H116 H 1.0261 0.2093 0.1494
C83 C 1.2347(3) 0.27314(13) 0.14634(12)
H117 H 1.2295 0.2468 0.1810
C84 C 1.2996(3) 0.34017(13) 0.07807(12)
H118 H 1.3505 0.3707 0.0551
C85 C 1.1867(3) 0.31837(13) 0.06484(12)
H119 H 1.1442 0.3305 0.0318
C86 C 0.9545(3) 0.14505(14) 0.08884(12)
H120 H 0.8638 0.1667 0.0807
H121 H 0.9569 0.1204 0.1259
C87 C 0.9802(3) 0.10188(14) 0.05611(12)
H122 H 1.0668 0.0771 0.0670
H123 H 0.9880 0.1270 0.0194
C88 C 0.7882(3) 0.05811(13) 0.02298(12)
H124 H 0.7947 0.0828 -0.0121
C89 C 0.7237(3) -0.00728(13) 0.09235(12)
H125 H 0.6741 -0.0380 0.1157
C90 C 0.8319(3) 0.01771(13) 0.10543(12)
H126 H 0.8720 0.0080 0.1388
Cd1A Cd 0.46531(2) -0.655992(9) 0.665246(8)
Cd1_2 Cd -0.46531(2) -0.344008(9) 0.334754(8)
Cd1A_2 Cd -0.53469(2) 0.344008(9) 0.665246(8)
Cd1A_3 Cd 1.46531(2) 0.344008(9) 0.665246(8)
Cd1_3 Cd 1.53469(2) -0.344008(9) 0.334754(8)
Cd1_4 Cd 2.53469(2) 0.655992(9) 0.334754(8)
Cd3A Cd -0.52866(2) -0.323912(9) 0.829326(8)
Cd3_2 Cd 0.52866(2) 1.323912(9) 0.170674(8)
Cd3_3 Cd -0.47134(2) 0.323912(9) 0.170674(8)
Cd3A_2 Cd 2.47134(2) 0.676088(9) -0.170674(8)
Cd4_2 Cd 0.5000 0.0000 0.0000
Cd4_3 Cd -0.5000 -1.0000 1.0000
Cd4_4 Cd 0.5000 0.0000 1.0000
N1A N 0.3714(2) -0.45441(10) 0.64725(9)
N2A N 0.3777(2) -0.55543(10) 0.66044(10)
N3A N 0.5640(2) -0.20103(10) 0.50980(9)
N4A N 0.5710(2) -0.10079(11) 0.49856(9)
N5A N 0.2324(2) -0.76229(10) 0.80246(9)
N6A N 0.3528(2) -0.69942(10) 0.74290(9)
N7A N -0.2774(2) -0.91288(11) 0.85542(9)
N8A N -0.3954(2) -0.96938(11) 0.91950(9)
N8A_2 N 1.6046(2) 1.03062(11) -0.08050(9)
N9A N 1.1082(2) 0.28422(10) 0.59696(9)
N10A N 1.2769(2) 0.33018(10) 0.61831(9)
N10_2 N 0.7231(2) 0.66982(10) 0.38169(9)
N10A_2 N 0.2769(2) -0.66982(10) 0.61831(9)
N11_2 N 1.4526(2) -0.14273(10) 0.32457(9)
N12_2 N 1.4549(2) -0.24267(10) 0.33358(9)
N12A N 0.5451(2) -0.75733(10) 0.66642(9)
N13A N -0.2700(2) 0.43822(10) 0.53257(9)
N14A N -0.4114(2) 0.38410(11) 0.58872(9)
N14A_2 N 0.5886(2) -0.61590(11) 0.58872(9)
N15_2 N 2.1668(2) 0.61215(11) 0.26088(10)
N16_2 N 2.3450(2) 0.64752(11) 0.28646(10)
N16A N 0.6550(2) -0.64752(11) 0.71354(10)
N17A N 0.2435(2) -0.10144(10) 0.63271(9)
N18A N 0.3791(2) -0.04269(10) 0.57674(9)
N19A N -0.2841(2) -0.23973(11) 0.68873(9)
N20A N -0.4180(2) -0.29250(11) 0.74922(9)
N21A N 0.8635(2) 0.04912(10) 0.57120(9)
N22A N 0.6921(2) 0.00573(11) 0.54820(9)
N23A N -0.4522(2) -0.52894(10) 0.85076(9)
N24A N -0.4525(2) -0.42814(10) 0.83757(9)
N25A N -0.6011(2) -0.79523(10) 0.97784(10)
N26A N -0.5836(2) -0.89595(11) 0.98813(9)
N26A_2 N 1.4164(2) 1.10405(11) -0.01187(9)
N27_2 N 1.6131(2) 0.11947(10) 0.19328(9)
N28_2 N 1.6060(2) 0.22080(11) 0.18003(9)
N28A N -0.6060(2) -0.22080(11) 0.81997(9)
N29_2 N 1.9017(2) 0.38531(10) 0.22787(9)
N30_2 N 1.7268(2) 0.33977(10) 0.21042(9)
N30A N -0.7268(2) -0.33977(10) 0.78958(9)
N31A N 2.2524(2) 0.57746(11) -0.02724(9)
N32A N 2.3686(2) 0.63909(11) -0.08916(9)
N32A_2 N -0.6314(2) -0.36091(11) 0.91084(9)
N33A N -0.1461(2) -0.27535(11) 0.89110(10)
N34A N -0.3301(2) -0.31182(11) 0.87056(9)
N35A N 0.1277(2) -0.05979(11) 0.93911(9)
N36A N 0.3044(2) -0.01809(11) 0.95971(9)
N36_2 N 1.6956(2) 1.01809(11) 0.04029(9)
N36A_2 N 1.3044(2) 0.98191(11) -0.04029(9)
C1A C 0.4206(3) -0.39262(12) 0.63915(12)
H1A H 0.3550 -0.3674 0.6534
H2A H 0.5070 -0.3970 0.6581
C2A C 0.4409(3) -0.35943(13) 0.58245(12)
H3A H 0.5030 -0.3856 0.5677
H4A H 0.3536 -0.3531 0.5638
C3A C 0.4987(3) -0.29669(13) 0.57454(12)
H5A H 0.5892 -0.3032 0.5909
H6A H 0.4402 -0.2716 0.5915
C4A C 0.5091(3) -0.26161(13) 0.51742(12)
H7A H 0.4187 -0.2553 0.5010
H8A H 0.5680 -0.2866 0.5005
C5A C 0.4470(3) -0.50872(12) 0.66225(11)
H9A H 0.5387 -0.5128 0.6728
C6A C 0.2511(3) -0.52977(13) 0.64320(11)
H10A H 0.1783 -0.5523 0.6380
C7A C 0.2458(3) -0.46749(13) 0.63481(12)
H11A H 0.1704 -0.4386 0.6227
C8A C 0.4951(3) -0.14540(13) 0.49621(11)
H12A H 0.4028 -0.1388 0.4861
C9A C 0.6958(3) -0.13020(13) 0.51504(12)
H13A H 0.7723 -0.1102 0.5207
C10A C 0.6930(3) -0.19173(14) 0.52197(12)
H14A H 0.7655 -0.2225 0.5330
C11A C 0.1616(3) -0.81739(13) 0.82971(11)
H15A H 0.2043 -0.8542 0.8217
H16A H 0.1694 -0.8249 0.8675
C12A C 0.0145(3) -0.80894(13) 0.81400(11)
H17A H -0.0278 -0.7717 0.8214
H18A H 0.0067 -0.8022 0.7763
C13A C -0.0596(3) -0.86592(13) 0.84316(12)
H19A H -0.0579 -0.8707 0.8806
H20A H -0.0127 -0.9036 0.8380
C14A C -0.2042(3) -0.86022(13) 0.82469(11)
H21A H -0.2060 -0.8587 0.7879
H22A H -0.2494 -0.8209 0.8274
C15A C 0.3161(3) -0.75690(13) 0.76236(11)
H23A H 0.3453 -0.7903 0.7496
C16A C 0.2891(3) -0.66669(14) 0.77298(12)
H24A H 0.2964 -0.6238 0.7686
C17A C 0.2145(3) -0.70491(13) 0.80971(12)
H25A H 0.1609 -0.6941 0.8352
C18A C -0.3572(3) -0.91314(13) 0.89563(11)
H26A H -0.3830 -0.8773 0.9057
C19A C -0.3352(3) -1.00704(13) 0.89296(12)
H27A H -0.3436 -1.0505 0.9012
C20A C -0.2619(3) -0.97269(14) 0.85322(12)
H28A H -0.2106 -0.9872 0.8290
C21A C 1.0423(3) 0.18797(13) 0.58223(12)
H29A H 1.0670 0.2043 0.5454
H30A H 1.1226 0.1645 0.6018
C22A C 1.0001(3) 0.24183(13) 0.60242(12)
H31A H 0.9762 0.2255 0.6393
H32A H 0.9192 0.2651 0.5831
C23A C 1.1781(3) 0.29330(13) 0.63571(12)
H33A H 1.1590 0.2754 0.6713
C24A C 1.2683(3) 0.34556(13) 0.56540(11)
H34A H 1.3262 0.3718 0.5419
C25A C 1.1645(3) 0.31760(13) 0.55161(12)
H35A H 1.1367 0.3206 0.5175
C26_2 C 1.5083(3) -0.04336(12) 0.26256(12)
H36_2 H 1.4170 -0.0379 0.2470
H37_2 H 1.5680 -0.0659 0.2438
C27_2 C 1.5031(3) -0.08184(12) 0.31910(12)
H38_2 H 1.5944 -0.0876 0.3347
H39_2 H 1.4436 -0.0594 0.3379
C28_2 C 1.5258(3) -0.19748(12) 0.33779(11)
H40_2 H 1.6173 -0.2030 0.3488
C29_2 C 1.3290(3) -0.21472(13) 0.31642(11)
H41_2 H 1.2552 -0.2357 0.3097
C30_2 C 1.3265(3) -0.15325(13) 0.31057(12)
H42_2 H 1.2525 -0.1233 0.2991
C31A C -0.0404(3) 0.47180(13) 0.51191(13)
H43A H -0.0191 0.4546 0.5493
H44A H -0.0150 0.4391 0.4955
C32A C -0.1900(3) 0.48985(13) 0.50428(12)
H45A H -0.2128 0.5020 0.4670
H46A H -0.2129 0.5262 0.5166
C33A C -0.3627(3) 0.43874(13) 0.56873(11)
H47A H -0.3900 0.4745 0.5787
C34A C -0.3458(3) 0.34629(14) 0.56359(12)
H48A H -0.3596 0.3035 0.5697
C35A C -0.2589(3) 0.37893(13) 0.52892(12)
H49A H -0.2017 0.3638 0.5065
C36_2 C 2.0889(3) 0.52279(13) 0.23746(12)
H50_2 H 2.1732 0.4989 0.2530
H51_2 H 2.1041 0.5422 0.2001
C37_2 C 2.0542(3) 0.57317(14) 0.26259(13)
H52_2 H 1.9751 0.5997 0.2446
H53_2 H 2.0294 0.5536 0.2991
C38_2 C 2.2461(3) 0.61024(13) 0.30072(12)
H54_2 H 2.2330 0.5850 0.3352
C39_2 C 2.3259(3) 0.67474(13) 0.23427(12)
H55_2 H 2.3811 0.7045 0.2127
C40_2 C 2.2169(3) 0.65313(13) 0.21784(12)
H56_2 H 2.1825 0.6642 0.1835
C41A C 0.1675(3) -0.15498(13) 0.65945(12)
H57A H 0.2036 -0.1918 0.6499
H58A H 0.1792 -0.1643 0.6973
C42A C 0.0183(3) -0.14259(13) 0.64558(12)
H59A H -0.0177 -0.1054 0.6547
H60A H 0.0063 -0.1340 0.6078
C43A C -0.0603(3) -0.19832(14) 0.67429(12)
H61A H -0.0533 -0.2051 0.7120
H62A H -0.0198 -0.2361 0.6672
C44A C -0.2059(3) -0.18869(14) 0.65827(12)
H63A H -0.2131 -0.1854 0.6212
H64A H -0.2443 -0.1490 0.6626
C45A C 0.3354(3) -0.09883(13) 0.59551(11)
H65A H 0.3652 -0.1333 0.5841
C46A C 0.3122(3) -0.00781(13) 0.60393(11)
H66A H 0.3233 0.0349 0.5993
C47A C 0.2283(3) -0.04304(13) 0.63828(12)
H67A H 0.1704 -0.0300 0.6616
C48A C -0.3733(3) -0.23713(13) 0.72560(11)
H68A H -0.4010 -0.2002 0.7338
C49A C -0.3525(3) -0.33190(14) 0.72560(11)
H69A H -0.3638 -0.3752 0.7341
C50A C -0.2694(3) -0.30030(14) 0.68835(12)
H70A H -0.2129 -0.3167 0.6666
C51A C 0.9297(3) 0.14457(13) 0.58750(11)
H71A H 0.8491 0.1681 0.5682
H72A H 0.9056 0.1279 0.6244
C52A C 0.9719(3) 0.09104(13) 0.56674(12)
H73A H 1.0521 0.0673 0.5862
H74A H 0.9969 0.1078 0.5300
C53A C 0.7921(3) 0.04267(13) 0.53165(12)
H75A H 0.8108 0.0621 0.4962
C54A C 0.7018(3) -0.01166(13) 0.60099(12)
H76A H 0.6433 -0.0383 0.6239
C55A C 0.8063(3) 0.01425(13) 0.61617(12)
H77A H 0.8342 0.0094 0.6506
C56A C -0.5018(3) -0.59012(13) 0.85582(12)
H78A H -0.5932 -0.5844 0.8403
H79A H -0.4421 -0.6120 0.8366
C57A C -0.5064(3) -0.62945(13) 0.91188(12)
H80A H -0.4153 -0.6348 0.9275
H81A H -0.5672 -0.6079 0.9310
C58A C -0.5561(3) -0.69312(13) 0.91670(12)
H82A H -0.4953 -0.7146 0.8975
H83A H -0.6472 -0.6878 0.9011
C59A C -0.5607(3) -0.73261(13) 0.97269(12)
H84A H -0.6252 -0.7121 0.9914
H85A H -0.4707 -0.7358 0.9888
C60A C -0.5231(3) -0.47391(13) 0.83429(11)
H86A H -0.6133 -0.4685 0.8218
C61A C -0.3289(3) -0.45633(14) 0.85769(12)
H87A H -0.2558 -0.4352 0.8647
C62A C -0.3275(3) -0.51812(14) 0.86586(12)
H88A H -0.2548 -0.5482 0.8793
C63A C -0.5197(3) -0.84807(13) 0.99089(12)
H89A H -0.4278 -0.8504 1.0008
C64A C -0.7135(3) -0.87224(13) 0.97242(11)
H90A H -0.7839 -0.8957 0.9669
C65A C -0.7247(3) -0.81058(13) 0.96621(12)
H91A H -0.8031 -0.7832 0.9558
C66_2 C 1.5598(3) 0.02023(12) 0.25620(12)
H92_2 H 1.4992 0.0431 0.2744
H93_2 H 1.6505 0.0148 0.2722
C67_2 C 1.5669(3) 0.05771(13) 0.20009(12)
H94_2 H 1.6291 0.0352 0.1822
H95_2 H 1.4766 0.0621 0.1839
C68_2 C 1.5373(3) 0.17376(13) 0.17840(11)
H96_2 H 1.4455 0.1777 0.1680
C69_2 C 1.7332(3) 0.19518(13) 0.19674(11)
H97_2 H 1.8061 0.2178 0.2016
C70_2 C 1.7390(3) 0.13273(14) 0.20517(12)
H98_2 H 1.8149 0.1040 0.2169
C71_2 C 1.9762(3) 0.47882(13) 0.24458(12)
H99_2 H 1.9602 0.4600 0.2820
H100_2 H 1.8922 0.5027 0.2286
C72_2 C 2.0105(3) 0.42773(13) 0.22027(12)
H101_2 H 2.0254 0.4465 0.1828
H102_2 H 2.0949 0.4040 0.2360
C73_2 C 1.8224(3) 0.37772(13) 0.19073(11)
H103_2 H 1.8336 0.3972 0.1548
C74_2 C 1.7475(3) 0.32258(13) 0.26310(11)
H104_2 H 1.6942 0.2953 0.2880
C75_2 C 1.8547(3) 0.35002(13) 0.27446(12)
H105_2 H 1.8899 0.3457 0.3078
C76A C 2.0361(3) 0.52896(13) -0.01446(11)
H106A H 1.9918 0.5657 -0.0069
H107A H 2.0286 0.5359 -0.0522
C77A C 2.1829(3) 0.52233(13) 0.00097(12)
H108A H 2.2269 0.4852 -0.0062
H109A H 2.1904 0.5160 0.0386
C78A C 2.3313(3) 0.58203(13) -0.06835(11)
H110A H 2.3574 0.5482 -0.0810
C79A C 2.3088(3) 0.67293(14) -0.05923(12)
H111A H 2.3167 0.7160 -0.0647
C80A C 2.2372(3) 0.63554(14) -0.02091(12)
H112A H 2.1868 0.6471 0.0050
C81A C -0.0594(3) -0.19282(14) 0.92106(12)
H113A H -0.0554 -0.2183 0.9579
H114A H -0.1503 -0.1712 0.9137
C82A C -0.0351(3) -0.23504(14) 0.88708(13)
H115A H 0.0502 -0.2610 0.8978
H116A H -0.0261 -0.2093 0.8506
C83A C -0.2347(3) -0.27314(13) 0.85366(12)
H117A H -0.2295 -0.2468 0.8190
C84A C -0.2996(3) -0.34017(13) 0.92193(12)
H118A H -0.3505 -0.3707 0.9449
C85A C -0.1867(3) -0.31837(13) 0.93516(12)
H119A H -0.1442 -0.3305 0.9682
C86A C 0.0455(3) -0.14505(14) 0.91116(12)
H120A H 0.1362 -0.1667 0.9193
H121A H 0.0431 -0.1204 0.8741
C87A C 0.0198(3) -0.10188(14) 0.94389(12)
H122A H -0.0668 -0.0771 0.9330
H123A H 0.0120 -0.1270 0.9806
C88A C 0.2118(3) -0.05811(13) 0.97702(12)
H124A H 0.2053 -0.0828 1.0121
C89A C 0.2763(3) 0.00728(13) 0.90765(12)
H125A H 0.3259 0.0380 0.8843
C90A C 0.1681(3) -0.01771(13) 0.89457(12)
H126A H 0.1280 -0.0080 0.8612
Cl1 Cl 0.87793(7) 0.24214(3) 0.44391(3)
O1 O 0.8349(2) 0.27989(10) 0.39325(8)
O2 O 0.7963(2) 0.18987(10) 0.46012(9)
O3 O 0.8633(2) 0.27756(10) 0.47952(9)
O4 O 1.0162(2) 0.21989(11) 0.44324(9)
Cl2 Cl 0.88312(7) 0.57410(3) 0.10282(3)
O5 O 0.8621(2) 0.60056(11) 0.14394(9)
O6 O 0.8468(3) 0.61952(12) 0.05492(9)
O7 O 1.0224(2) 0.55229(10) 0.10179(9)
O8 O 0.8020(2) 0.52239(11) 0.11151(11)
Cl3 Cl 0.88782(7) 0.90717(3) 0.27600(3)
O9 O 0.8475(2) 0.94770(11) 0.22583(9)
O10 O 1.0271(2) 0.88581(10) 0.27576(9)
O11 O 0.8674(2) 0.93911(10) 0.31391(9)
O12 O 0.8082(2) 0.85414(10) 0.28912(9)
Cl4 Cl 1.17617(7) 1.08950(3) 0.23213(3)
O13 O 1.2236(3) 1.10485(12) 0.18021(9)
O14 O 1.0493(3) 1.11935(17) 0.23517(12)
O15 O 1.2696(3) 1.10918(17) 0.26260(13)
O16 O 1.1784(4) 1.02379(13) 0.25376(13)
Cl5 Cl 0.16237(7) 0.42514(3) 0.38705(3)
O17 O 0.0842(3) 0.47958(12) 0.38930(10)
O18 O 0.2607(3) 0.44167(14) 0.34760(11)
O19 O 0.2244(3) 0.39339(14) 0.43506(10)
O20 O 0.0756(3) 0.38614(13) 0.37217(15)
Cl6 Cl 0.83042(7) 1.24339(3) -0.06531(3)
O21 O 0.9635(2) 1.21733(14) -0.06700(11)
O22 O 0.7867(3) 1.23018(12) -0.01308(9)
O23 O 0.8229(3) 1.30895(11) -0.08882(11)
O24 O 0.7414(3) 1.21789(14) -0.09313(12)
loop_
_geom_bond_atom_site_label_1
_geom_bond_atom_site_label_2
_geom_bond_site_symmetry_1
_geom_bond_site_symmetry_2
Cd1 N2 1_555 1_555
Cd2 N4 1_555 1_555
Cd3 N20 1_555 1_555
Cd4 N8 1_555 1_555
Cl1 O1 1_555 1_555
Cl2 O5 1_555 1_555
Cl3 O9 1_555 1_555
Cl4 O13 1_555 1_555
Cl5 O17 1_555 1_555
Cl6 O21 1_555 1_555
O2 Cl1 1_555 1_555
O3 Cl1 1_555 1_555
O4 Cl1 1_555 1_555
O6 Cl2 1_555 1_555
O7 Cl2 1_555 1_555
O8 Cl2 1_555 1_555
O10 Cl3 1_555 1_555
O11 Cl3 1_555 1_555
O12 Cl3 1_555 1_555
O14 Cl4 1_555 1_555
O15 Cl4 1_555 1_555
O16 Cl4 1_555 1_555
O18 Cl5 1_555 1_555
O19 Cl5 1_555 1_555
O20 Cl5 1_555 1_555
O22 Cl6 1_555 1_555
O23 Cl6 1_555 1_555
O24 Cl6 1_555 1_555
N1 C1 1_555 1_555
N2 C5 1_555 1_555
N3 C4 1_555 1_555
N4 C8 1_555 1_555
N5 C11 1_555 1_555
N6 Cd1 1_555 1_555
N7 C14 1_555 1_555
N8 C18 1_555 1_555
N9 C22 1_555 1_555
N10 C23 1_555 1_555
N11 C27 1_555 1_555
N12 Cd1 1_555 1_555
N13 C32 1_555 1_555
N14 Cd1 1_555 1_555
N15 C37 1_555 1_555
N16 Cd1 1_555 1_555
N17 C41 1_555 1_555
N18 Cd2 1_555 1_555
N19 C44 1_555 1_555
N20 C48 1_555 1_555
N21 C52 1_555 1_555
N22 Cd2 1_555 1_555
N23 C56 1_555 1_555
N24 Cd3 1_555 1_555
N25 C59 1_555 1_555
N26 Cd4 1_555 1_555
N27 C67 1_555 1_555
N28 C68 1_555 1_555
N29 C72 1_555 1_555
N30 C73 1_555 1_555
N31 C77 1_555 1_555
N32 Cd3 1_555 1_555
N33 C82 1_555 1_555
N34 Cd3 1_555 1_555
N35 C87 1_555 1_555
N36 C88 1_555 1_555
C1 H1 1_555 1_555
H2 C1 1_555 1_555
C2 C1 1_555 1_555
H3 C2 1_555 1_555
H4 C2 1_555 1_555
C3 C2 1_555 1_555
H5 C3 1_555 1_555
H6 C3 1_555 1_555
C4 C3 1_555 1_555
H7 C4 1_555 1_555
H8 C4 1_555 1_555
C5 N1 1_555 1_555
H9 C5 1_555 1_555
C6 N2 1_555 1_555
H10 C6 1_555 1_555
C7 N1 1_555 1_555
H11 C7 1_555 1_555
C8 N3 1_555 1_555
H12 C8 1_555 1_555
C9 N4 1_555 1_555
H13 C9 1_555 1_555
C10 N3 1_555 1_555
H14 C10 1_555 1_555
C11 H15 1_555 1_555
H16 C11 1_555 1_555
C12 C11 1_555 1_555
H17 C12 1_555 1_555
H18 C12 1_555 1_555
C13 C12 1_555 1_555
H19 C13 1_555 1_555
H20 C13 1_555 1_555
C14 C13 1_555 1_555
H21 C14 1_555 1_555
H22 C14 1_555 1_555
C15 N5 1_555 1_555
H23 C15 1_555 1_555
C16 N6 1_555 1_555
H24 C16 1_555 1_555
C17 N5 1_555 1_555
H25 C17 1_555 1_555
C18 N7 1_555 1_555
H26 C18 1_555 1_555
C19 N8 1_555 1_555
H27 C19 1_555 1_555
C20 N7 1_555 1_555
H28 C20 1_555 1_555
C21 H29 1_555 1_555
H30 C21 1_555 1_555
C22 C21 1_555 1_555
H31 C22 1_555 1_555
H32 C22 1_555 1_555
C23 N9 1_555 1_555
H33 C23 1_555 1_555
C24 N10 1_555 1_555
H34 C24 1_555 1_555
C25 N9 1_555 1_555
H35 C25 1_555 1_555
C26 H36 1_555 1_555
H37 C26 1_555 1_555
C27 C26 1_555 1_555
H38 C27 1_555 1_555
H39 C27 1_555 1_555
C28 N11 1_555 1_555
H40 C28 1_555 1_555
C29 N12 1_555 1_555
H41 C29 1_555 1_555
C30 N11 1_555 1_555
H42 C30 1_555 1_555
C31 H43 1_555 1_555
H44 C31 1_555 1_555
C32 C31 1_555 1_555
H45 C32 1_555 1_555
H46 C32 1_555 1_555
C33 N13 1_555 1_555
H47 C33 1_555 1_555
C34 N14 1_555 1_555
H48 C34 1_555 1_555
C35 N13 1_555 1_555
H49 C35 1_555 1_555
C36 H50 1_555 1_555
H51 C36 1_555 1_555
C37 C36 1_555 1_555
H52 C37 1_555 1_555
H53 C37 1_555 1_555
C38 N15 1_555 1_555
H54 C38 1_555 1_555
C39 N16 1_555 1_555
H55 C39 1_555 1_555
C40 N15 1_555 1_555
H56 C40 1_555 1_555
C41 H57 1_555 1_555
H58 C41 1_555 1_555
C42 C41 1_555 1_555
H59 C42 1_555 1_555
H60 C42 1_555 1_555
C43 C42 1_555 1_555
H61 C43 1_555 1_555
H62 C43 1_555 1_555
C44 C43 1_555 1_555
H63 C44 1_555 1_555
H64 C44 1_555 1_555
C45 N17 1_555 1_555
H65 C45 1_555 1_555
C46 N18 1_555 1_555
H66 C46 1_555 1_555
C47 N17 1_555 1_555
H67 C47 1_555 1_555
C48 N19 1_555 1_555
H68 C48 1_555 1_555
C49 N20 1_555 1_555
H69 C49 1_555 1_555
C50 N19 1_555 1_555
H70 C50 1_555 1_555
C51 C21 1_555 1_555
H71 C51 1_555 1_555
H72 C51 1_555 1_555
C52 C51 1_555 1_555
H73 C52 1_555 1_555
H74 C52 1_555 1_555
C53 N21 1_555 1_555
H75 C53 1_555 1_555
C54 N22 1_555 1_555
H76 C54 1_555 1_555
C55 N21 1_555 1_555
H77 C55 1_555 1_555
C56 H78 1_555 1_555
H79 C56 1_555 1_555
C57 C56 1_555 1_555
H80 C57 1_555 1_555
H81 C57 1_555 1_555
C58 C57 1_555 1_555
H82 C58 1_555 1_555
H83 C58 1_555 1_555
C59 C58 1_555 1_555
H84 C59 1_555 1_555
H85 C59 1_555 1_555
C60 N23 1_555 1_555
H86 C60 1_555 1_555
C61 N24 1_555 1_555
H87 C61 1_555 1_555
C62 N23 1_555 1_555
H88 C62 1_555 1_555
C63 N25 1_555 1_555
H89 C63 1_555 1_555
C64 N26 1_555 1_555
H90 C64 1_555 1_555
C65 N25 1_555 1_555
H91 C65 1_555 1_555
C66 C26 1_555 1_555
H92 C66 1_555 1_555
H93 C66 1_555 1_555
C67 C66 1_555 1_555
H94 C67 1_555 1_555
H95 C67 1_555 1_555
C68 N27 1_555 1_555
H96 C68 1_555 1_555
C69 N28 1_555 1_555
H97 C69 1_555 1_555
C70 N27 1_555 1_555
H98 C70 1_555 1_555
C71 C36 1_555 1_555
H99 C71 1_555 1_555
H100 C71 1_555 1_555
C72 C71 1_555 1_555
H101 C72 1_555 1_555
H102 C72 1_555 1_555
C73 N29 1_555 1_555
H103 C73 1_555 1_555
C74 N30 1_555 1_555
H104 C74 1_555 1_555
C75 N29 1_555 1_555
H105 C75 1_555 1_555
C76 H106 1_555 1_555
H107 C76 1_555 1_555
C77 C76 1_555 1_555
H108 C77 1_555 1_555
H109 C77 1_555 1_555
C78 N31 1_555 1_555
H110 C78 1_555 1_555
C79 N32 1_555 1_555
H111 C79 1_555 1_555
C80 N31 1_555 1_555
H112 C80 1_555 1_555
C81 H113 1_555 1_555
H114 C81 1_555 1_555
C82 C81 1_555 1_555
H115 C82 1_555 1_555
H116 C82 1_555 1_555
C83 N33 1_555 1_555
H117 C83 1_555 1_555
C84 N34 1_555 1_555
H118 C84 1_555 1_555
C85 N33 1_555 1_555
H119 C85 1_555 1_555
C86 C81 1_555 1_555
H120 C86 1_555 1_555
H121 C86 1_555 1_555
C87 C86 1_555 1_555
H122 C87 1_555 1_555
H123 C87 1_555 1_555
C88 N35 1_555 1_555
H124 C88 1_555 1_555
C89 N36 1_555 1_555
H125 C89 1_555 1_555
C90 N35 1_555 1_555
H126 C90 1_555 1_555
Cd1A N2A 1_555 1_555
Cd1_2 N10 1_555 1_555
Cd1A_2 N14A 1_555 1_555
Cd1A_3 N10A 1_555 1_555
Cd1_3 N12_2 1_555 1_555
Cd1_4 N16_2 1_555 1_555
Cd3A N20A 1_555 1_555
Cd3_2 N28 1_555 1_555
Cd3_3 N30 1_555 1_555
Cd3A_2 N32A 1_555 1_555
Cd4_2 N36 1_555 1_555
Cd4_3 N8A 1_555 1_555
Cd4_4 N36A 1_555 1_555
N1A C1A 1_555 1_555
N2A C5A 1_555 1_555
N3A C4A 1_555 1_555
N4A Cd2 1_555 1_555
N5A C11A 1_555 1_555
N6A Cd1A 1_555 1_555
N7A C14A 1_555 1_555
N8A C18A 1_555 1_555
N8A_2 Cd4 1_555 1_555
N9A C22A 1_555 1_555
N10A C23A 1_555 1_555
N10_2 Cd1 1_555 1_555
N10A_2 Cd1A 1_555 1_555
N11_2 C27_2 1_555 1_555
N12_2 C28_2 1_555 1_555
N12A Cd1A 1_555 1_555
N13A C32A 1_555 1_555
N14A C33A 1_555 1_555
N14A_2 Cd1A 1_555 1_555
N15_2 C37_2 1_555 1_555
N16_2 C38_2 1_555 1_555
N16A Cd1A 1_555 1_555
N17A C41A 1_555 1_555
N18A Cd2 1_555 1_555
N19A C44A 1_555 1_555
N20A C48A 1_555 1_555
N21A C52A 1_555 1_555
N22A Cd2 1_555 1_555
N23A C56A 1_555 1_555
N24A Cd3A 1_555 1_555
N25A C59A 1_555 1_555
N26A Cd4_3 1_555 1_555
N26A_2 Cd4 1_555 1_555
N27_2 C67_2 1_555 1_555
N28_2 Cd3 1_555 1_555
N28A Cd3A 1_555 1_555
N29_2 C72_2 1_555 1_555
N30_2 Cd3 1_555 1_555
N30A Cd3A 1_555 1_555
N31A C77A 1_555 1_555
N32A C78A 1_555 1_555
N32A_2 Cd3A 1_555 1_555
N33A C82A 1_555 1_555
N34A Cd3A 1_555 1_555
N35A C87A 1_555 1_555
N36A C88A 1_555 1_555
N36_2 Cd4 1_555 1_555
N36A_2 Cd4 1_555 1_555
C1A H1A 1_555 1_555
H2A C1A 1_555 1_555
C2A C1A 1_555 1_555
H3A C2A 1_555 1_555
H4A C2A 1_555 1_555
C3A C2A 1_555 1_555
H5A C3A 1_555 1_555
H6A C3A 1_555 1_555
C4A C3A 1_555 1_555
H7A C4A 1_555 1_555
H8A C4A 1_555 1_555
C5A N1A 1_555 1_555
H9A C5A 1_555 1_555
C6A N2A 1_555 1_555
H10A C6A 1_555 1_555
C7A N1A 1_555 1_555
H11A C7A 1_555 1_555
C8A N3A 1_555 1_555
H12A C8A 1_555 1_555
C9A N4A 1_555 1_555
H13A C9A 1_555 1_555
C10A N3A 1_555 1_555
H14A C10A 1_555 1_555
C11A H15A 1_555 1_555
H16A C11A 1_555 1_555
C12A C11A 1_555 1_555
H17A C12A 1_555 1_555
H18A C12A 1_555 1_555
C13A C12A 1_555 1_555
H19A C13A 1_555 1_555
H20A C13A 1_555 1_555
C14A C13A 1_555 1_555
H21A C14A 1_555 1_555
H22A C14A 1_555 1_555
C15A N5A 1_555 1_555
H23A C15A 1_555 1_555
C16A N6A 1_555 1_555
H24A C16A 1_555 1_555
C17A N5A 1_555 1_555
H25A C17A 1_555 1_555
C18A N7A 1_555 1_555
H26A C18A 1_555 1_555
C19A N8A 1_555 1_555
H27A C19A 1_555 1_555
C20A N7A 1_555 1_555
H28A C20A 1_555 1_555
C21A H29A 1_555 1_555
H30A C21A 1_555 1_555
C22A C21A 1_555 1_555
H31A C22A 1_555 1_555
H32A C22A 1_555 1_555
C23A N9A 1_555 1_555
H33A C23A 1_555 1_555
C24A N10A 1_555 1_555
H34A C24A 1_555 1_555
C25A N9A 1_555 1_555
H35A C25A 1_555 1_555
C26_2 H36_2 1_555 1_555
H37_2 C26_2 1_555 1_555
C27_2 C26_2 1_555 1_555
H38_2 C27_2 1_555 1_555
H39_2 C27_2 1_555 1_555
C28_2 N11_2 1_555 1_555
H40_2 C28_2 1_555 1_555
C29_2 N12_2 1_555 1_555
H41_2 C29_2 1_555 1_555
C30_2 N11_2 1_555 1_555
H42_2 C30_2 1_555 1_555
C31A C31 1_555 1_555
H43A C31A 1_555 1_555
H44A C31A 1_555 1_555
C32A C31A 1_555 1_555
H45A C32A 1_555 1_555
H46A C32A 1_555 1_555
C33A N13A 1_555 1_555
H47A C33A 1_555 1_555
C34A N14A 1_555 1_555
H48A C34A 1_555 1_555
C35A N13A 1_555 1_555
H49A C35A 1_555 1_555
C36_2 H50_2 1_555 1_555
H51_2 C36_2 1_555 1_555
C37_2 C36_2 1_555 1_555
H52_2 C37_2 1_555 1_555
H53_2 C37_2 1_555 1_555
C38_2 N15_2 1_555 1_555
H54_2 C38_2 1_555 1_555
C39_2 N16_2 1_555 1_555
H55_2 C39_2 1_555 1_555
C40_2 N15_2 1_555 1_555
H56_2 C40_2 1_555 1_555
C41A H57A 1_555 1_555
H58A C41A 1_555 1_555
C42A C41A 1_555 1_555
H59A C42A 1_555 1_555
H60A C42A 1_555 1_555
C43A C42A 1_555 1_555
H61A C43A 1_555 1_555
H62A C43A 1_555 1_555
C44A C43A 1_555 1_555
H63A C44A 1_555 1_555
H64A C44A 1_555 1_555
C45A N17A 1_555 1_555
H65A C45A 1_555 1_555
C46A N18A 1_555 1_555
H66A C46A 1_555 1_555
C47A N17A 1_555 1_555
H67A C47A 1_555 1_555
C48A N19A 1_555 1_555
H68A C48A 1_555 1_555
C49A N20A 1_555 1_555
H69A C49A 1_555 1_555
C50A N19A 1_555 1_555
H70A C50A 1_555 1_555
C51A C21A 1_555 1_555
H71A C51A 1_555 1_555
H72A C51A 1_555 1_555
C52A C51A 1_555 1_555
H73A C52A 1_555 1_555
H74A C52A 1_555 1_555
C53A N21A 1_555 1_555
H75A C53A 1_555 1_555
C54A N22A 1_555 1_555
H76A C54A 1_555 1_555
C55A N21A 1_555 1_555
H77A C55A 1_555 1_555
C56A H78A 1_555 1_555
H79A C56A 1_555 1_555
C57A C56A 1_555 1_555
H80A C57A 1_555 1_555
H81A C57A 1_555 1_555
C58A C57A 1_555 1_555
H82A C58A 1_555 1_555
H83A C58A 1_555 1_555
C59A C58A 1_555 1_555
H84A C59A 1_555 1_555
H85A C59A 1_555 1_555
C60A N23A 1_555 1_555
H86A C60A 1_555 1_555
C61A N24A 1_555 1_555
H87A C61A 1_555 1_555
C62A N23A 1_555 1_555
H88A C62A 1_555 1_555
C63A N25A 1_555 1_555
H89A C63A 1_555 1_555
C64A N26A 1_555 1_555
H90A C64A 1_555 1_555
C65A N25A 1_555 1_555
H91A C65A 1_555 1_555
C66_2 C26_2 1_555 1_555
H92_2 C66_2 1_555 1_555
H93_2 C66_2 1_555 1_555
C67_2 C66_2 1_555 1_555
H94_2 C67_2 1_555 1_555
H95_2 C67_2 1_555 1_555
C68_2 N27_2 1_555 1_555
H96_2 C68_2 1_555 1_555
C69_2 N28_2 1_555 1_555
H97_2 C69_2 1_555 1_555
C70_2 N27_2 1_555 1_555
H98_2 C70_2 1_555 1_555
C71_2 C36_2 1_555 1_555
H99_2 C71_2 1_555 1_555
H100_2 C71_2 1_555 1_555
C72_2 C71_2 1_555 1_555
H101_2 C72_2 1_555 1_555
H102_2 C72_2 1_555 1_555
C73_2 N29_2 1_555 1_555
H103_2 C73_2 1_555 1_555
C74_2 N30_2 1_555 1_555
H104_2 C74_2 1_555 1_555
C75_2 N29_2 1_555 1_555
H105_2 C75_2 1_555 1_555
C76A C76 1_555 1_555
H106A C76A 1_555 1_555
H107A C76A 1_555 1_555
C77A C76A 1_555 1_555
H108A C77A 1_555 1_555
H109A C77A 1_555 1_555
C78A N31A 1_555 1_555
H110A C78A 1_555 1_555
C79A N32A 1_555 1_555
H111A C79A 1_555 1_555
C80A N31A 1_555 1_555
H112A C80A 1_555 1_555
C81A H113A 1_555 1_555
H114A C81A 1_555 1_555
C82A C81A 1_555 1_555
H115A C82A 1_555 1_555
H116A C82A 1_555 1_555
C83A N33A 1_555 1_555
H117A C83A 1_555 1_555
C84A N34A 1_555 1_555
H118A C84A 1_555 1_555
C85A N33A 1_555 1_555
H119A C85A 1_555 1_555
C86A C81A 1_555 1_555
H120A C86A 1_555 1_555
H121A C86A 1_555 1_555
C87A C86A 1_555 1_555
H122A C87A 1_555 1_555
H123A C87A 1_555 1_555
C88A N35A 1_555 1_555
H124A C88A 1_555 1_555
C89A N36A 1_555 1_555
H125A C89A 1_555 1_555
C90A N35A 1_555 1_555
H126A C90A 1_555 1_555
N6 C15 1_555 1_555
N12 C28 1_555 1_555
N14 C33 1_555 1_555
N16 C38 1_555 1_555
N18 C45 1_555 1_555
N22 C53 1_555 1_555
N24 C60 1_555 1_555
N26 C63 1_555 1_555
N32 C78 1_555 1_555
N34 C83 1_555 1_555
C6 C7 1_555 1_555
C9 C10 1_555 1_555
C16 C17 1_555 1_555
C19 C20 1_555 1_555
C24 C25 1_555 1_555
C29 C30 1_555 1_555
C34 C35 1_555 1_555
C39 C40 1_555 1_555
C46 C47 1_555 1_555
C49 C50 1_555 1_555
C54 C55 1_555 1_555
C61 C62 1_555 1_555
C64 C65 1_555 1_555
C69 C70 1_555 1_555
C74 C75 1_555 1_555
C79 C80 1_555 1_555
C84 C85 1_555 1_555
C89 C90 1_555 1_555
N4A C8A 1_555 1_555
N6A C15A 1_555 1_555
N18A C45A 1_555 1_555
N22A C53A 1_555 1_555
N24A C60A 1_555 1_555
N26A C63A 1_555 1_555
N28_2 C68_2 1_555 1_555
N30_2 C73_2 1_555 1_555
N34A C83A 1_555 1_555
C6A C7A 1_555 1_555
C9A C10A 1_555 1_555
C16A C17A 1_555 1_555
C19A C20A 1_555 1_555
C24A C25A 1_555 1_555
C29_2 C30_2 1_555 1_555
C34A C35A 1_555 1_555
C39_2 C40_2 1_555 1_555
C46A C47A 1_555 1_555
C49A C50A 1_555 1_555
C54A C55A 1_555 1_555
C61A C62A 1_555 1_555
C64A C65A 1_555 1_555
C69_2 C70_2 1_555 1_555
C74_2 C75_2 1_555 1_555
C79A C80A 1_555 1_555
C84A C85A 1_555 1_555
C89A C90A 1_555 1_555

#END
