
#######################################################################
#
#                 Cambridge Crystallographic Data Centre
#                                CCDC 
#
#######################################################################
#
# If this CIF has been generated from an entry in the Cambridge 
# Structural Database, then it will include bibliographic, chemical, 
# crystal, experimental, refinement or atomic coordinate data resulting 
# from the CCDC's data processing and validation procedures.
#
#######################################################################

data_WIVJUI
_symmetry_cell_setting           monoclinic
_symmetry_space_group_name_H-M   'P 21/c'
_symmetry_Int_Tables_number      14
_space_group_name_Hall           '-P 2ybc'
loop_
_symmetry_equiv_pos_site_id
_symmetry_equiv_pos_as_xyz
1 x,y,z
2 -x,1/2+y,1/2-z
3 -x,-y,-z
4 x,1/2-y,1/2+z
_cell_length_a                   10.225(2)
_cell_length_b                   10.197(2)
_cell_length_c                   23.917(5)
_cell_angle_alpha                90
_cell_angle_beta                 99.794(2)
_cell_angle_gamma                90
_cell_volume                     2457.35
loop_
_atom_site_label
_atom_site_type_symbol
_atom_site_fract_x
_atom_site_fract_y
_atom_site_fract_z
U1 U 0.254370(12) 0.422277(12) 0.492163(6)
P1 P 0.50464(9) 0.41335(9) 0.40271(4)
C1 C 0.4312(4) 0.4821(4) 0.33523(16)
C2 C 0.5120(5) 0.5124(5) 0.29625(18)
H1 H 0.6004 0.4861 0.3033
C3 C 0.2983(4) 0.5184(5) 0.3227(2)
H2 H 0.2415 0.4980 0.3480
C4 C 0.4644(6) 0.5810(5) 0.2469(2)
H3 H 0.5209 0.6023 0.2216
C5 C 0.2497(6) 0.5847(6) 0.2729(2)
H4 H 0.1604 0.6073 0.2645
C6 C 0.3339(6) 0.6172(6) 0.2357(2)
H5 H 0.3017 0.6638 0.2028
P2 P -0.07227(9) 0.42224(10) 0.40660(4)
O1 O 0.2559(3) 0.2565(3) 0.51592(11)
O2 O 0.3930(2) 0.3608(2) 0.43162(11)
O3 O 0.2571(3) 0.5871(2) 0.46785(13)
O4 O 0.5996(2) 0.3066(2) 0.39241(12)
O5 O 0.5738(3) 0.5302(2) 0.43632(11)
O6 O -0.1572(3) 0.2968(3) 0.40290(13)
H6 H -0.2361 0.3167 0.3966
O7 O -0.1174(3) 0.5243(3) 0.44518(11)
O8 O 0.0714(2) 0.3822(3) 0.42370(12)
C7 C -0.0973(4) 0.4919(4) 0.33680(17)
C8 C -0.1016(6) 0.4142(5) 0.2889(2)
H7 H -0.0846 0.3248 0.2929
C9 C -0.1216(5) 0.6256(5) 0.3288(2)
H8 H -0.1189 0.6799 0.3603
C10 C -0.1311(7) 0.4691(7) 0.2350(2)
H9 H -0.1345 0.4159 0.2032
C11 C -0.1552(6) 0.6009(7) 0.2283(3)
H10 H -0.1750 0.6369 0.1921
C12 C -0.1499(6) 0.6790(6) 0.2747(2)
H11 H -0.1654 0.7685 0.2702
U1B U -0.254370(12) 0.577723(12) 0.507837(6)
U1B_2 U 0.745630(12) 0.577723(12) 0.507837(6)
O5B O 0.4262(3) 0.4698(2) 0.56368(11)
O7B O 0.1174(3) 0.4757(3) 0.55482(11)
N1 N 0.6459(4) 0.4194(3) 0.04893(16)
N2 N 0.5056(4) 0.3869(3) 0.10573(16)
C13 C 0.5848(4) 0.3293(4) 0.07518(19)
H12 H 0.5963 0.2392 0.0724
C14 C 0.7464(5) 0.3930(5) 0.0133(2)
H13 H 0.7478 0.4650 -0.0131
H14 H 0.7224 0.3140 -0.0087
C15 C 0.6021(5) 0.5406(4) 0.0637(2)
H15 H 0.6284 0.6216 0.0516
C16 C 0.5155(5) 0.5203(4) 0.09860(19)
H16 H 0.4701 0.5846 0.1151
C17 C 0.8834(5) 0.3762(5) 0.0479(2)
H17 H 0.8797 0.3085 0.0761
H18 H 0.9430 0.3461 0.0231
C18 C 0.4243(5) 0.3201(5) 0.1416(2)
H19 H 0.4105 0.2308 0.1294
H20 H 0.3401 0.3637 0.1386
H21 H 0.4687 0.3221 0.1803
C19 C 0.9400(5) 0.4982(5) 0.0775(2)
H22 H 0.8819 0.5275 0.1031
H23 H 0.9426 0.5666 0.0496
C20 C 1.0785(6) 0.4785(6) 0.1109(3)
H24 H 1.0753 0.4168 0.1410
H25 H 1.1123 0.5608 0.1268
H26 H 1.1356 0.4456 0.0862
loop_
_geom_bond_atom_site_label_1
_geom_bond_atom_site_label_2
_geom_bond_site_symmetry_1
_geom_bond_site_symmetry_2
U1 O1 1_555 1_555
P1 C1 1_555 1_555
C1 C2 1_555 1_555
C2 H1 1_555 1_555
C3 C1 1_555 1_555
H2 C3 1_555 1_555
C4 C2 1_555 1_555
H3 C4 1_555 1_555
C5 C3 1_555 1_555
H4 C5 1_555 1_555
C6 C4 1_555 1_555
H5 C6 1_555 1_555
P2 O6 1_555 1_555
O2 U1 1_555 1_555
O3 U1 1_555 1_555
O4 P1 1_555 1_555
O5 P1 1_555 1_555
O6 H6 1_555 1_555
O7 P2 1_555 1_555
O8 U1 1_555 1_555
C7 P2 1_555 1_555
C8 C7 1_555 1_555
H7 C8 1_555 1_555
C9 C7 1_555 1_555
H8 C9 1_555 1_555
C10 C8 1_555 1_555
H9 C10 1_555 1_555
C11 C10 1_555 1_555
H10 C11 1_555 1_555
C12 C9 1_555 1_555
H11 C12 1_555 1_555
N1 C13 1_555 1_555
N2 C13 1_555 1_555
C13 H12 1_555 1_555
C14 N1 1_555 1_555
H13 C14 1_555 1_555
H14 C14 1_555 1_555
C15 N1 1_555 1_555
H15 C15 1_555 1_555
C16 N2 1_555 1_555
H16 C16 1_555 1_555
C17 C14 1_555 1_555
H17 C17 1_555 1_555
H18 C17 1_555 1_555
C18 N2 1_555 1_555
H19 C18 1_555 1_555
H20 C18 1_555 1_555
H21 C18 1_555 1_555
C19 C17 1_555 1_555
H22 C19 1_555 1_555
H23 C19 1_555 1_555
C20 C19 1_555 1_555
H24 C20 1_555 1_555
H25 C20 1_555 1_555
H26 C20 1_555 1_555
U1B O7 1_555 1_555
U1B_2 O5 1_555 1_555
O5B U1 1_555 1_555
O7B U1 1_555 1_555
P1 O2 1_555 1_555
C5 C6 1_555 1_555
P2 O8 1_555 1_555
C11 C12 1_555 1_555
C15 C16 1_555 1_555

#END
