
#######################################################################
#
#                 Cambridge Crystallographic Data Centre
#                                CCDC 
#
#######################################################################
#
# If this CIF has been generated from an entry in the Cambridge 
# Structural Database, then it will include bibliographic, chemical, 
# crystal, experimental, refinement or atomic coordinate data resulting 
# from the CCDC's data processing and validation procedures.
#
#######################################################################

data_WIVJUG
_symmetry_cell_setting           triclinic
_symmetry_space_group_name_H-M   'P -1'
_symmetry_Int_Tables_number      2
_space_group_name_Hall           '-P 1'
loop_
_symmetry_equiv_pos_site_id
_symmetry_equiv_pos_as_xyz
1 x,y,z
2 -x,-y,-z
_cell_length_a                   9.6757(19)
_cell_length_b                   10.866(2)
_cell_length_c                   10.985(2)
_cell_angle_alpha                118.79(3)
_cell_angle_beta                 109.97(3)
_cell_angle_gamma                94.14(3)
_cell_volume                     911.187
loop_
_atom_site_label
_atom_site_type_symbol
_atom_site_fract_x
_atom_site_fract_y
_atom_site_fract_z
Zn1 Zn 0.3638(2) 0.8492(2) 0.3708(3)
Zn2 Zn 0.4555(2) 0.5110(2) 0.1343(3)
Fe1 Fe 0.2879(3) 0.5880(3) 0.2591(3)
Cl1 Cl 0.5511(5) 0.9889(5) 0.3587(6)
Cl2 Cl 0.6520(5) 0.6543(5) 0.1375(6)
O1 O 0.070(2) 0.660(2) 0.397(3)
O2 O 0.181(2) 0.2727(18) 0.125(3)
O3 O 0.580(2) 0.6754(19) 0.520(2)
O4 O 0.1503(19) 0.6143(19) -0.008(2)
O5 O 0.5782(15) 0.3867(15) 0.188(2)
O6 O 0.1911(15) 0.9359(16) 0.308(2)
C1 C 0.155(2) 0.633(2) 0.340(3)
C2 C 0.224(2) 0.399(2) 0.180(3)
C3 C 0.467(3) 0.647(2) 0.419(3)
C4 C 0.2079(19) 0.605(2) 0.101(2)
C5 C 0.540(4) 0.233(4) 0.114(5)
H1 H 0.4965 0.1873 0.0020
H2 H 0.4616 0.1999 0.1380
C6 C 0.671(4) 0.188(3) 0.162(5)
H3 H 0.6857 0.1169 0.0731
H4 H 0.6592 0.1432 0.2180
C7 C 0.807(3) 0.324(4) 0.266(4)
H5 H 0.8726 0.3272 0.3588
H6 H 0.8685 0.3278 0.2126
C8 C 0.736(3) 0.443(3) 0.304(4)
H7 H 0.7382 0.4812 0.4059
H8 H 0.7932 0.5231 0.3065
C9 C 0.092(4) 0.974(4) 0.379(5)
H9 H 0.1484 1.0580 0.4853
H10 H 0.0470 0.8915 0.3812
C10 C -0.029(4) 1.011(4) 0.290(5)
H11 H -0.1189 0.9247 0.2125
H12 H -0.0619 1.0888 0.3575
C11 C 0.040(3) 1.060(3) 0.217(3)
H13 H 0.0863 1.1662 0.2816
H14 H -0.0366 1.0336 0.1166
C12 C 0.160(2) 0.983(3) 0.200(3)
H15 H 0.1228 0.8979 0.0942
H16 H 0.2532 1.0490 0.2239
Zn2A Zn 0.5445(2) 0.4890(2) -0.1343(3)
Fe1A Fe 0.7121(3) 0.4120(3) -0.2591(3)
Zn1A Zn 0.6362(2) 0.1508(2) -0.3708(3)
Cl1A Cl 0.4489(5) 0.0111(5) -0.3587(6)
Cl1_2 Cl 0.5511(5) -0.0111(5) -0.6413(6)
O6A O 0.8089(15) 0.0641(16) -0.308(2)
C9A C 0.908(4) 0.026(4) -0.379(5)
H9A H 0.8516 -0.0580 -0.4853
H10A H 0.9530 0.1085 -0.3812
C10A C 1.029(4) -0.011(4) -0.290(5)
H11A H 1.1189 0.0753 -0.2125
H12A H 1.0619 -0.0888 -0.3575
C11A C 0.960(3) -0.060(3) -0.217(3)
H13A H 0.9137 -0.1662 -0.2816
H14A H 1.0366 -0.0336 -0.1166
C12A C 0.840(2) 0.017(3) -0.200(3)
H15A H 0.8772 0.1021 -0.0942
H16A H 0.7468 -0.0490 -0.2239
C1A C 0.845(2) 0.367(2) -0.340(3)
O1A O 0.930(2) 0.340(2) -0.397(3)
C2A C 0.776(2) 0.601(2) -0.180(3)
O2A O 0.819(2) 0.7273(18) -0.125(3)
C3A C 0.533(3) 0.353(2) -0.419(3)
O3A O 0.420(2) 0.3246(19) -0.520(2)
C4A C 0.7921(19) 0.395(2) -0.101(2)
O4A O 0.8497(19) 0.3857(19) 0.008(2)
Cl2A Cl 0.3480(5) 0.3457(5) -0.1375(6)
O5A O 0.4218(15) 0.6133(15) -0.188(2)
C5A C 0.460(4) 0.767(4) -0.114(5)
H1A H 0.5035 0.8127 -0.0020
H2A H 0.5384 0.8001 -0.1380
C6A C 0.329(4) 0.812(3) -0.162(5)
H3A H 0.3143 0.8831 -0.0731
H4A H 0.3408 0.8568 -0.2180
C7A C 0.193(3) 0.676(4) -0.266(4)
H5A H 0.1274 0.6728 -0.3588
H6A H 0.1315 0.6722 -0.2126
C8A C 0.264(3) 0.557(3) -0.304(4)
H7A H 0.2618 0.5188 -0.4059
H8A H 0.2068 0.4769 -0.3065
Cl1A_2 Cl 0.4489(5) 1.0111(5) 0.6413(6)
Zn1A_2 Zn 0.6362(2) 1.1508(2) 0.6292(3)
loop_
_geom_bond_atom_site_label_1
_geom_bond_atom_site_label_2
_geom_bond_site_symmetry_1
_geom_bond_site_symmetry_2
Zn1 Fe1 1_555 1_555
Zn2 Fe1 1_555 1_555
Fe1 C1 1_555 1_555
Cl1 Zn1 1_555 1_555
Cl2 Zn2 1_555 1_555
O1 C1 1_555 1_555
O2 C2 1_555 1_555
O3 C3 1_555 1_555
O4 C4 1_555 1_555
O5 Zn2 1_555 1_555
O6 Zn1 1_555 1_555
C2 Fe1 1_555 1_555
C3 Fe1 1_555 1_555
C4 Fe1 1_555 1_555
C5 O5 1_555 1_555
H1 C5 1_555 1_555
H2 C5 1_555 1_555
C6 C5 1_555 1_555
H3 C6 1_555 1_555
H4 C6 1_555 1_555
C7 C6 1_555 1_555
H5 C7 1_555 1_555
H6 C7 1_555 1_555
C8 O5 1_555 1_555
H7 C8 1_555 1_555
H8 C8 1_555 1_555
C9 O6 1_555 1_555
H9 C9 1_555 1_555
H10 C9 1_555 1_555
C10 C9 1_555 1_555
H11 C10 1_555 1_555
H12 C10 1_555 1_555
C11 C10 1_555 1_555
H13 C11 1_555 1_555
H14 C11 1_555 1_555
C12 O6 1_555 1_555
H15 C12 1_555 1_555
H16 C12 1_555 1_555
Zn2A Cl2 1_555 1_555
Fe1A Zn2A 1_555 1_555
Zn1A Fe1A 1_555 1_555
Cl1A Zn1A 1_555 1_555
Cl1_2 Zn1A 1_555 1_555
O6A Zn1A 1_555 1_555
C9A O6A 1_555 1_555
H9A C9A 1_555 1_555
H10A C9A 1_555 1_555
C10A C9A 1_555 1_555
H11A C10A 1_555 1_555
H12A C10A 1_555 1_555
C11A C10A 1_555 1_555
H13A C11A 1_555 1_555
H14A C11A 1_555 1_555
C12A O6A 1_555 1_555
H15A C12A 1_555 1_555
H16A C12A 1_555 1_555
C1A Fe1A 1_555 1_555
O1A C1A 1_555 1_555
C2A Fe1A 1_555 1_555
O2A C2A 1_555 1_555
C3A Fe1A 1_555 1_555
O3A C3A 1_555 1_555
C4A Fe1A 1_555 1_555
O4A C4A 1_555 1_555
Cl2A Zn2 1_555 1_555
O5A Zn2A 1_555 1_555
C5A O5A 1_555 1_555
H1A C5A 1_555 1_555
H2A C5A 1_555 1_555
C6A C5A 1_555 1_555
H3A C6A 1_555 1_555
H4A C6A 1_555 1_555
C7A C6A 1_555 1_555
H5A C7A 1_555 1_555
H6A C7A 1_555 1_555
C8A O5A 1_555 1_555
H7A C8A 1_555 1_555
H8A C8A 1_555 1_555
Cl1A_2 Zn1 1_555 1_555
Zn1A_2 Cl1 1_555 1_555
C7 C8 1_555 1_555
C11 C12 1_555 1_555
Zn2A Cl2A 1_555 1_555
C11A C12A 1_555 1_555
C7A C8A 1_555 1_555
Cl1A_2 Zn1A_2 1_555 1_555

#END
