
#######################################################################
#
#                 Cambridge Crystallographic Data Centre
#                                CCDC 
#
#######################################################################
#
# If this CIF has been generated from an entry in the Cambridge 
# Structural Database, then it will include bibliographic, chemical, 
# crystal, experimental, refinement or atomic coordinate data resulting 
# from the CCDC's data processing and validation procedures.
#
#######################################################################

data_WIVKOD
_symmetry_cell_setting           triclinic
_symmetry_space_group_name_H-M   'P -1'
_symmetry_Int_Tables_number      2
_space_group_name_Hall           '-P 1'
loop_
_symmetry_equiv_pos_site_id
_symmetry_equiv_pos_as_xyz
1 x,y,z
2 -x,-y,-z
_cell_length_a                   9.4611(18)
_cell_length_b                   13.424(3)
_cell_length_c                   13.453(3)
_cell_angle_alpha                67.360(3)
_cell_angle_beta                 70.649(4)
_cell_angle_gamma                88.418(4)
_cell_volume                     1478.03
loop_
_atom_site_label
_atom_site_type_symbol
_atom_site_fract_x
_atom_site_fract_y
_atom_site_fract_z
U1 U 0.977133(14) -0.922139(10) 0.346070(11)
P1 P 1.26631(10) -0.85155(7) 0.38341(8)
O1 O 1.0749(3) -1.0223(2) 0.3039(2)
U2 U 1.291290(14) -0.679155(10) 0.077266(11)
P2 P 0.52524(10) -0.56753(8) 0.18082(8)
O2 O 0.8775(3) -0.8245(2) 0.3905(2)
U3 U 1.0000 -1.0000 0.0000
P3 P 1.72121(10) -1.05542(8) 0.28023(8)
O3 O 1.1359(3) -0.9438(2) 0.4668(2)
P4 P 0.99951(10) -0.74905(7) 0.04756(8)
O4 O 1.2156(3) -0.8020(2) 0.2778(2)
O5 O 1.0480(3) -0.8033(2) 0.1548(2)
O6 O 1.7658(3) -0.9769(2) 0.3248(2)
O7 O 1.1952(3) -0.5791(2) 0.1193(2)
C1 C 1.4307(4) -0.9900(3) 0.2898(3)
H1 H 1.3640 -0.9665 0.2437
H2 H 1.3852 -1.0617 0.3526
O8 O 1.3903(3) -0.7795(2) 0.0371(2)
C2 C 0.6771(4) -0.6113(3) 0.2332(3)
H3 H 0.6939 -0.5626 0.2689
H4 H 0.6435 -0.6849 0.2950
O9 O 0.4853(3) -0.6458(2) 0.1346(2)
C3 C 0.8294(4) -0.6152(3) 0.1480(3)
H5 H 0.9039 -0.6335 0.1876
H6 H 0.8645 -0.5422 0.0851
O10 O 1.1298(3) -0.6617(2) -0.0360(2)
C4 C 1.5854(4) -1.0024(3) 0.2133(3)
H7 H 1.6295 -0.9301 0.1513
H8 H 1.5695 -1.0503 0.1765
C5 C 0.8243(4) -0.6979(3) 0.0960(3)
H9 H 0.7890 -0.6636 0.0303
H10 H 0.7487 -0.7600 0.1543
O11 O 0.5626(3) -0.4503(2) 0.0959(2)
C6 C 1.4384(4) -0.9081(3) 0.3421(3)
H11 H 1.5185 -0.8482 0.2857
H12 H 1.4678 -0.9445 0.4106
O12 O 1.1647(3) -1.0052(2) 0.0361(2)
O13 O 0.9669(3) -0.8319(2) 0.0041(2)
O14 O 1.8543(3) -1.0766(2) 0.1936(2)
O15 O 0.3893(3) -0.5687(2) 0.2878(2)
H13 H 0.3630 -0.6326 0.3374
O16 O 1.6398(3) -1.1645(2) 0.3825(2)
H14 H 1.6709 -1.1750 0.4370
O17 O 1.2886(3) -0.7727(2) 0.4332(2)
U1A U 1.022867(14) -1.077861(10) -0.346070(11)
P1A P 0.73369(10) -1.14845(7) -0.38341(8)
O1A O 0.9251(3) -0.9777(2) -0.3039(2)
U2A U 0.708710(14) -1.320845(10) -0.077266(11)
P2A P 1.47476(10) -1.43247(8) -0.18082(8)
O2A O 1.1225(3) -1.1755(2) -0.3905(2)
P3A P 0.27879(10) -0.94458(8) -0.28023(8)
O3A O 0.8641(3) -1.0562(2) -0.4668(2)
P4A P 1.00049(10) -1.25095(7) -0.04756(8)
O4A O 0.7844(3) -1.1980(2) -0.2778(2)
O5A O 0.9520(3) -1.1967(2) -0.1548(2)
O6A O 0.2342(3) -1.0231(2) -0.3248(2)
O7A O 0.8048(3) -1.4209(2) -0.1193(2)
C1A C 0.5693(4) -1.0100(3) -0.2898(3)
H1A H 0.6360 -1.0335 -0.2437
H2A H 0.6148 -0.9383 -0.3526
O8A O 0.6097(3) -1.2205(2) -0.0371(2)
C2A C 1.3229(4) -1.3887(3) -0.2332(3)
H3A H 1.3061 -1.4374 -0.2689
H4A H 1.3565 -1.3151 -0.2950
O9A O 1.5147(3) -1.3542(2) -0.1346(2)
C3A C 1.1706(4) -1.3848(3) -0.1480(3)
H5A H 1.0961 -1.3665 -0.1876
H6A H 1.1355 -1.4578 -0.0851
O10A O 0.8702(3) -1.3383(2) 0.0360(2)
C4A C 0.4146(4) -0.9976(3) -0.2133(3)
H7A H 0.3705 -1.0699 -0.1513
H8A H 0.4305 -0.9497 -0.1765
C5A C 1.1757(4) -1.3021(3) -0.0960(3)
H9A H 1.2110 -1.3364 -0.0303
H10A H 1.2513 -1.2400 -0.1543
O11A O 1.4374(3) -1.5497(2) -0.0959(2)
C6A C 0.5616(4) -1.0919(3) -0.3421(3)
H11A H 0.4815 -1.1518 -0.2857
H12A H 0.5322 -1.0555 -0.4106
O12A O 0.8353(3) -0.9948(2) -0.0361(2)
O13A O 1.0331(3) -1.1681(2) -0.0041(2)
O14A O 0.1457(3) -0.9234(2) -0.1936(2)
O15A O 1.6107(3) -1.4313(2) -0.2878(2)
H13A H 1.6370 -1.3674 -0.3374
O16A O 0.3602(3) -0.8355(2) -0.3825(2)
H14A H 0.3291 -0.8250 -0.4370
O17A O 0.7114(3) -1.2273(2) -0.4332(2)
U1_2 U 0.977133(14) -0.922139(10) -0.653930(11)
U1_3 U 1.977133(14) -0.922139(10) 0.346070(11)
U1A_2 U 0.022867(14) -1.077861(10) -0.346070(11)
U1A_3 U 1.022867(14) -1.077861(10) 0.653930(11)
U2_2 U 0.291290(14) -0.679155(10) 0.077266(11)
U2_3 U 1.291290(14) -1.679155(10) 0.077266(11)
U2A_2 U 0.708710(14) -0.320845(10) -0.077266(11)
U2A_3 U 1.708710(14) -1.320845(10) -0.077266(11)
U3_2 U 0.0000 -1.0000 0.0000
U3_3 U 2.0000 -1.0000 0.0000
O3_2 O 1.1359(3) -0.9438(2) -0.5332(2)
O3A_2 O 0.8641(3) -1.0562(2) 0.5332(2)
O6_2 O 0.7658(3) -0.9769(2) 0.3248(2)
O6A_2 O 1.2342(3) -1.0231(2) -0.3248(2)
O9_2 O 1.4853(3) -0.6458(2) 0.1346(2)
O9A_2 O 0.5147(3) -1.3542(2) -0.1346(2)
O11_2 O 0.5626(3) -1.4503(2) 0.0959(2)
O11A_2 O 1.4374(3) -0.5497(2) -0.0959(2)
O14_2 O 0.8543(3) -1.0766(2) 0.1936(2)
O14A_2 O 1.1457(3) -0.9234(2) -0.1936(2)
N1 N 0.7726(4) -0.7493(3) 0.8023(3)
C7 C 1.2066(9) -0.5471(8) 0.5769(6)
H15 H 1.1788 -0.5736 0.5259
H16 H 1.1465 -0.4866 0.5821
N2 N 0.9954(4) -0.6651(3) 0.7447(3)
C8 C 0.6532(6) -0.8310(5) 0.8268(5)
H17 H 0.6973 -0.8961 0.8204
H18 H 0.6007 -0.8018 0.7716
H19 H 0.5813 -0.8499 0.9049
C9 C 1.1589(6) -0.6381(4) 0.6955(4)
H20 H 1.2071 -0.7033 0.6905
H21 H 1.1937 -0.6159 0.7464
C10 C 0.8901(6) -0.6043(4) 0.7874(4)
H22 H 0.9115 -0.5370 0.7905
C11 C 0.7538(6) -0.6571(4) 0.8234(4)
H23 H 0.6604 -0.6347 0.8574
C12 C 0.9210(5) -0.7521(4) 0.7541(4)
H24 H 0.9651 -0.8075 0.7307
C13 C 1.3660(13) -0.5026(10) 0.5209(10)
H25 H 1.4244 -0.5560 0.4953
H26 H 1.4023 -0.4936 0.5784
C14 C 1.3999(17) -0.3913(11) 0.4156(12)
H27 H 1.3819 -0.3323 0.4424
H28 H 1.3337 -0.3901 0.3725
H29 H 1.5054 -0.3818 0.3656
C15? C 1.163(2) -0.4198(16) 0.5546(17)
H30? H 1.0578 -0.4174 0.5553
H31? H 1.1649 -0.4043 0.6204
C16? C 1.244(3) -0.3457(15) 0.4650(19)
H32? H 1.2773 -0.3717 0.4031
H33? H 1.3320 -0.3228 0.4772
H34? H 1.1864 -0.2839 0.4439
loop_
_geom_bond_atom_site_label_1
_geom_bond_atom_site_label_2
_geom_bond_site_symmetry_1
_geom_bond_site_symmetry_2
U1 O1 1_555 1_555
P1 O3 1_555 1_555
U2 O4 1_555 1_555
P2 C2 1_555 1_555
O2 U1 1_555 1_555
U3 O12 1_555 1_555
P3 O6 1_555 1_555
O3 U1 1_555 1_555
P4 O5 1_555 1_555
O4 U1 1_555 1_555
O5 U1 1_555 1_555
O6 U1_3 1_555 1_555
O7 U2 1_555 1_555
C1 H1 1_555 1_555
H2 C1 1_555 1_555
O8 U2 1_555 1_555
C2 H3 1_555 1_555
H4 C2 1_555 1_555
O9 P2 1_555 1_555
C3 C2 1_555 1_555
H5 C3 1_555 1_555
H6 C3 1_555 1_555
O10 U2 1_555 1_555
C4 P3 1_555 1_555
H7 C4 1_555 1_555
H8 C4 1_555 1_555
C5 P4 1_555 1_555
H9 C5 1_555 1_555
H10 C5 1_555 1_555
O11 P2 1_555 1_555
C6 P1 1_555 1_555
H11 C6 1_555 1_555
H12 C6 1_555 1_555
O13 U3 1_555 1_555
O14 P3 1_555 1_555
O15 P2 1_555 1_555
H13 O15 1_555 1_555
O16 P3 1_555 1_555
H14 O16 1_555 1_555
O17 P1 1_555 1_555
N1 C8 1_555 1_555
C7 H15 1_555 1_555
H16 C7 1_555 1_555
N2 C9 1_555 1_555
C8 H17 1_555 1_555
H18 C8 1_555 1_555
H19 C8 1_555 1_555
C9 C7 1_555 1_555
H20 C9 1_555 1_555
H21 C9 1_555 1_555
C10 N2 1_555 1_555
H22 C10 1_555 1_555
C11 N1 1_555 1_555
H23 C11 1_555 1_555
C12 N1 1_555 1_555
H24 C12 1_555 1_555
C13 C7 1_555 1_555
H25 C13 1_555 1_555
H26 C13 1_555 1_555
C14 C13 1_555 1_555
H27 C14 1_555 1_555
H28 C14 1_555 1_555
H29 C14 1_555 1_555
U1A O1A 1_555 1_555
P1A O3A 1_555 1_555
U2A O4A 1_555 1_555
P2A C2A 1_555 1_555
O2A U1A 1_555 1_555
P3A O6A 1_555 1_555
O3A U1A 1_555 1_555
P4A O5A 1_555 1_555
O4A U1A 1_555 1_555
O5A U1A 1_555 1_555
O6A U1A_2 1_555 1_555
O7A U2A 1_555 1_555
C1A H1A 1_555 1_555
H2A C1A 1_555 1_555
O8A U2A 1_555 1_555
C2A H3A 1_555 1_555
H4A C2A 1_555 1_555
O9A P2A 1_555 1_555
C3A C2A 1_555 1_555
H5A C3A 1_555 1_555
H6A C3A 1_555 1_555
O10A U2A 1_555 1_555
C4A P3A 1_555 1_555
H7A C4A 1_555 1_555
H8A C4A 1_555 1_555
C5A P4A 1_555 1_555
H9A C5A 1_555 1_555
H10A C5A 1_555 1_555
O11A P2A 1_555 1_555
C6A P1A 1_555 1_555
H11A C6A 1_555 1_555
H12A C6A 1_555 1_555
O12A U3 1_555 1_555
O13A U3 1_555 1_555
O14A P3A 1_555 1_555
O15A P2A 1_555 1_555
H13A O15A 1_555 1_555
O16A P3A 1_555 1_555
H14A O16A 1_555 1_555
O17A P1A 1_555 1_555
U1_2 O3A 1_555 1_555
U1A_3 O3 1_555 1_555
U2_2 O9 1_555 1_555
U2_3 O11A 1_555 1_555
U2A_2 O11 1_555 1_555
U2A_3 O9A 1_555 1_555
U3_2 O14A 1_555 1_555
U3_3 O14 1_555 1_555
O3_2 U1A 1_555 1_555
O3A_2 U1 1_555 1_555
O6_2 U1 1_555 1_555
O6A_2 U1A 1_555 1_555
O9_2 U2 1_555 1_555
O9A_2 U2A 1_555 1_555
O11_2 U2A 1_555 1_555
O11A_2 U2 1_555 1_555
O14_2 U3 1_555 1_555
O14A_2 U3 1_555 1_555
P1 O4 1_555 1_555
U2 O5 1_555 1_555
P4 O10 1_555 1_555
P4 O13 1_555 1_555
C1 C4 1_555 1_555
C1 C6 1_555 1_555
C3 C5 1_555 1_555
N2 C12 1_555 1_555
C10 C11 1_555 1_555
P1A O4A 1_555 1_555
U2A O5A 1_555 1_555
P4A O10A 1_555 1_555
P4A O13A 1_555 1_555
C1A C4A 1_555 1_555
C1A C6A 1_555 1_555
C3A C5A 1_555 1_555
U1_2 O3_2 1_555 1_555
U1A_3 O3A_2 1_555 1_555

#END
