
#######################################################################
#
#                 Cambridge Crystallographic Data Centre
#                                CCDC 
#
#######################################################################
#
# If this CIF has been generated from an entry in the Cambridge 
# Structural Database, then it will include bibliographic, chemical, 
# crystal, experimental, refinement or atomic coordinate data resulting 
# from the CCDC's data processing and validation procedures.
#
#######################################################################

data_WIVMUK
_symmetry_cell_setting           triclinic
_symmetry_space_group_name_H-M   'P -1'
_symmetry_Int_Tables_number      2
_space_group_name_Hall           '-P 1'
loop_
_symmetry_equiv_pos_site_id
_symmetry_equiv_pos_as_xyz
1 x,y,z
2 -x,-y,-z
_cell_length_a                   11.611(5)
_cell_length_b                   12.651(5)
_cell_length_c                   12.884(5)
_cell_angle_alpha                99.494(5)
_cell_angle_beta                 106.262(5)
_cell_angle_gamma                95.071(5)
_cell_volume                     1773.74
loop_
_atom_site_label
_atom_site_type_symbol
_atom_site_fract_x
_atom_site_fract_y
_atom_site_fract_z
Mn1 Mn 0.38655(7) 0.25476(6) 0.17117(6)
O1 O 0.2560(3) 0.2513(3) 0.0156(3)
O2 O 0.5076(3) 0.6031(3) -0.1543(3)
O3 O 0.3786(3) 0.1072(3) 0.2340(3)
N1 N 0.2073(4) 0.2706(3) 0.2050(3)
N2 N 0.0864(4) 0.3171(4) -0.0673(4)
N3 N 0.5068(4) 0.6589(3) -0.3432(4)
N4 N 0.3959(4) 0.4403(4) -0.2369(4)
N5 N 0.5244(4) 0.1588(4) 0.1217(4)
N6 N 0.4686(5) -0.0341(4) 0.2833(4)
C1 C 0.1821(5) 0.2646(5) 0.2988(5)
H1 H 0.2438 0.2507 0.3590
C2 C 0.0709(5) 0.2777(5) 0.3117(5)
H2 H 0.0562 0.2738 0.3800
C3 C -0.0204(5) 0.2968(5) 0.2237(5)
H3 H -0.0983 0.3061 0.2308
C4 C 0.0039(5) 0.3018(4) 0.1259(5)
H4 H -0.0566 0.3148 0.0643
C5 C 0.1184(5) 0.2876(4) 0.1196(4)
C6 C 0.1579(5) 0.2853(4) 0.0173(4)
C7 C 0.1119(5) 0.3217(4) -0.1699(4)
H5 H 0.0358 0.3010 -0.2318
H6 H 0.1680 0.2697 -0.1816
C8 C 0.1690(5) 0.4364(5) -0.1682(5)
H7 H 0.1696 0.4416 -0.2439
H8 H 0.1175 0.4887 -0.1461
C9 C 0.4985(5) 0.6957(4) -0.4366(4)
H9 H 0.5485 0.7607 -0.4326
C10 C 0.4200(5) 0.6433(5) -0.5391(4)
H10 H 0.4170 0.6714 -0.6037
C11 C 0.3468(5) 0.5495(5) -0.5437(5)
H11 H 0.2919 0.5122 -0.6122
C12 C 0.3534(5) 0.5097(4) -0.4488(4)
H12 H 0.3031 0.4453 -0.4511
C13 C 0.4354(5) 0.5661(4) -0.3498(4)
C14 C 0.4495(5) 0.5366(4) -0.2400(4)
C15 C 0.3912(5) 0.4111(4) -0.1326(4)
H13 H 0.3691 0.3318 -0.1437
H14 H 0.4721 0.4320 -0.0771
C16 C 0.2978(5) 0.4689(4) -0.0907(4)
H15 H 0.3204 0.5480 -0.0806
H16 H 0.3001 0.4523 -0.0177
C17 C 0.5945(5) 0.1874(5) 0.0612(5)
H17 H 0.5847 0.2524 0.0339
C18 C 0.6806(6) 0.1267(5) 0.0367(5)
H18 H 0.7288 0.1488 -0.0067
C19 C 0.6935(6) 0.0330(5) 0.0775(5)
H19 H 0.7504 -0.0113 0.0607
C20 C 0.6248(5) 0.0024(5) 0.1426(5)
H20 H 0.6349 -0.0612 0.1724
C21 C 0.5406(5) 0.0679(4) 0.1627(4)
C22 C 0.4572(5) 0.0470(4) 0.2303(5)
C23 C 0.3928(6) -0.0602(5) 0.3520(5)
H21 H 0.3471 -0.1338 0.3208
H22 H 0.3333 -0.0086 0.3505
C24 C 0.4664(6) -0.0553(5) 0.4703(5)
H23 H 0.5257 -0.1070 0.4712
H24 H 0.4114 -0.0791 0.5111
H25 H 0.037(5) 0.343(4) -0.064(4)
H26 H 0.367(5) 0.389(4) -0.290(5)
H27 H 0.517(6) -0.070(5) 0.279(6)
Mn1A Mn 0.61345(7) 0.74524(6) -0.17117(6)
Mn1A_2 Mn 0.61345(7) -0.25476(6) 0.82883(6)
O1A O 0.7440(3) 0.7487(3) -0.0156(3)
O2A O 0.4924(3) 0.3969(3) 0.1543(3)
O3A O 0.6214(3) -0.1072(3) 0.7660(3)
O3A_2 O 0.6214(3) 0.8928(3) -0.2340(3)
N1A N 0.7927(4) 0.7294(3) -0.2050(3)
N2A N 0.9136(4) 0.6829(4) 0.0673(4)
N3A N 0.4932(4) 0.3411(3) 0.3432(4)
N4A N 0.6041(4) 0.5597(4) 0.2369(4)
N5A N 0.4756(4) -0.1588(4) 0.8783(4)
N5A_2 N 0.4756(4) 0.8412(4) -0.1217(4)
N6A N 0.5314(5) 0.0341(4) 0.7167(4)
C1A C 0.8179(5) 0.7354(5) -0.2988(5)
H1A H 0.7562 0.7493 -0.3590
C2A C 0.9291(5) 0.7223(5) -0.3117(5)
H2A H 0.9438 0.7262 -0.3800
C3A C 1.0204(5) 0.7032(5) -0.2237(5)
H3A H 1.0983 0.6939 -0.2308
C4A C 0.9961(5) 0.6982(4) -0.1259(5)
H4A H 1.0566 0.6852 -0.0643
C5A C 0.8816(5) 0.7124(4) -0.1196(4)
C6A C 0.8421(5) 0.7147(4) -0.0173(4)
C7A C 0.8881(5) 0.6783(4) 0.1699(4)
H5A H 0.9642 0.6990 0.2318
H6A H 0.8320 0.7303 0.1816
C8A C 0.8310(5) 0.5636(5) 0.1682(5)
H7A H 0.8304 0.5584 0.2439
H8A H 0.8825 0.5113 0.1461
C9A C 0.5015(5) 0.3043(4) 0.4366(4)
H9A H 0.4515 0.2393 0.4326
C10A C 0.5800(5) 0.3567(5) 0.5391(4)
H10A H 0.5830 0.3286 0.6037
C11A C 0.6532(5) 0.4505(5) 0.5437(5)
H11A H 0.7081 0.4878 0.6122
C12A C 0.6466(5) 0.4903(4) 0.4488(4)
H12A H 0.6969 0.5547 0.4511
C13A C 0.5646(5) 0.4339(4) 0.3498(4)
C14A C 0.5505(5) 0.4634(4) 0.2400(4)
C15A C 0.6088(5) 0.5889(4) 0.1326(4)
H13A H 0.6309 0.6682 0.1437
H14A H 0.5279 0.5680 0.0771
C16A C 0.7022(5) 0.5311(4) 0.0907(4)
H15A H 0.6796 0.4520 0.0806
H16A H 0.6999 0.5477 0.0177
C17A C 0.4055(5) -0.1874(5) 0.9388(5)
H17A H 0.4153 -0.2524 0.9661
C18A C 0.3194(6) -0.1267(5) 0.9633(5)
H18A H 0.2712 -0.1488 1.0067
C19A C 0.3065(6) -0.0330(5) 0.9225(5)
H19A H 0.2496 0.0113 0.9393
C20A C 0.3752(5) -0.0024(5) 0.8574(5)
H20A H 0.3651 0.0612 0.8276
C21A C 0.4594(5) -0.0679(4) 0.8373(4)
C22A C 0.5428(5) -0.0470(4) 0.7697(5)
C23A C 0.6072(6) 0.0602(5) 0.6480(5)
H21A H 0.6529 0.1338 0.6792
H22A H 0.6667 0.0086 0.6495
C24A C 0.5336(6) 0.0553(5) 0.5297(5)
H23A H 0.4743 0.1070 0.5288
H24A H 0.5886 0.0791 0.4889
H25A H 0.963(5) 0.657(4) 0.064(4)
H26A H 0.633(5) 0.611(4) 0.290(5)
H27A H 0.483(6) 0.070(5) 0.721(6)
Cl1 Cl 0.76776(12) 0.38010(11) 0.84015(11)
O4 O 0.8018(4) 0.3230(3) 0.7503(3)
O5 O 0.6960(6) 0.3078(4) 0.8770(5)
O6 O 0.7031(4) 0.4661(4) 0.8062(4)
O7 O 0.8748(4) 0.4286(4) 0.9294(4)
Cl2 Cl 0.24518(14) 0.17229(11) 0.59331(12)
O8 O 0.2414(5) 0.1061(4) 0.4945(4)
O10 O 0.1679(7) 0.1090(6) 0.6381(6)
O11 O 0.2102(6) 0.2741(5) 0.5866(5)
O12 O 0.3670(6) 0.1906(5) 0.6767(5)
C26 C 0.8645(11) 0.2599(10) 0.4931(10)
O21 O 0.7910(10) 0.1760(9) 0.4036(10)
O20 O 0.0839(14) -0.0404(11) 0.1326(12)
O9? O -0.0168(8) 0.4518(6) 0.5289(7)
C25? C -0.1105(7) 0.3589(7) 0.4522(7)
O13? O 1.012(2) -0.0139(18) 0.090(2)
O14? O 0.0256(18) -0.0297(16) 0.2199(17)
O15? O 0.757(2) 0.225(2) 0.354(2)
O16? O 0.3303(13) 0.2583(11) 0.5700(12)
O17? O 0.1452(15) 0.2321(13) 0.5929(13)
O18? O 0.2999(12) 0.1492(10) 0.6871(11)
O19? O 0.9736(10) -0.0035(8) 0.0359(9)
C27? C 0.8502(18) 0.1732(16) 0.5191(17)
loop_
_geom_bond_atom_site_label_1
_geom_bond_atom_site_label_2
_geom_bond_site_symmetry_1
_geom_bond_site_symmetry_2
Mn1 O1 1_555 1_555
Cl1 O4 1_555 1_555
Cl2 O8 1_555 1_555
O1 C6 1_555 1_555
O2 C14 1_555 1_555
O3 Mn1 1_555 1_555
O5 Cl1 1_555 1_555
O6 Cl1 1_555 1_555
O7 Cl1 1_555 1_555
N1 Mn1 1_555 1_555
N2 C6 1_555 1_555
N3 C9 1_555 1_555
N4 C14 1_555 1_555
N5 Mn1 1_555 1_555
N6 C22 1_555 1_555
C1 N1 1_555 1_555
H1 C1 1_555 1_555
C2 C1 1_555 1_555
H2 C2 1_555 1_555
C3 C2 1_555 1_555
H3 C3 1_555 1_555
C4 C3 1_555 1_555
H4 C4 1_555 1_555
C5 N1 1_555 1_555
C6 C5 1_555 1_555
C7 N2 1_555 1_555
H5 C7 1_555 1_555
H6 C7 1_555 1_555
C8 C7 1_555 1_555
H7 C8 1_555 1_555
H8 C8 1_555 1_555
C9 H9 1_555 1_555
C10 C9 1_555 1_555
H10 C10 1_555 1_555
C11 C10 1_555 1_555
H11 C11 1_555 1_555
C12 C11 1_555 1_555
H12 C12 1_555 1_555
C13 N3 1_555 1_555
C14 C13 1_555 1_555
C15 N4 1_555 1_555
H13 C15 1_555 1_555
H14 C15 1_555 1_555
C16 C8 1_555 1_555
H15 C16 1_555 1_555
H16 C16 1_555 1_555
C17 N5 1_555 1_555
H17 C17 1_555 1_555
C18 C17 1_555 1_555
H18 C18 1_555 1_555
C19 C18 1_555 1_555
H19 C19 1_555 1_555
C20 C19 1_555 1_555
H20 C20 1_555 1_555
C21 N5 1_555 1_555
C22 O3 1_555 1_555
C23 N6 1_555 1_555
H21 C23 1_555 1_555
H22 C23 1_555 1_555
C24 C23 1_555 1_555
H23 C24 1_555 1_555
H24 C24 1_555 1_555
O10 Cl2 1_555 1_555
O11 Cl2 1_555 1_555
O12 Cl2 1_555 1_555
C26 O21 1_555 1_555
H25 N2 1_555 1_555
H26 N4 1_555 1_555
H27 N6 1_555 1_555
Mn1A O2 1_555 1_555
Mn1A_2 O3A 1_555 1_555
O1A Mn1A 1_555 1_555
O2A Mn1 1_555 1_555
O3A C22A 1_555 1_555
O3A_2 Mn1A 1_555 1_555
N1A Mn1A 1_555 1_555
N2A C6A 1_555 1_555
N3A Mn1 1_555 1_555
N4A C14A 1_555 1_555
N5A Mn1A_2 1_555 1_555
N5A_2 Mn1A 1_555 1_555
N6A C22A 1_555 1_555
C1A N1A 1_555 1_555
H1A C1A 1_555 1_555
C2A C1A 1_555 1_555
H2A C2A 1_555 1_555
C3A C2A 1_555 1_555
H3A C3A 1_555 1_555
C4A C3A 1_555 1_555
H4A C4A 1_555 1_555
C5A N1A 1_555 1_555
C6A O1A 1_555 1_555
C7A N2A 1_555 1_555
H5A C7A 1_555 1_555
H6A C7A 1_555 1_555
C8A C7A 1_555 1_555
H7A C8A 1_555 1_555
H8A C8A 1_555 1_555
C9A N3A 1_555 1_555
H9A C9A 1_555 1_555
C10A C9A 1_555 1_555
H10A C10A 1_555 1_555
C11A C10A 1_555 1_555
H11A C11A 1_555 1_555
C12A C11A 1_555 1_555
H12A C12A 1_555 1_555
C13A N3A 1_555 1_555
C14A O2A 1_555 1_555
C15A N4A 1_555 1_555
H13A C15A 1_555 1_555
H14A C15A 1_555 1_555
C16A C8A 1_555 1_555
H15A C16A 1_555 1_555
H16A C16A 1_555 1_555
C17A N5A 1_555 1_555
H17A C17A 1_555 1_555
C18A C17A 1_555 1_555
H18A C18A 1_555 1_555
C19A C18A 1_555 1_555
H19A C19A 1_555 1_555
C20A C19A 1_555 1_555
H20A C20A 1_555 1_555
C21A N5A 1_555 1_555
C22A C21A 1_555 1_555
C23A N6A 1_555 1_555
H21A C23A 1_555 1_555
H22A C23A 1_555 1_555
C24A C24 1_555 1_555
H23A C24A 1_555 1_555
H24A C24A 1_555 1_555
H25A N2A 1_555 1_555
H26A N4A 1_555 1_555
H27A N6A 1_555 1_555
N3 Mn1A 1_555 1_555
C4 C5 1_555 1_555
C12 C13 1_555 1_555
C15 C16 1_555 1_555
C20 C21 1_555 1_555
C21 C22 1_555 1_555
C4A C5A 1_555 1_555
C5A C6A 1_555 1_555
C12A C13A 1_555 1_555
C13A C14A 1_555 1_555
C15A C16A 1_555 1_555
C20A C21A 1_555 1_555
C23A C24A 1_555 1_555

#END
