
#######################################################################
#
#                 Cambridge Crystallographic Data Centre
#                                CCDC 
#
#######################################################################
#
# If this CIF has been generated from an entry in the Cambridge 
# Structural Database, then it will include bibliographic, chemical, 
# crystal, experimental, refinement or atomic coordinate data resulting 
# from the CCDC's data processing and validation procedures.
#
#######################################################################

data_WIVNAR
_symmetry_cell_setting           monoclinic
_symmetry_space_group_name_H-M   'P 21/c'
_symmetry_Int_Tables_number      14
_space_group_name_Hall           '-P 2ybc'
loop_
_symmetry_equiv_pos_site_id
_symmetry_equiv_pos_as_xyz
1 x,y,z
2 -x,1/2+y,1/2-z
3 -x,-y,-z
4 x,1/2-y,1/2+z
_cell_length_a                   9.677(5)
_cell_length_b                   13.126(5)
_cell_length_c                   9.450(5)
_cell_angle_alpha                90
_cell_angle_beta                 117.110(5)
_cell_angle_gamma                90
_cell_volume                     1068.46
loop_
_atom_site_label
_atom_site_type_symbol
_atom_site_fract_x
_atom_site_fract_y
_atom_site_fract_z
Co1 Co 0.0000 0.0000 0.0000
O1 O -0.1315(2) -0.02161(13) 0.1164(2)
O2 O -0.2038(2) 0.00045(13) -0.2222(2)
N1 N 0.0009(2) -0.16052(16) 0.0169(2)
N2 N -0.2766(2) -0.13544(17) 0.1671(3)
C1 C 0.0863(3) -0.22706(19) -0.0161(3)
H1 H 0.1613(3) -0.19891(19) -0.0644(3)
C2 C 0.0829(3) -0.33140(19) 0.0092(3)
H2 H 0.1552(3) -0.3833(2) -0.0171(3)
C3 C -0.0147(3) -0.36734(19) 0.0684(3)
H3 H -0.0206(3) -0.4481(2) 0.0886(3)
C4 C -0.1054(3) -0.29827(18) 0.1016(3)
H4 H -0.1844(3) -0.32445(19) 0.1462(3)
C5 C -0.0927(3) -0.19607(18) 0.0766(3)
C6 C -0.1714(3) -0.11190(18) 0.1208(3)
C7 C -0.3638(3) -0.05909(19) 0.2066(3)
H5 H -0.2926(3) 0.0081(2) 0.2540(3)
H6 H -0.3912(3) -0.08915(19) 0.2976(3)
C8 C -0.5129(3) -0.02975(19) 0.0621(3)
H7 H -0.5830(3) 0.0158(2) 0.1005(3)
H8 H -0.5775(3) -0.0983(2) 0.0077(3)
H9 H -0.311(4) -0.194(2) 0.162(4)
H10 H -0.263(4) 0.0720(14) -0.267(5)
H11 H -0.296(4) -0.056(3) -0.267(5)
Co1_2 Co -1.0000 0.0000 0.0000
O1B O -0.8685(2) 0.02161(13) -0.1164(2)
O1B_2 O 0.1315(2) 0.02161(13) -0.1164(2)
O2B O 0.2038(2) -0.00045(13) 0.2222(2)
N1B N -1.0009(2) 0.16052(16) -0.0169(2)
N1B_2 N -0.0009(2) 0.16052(16) -0.0169(2)
N2B N -0.7234(2) 0.13544(17) -0.1671(3)
C1B C -1.0863(3) 0.22706(19) 0.0161(3)
H1B H -1.1613(3) 0.19891(19) 0.0644(3)
C2B C -1.0829(3) 0.33140(19) -0.0092(3)
H2B H -1.1552(3) 0.3833(2) 0.0171(3)
C3B C -0.9853(3) 0.36734(19) -0.0684(3)
H3B H -0.9794(3) 0.4481(2) -0.0886(3)
C4B C -0.8946(3) 0.29827(18) -0.1016(3)
H4B H -0.8156(3) 0.32445(19) -0.1462(3)
C5B C -0.9073(3) 0.19607(18) -0.0766(3)
C6B C -0.8286(3) 0.11190(18) -0.1208(3)
C7B C -0.6362(3) 0.05909(19) -0.2066(3)
H5B H -0.7074(3) -0.0081(2) -0.2540(3)
H6B H -0.6088(3) 0.08915(19) -0.2976(3)
C8B C -0.4871(3) 0.02975(19) -0.0621(3)
H7B H -0.4170(3) -0.0158(2) -0.1005(3)
H8B H -0.4225(3) 0.0983(2) -0.0077(3)
H9B H -0.689(4) 0.194(2) -0.162(4)
H10B H 0.263(4) -0.0720(14) 0.267(5)
H11B H 0.296(4) 0.056(3) 0.267(5)
Cl1 Cl -0.45158(7) -0.17350(5) -0.29641(8)
O3 O -0.6542(2) -0.18406(15) -0.6659(2)
H12 H -0.583(4) -0.212(3) -0.719(5)
H13 H -0.580(8) -0.174(6) -0.540(2)
loop_
_geom_bond_atom_site_label_1
_geom_bond_atom_site_label_2
_geom_bond_site_symmetry_1
_geom_bond_site_symmetry_2
Co1 O1 1_555 1_555
O1 C6 1_555 1_555
O2 Co1 1_555 1_555
O3 H12 1_555 1_555
N1 Co1 1_555 1_555
N2 C6 1_555 1_555
C1 N1 1_555 1_555
H1 C1 1_555 1_555
C2 C1 1_555 1_555
H2 C2 1_555 1_555
C3 C2 1_555 1_555
H3 C3 1_555 1_555
C4 C3 1_555 1_555
H4 C4 1_555 1_555
C5 N1 1_555 1_555
C6 C5 1_555 1_555
C7 N2 1_555 1_555
H5 C7 1_555 1_555
H6 C7 1_555 1_555
C8 C7 1_555 1_555
H7 C8 1_555 1_555
H8 C8 1_555 1_555
H9 N2 1_555 1_555
H10 O2 1_555 1_555
H11 O2 1_555 1_555
H13 O3 1_555 1_555
Co1_2 O1B 1_555 1_555
O1B C6B 1_555 1_555
O1B_2 Co1 1_555 1_555
O2B Co1 1_555 1_555
N1B Co1_2 1_555 1_555
N1B_2 Co1 1_555 1_555
N2B C6B 1_555 1_555
C1B N1B 1_555 1_555
H1B C1B 1_555 1_555
C2B C1B 1_555 1_555
H2B C2B 1_555 1_555
C3B C2B 1_555 1_555
H3B C3B 1_555 1_555
C4B C3B 1_555 1_555
H4B C4B 1_555 1_555
C5B N1B 1_555 1_555
C6B C5B 1_555 1_555
C7B N2B 1_555 1_555
H5B C7B 1_555 1_555
H6B C7B 1_555 1_555
C8B C8 1_555 1_555
H7B C8B 1_555 1_555
H8B C8B 1_555 1_555
H9B N2B 1_555 1_555
H10B O2B 1_555 1_555
H11B O2B 1_555 1_555
C4 C5 1_555 1_555
C4B C5B 1_555 1_555
C7B C8B 1_555 1_555

#END
