
#######################################################################
#
#                 Cambridge Crystallographic Data Centre
#                                CCDC 
#
#######################################################################
#
# If this CIF has been generated from an entry in the Cambridge 
# Structural Database, then it will include bibliographic, chemical, 
# crystal, experimental, refinement or atomic coordinate data resulting 
# from the CCDC's data processing and validation procedures.
#
#######################################################################

data_WIVPAT
_symmetry_cell_setting           monoclinic
_symmetry_space_group_name_H-M   'C 2/c'
_symmetry_Int_Tables_number      15
_space_group_name_Hall           '-C 2yn'
loop_
_symmetry_equiv_pos_site_id
_symmetry_equiv_pos_as_xyz
1 x,y,z
2 1/2+x,1/2+y,z
3 -x,y,1/2-z
4 1/2-x,1/2+y,1/2-z
5 -x,-y,-z
6 1/2-x,1/2-y,-z
7 x,-y,1/2+z
8 1/2+x,1/2-y,1/2+z
_cell_length_a                   16.181(5)
_cell_length_b                   14.222(3)
_cell_length_c                   9.170(3)
_cell_angle_alpha                90
_cell_angle_beta                 114.82(3)
_cell_angle_gamma                90
_cell_volume                     1915.33
loop_
_atom_site_label
_atom_site_type_symbol
_atom_site_fract_x
_atom_site_fract_y
_atom_site_fract_z
Br1 Br 0.0000 0.45894(5) 0.2500
Br2 Br 0.0000 0.11682(5) 0.2500
Cu1 Cu 0.0000 0.28388(8) 0.2500
Cu2 Cu 0.0000 0.64591(7) 0.2500
O1 O 0.1100(2) 0.2887(2) 0.4497(4)
O2 O 0.00975(19) 0.3043(2) 0.5549(4)
N1 N 0.1364(2) 0.3541(3) 0.8367(4)
C1 C 0.0901(3) 0.3055(3) 0.5656(5)
C2 C 0.1651(3) 0.3286(3) 0.7260(6)
C3 C 0.2577(3) 0.3245(4) 0.7546(6)
H1 H 0.2752 0.3079 0.6711
C4 C 0.3215(3) 0.3450(3) 0.9049(6)
H2 H 0.3844 0.3409 0.9282
C5 C 0.2943(3) 0.3722(3) 1.0256(5)
C6 C 0.1988(3) 0.3784(3) 0.9873(5)
C7 C 0.3574(3) 0.3941(3) 1.1847(6)
H3 H 0.4208 0.3908 1.2121
C8 C 0.3284(3) 0.4199(3) 1.2992(6)
H4 H 0.3715 0.4330 1.4057
C9 C 0.2340(3) 0.4270(3) 1.2589(5)
H5 H 0.2142 0.4450 1.3388
C10 C 0.1709(3) 0.4082(3) 1.1059(6)
H6 H 0.1079 0.4154 1.0797
Cu2F Cu 0.0000 0.35409(7) 0.7500
Cu2F_2 Cu 0.0000 0.35409(7) -0.2500
O1B O -0.1100(2) 0.2887(2) 0.0503(4)
O2B O -0.00975(19) 0.3043(2) -0.0549(4)
O2F O 0.00975(19) 0.6957(2) 0.0549(4)
O2D O -0.00975(19) 0.6957(2) 0.4451(4)
N1B N -0.1364(2) 0.3541(3) -0.3367(4)
N1F N 0.1364(2) 0.6459(3) 0.3367(4)
N1D N -0.1364(2) 0.6459(3) 0.1633(4)
C1B C -0.0901(3) 0.3055(3) -0.0656(5)
C2B C -0.1651(3) 0.3286(3) -0.2260(6)
C3B C -0.2577(3) 0.3245(4) -0.2546(6)
H1B H -0.2752 0.3079 -0.1711
C4B C -0.3215(3) 0.3450(3) -0.4049(6)
H2B H -0.3844 0.3409 -0.4282
C5B C -0.2943(3) 0.3722(3) -0.5256(5)
C6B C -0.1988(3) 0.3784(3) -0.4873(5)
C7B C -0.3574(3) 0.3941(3) -0.6847(6)
H3B H -0.4208 0.3908 -0.7121
C8B C -0.3284(3) 0.4199(3) -0.7992(6)
H4B H -0.3715 0.4330 -0.9057
C9B C -0.2340(3) 0.4270(3) -0.7589(5)
H5B H -0.2142 0.4450 -0.8388
C10B C -0.1709(3) 0.4082(3) -0.6059(6)
H6B H -0.1079 0.4154 -0.5797
loop_
_geom_bond_atom_site_label_1
_geom_bond_atom_site_label_2
_geom_bond_site_symmetry_1
_geom_bond_site_symmetry_2
Br1 Cu1 1_555 1_555
Br2 Cu1 1_555 1_555
Cu1 O1 1_555 1_555
Cu2 Br1 1_555 1_555
O1 C1 1_555 1_555
O2 C1 1_555 1_555
N1 C2 1_555 1_555
C1 C2 1_555 1_555
C2 C3 1_555 1_555
C3 H1 1_555 1_555
C4 C3 1_555 1_555
H2 C4 1_555 1_555
C5 C4 1_555 1_555
C6 N1 1_555 1_555
C7 C5 1_555 1_555
H3 C7 1_555 1_555
C8 C7 1_555 1_555
H4 C8 1_555 1_555
C9 C8 1_555 1_555
H5 C9 1_555 1_555
C10 C6 1_555 1_555
H6 C10 1_555 1_555
Cu2F O2 1_555 1_555
Cu2F_2 O2B 1_555 1_555
O1B Cu1 1_555 1_555
O2B C1B 1_555 1_555
O2F Cu2 1_555 1_555
O2D Cu2 1_555 1_555
N1B Cu2F_2 1_555 1_555
N1F Cu2 1_555 1_555
N1D Cu2 1_555 1_555
C1B O1B 1_555 1_555
C2B N1B 1_555 1_555
C3B C2B 1_555 1_555
H1B C3B 1_555 1_555
C4B C3B 1_555 1_555
H2B C4B 1_555 1_555
C5B C4B 1_555 1_555
C6B N1B 1_555 1_555
C7B C5B 1_555 1_555
H3B C7B 1_555 1_555
C8B C7B 1_555 1_555
H4B C8B 1_555 1_555
C9B C8B 1_555 1_555
H5B C9B 1_555 1_555
C10B C6B 1_555 1_555
H6B C10B 1_555 1_555
N1 Cu2F 1_555 1_555
C5 C6 1_555 1_555
C9 C10 1_555 1_555
C1B C2B 1_555 1_555
C5B C6B 1_555 1_555
C9B C10B 1_555 1_555

#END
