
#######################################################################
#
#                 Cambridge Crystallographic Data Centre
#                                CCDC 
#
#######################################################################
#
# If this CIF has been generated from an entry in the Cambridge 
# Structural Database, then it will include bibliographic, chemical, 
# crystal, experimental, refinement or atomic coordinate data resulting 
# from the CCDC's data processing and validation procedures.
#
#######################################################################

data_WIVPEX
_symmetry_cell_setting           tetragonal
_symmetry_space_group_name_H-M   'P 42/n'
_symmetry_Int_Tables_number      86
_space_group_name_Hall           '-P 4bc'
loop_
_symmetry_equiv_pos_site_id
_symmetry_equiv_pos_as_xyz
1 x,y,z
2 -y,1/2+x,1/2+z
3 1/2+y,-x,1/2+z
4 1/2-x,1/2-y,z
5 -x,-y,-z
6 y,1/2-x,1/2-z
7 1/2-y,x,1/2-z
8 1/2+x,1/2+y,-z
_cell_length_a                   9.792(3)
_cell_length_b                   9.792(3)
_cell_length_c                   15.381(3)
_cell_angle_alpha                90
_cell_angle_beta                 90
_cell_angle_gamma                90
_cell_volume                     1474.78
loop_
_atom_site_label
_atom_site_type_symbol
_atom_site_fract_x
_atom_site_fract_y
_atom_site_fract_z
Br1 Br -0.05972(3) 0.26846(3) 0.206690(17)
Cu1 Cu -0.26484(3) 0.06290(3) 0.21839(2)
O1 O -0.29759(17) 0.02473(18) 0.34676(12)
O2 O -0.42661(18) -0.11902(17) 0.27119(12)
N1 N -0.5153(2) -0.2470(2) 0.40832(16)
C1 C -0.4228(3) -0.1475(3) 0.42335(18)
C2 C -0.3736(3) -0.1195(3) 0.50584(18)
H1 H -0.3083 -0.0492 0.5148
C3 C -0.4219(3) -0.1967(3) 0.57538(19)
H2 H -0.3900 -0.1797 0.6327
C4 C -0.5166(3) -0.2978(3) 0.56001(19)
H3 H -0.5508 -0.3514 0.6066
C5 C -0.5615(3) -0.3205(3) 0.47571(18)
H4 H -0.6270 -0.3903 0.4654
C6 C -0.3792(3) -0.0744(3) 0.34261(18)
Br1C Br -0.44028(3) 0.23154(3) 0.206690(17)
Cu1C Cu -0.23516(3) 0.43710(3) 0.21839(2)
Cu1F Cu -0.56290(3) -0.26484(3) 0.28161(2)
O2E O -0.11902(17) -0.07339(18) 0.22881(12)
N1E N -0.2470(2) 0.0153(2) 0.09168(16)
loop_
_geom_bond_atom_site_label_1
_geom_bond_atom_site_label_2
_geom_bond_site_symmetry_1
_geom_bond_site_symmetry_2
Br1 Cu1 1_555 1_555
Cu1 O1 1_555 1_555
O1 C6 1_555 1_555
O2 Cu1 1_555 1_555
N1 C1 1_555 1_555
C1 C2 1_555 1_555
C2 H1 1_555 1_555
C3 C2 1_555 1_555
H2 C3 1_555 1_555
C4 C3 1_555 1_555
H3 C4 1_555 1_555
C5 N1 1_555 1_555
H4 C5 1_555 1_555
C6 O2 1_555 1_555
Br1C Cu1 1_555 1_555
Cu1C Br1 1_555 1_555
Cu1F O2 1_555 1_555
O2E Cu1 1_555 1_555
N1E Cu1 1_555 1_555
N1 Cu1F 1_555 1_555
C1 C6 1_555 1_555
C4 C5 1_555 1_555
Br1C Cu1C 1_555 1_555

#END
