
#######################################################################
#
#                 Cambridge Crystallographic Data Centre
#                                CCDC 
#
#######################################################################
#
# If this CIF has been generated from an entry in the Cambridge 
# Structural Database, then it will include bibliographic, chemical, 
# crystal, experimental, refinement or atomic coordinate data resulting 
# from the CCDC's data processing and validation procedures.
#
#######################################################################

data_WIVRIE
_symmetry_cell_setting           orthorhombic
_symmetry_space_group_name_H-M   'F d d 2'
_symmetry_Int_Tables_number      43
_space_group_name_Hall           'F 2 -2d'
loop_
_symmetry_equiv_pos_site_id
_symmetry_equiv_pos_as_xyz
1 x,y,z
2 -x,-y,z
3 1/4+x,1/4-y,1/4+z
4 1/4-x,1/4+y,1/4+z
5 x,1/2+y,1/2+z
6 -x,1/2-y,1/2+z
7 1/4+x,3/4-y,3/4+z
8 1/4-x,3/4+y,3/4+z
9 1/2+x,y,1/2+z
10 1/2-x,-y,1/2+z
11 3/4+x,1/4-y,3/4+z
12 3/4-x,1/4+y,3/4+z
13 1/2+x,1/2+y,z
14 1/2-x,1/2-y,z
15 3/4+x,3/4-y,1/4+z
16 3/4-x,3/4+y,1/4+z
_cell_length_a                   37.322(13)
_cell_length_b                   72.64(2)
_cell_length_c                   7.074(2)
_cell_angle_alpha                90
_cell_angle_beta                 90
_cell_angle_gamma                90
_cell_volume                     19178.1
loop_
_atom_site_label
_atom_site_type_symbol
_atom_site_fract_x
_atom_site_fract_y
_atom_site_fract_z
Cd1 Cd 0.381444(16) 0.069507(10) 0.49306(10)
C1 C 0.1546(3) 0.06193(18) 1.375(2)
C2 C 0.1781(3) 0.06366(19) 1.1976(19)
H1 H 0.1752 0.0530 1.1162
H2 H 0.1720 0.0747 1.1268
C3 C 0.2403(3) 0.06633(17) 1.1375(17)
C4 C 0.2352(4) 0.0690(2) 0.945(2)
H3 H 0.2121 0.0698 0.8967
C5 C 0.2644(4) 0.0705(2) 0.826(2)
H4 H 0.2609 0.0723 0.6970
C6 C 0.2987(3) 0.06943(15) 0.8968(17)
C7 C 0.3039(4) 0.06668(16) 1.0897(18)
H5 H 0.3270 0.0659 1.1383
C8 C 0.2745(3) 0.06510(17) 1.2097(18)
H6 H 0.2780 0.0632 1.3385
C9 C 0.3311(2) 0.06798(13) 0.7638(17)
C10 C 0.1625(4) 0.0410(2) 1.439(2)
H7 H 0.1537 0.0324 1.3454
H8 H 0.1880 0.0391 1.4567
C11 C 0.1404(5) 0.0206(2) 1.654(3)
C12 C 0.1458(4) 0.0056(2) 1.535(3)
H9 H 0.1528 0.0075 1.4101
C13 C 0.1407(4) -0.0122(2) 1.602(2)
H10 H 0.1443 -0.0222 1.5225
C14 C 0.1302(4) -0.01496(19) 1.787(2)
C15 C 0.1248(4) 0.0001(2) 1.907(3)
H11 H 0.1178 -0.0018 2.0315
C16 C 0.1299(5) 0.0178(3) 1.840(3)
H12 H 0.1263 0.0278 1.9195
C17 C 0.1253(3) -0.03299(18) 1.869(2)
C18 C 0.1630(4) 0.07352(18) 1.555(2)
H13 H 0.1453 0.0715 1.6538
H14 H 0.1867 0.0709 1.6041
C19 C 0.1552(6) 0.1043(3) 1.644(3)
C20 C 0.1613(6) 0.1016(3) 1.834(3)
H15 H 0.1703 0.0903 1.8756
C21 C 0.1543(5) 0.1153(3) 1.963(3)
H16 H 0.1586 0.1133 2.0906
C22 C 0.1409(5) 0.1321(2) 1.902(3)
C23 C 0.1350(5) 0.1348(2) 1.711(3)
H17 H 0.1263 0.1460 1.6687
C24 C 0.1417(5) 0.1210(3) 1.583(3)
H18 H 0.1373 0.1230 1.4555
C25 C 0.1348(4) 0.14856(18) 2.026(2)
C26 C 0.1140(4) 0.0648(2) 1.322(3)
H19 H 0.0995 0.0572 1.4044
H20 H 0.1076 0.0775 1.3455
C27 C 0.0707(5) 0.0616(3) 1.081(3)
C28 C 0.0439(6) 0.0693(3) 1.188(4)
H21 H 0.0492 0.0740 1.3071
C29 C 0.0093(7) 0.0699(3) 1.122(4)
H22 H -0.0086 0.0751 1.1960
C30 C 0.0010(5) 0.0628(3) 0.946(3)
C31 C 0.0280(5) 0.0551(3) 0.838(3)
H23 H 0.0227 0.0503 0.7193
C32 C 0.0624(6) 0.0545(3) 0.904(3)
H24 H 0.0804 0.0494 0.8295
C33 C -0.0368(5) 0.0631(2) 0.886(3)
O1 O 0.21417(18) 0.06472(10) 1.2672(12)
O2 O 0.36160(15) 0.06743(9) 0.8126(9)
O3 O 0.32280(19) 0.06945(12) 0.5833(13)
O4 O 0.1445(3) 0.03929(17) 1.605(2)
O5 O 0.1173(2) -0.03471(12) 2.0329(14)
O6 O 0.1261(2) -0.04688(11) 1.7645(14)
O7 O 0.1606(3) 0.09172(17) 1.4778(19)
O8 O 0.1334(3) 0.14660(15) 2.2060(17)
O9 O 0.1337(2) 0.16441(10) 1.9562(12)
O10 O 0.1062(3) 0.06083(16) 1.1474(18)
O11 O -0.0597(3) 0.06752(14) 1.0211(19)
O12 O -0.0446(3) 0.06137(15) 0.7045(18)
Cd2 Cd 0.40744(2) 0.062730(13) 1.03402(11)
O13 O 0.4229(3) 0.03721(13) 0.8698(14)
O14 O 0.4419(3) 0.08040(18) 0.8422(18)
Cd1H Cd -0.118556(16) 0.069507(10) 0.99306(10)
Cd1I Cd 0.118556(16) -0.069507(10) 1.99306(10)
Cd1J Cd 0.131444(16) 0.180493(10) 2.24306(10)
O5I O 0.3827(2) 0.03471(12) 0.5329(14)
O6I O 0.3739(2) 0.04688(11) 0.2645(14)
O6I_2 O 0.3739(2) 0.04688(11) 1.2645(14)
O8B O 0.3834(3) 0.10340(15) 0.4560(17)
O9B O 0.3837(2) 0.08559(10) 0.2062(12)
O9B_2 O 0.3837(2) 0.08559(10) 1.2062(12)
O11H O 0.4403(3) 0.06752(14) 0.5211(19)
O12H O 0.4554(3) 0.06137(15) 1.2045(18)
Cd2H Cd -0.09256(2) 0.062730(13) 0.53402(11)
Cd2I Cd 0.09256(2) -0.062730(13) 1.53402(11)
Cd2J Cd 0.15744(2) 0.187270(13) 1.78402(11)
loop_
_geom_bond_atom_site_label_1
_geom_bond_atom_site_label_2
_geom_bond_site_symmetry_1
_geom_bond_site_symmetry_2
Cd1 O2 1_555 1_555
C1 C2 1_555 1_555
C2 H1 1_555 1_555
H2 C2 1_555 1_555
C3 C4 1_555 1_555
C4 H3 1_555 1_555
C5 C4 1_555 1_555
H4 C5 1_555 1_555
C6 C5 1_555 1_555
C7 C6 1_555 1_555
H5 C7 1_555 1_555
C8 C3 1_555 1_555
H6 C8 1_555 1_555
C9 C6 1_555 1_555
C10 C1 1_555 1_555
H7 C10 1_555 1_555
H8 C10 1_555 1_555
C11 C12 1_555 1_555
C12 H9 1_555 1_555
C13 C12 1_555 1_555
H10 C13 1_555 1_555
C14 C13 1_555 1_555
C15 C14 1_555 1_555
H11 C15 1_555 1_555
C16 C11 1_555 1_555
H12 C16 1_555 1_555
C17 C14 1_555 1_555
C18 C1 1_555 1_555
H13 C18 1_555 1_555
H14 C18 1_555 1_555
C19 C20 1_555 1_555
C20 H15 1_555 1_555
C21 C20 1_555 1_555
H16 C21 1_555 1_555
C22 C21 1_555 1_555
C23 C22 1_555 1_555
H17 C23 1_555 1_555
C24 C19 1_555 1_555
H18 C24 1_555 1_555
C25 C22 1_555 1_555
C26 C1 1_555 1_555
H19 C26 1_555 1_555
H20 C26 1_555 1_555
C27 C28 1_555 1_555
C28 H21 1_555 1_555
C29 C28 1_555 1_555
H22 C29 1_555 1_555
C30 C29 1_555 1_555
C31 C30 1_555 1_555
H23 C31 1_555 1_555
C32 C27 1_555 1_555
H24 C32 1_555 1_555
C33 C30 1_555 1_555
O1 C2 1_555 1_555
O2 C9 1_555 1_555
O3 Cd1 1_555 1_555
O4 C10 1_555 1_555
O5 C17 1_555 1_555
O6 C17 1_555 1_555
O7 C18 1_555 1_555
O8 C25 1_555 1_555
O9 C25 1_555 1_555
O10 C26 1_555 1_555
O11 C33 1_555 1_555
O12 C33 1_555 1_555
Cd2 O2 1_555 1_555
O13 Cd2 1_555 1_555
O14 Cd2 1_555 1_555
Cd1H O11 1_555 1_555
Cd1I O5 1_555 1_555
Cd1J O8 1_555 1_555
O5I Cd1 1_555 1_555
O6I Cd1 1_555 1_555
O6I_2 Cd2 1_555 1_555
O8B Cd1 1_555 1_555
O9B Cd1 1_555 1_555
O9B_2 Cd2 1_555 1_555
O11H Cd1 1_555 1_555
O12H Cd2 1_555 1_555
Cd2H O12 1_555 1_555
Cd2I O6 1_555 1_555
Cd2J O9 1_555 1_555
C3 O1 1_555 1_555
C7 C8 1_555 1_555
C9 O3 1_555 1_555
C11 O4 1_555 1_555
C15 C16 1_555 1_555
C19 O7 1_555 1_555
C23 C24 1_555 1_555
C27 O10 1_555 1_555
C31 C32 1_555 1_555
O6 Cd1I 1_555 1_555
O9 Cd1J 1_555 1_555

#END
