
#######################################################################
#
#                 Cambridge Crystallographic Data Centre
#                                CCDC 
#
#######################################################################
#
# If this CIF has been generated from an entry in the Cambridge 
# Structural Database, then it will include bibliographic, chemical, 
# crystal, experimental, refinement or atomic coordinate data resulting 
# from the CCDC's data processing and validation procedures.
#
#######################################################################

data_WIVROJ
_symmetry_cell_setting           monoclinic
_symmetry_space_group_name_H-M   'P 21/c'
_symmetry_Int_Tables_number      14
_space_group_name_Hall           '-P 2ybc'
loop_
_symmetry_equiv_pos_site_id
_symmetry_equiv_pos_as_xyz
1 x,y,z
2 -x,1/2+y,1/2-z
3 -x,-y,-z
4 x,1/2-y,1/2+z
_cell_length_a                   9.013(3)
_cell_length_b                   16.404(6)
_cell_length_c                   19.319(7)
_cell_angle_alpha                90
_cell_angle_beta                 98.196(6)
_cell_angle_gamma                90
_cell_volume                     2827.13
loop_
_atom_site_label
_atom_site_type_symbol
_atom_site_fract_x
_atom_site_fract_y
_atom_site_fract_z
Cu1 Cu 0.54926(10) 0.36766(5) 0.08877(5)
Cu2 Cu 1.0000 0.5000 0.0000
N1 N 0.7142(6) 0.3300(3) 0.0420(3)
N2 N 0.4592(8) 0.2613(4) 0.0881(4)
N3 N 0.3729(7) 0.4030(4) 0.1274(4)
N4 N 0.6194(6) 0.4780(3) 0.0773(3)
O1 O 0.9198(6) 0.3917(3) 0.0077(3)
O2 O 0.8101(6) 0.5343(3) 0.0259(3)
O3 O 0.3382(10) 0.0902(4) 0.0343(6)
O4 O 0.4607(11) 0.0852(5) 0.1439(6)
O5 O 0.0719(8) 0.5001(4) 0.1286(5)
O6 O 0.2058(8) 0.4889(4) 0.2349(5)
C1 C 0.7517(8) 0.2477(4) 0.0286(4)
C2 C 0.8803(10) 0.2273(5) -0.0012(5)
H1 H 0.9417 0.2687 -0.0138
C3 C 0.9173(12) 0.1480(5) -0.0121(7)
H2 H 1.0044 0.1365 -0.0310
C4 C 0.8287(12) 0.0852(6) 0.0042(6)
H3 H 0.8548 0.0313 -0.0027
C5 C 0.6992(11) 0.1043(5) 0.0314(6)
H4 H 0.6370 0.0619 0.0412
C6 C 0.6567(9) 0.1842(4) 0.0449(5)
C7 C 0.5139(11) 0.1938(5) 0.0724(5)
C8 C 0.2944(18) 0.2695(7) 0.1032(10)
H5 H 0.2273 0.2735 0.0594
H6 H 0.2672 0.2214 0.1277
C9 C 0.2799(14) 0.3333(7) 0.1406(10)
H7 H 0.1749 0.3482 0.1416
C10 C 0.3352(8) 0.4761(5) 0.1388(4)
C11 C 0.4204(8) 0.5505(5) 0.1268(4)
C12 C 0.3611(9) 0.6251(5) 0.1467(4)
H8 H 0.2722 0.6245 0.1659
C13 C 0.4288(10) 0.6981(5) 0.1389(5)
H9 H 0.3856 0.7465 0.1513
C14 C 0.5599(10) 0.6986(5) 0.1129(5)
H10 H 0.6082 0.7480 0.1082
C15 C 0.6246(9) 0.6267(4) 0.0930(4)
H11 H 0.7154 0.6292 0.0755
C16 C 0.5567(8) 0.5515(4) 0.0986(4)
C17 C 0.7382(7) 0.4759(4) 0.0460(4)
C18 C 0.7971(8) 0.3925(4) 0.0303(4)
C19 C 0.4278(16) 0.1153(6) 0.0810(9)
C20 C 0.373(2) 0.0135(7) 0.1682(13)
H12 H 0.2729 0.0113 0.1419
H13 H 0.3642 0.0189 0.2175
C21 C 0.461(3) -0.0634(7) 0.1553(18)
H14 H 0.4082 -0.1106 0.1678
H15 H 0.5583 -0.0614 0.1832
H16 H 0.4731 -0.0664 0.1067
C22 C 0.3579(16) 0.2872(11) 0.2138(8)
H17 H 0.2983 0.2409 0.2228
H18 H 0.3630 0.3247 0.2523
H19 H 0.4571 0.2695 0.2085
C23 C 0.1881(13) 0.4910(6) 0.1680(8)
C24 C 0.0618(16) 0.5036(10) 0.2642(8)
H20 H 0.0326 0.5605 0.2599
H21 H -0.0188 0.4703 0.2406
C25 C 0.098(2) 0.481(2) 0.3348(11)
H22 H 0.0110 0.4875 0.3580
H23 H 0.1775 0.5146 0.3570
H24 H 0.1286 0.4248 0.3376
Cl1 Cl 0.8350(4) 0.2961(3) 0.2305(2)
O7 O 0.7140(13) 0.3557(7) 0.2054(5)
O8 O 0.7666(14) 0.2204(8) 0.2150(6)
O9 O 0.9522(10) 0.3075(7) 0.1964(5)
O10 O 0.8697(13) 0.3013(8) 0.3014(5)
Cu1B Cu 1.45074(10) 0.63234(5) -0.08877(5)
Cu2_2 Cu 0.0000 0.5000 0.0000
Cu2_3 Cu 2.0000 0.5000 0.0000
N1B N 1.2858(6) 0.6700(3) -0.0420(3)
N2B N 1.5408(8) 0.7387(4) -0.0881(4)
N3B N 1.6271(7) 0.5970(4) -0.1274(4)
N4B N 1.3806(6) 0.5220(3) -0.0773(3)
O1B O 1.0802(6) 0.6083(3) -0.0077(3)
O2B O 1.1899(6) 0.4657(3) -0.0259(3)
O3B O 1.6618(10) 0.9098(4) -0.0343(6)
O4B O 1.5393(11) 0.9148(5) -0.1439(6)
O5B O 1.9281(8) 0.4999(4) -0.1286(5)
O5_2 O 1.0719(8) 0.5001(4) 0.1286(5)
O5B_2 O 0.9281(8) 0.4999(4) -0.1286(5)
O6B O 1.7942(8) 0.5111(4) -0.2349(5)
C1B C 1.2483(8) 0.7523(4) -0.0286(4)
C2B C 1.1197(10) 0.7727(5) 0.0012(5)
H1B H 1.0583 0.7313 0.0138
C3B C 1.0827(12) 0.8520(5) 0.0121(7)
H2B H 0.9956 0.8635 0.0310
C4B C 1.1713(12) 0.9148(6) -0.0042(6)
H3B H 1.1452 0.9687 0.0027
C5B C 1.3008(11) 0.8957(5) -0.0314(6)
H4B H 1.3630 0.9381 -0.0412
C6B C 1.3433(9) 0.8158(4) -0.0449(5)
C7B C 1.4861(11) 0.8062(5) -0.0724(5)
C8B C 1.7056(18) 0.7305(7) -0.1032(10)
H5B H 1.7727 0.7265 -0.0594
H6B H 1.7328 0.7786 -0.1277
C9B C 1.7201(14) 0.6667(7) -0.1406(10)
H7B H 1.8251 0.6518 -0.1416
C10B C 1.6648(8) 0.5239(5) -0.1388(4)
C11B C 1.5796(8) 0.4495(5) -0.1268(4)
C12B C 1.6389(9) 0.3749(5) -0.1467(4)
H8B H 1.7278 0.3755 -0.1659
C13B C 1.5712(10) 0.3019(5) -0.1389(5)
H9B H 1.6144 0.2535 -0.1513
C14B C 1.4401(10) 0.3014(5) -0.1129(5)
H10B H 1.3918 0.2520 -0.1082
C15B C 1.3754(9) 0.3733(4) -0.0930(4)
H11B H 1.2846 0.3708 -0.0755
C16B C 1.4433(8) 0.4485(4) -0.0986(4)
C17B C 1.2618(7) 0.5241(4) -0.0460(4)
C18B C 1.2029(8) 0.6075(4) -0.0303(4)
C19B C 1.5722(16) 0.8847(6) -0.0810(9)
C20B C 1.627(2) 0.9865(7) -0.1682(13)
H12B H 1.7271 0.9887 -0.1419
H13B H 1.6358 0.9811 -0.2175
C21B C 1.539(3) 1.0634(7) -0.1553(18)
H14B H 1.5918 1.1106 -0.1678
H15B H 1.4417 1.0614 -0.1832
H16B H 1.5269 1.0664 -0.1067
C22B C 1.6421(16) 0.7128(11) -0.2138(8)
H17B H 1.7017 0.7591 -0.2228
H18B H 1.6370 0.6753 -0.2523
H19B H 1.5429 0.7305 -0.2085
C23B C 1.8119(13) 0.5090(6) -0.1680(8)
C24B C 1.9382(16) 0.4964(10) -0.2642(8)
H20B H 1.9674 0.4395 -0.2599
H21B H 2.0188 0.5297 -0.2406
C25B C 1.902(2) 0.519(2) -0.3348(11)
H22B H 1.9890 0.5125 -0.3580
H23B H 1.8225 0.4854 -0.3570
H24B H 1.8714 0.5752 -0.3376
Cl1B Cl 1.1650(4) 0.7039(3) -0.2305(2)
O7B O 1.2860(13) 0.6443(7) -0.2054(5)
O8B O 1.2334(14) 0.7796(8) -0.2150(6)
O9B O 1.0478(10) 0.6925(7) -0.1964(5)
O10B O 1.1303(13) 0.6987(8) -0.3014(5)
loop_
_geom_bond_atom_site_label_1
_geom_bond_atom_site_label_2
_geom_bond_site_symmetry_1
_geom_bond_site_symmetry_2
Cu1 N1 1_555 1_555
Cu2 O1 1_555 1_555
N1 C1 1_555 1_555
N2 Cu1 1_555 1_555
N3 Cu1 1_555 1_555
N4 Cu1 1_555 1_555
O1 C18 1_555 1_555
O2 Cu2 1_555 1_555
O3 C19 1_555 1_555
O4 C19 1_555 1_555
O5 C23 1_555 1_555
O6 C23 1_555 1_555
C1 C2 1_555 1_555
C2 H1 1_555 1_555
C3 C2 1_555 1_555
H2 C3 1_555 1_555
C4 C3 1_555 1_555
H3 C4 1_555 1_555
C5 C4 1_555 1_555
H4 C5 1_555 1_555
C6 C1 1_555 1_555
C7 N2 1_555 1_555
C8 N2 1_555 1_555
H5 C8 1_555 1_555
H6 C8 1_555 1_555
C9 N3 1_555 1_555
H7 C9 1_555 1_555
C10 N3 1_555 1_555
C11 C10 1_555 1_555
C12 C11 1_555 1_555
H8 C12 1_555 1_555
C13 C12 1_555 1_555
H9 C13 1_555 1_555
C14 C13 1_555 1_555
H10 C14 1_555 1_555
C15 C14 1_555 1_555
H11 C15 1_555 1_555
C16 N4 1_555 1_555
C17 N4 1_555 1_555
C18 N1 1_555 1_555
C19 C7 1_555 1_555
C20 O4 1_555 1_555
H12 C20 1_555 1_555
H13 C20 1_555 1_555
C21 C20 1_555 1_555
H14 C21 1_555 1_555
H15 C21 1_555 1_555
H16 C21 1_555 1_555
C22 C9 1_555 1_555
H17 C22 1_555 1_555
H18 C22 1_555 1_555
H19 C22 1_555 1_555
C23 C10 1_555 1_555
C24 O6 1_555 1_555
H20 C24 1_555 1_555
H21 C24 1_555 1_555
C25 C24 1_555 1_555
H22 C25 1_555 1_555
H23 C25 1_555 1_555
H24 C25 1_555 1_555
Cl1 O7 1_555 1_555
O7 Cu1 1_555 1_555
O8 Cl1 1_555 1_555
O9 Cl1 1_555 1_555
O10 Cl1 1_555 1_555
Cu1B N1B 1_555 1_555
Cu2_2 O5 1_555 1_555
Cu2_3 O5B 1_555 1_555
N1B C1B 1_555 1_555
N2B Cu1B 1_555 1_555
N3B Cu1B 1_555 1_555
N4B Cu1B 1_555 1_555
O1B Cu2 1_555 1_555
O2B Cu2 1_555 1_555
O3B C19B 1_555 1_555
O4B C19B 1_555 1_555
O5B C23B 1_555 1_555
O5_2 Cu2 1_555 1_555
O5B_2 Cu2 1_555 1_555
O6B C23B 1_555 1_555
C1B C2B 1_555 1_555
C2B H1B 1_555 1_555
C3B C2B 1_555 1_555
H2B C3B 1_555 1_555
C4B C3B 1_555 1_555
H3B C4B 1_555 1_555
C5B C4B 1_555 1_555
H4B C5B 1_555 1_555
C6B C1B 1_555 1_555
C7B N2B 1_555 1_555
C8B N2B 1_555 1_555
H5B C8B 1_555 1_555
H6B C8B 1_555 1_555
C9B N3B 1_555 1_555
H7B C9B 1_555 1_555
C10B N3B 1_555 1_555
C11B C10B 1_555 1_555
C12B C11B 1_555 1_555
H8B C12B 1_555 1_555
C13B C12B 1_555 1_555
H9B C13B 1_555 1_555
C14B C13B 1_555 1_555
H10B C14B 1_555 1_555
C15B C14B 1_555 1_555
H11B C15B 1_555 1_555
C16B N4B 1_555 1_555
C17B N4B 1_555 1_555
C18B N1B 1_555 1_555
C19B C7B 1_555 1_555
C20B O4B 1_555 1_555
H12B C20B 1_555 1_555
H13B C20B 1_555 1_555
C21B C20B 1_555 1_555
H14B C21B 1_555 1_555
H15B C21B 1_555 1_555
H16B C21B 1_555 1_555
C22B C9B 1_555 1_555
H17B C22B 1_555 1_555
H18B C22B 1_555 1_555
H19B C22B 1_555 1_555
C23B C10B 1_555 1_555
C24B O6B 1_555 1_555
H20B C24B 1_555 1_555
H21B C24B 1_555 1_555
C25B C24B 1_555 1_555
H22B C25B 1_555 1_555
H23B C25B 1_555 1_555
H24B C25B 1_555 1_555
Cl1B O7B 1_555 1_555
O7B Cu1B 1_555 1_555
O8B Cl1B 1_555 1_555
O9B Cl1B 1_555 1_555
O10B Cl1B 1_555 1_555
O2 C17 1_555 1_555
C5 C6 1_555 1_555
C6 C7 1_555 1_555
C8 C9 1_555 1_555
C11 C16 1_555 1_555
C15 C16 1_555 1_555
C17 C18 1_555 1_555
O1B C18B 1_555 1_555
O2B C17B 1_555 1_555
C5B C6B 1_555 1_555
C6B C7B 1_555 1_555
C8B C9B 1_555 1_555
C11B C16B 1_555 1_555
C15B C16B 1_555 1_555
C17B C18B 1_555 1_555

#END
