
#######################################################################
#
#                 Cambridge Crystallographic Data Centre
#                                CCDC 
#
#######################################################################
#
# If this CIF has been generated from an entry in the Cambridge 
# Structural Database, then it will include bibliographic, chemical, 
# crystal, experimental, refinement or atomic coordinate data resulting 
# from the CCDC's data processing and validation procedures.
#
#######################################################################

data_WIVRID
_symmetry_cell_setting           triclinic
_symmetry_space_group_name_H-M   'P -1'
_symmetry_Int_Tables_number      2
_space_group_name_Hall           '-P 1'
loop_
_symmetry_equiv_pos_site_id
_symmetry_equiv_pos_as_xyz
1 x,y,z
2 -x,-y,-z
_cell_length_a                   9.336(3)
_cell_length_b                   10.996(4)
_cell_length_c                   14.275(5)
_cell_angle_alpha                71.699(6)
_cell_angle_beta                 74.292(6)
_cell_angle_gamma                72.026(5)
_cell_volume                     1298.68
loop_
_atom_site_label
_atom_site_type_symbol
_atom_site_fract_x
_atom_site_fract_y
_atom_site_fract_z
Cu1 Cu 0.36579(6) 0.57594(5) 0.68245(4)
Cu2 Cu 0.0000 0.5000 0.5000
N1 N 0.3340(4) 0.6227(3) 0.5436(2)
N2 N 0.1975(4) 0.4903(4) 0.7204(2)
N3 N 0.4465(4) 0.4691(4) 0.8056(2)
N4 N 0.5482(4) 0.6427(4) 0.6442(2)
N5 N 0.2227(5) 0.8591(5) 0.7256(3)
O1 O 0.1824(3) 0.5685(3) 0.4641(2)
O2 O 0.0373(3) 0.4546(3) 0.6371(2)
O3 O 0.4499(5) 0.3632(4) 1.0411(3)
O4 O 0.5506(4) 0.2086(4) 0.9555(3)
O5 O 0.8641(4) 0.7168(3) 0.5230(3)
O6 O 0.6859(4) 0.8771(3) 0.5831(3)
O7 O 0.2404(5) 0.7411(4) 0.7636(3)
O8 O 0.2513(7) 0.8993(5) 0.6333(4)
O9 O 0.1689(7) 0.9393(5) 0.7786(4)
C1 C 0.4151(5) 0.6997(4) 0.4576(3)
C2 C 0.3739(6) 0.7385(5) 0.3643(3)
H1 H 0.2924 0.7124 0.3573
C3 C 0.4514(6) 0.8154(5) 0.2807(3)
H2 H 0.4219 0.8392 0.2189
C4 C 0.5711(6) 0.8561(5) 0.2891(4)
H3 H 0.6248 0.9055 0.2331
C5 C 0.6106(6) 0.8230(5) 0.3809(3)
H4 H 0.6889 0.8543 0.3866
C6 C 0.5378(5) 0.7438(4) 0.4671(3)
C7 C 0.5967(5) 0.7144(4) 0.5591(3)
C8 C 0.6167(5) 0.6146(5) 0.7328(3)
H5 H 0.5629 0.6799 0.7710
H6 H 0.7236 0.6180 0.7116
C9 C 0.6040(5) 0.4782(5) 0.7970(3)
H7 H 0.6777 0.4112 0.7660
H8 H 0.6244 0.4651 0.8631
C10 C 0.3785(5) 0.3977(4) 0.8835(3)
C11 C 0.2207(5) 0.3867(4) 0.8974(3)
C12 C 0.1514(6) 0.3287(5) 0.9949(3)
H9 H 0.2095 0.2961 1.0451
C13 C 0.0035(6) 0.3176(5) 1.0200(3)
H10 H -0.0384 0.2797 1.0858
C14 C -0.0819(6) 0.3638(6) 0.9460(4)
H11 H -0.1831 0.3572 0.9615
C15 C -0.0180(6) 0.4205(5) 0.8478(3)
H12 H -0.0781 0.4523 0.7988
C16 C 0.1324(5) 0.4309(4) 0.8211(3)
C17 C 0.1441(5) 0.4987(4) 0.6417(3)
C18 C 0.2277(4) 0.5699(4) 0.5397(3)
C19 C 0.7323(5) 0.7702(5) 0.5515(3)
C20 C 0.8066(7) 0.9358(6) 0.5875(5)
H13 H 0.7689 1.0309 0.5755
H14 H 0.8961 0.9166 0.5359
C21 C 0.8498(10) 0.8781(8) 0.6906(7)
H15 H 0.9279 0.9157 0.6938
H16 H 0.8879 0.7840 0.7018
H17 H 0.7610 0.8980 0.7412
C22 C 0.4628(6) 0.3212(5) 0.9709(3)
C23 C 0.6406(8) 0.1243(7) 1.0344(5)
H18 H 0.6885 0.1771 1.0537
H19 H 0.5736 0.0851 1.0935
C24 C 0.7553(10) 0.0231(8) 0.9945(6)
H20 H 0.8156 -0.0318 1.0442
H21 H 0.8205 0.0628 0.9358
H22 H 0.7068 -0.0296 0.9768
Cu1A Cu -0.36579(6) 0.42406(5) 0.31755(4)
Cu2_2 Cu 1.0000 0.5000 0.5000
Cu2_3 Cu -1.0000 0.5000 0.5000
N1A N -0.3340(4) 0.3773(3) 0.4564(2)
N2A N -0.1975(4) 0.5097(4) 0.2796(2)
N3A N -0.4465(4) 0.5309(4) 0.1944(2)
N4A N -0.5482(4) 0.3573(4) 0.3558(2)
N5A N -0.2227(5) 0.1409(5) 0.2744(3)
O1A O -0.1824(3) 0.4315(3) 0.5359(2)
O2A O -0.0373(3) 0.5454(3) 0.3629(2)
O3A O -0.4499(5) 0.6368(4) -0.0411(3)
O4A O -0.5506(4) 0.7914(4) 0.0445(3)
O5A O -0.8641(4) 0.2832(3) 0.4770(3)
O5_2 O -0.1359(4) 0.7168(3) 0.5230(3)
O5A_2 O 0.1359(4) 0.2832(3) 0.4770(3)
O6A O -0.6859(4) 0.1229(3) 0.4169(3)
O7A O -0.2404(5) 0.2589(4) 0.2364(3)
O8A O -0.2513(7) 0.1007(5) 0.3667(4)
O9A O -0.1689(7) 0.0607(5) 0.2214(4)
C1A C -0.4151(5) 0.3003(4) 0.5424(3)
C2A C -0.3739(6) 0.2615(5) 0.6357(3)
H1A H -0.2924 0.2876 0.6427
C3A C -0.4514(6) 0.1846(5) 0.7193(3)
H2A H -0.4219 0.1608 0.7811
C4A C -0.5711(6) 0.1439(5) 0.7109(4)
H3A H -0.6248 0.0945 0.7669
C5A C -0.6106(6) 0.1770(5) 0.6191(3)
H4A H -0.6889 0.1457 0.6134
C6A C -0.5378(5) 0.2562(4) 0.5329(3)
C7A C -0.5967(5) 0.2856(4) 0.4409(3)
C8A C -0.6167(5) 0.3854(5) 0.2672(3)
H5A H -0.5629 0.3201 0.2290
H6A H -0.7236 0.3820 0.2884
C9A C -0.6040(5) 0.5218(5) 0.2030(3)
H7A H -0.6777 0.5888 0.2340
H8A H -0.6244 0.5349 0.1369
C10A C -0.3785(5) 0.6023(4) 0.1165(3)
C11A C -0.2207(5) 0.6133(4) 0.1026(3)
C12A C -0.1514(6) 0.6713(5) 0.0051(3)
H9A H -0.2095 0.7039 -0.0451
C13A C -0.0035(6) 0.6824(5) -0.0200(3)
H10A H 0.0384 0.7203 -0.0858
C14A C 0.0819(6) 0.6362(6) 0.0540(4)
H11A H 0.1831 0.6428 0.0385
C15A C 0.0180(6) 0.5795(5) 0.1522(3)
H12A H 0.0781 0.5477 0.2012
C16A C -0.1324(5) 0.5691(4) 0.1789(3)
C17A C -0.1441(5) 0.5013(4) 0.3583(3)
C18A C -0.2277(4) 0.4301(4) 0.4603(3)
C19A C -0.7323(5) 0.2298(5) 0.4485(3)
C20A C -0.8066(7) 0.0642(6) 0.4125(5)
H13A H -0.7689 -0.0309 0.4245
H14A H -0.8961 0.0834 0.4641
C21A C -0.8498(10) 0.1219(8) 0.3094(7)
H15A H -0.9279 0.0843 0.3062
H16A H -0.8879 0.2160 0.2982
H17A H -0.7610 0.1020 0.2588
C22A C -0.4628(6) 0.6788(5) 0.0291(3)
C23A C -0.6406(8) 0.8757(7) -0.0344(5)
H18A H -0.6885 0.8229 -0.0537
H19A H -0.5736 0.9149 -0.0935
C24A C -0.7553(10) 0.9769(8) 0.0055(6)
H20A H -0.8156 1.0318 -0.0442
H21A H -0.8205 0.9372 0.0642
H22A H -0.7068 1.0296 0.0232
O10 O 0.0575(7) 0.8143(6) 0.2575(5)
loop_
_geom_bond_atom_site_label_1
_geom_bond_atom_site_label_2
_geom_bond_site_symmetry_1
_geom_bond_site_symmetry_2
Cu1 N1 1_555 1_555
Cu2 O1 1_555 1_555
N1 C1 1_555 1_555
N2 Cu1 1_555 1_555
N3 Cu1 1_555 1_555
N4 Cu1 1_555 1_555
N5 O7 1_555 1_555
O1 C18 1_555 1_555
O2 Cu2 1_555 1_555
O3 C22 1_555 1_555
O4 C22 1_555 1_555
O5 C19 1_555 1_555
O6 C19 1_555 1_555
O7 Cu1 1_555 1_555
O8 N5 1_555 1_555
O9 N5 1_555 1_555
C1 C2 1_555 1_555
C2 H1 1_555 1_555
C3 C2 1_555 1_555
H2 C3 1_555 1_555
C4 C3 1_555 1_555
H3 C4 1_555 1_555
C5 C4 1_555 1_555
H4 C5 1_555 1_555
C6 C1 1_555 1_555
C7 N4 1_555 1_555
C8 N4 1_555 1_555
H5 C8 1_555 1_555
H6 C8 1_555 1_555
C9 N3 1_555 1_555
H7 C9 1_555 1_555
H8 C9 1_555 1_555
C10 N3 1_555 1_555
C11 C10 1_555 1_555
C12 C11 1_555 1_555
H9 C12 1_555 1_555
C13 C12 1_555 1_555
H10 C13 1_555 1_555
C14 C13 1_555 1_555
H11 C14 1_555 1_555
C15 C14 1_555 1_555
H12 C15 1_555 1_555
C16 N2 1_555 1_555
C17 N2 1_555 1_555
C18 N1 1_555 1_555
C19 C7 1_555 1_555
C20 O6 1_555 1_555
H13 C20 1_555 1_555
H14 C20 1_555 1_555
C21 C20 1_555 1_555
H15 C21 1_555 1_555
H16 C21 1_555 1_555
H17 C21 1_555 1_555
C22 C10 1_555 1_555
C23 O4 1_555 1_555
H18 C23 1_555 1_555
H19 C23 1_555 1_555
C24 C23 1_555 1_555
H20 C24 1_555 1_555
H21 C24 1_555 1_555
H22 C24 1_555 1_555
Cu1A N1A 1_555 1_555
Cu2_2 O5 1_555 1_555
Cu2_3 O5A 1_555 1_555
N1A C1A 1_555 1_555
N2A Cu1A 1_555 1_555
N3A Cu1A 1_555 1_555
N4A Cu1A 1_555 1_555
N5A O7A 1_555 1_555
O1A Cu2 1_555 1_555
O2A Cu2 1_555 1_555
O3A C22A 1_555 1_555
O4A C22A 1_555 1_555
O5A C19A 1_555 1_555
O5_2 Cu2 1_555 1_555
O5A_2 Cu2 1_555 1_555
O6A C19A 1_555 1_555
O7A Cu1A 1_555 1_555
O8A N5A 1_555 1_555
O9A N5A 1_555 1_555
C1A C2A 1_555 1_555
C2A H1A 1_555 1_555
C3A C2A 1_555 1_555
H2A C3A 1_555 1_555
C4A C3A 1_555 1_555
H3A C4A 1_555 1_555
C5A C4A 1_555 1_555
H4A C5A 1_555 1_555
C6A C1A 1_555 1_555
C7A N4A 1_555 1_555
C8A N4A 1_555 1_555
H5A C8A 1_555 1_555
H6A C8A 1_555 1_555
C9A N3A 1_555 1_555
H7A C9A 1_555 1_555
H8A C9A 1_555 1_555
C10A N3A 1_555 1_555
C11A C10A 1_555 1_555
C12A C11A 1_555 1_555
H9A C12A 1_555 1_555
C13A C12A 1_555 1_555
H10A C13A 1_555 1_555
C14A C13A 1_555 1_555
H11A C14A 1_555 1_555
C15A C14A 1_555 1_555
H12A C15A 1_555 1_555
C16A N2A 1_555 1_555
C17A N2A 1_555 1_555
C18A N1A 1_555 1_555
C19A C7A 1_555 1_555
C20A O6A 1_555 1_555
H13A C20A 1_555 1_555
H14A C20A 1_555 1_555
C21A C20A 1_555 1_555
H15A C21A 1_555 1_555
H16A C21A 1_555 1_555
H17A C21A 1_555 1_555
C22A C10A 1_555 1_555
C23A O4A 1_555 1_555
H18A C23A 1_555 1_555
H19A C23A 1_555 1_555
C24A C23A 1_555 1_555
H20A C24A 1_555 1_555
H21A C24A 1_555 1_555
H22A C24A 1_555 1_555
O2 C17 1_555 1_555
C5 C6 1_555 1_555
C6 C7 1_555 1_555
C8 C9 1_555 1_555
C11 C16 1_555 1_555
C15 C16 1_555 1_555
C17 C18 1_555 1_555
O1A C18A 1_555 1_555
O2A C17A 1_555 1_555
C5A C6A 1_555 1_555
C6A C7A 1_555 1_555
C8A C9A 1_555 1_555
C11A C16A 1_555 1_555
C15A C16A 1_555 1_555
C17A C18A 1_555 1_555

#END
