
#######################################################################
#
#                 Cambridge Crystallographic Data Centre
#                                CCDC 
#
#######################################################################
#
# If this CIF has been generated from an entry in the Cambridge 
# Structural Database, then it will include bibliographic, chemical, 
# crystal, experimental, refinement or atomic coordinate data resulting 
# from the CCDC's data processing and validation procedures.
#
#######################################################################

data_WIVVUU
_symmetry_cell_setting           triclinic
_symmetry_space_group_name_H-M   'P 1'
_symmetry_Int_Tables_number      1
_space_group_name_Hall           'P 1'
loop_
_symmetry_equiv_pos_site_id
_symmetry_equiv_pos_as_xyz
1 x,y,z
_cell_length_a                   10.224(3)
_cell_length_b                   10.391(3)
_cell_length_c                   10.448(3)
_cell_angle_alpha                93.076(3)
_cell_angle_beta                 97.151(4)
_cell_angle_gamma                92.512(4)
_cell_volume                     1098.32
loop_
_atom_site_label
_atom_site_type_symbol
_atom_site_fract_x
_atom_site_fract_y
_atom_site_fract_z
Ag1 Ag -0.27677(7) -0.45924(7) -1.95637(7)
Ag2 Ag -0.08401(7) 0.03745(7) -2.14464(7)
C1 C -0.2072(16) -0.3049(13) -2.2065(13)
H1 H -0.1338 -0.3582 -2.1996
C2 C -0.4046(15) -0.2572(14) -2.1407(15)
H2 H -0.4723 -0.2724 -2.0879
C3 C -0.419(2) -0.1609(16) -2.2312(17)
H3 H -0.4934 -0.1091 -2.2370
C4 C -0.3261(18) -0.1443(17) -2.3082(18)
H4 H -0.3405 -0.0842 -2.3733
C5 C -0.2099(15) -0.2084(14) -2.3000(12)
C6 C -0.1056(16) -0.1841(13) -2.3781(14)
H5 H -0.1426 -0.1457 -2.4587
H6 H -0.0680 -0.2668 -2.4022
C7 C 0.0701(15) -0.0172(12) -2.3965(13)
H7 H 0.0018 0.0197 -2.4591
C8 C 0.1594(17) -0.0951(14) -2.4750(15)
H8 H 0.2239 -0.1374 -2.4144
H9 H 0.1046 -0.1639 -2.5282
C9 C 0.2332(17) -0.0180(12) -2.5616(15)
H10 H 0.1702 0.0139 -2.6312
H11 H 0.2944 -0.0737 -2.6024
C10 C 0.3101(18) 0.0947(16) -2.4874(18)
H12 H 0.3502 0.1494 -2.5484
H13 H 0.3824 0.0626 -2.4274
C11 C 0.2225(15) 0.1752(12) -2.4112(13)
H14 H 0.2771 0.2452 -2.3594
H15 H 0.1564 0.2154 -2.4719
C12 C 0.1531(17) 0.0955(14) -2.3235(15)
H16 H 0.2226 0.0579 -2.2627
C13 C 0.1410(17) 0.2676(16) -2.1503(18)
H17 H 0.1578 0.3476 -2.1943
H18 H 0.2276 0.2349 -2.1174
C14 C 0.0688(15) 0.2987(13) -2.0403(15)
C15 C 0.0832(15) 0.2240(14) -1.9315(16)
H19 H 0.1461 0.1592 -1.9270
C16 C 0.0072(16) 0.2423(14) -1.8291(15)
H20 H 0.0154 0.1906 -1.7565
C17 C -0.0807(17) 0.3409(14) -1.8408(14)
H21 H -0.1305 0.3581 -1.7714
C18 C -0.0245(14) 0.3928(13) -2.0370(14)
H22 H -0.0352 0.4470 -2.1075
C19 C -0.1595(15) -0.1054(13) -1.9003(14)
H23 H -0.2349 -0.0556 -1.9162
C20 C 0.0499(15) -0.1582(14) -1.9414(15)
H24 H 0.1233 -0.1449 -1.9876
C21 C 0.0555(14) -0.2483(16) -1.8520(18)
H25 H 0.1320 -0.2966 -1.8366
C22 C -0.0489(16) -0.2701(14) -1.7833(14)
H26 H -0.0475 -0.3332 -1.7207
C23 C -0.1567(15) -0.1945(12) -1.8108(14)
C24 C -0.2787(14) -0.2178(12) -1.7422(13)
H27 H -0.2571 -0.1915 -1.6492
H28 H -0.3503 -0.1643 -1.7789
C25 C -0.4643(12) -0.3820(11) -1.7356(12)
H29 H -0.5186 -0.3272 -1.7952
C26 C -0.4904(15) -0.3413(14) -1.5978(14)
H30 H -0.4731 -0.2469 -1.5828
H31 H -0.4282 -0.3839 -1.5352
C27 C -0.6351(15) -0.3769(14) -1.5727(14)
H32 H -0.6439 -0.3573 -1.4805
H33 H -0.6972 -0.3243 -1.6253
C28 C -0.6698(19) -0.5188(18) -1.6073(16)
H34 H -0.7643 -0.5373 -1.5997
H35 H -0.6171 -0.5710 -1.5453
C29 C -0.6432(12) -0.5583(12) -1.7454(11)
H36 H -0.7089 -0.5186 -1.8069
H37 H -0.6582 -0.6531 -1.7591
C30 C -0.5042(14) -0.5214(13) -1.7792(15)
H38 H -0.4422 -0.5748 -1.7255
C31 C -0.5016(14) -0.6931(11) -1.9498(12)
H39 H -0.5967 -0.7193 -1.9679
H40 H -0.4615 -0.7438 -1.8789
C32 C -0.4351(16) -0.7190(15) -2.0699(15)
C33 C -0.4648(15) -0.6561(14) -2.1806(14)
H41 H -0.5310 -0.5946 -2.1872
C34 C -0.3953(14) -0.6852(14) -2.2817(14)
H42 H -0.4151 -0.6443 -2.3605
C35 C -0.2975(16) -0.7725(14) -2.2713(14)
H43 H -0.2497 -0.7885 -2.3423
C36 C -0.3352(16) -0.8052(14) -2.0650(15)
H44 H -0.3130 -0.8455 -1.9862
N1 N -0.2990(11) -0.3265(11) -2.1279(10)
N2 N -0.0004(11) -0.0964(9) -2.3094(9)
H45 H 0.0616 -0.1477 -2.2671
N3 N 0.0711(10) 0.1721(9) -2.2438(10)
H46 H 0.0191 0.2192 -2.3019
N4 N -0.0999(12) 0.4130(11) -1.9430(11)
N5 N -0.0569(15) -0.0864(11) -1.9672(13)
N6 N -0.3256(10) -0.3582(8) -1.7573(10)
H47 H -0.2753 -0.3985 -1.6921
N7 N -0.4848(9) -0.5521(8) -1.9107(9)
H48 H -0.5502 -0.5121 -1.9619
N8 N -0.2680(13) -0.8357(12) -2.1628(12)
Ag1_2 Ag -0.27677(7) 0.54076(7) -1.95637(7)
Ag2_2 Ag -0.08401(7) -0.96255(7) -2.14464(7)
N4_2 N -0.0999(12) -0.5870(11) -1.9430(11)
N8_2 N -0.2680(13) 0.1643(12) -2.1628(12)
Cl1 Cl -0.2915(4) 0.1422(3) -1.6172(3)
O1 O -0.3501(10) 0.2628(7) -1.5901(8)
O2 O -0.3012(10) 0.1165(8) -1.7534(6)
O3 O -0.1556(8) 0.1537(14) -1.5629(11)
O4 O -0.3625(14) 0.0428(9) -1.5599(10)
Cl2 Cl 0.2440(3) -0.3525(3) -2.1672(3)
O5 O 0.1038(6) -0.3747(8) -2.1944(9)
O6 O 0.3113(10) -0.4323(9) -2.2515(9)
O7 O 0.2751(8) -0.2176(6) -2.1839(9)
O8 O 0.2895(9) -0.3784(9) -2.0367(7)
C37 C -0.0413(18) -0.5380(17) -1.4803(19)
H49 H 0.0196 -0.4619 -1.4762
H50 H -0.0045 -0.6107 -1.5249
H51 H -0.0537 -0.5601 -1.3924
O9 O -0.1642(11) -0.5108(9) -1.5485(10)
H52 H -0.2259 -0.5502 -1.5078
C38 C 0.3974(19) -0.0211(17) -1.8980(19)
H53 H 0.4690 -0.0767 -1.9151
H54 H 0.3364 -0.0673 -1.8491
H55 H 0.4343 0.0574 -1.8478
O10 O 0.3316(11) 0.0112(9) -2.0117(11)
H56 H 0.2656 -0.0310 -2.0649
loop_
_geom_bond_atom_site_label_1
_geom_bond_atom_site_label_2
_geom_bond_site_symmetry_1
_geom_bond_site_symmetry_2
Ag1 N1 1_555 1_555
Ag2 N2 1_555 1_555
C1 H1 1_555 1_555
C2 H2 1_555 1_555
C3 C2 1_555 1_555
H3 C3 1_555 1_555
C4 C3 1_555 1_555
H4 C4 1_555 1_555
C5 C1 1_555 1_555
C6 C5 1_555 1_555
H5 C6 1_555 1_555
H6 C6 1_555 1_555
C7 H7 1_555 1_555
C8 C7 1_555 1_555
H8 C8 1_555 1_555
H9 C8 1_555 1_555
C9 C8 1_555 1_555
H10 C9 1_555 1_555
H11 C9 1_555 1_555
C10 C9 1_555 1_555
H12 C10 1_555 1_555
H13 C10 1_555 1_555
C11 C10 1_555 1_555
H14 C11 1_555 1_555
H15 C11 1_555 1_555
C12 C7 1_555 1_555
H16 C12 1_555 1_555
C13 H17 1_555 1_555
H18 C13 1_555 1_555
C14 C13 1_555 1_555
C15 C14 1_555 1_555
H19 C15 1_555 1_555
C16 C15 1_555 1_555
H20 C16 1_555 1_555
C17 C16 1_555 1_555
H21 C17 1_555 1_555
C18 C14 1_555 1_555
H22 C18 1_555 1_555
C19 H23 1_555 1_555
C20 H24 1_555 1_555
C21 C20 1_555 1_555
H25 C21 1_555 1_555
C22 C21 1_555 1_555
H26 C22 1_555 1_555
C23 C19 1_555 1_555
C24 C23 1_555 1_555
H27 C24 1_555 1_555
H28 C24 1_555 1_555
C25 H29 1_555 1_555
C26 C25 1_555 1_555
H30 C26 1_555 1_555
H31 C26 1_555 1_555
C27 C26 1_555 1_555
H32 C27 1_555 1_555
H33 C27 1_555 1_555
C28 C27 1_555 1_555
H34 C28 1_555 1_555
H35 C28 1_555 1_555
C29 C28 1_555 1_555
H36 C29 1_555 1_555
H37 C29 1_555 1_555
C30 C25 1_555 1_555
H38 C30 1_555 1_555
C31 H39 1_555 1_555
H40 C31 1_555 1_555
C32 C31 1_555 1_555
C33 C32 1_555 1_555
H41 C33 1_555 1_555
C34 C33 1_555 1_555
H42 C34 1_555 1_555
C35 C34 1_555 1_555
H43 C35 1_555 1_555
C36 C32 1_555 1_555
H44 C36 1_555 1_555
N1 C1 1_555 1_555
N2 C6 1_555 1_555
H45 N2 1_555 1_555
N3 Ag2 1_555 1_555
H46 N3 1_555 1_555
N4 C17 1_555 1_555
N5 Ag2 1_555 1_555
N6 Ag1 1_555 1_555
H47 N6 1_555 1_555
N7 Ag1 1_555 1_555
H48 N7 1_555 1_555
N8 C35 1_555 1_555
Cl1 O1 1_555 1_555
O2 Cl1 1_555 1_555
O3 Cl1 1_555 1_555
O4 Cl1 1_555 1_555
Cl2 O5 1_555 1_555
O6 Cl2 1_555 1_555
O7 Cl2 1_555 1_555
O8 Cl2 1_555 1_555
C37 H49 1_555 1_555
H50 C37 1_555 1_555
H51 C37 1_555 1_555
O9 C37 1_555 1_555
H52 O9 1_555 1_555
C38 H53 1_555 1_555
H54 C38 1_555 1_555
H55 C38 1_555 1_555
O10 C38 1_555 1_555
H56 O10 1_555 1_555
Ag1_2 N4 1_555 1_555
Ag2_2 N8 1_555 1_555
N4_2 Ag1 1_555 1_555
N8_2 Ag2 1_555 1_555
C2 N1 1_555 1_555
C4 C5 1_555 1_555
C7 N2 1_555 1_555
C11 C12 1_555 1_555
C12 N3 1_555 1_555
C13 N3 1_555 1_555
C18 N4 1_555 1_555
C19 N5 1_555 1_555
C20 N5 1_555 1_555
C22 C23 1_555 1_555
C24 N6 1_555 1_555
C25 N6 1_555 1_555
C29 C30 1_555 1_555
C30 N7 1_555 1_555
C31 N7 1_555 1_555
C36 N8 1_555 1_555

#END
