
#######################################################################
#
#                 Cambridge Crystallographic Data Centre
#                                CCDC 
#
#######################################################################
#
# If this CIF has been generated from an entry in the Cambridge 
# Structural Database, then it will include bibliographic, chemical, 
# crystal, experimental, refinement or atomic coordinate data resulting 
# from the CCDC's data processing and validation procedures.
#
#######################################################################

data_WIVWOP
_symmetry_cell_setting           monoclinic
_symmetry_space_group_name_H-M   'P 21/n'
_symmetry_Int_Tables_number      14
_space_group_name_Hall           '-P 2yn'
loop_
_symmetry_equiv_pos_site_id
_symmetry_equiv_pos_as_xyz
1 x,y,z
2 1/2-x,1/2+y,1/2-z
3 -x,-y,-z
4 1/2+x,1/2-y,1/2+z
_cell_length_a                   8.9142(5)
_cell_length_b                   18.1960(10)
_cell_length_c                   16.6042(9)
_cell_angle_alpha                90
_cell_angle_beta                 101.4830(10)
_cell_angle_gamma                90
_cell_volume                     2639.34
loop_
_atom_site_label
_atom_site_type_symbol
_atom_site_fract_x
_atom_site_fract_y
_atom_site_fract_z
Co1 Co 0.55698(9) 0.01770(4) 0.65517(5)
Co2 Co 0.41527(10) 0.31418(4) 0.76481(5)
P1 P 0.82894(17) -0.02134(8) 0.56817(9)
P2 P 0.3528(2) 0.24579(9) 0.58643(10)
P3 P 0.1513(2) 0.29356(9) 0.87050(10)
O1 O 0.6908(5) 0.0262(2) 0.5693(3)
O2 O 0.9779(5) 0.0171(2) 0.6136(3)
H1 H 1.0355 0.0254 0.5795
O3 O 0.8417(5) -0.0438(2) 0.4825(2)
H2 H 0.8542 -0.0901 0.4812
O4 O 0.9292(5) -0.1549(2) 0.6169(3)
H3 H 0.9204 -0.1939 0.6437
O5 O 0.9137(5) -0.1215(3) 0.7691(3)
O6 O 0.7186(5) -0.0445(2) 0.7331(3)
O7 O 0.3080(5) 0.3008(2) 0.6454(3)
O8 O 0.5071(6) 0.2672(3) 0.5632(3)
H4 H 0.5076 0.3132 0.5545
O9 O 0.2309(6) 0.2314(3) 0.5120(3)
H5 H 0.1451 0.2452 0.5216
O10 O 0.4120(5) 0.1002(2) 0.5904(3)
H6 H 0.4543 0.1173 0.5528
O11 O 0.6180(5) 0.1098(2) 0.7252(3)
O12 O 0.5431(5) 0.2178(2) 0.7610(3)
O13 O 0.1696(5) 0.2637(3) 0.9581(3)
H7 H 0.1568 0.2174 0.9561
O14 O -0.0119(6) 0.2817(3) 0.8225(3)
O15 O 0.2737(6) 0.2636(2) 0.8293(3)
O16 O 0.0606(5) 0.4241(2) 0.9174(2)
H8 H 0.0746 0.4702 0.9228
O17 O 0.1106(5) 0.4889(3) 0.7829(3)
O18 O 0.2868(5) 0.4101(2) 0.7626(3)
C1 C 0.8113(6) -0.1055(3) 0.6262(3)
H9 H 0.7147 -0.1280 0.6034
C2 C 0.8156(7) -0.0899(3) 0.7156(4)
C3 C 0.3893(7) 0.1598(3) 0.6438(4)
H10 H 0.3004 0.1484 0.6659
C4 C 0.5265(7) 0.1630(3) 0.7149(4)
C5 C 0.1801(7) 0.3931(3) 0.8820(4)
H11 H 0.2748 0.4006 0.9203
C6 C 0.1926(7) 0.4333(3) 0.8030(4)
Co1A Co -0.05698(9) 0.51770(4) 0.84483(5)
Co2A Co 1.08473(10) -0.18582(4) 0.73519(5)
O4A O 0.5708(5) 0.3451(2) 0.8831(3)
O5A O 0.5863(5) 0.3785(3) 0.7309(3)
O16A O 0.4394(5) -0.0759(2) 0.5826(2)
O17A O 0.3894(5) -0.0111(3) 0.7171(3)
O19 O 0.8017(8) 0.1893(5) 0.8784(4)
H12 H 0.8519 0.1649 0.9184
H13 H 0.7329 0.2136 0.8955
O20 O 0.5256(13) 0.4195(5) 0.5335(7)
H14 H 0.4548 0.4402 0.5527
H15 H 0.5068 0.4230 0.4814
O21 O 0.7629(13) 0.0267(6) 0.8864(7)
H16 H 0.8138 -0.0126 0.8987
H17 H 0.8232 0.0633 0.8939
N1 N 0.8419(18) 0.2705(9) 0.6597(11)
H18 H 0.8291 0.2758 0.7118
C7 C 0.9137(16) 0.2015(6) 0.6357(7)
H19 H 0.8201 0.1743 0.6311
H20 H 0.9677 0.1850 0.5945
H21 H 0.9762 0.1938 0.6892
C8 C 0.9067(12) 0.3330(6) 0.6194(7)
H22 H 0.8118 0.3596 0.6087
H23 H 0.9686 0.3499 0.6701
H24 H 0.9601 0.3411 0.5754
N2 N 0.3263(14) 0.5002(7) 0.6364(7)
H25 H 0.3240 0.4684 0.6777
C9 C 0.3629(19) 0.5714(9) 0.6695(10)
H26 H 0.4593 0.5667 0.7070
H27 H 0.3722 0.6064 0.6275
H28 H 0.2863 0.5877 0.6987
C10 C 0.182(2) 0.4936(11) 0.5788(13)
H29 H 0.1736 0.4432 0.5614
H30 H 0.0961 0.5060 0.6033
H31 H 0.1820 0.5247 0.5321
loop_
_geom_bond_atom_site_label_1
_geom_bond_atom_site_label_2
_geom_bond_site_symmetry_1
_geom_bond_site_symmetry_2
Co1 O1 1_555 1_555
Co2 O7 1_555 1_555
P1 O1 1_555 1_555
P2 O7 1_555 1_555
P3 O13 1_555 1_555
O2 P1 1_555 1_555
H1 O2 1_555 1_555
O3 P1 1_555 1_555
H2 O3 1_555 1_555
O4 H3 1_555 1_555
O5 C2 1_555 1_555
O6 Co1 1_555 1_555
O8 P2 1_555 1_555
H4 O8 1_555 1_555
O9 P2 1_555 1_555
H5 O9 1_555 1_555
O10 Co1 1_555 1_555
H6 O10 1_555 1_555
O11 Co1 1_555 1_555
O12 Co2 1_555 1_555
O13 H7 1_555 1_555
O14 P3 1_555 1_555
O15 Co2 1_555 1_555
O16 H8 1_555 1_555
O17 C6 1_555 1_555
O18 Co2 1_555 1_555
C1 P1 1_555 1_555
H9 C1 1_555 1_555
C2 O6 1_555 1_555
C3 P2 1_555 1_555
H10 C3 1_555 1_555
C4 O11 1_555 1_555
C5 P3 1_555 1_555
H11 C5 1_555 1_555
C6 O18 1_555 1_555
O19 H12 1_555 1_555
H13 O19 1_555 1_555
O20 H14 1_555 1_555
H15 O20 1_555 1_555
O21 H16 1_555 1_555
H17 O21 1_555 1_555
N1 H18 1_555 1_555
C7 N1 1_555 1_555
H19 C7 1_555 1_555
H20 C7 1_555 1_555
H21 C7 1_555 1_555
C8 N1 1_555 1_555
H22 C8 1_555 1_555
H23 C8 1_555 1_555
H24 C8 1_555 1_555
N2 H25 1_555 1_555
C9 N2 1_555 1_555
H26 C9 1_555 1_555
H27 C9 1_555 1_555
H28 C9 1_555 1_555
C10 N2 1_555 1_555
H29 C10 1_555 1_555
H30 C10 1_555 1_555
H31 C10 1_555 1_555
Co1A O16 1_555 1_555
Co2A O4 1_555 1_555
O4A Co2 1_555 1_555
O5A Co2 1_555 1_555
O16A Co1 1_555 1_555
O17A Co1 1_555 1_555
P3 O15 1_555 1_555
O4 C1 1_555 1_555
O5 Co2A 1_555 1_555
O10 C3 1_555 1_555
O12 C4 1_555 1_555
O16 C5 1_555 1_555
O17 Co1A 1_555 1_555
C1 C2 1_555 1_555
C3 C4 1_555 1_555
C5 C6 1_555 1_555

#END
