
#######################################################################
#
#                 Cambridge Crystallographic Data Centre
#                                CCDC 
#
#######################################################################
#
# If this CIF has been generated from an entry in the Cambridge 
# Structural Database, then it will include bibliographic, chemical, 
# crystal, experimental, refinement or atomic coordinate data resulting 
# from the CCDC's data processing and validation procedures.
#
#######################################################################

data_WIVWAB
_symmetry_cell_setting           orthorhombic
_symmetry_space_group_name_H-M   'P 21 21 21'
_symmetry_Int_Tables_number      19
_space_group_name_Hall           'P 2ac 2ab'
loop_
_symmetry_equiv_pos_site_id
_symmetry_equiv_pos_as_xyz
1 x,y,z
2 1/2-x,-y,1/2+z
3 -x,1/2+y,1/2-z
4 1/2+x,1/2-y,-z
_cell_length_a                   11.3603(11)
_cell_length_b                   17.7274(17)
_cell_length_c                   23.900(2)
_cell_angle_alpha                90
_cell_angle_beta                 90
_cell_angle_gamma                90
_cell_volume                     4813.19
loop_
_atom_site_label
_atom_site_type_symbol
_atom_site_fract_x
_atom_site_fract_y
_atom_site_fract_z
Ag1 Ag 0.07873(4) 0.02197(2) 0.749112(19)
Ag2 Ag 0.11937(4) -0.14281(3) 0.717581(18)
Ag3 Ag 0.37201(6) -0.21077(3) 0.988546(19)
C1 C -0.1552(6) 0.0258(4) 0.6869(3)
H1 H -0.1805 0.0339 0.7243
C2 C -0.2403(6) 0.0281(4) 0.6444(3)
H2 H -0.3215 0.0347 0.6524
C3 C -0.1994(6) 0.0200(4) 0.5900(3)
H3 H -0.2518 0.0248 0.5592
C4 C -0.0832(6) 0.0053(4) 0.5814(3)
H4 H -0.0557 -0.0034 0.5444
C5 C -0.0051(5) 0.0027(3) 0.6253(2)
C6 C 0.1227(6) -0.0164(3) 0.6162(2)
H5 H 0.1466 -0.0016 0.5779
H6 H 0.1720 0.0119 0.6432
C7 C 0.2557(7) -0.1240(4) 0.6020(3)
H7 H 0.3162 -0.0847 0.6106
C8 C 0.2498(8) -0.1334(5) 0.5377(3)
H8 H 0.1922 -0.1733 0.5282
H9 H 0.2226 -0.0857 0.5205
C9 C 0.3710(10) -0.1545(5) 0.5136(3)
H10 H 0.3658 -0.1601 0.4725
H11 H 0.4288 -0.1143 0.5221
C10 C 0.4102(10) -0.2288(5) 0.5401(3)
H12 H 0.3551 -0.2695 0.5292
H13 H 0.4896 -0.2423 0.5263
C11 C 0.4126(8) -0.2213(6) 0.6036(3)
H14 H 0.4367 -0.2702 0.6201
H15 H 0.4726 -0.1833 0.6141
C12 C 0.2956(6) -0.1984(4) 0.6283(3)
H16 H 0.2364 -0.2381 0.6189
C13 C 0.3341(6) -0.2592(4) 0.7192(3)
H17 H 0.4119 -0.2755 0.7049
H18 H 0.2765 -0.2997 0.7113
C14 C 0.3413(6) -0.2453(4) 0.7818(3)
C15 C 0.4225(6) -0.1991(5) 0.8051(3)
H19 H 0.4758 -0.1729 0.7814
C16 C 0.4298(6) -0.1891(4) 0.8610(3)
H20 H 0.4867 -0.1547 0.8752
C17 C 0.2786(6) -0.2714(4) 0.8749(3)
H21 H 0.2259 -0.2971 0.8992
C18 C 0.2674(6) -0.2829(4) 0.8182(3)
H22 H 0.2093 -0.3166 0.8043
C19 C -0.1374(6) -0.1423(3) 0.7530(3)
H23 H -0.1452 -0.1531 0.7143
C20 C -0.2390(6) -0.1366(4) 0.7858(4)
H24 H -0.3150 -0.1423 0.7698
C21 C -0.2258(7) -0.1229(4) 0.8411(4)
H25 H -0.2934 -0.1182 0.8643
C22 C -0.1160(8) -0.1155(4) 0.8640(3)
H26 H -0.1072 -0.1079 0.9031
C23 C -0.0206(6) -0.1192(3) 0.8309(3)
C24 C 0.1021(6) -0.1007(3) 0.8519(2)
H27 H 0.1069 -0.1094 0.8927
H28 H 0.1609 -0.1333 0.8332
C25 C 0.2511(6) -0.0003(3) 0.8506(2)
H29 H 0.3029 -0.0340 0.8278
C26 C 0.2838(6) -0.0104(4) 0.9122(3)
H30 H 0.2274 0.0183 0.9355
H31 H 0.2765 -0.0643 0.9222
C27 C 0.4077(6) 0.0160(4) 0.9253(3)
H32 H 0.4223 0.0113 0.9660
H33 H 0.4650 -0.0166 0.9055
C28 C 0.4260(7) 0.0973(4) 0.9076(3)
H34 H 0.3750 0.1307 0.9302
H35 H 0.5089 0.1120 0.9143
C29 C 0.3972(6) 0.1067(4) 0.8471(3)
H36 H 0.4537 0.0768 0.8247
H37 H 0.4078 0.1604 0.8368
C30 C 0.2727(5) 0.0827(3) 0.8317(2)
H38 H 0.2164 0.1159 0.8524
C31 C 0.2495(6) 0.1681(3) 0.7517(3)
H39 H 0.3286 0.1896 0.7583
H40 H 0.1922 0.1980 0.7736
C32 C 0.2203(6) 0.1747(3) 0.6909(3)
C33 C 0.3079(7) 0.1710(4) 0.6507(3)
H41 H 0.3878 0.1640 0.6612
C34 C 0.2766(7) 0.1778(4) 0.5947(3)
H42 H 0.3375 0.1753 0.5675
C35 C 0.0840(7) 0.1894(3) 0.6160(3)
H43 H 0.0043 0.1955 0.6048
C36 C 0.1082(6) 0.1831(3) 0.6727(2)
H44 H 0.0456 0.1846 0.6990
N1 N -0.0433(4) 0.0132(3) 0.67824(19)
N2 N 0.1403(5) -0.0972(3) 0.62389(19)
H45 H 0.0811 -0.1234 0.6081
N3 N 0.2974(5) -0.1885(3) 0.69072(19)
H46 H 0.3382 -0.1471 0.7007
N4 N 0.3596(5) -0.2259(3) 0.89789(19)
N5 N -0.0299(4) -0.1330(3) 0.7745(2)
N6 N 0.1261(5) -0.0209(3) 0.83912(17)
H47 H 0.0744 -0.0031 0.8644
N7 N 0.2475(4) 0.0891(3) 0.77175(19)
H48 H 0.3082 0.0729 0.7508
N8 N 0.1660(5) 0.1875(3) 0.5765(2)
Ag3A Ag 0.12799(6) 0.21077(3) 0.488546(19)
N8A N 0.3340(5) -0.1875(3) 1.0765(2)
C37 C 0.2210(11) 0.3062(6) 0.9011(5)
H49 H 0.2533 0.3555 0.9116
H50 H 0.2581 0.2890 0.8664
H51 H 0.2368 0.2698 0.9310
O1 O 0.0931(7) 0.3129(4) 0.8927(3)
H52 H 0.0612 0.2692 0.9045
C38 C -0.2407(11) 0.0442(8) 0.9394(6)
H53 H -0.2900 0.0661 0.9689
H54 H -0.2515 -0.0106 0.9387
H55 H -0.2634 0.0655 0.9031
O2 O -0.1176(14) 0.0616(8) 0.9506(5)
H56 H -0.0740 0.0970 0.9332
C39 C 0.0192(17) -0.0538(13) 1.0390(11)
H57 H -0.0371 -0.0204 1.0577
H58 H 0.0953 -0.0511 1.0581
H59 H -0.0102 -0.1058 1.0402
O3 O 0.0321(13) -0.0322(8) 0.9855(8)
H60 H -0.0425 -0.0218 0.9754
N9 N 0.6475(6) -0.1653(3) 0.9894(2)
O4 O 0.6068(5) -0.2242(3) 1.01181(19)
O5 O 0.5822(5) -0.1212(3) 0.9646(2)
O6 O 0.7556(5) -0.1531(3) 0.9944(2)
N10 N 0.4804(7) -0.0220(5) 0.7118(3)
O7 O 0.3782(6) -0.0314(4) 0.7165(3)
O8 O 0.5158(7) 0.0432(5) 0.7168(4)
O9 O 0.5423(7) -0.0783(5) 0.7005(4)
N11 N -0.0419(6) 0.1594(4) 0.8290(3)
O10 O -0.0100(6) 0.1667(4) 0.8794(3)
O11 O -0.0868(6) 0.1007(4) 0.8132(3)
O12 O -0.0287(6) 0.2114(4) 0.7964(3)
loop_
_geom_bond_atom_site_label_1
_geom_bond_atom_site_label_2
_geom_bond_site_symmetry_1
_geom_bond_site_symmetry_2
Ag1 Ag2 1_555 1_555
Ag2 N2 1_555 1_555
Ag3 N4 1_555 1_555
C1 H1 1_555 1_555
C2 C1 1_555 1_555
H2 C2 1_555 1_555
C3 C2 1_555 1_555
H3 C3 1_555 1_555
C4 C3 1_555 1_555
H4 C4 1_555 1_555
C5 C4 1_555 1_555
C6 C5 1_555 1_555
H5 C6 1_555 1_555
H6 C6 1_555 1_555
C7 H7 1_555 1_555
C8 C7 1_555 1_555
H8 C8 1_555 1_555
H9 C8 1_555 1_555
C9 C8 1_555 1_555
H10 C9 1_555 1_555
H11 C9 1_555 1_555
C10 C9 1_555 1_555
H12 C10 1_555 1_555
H13 C10 1_555 1_555
C11 C10 1_555 1_555
H14 C11 1_555 1_555
H15 C11 1_555 1_555
C12 C7 1_555 1_555
H16 C12 1_555 1_555
C13 H17 1_555 1_555
H18 C13 1_555 1_555
C14 C13 1_555 1_555
C15 C14 1_555 1_555
H19 C15 1_555 1_555
C16 C15 1_555 1_555
H20 C16 1_555 1_555
C17 H21 1_555 1_555
C18 C14 1_555 1_555
H22 C18 1_555 1_555
C19 H23 1_555 1_555
C20 C19 1_555 1_555
H24 C20 1_555 1_555
C21 C20 1_555 1_555
H25 C21 1_555 1_555
C22 C21 1_555 1_555
H26 C22 1_555 1_555
C23 C22 1_555 1_555
C24 C23 1_555 1_555
H27 C24 1_555 1_555
H28 C24 1_555 1_555
C25 H29 1_555 1_555
C26 C25 1_555 1_555
H30 C26 1_555 1_555
H31 C26 1_555 1_555
C27 C26 1_555 1_555
H32 C27 1_555 1_555
H33 C27 1_555 1_555
C28 C27 1_555 1_555
H34 C28 1_555 1_555
H35 C28 1_555 1_555
C29 C28 1_555 1_555
H36 C29 1_555 1_555
H37 C29 1_555 1_555
C30 C25 1_555 1_555
H38 C30 1_555 1_555
C31 H39 1_555 1_555
H40 C31 1_555 1_555
C32 C31 1_555 1_555
C33 C32 1_555 1_555
H41 C33 1_555 1_555
C34 C33 1_555 1_555
H42 C34 1_555 1_555
C35 H43 1_555 1_555
C36 C32 1_555 1_555
H44 C36 1_555 1_555
N1 Ag1 1_555 1_555
N2 C6 1_555 1_555
H45 N2 1_555 1_555
N3 Ag2 1_555 1_555
H46 N3 1_555 1_555
N4 C16 1_555 1_555
N5 Ag2 1_555 1_555
N6 Ag1 1_555 1_555
H47 N6 1_555 1_555
N7 Ag1 1_555 1_555
H48 N7 1_555 1_555
N8 C34 1_555 1_555
C37 H49 1_555 1_555
H50 C37 1_555 1_555
H51 C37 1_555 1_555
O1 C37 1_555 1_555
H52 O1 1_555 1_555
C38 H53 1_555 1_555
H54 C38 1_555 1_555
H55 C38 1_555 1_555
O2 C38 1_555 1_555
H56 O2 1_555 1_555
C39 H57 1_555 1_555
H58 C39 1_555 1_555
H59 C39 1_555 1_555
O3 C39 1_555 1_555
H60 O3 1_555 1_555
N9 O4 1_555 1_555
O5 N9 1_555 1_555
O6 N9 1_555 1_555
N10 O7 1_555 1_555
O8 N10 1_555 1_555
O9 N10 1_555 1_555
N11 O10 1_555 1_555
O11 N11 1_555 1_555
O12 N11 1_555 1_555
Ag3A N8 1_555 1_555
N8A Ag3 1_555 1_555
C1 N1 1_555 1_555
C5 N1 1_555 1_555
C7 N2 1_555 1_555
C11 C12 1_555 1_555
C12 N3 1_555 1_555
C13 N3 1_555 1_555
C17 C18 1_555 1_555
C17 N4 1_555 1_555
C19 N5 1_555 1_555
C23 N5 1_555 1_555
C24 N6 1_555 1_555
C25 N6 1_555 1_555
C29 C30 1_555 1_555
C30 N7 1_555 1_555
C31 N7 1_555 1_555
C35 C36 1_555 1_555
C35 N8 1_555 1_555

#END
