
#######################################################################
#
#                 Cambridge Crystallographic Data Centre
#                                CCDC 
#
#######################################################################
#
# If this CIF has been generated from an entry in the Cambridge 
# Structural Database, then it will include bibliographic, chemical, 
# crystal, experimental, refinement or atomic coordinate data resulting 
# from the CCDC's data processing and validation procedures.
#
#######################################################################

data_WIVYEG
_symmetry_cell_setting           cubic
_symmetry_space_group_name_H-M   'I 21 3'
_symmetry_Int_Tables_number      199
_space_group_name_Hall           'I 2b 2c 3'
loop_
_symmetry_equiv_pos_site_id
_symmetry_equiv_pos_as_xyz
1 x,y,z
2 1/2-x,-y,1/2+z
3 -x,1/2+y,1/2-z
4 1/2+x,1/2-y,-z
5 z,x,y
6 1/2+z,1/2-x,-y
7 1/2-z,-x,1/2+y
8 -z,1/2+x,1/2-y
9 y,z,x
10 -y,1/2+z,1/2-x
11 1/2+y,1/2-z,-x
12 1/2-y,-z,1/2+x
13 1/2+x,1/2+y,1/2+z
14 -x,1/2-y,z
15 1/2-x,y,-z
16 x,-y,1/2-z
17 1/2+z,1/2+x,1/2+y
18 z,-x,1/2-y
19 -z,1/2-x,y
20 1/2-z,x,-y
21 1/2+y,1/2+z,1/2+x
22 1/2-y,z,-x
23 y,-z,1/2-x
24 -y,1/2-z,x
_cell_length_a                   16.0529(9)
_cell_length_b                   16.0529(9)
_cell_length_c                   16.0529(9)
_cell_angle_alpha                90
_cell_angle_beta                 90
_cell_angle_gamma                90
_cell_volume                     4136.76
loop_
_atom_site_label
_atom_site_type_symbol
_atom_site_fract_x
_atom_site_fract_y
_atom_site_fract_z
Dy1 Dy -0.379890(17) -0.620110(17) -0.120110(17)
Zn1 Zn -0.5000 -0.7500 -0.26521(7)
P1 P -0.40334(10) -0.59385(10) -0.31538(10)
N1 N -0.4123(3) -0.7499(4) -0.3692(4)
O1 O -0.4748(3) -0.6252(3) -0.2625(3)
O2 O -0.3263(3) -0.5931(3) -0.2580(3)
O3 O -0.4196(3) -0.5129(3) -0.3602(3)
C1 C -0.3866(5) -0.6723(4) -0.3932(5)
C2 C -0.3540(5) -0.6579(5) -0.4700(5)
H5 H -0.3381 -0.6043 -0.4854
C3 C -0.3447(6) -0.7226(5) -0.5246(5)
H6 H -0.3230 -0.7134 -0.5775
C4 C -0.3674(6) -0.8006(5) -0.5007(6)
H7 H -0.3607 -0.8457 -0.5365
C5 C -0.4002(5) -0.8115(5) -0.4231(5)
H8 H -0.4149 -0.8652 -0.4069
Dy1O Dy -0.379890(17) -0.379890(17) -0.379890(17)
Dy1N Dy -0.120110(17) -0.620110(17) 0.120110(17)
Dy1M Dy -0.620110(17) -0.879890(17) -0.120110(17)
Zn1F Zn -0.23479(7) -0.5000 -0.2500
Zn1I Zn -0.2500 -0.76521(7) 0.0000
Zn1B Zn -0.5000 -0.2500 -0.23479(7)
Zn1D Zn -0.26521(7) -0.5000 0.2500
Zn1K Zn -0.7500 -0.73479(7) 0.0000
P1F P -0.18462(10) -0.59666(10) -0.09385(10)
P1I P -0.40615(10) -0.81538(10) -0.09666(10)
P1O P -0.40334(10) -0.40615(10) -0.18462(10)
P1Q P -0.31538(10) -0.59666(10) 0.09385(10)
P1V P -0.59385(10) -0.68462(10) -0.09666(10)
N1F N -0.1308(4) -0.5877(3) -0.2499(4)
N1I N -0.2501(4) -0.8692(4) -0.0877(3)
N1O N -0.4123(3) -0.2501(4) -0.1308(4)
N1Q N -0.3692(4) -0.5877(3) 0.2499(4)
N1V N -0.7499(4) -0.6308(4) -0.0877(3)
N1M N -0.5877(3) -0.7501(4) -0.3692(4)
N1S N -0.1308(4) -0.4123(3) -0.2501(4)
N1T N -0.2499(4) -0.8692(4) 0.0877(3)
O1F O -0.2375(3) -0.5252(3) -0.1252(3)
O1I O -0.3748(3) -0.7625(3) -0.0252(3)
O1O O -0.4748(3) -0.3748(3) -0.2375(3)
O1Q O -0.2625(3) -0.5252(3) 0.1252(3)
O1V O -0.6252(3) -0.7375(3) -0.0252(3)
O1M O -0.5252(3) -0.8748(3) -0.2625(3)
O1S O -0.2375(3) -0.4748(3) -0.3748(3)
O1W O -0.3748(3) -0.2375(3) -0.4748(3)
O1T O -0.1252(3) -0.7625(3) 0.0252(3)
O2F O -0.2420(3) -0.6737(3) -0.0931(3)
O2I O -0.4069(3) -0.7580(3) -0.1737(3)
O2O O -0.3263(3) -0.4069(3) -0.2420(3)
O2Q O -0.2580(3) -0.6737(3) 0.0931(3)
O2V O -0.5931(3) -0.7420(3) -0.1737(3)
O2S O -0.2420(3) -0.3263(3) -0.4069(3)
O2W O -0.4069(3) -0.2420(3) -0.3263(3)
O3F O -0.1398(3) -0.5804(3) -0.0129(3)
O3I O -0.4871(3) -0.8602(3) -0.0804(3)
O3O O -0.4196(3) -0.4871(3) -0.1398(3)
O3Q O -0.3602(3) -0.5804(3) 0.0129(3)
O3V O -0.5129(3) -0.6398(3) -0.0804(3)
O3D O -0.3602(3) -0.4196(3) -0.5129(3)
O3H O -0.5129(3) -0.3602(3) -0.4196(3)
C1F C -0.1068(5) -0.6134(5) -0.1723(4)
C1I C -0.3277(4) -0.8932(5) -0.1134(5)
C1O C -0.3866(5) -0.3277(4) -0.1068(5)
C1Q C -0.3932(5) -0.6134(5) 0.1723(4)
C1V C -0.6723(4) -0.6068(5) -0.1134(5)
C2F C -0.0300(5) -0.6460(5) -0.1579(5)
C2I C -0.3421(5) -0.9700(5) -0.1460(5)
C2O C -0.3540(5) -0.3421(5) -0.0300(5)
C2Q C -0.4700(5) -0.6460(5) 0.1579(5)
C2V C -0.6579(5) -0.5300(5) -0.1460(5)
H5F H -0.0146 -0.6619 -0.1043
H5I H -0.3957 -0.9854 -0.1619
H5O H -0.3381 -0.3957 -0.0146
H5Q H -0.4854 -0.6619 0.1043
H5V H -0.6043 -0.5146 -0.1619
C3F C 0.0246(5) -0.6553(6) -0.2226(5)
C3I C -0.2774(5) -1.0246(5) -0.1553(6)
C3O C -0.3447(6) -0.2774(5) 0.0246(5)
C3Q C -0.5246(5) -0.6553(6) 0.2226(5)
C3V C -0.7226(5) -0.4754(5) -0.1553(6)
H6F H 0.0775 -0.6770 -0.2134
H6I H -0.2866 -1.0775 -0.1770
H6O H -0.3230 -0.2866 0.0775
H6Q H -0.5775 -0.6770 0.2134
H6V H -0.7134 -0.4225 -0.1770
C4F C 0.0007(6) -0.6326(6) -0.3006(5)
C4I C -0.1994(5) -1.0007(6) -0.1326(6)
C4O C -0.3674(6) -0.1994(5) 0.0007(6)
C4Q C -0.5007(6) -0.6326(6) 0.3006(5)
C4V C -0.8006(5) -0.4993(6) -0.1326(6)
H7F H 0.0365 -0.6393 -0.3457
H7I H -0.1543 -1.0365 -0.1393
H7O H -0.3607 -0.1543 0.0365
H7Q H -0.5365 -0.6393 0.3457
H7V H -0.8457 -0.4635 -0.1393
C5F C -0.0769(5) -0.5998(5) -0.3115(5)
C5I C -0.1885(5) -0.9231(5) -0.0998(5)
C5O C -0.4002(5) -0.1885(5) -0.0769(5)
C5Q C -0.4231(5) -0.5998(5) 0.3115(5)
C5V C -0.8115(5) -0.5769(5) -0.0998(5)
H8F H -0.0931 -0.5851 -0.3652
H8I H -0.1348 -0.9069 -0.0851
H8O H -0.4149 -0.1348 -0.0931
H8Q H -0.4069 -0.5851 0.3652
H8V H -0.8652 -0.5931 -0.0851
O4 O -0.2270(4) -0.7730(4) -0.2730(4)
O5 O -0.4755(4) -0.9755(4) -0.5245(4)
H1? H -0.2727 -0.7457 -0.2709
H2? H -0.1916 -0.7497 -0.2411
H3? H -0.5282 -0.9776 -0.5242
H4? H -0.4555 -1.0199 -0.5042
loop_
_geom_bond_atom_site_label_1
_geom_bond_atom_site_label_2
_geom_bond_site_symmetry_1
_geom_bond_site_symmetry_2
Dy1 O1 1_555 1_555
Zn1 N1 1_555 1_555
P1 O1 1_555 1_555
N1 C1 1_555 1_555
O1 Zn1 1_555 1_555
O2 Dy1 1_555 1_555
O3 P1 1_555 1_555
C1 P1 1_555 1_555
C2 C1 1_555 1_555
H5 C2 1_555 1_555
C3 C2 1_555 1_555
H6 C3 1_555 1_555
C4 C3 1_555 1_555
H7 C4 1_555 1_555
C5 N1 1_555 1_555
H8 C5 1_555 1_555
Dy1O O3 1_555 1_555
Dy1N O1Q 1_555 1_555
Dy1M O1V 1_555 1_555
Zn1F O2 1_555 1_555
Zn1I N1I 1_555 1_555
Zn1B N1O 1_555 1_555
Zn1D N1Q 1_555 1_555
Zn1K N1V 1_555 1_555
P1F O1F 1_555 1_555
P1I O1I 1_555 1_555
P1O O1O 1_555 1_555
P1Q O1Q 1_555 1_555
P1V O1V 1_555 1_555
N1F Zn1F 1_555 1_555
N1I C1I 1_555 1_555
N1O C1O 1_555 1_555
N1Q C1Q 1_555 1_555
N1V C1V 1_555 1_555
N1M Zn1 1_555 1_555
N1S Zn1F 1_555 1_555
N1T Zn1I 1_555 1_555
O1F Dy1 1_555 1_555
O1I Dy1 1_555 1_555
O1O Dy1O 1_555 1_555
O1Q Zn1D 1_555 1_555
O1V Zn1K 1_555 1_555
O1M Zn1 1_555 1_555
O1S Dy1O 1_555 1_555
O1W Dy1O 1_555 1_555
O1T Dy1N 1_555 1_555
O2F Dy1 1_555 1_555
O2I Dy1 1_555 1_555
O2O Dy1O 1_555 1_555
O2Q Dy1N 1_555 1_555
O2V Zn1 1_555 1_555
O2S Dy1O 1_555 1_555
O2W Dy1O 1_555 1_555
O3F Dy1N 1_555 1_555
O3I Dy1M 1_555 1_555
O3O Dy1 1_555 1_555
O3Q Dy1 1_555 1_555
O3V Dy1 1_555 1_555
O3D Dy1O 1_555 1_555
O3H Dy1O 1_555 1_555
C1F P1F 1_555 1_555
C1I P1I 1_555 1_555
C1O P1O 1_555 1_555
C1Q P1Q 1_555 1_555
C1V P1V 1_555 1_555
C2F C1F 1_555 1_555
C2I C1I 1_555 1_555
C2O C1O 1_555 1_555
C2Q C1Q 1_555 1_555
C2V C1V 1_555 1_555
H5F C2F 1_555 1_555
H5I C2I 1_555 1_555
H5O C2O 1_555 1_555
H5Q C2Q 1_555 1_555
H5V C2V 1_555 1_555
C3F C2F 1_555 1_555
C3I C2I 1_555 1_555
C3O C2O 1_555 1_555
C3Q C2Q 1_555 1_555
C3V C2V 1_555 1_555
H6F C3F 1_555 1_555
H6I C3I 1_555 1_555
H6O C3O 1_555 1_555
H6Q C3Q 1_555 1_555
H6V C3V 1_555 1_555
C4F C3F 1_555 1_555
C4I C3I 1_555 1_555
C4O C3O 1_555 1_555
C4Q C3Q 1_555 1_555
C4V C3V 1_555 1_555
H7F C4F 1_555 1_555
H7I C4I 1_555 1_555
H7O C4O 1_555 1_555
H7Q C4Q 1_555 1_555
H7V C4V 1_555 1_555
C5F N1F 1_555 1_555
C5I N1I 1_555 1_555
C5O N1O 1_555 1_555
C5Q N1Q 1_555 1_555
C5V N1V 1_555 1_555
H8F C5F 1_555 1_555
H8I C5I 1_555 1_555
H8O C5O 1_555 1_555
H8Q C5Q 1_555 1_555
H8V C5V 1_555 1_555
Zn1 O2I 1_555 1_555
P1 O2 1_555 1_555
C4 C5 1_555 1_555
Dy1M O1M 1_555 1_555
Dy1M O2V 1_555 1_555
Zn1F O1F 1_555 1_555
Zn1F O1S 1_555 1_555
Zn1F O2O 1_555 1_555
Zn1I O1I 1_555 1_555
Zn1I O1T 1_555 1_555
Zn1I O2F 1_555 1_555
Zn1I O2Q 1_555 1_555
Zn1B O1O 1_555 1_555
Zn1B O2W 1_555 1_555
P1F O2F 1_555 1_555
P1F O3F 1_555 1_555
P1I O2I 1_555 1_555
P1I O3I 1_555 1_555
P1O O2O 1_555 1_555
P1O O3O 1_555 1_555
P1Q O2Q 1_555 1_555
P1Q O3Q 1_555 1_555
P1V O2V 1_555 1_555
P1V O3V 1_555 1_555
N1F C1F 1_555 1_555
C4F C5F 1_555 1_555
C4I C5I 1_555 1_555
C4O C5O 1_555 1_555
C4Q C5Q 1_555 1_555
C4V C5V 1_555 1_555

#END
