
#######################################################################
#
#                 Cambridge Crystallographic Data Centre
#                                CCDC 
#
#######################################################################
#
# If this CIF has been generated from an entry in the Cambridge 
# Structural Database, then it will include bibliographic, chemical, 
# crystal, experimental, refinement or atomic coordinate data resulting 
# from the CCDC's data processing and validation procedures.
#
#######################################################################

data_WIVYIK
_symmetry_cell_setting           cubic
_symmetry_space_group_name_H-M   'I 21 3'
_symmetry_Int_Tables_number      199
_space_group_name_Hall           'I 2b 2c 3'
loop_
_symmetry_equiv_pos_site_id
_symmetry_equiv_pos_as_xyz
1 x,y,z
2 1/2-x,-y,1/2+z
3 -x,1/2+y,1/2-z
4 1/2+x,1/2-y,-z
5 z,x,y
6 1/2+z,1/2-x,-y
7 1/2-z,-x,1/2+y
8 -z,1/2+x,1/2-y
9 y,z,x
10 -y,1/2+z,1/2-x
11 1/2+y,1/2-z,-x
12 1/2-y,-z,1/2+x
13 1/2+x,1/2+y,1/2+z
14 -x,1/2-y,z
15 1/2-x,y,-z
16 x,-y,1/2-z
17 1/2+z,1/2+x,1/2+y
18 z,-x,1/2-y
19 -z,1/2-x,y
20 1/2-z,x,-y
21 1/2+y,1/2+z,1/2+x
22 1/2-y,z,-x
23 y,-z,1/2-x
24 -y,1/2-z,x
_cell_length_a                   16.1653(6)
_cell_length_b                   16.1653(6)
_cell_length_c                   16.1653(6)
_cell_angle_alpha                90
_cell_angle_beta                 90
_cell_angle_gamma                90
_cell_volume                     4224.27
loop_
_atom_site_label
_atom_site_type_symbol
_atom_site_fract_x
_atom_site_fract_y
_atom_site_fract_z
Tb1 Tb 0.37979(3) 0.62021(3) 0.12021(3)
Zn1 Zn 0.5000 0.7500 0.26525(9)
P1 P 0.40250(14) 0.59473(13) 0.31566(14)
N1 N 0.4128(5) 0.7515(5) 0.3669(5)
O1 O 0.4727(3) 0.6268(4) 0.2621(3)
O2 O 0.3254(3) 0.5922(3) 0.2598(4)
O3 O 0.4202(4) 0.5142(4) 0.3612(4)
C1 C 0.3862(7) 0.6727(6) 0.3932(7)
C2 C 0.3542(7) 0.6605(7) 0.4681(7)
H5 H 0.3371 0.6078 0.4837
C3 C 0.3463(8) 0.7249(8) 0.5224(7)
H6 H 0.3249 0.7155 0.5750
C4 C 0.3697(8) 0.8028(7) 0.4999(8)
H7 H 0.3639 0.8476 0.5356
C5 C 0.4023(7) 0.8116(7) 0.4217(7)
H8 H 0.4184 0.8645 0.4059
Tb1O Tb 0.37979(3) 0.37979(3) 0.37979(3)
Tb1N Tb 0.12021(3) 0.62021(3) -0.12021(3)
Tb1M Tb 0.62021(3) 0.87979(3) 0.12021(3)
Zn1F Zn 0.23475(9) 0.5000 0.2500
Zn1I Zn 0.2500 0.76525(9) 0.0000
Zn1B Zn 0.5000 0.2500 0.23475(9)
Zn1D Zn 0.26525(9) 0.5000 -0.2500
Zn1K Zn 0.7500 0.73475(9) 0.0000
P1F P 0.18434(14) 0.59750(14) 0.09473(13)
P1I P 0.40527(13) 0.81566(14) 0.09750(14)
P1O P 0.40250(14) 0.40527(13) 0.18434(14)
P1Q P 0.31566(14) 0.59750(14) -0.09473(13)
P1V P 0.59473(13) 0.68434(14) 0.09750(14)
N1F N 0.1331(5) 0.5872(5) 0.2515(5)
N1I N 0.2485(5) 0.8669(5) 0.0872(5)
N1O N 0.4128(5) 0.2485(5) 0.1331(5)
N1Q N 0.3669(5) 0.5872(5) -0.2515(5)
N1V N 0.7515(5) 0.6331(5) 0.0872(5)
N1M N 0.5872(5) 0.7485(5) 0.3669(5)
N1S N 0.1331(5) 0.4128(5) 0.2485(5)
N1T N 0.2515(5) 0.8669(5) -0.0872(5)
O1F O 0.2379(3) 0.5273(3) 0.1268(4)
O1I O 0.3732(4) 0.7621(3) 0.0273(3)
O1O O 0.4727(3) 0.3732(4) 0.2379(3)
O1Q O 0.2621(3) 0.5273(3) -0.1268(4)
O1V O 0.6268(4) 0.7379(3) 0.0273(3)
O1M O 0.5273(3) 0.8732(4) 0.2621(3)
O1S O 0.2379(3) 0.4727(3) 0.3732(4)
O1W O 0.3732(4) 0.2379(3) 0.4727(3)
O1T O 0.1268(4) 0.7621(3) -0.0273(3)
O2F O 0.2402(4) 0.6746(3) 0.0922(3)
O2I O 0.4078(3) 0.7598(4) 0.1746(3)
O2O O 0.3254(3) 0.4078(3) 0.2402(4)
O2Q O 0.2598(4) 0.6746(3) -0.0922(3)
O2V O 0.5922(3) 0.7402(4) 0.1746(3)
O2S O 0.2402(4) 0.3254(3) 0.4078(3)
O2W O 0.4078(3) 0.2402(4) 0.3254(3)
O3F O 0.1388(4) 0.5798(4) 0.0142(4)
O3I O 0.4858(4) 0.8612(4) 0.0798(4)
O3O O 0.4202(4) 0.4858(4) 0.1388(4)
O3Q O 0.3612(4) 0.5798(4) -0.0142(4)
O3V O 0.5142(4) 0.6388(4) 0.0798(4)
O3D O 0.3612(4) 0.4202(4) 0.5142(4)
O3H O 0.5142(4) 0.3612(4) 0.4202(4)
C1F C 0.1068(7) 0.6138(7) 0.1727(6)
C1I C 0.3273(6) 0.8932(7) 0.1138(7)
C1O C 0.3862(7) 0.3273(6) 0.1068(7)
C1Q C 0.3932(7) 0.6138(7) -0.1727(6)
C1V C 0.6727(6) 0.6068(7) 0.1138(7)
C2F C 0.0319(7) 0.6458(7) 0.1605(7)
C2I C 0.3395(7) 0.9681(7) 0.1458(7)
C2O C 0.3542(7) 0.3395(7) 0.0319(7)
C2Q C 0.4681(7) 0.6458(7) -0.1605(7)
C2V C 0.6605(7) 0.5319(7) 0.1458(7)
H5F H 0.0163 0.6629 0.1078
H5I H 0.3922 0.9837 0.1629
H5O H 0.3371 0.3922 0.0163
H5Q H 0.4837 0.6629 -0.1078
H5V H 0.6078 0.5163 0.1629
C3F C -0.0224(7) 0.6537(8) 0.2249(8)
C3I C 0.2751(8) 1.0224(7) 0.1537(8)
C3O C 0.3463(8) 0.2751(8) -0.0224(7)
C3Q C 0.5224(7) 0.6537(8) -0.2249(8)
C3V C 0.7249(8) 0.4776(7) 0.1537(8)
H6F H -0.0750 0.6751 0.2155
H6I H 0.2845 1.0750 0.1751
H6O H 0.3249 0.2845 -0.0750
H6Q H 0.5750 0.6751 -0.2155
H6V H 0.7155 0.4250 0.1751
C4F C 0.0001(8) 0.6303(8) 0.3028(7)
C4I C 0.1972(7) 0.9999(8) 0.1303(8)
C4O C 0.3697(8) 0.1972(7) 0.0001(8)
C4Q C 0.4999(8) 0.6303(8) -0.3028(7)
C4V C 0.8028(7) 0.5001(8) 0.1303(8)
H7F H -0.0356 0.6361 0.3476
H7I H 0.1524 1.0356 0.1361
H7O H 0.3639 0.1524 -0.0356
H7Q H 0.5356 0.6361 -0.3476
H7V H 0.8476 0.4644 0.1361
C5F C 0.0783(7) 0.5977(7) 0.3116(7)
C5I C 0.1884(7) 0.9217(7) 0.0977(7)
C5O C 0.4023(7) 0.1884(7) 0.0783(7)
C5Q C 0.4217(7) 0.5977(7) -0.3116(7)
C5V C 0.8116(7) 0.5783(7) 0.0977(7)
H8F H 0.0941 0.5816 0.3645
H8I H 0.1355 0.9059 0.0816
H8O H 0.4184 0.1355 0.0941
H8Q H 0.4059 0.5816 -0.3645
H8V H 0.8645 0.5941 0.0816
O4 O 0.2267(6) 0.7733(6) 0.2733(6)
O5 O 0.4757(6) 0.9757(6) 0.5243(6)
H1? H 0.2637 0.7494 0.3012
H2? H 0.2013 0.7360 0.2446
H3? H 0.5274 0.9706 0.5253
H4? H 0.4640 1.0026 0.4780
loop_
_geom_bond_atom_site_label_1
_geom_bond_atom_site_label_2
_geom_bond_site_symmetry_1
_geom_bond_site_symmetry_2
Tb1 O1 1_555 1_555
Zn1 N1 1_555 1_555
P1 O1 1_555 1_555
N1 C1 1_555 1_555
O1 Zn1 1_555 1_555
O2 Tb1 1_555 1_555
O3 P1 1_555 1_555
C1 P1 1_555 1_555
C2 C1 1_555 1_555
H5 C2 1_555 1_555
C3 C2 1_555 1_555
H6 C3 1_555 1_555
C4 C3 1_555 1_555
H7 C4 1_555 1_555
C5 N1 1_555 1_555
H8 C5 1_555 1_555
Tb1O O3 1_555 1_555
Tb1N O1Q 1_555 1_555
Tb1M O1V 1_555 1_555
Zn1F O2 1_555 1_555
Zn1I N1I 1_555 1_555
Zn1B N1O 1_555 1_555
Zn1D N1Q 1_555 1_555
Zn1K N1V 1_555 1_555
P1F O1F 1_555 1_555
P1I O1I 1_555 1_555
P1O O1O 1_555 1_555
P1Q O1Q 1_555 1_555
P1V O1V 1_555 1_555
N1F Zn1F 1_555 1_555
N1I C1I 1_555 1_555
N1O C1O 1_555 1_555
N1Q C1Q 1_555 1_555
N1V C1V 1_555 1_555
N1M Zn1 1_555 1_555
N1S Zn1F 1_555 1_555
N1T Zn1I 1_555 1_555
O1F Tb1 1_555 1_555
O1I Tb1 1_555 1_555
O1O Tb1O 1_555 1_555
O1Q Zn1D 1_555 1_555
O1V Zn1K 1_555 1_555
O1M Zn1 1_555 1_555
O1S Tb1O 1_555 1_555
O1W Tb1O 1_555 1_555
O1T Tb1N 1_555 1_555
O2F Tb1 1_555 1_555
O2I Tb1 1_555 1_555
O2O Tb1O 1_555 1_555
O2Q Tb1N 1_555 1_555
O2V Zn1 1_555 1_555
O2S Tb1O 1_555 1_555
O2W Tb1O 1_555 1_555
O3F Tb1N 1_555 1_555
O3I Tb1M 1_555 1_555
O3O Tb1 1_555 1_555
O3Q Tb1 1_555 1_555
O3V Tb1 1_555 1_555
O3D Tb1O 1_555 1_555
O3H Tb1O 1_555 1_555
C1F P1F 1_555 1_555
C1I P1I 1_555 1_555
C1O P1O 1_555 1_555
C1Q P1Q 1_555 1_555
C1V P1V 1_555 1_555
C2F C1F 1_555 1_555
C2I C1I 1_555 1_555
C2O C1O 1_555 1_555
C2Q C1Q 1_555 1_555
C2V C1V 1_555 1_555
H5F C2F 1_555 1_555
H5I C2I 1_555 1_555
H5O C2O 1_555 1_555
H5Q C2Q 1_555 1_555
H5V C2V 1_555 1_555
C3F C2F 1_555 1_555
C3I C2I 1_555 1_555
C3O C2O 1_555 1_555
C3Q C2Q 1_555 1_555
C3V C2V 1_555 1_555
H6F C3F 1_555 1_555
H6I C3I 1_555 1_555
H6O C3O 1_555 1_555
H6Q C3Q 1_555 1_555
H6V C3V 1_555 1_555
C4F C3F 1_555 1_555
C4I C3I 1_555 1_555
C4O C3O 1_555 1_555
C4Q C3Q 1_555 1_555
C4V C3V 1_555 1_555
H7F C4F 1_555 1_555
H7I C4I 1_555 1_555
H7O C4O 1_555 1_555
H7Q C4Q 1_555 1_555
H7V C4V 1_555 1_555
C5F N1F 1_555 1_555
C5I N1I 1_555 1_555
C5O N1O 1_555 1_555
C5Q N1Q 1_555 1_555
C5V N1V 1_555 1_555
H8F C5F 1_555 1_555
H8I C5I 1_555 1_555
H8O C5O 1_555 1_555
H8Q C5Q 1_555 1_555
H8V C5V 1_555 1_555
Zn1 O2I 1_555 1_555
P1 O2 1_555 1_555
C4 C5 1_555 1_555
Tb1M O1M 1_555 1_555
Tb1M O2V 1_555 1_555
Zn1F O1F 1_555 1_555
Zn1F O1S 1_555 1_555
Zn1F O2O 1_555 1_555
Zn1I O1I 1_555 1_555
Zn1I O1T 1_555 1_555
Zn1I O2F 1_555 1_555
Zn1I O2Q 1_555 1_555
Zn1B O1O 1_555 1_555
Zn1B O2W 1_555 1_555
P1F O2F 1_555 1_555
P1F O3F 1_555 1_555
P1I O2I 1_555 1_555
P1I O3I 1_555 1_555
P1O O2O 1_555 1_555
P1O O3O 1_555 1_555
P1Q O2Q 1_555 1_555
P1Q O3Q 1_555 1_555
P1V O2V 1_555 1_555
P1V O3V 1_555 1_555
N1F C1F 1_555 1_555
C4F C5F 1_555 1_555
C4I C5I 1_555 1_555
C4O C5O 1_555 1_555
C4Q C5Q 1_555 1_555
C4V C5V 1_555 1_555

#END
