
#######################################################################
#
#                 Cambridge Crystallographic Data Centre
#                                CCDC 
#
#######################################################################
#
# If this CIF has been generated from an entry in the Cambridge 
# Structural Database, then it will include bibliographic, chemical, 
# crystal, experimental, refinement or atomic coordinate data resulting 
# from the CCDC's data processing and validation procedures.
#
#######################################################################

data_WIVZEI
_symmetry_cell_setting           monoclinic
_symmetry_space_group_name_H-M   'C 2/c'
_symmetry_Int_Tables_number      15
_space_group_name_Hall           '-C 2yn'
loop_
_symmetry_equiv_pos_site_id
_symmetry_equiv_pos_as_xyz
1 x,y,z
2 -x,y,1/2-z
3 1/2+x,1/2+y,z
4 1/2-x,1/2+y,1/2-z
5 -x,-y,-z
6 x,-y,1/2+z
7 1/2-x,1/2-y,-z
8 1/2+x,1/2-y,1/2+z
_cell_length_a                   11.4614(18)
_cell_length_b                   17.7702(18)
_cell_length_c                   19.382(2)
_cell_angle_alpha                90
_cell_angle_beta                 93.228(7)
_cell_angle_gamma                90
_cell_volume                     3941.3
loop_
_atom_site_label
_atom_site_type_symbol
_atom_site_fract_x
_atom_site_fract_y
_atom_site_fract_z
Cu1 Cu 0.11182(5) 0.19231(3) 0.61431(2)
Cu2 Cu 0.2500 0.2500 0.5000
O1 O 0.2006(3) 0.28167(16) 0.59123(13)
O2 O 0.1260(3) 0.17752(17) 0.51557(13)
O3 O -0.0712(3) 0.2651(2) 0.59385(18)
C1 C 0.0000 0.1106(3) 0.7500
N1 N 0.0216(3) 0.0986(2) 0.62223(16)
C2 C 0.1408(4) 0.2840(2) 0.7343(2)
H1 H 0.1412 0.2910 0.7819
C3 C 0.1597(3) 0.3506(2) 0.6930(2)
N2 N 0.1237(3) 0.2168(2) 0.71234(16)
C4 C 0.1103(4) 0.1570(2) 0.76443(19)
H2 H 0.1079 0.1799 0.8098
H3 H 0.1778 0.1240 0.7649
C5 C -0.1338(4) 0.0720(3) 0.4548(3)
H4 H -0.1855 0.0369 0.4713
C6 C -0.0430(4) 0.0995(3) 0.4996(2)
O4 O 0.3859(4) 0.1487(3) 0.5651(3)
N3 N 0.3576(4) 0.0955(3) 0.6048(3)
C7 C -0.0367(4) 0.0713(3) 0.5697(2)
H5 H -0.0801 0.0283 0.5776
C8 C 0.1474(4) 0.4201(3) 0.7255(2)
H6 H 0.1295 0.4214 0.7717
C9 C 0.1897(3) 0.3481(2) 0.62358(19)
C10 C 0.1904(4) 0.4840(3) 0.6226(3)
H7 H 0.2000 0.5286 0.5985
C11 C 0.0218(4) 0.1746(3) 0.4049(2)
H8 H 0.0738 0.2089 0.3873
C12 C 0.0157(4) 0.0578(2) 0.6878(2)
H9 H 0.0869 0.0289 0.6961
H10 H -0.0491 0.0227 0.6841
C13 C 0.0367(4) 0.1523(3) 0.4739(2)
C14 C 0.2057(4) 0.4163(3) 0.5896(2)
H11 H 0.2270 0.4160 0.5440
C15 C -0.0688(4) 0.1465(3) 0.3626(2)
H12 H -0.0770 0.1620 0.3167
C16 C 0.1611(4) 0.4871(3) 0.6907(3)
H13 H 0.1508 0.5331 0.7125
O5 O 0.2955(5) 0.1088(4) 0.6498(3)
C17 C -0.1483(5) 0.0953(3) 0.3877(3)
H14 H -0.2102 0.0773 0.3593
O6 O 0.3920(6) 0.0342(3) 0.5892(4)
H15 H -0.066(4) 0.304(2) 0.568(3)
H16 H -0.136(3) 0.242(2) 0.584(2)
O1A O -0.2006(3) 0.28167(16) 0.90877(13)
O2A O -0.1260(3) 0.17752(17) 0.98443(13)
N1A N -0.0216(3) 0.0986(2) 0.87777(16)
C2A C -0.1408(4) 0.2840(2) 0.7657(2)
H1A H -0.1412 0.2910 0.7181
C3A C -0.1597(3) 0.3506(2) 0.8070(2)
N2A N -0.1237(3) 0.2168(2) 0.78766(16)
C4A C -0.1103(4) 0.1570(2) 0.73557(19)
H2A H -0.1079 0.1799 0.6902
H3A H -0.1778 0.1240 0.7351
C5A C 0.1338(4) 0.0720(3) 1.0452(3)
H4A H 0.1855 0.0369 1.0287
C6A C 0.0430(4) 0.0995(3) 1.0004(2)
C7A C 0.0367(4) 0.0713(3) 0.9303(2)
H5A H 0.0801 0.0283 0.9224
C8A C -0.1474(4) 0.4201(3) 0.7745(2)
H6A H -0.1295 0.4214 0.7283
C9A C -0.1897(3) 0.3481(2) 0.87642(19)
C10A C -0.1904(4) 0.4840(3) 0.8774(3)
H7A H -0.2000 0.5286 0.9015
C11A C -0.0218(4) 0.1746(3) 1.0951(2)
H8A H -0.0738 0.2089 1.1127
C12A C -0.0157(4) 0.0578(2) 0.8122(2)
H9A H -0.0869 0.0289 0.8039
H10A H 0.0491 0.0227 0.8159
C13A C -0.0367(4) 0.1523(3) 1.0261(2)
C14A C -0.2057(4) 0.4163(3) 0.9104(2)
H11A H -0.2270 0.4160 0.9560
C15A C 0.0688(4) 0.1465(3) 1.1374(2)
H12A H 0.0770 0.1620 1.1833
C16A C -0.1611(4) 0.4871(3) 0.8093(3)
H13A H -0.1508 0.5331 0.7875
C17A C 0.1483(5) 0.0953(3) 1.1123(3)
H14A H 0.2102 0.0773 1.1407
Cu1A Cu -0.11182(5) 0.19231(3) 0.88569(2)
O3A O 0.0712(3) 0.2651(2) 0.90615(18)
O4A O -0.3859(4) 0.1487(3) 0.9349(3)
N3A N -0.3576(4) 0.0955(3) 0.8952(3)
O5A O -0.2955(5) 0.1088(4) 0.8502(3)
O6A O -0.3920(6) 0.0342(3) 0.9108(4)
H15A H 0.066(4) 0.304(2) 0.932(3)
H16A H 0.136(3) 0.242(2) 0.916(2)
Cu2A Cu -0.2500 0.2500 1.0000
O1F O 0.2994(3) 0.21833(16) 0.40877(13)
O2F O 0.3740(3) 0.32248(17) 0.48443(13)
O4F O 0.1141(4) 0.3513(3) 0.4349(3)
O7 O 0.5736(3) 0.1011(2) 0.48247(19)
O8 O -0.2870(4) 0.1890(3) 0.5812(3)
O9 O 0.4263(15) 0.1905(9) 0.7738(9)
loop_
_geom_bond_atom_site_label_1
_geom_bond_atom_site_label_2
_geom_bond_site_symmetry_1
_geom_bond_site_symmetry_2
Cu1 O1 1_555 1_555
Cu2 O1 1_555 1_555
O1 C9 1_555 1_555
O2 Cu1 1_555 1_555
O3 Cu1 1_555 1_555
C1 C4 1_555 1_555
N1 Cu1 1_555 1_555
C2 H1 1_555 1_555
C3 C2 1_555 1_555
N2 Cu1 1_555 1_555
C4 N2 1_555 1_555
H2 C4 1_555 1_555
H3 C4 1_555 1_555
C5 H4 1_555 1_555
C6 C5 1_555 1_555
O4 Cu2 1_555 1_555
N3 O4 1_555 1_555
C7 N1 1_555 1_555
H5 C7 1_555 1_555
C8 C3 1_555 1_555
H6 C8 1_555 1_555
C9 C3 1_555 1_555
C10 H7 1_555 1_555
C11 H8 1_555 1_555
C12 C1 1_555 1_555
H9 C12 1_555 1_555
H10 C12 1_555 1_555
C13 O2 1_555 1_555
C14 C9 1_555 1_555
H11 C14 1_555 1_555
C15 C11 1_555 1_555
H12 C15 1_555 1_555
C16 C8 1_555 1_555
H13 C16 1_555 1_555
O5 Cu1 1_555 1_555
C17 C5 1_555 1_555
H14 C17 1_555 1_555
O6 N3 1_555 1_555
H15 O3 1_555 1_555
H16 O3 1_555 1_555
O1A C9A 1_555 1_555
O2A C13A 1_555 1_555
N1A C7A 1_555 1_555
C2A H1A 1_555 1_555
C3A C2A 1_555 1_555
N2A C2A 1_555 1_555
C4A C1 1_555 1_555
H2A C4A 1_555 1_555
H3A C4A 1_555 1_555
C5A H4A 1_555 1_555
C6A C5A 1_555 1_555
C7A C6A 1_555 1_555
H5A C7A 1_555 1_555
C8A C3A 1_555 1_555
H6A C8A 1_555 1_555
C9A C3A 1_555 1_555
C10A H7A 1_555 1_555
C11A H8A 1_555 1_555
C12A C1 1_555 1_555
H9A C12A 1_555 1_555
H10A C12A 1_555 1_555
C13A C6A 1_555 1_555
C14A C9A 1_555 1_555
H11A C14A 1_555 1_555
C15A C11A 1_555 1_555
H12A C15A 1_555 1_555
C16A C8A 1_555 1_555
H13A C16A 1_555 1_555
C17A C5A 1_555 1_555
H14A C17A 1_555 1_555
Cu1A O1A 1_555 1_555
O3A Cu1A 1_555 1_555
O4A N3A 1_555 1_555
N3A O5A 1_555 1_555
O5A Cu1A 1_555 1_555
O6A N3A 1_555 1_555
H15A O3A 1_555 1_555
H16A O3A 1_555 1_555
Cu2A O1A 1_555 1_555
O1F Cu2 1_555 1_555
O2F Cu2 1_555 1_555
O4F Cu2 1_555 1_555
Cu2 O2 1_555 1_555
N1 C12 1_555 1_555
C2 N2 1_555 1_555
C6 C7 1_555 1_555
C6 C13 1_555 1_555
N3 O5 1_555 1_555
C10 C14 1_555 1_555
C10 C16 1_555 1_555
C11 C13 1_555 1_555
C15 C17 1_555 1_555
O2A Cu1A 1_555 1_555
O2A Cu2A 1_555 1_555
N1A C12A 1_555 1_555
N1A Cu1A 1_555 1_555
N2A C4A 1_555 1_555
N2A Cu1A 1_555 1_555
C10A C14A 1_555 1_555
C10A C16A 1_555 1_555
C11A C13A 1_555 1_555
C15A C17A 1_555 1_555
O4A Cu2A 1_555 1_555

#END
