
#######################################################################
#
#                 Cambridge Crystallographic Data Centre
#                                CCDC 
#
#######################################################################
#
# If this CIF has been generated from an entry in the Cambridge 
# Structural Database, then it will include bibliographic, chemical, 
# crystal, experimental, refinement or atomic coordinate data resulting 
# from the CCDC's data processing and validation procedures.
#
#######################################################################

data_WIWDEN
_symmetry_cell_setting           monoclinic
_symmetry_space_group_name_H-M   'P 21/n'
_symmetry_Int_Tables_number      14
_space_group_name_Hall           '-P 2yn'
loop_
_symmetry_equiv_pos_site_id
_symmetry_equiv_pos_as_xyz
1 x,y,z
2 1/2-x,1/2+y,1/2-z
3 -x,-y,-z
4 1/2+x,1/2-y,1/2+z
_cell_length_a                   6.8477(4)
_cell_length_b                   18.2620(8)
_cell_length_c                   9.2584(5)
_cell_angle_alpha                90
_cell_angle_beta                 92.006(2)
_cell_angle_gamma                90
_cell_volume                     1157.08
loop_
_atom_site_label
_atom_site_type_symbol
_atom_site_fract_x
_atom_site_fract_y
_atom_site_fract_z
Cd1 Cd 0.25311(4) 1.018892(13) 0.89549(3)
O1 O 0.4365(4) 0.92957(15) 0.7381(3)
O2 O 0.1186(4) 0.92262(15) 0.7578(3)
O3 O 0.1022(4) 0.9542(2) 1.1043(4)
O4 O 0.4100(4) 0.94218(17) 1.0755(3)
O5 O 0.2275(6) 1.09881(19) 0.7030(3)
N1 N 0.2665(5) 0.61863(17) 0.4342(3)
C1 C 0.4469(6) 0.7910(2) 0.5991(4)
H1 H 0.5658 0.8136 0.6217
C2 C 0.4442(5) 0.7240(2) 0.5291(4)
H2 H 0.5611 0.7021 0.5050
C3 C 0.2683(5) 0.68944(18) 0.4946(4)
C4 C 0.0956(5) 0.7238(2) 0.5273(4)
H3 H -0.0234 0.7021 0.5012
C5 C 0.0988(6) 0.7907(2) 0.5990(4)
H4 H -0.0183 0.8128 0.6224
C6 C 0.2737(5) 0.82487(19) 0.6361(4)
C7 C 0.2771(6) 0.8970(2) 0.7142(4)
C8 C 0.2820(10) 0.8827(3) 1.2778(6)
H5 H 0.1641 0.8858 1.3305
H6 H 0.3901 0.8999 1.3373
H7 H 0.3045 0.8327 1.2509
C9 C 0.2628(5) 0.92806(19) 1.1468(4)
H8 H 0.368(4) 0.609(3) 0.388(5)
H9 H 0.171(4) 0.613(3) 0.375(4)
H10 H 0.240(7) 1.079(3) 0.621(3)
H11 H 0.107(7) 1.089(7) 0.721(10)
Cd1A Cd 0.24689(4) 0.518892(13) 0.60451(3)
Cd1B Cd -0.25311(4) 0.981108(13) 1.10451(3)
Cd1B_2 Cd 0.74689(4) 0.981108(13) 1.10451(3)
O3B O -0.1022(4) 1.0458(2) 0.8957(4)
O4B O 0.5900(4) 1.05782(17) 0.9245(3)
N1A N 0.2335(5) 1.11863(17) 1.0658(3)
O6 O 0.2261(6) 0.0498(3) 0.4325(4)
H12 H 0.338(4) 0.054(4) 0.395(6)
H13 H 0.141(7) 0.063(5) 0.368(6)
loop_
_geom_bond_atom_site_label_1
_geom_bond_atom_site_label_2
_geom_bond_site_symmetry_1
_geom_bond_site_symmetry_2
Cd1 O1 1_555 1_555
O1 C7 1_555 1_555
O2 Cd1 1_555 1_555
O3 Cd1 1_555 1_555
O4 Cd1 1_555 1_555
O5 Cd1 1_555 1_555
N1 C3 1_555 1_555
C1 H1 1_555 1_555
C2 C1 1_555 1_555
H2 C2 1_555 1_555
C3 C2 1_555 1_555
C4 C3 1_555 1_555
H3 C4 1_555 1_555
C5 C4 1_555 1_555
H4 C5 1_555 1_555
C6 C1 1_555 1_555
C7 O2 1_555 1_555
C8 H5 1_555 1_555
H6 C8 1_555 1_555
H7 C8 1_555 1_555
C9 O3 1_555 1_555
H8 N1 1_555 1_555
H9 N1 1_555 1_555
H10 O5 1_555 1_555
H11 O5 1_555 1_555
O6 H12 1_555 1_555
H13 O6 1_555 1_555
Cd1A N1 1_555 1_555
Cd1B O3 1_555 1_555
Cd1B_2 O4 1_555 1_555
O3B Cd1 1_555 1_555
O4B Cd1 1_555 1_555
N1A Cd1 1_555 1_555
O4 C9 1_555 1_555
C5 C6 1_555 1_555
C6 C7 1_555 1_555
C8 C9 1_555 1_555
Cd1B O3B 1_555 1_555
Cd1B_2 O4B 1_555 1_555

#END
