
#######################################################################
#
#                 Cambridge Crystallographic Data Centre
#                                CCDC 
#
#######################################################################
#
# If this CIF has been generated from an entry in the Cambridge 
# Structural Database, then it will include bibliographic, chemical, 
# crystal, experimental, refinement or atomic coordinate data resulting 
# from the CCDC's data processing and validation procedures.
#
#######################################################################

data_WIWHOA
_symmetry_cell_setting           monoclinic
_symmetry_space_group_name_H-M   'P 21/n'
_symmetry_Int_Tables_number      14
_space_group_name_Hall           '-P 2yn'
loop_
_symmetry_equiv_pos_site_id
_symmetry_equiv_pos_as_xyz
1 x,y,z
2 1/2-x,1/2+y,1/2-z
3 -x,-y,-z
4 1/2+x,1/2-y,1/2+z
_cell_length_a                   11.314(3)
_cell_length_b                   6.5962(16)
_cell_length_c                   11.391(3)
_cell_angle_alpha                90
_cell_angle_beta                 111.029(4)
_cell_angle_gamma                90
_cell_volume                     793.486
loop_
_atom_site_label
_atom_site_type_symbol
_atom_site_fract_x
_atom_site_fract_y
_atom_site_fract_z
Mn1 Mn -0.17792(4) 0.28633(7) 0.72612(4)
Mn2 Mn 0.5000 0.0000 0.5000
O1 O 0.00119(18) 0.3227(3) 0.71336(19)
O2 O 0.23396(18) 0.4976(3) 0.42370(17)
O3 O 0.38228(18) 0.2689(3) 0.43618(17)
O4 O 0.61155(17) 0.1855(3) 0.66001(17)
O5 O 0.66184(17) 0.4540(3) 0.77886(17)
O6 O 0.11929(19) 0.3837(3) 0.91321(18)
C1 C 0.2249(2) 0.3475(4) 0.7717(2)
C2 C 0.3405(3) 0.3414(4) 0.8701(2)
H1 H 0.3435 0.3381 0.9528
C3 C 0.4506(3) 0.3401(4) 0.8454(2)
H2 H 0.5278 0.3395 0.9122
C4 C 0.4498(2) 0.3398(4) 0.7223(2)
C5 C 0.3332(2) 0.3518(4) 0.6216(2)
C6 C 0.2224(2) 0.3578(4) 0.6488(2)
H3 H 0.1448 0.3690 0.5831
C7 C 0.1056(3) 0.3515(4) 0.8010(3)
C8 C 0.5792(2) 0.3287(4) 0.7165(2)
C9 C 0.3167(2) 0.3749(4) 0.4842(2)
Mn1B Mn 1.17792(4) -0.28633(7) 0.27388(4)
Mn1B_2 Mn 0.17792(4) 0.71367(7) 0.27388(4)
Mn1C Mn 0.32208(4) 0.21367(7) 0.22612(4)
Mn1_2 Mn 0.82208(4) 0.28633(7) 0.72612(4)
Mn1A Mn 0.67792(4) 0.78633(7) 0.77388(4)
Mn1_3 Mn 0.82208(4) -0.71367(7) 0.72612(4)
Mn1A_2 Mn 0.67792(4) -0.21367(7) 0.77388(4)
Mn1B_3 Mn 0.17792(4) -0.28633(7) 0.27388(4)
Mn1C_2 Mn 0.32208(4) -0.78633(7) 0.22612(4)
Mn2C Mn 0.0000 0.5000 1.0000
Mn2C_2 Mn 1.0000 -0.5000 0.0000
O1B O 0.99881(18) -0.3227(3) 0.28664(19)
O2B O 0.76604(18) -0.4976(3) 0.57630(17)
O2B_2 O -0.23396(18) 0.5024(3) 0.57630(17)
O2_2 O 1.23396(18) -0.5024(3) 0.42370(17)
O3B O 0.61772(18) -0.2689(3) 0.56382(17)
O3C O -0.11772(18) 0.2311(3) 0.93618(17)
O3A O 1.11772(18) -0.2311(3) 0.06382(17)
O4B O 0.38845(17) -0.1855(3) 0.33999(17)
O4_2 O -0.38845(17) 0.1855(3) 0.66001(17)
O4B_2 O 1.38845(17) -0.1855(3) 0.33999(17)
O5B O 0.33816(17) -0.4540(3) 0.22114(17)
O5_2 O -0.33816(17) 0.4540(3) 0.77886(17)
O5A O -0.16184(17) -0.0460(3) 0.72114(17)
O5C O 1.16184(17) 0.0460(3) 0.27886(17)
O5B_2 O 1.33816(17) -0.4540(3) 0.22114(17)
O6B O 0.88071(19) -0.3837(3) 0.08679(18)
O6C O 0.61929(19) 0.1163(3) 0.41321(18)
O6A O 0.38071(19) -0.1163(3) 0.58679(18)
C1B C 0.7751(2) -0.3475(4) 0.2283(2)
C2B C 0.6595(3) -0.3414(4) 0.1299(2)
H1B H 0.6565 -0.3381 0.0472
C3B C 0.5494(3) -0.3401(4) 0.1546(2)
H2B H 0.4722 -0.3395 0.0878
C4B C 0.5502(2) -0.3398(4) 0.2777(2)
C5B C 0.6668(2) -0.3518(4) 0.3784(2)
C6B C 0.7776(2) -0.3578(4) 0.3512(2)
H3B H 0.8552 -0.3690 0.4169
C7B C 0.8944(3) -0.3515(4) 0.1990(3)
C8B C 0.4208(2) -0.3287(4) 0.2835(2)
C9B C 0.6833(2) -0.3749(4) 0.5158(2)
loop_
_geom_bond_atom_site_label_1
_geom_bond_atom_site_label_2
_geom_bond_site_symmetry_1
_geom_bond_site_symmetry_2
Mn1 O1 1_555 1_555
Mn2 O3 1_555 1_555
O1 C7 1_555 1_555
O2 C9 1_555 1_555
O3 C9 1_555 1_555
O4 Mn2 1_555 1_555
O5 C8 1_555 1_555
O6 C7 1_555 1_555
C1 C2 1_555 1_555
C2 H1 1_555 1_555
C3 C2 1_555 1_555
H2 C3 1_555 1_555
C4 C3 1_555 1_555
C5 C4 1_555 1_555
C6 C1 1_555 1_555
H3 C6 1_555 1_555
C7 C1 1_555 1_555
C8 O4 1_555 1_555
C9 C5 1_555 1_555
Mn1B O1B 1_555 1_555
Mn1B_2 O2 1_555 1_555
Mn1C O3 1_555 1_555
Mn1_2 O4 1_555 1_555
Mn1A O5 1_555 1_555
Mn1_3 O2B 1_555 1_555
Mn1A_2 O3B 1_555 1_555
Mn1B_3 O4B 1_555 1_555
Mn1C_2 O5B 1_555 1_555
Mn2C O6 1_555 1_555
Mn2C_2 O3A 1_555 1_555
O1B C7B 1_555 1_555
O2B C9B 1_555 1_555
O2B_2 Mn1 1_555 1_555
O2_2 Mn1B 1_555 1_555
O3B Mn2 1_555 1_555
O3C Mn1 1_555 1_555
O3A Mn1B 1_555 1_555
O4B Mn2 1_555 1_555
O4_2 Mn1 1_555 1_555
O4B_2 Mn1B 1_555 1_555
O5B Mn1B_3 1_555 1_555
O5_2 Mn1 1_555 1_555
O5A Mn1 1_555 1_555
O5C Mn1B 1_555 1_555
O5B_2 Mn1B 1_555 1_555
O6B Mn2C_2 1_555 1_555
O6C Mn2 1_555 1_555
O6A Mn2 1_555 1_555
C1B C2B 1_555 1_555
C2B H1B 1_555 1_555
C3B C2B 1_555 1_555
H2B C3B 1_555 1_555
C4B C3B 1_555 1_555
C5B C4B 1_555 1_555
C6B C1B 1_555 1_555
H3B C6B 1_555 1_555
C7B O6B 1_555 1_555
C8B O4B 1_555 1_555
C9B O3B 1_555 1_555
O5 Mn1_2 1_555 1_555
C4 C8 1_555 1_555
C5 C6 1_555 1_555
Mn2C O3C 1_555 1_555
O5B C8B 1_555 1_555
C1B C7B 1_555 1_555
C4B C8B 1_555 1_555
C5B C6B 1_555 1_555
C5B C9B 1_555 1_555

#END
