
#######################################################################
#
#                 Cambridge Crystallographic Data Centre
#                                CCDC 
#
#######################################################################
#
# If this CIF has been generated from an entry in the Cambridge 
# Structural Database, then it will include bibliographic, chemical, 
# crystal, experimental, refinement or atomic coordinate data resulting 
# from the CCDC's data processing and validation procedures.
#
#######################################################################

data_WIWJIW
_symmetry_cell_setting           tetragonal
_symmetry_space_group_name_H-M   'I 41/a c d'
_symmetry_Int_Tables_number      142
_space_group_name_Hall           '-I 4bd 2c'
loop_
_symmetry_equiv_pos_site_id
_symmetry_equiv_pos_as_xyz
1 x,y,z
2 1/4-y,3/4+x,1/4+z
3 1/4+y,1/4-x,3/4+z
4 1/4+y,3/4+x,3/4-z
5 1/4-y,1/4-x,1/4-z
6 1/2+x,1/2+y,1/2+z
7 3/4-y,1/4+x,3/4+z
8 3/4+y,3/4-x,1/4+z
9 3/4+y,1/4+x,1/4-z
10 1/2-x,-y,1/2+z
11 1/2-x,y,-z
12 x,-y,1/2-z
13 -x,1/2-y,z
14 -x,1/2+y,1/2-z
15 1/2+x,1/2-y,-z
16 3/4-y,3/4-x,3/4-z
17 -x,-y,-z
18 3/4+y,1/4-x,3/4-z
19 3/4-y,3/4+x,1/4-z
20 3/4-y,1/4-x,1/4+z
21 3/4+y,3/4+x,3/4+z
22 1/2-x,1/2-y,1/2-z
23 1/4+y,3/4-x,1/4-z
24 1/4-y,1/4+x,3/4-z
25 1/4-y,3/4-x,3/4+z
26 1/2+x,y,1/2-z
27 1/2+x,-y,z
28 -x,y,1/2+z
29 x,1/2+y,-z
30 x,1/2-y,1/2+z
31 1/2-x,1/2+y,z
32 1/4+y,1/4+x,1/4+z
_cell_length_a                   17.9622(11)
_cell_length_b                   17.9622(11)
_cell_length_c                   21.890(2)
_cell_angle_alpha                90
_cell_angle_beta                 90
_cell_angle_gamma                90
_cell_volume                     7062.6
loop_
_atom_site_label
_atom_site_type_symbol
_atom_site_fract_x
_atom_site_fract_y
_atom_site_fract_z
Zn1 Zn 0.2500 0.45546(2) 0.0000
S1 S 0.29890(4) 0.65290(4) -0.02388(4)
N1 N 0.33991(12) 0.51484(12) 0.01832(10)
N2 N 0.62772(12) 0.51481(12) 0.18268(10)
N3 N 0.41517(12) 0.60764(12) 0.04630(11)
C1 C 0.43957(14) 0.54069(15) 0.06666(12)
C2 C 0.58870(16) 0.57819(16) 0.18144(14)
H1 H 0.6029 0.6168 0.2073
N4 N 0.39628(12) 0.48379(12) 0.05099(10)
C3 C 0.60496(16) 0.45979(17) 0.14604(13)
H2 H 0.6310 0.4150 0.1467
C4 C 0.52829(16) 0.58888(16) 0.14356(14)
H3 H 0.5031 0.6341 0.1436
C5 C 0.35330(15) 0.58864(15) 0.01692(12)
C6 C 0.54489(16) 0.46614(17) 0.10730(14)
H4 H 0.5311 0.4264 0.0826
C7 C 0.50545(14) 0.53173(15) 0.10547(12)
Zn1EA Zn 0.70546(2) 0.5000 0.2500
Zn1W Zn -0.20546(2) 0.5000 -0.2500
S1J S 0.20110(4) 0.65290(4) 0.02388(4)
N1J N 0.16009(12) 0.51484(12) -0.01832(10)
N2J N -0.12772(12) 0.51481(12) -0.18268(10)
N2R N 0.23519(12) 0.37772(12) 0.06732(10)
N2T N 0.26481(12) 0.37772(12) -0.06732(10)
N3J N 0.08483(12) 0.60764(12) -0.04630(11)
C1J C 0.06043(14) 0.54069(15) -0.06666(12)
C2J C -0.08870(16) 0.57819(16) -0.18144(14)
H1J H -0.1029 0.6168 -0.2073
N4J N 0.10372(12) 0.48379(12) -0.05099(10)
C3J C -0.10496(16) 0.45979(17) -0.14604(13)
H2J H -0.1310 0.4150 -0.1467
C4J C -0.02829(16) 0.58888(16) -0.14356(14)
H3J H -0.0031 0.6341 -0.1436
C5J C 0.14670(15) 0.58864(15) -0.01692(12)
C6J C -0.04489(16) 0.46614(17) -0.10730(14)
H4J H -0.0311 0.4264 -0.0826
C7J C -0.00545(14) 0.53173(15) -0.10547(12)
O1 O 0.5000 0.7500 1.0009(15)
O2? O 0.5000 0.7500 1.0507(16)
O3? O 0.509(4) 0.719(3) 0.987(2)
O4? O 0.527(2) 0.7127(18) 0.8728(16)
O5? O 0.5000 0.7500 0.936(3)
loop_
_geom_bond_atom_site_label_1
_geom_bond_atom_site_label_2
_geom_bond_site_symmetry_1
_geom_bond_site_symmetry_2
Zn1 N1 1_555 1_555
S1 C5 1_555 1_555
N1 N4 1_555 1_555
N2 C2 1_555 1_555
N3 C1 1_555 1_555
C1 N4 1_555 1_555
C2 H1 1_555 1_555
C3 N2 1_555 1_555
H2 C3 1_555 1_555
C4 C2 1_555 1_555
H3 C4 1_555 1_555
C5 N1 1_555 1_555
C6 C3 1_555 1_555
H4 C6 1_555 1_555
C7 C1 1_555 1_555
Zn1EA N2 1_555 1_555
Zn1W N2J 1_555 1_555
S1J S1 1_555 1_555
N1J Zn1 1_555 1_555
N2J C2J 1_555 1_555
N2R Zn1 1_555 1_555
N2T Zn1 1_555 1_555
N3J C1J 1_555 1_555
C1J N4J 1_555 1_555
C2J H1J 1_555 1_555
N4J N1J 1_555 1_555
C3J N2J 1_555 1_555
H2J C3J 1_555 1_555
C4J C2J 1_555 1_555
H3J C4J 1_555 1_555
C5J S1J 1_555 1_555
C6J C3J 1_555 1_555
H4J C6J 1_555 1_555
C7J C1J 1_555 1_555
N3 C5 1_555 1_555
C4 C7 1_555 1_555
C6 C7 1_555 1_555
N1J C5J 1_555 1_555
N3J C5J 1_555 1_555
C4J C7J 1_555 1_555
C6J C7J 1_555 1_555

#END
