
#######################################################################
#
#                 Cambridge Crystallographic Data Centre
#                                CCDC 
#
#######################################################################
#
# If this CIF has been generated from an entry in the Cambridge 
# Structural Database, then it will include bibliographic, chemical, 
# crystal, experimental, refinement or atomic coordinate data resulting 
# from the CCDC's data processing and validation procedures.
#
#######################################################################

data_WIWJET
_symmetry_cell_setting           monoclinic
_symmetry_space_group_name_H-M   'P 21/n'
_symmetry_Int_Tables_number      14
_space_group_name_Hall           '-P 2yn'
loop_
_symmetry_equiv_pos_site_id
_symmetry_equiv_pos_as_xyz
1 x,y,z
2 1/2-x,1/2+y,1/2-z
3 -x,-y,-z
4 1/2+x,1/2-y,1/2+z
_cell_length_a                   9.6530(2)
_cell_length_b                   14.9471(4)
_cell_length_c                   15.3100(3)
_cell_angle_alpha                90
_cell_angle_beta                 94.937(2)
_cell_angle_gamma                90
_cell_volume                     2200.8
loop_
_atom_site_label
_atom_site_type_symbol
_atom_site_fract_x
_atom_site_fract_y
_atom_site_fract_z
In1 In 0.23486(3) 0.629527(16) 0.222625(16)
O1 O 0.3258(3) 0.54988(19) 0.33178(18)
O2 O 0.1251(3) 0.50377(19) 0.27424(17)
O3 O -0.0391(4) 0.1492(2) 0.2853(3)
O4 O 0.1399(3) 0.2384(2) 0.3019(2)
Cl1 Cl 0.09247(18) 0.72150(10) 0.30890(10)
N1 N 0.0962(3) 0.6509(2) 0.0963(2)
N2 N 0.3055(3) 0.5307(2) 0.1216(2)
C1 C -0.0050(5) 0.7097(3) 0.0835(4)
H1 H -0.0268 0.7456 0.1300
C2 C -0.0826(5) 0.7200(4) 0.0003(5)
H2 H -0.1545 0.7613 -0.0076
C3 C -0.0481(6) 0.6676(5) -0.0668(5)
H3 H -0.0981 0.6732 -0.1212
C4 C 0.0589(5) 0.6062(4) -0.0569(3)
C5 C 0.0998(7) 0.5465(5) -0.1254(3)
H4 H 0.0541 0.5501 -0.1812
C6 C 0.2012(8) 0.4868(5) -0.1097(4)
H5 H 0.2246 0.4503 -0.1553
C7 C 0.2739(6) 0.4769(3) -0.0272(3)
C8 C 0.3790(6) 0.4135(3) -0.0050(4)
H6 H 0.4040 0.3733 -0.0473
C9 C 0.4432(6) 0.4103(3) 0.0755(4)
H7 H 0.5125 0.3683 0.0897
C10 C 0.4047(5) 0.4705(3) 0.1373(3)
H8 H 0.4511 0.4687 0.1931
C11 C 0.1288(4) 0.5993(3) 0.0270(3)
C12 C 0.2380(4) 0.5350(3) 0.0414(3)
C13 C 0.1050(4) 0.3782(2) 0.4204(2)
C14 C 0.1144(5) 0.3233(3) 0.4946(3)
H9 H 0.0385 0.2883 0.5062
C15 C 0.2338(5) 0.3199(3) 0.5512(3)
H10 H 0.2375 0.2826 0.5999
C16 C 0.3464(5) 0.3711(3) 0.5360(3)
H11 H 0.4269 0.3685 0.5739
C17 C 0.3399(4) 0.4265(3) 0.4644(2)
H12 H 0.4168 0.4612 0.4541
C18 C 0.2200(4) 0.4319(2) 0.4064(2)
C19 C 0.2225(4) 0.4968(2) 0.3336(2)
C20 C -0.0316(4) 0.3777(2) 0.3671(2)
C21 C -0.1241(4) 0.4484(3) 0.3738(3)
H13 H -0.0945 0.4994 0.4049
C22 C -0.2579(4) 0.4446(3) 0.3355(3)
H14 H -0.3165 0.4936 0.3389
C23 C -0.3053(4) 0.3685(3) 0.2924(3)
H15 H -0.3972 0.3651 0.2689
C24 C -0.2166(4) 0.2973(3) 0.2838(3)
H16 H -0.2488 0.2462 0.2540
C25 C -0.0786(4) 0.3015(2) 0.3197(2)
C26 C 0.0121(4) 0.2236(3) 0.3021(2)
In1A In 0.26514(3) 0.129527(16) 0.277375(16)
O4A O 0.3601(3) 0.7384(2) 0.1981(2)
loop_
_geom_bond_atom_site_label_1
_geom_bond_atom_site_label_2
_geom_bond_site_symmetry_1
_geom_bond_site_symmetry_2
In1 O1 1_555 1_555
O1 C19 1_555 1_555
O2 In1 1_555 1_555
O3 C26 1_555 1_555
O4 C26 1_555 1_555
Cl1 In1 1_555 1_555
N1 In1 1_555 1_555
N2 In1 1_555 1_555
C1 N1 1_555 1_555
H1 C1 1_555 1_555
C2 C1 1_555 1_555
H2 C2 1_555 1_555
C3 C2 1_555 1_555
H3 C3 1_555 1_555
C4 C3 1_555 1_555
C5 C4 1_555 1_555
H4 C5 1_555 1_555
C6 C5 1_555 1_555
H5 C6 1_555 1_555
C7 C6 1_555 1_555
C8 C7 1_555 1_555
H6 C8 1_555 1_555
C9 C8 1_555 1_555
H7 C9 1_555 1_555
C10 N2 1_555 1_555
H8 C10 1_555 1_555
C11 N1 1_555 1_555
C12 N2 1_555 1_555
C13 C14 1_555 1_555
C14 H9 1_555 1_555
C15 C14 1_555 1_555
H10 C15 1_555 1_555
C16 C15 1_555 1_555
H11 C16 1_555 1_555
C17 C16 1_555 1_555
H12 C17 1_555 1_555
C18 C13 1_555 1_555
C19 O2 1_555 1_555
C20 C13 1_555 1_555
C21 C20 1_555 1_555
H13 C21 1_555 1_555
C22 C21 1_555 1_555
H14 C22 1_555 1_555
C23 C22 1_555 1_555
H15 C23 1_555 1_555
C24 C23 1_555 1_555
H16 C24 1_555 1_555
C25 C20 1_555 1_555
C26 C25 1_555 1_555
In1A O4 1_555 1_555
O4A In1 1_555 1_555
C4 C11 1_555 1_555
C7 C12 1_555 1_555
C9 C10 1_555 1_555
C11 C12 1_555 1_555
C17 C18 1_555 1_555
C18 C19 1_555 1_555
C24 C25 1_555 1_555

#END
