
#######################################################################
#
#                 Cambridge Crystallographic Data Centre
#                                CCDC 
#
#######################################################################
#
# If this CIF has been generated from an entry in the Cambridge 
# Structural Database, then it will include bibliographic, chemical, 
# crystal, experimental, refinement or atomic coordinate data resulting 
# from the CCDC's data processing and validation procedures.
#
#######################################################################

data_WIWJES
_symmetry_cell_setting           monoclinic
_symmetry_space_group_name_H-M   'P 21/n'
_symmetry_Int_Tables_number      14
_space_group_name_Hall           '-P 2yn'
loop_
_symmetry_equiv_pos_site_id
_symmetry_equiv_pos_as_xyz
1 x,y,z
2 1/2-x,1/2+y,1/2-z
3 -x,-y,-z
4 1/2+x,1/2-y,1/2+z
_cell_length_a                   7.284(3)
_cell_length_b                   18.525(8)
_cell_length_c                   15.046(6)
_cell_angle_alpha                90
_cell_angle_beta                 97.575(6)
_cell_angle_gamma                90
_cell_volume                     2012.53
loop_
_atom_site_label
_atom_site_type_symbol
_atom_site_fract_x
_atom_site_fract_y
_atom_site_fract_z
Zn1 Zn 0.32951(5) 0.467703(18) 0.86799(2)
S1 S 0.61728(12) 0.45010(4) 0.82292(6)
S2 S 0.27699(13) 0.42642(4) 1.00502(5)
N1 N 0.2530(4) 0.07215(13) 0.64245(16)
N2 N 0.5350(4) 0.32053(14) 0.61891(18)
N3 N 0.5882(4) 0.38313(14) 0.66116(17)
H1 H 0.6315 0.4198 0.6358
N4 N 0.4958(4) 0.31589(13) 0.76466(17)
N5 N 0.6460(4) 0.08516(14) 1.27174(17)
N6 N 0.4961(4) 0.23566(14) 0.99010(17)
N7 N 0.4368(4) 0.29993(13) 0.95470(17)
H2 H 0.4415 0.3128 0.9001
N8 N 0.3824(4) 0.30435(13) 1.09312(16)
C1 C 0.3999(4) 0.20957(16) 0.6687(2)
C2 C 0.3995(5) 0.17450(17) 0.5880(2)
H3 H 0.4482 0.1969 0.5409
C3 C 0.3268(5) 0.10642(17) 0.5777(2)
H4 H 0.3289 0.0830 0.5231
C4 C 0.2489(5) 0.10751(17) 0.7194(2)
H5 H 0.1942 0.0850 0.7645
C5 C 0.3206(5) 0.17483(16) 0.7353(2)
H6 H 0.3161 0.1971 0.7903
C6 C 0.4795(4) 0.28192(16) 0.6839(2)
C7 C 0.5642(4) 0.38013(16) 0.7475(2)
C8 C 0.5114(4) 0.18473(17) 1.1408(2)
C9 C 0.5912(5) 0.12097(18) 1.1184(2)
H7 H 0.6011 0.1104 1.0588
C10 C 0.6557(5) 0.07341(18) 1.1847(2)
H8 H 0.7091 0.0306 1.1684
C11 C 0.5596(4) 0.14509(17) 1.2922(2)
H9 H 0.5449 0.1530 1.3519
C12 C 0.4915(4) 0.19550(17) 1.2301(2)
H10 H 0.4325 0.2366 1.2477
C13 C 0.4606(4) 0.24110(16) 1.07357(19)
C14 C 0.3695(4) 0.34101(16) 1.01677(19)
Zn1A Zn 0.17049(5) -0.032297(18) 0.63201(2)
Zn1C Zn 0.82951(5) 0.032297(18) 1.36799(2)
N1A N 0.2470(4) 0.57215(13) 0.85755(16)
N5C N 0.1460(4) 0.41484(14) 0.77174(17)
O1 O 0.2937(5) 0.38105(17) 0.2451(2)
H11 H 0.3170 0.3572 0.1996
H12 H 0.2997 0.4268 0.2420
O2 O 0.3168(5) 0.50682(18) 0.4486(2)
H13 H 0.3082 0.5041 0.5043
H14 H 0.4161 0.4871 0.4367
O3 O 0.6615(6) 0.1243(2) 0.8982(2)
H15 H 0.6826 0.1421 0.8485
H16 H 0.7110 0.0839 0.9137
O4 O 0.4430(6) 0.6927(3) 0.5767(3)
H17 H 0.5527 0.6831 0.6005
H18 H 0.4188 0.7058 0.5223
O5 O 0.7039(11) 0.9228(3) 0.0748(4)
H19 H 0.5910 0.9126 0.0775
H20 H 0.7799 0.8879 0.0775
loop_
_geom_bond_atom_site_label_1
_geom_bond_atom_site_label_2
_geom_bond_site_symmetry_1
_geom_bond_site_symmetry_2
Zn1 S1 1_555 1_555
S1 C7 1_555 1_555
S2 Zn1 1_555 1_555
N1 C3 1_555 1_555
N2 N3 1_555 1_555
N3 H1 1_555 1_555
N4 C6 1_555 1_555
N5 C10 1_555 1_555
N6 N7 1_555 1_555
N7 H2 1_555 1_555
N8 C13 1_555 1_555
C1 C2 1_555 1_555
C2 H3 1_555 1_555
C3 C2 1_555 1_555
H4 C3 1_555 1_555
C4 N1 1_555 1_555
H5 C4 1_555 1_555
C5 C1 1_555 1_555
H6 C5 1_555 1_555
C6 N2 1_555 1_555
C7 N3 1_555 1_555
C8 C9 1_555 1_555
C9 H7 1_555 1_555
C10 C9 1_555 1_555
H8 C10 1_555 1_555
C11 N5 1_555 1_555
H9 C11 1_555 1_555
C12 C8 1_555 1_555
H10 C12 1_555 1_555
C13 N6 1_555 1_555
C14 S2 1_555 1_555
O1 H11 1_555 1_555
H12 O1 1_555 1_555
O2 H13 1_555 1_555
H14 O2 1_555 1_555
O3 H15 1_555 1_555
H16 O3 1_555 1_555
O4 H17 1_555 1_555
H18 O4 1_555 1_555
O5 H19 1_555 1_555
H20 O5 1_555 1_555
Zn1A N1 1_555 1_555
Zn1C N5 1_555 1_555
N1A Zn1 1_555 1_555
N5C Zn1 1_555 1_555
N4 C7 1_555 1_555
N7 C14 1_555 1_555
N8 C14 1_555 1_555
C1 C6 1_555 1_555
C4 C5 1_555 1_555
C8 C13 1_555 1_555
C11 C12 1_555 1_555

#END
