
#######################################################################
#
#                 Cambridge Crystallographic Data Centre
#                                CCDC 
#
#######################################################################
#
# If this CIF has been generated from an entry in the Cambridge 
# Structural Database, then it will include bibliographic, chemical, 
# crystal, experimental, refinement or atomic coordinate data resulting 
# from the CCDC's data processing and validation procedures.
#
#######################################################################

data_WIWJUJ
_symmetry_cell_setting           monoclinic
_symmetry_space_group_name_H-M   'P 21/c'
_symmetry_Int_Tables_number      14
_space_group_name_Hall           '-P 2ybc'
loop_
_symmetry_equiv_pos_site_id
_symmetry_equiv_pos_as_xyz
1 x,y,z
2 -x,1/2+y,1/2-z
3 -x,-y,-z
4 x,1/2-y,1/2+z
_cell_length_a                   17.272(4)
_cell_length_b                   9.1056(18)
_cell_length_c                   16.118(3)
_cell_angle_alpha                90
_cell_angle_beta                 97.60(3)
_cell_angle_gamma                90
_cell_volume                     2512.64
loop_
_atom_site_label
_atom_site_type_symbol
_atom_site_fract_x
_atom_site_fract_y
_atom_site_fract_z
Cu1 Cu 0.75062(10) 0.4973(2) 0.71987(13)
Cu2 Cu 0.5000 1.0000 0.0000
Cu3 Cu 1.0000 0.0000 1.5000
Br1 Br 0.65710(7) 0.32601(13) 0.60179(8)
N1 N 0.7280(6) 0.6860(12) 0.6700(7)
N2 N 0.6838(6) 0.8442(11) 0.5742(7)
N3 N 0.4785(8) 0.9221(14) 0.1010(7)
N4 N 0.4946(6) 0.8361(12) 0.2300(7)
N5 N 0.7878(6) 0.3524(10) 0.7999(7)
N6 N 0.8245(6) 0.2420(10) 0.9206(6)
N7 N 1.0202(9) 0.0367(16) 1.3925(8)
N8 N 1.0163(6) 0.0337(12) 1.2545(6)
C1 C 0.7092(7) 0.7068(14) 0.5883(9)
H1 H 0.7132 0.6357 0.5468
C2 C 0.7135(8) 0.8163(13) 0.7076(9)
H2 H 0.7207 0.8327 0.7657
C3 C 0.6880(8) 0.9161(14) 0.6502(9)
H3 H 0.6755 1.0147 0.6595
C4 C 0.5276(8) 0.8969(17) 0.1670(10)
H4 H 0.5812 0.9188 0.1708
C5 C 0.4095(9) 0.8700(17) 0.1219(10)
H5 H 0.3623 0.8699 0.0854
C6 C 0.4170(8) 0.8186(16) 0.2011(9)
H6 H 0.3777 0.7797 0.2299
C7 C 0.6581(12) 0.909(2) 0.4925(13)
H7 H 0.6368 1.0074 0.5002
H8 H 0.7031 0.9202 0.4617
C8 C 0.6031(13) 0.826(2) 0.4472(14)
H9 H 0.5708 0.7783 0.4849
H10 H 0.6287 0.7492 0.4181
C9 C 0.5450(12) 0.929(2) 0.3757(13)
H11 H 0.4968 0.9619 0.3957
H12 H 0.5723 1.0113 0.3537
C10 C 0.5325(13) 0.797(2) 0.3143(13)
H13 H 0.5833 0.7522 0.3095
H14 H 0.5005 0.7229 0.3380
C11 C 0.8073(7) 0.3717(13) 0.8786(9)
H15 H 0.8096 0.4642 0.9046
C12 C 0.7913(7) 0.2045(14) 0.7857(8)
H16 H 0.7808 0.1588 0.7331
C13 C 0.8131(8) 0.1316(12) 0.8623(8)
H17 H 0.8185 0.0300 0.8714
C14 C 0.9815(8) -0.0105(17) 1.3197(9)
H18 H 0.9358 -0.0675 1.3150
C15 C 1.0859(10) 0.1110(16) 1.3678(9)
H19 H 1.1264 0.1549 1.4041
C16 C 1.0803(9) 0.1078(15) 1.2861(8)
H20 H 1.1160 0.1512 1.2543
C17 C 0.8428(7) 0.2260(17) 1.0109(8)
H21 H 0.7963 0.1899 1.0332
H22 H 0.8553 0.3231 1.0354
C18 C 0.9084(8) 0.1257(14) 1.0377(7)
H23 H 0.9543 0.1569 1.0123
H24 H 0.8945 0.0263 1.0178
C19 C 0.9291(8) 0.1235(15) 1.1331(8)
H25 H 0.9470 0.2216 1.1518
H26 H 0.8815 0.1024 1.1580
C20 C 0.9906(8) 0.0139(14) 1.1661(8)
H27 H 0.9696 -0.0856 1.1566
H28 H 1.0355 0.0239 1.1352
Cu1B Cu 0.24938(10) 1.5027(2) -0.71987(13)
Br1B Br 0.34290(7) 1.67399(13) -0.60179(8)
N1B N 0.2720(6) 1.3140(12) -0.6700(7)
N2B N 0.3162(6) 1.1558(11) -0.5742(7)
N3B N 0.5215(8) 1.0779(14) -0.1010(7)
N4B N 0.5054(6) 1.1639(12) -0.2300(7)
N5B N 0.2122(6) 1.6476(10) -0.7999(7)
N6B N 0.1755(6) 1.7580(10) -0.9206(6)
N7B N -0.0202(9) 1.9633(16) -1.3925(8)
N8B N -0.0163(6) 1.9663(12) -1.2545(6)
C1B C 0.2908(7) 1.2932(14) -0.5883(9)
H1B H 0.2868 1.3643 -0.5468
C2B C 0.2865(8) 1.1837(13) -0.7076(9)
H2B H 0.2793 1.1673 -0.7657
C3B C 0.3120(8) 1.0839(14) -0.6502(9)
H3B H 0.3245 0.9853 -0.6595
C4B C 0.4724(8) 1.1031(17) -0.1670(10)
H4B H 0.4188 1.0812 -0.1708
C5B C 0.5905(9) 1.1300(17) -0.1219(10)
H5B H 0.6377 1.1301 -0.0854
C6B C 0.5830(8) 1.1814(16) -0.2011(9)
H6B H 0.6223 1.2203 -0.2299
C7B C 0.3419(12) 1.091(2) -0.4925(13)
H7B H 0.3632 0.9926 -0.5002
H8B H 0.2969 1.0798 -0.4617
C8B C 0.3969(13) 1.174(2) -0.4472(14)
H9B H 0.4292 1.2217 -0.4849
H10B H 0.3713 1.2508 -0.4181
C9B C 0.4550(12) 1.071(2) -0.3757(13)
H11B H 0.5032 1.0381 -0.3957
H12B H 0.4277 0.9887 -0.3537
C10B C 0.4675(13) 1.203(2) -0.3143(13)
H13B H 0.4167 1.2478 -0.3095
H14B H 0.4995 1.2771 -0.3380
C11B C 0.1927(7) 1.6283(13) -0.8786(9)
H15B H 0.1904 1.5358 -0.9046
C12B C 0.2087(7) 1.7955(14) -0.7857(8)
H16B H 0.2192 1.8412 -0.7331
C13B C 0.1869(8) 1.8684(12) -0.8623(8)
H17B H 0.1815 1.9700 -0.8714
C14B C 0.0185(8) 2.0105(17) -1.3197(9)
H18B H 0.0642 2.0675 -1.3150
C15B C -0.0859(10) 1.8890(16) -1.3678(9)
H19B H -0.1264 1.8451 -1.4041
C16B C -0.0803(9) 1.8922(15) -1.2861(8)
H20B H -0.1160 1.8488 -1.2543
C17B C 0.1572(7) 1.7740(17) -1.0109(8)
H21B H 0.2037 1.8101 -1.0332
H22B H 0.1447 1.6769 -1.0354
C18B C 0.0916(8) 1.8743(14) -1.0377(7)
H23B H 0.0457 1.8431 -1.0123
H24B H 0.1055 1.9737 -1.0178
C19B C 0.0709(8) 1.8765(15) -1.1331(8)
H25B H 0.0530 1.7784 -1.1518
H26B H 0.1185 1.8976 -1.1580
C20B C 0.0094(8) 1.9861(14) -1.1661(8)
H27B H 0.0304 2.0856 -1.1566
H28B H -0.0355 1.9761 -1.1352
Cu3_2 Cu 0.0000 2.0000 -1.5000
N7B_2 N 0.9798(9) -0.0367(16) 1.6075(8)
Br2 Br 0.84521(9) 0.74674(13) 0.91954(8)
loop_
_geom_bond_atom_site_label_1
_geom_bond_atom_site_label_2
_geom_bond_site_symmetry_1
_geom_bond_site_symmetry_2
Cu1 Br1 1_555 1_555
Cu2 N3 1_555 1_555
Cu3 N7 1_555 1_555
N1 Cu1 1_555 1_555
N2 C1 1_555 1_555
N3 C4 1_555 1_555
N4 C4 1_555 1_555
N5 Cu1 1_555 1_555
N6 C11 1_555 1_555
N7 C14 1_555 1_555
N8 C14 1_555 1_555
C1 N1 1_555 1_555
H1 C1 1_555 1_555
C2 N1 1_555 1_555
H2 C2 1_555 1_555
C3 N2 1_555 1_555
H3 C3 1_555 1_555
C4 H4 1_555 1_555
C5 N3 1_555 1_555
H5 C5 1_555 1_555
C6 N4 1_555 1_555
H6 C6 1_555 1_555
C7 N2 1_555 1_555
H7 C7 1_555 1_555
H8 C7 1_555 1_555
C8 C7 1_555 1_555
H9 C8 1_555 1_555
H10 C8 1_555 1_555
C9 C8 1_555 1_555
H11 C9 1_555 1_555
H12 C9 1_555 1_555
C10 N4 1_555 1_555
H13 C10 1_555 1_555
H14 C10 1_555 1_555
C11 N5 1_555 1_555
H15 C11 1_555 1_555
C12 N5 1_555 1_555
H16 C12 1_555 1_555
C13 N6 1_555 1_555
H17 C13 1_555 1_555
C14 H18 1_555 1_555
C15 N7 1_555 1_555
H19 C15 1_555 1_555
C16 N8 1_555 1_555
H20 C16 1_555 1_555
C17 N6 1_555 1_555
H21 C17 1_555 1_555
H22 C17 1_555 1_555
C18 C17 1_555 1_555
H23 C18 1_555 1_555
H24 C18 1_555 1_555
C19 C18 1_555 1_555
H25 C19 1_555 1_555
H26 C19 1_555 1_555
C20 N8 1_555 1_555
H27 C20 1_555 1_555
H28 C20 1_555 1_555
Cu1B Br1B 1_555 1_555
N1B Cu1B 1_555 1_555
N2B C1B 1_555 1_555
N3B Cu2 1_555 1_555
N4B C4B 1_555 1_555
N5B Cu1B 1_555 1_555
N6B C11B 1_555 1_555
N7B C14B 1_555 1_555
N8B C14B 1_555 1_555
C1B N1B 1_555 1_555
H1B C1B 1_555 1_555
C2B N1B 1_555 1_555
H2B C2B 1_555 1_555
C3B N2B 1_555 1_555
H3B C3B 1_555 1_555
C4B N3B 1_555 1_555
H4B C4B 1_555 1_555
C5B N3B 1_555 1_555
H5B C5B 1_555 1_555
C6B N4B 1_555 1_555
H6B C6B 1_555 1_555
C7B N2B 1_555 1_555
H7B C7B 1_555 1_555
H8B C7B 1_555 1_555
C8B C7B 1_555 1_555
H9B C8B 1_555 1_555
H10B C8B 1_555 1_555
C9B C8B 1_555 1_555
H11B C9B 1_555 1_555
H12B C9B 1_555 1_555
C10B N4B 1_555 1_555
H13B C10B 1_555 1_555
H14B C10B 1_555 1_555
C11B N5B 1_555 1_555
H15B C11B 1_555 1_555
C12B N5B 1_555 1_555
H16B C12B 1_555 1_555
C13B N6B 1_555 1_555
H17B C13B 1_555 1_555
C14B H18B 1_555 1_555
C15B N7B 1_555 1_555
H19B C15B 1_555 1_555
C16B N8B 1_555 1_555
H20B C16B 1_555 1_555
C17B N6B 1_555 1_555
H21B C17B 1_555 1_555
H22B C17B 1_555 1_555
C18B C17B 1_555 1_555
H23B C18B 1_555 1_555
H24B C18B 1_555 1_555
C19B C18B 1_555 1_555
H25B C19B 1_555 1_555
H26B C19B 1_555 1_555
C20B N8B 1_555 1_555
H27B C20B 1_555 1_555
H28B C20B 1_555 1_555
Cu3_2 N7B 1_555 1_555
N7B_2 Cu3 1_555 1_555
C2 C3 1_555 1_555
C5 C6 1_555 1_555
C9 C10 1_555 1_555
C12 C13 1_555 1_555
C15 C16 1_555 1_555
C19 C20 1_555 1_555
C2B C3B 1_555 1_555
C5B C6B 1_555 1_555
C9B C10B 1_555 1_555
C12B C13B 1_555 1_555
C15B C16B 1_555 1_555
C19B C20B 1_555 1_555

#END
