
#######################################################################
#
#                 Cambridge Crystallographic Data Centre
#                                CCDC 
#
#######################################################################
#
# If this CIF has been generated from an entry in the Cambridge 
# Structural Database, then it will include bibliographic, chemical, 
# crystal, experimental, refinement or atomic coordinate data resulting 
# from the CCDC's data processing and validation procedures.
#
#######################################################################

data_WIWKUK
_symmetry_cell_setting           monoclinic
_symmetry_space_group_name_H-M   'C 2'
_symmetry_Int_Tables_number      5
_space_group_name_Hall           'C 2y'
loop_
_symmetry_equiv_pos_site_id
_symmetry_equiv_pos_as_xyz
1 x,y,z
2 -x,y,-z
3 1/2+x,1/2+y,z
4 1/2-x,1/2+y,-z
_cell_length_a                   51.6398(14)
_cell_length_b                   13.6915(4)
_cell_length_c                   17.5930(5)
_cell_angle_alpha                90
_cell_angle_beta                 102.8280(10)
_cell_angle_gamma                90
_cell_volume                     12128.3
loop_
_atom_site_label
_atom_site_type_symbol
_atom_site_fract_x
_atom_site_fract_y
_atom_site_fract_z
Ag1 Ag 0.0000 0.27093(14) 0.5000
N1 N 0.03765(14) 0.2957(6) 0.4678(5)
C1 C 0.03704(11) 0.2936(6) 0.3884(5)
H1 H 0.0222 0.2692 0.3536
C2 C 0.05862(13) 0.3278(6) 0.3610(3)
H2 H 0.0582 0.3263 0.3079
C3 C 0.08082(11) 0.3641(6) 0.4130(4)
C4 C 0.08143(13) 0.3663(6) 0.4924(3)
H3 H 0.0963 0.3906 0.5271
C5 C 0.05985(16) 0.3321(6) 0.5198(4)
H4 H 0.0603 0.3335 0.5729
C6 C 0.1323(2) 0.3807(8) 0.2005(6)
C7 C 0.10363(10) 0.4066(4) 0.3826(3)
C8 C 0.11900(11) 0.4818(5) 0.4223(3)
H5 H 0.1159 0.5042 0.4694
C9 C 0.13895(11) 0.5237(4) 0.3915(3)
C10 C 0.14354(10) 0.4903(4) 0.3210(3)
C11 C 0.12816(12) 0.4151(4) 0.2814(3)
C12 C 0.10821(11) 0.3732(4) 0.3122(3)
H6 H 0.0979 0.3229 0.2856
C13 C 0.1266(3) 0.4711(11) 0.1458(5)
H7 H 0.1291 0.4538 0.0951
H8 H 0.1386 0.5229 0.1669
H9 H 0.1086 0.4924 0.1418
C14 C 0.1133(2) 0.2993(10) 0.1674(6)
H10 H 0.1165 0.2793 0.1180
H11 H 0.0954 0.3222 0.1605
H12 H 0.1160 0.2449 0.2027
C15 C 0.1605(2) 0.3437(9) 0.2061(6)
H13 H 0.1625 0.3233 0.1555
H14 H 0.1639 0.2894 0.2414
H15 H 0.1729 0.3952 0.2249
C16 C 0.15234(18) 0.6095(7) 0.4314(5)
H16 H 0.1472 0.6338 0.4752
C17 C 0.18242(10) 0.7417(4) 0.4414(3)
C18 C 0.20933(10) 0.7611(4) 0.4499(3)
C19 C 0.22007(8) 0.8472(4) 0.4851(3)
C20 C 0.20390(11) 0.9141(4) 0.5119(3)
C21 C 0.17698(10) 0.8948(4) 0.5034(4)
C22 C 0.16624(8) 0.8086(5) 0.4682(4)
H17 H 0.1482 0.7957 0.4625
C23 C 0.1587(2) 0.9643(9) 0.5326(7)
H18 H 0.1686 1.0205 0.5552
H19 H 0.1512 0.9322 0.5712
H20 H 0.1447 0.9844 0.4898
C24 C 0.2157(2) 1.0064(8) 0.5553(6)
H21 H 0.2018 1.0444 0.5689
H22 H 0.2244 1.0444 0.5223
H23 H 0.2284 0.9884 0.6018
C25 C 0.22240(18) 0.6882(7) 0.3414(5)
H24 H 0.2036 0.6917 0.3171
H25 H 0.2291 0.6260 0.3276
C26 C 0.2640(2) 0.7514(8) 0.3263(6)
H26 H 0.2722 0.8056 0.3060
H27 H 0.2675 0.6924 0.3008
H28 H 0.2712 0.7458 0.3813
C27 C 0.24939(7) 0.8660(4) 0.4922(3)
C28 C 0.26759(10) 0.8085(4) 0.5431(3)
C29 C 0.29466(9) 0.8214(4) 0.5488(3)
C30 C 0.30351(7) 0.8919(5) 0.5037(3)
H29 H 0.3216 0.9005 0.5075
C31 C 0.28531(10) 0.9494(4) 0.4528(3)
C32 C 0.25824(9) 0.9365(4) 0.4471(3)
C33 C 0.23846(19) 0.9980(7) 0.3882(5)
H30 H 0.2207 0.9808 0.3909
H31 H 0.2409 0.9856 0.3366
H32 H 0.2414 1.0660 0.4003
C34 C 0.2954(2) 1.0278(10) 0.4070(6)
H33 H 0.3144 1.0260 0.4181
H34 H 0.2896 1.0904 0.4213
H35 H 0.2885 1.0169 0.3523
C35 C 0.2639(2) 0.7596(8) 0.6689(5)
H36 H 0.2643 0.6994 0.6983
H37 H 0.2812 0.7899 0.6841
C36 C 0.21923(19) 0.7789(9) 0.6790(5)
H38 H 0.2072 0.8252 0.6933
H39 H 0.2205 0.7226 0.7122
H40 H 0.2127 0.7594 0.6257
C37 C 0.3348(2) 0.7342(8) 0.5800(5)
H41 H 0.3405 0.7714 0.5427
C38 C 0.35288(10) 0.6584(4) 0.6222(3)
C39 C 0.34638(9) 0.5984(5) 0.6789(3)
C40 C 0.36430(11) 0.5281(4) 0.7155(3)
C41 C 0.38871(11) 0.5178(4) 0.6954(4)
H42 H 0.4007 0.4708 0.7199
C42 C 0.39520(9) 0.5779(5) 0.6387(4)
C43 C 0.37729(11) 0.6482(4) 0.6021(3)
H43 H 0.3816 0.6884 0.5642
C44 C 0.3567(2) 0.4582(9) 0.7765(6)
C45 C 0.3320(2) 0.4006(9) 0.7417(6)
H44 H 0.3352 0.3607 0.6999
H45 H 0.3176 0.4447 0.7221
H46 H 0.3274 0.3596 0.7811
C46 C 0.3511(3) 0.5182(10) 0.8455(6)
H47 H 0.3463 0.4749 0.8829
H48 H 0.3369 0.5631 0.8268
H49 H 0.3668 0.5538 0.8697
C47 C 0.42062(10) 0.5644(6) 0.6089(3)
C48 C 0.44475(12) 0.5433(7) 0.6593(3)
H50 H 0.4456 0.5358 0.7124
C49 C 0.46758(9) 0.5335(7) 0.6305(4)
H51 H 0.4837 0.5194 0.6642
N2 N 0.46629(9) 0.5448(6) 0.5512(4)
C50 C 0.44216(12) 0.5659(6) 0.5008(3)
H52 H 0.4413 0.5734 0.4477
C51 C 0.41932(9) 0.5757(6) 0.5296(3)
H53 H 0.4032 0.5898 0.4959
C52 C 0.3794(2) 0.3879(11) 0.8115(8)
H54 H 0.3835 0.3481 0.7709
H55 H 0.3740 0.3468 0.8495
H56 H 0.3948 0.4247 0.8360
N3 N 0.17172(16) 0.6530(6) 0.4061(4)
N4 N 0.31190(15) 0.7511(6) 0.5919(4)
O1 O 0.16323(14) 0.5318(5) 0.2927(4)
O2 O 0.22584(11) 0.6939(4) 0.4238(3)
O3 O 0.23626(12) 0.7667(5) 0.3125(3)
O4 O 0.25845(11) 0.7374(5) 0.5876(3)
O5 O 0.24467(12) 0.8223(5) 0.6875(3)
O6 O 0.32196(12) 0.6100(6) 0.6947(3)
Ag2 Ag 0.5000 0.54049(10) 0.5000
N1A N -0.03765(14) 0.2957(6) 0.5322(5)
C1A C -0.03704(11) 0.2936(6) 0.6116(5)
H1A H -0.0222 0.2692 0.6464
C2A C -0.05862(13) 0.3278(6) 0.6390(3)
H2A H -0.0582 0.3263 0.6921
C3A C -0.08082(11) 0.3641(6) 0.5870(4)
C4A C -0.08143(13) 0.3663(6) 0.5076(3)
H3A H -0.0963 0.3906 0.4729
C5A C -0.05985(16) 0.3321(6) 0.4802(4)
H4A H -0.0603 0.3335 0.4271
C6A C -0.1323(2) 0.3807(8) 0.7995(6)
C7A C -0.10363(10) 0.4066(4) 0.6174(3)
C8A C -0.11900(11) 0.4818(5) 0.5777(3)
H5A H -0.1159 0.5042 0.5306
C9A C -0.13895(11) 0.5237(4) 0.6085(3)
C10A C -0.14354(10) 0.4903(4) 0.6790(3)
C11A C -0.12816(12) 0.4151(4) 0.7186(3)
C12A C -0.10821(11) 0.3732(4) 0.6878(3)
H6A H -0.0979 0.3229 0.7144
C13A C -0.1266(3) 0.4711(11) 0.8542(5)
H7A H -0.1291 0.4538 0.9049
H8A H -0.1386 0.5229 0.8331
H9A H -0.1086 0.4924 0.8582
C14A C -0.1133(2) 0.2993(10) 0.8326(6)
H10A H -0.1165 0.2793 0.8820
H11A H -0.0954 0.3222 0.8395
H12A H -0.1160 0.2449 0.7973
C15A C -0.1605(2) 0.3437(9) 0.7939(6)
H13A H -0.1625 0.3233 0.8445
H14A H -0.1639 0.2894 0.7586
H15A H -0.1729 0.3952 0.7751
C16A C -0.15234(18) 0.6095(7) 0.5686(5)
H16A H -0.1472 0.6338 0.5248
C17A C -0.18242(10) 0.7417(4) 0.5586(3)
C18A C -0.20933(10) 0.7611(4) 0.5501(3)
C19A C -0.22007(8) 0.8472(4) 0.5149(3)
C20A C -0.20390(11) 0.9141(4) 0.4881(3)
C21A C -0.17698(10) 0.8948(4) 0.4966(4)
C22A C -0.16624(8) 0.8086(5) 0.5318(4)
H17A H -0.1482 0.7957 0.5375
C23A C -0.1587(2) 0.9643(9) 0.4674(7)
H18A H -0.1686 1.0205 0.4448
H19A H -0.1512 0.9322 0.4288
H20A H -0.1447 0.9844 0.5102
C24A C -0.2157(2) 1.0064(8) 0.4447(6)
H21A H -0.2018 1.0444 0.4311
H22A H -0.2244 1.0444 0.4777
H23A H -0.2284 0.9884 0.3982
C25A C -0.22240(18) 0.6882(7) 0.6586(5)
H24A H -0.2036 0.6917 0.6829
H25A H -0.2291 0.6260 0.6724
C26A C -0.2640(2) 0.7514(8) 0.6737(6)
H26A H -0.2722 0.8056 0.6940
H27A H -0.2675 0.6924 0.6992
H28A H -0.2712 0.7458 0.6187
C27A C -0.24939(7) 0.8660(4) 0.5078(3)
C28A C -0.26759(10) 0.8085(4) 0.4569(3)
C29A C -0.29466(9) 0.8214(4) 0.4512(3)
C30A C -0.30351(7) 0.8919(5) 0.4963(3)
H29A H -0.3216 0.9005 0.4925
C31A C -0.28531(10) 0.9494(4) 0.5472(3)
C32A C -0.25824(9) 0.9365(4) 0.5529(3)
C33A C -0.23846(19) 0.9980(7) 0.6118(5)
H30A H -0.2207 0.9808 0.6091
H31A H -0.2409 0.9856 0.6634
H32A H -0.2414 1.0660 0.5997
C34A C -0.2954(2) 1.0278(10) 0.5930(6)
H33A H -0.3144 1.0260 0.5819
H34A H -0.2896 1.0904 0.5787
H35A H -0.2885 1.0169 0.6477
C35A C -0.2639(2) 0.7596(8) 0.3311(5)
H36A H -0.2643 0.6994 0.3017
H37A H -0.2812 0.7899 0.3159
C36A C -0.21923(19) 0.7789(9) 0.3210(5)
H38A H -0.2072 0.8252 0.3067
H39A H -0.2205 0.7226 0.2878
H40A H -0.2127 0.7594 0.3743
C37A C -0.3348(2) 0.7342(8) 0.4200(5)
H41A H -0.3405 0.7714 0.4573
C38A C -0.35288(10) 0.6584(4) 0.3778(3)
C39A C -0.34638(9) 0.5984(5) 0.3211(3)
C40A C -0.36430(11) 0.5281(4) 0.2845(3)
C41A C -0.38871(11) 0.5178(4) 0.3046(4)
H42A H -0.4007 0.4708 0.2801
C42A C -0.39520(9) 0.5779(5) 0.3613(4)
C43A C -0.37729(11) 0.6482(4) 0.3979(3)
H43A H -0.3816 0.6884 0.4358
C44A C -0.3567(2) 0.4582(9) 0.2235(6)
C45A C -0.3320(2) 0.4006(9) 0.2583(6)
H44A H -0.3352 0.3607 0.3001
H45A H -0.3176 0.4447 0.2779
H46A H -0.3274 0.3596 0.2189
C46A C -0.3511(3) 0.5182(10) 0.1545(6)
H47A H -0.3463 0.4749 0.1171
H48A H -0.3369 0.5631 0.1732
H49A H -0.3668 0.5538 0.1303
C47A C -0.42062(10) 0.5644(6) 0.3911(3)
C48A C -0.44475(12) 0.5433(7) 0.3407(3)
H50A H -0.4456 0.5358 0.2876
C49A C -0.46758(9) 0.5335(7) 0.3695(4)
H51A H -0.4837 0.5194 0.3358
N2A N -0.46629(9) 0.5448(6) 0.4488(4)
C50A C -0.44216(12) 0.5659(6) 0.4992(3)
H52A H -0.4413 0.5734 0.5523
C51A C -0.41932(9) 0.5757(6) 0.4704(3)
H53A H -0.4032 0.5898 0.5041
C52A C -0.3794(2) 0.3879(11) 0.1885(8)
H54A H -0.3835 0.3481 0.2291
H55A H -0.3740 0.3468 0.1505
H56A H -0.3948 0.4247 0.1640
N3A N -0.17172(16) 0.6530(6) 0.5939(4)
N4A N -0.31190(15) 0.7511(6) 0.4081(4)
O1A O -0.16323(14) 0.5318(5) 0.7073(4)
O2A O -0.22584(11) 0.6939(4) 0.5762(3)
O3A O -0.23626(12) 0.7667(5) 0.6875(3)
O4A O -0.25845(11) 0.7374(5) 0.4124(3)
O5A O -0.24467(12) 0.8223(5) 0.3125(3)
O6A O -0.32196(12) 0.6100(6) 0.3053(3)
N2A_2 N 0.53371(9) 0.5448(6) 0.4488(4)
Ag2_2 Ag -0.5000 0.54049(10) 0.5000
Cl1 Cl 0.03512(11) 0.1837(4) 0.6813(3)
O7 O 0.0213(2) 0.1872(10) 0.5998(6)
O8 O 0.0600(4) 0.142(2) 0.681(2)
O9 O 0.0191(5) 0.1359(19) 0.7274(16)
O10 O 0.0353(5) 0.2916(12) 0.6912(13)
Ag3 Ag 0.5000 0.48107(12) 0.0000
N5 N 0.46192(9) 0.5098(4) 0.0314(3)
C53 C 0.44172(10) 0.5552(4) -0.0223(3)
H57 H 0.4426 0.5584 -0.0745
C54 C 0.42023(8) 0.5958(3) 0.0019(2)
H58 H 0.4067 0.6262 -0.0341
C55 C 0.41894(6) 0.5909(2) 0.07989(19)
C56 C 0.43914(7) 0.5455(3) 0.1337(2)
H59 H 0.4383 0.5423 0.1858
C57 C 0.46063(8) 0.5049(4) 0.1094(3)
H60 H 0.4742 0.4745 0.1454
C58 C 0.39587(6) 0.6395(2) 0.10650(17)
C59 C 0.38293(8) 0.7200(3) 0.0673(2)
H61 H 0.3870 0.7408 0.0210
C60 C 0.36389(9) 0.7694(3) 0.0973(3)
C61 C 0.35780(8) 0.7383(4) 0.1665(3)
C62 C 0.37074(9) 0.6578(4) 0.2057(2)
C63 C 0.38978(8) 0.6084(3) 0.1757(2)
H62 H 0.3984 0.5546 0.2019
C64 C 0.36431(19) 0.6245(7) 0.2861(5)
C65 C 0.3716(2) 0.7102(9) 0.3455(5)
H63 H 0.3679 0.6914 0.3945
H64 H 0.3613 0.7667 0.3259
H65 H 0.3902 0.7251 0.3525
C66 C 0.3802(2) 0.5336(9) 0.3162(5)
H66 H 0.3754 0.4816 0.2791
H67 H 0.3765 0.5145 0.3651
H68 H 0.3988 0.5473 0.3233
C67 C 0.33446(19) 0.6018(10) 0.2725(5)
H69 H 0.3301 0.5494 0.2356
H70 H 0.3244 0.6588 0.2526
H71 H 0.3303 0.5829 0.3209
C68 C 0.34975(18) 0.8516(8) 0.0550(5)
H72 H 0.3534 0.8682 0.0072
C69 C 0.32094(10) 0.9876(3) 0.0404(3)
C70 C 0.29412(9) 1.0052(4) 0.0357(3)
C71 C 0.28218(8) 1.0880(4) -0.0024(3)
C72 C 0.29705(10) 1.1532(3) -0.0359(3)
C73 C 0.32386(10) 1.1355(4) -0.0312(3)
C74 C 0.33581(8) 1.0527(4) 0.0069(3)
H73 H 0.3537 1.0409 0.0101
C75 C 0.3408(2) 1.2072(8) -0.0666(6)
H74 H 0.3588 1.1835 -0.0577
H75 H 0.3407 1.2701 -0.0425
H76 H 0.3337 1.2129 -0.1216
C76 C 0.2843(2) 1.2433(7) -0.0776(6)
H77 H 0.2658 1.2450 -0.0760
H78 H 0.2859 1.2418 -0.1309
H79 H 0.2930 1.3005 -0.0525
C77 C 0.2826(2) 0.9350(8) 0.1499(5)
H80 H 0.2779 0.8709 0.1660
H81 H 0.3013 0.9456 0.1728
C78 C 0.2403(2) 0.9818(9) 0.1604(5)
H82 H 0.2309 1.0325 0.1805
H83 H 0.2376 0.9207 0.1842
H84 H 0.2339 0.9771 0.1050
C79 C 0.25318(7) 1.1037(4) -0.0063(3)
C80 C 0.23467(10) 1.0421(4) -0.0521(3)
C81 C 0.20781(9) 1.0529(4) -0.0534(3)
C82 C 0.19946(8) 1.1254(5) -0.0089(3)
H85 H 0.1815 1.1326 -0.0098
C83 C 0.21797(11) 1.1870(4) 0.0369(3)
C84 C 0.24483(10) 1.1761(4) 0.0382(3)
C85 C 0.26536(19) 1.2390(8) 0.0952(6)
H86 H 0.2829 1.2229 0.0897
H87 H 0.2639 1.2261 0.1477
H88 H 0.2620 1.3069 0.0835
C86 C 0.2087(3) 1.2665(9) 0.0816(6)
H89 H 0.1897 1.2634 0.0740
H90 H 0.2137 1.3285 0.0637
H91 H 0.2167 1.2591 0.1360
C87 C 0.23785(18) 0.9956(7) -0.1795(5)
H92 H 0.2373 0.9356 -0.2091
H93 H 0.2207 1.0274 -0.1955
C88 C 0.28272(17) 1.0080(8) -0.1926(5)
H94 H 0.2957 1.0536 -0.2027
H95 H 0.2801 0.9572 -0.2311
H96 H 0.2888 0.9801 -0.1417
C89 C 0.1679(2) 0.9601(7) -0.0743(5)
H97 H 0.1636 0.9954 -0.0336
C90 C 0.14947(10) 0.8873(4) -0.1131(3)
C91 C 0.15505(9) 0.8293(5) -0.1723(3)
C92 C 0.13728(11) 0.7570(4) -0.2061(3)
C93 C 0.11393(10) 0.7427(4) -0.1806(3)
H98 H 0.1020 0.6944 -0.2032
C94 C 0.10835(9) 0.8007(5) -0.1214(3)
C95 C 0.12612(11) 0.8730(4) -0.0876(3)
H99 H 0.1224 0.9117 -0.0480
C96 C 0.14328(19) 0.6856(8) -0.2717(5)
C97 C 0.1692(2) 0.6287(8) -0.2368(6)
H100 H 0.1733 0.5857 -0.2756
H101 H 0.1668 0.5911 -0.1928
H102 H 0.1835 0.6741 -0.2205
C98 C 0.14611(19) 0.7462(9) -0.3422(4)
H103 H 0.1497 0.7037 -0.3821
H104 H 0.1605 0.7916 -0.3270
H105 H 0.1299 0.7813 -0.3620
C99 C 0.1213(2) 0.6119(10) -0.2984(6)
H106 H 0.1257 0.5712 -0.3382
H107 H 0.1050 0.6456 -0.3189
H108 H 0.1194 0.5722 -0.2550
C100 C 0.08302(9) 0.7843(6) -0.0922(3)
C101 C 0.05997(11) 0.7526(7) -0.1430(3)
H109 H 0.0600 0.7402 -0.1949
C102 C 0.03685(9) 0.7393(7) -0.1162(3)
H110 H 0.0214 0.7180 -0.1502
N6 N 0.03677(9) 0.7578(6) -0.0386(3)
C103 C 0.05981(11) 0.7895(6) 0.0123(3)
H111 H 0.0598 0.8019 0.0642
C104 C 0.08293(9) 0.8028(6) -0.0146(3)
H112 H 0.0984 0.8241 0.0194
N7 N 0.33276(15) 0.9018(6) 0.0799(4)
N8 N 0.19004(14) 0.9784(6) -0.0934(4)
O11 O 0.33871(13) 0.7853(5) 0.1944(3)
O12 O 0.27855(11) 0.9368(4) 0.0645(3)
O13 O 0.26802(12) 1.0040(5) 0.1776(3)
O14 O 0.24264(11) 0.9730(4) -0.0983(3)
O15 O 0.25799(12) 1.0579(4) -0.1959(3)
O16 O 0.17831(11) 0.8403(5) -0.1950(3)
Ag4 Ag 0.0000 0.74933(10) 0.0000
N5A N -0.46192(9) 0.5098(4) -0.0314(3)
C53A C -0.44172(10) 0.5552(4) 0.0223(3)
H57A H -0.4426 0.5584 0.0745
C54A C -0.42023(8) 0.5958(3) -0.0019(2)
H58A H -0.4067 0.6262 0.0341
C55A C -0.41894(6) 0.5909(2) -0.07989(19)
C56A C -0.43914(7) 0.5455(3) -0.1337(2)
H59A H -0.4383 0.5423 -0.1858
C57A C -0.46063(8) 0.5049(4) -0.1094(3)
H60A H -0.4742 0.4745 -0.1454
C58A C -0.39587(6) 0.6395(2) -0.10650(17)
C59A C -0.38293(8) 0.7200(3) -0.0673(2)
H61A H -0.3870 0.7408 -0.0210
C60A C -0.36389(9) 0.7694(3) -0.0973(3)
C61A C -0.35780(8) 0.7383(4) -0.1665(3)
C62A C -0.37074(9) 0.6578(4) -0.2057(2)
C63A C -0.38978(8) 0.6084(3) -0.1757(2)
H62A H -0.3984 0.5546 -0.2019
C64A C -0.36431(19) 0.6245(7) -0.2861(5)
C65A C -0.3716(2) 0.7102(9) -0.3455(5)
H63A H -0.3679 0.6914 -0.3945
H64A H -0.3613 0.7667 -0.3259
H65A H -0.3902 0.7251 -0.3525
C66A C -0.3802(2) 0.5336(9) -0.3162(5)
H66A H -0.3754 0.4816 -0.2791
H67A H -0.3765 0.5145 -0.3651
H68A H -0.3988 0.5473 -0.3233
C67A C -0.33446(19) 0.6018(10) -0.2725(5)
H69A H -0.3301 0.5494 -0.2356
H70A H -0.3244 0.6588 -0.2526
H71A H -0.3303 0.5829 -0.3209
C68A C -0.34975(18) 0.8516(8) -0.0550(5)
H72A H -0.3534 0.8682 -0.0072
C69A C -0.32094(10) 0.9876(3) -0.0404(3)
C70A C -0.29412(9) 1.0052(4) -0.0357(3)
C71A C -0.28218(8) 1.0880(4) 0.0024(3)
C72A C -0.29705(10) 1.1532(3) 0.0359(3)
C73A C -0.32386(10) 1.1355(4) 0.0312(3)
C74A C -0.33581(8) 1.0527(4) -0.0069(3)
H73A H -0.3537 1.0409 -0.0101
C75A C -0.3408(2) 1.2072(8) 0.0666(6)
H74A H -0.3588 1.1835 0.0577
H75A H -0.3407 1.2701 0.0425
H76A H -0.3337 1.2129 0.1216
C76A C -0.2843(2) 1.2433(7) 0.0776(6)
H77A H -0.2658 1.2450 0.0760
H78A H -0.2859 1.2418 0.1309
H79A H -0.2930 1.3005 0.0525
C77A C -0.2826(2) 0.9350(8) -0.1499(5)
H80A H -0.2779 0.8709 -0.1660
H81A H -0.3013 0.9456 -0.1728
C78A C -0.2403(2) 0.9818(9) -0.1604(5)
H82A H -0.2309 1.0325 -0.1805
H83A H -0.2376 0.9207 -0.1842
H84A H -0.2339 0.9771 -0.1050
C79A C -0.25318(7) 1.1037(4) 0.0063(3)
C80A C -0.23467(10) 1.0421(4) 0.0521(3)
C81A C -0.20781(9) 1.0529(4) 0.0534(3)
C82A C -0.19946(8) 1.1254(5) 0.0089(3)
H85A H -0.1815 1.1326 0.0098
C83A C -0.21797(11) 1.1870(4) -0.0369(3)
C84A C -0.24483(10) 1.1761(4) -0.0382(3)
C85A C -0.26536(19) 1.2390(8) -0.0952(6)
H86A H -0.2829 1.2229 -0.0897
H87A H -0.2639 1.2261 -0.1477
H88A H -0.2620 1.3069 -0.0835
C86A C -0.2087(3) 1.2665(9) -0.0816(6)
H89A H -0.1897 1.2634 -0.0740
H90A H -0.2137 1.3285 -0.0637
H91A H -0.2167 1.2591 -0.1360
C87A C -0.23785(18) 0.9956(7) 0.1795(5)
H92A H -0.2373 0.9356 0.2091
H93A H -0.2207 1.0274 0.1955
C88A C -0.28272(17) 1.0080(8) 0.1926(5)
H94A H -0.2957 1.0536 0.2027
H95A H -0.2801 0.9572 0.2311
H96A H -0.2888 0.9801 0.1417
C89A C -0.1679(2) 0.9601(7) 0.0743(5)
H97A H -0.1636 0.9954 0.0336
C90A C -0.14947(10) 0.8873(4) 0.1131(3)
C91A C -0.15505(9) 0.8293(5) 0.1723(3)
C92A C -0.13728(11) 0.7570(4) 0.2061(3)
C93A C -0.11393(10) 0.7427(4) 0.1806(3)
H98A H -0.1020 0.6944 0.2032
C94A C -0.10835(9) 0.8007(5) 0.1214(3)
C95A C -0.12612(11) 0.8730(4) 0.0876(3)
H99A H -0.1224 0.9117 0.0480
C96A C -0.14328(19) 0.6856(8) 0.2717(5)
C97A C -0.1692(2) 0.6287(8) 0.2368(6)
H100A H -0.1733 0.5857 0.2756
H101A H -0.1668 0.5911 0.1928
H102A H -0.1835 0.6741 0.2205
C98A C -0.14611(19) 0.7462(9) 0.3422(4)
H103A H -0.1497 0.7037 0.3821
H104A H -0.1605 0.7916 0.3270
H105A H -0.1299 0.7813 0.3620
C99A C -0.1213(2) 0.6119(10) 0.2984(6)
H106A H -0.1257 0.5712 0.3382
H107A H -0.1050 0.6456 0.3189
H108A H -0.1194 0.5722 0.2550
C100A C -0.08302(9) 0.7843(6) 0.0922(3)
C101A C -0.05997(11) 0.7526(7) 0.1430(3)
H109A H -0.0600 0.7402 0.1949
C102A C -0.03685(9) 0.7393(7) 0.1162(3)
H110A H -0.0214 0.7180 0.1502
N6A N -0.03677(9) 0.7578(6) 0.0386(3)
C103A C -0.05981(11) 0.7895(6) -0.0123(3)
H111A H -0.0598 0.8019 -0.0642
C104A C -0.08293(9) 0.8028(6) 0.0146(3)
H112A H -0.0984 0.8241 -0.0194
N7A N -0.33276(15) 0.9018(6) -0.0799(4)
N8A N -0.19004(14) 0.9784(6) 0.0934(4)
O11A O -0.33871(13) 0.7853(5) -0.1944(3)
O12A O -0.27855(11) 0.9368(4) -0.0645(3)
O13A O -0.26802(12) 1.0040(5) -0.1776(3)
O14A O -0.24264(11) 0.9730(4) 0.0983(3)
O15A O -0.25799(12) 1.0579(4) 0.1959(3)
O16A O -0.17831(11) 0.8403(5) 0.1950(3)
Ag3_2 Ag -0.5000 0.48107(12) 0.0000
N5A_2 N 0.53808(9) 0.5098(4) -0.0314(3)
Cl2 Cl 0.53278(7) 0.3492(3) 0.1956(2)
O17 O 0.5283(4) 0.4305(10) 0.1443(9)
O18 O 0.5275(2) 0.2539(7) 0.1554(5)
O19 O 0.5606(3) 0.3500(16) 0.2369(10)
O20 O 0.5147(3) 0.3593(13) 0.2499(8)
O21 O 0.0329(5) -0.135(2) 0.6440(14)
O22 O 0.0698(9) -0.164(4) 0.625(2)
O23 O 0.5902(9) 0.249(4) 0.437(2)
O24 O 0.4076(7) 0.987(3) 0.0793(19)
C105 C 0.9780(3) 0.2301(15) 0.8588(9)
N9 N 0.9883(3) 0.2088(12) 0.9291(8)
C106 C 0.9508(3) 0.2729(15) 0.8359(10)
loop_
_geom_bond_atom_site_label_1
_geom_bond_atom_site_label_2
_geom_bond_site_symmetry_1
_geom_bond_site_symmetry_2
Ag1 N1 1_555 1_555
N1 C1 1_555 1_555
C1 H1 1_555 1_555
C2 C1 1_555 1_555
H2 C2 1_555 1_555
C3 C2 1_555 1_555
C4 C3 1_555 1_555
H3 C4 1_555 1_555
C5 N1 1_555 1_555
H4 C5 1_555 1_555
C6 C11 1_555 1_555
C7 C3 1_555 1_555
C8 C7 1_555 1_555
H5 C8 1_555 1_555
C9 C8 1_555 1_555
C10 C9 1_555 1_555
C11 C10 1_555 1_555
C12 C7 1_555 1_555
H6 C12 1_555 1_555
C13 C6 1_555 1_555
H7 C13 1_555 1_555
H8 C13 1_555 1_555
H9 C13 1_555 1_555
C14 C6 1_555 1_555
H10 C14 1_555 1_555
H11 C14 1_555 1_555
H12 C14 1_555 1_555
C15 C6 1_555 1_555
H13 C15 1_555 1_555
H14 C15 1_555 1_555
H15 C15 1_555 1_555
C16 C9 1_555 1_555
H16 C16 1_555 1_555
C17 C18 1_555 1_555
C18 C19 1_555 1_555
C19 C20 1_555 1_555
C20 C21 1_555 1_555
C21 C22 1_555 1_555
C22 C17 1_555 1_555
H17 C22 1_555 1_555
C23 C21 1_555 1_555
H18 C23 1_555 1_555
H19 C23 1_555 1_555
H20 C23 1_555 1_555
C24 C20 1_555 1_555
H21 C24 1_555 1_555
H22 C24 1_555 1_555
H23 C24 1_555 1_555
C25 H24 1_555 1_555
H25 C25 1_555 1_555
C26 H26 1_555 1_555
H27 C26 1_555 1_555
H28 C26 1_555 1_555
C27 C19 1_555 1_555
C28 C27 1_555 1_555
C29 C28 1_555 1_555
C30 C29 1_555 1_555
H29 C30 1_555 1_555
C31 C30 1_555 1_555
C32 C27 1_555 1_555
C33 C32 1_555 1_555
H30 C33 1_555 1_555
H31 C33 1_555 1_555
H32 C33 1_555 1_555
C34 C31 1_555 1_555
H33 C34 1_555 1_555
H34 C34 1_555 1_555
H35 C34 1_555 1_555
C35 H36 1_555 1_555
H37 C35 1_555 1_555
C36 H38 1_555 1_555
H39 C36 1_555 1_555
H40 C36 1_555 1_555
C37 H41 1_555 1_555
C38 C37 1_555 1_555
C39 C38 1_555 1_555
C40 C39 1_555 1_555
C41 C40 1_555 1_555
H42 C41 1_555 1_555
C42 C41 1_555 1_555
C43 C38 1_555 1_555
H43 C43 1_555 1_555
C44 C40 1_555 1_555
C45 C44 1_555 1_555
H44 C45 1_555 1_555
H45 C45 1_555 1_555
H46 C45 1_555 1_555
C46 C44 1_555 1_555
H47 C46 1_555 1_555
H48 C46 1_555 1_555
H49 C46 1_555 1_555
C47 C42 1_555 1_555
C48 C47 1_555 1_555
H50 C48 1_555 1_555
C49 C48 1_555 1_555
H51 C49 1_555 1_555
N2 C49 1_555 1_555
C50 N2 1_555 1_555
H52 C50 1_555 1_555
C51 C47 1_555 1_555
H53 C51 1_555 1_555
C52 C44 1_555 1_555
H54 C52 1_555 1_555
H55 C52 1_555 1_555
H56 C52 1_555 1_555
N3 C16 1_555 1_555
N4 C29 1_555 1_555
O1 C10 1_555 1_555
O2 C18 1_555 1_555
O3 C25 1_555 1_555
O4 C28 1_555 1_555
O5 C35 1_555 1_555
O6 C39 1_555 1_555
Ag2 N2 1_555 1_555
Cl1 O7 1_555 1_555
O8 Cl1 1_555 1_555
O9 Cl1 1_555 1_555
O10 Cl1 1_555 1_555
Ag3 N5 1_555 1_555
N5 C53 1_555 1_555
C53 H57 1_555 1_555
C54 C53 1_555 1_555
H58 C54 1_555 1_555
C55 C54 1_555 1_555
C56 C55 1_555 1_555
H59 C56 1_555 1_555
C57 N5 1_555 1_555
H60 C57 1_555 1_555
C58 C55 1_555 1_555
C59 C58 1_555 1_555
H61 C59 1_555 1_555
C60 C59 1_555 1_555
C61 C60 1_555 1_555
C62 C61 1_555 1_555
C63 C58 1_555 1_555
H62 C63 1_555 1_555
C64 C62 1_555 1_555
C65 C64 1_555 1_555
H63 C65 1_555 1_555
H64 C65 1_555 1_555
H65 C65 1_555 1_555
C66 C64 1_555 1_555
H66 C66 1_555 1_555
H67 C66 1_555 1_555
H68 C66 1_555 1_555
C67 C64 1_555 1_555
H69 C67 1_555 1_555
H70 C67 1_555 1_555
H71 C67 1_555 1_555
C68 C60 1_555 1_555
H72 C68 1_555 1_555
C69 C70 1_555 1_555
C70 C71 1_555 1_555
C71 C72 1_555 1_555
C72 C73 1_555 1_555
C73 C74 1_555 1_555
C74 C69 1_555 1_555
H73 C74 1_555 1_555
C75 C73 1_555 1_555
H74 C75 1_555 1_555
H75 C75 1_555 1_555
H76 C75 1_555 1_555
C76 C72 1_555 1_555
H77 C76 1_555 1_555
H78 C76 1_555 1_555
H79 C76 1_555 1_555
C77 H80 1_555 1_555
H81 C77 1_555 1_555
C78 H82 1_555 1_555
H83 C78 1_555 1_555
H84 C78 1_555 1_555
C79 C71 1_555 1_555
C80 C79 1_555 1_555
C81 C80 1_555 1_555
C82 C81 1_555 1_555
H85 C82 1_555 1_555
C83 C82 1_555 1_555
C84 C79 1_555 1_555
C85 C84 1_555 1_555
H86 C85 1_555 1_555
H87 C85 1_555 1_555
H88 C85 1_555 1_555
C86 C83 1_555 1_555
H89 C86 1_555 1_555
H90 C86 1_555 1_555
H91 C86 1_555 1_555
C87 H92 1_555 1_555
H93 C87 1_555 1_555
C88 H94 1_555 1_555
H95 C88 1_555 1_555
H96 C88 1_555 1_555
C89 H97 1_555 1_555
C90 C89 1_555 1_555
C91 C90 1_555 1_555
C92 C91 1_555 1_555
C93 C92 1_555 1_555
H98 C93 1_555 1_555
C94 C93 1_555 1_555
C95 C90 1_555 1_555
H99 C95 1_555 1_555
C96 C92 1_555 1_555
C97 C96 1_555 1_555
H100 C97 1_555 1_555
H101 C97 1_555 1_555
H102 C97 1_555 1_555
C98 C96 1_555 1_555
H103 C98 1_555 1_555
H104 C98 1_555 1_555
H105 C98 1_555 1_555
C99 C96 1_555 1_555
H106 C99 1_555 1_555
H107 C99 1_555 1_555
H108 C99 1_555 1_555
C100 C94 1_555 1_555
C101 C100 1_555 1_555
H109 C101 1_555 1_555
C102 C101 1_555 1_555
H110 C102 1_555 1_555
N6 C102 1_555 1_555
C103 N6 1_555 1_555
H111 C103 1_555 1_555
C104 C100 1_555 1_555
H112 C104 1_555 1_555
N7 C68 1_555 1_555
N8 C81 1_555 1_555
O11 C61 1_555 1_555
O12 C70 1_555 1_555
O13 C77 1_555 1_555
O14 C80 1_555 1_555
O15 C87 1_555 1_555
O16 C91 1_555 1_555
Ag4 N6 1_555 1_555
Cl2 O17 1_555 1_555
O18 Cl2 1_555 1_555
O19 Cl2 1_555 1_555
O20 Cl2 1_555 1_555
C105 N9 1_555 1_555
C106 C105 1_555 1_555
N1A Ag1 1_555 1_555
C1A N1A 1_555 1_555
H1A C1A 1_555 1_555
C2A C1A 1_555 1_555
H2A C2A 1_555 1_555
C3A C2A 1_555 1_555
C4A C3A 1_555 1_555
H3A C4A 1_555 1_555
C5A N1A 1_555 1_555
H4A C5A 1_555 1_555
C6A C11A 1_555 1_555
C7A C3A 1_555 1_555
C8A C7A 1_555 1_555
H5A C8A 1_555 1_555
C9A C8A 1_555 1_555
C10A C9A 1_555 1_555
C11A C10A 1_555 1_555
C12A C7A 1_555 1_555
H6A C12A 1_555 1_555
C13A C6A 1_555 1_555
H7A C13A 1_555 1_555
H8A C13A 1_555 1_555
H9A C13A 1_555 1_555
C14A C6A 1_555 1_555
H10A C14A 1_555 1_555
H11A C14A 1_555 1_555
H12A C14A 1_555 1_555
C15A C6A 1_555 1_555
H13A C15A 1_555 1_555
H14A C15A 1_555 1_555
H15A C15A 1_555 1_555
C16A C9A 1_555 1_555
H16A C16A 1_555 1_555
C17A C18A 1_555 1_555
C18A C19A 1_555 1_555
C19A C20A 1_555 1_555
C20A C21A 1_555 1_555
C21A C22A 1_555 1_555
C22A C17A 1_555 1_555
H17A C22A 1_555 1_555
C23A C21A 1_555 1_555
H18A C23A 1_555 1_555
H19A C23A 1_555 1_555
H20A C23A 1_555 1_555
C24A C20A 1_555 1_555
H21A C24A 1_555 1_555
H22A C24A 1_555 1_555
H23A C24A 1_555 1_555
C25A H24A 1_555 1_555
H25A C25A 1_555 1_555
C26A H26A 1_555 1_555
H27A C26A 1_555 1_555
H28A C26A 1_555 1_555
C27A C19A 1_555 1_555
C28A C27A 1_555 1_555
C29A C28A 1_555 1_555
C30A C29A 1_555 1_555
H29A C30A 1_555 1_555
C31A C30A 1_555 1_555
C32A C27A 1_555 1_555
C33A C32A 1_555 1_555
H30A C33A 1_555 1_555
H31A C33A 1_555 1_555
H32A C33A 1_555 1_555
C34A C31A 1_555 1_555
H33A C34A 1_555 1_555
H34A C34A 1_555 1_555
H35A C34A 1_555 1_555
C35A H36A 1_555 1_555
H37A C35A 1_555 1_555
C36A H38A 1_555 1_555
H39A C36A 1_555 1_555
H40A C36A 1_555 1_555
C37A H41A 1_555 1_555
C38A C37A 1_555 1_555
C39A C38A 1_555 1_555
C40A C39A 1_555 1_555
C41A C40A 1_555 1_555
H42A C41A 1_555 1_555
C42A C41A 1_555 1_555
C43A C38A 1_555 1_555
H43A C43A 1_555 1_555
C44A C40A 1_555 1_555
C45A C44A 1_555 1_555
H44A C45A 1_555 1_555
H45A C45A 1_555 1_555
H46A C45A 1_555 1_555
C46A C44A 1_555 1_555
H47A C46A 1_555 1_555
H48A C46A 1_555 1_555
H49A C46A 1_555 1_555
C47A C42A 1_555 1_555
C48A C47A 1_555 1_555
H50A C48A 1_555 1_555
C49A C48A 1_555 1_555
H51A C49A 1_555 1_555
N2A C49A 1_555 1_555
C50A N2A 1_555 1_555
H52A C50A 1_555 1_555
C51A C47A 1_555 1_555
H53A C51A 1_555 1_555
C52A C44A 1_555 1_555
H54A C52A 1_555 1_555
H55A C52A 1_555 1_555
H56A C52A 1_555 1_555
N3A C16A 1_555 1_555
N4A C29A 1_555 1_555
O1A C10A 1_555 1_555
O2A C18A 1_555 1_555
O3A C25A 1_555 1_555
O4A C28A 1_555 1_555
O5A C35A 1_555 1_555
O6A C39A 1_555 1_555
N2A_2 Ag2 1_555 1_555
Ag2_2 N2A 1_555 1_555
N5A C53A 1_555 1_555
C53A H57A 1_555 1_555
C54A C53A 1_555 1_555
H58A C54A 1_555 1_555
C55A C54A 1_555 1_555
C56A C55A 1_555 1_555
H59A C56A 1_555 1_555
C57A N5A 1_555 1_555
H60A C57A 1_555 1_555
C58A C55A 1_555 1_555
C59A C58A 1_555 1_555
H61A C59A 1_555 1_555
C60A C59A 1_555 1_555
C61A C60A 1_555 1_555
C62A C61A 1_555 1_555
C63A C58A 1_555 1_555
H62A C63A 1_555 1_555
C64A C62A 1_555 1_555
C65A C64A 1_555 1_555
H63A C65A 1_555 1_555
H64A C65A 1_555 1_555
H65A C65A 1_555 1_555
C66A C64A 1_555 1_555
H66A C66A 1_555 1_555
H67A C66A 1_555 1_555
H68A C66A 1_555 1_555
C67A C64A 1_555 1_555
H69A C67A 1_555 1_555
H70A C67A 1_555 1_555
H71A C67A 1_555 1_555
C68A C60A 1_555 1_555
H72A C68A 1_555 1_555
C69A C70A 1_555 1_555
C70A C71A 1_555 1_555
C71A C72A 1_555 1_555
C72A C73A 1_555 1_555
C73A C74A 1_555 1_555
C74A C69A 1_555 1_555
H73A C74A 1_555 1_555
C75A C73A 1_555 1_555
H74A C75A 1_555 1_555
H75A C75A 1_555 1_555
H76A C75A 1_555 1_555
C76A C72A 1_555 1_555
H77A C76A 1_555 1_555
H78A C76A 1_555 1_555
H79A C76A 1_555 1_555
C77A H80A 1_555 1_555
H81A C77A 1_555 1_555
C78A H82A 1_555 1_555
H83A C78A 1_555 1_555
H84A C78A 1_555 1_555
C79A C71A 1_555 1_555
C80A C79A 1_555 1_555
C81A C80A 1_555 1_555
C82A C81A 1_555 1_555
H85A C82A 1_555 1_555
C83A C82A 1_555 1_555
C84A C79A 1_555 1_555
C85A C84A 1_555 1_555
H86A C85A 1_555 1_555
H87A C85A 1_555 1_555
H88A C85A 1_555 1_555
C86A C83A 1_555 1_555
H89A C86A 1_555 1_555
H90A C86A 1_555 1_555
H91A C86A 1_555 1_555
C87A H92A 1_555 1_555
H93A C87A 1_555 1_555
C88A H94A 1_555 1_555
H95A C88A 1_555 1_555
H96A C88A 1_555 1_555
C89A H97A 1_555 1_555
C90A C89A 1_555 1_555
C91A C90A 1_555 1_555
C92A C91A 1_555 1_555
C93A C92A 1_555 1_555
H98A C93A 1_555 1_555
C94A C93A 1_555 1_555
C95A C90A 1_555 1_555
H99A C95A 1_555 1_555
C96A C92A 1_555 1_555
C97A C96A 1_555 1_555
H100A C97A 1_555 1_555
H101A C97A 1_555 1_555
H102A C97A 1_555 1_555
C98A C96A 1_555 1_555
H103A C98A 1_555 1_555
H104A C98A 1_555 1_555
H105A C98A 1_555 1_555
C99A C96A 1_555 1_555
H106A C99A 1_555 1_555
H107A C99A 1_555 1_555
H108A C99A 1_555 1_555
C100A C94A 1_555 1_555
C101A C100A 1_555 1_555
H109A C101A 1_555 1_555
C102A C101A 1_555 1_555
H110A C102A 1_555 1_555
N6A Ag4 1_555 1_555
C103A N6A 1_555 1_555
H111A C103A 1_555 1_555
C104A C100A 1_555 1_555
H112A C104A 1_555 1_555
N7A C68A 1_555 1_555
N8A C81A 1_555 1_555
O11A C61A 1_555 1_555
O12A C70A 1_555 1_555
O13A C77A 1_555 1_555
O14A C80A 1_555 1_555
O15A C87A 1_555 1_555
O16A C91A 1_555 1_555
Ag3_2 N5A 1_555 1_555
N5A_2 Ag3 1_555 1_555
C4 C5 1_555 1_555
C11 C12 1_555 1_555
C17 N3 1_555 1_555
C25 O2 1_555 1_555
C26 O3 1_555 1_555
C31 C32 1_555 1_555
C35 O4 1_555 1_555
C36 O5 1_555 1_555
C37 N4 1_555 1_555
C42 C43 1_555 1_555
C50 C51 1_555 1_555
C56 C57 1_555 1_555
C62 C63 1_555 1_555
C69 N7 1_555 1_555
C77 O12 1_555 1_555
C78 O13 1_555 1_555
C83 C84 1_555 1_555
C87 O14 1_555 1_555
C88 O15 1_555 1_555
C89 N8 1_555 1_555
C94 C95 1_555 1_555
C103 C104 1_555 1_555
C4A C5A 1_555 1_555
C11A C12A 1_555 1_555
C17A N3A 1_555 1_555
C25A O2A 1_555 1_555
C26A O3A 1_555 1_555
C31A C32A 1_555 1_555
C35A O4A 1_555 1_555
C36A O5A 1_555 1_555
C37A N4A 1_555 1_555
C42A C43A 1_555 1_555
C50A C51A 1_555 1_555
C56A C57A 1_555 1_555
C62A C63A 1_555 1_555
C69A N7A 1_555 1_555
C77A O12A 1_555 1_555
C78A O13A 1_555 1_555
C83A C84A 1_555 1_555
C87A O14A 1_555 1_555
C88A O15A 1_555 1_555
C89A N8A 1_555 1_555
C94A C95A 1_555 1_555
C102A N6A 1_555 1_555
C103A C104A 1_555 1_555

#END
