
#######################################################################
#
#                 Cambridge Crystallographic Data Centre
#                                CCDC 
#
#######################################################################
#
# If this CIF has been generated from an entry in the Cambridge 
# Structural Database, then it will include bibliographic, chemical, 
# crystal, experimental, refinement or atomic coordinate data resulting 
# from the CCDC's data processing and validation procedures.
#
#######################################################################

data_WIWKOE
_symmetry_cell_setting           monoclinic
_symmetry_space_group_name_H-M   'C 2'
_symmetry_Int_Tables_number      5
_space_group_name_Hall           'C 2y'
loop_
_symmetry_equiv_pos_site_id
_symmetry_equiv_pos_as_xyz
1 x,y,z
2 -x,y,-z
3 1/2+x,1/2+y,z
4 1/2-x,1/2+y,-z
_cell_length_a                   31.6945(7)
_cell_length_b                   18.9206(5)
_cell_length_c                   23.8228(5)
_cell_angle_alpha                90
_cell_angle_beta                 109.8150(10)
_cell_angle_gamma                90
_cell_volume                     13440.2
loop_
_atom_site_label
_atom_site_type_symbol
_atom_site_fract_x
_atom_site_fract_y
_atom_site_fract_z
Ag1 Ag 0.64528(3) 0.86781(5) 0.99342(3)
Ag2 Ag 0.66931(3) 0.72246(5) 1.05614(3)
N1 N 0.6999(3) 0.8680(5) 0.5690(3)
N2 N 0.6866(3) 0.9989(5) 0.2443(3)
N3 N 0.6256(3) 0.6271(5) 1.4750(4)
N4 N 0.5689(3) 0.7735(5) 1.7444(4)
N5 N 0.6736(2) 0.8673(4) 0.9235(2)
C1 C 0.64381(16) 0.8660(5) 0.8652(2)
H1 H 0.6132 0.8622 0.8579
C2 C 0.65987(19) 0.8703(5) 0.81775(18)
H2 H 0.6400 0.8695 0.7787
C3 C 0.7057(2) 0.8760(4) 0.8286(2)
C4 C 0.73545(16) 0.8773(5) 0.8870(2)
H3 H 0.7661 0.8810 0.8942
C5 C 0.71940(18) 0.8729(5) 0.93439(18)
H4 H 0.7393 0.8737 0.9734
C6 C 0.8208(5) 0.9866(9) 0.7491(6)
C7 C 0.7231(2) 0.8875(4) 0.7768(2)
C8 C 0.69870(19) 0.8630(4) 0.7200(2)
H5 H 0.6721 0.8383 0.7137
C9 C 0.7141(2) 0.8754(4) 0.6728(2)
C10 C 0.7538(2) 0.9123(5) 0.6823(2)
C11 C 0.7782(2) 0.9368(5) 0.7390(3)
C12 C 0.7628(2) 0.9244(4) 0.7863(2)
H6 H 0.7791 0.9408 0.8243
C13 C 0.8037(6) 1.0543(8) 0.7103(7)
H7 H 0.8284 1.0858 0.7151
H8 H 0.7814 1.0774 0.7229
H9 H 0.7907 1.0410 0.6691
C14 C 0.8573(4) 0.9501(9) 0.7353(7)
H10 H 0.8820 0.9820 0.7413
H11 H 0.8467 0.9345 0.6946
H12 H 0.8671 0.9100 0.7612
C15 C 0.8398(5) 1.0121(9) 0.8148(6)
H13 H 0.8650 1.0427 0.8197
H14 H 0.8493 0.9720 0.8407
H15 H 0.8170 1.0375 0.8246
C16 C 0.6877(3) 0.8538(5) 0.6140(4)
H16 H 0.6612 0.8291 0.6081
C17 C 0.6739(2) 0.8545(4) 0.50876(18)
C18 C 0.69431(17) 0.8649(4) 0.4662(2)
C19 C 0.6694(2) 0.8589(4) 0.4059(2)
C20 C 0.6240(2) 0.8426(4) 0.38813(19)
C21 C 0.60351(17) 0.8322(4) 0.4307(3)
C22 C 0.6285(2) 0.8382(4) 0.4910(2)
H17 H 0.6148 0.8312 0.5195
C23 C 0.5535(4) 0.8134(7) 0.4124(5)
H18 H 0.5454 0.8079 0.4475
H19 H 0.5480 0.7699 0.3903
H20 H 0.5359 0.8505 0.3881
C24 C 0.5947(4) 0.8407(6) 0.3215(4)
H21 H 0.6131 0.8487 0.2975
H22 H 0.5721 0.8768 0.3136
H23 H 0.5805 0.7953 0.3120
C25 C 0.7549(5) 0.9489(8) 0.5011(6)
H24 H 0.7344 0.9722 0.5175
H25 H 0.7844 0.9484 0.5317
C26 C 0.7946(6) 0.9647(11) 0.4322(8)
H26 H 0.7949 0.9918 0.3983
H27 H 0.7912 0.9155 0.4218
H28 H 0.8223 0.9718 0.4645
C27 C 0.6928(2) 0.8695(3) 0.3608(2)
C28 C 0.6815(2) 0.9284(3) 0.3239(3)
C29 C 0.7002(2) 0.9377(3) 0.2794(2)
C30 C 0.7302(2) 0.8880(3) 0.2719(2)
H29 H 0.7427 0.8943 0.2421
C31 C 0.7415(2) 0.8291(3) 0.3088(3)
C32 C 0.7228(2) 0.8198(3) 0.3533(3)
C33 C 0.7349(4) 0.7540(6) 0.3937(5)
H30 H 0.7556 0.7252 0.3824
H31 H 0.7082 0.7274 0.3893
H32 H 0.7484 0.7685 0.4345
C34 C 0.7743(4) 0.7762(7) 0.2983(5)
H33 H 0.7788 0.7379 0.3261
H34 H 0.8024 0.7992 0.3038
H35 H 0.7623 0.7583 0.2583
C35 C 0.6653(5) 1.0443(7) 0.3551(5)
H36 H 0.6442 1.0809 0.3350
H37 H 0.6944 1.0555 0.3522
C36 C 0.6334(7) 1.0383(11) 0.4333(9)
H38 H 0.6414 1.0336 0.4758
H39 H 0.6146 0.9996 0.4139
H40 H 0.6176 1.0820 0.4207
C37 C 0.7057(3) 1.0182(6) 0.2075(4)
H41 H 0.7290 0.9909 0.2038
C38 C 0.6924(2) 1.0815(3) 0.1709(3)
C39 C 0.6568(2) 1.1233(4) 0.1727(3)
C40 C 0.6470(2) 1.1860(4) 0.1404(4)
C41 C 0.6728(3) 1.2068(3) 0.1063(3)
H42 H 0.6662 1.2487 0.0847
C42 C 0.7084(2) 1.1650(3) 0.1046(3)
C43 C 0.7182(2) 1.1024(3) 0.1369(3)
H43 H 0.7420 1.0744 0.1357
C44 C 0.6068(6) 1.2341(9) 0.1449(8)
C45 C 0.5641(6) 1.1950(13) 0.1232(10)
H44 H 0.5582 1.1810 0.0825
H45 H 0.5402 1.2249 0.1255
H46 H 0.5660 1.1538 0.1474
C46 C 0.6155(7) 1.2559(9) 0.2110(8)
H47 H 0.6167 1.2143 0.2346
H48 H 0.5917 1.2861 0.2130
H49 H 0.6436 1.2807 0.2262
C47 C 0.6035(7) 1.3026(11) 0.1071(11)
H50 H 0.5981 1.2900 0.0662
H51 H 0.6310 1.3286 0.1222
H52 H 0.5792 1.3313 0.1096
C48 C 0.7377(2) 1.1876(4) 0.0692(3)
C49 C 0.71813(19) 1.2107(4) 0.0107(3)
H53 H 0.6872 1.2163 -0.0055
C50 C 0.7448(2) 1.2256(4) -0.0237(2)
H54 H 0.7317 1.2410 -0.0628
N6 N 0.7910(2) 1.2173(4) 0.0005(3)
C51 C 0.81062(19) 1.1942(4) 0.0590(3)
H55 H 0.8416 1.1887 0.0751
C52 C 0.7840(2) 1.1794(4) 0.0933(2)
H56 H 0.7970 1.1639 0.1325
C53 C 0.5125(4) 0.5031(7) 1.2846(5)
N7 N 0.6349(2) 0.7153(4) 1.1201(2)
C54 C 0.65892(19) 0.7355(4) 1.1783(2)
H57 H 0.6858 0.7600 1.1866
C55 C 0.6428(2) 0.7191(4) 1.22423(18)
H58 H 0.6589 0.7326 1.2632
C56 C 0.6027(2) 0.6824(4) 1.2119(2)
C57 C 0.5786(2) 0.6622(4) 1.1537(3)
H59 H 0.5518 0.6377 1.1455
C58 C 0.5948(2) 0.6787(4) 1.10783(19)
H60 H 0.5787 0.6652 1.0689
C59 C 0.4879(5) 0.4955(9) 1.2167(5)
H61 H 0.5092 0.4842 1.1975
H62 H 0.4732 0.5392 1.2011
H63 H 0.4660 0.4585 1.2095
C60 C 0.5893(2) 0.6505(4) 1.2638(2)
C61 C 0.6136(2) 0.6694(3) 1.3222(3)
H64 H 0.6354 0.7045 1.3297
C62 C 0.6054(2) 0.6359(4) 1.36938(19)
C63 C 0.5728(2) 0.5835(4) 1.3581(2)
C64 C 0.5485(2) 0.5646(3) 1.2997(3)
C65 C 0.5568(2) 0.5981(4) 1.2525(2)
H65 H 0.5405 0.5854 1.2134
C66 C 0.5350(5) 0.4366(8) 1.3127(7)
H66 H 0.5578 0.4243 1.2963
H67 H 0.5133 0.3992 1.3050
H68 H 0.5485 0.4434 1.3550
C67 C 0.4755(4) 0.5219(10) 1.3120(6)
H69 H 0.4534 0.4849 1.3030
H70 H 0.4614 0.5656 1.2953
H71 H 0.4889 0.5266 1.3545
C68 C 0.6309(4) 0.6554(7) 1.4312(5)
H72 H 0.6523 0.6909 1.4377
C69 C 0.6534(2) 0.6472(4) 1.5353(2)
C70 C 0.63421(18) 0.6431(4) 1.5797(3)
C71 C 0.6594(2) 0.6603(4) 1.6382(2)
C72 C 0.7037(2) 0.6818(4) 1.6523(2)
C73 C 0.72287(18) 0.6860(4) 1.6079(3)
C74 C 0.6977(2) 0.6687(4) 1.5494(3)
H73 H 0.7106 0.6715 1.5197
C75 C 0.7715(4) 0.7087(8) 1.6220(6)
H74 H 0.7787 0.7090 1.5860
H75 H 0.7908 0.6762 1.6500
H76 H 0.7755 0.7553 1.6390
C76 C 0.7333(4) 0.6961(7) 1.7167(5)
H77 H 0.7159 0.6909 1.7425
H78 H 0.7450 0.7433 1.7199
H79 H 0.7577 0.6630 1.7282
C77 C 0.5837(7) 0.5516(12) 1.5833(8)
H80 H 0.5553 0.5488 1.5903
H81 H 0.6074 0.5415 1.6207
C78 C 0.6378(2) 0.6566(3) 1.6860(2)
C79 C 0.6116(2) 0.7130(3) 1.6921(2)
C80 C 0.5942(2) 0.7136(3) 1.7384(3)
C81 C 0.6031(2) 0.6578(3) 1.7787(2)
H82 H 0.5915 0.6582 1.8097
C82 C 0.6293(2) 0.6014(3) 1.7726(2)
C83 C 0.6467(2) 0.6008(3) 1.7263(3)
C84 C 0.6751(4) 0.5384(7) 1.7197(5)
H83 H 0.6781 0.5051 1.7512
H84 H 0.7042 0.5549 1.7218
H85 H 0.6608 0.5159 1.6819
C85 C 0.6370(4) 0.5393(6) 1.8169(5)
H86 H 0.6556 0.5043 1.8076
H87 H 0.6086 0.5186 1.8139
H88 H 0.6515 0.5563 1.8568
C86 C 0.5593(4) 0.7711(9) 1.6111(5)
H89 H 0.5503 0.7252 1.5928
H90 H 0.5384 0.7853 1.6307
C87 C 0.5615(7) 0.8943(9) 1.5889(8)
H91 H 0.5624 0.9264 1.5581
H92 H 0.5878 0.9005 1.6234
H93 H 0.5352 0.9036 1.5992
C88 C 0.5415(3) 0.7702(6) 1.7747(4)
H94 H 0.5362 0.7271 1.7898
C89 C 0.5190(2) 0.8342(3) 1.7849(3)
C90 C 0.5226(2) 0.8989(3) 1.7593(3)
C91 C 0.4993(2) 0.9573(3) 1.7689(3)
C92 C 0.4724(2) 0.9509(3) 1.8041(3)
H95 H 0.4568 0.9900 1.8105
C93 C 0.4688(2) 0.8862(3) 1.8298(3)
C94 C 0.4921(2) 0.8279(3) 1.8202(3)
H96 H 0.4897 0.7846 1.8373
C95 C 0.5026(4) 1.0319(6) 1.7401(5)
C96 C 0.4864(6) 1.0238(9) 1.6702(6)
H97 H 0.4882 1.0687 1.6524
H98 H 0.4559 1.0074 1.6560
H99 H 0.5052 0.9903 1.6596
C97 C 0.5532(5) 1.0536(8) 1.7640(8)
H100 H 0.5568 1.0987 1.7477
H101 H 0.5706 1.0188 1.7521
H102 H 0.5634 1.0565 1.8067
C98 C 0.4745(6) 1.0877(8) 1.7558(7)
H103 H 0.4776 1.1316 1.7374
H104 H 0.4844 1.0935 1.7983
H105 H 0.4436 1.0733 1.7417
C99 C 0.4413(2) 0.8806(4) 1.8701(3)
C100 C 0.45612(18) 0.8390(4) 1.9211(3)
H106 H 0.4831 0.8146 1.9304
C101 C 0.4306(2) 0.8338(4) 1.9583(2)
H107 H 0.4406 0.8059 1.9925
N8 N 0.39032(19) 0.8702(4) 1.9445(2)
C102 C 0.37547(19) 0.9119(4) 1.8935(3)
H108 H 0.3485 0.9363 1.8842
C103 C 0.4010(2) 0.9171(4) 1.8563(2)
H109 H 0.3910 0.9449 1.8221
O1 O 0.7691(3) 0.9232(5) 0.6374(3)
O2 O 0.7398(2) 0.8756(4) 0.4849(3)
O3 O 0.7569(4) 0.9879(6) 0.4507(4)
O4 O 0.6497(2) 0.9741(4) 0.3287(3)
O5 O 0.6684(7) 1.0382(11) 0.4196(7)
O6 O 0.6319(3) 1.1021(5) 0.2072(4)
O7 O 0.5663(3) 0.5493(5) 1.4040(3)
O8 O 0.5894(3) 0.6219(6) 1.5646(3)
O9 O 0.5845(6) 0.4972(13) 1.5382(8)
C104 C 0.5372(9) 0.488(3) 1.5056(18)
H110 H 0.5334 0.4527 1.4752
H111 H 0.5246 0.5318 1.4874
H112 H 0.5223 0.4728 1.5325
O10 O 0.6041(2) 0.7681(4) 1.6532(3)
O11 O 0.5599(3) 0.8215(7) 1.5673(4)
O12 O 0.5486(2) 0.9042(4) 1.7239(3)
O13 O 0.6071(5) 0.9930(9) 0.9499(7)
C105 C 0.6264(9) 1.0600(13) 0.9806(13)
C106 C 0.5973(14) 1.090(3) 1.0121(18)
C107 C 0.5505(11) 1.063(2) 0.972(2)
C108 C 0.5573(7) 1.0021(16) 0.9358(12)
Ag1A Ag 0.35472(3) 0.86781(5) 2.00658(3)
Ag2C Ag 0.83069(3) 1.22246(5) -0.05614(3)
N6C N 0.7090(2) 0.7173(4) 0.9995(3)
N8A N 0.60968(19) 0.8702(4) 1.0555(2)
B1 B 0.7565(5) 0.8853(7) 0.1182(6)
F1 F 0.7793(3) 0.9202(5) 0.1673(3)
F2 F 0.7228(4) 0.9307(7) 0.0841(5)
F3 F 0.7807(3) 0.8704(6) 0.0826(3)
F4 F 0.7339(4) 0.8290(5) 0.1286(4)
B2 B 0.5620(5) 0.6860(8) 0.9268(5)
F5 F 0.5824(2) 0.7464(4) 0.9172(3)
F6 F 0.5286(2) 0.7042(4) 0.9490(3)
F7 F 0.5941(3) 0.6462(5) 0.9716(3)
F8 F 0.5450(3) 0.6468(4) 0.8774(3)
O14 O 0.7696(10) 0.6451(19) 0.1825(12)
C109 C 0.7414(8) 0.6189(13) 0.1235(11)
C110 C 0.7680(11) 0.5676(18) 0.0996(15)
C111 C 0.8158(10) 0.582(2) 0.1341(18)
C112 C 0.8139(12) 0.648(2) 0.1705(17)
O15 O 0.8308(9) 1.0096(16) 1.0200(12)
C113 C 0.8391(14) 1.0145(14) 0.9609(16)
C114 C 0.8410(5) 0.9359(9) 0.9485(7)
C115 C 0.8509(9) 0.8947(14) 1.0027(10)
C116 C 0.8652(9) 0.9517(14) 1.0510(12)
O16 O 0.6185(17) 0.260(3) 0.880(2)
O17 O 0.6364(18) 0.326(3) 0.433(2)
loop_
_geom_bond_atom_site_label_1
_geom_bond_atom_site_label_2
_geom_bond_site_symmetry_1
_geom_bond_site_symmetry_2
Ag1 Ag2 1_555 1_555
Ag2 N7 1_555 1_555
N1 C16 1_555 1_555
N2 C29 1_555 1_555
N3 C68 1_555 1_555
N4 C80 1_555 1_555
N5 Ag1 1_555 1_555
C1 N5 1_555 1_555
H1 C1 1_555 1_555
C2 C1 1_555 1_555
H2 C2 1_555 1_555
C3 C2 1_555 1_555
C4 C3 1_555 1_555
H3 C4 1_555 1_555
C5 N5 1_555 1_555
H4 C5 1_555 1_555
C6 C11 1_555 1_555
C7 C3 1_555 1_555
C8 C7 1_555 1_555
H5 C8 1_555 1_555
C9 C8 1_555 1_555
C10 C9 1_555 1_555
C11 C10 1_555 1_555
C12 C7 1_555 1_555
H6 C12 1_555 1_555
C13 C6 1_555 1_555
H7 C13 1_555 1_555
H8 C13 1_555 1_555
H9 C13 1_555 1_555
C14 C6 1_555 1_555
H10 C14 1_555 1_555
H11 C14 1_555 1_555
H12 C14 1_555 1_555
C15 C6 1_555 1_555
H13 C15 1_555 1_555
H14 C15 1_555 1_555
H15 C15 1_555 1_555
C16 C9 1_555 1_555
H16 C16 1_555 1_555
C17 N1 1_555 1_555
C18 C17 1_555 1_555
C19 C18 1_555 1_555
C20 C19 1_555 1_555
C21 C20 1_555 1_555
C22 C17 1_555 1_555
H17 C22 1_555 1_555
C23 C21 1_555 1_555
H18 C23 1_555 1_555
H19 C23 1_555 1_555
H20 C23 1_555 1_555
C24 C20 1_555 1_555
H21 C24 1_555 1_555
H22 C24 1_555 1_555
H23 C24 1_555 1_555
C25 H24 1_555 1_555
H25 C25 1_555 1_555
C26 H26 1_555 1_555
H27 C26 1_555 1_555
H28 C26 1_555 1_555
C27 C19 1_555 1_555
C28 C27 1_555 1_555
C29 C28 1_555 1_555
C30 C29 1_555 1_555
H29 C30 1_555 1_555
C31 C30 1_555 1_555
C32 C27 1_555 1_555
C33 C32 1_555 1_555
H30 C33 1_555 1_555
H31 C33 1_555 1_555
H32 C33 1_555 1_555
C34 C31 1_555 1_555
H33 C34 1_555 1_555
H34 C34 1_555 1_555
H35 C34 1_555 1_555
C35 H36 1_555 1_555
H37 C35 1_555 1_555
C36 H38 1_555 1_555
H39 C36 1_555 1_555
H40 C36 1_555 1_555
C37 N2 1_555 1_555
H41 C37 1_555 1_555
C38 C37 1_555 1_555
C39 C38 1_555 1_555
C40 C39 1_555 1_555
C41 C40 1_555 1_555
H42 C41 1_555 1_555
C42 C41 1_555 1_555
C43 C38 1_555 1_555
H43 C43 1_555 1_555
C44 C40 1_555 1_555
C45 C44 1_555 1_555
H44 C45 1_555 1_555
H45 C45 1_555 1_555
H46 C45 1_555 1_555
C46 C44 1_555 1_555
H47 C46 1_555 1_555
H48 C46 1_555 1_555
H49 C46 1_555 1_555
C47 C44 1_555 1_555
H50 C47 1_555 1_555
H51 C47 1_555 1_555
H52 C47 1_555 1_555
C48 C42 1_555 1_555
C49 C48 1_555 1_555
H53 C49 1_555 1_555
C50 C49 1_555 1_555
H54 C50 1_555 1_555
N6 C50 1_555 1_555
C51 N6 1_555 1_555
H55 C51 1_555 1_555
C52 C48 1_555 1_555
H56 C52 1_555 1_555
C53 C59 1_555 1_555
N7 C54 1_555 1_555
C54 H57 1_555 1_555
C55 C54 1_555 1_555
H58 C55 1_555 1_555
C56 C55 1_555 1_555
C57 C56 1_555 1_555
H59 C57 1_555 1_555
C58 N7 1_555 1_555
H60 C58 1_555 1_555
C59 H61 1_555 1_555
H62 C59 1_555 1_555
H63 C59 1_555 1_555
C60 C56 1_555 1_555
C61 C60 1_555 1_555
H64 C61 1_555 1_555
C62 C61 1_555 1_555
C63 C62 1_555 1_555
C64 C53 1_555 1_555
C65 C60 1_555 1_555
H65 C65 1_555 1_555
C66 C53 1_555 1_555
H66 C66 1_555 1_555
H67 C66 1_555 1_555
H68 C66 1_555 1_555
C67 C53 1_555 1_555
H69 C67 1_555 1_555
H70 C67 1_555 1_555
H71 C67 1_555 1_555
C68 C62 1_555 1_555
H72 C68 1_555 1_555
C69 N3 1_555 1_555
C70 C69 1_555 1_555
C71 C70 1_555 1_555
C72 C71 1_555 1_555
C73 C72 1_555 1_555
C74 C69 1_555 1_555
H73 C74 1_555 1_555
C75 C73 1_555 1_555
H74 C75 1_555 1_555
H75 C75 1_555 1_555
H76 C75 1_555 1_555
C76 C72 1_555 1_555
H77 C76 1_555 1_555
H78 C76 1_555 1_555
H79 C76 1_555 1_555
C77 H80 1_555 1_555
H81 C77 1_555 1_555
C78 C71 1_555 1_555
C79 C78 1_555 1_555
C80 C79 1_555 1_555
C81 C80 1_555 1_555
H82 C81 1_555 1_555
C82 C81 1_555 1_555
C83 C78 1_555 1_555
C84 C83 1_555 1_555
H83 C84 1_555 1_555
H84 C84 1_555 1_555
H85 C84 1_555 1_555
C85 C82 1_555 1_555
H86 C85 1_555 1_555
H87 C85 1_555 1_555
H88 C85 1_555 1_555
C86 H89 1_555 1_555
H90 C86 1_555 1_555
C87 H91 1_555 1_555
H92 C87 1_555 1_555
H93 C87 1_555 1_555
C88 N4 1_555 1_555
H94 C88 1_555 1_555
C89 C88 1_555 1_555
C90 C89 1_555 1_555
C91 C90 1_555 1_555
C92 C91 1_555 1_555
H95 C92 1_555 1_555
C93 C92 1_555 1_555
C94 C89 1_555 1_555
H96 C94 1_555 1_555
C95 C91 1_555 1_555
C96 C95 1_555 1_555
H97 C96 1_555 1_555
H98 C96 1_555 1_555
H99 C96 1_555 1_555
C97 C95 1_555 1_555
H100 C97 1_555 1_555
H101 C97 1_555 1_555
H102 C97 1_555 1_555
C98 C95 1_555 1_555
H103 C98 1_555 1_555
H104 C98 1_555 1_555
H105 C98 1_555 1_555
C99 C93 1_555 1_555
C100 C99 1_555 1_555
H106 C100 1_555 1_555
C101 C100 1_555 1_555
H107 C101 1_555 1_555
N8 C101 1_555 1_555
C102 N8 1_555 1_555
H108 C102 1_555 1_555
C103 C99 1_555 1_555
H109 C103 1_555 1_555
O1 C10 1_555 1_555
O2 C18 1_555 1_555
O3 C25 1_555 1_555
O4 C28 1_555 1_555
O5 C35 1_555 1_555
O6 C39 1_555 1_555
O7 C63 1_555 1_555
O8 C70 1_555 1_555
O9 C77 1_555 1_555
C104 O9 1_555 1_555
H110 C104 1_555 1_555
H111 C104 1_555 1_555
H112 C104 1_555 1_555
O10 C79 1_555 1_555
O11 C86 1_555 1_555
O12 C90 1_555 1_555
O13 Ag1 1_555 1_555
C105 O13 1_555 1_555
C106 C105 1_555 1_555
C107 C106 1_555 1_555
C108 O13 1_555 1_555
B1 F1 1_555 1_555
F2 B1 1_555 1_555
F3 B1 1_555 1_555
F4 B1 1_555 1_555
B2 F5 1_555 1_555
F6 B2 1_555 1_555
F7 B2 1_555 1_555
F8 B2 1_555 1_555
O14 C109 1_555 1_555
C109 C110 1_555 1_555
C110 C111 1_555 1_555
C111 C112 1_555 1_555
C112 O14 1_555 1_555
O15 C113 1_555 1_555
C113 C114 1_555 1_555
C114 C115 1_555 1_555
C115 C116 1_555 1_555
C116 O15 1_555 1_555
Ag1A N8 1_555 1_555
Ag2C N6 1_555 1_555
N6C Ag2 1_555 1_555
N8A Ag1 1_555 1_555
C4 C5 1_555 1_555
C11 C12 1_555 1_555
C21 C22 1_555 1_555
C25 O2 1_555 1_555
C26 O3 1_555 1_555
C31 C32 1_555 1_555
C35 O4 1_555 1_555
C36 O5 1_555 1_555
C42 C43 1_555 1_555
C51 C52 1_555 1_555
C57 C58 1_555 1_555
C63 C64 1_555 1_555
C64 C65 1_555 1_555
C73 C74 1_555 1_555
C77 O8 1_555 1_555
C82 C83 1_555 1_555
C86 O10 1_555 1_555
C87 O11 1_555 1_555
C93 C94 1_555 1_555
C102 C103 1_555 1_555
C107 C108 1_555 1_555

#END
