
#######################################################################
#
#                 Cambridge Crystallographic Data Centre
#                                CCDC 
#
#######################################################################
#
# If this CIF has been generated from an entry in the Cambridge 
# Structural Database, then it will include bibliographic, chemical, 
# crystal, experimental, refinement or atomic coordinate data resulting 
# from the CCDC's data processing and validation procedures.
#
#######################################################################

data_WIWKEU
_symmetry_cell_setting           triclinic
_symmetry_space_group_name_H-M   'P -1'
_symmetry_Int_Tables_number      2
_space_group_name_Hall           '-P 1'
loop_
_symmetry_equiv_pos_site_id
_symmetry_equiv_pos_as_xyz
1 x,y,z
2 -x,-y,-z
_cell_length_a                   9.761(2)
_cell_length_b                   10.917(2)
_cell_length_c                   16.024(3)
_cell_angle_alpha                83.46(3)
_cell_angle_beta                 89.87(3)
_cell_angle_gamma                72.10(3)
_cell_volume                     1613.33
loop_
_atom_site_label
_atom_site_type_symbol
_atom_site_fract_x
_atom_site_fract_y
_atom_site_fract_z
Cu1 Cu 0.09939(10) 0.03661(10) 0.55796(5)
Cu2 Cu 0.91540(10) 0.45991(10) -0.05091(5)
I1 I 0.16150(5) -0.20053(5) 0.49468(3)
I2 I 0.83853(5) 0.70495(5) -0.02156(3)
N1 N 0.2542(6) 0.1076(6) 0.5122(3)
N2 N 0.4230(6) 0.1401(6) 0.4284(3)
N3 N 0.7519(6) 0.3925(6) -0.0058(3)
N4 N 0.5819(6) 0.3639(6) 0.0782(3)
N5 N 0.0844(7) -0.0244(7) 0.6798(3)
N6 N 0.0915(7) -0.0543(7) 0.8185(3)
N7 N 0.9306(7) 0.4431(7) -0.1757(3)
N8 N 0.9115(7) 0.4723(7) -0.3137(3)
C1 C 0.3186(8) 0.0843(8) 0.4397(4)
H1 H 0.2940 0.0349 0.4012
C2 C 0.3217(8) 0.1846(8) 0.5468(4)
H2 H 0.2991 0.2189 0.5981
C3 C 0.4259(8) 0.2034(8) 0.4952(5)
H3 H 0.4882 0.2515 0.5045
C4 C 0.6955(8) 0.4076(7) 0.0676(4)
H4 H 0.7311 0.4455 0.1090
C5 C 0.6692(8) 0.3318(7) -0.0455(4)
H5 H 0.6838 0.3059 -0.0997
C6 C 0.5656(8) 0.3160(8) 0.0052(4)
H6 H 0.4944 0.2786 -0.0072
C7 C 0.5148(8) 0.1333(8) 0.3547(4)
H7 H 0.5222 0.0537 0.3297
H8 H 0.6118 0.1302 0.3725
C8 C 0.4518(8) 0.2511(8) 0.2890(4)
H9 H 0.4378 0.3307 0.3153
H10 H 0.3575 0.2507 0.2685
C9 C 0.5519(8) 0.2505(8) 0.2142(4)
H11 H 0.6476 0.2472 0.2349
H12 H 0.5623 0.1731 0.1861
C10 C 0.4912(8) 0.3705(8) 0.1523(4)
H13 H 0.3928 0.3774 0.1347
H14 H 0.4878 0.4477 0.1791
C11 C 0.1218(8) 0.0121(8) 0.7479(4)
H15 H 0.1655 0.0777 0.7483
C12 C 0.0276(10) -0.1233(9) 0.7069(5)
H16 H -0.0073 -0.1711 0.6716
C13 C 0.0299(10) -0.1408(9) 0.7923(4)
H17 H -0.0040 -0.2004 0.8265
C14 C 0.1181(9) -0.0402(9) 0.9068(4)
H18 H 0.1776 -0.1241 0.9351
H19 H 0.1724 0.0215 0.9085
C15 C -0.0146(8) 0.0046(7) 0.9529(4)
H20 H -0.0772 -0.0476 0.9428
H21 H -0.0657 0.0949 0.9313
C16 C 0.9128(8) 0.5268(8) -0.2419(4)
H22 H 0.9020 0.6151 -0.2404
C17 C 0.9452(10) 0.3294(9) -0.2053(5)
H23 H 0.9628 0.2501 -0.1708
C18 C 0.9319(10) 0.3415(8) -0.2885(4)
H24 H 0.9354 0.2763 -0.3227
C19 C 0.8916(9) 0.5347(9) -0.4007(4)
H25 H 0.8830 0.6266 -0.4012
H26 H 0.8018 0.5293 -0.4249
C20 C 1.0142(8) 0.4728(8) -0.4541(4)
H27 H 1.0299 0.3791 -0.4486
H28 H 1.1022 0.4869 -0.4338
N5A N -0.0844(7) 0.0244(7) 1.3202(3)
N6A N -0.0915(7) 0.0543(7) 1.1815(3)
C11A C -0.1218(8) -0.0121(8) 1.2521(4)
H15A H -0.1655 -0.0777 1.2517
C12A C -0.0276(10) 0.1233(9) 1.2931(5)
H16A H 0.0073 0.1711 1.3284
C13A C -0.0299(10) 0.1408(9) 1.2077(4)
H17A H 0.0040 0.2004 1.1735
C14A C -0.1181(9) 0.0402(9) 1.0932(4)
H18A H -0.1776 0.1241 1.0649
H19A H -0.1724 -0.0215 1.0915
C15A C 0.0146(8) -0.0046(7) 1.0471(4)
H20A H 0.0772 0.0476 1.0572
H21A H 0.0657 -0.0949 1.0687
N7A N 1.0694(7) 0.5569(7) -0.8243(3)
N8A N 1.0885(7) 0.5277(7) -0.6863(3)
C16A C 1.0872(8) 0.4732(8) -0.7581(4)
H22A H 1.0980 0.3849 -0.7596
C17A C 1.0548(10) 0.6706(9) -0.7947(5)
H23A H 1.0372 0.7499 -0.8292
C18A C 1.0681(10) 0.6585(8) -0.7115(4)
H24A H 1.0646 0.7237 -0.6773
C19A C 1.1084(9) 0.4653(9) -0.5993(4)
H25A H 1.1170 0.3734 -0.5988
H26A H 1.1982 0.4707 -0.5751
C20A C 0.9858(8) 0.5272(8) -0.5459(4)
H27A H 0.9701 0.6209 -0.5514
H28A H 0.8978 0.5131 -0.5662
Cu1A Cu -0.09939(10) -0.03661(10) 0.44204(5)
Cu2A Cu -0.91540(10) -0.45991(10) 1.05091(5)
I1A I -0.16150(5) 0.20053(5) 0.50532(3)
I2A I -0.83853(5) -0.70495(5) 1.02156(3)
N1A N -0.2542(6) -0.1076(6) 0.4878(3)
N2A N -0.4230(6) -0.1401(6) 0.5716(3)
N3A N -0.7519(6) -0.3925(6) 1.0058(3)
N4A N -0.5819(6) -0.3639(6) 0.9218(3)
C1A C -0.3186(8) -0.0843(8) 0.5603(4)
H1A H -0.2940 -0.0349 0.5988
C2A C -0.3217(8) -0.1846(8) 0.4532(4)
H2A H -0.2991 -0.2189 0.4019
C3A C -0.4259(8) -0.2034(8) 0.5048(5)
H3A H -0.4882 -0.2515 0.4955
C4A C -0.6955(8) -0.4076(7) 0.9324(4)
H4A H -0.7311 -0.4455 0.8910
C5A C -0.6692(8) -0.3318(7) 1.0455(4)
H5A H -0.6838 -0.3059 1.0997
C6A C -0.5656(8) -0.3160(8) 0.9948(4)
H6A H -0.4944 -0.2786 1.0072
C7A C -0.5148(8) -0.1333(8) 0.6453(4)
H7A H -0.5222 -0.0537 0.6703
H8A H -0.6118 -0.1302 0.6275
C8A C -0.4518(8) -0.2511(8) 0.7110(4)
H9A H -0.4378 -0.3307 0.6847
H10A H -0.3575 -0.2507 0.7315
C9A C -0.5519(8) -0.2505(8) 0.7858(4)
H11A H -0.6476 -0.2472 0.7651
H12A H -0.5623 -0.1731 0.8139
C10A C -0.4912(8) -0.3705(8) 0.8477(4)
H13A H -0.3928 -0.3774 0.8653
H14A H -0.4878 -0.4477 0.8209
Cu1A_2 Cu -0.09939(10) -0.03661(10) 1.44204(5)
Cu2_2 Cu -1.08460(10) -0.54009(10) 0.94909(5)
Cu2A_2 Cu 1.08460(10) 0.54009(10) -0.94909(5)
Cu2A_3 Cu 1.08460(10) 0.54009(10) 0.05091(5)
I2_2 I -1.16147(5) -0.29505(5) 0.97844(3)
I2A_2 I 1.16147(5) 0.29505(5) 0.02156(3)
N5A_2 N -0.0844(7) 0.0244(7) 0.3202(3)
N7A_2 N -0.9306(7) -0.4431(7) 1.1757(3)
I3 I 0.6387(2) 0.5107(2) 0.33777(14)
C21 C 0.5286(16) 0.6971(13) 0.2650(8)
C22 C 0.3904(15) 0.7738(16) 0.2802(7)
H29 H 0.3373 0.7449 0.3229
C23 C 0.3306(12) 0.8931(15) 0.2324(9)
H30 H 0.2371 0.9450 0.2427
C24 C 0.4091(17) 0.9357(12) 0.1694(9)
H31 H 0.3687 1.0164 0.1370
C25 C 0.5473(16) 0.8590(16) 0.1542(7)
H32 H 0.6004 0.8878 0.1115
C26 C 0.6071(12) 0.7397(15) 0.2020(9)
H33 H 0.7006 0.6878 0.1917
I4? I 0.4045(2) 0.9660(2) 0.15408(13)
C27? C 0.4981(13) 0.7864(12) 0.2305(8)
C28? C 0.6363(12) 0.7146(14) 0.2112(7)
H34? H 0.6842 0.7470 0.1672
C29? C 0.7037(10) 0.5950(13) 0.2571(8)
H35? H 0.7971 0.5465 0.2441
C30? C 0.6328(13) 0.5472(12) 0.3221(8)
H36? H 0.6784 0.4664 0.3531
C31? C 0.4946(13) 0.6190(14) 0.3414(7)
H37? H 0.4467 0.5866 0.3854
C32? C 0.4273(9) 0.7385(14) 0.2955(8)
H38? H 0.3338 0.7871 0.3085
loop_
_geom_bond_atom_site_label_1
_geom_bond_atom_site_label_2
_geom_bond_site_symmetry_1
_geom_bond_site_symmetry_2
Cu1 I1 1_555 1_555
Cu2 I2 1_555 1_555
I1 Cu1A 1_555 1_555
I2 Cu2A_3 1_555 1_555
N1 Cu1 1_555 1_555
N2 C1 1_555 1_555
N3 Cu2 1_555 1_555
N4 C4 1_555 1_555
N5 Cu1 1_555 1_555
N6 C11 1_555 1_555
N7 Cu2 1_555 1_555
N8 C16 1_555 1_555
C1 N1 1_555 1_555
H1 C1 1_555 1_555
C2 N1 1_555 1_555
H2 C2 1_555 1_555
C3 N2 1_555 1_555
H3 C3 1_555 1_555
C4 N3 1_555 1_555
H4 C4 1_555 1_555
C5 N3 1_555 1_555
H5 C5 1_555 1_555
C6 N4 1_555 1_555
H6 C6 1_555 1_555
C7 N2 1_555 1_555
H7 C7 1_555 1_555
H8 C7 1_555 1_555
C8 C7 1_555 1_555
H9 C8 1_555 1_555
H10 C8 1_555 1_555
C9 C8 1_555 1_555
H11 C9 1_555 1_555
H12 C9 1_555 1_555
C10 N4 1_555 1_555
H13 C10 1_555 1_555
H14 C10 1_555 1_555
C11 N5 1_555 1_555
H15 C11 1_555 1_555
C12 N5 1_555 1_555
H16 C12 1_555 1_555
C13 N6 1_555 1_555
H17 C13 1_555 1_555
C14 N6 1_555 1_555
H18 C14 1_555 1_555
H19 C14 1_555 1_555
C15 C14 1_555 1_555
H20 C15 1_555 1_555
H21 C15 1_555 1_555
C16 N7 1_555 1_555
H22 C16 1_555 1_555
C17 N7 1_555 1_555
H23 C17 1_555 1_555
C18 N8 1_555 1_555
H24 C18 1_555 1_555
C19 N8 1_555 1_555
H25 C19 1_555 1_555
H26 C19 1_555 1_555
C20 C19 1_555 1_555
H27 C20 1_555 1_555
H28 C20 1_555 1_555
I3 C21 1_555 1_555
C21 C22 1_555 1_555
C22 H29 1_555 1_555
C23 C22 1_555 1_555
H30 C23 1_555 1_555
C24 C23 1_555 1_555
H31 C24 1_555 1_555
C25 C24 1_555 1_555
H32 C25 1_555 1_555
C26 C21 1_555 1_555
H33 C26 1_555 1_555
N5A C11A 1_555 1_555
N6A C11A 1_555 1_555
C11A H15A 1_555 1_555
C12A N5A 1_555 1_555
H16A C12A 1_555 1_555
C13A N6A 1_555 1_555
H17A C13A 1_555 1_555
C14A N6A 1_555 1_555
H18A C14A 1_555 1_555
H19A C14A 1_555 1_555
C15A C15 1_555 1_555
H20A C15A 1_555 1_555
H21A C15A 1_555 1_555
N7A C16A 1_555 1_555
N8A C16A 1_555 1_555
C16A H22A 1_555 1_555
C17A N7A 1_555 1_555
H23A C17A 1_555 1_555
C18A N8A 1_555 1_555
H24A C18A 1_555 1_555
C19A N8A 1_555 1_555
H25A C19A 1_555 1_555
H26A C19A 1_555 1_555
C20A C20 1_555 1_555
H27A C20A 1_555 1_555
H28A C20A 1_555 1_555
Cu1A I1A 1_555 1_555
Cu2A I2A 1_555 1_555
I1A Cu1 1_555 1_555
I2A Cu2_2 1_555 1_555
N1A Cu1A 1_555 1_555
N2A C1A 1_555 1_555
N3A Cu2A 1_555 1_555
N4A C4A 1_555 1_555
C1A N1A 1_555 1_555
H1A C1A 1_555 1_555
C2A N1A 1_555 1_555
H2A C2A 1_555 1_555
C3A N2A 1_555 1_555
H3A C3A 1_555 1_555
C4A N3A 1_555 1_555
H4A C4A 1_555 1_555
C5A N3A 1_555 1_555
H5A C5A 1_555 1_555
C6A N4A 1_555 1_555
H6A C6A 1_555 1_555
C7A N2A 1_555 1_555
H7A C7A 1_555 1_555
H8A C7A 1_555 1_555
C8A C7A 1_555 1_555
H9A C8A 1_555 1_555
H10A C8A 1_555 1_555
C9A C8A 1_555 1_555
H11A C9A 1_555 1_555
H12A C9A 1_555 1_555
C10A N4A 1_555 1_555
H13A C10A 1_555 1_555
H14A C10A 1_555 1_555
Cu1A_2 N5A 1_555 1_555
Cu2_2 I2_2 1_555 1_555
Cu2A_2 N7A 1_555 1_555
Cu2A_3 I2A_2 1_555 1_555
I2_2 Cu2A 1_555 1_555
I2A_2 Cu2 1_555 1_555
N5A_2 Cu1A 1_555 1_555
N7A_2 Cu2A 1_555 1_555
C2 C3 1_555 1_555
C5 C6 1_555 1_555
C9 C10 1_555 1_555
C12 C13 1_555 1_555
C17 C18 1_555 1_555
C25 C26 1_555 1_555
C12A C13A 1_555 1_555
C14A C15A 1_555 1_555
C17A C18A 1_555 1_555
C19A C20A 1_555 1_555
C2A C3A 1_555 1_555
C5A C6A 1_555 1_555
C9A C10A 1_555 1_555

#END
