
#######################################################################
#
#                 Cambridge Crystallographic Data Centre
#                                CCDC 
#
#######################################################################
#
# If this CIF has been generated from an entry in the Cambridge 
# Structural Database, then it will include bibliographic, chemical, 
# crystal, experimental, refinement or atomic coordinate data resulting 
# from the CCDC's data processing and validation procedures.
#
#######################################################################

data_WIWLAR
_symmetry_cell_setting           orthorhombic
_symmetry_space_group_name_H-M   'P b c a'
_symmetry_Int_Tables_number      61
_space_group_name_Hall           '-P 2ac 2ab'
loop_
_symmetry_equiv_pos_site_id
_symmetry_equiv_pos_as_xyz
1 x,y,z
2 1/2-x,-y,1/2+z
3 -x,1/2+y,1/2-z
4 1/2+x,1/2-y,-z
5 -x,-y,-z
6 1/2+x,y,1/2-z
7 x,1/2-y,1/2+z
8 1/2-x,1/2+y,z
_cell_length_a                   20.065(3)
_cell_length_b                   10.7948(14)
_cell_length_c                   23.581(3)
_cell_angle_alpha                90
_cell_angle_beta                 90
_cell_angle_gamma                90
_cell_volume                     5107.59
loop_
_atom_site_label
_atom_site_type_symbol
_atom_site_fract_x
_atom_site_fract_y
_atom_site_fract_z
Sn1 Sn 0.210136(10) 0.210374(19) 0.203117(9)
O1 O 0.15082(10) 0.03973(19) 0.19729(9)
O2 O 0.22896(10) -0.1056(2) 0.20200(9)
O3 O -0.06491(18) -0.5922(3) 0.06170(15)
O4 O 0.04060(19) -0.5553(3) 0.06233(15)
N1 N -0.0168(2) -0.5240(3) 0.06935(15)
C1 C 0.17038(16) -0.0717(3) 0.19033(13)
C2 C 0.12109(16) -0.1600(3) 0.16862(14)
H1 H 0.1330 -0.2431 0.1661
C3 C 0.06080(17) -0.1275(3) 0.15248(14)
H2 H 0.0503 -0.0439 0.1561
C4 C 0.00839(17) -0.2072(3) 0.12953(15)
C5 C 0.02114(18) -0.3271(3) 0.10930(15)
H3 H 0.0643 -0.3586 0.1092
C6 C -0.0309(2) -0.3972(4) 0.08966(15)
C7 C -0.0955(2) -0.3552(5) 0.08842(19)
H4 H -0.1298 -0.4050 0.0749
C8 C -0.1079(2) -0.2383(5) 0.1076(2)
H5 H -0.1513 -0.2077 0.1072
C9 C -0.05664(18) -0.1649(4) 0.12778(17)
H6 H -0.0661 -0.0852 0.1404
C10 C 0.25497(16) 0.1606(3) 0.28228(13)
C11 C 0.22597(18) 0.0661(3) 0.31354(15)
H7 H 0.1880 0.0271 0.2996
C12 C 0.2522(2) 0.0285(4) 0.36497(16)
H8 H 0.2325 -0.0365 0.3847
C13 C 0.3071(2) 0.0864(4) 0.38679(17)
H9 H 0.3247 0.0614 0.4214
C14 C 0.3358(2) 0.1814(4) 0.35739(17)
H10 H 0.3729 0.2216 0.3723
C15 C 0.31017(19) 0.2180(3) 0.30568(15)
H11 H 0.3304 0.2827 0.2862
C16 C 0.12145(16) 0.3183(3) 0.21007(13)
C17 C 0.12231(17) 0.4370(3) 0.23197(15)
H12 H 0.1626 0.4707 0.2440
C18 C 0.06488(19) 0.5066(3) 0.23644(16)
H13 H 0.0670 0.5866 0.2509
C19 C 0.00527(19) 0.4594(4) 0.21989(17)
H14 H -0.0333 0.5067 0.2227
C20 C 0.00259(19) 0.3406(4) 0.19887(19)
H15 H -0.0382 0.3067 0.1884
C21 C 0.06058(19) 0.2708(3) 0.19323(18)
H16 H 0.0584 0.1915 0.1780
C22 C 0.24227(17) 0.1828(3) 0.11814(14)
C23 C 0.2166(2) 0.2593(4) 0.07759(19)
H17 H 0.1842 0.3170 0.0877
C24 C 0.2377(3) 0.2528(5) 0.0217(2)
H18 H 0.2200 0.3069 -0.0050
C25 C 0.2840(2) 0.1681(5) 0.00580(18)
H19 H 0.2982 0.1638 -0.0317
C26 C 0.3091(2) 0.0903(4) 0.04489(18)
H20 H 0.3409 0.0319 0.0344
C27 C 0.28808(18) 0.0965(4) 0.10038(15)
H21 H 0.3054 0.0407 0.1266
Sn1G Sn 0.289864(10) -0.289626(19) 0.203117(9)
O2G O 0.27104(10) 0.3944(2) 0.20200(9)
C28 C 0.0656(4) 0.0081(13) 0.0182(3)
H22 H 0.1097 0.0135 0.0300
C29 C 0.0417(7) -0.0975(9) -0.0071(4)
H23 H 0.0700 -0.1649 -0.0117
C30 C -0.0223(7) -0.1056(8) -0.0256(3)
H24 H -0.0369 -0.1776 -0.0433
C28D C -0.0656(4) -0.0081(13) -0.0182(3)
H22D H -0.1097 -0.0135 -0.0300
C29D C -0.0417(7) 0.0975(9) 0.0071(4)
H23D H -0.0700 0.1649 0.0117
C30D C 0.0223(7) 0.1056(8) 0.0256(3)
H24D H 0.0369 0.1776 0.0433
loop_
_geom_bond_atom_site_label_1
_geom_bond_atom_site_label_2
_geom_bond_site_symmetry_1
_geom_bond_site_symmetry_2
Sn1 O1 1_555 1_555
O1 C1 1_555 1_555
O2 C1 1_555 1_555
O3 N1 1_555 1_555
O4 N1 1_555 1_555
N1 C6 1_555 1_555
C1 C2 1_555 1_555
C2 H1 1_555 1_555
C3 C2 1_555 1_555
H2 C3 1_555 1_555
C4 C3 1_555 1_555
C5 C4 1_555 1_555
H3 C5 1_555 1_555
C6 C5 1_555 1_555
C7 C6 1_555 1_555
H4 C7 1_555 1_555
C8 C7 1_555 1_555
H5 C8 1_555 1_555
C9 C4 1_555 1_555
H6 C9 1_555 1_555
C10 Sn1 1_555 1_555
C11 C10 1_555 1_555
H7 C11 1_555 1_555
C12 C11 1_555 1_555
H8 C12 1_555 1_555
C13 C12 1_555 1_555
H9 C13 1_555 1_555
C14 C13 1_555 1_555
H10 C14 1_555 1_555
C15 C10 1_555 1_555
H11 C15 1_555 1_555
C16 Sn1 1_555 1_555
C17 C16 1_555 1_555
H12 C17 1_555 1_555
C18 C17 1_555 1_555
H13 C18 1_555 1_555
C19 C18 1_555 1_555
H14 C19 1_555 1_555
C20 C19 1_555 1_555
H15 C20 1_555 1_555
C21 C16 1_555 1_555
H16 C21 1_555 1_555
C22 Sn1 1_555 1_555
C23 C22 1_555 1_555
H17 C23 1_555 1_555
C24 C23 1_555 1_555
H18 C24 1_555 1_555
C25 C24 1_555 1_555
H19 C25 1_555 1_555
C26 C25 1_555 1_555
H20 C26 1_555 1_555
C27 C22 1_555 1_555
H21 C27 1_555 1_555
C28 H22 1_555 1_555
C29 C28 1_555 1_555
H23 C29 1_555 1_555
C30 C29 1_555 1_555
H24 C30 1_555 1_555
Sn1G O2 1_555 1_555
O2G Sn1 1_555 1_555
C28D C30 1_555 1_555
H22D C28D 1_555 1_555
C29D C28D 1_555 1_555
H23D C29D 1_555 1_555
C30D C28 1_555 1_555
H24D C30D 1_555 1_555
C8 C9 1_555 1_555
C14 C15 1_555 1_555
C20 C21 1_555 1_555
C26 C27 1_555 1_555
C29D C30D 1_555 1_555

#END
