
#######################################################################
#
#                 Cambridge Crystallographic Data Centre
#                                CCDC 
#
#######################################################################
#
# If this CIF has been generated from an entry in the Cambridge 
# Structural Database, then it will include bibliographic, chemical, 
# crystal, experimental, refinement or atomic coordinate data resulting 
# from the CCDC's data processing and validation procedures.
#
#######################################################################

data_WIWLUL
_symmetry_cell_setting           orthorhombic
_symmetry_space_group_name_H-M   'P 21 21 21'
_symmetry_Int_Tables_number      19
_space_group_name_Hall           'P 2ac 2ab'
loop_
_symmetry_equiv_pos_site_id
_symmetry_equiv_pos_as_xyz
1 x,y,z
2 1/2-x,-y,1/2+z
3 1/2+x,1/2-y,-z
4 -x,1/2+y,1/2-z
_cell_length_a                   9.1225(3)
_cell_length_b                   13.3445(5)
_cell_length_c                   21.8308(8)
_cell_angle_alpha                90
_cell_angle_beta                 90
_cell_angle_gamma                90
_cell_volume                     2657.58
loop_
_atom_site_label
_atom_site_type_symbol
_atom_site_fract_x
_atom_site_fract_y
_atom_site_fract_z
Cu1 Cu 0.22249(3) 0.55280(2) 0.535579(12)
O1 O 0.43416(16) 0.56587(15) 0.52514(7)
O2 O 0.19417(17) 0.72038(13) 0.55018(7)
H1 H 0.1097 0.7180 0.5247
H2 H 0.2685 0.7547 0.5257
O3 O 0.45967(19) 0.40423(15) 0.49721(8)
O4 O 0.74006(15) 0.43972(12) 0.45787(7)
O5 O 0.60973(19) 0.48286(15) 0.37410(8)
O6 O 1.01145(15) 0.52810(12) 0.54705(7)
O7 O 0.91234(18) 0.66735(14) 0.50658(8)
O8 O 0.75538(15) 0.45741(13) 0.58565(7)
O9 O 0.7773(2) 0.55886(15) 0.66734(7)
N1 N 0.20296(18) 0.55523(16) 0.44431(8)
N2 N 0.24703(18) 0.48401(15) 0.12368(9)
C1 C 0.1298(3) 0.4815(2) 0.41573(12)
H3 H 0.0756 0.4366 0.4392
C2 C 0.1317(3) 0.4696(2) 0.35337(11)
H4 H 0.0801 0.4171 0.3355
C3 C 0.2105(3) 0.53580(18) 0.31658(10)
C4 C 0.2838(3) 0.61306(18) 0.34662(10)
H5 H 0.3365 0.6600 0.3241
C5 C 0.2785(3) 0.62027(19) 0.40928(10)
H6 H 0.3292 0.6721 0.4283
C6 C 0.2201(3) 0.52117(17) 0.24965(10)
C7 C 0.1217(2) 0.4591(2) 0.21853(11)
H7 H 0.0445 0.4293 0.2396
C8 C 0.1391(2) 0.4421(2) 0.15640(10)
H8 H 0.0732 0.3999 0.1366
C9 C 0.3370(2) 0.5475(2) 0.15248(10)
H9 H 0.4089 0.5800 0.1297
C10 C 0.3281(2) 0.5670(2) 0.21436(11)
H10 H 0.3943 0.6109 0.2326
C11 C 0.5054(3) 0.4890(2) 0.50515(11)
C12 C 0.6651(2) 0.51870(19) 0.48975(11)
H11 H 0.6627 0.5778 0.4631
C13 C 0.7001(2) 0.43005(19) 0.39841(11)
C14 C 0.7857(3) 0.35046(18) 0.36657(11)
C15 C 0.8822(3) 0.2880(2) 0.39777(12)
H12 H 0.8892 0.2911 0.4402
C16 C 0.9683(3) 0.2205(2) 0.36484(13)
H13 H 1.0316 0.1774 0.3853
C17 C 0.9591(3) 0.2180(2) 0.30193(13)
H14 H 1.0194 0.1747 0.2800
C18 C 0.8617(3) 0.2787(2) 0.27080(12)
H15 H 0.8555 0.2756 0.2283
C19 C 0.7735(3) 0.34440(18) 0.30322(11)
H16 H 0.7061 0.3844 0.2826
C20 C 0.9058(2) 0.58348(19) 0.53197(11)
C21 C 0.7505(2) 0.54500(19) 0.54682(9)
H17 H 0.6976 0.5980 0.5686
C22 C 0.7786(3) 0.47650(19) 0.64578(10)
C23 C 0.8091(2) 0.3829(2) 0.68118(11)
C24 C 0.8023(3) 0.3873(2) 0.74462(11)
H18 H 0.7726 0.4463 0.7637
C25 C 0.8393(3) 0.3048(2) 0.77988(13)
H19 H 0.8327 0.3077 0.8224
C26 C 0.8858(3) 0.2184(2) 0.75138(14)
H20 H 0.9120 0.1632 0.7749
C27 C 0.8941(3) 0.2125(2) 0.68796(13)
H21 H 0.9264 0.1540 0.6693
C28 C 0.8539(3) 0.2944(2) 0.65269(13)
H22 H 0.8567 0.2904 0.6102
Cu1_2 Cu 1.22249(3) 0.55280(2) 0.535579(12)
Cu1A Cu 0.27751(3) 0.44720(2) 0.035579(12)
O6_2 O 0.01145(15) 0.52810(12) 0.54705(7)
N2A N 0.25297(18) 0.51599(15) 0.62368(9)
O10 O 0.6121(4) 0.2078(2) 0.48581(13)
H23 H 0.6717 0.1592 0.4822
H24 H 0.6530 0.2606 0.4723
loop_
_geom_bond_atom_site_label_1
_geom_bond_atom_site_label_2
_geom_bond_site_symmetry_1
_geom_bond_site_symmetry_2
Cu1 O1 1_555 1_555
O1 C11 1_555 1_555
O2 Cu1 1_555 1_555
H1 O2 1_555 1_555
H2 O2 1_555 1_555
O3 C11 1_555 1_555
O4 C12 1_555 1_555
O5 C13 1_555 1_555
O6 C20 1_555 1_555
O7 C20 1_555 1_555
O8 C21 1_555 1_555
O9 C22 1_555 1_555
N1 Cu1 1_555 1_555
N2 C8 1_555 1_555
C1 N1 1_555 1_555
H3 C1 1_555 1_555
C2 C1 1_555 1_555
H4 C2 1_555 1_555
C3 C2 1_555 1_555
C4 C3 1_555 1_555
H5 C4 1_555 1_555
C5 N1 1_555 1_555
H6 C5 1_555 1_555
C6 C3 1_555 1_555
C7 C6 1_555 1_555
H7 C7 1_555 1_555
C8 C7 1_555 1_555
H8 C8 1_555 1_555
C9 N2 1_555 1_555
H9 C9 1_555 1_555
C10 C6 1_555 1_555
H10 C10 1_555 1_555
C11 C12 1_555 1_555
C12 H11 1_555 1_555
C13 O4 1_555 1_555
C14 C13 1_555 1_555
C15 C14 1_555 1_555
H12 C15 1_555 1_555
C16 C15 1_555 1_555
H13 C16 1_555 1_555
C17 C16 1_555 1_555
H14 C17 1_555 1_555
C18 C17 1_555 1_555
H15 C18 1_555 1_555
C19 C14 1_555 1_555
H16 C19 1_555 1_555
C20 C21 1_555 1_555
C21 C12 1_555 1_555
H17 C21 1_555 1_555
C22 O8 1_555 1_555
C23 C22 1_555 1_555
C24 C23 1_555 1_555
H18 C24 1_555 1_555
C25 C24 1_555 1_555
H19 C25 1_555 1_555
C26 C25 1_555 1_555
H20 C26 1_555 1_555
C27 C26 1_555 1_555
H21 C27 1_555 1_555
C28 C23 1_555 1_555
H22 C28 1_555 1_555
O10 H23 1_555 1_555
H24 O10 1_555 1_555
Cu1_2 O6 1_555 1_555
Cu1A N2 1_555 1_555
O6_2 Cu1 1_555 1_555
N2A Cu1 1_555 1_555
C4 C5 1_555 1_555
C9 C10 1_555 1_555
C18 C19 1_555 1_555
C27 C28 1_555 1_555

#END
