
#######################################################################
#
#                 Cambridge Crystallographic Data Centre
#                                CCDC 
#
#######################################################################
#
# If this CIF has been generated from an entry in the Cambridge 
# Structural Database, then it will include bibliographic, chemical, 
# crystal, experimental, refinement or atomic coordinate data resulting 
# from the CCDC's data processing and validation procedures.
#
#######################################################################

data_WIWLOF
_symmetry_cell_setting           orthorhombic
_symmetry_space_group_name_H-M   'P 21 21 21'
_symmetry_Int_Tables_number      19
_space_group_name_Hall           'P 2ac 2ab'
loop_
_symmetry_equiv_pos_site_id
_symmetry_equiv_pos_as_xyz
1 x,y,z
2 1/2-x,-y,1/2+z
3 1/2+x,1/2-y,-z
4 -x,1/2+y,1/2-z
_cell_length_a                   9.0841(8)
_cell_length_b                   13.5054(13)
_cell_length_c                   21.825(2)
_cell_angle_alpha                90
_cell_angle_beta                 90
_cell_angle_gamma                90
_cell_volume                     2677.59
loop_
_atom_site_label
_atom_site_type_symbol
_atom_site_fract_x
_atom_site_fract_y
_atom_site_fract_z
Cu1 Cu 0.21627(4) 0.44207(3) 0.538974(16)
O1 O 0.4278(2) 0.42771(18) 0.52777(9)
O2 O 0.1870(2) 0.27708(15) 0.55157(10)
H1 H 0.2487 0.2418 0.5321
H2 H 0.1117 0.2743 0.5285
O3 O 0.4451(3) 0.58639(18) 0.49787(12)
O4 O 0.7463(2) 0.53854(15) 0.58723(9)
O5 O 0.7617(3) 0.43893(19) 0.66939(10)
O6 O 1.0045(2) 0.46892(15) 0.55024(9)
O7 O 0.9061(2) 0.33229(17) 0.50790(11)
O8 O 0.7313(2) 0.55787(16) 0.46061(10)
O9 O 0.6012(3) 0.51712(19) 0.37593(11)
N1 N 0.1940(3) 0.4436(2) 0.44722(10)
N2 N 0.2514(3) 0.52360(18) 0.12795(11)
C1 C 0.2684(4) 0.3799(2) 0.41177(13)
H3 H 0.3176 0.3275 0.4303
C2 C 0.2749(4) 0.3891(2) 0.34915(13)
H4 H 0.3257 0.3424 0.3260
C3 C 0.2053(4) 0.4684(2) 0.32025(13)
C4 C 0.1281(4) 0.5338(2) 0.35742(15)
H5 H 0.0791 0.5874 0.3402
C5 C 0.1244(4) 0.5192(3) 0.41959(16)
H6 H 0.0714 0.5634 0.4436
C6 C 0.2178(4) 0.4849(2) 0.25314(13)
C7 C 0.3323(3) 0.4437(3) 0.21974(14)
H7 H 0.4002 0.4024 0.2389
C8 C 0.3452(4) 0.4642(2) 0.15749(14)
H8 H 0.4220 0.4355 0.1356
C9 C 0.1384(3) 0.5615(3) 0.15970(14)
H9 H 0.0708 0.6013 0.1393
C10 C 0.1183(3) 0.5439(3) 0.22132(14)
H10 H 0.0382 0.5714 0.2416
C11 C 0.4955(3) 0.5040(3) 0.50650(14)
C12 C 0.6559(3) 0.4786(2) 0.49124(14)
H11 H 0.6559 0.4209 0.4640
C13 C 0.7426(3) 0.4518(2) 0.54859(12)
H12 H 0.6895 0.3994 0.5703
C14 C 0.8983(3) 0.4143(2) 0.53404(14)
C15 C 0.7665(4) 0.5206(2) 0.64754(14)
C16 C 0.7992(4) 0.6133(2) 0.68290(15)
C17 C 0.8455(4) 0.7003(3) 0.65373(17)
H13 H 0.8483 0.7038 0.6112
C18 C 0.8870(4) 0.7806(3) 0.68875(19)
H14 H 0.9196 0.8382 0.6697
C19 C 0.8804(4) 0.7761(3) 0.7516(2)
H15 H 0.9091 0.8306 0.7747
C20 C 0.8313(4) 0.6910(3) 0.78098(17)
H16 H 0.8250 0.6889 0.8235
C21 C 0.7921(4) 0.6097(3) 0.74646(15)
H17 H 0.7607 0.5521 0.7658
C22 C 0.6911(4) 0.5697(3) 0.40124(14)
C23 C 0.7742(4) 0.6504(2) 0.37124(14)
C24 C 0.7670(4) 0.6575(2) 0.30762(15)
H18 H 0.7025 0.6171 0.2859
C25 C 0.8547(4) 0.7240(3) 0.27674(18)
H19 H 0.8515 0.7270 0.2342
C26 C 0.9471(4) 0.7862(3) 0.30881(18)
H20 H 1.0066 0.8306 0.2876
C27 C 0.9525(4) 0.7833(3) 0.37219(18)
H21 H 1.0131 0.8265 0.3937
C28 C 0.8654(4) 0.7143(3) 0.40350(17)
H22 H 0.8686 0.7113 0.4461
Cu1_2 Cu 1.21627(4) 0.44207(3) 0.538974(16)
Cu1A Cu 0.28373(4) 0.55793(3) 0.038974(16)
O6_2 O 0.0045(2) 0.46892(15) 0.55024(9)
N2A N 0.2486(3) 0.47640(18) 0.62795(11)
O10 O 0.5950(19) 0.7886(9) 0.4818(6)
H23 H 0.6708 0.8071 0.5016
H24 H 0.5490 0.8354 0.4994
loop_
_geom_bond_atom_site_label_1
_geom_bond_atom_site_label_2
_geom_bond_site_symmetry_1
_geom_bond_site_symmetry_2
Cu1 O1 1_555 1_555
O1 C11 1_555 1_555
O2 Cu1 1_555 1_555
H1 O2 1_555 1_555
H2 O2 1_555 1_555
O3 C11 1_555 1_555
O4 C13 1_555 1_555
O5 C15 1_555 1_555
O6 C14 1_555 1_555
O7 C14 1_555 1_555
O8 C12 1_555 1_555
O9 C22 1_555 1_555
N1 Cu1 1_555 1_555
N2 C8 1_555 1_555
C1 N1 1_555 1_555
H3 C1 1_555 1_555
C2 C1 1_555 1_555
H4 C2 1_555 1_555
C3 C2 1_555 1_555
C4 C3 1_555 1_555
H5 C4 1_555 1_555
C5 N1 1_555 1_555
H6 C5 1_555 1_555
C6 C3 1_555 1_555
C7 C6 1_555 1_555
H7 C7 1_555 1_555
C8 C7 1_555 1_555
H8 C8 1_555 1_555
C9 N2 1_555 1_555
H9 C9 1_555 1_555
C10 C6 1_555 1_555
H10 C10 1_555 1_555
C11 C12 1_555 1_555
C12 H11 1_555 1_555
C13 C12 1_555 1_555
H12 C13 1_555 1_555
C14 C13 1_555 1_555
C15 O4 1_555 1_555
C16 C15 1_555 1_555
C17 C16 1_555 1_555
H13 C17 1_555 1_555
C18 C17 1_555 1_555
H14 C18 1_555 1_555
C19 C18 1_555 1_555
H15 C19 1_555 1_555
C20 C19 1_555 1_555
H16 C20 1_555 1_555
C21 C16 1_555 1_555
H17 C21 1_555 1_555
C22 O8 1_555 1_555
C23 C22 1_555 1_555
C24 C23 1_555 1_555
H18 C24 1_555 1_555
C25 C24 1_555 1_555
H19 C25 1_555 1_555
C26 C25 1_555 1_555
H20 C26 1_555 1_555
C27 C26 1_555 1_555
H21 C27 1_555 1_555
C28 C23 1_555 1_555
H22 C28 1_555 1_555
O10 H23 1_555 1_555
H24 O10 1_555 1_555
Cu1_2 O6 1_555 1_555
Cu1A N2 1_555 1_555
O6_2 Cu1 1_555 1_555
N2A Cu1 1_555 1_555
C4 C5 1_555 1_555
C9 C10 1_555 1_555
C20 C21 1_555 1_555
C27 C28 1_555 1_555

#END
