
#######################################################################
#
#                 Cambridge Crystallographic Data Centre
#                                CCDC 
#
#######################################################################
#
# If this CIF has been generated from an entry in the Cambridge 
# Structural Database, then it will include bibliographic, chemical, 
# crystal, experimental, refinement or atomic coordinate data resulting 
# from the CCDC's data processing and validation procedures.
#
#######################################################################

data_WIWLEV
_symmetry_cell_setting           monoclinic
_symmetry_space_group_name_H-M   'P 21/n'
_symmetry_Int_Tables_number      14
_space_group_name_Hall           '-P 2yn'
loop_
_symmetry_equiv_pos_site_id
_symmetry_equiv_pos_as_xyz
1 x,y,z
2 1/2-x,1/2+y,1/2-z
3 -x,-y,-z
4 1/2+x,1/2-y,1/2+z
_cell_length_a                   14.3553(19)
_cell_length_b                   18.266(3)
_cell_length_c                   25.020(3)
_cell_angle_alpha                90
_cell_angle_beta                 82.751(2)
_cell_angle_gamma                90
_cell_volume                     6508.15
loop_
_atom_site_label
_atom_site_type_symbol
_atom_site_fract_x
_atom_site_fract_y
_atom_site_fract_z
Sn1 Sn 1.70554(2) 0.740388(17) 0.336005(13)
Sn2 Sn 1.05767(2) 0.867651(17) 0.353736(12)
Sn3 Sn 1.42930(2) 0.761662(18) 0.314312(13)
O1 O 0.93683(19) 0.83646(16) 0.41491(11)
O2 O 0.84626(19) 0.78475(16) 0.35954(12)
O3 O 1.56825(18) 0.70789(16) 0.31428(12)
O4 O 1.28528(19) 0.81791(17) 0.31395(12)
O5 O 1.17865(19) 0.89713(16) 0.29157(12)
O6 O 0.5381(3) 0.5667(3) 0.6160(2)
O7 O 0.5617(4) 0.5818(3) 0.5318(2)
O8 O 1.5543(4) 0.8497(4) -0.0059(2)
O9 O 1.5569(5) 0.8038(5) 0.0707(3)
N1 N 0.5712(3) 0.6007(3) 0.5766(2)
N2 N 1.5236(5) 0.8428(5) 0.0402(3)
C1 C 0.8692(3) 0.7953(2) 0.40572(19)
C2 C 0.8143(3) 0.7587(3) 0.45259(18)
H1 H 0.7832 0.7156 0.4461
C3 C 0.8066(3) 0.7822(3) 0.50176(19)
H2 H 0.8434 0.8220 0.5089
C4 C 0.7441(3) 0.7507(3) 0.54735(19)
C5 C 0.6865(3) 0.6909(3) 0.5406(2)
H3 H 0.6873 0.6688 0.5071
C6 C 0.6290(4) 0.6653(3) 0.5842(2)
C7 C 0.6241(4) 0.6947(4) 0.6346(2)
H4 H 0.5837 0.6756 0.6631
C8 C 0.6809(5) 0.7536(4) 0.6418(2)
H5 H 0.6795 0.7747 0.6757
C9 C 0.7403(4) 0.7814(3) 0.5985(2)
H6 H 0.7783 0.8214 0.6038
C10 C 1.1213(3) 0.9122(3) 0.4190(2)
C11 C 1.0829(6) 0.9030(6) 0.4702(3)
H7 H 1.0297 0.8739 0.4779
C12 C 1.1219(7) 0.9365(9) 0.5117(3)
H8 H 1.0935 0.9299 0.5469
C13 C 1.1999(6) 0.9785(6) 0.5030(3)
H9 H 1.2237 1.0020 0.5314
C14 C 1.2412(4) 0.9850(4) 0.4532(3)
H10 H 1.2963 1.0120 0.4460
C15 C 1.2023(3) 0.9516(3) 0.4116(2)
H11 H 1.2332 0.9563 0.3768
C16 C 1.0696(3) 0.7566(2) 0.32955(19)
C17 C 1.0971(4) 0.7034(3) 0.3641(2)
H12 H 1.1124 0.7165 0.3979
C18 C 1.1017(5) 0.6307(4) 0.3480(4)
H13 H 1.1199 0.5954 0.3714
C19 C 1.0805(5) 0.6100(4) 0.2992(4)
H14 H 1.0841 0.5609 0.2892
C20 C 1.0539(4) 0.6611(4) 0.2649(3)
H15 H 1.0397 0.6471 0.2311
C21 C 1.0479(4) 0.7341(3) 0.2799(2)
H16 H 1.0288 0.7685 0.2562
C22 C 0.9737(3) 0.9409(2) 0.31272(18)
C23 C 0.8913(3) 0.9698(2) 0.3400(2)
H17 H 0.8746 0.9593 0.3764
C24 C 0.8339(3) 1.0143(3) 0.3130(2)
H18 H 0.7792 1.0339 0.3314
C25 C 0.8575(4) 1.0295(3) 0.2591(2)
H19 H 0.8178 1.0579 0.2410
C26 C 0.9394(4) 1.0029(3) 0.2322(2)
H20 H 0.9563 1.0142 0.1961
C27 C 0.9973(3) 0.9587(2) 0.25924(19)
H21 H 1.0530 0.9410 0.2408
C28 C 1.2540(3) 0.8608(3) 0.28068(18)
C29 C 1.3056(3) 0.8705(3) 0.22612(18)
H22 H 1.3587 0.8417 0.2170
C30 C 1.2829(3) 0.9159(3) 0.18983(18)
H23 H 1.2328 0.9471 0.2006
C31 C 1.3270(3) 0.9235(3) 0.1338(2)
C32 C 1.2907(4) 0.9708(3) 0.0985(2)
H24 H 1.2398 1.0004 0.1110
C33 C 1.3290(5) 0.9748(3) 0.0447(2)
H25 H 1.3026 1.0062 0.0215
C34 C 1.4047(5) 0.9334(4) 0.0256(2)
H26 H 1.4311 0.9364 -0.0103
C35 C 1.4406(4) 0.8876(4) 0.0606(3)
C36 C 1.4043(4) 0.8815(3) 0.1138(2)
H27 H 1.4312 0.8495 0.1364
C37 C 1.3733(3) 0.7162(3) 0.3901(2)
C38 C 1.3157(4) 0.7557(3) 0.4280(2)
H28 H 1.2970 0.8027 0.4199
C39 C 1.2853(5) 0.7253(4) 0.4783(3)
H29 H 1.2459 0.7515 0.5038
C40 C 1.3146(5) 0.6562(5) 0.4897(3)
H30 H 1.2949 0.6361 0.5234
C41 C 1.3716(5) 0.6163(4) 0.4530(3)
H31 H 1.3911 0.5697 0.4617
C42 C 1.3997(4) 0.6458(3) 0.4033(2)
H32 H 1.4372 0.6182 0.3778
C43 C 1.4127(4) 0.6967(3) 0.2458(2)
C44 C 1.3399(4) 0.6480(3) 0.2469(3)
H33 H 1.2940 0.6468 0.2767
C45 C 1.3338(5) 0.6002(4) 0.2041(3)
H34 H 1.2848 0.5667 0.2055
C46 C 1.4011(6) 0.6028(4) 0.1593(3)
H35 H 1.3979 0.5706 0.1308
C47 C 1.4715(5) 0.6525(5) 0.1571(3)
H36 H 1.5157 0.6556 0.1267
C48 C 1.4775(4) 0.6983(4) 0.2000(3)
H37 H 1.5269 0.7315 0.1982
C49 C 1.4882(3) 0.8681(3) 0.3051(2)
C50 C 1.5638(3) 0.8825(3) 0.2659(2)
H38 H 1.5879 0.8447 0.2433
C51 C 1.6040(4) 0.9510(4) 0.2597(3)
H39 H 1.6552 0.9592 0.2337
C52 C 1.5673(5) 1.0069(4) 0.2923(4)
H40 H 1.5938 1.0533 0.2881
C53 C 1.4930(4) 0.9956(3) 0.3307(3)
H41 H 1.4685 1.0340 0.3524
C54 C 1.4539(4) 0.9259(3) 0.3370(3)
H42 H 1.4033 0.9182 0.3635
C55 C 1.7621(3) 0.7631(2) 0.25447(19)
C56 C 1.7441(5) 0.7157(3) 0.2146(2)
H43 H 1.7075 0.6745 0.2238
C57 C 1.7789(6) 0.7272(4) 0.1609(3)
H44 H 1.7656 0.6940 0.1347
C58 C 1.8319(5) 0.7867(4) 0.1469(3)
H45 H 1.8578 0.7936 0.1113
C59 C 1.8473(4) 0.8363(3) 0.1851(2)
H46 H 1.8807 0.8789 0.1754
C60 C 1.8135(4) 0.8237(3) 0.2387(2)
H47 H 1.8263 0.8576 0.2645
C61 C 1.6369(3) 0.8112(3) 0.39607(19)
C62 C 1.6548(3) 0.8856(3) 0.3971(2)
H48 H 1.6959 0.9068 0.3697
C63 C 1.6112(5) 0.9293(3) 0.4391(3)
H49 H 1.6233 0.9794 0.4394
C64 C 1.5512(5) 0.8989(5) 0.4795(3)
H50 H 1.5236 0.9279 0.5076
C65 C 1.5316(4) 0.8262(4) 0.4788(2)
H51 H 1.4898 0.8059 0.5062
C66 C 1.5734(3) 0.7821(3) 0.4377(2)
H52 H 1.5592 0.7324 0.4377
C67 C 1.7364(3) 0.6327(2) 0.36233(17)
C68 C 1.6687(3) 0.5862(3) 0.38827(19)
H53 H 1.6066 0.6018 0.3945
C69 C 1.6916(4) 0.5179(3) 0.4048(2)
H54 H 1.6450 0.4877 0.4220
C70 C 1.7826(4) 0.4936(3) 0.3963(2)
H55 H 1.7978 0.4470 0.4074
C71 C 1.8510(4) 0.5386(3) 0.3712(2)
H56 H 1.9129 0.5225 0.3655
C72 C 1.8284(3) 0.6076(3) 0.35440(19)
H57 H 1.8754 0.6377 0.3375
Sn1_2 Sn 0.70554(2) 0.740388(17) 0.336005(13)
O2_2 O 1.84626(19) 0.78475(16) 0.35954(12)
loop_
_geom_bond_atom_site_label_1
_geom_bond_atom_site_label_2
_geom_bond_site_symmetry_1
_geom_bond_site_symmetry_2
Sn1 O3 1_555 1_555
Sn2 O1 1_555 1_555
Sn3 O3 1_555 1_555
O1 C1 1_555 1_555
O2 C1 1_555 1_555
O4 Sn3 1_555 1_555
O5 Sn2 1_555 1_555
O6 N1 1_555 1_555
O7 N1 1_555 1_555
O8 N2 1_555 1_555
O9 N2 1_555 1_555
N1 C6 1_555 1_555
N2 C35 1_555 1_555
C1 C2 1_555 1_555
C2 H1 1_555 1_555
C3 C2 1_555 1_555
H2 C3 1_555 1_555
C4 C3 1_555 1_555
C5 C4 1_555 1_555
H3 C5 1_555 1_555
C6 C5 1_555 1_555
C7 C6 1_555 1_555
H4 C7 1_555 1_555
C8 C7 1_555 1_555
H5 C8 1_555 1_555
C9 C4 1_555 1_555
H6 C9 1_555 1_555
C10 Sn2 1_555 1_555
C11 C10 1_555 1_555
H7 C11 1_555 1_555
C12 C11 1_555 1_555
H8 C12 1_555 1_555
C13 C12 1_555 1_555
H9 C13 1_555 1_555
C14 C13 1_555 1_555
H10 C14 1_555 1_555
C15 C10 1_555 1_555
H11 C15 1_555 1_555
C16 Sn2 1_555 1_555
C17 C16 1_555 1_555
H12 C17 1_555 1_555
C18 C17 1_555 1_555
H13 C18 1_555 1_555
C19 C18 1_555 1_555
H14 C19 1_555 1_555
C20 C19 1_555 1_555
H15 C20 1_555 1_555
C21 C16 1_555 1_555
H16 C21 1_555 1_555
C22 Sn2 1_555 1_555
C23 C22 1_555 1_555
H17 C23 1_555 1_555
C24 C23 1_555 1_555
H18 C24 1_555 1_555
C25 C24 1_555 1_555
H19 C25 1_555 1_555
C26 C25 1_555 1_555
H20 C26 1_555 1_555
C27 C22 1_555 1_555
H21 C27 1_555 1_555
C28 O4 1_555 1_555
C29 C28 1_555 1_555
H22 C29 1_555 1_555
C30 C29 1_555 1_555
H23 C30 1_555 1_555
C31 C30 1_555 1_555
C32 C31 1_555 1_555
H24 C32 1_555 1_555
C33 C32 1_555 1_555
H25 C33 1_555 1_555
C34 C33 1_555 1_555
H26 C34 1_555 1_555
C35 C34 1_555 1_555
C36 C31 1_555 1_555
H27 C36 1_555 1_555
C37 Sn3 1_555 1_555
C38 C37 1_555 1_555
H28 C38 1_555 1_555
C39 C38 1_555 1_555
H29 C39 1_555 1_555
C40 C39 1_555 1_555
H30 C40 1_555 1_555
C41 C40 1_555 1_555
H31 C41 1_555 1_555
C42 C37 1_555 1_555
H32 C42 1_555 1_555
C43 Sn3 1_555 1_555
C44 C43 1_555 1_555
H33 C44 1_555 1_555
C45 C44 1_555 1_555
H34 C45 1_555 1_555
C46 C45 1_555 1_555
H35 C46 1_555 1_555
C47 C46 1_555 1_555
H36 C47 1_555 1_555
C48 C43 1_555 1_555
H37 C48 1_555 1_555
C49 Sn3 1_555 1_555
C50 C49 1_555 1_555
H38 C50 1_555 1_555
C51 C50 1_555 1_555
H39 C51 1_555 1_555
C52 C51 1_555 1_555
H40 C52 1_555 1_555
C53 C52 1_555 1_555
H41 C53 1_555 1_555
C54 C49 1_555 1_555
H42 C54 1_555 1_555
C55 Sn1 1_555 1_555
C56 C55 1_555 1_555
H43 C56 1_555 1_555
C57 C56 1_555 1_555
H44 C57 1_555 1_555
C58 C57 1_555 1_555
H45 C58 1_555 1_555
C59 C58 1_555 1_555
H46 C59 1_555 1_555
C60 C55 1_555 1_555
H47 C60 1_555 1_555
C61 Sn1 1_555 1_555
C62 C61 1_555 1_555
H48 C62 1_555 1_555
C63 C62 1_555 1_555
H49 C63 1_555 1_555
C64 C63 1_555 1_555
H50 C64 1_555 1_555
C65 C64 1_555 1_555
H51 C65 1_555 1_555
C66 C61 1_555 1_555
H52 C66 1_555 1_555
C67 Sn1 1_555 1_555
C68 C67 1_555 1_555
H53 C68 1_555 1_555
C69 C68 1_555 1_555
H54 C69 1_555 1_555
C70 C69 1_555 1_555
H55 C70 1_555 1_555
C71 C70 1_555 1_555
H56 C71 1_555 1_555
C72 C67 1_555 1_555
H57 C72 1_555 1_555
Sn1_2 O2 1_555 1_555
O2_2 Sn1 1_555 1_555
O5 C28 1_555 1_555
C8 C9 1_555 1_555
C14 C15 1_555 1_555
C20 C21 1_555 1_555
C26 C27 1_555 1_555
C35 C36 1_555 1_555
C41 C42 1_555 1_555
C47 C48 1_555 1_555
C53 C54 1_555 1_555
C59 C60 1_555 1_555
C65 C66 1_555 1_555
C71 C72 1_555 1_555

#END
