
#######################################################################
#
#                 Cambridge Crystallographic Data Centre
#                                CCDC 
#
#######################################################################
#
# If this CIF has been generated from an entry in the Cambridge 
# Structural Database, then it will include bibliographic, chemical, 
# crystal, experimental, refinement or atomic coordinate data resulting 
# from the CCDC's data processing and validation procedures.
#
#######################################################################

data_WIWQAW
_symmetry_cell_setting           monoclinic
_symmetry_space_group_name_H-M   'C 2/m'
_symmetry_Int_Tables_number      12
_space_group_name_Hall           '-C 2y'
loop_
_symmetry_equiv_pos_site_id
_symmetry_equiv_pos_as_xyz
1 x,y,z
2 -x,y,-z
3 1/2+x,1/2+y,z
4 1/2-x,1/2+y,-z
5 -x,-y,-z
6 x,-y,z
7 1/2-x,1/2-y,-z
8 1/2+x,1/2-y,z
_cell_length_a                   30.2491(5)
_cell_length_b                   3.72717(5)
_cell_length_c                   12.8518(3)
_cell_angle_alpha                90
_cell_angle_beta                 110.1955(16)
_cell_angle_gamma                90
_cell_volume                     1359.88
loop_
_atom_site_label
_atom_site_type_symbol
_atom_site_fract_x
_atom_site_fract_y
_atom_site_fract_z
Mo1 Mo 0.40517(11) 0.00000 0.3359(3)
Mo2 Mo 0.28194(15) 0.00000 0.3731(3)
Mo3 Mo 0.15428(11) 0.00000 0.4083(3)
O1 O 0.3338(6) 0.00000 0.5545(16)
O2 O 0.2966(5) 0.50000 0.4070(15)
O3 O 0.3369(7) 0.00000 0.3185(14)
O4 O 0.2200(7) 0.00000 0.3999(16)
O5 O 0.4446(5) 0.00000 0.4645(12)
O6 O 0.0997(5) 0.00000 0.4140(14)
O7 O 0.4018(6) 0.50000 0.3020(12)
O8 O 0.2588(6) 0.00000 0.2331(13)
O9 O 0.1343(6) 0.00000 0.2672(15)
N1 N 0.3710(9) 0.00000 0.1420(17)
N2 N 0.4567(10) 0.00000 0.253(2)
N3 N 0.5025(8) 0.00000 0.3018(18)
C1 C 0.3244(9) 0.00000 0.089(2)
C2 C 0.3067(10) 0.00000 -0.022(3)
C3 C 0.3359(10) 0.00000 -0.0820(19)
C4 C 0.3819(10) 0.00000 -0.031(2)
C5 C 0.4001(9) 0.00000 0.084(2)
C6 C 0.4466(10) 0.00000 0.148(3)
C7 C 0.4883(12) 0.00000 0.125(3)
C8 C 0.5224(10) 0.00000 0.226(3)
H1 H 0.51994 0.00000 0.36938
H2 H 0.30553 0.00000 0.13234
H3 H 0.27353 0.00000 -0.05643
H4 H 0.32158 0.00000 -0.16236
H5 H 0.40130 0.00000 -0.07838
H6 H 0.49003 0.00000 0.04657
H7 H 0.55562 0.00000 0.22899
Mo1_2 Mo 0.40517(11) 1.00000 0.3359(3)
Mo2_2 Mo 0.28194(15) 1.00000 0.3731(3)
Mo3C Mo 0.34572(11) -0.50000 0.5917(3)
Mo3C_2 Mo 0.34572(11) 0.50000 0.5917(3)
O1C O 0.1662(6) -0.50000 0.4455(16)
O1C_2 O 0.1662(6) 0.50000 0.4455(16)
O2_2 O 0.2966(5) -0.50000 0.4070(15)
O2C O 0.2034(5) 0.00000 0.5930(15)
O7_2 O 0.4018(6) -0.50000 0.3020(12)
loop_
_geom_bond_atom_site_label_1
_geom_bond_atom_site_label_2
_geom_bond_site_symmetry_1
_geom_bond_site_symmetry_2
Mo1 O3 1_555 1_555
Mo2 O1 1_555 1_555
Mo3 O4 1_555 1_555
O1 Mo3C 1_555 1_555
O2 Mo2 1_555 1_555
O3 Mo2 1_555 1_555
O4 Mo2 1_555 1_555
O5 Mo1 1_555 1_555
O6 Mo3 1_555 1_555
O7 Mo1 1_555 1_555
O8 Mo2 1_555 1_555
O9 Mo3 1_555 1_555
N1 Mo1 1_555 1_555
N2 Mo1 1_555 1_555
N3 N2 1_555 1_555
C1 N1 1_555 1_555
C2 C1 1_555 1_555
C3 C2 1_555 1_555
C4 C3 1_555 1_555
C5 N1 1_555 1_555
C6 N2 1_555 1_555
C7 C6 1_555 1_555
C8 N3 1_555 1_555
H1 N3 1_555 1_555
H2 C1 1_555 1_555
H3 C2 1_555 1_555
H4 C3 1_555 1_555
H5 C4 1_555 1_555
H6 C7 1_555 1_555
H7 C8 1_555 1_555
Mo1_2 O7 1_555 1_555
Mo2_2 O2 1_555 1_555
Mo3C O2_2 1_555 1_555
Mo3C_2 O1 1_555 1_555
O1C Mo3 1_555 1_555
O1C_2 Mo3 1_555 1_555
O2_2 Mo2 1_555 1_555
O2C Mo3 1_555 1_555
O7_2 Mo1 1_555 1_555
O2 Mo3C_2 1_555 1_555
C4 C5 1_555 1_555
C5 C6 1_555 1_555
C7 C8 1_555 1_555

#END
