
#######################################################################
#
#                 Cambridge Crystallographic Data Centre
#                                CCDC 
#
#######################################################################
#
# If this CIF has been generated from an entry in the Cambridge 
# Structural Database, then it will include bibliographic, chemical, 
# crystal, experimental, refinement or atomic coordinate data resulting 
# from the CCDC's data processing and validation procedures.
#
#######################################################################

data_WIWXIL
_symmetry_cell_setting           monoclinic
_symmetry_space_group_name_H-M   'P 21/n'
_symmetry_Int_Tables_number      14
_space_group_name_Hall           '-P 2yn'
loop_
_symmetry_equiv_pos_site_id
_symmetry_equiv_pos_as_xyz
1 x,y,z
2 1/2-x,1/2+y,1/2-z
3 -x,-y,-z
4 1/2+x,1/2-y,1/2+z
_cell_length_a                   18.6132(10)
_cell_length_b                   10.2467(5)
_cell_length_c                   24.9577(13)
_cell_angle_alpha                90
_cell_angle_beta                 101.410(3)
_cell_angle_gamma                90
_cell_volume                     4665.96
loop_
_atom_site_label
_atom_site_type_symbol
_atom_site_fract_x
_atom_site_fract_y
_atom_site_fract_z
Ag1 Ag 0.082570(14) 0.02639(3) 0.012652(12)
Ag2 Ag 0.089617(16) -0.29924(3) 0.017304(12)
Ag3 Ag -0.066730(16) -0.36044(3) -0.030135(15)
O1 O 0.02020(14) -0.1676(2) -0.05208(10)
O2 O 0.08078(16) -0.2137(3) -0.25539(11)
O3 O 0.01490(14) -0.1456(2) 0.05505(10)
O4 O 0.03547(15) -0.1366(3) 0.27565(11)
O5 O -0.02469(15) -0.4897(3) 0.04736(12)
O6 O -0.09513(16) -0.4307(3) 0.24714(12)
O7 O 0.16168(18) -0.4603(3) 0.0517(2)
O8 O 0.44583(14) -0.3573(3) 0.14188(11)
O9 O 0.18510(14) -0.1199(2) 0.01536(12)
O10 O 0.47927(13) -0.0298(3) 0.07060(11)
O11 O 0.14130(13) 0.1980(2) 0.06858(11)
O12 O 0.42968(13) 0.2959(2) 0.07204(10)
N1 N 0.03596(15) -0.1792(3) -0.10263(12)
N2 N 0.01903(16) -0.1412(3) 0.10972(12)
N3 N -0.04371(17) -0.4733(3) 0.09635(13)
N4 N 0.2325(2) -0.4314(3) 0.0726(2)
N5 N 0.25785(15) -0.0982(3) 0.03028(12)
N6 N 0.21315(15) 0.2238(3) 0.06845(12)
C1 C 0.1063(2) -0.1798(4) -0.10773(16)
H1 H 0.1439 -0.1719 -0.0761
C2 C 0.1246(2) -0.1917(4) -0.15810(16)
H2 H 0.1746 -0.1929 -0.1614
C3 C 0.0692(2) -0.2019(3) -0.20419(15)
C4 C -0.0036(2) -0.2006(3) -0.19777(15)
H3 H -0.0423 -0.2078 -0.2288
C5 C -0.01915(19) -0.1889(3) -0.14596(15)
H4 H -0.0685 -0.1876 -0.1412
C6 C 0.1559(3) -0.2053(5) -0.26227(19)
H5 H 0.1577 -0.2148 -0.3011
H6 H 0.1847 -0.2750 -0.2413
H7 H 0.1764 -0.1203 -0.2491
C7 C -0.04207(18) -0.1322(3) 0.12963(14)
H8 H -0.0879 -0.1274 0.1049
C8 C -0.04088(19) -0.1294(3) 0.18501(15)
H9 H -0.0851 -0.1229 0.1984
C9 C 0.02675(19) -0.1365(3) 0.22117(15)
C10 C 0.0903(2) -0.1452(4) 0.19912(16)
H10 H 0.1369 -0.1499 0.2228
C11 C 0.0853(2) -0.1471(3) 0.14408(16)
H11 H 0.1287 -0.1525 0.1295
C12 C -0.0296(2) -0.1261(4) 0.29889(16)
H12 H -0.0156 -0.1276 0.3389
H13 H -0.0623 -0.1996 0.2864
H14 H -0.0548 -0.0440 0.2871
C13 C -0.1147(2) -0.4612(4) 0.09929(17)
H15 H -0.1511 -0.4624 0.0667
C14 C -0.1356(2) -0.4472(4) 0.14888(17)
H16 H -0.1859 -0.4389 0.1505
C15 C -0.0826(2) -0.4452(3) 0.19638(16)
C16 C -0.0091(2) -0.4572(4) 0.19224(17)
H17 H 0.0284 -0.4558 0.2242
C17 C 0.0087(2) -0.4710(3) 0.14140(17)
H18 H 0.0586 -0.4789 0.1384
C18 C -0.1702(2) -0.4115(4) 0.25250(19)
H19 H -0.1723 -0.4027 0.2913
H20 H -0.1997 -0.4866 0.2370
H21 H -0.1895 -0.3321 0.2329
C19 C 0.2532(2) -0.4133(4) 0.1269(2)
H22 H 0.2177 -0.4180 0.1493
C20 C 0.3249(2) -0.3882(4) 0.15017(18)
H23 H 0.3390 -0.3756 0.1885
C21 C 0.3767(2) -0.3815(3) 0.11689(16)
C22 C 0.3528(2) -0.3999(3) 0.06090(17)
H24 H 0.3866 -0.3957 0.0370
C23 C 0.2807(3) -0.4240(4) 0.04068(19)
H25 H 0.2647 -0.4359 0.0024
C24 C 0.5008(2) -0.3594(4) 0.10887(19)
H26 H 0.5487 -0.3395 0.1317
H27 H 0.4889 -0.2939 0.0798
H28 H 0.5022 -0.4461 0.0925
C25 C 0.2888(2) -0.0738(3) 0.08246(14)
H29 H 0.2587 -0.0720 0.1091
C26 C 0.3624(2) -0.0513(3) 0.09865(14)
H30 H 0.3831 -0.0351 0.1360
C27 C 0.40669(18) -0.0524(3) 0.05976(14)
C28 C 0.37412(19) -0.0793(3) 0.00568(14)
H31 H 0.4031 -0.0817 -0.0217
C29 C 0.3004(2) -0.1021(3) -0.00793(14)
H32 H 0.2786 -0.1209 -0.0448
C30 C 0.5137(2) 0.0008(4) 0.12629(18)
H33 H 0.5663 0.0146 0.1285
H34 H 0.5063 -0.0717 0.1502
H35 H 0.4918 0.0803 0.1379
C31 C 0.2593(2) 0.2478(3) 0.11607(15)
H36 H 0.2415 0.2477 0.1493
C32 C 0.33160(19) 0.2723(3) 0.11680(15)
H37 H 0.3643 0.2892 0.1504
C33 C 0.35718(18) 0.2724(3) 0.06792(14)
C34 C 0.30892(18) 0.2488(3) 0.01932(15)
H38 H 0.3251 0.2500 -0.0145
C35 C 0.23681(19) 0.2237(3) 0.02111(15)
H39 H 0.2031 0.2059 -0.0119
C36 C 0.4579(2) 0.2924(4) 0.02226(16)
H40 H 0.5106 0.3106 0.0306
H41 H 0.4329 0.3584 -0.0032
H42 H 0.4494 0.2058 0.0056
Ag1B Ag -0.082570(14) -0.02639(3) -0.012652(12)
Ag3B Ag 0.066730(16) -0.63956(3) 0.030135(15)
Ag3B_2 Ag 0.066730(16) 0.36044(3) 0.030135(15)
O3B O -0.01490(14) 0.1456(2) -0.05505(10)
O5B O 0.02469(15) -0.5103(3) -0.04736(12)
O7B O -0.16168(18) -0.5397(3) -0.0517(2)
O11B O -0.14130(13) -0.1980(2) -0.06858(11)
Cl1 Cl 0.30889(7) -0.04411(15) 0.24299(5)
O13 O 0.3716(3) -0.1110(5) 0.22318(18)
O14 O 0.3082(6) -0.1128(7) 0.2898(3)
O15 O 0.2546(3) -0.0650(10) 0.2015(2)
O16 O 0.3335(3) 0.0728(5) 0.2550(4)
Cl2 Cl 0.25589(5) 0.11392(8) -0.12989(3)
O17 O 0.3012(4) 0.2200(6) -0.11524(18)
O18 O 0.3000(3) 0.0014(6) -0.12602(16)
O19 O 0.20793(16) 0.0970(4) -0.09267(12)
O20 O 0.21765(17) 0.1244(3) -0.18499(12)
Cl3 Cl 0.33107(5) -0.38524(8) -0.10525(4)
O21 O 0.3185(2) -0.4500(4) -0.15644(14)
O22 O 0.37252(19) -0.2693(3) -0.10802(15)
O23 O 0.37290(19) -0.4665(3) -0.06393(14)
O24 O 0.26235(15) -0.3534(3) -0.09009(14)
loop_
_geom_bond_atom_site_label_1
_geom_bond_atom_site_label_2
_geom_bond_site_symmetry_1
_geom_bond_site_symmetry_2
Ag1 O1 1_555 1_555
Ag2 O1 1_555 1_555
Ag3 O1 1_555 1_555
O1 N1 1_555 1_555
O2 C3 1_555 1_555
O3 Ag1 1_555 1_555
O4 C9 1_555 1_555
O5 Ag3 1_555 1_555
O6 C15 1_555 1_555
O7 Ag2 1_555 1_555
O8 C21 1_555 1_555
O9 Ag1 1_555 1_555
O10 C27 1_555 1_555
O11 Ag1 1_555 1_555
O12 C33 1_555 1_555
N1 C1 1_555 1_555
N2 O3 1_555 1_555
N3 O5 1_555 1_555
N4 O7 1_555 1_555
N5 O9 1_555 1_555
N6 O11 1_555 1_555
C1 H1 1_555 1_555
C2 C1 1_555 1_555
H2 C2 1_555 1_555
C3 C2 1_555 1_555
C4 C3 1_555 1_555
H3 C4 1_555 1_555
C5 N1 1_555 1_555
H4 C5 1_555 1_555
C6 O2 1_555 1_555
H5 C6 1_555 1_555
H6 C6 1_555 1_555
H7 C6 1_555 1_555
C7 N2 1_555 1_555
H8 C7 1_555 1_555
C8 C7 1_555 1_555
H9 C8 1_555 1_555
C9 C8 1_555 1_555
C10 C9 1_555 1_555
H10 C10 1_555 1_555
C11 N2 1_555 1_555
H11 C11 1_555 1_555
C12 O4 1_555 1_555
H12 C12 1_555 1_555
H13 C12 1_555 1_555
H14 C12 1_555 1_555
C13 N3 1_555 1_555
H15 C13 1_555 1_555
C14 C13 1_555 1_555
H16 C14 1_555 1_555
C15 C14 1_555 1_555
C16 C15 1_555 1_555
H17 C16 1_555 1_555
C17 N3 1_555 1_555
H18 C17 1_555 1_555
C18 O6 1_555 1_555
H19 C18 1_555 1_555
H20 C18 1_555 1_555
H21 C18 1_555 1_555
C19 N4 1_555 1_555
H22 C19 1_555 1_555
C20 C19 1_555 1_555
H23 C20 1_555 1_555
C21 C20 1_555 1_555
C22 C21 1_555 1_555
H24 C22 1_555 1_555
C23 N4 1_555 1_555
H25 C23 1_555 1_555
C24 O8 1_555 1_555
H26 C24 1_555 1_555
H27 C24 1_555 1_555
H28 C24 1_555 1_555
C25 N5 1_555 1_555
H29 C25 1_555 1_555
C26 C25 1_555 1_555
H30 C26 1_555 1_555
C27 C26 1_555 1_555
C28 C27 1_555 1_555
H31 C28 1_555 1_555
C29 N5 1_555 1_555
H32 C29 1_555 1_555
C30 O10 1_555 1_555
H33 C30 1_555 1_555
H34 C30 1_555 1_555
H35 C30 1_555 1_555
C31 N6 1_555 1_555
H36 C31 1_555 1_555
C32 C31 1_555 1_555
H37 C32 1_555 1_555
C33 C32 1_555 1_555
C34 C33 1_555 1_555
H38 C34 1_555 1_555
C35 N6 1_555 1_555
H39 C35 1_555 1_555
C36 O12 1_555 1_555
H40 C36 1_555 1_555
H41 C36 1_555 1_555
H42 C36 1_555 1_555
Cl1 O13 1_555 1_555
O14 Cl1 1_555 1_555
O15 Cl1 1_555 1_555
O16 Cl1 1_555 1_555
Cl2 O17 1_555 1_555
O18 Cl2 1_555 1_555
O19 Cl2 1_555 1_555
O20 Cl2 1_555 1_555
Cl3 O21 1_555 1_555
O22 Cl3 1_555 1_555
O23 Cl3 1_555 1_555
O24 Cl3 1_555 1_555
Ag1B O3 1_555 1_555
Ag3B O5 1_555 1_555
Ag3B_2 O11 1_555 1_555
O3B Ag1 1_555 1_555
O5B Ag3 1_555 1_555
O7B Ag3 1_555 1_555
O11B Ag3 1_555 1_555
Ag2 O3 1_555 1_555
Ag2 O9 1_555 1_555
O7 Ag3B 1_555 1_555
C4 C5 1_555 1_555
C10 C11 1_555 1_555
C16 C17 1_555 1_555
C22 C23 1_555 1_555
C28 C29 1_555 1_555
C34 C35 1_555 1_555
Ag1B O3B 1_555 1_555
Ag1B O11B 1_555 1_555
Ag3B O5B 1_555 1_555

#END
