
#######################################################################
#
#                 Cambridge Crystallographic Data Centre
#                                CCDC 
#
#######################################################################
#
# If this CIF has been generated from an entry in the Cambridge 
# Structural Database, then it will include bibliographic, chemical, 
# crystal, experimental, refinement or atomic coordinate data resulting 
# from the CCDC's data processing and validation procedures.
#
#######################################################################

data_WIWXOR
_symmetry_cell_setting           triclinic
_symmetry_space_group_name_H-M   'P -1'
_symmetry_Int_Tables_number      2
_space_group_name_Hall           '-P 1'
loop_
_symmetry_equiv_pos_site_id
_symmetry_equiv_pos_as_xyz
1 x,y,z
2 -x,-y,-z
_cell_length_a                   10.2012(3)
_cell_length_b                   14.1759(5)
_cell_length_c                   17.2837(5)
_cell_angle_alpha                71.712(3)
_cell_angle_beta                 76.452(3)
_cell_angle_gamma                77.743(3)
_cell_volume                     2280.91
loop_
_atom_site_label
_atom_site_type_symbol
_atom_site_fract_x
_atom_site_fract_y
_atom_site_fract_z
Ag1 Ag 0.18379(2) 0.619154(17) 0.441663(14)
Ag2 Ag 0.15384(2) 0.404826(17) 0.538879(14)
Ag3 Ag 0.51406(2) 0.592690(16) 0.428972(14)
O1 O 0.0003(3) 0.7234(2) 0.4120(3)
O2 O 0.0495(2) 1.09353(15) 0.19706(13)
O3 O 0.0222(2) 0.47064(16) 0.42758(13)
O4 O 0.0552(2) 0.33872(16) 0.15880(12)
O5 O 0.3597(2) 0.47853(14) 0.43087(12)
O6 O 0.4027(2) 0.34501(16) 0.16180(13)
O7 O 0.3437(2) 0.29750(15) 0.57620(12)
O8 O 0.2533(2) -0.00199(15) 0.86161(12)
O9 O 0.3159(2) 0.57442(15) 0.54941(12)
O10 O 0.2668(2) 0.80954(15) 0.75345(13)
O11 O 0.3633(2) 0.71404(15) 0.33505(13)
O12 O 0.4274(2) 1.05730(15) 0.08379(13)
N1 N 0.0127(3) 0.8153(3) 0.3577(3)
N2 N 0.0311(2) 0.43932(18) 0.35987(14)
N3 N 0.3717(2) 0.44638(17) 0.36299(14)
N4 N 0.3188(2) 0.22447(17) 0.64874(14)
N5 N 0.3031(2) 0.63234(17) 0.60030(14)
N6 N 0.3766(2) 0.79994(17) 0.27437(14)
C1 C -0.0034(4) 0.8955(3) 0.3839(3)
H1 H -0.0236 0.8888 0.4418
C2 C 0.0084(3) 0.9869(3) 0.3301(2)
H2 H -0.0035 1.0436 0.3505
C3 C 0.0377(3) 0.9993(2) 0.2451(2)
C4 C 0.0549(3) 0.9153(3) 0.2168(2)
H3 H 0.0749 0.9202 0.1593
C5 C 0.0416(3) 0.8225(3) 0.2770(4)
H4 H 0.0535 0.7636 0.2595
C6 C 0.0753(4) 1.1098(3) 0.1089(2)
H5 H 0.0790 1.1812 0.0812
H6 H 0.0019 1.0890 0.0932
H7 H 0.1625 1.0701 0.0922
C7 C 0.0286(3) 0.5072(2) 0.28541(18)
H8 H 0.0213 0.5765 0.2811
C8 C 0.0364(3) 0.4782(2) 0.21571(19)
H9 H 0.0342 0.5271 0.1636
C9 C 0.0476(3) 0.3769(2) 0.22188(18)
C10 C 0.0521(3) 0.3075(2) 0.29982(18)
H10 H 0.0615 0.2377 0.3056
C11 C 0.0432(3) 0.3404(2) 0.36751(18)
H11 H 0.0454 0.2931 0.4203
C12 C 0.0465(4) 0.4092(3) 0.07822(18)
H12 H 0.0506 0.3724 0.0380
H13 H 0.1228 0.4476 0.0606
H14 H -0.0398 0.4553 0.0814
C13 C 0.3784(3) 0.5134(2) 0.28792(18)
H15 H 0.3761 0.5823 0.2831
C14 C 0.3887(3) 0.4840(2) 0.21817(18)
H16 H 0.3935 0.5320 0.1653
C15 C 0.3922(3) 0.3826(2) 0.22568(18)
C16 C 0.3852(3) 0.3144(2) 0.30449(18)
H17 H 0.3873 0.2451 0.3110
C17 C 0.3754(3) 0.3474(2) 0.37215(18)
H18 H 0.3712 0.3010 0.4257
C18 C 0.4262(4) 0.4138(3) 0.07967(19)
H19 H 0.4374 0.3776 0.0382
H20 H 0.5091 0.4427 0.0721
H21 H 0.3482 0.4678 0.0731
C19 C 0.3274(3) 0.1293(2) 0.64559(18)
H22 H 0.3493 0.1146 0.5937
C20 C 0.3045(3) 0.0542(2) 0.71751(18)
H23 H 0.3104 -0.0129 0.7156
C21 C 0.2724(3) 0.0762(2) 0.79364(17)
C22 C 0.2627(3) 0.1752(2) 0.79514(18)
H24 H 0.2397 0.1923 0.8461
C23 C 0.2872(3) 0.2471(2) 0.72126(18)
H25 H 0.2816 0.3148 0.7214
C24 C 0.2214(3) 0.0188(2) 0.94110(18)
H26 H 0.1390 0.0689 0.9434
H27 H 0.2977 0.0449 0.9487
H28 H 0.2057 -0.0432 0.9851
C25 C 0.2948(3) 0.5887(2) 0.68220(17)
H29 H 0.2986 0.5179 0.7028
C26 C 0.2811(3) 0.6443(2) 0.73672(18)
H30 H 0.2743 0.6124 0.7944
C27 C 0.2772(3) 0.7479(2) 0.70652(18)
C28 C 0.2855(3) 0.7914(2) 0.62092(19)
H31 H 0.2823 0.8621 0.5986
C29 C 0.2981(3) 0.7331(2) 0.56977(19)
H32 H 0.3035 0.7634 0.5119
C30 C 0.2519(3) 0.7654(2) 0.84205(18)
H33 H 0.3335 0.7171 0.8549
H34 H 0.1718 0.7307 0.8619
H35 H 0.2402 0.8183 0.8694
C31 C 0.3676(3) 0.8868(2) 0.29264(18)
H36 H 0.3504 0.8869 0.3491
C32 C 0.3827(3) 0.9755(2) 0.23169(18)
H37 H 0.3755 1.0362 0.2459
C33 C 0.4087(3) 0.9755(2) 0.14899(18)
C34 C 0.4152(3) 0.8852(2) 0.13116(18)
H38 H 0.4310 0.8835 0.0752
C35 C 0.3989(3) 0.7990(2) 0.19402(18)
H39 H 0.4033 0.7378 0.1813
C36 C 0.4247(4) 1.1508(2) 0.1018(2)
H40 H 0.4419 1.2037 0.0498
H41 H 0.4954 1.1424 0.1343
H42 H 0.3351 1.1695 0.1335
Ag2A Ag -0.15384(2) 0.595174(17) 0.461121(14)
Ag3A Ag 0.48594(2) 0.407310(16) 0.571028(14)
O1A O -0.0003(3) 0.2766(2) 0.5880(3)
O3A O -0.0222(2) 0.52936(16) 0.57242(13)
O7A O 0.6563(2) 0.70250(15) 0.42380(12)
O9A O 0.6841(2) 0.42558(15) 0.45059(12)
F1 F 0.2512(7) 0.9556(6) 0.4536(4)
F2 F 0.2852(5) 1.1241(5) 0.4738(3)
F3 F 0.3945(7) 1.0697(3) 0.3693(3)
F4 F 0.1102(9) 1.1002(4) 0.4364(4)
B1 B 0.2685(9) 1.0566(5) 0.4344(3)
F5 F 0.7186(15) 0.5423(11) 0.0972(10)
F6 F 0.6452(15) 0.6142(11) 0.1893(7)
F7 F 0.5534(4) 0.6616(3) 0.0859(2)
F8 F 0.7647(5) 0.6973(3) 0.0667(2)
B2 B 0.6853(4) 0.6259(3) 0.1121(2)
F9 F 0.2910(3) 0.7610(2) 0.03134(17)
F10 F 0.1433(3) 0.65844(17) 0.03933(14)
F11 F 0.0692(3) 0.81045(16) 0.06449(15)
F12 F 0.1744(3) 0.68396(15) 0.15616(13)
B3 B 0.1694(4) 0.7272(3) 0.0725(3)
F13? F 0.2949(19) 0.9695(11) 0.4686(9)
F14? F 0.3033(9) 1.0490(8) 0.5101(5)
F15? F 0.2772(10) 1.1032(4) 0.3520(3)
F16? F 0.1876(15) 1.1069(10) 0.4012(13)
F17? F 0.6447(14) 0.7060(6) 0.0633(4)
F18? F 0.8260(7) 0.6321(8) 0.1196(8)
F19? F 0.651(2) 0.6193(19) 0.2057(12)
F20? F 0.723(2) 0.5248(19) 0.0888(17)
loop_
_geom_bond_atom_site_label_1
_geom_bond_atom_site_label_2
_geom_bond_site_symmetry_1
_geom_bond_site_symmetry_2
Ag1 O1 1_555 1_555
Ag2 O3 1_555 1_555
Ag3 O5 1_555 1_555
O1 N1 1_555 1_555
O2 C3 1_555 1_555
O3 N2 1_555 1_555
O4 C9 1_555 1_555
O5 Ag1 1_555 1_555
O6 C15 1_555 1_555
O7 Ag2 1_555 1_555
O8 C21 1_555 1_555
O9 Ag1 1_555 1_555
O10 C27 1_555 1_555
O11 Ag1 1_555 1_555
O12 C33 1_555 1_555
N1 C1 1_555 1_555
N2 C7 1_555 1_555
N3 O5 1_555 1_555
N4 O7 1_555 1_555
N5 O9 1_555 1_555
N6 O11 1_555 1_555
C1 H1 1_555 1_555
C2 C1 1_555 1_555
H2 C2 1_555 1_555
C3 C2 1_555 1_555
C4 C3 1_555 1_555
H3 C4 1_555 1_555
C5 N1 1_555 1_555
H4 C5 1_555 1_555
C6 O2 1_555 1_555
H5 C6 1_555 1_555
H6 C6 1_555 1_555
H7 C6 1_555 1_555
C7 H8 1_555 1_555
C8 C7 1_555 1_555
H9 C8 1_555 1_555
C9 C8 1_555 1_555
C10 C9 1_555 1_555
H10 C10 1_555 1_555
C11 N2 1_555 1_555
H11 C11 1_555 1_555
C12 O4 1_555 1_555
H12 C12 1_555 1_555
H13 C12 1_555 1_555
H14 C12 1_555 1_555
C13 N3 1_555 1_555
H15 C13 1_555 1_555
C14 C13 1_555 1_555
H16 C14 1_555 1_555
C15 C14 1_555 1_555
C16 C15 1_555 1_555
H17 C16 1_555 1_555
C17 N3 1_555 1_555
H18 C17 1_555 1_555
C18 O6 1_555 1_555
H19 C18 1_555 1_555
H20 C18 1_555 1_555
H21 C18 1_555 1_555
C19 N4 1_555 1_555
H22 C19 1_555 1_555
C20 C19 1_555 1_555
H23 C20 1_555 1_555
C21 C20 1_555 1_555
C22 C21 1_555 1_555
H24 C22 1_555 1_555
C23 N4 1_555 1_555
H25 C23 1_555 1_555
C24 O8 1_555 1_555
H26 C24 1_555 1_555
H27 C24 1_555 1_555
H28 C24 1_555 1_555
C25 N5 1_555 1_555
H29 C25 1_555 1_555
C26 C25 1_555 1_555
H30 C26 1_555 1_555
C27 C26 1_555 1_555
C28 C27 1_555 1_555
H31 C28 1_555 1_555
C29 N5 1_555 1_555
H32 C29 1_555 1_555
C30 O10 1_555 1_555
H33 C30 1_555 1_555
H34 C30 1_555 1_555
H35 C30 1_555 1_555
C31 N6 1_555 1_555
H36 C31 1_555 1_555
C32 C31 1_555 1_555
H37 C32 1_555 1_555
C33 C32 1_555 1_555
C34 C33 1_555 1_555
H38 C34 1_555 1_555
C35 N6 1_555 1_555
H39 C35 1_555 1_555
C36 O12 1_555 1_555
H40 C36 1_555 1_555
H41 C36 1_555 1_555
H42 C36 1_555 1_555
F1 B1 1_555 1_555
F2 B1 1_555 1_555
F3 B1 1_555 1_555
F4 B1 1_555 1_555
F5 B2 1_555 1_555
F6 B2 1_555 1_555
F7 B2 1_555 1_555
F8 B2 1_555 1_555
F9 B3 1_555 1_555
F10 B3 1_555 1_555
F11 B3 1_555 1_555
F12 B3 1_555 1_555
Ag2A O1 1_555 1_555
Ag3A O7 1_555 1_555
O1A Ag2 1_555 1_555
O3A Ag2 1_555 1_555
O7A Ag3 1_555 1_555
O9A Ag3 1_555 1_555
Ag2 O5 1_555 1_555
Ag3 O9 1_555 1_555
Ag3 O11 1_555 1_555
O3 Ag2A 1_555 1_555
O9 Ag3A 1_555 1_555
C4 C5 1_555 1_555
C10 C11 1_555 1_555
C16 C17 1_555 1_555
C22 C23 1_555 1_555
C28 C29 1_555 1_555
C34 C35 1_555 1_555
Ag2A O3A 1_555 1_555
Ag3A O9A 1_555 1_555

#END
