
#######################################################################
#
#                 Cambridge Crystallographic Data Centre
#                                CCDC 
#
#######################################################################
#
# If this CIF has been generated from an entry in the Cambridge 
# Structural Database, then it will include bibliographic, chemical, 
# crystal, experimental, refinement or atomic coordinate data resulting 
# from the CCDC's data processing and validation procedures.
#
#######################################################################

data_WIXGAN
_symmetry_cell_setting           triclinic
_symmetry_space_group_name_H-M   'P -1'
_symmetry_Int_Tables_number      2
_space_group_name_Hall           '-P 1'
loop_
_symmetry_equiv_pos_site_id
_symmetry_equiv_pos_as_xyz
1 x,y,z
2 -x,-y,-z
_cell_length_a                   9.7653(8)
_cell_length_b                   10.1887(11)
_cell_length_c                   10.3492(12)
_cell_angle_alpha                101.924(3)
_cell_angle_beta                 97.576(2)
_cell_angle_gamma                115.951(3)
_cell_volume                     876.512
loop_
_atom_site_label
_atom_site_type_symbol
_atom_site_fract_x
_atom_site_fract_y
_atom_site_fract_z
Cu1 Cu 0.59569(8) 0.14330(8) 0.60152(7)
I1 I 0.38811(4) -0.09816(5) 0.65665(4)
O1 O 0.5348(5) 0.6156(5) 0.8583(4)
O2 O 0.9223(5) 0.8042(5) 1.0462(4)
N1 N 0.5081(6) 0.2955(6) 0.6442(5)
N2 N 0.5822(6) 0.4213(6) 0.7475(6)
N3 N 0.4943(5) 0.4916(5) 0.7492(5)
N4 N 0.9932(5) 0.7504(5) 1.1294(5)
N5 N 1.1359(5) 0.8478(5) 1.2141(5)
N6 N 1.1825(5) 0.7658(5) 1.2709(4)
C1 C 0.3568(6) 0.4104(6) 0.6464(5)
C2 C 0.2271(7) 0.4301(7) 0.6101(6)
H1 H 0.2237 0.5183 0.6517
C3 C 0.1045(7) 0.3119(7) 0.5095(6)
H2 H 0.0129 0.3176 0.4836
C4 C 0.1134(7) 0.1826(8) 0.4447(6)
H3 H 0.0275 0.1055 0.3757
C5 C 0.2428(8) 0.1638(7) 0.4780(6)
H4 H 0.2476 0.0774 0.4334
C6 C 0.3661(6) 0.2822(6) 0.5824(5)
C7 C 0.6575(7) 0.7549(7) 0.8481(7)
H5 H 0.6156 0.7917 0.7821
H6 H 0.7401 0.7375 0.8189
C8 C 0.7216(8) 0.8698(7) 0.9867(7)
H7 H 0.6369 0.8843 1.0146
H8 H 0.7998 0.9669 0.9810
C9 C 0.7960(7) 0.8231(8) 1.0949(7)
H9 H 0.8382 0.9015 1.1823
H10 H 0.7190 0.7281 1.1052
C10 C 1.0661(6) 0.6150(6) 1.2210(5)
C11 C 1.0598(6) 0.4846(7) 1.2526(6)
H11 H 1.1399 0.4908 1.3173
C12 C 0.9289(7) 0.3485(7) 1.1823(7)
H12 H 0.9211 0.2596 1.1992
C13 C 0.8046(7) 0.3374(7) 1.0849(6)
H13 H 0.7181 0.2419 1.0403
C14 C 0.8087(6) 0.4631(6) 1.0550(5)
H14 H 0.7282 0.4575 0.9913
C15 C 0.9443(6) 0.6020(6) 1.1279(5)
Cu1A Cu 0.40431(8) -0.14330(8) 0.39848(7)
Cu1A_2 Cu 1.40431(8) 0.85670(8) 1.39848(7)
I1A I 0.61189(4) 0.09816(5) 0.34335(4)
N6A N 0.8175(5) 0.2342(5) 0.7291(4)
loop_
_geom_bond_atom_site_label_1
_geom_bond_atom_site_label_2
_geom_bond_site_symmetry_1
_geom_bond_site_symmetry_2
Cu1 I1 1_555 1_555
I1 Cu1A 1_555 1_555
O1 N3 1_555 1_555
O2 N4 1_555 1_555
N1 Cu1 1_555 1_555
N2 N1 1_555 1_555
N3 N2 1_555 1_555
N4 N5 1_555 1_555
N5 N6 1_555 1_555
N6 C10 1_555 1_555
C1 N3 1_555 1_555
C2 C1 1_555 1_555
H1 C2 1_555 1_555
C3 C2 1_555 1_555
H2 C3 1_555 1_555
C4 C3 1_555 1_555
H3 C4 1_555 1_555
C5 C4 1_555 1_555
H4 C5 1_555 1_555
C6 N1 1_555 1_555
C7 O1 1_555 1_555
H5 C7 1_555 1_555
H6 C7 1_555 1_555
C8 C7 1_555 1_555
H7 C8 1_555 1_555
H8 C8 1_555 1_555
C9 O2 1_555 1_555
H9 C9 1_555 1_555
H10 C9 1_555 1_555
C10 C11 1_555 1_555
C11 H11 1_555 1_555
C12 C11 1_555 1_555
H12 C12 1_555 1_555
C13 C12 1_555 1_555
H13 C13 1_555 1_555
C14 C13 1_555 1_555
H14 C14 1_555 1_555
C15 N4 1_555 1_555
Cu1A Cu1 1_555 1_555
Cu1A_2 N6 1_555 1_555
I1A Cu1 1_555 1_555
N6A Cu1 1_555 1_555
C1 C6 1_555 1_555
C5 C6 1_555 1_555
C8 C9 1_555 1_555
C10 C15 1_555 1_555
C14 C15 1_555 1_555
Cu1A I1A 1_555 1_555

#END
