
#######################################################################
#
#                 Cambridge Crystallographic Data Centre
#                                CCDC 
#
#######################################################################
#
# If this CIF has been generated from an entry in the Cambridge 
# Structural Database, then it will include bibliographic, chemical, 
# crystal, experimental, refinement or atomic coordinate data resulting 
# from the CCDC's data processing and validation procedures.
#
#######################################################################

data_WIXGER
_symmetry_cell_setting           triclinic
_symmetry_space_group_name_H-M   'P -1'
_symmetry_Int_Tables_number      2
_space_group_name_Hall           '-P 1'
loop_
_symmetry_equiv_pos_site_id
_symmetry_equiv_pos_as_xyz
1 x,y,z
2 -x,-y,-z
_cell_length_a                   9.5074(5)
_cell_length_b                   9.5783(5)
_cell_length_c                   11.9155(6)
_cell_angle_alpha                96.8542(7)
_cell_angle_beta                 105.6088(7)
_cell_angle_gamma                117.5410(6)
_cell_volume                     888.089
loop_
_atom_site_label
_atom_site_type_symbol
_atom_site_fract_x
_atom_site_fract_y
_atom_site_fract_z
Cu1 Cu 0.50212(4) 0.08872(4) 0.13367(3)
Cl1 Cl 0.40733(9) -0.01057(10) 0.27930(6)
Cl2 Cl 0.54381(11) 0.16358(9) -0.03975(7)
O1 O 0.4952(3) 0.5862(3) 0.35890(19)
O2 O 0.9201(3) 0.8089(3) 0.5394(2)
N1 N 0.4417(3) 0.2628(3) 0.1613(2)
N2 N 0.5242(3) 0.3817(3) 0.2627(2)
N3 N 0.4407(3) 0.4610(3) 0.2598(2)
N4 N 1.0043(3) 0.7561(3) 0.6197(2)
N5 N 1.1600(3) 0.8662(3) 0.7011(2)
N6 N 1.2180(3) 0.7824(3) 0.7569(2)
C1 C 0.2985(4) 0.3941(4) 0.1580(3)
C2 C 0.3008(4) 0.2646(4) 0.0928(3)
C3 C 0.1711(4) 0.1624(4) -0.0192(3)
H1 H 0.1723 0.0777 -0.0652
C4 C 0.0421(5) 0.1934(5) -0.0575(3)
H2 H -0.0475 0.1268 -0.1313
C5 C 0.0400(5) 0.3224(5) 0.0105(4)
H3 H -0.0522 0.3364 -0.0192
C6 C 0.1679(4) 0.4281(5) 0.1186(3)
H4 H 0.1683 0.5155 0.1623
C7 C 0.6204(4) 0.7440(4) 0.3502(3)
H5 H 0.5652 0.7801 0.2895
H6 H 0.7074 0.7347 0.3283
C8 C 0.6973(4) 0.8626(4) 0.4742(3)
H7 H 0.6075 0.8697 0.4934
H8 H 0.7778 0.9706 0.4722
C9 C 0.7874(4) 0.8169(4) 0.5739(3)
H9 H 0.8372 0.8990 0.6513
H10 H 0.7086 0.7114 0.5807
C10 C 1.0963(4) 0.6176(4) 0.7102(3)
C11 C 1.0942(4) 0.4794(4) 0.7388(3)
H11 H 1.1848 0.4888 0.8008
C12 C 0.9525(4) 0.3294(4) 0.6710(3)
H12 H 0.9471 0.2350 0.6878
C13 C 0.8145(4) 0.3136(4) 0.5766(3)
H13 H 0.7218 0.2090 0.5326
C14 C 0.8124(4) 0.4463(4) 0.5477(3)
H14 H 0.7216 0.4360 0.4855
C15 C 0.9564(4) 0.5987(4) 0.6181(3)
Cu1A Cu 0.49788(4) -0.08872(4) -0.13367(3)
Cu1A_2 Cu 1.49788(4) 0.91128(4) 0.86633(3)
Cl2A Cl 0.45619(11) -0.16358(9) 0.03975(7)
N6A N 0.7820(3) 0.2176(3) 0.2431(2)
loop_
_geom_bond_atom_site_label_1
_geom_bond_atom_site_label_2
_geom_bond_site_symmetry_1
_geom_bond_site_symmetry_2
Cu1 Cl1 1_555 1_555
Cl2 Cu1 1_555 1_555
O1 N3 1_555 1_555
O2 N4 1_555 1_555
N1 Cu1 1_555 1_555
N2 N1 1_555 1_555
N3 N2 1_555 1_555
N4 N5 1_555 1_555
N5 N6 1_555 1_555
N6 C10 1_555 1_555
C1 N3 1_555 1_555
C2 N1 1_555 1_555
C3 C2 1_555 1_555
H1 C3 1_555 1_555
C4 C3 1_555 1_555
H2 C4 1_555 1_555
C5 C4 1_555 1_555
H3 C5 1_555 1_555
C6 C1 1_555 1_555
H4 C6 1_555 1_555
C7 O1 1_555 1_555
H5 C7 1_555 1_555
H6 C7 1_555 1_555
C8 C7 1_555 1_555
H7 C8 1_555 1_555
H8 C8 1_555 1_555
C9 O2 1_555 1_555
H9 C9 1_555 1_555
H10 C9 1_555 1_555
C10 C11 1_555 1_555
C11 H11 1_555 1_555
C12 C11 1_555 1_555
H12 C12 1_555 1_555
C13 C12 1_555 1_555
H13 C13 1_555 1_555
C14 C13 1_555 1_555
H14 C14 1_555 1_555
C15 N4 1_555 1_555
Cu1A Cl2 1_555 1_555
Cu1A_2 N6 1_555 1_555
Cl2A Cu1 1_555 1_555
N6A Cu1 1_555 1_555
C1 C2 1_555 1_555
C5 C6 1_555 1_555
C8 C9 1_555 1_555
C10 C15 1_555 1_555
C14 C15 1_555 1_555
Cu1A Cl2A 1_555 1_555

#END
