
#######################################################################
#
#                 Cambridge Crystallographic Data Centre
#                                CCDC 
#
#######################################################################
#
# If this CIF has been generated from an entry in the Cambridge 
# Structural Database, then it will include bibliographic, chemical, 
# crystal, experimental, refinement or atomic coordinate data resulting 
# from the CCDC's data processing and validation procedures.
#
#######################################################################

data_WIXJIW
_symmetry_cell_setting           trigonal
_symmetry_space_group_name_H-M   'P 32'
_symmetry_Int_Tables_number      145
_space_group_name_Hall           'P 32'
loop_
_symmetry_equiv_pos_site_id
_symmetry_equiv_pos_as_xyz
1 x,y,z
2 -y,x-y,2/3+z
3 -x+y,-x,1/3+z
_cell_length_a                   9.865(1)
_cell_length_b                   9.865(1)
_cell_length_c                   44.179(2)
_cell_angle_alpha                90
_cell_angle_beta                 90
_cell_angle_gamma                120
_cell_volume                     3723.41
loop_
_atom_site_label
_atom_site_type_symbol
_atom_site_fract_x
_atom_site_fract_y
_atom_site_fract_z
Zn1 Zn -0.33331(8) -0.82092(7) 0.27773(2)
Zn2 Zn -0.38183(7) -0.71513 0.44440(2)
O1 O -0.3767(7) -1.0170 0.24301(13)
O2 O -0.1858(5) -0.7779(6) 0.24074(11)
O3 O -0.2895(7) -0.9722(6) 0.31222(13)
O4 O -0.4803(5) -0.9245(5) 0.31478(10)
O5 O -0.5548(5) -0.7813(5) 0.41583(11)
O6 O -0.3921(6) -0.5575(6) 0.39255(10)
O7 O -0.1110(5) -0.5598(5) 0.13952(10)
O8 O -0.2745(6) -0.49846(6) 0.16286(10)
N1 N 0.5092(6) -0.8204(5) 0.13117(11)
N2 N -1.1745(6) -1.6618 0.42422(11)
N3 N -0.4884(6) -0.7683(6) 0.25613(11)
N4 N -0.1793(6) -0.6137 0.29948(12)
C1 C -0.2595(8) -0.9162(9) 0.22983(17)
C2 C -0.2060(6) -0.9511(7) 0.20113(13)
C3 C -0.2696(7) -1.1039(7) 0.19059(14)
C4 C -0.2183(7) -1.1346 0.16434(15)
C5 C -0.1040(7) -1.0159(8) 0.14696(15)
C6 C -0.0402(8) -0.8645(8) 0.15736(15)
C7 C -0.0899(7) -0.8319(7) 0.18440(14)
C8 C -0.0565(8) -1.0490(8) 0.11704(16)
C9 C 0.0853(8) -1.0224(8) 0.10948(17)
C10 C 0.2228(7) -0.9678(7) 0.12852(14)
C11 C 0.2188(8) -1.0156(7) 0.15822(16)
C12 C 0.3571(8) -0.9682(7) 0.17358(15)
C13 C 0.5005(8) -0.8704(7) 0.16004(15)
C14 C 0.3708(8) -0.8704(6) 0.11632(14)
C15 C -0.4065(8) -0.9886(7) 0.32504(16)
C16 C -0.4610(6) -1.0778(6) 0.35435(13)
C17 C -0.3971(7) -1.1663(8) 0.36437(15)
C18 C -0.4484(7) -1.2507(7) 0.39131(16)
C19 C -0.5623(7) -1.2446(8) 0.40853(16)
C20 C -0.6256(8) -1.1575(8) 0.39806(15)
C21 C -0.5776(7) -1.0762(8) 0.37113(14)
C22 C -0.6111(8) -1.3262(9) 0.43828(16)
C23 C -0.7531(8) -1.4419(9) 0.44595(17)
C24 C -0.8896(7) -1.5245(7) 0.42683(14)
C25 C -0.8856(8) -1.5672(7) 0.39736(17)
C26 C -1.0248(9) -1.6586(8) 0.38205(15)
C27 C -1.1669(8) -1.7058(7) 0.39597(15)
C28 C -1.0372(8) -1.5754(7) 0.43891(14)
C29 C -0.5182(9) -0.6800(10) 0.39455(16)
C30 C -0.6423(8) -0.7267(8) 0.37007(15)
C31 C -0.7832(8) -0.8655(9) 0.37049(16)
C32 C -0.8831(9) -0.9071(11) 0.3455(2)
C33 C -0.8437(11) -0.8135(13) 0.3201(2)
C34 C -0.7113(11) -0.6712(12) 0.32069(17)
C35 C -0.6057(9) -0.6233(9) 0.34572(16)
C36 C -0.9447(10) -0.8690(14) 0.2938(2)
C37 C -0.9012(10) -0.8558(13) 0.2647(2)
C38 C -0.7398(9) -0.7891(10) 0.25283(18)
C39 C -0.6911(11) -0.6943(11) 0.22730(19)
C40 C -0.5391(11) -0.6343(9) 0.21726(18)
C41 C -0.4399(9) -0.6719(8) 0.23164(17)
C42 C -0.6338(8) -0.8233(9) 0.26595(15)
C43 C -0.1493(9) -0.4942(9) 0.16133(16)
C44 C -0.0257(8) -0.4184(8) 0.18533(15)
C45 C -0.0605(9) -0.3500(9) 0.20942(16)
C46 C 0.0440(11) -0.2937(11) 0.23417(17)
C47 C 0.1778(13) -0.3050(10) 0.2349(2)
C48 C 0.2164(11) -0.3604(8) 0.20909(19)
C49 C 0.1153(9) -0.4163(8) 0.18506(16)
C50 C 0.2786(14) -0.2574(10) 0.2617(2)
C51 C 0.2328(13) -0.2893(11) 0.2911(2)
C52 C 0.0733(10) -0.3804(9) 0.30263(17)
C53 C 0.0246(11) -0.3364(11) 0.32820(19)
C54 C -0.1271(9) -0.4260(11) 0.33813(18)
C55 C -0.2259(8) -0.5641(10) 0.32345(18)
C56 C -0.0326(8) -0.5225(8) 0.28955(15)
Zn2_2 Zn -1.38183(7) -1.71513 0.44440(2)
Zn2A Zn 0.71513 -0.66670(7) 0.11107(2)
Zn2A_2 Zn -0.28487 -0.66670(7) 0.11107(2)
O7B O -0.4488(7) -0.8890(5) 0.47285(10)
N1B N -0.3296(8) -0.5092(6) 0.46450(11)
N2_2 N -0.1745(6) -0.6618 0.42422(11)
O9 O -0.9725(16) -0.666(2) 0.6117(5)
loop_
_geom_bond_atom_site_label_1
_geom_bond_atom_site_label_2
_geom_bond_site_symmetry_1
_geom_bond_site_symmetry_2
Zn1 O1 1_555 1_555
Zn2 O5 1_555 1_555
O1 C1 1_555 1_555
O2 Zn1 1_555 1_555
O3 Zn1 1_555 1_555
O4 Zn1 1_555 1_555
O5 C29 1_555 1_555
O6 C29 1_555 1_555
O7 C43 1_555 1_555
O8 C43 1_555 1_555
N1 C13 1_555 1_555
N2 C27 1_555 1_555
N3 Zn1 1_555 1_555
N4 Zn1 1_555 1_555
C1 O2 1_555 1_555
C2 C1 1_555 1_555
C3 C2 1_555 1_555
C4 C3 1_555 1_555
C5 C4 1_555 1_555
C6 C5 1_555 1_555
C7 C2 1_555 1_555
C8 C5 1_555 1_555
C9 C8 1_555 1_555
C10 C9 1_555 1_555
C11 C10 1_555 1_555
C12 C11 1_555 1_555
C13 C12 1_555 1_555
C14 N1 1_555 1_555
C15 O3 1_555 1_555
C16 C15 1_555 1_555
C17 C16 1_555 1_555
C18 C17 1_555 1_555
C19 C18 1_555 1_555
C20 C19 1_555 1_555
C21 C16 1_555 1_555
C22 C19 1_555 1_555
C23 C22 1_555 1_555
C24 C23 1_555 1_555
C25 C24 1_555 1_555
C26 C25 1_555 1_555
C27 C26 1_555 1_555
C28 N2 1_555 1_555
C29 C30 1_555 1_555
C30 C31 1_555 1_555
C31 C32 1_555 1_555
C32 C33 1_555 1_555
C33 C34 1_555 1_555
C34 C35 1_555 1_555
C35 C30 1_555 1_555
C36 C33 1_555 1_555
C37 C36 1_555 1_555
C38 C37 1_555 1_555
C39 C38 1_555 1_555
C40 C39 1_555 1_555
C41 N3 1_555 1_555
C42 N3 1_555 1_555
C43 C44 1_555 1_555
C44 C45 1_555 1_555
C45 C46 1_555 1_555
C46 C47 1_555 1_555
C47 C48 1_555 1_555
C48 C49 1_555 1_555
C49 C44 1_555 1_555
C50 C47 1_555 1_555
C51 C50 1_555 1_555
C52 C51 1_555 1_555
C53 C52 1_555 1_555
C54 C53 1_555 1_555
C55 N4 1_555 1_555
C56 N4 1_555 1_555
Zn2_2 N2 1_555 1_555
Zn2A N1 1_555 1_555
Zn2A_2 O7 1_555 1_555
O7B Zn2 1_555 1_555
N1B Zn2 1_555 1_555
N2_2 Zn2 1_555 1_555
O4 C15 1_555 1_555
C6 C7 1_555 1_555
C10 C14 1_555 1_555
C20 C21 1_555 1_555
C24 C28 1_555 1_555
C38 C42 1_555 1_555
C40 C41 1_555 1_555
C52 C56 1_555 1_555
C54 C55 1_555 1_555

#END
