
#######################################################################
#
#                 Cambridge Crystallographic Data Centre
#                                CCDC 
#
#######################################################################
#
# If this CIF has been generated from an entry in the Cambridge 
# Structural Database, then it will include bibliographic, chemical, 
# crystal, experimental, refinement or atomic coordinate data resulting 
# from the CCDC's data processing and validation procedures.
#
#######################################################################

data_WIXLEV
_symmetry_cell_setting           monoclinic
_symmetry_space_group_name_H-M   'C 2/c'
_symmetry_Int_Tables_number      15
_space_group_name_Hall           '-C 2yn'
loop_
_symmetry_equiv_pos_site_id
_symmetry_equiv_pos_as_xyz
1 x,y,z
2 1/2+x,1/2+y,z
3 -x,y,1/2-z
4 1/2-x,1/2+y,1/2-z
5 -x,-y,-z
6 1/2-x,1/2-y,-z
7 x,-y,1/2+z
8 1/2+x,1/2-y,1/2+z
_cell_length_a                   21.519(3)
_cell_length_b                   14.637(2)
_cell_length_c                   48.082(7)
_cell_angle_alpha                90
_cell_angle_beta                 96.458(2)
_cell_angle_gamma                90
_cell_volume                     15048.5
loop_
_atom_site_label
_atom_site_type_symbol
_atom_site_fract_x
_atom_site_fract_y
_atom_site_fract_z
La1 La 0.19585(1) 0.15633(2) 0.12104(1)
N1 N 0.1238(2) 0.2278(3) 0.08478(8)
N2 N 0.2560(2) 0.2915(3) 0.12101(9)
N3 N 0.1892(2) 0.0814(3) 0.16588(8)
N4 N 0.2492(2) 0.0206(3) 0.10921(9)
C1 C 0.0867(2) 0.2076(3) 0.05922(10)
C2 C 0.0596(2) 0.1197(3) 0.05438(10)
C3 C 0.0278(3) 0.0990(3) 0.02858(11)
C4 C 0.0225(3) 0.1619(4) 0.00704(12)
C5 C 0.0489(3) 0.2472(4) 0.01152(11)
C6 C 0.0811(2) 0.2720(3) 0.03700(10)
C7 C 0.0637(2) 0.0492(3) 0.07775(10)
C8 C 0.0187(3) 0.0696(4) 0.09904(12)
C9 C 0.0538(3) -0.0494(3) 0.06715(11)
C10 C 0.1140(3) 0.3645(3) 0.03938(11)
C11 C 0.1725(3) 0.3632(3) 0.02426(13)
C12 C 0.0706(3) 0.4422(3) 0.02739(14)
C13 C 0.1072(2) 0.3020(3) 0.10004(10)
C14 C 0.0382(2) 0.3291(3) 0.09784(11)
C15 C 0.1477(2) 0.3520(3) 0.11848(10)
C16 C 0.2169(3) 0.3657(3) 0.12312(10)
C17 C 0.2366(3) 0.4512(3) 0.13028(13)
C18 C 0.3215(2) 0.3091(3) 0.12589(11)
C19 C 0.3555(3) 0.3267(3) 0.10291(11)
C20 C 0.4204(3) 0.3384(4) 0.10821(12)
C21 C 0.4517(3) 0.3338(4) 0.13451(13)
C22 C 0.4179(3) 0.3197(4) 0.15709(12)
C23 C 0.3529(3) 0.3068(3) 0.15313(11)
C24 C 0.3244(3) 0.3337(3) 0.07343(11)
C25 C 0.3507(3) 0.2653(5) 0.05402(14)
C26 C 0.3304(4) 0.4326(4) 0.06224(14)
C27 C 0.3182(3) 0.2925(4) 0.17878(12)
C28 C 0.3279(4) 0.3723(5) 0.19940(14)
C29 C 0.3380(3) 0.2020(5) 0.19325(14)
C30 C 0.1934(3) 0.0993(3) 0.19496(11)
C31 C 0.1726(3) 0.1846(3) 0.20466(11)
C32 C 0.1791(3) 0.2021(4) 0.23337(12)
C33 C 0.2068(3) 0.1380(4) 0.25231(12)
C34 C 0.2274(3) 0.0566(4) 0.24280(12)
C35 C 0.2227(3) 0.0358(4) 0.21430(11)
C36 C 0.1417(3) 0.2547(3) 0.18457(11)
C37 C 0.1439(3) 0.3528(4) 0.19634(13)
C38 C 0.0744(3) 0.2295(4) 0.17379(13)
C39 C 0.2511(3) -0.0529(4) 0.20536(12)
C40 C 0.3219(3) -0.0524(5) 0.21320(15)
C41 C 0.2234(4) -0.1359(4) 0.21828(15)
C42 C 0.1535(2) 0.0067(3) 0.15601(10)
C43 C 0.0991(3) -0.0211(3) 0.17150(11)
C44 C 0.1607(3) -0.0404(3) 0.13202(10)
C45 C 0.2113(2) -0.0521(3) 0.11390(10)
C46 C 0.2162(3) -0.1361(3) 0.10194(11)
C47 C 0.2983(3) 0.0104(3) 0.09231(11)
C48 C 0.3608(3) 0.0046(3) 0.10508(12)
C49 C 0.4091(3) -0.0012(4) 0.08790(13)
C50 C 0.3975(3) 0.0002(4) 0.05922(13)
C51 C 0.3366(3) 0.0051(3) 0.04693(12)
C52 C 0.2861(2) 0.0103(3) 0.06286(11)
C53 C 0.3756(3) -0.0027(4) 0.13657(12)
C54 C 0.4302(3) 0.0579(6) 0.14762(16)
C55 C 0.3890(4) -0.1015(5) 0.14516(14)
C56 C 0.2205(3) 0.0189(3) 0.04792(11)
C57 C 0.2120(3) 0.1121(4) 0.03381(13)
C58 C 0.2045(3) -0.0577(4) 0.02672(13)
H1 H 0.00917 0.04043 0.02561
H2 H 0.00094 0.14653 -0.01068
H3 H 0.04489 0.29030 -0.00333
H4 H 0.10699 0.05277 0.08778
H5 H 0.02750 0.13035 0.10707
H6 H 0.02370 0.02366 0.11397
H7 H -0.02433 0.06778 0.08984
H8 H 0.01005 -0.05757 0.05935
H9 H 0.06372 -0.09201 0.08274
H10 H 0.08116 -0.06153 0.05262
H11 H 0.12687 0.37731 0.05964
H12 H 0.20012 0.31370 0.03178
H13 H 0.19432 0.42173 0.02705
H14 H 0.16057 0.35316 0.00422
H15 H 0.06192 0.43501 0.00706
H16 H 0.09103 0.50120 0.03164
H17 H 0.03127 0.43978 0.03585
H18 H 0.03156 0.37132 0.11304
H19 H 0.01251 0.27430 0.09929
H20 H 0.02618 0.35890 0.07979
H21 H 0.12634 0.38583 0.13133
H22 H 0.28000 0.46354 0.13428
H23 H 0.20696 0.49888 0.13131
H24 H 0.44353 0.34998 0.09288
H25 H 0.49593 0.34007 0.13730
H26 H 0.43912 0.31874 0.17551
H27 H 0.27891 0.32005 0.07368
H28 H 0.34812 0.20366 0.06174
H29 H 0.39444 0.28030 0.05228
H30 H 0.32637 0.26802 0.03554
H31 H 0.31261 0.47571 0.07479
H32 H 0.30765 0.43737 0.04345
H33 H 0.37458 0.44705 0.06142
H34 H 0.27251 0.28850 0.17222
H35 H 0.37264 0.38007 0.20529
H36 H 0.30609 0.35944 0.21582
H37 H 0.31102 0.42833 0.19031
H38 H 0.32691 0.15116 0.18037
H39 H 0.31649 0.19473 0.21002
H40 H 0.38333 0.20222 0.19859
H41 H 0.16450 0.25831 0.24007
H42 H 0.21142 0.15090 0.27179
H43 H 0.24531 0.01293 0.25595
H44 H 0.16575 0.25530 0.16795
H45 H 0.12691 0.39530 0.18166
H46 H 0.18728 0.36935 0.20272
H47 H 0.11883 0.35612 0.21212
H48 H 0.07397 0.17114 0.16376
H49 H 0.05635 0.27724 0.16108
H50 H 0.04968 0.22380 0.18963
H51 H 0.24261 -0.05806 0.18454
H52 H 0.34052 -0.00320 0.20306
H53 H 0.33933 -0.11118 0.20819
H54 H 0.33125 -0.04234 0.23339
H55 H 0.23578 -0.13603 0.23853
H56 H 0.23885 -0.19153 0.21004
H57 H 0.17772 -0.13369 0.21462
H58 H 0.07129 -0.06175 0.15964
H59 H 0.07595 0.03343 0.17612
H60 H 0.11485 -0.05313 0.18877
H61 H 0.12426 -0.07394 0.12535
H62 H 0.24706 -0.14658 0.08963
H63 H 0.18877 -0.18400 0.10592
H64 H 0.45103 -0.00623 0.09632
H65 H 0.43107 -0.00221 0.04799
H66 H 0.32863 0.00484 0.02709
H67 H 0.33795 0.01780 0.14530
H68 H 0.46885 0.03382 0.14143
H69 H 0.43396 0.05882 0.16812
H70 H 0.42296 0.12009 0.14044
H71 H 0.35254 -0.13938 0.13892
H72 H 0.39782 -0.10520 0.16557
H73 H 0.42533 -0.12355 0.13651
H74 H 0.19049 0.01495 0.06234
H75 H 0.21955 0.16029 0.04793
H76 H 0.16919 0.11741 0.02452
H77 H 0.24169 0.11844 0.01992
H78 H 0.23297 -0.05495 0.01220
H79 H 0.16131 -0.05036 0.01809
H80 H 0.20895 -0.11688 0.03626
O1 O 0.1362(2) 0.6358(3) 0.07896(10)
C59 C 0.0845(3) 0.6036(4) 0.09214(14)
C60 C 0.0337(3) 0.6740(4) 0.08605(17)
C61 C 0.0428(4) 0.6975(4) 0.05628(17)
C62 C 0.1135(4) 0.6932(5) 0.05610(14)
H81 H 0.09606 0.59741 0.11257
H82 H 0.07040 0.54340 0.08446
H83 H -0.00830 0.64803 0.08749
H84 H 0.04040 0.72769 0.09857
H85 H 0.02664 0.75932 0.05128
H86 H 0.02152 0.65258 0.04306
H87 H 0.12418 0.66737 0.03822
H88 H 0.13196 0.75505 0.05849
O2 O 0.1767(2) 0.6562(3) 0.15690(9)
C63 C 0.1691(4) 0.5966(5) 0.17928(16)
C64 C 0.1175(6) 0.6192(9) 0.1916(3)
C65 C 0.0889(4) 0.7032(5) 0.17915(18)
C66 C 0.1344(3) 0.7315(4) 0.15852(14)
H89 H 0.16503 0.53306 0.17225
H90 H 0.20646 0.59983 0.19327
H91 H 0.12921 0.62860 0.21193
H92 H 0.08680 0.56864 0.18924
H93 H 0.08576 0.75085 0.19354
H94 H 0.04669 0.69101 0.16940
H95 H 0.11154 0.74423 0.13989
H96 H 0.15761 0.78710 0.16521
O3 O 0.3109(2) 0.7008(3) 0.06818(9)
C67 C 0.2999(4) 0.6834(5) 0.03866(14)
C68 C 0.3458(4) 0.7426(5) 0.02516(15)
C69 C 0.3995(3) 0.7516(5) 0.04759(14)
C70 C 0.3663(3) 0.7553(4) 0.07361(13)
H97 H 0.25641 0.69948 0.03142
H98 H 0.30691 0.61806 0.03470
H99 H 0.35897 0.71274 0.00830
H100 H 0.32740 0.80296 0.01988
H101 H 0.42365 0.80818 0.04529
H102 H 0.42791 0.69830 0.04788
H103 H 0.39350 0.73081 0.08987
H104 H 0.35517 0.81916 0.07774
O4 O 0.3465(2) 0.6467(3) 0.14605(9)
C71 C 0.4039(4) 0.5989(6) 0.14587(19)
C72 C 0.4292(4) 0.5850(7) 0.1759(2)
C73 C 0.4016(4) 0.6672(9) 0.18948(19)
C74 C 0.3392(4) 0.6743(6) 0.17369(14)
H105 H 0.43360 0.63492 0.13601
H106 H 0.39686 0.53929 0.13628
H107 H 0.47550 0.58626 0.17847
H108 H 0.41439 0.52684 0.18337
H109 H 0.39879 0.65652 0.20963
H110 H 0.42662 0.72301 0.18728
H111 H 0.30913 0.63389 0.18191
H112 H 0.32358 0.73789 0.17389
K1 K 0.24637(6) 0.65196(9) 0.10990(3)
C46_2 C 0.2162(3) 0.8639(3) 0.10194(11)
H62_2 H 0.24706 0.85342 0.08963
H63_2 H 0.18877 0.81600 0.10592
K1_2 K 0.24637(6) -0.34804(9) 0.10990(3)
loop_
_geom_bond_atom_site_label_1
_geom_bond_atom_site_label_2
_geom_bond_site_symmetry_1
_geom_bond_site_symmetry_2
La1 N1 1_555 1_555
N1 C1 1_555 1_555
N2 La1 1_555 1_555
N3 La1 1_555 1_555
N4 La1 1_555 1_555
C1 C2 1_555 1_555
C2 C3 1_555 1_555
C3 C4 1_555 1_555
C4 C5 1_555 1_555
C5 C6 1_555 1_555
C6 C1 1_555 1_555
C7 C2 1_555 1_555
C8 C7 1_555 1_555
C9 C7 1_555 1_555
C10 C6 1_555 1_555
C11 C10 1_555 1_555
C12 C10 1_555 1_555
C13 N1 1_555 1_555
C14 C13 1_555 1_555
C15 C13 1_555 1_555
C16 N2 1_555 1_555
C17 C16 1_555 1_555
C18 N2 1_555 1_555
C19 C18 1_555 1_555
C20 C19 1_555 1_555
C21 C20 1_555 1_555
C22 C21 1_555 1_555
C23 C18 1_555 1_555
C24 C19 1_555 1_555
C25 C24 1_555 1_555
C26 C24 1_555 1_555
C27 C23 1_555 1_555
C28 C27 1_555 1_555
C29 C27 1_555 1_555
C30 N3 1_555 1_555
C31 C30 1_555 1_555
C32 C31 1_555 1_555
C33 C32 1_555 1_555
C34 C33 1_555 1_555
C35 C30 1_555 1_555
C36 C31 1_555 1_555
C37 C36 1_555 1_555
C38 C36 1_555 1_555
C39 C35 1_555 1_555
C40 C39 1_555 1_555
C41 C39 1_555 1_555
C42 N3 1_555 1_555
C43 C42 1_555 1_555
C44 C42 1_555 1_555
C45 N4 1_555 1_555
C46 C45 1_555 1_555
C47 N4 1_555 1_555
C48 C47 1_555 1_555
C49 C48 1_555 1_555
C50 C49 1_555 1_555
C51 C50 1_555 1_555
C52 C47 1_555 1_555
C53 C48 1_555 1_555
C54 C53 1_555 1_555
C55 C53 1_555 1_555
C56 C52 1_555 1_555
C57 C56 1_555 1_555
C58 C56 1_555 1_555
H1 C3 1_555 1_555
H2 C4 1_555 1_555
H3 C5 1_555 1_555
H4 C7 1_555 1_555
H5 C8 1_555 1_555
H6 C8 1_555 1_555
H7 C8 1_555 1_555
H8 C9 1_555 1_555
H9 C9 1_555 1_555
H10 C9 1_555 1_555
H11 C10 1_555 1_555
H12 C11 1_555 1_555
H13 C11 1_555 1_555
H14 C11 1_555 1_555
H15 C12 1_555 1_555
H16 C12 1_555 1_555
H17 C12 1_555 1_555
H18 C14 1_555 1_555
H19 C14 1_555 1_555
H20 C14 1_555 1_555
H21 C15 1_555 1_555
H22 C17 1_555 1_555
H23 C17 1_555 1_555
H24 C20 1_555 1_555
H25 C21 1_555 1_555
H26 C22 1_555 1_555
H27 C24 1_555 1_555
H28 C25 1_555 1_555
H29 C25 1_555 1_555
H30 C25 1_555 1_555
H31 C26 1_555 1_555
H32 C26 1_555 1_555
H33 C26 1_555 1_555
H34 C27 1_555 1_555
H35 C28 1_555 1_555
H36 C28 1_555 1_555
H37 C28 1_555 1_555
H38 C29 1_555 1_555
H39 C29 1_555 1_555
H40 C29 1_555 1_555
H41 C32 1_555 1_555
H42 C33 1_555 1_555
H43 C34 1_555 1_555
H44 C36 1_555 1_555
H45 C37 1_555 1_555
H46 C37 1_555 1_555
H47 C37 1_555 1_555
H48 C38 1_555 1_555
H49 C38 1_555 1_555
H50 C38 1_555 1_555
H51 C39 1_555 1_555
H52 C40 1_555 1_555
H53 C40 1_555 1_555
H54 C40 1_555 1_555
H55 C41 1_555 1_555
H56 C41 1_555 1_555
H57 C41 1_555 1_555
H58 C43 1_555 1_555
H59 C43 1_555 1_555
H60 C43 1_555 1_555
H61 C44 1_555 1_555
H62 C46 1_555 1_555
H63 C46 1_555 1_555
H64 C49 1_555 1_555
H65 C50 1_555 1_555
H66 C51 1_555 1_555
H67 C53 1_555 1_555
H68 C54 1_555 1_555
H69 C54 1_555 1_555
H70 C54 1_555 1_555
H71 C55 1_555 1_555
H72 C55 1_555 1_555
H73 C55 1_555 1_555
H74 C56 1_555 1_555
H75 C57 1_555 1_555
H76 C57 1_555 1_555
H77 C57 1_555 1_555
H78 C58 1_555 1_555
H79 C58 1_555 1_555
H80 C58 1_555 1_555
O1 C59 1_555 1_555
C59 C60 1_555 1_555
C60 C61 1_555 1_555
C61 C62 1_555 1_555
C62 O1 1_555 1_555
H81 C59 1_555 1_555
H82 C59 1_555 1_555
H83 C60 1_555 1_555
H84 C60 1_555 1_555
H85 C61 1_555 1_555
H86 C61 1_555 1_555
H87 C62 1_555 1_555
H88 C62 1_555 1_555
O2 C63 1_555 1_555
C63 C64 1_555 1_555
C64 C65 1_555 1_555
C65 C66 1_555 1_555
C66 O2 1_555 1_555
H89 C63 1_555 1_555
H90 C63 1_555 1_555
H91 C64 1_555 1_555
H92 C64 1_555 1_555
H93 C65 1_555 1_555
H94 C65 1_555 1_555
H95 C66 1_555 1_555
H96 C66 1_555 1_555
O3 C67 1_555 1_555
C67 C68 1_555 1_555
C68 C69 1_555 1_555
C69 C70 1_555 1_555
C70 O3 1_555 1_555
H97 C67 1_555 1_555
H98 C67 1_555 1_555
H99 C68 1_555 1_555
H100 C68 1_555 1_555
H101 C69 1_555 1_555
H102 C69 1_555 1_555
H103 C70 1_555 1_555
H104 C70 1_555 1_555
O4 C71 1_555 1_555
C71 C72 1_555 1_555
C72 C73 1_555 1_555
C73 C74 1_555 1_555
C74 O4 1_555 1_555
H105 C71 1_555 1_555
H106 C71 1_555 1_555
H107 C72 1_555 1_555
H108 C72 1_555 1_555
H109 C73 1_555 1_555
H110 C73 1_555 1_555
H111 C74 1_555 1_555
H112 C74 1_555 1_555
K1 C17 1_555 1_555
C46_2 K1 1_555 1_555
H62_2 C46_2 1_555 1_555
H63_2 C46_2 1_555 1_555
K1_2 C46 1_555 1_555
C15 C16 1_555 1_555
C22 C23 1_555 1_555
C34 C35 1_555 1_555
C44 C45 1_555 1_555
C51 C52 1_555 1_555
O1 K1 1_555 1_555
O2 K1 1_555 1_555
O3 K1 1_555 1_555
O4 K1 1_555 1_555

#END
