
#######################################################################
#
#                 Cambridge Crystallographic Data Centre
#                                CCDC 
#
#######################################################################
#
# If this CIF has been generated from an entry in the Cambridge 
# Structural Database, then it will include bibliographic, chemical, 
# crystal, experimental, refinement or atomic coordinate data resulting 
# from the CCDC's data processing and validation procedures.
#
#######################################################################

data_WIXNUO01
_symmetry_cell_setting           orthorhombic
_symmetry_space_group_name_H-M   'P c a 21'
_symmetry_Int_Tables_number      29
_space_group_name_Hall           'P 2c -2ac'
loop_
_symmetry_equiv_pos_site_id
_symmetry_equiv_pos_as_xyz
1 x,y,z
2 -x,-y,1/2+z
3 1/2+x,-y,z
4 1/2-x,y,1/2+z
_cell_length_a                   6.833(2)
_cell_length_b                   11.103(3)
_cell_length_c                   17.865(5)
_cell_angle_alpha                90
_cell_angle_beta                 90
_cell_angle_gamma                90
_cell_volume                     1355.36
loop_
_atom_site_label
_atom_site_type_symbol
_atom_site_fract_x
_atom_site_fract_y
_atom_site_fract_z
Mn1 Mn 0.80282(14) 0.18595(9) 0.91941(7)
O1 O 1.0911(7) 0.1970(5) 0.8681(3)
H1 H 1.1669 0.2423 0.8922
H2 H 1.1126 0.1262 0.8538
O2 O 0.8457(6) -0.0139(4) 0.9124(4)
O3 O 1.0073(7) -0.1714(4) 0.9630(3)
O4 O 0.8210(7) 0.1385(5) 1.3017(3)
O5 O 0.7214(7) 0.2918(4) 1.2291(3)
H3 H 0.7089 0.3281 1.2701
N1 N 0.9111(8) 0.1116(5) 1.0374(4)
C1 C 0.8919(10) 0.1776(7) 1.1004(4)
C2 C 0.8596(11) 0.1225(7) 1.1697(4)
C3 C 0.8030(10) 0.1865(6) 1.2410(4)
C4 C 0.8650(12) -0.0024(7) 1.1743(5)
H4 H 0.8450 -0.0415 1.2210
C5 C 0.9000(11) -0.0702(6) 1.1099(5)
H5 H 0.9138 -0.1553 1.1126
C6 C 0.9141(10) -0.0102(6) 1.0416(5)
C7 C 0.9251(10) -0.0709(7) 0.9667(5)
O6 O 0.7716(7) 0.5688(4) 0.8790(3)
O7 O 0.7778(8) 0.3669(5) 0.8667(3)
O8 O 1.1846(7) 0.2809(4) 1.2073(3)
O9 O 1.0822(8) 0.4633(5) 1.2482(3)
H6 H 1.1799 0.4828 1.2740
N2 N 0.8469(9) 0.3364(5) 1.0126(4)
C8 C 0.9079(10) 0.3126(7) 1.0818(5)
C9 C 0.9820(10) 0.4028(7) 1.1271(5)
C10 C 1.0919(11) 0.3742(6) 1.1968(5)
C11 C 0.9699(10) 0.5233(7) 1.1028(5)
H7 H 1.0086 0.5870 1.1350
C12 C 0.9017(10) 0.5476(7) 1.0322(5)
H8 H 0.8905 0.6282 1.0150
C13 C 0.8486(10) 0.4503(8) 0.9857(5)
C14 C 0.7929(9) 0.4655(6) 0.9070(5)
Mn1B Mn 1.30282(14) -0.18595(9) 0.91941(7)
Mn1C Mn 0.69718(14) 0.18595(9) 1.41941(7)
O3B O 0.5073(7) 0.1714(4) 0.9630(3)
O4C O 0.6790(7) 0.1385(5) 0.8017(3)
loop_
_geom_bond_atom_site_label_1
_geom_bond_atom_site_label_2
_geom_bond_site_symmetry_1
_geom_bond_site_symmetry_2
Mn1 O1 1_555 1_555
O1 H1 1_555 1_555
H2 O1 1_555 1_555
O2 Mn1 1_555 1_555
O3 C7 1_555 1_555
O4 C3 1_555 1_555
O5 H3 1_555 1_555
N1 Mn1 1_555 1_555
C1 N1 1_555 1_555
C2 C1 1_555 1_555
C3 O5 1_555 1_555
C4 C2 1_555 1_555
H4 C4 1_555 1_555
C5 C4 1_555 1_555
H5 C5 1_555 1_555
C6 N1 1_555 1_555
C7 O2 1_555 1_555
O6 C14 1_555 1_555
O7 Mn1 1_555 1_555
O8 C10 1_555 1_555
O9 H6 1_555 1_555
N2 Mn1 1_555 1_555
C8 C1 1_555 1_555
C9 C8 1_555 1_555
C10 O9 1_555 1_555
C11 C9 1_555 1_555
H7 C11 1_555 1_555
C12 C11 1_555 1_555
H8 C12 1_555 1_555
C13 N2 1_555 1_555
C14 O7 1_555 1_555
Mn1B O3 1_555 1_555
Mn1C O4 1_555 1_555
O3B Mn1 1_555 1_555
O4C Mn1 1_555 1_555
C2 C3 1_555 1_555
C5 C6 1_555 1_555
C6 C7 1_555 1_555
N2 C8 1_555 1_555
C9 C10 1_555 1_555
C12 C13 1_555 1_555
C13 C14 1_555 1_555

#END
