
#######################################################################
#
#                 Cambridge Crystallographic Data Centre
#                                CCDC 
#
#######################################################################
#
# If this CIF has been generated from an entry in the Cambridge 
# Structural Database, then it will include bibliographic, chemical, 
# crystal, experimental, refinement or atomic coordinate data resulting 
# from the CCDC's data processing and validation procedures.
#
#######################################################################

data_WIXNUO
_symmetry_cell_setting           orthorhombic
_symmetry_space_group_name_H-M   'P c a 21'
_symmetry_Int_Tables_number      29
_space_group_name_Hall           'P 2c -2ac'
loop_
_symmetry_equiv_pos_site_id
_symmetry_equiv_pos_as_xyz
1 x,y,z
2 -x,-y,1/2+z
3 1/2+x,-y,z
4 1/2-x,y,1/2+z
_cell_length_a                   6.9352(6)
_cell_length_b                   11.1495(7)
_cell_length_c                   17.8220(17)
_cell_angle_alpha                90
_cell_angle_beta                 90
_cell_angle_gamma                90
_cell_volume                     1378.07
loop_
_atom_site_label
_atom_site_type_symbol
_atom_site_fract_x
_atom_site_fract_y
_atom_site_fract_z
Mn1 Mn 0.30942(17) 0.81532(11) -0.15186(7)
N1 N 0.3534(11) 0.6657(6) -0.0593(4)
N2 N 0.4173(10) 0.8885(6) -0.0340(4)
O1 O 0.2730(10) 0.4357(5) -0.1915(4)
O2 O 0.2824(10) 0.6347(5) -0.2033(4)
O3 O 0.5846(11) 0.5370(6) 0.1749(4)
H1 H 0.6198 0.5589 0.2166
O4 O 0.6851(10) 0.7172(6) 0.1367(4)
O5 O 0.3533(8) 1.0147(5) -0.1575(4)
O6 O 0.5173(9) 1.1705(5) -0.1084(4)
O7 O 0.2260(11) 0.7077(5) 0.1581(4)
H2 H 0.1818 0.6823 0.1976
O8 O 0.3141(10) 0.8630(6) 0.2300(3)
O9 O 0.5955(10) 0.8054(6) -0.2037(4)
H3 H 0.6412 0.7350 -0.1991
H4 H 0.6691 0.8562 -0.1826
C1 C 0.3540(12) 0.5515(8) -0.0839(5)
C2 C 0.4100(14) 0.4557(8) -0.0403(5)
H5 H 0.4028 0.3774 -0.0580
C3 C 0.4776(13) 0.4808(8) 0.0315(5)
H6 H 0.5167 0.4187 0.0628
C4 C 0.4867(12) 0.5994(8) 0.0564(5)
C5 C 0.4133(13) 0.6902(8) 0.0096(5)
C6 C 0.3975(12) 0.8228(8) 0.0288(5)
C7 C 0.3605(13) 0.8773(8) 0.0987(5)
C8 C 0.3723(14) 1.0035(8) 0.1022(5)
H7 H 0.3602 1.0420 0.1483
C9 C 0.4010(13) 1.0699(8) 0.0390(6)
H8 H 0.4081 1.1531 0.0410
C10 C 0.4196(13) 1.0082(8) -0.0294(6)
C11 C 0.3007(11) 0.5392(7) -0.1666(5)
C12 C 0.5966(14) 0.6275(8) 0.1275(5)
C13 C 0.2977(12) 0.8150(7) 0.1687(5)
C14 C 0.4323(12) 1.0694(8) -0.1049(5)
Mn1B Mn 0.80942(17) 1.18468(11) -0.15186(7)
Mn1C Mn 0.19058(17) 0.81532(11) 0.34814(7)
O6B O 0.0173(9) 0.8295(5) -0.1084(4)
O8C O 0.1859(10) 0.8630(6) -0.2700(3)
loop_
_geom_bond_atom_site_label_1
_geom_bond_atom_site_label_2
_geom_bond_site_symmetry_1
_geom_bond_site_symmetry_2
Mn1 N1 1_555 1_555
N1 C1 1_555 1_555
N2 Mn1 1_555 1_555
O1 C11 1_555 1_555
O2 Mn1 1_555 1_555
O3 H1 1_555 1_555
O4 C12 1_555 1_555
O5 Mn1 1_555 1_555
O6 C14 1_555 1_555
O7 H2 1_555 1_555
O8 C13 1_555 1_555
O9 Mn1 1_555 1_555
H3 O9 1_555 1_555
H4 O9 1_555 1_555
C1 C2 1_555 1_555
C2 H5 1_555 1_555
C3 C2 1_555 1_555
H6 C3 1_555 1_555
C4 C3 1_555 1_555
C5 N1 1_555 1_555
C6 N2 1_555 1_555
C7 C6 1_555 1_555
C8 C7 1_555 1_555
H7 C8 1_555 1_555
C9 C8 1_555 1_555
H8 C9 1_555 1_555
C10 N2 1_555 1_555
C11 O2 1_555 1_555
C12 O3 1_555 1_555
C13 O7 1_555 1_555
C14 O5 1_555 1_555
Mn1B O6 1_555 1_555
Mn1C O8 1_555 1_555
O6B Mn1 1_555 1_555
O8C Mn1 1_555 1_555
C1 C11 1_555 1_555
C4 C5 1_555 1_555
C4 C12 1_555 1_555
C5 C6 1_555 1_555
C7 C13 1_555 1_555
C9 C10 1_555 1_555
C10 C14 1_555 1_555

#END
