
#######################################################################
#
#                 Cambridge Crystallographic Data Centre
#                                CCDC 
#
#######################################################################
#
# If this CIF has been generated from an entry in the Cambridge 
# Structural Database, then it will include bibliographic, chemical, 
# crystal, experimental, refinement or atomic coordinate data resulting 
# from the CCDC's data processing and validation procedures.
#
#######################################################################

data_WIXPAW
_symmetry_cell_setting           orthorhombic
_symmetry_space_group_name_H-M   'P c a 21'
_symmetry_Int_Tables_number      29
_space_group_name_Hall           'P 2c -2ac'
loop_
_symmetry_equiv_pos_site_id
_symmetry_equiv_pos_as_xyz
1 x,y,z
2 -x,-y,1/2+z
3 1/2+x,-y,z
4 1/2-x,y,1/2+z
_cell_length_a                   6.8586(9)
_cell_length_b                   11.3063(7)
_cell_length_c                   17.9222(12)
_cell_angle_alpha                90
_cell_angle_beta                 90
_cell_angle_gamma                90
_cell_volume                     1389.78
loop_
_atom_site_label
_atom_site_type_symbol
_atom_site_fract_x
_atom_site_fract_y
_atom_site_fract_z
Cd1 Cd 0.31107(18) 0.81281(8) 0.8304(6)
Na1 Na 0.5830(10) 0.6268(4) 0.6984(7)
N1 N 0.357(2) 0.6622(11) 0.9235(9)
N2 N 0.422(2) 0.8884(11) 0.9494(9)
O1 O 0.285(2) 0.6279(10) 0.7779(9)
O2 O 0.275(2) 0.4312(10) 0.7978(9)
O3 O 0.586(2) 0.5396(10) 1.1583(9)
H1 H 0.559(11) 0.579(2) 1.1972(19)
O4 O 0.699(2) 0.7143(10) 1.1180
O5 O 0.3482(16) 1.0182(8) 0.8283(12)
O6 O 0.5015(18) 1.1714(9) 0.8821(9)
O7 O 0.228(2) 0.7099(10) 1.1390(9)
O8 O 0.332(2) 0.8552(9) 1.2111(8)
O9 O 0.608(2) 0.8131(14) 0.7699(11)
H2 H 0.70(2) 0.857(15) 0.783(11)
H3 H 0.64(3) 0.849(17) 0.730(7)
C1 C 0.352(3) 0.5504(14) 0.9008(10)
C2 C 0.406(3) 0.4578(14) 0.9437(12)
H4 H 0.3924 0.3801 0.9275
C3 C 0.486(3) 0.4855(16) 1.0151(11)
H5 H 0.5343 0.4258 1.0457
C4 C 0.492(3) 0.6058(13) 1.0389(10)
C5 C 0.416(2) 0.6850(14) 0.9938(10)
C6 C 0.402(2) 0.8175(14) 1.0116(10)
C7 C 0.366(3) 0.8727(13) 1.0818(10)
C8 C 0.373(2) 0.9951(14) 1.0875(11)
H6 H 0.3553 1.0320 1.1334
C9 C 0.406(2) 1.0628(14) 1.0225(10)
H7 H 0.4222 1.1444 1.0253
C10 C 0.415(2) 1.0060(15) 0.9562(10)
C11 C 0.302(3) 0.5343(12) 0.8168(11)
C12 C 0.597(3) 0.6213(15) 1.1060(11)
C13 C 0.427(3) 1.0692(15) 0.8803(12)
C14 C 0.299(3) 0.8074(15) 1.1509(11)
Cd1B Cd 0.81107(18) 1.18719(8) 0.8304(6)
Cd1C Cd 0.18893(18) 0.81281(8) 1.3304(6)
Na1A Na 0.4170(10) 0.3732(4) 1.1984(7)
Na1B Na 0.0830(10) 0.3732(4) 0.6984(7)
Na1C Na -0.0830(10) 0.6268(4) 1.1984(7)
Na1C_2 Na 0.9170(10) 0.6268(4) 1.1984(7)
O2B O 0.775(2) 0.5688(10) 0.7978(9)
O3A O 0.414(2) 0.4604(10) 0.6583(9)
O3C O 0.914(2) 0.5396(10) 0.6583(9)
O4C O 0.801(2) 0.7143(10) 0.6180
O6B O 0.0015(18) 0.8286(9) 0.8821(9)
O7C O 0.272(2) 0.7099(10) 0.6390(9)
O8C O 0.168(2) 0.8552(9) 0.7111(8)
loop_
_geom_bond_atom_site_label_1
_geom_bond_atom_site_label_2
_geom_bond_site_symmetry_1
_geom_bond_site_symmetry_2
Cd1 N1 1_555 1_555
Na1 O1 1_555 1_555
N1 C1 1_555 1_555
N2 Cd1 1_555 1_555
O1 Cd1 1_555 1_555
O2 C11 1_555 1_555
O3 H1 1_555 1_555
O4 C12 1_555 1_555
O5 Cd1 1_555 1_555
O6 C13 1_555 1_555
O7 C14 1_555 1_555
O8 C14 1_555 1_555
O9 Cd1 1_555 1_555
H2 O9 1_555 1_555
H3 O9 1_555 1_555
C1 C2 1_555 1_555
C2 H4 1_555 1_555
C3 C2 1_555 1_555
H5 C3 1_555 1_555
C4 C3 1_555 1_555
C5 N1 1_555 1_555
C6 N2 1_555 1_555
C7 C6 1_555 1_555
C8 C7 1_555 1_555
H6 C8 1_555 1_555
C9 C8 1_555 1_555
H7 C9 1_555 1_555
C10 N2 1_555 1_555
C11 O1 1_555 1_555
C12 O3 1_555 1_555
C13 O5 1_555 1_555
C14 C7 1_555 1_555
Cd1B O6 1_555 1_555
Cd1C O8 1_555 1_555
Na1A O3 1_555 1_555
Na1B O2 1_555 1_555
Na1C O7 1_555 1_555
Na1C_2 O3 1_555 1_555
O2B Na1 1_555 1_555
O3A Na1 1_555 1_555
O3C Na1 1_555 1_555
O4C Na1 1_555 1_555
O6B Cd1 1_555 1_555
O7C Na1 1_555 1_555
O8C Cd1 1_555 1_555
Na1 O9 1_555 1_555
O4 Na1C_2 1_555 1_555
C1 C11 1_555 1_555
C4 C5 1_555 1_555
C4 C12 1_555 1_555
C5 C6 1_555 1_555
C9 C10 1_555 1_555
C10 C13 1_555 1_555
Na1B O3A 1_555 1_555

#END
