
#######################################################################
#
#                 Cambridge Crystallographic Data Centre
#                                CCDC 
#
#######################################################################
#
# If this CIF has been generated from an entry in the Cambridge 
# Structural Database, then it will include bibliographic, chemical, 
# crystal, experimental, refinement or atomic coordinate data resulting 
# from the CCDC's data processing and validation procedures.
#
#######################################################################

data_WIXWIL
_symmetry_cell_setting           orthorhombic
_symmetry_space_group_name_H-M   'P b c a'
_symmetry_Int_Tables_number      61
_space_group_name_Hall           '-P 2ac 2ab'
loop_
_symmetry_equiv_pos_site_id
_symmetry_equiv_pos_as_xyz
1 x,y,z
2 1/2-x,-y,1/2+z
3 1/2+x,1/2-y,-z
4 -x,1/2+y,1/2-z
5 -x,-y,-z
6 1/2+x,y,1/2-z
7 1/2-x,1/2+y,z
8 x,1/2-y,1/2+z
_cell_length_a                   7.90952(17)
_cell_length_b                   16.0335(4)
_cell_length_c                   15.9946(3)
_cell_angle_alpha                90
_cell_angle_beta                 90
_cell_angle_gamma                90
_cell_volume                     2028.39
loop_
_atom_site_label
_atom_site_type_symbol
_atom_site_fract_x
_atom_site_fract_y
_atom_site_fract_z
Fe1 Fe 0.03875(6) 0.37851(3) 0.49403(3)
S1 S 0.03158(9) 0.49457(4) 0.39254(5)
S2 S -0.22809(10) 0.30101(5) 0.45009(5)
C1 C -0.1996(4) 0.26394(17) 0.54901(17)
N1 N -0.0751(3) 0.30336(15) 0.59208(16)
C2 C -0.0533(4) 0.2860(2) 0.6723(2)
H1 H 0.0306 0.3136 0.7022
C3 C -0.1533(5) 0.2273(2) 0.7125(2)
H2 H -0.1438 0.2176 0.7696
N2 N -0.2927(3) 0.20097(15) 0.58260(15)
C4 C -0.2665(4) 0.1846(2) 0.66415(19)
H3 H -0.3287 0.1420 0.6889
C5 C -0.1865(4) 0.51157(18) 0.38349(17)
N3 N -0.2795(4) 0.46923(18) 0.32838(16)
N4 N -0.2472(3) 0.57140(15) 0.43535(15)
C6 C -0.5181(4) 0.5451(3) 0.3786(2)
H4 H -0.6335 0.5559 0.3768
C7 C -0.4438(5) 0.4867(2) 0.3273(2)
H5 H -0.5123 0.4580 0.2897
C8 C -0.4110(4) 0.5867(2) 0.4332(2)
H6 H -0.4559 0.6265 0.4692
Fe1B Fe -0.46125(6) 0.12149(3) 0.50597(3)
Fe1D Fe -0.03875(6) 0.62149(3) 0.50597(3)
S1D S -0.03158(9) 0.50543(4) 0.60746(5)
N2B N 0.2073(3) 0.29903(15) 0.41740(15)
N4D N 0.2472(3) 0.42860(15) 0.56465(15)
loop_
_geom_bond_atom_site_label_1
_geom_bond_atom_site_label_2
_geom_bond_site_symmetry_1
_geom_bond_site_symmetry_2
Fe1 S1 1_555 1_555
S1 C5 1_555 1_555
S2 Fe1 1_555 1_555
C1 S2 1_555 1_555
N1 Fe1 1_555 1_555
C2 N1 1_555 1_555
H1 C2 1_555 1_555
C3 C2 1_555 1_555
H2 C3 1_555 1_555
N2 C1 1_555 1_555
C4 C3 1_555 1_555
H3 C4 1_555 1_555
C5 N3 1_555 1_555
N3 C7 1_555 1_555
N4 C5 1_555 1_555
C6 H4 1_555 1_555
C7 C6 1_555 1_555
H5 C7 1_555 1_555
C8 N4 1_555 1_555
H6 C8 1_555 1_555
Fe1B N2 1_555 1_555
Fe1D S1 1_555 1_555
S1D Fe1 1_555 1_555
N2B Fe1 1_555 1_555
N4D Fe1 1_555 1_555
C1 N1 1_555 1_555
N2 C4 1_555 1_555
N4 Fe1D 1_555 1_555
C6 C8 1_555 1_555
Fe1D S1D 1_555 1_555

#END
