
#######################################################################
#
#                 Cambridge Crystallographic Data Centre
#                                CCDC 
#
#######################################################################
#
# If this CIF has been generated from an entry in the Cambridge 
# Structural Database, then it will include bibliographic, chemical, 
# crystal, experimental, refinement or atomic coordinate data resulting 
# from the CCDC's data processing and validation procedures.
#
#######################################################################

data_WIYKEV
_symmetry_cell_setting           monoclinic
_symmetry_space_group_name_H-M   'C 2/m'
_symmetry_Int_Tables_number      12
_space_group_name_Hall           '-C 2y'
loop_
_symmetry_equiv_pos_site_id
_symmetry_equiv_pos_as_xyz
1 x,y,z
2 1/2+x,1/2+y,z
3 -x,y,-z
4 1/2-x,1/2+y,-z
5 -x,-y,-z
6 1/2-x,1/2-y,-z
7 x,-y,z
8 1/2+x,1/2-y,z
_cell_length_a                   8.1086(2)
_cell_length_b                   29.9463(8)
_cell_length_c                   11.5853(3)
_cell_angle_alpha                90
_cell_angle_beta                 103.0100(10)
_cell_angle_gamma                90
_cell_volume                     2740.96
loop_
_atom_site_label
_atom_site_type_symbol
_atom_site_fract_x
_atom_site_fract_y
_atom_site_fract_z
C1 C 0.3894(17) 0.1244(5) 0.6828(14)
C2 C 0.277(2) 0.1443(7) 0.7547(15)
H1 H 0.2379 0.1185 0.7930
C3 C 0.360(3) 0.1693(11) 0.846(2)
H2 H 0.4090 0.1951 0.8154
H3 H 0.4524 0.1519 0.8929
C4 C 0.243(3) 0.1852(13) 0.926(2)
H4 H 0.3061 0.2038 0.9895
H5 H 0.1982 0.1598 0.9603
C5 C 0.098(3) 0.2124(9) 0.8473(19)
H6 H 0.0242 0.2239 0.8953
H7 H 0.1447 0.2375 0.8123
C6 C 0.1148(16) 0.1644(5) 0.6806(12)
H8 H 0.1435 0.1874 0.6294
H9 H 0.0516 0.1413 0.6307
C7 C 0.0048(19) 0.1845(7) 0.7563(13)
H10 H -0.0309 0.1591 0.7981
C8 C -0.1573(16) 0.2028(5) 0.6797(12)
C9 C 1.0000 0.0260(6) 0.5000
O1 O 0.4846(13) 0.0935(4) 0.7285(11)
O2 O 0.3859(13) 0.1398(3) 0.5805(10)
O3 O -0.2844(13) 0.1816(4) 0.6789(11)
O4 O -0.1572(14) 0.2371(4) 0.6229(12)
O5 O 0.5000 0.0470(4) 0.5000
O6 O 0.8596(11) 0.0453(3) 0.4635(11)
O7 O 0.261(2) 0.0000 0.2937(19)
H11 H 0.2365 0.0000 0.2211
Pb1 Pb 0.59283(8) 0.0000 0.36909(6)
Pb2 Pb 0.70374(6) 0.090864(16) 0.61259(5)
Pb3 Pb 0.5000 0.21425(2) 0.5000
C1B C 0.6106(17) 0.1244(5) 0.3172(14)
C1_2 C 1.3894(17) 0.1244(5) 0.6828(14)
C1F C 0.3894(17) -0.1244(5) 0.6828(14)
C2B C 0.723(2) 0.1443(7) 0.2453(15)
C2_2 C 1.277(2) 0.1443(7) 0.7547(15)
C2F C 0.277(2) -0.1443(7) 0.7547(15)
H1B H 0.7621 0.1185 0.2070
H1_2 H 1.2379 0.1185 0.7930
H1F H 0.2379 -0.1185 0.7930
C3B C 0.640(3) 0.1693(11) 0.154(2)
C3_2 C 1.360(3) 0.1693(11) 0.846(2)
C3F C 0.360(3) -0.1693(11) 0.846(2)
H2B H 0.5910 0.1951 0.1846
H2_2 H 1.4090 0.1951 0.8154
H2F H 0.4090 -0.1951 0.8154
H3B H 0.5476 0.1519 0.1071
H3_2 H 1.4524 0.1519 0.8929
H3F H 0.4524 -0.1519 0.8929
C4B C 0.757(3) 0.1852(13) 0.074(2)
C4_2 C 1.243(3) 0.1852(13) 0.926(2)
C4F C 0.243(3) -0.1852(13) 0.926(2)
H4B H 0.6939 0.2038 0.0105
H4_2 H 1.3061 0.2038 0.9895
H4F H 0.3061 -0.2038 0.9895
H5B H 0.8018 0.1598 0.0397
H5_2 H 1.1982 0.1598 0.9603
H5F H 0.1982 -0.1598 0.9603
C5B C 0.902(3) 0.2124(9) 0.1527(19)
C5_2 C 1.098(3) 0.2124(9) 0.8473(19)
C5F C 0.098(3) -0.2124(9) 0.8473(19)
H6B H 0.9758 0.2239 0.1047
H6_2 H 1.0242 0.2239 0.8953
H6F H 0.0242 -0.2239 0.8953
H7B H 0.8553 0.2375 0.1877
H7_2 H 1.1447 0.2375 0.8123
H7F H 0.1447 -0.2375 0.8123
C6B C 0.8852(16) 0.1644(5) 0.3194(12)
C6_2 C 1.1148(16) 0.1644(5) 0.6806(12)
C6F C 0.1148(16) -0.1644(5) 0.6806(12)
H8B H 0.8565 0.1874 0.3706
H8_2 H 1.1435 0.1874 0.6294
H8F H 0.1435 -0.1874 0.6294
H9B H 0.9484 0.1413 0.3693
H9_2 H 1.0516 0.1413 0.6307
H9F H 0.0516 -0.1413 0.6307
C7B C 0.9952(19) 0.1845(7) 0.2437(13)
C7_2 C 1.0048(19) 0.1845(7) 0.7563(13)
C7F C 0.0048(19) -0.1845(7) 0.7563(13)
H10B H 1.0309 0.1591 0.2019
H10_2 H 0.9691 0.1591 0.7981
H10F H -0.0309 -0.1591 0.7981
C8B C 1.1573(16) 0.2028(5) 0.3203(12)
C8_2 C 0.8427(16) 0.2028(5) 0.6797(12)
C8F C -0.1573(16) -0.2028(5) 0.6797(12)
C9F C 1.0000 -0.0260(6) 0.5000
O1B O 0.5154(13) 0.0935(4) 0.2715(11)
O1_2 O 1.4846(13) 0.0935(4) 0.7285(11)
O1F O 0.4846(13) -0.0935(4) 0.7285(11)
O1D O 0.5154(13) -0.0935(4) 0.2715(11)
O2B O 0.6141(13) 0.1398(3) 0.4195(10)
O2_2 O 1.3859(13) 0.1398(3) 0.5805(10)
O2F O 0.3859(13) -0.1398(3) 0.5805(10)
O2D O 0.6141(13) -0.1398(3) 0.4195(10)
O2B_2 O 1.6141(13) 0.1398(3) 0.4195(10)
O3B O 1.2844(13) 0.1816(4) 0.3211(11)
O3_2 O 0.7156(13) 0.1816(4) 0.6789(11)
O3F O -0.2844(13) -0.1816(4) 0.6789(11)
O3B_2 O 0.2844(13) 0.1816(4) 0.3211(11)
O3F_2 O 0.7156(13) -0.1816(4) 0.6789(11)
O3D O 0.2844(13) -0.1816(4) 0.3211(11)
O3_3 O 1.7156(13) 0.1816(4) 0.6789(11)
O4B O 1.1572(14) 0.2371(4) 0.3771(12)
O4_2 O 0.8428(14) 0.2371(4) 0.6229(12)
O4F O -0.1572(14) -0.2371(4) 0.6229(12)
O4G O 0.3428(14) 0.2629(4) 0.6229(12)
O4E O 0.6572(14) 0.2629(4) 0.3771(12)
O4B_2 O 0.1572(14) 0.2371(4) 0.3771(12)
O4_3 O 1.8428(14) 0.2371(4) 0.6229(12)
O4G_2 O 1.3428(14) 0.2629(4) 0.6229(12)
O4E_2 O 1.6572(14) 0.2629(4) 0.3771(12)
O5F O 0.5000 -0.0470(4) 0.5000
O6F O 0.8596(11) -0.0453(3) 0.4635(11)
O6D O 1.1404(11) -0.0453(3) 0.5365(11)
O6B O 1.1404(11) 0.0453(3) 0.5365(11)
O6D_2 O 0.1404(11) -0.0453(3) 0.5365(11)
O6B_2 O 0.1404(11) 0.0453(3) 0.5365(11)
O7D O 0.739(2) 0.0000 0.7063(19)
H11D H 0.7635 0.0000 0.7789
Pb1D Pb 0.40717(8) 0.0000 0.63091(6)
Pb1D_2 Pb 1.40717(8) 0.0000 0.63091(6)
Pb2F Pb 0.70374(6) -0.090864(16) 0.61259(5)
Pb2B Pb 0.29626(6) 0.090864(16) 0.38741(5)
Pb2D Pb 0.29626(6) -0.090864(16) 0.38741(5)
Pb2_2 Pb -0.29626(6) 0.090864(16) 0.61259(5)
Pb2D_2 Pb 1.29626(6) -0.090864(16) 0.38741(5)
Pb2B_2 Pb 1.29626(6) 0.090864(16) 0.38741(5)
Pb2_3 Pb 1.70374(6) 0.090864(16) 0.61259(5)
Pb2F_2 Pb -0.29626(6) -0.090864(16) 0.61259(5)
Pb3_2 Pb 1.5000 0.21425(2) 0.5000
Pb3_3 Pb -0.5000 0.21425(2) 0.5000
Pb3G Pb 0.0000 0.28575(2) 0.5000
Pb3G_2 Pb 1.0000 0.28575(2) 0.5000
Pb3F Pb 0.5000 -0.21425(2) 0.5000
Pb3F_2 Pb -0.5000 -0.21425(2) 0.5000
Pb3A Pb 0.0000 -0.28575(2) 0.5000
O8 O 0.0000 0.0000 0.0000
loop_
_geom_bond_atom_site_label_1
_geom_bond_atom_site_label_2
_geom_bond_site_symmetry_1
_geom_bond_site_symmetry_2
C1 C2 1_555 1_555
C2 H1 1_555 1_555
C3 C2 1_555 1_555
H2 C3 1_555 1_555
H3 C3 1_555 1_555
C4 C3 1_555 1_555
H4 C4 1_555 1_555
H5 C4 1_555 1_555
C5 C4 1_555 1_555
H6 C5 1_555 1_555
H7 C5 1_555 1_555
C6 C2 1_555 1_555
H8 C6 1_555 1_555
H9 C6 1_555 1_555
C7 C5 1_555 1_555
H10 C7 1_555 1_555
C8 C7 1_555 1_555
C9 O6 1_555 1_555
O1 C1 1_555 1_555
O2 C1 1_555 1_555
O3 C8 1_555 1_555
O4 C8 1_555 1_555
O5 Pb1 1_555 1_555
O6 Pb1 1_555 1_555
O7 H11 1_555 1_555
Pb1 O7 1_555 1_555
Pb2 O1 1_555 1_555
Pb3 O2 1_555 1_555
C1B C2B 1_555 1_555
C1_2 C2_2 1_555 1_555
C1F C2F 1_555 1_555
C2B H1B 1_555 1_555
C2_2 H1_2 1_555 1_555
C2F H1F 1_555 1_555
C3B C2B 1_555 1_555
C3_2 C2_2 1_555 1_555
C3F C2F 1_555 1_555
H2B C3B 1_555 1_555
H2_2 C3_2 1_555 1_555
H2F C3F 1_555 1_555
H3B C3B 1_555 1_555
H3_2 C3_2 1_555 1_555
H3F C3F 1_555 1_555
C4B C3B 1_555 1_555
C4_2 C3_2 1_555 1_555
C4F C3F 1_555 1_555
H4B C4B 1_555 1_555
H4_2 C4_2 1_555 1_555
H4F C4F 1_555 1_555
H5B C4B 1_555 1_555
H5_2 C4_2 1_555 1_555
H5F C4F 1_555 1_555
C5B C4B 1_555 1_555
C5_2 C4_2 1_555 1_555
C5F C4F 1_555 1_555
H6B C5B 1_555 1_555
H6_2 C5_2 1_555 1_555
H6F C5F 1_555 1_555
H7B C5B 1_555 1_555
H7_2 C5_2 1_555 1_555
H7F C5F 1_555 1_555
C6B C2B 1_555 1_555
C6_2 C2_2 1_555 1_555
C6F C2F 1_555 1_555
H8B C6B 1_555 1_555
H8_2 C6_2 1_555 1_555
H8F C6F 1_555 1_555
H9B C6B 1_555 1_555
H9_2 C6_2 1_555 1_555
H9F C6F 1_555 1_555
C7B C5B 1_555 1_555
C7_2 C5_2 1_555 1_555
C7F C5F 1_555 1_555
H10B C7B 1_555 1_555
H10_2 C7_2 1_555 1_555
H10F C7F 1_555 1_555
C8B C7B 1_555 1_555
C8_2 C7_2 1_555 1_555
C8F C7F 1_555 1_555
C9F C9 1_555 1_555
O1B C1B 1_555 1_555
O1_2 C1_2 1_555 1_555
O1F C1F 1_555 1_555
O1D Pb2D 1_555 1_555
O2B Pb2 1_555 1_555
O2_2 C1_2 1_555 1_555
O2F C1F 1_555 1_555
O2D Pb2F 1_555 1_555
O2B_2 Pb2B_2 1_555 1_555
O3B C8B 1_555 1_555
O3_2 Pb2 1_555 1_555
O3F C8F 1_555 1_555
O3B_2 Pb3 1_555 1_555
O3F_2 Pb2F 1_555 1_555
O3D Pb2D 1_555 1_555
O3_3 Pb2_3 1_555 1_555
O4B C8B 1_555 1_555
O4_2 Pb3 1_555 1_555
O4F C8F 1_555 1_555
O4G Pb3 1_555 1_555
O4E Pb3 1_555 1_555
O4B_2 Pb3 1_555 1_555
O4_3 Pb3_2 1_555 1_555
O4G_2 Pb3_2 1_555 1_555
O4E_2 Pb3_2 1_555 1_555
O5F Pb1 1_555 1_555
O6F Pb1 1_555 1_555
O6D C9F 1_555 1_555
O6B C9 1_555 1_555
O6D_2 Pb1D 1_555 1_555
O6B_2 Pb1D 1_555 1_555
O7D Pb2 1_555 1_555
H11D O7D 1_555 1_555
Pb1D O5 1_555 1_555
Pb1D_2 O6D 1_555 1_555
Pb2F O1F 1_555 1_555
Pb2B O2 1_555 1_555
Pb2D O7 1_555 1_555
Pb2_2 O3 1_555 1_555
Pb2D_2 O6D 1_555 1_555
Pb2B_2 O2_2 1_555 1_555
Pb2_3 O1_2 1_555 1_555
Pb2F_2 O3F 1_555 1_555
Pb3_2 O2_2 1_555 1_555
Pb3_3 O3 1_555 1_555
Pb3G O4 1_555 1_555
Pb3G_2 O4B 1_555 1_555
Pb3F O2F 1_555 1_555
Pb3F_2 O3F 1_555 1_555
Pb3A O4F 1_555 1_555
C6 C7 1_555 1_555
O2 Pb2 1_555 1_555
O4 Pb3_3 1_555 1_555
O5 Pb2 1_555 1_555
O5 Pb2B 1_555 1_555
O6 Pb2 1_555 1_555
O7 Pb2B 1_555 1_555
Pb3 O2B 1_555 1_555
Pb3 O3_2 1_555 1_555
C1B O2B 1_555 1_555
C6B C7B 1_555 1_555
C6_2 C7_2 1_555 1_555
C6F C7F 1_555 1_555
C8_2 O3_2 1_555 1_555
C8_2 O4_2 1_555 1_555
C9F O6F 1_555 1_555
O1B Pb2B 1_555 1_555
O2B Pb2B 1_555 1_555
O2_2 Pb2_3 1_555 1_555
O2F Pb2F 1_555 1_555
O2F Pb2D 1_555 1_555
O2D Pb2D 1_555 1_555
O2D Pb3F 1_555 1_555
O2B_2 Pb2_3 1_555 1_555
O2B_2 Pb3_2 1_555 1_555
O3B Pb2B_2 1_555 1_555
O3B Pb3_2 1_555 1_555
O3B_2 Pb2B 1_555 1_555
O3F_2 Pb3F 1_555 1_555
O3D Pb3F 1_555 1_555
O3_3 Pb3_2 1_555 1_555
O4B Pb3_2 1_555 1_555
O4_2 Pb3G_2 1_555 1_555
O4F Pb3F_2 1_555 1_555
O4G Pb3G 1_555 1_555
O4E Pb3G_2 1_555 1_555
O4B_2 Pb3G 1_555 1_555
O4G_2 Pb3G_2 1_555 1_555
O5F Pb1D 1_555 1_555
O5F Pb2F 1_555 1_555
O5F Pb2D 1_555 1_555
O6F Pb2F 1_555 1_555
O6B Pb1D_2 1_555 1_555
O6B Pb2B_2 1_555 1_555
O6D_2 Pb2D 1_555 1_555
O6B_2 Pb2B 1_555 1_555
O7D Pb1D 1_555 1_555
O7D Pb2F 1_555 1_555

#END
