
#######################################################################
#
#                 Cambridge Crystallographic Data Centre
#                                CCDC 
#
#######################################################################
#
# If this CIF has been generated from an entry in the Cambridge 
# Structural Database, then it will include bibliographic, chemical, 
# crystal, experimental, refinement or atomic coordinate data resulting 
# from the CCDC's data processing and validation procedures.
#
#######################################################################

data_WIYKAR
_symmetry_cell_setting           orthorhombic
_symmetry_space_group_name_H-M   'P b c a'
_symmetry_Int_Tables_number      61
_space_group_name_Hall           '-P 2ac 2ab'
loop_
_symmetry_equiv_pos_site_id
_symmetry_equiv_pos_as_xyz
1 x,y,z
2 1/2-x,-y,1/2+z
3 -x,1/2+y,1/2-z
4 1/2+x,1/2-y,-z
5 -x,-y,-z
6 1/2+x,y,1/2-z
7 x,1/2-y,1/2+z
8 1/2-x,1/2+y,z
_cell_length_a                   14.0078(3)
_cell_length_b                   8.8268(2)
_cell_length_c                   31.6165(7)
_cell_angle_alpha                90
_cell_angle_beta                 90
_cell_angle_gamma                90
_cell_volume                     3909.19
loop_
_atom_site_label
_atom_site_type_symbol
_atom_site_fract_x
_atom_site_fract_y
_atom_site_fract_z
C1 C 0.0236(6) 0.2054(10) 0.4420(3)
C2 C -0.0467(5) 0.3048(9) 0.4185(2)
H1 H -0.1050 0.2457 0.4138
C3 C -0.0109(6) 0.3586(11) 0.3759(3)
H2 H 0.0022 0.2716 0.3581
H3 H 0.0484 0.4138 0.3797
C4 C -0.0833(7) 0.4602(10) 0.3543(3)
H4 H -0.1405 0.4025 0.3482
H5 H -0.0572 0.4959 0.3277
C5 C -0.1087(7) 0.5955(11) 0.3820(3)
H6 H -0.0532 0.6602 0.3849
H7 H -0.1585 0.6539 0.3683
C6 C -0.0722(5) 0.4400(9) 0.4470(2)
H8 H -0.0999 0.4027 0.4731
H9 H -0.0143 0.4948 0.4541
C7 C -0.1427(6) 0.5485(9) 0.4257(3)
H10 H -0.2037 0.4955 0.4225
C8 C -0.1595(6) 0.6864(9) 0.4525(3)
O1 O 0.1115(4) 0.2323(7) 0.4392(2)
O2 O -0.0076(4) 0.0985(7) 0.46372(19)
O3 O -0.0894(4) 0.7763(8) 0.4575(2)
O4 O -0.2380(4) 0.7124(8) 0.4695(2)
O5 O 0.3003(5) 0.0178(8) 0.4400(2)
O6 O 0.0988(4) -0.2041(8) 0.4402(2)
Pb1 Pb 0.14977(2) 0.02421(3) 0.495441(9)
H21 H 0.329(6) 0.103(5) 0.440(3)
H22 H 0.331(7) -0.065(7) 0.439(4)
H23 H 0.0390(12) -0.221(10) 0.441(3)
H24 H 0.107(5) -0.164(8) 0.4160(10)
O2D O 0.0076(4) -0.0985(7) 0.53628(19)
O3D O 0.0894(4) 0.2237(8) 0.5425(2)
O4D O 0.2380(4) 0.2876(8) 0.5305(2)
O4C O 0.2620(4) -0.2124(8) 0.5305(2)
Pb1D Pb -0.14977(2) -0.02421(3) 0.504559(9)
Pb1D_2 Pb -0.14977(2) 0.97579(3) 0.504559(9)
Pb1C Pb -0.35023(2) 0.47579(3) 0.504559(9)
C9 C 0.1613(5) 0.3471(10) 0.2914(3)
C10 C 0.1176(5) 0.4336(9) 0.2548(3)
H11 H 0.0889 0.5264 0.2661
C11 C 0.1981(6) 0.4797(11) 0.2245(3)
H12 H 0.2444 0.5412 0.2395
H13 H 0.2304 0.3897 0.2142
C12 C 0.1590(7) 0.5681(11) 0.1874(3)
H14 H 0.2106 0.5907 0.1679
H15 H 0.1332 0.6635 0.1975
C13 C 0.0810(6) 0.4813(10) 0.1640(3)
H16 H 0.1079 0.3907 0.1514
H17 H 0.0554 0.5438 0.1415
C14 C 0.0400(6) 0.3457(10) 0.2317(2)
H18 H -0.0113 0.3223 0.2512
H19 H 0.0660 0.2509 0.2213
C15 C 0.0005(5) 0.4371(10) 0.1946(2)
H20 H -0.0255 0.5313 0.2063
C16 C -0.0809(6) 0.3578(11) 0.1707(3)
O7 O 0.1638(4) 0.2064(7) 0.29025(19)
O8 O 0.1975(4) 0.4200(7) 0.32192(17)
O9 O -0.1107(4) 0.2325(7) 0.1838(2)
O10 O -0.1149(4) 0.4266(8) 0.13875(18)
Pb2 Pb 0.25042(2) 0.15786(4) 0.353601(9)
O8G O 0.3025(4) -0.0800(7) 0.32192(17)
O9E O 0.3893(4) 0.2325(7) 0.3162(2)
O10B O 0.1149(4) -0.0734(8) 0.36125(18)
Pb2G Pb 0.24958(2) 0.65786(4) 0.353601(9)
Pb2E Pb -0.24958(2) 0.15786(4) 0.146399(9)
Pb2B Pb -0.25042(2) 0.65786(4) 0.146399(9)
loop_
_geom_bond_atom_site_label_1
_geom_bond_atom_site_label_2
_geom_bond_site_symmetry_1
_geom_bond_site_symmetry_2
C1 C2 1_555 1_555
C2 H1 1_555 1_555
C3 C2 1_555 1_555
H2 C3 1_555 1_555
H3 C3 1_555 1_555
C4 C3 1_555 1_555
H4 C4 1_555 1_555
H5 C4 1_555 1_555
C5 C4 1_555 1_555
H6 C5 1_555 1_555
H7 C5 1_555 1_555
C6 C2 1_555 1_555
H8 C6 1_555 1_555
H9 C6 1_555 1_555
C7 C5 1_555 1_555
H10 C7 1_555 1_555
C8 C7 1_555 1_555
C9 C10 1_555 1_555
C10 H11 1_555 1_555
C11 C10 1_555 1_555
H12 C11 1_555 1_555
H13 C11 1_555 1_555
C12 C11 1_555 1_555
H14 C12 1_555 1_555
H15 C12 1_555 1_555
C13 C12 1_555 1_555
H16 C13 1_555 1_555
H17 C13 1_555 1_555
C14 C10 1_555 1_555
H18 C14 1_555 1_555
H19 C14 1_555 1_555
C15 C13 1_555 1_555
H20 C15 1_555 1_555
C16 C15 1_555 1_555
O1 C1 1_555 1_555
O2 C1 1_555 1_555
O3 C8 1_555 1_555
O4 C8 1_555 1_555
O5 Pb1 1_555 1_555
O6 Pb1 1_555 1_555
O7 C9 1_555 1_555
O8 C9 1_555 1_555
O9 C16 1_555 1_555
O10 C16 1_555 1_555
Pb1 O1 1_555 1_555
Pb2 O7 1_555 1_555
H21 O5 1_555 1_555
H22 O5 1_555 1_555
H23 O6 1_555 1_555
H24 O6 1_555 1_555
O2D Pb1 1_555 1_555
O3D Pb1 1_555 1_555
O4D Pb1 1_555 1_555
O4C Pb1 1_555 1_555
O8G Pb2 1_555 1_555
O9E Pb2 1_555 1_555
O10B Pb2 1_555 1_555
Pb1D O2 1_555 1_555
Pb1D_2 O3 1_555 1_555
Pb1C O4 1_555 1_555
Pb2G O8 1_555 1_555
Pb2E O9 1_555 1_555
Pb2B O10 1_555 1_555
C6 C7 1_555 1_555
C14 C15 1_555 1_555
O2 Pb1 1_555 1_555
O4 Pb1D_2 1_555 1_555
O8 Pb2 1_555 1_555
O2D Pb1D 1_555 1_555

#END
