
#######################################################################
#
#                 Cambridge Crystallographic Data Centre
#                                CCDC 
#
#######################################################################
#
# If this CIF has been generated from an entry in the Cambridge 
# Structural Database, then it will include bibliographic, chemical, 
# crystal, experimental, refinement or atomic coordinate data resulting 
# from the CCDC's data processing and validation procedures.
#
#######################################################################

data_WIYMOG
_symmetry_cell_setting           monoclinic
_symmetry_space_group_name_H-M   'P 21/c'
_symmetry_Int_Tables_number      14
_space_group_name_Hall           '-P 2ybc'
loop_
_symmetry_equiv_pos_site_id
_symmetry_equiv_pos_as_xyz
1 x,y,z
2 -x,1/2+y,1/2-z
3 -x,-y,-z
4 x,1/2-y,1/2+z
_cell_length_a                   19.8530(4)
_cell_length_b                   30.5734(5)
_cell_length_c                   24.1512(2)
_cell_angle_alpha                90
_cell_angle_beta                 109.4110(10)
_cell_angle_gamma                90
_cell_volume                     13825.9
loop_
_atom_site_label
_atom_site_type_symbol
_atom_site_fract_x
_atom_site_fract_y
_atom_site_fract_z
N25 N 0.4737(4) 0.0736(3) 0.4035(3)
O13 O 0.6005(5) 0.1927(4) 0.2386(6)
O14 O 0.6415(4) 0.1449(3) 0.3119(4)
C37 C 0.4349(5) 0.1217(3) 0.3140(4)
C38 C 0.3788(6) 0.1460(4) 0.2767(5)
H37 H 0.3321 0.1421 0.2772
C39 C 0.3921(7) 0.1762(4) 0.2385(7)
H38 H 0.3543 0.1923 0.2129
C40 C 0.4603(6) 0.1825(4) 0.2382(5)
H39 H 0.4688 0.2040 0.2135
C41 C 0.5162(5) 0.1584(3) 0.2730(4)
C42 C 0.5028(5) 0.1276(3) 0.3107(4)
H40 H 0.5407 0.1103 0.3343
C43 C 0.5913(6) 0.1660(4) 0.2756(5)
C44 C 0.4165(6) 0.0864(4) 0.3498(5)
H41 H 0.3755 0.0962 0.3605
H42 H 0.4014 0.0604 0.3250
C45 C 0.4549(5) 0.0363(3) 0.4337(4)
H43 H 0.4401 0.0121 0.4057
H44 H 0.4134 0.0445 0.4448
C46 C 0.5109(5) 0.0198(3) 0.4868(4)
H45 H 0.5238 0.0432 0.5163
H46 H 0.5536 0.0127 0.4767
C46B C 0.4891(5) -0.0198(3) 0.5132(4)
C45B C 0.5451(5) -0.0363(3) 0.5663(4)
N25B N 0.5263(4) -0.0736(3) 0.5965(3)
C44B C 0.5835(6) -0.0864(4) 0.6502(5)
C37B C 0.5651(5) -0.1217(3) 0.6860(4)
C38B C 0.6212(6) -0.1460(4) 0.7233(5)
H37B H 0.6679 -0.1421 0.7228
C39B C 0.6079(7) -0.1762(4) 0.7615(7)
H38B H 0.6457 -0.1923 0.7871
C40B C 0.5397(6) -0.1825(4) 0.7618(5)
H39B H 0.5312 -0.2040 0.7865
C41B C 0.4838(5) -0.1584(3) 0.7270(4)
C42B C 0.4972(5) -0.1276(3) 0.6893(4)
H40B H 0.4593 -0.1103 0.6657
C43B C 0.4087(6) -0.1660(4) 0.7244(5)
O13B O 0.3995(5) -0.1927(4) 0.7614(6)
O14B O 0.3585(4) -0.1449(3) 0.6881(4)
H41B H 0.6245 -0.0962 0.6395
H42B H 0.5986 -0.0604 0.6750
H43B H 0.5599 -0.0121 0.5943
H44B H 0.5866 -0.0445 0.5552
H45B H 0.4762 -0.0432 0.4837
H46B H 0.4464 -0.0127 0.5233
O15 O 0.5049(4) 0.6428(2) -0.0025(3)
O16 O 0.3847(3) 0.6126(2) 0.0517(3)
O17 O 0.4358(3) 0.52401(19) 0.1482(3)
O18 O 0.5928(3) 0.4769(2) 0.2066(3)
O19 O 0.2872(4) 0.4816(2) -0.1504(3)
O20 O 0.3278(3) 0.3899(2) -0.0445(3)
N26 N 0.5199(4) 0.6326(2) -0.0926(3)
N27 N 0.4101(4) 0.6347(2) -0.0893(3)
N28 N 0.3227(4) 0.6087(2) -0.0482(3)
N29 N 0.2978(4) 0.5610(2) 0.0109(3)
N30 N 0.3328(3) 0.5002(2) 0.0776(3)
N31 N 0.4052(4) 0.4510(2) 0.1334(3)
N32 N 0.5207(4) 0.4163(2) 0.1768(3)
N33 N 0.3691(4) 0.5866(2) -0.1740(3)
N34 N 0.2904(4) 0.5548(2) -0.1272(3)
N35 N 0.2646(4) 0.5071(2) -0.0685(3)
N36 N 0.2896(4) 0.4465(2) 0.0007(3)
N37 N 0.3597(4) 0.3965(2) 0.0565(3)
C47 C 0.4815(5) 0.6374(3) -0.0559(4)
C48 C 0.3552(5) 0.6459(3) -0.0656(4)
H47 H 0.3182 0.6626 -0.0951
H48 H 0.3757 0.6649 -0.0314
C49 C 0.3405(5) 0.5960(3) 0.0092(4)
C50 C 0.2974(5) 0.5419(3) 0.0654(4)
H49 H 0.3208 0.5620 0.0976
H50 H 0.2478 0.5383 0.0640
C51 C 0.3951(4) 0.4952(3) 0.1224(4)
C52 C 0.4580(5) 0.4345(3) 0.1863(4)
H51 H 0.4358 0.4118 0.2032
H52 H 0.4728 0.4583 0.2149
C53 C 0.4764(5) 0.6268(3) -0.1532(4)
H53 H 0.4853 0.6500 -0.1785
C54 C 0.3988(5) 0.6289(3) -0.1510(4)
H54 H 0.3712 0.6534 -0.1749
C55 C 0.2671(5) 0.5820(3) -0.0877(4)
H55 H 0.2249 0.5998 -0.1093
C56 C 0.2491(5) 0.5486(3) -0.0460(4)
H56 H 0.1986 0.5506 -0.0479
C57 C 0.2948(5) 0.4601(3) 0.0595(4)
H57 H 0.2476 0.4605 0.0650
C58 C 0.3450(5) 0.4252(3) 0.0986(4)
H58 H 0.3221 0.4095 0.1234
C59 C 0.5829(5) 0.4397(3) 0.1872(4)
C60 C 0.2979(5) 0.5721(3) -0.1814(4)
H59 H 0.2844 0.5493 -0.2116
H60 H 0.2648 0.5967 -0.1952
C61 C 0.2808(5) 0.5116(3) -0.1191(4)
C62 C 0.2407(5) 0.4657(3) -0.0514(4)
H61 H 0.1949 0.4705 -0.0452
H62 H 0.2325 0.4449 -0.0838
C63 C 0.3265(5) 0.4093(3) 0.0001(4)
C64 C 0.5961(5) 0.6417(3) -0.0723(4)
H63 H 0.6074 0.6611 -0.0381
H64 H 0.6079 0.6573 -0.1033
N32B N 0.4793(4) 0.5837(2) -0.1768(3)
C52B C 0.5420(5) 0.5655(3) -0.1863(4)
N31B N 0.5948(4) 0.5490(2) -0.1334(3)
C51B C 0.6049(4) 0.5048(3) -0.1224(4)
O17B O 0.5642(3) 0.47599(19) -0.1482(3)
N30B N 0.6672(3) 0.4998(2) -0.0776(3)
C50B C 0.7026(5) 0.4581(3) -0.0654(4)
N29B N 0.7022(4) 0.4390(2) -0.0109(3)
C49B C 0.6595(5) 0.4040(3) -0.0092(4)
O16B O 0.6153(3) 0.3874(2) -0.0517(3)
N28B N 0.6773(4) 0.3913(2) 0.0482(3)
C48B C 0.6448(5) 0.3541(3) 0.0656(4)
N27B N 0.5899(4) 0.3653(2) 0.0893(3)
C47B C 0.5185(5) 0.3626(3) 0.0559(4)
O15B O 0.4951(4) 0.3572(2) 0.0025(3)
N26B N 0.4801(4) 0.3674(2) 0.0926(3)
C53B C 0.5236(5) 0.3732(3) 0.1532(4)
C59B C 0.4171(5) 0.5603(3) -0.1872(4)
O18B O 0.4072(3) 0.5231(2) -0.2066(3)
C64B C 0.4039(5) 0.3583(3) 0.0723(4)
H63B H 0.3926 0.3389 0.0381
H64B H 0.3921 0.3427 0.1033
N33B N 0.6309(4) 0.4134(2) 0.1740(3)
C54B C 0.6012(5) 0.3711(3) 0.1510(4)
H53B H 0.5147 0.3500 0.1785
H54B H 0.6288 0.3466 0.1749
C60B C 0.7021(5) 0.4279(3) 0.1814(4)
N34B N 0.7096(4) 0.4452(2) 0.1272(3)
C55B C 0.7329(5) 0.4180(3) 0.0877(4)
H55B H 0.7751 0.4002 0.1093
C56B C 0.7509(5) 0.4514(3) 0.0460(4)
N35B N 0.7354(4) 0.4929(2) 0.0685(3)
C61B C 0.7192(5) 0.4884(3) 0.1191(4)
O19B O 0.7128(4) 0.5184(2) 0.1504(3)
C62B C 0.7593(5) 0.5343(3) 0.0514(4)
N36B N 0.7104(4) 0.5535(2) -0.0007(3)
C57B C 0.7052(5) 0.5399(3) -0.0595(4)
H57B H 0.7524 0.5395 -0.0650
C58B C 0.6550(5) 0.5748(3) -0.0986(4)
N37B N 0.6403(4) 0.6035(2) -0.0565(3)
C63B C 0.6735(5) 0.5907(3) -0.0001(4)
O20B O 0.6722(3) 0.6101(2) 0.0445(3)
H58B H 0.6779 0.5905 -0.1234
H61B H 0.8051 0.5295 0.0452
H62B H 0.7675 0.5551 0.0838
H56B H 0.8014 0.4494 0.0479
H59B H 0.7156 0.4507 0.2116
H60B H 0.7352 0.4033 0.1952
H47B H 0.6818 0.3374 0.0951
H48B H 0.6243 0.3351 0.0314
H49B H 0.6792 0.4380 -0.0976
H50B H 0.7522 0.4617 -0.0640
H51B H 0.5642 0.5882 -0.2032
H52B H 0.5272 0.5417 -0.2149
N38 N 0.3962(7) 0.2961(4) 0.2311(7)
O21 O 0.4584(8) 0.3041(5) 0.2389(8)
O22 O 0.3751(6) 0.2901(4) 0.2735(6)
O23 O 0.3525(8) 0.2913(6) 0.1817(6)
N39 N 0.2180(8) 0.9129(5) 0.1316(7)
O24 O 0.2219(8) 0.8872(5) 0.0949(6)
O25 O 0.2637(7) 0.9142(5) 0.1781(5)
O26 O 0.1630(9) 0.9331(6) 0.1189(8)
O27 O 0.7059(4) 0.5599(2) 0.5208(3)
O28 O 0.6482(3) 0.6053(2) 0.6245(3)
O29 O 0.5772(4) 0.5320(2) 0.6866(3)
O30 O 0.5750(4) 0.4181(2) 0.6662(3)
O31 O 0.3580(4) 0.6217(2) 0.4344(3)
O32 O 0.7151(4) 0.4485(2) 0.4919(3)
N40 N 0.6575(4) 0.5572(2) 0.4205(4)
N41 N 0.6335(4) 0.6145(3) 0.4674(3)
N42 N 0.5882(4) 0.6454(2) 0.5410(4)
N43 N 0.5348(4) 0.6332(2) 0.6067(3)
N44 N 0.4844(4) 0.5817(3) 0.6586(4)
N45 N 0.4581(4) 0.5125(2) 0.6705(3)
N46 N 0.4576(4) 0.4340(3) 0.6566(3)
N47 N 0.5197(4) 0.6234(2) 0.3903(3)
N48 N 0.4716(4) 0.6504(2) 0.4643(3)
N49 N 0.4178(4) 0.6399(2) 0.5302(3)
N50 N 0.3692(4) 0.5884(2) 0.5825(3)
N51 N 0.6589(4) 0.4792(2) 0.4017(3)
C65 C 0.6685(5) 0.5762(3) 0.4738(4)
C66 C 0.6439(5) 0.6454(3) 0.5149(4)
H65 H 0.6895 0.6389 0.5455
H66 H 0.6475 0.6748 0.5001
C67 C 0.5951(5) 0.6262(3) 0.5939(4)
C68 C 0.5264(6) 0.6209(3) 0.6618(4)
H67 H 0.5036 0.6450 0.6755
H68 H 0.5738 0.6164 0.6909
C69 C 0.5134(5) 0.5409(3) 0.6734(4)
C70 C 0.4716(6) 0.4697(3) 0.6974(4)
H69 H 0.5217 0.4682 0.7227
H70 H 0.4420 0.4661 0.7225
C71 C 0.6971(5) 0.5198(3) 0.4116(4)
H71 H 0.7126 0.5258 0.3778
H72 H 0.7401 0.5166 0.4460
C72 C 0.6126(5) 0.5842(3) 0.3732(4)
H73 H 0.6372 0.5928 0.3453
C73 C 0.5963(5) 0.6240(3) 0.4061(4)
H74 H 0.6133 0.6517 0.3939
C74 C 0.5216(5) 0.6690(3) 0.5173(4)
H75 H 0.5296 0.7006 0.5125
C75 C 0.4847(5) 0.6612(3) 0.5635(4)
H76 H 0.4763 0.6890 0.5812
C76 C 0.4077(5) 0.5821(3) 0.6443(4)
H77 H 0.3922 0.6028 0.6691
C77 C 0.3902(5) 0.5343(3) 0.6547(4)
H78 H 0.3685 0.5320 0.6861
C78 C 0.5111(5) 0.4102(3) 0.6464(4)
C79 C 0.4773(5) 0.6567(3) 0.4069(4)
H79 H 0.4988 0.6854 0.4058
H80 H 0.4292 0.6569 0.3778
C80 C 0.4105(5) 0.6357(3) 0.4726(5)
C81 C 0.3610(5) 0.6308(3) 0.5537(4)
H81 H 0.3151 0.6316 0.5218
H82 H 0.3604 0.6536 0.5820
C82 C 0.6729(5) 0.4466(3) 0.4417(4)
C77B C 0.6098(5) 0.4657(3) 0.3453(4)
N45B N 0.5419(4) 0.4875(2) 0.3295(3)
C69B C 0.4866(5) 0.4591(3) 0.3266(4)
O29B O 0.4228(4) 0.4680(2) 0.3134(3)
N44B N 0.5156(4) 0.4183(3) 0.3414(4)
C68B C 0.4736(6) 0.3791(3) 0.3382(4)
N43B N 0.4652(4) 0.3668(2) 0.3933(3)
C67B C 0.4049(5) 0.3738(3) 0.4061(4)
O28B O 0.3518(3) 0.3947(2) 0.3755(3)
N42B N 0.4118(4) 0.3546(2) 0.4590(4)
C66B C 0.3561(5) 0.3546(3) 0.4851(4)
N41B N 0.3665(4) 0.3855(3) 0.5326(3)
C65B C 0.3315(5) 0.4238(3) 0.5262(4)
O27B O 0.2941(4) 0.4401(2) 0.4792(3)
N40B N 0.3425(4) 0.4428(2) 0.5795(4)
C71B C 0.3029(5) 0.4802(3) 0.5884(4)
N51B N 0.3411(4) 0.5208(2) 0.5983(3)
C78B C 0.4889(5) 0.5898(3) 0.3536(4)
O30B O 0.4250(4) 0.5819(2) 0.3338(3)
N46B N 0.5424(4) 0.5660(3) 0.3434(3)
C70B C 0.5284(6) 0.5303(3) 0.3026(4)
H69B H 0.4783 0.5318 0.2773
H70B H 0.5580 0.5339 0.2775
C82B C 0.3271(5) 0.5534(3) 0.5583(4)
O32B O 0.2849(4) 0.5515(2) 0.5081(3)
C72B C 0.3874(5) 0.4158(3) 0.6268(4)
H73B H 0.3628 0.4072 0.6547
C73B C 0.4037(5) 0.3760(3) 0.5939(4)
N47B N 0.4803(4) 0.3766(2) 0.6097(3)
C79B C 0.5227(5) 0.3433(3) 0.5931(4)
N48B N 0.5284(4) 0.3496(2) 0.5357(3)
C74B C 0.4784(5) 0.3310(3) 0.4827(4)
H75B H 0.4704 0.2994 0.4875
C75B C 0.5153(5) 0.3388(3) 0.4365(4)
N49B N 0.5822(4) 0.3601(2) 0.4698(3)
C80B C 0.5895(5) 0.3643(3) 0.5274(5)
O31B O 0.6420(4) 0.3783(2) 0.5656(3)
C81B C 0.6390(5) 0.3692(3) 0.4463(4)
N50B N 0.6308(4) 0.4116(2) 0.4175(3)
C76B C 0.5923(5) 0.4179(3) 0.3557(4)
H77B H 0.6078 0.3972 0.3309
H78B H 0.6315 0.4680 0.3139
H81B H 0.6849 0.3684 0.4782
H82B H 0.6396 0.3464 0.4180
H76B H 0.5237 0.3110 0.4188
H79B H 0.5012 0.3146 0.5942
H80B H 0.5708 0.3431 0.6222
H74B H 0.3867 0.3483 0.6061
H71B H 0.2874 0.4742 0.6222
H72B H 0.2599 0.4834 0.5540
H65B H 0.3105 0.3611 0.4545
H66B H 0.3525 0.3252 0.4999
H67B H 0.4964 0.3550 0.3245
H68B H 0.4262 0.3836 0.3091
O33 O 0.7360(4) 0.5112(3) 0.8293(4)
O34 O 0.3224(4) 0.5675(3) 0.2232(4)
O35 O 0.1207(4) 0.9422(2) 0.3256(3)
O36 O 0.4100(5) 0.7093(3) 0.0789(5)
O37 O 0.1347(5) 0.0622(3) 0.3135(4)
O38 O 0.3664(6) 0.7399(3) 0.4773(5)
O39 O 0.3396(5) 0.1935(3) 0.4101(4)
O40 O 0.7029(4) 0.5887(3) 0.7651(4)
O41 O 0.4497(5) 0.2418(3) 0.3831(5)
O42 O 0.1436(7) 0.9812(4) 0.2246(7)
O43 O 0.5692(8) 0.2706(4) 0.2024(12)
O44 O 0.2930(9) 0.4549(5) -0.2734(6)
O45 O -0.2323(7) 0.8077(8) -0.0536(6)
O46 O 0.3694(11) 0.7757(6) 0.1467(10)
O47 O 0.265(3) 0.7784(13) 0.065(2)
O48 O 0.0814(7) 0.9495(4) 0.0001(5)
O49 O 0.4582(8) 0.7649(4) 0.4185(8)
O50 O 0.328(2) 0.2532(12) 0.4988(19)
O51 O 0.7676(18) 0.5994(9) 0.3591(11)
O52 O -0.1359(16) 0.5600(10) 0.3852(16)
O53 O -0.188(3) 0.606(2) 0.459(2)
O54 O -0.075(3) 0.9457(14) 0.010(2)
O55 O 0.409(3) 0.2545(13) 0.5988(13)
Tb1 Tb 0.02183(2) 0.504564(13) 0.086342(17)
O56 O -0.0845(3) 0.5085(2) 0.1162(3)
O57 O 0.0124(3) 0.57565(19) 0.1293(3)
O58 O 0.0442(3) 0.4721(2) 0.1817(3)
O59 O 0.1289(3) 0.51562(18) 0.1739(2)
O60 O -0.0602(3) 0.53779(19) 0.0036(3)
O61 O 0.1074(3) 0.4473(2) 0.0906(3)
O62 O 0.0931(3) 0.55320(19) 0.0550(3)
O63 O -0.0511(3) 0.44686(19) 0.0439(3)
C83 C 0.2328(4) 0.5099(3) 0.3564(3)
C84 C 0.1901(5) 0.5015(3) 0.3902(4)
H83 H 0.2098 0.5029 0.4313
C85 C 0.1194(5) 0.4913(3) 0.3646(4)
H84 H 0.0907 0.4869 0.3882
C86 C 0.0902(5) 0.4873(3) 0.3046(4)
H85 H 0.0419 0.4796 0.2874
C87 C 0.1321(4) 0.4948(3) 0.2693(3)
C88 C 0.2036(4) 0.5061(3) 0.2956(4)
H86 H 0.2323 0.5113 0.2721
C89 C 0.1009(5) 0.4935(3) 0.2046(4)
C90 C 0.3092(5) 0.5241(3) 0.3842(4)
H87 H 0.3126 0.5447 0.4162
H88 H 0.3251 0.5392 0.3550
C91 C 0.4315(6) 0.5003(5) 0.4450(6)
C92 C 0.4786(10) 0.4666(6) 0.4744(9)
C93 C 0.4416(10) 0.5161(7) 0.4949(10)
C94 C -0.1562(5) 0.6508(3) 0.0457(4)
C95 C -0.2015(5) 0.6754(3) 0.0004(4)
H89 H -0.2235 0.7006 0.0086
C96 C -0.2142(5) 0.6624(3) -0.0574(4)
H90 H -0.2462 0.6784 -0.0882
C97 C -0.1802(5) 0.6260(3) -0.0701(4)
H91 H -0.1876 0.6182 -0.1093
C98 C -0.1355(5) 0.6011(3) -0.0247(4)
C99 C -0.1236(4) 0.6136(3) 0.0332(4)
H92 H -0.0933 0.5968 0.0640
C100 C -0.0985(5) 0.5614(3) -0.0391(4)
C101 C -0.1423(5) 0.6629(3) 0.1092(4)
H93 H -0.1833 0.6792 0.1125
H94 H -0.1372 0.6361 0.1326
C102 C -0.0598(5) 0.7015(3) 0.1961(4)
H95 H -0.0499 0.6745 0.2193
H96 H -0.1021 0.7150 0.2012
C103 C 0.0020(5) 0.7317(3) 0.2200(4)
H97 H -0.0060 0.7580 0.1953
H98 H 0.0454 0.7174 0.2181
C104 C 0.1665(4) 0.6623(3) -0.0534(4)
C105 C 0.2188(5) 0.6785(3) -0.0034(4)
H99 H 0.2482 0.7019 -0.0061
C106 C 0.2267(5) 0.6593(3) 0.0506(4)
H100 H 0.2615 0.6699 0.0847
C107 C 0.1835(4) 0.6245(3) 0.0545(4)
H101 H 0.1892 0.6117 0.0912
C108 C 0.1322(4) 0.6088(3) 0.0046(4)
C109 C 0.1239(5) 0.6284(3) -0.0494(4)
H102 H 0.0885 0.6181 -0.0834
C110 C 0.0888(5) 0.5688(3) 0.0064(4)
C111 C 0.1574(5) 0.6815(3) -0.1133(4)
H103 H 0.1989 0.6996 -0.1112
H104 H 0.1543 0.6578 -0.1415
C112 C 0.0791(5) 0.7736(3) 0.3058(4)
H105 H 0.0747 0.7982 0.2788
H106 H 0.1210 0.7565 0.3064
C113 C 0.0133(5) 0.7452(3) 0.2834(4)
N52 N 0.3570(4) 0.4854(2) 0.4081(3)
N53 N -0.0763(4) 0.6900(2) 0.1333(3)
N54 N 0.0904(4) 0.7089(2) -0.1337(3)
C92B C 0.5214(10) 0.5334(6) 0.5256(9)
C91B C 0.5685(6) 0.4997(5) 0.5550(6)
C93B C 0.5584(10) 0.4839(7) 0.5051(10)
N52B N 0.6430(4) 0.5146(2) 0.5919(3)
C90B C 0.6908(5) 0.4759(3) 0.6158(4)
C83B C 0.7672(4) 0.4901(3) 0.6436(3)
C84B C 0.8099(5) 0.4985(3) 0.6098(4)
H83B H 0.7902 0.4971 0.5687
C85B C 0.8806(5) 0.5087(3) 0.6354(4)
H84B H 0.9093 0.5131 0.6118
C86B C 0.9098(5) 0.5127(3) 0.6954(4)
H85B H 0.9581 0.5204 0.7126
C87B C 0.8679(4) 0.5052(3) 0.7307(3)
C88B C 0.7964(4) 0.4939(3) 0.7044(4)
H86B H 0.7677 0.4887 0.7279
C89B C 0.8991(5) 0.5065(3) 0.7954(4)
Tb1B Tb 0.97817(2) 0.495436(13) 0.913658(17)
O56B O 1.0845(3) 0.4915(2) 0.8838(3)
O57B O 0.9876(3) 0.42435(19) 0.8707(3)
O58B O 0.9558(3) 0.5279(2) 0.8183(3)
O59B O 0.8711(3) 0.48438(18) 0.8261(2)
O60B O 1.0602(3) 0.46221(19) 0.9964(3)
Tb1_2 Tb 1.02183(2) 0.504564(13) 1.086342(17)
O56_2 O 0.9155(3) 0.5085(2) 1.1162(3)
O57_2 O 1.0124(3) 0.57565(19) 1.1293(3)
O58_2 O 1.0442(3) 0.4721(2) 1.1817(3)
O59_2 O 1.1289(3) 0.51562(18) 1.1739(2)
O60_2 O 0.9398(3) 0.53779(19) 1.0036(3)
O61B O 0.8926(3) 0.5527(2) 0.9094(3)
C100_2 C 0.9015(5) 0.5614(3) 0.9609(4)
C98_2 C 0.8645(5) 0.6011(3) 0.9753(4)
C97_2 C 0.8198(5) 0.6260(3) 0.9299(4)
C96_2 C 0.7858(5) 0.6624(3) 0.9426(4)
C95_2 C 0.7985(5) 0.6754(3) 1.0004(4)
C94_2 C 0.8438(5) 0.6508(3) 1.0457(4)
C99_2 C 0.8764(4) 0.6136(3) 1.0332(4)
H92_2 H 0.9067 0.5968 1.0640
C101_2 C 0.8577(5) 0.6629(3) 1.1092(4)
H93_2 H 0.8167 0.6792 1.1125
H94_2 H 0.8628 0.6361 1.1326
N53_2 N 0.9237(4) 0.6900(2) 1.1333(3)
C102_2 C 0.9402(5) 0.7015(3) 1.1961(4)
H95_2 H 0.9501 0.6745 1.2193
H96_2 H 0.8979 0.7150 1.2012
C103_2 C 1.0020(5) 0.7317(3) 1.2200(4)
H97_2 H 0.9940 0.7580 1.1953
H98_2 H 1.0454 0.7174 1.2181
C113_2 C 1.0133(5) 0.7452(3) 1.2834(4)
C112_2 C 1.0791(5) 0.7736(3) 1.3058(4)
H105_2 H 1.0747 0.7982 1.2788
H106_2 H 1.1210 0.7565 1.3064
N54C N 1.0904(4) 0.7911(2) 1.3663(3)
C111C C 1.1574(5) 0.8185(3) 1.3867(4)
C104C C 1.1665(4) 0.8377(3) 1.4466(4)
C105C C 1.2188(5) 0.8215(3) 1.4966(4)
H99C H 1.2482 0.7981 1.4939
C106C C 1.2267(5) 0.8407(3) 1.5506(4)
H100C H 1.2615 0.8301 1.5847
C107C C 1.1835(4) 0.8755(3) 1.5545(4)
H101C H 1.1892 0.8883 1.5912
C108C C 1.1322(4) 0.8912(3) 1.5046(4)
C109C C 1.1239(5) 0.8716(3) 1.4506(4)
H102C H 1.0885 0.8819 1.4166
C110C C 1.0888(5) 0.9312(3) 1.5064(4)
O62C O 1.0931(3) 0.94680(19) 1.5550(3)
Tb1C Tb 1.02183(2) 0.995436(13) 1.586342(17)
O56C O 0.9155(3) 0.9915(2) 1.6162(3)
O57C O 1.0124(3) 0.92435(19) 1.6293(3)
O58C O 1.0442(3) 1.0279(2) 1.6817(3)
C89C C 1.1009(5) 1.0065(3) 1.7046(4)
O59C O 1.1289(3) 0.98438(18) 1.6739(2)
C87C C 1.1321(4) 1.0052(3) 1.7693(3)
C86C C 1.0902(5) 1.0127(3) 1.8046(4)
C85C C 1.1194(5) 1.0087(3) 1.8646(4)
C84C C 1.1901(5) 0.9985(3) 1.8902(4)
C83C C 1.2328(4) 0.9901(3) 1.8564(3)
C88C C 1.2036(4) 0.9939(3) 1.7956(4)
H86C H 1.2323 0.9887 1.7721
C90C C 1.3092(5) 0.9759(3) 1.8842(4)
H87C H 1.3126 0.9553 1.9162
H88C H 1.3251 0.9608 1.8550
N52C N 1.3570(4) 1.0146(2) 1.9081(3)
C91C C 1.4315(6) 0.9997(5) 1.9450(6)
C92C C 1.4786(10) 1.0334(6) 1.9744(9)
C93C C 1.4416(10) 0.9839(7) 1.9949(10)
C92A C 1.5214(10) 0.9666(6) 2.0256(9)
C91A C 1.5685(6) 1.0003(5) 2.0550(6)
C93A C 1.5584(10) 1.0161(7) 2.0051(10)
N52A N 1.6430(4) 0.9854(2) 2.0919(3)
C90A C 1.6908(5) 1.0241(3) 2.1158(4)
C83A C 1.7672(4) 1.0099(3) 2.1436(3)
C84A C 1.8099(5) 1.0015(3) 2.1098(4)
H83A H 1.7902 1.0029 2.0687
C85A C 1.8806(5) 0.9913(3) 2.1354(4)
H84A H 1.9093 0.9869 2.1118
C86A C 1.9098(5) 0.9873(3) 2.1954(4)
H85A H 1.9581 0.9796 2.2126
C87A C 1.8679(4) 0.9948(3) 2.2307(3)
C88A C 1.7964(4) 1.0061(3) 2.2044(4)
H86A H 1.7677 1.0113 2.2279
C89A C 1.8991(5) 0.9935(3) 2.2954(4)
Tb1A Tb 1.97817(2) 1.004564(13) 2.413658(17)
O56A O 2.0845(3) 1.0085(2) 2.3838(3)
O57A O 1.9876(3) 1.07565(19) 2.3707(3)
O58A O 1.9558(3) 0.9721(2) 2.3183(3)
O59A O 1.8711(3) 1.01562(18) 2.3261(2)
O60A O 2.0602(3) 1.03779(19) 2.4964(3)
Tb1C_2 Tb 2.02183(2) 0.995436(13) 2.586342(17)
O56C_2 O 1.9155(3) 0.9915(2) 2.6162(3)
O57C_2 O 2.0124(3) 0.92435(19) 2.6293(3)
O58C_2 O 2.0442(3) 1.0279(2) 2.6817(3)
O59C_2 O 2.1289(3) 0.98438(18) 2.6739(2)
O60C O 1.9398(3) 0.96221(19) 2.5036(3)
O61A O 1.8926(3) 0.9473(2) 2.4094(3)
C100C C 1.9015(5) 0.9386(3) 2.4609(4)
C98C C 1.8645(5) 0.8989(3) 2.4753(4)
C97C C 1.8198(5) 0.8740(3) 2.4299(4)
C96C C 1.7858(5) 0.8376(3) 2.4426(4)
C95C C 1.7985(5) 0.8246(3) 2.5004(4)
C94C C 1.8438(5) 0.8492(3) 2.5457(4)
C99C C 1.8764(4) 0.8864(3) 2.5332(4)
H92C H 1.9067 0.9032 2.5640
C101C C 1.8577(5) 0.8371(3) 2.6092(4)
H93C H 1.8167 0.8208 2.6125
H94C H 1.8628 0.8639 2.6326
N53C N 1.9237(4) 0.8100(2) 2.6333(3)
C102C C 1.9402(5) 0.7985(3) 2.6961(4)
H95C H 1.9501 0.8255 2.7193
H96C H 1.8979 0.7850 2.7012
C103C C 2.0020(5) 0.7683(3) 2.7200(4)
H97C H 1.9940 0.7420 2.6953
H98C H 2.0454 0.7826 2.7181
C113C C 2.0133(5) 0.7548(3) 2.7834(4)
C112C C 2.0791(5) 0.7264(3) 2.8058(4)
H105C H 2.0747 0.7018 2.7788
H106C H 2.1210 0.7435 2.8064
N54_2 N 2.0904(4) 0.7089(2) 2.8663(3)
C111_2 C 2.1574(5) 0.6815(3) 2.8867(4)
C104_2 C 2.1665(4) 0.6623(3) 2.9466(4)
C105_2 C 2.2188(5) 0.6785(3) 2.9966(4)
H99_2 H 2.2482 0.7019 2.9939
C106_2 C 2.2267(5) 0.6593(3) 3.0506(4)
H100_2 H 2.2615 0.6699 3.0847
C107_2 C 2.1835(4) 0.6245(3) 3.0545(4)
H101_2 H 2.1892 0.6117 3.0912
C108_2 C 2.1322(4) 0.6088(3) 3.0046(4)
C109_2 C 2.1239(5) 0.6284(3) 2.9506(4)
H102_2 H 2.0885 0.6181 2.9166
C110_2 C 2.0888(5) 0.5688(3) 3.0064(4)
O62_2 O 2.0931(3) 0.55320(19) 3.0550(3)
Tb1_3 Tb 2.02183(2) 0.504564(13) 3.086342(17)
O56_3 O 1.9155(3) 0.5085(2) 3.1162(3)
O57_3 O 2.0124(3) 0.57565(19) 3.1293(3)
O58_3 O 2.0442(3) 0.4721(2) 3.1817(3)
O59_3 O 2.1289(3) 0.51562(18) 3.1739(2)
O60_3 O 1.9398(3) 0.53779(19) 3.0036(3)
O60B_2 O 2.0602(3) 0.46221(19) 2.9964(3)
O61_2 O 2.1074(3) 0.4473(2) 3.0906(3)
C100B C 2.0985(5) 0.4386(3) 3.0391(4)
Tb1B_2 Tb 1.97817(2) 0.495436(13) 2.913658(17)
C98B C 2.1355(5) 0.3989(3) 3.0247(4)
C97B C 2.1802(5) 0.3740(3) 3.0701(4)
C96B C 2.2142(5) 0.3376(3) 3.0574(4)
C95B C 2.2015(5) 0.3246(3) 2.9996(4)
C94B C 2.1562(5) 0.3492(3) 2.9543(4)
C99B C 2.1236(4) 0.3864(3) 2.9668(4)
H92B H 2.0933 0.4032 2.9360
C101B C 2.1423(5) 0.3371(3) 2.8908(4)
H93B H 2.1833 0.3208 2.8875
H94B H 2.1372 0.3639 2.8674
N53B N 2.0763(4) 0.3100(2) 2.8667(3)
C102B C 2.0598(5) 0.2985(3) 2.8039(4)
H95B H 2.0499 0.3255 2.7807
H96B H 2.1021 0.2850 2.7988
C103B C 1.9980(5) 0.2683(3) 2.7800(4)
H97B H 2.0060 0.2420 2.8047
H98B H 1.9546 0.2826 2.7819
C113B C 1.9867(5) 0.2548(3) 2.7166(4)
C112B C 1.9209(5) 0.2264(3) 2.6942(4)
H105B H 1.9253 0.2018 2.7212
H106B H 1.8790 0.2435 2.6936
N54A N 1.9096(4) 0.2089(2) 2.6337(3)
C111A C 1.8426(5) 0.1815(3) 2.6133(4)
C104A C 1.8335(4) 0.1623(3) 2.5534(4)
C105A C 1.7812(5) 0.1785(3) 2.5034(4)
H99A H 1.7518 0.2019 2.5061
C106A C 1.7733(5) 0.1593(3) 2.4494(4)
H100A H 1.7385 0.1699 2.4153
C107A C 1.8165(4) 0.1245(3) 2.4455(4)
H101A H 1.8108 0.1117 2.4088
C108A C 1.8678(4) 0.1088(3) 2.4954(4)
C109A C 1.8761(5) 0.1284(3) 2.5494(4)
H102A H 1.9115 0.1181 2.5834
C110A C 1.9112(5) 0.0688(3) 2.4936(4)
O62A O 1.9069(3) 0.05320(19) 2.4450(3)
Tb1A_2 Tb 1.97817(2) 0.004564(13) 2.413658(17)
O56A_2 O 2.0845(3) 0.0085(2) 2.3838(3)
O57A_2 O 1.9876(3) 0.07565(19) 2.3707(3)
O58A_2 O 1.9558(3) -0.0279(2) 2.3183(3)
O59A_2 O 1.8711(3) 0.01562(18) 2.3261(2)
O60A_2 O 2.0602(3) 0.03779(19) 2.4964(3)
O60C_2 O 1.9398(3) -0.03779(19) 2.5036(3)
O61A_2 O 1.8926(3) -0.0527(2) 2.4094(3)
O63A O 2.0511(3) -0.05314(19) 2.4561(3)
C110C_2 C 2.0888(5) -0.0688(3) 2.5064(4)
O62C_2 O 2.0931(3) -0.05320(19) 2.5550(3)
C108C_2 C 2.1322(4) -0.1088(3) 2.5046(4)
C89A_2 C 1.8991(5) -0.0065(3) 2.2954(4)
O63C O 1.9489(3) 0.05314(19) 2.5439(3)
Tb1C_3 Tb 2.02183(2) -0.004564(13) 2.586342(17)
O56C_3 O 1.9155(3) -0.0085(2) 2.6162(3)
O57C_3 O 2.0124(3) -0.07565(19) 2.6293(3)
O58C_3 O 2.0442(3) 0.0279(2) 2.6817(3)
O59C_3 O 2.1289(3) -0.01562(18) 2.6739(2)
O61C O 2.1074(3) 0.0527(2) 2.5906(3)
C100A C 2.0985(5) 0.0614(3) 2.5391(4)
C98A C 2.1355(5) 0.1011(3) 2.5247(4)
C97A C 2.1802(5) 0.1260(3) 2.5701(4)
C96A C 2.2142(5) 0.1624(3) 2.5574(4)
C95A C 2.2015(5) 0.1754(3) 2.4996(4)
C94A C 2.1562(5) 0.1508(3) 2.4543(4)
C99A C 2.1236(4) 0.1136(3) 2.4668(4)
H92A H 2.0933 0.0968 2.4360
C101A C 2.1423(5) 0.1629(3) 2.3908(4)
H93A H 2.1833 0.1792 2.3875
H94A H 2.1372 0.1361 2.3674
N53A N 2.0763(4) 0.1900(2) 2.3667(3)
C102A C 2.0598(5) 0.2015(3) 2.3039(4)
H95A H 2.0499 0.1745 2.2807
H96A H 2.1021 0.2150 2.2988
C103A C 1.9980(5) 0.2317(3) 2.2800(4)
H97A H 2.0060 0.2580 2.3047
H98A H 1.9546 0.2174 2.2819
C113A C 1.9867(5) 0.2452(3) 2.2166(4)
C112A C 1.9209(5) 0.2736(3) 2.1942(4)
H105A H 1.9253 0.2982 2.2212
H106A H 1.8790 0.2565 2.1936
N54B N 1.9096(4) 0.2911(2) 2.1337(3)
C111B C 1.8426(5) 0.3185(3) 2.1133(4)
C104B C 1.8335(4) 0.3377(3) 2.0534(4)
C105B C 1.7812(5) 0.3215(3) 2.0034(4)
H99B H 1.7518 0.2981 2.0061
C106B C 1.7733(5) 0.3407(3) 1.9494(4)
H100B H 1.7385 0.3301 1.9153
C107B C 1.8165(4) 0.3755(3) 1.9455(4)
H101B H 1.8108 0.3883 1.9088
C108B C 1.8678(4) 0.3912(3) 1.9954(4)
C109B C 1.8761(5) 0.3716(3) 2.0494(4)
H102B H 1.9115 0.3819 2.0834
C110B C 1.9112(5) 0.4312(3) 1.9936(4)
O62B O 1.9069(3) 0.44680(19) 1.9450(3)
Tb1B_3 Tb 1.97817(2) 0.495436(13) 1.913658(17)
O56B_2 O 2.0845(3) 0.4915(2) 1.8838(3)
O57B_2 O 1.9876(3) 0.42435(19) 1.8707(3)
O58B_2 O 1.9558(3) 0.5279(2) 1.8183(3)
O59B_2 O 1.8711(3) 0.48438(18) 1.8261(2)
O60B_3 O 2.0602(3) 0.46221(19) 1.9964(3)
O60_4 O 1.9398(3) 0.53779(19) 2.0036(3)
O61B_2 O 1.8926(3) 0.5527(2) 1.9094(3)
O63B O 2.0511(3) 0.55314(19) 1.9561(3)
C110_3 C 2.0888(5) 0.5688(3) 2.0064(4)
O62_3 O 2.0931(3) 0.55320(19) 2.0550(3)
C108_3 C 2.1322(4) 0.6088(3) 2.0046(4)
C89B_2 C 1.8991(5) 0.5065(3) 1.7954(4)
O63_2 O 1.9489(3) 0.44686(19) 2.0439(3)
Tb1_4 Tb 2.02183(2) 0.504564(13) 2.086342(17)
O61_3 O 2.1074(3) 0.4473(2) 2.0906(3)
C89_2 C 2.1009(5) 0.4935(3) 2.2046(4)
H103B H 1.8011 0.3004 2.1112
H104B H 1.8457 0.3422 2.1415
H89A H 2.2235 0.2006 2.4914
H90A H 2.2462 0.1784 2.5882
H91A H 2.1876 0.1182 2.6093
C89C_2 C 2.1009(5) 0.0065(3) 2.7046(4)
H103A H 1.8011 0.1996 2.6112
H104A H 1.8457 0.1578 2.6415
H89B H 2.2235 0.2994 2.9914
H90B H 2.2462 0.3216 3.0882
H91B H 2.1876 0.3818 3.1093
O63_3 O 1.9489(3) 0.44686(19) 3.0439(3)
C89_3 C 2.1009(5) 0.4935(3) 3.2046(4)
O63B_2 O 2.0511(3) 0.55314(19) 2.9561(3)
H103_2 H 2.1989 0.6996 2.8888
H104_2 H 2.1543 0.6578 2.8585
H89C H 1.7765 0.7994 2.5086
H90C H 1.7538 0.8216 2.4118
H91C H 1.8124 0.8818 2.3907
O62A_2 O 1.9069(3) 1.05320(19) 2.4450(3)
O63A_2 O 2.0511(3) 0.94686(19) 2.4561(3)
O61C_2 O 2.1074(3) 1.0527(2) 2.5906(3)
O62C_3 O 2.0931(3) 0.94680(19) 2.5550(3)
O63C_2 O 1.9489(3) 1.05314(19) 2.5439(3)
C89C_3 C 2.1009(5) 1.0065(3) 2.7046(4)
C100A_2 C 2.0985(5) 1.0614(3) 2.5391(4)
H87A H 1.6874 1.0447 2.0838
H88A H 1.6749 1.0392 2.1450
H83C H 1.2098 0.9971 1.9313
H84C H 1.0907 1.0131 1.8882
H85C H 1.0419 1.0204 1.7874
O60C_3 O 0.9398(3) 0.96221(19) 1.5036(3)
O60A_3 O 1.0602(3) 1.03779(19) 1.4964(3)
O61C_3 O 1.1074(3) 1.0527(2) 1.5906(3)
O63C_3 O 0.9489(3) 1.05314(19) 1.5439(3)
O63A_3 O 1.0511(3) 0.94686(19) 1.4561(3)
H103C H 1.1989 0.8004 1.3888
H104C H 1.1543 0.8422 1.3585
H89_2 H 0.7765 0.7006 1.0086
H90_2 H 0.7538 0.6784 0.9118
H91_2 H 0.8124 0.6182 0.8907
O62B_2 O 0.9069(3) 0.44680(19) 0.9450(3)
O63B_3 O 1.0511(3) 0.55314(19) 0.9561(3)
O61_4 O 1.1074(3) 0.4473(2) 1.0906(3)
O62_4 O 1.0931(3) 0.55320(19) 1.0550(3)
O63_4 O 0.9489(3) 0.44686(19) 1.0439(3)
C100B_2 C 1.0985(5) 0.4386(3) 1.0391(4)
H87B H 0.6874 0.4553 0.5838
H88B H 0.6749 0.4608 0.6450
Tb1B_4 Tb -0.02183(2) 0.495436(13) -0.086342(17)
C100B_3 C 0.0985(5) 0.4386(3) 0.0391(4)
C110B_2 C -0.0888(5) 0.4312(3) -0.0064(4)
O61B_3 O -0.1074(3) 0.5527(2) -0.0906(3)
O63B_4 O 0.0511(3) 0.55314(19) -0.0439(3)
N54C_2 N 0.0904(4) 0.7911(2) 0.3663(3)
C112C_2 C 0.0791(5) 0.7264(3) -0.1942(4)
C87C_2 C 2.1321(4) 1.0052(3) 2.7693(3)
C87_2 C 2.1321(4) 0.4948(3) 3.2693(3)
O56B_3 O 2.0845(3) 0.4915(2) 2.8838(3)
O57B_3 O 1.9876(3) 0.42435(19) 2.8707(3)
O58B_3 O 1.9558(3) 0.5279(2) 2.8183(3)
O59B_3 O 1.8711(3) 0.48438(18) 2.8261(2)
O62B_3 O 1.9069(3) 0.44680(19) 2.9450(3)
C89B_3 C 1.8991(5) 0.5065(3) 2.7954(4)
C87A_2 C 1.8679(4) -0.0052(3) 2.2307(3)
C87C_3 C 2.1321(4) 0.0052(3) 2.7693(3)
C87B_2 C 1.8679(4) 0.5052(3) 1.7307(3)
C98A_2 C 2.1355(5) 1.1011(3) 2.5247(4)
C98B_2 C 1.1355(5) 0.3989(3) 1.0247(4)
C87B_3 C 1.8679(4) 0.5052(3) 2.7307(3)
O60B_4 O 0.0602(3) 0.46221(19) -0.0036(3)
C89_4 C 1.1009(5) 0.4935(3) 1.2046(4)
C100_3 C 1.9015(5) 0.5614(3) 2.9609(4)
O61B_4 O 1.8926(3) 0.5527(2) 2.9094(3)
C100C_2 C 1.9015(5) -0.0614(3) 2.4609(4)
C107C_2 C 2.1835(4) -0.1245(3) 2.5545(4)
C109C_2 C 2.1239(5) -0.1284(3) 2.4506(4)
C100B_4 C 2.0985(5) 0.4386(3) 2.0391(4)
C100_4 C 1.9015(5) 0.5614(3) 1.9609(4)
C107_3 C 2.1835(4) 0.6245(3) 2.0545(4)
C109_3 C 2.1239(5) 0.6284(3) 1.9506(4)
O56_4 O 1.9155(3) 0.5085(2) 2.1162(3)
O57_4 O 2.0124(3) 0.57565(19) 2.1293(3)
O58_4 O 2.0442(3) 0.4721(2) 2.1817(3)
O59_4 O 2.1289(3) 0.51562(18) 2.1739(2)
C87_3 C 2.1321(4) 0.4948(3) 2.2693(3)
C110B_3 C 1.9112(5) 0.4312(3) 2.9936(4)
C110A_2 C 1.9112(5) 1.0688(3) 2.4936(4)
C110C_3 C 2.0888(5) 0.9312(3) 2.5064(4)
Tb1A_3 Tb 0.97817(2) 1.004564(13) 1.413658(17)
C100C_3 C 0.9015(5) 0.9386(3) 1.4609(4)
C100A_3 C 1.0985(5) 1.0614(3) 1.5391(4)
C110A_3 C 0.9112(5) 1.0688(3) 1.4936(4)
C110B_4 C 0.9112(5) 0.4312(3) 0.9936(4)
C110_4 C 1.0888(5) 0.5688(3) 1.0064(4)
O56B_4 O 0.0845(3) 0.4915(2) -0.1162(3)
O57B_4 O -0.0124(3) 0.42435(19) -0.1293(3)
O58B_4 O -0.0442(3) 0.5279(2) -0.1817(3)
O59B_4 O -0.1289(3) 0.48438(18) -0.1739(2)
O62B_4 O -0.0931(3) 0.44680(19) -0.0550(3)
C89B_4 C -0.1009(5) 0.5065(3) -0.2046(4)
C98B_3 C 0.1355(5) 0.3989(3) 0.0247(4)
C108B_2 C -0.1322(4) 0.3912(3) -0.0046(4)
C111C_2 C 0.1574(5) 0.8185(3) 0.3867(4)
H105C_2 H 0.0747 0.7018 -0.2212
H106C_2 H 0.1210 0.7435 -0.1936
C113C_2 C 0.0133(5) 0.7548(3) -0.2166(4)
C86C_2 C 2.0902(5) 1.0127(3) 2.8046(4)
C88C_2 C 2.2036(4) 0.9939(3) 2.7956(4)
C86_2 C 2.0902(5) 0.4873(3) 3.3046(4)
C88_2 C 2.2036(4) 0.5061(3) 3.2956(4)
C86A_2 C 1.9098(5) -0.0127(3) 2.1954(4)
C88A_2 C 1.7964(4) 0.0061(3) 2.2044(4)
C86C_3 C 2.0902(5) 0.0127(3) 2.8046(4)
C88C_3 C 2.2036(4) -0.0061(3) 2.7956(4)
C86B_2 C 1.9098(5) 0.5127(3) 1.6954(4)
C88B_2 C 1.7964(4) 0.4939(3) 1.7044(4)
C97A_2 C 2.1802(5) 1.1260(3) 2.5701(4)
C99A_2 C 2.1236(4) 1.1136(3) 2.4668(4)
C97B_2 C 1.1802(5) 0.3740(3) 1.0701(4)
C99B_2 C 1.1236(4) 0.3864(3) 0.9668(4)
C86B_3 C 1.9098(5) 0.5127(3) 2.6954(4)
C88B_3 C 1.7964(4) 0.4939(3) 2.7044(4)
O1 O 0.0689(3) 0.6579(2) 0.1351(3)
O2 O 0.0314(3) 0.5946(2) 0.2413(3)
O3 O -0.1074(4) 0.6260(2) 0.2715(3)
O4 O -0.2272(3) 0.7129(2) 0.1965(3)
O5 O -0.1727(4) 0.7706(2) 0.0989(3)
O6 O -0.0305(3) 0.7435(2) 0.0624(3)
O7 O 0.2638(3) 0.7805(2) 0.3182(3)
O8 O 0.2071(4) 0.7196(2) 0.4256(3)
O9 O 0.0665(3) 0.74478(19) 0.4600(3)
O10 O -0.0305(3) 0.8284(2) 0.3846(3)
O11 O 0.0126(3) 0.8807(2) 0.2832(3)
O12 O 0.1537(3) 0.8635(2) 0.2481(3)
N1 N 0.1532(4) 0.7121(2) 0.1483(3)
N2 N 0.1761(4) 0.6580(2) 0.2119(3)
N3 N 0.1489(4) 0.6156(2) 0.2873(3)
N4 N 0.0803(4) 0.6020(2) 0.3415(3)
N5 N -0.0244(4) 0.6229(2) 0.3647(3)
N6 N -0.1156(4) 0.6694(2) 0.3466(3)
N7 N -0.1940(4) 0.7285(2) 0.2951(3)
N8 N -0.2117(4) 0.7831(2) 0.2322(3)
N9 N -0.1891(4) 0.8272(2) 0.1560(3)
N10 N -0.1114(4) 0.8359(2) 0.1092(3)
N11 N -0.0097(4) 0.8168(2) 0.0790(3)
N12 N 0.0831(4) 0.7726(2) 0.0950(3)
N13 N 0.2334(4) 0.7612(2) 0.2207(3)
N14 N 0.2461(4) 0.7091(2) 0.2867(3)
N15 N 0.2178(4) 0.6673(2) 0.3606(3)
N16 N 0.1506(4) 0.6531(2) 0.4156(3)
N17 N 0.0463(4) 0.6713(2) 0.4423(3)
N18 N -0.0466(4) 0.7153(2) 0.4290(3)
N19 N -0.1162(4) 0.7748(2) 0.3707(3)
N20 N -0.1391(4) 0.8309(2) 0.3103(3)
N21 N -0.1089(4) 0.8705(2) 0.2355(3)
N22 N -0.0406(4) 0.8868(2) 0.1823(3)
N23 N 0.0635(4) 0.8628(2) 0.1588(3)
N24 N 0.1577(4) 0.8213(2) 0.1708(3)
C1 C 0.1270(5) 0.6746(3) 0.1626(4)
C2 C 0.1715(5) 0.6151(3) 0.2360(4)
H1 H 0.2184 0.6010 0.2464
H2 H 0.1378 0.5973 0.2055
C3 C 0.0825(5) 0.6034(3) 0.2849(4)
C4 C 0.0186(5) 0.5874(3) 0.3552(4)
H3 H -0.0111 0.5692 0.3229
H4 H 0.0345 0.5692 0.3906
C5 C -0.0847(5) 0.6382(3) 0.3229(4)
C6 C -0.1889(5) 0.6842(3) 0.3170(4)
H5 H -0.2115 0.6645 0.2840
H6 H -0.2156 0.6821 0.3444
C7 C -0.2125(5) 0.7387(3) 0.2370(4)
C8 C -0.2412(5) 0.8055(3) 0.1771(4)
H7 H -0.2753 0.8275 0.1811
H8 H -0.2679 0.7844 0.1474
C9 C -0.1594(5) 0.8074(3) 0.1190(4)
C10 C -0.0831(5) 0.8300(3) 0.0617(4)
H9 H -0.1122 0.8080 0.0347
H10 H -0.0884 0.8576 0.0400
C11 C 0.0104(5) 0.7743(3) 0.0784(4)
C12 C 0.1209(5) 0.7327(3) 0.0916(4)
H11 H 0.0876 0.7121 0.0653
H12 H 0.1583 0.7394 0.0747
C13 C 0.2260(5) 0.7215(3) 0.1865(4)
H13 H 0.2605 0.7204 0.1649
C14 C 0.2398(5) 0.6849(3) 0.2333(4)
H14 H 0.2836 0.6681 0.2368
C15 C 0.1963(5) 0.6224(3) 0.3467(4)
H15 H 0.2380 0.6025 0.3566
C16 C 0.1483(5) 0.6125(3) 0.3838(4)
H16 H 0.1673 0.5878 0.4110
C17 C -0.0148(5) 0.6420(3) 0.4219(4)
H17 H -0.0141 0.6195 0.4515
C18 C -0.0802(5) 0.6728(3) 0.4094(4)
H18 H -0.1119 0.6639 0.4315
C19 C -0.1874(5) 0.7665(3) 0.3319(4)
H19 H -0.2219 0.7656 0.3535
C20 C -0.2034(5) 0.8044(3) 0.2882(4)
H20 H -0.2468 0.8207 0.2873
C21 C -0.1578(5) 0.8700(3) 0.1756(4)
H21 H -0.1947 0.8930 0.1688
C22 C -0.1081(5) 0.8776(3) 0.1384(4)
H22 H -0.1248 0.9020 0.1102
C23 C 0.1161(5) 0.8150(3) 0.1097(4)
H23 H 0.1436 0.8230 0.0837
C24 C 0.0521(5) 0.8459(3) 0.1011(4)
H24 H 0.0510 0.8695 0.0729
C25 C 0.2492(5) 0.7534(3) 0.2796(4)
C26 C 0.2731(5) 0.6883(3) 0.3430(4)
H25 H 0.2973 0.7102 0.3725
H26 H 0.3086 0.6663 0.3419
C27 C 0.1934(5) 0.6841(3) 0.4028(4)
C28 C 0.1209(5) 0.6586(3) 0.4624(4)
H27 H 0.1259 0.6309 0.4841
H28 H 0.1487 0.6808 0.4898
C29 C 0.0259(5) 0.7138(3) 0.4452(4)
C30 C -0.0858(5) 0.7548(3) 0.4294(4)
H29 H -0.0539 0.7759 0.4560
H30 H -0.1247 0.7482 0.4447
C31 C -0.0898(5) 0.8128(3) 0.3577(4)
C32 C -0.1300(5) 0.8737(3) 0.2873(4)
H31 H -0.1750 0.8899 0.2775
H32 H -0.0936 0.8901 0.3177
C33 C -0.0388(5) 0.8796(3) 0.2387(4)
C34 C 0.1287(5) 0.8505(3) 0.1983(4)
C35 C 0.0231(5) 0.8994(3) 0.1698(4)
H33 H 0.0540 0.9162 0.2031
H34 H 0.0094 0.9186 0.1353
C36 C 0.2304(5) 0.8051(3) 0.1971(4)
H35 H 0.2568 0.8250 0.2287
H36 H 0.2541 0.8053 0.1674
O64? O -0.0462(13) 0.9550(12) 0.0315(10)
O65? O 0.3432(13) 0.2653(6) 0.5971(9)
O66? O 0.4000(8) 0.2420(4) 0.5139(6)
O67? O -0.176(3) 0.5830(14) 0.393(2)
O68? O -0.146(2) 0.5851(12) 0.448(4)
O69? O -0.212(3) 0.607(2) 0.411(4)
loop_
_geom_bond_atom_site_label_1
_geom_bond_atom_site_label_2
_geom_bond_site_symmetry_1
_geom_bond_site_symmetry_2
O1 C1 1_555 1_555
O2 C3 1_555 1_555
O3 C5 1_555 1_555
O4 C7 1_555 1_555
O5 C9 1_555 1_555
O6 C11 1_555 1_555
O7 C25 1_555 1_555
O8 C27 1_555 1_555
O9 C29 1_555 1_555
O10 C31 1_555 1_555
O11 C33 1_555 1_555
O12 C34 1_555 1_555
N1 C1 1_555 1_555
N2 C1 1_555 1_555
N3 C2 1_555 1_555
N4 C3 1_555 1_555
N5 C4 1_555 1_555
N6 C5 1_555 1_555
N7 C6 1_555 1_555
N8 C7 1_555 1_555
N9 C8 1_555 1_555
N10 C9 1_555 1_555
N11 C10 1_555 1_555
N12 C11 1_555 1_555
N13 C13 1_555 1_555
N14 C14 1_555 1_555
N15 C15 1_555 1_555
N16 C16 1_555 1_555
N17 C17 1_555 1_555
N18 C18 1_555 1_555
N19 C19 1_555 1_555
N20 C20 1_555 1_555
N21 C21 1_555 1_555
N22 C22 1_555 1_555
N23 C24 1_555 1_555
N24 C23 1_555 1_555
C2 N2 1_555 1_555
H1 C2 1_555 1_555
H2 C2 1_555 1_555
C3 N3 1_555 1_555
C4 N4 1_555 1_555
H3 C4 1_555 1_555
H4 C4 1_555 1_555
C5 N5 1_555 1_555
C6 N6 1_555 1_555
H5 C6 1_555 1_555
H6 C6 1_555 1_555
C7 N7 1_555 1_555
C8 N8 1_555 1_555
H7 C8 1_555 1_555
H8 C8 1_555 1_555
C9 N9 1_555 1_555
C10 N10 1_555 1_555
H9 C10 1_555 1_555
H10 C10 1_555 1_555
C11 N11 1_555 1_555
C12 N1 1_555 1_555
H11 C12 1_555 1_555
H12 C12 1_555 1_555
C13 N1 1_555 1_555
H13 C13 1_555 1_555
C14 N2 1_555 1_555
H14 C14 1_555 1_555
C15 N3 1_555 1_555
H15 C15 1_555 1_555
C16 N4 1_555 1_555
H16 C16 1_555 1_555
C17 N5 1_555 1_555
H17 C17 1_555 1_555
C18 N6 1_555 1_555
H18 C18 1_555 1_555
C19 N7 1_555 1_555
H19 C19 1_555 1_555
C20 N8 1_555 1_555
H20 C20 1_555 1_555
C21 N9 1_555 1_555
H21 C21 1_555 1_555
C22 N10 1_555 1_555
H22 C22 1_555 1_555
C23 N12 1_555 1_555
H23 C23 1_555 1_555
C24 N11 1_555 1_555
H24 C24 1_555 1_555
C25 N13 1_555 1_555
C26 N14 1_555 1_555
H25 C26 1_555 1_555
H26 C26 1_555 1_555
C27 N15 1_555 1_555
C28 N16 1_555 1_555
H27 C28 1_555 1_555
H28 C28 1_555 1_555
C29 N17 1_555 1_555
C30 N18 1_555 1_555
H29 C30 1_555 1_555
H30 C30 1_555 1_555
C31 N19 1_555 1_555
C32 N20 1_555 1_555
H31 C32 1_555 1_555
H32 C32 1_555 1_555
C33 N21 1_555 1_555
C34 N23 1_555 1_555
C35 N22 1_555 1_555
H33 C35 1_555 1_555
H34 C35 1_555 1_555
C36 N13 1_555 1_555
H35 C36 1_555 1_555
H36 C36 1_555 1_555
N25 C44 1_555 1_555
O13 C43 1_555 1_555
O14 C43 1_555 1_555
C37 C38 1_555 1_555
C38 H37 1_555 1_555
C39 C38 1_555 1_555
H38 C39 1_555 1_555
C40 C39 1_555 1_555
H39 C40 1_555 1_555
C41 C40 1_555 1_555
C42 C37 1_555 1_555
H40 C42 1_555 1_555
C43 C41 1_555 1_555
C44 C37 1_555 1_555
H41 C44 1_555 1_555
H42 C44 1_555 1_555
C45 N25 1_555 1_555
H43 C45 1_555 1_555
H44 C45 1_555 1_555
C46 C45 1_555 1_555
H45 C46 1_555 1_555
H46 C46 1_555 1_555
O15 C47 1_555 1_555
O16 C49 1_555 1_555
O17 C51 1_555 1_555
O18 C59 1_555 1_555
O19 C61 1_555 1_555
O20 C63 1_555 1_555
N26 C47 1_555 1_555
N27 C47 1_555 1_555
N28 C48 1_555 1_555
N29 C49 1_555 1_555
N30 C50 1_555 1_555
N31 C51 1_555 1_555
N32 C52 1_555 1_555
N33 C54 1_555 1_555
N34 C55 1_555 1_555
N35 C56 1_555 1_555
N36 C57 1_555 1_555
N37 C58 1_555 1_555
C48 N27 1_555 1_555
H47 C48 1_555 1_555
H48 C48 1_555 1_555
C49 N28 1_555 1_555
C50 N29 1_555 1_555
H49 C50 1_555 1_555
H50 C50 1_555 1_555
C51 N30 1_555 1_555
C52 N31 1_555 1_555
H51 C52 1_555 1_555
H52 C52 1_555 1_555
C53 N26 1_555 1_555
H53 C53 1_555 1_555
C54 N27 1_555 1_555
H54 C54 1_555 1_555
C55 N28 1_555 1_555
H55 C55 1_555 1_555
C56 N29 1_555 1_555
H56 C56 1_555 1_555
C57 N30 1_555 1_555
H57 C57 1_555 1_555
C58 N31 1_555 1_555
H58 C58 1_555 1_555
C59 N32 1_555 1_555
C60 N33 1_555 1_555
H59 C60 1_555 1_555
H60 C60 1_555 1_555
C61 N34 1_555 1_555
C62 N35 1_555 1_555
H61 C62 1_555 1_555
H62 C62 1_555 1_555
C63 N36 1_555 1_555
C64 N26 1_555 1_555
H63 C64 1_555 1_555
H64 C64 1_555 1_555
N38 O21 1_555 1_555
O22 N38 1_555 1_555
O23 N38 1_555 1_555
N39 O24 1_555 1_555
O25 N39 1_555 1_555
O26 N39 1_555 1_555
O27 C65 1_555 1_555
O28 C67 1_555 1_555
O29 C69 1_555 1_555
O30 C78 1_555 1_555
O31 C80 1_555 1_555
O32 C82 1_555 1_555
N40 C65 1_555 1_555
N41 C65 1_555 1_555
N42 C66 1_555 1_555
N43 C67 1_555 1_555
N44 C68 1_555 1_555
N45 C69 1_555 1_555
N46 C70 1_555 1_555
N47 C73 1_555 1_555
N48 C74 1_555 1_555
N49 C75 1_555 1_555
N50 C76 1_555 1_555
N51 C71 1_555 1_555
C66 N41 1_555 1_555
H65 C66 1_555 1_555
H66 C66 1_555 1_555
C67 N42 1_555 1_555
C68 N43 1_555 1_555
H67 C68 1_555 1_555
H68 C68 1_555 1_555
C69 N44 1_555 1_555
C70 N45 1_555 1_555
H69 C70 1_555 1_555
H70 C70 1_555 1_555
C71 N40 1_555 1_555
H71 C71 1_555 1_555
H72 C71 1_555 1_555
C72 N40 1_555 1_555
H73 C72 1_555 1_555
C73 N41 1_555 1_555
H74 C73 1_555 1_555
C74 N42 1_555 1_555
H75 C74 1_555 1_555
C75 N43 1_555 1_555
H76 C75 1_555 1_555
C76 N44 1_555 1_555
H77 C76 1_555 1_555
C77 N45 1_555 1_555
H78 C77 1_555 1_555
C78 N46 1_555 1_555
C79 N47 1_555 1_555
H79 C79 1_555 1_555
H80 C79 1_555 1_555
C80 N48 1_555 1_555
C81 N49 1_555 1_555
H81 C81 1_555 1_555
H82 C81 1_555 1_555
C82 N51 1_555 1_555
Tb1 O56 1_555 1_555
O57 Tb1 1_555 1_555
O58 Tb1 1_555 1_555
O59 Tb1 1_555 1_555
O60 Tb1 1_555 1_555
O61 Tb1 1_555 1_555
O62 Tb1 1_555 1_555
O63 Tb1 1_555 1_555
C83 C84 1_555 1_555
C84 H83 1_555 1_555
C85 C84 1_555 1_555
H84 C85 1_555 1_555
C86 C85 1_555 1_555
H85 C86 1_555 1_555
C87 C86 1_555 1_555
C88 C83 1_555 1_555
H86 C88 1_555 1_555
C89 Tb1 1_555 1_555
C90 C83 1_555 1_555
H87 C90 1_555 1_555
H88 C90 1_555 1_555
C91 C92 1_555 1_555
C92 C93 1_555 1_555
C93 C91 1_555 1_555
C94 C95 1_555 1_555
C95 H89 1_555 1_555
C96 C95 1_555 1_555
H90 C96 1_555 1_555
C97 C96 1_555 1_555
H91 C97 1_555 1_555
C98 C97 1_555 1_555
C99 C94 1_555 1_555
H92 C99 1_555 1_555
C100 O60 1_555 1_555
C101 C94 1_555 1_555
H93 C101 1_555 1_555
H94 C101 1_555 1_555
C102 H95 1_555 1_555
H96 C102 1_555 1_555
C103 C102 1_555 1_555
H97 C103 1_555 1_555
H98 C103 1_555 1_555
C104 C105 1_555 1_555
C105 H99 1_555 1_555
C106 C105 1_555 1_555
H100 C106 1_555 1_555
C107 C106 1_555 1_555
H101 C107 1_555 1_555
C108 C107 1_555 1_555
C109 C104 1_555 1_555
H102 C109 1_555 1_555
C110 O62 1_555 1_555
C111 C104 1_555 1_555
H103 C111 1_555 1_555
H104 C111 1_555 1_555
C112 H105 1_555 1_555
H106 C112 1_555 1_555
C113 C103 1_555 1_555
N52 C90 1_555 1_555
N53 C101 1_555 1_555
N54 C111 1_555 1_555
C46B C46 1_555 1_555
C45B C46B 1_555 1_555
N25B C45B 1_555 1_555
C44B N25B 1_555 1_555
C37B C44B 1_555 1_555
C38B C37B 1_555 1_555
H37B C38B 1_555 1_555
C39B C38B 1_555 1_555
H38B C39B 1_555 1_555
C40B C39B 1_555 1_555
H39B C40B 1_555 1_555
C41B C40B 1_555 1_555
C42B C37B 1_555 1_555
H40B C42B 1_555 1_555
C43B C41B 1_555 1_555
O13B C43B 1_555 1_555
O14B C43B 1_555 1_555
H41B C44B 1_555 1_555
H42B C44B 1_555 1_555
H43B C45B 1_555 1_555
H44B C45B 1_555 1_555
H45B C46B 1_555 1_555
H46B C46B 1_555 1_555
N32B C53 1_555 1_555
C52B N32B 1_555 1_555
N31B C52B 1_555 1_555
C51B N31B 1_555 1_555
O17B C51B 1_555 1_555
N30B C51B 1_555 1_555
C50B N30B 1_555 1_555
N29B C50B 1_555 1_555
C49B N29B 1_555 1_555
O16B C49B 1_555 1_555
N28B C49B 1_555 1_555
C48B N28B 1_555 1_555
N27B C48B 1_555 1_555
C47B N27B 1_555 1_555
O15B C47B 1_555 1_555
N26B C47B 1_555 1_555
C53B N32 1_555 1_555
C59B N33 1_555 1_555
O18B C59B 1_555 1_555
C64B N37 1_555 1_555
H63B C64B 1_555 1_555
H64B C64B 1_555 1_555
N33B C59 1_555 1_555
C54B N27B 1_555 1_555
H53B C53B 1_555 1_555
H54B C54B 1_555 1_555
C60B N33B 1_555 1_555
N34B C60B 1_555 1_555
C55B N28B 1_555 1_555
H55B C55B 1_555 1_555
C56B N29B 1_555 1_555
N35B C56B 1_555 1_555
C61B N34B 1_555 1_555
O19B C61B 1_555 1_555
C62B N35B 1_555 1_555
N36B C62B 1_555 1_555
C57B N30B 1_555 1_555
H57B C57B 1_555 1_555
C58B N31B 1_555 1_555
N37B C64 1_555 1_555
C63B N36B 1_555 1_555
O20B C63B 1_555 1_555
H58B C58B 1_555 1_555
H61B C62B 1_555 1_555
H62B C62B 1_555 1_555
H56B C56B 1_555 1_555
H59B C60B 1_555 1_555
H60B C60B 1_555 1_555
H47B C48B 1_555 1_555
H48B C48B 1_555 1_555
H49B C50B 1_555 1_555
H50B C50B 1_555 1_555
H51B C52B 1_555 1_555
H52B C52B 1_555 1_555
C77B N51 1_555 1_555
N45B C77B 1_555 1_555
C69B N45B 1_555 1_555
O29B C69B 1_555 1_555
N44B C69B 1_555 1_555
C68B N44B 1_555 1_555
N43B C68B 1_555 1_555
C67B N43B 1_555 1_555
O28B C67B 1_555 1_555
N42B C67B 1_555 1_555
C66B N42B 1_555 1_555
N41B C66B 1_555 1_555
C65B N41B 1_555 1_555
O27B C65B 1_555 1_555
N40B C65B 1_555 1_555
C71B N40B 1_555 1_555
N51B C77 1_555 1_555
C78B N47 1_555 1_555
O30B C78B 1_555 1_555
N46B C72 1_555 1_555
C70B N45B 1_555 1_555
H69B C70B 1_555 1_555
H70B C70B 1_555 1_555
C82B N50 1_555 1_555
O32B C82B 1_555 1_555
C72B N46 1_555 1_555
H73B C72B 1_555 1_555
C73B N41B 1_555 1_555
N47B C78 1_555 1_555
C79B N47B 1_555 1_555
N48B C79B 1_555 1_555
C74B N42B 1_555 1_555
H75B C74B 1_555 1_555
C75B N43B 1_555 1_555
N49B C75B 1_555 1_555
C80B N48B 1_555 1_555
O31B C80B 1_555 1_555
C81B N49B 1_555 1_555
N50B C82 1_555 1_555
C76B C77B 1_555 1_555
H77B C76B 1_555 1_555
H78B C77B 1_555 1_555
H81B C81B 1_555 1_555
H82B C81B 1_555 1_555
H76B C75B 1_555 1_555
H79B C79B 1_555 1_555
H80B C79B 1_555 1_555
H74B C73B 1_555 1_555
H71B C71B 1_555 1_555
H72B C71B 1_555 1_555
H65B C66B 1_555 1_555
H66B C66B 1_555 1_555
H67B C68B 1_555 1_555
H68B C68B 1_555 1_555
C92B C93 1_555 1_555
C91B C92B 1_555 1_555
C93B C92 1_555 1_555
N52B C91B 1_555 1_555
C90B N52B 1_555 1_555
C83B C90B 1_555 1_555
C84B C83B 1_555 1_555
H83B C84B 1_555 1_555
C85B C84B 1_555 1_555
H84B C85B 1_555 1_555
C86B C85B 1_555 1_555
H85B C86B 1_555 1_555
C87B C86B 1_555 1_555
C88B C83B 1_555 1_555
H86B C88B 1_555 1_555
C89B C87B 1_555 1_555
Tb1B C89B 1_555 1_555
O56B Tb1B 1_555 1_555
O57B Tb1B 1_555 1_555
O58B C89B 1_555 1_555
O59B C89B 1_555 1_555
O60B Tb1B 1_555 1_555
Tb1_2 O60B 1_555 1_555
O56_2 Tb1_2 1_555 1_555
O57_2 Tb1_2 1_555 1_555
O58_2 Tb1_2 1_555 1_555
O59_2 Tb1_2 1_555 1_555
O60_2 Tb1B 1_555 1_555
O61B Tb1B 1_555 1_555
C100_2 O60_2 1_555 1_555
C98_2 C100_2 1_555 1_555
C97_2 C98_2 1_555 1_555
C96_2 C97_2 1_555 1_555
C95_2 C96_2 1_555 1_555
C94_2 C95_2 1_555 1_555
C99_2 C98_2 1_555 1_555
H92_2 C99_2 1_555 1_555
C101_2 C94_2 1_555 1_555
H93_2 C101_2 1_555 1_555
H94_2 C101_2 1_555 1_555
N53_2 C101_2 1_555 1_555
C102_2 N53_2 1_555 1_555
H95_2 C102_2 1_555 1_555
H96_2 C102_2 1_555 1_555
C103_2 C102_2 1_555 1_555
H97_2 C103_2 1_555 1_555
H98_2 C103_2 1_555 1_555
C113_2 C103_2 1_555 1_555
C112_2 C113_2 1_555 1_555
H105_2 C112_2 1_555 1_555
H106_2 C112_2 1_555 1_555
N54C C112_2 1_555 1_555
C111C N54C 1_555 1_555
C104C C111C 1_555 1_555
C105C C104C 1_555 1_555
H99C C105C 1_555 1_555
C106C C105C 1_555 1_555
H100C C106C 1_555 1_555
C107C C106C 1_555 1_555
H101C C107C 1_555 1_555
C108C C107C 1_555 1_555
C109C C104C 1_555 1_555
H102C C109C 1_555 1_555
C110C C108C 1_555 1_555
O62C C110C 1_555 1_555
Tb1C O62C 1_555 1_555
O56C Tb1C 1_555 1_555
O57C Tb1C 1_555 1_555
O58C Tb1C 1_555 1_555
C89C Tb1C 1_555 1_555
O59C Tb1C 1_555 1_555
C87C C89C 1_555 1_555
C86C C87C 1_555 1_555
C85C C86C 1_555 1_555
C84C C85C 1_555 1_555
C83C C84C 1_555 1_555
C88C C87C 1_555 1_555
H86C C88C 1_555 1_555
C90C C83C 1_555 1_555
H87C C90C 1_555 1_555
H88C C90C 1_555 1_555
N52C C90C 1_555 1_555
C91C N52C 1_555 1_555
C92C C91C 1_555 1_555
C93C C91C 1_555 1_555
C92A C93C 1_555 1_555
C91A C92A 1_555 1_555
C93A C92C 1_555 1_555
N52A C91A 1_555 1_555
C90A N52A 1_555 1_555
C83A C90A 1_555 1_555
C84A C83A 1_555 1_555
H83A C84A 1_555 1_555
C85A C84A 1_555 1_555
H84A C85A 1_555 1_555
C86A C85A 1_555 1_555
H85A C86A 1_555 1_555
C87A C86A 1_555 1_555
C88A C83A 1_555 1_555
H86A C88A 1_555 1_555
C89A C87A 1_555 1_555
Tb1A C89A 1_555 1_555
O56A Tb1A 1_555 1_555
O57A Tb1A 1_555 1_555
O58A C89A 1_555 1_555
O59A C89A 1_555 1_555
O60A Tb1A 1_555 1_555
Tb1C_2 O60A 1_555 1_555
O56C_2 Tb1C_2 1_555 1_555
O57C_2 Tb1C_2 1_555 1_555
O58C_2 Tb1C_2 1_555 1_555
O59C_2 Tb1C_2 1_555 1_555
O60C Tb1A 1_555 1_555
O61A Tb1A 1_555 1_555
C100C O60C 1_555 1_555
C98C C100C 1_555 1_555
C97C C98C 1_555 1_555
C96C C97C 1_555 1_555
C95C C96C 1_555 1_555
C94C C95C 1_555 1_555
C99C C98C 1_555 1_555
H92C C99C 1_555 1_555
C101C C94C 1_555 1_555
H93C C101C 1_555 1_555
H94C C101C 1_555 1_555
N53C C101C 1_555 1_555
C102C N53C 1_555 1_555
H95C C102C 1_555 1_555
H96C C102C 1_555 1_555
C103C C102C 1_555 1_555
H97C C103C 1_555 1_555
H98C C103C 1_555 1_555
C113C C103C 1_555 1_555
C112C C113C 1_555 1_555
H105C C112C 1_555 1_555
H106C C112C 1_555 1_555
N54_2 C112C 1_555 1_555
C111_2 N54_2 1_555 1_555
C104_2 C111_2 1_555 1_555
C105_2 C104_2 1_555 1_555
H99_2 C105_2 1_555 1_555
C106_2 C105_2 1_555 1_555
H100_2 C106_2 1_555 1_555
C107_2 C106_2 1_555 1_555
H101_2 C107_2 1_555 1_555
C108_2 C107_2 1_555 1_555
C109_2 C104_2 1_555 1_555
H102_2 C109_2 1_555 1_555
C110_2 C108_2 1_555 1_555
O62_2 C110_2 1_555 1_555
Tb1_3 O62_2 1_555 1_555
O56_3 Tb1_3 1_555 1_555
O57_3 Tb1_3 1_555 1_555
O58_3 Tb1_3 1_555 1_555
O59_3 Tb1_3 1_555 1_555
O60_3 Tb1_3 1_555 1_555
O60B_2 Tb1_3 1_555 1_555
O61_2 Tb1_3 1_555 1_555
C100B O60B_2 1_555 1_555
Tb1B_2 O60_3 1_555 1_555
C98B C100B 1_555 1_555
C97B C98B 1_555 1_555
C96B C97B 1_555 1_555
C95B C96B 1_555 1_555
C94B C95B 1_555 1_555
C99B C98B 1_555 1_555
H92B C99B 1_555 1_555
C101B C94B 1_555 1_555
H93B C101B 1_555 1_555
H94B C101B 1_555 1_555
N53B C101B 1_555 1_555
C102B N53B 1_555 1_555
H95B C102B 1_555 1_555
H96B C102B 1_555 1_555
C103B C102B 1_555 1_555
H97B C103B 1_555 1_555
H98B C103B 1_555 1_555
C113B C103B 1_555 1_555
C112B C113B 1_555 1_555
H105B C112B 1_555 1_555
H106B C112B 1_555 1_555
N54A C112B 1_555 1_555
C111A N54A 1_555 1_555
C104A C111A 1_555 1_555
C105A C104A 1_555 1_555
H99A C105A 1_555 1_555
C106A C105A 1_555 1_555
H100A C106A 1_555 1_555
C107A C106A 1_555 1_555
H101A C107A 1_555 1_555
C108A C107A 1_555 1_555
C109A C104A 1_555 1_555
H102A C109A 1_555 1_555
C110A C108A 1_555 1_555
O62A C110A 1_555 1_555
Tb1A_2 O62A 1_555 1_555
O56A_2 Tb1A_2 1_555 1_555
O57A_2 Tb1A_2 1_555 1_555
O58A_2 Tb1A_2 1_555 1_555
O59A_2 Tb1A_2 1_555 1_555
O60A_2 Tb1A_2 1_555 1_555
O60C_2 Tb1A_2 1_555 1_555
O61A_2 Tb1A_2 1_555 1_555
O63A Tb1A_2 1_555 1_555
C110C_2 O63A 1_555 1_555
O62C_2 C110C_2 1_555 1_555
C108C_2 C110C_2 1_555 1_555
C89A_2 Tb1A_2 1_555 1_555
O63C C110A 1_555 1_555
Tb1C_3 O60A_2 1_555 1_555
O56C_3 Tb1C_3 1_555 1_555
O57C_3 Tb1C_3 1_555 1_555
O58C_3 Tb1C_3 1_555 1_555
O59C_3 Tb1C_3 1_555 1_555
O61C Tb1C_3 1_555 1_555
C100A O60A_2 1_555 1_555
C98A C100A 1_555 1_555
C97A C98A 1_555 1_555
C96A C97A 1_555 1_555
C95A C96A 1_555 1_555
C94A C95A 1_555 1_555
C99A C98A 1_555 1_555
H92A C99A 1_555 1_555
C101A C94A 1_555 1_555
H93A C101A 1_555 1_555
H94A C101A 1_555 1_555
N53A C101A 1_555 1_555
C102A N53A 1_555 1_555
H95A C102A 1_555 1_555
H96A C102A 1_555 1_555
C103A C102A 1_555 1_555
H97A C103A 1_555 1_555
H98A C103A 1_555 1_555
C113A C103A 1_555 1_555
C112A C113A 1_555 1_555
H105A C112A 1_555 1_555
H106A C112A 1_555 1_555
N54B C112A 1_555 1_555
C111B N54B 1_555 1_555
C104B C111B 1_555 1_555
C105B C104B 1_555 1_555
H99B C105B 1_555 1_555
C106B C105B 1_555 1_555
H100B C106B 1_555 1_555
C107B C106B 1_555 1_555
H101B C107B 1_555 1_555
C108B C107B 1_555 1_555
C109B C104B 1_555 1_555
H102B C109B 1_555 1_555
C110B C108B 1_555 1_555
O62B C110B 1_555 1_555
Tb1B_3 O62B 1_555 1_555
O56B_2 Tb1B_3 1_555 1_555
O57B_2 Tb1B_3 1_555 1_555
O58B_2 Tb1B_3 1_555 1_555
O59B_2 Tb1B_3 1_555 1_555
O60B_3 Tb1B_3 1_555 1_555
O60_4 Tb1B_3 1_555 1_555
O61B_2 Tb1B_3 1_555 1_555
O63B Tb1B_3 1_555 1_555
C110_3 O63B 1_555 1_555
O62_3 C110_3 1_555 1_555
C108_3 C110_3 1_555 1_555
C89B_2 Tb1B_3 1_555 1_555
O63_2 C110B 1_555 1_555
Tb1_4 O60B_3 1_555 1_555
O61_3 Tb1_4 1_555 1_555
C89_2 Tb1_4 1_555 1_555
H103B C111B 1_555 1_555
H104B C111B 1_555 1_555
H89A C95A 1_555 1_555
H90A C96A 1_555 1_555
H91A C97A 1_555 1_555
C89C_2 Tb1C_3 1_555 1_555
H103A C111A 1_555 1_555
H104A C111A 1_555 1_555
H89B C95B 1_555 1_555
H90B C96B 1_555 1_555
H91B C97B 1_555 1_555
O63_3 Tb1_3 1_555 1_555
C89_3 Tb1_3 1_555 1_555
O63B_2 C110_2 1_555 1_555
H103_2 C111_2 1_555 1_555
H104_2 C111_2 1_555 1_555
H89C C95C 1_555 1_555
H90C C96C 1_555 1_555
H91C C97C 1_555 1_555
O62A_2 Tb1A 1_555 1_555
O63A_2 Tb1A 1_555 1_555
O61C_2 Tb1C_2 1_555 1_555
O62C_3 Tb1C_2 1_555 1_555
O63C_2 Tb1C_2 1_555 1_555
C89C_3 Tb1C_2 1_555 1_555
C100A_2 O60A 1_555 1_555
H87A C90A 1_555 1_555
H88A C90A 1_555 1_555
H83C C84C 1_555 1_555
H84C C85C 1_555 1_555
H85C C86C 1_555 1_555
O60C_3 Tb1C 1_555 1_555
O60A_3 Tb1C 1_555 1_555
O61C_3 Tb1C 1_555 1_555
O63C_3 Tb1C 1_555 1_555
O63A_3 C110C 1_555 1_555
H103C C111C 1_555 1_555
H104C C111C 1_555 1_555
H89_2 C95_2 1_555 1_555
H90_2 C96_2 1_555 1_555
H91_2 C97_2 1_555 1_555
O62B_2 Tb1B 1_555 1_555
O63B_3 Tb1B 1_555 1_555
O61_4 Tb1_2 1_555 1_555
O62_4 Tb1_2 1_555 1_555
O63_4 Tb1_2 1_555 1_555
C100B_2 O60B 1_555 1_555
H87B C90B 1_555 1_555
H88B C90B 1_555 1_555
Tb1B_4 O60 1_555 1_555
C100B_3 O61 1_555 1_555
C110B_2 O63 1_555 1_555
O61B_3 C100 1_555 1_555
O63B_4 C110 1_555 1_555
N54C_2 C112 1_555 1_555
C112C_2 N54 1_555 1_555
C87C_2 C89C_3 1_555 1_555
C87_2 C89_3 1_555 1_555
O56B_3 Tb1B_2 1_555 1_555
O57B_3 Tb1B_2 1_555 1_555
O58B_3 Tb1B_2 1_555 1_555
O59B_3 Tb1B_2 1_555 1_555
O62B_3 Tb1B_2 1_555 1_555
C89B_3 Tb1B_2 1_555 1_555
C87A_2 C89A_2 1_555 1_555
C87C_3 C89C_2 1_555 1_555
C87B_2 C89B_2 1_555 1_555
C98A_2 C100A_2 1_555 1_555
C98B_2 C100B_2 1_555 1_555
C87B_3 C89B_3 1_555 1_555
O60B_4 Tb1 1_555 1_555
C89_4 Tb1_2 1_555 1_555
C100_3 O60_3 1_555 1_555
O61B_4 Tb1B_2 1_555 1_555
C100C_2 O60C_2 1_555 1_555
C107C_2 C108C_2 1_555 1_555
C109C_2 C108C_2 1_555 1_555
C100B_4 O60B_3 1_555 1_555
C100_4 O60_4 1_555 1_555
C107_3 C108_3 1_555 1_555
C109_3 C108_3 1_555 1_555
O56_4 Tb1_4 1_555 1_555
O57_4 Tb1_4 1_555 1_555
O58_4 Tb1_4 1_555 1_555
O59_4 Tb1_4 1_555 1_555
C87_3 C89_2 1_555 1_555
C110B_3 O63_3 1_555 1_555
C110A_2 O62A_2 1_555 1_555
C110C_3 O63A_2 1_555 1_555
Tb1A_3 O60C_3 1_555 1_555
C100C_3 O60C_3 1_555 1_555
C100A_3 O60A_3 1_555 1_555
C110A_3 O63C_3 1_555 1_555
C110B_4 O62B_2 1_555 1_555
C110_4 O63B_3 1_555 1_555
O56B_4 Tb1B_4 1_555 1_555
O57B_4 Tb1B_4 1_555 1_555
O58B_4 Tb1B_4 1_555 1_555
O59B_4 Tb1B_4 1_555 1_555
O62B_4 Tb1B_4 1_555 1_555
C89B_4 Tb1B_4 1_555 1_555
C98B_3 C100B_3 1_555 1_555
C108B_2 C110B_2 1_555 1_555
C111C_2 N54C_2 1_555 1_555
H105C_2 C112C_2 1_555 1_555
H106C_2 C112C_2 1_555 1_555
C113C_2 C112C_2 1_555 1_555
C86C_2 C87C_2 1_555 1_555
C88C_2 C87C_2 1_555 1_555
C86_2 C87_2 1_555 1_555
C88_2 C87_2 1_555 1_555
C86A_2 C87A_2 1_555 1_555
C88A_2 C87A_2 1_555 1_555
C86C_3 C87C_3 1_555 1_555
C88C_3 C87C_3 1_555 1_555
C86B_2 C87B_2 1_555 1_555
C88B_2 C87B_2 1_555 1_555
C97A_2 C98A_2 1_555 1_555
C99A_2 C98A_2 1_555 1_555
C97B_2 C98B_2 1_555 1_555
C99B_2 C98B_2 1_555 1_555
C86B_3 C87B_3 1_555 1_555
C88B_3 C87B_3 1_555 1_555
N12 C12 1_555 1_555
N14 C25 1_555 1_555
N15 C26 1_555 1_555
N16 C27 1_555 1_555
N17 C28 1_555 1_555
N18 C29 1_555 1_555
N19 C30 1_555 1_555
N20 C31 1_555 1_555
N21 C32 1_555 1_555
N22 C33 1_555 1_555
N23 C35 1_555 1_555
N24 C34 1_555 1_555
N24 C36 1_555 1_555
C13 C14 1_555 1_555
C15 C16 1_555 1_555
C17 C18 1_555 1_555
C19 C20 1_555 1_555
C21 C22 1_555 1_555
C23 C24 1_555 1_555
C41 C42 1_555 1_555
N34 C60 1_555 1_555
N35 C61 1_555 1_555
N36 C62 1_555 1_555
N37 C63 1_555 1_555
C53 C54 1_555 1_555
C55 C56 1_555 1_555
C57 C58 1_555 1_555
N48 C79 1_555 1_555
N49 C80 1_555 1_555
N50 C81 1_555 1_555
C72 C73 1_555 1_555
C74 C75 1_555 1_555
C76 C77 1_555 1_555
O58 C89 1_555 1_555
O59 C89 1_555 1_555
C87 C88 1_555 1_555
C87 C89 1_555 1_555
C91 N52 1_555 1_555
C98 C99 1_555 1_555
C98 C100 1_555 1_555
C102 N53 1_555 1_555
C108 C109 1_555 1_555
C108 C110 1_555 1_555
C112 C113 1_555 1_555
C41B C42B 1_555 1_555
N32B C59B 1_555 1_555
N26B C53B 1_555 1_555
N26B C64B 1_555 1_555
C53B C54B 1_555 1_555
N33B C54B 1_555 1_555
N34B C55B 1_555 1_555
C55B C56B 1_555 1_555
N35B C61B 1_555 1_555
N36B C57B 1_555 1_555
C57B C58B 1_555 1_555
C58B N37B 1_555 1_555
N37B C63B 1_555 1_555
N44B C76B 1_555 1_555
N40B C72B 1_555 1_555
C71B N51B 1_555 1_555
N51B C82B 1_555 1_555
C78B N46B 1_555 1_555
N46B C70B 1_555 1_555
C72B C73B 1_555 1_555
C73B N47B 1_555 1_555
N48B C74B 1_555 1_555
C74B C75B 1_555 1_555
N49B C80B 1_555 1_555
C81B N50B 1_555 1_555
N50B C76B 1_555 1_555
C92B C93B 1_555 1_555
C91B C93B 1_555 1_555
C87B C88B 1_555 1_555
Tb1B O58B 1_555 1_555
Tb1B O59B 1_555 1_555
Tb1_2 O60_2 1_555 1_555
O58_2 C89_4 1_555 1_555
O59_2 C89_4 1_555 1_555
O61B C100_2 1_555 1_555
C94_2 C99_2 1_555 1_555
C108C C109C 1_555 1_555
O58C C89C 1_555 1_555
C89C O59C 1_555 1_555
C83C C88C 1_555 1_555
C92C C93C 1_555 1_555
C92A C93A 1_555 1_555
C91A C93A 1_555 1_555
C87A C88A 1_555 1_555
Tb1A O58A 1_555 1_555
Tb1A O59A 1_555 1_555
Tb1C_2 O60C 1_555 1_555
O58C_2 C89C_3 1_555 1_555
O59C_2 C89C_3 1_555 1_555
O61A C100C 1_555 1_555
C94C C99C 1_555 1_555
C108_2 C109_2 1_555 1_555
O58_3 C89_3 1_555 1_555
O59_3 C89_3 1_555 1_555
O60B_2 Tb1B_2 1_555 1_555
O61_2 C100B 1_555 1_555
Tb1B_2 O63B_2 1_555 1_555
C94B C99B 1_555 1_555
C108A C109A 1_555 1_555
O58A_2 C89A_2 1_555 1_555
O59A_2 C89A_2 1_555 1_555
O60C_2 Tb1C_3 1_555 1_555
O61A_2 C100C_2 1_555 1_555
O62C_2 Tb1C_3 1_555 1_555
O63C Tb1C_3 1_555 1_555
O58C_3 C89C_2 1_555 1_555
O59C_3 C89C_2 1_555 1_555
O61C C100A 1_555 1_555
C94A C99A 1_555 1_555
C108B C109B 1_555 1_555
O58B_2 C89B_2 1_555 1_555
O59B_2 C89B_2 1_555 1_555
O60_4 Tb1_4 1_555 1_555
O61B_2 C100_4 1_555 1_555
O62_3 Tb1_4 1_555 1_555
O63_2 Tb1_4 1_555 1_555
O61_3 C100B_4 1_555 1_555
C89_2 O58_4 1_555 1_555
C89_2 O59_4 1_555 1_555
O61C_2 C100A_2 1_555 1_555
O62C_3 C110C_3 1_555 1_555
O63C_2 C110A_2 1_555 1_555
O60A_3 Tb1A_3 1_555 1_555
O61C_3 C100A_3 1_555 1_555
O63A_3 Tb1A_3 1_555 1_555
O61_4 C100B_2 1_555 1_555
O62_4 C110_4 1_555 1_555
O63_4 C110B_4 1_555 1_555
Tb1B_4 O61B_3 1_555 1_555
Tb1B_4 O63B_4 1_555 1_555
Tb1B_4 O60B_4 1_555 1_555
C100B_3 O60B_4 1_555 1_555
C110B_2 O62B_4 1_555 1_555
O58B_3 C89B_3 1_555 1_555
O59B_3 C89B_3 1_555 1_555
O62B_3 C110B_3 1_555 1_555

#END
