
#######################################################################
#
#                 Cambridge Crystallographic Data Centre
#                                CCDC 
#
#######################################################################
#
# If this CIF has been generated from an entry in the Cambridge 
# Structural Database, then it will include bibliographic, chemical, 
# crystal, experimental, refinement or atomic coordinate data resulting 
# from the CCDC's data processing and validation procedures.
#
#######################################################################

data_WIYVOR
_symmetry_cell_setting           triclinic
_symmetry_space_group_name_H-M   'P -1'
_symmetry_Int_Tables_number      2
_space_group_name_Hall           '-P 1'
loop_
_symmetry_equiv_pos_site_id
_symmetry_equiv_pos_as_xyz
1 x,y,z
2 -x,-y,-z
_cell_length_a                   9.7932(3)
_cell_length_b                   11.0181(6)
_cell_length_c                   11.4167(8)
_cell_angle_alpha                80.707(5)
_cell_angle_beta                 82.348(4)
_cell_angle_gamma                81.990(3)
_cell_volume                     1196.12
loop_
_atom_site_label
_atom_site_type_symbol
_atom_site_fract_x
_atom_site_fract_y
_atom_site_fract_z
Pb1 Pb 0.92922(2) 0.335260(19) 0.99872(2)
C1 C 0.5771(6) 0.3965(5) 0.8552(6)
C2 C 0.4591(5) 0.3970(5) 0.7940(6)
C3 C 0.3260(6) 0.4152(5) 0.8606(6)
C4 C 0.4725(5) 0.3742(5) 0.6748(6)
C5 C 0.3557(5) 0.3631(5) 0.6164(6)
H1 H 0.2674 0.3730 0.6578
C6 C 0.3695(6) 0.3386(5) 0.5033(6)
H2 H 0.2906 0.3304 0.4694
C7 C 0.5013(5) 0.3250(5) 0.4343(6)
C8 C 0.6170(5) 0.3353(5) 0.4922(6)
H3 H 0.7054 0.3259 0.4509
C9 C 0.6028(5) 0.3584(5) 0.6057(6)
H4 H 0.6822 0.3641 0.6401
C10 C 0.5167(5) 0.3001(5) 0.3160(6)
C11 C 0.4033(6) 0.2861(5) 0.2563(6)
C12 C 0.6497(6) 0.2831(5) 0.2493(6)
C13 C 0.9795(6) 0.3452(6) 0.4682(6)
C14 C 0.9893(5) 0.2419(5) 0.5591(6)
C15 C 0.9909(6) 0.2663(5) 0.6762(6)
C16 C 0.9936(5) 0.1007(5) 0.4111(6)
H5 H 0.9894 0.1687 0.3511
C17 C 0.9944(5) 0.1207(5) 0.5295(5)
C18 C 1.0011(5) 0.0149(5) 0.6189(6)
H6 H 1.0019 0.0244 0.6982
N1 N 0.6721(5) 0.3960(5) 0.9024(6)
N2 N 0.2170(5) 0.4285(5) 0.9121(5)
N3 N 0.3080(6) 0.2747(6) 0.2123(6)
N4 N 0.7583(5) 0.2683(5) 0.1980(5)
N5 N 0.9940(6) 0.2867(5) 0.7716(5)
N6 N 0.9685(6) 0.4266(5) 0.3926(6)
O1 O 0.9413(4) 0.5570(3) 0.8527(4)
H7 H 0.9895 0.5542 0.7864
H8 H 0.8611 0.5940 0.8408
O2 O 0.8828(4) 0.1239(4) 0.9804(4)
H9 H 0.8136 0.1252 0.9439
H10 H 0.8831 0.0645 1.0358
O3 O 1.1114(4) 0.1747(4) 1.0880(5)
H11 H 1.1528 0.1102 1.0602
H12 H 1.1715 0.2111 1.1098
C13A C 1.0205(6) -0.3452(6) 0.5318(6)
C14A C 1.0107(5) -0.2419(5) 0.4409(6)
C15A C 1.0091(6) -0.2663(5) 0.3238(6)
C16A C 1.0064(5) -0.1007(5) 0.5889(6)
H5A H 1.0106 -0.1687 0.6489
C17A C 1.0056(5) -0.1207(5) 0.4705(5)
C18A C 0.9989(5) -0.0149(5) 0.3811(6)
H6A H 0.9981 -0.0244 0.3018
N5A N 1.0060(6) -0.2867(5) 0.2284(5)
N6A N 1.0315(6) -0.4266(5) 0.6074(6)
Pb1A Pb 1.07078(2) -0.335260(19) 0.00128(2)
C1A C 1.4229(6) -0.3965(5) 0.1448(6)
C2A C 1.5409(5) -0.3970(5) 0.2060(6)
C3A C 1.6740(6) -0.4152(5) 0.1394(6)
C4A C 1.5275(5) -0.3742(5) 0.3252(6)
C5A C 1.6443(5) -0.3631(5) 0.3836(6)
H1A H 1.7326 -0.3730 0.3422
C6A C 1.6305(6) -0.3386(5) 0.4967(6)
H2A H 1.7094 -0.3304 0.5306
C7A C 1.4987(5) -0.3250(5) 0.5657(6)
C8A C 1.3830(5) -0.3353(5) 0.5078(6)
H3A H 1.2946 -0.3259 0.5491
C9A C 1.3972(5) -0.3584(5) 0.3943(6)
H4A H 1.3178 -0.3641 0.3599
C10A C 1.4833(5) -0.3001(5) 0.6840(6)
C11A C 1.5967(6) -0.2861(5) 0.7437(6)
C12A C 1.3503(6) -0.2831(5) 0.7507(6)
N1A N 1.3279(5) -0.3960(5) 0.0976(6)
N2A N 1.7830(5) -0.4285(5) 0.0879(5)
N3A N 1.6920(6) -0.2747(6) 0.7877(6)
N4A N 1.2417(5) -0.2683(5) 0.8020(5)
O1A O 1.0587(4) -0.5570(3) 0.1473(4)
H7A H 1.0105 -0.5542 0.2136
H8A H 1.1389 -0.5940 0.1592
O2A O 1.1172(4) -0.1239(4) 0.0196(4)
H9A H 1.1864 -0.1252 0.0561
H10A H 1.1169 -0.0645 -0.0358
O3A O 0.8886(4) -0.1747(4) -0.0880(5)
H11A H 0.8472 -0.1102 -0.0602
H12A H 0.8285 -0.2111 -0.1098
Pb1_2 Pb 0.92922(2) -0.664740(19) -0.00128(2)
Pb1_3 Pb 0.92922(2) 0.335260(19) -0.00128(2)
Pb1A_2 Pb 1.07078(2) -0.335260(19) 1.00128(2)
Pb1A_3 Pb 1.07078(2) 0.664740(19) 1.00128(2)
N4_2 N 0.7583(5) 0.2683(5) 1.1980(5)
N4A_2 N 1.2417(5) -0.2683(5) -0.1980(5)
O1_2 O 0.9413(4) -0.4430(3) -0.1473(4)
O1A_2 O 1.0587(4) 0.4430(3) 1.1473(4)
C19 C 0.6116(7) 0.0715(6) 0.7829(6)
C20 C 0.4912(6) 0.0537(5) 0.7341(7)
C21 C 0.3653(7) 0.0671(6) 0.8102(7)
C22 C 0.6222(6) 0.0110(5) 0.5426(7)
H13 H 0.7048 0.0186 0.5711
C23 C 0.4956(5) 0.0270(5) 0.6181(6)
C24 C 0.3743(5) 0.0148(5) 0.5686(6)
H14 H 0.2890 0.0249 0.6148
N7 N 0.7083(6) 0.0879(6) 0.8194(7)
N8 N 0.2634(7) 0.0766(6) 0.8718(7)
C19A C 0.3884(7) -0.0715(6) 0.2171(6)
C20A C 0.5088(6) -0.0537(5) 0.2659(7)
C21A C 0.6347(7) -0.0671(6) 0.1898(7)
C22A C 0.3778(6) -0.0110(5) 0.4574(7)
H13A H 0.2952 -0.0186 0.4289
C23A C 0.5044(5) -0.0270(5) 0.3819(6)
C24A C 0.6257(5) -0.0148(5) 0.4314(6)
H14A H 0.7110 -0.0249 0.3852
N7A N 0.2917(6) -0.0879(6) 0.1806(7)
N8A N 0.7366(7) -0.0766(6) 0.1282(7)
loop_
_geom_bond_atom_site_label_1
_geom_bond_atom_site_label_2
_geom_bond_site_symmetry_1
_geom_bond_site_symmetry_2
Pb1 N1 1_555 1_555
C1 C2 1_555 1_555
C2 C3 1_555 1_555
C3 N2 1_555 1_555
C4 C2 1_555 1_555
C5 C4 1_555 1_555
H1 C5 1_555 1_555
C6 C5 1_555 1_555
H2 C6 1_555 1_555
C7 C6 1_555 1_555
C8 C7 1_555 1_555
H3 C8 1_555 1_555
C9 C4 1_555 1_555
H4 C9 1_555 1_555
C10 C7 1_555 1_555
C11 C10 1_555 1_555
C12 C10 1_555 1_555
C13 C14 1_555 1_555
C14 C15 1_555 1_555
C15 N5 1_555 1_555
C16 H5 1_555 1_555
C17 C14 1_555 1_555
C18 C17 1_555 1_555
H6 C18 1_555 1_555
N1 C1 1_555 1_555
N3 C11 1_555 1_555
N4 C12 1_555 1_555
N5 Pb1 1_555 1_555
N6 C13 1_555 1_555
O1 Pb1 1_555 1_555
H7 O1 1_555 1_555
H8 O1 1_555 1_555
O2 Pb1 1_555 1_555
H9 O2 1_555 1_555
H10 O2 1_555 1_555
O3 Pb1 1_555 1_555
H11 O3 1_555 1_555
H12 O3 1_555 1_555
C19 C20 1_555 1_555
C20 C21 1_555 1_555
C21 N8 1_555 1_555
C22 H13 1_555 1_555
C23 C20 1_555 1_555
C24 C23 1_555 1_555
H14 C24 1_555 1_555
N7 C19 1_555 1_555
C13A C14A 1_555 1_555
C14A C15A 1_555 1_555
C15A N5A 1_555 1_555
C16A C18 1_555 1_555
H5A C16A 1_555 1_555
C17A C14A 1_555 1_555
C18A C16 1_555 1_555
H6A C18A 1_555 1_555
N5A Pb1A 1_555 1_555
N6A C13A 1_555 1_555
Pb1A N1A 1_555 1_555
C1A C2A 1_555 1_555
C2A C3A 1_555 1_555
C3A N2A 1_555 1_555
C4A C2A 1_555 1_555
C5A C4A 1_555 1_555
H1A C5A 1_555 1_555
C6A C5A 1_555 1_555
H2A C6A 1_555 1_555
C7A C6A 1_555 1_555
C8A C7A 1_555 1_555
H3A C8A 1_555 1_555
C9A C4A 1_555 1_555
H4A C9A 1_555 1_555
C10A C7A 1_555 1_555
C11A C10A 1_555 1_555
C12A C10A 1_555 1_555
N1A C1A 1_555 1_555
N3A C11A 1_555 1_555
N4A C12A 1_555 1_555
O1A Pb1A 1_555 1_555
H7A O1A 1_555 1_555
H8A O1A 1_555 1_555
O2A Pb1A 1_555 1_555
H9A O2A 1_555 1_555
H10A O2A 1_555 1_555
O3A Pb1A 1_555 1_555
H11A O3A 1_555 1_555
H12A O3A 1_555 1_555
Pb1_2 O1A 1_555 1_555
Pb1_3 N4 1_555 1_555
Pb1A_2 N4A 1_555 1_555
Pb1A_3 O1 1_555 1_555
N4_2 Pb1 1_555 1_555
N4A_2 Pb1A 1_555 1_555
O1_2 Pb1A 1_555 1_555
O1A_2 Pb1 1_555 1_555
C19A C20A 1_555 1_555
C20A C21A 1_555 1_555
C21A N8A 1_555 1_555
C22A C24 1_555 1_555
H13A C22A 1_555 1_555
C23A C20A 1_555 1_555
C24A C22 1_555 1_555
H14A C24A 1_555 1_555
N7A C19A 1_555 1_555
C8 C9 1_555 1_555
C16 C17 1_555 1_555
C22 C23 1_555 1_555
C16A C17A 1_555 1_555
C17A C18A 1_555 1_555
C8A C9A 1_555 1_555
Pb1_2 O1_2 1_555 1_555
Pb1A_3 O1A_2 1_555 1_555
C22A C23A 1_555 1_555
C23A C24A 1_555 1_555

#END
