
#######################################################################
#
#                 Cambridge Crystallographic Data Centre
#                                CCDC 
#
#######################################################################
#
# If this CIF has been generated from an entry in the Cambridge 
# Structural Database, then it will include bibliographic, chemical, 
# crystal, experimental, refinement or atomic coordinate data resulting 
# from the CCDC's data processing and validation procedures.
#
#######################################################################

data_WIYWUY
_symmetry_cell_setting           monoclinic
_symmetry_space_group_name_H-M   'P 21/c'
_symmetry_Int_Tables_number      14
_space_group_name_Hall           '-P 2ybc'
loop_
_symmetry_equiv_pos_site_id
_symmetry_equiv_pos_as_xyz
1 x,y,z
2 -x,1/2+y,1/2-z
3 -x,-y,-z
4 x,1/2-y,1/2+z
_cell_length_a                   13.0769(7)
_cell_length_b                   26.5673(13)
_cell_length_c                   13.1579(7)
_cell_angle_alpha                90
_cell_angle_beta                 116.5880(10)
_cell_angle_gamma                90
_cell_volume                     4087.87
loop_
_atom_site_label
_atom_site_type_symbol
_atom_site_fract_x
_atom_site_fract_y
_atom_site_fract_z
Dy1 Dy 0.18023(4) 0.994552(15) 0.08021(4)
O1 O 0.1165(8) 0.9336(3) -0.0651(8)
O2 O 0.3093(7) 0.9477(3) 0.2198(7)
O3 O 0.3206(10) 0.9841(5) 0.0151(10)
O4 O 0.0667(8) 1.0458(3) 0.1265(8)
O5 O 0.1094(8) 1.0475(3) -0.0703(8)
O6 O 0.0749(8) 0.9349(3) 0.1263(8)
O7 O 0.3070(7) 1.0610(3) 0.1673(8)
C1 C 0.0124(11) 0.9246(4) -0.1170(10)
C2 C 0.3779(10) 0.9195(4) 0.2970(10)
C3 C 0.408(2) 0.9629(10) 0.060(3)
C4 C -0.0199(10) 0.8727(4) -0.1712(10)
C5 C 0.3960(10) 0.8673(4) 0.2636(10)
O8 O 0.4315(8) 0.9315(3) 0.3976(7)
H1 H 0.4499 0.9637 0.1383
N1 N 0.4517(18) 0.9335(9) -0.015(2)
C6 C -0.1233(11) 0.8514(5) -0.1834(11)
C7 C 0.0541(10) 0.8455(4) -0.1987(10)
C8 C 0.4785(10) 0.8361(4) 0.3439(10)
C9 C 0.3316(10) 0.8494(4) 0.1529(9)
Dy2 Dy 0.54625(12) 0.99302(4) 0.49623(10)
C10 C 0.366(2) 0.9410(12) -0.131(2)
C11 C 0.560(2) 0.9077(13) 0.031(3)
H2 H -0.1729 0.8701 -0.1652
C12 C -0.1506(11) 0.8031(4) -0.2224(11)
H3 H 0.1226 0.8598 -0.1897
C13 C 0.0262(9) 0.7971(4) -0.2396(10)
H4 H 0.5224 0.8478 0.4174
C14 C 0.4951(9) 0.7883(4) 0.3149(9)
H5 H 0.2776 0.8704 0.0989
C15 C 0.3462(10) 0.8019(4) 0.1225(9)
O9 O 0.686(2) 0.9265(11) 0.499(3)
O10 O 0.610(3) 0.9679(14) 0.349(2)
O11 O 0.713(3) 1.0244(11) 0.555(2)
O12 O 0.4266(11) 1.0445(4) 0.3472(10)
H6 H 0.3392 0.9092 -0.1674
H7 H 0.3033 0.9594 -0.1298
H8 H 0.3983 0.9599 -0.1716
H9 H 0.5924 0.9094 -0.0215
H10 H 0.6108 0.9237 0.1011
H11 H 0.5496 0.8731 0.0453
H12 H -0.2190 0.7889 -0.2311
C16 C -0.0756(9) 0.7754(4) -0.2489(9)
C17 C 0.0902(10) 0.7606(4) -0.2807(10)
C18 C 0.4292(10) 0.7708(4) 0.2041(9)
C19 C 0.5816(9) 0.7485(4) 0.3880(9)
H13 H 0.3020 0.7902 0.0490
N2 N 0.689(4) 0.9368(17) 0.406(4)
C20 C 0.818(3) 1.0183(15) 0.589(3)
C21 C -0.0786(9) 0.7227(4) -0.2834(10)
C22 C 0.0905(14) 0.7801(6) -0.3900(13)
C23 C 0.2122(11) 0.7513(5) -0.1899(12)
C24 C 0.0181(9) 0.7132(4) -0.3033(9)
C25 C 0.4625(9) 0.7192(4) 0.1971(9)
C26 C 0.7042(10) 0.7668(5) 0.4298(11)
C27 C 0.5595(12) 0.7330(5) 0.4882(10)
C28 C 0.5533(9) 0.7055(4) 0.3023(9)
O13 O 0.737(4) 0.9104(17) 0.371(4)
H14 H 0.8381 0.9859 0.6178
N3 N 0.916(2) 1.0431(11) 0.598(2)
C29 C -0.1552(10) 0.6839(4) -0.2991(11)
H15 H 0.1211 0.7550 -0.4206
H16 H 0.0115 0.7870 -0.4426
H17 H 0.1358 0.8099 -0.3765
H18 H 0.2464 0.7253 -0.2146
H19 H 0.2564 0.7814 -0.1785
H20 H 0.2121 0.7417 -0.1204
C30 C 0.0372(10) 0.6661(4) -0.3349(10)
C31 C 0.4222(11) 0.6847(5) 0.1064(11)
H21 H 0.7157 0.7780 0.3670
H22 H 0.7189 0.7937 0.4819
H23 H 0.7566 0.7398 0.4668
H24 H 0.6066 0.7047 0.5251
H25 H 0.5795 0.7603 0.5402
H26 H 0.4792 0.7248 0.4621
C32 C 0.6021(9) 0.6584(4) 0.3172(9)
C33 C 1.024(4) 1.0187(18) 0.651(4)
C34 C 0.887(5) 1.084(2) 0.550(5)
H27 H -0.2178 0.6895 -0.2848
C35 C -0.1395(10) 0.6375(4) -0.3356(11)
H28 H 0.1020 0.6598 -0.3449
C36 C -0.0418(10) 0.6284(4) -0.3514(9)
H29 H 0.3645 0.6939 0.0358
C37 C 0.4679(12) 0.6381(5) 0.1228(11)
H30 H 0.6619 0.6495 0.3867
C38 C 0.5614(10) 0.6244(4) 0.2275(9)
H31 H 1.0255 0.9965 0.7085
H32 H 1.0418 1.0006 0.5988
H33 H 1.0805 1.0446 0.6856
H34 H 0.8678 1.1077 0.5943
H35 H 0.9498 1.0971 0.5386
H36 H 0.8203 1.0794 0.4789
H37 H -0.1933 0.6122 -0.3497
C39 C -0.0232(10) 0.5762(4) -0.3855(10)
H38 H 0.4377 0.6146 0.0644
C40 C 0.6152(11) 0.5734(4) 0.2420(10)
O4B O -0.0667(8) 0.9542(3) -0.1265(8)
Dy1B Dy -0.18023(4) 1.005448(15) -0.08021(4)
O8B O 0.5685(8) 1.0685(3) 0.6024(7)
O12B O 0.5734(11) 0.9555(4) 0.6528(10)
O5A O -0.1094(8) 0.5475(3) -0.4297(8)
O6C O 0.0749(8) 0.5651(3) -0.3737(8)
O12A O 0.5734(11) 0.5445(4) 0.1528(10)
O7A O 0.6930(7) 0.5610(3) 0.3327(8)
Dy1A Dy -0.18023(4) 0.494552(15) -0.58021(4)
Dy1C Dy 0.18023(4) 0.505448(15) -0.41979(4)
Dy2A Dy 0.45375(12) 0.49302(4) 0.00377(10)
Dy2C Dy 0.54625(12) 0.50698(4) -0.00377(10)
Dy1A_2 Dy 0.81977(4) 0.494552(15) 0.41979(4)
loop_
_geom_bond_atom_site_label_1
_geom_bond_atom_site_label_2
_geom_bond_site_symmetry_1
_geom_bond_site_symmetry_2
Dy1 O1 1_555 1_555
O1 C1 1_555 1_555
O2 Dy1 1_555 1_555
O3 Dy1 1_555 1_555
O4 Dy1 1_555 1_555
O5 Dy1 1_555 1_555
O6 Dy1 1_555 1_555
O7 Dy1 1_555 1_555
C1 C4 1_555 1_555
C2 O2 1_555 1_555
C3 O3 1_555 1_555
C4 C6 1_555 1_555
C5 C2 1_555 1_555
O8 C2 1_555 1_555
H1 C3 1_555 1_555
N1 C3 1_555 1_555
C6 H2 1_555 1_555
C7 C4 1_555 1_555
C8 C5 1_555 1_555
C9 C5 1_555 1_555
Dy2 O8 1_555 1_555
C10 N1 1_555 1_555
C11 N1 1_555 1_555
C12 C6 1_555 1_555
H3 C7 1_555 1_555
C13 C7 1_555 1_555
H4 C8 1_555 1_555
C14 C8 1_555 1_555
H5 C9 1_555 1_555
C15 C9 1_555 1_555
O9 Dy2 1_555 1_555
O10 Dy2 1_555 1_555
O11 Dy2 1_555 1_555
O12 Dy2 1_555 1_555
H6 C10 1_555 1_555
H7 C10 1_555 1_555
H8 C10 1_555 1_555
H9 C11 1_555 1_555
H10 C11 1_555 1_555
H11 C11 1_555 1_555
H12 C12 1_555 1_555
C16 C12 1_555 1_555
C17 C13 1_555 1_555
C18 C14 1_555 1_555
C19 C14 1_555 1_555
H13 C15 1_555 1_555
N2 O9 1_555 1_555
C20 O11 1_555 1_555
C21 C16 1_555 1_555
C22 C17 1_555 1_555
C23 C17 1_555 1_555
C24 C17 1_555 1_555
C25 C18 1_555 1_555
C26 C19 1_555 1_555
C27 C19 1_555 1_555
C28 C19 1_555 1_555
O13 N2 1_555 1_555
H14 C20 1_555 1_555
N3 C20 1_555 1_555
C29 C21 1_555 1_555
H15 C22 1_555 1_555
H16 C22 1_555 1_555
H17 C22 1_555 1_555
H18 C23 1_555 1_555
H19 C23 1_555 1_555
H20 C23 1_555 1_555
C30 C24 1_555 1_555
C31 C25 1_555 1_555
H21 C26 1_555 1_555
H22 C26 1_555 1_555
H23 C26 1_555 1_555
H24 C27 1_555 1_555
H25 C27 1_555 1_555
H26 C27 1_555 1_555
C32 C28 1_555 1_555
C33 N3 1_555 1_555
C34 N3 1_555 1_555
H27 C29 1_555 1_555
C35 C29 1_555 1_555
H28 C30 1_555 1_555
C36 C30 1_555 1_555
H29 C31 1_555 1_555
C37 C31 1_555 1_555
H30 C32 1_555 1_555
C38 C32 1_555 1_555
H31 C33 1_555 1_555
H32 C33 1_555 1_555
H33 C33 1_555 1_555
H34 C34 1_555 1_555
H35 C34 1_555 1_555
H36 C34 1_555 1_555
H37 C35 1_555 1_555
C39 C36 1_555 1_555
H38 C37 1_555 1_555
C40 C38 1_555 1_555
O4B C1 1_555 1_555
Dy1B O4B 1_555 1_555
O8B Dy2 1_555 1_555
O12B Dy2 1_555 1_555
O5A C39 1_555 1_555
O6C C39 1_555 1_555
O12A C40 1_555 1_555
O7A C40 1_555 1_555
Dy1A O5A 1_555 1_555
Dy1C O6C 1_555 1_555
Dy2A O12A 1_555 1_555
Dy2C O12A 1_555 1_555
Dy1A_2 O7A 1_555 1_555
C13 C16 1_555 1_555
C15 C18 1_555 1_555
O10 N2 1_555 1_555
C21 C24 1_555 1_555
C25 C28 1_555 1_555
C35 C36 1_555 1_555
C37 C38 1_555 1_555

#END
