
#######################################################################
#
#                 Cambridge Crystallographic Data Centre
#                                CCDC 
#
#######################################################################
#
# If this CIF has been generated from an entry in the Cambridge 
# Structural Database, then it will include bibliographic, chemical, 
# crystal, experimental, refinement or atomic coordinate data resulting 
# from the CCDC's data processing and validation procedures.
#
#######################################################################

data_WIYWEI
_symmetry_cell_setting           monoclinic
_symmetry_space_group_name_H-M   'P 21/c'
_symmetry_Int_Tables_number      14
_space_group_name_Hall           '-P 2ybc'
loop_
_symmetry_equiv_pos_site_id
_symmetry_equiv_pos_as_xyz
1 x,y,z
2 -x,1/2+y,1/2-z
3 -x,-y,-z
4 x,1/2-y,1/2+z
_cell_length_a                   12.9190(4)
_cell_length_b                   26.8433(5)
_cell_length_c                   13.2924(5)
_cell_angle_alpha                90
_cell_angle_beta                 116.759(4)
_cell_angle_gamma                90
_cell_volume                     4116
loop_
_atom_site_label
_atom_site_type_symbol
_atom_site_fract_x
_atom_site_fract_y
_atom_site_fract_z
Sm1 Sm 0.82163(2) 0.001781(9) 0.92328(3)
O1 O 1.0344(4) 0.04329(14) 1.1067(4)
O2 O 0.8543(4) 0.06162(15) 1.0706(4)
O3 O 0.6701(4) 0.04849(15) 0.7943(4)
O4 O 0.6683(5) -0.0114(2) 0.9827(6)
O5 O 0.9013(4) -0.05550(15) 1.0715(4)
O6 O 0.9106(4) 0.07127(15) 0.8730(4)
O7 O 0.7064(4) -0.06710(15) 0.8200(5)
C1 C 0.9601(6) 0.0726(2) 1.1141(5)
C2 C 0.6129(5) 0.0780(2) 0.7157(6)
C3 C 0.5660(10) -0.0264(5) 0.9171(12)
C4 C 0.9960(5) 0.1227(2) 1.1667(5)
C5 C 0.5940(5) 0.1302(2) 0.7464(5)
O8 O 0.5665(4) 0.06671(16) 0.6124(4)
H1 H 0.5301 -0.0129 0.8449
N1 N 0.5050(8) -0.0610(4) 0.9456(11)
C6 C 1.0990(5) 0.1443(2) 1.1767(6)
C7 C 0.9258(5) 0.1492(2) 1.2013(5)
C8 C 0.5115(5) 0.1607(2) 0.6654(5)
C9 C 0.6604(5) 0.1473(2) 0.8557(5)
Sm2 Sm 0.44491(7) 0.00642(2) 0.49725(6)
C10 C 0.3939(12) -0.0724(6) 0.8648(15)
C11 C 0.5545(16) -0.0811(7) 1.0593(17)
H2 H 1.1477 0.1262 1.1561
C12 C 1.1292(5) 0.1927(2) 1.2169(6)
H3 H 0.8578 0.1350 1.1958
C13 C 0.9572(5) 0.1971(2) 1.2443(5)
H4 H 0.4679 0.1491 0.5923
C14 C 0.4949(5) 0.2083(2) 0.6943(5)
H5 H 0.7155 0.1266 0.9091
C15 C 0.6446(5) 0.1953(2) 0.8852(5)
O9 O 0.3020(12) 0.0743(5) 0.5042(16)
O10 O 0.3663(12) 0.0281(7) 0.6345(12)
O11 O 0.2531(12) -0.0278(5) 0.4350(13)
O12 O 0.5752(7) -0.0491(2) 0.6493(6)
H6 H 0.3399 -0.0470 0.8614
H7 H 0.3713 -0.1037 0.8838
H8 H 0.3941 -0.0751 0.7929
H9 H 0.6224 -0.0636 1.1112
H10 H 0.5742 -0.1151 1.0537
H11 H 0.4965 -0.0800 1.0857
H12 H 1.1971 0.2070 1.2223
C16 C 1.0567(5) 0.2193(2) 1.2489(5)
C17 C 0.8939(5) 0.2330(2) 1.2874(5)
C18 C 0.5623(5) 0.2256(2) 0.8035(5)
C19 C 0.4089(5) 0.2486(2) 0.6211(5)
H13 H 0.6883 0.2070 0.9581
N2 N 0.2984(18) 0.0638(8) 0.586(2)
C20 C 0.1549(18) -0.0136(8) 0.383(2)
C21 C 1.0626(5) 0.2706(2) 1.2870(5)
C22 C 0.8988(7) 0.2144(3) 1.3986(7)
C23 C 0.7696(5) 0.2420(3) 1.1982(7)
C24 C 0.9675(5) 0.2799(2) 1.3076(5)
C25 C 0.5291(5) 0.2777(2) 0.8107(5)
C26 C 0.2832(5) 0.2306(3) 0.5786(6)
C27 C 0.4295(6) 0.2634(3) 0.5212(6)
C28 C 0.4385(5) 0.2910(2) 0.7057(5)
O13 O 0.2562(14) 0.0868(7) 0.6369(19)
H14 H 0.1392 0.0146 0.3378
N3 N 0.0643(11) -0.0394(5) 0.3893(12)
C29 C 1.1427(5) 0.3089(2) 1.3017(6)
H15 H 0.8682 0.2395 1.4292
H16 H 0.9777 0.2074 1.4511
H17 H 0.8535 0.1845 1.3850
H18 H 0.7355 0.2681 1.2229
H19 H 0.7255 0.2120 1.1868
H20 H 0.7698 0.2517 1.1287
C30 C 0.9496(5) 0.3274(2) 1.3384(5)
C31 C 0.5721(6) 0.3108(2) 0.8996(6)
H21 H 0.2717 0.2194 0.6415
H22 H 0.2685 0.2036 0.5266
H23 H 0.2309 0.2575 0.5416
H24 H 0.3824 0.2918 0.4843
H25 H 0.4095 0.2361 0.4691
H26 H 0.5098 0.2717 0.5472
C32 C 0.3898(5) 0.3376(2) 0.6918(5)
C33 C -0.059(2) -0.0145(8) 0.327(2)
C34 C 0.098(2) -0.0859(9) 0.450(2)
H27 H 1.2064 0.3033 1.2882
C35 C 1.1243(5) 0.3552(2) 1.3366(6)
H28 H 0.8844 0.3338 1.3489
C36 C 1.0278(5) 0.3651(2) 1.3534(5)
H29 H 0.6331 0.3019 0.9684
C37 C 0.5223(6) 0.3577(2) 0.8838(6)
H30 H 0.3297 0.3468 0.6227
C38 C 0.4307(5) 0.3707(2) 0.7809(5)
H31 H -0.0609 0.0077 0.2697
H32 H -0.0772 0.0037 0.3794
H33 H -0.1159 -0.0403 0.2926
H34 H 0.1164 -0.1093 0.4065
H35 H 0.0344 -0.0987 0.4622
H36 H 0.1639 -0.0810 0.5218
H37 H 1.1781 0.3805 1.3491
C39 C 1.0110(5) 0.4165(2) 1.3878(5)
H38 H 0.5503 0.3807 0.9425
C40 C 0.3754(7) 0.4214(2) 0.7679(7)
O1B O 0.9656(4) -0.04329(14) 0.8933(4)
O8B O 0.4335(4) -0.06671(16) 0.3876(4)
O12B O 0.4248(7) 0.0491(2) 0.3507(6)
O5A O 1.0987(4) 0.44450(15) 1.4285(4)
O6C O 0.9106(4) 0.42873(15) 1.3730(4)
O12A O 0.4248(7) 0.4509(2) 0.8507(6)
O7A O 0.2936(4) 0.43290(15) 0.6800(5)
Sm1A Sm 1.17837(2) 0.501781(9) 1.57672(3)
Sm1C Sm 0.82163(2) 0.498219(9) 1.42328(3)
Sm2A Sm 0.55509(7) 0.50642(2) 1.00275(6)
Sm1A_2 Sm 0.17837(2) 0.501781(9) 0.57672(3)
loop_
_geom_bond_atom_site_label_1
_geom_bond_atom_site_label_2
_geom_bond_site_symmetry_1
_geom_bond_site_symmetry_2
Sm1 O1 1_555 1_555
O1 C1 1_555 1_555
O2 Sm1 1_555 1_555
O3 Sm1 1_555 1_555
O4 Sm1 1_555 1_555
O5 Sm1 1_555 1_555
O6 Sm1 1_555 1_555
O7 Sm1 1_555 1_555
C1 O2 1_555 1_555
C2 O3 1_555 1_555
C3 O4 1_555 1_555
C4 C1 1_555 1_555
C5 C2 1_555 1_555
O8 C2 1_555 1_555
H1 C3 1_555 1_555
N1 C3 1_555 1_555
C6 C4 1_555 1_555
C7 C4 1_555 1_555
C8 C5 1_555 1_555
C9 C5 1_555 1_555
Sm2 O8 1_555 1_555
C10 N1 1_555 1_555
C11 N1 1_555 1_555
H2 C6 1_555 1_555
C12 C6 1_555 1_555
H3 C7 1_555 1_555
C13 C7 1_555 1_555
H4 C8 1_555 1_555
C14 C8 1_555 1_555
H5 C9 1_555 1_555
C15 C9 1_555 1_555
O9 Sm2 1_555 1_555
O10 Sm2 1_555 1_555
O11 Sm2 1_555 1_555
O12 Sm2 1_555 1_555
H6 C10 1_555 1_555
H7 C10 1_555 1_555
H8 C10 1_555 1_555
H9 C11 1_555 1_555
H10 C11 1_555 1_555
H11 C11 1_555 1_555
H12 C12 1_555 1_555
C16 C12 1_555 1_555
C17 C13 1_555 1_555
C18 C14 1_555 1_555
C19 C14 1_555 1_555
H13 C15 1_555 1_555
N2 O9 1_555 1_555
C20 O11 1_555 1_555
C21 C16 1_555 1_555
C22 C17 1_555 1_555
C23 C17 1_555 1_555
C24 C17 1_555 1_555
C25 C18 1_555 1_555
C26 C19 1_555 1_555
C27 C19 1_555 1_555
C28 C19 1_555 1_555
O13 N2 1_555 1_555
H14 C20 1_555 1_555
N3 C20 1_555 1_555
C29 C21 1_555 1_555
H15 C22 1_555 1_555
H16 C22 1_555 1_555
H17 C22 1_555 1_555
H18 C23 1_555 1_555
H19 C23 1_555 1_555
H20 C23 1_555 1_555
C30 C24 1_555 1_555
C31 C25 1_555 1_555
H21 C26 1_555 1_555
H22 C26 1_555 1_555
H23 C26 1_555 1_555
H24 C27 1_555 1_555
H25 C27 1_555 1_555
H26 C27 1_555 1_555
C32 C28 1_555 1_555
C33 N3 1_555 1_555
C34 N3 1_555 1_555
H27 C29 1_555 1_555
C35 C29 1_555 1_555
H28 C30 1_555 1_555
C36 C30 1_555 1_555
H29 C31 1_555 1_555
C37 C31 1_555 1_555
H30 C32 1_555 1_555
C38 C32 1_555 1_555
H31 C33 1_555 1_555
H32 C33 1_555 1_555
H33 C33 1_555 1_555
H34 C34 1_555 1_555
H35 C34 1_555 1_555
H36 C34 1_555 1_555
H37 C35 1_555 1_555
C39 C36 1_555 1_555
H38 C37 1_555 1_555
C40 C38 1_555 1_555
O1B Sm1 1_555 1_555
O8B Sm2 1_555 1_555
O12B Sm2 1_555 1_555
O5A C39 1_555 1_555
O6C C39 1_555 1_555
O12A C40 1_555 1_555
O7A C40 1_555 1_555
Sm1A O5A 1_555 1_555
Sm1C O6C 1_555 1_555
Sm2A O12A 1_555 1_555
Sm1A_2 O7A 1_555 1_555
C13 C16 1_555 1_555
C15 C18 1_555 1_555
O10 N2 1_555 1_555
C21 C24 1_555 1_555
C25 C28 1_555 1_555
C35 C36 1_555 1_555
C37 C38 1_555 1_555

#END
