
#######################################################################
#
#                 Cambridge Crystallographic Data Centre
#                                CCDC 
#
#######################################################################
#
# If this CIF has been generated from an entry in the Cambridge 
# Structural Database, then it will include bibliographic, chemical, 
# crystal, experimental, refinement or atomic coordinate data resulting 
# from the CCDC's data processing and validation procedures.
#
#######################################################################

data_WIYWAE
_symmetry_cell_setting           monoclinic
_symmetry_space_group_name_H-M   'P 21/c'
_symmetry_Int_Tables_number      14
_space_group_name_Hall           '-P 2ybc'
loop_
_symmetry_equiv_pos_site_id
_symmetry_equiv_pos_as_xyz
1 x,y,z
2 -x,1/2+y,1/2-z
3 -x,-y,-z
4 x,1/2-y,1/2+z
_cell_length_a                   13.0771(8)
_cell_length_b                   26.5999(17)
_cell_length_c                   13.1458(9)
_cell_angle_alpha                90
_cell_angle_beta                 116.3630(10)
_cell_angle_gamma                90
_cell_volume                     4097.19
loop_
_atom_site_label
_atom_site_type_symbol
_atom_site_fract_x
_atom_site_fract_y
_atom_site_fract_z
Tb1 Tb 0.82028(4) 0.005197(15) 0.91942(4)
O1 O 0.8803(7) 0.0668(3) 1.0635(7)
O2 O 0.6894(6) 0.0526(3) 0.7806(6)
O3 O 0.6782(9) 0.0153(4) 0.9860(9)
O4 O 1.0622(7) 0.0462(3) 1.1226(8)
O5 O 1.1101(7) 0.4524(3) 1.4273(7)
O6 O 0.9248(7) 0.4351(3) 1.3715(7)
O7 O 0.3060(7) 0.4382(3) 0.6679(7)
C1 C 0.9827(10) 0.0765(4) 1.1147(10)
C2 C 0.6215(9) 0.0808(4) 0.7036(9)
C3 C 0.592(2) 0.0363(10) 0.946(2)
C4 C 1.0170(9) 0.1278(4) 1.1684(9)
C5 C 0.6031(9) 0.1329(4) 0.7363(8)
O8 O 0.5693(7) 0.0683(3) 0.6034(7)
H1 H 0.5490 0.0330 0.8677
N1 N 0.5444(18) 0.0680(9) 1.0061(19)
C6 C 1.1196(10) 0.1486(4) 1.1814(10)
C7 C 0.9427(9) 0.1550(4) 1.1963(9)
C8 C 0.5210(9) 0.1637(4) 0.6558(9)
C9 C 0.6676(9) 0.1506(4) 0.8471(9)
Tb2 Tb 0.45240(11) 0.00685(4) 0.50360(9)
C10 C 0.630(2) 0.0632(12) 1.122(2)
C11 C 0.436(3) 0.0897(12) 0.955(3)
H2 H 1.1687 0.1298 1.1626
C12 C 1.1491(10) 0.1970(4) 1.2223(10)
H3 H 0.8737 0.1411 1.1868
C13 C 0.9727(8) 0.2031(4) 1.2386(9)
H4 H 0.4778 0.1520 0.5822
C14 C 0.5038(8) 0.2117(4) 0.6856(8)
H5 H 0.7222 0.1298 0.9007
C15 C 0.6515(9) 0.1981(4) 0.8778(9)
O9 O 0.279(2) -0.0267(11) 0.449(2)
O10 O 0.317(2) 0.0741(11) 0.500(2)
O11 O 0.387(2) 0.0313(11) 0.647(2)
O12 O 0.4257(10) 0.4553(4) 0.8462(9)
H6 H 0.6773 0.0927 1.1433
H7 H 0.6768 0.0342 1.1287
H8 H 0.5941 0.0593 1.1711
H9 H 0.3807 0.0673 0.9600
H10 H 0.4168 0.0956 0.8764
H11 H 0.4354 0.1210 0.9909
H12 H 1.2179 0.2110 1.2315
C16 C 1.0738(8) 0.2246(4) 1.2494(9)
C17 C 0.9082(9) 0.2400(4) 1.2783(9)
C18 C 0.5696(9) 0.2293(4) 0.7961(8)
C19 C 0.4182(9) 0.2513(4) 0.6124(8)
H13 H 0.6943 0.2095 0.9517
C20 C 0.178(2) -0.0186(13) 0.404(3)
N2 N 0.314(3) 0.0614(13) 0.592(3)
C21 C 1.0786(9) 0.2772(4) 1.2838(9)
C22 C 0.9071(13) 0.2209(6) 1.3890(12)
C23 C 0.7869(10) 0.2494(5) 1.1882(12)
C24 C 0.9824(8) 0.2866(4) 1.3024(9)
C25 C 0.5359(8) 0.2806(4) 0.8018(8)
C26 C 0.2963(10) 0.2332(5) 0.5697(11)
C27 C 0.4405(11) 0.2663(5) 0.5115(10)
C28 C 0.4458(8) 0.2944(4) 0.6981(8)
H14 H 0.1607 0.0104 0.3598
N3 N 0.083(2) -0.0436(11) 0.402(2)
O13 O 0.269(3) 0.0871(15) 0.637(3)
C29 C 1.1562(9) 0.3152(4) 1.2999(10)
H15 H 0.8765 0.2460 1.4196
H16 H 0.9861 0.2140 1.4415
H17 H 0.8618 0.1911 1.3754
H18 H 0.7528 0.2754 1.2129
H19 H 0.7427 0.2193 1.1769
H20 H 0.7870 0.2590 1.1187
C30 C 0.9628(9) 0.3340(4) 1.3341(9)
C31 C 0.5769(10) 0.3152(4) 0.8931(9)
H21 H 0.2848 0.2220 0.6325
H22 H 0.2816 0.2062 0.5176
H23 H 0.2440 0.2601 0.5326
H24 H 0.3934 0.2947 0.4745
H25 H 0.4204 0.2390 0.4594
H26 H 0.5208 0.2746 0.5375
C32 C 0.3970(8) 0.3412(4) 0.6832(9)
C33 C -0.026(4) -0.0147(19) 0.339(4)
C34 C 0.106(4) -0.086(2) 0.439(4)
H27 H 1.2198 0.3091 1.2874
C35 C 1.1394(9) 0.3624(4) 1.3347(10)
H28 H 0.8978 0.3405 1.3439
C36 C 1.0433(9) 0.3718(4) 1.3510(9)
H29 H 0.6362 0.3063 0.9627
C37 C 0.5286(10) 0.3616(4) 0.8779(10)
H30 H 0.3372 0.3502 0.6140
C38 C 0.4384(9) 0.3752(4) 0.7734(9)
H31 H -0.0271 0.0075 0.2814
H32 H -0.0433 0.0035 0.3910
H33 H -0.0821 -0.0405 0.3042
H34 H 0.1252 -0.1097 0.3952
H35 H 0.0432 -0.0991 0.4509
H36 H 0.1727 -0.0814 0.5105
H37 H 1.1925 0.3878 1.3470
C39 C 1.0245(9) 0.4237(4) 1.3861(9)
H38 H 0.5557 0.3846 0.9374
C40 C 0.3836(11) 0.4263(4) 0.7597(10)
Tb1A Tb 0.17972(4) 0.505197(15) 0.58058(4)
Tb1A_2 Tb 1.17972(4) 0.505197(15) 1.58058(4)
Tb1B Tb 1.17972(4) -0.005197(15) 1.08058(4)
Tb1C Tb 0.82028(4) 0.494803(15) 1.41942(4)
O4B O 0.9378(7) -0.0462(3) 0.8774(8)
O5A O 0.8899(7) -0.0476(3) 1.0727(7)
O6C O 0.9248(7) 0.0649(3) 0.8715(7)
O7A O 0.6940(7) -0.0618(3) 0.8321(7)
O8B O 0.4307(7) -0.0683(3) 0.3966(7)
Tb2A Tb 0.54760(11) 0.50685(4) 0.99640(9)
Tb2B Tb 0.54760(11) -0.00685(4) 0.49640(9)
Tb2C Tb 0.45240(11) 0.49315(4) 1.00360(9)
O12A O 0.5743(10) -0.0447(4) 0.6538(9)
O12C O 0.4257(10) 0.0447(4) 0.3462(9)
loop_
_geom_bond_atom_site_label_1
_geom_bond_atom_site_label_2
_geom_bond_site_symmetry_1
_geom_bond_site_symmetry_2
Tb1 O1 1_555 1_555
O1 C1 1_555 1_555
O2 Tb1 1_555 1_555
O3 Tb1 1_555 1_555
O4 C1 1_555 1_555
O5 C39 1_555 1_555
O6 C39 1_555 1_555
O7 C40 1_555 1_555
C1 C4 1_555 1_555
C2 O2 1_555 1_555
C3 O3 1_555 1_555
C4 C6 1_555 1_555
C5 C2 1_555 1_555
O8 C2 1_555 1_555
H1 C3 1_555 1_555
N1 C3 1_555 1_555
C6 H2 1_555 1_555
C7 C4 1_555 1_555
C8 C5 1_555 1_555
C9 C5 1_555 1_555
Tb2 O8 1_555 1_555
C10 N1 1_555 1_555
C11 N1 1_555 1_555
C12 C6 1_555 1_555
H3 C7 1_555 1_555
C13 C7 1_555 1_555
H4 C8 1_555 1_555
C14 C8 1_555 1_555
H5 C9 1_555 1_555
C15 C9 1_555 1_555
O9 Tb2 1_555 1_555
O10 Tb2 1_555 1_555
O11 Tb2 1_555 1_555
O12 C40 1_555 1_555
H6 C10 1_555 1_555
H7 C10 1_555 1_555
H8 C10 1_555 1_555
H9 C11 1_555 1_555
H10 C11 1_555 1_555
H11 C11 1_555 1_555
H12 C12 1_555 1_555
C16 C12 1_555 1_555
C17 C13 1_555 1_555
C18 C14 1_555 1_555
C19 C14 1_555 1_555
H13 C15 1_555 1_555
C20 O9 1_555 1_555
N2 O10 1_555 1_555
C21 C16 1_555 1_555
C22 C17 1_555 1_555
C23 C17 1_555 1_555
C24 C17 1_555 1_555
C25 C18 1_555 1_555
C26 C19 1_555 1_555
C27 C19 1_555 1_555
C28 C19 1_555 1_555
H14 C20 1_555 1_555
N3 C20 1_555 1_555
O13 N2 1_555 1_555
C29 C21 1_555 1_555
H15 C22 1_555 1_555
H16 C22 1_555 1_555
H17 C22 1_555 1_555
H18 C23 1_555 1_555
H19 C23 1_555 1_555
H20 C23 1_555 1_555
C30 C24 1_555 1_555
C31 C25 1_555 1_555
H21 C26 1_555 1_555
H22 C26 1_555 1_555
H23 C26 1_555 1_555
H24 C27 1_555 1_555
H25 C27 1_555 1_555
H26 C27 1_555 1_555
C32 C28 1_555 1_555
C33 N3 1_555 1_555
C34 N3 1_555 1_555
H27 C29 1_555 1_555
C35 C29 1_555 1_555
H28 C30 1_555 1_555
C36 C30 1_555 1_555
H29 C31 1_555 1_555
C37 C31 1_555 1_555
H30 C32 1_555 1_555
C38 C32 1_555 1_555
H31 C33 1_555 1_555
H32 C33 1_555 1_555
H33 C33 1_555 1_555
H34 C34 1_555 1_555
H35 C34 1_555 1_555
H36 C34 1_555 1_555
H37 C35 1_555 1_555
C39 C36 1_555 1_555
H38 C37 1_555 1_555
C40 C38 1_555 1_555
Tb1A O7 1_555 1_555
Tb1A_2 O5 1_555 1_555
Tb1B O4 1_555 1_555
Tb1C O6 1_555 1_555
O4B Tb1 1_555 1_555
O5A Tb1 1_555 1_555
O6C Tb1 1_555 1_555
O7A Tb1 1_555 1_555
O8B Tb2 1_555 1_555
Tb2A O12 1_555 1_555
Tb2B O8 1_555 1_555
Tb2C O12 1_555 1_555
O12A Tb2 1_555 1_555
O12C Tb2 1_555 1_555
Tb2 Tb2B 1_555 1_555
C13 C16 1_555 1_555
C15 C18 1_555 1_555
O11 N2 1_555 1_555
C21 C24 1_555 1_555
C25 C28 1_555 1_555
C35 C36 1_555 1_555
C37 C38 1_555 1_555
O8B Tb2B 1_555 1_555
Tb2A Tb2C 1_555 1_555
Tb2B O12A 1_555 1_555
Tb2B O12C 1_555 1_555

#END
