
#######################################################################
#
#                 Cambridge Crystallographic Data Centre
#                                CCDC 
#
#######################################################################
#
# If this CIF has been generated from an entry in the Cambridge 
# Structural Database, then it will include bibliographic, chemical, 
# crystal, experimental, refinement or atomic coordinate data resulting 
# from the CCDC's data processing and validation procedures.
#
#######################################################################

data_WIYXUZ
_symmetry_cell_setting           orthorhombic
_symmetry_space_group_name_H-M   'P b c n'
_symmetry_Int_Tables_number      60
_space_group_name_Hall           '-P 2n 2ab'
loop_
_symmetry_equiv_pos_site_id
_symmetry_equiv_pos_as_xyz
1 x,y,z
2 1/2-x,1/2-y,1/2+z
3 1/2+x,1/2-y,-z
4 -x,y,1/2-z
5 -x,-y,-z
6 1/2+x,1/2+y,1/2-z
7 1/2-x,1/2+y,z
8 x,-y,1/2+z
_cell_length_a                   14.0942(11)
_cell_length_b                   17.0938(13)
_cell_length_c                   20.1929(16)
_cell_angle_alpha                90
_cell_angle_beta                 90
_cell_angle_gamma                90
_cell_volume                     4864.94
loop_
_atom_site_label
_atom_site_type_symbol
_atom_site_fract_x
_atom_site_fract_y
_atom_site_fract_z
Zn1 Zn 0.32195(4) 0.12479(3) 0.42033(3)
O1 O 0.2898(3) 0.2276(2) 0.47749(19)
O2 O 0.3603(3) 0.1355(2) 0.5264(2)
O3 O 0.2925(2) 0.3209(2) 0.58240(17)
O4 O 0.1729(3) 0.4333(3) 0.5810(3)
O5 O 0.0100(3) 0.3510(2) 0.5801(2)
O6 O -0.0774(2) 0.4564(2) 0.59530(18)
N1 N 0.3201(3) 0.1856(2) 0.3319(2)
N2 N 0.7055(3) 0.5535(2) 0.07541(17)
C1 C 0.3309(4) 0.2034(4) 0.5266(4)
C2 C 0.3540(4) 0.2544(3) 0.5832(3)
H1 H 0.3460 0.2257 0.6243
H2 H 0.4196 0.2713 0.5803
C3 C 0.2992(4) 0.3715(3) 0.6347(2)
C4 C 0.2337(4) 0.4323(3) 0.6339(3)
C5 C 0.2381(6) 0.4870(3) 0.6860(4)
H3 H 0.1970 0.5295 0.6860
C6 C 0.3008(7) 0.4788(5) 0.7358(4)
H4 H 0.3016 0.5147 0.7703
C7 C 0.3625(7) 0.4186(4) 0.7357(3)
H5 H 0.4061 0.4142 0.7701
C8 C 0.3626(4) 0.3642(3) 0.6865(3)
H6 H 0.4049 0.3225 0.6877
C9 C 0.0858(4) 0.4743(4) 0.5867(3)
H7 H 0.0798 0.5106 0.5500
H8 H 0.0859 0.5045 0.6274
C10 C 0.0028(4) 0.4205(4) 0.5869(3)
C11 C 0.3720(4) 0.1599(3) 0.2820(2)
H9 H 0.4017 0.1116 0.2863
C12 C 0.3846(3) 0.2008(3) 0.2240(2)
H10 H 0.4222 0.1798 0.1906
C13 C 0.3422(3) 0.2725(2) 0.2150(2)
C14 C 0.2860(4) 0.2984(3) 0.2677(3)
H11 H 0.2539 0.3457 0.2643
C15 C 0.2776(4) 0.2553(3) 0.3237(2)
H12 H 0.2407 0.2748 0.3580
C16 C 0.3560(3) 0.3176(3) 0.1530(2)
H13 H 0.3043 0.3546 0.1485
H14 H 0.3525 0.2818 0.1158
C17 C 0.4508(3) 0.3626(3) 0.1492(2)
H15 H 0.4523 0.4024 0.1835
H16 H 0.5030 0.3268 0.1571
C18 C 0.4629(4) 0.4008(3) 0.0820(2)
H17 H 0.4065 0.4310 0.0719
H18 H 0.4688 0.3603 0.0486
C19 C 0.5476(3) 0.4533(3) 0.0780(2)
C20 C 0.6370(4) 0.4271(3) 0.0629(3)
H19 H 0.6466 0.3745 0.0533
C21 C 0.7128(4) 0.4782(3) 0.0620(3)
H20 H 0.7723 0.4585 0.0513
C22 C 0.6181(3) 0.5809(3) 0.0886(2)
H21 H 0.6104 0.6341 0.0966
C23 C 0.5395(3) 0.5331(3) 0.0905(2)
H22 H 0.4803 0.5544 0.1002
Zn1B Zn -0.17805(4) 0.37521(3) 0.57967(3)
Zn1E Zn 0.82195(4) 0.62479(3) 0.07967(3)
O6B O 0.4226(2) 0.0436(2) 0.40470(18)
N2E N 0.2055(3) 0.0535(2) 0.42459(17)
O7 O 0.0892(5) 0.3839(3) 0.3554(3)
H23 H 0.079(9) 0.356(4) 0.389(3)
H24 H 0.087(8) 0.4313(11) 0.364(4)
O8 O 0.1016(4) 0.2864(3) 0.4678(2)
H25 H 0.072(4) 0.312(5) 0.496(3)
H26 H 0.1596(13) 0.286(6) 0.476(4)
loop_
_geom_bond_atom_site_label_1
_geom_bond_atom_site_label_2
_geom_bond_site_symmetry_1
_geom_bond_site_symmetry_2
Zn1 O1 1_555 1_555
O1 C1 1_555 1_555
O2 Zn1 1_555 1_555
O3 C2 1_555 1_555
O4 C4 1_555 1_555
O5 C10 1_555 1_555
O6 C10 1_555 1_555
N1 Zn1 1_555 1_555
N2 C21 1_555 1_555
C1 O2 1_555 1_555
C2 C1 1_555 1_555
H1 C2 1_555 1_555
H2 C2 1_555 1_555
C3 O3 1_555 1_555
C4 C3 1_555 1_555
C5 C4 1_555 1_555
H3 C5 1_555 1_555
C6 C5 1_555 1_555
H4 C6 1_555 1_555
C7 C6 1_555 1_555
H5 C7 1_555 1_555
C8 C3 1_555 1_555
H6 C8 1_555 1_555
C9 O4 1_555 1_555
H7 C9 1_555 1_555
H8 C9 1_555 1_555
C10 C9 1_555 1_555
C11 N1 1_555 1_555
H9 C11 1_555 1_555
C12 C11 1_555 1_555
H10 C12 1_555 1_555
C13 C12 1_555 1_555
C14 C13 1_555 1_555
H11 C14 1_555 1_555
C15 N1 1_555 1_555
H12 C15 1_555 1_555
C16 C13 1_555 1_555
H13 C16 1_555 1_555
H14 C16 1_555 1_555
C17 C16 1_555 1_555
H15 C17 1_555 1_555
H16 C17 1_555 1_555
C18 C17 1_555 1_555
H17 C18 1_555 1_555
H18 C18 1_555 1_555
C19 C18 1_555 1_555
C20 C19 1_555 1_555
H19 C20 1_555 1_555
C21 C20 1_555 1_555
H20 C21 1_555 1_555
C22 N2 1_555 1_555
H21 C22 1_555 1_555
C23 C19 1_555 1_555
H22 C23 1_555 1_555
O7 H23 1_555 1_555
H24 O7 1_555 1_555
O8 H25 1_555 1_555
H26 O8 1_555 1_555
Zn1B O6 1_555 1_555
Zn1E N2 1_555 1_555
O6B Zn1 1_555 1_555
N2E Zn1 1_555 1_555
C7 C8 1_555 1_555
C14 C15 1_555 1_555
C22 C23 1_555 1_555

#END
