
#######################################################################
#
#                 Cambridge Crystallographic Data Centre
#                                CCDC 
#
#######################################################################
#
# If this CIF has been generated from an entry in the Cambridge 
# Structural Database, then it will include bibliographic, chemical, 
# crystal, experimental, refinement or atomic coordinate data resulting 
# from the CCDC's data processing and validation procedures.
#
#######################################################################

data_WIYXAF
_symmetry_cell_setting           monoclinic
_symmetry_space_group_name_H-M   'C 2/c'
_symmetry_Int_Tables_number      15
_space_group_name_Hall           '-C 2yn'
loop_
_symmetry_equiv_pos_site_id
_symmetry_equiv_pos_as_xyz
1 x,y,z
2 -x,y,1/2-z
3 1/2+x,1/2+y,z
4 1/2-x,1/2+y,1/2-z
5 -x,-y,-z
6 x,-y,1/2+z
7 1/2-x,1/2-y,-z
8 1/2+x,1/2-y,1/2+z
_cell_length_a                   20.728(4)
_cell_length_b                   13.207(2)
_cell_length_c                   16.843(3)
_cell_angle_alpha                90
_cell_angle_beta                 106.300(3)
_cell_angle_gamma                90
_cell_volume                     4425.52
loop_
_atom_site_label
_atom_site_type_symbol
_atom_site_fract_x
_atom_site_fract_y
_atom_site_fract_z
Zn1 Zn 0.5000 0.37994(2) 0.2500
Zn2 Zn 0.0000 0.37727(2) 0.2500
O1 O 0.45233(7) 0.27650(10) 0.29665(9)
O2 O 0.40589(8) 0.39841(11) 0.35291(10)
O3 O 0.40826(7) 0.13203(10) 0.38492(10)
O4 O 0.18319(7) 0.19093(10) 0.22658(9)
O5 O 0.02811(12) 0.25413(16) 0.10328(13)
O6 O 0.07104(8) 0.28821(12) 0.23607(10)
N1 N 0.43773(9) 0.45594(12) 0.15789(10)
N2 N 0.34278(9) 0.50962(12) 0.07353(11)
N3 N -0.04322(8) 0.47461(12) 0.15768(10)
N4 N -0.08586(8) 0.61139(12) 0.08875(11)
C1 C 0.42247(9) 0.30966(15) 0.34809(11)
C2 C 0.41220(10) 0.23438(15) 0.41139(12)
H1 H 0.4491 0.2410 0.4614
H2 H 0.3711 0.2515 0.4251
C3 C 0.34957(10) 0.10177(15) 0.32952(12)
C4 C 0.29383(10) 0.16345(15) 0.30095(12)
H3 H 0.2953 0.2308 0.3175
C5 C 0.23548(10) 0.12367(14) 0.24708(12)
C6 C 0.23297(11) 0.02482(15) 0.21967(13)
H4 H 0.1943 -0.0010 0.1829
C7 C 0.29041(11) -0.03540(16) 0.24895(13)
H5 H 0.2896 -0.1021 0.2310
C8 C 0.34771(10) 0.00158(15) 0.30330(13)
H6 H 0.3851 -0.0399 0.3225
C9 C 0.11981(10) 0.15652(16) 0.17612(14)
H7 H 0.1061 0.0964 0.2003
H8 H 0.1232 0.1393 0.1214
C10 C 0.06825(10) 0.24032(16) 0.16987(14)
C11 C 0.37271(10) 0.47036(14) 0.14778(12)
H9 H 0.3507 0.4551 0.1874
C12 C 0.39117(12) 0.52115(17) 0.03302(14)
H10 H 0.3851 0.5468 -0.0200
C13 C 0.44908(12) 0.48818(17) 0.08486(13)
H11 H 0.4904 0.4872 0.0734
C14 C 0.27196(11) 0.53677(16) 0.04145(15)
H12 H 0.2489 0.5206 0.0826
H13 H 0.2519 0.4966 -0.0075
C15 C 0.26211(10) 0.64791(15) 0.01960(13)
C16 C 0.21078(10) 0.67698(16) -0.04889(13)
H14 H 0.1843 0.6278 -0.0822
C17 C 0.30155(11) 0.72199(16) 0.06827(13)
H15 H 0.3364 0.7036 0.1141
C18 C -0.06302(10) 0.56909(16) 0.16320(12)
H16 H -0.0612 0.6017 0.2127
C19 C -0.08043(12) 0.54091(17) 0.03206(13)
H17 H -0.0925 0.5490 -0.0251
C20 C -0.05427(11) 0.45727(17) 0.07444(13)
H18 H -0.0451 0.3971 0.0511
C21 C -0.10632(11) 0.71749(16) 0.07239(16)
H19 H -0.0829 0.7460 0.0352
H20 H -0.0924 0.7549 0.1239
C22 C -0.18148(10) 0.73228(14) 0.03475(13)
C23 C -0.20978(11) 0.72673(17) -0.05010(14)
H21 H -0.1830 0.7110 -0.0845
C24 C -0.22213(11) 0.75539(17) 0.08376(14)
H22 H -0.2037 0.7592 0.1408
N1F N 0.06227(9) 1.04406(12) -0.15789(10)
N2F N 0.15722(9) 0.99038(12) -0.07353(11)
C11F C 0.12729(10) 1.02964(14) -0.14778(12)
H9F H 0.1493 1.0449 -0.1874
C12F C 0.10883(12) 0.97885(17) -0.03302(14)
H10F H 0.1149 0.9532 0.0200
C13F C 0.05092(12) 1.01182(17) -0.08486(13)
H11F H 0.0096 1.0128 -0.0734
C14F C 0.22804(11) 0.96323(16) -0.04145(15)
H12F H 0.2511 0.9794 -0.0826
H13F H 0.2481 1.0034 0.0075
C15F C 0.23789(10) 0.85209(15) -0.01960(13)
C16F C 0.28922(10) 0.82302(16) 0.04889(13)
H14F H 0.3157 0.8722 0.0822
C17F C 0.19845(11) 0.77801(16) -0.06827(13)
H15F H 0.1636 0.7964 -0.1141
N3F N -0.45678(8) 1.02539(12) -0.15768(10)
N4F N -0.41414(8) 0.88861(12) -0.08875(11)
C18F C -0.43698(10) 0.93091(16) -0.16320(12)
H16F H -0.4388 0.8983 -0.2127
C19F C -0.41957(12) 0.95909(17) -0.03206(13)
H17F H -0.4075 0.9510 0.0251
C20F C -0.44573(11) 1.04273(17) -0.07444(13)
H18F H -0.4549 1.1029 -0.0511
C21F C -0.39368(11) 0.78251(16) -0.07239(16)
H19F H -0.4171 0.7540 -0.0352
H20F H -0.4076 0.7451 -0.1239
C22F C -0.31852(10) 0.76772(14) -0.03475(13)
C23F C -0.29022(11) 0.77327(17) 0.05010(14)
H21F H -0.3170 0.7890 0.0845
C24F C -0.27787(11) 0.74461(17) -0.08376(14)
H22F H -0.2963 0.7408 -0.1408
O1A O -0.45233(7) 0.27650(10) 0.20335(9)
O2A O -0.40589(8) 0.39841(11) 0.14709(10)
O3A O -0.40826(7) 0.13203(10) 0.11508(10)
O4A O -0.18319(7) 0.19093(10) 0.27342(9)
O5A O -0.02811(12) 0.25413(16) 0.39672(13)
O6A O -0.07104(8) 0.28821(12) 0.26393(10)
C1A C -0.42247(9) 0.30966(15) 0.15191(11)
C2A C -0.41220(10) 0.23438(15) 0.08861(12)
H1A H -0.4491 0.2410 0.0386
H2A H -0.3711 0.2515 0.0749
C3A C -0.34957(10) 0.10177(15) 0.17048(12)
C4A C -0.29383(10) 0.16345(15) 0.19905(12)
H3A H -0.2953 0.2308 0.1825
C5A C -0.23548(10) 0.12367(14) 0.25292(12)
C6A C -0.23297(11) 0.02482(15) 0.28033(13)
H4A H -0.1943 -0.0010 0.3171
C7A C -0.29041(11) -0.03540(16) 0.25105(13)
H5A H -0.2896 -0.1021 0.2690
C8A C -0.34771(10) 0.00158(15) 0.19670(13)
H6A H -0.3851 -0.0399 0.1775
C9A C -0.11981(10) 0.15652(16) 0.32388(14)
H7A H -0.1061 0.0964 0.2997
H8A H -0.1232 0.1393 0.3786
C10A C -0.06825(10) 0.24032(16) 0.33013(14)
Zn1_2 Zn -0.5000 0.37994(2) 0.2500
Zn1F Zn 0.0000 1.12006(2) -0.2500
Zn2F Zn -0.5000 1.12273(2) -0.2500
O1A_2 O 0.54767(7) 0.27650(10) 0.20335(9)
N1A N 0.56227(9) 0.45594(12) 0.34211(10)
N3A N 0.04322(8) 0.47461(12) 0.34232(10)
loop_
_geom_bond_atom_site_label_1
_geom_bond_atom_site_label_2
_geom_bond_site_symmetry_1
_geom_bond_site_symmetry_2
Zn1 O1 1_555 1_555
Zn2 O6 1_555 1_555
O1 C1 1_555 1_555
O2 C1 1_555 1_555
O3 C2 1_555 1_555
O4 C5 1_555 1_555
O5 C10 1_555 1_555
O6 C10 1_555 1_555
N1 Zn1 1_555 1_555
N2 C11 1_555 1_555
N3 Zn2 1_555 1_555
N4 C18 1_555 1_555
C1 C2 1_555 1_555
C2 H1 1_555 1_555
H2 C2 1_555 1_555
C3 O3 1_555 1_555
C4 C3 1_555 1_555
H3 C4 1_555 1_555
C5 C4 1_555 1_555
C6 C5 1_555 1_555
H4 C6 1_555 1_555
C7 C6 1_555 1_555
H5 C7 1_555 1_555
C8 C3 1_555 1_555
H6 C8 1_555 1_555
C9 O4 1_555 1_555
H7 C9 1_555 1_555
H8 C9 1_555 1_555
C10 C9 1_555 1_555
C11 N1 1_555 1_555
H9 C11 1_555 1_555
C12 N2 1_555 1_555
H10 C12 1_555 1_555
C13 N1 1_555 1_555
H11 C13 1_555 1_555
C14 N2 1_555 1_555
H12 C14 1_555 1_555
H13 C14 1_555 1_555
C15 C14 1_555 1_555
C16 C15 1_555 1_555
H14 C16 1_555 1_555
C17 C15 1_555 1_555
H15 C17 1_555 1_555
C18 N3 1_555 1_555
H16 C18 1_555 1_555
C19 N4 1_555 1_555
H17 C19 1_555 1_555
C20 N3 1_555 1_555
H18 C20 1_555 1_555
C21 N4 1_555 1_555
H19 C21 1_555 1_555
H20 C21 1_555 1_555
C22 C21 1_555 1_555
C23 C22 1_555 1_555
H21 C23 1_555 1_555
C24 C22 1_555 1_555
H22 C24 1_555 1_555
N1F C11F 1_555 1_555
N2F C11F 1_555 1_555
C11F H9F 1_555 1_555
C12F N2F 1_555 1_555
H10F C12F 1_555 1_555
C13F N1F 1_555 1_555
H11F C13F 1_555 1_555
C14F N2F 1_555 1_555
H12F C14F 1_555 1_555
H13F C14F 1_555 1_555
C15F C14F 1_555 1_555
C16F C17 1_555 1_555
H14F C16F 1_555 1_555
C17F C16 1_555 1_555
H15F C17F 1_555 1_555
N3F C18F 1_555 1_555
N4F C18F 1_555 1_555
C18F H16F 1_555 1_555
C19F N4F 1_555 1_555
H17F C19F 1_555 1_555
C20F N3F 1_555 1_555
H18F C20F 1_555 1_555
C21F N4F 1_555 1_555
H19F C21F 1_555 1_555
H20F C21F 1_555 1_555
C22F C21F 1_555 1_555
C23F C24 1_555 1_555
H21F C23F 1_555 1_555
C24F C23 1_555 1_555
H22F C24F 1_555 1_555
O1A C1A 1_555 1_555
O2A C1A 1_555 1_555
O3A C2A 1_555 1_555
O4A C5A 1_555 1_555
O5A C10A 1_555 1_555
O6A Zn2 1_555 1_555
C1A C2A 1_555 1_555
C2A H1A 1_555 1_555
H2A C2A 1_555 1_555
C3A O3A 1_555 1_555
C4A C3A 1_555 1_555
H3A C4A 1_555 1_555
C5A C4A 1_555 1_555
C6A C5A 1_555 1_555
H4A C6A 1_555 1_555
C7A C6A 1_555 1_555
H5A C7A 1_555 1_555
C8A C3A 1_555 1_555
H6A C8A 1_555 1_555
C9A O4A 1_555 1_555
H7A C9A 1_555 1_555
H8A C9A 1_555 1_555
C10A O6A 1_555 1_555
Zn1_2 O1A 1_555 1_555
Zn1F N1F 1_555 1_555
Zn2F N3F 1_555 1_555
O1A_2 Zn1 1_555 1_555
N1A Zn1 1_555 1_555
N3A Zn2 1_555 1_555
C7 C8 1_555 1_555
C12 C13 1_555 1_555
C19 C20 1_555 1_555
C12F C13F 1_555 1_555
C15F C16F 1_555 1_555
C15F C17F 1_555 1_555
C19F C20F 1_555 1_555
C22F C23F 1_555 1_555
C22F C24F 1_555 1_555
C7A C8A 1_555 1_555
C9A C10A 1_555 1_555

#END
