
#######################################################################
#
#                 Cambridge Crystallographic Data Centre
#                                CCDC 
#
#######################################################################
#
# If this CIF has been generated from an entry in the Cambridge 
# Structural Database, then it will include bibliographic, chemical, 
# crystal, experimental, refinement or atomic coordinate data resulting 
# from the CCDC's data processing and validation procedures.
#
#######################################################################

data_WIYXEJ
_symmetry_cell_setting           triclinic
_symmetry_space_group_name_H-M   'P -1'
_symmetry_Int_Tables_number      2
_space_group_name_Hall           '-P 1'
loop_
_symmetry_equiv_pos_site_id
_symmetry_equiv_pos_as_xyz
1 x,y,z
2 -x,-y,-z
_cell_length_a                   9.6019(9)
_cell_length_b                   10.7138(10)
_cell_length_c                   11.5657(11)
_cell_angle_alpha                110.919(2)
_cell_angle_beta                 97.986(2)
_cell_angle_gamma                92.316(2)
_cell_volume                     1095.37
loop_
_atom_site_label
_atom_site_type_symbol
_atom_site_fract_x
_atom_site_fract_y
_atom_site_fract_z
Cd1 Cd 0.40541(3) 0.89769(3) 0.07019(3)
O1 O 0.1931(3) 0.9406(3) -0.0183(3)
O2 O 0.2015(3) 0.7226(3) -0.0772(3)
O3 O -0.0450(4) 0.6725(3) -0.2372(3)
O4 O -0.3027(4) 0.3416(3) -0.5918(3)
O5 O -0.3734(4) 0.0755(3) -0.7151(3)
O6 O -0.4969(3) 0.1080(3) -0.8771(2)
N1 N 0.3134(4) 0.8996(4) 0.2423(3)
N2 N 0.1631(4) 0.8492(4) 0.3508(3)
N3 N 0.5429(4) 0.7339(3) 0.0670(3)
N4 N 0.6971(4) 0.5873(4) 0.0128(3)
C1 C 0.1429(5) 0.8204(5) -0.0821(4)
C2 C 0.0059(5) 0.8089(4) -0.1679(4)
H1 H -0.0640 0.8533 -0.1185
H2 H 0.0201 0.8537 -0.2255
C3 C -0.1495(5) 0.6471(5) -0.3389(4)
C4 C -0.1794(5) 0.5137(4) -0.4172(4)
H3 H -0.1299 0.4486 -0.3986
C5 C -0.2825(5) 0.4765(4) -0.5231(4)
C6 C -0.3563(5) 0.5727(5) -0.5504(4)
H4 H -0.4248 0.5489 -0.6218
C7 C -0.3270(5) 0.7051(5) -0.4702(4)
H5 H -0.3777 0.7700 -0.4879
C8 C -0.2243(5) 0.7439(5) -0.3640(4)
H6 H -0.2062 0.8335 -0.3108
C9 C -0.3982(5) 0.3001(4) -0.7064(4)
H7 H -0.3616 0.3366 -0.7630
H8 H -0.4882 0.3350 -0.6910
C10 C -0.4201(5) 0.1483(4) -0.7675(4)
C11 C 0.1798(5) 0.8691(4) 0.2451(4)
H9 H 0.1058 0.8622 0.1814
C12 C 0.3851(5) 0.9001(5) 0.3542(4)
H10 H 0.4822 0.9195 0.3800
C13 C 0.2948(6) 0.8687(5) 0.4207(5)
H11 H 0.3174 0.8615 0.4988
C14 C 0.0294(6) 0.8220(5) 0.3866(5)
H12 H -0.0412 0.7860 0.3114
H13 H 0.0396 0.7530 0.4225
C15 C -0.0211(8) 0.9341(6) 0.4736(8)
H14 H -0.1185 0.9313 0.4358
H15 H -0.0263 0.9077 0.5450
C16 C 0.6295(5) 0.6828(4) -0.0128(4)
H16 H 0.6420 0.7100 -0.0789
C17 C 0.6532(5) 0.5775(5) 0.1155(4)
H17 H 0.6833 0.5197 0.1557
C18 C 0.5582(5) 0.6664(5) 0.1487(4)
H18 H 0.5102 0.6803 0.2161
C19 C 0.8041(5) 0.5117(5) -0.0519(4)
H19 H 0.8126 0.5337 -0.1252
H20 H 0.7749 0.4164 -0.0803
C20 C 0.9455(4) 0.5424(5) 0.0321(4)
H21 H 0.9774 0.6366 0.0561
H22 H 0.9357 0.5258 0.1078
N1A N -0.3134(4) 1.1004(4) 0.7577(3)
N2A N -0.1631(4) 1.1508(4) 0.6492(3)
C11A C -0.1798(5) 1.1309(4) 0.7549(4)
H9A H -0.1058 1.1378 0.8186
C12A C -0.3851(5) 1.0999(5) 0.6458(4)
H10A H -0.4822 1.0805 0.6200
C13A C -0.2948(6) 1.1313(5) 0.5793(5)
H11A H -0.3174 1.1385 0.5012
C14A C -0.0294(6) 1.1780(5) 0.6134(5)
H12A H 0.0412 1.2140 0.6886
H13A H -0.0396 1.2470 0.5775
C15A C 0.0211(8) 1.0659(6) 0.5264(8)
H14A H 0.1185 1.0687 0.5642
H15A H 0.0263 1.0923 0.4550
N3A N 1.4571(4) 0.2661(3) -0.0670(3)
N4A N 1.3029(4) 0.4127(4) -0.0128(3)
C16A C 1.3705(5) 0.3172(4) 0.0128(4)
H16A H 1.3580 0.2900 0.0789
C17A C 1.3468(5) 0.4225(5) -0.1155(4)
H17A H 1.3167 0.4803 -0.1557
C18A C 1.4418(5) 0.3336(5) -0.1487(4)
H18A H 1.4898 0.3197 -0.2161
C19A C 1.1959(5) 0.4883(5) 0.0519(4)
H19A H 1.1874 0.4663 0.1252
H20A H 1.2251 0.5836 0.0803
C20A C 1.0545(4) 0.4576(5) -0.0321(4)
H21A H 1.0226 0.3634 -0.0561
H22A H 1.0643 0.4742 -0.1078
Cd1A Cd -0.40541(3) 0.10231(3) -1.07019(3)
O1A O -0.1931(3) 0.0594(3) -0.9817(3)
O2A O -0.2015(3) 0.2774(3) -0.9228(3)
O3A O 0.0450(4) 0.3275(3) -0.7628(3)
O4A O 0.3027(4) 0.6584(3) -0.4082(3)
O5A O 0.3734(4) 0.9245(3) -0.2849(3)
O6A O 0.4969(3) 0.8920(3) -0.1229(2)
C1A C -0.1429(5) 0.1796(5) -0.9179(4)
C2A C -0.0059(5) 0.1911(4) -0.8321(4)
H1A H 0.0640 0.1467 -0.8815
H2A H -0.0201 0.1463 -0.7745
C3A C 0.1495(5) 0.3529(5) -0.6611(4)
C4A C 0.1794(5) 0.4863(4) -0.5828(4)
H3A H 0.1299 0.5514 -0.6014
C5A C 0.2825(5) 0.5235(4) -0.4769(4)
C6A C 0.3563(5) 0.4273(5) -0.4496(4)
H4A H 0.4248 0.4511 -0.3782
C7A C 0.3270(5) 0.2949(5) -0.5298(4)
H5A H 0.3777 0.2300 -0.5121
C8A C 0.2243(5) 0.2561(5) -0.6360(4)
H6A H 0.2062 0.1665 -0.6892
C9A C 0.3982(5) 0.6999(4) -0.2936(4)
H7A H 0.3616 0.6634 -0.2370
H8A H 0.4882 0.6650 -0.3090
C10A C 0.4201(5) 0.8517(4) -0.2325(4)
Cd1_2 Cd -0.59459(3) -0.10231(3) -0.92981(3)
Cd1A_2 Cd -0.40541(3) 1.10231(3) 0.92981(3)
Cd1A_3 Cd 0.59459(3) 1.10231(3) -0.07019(3)
Cd1A_4 Cd 1.59459(3) 0.10231(3) -0.07019(3)
O6_2 O 0.5031(3) 1.1080(3) 0.1229(2)
O6A_2 O -0.5031(3) -0.1080(3) -1.1229(2)
N1A_2 N -0.3134(4) 0.1004(4) -1.2423(3)
N3A_2 N -0.5429(4) 0.2661(3) -1.0670(3)
O7 O 0.1450(5) 1.1011(4) -0.1544(5)
H23 H 0.1660 1.0569 -0.1070
H24 H 0.2136 1.1616 -0.1379
loop_
_geom_bond_atom_site_label_1
_geom_bond_atom_site_label_2
_geom_bond_site_symmetry_1
_geom_bond_site_symmetry_2
Cd1 O1 1_555 1_555
O1 C1 1_555 1_555
O2 Cd1 1_555 1_555
O3 C2 1_555 1_555
O4 C5 1_555 1_555
O5 C10 1_555 1_555
O6 C10 1_555 1_555
N1 Cd1 1_555 1_555
N2 C11 1_555 1_555
N3 Cd1 1_555 1_555
N4 C16 1_555 1_555
C1 O2 1_555 1_555
C2 C1 1_555 1_555
H1 C2 1_555 1_555
H2 C2 1_555 1_555
C3 O3 1_555 1_555
C4 C3 1_555 1_555
H3 C4 1_555 1_555
C5 C4 1_555 1_555
C6 C5 1_555 1_555
H4 C6 1_555 1_555
C7 C6 1_555 1_555
H5 C7 1_555 1_555
C8 C3 1_555 1_555
H6 C8 1_555 1_555
C9 O4 1_555 1_555
H7 C9 1_555 1_555
H8 C9 1_555 1_555
C10 C9 1_555 1_555
C11 N1 1_555 1_555
H9 C11 1_555 1_555
C12 N1 1_555 1_555
H10 C12 1_555 1_555
C13 N2 1_555 1_555
H11 C13 1_555 1_555
C14 N2 1_555 1_555
H12 C14 1_555 1_555
H13 C14 1_555 1_555
C15 C14 1_555 1_555
H14 C15 1_555 1_555
H15 C15 1_555 1_555
C16 N3 1_555 1_555
H16 C16 1_555 1_555
C17 N4 1_555 1_555
H17 C17 1_555 1_555
C18 N3 1_555 1_555
H18 C18 1_555 1_555
C19 N4 1_555 1_555
H19 C19 1_555 1_555
H20 C19 1_555 1_555
C20 C19 1_555 1_555
H21 C20 1_555 1_555
H22 C20 1_555 1_555
O7 H23 1_555 1_555
H24 O7 1_555 1_555
N1A C11A 1_555 1_555
N2A C11A 1_555 1_555
C11A H9A 1_555 1_555
C12A N1A 1_555 1_555
H10A C12A 1_555 1_555
C13A N2A 1_555 1_555
H11A C13A 1_555 1_555
C14A N2A 1_555 1_555
H12A C14A 1_555 1_555
H13A C14A 1_555 1_555
C15A C15 1_555 1_555
H14A C15A 1_555 1_555
H15A C15A 1_555 1_555
N3A C16A 1_555 1_555
N4A C16A 1_555 1_555
C16A H16A 1_555 1_555
C17A N4A 1_555 1_555
H17A C17A 1_555 1_555
C18A N3A 1_555 1_555
H18A C18A 1_555 1_555
C19A N4A 1_555 1_555
H19A C19A 1_555 1_555
H20A C19A 1_555 1_555
C20A C20 1_555 1_555
H21A C20A 1_555 1_555
H22A C20A 1_555 1_555
Cd1A O6 1_555 1_555
O1A Cd1A 1_555 1_555
O2A Cd1A 1_555 1_555
O3A C2A 1_555 1_555
O4A C5A 1_555 1_555
O5A C10A 1_555 1_555
O6A Cd1 1_555 1_555
C1A O1A 1_555 1_555
C2A C1A 1_555 1_555
H1A C2A 1_555 1_555
H2A C2A 1_555 1_555
C3A O3A 1_555 1_555
C4A C3A 1_555 1_555
H3A C4A 1_555 1_555
C5A C4A 1_555 1_555
C6A C5A 1_555 1_555
H4A C6A 1_555 1_555
C7A C6A 1_555 1_555
H5A C7A 1_555 1_555
C8A C3A 1_555 1_555
H6A C8A 1_555 1_555
C9A O4A 1_555 1_555
H7A C9A 1_555 1_555
H8A C9A 1_555 1_555
C10A O6A 1_555 1_555
Cd1_2 O6 1_555 1_555
Cd1A_2 N1A 1_555 1_555
Cd1A_3 O6A 1_555 1_555
Cd1A_4 N3A 1_555 1_555
O6_2 Cd1 1_555 1_555
O6A_2 Cd1A 1_555 1_555
N1A_2 Cd1A 1_555 1_555
N3A_2 Cd1A 1_555 1_555
C7 C8 1_555 1_555
C12 C13 1_555 1_555
C17 C18 1_555 1_555
C12A C13A 1_555 1_555
C14A C15A 1_555 1_555
C17A C18A 1_555 1_555
C19A C20A 1_555 1_555
O2A C1A 1_555 1_555
C7A C8A 1_555 1_555
C9A C10A 1_555 1_555
Cd1_2 O6A_2 1_555 1_555
Cd1A_3 O6_2 1_555 1_555

#END
