
#######################################################################
#
#                 Cambridge Crystallographic Data Centre
#                                CCDC 
#
#######################################################################
#
# If this CIF has been generated from an entry in the Cambridge 
# Structural Database, then it will include bibliographic, chemical, 
# crystal, experimental, refinement or atomic coordinate data resulting 
# from the CCDC's data processing and validation procedures.
#
#######################################################################

data_WIYXIN
_symmetry_cell_setting           triclinic
_symmetry_space_group_name_H-M   'P -1'
_symmetry_Int_Tables_number      2
_space_group_name_Hall           '-P 1'
loop_
_symmetry_equiv_pos_site_id
_symmetry_equiv_pos_as_xyz
1 x,y,z
2 -x,-y,-z
_cell_length_a                   10.0348(9)
_cell_length_b                   10.9425(9)
_cell_length_c                   12.1017(11)
_cell_angle_alpha                67.6290(10)
_cell_angle_beta                 78.0230(10)
_cell_angle_gamma                79.4690(10)
_cell_volume                     1194.14
loop_
_atom_site_label
_atom_site_type_symbol
_atom_site_fract_x
_atom_site_fract_y
_atom_site_fract_z
Cd1 Cd 0.65711(4) 0.07010(4) 0.32045(4)
O1 O 0.5932(5) 0.2151(5) 0.4230(4)
O2 O 0.5176(5) 0.0579(5) 0.5930(5)
O3 O 0.3549(6) 0.2350(5) 0.6750(5)
O4 O 0.0026(5) 0.3033(5) 0.9806(5)
O5 O -0.1587(6) 0.2054(6) 1.1924(6)
O6 O -0.2022(5) 0.0437(5) 1.1440(5)
N1 N 0.4992(7) 0.2125(6) 0.2058(6)
N2 N 0.3606(9) 0.3923(10) 0.1275(8)
N3 N 0.0122(7) 0.8207(7) 0.4755(8)
N4 N -0.1892(7) 0.9266(7) 0.4356(7)
C1 C 0.5217(6) 0.1754(6) 0.5258(6)
C2 C 0.4430(7) 0.2859(7) 0.5669(7)
H1 H 0.5069 0.3352 0.5784
H2 H 0.3902 0.3468 0.5051
C3 C 0.2815(7) 0.3232(7) 0.7258(6)
C4 C 0.1797(7) 0.2676(7) 0.8222(6)
H3 H 0.1646 0.1794 0.8450
C5 C 0.1023(7) 0.3488(7) 0.8824(6)
C6 C 0.1245(7) 0.4788(7) 0.8506(6)
H4 H 0.0715 0.5317 0.8918
C7 C 0.2266(8) 0.5295(7) 0.7566(6)
H5 H 0.2427 0.6172 0.7356
C8 C 0.3063(8) 0.4534(8) 0.6920(7)
H6 H 0.3743 0.4892 0.6281
C9 C -0.0291(8) 0.1708(7) 1.0148(7)
H7 H 0.0525 0.1085 1.0330
H8 H -0.0611 0.1610 0.9487
C10 C -0.1385(7) 0.1410(8) 1.1243(8)
C11 C 0.4601(9) 0.3373(9) 0.1967(8)
H9 H 0.4966 0.3815 0.2336
C12 C 0.3360(15) 0.2967(15) 0.0908(13)
H10 H 0.2739 0.3060 0.0399
C13 C 0.4199(12) 0.1843(12) 0.1428(10)
H11 H 0.4220 0.1021 0.1360
C14 C 0.2996(14) 0.5320(13) 0.0892(11)
H12 H 0.2160 0.5391 0.0577
H13 H 0.3626 0.5853 0.0239
C15 C 0.2665(11) 0.5885(11) 0.1887(9)
C16 C 0.3064(16) 0.7060(16) 0.1714(14)
H14 H 0.3603 0.7480 0.0986
C17 C 0.2729(14) 0.7659(15) 0.2528(13)
H15 H 0.3034 0.8476 0.2352
C18 C 0.1956(9) 0.7093(9) 0.3601(9)
C19 C 0.1563(12) 0.5847(12) 0.3846(11)
H16 H 0.1076 0.5397 0.4594
C20 C 0.1911(14) 0.5293(14) 0.2953(12)
H17 H 0.1611 0.4482 0.3100
C21 C 0.1600(10) 0.7766(11) 0.4524(10)
H18 H 0.1893 0.7154 0.5277
H19 H 0.2105 0.8532 0.4243
C22 C -0.0678(8) 0.8852(9) 0.3884(8)
H20 H -0.0406 0.8983 0.3068
C23 C -0.1861(10) 0.8870(9) 0.5565(9)
H21 H -0.2593 0.9008 0.6133
C24 C -0.0600(10) 0.8242(10) 0.5815(9)
H22 H -0.0299 0.7907 0.6563
Cd1_2 Cd -0.34289(4) 0.07010(4) 1.32045(4)
Cd1_3 Cd -0.34289(4) 1.07010(4) 0.32045(4)
Cd1A Cd 0.34289(4) -0.07010(4) 0.67955(4)
O2A O 0.4824(5) -0.0579(5) 0.4070(5)
O5_2 O 0.8413(6) 0.2054(6) 0.1924(6)
O6_2 O 0.7978(5) 0.0437(5) 0.1440(5)
N4_2 N 0.8108(7) -0.0734(7) 0.4356(7)
loop_
_geom_bond_atom_site_label_1
_geom_bond_atom_site_label_2
_geom_bond_site_symmetry_1
_geom_bond_site_symmetry_2
Cd1 O1 1_555 1_555
O1 C1 1_555 1_555
O2 C1 1_555 1_555
O3 C2 1_555 1_555
O4 C5 1_555 1_555
O5 C10 1_555 1_555
O6 C10 1_555 1_555
N1 Cd1 1_555 1_555
N2 C11 1_555 1_555
N3 C21 1_555 1_555
N4 C22 1_555 1_555
C1 C2 1_555 1_555
C2 H1 1_555 1_555
H2 C2 1_555 1_555
C3 O3 1_555 1_555
C4 C3 1_555 1_555
H3 C4 1_555 1_555
C5 C4 1_555 1_555
C6 C5 1_555 1_555
H4 C6 1_555 1_555
C7 C6 1_555 1_555
H5 C7 1_555 1_555
C8 C3 1_555 1_555
H6 C8 1_555 1_555
C9 O4 1_555 1_555
H7 C9 1_555 1_555
H8 C9 1_555 1_555
C10 C9 1_555 1_555
C11 N1 1_555 1_555
H9 C11 1_555 1_555
C12 N2 1_555 1_555
H10 C12 1_555 1_555
C13 N1 1_555 1_555
H11 C13 1_555 1_555
C14 N2 1_555 1_555
H12 C14 1_555 1_555
H13 C14 1_555 1_555
C15 C14 1_555 1_555
C16 C15 1_555 1_555
H14 C16 1_555 1_555
C17 C16 1_555 1_555
H15 C17 1_555 1_555
C18 C17 1_555 1_555
C19 C18 1_555 1_555
H16 C19 1_555 1_555
C20 C15 1_555 1_555
H17 C20 1_555 1_555
C21 C18 1_555 1_555
H18 C21 1_555 1_555
H19 C21 1_555 1_555
C22 N3 1_555 1_555
H20 C22 1_555 1_555
C23 N4 1_555 1_555
H21 C23 1_555 1_555
C24 N3 1_555 1_555
H22 C24 1_555 1_555
Cd1_2 O5 1_555 1_555
Cd1_3 N4 1_555 1_555
Cd1A O2 1_555 1_555
O2A Cd1 1_555 1_555
O5_2 Cd1 1_555 1_555
O6_2 Cd1 1_555 1_555
N4_2 Cd1 1_555 1_555
O6 Cd1_2 1_555 1_555
C7 C8 1_555 1_555
C12 C13 1_555 1_555
C19 C20 1_555 1_555
C23 C24 1_555 1_555

#END
