
#######################################################################
#
#                 Cambridge Crystallographic Data Centre
#                                CCDC 
#
#######################################################################
#
# If this CIF has been generated from an entry in the Cambridge 
# Structural Database, then it will include bibliographic, chemical, 
# crystal, experimental, refinement or atomic coordinate data resulting 
# from the CCDC's data processing and validation procedures.
#
#######################################################################

data_WIYXOT
_symmetry_cell_setting           triclinic
_symmetry_space_group_name_H-M   'P -1'
_symmetry_Int_Tables_number      2
_space_group_name_Hall           '-P 1'
loop_
_symmetry_equiv_pos_site_id
_symmetry_equiv_pos_as_xyz
1 x,y,z
2 -x,-y,-z
_cell_length_a                   9.605(2)
_cell_length_b                   12.262(3)
_cell_length_c                   12.708(3)
_cell_angle_alpha                66.916(3)
_cell_angle_beta                 72.173(3)
_cell_angle_gamma                84.090(4)
_cell_volume                     1310.51
loop_
_atom_site_label
_atom_site_type_symbol
_atom_site_fract_x
_atom_site_fract_y
_atom_site_fract_z
Cd1 Cd 0.882094(16) 0.416426(12) 0.161259(13)
O1 O 0.7216(2) 0.25893(16) 0.27379(16)
O2 O 0.5296(2) 0.1645(2) 0.4180(2)
O3 O 0.7501(2) 0.39390(17) 0.38397(15)
O4 O 0.94907(19) 0.55274(15) 0.25746(14)
O5 O 1.05057(17) 0.57530(13) 0.03428(13)
O6 O 1.21070(19) 0.71448(16) -0.01027(15)
N1 N 0.69930(19) 0.53891(15) 0.12733(16)
N2 N 0.5773(2) 0.69962(15) 0.06545(16)
N3 N 0.1560(2) 1.12923(17) 0.30998(16)
N4 N 0.0573(2) 1.29398(16) 0.21902(16)
C1 C 0.6281(3) 0.2413(2) 0.3704(2)
C2 C 0.6307(3) 0.3144(3) 0.4416(2)
H1 H 0.5407 0.3581 0.4514
H2 H 0.6368 0.2624 0.5204
C3 C 0.7695(3) 0.4667(2) 0.4370(2)
C4 C 0.8781(3) 0.5521(2) 0.3689(2)
C5 C 1.0574(3) 0.6422(2) 0.1841(2)
H3 H 1.1389 0.6280 0.2175
H4 H 1.0172 0.7186 0.1821
C6 C 1.1107(2) 0.64419(18) 0.05912(19)
C7 C 0.9091(4) 0.6279(3) 0.4147(3)
H5 H 0.9833 0.6848 0.3687
C8 C 0.8317(4) 0.6205(4) 0.5275(3)
H6 H 0.8526 0.6726 0.5579
C9 C 0.7247(4) 0.5368(4) 0.5943(3)
H7 H 0.6720 0.5320 0.6708
C10 C 0.6926(3) 0.4590(3) 0.5510(2)
H8 H 0.6194 0.4014 0.5982
C11 C 0.6979(2) 0.65414(19) 0.0950(2)
H9 H 0.7721 0.6987 0.0930
C12 C 0.5733(2) 0.5098(2) 0.1163(2)
H10 H 0.5441 0.4333 0.1330
C13 C 0.4973(3) 0.6082(2) 0.0775(2)
H11 H 0.4078 0.6127 0.0621
C14 C 0.5406(3) 0.8248(2) 0.0216(2)
H12 H 0.4912 0.8399 -0.0387
H13 H 0.6304 0.8721 -0.0163
C15 C 0.4446(2) 0.86378(17) 0.11833(19)
C16 C 0.2973(3) 0.87702(19) 0.1316(2)
H14 H 0.2563 0.8580 0.0833
C17 C 0.2097(2) 0.9184(2) 0.2162(2)
H15 H 0.1099 0.9262 0.2250
C18 C 0.2684(3) 0.94805(18) 0.28733(19)
C19 C 0.4159(3) 0.9336(2) 0.2745(2)
H16 H 0.4571 0.9528 0.3226
C20 C 0.5027(3) 0.8912(2) 0.1914(2)
H17 H 0.6020 0.8810 0.1844
C21 C 0.1746(3) 1.0018(2) 0.3724(2)
H18 H 0.0795 0.9621 0.4100
H19 H 0.2195 0.9902 0.4347
C22 C 0.0364(3) 1.1799(2) 0.2819(2)
H20 H -0.0513 1.1395 0.3041
C23 C 0.1989(3) 1.3165(2) 0.2058(2)
H21 H 0.2456 1.3904 0.1642
C24 C 0.2610(3) 1.2156(2) 0.2621(2)
H22 H 0.3564 1.2067 0.2671
Cd1_2 Cd -0.117906(16) 1.416426(12) 0.161259(13)
Cd1A Cd 1.117906(16) 0.583574(12) -0.161259(13)
O5A O 0.94943(17) 0.42470(13) -0.03428(13)
N4_2 N 1.0573(2) 0.29398(16) 0.21902(16)
O7 O 0.8406(3) 0.0501(2) 0.1532(2)
H23 H 0.811(4) 0.018(3) 0.2289(9)
H24 H 0.805(4) 0.1184(18) 0.129(3)
O8 O 0.2925(3) 0.0303(2) 0.6010(2)
H25 H 0.323(4) 0.0999(13) 0.554(3)
H26 H 0.360(3) -0.019(2) 0.596(4)
O9 O 0.1129(3) 0.11897(19) 0.9544(3)
H27 H 0.043(3) 0.095(3) 1.019(2)
H28 H 0.126(4) 0.067(3) 0.923(3)
loop_
_geom_bond_atom_site_label_1
_geom_bond_atom_site_label_2
_geom_bond_site_symmetry_1
_geom_bond_site_symmetry_2
Cd1 O1 1_555 1_555
O1 C1 1_555 1_555
O2 C1 1_555 1_555
O3 Cd1 1_555 1_555
O4 Cd1 1_555 1_555
O5 Cd1 1_555 1_555
O6 C6 1_555 1_555
N1 Cd1 1_555 1_555
N2 C11 1_555 1_555
N3 C21 1_555 1_555
N4 C22 1_555 1_555
C1 C2 1_555 1_555
C2 O3 1_555 1_555
H1 C2 1_555 1_555
H2 C2 1_555 1_555
C3 O3 1_555 1_555
C4 O4 1_555 1_555
C5 O4 1_555 1_555
H3 C5 1_555 1_555
H4 C5 1_555 1_555
C6 O5 1_555 1_555
C7 C4 1_555 1_555
H5 C7 1_555 1_555
C8 C7 1_555 1_555
H6 C8 1_555 1_555
C9 C8 1_555 1_555
H7 C9 1_555 1_555
C10 C3 1_555 1_555
H8 C10 1_555 1_555
C11 N1 1_555 1_555
H9 C11 1_555 1_555
C12 N1 1_555 1_555
H10 C12 1_555 1_555
C13 N2 1_555 1_555
H11 C13 1_555 1_555
C14 N2 1_555 1_555
H12 C14 1_555 1_555
H13 C14 1_555 1_555
C15 C14 1_555 1_555
C16 C15 1_555 1_555
H14 C16 1_555 1_555
C17 C16 1_555 1_555
H15 C17 1_555 1_555
C18 C17 1_555 1_555
C19 C18 1_555 1_555
H16 C19 1_555 1_555
C20 C15 1_555 1_555
H17 C20 1_555 1_555
C21 C18 1_555 1_555
H18 C21 1_555 1_555
H19 C21 1_555 1_555
C22 N3 1_555 1_555
H20 C22 1_555 1_555
C23 N4 1_555 1_555
H21 C23 1_555 1_555
C24 N3 1_555 1_555
H22 C24 1_555 1_555
O7 H23 1_555 1_555
H24 O7 1_555 1_555
O8 H25 1_555 1_555
H26 O8 1_555 1_555
O9 H27 1_555 1_555
H28 O9 1_555 1_555
Cd1_2 N4 1_555 1_555
Cd1A O5 1_555 1_555
O5A Cd1 1_555 1_555
N4_2 Cd1 1_555 1_555
C3 C4 1_555 1_555
C5 C6 1_555 1_555
C9 C10 1_555 1_555
C12 C13 1_555 1_555
C19 C20 1_555 1_555
C23 C24 1_555 1_555
Cd1A O5A 1_555 1_555

#END
