
#######################################################################
#
#                 Cambridge Crystallographic Data Centre
#                                CCDC 
#
#######################################################################
#
# If this CIF has been generated from an entry in the Cambridge 
# Structural Database, then it will include bibliographic, chemical, 
# crystal, experimental, refinement or atomic coordinate data resulting 
# from the CCDC's data processing and validation procedures.
#
#######################################################################

data_WIYYIO
_symmetry_cell_setting           triclinic
_symmetry_space_group_name_H-M   'P -1'
_symmetry_Int_Tables_number      2
_space_group_name_Hall           '-P 1'
loop_
_symmetry_equiv_pos_site_id
_symmetry_equiv_pos_as_xyz
1 x,y,z
2 -x,-y,-z
_cell_length_a                   9.908(2)
_cell_length_b                   10.5010(10)
_cell_length_c                   12.880(3)
_cell_angle_alpha                105.483(8)
_cell_angle_beta                 93.881(8)
_cell_angle_gamma                113.079(12)
_cell_volume                     1165.43
loop_
_atom_site_label
_atom_site_type_symbol
_atom_site_fract_x
_atom_site_fract_y
_atom_site_fract_z
Zn1 Zn 0.06605(4) 0.30316(4) -0.71884(3)
O1 O 0.1473(3) 0.4854(3) -0.7566(2)
O2 O 0.3565(3) 0.4560(3) -0.7631(2)
O3 O 0.2931(4) 0.7771(3) -0.7378(3)
O4 O 0.4001(3) 0.7887(3) -0.3697(2)
O5 O 0.1379(2) 0.7289(3) -0.2989(2)
O6 O 0.2513(4) 0.8472(5) -0.1250(3)
N1 N 0.1563(3) 0.3449(3) -0.5618(2)
N2 N 0.1790(3) 0.3968(3) -0.3831(2)
N3 N -0.0113(3) 0.1064(3) -0.0931(2)
N4 N -0.0761(3) -0.1247(3) -0.1859(2)
C1 C 0.2834(4) 0.5294(4) -0.7626(3)
C2 C 0.3639(5) 0.6836(4) -0.7703(4)
H1 H 0.4634 0.7293 -0.7253
H2 H 0.3755 0.6750 -0.8458
C3 C 0.2967(4) 0.8305(4) -0.6269(3)
C4 C 0.3475(4) 0.7842(4) -0.5485(3)
H3 H 0.3810 0.7116 -0.5688
C5 C 0.3481(4) 0.8472(4) -0.4383(3)
C6 C 0.2999(4) 0.9561(4) -0.4062(4)
H4 H 0.3015 0.9990 -0.3327
C7 C 0.2480(5) 0.9998(5) -0.4896(5)
H5 H 0.2136 1.0719 -0.4700
C8 C 0.2466(5) 0.9397(5) -0.5980(4)
H6 H 0.2130 0.9710 -0.6513
C9 C 0.4033(4) 0.8416(5) -0.2565(3)
H7 H 0.4587 0.9471 -0.2319
H8 H 0.4581 0.8033 -0.2182
C10 C 0.2516(4) 0.8042(4) -0.2230(3)
C11 C 0.0871(4) 0.3588(4) -0.4785(3)
H9 H -0.0124 0.3442 -0.4850
C12 C 0.3004(4) 0.3766(4) -0.5164(3)
H10 H 0.3756 0.3759 -0.5557
C13 C 0.3153(4) 0.4084(4) -0.4070(3)
H11 H 0.4012 0.4335 -0.3572
C14 C 0.1405(5) 0.4273(4) -0.2738(3)
H12 H 0.0434 0.4295 -0.2812
H13 H 0.2130 0.5237 -0.2282
C15 C 0.1356(4) 0.3182(4) -0.2149(3)
H14 H 0.2345 0.3219 -0.1995
H15 H 0.0684 0.2201 -0.2611
C16 C 0.0812(5) 0.3561(4) -0.1079(3)
H16 H -0.0197 0.3468 -0.1253
H17 H 0.1442 0.4575 -0.0660
C17 C 0.0814(5) 0.2616(4) -0.0363(3)
H18 H 0.1833 0.2761 -0.0140
H19 H 0.0449 0.2925 0.0295
C18 C 0.0371(4) 0.0059(4) -0.1373(3)
H20 H 0.1374 0.0248 -0.1344
C19 C -0.2025(4) -0.1039(4) -0.1687(4)
H21 H -0.3001 -0.1761 -0.1929
C20 C -0.1632(5) 0.0367(5) -0.1113(4)
H22 H -0.2277 0.0785 -0.0884
Zn1A Zn -0.06605(4) -0.30316(4) -0.28116(3)
Zn1A_2 Zn -0.06605(4) 0.69684(4) -0.28116(3)
O5A O -0.1379(2) 0.2711(3) -0.7011(2)
N4A N 0.0761(3) 0.1247(3) -0.8141(2)
O7 O 0.5174(8) 0.1536(6) -0.0224(5)
O8 O 0.5056(5) 0.4134(5) 0.0624(4)
loop_
_geom_bond_atom_site_label_1
_geom_bond_atom_site_label_2
_geom_bond_site_symmetry_1
_geom_bond_site_symmetry_2
Zn1 O1 1_555 1_555
O1 C1 1_555 1_555
O2 C1 1_555 1_555
O3 C2 1_555 1_555
O4 C5 1_555 1_555
O5 C10 1_555 1_555
O6 C10 1_555 1_555
N1 Zn1 1_555 1_555
N2 C11 1_555 1_555
N3 C17 1_555 1_555
N4 C18 1_555 1_555
C1 C2 1_555 1_555
C2 H1 1_555 1_555
H2 C2 1_555 1_555
C3 O3 1_555 1_555
C4 C3 1_555 1_555
H3 C4 1_555 1_555
C5 C4 1_555 1_555
C6 C5 1_555 1_555
H4 C6 1_555 1_555
C7 C6 1_555 1_555
H5 C7 1_555 1_555
C8 C3 1_555 1_555
H6 C8 1_555 1_555
C9 O4 1_555 1_555
H7 C9 1_555 1_555
H8 C9 1_555 1_555
C10 C9 1_555 1_555
C11 N1 1_555 1_555
H9 C11 1_555 1_555
C12 N1 1_555 1_555
H10 C12 1_555 1_555
C13 N2 1_555 1_555
H11 C13 1_555 1_555
C14 N2 1_555 1_555
H12 C14 1_555 1_555
H13 C14 1_555 1_555
C15 C14 1_555 1_555
H14 C15 1_555 1_555
H15 C15 1_555 1_555
C16 C15 1_555 1_555
H16 C16 1_555 1_555
H17 C16 1_555 1_555
C17 C16 1_555 1_555
H18 C17 1_555 1_555
H19 C17 1_555 1_555
C18 N3 1_555 1_555
H20 C18 1_555 1_555
C19 N4 1_555 1_555
H21 C19 1_555 1_555
C20 N3 1_555 1_555
H22 C20 1_555 1_555
Zn1A N4 1_555 1_555
Zn1A_2 O5 1_555 1_555
O5A Zn1 1_555 1_555
N4A Zn1 1_555 1_555
C7 C8 1_555 1_555
C12 C13 1_555 1_555
C19 C20 1_555 1_555

#END
