
#######################################################################
#
#                 Cambridge Crystallographic Data Centre
#                                CCDC 
#
#######################################################################
#
# If this CIF has been generated from an entry in the Cambridge 
# Structural Database, then it will include bibliographic, chemical, 
# crystal, experimental, refinement or atomic coordinate data resulting 
# from the CCDC's data processing and validation procedures.
#
#######################################################################

data_WIYZIO
_symmetry_cell_setting           monoclinic
_symmetry_space_group_name_H-M   'C 2/c'
_symmetry_Int_Tables_number      15
_space_group_name_Hall           '-C 2yn'
loop_
_symmetry_equiv_pos_site_id
_symmetry_equiv_pos_as_xyz
1 x,y,z
2 1/2+x,1/2+y,z
3 -x,y,1/2-z
4 1/2-x,1/2+y,1/2-z
5 -x,-y,-z
6 1/2-x,1/2-y,-z
7 x,-y,1/2+z
8 1/2+x,1/2-y,1/2+z
_cell_length_a                   19.5350(6)
_cell_length_b                   10.4494(4)
_cell_length_c                   13.2353(5)
_cell_angle_alpha                90
_cell_angle_beta                 97.2768(8)
_cell_angle_gamma                90
_cell_volume                     2679.95
loop_
_atom_site_label
_atom_site_type_symbol
_atom_site_fract_x
_atom_site_fract_y
_atom_site_fract_z
Co1 Co 0.347254(14) 0.09697(3) 0.17849(2)
Co2 Co -0.050900(15) 0.42671(3) 0.06599(2)
Co3 Co -0.157440(14) 0.25578(3) 0.14854(2)
O1 O -0.07097(7) 0.14951(14) 0.15165(12)
O2 O 0.01476(8) 0.27366(14) 0.10985(13)
O3 O 0.16427(8) 0.24111(14) 0.19583(13)
O4 O 0.15347(8) 0.19431(15) 0.03100(13)
O5 O 0.24902(8) 0.02676(15) 0.16863(14)
O6 O 0.24449(7) -0.17810(14) 0.12095(12)
O7 O 0.13974(7) -0.32833(14) 0.00252(12)
O8 O 0.15806(8) -0.38741(14) 0.16487(12)
O9 O 0.00904(8) -0.41020(14) 0.07831(12)
O10 O -0.06168(7) -0.30265(14) 0.16959(12)
O11 O 0.39793(8) -0.07514(13) 0.18918(12)
O12 O -0.20711(8) 0.07444(14) 0.11533(13)
O13 O 0.29993(8) 0.28114(15) 0.15457(13)
O14 O 0.35826(9) 0.07085(15) 0.02029(14)
C1 C 0.03207(10) 0.04644(19) 0.13028(16)
C2 C 0.10409(10) 0.0471(2) 0.13152(16)
C3 C 0.13954(11) -0.06959(18) 0.12868(17)
C4 C 0.10273(10) -0.18491(19) 0.11937(16)
C5 C 0.03120(10) -0.18620(19) 0.12177(16)
C6 C -0.00275(11) -0.07007(19) 0.12961(16)
H1 H -0.046(2) -0.073(3) 0.135(3)
C7 C -0.01067(11) 0.1666(2) 0.13071(16)
C8 C 0.14360(10) 0.1701(2) 0.12063(18)
C9 C 0.21758(11) -0.07328(19) 0.13901(16)
C10 C 0.13779(10) -0.30738(19) 0.09759(17)
C11 C -0.01061(10) -0.30823(19) 0.12258(16)
H2 H 0.4191(18) -0.092(3) 0.2516(17)
H3 H 0.3064(16) 0.310(3) 0.0906(17)
H4 H -0.2468(12) 0.075(3) 0.148(3)
H5 H -0.1822(14) 0.003(2) 0.134(3)
H6 H 0.2531(10) 0.280(3) 0.159(2)
H7 H 0.3534(17) 0.1534(19) -0.008(2)
H8 H 0.3242(15) 0.018(3) -0.011(2)
Co1C Co 0.152746(14) -0.40303(3) 0.32151(2)
Co1A Co -0.152746(14) -0.40303(3) 0.17849(2)
Co2D Co 0.050900(15) -0.42671(3) -0.06599(2)
Co2_2 Co -0.050900(15) -0.57329(3) 0.06599(2)
Co2A Co 0.449100(15) -0.07329(3) 0.06599(2)
Co3B Co 0.157440(14) 0.25578(3) 0.35146(2)
Co3A Co 0.342560(14) -0.24422(3) 0.14854(2)
Co3D Co 0.157440(14) -0.25578(3) -0.14854(2)
O3B O -0.16427(8) 0.24111(14) 0.30417(13)
O6A O -0.25551(7) 0.32190(14) 0.12095(12)
O7D O -0.13974(7) 0.32833(14) -0.00252(12)
O8C O 0.34194(8) 0.11259(14) 0.33513(12)
O9_2 O 0.00904(8) 0.58980(14) 0.07831(12)
O9D O -0.00904(8) 0.41020(14) -0.07831(12)
O10A O 0.43832(7) 0.19735(14) 0.16959(12)
O11A O -0.10207(8) 0.42486(13) 0.18918(12)
H2A H -0.0809(18) 0.408(3) 0.2516(17)
loop_
_geom_bond_atom_site_label_1
_geom_bond_atom_site_label_2
_geom_bond_site_symmetry_1
_geom_bond_site_symmetry_2
Co1 O5 1_555 1_555
Co2 O2 1_555 1_555
Co3 O1 1_555 1_555
O1 C7 1_555 1_555
O2 C7 1_555 1_555
O3 C8 1_555 1_555
O4 C8 1_555 1_555
O5 C9 1_555 1_555
O6 C9 1_555 1_555
O7 C10 1_555 1_555
O8 C10 1_555 1_555
O9 C11 1_555 1_555
O10 C11 1_555 1_555
O11 Co1 1_555 1_555
O12 Co3 1_555 1_555
O13 Co1 1_555 1_555
O14 Co1 1_555 1_555
C1 C2 1_555 1_555
C2 C3 1_555 1_555
C3 C4 1_555 1_555
C4 C5 1_555 1_555
C5 C6 1_555 1_555
C6 C1 1_555 1_555
H1 C6 1_555 1_555
C7 C1 1_555 1_555
C8 C2 1_555 1_555
C9 C3 1_555 1_555
C10 C4 1_555 1_555
C11 C5 1_555 1_555
H2 O11 1_555 1_555
H3 O13 1_555 1_555
H4 O12 1_555 1_555
H5 O12 1_555 1_555
H6 O13 1_555 1_555
H7 O14 1_555 1_555
H8 O14 1_555 1_555
Co1C O8 1_555 1_555
Co1A O10 1_555 1_555
Co2D O7 1_555 1_555
Co2_2 O9 1_555 1_555
Co2A O11 1_555 1_555
Co3B O3 1_555 1_555
Co3A O6 1_555 1_555
Co3D O7 1_555 1_555
O3B Co3 1_555 1_555
O6A Co3 1_555 1_555
O7D Co2 1_555 1_555
O8C Co1 1_555 1_555
O9_2 Co2 1_555 1_555
O9D Co2 1_555 1_555
O10A Co1 1_555 1_555
O11A Co2 1_555 1_555
H2A O11A 1_555 1_555
Co3 O7D 1_555 1_555
Co3 O11A 1_555 1_555
O9 Co2D 1_555 1_555
O11 Co3A 1_555 1_555

#END
