
#######################################################################
#
#                 Cambridge Crystallographic Data Centre
#                                CCDC 
#
#######################################################################
#
# If this CIF has been generated from an entry in the Cambridge 
# Structural Database, then it will include bibliographic, chemical, 
# crystal, experimental, refinement or atomic coordinate data resulting 
# from the CCDC's data processing and validation procedures.
#
#######################################################################

data_WIYZAG
_symmetry_cell_setting           triclinic
_symmetry_space_group_name_H-M   'P -1'
_symmetry_Int_Tables_number      2
_space_group_name_Hall           '-P 1'
loop_
_symmetry_equiv_pos_site_id
_symmetry_equiv_pos_as_xyz
1 x,y,z
2 -x,-y,-z
_cell_length_a                   10.8679(8)
_cell_length_b                   12.3310(11)
_cell_length_c                   14.1256(6)
_cell_angle_alpha                109.200(7)
_cell_angle_beta                 93.222(5)
_cell_angle_gamma                115.428(7)
_cell_volume                     1570.68
loop_
_atom_site_label
_atom_site_type_symbol
_atom_site_fract_x
_atom_site_fract_y
_atom_site_fract_z
Gd1 Gd 0.97606(5) 0.97510(5) 0.74126(4)
O1 O 1.0351(7) 1.2000(7) 0.8077(5)
N1 N 1.0981(9) 0.9619(8) 0.5783(7)
C1 C 1.1900(12) 0.9146(12) 0.5676(9)
H1 H 1.2318 0.9105 0.6247
O2 O 1.2259(7) 1.1042(7) 0.7906(5)
N2 N 1.0996(9) 0.9627(8) 0.9088(6)
C2 C 1.2239(11) 0.8722(10) 0.4747(9)
H2 H 1.2862 0.8383 0.4678
N3 N 1.0775(9) 0.9362(8) 0.4018(6)
C3 C 1.1613(12) 0.8823(11) 0.3920(9)
H3 H 1.1785 0.8503 0.3276
O3 O 0.7471(7) 0.9608(7) 0.7269(6)
O4 O 0.8241(7) 0.8034(7) 0.7913(6)
N4 N 1.0755(9) 0.9347(8) 1.0669(6)
C4 C 1.0480(10) 0.9722(10) 0.4942(8)
O5 O 1.0270(7) 0.7953(7) 0.6930(6)
C5 C 1.1890(11) 0.9138(11) 0.9002(9)
H4 H 1.2304 0.9093 0.8441
O6 O 0.8173(8) 0.8053(7) 0.5808(5)
C6 C 1.2221(12) 0.8704(11) 0.9700(9)
H5 H 1.2846 0.8368 0.9626
C7 C 1.1586(12) 0.8785(11) 1.0524(9)
H6 H 1.1737 0.8443 1.0988
C8 C 1.0484(10) 0.9709(9) 0.9946(8)
C9 C 1.2807(12) 1.3274(10) 0.8596(9)
H7 H 1.3536 1.4126 0.8887
C10 C 1.3132(10) 1.2235(10) 0.8328(8)
C11 C 1.4643(12) 1.2544(12) 0.8538(11)
F1 F 1.5536(8) 1.3792(7) 0.9084(7)
F2 F 1.4830(8) 1.1867(9) 0.9029(8)
F3 F 1.5027(9) 1.2207(10) 0.7646(8)
C12 C 1.1447(12) 1.3073(10) 0.8445(8)
C13 C 0.6981(12) 0.7522(10) 0.7932(8)
C14 C 0.6561(14) 0.6432(13) 0.8341(10)
C15 C 0.6297(12) 0.8805(11) 0.7277(9)
C16 C 0.5060(14) 0.8936(14) 0.6870(12)
C17 C 0.7820(13) 0.6893(11) 0.5350(9)
C18 C 0.9531(14) 0.6777(12) 0.6386(10)
C19 C 1.0101(18) 0.5923(13) 0.6644(12)
F4 F 0.9414(11) 0.4681(8) 0.6043(8)
F5 F 0.9991(15) 0.6005(11) 0.7604(8)
F6 F 1.1401(12) 0.6306(10) 0.6606(11)
C20 C 0.5965(13) 0.7814(12) 0.7620(10)
H8 H 0.5043 0.7329 0.7643
C21 C 0.8371(15) 0.6167(12) 0.5603(11)
H9 H 0.7950 0.5268 0.5239
F7 F 0.6536(13) 0.5391(9) 0.7681(8)
F8 F 0.7452(11) 0.6785(10) 0.9172(7)
F9 F 0.5335(10) 0.6077(11) 0.8562(10)
F10 F 1.2290(11) 1.5350(8) 0.8895(10)
F11 F 0.5412(10) 0.9897(13) 0.6577(12)
F12 F 0.4295(11) 0.9091(14) 0.7546(9)
F13 F 0.4172(12) 0.7910(12) 0.6071(9)
F14 F 0.7017(13) 0.6770(13) 0.3735(8)
F15 F 0.6225(18) 0.4998(10) 0.3898(11)
F16 F 1.0983(19) 1.4495(14) 0.9698(13)
C22 C 1.1214(17) 1.4257(15) 0.8743(13)
F17 F 1.0148(15) 1.4082(9) 0.8246(14)
C23 C 0.6669(16) 0.6219(15) 0.4370(12)
F18 F 0.5552(11) 0.6306(14) 0.4560(9)
Gd1A Gd 1.02394(5) 1.02490(5) 0.25874(4)
Gd1A_2 Gd 1.02394(5) 1.02490(5) 1.25874(4)
O1A O 0.9649(7) 0.8000(7) 0.1923(5)
N1A N 0.9019(9) 1.0381(8) 0.4217(7)
C1A C 0.8100(12) 1.0854(12) 0.4324(9)
H1A H 0.7682 1.0895 0.3753
O2A O 0.7741(7) 0.8958(7) 0.2094(5)
N2A N 0.9004(9) 1.0373(8) 1.0912(6)
N2A_2 N 0.9004(9) 1.0373(8) 0.0912(6)
C2A C 0.7761(11) 1.1278(10) 0.5253(9)
H2A H 0.7138 1.1617 0.5322
N3A N 0.9225(9) 1.0638(8) 0.5982(6)
C3A C 0.8387(12) 1.1177(11) 0.6080(9)
H3A H 0.8215 1.1497 0.6724
O3A O 1.2529(7) 1.0392(7) 0.2731(6)
O4A O 1.1759(7) 1.1966(7) 0.2087(6)
N4A N 0.9245(9) 1.0653(8) 0.9331(6)
N4_2 N 1.0755(9) 0.9347(8) 0.0669(6)
C4A C 0.9520(10) 1.0278(10) 0.5058(8)
O5A O 0.9730(7) 1.2047(7) 0.3070(6)
C5A C 0.8110(11) 1.0862(11) 1.0998(9)
H4A H 0.7696 1.0907 1.1559
O6A O 1.1827(8) 1.1947(7) 0.4192(5)
C6A C 0.7779(12) 1.1296(11) 1.0300(9)
H5A H 0.7154 1.1632 1.0374
C7A C 0.8414(12) 1.1215(11) 0.9476(9)
H6A H 0.8263 1.1557 0.9012
C8A C 0.9516(10) 1.0291(9) 1.0054(8)
C9A C 0.7193(12) 0.6726(10) 0.1404(9)
H7A H 0.6464 0.5874 0.1113
C10A C 0.6868(10) 0.7765(10) 0.1672(8)
C11A C 0.5357(12) 0.7456(12) 0.1462(11)
F1A F 0.4464(8) 0.6208(7) 0.0916(7)
F2A F 0.5170(8) 0.8133(9) 0.0971(8)
F3A F 0.4973(9) 0.7793(10) 0.2354(8)
C12A C 0.8553(12) 0.6927(10) 0.1555(8)
C13A C 1.3019(12) 1.2478(10) 0.2068(8)
C14A C 1.3439(14) 1.3568(13) 0.1659(10)
C15A C 1.3703(12) 1.1195(11) 0.2723(9)
C16A C 1.4940(14) 1.1064(14) 0.3130(12)
C17A C 1.2180(13) 1.3107(11) 0.4650(9)
C18A C 1.0469(14) 1.3223(12) 0.3614(10)
C19A C 0.9899(18) 1.4077(13) 0.3356(12)
F4A F 1.0586(11) 1.5319(8) 0.3957(8)
F5A F 1.0009(15) 1.3995(11) 0.2396(8)
F6A F 0.8599(12) 1.3694(10) 0.3394(11)
C20A C 1.4035(13) 1.2186(12) 0.2380(10)
H8A H 1.4957 1.2671 0.2357
C21A C 1.1629(15) 1.3833(12) 0.4397(11)
H9A H 1.2050 1.4732 0.4761
F7A F 1.3464(13) 1.4609(9) 0.2319(8)
F8A F 1.2548(11) 1.3215(10) 0.0828(7)
F9A F 1.4665(10) 1.3923(11) 0.1438(10)
F10A F 0.7710(11) 0.4650(8) 0.1105(10)
F11A F 1.4588(10) 1.0103(13) 0.3423(12)
F12A F 1.5705(11) 1.0909(14) 0.2454(9)
F13A F 1.5828(12) 1.2090(12) 0.3929(9)
F14A F 1.2983(13) 1.3230(13) 0.6265(8)
F15A F 1.3775(18) 1.5002(10) 0.6102(11)
F16A F 0.9017(19) 0.5505(14) 0.0302(13)
C22A C 0.8786(17) 0.5743(15) 0.1257(13)
F17A F 0.9852(15) 0.5918(9) 0.1754(14)
C23A C 1.3331(16) 1.3781(15) 0.5630(12)
F18A F 1.4448(11) 1.3694(14) 0.5440(9)
loop_
_geom_bond_atom_site_label_1
_geom_bond_atom_site_label_2
_geom_bond_site_symmetry_1
_geom_bond_site_symmetry_2
Gd1 O1 1_555 1_555
O1 C12 1_555 1_555
N1 Gd1 1_555 1_555
C1 N1 1_555 1_555
H1 C1 1_555 1_555
O2 Gd1 1_555 1_555
N2 Gd1 1_555 1_555
C2 C1 1_555 1_555
H2 C2 1_555 1_555
N3 C3 1_555 1_555
C3 C2 1_555 1_555
H3 C3 1_555 1_555
O3 Gd1 1_555 1_555
O4 Gd1 1_555 1_555
N4 C7 1_555 1_555
C4 N1 1_555 1_555
O5 Gd1 1_555 1_555
C5 N2 1_555 1_555
H4 C5 1_555 1_555
O6 Gd1 1_555 1_555
C6 C5 1_555 1_555
H5 C6 1_555 1_555
C7 C6 1_555 1_555
H6 C7 1_555 1_555
C8 N2 1_555 1_555
C9 H7 1_555 1_555
C10 O2 1_555 1_555
C11 C10 1_555 1_555
F1 C11 1_555 1_555
F2 C11 1_555 1_555
F3 C11 1_555 1_555
C12 C9 1_555 1_555
C13 O4 1_555 1_555
C14 C13 1_555 1_555
C15 O3 1_555 1_555
C16 C15 1_555 1_555
C17 O6 1_555 1_555
C18 O5 1_555 1_555
C19 C18 1_555 1_555
F4 C19 1_555 1_555
F5 C19 1_555 1_555
F6 C19 1_555 1_555
C20 C13 1_555 1_555
H8 C20 1_555 1_555
C21 C17 1_555 1_555
H9 C21 1_555 1_555
F7 C14 1_555 1_555
F8 C14 1_555 1_555
F9 C14 1_555 1_555
F10 C22 1_555 1_555
F11 C16 1_555 1_555
F12 C16 1_555 1_555
F13 C16 1_555 1_555
F14 C23 1_555 1_555
F15 C23 1_555 1_555
F16 C22 1_555 1_555
C22 C12 1_555 1_555
F17 C22 1_555 1_555
C23 C17 1_555 1_555
F18 C23 1_555 1_555
Gd1A N3 1_555 1_555
Gd1A_2 N4 1_555 1_555
O1A Gd1A 1_555 1_555
N1A Gd1A 1_555 1_555
C1A N1A 1_555 1_555
H1A C1A 1_555 1_555
O2A Gd1A 1_555 1_555
N2A Gd1A_2 1_555 1_555
N2A_2 Gd1A 1_555 1_555
C2A C1A 1_555 1_555
H2A C2A 1_555 1_555
N3A Gd1 1_555 1_555
C3A C2A 1_555 1_555
H3A C3A 1_555 1_555
O3A Gd1A 1_555 1_555
O4A Gd1A 1_555 1_555
N4A Gd1 1_555 1_555
N4_2 Gd1A 1_555 1_555
C4A C4 1_555 1_555
O5A Gd1A 1_555 1_555
C5A N2A 1_555 1_555
H4A C5A 1_555 1_555
O6A Gd1A 1_555 1_555
C6A C5A 1_555 1_555
H5A C6A 1_555 1_555
C7A N4A 1_555 1_555
H6A C7A 1_555 1_555
C8A C8 1_555 1_555
C9A H7A 1_555 1_555
C10A O2A 1_555 1_555
C11A C10A 1_555 1_555
F1A C11A 1_555 1_555
F2A C11A 1_555 1_555
F3A C11A 1_555 1_555
C12A O1A 1_555 1_555
C13A O4A 1_555 1_555
C14A C13A 1_555 1_555
C15A O3A 1_555 1_555
C16A C15A 1_555 1_555
C17A O6A 1_555 1_555
C18A O5A 1_555 1_555
C19A C18A 1_555 1_555
F4A C19A 1_555 1_555
F5A C19A 1_555 1_555
F6A C19A 1_555 1_555
C20A C13A 1_555 1_555
H8A C20A 1_555 1_555
C21A C17A 1_555 1_555
H9A C21A 1_555 1_555
F7A C14A 1_555 1_555
F8A C14A 1_555 1_555
F9A C14A 1_555 1_555
F10A C22A 1_555 1_555
F11A C16A 1_555 1_555
F12A C16A 1_555 1_555
F13A C16A 1_555 1_555
F14A C23A 1_555 1_555
F15A C23A 1_555 1_555
F16A C22A 1_555 1_555
C22A C12A 1_555 1_555
F17A C22A 1_555 1_555
C23A C17A 1_555 1_555
F18A C23A 1_555 1_555
N3 C4 1_555 1_555
N4 C8 1_555 1_555
C9 C10 1_555 1_555
C15 C20 1_555 1_555
C18 C21 1_555 1_555
N1A C4A 1_555 1_555
N2A C8A 1_555 1_555
N3A C3A 1_555 1_555
N3A C4A 1_555 1_555
N4A C8A 1_555 1_555
C6A C7A 1_555 1_555
C9A C10A 1_555 1_555
C9A C12A 1_555 1_555
C15A C20A 1_555 1_555
C18A C21A 1_555 1_555

#END
