
#######################################################################
#
#                 Cambridge Crystallographic Data Centre
#                                CCDC 
#
#######################################################################
#
# If this CIF has been generated from an entry in the Cambridge 
# Structural Database, then it will include bibliographic, chemical, 
# crystal, experimental, refinement or atomic coordinate data resulting 
# from the CCDC's data processing and validation procedures.
#
#######################################################################

data_WIZBIS
_symmetry_cell_setting           monoclinic
_symmetry_space_group_name_H-M   'P 21/n'
_symmetry_Int_Tables_number      14
_space_group_name_Hall           '-P 2yn'
loop_
_symmetry_equiv_pos_site_id
_symmetry_equiv_pos_as_xyz
1 x,y,z
2 1/2-x,1/2+y,1/2-z
3 -x,-y,-z
4 1/2+x,1/2-y,1/2+z
_cell_length_a                   13.8199(9)
_cell_length_b                   21.6929(14)
_cell_length_c                   22.2654(15)
_cell_angle_alpha                90
_cell_angle_beta                 94.8920(10)
_cell_angle_gamma                90
_cell_volume                     6650.71
loop_
_atom_site_label
_atom_site_type_symbol
_atom_site_fract_x
_atom_site_fract_y
_atom_site_fract_z
Si1 Si 0.9911(3) -0.1345(2) 0.26151(17)
O1 O 0.8898(6) -0.1367(5) 0.2949(4)
N1 N 1.3357(8) 0.0222(6) 0.4885(5)
W1 W 1.01219(4) 0.02596(3) 0.28534(3)
O2 O 1.4056(7) 0.0760(5) 0.1530(4)
C1 C 1.3480(9) -0.0019(8) 0.0230(6)
H1 H 1.3435 -0.0296 0.0545
W2 W 1.11848(4) -0.08863(3) 0.39614(3)
Cu1 Cu 1.26925(12) -0.03776(9) 0.53878(8)
C2 C 1.3311(10) 0.0963(8) -0.0129(7)
H2 H 1.3144 0.1374 -0.0074
O3 O 0.9884(6) -0.1872(4) 0.2088(3)
N2 N 1.3596(8) -0.0973(6) 0.5030(5)
Cu2 Cu 1.27582(13) 0.08849(9) 0.10816(8)
N3 N 1.7221(8) -0.4041(6) 0.0975(5)
W3 W 1.10394(4) -0.23966(3) 0.36759(3)
C3 C 1.3640(12) 0.0795(8) -0.0677(7)
H3 H 1.3694 0.1085 -0.0980
O4 O 1.0044(6) -0.0678(5) 0.2308(4)
N4 N 1.3222(9) 0.0577(6) 0.0315(5)
W4 W 0.97072(4) -0.29288(3) 0.22572(3)
C4 C 1.3877(11) 0.0208(10) -0.0758(7)
H4 H 1.4093 0.0089 -0.1125
O5 O 1.0821(6) -0.1477(5) 0.3123(4)
W5 W 0.89224(4) -0.02330(3) 0.15734(3)
C5 C 1.3810(10) -0.0236(8) -0.0307(6)
N5 N 1.1400(9) 0.1042(6) 0.0697(5)
O6 O 1.0763(6) -0.2834(5) 0.1744(4)
C6 C 1.4109(11) -0.0878(9) -0.0415(7)
W6 W 0.87351(4) -0.19089(3) 0.12442(3)
N6 N 1.2242(9) 0.1308(6) 0.1772(5)
O7 O 1.1213(6) -0.1165(5) 0.1418(4)
W7 W 1.24656(4) -0.14966(3) 0.28974(3)
O8 O 1.1144(6) 0.0280(5) 0.2338(4)
C7 C 1.4526(12) -0.1885(8) 0.0022(8)
H5 H 1.5192 -0.1834 0.0190
H6 H 1.4544 -0.2011 -0.0395
N7 N 1.4046(9) -0.1299(6) 0.0033(6)
H7 H 1.3711 -0.1211 0.0330
N8 N 1.4809(9) -0.2859(7) 0.0574(6)
H8 H 1.4836 -0.3214 0.0406
W8 W 1.11571(4) -0.20511(3) 0.14698(3)
O9 O 1.2385(6) -0.1003(5) 0.3615(4)
C8 C 1.4065(10) -0.2395(8) 0.0359(8)
H9 H 1.3767 -0.2223 0.0701
H10 H 1.3561 -0.2592 0.0097
W9 W 0.83557(4) -0.22391(3) 0.34500(3)
O10 O 1.1246(6) -0.1723(5) 0.4240(4)
C9 C 1.0963(13) 0.0818(9) 0.0194(7)
H11 H 1.1305 0.0569 -0.0054
W10 W 1.13559(4) -0.03816(3) 0.17868(3)
C10 C 0.9981(13) 0.0955(11) 0.0033(9)
H12 H 0.9686 0.0804 -0.0329
O11 O 0.9672(6) -0.2298(5) 0.3765(4)
W11 W 1.14810(4) 0.07234(3) 0.62985(3)
O12 O 0.8751(6) -0.2698(5) 0.2773(4)
C11 C 0.9458(12) 0.1301(10) 0.0392(9)
H13 H 0.8807 0.1385 0.0283
C12 C 0.9911(11) 0.1529(9) 0.0930(8)
W12 W 1.26667(4) 0.12331(3) 0.75754(3)
O13 O 1.2111(6) -0.0794(5) 0.2419(4)
C13 C 1.0865(10) 0.1371(8) 0.1064(7)
O14 O 1.0931(6) -0.0215(4) 0.3439(4)
O15 O 1.1987(6) -0.1962(5) 0.2201(4)
C14 C 0.9408(13) 0.1903(9) 0.1336(9)
H14 H 0.8774 0.2031 0.1229
O16 O 0.9991(7) -0.2027(5) 0.0950(4)
C15 C 0.9867(13) 0.2070(9) 0.1881(9)
H15 H 0.9536 0.2312 0.2141
C16 C 1.0809(13) 0.1889(8) 0.2056(9)
O17 O 1.0638(6) -0.2790(5) 0.2937(4)
O18 O 0.8919(6) -0.1046(5) 0.1216(4)
C17 C 1.1332(11) 0.1552(8) 0.1636(7)
C18 C 1.1280(15) 0.1962(8) 0.2626(9)
H16 H 1.0980 0.2188 0.2913
O19 O 1.0208(6) -0.0103(5) 0.1317(4)
C19 C 1.2183(12) 0.1708(8) 0.2778(7)
H17 H 1.2476 0.1750 0.3168
O20 O 0.9218(6) 0.0390(5) 0.2158(4)
O21 O 1.2259(6) -0.2206(5) 0.3380(4)
C20 C 1.2664(12) 0.1383(8) 0.2337(7)
H18 H 1.3279 0.1220 0.2439
C21 C 1.7542(10) -0.4070(8) 0.1562(6)
H19 H 1.7999 -0.4370 0.1682
O22 O 0.8837(7) -0.2733(5) 0.1568(4)
O23 O 0.7824(7) -0.2788(5) 0.3849(4)
C22 C 1.7240(11) -0.3689(9) 0.1990(7)
H20 H 1.7451 -0.3744 0.2394
C23 C 1.6596(11) -0.3207(8) 0.1806(8)
H21 H 1.6436 -0.2911 0.2083
O24 O 0.7249(6) -0.1941(5) 0.2927(4)
O25 O 0.8010(7) -0.2038(5) 0.0604(4)
C24 C 1.6203(11) -0.3175(8) 0.1217(8)
C25 C 1.6559(11) -0.3585(8) 0.0812(7)
H22 H 1.6336 -0.3550 0.0407
O26 O 1.1959(7) -0.2273(5) 0.0979(4)
O27 O 1.3687(7) -0.1534(6) 0.2856(4)
C26 C 1.5436(13) -0.2699(9) 0.1042(8)
O28 O 1.1374(6) -0.3015(4) 0.4118(4)
C27 C 1.3189(12) 0.0825(9) 0.4805(8)
H23 H 1.2757 0.1017 0.5044
O29 O 0.9619(7) -0.3706(5) 0.2254(4)
C28 C 1.3610(13) 0.1170(10) 0.4398(8)
H24 H 1.3475 0.1590 0.4365
C29 C 1.4247(13) 0.0900(9) 0.4027(8)
H25 H 1.4560 0.1135 0.3753
O30 O 0.9806(6) -0.0896(5) 0.4030(4)
C30 C 1.4405(11) 0.0271(9) 0.4075(6)
O31 O 0.7950(6) -0.0562(5) 0.2044(4)
O32 O 1.2243(6) -0.0058(5) 0.1397(4)
C31 C 1.3953(10) -0.0052(8) 0.4515(6)
C32 C 1.5033(12) -0.0087(12) 0.3716(7)
H26 H 1.5362 0.0110 0.3423
O33 O 1.0214(7) 0.0960(5) 0.3175(4)
O34 O 0.8268(7) 0.0189(5) 0.1031(4)
C33 C 1.5146(13) -0.0696(11) 0.3799(7)
H27 H 1.5555 -0.0904 0.3558
C34 C 1.4689(11) -0.1033(10) 0.4222(6)
O35 O 1.1940(7) 0.0281(5) 0.5732(4)
O36 O 1.1817(6) 0.1529(5) 0.6040(4)
C35 C 1.4089(10) -0.0703(7) 0.4591(6)
O37 O 1.2616(6) 0.0728(5) 0.6851(4)
C36 C 1.4750(14) -0.1663(10) 0.4325(10)
H28 H 1.5138 -0.1901 0.4094
O38 O 1.3858(7) 0.1121(5) 0.7822(4)
C37 C 1.4258(14) -0.1944(9) 0.4754(9)
H29 H 1.4302 -0.2368 0.4813
O39 O 1.5421(9) -0.2226(6) 0.1319(6)
C38 C 1.3691(12) -0.1586(8) 0.5100(8)
H30 H 1.3361 -0.1779 0.5395
O40 O 1.4441(8) -0.1028(6) -0.0890(5)
O41 O 0.9059(7) -0.0104(5) 0.3249(4)
O42 O 0.7808(6) -0.1734(5) 0.1817(4)
O43 O 1.1556(7) -0.0519(5) 0.4620(4)
O1B O 1.1102(6) 0.1367(5) 0.7051(4)
Cu1C Cu 1.76925(12) -0.46224(9) 0.03878(8)
Cu2A Cu 1.22418(13) -0.41151(9) 0.39184(8)
N3C N 1.2221(8) -0.0959(6) 0.5975(5)
W9B W 1.16443(4) 0.22391(3) 0.65500(3)
W11B W 0.85190(4) -0.07234(3) 0.37015(3)
W12B W 0.73333(4) -0.12331(3) 0.24246(3)
O24B O 1.2751(6) 0.1941(5) 0.7073(4)
O28A O 1.3626(6) 0.1985(4) 0.0882(4)
O30B O 1.0194(6) 0.0896(5) 0.5970(4)
O31B O 1.2050(6) 0.0562(5) 0.7956(4)
O36B O 0.8183(6) -0.1529(5) 0.3960(4)
O41B O 1.0941(7) 0.0104(5) 0.6751(4)
O42B O 1.2192(6) 0.1734(5) 0.8183(4)
O44 O 0.9456(12) 0.5256(8) 0.7160(7)
O45 O 0.8996(10) 0.6256(7) 0.6367(6)
O46 O 1.4410(12) -0.4179(8) 0.0429(7)
loop_
_geom_bond_atom_site_label_1
_geom_bond_atom_site_label_2
_geom_bond_site_symmetry_1
_geom_bond_site_symmetry_2
Si1 O1 1_555 1_555
O1 W9 1_555 1_555
N1 Cu1 1_555 1_555
W1 O4 1_555 1_555
O2 Cu2 1_555 1_555
C1 H1 1_555 1_555
W2 O5 1_555 1_555
Cu1 N2 1_555 1_555
C2 H2 1_555 1_555
O3 Si1 1_555 1_555
N2 C35 1_555 1_555
Cu2 N4 1_555 1_555
N3 C21 1_555 1_555
W3 O5 1_555 1_555
C3 C2 1_555 1_555
H3 C3 1_555 1_555
O4 Si1 1_555 1_555
N4 C1 1_555 1_555
W4 O3 1_555 1_555
C4 C3 1_555 1_555
H4 C4 1_555 1_555
O5 Si1 1_555 1_555
W5 O4 1_555 1_555
C5 C1 1_555 1_555
N5 Cu2 1_555 1_555
O6 W4 1_555 1_555
C6 C5 1_555 1_555
W6 O3 1_555 1_555
N6 Cu2 1_555 1_555
O7 W8 1_555 1_555
W7 O5 1_555 1_555
O8 W1 1_555 1_555
C7 H5 1_555 1_555
H6 C7 1_555 1_555
N7 C6 1_555 1_555
H7 N7 1_555 1_555
N8 H8 1_555 1_555
W8 O3 1_555 1_555
O9 W2 1_555 1_555
C8 C7 1_555 1_555
H9 C8 1_555 1_555
H10 C8 1_555 1_555
W9 O11 1_555 1_555
O10 W2 1_555 1_555
C9 N5 1_555 1_555
H11 C9 1_555 1_555
W10 O4 1_555 1_555
C10 C9 1_555 1_555
H12 C10 1_555 1_555
O11 W3 1_555 1_555
W11 O35 1_555 1_555
O12 W4 1_555 1_555
C11 C10 1_555 1_555
H13 C11 1_555 1_555
C12 C11 1_555 1_555
W12 O37 1_555 1_555
O13 W7 1_555 1_555
C13 N5 1_555 1_555
O14 W1 1_555 1_555
O15 W7 1_555 1_555
C14 C12 1_555 1_555
H14 C14 1_555 1_555
O16 W6 1_555 1_555
C15 C14 1_555 1_555
H15 C15 1_555 1_555
C16 C15 1_555 1_555
O17 W3 1_555 1_555
O18 W5 1_555 1_555
C17 N6 1_555 1_555
C18 C16 1_555 1_555
H16 C18 1_555 1_555
O19 W5 1_555 1_555
C19 C18 1_555 1_555
H17 C19 1_555 1_555
O20 W1 1_555 1_555
O21 W3 1_555 1_555
C20 N6 1_555 1_555
H18 C20 1_555 1_555
C21 H19 1_555 1_555
O22 W4 1_555 1_555
O23 W9 1_555 1_555
C22 C21 1_555 1_555
H20 C22 1_555 1_555
C23 C22 1_555 1_555
H21 C23 1_555 1_555
O24 W9 1_555 1_555
O25 W6 1_555 1_555
C24 C23 1_555 1_555
C25 N3 1_555 1_555
H22 C25 1_555 1_555
O26 W8 1_555 1_555
O27 W7 1_555 1_555
C26 N8 1_555 1_555
O28 W3 1_555 1_555
C27 N1 1_555 1_555
H23 C27 1_555 1_555
O29 W4 1_555 1_555
C28 C27 1_555 1_555
H24 C28 1_555 1_555
C29 C28 1_555 1_555
H25 C29 1_555 1_555
O30 W2 1_555 1_555
C30 C29 1_555 1_555
O31 W5 1_555 1_555
O32 Cu2 1_555 1_555
C31 N1 1_555 1_555
C32 C30 1_555 1_555
H26 C32 1_555 1_555
O33 W1 1_555 1_555
O34 W5 1_555 1_555
C33 C32 1_555 1_555
H27 C33 1_555 1_555
C34 C33 1_555 1_555
O35 Cu1 1_555 1_555
O36 W11 1_555 1_555
C35 C31 1_555 1_555
O37 W11 1_555 1_555
C36 C34 1_555 1_555
H28 C36 1_555 1_555
O38 W12 1_555 1_555
C37 C36 1_555 1_555
H29 C37 1_555 1_555
O39 C26 1_555 1_555
C38 N2 1_555 1_555
H30 C38 1_555 1_555
O40 C6 1_555 1_555
O41 W1 1_555 1_555
O42 W6 1_555 1_555
O43 W2 1_555 1_555
O1B W11 1_555 1_555
Cu1C N3 1_555 1_555
Cu2A O28 1_555 1_555
N3C Cu1 1_555 1_555
W9B O36 1_555 1_555
W11B O1 1_555 1_555
W12B O1 1_555 1_555
O24B W12 1_555 1_555
O28A Cu2 1_555 1_555
O30B W11 1_555 1_555
O31B W12 1_555 1_555
O36B W9 1_555 1_555
O41B W11 1_555 1_555
O42B W12 1_555 1_555
W2 O14 1_555 1_555
Cu1 O43 1_555 1_555
C2 N4 1_555 1_555
W3 O10 1_555 1_555
W4 O17 1_555 1_555
C4 C5 1_555 1_555
W5 O20 1_555 1_555
O6 W8 1_555 1_555
W6 O18 1_555 1_555
W6 O22 1_555 1_555
O7 W10 1_555 1_555
W7 O9 1_555 1_555
W7 O21 1_555 1_555
O8 W10 1_555 1_555
C7 N7 1_555 1_555
N8 C8 1_555 1_555
W8 O15 1_555 1_555
W8 O16 1_555 1_555
W9 O12 1_555 1_555
W10 O13 1_555 1_555
W10 O19 1_555 1_555
W10 O32 1_555 1_555
C12 C13 1_555 1_555
W12 O1B 1_555 1_555
C13 C17 1_555 1_555
C16 C17 1_555 1_555
C19 C20 1_555 1_555
O24 W12B 1_555 1_555
C24 C25 1_555 1_555
C24 C26 1_555 1_555
O30 W11B 1_555 1_555
C30 C31 1_555 1_555
O31 W12B 1_555 1_555
C34 C35 1_555 1_555
C37 C38 1_555 1_555
O41 W11B 1_555 1_555
O42 W12B 1_555 1_555
O1B W9B 1_555 1_555
W9B O24B 1_555 1_555
W11B O36B 1_555 1_555

#END
