
#######################################################################
#
#                 Cambridge Crystallographic Data Centre
#                                CCDC 
#
#######################################################################
#
# If this CIF has been generated from an entry in the Cambridge 
# Structural Database, then it will include bibliographic, chemical, 
# crystal, experimental, refinement or atomic coordinate data resulting 
# from the CCDC's data processing and validation procedures.
#
#######################################################################

data_WIZDUG
_symmetry_cell_setting           monoclinic
_symmetry_space_group_name_H-M   'P 21/c'
_symmetry_Int_Tables_number      14
_space_group_name_Hall           '-P 2ybc'
loop_
_symmetry_equiv_pos_site_id
_symmetry_equiv_pos_as_xyz
1 x,y,z
2 -x,1/2+y,1/2-z
3 -x,-y,-z
4 x,1/2-y,1/2+z
_cell_length_a                   3.694(4)
_cell_length_b                   8.184(9)
_cell_length_c                   23.62(3)
_cell_angle_alpha                90
_cell_angle_beta                 94.49
_cell_angle_gamma                90
_cell_volume                     711.881
loop_
_atom_site_label
_atom_site_type_symbol
_atom_site_fract_x
_atom_site_fract_y
_atom_site_fract_z
Cd1 Cd 1.0000 0.5000 0.5000
Cl1 Cl 1.482(2) 0.7202(10) 0.4774(3)
N1 N 0.646(8) 0.472(3) 0.3154(10)
C1 C 0.780(16) 0.497(6) 0.370(2)
H1 H 0.7540 0.6046 0.3812
N2 N 0.931(8) 0.409(4) 0.4078(12)
N3 N 0.478(10) 0.289(3) 0.2473(12)
H2 H 0.3802 0.3651 0.2260
H3 H 0.4733 0.1896 0.2356
N4 N 1.091(10) 0.123(3) 0.4154(12)
C2 C 0.636(9) 0.326(4) 0.2974(14)
C3 C 0.996(11) 0.002(5) 0.3818(17)
H4 H 1.0275 -0.1061 0.3930
N5 N 0.848(8) 0.043(3) 0.3301(13)
H5 H 0.7936 -0.0176 0.3010
C4 C 0.809(10) 0.198(4) 0.3358(12)
C5 C 0.940(9) 0.254(4) 0.3881(14)
Cl1B Cl 0.518(2) 0.2798(10) 0.5226(3)
N1B N 1.354(8) 0.528(3) 0.6846(10)
C1B C 1.220(16) 0.503(6) 0.630(2)
H1B H 1.2460 0.3954 0.6188
N2B N 1.069(8) 0.591(4) 0.5922(12)
N3B N 1.522(10) 0.711(3) 0.7527(12)
H2B H 1.6198 0.6349 0.7740
H3B H 1.5267 0.8104 0.7644
N4B N 0.909(10) 0.877(3) 0.5846(12)
C2B C 1.364(9) 0.674(4) 0.7026(14)
C3B C 1.004(11) 0.998(5) 0.6182(17)
H4B H 0.9725 1.1061 0.6070
N5B N 1.152(8) 0.957(3) 0.6699(13)
H5B H 1.2064 1.0176 0.6990
C4B C 1.191(10) 0.802(4) 0.6642(12)
C5B C 1.060(9) 0.746(4) 0.6119(14)
Cd1_2 Cd 0.0000 0.5000 0.5000
Cd1_3 Cd 2.0000 0.5000 0.5000
Cl1_2 Cl 0.482(2) 0.7202(10) 0.4774(3)
Cl1B_2 Cl 1.518(2) 0.2798(10) 0.5226(3)
loop_
_geom_bond_atom_site_label_1
_geom_bond_atom_site_label_2
_geom_bond_site_symmetry_1
_geom_bond_site_symmetry_2
Cd1 Cl1 1_555 1_555
Cl1 Cd1_3 1_555 1_555
N1 C1 1_555 1_555
C1 H1 1_555 1_555
N2 Cd1 1_555 1_555
N3 H2 1_555 1_555
H3 N3 1_555 1_555
N4 C3 1_555 1_555
C2 N1 1_555 1_555
C3 H4 1_555 1_555
N5 C3 1_555 1_555
H5 N5 1_555 1_555
C4 C2 1_555 1_555
C5 N2 1_555 1_555
Cl1B Cd1 1_555 1_555
N1B C1B 1_555 1_555
C1B H1B 1_555 1_555
N2B Cd1 1_555 1_555
N3B H2B 1_555 1_555
H3B N3B 1_555 1_555
N4B C3B 1_555 1_555
C2B N1B 1_555 1_555
C3B H4B 1_555 1_555
N5B C3B 1_555 1_555
H5B N5B 1_555 1_555
C4B C2B 1_555 1_555
C5B N2B 1_555 1_555
Cd1_2 Cl1B 1_555 1_555
Cd1_3 Cl1B_2 1_555 1_555
Cl1_2 Cd1 1_555 1_555
Cl1B_2 Cd1 1_555 1_555
C1 N2 1_555 1_555
N3 C2 1_555 1_555
N4 C5 1_555 1_555
N5 C4 1_555 1_555
C4 C5 1_555 1_555
C1B N2B 1_555 1_555
N3B C2B 1_555 1_555
N4B C5B 1_555 1_555
N5B C4B 1_555 1_555
C4B C5B 1_555 1_555
Cd1_2 Cl1_2 1_555 1_555

#END
