
#######################################################################
#
#                 Cambridge Crystallographic Data Centre
#                                CCDC 
#
#######################################################################
#
# If this CIF has been generated from an entry in the Cambridge 
# Structural Database, then it will include bibliographic, chemical, 
# crystal, experimental, refinement or atomic coordinate data resulting 
# from the CCDC's data processing and validation procedures.
#
#######################################################################

data_WIZGES
_symmetry_cell_setting           monoclinic
_symmetry_space_group_name_H-M   'P 21/c'
_symmetry_Int_Tables_number      14
_space_group_name_Hall           '-P 2ybc'
loop_
_symmetry_equiv_pos_site_id
_symmetry_equiv_pos_as_xyz
1 x,y,z
2 -x,1/2+y,1/2-z
3 -x,-y,-z
4 x,1/2-y,1/2+z
_cell_length_a                   8.340(3)
_cell_length_b                   8.863(3)
_cell_length_c                   12.565(4)
_cell_angle_alpha                90
_cell_angle_beta                 99.575(5)
_cell_angle_gamma                90
_cell_volume                     915.833
loop_
_atom_site_label
_atom_site_type_symbol
_atom_site_fract_x
_atom_site_fract_y
_atom_site_fract_z
Cu1 Cu 0.5000 0.5000 0.5000
P1 P 0.74022(8) 0.12822(7) 0.53132(4)
C1 C 0.8863(3) 0.1406(3) 0.37055(17)
H1 H 0.8988 0.2355 0.3343
H2 H 0.9723 0.0731 0.3570
C2 C 0.5874(3) 0.1813(3) 0.34313(17)
H3 H 0.4820 0.1349 0.3200
H4 H 0.5937 0.2715 0.3003
C3 C 0.7021(3) -0.0742(3) 0.38720(18)
H5 H 0.7900 -0.1430 0.3799
H6 H 0.6001 -0.1224 0.3573
C4 C 0.7218(3) 0.0718(3) 0.32625(16)
C5 C 0.7106(3) 0.0300(3) 0.20708(18)
O1 O 0.7486(2) 0.1556(2) 0.64563(13)
O2 O 0.8993(2) 0.1663(2) 0.48678(12)
O3 O 0.7042(3) -0.0394(2) 0.50047(13)
O4 O 0.6059(2) 0.22140(19) 0.45780(12)
O5 O 0.8369(2) -0.0021(2) 0.17386(14)
O6 O 0.5689(2) 0.02683(19) 0.15413(12)
O7 O 0.2969(2) 0.4141(2) 0.51900(12)
H7 H 0.2296 0.4327 0.4617
H8 H 0.2604 0.4274 0.5780
Cu1C Cu 0.5000 0.0000 0.0000
Cu1C_2 Cu 0.5000 1.0000 1.0000
P1B P 0.25978(8) 0.87178(7) 0.46868(4)
C1B C 0.1137(3) 0.8594(3) 0.62945(17)
H1B H 0.1012 0.7645 0.6657
H2B H 0.0277 0.9269 0.6430
C2B C 0.4126(3) 0.8187(3) 0.65687(17)
H3B H 0.5180 0.8651 0.6800
H4B H 0.4063 0.7285 0.6997
C3B C 0.2979(3) 1.0742(3) 0.61280(18)
H5B H 0.2100 1.1430 0.6201
H6B H 0.3999 1.1224 0.6427
C4B C 0.2782(3) 0.9282(3) 0.67375(16)
C5B C 0.2894(3) 0.9700(3) 0.79292(18)
O1B O 0.2514(2) 0.8444(2) 0.35437(13)
O2B O 0.1007(2) 0.8337(2) 0.51322(12)
O3B O 0.2958(3) 1.0394(2) 0.49953(13)
O4B O 0.3941(2) 0.77860(19) 0.54220(12)
O5B O 0.1631(2) 1.0021(2) 0.82614(14)
O6B O 0.4311(2) 0.97317(19) 0.84587(12)
O6C O 0.5689(2) 0.47317(19) 0.65413(12)
O6A O 0.4311(2) 0.52683(19) 0.34587(12)
O7B O 0.7031(2) 0.5859(2) 0.48100(12)
H7B H 0.7704 0.5673 0.5383
H8B H 0.7396 0.5726 0.4220
O8 O 0.1691(2) 0.4371(3) 0.69488(15)
H9 H 0.0659 0.4371 0.6830
H10 H 0.1944 0.5032 0.7438
loop_
_geom_bond_atom_site_label_1
_geom_bond_atom_site_label_2
_geom_bond_site_symmetry_1
_geom_bond_site_symmetry_2
Cu1 O4 1_555 1_555
P1 O1 1_555 1_555
C1 H1 1_555 1_555
H2 C1 1_555 1_555
C2 H3 1_555 1_555
H4 C2 1_555 1_555
C3 H5 1_555 1_555
H6 C3 1_555 1_555
C4 C1 1_555 1_555
C5 C4 1_555 1_555
O2 P1 1_555 1_555
O3 P1 1_555 1_555
O4 P1 1_555 1_555
O5 C5 1_555 1_555
O6 C5 1_555 1_555
O7 Cu1 1_555 1_555
H7 O7 1_555 1_555
H8 O7 1_555 1_555
O8 H9 1_555 1_555
H10 O8 1_555 1_555
Cu1C O6 1_555 1_555
Cu1C_2 O6B 1_555 1_555
P1B O1B 1_555 1_555
C1B H1B 1_555 1_555
H2B C1B 1_555 1_555
C2B H3B 1_555 1_555
H4B C2B 1_555 1_555
C3B H5B 1_555 1_555
H6B C3B 1_555 1_555
C4B C1B 1_555 1_555
C5B C4B 1_555 1_555
O2B P1B 1_555 1_555
O3B P1B 1_555 1_555
O4B Cu1 1_555 1_555
O5B C5B 1_555 1_555
O6B C5B 1_555 1_555
O6C Cu1 1_555 1_555
O6A Cu1 1_555 1_555
O7B Cu1 1_555 1_555
H7B O7B 1_555 1_555
H8B O7B 1_555 1_555
C1 O2 1_555 1_555
C2 C4 1_555 1_555
C2 O4 1_555 1_555
C3 C4 1_555 1_555
C3 O3 1_555 1_555
P1B O4B 1_555 1_555
C1B O2B 1_555 1_555
C2B C4B 1_555 1_555
C2B O4B 1_555 1_555
C3B C4B 1_555 1_555
C3B O3B 1_555 1_555

#END
