
#######################################################################
#
#                 Cambridge Crystallographic Data Centre
#                                CCDC 
#
#######################################################################
#
# If this CIF has been generated from an entry in the Cambridge 
# Structural Database, then it will include bibliographic, chemical, 
# crystal, experimental, refinement or atomic coordinate data resulting 
# from the CCDC's data processing and validation procedures.
#
#######################################################################

data_WIZJOG
_symmetry_cell_setting           monoclinic
_symmetry_space_group_name_H-M   'P 21/n'
_symmetry_Int_Tables_number      14
_space_group_name_Hall           '-P 2yn'
loop_
_symmetry_equiv_pos_site_id
_symmetry_equiv_pos_as_xyz
1 x,y,z
2 1/2-x,1/2+y,1/2-z
3 -x,-y,-z
4 1/2+x,1/2-y,1/2+z
_cell_length_a                   12.337(2)
_cell_length_b                   11.051(2)
_cell_length_c                   21.819(4)
_cell_angle_alpha                90
_cell_angle_beta                 100.761(4)
_cell_angle_gamma                90
_cell_volume                     2922.41
loop_
_atom_site_label
_atom_site_type_symbol
_atom_site_fract_x
_atom_site_fract_y
_atom_site_fract_z
C1 C 0.9452(4) 0.6971(4) 0.44041(18)
C2 C 0.9699(3) 0.5827(4) 0.40903(18)
C3 C 1.0364(3) 0.5881(4) 0.36409(19)
H1 H 1.0618 0.6629 0.3533
C4 C 1.0657(3) 0.4846(4) 0.33487(19)
C5 C 1.0340(3) 0.3734(4) 0.35520(18)
H2 H 1.0583 0.3028 0.3389
C6 C 0.9666(3) 0.3655(3) 0.39938(17)
C7 C 0.9315(3) 0.4704(4) 0.42489(18)
H3 H 0.8825 0.4657 0.4524
C8 C 0.9324(4) 0.2433(4) 0.41864(18)
C9 C 1.1294(4) 0.4959(4) 0.2839(2)
C10 C 1.1075(4) 0.5900(4) 0.2410(2)
H4 H 1.0532 0.6461 0.2452
C11 C 1.1638(4) 0.6028(4) 0.1924(2)
H5 H 1.1465 0.6662 0.1643
C12 C 1.2455(3) 0.5217(4) 0.18535(18)
C13 C 1.2685(4) 0.4265(4) 0.2278(2)
H6 H 1.3230 0.3706 0.2235
C14 C 1.2115(4) 0.4145(4) 0.2761(2)
H7 H 1.2282 0.3506 0.3039
C15 C 1.3051(3) 0.5344(4) 0.1318(2)
C16 C 0.6240(4) 0.7440(5) 0.4300(2)
H8 H 0.6608 0.6719 0.4257
C17 C 0.4976(5) 0.8797(7) 0.4204(4)
H9 H 0.4313 0.9211 0.4091
C18 C 0.5897(5) 0.9213(6) 0.4569(3)
H10 H 0.5978 0.9977 0.4750
C19 C 0.4426(5) 0.6853(6) 0.3616(3)
H11 H 0.4398 0.7089 0.3185
H12 H 0.3691 0.6942 0.3709
C20 C 0.4778(5) 0.5551(7) 0.3700(3)
C21 C 0.4393(6) 0.4811(7) 0.4118(3)
H13 H 0.3872 0.5099 0.4341
C22 C 0.4776(5) 0.3649(7) 0.4207(3)
H14 H 0.4519 0.3162 0.4497
C23 C 0.5534(5) 0.3178(7) 0.3877(3)
H15 H 0.5782 0.2386 0.3941
C24 C 0.5916(5) 0.3917(7) 0.3447(3)
C25 C 0.5535(5) 0.5090(6) 0.3365(3)
H16 H 0.5792 0.5584 0.3077
C26 C 0.6785(5) 0.3407(6) 0.3123(2)
H17 H 0.7500 0.3507 0.3391
H18 H 0.6656 0.2546 0.3061
C27 C 0.7293(5) 0.4899(6) 0.1737(3)
H19 H 0.7710 0.5319 0.1493
C28 C 0.7654(5) 0.4555(6) 0.2334(3)
H20 H 0.8350 0.4697 0.2572
C29 C 0.5981(4) 0.3973(5) 0.2026(2)
H21 H 0.5300 0.3613 0.2027
Co1 Co 0.99409(5) 0.97392(5) 0.42856(3)
Co2 Co 0.82556(5) 0.84153(5) 0.51605(3)
N1 N 0.6688(3) 0.8353(4) 0.46343(18)
N2 N 0.5195(3) 0.7654(5) 0.4028(2)
N3 N 0.6817(3) 0.3968(4) 0.25176(18)
N4 N 0.6235(3) 0.4543(3) 0.15456(17)
O1 O 1.0040(2) 0.7870(3) 0.43382(13)
O2 O 0.8684(2) 0.6955(2) 0.47174(13)
O3 O 0.8381(2) 0.2265(3) 0.42918(13)
O4 O 1.0067(2) 0.1606(2) 0.42177(12)
O5 O 1.3797(2) 0.4611(3) 0.12653(13)
O6 O 1.2726(2) 0.6216(3) 0.09485(14)
O7 O 0.8861(2) 0.9938(2) 0.49005(13)
H22 H 0.844(4) 1.050(3) 0.478(3)
Co1_2 Co 0.99409(5) -0.02608(5) 0.42856(3)
Co1A Co 0.50591(5) 0.47392(5) 0.07144(3)
Co1A_2 Co 1.50591(5) 0.47392(5) 0.07144(3)
Co1B Co 1.00591(5) 1.02608(5) 0.57144(3)
Co2B Co 1.17444(5) 0.15847(5) 0.48395(3)
Co2C Co 1.32556(5) 0.65847(5) 0.01605(3)
N4A N 0.8765(3) 0.9543(3) 0.34544(17)
O4_2 O 1.0067(2) 1.1606(2) 0.42177(12)
O4B O 0.9933(2) 0.8394(2) 0.57823(12)
O5A O 1.1203(2) 0.9611(3) 0.37347(13)
O6C O 0.7726(2) 0.8784(3) 0.59485(14)
O7B O 1.1139(2) 1.0062(2) 0.50995(13)
O8 O 0.7617(4) 0.7339(6) 0.9589(3)
H23 H 0.753(4) 0.801(3) 0.974(3)
H24 H 0.705(2) 0.703(4) 0.940(3)
loop_
_geom_bond_atom_site_label_1
_geom_bond_atom_site_label_2
_geom_bond_site_symmetry_1
_geom_bond_site_symmetry_2
C1 C2 1_555 1_555
C2 C3 1_555 1_555
C3 H1 1_555 1_555
C4 C3 1_555 1_555
C5 C4 1_555 1_555
H2 C5 1_555 1_555
C6 C5 1_555 1_555
C7 C2 1_555 1_555
H3 C7 1_555 1_555
C8 C6 1_555 1_555
C9 C4 1_555 1_555
C10 C9 1_555 1_555
H4 C10 1_555 1_555
C11 C10 1_555 1_555
H5 C11 1_555 1_555
C12 C11 1_555 1_555
C13 C12 1_555 1_555
H6 C13 1_555 1_555
C14 C9 1_555 1_555
H7 C14 1_555 1_555
C15 C12 1_555 1_555
C16 H8 1_555 1_555
C17 H9 1_555 1_555
C18 C17 1_555 1_555
H10 C18 1_555 1_555
C19 H11 1_555 1_555
H12 C19 1_555 1_555
C20 C19 1_555 1_555
C21 C20 1_555 1_555
H13 C21 1_555 1_555
C22 C21 1_555 1_555
H14 C22 1_555 1_555
C23 C22 1_555 1_555
H15 C23 1_555 1_555
C24 C23 1_555 1_555
C25 C20 1_555 1_555
H16 C25 1_555 1_555
C26 C24 1_555 1_555
H17 C26 1_555 1_555
H18 C26 1_555 1_555
C27 H19 1_555 1_555
C28 C27 1_555 1_555
H20 C28 1_555 1_555
C29 H21 1_555 1_555
Co1 O1 1_555 1_555
Co2 N1 1_555 1_555
N1 C16 1_555 1_555
N2 C16 1_555 1_555
N3 C26 1_555 1_555
N4 C27 1_555 1_555
O1 C1 1_555 1_555
O2 C1 1_555 1_555
O3 C8 1_555 1_555
O4 C8 1_555 1_555
O5 C15 1_555 1_555
O6 C15 1_555 1_555
O7 Co1 1_555 1_555
H22 O7 1_555 1_555
O8 H23 1_555 1_555
H24 O8 1_555 1_555
Co1_2 O4 1_555 1_555
Co1A N4 1_555 1_555
Co1A_2 O5 1_555 1_555
Co1B O7 1_555 1_555
Co2B O4 1_555 1_555
Co2C O6 1_555 1_555
N4A Co1 1_555 1_555
O4_2 Co1 1_555 1_555
O4B Co2 1_555 1_555
O5A Co1 1_555 1_555
O6C Co2 1_555 1_555
O7B Co1 1_555 1_555
C6 C7 1_555 1_555
C13 C14 1_555 1_555
C17 N2 1_555 1_555
C18 N1 1_555 1_555
C19 N2 1_555 1_555
C24 C25 1_555 1_555
C28 N3 1_555 1_555
C29 N3 1_555 1_555
C29 N4 1_555 1_555
Co2 O2 1_555 1_555
Co2 O7 1_555 1_555
Co1B O4B 1_555 1_555
Co1B O7B 1_555 1_555

#END
