
#######################################################################
#
#                 Cambridge Crystallographic Data Centre
#                                CCDC 
#
#######################################################################
#
# If this CIF has been generated from an entry in the Cambridge 
# Structural Database, then it will include bibliographic, chemical, 
# crystal, experimental, refinement or atomic coordinate data resulting 
# from the CCDC's data processing and validation procedures.
#
#######################################################################

data_WIZJUM
_symmetry_cell_setting           triclinic
_symmetry_space_group_name_H-M   'P -1'
_symmetry_Int_Tables_number      2
_space_group_name_Hall           '-P 1'
loop_
_symmetry_equiv_pos_site_id
_symmetry_equiv_pos_as_xyz
1 x,y,z
2 -x,-y,-z
_cell_length_a                   8.9151(10)
_cell_length_b                   12.3303(13)
_cell_length_c                   13.3052(14)
_cell_angle_alpha                108.564(2)
_cell_angle_beta                 107.760(2)
_cell_angle_gamma                99.002(2)
_cell_volume                     1267.25
loop_
_atom_site_label
_atom_site_type_symbol
_atom_site_fract_x
_atom_site_fract_y
_atom_site_fract_z
C1 C 0.0098(4) 0.7226(3) 0.5094(3)
C2 C 0.0370(4) 0.7706(3) 0.4234(3)
C3 C 0.1523(4) 0.8806(3) 0.4653(3)
H1 H 0.2073 0.9211 0.5441
C4 C 0.1875(4) 0.9318(3) 0.3927(3)
C5 C 0.1058(4) 0.8686(3) 0.2740(3)
H2 H 0.1305 0.8990 0.2236
C6 C -0.0134(4) 0.7592(3) 0.2318(3)
C7 C -0.0489(4) 0.7104(3) 0.3057(3)
H3 H -0.1292 0.6383 0.2768
C8 C -0.1026(5) 0.6978(3) 0.1043(3)
C9 C 0.3074(4) 1.0516(3) 0.4421(3)
C10 C 0.3134(5) 1.1388(3) 0.5402(3)
H4 H 0.2437 1.1215 0.5761
C11 C 0.4222(5) 1.2522(3) 0.5862(3)
H5 H 0.4251 1.3093 0.6528
C12 C 0.5251(4) 1.2807(3) 0.5342(3)
C13 C 0.5191(4) 1.1935(3) 0.4340(3)
H6 H 0.5860 1.2119 0.3967
C14 C 0.4144(4) 1.0805(3) 0.3906(3)
H7 H 0.4150 1.0224 0.3259
C15 C 0.6378(4) 1.4046(3) 0.5819(3)
C16 C 0.2117(4) 0.6039(3) 0.7293(3)
H8 H 0.2413 0.5927 0.6663
C17 C 0.3157(4) 0.6307(3) 0.8314(3)
H9 H 0.4284 0.6415 0.8553
C18 C 0.0675(5) 0.6171(3) 0.8294(3)
H10 H -0.0190 0.6180 0.8545
C19 C 0.2975(5) 0.6797(3) 1.0219(3)
H11 H 0.3703 0.6326 1.0421
H12 H 0.2116 0.6679 1.0511
C20 C 0.3928(5) 0.8101(3) 1.0759(3)
C21 C 0.5565(5) 0.8448(4) 1.1487(3)
H13 H 0.6058 0.7879 1.1645
C22 C 0.6472(5) 0.9637(4) 1.1981(3)
H14 H 0.7561 0.9867 1.2479
C23 C 0.5733(5) 1.0485(4) 1.1725(3)
H15 H 0.6346 1.1280 1.2039
C24 C 0.4087(5) 1.0155(3) 1.1001(3)
C25 C 0.3195(5) 0.8964(3) 1.0524(3)
H16 H 0.2096 0.8736 1.0043
C26 C 0.3287(6) 1.1086(4) 1.0760(4)
H17 H 0.4108 1.1741 1.0813
H18 H 0.2466 1.0741 0.9987
C27 C 0.1182(4) 1.0836(3) 1.1560(3)
H19 H 0.0623 1.0047 1.1071
C28 C 0.0870(5) 1.1526(4) 1.2401(4)
H20 H 0.0016 1.1273 1.2610
C29 C 0.2923(5) 1.2613(3) 1.2390(3)
H21 H 0.3797 1.3249 1.2554
N1 N 0.0541(4) 0.5937(3) 0.7227(2)
N2 N 0.2235(4) 0.6393(3) 0.8954(3)
N3 N 0.2508(4) 1.1542(3) 1.1572(3)
N4 N 0.1904(4) 1.2644(3) 1.2938(3)
O1 O -0.1086(3) 0.6280(2) 0.4711(2)
O2 O 0.0995(3) 0.7760(2) 0.6116(2)
O3 O -0.2335(4) 0.6102(3) 0.0740(2)
H22 H -0.2546 0.5625 0.0090
O4 O -0.0626(4) 0.7268(3) 0.0369(3)
O5 O 0.6962(3) 1.4358(2) 0.5144(2)
O6 O 0.6718(4) 1.4729(2) 0.6819(2)
Zn1 Zn -0.14677(5) 0.59521(3) 0.59764(3)
N4A N -0.1904(4) 0.7356(3) 0.7062(3)
O5_2 O -0.3038(3) 0.4358(2) 0.5144(2)
Zn1_2 Zn 0.85323(5) 1.59521(3) 0.59764(3)
Zn1A Zn 0.14677(5) 1.40479(3) 1.40236(3)
O7 O 0.5753(3) 0.5075(3) 0.8584(2)
loop_
_geom_bond_atom_site_label_1
_geom_bond_atom_site_label_2
_geom_bond_site_symmetry_1
_geom_bond_site_symmetry_2
C1 C2 1_555 1_555
C2 C3 1_555 1_555
C3 H1 1_555 1_555
C4 C3 1_555 1_555
C5 C4 1_555 1_555
H2 C5 1_555 1_555
C6 C5 1_555 1_555
C7 C2 1_555 1_555
H3 C7 1_555 1_555
C8 C6 1_555 1_555
C9 C4 1_555 1_555
C10 C9 1_555 1_555
H4 C10 1_555 1_555
C11 C10 1_555 1_555
H5 C11 1_555 1_555
C12 C11 1_555 1_555
C13 C12 1_555 1_555
H6 C13 1_555 1_555
C14 C9 1_555 1_555
H7 C14 1_555 1_555
C15 C12 1_555 1_555
C16 H8 1_555 1_555
C17 C16 1_555 1_555
H9 C17 1_555 1_555
C18 H10 1_555 1_555
C19 H11 1_555 1_555
H12 C19 1_555 1_555
C20 C19 1_555 1_555
C21 C20 1_555 1_555
H13 C21 1_555 1_555
C22 C21 1_555 1_555
H14 C22 1_555 1_555
C23 C22 1_555 1_555
H15 C23 1_555 1_555
C24 C23 1_555 1_555
C25 C20 1_555 1_555
H16 C25 1_555 1_555
C26 C24 1_555 1_555
H17 C26 1_555 1_555
H18 C26 1_555 1_555
C27 H19 1_555 1_555
C28 C27 1_555 1_555
H20 C28 1_555 1_555
C29 H21 1_555 1_555
N1 C16 1_555 1_555
N2 C17 1_555 1_555
N3 C26 1_555 1_555
N4 C28 1_555 1_555
O1 C1 1_555 1_555
O2 C1 1_555 1_555
O3 C8 1_555 1_555
H22 O3 1_555 1_555
O4 C8 1_555 1_555
O5 C15 1_555 1_555
O6 C15 1_555 1_555
Zn1 N1 1_555 1_555
N4A Zn1 1_555 1_555
O5_2 Zn1 1_555 1_555
Zn1_2 O5 1_555 1_555
Zn1A N4 1_555 1_555
C6 C7 1_555 1_555
C13 C14 1_555 1_555
C18 N1 1_555 1_555
C18 N2 1_555 1_555
C19 N2 1_555 1_555
C24 C25 1_555 1_555
C27 N3 1_555 1_555
C29 N3 1_555 1_555
C29 N4 1_555 1_555
O1 Zn1 1_555 1_555

#END
