
#######################################################################
#
#                 Cambridge Crystallographic Data Centre
#                                CCDC 
#
#######################################################################
#
# If this CIF has been generated from an entry in the Cambridge 
# Structural Database, then it will include bibliographic, chemical, 
# crystal, experimental, refinement or atomic coordinate data resulting 
# from the CCDC's data processing and validation procedures.
#
#######################################################################

data_WIZKOH
_symmetry_cell_setting           monoclinic
_symmetry_space_group_name_H-M   'P 21/c'
_symmetry_Int_Tables_number      14
_space_group_name_Hall           '-P 2ybc'
loop_
_symmetry_equiv_pos_site_id
_symmetry_equiv_pos_as_xyz
1 x,y,z
2 -x,1/2+y,1/2-z
3 -x,-y,-z
4 x,1/2-y,1/2+z
_cell_length_a                   15.6530(5)
_cell_length_b                   13.5330(5)
_cell_length_c                   13.6150(5)
_cell_angle_alpha                90
_cell_angle_beta                 103.918(2)
_cell_angle_gamma                90
_cell_volume                     2799.42
loop_
_atom_site_label
_atom_site_type_symbol
_atom_site_fract_x
_atom_site_fract_y
_atom_site_fract_z
Cu1 Cu 0.57263(5) 0.05758(5) 0.52446(6)
O1 O 0.5111(3) 0.1452(4) 0.4164(4)
O2 O 0.3909(3) 0.0488(4) 0.3767(4)
O3 O 0.3981(3) 0.4697(4) 0.0779(4)
O4 O 0.5173(3) 0.3726(4) 0.1185(4)
N1 N -0.2946(3) 0.3856(4) 0.0630(4)
N2 N 0.1611(4) 0.2928(5) 0.1878(5)
C1 C 0.3879(4) 0.1999(5) 0.2932(5)
C2 C 0.4359(4) 0.2632(5) 0.2459(5)
H1 H 0.4983 0.2581 0.2603
C3 C 0.3926(4) 0.3330(5) 0.1784(5)
C4 C 0.3018(5) 0.3411(5) 0.1592(6)
H2 H 0.2716 0.3888 0.1122
C5 C 0.2556(4) 0.2801(5) 0.2083(6)
C6 C 0.2963(5) 0.2075(6) 0.2746(6)
H3 H 0.2633 0.1645 0.3065
C7 C 0.1294(6) 0.3852(7) 0.1840(8)
H4 H 0.1687 0.4397 0.1967
C8 C 0.0417(5) 0.4005(7) 0.1620(8)
H5 H 0.0206 0.4664 0.1609
C9 C -0.0177(5) 0.3251(6) 0.1413(6)
C10 C 0.0176(5) 0.2299(6) 0.1469(7)
H6 H -0.0208 0.1745 0.1358
C11 C 0.1060(5) 0.2153(6) 0.1680(7)
H7 H 0.1289 0.1502 0.1687
C12 C -0.1138(5) 0.3436(6) 0.1139(6)
C13 C -0.1442(6) 0.4397(6) 0.0906(7)
H8 H -0.1040 0.4924 0.0910
C14 C -0.2327(5) 0.4565(6) 0.0672(7)
H9 H -0.2523 0.5225 0.0529
C15 C -0.2636(5) 0.2949(6) 0.0828(6)
H10 H -0.3048 0.2428 0.0794
C16 C -0.1751(5) 0.2711(6) 0.1081(7)
H11 H -0.1572 0.2043 0.1215
C17 C 0.4339(4) 0.1262(5) 0.3687(5)
C18 C 0.4401(4) 0.3970(5) 0.1207(5)
Cu1A Cu 0.42737(5) 0.55758(5) -0.02446(6)
Cu1B Cu 0.42737(5) -0.05758(5) 0.47554(6)
Cu1C Cu -0.42737(5) 0.44242(5) 0.02446(6)
Cu1C_2 Cu 0.57263(5) 0.44242(5) 0.02446(6)
O2B O 0.6091(3) -0.0488(4) 0.6233(4)
O3A O 0.6019(3) -0.0303(4) 0.4221(4)
O4C O 0.5173(3) 0.1274(4) 0.6185(4)
N1C N 0.7054(3) 0.1144(4) 0.5630(4)
O5 O -0.4128(9) 0.1090(9) 0.1193(10)
N3 N -0.5586(8) 0.0686(8) 0.0820(8)
C19 C -0.6189(15) -0.0029(14) 0.1053(14)
H12 H -0.6777 0.0081 0.0615
H13 H -0.6212 0.0042 0.1763
H14 H -0.5989 -0.0696 0.0940
C20 C -0.5962(16) 0.1307(12) 0.0026(12)
H15 H -0.5518 0.1772 -0.0093
H16 H -0.6447 0.1675 0.0196
H17 H -0.6189 0.0915 -0.0586
C21 C -0.4738(13) 0.0613(14) 0.1376(17)
H18 H -0.4614 0.0170 0.1934
O6 O 0.1417(11) -0.0322(8) -0.0934(11)
O7 O 0.1546(12) 0.0592(12) 0.0340(11)
O8 O 0.1888(10) 0.1160(8) -0.0943(10)
N4 N 0.1613(10) 0.0473(9) -0.0505(10)
O9 O -0.0178(9) 0.1505(8) 0.3801(9)
N5 N -0.1120(8) 0.2821(10) 0.3725(8)
C22 C -0.0417(12) 0.3576(12) 0.3949(13)
H19 H 0.0157 0.3255 0.4037
H20 H -0.0440 0.3927 0.4571
H21 H -0.0503 0.4047 0.3387
C23 C -0.2037(11) 0.3168(17) 0.3562(11)
H22 H -0.2437 0.2601 0.3429
H23 H -0.2173 0.3618 0.2980
H24 H -0.2110 0.3517 0.4167
C24 C -0.0955(13) 0.1887(14) 0.3660(11)
H25 H -0.1443 0.1449 0.3497
O10 O -0.1595(6) 0.6859(6) 0.0606(7)
H26 H -0.1045 0.6749 0.0787
H27 H -0.1687 0.7466 0.0705
O11 O -0.2553(12) 0.0664(10) 0.240(2)
H28 H -0.2231 0.0565 0.1988
H29 H -0.3061 0.0800 0.2035
loop_
_geom_bond_atom_site_label_1
_geom_bond_atom_site_label_2
_geom_bond_site_symmetry_1
_geom_bond_site_symmetry_2
Cu1 O1 1_555 1_555
O1 C17 1_555 1_555
O2 C17 1_555 1_555
O3 C18 1_555 1_555
O4 C18 1_555 1_555
N1 C14 1_555 1_555
N2 C5 1_555 1_555
C1 C2 1_555 1_555
C2 H1 1_555 1_555
C3 C2 1_555 1_555
C4 C3 1_555 1_555
H2 C4 1_555 1_555
C5 C4 1_555 1_555
C6 C1 1_555 1_555
H3 C6 1_555 1_555
C7 N2 1_555 1_555
H4 C7 1_555 1_555
C8 C7 1_555 1_555
H5 C8 1_555 1_555
C9 C8 1_555 1_555
C10 C9 1_555 1_555
H6 C10 1_555 1_555
C11 N2 1_555 1_555
H7 C11 1_555 1_555
C12 C9 1_555 1_555
C13 C12 1_555 1_555
H8 C13 1_555 1_555
C14 C13 1_555 1_555
H9 C14 1_555 1_555
C15 N1 1_555 1_555
H10 C15 1_555 1_555
C16 C12 1_555 1_555
H11 C16 1_555 1_555
C17 C1 1_555 1_555
C18 C3 1_555 1_555
O5 C21 1_555 1_555
N3 C19 1_555 1_555
C19 H12 1_555 1_555
H13 C19 1_555 1_555
H14 C19 1_555 1_555
C20 N3 1_555 1_555
H15 C20 1_555 1_555
H16 C20 1_555 1_555
H17 C20 1_555 1_555
C21 N3 1_555 1_555
H18 C21 1_555 1_555
O6 N4 1_555 1_555
O7 N4 1_555 1_555
O8 N4 1_555 1_555
O9 C24 1_555 1_555
N5 C22 1_555 1_555
C22 H19 1_555 1_555
H20 C22 1_555 1_555
H21 C22 1_555 1_555
C23 N5 1_555 1_555
H22 C23 1_555 1_555
H23 C23 1_555 1_555
H24 C23 1_555 1_555
C24 N5 1_555 1_555
H25 C24 1_555 1_555
O10 H26 1_555 1_555
H27 O10 1_555 1_555
O11 H28 1_555 1_555
H29 O11 1_555 1_555
Cu1A O3 1_555 1_555
Cu1B Cu1 1_555 1_555
Cu1C N1 1_555 1_555
Cu1C_2 O4 1_555 1_555
O2B Cu1 1_555 1_555
O3A Cu1 1_555 1_555
O4C Cu1 1_555 1_555
N1C Cu1 1_555 1_555
O2 Cu1B 1_555 1_555
C5 C6 1_555 1_555
C10 C11 1_555 1_555
C15 C16 1_555 1_555
Cu1A Cu1C_2 1_555 1_555

#END
