
#######################################################################
#
#                 Cambridge Crystallographic Data Centre
#                                CCDC 
#
#######################################################################
#
# If this CIF has been generated from an entry in the Cambridge 
# Structural Database, then it will include bibliographic, chemical, 
# crystal, experimental, refinement or atomic coordinate data resulting 
# from the CCDC's data processing and validation procedures.
#
#######################################################################

data_WIZLEY
_symmetry_cell_setting           monoclinic
_symmetry_space_group_name_H-M   'C 2/c'
_symmetry_Int_Tables_number      15
_space_group_name_Hall           '-C 2yn'
loop_
_symmetry_equiv_pos_site_id
_symmetry_equiv_pos_as_xyz
1 x,y,z
2 -x,y,1/2-z
3 1/2+x,1/2+y,z
4 1/2-x,1/2+y,1/2-z
5 -x,-y,-z
6 x,-y,1/2+z
7 1/2-x,1/2-y,-z
8 1/2+x,1/2-y,1/2+z
_cell_length_a                   17.080(4)
_cell_length_b                   10.175(3)
_cell_length_c                   16.616(4)
_cell_angle_alpha                90
_cell_angle_beta                 117.830(10)
_cell_angle_gamma                90
_cell_volume                     2553.68
loop_
_atom_site_label
_atom_site_type_symbol
_atom_site_fract_x
_atom_site_fract_y
_atom_site_fract_z
Co1 Co 0.5000 0.8375(3) 0.7500
Se1 Se 0.78049(17) 0.9388(4) 0.7397(2)
S1 S 0.3445(2) 0.3355(4) 0.4504(2)
N1 N 0.4357(8) -0.0137(12) 0.6485(8)
N2 N 0.4436(7) 0.6824(12) 0.6499(8)
N3 N 0.6129(8) 0.8421(14) 0.7314(8)
C1 C 0.3573(9) 0.6646(14) 0.5928(10)
H1 H 0.3172 0.7249 0.5946
C2 C 0.3249(10) 0.5636(16) 0.5325(10)
H2 H 0.2644 0.5567 0.4942
C3 C 0.3828(9) 0.4703(14) 0.5283(9)
C4 C 0.4722(10) 0.4852(16) 0.5872(10)
H3 H 0.5132 0.4238 0.5886
C5 C 0.4991(9) 0.5932(16) 0.6437(10)
H4 H 0.5596 0.6056 0.6800
C6 C 0.3798(9) 0.2010(16) 0.5287(10)
C7 C 0.4049(9) 0.0850(17) 0.5034(10)
H5 H 0.4031 0.0759 0.4468
C8 C 0.4328(9) -0.0166(18) 0.5658(10)
H6 H 0.4511 -0.0936 0.5495
C9 C 0.3789(10) 0.2079(16) 0.6127(10)
H7 H 0.3602 0.2837 0.6300
C10 C 0.4064(9) 0.0998(16) 0.6686(10)
H8 H 0.4049 0.1044 0.7237
C11 C 0.6804(11) 0.876(2) 0.7379(10)
Se1A Se 0.21951(17) 0.9388(4) 0.7603(2)
S1A S 0.6555(2) 0.3355(4) 1.0496(2)
N1A N 0.5643(8) -0.0137(12) 0.8515(8)
N2A N 0.5564(7) 0.6824(12) 0.8501(8)
N3A N 0.3871(8) 0.8421(14) 0.7686(8)
C1A C 0.6427(9) 0.6646(14) 0.9072(10)
H1A H 0.6828 0.7249 0.9054
C2A C 0.6751(10) 0.5636(16) 0.9675(10)
H2A H 0.7356 0.5567 1.0058
C3A C 0.6172(9) 0.4703(14) 0.9717(9)
C4A C 0.5278(10) 0.4852(16) 0.9128(10)
H3A H 0.4868 0.4238 0.9114
C5A C 0.5009(9) 0.5932(16) 0.8563(10)
H4A H 0.4404 0.6056 0.8200
C6A C 0.6202(9) 0.2010(16) 0.9713(10)
C7A C 0.5951(9) 0.0850(17) 0.9966(10)
H5A H 0.5969 0.0759 1.0532
C8A C 0.5672(9) -0.0166(18) 0.9342(10)
H6A H 0.5489 -0.0936 0.9505
C9A C 0.6211(10) 0.2079(16) 0.8873(10)
H7A H 0.6398 0.2837 0.8700
C10A C 0.5936(9) 0.0998(16) 0.8314(10)
H8A H 0.5951 0.1044 0.7763
C11A C 0.3196(11) 0.876(2) 0.7621(10)
Co1_2 Co 0.5000 -0.1625(3) 0.7500
N1_2 N 0.4357(8) 0.9863(12) 0.6485(8)
N1A_2 N 0.5643(8) 0.9863(12) 0.8515(8)
O1 O 0.6417(19) 1.188(3) 0.6145(19)
Se2? Se 0.7997(10) 0.881(2) 0.7722(13)
loop_
_geom_bond_atom_site_label_1
_geom_bond_atom_site_label_2
_geom_bond_site_symmetry_1
_geom_bond_site_symmetry_2
Co1 N2 1_555 1_555
Se1 C11 1_555 1_555
S1 C3 1_555 1_555
N1 C8 1_555 1_555
N2 C1 1_555 1_555
N3 Co1 1_555 1_555
C1 H1 1_555 1_555
C2 C1 1_555 1_555
H2 C2 1_555 1_555
C3 C2 1_555 1_555
C4 C3 1_555 1_555
H3 C4 1_555 1_555
C5 N2 1_555 1_555
H4 C5 1_555 1_555
C6 S1 1_555 1_555
C7 C6 1_555 1_555
H5 C7 1_555 1_555
C8 C7 1_555 1_555
H6 C8 1_555 1_555
C9 C6 1_555 1_555
H7 C9 1_555 1_555
C10 N1 1_555 1_555
H8 C10 1_555 1_555
C11 N3 1_555 1_555
Se1A C11A 1_555 1_555
S1A C3A 1_555 1_555
N1A C8A 1_555 1_555
N2A Co1 1_555 1_555
N3A Co1 1_555 1_555
C1A N2A 1_555 1_555
H1A C1A 1_555 1_555
C2A C1A 1_555 1_555
H2A C2A 1_555 1_555
C3A C2A 1_555 1_555
C4A C3A 1_555 1_555
H3A C4A 1_555 1_555
C5A N2A 1_555 1_555
H4A C5A 1_555 1_555
C6A S1A 1_555 1_555
C7A C6A 1_555 1_555
H5A C7A 1_555 1_555
C8A C7A 1_555 1_555
H6A C8A 1_555 1_555
C9A C6A 1_555 1_555
H7A C9A 1_555 1_555
C10A N1A 1_555 1_555
H8A C10A 1_555 1_555
C11A N3A 1_555 1_555
Co1_2 N1 1_555 1_555
N1_2 Co1 1_555 1_555
N1A_2 Co1 1_555 1_555
C4 C5 1_555 1_555
C9 C10 1_555 1_555
N1A Co1_2 1_555 1_555
C4A C5A 1_555 1_555
C9A C10A 1_555 1_555

#END
