
#######################################################################
#
#                 Cambridge Crystallographic Data Centre
#                                CCDC 
#
#######################################################################
#
# If this CIF has been generated from an entry in the Cambridge 
# Structural Database, then it will include bibliographic, chemical, 
# crystal, experimental, refinement or atomic coordinate data resulting 
# from the CCDC's data processing and validation procedures.
#
#######################################################################

data_WIZMAV
_symmetry_cell_setting           cubic
_symmetry_space_group_name_H-M   'F m -3 m'
_symmetry_Int_Tables_number      225
_space_group_name_Hall           '-F 4 2 3'
loop_
_symmetry_equiv_pos_site_id
_symmetry_equiv_pos_as_xyz
1 x,y,z
2 -x,-y,z
3 -x,y,-z
4 x,-y,-z
5 z,x,y
6 z,-x,-y
7 -z,-x,y
8 -z,x,-y
9 y,z,x
10 -y,z,-x
11 y,-z,-x
12 -y,-z,x
13 y,x,-z
14 -y,-x,-z
15 y,-x,z
16 -y,x,z
17 x,z,-y
18 -x,z,y
19 -x,-z,-y
20 x,-z,y
21 z,y,-x
22 z,-y,x
23 -z,y,x
24 -z,-y,-x
25 x,1/2+y,1/2+z
26 -x,1/2-y,1/2+z
27 -x,1/2+y,1/2-z
28 x,1/2-y,1/2-z
29 z,1/2+x,1/2+y
30 z,1/2-x,1/2-y
31 -z,1/2-x,1/2+y
32 -z,1/2+x,1/2-y
33 y,1/2+z,1/2+x
34 -y,1/2+z,1/2-x
35 y,1/2-z,1/2-x
36 -y,1/2-z,1/2+x
37 y,1/2+x,1/2-z
38 -y,1/2-x,1/2-z
39 y,1/2-x,1/2+z
40 -y,1/2+x,1/2+z
41 x,1/2+z,1/2-y
42 -x,1/2+z,1/2+y
43 -x,1/2-z,1/2-y
44 x,1/2-z,1/2+y
45 z,1/2+y,1/2-x
46 z,1/2-y,1/2+x
47 -z,1/2+y,1/2+x
48 -z,1/2-y,1/2-x
49 1/2+x,y,1/2+z
50 1/2-x,-y,1/2+z
51 1/2-x,y,1/2-z
52 1/2+x,-y,1/2-z
53 1/2+z,x,1/2+y
54 1/2+z,-x,1/2-y
55 1/2-z,-x,1/2+y
56 1/2-z,x,1/2-y
57 1/2+y,z,1/2+x
58 1/2-y,z,1/2-x
59 1/2+y,-z,1/2-x
60 1/2-y,-z,1/2+x
61 1/2+y,x,1/2-z
62 1/2-y,-x,1/2-z
63 1/2+y,-x,1/2+z
64 1/2-y,x,1/2+z
65 1/2+x,z,1/2-y
66 1/2-x,z,1/2+y
67 1/2-x,-z,1/2-y
68 1/2+x,-z,1/2+y
69 1/2+z,y,1/2-x
70 1/2+z,-y,1/2+x
71 1/2-z,y,1/2+x
72 1/2-z,-y,1/2-x
73 1/2+x,1/2+y,z
74 1/2-x,1/2-y,z
75 1/2-x,1/2+y,-z
76 1/2+x,1/2-y,-z
77 1/2+z,1/2+x,y
78 1/2+z,1/2-x,-y
79 1/2-z,1/2-x,y
80 1/2-z,1/2+x,-y
81 1/2+y,1/2+z,x
82 1/2-y,1/2+z,-x
83 1/2+y,1/2-z,-x
84 1/2-y,1/2-z,x
85 1/2+y,1/2+x,-z
86 1/2-y,1/2-x,-z
87 1/2+y,1/2-x,z
88 1/2-y,1/2+x,z
89 1/2+x,1/2+z,-y
90 1/2-x,1/2+z,y
91 1/2-x,1/2-z,-y
92 1/2+x,1/2-z,y
93 1/2+z,1/2+y,-x
94 1/2+z,1/2-y,x
95 1/2-z,1/2+y,x
96 1/2-z,1/2-y,-x
97 -x,-y,-z
98 x,y,-z
99 x,-y,z
100 -x,y,z
101 -z,-x,-y
102 -z,x,y
103 z,x,-y
104 z,-x,y
105 -y,-z,-x
106 y,-z,x
107 -y,z,x
108 y,z,-x
109 -y,-x,z
110 y,x,z
111 -y,x,-z
112 y,-x,-z
113 -x,-z,y
114 x,-z,-y
115 x,z,y
116 -x,z,-y
117 -z,-y,x
118 -z,y,-x
119 z,-y,-x
120 z,y,x
121 -x,1/2-y,1/2-z
122 x,1/2+y,1/2-z
123 x,1/2-y,1/2+z
124 -x,1/2+y,1/2+z
125 -z,1/2-x,1/2-y
126 -z,1/2+x,1/2+y
127 z,1/2+x,1/2-y
128 z,1/2-x,1/2+y
129 -y,1/2-z,1/2-x
130 y,1/2-z,1/2+x
131 -y,1/2+z,1/2+x
132 y,1/2+z,1/2-x
133 -y,1/2-x,1/2+z
134 y,1/2+x,1/2+z
135 -y,1/2+x,1/2-z
136 y,1/2-x,1/2-z
137 -x,1/2-z,1/2+y
138 x,1/2-z,1/2-y
139 x,1/2+z,1/2+y
140 -x,1/2+z,1/2-y
141 -z,1/2-y,1/2+x
142 -z,1/2+y,1/2-x
143 z,1/2-y,1/2-x
144 z,1/2+y,1/2+x
145 1/2-x,-y,1/2-z
146 1/2+x,y,1/2-z
147 1/2+x,-y,1/2+z
148 1/2-x,y,1/2+z
149 1/2-z,-x,1/2-y
150 1/2-z,x,1/2+y
151 1/2+z,x,1/2-y
152 1/2+z,-x,1/2+y
153 1/2-y,-z,1/2-x
154 1/2+y,-z,1/2+x
155 1/2-y,z,1/2+x
156 1/2+y,z,1/2-x
157 1/2-y,-x,1/2+z
158 1/2+y,x,1/2+z
159 1/2-y,x,1/2-z
160 1/2+y,-x,1/2-z
161 1/2-x,-z,1/2+y
162 1/2+x,-z,1/2-y
163 1/2+x,z,1/2+y
164 1/2-x,z,1/2-y
165 1/2-z,-y,1/2+x
166 1/2-z,y,1/2-x
167 1/2+z,-y,1/2-x
168 1/2+z,y,1/2+x
169 1/2-x,1/2-y,-z
170 1/2+x,1/2+y,-z
171 1/2+x,1/2-y,z
172 1/2-x,1/2+y,z
173 1/2-z,1/2-x,-y
174 1/2-z,1/2+x,y
175 1/2+z,1/2+x,-y
176 1/2+z,1/2-x,y
177 1/2-y,1/2-z,-x
178 1/2+y,1/2-z,x
179 1/2-y,1/2+z,x
180 1/2+y,1/2+z,-x
181 1/2-y,1/2-x,z
182 1/2+y,1/2+x,z
183 1/2-y,1/2+x,-z
184 1/2+y,1/2-x,-z
185 1/2-x,1/2-z,y
186 1/2+x,1/2-z,-y
187 1/2+x,1/2+z,y
188 1/2-x,1/2+z,-y
189 1/2-z,1/2-y,x
190 1/2-z,1/2+y,-x
191 1/2+z,1/2-y,-x
192 1/2+z,1/2+y,x
_cell_length_a                   26.896(3)
_cell_length_b                   26.896(3)
_cell_length_c                   26.896(3)
_cell_angle_alpha                90
_cell_angle_beta                 90
_cell_angle_gamma                90
_cell_volume                     19456.4
loop_
_atom_site_label
_atom_site_type_symbol
_atom_site_fract_x
_atom_site_fract_y
_atom_site_fract_z
Zr1 Zr 0.09204(6) 0.0000 0.0000
O1 O 0.0454(4) 0.0454(4) 0.0454(4)
O2 O 0.1326(2) 0.0000 0.0719(2)
C1 C 0.1172(4) 0.0000 0.1172(4)
C2 C 0.1565(4) 0.0000 0.1565(4)
C3 C 0.2058(5) 0.0000 0.1447(5)
H1 H 0.2149 0.0000 0.1114
C4 C 0.2420(5) 0.0000 0.1795(5)
H2 H 0.2751 0.0000 0.1695
C5 C 0.2307(3) 0.0000 0.2307(3)
O2U O 0.0719(2) 0.0000 0.1326(2)
C3U C 0.1447(5) 0.0000 0.2058(5)
H1U H 0.1114 0.0000 0.2149
C4U C 0.1795(5) 0.0000 0.2420(5)
H2U H 0.1695 0.0000 0.2751
O2XA O 0.3674(2) 0.0000 0.4281(2)
C1XA C 0.3828(4) 0.0000 0.3828(4)
C2XA C 0.3435(4) 0.0000 0.3435(4)
C3XA C 0.2942(5) 0.0000 0.3553(5)
H1XA H 0.2851 0.0000 0.3886
C4XA C 0.2580(5) 0.0000 0.3205(5)
H2XA H 0.2249 0.0000 0.3305
C5XA C 0.2693(3) 0.0000 0.2693(3)
O2SB O 0.4281(2) 0.0000 0.3674(2)
C3SB C 0.3553(5) 0.0000 0.2942(5)
H1SB H 0.3886 0.0000 0.2851
C4SB C 0.3205(5) 0.0000 0.2580(5)
H2SB H 0.3305 0.0000 0.2249
O1C O 0.0454(4) -0.0454(4) -0.0454(4)
O2C O 0.1326(2) 0.0000 -0.0719(2)
C1C C 0.1172(4) 0.0000 -0.1172(4)
C2C C 0.1565(4) 0.0000 -0.1565(4)
C3C C 0.2058(5) 0.0000 -0.1447(5)
H1C H 0.2149 0.0000 -0.1114
C4C C 0.2420(5) 0.0000 -0.1795(5)
H2C H 0.2751 0.0000 -0.1695
C5C C 0.2307(3) 0.0000 -0.2307(3)
O2T O 0.0719(2) 0.0000 -0.1326(2)
C3T C 0.1447(5) 0.0000 -0.2058(5)
H1T H 0.1114 0.0000 -0.2149
C4T C 0.1795(5) 0.0000 -0.2420(5)
H2T H 0.1695 0.0000 -0.2751
O2WA O 0.3674(2) 0.0000 -0.4281(2)
C1WA C 0.3828(4) 0.0000 -0.3828(4)
C2WA C 0.3435(4) 0.0000 -0.3435(4)
C3WA C 0.2942(5) 0.0000 -0.3553(5)
H1WA H 0.2851 0.0000 -0.3886
C4WA C 0.2580(5) 0.0000 -0.3205(5)
H2WA H 0.2249 0.0000 -0.3305
C5WA C 0.2693(3) 0.0000 -0.2693(3)
O2RB O 0.4281(2) 0.0000 -0.3674(2)
C3RB C 0.3553(5) 0.0000 -0.2942(5)
H1RB H 0.3886 0.0000 -0.2851
C4RB C 0.3205(5) 0.0000 -0.2580(5)
H2RB H 0.3305 0.0000 -0.2249
Zr1D Zr 0.0000 0.09204(6) 0.0000
O2D O 0.0719(2) 0.1326(2) 0.0000
C1D C 0.1172(4) 0.1172(4) 0.0000
C2D C 0.1565(4) 0.1565(4) 0.0000
C3D C 0.1447(5) 0.2058(5) 0.0000
H1D H 0.1114 0.2149 0.0000
C4D C 0.1795(5) 0.2420(5) 0.0000
H2D H 0.1695 0.2751 0.0000
C5D C 0.2307(3) 0.2307(3) 0.0000
O2P O 0.1326(2) 0.0719(2) 0.0000
C3P C 0.2058(5) 0.1447(5) 0.0000
H1P H 0.2149 0.1114 0.0000
C4P C 0.2420(5) 0.1795(5) 0.0000
H2P H 0.2751 0.1695 0.0000
O2ZB O 0.4281(2) 0.3674(2) 0.0000
C1ZB C 0.3828(4) 0.3828(4) 0.0000
C2ZB C 0.3435(4) 0.3435(4) 0.0000
C3ZB C 0.3553(5) 0.2942(5) 0.0000
H1ZB H 0.3886 0.2851 0.0000
C4ZB C 0.3205(5) 0.2580(5) 0.0000
H2ZB H 0.3305 0.2249 0.0000
C5ZB C 0.2693(3) 0.2693(3) 0.0000
O2LC O 0.3674(2) 0.4281(2) 0.0000
C3LC C 0.2942(5) 0.3553(5) 0.0000
H1LC H 0.2851 0.3886 0.0000
C4LC C 0.2580(5) 0.3205(5) 0.0000
H2LC H 0.2249 0.3305 0.0000
Zr1E Zr 0.0000 -0.09204(6) 0.0000
O1A O -0.0454(4) -0.0454(4) 0.0454(4)
O1B O -0.0454(4) 0.0454(4) -0.0454(4)
Zr1A Zr -0.09204(6) 0.0000 0.0000
Zr1H Zr 0.0000 0.0000 0.09204(6)
Zr1I Zr 0.0000 0.0000 -0.09204(6)
Zr1WA Zr 0.40796(6) 0.0000 -0.5000
Zr1WA_2 Zr 0.40796(6) 0.0000 0.5000
Zr1DB Zr 0.5000 0.0000 -0.40796(6)
Zr1EB Zr 0.5000 0.0000 0.40796(6)
Zr1UB Zr 0.40796(6) 0.5000 0.0000
Zr1YB Zr 0.5000 0.40796(6) 0.0000
O1L O 0.0454(4) 0.0454(4) -0.0454(4)
O1M O -0.0454(4) -0.0454(4) -0.0454(4)
O1N O 0.0454(4) -0.0454(4) 0.0454(4)
O1O O -0.0454(4) 0.0454(4) 0.0454(4)
O2E O 0.0719(2) -0.1326(2) 0.0000
O2F O -0.0719(2) -0.1326(2) 0.0000
O2G O -0.0719(2) 0.1326(2) 0.0000
O2L O 0.0000 0.1326(2) -0.0719(2)
O2M O 0.0000 -0.1326(2) -0.0719(2)
O2N O 0.0000 -0.1326(2) 0.0719(2)
O2O O 0.0000 0.1326(2) 0.0719(2)
O2S O 0.1326(2) -0.0719(2) 0.0000
loop_
_geom_bond_atom_site_label_1
_geom_bond_atom_site_label_2
_geom_bond_site_symmetry_1
_geom_bond_site_symmetry_2
Zr1 O1 1_555 1_555
O1 Zr1D 1_555 1_555
O2 Zr1 1_555 1_555
C1 O2 1_555 1_555
C2 C1 1_555 1_555
C3 C2 1_555 1_555
H1 C3 1_555 1_555
C4 C3 1_555 1_555
H2 C4 1_555 1_555
C5 C4 1_555 1_555
O2U C1 1_555 1_555
C3U C2 1_555 1_555
H1U C3U 1_555 1_555
C4U C5 1_555 1_555
H2U C4U 1_555 1_555
O2XA C1XA 1_555 1_555
C1XA C2XA 1_555 1_555
C2XA C3XA 1_555 1_555
C3XA H1XA 1_555 1_555
C4XA C3XA 1_555 1_555
H2XA C4XA 1_555 1_555
C5XA C5 1_555 1_555
O2SB C1XA 1_555 1_555
C3SB C2XA 1_555 1_555
H1SB C3SB 1_555 1_555
C4SB C5XA 1_555 1_555
H2SB C4SB 1_555 1_555
O1C Zr1 1_555 1_555
O2C Zr1 1_555 1_555
C1C O2C 1_555 1_555
C2C C1C 1_555 1_555
C3C C2C 1_555 1_555
H1C C3C 1_555 1_555
C4C C3C 1_555 1_555
H2C C4C 1_555 1_555
C5C C4C 1_555 1_555
O2T C1C 1_555 1_555
C3T C2C 1_555 1_555
H1T C3T 1_555 1_555
C4T C5C 1_555 1_555
H2T C4T 1_555 1_555
O2WA C1WA 1_555 1_555
C1WA C2WA 1_555 1_555
C2WA C3WA 1_555 1_555
C3WA H1WA 1_555 1_555
C4WA C3WA 1_555 1_555
H2WA C4WA 1_555 1_555
C5WA C5C 1_555 1_555
O2RB C1WA 1_555 1_555
C3RB C2WA 1_555 1_555
H1RB C3RB 1_555 1_555
C4RB C5WA 1_555 1_555
H2RB C4RB 1_555 1_555
Zr1D O2D 1_555 1_555
O2D C1D 1_555 1_555
C1D C2D 1_555 1_555
C2D C3D 1_555 1_555
C3D H1D 1_555 1_555
C4D C3D 1_555 1_555
H2D C4D 1_555 1_555
C5D C4D 1_555 1_555
O2P Zr1 1_555 1_555
C3P C2D 1_555 1_555
H1P C3P 1_555 1_555
C4P C5D 1_555 1_555
H2P C4P 1_555 1_555
O2ZB C1ZB 1_555 1_555
C1ZB C2ZB 1_555 1_555
C2ZB C3ZB 1_555 1_555
C3ZB H1ZB 1_555 1_555
C4ZB C3ZB 1_555 1_555
H2ZB C4ZB 1_555 1_555
C5ZB C5D 1_555 1_555
O2LC C1ZB 1_555 1_555
C3LC C2ZB 1_555 1_555
H1LC C3LC 1_555 1_555
C4LC C5ZB 1_555 1_555
H2LC C4LC 1_555 1_555
Zr1E O1C 1_555 1_555
O1A Zr1E 1_555 1_555
O1B Zr1D 1_555 1_555
Zr1A O1A 1_555 1_555
Zr1H O1 1_555 1_555
Zr1I O1C 1_555 1_555
Zr1WA O2WA 1_555 1_555
Zr1WA_2 O2XA 1_555 1_555
Zr1DB O2RB 1_555 1_555
Zr1EB O2SB 1_555 1_555
Zr1UB O2LC 1_555 1_555
Zr1YB O2ZB 1_555 1_555
O1L Zr1 1_555 1_555
O1M Zr1E 1_555 1_555
O1N Zr1 1_555 1_555
O1O Zr1D 1_555 1_555
O2E Zr1E 1_555 1_555
O2F Zr1E 1_555 1_555
O2G Zr1D 1_555 1_555
O2L Zr1D 1_555 1_555
O2M Zr1E 1_555 1_555
O2N Zr1E 1_555 1_555
O2O Zr1D 1_555 1_555
O2S Zr1 1_555 1_555
O2U Zr1H 1_555 1_555
C3U C4U 1_555 1_555
C4XA C5XA 1_555 1_555
C3SB C4SB 1_555 1_555
O2T Zr1I 1_555 1_555
C3T C4T 1_555 1_555
C4WA C5WA 1_555 1_555
C3RB C4RB 1_555 1_555
Zr1D O1L 1_555 1_555
C1D O2P 1_555 1_555
C3P C4P 1_555 1_555
C4ZB C5ZB 1_555 1_555
C3LC C4LC 1_555 1_555
Zr1E O1N 1_555 1_555
O1A Zr1H 1_555 1_555
O1B Zr1A 1_555 1_555
O1B Zr1I 1_555 1_555
Zr1A O1M 1_555 1_555
Zr1A O1O 1_555 1_555
Zr1H O1N 1_555 1_555
Zr1H O1O 1_555 1_555
Zr1I O1L 1_555 1_555
Zr1I O1M 1_555 1_555

#END
