
#######################################################################
#
#                 Cambridge Crystallographic Data Centre
#                                CCDC 
#
#######################################################################
#
# If this CIF has been generated from an entry in the Cambridge 
# Structural Database, then it will include bibliographic, chemical, 
# crystal, experimental, refinement or atomic coordinate data resulting 
# from the CCDC's data processing and validation procedures.
#
#######################################################################

data_WIZNUQ
_symmetry_cell_setting           monoclinic
_symmetry_space_group_name_H-M   'C 2/c'
_symmetry_Int_Tables_number      15
_space_group_name_Hall           '-C 2yn'
loop_
_symmetry_equiv_pos_site_id
_symmetry_equiv_pos_as_xyz
1 x,y,z
2 -x,y,1/2-z
3 1/2+x,1/2+y,z
4 1/2-x,1/2+y,1/2-z
5 -x,-y,-z
6 x,-y,1/2+z
7 1/2-x,1/2-y,-z
8 1/2+x,1/2-y,1/2+z
_cell_length_a                   19.5566(11)
_cell_length_b                   16.6668(11)
_cell_length_c                   15.3070(9)
_cell_angle_alpha                90
_cell_angle_beta                 106.861(2)
_cell_angle_gamma                90
_cell_volume                     4774.77
loop_
_atom_site_label
_atom_site_type_symbol
_atom_site_fract_x
_atom_site_fract_y
_atom_site_fract_z
I1 I 0.076346(5) 0.016813(7) 0.161769(7)
Cu1 Cu 0.056641(10) 0.008774(12) 0.324112(13)
C1 C 0.15858(8) -0.49321(10) 0.79163(11)
C2 C 0.10195(9) -0.49055(10) 0.84458(11)
H1 H 0.1008 -0.4357 0.8689
H2 H 0.0544 -0.5016 0.8013
C3 C 0.11527(9) -0.55009(11) 0.92357(12)
H3 H 0.1099 -0.6055 0.8991
H4 H 0.0791 -0.5419 0.9566
C4 C 0.19003(10) -0.53989(12) 0.99002(12)
H5 H 0.1931 -0.4876 1.0217
H6 H 0.1990 -0.5829 1.0366
C5 C 0.24656(9) -0.54355(11) 0.93914(11)
H7 H 0.2465 -0.5976 0.9124
H8 H 0.2944 -0.5340 0.9825
C6 C 0.23158(9) -0.48035(10) 0.86314(11)
H9 H 0.2697 -0.4826 0.8325
H10 H 0.2327 -0.4263 0.8904
C7 C 0.13940(8) -0.42469(10) 0.72105(10)
C8 C 0.18003(9) -0.35495(10) 0.72727(11)
H11 H 0.2249 -0.3512 0.7725
C9 C 0.15583(9) -0.29077(10) 0.66823(11)
H12 H 0.1836 -0.2433 0.6735
C10 C 0.09089(9) -0.29688(10) 0.60184(11)
C11 C 0.05003(9) -0.36551(10) 0.59203(11)
H13 H 0.0057 -0.3692 0.5457
C12 C 0.07505(8) -0.42903(11) 0.65121(10)
H14 H 0.0476 -0.4769 0.6440
O1 O 0.06099(6) -0.23095(7) 0.54662(8)
C13 C 0.15721(8) -0.57287(10) 0.73999(10)
C14 C 0.21467(9) -0.59435(11) 0.70810(11)
H15 H 0.2550 -0.5598 0.7196
C15 C 0.21431(10) -0.66488(11) 0.66005(12)
H16 H 0.2540 -0.6786 0.6391
C16 C 0.15584(10) -0.71499(11) 0.64290(11)
C17 C 0.09766(10) -0.69548(12) 0.67188(12)
H17 H 0.0573 -0.7300 0.6592
C18 C 0.09881(9) -0.62460(11) 0.71990(12)
H18 H 0.0585 -0.6110 0.7397
O2 O 0.15699(8) -0.79013(8) 0.60151(8)
N1 N 0.14787(7) -0.24092(9) 0.47072(9)
C19 C 0.09417(9) -0.20227(10) 0.48654(11)
C20 C 0.06596(8) -0.13073(10) 0.44279(11)
H19 H 0.0275 -0.1050 0.4579
N2 N 0.09272(7) -0.09862(8) 0.38018(9)
C21 C 0.14701(9) -0.13849(10) 0.36158(11)
H20 H 0.1669 -0.1181 0.3163
C22 C 0.17397(9) -0.20776(11) 0.40682(12)
H21 H 0.2127 -0.2335 0.3925
N3 N 0.11927(8) -0.72985(9) 0.45869(10)
C23 C 0.13101(9) -0.79500(10) 0.50895(11)
C24 C 0.11890(8) -0.87291(10) 0.47343(11)
H22 H 0.1268 -0.9176 0.5136
N4 N 0.09636(7) -0.88438(8) 0.38370(9)
C25 C 0.08618(9) -0.81836(10) 0.33057(12)
H23 H 0.0718 -0.8241 0.2661
C26 C 0.09625(9) -0.74275(11) 0.36821(12)
H24 H 0.0865 -0.6977 0.3285
I1A I -0.076346(5) 0.016813(7) 0.338231(7)
Cu1_2 Cu 0.056641(10) -0.991226(12) 0.324112(13)
Cu1A Cu -0.056641(10) 0.008774(12) 0.175888(13)
N4_2 N 0.09636(7) 0.11562(8) 0.38370(9)
loop_
_geom_bond_atom_site_label_1
_geom_bond_atom_site_label_2
_geom_bond_site_symmetry_1
_geom_bond_site_symmetry_2
I1 Cu1 1_555 1_555
Cu1 N2 1_555 1_555
C1 C2 1_555 1_555
C2 H1 1_555 1_555
H2 C2 1_555 1_555
C3 C2 1_555 1_555
H3 C3 1_555 1_555
H4 C3 1_555 1_555
C4 C3 1_555 1_555
H5 C4 1_555 1_555
H6 C4 1_555 1_555
C5 C4 1_555 1_555
H7 C5 1_555 1_555
H8 C5 1_555 1_555
C6 C1 1_555 1_555
H9 C6 1_555 1_555
H10 C6 1_555 1_555
C7 C1 1_555 1_555
C8 C7 1_555 1_555
H11 C8 1_555 1_555
C9 C8 1_555 1_555
H12 C9 1_555 1_555
C10 C9 1_555 1_555
C11 C10 1_555 1_555
H13 C11 1_555 1_555
C12 C7 1_555 1_555
H14 C12 1_555 1_555
O1 C10 1_555 1_555
C13 C1 1_555 1_555
C14 C13 1_555 1_555
H15 C14 1_555 1_555
C15 C14 1_555 1_555
H16 C15 1_555 1_555
C16 C15 1_555 1_555
C17 C16 1_555 1_555
H17 C17 1_555 1_555
C18 C13 1_555 1_555
H18 C18 1_555 1_555
O2 C16 1_555 1_555
N1 C19 1_555 1_555
C19 O1 1_555 1_555
C20 C19 1_555 1_555
H19 C20 1_555 1_555
N2 C20 1_555 1_555
C21 N2 1_555 1_555
H20 C21 1_555 1_555
C22 N1 1_555 1_555
H21 C22 1_555 1_555
N3 C23 1_555 1_555
C23 O2 1_555 1_555
C24 C23 1_555 1_555
H22 C24 1_555 1_555
N4 C24 1_555 1_555
C25 N4 1_555 1_555
H23 C25 1_555 1_555
C26 N3 1_555 1_555
H24 C26 1_555 1_555
I1A Cu1 1_555 1_555
Cu1_2 N4 1_555 1_555
Cu1A I1 1_555 1_555
N4_2 Cu1 1_555 1_555
Cu1 Cu1A 1_555 1_555
C5 C6 1_555 1_555
C11 C12 1_555 1_555
C17 C18 1_555 1_555
C21 C22 1_555 1_555
C25 C26 1_555 1_555
I1A Cu1A 1_555 1_555

#END
