
#######################################################################
#
#                 Cambridge Crystallographic Data Centre
#                                CCDC 
#
#######################################################################
#
# If this CIF has been generated from an entry in the Cambridge 
# Structural Database, then it will include bibliographic, chemical, 
# crystal, experimental, refinement or atomic coordinate data resulting 
# from the CCDC's data processing and validation procedures.
#
#######################################################################

data_WIZPEC
_symmetry_cell_setting           triclinic
_symmetry_space_group_name_H-M   'P -1'
_symmetry_Int_Tables_number      2
_space_group_name_Hall           '-P 1'
loop_
_symmetry_equiv_pos_site_id
_symmetry_equiv_pos_as_xyz
1 x,y,z
2 -x,-y,-z
_cell_length_a                   9.6880(3)
_cell_length_b                   11.6176(3)
_cell_length_c                   15.5338(4)
_cell_angle_alpha                94.7250(10)
_cell_angle_beta                 102.5050(10)
_cell_angle_gamma                106.9690(10)
_cell_volume                     1612.6
loop_
_atom_site_label
_atom_site_type_symbol
_atom_site_fract_x
_atom_site_fract_y
_atom_site_fract_z
I1 I 0.80405(3) 0.05942(2) 0.027829(16)
Cu1 Cu 1.08076(5) 0.11311(4) 0.01786(3)
C1 C 1.9376(3) 0.7392(3) 0.5574(2)
C2 C 1.9214(4) 0.8625(3) 0.5924(2)
H1 H 1.9143 0.9110 0.5438
H2 H 2.0086 0.9072 0.6412
H3 H 1.8310 0.8472 0.6142
C3 C 1.8031(3) 0.6678(3) 0.4799(2)
C4 C 1.8171(3) 0.5925(3) 0.4110(2)
H4 H 1.9126 0.5861 0.4109
C5 C 1.6947(4) 0.5258(3) 0.3417(2)
H5 H 1.7064 0.4749 0.2945
C6 C 1.5561(3) 0.5351(3) 0.3427(2)
C7 C 1.5379(4) 0.6073(3) 0.4104(2)
H6 H 1.4416 0.6118 0.4105
C8 C 1.6613(3) 0.6746(3) 0.4795(2)
H7 H 1.6487 0.7252 0.5265
O1 O 1.4315(3) 0.4794(2) 0.27004(16)
N1 N 1.4328(3) 0.2886(3) 0.30352(19)
C9 C 1.3826(3) 0.3570(3) 0.2493(2)
C10 C 1.2765(4) 0.3090(3) 0.1680(2)
H8 H 1.2426 0.3623 0.1319
N2 N 1.2227(3) 0.1900(3) 0.14063(19)
C11 C 1.2717(4) 0.1174(3) 0.1954(2)
H9 H 1.2342 0.0314 0.1786
C12 C 1.3753(4) 0.1679(3) 0.2751(2)
H10 H 1.4080 0.1148 0.3120
C13 C 1.9484(3) 0.6651(3) 0.6347(2)
C14 C 2.0386(4) 0.7210(3) 0.7203(2)
H11 H 2.0934 0.8054 0.7302
C15 C 2.0489(4) 0.6547(4) 0.7910(2)
H12 H 2.1094 0.6934 0.8488
C16 C 1.9699(4) 0.5322(3) 0.7756(2)
C17 C 1.8824(4) 0.4739(3) 0.6928(2)
H13 H 1.8290 0.3893 0.6836
C18 C 1.8728(3) 0.5404(3) 0.6227(2)
H14 H 1.8134 0.5000 0.5651
O2 O 1.9759(3) 0.4693(2) 0.84977(17)
N3 N 2.0934(4) 0.2210(3) 0.9213(2)
C19 C 2.0406(4) 0.3813(4) 0.8490(3)
C20 C 2.0327(4) 0.3101(4) 0.9178(2)
H15 H 1.9837 0.3257 0.9621
N4 N 2.1039(5) 0.3625(4) 0.7844(3)
C21 C 2.1570(6) 0.1997(5) 0.8539(3)
H16 H 2.1992 0.1354 0.8534
C22 C 2.1611(6) 0.2690(6) 0.7872(4)
H17 H 2.2054 0.2512 0.7410
C23 C 2.0804(3) 0.7697(3) 0.5233(2)
C24 C 2.2014(3) 0.7305(3) 0.5576(2)
H18 H 2.1965 0.6807 0.6032
C25 C 2.3292(3) 0.7631(3) 0.5261(2)
H19 H 2.4105 0.7353 0.5497
C26 C 2.3377(3) 0.8359(3) 0.4605(2)
C27 C 2.2172(3) 0.8745(3) 0.4228(2)
H20 H 2.2223 0.9236 0.3769
C28 C 2.0903(3) 0.8391(3) 0.4543(2)
H21 H 2.0069 0.8629 0.4279
O3 O 2.4753(2) 0.8755(2) 0.43987(16)
N5 N 2.3723(3) 0.8276(3) 0.2864(2)
C29 C 2.4867(3) 0.8801(3) 0.3547(2)
C30 C 2.6290(4) 0.9423(4) 0.3457(3)
H22 H 2.7082 0.9771 0.3978
N6 N 2.6558(4) 0.9539(4) 0.2662(3)
C31 C 2.5379(5) 0.9043(5) 0.1962(3)
H23 H 2.5508 0.9136 0.1380
C32 C 2.3990(5) 0.8404(5) 0.2049(3)
H24 H 2.3202 0.8046 0.1528
I1A I 1.19595(3) -0.05942(2) -0.027829(16)
Cu1_2 Cu 2.08076(5) 0.11311(4) 1.01786(3)
Cu1A Cu 0.91924(5) -0.11311(4) -0.01786(3)
N3_2 N 1.0934(4) 0.2210(3) -0.0787(2)
loop_
_geom_bond_atom_site_label_1
_geom_bond_atom_site_label_2
_geom_bond_site_symmetry_1
_geom_bond_site_symmetry_2
I1 Cu1 1_555 1_555
Cu1 N2 1_555 1_555
C1 C2 1_555 1_555
C2 H1 1_555 1_555
H2 C2 1_555 1_555
H3 C2 1_555 1_555
C3 C1 1_555 1_555
C4 C3 1_555 1_555
H4 C4 1_555 1_555
C5 C4 1_555 1_555
H5 C5 1_555 1_555
C6 C5 1_555 1_555
C7 C6 1_555 1_555
H6 C7 1_555 1_555
C8 C3 1_555 1_555
H7 C8 1_555 1_555
O1 C6 1_555 1_555
N1 C9 1_555 1_555
C9 O1 1_555 1_555
C10 C9 1_555 1_555
H8 C10 1_555 1_555
N2 C10 1_555 1_555
C11 N2 1_555 1_555
H9 C11 1_555 1_555
C12 N1 1_555 1_555
H10 C12 1_555 1_555
C13 C1 1_555 1_555
C14 C13 1_555 1_555
H11 C14 1_555 1_555
C15 C14 1_555 1_555
H12 C15 1_555 1_555
C16 C15 1_555 1_555
C17 C16 1_555 1_555
H13 C17 1_555 1_555
C18 C13 1_555 1_555
H14 C18 1_555 1_555
O2 C16 1_555 1_555
N3 C20 1_555 1_555
C19 O2 1_555 1_555
C20 C19 1_555 1_555
H15 C20 1_555 1_555
N4 C19 1_555 1_555
C21 N3 1_555 1_555
H16 C21 1_555 1_555
C22 N4 1_555 1_555
H17 C22 1_555 1_555
C23 C1 1_555 1_555
C24 C23 1_555 1_555
H18 C24 1_555 1_555
C25 C24 1_555 1_555
H19 C25 1_555 1_555
C26 C25 1_555 1_555
C27 C26 1_555 1_555
H20 C27 1_555 1_555
C28 C23 1_555 1_555
H21 C28 1_555 1_555
O3 C26 1_555 1_555
N5 C29 1_555 1_555
C29 O3 1_555 1_555
C30 C29 1_555 1_555
H22 C30 1_555 1_555
N6 C30 1_555 1_555
C31 N6 1_555 1_555
H23 C31 1_555 1_555
C32 N5 1_555 1_555
H24 C32 1_555 1_555
I1A Cu1 1_555 1_555
Cu1_2 N3 1_555 1_555
Cu1A I1 1_555 1_555
N3_2 Cu1 1_555 1_555
Cu1 Cu1A 1_555 1_555
C7 C8 1_555 1_555
C11 C12 1_555 1_555
C17 C18 1_555 1_555
C21 C22 1_555 1_555
C27 C28 1_555 1_555
C31 C32 1_555 1_555
I1A Cu1A 1_555 1_555

#END
