
#######################################################################
#
#                 Cambridge Crystallographic Data Centre
#                                CCDC 
#
#######################################################################
#
# If this CIF has been generated from an entry in the Cambridge 
# Structural Database, then it will include bibliographic, chemical, 
# crystal, experimental, refinement or atomic coordinate data resulting 
# from the CCDC's data processing and validation procedures.
#
#######################################################################

data_WIZPUQ
_symmetry_cell_setting           monoclinic
_symmetry_space_group_name_H-M   'C 2/c'
_symmetry_Int_Tables_number      15
_space_group_name_Hall           '-C 2yn'
loop_
_symmetry_equiv_pos_site_id
_symmetry_equiv_pos_as_xyz
1 x,y,z
2 -x,y,1/2-z
3 1/2+x,1/2+y,z
4 1/2-x,1/2+y,1/2-z
5 -x,-y,-z
6 x,-y,1/2+z
7 1/2-x,1/2-y,-z
8 1/2+x,1/2-y,1/2+z
_cell_length_a                   19.098(8)
_cell_length_b                   14.043(8)
_cell_length_c                   20.910(7)
_cell_angle_alpha                90
_cell_angle_beta                 97.43(3)
_cell_angle_gamma                90
_cell_volume                     5560.83
loop_
_atom_site_label
_atom_site_type_symbol
_atom_site_fract_x
_atom_site_fract_y
_atom_site_fract_z
Cd1 Cd 0.19268(2) 0.27625(2) 0.31666(1)
O1 O 0.0520(1) 0.6250(2) 0.1401(1)
O2 O -0.2074(1) 0.5952(2) -0.0109(1)
O3 O 0.1161(2) 0.1160(3) 0.0302(1)
O4 O 0.2847(2) 0.3728(3) 0.3717(2)
O5 O 0.3103(2) 0.3025(2) 0.2873(2)
O6 O 0.3889(2) 0.3834(3) 0.3450(2)
O7 O 0.1241(2) 0.3265(2) 0.3988(1)
O8 O 0.0706(1) 0.2333(2) 0.3291(1)
O9 O 0.0174(2) 0.2841(3) 0.4070(2)
N1 N 0.1462(2) 0.4062(2) 0.2534(2)
N2 N -0.2726(2) 0.3539(3) -0.1174(2)
N3 N 0.1752(2) 0.1943(2) 0.2197(2)
N4 N 0.3283(2) 0.3542(3) 0.3339(2)
N5 N 0.0698(2) 0.2800(3) 0.3791(2)
C1 C 0.0859(2) 0.3919(3) 0.2146(2)
C2 C 0.0518(2) 0.4606(3) 0.1755(2)
C3 C 0.0802(2) 0.5504(3) 0.1757(2)
C4 C 0.1437(2) 0.5675(3) 0.2148(2)
C5 C 0.1737(2) 0.4934(3) 0.2516(2)
C6 C -0.0143(2) 0.6130(3) 0.1024(2)
C7 C -0.0742(2) 0.5970(4) 0.1305(2)
C8 C -0.1385(2) 0.5888(3) 0.0928(2)
C9 C -0.1413(2) 0.5982(3) 0.0278(2)
C10 C -0.0818(2) 0.6145(3) -0.0003(2)
C11 C -0.0171(2) 0.6224(3) 0.0372(2)
C12 C -0.2182(2) 0.3501(3) -0.0707(2)
C13 C -0.1931(2) 0.4264(3) -0.0332(2)
C14 C -0.2262(2) 0.5131(3) -0.0440(2)
C15 C -0.2843(2) 0.5191(3) -0.0911(2)
C16 C -0.3046(2) 0.4391(4) -0.1258(2)
C17 C 0.1201(2) 0.1369(3) 0.2043(2)
C18 C 0.0970(2) 0.1078(3) 0.1427(2)
C19 C 0.1342(2) 0.1387(3) 0.0935(2)
C20 C 0.1914(2) 0.1970(3) 0.1080(2)
C21 C 0.2106(2) 0.2227(3) 0.1712(2)
C22 C 0.0561(3) 0.0570(4) 0.0152(2)
C23 C 0.0668(3) -0.0389(4) 0.0144(2)
C24 C -0.0080(3) 0.0974(4) 0.0007(3)
H1 H 0.0642 0.3285 0.2148
H2 H 0.0077 0.4459 0.1485
H3 H 0.1662 0.6306 0.2161
H4 H 0.2185 0.5051 0.2783
H5 H -0.0715 0.5937 0.1780
H6 H -0.1820 0.5750 0.1122
H7 H -0.0853 0.6206 -0.0478
H8 H 0.0259 0.6351 0.0166
H9 H -0.1947 0.2881 -0.0626
H10 H -0.1531 0.4192 0.0000
H11 H -0.3098 0.5792 -0.0994
H12 H -0.3457 0.4430 -0.1589
H13 H 0.0952 0.1135 0.2399
H14 H 0.0551 0.0672 0.1334
H15 H 0.2182 0.2196 0.0734
H16 H 0.2520 0.2629 0.1820
H17 H 0.1159 -0.0658 0.0234
H18 H -0.0138 0.1677 0.0004
C24D C 0.0080(3) -0.0974(4) -0.0007(3)
C22D C -0.0561(3) -0.0570(4) -0.0152(2)
O3D O -0.1161(2) -0.1160(3) -0.0302(1)
C19D C -0.1342(2) -0.1387(3) -0.0935(2)
C18D C -0.0970(2) -0.1078(3) -0.1427(2)
C17D C -0.1201(2) -0.1369(3) -0.2043(2)
N3D N -0.1752(2) -0.1943(2) -0.2197(2)
C21D C -0.2106(2) -0.2227(3) -0.1712(2)
C20D C -0.1914(2) -0.1970(3) -0.1080(2)
H15D H -0.2182 -0.2196 -0.0734
H16D H -0.2520 -0.2629 -0.1820
H13D H -0.0952 -0.1135 -0.2399
H14D H -0.0551 -0.0672 -0.1334
C23D C -0.0668(3) 0.0389(4) -0.0144(2)
H17D H -0.1159 0.0658 -0.0234
H18D H 0.0138 -0.1677 -0.0004
N2G N 0.2274(2) 0.1461(3) 0.3826(2)
Cd1G Cd -0.30732(2) 0.22375(2) -0.18334(1)
Cd1D Cd -0.19268(2) -0.27625(2) -0.31666(1)
O4D O -0.2847(2) -0.3728(3) -0.3717(2)
O5D O -0.3103(2) -0.3025(2) -0.2873(2)
O6D O -0.3889(2) -0.3834(3) -0.3450(2)
N4D N -0.3283(2) -0.3542(3) -0.3339(2)
O7D O -0.1241(2) -0.3265(2) -0.3988(1)
O8D O -0.0706(1) -0.2333(2) -0.3291(1)
O9D O -0.0174(2) -0.2841(3) -0.4070(2)
N5D N -0.0698(2) -0.2800(3) -0.3791(2)
O1D O -0.0520(1) -0.6250(2) -0.1401(1)
O2D O 0.2074(1) -0.5952(2) 0.0109(1)
N1D N -0.1462(2) -0.4062(2) -0.2534(2)
N2D N 0.2726(2) -0.3539(3) 0.1174(2)
C1D C -0.0859(2) -0.3919(3) -0.2146(2)
C2D C -0.0518(2) -0.4606(3) -0.1755(2)
C3D C -0.0802(2) -0.5504(3) -0.1757(2)
C4D C -0.1437(2) -0.5675(3) -0.2148(2)
C5D C -0.1737(2) -0.4934(3) -0.2516(2)
C6D C 0.0143(2) -0.6130(3) -0.1024(2)
C7D C 0.0742(2) -0.5970(4) -0.1305(2)
C8D C 0.1385(2) -0.5888(3) -0.0928(2)
C9D C 0.1413(2) -0.5982(3) -0.0278(2)
C10D C 0.0818(2) -0.6145(3) 0.0003(2)
C11D C 0.0171(2) -0.6224(3) -0.0372(2)
C12D C 0.2182(2) -0.3501(3) 0.0707(2)
C13D C 0.1931(2) -0.4264(3) 0.0332(2)
C14D C 0.2262(2) -0.5131(3) 0.0440(2)
C15D C 0.2843(2) -0.5191(3) 0.0911(2)
C16D C 0.3046(2) -0.4391(4) 0.1258(2)
H1D H -0.0642 -0.3285 -0.2148
H2D H -0.0077 -0.4459 -0.1485
H3D H -0.1662 -0.6306 -0.2161
H4D H -0.2185 -0.5051 -0.2783
H5D H 0.0715 -0.5937 -0.1780
H6D H 0.1820 -0.5750 -0.1122
H7D H 0.0853 -0.6206 0.0478
H8D H -0.0259 -0.6351 -0.0166
H9D H 0.1947 -0.2881 0.0626
H10D H 0.1531 -0.4192 0.0000
H11D H 0.3098 -0.5792 0.0994
H12D H 0.3457 -0.4430 0.1589
N2C N -0.2274(2) -0.1461(3) -0.3826(2)
Cd1C Cd 0.30732(2) -0.22375(2) 0.18334(1)
O10 O 1.0000 0.0157(5) 0.7500
C25 C 1.0000 0.0920(6) 0.7500
C26 C 0.9607(4) 0.1473(9) 0.7034(4)
H19 H 0.9685 0.2173 0.7101
H20 H 0.9118 0.1377 0.6995
H21 H 0.9755 0.1370 0.6604
C26A C 1.0393(4) 0.1473(9) 0.7966(4)
H19A H 1.0315 0.2173 0.7899
H20A H 1.0882 0.1377 0.8005
H21A H 1.0245 0.1370 0.8396
loop_
_geom_bond_atom_site_label_1
_geom_bond_atom_site_label_2
_geom_bond_site_symmetry_1
_geom_bond_site_symmetry_2
Cd1 O4 1_555 1_555
O1 C3 1_555 1_555
O2 C9 1_555 1_555
O3 C19 1_555 1_555
O4 N4 1_555 1_555
O5 Cd1 1_555 1_555
O6 N4 1_555 1_555
O7 Cd1 1_555 1_555
O8 Cd1 1_555 1_555
O9 N5 1_555 1_555
O10 C25 1_555 1_555
N1 Cd1 1_555 1_555
N2 C12 1_555 1_555
N3 Cd1 1_555 1_555
N4 O5 1_555 1_555
N5 O7 1_555 1_555
C1 N1 1_555 1_555
C2 C1 1_555 1_555
C3 C2 1_555 1_555
C4 C3 1_555 1_555
C5 N1 1_555 1_555
C6 O1 1_555 1_555
C7 C6 1_555 1_555
C8 C7 1_555 1_555
C9 C8 1_555 1_555
C10 C9 1_555 1_555
C11 C6 1_555 1_555
C12 C13 1_555 1_555
C13 C14 1_555 1_555
C14 O2 1_555 1_555
C15 C14 1_555 1_555
C16 N2 1_555 1_555
C17 N3 1_555 1_555
C18 C17 1_555 1_555
C19 C18 1_555 1_555
C20 C19 1_555 1_555
C21 N3 1_555 1_555
C22 O3 1_555 1_555
C23 C22 1_555 1_555
C24 C22 1_555 1_555
C25 C26 1_555 1_555
C26 H19 1_555 1_555
H1 C1 1_555 1_555
H2 C2 1_555 1_555
H3 C4 1_555 1_555
H4 C5 1_555 1_555
H5 C7 1_555 1_555
H6 C8 1_555 1_555
H7 C10 1_555 1_555
H8 C11 1_555 1_555
H9 C12 1_555 1_555
H10 C13 1_555 1_555
H11 C15 1_555 1_555
H12 C16 1_555 1_555
H13 C17 1_555 1_555
H14 C18 1_555 1_555
H15 C20 1_555 1_555
H16 C21 1_555 1_555
H17 C23 1_555 1_555
H18 C24 1_555 1_555
H20 C26 1_555 1_555
H21 C26 1_555 1_555
C24D C23 1_555 1_555
C22D C24D 1_555 1_555
O3D C22D 1_555 1_555
C19D O3D 1_555 1_555
C18D C19D 1_555 1_555
C17D C18D 1_555 1_555
N3D C17D 1_555 1_555
C21D N3D 1_555 1_555
C20D C19D 1_555 1_555
H15D C20D 1_555 1_555
H16D C21D 1_555 1_555
H13D C17D 1_555 1_555
H14D C18D 1_555 1_555
C23D C24 1_555 1_555
H17D C23D 1_555 1_555
H18D C24D 1_555 1_555
C26A C25 1_555 1_555
H19A C26A 1_555 1_555
H20A C26A 1_555 1_555
H21A C26A 1_555 1_555
N2G Cd1 1_555 1_555
Cd1G N2 1_555 1_555
Cd1D N3D 1_555 1_555
O4D Cd1D 1_555 1_555
O5D Cd1D 1_555 1_555
O6D N4D 1_555 1_555
N4D O4D 1_555 1_555
O7D Cd1D 1_555 1_555
O8D Cd1D 1_555 1_555
O9D N5D 1_555 1_555
N5D O7D 1_555 1_555
O1D C3D 1_555 1_555
O2D C9D 1_555 1_555
N1D Cd1D 1_555 1_555
N2D C12D 1_555 1_555
C1D N1D 1_555 1_555
C2D C1D 1_555 1_555
C3D C2D 1_555 1_555
C4D C3D 1_555 1_555
C5D N1D 1_555 1_555
C6D O1D 1_555 1_555
C7D C6D 1_555 1_555
C8D C7D 1_555 1_555
C9D C8D 1_555 1_555
C10D C9D 1_555 1_555
C11D C6D 1_555 1_555
C12D C13D 1_555 1_555
C13D C14D 1_555 1_555
C14D O2D 1_555 1_555
C15D C14D 1_555 1_555
C16D N2D 1_555 1_555
H1D C1D 1_555 1_555
H2D C2D 1_555 1_555
H3D C4D 1_555 1_555
H4D C5D 1_555 1_555
H5D C7D 1_555 1_555
H6D C8D 1_555 1_555
H7D C10D 1_555 1_555
H8D C11D 1_555 1_555
H9D C12D 1_555 1_555
H10D C13D 1_555 1_555
H11D C15D 1_555 1_555
H12D C16D 1_555 1_555
N2C Cd1D 1_555 1_555
Cd1C N2D 1_555 1_555
O8 N5 1_555 1_555
C4 C5 1_555 1_555
C10 C11 1_555 1_555
C15 C16 1_555 1_555
C20 C21 1_555 1_555
C22D C23D 1_555 1_555
C21D C20D 1_555 1_555
O5D N4D 1_555 1_555
O8D N5D 1_555 1_555
C4D C5D 1_555 1_555
C10D C11D 1_555 1_555
C15D C16D 1_555 1_555

#END
