
#######################################################################
#
#                 Cambridge Crystallographic Data Centre
#                                CCDC 
#
#######################################################################
#
# If this CIF has been generated from an entry in the Cambridge 
# Structural Database, then it will include bibliographic, chemical, 
# crystal, experimental, refinement or atomic coordinate data resulting 
# from the CCDC's data processing and validation procedures.
#
#######################################################################

data_WIZQUT
_symmetry_cell_setting           triclinic
_symmetry_space_group_name_H-M   'P -1'
_symmetry_Int_Tables_number      2
_space_group_name_Hall           '-P 1'
loop_
_symmetry_equiv_pos_site_id
_symmetry_equiv_pos_as_xyz
1 x,y,z
2 -x,-y,-z
_cell_length_a                   12.5529(4)
_cell_length_b                   17.2084(6)
_cell_length_c                   22.0910(7)
_cell_angle_alpha                69.984(2)
_cell_angle_beta                 82.111(2)
_cell_angle_gamma                87.395(2)
_cell_volume                     4441.31
loop_
_atom_site_label
_atom_site_type_symbol
_atom_site_fract_x
_atom_site_fract_y
_atom_site_fract_z
Zn1 Zn 0.48772(3) 0.45348(3) 0.23015(2)
O1 O -0.2164(2) 0.3049(2) 0.34160(14)
O2 O 0.4499(2) 0.1916(2) -0.01661(15)
O3 O 0.5717(2) 0.06060(19) 0.03777(15)
O4 O 0.6848(2) 0.05696(18) 0.13388(14)
O5 O 1.0057(2) 0.65210(19) -0.03893(13)
O6 O 1.1473(2) 0.6775(2) 0.03237(15)
O7 O 1.0966(2) 0.6465(2) 0.15979(15)
O8 O 0.5059(2) 0.67533(19) 0.49447(14)
O9 O 0.3718(2) 0.80418(18) 0.46026(14)
O10 O 0.2790(2) 0.84192(18) 0.35152(15)
N1 N 0.3553(2) 0.4971(2) 0.27570(16)
N2 N 0.3864(2) 0.3855(2) 0.20086(15)
N3 N 0.6080(2) 0.4343(2) 0.16262(15)
N4 N 0.5760(2) 0.5521(2) 0.23014(15)
N5 N -0.4867(2) 0.3526(2) 0.31769(15)
N6 N -0.5713(2) 0.3185(2) 0.35945(16)
N7 N -0.5356(2) 0.2500(2) 0.40200(16)
N8 N -0.6636(2) 0.1227(2) 0.38669(16)
N9 N -0.4786(3) -0.0893(2) 0.17588(19)
C1 C 0.3595(3) 0.5490(3) 0.31047(19)
C2 C 0.2580(3) 0.5447(3) 0.3515(2)
H1 H 0.2399 0.5737 0.3812
C3 C 0.1941(3) 0.4922(3) 0.3398(2)
H2 H 0.1223 0.4775 0.3595
C4 C 0.2548(3) 0.4626(3) 0.29192(19)
C5 C 0.2175(3) 0.4074(3) 0.2654(2)
C6 C 0.2781(3) 0.3731(3) 0.22252(19)
C7 C 0.2391(3) 0.3120(3) 0.19964(19)
H3 H 0.1672 0.2924 0.2073
C8 C 0.3227(3) 0.2879(3) 0.16549(19)
H4 H 0.3208 0.2486 0.1442
C9 C 0.4164(3) 0.3327(2) 0.16712(18)
C10 C 0.5227(3) 0.3219(2) 0.14054(18)
C11 C 0.6118(3) 0.3702(2) 0.13901(18)
C12 C 0.7178(3) 0.3642(2) 0.10641(19)
H5 H 0.7420 0.3241 0.0869
C13 C 0.7760(3) 0.4266(2) 0.10897(19)
H6 H 0.8491 0.4387 0.0912
C14 C 0.7079(3) 0.4717(2) 0.14352(18)
C15 C 0.7372(3) 0.5425(2) 0.15538(18)
C16 C 0.6739(3) 0.5800(2) 0.19566(18)
C17 C 0.7032(3) 0.6532(2) 0.2074(2)
H7 H 0.7658 0.6861 0.1880
C18 C 0.6244(3) 0.6661(3) 0.2512(2)
H8 H 0.6224 0.7089 0.2694
C19 C 0.5444(3) 0.6035(2) 0.26516(19)
C20 C 0.4462(3) 0.5993(2) 0.30568(19)
C21 C 0.1015(3) 0.3815(3) 0.2849(2)
C22 C 0.0647(3) 0.3328(3) 0.3482(2)
H9 H 0.1129 0.3169 0.3799
C23 C -0.0412(3) 0.3074(3) 0.3656(2)
H10 H -0.0657 0.2735 0.4089
C24 C -0.1117(3) 0.3321(3) 0.3190(2)
C25 C -0.0772(3) 0.3803(3) 0.2563(2)
H11 H -0.1258 0.3968 0.2248
C26 C 0.0303(3) 0.4048(3) 0.2395(2)
H12 H 0.0548 0.4381 0.1960
C27 C -0.2904(3) 0.3310(3) 0.2954(2)
H13 H -0.2747 0.3038 0.2622
H14 H -0.2866 0.3917 0.2733
C28 C -0.3990(3) 0.3058(3) 0.33353(19)
C29 C -0.4294(3) 0.2391(3) 0.3875(2)
H15 H -0.3855 0.1950 0.4098
C30 C -0.6101(3) 0.1976(3) 0.4556(2)
H16 H -0.6383 0.2285 0.4848
H17 H -0.5715 0.1483 0.4810
C31 C -0.7026(3) 0.1704(3) 0.4302(2)
H18 H -0.7527 0.1357 0.4673
H19 H -0.7425 0.2197 0.4060
C32 C -0.6471(3) 0.1620(3) 0.3224(2)
H20 H -0.6600 0.2197 0.3049
C33 C -0.6112(4) 0.1181(3) 0.2819(2)
H21 H -0.6000 0.1458 0.2362
C34 C -0.5913(3) 0.0343(3) 0.3071(2)
C35 C -0.6081(3) -0.0041(3) 0.3739(2)
H22 H -0.5947 -0.0616 0.3928
C36 C -0.6446(3) 0.0421(3) 0.4126(2)
H23 H -0.6563 0.0161 0.4584
C37 C -0.5534(3) -0.0115(3) 0.2628(2)
C38 C -0.5989(4) 0.0043(3) 0.2058(2)
H24 H -0.6561 0.0429 0.1963
C39 C -0.5606(4) -0.0364(3) 0.1634(2)
H25 H -0.5927 -0.0268 0.1250
C40 C -0.4335(4) -0.1063(3) 0.2311(2)
H26 H -0.3753 -0.1441 0.2390
C41 C -0.4713(4) -0.0692(3) 0.2758(2)
H27 H -0.4415 -0.0831 0.3154
C42 C -0.4329(5) -0.1291(3) 0.1277(3)
H28 H -0.3572 -0.1132 0.1132
H29 H -0.4732 -0.1109 0.0903
H30 H -0.4382 -0.1894 0.1480
C43 C 0.5412(3) 0.2548(2) 0.11114(19)
C44 C 0.4888(3) 0.2574(3) 0.05896(19)
H31 H 0.4448 0.3034 0.0402
C45 C 0.5004(3) 0.1930(3) 0.0341(2)
C46 C 0.5670(3) 0.1267(3) 0.0599(2)
C47 C 0.6219(3) 0.1248(2) 0.1114(2)
C48 C 0.6085(3) 0.1885(2) 0.13762(19)
H32 H 0.6448 0.1867 0.1731
C49 C 0.3641(4) 0.2503(3) -0.0345(3)
H33 H 0.3277 0.2386 -0.0669
H34 H 0.3938 0.3064 -0.0527
H35 H 0.3124 0.2456 0.0041
C50 C 0.6697(4) 0.0537(3) -0.0020(2)
H36 H 0.6791 0.1031 -0.0411
H37 H 0.6664 0.0046 -0.0146
H38 H 0.7306 0.0488 0.0224
C51 C 0.7556(4) 0.0578(3) 0.1795(2)
H39 H 0.8044 0.1053 0.1601
H40 H 0.7975 0.0066 0.1907
H41 H 0.7131 0.0622 0.2189
C52 C 0.8446(3) 0.5801(2) 0.12286(19)
C53 C 0.8705(3) 0.6009(2) 0.05576(19)
H42 H 0.8188 0.5935 0.0306
C54 C 0.9720(3) 0.6326(3) 0.0255(2)
C55 C 1.0462(3) 0.6468(3) 0.0621(2)
C56 C 1.0195(3) 0.6286(3) 0.1282(2)
C57 C 0.9199(3) 0.5934(2) 0.15934(19)
H43 H 0.9035 0.5786 0.2051
C58 C 0.9306(4) 0.6421(4) -0.0785(2)
H44 H 0.9635 0.6602 -0.1240
H45 H 0.8665 0.6754 -0.0742
H46 H 0.9101 0.5837 -0.0646
C59 C 1.1506(5) 0.7641(4) 0.0026(3)
H47 H 1.0966 0.7815 -0.0275
H48 H 1.2222 0.7810 -0.0214
H49 H 1.1353 0.7902 0.0360
C60 C 1.0658(4) 0.6421(4) 0.2251(2)
H50 H 1.0025 0.6769 0.2274
H51 H 1.1252 0.6615 0.2408
H52 H 1.0484 0.5847 0.2522
C61 C 0.4314(3) 0.6562(3) 0.3447(2)
C62 C 0.4832(3) 0.6396(3) 0.3992(2)
H53 H 0.5325 0.5950 0.4100
C63 C 0.4626(3) 0.6891(3) 0.43840(19)
C64 C 0.3919(3) 0.7556(2) 0.4215(2)
C65 C 0.3436(3) 0.7732(3) 0.3653(2)
C66 C 0.3618(3) 0.7232(3) 0.3272(2)
H54 H 0.3270 0.7346 0.2896
C67 C 0.5720(5) 0.6040(3) 0.5159(3)
H55 H 0.6353 0.6085 0.4835
H56 H 0.5309 0.5544 0.5214
H57 H 0.5951 0.6000 0.5575
C68 C 0.2665(4) 0.7900(3) 0.4972(2)
H58 H 0.2123 0.7974 0.4677
H59 H 0.2533 0.8294 0.5205
H60 H 0.2623 0.7334 0.5284
C69 C 0.2122(4) 0.8545(3) 0.3017(3)
H61 H 0.2572 0.8600 0.2606
H62 H 0.1698 0.9049 0.2971
H63 H 0.1637 0.8071 0.3133
Zn1_2 Zn -0.51228(3) 0.45348(3) 0.23015(2)
N5_2 N 0.5133(2) 0.3526(2) 0.31769(15)
P1 P 0.70551(9) 0.02726(8) 0.38588(6)
F1 F 0.7612(2) 0.11368(19) 0.37238(15)
F2 F 0.6477(3) -0.0595(2) 0.40125(15)
F3 F 0.7942(2) 0.00675(19) 0.33491(14)
F4 F 0.7779(2) -0.0153(2) 0.44246(14)
F5 F 0.6146(2) 0.04704(18) 0.43828(13)
F6 F 0.6317(2) 0.0698(2) 0.33042(13)
N10 N 0.8196(5) 0.8397(4) 0.1858(4)
C70 C 0.8884(7) 0.8601(5) 0.1459(5)
C71 C 0.9758(11) 0.8872(10) 0.0938(7)
H64 H 1.0442 0.8689 0.1107
H65 H 0.9753 0.9476 0.0749
H66 H 0.9673 0.8633 0.0603
N11 N 0.3148(6) 0.7966(4) 0.1669(3)
C72 C 0.3328(5) 0.7423(4) 0.1507(3)
C73 C 0.3559(5) 0.6729(4) 0.1292(3)
H67 H 0.2918 0.6586 0.1144
H68 H 0.3769 0.6256 0.1652
H69 H 0.4149 0.6871 0.0933
N12 N 0.3787(5) 0.4358(4) -0.0088(3)
C74 C 0.3637(5) 0.4793(4) 0.0201(3)
C75 C 0.3469(7) 0.5356(5) 0.0552(3)
H70 H 0.2865 0.5721 0.0406
H71 H 0.4120 0.5688 0.0475
H72 H 0.3308 0.5044 0.1018
N13 N 0.1153(6) 0.1025(6) 0.3521(5)
C76 C 0.0582(5) 0.1237(5) 0.3144(4)
C77 C -0.0149(5) 0.1531(4) 0.2666(3)
H73 H 0.0255 0.1827 0.2242
H74 H -0.0673 0.1906 0.2792
H75 H -0.0526 0.1060 0.2639
P2 P 0.14154(13) 0.08563(12) 0.11019(10)
F7 F 0.2694(9) 0.0899(8) 0.0838(7)
F8 F 0.0207(10) 0.0939(16) 0.1230(9)
F9 F 0.115(2) 0.0458(16) 0.0608(13)
F10 F 0.1319(6) 0.1743(6) 0.0442(6)
F11 F 0.1761(7) 0.1410(7) 0.1456(6)
F12 F 0.1554(13) 0.0064(11) 0.1586(8)
O11 O 0.7974(8) 0.5929(8) 0.4150(5)
C78 C 0.8221(11) 0.5167(9) 0.4051(6)
H76 H 0.8890 0.5243 0.3734
C79 C 0.8449(13) 0.4513(11) 0.4703(8)
H77 H 0.8857 0.4768 0.4933
H78 H 0.8868 0.4058 0.4617
H79 H 0.7767 0.4297 0.4970
C80 C 0.7415(12) 0.4863(12) 0.3813(9)
H80 H 0.6903 0.4534 0.4177
H81 H 0.7740 0.4514 0.3567
H82 H 0.7039 0.5326 0.3528
C81 C 0.8384(12) 0.6676(11) 0.3660(9)
H83 H 0.8309 0.6646 0.3224
C82 C 0.9611(12) 0.6681(12) 0.3729(8)
H84 H 0.9697 0.6571 0.4185
H85 H 0.9921 0.7222 0.3463
H86 H 0.9983 0.6251 0.3582
C83 C 0.7730(13) 0.7327(12) 0.3758(9)
H87 H 0.6977 0.7148 0.3869
H88 H 0.7807 0.7811 0.3360
H89 H 0.7954 0.7472 0.4114
N16 N 0.039(2) 0.1741(18) 0.5297(15)
C88 C 0.088(2) 0.2303(17) 0.5024(12)
C89 C 0.1630(17) 0.2940(16) 0.4955(12)
H96 H 0.1929 0.3186 0.4497
H97 H 0.2213 0.2701 0.5215
H98 H 0.1262 0.3367 0.5106
N16A N -0.039(2) -0.1741(18) 0.4703(15)
C88A C -0.088(2) -0.2303(17) 0.4976(12)
C89A C -0.1630(17) -0.2940(16) 0.5045(12)
H96A H -0.1929 -0.3186 0.5503
H97A H -0.2213 -0.2701 0.4785
H98A H -0.1262 -0.3367 0.4894
F13? F 0.2622(16) 0.1070(16) 0.0985(12)
F14? F 0.0245(11) 0.0621(13) 0.1424(9)
F15? F 0.1792(13) -0.0047(12) 0.1224(11)
F16? F 0.1340(9) 0.0848(16) 0.0449(7)
F17? F 0.1216(13) 0.1702(7) 0.1041(9)
F18? F 0.1597(9) 0.0646(10) 0.1904(5)
N14? N 0.7177(11) 0.7764(10) 0.3544(7)
C84? C 0.7924(13) 0.8098(12) 0.3429(9)
C85? C 0.8987(12) 0.8436(12) 0.3252(8)
H90? H 0.9148 0.8659 0.2778
H91? H 0.9506 0.8001 0.3427
H92? H 0.9037 0.8879 0.3431
N15? N 0.026(2) 0.1702(18) 0.5157(15)
C86? C 0.0025(18) 0.1073(16) 0.5192(13)
C87? C -0.0193(17) 0.0328(17) 0.5110(13)
H93? H -0.0443 0.0443 0.4686
H94? H -0.0751 0.0024 0.5455
H95? H 0.0463 -0.0007 0.5130
loop_
_geom_bond_atom_site_label_1
_geom_bond_atom_site_label_2
_geom_bond_site_symmetry_1
_geom_bond_site_symmetry_2
Zn1 N1 1_555 1_555
O1 C24 1_555 1_555
O2 C45 1_555 1_555
O3 C46 1_555 1_555
O4 C47 1_555 1_555
O5 C54 1_555 1_555
O6 C55 1_555 1_555
O7 C56 1_555 1_555
O8 C63 1_555 1_555
O9 C64 1_555 1_555
O10 C65 1_555 1_555
N1 C1 1_555 1_555
N2 Zn1 1_555 1_555
N3 Zn1 1_555 1_555
N4 Zn1 1_555 1_555
N5 N6 1_555 1_555
N6 N7 1_555 1_555
N7 C29 1_555 1_555
N8 C31 1_555 1_555
N9 C39 1_555 1_555
C1 C2 1_555 1_555
C2 H1 1_555 1_555
C3 C2 1_555 1_555
H2 C3 1_555 1_555
C4 N1 1_555 1_555
C5 C4 1_555 1_555
C6 N2 1_555 1_555
C7 C6 1_555 1_555
H3 C7 1_555 1_555
C8 C7 1_555 1_555
H4 C8 1_555 1_555
C9 N2 1_555 1_555
C10 C9 1_555 1_555
C11 N3 1_555 1_555
C12 C11 1_555 1_555
H5 C12 1_555 1_555
C13 C12 1_555 1_555
H6 C13 1_555 1_555
C14 N3 1_555 1_555
C15 C14 1_555 1_555
C16 N4 1_555 1_555
C17 C16 1_555 1_555
H7 C17 1_555 1_555
C18 C17 1_555 1_555
H8 C18 1_555 1_555
C19 N4 1_555 1_555
C20 C1 1_555 1_555
C21 C5 1_555 1_555
C22 C21 1_555 1_555
H9 C22 1_555 1_555
C23 C22 1_555 1_555
H10 C23 1_555 1_555
C24 C23 1_555 1_555
C25 C24 1_555 1_555
H11 C25 1_555 1_555
C26 C21 1_555 1_555
H12 C26 1_555 1_555
C27 O1 1_555 1_555
H13 C27 1_555 1_555
H14 C27 1_555 1_555
C28 N5 1_555 1_555
C29 C28 1_555 1_555
H15 C29 1_555 1_555
C30 N7 1_555 1_555
H16 C30 1_555 1_555
H17 C30 1_555 1_555
C31 C30 1_555 1_555
H18 C31 1_555 1_555
H19 C31 1_555 1_555
C32 N8 1_555 1_555
H20 C32 1_555 1_555
C33 C32 1_555 1_555
H21 C33 1_555 1_555
C34 C33 1_555 1_555
C35 C34 1_555 1_555
H22 C35 1_555 1_555
C36 N8 1_555 1_555
H23 C36 1_555 1_555
C37 C34 1_555 1_555
C38 C37 1_555 1_555
H24 C38 1_555 1_555
C39 C38 1_555 1_555
H25 C39 1_555 1_555
C40 N9 1_555 1_555
H26 C40 1_555 1_555
C41 C37 1_555 1_555
H27 C41 1_555 1_555
C42 N9 1_555 1_555
H28 C42 1_555 1_555
H29 C42 1_555 1_555
H30 C42 1_555 1_555
C43 C10 1_555 1_555
C44 C43 1_555 1_555
H31 C44 1_555 1_555
C45 C44 1_555 1_555
C46 C45 1_555 1_555
C47 C46 1_555 1_555
C48 C43 1_555 1_555
H32 C48 1_555 1_555
C49 O2 1_555 1_555
H33 C49 1_555 1_555
H34 C49 1_555 1_555
H35 C49 1_555 1_555
C50 O3 1_555 1_555
H36 C50 1_555 1_555
H37 C50 1_555 1_555
H38 C50 1_555 1_555
C51 O4 1_555 1_555
H39 C51 1_555 1_555
H40 C51 1_555 1_555
H41 C51 1_555 1_555
C52 C15 1_555 1_555
C53 C52 1_555 1_555
H42 C53 1_555 1_555
C54 C53 1_555 1_555
C55 C54 1_555 1_555
C56 C55 1_555 1_555
C57 C52 1_555 1_555
H43 C57 1_555 1_555
C58 O5 1_555 1_555
H44 C58 1_555 1_555
H45 C58 1_555 1_555
H46 C58 1_555 1_555
C59 O6 1_555 1_555
H47 C59 1_555 1_555
H48 C59 1_555 1_555
H49 C59 1_555 1_555
C60 O7 1_555 1_555
H50 C60 1_555 1_555
H51 C60 1_555 1_555
H52 C60 1_555 1_555
C61 C20 1_555 1_555
C62 C61 1_555 1_555
H53 C62 1_555 1_555
C63 C62 1_555 1_555
C64 C63 1_555 1_555
C65 C64 1_555 1_555
C66 C61 1_555 1_555
H54 C66 1_555 1_555
C67 O8 1_555 1_555
H55 C67 1_555 1_555
H56 C67 1_555 1_555
H57 C67 1_555 1_555
C68 O9 1_555 1_555
H58 C68 1_555 1_555
H59 C68 1_555 1_555
H60 C68 1_555 1_555
C69 O10 1_555 1_555
H61 C69 1_555 1_555
H62 C69 1_555 1_555
H63 C69 1_555 1_555
P1 F1 1_555 1_555
F2 P1 1_555 1_555
F3 P1 1_555 1_555
F4 P1 1_555 1_555
F5 P1 1_555 1_555
F6 P1 1_555 1_555
N10 C70 1_555 1_555
C70 C71 1_555 1_555
C71 H64 1_555 1_555
H65 C71 1_555 1_555
H66 C71 1_555 1_555
N11 C72 1_555 1_555
C72 C73 1_555 1_555
C73 H67 1_555 1_555
H68 C73 1_555 1_555
H69 C73 1_555 1_555
N12 C74 1_555 1_555
C74 C75 1_555 1_555
C75 H70 1_555 1_555
H71 C75 1_555 1_555
H72 C75 1_555 1_555
N13 C76 1_555 1_555
C76 C77 1_555 1_555
C77 H73 1_555 1_555
H74 C77 1_555 1_555
H75 C77 1_555 1_555
P2 F7 1_555 1_555
F8 P2 1_555 1_555
F9 P2 1_555 1_555
F10 P2 1_555 1_555
F11 P2 1_555 1_555
F12 P2 1_555 1_555
O11 C78 1_555 1_555
C78 H76 1_555 1_555
C79 C78 1_555 1_555
H77 C79 1_555 1_555
H78 C79 1_555 1_555
H79 C79 1_555 1_555
C80 C78 1_555 1_555
H80 C80 1_555 1_555
H81 C80 1_555 1_555
H82 C80 1_555 1_555
C81 O11 1_555 1_555
H83 C81 1_555 1_555
C82 C81 1_555 1_555
H84 C82 1_555 1_555
H85 C82 1_555 1_555
H86 C82 1_555 1_555
C83 C81 1_555 1_555
H87 C83 1_555 1_555
H88 C83 1_555 1_555
H89 C83 1_555 1_555
N16 C88 1_555 1_555
C88 C89 1_555 1_555
C89 H96 1_555 1_555
H97 C89 1_555 1_555
H98 C89 1_555 1_555
Zn1_2 N5 1_555 1_555
N5_2 Zn1 1_555 1_555
N16A C88A 1_555 1_555
C88A C89A 1_555 1_555
C89A H96A 1_555 1_555
H97A C89A 1_555 1_555
H98A C89A 1_555 1_555
C3 C4 1_555 1_555
C5 C6 1_555 1_555
C8 C9 1_555 1_555
C10 C11 1_555 1_555
C13 C14 1_555 1_555
C15 C16 1_555 1_555
C18 C19 1_555 1_555
C19 C20 1_555 1_555
C25 C26 1_555 1_555
C27 C28 1_555 1_555
C35 C36 1_555 1_555
C40 C41 1_555 1_555
C47 C48 1_555 1_555
C56 C57 1_555 1_555
C65 C66 1_555 1_555

#END
