
#######################################################################
#
#                 Cambridge Crystallographic Data Centre
#                                CCDC 
#
#######################################################################
#
# If this CIF has been generated from an entry in the Cambridge 
# Structural Database, then it will include bibliographic, chemical, 
# crystal, experimental, refinement or atomic coordinate data resulting 
# from the CCDC's data processing and validation procedures.
#
#######################################################################

data_WIZRON
_symmetry_cell_setting           monoclinic
_symmetry_space_group_name_H-M   'C 2/c'
_symmetry_Int_Tables_number      15
_space_group_name_Hall           '-C 2yn'
loop_
_symmetry_equiv_pos_site_id
_symmetry_equiv_pos_as_xyz
1 x,y,z
2 1/2+x,1/2+y,z
3 -x,y,1/2-z
4 1/2-x,1/2+y,1/2-z
5 -x,-y,-z
6 1/2-x,1/2-y,-z
7 x,-y,1/2+z
8 1/2+x,1/2-y,1/2+z
_cell_length_a                   48.398(15)
_cell_length_b                   9.089(2)
_cell_length_c                   20.598(6)
_cell_angle_alpha                90
_cell_angle_beta                 103.200(10)
_cell_angle_gamma                90
_cell_volume                     8821.44
loop_
_atom_site_label
_atom_site_type_symbol
_atom_site_fract_x
_atom_site_fract_y
_atom_site_fract_z
O7 O 0.64402(6) 0.8246(3) 0.51341(13)
H3 H 0.6381 0.7882 0.5440
H4 H 0.6500 0.7580 0.4935
Mn1 Mn 0.648562(11) 0.41289(6) 0.51035(2)
O1 O 0.66266(5) 0.5844(3) 0.45399(11)
O2 O 0.70748(5) 0.5903(3) 0.44417(12)
O3 O 0.65765(6) 0.4702(3) 0.10116(11)
O4 O 0.62358(12) 0.3337(5) 0.12178(16)
O5 O 0.80478(5) -0.5497(3) 0.28409(12)
H1 H 0.7975 -0.5713 0.2453
O6 O 0.39480(6) 0.0139(4) 0.56796(15)
H2 H 0.3828 0.0538 0.5388
N1 N 0.64987(6) 0.2597(3) 0.42332(13)
N2 N 0.71343(6) -0.0949(3) 0.35027(13)
N3 N 0.74551(6) -0.0806(3) 0.44653(13)
H5 H 0.7608 -0.0958 0.4765
N4 N 0.68967(6) 0.2888(3) 0.53848(13)
N5 N 0.60125(6) 0.4417(3) 0.47014(14)
N6 N 0.50889(6) 0.2640(4) 0.49973(15)
H6 H 0.4963 0.3127 0.4718
N7 N 0.52850(6) 0.1071(3) 0.58045(15)
N8 N 0.62546(6) 0.2431(3) 0.56234(13)
C1 C 0.68180(7) 0.5800(4) 0.42007(15)
C2 C 0.67164(7) 0.5539(4) 0.34578(15)
C3 C 0.68747(8) 0.4623(4) 0.31553(18)
H8 H 0.7046 0.4257 0.3404
C4 C 0.67855(10) 0.4222(5) 0.24807(19)
H9 H 0.6904 0.3659 0.2282
C5 C 0.65281(9) 0.4650(4) 0.21179(17)
C6 C 0.63544(8) 0.5580(4) 0.24055(17)
C7 C 0.60821(10) 0.6066(6) 0.2051(2)
H10 H 0.6006 0.5699 0.1626
C8 C 0.59313(10) 0.7050(7) 0.2321(2)
H11 H 0.5750 0.7312 0.2087
C9 C 0.60437(9) 0.7686(6) 0.2949(2)
H12 H 0.5944 0.8414 0.3115
C10 C 0.63004(8) 0.7224(4) 0.33118(18)
H13 H 0.6375 0.7647 0.3726
C11 C 0.64569(8) 0.6109(4) 0.30714(16)
C12 C 0.64374(11) 0.4187(5) 0.13943(18)
C13 C 0.63068(8) 0.2504(4) 0.36630(17)
H14 H 0.6143 0.3071 0.3612
C14 C 0.63352(8) 0.1611(4) 0.31385(18)
H15 H 0.6195 0.1594 0.2745
C15 C 0.65707(7) 0.0760(4) 0.32064(16)
H16 H 0.6592 0.0140 0.2862
C16 C 0.67804(7) 0.0824(4) 0.38000(15)
C17 C 0.67358(7) 0.1766(4) 0.43056(15)
C18 C 0.70380(7) -0.0002(4) 0.39249(15)
C19 C 0.73844(7) -0.1426(4) 0.38480(16)
C20 C 0.75594(7) -0.2469(4) 0.35910(15)
C21 C 0.74440(8) -0.3234(4) 0.30051(17)
H17 H 0.7256 -0.3066 0.2787
C22 C 0.76036(7) -0.4235(4) 0.27433(16)
H18 H 0.7523 -0.4730 0.2350
C23 C 0.78818(7) -0.4505(4) 0.30626(16)
C24 C 0.80001(8) -0.3755(4) 0.36495(17)
H19 H 0.8187 -0.3932 0.3868
C25 C 0.78397(8) -0.2747(4) 0.39081(17)
H20 H 0.7921 -0.2249 0.4300
C26 C 0.72353(7) 0.0112(4) 0.45189(15)
C27 C 0.72016(7) 0.1082(4) 0.50390(15)
C28 C 0.69495(7) 0.1906(4) 0.49268(15)
C29 C 0.73988(8) 0.1291(4) 0.56409(16)
H21 H 0.7567 0.0751 0.5734
C30 C 0.73462(8) 0.2288(4) 0.60954(17)
H22 H 0.7478 0.2448 0.6494
C31 C 0.70901(8) 0.3062(4) 0.59476(16)
H23 H 0.7054 0.3731 0.6260
C32 C 0.58966(8) 0.5338(4) 0.42155(17)
H24 H 0.6017 0.5940 0.4039
C33 C 0.56062(8) 0.5453(5) 0.39549(19)
H25 H 0.5536 0.6091 0.3603
C34 C 0.54270(8) 0.4625(4) 0.42190(18)
H26 H 0.5232 0.4703 0.4059
C35 C 0.55415(7) 0.3645(4) 0.47394(17)
C36 C 0.58368(7) 0.3551(4) 0.49587(16)
C37 C 0.53799(7) 0.2739(4) 0.50782(17)
C38 C 0.50402(8) 0.1628(4) 0.54421(18)
C39 C 0.47567(8) 0.1240(4) 0.55059(18)
C40 C 0.45204(8) 0.1852(5) 0.5075(2)
H27 H 0.4546 0.2507 0.4746
C41 C 0.42516(8) 0.1502(4) 0.51280(19)
H28 H 0.4096 0.1918 0.4835
C42 C 0.42095(8) 0.0535(4) 0.56145(19)
C43 C 0.44413(9) -0.0074(5) 0.6052(2)
H29 H 0.4415 -0.0719 0.6383
C44 C 0.47111(9) 0.0282(5) 0.59918(19)
H30 H 0.4866 -0.0133 0.6285
C45 C 0.54997(7) 0.1768(4) 0.55707(16)
C46 C 0.58004(7) 0.1575(4) 0.57679(16)
C47 C 0.59665(7) 0.2488(4) 0.54633(15)
C48 C 0.59376(8) 0.0503(4) 0.62186(18)
H31 H 0.5833 -0.0148 0.6417
C49 C 0.62277(8) 0.0435(4) 0.63611(18)
H32 H 0.6324 -0.0275 0.6653
C50 C 0.63774(8) 0.1443(4) 0.60637(17)
H33 H 0.6575 0.1416 0.6182
Mn1F Mn 0.648562(11) 0.58711(6) 0.01035(2)
O3F O 0.65765(6) 0.5298(3) 0.60116(11)
H7? H 0.5305 0.0422 0.6115
O8? O 0.57620(11) 0.3027(6) 0.1777(3)
H34? H 0.5886 0.3112 0.1568
O9? O 0.54490(15) 0.4380(7) 0.1031(3)
O10? O 0.47578(12) 0.3147(7) 0.3757(3)
O11? O 0.46652(12) 0.0992(7) 0.3243(3)
H35? H 0.4575 0.0738 0.3517
C51? C 0.55115(11) 0.3657(5) 0.1545(2)
C52? C 0.53036(7) 0.3410(4) 0.19789(16)
C53? C 0.52596(9) 0.1961(4) 0.2146(2)
H36? H 0.5352 0.1200 0.1981
C54? C 0.50771(9) 0.1650(3) 0.2560(2)
H37? H 0.5048 0.0681 0.2672
C55? C 0.49387(8) 0.2788(4) 0.28073(17)
C56? C 0.49827(9) 0.4237(4) 0.2640(2)
C57? C 0.51652(9) 0.4548(3) 0.22257(19)
C58? C 0.52092(14) 0.5997(4) 0.2058(3)
H38? H 0.5331 0.6205 0.1781
C59? C 0.50708(19) 0.7134(3) 0.2305(4)
H39? H 0.5100 0.8104 0.2193
C60? C 0.48883(19) 0.6823(4) 0.2719(4)
H40? H 0.4796 0.7584 0.2884
C61? C 0.48443(14) 0.5374(5) 0.2887(3)
H41? H 0.4722 0.5166 0.3164
C62? C 0.47719(9) 0.2234(7) 0.3285(3)
loop_
_geom_bond_atom_site_label_1
_geom_bond_atom_site_label_2
_geom_bond_site_symmetry_1
_geom_bond_site_symmetry_2
Mn1 O1 1_555 1_555
O1 C1 1_555 1_555
O2 C1 1_555 1_555
O3 C12 1_555 1_555
O4 C12 1_555 1_555
O5 H1 1_555 1_555
O6 H2 1_555 1_555
O7 H3 1_555 1_555
H4 O7 1_555 1_555
N1 Mn1 1_555 1_555
N2 C18 1_555 1_555
N3 H5 1_555 1_555
N4 Mn1 1_555 1_555
N5 Mn1 1_555 1_555
N6 H6 1_555 1_555
N7 C38 1_555 1_555
N8 Mn1 1_555 1_555
C1 C2 1_555 1_555
C2 C3 1_555 1_555
C3 H8 1_555 1_555
C4 C3 1_555 1_555
H9 C4 1_555 1_555
C5 C4 1_555 1_555
C6 C5 1_555 1_555
C7 C6 1_555 1_555
H10 C7 1_555 1_555
C8 C7 1_555 1_555
H11 C8 1_555 1_555
C9 C8 1_555 1_555
H12 C9 1_555 1_555
C10 C9 1_555 1_555
H13 C10 1_555 1_555
C11 C2 1_555 1_555
C12 C5 1_555 1_555
C13 N1 1_555 1_555
H14 C13 1_555 1_555
C14 C13 1_555 1_555
H15 C14 1_555 1_555
C15 C14 1_555 1_555
H16 C15 1_555 1_555
C16 C15 1_555 1_555
C17 N1 1_555 1_555
C18 C16 1_555 1_555
C19 N2 1_555 1_555
C20 C19 1_555 1_555
C21 C20 1_555 1_555
H17 C21 1_555 1_555
C22 C21 1_555 1_555
H18 C22 1_555 1_555
C23 O5 1_555 1_555
C24 C23 1_555 1_555
H19 C24 1_555 1_555
C25 C20 1_555 1_555
H20 C25 1_555 1_555
C26 N3 1_555 1_555
C27 C26 1_555 1_555
C28 N4 1_555 1_555
C29 C27 1_555 1_555
H21 C29 1_555 1_555
C30 C29 1_555 1_555
H22 C30 1_555 1_555
C31 N4 1_555 1_555
H23 C31 1_555 1_555
C32 N5 1_555 1_555
H24 C32 1_555 1_555
C33 C32 1_555 1_555
H25 C33 1_555 1_555
C34 C33 1_555 1_555
H26 C34 1_555 1_555
C35 C34 1_555 1_555
C36 N5 1_555 1_555
C37 N6 1_555 1_555
C38 N6 1_555 1_555
C39 C38 1_555 1_555
C40 C39 1_555 1_555
H27 C40 1_555 1_555
C41 C40 1_555 1_555
H28 C41 1_555 1_555
C42 O6 1_555 1_555
C43 C42 1_555 1_555
H29 C43 1_555 1_555
C44 C39 1_555 1_555
H30 C44 1_555 1_555
C45 N7 1_555 1_555
C46 C45 1_555 1_555
C47 N8 1_555 1_555
C48 C46 1_555 1_555
H31 C48 1_555 1_555
C49 C48 1_555 1_555
H32 C49 1_555 1_555
C50 N8 1_555 1_555
H33 C50 1_555 1_555
Mn1F O3 1_555 1_555
O3F Mn1 1_555 1_555
N3 C19 1_555 1_555
C6 C11 1_555 1_555
C10 C11 1_555 1_555
C16 C17 1_555 1_555
C17 C28 1_555 1_555
C18 C26 1_555 1_555
C22 C23 1_555 1_555
C24 C25 1_555 1_555
C27 C28 1_555 1_555
C30 C31 1_555 1_555
C35 C36 1_555 1_555
C35 C37 1_555 1_555
C36 C47 1_555 1_555
C37 C45 1_555 1_555
C41 C42 1_555 1_555
C43 C44 1_555 1_555
C46 C47 1_555 1_555
C49 C50 1_555 1_555

#END
