
#######################################################################
#
#                 Cambridge Crystallographic Data Centre
#                                CCDC 
#
#######################################################################
#
# If this CIF has been generated from an entry in the Cambridge 
# Structural Database, then it will include bibliographic, chemical, 
# crystal, experimental, refinement or atomic coordinate data resulting 
# from the CCDC's data processing and validation procedures.
#
#######################################################################

data_WIZSUU
_symmetry_cell_setting           triclinic
_symmetry_space_group_name_H-M   'P -1'
_symmetry_Int_Tables_number      2
_space_group_name_Hall           '-P 1'
loop_
_symmetry_equiv_pos_site_id
_symmetry_equiv_pos_as_xyz
1 x,y,z
2 -x,-y,-z
_cell_length_a                   8.150(4)
_cell_length_b                   15.896(8)
_cell_length_c                   20.474(9)
_cell_angle_alpha                69.48(2)
_cell_angle_beta                 83.23(2)
_cell_angle_gamma                87.34(2)
_cell_volume                     2466.8
loop_
_atom_site_label
_atom_site_type_symbol
_atom_site_fract_x
_atom_site_fract_y
_atom_site_fract_z
Co1 Co 0.65991(10) 0.83605(6) 0.38528(4)
Co2 Co 0.73442(10) 0.73830(5) 0.25912(4)
Co3 Co 0.81551(9) 0.64935(5) 0.12644(4)
O1 O 0.7209(5) 0.7077(3) 0.4380(2)
O2 O 0.6863(5) 0.6431(3) 0.35964(19)
O3 O 0.8855(5) 0.8859(3) 0.3400(2)
O4 O 0.9352(5) 0.7868(3) 0.2850(2)
O5 O 1.5779(4) 0.8357(3) 0.28902(17)
O6 O 1.5515(5) 0.9617(3) 0.3092(2)
O7 O 0.7836(5) 0.8353(3) 0.16135(18)
O8 O 0.7492(5) 0.7790(3) 0.07753(19)
O9 O 0.5385(5) 0.6889(3) 0.2308(2)
O10 O 0.5899(5) 0.5970(3) 0.1704(2)
O11 O -0.1084(4) 0.6433(3) 0.22552(18)
O12 O -0.0707(5) 0.5232(3) 0.1982(2)
N1 N 0.6627(6) 0.8841(3) 0.4684(2)
N2 N 0.4137(6) 0.8036(3) 0.4390(2)
N3 N 0.2967(6) 0.8937(3) 0.6757(2)
H1 H 0.3509 0.9185 0.6977
N4 N 0.0891(6) 0.8240(3) 0.6515(2)
N5 N 0.8226(5) 0.6114(3) 0.0378(2)
N6 N 1.0624(6) 0.6873(3) 0.0749(2)
N7 N 1.2030(6) 0.6180(3) -0.1701(2)
H2 H 1.1514 0.5949 -0.1939
N8 N 1.4042(6) 0.6844(3) -0.1400(2)
C1 C 0.7076(7) 0.6401(4) 0.4194(3)
C2 C 0.7213(8) 0.5488(4) 0.4747(3)
H3 H 0.8212 0.5199 0.4619
H4 H 0.7335 0.5566 0.5188
C3 C 0.5812(9) 0.4880(5) 0.4860(4)
H5 H 0.5687 0.4816 0.4414
H6 H 0.6112 0.4293 0.5176
C4 C 0.9721(7) 0.8537(4) 0.2988(3)
C5 C 1.1306(8) 0.9023(6) 0.2622(4)
H7 H 1.1023 0.9641 0.2366
H8 H 1.1976 0.9032 0.2981
C6 C 1.2297(10) 0.8697(7) 0.2155(4)
H9 H 1.1563 0.8615 0.1843
H10 H 1.2648 0.8100 0.2434
C7 C 1.3780(7) 0.9137(4) 0.1705(3)
H11 H 1.3436 0.9539 0.1264
H12 H 1.4478 0.8678 0.1601
C8 C 1.4824(7) 0.9668(4) 0.1990(3)
H13 H 1.5793 0.9881 0.1656
H14 H 1.4193 1.0192 0.2011
C9 C 1.5386(6) 0.9193(4) 0.2688(3)
C10 C 0.7904(7) 0.9207(4) 0.4835(3)
H15 H 0.8879 0.9292 0.4534
C11 C 0.7861(7) 0.9467(4) 0.5417(3)
H16 H 0.8792 0.9712 0.5502
C12 C 0.6438(7) 0.9360(4) 0.5862(3)
H17 H 0.6385 0.9533 0.6253
C13 C 0.5047(7) 0.8983(4) 0.5718(3)
C14 C 0.5209(7) 0.8710(4) 0.5128(3)
C15 C 0.3495(7) 0.8799(4) 0.6141(3)
C16 C 0.1398(7) 0.8599(4) 0.6950(3)
C17 C 0.0455(8) 0.8572(4) 0.7621(3)
C18 C 0.1196(9) 0.8753(4) 0.8142(3)
H18 H 0.2295 0.8931 0.8064
C19 C 0.0269(11) 0.8664(5) 0.8771(3)
H19 H 0.0742 0.8794 0.9117
C20 C -0.1355(11) 0.8385(5) 0.8894(4)
H20 H -0.1946 0.8306 0.9328
C21 C -0.2119(9) 0.8221(5) 0.8379(4)
H21 H -0.3222 0.8051 0.8458
C22 C -0.1186(8) 0.8319(5) 0.7742(3)
H22 H -0.1676 0.8212 0.7391
C23 C 0.2206(7) 0.8376(4) 0.5996(3)
C24 C 0.2344(7) 0.8094(4) 0.5404(3)
C25 C 0.3856(7) 0.8275(4) 0.4970(3)
C26 C 0.1144(7) 0.7657(4) 0.5222(3)
H23 H 0.0127 0.7527 0.5493
C27 C 0.1462(8) 0.7416(5) 0.4638(3)
H24 H 0.0667 0.7118 0.4512
C28 C 0.2976(7) 0.7620(5) 0.4240(3)
H25 H 0.3177 0.7453 0.3845
C29 C 0.7730(7) 0.8424(4) 0.1000(3)
C30 C 0.7970(8) 0.9353(4) 0.0440(3)
H26 H 0.7550 0.9365 0.0013
H27 H 0.7370 0.9799 0.0600
C31 C 0.9788(8) 0.9563(4) 0.0300(3)
H28 H 1.0380 0.9075 0.0193
H29 H 1.0167 0.9593 0.0722
C32 C 0.5034(7) 0.6247(4) 0.2143(3)
C33 C 0.3462(7) 0.5743(5) 0.2488(3)
H30 H 0.2811 0.5736 0.2122
H31 H 0.3748 0.5126 0.2745
C34 C 0.2435(9) 0.6090(6) 0.2963(4)
H32 H 0.2078 0.6683 0.2680
H33 H 0.3162 0.6178 0.3275
C35 C 0.0948(7) 0.5637(5) 0.3412(3)
H34 H 0.0245 0.6090 0.3522
H35 H 0.1296 0.5229 0.3851
C36 C -0.0088(7) 0.5111(4) 0.3121(3)
H36 H 0.0548 0.4594 0.3087
H37 H -0.1056 0.4888 0.3453
C37 C -0.0648(6) 0.5623(4) 0.2419(3)
C38 C 0.6984(7) 0.5767(4) 0.0194(3)
H38 H 0.5997 0.5662 0.0487
C39 C 0.7067(7) 0.5549(4) -0.0414(3)
H39 H 0.6156 0.5314 -0.0524
C40 C 0.8518(7) 0.5691(4) -0.0841(3)
H40 H 0.8612 0.5543 -0.1246
C41 C 0.9874(7) 0.6060(4) -0.0672(3)
C42 C 0.9655(7) 0.6271(4) -0.0055(3)
C43 C 1.1452(7) 0.6283(4) -0.1076(3)
C44 C 1.3593(7) 0.6522(4) -0.1866(3)
C45 C 1.4589(7) 0.6573(4) -0.2526(3)
C46 C 1.3919(8) 0.6420(4) -0.3071(3)
H41 H 1.2816 0.6260 -0.3022
C47 C 1.4920(9) 0.6507(4) -0.3684(3)
H42 H 1.4488 0.6396 -0.4046
C48 C 1.6558(9) 0.6759(4) -0.3768(3)
H43 H 1.7202 0.6832 -0.4191
C49 C 1.7243(9) 0.6902(4) -0.3233(3)
H44 H 1.8348 0.7059 -0.3285
C50 C 1.6238(8) 0.6806(4) -0.2610(3)
H45 H 1.6685 0.6900 -0.2244
C51 C 1.2684(7) 0.6692(4) -0.0897(3)
C52 C 1.2497(6) 0.6902(4) -0.0268(3)
C53 C 1.0969(6) 0.6689(4) 0.0145(3)
C54 C 1.3660(7) 0.7308(4) -0.0048(3)
H46 H 1.4686 0.7455 -0.0309
C55 C 1.3313(8) 0.7499(4) 0.0560(3)
H47 H 1.4090 0.7779 0.0712
C56 C 1.1771(8) 0.7264(4) 0.0940(3)
H48 H 1.1540 0.7391 0.1352
Co1A Co 0.34009(10) 0.16395(6) 0.61472(4)
Co1_2 Co 1.65991(10) 0.83605(6) 0.38528(4)
Co1_3 Co -0.34009(10) 0.83605(6) 0.38528(4)
Co2A Co 0.26558(10) 0.26170(5) 0.74088(4)
Co2_2 Co 1.73442(10) 0.73830(5) 0.25912(4)
Co2_3 Co -0.26558(10) 0.73830(5) 0.25912(4)
Co2A_2 Co 1.26558(10) 1.26170(5) -0.25912(4)
Co3A Co 1.18449(9) 1.35065(5) -0.12644(4)
Co3_2 Co -0.18449(9) 0.64935(5) 0.12644(4)
Co3_3 Co 1.81551(9) 0.64935(5) 0.12644(4)
O1A O 0.2791(5) 0.2923(3) 0.5620(2)
O2A O 0.3137(5) 0.3569(3) 0.64036(19)
O3_2 O -0.1145(5) 0.8859(3) 0.3400(2)
O3A O 0.1145(5) 0.1141(3) 0.6600(2)
O4_2 O -0.0648(5) 0.7868(3) 0.2850(2)
O4A O 0.0648(5) 0.2132(3) 0.7150(2)
O5_2 O 0.5779(4) 0.8357(3) 0.28902(17)
O5A O 0.4221(4) 0.1643(3) 0.71098(17)
O6_2 O 0.5515(5) 0.9617(3) 0.3092(2)
O6A O 0.4485(5) 0.0383(3) 0.6908(2)
O7A O 1.2164(5) 1.1647(3) -0.16135(18)
O7A_2 O 0.2164(5) 0.1647(3) 0.83865(18)
O8A O 1.2508(5) 1.2210(3) -0.07753(19)
O9_2 O 1.5385(5) 0.6889(3) 0.2308(2)
O9A O 0.4615(5) 0.3111(3) 0.7692(2)
O10_2 O 1.5899(5) 0.5970(3) 0.1704(2)
O10A O 1.4101(5) 1.4030(3) -0.1704(2)
O11_2 O 0.8916(4) 0.6433(3) 0.22552(18)
O11A O 0.1084(4) 0.3567(3) 0.77448(18)
O11A_2 O 1.1084(4) 1.3567(3) -0.22552(18)
O12_2 O 0.9293(5) 0.5232(3) 0.1982(2)
O12A O 1.0707(5) 1.4768(3) -0.1982(2)
N1A N 0.3373(6) 0.1159(3) 0.5316(2)
N2A N 0.5863(6) 0.1964(3) 0.5610(2)
N3A N 0.7033(6) 0.1063(3) 0.3243(2)
H1A H 0.6491 0.0815 0.3023
N4A N 0.9109(6) 0.1760(3) 0.3485(2)
N5A N 1.1774(5) 1.3886(3) -0.0378(2)
N6A N 0.9376(6) 1.3127(3) -0.0749(2)
N7A N 0.7970(6) 1.3820(3) 0.1701(2)
H2A H 0.8486 1.4051 0.1939
N8A N 0.5958(6) 1.3156(3) 0.1400(2)
C1A C 0.2924(7) 0.3599(4) 0.5806(3)
C2A C 0.2787(8) 0.4512(4) 0.5253(3)
H3A H 0.1788 0.4801 0.5381
H4A H 0.2665 0.4434 0.4812
C3A C 0.4188(9) 0.5120(5) 0.5140(4)
H5A H 0.4313 0.5184 0.5586
H6A H 0.3888 0.5707 0.4824
C4_2 C -0.0279(7) 0.8537(4) 0.2988(3)
C5_2 C 0.1306(8) 0.9023(6) 0.2622(4)
H7_2 H 0.1023 0.9641 0.2366
H8_2 H 0.1976 0.9032 0.2981
C6_2 C 0.2297(10) 0.8697(7) 0.2155(4)
H9_2 H 0.1563 0.8615 0.1843
H10_2 H 0.2648 0.8100 0.2434
C7_2 C 0.3780(7) 0.9137(4) 0.1705(3)
H11_2 H 0.3436 0.9539 0.1264
H12_2 H 0.4478 0.8678 0.1601
C8_2 C 0.4824(7) 0.9668(4) 0.1990(3)
H13_2 H 0.5793 0.9881 0.1656
H14_2 H 0.4193 1.0192 0.2011
C9_2 C 0.5386(6) 0.9193(4) 0.2688(3)
C10A C 0.2096(7) 0.0793(4) 0.5165(3)
H15A H 0.1121 0.0708 0.5466
C11A C 0.2139(7) 0.0533(4) 0.4583(3)
H16A H 0.1208 0.0288 0.4498
C12A C 0.3562(7) 0.0640(4) 0.4138(3)
H17A H 0.3615 0.0467 0.3747
C13A C 0.4953(7) 0.1017(4) 0.4282(3)
C14A C 0.4791(7) 0.1290(4) 0.4872(3)
C15A C 0.6505(7) 0.1201(4) 0.3859(3)
C16A C 0.8602(7) 0.1401(4) 0.3050(3)
C17A C 0.9545(8) 0.1428(4) 0.2379(3)
C18A C 0.8804(9) 0.1247(4) 0.1858(3)
H18A H 0.7705 0.1069 0.1936
C19A C 0.9731(11) 0.1336(5) 0.1229(3)
H19A H 0.9258 0.1206 0.0883
C20A C 1.1355(11) 0.1615(5) 0.1106(4)
H20A H 1.1946 0.1694 0.0672
C21A C 1.2119(9) 0.1779(5) 0.1621(4)
H21A H 1.3222 0.1949 0.1542
C22A C 1.1186(8) 0.1681(5) 0.2258(3)
H22A H 1.1676 0.1788 0.2609
C23A C 0.7794(7) 0.1624(4) 0.4004(3)
C24A C 0.7656(7) 0.1906(4) 0.4596(3)
C25A C 0.6144(7) 0.1725(4) 0.5030(3)
C26A C 0.8856(7) 0.2343(4) 0.4778(3)
H23A H 0.9873 0.2473 0.4507
C27A C 0.8538(8) 0.2584(5) 0.5362(3)
H24A H 0.9333 0.2882 0.5488
C28A C 0.7024(7) 0.2380(5) 0.5760(3)
H25A H 0.6823 0.2547 0.6155
C29A C 1.2270(7) 1.1576(4) -0.1000(3)
C30A C 1.2030(8) 1.0647(4) -0.0440(3)
H26A H 1.2450 1.0635 -0.0013
H27A H 1.2630 1.0201 -0.0600
C31A C 1.0212(8) 1.0437(4) -0.0300(3)
H28A H 0.9620 1.0925 -0.0193
H29A H 0.9833 1.0407 -0.0722
C32_2 C 1.5034(7) 0.6247(4) 0.2143(3)
C33_2 C 1.3462(7) 0.5743(5) 0.2488(3)
H30_2 H 1.2811 0.5736 0.2122
H31_2 H 1.3748 0.5126 0.2745
C34_2 C 1.2435(9) 0.6090(6) 0.2963(4)
H32_2 H 1.2078 0.6683 0.2680
H33_2 H 1.3162 0.6178 0.3275
C35_2 C 1.0948(7) 0.5637(5) 0.3412(3)
H34_2 H 1.0245 0.6090 0.3522
H35_2 H 1.1296 0.5229 0.3851
C36_2 C 0.9912(7) 0.5111(4) 0.3121(3)
H36_2 H 1.0548 0.4594 0.3087
H37_2 H 0.8944 0.4888 0.3453
C37_2 C 0.9352(6) 0.5623(4) 0.2419(3)
C38A C 1.3016(7) 1.4233(4) -0.0194(3)
H38A H 1.4003 1.4338 -0.0487
C39A C 1.2933(7) 1.4451(4) 0.0414(3)
H39A H 1.3844 1.4686 0.0524
C40A C 1.1482(7) 1.4309(4) 0.0841(3)
H40A H 1.1388 1.4457 0.1246
C41A C 1.0126(7) 1.3940(4) 0.0672(3)
C42A C 1.0345(7) 1.3729(4) 0.0055(3)
C43A C 0.8548(7) 1.3717(4) 0.1076(3)
C44A C 0.6407(7) 1.3478(4) 0.1866(3)
C45A C 0.5411(7) 1.3427(4) 0.2526(3)
C46A C 0.6081(8) 1.3580(4) 0.3071(3)
H41A H 0.7184 1.3740 0.3022
C47A C 0.5080(9) 1.3493(4) 0.3684(3)
H42A H 0.5512 1.3604 0.4046
C48A C 0.3442(9) 1.3241(4) 0.3768(3)
H43A H 0.2798 1.3168 0.4191
C49A C 0.2757(9) 1.3098(4) 0.3233(3)
H44A H 0.1652 1.2941 0.3285
C50A C 0.3762(8) 1.3194(4) 0.2610(3)
H45A H 0.3315 1.3100 0.2244
C51A C 0.7316(7) 1.3308(4) 0.0897(3)
C52A C 0.7503(6) 1.3098(4) 0.0268(3)
C53A C 0.9031(6) 1.3311(4) -0.0145(3)
C54A C 0.6340(7) 1.2692(4) 0.0048(3)
H46A H 0.5314 1.2545 0.0309
C55A C 0.6687(8) 1.2501(4) -0.0560(3)
H47A H 0.5910 1.2221 -0.0712
C56A C 0.8229(8) 1.2736(4) -0.0940(3)
H48A H 0.8460 1.2609 -0.1352
loop_
_geom_bond_atom_site_label_1
_geom_bond_atom_site_label_2
_geom_bond_site_symmetry_1
_geom_bond_site_symmetry_2
Co1 O1 1_555 1_555
Co2 O2 1_555 1_555
Co3 O8 1_555 1_555
O1 C1 1_555 1_555
O2 C1 1_555 1_555
O3 Co1 1_555 1_555
O4 Co2 1_555 1_555
O5 C9 1_555 1_555
O6 C9 1_555 1_555
O7 Co2 1_555 1_555
O8 C29 1_555 1_555
O9 Co2 1_555 1_555
O10 Co3 1_555 1_555
O11 C37 1_555 1_555
O12 C37 1_555 1_555
N1 Co1 1_555 1_555
N2 Co1 1_555 1_555
N3 H1 1_555 1_555
N4 C16 1_555 1_555
N5 Co3 1_555 1_555
N6 Co3 1_555 1_555
N7 H2 1_555 1_555
N8 C44 1_555 1_555
C1 C2 1_555 1_555
C2 H3 1_555 1_555
H4 C2 1_555 1_555
C3 C2 1_555 1_555
H5 C3 1_555 1_555
H6 C3 1_555 1_555
C4 O3 1_555 1_555
C5 C4 1_555 1_555
H7 C5 1_555 1_555
H8 C5 1_555 1_555
C6 C5 1_555 1_555
H9 C6 1_555 1_555
H10 C6 1_555 1_555
C7 C6 1_555 1_555
H11 C7 1_555 1_555
H12 C7 1_555 1_555
C8 C7 1_555 1_555
H13 C8 1_555 1_555
H14 C8 1_555 1_555
C9 C8 1_555 1_555
C10 N1 1_555 1_555
H15 C10 1_555 1_555
C11 C10 1_555 1_555
H16 C11 1_555 1_555
C12 C11 1_555 1_555
H17 C12 1_555 1_555
C13 C12 1_555 1_555
C14 N1 1_555 1_555
C15 N3 1_555 1_555
C16 N3 1_555 1_555
C17 C16 1_555 1_555
C18 C17 1_555 1_555
H18 C18 1_555 1_555
C19 C18 1_555 1_555
H19 C19 1_555 1_555
C20 C19 1_555 1_555
H20 C20 1_555 1_555
C21 C20 1_555 1_555
H21 C21 1_555 1_555
C22 C17 1_555 1_555
H22 C22 1_555 1_555
C23 N4 1_555 1_555
C24 C23 1_555 1_555
C25 N2 1_555 1_555
C26 C24 1_555 1_555
H23 C26 1_555 1_555
C27 C26 1_555 1_555
H24 C27 1_555 1_555
C28 N2 1_555 1_555
H25 C28 1_555 1_555
C29 O7 1_555 1_555
C30 C29 1_555 1_555
H26 C30 1_555 1_555
H27 C30 1_555 1_555
C31 C30 1_555 1_555
H28 C31 1_555 1_555
H29 C31 1_555 1_555
C32 O9 1_555 1_555
C33 C32 1_555 1_555
H30 C33 1_555 1_555
H31 C33 1_555 1_555
C34 C33 1_555 1_555
H32 C34 1_555 1_555
H33 C34 1_555 1_555
C35 C34 1_555 1_555
H34 C35 1_555 1_555
H35 C35 1_555 1_555
C36 C35 1_555 1_555
H36 C36 1_555 1_555
H37 C36 1_555 1_555
C37 C36 1_555 1_555
C38 N5 1_555 1_555
H38 C38 1_555 1_555
C39 C38 1_555 1_555
H39 C39 1_555 1_555
C40 C39 1_555 1_555
H40 C40 1_555 1_555
C41 C40 1_555 1_555
C42 N5 1_555 1_555
C43 N7 1_555 1_555
C44 N7 1_555 1_555
C45 C44 1_555 1_555
C46 C45 1_555 1_555
H41 C46 1_555 1_555
C47 C46 1_555 1_555
H42 C47 1_555 1_555
C48 C47 1_555 1_555
H43 C48 1_555 1_555
C49 C48 1_555 1_555
H44 C49 1_555 1_555
C50 C45 1_555 1_555
H45 C50 1_555 1_555
C51 N8 1_555 1_555
C52 C51 1_555 1_555
C53 N6 1_555 1_555
C54 C52 1_555 1_555
H46 C54 1_555 1_555
C55 C54 1_555 1_555
H47 C55 1_555 1_555
C56 N6 1_555 1_555
H48 C56 1_555 1_555
Co1A O1A 1_555 1_555
Co1_2 O5 1_555 1_555
Co1_3 O3_2 1_555 1_555
Co2A O2A 1_555 1_555
Co2_2 O5 1_555 1_555
Co2_3 O11 1_555 1_555
Co2A_2 O7A 1_555 1_555
Co3A O8A 1_555 1_555
Co3_2 O11 1_555 1_555
Co3_3 O10_2 1_555 1_555
O1A C1A 1_555 1_555
O2A C1A 1_555 1_555
O3_2 C4_2 1_555 1_555
O3A Co1A 1_555 1_555
O4_2 Co2_3 1_555 1_555
O4A Co2A 1_555 1_555
O5_2 Co1 1_555 1_555
O5A Co1A 1_555 1_555
O6_2 Co1 1_555 1_555
O6A Co1A 1_555 1_555
O7A C29A 1_555 1_555
O7A_2 Co2A 1_555 1_555
O8A C29A 1_555 1_555
O9_2 Co2_2 1_555 1_555
O9A Co2A 1_555 1_555
O10_2 C32_2 1_555 1_555
O10A Co3A 1_555 1_555
O11_2 Co2 1_555 1_555
O11A Co2A 1_555 1_555
O11A_2 Co2A_2 1_555 1_555
O12_2 Co3 1_555 1_555
O12A Co3A 1_555 1_555
N1A Co1A 1_555 1_555
N2A Co1A 1_555 1_555
N3A H1A 1_555 1_555
N4A C16A 1_555 1_555
N5A Co3A 1_555 1_555
N6A Co3A 1_555 1_555
N7A H2A 1_555 1_555
N8A C44A 1_555 1_555
C1A C2A 1_555 1_555
C2A H3A 1_555 1_555
H4A C2A 1_555 1_555
C3A C3 1_555 1_555
H5A C3A 1_555 1_555
H6A C3A 1_555 1_555
C4_2 O4_2 1_555 1_555
C5_2 C4_2 1_555 1_555
H7_2 C5_2 1_555 1_555
H8_2 C5_2 1_555 1_555
C6_2 C5_2 1_555 1_555
H9_2 C6_2 1_555 1_555
H10_2 C6_2 1_555 1_555
C7_2 C6_2 1_555 1_555
H11_2 C7_2 1_555 1_555
H12_2 C7_2 1_555 1_555
C8_2 C7_2 1_555 1_555
H13_2 C8_2 1_555 1_555
H14_2 C8_2 1_555 1_555
C9_2 O5_2 1_555 1_555
C10A N1A 1_555 1_555
H15A C10A 1_555 1_555
C11A C10A 1_555 1_555
H16A C11A 1_555 1_555
C12A C11A 1_555 1_555
H17A C12A 1_555 1_555
C13A C12A 1_555 1_555
C14A N1A 1_555 1_555
C15A N3A 1_555 1_555
C16A N3A 1_555 1_555
C17A C16A 1_555 1_555
C18A C17A 1_555 1_555
H18A C18A 1_555 1_555
C19A C18A 1_555 1_555
H19A C19A 1_555 1_555
C20A C19A 1_555 1_555
H20A C20A 1_555 1_555
C21A C20A 1_555 1_555
H21A C21A 1_555 1_555
C22A C17A 1_555 1_555
H22A C22A 1_555 1_555
C23A N4A 1_555 1_555
C24A C23A 1_555 1_555
C25A N2A 1_555 1_555
C26A C24A 1_555 1_555
H23A C26A 1_555 1_555
C27A C26A 1_555 1_555
H24A C27A 1_555 1_555
C28A N2A 1_555 1_555
H25A C28A 1_555 1_555
C29A C30A 1_555 1_555
C30A H26A 1_555 1_555
H27A C30A 1_555 1_555
C31A C31 1_555 1_555
H28A C31A 1_555 1_555
H29A C31A 1_555 1_555
C32_2 O9_2 1_555 1_555
C33_2 C32_2 1_555 1_555
H30_2 C33_2 1_555 1_555
H31_2 C33_2 1_555 1_555
C34_2 C33_2 1_555 1_555
H32_2 C34_2 1_555 1_555
H33_2 C34_2 1_555 1_555
C35_2 C34_2 1_555 1_555
H34_2 C35_2 1_555 1_555
H35_2 C35_2 1_555 1_555
C36_2 C35_2 1_555 1_555
H36_2 C36_2 1_555 1_555
H37_2 C36_2 1_555 1_555
C37_2 O11_2 1_555 1_555
C38A N5A 1_555 1_555
H38A C38A 1_555 1_555
C39A C38A 1_555 1_555
H39A C39A 1_555 1_555
C40A C39A 1_555 1_555
H40A C40A 1_555 1_555
C41A C40A 1_555 1_555
C42A N5A 1_555 1_555
C43A N7A 1_555 1_555
C44A N7A 1_555 1_555
C45A C44A 1_555 1_555
C46A C45A 1_555 1_555
H41A C46A 1_555 1_555
C47A C46A 1_555 1_555
H42A C47A 1_555 1_555
C48A C47A 1_555 1_555
H43A C48A 1_555 1_555
C49A C48A 1_555 1_555
H44A C49A 1_555 1_555
C50A C45A 1_555 1_555
H45A C50A 1_555 1_555
C51A N8A 1_555 1_555
C52A C51A 1_555 1_555
C53A N6A 1_555 1_555
C54A C52A 1_555 1_555
H46A C54A 1_555 1_555
C55A C54A 1_555 1_555
H47A C55A 1_555 1_555
C56A N6A 1_555 1_555
H48A C56A 1_555 1_555
Co2 O5_2 1_555 1_555
Co3 O11_2 1_555 1_555
O4 C4 1_555 1_555
O6 Co1_2 1_555 1_555
O10 C32 1_555 1_555
O12 Co3_2 1_555 1_555
C13 C14 1_555 1_555
C13 C15 1_555 1_555
C14 C25 1_555 1_555
C15 C23 1_555 1_555
C21 C22 1_555 1_555
C24 C25 1_555 1_555
C27 C28 1_555 1_555
C41 C42 1_555 1_555
C41 C43 1_555 1_555
C42 C53 1_555 1_555
C43 C51 1_555 1_555
C49 C50 1_555 1_555
C52 C53 1_555 1_555
C55 C56 1_555 1_555
Co2A O5A 1_555 1_555
Co3A O11A_2 1_555 1_555
O6_2 C9_2 1_555 1_555
O12_2 C37_2 1_555 1_555
C2A C3A 1_555 1_555
C8_2 C9_2 1_555 1_555
C13A C14A 1_555 1_555
C13A C15A 1_555 1_555
C14A C25A 1_555 1_555
C15A C23A 1_555 1_555
C21A C22A 1_555 1_555
C24A C25A 1_555 1_555
C27A C28A 1_555 1_555
C30A C31A 1_555 1_555
C36_2 C37_2 1_555 1_555
C41A C42A 1_555 1_555
C41A C43A 1_555 1_555
C42A C53A 1_555 1_555
C43A C51A 1_555 1_555
C49A C50A 1_555 1_555
C52A C53A 1_555 1_555
C55A C56A 1_555 1_555

#END
