
#######################################################################
#
#                 Cambridge Crystallographic Data Centre
#                                CCDC 
#
#######################################################################
#
# If this CIF has been generated from an entry in the Cambridge 
# Structural Database, then it will include bibliographic, chemical, 
# crystal, experimental, refinement or atomic coordinate data resulting 
# from the CCDC's data processing and validation procedures.
#
#######################################################################

data_WIZTAB
_symmetry_cell_setting           monoclinic
_symmetry_space_group_name_H-M   'P 21/n'
_symmetry_Int_Tables_number      14
_space_group_name_Hall           '-P 2yn'
loop_
_symmetry_equiv_pos_site_id
_symmetry_equiv_pos_as_xyz
1 x,y,z
2 1/2-x,1/2+y,1/2-z
3 -x,-y,-z
4 1/2+x,1/2-y,1/2+z
_cell_length_a                   10.767(4)
_cell_length_b                   29.916(7)
_cell_length_c                   13.688(4)
_cell_angle_alpha                90
_cell_angle_beta                 97.700(10)
_cell_angle_gamma                90
_cell_volume                     4369.23
loop_
_atom_site_label
_atom_site_type_symbol
_atom_site_fract_x
_atom_site_fract_y
_atom_site_fract_z
Pb1 Pb 0.22221(3) 0.252248(8) 0.632884(19)
O1 O 0.1768(7) 0.31678(17) 0.5080(4)
O2 O 0.1246(6) 0.33913(18) 0.6496(4)
O3 O 0.2197(8) 0.5257(2) 0.4374(5)
O4 O 0.4930(7) 0.6379(2) 0.7966(5)
O5 O 0.3496(9) 0.6846(2) 0.7428(5)
O6 O 1.0871(7) 0.0039(2) 0.2469(5)
H1 H 1.0994 0.0068 0.1894
O7 O 0.9813(8) 0.5095(3) 1.2543(5)
H2 H 1.0442 0.5223 1.2408
N1 N 0.3196(6) 0.2288(2) 0.4707(4)
N2 N 0.4077(6) 0.19747(19) 0.6534(4)
N3 N 0.6337(6) 0.13120(19) 0.3461(4)
H7 H 0.6276 0.1356 0.2836
N4 N 0.7003(6) 0.10439(19) 0.4949(4)
N5 N 0.3031(6) 0.27173(18) 0.8164(4)
N6 N 0.4143(6) 0.30027(19) 0.6616(4)
N7 N 0.6079(6) 0.36530(19) 1.0242(4)
H8 H 0.5899 0.3632 1.0834
N8 N 0.7061(6) 0.38671(19) 0.8986(4)
C1 C 0.1535(8) 0.3474(3) 0.5655(6)
C2 C 0.1686(8) 0.3954(3) 0.5314(6)
C3 C 0.1180(8) 0.4303(2) 0.5783(6)
H9 H 0.0716 0.4248 0.6297
C4 C 0.1373(9) 0.4749(3) 0.5474(6)
H10 H 0.1044 0.4988 0.5788
C5 C 0.2045(9) 0.4823(3) 0.4712(7)
C6 C 0.2548(10) 0.4470(3) 0.4242(7)
H11 H 0.2991 0.4528 0.3717
C7 C 0.2405(9) 0.4042(3) 0.4532(6)
H12 H 0.2772 0.3808 0.4225
C8 C 0.2650(11) 0.5560(3) 0.5087(6)
C9 C 0.3789(11) 0.5484(3) 0.5651(7)
H13 H 0.4252 0.5230 0.5548
C10 C 0.4246(11) 0.5793(3) 0.6381(7)
H14 H 0.5000 0.5737 0.6779
C11 C 0.3572(9) 0.6186(3) 0.6515(6)
C12 C 0.2442(9) 0.6260(4) 0.5880(7)
H15 H 0.1993 0.6523 0.5934
C13 C 0.2011(9) 0.5948(3) 0.5191(7)
H16 H 0.1264 0.6001 0.4781
C14 C 0.4078(11) 0.6516(3) 0.7334(7)
C15 C 0.2765(9) 0.2453(2) 0.3820(6)
H17 H 0.2113 0.2659 0.3768
C16 C 0.3252(10) 0.2329(3) 0.2974(5)
H18 H 0.2946 0.2457 0.2371
C17 C 0.4159(8) 0.2026(3) 0.3029(5)
H19 H 0.4484 0.1937 0.2463
C18 C 0.4623(7) 0.1841(2) 0.3943(5)
C19 C 0.4116(7) 0.1985(2) 0.4769(5)
C20 C 0.5610(7) 0.1511(2) 0.4104(5)
C21 C 0.7153(8) 0.1039(2) 0.3996(6)
C22 C 0.8102(8) 0.0774(3) 0.3582(6)
C23 C 0.8326(9) 0.0832(2) 0.2636(6)
H20 H 0.7873 0.1044 0.2240
C24 C 0.9235(9) 0.0574(3) 0.2253(6)
H21 H 0.9353 0.0603 0.1596
C25 C 0.9933(9) 0.0285(3) 0.2840(7)
C26 C 0.9773(12) 0.0230(4) 0.3790(7)
H22 H 1.0265 0.0030 0.4194
C27 C 0.8852(12) 0.0481(4) 0.4143(8)
H23 H 0.8739 0.0447 0.4801
C28 C 0.6054(7) 0.1341(2) 0.5018(5)
C29 C 0.5571(8) 0.1494(2) 0.5886(5)
C30 C 0.4597(7) 0.1814(2) 0.5749(5)
C31 C 0.5963(9) 0.1339(3) 0.6837(6)
H24 H 0.6577 0.1119 0.6944
C32 C 0.5450(10) 0.1509(3) 0.7599(6)
H25 H 0.5733 0.1418 0.8240
C33 C 0.4502(9) 0.1819(3) 0.7424(6)
H26 H 0.4139 0.1925 0.7958
C34 C 0.2457(8) 0.2584(2) 0.8911(6)
H27 H 0.1771 0.2394 0.8778
C35 C 0.2824(8) 0.2712(3) 0.9875(6)
H28 H 0.2385 0.2610 1.0372
C36 C 0.3824(7) 0.2986(2) 1.0100(5)
H29 H 0.4086 0.3072 1.0749
C37 C 0.4461(6) 0.3140(2) 0.9323(5)
C38 C 0.4027(7) 0.2994(2) 0.8353(5)
C39 C 0.5495(7) 0.3434(2) 0.9428(5)
C40 C 0.6998(7) 0.3911(2) 0.9936(5)
C41 C 0.7755(7) 0.4217(3) 1.0608(6)
C42 C 0.7432(11) 0.4316(4) 1.1507(8)
H30 H 0.6739 0.4175 1.1707
C43 C 0.8099(13) 0.4621(5) 1.2140(9)
H31 H 0.7826 0.4698 1.2733
C44 C 0.9163(9) 0.4804(3) 1.1872(7)
C45 C 0.9535(8) 0.4709(3) 1.1008(6)
H32 H 1.0265 0.4834 1.0834
C46 C 0.8813(8) 0.4416(3) 1.0360(6)
H33 H 0.9059 0.4356 0.9748
C47 C 0.6115(6) 0.3568(2) 0.8667(5)
C48 C 0.5710(7) 0.3414(2) 0.7678(5)
C49 C 0.4643(7) 0.3140(2) 0.7525(5)
C50 C 0.6268(8) 0.3542(3) 0.6863(6)
H34 H 0.6980 0.3722 0.6944
C51 C 0.5767(9) 0.3404(3) 0.5946(6)
H35 H 0.6132 0.3486 0.5394
C52 C 0.4692(9) 0.3134(3) 0.5850(6)
H36 H 0.4349 0.3043 0.5222
Pb1A Pb 0.27779(3) 0.752248(8) 0.867116(19)
O5A O 0.1504(9) 0.1846(2) 0.7572(5)
O8 O 0.8513(7) 0.0694(2) 0.6615(5)
H3 H 0.8047 0.0778 0.6127
H4 H 0.8102 0.0643 0.7066
O9 O 0.8223(7) 0.4435(3) 0.7773(5)
H5 H 0.7757 0.4259 0.8005
H6 H 0.7958 0.4477 0.7191
loop_
_geom_bond_atom_site_label_1
_geom_bond_atom_site_label_2
_geom_bond_site_symmetry_1
_geom_bond_site_symmetry_2
Pb1 O1 1_555 1_555
O1 C1 1_555 1_555
O2 Pb1 1_555 1_555
O3 C5 1_555 1_555
O4 C14 1_555 1_555
O5 C14 1_555 1_555
O6 H1 1_555 1_555
O7 H2 1_555 1_555
O8 H3 1_555 1_555
H4 O8 1_555 1_555
O9 H5 1_555 1_555
H6 O9 1_555 1_555
N1 Pb1 1_555 1_555
N2 Pb1 1_555 1_555
N3 H7 1_555 1_555
N4 C21 1_555 1_555
N5 Pb1 1_555 1_555
N6 Pb1 1_555 1_555
N7 H8 1_555 1_555
N8 C40 1_555 1_555
C1 O2 1_555 1_555
C2 C1 1_555 1_555
C3 C2 1_555 1_555
H9 C3 1_555 1_555
C4 C3 1_555 1_555
H10 C4 1_555 1_555
C5 C4 1_555 1_555
C6 C5 1_555 1_555
H11 C6 1_555 1_555
C7 C2 1_555 1_555
H12 C7 1_555 1_555
C8 O3 1_555 1_555
C9 C8 1_555 1_555
H13 C9 1_555 1_555
C10 C9 1_555 1_555
H14 C10 1_555 1_555
C11 C10 1_555 1_555
C12 C11 1_555 1_555
H15 C12 1_555 1_555
C13 C8 1_555 1_555
H16 C13 1_555 1_555
C14 C11 1_555 1_555
C15 N1 1_555 1_555
H17 C15 1_555 1_555
C16 C15 1_555 1_555
H18 C16 1_555 1_555
C17 C16 1_555 1_555
H19 C17 1_555 1_555
C18 C17 1_555 1_555
C19 N1 1_555 1_555
C20 N3 1_555 1_555
C21 N3 1_555 1_555
C22 C21 1_555 1_555
C23 C22 1_555 1_555
H20 C23 1_555 1_555
C24 C23 1_555 1_555
H21 C24 1_555 1_555
C25 O6 1_555 1_555
C26 C25 1_555 1_555
H22 C26 1_555 1_555
C27 C22 1_555 1_555
H23 C27 1_555 1_555
C28 N4 1_555 1_555
C29 C28 1_555 1_555
C30 N2 1_555 1_555
C31 C29 1_555 1_555
H24 C31 1_555 1_555
C32 C31 1_555 1_555
H25 C32 1_555 1_555
C33 N2 1_555 1_555
H26 C33 1_555 1_555
C34 N5 1_555 1_555
H27 C34 1_555 1_555
C35 C34 1_555 1_555
H28 C35 1_555 1_555
C36 C35 1_555 1_555
H29 C36 1_555 1_555
C37 C36 1_555 1_555
C38 N5 1_555 1_555
C39 N7 1_555 1_555
C40 N7 1_555 1_555
C41 C40 1_555 1_555
C42 C41 1_555 1_555
H30 C42 1_555 1_555
C43 C42 1_555 1_555
H31 C43 1_555 1_555
C44 O7 1_555 1_555
C45 C44 1_555 1_555
H32 C45 1_555 1_555
C46 C41 1_555 1_555
H33 C46 1_555 1_555
C47 N8 1_555 1_555
C48 C47 1_555 1_555
C49 N6 1_555 1_555
C50 C48 1_555 1_555
H34 C50 1_555 1_555
C51 C50 1_555 1_555
H35 C51 1_555 1_555
C52 N6 1_555 1_555
H36 C52 1_555 1_555
Pb1A O5 1_555 1_555
O5A Pb1 1_555 1_555
C6 C7 1_555 1_555
C12 C13 1_555 1_555
C18 C19 1_555 1_555
C18 C20 1_555 1_555
C19 C30 1_555 1_555
C20 C28 1_555 1_555
C24 C25 1_555 1_555
C26 C27 1_555 1_555
C29 C30 1_555 1_555
C32 C33 1_555 1_555
C37 C38 1_555 1_555
C37 C39 1_555 1_555
C38 C49 1_555 1_555
C39 C47 1_555 1_555
C43 C44 1_555 1_555
C45 C46 1_555 1_555
C48 C49 1_555 1_555
C51 C52 1_555 1_555

#END
