
#######################################################################
#
#                 Cambridge Crystallographic Data Centre
#                                CCDC 
#
#######################################################################
#
# If this CIF has been generated from an entry in the Cambridge 
# Structural Database, then it will include bibliographic, chemical, 
# crystal, experimental, refinement or atomic coordinate data resulting 
# from the CCDC's data processing and validation procedures.
#
#######################################################################

data_WIZZUC
_symmetry_cell_setting           orthorhombic
_symmetry_space_group_name_H-M   'P n m a'
_symmetry_Int_Tables_number      62
_space_group_name_Hall           '-P 2ac 2n'
loop_
_symmetry_equiv_pos_site_id
_symmetry_equiv_pos_as_xyz
1 x,y,z
2 1/2-x,-y,1/2+z
3 -x,1/2+y,-z
4 1/2+x,1/2-y,1/2-z
5 -x,-y,-z
6 1/2+x,y,1/2-z
7 x,1/2-y,z
8 1/2-x,1/2+y,1/2+z
_cell_length_a                   11.354(2)
_cell_length_b                   17.356(3)
_cell_length_c                   21.544(4)
_cell_angle_alpha                90
_cell_angle_beta                 90
_cell_angle_gamma                90
_cell_volume                     4245.46
loop_
_atom_site_label
_atom_site_type_symbol
_atom_site_fract_x
_atom_site_fract_y
_atom_site_fract_z
W1 W 0.78647(7) 0.2500 0.57030(3)
Se1 Se 0.8409(3) 0.2500 0.67149(9)
Se2 Se 0.96674(14) 0.2500 0.51401(8)
Se3 Se 0.67569(13) 0.13971(8) 0.54889(6)
Ag1 Ag 0.81976(9) 0.15658(5) 0.45363(4)
Br1 Br 0.73515(16) 0.2500 0.35777(7)
P1 P 0.9016(3) 0.03723(15) 0.41553(12)
C1 C 0.9562(9) -0.0198(6) 0.4801(4)
H1 H 0.8899 -0.0350 0.5056
H2 H 0.9917 -0.0664 0.4637
C2 C 0.7999(13) -0.0278(6) 0.3768(5)
C3 C 0.6812(14) -0.0135(9) 0.3842(6)
H3 H 0.6565 0.0289 0.4072
C4 C 0.5983(16) -0.0621(11) 0.3574(7)
H4 H 0.5186 -0.0532 0.3643
C5 C 0.632(2) -0.1221(13) 0.3213(9)
H5 H 0.5770 -0.1541 0.3023
C6 C 0.745(2) -0.1332(9) 0.3145(9)
H6 H 0.7695 -0.1743 0.2900
C7 C 0.8287(13) -0.0883(8) 0.3409(6)
H7 H 0.9078 -0.0995 0.3340
C8 C 1.0225(11) 0.0445(6) 0.3610(5)
C9 C 1.0216(11) 0.1073(8) 0.3229(5)
H8 H 0.9623 0.1441 0.3259
C10 C 1.1134(14) 0.1151(9) 0.2786(6)
H9 H 1.1144 0.1570 0.2516
C11 C 1.2016(13) 0.0599(12) 0.2757(7)
H10 H 1.2613 0.0648 0.2464
C12 C 1.2018(14) -0.0022(9) 0.3158(7)
H11 H 1.2611 -0.0391 0.3149
C13 C 1.1116(13) -0.0066(8) 0.3565(5)
H12 H 1.1108 -0.0484 0.3835
P1D P 1.0984(3) -0.03723(15) 0.58447(12)
C1D C 1.0438(9) 0.0198(6) 0.5199(4)
H1D H 1.1101 0.0350 0.4944
H2D H 1.0083 0.0664 0.5363
C2D C 1.2001(13) 0.0278(6) 0.6232(5)
C3D C 1.3188(14) 0.0135(9) 0.6158(6)
H3D H 1.3435 -0.0289 0.5928
C4D C 1.4017(16) 0.0621(11) 0.6426(7)
H4D H 1.4814 0.0532 0.6357
C5D C 1.368(2) 0.1221(13) 0.6787(9)
H5D H 1.4230 0.1541 0.6977
C6D C 1.255(2) 0.1332(9) 0.6855(9)
H6D H 1.2305 0.1743 0.7100
C7D C 1.1713(13) 0.0883(8) 0.6591(6)
H7D H 1.0922 0.0995 0.6660
C8D C 0.9775(11) -0.0445(6) 0.6390(5)
C9D C 0.9784(11) -0.1073(8) 0.6771(5)
H8D H 1.0377 -0.1441 0.6741
C10D C 0.8866(14) -0.1151(9) 0.7214(6)
H9D H 0.8856 -0.1570 0.7484
C11D C 0.7984(13) -0.0599(12) 0.7243(7)
H10D H 0.7387 -0.0648 0.7536
C12D C 0.7982(14) 0.0022(9) 0.6842(7)
H11D H 0.7389 0.0391 0.6851
C13D C 0.8884(13) 0.0066(8) 0.6435(5)
H12D H 0.8892 0.0484 0.6165
Se3D Se 1.32431(13) -0.13971(8) 0.45111(6)
Ag1D Ag 1.18024(9) -0.15658(5) 0.54637(4)
W1B W 1.21353(7) -0.2500 0.42970(3)
Se2B Se 1.03326(14) -0.2500 0.48599(8)
Se3F Se 0.67569(13) 0.36029(8) 0.54889(6)
Ag1F Ag 0.81976(9) 0.34342(5) 0.45363(4)
Br1B Br 1.26485(16) -0.2500 0.64223(7)
N1 N 0.3582(11) 0.2500 0.4289(6)
C14 C 0.4347(15) 0.1812(9) 0.4363(7)
H13 H 0.4748 0.1841 0.4760
H14 H 0.4941 0.1814 0.4039
C15 C 0.367(2) 0.1075(14) 0.4331(10)
H15 H 0.3648 0.0842 0.4735
H16 H 0.4048 0.0731 0.4044
H17 H 0.2883 0.1178 0.4193
C16 C 0.2992(17) 0.2500 0.3664(9)
H18 H 0.2488 0.2050 0.3639
C17 C 0.375(2) 0.2500 0.3129(11)
C18 C 0.265(2) 0.2500 0.4768(11)
H19 H 0.2158 0.2050 0.4699
C19 C 0.302(3) 0.2500 0.5450(13)
C14F C 0.4347(15) 0.3188(9) 0.4363(7)
H13F H 0.4748 0.3159 0.4760
H14F H 0.4941 0.3186 0.4039
C15F C 0.367(2) 0.3925(14) 0.4331(10)
H15F H 0.3648 0.4158 0.4735
H16F H 0.4048 0.4269 0.4044
H17F H 0.2883 0.3822 0.4193
H18F H 0.2488 0.2950 0.3639
H19F H 0.2158 0.2950 0.4699
H20? H 0.2488 0.2050 0.3639
H21? H 0.2158 0.2050 0.4699
H22? H 0.3146 0.1979 0.5586
H23? H 0.2417 0.2734 0.5697
H24? H 0.3741 0.2787 0.5495
H25? H 0.3306 0.2369 0.2766
H26? H 0.4370 0.2128 0.3187
H27? H 0.4093 0.3003 0.3077
loop_
_geom_bond_atom_site_label_1
_geom_bond_atom_site_label_2
_geom_bond_site_symmetry_1
_geom_bond_site_symmetry_2
W1 Se1 1_555 1_555
Se2 W1 1_555 1_555
Se3 W1 1_555 1_555
Ag1 Se2 1_555 1_555
Br1 Ag1 1_555 1_555
P1 Ag1 1_555 1_555
C1 P1 1_555 1_555
H1 C1 1_555 1_555
H2 C1 1_555 1_555
C2 P1 1_555 1_555
C3 C2 1_555 1_555
H3 C3 1_555 1_555
C4 C3 1_555 1_555
H4 C4 1_555 1_555
C5 C4 1_555 1_555
H5 C5 1_555 1_555
C6 C5 1_555 1_555
H6 C6 1_555 1_555
C7 C2 1_555 1_555
H7 C7 1_555 1_555
C8 P1 1_555 1_555
C9 C8 1_555 1_555
H8 C9 1_555 1_555
C10 C9 1_555 1_555
H9 C10 1_555 1_555
C11 C10 1_555 1_555
H10 C11 1_555 1_555
C12 C11 1_555 1_555
H11 C12 1_555 1_555
C13 C8 1_555 1_555
H12 C13 1_555 1_555
N1 C14 1_555 1_555
C14 H13 1_555 1_555
H14 C14 1_555 1_555
C15 C14 1_555 1_555
H15 C15 1_555 1_555
H16 C15 1_555 1_555
H17 C15 1_555 1_555
C16 N1 1_555 1_555
H18 C16 1_555 1_555
C17 C16 1_555 1_555
C18 N1 1_555 1_555
H19 C18 1_555 1_555
C19 C18 1_555 1_555
P1D C1D 1_555 1_555
C1D C1 1_555 1_555
H1D C1D 1_555 1_555
H2D C1D 1_555 1_555
C2D P1D 1_555 1_555
C3D C2D 1_555 1_555
H3D C3D 1_555 1_555
C4D C3D 1_555 1_555
H4D C4D 1_555 1_555
C5D C4D 1_555 1_555
H5D C5D 1_555 1_555
C6D C5D 1_555 1_555
H6D C6D 1_555 1_555
C7D C2D 1_555 1_555
H7D C7D 1_555 1_555
C8D P1D 1_555 1_555
C9D C8D 1_555 1_555
H8D C9D 1_555 1_555
C10D C9D 1_555 1_555
H9D C10D 1_555 1_555
C11D C10D 1_555 1_555
H10D C11D 1_555 1_555
C12D C11D 1_555 1_555
H11D C12D 1_555 1_555
C13D C8D 1_555 1_555
H12D C13D 1_555 1_555
Se3D Ag1D 1_555 1_555
Ag1D P1D 1_555 1_555
W1B Se3D 1_555 1_555
Se2B Ag1D 1_555 1_555
Se3F W1 1_555 1_555
Ag1F Se2 1_555 1_555
Br1B Ag1D 1_555 1_555
C14F N1 1_555 1_555
H13F C14F 1_555 1_555
H14F C14F 1_555 1_555
C15F C14F 1_555 1_555
H15F C15F 1_555 1_555
H16F C15F 1_555 1_555
H17F C15F 1_555 1_555
H18F C16 1_555 1_555
H19F C18 1_555 1_555
Se3 Ag1 1_555 1_555
Br1 Ag1F 1_555 1_555
C6 C7 1_555 1_555
C12 C13 1_555 1_555
C6D C7D 1_555 1_555
C12D C13D 1_555 1_555
W1B Se2B 1_555 1_555
Se3F Ag1F 1_555 1_555

#END
