
#######################################################################
#
#                 Cambridge Crystallographic Data Centre
#                                CCDC 
#
#######################################################################
#
# If this CIF has been generated from an entry in the Cambridge 
# Structural Database, then it will include bibliographic, chemical, 
# crystal, experimental, refinement or atomic coordinate data resulting 
# from the CCDC's data processing and validation procedures.
#
#######################################################################

data_WOBBOG
_symmetry_cell_setting           triclinic
_symmetry_space_group_name_H-M   'P -1'
_symmetry_Int_Tables_number      2
_space_group_name_Hall           '-P 1'
loop_
_symmetry_equiv_pos_site_id
_symmetry_equiv_pos_as_xyz
1 x,y,z
2 -x,-y,-z
_cell_length_a                   7.5739(15)
_cell_length_b                   8.6167(17)
_cell_length_c                   9.867(2)
_cell_angle_alpha                86.99(3)
_cell_angle_beta                 89.87(3)
_cell_angle_gamma                85.24(3)
_cell_volume                     640.833
loop_
_atom_site_label
_atom_site_type_symbol
_atom_site_fract_x
_atom_site_fract_y
_atom_site_fract_z
Eu1 Eu 0.56547(4) 0.88473(3) 0.83312(3)
O1 O 0.4104(6) 0.2778(5) 0.9611(5)
O2 O 0.8669(6) 0.7612(5) 0.8647(5)
O3 O 0.5704(6) 0.6445(5) 0.7245(5)
O4 O 0.5014(7) 0.1620(5) 0.7724(5)
O5 O 1.3098(6) 0.9706(5) 0.9927(5)
O6 O 1.2829(7) 0.7602(6) 0.8819(5)
O7 O 0.7615(7) 0.9531(6) 0.6450(5)
O8 O 0.3535(9) 0.9306(7) 0.6436(6)
N1 N 1.0306(7) 0.6490(6) 1.0387(6)
N2 N 0.4338(7) 0.4560(6) 0.6280(5)
C1 C 0.4257(9) 0.2731(7) 0.8345(6)
C2 C 0.9261(8) 0.6425(8) 0.9310(6)
C3 C 0.8751(9) 0.4884(7) 0.8901(7)
H1 H 0.7464 0.4839 0.9057
H2 H 0.8961 0.4815 0.7915
C4 C 0.5345(9) 0.5736(7) 0.6221(7)
C5 C 1.2348(8) 0.8461(7) 0.9742(6)
C6 C 1.0912(9) 0.7984(7) 1.0697(7)
H3 H 1.1367 0.7923 1.1639
H4 H 0.9899 0.8788 1.0636
C7 C 0.3416(9) 0.4144(8) 0.7534(6)
H5 H 0.2186 0.3946 0.7304
H6 H 0.3354 0.5049 0.8116
C8 C 0.6102(9) 0.6284(8) 0.4894(7)
H7 H 0.5689 0.7397 0.4718
H8 H 0.7408 0.6219 0.4982
O1A O 0.5896(6) 0.7222(5) 0.0389(5)
O3A O 0.4296(6) 0.3555(5) 0.2755(5)
O4A O 0.4986(7) 0.8380(5) 0.2276(5)
N2A N 0.5662(7) 0.5440(6) 0.3720(5)
C1A C 0.5743(9) 0.7269(7) 0.1655(6)
C4A C 0.4655(9) 0.4264(7) 0.3779(7)
C7A C 0.6584(9) 0.5856(8) 0.2466(6)
H5A H 0.7814 0.6054 0.2696
H6A H 0.6646 0.4951 0.1884
C8A C 0.3898(9) 0.3716(8) 0.5106(7)
H7A H 0.4311 0.2603 0.5282
H8A H 0.2592 0.3781 0.5018
O2A O 1.1331(6) 0.2388(5) 1.1353(5)
O5A O 0.6902(6) 0.0294(5) 1.0073(5)
O6A O 0.7171(7) 0.2398(6) 1.1181(5)
N1A N 0.9694(7) 0.3510(6) 0.9613(6)
C2A C 1.0739(8) 0.3575(8) 1.0690(6)
C3A C 1.1249(9) 0.5116(7) 1.1099(7)
H1A H 1.2536 0.5161 1.0943
H2A H 1.1039 0.5185 1.2085
C5A C 0.7652(8) 0.1539(7) 1.0258(6)
C6A C 0.9088(9) 0.2016(7) 0.9303(7)
H3A H 0.8633 0.2077 0.8361
H4A H 1.0101 0.1212 0.9364
Eu1A Eu 0.43453(4) 0.11527(3) 0.16688(3)
O7A O 0.2385(7) 0.0469(6) 0.3550(5)
O8A O 0.6465(9) 0.0694(7) 0.3564(6)
Eu1_2 Eu 0.56547(4) -0.11527(3) 0.83312(3)
Eu1_3 Eu 0.56547(4) 0.88473(3) -0.16688(3)
Eu1_4 Eu 1.56547(4) 0.88473(3) 0.83312(3)
Eu1A_2 Eu 0.43453(4) 0.11527(3) 1.16688(3)
Eu1A_3 Eu 0.43453(4) 1.11527(3) 0.16688(3)
Eu1A_4 Eu 1.43453(4) 0.11527(3) 1.16688(3)
Eu1A_5 Eu 1.43453(4) 1.11527(3) 1.16688(3)
O1_2 O 0.4104(6) 0.2778(5) -0.0389(5)
O1A_2 O 0.5896(6) 0.7222(5) 1.0389(5)
O2A_2 O 0.1331(6) 0.2388(5) 0.1353(5)
O4_2 O 0.5014(7) 1.1620(5) 0.7724(5)
O4A_2 O 0.4986(7) -0.1620(5) 0.2276(5)
O5_2 O 0.3098(6) -0.0294(5) -0.0073(5)
O5_3 O 0.3098(6) 0.9706(5) 0.9927(5)
O5A_2 O 0.6902(6) 0.0294(5) 0.0073(5)
O5A_3 O 0.6902(6) 1.0294(5) 1.0073(5)
O6_2 O 0.2829(7) 0.7602(6) 0.8819(5)
O6A_2 O 0.7171(7) 0.2398(6) 0.1181(5)
Br1 Br 0.08362(11) -0.26817(10) 1.47770(9)
loop_
_geom_bond_atom_site_label_1
_geom_bond_atom_site_label_2
_geom_bond_site_symmetry_1
_geom_bond_site_symmetry_2
Eu1 O2 1_555 1_555
O1 C1 1_555 1_555
O2 C2 1_555 1_555
O3 Eu1 1_555 1_555
O4 C1 1_555 1_555
O5 C5 1_555 1_555
O6 C5 1_555 1_555
O7 Eu1 1_555 1_555
O8 Eu1 1_555 1_555
N1 C2 1_555 1_555
N2 C4 1_555 1_555
C1 C7 1_555 1_555
C2 C3 1_555 1_555
C3 H1 1_555 1_555
H2 C3 1_555 1_555
C4 O3 1_555 1_555
C5 C6 1_555 1_555
C6 N1 1_555 1_555
H3 C6 1_555 1_555
H4 C6 1_555 1_555
C7 N2 1_555 1_555
H5 C7 1_555 1_555
H6 C7 1_555 1_555
C8 C4 1_555 1_555
H7 C8 1_555 1_555
H8 C8 1_555 1_555
O1A C1A 1_555 1_555
O3A C4A 1_555 1_555
O4A C1A 1_555 1_555
N2A C8 1_555 1_555
C1A C7A 1_555 1_555
C4A N2A 1_555 1_555
C7A N2A 1_555 1_555
H5A C7A 1_555 1_555
H6A C7A 1_555 1_555
C8A N2 1_555 1_555
H7A C8A 1_555 1_555
H8A C8A 1_555 1_555
O2A C2A 1_555 1_555
O5A C5A 1_555 1_555
O6A C5A 1_555 1_555
N1A C3 1_555 1_555
C2A N1A 1_555 1_555
C3A N1 1_555 1_555
H1A C3A 1_555 1_555
H2A C3A 1_555 1_555
C5A C6A 1_555 1_555
C6A N1A 1_555 1_555
H3A C6A 1_555 1_555
H4A C6A 1_555 1_555
Eu1A O3A 1_555 1_555
O7A Eu1A 1_555 1_555
O8A Eu1A 1_555 1_555
Eu1_2 O4 1_555 1_555
Eu1_3 O1A 1_555 1_555
Eu1_4 O5 1_555 1_555
Eu1A_2 O1 1_555 1_555
Eu1A_3 O4A 1_555 1_555
Eu1A_4 O2A 1_555 1_555
Eu1A_5 O5 1_555 1_555
O1_2 Eu1A 1_555 1_555
O1A_2 Eu1 1_555 1_555
O2A_2 Eu1A 1_555 1_555
O4_2 Eu1 1_555 1_555
O4A_2 Eu1A 1_555 1_555
O5_2 Eu1A 1_555 1_555
O5_3 Eu1 1_555 1_555
O5A_2 Eu1A 1_555 1_555
O5A_3 Eu1 1_555 1_555
O6_2 Eu1 1_555 1_555
O6A_2 Eu1A 1_555 1_555
O6 Eu1_4 1_555 1_555
C4A C8A 1_555 1_555
O5A Eu1_2 1_555 1_555
O5A Eu1A_2 1_555 1_555
O6A Eu1A_2 1_555 1_555
C2A C3A 1_555 1_555

#END
