
#######################################################################
#
#                 Cambridge Crystallographic Data Centre
#                                CCDC 
#
#######################################################################
#
# If this CIF has been generated from an entry in the Cambridge 
# Structural Database, then it will include bibliographic, chemical, 
# crystal, experimental, refinement or atomic coordinate data resulting 
# from the CCDC's data processing and validation procedures.
#
#######################################################################

data_WOBBAS
_symmetry_cell_setting           monoclinic
_symmetry_space_group_name_H-M   'C c'
_symmetry_Int_Tables_number      9
_space_group_name_Hall           'C -2yc'
loop_
_symmetry_equiv_pos_site_id
_symmetry_equiv_pos_as_xyz
1 x,y,z
2 x,-y,1/2+z
3 1/2+x,1/2+y,z
4 1/2+x,1/2-y,1/2+z
_cell_length_a                   22.155(4)
_cell_length_b                   11.8665(18)
_cell_length_c                   18.844(3)
_cell_angle_alpha                90
_cell_angle_beta                 106.054(2)
_cell_angle_gamma                90
_cell_volume                     4760.93
loop_
_atom_site_label
_atom_site_type_symbol
_atom_site_fract_x
_atom_site_fract_y
_atom_site_fract_z
W1 W 0.14466(8) 0.22798(12) 0.35367(8)
Se1 Se 0.2104(3) 0.0845(5) 0.3458(4)
Se2 Se 0.04542(18) 0.1981(3) 0.2657(2)
Se3 Se 0.19050(15) 0.4061(3) 0.32775(17)
Se4 Se 0.1376(2) 0.2269(3) 0.4768(2)
Ag1 Ag 0.06309(12) 0.4169(2) 0.26346(13)
Ag2 Ag 0.14985(12) 0.44367(19) 0.44271(12)
Ag3 Ag 0.03246(19) 0.2407(4) 0.3883(2)
Br1 Br 0.0225(2) 0.4920(5) 0.3783(2)
C1 C 0.1502(13) 0.492(2) 0.6227(14)
H1 H 0.1645 0.4161 0.6366
H2 H 0.1617 0.5388 0.6667
C2 C 0.0751(13) 0.492(3) 0.5894(16)
H3 H 0.0633 0.4376 0.5497
H4 H 0.0616 0.5661 0.5688
C3 C 0.0599(14) 0.315(2) 0.6815(16)
C4 C 0.1003(19) 0.292(3) 0.7458(19)
H5 H 0.1185 0.3467 0.7802
C5 C 0.115(2) 0.162(3) 0.759(3)
H6 H 0.1392 0.1380 0.8046
C6 C 0.092(2) 0.080(3) 0.701(3)
H7 H 0.0983 0.0034 0.7099
C7 C 0.0628(16) 0.116(3) 0.642(3)
H8 H 0.0560 0.0672 0.6019
C8 C 0.0380(15) 0.230(2) 0.627(2)
H9 H 0.0084 0.2466 0.5826
C9 C -0.0436(14) 0.454(2) 0.6096(19)
C10 C -0.0898(16) 0.432(4) 0.646(2)
H10 H -0.0760 0.4181 0.6967
C11 C -0.1547(18) 0.431(4) 0.613(3)
H11 H -0.1840 0.4305 0.6405
C12 C -0.1718(16) 0.429(4) 0.536(2)
H12 H -0.2145 0.4277 0.5115
C13 C -0.1306(17) 0.431(4) 0.492(2)
H13 H -0.1436 0.4239 0.4408
C14 C -0.0658(14) 0.443(3) 0.533(2)
H14 H -0.0361 0.4444 0.5068
C15 C 0.1741(14) 0.701(2) 0.5569(17)
C16 C 0.1852(15) 0.763(2) 0.6214(18)
H15 H 0.2001 0.7232 0.6651
C17 C 0.1776(14) 0.870(2) 0.6285(19)
H16 H 0.1857 0.9046 0.6745
C18 C 0.1564(18) 0.930(2) 0.563(2)
H17 H 0.1482 1.0067 0.5635
C19 C 0.1471(15) 0.865(3) 0.492(2)
H18 H 0.1350 0.9052 0.4480
C20 C 0.1553(14) 0.755(2) 0.4883(19)
H19 H 0.1490 0.7166 0.4438
C21 C 0.2732(15) 0.541(2) 0.6040(18)
C22 C 0.3114(18) 0.604(3) 0.571(2)
H20 H 0.2959 0.6527 0.5318
C23 C 0.380(2) 0.585(4) 0.606(3)
H21 H 0.4068 0.6224 0.5841
C24 C 0.405(2) 0.526(4) 0.659(2)
H22 H 0.4485 0.5154 0.6756
C25 C 0.3647(18) 0.480(4) 0.691(2)
H23 H 0.3822 0.4445 0.7363
C26 C 0.2975(18) 0.479(3) 0.666(2)
H24 H 0.2726 0.4385 0.6892
Cl1 Cl -0.0592(7) 0.1637(11) 0.4316(9)
P1 P 0.1881(3) 0.5453(6) 0.5563(4)
P2 P 0.0358(4) 0.4594(6) 0.6581(4)
Ag1A Ag 0.06309(12) 0.5831(2) 0.76346(13)
P2A P 0.0358(4) 0.5406(6) 0.1581(4)
C27 C 0.8612(18) 0.868(4) 0.435(3)
H25 H 0.8302 0.8912 0.3905
H26 H 0.8812 0.9350 0.4605
C28 C 0.828(2) 0.806(5) 0.484(3)
H27 H 0.8060 0.7430 0.4584
H28 H 0.7995 0.8566 0.4980
H29 H 0.8591 0.7809 0.5281
C29 C 0.9585(18) 0.752(3) 0.476(2)
H30 H 0.9935 0.7353 0.4560
H31 H 0.9437 0.6810 0.4895
C30 C 0.9848(19) 0.817(3) 0.546(2)
H32 H 1.0137 0.8728 0.5383
H33 H 1.0063 0.7660 0.5842
H34 H 0.9512 0.8531 0.5602
C31 C 0.940(2) 0.883(4) 0.380(3)
H35 H 0.9099 0.9185 0.3394
H36 H 0.9605 0.9397 0.4157
C32 C 0.985(2) 0.820(5) 0.355(3)
H37 H 0.9991 0.7568 0.3875
H38 H 1.0202 0.8673 0.3556
H39 H 0.9661 0.7934 0.3061
C33 C 0.8868(18) 0.698(3) 0.363(2)
H40 H 0.9226 0.6551 0.3580
H41 H 0.8607 0.6484 0.3831
C34 C 0.850(3) 0.741(5) 0.290(3)
H42 H 0.8441 0.8205 0.2932
H43 H 0.8104 0.7035 0.2754
H44 H 0.8731 0.7261 0.2545
N1 N 0.9093(14) 0.796(2) 0.4157(18)
loop_
_geom_bond_atom_site_label_1
_geom_bond_atom_site_label_2
_geom_bond_site_symmetry_1
_geom_bond_site_symmetry_2
W1 Se1 1_555 1_555
Se2 W1 1_555 1_555
Se3 W1 1_555 1_555
Se4 W1 1_555 1_555
Ag1 Se2 1_555 1_555
Ag2 Se3 1_555 1_555
Ag3 Se2 1_555 1_555
Br1 Ag1 1_555 1_555
C1 H1 1_555 1_555
H2 C1 1_555 1_555
C2 C1 1_555 1_555
H3 C2 1_555 1_555
H4 C2 1_555 1_555
C3 C4 1_555 1_555
C4 H5 1_555 1_555
C5 C4 1_555 1_555
H6 C5 1_555 1_555
C6 C5 1_555 1_555
H7 C6 1_555 1_555
C7 C6 1_555 1_555
H8 C7 1_555 1_555
C8 C3 1_555 1_555
H9 C8 1_555 1_555
C9 C10 1_555 1_555
C10 H10 1_555 1_555
C11 C10 1_555 1_555
H11 C11 1_555 1_555
C12 C11 1_555 1_555
H12 C12 1_555 1_555
C13 C12 1_555 1_555
H13 C13 1_555 1_555
C14 C9 1_555 1_555
H14 C14 1_555 1_555
C15 C16 1_555 1_555
C16 H15 1_555 1_555
C17 C16 1_555 1_555
H16 C17 1_555 1_555
C18 C17 1_555 1_555
H17 C18 1_555 1_555
C19 C18 1_555 1_555
H18 C19 1_555 1_555
C20 C15 1_555 1_555
H19 C20 1_555 1_555
C21 C22 1_555 1_555
C22 H20 1_555 1_555
C23 C22 1_555 1_555
H21 C23 1_555 1_555
C24 C23 1_555 1_555
H22 C24 1_555 1_555
C25 C24 1_555 1_555
H23 C25 1_555 1_555
C26 C21 1_555 1_555
H24 C26 1_555 1_555
Cl1 Ag3 1_555 1_555
P1 Ag2 1_555 1_555
P2 C2 1_555 1_555
C27 H25 1_555 1_555
H26 C27 1_555 1_555
C28 C27 1_555 1_555
H27 C28 1_555 1_555
H28 C28 1_555 1_555
H29 C28 1_555 1_555
C29 H30 1_555 1_555
H31 C29 1_555 1_555
C30 C29 1_555 1_555
H32 C30 1_555 1_555
H33 C30 1_555 1_555
H34 C30 1_555 1_555
C31 H35 1_555 1_555
H36 C31 1_555 1_555
C32 C31 1_555 1_555
H37 C32 1_555 1_555
H38 C32 1_555 1_555
H39 C32 1_555 1_555
C33 H40 1_555 1_555
H41 C33 1_555 1_555
C34 C33 1_555 1_555
H42 C34 1_555 1_555
H43 C34 1_555 1_555
H44 C34 1_555 1_555
N1 C27 1_555 1_555
Ag1A P2 1_555 1_555
P2A Ag1 1_555 1_555
Se3 Ag1 1_555 1_555
Se4 Ag2 1_555 1_555
Se4 Ag3 1_555 1_555
Ag2 Br1 1_555 1_555
Ag3 Br1 1_555 1_555
C1 P1 1_555 1_555
C3 P2 1_555 1_555
C7 C8 1_555 1_555
C9 P2 1_555 1_555
C13 C14 1_555 1_555
C15 P1 1_555 1_555
C19 C20 1_555 1_555
C21 P1 1_555 1_555
C25 C26 1_555 1_555
C29 N1 1_555 1_555
C31 N1 1_555 1_555
C33 N1 1_555 1_555

#END
