
#######################################################################
#
#                 Cambridge Crystallographic Data Centre
#                                CCDC 
#
#######################################################################
#
# If this CIF has been generated from an entry in the Cambridge 
# Structural Database, then it will include bibliographic, chemical, 
# crystal, experimental, refinement or atomic coordinate data resulting 
# from the CCDC's data processing and validation procedures.
#
#######################################################################

data_WOBCUN
_symmetry_cell_setting           triclinic
_symmetry_space_group_name_H-M   'P -1'
_symmetry_Int_Tables_number      2
_space_group_name_Hall           '-P 1'
loop_
_symmetry_equiv_pos_site_id
_symmetry_equiv_pos_as_xyz
1 x,y,z
2 -x,-y,-z
_cell_length_a                   10.819(2)
_cell_length_b                   14.098(3)
_cell_length_c                   15.868(4)
_cell_angle_alpha                105.950(3)
_cell_angle_beta                 96.694(3)
_cell_angle_gamma                93.262(3)
_cell_volume                     2301.2
loop_
_atom_site_label
_atom_site_type_symbol
_atom_site_fract_x
_atom_site_fract_y
_atom_site_fract_z
Mn1 Mn 0.67142(4) 0.10175(3) -0.04204(3)
C1 C 0.9321(3) 0.0885(2) 0.74657(19)
H1 H 1.0121 0.0696 0.7396
C2 C 0.8798(3) 0.0816(2) 0.81943(19)
H2 H 0.9266 0.0578 0.8609
C3 C 0.7024(3) 0.1419(2) 0.77369(19)
H3 H 0.6229 0.1612 0.7823
C4 C 0.7486(3) 0.1509(2) 0.69836(19)
H4 H 0.7005 0.1754 0.6580
C5 C 0.8661(2) 0.1236(2) 0.68334(17)
C6 C 0.9169(2) 0.1286(2) 0.60167(17)
C7 C 0.8391(3) 0.1212(2) 0.52471(17)
H5 H 0.7529 0.1168 0.5244
C8 C 0.8882(2) 0.1203(2) 0.44768(17)
C9 C 1.0172(3) 0.1286(2) 0.45241(18)
H6 H 1.0540 0.1286 0.4023
C10 C 1.0909(2) 0.1370(2) 0.53159(18)
C11 C 1.2296(3) 0.1474(2) 0.54080(18)
C12 C 1.3002(3) 0.1959(2) 0.6212(2)
H7 H 1.2616 0.2255 0.6700
C13 C 1.4288(3) 0.1995(3) 0.6277(3)
H8 H 1.4747 0.2333 0.6821
C14 C 1.4225(3) 0.1127(3) 0.4861(3)
H9 H 1.4639 0.0827 0.4389
C15 C 1.2935(3) 0.1059(2) 0.4712(2)
H10 H 1.2505 0.0741 0.4153
C16 C 0.8020(2) 0.1073(2) 0.36416(17)
C17 C 0.8315(3) 0.1509(2) 0.29896(18)
H11 H 0.9083 0.1876 0.3066
C18 C 0.7486(3) 0.1402(2) 0.22375(18)
H12 H 0.7698 0.1704 0.1815
C19 C 0.6347(2) 0.0856(2) 0.20983(17)
C20 C 0.5420(3) 0.0726(2) 0.12734(17)
C21 C 0.6054(3) 0.0404(2) 0.27359(18)
H13 H 0.5294 0.0024 0.2650
C22 C 0.6879(3) 0.0515(2) 0.34925(18)
H14 H 0.6666 0.0209 0.3912
C23 C 0.1993(4) 0.2130(4) -0.0624(4)
H15 H 0.1938 0.1517 -0.0470
H16 H 0.1413 0.2074 -0.1145
H17 H 0.1793 0.2655 -0.0144
C24 C 0.3524(5) 0.3225(4) -0.1066(4)
H18 H 0.3642 0.3795 -0.0557
H19 H 0.2838 0.3297 -0.1479
H20 H 0.4271 0.3168 -0.1342
C25 C 0.4145(3) 0.1781(3) -0.0689(2)
H21 H 0.3942 0.1233 -0.0497
N1 N 0.7646(2) 0.10710(17) 0.83472(14)
N2 N 1.4915(3) 0.1585(2) 0.5624(2)
N3 N 1.0420(2) 0.13612(17) 0.60627(15)
N4 N 0.3255(3) 0.2345(2) -0.0794(2)
O1 O 0.43727(17) 0.02768(15) 0.12394(12)
O2 O 0.57501(18) 0.10834(16) 0.06880(12)
O3 O 0.82542(18) 0.02698(16) 0.00272(14)
H22 H 0.8933(16) 0.0604(18) 0.0305(17)
H23 H 0.851(2) -0.0211(15) -0.0339(15)
O4 O 0.77152(19) 0.24405(16) 0.02286(13)
H24 H 0.733(2) 0.2865(18) 0.0571(15)
H25 H 0.8415(15) 0.249(2) 0.0564(15)
O5 O 0.5221(2) 0.19155(17) -0.08240(14)
Mn1_2 Mn 0.67142(4) 0.10175(3) 0.95796(3)
Mn1A Mn 0.32858(4) -0.10175(3) 0.04204(3)
N1_2 N 0.7646(2) 0.10710(17) -0.16528(14)
O1A O 0.56273(17) -0.02768(15) -0.12394(12)
C26 C 0.0522(3) 0.2017(2) 0.1438(2)
C27 C 0.1514(3) 0.2384(2) 0.22407(18)
C28 C 0.1348(3) 0.3228(2) 0.28824(18)
H26 H 0.0653 0.3569 0.2803
C29 C 0.2200(3) 0.3580(2) 0.36474(19)
H27 H 0.2058 0.4145 0.4079
C30 C 0.3261(2) 0.3100(2) 0.37767(18)
C31 C 0.3439(3) 0.2262(2) 0.31111(19)
H28 H 0.4153 0.1936 0.3171
C32 C 0.2571(3) 0.1907(2) 0.23632(19)
H29 H 0.2700 0.1336 0.1934
C33 C 0.4152(3) 0.3498(2) 0.45996(18)
C34 C 0.5426(3) 0.3420(2) 0.46292(19)
H30 H 0.5747 0.3094 0.4120
C35 C 0.6225(3) 0.3824(2) 0.54102(18)
C36 C 0.4572(3) 0.4398(2) 0.61467(18)
C37 C 0.3730(3) 0.3998(2) 0.53884(18)
H31 H 0.2881 0.4061 0.5402
C38 C 0.4167(3) 0.4989(2) 0.69816(19)
C39 C 0.4986(3) 0.5704(3) 0.7594(2)
H32 H 0.5812 0.5801 0.7503
C40 C 0.4569(4) 0.6272(3) 0.8339(2)
H33 H 0.5130 0.6766 0.8731
C41 C 0.2655(4) 0.5473(3) 0.7954(3)
H34 H 0.1845 0.5379 0.8078
C42 C 0.2966(3) 0.4876(3) 0.7171(2)
H35 H 0.2374 0.4407 0.6780
C43 C 0.7599(3) 0.3779(2) 0.5470(2)
C44 C 0.8313(3) 0.3808(2) 0.6261(2)
H36 H 0.7934 0.3821 0.6760
C45 C 0.9587(3) 0.3817(3) 0.6300(3)
H37 H 1.0048 0.3835 0.6838
C46 C 0.9511(3) 0.3765(3) 0.4871(3)
H38 H 0.9916 0.3746 0.4382
C47 C 0.8223(3) 0.3753(2) 0.4759(2)
H39 H 0.7786 0.3728 0.4212
N5 N 0.3435(3) 0.6166(2) 0.8538(2)
N6 N 0.5807(2) 0.43104(17) 0.61659(15)
N7 N 1.0210(3) 0.3801(2) 0.5625(2)
O6 O 0.0509(2) 0.11514(17) 0.09541(14)
O7 O -0.0244(2) 0.26044(17) 0.13198(16)
C48 C 0.8855(6) 0.5348(4) 0.8757(4)
H40 H 0.9707 0.5404 0.8647
H41 H 0.8752 0.5849 0.9286
H42 H 0.8311 0.5435 0.8266
C49 C 0.7322(6) 0.4186(5) 0.9082(5)
H43 H 0.6699 0.4204 0.8605
H44 H 0.7194 0.4675 0.9611
H45 H 0.7259 0.3541 0.9174
C50 C 0.9367(6) 0.3723(4) 0.8793(4)
H46 H 0.9137 0.3121 0.8892
N8 N 0.8552(4) 0.4393(3) 0.8862(2)
O8 O 1.0435(4) 0.3865(4) 0.8599(3)
loop_
_geom_bond_atom_site_label_1
_geom_bond_atom_site_label_2
_geom_bond_site_symmetry_1
_geom_bond_site_symmetry_2
Mn1 O2 1_555 1_555
C1 H1 1_555 1_555
C2 C1 1_555 1_555
H2 C2 1_555 1_555
C3 H3 1_555 1_555
C4 C3 1_555 1_555
H4 C4 1_555 1_555
C5 C1 1_555 1_555
C6 C5 1_555 1_555
C7 C6 1_555 1_555
H5 C7 1_555 1_555
C8 C7 1_555 1_555
C9 C8 1_555 1_555
H6 C9 1_555 1_555
C10 C9 1_555 1_555
C11 C10 1_555 1_555
C12 C11 1_555 1_555
H7 C12 1_555 1_555
C13 C12 1_555 1_555
H8 C13 1_555 1_555
C14 H9 1_555 1_555
C15 C11 1_555 1_555
H10 C15 1_555 1_555
C16 C8 1_555 1_555
C17 C16 1_555 1_555
H11 C17 1_555 1_555
C18 C17 1_555 1_555
H12 C18 1_555 1_555
C19 C18 1_555 1_555
C20 C19 1_555 1_555
C21 C19 1_555 1_555
H13 C21 1_555 1_555
C22 C16 1_555 1_555
H14 C22 1_555 1_555
C23 H15 1_555 1_555
H16 C23 1_555 1_555
H17 C23 1_555 1_555
C24 H18 1_555 1_555
H19 C24 1_555 1_555
H20 C24 1_555 1_555
C25 H21 1_555 1_555
N1 C2 1_555 1_555
N2 C13 1_555 1_555
N3 C6 1_555 1_555
N4 C23 1_555 1_555
O1 C20 1_555 1_555
O2 C20 1_555 1_555
O3 Mn1 1_555 1_555
H22 O3 1_555 1_555
H23 O3 1_555 1_555
O4 Mn1 1_555 1_555
H24 O4 1_555 1_555
H25 O4 1_555 1_555
O5 Mn1 1_555 1_555
C26 C27 1_555 1_555
C27 C28 1_555 1_555
C28 H26 1_555 1_555
C29 C28 1_555 1_555
H27 C29 1_555 1_555
C30 C29 1_555 1_555
C31 C30 1_555 1_555
H28 C31 1_555 1_555
C32 C27 1_555 1_555
H29 C32 1_555 1_555
C33 C30 1_555 1_555
C34 C33 1_555 1_555
H30 C34 1_555 1_555
C35 C34 1_555 1_555
C36 C37 1_555 1_555
C37 C33 1_555 1_555
H31 C37 1_555 1_555
C38 C36 1_555 1_555
C39 C38 1_555 1_555
H32 C39 1_555 1_555
C40 C39 1_555 1_555
H33 C40 1_555 1_555
C41 H34 1_555 1_555
C42 C38 1_555 1_555
H35 C42 1_555 1_555
C43 C35 1_555 1_555
C44 C43 1_555 1_555
H36 C44 1_555 1_555
C45 C44 1_555 1_555
H37 C45 1_555 1_555
C46 H38 1_555 1_555
C47 C43 1_555 1_555
H39 C47 1_555 1_555
N5 C40 1_555 1_555
N6 C35 1_555 1_555
N7 C45 1_555 1_555
O6 C26 1_555 1_555
O7 C26 1_555 1_555
C48 H40 1_555 1_555
H41 C48 1_555 1_555
H42 C48 1_555 1_555
C49 H43 1_555 1_555
H44 C49 1_555 1_555
H45 C49 1_555 1_555
C50 H46 1_555 1_555
N8 C48 1_555 1_555
O8 C50 1_555 1_555
Mn1_2 N1 1_555 1_555
Mn1A O1 1_555 1_555
N1_2 Mn1 1_555 1_555
O1A Mn1 1_555 1_555
C3 N1 1_555 1_555
C4 C5 1_555 1_555
C10 N3 1_555 1_555
C14 C15 1_555 1_555
C14 N2 1_555 1_555
C21 C22 1_555 1_555
C24 N4 1_555 1_555
C25 N4 1_555 1_555
C25 O5 1_555 1_555
C31 C32 1_555 1_555
C36 N6 1_555 1_555
C41 C42 1_555 1_555
C41 N5 1_555 1_555
C46 C47 1_555 1_555
C46 N7 1_555 1_555
C49 N8 1_555 1_555
C50 N8 1_555 1_555

#END
