
#######################################################################
#
#                 Cambridge Crystallographic Data Centre
#                                CCDC 
#
#######################################################################
#
# If this CIF has been generated from an entry in the Cambridge 
# Structural Database, then it will include bibliographic, chemical, 
# crystal, experimental, refinement or atomic coordinate data resulting 
# from the CCDC's data processing and validation procedures.
#
#######################################################################

data_WOBCEX
_symmetry_cell_setting           triclinic
_symmetry_space_group_name_H-M   'P -1'
_symmetry_Int_Tables_number      2
_space_group_name_Hall           '-P 1'
loop_
_symmetry_equiv_pos_site_id
_symmetry_equiv_pos_as_xyz
1 x,y,z
2 -x,-y,-z
_cell_length_a                   7.5880(3)
_cell_length_b                   8.6501(4)
_cell_length_c                   9.9157(4)
_cell_angle_alpha                86.757(3)
_cell_angle_beta                 89.830(3)
_cell_angle_gamma                85.209(3)
_cell_volume                     647.523
loop_
_atom_site_label
_atom_site_type_symbol
_atom_site_fract_x
_atom_site_fract_y
_atom_site_fract_z
Nd1 Nd 0.43312(4) 1.11537(3) 0.16748(3)
O1 O 0.4283(5) 1.3574(5) 0.2773(4)
O2 O 0.1304(5) 1.2401(5) 0.1357(4)
O3 O 0.4979(6) 1.8345(5) 0.2292(4)
O4 O 0.5950(6) 1.7226(5) 0.0417(4)
O5 O -0.3058(5) 1.0312(4) 0.0073(4)
N1 N 0.5679(7) 1.5431(5) 0.3729(5)
N2 N -0.0295(6) 1.3518(5) -0.0379(5)
O6 O 0.2352(7) 1.0475(6) 0.3589(5)
O7 O -0.2847(6) 1.2437(5) 0.1155(5)
O8 O 0.6504(9) 1.0706(6) 0.3572(6)
C1 C 0.4657(8) 1.4265(6) 0.3790(6)
C2 C 0.6587(8) 1.5848(6) 0.2473(6)
H1 H 0.6632 1.4952 0.1892
H2 H 0.7820 1.6035 0.2692
C3 C 0.5752(7) 1.7267(7) 0.1671(6)
C4 C -0.0880(8) 1.2036(6) -0.0696(6)
H3 H 0.0129 1.1233 -0.0618
H4 H -0.1314 1.2096 -0.1640
C5 C 0.0719(7) 1.3582(6) 0.0685(6)
C6 C 0.1226(8) 1.5117(7) 0.1088(6)
H5 H 0.1013 1.5186 0.2069
H6 H 0.2512 1.5161 0.0936
C7 C 0.6108(8) 1.6269(7) 0.4900(6)
C8 C -0.2349(7) 1.1573(7) 0.0252(6)
H7 H 0.535(9) 1.752(8) 0.484(7)
H8 H 0.141(11) 1.112(9) 0.377(8)
H9 H 0.633(13) 1.020(12) 0.438(11)
H10 H 0.213(10) 0.954(10) 0.389(8)
H11 H 0.747(12) 1.615(11) 0.498(9)
H12 H 0.74(3) 1.05(2) 0.40(2)
O1A O 0.5717(5) 1.6426(5) 0.7227(4)
O3A O 0.5021(6) 1.1655(5) 0.7708(4)
O4A O 0.4050(6) 1.2774(5) 0.9583(4)
N1A N 0.4321(7) 1.4569(5) 0.6271(5)
C1A C 0.5343(8) 1.5735(6) 0.6210(6)
C2A C 0.3413(8) 1.4152(6) 0.7527(6)
H1A H 0.3368 1.5048 0.8108
H2A H 0.2180 1.3965 0.7308
C3A C 0.4248(7) 1.2733(7) 0.8329(6)
C7A C 0.3892(8) 1.3731(7) 0.5100(6)
H7A H 0.465(9) 1.248(8) 0.516(7)
H11A H 0.253(12) 1.385(11) 0.502(9)
O2A O -0.1304(5) 1.7599(5) -0.1357(4)
O5A O 0.3058(5) 1.9688(4) -0.0073(4)
N2A N 0.0295(6) 1.6482(5) 0.0379(5)
O7A O 0.2847(6) 1.7563(5) -0.1155(5)
C4A C 0.0880(8) 1.7964(6) 0.0696(6)
H3A H -0.0129 1.8767 0.0618
H4A H 0.1314 1.7904 0.1640
C5A C -0.0719(7) 1.6418(6) -0.0685(6)
C6A C -0.1226(8) 1.4883(7) -0.1088(6)
H5A H -0.1013 1.4814 -0.2069
H6A H -0.2512 1.4839 -0.0936
C8A C 0.2349(7) 1.8427(7) -0.0252(6)
Nd1A Nd -0.43312(4) 0.88463(3) -0.16748(3)
O6A O -0.2352(7) 0.9525(6) -0.3589(5)
O8A O -0.6504(9) 0.9294(6) -0.3572(6)
H8A H -0.141(11) 0.888(9) -0.377(8)
H9A H -0.633(13) 0.980(12) -0.438(11)
H10A H -0.213(10) 1.046(10) -0.389(8)
H12A H -0.74(3) 0.95(2) -0.40(2)
Nd1_2 Nd -0.56688(4) 1.11537(3) 0.16748(3)
Nd1_3 Nd 0.43312(4) 1.11537(3) 1.16748(3)
Nd1_4 Nd 0.43312(4) 2.11537(3) 0.16748(3)
Nd1A_2 Nd -0.43312(4) 1.88463(3) -0.16748(3)
Nd1A_3 Nd 0.56688(4) 0.88463(3) 0.83252(3)
Nd1A_4 Nd 0.56688(4) 1.88463(3) -0.16748(3)
Nd1A_5 Nd 0.56688(4) 1.88463(3) 0.83252(3)
O1A_2 O -0.4283(5) 0.6426(5) -0.2773(4)
O2A_2 O -0.1304(5) 0.7599(5) -0.1357(4)
O3_2 O 0.4979(6) 0.8345(5) 0.2292(4)
O3A_2 O -0.4979(6) 1.1655(5) -0.2292(4)
O4_2 O -0.4050(6) 0.7226(5) 0.0417(4)
O4A_2 O 0.4050(6) 1.2774(5) -0.0417(4)
O5_2 O 0.6942(5) 1.0312(4) 0.0073(4)
O5A_2 O -0.6942(5) 0.9688(4) -0.0073(4)
O5A_3 O 0.3058(5) 0.9688(4) -0.0073(4)
O7_2 O 0.7153(6) 1.2437(5) 0.1155(5)
O7A_2 O -0.7153(6) 0.7563(5) -0.1155(5)
Br1 Br 0.91717(10) 1.26879(8) 0.52298(8)
loop_
_geom_bond_atom_site_label_1
_geom_bond_atom_site_label_2
_geom_bond_site_symmetry_1
_geom_bond_site_symmetry_2
Nd1 O1 1_555 1_555
O1 C1 1_555 1_555
O2 Nd1 1_555 1_555
O3 C3 1_555 1_555
O4 C3 1_555 1_555
O5 C8 1_555 1_555
N1 C1 1_555 1_555
N2 C4 1_555 1_555
O6 Nd1 1_555 1_555
O7 C8 1_555 1_555
O8 Nd1 1_555 1_555
C1 C7A 1_555 1_555
C2 N1 1_555 1_555
H1 C2 1_555 1_555
H2 C2 1_555 1_555
C3 C2 1_555 1_555
C4 H3 1_555 1_555
H4 C4 1_555 1_555
C5 O2 1_555 1_555
C6 C5 1_555 1_555
H5 C6 1_555 1_555
H6 C6 1_555 1_555
C7 N1 1_555 1_555
C8 C4 1_555 1_555
H7 C7 1_555 1_555
H8 O6 1_555 1_555
H9 O8 1_555 1_555
H10 O6 1_555 1_555
H11 C7 1_555 1_555
H12 O8 1_555 1_555
O1A C1A 1_555 1_555
O3A C3A 1_555 1_555
O4A C3A 1_555 1_555
N1A C1A 1_555 1_555
C1A C7 1_555 1_555
C2A N1A 1_555 1_555
H1A C2A 1_555 1_555
H2A C2A 1_555 1_555
C3A C2A 1_555 1_555
C7A N1A 1_555 1_555
H7A C7A 1_555 1_555
H11A C7A 1_555 1_555
O2A C5A 1_555 1_555
O5A C8A 1_555 1_555
N2A C6 1_555 1_555
O7A C8A 1_555 1_555
C4A N2A 1_555 1_555
H3A C4A 1_555 1_555
H4A C4A 1_555 1_555
C5A N2A 1_555 1_555
C6A N2 1_555 1_555
H5A C6A 1_555 1_555
H6A C6A 1_555 1_555
C8A C4A 1_555 1_555
Nd1A O5 1_555 1_555
O6A Nd1A 1_555 1_555
O8A Nd1A 1_555 1_555
H8A O6A 1_555 1_555
H9A O8A 1_555 1_555
H10A O6A 1_555 1_555
H12A O8A 1_555 1_555
Nd1_2 O5 1_555 1_555
Nd1_3 O4A 1_555 1_555
Nd1_4 O3 1_555 1_555
Nd1A_2 O2A 1_555 1_555
Nd1A_3 O3A 1_555 1_555
Nd1A_4 O4 1_555 1_555
Nd1A_5 O1A 1_555 1_555
O1A_2 Nd1A 1_555 1_555
O2A_2 Nd1A 1_555 1_555
O3_2 Nd1 1_555 1_555
O3A_2 Nd1A 1_555 1_555
O4_2 Nd1A 1_555 1_555
O4A_2 Nd1 1_555 1_555
O5_2 Nd1 1_555 1_555
O5A_2 Nd1A 1_555 1_555
O5A_3 Nd1 1_555 1_555
O7_2 Nd1 1_555 1_555
O7A_2 Nd1A 1_555 1_555
N2 C5 1_555 1_555
O7 Nd1_2 1_555 1_555
O5A Nd1_4 1_555 1_555
O5A Nd1A_4 1_555 1_555
O7A Nd1A_4 1_555 1_555
C5A C6A 1_555 1_555
Nd1_2 O5A_2 1_555 1_555

#END
