
#######################################################################
#
#                 Cambridge Crystallographic Data Centre
#                                CCDC 
#
#######################################################################
#
# If this CIF has been generated from an entry in the Cambridge 
# Structural Database, then it will include bibliographic, chemical, 
# crystal, experimental, refinement or atomic coordinate data resulting 
# from the CCDC's data processing and validation procedures.
#
#######################################################################

data_WOBCOH
_symmetry_cell_setting           triclinic
_symmetry_space_group_name_H-M   'P -1'
_symmetry_Int_Tables_number      2
_space_group_name_Hall           '-P 1'
loop_
_symmetry_equiv_pos_site_id
_symmetry_equiv_pos_as_xyz
1 x,y,z
2 -x,-y,-z
_cell_length_a                   7.1232(10)
_cell_length_b                   10.7867(15)
_cell_length_c                   13.2315(18)
_cell_angle_alpha                66.423(2)
_cell_angle_beta                 82.408(2)
_cell_angle_gamma                75.213(2)
_cell_volume                     900.409
loop_
_atom_site_label
_atom_site_type_symbol
_atom_site_fract_x
_atom_site_fract_y
_atom_site_fract_z
Co1 Co 0.0000 0.5000 0.5000
C1 C 0.8310(4) 0.3185(2) -0.14713(19)
H1 H 0.8045 0.3505 -0.0900
C2 C 0.8799(4) 0.4047(2) -0.25167(19)
H2 H 0.8844 0.4947 -0.2627
C3 C 0.9123(4) 0.2357(2) -0.31860(19)
H3 H 0.9407 0.2057 -0.3769
C4 C 0.8636(3) 0.1442(2) -0.21744(18)
H4 H 0.8588 0.0552 -0.2088
C5 C 0.8215(3) 0.1842(2) -0.12781(17)
C6 C 0.7678(3) 0.0849(2) -0.01865(17)
C7 C 0.7055(3) -0.1329(2) 0.07849(17)
C8 C 0.7088(3) -0.2688(2) 0.07315(19)
C9 C 0.7643(5) -0.2895(3) -0.0240(2)
H5 H 0.7995 -0.2188 -0.0863
C10 C 0.7671(6) -0.4153(3) -0.0281(3)
H6 H 0.8064 -0.4261 -0.0945
C11 C 0.6640(5) -0.5011(3) 0.1472(3)
H7 H 0.6278 -0.5735 0.2077
C12 C 0.6570(5) -0.3789(3) 0.1605(2)
H8 H 0.6175 -0.3713 0.2281
C13 C 0.6490(3) -0.1036(2) 0.17316(18)
H9 H 0.6058 -0.1688 0.2367
C14 C 0.6584(3) 0.0246(2) 0.17096(18)
C15 C 0.7214(3) 0.1198(2) 0.07361(18)
H10 H 0.7323 0.2054 0.0703
C16 C 0.5941(4) 0.0688(2) 0.26557(18)
C17 C 0.7134(4) 0.1204(3) 0.3054(2)
H11 H 0.8425 0.1148 0.2806
C18 C 0.6429(4) 0.1805(3) 0.3820(2)
H12 H 0.7266 0.2107 0.4108
C19 C 0.4495(3) 0.1957(2) 0.41576(18)
C20 C 0.3627(3) 0.2828(2) 0.48276(18)
C21 C 0.3328(4) 0.1380(3) 0.3801(2)
H13 H 0.2037 0.1435 0.4050
C22 C 0.4055(4) 0.0719(3) 0.3080(2)
H14 H 0.3270 0.0292 0.2878
N1 N 0.9210(3) 0.3662(2) -0.33794(15)
N2 N 0.7183(4) -0.5222(3) 0.0550(2)
N3 N 0.7611(3) -0.03937(19) -0.01577(15)
O1 O 0.4749(3) 0.31026(19) 0.53284(15)
O2 O 0.1808(2) 0.32662(17) 0.47997(14)
O3 O 0.2407(3) 0.52784(18) 0.56509(14)
C1A C -0.8310(4) 0.6815(2) 1.14713(19)
H1A H -0.8045 0.6495 1.0900
C2A C -0.8799(4) 0.5953(2) 1.25167(19)
H2A H -0.8844 0.5053 1.2627
C3A C -0.9123(4) 0.7643(2) 1.31860(19)
H3A H -0.9407 0.7943 1.3769
C4A C -0.8636(3) 0.8558(2) 1.21744(18)
H4A H -0.8588 0.9448 1.2088
C5A C -0.8215(3) 0.8158(2) 1.12781(17)
C6A C -0.7678(3) 0.9151(2) 1.01865(17)
C7A C -0.7055(3) 1.1329(2) 0.92151(17)
C8A C -0.7088(3) 1.2688(2) 0.92685(19)
C9A C -0.7643(5) 1.2895(3) 1.0240(2)
H5A H -0.7995 1.2188 1.0863
C10A C -0.7671(6) 1.4153(3) 1.0281(3)
H6A H -0.8064 1.4261 1.0945
C11A C -0.6640(5) 1.5011(3) 0.8528(3)
H7A H -0.6278 1.5735 0.7923
C12A C -0.6570(5) 1.3789(3) 0.8395(2)
H8A H -0.6175 1.3713 0.7719
C13A C -0.6490(3) 1.1036(2) 0.82684(18)
H9A H -0.6058 1.1688 0.7633
C14A C -0.6584(3) 0.9754(2) 0.82904(18)
C15A C -0.7214(3) 0.8802(2) 0.92639(18)
H10A H -0.7323 0.7946 0.9297
C16A C -0.5941(4) 0.9312(2) 0.73443(18)
C17A C -0.7134(4) 0.8796(3) 0.6946(2)
H11A H -0.8425 0.8852 0.7194
C18A C -0.6429(4) 0.8195(3) 0.6180(2)
H12A H -0.7266 0.7893 0.5892
C19A C -0.4495(3) 0.8043(2) 0.58424(18)
C20A C -0.3627(3) 0.7172(2) 0.51724(18)
C21A C -0.3328(4) 0.8620(3) 0.6199(2)
H13A H -0.2037 0.8565 0.5950
C22A C -0.4055(4) 0.9281(3) 0.6920(2)
H14A H -0.3270 0.9708 0.7122
N1A N -0.9210(3) 0.6338(2) 1.33794(15)
N2A N -0.7183(4) 1.5222(3) 0.9450(2)
N3A N -0.7611(3) 1.03937(19) 1.01577(15)
O1A O -0.4749(3) 0.68974(19) 0.46716(15)
O2A O -0.1808(2) 0.67338(17) 0.52003(14)
O3A O -0.2407(3) 0.47216(18) 0.43491(14)
Co1_2 Co -1.0000 0.5000 1.5000
Co1_3 Co 1.0000 0.5000 -0.5000
N1_2 N -0.0790(3) 0.3662(2) 0.66206(15)
N1A_2 N 0.0790(3) 0.6338(2) 0.33794(15)
loop_
_geom_bond_atom_site_label_1
_geom_bond_atom_site_label_2
_geom_bond_site_symmetry_1
_geom_bond_site_symmetry_2
Co1 O2 1_555 1_555
C1 H1 1_555 1_555
C2 C1 1_555 1_555
H2 C2 1_555 1_555
C3 H3 1_555 1_555
C4 C3 1_555 1_555
H4 C4 1_555 1_555
C5 C1 1_555 1_555
C6 C5 1_555 1_555
C7 C8 1_555 1_555
C8 C9 1_555 1_555
C9 H5 1_555 1_555
C10 C9 1_555 1_555
H6 C10 1_555 1_555
C11 H7 1_555 1_555
C12 C8 1_555 1_555
H8 C12 1_555 1_555
C13 C7 1_555 1_555
H9 C13 1_555 1_555
C14 C13 1_555 1_555
C15 C6 1_555 1_555
H10 C15 1_555 1_555
C16 C14 1_555 1_555
C17 C16 1_555 1_555
H11 C17 1_555 1_555
C18 C17 1_555 1_555
H12 C18 1_555 1_555
C19 C18 1_555 1_555
C20 C19 1_555 1_555
C21 C19 1_555 1_555
H13 C21 1_555 1_555
C22 C16 1_555 1_555
H14 C22 1_555 1_555
N1 C2 1_555 1_555
N2 C10 1_555 1_555
N3 C6 1_555 1_555
O1 C20 1_555 1_555
O2 C20 1_555 1_555
O3 Co1 1_555 1_555
C1A H1A 1_555 1_555
C2A C1A 1_555 1_555
H2A C2A 1_555 1_555
C3A H3A 1_555 1_555
C4A C3A 1_555 1_555
H4A C4A 1_555 1_555
C5A C1A 1_555 1_555
C6A C5A 1_555 1_555
C7A C8A 1_555 1_555
C8A C9A 1_555 1_555
C9A H5A 1_555 1_555
C10A C9A 1_555 1_555
H6A C10A 1_555 1_555
C11A H7A 1_555 1_555
C12A C8A 1_555 1_555
H8A C12A 1_555 1_555
C13A C7A 1_555 1_555
H9A C13A 1_555 1_555
C14A C13A 1_555 1_555
C15A C6A 1_555 1_555
H10A C15A 1_555 1_555
C16A C14A 1_555 1_555
C17A C16A 1_555 1_555
H11A C17A 1_555 1_555
C18A C17A 1_555 1_555
H12A C18A 1_555 1_555
C19A C18A 1_555 1_555
C20A C19A 1_555 1_555
C21A C19A 1_555 1_555
H13A C21A 1_555 1_555
C22A C16A 1_555 1_555
H14A C22A 1_555 1_555
N1A C2A 1_555 1_555
N2A C10A 1_555 1_555
N3A C6A 1_555 1_555
O1A C20A 1_555 1_555
O2A Co1 1_555 1_555
O3A Co1 1_555 1_555
Co1_2 N1A 1_555 1_555
Co1_3 N1 1_555 1_555
N1_2 Co1 1_555 1_555
N1A_2 Co1 1_555 1_555
C3 N1 1_555 1_555
C4 C5 1_555 1_555
C7 N3 1_555 1_555
C11 C12 1_555 1_555
C11 N2 1_555 1_555
C14 C15 1_555 1_555
C21 C22 1_555 1_555
C3A N1A 1_555 1_555
C4A C5A 1_555 1_555
C7A N3A 1_555 1_555
C11A C12A 1_555 1_555
C11A N2A 1_555 1_555
C14A C15A 1_555 1_555
C20A O2A 1_555 1_555
C21A C22A 1_555 1_555

#END
