
#######################################################################
#
#                 Cambridge Crystallographic Data Centre
#                                CCDC 
#
#######################################################################
#
# If this CIF has been generated from an entry in the Cambridge 
# Structural Database, then it will include bibliographic, chemical, 
# crystal, experimental, refinement or atomic coordinate data resulting 
# from the CCDC's data processing and validation procedures.
#
#######################################################################

data_WOBDIC
_symmetry_cell_setting           triclinic
_symmetry_space_group_name_H-M   'P -1'
_symmetry_Int_Tables_number      2
_space_group_name_Hall           '-P 1'
loop_
_symmetry_equiv_pos_site_id
_symmetry_equiv_pos_as_xyz
1 x,y,z
2 -x,-y,-z
_cell_length_a                   10.7460(4)
_cell_length_b                   12.4530(6)
_cell_length_c                   12.5630(5)
_cell_angle_alpha                106.021(4)
_cell_angle_beta                 94.563(3)
_cell_angle_gamma                112.869(4)
_cell_volume                     1455.37
loop_
_atom_site_label
_atom_site_type_symbol
_atom_site_fract_x
_atom_site_fract_y
_atom_site_fract_z
Ag1 Ag 0.44812(5) 0.37537(4) 0.37855(4)
Mo1 Mo -0.07604(5) -0.22963(4) -0.17148(4)
Mo2 Mo -0.12467(5) 0.22175(4) -0.04124(4)
Mo3 Mo 0.27764(5) 0.07600(4) 0.10930(4)
Mo4 Mo 0.07922(5) 0.06403(4) -0.10181(4)
O1 O 0.1998(3) 0.1719(3) 0.0445(3)
O2 O 0.0281(4) 0.1722(3) -0.1293(3)
O3 O 0.0884(4) 0.0802(3) 0.1889(3)
O4 O 0.0806(4) -0.0649(3) -0.0212(3)
O5 O -0.2392(4) 0.2307(4) 0.0435(3)
O6 O -0.1133(4) 0.3223(4) -0.1107(3)
O7 O -0.0405(4) -0.3102(3) -0.0751(3)
O8 O 0.2395(4) -0.0662(3) 0.1521(3)
O9 O 0.3820(4) 0.1910(3) 0.2306(3)
O10 O 0.0466(4) -0.2247(3) -0.2487(3)
O11 O -0.2251(4) -0.3435(3) -0.2605(3)
O12 O 0.3829(4) 0.0647(4) 0.0194(3)
O13 O 0.1918(4) 0.0552(3) -0.1854(3)
N1 N 0.5687(5) 0.5593(4) 0.3678(4)
N2 N 0.6016(5) 0.6561(4) 0.4625(4)
N3 N 0.7059(6) 0.7301(5) 0.3428(5)
N4 N 0.6827(6) 0.7570(5) 0.4482(5)
N5 N 0.6040(5) 0.3198(4) -0.1469(4)
N6 N 0.5552(6) 0.1594(5) -0.2907(5)
C1 C 0.6339(6) 0.6080(5) 0.2948(5)
C2 C 0.6264(6) 0.5359(5) 0.1799(5)
C3 C 0.5116(6) 0.4251(5) 0.1244(5)
H1 H 0.4392 0.3978 0.1607
C4 C 0.5040(6) 0.3555(5) 0.0167(5)
H2 H 0.4253 0.2829 -0.0215
C5 C 0.6132(6) 0.3938(5) -0.0344(5)
C6 C 0.7287(6) 0.5029(5) 0.0188(5)
H3 H 0.8019 0.5282 -0.0171
C7 C 0.7343(6) 0.5738(5) 0.1257(5)
H4 H 0.8115 0.6482 0.1621
C8 C 0.6237(7) 0.2631(6) -0.3221(6)
H5 H 0.6445 0.2630 -0.3926
C9 C 0.6531(6) 0.3611(6) -0.2326(5)
H6 H 0.6987 0.4432 -0.2283
C10 C 0.5452(6) 0.1965(6) -0.1850(5)
H7 H 0.5043 0.1457 -0.1436
Ag1A Ag -0.44812(5) -0.37537(4) -0.37855(4)
Ag1A_2 Ag 0.55188(5) 0.62463(4) 0.62145(4)
Mo1A Mo 0.07604(5) 0.22963(4) 0.17148(4)
Mo2A Mo 0.12467(5) -0.22175(4) 0.04124(4)
Mo4A Mo -0.07922(5) -0.06403(4) 0.10181(4)
O1A O -0.1998(3) -0.1719(3) -0.0445(3)
O3A O -0.0884(4) -0.0802(3) -0.1889(3)
O4A O -0.0806(4) 0.0649(3) 0.0212(3)
O7A O 0.0405(4) 0.3102(3) 0.0751(3)
O8A O -0.2395(4) 0.0662(3) -0.1521(3)
O11A O 0.2251(4) 0.3435(3) 0.2605(3)
N2A N 0.3984(5) 0.3439(4) 0.5375(4)
C11 C 0.1674(9) -0.0296(6) 0.4286(6)
H8 H 0.2090 0.0312 0.3968
N7 N 0.0547(5) -0.2074(4) 0.4506(4)
N8 N -0.3340(6) -0.7671(5) 0.4186(5)
N9 N -0.4099(6) -0.8906(5) 0.3567(5)
N10 N -0.4042(6) -0.9110(5) 0.2511(5)
N11 N -0.3265(5) -0.8048(5) 0.2424(5)
H9 H -0.3063 -0.7933 0.1804
C12 C -0.2827(6) -0.7164(6) 0.3438(5)
C13 C -0.1067(6) -0.3788(5) 0.4985(5)
H10 H -0.1055 -0.3231 0.5659
C14 C -0.0267(6) -0.3367(5) 0.4254(5)
C15 C -0.0280(6) -0.4186(5) 0.3249(5)
H11 H 0.0265 -0.3902 0.2758
C16 C -0.1111(6) -0.5428(5) 0.2983(5)
H12 H -0.1124 -0.5984 0.2308
C17 C -0.1924(6) -0.5859(5) 0.3703(5)
C18 C -0.1870(6) -0.5011(6) 0.4721(5)
H13 H -0.2394 -0.5292 0.5224
C19 C 0.0994(8) -0.1504(6) 0.3737(6)
H14 H 0.0848 -0.1893 0.2961
N12 N 0.1647(6) -0.0114(5) 0.5412(5)
C20 C 0.0959(7) -0.1213(5) 0.5516(5)
H15 H 0.0793 -0.1355 0.6191
loop_
_geom_bond_atom_site_label_1
_geom_bond_atom_site_label_2
_geom_bond_site_symmetry_1
_geom_bond_site_symmetry_2
Ag1 O9 1_555 1_555
Mo1 O4 1_555 1_555
Mo2 O2 1_555 1_555
Mo3 O1 1_555 1_555
Mo4 O1 1_555 1_555
O1 Mo1A 1_555 1_555
O2 Mo4 1_555 1_555
O3 Mo3 1_555 1_555
O4 Mo3 1_555 1_555
O5 Mo2 1_555 1_555
O6 Mo2 1_555 1_555
O7 Mo1 1_555 1_555
O8 Mo3 1_555 1_555
O9 Mo3 1_555 1_555
O10 Mo1 1_555 1_555
O11 Mo1 1_555 1_555
O12 Mo3 1_555 1_555
O13 Mo4 1_555 1_555
N1 Ag1 1_555 1_555
N2 N1 1_555 1_555
N3 N4 1_555 1_555
N4 N2 1_555 1_555
N5 C5 1_555 1_555
N6 C8 1_555 1_555
C1 N1 1_555 1_555
C2 C1 1_555 1_555
C3 C2 1_555 1_555
H1 C3 1_555 1_555
C4 C3 1_555 1_555
H2 C4 1_555 1_555
C5 C4 1_555 1_555
C6 C5 1_555 1_555
H3 C6 1_555 1_555
C7 C2 1_555 1_555
H4 C7 1_555 1_555
C8 H5 1_555 1_555
C9 N5 1_555 1_555
H6 C9 1_555 1_555
C10 N5 1_555 1_555
H7 C10 1_555 1_555
C11 H8 1_555 1_555
N7 C14 1_555 1_555
N8 N9 1_555 1_555
N9 N10 1_555 1_555
N10 N11 1_555 1_555
N11 H9 1_555 1_555
C12 N8 1_555 1_555
C13 H10 1_555 1_555
C14 C13 1_555 1_555
C15 C14 1_555 1_555
H11 C15 1_555 1_555
C16 C15 1_555 1_555
H12 C16 1_555 1_555
C17 C12 1_555 1_555
C18 C13 1_555 1_555
H13 C18 1_555 1_555
C19 C11 1_555 1_555
H14 C19 1_555 1_555
N12 C11 1_555 1_555
C20 N7 1_555 1_555
H15 C20 1_555 1_555
Ag1A O11 1_555 1_555
Ag1A_2 N2 1_555 1_555
Mo1A O3 1_555 1_555
Mo2A O4 1_555 1_555
Mo4A O3 1_555 1_555
O1A Mo1 1_555 1_555
O3A Mo1 1_555 1_555
O4A Mo2 1_555 1_555
O7A Mo2 1_555 1_555
O8A Mo2 1_555 1_555
O11A Ag1 1_555 1_555
N2A Ag1 1_555 1_555
Mo4 O4 1_555 1_555
Mo4 O3A 1_555 1_555
Mo4 O4A 1_555 1_555
O4 Mo4A 1_555 1_555
O7 Mo2A 1_555 1_555
O8 Mo2A 1_555 1_555
N3 C1 1_555 1_555
N6 C10 1_555 1_555
C6 C7 1_555 1_555
C8 C9 1_555 1_555
N7 C19 1_555 1_555
N11 C12 1_555 1_555
C16 C17 1_555 1_555
C17 C18 1_555 1_555
N12 C20 1_555 1_555
Mo1A O4A 1_555 1_555
Mo1A O7A 1_555 1_555
Mo1A O11A 1_555 1_555
Mo4A O1A 1_555 1_555
Mo4A O4A 1_555 1_555

#END
