
#######################################################################
#
#                 Cambridge Crystallographic Data Centre
#                                CCDC 
#
#######################################################################
#
# If this CIF has been generated from an entry in the Cambridge 
# Structural Database, then it will include bibliographic, chemical, 
# crystal, experimental, refinement or atomic coordinate data resulting 
# from the CCDC's data processing and validation procedures.
#
#######################################################################

data_WOBDUO
_symmetry_cell_setting           triclinic
_symmetry_space_group_name_H-M   'P 1'
_symmetry_Int_Tables_number      1
_space_group_name_Hall           'P 1'
loop_
_symmetry_equiv_pos_site_id
_symmetry_equiv_pos_as_xyz
1 x,y,z
_cell_length_a                   10.9233(12)
_cell_length_b                   12.7089(14)
_cell_length_c                   14.7247(17)
_cell_angle_alpha                91.703(2)
_cell_angle_beta                 106.523(2)
_cell_angle_gamma                111.798(2)
_cell_volume                     1798.45
loop_
_atom_site_label
_atom_site_type_symbol
_atom_site_fract_x
_atom_site_fract_y
_atom_site_fract_z
Mo1 Mo 0.91780(11) 0.10133(9) 0.04525(8)
Cu1 Cu 0.81046(16) 0.54450(13) 0.64509(11)
P1 P 0.9231(4) 0.2488(3) 0.2574(3)
O1 O 0.9425(9) 0.0225(9) -0.0363(7)
O2 O 0.9099(10) 0.5079(10) 0.7671(7)
N1 N 0.5712(13) -0.2653(9) 0.0941(8)
C1 C 1.2782(14) 0.1576(12) -0.1270(10)
Mo2 Mo 1.19409(11) 0.49224(9) 0.22306(8)
Cu2 Cu 1.05848(15) -0.05473(13) -0.11982(11)
O3 O 0.9181(9) 0.2296(8) -0.0101(7)
O4 O 0.7057(11) 0.6193(10) 0.7222(9)
N2 N 0.5095(12) -0.2490(10) -0.0991(9)
C2 C 1.3838(13) 0.2758(11) -0.0765(11)
Mo3 Mo 0.60807(10) 0.09597(9) 0.06732(8)
Cu3 Cu 0.4160(2) 0.24467(19) 0.74738(15)
O5 O 1.1075(9) 0.1898(7) 0.1287(7)
O6 O 0.9654(11) -0.0212(10) -0.2439(7)
N3 N 1.5027(14) 0.4236(13) 0.0580(11)
C3 C 0.5756(14) 0.3294(12) 0.6358(11)
Mo4 Mo 0.66460(10) -0.00162(9) 0.29748(8)
Cu4 Cu 0.43581(19) -0.2548(2) -0.23868(13)
O7 O 0.6301(9) 0.0024(8) 0.1631(7)
O8 O 1.1708(13) -0.1304(12) -0.1910(11)
N4 N 1.4657(12) 0.3318(10) -0.1273(8)
C4 C 1.2798(14) -0.0589(11) 0.1719(10)
H1 H 1.3531 -0.0096 0.2236
Mo5 Mo 0.86877(10) 0.50584(9) 0.24956(8)
Cu5 Cu 0.6289(2) -0.27213(17) 0.22835(13)
O9 O 0.5662(9) 0.1837(8) 0.1381(6)
O10 O 0.243(3) 0.334(2) 0.6952(19)
N5 N 1.1327(11) -0.0877(10) 0.0115(8)
C5 C 1.2417(14) -0.0155(12) 0.0839(10)
H2 H 1.2908 0.0597 0.0772
Mo6 Mo 1.24278(10) 0.24236(9) 0.25207(8)
Cu6 Cu 1.2880(2) 0.78071(18) 0.29670(14)
O11 O 0.7076(9) 0.3321(8) 0.4076(6)
O12 O 0.4276(18) -0.0710(13) -0.2265(14)
N6 N 0.3680(11) -0.2630(10) -0.3802(8)
C6 C 0.6204(14) 0.5279(12) 0.4440(11)
H3 H 0.5590 0.4570 0.4508
Mo7 Mo 0.97686(12) 0.13155(10) 0.47580(8)
Cu7 Cu 0.62079(16) 0.25779(13) 0.27015(11)
O13 O 0.8626(8) 0.3259(7) 0.2948(6)
O14 O 0.4357(14) -0.4461(11) -0.2577(10)
N7 N 0.3202(12) -0.2421(10) -0.5725(8)
C7 C 0.2850(14) 0.0554(13) 0.5812(11)
H4 H 0.2187 0.0142 0.6090
Mo8 Mo 0.96778(11) -0.01756(9) 0.27622(8)
O15 O 1.1488(9) 0.1117(7) 0.2947(6)
O16 O 0.5982(19) 0.1487(15) 0.7965(13)
N8 N 1.2133(12) -0.1678(10) 0.1823(8)
C8 C 0.6427(14) -0.2133(12) -0.0427(10)
H5 H 0.7154 -0.1810 -0.0675
Mo9 Mo 1.23477(11) 0.40157(10) 0.44122(8)
O17 O 0.6656(9) 0.4108(8) 0.2366(7)
N9 N 0.3773(12) 0.1577(9) 0.6214(9)
C9 C 0.6691(15) -0.2259(12) 0.0540(10)
H6 H 0.7609 -0.2053 0.0919
Mo10 Mo 0.85308(11) 0.34242(9) 0.03319(8)
O18 O 0.6744(9) 0.2207(7) -0.0076(7)
N10 N 0.3782(17) 0.0614(13) 0.4540(11)
C10 C 0.4509(15) -0.2081(14) -0.5115(12)
H7 H 0.5267 -0.1782 -0.5338
O19 O 0.8943(9) 0.1393(7) 0.3057(6)
N11 N 0.6699(12) 0.6753(10) 0.3495(8)
C11 C 0.4754(14) 0.2166(12) 0.5810(10)
Mo11 Mo 0.89303(12) 0.38873(9) 0.45448(8)
O20 O 0.8428(11) 0.4103(8) -0.0641(7)
N12 N 0.7358(10) 0.5867(9) 0.5155(7)
C12 C 0.2375(14) -0.3033(12) -0.4420(11)
H8 H 0.1620 -0.3387 -0.4205
O21 O 1.3216(9) 0.3292(8) 0.3759(7)
C13 C 0.7869(16) 0.7366(11) 0.4241(11)
H9 H 0.8456 0.8097 0.4195
O22 O 0.4544(9) 0.0131(9) -0.0135(7)
C14 C 1.5653(14) 0.4354(11) -0.0872(11)
H10 H 1.6215 0.4782 -0.1211
O23 O 1.0182(11) 0.1097(10) 0.5916(7)
C15 C 1.0590(13) -0.1945(12) 0.0261(10)
O24 O 1.0189(9) 0.0261(7) 0.4139(6)
C16 C 0.9304(14) -0.2602(11) -0.0608(11)
O25 O 1.0476(9) 0.4230(8) 0.1075(6)
C17 C 0.8180(14) 0.6893(11) 0.5069(9)
O26 O 1.3704(10) 0.4691(9) 0.5416(7)
C18 C 0.4712(14) -0.2179(13) -0.4163(9)
O27 O 0.5286(10) -0.1235(8) 0.2986(7)
C19 C 0.4752(17) 0.1665(15) 0.4967(11)
H11 H 0.5425 0.2054 0.4689
O28 O 0.8123(9) 0.4207(7) 0.1176(6)
C20 C 1.4010(16) 0.3201(13) 0.0140(10)
H12 H 1.3415 0.2782 0.0462
O29 O 0.9607(9) 0.6945(8) 0.6612(7)
C21 C 0.2886(16) 0.0099(13) 0.4956(12)
H13 H 0.2219 -0.0627 0.4665
O30 O 1.0479(9) 0.5385(7) 0.2534(6)
C22 C 0.2623(15) -0.3364(15) -0.1304(11)
O31 O 0.9254(9) 0.0061(7) 0.1511(7)
C23 C 1.5834(15) 0.4777(13) 0.0042(11)
H14 H 1.6559 0.5483 0.0317
O32 O 1.2890(10) 0.6185(8) 0.1974(7)
C24 C 0.6158(17) -0.1799(15) -0.3425(12)
O33 O 1.0945(9) 0.4373(8) 0.4551(7)
C25 C 0.4397(15) -0.2993(14) 0.0364(10)
H15 H 0.3677 -0.3287 0.0623
O34 O 0.7840(9) 0.0273(8) 0.4254(6)
C26 C 1.1015(14) -0.2333(12) 0.1076(10)
H16 H 1.0517 -0.3088 0.1131
O35 O 1.1445(9) 0.2535(8) 0.4758(7)
C27 C 0.4079(15) -0.2922(13) -0.0593(11)
O36 O 1.3821(9) 0.2228(8) 0.2382(7)
C28 C 0.9514(15) 0.7487(12) 0.5901(11)
O37 O 0.8543(9) 0.2128(7) 0.1489(6)
C29 C 0.5917(13) 0.5710(12) 0.3607(10)
H17 H 0.5141 0.5257 0.3096
O38 O 0.9311(10) 0.4628(9) 0.5633(8)
C30 C 0.2165(14) -0.2916(11) -0.5372(10)
H18 H 0.1257 -0.3196 -0.5789
O39 O 0.8442(10) 0.6242(8) 0.2202(8)
O40 O 0.7271(9) 0.0375(8) 0.0146(7)
O41 O 0.7845(9) -0.0871(7) 0.2755(6)
O42 O 1.2855(8) 0.4022(7) 0.2090(6)
O43 O 0.9094(9) 0.2506(7) 0.4843(7)
O44 O 1.0804(8) 0.3143(7) 0.2805(6)
O45 O 1.0145(11) -0.1286(9) 0.2745(8)
O46 O 1.2736(9) 0.5158(8) 0.3591(6)
O47 O 0.9005(9) 0.5211(7) 0.3800(6)
O48 O 0.6073(9) 0.1086(7) 0.3087(6)
O49 O 0.5614(11) 0.3605(9) 0.7106(7)
O50 O 0.6656(10) 0.3890(9) 0.6005(7)
O51 O 1.1999(9) 0.1026(8) -0.0840(7)
O52 O 1.2768(11) 0.1286(9) -0.2086(8)
O53 O 0.1644(12) -0.3726(15) -0.1007(10)
O54 O 0.2582(10) -0.3257(11) -0.2161(7)
O55 O 0.6177(10) -0.1855(10) -0.2580(7)
O56 O 0.7179(11) -0.1413(17) -0.3697(9)
O57 O 0.9153(10) -0.2082(8) -0.1322(7)
O58 O 0.8483(12) -0.3543(10) -0.0512(9)
O59 O 1.0323(13) 0.8419(10) 0.5854(9)
Cu3_2 Cu 1.4160(2) 0.24467(19) -0.25262(15)
N4_2 N 0.4657(12) 0.3318(10) 0.8727(8)
Cu5_2 Cu 0.6289(2) 0.72787(17) 0.22835(13)
Cu6_2 Cu 0.2880(2) -0.21929(18) -0.70330(14)
Cu6_3 Cu 0.2880(2) -0.21929(18) 0.29670(14)
Cu6_4 Cu 1.2880(2) -0.21929(18) 0.29670(14)
Cu7_2 Cu 1.62079(16) 0.25779(13) 0.27015(11)
N7_2 N 1.3202(12) 0.7579(10) 0.4275(8)
N8_2 N 1.2133(12) 0.8322(10) 0.1823(8)
N11_2 N 0.6699(12) -0.3247(10) 0.3495(8)
O27_2 O 1.5286(10) 0.8765(8) 0.2986(7)
O36_2 O 0.3821(9) 0.2228(8) 0.2382(7)
O52_2 O 0.2768(11) 0.1286(9) 0.7914(8)
loop_
_geom_bond_atom_site_label_1
_geom_bond_atom_site_label_2
_geom_bond_site_symmetry_1
_geom_bond_site_symmetry_2
Mo1 O1 1_555 1_555
Cu1 O2 1_555 1_555
P1 O13 1_555 1_555
O1 Cu2 1_555 1_555
N1 Cu5 1_555 1_555
C1 C2 1_555 1_555
Mo2 O25 1_555 1_555
Cu2 O6 1_555 1_555
O3 Mo1 1_555 1_555
O4 Cu1 1_555 1_555
N2 Cu4 1_555 1_555
C2 N4 1_555 1_555
Mo3 O7 1_555 1_555
Cu3 O10 1_555 1_555
O5 Mo1 1_555 1_555
N3 C20 1_555 1_555
C3 C11 1_555 1_555
Mo4 O7 1_555 1_555
Cu4 O12 1_555 1_555
O8 Cu2 1_555 1_555
N4 C14 1_555 1_555
C4 H1 1_555 1_555
Mo5 O13 1_555 1_555
Cu5 O41 1_555 1_555
O9 Mo3 1_555 1_555
N5 Cu2 1_555 1_555
C5 C4 1_555 1_555
H2 C5 1_555 1_555
Mo6 O5 1_555 1_555
Cu6 O32 1_555 1_555
O11 Cu7 1_555 1_555
N6 Cu4 1_555 1_555
C6 H3 1_555 1_555
Mo7 O19 1_555 1_555
Cu7 O9 1_555 1_555
O13 Cu7 1_555 1_555
O14 Cu4 1_555 1_555
N7 C10 1_555 1_555
C7 H4 1_555 1_555
Mo8 O15 1_555 1_555
O15 Mo6 1_555 1_555
O16 Cu3 1_555 1_555
N8 C4 1_555 1_555
C8 N2 1_555 1_555
H5 C8 1_555 1_555
Mo9 O21 1_555 1_555
O17 Mo5 1_555 1_555
N9 Cu3 1_555 1_555
C9 N1 1_555 1_555
H6 C9 1_555 1_555
Mo10 O3 1_555 1_555
O18 Mo3 1_555 1_555
N10 C19 1_555 1_555
C10 H7 1_555 1_555
O19 P1 1_555 1_555
N11 C13 1_555 1_555
C11 N9 1_555 1_555
Mo11 O11 1_555 1_555
O20 Mo10 1_555 1_555
N12 Cu1 1_555 1_555
C12 N6 1_555 1_555
H8 C12 1_555 1_555
O21 Mo6 1_555 1_555
C13 H9 1_555 1_555
O22 Mo3 1_555 1_555
C14 H10 1_555 1_555
O23 Mo7 1_555 1_555
C15 N5 1_555 1_555
O24 Mo7 1_555 1_555
C16 C15 1_555 1_555
O25 Mo10 1_555 1_555
C17 N12 1_555 1_555
O26 Mo9 1_555 1_555
C18 N6 1_555 1_555
O27 Mo4 1_555 1_555
C19 C11 1_555 1_555
H11 C19 1_555 1_555
O28 Mo5 1_555 1_555
C20 C2 1_555 1_555
H12 C20 1_555 1_555
O29 Cu1 1_555 1_555
C21 C7 1_555 1_555
H13 C21 1_555 1_555
O30 Mo2 1_555 1_555
C22 C27 1_555 1_555
O31 Mo1 1_555 1_555
C23 N3 1_555 1_555
H14 C23 1_555 1_555
O32 Mo2 1_555 1_555
C24 C18 1_555 1_555
O33 Mo9 1_555 1_555
C25 N1 1_555 1_555
H15 C25 1_555 1_555
O34 Mo4 1_555 1_555
C26 N8 1_555 1_555
H16 C26 1_555 1_555
O35 Mo7 1_555 1_555
C27 N2 1_555 1_555
O36 Mo6 1_555 1_555
C28 C17 1_555 1_555
O37 Mo1 1_555 1_555
C29 C6 1_555 1_555
H17 C29 1_555 1_555
O38 Cu1 1_555 1_555
C30 N7 1_555 1_555
H18 C30 1_555 1_555
O39 Mo5 1_555 1_555
O40 Mo1 1_555 1_555
O41 Mo4 1_555 1_555
O42 Mo2 1_555 1_555
O43 Mo7 1_555 1_555
O44 P1 1_555 1_555
O45 Mo8 1_555 1_555
O46 Mo2 1_555 1_555
O47 Mo5 1_555 1_555
O48 Mo4 1_555 1_555
O49 Cu3 1_555 1_555
O50 Cu1 1_555 1_555
O51 C1 1_555 1_555
O52 C1 1_555 1_555
O53 C22 1_555 1_555
O54 Cu4 1_555 1_555
O55 Cu4 1_555 1_555
O56 C24 1_555 1_555
O57 Cu2 1_555 1_555
O58 C16 1_555 1_555
O59 C28 1_555 1_555
Cu3_2 N4 1_555 1_555
N4_2 Cu3 1_555 1_555
Cu5_2 N11 1_555 1_555
Cu6_2 N7 1_555 1_555
Cu6_3 O27 1_555 1_555
Cu6_4 N8 1_555 1_555
Cu7_2 O36 1_555 1_555
N7_2 Cu6 1_555 1_555
N8_2 Cu6 1_555 1_555
N11_2 Cu5 1_555 1_555
O27_2 Cu6 1_555 1_555
O36_2 Cu7 1_555 1_555
O52_2 Cu3 1_555 1_555
P1 O37 1_555 1_555
Mo2 O44 1_555 1_555
Cu2 O51 1_555 1_555
Mo3 O37 1_555 1_555
Mo3 O40 1_555 1_555
C3 O49 1_555 1_555
C3 O50 1_555 1_555
Mo4 O19 1_555 1_555
Mo5 O30 1_555 1_555
N5 C5 1_555 1_555
Mo6 O42 1_555 1_555
Mo6 O44 1_555 1_555
C6 N12 1_555 1_555
Mo7 O34 1_555 1_555
Cu7 O17 1_555 1_555
Cu7 O48 1_555 1_555
O13 Mo11 1_555 1_555
C7 N9 1_555 1_555
Mo8 O19 1_555 1_555
Mo8 O24 1_555 1_555
Mo8 O31 1_555 1_555
Mo8 O41 1_555 1_555
C8 C9 1_555 1_555
Mo9 O35 1_555 1_555
Mo9 O44 1_555 1_555
Mo9 O46 1_555 1_555
Mo10 O18 1_555 1_555
Mo10 O28 1_555 1_555
Mo10 O37 1_555 1_555
N10 C21 1_555 1_555
C10 C18 1_555 1_555
N11 C29 1_555 1_555
Mo11 O33 1_555 1_555
Mo11 O38 1_555 1_555
Mo11 O43 1_555 1_555
Mo11 O47 1_555 1_555
C12 C30 1_555 1_555
C13 C17 1_555 1_555
C14 C23 1_555 1_555
C15 C26 1_555 1_555
C16 O57 1_555 1_555
O29 C28 1_555 1_555
C22 O54 1_555 1_555
C24 O55 1_555 1_555
C25 C27 1_555 1_555
O52 Cu3_2 1_555 1_555

#END
