
#######################################################################
#
#                 Cambridge Crystallographic Data Centre
#                                CCDC 
#
#######################################################################
#
# If this CIF has been generated from an entry in the Cambridge 
# Structural Database, then it will include bibliographic, chemical, 
# crystal, experimental, refinement or atomic coordinate data resulting 
# from the CCDC's data processing and validation procedures.
#
#######################################################################

data_WOBFAW
_symmetry_cell_setting           triclinic
_symmetry_space_group_name_H-M   'P -1'
_symmetry_Int_Tables_number      2
_space_group_name_Hall           '-P 1'
loop_
_symmetry_equiv_pos_site_id
_symmetry_equiv_pos_as_xyz
1 x,y,z
2 -x,-y,-z
_cell_length_a                   7.7433(4)
_cell_length_b                   9.0200(7)
_cell_length_c                   12.2210(8)
_cell_angle_alpha                87.615(7)
_cell_angle_beta                 78.143(6)
_cell_angle_gamma                70.006(6)
_cell_volume                     784.629
loop_
_atom_site_label
_atom_site_type_symbol
_atom_site_fract_x
_atom_site_fract_y
_atom_site_fract_z
Cr1 Cr 0.0518(2) 0.74123(15) 0.38963(11)
O1 O 0.3399(10) 0.5522(9) 0.0982(6)
O2 O 0.2519(10) 0.6002(7) 0.2811(5)
O3 O 0.0509(10) 0.8285(8) 0.0738(5)
O4 O -0.0281(9) 0.8492(6) 0.2604(5)
O5 O 0.1527(9) 1.1031(7) 0.5013(5)
O6 O 0.1960(10) 0.8812(7) 0.4068(5)
O7 O 0.1013(10) 0.3978(7) 0.6068(5)
O8 O 0.1408(10) 0.6085(7) 0.5162(5)
C1 C 0.2387(13) 0.6312(10) 0.1789(7)
C2 C 0.0736(13) 0.7819(10) 0.1662(7)
C3 C 0.1017(13) 0.9949(10) 0.4739(7)
C4 C 0.0718(14) 0.5019(10) 0.5348(7)
O5A O -0.1527(9) 0.8969(7) 0.4987(5)
O6A O -0.1960(10) 1.1188(7) 0.5932(5)
C3A C -0.1017(13) 1.0051(10) 0.5261(7)
O7A O -0.1013(10) 0.6022(7) 0.3932(5)
O8A O -0.1408(10) 0.3915(7) 0.4838(5)
C4A C -0.0718(14) 0.4981(10) 0.4652(7)
Cr1A Cr -0.0518(2) 0.25877(15) 0.61037(11)
O1A O -0.3399(10) 0.4478(9) 0.9018(6)
O2A O -0.2519(10) 0.3998(7) 0.7189(5)
O3A O -0.0509(10) 0.1715(8) 0.9262(5)
O4A O 0.0281(9) 0.1508(6) 0.7396(5)
C1A C -0.2387(13) 0.3688(10) 0.8211(7)
C2A C -0.0736(13) 0.2181(10) 0.8338(7)
Cr1A_2 Cr -0.0518(2) 1.25877(15) 0.61037(11)
O5_2 O 0.1527(9) 0.1031(7) 0.5013(5)
O6A_2 O -0.1960(10) 0.1188(7) 0.5932(5)
N1 N 0.6812(10) 0.3105(9) 0.1346(6)
H1 H 0.7485 0.2868 0.0644
H2 H 0.5694 0.3829 0.1300
C5 C 0.777(2) 0.5392(17) 0.1418(13)
H3 H 0.6500 0.6071 0.1456
H4 H 0.8412 0.5188 0.0649
H5 H 0.8399 0.5893 0.1803
C6 C 0.7792(15) 0.3858(15) 0.1959(9)
H6 H 0.7119 0.4073 0.2739
C7 C 0.9782(19) 0.274(2) 0.1926(13)
H7 H 0.9745 0.1778 0.2278
H8 H 1.0417 0.3225 0.2318
H9 H 1.0441 0.2515 0.1163
C8 C 0.529(3) 0.2013(19) 0.2990(14)
H10 H 0.5945 0.2376 0.3449
H11 H 0.5085 0.1076 0.3296
H12 H 0.4109 0.2818 0.2970
C9 C 0.6467(16) 0.1645(12) 0.1811(10)
H13 H 0.7679 0.0836 0.1846
C10 C 0.558(2) 0.1069(18) 0.1039(15)
H14 H 0.6397 0.0843 0.0315
H15 H 0.4408 0.1863 0.0980
H16 H 0.5364 0.0125 0.1321
loop_
_geom_bond_atom_site_label_1
_geom_bond_atom_site_label_2
_geom_bond_site_symmetry_1
_geom_bond_site_symmetry_2
Cr1 O2 1_555 1_555
O1 C1 1_555 1_555
O2 C1 1_555 1_555
O3 C2 1_555 1_555
O4 Cr1 1_555 1_555
O5 C3 1_555 1_555
O6 Cr1 1_555 1_555
O7 C4 1_555 1_555
O8 Cr1 1_555 1_555
C1 C2 1_555 1_555
C2 O4 1_555 1_555
C3 O6 1_555 1_555
C4 O8 1_555 1_555
N1 H1 1_555 1_555
H2 N1 1_555 1_555
C5 H3 1_555 1_555
H4 C5 1_555 1_555
H5 C5 1_555 1_555
C6 N1 1_555 1_555
H6 C6 1_555 1_555
C7 C6 1_555 1_555
H7 C7 1_555 1_555
H8 C7 1_555 1_555
H9 C7 1_555 1_555
C8 H10 1_555 1_555
H11 C8 1_555 1_555
H12 C8 1_555 1_555
C9 N1 1_555 1_555
H13 C9 1_555 1_555
C10 C9 1_555 1_555
H14 C10 1_555 1_555
H15 C10 1_555 1_555
H16 C10 1_555 1_555
O5A Cr1 1_555 1_555
O6A C3A 1_555 1_555
C3A C3 1_555 1_555
O7A Cr1 1_555 1_555
O8A C4A 1_555 1_555
C4A C4 1_555 1_555
Cr1A O7 1_555 1_555
O1A C1A 1_555 1_555
O2A Cr1A 1_555 1_555
O3A C2A 1_555 1_555
O4A Cr1A 1_555 1_555
C1A O2A 1_555 1_555
C2A O4A 1_555 1_555
Cr1A_2 O5 1_555 1_555
O5_2 Cr1A 1_555 1_555
O6A_2 Cr1A 1_555 1_555
C5 C6 1_555 1_555
C8 C9 1_555 1_555
O5A C3A 1_555 1_555
O6A Cr1A_2 1_555 1_555
O7A C4A 1_555 1_555
O8A Cr1A 1_555 1_555
C1A C2A 1_555 1_555

#END
