
#######################################################################
#
#                 Cambridge Crystallographic Data Centre
#                                CCDC 
#
#######################################################################
#
# If this CIF has been generated from an entry in the Cambridge 
# Structural Database, then it will include bibliographic, chemical, 
# crystal, experimental, refinement or atomic coordinate data resulting 
# from the CCDC's data processing and validation procedures.
#
#######################################################################

data_WOBFIE
_symmetry_cell_setting           orthorhombic
_symmetry_space_group_name_H-M   'P b c a'
_symmetry_Int_Tables_number      61
_space_group_name_Hall           '-P 2ac 2ab'
loop_
_symmetry_equiv_pos_site_id
_symmetry_equiv_pos_as_xyz
1 x,y,z
2 1/2-x,-y,1/2+z
3 -x,1/2+y,1/2-z
4 1/2+x,1/2-y,-z
5 -x,-y,-z
6 1/2+x,y,1/2-z
7 x,1/2-y,1/2+z
8 1/2-x,1/2+y,z
_cell_length_a                   6.1672(3)
_cell_length_b                   9.4030(5)
_cell_length_c                   15.1739(8)
_cell_angle_alpha                90
_cell_angle_beta                 90
_cell_angle_gamma                90
_cell_volume                     879.937
loop_
_atom_site_label
_atom_site_type_symbol
_atom_site_fract_x
_atom_site_fract_y
_atom_site_fract_z
Zn1 Zn 0.49015(6) 0.51133(5) 0.33770(3)
O1 O 0.4667(4) 0.3257(3) 0.26308(18)
O2 O 0.2693(4) 0.3890(3) 0.41327(15)
O3 O 0.3270(4) 0.1061(2) 0.26736(16)
O4 O 0.0888(4) 0.1849(3) 0.41022(17)
C1 C 0.3482(5) 0.2308(4) 0.2956(2)
C2 C 0.2238(5) 0.2714(3) 0.3805(2)
O5 O 0.7601(5) 0.4640(3) 0.4110(2)
H1 H 0.9228 0.4615 0.3879
H2 H 0.7861 0.5139 0.4698
Zn1B Zn 0.50985(6) 0.01133(5) 0.16230(3)
Zn1G Zn 0.00985(6) 0.01133(5) 0.33770(3)
O3B O 0.6730(4) 0.6061(2) 0.23264(16)
O3G O 0.1730(4) 0.6061(2) 0.26736(16)
O4G O 0.4112(4) 0.6849(3) 0.41022(17)
loop_
_geom_bond_atom_site_label_1
_geom_bond_atom_site_label_2
_geom_bond_site_symmetry_1
_geom_bond_site_symmetry_2
Zn1 O1 1_555 1_555
O1 C1 1_555 1_555
O2 Zn1 1_555 1_555
O3 C1 1_555 1_555
O4 C2 1_555 1_555
C1 C2 1_555 1_555
C2 O2 1_555 1_555
O5 Zn1 1_555 1_555
H1 O5 1_555 1_555
H2 O5 1_555 1_555
Zn1B O3 1_555 1_555
Zn1G O3 1_555 1_555
O3B Zn1 1_555 1_555
O3G Zn1 1_555 1_555
O4G Zn1 1_555 1_555
O4 Zn1G 1_555 1_555

#END
