
#######################################################################
#
#                 Cambridge Crystallographic Data Centre
#                                CCDC 
#
#######################################################################
#
# If this CIF has been generated from an entry in the Cambridge 
# Structural Database, then it will include bibliographic, chemical, 
# crystal, experimental, refinement or atomic coordinate data resulting 
# from the CCDC's data processing and validation procedures.
#
#######################################################################

data_WOBFOK
_symmetry_cell_setting           monoclinic
_symmetry_space_group_name_H-M   'C 2/c'
_symmetry_Int_Tables_number      15
_space_group_name_Hall           '-C 2yn'
loop_
_symmetry_equiv_pos_site_id
_symmetry_equiv_pos_as_xyz
1 x,y,z
2 -x,y,1/2-z
3 1/2+x,1/2+y,z
4 1/2-x,1/2+y,1/2-z
5 -x,-y,-z
6 x,-y,1/2+z
7 1/2-x,1/2-y,-z
8 1/2+x,1/2-y,1/2+z
_cell_length_a                   13.2063(10)
_cell_length_b                   11.2784(10)
_cell_length_c                   15.3334(13)
_cell_angle_alpha                90
_cell_angle_beta                 103.854(8)
_cell_angle_gamma                90
_cell_volume                     2217.41
loop_
_atom_site_label
_atom_site_type_symbol
_atom_site_fract_x
_atom_site_fract_y
_atom_site_fract_z
Cd1 Cd 0.19519(2) 0.82076(3) 0.179102(18)
O1 O 0.3099(2) 0.7002(3) 0.2919(2)
O2 O 0.1376(2) 0.6242(3) 0.17099(18)
O3 O 0.3214(2) 0.5251(3) 0.36037(19)
O4 O 0.1613(2) 0.4446(3) 0.23416(18)
O5 O 0.0096(2) 0.8440(3) 0.13894(17)
O6 O -0.1314(2) 0.8567(3) 0.19356(18)
O7 O 0.1296(2) 0.7959(3) 0.01402(18)
O8 O 0.1710(2) 0.7133(3) -0.10429(18)
C1 C 0.2813(3) 0.5960(4) 0.2991(3)
C2 C 0.1846(3) 0.5510(4) 0.2281(3)
C3 C -0.0350(3) 0.8491(4) 0.2014(2)
C4 C 0.1916(3) 0.7524(4) -0.0261(3)
O5A O -0.0096(2) 0.8440(3) 0.36106(17)
O6A O 0.1314(2) 0.8567(3) 0.30644(18)
C3A C 0.0350(3) 0.8491(4) 0.2986(2)
O7F O 0.3704(2) 0.7041(3) -0.01402(18)
O8F O 0.3290(2) 0.7867(3) 0.10429(18)
C4F C 0.3084(3) 0.7476(4) 0.0261(3)
Cd1A Cd -0.19519(2) 0.82076(3) 0.320898(18)
O1A O -0.3099(2) 0.7002(3) 0.2081(2)
O2A O -0.1376(2) 0.6242(3) 0.32901(18)
O3A O -0.3214(2) 0.5251(3) 0.13963(19)
O4A O -0.1613(2) 0.4446(3) 0.26584(18)
C1A C -0.2813(3) 0.5960(4) 0.2009(3)
C2A C -0.1846(3) 0.5510(4) 0.2719(3)
Cd1B Cd -0.30481(2) 0.32076(3) 0.179102(18)
Cd1C Cd 0.30481(2) 0.32076(3) 0.320898(18)
Cd1F Cd 0.30481(2) 0.67924(3) -0.179102(18)
O3B O -0.1786(2) 1.0251(3) 0.36037(19)
O3C O 0.1786(2) 1.0251(3) 0.13963(19)
O4B O -0.3387(2) 0.9446(3) 0.23416(18)
O4C O 0.3387(2) 0.9446(3) 0.26584(18)
O7A O -0.1296(2) 0.7959(3) 0.48598(18)
O8G O -0.3290(2) 0.7867(3) 0.39571(18)
N1 N 0.2715(3) 0.9228(5) 0.4772(3)
N2 N 0.4131(3) 0.8166(4) 0.4641(3)
N3 N 0.4214(3) 0.9370(5) 0.5853(3)
C5 C 0.3693(3) 0.8909(5) 0.5082(3)
H1 H 0.238(4) 0.953(5) 0.515(3)
H2 H 0.241(3) 0.889(4) 0.435(3)
H3 H 0.378(4) 0.775(5) 0.418(3)
H4 H 0.471(4) 0.799(5) 0.483(3)
H5 H 0.394(3) 0.984(4) 0.608(3)
H6 H 0.486(4) 0.918(5) 0.603(3)
O9 O 0.0000 1.0000 0.0000
O10 O 0.5000 0.7951(5) 0.2500
loop_
_geom_bond_atom_site_label_1
_geom_bond_atom_site_label_2
_geom_bond_site_symmetry_1
_geom_bond_site_symmetry_2
Cd1 O1 1_555 1_555
O1 C1 1_555 1_555
O2 Cd1 1_555 1_555
O3 C1 1_555 1_555
O4 C2 1_555 1_555
O5 Cd1 1_555 1_555
O6 C3 1_555 1_555
O7 Cd1 1_555 1_555
O8 C4 1_555 1_555
C1 C2 1_555 1_555
C2 O2 1_555 1_555
C3 O5 1_555 1_555
C4 O7 1_555 1_555
N1 C5 1_555 1_555
N2 C5 1_555 1_555
N3 C5 1_555 1_555
H1 N1 1_555 1_555
H2 N1 1_555 1_555
H3 N2 1_555 1_555
H4 N2 1_555 1_555
H5 N3 1_555 1_555
H6 N3 1_555 1_555
O5A C3A 1_555 1_555
O6A Cd1 1_555 1_555
C3A C3 1_555 1_555
O7F C4F 1_555 1_555
O8F Cd1 1_555 1_555
C4F C4 1_555 1_555
Cd1A O6 1_555 1_555
O1A Cd1A 1_555 1_555
O2A Cd1A 1_555 1_555
O3A C1A 1_555 1_555
O4A C2A 1_555 1_555
C1A O1A 1_555 1_555
C2A O2A 1_555 1_555
Cd1B O3A 1_555 1_555
Cd1C O3 1_555 1_555
Cd1F O8 1_555 1_555
O3B Cd1A 1_555 1_555
O3C Cd1 1_555 1_555
O4B Cd1A 1_555 1_555
O4C Cd1 1_555 1_555
O7A Cd1A 1_555 1_555
O8G Cd1A 1_555 1_555
O4 Cd1C 1_555 1_555
O5A Cd1A 1_555 1_555
O6A C3A 1_555 1_555
O7F Cd1F 1_555 1_555
O8F C4F 1_555 1_555
O4A Cd1B 1_555 1_555
C1A C2A 1_555 1_555

#END
