
#######################################################################
#
#                 Cambridge Crystallographic Data Centre
#                                CCDC 
#
#######################################################################
#
# If this CIF has been generated from an entry in the Cambridge 
# Structural Database, then it will include bibliographic, chemical, 
# crystal, experimental, refinement or atomic coordinate data resulting 
# from the CCDC's data processing and validation procedures.
#
#######################################################################

data_WOBGOJ
_symmetry_cell_setting           triclinic
_symmetry_space_group_name_H-M   'P -1'
_symmetry_Int_Tables_number      2
_space_group_name_Hall           '-P 1'
loop_
_symmetry_equiv_pos_site_id
_symmetry_equiv_pos_as_xyz
1 x,y,z
2 -x,-y,-z
_cell_length_a                   7.577(2)
_cell_length_b                   8.030(2)
_cell_length_c                   13.464(3)
_cell_angle_alpha                76.60(3)
_cell_angle_beta                 89.17(3)
_cell_angle_gamma                82.60(3)
_cell_volume                     790.155
loop_
_atom_site_label
_atom_site_type_symbol
_atom_site_fract_x
_atom_site_fract_y
_atom_site_fract_z
Cd1 Cd 1.0000 -1.0000 1.0000
Cd2 Cd 0.23094(7) -0.43802(7) 0.44138(3)
Br1 Br 1.19458(11) -1.29096(11) 0.97721(6)
Br2 Br -0.10841(10) -0.27189(10) 0.44681(6)
Br3 Br 0.58513(10) -0.64476(10) 0.41609(5)
N1 N 0.2884(7) -0.1805(7) 0.3157(3)
N2 N 0.1977(7) -0.0043(7) 0.1460(3)
N3 N 0.2941(7) 0.1291(7) 0.2770(4)
N4 N 0.5083(7) -0.0491(7) 0.2004(4)
C1 C 0.2605(9) -0.0233(9) 0.3558(4)
H1 H 0.3392 -0.0369 0.4132
H2 H 0.1404 -0.0070 0.3788
C2 C 0.4719(8) -0.2008(9) 0.2789(5)
H3 H 0.4931 -0.3021 0.2519
H4 H 0.5523 -0.2155 0.3356
C3 C 0.1679(8) -0.1577(8) 0.2264(4)
H5 H 0.0469 -0.1434 0.2483
H6 H 0.1852 -0.2585 0.1988
C4 C 0.4778(9) 0.1030(9) 0.2435(5)
H7 H 0.5584 0.0900 0.2999
H8 H 0.5006 0.2027 0.1923
C5 C 0.3839(8) -0.0262(9) 0.1142(4)
H9 H 0.4055 0.0742 0.0632
H10 H 0.4044 -0.1242 0.0841
C6 C 0.1737(9) 0.1481(8) 0.1898(4)
H11 H 0.0530 0.1646 0.2117
H12 H 0.1937 0.2483 0.1382
O1 O 0.1851(7) -0.5399(6) 0.3011(3)
H13 H 0.2082 -0.6661 0.2970
H14 H 0.0601 -0.5648 0.2914
O2 O 0.8114(6) -1.1593(7) 1.1054(3)
H15 H 0.8103 -1.2597 1.1249
H16 H 0.8113 -1.1225 1.1597
Cd2A Cd -0.23094(7) -0.56198(7) 0.55862(3)
Br2A Br 0.10841(10) -0.72811(10) 0.55319(6)
Cd2A_2 Cd 0.76906(7) -0.56198(7) 0.55862(3)
Br2A_2 Br 1.10841(10) -0.72811(10) 0.55319(6)
Br2_2 Br 0.89159(10) -0.27189(10) 0.44681(6)
Br3A Br 0.41487(10) -0.35524(10) 0.58391(5)
N1A N 0.7116(7) -0.8195(7) 0.6843(3)
C1A C 0.7395(9) -0.9767(9) 0.6442(4)
N3A N 0.7059(7) -1.1291(7) 0.7230(4)
C4A C 0.5222(9) -1.1030(9) 0.7565(5)
N4A N 0.4917(7) -0.9509(7) 0.7996(4)
C2A C 0.5281(8) -0.7992(9) 0.7211(5)
C3A C 0.8321(8) -0.8423(8) 0.7736(4)
N2A N 0.8023(7) -0.9957(7) 0.8540(3)
Cd1_2 Cd 0.0000 0.0000 0.0000
Br1A Br 0.80542(11) -0.70904(11) 1.02279(6)
N2_2 N 1.1977(7) -1.0043(7) 1.1460(3)
O2A O 1.1886(6) -0.8407(7) 0.8946(3)
H15A H 1.1897 -0.7403 0.8751
H16A H 1.1887 -0.8775 0.8403
C5A C 0.6161(8) -0.9738(9) 0.8858(4)
H9A H 0.5945 -1.0742 0.9368
H10A H 0.5956 -0.8758 0.9159
C6A C 0.8263(9) -1.1481(8) 0.8102(4)
H11A H 0.9470 -1.1646 0.7883
H12A H 0.8063 -1.2483 0.8618
H5A H 0.9531 -0.8566 0.7517
H6A H 0.8148 -0.7415 0.8012
H3A H 0.5069 -0.6979 0.7481
H4A H 0.4477 -0.7845 0.6644
H7A H 0.4416 -1.0900 0.7001
H8A H 0.4994 -1.2027 0.8077
H1A H 0.6608 -0.9631 0.5868
H2A H 0.8596 -0.9930 0.6212
O1A O 0.8149(7) -0.4601(6) 0.6989(3)
H13A H 0.7918 -0.3339 0.7030
H14A H 0.9399 -0.4352 0.7086
O3 O -0.1538(7) -0.5112(7) 0.2116(4)
H17 H -0.1330 -0.4801 0.1439
H18 H -0.2595 -0.5699 0.2300
loop_
_geom_bond_atom_site_label_1
_geom_bond_atom_site_label_2
_geom_bond_site_symmetry_1
_geom_bond_site_symmetry_2
Cd1 Br1 1_555 1_555
Cd2 Br2 1_555 1_555
Br2 Cd2A 1_555 1_555
Br3 Cd2 1_555 1_555
N1 Cd2 1_555 1_555
N2 C3 1_555 1_555
N3 C1 1_555 1_555
N4 C2 1_555 1_555
C1 N1 1_555 1_555
H1 C1 1_555 1_555
H2 C1 1_555 1_555
C2 N1 1_555 1_555
H3 C2 1_555 1_555
H4 C2 1_555 1_555
C3 N1 1_555 1_555
H5 C3 1_555 1_555
H6 C3 1_555 1_555
C4 N3 1_555 1_555
H7 C4 1_555 1_555
H8 C4 1_555 1_555
C5 N2 1_555 1_555
H9 C5 1_555 1_555
H10 C5 1_555 1_555
C6 N2 1_555 1_555
H11 C6 1_555 1_555
H12 C6 1_555 1_555
O1 Cd2 1_555 1_555
H13 O1 1_555 1_555
H14 O1 1_555 1_555
O2 Cd1 1_555 1_555
H15 O2 1_555 1_555
H16 O2 1_555 1_555
O3 H17 1_555 1_555
H18 O3 1_555 1_555
Cd2A Br2A 1_555 1_555
Br2A Cd2 1_555 1_555
Cd2A_2 Br3 1_555 1_555
Br2A_2 Cd2A_2 1_555 1_555
Br2_2 Cd2A_2 1_555 1_555
Br3A Cd2 1_555 1_555
N1A Cd2A_2 1_555 1_555
C1A N1A 1_555 1_555
N3A C1A 1_555 1_555
C4A N3A 1_555 1_555
N4A C4A 1_555 1_555
C2A N1A 1_555 1_555
C3A N1A 1_555 1_555
N2A Cd1 1_555 1_555
Cd1_2 N2 1_555 1_555
Br1A Cd1 1_555 1_555
N2_2 Cd1 1_555 1_555
O2A Cd1 1_555 1_555
H15A O2A 1_555 1_555
H16A O2A 1_555 1_555
C5A N4A 1_555 1_555
H9A C5A 1_555 1_555
H10A C5A 1_555 1_555
C6A N3A 1_555 1_555
H11A C6A 1_555 1_555
H12A C6A 1_555 1_555
H5A C3A 1_555 1_555
H6A C3A 1_555 1_555
H3A C2A 1_555 1_555
H4A C2A 1_555 1_555
H7A C4A 1_555 1_555
H8A C4A 1_555 1_555
H1A C1A 1_555 1_555
H2A C1A 1_555 1_555
O1A Cd2A_2 1_555 1_555
H13A O1A 1_555 1_555
H14A O1A 1_555 1_555
N3 C6 1_555 1_555
N4 C4 1_555 1_555
N4 C5 1_555 1_555
Cd2A_2 Br3A 1_555 1_555
N4A C2A 1_555 1_555
C3A N2A 1_555 1_555
N2A C5A 1_555 1_555
N2A C6A 1_555 1_555

#END
