
#######################################################################
#
#                 Cambridge Crystallographic Data Centre
#                                CCDC 
#
#######################################################################
#
# If this CIF has been generated from an entry in the Cambridge 
# Structural Database, then it will include bibliographic, chemical, 
# crystal, experimental, refinement or atomic coordinate data resulting 
# from the CCDC's data processing and validation procedures.
#
#######################################################################

data_WOBHOM
_symmetry_cell_setting           orthorhombic
_symmetry_space_group_name_H-M   'P 21 21 21'
_symmetry_Int_Tables_number      19
_space_group_name_Hall           'P 2ac 2ab'
loop_
_symmetry_equiv_pos_site_id
_symmetry_equiv_pos_as_xyz
1 x,y,z
2 1/2-x,-y,1/2+z
3 1/2+x,1/2-y,-z
4 -x,1/2+y,1/2-z
_cell_length_a                   10.3349(4)
_cell_length_b                   11.8962(4)
_cell_length_c                   20.2894(8)
_cell_angle_alpha                90
_cell_angle_beta                 90
_cell_angle_gamma                90
_cell_volume                     2494.5
loop_
_atom_site_label
_atom_site_type_symbol
_atom_site_fract_x
_atom_site_fract_y
_atom_site_fract_z
Zn1 Zn 0.14246(5) 0.67650(5) 0.99072(4)
Zn2 Zn 0.45562(5) 0.58325(5) 0.99026(3)
O1 O 0.1796(5) 0.5980(5) 0.9068(3)
O2 O 0.3848(5) 0.5430(5) 0.9036(2)
O3 O 0.5383(5) 0.4180(4) 0.9927(4)
O4 O 0.1220(5) 0.4547(5) 0.5765(2)
O5 O 0.3325(5) 0.4125(5) 0.5730(2)
O6 O 0.1192(3) 0.8380(3) 1.0078(2)
O7 O 0.3396(4) 0.7316(3) 0.9912(2)
O8 O 0.4587(4) 0.8753(4) 1.0246(3)
C1 C 0.2588(6) 0.5299(7) 0.8057(3)
C2 C 0.2423(7) 0.4735(6) 0.6724(3)
C3 C 0.1485(7) 0.5384(9) 0.7735(4)
C4 C 0.3708(7) 0.4973(8) 0.7716(4)
H1 H 0.4496 0.4948 0.7937
C5 C 0.1379(7) 0.5082(9) 0.7090(4)
H2 H 0.0570 0.5112 0.6889
C6 C 0.3656(7) 0.4685(9) 0.7046(4)
H3 H 0.4397 0.4470 0.6818
C7 C 0.2783(6) 0.5586(7) 0.8779(3)
C8 C 0.3530(5) 0.8285(4) 1.0135(3)
C9 C 0.2299(6) 0.8934(5) 1.0314(4)
H4 H 0.234(7) 0.968(6) 1.011(4)
C10 C 0.2325(6) 0.4439(6) 0.6025(3)
N1 N 0.0320(12) 0.5755(18) 0.8022(6)
H5 H 0.0418 0.5802 0.8457
H6 H -0.0309 0.5269 0.7929
H7 H 0.0116 0.6428 0.7861
C11 C 0.2240(8) 0.9068(10) 1.1068(5)
H8 H 0.1393 0.9320 1.1194
H9 H 0.2872 0.9609 1.1207
H10 H 0.2417 0.8357 1.1274
C12 C 0.5140(12) 0.3390(8) 1.0176(10)
H11 H 0.4574 0.3482 1.0528
O9 O 0.5480(15) 0.2350(8) 1.0079(10)
Zn1A Zn 0.35754(5) 0.32350(5) 0.49072(4)
Zn1B Zn 0.64246(5) 0.82350(5) 1.00928(4)
Zn2A Zn 0.04438(5) 0.41675(5) 0.49026(3)
Zn2B Zn -0.04438(5) 0.91675(5) 1.00974(3)
O4A O 0.3780(5) 0.5453(5) 1.0765(2)
O5A O 0.1675(5) 0.5875(5) 1.0730(2)
O6B O 0.6192(3) 0.6620(3) 0.9922(2)
O8B O -0.0413(4) 0.6247(4) 0.9754(3)
loop_
_geom_bond_atom_site_label_1
_geom_bond_atom_site_label_2
_geom_bond_site_symmetry_1
_geom_bond_site_symmetry_2
Zn1 O1 1_555 1_555
Zn2 O2 1_555 1_555
O1 C7 1_555 1_555
O2 C7 1_555 1_555
O3 Zn2 1_555 1_555
O4 C10 1_555 1_555
O5 C10 1_555 1_555
O6 Zn1 1_555 1_555
O7 Zn1 1_555 1_555
O8 C8 1_555 1_555
C1 C3 1_555 1_555
C2 C5 1_555 1_555
C3 C5 1_555 1_555
C4 C1 1_555 1_555
H1 C4 1_555 1_555
C5 H2 1_555 1_555
C6 C2 1_555 1_555
H3 C6 1_555 1_555
C7 C1 1_555 1_555
C8 O7 1_555 1_555
C9 O6 1_555 1_555
H4 C9 1_555 1_555
C10 C2 1_555 1_555
N1 C3 1_555 1_555
H5 N1 1_555 1_555
H6 N1 1_555 1_555
H7 N1 1_555 1_555
C11 C9 1_555 1_555
H8 C11 1_555 1_555
H9 C11 1_555 1_555
H10 C11 1_555 1_555
C12 O3 1_555 1_555
H11 C12 1_555 1_555
O9 C12 1_555 1_555
Zn1A O5 1_555 1_555
Zn1B O8 1_555 1_555
Zn2A O4 1_555 1_555
Zn2B O6 1_555 1_555
O4A Zn2 1_555 1_555
O5A Zn1 1_555 1_555
O6B Zn2 1_555 1_555
O8B Zn1 1_555 1_555
Zn2 O7 1_555 1_555
C4 C6 1_555 1_555
C8 C9 1_555 1_555
Zn1B O6B 1_555 1_555

#END
