
#######################################################################
#
#                 Cambridge Crystallographic Data Centre
#                                CCDC 
#
#######################################################################
#
# If this CIF has been generated from an entry in the Cambridge 
# Structural Database, then it will include bibliographic, chemical, 
# crystal, experimental, refinement or atomic coordinate data resulting 
# from the CCDC's data processing and validation procedures.
#
#######################################################################

data_WOBHAX
_symmetry_cell_setting           triclinic
_symmetry_space_group_name_H-M   'P -1'
_symmetry_Int_Tables_number      2
_space_group_name_Hall           '-P 1'
loop_
_symmetry_equiv_pos_site_id
_symmetry_equiv_pos_as_xyz
1 x,y,z
2 -x,-y,-z
_cell_length_a                   9.1442(5)
_cell_length_b                   9.7893(5)
_cell_length_c                   11.0738(6)
_cell_angle_alpha                92.922(3)
_cell_angle_beta                 97.147(2)
_cell_angle_gamma                107.695(2)
_cell_volume                     932.895
loop_
_atom_site_label
_atom_site_type_symbol
_atom_site_fract_x
_atom_site_fract_y
_atom_site_fract_z
C1 C 0.1561(10) -0.1141(11) 0.1798(8)
C2 C -0.0055(10) -0.2117(10) 0.1850(8)
H1 H -0.0059 -0.2491 0.2655
C3 C -0.0608(12) -0.3411(11) 0.0879(9)
H2 H -0.0588 -0.3072 0.0071
H3 H 0.0088 -0.3986 0.0980
C4 C -0.2246(12) -0.4335(10) 0.0991(9)
H4 H -0.2253 -0.4731 0.1776
H5 H -0.2591 -0.5130 0.0355
C5 C -0.3351(10) -0.3437(10) 0.0874(9)
H6 H -0.3401 -0.3104 0.0065
H7 H -0.4384 -0.4034 0.0971
C6 C -0.1168(9) -0.1226(9) 0.1749(7)
H8 H -0.1138 -0.0794 0.0980
H9 H -0.0839 -0.0456 0.2407
C7 C -0.2830(9) -0.2162(9) 0.1819(7)
H10 H -0.2839 -0.2531 0.2625
C8 C -0.3869(9) -0.1225(9) 0.1736(7)
C9 C 0.9865(12) 0.7695(10) 0.5626(8)
C10 C 0.869(2) 0.6443(16) 0.6034(11)
H11 H 0.9472 0.6003 0.6359
C11 C 0.817(2) 0.6525(15) 0.7116(13)
H12 H 0.9060 0.6923 0.7744
H13 H 0.7590 0.7210 0.7076
C12 C 0.7169(17) 0.5182(16) 0.7520(11)
H14 H 0.6427 0.5428 0.7972
H15 H 0.7818 0.4807 0.8084
C13 C 0.631(2) 0.4029(16) 0.6571(16)
H16 H 0.6201 0.3123 0.6924
H17 H 0.5273 0.4104 0.6381
C14 C 0.7926(11) 0.5242(9) 0.5062(8)
H18 H 0.8723 0.4973 0.4699
H19 H 0.7338 0.5590 0.4426
C15 C 0.6869(19) 0.3935(13) 0.5477(11)
H20 H 0.7682 0.3529 0.5792
C16 C 0.6061(14) 0.2739(12) 0.4494(14)
O1 O 0.2065(9) -0.0971(10) 0.0806(6)
O2 O 0.2364(9) -0.0441(12) 0.2756(7)
O3 O -0.4010(7) -0.0553(7) 0.2697(5)
O4 O -0.4548(8) -0.1057(8) 0.0735(6)
O5 O 1.1165(9) 0.8152(9) 0.6238(8)
O6 O 0.9475(10) 0.8332(9) 0.4746(7)
O7 O 0.5628(12) 0.3115(11) 0.3465(9)
O8 O 0.5655(10) 0.1481(8) 0.4679(11)
O9 O 0.7523(9) 0.2192(9) 0.1399(7)
Pb1 Pb 0.46506(4) 0.09979(3) 0.16941(3)
Pb2 Pb 0.26306(4) -0.00070(3) 0.50908(3)
H21 H 0.821(10) 0.211(14) 0.196(8)
H22 H 0.810(19) 0.23(2) 0.085(13)
O3_2 O 0.5990(7) -0.0553(7) 0.2697(5)
O3A O 0.4010(7) 0.0553(7) 0.7303(5)
O4_2 O 0.5452(8) -0.1057(8) 0.0735(6)
O4A O 0.4548(8) 0.1057(8) -0.0735(6)
O5_2 O 0.1165(9) -0.1848(9) 0.6238(8)
O6_2 O -0.0525(10) -0.1668(9) 0.4746(7)
O6A O 0.0525(10) 0.1668(9) 0.5254(7)
O8A O 0.4345(10) -0.1481(8) 0.5321(11)
Pb1_2 Pb -0.53494(4) 0.09979(3) 0.16941(3)
Pb1A Pb -0.46506(4) -0.09979(3) -0.16941(3)
Pb2A Pb -0.26306(4) 0.00070(3) 0.49092(3)
Pb2_2 Pb 1.26306(4) 0.99930(3) 0.50908(3)
Pb2A_2 Pb 0.73694(4) 1.00070(3) 0.49092(3)
Pb2A_3 Pb 0.73694(4) 0.00070(3) 0.49092(3)
loop_
_geom_bond_atom_site_label_1
_geom_bond_atom_site_label_2
_geom_bond_site_symmetry_1
_geom_bond_site_symmetry_2
C1 C2 1_555 1_555
C2 H1 1_555 1_555
C3 C2 1_555 1_555
H2 C3 1_555 1_555
H3 C3 1_555 1_555
C4 C3 1_555 1_555
H4 C4 1_555 1_555
H5 C4 1_555 1_555
C5 C4 1_555 1_555
H6 C5 1_555 1_555
H7 C5 1_555 1_555
C6 C2 1_555 1_555
H8 C6 1_555 1_555
H9 C6 1_555 1_555
C7 C5 1_555 1_555
H10 C7 1_555 1_555
C8 C7 1_555 1_555
C9 C10 1_555 1_555
C10 H11 1_555 1_555
C11 C10 1_555 1_555
H12 C11 1_555 1_555
H13 C11 1_555 1_555
C12 C11 1_555 1_555
H14 C12 1_555 1_555
H15 C12 1_555 1_555
C13 C12 1_555 1_555
H16 C13 1_555 1_555
H17 C13 1_555 1_555
C14 C10 1_555 1_555
H18 C14 1_555 1_555
H19 C14 1_555 1_555
C15 C13 1_555 1_555
H20 C15 1_555 1_555
C16 C15 1_555 1_555
O1 C1 1_555 1_555
O2 C1 1_555 1_555
O3 C8 1_555 1_555
O4 C8 1_555 1_555
O5 C9 1_555 1_555
O6 C9 1_555 1_555
O7 C16 1_555 1_555
O8 C16 1_555 1_555
O9 Pb1 1_555 1_555
Pb1 O1 1_555 1_555
Pb2 O2 1_555 1_555
H21 O9 1_555 1_555
H22 O9 1_555 1_555
O3_2 Pb1 1_555 1_555
O3A Pb2 1_555 1_555
O4_2 Pb1 1_555 1_555
O4A Pb1 1_555 1_555
O5_2 Pb2 1_555 1_555
O6_2 Pb2 1_555 1_555
O6A Pb2 1_555 1_555
O8A Pb2 1_555 1_555
Pb1_2 O3 1_555 1_555
Pb1A O4 1_555 1_555
Pb2A O3 1_555 1_555
Pb2_2 O5 1_555 1_555
Pb2A_2 O6 1_555 1_555
Pb2A_3 O8 1_555 1_555
C6 C7 1_555 1_555
C14 C15 1_555 1_555
O2 Pb1 1_555 1_555
O4 Pb1_2 1_555 1_555
O6 Pb2_2 1_555 1_555
O7 Pb1 1_555 1_555
O8 Pb2 1_555 1_555
O3_2 Pb2A_3 1_555 1_555
O6_2 Pb2A 1_555 1_555
O6A Pb2A 1_555 1_555
O8A Pb2A_3 1_555 1_555

#END
