
#######################################################################
#
#                 Cambridge Crystallographic Data Centre
#                                CCDC 
#
#######################################################################
#
# If this CIF has been generated from an entry in the Cambridge 
# Structural Database, then it will include bibliographic, chemical, 
# crystal, experimental, refinement or atomic coordinate data resulting 
# from the CCDC's data processing and validation procedures.
#
#######################################################################

data_WOBJAZ
_symmetry_cell_setting           triclinic
_symmetry_space_group_name_H-M   'P -1'
_symmetry_Int_Tables_number      2
_space_group_name_Hall           '-P 1'
loop_
_symmetry_equiv_pos_site_id
_symmetry_equiv_pos_as_xyz
1 x,y,z
2 -x,-y,-z
_cell_length_a                   11.9100(19)
_cell_length_b                   12.458(2)
_cell_length_c                   13.113(2)
_cell_angle_alpha                70.031(3)
_cell_angle_beta                 63.821(2)
_cell_angle_gamma                69.960(3)
_cell_volume                     1597.99
loop_
_atom_site_label
_atom_site_type_symbol
_atom_site_fract_x
_atom_site_fract_y
_atom_site_fract_z
Cu1 Cu 0.0000 0.0000 0.0000
C1 C -0.0381(13) 0.0361(13) 0.2213(14)
H1 H 0.0334 0.0676 0.1921
N2 N -0.0747(11) 0.0015(10) 0.1570(9)
N3 N -0.2132(9) -0.0266(10) 0.3408(9)
C2 C -0.4420(10) 0.0131(14) 0.4558(12)
H2 H -0.4526 0.0292 0.3824
H3 H -0.4382 0.0869 0.4625
C3 C -0.1811(13) -0.0388(13) 0.2330(11)
H4 H -0.2263 -0.0709 0.2129
C4 C -0.3248(10) -0.0570(13) 0.4426(11)
H5 H -0.3292 -0.1338 0.4440
H6 H -0.3077 -0.0653 0.5110
C5 C -0.1205(12) 0.0190(12) 0.3368(11)
H7 H -0.1146 0.0348 0.3985
Cu1_2 Cu -1.0000 0.0000 1.0000
C1A C -0.9619(13) -0.0361(13) 0.7787(14)
H1A H -1.0334 -0.0676 0.8079
N2A N -0.9253(11) -0.0015(10) 0.8430(9)
N2A_2 N 0.0747(11) -0.0015(10) -0.1570(9)
N3A N -0.7868(9) 0.0266(10) 0.6592(9)
C2A C -0.5580(10) -0.0131(14) 0.5442(12)
H2A H -0.5474 -0.0292 0.6176
H3A H -0.5618 -0.0869 0.5375
C3A C -0.8189(13) 0.0388(13) 0.7670(11)
H4A H -0.7737 0.0709 0.7871
C4A C -0.6752(10) 0.0570(13) 0.5574(11)
H5A H -0.6708 0.1338 0.5560
H6A H -0.6923 0.0653 0.4890
C5A C -0.8795(12) -0.0190(12) 0.6632(11)
H7A H -0.8854 -0.0348 0.6015
Cu2 Cu 0.5000 0.5000 0.5000
N1 N 0.4380(18) 0.4662(15) 0.4093(11)
N4 N 0.3929(14) 0.4730(11) 0.2636(10)
C6 C 0.3905(16) 0.3711(14) 0.4353(12)
H8 H 0.3798 0.3124 0.5034
C7 C 0.437(2) 0.5235(15) 0.3054(13)
H9 H 0.4643 0.5931 0.2658
C8 C 0.5008(16) 0.4769(18) 0.0610(12)
H10 H 0.5256 0.3920 0.0764
H11 H 0.5662 0.5039 0.0643
C9 C 0.3614(15) 0.3774(15) 0.3435(13)
H12 H 0.3261 0.3246 0.3379
C10 C 0.3834(19) 0.510(2) 0.1502(13)
H13 H 0.3195 0.4768 0.1526
H14 H 0.3542 0.5949 0.1320
Cu2_2 Cu 0.5000 0.5000 -0.5000
N1A N 0.5620(18) 0.5338(15) -0.4093(11)
N1A_2 N 0.5620(18) 0.5338(15) 0.5907(11)
N4A N 0.6071(14) 0.5270(11) -0.2636(10)
C6A C 0.6095(16) 0.6289(14) -0.4353(12)
H8A H 0.6202 0.6876 -0.5034
C7A C 0.563(2) 0.4765(15) -0.3054(13)
H9A H 0.5357 0.4069 -0.2658
C8A C 0.4992(16) 0.5231(18) -0.0610(12)
H10A H 0.4744 0.6080 -0.0764
H11A H 0.4338 0.4961 -0.0643
C9A C 0.6386(15) 0.6226(15) -0.3435(13)
H12A H 0.6739 0.6754 -0.3379
C10A C 0.6166(19) 0.490(2) -0.1502(13)
H13A H 0.6805 0.5232 -0.1526
H14A H 0.6458 0.4051 -0.1320
Cu3 Cu 0.1226(3) 0.7260(3) 0.0838(3)
Mo1 Mo 0.39296(9) 0.92017(9) 0.00346(8)
Mo2 Mo 0.50443(10) 0.83686(9) 0.25846(8)
Mo3 Mo 0.28305(11) 1.08761(9) 0.24080(8)
Mo4 Mo 0.26795(12) 1.25868(12) -0.02009(10)
O1 O 0.3757(10) 0.9292(9) 0.1428(8)
O2 O 0.2546(9) 1.2069(8) 0.2884(8)
O3 O 0.5804(8) 0.7355(7) 0.1514(6)
O4 O 0.3598(8) 1.0613(8) -0.0822(7)
O5 O 0.3899(9) 0.7667(8) 0.3628(9)
O6 O 0.6197(10) 0.8009(9) 0.3140(8)
O7 O 0.2870(11) 0.8455(11) 0.0265(11)
O8 O 0.1686(9) 1.0157(8) 0.3426(8)
O9 O 0.4285(8) 0.9931(7) 0.2775(6)
O10 O 0.1558(11) 1.2861(13) -0.0775(10)
O11 O 0.2131(8) 1.1514(7) 0.1209(7)
O12 O 0.5494(10) 0.8449(8) -0.0672(8)
N5 N 0.0394(13) 0.7346(12) 0.4124(17)
N6 N 0.0626(18) 0.7157(16) 0.2426(19)
C11 C 0.105(2) 0.755(2) 0.298(3)
H15 H 0.1725 0.7923 0.2607
C12 C -0.043(3) 0.674(2) 0.324(3)
H16 H -0.0984 0.6481 0.3102
C13 C -0.051(2) 0.677(2) 0.425(3)
H17 H -0.1092 0.6455 0.4956
O13 O 0.2419(14) 1.3788(10) 0.0227(11)
C14 C 0.0539(18) 0.777(2) 0.4985(19)
H18 H -0.0198 0.8404 0.5209
H19 H 0.1290 0.8101 0.4579
C15 C 0.067(2) 0.693(2) 0.609(2)
H20 H 0.0577 0.7384 0.6606
H21 H -0.0045 0.6543 0.6476
C16 C 0.183(3) 0.559(3) 0.7221(18)
H22 H 0.2484 0.4870 0.7239
H23 H 0.1011 0.5371 0.7688
C17 C 0.187(2) 0.600(3) 0.5983(16)
H24 H 0.2623 0.6323 0.5461
H25 H 0.1878 0.5372 0.5707
N7 N 0.1972(16) 0.6284(17) 0.7921(15)
C18 C 0.1319(19) 0.642(2) 0.9064(19)
H26 H 0.0613 0.6097 0.9579
C19 C 0.291(2) 0.694(2) 0.748(2)
H27 H 0.3520 0.7057 0.6725
N8 N 0.1802(16) 0.7050(18) 0.936(2)
C20 C 0.2755(17) 0.735(2) 0.836(2)
H28 H 0.3272 0.7807 0.8278
Cu3_2 Cu 0.1226(3) 0.7260(3) -0.9162(3)
Cu3_3 Cu 0.1226(3) 0.7260(3) 1.0838(3)
Mo1_2 Mo 0.39296(9) 0.92017(9) -0.99654(8)
Mo1A Mo 0.60704(9) 1.07983(9) -0.00346(8)
Mo2A Mo 0.49557(10) 1.16314(9) -0.25846(8)
Mo2_2 Mo 0.50443(10) 0.83686(9) -0.74154(8)
Mo3A Mo 0.71695(11) 0.91239(9) -0.24080(8)
Mo3_2 Mo 0.28305(11) 1.08761(9) -0.75920(8)
Mo4A Mo 0.73205(12) 0.74132(12) 0.02009(10)
O1_2 O 0.3757(10) 0.9292(9) -0.8572(8)
O1A O 0.6243(10) 1.0708(9) -0.1428(8)
O2A O 0.7454(9) 0.7931(8) -0.2884(8)
O3A O 0.4196(8) 1.2645(7) -0.1514(6)
O4A O 0.6402(8) 0.9387(8) 0.0822(7)
O4_2 O 0.3598(8) 1.0613(8) -1.0822(7)
O5A O 0.6101(9) 1.2333(8) -0.3628(9)
O6A O 0.3803(10) 1.1991(9) -0.3140(8)
O7_2 O 0.2870(11) 0.8455(11) -0.9735(11)
O8A O 0.8314(9) 0.9843(8) -0.3426(8)
O9A O 0.5715(8) 1.0069(7) -0.2775(6)
O10A O 0.8442(11) 0.7139(13) 0.0775(10)
O11A O 0.7869(8) 0.8486(7) -0.1209(7)
O12A O 0.4506(10) 1.1551(8) 0.0672(8)
O12_2 O 0.5494(10) 0.8449(8) -1.0672(8)
N5_2 N 0.0394(13) 0.7346(12) -0.5876(17)
N6_2 N 0.0626(18) 0.7157(16) -0.7574(19)
C11_2 C 0.105(2) 0.755(2) -0.702(3)
H15_2 H 0.1725 0.7923 -0.7393
C12_2 C -0.043(3) 0.674(2) -0.676(3)
H16_2 H -0.0984 0.6481 -0.6898
C13_2 C -0.051(2) 0.677(2) -0.575(3)
H17_2 H -0.1092 0.6455 -0.5044
O13A O 0.7581(14) 0.6212(10) -0.0227(11)
C14_2 C 0.0539(18) 0.777(2) -0.5015(19)
H18_2 H -0.0198 0.8404 -0.4791
H19_2 H 0.1290 0.8101 -0.5421
C15_2 C 0.067(2) 0.693(2) -0.391(2)
H20_2 H 0.0577 0.7384 -0.3394
H21_2 H -0.0045 0.6543 -0.3524
C16_2 C 0.183(3) 0.559(3) -0.2779(18)
H22_2 H 0.2484 0.4870 -0.2761
H23_2 H 0.1011 0.5371 -0.2312
C17_2 C 0.187(2) 0.600(3) -0.4017(16)
H24_2 H 0.2623 0.6323 -0.4539
H25_2 H 0.1878 0.5372 -0.4293
N7_2 N 0.1972(16) 0.6284(17) -0.2079(15)
C18_2 C 0.1319(19) 0.642(2) -0.0936(19)
H26_2 H 0.0613 0.6097 -0.0421
C19_2 C 0.291(2) 0.694(2) -0.252(2)
H27_2 H 0.3520 0.7057 -0.3275
N8_2 N 0.1802(16) 0.7050(18) -0.064(2)
N8_3 N 0.1802(16) 0.7050(18) -1.064(2)
C20_2 C 0.2755(17) 0.735(2) -0.164(2)
H28_2 H 0.3272 0.7807 -0.1722
loop_
_geom_bond_atom_site_label_1
_geom_bond_atom_site_label_2
_geom_bond_site_symmetry_1
_geom_bond_site_symmetry_2
Cu1 N2 1_555 1_555
Cu2 N1 1_555 1_555
Cu3 O7 1_555 1_555
Mo1 O1 1_555 1_555
Mo2 O1 1_555 1_555
Mo3 O1 1_555 1_555
Mo4 O4 1_555 1_555
O2 Mo3 1_555 1_555
O3 Mo2 1_555 1_555
O4 Mo1 1_555 1_555
O5 Mo2 1_555 1_555
O6 Mo2 1_555 1_555
O7 Mo1 1_555 1_555
O8 Mo3 1_555 1_555
O9 Mo2 1_555 1_555
O10 Mo4 1_555 1_555
O11 Mo3 1_555 1_555
N1 C6 1_555 1_555
C1 H1 1_555 1_555
N2 C1 1_555 1_555
N3 C3 1_555 1_555
O12 Mo1 1_555 1_555
C2 H2 1_555 1_555
H3 C2 1_555 1_555
N4 C7 1_555 1_555
C3 N2 1_555 1_555
H4 C3 1_555 1_555
C4 N3 1_555 1_555
H5 C4 1_555 1_555
H6 C4 1_555 1_555
C5 C1 1_555 1_555
H7 C5 1_555 1_555
C6 H8 1_555 1_555
C7 N1 1_555 1_555
H9 C7 1_555 1_555
C8 H10 1_555 1_555
H11 C8 1_555 1_555
C9 N4 1_555 1_555
H12 C9 1_555 1_555
C10 N4 1_555 1_555
H13 C10 1_555 1_555
H14 C10 1_555 1_555
N5 C11 1_555 1_555
N6 Cu3 1_555 1_555
C11 N6 1_555 1_555
H15 C11 1_555 1_555
C12 N6 1_555 1_555
H16 C12 1_555 1_555
C13 N5 1_555 1_555
H17 C13 1_555 1_555
O13 Mo4 1_555 1_555
C14 N5 1_555 1_555
H18 C14 1_555 1_555
H19 C14 1_555 1_555
C15 C14 1_555 1_555
H20 C15 1_555 1_555
H21 C15 1_555 1_555
C16 H22 1_555 1_555
H23 C16 1_555 1_555
C17 C15 1_555 1_555
H24 C17 1_555 1_555
H25 C17 1_555 1_555
N7 C16 1_555 1_555
C18 N7 1_555 1_555
H26 C18 1_555 1_555
C19 N7 1_555 1_555
H27 C19 1_555 1_555
N8 C18 1_555 1_555
C20 C19 1_555 1_555
H28 C20 1_555 1_555
Cu1_2 N2A 1_555 1_555
Cu2_2 N1A 1_555 1_555
Cu3_2 O7_2 1_555 1_555
Cu3_3 N8 1_555 1_555
Mo1_2 O1_2 1_555 1_555
Mo1A O1A 1_555 1_555
Mo2A O4 1_555 1_555
Mo2_2 O1_2 1_555 1_555
Mo3A O12 1_555 1_555
Mo3_2 O1_2 1_555 1_555
Mo4A O3 1_555 1_555
O1A Mo2A 1_555 1_555
O2A Mo3A 1_555 1_555
O3A Mo4 1_555 1_555
O4A Mo2 1_555 1_555
O4_2 Mo1_2 1_555 1_555
O5A Mo2A 1_555 1_555
O6A Mo2A 1_555 1_555
O7_2 Mo1_2 1_555 1_555
O8A Mo3A 1_555 1_555
O9A Mo2A 1_555 1_555
O10A Mo4A 1_555 1_555
O11A Mo3A 1_555 1_555
N1A C6A 1_555 1_555
N1A_2 Cu2 1_555 1_555
C1A H1A 1_555 1_555
N2A C1A 1_555 1_555
N2A_2 Cu1 1_555 1_555
N3A C3A 1_555 1_555
O12A Mo3 1_555 1_555
O12_2 Mo1_2 1_555 1_555
C2A C2 1_555 1_555
H2A C2A 1_555 1_555
H3A C2A 1_555 1_555
N4A C7A 1_555 1_555
C3A N2A 1_555 1_555
H4A C3A 1_555 1_555
C4A N3A 1_555 1_555
H5A C4A 1_555 1_555
H6A C4A 1_555 1_555
C5A C1A 1_555 1_555
H7A C5A 1_555 1_555
C6A H8A 1_555 1_555
C7A N1A 1_555 1_555
H9A C7A 1_555 1_555
C8A C8 1_555 1_555
H10A C8A 1_555 1_555
H11A C8A 1_555 1_555
C9A N4A 1_555 1_555
H12A C9A 1_555 1_555
C10A N4A 1_555 1_555
H13A C10A 1_555 1_555
H14A C10A 1_555 1_555
N5_2 C11_2 1_555 1_555
N6_2 Cu3_2 1_555 1_555
C11_2 N6_2 1_555 1_555
H15_2 C11_2 1_555 1_555
C12_2 N6_2 1_555 1_555
H16_2 C12_2 1_555 1_555
C13_2 N5_2 1_555 1_555
H17_2 C13_2 1_555 1_555
O13A Mo4A 1_555 1_555
C14_2 N5_2 1_555 1_555
H18_2 C14_2 1_555 1_555
H19_2 C14_2 1_555 1_555
C15_2 C14_2 1_555 1_555
H20_2 C15_2 1_555 1_555
H21_2 C15_2 1_555 1_555
C16_2 H22_2 1_555 1_555
H23_2 C16_2 1_555 1_555
C17_2 C15_2 1_555 1_555
H24_2 C17_2 1_555 1_555
H25_2 C17_2 1_555 1_555
N7_2 C16_2 1_555 1_555
C18_2 N7_2 1_555 1_555
H26_2 C18_2 1_555 1_555
C19_2 N7_2 1_555 1_555
H27_2 C19_2 1_555 1_555
N8_2 Cu3 1_555 1_555
N8_3 Cu3_2 1_555 1_555
C20_2 C19_2 1_555 1_555
H28_2 C20_2 1_555 1_555
Mo3 O9 1_555 1_555
Mo4 O11 1_555 1_555
N3 C5 1_555 1_555
C2 C4 1_555 1_555
C6 C9 1_555 1_555
C8 C10 1_555 1_555
C12 C13 1_555 1_555
C16 C17 1_555 1_555
N8 C20 1_555 1_555
Mo1A O4A 1_555 1_555
Mo1A O12A 1_555 1_555
Mo2A O3A 1_555 1_555
Mo3A O1A 1_555 1_555
Mo3A O9A 1_555 1_555
Mo4A O4A 1_555 1_555
Mo4A O11A 1_555 1_555
N3A C5A 1_555 1_555
C2A C4A 1_555 1_555
C6A C9A 1_555 1_555
C8A C10A 1_555 1_555
C12_2 C13_2 1_555 1_555
C16_2 C17_2 1_555 1_555
C18_2 N8_2 1_555 1_555
N8_2 C20_2 1_555 1_555

#END
