
#######################################################################
#
#                 Cambridge Crystallographic Data Centre
#                                CCDC 
#
#######################################################################
#
# If this CIF has been generated from an entry in the Cambridge 
# Structural Database, then it will include bibliographic, chemical, 
# crystal, experimental, refinement or atomic coordinate data resulting 
# from the CCDC's data processing and validation procedures.
#
#######################################################################

data_WOBKUV
_symmetry_cell_setting           monoclinic
_symmetry_space_group_name_H-M   'P 21/c'
_symmetry_Int_Tables_number      14
_space_group_name_Hall           '-P 2ybc'
loop_
_symmetry_equiv_pos_site_id
_symmetry_equiv_pos_as_xyz
1 x,y,z
2 -x,1/2+y,1/2-z
3 -x,-y,-z
4 x,1/2-y,1/2+z
_cell_length_a                   11.9790(5)
_cell_length_b                   14.7940(5)
_cell_length_c                   17.0060(6)
_cell_angle_alpha                90
_cell_angle_beta                 102.0400(10)
_cell_angle_gamma                90
_cell_volume                     2947.46
loop_
_atom_site_label
_atom_site_type_symbol
_atom_site_fract_x
_atom_site_fract_y
_atom_site_fract_z
C1 C 0.3488(2) 0.10301(16) 0.62021(15)
C2 C 0.2365(2) 0.07466(18) 0.61119(17)
H1 H 0.2023 0.0741 0.6555
C3 C 0.1746(3) 0.0472(2) 0.53716(19)
H2 H 0.0988 0.0299 0.5320
C4 C 0.2243(3) 0.0450(2) 0.47081(18)
H3 H 0.1822 0.0264 0.4212
C5 C 0.3350(3) 0.0705(2) 0.47868(16)
H4 H 0.3684 0.0683 0.4340
C6 C 0.4008(2) 0.10020(17) 0.55312(15)
C7 C 0.5174(2) 0.12648(19) 0.55590(16)
H5 H 0.5409 0.1301 0.5072
C8 C 0.7077(3) 0.1720(2) 0.61519(18)
H6 H 0.7071 0.2062 0.5664
H7 H 0.7551 0.1189 0.6149
C9 C 0.7531(2) 0.2291(2) 0.68790(17)
H8 H 0.8345 0.2383 0.6931
H9 H 0.7161 0.2877 0.6821
C10 C 0.7605(2) 0.2414(2) 0.83304(17)
H10 H 0.7256 0.2163 0.8748
H11 H 0.7276 0.3008 0.8197
C11 C 0.8856(3) 0.2522(3) 0.8660(2)
H12 H 0.9209 0.2794 0.8254
H13 H 0.9196 0.1930 0.8787
C12 C 0.9094(3) 0.3097(3) 0.9401(2)
H14 H 0.8744 0.3679 0.9282
H15 H 0.9903 0.3170 0.9580
H16 H 0.8786 0.2811 0.9816
C13 C 0.5637(2) 0.10689(17) 0.90581(15)
C14 C 0.6660(2) 0.05941(19) 0.92206(16)
H17 H 0.6991 0.0412 0.8798
C15 C 0.7194(3) 0.0388(2) 1.00022(18)
H18 H 0.7890 0.0086 1.0098
C16 C 0.6711(3) 0.0624(2) 1.06433(17)
H19 H 0.7078 0.0488 1.1167
C17 C 0.5686(3) 0.10599(19) 1.04944(16)
H20 H 0.5352 0.1210 1.0924
C18 C 0.5118(2) 0.12903(17) 0.97084(15)
C19 C 0.4013(2) 0.17022(17) 0.96152(16)
H21 H 0.3769 0.1846 1.0085
C20 C 0.2196(2) 0.2273(2) 0.89360(16)
H22 H 0.2201 0.2624 0.9419
H23 H 0.1636 0.1793 0.8907
C21 C 0.1905(2) 0.28682(19) 0.82021(16)
H24 H 0.1111 0.3052 0.8114
H25 H 0.2376 0.3407 0.8279
C22 C 0.1962(2) 0.29243(19) 0.67619(16)
H26 H 0.2338 0.2634 0.6376
H27 H 0.2335 0.3501 0.6905
C23 C 0.0729(2) 0.3094(2) 0.63682(18)
H28 H 0.0334 0.3345 0.6761
H29 H 0.0367 0.2525 0.6181
C24 C 0.0626(3) 0.3744(2) 0.5661(2)
H30 H 0.0945 0.4318 0.5850
H31 H -0.0165 0.3819 0.5410
H32 H 0.1031 0.3503 0.5277
N1 N 0.73094(18) 0.18284(16) 0.76060(14)
N2 N 0.59120(19) 0.14533(16) 0.61967(13)
N3 N 0.21104(18) 0.23505(15) 0.74956(13)
N4 N 0.33299(18) 0.18913(14) 0.89523(12)
O1 O 0.40616(14) 0.13258(12) 0.69142(10)
O2 O 0.51599(14) 0.13074(12) 0.83032(10)
O3 O 0.59137(19) 0.43261(16) 0.74968(15)
O4 O 0.5410(3) 0.3800(2) 0.86471(14)
O5 O 0.4619(2) 0.31597(15) 0.74130(16)
O6 O 0.40818(18) 0.46213(14) 0.77229(15)
Cu1 Cu 0.56954(3) 0.13884(2) 0.728883(18)
Cu2 Cu 0.36160(3) 0.17369(2) 0.788885(17)
Cl1 Cl 0.49997(6) 0.39793(4) 0.78183(4)
H33 H 0.773(2) 0.1377(14) 0.7711(15)
H34 H 0.163(2) 0.1947(15) 0.7394(16)
O6A O 0.59182(18) -0.03787(14) 0.72771(15)
Cu1A Cu 0.43046(3) 0.63884(2) 0.771117(18)
O7 O 0.0001(4) 0.1159(3) 0.7127(5)
O8 O 0.0736(5) 0.0315(5) 0.8232(4)
O9 O 0.0192(6) -0.0412(4) 0.7008(5)
O10 O -0.1192(4) 0.0139(4) 0.7575(4)
Cl2 Cl -0.00348(6) 0.03016(5) 0.74911(5)
O11? O -0.0183(16) 0.0784(18) 0.6736(11)
O12? O 0.0880(13) 0.0735(16) 0.8003(12)
O13? O 0.0506(17) -0.0535(9) 0.7416(14)
O14? O -0.0932(14) 0.0279(14) 0.7866(12)
loop_
_geom_bond_atom_site_label_1
_geom_bond_atom_site_label_2
_geom_bond_site_symmetry_1
_geom_bond_site_symmetry_2
C1 C2 1_555 1_555
C2 H1 1_555 1_555
C3 C2 1_555 1_555
H2 C3 1_555 1_555
C4 C3 1_555 1_555
H3 C4 1_555 1_555
C5 C4 1_555 1_555
H4 C5 1_555 1_555
C6 C1 1_555 1_555
C7 C6 1_555 1_555
H5 C7 1_555 1_555
C8 H6 1_555 1_555
H7 C8 1_555 1_555
C9 C8 1_555 1_555
H8 C9 1_555 1_555
H9 C9 1_555 1_555
C10 H10 1_555 1_555
H11 C10 1_555 1_555
C11 C10 1_555 1_555
H12 C11 1_555 1_555
H13 C11 1_555 1_555
C12 C11 1_555 1_555
H14 C12 1_555 1_555
H15 C12 1_555 1_555
H16 C12 1_555 1_555
C13 C14 1_555 1_555
C14 H17 1_555 1_555
C15 C14 1_555 1_555
H18 C15 1_555 1_555
C16 C15 1_555 1_555
H19 C16 1_555 1_555
C17 C16 1_555 1_555
H20 C17 1_555 1_555
C18 C13 1_555 1_555
C19 C18 1_555 1_555
H21 C19 1_555 1_555
C20 H22 1_555 1_555
H23 C20 1_555 1_555
C21 C20 1_555 1_555
H24 C21 1_555 1_555
H25 C21 1_555 1_555
C22 H26 1_555 1_555
H27 C22 1_555 1_555
C23 C22 1_555 1_555
H28 C23 1_555 1_555
H29 C23 1_555 1_555
C24 C23 1_555 1_555
H30 C24 1_555 1_555
H31 C24 1_555 1_555
H32 C24 1_555 1_555
N1 C9 1_555 1_555
N2 C7 1_555 1_555
N3 C21 1_555 1_555
N4 C19 1_555 1_555
O1 C1 1_555 1_555
O2 C13 1_555 1_555
O3 Cl1 1_555 1_555
O4 Cl1 1_555 1_555
O5 Cu2 1_555 1_555
O6 Cl1 1_555 1_555
Cu1 N1 1_555 1_555
Cu2 N3 1_555 1_555
Cl1 O5 1_555 1_555
H33 N1 1_555 1_555
H34 N3 1_555 1_555
O7 Cl2 1_555 1_555
O8 Cl2 1_555 1_555
O9 Cl2 1_555 1_555
O10 Cl2 1_555 1_555
O6A Cu1 1_555 1_555
Cu1A O6 1_555 1_555
C5 C6 1_555 1_555
C8 N2 1_555 1_555
C10 N1 1_555 1_555
C17 C18 1_555 1_555
C20 N4 1_555 1_555
C22 N3 1_555 1_555
N2 Cu1 1_555 1_555
N4 Cu2 1_555 1_555
O1 Cu1 1_555 1_555
O1 Cu2 1_555 1_555
O2 Cu1 1_555 1_555
O2 Cu2 1_555 1_555

#END
