
#######################################################################
#
#                 Cambridge Crystallographic Data Centre
#                                CCDC 
#
#######################################################################
#
# If this CIF has been generated from an entry in the Cambridge 
# Structural Database, then it will include bibliographic, chemical, 
# crystal, experimental, refinement or atomic coordinate data resulting 
# from the CCDC's data processing and validation procedures.
#
#######################################################################

data_WOBKOO
_symmetry_cell_setting           monoclinic
_symmetry_space_group_name_H-M   'P 21/c'
_symmetry_Int_Tables_number      14
_space_group_name_Hall           '-P 2ybc'
loop_
_symmetry_equiv_pos_site_id
_symmetry_equiv_pos_as_xyz
1 x,y,z
2 -x,1/2+y,1/2-z
3 -x,-y,-z
4 x,1/2-y,1/2+z
_cell_length_a                   14.645(6)
_cell_length_b                   17.114(7)
_cell_length_c                   14.141(6)
_cell_angle_alpha                90
_cell_angle_beta                 117.206(6)
_cell_angle_gamma                90
_cell_volume                     3152.12
loop_
_atom_site_label
_atom_site_type_symbol
_atom_site_fract_x
_atom_site_fract_y
_atom_site_fract_z
La1 La 0.3654(1) -0.5651(1) 0.9798(1)
O1 O 0.4084(4) -0.6005(3) 1.1689(3)
O2 O 0.2483(4) -0.6382(3) 1.0781(4)
O3 O 0.4047(3) -0.5412(2) 1.3895(3)
O4 O 0.7176(4) -0.6493(3) 1.5947(4)
O5 O 0.4653(3) -0.3602(2) 0.9264(3)
O6 O 0.3296(3) -0.4392(2) 0.8757(3)
O7 O 0.2607(3) -0.4255(2) 0.6191(4)
O8 O -0.0722(3) -0.4370(3) 0.5471(4)
O9 O 0.3700(3) -0.6043(2) 0.8052(3)
O10 O 0.5021(3) -0.5293(2) 0.8996(3)
O11 O 0.5645(3) -0.6654(2) 0.7286(4)
O12 O 0.3200(3) -0.7878(2) 0.4400(3)
N1 N 0.4337(4) -0.6649(3) 1.3528(4)
N2 N 0.5611(4) -0.5966(3) 1.4886(4)
N3 N 0.2077(4) -0.3456(3) 0.7121(4)
N4 N 0.0943(4) -0.4300(3) 0.5861(4)
N5 N 0.4123(4) -0.6022(2) 0.6346(4)
N6 N 0.4388(4) -0.7240(2) 0.5816(4)
N7 N 0.1644(4) -0.5747(3) 0.8368(4)
N8 N 0.2271(4) -0.4718(3) 1.0012(4)
C1 C 0.3285(6) -0.6324(3) 1.1604(6)
C2 C 0.3329(5) -0.6684(4) 1.2616(5)
C3 C 0.4629(5) -0.5966(4) 1.4076(5)
C4 C 0.6351(6) -0.6561(4) 1.5175(6)
C5 C 0.5976(6) -0.7232(4) 1.4479(6)
C6 C 0.5023(6) -0.7251(4) 1.3722(6)
C7 C 0.3741(4) -0.3786(3) 0.8680(4)
C8 C 0.3141(4) -0.3230 0.7801
C9 C 0.1935(5) -0.4022(4) 0.6390(5)
C10 C 0.0113(5) -0.4067(4) 0.5994(5)
C11 C 0.0345(5) -0.3487(4) 0.6809(6)
C12 C 0.1301(5) -0.3216(4) 0.7313(5)
C13 C 0.4419(4) -0.5608(3) 0.8140(5)
C14 C 0.4494(5) -0.5389(3) 0.7137(4)
C15 C 0.4793(5) -0.6642(3) 0.6542(5)
C16 C 0.3432(5) -0.7290(3) 0.4980(5)
C17 C 0.2781(4) -0.6630(3) 0.4840(5)
C18 C 0.3159(5) -0.6033(3) 0.5544(5)
C19 C 0.1326(5) -0.6255(4) 0.7583(6)
C20 C 0.0316(5) -0.6363(4) 0.6885(6)
C21 C -0.0426(5) -0.5929(4) 0.6967(6)
C22 C -0.0125(5) -0.5370(4) 0.7770(6)
C23 C -0.0833(5) -0.4873(5) 0.7921(6)
C24 C -0.0506(6) -0.4348(4) 0.8711(8)
C25 C 0.0547(5) -0.4260(4) 0.9424(6)
C26 C 0.0904(6) -0.3732(4) 1.0286(6)
C27 C 0.1906(6) -0.3702(4) 1.0967(7)
C28 C 0.2587(5) -0.4208(4) 1.0824(6)
C29 C 0.1257(5) -0.4738(3) 0.9336(5)
C30 C 0.0932(5) -0.5300(3) 0.8482(5)
La1B La 0.6346(1) -0.4349(1) 1.0202(1)
La1C La 0.3654(1) -0.9349(1) 0.4798(1)
O5B O 0.5347(3) -0.6398(2) 1.0736(3)
O10B O 0.4979(3) -0.4707(2) 1.1004(3)
O12C O 0.3200(3) -0.7122(2) 0.9400(3)
O13 O 0.1133(6) 0.2442(5) 0.0554(7)
loop_
_geom_bond_atom_site_label_1
_geom_bond_atom_site_label_2
_geom_bond_site_symmetry_1
_geom_bond_site_symmetry_2
La1 O1 1_555 1_555
O1 C1 1_555 1_555
O2 La1 1_555 1_555
O3 C3 1_555 1_555
O4 C4 1_555 1_555
O5 C7 1_555 1_555
O6 La1 1_555 1_555
O7 C9 1_555 1_555
O8 C10 1_555 1_555
O9 La1 1_555 1_555
O10 La1 1_555 1_555
O11 C15 1_555 1_555
O12 C16 1_555 1_555
N1 C2 1_555 1_555
N2 C3 1_555 1_555
N3 C8 1_555 1_555
N4 C9 1_555 1_555
N5 C14 1_555 1_555
N6 C15 1_555 1_555
N7 La1 1_555 1_555
N8 La1 1_555 1_555
C1 O2 1_555 1_555
C2 C1 1_555 1_555
C3 N1 1_555 1_555
C4 N2 1_555 1_555
C5 C4 1_555 1_555
C6 N1 1_555 1_555
C7 O6 1_555 1_555
C8 C7 1_555 1_555
C9 N3 1_555 1_555
C10 N4 1_555 1_555
C11 C10 1_555 1_555
C12 N3 1_555 1_555
C13 O9 1_555 1_555
C14 C13 1_555 1_555
C15 N5 1_555 1_555
C16 N6 1_555 1_555
C17 C16 1_555 1_555
C18 N5 1_555 1_555
C19 N7 1_555 1_555
C20 C19 1_555 1_555
C21 C20 1_555 1_555
C22 C21 1_555 1_555
C23 C22 1_555 1_555
C24 C23 1_555 1_555
C25 C24 1_555 1_555
C26 C25 1_555 1_555
C27 C26 1_555 1_555
C28 N8 1_555 1_555
C29 N8 1_555 1_555
C30 N7 1_555 1_555
La1B O5 1_555 1_555
La1C O12 1_555 1_555
O5B La1 1_555 1_555
O10B La1 1_555 1_555
O12C La1 1_555 1_555
O10 C13 1_555 1_555
O10 La1B 1_555 1_555
C5 C6 1_555 1_555
C11 C12 1_555 1_555
C17 C18 1_555 1_555
C22 C30 1_555 1_555
C25 C29 1_555 1_555
C27 C28 1_555 1_555
C29 C30 1_555 1_555
La1B O10B 1_555 1_555

#END
