
#######################################################################
#
#                 Cambridge Crystallographic Data Centre
#                                CCDC 
#
#######################################################################
#
# If this CIF has been generated from an entry in the Cambridge 
# Structural Database, then it will include bibliographic, chemical, 
# crystal, experimental, refinement or atomic coordinate data resulting 
# from the CCDC's data processing and validation procedures.
#
#######################################################################

data_WOBLUV
_symmetry_cell_setting           orthorhombic
_symmetry_space_group_name_H-M   'P 21 21 21'
_symmetry_Int_Tables_number      19
_space_group_name_Hall           'P 2ac 2ab'
loop_
_symmetry_equiv_pos_site_id
_symmetry_equiv_pos_as_xyz
1 x,y,z
2 1/2-x,-y,1/2+z
3 1/2+x,1/2-y,-z
4 -x,1/2+y,1/2-z
_cell_length_a                   8.9611(10)
_cell_length_b                   9.9772(12)
_cell_length_c                   26.791(3)
_cell_angle_alpha                90
_cell_angle_beta                 90
_cell_angle_gamma                90
_cell_volume                     2395.29
loop_
_atom_site_label
_atom_site_type_symbol
_atom_site_fract_x
_atom_site_fract_y
_atom_site_fract_z
Zn1 Zn 0.38078(9) -0.16609(9) 0.51059(3)
Zn2 Zn 0.88562(9) 0.15392(8) 0.45680(3)
P1 P 0.6926(2) -0.0751(2) 0.49868(7)
P2 P 0.2177(2) 0.1024(2) 0.49513(7)
Cl1 Cl 0.91995(18) 0.0912(2) 0.37960(6)
C1 C 0.6439(8) -0.1100(7) 0.5638(2)
H1 H 0.6719 -0.2013 0.5721
H2 H 0.6989 -0.0500 0.5856
C2 C 0.2784(7) 0.1691(9) 0.4363(2)
H3 H 0.2263 0.1247 0.4092
H4 H 0.2566 0.2642 0.4347
C3 C 0.4382(6) -0.1514(7) 0.6226(2)
H5 H 0.4712 -0.2448 0.6250
C4 C 0.2690(7) -0.1451(8) 0.6242(3)
H6 H 0.2342 -0.1806 0.6554
H7 H 0.2286 -0.1970 0.5973
H8 H 0.2372 -0.0536 0.6210
C5 C 0.5082(9) -0.0690(8) 0.6648(3)
C6 C 0.6002(9) -0.1361(9) 0.6998(2)
H9 H 0.6204 -0.2272 0.6967
C7 C 0.6596(8) -0.0611(8) 0.7390(3)
H10 H 0.7196 -0.1029 0.7627
C8 C 0.6302(8) 0.0762(8) 0.7431(3)
H11 H 0.6706 0.1250 0.7694
C9 C 0.5401(8) 0.1401(7) 0.7078(2)
H12 H 0.5202 0.2314 0.7104
C10 C 0.4814(8) 0.0668(8) 0.6691(3)
H13 H 0.4224 0.1094 0.6454
C11 C 0.5124(8) 0.1808(8) 0.3805(2)
H14 H 0.6207 0.1678 0.3822
C12 C 0.4862(7) 0.3307(7) 0.3709(2)
H15 H 0.5261 0.3546 0.3389
H16 H 0.5350 0.3823 0.3964
H17 H 0.3810 0.3491 0.3715
C13 C 0.4561(7) 0.0891(7) 0.3406(3)
C14 C 0.5192(10) -0.0369(9) 0.3378(3)
H18 H 0.5948 -0.0604 0.3599
C15 C 0.4720(8) -0.1275(9) 0.3030(3)
H19 H 0.5148 -0.2123 0.3017
C16 C 0.3604(8) -0.0929(8) 0.2698(2)
H20 H 0.3280 -0.1546 0.2461
C17 C 0.2968(9) 0.0337(8) 0.2717(3)
H21 H 0.2223 0.0576 0.2492
C18 C 0.3455(8) 0.1244(9) 0.3075(2)
H22 H 0.3031 0.2093 0.3092
N1 N 0.4847(6) -0.0923(7) 0.5719(2)
H23 H 0.4677 -0.0034 0.5729
N2 N 0.4509(6) 0.1454(6) 0.43138(19)
H24 H 0.4704 0.0586 0.4379
H25 H 0.4965 0.1951 0.4549
O1 O 0.5596(5) -0.1159(4) 0.46928(17)
O2 O 0.7214(5) 0.0754(5) 0.4932(2)
O3 O 0.8365(5) -0.1505(5) 0.48538(16)
O4 O 0.3181(5) 0.1567(5) 0.53563(17)
O5 O 0.2197(5) -0.0490(4) 0.49134(16)
O6 O 0.0603(5) 0.1549(5) 0.50085(15)
Zn1B Zn 0.88078(9) -0.33391(9) 0.48941(3)
Zn2B Zn 0.38562(9) 0.34608(8) 0.54320(3)
Zn2_2 Zn -0.11438(9) 0.15392(8) 0.45680(3)
O3B O 0.3365(5) -0.3495(5) 0.51462(16)
O4B O 0.8181(5) 0.3433(5) 0.46437(17)
O6_2 O 1.0603(5) 0.1549(5) 0.50085(15)
loop_
_geom_bond_atom_site_label_1
_geom_bond_atom_site_label_2
_geom_bond_site_symmetry_1
_geom_bond_site_symmetry_2
Zn1 N1 1_555 1_555
Zn2 Cl1 1_555 1_555
P1 C1 1_555 1_555
P2 C2 1_555 1_555
C1 H1 1_555 1_555
H2 C1 1_555 1_555
C2 H3 1_555 1_555
H4 C2 1_555 1_555
C3 H5 1_555 1_555
C4 C3 1_555 1_555
H6 C4 1_555 1_555
H7 C4 1_555 1_555
H8 C4 1_555 1_555
C5 C3 1_555 1_555
C6 C5 1_555 1_555
H9 C6 1_555 1_555
C7 C6 1_555 1_555
H10 C7 1_555 1_555
C8 C7 1_555 1_555
H11 C8 1_555 1_555
C9 C8 1_555 1_555
H12 C9 1_555 1_555
C10 C5 1_555 1_555
H13 C10 1_555 1_555
C11 H14 1_555 1_555
C12 C11 1_555 1_555
H15 C12 1_555 1_555
H16 C12 1_555 1_555
H17 C12 1_555 1_555
C13 C11 1_555 1_555
C14 C13 1_555 1_555
H18 C14 1_555 1_555
C15 C14 1_555 1_555
H19 C15 1_555 1_555
C16 C15 1_555 1_555
H20 C16 1_555 1_555
C17 C16 1_555 1_555
H21 C17 1_555 1_555
C18 C13 1_555 1_555
H22 C18 1_555 1_555
N1 C1 1_555 1_555
H23 N1 1_555 1_555
N2 C2 1_555 1_555
H24 N2 1_555 1_555
H25 N2 1_555 1_555
O1 Zn1 1_555 1_555
O2 Zn2 1_555 1_555
O3 P1 1_555 1_555
O4 P2 1_555 1_555
O5 Zn1 1_555 1_555
O6 P2 1_555 1_555
Zn1B O3 1_555 1_555
Zn2B O4 1_555 1_555
Zn2_2 O6 1_555 1_555
O3B Zn1 1_555 1_555
O4B Zn2 1_555 1_555
O6_2 Zn2 1_555 1_555
P1 O1 1_555 1_555
P1 O2 1_555 1_555
P2 O5 1_555 1_555
C3 N1 1_555 1_555
C9 C10 1_555 1_555
C11 N2 1_555 1_555
C17 C18 1_555 1_555

#END
