
#######################################################################
#
#                 Cambridge Crystallographic Data Centre
#                                CCDC 
#
#######################################################################
#
# If this CIF has been generated from an entry in the Cambridge 
# Structural Database, then it will include bibliographic, chemical, 
# crystal, experimental, refinement or atomic coordinate data resulting 
# from the CCDC's data processing and validation procedures.
#
#######################################################################

data_WOBNUX
_symmetry_cell_setting           triclinic
_symmetry_space_group_name_H-M   'P -1'
_symmetry_Int_Tables_number      2
_space_group_name_Hall           '-P 1'
loop_
_symmetry_equiv_pos_site_id
_symmetry_equiv_pos_as_xyz
1 x,y,z
2 -x,-y,-z
_cell_length_a                   5.6402(10)
_cell_length_b                   10.7111(15)
_cell_length_c                   10.7372(15)
_cell_angle_alpha                117.697(10)
_cell_angle_beta                 90.948(13)
_cell_angle_gamma                94.510(14)
_cell_volume                     571.523
loop_
_atom_site_label
_atom_site_type_symbol
_atom_site_fract_x
_atom_site_fract_y
_atom_site_fract_z
Ag1 Ag 0.78341(7) 1.18880(4) 1.03689(4)
C1 C 0.3530(9) 1.9616(5) 1.7012(5)
C2 C 0.5498(10) 1.8883(6) 1.6949(5)
H1 H 0.6301 1.9033 1.7778
C3 C 0.6258(9) 1.7937(6) 1.5664(5)
H2 H 0.7577 1.7457 1.5633
C4 C 0.5071(10) 1.7693(5) 1.4411(5)
C5 C 0.3066(10) 1.8410(6) 1.4475(5)
H3 H 0.2236 1.8245 1.3648
C6 C 0.2316(9) 1.9369(6) 1.5773(5)
H4 H 0.0992 1.9848 1.5810
C7 C 0.7407(10) 1.5762(5) 1.2828(5)
C8 C 0.7122(11) 1.4865(6) 1.3440(6)
H5 H 0.5880 1.4944 1.4023
C9 C 0.8729(12) 1.3841(6) 1.3167(7)
H6 H 0.8587 1.3269 1.3605
C10 C 1.0503(11) 1.3679(6) 1.2262(6)
H7 H 1.1559 1.2999 1.2086
C11 C 1.0714(12) 1.4532(7) 1.1613(6)
H8 H 1.1890 1.4410 1.0980
C12 C 0.9184(11) 1.5566(6) 1.1901(5)
H9 H 0.9352 1.6138 1.1464
N1 N 0.5878(10) 1.6809(5) 1.3098(5)
H10 H 0.576(13) 1.711(8) 1.250(6)
O1 O 0.4538(7) 2.2108(4) 1.9107(4)
O2 O 0.2620(9) 2.0324(5) 1.9610(4)
O3 O 0.0406(7) 2.1317(4) 1.8390(4)
S1 S 0.2700(2) 2.09240(13) 1.86409(12)
Ag1_2 Ag 0.78341(7) 2.18880(4) 2.03689(4)
Ag1A Ag 0.21659(7) 1.81120(4) 1.96311(4)
Ag1_3 Ag -0.21659(7) 2.18880(4) 2.03689(4)
O1_2 O 0.4538(7) 1.2108(4) 0.9107(4)
O2A O 0.7380(9) 0.9676(5) 1.0390(4)
O3_2 O 1.0406(7) 1.1317(4) 0.8390(4)
loop_
_geom_bond_atom_site_label_1
_geom_bond_atom_site_label_2
_geom_bond_site_symmetry_1
_geom_bond_site_symmetry_2
Ag1 C10 1_555 1_555
C1 C2 1_555 1_555
C2 H1 1_555 1_555
C3 C2 1_555 1_555
H2 C3 1_555 1_555
C4 C3 1_555 1_555
C5 C4 1_555 1_555
H3 C5 1_555 1_555
C6 C1 1_555 1_555
H4 C6 1_555 1_555
C7 C8 1_555 1_555
C8 H5 1_555 1_555
C9 C8 1_555 1_555
H6 C9 1_555 1_555
C10 C9 1_555 1_555
H7 C10 1_555 1_555
C11 C10 1_555 1_555
H8 C11 1_555 1_555
C12 C7 1_555 1_555
H9 C12 1_555 1_555
N1 C4 1_555 1_555
H10 N1 1_555 1_555
O1 S1 1_555 1_555
O2 S1 1_555 1_555
O3 S1 1_555 1_555
S1 C1 1_555 1_555
Ag1_2 O1 1_555 1_555
Ag1A O2 1_555 1_555
Ag1_3 O3 1_555 1_555
O1_2 Ag1 1_555 1_555
O2A Ag1 1_555 1_555
O3_2 Ag1 1_555 1_555
C5 C6 1_555 1_555
C7 N1 1_555 1_555
C11 C12 1_555 1_555

#END
