
#######################################################################
#
#                 Cambridge Crystallographic Data Centre
#                                CCDC 
#
#######################################################################
#
# If this CIF has been generated from an entry in the Cambridge 
# Structural Database, then it will include bibliographic, chemical, 
# crystal, experimental, refinement or atomic coordinate data resulting 
# from the CCDC's data processing and validation procedures.
#
#######################################################################

data_WOBQAH
_symmetry_cell_setting           monoclinic
_symmetry_space_group_name_H-M   'C c'
_symmetry_Int_Tables_number      9
_space_group_name_Hall           'C -2yc'
loop_
_symmetry_equiv_pos_site_id
_symmetry_equiv_pos_as_xyz
1 x,y,z
2 x,-y,1/2+z
3 1/2+x,1/2+y,z
4 1/2+x,1/2-y,1/2+z
_cell_length_a                   7.3437(19)
_cell_length_b                   24.282(6)
_cell_length_c                   5.3533(14)
_cell_angle_alpha                90
_cell_angle_beta                 93.061(4)
_cell_angle_gamma                90
_cell_volume                     953.237
loop_
_atom_site_label
_atom_site_type_symbol
_atom_site_fract_x
_atom_site_fract_y
_atom_site_fract_z
Co1 Co 0.82861(10) 0.03647(4) 0.36113(13)
Co2 Co 0.23946(12) -0.00702(3) 0.97530(15)
P1 P 0.5813(2) 0.06755(7) 0.8156(3)
C1 C 0.3457(9) 0.1547(3) 0.8770(13)
C2 C 0.3592(10) 0.1904(3) 0.6759(13)
H1 H 0.4733 0.1964 0.6135
C3 C 0.2131(10) 0.2167(3) 0.5670(14)
H2 H 0.2287 0.2399 0.4317
C4 C 0.0407(9) 0.2094(3) 0.6546(14)
H3 H -0.0598 0.2281 0.5838
C5 C 0.0241(10) 0.1734(3) 0.8506(14)
H4 H -0.0910 0.1674 0.9097
C6 C 0.1720(9) 0.1456(3) 0.9641(13)
C7 C 0.1306(9) 0.1044(3) 1.1614(11)
C8 C 0.5161(8) 0.1280(3) 0.9796(12)
H5 H 0.5004 0.1183 1.1529
H6 H 0.6147 0.1545 0.9771
O1 O 0.6715(5) 0.08308(19) 0.5784(8)
O2 O 0.7087(6) 0.03369(17) 0.9942(8)
O3 O 0.4055(6) 0.03498(19) 0.7563(8)
O4 O 0.2510(6) 0.06852(17) 1.2179(8)
O5 O -0.0262(6) 0.10413(19) 1.2446(9)
O6 O 0.0214(6) -0.0218(2) 1.1966(8)
H7 H 0.0076 -0.0565 1.2067
Co1_2 Co -0.17139(10) 0.03647(4) 1.36113(13)
Co1_3 Co 0.82861(10) 0.03647(4) 1.36113(13)
Co1A Co -0.17139(10) -0.03647(4) 0.86113(13)
Co1A_2 Co 0.82861(10) -0.03647(4) 0.86113(13)
Co2A Co 0.23946(12) 0.00702(3) 0.47530(15)
Co2A_2 Co 0.23946(12) 0.00702(3) 1.47530(15)
O2_2 O 0.7087(6) 0.03369(17) -0.0058(8)
O2A O 0.7087(6) -0.03369(17) 0.4942(8)
O3A O 0.4055(6) -0.03498(19) 1.2563(8)
O4A O 0.2510(6) -0.06852(17) 0.7179(8)
O5_2 O 0.9738(6) 0.10413(19) 0.2446(9)
O6_2 O 1.0214(6) -0.0218(2) 0.1966(8)
O6A O 0.0214(6) 0.0218(2) 0.6966(8)
O6A_2 O 1.0214(6) 0.0218(2) 0.6966(8)
loop_
_geom_bond_atom_site_label_1
_geom_bond_atom_site_label_2
_geom_bond_site_symmetry_1
_geom_bond_site_symmetry_2
Co1 O1 1_555 1_555
Co2 O3 1_555 1_555
P1 C8 1_555 1_555
C1 C2 1_555 1_555
C2 H1 1_555 1_555
C3 C2 1_555 1_555
H2 C3 1_555 1_555
C4 C3 1_555 1_555
H3 C4 1_555 1_555
C5 C4 1_555 1_555
H4 C5 1_555 1_555
C6 C1 1_555 1_555
C7 C6 1_555 1_555
C8 C1 1_555 1_555
H5 C8 1_555 1_555
H6 C8 1_555 1_555
O1 P1 1_555 1_555
O2 P1 1_555 1_555
O3 P1 1_555 1_555
O4 Co2 1_555 1_555
O5 C7 1_555 1_555
O6 Co2 1_555 1_555
H7 O6 1_555 1_555
Co1_2 O5 1_555 1_555
Co1_3 O2 1_555 1_555
Co1A O6 1_555 1_555
Co1A_2 O2 1_555 1_555
Co2A Co2 1_555 1_555
Co2A_2 Co2 1_555 1_555
O2_2 Co1 1_555 1_555
O2A Co1 1_555 1_555
O3A Co2 1_555 1_555
O4A Co2 1_555 1_555
O5_2 Co1 1_555 1_555
O6_2 Co1 1_555 1_555
O6A Co2 1_555 1_555
O6A_2 Co1 1_555 1_555
C5 C6 1_555 1_555
C7 O4 1_555 1_555
O3 Co2A 1_555 1_555
O4 Co2A_2 1_555 1_555
O6 Co1_2 1_555 1_555
O6 Co2A_2 1_555 1_555
Co1A O6A 1_555 1_555
Co1A_2 O2A 1_555 1_555
Co1A_2 O6A_2 1_555 1_555
Co2A O4A 1_555 1_555
Co2A O6A 1_555 1_555
Co2A_2 O3A 1_555 1_555

#END
