
#######################################################################
#
#                 Cambridge Crystallographic Data Centre
#                                CCDC 
#
#######################################################################
#
# If this CIF has been generated from an entry in the Cambridge 
# Structural Database, then it will include bibliographic, chemical, 
# crystal, experimental, refinement or atomic coordinate data resulting 
# from the CCDC's data processing and validation procedures.
#
#######################################################################

data_WOBQEL
_symmetry_cell_setting           monoclinic
_symmetry_space_group_name_H-M   'P 21/c'
_symmetry_Int_Tables_number      14
_space_group_name_Hall           '-P 2ybc'
loop_
_symmetry_equiv_pos_site_id
_symmetry_equiv_pos_as_xyz
1 x,y,z
2 -x,1/2+y,1/2-z
3 -x,-y,-z
4 x,1/2-y,1/2+z
_cell_length_a                   6.9970(2)
_cell_length_b                   25.4831(9)
_cell_length_c                   28.2642(8)
_cell_angle_alpha                90
_cell_angle_beta                 92.712(2)
_cell_angle_gamma                90
_cell_volume                     5034.01
loop_
_atom_site_label
_atom_site_type_symbol
_atom_site_fract_x
_atom_site_fract_y
_atom_site_fract_z
Mn1 Mn -0.79940(13) 0.93068(4) 1.24834(3)
Mn2 Mn 0.65369(13) 0.53332(4) 0.73533(3)
O1 O 0.8781(6) 0.58410(18) 0.76825(14)
O2 O -0.5323(6) 0.89828(16) 1.22233(14)
O3 O 0.5392(7) 0.47257(19) 1.20630(16)
O4 O 1.1243(7) 0.6215(2) 0.80406(16)
O5 O -0.7917(7) 0.8644(2) 1.18867(17)
O6 O 0.7958(7) 0.5408(2) 0.66989(17)
H1 H 0.7345 0.5236 0.6484
H2 H 0.7989 0.5730 0.6622
O7 O -0.1667(6) 1.01499(19) 0.80837(16)
C1 C -0.0093(9) 0.7593(2) 1.0416(2)
C2 C 0.0626(9) 0.7862(2) 0.9587(2)
O8 O -0.4573(7) 0.9795(2) 0.8014(2)
C3 C 0.3554(9) 0.7126(2) 0.9582(2)
O9 O 0.8284(8) 0.5026(2) 1.20308(19)
C4 C 0.2841(9) 0.6868(3) 1.0422(2)
C5 C 0.0963(10) 0.7536(3) 1.0005(3)
C6 C -0.6158(10) 0.8682(3) 1.1908(2)
C7 C 0.2460(11) 0.7176(3) 0.9990(3)
C8 C -0.2861(11) 0.9796(3) 0.8166(2)
C9 C 0.5080(11) 0.6749(3) 0.9610(3)
C10 C 0.9487(10) 0.6121(3) 0.8012(2)
C11 C 0.8312(10) 0.6328(4) 0.8396(3)
C12 C 0.0200(13) 0.7272(3) 1.0823(3)
H3 H -0.0598 0.7297 1.1076
C13 C 0.3276(13) 0.7437(3) 0.9164(3)
H4 H 0.4036 0.7399 0.8905
C14 C 0.4430(11) 0.6508(3) 1.0382(3)
C15 C 0.1825(11) 0.6894(3) 1.0832(3)
H5 H 0.2140 0.6688 1.1096
O10 O 0.8276(7) 0.4675(2) 0.7569(2)
H6 H 0.7711 0.4394 0.7481
H7 H 0.8444 0.4676 0.7869
C16 C -0.1955(12) 0.8248(3) 1.1243(3)
H8 H -0.0626 0.8257 1.1275
C17 C -0.1384(12) 0.8609(3) 0.9204(3)
C18 C 0.6220(11) 0.6635(3) 0.9175(3)
C19 C 0.5913(13) 0.5428(3) 1.1536(3)
C20 C -0.0897(11) 0.8222(3) 0.9617(3)
C21 C 0.4947(13) 0.6134(3) 1.0808(3)
C22 C -0.0471(13) 0.9311(3) 0.8677(3)
H9 H 0.0482 0.9524 0.8563
C23 C 0.1663(12) 0.7831(4) 0.9171(3)
H10 H 0.1365 0.8045 0.8911
C24 C -0.2272(12) 0.9373(3) 0.8512(3)
C25 C -0.3026(11) 0.8395(4) 1.1634(4)
H11 H -0.2425 0.8476 1.1925
C26 C -0.2811(11) 0.8092(3) 1.0818(2)
C27 C 0.5515(13) 0.6467(3) 1.0003(3)
H12 H 0.6566 0.6243 1.0012
C28 C -0.4958(11) 0.8413(4) 1.1570(3)
C29 C 0.6538(11) 0.5048(3) 1.1904(2)
C30 C -0.2021(12) 0.8262(3) 0.9992(3)
H13 H -0.3065 0.8488 0.9979
C31 C 0.5317(13) 0.6476(3) 0.8728(3)
H14 H 0.3989 0.6475 0.8693
C32 C 0.6369(11) 0.6329(3) 0.8357(3)
H15 H 0.5750 0.6228 0.8073
C33 C 0.9224(13) 0.6482(4) 0.8823(3)
H16 H 1.0554 0.6482 0.8851
C34 C -0.3683(15) 0.9047(4) 0.8696(4)
H17 H -0.4944 0.9083 0.8582
C35 C -0.5801(14) 0.8219(4) 1.1143(3)
H18 H -0.7126 0.8185 1.1119
C36 C -0.1618(11) 0.7967(3) 1.0393(3)
C37 C 0.6782(13) 0.6112(4) 1.0987(3)
H19 H 0.7684 0.6342 1.0873
C38 C 0.0010(13) 0.8930(4) 0.9017(3)
H20 H 0.1282 0.8890 0.9121
C39 C 0.3569(15) 0.5799(4) 1.0997(3)
H21 H 0.2307 0.5817 1.0879
C40 C -0.4808(12) 0.8081(4) 1.0770(3)
H22 H -0.5429 0.7979 1.0487
C41 C 0.8201(12) 0.6635(4) 0.9203(3)
H23 H 0.8848 0.6739 0.9482
C42 C 0.4065(13) 0.5440(3) 1.1360(3)
H24 H 0.3153 0.5216 1.1477
C43 C -0.3267(13) 0.8686(4) 0.9031(3)
H25 H -0.4245 0.8485 0.9150
C44 C 0.7332(15) 0.5757(4) 1.1334(4)
H26 H 0.8611 0.5730 1.1437
Mn1A Mn 0.79940(13) 0.43068(4) 1.25166(3)
Mn1B Mn -0.20060(13) 1.06932(4) 0.75166(3)
Mn1C Mn 1.20060(13) 0.56932(4) 0.74834(3)
Mn2A Mn -0.65369(13) 1.03332(4) 0.76467(3)
Mn2B Mn 0.34631(13) 0.46668(4) 1.26467(3)
Mn2C Mn -0.34631(13) 0.96668(4) 1.23533(3)
O1C O -1.1219(6) 0.91590(18) 1.26825(14)
O2C O 0.4677(6) 0.60172(16) 0.72233(14)
O3A O -0.5392(7) 0.97257(19) 1.29370(16)
O3B O 0.4608(7) 0.52743(19) 0.79370(16)
O4C O -0.8757(7) 0.8785(2) 1.30406(16)
O7B O -0.8333(6) 0.98501(19) 1.19163(16)
O8A O 0.4573(7) 0.4795(2) 0.6986(2)
O9A O -0.8284(8) 1.0026(2) 1.29692(19)
O11 O 0.3721(13) 0.4545(5) 0.4196(3)
N1 N 0.6753(17) 0.4423(5) 0.4506(4)
C45 C 0.543(2) 0.4498(5) 0.4174(4)
H27 H 0.5871 0.4520 0.3870
C46 C 0.617(3) 0.4338(9) 0.4987(6)
H28 H 0.5014 0.4530 0.5036
H29 H 0.7160 0.4456 0.5208
H30 H 0.5941 0.3970 0.5035
C47 C 0.878(2) 0.4370(8) 0.4410(7)
H31 H 0.8902 0.4183 0.4118
H32 H 0.9424 0.4181 0.4664
H33 H 0.9339 0.4712 0.4384
O12 O 0.732(4) 0.3621(5) 0.7495(7)
H34 H 0.7644 0.3314 0.7357
H35 H 0.6262 0.3796 0.7371
loop_
_geom_bond_atom_site_label_1
_geom_bond_atom_site_label_2
_geom_bond_site_symmetry_1
_geom_bond_site_symmetry_2
Mn1 O2 1_555 1_555
Mn2 O1 1_555 1_555
O1 C10 1_555 1_555
O2 C6 1_555 1_555
O3 C29 1_555 1_555
O4 C10 1_555 1_555
O5 Mn1 1_555 1_555
O6 Mn2 1_555 1_555
H1 O6 1_555 1_555
H2 O6 1_555 1_555
O7 C8 1_555 1_555
C1 C5 1_555 1_555
C2 C5 1_555 1_555
O8 C8 1_555 1_555
C3 C7 1_555 1_555
O9 C29 1_555 1_555
C4 C7 1_555 1_555
C5 C7 1_555 1_555
C6 O5 1_555 1_555
C8 C24 1_555 1_555
C9 C3 1_555 1_555
C10 C11 1_555 1_555
C11 C32 1_555 1_555
C12 C1 1_555 1_555
H3 C12 1_555 1_555
C13 C3 1_555 1_555
H4 C13 1_555 1_555
C14 C4 1_555 1_555
C15 C4 1_555 1_555
H5 C15 1_555 1_555
O10 Mn2 1_555 1_555
H6 O10 1_555 1_555
H7 O10 1_555 1_555
C16 H8 1_555 1_555
C17 C20 1_555 1_555
C18 C9 1_555 1_555
C19 C29 1_555 1_555
C20 C2 1_555 1_555
C21 C14 1_555 1_555
C22 H9 1_555 1_555
C23 C2 1_555 1_555
H10 C23 1_555 1_555
C24 C22 1_555 1_555
C25 C16 1_555 1_555
H11 C25 1_555 1_555
C26 C16 1_555 1_555
C27 C9 1_555 1_555
H12 C27 1_555 1_555
C28 C6 1_555 1_555
C30 C20 1_555 1_555
H13 C30 1_555 1_555
C31 C18 1_555 1_555
H14 C31 1_555 1_555
C32 C31 1_555 1_555
H15 C32 1_555 1_555
C33 C11 1_555 1_555
H16 C33 1_555 1_555
C34 C24 1_555 1_555
H17 C34 1_555 1_555
C35 C28 1_555 1_555
H18 C35 1_555 1_555
C36 C1 1_555 1_555
C37 C21 1_555 1_555
H19 C37 1_555 1_555
C38 C17 1_555 1_555
H20 C38 1_555 1_555
C39 C21 1_555 1_555
H21 C39 1_555 1_555
C40 C26 1_555 1_555
H22 C40 1_555 1_555
C41 C18 1_555 1_555
H23 C41 1_555 1_555
C42 C19 1_555 1_555
H24 C42 1_555 1_555
C43 C17 1_555 1_555
H25 C43 1_555 1_555
C44 C19 1_555 1_555
H26 C44 1_555 1_555
O11 C45 1_555 1_555
N1 C45 1_555 1_555
C45 H27 1_555 1_555
C46 N1 1_555 1_555
H28 C46 1_555 1_555
H29 C46 1_555 1_555
H30 C46 1_555 1_555
C47 N1 1_555 1_555
H31 C47 1_555 1_555
H32 C47 1_555 1_555
H33 C47 1_555 1_555
O12 H34 1_555 1_555
H35 O12 1_555 1_555
Mn1A O3 1_555 1_555
Mn1B O7 1_555 1_555
Mn1C O1 1_555 1_555
Mn2A O8 1_555 1_555
Mn2B O3 1_555 1_555
Mn2C O2 1_555 1_555
O1C Mn1 1_555 1_555
O2C Mn2 1_555 1_555
O3A Mn1 1_555 1_555
O3B Mn2 1_555 1_555
O4C Mn1 1_555 1_555
O7B Mn1 1_555 1_555
O8A Mn2 1_555 1_555
O9A Mn1 1_555 1_555
O4 Mn1C 1_555 1_555
O9 Mn1A 1_555 1_555
C12 C15 1_555 1_555
C13 C23 1_555 1_555
C14 C27 1_555 1_555
C22 C38 1_555 1_555
C25 C28 1_555 1_555
C26 C36 1_555 1_555
C30 C36 1_555 1_555
C33 C41 1_555 1_555
C34 C43 1_555 1_555
C35 C40 1_555 1_555
C37 C44 1_555 1_555
C39 C42 1_555 1_555
Mn2C O3A 1_555 1_555

#END
