
#######################################################################
#
#                 Cambridge Crystallographic Data Centre
#                                CCDC 
#
#######################################################################
#
# If this CIF has been generated from an entry in the Cambridge 
# Structural Database, then it will include bibliographic, chemical, 
# crystal, experimental, refinement or atomic coordinate data resulting 
# from the CCDC's data processing and validation procedures.
#
#######################################################################

data_WOBVAK
_symmetry_cell_setting           monoclinic
_symmetry_space_group_name_H-M   'P 21/c'
_symmetry_Int_Tables_number      14
_space_group_name_Hall           '-P 2ybc'
loop_
_symmetry_equiv_pos_site_id
_symmetry_equiv_pos_as_xyz
1 x,y,z
2 -x,1/2+y,1/2-z
3 -x,-y,-z
4 x,1/2-y,1/2+z
_cell_length_a                   9.4860(19)
_cell_length_b                   18.974(4)
_cell_length_c                   10.759(2)
_cell_angle_alpha                90
_cell_angle_beta                 92.48(3)
_cell_angle_gamma                90
_cell_volume                     1934.67
loop_
_atom_site_label
_atom_site_type_symbol
_atom_site_fract_x
_atom_site_fract_y
_atom_site_fract_z
Eu1 Eu -0.247220(16) -0.489850(9) -0.543700(14)
O1 O -0.3618(3) -0.59478(14) -0.6343(2)
H1 H -0.4576 -0.6081 -0.6225
H2 H -0.3171 -0.6311 -0.6823
O2 O -0.1164(3) -0.52714(17) -0.7232(2)
H3 H -0.0352 -0.5473 -0.7000
H4 H -0.1584 -0.5506 -0.7827
O3 O -0.1216(3) -0.38761(14) -0.6106(2)
O4 O 0.0845(3) -0.42765(14) -0.5368(2)
O5 O -0.3555(3) -0.38795(13) -0.4184(2)
O6 O -0.1534(3) -0.43389(15) -0.3519(2)
O7 O -0.3953(3) -0.53756(15) -0.3930(2)
O8 O -0.5960(2) -0.55850(16) -0.3029(2)
N1 N -0.2461(4) -0.5758(2) 0.0543(3)
N2 N -0.2588(5) -0.2777(2) 0.0056(4)
N3 N 0.2172(4) -0.20768(19) -0.7625(4)
C1 C -0.1919(6) -0.3388(3) -0.0040(4)
H5 H -0.1449 -0.3578 0.0694
C2 C -0.1869(5) -0.3766(3) -0.1135(4)
H6 H -0.1326 -0.4192 -0.1173
C3 C -0.2602(4) -0.3522(2) -0.2183(3)
C4 C -0.3334(4) -0.2893(2) -0.2092(4)
H7 H -0.3864 -0.2707 -0.2799
C5 C -0.3272(5) -0.2537(2) -0.0968(4)
H8 H -0.3759 -0.2094 -0.0920
C6 C -0.2565(4) -0.39297(19) -0.3375(3)
C7 C 0.2822(5) -0.2477(2) -0.6754(5)
H9 H 0.3780 -0.2362 -0.6511
C8 C 0.2201(4) -0.3035(2) -0.6177(4)
H10 H 0.2733 -0.3316 -0.5580
C9 C 0.0814(4) -0.31954(18) -0.6490(3)
C10 C 0.0110(4) -0.2773(2) -0.7360(3)
H11 H -0.0865 -0.2859 -0.7586
C11 C 0.0832(5) -0.2228(2) -0.7900(4)
H12 H 0.0340 -0.1944 -0.8518
C12 C 0.0083(4) -0.38275(18) -0.5938(3)
C13 C -0.3858(5) -0.5825(3) 0.0415(4)
H13 H -0.4372 -0.5907 0.1151
C14 C -0.4602(4) -0.5788(3) -0.0711(3)
H14 H -0.5608 -0.5851 -0.0759
C15 C -0.3872(4) -0.56599(19) -0.1775(3)
C16 C -0.2415(4) -0.5603(2) -0.1661(4)
H15 H -0.1867 -0.5524 -0.2378
C17 C -0.1769(5) -0.5662(3) -0.0497(4)
H16 H -0.0759 -0.5632 -0.0425
C18 C -0.4650(3) -0.55352(18) -0.3010(3)
Eu1B Eu 0.247220(16) -0.510150(9) -0.456300(14)
Eu1B_2 Eu -0.752780(16) -0.510150(9) -0.456300(14)
O4B O -0.0845(3) -0.57235(14) -0.4632(2)
O8B O -0.4040(2) -0.44150(16) -0.6971(2)
loop_
_geom_bond_atom_site_label_1
_geom_bond_atom_site_label_2
_geom_bond_site_symmetry_1
_geom_bond_site_symmetry_2
Eu1 O1 1_555 1_555
O1 H1 1_555 1_555
H2 O1 1_555 1_555
O2 Eu1 1_555 1_555
H3 O2 1_555 1_555
H4 O2 1_555 1_555
O3 Eu1 1_555 1_555
O4 C12 1_555 1_555
O5 Eu1 1_555 1_555
O6 Eu1 1_555 1_555
O7 Eu1 1_555 1_555
O8 C18 1_555 1_555
N1 C13 1_555 1_555
N2 C1 1_555 1_555
N3 C7 1_555 1_555
C1 H5 1_555 1_555
C2 C1 1_555 1_555
H6 C2 1_555 1_555
C3 C2 1_555 1_555
C4 C3 1_555 1_555
H7 C4 1_555 1_555
C5 N2 1_555 1_555
H8 C5 1_555 1_555
C6 O5 1_555 1_555
C7 H9 1_555 1_555
C8 C7 1_555 1_555
H10 C8 1_555 1_555
C9 C8 1_555 1_555
C10 C9 1_555 1_555
H11 C10 1_555 1_555
C11 N3 1_555 1_555
H12 C11 1_555 1_555
C12 O3 1_555 1_555
C13 H13 1_555 1_555
C14 C13 1_555 1_555
H14 C14 1_555 1_555
C15 C14 1_555 1_555
C16 C15 1_555 1_555
H15 C16 1_555 1_555
C17 N1 1_555 1_555
H16 C17 1_555 1_555
C18 O7 1_555 1_555
Eu1B O4 1_555 1_555
Eu1B_2 O8 1_555 1_555
O4B Eu1 1_555 1_555
O8B Eu1 1_555 1_555
O6 C6 1_555 1_555
C3 C6 1_555 1_555
C4 C5 1_555 1_555
C9 C12 1_555 1_555
C10 C11 1_555 1_555
C15 C18 1_555 1_555
C16 C17 1_555 1_555

#END
