
#######################################################################
#
#                 Cambridge Crystallographic Data Centre
#                                CCDC 
#
#######################################################################
#
# If this CIF has been generated from an entry in the Cambridge 
# Structural Database, then it will include bibliographic, chemical, 
# crystal, experimental, refinement or atomic coordinate data resulting 
# from the CCDC's data processing and validation procedures.
#
#######################################################################

data_WOBVAK01
_symmetry_cell_setting           monoclinic
_symmetry_space_group_name_H-M   'C 2/c'
_symmetry_Int_Tables_number      15
_space_group_name_Hall           '-C 2yn'
loop_
_symmetry_equiv_pos_site_id
_symmetry_equiv_pos_as_xyz
1 x,y,z
2 1/2+x,1/2+y,z
3 -x,y,1/2-z
4 1/2-x,1/2+y,1/2-z
5 -x,-y,-z
6 1/2-x,1/2-y,-z
7 x,-y,1/2+z
8 1/2+x,1/2-y,1/2+z
_cell_length_a                   15.802(5)
_cell_length_b                   14.242(4)
_cell_length_c                   9.513(3)
_cell_angle_alpha                90
_cell_angle_beta                 97.695(5)
_cell_angle_gamma                90
_cell_volume                     2121.64
loop_
_atom_site_label
_atom_site_type_symbol
_atom_site_fract_x
_atom_site_fract_y
_atom_site_fract_z
Eu1 Eu 0.5000 0.480451(14) 0.2500
N1 N 0.1320(2) 0.6958(3) 0.2735(4)
N2 N 0.5000 0.9811(5) 0.2500
O1 O 0.40905(16) 0.52834(17) 0.4142(3)
O2 O 0.36534(14) 0.55890(19) 0.6196(2)
O3 O 0.55031(15) 0.63833(16) 0.3421(2)
O4 O 0.53315(17) 0.33912(18) 0.1256(3)
H1 H 0.550(3) 0.345(3) 0.049(5)
H2 H 0.559(3) 0.304(4) 0.167(6)
C1 C 0.1411(3) 0.6817(3) 0.4124(5)
H3 H 0.0986 0.7031 0.4631
C2 C 0.2120(2) 0.6361(3) 0.4863(4)
H4 H 0.2164 0.6282 0.5841
C3 C 0.27474(19) 0.6034(2) 0.4129(3)
C4 C 0.35527(18) 0.5596(2) 0.4870(3)
C5 C 0.2636(3) 0.6158(4) 0.2675(4)
H5 H 0.3039 0.5932 0.2132
C6 C 0.1922(3) 0.6621(4) 0.2046(5)
H6 H 0.1860 0.6701 0.1067
C7 C 0.5688(5) 0.9325(4) 0.3160(9)
H7 H 0.6160 0.9651 0.3603
C8 C 0.5688(4) 0.8351(3) 0.3175(6)
H8 H 0.6154 0.8027 0.3642
C9 C 0.5000 0.7864(4) 0.2500
C10 C 0.5000 0.6818(3) 0.2500
Eu1D Eu 0.5000 0.519549(14) 0.7500
Eu1D_2 Eu 0.5000 0.519549(14) -0.2500
N1B N 0.8680(2) 0.6958(3) 0.2265(4)
O1B O 0.59095(16) 0.52834(17) 0.0858(3)
O2B O 0.63466(14) 0.55890(19) -0.1196(2)
O2F O 0.36534(14) 0.44110(19) 0.1196(2)
O2D O 0.63466(14) 0.44110(19) 0.3804(2)
O3B O 0.44969(15) 0.63833(16) 0.1579(2)
O4B O 0.46685(17) 0.33912(18) 0.3744(3)
H1B H 0.450(3) 0.345(3) 0.451(5)
H2B H 0.441(3) 0.304(4) 0.333(6)
C1B C 0.8589(3) 0.6817(3) 0.0876(5)
H3B H 0.9014 0.7031 0.0369
C2B C 0.7880(2) 0.6361(3) 0.0137(4)
H4B H 0.7836 0.6282 -0.0841
C3B C 0.72526(19) 0.6034(2) 0.0871(3)
C4B C 0.64473(18) 0.5596(2) 0.0130(3)
C5B C 0.7364(3) 0.6158(4) 0.2325(4)
H5B H 0.6961 0.5932 0.2868
C6B C 0.8078(3) 0.6621(4) 0.2954(5)
H6B H 0.8140 0.6701 0.3933
C7B C 0.4312(5) 0.9325(4) 0.1840(9)
H7B H 0.3840 0.9651 0.1397
C8B C 0.4312(4) 0.8351(3) 0.1825(6)
H8B H 0.3846 0.8027 0.1358
loop_
_geom_bond_atom_site_label_1
_geom_bond_atom_site_label_2
_geom_bond_site_symmetry_1
_geom_bond_site_symmetry_2
Eu1 O1 1_555 1_555
N1 C1 1_555 1_555
N2 C7 1_555 1_555
O1 C4 1_555 1_555
O2 C4 1_555 1_555
O3 Eu1 1_555 1_555
O4 Eu1 1_555 1_555
H1 O4 1_555 1_555
H2 O4 1_555 1_555
C1 H3 1_555 1_555
C2 C1 1_555 1_555
H4 C2 1_555 1_555
C3 C2 1_555 1_555
C4 C3 1_555 1_555
C5 C3 1_555 1_555
H5 C5 1_555 1_555
C6 N1 1_555 1_555
H6 C6 1_555 1_555
C7 H7 1_555 1_555
C8 C7 1_555 1_555
H8 C8 1_555 1_555
C9 C8 1_555 1_555
C10 O3 1_555 1_555
Eu1D O2 1_555 1_555
Eu1D_2 O2B 1_555 1_555
N1B C1B 1_555 1_555
O1B Eu1 1_555 1_555
O2B C4B 1_555 1_555
O2F Eu1 1_555 1_555
O2D Eu1 1_555 1_555
O3B Eu1 1_555 1_555
O4B Eu1 1_555 1_555
H1B O4B 1_555 1_555
H2B O4B 1_555 1_555
C1B H3B 1_555 1_555
C2B C1B 1_555 1_555
H4B C2B 1_555 1_555
C3B C2B 1_555 1_555
C4B O1B 1_555 1_555
C5B C3B 1_555 1_555
H5B C5B 1_555 1_555
C6B N1B 1_555 1_555
H6B C6B 1_555 1_555
C7B N2 1_555 1_555
H7B C7B 1_555 1_555
C8B C9 1_555 1_555
H8B C8B 1_555 1_555
C5 C6 1_555 1_555
C9 C10 1_555 1_555
C10 O3B 1_555 1_555
C3B C4B 1_555 1_555
C5B C6B 1_555 1_555
C7B C8B 1_555 1_555

#END
