
#######################################################################
#
#                 Cambridge Crystallographic Data Centre
#                                CCDC 
#
#######################################################################
#
# If this CIF has been generated from an entry in the Cambridge 
# Structural Database, then it will include bibliographic, chemical, 
# crystal, experimental, refinement or atomic coordinate data resulting 
# from the CCDC's data processing and validation procedures.
#
#######################################################################

data_WOBYIX
_symmetry_cell_setting           monoclinic
_symmetry_space_group_name_H-M   'P 21/n'
_symmetry_Int_Tables_number      14
_space_group_name_Hall           '-P 2yn'
loop_
_symmetry_equiv_pos_site_id
_symmetry_equiv_pos_as_xyz
1 x,y,z
2 1/2-x,1/2+y,1/2-z
3 -x,-y,-z
4 1/2+x,1/2-y,1/2+z
_cell_length_a                   17.438
_cell_length_b                   11.119
_cell_length_c                   18.114
_cell_angle_alpha                90
_cell_angle_beta                 115.64
_cell_angle_gamma                90
_cell_volume                     3166.34
loop_
_atom_site_label
_atom_site_type_symbol
_atom_site_fract_x
_atom_site_fract_y
_atom_site_fract_z
Mn1 Mn 0.0000 0.5000 0.5000
Mn2 Mn -0.12577(3) 0.32492(5) 0.30698(3)
O1 O 0.42708(18) 0.1350(3) 0.01291(18)
O2 O 0.3306(2) 0.2079(3) -0.10642(19)
C1 C 0.3560(3) 0.1809(3) -0.0328(3)
O3 O -0.0642(2) 0.3692(3) 0.2341(2)
C2 C -0.0286(3) 0.4662(4) 0.2315(3)
O4 O 0.41498(16) 0.8805(3) 0.01695(18)
C3 C 0.3373(2) 0.8576(4) -0.0265(2)
O5 O 0.29997(19) 0.8786(3) -0.10013(19)
C4 C 0.2897(3) 0.8035(4) 0.0181(3)
C5 C 0.3182(3) 0.8249(4) 0.1010(3)
H1 H 0.3670 0.8706 0.1286
C6 C 0.2176(3) 0.7342(4) -0.0219(3)
H2 H 0.1975 0.7194 -0.0777
C7 C 0.1745(3) 0.6860(4) 0.0212(3)
H3 H 0.1268 0.6376 -0.0053
C8 C 0.2039(3) 0.7116(4) 0.1031(3)
C9 C 0.2754(3) 0.7796(5) 0.1429(3)
H4 H 0.2951 0.7952 0.1986
O6 O -0.0320(3) 0.5612(3) 0.2650(3)
O7 O 0.1621(3) 0.6796(3) 0.1504(3)
C10 C 0.1418(3) 0.4655(4) 0.1172(3)
H5 H 0.1807 0.4651 0.0947
C11 C 0.0635(3) 0.5710(4) 0.1795(3)
H6 H 0.0502 0.6424 0.1980
C12 C 0.1215(3) 0.5706(4) 0.1450(3)
C13 C 0.1028(3) 0.3609(4) 0.1239(3)
C14 C 0.0450(3) 0.3601(4) 0.1572(3)
H7 H 0.0187 0.2888 0.1604
C15 C 0.0267(2) 0.4657(4) 0.1855(2)
O8 O 0.1200(3) 0.2490(3) 0.1009(3)
C16 C 0.3130(3) 0.1657(4) 0.0827(3)
H8 H 0.3637 0.1256 0.1133
C17 C 0.1610(3) 0.2827(5) -0.0081(4)
H9 H 0.1103 0.3233 -0.0381
C18 C 0.2197(3) 0.2628(5) -0.0404(3)
H10 H 0.2070 0.2888 -0.0932
C19 C 0.1803(3) 0.2405(4) 0.0694(3)
C20 C 0.2564(4) 0.1846(5) 0.1153(4)
H11 H 0.2695 0.1597 0.1685
C21 C 0.2954(3) 0.2056(4) 0.0043(3)
O9 O -0.01565(19) 0.2216(3) 0.37806(19)
H12 H 0.0218 0.2661 0.4094
O10 O -0.1638(2) 0.1582(3) 0.2463(2)
H13 H -0.2139 0.1619 0.2130
O11 O -0.2357(2) 0.4055(4) 0.2270(3)
O12 O -0.08270(17) 0.4971(2) 0.37052(17)
C22 C -0.3271(5) 0.4936(7) 0.0851(5)
H14 H -0.2676 0.5041 0.1200
H15 H -0.3549 0.5705 0.0739
H16 H -0.3341 0.4568 0.0347
C23 C -0.3558(5) 0.3024(8) 0.2411(5)
H17 H -0.3350 0.3309 0.2965
H18 H -0.3400 0.2196 0.2414
H19 H -0.4166 0.3095 0.2144
N1 N -0.3681(6) 0.4101(8) 0.1294(6)
C24 C -0.3107(6) 0.3897(8) 0.1877(6)
C25 C -0.4583(5) 0.3885(7) 0.0877(5)
H20 H -0.4699 0.3062 0.0953
H21 H -0.4780 0.4046 0.0304
H22 H -0.4872 0.4404 0.1098
Mn2B Mn 0.12577(3) 0.67508(5) 0.69302(3)
O1B O -0.42708(18) 0.8650(3) 0.98709(18)
O2B O -0.3306(2) 0.7921(3) 1.10642(19)
C1B C -0.3560(3) 0.8191(3) 1.0328(3)
O3B O 0.0642(2) 0.6308(3) 0.7659(2)
C2B C 0.0286(3) 0.5338(4) 0.7685(3)
O4B O -0.41498(16) 0.1195(3) 0.98305(18)
C3B C -0.3373(2) 0.1424(4) 1.0265(2)
O5B O -0.29997(19) 0.1214(3) 1.10013(19)
C4B C -0.2897(3) 0.1965(4) 0.9819(3)
C5B C -0.3182(3) 0.1751(4) 0.8990(3)
H1B H -0.3670 0.1294 0.8714
C6B C -0.2176(3) 0.2658(4) 1.0219(3)
H2B H -0.1975 0.2806 1.0777
C7B C -0.1745(3) 0.3140(4) 0.9788(3)
H3B H -0.1268 0.3624 1.0053
C8B C -0.2039(3) 0.2884(4) 0.8969(3)
C9B C -0.2754(3) 0.2204(5) 0.8571(3)
H4B H -0.2951 0.2048 0.8014
O6B O 0.0320(3) 0.4388(3) 0.7350(3)
O7B O -0.1621(3) 0.3204(3) 0.8496(3)
C10B C -0.1418(3) 0.5345(4) 0.8828(3)
H5B H -0.1807 0.5349 0.9053
C11B C -0.0635(3) 0.4290(4) 0.8205(3)
H6B H -0.0502 0.3576 0.8020
C12B C -0.1215(3) 0.4294(4) 0.8550(3)
C13B C -0.1028(3) 0.6391(4) 0.8761(3)
C14B C -0.0450(3) 0.6399(4) 0.8428(3)
H7B H -0.0187 0.7112 0.8396
C15B C -0.0267(2) 0.5343(4) 0.8145(2)
O8B O -0.1200(3) 0.7510(3) 0.8991(3)
C16B C -0.3130(3) 0.8343(4) 0.9173(3)
H8B H -0.3637 0.8744 0.8867
C17B C -0.1610(3) 0.7173(5) 1.0081(4)
H9B H -0.1103 0.6767 1.0381
C18B C -0.2197(3) 0.7372(5) 1.0404(3)
H10B H -0.2070 0.7112 1.0932
C19B C -0.1803(3) 0.7595(4) 0.9306(3)
C20B C -0.2564(4) 0.8154(5) 0.8847(4)
H11B H -0.2695 0.8403 0.8315
C21B C -0.2954(3) 0.7944(4) 0.9957(3)
O9B O 0.01565(19) 0.7784(3) 0.62194(19)
H12B H -0.0218 0.7339 0.5906
O10B O 0.1638(2) 0.8418(3) 0.7537(2)
H13B H 0.2139 0.8381 0.7870
O11B O 0.2357(2) 0.5945(4) 0.7730(3)
O12B O 0.08270(17) 0.5029(2) 0.62948(17)
C22B C 0.3271(5) 0.5064(7) 0.9149(5)
H14B H 0.2676 0.4959 0.8800
H15B H 0.3549 0.4295 0.9261
H16B H 0.3341 0.5432 0.9653
C23B C 0.3558(5) 0.6976(8) 0.7589(5)
H17B H 0.3350 0.6691 0.7035
H18B H 0.3400 0.7804 0.7586
H19B H 0.4166 0.6905 0.7856
N1B N 0.3681(6) 0.5899(8) 0.8706(6)
C24B C 0.3107(6) 0.6103(8) 0.8123(6)
C25B C 0.4583(5) 0.6115(7) 0.9123(5)
H20B H 0.4699 0.6938 0.9047
H21B H 0.4780 0.5954 0.9696
H22B H 0.4872 0.5596 0.8902
Mn1A Mn -0.5000 0.0000 1.0000
Mn1A_2 Mn -0.5000 1.0000 1.0000
Mn1A_3 Mn 0.5000 0.0000 0.0000
Mn1A_4 Mn 0.5000 1.0000 0.0000
Mn2A Mn -0.37423(3) 0.82492(5) 1.19302(3)
Mn2C Mn 0.37423(3) 0.17508(5) -0.19302(3)
O1A O 0.07292(18) 0.6350(3) 0.48709(18)
O1C O -0.07292(18) 0.3650(3) 0.51291(18)
O2A O 0.1694(2) 0.7079(3) 0.60642(19)
O2C O -0.1694(2) 0.2921(3) 0.39358(19)
O4A O 0.08502(16) 0.3805(3) 0.48305(18)
O4C O -0.08502(16) 0.6195(3) 0.51695(18)
O13 O -0.0114(3) 1.0617(5) 0.2602(3)
N2 N 0.0073(6) 0.9916(6) 0.1547(6)
C26 C 0.0348(6) 1.0146(7) 0.2311(6)
C27 C -0.0806(7) 1.0306(9) 0.1005(6)
H23 H -0.1024 1.0783 0.1313
H24 H -0.1160 0.9612 0.0789
H25 H -0.0802 1.0776 0.0562
C28 C 0.0577(8) 0.9366(10) 0.1196(8)
H26 H 0.1137 0.9208 0.1618
H27 H 0.0616 0.9895 0.0795
H28 H 0.0318 0.8623 0.0939
C29 C 0.1252(6) 0.9761(11) 0.2867(9)
H29 H 0.1348 0.8962 0.2723
H30 H 0.1333 0.9771 0.3426
H31 H 0.1646 1.0306 0.2803
loop_
_geom_bond_atom_site_label_1
_geom_bond_atom_site_label_2
_geom_bond_site_symmetry_1
_geom_bond_site_symmetry_2
Mn1 O12 1_555 1_555
Mn2 O3 1_555 1_555
O1 C1 1_555 1_555
O2 C1 1_555 1_555
C1 C21 1_555 1_555
O3 C2 1_555 1_555
C2 O6 1_555 1_555
O4 C3 1_555 1_555
C3 O5 1_555 1_555
C4 C3 1_555 1_555
C5 C4 1_555 1_555
H1 C5 1_555 1_555
C6 C4 1_555 1_555
H2 C6 1_555 1_555
C7 C6 1_555 1_555
H3 C7 1_555 1_555
C8 C7 1_555 1_555
C9 C5 1_555 1_555
H4 C9 1_555 1_555
O7 C8 1_555 1_555
C10 H5 1_555 1_555
C11 H6 1_555 1_555
C12 O7 1_555 1_555
C13 C10 1_555 1_555
C14 C13 1_555 1_555
H7 C14 1_555 1_555
C15 C2 1_555 1_555
O8 C13 1_555 1_555
C16 H8 1_555 1_555
C17 H9 1_555 1_555
C18 C17 1_555 1_555
H10 C18 1_555 1_555
C19 O8 1_555 1_555
C20 C16 1_555 1_555
H11 C20 1_555 1_555
C21 C16 1_555 1_555
O9 Mn2 1_555 1_555
H12 O9 1_555 1_555
O10 Mn2 1_555 1_555
H13 O10 1_555 1_555
O11 Mn2 1_555 1_555
O12 Mn2 1_555 1_555
C22 H14 1_555 1_555
H15 C22 1_555 1_555
H16 C22 1_555 1_555
C23 H17 1_555 1_555
H18 C23 1_555 1_555
H19 C23 1_555 1_555
N1 C22 1_555 1_555
C24 O11 1_555 1_555
C25 N1 1_555 1_555
H20 C25 1_555 1_555
H21 C25 1_555 1_555
H22 C25 1_555 1_555
O13 C26 1_555 1_555
N2 C26 1_555 1_555
C26 C29 1_555 1_555
C27 N2 1_555 1_555
H23 C27 1_555 1_555
H24 C27 1_555 1_555
H25 C27 1_555 1_555
C28 N2 1_555 1_555
H26 C28 1_555 1_555
H27 C28 1_555 1_555
H28 C28 1_555 1_555
C29 H29 1_555 1_555
H30 C29 1_555 1_555
H31 C29 1_555 1_555
Mn2B O3B 1_555 1_555
O1B C1B 1_555 1_555
O2B C1B 1_555 1_555
C1B C21B 1_555 1_555
O3B C2B 1_555 1_555
C2B O6B 1_555 1_555
O4B C3B 1_555 1_555
C3B O5B 1_555 1_555
C4B C3B 1_555 1_555
C5B C4B 1_555 1_555
H1B C5B 1_555 1_555
C6B C4B 1_555 1_555
H2B C6B 1_555 1_555
C7B C6B 1_555 1_555
H3B C7B 1_555 1_555
C8B C7B 1_555 1_555
C9B C5B 1_555 1_555
H4B C9B 1_555 1_555
O7B C8B 1_555 1_555
C10B H5B 1_555 1_555
C11B H6B 1_555 1_555
C12B O7B 1_555 1_555
C13B C10B 1_555 1_555
C14B C13B 1_555 1_555
H7B C14B 1_555 1_555
C15B C2B 1_555 1_555
O8B C13B 1_555 1_555
C16B H8B 1_555 1_555
C17B H9B 1_555 1_555
C18B C17B 1_555 1_555
H10B C18B 1_555 1_555
C19B O8B 1_555 1_555
C20B C16B 1_555 1_555
H11B C20B 1_555 1_555
C21B C16B 1_555 1_555
O9B Mn2B 1_555 1_555
H12B O9B 1_555 1_555
O10B Mn2B 1_555 1_555
H13B O10B 1_555 1_555
O11B Mn2B 1_555 1_555
O12B Mn1 1_555 1_555
C22B H14B 1_555 1_555
H15B C22B 1_555 1_555
H16B C22B 1_555 1_555
C23B H17B 1_555 1_555
H18B C23B 1_555 1_555
H19B C23B 1_555 1_555
N1B C22B 1_555 1_555
C24B O11B 1_555 1_555
C25B N1B 1_555 1_555
H20B C25B 1_555 1_555
H21B C25B 1_555 1_555
H22B C25B 1_555 1_555
Mn1A O4B 1_555 1_555
Mn1A_2 O1B 1_555 1_555
Mn1A_3 O1 1_555 1_555
Mn1A_4 O4 1_555 1_555
Mn2A O2B 1_555 1_555
Mn2C O2 1_555 1_555
O1A Mn1 1_555 1_555
O1C Mn1 1_555 1_555
O2A Mn2B 1_555 1_555
O2C Mn2 1_555 1_555
O4A Mn1 1_555 1_555
O4C Mn1 1_555 1_555
C8 C9 1_555 1_555
C10 C12 1_555 1_555
C11 C12 1_555 1_555
C11 C15 1_555 1_555
C14 C15 1_555 1_555
C17 C19 1_555 1_555
C18 C21 1_555 1_555
C19 C20 1_555 1_555
C23 C24 1_555 1_555
N1 C24 1_555 1_555
Mn2B O12B 1_555 1_555
C8B C9B 1_555 1_555
C10B C12B 1_555 1_555
C11B C12B 1_555 1_555
C11B C15B 1_555 1_555
C14B C15B 1_555 1_555
C17B C19B 1_555 1_555
C18B C21B 1_555 1_555
C19B C20B 1_555 1_555
C23B C24B 1_555 1_555
N1B C24B 1_555 1_555

#END
