
#######################################################################
#
#                 Cambridge Crystallographic Data Centre
#                                CCDC 
#
#######################################################################
#
# If this CIF has been generated from an entry in the Cambridge 
# Structural Database, then it will include bibliographic, chemical, 
# crystal, experimental, refinement or atomic coordinate data resulting 
# from the CCDC's data processing and validation procedures.
#
#######################################################################

data_WOBZOE
_symmetry_cell_setting           monoclinic
_symmetry_space_group_name_H-M   'C 2/c'
_symmetry_Int_Tables_number      15
_space_group_name_Hall           '-C 2yn'
loop_
_symmetry_equiv_pos_site_id
_symmetry_equiv_pos_as_xyz
1 x,y,z
2 -x,y,1/2-z
3 1/2+x,1/2+y,z
4 1/2-x,1/2+y,1/2-z
5 -x,-y,-z
6 x,-y,1/2+z
7 1/2-x,1/2-y,-z
8 1/2+x,1/2-y,1/2+z
_cell_length_a                   10.2009(12)
_cell_length_b                   9.7997(11)
_cell_length_c                   10.1272(12)
_cell_angle_alpha                90
_cell_angle_beta                 101.0470(10)
_cell_angle_gamma                90
_cell_volume                     993.614
loop_
_atom_site_label
_atom_site_type_symbol
_atom_site_fract_x
_atom_site_fract_y
_atom_site_fract_z
Pb1 Pb 0.5000 0.253658(18) 0.2500
O1 O 0.3394(3) 0.1366(3) 0.0685(3)
H1 H 0.3277 0.1453 -0.0135
O2 O 0.2771(3) -0.1198(3) 0.2966(3)
O3 O 0.3807(3) 0.0799(3) 0.3267(3)
C1 C 0.2874(4) 0.0075(4) 0.1006(4)
H2 H 0.3304 -0.0656 0.0583
C2 C 0.3184(4) -0.0114(4) 0.2523(4)
C3 C 0.1375(4) 0.0026(4) 0.0484(4)
C4 C 0.0806(4) -0.0976(4) -0.0408(4)
H3 H 0.1351 -0.1635 -0.0686
C5 C 0.0556(4) 0.1018(4) 0.0894(4)
H4 H 0.0923 0.1701 0.1490
O1D O -0.3394(3) -0.1366(3) -0.0685(3)
H1D H -0.3277 -0.1453 0.0135
O2D O -0.2771(3) 0.1198(3) -0.2966(3)
O3D O -0.3807(3) -0.0799(3) -0.3267(3)
C1D C -0.2874(4) -0.0075(4) -0.1006(4)
H2D H -0.3304 0.0656 -0.0583
C2D C -0.3184(4) 0.0114(4) -0.2523(4)
C3D C -0.1375(4) -0.0026(4) -0.0484(4)
C4D C -0.0806(4) 0.0976(4) 0.0408(4)
H3D H -0.1351 0.1635 0.0686
C5D C -0.0556(4) -0.1018(4) -0.0894(4)
H4D H -0.0923 -0.1701 -0.1490
Pb1D Pb -0.5000 -0.253658(18) -0.2500
O1A O 0.6606(3) 0.1366(3) 0.4315(3)
O3A O 0.6193(3) 0.0799(3) 0.1733(3)
loop_
_geom_bond_atom_site_label_1
_geom_bond_atom_site_label_2
_geom_bond_site_symmetry_1
_geom_bond_site_symmetry_2
Pb1 O1 1_555 1_555
O1 H1 1_555 1_555
O2 C2 1_555 1_555
O3 Pb1 1_555 1_555
C1 O1 1_555 1_555
H2 C1 1_555 1_555
C2 O3 1_555 1_555
C3 C1 1_555 1_555
C4 C3 1_555 1_555
H3 C4 1_555 1_555
C5 C3 1_555 1_555
H4 C5 1_555 1_555
O1D H1D 1_555 1_555
O2D C2D 1_555 1_555
O3D C2D 1_555 1_555
C1D O1D 1_555 1_555
H2D C1D 1_555 1_555
C2D C1D 1_555 1_555
C3D C1D 1_555 1_555
C4D C5 1_555 1_555
H3D C4D 1_555 1_555
C5D C4 1_555 1_555
H4D C5D 1_555 1_555
Pb1D O1D 1_555 1_555
O1A Pb1 1_555 1_555
O3A Pb1 1_555 1_555
C1 C2 1_555 1_555
O3D Pb1D 1_555 1_555
C3D C4D 1_555 1_555
C3D C5D 1_555 1_555

#END
