
#######################################################################
#
#                 Cambridge Crystallographic Data Centre
#                                CCDC 
#
#######################################################################
#
# If this CIF has been generated from an entry in the Cambridge 
# Structural Database, then it will include bibliographic, chemical, 
# crystal, experimental, refinement or atomic coordinate data resulting 
# from the CCDC's data processing and validation procedures.
#
#######################################################################

data_WOBZUK
_symmetry_cell_setting           monoclinic
_symmetry_space_group_name_H-M   'C 2/c'
_symmetry_Int_Tables_number      15
_space_group_name_Hall           '-C 2yn'
loop_
_symmetry_equiv_pos_site_id
_symmetry_equiv_pos_as_xyz
1 x,y,z
2 -x,y,1/2-z
3 1/2+x,1/2+y,z
4 1/2-x,1/2+y,1/2-z
5 -x,-y,-z
6 x,-y,1/2+z
7 1/2-x,1/2-y,-z
8 1/2+x,1/2-y,1/2+z
_cell_length_a                   20.7272(18)
_cell_length_b                   12.9346(11)
_cell_length_c                   10.2507(9)
_cell_angle_alpha                90
_cell_angle_beta                 102.4310(10)
_cell_angle_gamma                90
_cell_volume                     2683.76
loop_
_atom_site_label
_atom_site_type_symbol
_atom_site_fract_x
_atom_site_fract_y
_atom_site_fract_z
Co1 Co 1.0000 1.028168(19) 1.2500
Co2 Co 0.5000 0.956718(19) 0.7500
O1 O 0.51026(6) 0.85146(9) 0.90319(11)
H1 H 0.4971(9) 0.8679(14) 0.9671(17)
H2 H 0.5382(9) 0.8048(13) 0.921(2)
O2 O 0.89998(5) 1.00704(8) 1.25825(10)
H3 H 0.8738 1.0541 1.2609
O3 O 0.97024(5) 0.91198(8) 1.11096(10)
O4 O 0.98537(6) 1.14273(9) 1.10861(11)
H4 H 0.9941(10) 1.1311(14) 1.036(2)
H5 H 0.9599(11) 1.1939(14) 1.102(2)
O5 O 0.53900(5) 1.07956(8) 0.87955(10)
O6 O 0.59634(5) 0.96925(7) 0.72327(10)
H6 H 0.6210 0.9232 0.7088
O7 O 0.89367(5) 0.79155(7) 1.04117(11)
O8 O 0.61152(5) 1.20863(7) 0.89243(10)
C1 C 0.69518(6) 1.01882(10) 0.88693(13)
C2 C 0.80611(7) 0.95891(10) 1.07893(13)
C3 C 0.91417(7) 0.87145(10) 1.10511(13)
C4 C 0.59086(6) 1.11941(10) 0.85724(12)
C5 C 0.80770(7) 1.04860(10) 1.00460(14)
H7 H 0.8458 1.0886 1.0187
C6 C 0.75240(7) 1.07845(10) 0.90942(13)
H8 H 0.7537 1.1387 0.8605
C7 C 0.86652(6) 0.92382(10) 1.18005(13)
H9 H 0.8529 0.8732 1.2400
C8 C 0.74917(7) 0.89891(10) 1.05499(13)
H10 H 0.7480 0.8382 1.1031
C9 C 0.63450(6) 1.05391(10) 0.78577(13)
H11 H 0.6484 1.0961 0.7173
C10 C 0.69395(7) 0.92869(11) 0.95983(14)
H12 H 0.6560 0.8881 0.9449
O1A O 0.48974(6) 0.85146(9) 0.59681(11)
H1A H 0.5029(9) 0.8679(14) 0.5329(17)
H2A H 0.4618(9) 0.8048(13) 0.579(2)
O2A O 0.10002(5) 1.00704(8) 0.24175(10)
H3A H 0.1262 1.0541 0.2391
O3A O 0.02976(5) 0.91198(8) 0.38904(10)
O5A O 0.46100(5) 1.07956(8) 0.62045(10)
O6A O 0.40366(5) 0.96925(7) 0.77673(10)
H6A H 0.3790 0.9232 0.7912
O7A O 0.10633(5) 0.79155(7) 0.45883(11)
O8A O 0.38848(5) 1.20863(7) 0.60757(10)
C1A C 0.30482(6) 1.01882(10) 0.61307(13)
C2A C 0.19389(7) 0.95891(10) 0.42107(13)
C3A C 0.08583(7) 0.87145(10) 0.39489(13)
C4A C 0.40914(6) 1.11941(10) 0.64276(12)
C5A C 0.19230(7) 1.04860(10) 0.49540(14)
H7A H 0.1542 1.0886 0.4813
C6A C 0.24760(7) 1.07845(10) 0.59058(13)
H8A H 0.2463 1.1387 0.6395
C7A C 0.13348(6) 0.92382(10) 0.31995(13)
H9A H 0.1471 0.8732 0.2600
C8A C 0.25083(7) 0.89891(10) 0.44501(13)
H10A H 0.2520 0.8382 0.3969
C9A C 0.36550(6) 1.05391(10) 0.71423(13)
H11A H 0.3516 1.0961 0.7827
C10A C 0.30605(7) 0.92869(11) 0.54017(14)
H12A H 0.3440 0.8881 0.5551
O4A O 1.01463(6) 1.14273(9) 1.39139(11)
H4A H 1.0059(10) 1.1311(14) 1.464(2)
H5A H 1.0401(11) 1.1939(14) 1.398(2)
Co1_2 Co 0.0000 1.028168(19) 0.2500
O2A_2 O 1.10002(5) 1.00704(8) 1.24175(10)
O3A_2 O 1.02976(5) 0.91198(8) 1.38904(10)
O9 O 0.17634(6) 0.82361(8) 0.72213(12)
H13 H 0.1593(10) 0.7873(13) 0.765(2)
H14 H 0.1623(10) 0.8079(14) 0.642(2)
O10 O 0.17736(6) 0.67847(10) 0.16947(12)
H15 H 0.2131(11) 0.6696(15) 0.192(2)
H16 H 0.1700(10) 0.6900(15) 0.096(2)
loop_
_geom_bond_atom_site_label_1
_geom_bond_atom_site_label_2
_geom_bond_site_symmetry_1
_geom_bond_site_symmetry_2
Co1 O2 1_555 1_555
Co2 O1 1_555 1_555
O1 H1 1_555 1_555
H2 O1 1_555 1_555
O2 H3 1_555 1_555
O3 Co1 1_555 1_555
O4 Co1 1_555 1_555
H4 O4 1_555 1_555
H5 O4 1_555 1_555
O5 Co2 1_555 1_555
O6 Co2 1_555 1_555
H6 O6 1_555 1_555
O7 C3 1_555 1_555
O8 C4 1_555 1_555
C1 C6 1_555 1_555
C2 C5 1_555 1_555
C3 O3 1_555 1_555
C4 O5 1_555 1_555
C5 H7 1_555 1_555
C6 C5 1_555 1_555
H8 C6 1_555 1_555
C7 O2 1_555 1_555
H9 C7 1_555 1_555
C8 C2 1_555 1_555
H10 C8 1_555 1_555
C9 O6 1_555 1_555
H11 C9 1_555 1_555
C10 C1 1_555 1_555
H12 C10 1_555 1_555
O9 H13 1_555 1_555
H14 O9 1_555 1_555
O10 H15 1_555 1_555
H16 O10 1_555 1_555
O1A Co2 1_555 1_555
H1A O1A 1_555 1_555
H2A O1A 1_555 1_555
O2A H3A 1_555 1_555
O3A C3A 1_555 1_555
O5A Co2 1_555 1_555
O6A Co2 1_555 1_555
H6A O6A 1_555 1_555
O7A C3A 1_555 1_555
O8A C4A 1_555 1_555
C1A C6A 1_555 1_555
C2A C5A 1_555 1_555
C3A C7A 1_555 1_555
C4A O5A 1_555 1_555
C5A H7A 1_555 1_555
C6A C5A 1_555 1_555
H8A C6A 1_555 1_555
C7A O2A 1_555 1_555
H9A C7A 1_555 1_555
C8A C2A 1_555 1_555
H10A C8A 1_555 1_555
C9A O6A 1_555 1_555
H11A C9A 1_555 1_555
C10A C1A 1_555 1_555
H12A C10A 1_555 1_555
O4A Co1 1_555 1_555
H4A O4A 1_555 1_555
H5A O4A 1_555 1_555
Co1_2 O2A 1_555 1_555
O2A_2 Co1 1_555 1_555
O3A_2 Co1 1_555 1_555
C1 C9 1_555 1_555
C2 C7 1_555 1_555
C3 C7 1_555 1_555
C4 C9 1_555 1_555
C8 C10 1_555 1_555
O3A Co1_2 1_555 1_555
C1A C9A 1_555 1_555
C2A C7A 1_555 1_555
C4A C9A 1_555 1_555
C8A C10A 1_555 1_555

#END
