
#######################################################################
#
#                 Cambridge Crystallographic Data Centre
#                                CCDC 
#
#######################################################################
#
# If this CIF has been generated from an entry in the Cambridge 
# Structural Database, then it will include bibliographic, chemical, 
# crystal, experimental, refinement or atomic coordinate data resulting 
# from the CCDC's data processing and validation procedures.
#
#######################################################################

data_WOCBUL
_symmetry_cell_setting           monoclinic
_symmetry_space_group_name_H-M   'P 21/n'
_symmetry_Int_Tables_number      14
_space_group_name_Hall           '-P 2yn'
loop_
_symmetry_equiv_pos_site_id
_symmetry_equiv_pos_as_xyz
1 x,y,z
2 1/2+x,1/2-y,1/2+z
3 -x,-y,-z
4 1/2-x,1/2+y,1/2-z
_cell_length_a                   12.5530(10)
_cell_length_b                   14.4169(9)
_cell_length_c                   13.2205(9)
_cell_angle_alpha                90
_cell_angle_beta                 94.377(7)
_cell_angle_gamma                90
_cell_volume                     2385.61
loop_
_atom_site_label
_atom_site_type_symbol
_atom_site_fract_x
_atom_site_fract_y
_atom_site_fract_z
Cu1 Cu -0.34808(6) 0.28804(5) -0.05341(5)
Cl1 Cl -0.62550(10) 0.28470(10) -0.08190(10)
Cl2 Cl -0.07310(10) 0.31410(10) -0.17290(10)
O1 O -0.5306(3) 0.2999(3) -0.0172(3)
O2 O -0.7141(5) 0.3216(6) -0.0384(6)
O3 O -0.6130(6) 0.3170(9) -0.1773(5)
O4 O -0.6385(8) 0.1882(4) -0.0906(8)
O5 O -0.1449(4) 0.2691(4) -0.1112(4)
O6 O -0.0316(5) 0.3926(3) -0.1192(5)
O7 O 0.0114(5) 0.2548(4) -0.1901(5)
O8 O -0.1290(5) 0.3421(8) -0.2629(5)
N1 N -0.3747(4) 0.2262(3) -0.1882(3)
N2 N -0.3669(4) 0.4039(3) -0.1398(3)
N3 N -0.2974(4) 0.3591(3) 0.0719(3)
N4 N -0.1766(4) 0.6701(3) 0.4719(3)
C1 C -0.3826(5) 0.2871(4) -0.2655(4)
C2 C -0.3797(5) 0.1362(4) -0.2097(5)
C3 C -0.3929(5) 0.1035(5) -0.3084(6)
C4 C -0.3999(6) 0.1642(5) -0.3869(5)
C5 C -0.3950(5) 0.2602(5) -0.3676(5)
C6 C -0.4027(6) 0.3303(7) -0.4448(5)
C7 C -0.3990(6) 0.4192(6) -0.4196(5)
C8 C -0.3882(5) 0.4494(4) -0.3160(5)
C9 C -0.3869(5) 0.5428(5) -0.2833(6)
C10 C -0.3780(6) 0.5637(5) -0.1839(6)
C11 C -0.3678(5) 0.4924(4) -0.1137(5)
C12 C -0.3785(4) 0.3823(4) -0.2398(4)
C13 C -0.3536(5) 0.3570(4) 0.1532(4)
C14 C -0.3268(5) 0.4092(4) 0.2372(4)
C15 C -0.2411(4) 0.4688(4) 0.2402(4)
C16 C -0.1809(5) 0.4682(4) 0.1563(4)
C17 C -0.2103(5) 0.4130(4) 0.0754(5)
C18 C -0.2164(5) 0.5347(4) 0.3250(4)
C19 C -0.2990(5) 0.5811(4) 0.3667(4)
C20 C -0.2766(5) 0.6478(4) 0.4381(4)
C21 C -0.0962(5) 0.6229(4) 0.4329(5)
C22 C -0.1147(5) 0.5563(4) 0.3614(5)
H3 H -0.3740 0.0936 -0.1567
H4 H -0.3973 0.0401 -0.3208
H5 H -0.4077 0.1426 -0.4533
H6 H -0.4102 0.3132 -0.5128
H7 H -0.4036 0.4636 -0.4708
H8 H -0.3921 0.5903 -0.3310
H9 H -0.3785 0.6252 -0.1625
H10 H -0.3616 0.5074 -0.0451
H11 H -0.4131 0.3186 0.1528
H12 H -0.3670 0.4047 0.2932
H13 H -0.1205 0.5055 0.1554
H14 H -0.1682 0.4127 0.0205
H15 H -0.3696 0.5669 0.3460
H16 H -0.3331 0.6791 0.4645
H17 H -0.0260 0.6363 0.4559
H18 H -0.0574 0.5250 0.3366
N4C N -0.3234(4) 0.1701(3) 0.0281(3)
Cu1C Cu -0.15192(6) 0.78804(5) 0.55341(5)
O9 O -0.6470(10) 0.0485(9) 0.0770(10)
H1 H -0.6300 0.0965 0.0364
H2 H -0.7009 0.0760 0.1074
loop_
_geom_bond_atom_site_label_1
_geom_bond_atom_site_label_2
_geom_bond_site_symmetry_1
_geom_bond_site_symmetry_2
Cu1 O1 1_555 1_555
Cl1 O1 1_555 1_555
Cl2 O5 1_555 1_555
O2 Cl1 1_555 1_555
O3 Cl1 1_555 1_555
O4 Cl1 1_555 1_555
O5 Cu1 1_555 1_555
O6 Cl2 1_555 1_555
O7 Cl2 1_555 1_555
O8 Cl2 1_555 1_555
O9 H1 1_555 1_555
N1 Cu1 1_555 1_555
N2 Cu1 1_555 1_555
N3 Cu1 1_555 1_555
N4 C20 1_555 1_555
C1 N1 1_555 1_555
C2 N1 1_555 1_555
C3 C2 1_555 1_555
C4 C3 1_555 1_555
C5 C1 1_555 1_555
C6 C5 1_555 1_555
C7 C6 1_555 1_555
C8 C7 1_555 1_555
C9 C8 1_555 1_555
C10 C9 1_555 1_555
C11 N2 1_555 1_555
C12 N2 1_555 1_555
C13 N3 1_555 1_555
C14 C13 1_555 1_555
C15 C14 1_555 1_555
C16 C15 1_555 1_555
C17 N3 1_555 1_555
C18 C15 1_555 1_555
C19 C18 1_555 1_555
C20 C19 1_555 1_555
C21 N4 1_555 1_555
C22 C18 1_555 1_555
H2 O9 1_555 1_555
H3 C2 1_555 1_555
H4 C3 1_555 1_555
H5 C4 1_555 1_555
H6 C6 1_555 1_555
H7 C7 1_555 1_555
H8 C9 1_555 1_555
H9 C10 1_555 1_555
H10 C11 1_555 1_555
H11 C13 1_555 1_555
H12 C14 1_555 1_555
H13 C16 1_555 1_555
H14 C17 1_555 1_555
H15 C19 1_555 1_555
H16 C20 1_555 1_555
H17 C21 1_555 1_555
H18 C22 1_555 1_555
N4C Cu1 1_555 1_555
Cu1C N4 1_555 1_555
C1 C12 1_555 1_555
C4 C5 1_555 1_555
C8 C12 1_555 1_555
C10 C11 1_555 1_555
C16 C17 1_555 1_555
C21 C22 1_555 1_555

#END
