
#######################################################################
#
#                 Cambridge Crystallographic Data Centre
#                                CCDC 
#
#######################################################################
#
# If this CIF has been generated from an entry in the Cambridge 
# Structural Database, then it will include bibliographic, chemical, 
# crystal, experimental, refinement or atomic coordinate data resulting 
# from the CCDC's data processing and validation procedures.
#
#######################################################################

data_WOCBAT
_symmetry_cell_setting           monoclinic
_symmetry_space_group_name_H-M   'C 2/c'
_symmetry_Int_Tables_number      15
_space_group_name_Hall           '-C 2yn'
loop_
_symmetry_equiv_pos_site_id
_symmetry_equiv_pos_as_xyz
1 x,y,z
2 -x,y,1/2-z
3 1/2+x,1/2+y,z
4 1/2-x,1/2+y,1/2-z
5 -x,-y,-z
6 x,-y,1/2+z
7 1/2-x,1/2-y,-z
8 1/2+x,1/2-y,1/2+z
_cell_length_a                   20.7801(14)
_cell_length_b                   12.8656(9)
_cell_length_c                   10.2531(7)
_cell_angle_alpha                90
_cell_angle_beta                 102.6780(10)
_cell_angle_gamma                90
_cell_volume                     2674.32
loop_
_atom_site_label
_atom_site_type_symbol
_atom_site_fract_x
_atom_site_fract_y
_atom_site_fract_z
Zn1 Zn 0.5000 0.53131(2) 0.2500
Zn2 Zn 1.0000 0.45283(2) 0.7500
O1 O 0.99244(7) 0.35014(11) 0.59738(13)
H1 H 1.0021(11) 0.3740(16) 0.5328(19)
H2 H 0.9647(11) 0.3047(14) 0.575(2)
O2 O 0.59959(6) 0.50691(10) 0.24107(12)
H3 H 0.6265 0.5507 0.2297
O3 O 0.53004(6) 0.41289(10) 0.38944(12)
O4 O 0.51184(7) 0.64538(11) 0.39059(14)
H4 H 0.5066(11) 0.6245(16) 0.471(2)
H5 H 0.5361(12) 0.6903(17) 0.396(2)
O5 O 0.96037(6) 0.57831(10) 0.62063(12)
O6 O 0.90342(6) 0.46850(9) 0.77736(13)
H6 H 0.8790 0.4246 0.7984
O7 O 0.60568(6) 0.28993(8) 0.45668(13)
O8 O 0.88893(6) 0.70927(8) 0.60908(13)
C1 C 0.80462(8) 0.51857(13) 0.61321(16)
C2 C 0.69353(8) 0.45836(13) 0.42104(17)
C3 C 0.58548(8) 0.37110(13) 0.39412(16)
C4 C 0.90914(8) 0.61908(13) 0.64349(15)
C5 C 0.69209(8) 0.54835(13) 0.49512(18)
H7 H 0.6540 0.5887 0.4807
C6 C 0.74750(8) 0.57855(13) 0.59106(16)
H8 H 0.7463 0.6389 0.6403
C7 C 0.63322(8) 0.42322(13) 0.31923(16)
H9 H 0.6467 0.3722 0.2594
C8 C 0.75034(8) 0.39805(13) 0.44487(17)
H10 H 0.7514 0.3372 0.3965
C9 C 0.86530(8) 0.55369(13) 0.71500(17)
H11 H 0.8516 0.5963 0.7834
C10 C 0.80568(8) 0.42792(14) 0.54045(17)
H12 H 0.8435 0.3870 0.5556
O2A O 0.40041(6) 0.50691(10) 0.25893(12)
H3A H 0.3735 0.5507 0.2703
O3A O 0.46996(6) 0.41289(10) 0.11056(12)
O4A O 0.48816(7) 0.64538(11) 0.10941(14)
H4A H 0.4934(11) 0.6245(16) 0.029(2)
H5A H 0.4639(12) 0.6903(17) 0.104(2)
O5A O 0.03963(6) 0.57831(10) -0.12063(12)
O6A O 0.09658(6) 0.46850(9) -0.27736(13)
H6A H 0.1210 0.4246 -0.2984
O7A O 0.39432(6) 0.28993(8) 0.04332(13)
O8A O 0.11107(6) 0.70927(8) -0.10908(13)
C1A C 0.19538(8) 0.51857(13) -0.11321(16)
C2A C 0.30647(8) 0.45836(13) 0.07896(17)
C3A C 0.41452(8) 0.37110(13) 0.10588(16)
C4A C 0.09086(8) 0.61908(13) -0.14349(15)
C5A C 0.30791(8) 0.54835(13) 0.00488(18)
H7A H 0.3460 0.5887 0.0193
C6A C 0.25250(8) 0.57855(13) -0.09106(16)
H8A H 0.2537 0.6389 -0.1403
C7A C 0.36678(8) 0.42322(13) 0.18077(16)
H9A H 0.3533 0.3722 0.2406
C8A C 0.24966(8) 0.39805(13) 0.05513(17)
H10A H 0.2486 0.3372 0.1035
C9A C 0.13470(8) 0.55369(13) -0.21500(17)
H11A H 0.1484 0.5963 -0.2834
C10A C 0.19432(8) 0.42792(14) -0.04045(17)
H12A H 0.1565 0.3870 -0.0556
O1A O 1.00756(7) 0.35014(11) 0.90262(13)
H1A H 0.9979(11) 0.3740(16) 0.9672(19)
H2A H 1.0353(11) 0.3047(14) 0.925(2)
Zn2_2 Zn 0.0000 0.45283(2) -0.2500
O5A_2 O 1.03963(6) 0.57831(10) 0.87937(12)
O6A_2 O 1.09658(6) 0.46850(9) 0.72264(13)
O9 O 0.67575(7) 0.67648(11) 0.22128(14)
H13 H 0.6616(11) 0.7207(10) 0.264(2)
H14 H 0.6631(12) 0.6907(17) 0.147(2)
O10 O 0.67812(7) 0.82138(12) 0.66845(15)
H15 H 0.7159(12) 0.8242(18) 0.694(2)
H16 H 0.6714(12) 0.8140(19) 0.597(2)
loop_
_geom_bond_atom_site_label_1
_geom_bond_atom_site_label_2
_geom_bond_site_symmetry_1
_geom_bond_site_symmetry_2
Zn1 O2 1_555 1_555
Zn2 O1 1_555 1_555
O1 H1 1_555 1_555
H2 O1 1_555 1_555
O2 H3 1_555 1_555
O3 Zn1 1_555 1_555
O4 Zn1 1_555 1_555
H4 O4 1_555 1_555
H5 O4 1_555 1_555
O5 Zn2 1_555 1_555
O6 Zn2 1_555 1_555
H6 O6 1_555 1_555
O7 C3 1_555 1_555
O8 C4 1_555 1_555
C1 C6 1_555 1_555
C2 C5 1_555 1_555
C3 O3 1_555 1_555
C4 O5 1_555 1_555
C5 H7 1_555 1_555
C6 C5 1_555 1_555
H8 C6 1_555 1_555
C7 O2 1_555 1_555
H9 C7 1_555 1_555
C8 C2 1_555 1_555
H10 C8 1_555 1_555
C9 O6 1_555 1_555
H11 C9 1_555 1_555
C10 C1 1_555 1_555
H12 C10 1_555 1_555
O9 H13 1_555 1_555
H14 O9 1_555 1_555
O10 H15 1_555 1_555
H16 O10 1_555 1_555
O2A Zn1 1_555 1_555
H3A O2A 1_555 1_555
O3A Zn1 1_555 1_555
O4A Zn1 1_555 1_555
H4A O4A 1_555 1_555
H5A O4A 1_555 1_555
O5A C4A 1_555 1_555
O6A H6A 1_555 1_555
O7A C3A 1_555 1_555
O8A C4A 1_555 1_555
C1A C6A 1_555 1_555
C2A C5A 1_555 1_555
C3A O3A 1_555 1_555
C4A C9A 1_555 1_555
C5A H7A 1_555 1_555
C6A C5A 1_555 1_555
H8A C6A 1_555 1_555
C7A O2A 1_555 1_555
H9A C7A 1_555 1_555
C8A C2A 1_555 1_555
H10A C8A 1_555 1_555
C9A O6A 1_555 1_555
H11A C9A 1_555 1_555
C10A C1A 1_555 1_555
H12A C10A 1_555 1_555
O1A Zn2 1_555 1_555
H1A O1A 1_555 1_555
H2A O1A 1_555 1_555
Zn2_2 O5A 1_555 1_555
O5A_2 Zn2 1_555 1_555
O6A_2 Zn2 1_555 1_555
C1 C9 1_555 1_555
C2 C7 1_555 1_555
C3 C7 1_555 1_555
C4 C9 1_555 1_555
C8 C10 1_555 1_555
O6A Zn2_2 1_555 1_555
C1A C9A 1_555 1_555
C2A C7A 1_555 1_555
C3A C7A 1_555 1_555
C8A C10A 1_555 1_555

#END
