
#######################################################################
#
#                 Cambridge Crystallographic Data Centre
#                                CCDC 
#
#######################################################################
#
# If this CIF has been generated from an entry in the Cambridge 
# Structural Database, then it will include bibliographic, chemical, 
# crystal, experimental, refinement or atomic coordinate data resulting 
# from the CCDC's data processing and validation procedures.
#
#######################################################################

data_WOCCOG02
_symmetry_cell_setting           orthorhombic
_symmetry_space_group_name_H-M   'P c a 21'
_symmetry_Int_Tables_number      29
_space_group_name_Hall           'P 2c -2ac'
loop_
_symmetry_equiv_pos_site_id
_symmetry_equiv_pos_as_xyz
1 x,y,z
2 -x,-y,1/2+z
3 1/2-x,y,1/2+z
4 1/2+x,-y,z
_cell_length_a                   10.000(2)
_cell_length_b                   8.4519(2)
_cell_length_c                   14.187(2)
_cell_angle_alpha                90
_cell_angle_beta                 90
_cell_angle_gamma                90
_cell_volume                     1199.07
loop_
_atom_site_label
_atom_site_type_symbol
_atom_site_fract_x
_atom_site_fract_y
_atom_site_fract_z
Cu1 Cu 0.62021(2) 0.30507(2) 0.50000
O1 O 0.6677(2) 0.1927(3) 0.61950(14)
O2 O 0.8333(3) 0.1030(3) 0.70201(17)
O3 O 0.8695(2) 0.1947(3) 0.56093(18)
O4 O 0.5599(2) 0.4159(2) 0.38476(14)
O5 O 0.7626(2) 0.3629(3) 0.33843(18)
O6 O 0.6185(3) 0.4614(3) 0.24014(15)
N1 N 0.7945(2) 0.1633(2) 0.62841(14)
N2 N 0.6503(2) 0.4133(2) 0.31875(13)
N3 N 0.57843(19) 0.0963(2) 0.43616(14)
N4 N 0.6411(2) -0.1709(3) 0.40536(19)
N5 N 0.70849(18) 0.5047(2) 0.55017(13)
N6 N 0.90607(18) 0.6592(2) 0.55368(13)
C1 C 0.6583(2) -0.0308(3) 0.44610(16)
C2 C 0.5317(2) -0.1875(3) 0.35149(17)
C3 C 0.4431(2) -0.0633(3) 0.33617(15)
C4 C 0.4709(2) 0.0794(2) 0.37983(15)
C5 C 0.83337(18) 0.5391(2) 0.52203(13)
C6 C 0.8490(2) 0.7577(2) 0.61613(14)
C7 C 0.7183(2) 0.7352(3) 0.64669(16)
C8 C 0.6512(2) 0.6027(2) 0.61287(15)
H1 H 0.7345 -0.0186 0.4855
H2 H 0.5144 -0.2869 0.3230
H3 H 0.3667 -0.0762 0.2973
H4 H 0.4131 0.1671 0.3701
H5 H 0.8727 0.4716 0.4762
H6 H 0.8987 0.8445 0.6401
H7 H 0.6770 0.8068 0.6889
H8 H 0.5632 0.5818 0.6345
N6C N 0.40607(18) 0.3408(2) 0.55368(13)
Cu1C Cu 1.12021(2) 0.69493(2) 0.50000
loop_
_geom_bond_atom_site_label_1
_geom_bond_atom_site_label_2
_geom_bond_site_symmetry_1
_geom_bond_site_symmetry_2
Cu1 O1 1_555 1_555
O1 N1 1_555 1_555
O2 N1 1_555 1_555
O3 N1 1_555 1_555
O4 Cu1 1_555 1_555
O5 N2 1_555 1_555
O6 N2 1_555 1_555
N2 O4 1_555 1_555
N3 Cu1 1_555 1_555
N4 C1 1_555 1_555
N5 Cu1 1_555 1_555
N6 C5 1_555 1_555
C1 N3 1_555 1_555
C2 N4 1_555 1_555
C3 C2 1_555 1_555
C4 N3 1_555 1_555
C5 N5 1_555 1_555
C6 N6 1_555 1_555
C7 C6 1_555 1_555
C8 N5 1_555 1_555
H1 C1 1_555 1_555
H2 C2 1_555 1_555
H3 C3 1_555 1_555
H4 C4 1_555 1_555
H5 C5 1_555 1_555
H6 C6 1_555 1_555
H7 C7 1_555 1_555
H8 C8 1_555 1_555
N6C Cu1 1_555 1_555
Cu1C N6 1_555 1_555
C3 C4 1_555 1_555
C7 C8 1_555 1_555

#END
