
#######################################################################
#
#                 Cambridge Crystallographic Data Centre
#                                CCDC 
#
#######################################################################
#
# If this CIF has been generated from an entry in the Cambridge 
# Structural Database, then it will include bibliographic, chemical, 
# crystal, experimental, refinement or atomic coordinate data resulting 
# from the CCDC's data processing and validation procedures.
#
#######################################################################

data_WOCCOG01
_symmetry_cell_setting           orthorhombic
_symmetry_space_group_name_H-M   'P c a 21'
_symmetry_Int_Tables_number      29
_space_group_name_Hall           'P 2c -2ac'
loop_
_symmetry_equiv_pos_site_id
_symmetry_equiv_pos_as_xyz
1 x,y,z
2 -x,-y,1/2+z
3 1/2-x,y,1/2+z
4 1/2+x,-y,z
_cell_length_a                   9.991(5)
_cell_length_b                   8.531(6)
_cell_length_c                   14.359(5)
_cell_angle_alpha                90
_cell_angle_beta                 90
_cell_angle_gamma                90
_cell_volume                     1223.86
loop_
_atom_site_label
_atom_site_type_symbol
_atom_site_fract_x
_atom_site_fract_y
_atom_site_fract_z
Cu1 Cu 0.62030(3) 0.30440(4) 0.49625(5)
O1 O 0.6662(3) 0.1936(3) 0.6140(2)
O2 O 0.8303(4) 0.1010(4) 0.6950(2)
O3 O 0.8665(3) 0.1934(3) 0.5568(3)
O4 O 0.5602(3) 0.4150(3) 0.38263(18)
O5 O 0.7612(3) 0.3624(4) 0.3352(2)
O6 O 0.6164(3) 0.4613(4) 0.2395(2)
N1 N 0.7926(3) 0.1625(3) 0.6224(2)
N2 N 0.6490(3) 0.4132(3) 0.3167(2)
N3 N 0.5773(3) 0.0968(3) 0.4323(2)
N4 N 0.6375(4) -0.1684(4) 0.4031(4)
N5 N 0.7083(2) 0.5032(3) 0.5453(2)
N6 N 0.9050(3) 0.6583(3) 0.5491(2)
C1 C 0.6554(4) -0.0286(4) 0.4433(3)
H1 H 0.7289 -0.0179 0.4825
C2 C 0.5311(4) -0.1816(4) 0.3480(3)
H2 H 0.5145 -0.2773 0.3192
C3 C 0.4459(4) -0.0605(5) 0.3323(3)
H3 H 0.3719 -0.0723 0.2936
C4 C 0.4724(4) 0.0815(4) 0.3756(3)
H4 H 0.4164 0.1668 0.3651
C5 C 0.8318(3) 0.5389(4) 0.5181(2)
H5 H 0.8705 0.4745 0.4733
C6 C 0.8461(4) 0.7534(4) 0.6119(3)
H6 H 0.8938 0.8383 0.6353
C7 C 0.7192(4) 0.7284(4) 0.6417(3)
H7 H 0.6785 0.7971 0.6833
C8 C 0.6518(4) 0.5982(4) 0.6087(3)
H8 H 0.5663 0.5760 0.6307
N6C N 0.4050(3) 0.3417(3) 0.5491(2)
Cu1C Cu 1.12030(3) 0.69560(4) 0.49625(5)
loop_
_geom_bond_atom_site_label_1
_geom_bond_atom_site_label_2
_geom_bond_site_symmetry_1
_geom_bond_site_symmetry_2
Cu1 O1 1_555 1_555
O1 N1 1_555 1_555
O2 N1 1_555 1_555
O3 N1 1_555 1_555
O4 Cu1 1_555 1_555
O5 N2 1_555 1_555
O6 N2 1_555 1_555
N2 O4 1_555 1_555
N3 Cu1 1_555 1_555
N4 C1 1_555 1_555
N5 Cu1 1_555 1_555
N6 C5 1_555 1_555
C1 N3 1_555 1_555
H1 C1 1_555 1_555
C2 N4 1_555 1_555
H2 C2 1_555 1_555
C3 C2 1_555 1_555
H3 C3 1_555 1_555
C4 N3 1_555 1_555
H4 C4 1_555 1_555
C5 N5 1_555 1_555
H5 C5 1_555 1_555
C6 N6 1_555 1_555
H6 C6 1_555 1_555
C7 C6 1_555 1_555
H7 C7 1_555 1_555
C8 N5 1_555 1_555
H8 C8 1_555 1_555
N6C Cu1 1_555 1_555
Cu1C N6 1_555 1_555
C3 C4 1_555 1_555
C7 C8 1_555 1_555

#END
