
#######################################################################
#
#                 Cambridge Crystallographic Data Centre
#                                CCDC 
#
#######################################################################
#
# If this CIF has been generated from an entry in the Cambridge 
# Structural Database, then it will include bibliographic, chemical, 
# crystal, experimental, refinement or atomic coordinate data resulting 
# from the CCDC's data processing and validation procedures.
#
#######################################################################

data_WOCCOG
_symmetry_cell_setting           orthorhombic
_symmetry_space_group_name_H-M   'P c a 21'
_symmetry_Int_Tables_number      29
_space_group_name_Hall           'P 2c -2ac'
loop_
_symmetry_equiv_pos_site_id
_symmetry_equiv_pos_as_xyz
1 x,y,z
2 -x,-y,1/2+z
3 1/2+x,-y,z
4 1/2-x,y,1/2+z
_cell_length_a                   9.987(2)
_cell_length_b                   8.451(2)
_cell_length_c                   14.233(3)
_cell_angle_alpha                90
_cell_angle_beta                 90
_cell_angle_gamma                90
_cell_volume                     1201.27
loop_
_atom_site_label
_atom_site_type_symbol
_atom_site_fract_x
_atom_site_fract_y
_atom_site_fract_z
Cu1 Cu 0.37947(4) -0.30486(5) -0.00281(6)
N1 N 0.4215(4) -0.0966(4) -0.0679(3)
C1 C 0.3432(5) 0.0296(5) -0.0578(4)
H1 H 0.2676 0.0186 -0.0179
N2 N 0.3609(5) 0.1698(5) -0.0985(4)
C2 C 0.4682(5) 0.1841(5) -0.1523(4)
H2 H 0.4855 0.2831 -0.1814
C3 C 0.5547(5) 0.0624(6) -0.1674(4)
H3 H 0.6309 0.0751 -0.2066
C4 C 0.5281(5) -0.0808(5) -0.1235(3)
H4 H 0.5862 -0.1683 -0.1333
N3 N 0.2914(3) -0.5042(4) 0.0463(3)
C5 C 0.1673(4) -0.5387(5) 0.0180(3)
H5 H 0.1281 -0.4718 -0.0280
N4 N 0.0944(4) -0.6590(5) 0.0492(3)
C6 C 0.1526(5) -0.7558(5) 0.1116(3)
H6 H 0.1034 -0.8433 0.1354
C7 C 0.2806(5) -0.7320(5) 0.1420(4)
H7 H 0.3218 -0.8030 0.1849
C8 C 0.3483(5) -0.6012(6) 0.1084(4)
H8 H 0.4366 -0.5802 0.1298
N5 N 0.3498(4) -0.4137(4) -0.1844(3)
O1 O 0.4396(3) -0.4155(4) -0.1185(2)
O2 O 0.2377(3) -0.3630(4) -0.1651(3)
O3 O 0.3831(3) -0.4616(5) -0.2621(3)
N6 N 0.2054(4) -0.1637(4) 0.1238(3)
O4 O 0.3322(4) -0.1942(3) 0.1147(3)
O5 O 0.1315(3) -0.1942(4) 0.0571(3)
O6 O 0.1673(4) -0.1021(4) 0.1965(2)
N4B N 0.5944(4) -0.3410(5) 0.0492(3)
Cu1B Cu -0.12053(4) -0.69514(5) -0.00281(6)
loop_
_geom_bond_atom_site_label_1
_geom_bond_atom_site_label_2
_geom_bond_site_symmetry_1
_geom_bond_site_symmetry_2
Cu1 N1 1_555 1_555
N1 C1 1_555 1_555
C1 H1 1_555 1_555
N2 C1 1_555 1_555
C2 N2 1_555 1_555
H2 C2 1_555 1_555
C3 C2 1_555 1_555
H3 C3 1_555 1_555
C4 N1 1_555 1_555
H4 C4 1_555 1_555
N3 Cu1 1_555 1_555
C5 N3 1_555 1_555
H5 C5 1_555 1_555
N4 C5 1_555 1_555
C6 N4 1_555 1_555
H6 C6 1_555 1_555
C7 C6 1_555 1_555
H7 C7 1_555 1_555
C8 N3 1_555 1_555
H8 C8 1_555 1_555
N5 O1 1_555 1_555
O1 Cu1 1_555 1_555
O2 N5 1_555 1_555
O3 N5 1_555 1_555
N6 O4 1_555 1_555
O4 Cu1 1_555 1_555
O5 N6 1_555 1_555
O6 N6 1_555 1_555
N4B Cu1 1_555 1_555
Cu1B N4 1_555 1_555
C3 C4 1_555 1_555
C7 C8 1_555 1_555

#END
