
#######################################################################
#
#                 Cambridge Crystallographic Data Centre
#                                CCDC 
#
#######################################################################
#
# If this CIF has been generated from an entry in the Cambridge 
# Structural Database, then it will include bibliographic, chemical, 
# crystal, experimental, refinement or atomic coordinate data resulting 
# from the CCDC's data processing and validation procedures.
#
#######################################################################

data_WOCGUR
_symmetry_cell_setting           monoclinic
_symmetry_space_group_name_H-M   'P 2/c'
_symmetry_Int_Tables_number      13
_space_group_name_Hall           '-P 2yc'
loop_
_symmetry_equiv_pos_site_id
_symmetry_equiv_pos_as_xyz
1 x,y,z
2 -x,y,1/2-z
3 -x,-y,-z
4 x,-y,1/2+z
_cell_length_a                   14.874(3)
_cell_length_b                   6.8373(14)
_cell_length_c                   13.141(3)
_cell_angle_alpha                90
_cell_angle_beta                 108.51(3)
_cell_angle_gamma                90
_cell_volume                     1267.28
loop_
_atom_site_label
_atom_site_type_symbol
_atom_site_fract_x
_atom_site_fract_y
_atom_site_fract_z
C1 C 0.3940(9) 0.7050(19) 0.8290(13)
O1 O 0.4039(8) 0.6054(17) 0.7365(9)
O2 O 0.4708(9) 0.7605(18) 0.8907(11)
C2 C 0.3068(11) 0.808(3) 0.8075(14)
C3 C 0.2315(11) 0.671(2) 0.7835(14)
H1 H 0.2408 0.5418 0.7681
C4 C 0.1439(12) 0.737(3) 0.7837(16)
H2 H 0.0921 0.6525 0.7660
C5 C 0.1340(12) 0.937(3) 0.8119(17)
H3 H 0.0759 0.9791 0.8163
C6 C 0.2067(12) 1.068(3) 0.8323(15)
H4 H 0.1977 1.1973 0.8486
C7 C 0.2963(11) 1.004(2) 0.8283(12)
C8 C 0.3719(10) 1.157(2) 0.8425(12)
C9 C 0.2018(11) 0.469(2) 0.5339(14)
C10 C 0.0952(11) 0.483(3) 0.5162(13)
C11 C 0.0479(14) 0.323(3) 0.5306(18)
H5 H 0.0791 0.2052 0.5538
C12 C 0.0519(15) 0.660(3) 0.491(2)
H6 H 0.0876 0.7699 0.4875
Co1 Co 0.38370(14) 0.6843(3) 0.56763(16)
Co2 Co 0.5000 0.3730(4) 0.7500
O3 O 0.4135(9) 1.1558(17) 0.7726(10)
O4 O 0.3847(8) 1.2866(17) 0.9110(9)
O5 O 0.2426(7) 0.6298(18) 0.5224(9)
O6 O 0.2419(9) 0.3132(19) 0.5605(12)
O7 O 0.5830(7) 0.3812(15) 0.9204(8)
O8 O 0.3509(10) 0.9719(18) 0.5859(10)
C1A C 0.6060(9) 0.7050(19) 0.6710(13)
O1A O 0.5961(8) 0.6054(17) 0.7635(9)
O2A O 0.5292(9) 0.7605(18) 0.6093(11)
C2A C 0.6932(11) 0.808(3) 0.6925(14)
C3A C 0.7685(11) 0.671(2) 0.7165(14)
H1A H 0.7592 0.5418 0.7319
C4A C 0.8561(12) 0.737(3) 0.7163(16)
H2A H 0.9079 0.6525 0.7340
C5A C 0.8660(12) 0.937(3) 0.6881(17)
H3A H 0.9241 0.9791 0.6837
C6A C 0.7933(12) 1.068(3) 0.6677(15)
H4A H 0.8023 1.1973 0.6514
C7A C 0.7037(11) 1.004(2) 0.6717(12)
C8A C 0.6281(10) 1.157(2) 0.6575(12)
C9B C -0.2018(11) 0.531(2) 0.4661(14)
C10B C -0.0952(11) 0.517(3) 0.4838(13)
C11B C -0.0479(14) 0.677(3) 0.4694(18)
H5B H -0.0791 0.7948 0.4462
C12B C -0.0519(15) 0.340(3) 0.509(2)
H6B H -0.0876 0.2301 0.5125
Co1A Co 0.61630(14) 0.6843(3) 0.93237(16)
Co1C Co 0.38370(14) 1.3157(3) 1.06763(16)
Co1B Co -0.38370(14) 0.3157(3) 0.43237(16)
Co1B_2 Co 0.61630(14) 1.3157(3) 0.43237(16)
Co2_2 Co 0.5000 1.3730(4) 0.7500
O3A O 0.5865(9) 1.1558(17) 0.7274(10)
O3_2 O 0.4135(9) 0.1558(17) 0.7726(10)
O3A_2 O 0.5865(9) 0.1558(17) 0.7274(10)
O4A O 0.6153(8) 1.2866(17) 0.5890(9)
O4C O 0.3847(8) 0.7134(17) 0.4110(9)
O4B O 0.6153(8) 0.7134(17) 1.0890(9)
O5B O -0.2426(7) 0.3702(18) 0.4776(9)
O5A O 0.7574(7) 0.6298(18) 0.9776(9)
O6B O -0.2419(9) 0.6868(19) 0.4395(12)
O7A O 0.4170(7) 0.3812(15) 0.5796(8)
O8A O 0.6491(10) 0.9719(18) 0.9141(10)
loop_
_geom_bond_atom_site_label_1
_geom_bond_atom_site_label_2
_geom_bond_site_symmetry_1
_geom_bond_site_symmetry_2
C1 O1 1_555 1_555
O1 Co1 1_555 1_555
O2 C1 1_555 1_555
C2 C1 1_555 1_555
C3 C2 1_555 1_555
H1 C3 1_555 1_555
C4 C3 1_555 1_555
H2 C4 1_555 1_555
C5 C4 1_555 1_555
H3 C5 1_555 1_555
C6 C5 1_555 1_555
H4 C6 1_555 1_555
C7 C2 1_555 1_555
C8 C7 1_555 1_555
C9 C10 1_555 1_555
C10 C11 1_555 1_555
C11 H5 1_555 1_555
C12 C10 1_555 1_555
H6 C12 1_555 1_555
Co1 O5 1_555 1_555
Co2 O1 1_555 1_555
O3 C8 1_555 1_555
O4 C8 1_555 1_555
O5 C9 1_555 1_555
O6 C9 1_555 1_555
O7 Co2 1_555 1_555
O8 Co1 1_555 1_555
C1A O1A 1_555 1_555
O1A Co2 1_555 1_555
O2A Co1 1_555 1_555
C2A C1A 1_555 1_555
C3A C2A 1_555 1_555
H1A C3A 1_555 1_555
C4A C3A 1_555 1_555
H2A C4A 1_555 1_555
C5A C4A 1_555 1_555
H3A C5A 1_555 1_555
C6A C5A 1_555 1_555
H4A C6A 1_555 1_555
C7A C2A 1_555 1_555
C8A C7A 1_555 1_555
C9B C10B 1_555 1_555
C10B C11B 1_555 1_555
C11B C12 1_555 1_555
H5B C11B 1_555 1_555
C12B C11 1_555 1_555
H6B C12B 1_555 1_555
Co1A O2 1_555 1_555
Co1C O4 1_555 1_555
Co1B O5B 1_555 1_555
Co1B_2 O4A 1_555 1_555
Co2_2 O3 1_555 1_555
O3A C8A 1_555 1_555
O3_2 Co2 1_555 1_555
O3A_2 Co2 1_555 1_555
O4A C8A 1_555 1_555
O4C Co1 1_555 1_555
O4B Co1A 1_555 1_555
O5B C9B 1_555 1_555
O5A Co1A 1_555 1_555
O6B C9B 1_555 1_555
O7A Co1 1_555 1_555
O8A Co1A 1_555 1_555
C6 C7 1_555 1_555
Co2 O7A 1_555 1_555
O7 Co1A 1_555 1_555
C1A O2A 1_555 1_555
O1A Co1A 1_555 1_555
C6A C7A 1_555 1_555
C10B C12B 1_555 1_555
Co2_2 O3A 1_555 1_555

#END
