
#######################################################################
#
#                 Cambridge Crystallographic Data Centre
#                                CCDC 
#
#######################################################################
#
# If this CIF has been generated from an entry in the Cambridge 
# Structural Database, then it will include bibliographic, chemical, 
# crystal, experimental, refinement or atomic coordinate data resulting 
# from the CCDC's data processing and validation procedures.
#
#######################################################################

data_WOCGOL01
_symmetry_cell_setting           monoclinic
_symmetry_space_group_name_H-M   'P 21/c'
_symmetry_Int_Tables_number      14
_space_group_name_Hall           '-P 2ybc'
loop_
_symmetry_equiv_pos_site_id
_symmetry_equiv_pos_as_xyz
1 x,y,z
2 -x,1/2+y,1/2-z
3 -x,-y,-z
4 x,1/2-y,1/2+z
_cell_length_a                   9.2092(18)
_cell_length_b                   15.768(3)
_cell_length_c                   8.8739(18)
_cell_angle_alpha                90
_cell_angle_beta                 98.31(3)
_cell_angle_gamma                90
_cell_volume                     1275.06
loop_
_atom_site_label
_atom_site_type_symbol
_atom_site_fract_x
_atom_site_fract_y
_atom_site_fract_z
Pr1 Pr 0.894311(12) 0.114458(7) -0.028636(13)
C1 C 1.0898(3) 0.07207(15) 0.2605(3)
C2 C 1.1693(3) 0.04347(17) 0.4117(3)
H1 H 1.1920 0.0921 0.4778
H2 H 1.2608 0.0163 0.3975
C3 C 1.0732(3) -0.01899(18) 0.4854(3)
H3 H 1.0537 -0.0680 0.4196
H4 H 1.1269 -0.0383 0.5813
C4 C 0.2325(2) 0.06431(15) -0.1428(3)
C5 C 0.3613(2) 0.11003(14) -0.1942(3)
C6 C 0.3418(3) 0.18672(16) -0.2711(3)
H5 H 0.2495 0.2117 -0.2900
C7 C 0.7357(2) 0.22764(14) -0.3284(3)
C8 C 0.5029(2) 0.07804(15) -0.1618(3)
H6 H 0.5162 0.0263 -0.1112
C9 C 0.5985(2) 0.18909(14) -0.2813(3)
C10 C 0.4622(3) 0.22562(16) -0.3194(3)
H7 H 0.4511 0.2753 -0.3764
O1 O 0.85548(17) 0.19357(11) -0.27275(19)
O2 O 1.0207(2) 0.25587(11) 0.0046(2)
H8 H 0.9866 0.2884 -0.0685
H9 H 1.0055 0.2778 0.0884
O3 O 0.11747(18) 0.10708(11) -0.1472(2)
O4 O 1.0155(2) 0.13890(11) 0.2488(2)
O5 O 1.09365(18) 0.02555(10) 0.14440(19)
O6 O 0.72148(18) 0.28827(12) -0.4201(2)
O7 O 0.25034(17) -0.01201(10) -0.1024(2)
N1 N 0.6210(2) 0.11739(12) -0.1993(2)
Pr1_2 Pr 1.894311(12) 0.114458(7) -0.028636(13)
Pr1_3 Pr -0.105689(12) 0.114458(7) -0.028636(13)
Pr1B Pr 1.105689(12) -0.114458(7) 0.028636(13)
Pr1C Pr 0.894311(12) 0.385542(7) -0.528636(13)
Pr1B_2 Pr 0.105689(12) -0.114458(7) 0.028636(13)
Pr1B_3 Pr 1.105689(12) -0.114458(7) 1.028636(13)
Pr1_4 Pr 0.894311(12) 0.114458(7) 0.971364(13)
Pr1C_2 Pr 1.894311(12) 0.385542(7) -0.528636(13)
C1B C 0.9102(3) -0.07207(15) 0.7395(3)
C2B C 0.8307(3) -0.04347(17) 0.5883(3)
H1B H 0.8080 -0.0921 0.5222
H2B H 0.7392 -0.0163 0.6025
C3B C 0.9268(3) 0.01899(18) 0.5146(3)
H3B H 0.9463 0.0680 0.5804
H4B H 0.8731 0.0383 0.4187
C4_2 C 1.2325(2) 0.06431(15) -0.1428(3)
C5_2 C 1.3613(2) 0.11003(14) -0.1942(3)
C6_2 C 1.3418(3) 0.18672(16) -0.2711(3)
H5_2 H 1.2495 0.2117 -0.2900
C7_2 C 1.7357(2) 0.22764(14) -0.3284(3)
C8_2 C 1.5029(2) 0.07804(15) -0.1618(3)
H6_2 H 1.5162 0.0263 -0.1112
C9_2 C 1.5985(2) 0.18909(14) -0.2813(3)
C10_2 C 1.4622(3) 0.22562(16) -0.3194(3)
H7_2 H 1.4511 0.2753 -0.3764
O1_2 O 1.85548(17) 0.19357(11) -0.27275(19)
O2_2 O 2.0207(2) 0.25587(11) 0.0046(2)
H8_2 H 1.9866 0.2884 -0.0685
H9_2 H 2.0055 0.2778 0.0884
O3_2 O 1.11747(18) 0.10708(11) -0.1472(2)
O3_3 O 2.11747(18) 0.10708(11) -0.1472(2)
O4B O 0.9845(2) -0.13890(11) 0.7512(2)
O4_2 O 2.0155(2) 0.13890(11) 0.2488(2)
O5B O 0.90635(18) -0.02555(10) 0.85560(19)
O5B_2 O 0.90635(18) -0.02555(10) -0.14440(19)
O5_2 O 2.09365(18) 0.02555(10) 0.14440(19)
O5B_3 O 1.90635(18) -0.02555(10) -0.14440(19)
O6_2 O 1.72148(18) 0.28827(12) -0.4201(2)
O6C O 0.72148(18) 0.21173(12) 0.0799(2)
O6C_2 O 1.72148(18) 0.21173(12) 0.0799(2)
O7_2 O 1.25034(17) -0.01201(10) -0.1024(2)
O7B O 0.74966(17) 0.01201(10) 0.1024(2)
O7B_2 O 1.74966(17) 0.01201(10) 0.1024(2)
N1_2 N 1.6210(2) 0.11739(12) -0.1993(2)
loop_
_geom_bond_atom_site_label_1
_geom_bond_atom_site_label_2
_geom_bond_site_symmetry_1
_geom_bond_site_symmetry_2
Pr1 O1 1_555 1_555
C1 C2 1_555 1_555
C2 H1 1_555 1_555
H2 C2 1_555 1_555
C3 C2 1_555 1_555
H3 C3 1_555 1_555
H4 C3 1_555 1_555
C4 C5 1_555 1_555
C5 C6 1_555 1_555
C6 H5 1_555 1_555
C7 C9 1_555 1_555
C8 C5 1_555 1_555
H6 C8 1_555 1_555
C9 C10 1_555 1_555
C10 C6 1_555 1_555
H7 C10 1_555 1_555
O1 C7 1_555 1_555
O2 Pr1 1_555 1_555
H8 O2 1_555 1_555
H9 O2 1_555 1_555
O3 C4 1_555 1_555
O4 Pr1 1_555 1_555
O5 Pr1 1_555 1_555
O6 C7 1_555 1_555
O7 C4 1_555 1_555
N1 Pr1 1_555 1_555
Pr1_2 O1_2 1_555 1_555
Pr1_3 O3 1_555 1_555
Pr1B O5 1_555 1_555
Pr1C O6 1_555 1_555
Pr1B_2 O7 1_555 1_555
Pr1B_3 O4B 1_555 1_555
Pr1_4 O5B 1_555 1_555
Pr1C_2 O6_2 1_555 1_555
C1B C2B 1_555 1_555
C2B H1B 1_555 1_555
H2B C2B 1_555 1_555
C3B C3 1_555 1_555
H3B C3B 1_555 1_555
H4B C3B 1_555 1_555
C4_2 C5_2 1_555 1_555
C5_2 C6_2 1_555 1_555
C6_2 H5_2 1_555 1_555
C7_2 C9_2 1_555 1_555
C8_2 C5_2 1_555 1_555
H6_2 C8_2 1_555 1_555
C9_2 C10_2 1_555 1_555
C10_2 C6_2 1_555 1_555
H7_2 C10_2 1_555 1_555
O1_2 C7_2 1_555 1_555
O2_2 Pr1_2 1_555 1_555
H8_2 O2_2 1_555 1_555
H9_2 O2_2 1_555 1_555
O3_2 Pr1 1_555 1_555
O3_3 Pr1_2 1_555 1_555
O4B C1B 1_555 1_555
O4_2 Pr1_2 1_555 1_555
O5B Pr1B_3 1_555 1_555
O5B_2 Pr1 1_555 1_555
O5_2 Pr1_2 1_555 1_555
O5B_3 Pr1_2 1_555 1_555
O6_2 C7_2 1_555 1_555
O6C Pr1 1_555 1_555
O6C_2 Pr1_2 1_555 1_555
O7_2 Pr1B 1_555 1_555
O7B Pr1 1_555 1_555
O7B_2 Pr1_2 1_555 1_555
N1_2 Pr1_2 1_555 1_555
C1 O4 1_555 1_555
C1 O5 1_555 1_555
C8 N1 1_555 1_555
C9 N1 1_555 1_555
Pr1B O5B_2 1_555 1_555
C1B O5B 1_555 1_555
C2B C3B 1_555 1_555
C4_2 O3_2 1_555 1_555
C4_2 O7_2 1_555 1_555
C8_2 N1_2 1_555 1_555
C9_2 N1_2 1_555 1_555

#END
