
#######################################################################
#
#                 Cambridge Crystallographic Data Centre
#                                CCDC 
#
#######################################################################
#
# If this CIF has been generated from an entry in the Cambridge 
# Structural Database, then it will include bibliographic, chemical, 
# crystal, experimental, refinement or atomic coordinate data resulting 
# from the CCDC's data processing and validation procedures.
#
#######################################################################

data_WOCGOL
_symmetry_cell_setting           monoclinic
_symmetry_space_group_name_H-M   'P 21/c'
_symmetry_Int_Tables_number      14
_space_group_name_Hall           '-P 2ybc'
loop_
_symmetry_equiv_pos_site_id
_symmetry_equiv_pos_as_xyz
1 x,y,z
2 -x,1/2+y,1/2-z
3 -x,-y,-z
4 x,1/2-y,1/2+z
_cell_length_a                   9.092(3)
_cell_length_b                   15.526(6)
_cell_length_c                   8.766(3)
_cell_angle_alpha                90
_cell_angle_beta                 98.396(5)
_cell_angle_gamma                90
_cell_volume                     1224.17
loop_
_atom_site_label
_atom_site_type_symbol
_atom_site_fract_x
_atom_site_fract_y
_atom_site_fract_z
C1 C 0.4091(13) 0.0713(7) 0.2387(13)
C2 C 1.2686(12) 0.0645(8) 0.6430(13)
C3 C 1.1392(12) 0.1102(8) 0.6954(12)
C4 C 0.7646(12) 0.2273(8) 0.8266(13)
C5 C 0.4272(14) -0.0186(9) 0.0132(16)
H1 H 0.4456 -0.0697 0.0769
H2 H 0.3725 -0.0363 -0.0852
C6 C 0.9991(12) 0.0782(8) 0.6609(13)
H3 H 0.9858 0.0261 0.6084
C7 C 0.3317(14) 0.0436(8) 0.0906(14)
H4 H 0.3078 0.0934 0.0247
H5 H 0.2394 0.0156 0.1048
C8 C 1.0397(13) 0.2256(9) 0.8202(16)
H6 H 1.0514 0.2757 0.8789
C9 C 0.9029(12) 0.1892(7) 0.7813(14)
C10 C 1.1578(14) 0.1870(8) 0.7714(16)
H7 H 1.2511 0.2127 0.7896
H8 H 0.51(3) 0.294(10) 0.560(12)
H9 H 0.512(13) 0.280(7) 0.419(9)
N1 N 0.8805(10) 0.1180(6) 0.6989(10)
O1 O 1.3825(9) 0.1077(5) 0.6479(10)
O2 O 0.7800(8) 0.2884(5) 0.9192(10)
O3 O 0.4850(11) 0.1387(5) 0.2504(10)
O4 O 0.4795(10) 0.2561(6) 0.4952(11)
O5 O 1.2501(8) -0.0118(5) 0.6012(9)
O6 O 0.4064(9) 0.0258(5) 0.3547(9)
O7 O 0.6454(8) 0.1932(5) 0.7717(9)
Pr1 Pr 0.60599(7) 0.11445(4) 0.52843(7)
C1B C 0.5909(13) -0.0713(7) -0.2387(13)
C2_2 C 0.2686(12) 0.0645(8) 0.6430(13)
C3_2 C 0.1392(12) 0.1102(8) 0.6954(12)
C4_2 C -0.2354(12) 0.2273(8) 0.8266(13)
C5B C 0.5728(14) 0.0186(9) -0.0132(16)
H1B H 0.5544 0.0697 -0.0769
H2B H 0.6275 0.0363 0.0852
C6_2 C -0.0009(12) 0.0782(8) 0.6609(13)
H3_2 H -0.0142 0.0261 0.6084
C7B C 0.6683(14) -0.0436(8) -0.0906(14)
H4B H 0.6922 -0.0934 -0.0247
H5B H 0.7606 -0.0156 -0.1048
C8_2 C 0.0397(13) 0.2256(9) 0.8202(16)
H6_2 H 0.0514 0.2757 0.8789
C9_2 C -0.0971(12) 0.1892(7) 0.7813(14)
C10_2 C 0.1578(14) 0.1870(8) 0.7714(16)
H7_2 H 0.2511 0.2127 0.7896
H8_2 H -0.49(3) 0.294(10) 0.560(12)
H9_2 H -0.488(13) 0.280(7) 0.419(9)
N1_2 N -0.1195(10) 0.1180(6) 0.6989(10)
O1_2 O 0.3825(9) 0.1077(5) 0.6479(10)
O1_3 O -0.6175(9) 0.1077(5) 0.6479(10)
O2_2 O -0.2200(8) 0.2884(5) 0.9192(10)
O2C O 0.7800(8) 0.2116(5) 0.4192(10)
O2C_2 O -0.2200(8) 0.2116(5) 0.4192(10)
O3B O 0.5150(11) -0.1387(5) -0.2504(10)
O3_2 O -0.5150(11) 0.1387(5) 0.2504(10)
O4_2 O -0.5205(10) 0.2561(6) 0.4952(11)
O5_2 O 0.2501(8) -0.0118(5) 0.6012(9)
O5B O 0.7499(8) 0.0118(5) 0.3988(9)
O5B_2 O -0.2501(8) 0.0118(5) 0.3988(9)
O6B O 0.5936(9) -0.0258(5) -0.3547(9)
O6B_2 O 0.5936(9) -0.0258(5) 0.6453(9)
O6_2 O -0.5936(9) 0.0258(5) 0.3547(9)
O6B_3 O -0.4064(9) -0.0258(5) 0.6453(9)
O7_2 O -0.3546(8) 0.1932(5) 0.7717(9)
Pr1_2 Pr -0.39401(7) 0.11445(4) 0.52843(7)
Pr1_3 Pr 1.60599(7) 0.11445(4) 0.52843(7)
Pr1C Pr 0.60599(7) 0.38555(4) 1.02843(7)
Pr1B Pr 1.39401(7) -0.11445(4) 0.47157(7)
Pr1B_2 Pr 0.39401(7) -0.11445(4) 0.47157(7)
Pr1B_3 Pr 0.39401(7) -0.11445(4) -0.52843(7)
Pr1_4 Pr 0.60599(7) 0.11445(4) -0.47157(7)
Pr1C_2 Pr -0.39401(7) 0.38555(4) 1.02843(7)
loop_
_geom_bond_atom_site_label_1
_geom_bond_atom_site_label_2
_geom_bond_site_symmetry_1
_geom_bond_site_symmetry_2
C1 C7 1_555 1_555
C2 C3 1_555 1_555
C3 C6 1_555 1_555
C4 C9 1_555 1_555
C5 H1 1_555 1_555
H2 C5 1_555 1_555
C6 H3 1_555 1_555
C7 C5 1_555 1_555
H4 C7 1_555 1_555
H5 C7 1_555 1_555
C8 H6 1_555 1_555
C9 C8 1_555 1_555
C10 C3 1_555 1_555
H7 C10 1_555 1_555
H8 O4 1_555 1_555
H9 O4 1_555 1_555
N1 C6 1_555 1_555
O1 C2 1_555 1_555
O2 C4 1_555 1_555
O3 C1 1_555 1_555
O4 Pr1 1_555 1_555
O5 C2 1_555 1_555
O6 C1 1_555 1_555
O7 C4 1_555 1_555
Pr1 N1 1_555 1_555
C1B C7B 1_555 1_555
C2_2 C3_2 1_555 1_555
C3_2 C6_2 1_555 1_555
C4_2 C9_2 1_555 1_555
C5B C5 1_555 1_555
H1B C5B 1_555 1_555
H2B C5B 1_555 1_555
C6_2 H3_2 1_555 1_555
C7B C5B 1_555 1_555
H4B C7B 1_555 1_555
H5B C7B 1_555 1_555
C8_2 H6_2 1_555 1_555
C9_2 C8_2 1_555 1_555
C10_2 C3_2 1_555 1_555
H7_2 C10_2 1_555 1_555
H8_2 O4_2 1_555 1_555
H9_2 O4_2 1_555 1_555
N1_2 C6_2 1_555 1_555
O1_2 Pr1 1_555 1_555
O1_3 Pr1_2 1_555 1_555
O2_2 C4_2 1_555 1_555
O2C Pr1 1_555 1_555
O2C_2 Pr1_2 1_555 1_555
O3B C1B 1_555 1_555
O3_2 Pr1_2 1_555 1_555
O4_2 Pr1_2 1_555 1_555
O5_2 C2_2 1_555 1_555
O5B Pr1 1_555 1_555
O5B_2 Pr1_2 1_555 1_555
O6B C1B 1_555 1_555
O6B_2 Pr1 1_555 1_555
O6_2 Pr1_2 1_555 1_555
O6B_3 Pr1_2 1_555 1_555
O7_2 C4_2 1_555 1_555
Pr1_2 N1_2 1_555 1_555
Pr1_3 O1 1_555 1_555
Pr1C O2 1_555 1_555
Pr1B O5 1_555 1_555
Pr1B_2 O6 1_555 1_555
Pr1B_3 O3B 1_555 1_555
Pr1_4 O6B 1_555 1_555
Pr1C_2 O2_2 1_555 1_555
C8 C10 1_555 1_555
C9 N1 1_555 1_555
O3 Pr1 1_555 1_555
O6 Pr1 1_555 1_555
O7 Pr1 1_555 1_555
C2_2 O1_2 1_555 1_555
C8_2 C10_2 1_555 1_555
C9_2 N1_2 1_555 1_555
O5_2 Pr1B_2 1_555 1_555
O6B Pr1B_3 1_555 1_555
O6B_2 Pr1B_2 1_555 1_555
O7_2 Pr1_2 1_555 1_555

#END
