
#######################################################################
#
#                 Cambridge Crystallographic Data Centre
#                                CCDC 
#
#######################################################################
#
# If this CIF has been generated from an entry in the Cambridge 
# Structural Database, then it will include bibliographic, chemical, 
# crystal, experimental, refinement or atomic coordinate data resulting 
# from the CCDC's data processing and validation procedures.
#
#######################################################################

data_WOCHAY01
_symmetry_cell_setting           monoclinic
_symmetry_space_group_name_H-M   'P 21/c'
_symmetry_Int_Tables_number      14
_space_group_name_Hall           '-P 2ybc'
loop_
_symmetry_equiv_pos_site_id
_symmetry_equiv_pos_as_xyz
1 x,y,z
2 -x,1/2+y,1/2-z
3 -x,-y,-z
4 x,1/2-y,1/2+z
_cell_length_a                   9.2361(18)
_cell_length_b                   14.254(3)
_cell_length_c                   9.6006(19)
_cell_angle_alpha                90
_cell_angle_beta                 96.38(3)
_cell_angle_gamma                90
_cell_volume                     1256.1
loop_
_atom_site_label
_atom_site_type_symbol
_atom_site_fract_x
_atom_site_fract_y
_atom_site_fract_z
Tb1 Tb 0.37940(3) 0.116409(19) 0.98725(3)
C1 C 0.3847(7) -0.0085(5) 0.7436(7)
C2 C 0.3696(8) -0.0656(5) 0.6109(8)
H1 H 0.2685 -0.0839 0.5884
H2 H 0.4272 -0.1224 0.6256
C3 C 0.4189(7) -0.0117(5) 0.4888(7)
H3 H 0.3634 0.0460 0.4759
H4 H 0.3991 -0.0488 0.4041
C4 C -0.2707(6) 0.0986(4) 0.9171(6)
C5 C -0.1401(6) 0.1528(5) 0.8749(7)
C6 C -0.0003(7) 0.1244(4) 0.9272(7)
H5 H 0.0099 0.0722 0.9856
C7 C 0.1033(6) 0.2433(5) 0.8126(7)
C8 C -0.0308(7) 0.2772(5) 0.7590(8)
H6 H -0.0380 0.3299 0.7015
C9 C -0.1552(7) 0.2315(5) 0.7921(8)
H7 H -0.2472 0.2539 0.7588
C10 C 0.2455(6) 0.2867(4) 0.7782(7)
O1 O 0.3582(4) 0.2571(3) 0.8509(5)
O2 O 0.5051(5) 0.2477(3) 1.1169(5)
H8 H 0.4605 0.2614 1.1870
H9 H 0.5055 0.2951 1.0633
O3 O -0.3918(4) 0.1386(3) 0.8964(5)
O4 O 0.4618(5) -0.0384(3) 0.8506(5)
O5 O 0.3217(5) 0.0680(3) 0.7462(5)
O6 O -0.2441(4) 0.0189(3) 0.9674(5)
O7 O 0.2421(4) 0.3436(3) 0.6810(5)
N1 N 0.1195(5) 0.1688(4) 0.8972(6)
Tb1_2 Tb 1.37940(3) 0.116409(19) 0.98725(3)
Tb1_3 Tb -0.62060(3) 0.116409(19) 0.98725(3)
Tb1B Tb 0.62060(3) -0.116409(19) 1.01275(3)
Tb1B_2 Tb -0.37940(3) -0.116409(19) 1.01275(3)
Tb1C Tb 0.37940(3) 0.383591(19) 0.48725(3)
Tb1B_3 Tb 0.62060(3) -0.116409(19) 0.01275(3)
Tb1_4 Tb 0.37940(3) 0.116409(19) -0.01275(3)
Tb1C_2 Tb 1.37940(3) 0.383591(19) 0.48725(3)
C1B C 0.6153(7) 0.0085(5) 0.2564(7)
C2B C 0.6304(8) 0.0656(5) 0.3891(8)
H1B H 0.7315 0.0839 0.4116
H2B H 0.5728 0.1224 0.3744
C3B C 0.5811(7) 0.0117(5) 0.5112(7)
H3B H 0.6366 -0.0460 0.5241
H4B H 0.6009 0.0488 0.5959
C4_2 C 0.7293(6) 0.0986(4) 0.9171(6)
C5_2 C 0.8599(6) 0.1528(5) 0.8749(7)
C6_2 C 0.9997(7) 0.1244(4) 0.9272(7)
H5_2 H 1.0099 0.0722 0.9856
C7_2 C 1.1033(6) 0.2433(5) 0.8126(7)
C8_2 C 0.9692(7) 0.2772(5) 0.7590(8)
H6_2 H 0.9620 0.3299 0.7015
C9_2 C 0.8448(7) 0.2315(5) 0.7921(8)
H7_2 H 0.7528 0.2539 0.7588
C10_2 C 1.2455(6) 0.2867(4) 0.7782(7)
O1_2 O 1.3582(4) 0.2571(3) 0.8509(5)
O2_2 O 1.5051(5) 0.2477(3) 1.1169(5)
H8_2 H 1.4605 0.2614 1.1870
H9_2 H 1.5055 0.2951 1.0633
O3_2 O 0.6082(4) 0.1386(3) 0.8964(5)
O3_3 O 1.6082(4) 0.1386(3) 0.8964(5)
O4B O 0.5382(5) 0.0384(3) 0.1494(5)
O4B_2 O 0.5382(5) 0.0384(3) 1.1494(5)
O4_2 O 1.4618(5) -0.0384(3) 0.8506(5)
O4B_3 O 1.5382(5) 0.0384(3) 1.1494(5)
O5B O 0.6783(5) -0.0680(3) 0.2538(5)
O5_2 O 1.3217(5) 0.0680(3) 0.7462(5)
O6_2 O 0.7559(4) 0.0189(3) 0.9674(5)
O6B O 0.2441(4) -0.0189(3) 1.0326(5)
O6B_2 O 1.2441(4) -0.0189(3) 1.0326(5)
O7_2 O 1.2421(4) 0.3436(3) 0.6810(5)
O7C O 0.2421(4) 0.1564(3) 1.1810(5)
O7C_2 O 1.2421(4) 0.1564(3) 1.1810(5)
N1_2 N 1.1195(5) 0.1688(4) 0.8972(6)
loop_
_geom_bond_atom_site_label_1
_geom_bond_atom_site_label_2
_geom_bond_site_symmetry_1
_geom_bond_site_symmetry_2
Tb1 O1 1_555 1_555
C1 C2 1_555 1_555
C2 H1 1_555 1_555
H2 C2 1_555 1_555
C3 C2 1_555 1_555
H3 C3 1_555 1_555
H4 C3 1_555 1_555
C4 C5 1_555 1_555
C5 C6 1_555 1_555
C6 H5 1_555 1_555
C7 C8 1_555 1_555
C8 H6 1_555 1_555
C9 C5 1_555 1_555
H7 C9 1_555 1_555
C10 C7 1_555 1_555
O1 C10 1_555 1_555
O2 Tb1 1_555 1_555
H8 O2 1_555 1_555
H9 O2 1_555 1_555
O3 C4 1_555 1_555
O4 Tb1 1_555 1_555
O5 Tb1 1_555 1_555
O6 C4 1_555 1_555
O7 C10 1_555 1_555
N1 Tb1 1_555 1_555
Tb1_2 O1_2 1_555 1_555
Tb1_3 O3 1_555 1_555
Tb1B O4 1_555 1_555
Tb1B_2 O6 1_555 1_555
Tb1C O7 1_555 1_555
Tb1B_3 O4B 1_555 1_555
Tb1_4 O4B 1_555 1_555
Tb1C_2 O7_2 1_555 1_555
C1B C2B 1_555 1_555
C2B H1B 1_555 1_555
H2B C2B 1_555 1_555
C3B C3 1_555 1_555
H3B C3B 1_555 1_555
H4B C3B 1_555 1_555
C4_2 C5_2 1_555 1_555
C5_2 C6_2 1_555 1_555
C6_2 H5_2 1_555 1_555
C7_2 C8_2 1_555 1_555
C8_2 H6_2 1_555 1_555
C9_2 C5_2 1_555 1_555
H7_2 C9_2 1_555 1_555
C10_2 C7_2 1_555 1_555
O1_2 C10_2 1_555 1_555
O2_2 Tb1_2 1_555 1_555
H8_2 O2_2 1_555 1_555
H9_2 O2_2 1_555 1_555
O3_2 Tb1 1_555 1_555
O3_3 Tb1_2 1_555 1_555
O4B C1B 1_555 1_555
O4B_2 Tb1 1_555 1_555
O4_2 Tb1_2 1_555 1_555
O4B_3 Tb1_2 1_555 1_555
O5B Tb1B_3 1_555 1_555
O5_2 Tb1_2 1_555 1_555
O6_2 Tb1B 1_555 1_555
O6B Tb1 1_555 1_555
O6B_2 Tb1_2 1_555 1_555
O7_2 C10_2 1_555 1_555
O7C Tb1 1_555 1_555
O7C_2 Tb1_2 1_555 1_555
N1_2 Tb1_2 1_555 1_555
C1 O4 1_555 1_555
C1 O5 1_555 1_555
C6 N1 1_555 1_555
C7 N1 1_555 1_555
C8 C9 1_555 1_555
Tb1B O4B_2 1_555 1_555
C1B O5B 1_555 1_555
C2B C3B 1_555 1_555
C4_2 O3_2 1_555 1_555
C4_2 O6_2 1_555 1_555
C6_2 N1_2 1_555 1_555
C7_2 N1_2 1_555 1_555
C8_2 C9_2 1_555 1_555

#END
