
#######################################################################
#
#                 Cambridge Crystallographic Data Centre
#                                CCDC 
#
#######################################################################
#
# If this CIF has been generated from an entry in the Cambridge 
# Structural Database, then it will include bibliographic, chemical, 
# crystal, experimental, refinement or atomic coordinate data resulting 
# from the CCDC's data processing and validation procedures.
#
#######################################################################

data_WOCHUS
_symmetry_cell_setting           monoclinic
_symmetry_space_group_name_H-M   'P 21/n'
_symmetry_Int_Tables_number      14
_space_group_name_Hall           '-P 2yn'
loop_
_symmetry_equiv_pos_site_id
_symmetry_equiv_pos_as_xyz
1 x,y,z
2 1/2-x,1/2+y,1/2-z
3 -x,-y,-z
4 1/2+x,1/2-y,1/2+z
_cell_length_a                   11.226(2)
_cell_length_b                   5.4620(11)
_cell_length_c                   12.886(3)
_cell_angle_alpha                90
_cell_angle_beta                 104.346(4)
_cell_angle_gamma                90
_cell_volume                     765.485
loop_
_atom_site_label
_atom_site_type_symbol
_atom_site_fract_x
_atom_site_fract_y
_atom_site_fract_z
Mn1 Mn 0.92201(3) 0.25809(6) 0.91166(3)
O1 O 1.16103(19) -0.3362(4) 0.84137(15)
O2 O 0.88604(14) 0.5963(3) 1.00886(13)
H1 H 0.8293 0.6832 0.9701
H2 H 0.8640 0.5481 1.0640
O3 O 1.04882(15) -0.1059(3) 0.92432(12)
O4 O 0.74234(16) 0.5542(4) 0.60836(13)
O5 O 0.82884(16) 0.5365(3) 0.78498(13)
N1 N 0.96404(17) 0.1615(4) 0.75606(15)
C1 C 1.0357(2) -0.0266(5) 0.74403(18)
C2 C 1.0526(2) -0.0938(5) 0.64587(19)
H3 H 1.1038 -0.2246 0.6407
C3 C 0.9929(2) 0.0342(5) 0.55410(18)
C4 C 0.9183(2) 0.2287(4) 0.5681(2)
H4 H 0.8770 0.3209 0.5095
C5 C 0.9059(2) 0.2839(5) 0.6693(2)
C6 C 1.0885(2) -0.1690(5) 0.84479(19)
C7 C 0.8185(2) 0.4772(4) 0.69033(18)
Mn1B Mn 1.07799(3) 0.74191(6) 1.08834(3)
Mn1B_2 Mn 1.07799(3) -0.25809(6) 1.08834(3)
Mn1A Mn 0.57799(3) 0.75809(6) 0.58834(3)
Mn1B_3 Mn 1.07799(3) -0.25809(6) 0.08834(3)
Mn1C Mn 1.42201(3) -0.75809(6) 0.41166(3)
Mn1_2 Mn 0.92201(3) 0.25809(6) -0.08834(3)
O1B O 0.83897(19) 0.3362(4) 0.15863(15)
O2B O 1.11396(14) 0.4037(3) 0.99114(13)
H1B H 1.1707 0.3168 1.0299
H2B H 1.1360 0.4519 0.9360
O3B O 0.95118(15) 0.1059(3) 0.07568(12)
O3B_2 O 0.95118(15) 0.1059(3) 1.07568(12)
O3_2 O 1.04882(15) 0.8941(3) 0.92432(12)
O3B_3 O 0.95118(15) 1.1059(3) 1.07568(12)
O4B O 1.25766(16) -0.5542(4) 0.39164(13)
O4A O 0.75766(16) 0.0542(4) 0.89164(13)
O4C O 1.24234(16) 0.9458(4) 1.10836(13)
O5B O 1.17116(16) -0.5365(3) 0.21502(13)
O5B_2 O 1.17116(16) 0.4635(3) 1.21502(13)
N1B N 1.03596(17) -0.1615(4) 0.24394(15)
N1B_2 N 1.03596(17) 0.8385(4) 1.24394(15)
C1B C 0.9643(2) 0.0266(5) 0.25597(18)
C2B C 0.9474(2) 0.0938(5) 0.35413(19)
H3B H 0.8962 0.2246 0.3593
C3B C 1.0071(2) -0.0342(5) 0.44590(18)
C4B C 1.0817(2) -0.2287(4) 0.4319(2)
H4B H 1.1230 -0.3209 0.4905
C5B C 1.0941(2) -0.2839(5) 0.3307(2)
C6B C 0.9115(2) 0.1690(5) 0.15521(19)
C7B C 1.1815(2) -0.4772(4) 0.30967(18)
loop_
_geom_bond_atom_site_label_1
_geom_bond_atom_site_label_2
_geom_bond_site_symmetry_1
_geom_bond_site_symmetry_2
Mn1 O2 1_555 1_555
O1 C6 1_555 1_555
O2 H1 1_555 1_555
H2 O2 1_555 1_555
O3 Mn1 1_555 1_555
O4 C7 1_555 1_555
O5 Mn1 1_555 1_555
N1 Mn1 1_555 1_555
C1 N1 1_555 1_555
C2 C1 1_555 1_555
H3 C2 1_555 1_555
C3 C2 1_555 1_555
C4 C3 1_555 1_555
H4 C4 1_555 1_555
C5 N1 1_555 1_555
C6 O3 1_555 1_555
C7 O5 1_555 1_555
Mn1B O2 1_555 1_555
Mn1B_2 O3 1_555 1_555
Mn1A O4 1_555 1_555
Mn1B_3 O3B 1_555 1_555
Mn1C O4B 1_555 1_555
Mn1_2 O3B 1_555 1_555
O1B C6B 1_555 1_555
O2B Mn1 1_555 1_555
H1B O2B 1_555 1_555
H2B O2B 1_555 1_555
O3B C6B 1_555 1_555
O3B_2 Mn1 1_555 1_555
O3_2 Mn1B 1_555 1_555
O3B_3 Mn1B 1_555 1_555
O4B C7B 1_555 1_555
O4A Mn1 1_555 1_555
O4C Mn1B 1_555 1_555
O5B Mn1B_3 1_555 1_555
O5B_2 Mn1B 1_555 1_555
N1B Mn1B_3 1_555 1_555
N1B_2 Mn1B 1_555 1_555
C1B N1B 1_555 1_555
C2B C1B 1_555 1_555
H3B C2B 1_555 1_555
C3B C3 1_555 1_555
C4B C3B 1_555 1_555
H4B C4B 1_555 1_555
C5B N1B 1_555 1_555
C6B C1B 1_555 1_555
C7B O5B 1_555 1_555
C1 C6 1_555 1_555
C4 C5 1_555 1_555
C5 C7 1_555 1_555
Mn1B O2B 1_555 1_555
Mn1B_2 O3B_2 1_555 1_555
C2B C3B 1_555 1_555
C4B C5B 1_555 1_555
C5B C7B 1_555 1_555

#END
