
#######################################################################
#
#                 Cambridge Crystallographic Data Centre
#                                CCDC 
#
#######################################################################
#
# If this CIF has been generated from an entry in the Cambridge 
# Structural Database, then it will include bibliographic, chemical, 
# crystal, experimental, refinement or atomic coordinate data resulting 
# from the CCDC's data processing and validation procedures.
#
#######################################################################

data_WOCHEC
_symmetry_cell_setting           monoclinic
_symmetry_space_group_name_H-M   'P 21/c'
_symmetry_Int_Tables_number      14
_space_group_name_Hall           '-P 2ybc'
loop_
_symmetry_equiv_pos_site_id
_symmetry_equiv_pos_as_xyz
1 x,y,z
2 -x,1/2+y,1/2-z
3 -x,-y,-z
4 x,1/2-y,1/2+z
_cell_length_a                   9.443(5)
_cell_length_b                   16.005(9)
_cell_length_c                   9.108(5)
_cell_angle_alpha                90
_cell_angle_beta                 98.813(8)
_cell_angle_gamma                90
_cell_volume                     1360.29
loop_
_atom_site_label
_atom_site_type_symbol
_atom_site_fract_x
_atom_site_fract_y
_atom_site_fract_z
C1 C 0.3622(9) 0.1096(5) 0.8093(9)
C2 C 0.2320(8) 0.0628(6) 0.8587(8)
C3 C 1.0907(9) 0.0707(6) 1.2580(9)
C4 C 0.4615(9) 0.2271(6) 0.6837(10)
H1 H 0.4504 0.2759 0.6278
C5 C 0.3417(9) 0.1886(6) 0.7339(11)
H2 H 0.2521 0.2140 0.7182
C6 C 0.6004(9) 0.1889(5) 0.7214(9)
C7 C 0.5043(8) 0.0784(6) 0.8393(8)
H3 H 0.5171 0.0271 0.8875
C8 C 0.7386(9) 0.2282(5) 0.6735(9)
C9 C 1.1708(11) 0.0426(6) 1.4108(10)
H4 H 1.1934 0.0909 1.4744
H5 H 1.2600 0.0153 1.3982
C10 C 1.0728(11) -0.0203(7) 1.4853(10)
H6 H 1.0517 -0.0685 1.4211
H7 H 1.1255 -0.0398 1.5790
Eu1 Eu 0.89596(4) 0.11456(2) 0.97256(4)
N1 N 0.6242(7) 0.1166(5) 0.8042(7)
O1 O 1.0942(6) 0.0236(4) 1.1428(6)
O2 O 1.0156(7) 0.1390(4) 1.2456(7)
O3 O 0.8590(6) 0.1933(4) 0.7322(6)
O4 O 0.7247(6) 0.2896(4) 0.5800(7)
O5 O 0.2472(6) -0.0144(4) 0.8981(6)
O6 O 0.1165(7) 0.1085(4) 0.8574(7)
O7 O 1.0192(7) 0.2541(4) 1.0064(7)
H8 H 1.022(10) 0.285(3) 1.083(4)
H9 H 1.022(9) 0.294(3) 0.946(6)
C1C C 0.3622(9) 0.3904(5) 1.3093(9)
C2C C 0.2320(8) 0.4372(6) 1.3587(8)
C3B C 0.9093(9) -0.0707(6) 1.7420(9)
C4C C 0.4615(9) 0.2729(6) 1.1837(10)
H1C H 0.4504 0.2241 1.1278
C5C C 0.3417(9) 0.3114(6) 1.2339(11)
H2C H 0.2521 0.2860 1.2182
C6C C 0.6004(9) 0.3111(5) 1.2214(9)
C7C C 0.5043(8) 0.4216(6) 1.3393(8)
H3C H 0.5171 0.4729 1.3875
C8C C 0.7386(9) 0.2718(5) 1.1735(9)
C9B C 0.8292(11) -0.0426(6) 1.5892(10)
H4B H 0.8066 -0.0909 1.5256
H5B H 0.7400 -0.0153 1.6018
C10B C 0.9272(11) 0.0203(7) 1.5147(10)
H6B H 0.9483 0.0685 1.5789
H7B H 0.8745 0.0398 1.4210
Eu1C Eu 0.89596(4) 0.38544(2) 1.47256(4)
Eu1B Eu 1.10404(4) -0.11456(2) 1.02744(4)
Eu1C_2 Eu 0.89596(4) 0.38544(2) 0.47256(4)
Eu1B_2 Eu 0.10404(4) -0.11456(2) 1.02744(4)
Eu1_2 Eu -0.10404(4) 0.11456(2) 0.97256(4)
Eu1_3 Eu 0.89596(4) 0.11456(2) 1.97256(4)
Eu1B_3 Eu 1.10404(4) -0.11456(2) 2.02744(4)
Eu1A Eu 0.10404(4) 0.61456(2) 1.52744(4)
Eu1C_3 Eu -0.10404(4) 0.38544(2) 1.47256(4)
N1C N 0.6242(7) 0.3834(5) 1.3042(7)
O1B O 0.9058(6) -0.0236(4) 1.8572(6)
O1B_2 O 0.9058(6) -0.0236(4) 0.8572(6)
O1C O 1.0942(6) 0.4764(4) 1.6428(6)
O1A O 0.9058(6) 0.5236(4) 1.3572(6)
O2B O 0.9844(7) -0.1390(4) 1.7544(7)
O2C O 1.0156(7) 0.3610(4) 1.7456(7)
O3C O 0.8590(6) 0.3067(4) 1.2322(6)
O4C O 0.7247(6) 0.2104(4) 1.0800(7)
O4_2 O 0.7247(6) 0.2896(4) 1.5800(7)
O5C O 0.2472(6) 0.5144(4) 1.3981(6)
O5B O 0.7528(6) 0.0144(4) 1.1019(6)
O5A O 0.7528(6) 0.4856(4) 1.6019(6)
O6C O 0.1165(7) 0.3915(4) 1.3574(7)
O6_2 O 1.1165(7) 0.1085(4) 0.8574(7)
O6C_2 O 1.1165(7) 0.3915(4) 1.3574(7)
O7C O 1.0192(7) 0.2459(4) 1.5064(7)
H8C H 1.022(10) 0.215(3) 1.583(4)
H9C H 1.022(9) 0.206(3) 1.446(6)
loop_
_geom_bond_atom_site_label_1
_geom_bond_atom_site_label_2
_geom_bond_site_symmetry_1
_geom_bond_site_symmetry_2
C1 C2 1_555 1_555
C2 O5 1_555 1_555
C3 C9 1_555 1_555
C4 H1 1_555 1_555
C5 C1 1_555 1_555
H2 C5 1_555 1_555
C6 C4 1_555 1_555
C7 C1 1_555 1_555
H3 C7 1_555 1_555
C8 C6 1_555 1_555
C9 H4 1_555 1_555
H5 C9 1_555 1_555
C10 C9 1_555 1_555
H6 C10 1_555 1_555
H7 C10 1_555 1_555
Eu1 N1 1_555 1_555
N1 C6 1_555 1_555
O1 C3 1_555 1_555
O2 C3 1_555 1_555
O3 C8 1_555 1_555
O4 C8 1_555 1_555
O5 Eu1B_2 1_555 1_555
O6 C2 1_555 1_555
O7 Eu1 1_555 1_555
H8 O7 1_555 1_555
H9 O7 1_555 1_555
C1C C2C 1_555 1_555
C2C O5C 1_555 1_555
C3B C9B 1_555 1_555
C4C H1C 1_555 1_555
C5C C1C 1_555 1_555
H2C C5C 1_555 1_555
C6C C4C 1_555 1_555
C7C C1C 1_555 1_555
H3C C7C 1_555 1_555
C8C C6C 1_555 1_555
C9B H4B 1_555 1_555
H5B C9B 1_555 1_555
C10B C10 1_555 1_555
H6B C10B 1_555 1_555
H7B C10B 1_555 1_555
Eu1C N1C 1_555 1_555
Eu1B O1 1_555 1_555
Eu1C_2 O4 1_555 1_555
Eu1_2 O6 1_555 1_555
Eu1_3 O1B 1_555 1_555
Eu1B_3 O1B 1_555 1_555
Eu1A O5C 1_555 1_555
Eu1C_3 O6C 1_555 1_555
N1C C6C 1_555 1_555
O1B C3B 1_555 1_555
O1B_2 Eu1 1_555 1_555
O1C Eu1C 1_555 1_555
O1A Eu1C 1_555 1_555
O2B C3B 1_555 1_555
O2C Eu1C 1_555 1_555
O3C C8C 1_555 1_555
O4C Eu1 1_555 1_555
O4_2 Eu1C 1_555 1_555
O5B Eu1 1_555 1_555
O5A Eu1C 1_555 1_555
O6C C2C 1_555 1_555
O6_2 Eu1 1_555 1_555
O6C_2 Eu1C 1_555 1_555
O7C Eu1C 1_555 1_555
H8C O7C 1_555 1_555
H9C O7C 1_555 1_555
C4 C5 1_555 1_555
C7 N1 1_555 1_555
Eu1 O1 1_555 1_555
Eu1 O2 1_555 1_555
Eu1 O3 1_555 1_555
C4C C5C 1_555 1_555
C7C N1C 1_555 1_555
C8C O4C 1_555 1_555
C9B C10B 1_555 1_555
Eu1C O3C 1_555 1_555
Eu1B O1B_2 1_555 1_555
Eu1B_3 O2B 1_555 1_555

#END
