
#######################################################################
#
#                 Cambridge Crystallographic Data Centre
#                                CCDC 
#
#######################################################################
#
# If this CIF has been generated from an entry in the Cambridge 
# Structural Database, then it will include bibliographic, chemical, 
# crystal, experimental, refinement or atomic coordinate data resulting 
# from the CCDC's data processing and validation procedures.
#
#######################################################################

data_WOCHEC01
_symmetry_cell_setting           monoclinic
_symmetry_space_group_name_H-M   'P 21/c'
_symmetry_Int_Tables_number      14
_space_group_name_Hall           '-P 2ybc'
loop_
_symmetry_equiv_pos_site_id
_symmetry_equiv_pos_as_xyz
1 x,y,z
2 -x,1/2+y,1/2-z
3 -x,-y,-z
4 x,1/2-y,1/2+z
_cell_length_a                   9.1370(18)
_cell_length_b                   15.484(3)
_cell_length_c                   8.8238(18)
_cell_angle_alpha                90
_cell_angle_beta                 98.68(3)
_cell_angle_gamma                90
_cell_volume                     1234.07
loop_
_atom_site_label
_atom_site_type_symbol
_atom_site_fract_x
_atom_site_fract_y
_atom_site_fract_z
Eu1 Eu 0.60419(3) 0.114582(15) 0.52732(3)
C1 C 0.4083(6) 0.0706(3) 0.2411(7)
C2 C 0.3296(7) 0.0425(4) 0.0893(7)
H1 H 0.3062 0.0925 0.0239
H2 H 0.2374 0.0144 0.1023
C3 C 0.4258(7) -0.0199(4) 0.0140(8)
H3 H 0.3714 -0.0387 -0.0833
H4 H 0.4459 -0.0704 0.0787
C4 C 1.2685(6) 0.0643(3) 0.6399(6)
C5 C 1.1389(5) 0.1095(3) 0.6918(6)
C6 C 1.1581(6) 0.1885(4) 0.7670(8)
H5 H 1.2508 0.2146 0.7846
C7 C 0.7613(6) 0.2285(3) 0.8260(6)
C8 C 0.9955(6) 0.0771(3) 0.6603(6)
H6 H 0.9816 0.0243 0.6100
C9 C 0.9002(6) 0.1900(3) 0.7796(7)
C10 C 1.0369(6) 0.2277(4) 0.8153(8)
H7 H 1.0482 0.2788 0.8712
O1 O 0.6405(4) 0.1935(2) 0.7680(5)
O2 O 0.4791(4) 0.2549(2) 0.4937(5)
H8 H 0.5140 0.2882 0.5669
H9 H 0.4937 0.2770 0.4090
O3 O 1.3830(4) 0.1089(2) 0.6421(5)
O4 O 0.4059(4) 0.0235(2) 0.3573(4)
O5 O 0.4849(5) 0.1392(2) 0.2534(5)
O6 O 1.2526(4) -0.0143(2) 0.6017(5)
O7 O 0.7746(4) 0.2893(3) 0.9194(5)
N1 N 0.8772(4) 0.1167(3) 0.6977(5)
Eu1_2 Eu -0.39581(3) 0.114582(15) 0.52732(3)
Eu1_3 Eu 1.60419(3) 0.114582(15) 0.52732(3)
Eu1B Eu 0.39581(3) -0.114582(15) 0.47268(3)
Eu1B_2 Eu 1.39581(3) -0.114582(15) 0.47268(3)
Eu1C Eu 0.60419(3) 0.385418(15) 1.02732(3)
Eu1B_3 Eu 0.39581(3) -0.114582(15) -0.52732(3)
Eu1_4 Eu 0.60419(3) 0.114582(15) -0.47268(3)
Eu1C_2 Eu -0.39581(3) 0.385418(15) 1.02732(3)
C1B C 0.5917(6) -0.0706(3) -0.2411(7)
C2B C 0.6704(7) -0.0425(4) -0.0893(7)
H1B H 0.6938 -0.0925 -0.0239
H2B H 0.7626 -0.0144 -0.1023
C3B C 0.5742(7) 0.0199(4) -0.0140(8)
H3B H 0.6286 0.0387 0.0833
H4B H 0.5541 0.0704 -0.0787
C4_2 C 0.2685(6) 0.0643(3) 0.6399(6)
C5_2 C 0.1389(5) 0.1095(3) 0.6918(6)
C6_2 C 0.1581(6) 0.1885(4) 0.7670(8)
H5_2 H 0.2508 0.2146 0.7846
C7_2 C -0.2387(6) 0.2285(3) 0.8260(6)
C8_2 C -0.0045(6) 0.0771(3) 0.6603(6)
H6_2 H -0.0184 0.0243 0.6100
C9_2 C -0.0998(6) 0.1900(3) 0.7796(7)
C10_2 C 0.0369(6) 0.2277(4) 0.8153(8)
H7_2 H 0.0482 0.2788 0.8712
O1_2 O -0.3595(4) 0.1935(2) 0.7680(5)
O2_2 O -0.5209(4) 0.2549(2) 0.4937(5)
H8_2 H -0.4860 0.2882 0.5669
H9_2 H -0.5063 0.2770 0.4090
O3_2 O 0.3830(4) 0.1089(2) 0.6421(5)
O3_3 O -0.6170(4) 0.1089(2) 0.6421(5)
O4B O 0.5941(4) -0.0235(2) -0.3573(4)
O4B_2 O 0.5941(4) -0.0235(2) 0.6427(4)
O4_2 O -0.5941(4) 0.0235(2) 0.3573(4)
O4B_3 O -0.4059(4) -0.0235(2) 0.6427(4)
O5B O 0.5151(5) -0.1392(2) -0.2534(5)
O5_2 O -0.5151(5) 0.1392(2) 0.2534(5)
O6_2 O 0.2526(4) -0.0143(2) 0.6017(5)
O6B O 0.7474(4) 0.0143(2) 0.3983(5)
O6B_2 O -0.2526(4) 0.0143(2) 0.3983(5)
O7_2 O -0.2254(4) 0.2893(3) 0.9194(5)
O7C O 0.7746(4) 0.2107(3) 0.4194(5)
O7C_2 O -0.2254(4) 0.2107(3) 0.4194(5)
N1_2 N -0.1228(4) 0.1167(3) 0.6977(5)
loop_
_geom_bond_atom_site_label_1
_geom_bond_atom_site_label_2
_geom_bond_site_symmetry_1
_geom_bond_site_symmetry_2
Eu1 O1 1_555 1_555
C1 C2 1_555 1_555
C2 H1 1_555 1_555
H2 C2 1_555 1_555
C3 C2 1_555 1_555
H3 C3 1_555 1_555
H4 C3 1_555 1_555
C4 C5 1_555 1_555
C5 C6 1_555 1_555
C6 H5 1_555 1_555
C7 C9 1_555 1_555
C8 C5 1_555 1_555
H6 C8 1_555 1_555
C9 C10 1_555 1_555
C10 C6 1_555 1_555
H7 C10 1_555 1_555
O1 C7 1_555 1_555
O2 Eu1 1_555 1_555
H8 O2 1_555 1_555
H9 O2 1_555 1_555
O3 C4 1_555 1_555
O4 Eu1 1_555 1_555
O5 Eu1 1_555 1_555
O6 C4 1_555 1_555
O7 C7 1_555 1_555
N1 Eu1 1_555 1_555
Eu1_2 O1_2 1_555 1_555
Eu1_3 O3 1_555 1_555
Eu1B O4 1_555 1_555
Eu1B_2 O6 1_555 1_555
Eu1C O7 1_555 1_555
Eu1B_3 O4B 1_555 1_555
Eu1_4 O4B 1_555 1_555
Eu1C_2 O7_2 1_555 1_555
C1B C2B 1_555 1_555
C2B H1B 1_555 1_555
H2B C2B 1_555 1_555
C3B C3 1_555 1_555
H3B C3B 1_555 1_555
H4B C3B 1_555 1_555
C4_2 C5_2 1_555 1_555
C5_2 C6_2 1_555 1_555
C6_2 H5_2 1_555 1_555
C7_2 C9_2 1_555 1_555
C8_2 C5_2 1_555 1_555
H6_2 C8_2 1_555 1_555
C9_2 C10_2 1_555 1_555
C10_2 C6_2 1_555 1_555
H7_2 C10_2 1_555 1_555
O1_2 C7_2 1_555 1_555
O2_2 Eu1_2 1_555 1_555
H8_2 O2_2 1_555 1_555
H9_2 O2_2 1_555 1_555
O3_2 Eu1 1_555 1_555
O3_3 Eu1_2 1_555 1_555
O4B C1B 1_555 1_555
O4B_2 Eu1 1_555 1_555
O4_2 Eu1_2 1_555 1_555
O4B_3 Eu1_2 1_555 1_555
O5B Eu1B_3 1_555 1_555
O5_2 Eu1_2 1_555 1_555
O6_2 Eu1B 1_555 1_555
O6B Eu1 1_555 1_555
O6B_2 Eu1_2 1_555 1_555
O7_2 C7_2 1_555 1_555
O7C Eu1 1_555 1_555
O7C_2 Eu1_2 1_555 1_555
N1_2 Eu1_2 1_555 1_555
C1 O4 1_555 1_555
C1 O5 1_555 1_555
C8 N1 1_555 1_555
C9 N1 1_555 1_555
Eu1B O4B_2 1_555 1_555
C1B O5B 1_555 1_555
C2B C3B 1_555 1_555
C4_2 O3_2 1_555 1_555
C4_2 O6_2 1_555 1_555
C8_2 N1_2 1_555 1_555
C9_2 N1_2 1_555 1_555

#END
