
#######################################################################
#
#                 Cambridge Crystallographic Data Centre
#                                CCDC 
#
#######################################################################
#
# If this CIF has been generated from an entry in the Cambridge 
# Structural Database, then it will include bibliographic, chemical, 
# crystal, experimental, refinement or atomic coordinate data resulting 
# from the CCDC's data processing and validation procedures.
#
#######################################################################

data_WOCHIG
_symmetry_cell_setting           monoclinic
_symmetry_space_group_name_H-M   'C 2/c'
_symmetry_Int_Tables_number      15
_space_group_name_Hall           '-C 2yn'
loop_
_symmetry_equiv_pos_site_id
_symmetry_equiv_pos_as_xyz
1 x,y,z
2 1/2+x,1/2+y,z
3 -x,y,1/2-z
4 1/2-x,1/2+y,1/2-z
5 -x,-y,-z
6 1/2-x,1/2-y,-z
7 x,-y,1/2+z
8 1/2+x,1/2-y,1/2+z
_cell_length_a                   9.8158(12)
_cell_length_b                   20.105(2)
_cell_length_c                   16.1008(19)
_cell_angle_alpha                90
_cell_angle_beta                 92.127(2)
_cell_angle_gamma                90
_cell_volume                     3175.25
loop_
_atom_site_label
_atom_site_type_symbol
_atom_site_fract_x
_atom_site_fract_y
_atom_site_fract_z
Mn1 Mn 0.47756(3) -0.080724(16) -0.13858(2)
O1 O 0.83570(17) -0.02155(10) -0.27611(10)
O2 O 0.63249(15) -0.06312(7) -0.24587(9)
O3 O 0.57392(16) -0.03045(8) 0.11615(9)
O4 O 0.47779(16) -0.08368(8) 0.00626(10)
N1 N 0.67981(18) -0.04889(9) -0.08698(10)
N2 N 0.5724(2) -0.18824(10) -0.14929(12)
N3 N 0.3101(2) -0.16068(10) -0.11648(12)
C1 C 0.7847(2) -0.03589(10) -0.13530(13)
C2 C 0.9111(2) -0.01894(10) -0.10397(12)
H1 H 0.9826 -0.0129 -0.1395
C3 C 0.9328(2) -0.01076(10) -0.01827(13)
C4 C 0.8222(2) -0.02226(11) 0.03118(13)
H2 H 0.8312 -0.0169 0.0885
C5 C 0.6994(2) -0.04166(10) -0.00498(13)
C6 C 0.7502(2) -0.03993(11) -0.22806(13)
C7 C 0.5732(2) -0.05372(11) 0.04331(14)
C8 C 0.6989(3) -0.20298(13) -0.16700(16)
H3 H 0.7591 -0.1679 -0.1745
C9 C 0.7487(3) -0.26726(14) -0.17528(17)
H4 H 0.8393 -0.2746 -0.1876
C10 C 0.6627(3) -0.31886(14) -0.16505(18)
H5 H 0.6932 -0.3624 -0.1707
C11 C 0.5276(3) -0.30625(13) -0.14589(17)
C12 C 0.4859(3) -0.23993(12) -0.13856(14)
C13 C 0.4303(4) -0.35749(14) -0.1361(2)
H6 H 0.4572 -0.4015 -0.1424
C14 C 0.3007(4) -0.34446(14) -0.1182(2)
H7 H 0.2401 -0.3794 -0.1113
C15 C 0.2549(3) -0.27772(13) -0.10953(16)
C16 C 0.3471(3) -0.22522(12) -0.12085(14)
C17 C 0.1223(3) -0.26188(15) -0.09254(17)
H8 H 0.0586 -0.2953 -0.0844
C18 C 0.0853(3) -0.19665(14) -0.08778(18)
H9 H -0.0037 -0.1850 -0.0761
C19 C 0.1825(3) -0.14772(13) -0.10059(16)
H10 H 0.1557 -0.1034 -0.0977
Mn1D Mn 1.52244(3) 0.080724(16) 0.13858(2)
Mn1B Mn 0.52244(3) -0.080724(16) -0.36142(2)
Mn1D_2 Mn 0.52244(3) 0.080724(16) 0.13858(2)
Mn1_2 Mn 1.47756(3) -0.080724(16) -0.13858(2)
Mn1F Mn 1.47756(3) 0.080724(16) 0.36142(2)
O1D O 1.16430(17) 0.02155(10) 0.27611(10)
O2D O 1.36751(15) 0.06312(7) 0.24587(9)
O2B O 0.36751(15) -0.06312(7) -0.25413(9)
O2F O 1.63249(15) 0.06312(7) 0.25413(9)
O3D O 1.42608(16) 0.03045(8) -0.11615(9)
O3D_2 O 0.42608(16) 0.03045(8) -0.11615(9)
O3_2 O 1.57392(16) -0.03045(8) 0.11615(9)
O4D O 1.52221(16) 0.08368(8) -0.00626(10)
N1D N 1.32019(18) 0.04889(9) 0.08698(10)
N2D N 1.4276(2) 0.18824(10) 0.14929(12)
N3D N 1.6899(2) 0.16068(10) 0.11648(12)
C1D C 1.2153(2) 0.03589(10) 0.13530(13)
C2D C 1.0889(2) 0.01894(10) 0.10397(12)
H1D H 1.0174 0.0129 0.1395
C3D C 1.0672(2) 0.01076(10) 0.01827(13)
C4D C 1.1778(2) 0.02226(11) -0.03118(13)
H2D H 1.1688 0.0169 -0.0885
C5D C 1.3006(2) 0.04166(10) 0.00498(13)
C6D C 1.2498(2) 0.03993(11) 0.22806(13)
C7D C 1.4268(2) 0.05372(11) -0.04331(14)
C8D C 1.3011(3) 0.20298(13) 0.16700(16)
H3D H 1.2409 0.1679 0.1745
C9D C 1.2513(3) 0.26726(14) 0.17528(17)
H4D H 1.1607 0.2746 0.1876
C10D C 1.3373(3) 0.31886(14) 0.16505(18)
H5D H 1.3068 0.3624 0.1707
C11D C 1.4724(3) 0.30625(13) 0.14589(17)
C12D C 1.5141(3) 0.23993(12) 0.13856(14)
C13D C 1.5697(4) 0.35749(14) 0.1361(2)
H6D H 1.5428 0.4015 0.1424
C14D C 1.6993(4) 0.34446(14) 0.1182(2)
H7D H 1.7599 0.3794 0.1113
C15D C 1.7451(3) 0.27772(13) 0.10953(16)
C16D C 1.6529(3) 0.22522(12) 0.12085(14)
C17D C 1.8777(3) 0.26188(15) 0.09254(17)
H8D H 1.9414 0.2953 0.0844
C18D C 1.9147(3) 0.19665(14) 0.08778(18)
H9D H 2.0037 0.1850 0.0761
C19D C 1.8175(3) 0.14772(13) 0.10059(16)
H10D H 1.8443 0.1034 0.0977
O5 O 0.5000 -0.1184(2) 0.2500
H11 H 0.507(5) -0.0952(18) 0.214(2)
H11B H 0.493(5) -0.0952(18) 0.286(2)
loop_
_geom_bond_atom_site_label_1
_geom_bond_atom_site_label_2
_geom_bond_site_symmetry_1
_geom_bond_site_symmetry_2
Mn1 O2 1_555 1_555
O1 C6 1_555 1_555
O2 C6 1_555 1_555
O3 C7 1_555 1_555
O4 Mn1 1_555 1_555
N1 Mn1 1_555 1_555
N2 Mn1 1_555 1_555
N3 Mn1 1_555 1_555
C1 N1 1_555 1_555
C2 C1 1_555 1_555
H1 C2 1_555 1_555
C3 C2 1_555 1_555
C4 C3 1_555 1_555
H2 C4 1_555 1_555
C5 N1 1_555 1_555
C6 C1 1_555 1_555
C7 O4 1_555 1_555
C8 N2 1_555 1_555
H3 C8 1_555 1_555
C9 C8 1_555 1_555
H4 C9 1_555 1_555
C10 C9 1_555 1_555
H5 C10 1_555 1_555
C11 C10 1_555 1_555
C12 N2 1_555 1_555
C13 C11 1_555 1_555
H6 C13 1_555 1_555
C14 C13 1_555 1_555
H7 C14 1_555 1_555
C15 C14 1_555 1_555
C16 N3 1_555 1_555
C17 C15 1_555 1_555
H8 C17 1_555 1_555
C18 C17 1_555 1_555
H9 C18 1_555 1_555
C19 N3 1_555 1_555
H10 C19 1_555 1_555
O5 H11 1_555 1_555
Mn1D O2D 1_555 1_555
Mn1B O2 1_555 1_555
Mn1D_2 O3 1_555 1_555
Mn1_2 O3D 1_555 1_555
Mn1F O2D 1_555 1_555
O1D C6D 1_555 1_555
O2D C6D 1_555 1_555
O2B Mn1 1_555 1_555
O2F Mn1D 1_555 1_555
O3D C7D 1_555 1_555
O3D_2 Mn1 1_555 1_555
O3_2 Mn1D 1_555 1_555
O4D Mn1D 1_555 1_555
N1D Mn1D 1_555 1_555
N2D Mn1D 1_555 1_555
N3D Mn1D 1_555 1_555
C1D N1D 1_555 1_555
C2D C1D 1_555 1_555
H1D C2D 1_555 1_555
C3D C3 1_555 1_555
C4D C3D 1_555 1_555
H2D C4D 1_555 1_555
C5D N1D 1_555 1_555
C6D C1D 1_555 1_555
C7D O4D 1_555 1_555
C8D N2D 1_555 1_555
H3D C8D 1_555 1_555
C9D C8D 1_555 1_555
H4D C9D 1_555 1_555
C10D C9D 1_555 1_555
H5D C10D 1_555 1_555
C11D C10D 1_555 1_555
C12D N2D 1_555 1_555
C13D C11D 1_555 1_555
H6D C13D 1_555 1_555
C14D C13D 1_555 1_555
H7D C14D 1_555 1_555
C15D C14D 1_555 1_555
C16D N3D 1_555 1_555
C17D C15D 1_555 1_555
H8D C17D 1_555 1_555
C18D C17D 1_555 1_555
H9D C18D 1_555 1_555
C19D N3D 1_555 1_555
H10D C19D 1_555 1_555
H11B O5 1_555 1_555
C4 C5 1_555 1_555
C5 C7 1_555 1_555
C11 C12 1_555 1_555
C12 C16 1_555 1_555
C15 C16 1_555 1_555
C18 C19 1_555 1_555
Mn1B O2B 1_555 1_555
Mn1F O2F 1_555 1_555
C2D C3D 1_555 1_555
C4D C5D 1_555 1_555
C5D C7D 1_555 1_555
C11D C12D 1_555 1_555
C12D C16D 1_555 1_555
C15D C16D 1_555 1_555
C18D C19D 1_555 1_555

#END
