
#######################################################################
#
#                 Cambridge Crystallographic Data Centre
#                                CCDC 
#
#######################################################################
#
# If this CIF has been generated from an entry in the Cambridge 
# Structural Database, then it will include bibliographic, chemical, 
# crystal, experimental, refinement or atomic coordinate data resulting 
# from the CCDC's data processing and validation procedures.
#
#######################################################################

data_WOCJII
_symmetry_cell_setting           monoclinic
_symmetry_space_group_name_H-M   'P 21'
_symmetry_Int_Tables_number      4
_space_group_name_Hall           'P 2yb'
loop_
_symmetry_equiv_pos_site_id
_symmetry_equiv_pos_as_xyz
1 x,y,z
2 -x,1/2+y,-z
_cell_length_a                   10.225(5)
_cell_length_b                   19.053(5)
_cell_length_c                   13.954(5)
_cell_angle_alpha                90
_cell_angle_beta                 99.509(5)
_cell_angle_gamma                90
_cell_volume                     2681.12
loop_
_atom_site_label
_atom_site_type_symbol
_atom_site_fract_x
_atom_site_fract_y
_atom_site_fract_z
Zr1 Zr 0.50144(3) 0.37133(5) 0.74388(3)
Zr2 Zr -0.00885(4) 0.22702(5) 0.24497(3)
K1 K 0.31865(11) 0.14854(8) 0.41130(10)
K2 K 0.33160(11) 0.64726(8) 0.91859(9)
K3 K 0.17860(11) 0.45142(8) 0.58213(8)
K4 K 0.82660(11) 0.44921(8) 0.90481(9)
C1 C 0.3301(5) 0.4772(3) 0.8342(4)
C2 C 0.4715(5) 0.4848(3) 0.8934(4)
C3 C 0.5056(5) 0.2724(3) 0.9164(4)
C4 C 0.6523(5) 0.2747(3) 0.8985(3)
C5 C 0.4896(5) 0.2704(4) 0.5714(4)
C6 C 0.3428(4) 0.2795(3) 0.5854(4)
C7 C 0.6804(5) 0.4758(3) 0.6587(3)
C8 C 0.5429(5) 0.4848(3) 0.5962(4)
C9 C -0.1846(5) 0.1242(3) 0.3322(3)
C10 C -0.0432(5) 0.1153(3) 0.3956(4)
C11 C -0.0017(5) 0.3335(3) 0.4131(4)
C12 C 0.1307(5) 0.3408(3) 0.3779(4)
C13 C 0.8444(5) 0.3331(3) 1.1027(3)
C14 C 0.9803(5) 0.3283(3) 1.0701(4)
C15 C 0.1718(5) 0.1244(3) 0.1626(4)
C16 C 0.0331(5) 0.1123(3) 0.0997(4)
O1 O 0.3232(3) 0.4292(2) 0.7687(3)
O2 O 0.5554(3) 0.4428(2) 0.8678(3)
O3 O 0.2394(4) 0.5136(3) 0.8516(3)
O4 O 0.4941(4) 0.5288(3) 0.9597(3)
O5 O 0.4249(4) 0.3046(2) 0.8516(3)
O6 O 0.6677(3) 0.3160(2) 0.8292(3)
O7 O 0.4799(4) 0.2437(3) 0.9893(3)
O8 O 0.7376(3) 0.2394(2) 0.9484(3)
O9 O 0.5712(4) 0.3030(2) 0.6359(3)
O10 O 0.3306(3) 0.3201(2) 0.6575(3)
O11 O 0.5149(4) 0.2364(3) 0.5029(3)
O12 O 0.2528(3) 0.2508(2) 0.5313(3)
O13 O 0.6854(3) 0.4256(2) 0.7202(3)
O14 O 0.4552(4) 0.4439(2) 0.6197(3)
O15 O 0.7728(4) 0.5138(3) 0.6471(3)
O16 O 0.5244(4) 0.5293(3) 0.5312(3)
O17 O -0.1899(4) 0.1739(2) 0.2699(3)
O18 O 0.0429(3) 0.1557(2) 0.3682(2)
O19 O -0.2750(3) 0.0847(2) 0.3459(3)
O20 O -0.0263(4) 0.0732(2) 0.4623(3)
O21 O -0.0794(3) 0.2892(3) 0.3636(3)
O22 O 0.1489(3) 0.2956(2) 0.3123(3)
O23 O -0.0282(4) 0.3696(3) 0.4813(3)
O24 O 0.2102(3) 0.3878(2) 0.4084(3)
O25 O 0.8282(3) 0.2896(2) 1.1707(3)
O26 O 1.0574(3) 0.2846(2) 1.1213(3)
O27 O 0.7624(3) 0.3771(2) 1.0661(2)
O28 O 1.0095(4) 0.3629(3) 1.0034(3)
O29 O 0.1752(3) 0.1745(2) 0.2234(3)
O30 O -0.0573(3) 0.1513(2) 0.1269(3)
O31 O 0.2641(4) 0.0844(2) 0.1525(3)
O32 O 0.0180(4) 0.0708(3) 0.0327(3)
Zr2_2 Zr 0.99115(4) 0.22702(5) 1.24497(3)
K1A K 0.68135(11) 0.64854(8) 0.58870(10)
K2A K 0.66840(11) 0.14726(8) 1.08141(9)
K2A_2 K -0.33160(11) 0.14726(8) 0.08141(9)
K3A K -0.17860(11) -0.04858(8) 0.41787(8)
K4A K 0.17340(11) -0.05079(8) 0.09519(9)
O7A O 0.5201(4) 0.7437(3) 1.0107(3)
O8A O 0.2624(3) 0.7394(2) 1.0516(3)
O15A O 0.2272(4) 0.0138(3) 0.3529(3)
O16A O 0.4756(4) 0.0293(3) 0.4688(3)
O17A O 0.1899(4) 0.6739(2) 0.7301(3)
O19A O 0.2750(3) 0.5847(2) 0.6541(3)
O20A O 0.0263(4) 0.5732(2) 0.5377(3)
O25_2 O -0.1718(3) 0.2896(2) 0.1707(3)
O26_2 O 0.0574(3) 0.2846(2) 0.1213(3)
O30A O 0.0573(3) 0.6513(2) 0.8731(3)
O31A O 0.7359(4) 0.5844(2) 0.8475(3)
O32A O 0.9820(4) 0.5708(3) 0.9673(3)
C17 C 0.3164(5) 0.3883(4) 0.1717(4)
C18 C 0.4250(5) 0.3978(4) 0.1103(4)
C19 C 0.4582(6) 0.3194(4) 0.2969(5)
C20 C 0.5417(6) 0.3092(4) 0.2178(5)
C21 C 0.4749(5) 0.4473(4) 0.2958(4)
C22 C 0.5956(6) 0.4327(4) 0.2444(4)
N1 N 0.3836(4) 0.3879(3) 0.2759(3)
N2 N 0.5557(4) 0.3779(3) 0.1700(3)
H1 H 0.3243 0.3909 0.3128
H2 H 0.6148 0.3746 0.1330
H5 H 0.2520 0.4282 0.1602
H6 H 0.2684 0.3430 0.1557
H7 H 0.4268 0.4476 0.0877
H8 H 0.4073 0.3659 0.0526
H9 H 0.5181 0.3219 0.3612
H10 H 0.3946 0.2796 0.2974
H11 H 0.6308 0.2896 0.2451
H12 H 0.4946 0.2761 0.1680
H13 H 0.5051 0.4513 0.3675
H14 H 0.4301 0.4919 0.2707
H15 H 0.6223 0.4765 0.2132
H16 H 0.6721 0.4150 0.2923
C23 C 0.1508(5) 0.1904(4) 0.7497(4)
C24 C 0.0478(5) 0.1827(4) 0.6564(4)
C25 C 0.0616(6) 0.3006(3) 0.7927(4)
C26 C -0.0263(10) 0.3011(4) 0.6922(5)
C27 C -0.0379(5) 0.1891(4) 0.8350(4)
C28 C -0.1405(5) 0.1992(4) 0.7420(4)
N3 N 0.0854(4) 0.2267(3) 0.8233(3)
N4 N -0.0689(4) 0.2277(3) 0.6670(3)
H3 H 0.1384 0.2261 0.8780
H4 H -0.1221 0.2282 0.6124
H17 H 0.1832 0.1433 0.7750
H18 H 0.2275 0.2190 0.7358
H19 H 0.0188 0.1326 0.6486
H20 H 0.0871 0.1975 0.5986
H21 H 0.0168 0.3259 0.8410
H22 H 0.1481 0.3239 0.7885
H23 H -0.1062 0.3308 0.6947
H24 H 0.0240 0.3203 0.6424
H25 H -0.0736 0.2092 0.8916
H26 H -0.0181 0.1381 0.8467
H27 H -0.2126 0.2319 0.7539
H28 H -0.1799 0.1527 0.7198
O33 O 0.6975(4) 0.3856(3) 0.4844(3)
O34 O 0.7790(3) 0.2202(2) 0.4918(2)
O35 O 0.7176(5) 0.0687(3) 0.5654(3)
O36 O 0.8363(5) 0.0180(3) 0.7408(3)
O37 O 0.2036(7) 0.0309(4) 0.5863(5)
O38 O 0.2572(5) 0.0564(3) 0.9252(4)
O39 O 0.2197(3) 0.2196(2) 1.0023(2)
O40 O 0.0068(4) 0.4549(4) 0.7444(3)
O41 O 0.5052(7) 0.1073(4) 0.8433(5)
O42 O 0.7572(5) 0.0556(3) 0.9149(4)
O43 O 0.9014(6) 0.4839(4) 0.2445(5)
O44 O 0.4299(8) 0.1211(5) 0.6479(5)
O45 O 0.4926(4) 0.1502(3) 0.2522(3)
loop_
_geom_bond_atom_site_label_1
_geom_bond_atom_site_label_2
_geom_bond_site_symmetry_1
_geom_bond_site_symmetry_2
Zr1 O1 1_555 1_555
Zr2 O17 1_555 1_555
K1 O11 1_555 1_555
K2 O3 1_555 1_555
K3 O1 1_555 1_555
K4 O2 1_555 1_555
C1 C2 1_555 1_555
C2 O2 1_555 1_555
C3 C4 1_555 1_555
C4 O6 1_555 1_555
C5 C6 1_555 1_555
C6 O10 1_555 1_555
C7 C8 1_555 1_555
C8 O14 1_555 1_555
C9 C10 1_555 1_555
C10 O18 1_555 1_555
C11 C12 1_555 1_555
C12 O22 1_555 1_555
C13 C14 1_555 1_555
C14 O26 1_555 1_555
C15 C16 1_555 1_555
C16 O30 1_555 1_555
C17 C18 1_555 1_555
C18 N2 1_555 1_555
C19 C20 1_555 1_555
C20 N2 1_555 1_555
C21 C22 1_555 1_555
C22 N2 1_555 1_555
C23 C24 1_555 1_555
C24 N4 1_555 1_555
C25 C26 1_555 1_555
C26 N4 1_555 1_555
C27 C28 1_555 1_555
C28 N4 1_555 1_555
N1 C17 1_555 1_555
N2 H2 1_555 1_555
N3 C23 1_555 1_555
N4 H4 1_555 1_555
O1 C1 1_555 1_555
O2 Zr1 1_555 1_555
O3 C1 1_555 1_555
O4 K2 1_555 1_555
O5 Zr1 1_555 1_555
O6 Zr1 1_555 1_555
O7 C3 1_555 1_555
O8 C4 1_555 1_555
O9 Zr1 1_555 1_555
O10 Zr1 1_555 1_555
O11 C5 1_555 1_555
O12 K1 1_555 1_555
O13 Zr1 1_555 1_555
O14 Zr1 1_555 1_555
O15 C7 1_555 1_555
O16 C8 1_555 1_555
O17 C9 1_555 1_555
O18 Zr2 1_555 1_555
O19 C9 1_555 1_555
O20 C10 1_555 1_555
O21 Zr2 1_555 1_555
O22 Zr2 1_555 1_555
O23 K3 1_555 1_555
O24 K3 1_555 1_555
O25 C13 1_555 1_555
O26 Zr2_2 1_555 1_555
O27 K4 1_555 1_555
O28 K4 1_555 1_555
O29 Zr2 1_555 1_555
O30 Zr2 1_555 1_555
O31 C15 1_555 1_555
O32 C16 1_555 1_555
H1 N1 1_555 1_555
H3 N3 1_555 1_555
H5 C17 1_555 1_555
H6 C17 1_555 1_555
H7 C18 1_555 1_555
H8 C18 1_555 1_555
H9 C19 1_555 1_555
H10 C19 1_555 1_555
H11 C20 1_555 1_555
H12 C20 1_555 1_555
H13 C21 1_555 1_555
H14 C21 1_555 1_555
H15 C22 1_555 1_555
H16 C22 1_555 1_555
H17 C23 1_555 1_555
H18 C23 1_555 1_555
H19 C24 1_555 1_555
H20 C24 1_555 1_555
H21 C25 1_555 1_555
H22 C25 1_555 1_555
H23 C26 1_555 1_555
H24 C26 1_555 1_555
H25 C27 1_555 1_555
H26 C27 1_555 1_555
H27 C28 1_555 1_555
H28 C28 1_555 1_555
Zr2_2 O25 1_555 1_555
K1A O15 1_555 1_555
K2A O7 1_555 1_555
K2A_2 O17 1_555 1_555
K3A O19 1_555 1_555
K4A O31 1_555 1_555
O7A K2 1_555 1_555
O8A K2 1_555 1_555
O15A K1 1_555 1_555
O16A K1 1_555 1_555
O17A K2 1_555 1_555
O19A K3 1_555 1_555
O20A K3 1_555 1_555
O25_2 Zr2 1_555 1_555
O26_2 Zr2 1_555 1_555
O30A K2 1_555 1_555
O31A K4 1_555 1_555
O32A K4 1_555 1_555
K1 O18 1_555 1_555
K1 O29 1_555 1_555
K3 O14 1_555 1_555
K4 O13 1_555 1_555
C2 O4 1_555 1_555
C3 O5 1_555 1_555
C5 O9 1_555 1_555
C6 O12 1_555 1_555
C7 O13 1_555 1_555
C11 O21 1_555 1_555
C11 O23 1_555 1_555
C12 O24 1_555 1_555
C13 O27 1_555 1_555
C14 O28 1_555 1_555
C15 O29 1_555 1_555
C19 N1 1_555 1_555
C21 N1 1_555 1_555
C25 N3 1_555 1_555
C27 N3 1_555 1_555
O8 K2A 1_555 1_555
O16 K1A 1_555 1_555
O20 K3A 1_555 1_555
O30 K2A_2 1_555 1_555
O32 K4A 1_555 1_555

#END
