
#######################################################################
#
#                 Cambridge Crystallographic Data Centre
#                                CCDC 
#
#######################################################################
#
# If this CIF has been generated from an entry in the Cambridge 
# Structural Database, then it will include bibliographic, chemical, 
# crystal, experimental, refinement or atomic coordinate data resulting 
# from the CCDC's data processing and validation procedures.
#
#######################################################################

data_WOCKEF
_symmetry_cell_setting           monoclinic
_symmetry_space_group_name_H-M   'C 2/c'
_symmetry_Int_Tables_number      15
_space_group_name_Hall           '-C 2yn'
loop_
_symmetry_equiv_pos_site_id
_symmetry_equiv_pos_as_xyz
1 x,y,z
2 1/2+x,1/2+y,z
3 -x,y,1/2-z
4 1/2-x,1/2+y,1/2-z
5 -x,-y,-z
6 1/2-x,1/2-y,-z
7 x,-y,1/2+z
8 1/2+x,1/2-y,1/2+z
_cell_length_a                   9.4758(6)
_cell_length_b                   17.8003(12)
_cell_length_c                   25.6003(17)
_cell_angle_alpha                90
_cell_angle_beta                 97.2990(10)
_cell_angle_gamma                90
_cell_volume                     4283.07
loop_
_atom_site_label
_atom_site_type_symbol
_atom_site_fract_x
_atom_site_fract_y
_atom_site_fract_z
Zn1 Zn 0.57656(3) 0.050637(15) 0.625743(11)
N1 N 0.6537(2) 0.07802(12) 0.70071(8)
N2 N 0.9953(2) 0.44239(11) 0.87738(8)
O1 O 0.71015(19) 0.05329(9) 0.57355(7)
O2 O 0.8521(2) -0.02268(11) 0.62520(8)
O3 O 0.41686(19) 0.10687(10) 0.58953(7)
O4 O 0.5210(2) 0.21590(11) 0.61230(8)
C1 C 0.8212(3) 0.01220(14) 0.58321(10)
C2 C 0.9145(3) 0.00689(13) 0.54041(10)
C3 C 0.8700(3) 0.03625(14) 0.49075(11)
H1 H 0.7808 0.0611 0.4842
C4 C 1.0455(3) -0.02947(14) 0.54917(10)
H2 H 1.0770 -0.0498 0.5829
C5 C 0.4320(3) 0.17733(14) 0.58447(10)
C6 C 0.3360(2) 0.21506(13) 0.54100(9)
C7 C 0.2255(3) 0.17547(13) 0.51262(9)
H3 H 0.2084 0.1246 0.5212
C8 C 0.3599(3) 0.28949(14) 0.52828(10)
H4 H 0.4354 0.3166 0.5478
C9 C 0.7334(3) 0.02901(15) 0.73191(11)
H5 H 0.7411 -0.0212 0.7200
C10 C 0.8045(3) 0.04882(15) 0.78048(11)
H6 H 0.8593 0.0125 0.8013
C11 C 0.7956(3) 0.12184(15) 0.79866(10)
C12 C 0.7121(3) 0.17166(15) 0.76668(10)
H7 H 0.7019 0.2220 0.7779
C13 C 0.6437(3) 0.14841(15) 0.71865(10)
H8 H 0.5871 0.1836 0.6974
C14 C 0.8803(3) 0.14908(15) 0.84890(10)
H9 H 0.8778 0.1108 0.8768
H10 H 0.8373 0.1958 0.8607
C15 C 1.0350(3) 0.16413(14) 0.84021(10)
H11 H 1.0359 0.1919 0.8068
H12 H 1.0838 0.1155 0.8368
C16 C 1.1177(3) 0.20950(14) 0.88521(11)
H13 H 1.0992 0.1880 0.9193
H14 H 1.2209 0.2050 0.8830
C17 C 1.0771(2) 0.29114(14) 0.88346(10)
C18 C 1.1011(3) 0.33634(16) 0.84155(12)
H15 H 1.1470 0.3161 0.8138
C19 C 1.0595(3) 0.40991(16) 0.83967(11)
H16 H 1.0771 0.4393 0.8102
C20 C 0.9740(3) 0.39928(15) 0.91848(11)
H17 H 0.9303 0.4212 0.9462
C21 C 1.0125(3) 0.32495(15) 0.92249(11)
H18 H 0.9943 0.2967 0.9524
Zn1C Zn 0.92344(3) -0.449363(15) 0.874257(11)
Zn1C_2 Zn 0.92344(3) 0.550637(15) 0.874257(11)
Zn1D Zn 1.42344(3) -0.050637(15) 0.374257(11)
Zn1E Zn -0.07656(3) 0.449363(15) 0.374257(11)
N1C N 0.8463(2) -0.42198(12) 0.79929(8)
N2C N 0.5047(2) -0.05761(11) 0.62262(8)
N2_2 N 0.9953(2) -0.55761(11) 0.87738(8)
O1D O 1.28985(19) -0.05329(9) 0.42645(7)
O1C O 0.78985(19) -0.44671(9) 0.92645(7)
O2D O 1.1479(2) 0.02268(11) 0.37480(8)
O3E O 0.08314(19) 0.39313(10) 0.41047(7)
O3C O 1.08314(19) -0.39313(10) 0.91047(7)
O4E O -0.0210(2) 0.28410(11) 0.38770(8)
C1D C 1.1788(3) -0.01220(14) 0.41679(10)
C2D C 1.0855(3) -0.00689(13) 0.45959(10)
C3D C 1.1300(3) -0.03625(14) 0.50925(11)
H1D H 1.2192 -0.0611 0.5158
C4D C 0.9545(3) 0.02947(14) 0.45083(10)
H2D H 0.9230 0.0498 0.4171
C5E C 0.0680(3) 0.32267(14) 0.41553(10)
C6E C 0.1640(2) 0.28494(13) 0.45900(9)
C7E C 0.2745(3) 0.32453(13) 0.48738(9)
H3E H 0.2916 0.3754 0.4788
C8E C 0.1401(3) 0.21051(14) 0.47172(10)
H4E H 0.0646 0.1834 0.4522
C9C C 0.7666(3) -0.47099(15) 0.76809(11)
H5C H 0.7589 -0.5212 0.7800
C10C C 0.6955(3) -0.45118(15) 0.71952(11)
H6C H 0.6407 -0.4875 0.6987
C11C C 0.7044(3) -0.37816(15) 0.70134(10)
C12C C 0.7879(3) -0.32834(15) 0.73332(10)
H7C H 0.7981 -0.2780 0.7221
C13C C 0.8563(3) -0.35159(15) 0.78135(10)
H8C H 0.9129 -0.3164 0.8026
C14C C 0.6197(3) -0.35092(15) 0.65110(10)
H9C H 0.6222 -0.3892 0.6232
H10C H 0.6627 -0.3042 0.6393
C15C C 0.4650(3) -0.33587(14) 0.65979(10)
H11C H 0.4641 -0.3081 0.6932
H12C H 0.4162 -0.3845 0.6632
C16C C 0.3823(3) -0.29050(14) 0.61479(11)
H13C H 0.4008 -0.3120 0.5807
H14C H 0.2791 -0.2950 0.6170
C17C C 0.4229(2) -0.20886(14) 0.61654(10)
C18C C 0.3989(3) -0.16366(16) 0.65845(12)
H15C H 0.3530 -0.1839 0.6862
C19C C 0.4405(3) -0.09009(16) 0.66033(11)
H16C H 0.4229 -0.0607 0.6898
C20C C 0.5260(3) -0.10072(15) 0.58152(11)
H17C H 0.5697 -0.0788 0.5538
C21C C 0.4875(3) -0.17505(15) 0.57751(11)
H18C H 0.5057 -0.2033 0.5476
O5 O 1.1892(4) -0.14321(15) 0.75017(12)
H19 H 1.1462 -0.1473 0.7801
H20 H 1.1160 -0.1460 0.7220
O6 O 0.9779(4) -0.15174(15) 0.66544(9)
H21 H 0.9412 -0.1118 0.6484
H22 H 0.9803 -0.1911 0.6396
loop_
_geom_bond_atom_site_label_1
_geom_bond_atom_site_label_2
_geom_bond_site_symmetry_1
_geom_bond_site_symmetry_2
Zn1 N1 1_555 1_555
N1 C9 1_555 1_555
N2 C19 1_555 1_555
O1 Zn1 1_555 1_555
O2 C1 1_555 1_555
O3 Zn1 1_555 1_555
O4 C5 1_555 1_555
C1 O1 1_555 1_555
C2 C1 1_555 1_555
C3 C2 1_555 1_555
H1 C3 1_555 1_555
C4 C2 1_555 1_555
H2 C4 1_555 1_555
C5 O3 1_555 1_555
C6 C5 1_555 1_555
C7 C6 1_555 1_555
H3 C7 1_555 1_555
C8 C6 1_555 1_555
H4 C8 1_555 1_555
C9 H5 1_555 1_555
C10 C9 1_555 1_555
H6 C10 1_555 1_555
C11 C10 1_555 1_555
C12 C11 1_555 1_555
H7 C12 1_555 1_555
C13 N1 1_555 1_555
H8 C13 1_555 1_555
C14 C11 1_555 1_555
H9 C14 1_555 1_555
H10 C14 1_555 1_555
C15 C14 1_555 1_555
H11 C15 1_555 1_555
H12 C15 1_555 1_555
C16 C15 1_555 1_555
H13 C16 1_555 1_555
H14 C16 1_555 1_555
C17 C16 1_555 1_555
C18 C17 1_555 1_555
H15 C18 1_555 1_555
C19 C18 1_555 1_555
H16 C19 1_555 1_555
C20 N2 1_555 1_555
H17 C20 1_555 1_555
C21 C17 1_555 1_555
H18 C21 1_555 1_555
O5 H19 1_555 1_555
H20 O5 1_555 1_555
O6 H21 1_555 1_555
H22 O6 1_555 1_555
Zn1C N1C 1_555 1_555
Zn1C_2 N2 1_555 1_555
Zn1D O1D 1_555 1_555
Zn1E O3E 1_555 1_555
N1C C9C 1_555 1_555
N2C Zn1 1_555 1_555
N2_2 Zn1C 1_555 1_555
O1D C1D 1_555 1_555
O1C Zn1C 1_555 1_555
O2D C1D 1_555 1_555
O3E C5E 1_555 1_555
O3C Zn1C 1_555 1_555
O4E C5E 1_555 1_555
C1D C2D 1_555 1_555
C2D C3D 1_555 1_555
C3D C4 1_555 1_555
H1D C3D 1_555 1_555
C4D C3 1_555 1_555
H2D C4D 1_555 1_555
C5E C6E 1_555 1_555
C6E C7E 1_555 1_555
C7E C8 1_555 1_555
H3E C7E 1_555 1_555
C8E C7 1_555 1_555
H4E C8E 1_555 1_555
C9C H5C 1_555 1_555
C10C C9C 1_555 1_555
H6C C10C 1_555 1_555
C11C C10C 1_555 1_555
C12C C11C 1_555 1_555
H7C C12C 1_555 1_555
C13C N1C 1_555 1_555
H8C C13C 1_555 1_555
C14C C11C 1_555 1_555
H9C C14C 1_555 1_555
H10C C14C 1_555 1_555
C15C C14C 1_555 1_555
H11C C15C 1_555 1_555
H12C C15C 1_555 1_555
C16C C15C 1_555 1_555
H13C C16C 1_555 1_555
H14C C16C 1_555 1_555
C17C C16C 1_555 1_555
C18C C17C 1_555 1_555
H15C C18C 1_555 1_555
C19C N2C 1_555 1_555
H16C C19C 1_555 1_555
C20C N2C 1_555 1_555
H17C C20C 1_555 1_555
C21C C17C 1_555 1_555
H18C C21C 1_555 1_555
C12 C13 1_555 1_555
C20 C21 1_555 1_555
C2D C4D 1_555 1_555
C6E C8E 1_555 1_555
C12C C13C 1_555 1_555
C18C C19C 1_555 1_555
C20C C21C 1_555 1_555

#END
