
#######################################################################
#
#                 Cambridge Crystallographic Data Centre
#                                CCDC 
#
#######################################################################
#
# If this CIF has been generated from an entry in the Cambridge 
# Structural Database, then it will include bibliographic, chemical, 
# crystal, experimental, refinement or atomic coordinate data resulting 
# from the CCDC's data processing and validation procedures.
#
#######################################################################

data_WOCKAB
_symmetry_cell_setting           monoclinic
_symmetry_space_group_name_H-M   'P 21/c'
_symmetry_Int_Tables_number      14
_space_group_name_Hall           '-P 2ybc'
loop_
_symmetry_equiv_pos_site_id
_symmetry_equiv_pos_as_xyz
1 x,y,z
2 -x,1/2+y,1/2-z
3 -x,-y,-z
4 x,1/2-y,1/2+z
_cell_length_a                   13.391(1)
_cell_length_b                   10.3878(8)
_cell_length_c                   14.7120(11)
_cell_angle_alpha                90
_cell_angle_beta                 90.875(9)
_cell_angle_gamma                90
_cell_volume                     2046.25
loop_
_atom_site_label
_atom_site_type_symbol
_atom_site_fract_x
_atom_site_fract_y
_atom_site_fract_z
Zr1 Zr 0.67959(2) 0.66684(3) 0.52886(2)
K1 K 0.55120(7) 0.84516(8) 0.31291(6)
C1 C 0.7636(3) 0.6305(3) 0.3393(3)
C2 C 0.8065(3) 0.5190(3) 0.3967(3)
C3 C 0.8831(3) 0.7378(4) 0.6100(3)
C4 C 0.8415(3) 0.6333(4) 0.6724(3)
C5 C 0.5630(3) 0.8521(4) 0.6465(3)
C6 C 0.5982(3) 0.9363(3) 0.5661(3)
C7 C 0.4805(3) 0.5461(3) 0.4640(3)
O1 O 0.71136(19) 0.7094(2) 0.38696(18)
O2 O 0.7643(2) 0.5085(2) 0.47461(18)
O3 O 0.7798(2) 0.6397(3) 0.25795(19)
O4 O 0.8747(2) 0.4518(3) 0.36983(19)
O5 O 0.8222(2) 0.7661(3) 0.54361(19)
O6 O 0.7540(2) 0.5947(3) 0.65087(17)
O7 O 0.9659(2) 0.7827(3) 0.6231(2)
O8 O 0.8924(2) 0.5906(3) 0.7364(2)
O9 O 0.5844(2) 0.7324(2) 0.63662(18)
O10 O 0.6426(2) 0.8701(2) 0.50487(18)
O11 O 0.5201(2) 0.8987(3) 0.71126(19)
O12 O 0.5848(2) 1.0526(2) 0.56619(19)
O13 O 0.53386(19) 0.6440(2) 0.44965(18)
O14 O 0.39968(19) 0.5169(2) 0.42578(17)
O15 O 0.3695(2) 0.8833(3) 0.2104(2)
H5 H 0.3864 0.9569 0.1956
H6 H 0.3750 0.8480 0.1594
Zr1B Zr 0.32041(2) 0.33316(3) 0.47114(2)
Zr1C Zr 0.67959(2) 0.83316(3) 0.02886(2)
K1C K 0.55120(7) 0.65484(8) 0.81291(6)
K1B K 0.44880(7) 1.15484(8) 0.68709(6)
K1B_2 K 0.44880(7) 0.15484(8) 0.68709(6)
K1A K 0.44880(7) 0.34516(8) 0.18709(6)
C1B C 0.2364(3) 0.3695(3) 0.6607(3)
C2B C 0.1935(3) 0.4810(3) 0.6033(3)
C3B C 0.1169(3) 0.2622(4) 0.3900(3)
C4B C 0.1585(3) 0.3667(4) 0.3276(3)
C5C C 0.5630(3) 0.6479(4) 0.1465(3)
C6C C 0.5982(3) 0.5637(3) 0.0661(3)
C7B C 0.5195(3) 0.4539(3) 0.5360(3)
O1B O 0.28864(19) 0.2906(2) 0.61304(18)
O1C O 0.71136(19) 0.7906(2) 0.88696(18)
O2B O 0.2357(2) 0.4915(2) 0.52539(18)
O3B O 0.2202(2) 0.3603(3) 0.74205(19)
O4B O 0.1253(2) 0.5482(3) 0.63017(19)
O5B O 0.1778(2) 0.2339(3) 0.45639(19)
O6B O 0.2460(2) 0.4053(3) 0.34913(17)
O7B O 0.0341(2) 0.2173(3) 0.3769(2)
O8B O 0.1076(2) 0.4094(3) 0.2636(2)
O9C O 0.5844(2) 0.7676(2) 0.13662(18)
O9B O 0.4156(2) 0.2676(2) 0.36338(18)
O10C O 0.6426(2) 0.6299(2) 0.00487(18)
O10B O 0.3574(2) 0.1299(2) 0.49513(18)
O11C O 0.5201(2) 0.6013(3) 0.21126(19)
O11B O 0.4799(2) 1.1013(3) 0.28874(19)
O11A O 0.4799(2) 0.3987(3) 0.78874(19)
O12C O 0.5848(2) 0.4474(2) 0.06619(19)
O12B O 0.4152(2) 0.9474(2) 0.43381(19)
O12A O 0.4152(2) 0.5526(2) 0.93381(19)
O13B O 0.46614(19) 0.3560(2) 0.55035(18)
O13C O 0.53386(19) 0.8560(2) 0.94965(18)
O14B O 0.60032(19) 0.4831(2) 0.57422(17)
O15C O 0.3695(2) 0.6167(3) 0.7104(2)
H5C H 0.3864 0.5431 0.6956
H6C H 0.3750 0.6520 0.6594
C8 C 0.9078(3) 0.4227(4) 0.1526(3)
C9 C 0.8652(4) 0.3843(4) 0.0591(3)
C10 C 0.9912(3) 0.2143(4) 0.1440(3)
C11 C 0.9227(3) 0.1625(4) 0.0690(3)
C12 C 0.8379(3) 0.2350(4) 0.2300(3)
C13 C 0.7698(3) 0.2277(4) 0.1465(3)
N1 N 0.9318(2) 0.3015(3) 0.2028(2)
N2 N 0.8321(3) 0.2468(3) 0.0644(2)
H3 H 0.9668 0.3209 0.2516
H4 H 0.7954 0.2279 0.0148
H9 H 0.9163 0.3919 0.0128
H10 H 0.8076 0.4374 0.0443
H11 H 0.9683 0.4732 0.1457
H12 H 0.8588 0.4718 0.1861
H13 H 0.7198 0.2961 0.1486
H14 H 0.7376 0.1448 0.1433
H15 H 0.8549 0.1489 0.2510
H16 H 0.8062 0.2833 0.2774
H17 H 1.0452 0.2617 0.1168
H18 H 1.0174 0.1436 0.1797
H19 H 0.9572 0.1646 0.0113
H20 H 0.9017 0.0743 0.0823
O16 O 0.7498(3) 0.5004(4) 0.8641(3)
H1 H 0.7118 0.5495 0.8918
H2 H 0.8083 0.5167 0.8800
O17 O 0.3260(2) 0.7817(3) 0.5624(2)
H7 H 0.3716 0.8077 0.5296
H8 H 0.2986 0.8383 0.5920
loop_
_geom_bond_atom_site_label_1
_geom_bond_atom_site_label_2
_geom_bond_site_symmetry_1
_geom_bond_site_symmetry_2
Zr1 O1 1_555 1_555
K1 O1 1_555 1_555
C1 C2 1_555 1_555
C2 O2 1_555 1_555
C3 C4 1_555 1_555
C4 O6 1_555 1_555
C5 C6 1_555 1_555
C6 O10 1_555 1_555
C7 O13 1_555 1_555
C8 C9 1_555 1_555
C9 N2 1_555 1_555
C10 C11 1_555 1_555
C11 N2 1_555 1_555
C12 C13 1_555 1_555
C13 N2 1_555 1_555
N1 C8 1_555 1_555
N2 H4 1_555 1_555
O1 C1 1_555 1_555
O2 Zr1 1_555 1_555
O3 C1 1_555 1_555
O4 C2 1_555 1_555
O5 Zr1 1_555 1_555
O6 Zr1 1_555 1_555
O7 C3 1_555 1_555
O8 C4 1_555 1_555
O9 Zr1 1_555 1_555
O10 Zr1 1_555 1_555
O11 C5 1_555 1_555
O12 C6 1_555 1_555
O13 Zr1 1_555 1_555
O14 C7 1_555 1_555
O15 K1 1_555 1_555
O16 H1 1_555 1_555
O17 H7 1_555 1_555
H2 O16 1_555 1_555
H3 N1 1_555 1_555
H5 O15 1_555 1_555
H6 O15 1_555 1_555
H8 O17 1_555 1_555
H9 C9 1_555 1_555
H10 C9 1_555 1_555
H11 C8 1_555 1_555
H12 C8 1_555 1_555
H13 C13 1_555 1_555
H14 C13 1_555 1_555
H15 C12 1_555 1_555
H16 C12 1_555 1_555
H17 C10 1_555 1_555
H18 C10 1_555 1_555
H19 C11 1_555 1_555
H20 C11 1_555 1_555
Zr1B O14 1_555 1_555
Zr1C O9C 1_555 1_555
K1C O9 1_555 1_555
K1B O11 1_555 1_555
K1B_2 O1B 1_555 1_555
K1A O9B 1_555 1_555
C1B C2B 1_555 1_555
C2B O2B 1_555 1_555
C3B C4B 1_555 1_555
C4B O6B 1_555 1_555
C5C C6C 1_555 1_555
C6C O10C 1_555 1_555
C7B C7 1_555 1_555
O1B Zr1B 1_555 1_555
O1C K1C 1_555 1_555
O2B Zr1B 1_555 1_555
O3B C1B 1_555 1_555
O4B C2B 1_555 1_555
O5B Zr1B 1_555 1_555
O6B Zr1B 1_555 1_555
O7B C3B 1_555 1_555
O8B C4B 1_555 1_555
O9C K1 1_555 1_555
O9B Zr1B 1_555 1_555
O10C Zr1C 1_555 1_555
O10B Zr1B 1_555 1_555
O11C K1 1_555 1_555
O11B K1 1_555 1_555
O11A K1C 1_555 1_555
O12C K1A 1_555 1_555
O12B K1 1_555 1_555
O12A K1C 1_555 1_555
O13B Zr1B 1_555 1_555
O13C K1C 1_555 1_555
O14B Zr1 1_555 1_555
O15C K1C 1_555 1_555
H5C O15C 1_555 1_555
H6C O15C 1_555 1_555
K1 O13 1_555 1_555
C3 O5 1_555 1_555
C5 O9 1_555 1_555
C10 N1 1_555 1_555
C12 N1 1_555 1_555
O11 K1C 1_555 1_555
O12 K1B 1_555 1_555
K1B_2 O11A 1_555 1_555
K1B_2 O13B 1_555 1_555
K1A O11C 1_555 1_555
C1B O1B 1_555 1_555
C3B O5B 1_555 1_555
C5C O9C 1_555 1_555
C5C O11C 1_555 1_555
C6C O12C 1_555 1_555
C7B O13B 1_555 1_555
C7B O14B 1_555 1_555

#END
