
#######################################################################
#
#                 Cambridge Crystallographic Data Centre
#                                CCDC 
#
#######################################################################
#
# If this CIF has been generated from an entry in the Cambridge 
# Structural Database, then it will include bibliographic, chemical, 
# crystal, experimental, refinement or atomic coordinate data resulting 
# from the CCDC's data processing and validation procedures.
#
#######################################################################

data_WOCKOP
_symmetry_cell_setting           triclinic
_symmetry_space_group_name_H-M   'P -1'
_symmetry_Int_Tables_number      2
_space_group_name_Hall           '-P 1'
loop_
_symmetry_equiv_pos_site_id
_symmetry_equiv_pos_as_xyz
1 x,y,z
2 -x,-y,-z
_cell_length_a                   8.670(2)
_cell_length_b                   10.028(2)
_cell_length_c                   12.476(3)
_cell_angle_alpha                74.158(3)
_cell_angle_beta                 78.893(3)
_cell_angle_gamma                89.453(3)
_cell_volume                     1022.89
loop_
_atom_site_label
_atom_site_type_symbol
_atom_site_fract_x
_atom_site_fract_y
_atom_site_fract_z
Cd1 Cd 0.592453(19) 0.911335(17) 0.720306(14)
N1 N 0.4594(2) 0.7369(2) 0.88222(18)
N2 N -0.3865(2) 0.9320(2) 1.28390(17)
O1 O 0.8354(2) 0.8738(2) 0.79319(16)
O2 O 0.6740(2) 1.0226(2) 0.84786(18)
O3 O 0.6739(2) 0.73147(19) 0.63210(16)
O4 O 0.4435(2) 0.81066(19) 0.60396(16)
O5 O 0.7250(2) 1.0759(2) 0.56349(16)
H1 H 0.666(2) 1.115(3) 0.5174(17)
H2 H 0.8211(10) 1.087(3) 0.5279(19)
C1 C 0.7979(3) 0.9578(3) 0.8511(2)
C2 C 0.9019(3) 0.9787(2) 0.92924(19)
C3 C 1.0440(3) 0.9134(3) 0.9316(2)
H5 H 1.0740 0.8548 0.8856
C4 C 0.8593(3) 1.0650(3) 0.9983(2)
H6 H 0.7644 1.1090 0.9975
C5 C 0.5493(3) 0.7255(2) 0.5962(2)
C6 C 0.5239(3) 0.6091(2) 0.5458(2)
C7 C 0.6443(3) 0.5210(3) 0.5263(2)
H7 H 0.7412 0.5346 0.5442
C8 C 0.3785(3) 0.5866(3) 0.5194(2)
H8 H 0.2968 0.6444 0.5325
C9 C 0.3291(3) 0.6720(3) 0.8758(2)
H9 H 0.3037 0.6845 0.8047
C10 C 0.2310(3) 0.5881(3) 0.9687(2)
H10 H 0.1417 0.5455 0.9594
C11 C 0.2636(3) 0.5660(3) 1.0769(2)
C12 C 0.4009(3) 0.6286(3) 1.0827(2)
H11 H 0.4310 0.6149 1.1524
C13 C 0.4944(3) 0.7120(3) 0.9853(2)
H12 H 0.5866 0.7528 0.9919
C14 C 0.1503(3) 0.4813(3) 1.1792(2)
H13 H 0.1995 0.4642 1.2450
H14 H 0.1285 0.3922 1.1675
C15 C -0.0059(3) 0.5512(3) 1.2042(3)
H15 H -0.0394 0.5929 1.1331
H16 H -0.0855 0.4808 1.2505
C16 C 0.0041(4) 0.6603(3) 1.2642(3)
H17 H 0.0960 0.7208 1.2245
H18 H 0.0207 0.6152 1.3401
C17 C -0.1373(3) 0.7498(3) 1.2743(2)
C18 C -0.2680(4) 0.7399(3) 1.2262(3)
H19 H -0.2749 0.6717 1.1894
C19 C -0.3875(3) 0.8317(3) 1.2333(3)
H20 H -0.4733 0.8225 1.2008
C20 C -0.2627(3) 0.9382(3) 1.3324(2)
H21 H -0.2594 1.0060 1.3702
C21 C -0.1403(3) 0.8502(3) 1.3297(2)
H22 H -0.0584 0.8592 1.3660
Cd1A Cd -0.592453(19) 1.088665(17) 1.279694(14)
Cd1A_2 Cd 1.407547(19) 1.088665(17) 1.279694(14)
Cd1A_3 Cd 0.407547(19) 0.088665(17) 0.279694(14)
N1A N -0.4594(2) 1.2631(2) 1.11778(18)
N2A N 0.3865(2) 1.0680(2) 0.71610(17)
O1A O 1.1646(2) 1.1262(2) 1.20681(16)
O1A_2 O -0.8354(2) 1.1262(2) 1.20681(16)
O2A O 1.3260(2) 0.9774(2) 1.15214(18)
O2A_2 O -0.6740(2) 0.9774(2) 1.15214(18)
O3A O 0.3261(2) 0.26853(19) 0.36790(16)
O3A_2 O -0.6739(2) 1.26853(19) 1.36790(16)
O4A O 0.5565(2) 0.18934(19) 0.39604(16)
O4A_2 O -0.4435(2) 1.18934(19) 1.39604(16)
O5A O -0.7250(2) 0.9241(2) 1.43651(16)
H1A H -0.666(2) 0.885(3) 1.4826(17)
H2A H -0.8211(10) 0.913(3) 1.4721(19)
C1A C 1.2021(3) 1.0422(3) 1.1489(2)
C2A C 1.0981(3) 1.0213(2) 1.07076(19)
C3A C 0.9560(3) 1.0866(3) 1.0684(2)
H5A H 0.9260 1.1452 1.1144
C4A C 1.1407(3) 0.9350(3) 1.0017(2)
H6A H 1.2356 0.8910 1.0025
C5A C 0.4507(3) 0.2745(2) 0.4038(2)
C6A C 0.4761(3) 0.3909(2) 0.4542(2)
C7A C 0.3557(3) 0.4790(3) 0.4737(2)
H7A H 0.2588 0.4654 0.4558
C8A C 0.6215(3) 0.4134(3) 0.4806(2)
H8A H 0.7032 0.3556 0.4675
C9A C -0.3291(3) 1.3280(3) 1.1242(2)
H9A H -0.3037 1.3155 1.1953
C10A C -0.2310(3) 1.4119(3) 1.0313(2)
H10A H -0.1417 1.4545 1.0406
C11A C -0.2636(3) 1.4340(3) 0.9231(2)
C12A C -0.4009(3) 1.3714(3) 0.9173(2)
H11A H -0.4310 1.3851 0.8476
C13A C -0.4944(3) 1.2880(3) 1.0147(2)
H12A H -0.5866 1.2472 1.0081
C14A C -0.1503(3) 1.5187(3) 0.8208(2)
H13A H -0.1995 1.5358 0.7550
H14A H -0.1285 1.6078 0.8325
C15A C 0.0059(3) 1.4488(3) 0.7958(3)
H15A H 0.0394 1.4071 0.8669
H16A H 0.0855 1.5192 0.7495
C16A C -0.0041(4) 1.3397(3) 0.7358(3)
H17A H -0.0960 1.2792 0.7755
H18A H -0.0207 1.3848 0.6599
C17A C 0.1373(3) 1.2502(3) 0.7257(2)
C18A C 0.2680(4) 1.2601(3) 0.7738(3)
H19A H 0.2749 1.3283 0.8106
C19A C 0.3875(3) 1.1683(3) 0.7667(3)
H20A H 0.4733 1.1775 0.7992
C20A C 0.2627(3) 1.0618(3) 0.6676(2)
H21A H 0.2594 0.9940 0.6298
C21A C 0.1403(3) 1.1498(3) 0.6703(2)
H22A H 0.0584 1.1408 0.6340
O6 O 1.0003(3) 0.8165(4) 0.5925(2)
H3 H 0.914(2) 0.781(4) 0.586(3)
H4 H 0.989(4) 0.829(4) 0.6589(16)
loop_
_geom_bond_atom_site_label_1
_geom_bond_atom_site_label_2
_geom_bond_site_symmetry_1
_geom_bond_site_symmetry_2
Cd1 N1 1_555 1_555
N1 C9 1_555 1_555
N2 C19 1_555 1_555
O1 Cd1 1_555 1_555
O2 Cd1 1_555 1_555
O3 Cd1 1_555 1_555
O4 Cd1 1_555 1_555
O5 Cd1 1_555 1_555
H1 O5 1_555 1_555
H2 O5 1_555 1_555
O6 H3 1_555 1_555
H4 O6 1_555 1_555
C1 O1 1_555 1_555
C2 C1 1_555 1_555
C3 C2 1_555 1_555
H5 C3 1_555 1_555
C4 C2 1_555 1_555
H6 C4 1_555 1_555
C5 O3 1_555 1_555
C6 C5 1_555 1_555
C7 C6 1_555 1_555
H7 C7 1_555 1_555
C8 C6 1_555 1_555
H8 C8 1_555 1_555
C9 H9 1_555 1_555
C10 C9 1_555 1_555
H10 C10 1_555 1_555
C11 C10 1_555 1_555
C12 C11 1_555 1_555
H11 C12 1_555 1_555
C13 N1 1_555 1_555
H12 C13 1_555 1_555
C14 C11 1_555 1_555
H13 C14 1_555 1_555
H14 C14 1_555 1_555
C15 C14 1_555 1_555
H15 C15 1_555 1_555
H16 C15 1_555 1_555
C16 C15 1_555 1_555
H17 C16 1_555 1_555
H18 C16 1_555 1_555
C17 C16 1_555 1_555
C18 C17 1_555 1_555
H19 C18 1_555 1_555
C19 C18 1_555 1_555
H20 C19 1_555 1_555
C20 N2 1_555 1_555
H21 C20 1_555 1_555
C21 C17 1_555 1_555
H22 C21 1_555 1_555
Cd1A N2 1_555 1_555
Cd1A_2 O1A 1_555 1_555
Cd1A_3 O3A 1_555 1_555
N1A Cd1A 1_555 1_555
N2A Cd1 1_555 1_555
O1A C1A 1_555 1_555
O1A_2 Cd1A 1_555 1_555
O2A Cd1A_2 1_555 1_555
O2A_2 Cd1A 1_555 1_555
O3A C5A 1_555 1_555
O3A_2 Cd1A 1_555 1_555
O4A Cd1A_3 1_555 1_555
O4A_2 Cd1A 1_555 1_555
O5A Cd1A 1_555 1_555
H1A O5A 1_555 1_555
H2A O5A 1_555 1_555
C1A O2A 1_555 1_555
C2A C1A 1_555 1_555
C3A C4 1_555 1_555
H5A C3A 1_555 1_555
C4A C3 1_555 1_555
H6A C4A 1_555 1_555
C5A O4A 1_555 1_555
C6A C5A 1_555 1_555
C7A C8 1_555 1_555
H7A C7A 1_555 1_555
C8A C7 1_555 1_555
H8A C8A 1_555 1_555
C9A N1A 1_555 1_555
H9A C9A 1_555 1_555
C10A C9A 1_555 1_555
H10A C10A 1_555 1_555
C11A C10A 1_555 1_555
C12A C11A 1_555 1_555
H11A C12A 1_555 1_555
C13A N1A 1_555 1_555
H12A C13A 1_555 1_555
C14A C11A 1_555 1_555
H13A C14A 1_555 1_555
H14A C14A 1_555 1_555
C15A C14A 1_555 1_555
H15A C15A 1_555 1_555
H16A C15A 1_555 1_555
C16A C15A 1_555 1_555
H17A C16A 1_555 1_555
H18A C16A 1_555 1_555
C17A C16A 1_555 1_555
C18A C17A 1_555 1_555
H19A C18A 1_555 1_555
C19A N2A 1_555 1_555
H20A C19A 1_555 1_555
C20A N2A 1_555 1_555
H21A C20A 1_555 1_555
C21A C17A 1_555 1_555
H22A C21A 1_555 1_555
O2 C1 1_555 1_555
O4 C5 1_555 1_555
C12 C13 1_555 1_555
C20 C21 1_555 1_555
C2A C3A 1_555 1_555
C2A C4A 1_555 1_555
C6A C7A 1_555 1_555
C6A C8A 1_555 1_555
C12A C13A 1_555 1_555
C18A C19A 1_555 1_555
C20A C21A 1_555 1_555

#END
