
#######################################################################
#
#                 Cambridge Crystallographic Data Centre
#                                CCDC 
#
#######################################################################
#
# If this CIF has been generated from an entry in the Cambridge 
# Structural Database, then it will include bibliographic, chemical, 
# crystal, experimental, refinement or atomic coordinate data resulting 
# from the CCDC's data processing and validation procedures.
#
#######################################################################

data_WOCLUV
_symmetry_cell_setting           triclinic
_symmetry_space_group_name_H-M   'P -1'
_symmetry_Int_Tables_number      2
_space_group_name_Hall           '-P 1'
loop_
_symmetry_equiv_pos_site_id
_symmetry_equiv_pos_as_xyz
1 x,y,z
2 -x,-y,-z
_cell_length_a                   7.0044(5)
_cell_length_b                   11.1820(10)
_cell_length_c                   6.3971(8)
_cell_angle_alpha                102.978(8)
_cell_angle_beta                 104.697(4)
_cell_angle_gamma                74.017(8)
_cell_volume                     459.419
loop_
_atom_site_label
_atom_site_type_symbol
_atom_site_fract_x
_atom_site_fract_y
_atom_site_fract_z
Na1 Na 0.60107(8) 0.44741(5) 0.75827(8)
O1 O 0.9347(2) -0.30740(9) 0.6454(2)
O2 O 0.6122(2) 0.13815(11) 0.1563(2)
O3 O 0.6263(2) 0.24290(10) 0.4802(2)
O4 O 0.9128(2) 0.3444(2) 0.9266(2)
O5 O 0.5640(2) 0.63327(9) 1.0299(2)
O6 O 0.27311(13) 0.50049(9) 0.5196(2)
N1 N 0.7957(2) -0.19659(11) 0.3649(2)
N2 N 0.6485(2) 0.14286(11) 0.3564(2)
C1 C 0.8650(2) -0.20009(12) 0.5839(2)
C2 C 0.8558(2) -0.08602(13) 0.7355(2)
C3 C 0.7846(2) 0.02772(13) 0.6660(2)
C4 C 0.7209(2) 0.02791(12) 0.4430(2)
C5 C 0.7277(2) -0.08527(13) 0.3005(2)
H1 H 0.9064 -0.0890 0.9084
H2 H 0.7776 0.1143 0.7810
H3 H 0.6745 -0.0824 0.1273
H4 H 1.0199 0.3138 0.8470
H5 H 0.9576 0.3296 1.0336
H6 H 0.6662 0.6673 1.1405
H7 H 0.5131 0.6862 0.9925
H8 H 0.1888 0.5589 0.5766
H9 H 0.2200 0.4385 0.4619
Na1A Na 0.39893(8) 0.55259(5) 1.24173(8)
O5A O 0.4360(2) 0.36673(9) 0.9701(2)
Na1A_2 Na 0.39893(8) 0.55259(5) 0.24173(8)
O6A O 0.72689(13) 0.49951(9) 0.4804(2)
H8A H 0.8112 0.4411 0.4234
H9A H 0.7800 0.5615 0.5381
H6A H 0.3338 0.3327 0.8595
H7A H 0.4869 0.3138 1.0075
loop_
_geom_bond_atom_site_label_1
_geom_bond_atom_site_label_2
_geom_bond_site_symmetry_1
_geom_bond_site_symmetry_2
Na1 O3 1_555 1_555
O1 C1 1_555 1_555
O2 N2 1_555 1_555
O3 N2 1_555 1_555
O4 Na1 1_555 1_555
O5 Na1 1_555 1_555
O6 Na1 1_555 1_555
N1 C1 1_555 1_555
N2 C4 1_555 1_555
C1 C2 1_555 1_555
C2 C3 1_555 1_555
C3 C4 1_555 1_555
C4 C5 1_555 1_555
C5 N1 1_555 1_555
H1 C2 1_555 1_555
H2 C3 1_555 1_555
H3 C5 1_555 1_555
H4 O4 1_555 1_555
H5 O4 1_555 1_555
H6 O5 1_555 1_555
H7 O5 1_555 1_555
H8 O6 1_555 1_555
H9 O6 1_555 1_555
Na1A O5 1_555 1_555
O5A Na1 1_555 1_555
Na1A_2 O6 1_555 1_555
O6A Na1 1_555 1_555
H8A O6A 1_555 1_555
H9A O6A 1_555 1_555
H6A O5A 1_555 1_555
H7A O5A 1_555 1_555
Na1A O5A 1_555 1_555
Na1A_2 O6A 1_555 1_555

#END
