
#######################################################################
#
#                 Cambridge Crystallographic Data Centre
#                                CCDC 
#
#######################################################################
#
# If this CIF has been generated from an entry in the Cambridge 
# Structural Database, then it will include bibliographic, chemical, 
# crystal, experimental, refinement or atomic coordinate data resulting 
# from the CCDC's data processing and validation procedures.
#
#######################################################################

data_WOCLOP
_symmetry_cell_setting           monoclinic
_symmetry_space_group_name_H-M   'P 21/n'
_symmetry_Int_Tables_number      14
_space_group_name_Hall           '-P 2yn'
loop_
_symmetry_equiv_pos_site_id
_symmetry_equiv_pos_as_xyz
1 x,y,z
2 1/2+x,1/2-y,1/2+z
3 -x,-y,-z
4 1/2-x,1/2+y,1/2-z
_cell_length_a                   8.516(3)
_cell_length_b                   10.915(4)
_cell_length_c                   13.054(6)
_cell_angle_alpha                90
_cell_angle_beta                 95.310(10)
_cell_angle_gamma                90
_cell_volume                     1208.19
loop_
_atom_site_label
_atom_site_type_symbol
_atom_site_fract_x
_atom_site_fract_y
_atom_site_fract_z
Ag1 Ag 0.55989(3) 0.15357(3) 0.699480(19)
N1 N -0.0113(3) 0.3417(3) 0.3553(2)
N2 N 0.6033(3) 0.1320(2) 0.5391(2)
C1 C -0.1542(4) 0.3853(3) 0.3727(3)
H1 H -0.2240 0.4112 0.3148
C2 C -0.2040(4) 0.3957(3) 0.4693(3)
H2 H -0.3069 0.4277 0.4781
C3 C -0.1058(5) 0.3587(3) 0.5523(3)
H3 H -0.1384 0.3647 0.6206
C4 C 0.0409(4) 0.3127(3) 0.5360(3)
H4 H 0.1115 0.2851 0.5929
C5 C 0.0873(4) 0.3063(3) 0.4369(2)
C6 C 0.2407(4) 0.2576(3) 0.4143(2)
H5 H 0.2569 0.2447 0.3433
C7 C 0.3591(4) 0.2300(3) 0.4825(2)
H6 H 0.3467 0.2482 0.5533
C8 C 0.5073(4) 0.1737(3) 0.4583(2)
C9 C 0.5484(4) 0.1607(3) 0.3581(2)
H7 H 0.4803 0.1921 0.3015
C10 C 0.6881(4) 0.1038(3) 0.3409(3)
H8 H 0.7175 0.0942 0.2721
C11 C 0.7833(4) 0.0592(4) 0.4230(3)
H9 H 0.8800 0.0181 0.4122
C12 C 0.7379(4) 0.0757(3) 0.5207(3)
H10 H 0.8048 0.0448 0.5782
Ag1A Ag 0.05989(3) 0.34643(3) 0.199480(19)
N1A N 0.4887(3) 0.1583(3) 0.8553(2)
N3 N 0.4266(4) 0.5123(3) 0.2767(2)
O1 O 0.2829(3) 0.5328(3) 0.2610(2)
O2 O 0.4815(4) 0.4198(3) 0.2396(2)
O3 O 0.5142(4) 0.5839(3) 0.3266(3)
loop_
_geom_bond_atom_site_label_1
_geom_bond_atom_site_label_2
_geom_bond_site_symmetry_1
_geom_bond_site_symmetry_2
Ag1 N2 1_555 1_555
N1 C1 1_555 1_555
N2 C8 1_555 1_555
C1 H1 1_555 1_555
C2 C1 1_555 1_555
H2 C2 1_555 1_555
C3 C2 1_555 1_555
H3 C3 1_555 1_555
C4 C3 1_555 1_555
H4 C4 1_555 1_555
C5 N1 1_555 1_555
C6 C5 1_555 1_555
H5 C6 1_555 1_555
C7 C6 1_555 1_555
H6 C7 1_555 1_555
C8 C7 1_555 1_555
C9 C8 1_555 1_555
H7 C9 1_555 1_555
C10 C9 1_555 1_555
H8 C10 1_555 1_555
C11 C10 1_555 1_555
H9 C11 1_555 1_555
C12 N2 1_555 1_555
H10 C12 1_555 1_555
N3 O1 1_555 1_555
O2 N3 1_555 1_555
O3 N3 1_555 1_555
Ag1A N1 1_555 1_555
N1A Ag1 1_555 1_555
C4 C5 1_555 1_555
C11 C12 1_555 1_555

#END
