
#######################################################################
#
#                 Cambridge Crystallographic Data Centre
#                                CCDC 
#
#######################################################################
#
# If this CIF has been generated from an entry in the Cambridge 
# Structural Database, then it will include bibliographic, chemical, 
# crystal, experimental, refinement or atomic coordinate data resulting 
# from the CCDC's data processing and validation procedures.
#
#######################################################################

data_WOCMAD
_symmetry_cell_setting           monoclinic
_symmetry_space_group_name_H-M   'P 21/c'
_symmetry_Int_Tables_number      14
_space_group_name_Hall           '-P 2ybc'
loop_
_symmetry_equiv_pos_site_id
_symmetry_equiv_pos_as_xyz
1 x,y,z
2 -x,1/2+y,1/2-z
3 -x,-y,-z
4 x,1/2-y,1/2+z
_cell_length_a                   5.1979(2)
_cell_length_b                   19.9137(10)
_cell_length_c                   9.6023(5)
_cell_angle_alpha                90
_cell_angle_beta                 99.177(3)
_cell_angle_gamma                90
_cell_volume                     981.207
loop_
_atom_site_label
_atom_site_type_symbol
_atom_site_fract_x
_atom_site_fract_y
_atom_site_fract_z
Na1 Na 0.36482(15) 0.52473(4) 0.12684(8)
O1 O 0.3396(3) 0.50339(8) 0.36588(15)
N1 N 0.7685(3) 0.65366(9) 0.00968(18)
N2 N 0.4129(3) 0.58182(9) -0.08874(18)
B1 B 0.8817(5) 0.60049(13) 0.1256(3)
H1 H 0.910(4) 0.5483(11) 0.076(2)
H2 H 1.082(4) 0.6214(10) 0.175(2)
H3 H 0.743(4) 0.5967(11) 0.205(2)
C1 C 0.8801(4) 0.71405(11) -0.0002(2)
H4 H 1.0376 0.7237 0.0614
C2 C 0.7768(4) 0.76290(11) -0.0957(2)
H5 H 0.8640 0.8047 -0.0983
C3 C 0.5465(4) 0.75121(11) -0.1877(2)
H6 H 0.4737 0.7847 -0.2527
C4 C 0.4254(4) 0.68936(11) -0.1824(2)
C5 C 0.1991(4) 0.65608(11) -0.2528(2)
H7 H 0.0722 0.6737 -0.3258
C6 C 0.2017(4) 0.59359(11) -0.1938(2)
H8 H 0.0703 0.5610 -0.2223
C7 C 0.5455(4) 0.64047(10) -0.0823(2)
C8 C 0.3936(4) 0.44043(11) 0.4379(2)
H9 H 0.3946 0.4039 0.3680
H10 H 0.2552 0.4305 0.4948
C9 C 0.3457(4) 0.55672(12) 0.4672(2)
H11 H 0.2066 0.5495 0.5250
H12 H 0.3119 0.6001 0.4172
Na1B Na 0.63518(15) 0.47527(4) 0.87316(8)
Na1B_2 Na 0.63518(15) 0.47527(4) -0.12684(8)
Na1_2 Na 1.36482(15) 0.52473(4) 0.12684(8)
Na1B_3 Na -0.36482(15) 0.47527(4) -0.12684(8)
Na1_3 Na 0.36482(15) 0.52473(4) 1.12684(8)
O1B O 0.6604(3) 0.49661(8) 0.63412(15)
N1B N 0.2315(3) 0.34634(9) -0.00968(18)
N2B N 0.5871(3) 0.41818(9) 0.08874(18)
N2_2 N 0.4129(3) 0.58182(9) 0.91126(18)
N2B_2 N 0.5871(3) 0.41818(9) 1.08874(18)
B1B B 0.1183(5) 0.39951(13) -0.1256(3)
H1B H 0.090(4) 0.4517(11) -0.076(2)
H1_2 H -0.090(4) 0.5483(11) 0.076(2)
H1B_2 H 1.090(4) 0.4517(11) 0.924(2)
H1B_3 H 1.090(4) 0.4517(11) -0.076(2)
H1_3 H -0.090(4) 0.5483(11) 1.076(2)
H2B H -0.082(4) 0.3786(10) -0.175(2)
H3B H 0.257(4) 0.4033(11) -0.205(2)
H3B_2 H 0.257(4) 0.4033(11) 0.795(2)
H3_2 H 0.743(4) 0.5967(11) 1.205(2)
C1B C 0.1199(4) 0.28595(11) 0.0002(2)
H4B H -0.0376 0.2763 -0.0614
C2B C 0.2232(4) 0.23710(11) 0.0957(2)
H5B H 0.1360 0.1953 0.0983
C3B C 0.4535(4) 0.24879(11) 0.1877(2)
H6B H 0.5263 0.2153 0.2527
C4B C 0.5746(4) 0.31064(11) 0.1824(2)
C5B C 0.8009(4) 0.34392(11) 0.2528(2)
H7B H 0.9278 0.3263 0.3258
C6B C 0.7983(4) 0.40641(11) 0.1938(2)
H8B H 0.9297 0.4390 0.2223
C7B C 0.4545(4) 0.35953(10) 0.0823(2)
C8B C 0.6064(4) 0.55957(11) 0.5621(2)
H9B H 0.6054 0.5961 0.6320
H10B H 0.7448 0.5695 0.5052
C9B C 0.6543(4) 0.44328(12) 0.5328(2)
H11B H 0.7934 0.4505 0.4750
H12B H 0.6881 0.3999 0.5828
loop_
_geom_bond_atom_site_label_1
_geom_bond_atom_site_label_2
_geom_bond_site_symmetry_1
_geom_bond_site_symmetry_2
Na1 O1 1_555 1_555
O1 C8 1_555 1_555
N1 B1 1_555 1_555
N2 Na1 1_555 1_555
B1 H1 1_555 1_555
H1 Na1_2 1_555 1_555
H2 B1 1_555 1_555
H3 Na1 1_555 1_555
C1 N1 1_555 1_555
H4 C1 1_555 1_555
C2 C1 1_555 1_555
H5 C2 1_555 1_555
C3 C2 1_555 1_555
H6 C3 1_555 1_555
C4 C3 1_555 1_555
C5 C4 1_555 1_555
H7 C5 1_555 1_555
C6 N2 1_555 1_555
H8 C6 1_555 1_555
C7 N1 1_555 1_555
C8 H9 1_555 1_555
H10 C8 1_555 1_555
C9 O1 1_555 1_555
H11 C9 1_555 1_555
H12 C9 1_555 1_555
Na1B O1B 1_555 1_555
Na1B_2 N2 1_555 1_555
Na1B_3 H1B 1_555 1_555
Na1_3 N2_2 1_555 1_555
O1B C8B 1_555 1_555
N1B B1B 1_555 1_555
N2B Na1 1_555 1_555
N2_2 Na1B 1_555 1_555
N2B_2 Na1B 1_555 1_555
B1B H1B 1_555 1_555
H1_2 Na1 1_555 1_555
H1B_2 Na1B 1_555 1_555
H1B_3 Na1B_2 1_555 1_555
H1_3 Na1_3 1_555 1_555
H2B B1B 1_555 1_555
H3B Na1B_2 1_555 1_555
H3B_2 Na1B 1_555 1_555
H3_2 Na1_3 1_555 1_555
C1B N1B 1_555 1_555
H4B C1B 1_555 1_555
C2B C1B 1_555 1_555
H5B C2B 1_555 1_555
C3B C2B 1_555 1_555
H6B C3B 1_555 1_555
C4B C3B 1_555 1_555
C5B C4B 1_555 1_555
H7B C5B 1_555 1_555
C6B N2B 1_555 1_555
H8B C6B 1_555 1_555
C7B N1B 1_555 1_555
C8B C9 1_555 1_555
H9B C8B 1_555 1_555
H10B C8B 1_555 1_555
C9B C8 1_555 1_555
H11B C9B 1_555 1_555
H12B C9B 1_555 1_555
N2 C7 1_555 1_555
B1 H3 1_555 1_555
C4 C7 1_555 1_555
C5 C6 1_555 1_555
Na1B_2 N2B 1_555 1_555
Na1_3 N2B_2 1_555 1_555
O1B C9B 1_555 1_555
N2B C7B 1_555 1_555
B1B H3B 1_555 1_555
C4B C7B 1_555 1_555
C5B C6B 1_555 1_555

#END
