
#######################################################################
#
#                 Cambridge Crystallographic Data Centre
#                                CCDC 
#
#######################################################################
#
# If this CIF has been generated from an entry in the Cambridge 
# Structural Database, then it will include bibliographic, chemical, 
# crystal, experimental, refinement or atomic coordinate data resulting 
# from the CCDC's data processing and validation procedures.
#
#######################################################################

data_WOCPUB
_symmetry_cell_setting           monoclinic
_symmetry_space_group_name_H-M   'P 21/c'
_symmetry_Int_Tables_number      14
_space_group_name_Hall           '-P 2ybc'
loop_
_symmetry_equiv_pos_site_id
_symmetry_equiv_pos_as_xyz
1 x,y,z
2 -x,1/2+y,1/2-z
3 -x,-y,-z
4 x,1/2-y,1/2+z
_cell_length_a                   10.6806(15)
_cell_length_b                   9.1982(13)
_cell_length_c                   7.5204(11)
_cell_angle_alpha                90
_cell_angle_beta                 107.139(2)
_cell_angle_gamma                90
_cell_volume                     706.012
loop_
_atom_site_label
_atom_site_type_symbol
_atom_site_fract_x
_atom_site_fract_y
_atom_site_fract_z
Ca1 Ca 1.0000 0.5000 0.5000
Cl1 Cl 0.74827(3) 0.58698(4) 0.32775(5)
O1 O 0.94485(11) 0.45892(11) 0.77374(15)
O2 O 0.95196(11) 0.23349(11) 0.88841(16)
C1 C 0.90864(14) 0.36019(16) 0.8636(2)
C2 C 0.80097(14) 0.39790(15) 0.9521(2)
H1 H 0.8307 0.3748 1.0880
C3 C 0.67146(14) 0.31940(16) 0.8576(2)
H2 H 0.6874 0.2243 0.8067
H3 H 0.6199 0.3041 0.9459
C4 C 0.60160(15) 0.42362(16) 0.7022(2)
H4 H 0.6390 0.4186 0.5965
H5 H 0.5065 0.4028 0.6567
C5 C 0.62792(15) 0.57006(17) 0.7985(2)
H6 H 0.6196 0.6496 0.7071
H7 H 0.5665 0.5883 0.8723
N1 N 0.76697(13) 0.55742(14) 0.92309(19)
H8 H 0.8224(18) 0.598(2) 0.870(3)
H9 H 0.7763(18) 0.5986(19) 1.034(2)
Cl1B Cl 1.25173(3) 0.41302(4) 0.67225(5)
O1B O 1.05515(11) 0.54108(11) 0.22626(15)
O2B O 1.04804(11) 0.76651(11) 0.11159(16)
C1B C 1.09136(14) 0.63981(16) 0.1364(2)
C2B C 1.19903(14) 0.60210(15) 0.0479(2)
H1B H 1.1693 0.6252 -0.0880
C3B C 1.32854(14) 0.68060(16) 0.1424(2)
H2B H 1.3126 0.7757 0.1933
H3B H 1.3801 0.6959 0.0541
C4B C 1.39840(15) 0.57638(16) 0.2978(2)
H4B H 1.3610 0.5814 0.4035
H5B H 1.4935 0.5972 0.3433
C5B C 1.37208(15) 0.42994(17) 0.2015(2)
H6B H 1.3804 0.3504 0.2929
H7B H 1.4335 0.4117 0.1277
N1B N 1.23303(13) 0.44258(14) 0.07691(19)
H8B H 1.1776(18) 0.402(2) 0.130(3)
H9B H 1.2237(18) 0.4014(19) -0.034(2)
Ca1A Ca 1.0000 0.0000 1.0000
Ca1A_2 Ca 1.0000 1.0000 0.0000
O2A O 1.04804(11) 0.73349(11) 0.61159(16)
O2C O 0.95196(11) 0.26651(11) 0.38841(16)
loop_
_geom_bond_atom_site_label_1
_geom_bond_atom_site_label_2
_geom_bond_site_symmetry_1
_geom_bond_site_symmetry_2
Ca1 Cl1 1_555 1_555
O1 Ca1 1_555 1_555
O2 C1 1_555 1_555
C1 O1 1_555 1_555
C2 C1 1_555 1_555
H1 C2 1_555 1_555
C3 C2 1_555 1_555
H2 C3 1_555 1_555
H3 C3 1_555 1_555
C4 C3 1_555 1_555
H4 C4 1_555 1_555
H5 C4 1_555 1_555
C5 C4 1_555 1_555
H6 C5 1_555 1_555
H7 C5 1_555 1_555
N1 C2 1_555 1_555
H8 N1 1_555 1_555
H9 N1 1_555 1_555
Cl1B Ca1 1_555 1_555
O1B Ca1 1_555 1_555
O2B C1B 1_555 1_555
C1B O1B 1_555 1_555
C2B C1B 1_555 1_555
H1B C2B 1_555 1_555
C3B C2B 1_555 1_555
H2B C3B 1_555 1_555
H3B C3B 1_555 1_555
C4B C3B 1_555 1_555
H4B C4B 1_555 1_555
H5B C4B 1_555 1_555
C5B C4B 1_555 1_555
H6B C5B 1_555 1_555
H7B C5B 1_555 1_555
N1B C2B 1_555 1_555
H8B N1B 1_555 1_555
H9B N1B 1_555 1_555
Ca1A O2 1_555 1_555
Ca1A_2 O2B 1_555 1_555
O2A Ca1 1_555 1_555
O2C Ca1 1_555 1_555
C5 N1 1_555 1_555
C5B N1B 1_555 1_555

#END
