
#######################################################################
#
#                 Cambridge Crystallographic Data Centre
#                                CCDC 
#
#######################################################################
#
# If this CIF has been generated from an entry in the Cambridge 
# Structural Database, then it will include bibliographic, chemical, 
# crystal, experimental, refinement or atomic coordinate data resulting 
# from the CCDC's data processing and validation procedures.
#
#######################################################################

data_WOCXOC
_symmetry_cell_setting           monoclinic
_symmetry_space_group_name_H-M   'P 21/c'
_symmetry_Int_Tables_number      14
_space_group_name_Hall           '-P 2ybc'
loop_
_symmetry_equiv_pos_site_id
_symmetry_equiv_pos_as_xyz
1 x,y,z
2 -x,1/2+y,1/2-z
3 -x,-y,-z
4 x,1/2-y,1/2+z
_cell_length_a                   15.683(4)
_cell_length_b                   27.326(6)
_cell_length_c                   12.807(3)
_cell_angle_alpha                90
_cell_angle_beta                 96.982(7)
_cell_angle_gamma                90
_cell_volume                     5447.79
loop_
_atom_site_label
_atom_site_type_symbol
_atom_site_fract_x
_atom_site_fract_y
_atom_site_fract_z
Ag1 Ag 0.24283(3) 0.578929(18) 0.07796(5)
Ag2 Ag -0.70834(3) 0.57377(2) 0.35497(6)
O1 O 0.4021(3) 0.73333(16) 0.2439(4)
O2 O 0.6000(3) 0.91602(15) 0.4129(3)
O3 O -0.0519(3) 0.57155(16) 0.1938(4)
O4 O -0.3808(3) 0.56574(15) 0.3936(4)
O5 O -0.8628(3) 0.74054(16) 0.3465(3)
O6 O -1.0984(3) 0.92582(16) 0.1632(4)
N1 N 0.3835(4) 0.5918(2) 0.1386(5)
N2 N 0.5236(3) 0.69979(18) 0.1904(4)
H1 H 0.5754 0.7069 0.1752
N3 N 0.5252(3) 0.77764(18) 0.2550(4)
H2 H 0.5802 0.7776 0.2469
N4 N 0.6021(3) 0.83384(18) 0.4394(4)
H3 H 0.6336 0.8084 0.4621
N5 N 0.7282(3) 0.87666(18) 0.4483(4)
H4 H 0.7523 0.8482 0.4649
N6 N 0.8128(4) 1.00261(19) 0.4377(5)
N7 N 0.1522(4) 0.64257(19) 0.0957(5)
N8 N -0.0731(3) 0.65268(19) 0.1517(4)
H5 H -0.1120 0.6760 0.1450
N9 N -0.1824(3) 0.60668(19) 0.2042(4)
H6 H -0.2150 0.6326 0.1897
N10 N -0.2542(3) 0.60683(19) 0.4053(4)
H7 H -0.2262 0.6336 0.4269
N11 N -0.3777(3) 0.64818(19) 0.4248(4)
H8 H -0.3444 0.6742 0.4272
N12 N -0.6123(4) 0.63031(19) 0.4157(5)
N13 N -0.8437(3) 0.5919(2) 0.3822(5)
N14 N -0.9822(3) 0.70087(19) 0.3882(4)
H9 H -1.0362 0.7051 0.3985
N15 N -0.9895(3) 0.78186(18) 0.3455(4)
H10 H -1.0444 0.7795 0.3530
N16 N -1.0821(3) 0.84396(19) 0.1899(4)
H11 H -1.1093 0.8158 0.1882
N17 N -1.2155(3) 0.87762(19) 0.1785(4)
H12 H -1.2318 0.8472 0.1865
N18 N -1.3292(4) 0.99595(19) 0.1634(5)
C1 C 0.4430(4) 0.5572(2) 0.1307(5)
H13 H 0.4250 0.5242 0.1188
C2 C 0.5301(4) 0.5680(2) 0.1395(5)
H14 H 0.5712 0.5431 0.1322
C3 C 0.5554(4) 0.6154(2) 0.1591(5)
H15 H 0.6147 0.6235 0.1656
C4 C 0.4952(4) 0.6520(2) 0.1694(5)
C5 C 0.4082(4) 0.6382(2) 0.1570(5)
H16 H 0.3657 0.6626 0.1617
C6 C 0.4797(4) 0.7369(2) 0.2321(5)
C7 C 0.4884(4) 0.8219(2) 0.2925(5)
H17 H 0.4252 0.8210 0.2747
H18 H 0.5103 0.8505 0.2565
C8 C 0.5100(4) 0.8280(2) 0.4103(5)
H19 H 0.4797 0.8570 0.4337
H20 H 0.4898 0.7989 0.4463
C9 C 0.6394(4) 0.8777(2) 0.4319(5)
C10 C 0.7833(4) 0.9163(2) 0.4412(5)
C11 C 0.8684(4) 0.9070(2) 0.4268(5)
H21 H 0.8880 0.8742 0.4232
C12 C 0.9241(4) 0.9449(2) 0.4177(5)
H22 H 0.9821 0.9389 0.4072
C13 C 0.8940(4) 0.9918(2) 0.4241(5)
H23 H 0.9329 1.0180 0.4186
C14 C 0.7587(4) 0.9649(2) 0.4481(5)
H24 H 0.7015 0.9719 0.4607
C15 C 0.1700(4) 0.6894(2) 0.0828(5)
H25 H 0.2257 0.6980 0.0673
C16 C 0.1102(4) 0.7264(2) 0.0909(5)
H26 H 0.1249 0.7598 0.0820
C17 C 0.0288(4) 0.7134(2) 0.1122(5)
H27 H -0.0139 0.7378 0.1162
C18 C 0.0099(4) 0.6648(2) 0.1275(5)
C19 C 0.0737(4) 0.6303(2) 0.1187(5)
H28 H 0.0613 0.5968 0.1293
C20 C -0.0984(4) 0.6075(2) 0.1850(5)
C21 C -0.2181(4) 0.5636(2) 0.2481(5)
H29 H -0.1885 0.5341 0.2253
H30 H -0.2797 0.5609 0.2206
C22 C -0.2088(4) 0.5652(2) 0.3672(6)
H31 H -0.2317 0.5346 0.3942
H32 H -0.1471 0.5674 0.3947
C23 C -0.3412(4) 0.6038(2) 0.4069(5)
C24 C -0.4651(4) 0.6554(2) 0.4399(5)
C25 C -0.4866(4) 0.6972(2) 0.4920(5)
H33 H -0.4438 0.7202 0.5182
C26 C -0.5722(5) 0.7047(3) 0.5052(6)
H34 H -0.5889 0.7333 0.5399
C27 C -0.6329(5) 0.6704(2) 0.4674(6)
H35 H -0.6911 0.6754 0.4783
C28 C -0.5292(4) 0.6231(2) 0.4028(5)
H36 H -0.5142 0.5946 0.3666
C29 C -0.8904(4) 0.5595(2) 0.4318(6)
H37 H -0.8701 0.5269 0.4418
C30 C -0.9662(5) 0.5724(2) 0.4678(5)
H38 H -0.9980 0.5489 0.5016
C31 C -0.9960(4) 0.6198(2) 0.4548(5)
H39 H -1.0477 0.6292 0.4810
C32 C -0.9497(4) 0.6538(2) 0.4031(5)
C33 C -0.8726(4) 0.6380(2) 0.3697(6)
H40 H -0.8391 0.6609 0.3366
C34 C -0.9398(4) 0.7414(2) 0.3595(5)
C35 C -0.9558(4) 0.8289(2) 0.3186(5)
H41 H -0.8923 0.8275 0.3275
H42 H -0.9732 0.8540 0.3677
C36 C -0.9874(4) 0.8440(2) 0.2070(5)
H43 H -0.9657 0.8771 0.1933
H44 H -0.9650 0.8209 0.1572
C37 C -1.1281(4) 0.8853(2) 0.1770(5)
C38 C -1.2805(4) 0.9130(2) 0.1688(5)
C39 C -1.3655(4) 0.8970(2) 0.1539(5)
H45 H -1.3782 0.8630 0.1515
C40 C -1.4309(4) 0.9310(2) 0.1427(5)
H46 H -1.4891 0.9207 0.1322
C41 C -1.4108(4) 0.9801(2) 0.1469(5)
H47 H -1.4560 1.0034 0.1379
C42 C -1.2662(4) 0.9627(2) 0.1746(6)
H48 H -1.2085 0.9739 0.1872
Ag1A Ag 0.75717(3) 1.078929(18) 0.42204(5)
Ag2A Ag -1.29166(3) 1.07377(2) 0.14503(6)
N6A N 0.1872(4) 0.50261(19) 0.0623(5)
N18A N -0.6708(4) 0.49595(19) 0.3366(5)
O7 O -0.2817(3) 0.74322(16) 0.4518(4)
O8 O -0.1644(3) 0.70496(16) 0.4302(4)
O9 O -0.1662(3) 0.78403(16) 0.4345(4)
N19 N -0.2034(3) 0.74428(18) 0.4382(4)
O10 O -0.2868(3) 0.70088(15) 0.1849(4)
O11 O -0.1722(3) 0.74510(16) 0.1800(4)
O12 O -0.2940(3) 0.77995(16) 0.1977(4)
N20 N -0.2515(3) 0.74175(18) 0.1875(4)
O13 O -0.0544(3) 0.47892(19) 0.2847(5)
H49 H 0.001(2) 0.463(2) 0.293(6)
H56 H -0.048(5) 0.512(2) 0.257(12)
O14 O -0.2064(3) 0.43024(19) 0.2958(4)
H50 H -0.151(3) 0.445(3) 0.290(8)
H57 H -0.244(6) 0.454(3) 0.323(15)
O15 O -0.2845(3) 0.39242(18) 0.1044(4)
H51 H -0.292(5) 0.3578(7) 0.117(6)
H58 H -0.266(11) 0.409(3) 0.170(3)
O16 O -0.2847(3) 0.29204(18) 0.1614(5)
H52 H -0.338(6) 0.278(3) 0.179(17)
H59 H -0.247(5) 0.266(2) 0.145(8)
O17 O -0.2108(4) 0.3320(2) 0.3736(5)
H53 H -0.233(9) 0.314(3) 0.310(4)
H60 H -0.208(6) 0.3666(7) 0.357(6)
O18 O -0.3634(4) 0.46503(19) 0.3519(5)
H54 H -0.391(12) 0.457(3) 0.282(6)
H61 H -0.370(6) 0.4996(8) 0.366(6)
O19 O -0.4263(3) 0.44684(19) 0.1435(5)
H55 H -0.4855(16) 0.440(3) 0.116(6)
H62 H -0.389(4) 0.421(5) 0.121(15)
loop_
_geom_bond_atom_site_label_1
_geom_bond_atom_site_label_2
_geom_bond_site_symmetry_1
_geom_bond_site_symmetry_2
Ag1 N1 1_555 1_555
Ag2 N12 1_555 1_555
O1 C6 1_555 1_555
O2 C9 1_555 1_555
O3 C20 1_555 1_555
O4 C23 1_555 1_555
O5 C34 1_555 1_555
O6 C37 1_555 1_555
O7 N19 1_555 1_555
O8 N19 1_555 1_555
O9 N19 1_555 1_555
O10 N20 1_555 1_555
O11 N20 1_555 1_555
O12 N20 1_555 1_555
O13 H49 1_555 1_555
O14 H50 1_555 1_555
O15 H51 1_555 1_555
O16 H52 1_555 1_555
O17 H53 1_555 1_555
O18 H54 1_555 1_555
O19 H55 1_555 1_555
N1 C1 1_555 1_555
N2 H1 1_555 1_555
N3 H2 1_555 1_555
N4 H3 1_555 1_555
N5 H4 1_555 1_555
N6 C13 1_555 1_555
N7 Ag1 1_555 1_555
N8 H5 1_555 1_555
N9 H6 1_555 1_555
N10 H7 1_555 1_555
N11 H8 1_555 1_555
N12 C27 1_555 1_555
N13 Ag2 1_555 1_555
N14 H9 1_555 1_555
N15 H10 1_555 1_555
N16 H11 1_555 1_555
N17 H12 1_555 1_555
N18 C41 1_555 1_555
C1 H13 1_555 1_555
C2 C1 1_555 1_555
H14 C2 1_555 1_555
C3 C2 1_555 1_555
H15 C3 1_555 1_555
C4 N2 1_555 1_555
C5 N1 1_555 1_555
H16 C5 1_555 1_555
C6 N2 1_555 1_555
C7 N3 1_555 1_555
H17 C7 1_555 1_555
H18 C7 1_555 1_555
C8 N4 1_555 1_555
H19 C8 1_555 1_555
H20 C8 1_555 1_555
C9 N4 1_555 1_555
C10 N5 1_555 1_555
C11 C10 1_555 1_555
H21 C11 1_555 1_555
C12 C11 1_555 1_555
H22 C12 1_555 1_555
C13 C12 1_555 1_555
H23 C13 1_555 1_555
C14 N6 1_555 1_555
H24 C14 1_555 1_555
C15 N7 1_555 1_555
H25 C15 1_555 1_555
C16 C15 1_555 1_555
H26 C16 1_555 1_555
C17 C16 1_555 1_555
H27 C17 1_555 1_555
C18 N8 1_555 1_555
C19 N7 1_555 1_555
H28 C19 1_555 1_555
C20 N8 1_555 1_555
C21 N9 1_555 1_555
H29 C21 1_555 1_555
H30 C21 1_555 1_555
C22 N10 1_555 1_555
H31 C22 1_555 1_555
H32 C22 1_555 1_555
C23 N10 1_555 1_555
C24 N11 1_555 1_555
C25 C24 1_555 1_555
H33 C25 1_555 1_555
C26 C25 1_555 1_555
H34 C26 1_555 1_555
C27 C26 1_555 1_555
H35 C27 1_555 1_555
C28 N12 1_555 1_555
H36 C28 1_555 1_555
C29 N13 1_555 1_555
H37 C29 1_555 1_555
C30 C29 1_555 1_555
H38 C30 1_555 1_555
C31 C30 1_555 1_555
H39 C31 1_555 1_555
C32 N14 1_555 1_555
C33 N13 1_555 1_555
H40 C33 1_555 1_555
C34 N14 1_555 1_555
C35 N15 1_555 1_555
H41 C35 1_555 1_555
H42 C35 1_555 1_555
C36 N16 1_555 1_555
H43 C36 1_555 1_555
H44 C36 1_555 1_555
C37 N16 1_555 1_555
C38 N17 1_555 1_555
C39 C38 1_555 1_555
H45 C39 1_555 1_555
C40 C39 1_555 1_555
H46 C40 1_555 1_555
C41 C40 1_555 1_555
H47 C41 1_555 1_555
C42 N18 1_555 1_555
H48 C42 1_555 1_555
H56 O13 1_555 1_555
H57 O14 1_555 1_555
H58 O15 1_555 1_555
H59 O16 1_555 1_555
H60 O17 1_555 1_555
H61 O18 1_555 1_555
H62 O19 1_555 1_555
Ag1A N6 1_555 1_555
Ag2A N18 1_555 1_555
N6A Ag1 1_555 1_555
N18A Ag2 1_555 1_555
N3 C6 1_555 1_555
N5 C9 1_555 1_555
N9 C20 1_555 1_555
N11 C23 1_555 1_555
N15 C34 1_555 1_555
N17 C37 1_555 1_555
C3 C4 1_555 1_555
C4 C5 1_555 1_555
C7 C8 1_555 1_555
C10 C14 1_555 1_555
C17 C18 1_555 1_555
C18 C19 1_555 1_555
C21 C22 1_555 1_555
C24 C28 1_555 1_555
C31 C32 1_555 1_555
C32 C33 1_555 1_555
C35 C36 1_555 1_555
C38 C42 1_555 1_555

#END
