
#######################################################################
#
#                 Cambridge Crystallographic Data Centre
#                                CCDC 
#
#######################################################################
#
# If this CIF has been generated from an entry in the Cambridge 
# Structural Database, then it will include bibliographic, chemical, 
# crystal, experimental, refinement or atomic coordinate data resulting 
# from the CCDC's data processing and validation procedures.
#
#######################################################################

data_WOCXIX
_symmetry_cell_setting           tetragonal
_symmetry_space_group_name_H-M   'P 43'
_symmetry_Int_Tables_number      78
_space_group_name_Hall           'P 4cw'
loop_
_symmetry_equiv_pos_site_id
_symmetry_equiv_pos_as_xyz
1 x,y,z
2 -x,-y,1/2+z
3 -y,x,3/4+z
4 y,-x,1/4+z
_cell_length_a                   8.37920(10)
_cell_length_b                   8.37920(10)
_cell_length_c                   19.3387(5)
_cell_angle_alpha                90
_cell_angle_beta                 90
_cell_angle_gamma                90
_cell_volume                     1357.79
loop_
_atom_site_label
_atom_site_type_symbol
_atom_site_fract_x
_atom_site_fract_y
_atom_site_fract_z
Cu1 Cu 0.52405(4) 0.55583(4) 0.16642(2)
N1 N 0.4553(3) 0.2570(3) 0.40057(13)
N2 N 0.5772(4) 0.6035(4) 0.27054(15)
N3 N 0.5331(3) 0.4916(3) 0.31704(14)
C1 C 0.7021(4) 0.7590(4) 0.47846(17)
H1 H 0.6802 0.7041 0.5192
N4 N 0.6573(3) 0.6931(3) 0.41940(15)
C2 C 0.6862(4) 0.7804(4) 0.36029(16)
C3 C 0.8107(5) 0.9865(4) 0.4260(2)
H2 H 0.8621 1.0846 0.4284
C4 C 0.7789(4) 0.9033(4) 0.48337(19)
H3 H 0.8086 0.9431 0.5264
C5 C 0.4158(4) 0.1447(4) 0.44787(19)
H4 H 0.4369 0.1622 0.4945
C6 C 0.7662(5) 0.9245(4) 0.36399(19)
H5 H 0.7899 0.9796 0.3235
O1 O 0.4266(3) 0.3469(3) 0.22311(13)
C7 C 0.4206(4) 0.2267(4) 0.33491(16)
C8 C 0.4612(4) 0.3600(5) 0.28314(17)
C9 C 0.6436(4) 0.7263(5) 0.2881(2)
H6 H 0.6716 0.7956 0.2525
N5 N 0.3167(4) -0.0297(4) 0.36086(17)
C10 C 0.3453(5) 0.0060(4) 0.4273(2)
H7 H 0.3155 -0.0674 0.4610
C11 C 0.3552(4) 0.0816(5) 0.31549(19)
H8 H 0.3378 0.0618 0.2688
Cl1 Cl 0.58639(14) 1.01004(11) 0.13527(5)
O2 O 0.4103(4) 1.0073(5) 0.1493(3)
O3 O 0.6625(4) 1.0650(3) 0.19637(15)
O4 O 0.6228(4) 0.8512(3) 0.12292(18)
O5 O 0.6064(7) 1.1138(5) 0.0815(2)
Cu1C Cu 0.55583(4) 0.47595(4) 0.41642(2)
N1B N 0.7430(3) 0.4553(3) 0.15057(13)
N3B N 0.5084(3) 0.5331(3) 0.06704(14)
N4B N 0.3069(3) 0.6573(3) 0.16940(15)
loop_
_geom_bond_atom_site_label_1
_geom_bond_atom_site_label_2
_geom_bond_site_symmetry_1
_geom_bond_site_symmetry_2
Cu1 N2 1_555 1_555
N1 C5 1_555 1_555
N2 N3 1_555 1_555
N3 C8 1_555 1_555
C1 H1 1_555 1_555
N4 C1 1_555 1_555
C2 N4 1_555 1_555
C3 H2 1_555 1_555
C4 C1 1_555 1_555
H3 C4 1_555 1_555
C5 H4 1_555 1_555
C6 C2 1_555 1_555
H5 C6 1_555 1_555
O1 Cu1 1_555 1_555
C7 N1 1_555 1_555
C8 O1 1_555 1_555
C9 N2 1_555 1_555
H6 C9 1_555 1_555
N5 C10 1_555 1_555
C10 C5 1_555 1_555
H7 C10 1_555 1_555
C11 C7 1_555 1_555
H8 C11 1_555 1_555
Cl1 O2 1_555 1_555
O3 Cl1 1_555 1_555
O4 Cu1 1_555 1_555
O5 Cl1 1_555 1_555
Cu1C N1 1_555 1_555
N1B Cu1 1_555 1_555
N3B Cu1 1_555 1_555
N4B Cu1 1_555 1_555
N3 Cu1C 1_555 1_555
N4 Cu1C 1_555 1_555
C2 C9 1_555 1_555
C3 C4 1_555 1_555
C3 C6 1_555 1_555
C7 C8 1_555 1_555
N5 C11 1_555 1_555
Cl1 O4 1_555 1_555

#END
