
#######################################################################
#
#                 Cambridge Crystallographic Data Centre
#                                CCDC 
#
#######################################################################
#
# If this CIF has been generated from an entry in the Cambridge 
# Structural Database, then it will include bibliographic, chemical, 
# crystal, experimental, refinement or atomic coordinate data resulting 
# from the CCDC's data processing and validation procedures.
#
#######################################################################

data_WOCXET01
_symmetry_cell_setting           tetragonal
_symmetry_space_group_name_H-M   'P 41'
_symmetry_Int_Tables_number      76
_space_group_name_Hall           'P 4w'
loop_
_symmetry_equiv_pos_site_id
_symmetry_equiv_pos_as_xyz
1 x,y,z
2 -x,-y,1/2+z
3 -y,x,1/4+z
4 y,-x,3/4+z
_cell_length_a                   8.3845(2)
_cell_length_b                   8.3845(2)
_cell_length_c                   19.2943(11)
_cell_angle_alpha                90
_cell_angle_beta                 90
_cell_angle_gamma                90
_cell_volume                     1356.39
loop_
_atom_site_label
_atom_site_type_symbol
_atom_site_fract_x
_atom_site_fract_y
_atom_site_fract_z
Cu1 Cu 1.05700(7) 0.02292(7) 0.08701(3)
C1 C 0.8535(8) 0.4139(8) -0.0147(4)
H1 H 0.8267 0.4298 -0.0610
N1 N 0.8251(9) 0.5291(7) 0.0305(4)
C2 C 0.9187(8) 0.3551(8) 0.1181(4)
H2 H 0.9371 0.3374 0.1650
N2 N 0.9578(5) 0.2409(5) 0.0713(3)
C3 C 0.9602(7) 0.1414(8) -0.0449(3)
C4 C 1.1439(7) -0.2270(8) -0.0388(4)
H3 H 1.1710 -0.2982 -0.0738
C5 C 1.1894(7) -0.2797(7) 0.0313(3)
C6 C 1.2692(9) -0.4218(7) 0.0347(4)
H4 H 1.2913 -0.4771 -0.0060
C7 C 1.3174(10) -0.4844(8) 0.0973(4)
H5 H 1.3711 -0.5812 0.0997
C8 C 1.2834(10) -0.3993(9) 0.1554(4)
H6 H 1.3139 -0.4373 0.1987
C9 C 1.2052(9) -0.2595(8) 0.1496(3)
H7 H 1.1816 -0.2042 0.1901
O1 O 0.9272(6) 0.1522(6) -0.1060(2)
C10 C 0.8517(9) 0.4975(8) 0.0967(5)
H8 H 0.8245 0.5733 0.1298
C11 C 0.9233(7) 0.2681(7) 0.0051(3)
N3 N 1.0331(5) 0.0091(5) -0.0127(3)
N4 N 1.0756(6) -0.1044(6) -0.0595(3)
N5 N 1.1597(5) -0.1958(5) 0.0900(3)
Cl1 Cl 1.51107(19) 0.0899(3) 0.05520(11)
O2 O 1.5641(6) 0.1660(8) 0.1160(3)
O3 O 1.5031(10) -0.0864(9) 0.0680(7)
O4 O 1.3476(7) 0.1309(10) 0.0428(4)
O5 O 1.6142(9) 0.1066(14) 0.0014(5)
Cu1C Cu 1.02292(7) -0.05700(7) -0.16299(3)
O1B O 0.8478(6) -0.0728(6) 0.1440(2)
N4B N 1.1044(6) 0.0756(6) 0.1905(3)
loop_
_geom_bond_atom_site_label_1
_geom_bond_atom_site_label_2
_geom_bond_site_symmetry_1
_geom_bond_site_symmetry_2
Cu1 N2 1_555 1_555
C1 H1 1_555 1_555
N1 C1 1_555 1_555
C2 H2 1_555 1_555
N2 C2 1_555 1_555
C3 O1 1_555 1_555
C4 H3 1_555 1_555
C5 C4 1_555 1_555
C6 C5 1_555 1_555
H4 C6 1_555 1_555
C7 C6 1_555 1_555
H5 C7 1_555 1_555
C8 C7 1_555 1_555
H6 C8 1_555 1_555
C9 C8 1_555 1_555
H7 C9 1_555 1_555
O1 Cu1C 1_555 1_555
C10 N1 1_555 1_555
H8 C10 1_555 1_555
C11 C1 1_555 1_555
N3 Cu1 1_555 1_555
N4 C4 1_555 1_555
N5 Cu1 1_555 1_555
Cl1 O2 1_555 1_555
O3 Cl1 1_555 1_555
O4 Cu1 1_555 1_555
O5 Cl1 1_555 1_555
Cu1C N4 1_555 1_555
O1B Cu1 1_555 1_555
N4B Cu1 1_555 1_555
C2 C10 1_555 1_555
N2 C11 1_555 1_555
C3 C11 1_555 1_555
C3 N3 1_555 1_555
C5 N5 1_555 1_555
C9 N5 1_555 1_555
N3 N4 1_555 1_555
Cl1 O4 1_555 1_555

#END
