
#######################################################################
#
#                 Cambridge Crystallographic Data Centre
#                                CCDC 
#
#######################################################################
#
# If this CIF has been generated from an entry in the Cambridge 
# Structural Database, then it will include bibliographic, chemical, 
# crystal, experimental, refinement or atomic coordinate data resulting 
# from the CCDC's data processing and validation procedures.
#
#######################################################################

data_WOCZOD
_symmetry_cell_setting           orthorhombic
_symmetry_space_group_name_H-M   'P b a m'
_symmetry_Int_Tables_number      55
_space_group_name_Hall           '-P 2 2ab'
loop_
_symmetry_equiv_pos_site_id
_symmetry_equiv_pos_as_xyz
1 x,y,z
2 1/2-x,1/2+y,z
3 1/2+x,1/2-y,z
4 x,y,-z
5 -x,-y,-z
6 1/2+x,1/2-y,-z
7 1/2-x,1/2+y,-z
8 -x,-y,z
_cell_length_a                   13.78881(34)
_cell_length_b                   22.5244(5)
_cell_length_c                   8.49631(18)
_cell_angle_alpha                90
_cell_angle_beta                 90
_cell_angle_gamma                90
_cell_volume                     2638.82
loop_
_atom_site_label
_atom_site_type_symbol
_atom_site_fract_x
_atom_site_fract_y
_atom_site_fract_z
Cu1 Cu 0.2910(6) 0.2138(4) 0.0000
Cl1 Cl 0.1306(11) 0.2202(6) 0.0000
H1 H 0.2778(15) 0.2280(14) 0.3197(6)
H2 H 0.2685(15) 0.1592(14) 0.2859(19)
N1 N 0.4180(9) 0.1742(11) 0.0000
N2 N 0.3063(7) 0.1966(8) 0.2365(4)
Cu3 Cu 0.7225(5) 0.09329(33) 0.0000
H3 H 0.6944(27) 0.0536(10) 0.3014(17)
Cl4 Cl 0.3391(11) 0.3312(5) 0.0000
N5 N 0.5904(7) 0.1233(4) 0.0000
H4 H 0.7558(9) 0.1126(18) 0.3137(11)
Cl5 Cl 0.7830(10) -0.0086(6) 0.0000
N6 N 0.6996(9) 0.0952(8) 0.2376(4)
C1 C 0.4666(9) 0.1730(10) 0.1368(4)
C2 C 0.5618(9) 0.1527(9) 0.1378(4)
C5 C 0.6130(10) 0.1277(9) 0.2805(5)
C6 C 0.4070(8) 0.1885(9) 0.2793(5)
H7 H 0.4366(11) 0.2258(16) 0.3435(34)
H8 H 0.4174(15) 0.1576(18) 0.3747(20)
H9 H 0.5644(16) 0.1026(19) 0.355(4)
H10 H 0.6261(26) 0.1614(16) 0.3685(27)
N2C N 0.3063(7) 0.1966(8) -0.2365(4)
C1C C 0.4666(9) 0.1730(10) -0.1368(4)
H1C H 0.2778(15) 0.2280(14) -0.3197(6)
H2C H 0.2685(15) 0.1592(14) -0.2859(19)
C6C C 0.4070(8) 0.1885(9) -0.2793(5)
C2C C 0.5618(9) 0.1527(9) -0.1378(4)
H7C H 0.4366(11) 0.2258(16) -0.3435(34)
H8C H 0.4174(15) 0.1576(18) -0.3747(20)
C5C C 0.6130(10) 0.1277(9) -0.2805(5)
Cu3B Cu 0.2225(5) 0.40671(33) 0.0000
N6C N 0.6996(9) 0.0952(8) -0.2376(4)
H9C H 0.5644(16) 0.1026(19) -0.355(4)
H10C H 0.6261(26) 0.1614(16) -0.3685(27)
Cl4B Cl 0.8391(11) 0.1688(5) 0.0000
H3C H 0.6944(27) 0.0536(10) -0.3014(17)
H4C H 0.7558(9) 0.1126(18) -0.3137(11)
Cu2 Cu 0.5208(8) 0.35489(14) -0.5000
N3 N 0.5172(23) 0.44197(25) -0.5000
Cl2 Cl 0.3362(11) 0.3274(6) -0.5000
Cl3 Cl 0.6072(10) 0.2710(7) -0.5000
N4 N 0.5395(17) 0.36980(33) -0.7351(6)
C3 C 0.4983(16) 0.46890(15) -0.6373(4)
C4 C 0.5196(20) 0.43089(26) -0.7798(5)
H5 H 0.6089(26) 0.3599(15) -0.7886(24)
H6 H 0.499(4) 0.3434(6) -0.8190(7)
H11 H 0.576(4) 0.4498(6) -0.853(4)
H12 H 0.464(4) 0.4348(12) -0.8683(28)
N4C N 0.5395(17) 0.36980(33) -0.2649(6)
C3C C 0.4983(16) 0.46890(15) -0.3627(4)
C3G C 0.5017(16) 0.53110(15) -0.6373(4)
C4C C 0.5196(20) 0.43089(26) -0.2202(5)
H5C H 0.6089(26) 0.3599(15) -0.2114(24)
H6C H 0.499(4) 0.3434(6) -0.1810(7)
C3D C 0.5017(16) 0.53110(15) -0.3627(4)
N3D N 0.4828(23) 0.55803(25) -0.5000
C4G C 0.4804(20) 0.56911(26) -0.7798(5)
H11C H 0.576(4) 0.4498(6) -0.147(4)
H12C H 0.464(4) 0.4348(12) -0.1317(28)
C4D C 0.4804(20) 0.56911(26) -0.2202(5)
Cu2D Cu 0.4792(8) 0.64511(14) -0.5000
N4G N 0.4605(17) 0.63020(33) -0.7351(6)
H11G H 0.424(4) 0.5502(6) -0.853(4)
H12G H 0.536(4) 0.5652(12) -0.8683(28)
N4D N 0.4605(17) 0.63020(33) -0.2649(6)
H11D H 0.424(4) 0.5502(6) -0.147(4)
H12D H 0.536(4) 0.5652(12) -0.1317(28)
Cl2D Cl 0.6638(11) 0.6726(6) -0.5000
Cl3D Cl 0.3928(10) 0.7290(7) -0.5000
H5G H 0.3911(26) 0.6401(15) -0.7886(24)
H6G H 0.501(4) 0.6566(6) -0.8190(7)
H5D H 0.3911(26) 0.6401(15) -0.2114(24)
H6D H 0.501(4) 0.6566(6) -0.1810(7)
Cl6 Cl 0.2157(7) 0.5497(5) -0.5000
O1 O 0.1138(7) 0.5578(12) -0.5000
O2 O 0.2422(11) 0.5164(6) -0.6351(5)
O3 O 0.2637(18) 0.6039(7) -0.5000
O2C O 0.2422(11) 0.5164(6) -0.3649(5)
O4 O 0.0000 0.50000 -0.858(4)
loop_
_geom_bond_atom_site_label_1
_geom_bond_atom_site_label_2
_geom_bond_site_symmetry_1
_geom_bond_site_symmetry_2
Cu1 Cl1 1_555 1_555
Cu2 N3 1_555 1_555
H1 N2 1_555 1_555
H2 N2 1_555 1_555
N1 Cu1 1_555 1_555
N2 Cu1 1_555 1_555
Cu3 N5 1_555 1_555
N3 C3 1_555 1_555
Cl2 Cu2 1_555 1_555
H3 N6 1_555 1_555
Cl3 Cu2 1_555 1_555
N4 Cu2 1_555 1_555
Cl4 Cu1 1_555 1_555
N5 C2 1_555 1_555
H4 N6 1_555 1_555
Cl5 Cu3 1_555 1_555
N6 Cu3 1_555 1_555
Cl6 O1 1_555 1_555
O2 Cl6 1_555 1_555
C1 N1 1_555 1_555
C2 C1 1_555 1_555
C3 C4 1_555 1_555
C4 N4 1_555 1_555
C5 N6 1_555 1_555
C6 N2 1_555 1_555
O3 Cl6 1_555 1_555
H5 N4 1_555 1_555
H6 N4 1_555 1_555
H7 C6 1_555 1_555
H8 C6 1_555 1_555
H9 C5 1_555 1_555
H10 C5 1_555 1_555
H11 C4 1_555 1_555
H12 C4 1_555 1_555
N2C Cu1 1_555 1_555
N4C Cu2 1_555 1_555
C1C N1 1_555 1_555
C3C N3 1_555 1_555
O2C Cl6 1_555 1_555
C3G C3 1_555 1_555
H1C N2C 1_555 1_555
H2C N2C 1_555 1_555
C6C N2C 1_555 1_555
C4C N4C 1_555 1_555
H5C N4C 1_555 1_555
H6C N4C 1_555 1_555
C2C N5 1_555 1_555
C3D C3C 1_555 1_555
N3D C3G 1_555 1_555
C4G C3G 1_555 1_555
H7C C6C 1_555 1_555
H8C C6C 1_555 1_555
H11C C4C 1_555 1_555
H12C C4C 1_555 1_555
C5C C2C 1_555 1_555
C4D C3D 1_555 1_555
Cu3B Cl4 1_555 1_555
Cu2D N3D 1_555 1_555
N4G C4G 1_555 1_555
H11G C4G 1_555 1_555
H12G C4G 1_555 1_555
N6C Cu3 1_555 1_555
H9C C5C 1_555 1_555
H10C C5C 1_555 1_555
N4D C4D 1_555 1_555
H11D C4D 1_555 1_555
H12D C4D 1_555 1_555
Cl4B Cu3 1_555 1_555
Cl2D Cu2D 1_555 1_555
Cl3D Cu2D 1_555 1_555
H5G N4G 1_555 1_555
H6G N4G 1_555 1_555
H3C N6C 1_555 1_555
H4C N6C 1_555 1_555
H5D N4D 1_555 1_555
H6D N4D 1_555 1_555
C1 C6 1_555 1_555
C2 C5 1_555 1_555
C1C C2C 1_555 1_555
C1C C6C 1_555 1_555
C3C C4C 1_555 1_555
C3D N3D 1_555 1_555
C5C N6C 1_555 1_555
Cu2D N4D 1_555 1_555
Cu2D N4G 1_555 1_555

#END
