
#######################################################################
#
#                 Cambridge Crystallographic Data Centre
#                                CCDC 
#
#######################################################################
#
# If this CIF has been generated from an entry in the Cambridge 
# Structural Database, then it will include bibliographic, chemical, 
# crystal, experimental, refinement or atomic coordinate data resulting 
# from the CCDC's data processing and validation procedures.
#
#######################################################################

data_WODGUS
_symmetry_cell_setting           triclinic
_symmetry_space_group_name_H-M   'P -1'
_symmetry_Int_Tables_number      2
_space_group_name_Hall           '-P 1'
loop_
_symmetry_equiv_pos_site_id
_symmetry_equiv_pos_as_xyz
1 x,y,z
2 -x,-y,-z
_cell_length_a                   9.427(3)
_cell_length_b                   11.482(4)
_cell_length_c                   12.836(4)
_cell_angle_alpha                68.977(7)
_cell_angle_beta                 81.168(5)
_cell_angle_gamma                65.834(4)
_cell_volume                     1183.2
loop_
_atom_site_label
_atom_site_type_symbol
_atom_site_fract_x
_atom_site_fract_y
_atom_site_fract_z
C1 C -0.7653(5) 1.9395(4) -0.1546(4)
C2 C -0.6329(5) 1.8990(4) -0.2335(3)
C3 C -0.5236(5) 1.9550(4) -0.2539(4)
H1 H -0.5290 2.0103 -0.2141
C4 C -0.4038(5) 1.9314(4) -0.3328(4)
C5 C -0.2977(5) 1.9969(5) -0.3575(4)
H2 H -0.3043 2.0529 -0.3181
C6 C -0.1865(6) 1.9792(5) -0.4380(5)
H3 H -0.1173 2.0223 -0.4530
C7 C -0.1769(6) 1.8952(5) -0.4984(4)
H4 H -0.1034 1.8859 -0.5554
C8 C -0.2735(5) 1.8272(5) -0.4748(4)
H5 H -0.2613 1.7692 -0.5138
C9 C -0.3933(5) 1.8426(4) -0.3915(3)
C10 C -0.5001(5) 1.7770(4) -0.3655(3)
C11 C -0.6210(5) 1.8099(4) -0.2913(4)
C12 C -0.4933(6) 1.6815(5) -0.4257(4)
C13 C -0.4940(5) 1.5431(4) -0.3542(3)
C14 C -0.3650(5) 1.4486(4) -0.2900(4)
C15 C -0.3531(5) 1.3148(4) -0.2279(3)
C16 C -0.2119(5) 1.2113(5) -0.1575(4)
C17 C -0.4732(5) 1.2778(4) -0.2315(4)
H6 H -0.4657 1.1901 -0.1912
C18 C -0.6072(5) 1.3695(4) -0.2946(3)
C19 C -0.6183(5) 1.5034(4) -0.3573(4)
C20 C -0.7571(6) 1.5919(5) -0.4190(4)
H7 H -0.7693 1.6804 -0.4607
C21 C -0.8735(6) 1.5484(6) -0.4180(5)
H8 H -0.9628 1.6084 -0.4593
C22 C -0.8614(6) 1.4178(6) -0.3570(4)
H9 H -0.9420 1.3909 -0.3573
C23 C -0.7311(5) 1.3293(5) -0.2970(4)
H10 H -0.7223 1.2413 -0.2568
C24 C 0.1036(6) 1.2796(5) 0.1413(4)
H11 H 0.0562 1.2386 0.2044
C25 C 0.1655(6) 1.3695(5) 0.1349(4)
H12 H 0.1687 1.4010 0.1915
C26 C 0.1939(6) 1.3362(5) -0.0252(4)
H13 H 0.2210 1.3421 -0.0992
C27 C 0.2999(5) 1.5013(5) -0.0194(4)
H14 H 0.2367 1.5846 -0.0041
H15 H 0.3066 1.5222 -0.0998
C28 C 0.4621(6) 1.4485(5) 0.0261(4)
Cd1 Cd 0.05555(4) 1.11400(3) 0.00318(3)
H16 H -0.185(6) 1.422(6) -0.246(5)
H17 H -0.399(6) 1.664(5) -0.472(4)
H18 H -0.576(6) 1.730(5) -0.483(4)
H19 H -0.796(8) 1.799(7) -0.224(6)
H20 H 0.456(6) 1.426(5) 0.104(5)
H21 H 0.518(6) 1.369(5) 0.011(4)
N1 N 0.1209(4) 1.2583(4) 0.0418(3)
N2 N 0.2226(4) 1.4049(4) 0.0286(3)
O1 O -0.1189(4) 1.2549(4) -0.1361(3)
O2 O -0.1967(4) 1.0903(3) -0.1234(3)
O3 O -0.2461(4) 1.4881(4) -0.2907(3)
O4 O -0.7297(4) 1.7548(3) -0.2745(3)
O5 O -0.7779(4) 2.0318(3) -0.1197(3)
O6 O -0.8554(4) 1.8748(3) -0.1267(3)
C1A C 0.7653(5) 0.0605(4) 0.1546(4)
C2A C 0.6329(5) 0.1010(4) 0.2335(3)
C3A C 0.5236(5) 0.0450(4) 0.2539(4)
H1A H 0.5290 -0.0103 0.2141
C4A C 0.4038(5) 0.0686(4) 0.3328(4)
C5A C 0.2977(5) 0.0031(5) 0.3575(4)
H2A H 0.3043 -0.0529 0.3181
C6A C 0.1865(6) 0.0208(5) 0.4380(5)
H3A H 0.1173 -0.0223 0.4530
C7A C 0.1769(6) 0.1048(5) 0.4984(4)
H4A H 0.1034 0.1141 0.5554
C8A C 0.2735(5) 0.1728(5) 0.4748(4)
H5A H 0.2613 0.2308 0.5138
C9A C 0.3933(5) 0.1574(4) 0.3915(3)
C10A C 0.5001(5) 0.2230(4) 0.3655(3)
C11A C 0.6210(5) 0.1901(4) 0.2913(4)
C12A C 0.4933(6) 0.3185(5) 0.4257(4)
C13A C 0.4940(5) 0.4569(4) 0.3542(3)
C14A C 0.3650(5) 0.5514(4) 0.2900(4)
C15A C 0.3531(5) 0.6852(4) 0.2279(3)
C16A C 0.2119(5) 0.7887(5) 0.1575(4)
C17A C 0.4732(5) 0.7222(4) 0.2315(4)
H6A H 0.4657 0.8099 0.1912
C18A C 0.6072(5) 0.6305(4) 0.2946(3)
C19A C 0.6183(5) 0.4966(4) 0.3573(4)
C20A C 0.7571(6) 0.4081(5) 0.4190(4)
H7A H 0.7693 0.3196 0.4607
C21A C 0.8735(6) 0.4516(6) 0.4180(5)
H8A H 0.9628 0.3916 0.4593
C22A C 0.8614(6) 0.5822(6) 0.3570(4)
H9A H 0.9420 0.6091 0.3573
C23A C 0.7311(5) 0.6707(5) 0.2970(4)
H10A H 0.7223 0.7587 0.2568
C24A C 0.8964(6) 1.7204(5) -0.1413(4)
H11A H 0.9438 1.7614 -0.2044
C25A C 0.8345(6) 1.6305(5) -0.1349(4)
H12A H 0.8313 1.5990 -0.1915
C26A C 0.8061(6) 1.6638(5) 0.0252(4)
H13A H 0.7790 1.6579 0.0992
C27A C 0.7001(5) 1.4987(5) 0.0194(4)
H14A H 0.7633 1.4154 0.0041
H15A H 0.6934 1.4778 0.0998
C28A C 0.5379(6) 1.5515(5) -0.0261(4)
Cd1A Cd 0.94445(4) 1.88600(3) -0.00318(3)
Cd1A_2 Cd -0.05555(4) 0.88600(3) -0.00318(3)
Cd1_2 Cd -0.94445(4) 2.11400(3) 0.00318(3)
Cd1A_3 Cd -1.05555(4) 1.88600(3) -0.00318(3)
Cd1A_4 Cd 0.94445(4) -0.11400(3) -0.00318(3)
Cd1_3 Cd 1.05555(4) 0.11400(3) 0.00318(3)
H16A H 0.185(6) 0.578(6) 0.246(5)
H17A H 0.399(6) 0.336(5) 0.472(4)
H18A H 0.576(6) 0.270(5) 0.483(4)
H19A H 0.796(8) 0.201(7) 0.224(6)
H20A H 0.544(6) 1.574(5) -0.104(5)
H21A H 0.482(6) 1.631(5) -0.011(4)
N1A N 0.8791(4) 1.7417(4) -0.0418(3)
N2A N 0.7774(4) 1.5951(4) -0.0286(3)
O1A O 0.1189(4) 0.7451(4) 0.1361(3)
O1A_2 O 1.1189(4) 1.7451(4) 0.1361(3)
O2A O 0.1967(4) 0.9097(3) 0.1234(3)
O2_2 O 0.8033(4) 2.0903(3) -0.1234(3)
O3A O 0.2461(4) 0.5119(4) 0.2907(3)
O4A O 0.7297(4) 0.2452(3) 0.2745(3)
O5A O 0.7779(4) -0.0318(3) 0.1197(3)
O5_2 O 0.2221(4) 1.0318(3) -0.1197(3)
O5A_2 O 0.7779(4) 1.9682(3) 0.1197(3)
O6A O 0.8554(4) 0.1252(3) 0.1267(3)
O6A_2 O -0.1446(4) 1.1252(3) 0.1267(3)
O6_2 O 1.1446(4) 1.8748(3) -0.1267(3)
loop_
_geom_bond_atom_site_label_1
_geom_bond_atom_site_label_2
_geom_bond_site_symmetry_1
_geom_bond_site_symmetry_2
C1 C2 1_555 1_555
C2 C3 1_555 1_555
C3 H1 1_555 1_555
C4 C3 1_555 1_555
C5 C4 1_555 1_555
H2 C5 1_555 1_555
C6 C5 1_555 1_555
H3 C6 1_555 1_555
C7 C6 1_555 1_555
H4 C7 1_555 1_555
C8 C7 1_555 1_555
H5 C8 1_555 1_555
C9 C4 1_555 1_555
C10 C9 1_555 1_555
C11 C2 1_555 1_555
C12 C10 1_555 1_555
C13 C12 1_555 1_555
C14 C13 1_555 1_555
C15 C14 1_555 1_555
C16 C15 1_555 1_555
C17 C15 1_555 1_555
H6 C17 1_555 1_555
C18 C17 1_555 1_555
C19 C13 1_555 1_555
C20 C19 1_555 1_555
H7 C20 1_555 1_555
C21 C20 1_555 1_555
H8 C21 1_555 1_555
C22 C21 1_555 1_555
H9 C22 1_555 1_555
C23 C18 1_555 1_555
H10 C23 1_555 1_555
C24 H11 1_555 1_555
C25 C24 1_555 1_555
H12 C25 1_555 1_555
C26 H13 1_555 1_555
C27 H14 1_555 1_555
H15 C27 1_555 1_555
C28 C27 1_555 1_555
Cd1 N1 1_555 1_555
H16 O3 1_555 1_555
H17 C12 1_555 1_555
H18 C12 1_555 1_555
H19 O4 1_555 1_555
H20 C28 1_555 1_555
H21 C28 1_555 1_555
N1 C24 1_555 1_555
N2 C25 1_555 1_555
O1 C16 1_555 1_555
O2 C16 1_555 1_555
O3 C14 1_555 1_555
O4 C11 1_555 1_555
O5 C1 1_555 1_555
O6 C1 1_555 1_555
C1A C2A 1_555 1_555
C2A C3A 1_555 1_555
C3A H1A 1_555 1_555
C4A C3A 1_555 1_555
C5A C4A 1_555 1_555
H2A C5A 1_555 1_555
C6A C5A 1_555 1_555
H3A C6A 1_555 1_555
C7A C6A 1_555 1_555
H4A C7A 1_555 1_555
C8A C7A 1_555 1_555
H5A C8A 1_555 1_555
C9A C4A 1_555 1_555
C10A C9A 1_555 1_555
C11A C2A 1_555 1_555
C12A C10A 1_555 1_555
C13A C12A 1_555 1_555
C14A C13A 1_555 1_555
C15A C14A 1_555 1_555
C16A C15A 1_555 1_555
C17A C15A 1_555 1_555
H6A C17A 1_555 1_555
C18A C17A 1_555 1_555
C19A C13A 1_555 1_555
C20A C19A 1_555 1_555
H7A C20A 1_555 1_555
C21A C20A 1_555 1_555
H8A C21A 1_555 1_555
C22A C21A 1_555 1_555
H9A C22A 1_555 1_555
C23A C18A 1_555 1_555
H10A C23A 1_555 1_555
C24A H11A 1_555 1_555
C25A C24A 1_555 1_555
H12A C25A 1_555 1_555
C26A H13A 1_555 1_555
C27A H14A 1_555 1_555
H15A C27A 1_555 1_555
C28A C28 1_555 1_555
Cd1A N1A 1_555 1_555
Cd1A_2 O2 1_555 1_555
Cd1_2 O5 1_555 1_555
Cd1A_3 O6 1_555 1_555
Cd1A_4 O5A 1_555 1_555
Cd1_3 O6A 1_555 1_555
H16A O3A 1_555 1_555
H17A C12A 1_555 1_555
H18A C12A 1_555 1_555
H19A O4A 1_555 1_555
H20A C28A 1_555 1_555
H21A C28A 1_555 1_555
N1A C24A 1_555 1_555
N2A C25A 1_555 1_555
O1A C16A 1_555 1_555
O1A_2 Cd1A 1_555 1_555
O2A Cd1 1_555 1_555
O2_2 Cd1A 1_555 1_555
O3A C14A 1_555 1_555
O4A C11A 1_555 1_555
O5A C1A 1_555 1_555
O5_2 Cd1 1_555 1_555
O5A_2 Cd1A 1_555 1_555
O6A C1A 1_555 1_555
O6A_2 Cd1 1_555 1_555
O6_2 Cd1A 1_555 1_555
C8 C9 1_555 1_555
C10 C11 1_555 1_555
C18 C19 1_555 1_555
C22 C23 1_555 1_555
C26 N1 1_555 1_555
C26 N2 1_555 1_555
C27 N2 1_555 1_555
Cd1 O1 1_555 1_555
C8A C9A 1_555 1_555
C10A C11A 1_555 1_555
C16A O2A 1_555 1_555
C18A C19A 1_555 1_555
C22A C23A 1_555 1_555
C26A N1A 1_555 1_555
C26A N2A 1_555 1_555
C27A C28A 1_555 1_555
C27A N2A 1_555 1_555
Cd1A_2 O1A 1_555 1_555

#END
