
#######################################################################
#
#                 Cambridge Crystallographic Data Centre
#                                CCDC 
#
#######################################################################
#
# If this CIF has been generated from an entry in the Cambridge 
# Structural Database, then it will include bibliographic, chemical, 
# crystal, experimental, refinement or atomic coordinate data resulting 
# from the CCDC's data processing and validation procedures.
#
#######################################################################

data_WODGAX
_symmetry_cell_setting           monoclinic
_symmetry_space_group_name_H-M   'P 21/n'
_symmetry_Int_Tables_number      14
_space_group_name_Hall           '-P 2yn'
loop_
_symmetry_equiv_pos_site_id
_symmetry_equiv_pos_as_xyz
1 x,y,z
2 1/2+x,1/2-y,1/2+z
3 -x,-y,-z
4 1/2-x,1/2+y,1/2-z
_cell_length_a                   10.5634(7)
_cell_length_b                   17.186(2)
_cell_length_c                   11.4697(7)
_cell_angle_alpha                90.00
_cell_angle_beta                 90.142(5)
_cell_angle_gamma                90.00
_cell_volume                     2082.23
loop_
_atom_site_label
_atom_site_type_symbol
_atom_site_fract_x
_atom_site_fract_y
_atom_site_fract_z
Ag1 Ag -0.26465(3) 0.204000(18) -0.29974(3)
N1 N 0.1555(6) 0.1319(4) -0.5243(6)
N2 N -0.2061(3) 0.0656(2) -0.2986(3)
N3 N -0.0987(6) -0.0898(3) 0.0383(5)
N4 N -0.4659(3) 0.1439(2) -0.2977(3)
N5 N -0.6561(4) 0.2593(3) -0.6406(4)
N6 N -0.6787(5) 0.2291(3) 0.0513(4)
C1 C 0.0947(5) 0.1197(3) -0.4393(6)
C2 C 0.0131(4) 0.1075(3) -0.3446(5)
H1 H -0.0152 0.1574 -0.3146
H2 H 0.0585 0.0809 -0.2827
C3 C -0.1020(4) 0.0589(3) -0.3807(4)
H3 H -0.1306 0.0758 -0.4571
H4 H -0.0771 0.0048 -0.3867
C4 C -0.1753(5) 0.0377(3) -0.1802(4)
H5 H -0.2473 0.0468 -0.1297
H6 H -0.1045 0.0675 -0.1500
C5 C -0.1417(8) -0.0486(4) -0.1770(5)
H7 H -0.2109 -0.0791 -0.2089
H8 H -0.0670 -0.0582 -0.2239
C6 C -0.1168(6) -0.0726(3) -0.0518(5)
C7 C -0.3239(4) 0.0308(2) -0.3455(4)
H9 H -0.3192 -0.0253 -0.3380
H10 H -0.3308 0.0431 -0.4278
C8 C -0.4419(4) 0.0598(3) -0.2832(4)
H11 H -0.5145 0.0312 -0.3123
H12 H -0.4336 0.0485 -0.2007
C9 C -0.5345(4) 0.1530(3) -0.4109(4)
H13 H -0.6224 0.1380 -0.4014
H14 H -0.4969 0.1193 -0.4691
C10 C -0.5271(5) 0.2378(3) -0.4514(4)
H15 H -0.5610 0.2715 -0.3913
H16 H -0.4392 0.2520 -0.4639
C11 C -0.5979(4) 0.2490(3) -0.5587(4)
C12 C -0.5359(11) 0.1758(5) -0.2018(6)
H17 H -0.5606 0.2276 -0.2270
H18 H -0.6135 0.1457 -0.1986
C13 C -0.5030(9) 0.1834(7) -0.1011(10)
H19 H -0.4393 0.2238 -0.0949
H20 H -0.4669 0.1351 -0.0724
C14 C -0.6264(15) 0.2065(5) -0.0253(8)
N5A N -0.1561(4) 0.2407(3) -0.1406(4)
N6A N -0.1787(5) 0.2709(3) -0.4487(4)
Ag1A Ag -0.76465(3) 0.296000(18) -0.79974(3)
Ag1A_2 Ag -0.76465(3) 0.296000(18) 0.20026(3)
S1 S -0.25142(18) 0.10239(14) -0.70775(17)
O1 O -0.3181(11) 0.1354(8) -0.6208(6)
O2 O -0.2557(6) 0.0231(4) -0.7100(10)
O3 O -0.1346(5) 0.1322(5) -0.7296(10)
C15 C -0.3524(9) 0.1323(7) -0.8163(16)
F1 F -0.3515(8) 0.2028(4) -0.8409(9)
F2 F -0.4656(7) 0.1063(5) -0.8208(10)
F3 F -0.2971(14) 0.0864(9) -0.9176(7)
loop_
_geom_bond_atom_site_label_1
_geom_bond_atom_site_label_2
_geom_bond_site_symmetry_1
_geom_bond_site_symmetry_2
Ag1 N2 1_555 1_555
N1 C1 1_555 1_555
N2 C3 1_555 1_555
N3 C6 1_555 1_555
N4 Ag1 1_555 1_555
N5 C11 1_555 1_555
N6 C14 1_555 1_555
C1 C2 1_555 1_555
C2 H1 1_555 1_555
H2 C2 1_555 1_555
C3 C2 1_555 1_555
H3 C3 1_555 1_555
H4 C3 1_555 1_555
C4 N2 1_555 1_555
H5 C4 1_555 1_555
H6 C4 1_555 1_555
C5 C4 1_555 1_555
H7 C5 1_555 1_555
H8 C5 1_555 1_555
C6 C5 1_555 1_555
C7 N2 1_555 1_555
H9 C7 1_555 1_555
H10 C7 1_555 1_555
C8 N4 1_555 1_555
H11 C8 1_555 1_555
H12 C8 1_555 1_555
C9 N4 1_555 1_555
H13 C9 1_555 1_555
H14 C9 1_555 1_555
C10 C9 1_555 1_555
H15 C10 1_555 1_555
H16 C10 1_555 1_555
C11 C10 1_555 1_555
C12 N4 1_555 1_555
H17 C12 1_555 1_555
H18 C12 1_555 1_555
C13 C12 1_555 1_555
H19 C13 1_555 1_555
H20 C13 1_555 1_555
C14 C13 1_555 1_555
S1 O1 1_555 1_555
O2 S1 1_555 1_555
O3 S1 1_555 1_555
C15 S1 1_555 1_555
F1 C15 1_555 1_555
F2 C15 1_555 1_555
F3 C15 1_555 1_555
N5A Ag1 1_555 1_555
N6A Ag1 1_555 1_555
Ag1A N5 1_555 1_555
Ag1A_2 N6 1_555 1_555
C7 C8 1_555 1_555

#END
