
#######################################################################
#
#                 Cambridge Crystallographic Data Centre
#                                CCDC 
#
#######################################################################
#
# If this CIF has been generated from an entry in the Cambridge 
# Structural Database, then it will include bibliographic, chemical, 
# crystal, experimental, refinement or atomic coordinate data resulting 
# from the CCDC's data processing and validation procedures.
#
#######################################################################

data_WODGEB
_symmetry_cell_setting           orthorhombic
_symmetry_space_group_name_H-M   'P c c n'
_symmetry_Int_Tables_number      56
_space_group_name_Hall           '-P 2ab 2ac'
loop_
_symmetry_equiv_pos_site_id
_symmetry_equiv_pos_as_xyz
1 x,y,z
2 1/2+x,1/2+y,-z
3 x,1/2-y,1/2+z
4 1/2-x,y,1/2+z
5 -x,-y,-z
6 1/2-x,1/2-y,z
7 -x,1/2+y,1/2-z
8 1/2+x,-y,1/2-z
_cell_length_a                   11.050(3)
_cell_length_b                   11.414(3)
_cell_length_c                   14.790(4)
_cell_angle_alpha                90
_cell_angle_beta                 90
_cell_angle_gamma                90
_cell_volume                     1865.38
loop_
_atom_site_label
_atom_site_type_symbol
_atom_site_fract_x
_atom_site_fract_y
_atom_site_fract_z
Ag1 Ag 0.2500 0.2500 0.02658(3)
N1 N -0.0209(6) 0.6558(5) -0.0438(5)
N2 N 0.2051(3) 0.1216(3) -0.1084(2)
N3 N 0.6512(4) 0.6199(4) -0.1272(3)
C1 C 0.0717(5) 0.6130(5) -0.0450(4)
C2 C 0.1893(5) 0.5550(4) -0.0459(4)
H1 H 0.2022 0.5160 0.0115
H2 H 0.2525 0.6132 -0.0535
C3 C 0.3030(4) 0.0351(4) -0.1228(3)
H3 H 0.3797 0.0760 -0.1276
H4 H 0.2891 -0.0056 -0.1794
C4 C 0.0860(3) 0.0653(4) -0.0953(3)
H5 H 0.0278 0.1252 -0.0789
H6 H 0.0920 0.0113 -0.0449
C5 C 0.0371(4) -0.0018(5) -0.1776(3)
H7 H 0.0160 0.0530 -0.2252
H8 H 0.0988 -0.0544 -0.2006
C6 C 0.5686(4) 0.5681(4) -0.1515(3)
C7 C 0.1992(4) 0.2054(4) -0.1838(3)
H9 H 0.1224 0.2465 -0.1810
H10 H 0.2013 0.1623 -0.2403
Ag1A Ag -0.2500 0.7500 -0.02658(3)
N1D N 0.0209(6) 0.3442(5) 0.0438(5)
C3E C 0.1970(4) 0.4649(4) -0.1228(3)
N2E N 0.2949(3) 0.3784(3) -0.1084(2)
N1A N 0.4791(6) 0.1558(5) 0.0438(5)
Ag1D Ag -0.2500 -0.2500 -0.02658(3)
N3D N 0.3488(4) 0.3801(4) 0.1272(3)
C4E C 0.4140(3) 0.4347(4) -0.0953(3)
H5E H 0.4722 0.3748 -0.0789
H6E H 0.4080 0.4887 -0.0449
C5E C 0.4629(4) 0.5018(5) -0.1776(3)
H7E H 0.4840 0.4470 -0.2252
H8E H 0.4012 0.5544 -0.2006
N3A N 0.1512(4) 0.1199(4) 0.1272(3)
Ag1A_2 Ag 0.7500 0.7500 -0.02658(3)
C7E C 0.3008(4) 0.2946(4) -0.1838(3)
H3E H 0.1203 0.4240 -0.1276
H4E H 0.2109 0.5056 -0.1794
C2E C 0.3107(5) -0.0550(4) -0.0459(4)
C6E C -0.0686(4) -0.0681(4) -0.1515(3)
H9E H 0.3776 0.2535 -0.1810
H10E H 0.2987 0.3377 -0.2403
C1E C 0.4283(5) -0.1130(5) -0.0450(4)
H1E H 0.2978 -0.0160 0.0115
H2E H 0.2475 -0.1132 -0.0535
N3E N -0.1512(4) -0.1199(4) -0.1272(3)
N1E N 0.5209(6) -0.1558(5) -0.0438(5)
Ag1A_3 Ag 0.7500 -0.2500 -0.02658(3)
Cl1 Cl 0.2500 0.7500 0.18930(19)
O2 O 0.213(2) 0.845(2) 0.1382(19)
O3 O 0.292(3) 0.8604(13) 0.1664(11)
O2E O 0.287(2) 0.655(2) 0.1382(19)
O3E O 0.208(3) 0.6396(13) 0.1664(11)
O1? O 0.2500 0.7500 0.2822(5)
loop_
_geom_bond_atom_site_label_1
_geom_bond_atom_site_label_2
_geom_bond_site_symmetry_1
_geom_bond_site_symmetry_2
Ag1 N2 1_555 1_555
N1 C1 1_555 1_555
N2 C3 1_555 1_555
N3 C6 1_555 1_555
C1 C2 1_555 1_555
C2 H1 1_555 1_555
H2 C2 1_555 1_555
C3 H3 1_555 1_555
H4 C3 1_555 1_555
C4 N2 1_555 1_555
H5 C4 1_555 1_555
H6 C4 1_555 1_555
C5 C4 1_555 1_555
H7 C5 1_555 1_555
H8 C5 1_555 1_555
C6 C5E 1_555 1_555
C7 N2 1_555 1_555
H9 C7 1_555 1_555
H10 C7 1_555 1_555
Cl1 O2 1_555 1_555
O3 Cl1 1_555 1_555
Ag1A N1 1_555 1_555
N1D Ag1 1_555 1_555
C3E C2 1_555 1_555
N2E Ag1 1_555 1_555
N1A Ag1 1_555 1_555
Ag1D N3E 1_555 1_555
N3D Ag1 1_555 1_555
C4E N2E 1_555 1_555
H5E C4E 1_555 1_555
H6E C4E 1_555 1_555
C5E C4E 1_555 1_555
H7E C5E 1_555 1_555
H8E C5E 1_555 1_555
N3A Ag1 1_555 1_555
Ag1A_2 N3 1_555 1_555
C7E C7 1_555 1_555
H3E C3E 1_555 1_555
H4E C3E 1_555 1_555
C2E C3 1_555 1_555
C6E C5 1_555 1_555
O2E Cl1 1_555 1_555
O3E Cl1 1_555 1_555
H9E C7E 1_555 1_555
H10E C7E 1_555 1_555
C1E C2E 1_555 1_555
H1E C2E 1_555 1_555
H2E C2E 1_555 1_555
N3E C6E 1_555 1_555
N1E C1E 1_555 1_555
Ag1A_3 N1E 1_555 1_555
C3E N2E 1_555 1_555
N2E C7E 1_555 1_555

#END
