
#######################################################################
#
#                 Cambridge Crystallographic Data Centre
#                                CCDC 
#
#######################################################################
#
# If this CIF has been generated from an entry in the Cambridge 
# Structural Database, then it will include bibliographic, chemical, 
# crystal, experimental, refinement or atomic coordinate data resulting 
# from the CCDC's data processing and validation procedures.
#
#######################################################################

data_WODHIH
_symmetry_cell_setting           monoclinic
_symmetry_space_group_name_H-M   'C 2/c'
_symmetry_Int_Tables_number      15
_space_group_name_Hall           '-C 2yn'
loop_
_symmetry_equiv_pos_site_id
_symmetry_equiv_pos_as_xyz
1 x,y,z
2 1/2+x,1/2+y,z
3 -x,y,1/2-z
4 1/2-x,1/2+y,1/2-z
5 -x,-y,-z
6 1/2-x,1/2-y,-z
7 x,-y,1/2+z
8 1/2+x,1/2-y,1/2+z
_cell_length_a                   22.7592(18)
_cell_length_b                   11.3409(9)
_cell_length_c                   17.5006(13)
_cell_angle_alpha                90
_cell_angle_beta                 113.104(1)
_cell_angle_gamma                90
_cell_volume                     4154.78
loop_
_atom_site_label
_atom_site_type_symbol
_atom_site_fract_x
_atom_site_fract_y
_atom_site_fract_z
Co1 Co 0.101733(12) 0.25635(2) 0.019779(15)
Co2 Co 0.105256(12) 0.50429(2) 0.135442(14)
O1 O 0.06953(9) 0.15404(13) 0.15113(9)
O2 O 0.07018(6) 0.33408(12) 0.10038(8)
O3 O 0.12382(6) 0.61346(12) 0.45942(8)
O4 O 0.10913(7) 0.44899(12) 0.52198(8)
O5 O -0.02031(6) 0.39896(11) -0.09462(8)
O6 O 0.01550(6) 0.21264(12) -0.06729(8)
O7 O -0.30636(7) 0.23230(12) -0.37664(9)
O8 O -0.30101(6) 0.05431(12) -0.31735(8)
N1 N 0.09415(8) 0.43616(14) 0.24397(9)
N2 N -0.13743(7) 0.32645(14) -0.18531(9)
N3 N 0.14427(8) 0.10717(14) -0.00269(10)
C1 C 0.07259(10) 0.26122(17) 0.15871(12)
C2 C 0.08142(10) 0.31964(17) 0.23993(12)
C3 C 0.07700(11) 0.25731(18) 0.30529(13)
H1 H 0.0683 0.1751 0.3006
C4 C 0.08556(11) 0.31758(18) 0.37799(12)
H2 H 0.0818 0.2774 0.4235
C5 C 0.09970(9) 0.43696(18) 0.38348(11)
C6 C 0.10322(10) 0.49247(17) 0.31459(12)
H3 H 0.1125 0.5744 0.3180
C7 C 0.11126(9) 0.50533(16) 0.46172(12)
C8 C -0.02680(9) 0.28899(17) -0.10214(11)
C9 C -0.09164(9) 0.24331(16) -0.15934(11)
C10 C -0.10317(9) 0.12657(17) -0.18335(12)
H4 H -0.0699 0.0698 -0.1645
C11 C -0.16483(10) 0.09453(17) -0.23590(12)
H5 H -0.1746 0.0144 -0.2516
C12 C -0.21190(9) 0.18004(16) -0.26520(11)
C13 C -0.19575(9) 0.29562(17) -0.23839(11)
H6 H -0.2276 0.3550 -0.2587
C14 C -0.27908(9) 0.15330(17) -0.32495(11)
C15 C 0.13297(11) 0.00231(18) 0.02385(15)
H7 H 0.1002 -0.0030 0.0445
C16 C 0.16654(11) -0.09839(18) 0.02274(15)
H8 H 0.1577 -0.1703 0.0440
C17 C 0.21357(10) -0.09399(17) -0.00975(12)
C18 C 0.22387(10) 0.01400(18) -0.03926(14)
H9 H 0.2546 0.0209 -0.0633
C19 C 0.18948(10) 0.11182(18) -0.03372(13)
H10 H 0.1983 0.1855 -0.0528
C20 C 0.25132(10) -0.19640(18) -0.01463(13)
H11 H 0.2802 -0.1851 -0.0411
Co1F Co 0.101733(12) 0.74365(2) -0.480221(15)
Co1F_2 Co 0.101733(12) 0.74365(2) 0.519779(15)
Co1G Co -0.398267(12) 0.24365(2) -0.480221(15)
Co1E Co 0.398267(12) -0.75635(2) -0.019779(15)
Co1G_2 Co 0.601733(12) 0.24365(2) 0.519779(15)
Co2F Co 0.105256(12) 0.49571(2) -0.364558(14)
Co2F_2 Co 0.105256(12) 0.49571(2) 0.635442(14)
Co2D Co -0.105256(12) 0.49571(2) -0.135442(14)
Co2G Co -0.394744(12) -0.00429(2) -0.364558(14)
Co2C Co 0.394744(12) 0.00429(2) 0.364558(14)
O1F O 0.06953(9) 0.84596(13) -0.34887(9)
O2F O 0.07018(6) 0.66592(12) -0.39962(8)
O3F O 0.12382(6) 0.38654(12) -0.04058(8)
O3_2 O 0.12382(6) 0.61346(12) -0.54058(8)
O4F O 0.10913(7) 0.55101(12) 0.02198(8)
O4_2 O 0.10913(7) 0.44899(12) -0.47802(8)
O5G O 0.47969(6) 0.10104(11) 0.40538(8)
O5D O 0.02031(6) 0.60104(11) 0.09462(8)
O5B O 0.02031(6) 0.39896(11) -0.40538(8)
O6G O 0.51550(6) 0.28736(12) 0.43271(8)
O6F O 0.01550(6) 0.78736(12) -0.56729(8)
O7G O 0.19364(7) 0.26770(12) 0.12336(9)
O7A O 0.19364(7) 0.73230(12) -0.37664(9)
O8G O 0.19899(6) 0.44569(12) 0.18265(8)
O8A O 0.19899(6) 0.55431(12) -0.31735(8)
N1F N 0.09415(8) 0.56384(14) -0.25603(9)
N2G N 0.36257(7) 0.17355(14) 0.31469(9)
N2D N 0.13743(7) 0.67355(14) 0.18531(9)
N2B N 0.13743(7) 0.32645(14) -0.31469(9)
N3E N 0.35573(8) -0.60717(14) 0.00269(10)
N3F N 0.14427(8) 0.89283(14) -0.50269(10)
C1F C 0.07259(10) 0.73878(17) -0.34129(12)
C2F C 0.08142(10) 0.68036(17) -0.26007(12)
C3F C 0.07700(11) 0.74269(18) -0.19471(13)
H1F H 0.0683 0.8249 -0.1994
C4F C 0.08556(11) 0.68242(18) -0.12201(12)
H2F H 0.0818 0.7226 -0.0765
C5F C 0.09970(9) 0.56304(18) -0.11652(11)
C6F C 0.10322(10) 0.50753(17) -0.18541(12)
H3F H 0.1125 0.4256 -0.1820
C7F C 0.11126(9) 0.49467(16) -0.03828(12)
C8G C 0.47320(9) 0.21101(17) 0.39786(11)
C9G C 0.40836(9) 0.25669(16) 0.34066(11)
C10G C 0.39683(9) 0.37343(17) 0.31665(12)
H4G H 0.4301 0.4302 0.3355
C11G C 0.33517(10) 0.40547(17) 0.26410(12)
H5G H 0.3254 0.4856 0.2484
C12G C 0.28810(9) 0.31996(16) 0.23480(11)
C13G C 0.30425(9) 0.20438(17) 0.26161(11)
H6G H 0.2724 0.1450 0.2413
C14G C 0.22092(9) 0.34670(17) 0.17505(11)
C15E C 0.36703(11) -0.50231(18) -0.02385(15)
H7E H 0.3998 -0.4970 -0.0445
C16E C 0.33346(11) -0.40161(18) -0.02274(15)
H8E H 0.3423 -0.3297 -0.0440
C17E C 0.28643(10) -0.40601(17) 0.00975(12)
C18E C 0.27613(10) -0.51400(18) 0.03926(14)
H9E H 0.2454 -0.5209 0.0633
C19E C 0.31052(10) -0.61182(18) 0.03372(13)
H10E H 0.3017 -0.6855 0.0528
C20E C 0.24868(10) -0.30360(18) 0.01463(13)
H11E H 0.2198 -0.3149 0.0411
loop_
_geom_bond_atom_site_label_1
_geom_bond_atom_site_label_2
_geom_bond_site_symmetry_1
_geom_bond_site_symmetry_2
Co1 O2 1_555 1_555
Co2 O2 1_555 1_555
O1 C1 1_555 1_555
O2 C1 1_555 1_555
O3 C7 1_555 1_555
O4 C7 1_555 1_555
O5 C8 1_555 1_555
O6 Co1 1_555 1_555
O7 C14 1_555 1_555
O8 C14 1_555 1_555
N1 Co2 1_555 1_555
N2 C9 1_555 1_555
N3 Co1 1_555 1_555
C1 C2 1_555 1_555
C2 N1 1_555 1_555
C3 C2 1_555 1_555
H1 C3 1_555 1_555
C4 C3 1_555 1_555
H2 C4 1_555 1_555
C5 C4 1_555 1_555
C6 N1 1_555 1_555
H3 C6 1_555 1_555
C7 C5 1_555 1_555
C8 O6 1_555 1_555
C9 C8 1_555 1_555
C10 C9 1_555 1_555
H4 C10 1_555 1_555
C11 C10 1_555 1_555
H5 C11 1_555 1_555
C12 C11 1_555 1_555
C13 N2 1_555 1_555
H6 C13 1_555 1_555
C14 C12 1_555 1_555
C15 N3 1_555 1_555
H7 C15 1_555 1_555
C16 C15 1_555 1_555
H8 C16 1_555 1_555
C17 C16 1_555 1_555
C18 C17 1_555 1_555
H9 C18 1_555 1_555
C19 N3 1_555 1_555
H10 C19 1_555 1_555
C20 C17 1_555 1_555
H11 C20 1_555 1_555
Co1F O2F 1_555 1_555
Co1F_2 O3 1_555 1_555
Co1G O7 1_555 1_555
Co1E N3E 1_555 1_555
Co1G_2 O6G 1_555 1_555
Co2F O2F 1_555 1_555
Co2F_2 O4 1_555 1_555
Co2D O5 1_555 1_555
Co2G O8 1_555 1_555
Co2C O5G 1_555 1_555
O1F C1F 1_555 1_555
O2F C1F 1_555 1_555
O3F Co1 1_555 1_555
O3_2 Co1F 1_555 1_555
O4F Co2 1_555 1_555
O4_2 Co2F 1_555 1_555
O5G C8G 1_555 1_555
O5D Co2 1_555 1_555
O5B Co2F 1_555 1_555
O6G C8G 1_555 1_555
O6F Co1F 1_555 1_555
O7G Co1 1_555 1_555
O7A Co1F 1_555 1_555
O8G Co2 1_555 1_555
O8A Co2F 1_555 1_555
N1F Co2F 1_555 1_555
N2G Co2C 1_555 1_555
N2D Co2 1_555 1_555
N2B Co2F 1_555 1_555
N3E C15E 1_555 1_555
N3F Co1F 1_555 1_555
C1F C2F 1_555 1_555
C2F N1F 1_555 1_555
C3F C2F 1_555 1_555
H1F C3F 1_555 1_555
C4F C3F 1_555 1_555
H2F C4F 1_555 1_555
C5F C4F 1_555 1_555
C6F N1F 1_555 1_555
H3F C6F 1_555 1_555
C7F O3F 1_555 1_555
C8G C9G 1_555 1_555
C9G N2G 1_555 1_555
C10G C9G 1_555 1_555
H4G C10G 1_555 1_555
C11G C10G 1_555 1_555
H5G C11G 1_555 1_555
C12G C11G 1_555 1_555
C13G N2G 1_555 1_555
H6G C13G 1_555 1_555
C14G O7G 1_555 1_555
C15E H7E 1_555 1_555
C16E C15E 1_555 1_555
H8E C16E 1_555 1_555
C17E C16E 1_555 1_555
C18E C17E 1_555 1_555
H9E C18E 1_555 1_555
C19E N3E 1_555 1_555
H10E C19E 1_555 1_555
C20E C20 1_555 1_555
H11E C20E 1_555 1_555
N2 Co2D 1_555 1_555
C5 C6 1_555 1_555
C12 C13 1_555 1_555
C18 C19 1_555 1_555
O4F C7F 1_555 1_555
O8G C14G 1_555 1_555
C5F C6F 1_555 1_555
C5F C7F 1_555 1_555
C12G C13G 1_555 1_555
C12G C14G 1_555 1_555
C17E C20E 1_555 1_555
C18E C19E 1_555 1_555

#END
