
#######################################################################
#
#                 Cambridge Crystallographic Data Centre
#                                CCDC 
#
#######################################################################
#
# If this CIF has been generated from an entry in the Cambridge 
# Structural Database, then it will include bibliographic, chemical, 
# crystal, experimental, refinement or atomic coordinate data resulting 
# from the CCDC's data processing and validation procedures.
#
#######################################################################

data_WODHON
_symmetry_cell_setting           monoclinic
_symmetry_space_group_name_H-M   'C 2/c'
_symmetry_Int_Tables_number      15
_space_group_name_Hall           '-C 2yn'
loop_
_symmetry_equiv_pos_site_id
_symmetry_equiv_pos_as_xyz
1 x,y,z
2 1/2+x,1/2+y,z
3 -x,y,1/2-z
4 1/2-x,1/2+y,1/2-z
5 -x,-y,-z
6 1/2-x,1/2-y,-z
7 x,-y,1/2+z
8 1/2+x,1/2-y,1/2+z
_cell_length_a                   22.536(3)
_cell_length_b                   11.3199(13)
_cell_length_c                   17.570(2)
_cell_angle_alpha                90
_cell_angle_beta                 112.339(2)
_cell_angle_gamma                90
_cell_volume                     4145.82
loop_
_atom_site_label
_atom_site_type_symbol
_atom_site_fract_x
_atom_site_fract_y
_atom_site_fract_z
Zn1 Zn 0.103463(19) 0.25951(3) 0.01980(2)
Zn2 Zn 0.105301(18) 0.50410(3) 0.13275(2)
O1 O 0.07012(14) 0.1528(2) 0.15305(16)
O2 O 0.07077(11) 0.33207(19) 0.10033(14)
O3 O 0.12431(11) 0.61697(19) 0.45527(15)
O4 O 0.11015(11) 0.4533(2) 0.51960(14)
O5 O -0.01952(11) 0.39923(19) -0.09052(15)
O6 O 0.01613(11) 0.2125(2) -0.06523(15)
O7 O -0.30394(12) 0.2308(2) -0.37553(16)
O8 O -0.29840(11) 0.05137(19) -0.31905(15)
N1 N 0.09475(14) 0.4364(2) 0.24302(18)
N2 N -0.13696(13) 0.3261(2) -0.18419(17)
N3 N 0.14343(13) 0.1073(2) -0.00116(18)
C1 C 0.07327(17) 0.2604(3) 0.1591(2)
C2 C 0.08205(16) 0.3194(3) 0.2394(2)
C3 C 0.07763(18) 0.2582(3) 0.3051(2)
H1 H 0.0690 0.1758 0.3009
C4 C 0.08600(17) 0.3185(3) 0.3770(2)
H2 H 0.0822 0.2785 0.4224
C5 C 0.10012(16) 0.4388(3) 0.3817(2)
C6 C 0.10358(16) 0.4932(3) 0.3129(2)
H3 H 0.1127 0.5754 0.3157
C7 C 0.11186(16) 0.5080(3) 0.4587(2)
C8 C -0.02623(17) 0.2893(3) -0.0996(2)
C9 C -0.09053(16) 0.2438(3) -0.1583(2)
C10 C -0.10093(17) 0.1274(3) -0.1832(2)
H4 H -0.0671 0.0713 -0.1646
C11 C -0.16207(17) 0.0943(3) -0.2360(2)
H5 H -0.1710 0.0142 -0.2523
C12 C -0.20984(16) 0.1787(3) -0.2646(2)
C13 C -0.19485(16) 0.2946(3) -0.2373(2)
H6 H -0.2272 0.3534 -0.2573
C14 C -0.27676(17) 0.1514(3) -0.3251(2)
C15 C 0.13247(19) 0.0029(3) 0.0261(3)
H7 H 0.1001 -0.0020 0.0481
C16 C 0.16574(19) -0.0982(3) 0.0238(3)
H8 H 0.1567 -0.1704 0.0448
C17 C 0.21271(17) -0.0940(3) -0.0095(2)
C18 C 0.22325(18) 0.0139(3) -0.0390(2)
H9 H 0.2543 0.0210 -0.0632
C19 C 0.18851(17) 0.1111(3) -0.0330(2)
H10 H 0.1971 0.1847 -0.0527
C20 C 0.25116(18) -0.1965(3) -0.0148(2)
H11 H 0.2801 -0.1851 -0.0418
Zn1F Zn 0.103463(19) 0.74049(3) -0.48020(2)
Zn1F_2 Zn 0.103463(19) 0.74049(3) 0.51980(2)
Zn1G Zn -0.396537(19) 0.24049(3) -0.48020(2)
Zn1E Zn 0.396537(19) -0.75951(3) -0.01980(2)
Zn1G_2 Zn 0.603463(19) 0.24049(3) 0.51980(2)
Zn2F Zn 0.105301(18) 0.49590(3) -0.36725(2)
Zn2F_2 Zn 0.105301(18) 0.49590(3) 0.63275(2)
Zn2D Zn -0.105301(18) 0.49590(3) -0.13275(2)
Zn2G Zn -0.394699(18) -0.00410(3) -0.36725(2)
Zn2C Zn 0.394699(18) 0.00410(3) 0.36725(2)
O1F O 0.07012(14) 0.8472(2) -0.34695(16)
O2F O 0.07077(11) 0.66793(19) -0.39967(14)
O3F O 0.12431(11) 0.38303(19) -0.04473(15)
O3_2 O 0.12431(11) 0.61697(19) -0.54473(15)
O4F O 0.11015(11) 0.5467(2) 0.01960(14)
O4_2 O 0.11015(11) 0.4533(2) -0.48040(14)
O5G O 0.48048(11) 0.10077(19) 0.40948(15)
O5D O 0.01952(11) 0.60077(19) 0.09052(15)
O5B O 0.01952(11) 0.39923(19) -0.40948(15)
O6G O 0.51613(11) 0.2875(2) 0.43477(15)
O6F O 0.01613(11) 0.7875(2) -0.56523(15)
O7G O 0.19606(12) 0.2692(2) 0.12447(16)
O7A O 0.19606(12) 0.7308(2) -0.37553(16)
O8G O 0.20160(11) 0.44863(19) 0.18095(15)
O8A O 0.20160(11) 0.55137(19) -0.31905(15)
N1F N 0.09475(14) 0.5636(2) -0.25698(18)
N2G N 0.36304(13) 0.1739(2) 0.31581(17)
N2D N 0.13696(13) 0.6739(2) 0.18419(17)
N2B N 0.13696(13) 0.3261(2) -0.31581(17)
N3E N 0.35657(13) -0.6073(2) 0.00116(18)
N3F N 0.14343(13) 0.8927(2) -0.50116(18)
C1F C 0.07327(17) 0.7396(3) -0.3409(2)
C2F C 0.08205(16) 0.6806(3) -0.2606(2)
C3F C 0.07763(18) 0.7418(3) -0.1949(2)
H1F H 0.0690 0.8242 -0.1991
C4F C 0.08600(17) 0.6815(3) -0.1230(2)
H2F H 0.0822 0.7215 -0.0776
C5F C 0.10012(16) 0.5612(3) -0.1183(2)
C6F C 0.10358(16) 0.5068(3) -0.1871(2)
H3F H 0.1127 0.4246 -0.1843
C7F C 0.11186(16) 0.4920(3) -0.0413(2)
C8G C 0.47377(17) 0.2107(3) 0.4004(2)
C9G C 0.40947(16) 0.2562(3) 0.3417(2)
C10G C 0.39907(17) 0.3726(3) 0.3168(2)
H4G H 0.4329 0.4287 0.3354
C11G C 0.33793(17) 0.4057(3) 0.2640(2)
H5G H 0.3290 0.4858 0.2477
C12G C 0.29016(16) 0.3213(3) 0.2354(2)
C13G C 0.30515(16) 0.2054(3) 0.2627(2)
H6G H 0.2728 0.1466 0.2427
C14G C 0.22324(17) 0.3486(3) 0.1749(2)
C15E C 0.36753(19) -0.5029(3) -0.0261(3)
H7E H 0.3999 -0.4980 -0.0481
C16E C 0.33426(19) -0.4018(3) -0.0238(3)
H8E H 0.3433 -0.3296 -0.0448
C17E C 0.28729(17) -0.4060(3) 0.0095(2)
C18E C 0.27675(18) -0.5139(3) 0.0390(2)
H9E H 0.2457 -0.5210 0.0632
C19E C 0.31149(17) -0.6111(3) 0.0330(2)
H10E H 0.3029 -0.6847 0.0527
C20E C 0.24884(18) -0.3035(3) 0.0148(2)
H11E H 0.2199 -0.3149 0.0418
loop_
_geom_bond_atom_site_label_1
_geom_bond_atom_site_label_2
_geom_bond_site_symmetry_1
_geom_bond_site_symmetry_2
Zn1 O2 1_555 1_555
Zn2 O2 1_555 1_555
O1 C1 1_555 1_555
O2 C1 1_555 1_555
O3 C7 1_555 1_555
O4 C7 1_555 1_555
O5 C8 1_555 1_555
O6 Zn1 1_555 1_555
O7 C14 1_555 1_555
O8 C14 1_555 1_555
N1 Zn2 1_555 1_555
N2 C9 1_555 1_555
N3 Zn1 1_555 1_555
C1 C2 1_555 1_555
C2 N1 1_555 1_555
C3 C2 1_555 1_555
H1 C3 1_555 1_555
C4 C3 1_555 1_555
H2 C4 1_555 1_555
C5 C4 1_555 1_555
C6 N1 1_555 1_555
H3 C6 1_555 1_555
C7 C5 1_555 1_555
C8 O6 1_555 1_555
C9 C8 1_555 1_555
C10 C9 1_555 1_555
H4 C10 1_555 1_555
C11 C10 1_555 1_555
H5 C11 1_555 1_555
C12 C11 1_555 1_555
C13 N2 1_555 1_555
H6 C13 1_555 1_555
C14 C12 1_555 1_555
C15 N3 1_555 1_555
H7 C15 1_555 1_555
C16 C15 1_555 1_555
H8 C16 1_555 1_555
C17 C16 1_555 1_555
C18 C17 1_555 1_555
H9 C18 1_555 1_555
C19 N3 1_555 1_555
H10 C19 1_555 1_555
C20 C17 1_555 1_555
H11 C20 1_555 1_555
Zn1F O2F 1_555 1_555
Zn1F_2 O3 1_555 1_555
Zn1G O7 1_555 1_555
Zn1E N3E 1_555 1_555
Zn1G_2 O6G 1_555 1_555
Zn2F O2F 1_555 1_555
Zn2F_2 O4 1_555 1_555
Zn2D O5 1_555 1_555
Zn2G O8 1_555 1_555
Zn2C O5G 1_555 1_555
O1F C1F 1_555 1_555
O2F C1F 1_555 1_555
O3F Zn1 1_555 1_555
O3_2 Zn1F 1_555 1_555
O4F Zn2 1_555 1_555
O4_2 Zn2F 1_555 1_555
O5G C8G 1_555 1_555
O5D Zn2 1_555 1_555
O5B Zn2F 1_555 1_555
O6G C8G 1_555 1_555
O6F Zn1F 1_555 1_555
O7G Zn1 1_555 1_555
O7A Zn1F 1_555 1_555
O8G Zn2 1_555 1_555
O8A Zn2F 1_555 1_555
N1F Zn2F 1_555 1_555
N2G Zn2C 1_555 1_555
N2D Zn2 1_555 1_555
N2B Zn2F 1_555 1_555
N3E C15E 1_555 1_555
N3F Zn1F 1_555 1_555
C1F C2F 1_555 1_555
C2F N1F 1_555 1_555
C3F C2F 1_555 1_555
H1F C3F 1_555 1_555
C4F C3F 1_555 1_555
H2F C4F 1_555 1_555
C5F C4F 1_555 1_555
C6F N1F 1_555 1_555
H3F C6F 1_555 1_555
C7F O3F 1_555 1_555
C8G C9G 1_555 1_555
C9G N2G 1_555 1_555
C10G C9G 1_555 1_555
H4G C10G 1_555 1_555
C11G C10G 1_555 1_555
H5G C11G 1_555 1_555
C12G C11G 1_555 1_555
C13G N2G 1_555 1_555
H6G C13G 1_555 1_555
C14G O7G 1_555 1_555
C15E H7E 1_555 1_555
C16E C15E 1_555 1_555
H8E C16E 1_555 1_555
C17E C16E 1_555 1_555
C18E C17E 1_555 1_555
H9E C18E 1_555 1_555
C19E N3E 1_555 1_555
H10E C19E 1_555 1_555
C20E C20 1_555 1_555
H11E C20E 1_555 1_555
N2 Zn2D 1_555 1_555
C5 C6 1_555 1_555
C12 C13 1_555 1_555
C18 C19 1_555 1_555
O4F C7F 1_555 1_555
O8G C14G 1_555 1_555
C5F C6F 1_555 1_555
C5F C7F 1_555 1_555
C12G C13G 1_555 1_555
C12G C14G 1_555 1_555
C17E C20E 1_555 1_555
C18E C19E 1_555 1_555

#END
