
#######################################################################
#
#                 Cambridge Crystallographic Data Centre
#                                CCDC 
#
#######################################################################
#
# If this CIF has been generated from an entry in the Cambridge 
# Structural Database, then it will include bibliographic, chemical, 
# crystal, experimental, refinement or atomic coordinate data resulting 
# from the CCDC's data processing and validation procedures.
#
#######################################################################

data_WODPUC
_symmetry_cell_setting           triclinic
_symmetry_space_group_name_H-M   'P -1'
_symmetry_Int_Tables_number      2
_space_group_name_Hall           '-P 1'
loop_
_symmetry_equiv_pos_site_id
_symmetry_equiv_pos_as_xyz
1 x,y,z
2 -x,-y,-z
_cell_length_a                   10.660(2)
_cell_length_b                   11.377(2)
_cell_length_c                   12.509(3)
_cell_angle_alpha                86.24(3)
_cell_angle_beta                 81.85(3)
_cell_angle_gamma                89.07(3)
_cell_volume                     1498.49
loop_
_atom_site_label
_atom_site_type_symbol
_atom_site_fract_x
_atom_site_fract_y
_atom_site_fract_z
O1 O 0.5030(3) 0.3228(3) 0.6417(2)
O2 O 0.3074(3) 0.3886(3) 0.6391(2)
C1 C 0.3965(4) 0.3169(4) 0.6106(3)
Dy1 Dy 0.573313(16) 0.514081(14) 0.238131(13)
Zn1 Zn 0.36811(4) 1.16410(4) 0.20067(4)
C2 C 0.6208(4) 0.8855(3) 0.0890(3)
N1 N 0.3522(3) 0.1265(3) 0.3770(3)
C3 C 0.3011(7) 0.0135(5) 0.5455(4)
H1 H 0.2756 -0.0576 0.5824
C4 C 0.3272(7) 0.1084(5) 0.6019(4)
H2 H 0.3173 0.1021 0.6771
C5 C 0.3818(4) 0.2179(3) 0.4323(3)
C6 C 0.3687(4) 0.2145(4) 0.5452(3)
C7 C 1.1680(4) 0.3479(4) 0.1471(4)
H3 H 1.2370 0.3834 0.1038
C8 C 0.3134(6) 0.0251(4) 0.4333(4)
H4 H 0.2943 -0.0388 0.3959
C9 C 1.0841(4) 0.1951(4) 0.2648(4)
H5 H 1.0946 0.1239 0.3035
N2 N 1.1866(3) 0.2450(3) 0.2042(3)
C10 C 0.9643(4) 0.2448(4) 0.2722(4)
H6 H 0.8964 0.2077 0.3156
C11 C 1.0511(4) 0.4017(4) 0.1510(4)
H7 H 1.0423 0.4725 0.1110
O3 O 0.7227(3) 0.3588(3) 0.2812(2)
N3 N 0.5399(3) 1.0664(3) 0.1636(3)
C12 C 0.6598(4) 1.1066(4) 0.1561(4)
H8 H 0.6730 1.1806 0.1798
C13 C 0.8167(4) 0.4077(3) 0.2198(3)
C14 C 0.3814(4) 0.9201(3) 0.1444(3)
C15 C 0.6000(3) 0.7620(3) 0.0553(3)
C16 C 0.4342(4) 0.3242(3) 0.3619(3)
C17 C 0.5198(4) 0.9576(3) 0.1315(3)
C18 C 0.7436(4) 0.9288(4) 0.0802(3)
H9 H 0.8120 0.8833 0.0517
C19 C 0.9461(4) 0.3505(4) 0.2144(3)
C20 C 0.7639(4) 1.0402(4) 0.1140(4)
H10 H 0.8456 1.0698 0.1085
O4 O 0.3631(3) 0.5683(3) 0.2030(3)
O5 O 0.6079(3) 0.6801(2) 0.1260(2)
O6 O 0.2988(3) 0.9984(2) 0.1748(2)
O7 O 0.5826(3) 0.7485(2) -0.0411(2)
O8 O 0.8019(3) 0.5026(2) 0.1641(2)
O9 O 0.4472(3) 0.3179(2) 0.2591(2)
O10 O 0.4682(3) 0.4128(2) 0.4048(2)
O11 O 0.5875(3) 0.4269(3) 0.0680(2)
O12 O 0.3577(3) 0.8173(2) 0.1251(3)
O1A O 0.4970(3) 0.6772(3) 0.3583(2)
O2A O 0.6926(3) 0.6114(3) 0.3609(2)
Dy1A Dy 0.426687(16) 0.485919(14) 0.761869(13)
Zn1_2 Zn 0.36811(4) 0.16410(4) 0.20067(4)
Zn1_3 Zn 1.36811(4) 0.16410(4) 0.20067(4)
Zn1A Zn 0.63189(4) 0.83590(4) -0.20067(4)
N1_2 N 0.3522(3) 1.1265(3) 0.3770(3)
N2_2 N 0.1866(3) 1.2450(3) 0.2042(3)
O7A O 0.4174(3) 1.2515(2) 0.0411(2)
O9_2 O 0.4472(3) 1.3179(2) 0.2591(2)
O13 O 0.1927(4) 0.6914(4) 0.0191(4)
O14 O 0.2711(4) 0.7180(4) 0.4932(3)
O15 O 0.0477(6) 0.2889(6) 0.8823(10)
O16 O 0.0363(6) 0.9053(6) 0.2244(7)
O17 O 0.1633(6) 0.5416(8) 0.3698(5)
O18 O 0.0882(10) 0.3783(12) 0.5429(12)
O19 O 0.9635(9) 0.1484(13) 0.5468(8)
loop_
_geom_bond_atom_site_label_1
_geom_bond_atom_site_label_2
_geom_bond_site_symmetry_1
_geom_bond_site_symmetry_2
O1 C1 1_555 1_555
O2 C1 1_555 1_555
C1 C6 1_555 1_555
Dy1 O3 1_555 1_555
Zn1 N3 1_555 1_555
C2 C15 1_555 1_555
N1 C5 1_555 1_555
C3 H1 1_555 1_555
C4 C3 1_555 1_555
H2 C4 1_555 1_555
C5 C6 1_555 1_555
C6 C4 1_555 1_555
C7 H3 1_555 1_555
C8 N1 1_555 1_555
H4 C8 1_555 1_555
C9 H5 1_555 1_555
N2 C7 1_555 1_555
C10 C9 1_555 1_555
H6 C10 1_555 1_555
C11 C7 1_555 1_555
H7 C11 1_555 1_555
O3 C13 1_555 1_555
N3 C12 1_555 1_555
C12 H8 1_555 1_555
C13 C19 1_555 1_555
C14 C17 1_555 1_555
C15 O5 1_555 1_555
C16 C5 1_555 1_555
C17 C2 1_555 1_555
C18 C2 1_555 1_555
H9 C18 1_555 1_555
C19 C10 1_555 1_555
C20 C12 1_555 1_555
H10 C20 1_555 1_555
O4 Dy1 1_555 1_555
O5 Dy1 1_555 1_555
O6 Zn1 1_555 1_555
O7 C15 1_555 1_555
O8 Dy1 1_555 1_555
O9 Dy1 1_555 1_555
O10 Dy1 1_555 1_555
O11 Dy1 1_555 1_555
O12 C14 1_555 1_555
O1A Dy1 1_555 1_555
O2A Dy1 1_555 1_555
Dy1A O1 1_555 1_555
Zn1_2 N1 1_555 1_555
Zn1_3 N2 1_555 1_555
Zn1A O7 1_555 1_555
N1_2 Zn1 1_555 1_555
N2_2 Zn1 1_555 1_555
O7A Zn1 1_555 1_555
O9_2 Zn1 1_555 1_555
O2 Dy1A 1_555 1_555
C3 C8 1_555 1_555
C9 N2 1_555 1_555
C11 C19 1_555 1_555
N3 C17 1_555 1_555
C13 O8 1_555 1_555
C14 O6 1_555 1_555
C16 O9 1_555 1_555
C16 O10 1_555 1_555
C18 C20 1_555 1_555
O9 Zn1_2 1_555 1_555

#END
