
#######################################################################
#
#                 Cambridge Crystallographic Data Centre
#                                CCDC 
#
#######################################################################
#
# If this CIF has been generated from an entry in the Cambridge 
# Structural Database, then it will include bibliographic, chemical, 
# crystal, experimental, refinement or atomic coordinate data resulting 
# from the CCDC's data processing and validation procedures.
#
#######################################################################

data_WODQUD
_symmetry_cell_setting           monoclinic
_symmetry_space_group_name_H-M   'P 21/c'
_symmetry_Int_Tables_number      14
_space_group_name_Hall           '-P 2ybc'
loop_
_symmetry_equiv_pos_site_id
_symmetry_equiv_pos_as_xyz
1 x,y,z
2 -x,1/2+y,1/2-z
3 -x,-y,-z
4 x,1/2-y,1/2+z
_cell_length_a                   8.3328(9)
_cell_length_b                   17.5089(19)
_cell_length_c                   7.9384(9)
_cell_angle_alpha                90
_cell_angle_beta                 109.2470(10)
_cell_angle_gamma                90
_cell_volume                     1093.46
loop_
_atom_site_label
_atom_site_type_symbol
_atom_site_fract_x
_atom_site_fract_y
_atom_site_fract_z
Sm1 Sm 0.28088(7) 0.52218(3) 0.25680(8)
N1 N -0.0320(13) 0.7651(6) 0.1100(14)
N2 N -0.1237(13) 0.8291(6) 0.0779(14)
H1 H -0.0907 0.8726 0.1278
O1 O 0.0852(11) 0.6186(5) 0.1248(12)
O2 O -0.1518(12) 0.5811(5) -0.0771(14)
O3 O -0.3850(11) 0.9359(5) -0.0022(11)
O4 O -0.5308(12) 0.8682(5) -0.2366(12)
O5 O 0.5213(10) 0.4580(5) 0.2046(10)
O6 O 0.7001(10) 0.4571(5) 0.0471(11)
O7 O 0.0162(11) 0.4807(5) 0.3297(12)
O8 O 0.2577(12) 0.6027(5) 0.5001(11)
C1 C -0.0611(15) 0.6297(7) 0.0176(15)
C2 C -0.1271(15) 0.7085(7) 0.0098(15)
C3 C -0.2848(14) 0.7390(7) -0.0901(16)
H2 H -0.3758 0.7131 -0.1699
C4 C -0.2773(15) 0.8148(7) -0.0459(15)
C5 C -0.4063(14) 0.8765(6) -0.0978(15)
C6 C 0.5652(15) 0.4749(7) 0.0720(15)
H3 H 0.273(17) 0.650(2) 0.487(16)
H4 H 0.326(16) 0.592(7) 0.603(9)
O5B O 0.4787(10) 0.5420(5) -0.2046(10)
O6B O 0.2999(10) 0.5429(5) -0.0471(11)
C6B C 0.4348(15) 0.5251(7) -0.0720(15)
Sm1B Sm -0.28088(7) 0.47782(3) -0.25680(8)
N1B N 0.0320(13) 0.2349(6) -0.1100(14)
N2B N 0.1237(13) 0.1709(6) -0.0779(14)
H1B H 0.0907 0.1274 -0.1278
O1B O -0.0852(11) 0.3814(5) -0.1248(12)
O2B O 0.1518(12) 0.4189(5) 0.0771(14)
O3B O 0.3850(11) 0.0641(5) 0.0022(11)
O4B O 0.5308(12) 0.1318(5) 0.2366(12)
O7B O -0.0162(11) 0.5193(5) -0.3297(12)
O8B O -0.2577(12) 0.3973(5) -0.5001(11)
C1B C 0.0611(15) 0.3703(7) -0.0176(15)
C2B C 0.1271(15) 0.2915(7) -0.0098(15)
C3B C 0.2848(14) 0.2610(7) 0.0901(16)
H2B H 0.3758 0.2869 0.1699
C4B C 0.2773(15) 0.1852(7) 0.0459(15)
C5B C 0.4063(14) 0.1235(6) 0.0978(15)
H3B H -0.273(17) 0.350(2) -0.487(16)
H4B H -0.326(16) 0.408(7) -0.603(9)
Sm1A Sm -0.28088(7) 1.02218(3) 0.24320(8)
Sm1A_2 Sm 0.71912(7) 0.02218(3) 0.24320(8)
Sm1B_2 Sm 0.71912(7) 0.47782(3) -0.25680(8)
Sm1C Sm -0.71912(7) 0.97782(3) -0.24320(8)
Sm1C_2 Sm 0.28088(7) -0.02218(3) -0.24320(8)
O3A O -0.6150(11) 0.4359(5) -0.4978(11)
O3A_2 O 0.3850(11) 0.4359(5) 0.5022(11)
O3C O -0.3850(11) 0.5641(5) -0.5022(11)
O3C_2 O 0.6150(11) 0.5641(5) 0.4978(11)
O4A O -0.4692(12) 0.3682(5) -0.2634(12)
O4C O 0.4692(12) 0.6318(5) 0.2634(12)
O5B_2 O -0.5213(10) 0.5420(5) -0.2046(10)
O6_2 O -0.2999(10) 0.4571(5) 0.0471(11)
O9 O 0.2764(15) 0.7616(7) 0.4482(17)
loop_
_geom_bond_atom_site_label_1
_geom_bond_atom_site_label_2
_geom_bond_site_symmetry_1
_geom_bond_site_symmetry_2
Sm1 O1 1_555 1_555
N1 N2 1_555 1_555
N2 H1 1_555 1_555
O1 C1 1_555 1_555
O2 C1 1_555 1_555
O3 C5 1_555 1_555
O4 C5 1_555 1_555
O5 Sm1 1_555 1_555
O6 C6 1_555 1_555
O7 Sm1 1_555 1_555
O8 Sm1 1_555 1_555
C1 C2 1_555 1_555
C2 N1 1_555 1_555
C3 C2 1_555 1_555
H2 C3 1_555 1_555
C4 N2 1_555 1_555
C5 C4 1_555 1_555
C6 O5 1_555 1_555
H3 O8 1_555 1_555
H4 O8 1_555 1_555
O5B C6B 1_555 1_555
O6B Sm1 1_555 1_555
C6B C6 1_555 1_555
Sm1B O2 1_555 1_555
N1B N2B 1_555 1_555
N2B H1B 1_555 1_555
O1B Sm1B 1_555 1_555
O2B Sm1 1_555 1_555
O3B C5B 1_555 1_555
O4B C5B 1_555 1_555
O7B Sm1B 1_555 1_555
O8B Sm1B 1_555 1_555
C1B O1B 1_555 1_555
C2B N1B 1_555 1_555
C3B C2B 1_555 1_555
H2B C3B 1_555 1_555
C4B N2B 1_555 1_555
C5B C4B 1_555 1_555
H3B O8B 1_555 1_555
H4B O8B 1_555 1_555
Sm1A O3 1_555 1_555
Sm1A_2 O3B 1_555 1_555
Sm1B_2 O6 1_555 1_555
Sm1C O3 1_555 1_555
Sm1C_2 O3B 1_555 1_555
O3A Sm1B 1_555 1_555
O3A_2 Sm1 1_555 1_555
O3C Sm1B 1_555 1_555
O3C_2 Sm1 1_555 1_555
O4A Sm1B 1_555 1_555
O4C Sm1 1_555 1_555
O5B_2 Sm1B 1_555 1_555
O6_2 Sm1B 1_555 1_555
O4 Sm1C 1_555 1_555
C3 C4 1_555 1_555
O5B Sm1B_2 1_555 1_555
O6B C6B 1_555 1_555
O2B C1B 1_555 1_555
O4B Sm1A_2 1_555 1_555
C1B C2B 1_555 1_555
C3B C4B 1_555 1_555

#END
