
#######################################################################
#
#                 Cambridge Crystallographic Data Centre
#                                CCDC 
#
#######################################################################
#
# If this CIF has been generated from an entry in the Cambridge 
# Structural Database, then it will include bibliographic, chemical, 
# crystal, experimental, refinement or atomic coordinate data resulting 
# from the CCDC's data processing and validation procedures.
#
#######################################################################

data_WODROY
_symmetry_cell_setting           monoclinic
_symmetry_space_group_name_H-M   'P 21/c'
_symmetry_Int_Tables_number      14
_space_group_name_Hall           '-P 2ybc'
loop_
_symmetry_equiv_pos_site_id
_symmetry_equiv_pos_as_xyz
1 x,y,z
2 -x,1/2+y,1/2-z
3 -x,-y,-z
4 x,1/2-y,1/2+z
_cell_length_a                   7.8590(16)
_cell_length_b                   13.253(3)
_cell_length_c                   17.452(4)
_cell_angle_alpha                90
_cell_angle_beta                 105.258(4)
_cell_angle_gamma                90
_cell_volume                     1753.65
loop_
_atom_site_label
_atom_site_type_symbol
_atom_site_fract_x
_atom_site_fract_y
_atom_site_fract_z
Cu1 Cu -0.27256(12) -0.39642(7) -0.44661(6)
O1 O -0.1700(7) -0.4965(4) -0.5024(3)
H1 H -0.2538 -0.5506 -0.5243
N1 N -0.3091(10) -0.3076(6) -0.5445(4)
C1 C -0.2247(12) -0.5738(6) -0.3403(5)
Cu2 Cu -0.04820(13) -0.44950(8) -0.57897(6)
O2 O -0.0839(9) -0.6062(5) -0.3523(5)
N2 N -0.1911(11) -0.3196(6) -0.5903(5)
C2 C -0.2916(11) -0.6324(6) -0.2808(5)
O3 O -0.3100(9) -0.4987(5) -0.3714(4)
N3 N -0.3424(15) -0.1833(7) -0.6268(6)
C3 C -0.4523(11) -0.6076(6) -0.2660(5)
H2 H -0.5188 -0.5543 -0.2930
O4 O 0.0061(9) -0.8230(5) -0.0929(5)
N4 N -0.402(2) -0.0940(9) -0.6664(9)
H3 H -0.4805 -0.0582 -0.6530
H4 H -0.3585 -0.0742 -0.7043
C4 C -0.5127(11) -0.6623(7) -0.2112(5)
H5 H -0.6210 -0.6463 -0.2022
O5 O -0.1784(9) -0.9393(5) -0.1607(4)
C5 C -0.4130(10) -0.7418(6) -0.1688(5)
O6 O -0.3729(9) -0.8395(6) -0.0512(4)
C6 C -0.4786(11) -0.7977(6) -0.1076(5)
O7 O -0.6449(8) -0.7961(5) -0.1162(4)
C7 C -0.2525(11) -0.7651(6) -0.1835(5)
C8 C -0.1325(11) -0.8489(7) -0.1411(6)
C9 C -0.1928(11) -0.7114(7) -0.2396(6)
H6 H -0.0859 -0.7284 -0.2496
C10 C -0.2124(17) -0.2422(8) -0.6381(7)
H7 H -0.1472 -0.2298 -0.6745
C11 C -0.3978(17) -0.2243(9) -0.5669(7)
H8 H -0.4842 -0.1978 -0.5451
Cu1A Cu -0.72744(12) -0.89642(7) -0.05339(6)
Cu1A_2 Cu 0.27256(12) -0.89642(7) -0.05339(6)
O1B O 0.1700(7) -0.5035(4) -0.4976(3)
Cu2B Cu 0.04820(13) -0.55050(8) -0.42103(6)
Cu2C Cu -0.04820(13) -1.05050(8) -0.07897(6)
O2B O 0.0839(9) -0.3938(5) -0.6477(5)
O4A O -0.0061(9) -0.3230(5) -0.4071(5)
O5C O -0.1784(9) -0.5607(5) -0.6607(4)
O7A O -0.3551(8) -0.2961(5) -0.3838(4)
O8 O -0.786(3) -0.1658(19) -0.5513(15)
O9 O -0.101(3) -0.1213(19) -0.4230(15)
loop_
_geom_bond_atom_site_label_1
_geom_bond_atom_site_label_2
_geom_bond_site_symmetry_1
_geom_bond_site_symmetry_2
Cu1 O1 1_555 1_555
O1 H1 1_555 1_555
N1 Cu1 1_555 1_555
C1 O2 1_555 1_555
Cu2 O1 1_555 1_555
O2 Cu2B 1_555 1_555
N2 N1 1_555 1_555
C2 C1 1_555 1_555
O3 Cu1 1_555 1_555
N3 N4 1_555 1_555
C3 C2 1_555 1_555
H2 C3 1_555 1_555
O4 C8 1_555 1_555
N4 H3 1_555 1_555
H4 N4 1_555 1_555
C4 C3 1_555 1_555
H5 C4 1_555 1_555
O5 C8 1_555 1_555
C5 C4 1_555 1_555
O6 C6 1_555 1_555
C6 C5 1_555 1_555
O7 C6 1_555 1_555
C7 C5 1_555 1_555
C8 C7 1_555 1_555
C9 C2 1_555 1_555
H6 C9 1_555 1_555
C10 N2 1_555 1_555
H7 C10 1_555 1_555
C11 N1 1_555 1_555
H8 C11 1_555 1_555
Cu1A O7 1_555 1_555
Cu1A_2 O4 1_555 1_555
O1B Cu2 1_555 1_555
Cu2B O1 1_555 1_555
Cu2C O5 1_555 1_555
O2B Cu2 1_555 1_555
O4A Cu1 1_555 1_555
O5C Cu2 1_555 1_555
O7A Cu1 1_555 1_555
C1 O3 1_555 1_555
Cu2 N2 1_555 1_555
N3 C10 1_555 1_555
N3 C11 1_555 1_555
C7 C9 1_555 1_555
O1B Cu2B 1_555 1_555

#END
