
#######################################################################
#
#                 Cambridge Crystallographic Data Centre
#                                CCDC 
#
#######################################################################
#
# If this CIF has been generated from an entry in the Cambridge 
# Structural Database, then it will include bibliographic, chemical, 
# crystal, experimental, refinement or atomic coordinate data resulting 
# from the CCDC's data processing and validation procedures.
#
#######################################################################

data_WODRAK
_symmetry_cell_setting           monoclinic
_symmetry_space_group_name_H-M   'P 21/c'
_symmetry_Int_Tables_number      14
_space_group_name_Hall           '-P 2ybc'
loop_
_symmetry_equiv_pos_site_id
_symmetry_equiv_pos_as_xyz
1 x,y,z
2 -x,1/2+y,1/2-z
3 -x,-y,-z
4 x,1/2-y,1/2+z
_cell_length_a                   8.2983(4)
_cell_length_b                   17.3652(9)
_cell_length_c                   7.8347(4)
_cell_angle_alpha                90
_cell_angle_beta                 108.5100(10)
_cell_angle_gamma                90
_cell_volume                     1070.59
loop_
_atom_site_label
_atom_site_type_symbol
_atom_site_fract_x
_atom_site_fract_y
_atom_site_fract_z
Dy1 Dy 0.22284(7) 0.47759(3) 0.24840(8)
N1 N 0.5294(14) 0.2348(6) 0.3910(15)
H1 H 0.4268 0.2397 0.3202
N2 N 0.6183(15) 0.1698(6) 0.4218(16)
O1 O 0.4115(12) 0.3822(5) 0.3780(13)
O2 O 0.6541(13) 0.4209(6) 0.5727(15)
O3 O 1.0265(12) 0.1272(6) 0.7275(13)
O4 O 0.8723(12) 0.0617(5) 0.4918(13)
O5 O -0.0169(12) 0.5418(5) 0.2937(11)
O6 O -0.1970(11) 0.5458(5) 0.4539(12)
C1 C 0.5616(15) 0.3716(7) 0.4822(16)
C2 C 0.6256(17) 0.2915(7) 0.4882(16)
C3 C 0.7818(16) 0.2613(7) 0.5865(16)
H2 H 0.8730 0.2877 0.6649
C4 C 0.7743(17) 0.1838(7) 0.5443(16)
C5 C 0.8990(16) 0.1212(7) 0.5900(16)
C6 C -0.0618(16) 0.5259(8) 0.4281(17)
O7 O 0.2426(13) 0.3998(5) 0.0041(12)
H3 H 0.215(17) 0.353(3) 0.009(17)
H4 H 0.181(15) 0.415(7) -0.100(9)
O8 O 0.4845(12) 0.5162(6) 0.1749(13)
H5 H 0.562(14) 0.534(9) 0.266(13)
H6 H 0.47(2) 0.565(2) 0.18(2)
O5B O 0.0169(12) 0.4582(5) 0.7063(11)
O6B O 0.1970(11) 0.4542(5) 0.5461(12)
C6B C 0.0618(16) 0.4741(8) 0.5719(17)
Dy1B Dy -0.22284(7) 0.52241(3) 0.75160(8)
N1B N -0.5294(14) 0.7652(6) 0.6090(15)
H1B H -0.4268 0.7603 0.6798
N2B N -0.6183(15) 0.8302(6) 0.5782(16)
O1B O -0.4115(12) 0.6178(5) 0.6220(13)
O2B O -0.6541(13) 0.5791(6) 0.4273(15)
O3B O -1.0265(12) 0.8728(6) 0.2725(13)
O4B O -0.8723(12) 0.9383(5) 0.5082(13)
C1B C -0.5616(15) 0.6284(7) 0.5178(16)
C2B C -0.6256(17) 0.7085(7) 0.5118(16)
C3B C -0.7818(16) 0.7387(7) 0.4135(16)
H2B H -0.8730 0.7123 0.3351
C4B C -0.7743(17) 0.8162(7) 0.4557(16)
C5B C -0.8990(16) 0.8788(7) 0.4100(16)
O7B O -0.2426(13) 0.6002(5) 0.9959(12)
H3B H -0.215(17) 0.647(3) 0.991(17)
H4B H -0.181(15) 0.585(7) 1.100(9)
O8B O -0.4845(12) 0.4838(6) 0.8251(13)
H5B H -0.562(14) 0.466(9) 0.734(13)
H6B H -0.47(2) 0.435(2) 0.82(2)
Dy1_2 Dy -0.77716(7) 0.47759(3) 0.24840(8)
Dy1A Dy -1.22284(7) 0.97759(3) 0.25160(8)
Dy1A_2 Dy 0.77716(7) -0.02241(3) 0.25160(8)
Dy1B_2 Dy 0.77716(7) 0.52241(3) 0.75160(8)
Dy1C Dy -0.77716(7) 1.02241(3) 0.74840(8)
Dy1C_2 Dy 1.22284(7) 0.02241(3) 0.74840(8)
O2_2 O -0.3459(13) 0.4209(6) 0.5727(15)
O2B_2 O 0.3459(13) 0.5791(6) 0.4273(15)
O3A O -0.0265(12) 0.6272(6) 0.7725(13)
O3C O 0.0265(12) 0.3728(6) 0.2275(13)
O4A O 0.1277(12) 0.5617(5) 0.0082(13)
O4C O -0.1277(12) 0.4383(5) 0.9918(13)
O9 O 0.2192(18) 0.2399(7) 0.0495(19)
loop_
_geom_bond_atom_site_label_1
_geom_bond_atom_site_label_2
_geom_bond_site_symmetry_1
_geom_bond_site_symmetry_2
Dy1 O1 1_555 1_555
N1 H1 1_555 1_555
N2 N1 1_555 1_555
O1 C1 1_555 1_555
O2 C1 1_555 1_555
O3 C5 1_555 1_555
O4 C5 1_555 1_555
O5 Dy1 1_555 1_555
O6 C6 1_555 1_555
C1 C2 1_555 1_555
C2 N1 1_555 1_555
C3 C2 1_555 1_555
H2 C3 1_555 1_555
C4 N2 1_555 1_555
C5 C4 1_555 1_555
C6 O5 1_555 1_555
O7 Dy1 1_555 1_555
H3 O7 1_555 1_555
H4 O7 1_555 1_555
O8 Dy1 1_555 1_555
H5 O8 1_555 1_555
H6 O8 1_555 1_555
O5B C6B 1_555 1_555
O6B Dy1 1_555 1_555
C6B C6 1_555 1_555
Dy1B O6 1_555 1_555
N1B H1B 1_555 1_555
N2B N1B 1_555 1_555
O1B Dy1B 1_555 1_555
O2B C1B 1_555 1_555
O3B C5B 1_555 1_555
O4B C5B 1_555 1_555
C1B O1B 1_555 1_555
C2B N1B 1_555 1_555
C3B C2B 1_555 1_555
H2B C3B 1_555 1_555
C4B N2B 1_555 1_555
C5B C4B 1_555 1_555
O7B Dy1B 1_555 1_555
H3B O7B 1_555 1_555
H4B O7B 1_555 1_555
O8B Dy1B 1_555 1_555
H5B O8B 1_555 1_555
H6B O8B 1_555 1_555
Dy1_2 O2B 1_555 1_555
Dy1A O3B 1_555 1_555
Dy1A_2 O4 1_555 1_555
Dy1B_2 O2 1_555 1_555
Dy1C O4B 1_555 1_555
Dy1C_2 O3 1_555 1_555
O2_2 Dy1B 1_555 1_555
O2B_2 Dy1 1_555 1_555
O3A Dy1B 1_555 1_555
O3C Dy1 1_555 1_555
O4A Dy1 1_555 1_555
O4C Dy1B 1_555 1_555
C3 C4 1_555 1_555
O5B Dy1B 1_555 1_555
O6B C6B 1_555 1_555
C1B C2B 1_555 1_555
C3B C4B 1_555 1_555

#END
