
#######################################################################
#
#                 Cambridge Crystallographic Data Centre
#                                CCDC 
#
#######################################################################
#
# If this CIF has been generated from an entry in the Cambridge 
# Structural Database, then it will include bibliographic, chemical, 
# crystal, experimental, refinement or atomic coordinate data resulting 
# from the CCDC's data processing and validation procedures.
#
#######################################################################

data_WODRIS01
_symmetry_cell_setting           triclinic
_symmetry_space_group_name_H-M   'P -1'
_symmetry_Int_Tables_number      2
_space_group_name_Hall           '-P 1'
loop_
_symmetry_equiv_pos_site_id
_symmetry_equiv_pos_as_xyz
1 x,y,z
2 -x,-y,-z
_cell_length_a                   7.5559(5)
_cell_length_b                   9.5691(7)
_cell_length_c                   10.5354(7)
_cell_angle_alpha                102.7580(10)
_cell_angle_beta                 97.5380(10)
_cell_angle_gamma                93.1230(10)
_cell_volume                     733.768
loop_
_atom_site_label
_atom_site_type_symbol
_atom_site_fract_x
_atom_site_fract_y
_atom_site_fract_z
Cu1 Cu 0.0000 0.5000 0.5000
Cu2 Cu -0.07495(6) 0.85445(5) 0.55410(5)
O1 O 0.4755(5) 0.6283(4) 0.3593(5)
O2 O 0.3894(5) 0.8384(4) 0.3553(5)
O3 O 0.0040(3) 0.9360(3) 0.3716(3)
O4 O 0.1062(6) 0.9476(4) 0.1866(4)
O5 O -0.3204(4) 0.9025(3) 0.5355(3)
H1 H -0.3378 0.9891 0.5640
H2 H -0.3981 0.8701 0.4692
O6 O -0.1451(4) 0.6540(3) 0.4877(3)
H3 H -0.2557 0.6425 0.4607
N1 N 0.1936(4) 0.6535(3) 0.5966(3)
N2 N 0.1598(5) 0.7959(3) 0.6175(4)
N3 N 0.4240(4) 0.7826(4) 0.7186(3)
N4 N 0.5922(5) 0.8165(4) 0.8002(4)
H4 H 0.6557 0.8778 0.7662
H5 H 0.5700 0.8559 0.8817
C1 C 0.3005(6) 0.8721(4) 0.6907(5)
H6 H 0.3134 0.9718 0.7188
C2 C 0.3546(5) 0.6497(4) 0.6594(4)
H7 H 0.4117 0.5665 0.6621
C3 C 0.1811(5) 0.6362(4) 0.2549(4)
C4 C 0.0361(5) 0.7147(4) 0.2231(4)
C5 C -0.1218(5) 0.6341(5) 0.1559(4)
C6 C -0.1397(6) 0.4855(4) 0.1209(4)
H8 H -0.2474 0.4365 0.0761
C7 C 0.0033(6) 0.4111(5) 0.1531(5)
H9 H -0.0066 0.3111 0.1309
C8 C 0.1625(6) 0.4868(5) 0.2190(4)
H10 H 0.2597 0.4363 0.2398
C9 C 0.3635(6) 0.7062(5) 0.3293(5)
C10 C 0.0510(5) 0.8792(4) 0.2604(4)
N5 N -0.2688(9) 0.7061(8) 0.0962(5)
O7 O -0.2485(10) 0.8346(7) 0.1109(8)
O8 O -0.4048(9) 0.6346(7) 0.0343(8)
Cu2A Cu 0.07495(6) 0.14555(5) 0.44590(5)
O1A O -0.4755(5) 0.3717(4) 0.6407(5)
O2A O -0.3894(5) 0.1616(4) 0.6447(5)
O3A O -0.0040(3) 0.0640(3) 0.6284(3)
O4A O -0.1062(6) 0.0524(4) 0.8134(4)
O5A O 0.3204(4) 0.0975(3) 0.4645(3)
H1A H 0.3378 0.0109 0.4360
H2A H 0.3981 0.1299 0.5308
O6A O 0.1451(4) 0.3460(3) 0.5123(3)
H3A H 0.2557 0.3575 0.5393
N1A N -0.1936(4) 0.3465(3) 0.4034(3)
N2A N -0.1598(5) 0.2041(3) 0.3825(4)
N3A N -0.4240(4) 0.2174(4) 0.2814(3)
N4A N -0.5922(5) 0.1835(4) 0.1998(4)
H4A H -0.6557 0.1222 0.2338
H5A H -0.5700 0.1441 0.1183
C1A C -0.3005(6) 0.1279(4) 0.3093(5)
H6A H -0.3134 0.0282 0.2812
C2A C -0.3546(5) 0.3503(4) 0.3406(4)
H7A H -0.4117 0.4335 0.3379
C3A C -0.1811(5) 0.3638(4) 0.7451(4)
C4A C -0.0361(5) 0.2853(4) 0.7769(4)
C5A C 0.1218(5) 0.3659(5) 0.8441(4)
C6A C 0.1397(6) 0.5145(4) 0.8791(4)
H8A H 0.2474 0.5635 0.9239
C7A C -0.0033(6) 0.5889(5) 0.8469(5)
H9A H 0.0066 0.6889 0.8691
C8A C -0.1625(6) 0.5132(5) 0.7810(4)
H10A H -0.2597 0.5637 0.7602
C9A C -0.3635(6) 0.2938(5) 0.6707(5)
C10A C -0.0510(5) 0.1208(4) 0.7396(4)
N5A N 0.2688(9) 0.2939(8) 0.9038(5)
O7A O 0.2485(10) 0.1654(7) 0.8891(8)
O8A O 0.4048(9) 0.3654(7) 0.9657(8)
Cu2_2 Cu -0.07495(6) -0.14555(5) 0.55410(5)
Cu2A_2 Cu 0.07495(6) 1.14555(5) 0.44590(5)
O3_2 O 0.0040(3) -0.0640(3) 0.3716(3)
O3A_2 O -0.0040(3) 1.0640(3) 0.6284(3)
O11 O 0.3290(8) 0.8585(7) 0.0002(6)
N6? N -0.2882(10) 0.7055(9) 0.1363(5)
O9? O -0.2907(10) 0.8345(8) 0.1587(8)
O10? O -0.4278(9) 0.6365(8) 0.0971(8)
O12? O 0.241(2) 0.9101(18) -0.0464(16)
loop_
_geom_bond_atom_site_label_1
_geom_bond_atom_site_label_2
_geom_bond_site_symmetry_1
_geom_bond_site_symmetry_2
Cu1 O6 1_555 1_555
Cu2 O3 1_555 1_555
O1 C9 1_555 1_555
O2 C9 1_555 1_555
O3 C10 1_555 1_555
O4 C10 1_555 1_555
O5 Cu2 1_555 1_555
H1 O5 1_555 1_555
H2 O5 1_555 1_555
O6 Cu2 1_555 1_555
H3 O6 1_555 1_555
N1 Cu1 1_555 1_555
N2 Cu2 1_555 1_555
N3 N4 1_555 1_555
N4 H4 1_555 1_555
H5 N4 1_555 1_555
C1 N2 1_555 1_555
H6 C1 1_555 1_555
C2 N1 1_555 1_555
H7 C2 1_555 1_555
C3 C4 1_555 1_555
C4 C5 1_555 1_555
C5 C6 1_555 1_555
C6 H8 1_555 1_555
C7 C6 1_555 1_555
H9 C7 1_555 1_555
C8 C3 1_555 1_555
H10 C8 1_555 1_555
C9 C3 1_555 1_555
C10 C4 1_555 1_555
N5 C5 1_555 1_555
O7 N5 1_555 1_555
O8 N5 1_555 1_555
Cu2A O3A 1_555 1_555
O1A C9A 1_555 1_555
O2A C9A 1_555 1_555
O3A C10A 1_555 1_555
O4A C10A 1_555 1_555
O5A Cu2A 1_555 1_555
H1A O5A 1_555 1_555
H2A O5A 1_555 1_555
O6A Cu1 1_555 1_555
H3A O6A 1_555 1_555
N1A Cu1 1_555 1_555
N2A Cu2A 1_555 1_555
N3A N4A 1_555 1_555
N4A H4A 1_555 1_555
H5A N4A 1_555 1_555
C1A N2A 1_555 1_555
H6A C1A 1_555 1_555
C2A N1A 1_555 1_555
H7A C2A 1_555 1_555
C3A C4A 1_555 1_555
C4A C5A 1_555 1_555
C5A C6A 1_555 1_555
C6A H8A 1_555 1_555
C7A C6A 1_555 1_555
H9A C7A 1_555 1_555
C8A C3A 1_555 1_555
H10A C8A 1_555 1_555
C9A C3A 1_555 1_555
C10A C4A 1_555 1_555
N5A C5A 1_555 1_555
O7A N5A 1_555 1_555
O8A N5A 1_555 1_555
Cu2_2 O3A 1_555 1_555
Cu2A_2 O3 1_555 1_555
O3_2 Cu2A 1_555 1_555
O3A_2 Cu2 1_555 1_555
N1 N2 1_555 1_555
N3 C1 1_555 1_555
N3 C2 1_555 1_555
C7 C8 1_555 1_555
Cu2A O6A 1_555 1_555
N1A N2A 1_555 1_555
N3A C1A 1_555 1_555
N3A C2A 1_555 1_555
C7A C8A 1_555 1_555
Cu2_2 O3_2 1_555 1_555
Cu2A_2 O3A_2 1_555 1_555

#END
