
#######################################################################
#
#                 Cambridge Crystallographic Data Centre
#                                CCDC 
#
#######################################################################
#
# If this CIF has been generated from an entry in the Cambridge 
# Structural Database, then it will include bibliographic, chemical, 
# crystal, experimental, refinement or atomic coordinate data resulting 
# from the CCDC's data processing and validation procedures.
#
#######################################################################

data_WODRIS
_symmetry_cell_setting           triclinic
_symmetry_space_group_name_H-M   'P -1'
_symmetry_Int_Tables_number      2
_space_group_name_Hall           '-P 1'
loop_
_symmetry_equiv_pos_site_id
_symmetry_equiv_pos_as_xyz
1 x,y,z
2 -x,-y,-z
_cell_length_a                   7.5532(7)
_cell_length_b                   9.5631(9)
_cell_length_c                   10.5269(10)
_cell_angle_alpha                102.7200(10)
_cell_angle_beta                 97.546(2)
_cell_angle_gamma                93.1570(10)
_cell_volume                     732.516
loop_
_atom_site_label
_atom_site_type_symbol
_atom_site_fract_x
_atom_site_fract_y
_atom_site_fract_z
Cu1 Cu 0.5000 1.0000 0.5000
O1 O 0.6453(4) 0.8461(3) 0.5123(3)
H1 H 0.7623 0.8710 0.5549
N1 N 0.3061(4) 0.8462(3) 0.4028(3)
C1 C 0.1996(5) 0.6284(4) 0.3090(4)
H2 H 0.1869 0.5287 0.2805
Cu2 Cu 0.57514(6) 0.64548(4) 0.44581(4)
O2 O 0.6068(6) 0.4478(3) 0.1869(3)
N2 N 0.3404(4) 0.7038(3) 0.3822(3)
C2 C 0.1455(5) 0.8505(4) 0.3410(4)
H3 H 0.0883 0.9338 0.3389
O3 O 0.8198(4) 0.5971(3) 0.4657(3)
H4 H 0.8644 0.5523 0.3999
H5 H 0.9026 0.6553 0.5156
O4 O 0.5041(3) 0.4357(2) 0.3714(2)
N3 N 0.0761(4) 0.7171(3) 0.2815(3)
C3 C 0.5509(5) 0.3793(4) 0.2605(4)
O5 O 0.2311(6) 0.3327(4) 0.1323(5)
N4 N -0.0912(4) 0.6822(4) 0.1999(4)
H6 H -0.1568 0.7494 0.1855
H7 H -0.1278 0.5937 0.1646
C4 C 0.5366(5) 0.2148(4) 0.2232(3)
O6 O 0.0859(6) 0.1368(5) 0.0643(7)
N5 N 0.2205(5) 0.2057(4) 0.1167(4)
C5 C 0.3783(5) 0.1341(4) 0.1556(4)
O7 O 0.8890(4) 0.3390(4) 0.3552(5)
C6 C 0.3601(6) -0.0149(4) 0.1200(4)
H8 H 0.2524 -0.0641 0.0751
O8 O 0.9760(5) 0.1282(4) 0.3591(5)
C7 C 0.5035(6) -0.0884(4) 0.1522(4)
H9 H 0.4944 -0.1884 0.1292
C8 C 0.6619(6) -0.0130(4) 0.2192(4)
H10 H 0.7585 -0.0637 0.2411
C9 C 0.6812(5) 0.1367(4) 0.2548(4)
C10 C 0.8628(5) 0.2058(4) 0.3294(4)
O1A O 0.3547(4) 0.1539(3) 0.4877(3)
H1A H 0.2377 0.1290 0.4451
N1A N 0.6939(4) 0.1538(3) 0.5972(3)
C1A C 0.8004(5) 0.3716(4) 0.6910(4)
H2A H 0.8131 0.4713 0.7195
Cu2A Cu 0.42486(6) 0.35452(4) 0.55419(4)
O2A O 0.3932(6) 0.5522(3) 0.8131(3)
N2A N 0.6596(4) 0.2962(3) 0.6178(3)
C2A C 0.8545(5) 0.1495(4) 0.6590(4)
H3A H 0.9117 0.0662 0.6611
O3A O 0.1802(4) 0.4029(3) 0.5343(3)
H4A H 0.1356 0.4477 0.6001
H5A H 0.0974 0.3447 0.4844
O4A O 0.4959(3) 0.5643(2) 0.6286(2)
N3A N 0.9239(4) 0.2829(3) 0.7185(3)
C3A C 0.4491(5) 0.6207(4) 0.7395(4)
O5A O 0.7689(6) 0.6673(4) 0.8677(5)
N4A N 1.0912(4) 0.3178(4) 0.8001(4)
H6A H 1.1568 0.2506 0.8145
H7A H 1.1278 0.4063 0.8354
C4A C 0.4634(5) 0.7852(4) 0.7768(3)
O6A O 0.9141(6) 0.8632(5) 0.9357(7)
N5A N 0.7795(5) 0.7943(4) 0.8833(4)
C5A C 0.6217(5) 0.8659(4) 0.8444(4)
O7A O 0.1110(4) 0.6610(4) 0.6448(5)
C6A C 0.6399(6) 1.0149(4) 0.8800(4)
H8A H 0.7476 1.0641 0.9249
O8A O 0.0240(5) 0.8718(4) 0.6409(5)
C7A C 0.4965(6) 1.0884(4) 0.8478(4)
H9A H 0.5056 1.1884 0.8708
C8A C 0.3381(6) 1.0130(4) 0.7808(4)
H10A H 0.2415 1.0637 0.7589
C9A C 0.3188(5) 0.8633(4) 0.7452(4)
C10A C 0.1372(5) 0.7942(4) 0.6706(4)
Cu1_2 Cu 0.5000 0.0000 0.5000
O1A_2 O 0.3547(4) 1.1539(3) 0.4877(3)
N1A_2 N 0.6939(4) 1.1538(3) 0.5972(3)
O9 O 0.1867(9) 0.6309(6) 0.0084(6)
H11 H 0.2568 0.6632 -0.0382
H12 H 0.0933 0.6741 0.0050
loop_
_geom_bond_atom_site_label_1
_geom_bond_atom_site_label_2
_geom_bond_site_symmetry_1
_geom_bond_site_symmetry_2
Cu1 O1 1_555 1_555
O1 H1 1_555 1_555
N1 Cu1 1_555 1_555
C1 H2 1_555 1_555
Cu2 O1 1_555 1_555
O2 C3 1_555 1_555
N2 N1 1_555 1_555
C2 N1 1_555 1_555
H3 C2 1_555 1_555
O3 Cu2 1_555 1_555
H4 O3 1_555 1_555
H5 O3 1_555 1_555
O4 Cu2 1_555 1_555
N3 C1 1_555 1_555
C3 O4 1_555 1_555
O5 N5 1_555 1_555
N4 N3 1_555 1_555
H6 N4 1_555 1_555
H7 N4 1_555 1_555
C4 C3 1_555 1_555
O6 N5 1_555 1_555
N5 C5 1_555 1_555
C5 C4 1_555 1_555
O7 C10 1_555 1_555
C6 C5 1_555 1_555
H8 C6 1_555 1_555
O8 C10 1_555 1_555
C7 C6 1_555 1_555
H9 C7 1_555 1_555
C8 C7 1_555 1_555
H10 C8 1_555 1_555
C9 C4 1_555 1_555
C10 C9 1_555 1_555
O9 H11 1_555 1_555
H12 O9 1_555 1_555
O1A H1A 1_555 1_555
N1A N2A 1_555 1_555
C1A H2A 1_555 1_555
Cu2A O4 1_555 1_555
O2A C3A 1_555 1_555
N2A C1A 1_555 1_555
C2A N1A 1_555 1_555
H3A C2A 1_555 1_555
O3A Cu2A 1_555 1_555
H4A O3A 1_555 1_555
H5A O3A 1_555 1_555
O4A Cu2 1_555 1_555
N3A C1A 1_555 1_555
C3A O4A 1_555 1_555
O5A N5A 1_555 1_555
N4A N3A 1_555 1_555
H6A N4A 1_555 1_555
H7A N4A 1_555 1_555
C4A C3A 1_555 1_555
O6A N5A 1_555 1_555
N5A C5A 1_555 1_555
C5A C4A 1_555 1_555
O7A C10A 1_555 1_555
C6A C5A 1_555 1_555
H8A C6A 1_555 1_555
O8A C10A 1_555 1_555
C7A C6A 1_555 1_555
H9A C7A 1_555 1_555
C8A C7A 1_555 1_555
H10A C8A 1_555 1_555
C9A C4A 1_555 1_555
C10A C9A 1_555 1_555
Cu1_2 O1A 1_555 1_555
O1A_2 Cu1 1_555 1_555
N1A_2 Cu1 1_555 1_555
C1 N2 1_555 1_555
Cu2 N2 1_555 1_555
C2 N3 1_555 1_555
C8 C9 1_555 1_555
O1A Cu2A 1_555 1_555
N1A Cu1_2 1_555 1_555
Cu2A N2A 1_555 1_555
Cu2A O4A 1_555 1_555
C2A N3A 1_555 1_555
C8A C9A 1_555 1_555

#END
