
#######################################################################
#
#                 Cambridge Crystallographic Data Centre
#                                CCDC 
#
#######################################################################
#
# If this CIF has been generated from an entry in the Cambridge 
# Structural Database, then it will include bibliographic, chemical, 
# crystal, experimental, refinement or atomic coordinate data resulting 
# from the CCDC's data processing and validation procedures.
#
#######################################################################

data_WODRUE
_symmetry_cell_setting           monoclinic
_symmetry_space_group_name_H-M   'P 21/c'
_symmetry_Int_Tables_number      14
_space_group_name_Hall           '-P 2ybc'
loop_
_symmetry_equiv_pos_site_id
_symmetry_equiv_pos_as_xyz
1 x,y,z
2 -x,1/2+y,1/2-z
3 -x,-y,-z
4 x,1/2-y,1/2+z
_cell_length_a                   7.282(2)
_cell_length_b                   12.618(4)
_cell_length_c                   16.961(5)
_cell_angle_alpha                90
_cell_angle_beta                 108.556(6)
_cell_angle_gamma                90
_cell_volume                     1477.43
loop_
_atom_site_label
_atom_site_type_symbol
_atom_site_fract_x
_atom_site_fract_y
_atom_site_fract_z
Cu1 Cu -0.27404(13) -0.50508(6) -0.43047(5)
O1 O -0.3657(7) -0.3038(4) -0.3294(3)
N1 N -0.3026(9) -0.6460(4) -0.3758(3)
C1 C -0.2434(11) -0.6850(6) -0.3004(5)
H1 H -0.1695 -0.6487 -0.2532
Cu2 Cu -0.49976(13) -0.28779(7) -0.44942(5)
O2 O -0.1719(7) -0.4454(4) -0.3180(3)
N2 N -0.4039(8) -0.7274(4) -0.4277(3)
C2 C -0.4037(10) -0.8097(6) -0.3802(4)
H2 H -0.4624 -0.8746 -0.3985
O3 O 0.2620(8) -0.2773(4) 0.0964(3)
N3 N -0.3057(9) -0.7853(4) -0.3016(4)
C3 C -0.1583(11) -0.1254(6) -0.0482(5)
O4 O -0.0128(7) -0.3272(4) 0.1134(3)
N4 N -0.2750(10) -0.8595(5) -0.2348(4)
H3 H -0.3207 -0.9227 -0.2447
H4 H -0.2110 -0.8409 -0.1849
C4 C -0.1127(10) -0.2322(5) -0.0776(4)
O5 O -0.1923(7) -0.1222(4) 0.0215(3)
C5 C 0.0001(9) -0.3111(5) -0.0255(4)
O6 O -0.1629(11) -0.0485(4) -0.0940(4)
C6 C 0.0870(11) -0.3008(5) 0.0679(4)
O7 O -0.3830(7) -0.1449(4) -0.4436(3)
H5 H -0.3956 -0.1083 -0.4905
H6 H -0.3170 -0.1168 -0.3939
C7 C -0.2352(10) -0.3666(6) -0.2893(4)
O8 O -0.6017(8) -0.4289(4) -0.4642(3)
H7 H -0.5920 -0.4668 -0.4181
C8 C -0.1479(10) -0.3459(5) -0.1974(4)
C9 C -0.1859(10) -0.2521(6) -0.1630(4)
H8 H -0.2624 -0.2010 -0.1978
C10 C -0.0308(10) -0.4213(6) -0.1453(4)
H9 H -0.0017 -0.4842 -0.1674
C11 C 0.0430(10) -0.4027(6) -0.0599(4)
H10 H 0.1227 -0.4532 -0.0257
Cu1B Cu -0.72596(13) -0.49492(6) -0.56953(5)
Cu1C Cu -0.27404(13) 0.00508(6) 0.06953(5)
Cu2B Cu -0.50024(13) -0.71221(7) -0.55058(5)
Cu2C Cu -0.49976(13) -0.21221(7) 0.05058(5)
Cu2C_2 Cu 0.50024(13) -0.21221(7) 0.05058(5)
N2B N -0.5961(8) -0.2726(4) -0.5723(3)
O3C O -0.7380(8) -0.2227(4) -0.4036(3)
O5C O -0.1923(7) -0.3778(4) -0.4785(3)
O8B O -0.3983(8) -0.5711(4) -0.5358(3)
O9 O 0.5070(10) -0.0403(5) -0.3255(4)
H11 H 0.5315 -0.0847 -0.2857
H12 H 0.3854 -0.0408 -0.3498
loop_
_geom_bond_atom_site_label_1
_geom_bond_atom_site_label_2
_geom_bond_site_symmetry_1
_geom_bond_site_symmetry_2
Cu1 N1 1_555 1_555
O1 Cu2 1_555 1_555
N1 C1 1_555 1_555
C1 H1 1_555 1_555
Cu2 O7 1_555 1_555
O2 Cu1 1_555 1_555
N2 N1 1_555 1_555
C2 N2 1_555 1_555
H2 C2 1_555 1_555
O3 C6 1_555 1_555
N3 C1 1_555 1_555
C3 C4 1_555 1_555
O4 C6 1_555 1_555
N4 N3 1_555 1_555
H3 N4 1_555 1_555
H4 N4 1_555 1_555
C4 C5 1_555 1_555
O5 C3 1_555 1_555
C5 C6 1_555 1_555
O6 C3 1_555 1_555
O7 H5 1_555 1_555
H6 O7 1_555 1_555
C7 O1 1_555 1_555
O8 Cu1 1_555 1_555
H7 O8 1_555 1_555
C8 C7 1_555 1_555
C9 C4 1_555 1_555
H8 C9 1_555 1_555
C10 C8 1_555 1_555
H9 C10 1_555 1_555
C11 C5 1_555 1_555
H10 C11 1_555 1_555
O9 H11 1_555 1_555
H12 O9 1_555 1_555
Cu1B O8 1_555 1_555
Cu1C O5 1_555 1_555
Cu2B N2 1_555 1_555
Cu2C O5 1_555 1_555
Cu2C_2 O3 1_555 1_555
N2B Cu2 1_555 1_555
O3C Cu2 1_555 1_555
O5C Cu1 1_555 1_555
O8B Cu1 1_555 1_555
Cu2 O8 1_555 1_555
Cu2 O5C 1_555 1_555
O2 C7 1_555 1_555
C2 N3 1_555 1_555
C8 C9 1_555 1_555
C10 C11 1_555 1_555
Cu1B O8B 1_555 1_555
Cu2B O8B 1_555 1_555

#END
