
#######################################################################
#
#                 Cambridge Crystallographic Data Centre
#                                CCDC 
#
#######################################################################
#
# If this CIF has been generated from an entry in the Cambridge 
# Structural Database, then it will include bibliographic, chemical, 
# crystal, experimental, refinement or atomic coordinate data resulting 
# from the CCDC's data processing and validation procedures.
#
#######################################################################

data_WODROX
_symmetry_cell_setting           monoclinic
_symmetry_space_group_name_H-M   'P 21/c'
_symmetry_Int_Tables_number      14
_space_group_name_Hall           '-P 2ybc'
loop_
_symmetry_equiv_pos_site_id
_symmetry_equiv_pos_as_xyz
1 x,y,z
2 -x,1/2+y,1/2-z
3 -x,-y,-z
4 x,1/2-y,1/2+z
_cell_length_a                   10.641(5)
_cell_length_b                   17.603(7)
_cell_length_c                   13.776(4)
_cell_angle_alpha                90
_cell_angle_beta                 129.64(2)
_cell_angle_gamma                90
_cell_volume                     1987.11
loop_
_atom_site_label
_atom_site_type_symbol
_atom_site_fract_x
_atom_site_fract_y
_atom_site_fract_z
Cu1 Cu 0.53477(12) 0.10125(5) 0.31460(9)
N1 N 0.6968(8) 0.0193(4) 0.4221(6)
N2 N 0.5576(8) 0.1146(4) 0.4711(6)
O1 O 0.3675(7) 0.1778(3) 0.2236(5)
O2 O 0.1728(7) 0.0914(3) 0.1484(5)
O3 O 0.5803(8) 0.3459(3) 0.6138(5)
O4 O 0.4757(7) 0.4380(3) 0.6568(5)
O5 O 0.7261(9) 0.1887(5) 0.3627(8)
C1 C 0.1061(10) 0.2699(4) 0.1996(7)
C2 C -0.0141(11) 0.2615(5) 0.2117(7)
H3 H -0.0979 0.2267 0.1612
C3 C -0.0096(10) 0.3046(5) 0.2980(8)
H4 H -0.0888 0.2985 0.3067
C4 C 0.1131(11) 0.3564(5) 0.3701(8)
H5 H 0.1139 0.3859 0.4265
C5 C 0.2375(11) 0.3674(4) 0.3635(7)
C6 C 0.2307(10) 0.3217(4) 0.2770(7)
H6 H 0.3128 0.3262 0.2713
C7 C 0.0957(10) 0.2230(4) 0.1014(7)
H7 H -0.0134 0.2021 0.0415
H8 H 0.1150 0.2558 0.0555
C8 C 0.2195(11) 0.1582(5) 0.1614(7)
C9 C 0.3711(10) 0.4241(4) 0.4458(7)
H9 H 0.3229 0.4725 0.4399
H10 H 0.4307 0.4314 0.4151
C10 C 0.4888(11) 0.4001(5) 0.5821(8)
C11 C 0.4760(11) 0.1666(4) 0.4844(8)
H11 H 0.4114 0.2025 0.4213
C12 C 0.4867(12) 0.1677(5) 0.5908(9)
H12 H 0.4280 0.2032 0.5976
C13 C 0.5829(12) 0.1167(5) 0.6834(9)
H13 H 0.5910 0.1168 0.7547
C14 C 0.6702(11) 0.0641(5) 0.6720(8)
H14 H 0.7371 0.0286 0.7351
C15 C 0.6550(10) 0.0658(5) 0.5632(7)
C16 C 0.7455(10) 0.0149(4) 0.5421(7)
C17 C 0.8672(11) -0.0343(5) 0.6309(8)
H15 H 0.8986 -0.0368 0.7112
C18 C 0.9430(12) -0.0806(5) 0.5985(9)
H16 H 1.0252 -0.1141 0.6571
C19 C 0.8952(11) -0.0758(5) 0.4807(8)
H17 H 0.9434 -0.1062 0.4573
C20 C 0.7749(11) -0.0256(5) 0.3976(8)
H18 H 0.7451 -0.0223 0.3179
H19 H 0.725(10) 0.224(4) 0.378(8)
H21 H 0.674(11) 0.192(5) 0.278(9)
Cu1C Cu 0.53477(12) 0.39875(5) 0.81460(9)
O4C O 0.4757(7) 0.0620(3) 0.1568(5)
O6 O 0.6495(7) 0.3216(3) 0.4440(5)
H1 H 0.7280 0.3440 0.4544
H2 H 0.5948 0.3446 0.4604
O7 O 0.8435(13) 0.4470(5) 0.4971(9)
H20 H 0.964(18) 0.438(8) 0.552(13)
H22 H 0.822(12) 0.481(5) 0.471(9)
loop_
_geom_bond_atom_site_label_1
_geom_bond_atom_site_label_2
_geom_bond_site_symmetry_1
_geom_bond_site_symmetry_2
Cu1 N1 1_555 1_555
N1 C16 1_555 1_555
N2 Cu1 1_555 1_555
O1 Cu1 1_555 1_555
O2 C8 1_555 1_555
O3 C10 1_555 1_555
O4 C10 1_555 1_555
O5 Cu1 1_555 1_555
O6 H1 1_555 1_555
H2 O6 1_555 1_555
O7 H20 1_555 1_555
C1 C2 1_555 1_555
C2 H3 1_555 1_555
C3 C2 1_555 1_555
H4 C3 1_555 1_555
C4 C3 1_555 1_555
H5 C4 1_555 1_555
C5 C4 1_555 1_555
C6 C1 1_555 1_555
H6 C6 1_555 1_555
C7 C1 1_555 1_555
H7 C7 1_555 1_555
H8 C7 1_555 1_555
C8 O1 1_555 1_555
C9 C5 1_555 1_555
H9 C9 1_555 1_555
H10 C9 1_555 1_555
C10 C9 1_555 1_555
C11 N2 1_555 1_555
H11 C11 1_555 1_555
C12 C11 1_555 1_555
H12 C12 1_555 1_555
C13 C12 1_555 1_555
H13 C13 1_555 1_555
C14 C13 1_555 1_555
H14 C14 1_555 1_555
C15 N2 1_555 1_555
C16 C15 1_555 1_555
C17 C16 1_555 1_555
H15 C17 1_555 1_555
C18 C17 1_555 1_555
H16 C18 1_555 1_555
C19 C18 1_555 1_555
H17 C19 1_555 1_555
C20 N1 1_555 1_555
H18 C20 1_555 1_555
H19 O5 1_555 1_555
H21 O5 1_555 1_555
H22 O7 1_555 1_555
Cu1C O4 1_555 1_555
O4C Cu1 1_555 1_555
C5 C6 1_555 1_555
C7 C8 1_555 1_555
C14 C15 1_555 1_555
C19 C20 1_555 1_555

#END
