
#######################################################################
#
#                 Cambridge Crystallographic Data Centre
#                                CCDC 
#
#######################################################################
#
# If this CIF has been generated from an entry in the Cambridge 
# Structural Database, then it will include bibliographic, chemical, 
# crystal, experimental, refinement or atomic coordinate data resulting 
# from the CCDC's data processing and validation procedures.
#
#######################################################################

data_WODSEP
_symmetry_cell_setting           monoclinic
_symmetry_space_group_name_H-M   'P 21/c'
_symmetry_Int_Tables_number      14
_space_group_name_Hall           '-P 2ybc'
loop_
_symmetry_equiv_pos_site_id
_symmetry_equiv_pos_as_xyz
1 x,y,z
2 -x,1/2+y,1/2-z
3 -x,-y,-z
4 x,1/2-y,1/2+z
_cell_length_a                   12.7615(14)
_cell_length_b                   13.9194(15)
_cell_length_c                   8.8326(10)
_cell_angle_alpha                90
_cell_angle_beta                 106.060(2)
_cell_angle_gamma                90
_cell_volume                     1507.72
loop_
_atom_site_label
_atom_site_type_symbol
_atom_site_fract_x
_atom_site_fract_y
_atom_site_fract_z
Cu1 Cu 0.0000 0.5000 0.5000
O1 O -0.07749(17) 0.61968(13) 0.4544(3)
O2 O -0.0123(2) 0.69687(15) 0.6836(3)
O3 O -0.3822(2) 0.7673(2) 0.0578(3)
O4 O -0.4323(2) 0.91143(18) 0.0968(3)
O5 O -0.1535(2) 1.11922(15) 0.4661(3)
O6 O -0.0630(2) 1.04303(15) 0.6846(3)
O7 O 0.3815(2) 0.79398(16) 0.6341(3)
N1 N 0.13596(19) 0.56597(17) 0.4814(3)
N2 N 0.2381(2) 0.52262(19) 0.5305(4)
N3 N -0.3707(2) 0.8420(2) 0.1324(4)
N4 N 0.2997(2) 0.74584(18) 0.3845(3)
H1 H 0.2867 0.7578 0.2855
N5 N 0.2545(2) 0.66517(18) 0.4361(3)
C1 C 0.4098(3) 0.8892(2) 0.4213(4)
H2 H 0.4481 0.8642 0.3489
H3 H 0.3491 0.9274 0.3604
C2 C 0.4863(3) 0.9540(2) 0.5387(4)
H4 H 0.5532 0.9194 0.5870
H5 H 0.4530 0.9712 0.6212
C3 C 0.3651(3) 0.8055(2) 0.4933(4)
C4 C 0.1483(3) 0.6510(2) 0.4248(4)
H6 H 0.0925 0.6946 0.3835
C5 C -0.1091(3) 0.8668(2) 0.5426(4)
H7 H -0.0541 0.8717 0.6367
C6 C 0.3069(3) 0.5843(2) 0.5015(4)
H8 H 0.3816 0.5742 0.5227
C7 C -0.1632(3) 0.9483(2) 0.4740(4)
C8 C -0.2211(3) 0.7691(2) 0.3360(4)
H9 H -0.2399 0.7098 0.2877
C9 C -0.0701(3) 0.6913(2) 0.5442(4)
C10 C -0.2767(3) 0.8508(2) 0.2743(4)
C11 C -0.2494(3) 0.9410(2) 0.3394(4)
H10 H -0.2879 0.9953 0.2937
C12 C -0.1275(3) 1.0464(2) 0.5408(4)
C13 C -0.1355(2) 0.7776(2) 0.4732(4)
O7B O 0.6185(2) 1.20602(16) 0.3659(3)
N1B N 0.86404(19) 1.43403(17) 0.5186(3)
N2B N 0.7619(2) 1.47738(19) 0.4695(4)
N4B N 0.7003(2) 1.25416(18) 0.6155(3)
H1B H 0.7133 1.2422 0.7145
N5B N 0.7455(2) 1.33483(18) 0.5639(3)
C1B C 0.5902(3) 1.1108(2) 0.5787(4)
H2B H 0.5519 1.1358 0.6511
H3B H 0.6509 1.0726 0.6396
C2B C 0.5137(3) 1.0460(2) 0.4613(4)
H4B H 0.4468 1.0806 0.4130
H5B H 0.5470 1.0288 0.3788
C3B C 0.6349(3) 1.1945(2) 0.5067(4)
C4B C 0.8517(3) 1.3490(2) 0.5752(4)
H6B H 0.9075 1.3054 0.6165
C6B C 0.6931(3) 1.4157(2) 0.4985(4)
H8B H 0.6184 1.4258 0.4773
O1B O 0.07749(17) 0.38032(13) 0.5456(3)
O2B O 0.0123(2) 0.30313(15) 0.3164(3)
O3B O 0.3822(2) 0.2327(2) 0.9422(3)
O4B O 0.4323(2) 0.08857(18) 0.9032(3)
O5B O 0.1535(2) -0.11922(15) 0.5339(3)
O6B O 0.0630(2) -0.04303(15) 0.3154(3)
N3B N 0.3707(2) 0.1580(2) 0.8676(4)
C5B C 0.1091(3) 0.1332(2) 0.4574(4)
H7B H 0.0541 0.1283 0.3633
C7B C 0.1632(3) 0.0517(2) 0.5260(4)
C8B C 0.2211(3) 0.2309(2) 0.6640(4)
H9B H 0.2399 0.2902 0.7123
C9B C 0.0701(3) 0.3087(2) 0.4558(4)
C10B C 0.2767(3) 0.1492(2) 0.7257(4)
C11B C 0.2494(3) 0.0590(2) 0.6606(4)
H10B H 0.2879 0.0047 0.7063
C12B C 0.1275(3) -0.0464(2) 0.4592(4)
C13B C 0.1355(2) 0.2224(2) 0.5268(4)
Cu1_2 Cu 1.0000 1.5000 0.5000
Cu1A Cu 0.0000 0.0000 0.0000
Cu1A_2 Cu 0.0000 1.0000 1.0000
O6A O 0.0630(2) 0.54303(15) 0.8154(3)
O6C O -0.0630(2) 0.45697(15) 0.1846(3)
N1B_2 N -0.13596(19) 0.43403(17) 0.5186(3)
loop_
_geom_bond_atom_site_label_1
_geom_bond_atom_site_label_2
_geom_bond_site_symmetry_1
_geom_bond_site_symmetry_2
Cu1 O1 1_555 1_555
O1 C9 1_555 1_555
O2 C9 1_555 1_555
O3 N3 1_555 1_555
O4 N3 1_555 1_555
O5 C12 1_555 1_555
O6 C12 1_555 1_555
O7 C3 1_555 1_555
N1 Cu1 1_555 1_555
N2 N1 1_555 1_555
N3 C10 1_555 1_555
N4 H1 1_555 1_555
N5 N4 1_555 1_555
C1 H2 1_555 1_555
H3 C1 1_555 1_555
C2 C1 1_555 1_555
H4 C2 1_555 1_555
H5 C2 1_555 1_555
C3 N4 1_555 1_555
C4 N1 1_555 1_555
H6 C4 1_555 1_555
C5 H7 1_555 1_555
C6 N2 1_555 1_555
H8 C6 1_555 1_555
C7 C5 1_555 1_555
C8 H9 1_555 1_555
C9 C13 1_555 1_555
C10 C8 1_555 1_555
C11 C7 1_555 1_555
H10 C11 1_555 1_555
C12 C7 1_555 1_555
C13 C5 1_555 1_555
O7B C3B 1_555 1_555
N1B N2B 1_555 1_555
N2B C6B 1_555 1_555
N4B H1B 1_555 1_555
N5B N4B 1_555 1_555
C1B H2B 1_555 1_555
H3B C1B 1_555 1_555
C2B C2 1_555 1_555
H4B C2B 1_555 1_555
H5B C2B 1_555 1_555
C3B N4B 1_555 1_555
C4B N1B 1_555 1_555
H6B C4B 1_555 1_555
C6B N5B 1_555 1_555
H8B C6B 1_555 1_555
O1B Cu1 1_555 1_555
O2B C9B 1_555 1_555
O3B N3B 1_555 1_555
O4B N3B 1_555 1_555
O5B C12B 1_555 1_555
O6B C12B 1_555 1_555
N3B C10B 1_555 1_555
C5B H7B 1_555 1_555
C7B C5B 1_555 1_555
C8B H9B 1_555 1_555
C9B O1B 1_555 1_555
C10B C8B 1_555 1_555
C11B C7B 1_555 1_555
H10B C11B 1_555 1_555
C12B C7B 1_555 1_555
C13B C5B 1_555 1_555
Cu1_2 N1B 1_555 1_555
Cu1A O6B 1_555 1_555
Cu1A_2 O6 1_555 1_555
O6A Cu1 1_555 1_555
O6C Cu1 1_555 1_555
N1B_2 Cu1 1_555 1_555
N5 C4 1_555 1_555
N5 C6 1_555 1_555
C1 C3 1_555 1_555
C8 C13 1_555 1_555
C10 C11 1_555 1_555
N5B C4B 1_555 1_555
C1B C2B 1_555 1_555
C1B C3B 1_555 1_555
C8B C13B 1_555 1_555
C9B C13B 1_555 1_555
C10B C11B 1_555 1_555

#END
