
#######################################################################
#
#                 Cambridge Crystallographic Data Centre
#                                CCDC 
#
#######################################################################
#
# If this CIF has been generated from an entry in the Cambridge 
# Structural Database, then it will include bibliographic, chemical, 
# crystal, experimental, refinement or atomic coordinate data resulting 
# from the CCDC's data processing and validation procedures.
#
#######################################################################

data_WODSEO
_symmetry_cell_setting           triclinic
_symmetry_space_group_name_H-M   'P -1'
_symmetry_Int_Tables_number      2
_space_group_name_Hall           '-P 1'
loop_
_symmetry_equiv_pos_site_id
_symmetry_equiv_pos_as_xyz
1 x,y,z
2 -x,-y,-z
_cell_length_a                   9.109(3)
_cell_length_b                   10.539(3)
_cell_length_c                   12.079(4)
_cell_angle_alpha                99.320(5)
_cell_angle_beta                 109.320(5)
_cell_angle_gamma                92.850(5)
_cell_volume                     1073.17
loop_
_atom_site_label
_atom_site_type_symbol
_atom_site_fract_x
_atom_site_fract_y
_atom_site_fract_z
Yb1 Yb -0.37010(3) -0.31996(2) 0.180230(18)
O1 O -0.3838(5) -0.2491(4) 0.0029(3)
O2 O -0.1629(5) -0.2000(4) 0.1536(3)
O3 O -0.4250(7) -0.1056(4) 0.2152(5)
O4 O -0.5075(5) -0.2319(4) 0.3118(4)
O5 O -0.3984(4) -0.5875(4) -0.0649(3)
O6 O -0.2525(4) -0.4859(4) 0.1170(3)
N1 N -0.1603(5) -0.2856(4) 0.3789(4)
N2 N -0.3971(5) -0.4828(4) 0.3019(4)
C1 C -0.0459(7) -0.1894(6) 0.4167(5)
H1 H -0.0405 -0.1348 0.3646
C2 C 0.0666(7) -0.1661(7) 0.5306(6)
H2 H 0.1437 -0.0962 0.5545
C3 C 0.0619(7) -0.2477(7) 0.6067(5)
H3 H 0.1376 -0.2350 0.6824
C4 C -0.0571(7) -0.3502(6) 0.5702(5)
C5 C -0.0690(8) -0.4412(7) 0.6443(5)
H4 H 0.0073 -0.4341 0.7193
C6 C -0.1879(8) -0.5363(7) 0.6078(6)
H5 H -0.1937 -0.5924 0.6586
C7 C -0.3058(7) -0.5528(6) 0.4918(5)
C8 C -0.4332(8) -0.6485(6) 0.4519(6)
H6 H -0.4465 -0.7032 0.5018
C9 C -0.5365(8) -0.6607(6) 0.3401(6)
H7 H -0.6223 -0.7236 0.3122
C10 C -0.5132(7) -0.5772(5) 0.2664(5)
H8 H -0.5831 -0.5889 0.1885
C11 C -0.2924(6) -0.4697(5) 0.4149(5)
C12 C -0.1675(6) -0.3662(6) 0.4547(5)
C13 C -0.2465(7) -0.1904(5) 0.0491(5)
C14 C -0.1868(7) -0.1114(6) -0.0231(5)
H9 H -0.1803 -0.1693 -0.0920
H10 H -0.2630 -0.0527 -0.0525
C15 C -0.0299(7) -0.0333(6) 0.0413(5)
H11 H 0.0382 -0.0318 -0.1051
H12 H -0.0453 0.0898 -0.0774
C16 C -0.4993(7) -0.1239(6) 0.2831(5)
C17 C -0.5766(9) -0.0140(6) 0.3283(5)
H13 H -0.5222 0.0669 0.3268
H14 H -0.6833 -0.0194 0.2738
C18 C -0.5801(7) -0.0102(6) 0.4534(5)
H15 H -0.3663 0.0910 0.5441
H16 H -0.3606 -0.0590 0.5280
C19 C -0.2742(6) -0.5668(5) 0.0223(4)
C20 C -0.1379(6) -0.6391(6) 0.0138(5)
H17 H -0.1647 -0.6893 -0.0663
H18 H -0.1180 -0.6987 0.0691
C21 C 0.0097(7) -0.5470(6) 0.0425(5)
H19 H 0.0375 -0.4986 0.1234
H20 H 0.0950 -0.5972 0.0390
Yb1A Yb -0.62990(3) -0.68004(2) -0.180230(18)
Yb1A_2 Yb -0.62990(3) 0.31996(2) 0.819770(18)
Yb1A_3 Yb 0.37010(3) 0.31996(2) -0.180230(18)
Yb1_2 Yb 0.62990(3) -0.31996(2) 0.180230(18)
Yb1A_4 Yb 0.37010(3) -0.68004(2) -0.180230(18)
O1A O 0.3838(5) 0.2491(4) -0.0029(3)
O2A O 0.1629(5) 0.2000(4) -0.1536(3)
O3A O -0.5750(7) 0.1056(4) 0.7848(5)
O3A_2 O 0.4250(7) 0.1056(4) -0.2152(5)
O4A O -0.4925(5) 0.2319(4) 0.6882(4)
O4A_2 O 0.5075(5) 0.2319(4) -0.3118(4)
O5A O -0.6016(4) -0.4125(4) 0.0649(3)
O5_2 O 0.6016(4) 0.4125(4) -0.0649(3)
O5A_2 O 0.3984(4) -0.4125(4) 0.0649(3)
O6A O 0.2525(4) 0.4859(4) -0.1170(3)
O6A_2 O 0.2525(4) -0.5141(4) -0.1170(3)
N1A N 0.1603(5) 0.2856(4) -0.3789(4)
N2A N 0.3971(5) 0.4828(4) -0.3019(4)
C1A C 0.0459(7) 0.1894(6) -0.4167(5)
H1A H 0.0405 0.1348 -0.3646
C2A C -0.0666(7) 0.1661(7) -0.5306(6)
H2A H -0.1437 0.0962 -0.5545
C3A C -0.0619(7) 0.2477(7) -0.6067(5)
H3A H -0.1376 0.2350 -0.6824
C4A C 0.0571(7) 0.3502(6) -0.5702(5)
C5A C 0.0690(8) 0.4412(7) -0.6443(5)
H4A H -0.0073 0.4341 -0.7193
C6A C 0.1879(8) 0.5363(7) -0.6078(6)
H5A H 0.1937 0.5924 -0.6586
C7A C 0.3058(7) 0.5528(6) -0.4918(5)
C8A C 0.4332(8) 0.6485(6) -0.4519(6)
H6A H 0.4465 0.7032 -0.5018
C9A C 0.5365(8) 0.6607(6) -0.3401(6)
H7A H 0.6223 0.7236 -0.3122
C10A C 0.5132(7) 0.5772(5) -0.2664(5)
H8A H 0.5831 0.5889 -0.1885
C11A C 0.2924(6) 0.4697(5) -0.4149(5)
C12A C 0.1675(6) 0.3662(6) -0.4547(5)
C13A C 0.2465(7) 0.1904(5) -0.0491(5)
C14A C 0.1868(7) 0.1114(6) 0.0231(5)
H9A H 0.1803 0.1693 0.0920
H10A H 0.2630 0.0527 0.0525
C15A C 0.0299(7) 0.0333(6) -0.0413(5)
H11A H -0.0382 0.0318 0.1051
H12A H 0.0453 -0.0898 0.0774
C16A C -0.5007(7) 0.1239(6) 0.7169(5)
C17A C -0.4234(9) 0.0140(6) 0.6717(5)
H13A H -0.4778 -0.0669 0.6732
H14A H -0.3167 0.0194 0.7262
C18A C -0.4199(7) 0.0102(6) 0.5466(5)
H15A H -0.6337 -0.0910 0.4559
H16A H -0.6394 0.0590 0.4720
C19A C 0.2742(6) -0.4332(5) -0.0223(4)
C20A C 0.1379(6) -0.3609(6) -0.0138(5)
H17A H 0.1647 -0.3107 0.0663
H18A H 0.1180 -0.3013 -0.0691
C21A C -0.0097(7) -0.4530(6) -0.0425(5)
H19A H -0.0375 -0.5014 -0.1234
H20A H -0.0950 -0.4028 -0.0390
O7 O -0.3481(6) -0.8667(5) -0.8610(5)
H21 H -0.4306 -0.8346 -0.8961
H22 H -0.3585 -0.9267 -0.8237
loop_
_geom_bond_atom_site_label_1
_geom_bond_atom_site_label_2
_geom_bond_site_symmetry_1
_geom_bond_site_symmetry_2
Yb1 O1 1_555 1_555
O1 C13 1_555 1_555
O2 Yb1 1_555 1_555
O3 Yb1 1_555 1_555
O4 Yb1 1_555 1_555
O5 C19 1_555 1_555
O6 Yb1 1_555 1_555
N1 Yb1 1_555 1_555
N2 Yb1 1_555 1_555
C1 N1 1_555 1_555
H1 C1 1_555 1_555
C2 C1 1_555 1_555
H2 C2 1_555 1_555
C3 C2 1_555 1_555
H3 C3 1_555 1_555
C4 C3 1_555 1_555
C5 C4 1_555 1_555
H4 C5 1_555 1_555
C6 C5 1_555 1_555
H5 C6 1_555 1_555
C7 C6 1_555 1_555
C8 C7 1_555 1_555
H6 C8 1_555 1_555
C9 C8 1_555 1_555
H7 C9 1_555 1_555
C10 N2 1_555 1_555
H8 C10 1_555 1_555
C11 N2 1_555 1_555
C12 N1 1_555 1_555
C13 O2 1_555 1_555
C14 C13 1_555 1_555
H9 C14 1_555 1_555
H10 C14 1_555 1_555
C15 C14 1_555 1_555
H11 C15A 1_555 1_555
H12 C15A 1_555 1_555
C16 O3 1_555 1_555
C17 C16 1_555 1_555
H13 C17 1_555 1_555
H14 C17 1_555 1_555
C18 C17 1_555 1_555
H15 C18A 1_555 1_555
H16 C18A 1_555 1_555
C19 O6 1_555 1_555
C20 C19 1_555 1_555
H17 C20 1_555 1_555
H18 C20 1_555 1_555
C21 C20 1_555 1_555
H19 C21 1_555 1_555
H20 C21 1_555 1_555
O7 H21 1_555 1_555
H22 O7 1_555 1_555
Yb1A O5 1_555 1_555
Yb1A_2 O3A 1_555 1_555
Yb1A_3 O1A 1_555 1_555
Yb1_2 O5A_2 1_555 1_555
Yb1A_4 O6A_2 1_555 1_555
O1A C13A 1_555 1_555
O2A Yb1A_3 1_555 1_555
O3A C16A 1_555 1_555
O3A_2 Yb1A_3 1_555 1_555
O4A Yb1A_2 1_555 1_555
O4A_2 Yb1A_3 1_555 1_555
O5A Yb1 1_555 1_555
O5_2 Yb1A_3 1_555 1_555
O5A_2 C19A 1_555 1_555
O6A Yb1A_3 1_555 1_555
O6A_2 C19A 1_555 1_555
N1A Yb1A_3 1_555 1_555
N2A Yb1A_3 1_555 1_555
C1A N1A 1_555 1_555
H1A C1A 1_555 1_555
C2A C1A 1_555 1_555
H2A C2A 1_555 1_555
C3A C2A 1_555 1_555
H3A C3A 1_555 1_555
C4A C3A 1_555 1_555
C5A C4A 1_555 1_555
H4A C5A 1_555 1_555
C6A C5A 1_555 1_555
H5A C6A 1_555 1_555
C7A C6A 1_555 1_555
C8A C7A 1_555 1_555
H6A C8A 1_555 1_555
C9A C8A 1_555 1_555
H7A C9A 1_555 1_555
C10A N2A 1_555 1_555
H8A C10A 1_555 1_555
C11A N2A 1_555 1_555
C12A N1A 1_555 1_555
C13A O2A 1_555 1_555
C14A C13A 1_555 1_555
H9A C14A 1_555 1_555
H10A C14A 1_555 1_555
C15A C15 1_555 1_555
H11A C15 1_555 1_555
H12A C15 1_555 1_555
C16A O4A 1_555 1_555
C17A C16A 1_555 1_555
H13A C17A 1_555 1_555
H14A C17A 1_555 1_555
C18A C18 1_555 1_555
H15A C18 1_555 1_555
H16A C18 1_555 1_555
C19A C20A 1_555 1_555
C20A H17A 1_555 1_555
H18A C20A 1_555 1_555
C21A C21 1_555 1_555
H19A C21A 1_555 1_555
H20A C21A 1_555 1_555
O4 C16 1_555 1_555
C4 C12 1_555 1_555
C7 C11 1_555 1_555
C9 C10 1_555 1_555
C11 C12 1_555 1_555
C4A C12A 1_555 1_555
C7A C11A 1_555 1_555
C9A C10A 1_555 1_555
C11A C12A 1_555 1_555
C14A C15A 1_555 1_555
C17A C18A 1_555 1_555
C20A C21A 1_555 1_555

#END
