
#######################################################################
#
#                 Cambridge Crystallographic Data Centre
#                                CCDC 
#
#######################################################################
#
# If this CIF has been generated from an entry in the Cambridge 
# Structural Database, then it will include bibliographic, chemical, 
# crystal, experimental, refinement or atomic coordinate data resulting 
# from the CCDC's data processing and validation procedures.
#
#######################################################################

data_WODTEQ
_symmetry_cell_setting           monoclinic
_symmetry_space_group_name_H-M   'C 2/c'
_symmetry_Int_Tables_number      15
_space_group_name_Hall           '-C 2yn'
loop_
_symmetry_equiv_pos_site_id
_symmetry_equiv_pos_as_xyz
1 x,y,z
2 -x,y,1/2-z
3 1/2+x,1/2+y,z
4 1/2-x,1/2+y,1/2-z
5 -x,-y,-z
6 x,-y,1/2+z
7 1/2-x,1/2-y,-z
8 1/2+x,1/2-y,1/2+z
_cell_length_a                   19.023(2)
_cell_length_b                   10.0825(12)
_cell_length_c                   26.407(3)
_cell_angle_alpha                90
_cell_angle_beta                 93.139(2)
_cell_angle_gamma                90
_cell_volume                     5057.25
loop_
_atom_site_label
_atom_site_type_symbol
_atom_site_fract_x
_atom_site_fract_y
_atom_site_fract_z
Cu1 Cu 0.05086(2) 0.41335(3) 0.641587(14)
O1 O 0.06388(12) 0.2831(2) 0.57001(8)
O2 O 0.04981(11) 0.2138(2) 0.64764(8)
O3 O 0.06158(12) -0.4133(2) 0.61265(8)
O4 O 0.03487(14) -0.2830(2) 0.67624(9)
O5 O 0.10366(15) -0.1306(2) 0.46695(9)
N1 N 0.15963(14) 0.3263(3) 0.85773(10)
N2 N 0.05352(13) 0.4097(2) 0.86739(9)
N3 N 0.14656(13) 0.4145(3) 0.67654(10)
N4 N 0.22711(14) 0.4375(3) 0.74066(10)
C1 C 0.05936(16) 0.1908(3) 0.60067(13)
C2 C 0.06605(17) 0.0506(3) 0.58349(12)
C3 C 0.08220(17) 0.0298(3) 0.53329(12)
H1 H 0.0888 0.1017 0.5120
C4 C 0.08837(18) -0.0980(3) 0.51519(12)
C5 C 0.07801(17) -0.2046(3) 0.54762(12)
H2 H 0.0819 -0.2908 0.5355
C6 C 0.06211(15) -0.1842(3) 0.59740(12)
C7 C 0.05600(16) -0.0551(3) 0.61555(12)
H3 H 0.0452 -0.0403 0.6490
C8 C 0.05153(16) -0.3006(3) 0.63244(13)
C9 C 0.1173(2) -0.0263(4) 0.43293(14)
H4 H 0.0776 0.0324 0.4303
H5 H 0.1254 -0.0626 0.4001
H6 H 0.1582 0.0219 0.4453
C10 C 0.21001(16) 0.3583(3) 0.66249(12)
C11 C 0.22653(18) 0.2964(3) 0.61808(13)
H7 H 0.1932 0.2868 0.5912
C12 C 0.29457(19) 0.2492(4) 0.61490(14)
H8 H 0.3069 0.2054 0.5857
C13 C 0.34515(19) 0.2664(4) 0.65509(14)
H9 H 0.3908 0.2358 0.6517
C14 C 0.32864(18) 0.3272(4) 0.69913(14)
H10 H 0.3619 0.3376 0.7260
C15 C 0.26031(17) 0.3728(3) 0.70218(13)
C16 C 0.16032(17) 0.4592(3) 0.72297(14)
H11 H 0.1270 0.5017 0.7417
C17 C 0.25757(19) 0.4720(4) 0.79100(14)
H12 H 0.2239 0.5250 0.8085
H13 H 0.2992 0.5259 0.7872
C18 C 0.27745(19) 0.3524(4) 0.82311(14)
H14 H 0.2985 0.3831 0.8553
H15 H 0.3131 0.3027 0.8063
C19 C 0.21738(18) 0.2588(4) 0.83363(14)
H16 H 0.1995 0.2195 0.8020
H17 H 0.2351 0.1877 0.8555
C20 C 0.09394(17) 0.3414(3) 0.83794(12)
H18 H 0.0784 0.3072 0.8066
C21 C 0.09627(17) 0.4417(3) 0.91025(12)
C22 C 0.08146(19) 0.5104(3) 0.95394(13)
H19 H 0.0373 0.5474 0.9580
C23 C 0.1350(2) 0.5214(4) 0.99104(14)
H20 H 0.1270 0.5682 1.0205
C24 C 0.2007(2) 0.4641(4) 0.98549(14)
H21 H 0.2348 0.4711 1.0119
C25 C 0.21668(19) 0.3981(4) 0.94252(13)
H22 H 0.2610 0.3615 0.9388
C26 C 0.16331(17) 0.3887(3) 0.90474(12)
Cu1_2 Cu 0.05086(2) -0.58665(3) 0.641587(14)
Cu1A Cu -0.05086(2) 0.41335(3) 0.858413(14)
O3_2 O 0.06158(12) 0.5867(2) 0.61265(8)
N2A N -0.05352(13) 0.4097(2) 0.63261(9)
O6 O 0.5000 0.4018(3) 0.7500
H23 H 0.4946 0.3505 0.7750
H23A H 0.5054 0.3505 0.7250
O7 O 0.40506(12) 0.6302(2) 0.75441(9)
H24 H 0.4340 0.5696 0.7473
H25 H 0.4215 0.6626 0.7823
O8 O 0.5000 0.0316(3) 0.7500
H26 H 0.5035 0.0877 0.7262
H26A H 0.4965 0.0877 0.7738
loop_
_geom_bond_atom_site_label_1
_geom_bond_atom_site_label_2
_geom_bond_site_symmetry_1
_geom_bond_site_symmetry_2
Cu1 O1 1_555 1_555
O1 C1 1_555 1_555
O2 Cu1 1_555 1_555
O3 C8 1_555 1_555
O4 C8 1_555 1_555
O5 C4 1_555 1_555
N1 C19 1_555 1_555
N2 C20 1_555 1_555
N3 Cu1 1_555 1_555
N4 C15 1_555 1_555
C1 O2 1_555 1_555
C2 C1 1_555 1_555
C3 C2 1_555 1_555
H1 C3 1_555 1_555
C4 C3 1_555 1_555
C5 C4 1_555 1_555
H2 C5 1_555 1_555
C6 C5 1_555 1_555
C7 C2 1_555 1_555
H3 C7 1_555 1_555
C8 C6 1_555 1_555
C9 O5 1_555 1_555
H4 C9 1_555 1_555
H5 C9 1_555 1_555
H6 C9 1_555 1_555
C10 N3 1_555 1_555
C11 C10 1_555 1_555
H7 C11 1_555 1_555
C12 C11 1_555 1_555
H8 C12 1_555 1_555
C13 C12 1_555 1_555
H9 C13 1_555 1_555
C14 C13 1_555 1_555
H10 C14 1_555 1_555
C15 C10 1_555 1_555
C16 N3 1_555 1_555
H11 C16 1_555 1_555
C17 N4 1_555 1_555
H12 C17 1_555 1_555
H13 C17 1_555 1_555
C18 C17 1_555 1_555
H14 C18 1_555 1_555
H15 C18 1_555 1_555
C19 C18 1_555 1_555
H16 C19 1_555 1_555
H17 C19 1_555 1_555
C20 N1 1_555 1_555
H18 C20 1_555 1_555
C21 N2 1_555 1_555
C22 C21 1_555 1_555
H19 C22 1_555 1_555
C23 C22 1_555 1_555
H20 C23 1_555 1_555
C24 C23 1_555 1_555
H21 C24 1_555 1_555
C25 C24 1_555 1_555
H22 C25 1_555 1_555
C26 N1 1_555 1_555
O6 H23 1_555 1_555
O7 H24 1_555 1_555
H25 O7 1_555 1_555
O8 H26 1_555 1_555
Cu1_2 O3 1_555 1_555
Cu1A N2 1_555 1_555
O3_2 Cu1 1_555 1_555
N2A Cu1 1_555 1_555
H23A O6 1_555 1_555
H26A O8 1_555 1_555
N4 C16 1_555 1_555
C6 C7 1_555 1_555
C14 C15 1_555 1_555
C21 C26 1_555 1_555
C25 C26 1_555 1_555

#END
