
#######################################################################
#
#                 Cambridge Crystallographic Data Centre
#                                CCDC 
#
#######################################################################
#
# If this CIF has been generated from an entry in the Cambridge 
# Structural Database, then it will include bibliographic, chemical, 
# crystal, experimental, refinement or atomic coordinate data resulting 
# from the CCDC's data processing and validation procedures.
#
#######################################################################

data_WODTOA
_symmetry_cell_setting           monoclinic
_symmetry_space_group_name_H-M   'P 21/c'
_symmetry_Int_Tables_number      14
_space_group_name_Hall           '-P 2ybc'
loop_
_symmetry_equiv_pos_site_id
_symmetry_equiv_pos_as_xyz
1 x,y,z
2 -x,1/2+y,1/2-z
3 -x,-y,-z
4 x,1/2-y,1/2+z
_cell_length_a                   18.061(5)
_cell_length_b                   13.769(4)
_cell_length_c                   19.799(4)
_cell_angle_alpha                90
_cell_angle_beta                 117.275(18)
_cell_angle_gamma                90
_cell_volume                     4376.23
loop_
_atom_site_label
_atom_site_type_symbol
_atom_site_fract_x
_atom_site_fract_y
_atom_site_fract_z
Cu1 Cu -0.10616(5) 0.80356(5) 0.19522(4)
Cu2 Cu 0.61182(5) 0.35221(5) 0.30390(4)
O1 O -0.1204(3) 0.7428(3) 0.3062(2)
O2 O -0.1040(2) 0.8927(3) 0.2756(2)
O3 O -0.0856(3) 0.6816(3) 0.5691(2)
O4 O -0.1128(2) 0.8017(3) 0.6270(2)
O5 O -0.1092(3) 1.1011(3) 0.4779(2)
O6 O 0.6177(3) 0.3559(3) 0.4546(3)
O7 O 0.6143(2) 0.2467(3) 0.3705(2)
O8 O 0.5843(3) 0.2443(3) 0.6805(2)
O9 O 0.6033(2) 0.0889(3) 0.7102(2)
O10 O 0.6241(3) -0.0776(3) 0.5008(2)
N1 N -0.3529(5) 0.8585(5) 0.0483(4)
N2 N -0.2260(4) 0.8235(6) 0.1325(4)
N3 N 0.0165(3) 0.7914(4) 0.2520(2)
N4 N 0.1425(3) 0.7297(4) 0.3046(3)
N5 N 0.3772(3) 0.4637(4) 0.2348(3)
N6 N 0.4945(3) 0.3823(4) 0.2737(3)
N7 N 0.7354(3) 0.3700(4) 0.3545(2)
N8 N 0.8615(3) 0.4183(4) 0.3827(3)
C1 C -0.1096(4) 0.8311(5) 0.3211(3)
C2 C -0.1081(3) 0.8702(4) 0.3930(3)
C3 C -0.1070(3) 0.8034(4) 0.4471(3)
H1 H -0.1074 0.7370 0.4385
C4 C -0.1053(3) 0.8379(5) 0.5131(3)
C5 C -0.1072(3) 0.9363(4) 0.5254(3)
H2 H -0.1088 0.9586 0.5690
C6 C -0.1066(3) 1.0031(4) 0.4714(3)
C7 C -0.1072(3) 0.9682(4) 0.4059(3)
H3 H -0.1070 1.0116 0.3700
C8 C -0.1020(4) 0.7685(5) 0.5734(4)
C9 C -0.1124(4) 1.1370(4) 0.5447(3)
H4 H -0.1657 1.1220 0.5418
H5 H -0.1043 1.2061 0.5479
H6 H -0.0693 1.1068 0.5890
C10 C 0.6159(4) 0.2721(5) 0.4328(4)
C11 C 0.6119(3) 0.1897(5) 0.4828(3)
C12 C 0.6014(3) 0.2096(4) 0.5469(3)
H7 H 0.5947 0.2736 0.5582
C13 C 0.6010(3) 0.1357(5) 0.5938(3)
C14 C 0.6080(4) 0.0416(4) 0.5753(3)
H8 H 0.6069 -0.0082 0.6066
C15 C 0.6167(4) 0.0188(5) 0.5123(4)
C16 C 0.6196(3) 0.0935(4) 0.4654(3)
H9 H 0.6266 0.0787 0.4228
C17 C 0.5940(3) 0.1588(5) 0.6645(3)
C18 C 0.6384(5) -0.1064(5) 0.4407(4)
H10 H 0.5936 -0.0842 0.3938
H11 H 0.6416 -0.1760 0.4400
H12 H 0.6899 -0.0790 0.4467
C19 C -0.2887(7) 0.7586(6) 0.1414(5)
H13 H -0.2747 0.7097 0.1776
C20 C -0.3604(7) 0.7787(7) 0.0948(6)
H14 H -0.4092 0.7498 0.0899
C21 C -0.2737(7) 0.8718(6) 0.0780(5)
C22 C -0.2390(6) 0.9507(5) 0.0431(5)
H15 H -0.1828 0.9664 0.0789
H16 H -0.2729 1.0080 0.0318
H17 H -0.2402 0.9261 -0.0027
C23 C -0.4275(5) 0.9038(5) -0.0089(4)
H18 H -0.4691 0.8544 -0.0355
H19 H -0.4149 0.9369 -0.0457
C24 C -0.4623(4) 0.9772(5) 0.0279(4)
H20 H -0.4740 0.9440 0.0652
H21 H -0.4207 1.0266 0.0542
C25 C 0.0743(4) 0.8648(5) 0.2695(3)
H22 H 0.0616 0.9305 0.2609
C26 C 0.1513(5) 0.8274(5) 0.3007(4)
H23 H 0.2009 0.8614 0.3165
C27 C 0.0608(4) 0.7091(5) 0.2744(3)
C28 C 0.0269(4) 0.6096(5) 0.2709(4)
H24 H 0.0420 0.5690 0.2398
H25 H -0.0327 0.6128 0.2494
H26 H 0.0494 0.5830 0.3213
C29 C 0.2100(4) 0.6569(5) 0.3266(3)
H27 H 0.1918 0.5958 0.3385
H28 H 0.2585 0.6789 0.3718
C30 C 0.2333(4) 0.6414(4) 0.2636(3)
H29 H 0.1835 0.6274 0.2168
H30 H 0.2577 0.7006 0.2560
C31 C 0.2937(4) 0.5601(4) 0.2806(3)
H31 H 0.2691 0.5008 0.2880
H32 H 0.3434 0.5739 0.3275
C32 C 0.3177(4) 0.5447(4) 0.2169(3)
H33 H 0.2681 0.5308 0.1699
H34 H 0.3425 0.6037 0.2097
C33 C 0.3583(4) 0.3685(5) 0.2320(4)
H35 H 0.3057 0.3418 0.2168
C34 C 0.4308(5) 0.3194(5) 0.2557(4)
H36 H 0.4360 0.2522 0.2591
C35 C 0.5056(4) 0.5630(4) 0.2713(4)
H37 H 0.5622 0.5541 0.3094
H38 H 0.4800 0.6129 0.2873
H39 H 0.5049 0.5818 0.2243
C36 C 0.7904(4) 0.2945(5) 0.3887(3)
H40 H 0.7762 0.2332 0.3988
C37 C 0.8687(4) 0.3245(5) 0.4053(3)
H41 H 0.9173 0.2879 0.4276
C38 C 0.7499(4) 0.5420(5) 0.3197(4)
H42 H 0.7432 0.5811 0.3566
H43 H 0.6972 0.5356 0.2752
H44 H 0.7891 0.5723 0.3063
C39 C 0.9327(4) 0.4801(5) 0.3913(3)
H45 H 0.9127 0.5278 0.3508
H46 H 0.9733 0.4397 0.3853
C40 C 0.9755(4) 0.5324(4) 0.4662(3)
H47 H 0.9337 0.5668 0.4750
H48 H 1.0129 0.5805 0.4629
C41 C 0.4589(4) 0.4706(5) 0.2602(3)
C42 C 0.7810(4) 0.4442(5) 0.3521(3)
N1B N -0.6471(5) 1.1415(5) -0.0483(4)
N2B N -0.7740(4) 1.1765(6) -0.1325(4)
C19B C -0.7113(7) 1.2414(6) -0.1414(5)
H13B H -0.7253 1.2903 -0.1776
C20B C -0.6396(7) 1.2213(7) -0.0948(6)
H14B H -0.5908 1.2502 -0.0899
C21B C -0.7263(7) 1.1282(6) -0.0780(5)
C22B C -0.7610(6) 1.0493(5) -0.0431(5)
H15B H -0.8172 1.0336 -0.0789
H16B H -0.7271 0.9920 -0.0318
H17B H -0.7598 1.0739 0.0027
C23B C -0.5725(5) 1.0962(5) 0.0089(4)
H18B H -0.5309 1.1456 0.0355
H19B H -0.5851 1.0631 0.0457
C24B C -0.5377(4) 1.0228(5) -0.0279(4)
H20B H -0.5260 1.0560 -0.0652
H21B H -0.5793 0.9734 -0.0542
N7B N 1.2646(3) 0.6300(4) 0.6455(2)
N8B N 1.1385(3) 0.5817(4) 0.6173(3)
C36B C 1.2096(4) 0.7055(5) 0.6113(3)
H40B H 1.2238 0.7668 0.6012
C37B C 1.1313(4) 0.6755(5) 0.5947(3)
H41B H 1.0827 0.7121 0.5724
C38B C 1.2501(4) 0.4580(5) 0.6803(4)
H42B H 1.2568 0.4189 0.6434
H43B H 1.3028 0.4644 0.7248
H44B H 1.2109 0.4277 0.6937
C39B C 1.0673(4) 0.5199(5) 0.6087(3)
H45B H 1.0873 0.4722 0.6492
H46B H 1.0267 0.5603 0.6147
C40B C 1.0245(4) 0.4676(4) 0.5338(3)
H47B H 1.0663 0.4332 0.5250
H48B H 0.9871 0.4195 0.5371
C42B C 1.2190(4) 0.5558(5) 0.6479(3)
Cu1B Cu -0.89384(5) 1.19644(5) -0.19522(4)
Cu2B Cu -1.61182(5) 1.64779(5) -0.30390(4)
O1B O -0.8796(3) 1.2572(3) -0.3062(2)
O2B O -0.8960(2) 1.1073(3) -0.2756(2)
O3B O -0.9144(3) 1.3184(3) -0.5691(2)
O4B O -0.8872(2) 1.1983(3) -0.6270(2)
O5B O -0.8908(3) 0.8989(3) -0.4779(2)
O6B O -1.6177(3) 1.6441(3) -0.4546(3)
O7B O -1.6143(2) 1.7533(3) -0.3705(2)
O8B O -1.5843(3) 1.7557(3) -0.6805(2)
O9B O -1.6033(2) 1.9111(3) -0.7102(2)
O10B O -1.6241(3) 2.0776(3) -0.5008(2)
N3B N -1.0165(3) 1.2086(4) -0.2520(2)
N4B N -1.1425(3) 1.2703(4) -0.3046(3)
N5B N -1.3772(3) 1.5363(4) -0.2348(3)
N6B N -1.4945(3) 1.6177(4) -0.2737(3)
C1B C -0.8904(4) 1.1689(5) -0.3211(3)
C2B C -0.8919(3) 1.1298(4) -0.3930(3)
C3B C -0.8930(3) 1.1966(4) -0.4471(3)
H1B H -0.8926 1.2630 -0.4385
C4B C -0.8947(3) 1.1621(5) -0.5131(3)
C5B C -0.8928(3) 1.0637(4) -0.5254(3)
H2B H -0.8912 1.0414 -0.5690
C6B C -0.8934(3) 0.9969(4) -0.4714(3)
C7B C -0.8928(3) 1.0318(4) -0.4059(3)
H3B H -0.8930 0.9884 -0.3700
C8B C -0.8980(4) 1.2315(5) -0.5734(4)
C9B C -0.8876(4) 0.8630(4) -0.5447(3)
H4B H -0.8343 0.8780 -0.5418
H5B H -0.8957 0.7939 -0.5479
H6B H -0.9307 0.8932 -0.5890
C10B C -1.6159(4) 1.7279(5) -0.4328(4)
C11B C -1.6119(3) 1.8103(5) -0.4828(3)
C12B C -1.6014(3) 1.7904(4) -0.5469(3)
H7B H -1.5947 1.7264 -0.5582
C13B C -1.6010(3) 1.8643(5) -0.5938(3)
C14B C -1.6080(4) 1.9584(4) -0.5753(3)
H8B H -1.6069 2.0082 -0.6066
C15B C -1.6167(4) 1.9812(5) -0.5123(4)
C16B C -1.6196(3) 1.9065(4) -0.4654(3)
H9B H -1.6266 1.9213 -0.4228
C17B C -1.5940(3) 1.8412(5) -0.6645(3)
C18B C -1.6384(5) 2.1064(5) -0.4407(4)
H10B H -1.5936 2.0842 -0.3938
H11B H -1.6416 2.1760 -0.4400
H12B H -1.6899 2.0790 -0.4467
C25B C -1.0743(4) 1.1352(5) -0.2695(3)
H22B H -1.0616 1.0695 -0.2609
C26B C -1.1513(5) 1.1726(5) -0.3007(4)
H23B H -1.2009 1.1386 -0.3165
C27B C -1.0608(4) 1.2909(5) -0.2744(3)
C28B C -1.0269(4) 1.3904(5) -0.2709(4)
H24B H -1.0420 1.4310 -0.2398
H25B H -0.9673 1.3872 -0.2494
H26B H -1.0494 1.4170 -0.3213
C29B C -1.2100(4) 1.3431(5) -0.3266(3)
H27B H -1.1918 1.4042 -0.3385
H28B H -1.2585 1.3211 -0.3718
C30B C -1.2333(4) 1.3586(4) -0.2636(3)
H29B H -1.1835 1.3726 -0.2168
H30B H -1.2577 1.2994 -0.2560
C31B C -1.2937(4) 1.4399(4) -0.2806(3)
H31B H -1.2691 1.4992 -0.2880
H32B H -1.3434 1.4261 -0.3275
C32B C -1.3177(4) 1.4553(4) -0.2169(3)
H33B H -1.2681 1.4692 -0.1699
H34B H -1.3425 1.3963 -0.2097
C33B C -1.3583(4) 1.6315(5) -0.2320(4)
H35B H -1.3057 1.6582 -0.2168
C34B C -1.4308(5) 1.6806(5) -0.2557(4)
H36B H -1.4360 1.7478 -0.2591
C35B C -1.5056(4) 1.4370(4) -0.2713(4)
H37B H -1.5622 1.4459 -0.3094
H38B H -1.4800 1.3871 -0.2873
H39B H -1.5049 1.4182 -0.2243
C41B C -1.4589(4) 1.5294(5) -0.2602(3)
Cu1A Cu -0.89384(5) 1.30356(5) -0.69522(4)
Cu1C Cu -0.10616(5) 0.69644(5) 0.69522(4)
Cu2A Cu -1.61182(5) 1.85221(5) -0.80390(4)
Cu2B_2 Cu 1.38818(5) 0.64779(5) 0.69610(4)
Cu2C Cu 0.61182(5) 0.14779(5) 0.80390(4)
O3A O -0.9144(3) 1.1816(3) -0.0691(2)
O3C O -0.0856(3) 0.8184(3) 0.0691(2)
O4A O -0.8872(2) 1.3017(3) -0.1270(2)
O4C O -0.1128(2) 0.6983(3) 0.1270(2)
O8A O -1.5843(3) 1.7443(3) -0.1805(2)
O8C O 0.5843(3) 0.2557(3) 0.1805(2)
O9A O -1.6033(2) 1.5889(3) -0.2102(2)
O9C O 0.6033(2) 0.4111(3) 0.2102(2)
N7B_2 N -1.7354(3) 1.6300(4) -0.3545(2)
loop_
_geom_bond_atom_site_label_1
_geom_bond_atom_site_label_2
_geom_bond_site_symmetry_1
_geom_bond_site_symmetry_2
Cu1 O1 1_555 1_555
Cu2 O7 1_555 1_555
O1 C1 1_555 1_555
O2 Cu1 1_555 1_555
O3 C8 1_555 1_555
O4 C8 1_555 1_555
O5 C6 1_555 1_555
O6 C10 1_555 1_555
O7 C10 1_555 1_555
O8 C17 1_555 1_555
O9 C17 1_555 1_555
O10 C15 1_555 1_555
N1 C20 1_555 1_555
N2 Cu1 1_555 1_555
N3 Cu1 1_555 1_555
N4 C26 1_555 1_555
N5 C32 1_555 1_555
N6 Cu2 1_555 1_555
N7 Cu2 1_555 1_555
N8 C37 1_555 1_555
C1 O2 1_555 1_555
C2 C1 1_555 1_555
C3 C2 1_555 1_555
H1 C3 1_555 1_555
C4 C3 1_555 1_555
C5 C4 1_555 1_555
H2 C5 1_555 1_555
C6 C5 1_555 1_555
C7 C2 1_555 1_555
H3 C7 1_555 1_555
C8 C4 1_555 1_555
C9 O5 1_555 1_555
H4 C9 1_555 1_555
H5 C9 1_555 1_555
H6 C9 1_555 1_555
C10 C11 1_555 1_555
C11 C12 1_555 1_555
C12 H7 1_555 1_555
C13 C12 1_555 1_555
C14 C13 1_555 1_555
H8 C14 1_555 1_555
C15 C14 1_555 1_555
C16 C11 1_555 1_555
H9 C16 1_555 1_555
C17 C13 1_555 1_555
C18 O10 1_555 1_555
H10 C18 1_555 1_555
H11 C18 1_555 1_555
H12 C18 1_555 1_555
C19 N2 1_555 1_555
H13 C19 1_555 1_555
C20 C19 1_555 1_555
H14 C20 1_555 1_555
C21 N1 1_555 1_555
C22 C21 1_555 1_555
H15 C22 1_555 1_555
H16 C22 1_555 1_555
H17 C22 1_555 1_555
C23 N1 1_555 1_555
H18 C23 1_555 1_555
H19 C23 1_555 1_555
C24 C23 1_555 1_555
H20 C24 1_555 1_555
H21 C24 1_555 1_555
C25 N3 1_555 1_555
H22 C25 1_555 1_555
C26 C25 1_555 1_555
H23 C26 1_555 1_555
C27 N3 1_555 1_555
C28 C27 1_555 1_555
H24 C28 1_555 1_555
H25 C28 1_555 1_555
H26 C28 1_555 1_555
C29 N4 1_555 1_555
H27 C29 1_555 1_555
H28 C29 1_555 1_555
C30 C29 1_555 1_555
H29 C30 1_555 1_555
H30 C30 1_555 1_555
C31 C30 1_555 1_555
H31 C31 1_555 1_555
H32 C31 1_555 1_555
C32 C31 1_555 1_555
H33 C32 1_555 1_555
H34 C32 1_555 1_555
C33 N5 1_555 1_555
H35 C33 1_555 1_555
C34 N6 1_555 1_555
H36 C34 1_555 1_555
C35 H37 1_555 1_555
H38 C35 1_555 1_555
H39 C35 1_555 1_555
C36 N7 1_555 1_555
H40 C36 1_555 1_555
C37 C36 1_555 1_555
H41 C37 1_555 1_555
C38 H42 1_555 1_555
H43 C38 1_555 1_555
H44 C38 1_555 1_555
C39 N8 1_555 1_555
H45 C39 1_555 1_555
H46 C39 1_555 1_555
C40 C39 1_555 1_555
H47 C40 1_555 1_555
H48 C40 1_555 1_555
C41 N5 1_555 1_555
C42 N7 1_555 1_555
N1B C20B 1_555 1_555
N2B C19B 1_555 1_555
C19B H13B 1_555 1_555
C20B C19B 1_555 1_555
H14B C20B 1_555 1_555
C21B N1B 1_555 1_555
C22B C21B 1_555 1_555
H15B C22B 1_555 1_555
H16B C22B 1_555 1_555
H17B C22B 1_555 1_555
C23B N1B 1_555 1_555
H18B C23B 1_555 1_555
H19B C23B 1_555 1_555
C24B C24 1_555 1_555
H20B C24B 1_555 1_555
H21B C24B 1_555 1_555
N7B C36B 1_555 1_555
N8B C37B 1_555 1_555
C36B H40B 1_555 1_555
C37B C36B 1_555 1_555
H41B C37B 1_555 1_555
C38B H42B 1_555 1_555
H43B C38B 1_555 1_555
H44B C38B 1_555 1_555
C39B N8B 1_555 1_555
H45B C39B 1_555 1_555
H46B C39B 1_555 1_555
C40B C40 1_555 1_555
H47B C40B 1_555 1_555
H48B C40B 1_555 1_555
C42B N7B 1_555 1_555
Cu1B N2B 1_555 1_555
Cu2B O7B 1_555 1_555
O1B Cu1B 1_555 1_555
O2B Cu1B 1_555 1_555
O3B C8B 1_555 1_555
O4B C8B 1_555 1_555
O5B C6B 1_555 1_555
O6B C10B 1_555 1_555
O7B C10B 1_555 1_555
O8B C17B 1_555 1_555
O9B C17B 1_555 1_555
O10B C15B 1_555 1_555
N3B Cu1B 1_555 1_555
N4B C26B 1_555 1_555
N5B C32B 1_555 1_555
N6B Cu2B 1_555 1_555
C1B O1B 1_555 1_555
C2B C1B 1_555 1_555
C3B C2B 1_555 1_555
H1B C3B 1_555 1_555
C4B C3B 1_555 1_555
C5B C4B 1_555 1_555
H2B C5B 1_555 1_555
C6B C5B 1_555 1_555
C7B C2B 1_555 1_555
H3B C7B 1_555 1_555
C8B C4B 1_555 1_555
C9B O5B 1_555 1_555
H4B C9B 1_555 1_555
H5B C9B 1_555 1_555
H6B C9B 1_555 1_555
C10B C11B 1_555 1_555
C11B C12B 1_555 1_555
C12B H7B 1_555 1_555
C13B C12B 1_555 1_555
C14B C13B 1_555 1_555
H8B C14B 1_555 1_555
C15B C14B 1_555 1_555
C16B C11B 1_555 1_555
H9B C16B 1_555 1_555
C17B C13B 1_555 1_555
C18B O10B 1_555 1_555
H10B C18B 1_555 1_555
H11B C18B 1_555 1_555
H12B C18B 1_555 1_555
C25B N3B 1_555 1_555
H22B C25B 1_555 1_555
C26B C25B 1_555 1_555
H23B C26B 1_555 1_555
C27B N3B 1_555 1_555
C28B C27B 1_555 1_555
H24B C28B 1_555 1_555
H25B C28B 1_555 1_555
H26B C28B 1_555 1_555
C29B N4B 1_555 1_555
H27B C29B 1_555 1_555
H28B C29B 1_555 1_555
C30B C29B 1_555 1_555
H29B C30B 1_555 1_555
H30B C30B 1_555 1_555
C31B C30B 1_555 1_555
H31B C31B 1_555 1_555
H32B C31B 1_555 1_555
C32B C31B 1_555 1_555
H33B C32B 1_555 1_555
H34B C32B 1_555 1_555
C33B N5B 1_555 1_555
H35B C33B 1_555 1_555
C34B N6B 1_555 1_555
H36B C34B 1_555 1_555
C35B H37B 1_555 1_555
H38B C35B 1_555 1_555
H39B C35B 1_555 1_555
C41B N5B 1_555 1_555
Cu1A O3B 1_555 1_555
Cu1C O3 1_555 1_555
Cu2A O8B 1_555 1_555
Cu2B_2 N7B 1_555 1_555
Cu2C O8 1_555 1_555
O3A Cu1B 1_555 1_555
O3C Cu1 1_555 1_555
O4A Cu1B 1_555 1_555
O4C Cu1 1_555 1_555
O8A Cu2B 1_555 1_555
O8C Cu2 1_555 1_555
O9A Cu2B 1_555 1_555
O9C Cu2 1_555 1_555
N7B_2 Cu2B 1_555 1_555
O4 Cu1C 1_555 1_555
O9 Cu2C 1_555 1_555
N2 C21 1_555 1_555
N4 C27 1_555 1_555
N6 C41 1_555 1_555
N8 C42 1_555 1_555
C6 C7 1_555 1_555
C15 C16 1_555 1_555
C33 C34 1_555 1_555
C35 C41 1_555 1_555
C38 C42 1_555 1_555
N2B C21B 1_555 1_555
C23B C24B 1_555 1_555
N8B C42B 1_555 1_555
C38B C42B 1_555 1_555
C39B C40B 1_555 1_555
O2B C1B 1_555 1_555
O4B Cu1A 1_555 1_555
O9B Cu2A 1_555 1_555
N4B C27B 1_555 1_555
N6B C41B 1_555 1_555
C6B C7B 1_555 1_555
C15B C16B 1_555 1_555
C33B C34B 1_555 1_555
C35B C41B 1_555 1_555

#END
