
#######################################################################
#
#                 Cambridge Crystallographic Data Centre
#                                CCDC 
#
#######################################################################
#
# If this CIF has been generated from an entry in the Cambridge 
# Structural Database, then it will include bibliographic, chemical, 
# crystal, experimental, refinement or atomic coordinate data resulting 
# from the CCDC's data processing and validation procedures.
#
#######################################################################

data_WODTIU
_symmetry_cell_setting           monoclinic
_symmetry_space_group_name_H-M   'P 21/c'
_symmetry_Int_Tables_number      14
_space_group_name_Hall           '-P 2ybc'
loop_
_symmetry_equiv_pos_site_id
_symmetry_equiv_pos_as_xyz
1 x,y,z
2 -x,1/2+y,1/2-z
3 -x,-y,-z
4 x,1/2-y,1/2+z
_cell_length_a                   11.168(2)
_cell_length_b                   14.930(3)
_cell_length_c                   20.262(3)
_cell_angle_alpha                90
_cell_angle_beta                 112.156(8)
_cell_angle_gamma                90
_cell_volume                     3128.99
loop_
_atom_site_label
_atom_site_type_symbol
_atom_site_fract_x
_atom_site_fract_y
_atom_site_fract_z
Cu1 Cu 0.00651(4) 0.57497(2) 0.963347(19)
Cu2 Cu 0.62123(4) 0.48903(3) 1.49757(2)
O1 O 0.1326(2) 0.62553(16) 1.05273(12)
O2 O 0.1212(3) 0.50100(16) 1.11070(12)
O3 O 0.5142(3) 0.52796(18) 1.40012(12)
O4 O 0.3147(2) 0.54387(19) 1.39981(13)
O5 O 0.4601(3) 0.81318(19) 1.25195(14)
O6 O 0.1460(2) 0.50964(15) 0.94790(13)
O7 O 0.1315(2) 0.38502(16) 1.00613(13)
O8 O 0.3557(2) 0.11654(16) 0.97718(14)
O9 O 0.5546(2) 0.13544(15) 0.97750(14)
O10 O 0.5570(3) 0.45122(18) 0.90073(17)
N1 N 0.2130(3) 0.5461(2) 0.52701(15)
N2 N 0.0715(3) 0.5711(2) 0.57665(16)
N3 N -0.0240(3) 0.67779(19) 0.88411(15)
N4 N -0.0180(3) 0.7449(2) 0.78866(16)
C1 C 0.1613(3) 0.5782(2) 1.10773(17)
C2 C 0.2526(3) 0.6168(2) 1.17746(17)
C3 C 0.2772(3) 0.5688(2) 1.23985(17)
H1 H 0.2358 0.5145 1.2388
C4 C 0.3640(3) 0.6023(2) 1.30365(17)
C5 C 0.4245(4) 0.6835(2) 1.30492(18)
H2 H 0.4840 0.7052 1.3477
C6 C 0.3973(4) 0.7325(2) 1.24298(18)
C7 C 0.3103(3) 0.6997(2) 1.17889(17)
H3 H 0.2908 0.7327 1.1372
C8 C 0.3991(4) 0.5529(2) 1.37334(17)
C9 C 0.4495(6) 0.8630(3) 1.1917(2)
H4 H 0.3598 0.8716 1.1625
H5 H 0.4912 0.8315 1.1649
H6 H 0.4902 0.9202 1.2061
C10 C 0.1802(3) 0.4316(2) 0.97082(18)
C11 C 0.2885(3) 0.3899(2) 0.95585(17)
C12 C 0.3148(3) 0.2998(2) 0.96945(17)
H7 H 0.2619 0.2646 0.9850
C13 C 0.4209(3) 0.2619(2) 0.95972(18)
C14 C 0.5017(4) 0.3147(2) 0.9380(2)
H8 H 0.5752 0.2899 0.9342
C15 C 0.4727(3) 0.4048(2) 0.9221(2)
C16 C 0.3658(3) 0.4428(2) 0.93043(19)
H9 H 0.3456 0.5028 0.9193
C17 C 0.4455(3) 0.1629(2) 0.97228(17)
C18 C 0.5193(4) 0.5368(3) 0.8695(2)
H10 H 0.5091 0.5769 0.9041
H11 H 0.4388 0.5319 0.8295
H12 H 0.5845 0.5597 0.8539
C19 C 0.1449(4) 0.6236(3) 0.4986(2)
H13 H 0.1575 0.6593 0.4642
C20 C 0.0581(4) 0.6395(3) 0.5285(2)
H14 H 0.0003 0.6871 0.5187
C21 C 0.1663(4) 0.5167(2) 0.57360(19)
C22 C 0.2125(5) 0.4360(3) 0.6179(2)
H15 H 0.2719 0.4041 0.6024
H16 H 0.1403 0.3981 0.6132
H17 H 0.2554 0.4532 0.6668
C23 C -0.0048(4) 0.5607(3) 0.6212(2)
H18 H 0.0017 0.4990 0.6373
H19 H -0.0949 0.5724 0.5923
C24 C 0.0370(4) 0.6220(3) 0.6856(2)
H20 H 0.0051 0.5976 0.7203
H21 H 0.1307 0.6220 0.7073
C25 C -0.0090(4) 0.7170(3) 0.6699(2)
H22 H -0.1025 0.7168 0.6470
H23 H 0.0250 0.7419 0.6363
C26 C 0.0296(5) 0.7778(3) 0.7347(2)
H24 H 0.1232 0.7822 0.7557
H25 H -0.0045 0.8373 0.7197
C27 C -0.1461(4) 0.7407(3) 0.7806(2)
H26 H -0.2167 0.7617 0.7421
C28 C -0.1491(4) 0.7001(3) 0.8395(2)
H27 H -0.2232 0.6888 0.8487
C29 C 0.0519(4) 0.7062(2) 0.85161(19)
C30 C 0.1938(4) 0.6961(3) 0.8802(2)
H28 H 0.2227 0.6744 0.9283
H29 H 0.2330 0.7531 0.8795
H30 H 0.2179 0.6543 0.8514
Cu1B Cu -0.00651(4) 0.42503(2) 1.036653(19)
Cu2A Cu 0.37877(4) -0.01097(3) 1.00243(2)
Cu2B Cu 0.37877(4) 0.51097(3) 0.50243(2)
Cu2B_2 Cu 0.37877(4) 0.51097(3) 1.50243(2)
Cu2C Cu 0.62123(4) 0.01097(3) 0.99757(2)
O2B O -0.1212(3) 0.49900(16) 0.88930(12)
O4B O 0.6853(2) 0.45613(19) 1.60019(13)
O7B O -0.1315(2) 0.61498(16) 0.99387(13)
O8A O 0.6443(2) 0.61654(16) 1.52282(14)
O9C O 0.5546(2) 0.36456(15) 1.47750(14)
N1B N 0.7870(3) 0.4539(2) 1.47299(15)
loop_
_geom_bond_atom_site_label_1
_geom_bond_atom_site_label_2
_geom_bond_site_symmetry_1
_geom_bond_site_symmetry_2
Cu1 O1 1_555 1_555
Cu2 O3 1_555 1_555
O1 C1 1_555 1_555
O2 C1 1_555 1_555
O3 C8 1_555 1_555
O4 C8 1_555 1_555
O5 C6 1_555 1_555
O6 Cu1 1_555 1_555
O7 C10 1_555 1_555
O8 C17 1_555 1_555
O9 C17 1_555 1_555
O10 C15 1_555 1_555
N1 C19 1_555 1_555
N2 C20 1_555 1_555
N3 Cu1 1_555 1_555
N4 C26 1_555 1_555
C1 C2 1_555 1_555
C2 C3 1_555 1_555
C3 H1 1_555 1_555
C4 C3 1_555 1_555
C5 C4 1_555 1_555
H2 C5 1_555 1_555
C6 C5 1_555 1_555
C7 C2 1_555 1_555
H3 C7 1_555 1_555
C8 C4 1_555 1_555
C9 O5 1_555 1_555
H4 C9 1_555 1_555
H5 C9 1_555 1_555
H6 C9 1_555 1_555
C10 O6 1_555 1_555
C11 C10 1_555 1_555
C12 C11 1_555 1_555
H7 C12 1_555 1_555
C13 C12 1_555 1_555
C14 C13 1_555 1_555
H8 C14 1_555 1_555
C15 C14 1_555 1_555
C16 C11 1_555 1_555
H9 C16 1_555 1_555
C17 C13 1_555 1_555
C18 O10 1_555 1_555
H10 C18 1_555 1_555
H11 C18 1_555 1_555
H12 C18 1_555 1_555
C19 H13 1_555 1_555
C20 C19 1_555 1_555
H14 C20 1_555 1_555
C21 N1 1_555 1_555
C22 C21 1_555 1_555
H15 C22 1_555 1_555
H16 C22 1_555 1_555
H17 C22 1_555 1_555
C23 N2 1_555 1_555
H18 C23 1_555 1_555
H19 C23 1_555 1_555
C24 C23 1_555 1_555
H20 C24 1_555 1_555
H21 C24 1_555 1_555
C25 C24 1_555 1_555
H22 C25 1_555 1_555
H23 C25 1_555 1_555
C26 C25 1_555 1_555
H24 C26 1_555 1_555
H25 C26 1_555 1_555
C27 N4 1_555 1_555
H26 C27 1_555 1_555
C28 N3 1_555 1_555
H27 C28 1_555 1_555
C29 N3 1_555 1_555
C30 C29 1_555 1_555
H28 C30 1_555 1_555
H29 C30 1_555 1_555
H30 C30 1_555 1_555
Cu1B Cu1 1_555 1_555
Cu2A O8 1_555 1_555
Cu2B N1 1_555 1_555
Cu2B_2 Cu2 1_555 1_555
Cu2C O9 1_555 1_555
O2B Cu1 1_555 1_555
O4B Cu2 1_555 1_555
O7B Cu1 1_555 1_555
O8A Cu2 1_555 1_555
O9C Cu2 1_555 1_555
N1B Cu2 1_555 1_555
O2 Cu1B 1_555 1_555
O4 Cu2B_2 1_555 1_555
O7 Cu1B 1_555 1_555
N2 C21 1_555 1_555
N4 C29 1_555 1_555
C6 C7 1_555 1_555
C15 C16 1_555 1_555
C27 C28 1_555 1_555
Cu2A Cu2C 1_555 1_555

#END
