
#######################################################################
#
#                 Cambridge Crystallographic Data Centre
#                                CCDC 
#
#######################################################################
#
# If this CIF has been generated from an entry in the Cambridge 
# Structural Database, then it will include bibliographic, chemical, 
# crystal, experimental, refinement or atomic coordinate data resulting 
# from the CCDC's data processing and validation procedures.
#
#######################################################################

data_WODVAO
_symmetry_cell_setting           triclinic
_symmetry_space_group_name_H-M   'P -1'
_symmetry_Int_Tables_number      2
_space_group_name_Hall           '-P 1'
loop_
_symmetry_equiv_pos_site_id
_symmetry_equiv_pos_as_xyz
1 x,y,z
2 -x,-y,-z
_cell_length_a                   15.361(3)
_cell_length_b                   18.358(3)
_cell_length_c                   22.111(4)
_cell_angle_alpha                107.203(2)
_cell_angle_beta                 97.245(2)
_cell_angle_gamma                100.4480(10)
_cell_volume                     5749.32
loop_
_atom_site_label
_atom_site_type_symbol
_atom_site_fract_x
_atom_site_fract_y
_atom_site_fract_z
Er1 Er 0.47954(3) 0.09330(2) 0.425144(18)
Er2 Er 0.32648(3) 0.04800(2) 0.229272(18)
Er3 Er 0.09144(3) -0.03538(2) 0.085101(19)
Cu1 Cu 1.04287(12) 0.42327(10) 0.22755(9)
Cu2 Cu 0.94246(13) 0.61535(10) 0.30025(9)
Cu3 Cu 0.96944(17) 0.53364(13) 0.37375(12)
Cu4 Cu 0.77325(14) 0.50991(10) 0.24303(8)
Cu5 Cu 0.56131(10) 0.63071(8) 0.21627(7)
I1 I 0.93304(6) 0.49948(5) 0.19395(4)
I2 I 1.09194(9) 0.64749(9) 0.38534(6)
I3 I 0.81075(5) 0.57294(5) 0.36766(3)
I4 I 0.69842(7) 0.58022(6) 0.17257(4)
C1 C 0.5444(8) 0.0996(6) 0.2861(5)
C2 C 0.6349(7) 0.1232(6) 0.2689(5)
C3 C 0.7050(7) 0.1796(7) 0.3129(5)
H1 H 0.6993 0.2004 0.3556
C4 C 0.6455(7) 0.0902(6) 0.2059(5)
H2 H 0.5986 0.0521 0.1762
C5 C 0.7837(7) 0.2051(7) 0.2931(5)
H3 H 0.8300 0.2441 0.3225
C6 C 0.7255(8) 0.1139(7) 0.1871(5)
H4 H 0.7332 0.0897 0.1454
C7 C 0.7943(7) 0.1734(6) 0.2301(5)
C8 C 0.8770(7) 0.2029(6) 0.2091(5)
C9 C 0.9157(7) 0.2812(6) 0.2276(5)
H5 H 0.8895 0.3159 0.2552
C10 C 0.9157(8) 0.1529(6) 0.1652(6)
H6 H 0.8903 0.0993 0.1500
C11 C 0.9920(8) 0.1821(7) 0.1437(5)
H7 H 1.0175 0.1491 0.1141
C12 C 1.0271(8) 0.2594(7) 0.1675(6)
H8 H 1.0799 0.2788 0.1552
C13 C 0.3082(7) -0.0516(6) 0.0968(5)
C14 C 0.3184(7) -0.1059(6) 0.0331(4)
C15 C 0.2449(7) -0.1642(6) -0.0061(5)
H9 H 0.1885 -0.1681 0.0055
C16 C 0.4014(8) -0.0975(7) 0.0134(5)
H10 H 0.4500 -0.0573 0.0385
C17 C 0.2567(8) -0.2164(7) -0.0628(5)
H11 H 0.2081 -0.2563 -0.0884
C18 C 0.4104(8) -0.1490(7) -0.0430(6)
H12 H 0.4658 -0.1431 -0.0559
C19 C 0.3393(8) -0.2102(6) -0.0818(5)
C20 C 0.3489(8) -0.2669(7) -0.1428(5)
C21 C 0.2964(9) -0.3441(7) -0.1653(6)
H13 H 0.2594 -0.3593 -0.1389
C22 C 0.4069(8) -0.2461(7) -0.1820(5)
H14 H 0.4452 -0.1965 -0.1687
C23 C 0.4065(10) -0.2998(8) -0.2402(6)
H15 H 0.4448 -0.2871 -0.2668
C24 C 0.3487(10) -0.3733(8) -0.2591(6)
H16 H 0.3463 -0.4082 -0.2999
C25 C 0.0187(7) -0.1924(6) 0.0540(5)
C26 C -0.0250(7) -0.2765(6) 0.0349(4)
C27 C -0.0200(8) -0.3279(7) -0.0241(5)
H17 H 0.0098 -0.3085 -0.0522
C28 C -0.0720(9) -0.3060(7) 0.0758(5)
H18 H -0.0775 -0.2725 0.1152
C29 C -0.0572(10) -0.4057(7) -0.0421(6)
H19 H -0.0521 -0.4384 -0.0819
C30 C -0.1101(10) -0.3853(8) 0.0574(6)
H20 H -0.1414 -0.4047 0.0848
C31 C -0.1027(9) -0.4374(7) -0.0021(5)
C32 C -0.1452(11) -0.5227(7) -0.0218(6)
C33 C -0.2031(13) -0.5550(9) 0.0115(9)
H21 H -0.2157 -0.5224 0.0487
C34 C -0.1182(12) -0.5770(9) -0.0714(8)
H22 H -0.0733 -0.5587 -0.0914
C35 C -0.1544(13) -0.6528(9) -0.0905(8)
H23 H -0.1355 -0.6870 -0.1237
C36 C -0.2176(16) -0.6801(13) -0.0623(11)
H24 H -0.2464 -0.7330 -0.0793
C37 C 0.3458(6) -0.0683(6) 0.3068(7)
C38 C 0.3219(6) -0.1514(6) 0.3060(5)
C39 C 0.2680(8) -0.2101(6) 0.2525(6)
H25 H 0.2426 -0.1974 0.2176
C40 C 0.3579(7) -0.1716(6) 0.3575(5)
H26 H 0.3940 -0.1328 0.3938
C41 C 0.2520(8) -0.2873(7) 0.2505(6)
H27 H 0.2155 -0.3262 0.2144
C42 C 0.3408(8) -0.2491(6) 0.3556(5)
H28 H 0.3642 -0.2618 0.3910
C43 C 0.2895(7) -0.3073(6) 0.3016(5)
C44 C 0.2716(7) -0.3910(6) 0.2992(6)
C45 C 0.1910(8) -0.4435(7) 0.2625(7)
H29 H 0.1511 -0.4257 0.2382
C46 C 0.3283(9) -0.4196(8) 0.3351(8)
H30 H 0.3825 -0.3872 0.3605
C47 C 0.3043(10) -0.4963(9) 0.3333(9)
H31 H 0.3412 -0.5153 0.3587
C48 C 0.2268(10) -0.5441(8) 0.2947(10)
H32 H 0.2132 -0.5968 0.2915
C49 C -0.1238(6) -0.0161(6) 0.0391(4)
C50 C -0.1937(6) -0.0594(6) 0.0656(5)
C51 C -0.1689(7) -0.0927(7) 0.1117(5)
H33 H -0.1084 -0.0893 0.1264
C52 C -0.2842(6) -0.0649(6) 0.0442(5)
H34 H -0.3010 -0.0434 0.0126
C53 C -0.2358(7) -0.1314(7) 0.1358(5)
H35 H -0.2190 -0.1555 0.1656
C54 C -0.3500(7) -0.1025(7) 0.0697(6)
H36 H -0.4106 -0.1059 0.0551
C55 C -0.3255(6) -0.1351(6) 0.1170(5)
C56 C -0.3965(6) -0.1713(6) 0.1469(5)
C57 C -0.3843(7) -0.2322(6) 0.1697(5)
H37 H -0.3329 -0.2514 0.1637
C58 C -0.4725(8) -0.1427(8) 0.1574(7)
H38 H -0.4827 -0.1015 0.1434
C59 C -0.5321(9) -0.1741(7) 0.1879(7)
H39 H -0.5833 -0.1549 0.1949
C60 C -0.5157(8) -0.2357(7) 0.2089(6)
H40 H -0.5568 -0.2573 0.2300
C61 C 0.1077(7) 0.0229(6) 0.2402(5)
C62 C 0.0610(7) 0.0426(6) 0.2972(5)
C63 C -0.0188(8) 0.0668(7) 0.2909(5)
H41 H -0.0428 0.0718 0.2520
C64 C 0.0968(7) 0.0352(7) 0.3547(5)
H42 H 0.1512 0.0201 0.3594
C65 C -0.0633(8) 0.0836(7) 0.3425(6)
H43 H -0.1165 0.1005 0.3381
C66 C 0.0510(8) 0.0503(7) 0.4056(5)
H44 H 0.0746 0.0435 0.4439
C67 C -0.0285(7) 0.0753(6) 0.4014(5)
C68 C -0.0741(7) 0.0933(7) 0.4571(5)
C69 C -0.0315(9) 0.1122(9) 0.5194(6)
H45 H 0.0302 0.1156 0.5281
C70 C -0.1662(8) 0.0886(8) 0.4484(6)
H46 H -0.1982 0.0736 0.4064
C71 C -0.2124(7) 0.1043(7) 0.4967(5)
H47 H -0.2737 0.1024 0.4880
C72 C -0.1702(9) 0.1221(9) 0.5554(6)
H48 H -0.2024 0.1320 0.5887
C73 C 0.3171(7) 0.1615(5) 0.3759(4)
C74 C 0.2495(7) 0.2116(6) 0.3852(5)
C75 C 0.2246(8) 0.2356(6) 0.4449(5)
H49 H 0.2533 0.2238 0.4793
C76 C 0.2088(8) 0.2320(7) 0.3357(5)
H50 H 0.2262 0.2178 0.2958
C77 C 0.1572(10) 0.2773(7) 0.4541(5)
H51 H 0.1410 0.2925 0.4943
C78 C 0.1418(9) 0.2735(7) 0.3445(6)
H52 H 0.1150 0.2866 0.3102
C79 C 0.1138(8) 0.2962(6) 0.4036(5)
C80 C 0.0390(9) 0.3367(7) 0.4126(6)
C81 C 0.0338(9) 0.3986(8) 0.3902(7)
H53 H 0.0797 0.4150 0.3702
C82 C -0.0279(10) 0.3153(9) 0.4446(6)
H54 H -0.0253 0.2755 0.4624
C83 C -0.0990(11) 0.3526(9) 0.4503(7)
H55 H -0.1448 0.3383 0.4713
C84 C -0.0988(10) 0.4131(8) 0.4231(7)
H56 H -0.1472 0.4371 0.4249
C85 C 0.4199(6) 0.0555(6) 0.5595(4)
C86 C 0.3448(6) 0.0831(5) 0.5916(4)
C87 C 0.3337(7) 0.0717(6) 0.6500(4)
H57 H 0.3708 0.0459 0.6684
C88 C 0.2896(7) 0.1208(6) 0.5643(5)
H58 H 0.2960 0.1276 0.5250
C89 C 0.2668(7) 0.0992(6) 0.6806(4)
H59 H 0.2581 0.0903 0.7189
C90 C 0.2251(7) 0.1482(6) 0.5960(5)
H60 H 0.1881 0.1735 0.5771
C91 C 0.2121(7) 0.1402(6) 0.6546(5)
C92 C 0.1455(6) 0.1749(6) 0.6887(5)
C93 C 0.1346(8) 0.2493(7) 0.6878(5)
H61 H 0.1720 0.2755 0.6672
C94 C 0.0894(7) 0.1390(6) 0.7209(5)
H62 H 0.0928 0.0894 0.7222
C95 C 0.0281(8) 0.1759(7) 0.7513(5)
H63 H -0.0074 0.1528 0.7747
C96 C 0.0209(8) 0.2475(7) 0.7461(6)
H64 H -0.0220 0.2714 0.7648
C97 C 0.5774(8) 0.2843(6) 0.4588(6)
C98 C 0.5719(8) 0.3570(6) 0.4398(5)
C99 C 0.6330(9) 0.4281(7) 0.4734(6)
H65 H 0.6777 0.4311 0.5072
C100 C 0.5067(8) 0.3538(6) 0.3893(5)
H66 H 0.4643 0.3072 0.3671
C101 C 0.6272(8) 0.4945(6) 0.4566(6)
H67 H 0.6667 0.5421 0.4804
C102 C 0.5048(7) 0.4205(6) 0.3717(5)
H68 H 0.4626 0.4171 0.3363
C103 C 0.5634(7) 0.4908(6) 0.4052(5)
C104 C 0.5601(7) 0.5628(6) 0.3871(5)
C105 C 0.5573(7) 0.5633(6) 0.3245(5)
H69 H 0.5559 0.5165 0.2926
C106 C 0.5667(8) 0.6340(6) 0.4348(5)
H70 H 0.5713 0.6366 0.4777
C107 C 0.5664(8) 0.7017(6) 0.4176(6)
H71 H 0.5688 0.7495 0.4485
C108 C 0.5624(8) 0.6950(6) 0.3527(6)
H72 H 0.5640 0.7400 0.3414
C109 C 0.2276(7) 0.1399(5) 0.1378(5)
C110 C 0.2615(7) 0.2155(6) 0.1264(5)
C111 C 0.2150(7) 0.2351(6) 0.0784(5)
H73 H 0.1615 0.2014 0.0531
C112 C 0.3402(10) 0.2640(8) 0.1626(8)
H74 H 0.3692 0.2516 0.1965
C113 C 0.2473(8) 0.3048(6) 0.0674(5)
H75 H 0.2141 0.3193 0.0365
C114 C 0.3787(10) 0.3316(9) 0.1507(9)
H76 H 0.4351 0.3621 0.1734
C115 C 0.3290(9) 0.3526(7) 0.1028(7)
C116 C 0.3660(8) 0.4288(7) 0.0942(6)
C117 C 0.3582(10) 0.4381(8) 0.0329(7)
H77 H 0.3248 0.3978 -0.0035
C118 C 0.4121(8) 0.4919(8) 0.1456(7)
H78 H 0.4151 0.4866 0.1863
C119 C 0.4015(10) 0.5086(9) 0.0281(7)
H79 H 0.4008 0.5152 -0.0120
C120 C 0.4449(10) 0.5678(8) 0.0825(7)
H80 H 0.4701 0.6158 0.0786
O1 O 0.6226(5) 0.1438(5) 0.4869(4)
H81 H 0.5980 0.0959 0.4668
H82 H 0.6360 0.1914 0.5173
O2 O 0.4765(5) 0.0921(6) 0.2465(4)
O3 O 0.5459(6) 0.0906(5) 0.3401(4)
O4 O 0.3785(6) -0.0084(6) 0.1344(4)
O5 O 0.2326(4) -0.0530(4) 0.1139(3)
O6 O 0.0317(6) -0.1481(4) 0.1120(3)
O7 O 0.0379(5) -0.1636(5) 0.0101(4)
O8 O 0.3724(6) -0.0145(5) 0.3579(5)
O9 O 0.3373(7) -0.0596(5) 0.2520(5)
O10 O -0.0429(5) -0.0194(5) 0.0550(4)
O11 O -0.1472(5) 0.0190(4) 0.0027(3)
O12 O 0.1885(6) 0.0166(5) 0.2513(4)
O13 O 0.0657(6) 0.0164(5) 0.1869(4)
O14 O 0.3470(5) 0.1402(4) 0.4217(3)
O15 O 0.3434(6) 0.1445(5) 0.3224(3)
O16 O 0.4378(5) 0.0821(5) 0.5151(3)
O17 O 0.4576(5) 0.0115(4) 0.5785(4)
O18 O 0.6489(8) 0.2909(6) 0.4966(7)
O19 O 0.5146(5) 0.2257(4) 0.4364(4)
O20 O 0.1546(5) 0.0969(4) 0.1067(4)
O21 O 0.2798(6) 0.1249(5) 0.1803(4)
N1 N 0.9912(6) 0.3113(5) 0.2079(5)
N2 N 0.2957(8) -0.3961(6) -0.2207(5)
N3 N -0.2430(14) -0.6345(9) -0.0091(10)
N4 N 0.1696(7) -0.5168(6) 0.2610(7)
N5 N -0.4427(6) -0.2647(5) 0.1997(5)
N6 N -0.0774(11) 0.1268(11) 0.5704(7)
N7 N -0.0340(8) 0.4374(7) 0.3953(6)
N8 N 0.0734(7) 0.2841(5) 0.7149(5)
N9 N 0.5566(6) 0.6281(5) 0.3064(4)
N10 N 0.4536(7) 0.5610(6) 0.1419(5)
Er1A Er 0.52046(3) -0.09330(2) 0.574856(18)
Er3A Er -0.09144(3) 0.03538(2) -0.085101(19)
Cu1_2 Cu 0.04287(12) -0.57673(10) 0.22755(9)
Cu2A Cu 0.05754(13) 0.38465(10) 0.69975(9)
Cu3_2 Cu -0.03056(17) 0.53364(13) 0.37375(12)
Cu4A Cu 0.22675(14) -0.50991(10) -0.24303(8)
Cu5_2 Cu -0.43869(10) -0.36929(8) 0.21627(7)
O11A O 0.1472(5) -0.0190(4) -0.0027(3)
O17A O 0.5424(5) -0.0115(4) 0.4215(4)
N2A N 0.7043(8) 0.3961(6) 0.2207(5)
N4_2 N 1.1696(7) 0.4832(6) 0.2610(7)
N5_2 N 0.5573(6) 0.7353(5) 0.1997(5)
N7_2 N 0.9660(8) 0.4374(7) 0.3953(6)
N8A N 0.9266(7) 0.7159(5) 0.2851(5)
loop_
_geom_bond_atom_site_label_1
_geom_bond_atom_site_label_2
_geom_bond_site_symmetry_1
_geom_bond_site_symmetry_2
Er1 O1 1_555 1_555
Er2 O2 1_555 1_555
Er3 O5 1_555 1_555
Cu1 I1 1_555 1_555
Cu2 I1 1_555 1_555
Cu3 I2 1_555 1_555
Cu4 I1 1_555 1_555
Cu5 I4 1_555 1_555
I2 Cu2 1_555 1_555
I3 Cu2 1_555 1_555
I4 Cu4 1_555 1_555
C1 C2 1_555 1_555
C2 C3 1_555 1_555
C3 H1 1_555 1_555
C4 C2 1_555 1_555
H2 C4 1_555 1_555
C5 C3 1_555 1_555
H3 C5 1_555 1_555
C6 C4 1_555 1_555
H4 C6 1_555 1_555
C7 C5 1_555 1_555
C8 C7 1_555 1_555
C9 C8 1_555 1_555
H5 C9 1_555 1_555
C10 C8 1_555 1_555
H6 C10 1_555 1_555
C11 C10 1_555 1_555
H7 C11 1_555 1_555
C12 C11 1_555 1_555
H8 C12 1_555 1_555
C13 C14 1_555 1_555
C14 C15 1_555 1_555
C15 H9 1_555 1_555
C16 C14 1_555 1_555
H10 C16 1_555 1_555
C17 C15 1_555 1_555
H11 C17 1_555 1_555
C18 C16 1_555 1_555
H12 C18 1_555 1_555
C19 C17 1_555 1_555
C20 C19 1_555 1_555
C21 C20 1_555 1_555
H13 C21 1_555 1_555
C22 C20 1_555 1_555
H14 C22 1_555 1_555
C23 C22 1_555 1_555
H15 C23 1_555 1_555
C24 C23 1_555 1_555
H16 C24 1_555 1_555
C25 C26 1_555 1_555
C26 C27 1_555 1_555
C27 H17 1_555 1_555
C28 C26 1_555 1_555
H18 C28 1_555 1_555
C29 C27 1_555 1_555
H19 C29 1_555 1_555
C30 C28 1_555 1_555
H20 C30 1_555 1_555
C31 C29 1_555 1_555
C32 C31 1_555 1_555
C33 C32 1_555 1_555
H21 C33 1_555 1_555
C34 C32 1_555 1_555
H22 C34 1_555 1_555
C35 C34 1_555 1_555
H23 C35 1_555 1_555
C36 C35 1_555 1_555
H24 C36 1_555 1_555
C37 C38 1_555 1_555
C38 C39 1_555 1_555
C39 H25 1_555 1_555
C40 C38 1_555 1_555
H26 C40 1_555 1_555
C41 C39 1_555 1_555
H27 C41 1_555 1_555
C42 C40 1_555 1_555
H28 C42 1_555 1_555
C43 C41 1_555 1_555
C44 C43 1_555 1_555
C45 C44 1_555 1_555
H29 C45 1_555 1_555
C46 C44 1_555 1_555
H30 C46 1_555 1_555
C47 C46 1_555 1_555
H31 C47 1_555 1_555
C48 C47 1_555 1_555
H32 C48 1_555 1_555
C49 C50 1_555 1_555
C50 C51 1_555 1_555
C51 H33 1_555 1_555
C52 C50 1_555 1_555
H34 C52 1_555 1_555
C53 C51 1_555 1_555
H35 C53 1_555 1_555
C54 C52 1_555 1_555
H36 C54 1_555 1_555
C55 C53 1_555 1_555
C56 C55 1_555 1_555
C57 C56 1_555 1_555
H37 C57 1_555 1_555
C58 C56 1_555 1_555
H38 C58 1_555 1_555
C59 C58 1_555 1_555
H39 C59 1_555 1_555
C60 C59 1_555 1_555
H40 C60 1_555 1_555
C61 C62 1_555 1_555
C62 C63 1_555 1_555
C63 H41 1_555 1_555
C64 C62 1_555 1_555
H42 C64 1_555 1_555
C65 C63 1_555 1_555
H43 C65 1_555 1_555
C66 C64 1_555 1_555
H44 C66 1_555 1_555
C67 C65 1_555 1_555
C68 C67 1_555 1_555
C69 C68 1_555 1_555
H45 C69 1_555 1_555
C70 C68 1_555 1_555
H46 C70 1_555 1_555
C71 C70 1_555 1_555
H47 C71 1_555 1_555
C72 C71 1_555 1_555
H48 C72 1_555 1_555
C73 C74 1_555 1_555
C74 C75 1_555 1_555
C75 H49 1_555 1_555
C76 C74 1_555 1_555
H50 C76 1_555 1_555
C77 C75 1_555 1_555
H51 C77 1_555 1_555
C78 C76 1_555 1_555
H52 C78 1_555 1_555
C79 C77 1_555 1_555
C80 C79 1_555 1_555
C81 C80 1_555 1_555
H53 C81 1_555 1_555
C82 C80 1_555 1_555
H54 C82 1_555 1_555
C83 C82 1_555 1_555
H55 C83 1_555 1_555
C84 C83 1_555 1_555
H56 C84 1_555 1_555
C85 C86 1_555 1_555
C86 C87 1_555 1_555
C87 H57 1_555 1_555
C88 C86 1_555 1_555
H58 C88 1_555 1_555
C89 C87 1_555 1_555
H59 C89 1_555 1_555
C90 C88 1_555 1_555
H60 C90 1_555 1_555
C91 C89 1_555 1_555
C92 C91 1_555 1_555
C93 C92 1_555 1_555
H61 C93 1_555 1_555
C94 C92 1_555 1_555
H62 C94 1_555 1_555
C95 C94 1_555 1_555
H63 C95 1_555 1_555
C96 C95 1_555 1_555
H64 C96 1_555 1_555
C97 C98 1_555 1_555
C98 C99 1_555 1_555
C99 H65 1_555 1_555
C100 C98 1_555 1_555
H66 C100 1_555 1_555
C101 C99 1_555 1_555
H67 C101 1_555 1_555
C102 C100 1_555 1_555
H68 C102 1_555 1_555
C103 C101 1_555 1_555
C104 C103 1_555 1_555
C105 C104 1_555 1_555
H69 C105 1_555 1_555
C106 C104 1_555 1_555
H70 C106 1_555 1_555
C107 C106 1_555 1_555
H71 C107 1_555 1_555
C108 C107 1_555 1_555
H72 C108 1_555 1_555
C109 C110 1_555 1_555
C110 C111 1_555 1_555
C111 H73 1_555 1_555
C112 C110 1_555 1_555
H74 C112 1_555 1_555
C113 C111 1_555 1_555
H75 C113 1_555 1_555
C114 C112 1_555 1_555
H76 C114 1_555 1_555
C115 C113 1_555 1_555
C116 C115 1_555 1_555
C117 C116 1_555 1_555
H77 C117 1_555 1_555
C118 C116 1_555 1_555
H78 C118 1_555 1_555
C119 C117 1_555 1_555
H79 C119 1_555 1_555
C120 C119 1_555 1_555
H80 C120 1_555 1_555
O1 H81 1_555 1_555
H82 O1 1_555 1_555
O2 C1 1_555 1_555
O3 Er1 1_555 1_555
O4 Er2 1_555 1_555
O5 Er2 1_555 1_555
O6 Er3 1_555 1_555
O7 Er3 1_555 1_555
O8 Er1 1_555 1_555
O9 Er2 1_555 1_555
O10 Er3 1_555 1_555
O11 C49 1_555 1_555
O12 Er2 1_555 1_555
O13 Er3 1_555 1_555
O14 Er1 1_555 1_555
O15 Er2 1_555 1_555
O16 Er1 1_555 1_555
O17 C85 1_555 1_555
O18 C97 1_555 1_555
O19 Er1 1_555 1_555
O20 Er3 1_555 1_555
O21 Er2 1_555 1_555
N1 Cu1 1_555 1_555
N2 C21 1_555 1_555
N3 C33 1_555 1_555
N4 C45 1_555 1_555
N5 C57 1_555 1_555
N6 C69 1_555 1_555
N7 C81 1_555 1_555
N8 C93 1_555 1_555
N9 Cu5 1_555 1_555
N10 Cu5 1_555 1_555
Er1A O17 1_555 1_555
Er3A O11 1_555 1_555
Cu1_2 N4 1_555 1_555
Cu2A N8 1_555 1_555
Cu3_2 N7 1_555 1_555
Cu4A N2 1_555 1_555
Cu5_2 N5 1_555 1_555
O11A Er3 1_555 1_555
O17A Er1 1_555 1_555
N2A Cu4 1_555 1_555
N4_2 Cu1 1_555 1_555
N5_2 Cu5 1_555 1_555
N7_2 Cu3 1_555 1_555
N8A Cu2 1_555 1_555
Cu3 I3 1_555 1_555
Cu4 I3 1_555 1_555
C1 O3 1_555 1_555
C6 C7 1_555 1_555
C9 N1 1_555 1_555
C12 N1 1_555 1_555
C13 O4 1_555 1_555
C13 O5 1_555 1_555
C18 C19 1_555 1_555
C24 N2 1_555 1_555
C25 O6 1_555 1_555
C25 O7 1_555 1_555
C30 C31 1_555 1_555
C36 N3 1_555 1_555
C37 O8 1_555 1_555
C37 O9 1_555 1_555
C42 C43 1_555 1_555
C48 N4 1_555 1_555
C49 O10 1_555 1_555
C54 C55 1_555 1_555
C60 N5 1_555 1_555
C61 O12 1_555 1_555
C61 O13 1_555 1_555
C66 C67 1_555 1_555
C72 N6 1_555 1_555
C73 O14 1_555 1_555
C73 O15 1_555 1_555
C78 C79 1_555 1_555
C84 N7 1_555 1_555
C85 O16 1_555 1_555
C90 C91 1_555 1_555
C96 N8 1_555 1_555
C97 O19 1_555 1_555
C102 C103 1_555 1_555
C105 N9 1_555 1_555
C108 N9 1_555 1_555
C109 O20 1_555 1_555
C109 O21 1_555 1_555
C114 C115 1_555 1_555
C118 N10 1_555 1_555
C120 N10 1_555 1_555

#END
