
#######################################################################
#
#                 Cambridge Crystallographic Data Centre
#                                CCDC 
#
#######################################################################
#
# If this CIF has been generated from an entry in the Cambridge 
# Structural Database, then it will include bibliographic, chemical, 
# crystal, experimental, refinement or atomic coordinate data resulting 
# from the CCDC's data processing and validation procedures.
#
#######################################################################

data_WODVOB
_symmetry_cell_setting           monoclinic
_symmetry_space_group_name_H-M   'C 2/m'
_symmetry_Int_Tables_number      12
_space_group_name_Hall           '-C 2y'
loop_
_symmetry_equiv_pos_site_id
_symmetry_equiv_pos_as_xyz
1 x,y,z
2 1/2+x,1/2+y,z
3 -x,y,-z
4 1/2-x,1/2+y,-z
5 -x,-y,-z
6 1/2-x,1/2-y,-z
7 x,-y,z
8 1/2+x,1/2-y,z
_cell_length_a                   24.361(5)
_cell_length_b                   15.388(4)
_cell_length_c                   11.609(3)
_cell_angle_alpha                90
_cell_angle_beta                 118.460(17)
_cell_angle_gamma                90
_cell_volume                     3825.91
loop_
_atom_site_label
_atom_site_type_symbol
_atom_site_fract_x
_atom_site_fract_y
_atom_site_fract_z
O9 O 0.032(2) -0.356(3) 0.515(6)
H23 H 0.038(2) -0.385(3) 0.571(5)
H24 H 0.0000 -0.306(5) 0.5000
O9B O -0.032(2) -0.356(3) 0.485(6)
H23B H -0.038(2) -0.385(3) 0.429(5)
Cd1 Cd 0.09199(2) 0.0000 0.69655(5)
O1 O 0.1341(4) -0.1401(5) 0.8026(8)
O2 O 0.0084(3) 0.0929(4) 0.6665(7)
O3 O 0.0998(5) 0.0000 0.9095(9)
O4 O 0.1961(3) 0.0000 0.7291(9)
N1 N 0.4756(5) 0.0000 1.0099(13)
C1 C 0.2970(6) 0.0000 0.6837(13)
C2 C -0.1374(5) 0.2754(8) 0.7540(10)
H1 H -0.1579 0.3087 0.7886
O5 O 0.0169(3) 0.1943(6) 0.8575(9)
H2 H 0.0316 0.1625 0.8226
C3 C -0.0459(4) 0.2042(8) 0.7761(10)
O6 O 0.2605(5) 0.0000 0.9472(12)
C4 C 0.3481(7) 0.0000 0.6580(16)
H3 H 0.3422 0.0000 0.5726
C5 C 0.4169(5) 0.0000 0.8920(15)
C6 C 0.4070(6) 0.0000 0.7637(18)
H4 H 0.4414 0.0000 0.7491
C7 C -0.1721(4) 0.2414(6) 0.6265(10)
C8 C 0.2520(5) 0.0000 0.8369(13)
C9 C 0.3665(5) 0.0000 0.9149(12)
H5 H 0.3727 0.0000 1.0004
N2 N -0.2365(4) 0.2617(6) 0.5591(9)
C10 C -0.0795(3) 0.1709(5) 0.6505(8)
C11 C -0.1418(4) 0.1889(5) 0.5779(8)
H6 H -0.1641 0.1655 0.4943
C12 C -0.0488(3) 0.1139(4) 0.5920(8)
C13 C 0.3053(5) 0.0000 0.8091(14)
C14 C -0.0755(6) 0.2616(9) 0.8278(12)
H7 H -0.0528 0.2882 0.9089
O7 O 0.2380(5) 0.0000 0.5774(12)
H8 H 0.2119 0.0000 0.6030
O8 O -0.0803(3) 0.0912(4) 0.4771(6)
N3 N 0.1416(7) 0.0000 1.1289(13)
C15 C 0.1477(7) 0.0000 1.0242(14)
H9 H 0.1875 0.0000 1.0320
C16 C 0.0781(10) 0.0000 1.117(2)
H10 H 0.0474 0.0000 1.0258
H11 H 0.0729 0.0509 1.1583
H12 H 0.0729 -0.0509 1.1583
C17 C 0.1982(15) 0.0000 1.252(2)
H13 H 0.2336 0.0000 1.2371
H14 H 0.1994 -0.0509 1.3014
H15 H 0.1994 0.0509 1.3014
C18 C 0.1665(6) -0.1948(7) 0.7814(15)
H16 H 0.1855 -0.1775 0.7321
N4 N 0.1753(7) -0.2770(8) 0.8259(17)
C19 C 0.142(2) -0.311(2) 0.888(6)
H17 H 0.1188 -0.2651 0.9024
H18 H 0.1703 -0.3363 0.9711
H19 H 0.1129 -0.3549 0.8336
C20 C 0.2166(10) -0.3297(11) 0.803(2)
H20 H 0.2234 -0.3040 0.7352
H21 H 0.1987 -0.3865 0.7755
H22 H 0.2557 -0.3345 0.8818
Cd1E Cd -0.59199(2) 0.5000 0.30345(5)
Cd1D Cd -0.09199(2) 0.0000 0.30345(5)
Cd1A Cd -0.40801(2) 0.5000 0.69655(5)
Cd1D_2 Cd 0.90801(2) 0.0000 1.30345(5)
Cd1E_2 Cd -0.59199(2) -0.5000 0.30345(5)
Cd1A_2 Cd -0.40801(2) -0.5000 0.69655(5)
O1F O 0.1341(4) 0.1401(5) 0.8026(8)
O1E O -0.6341(4) 0.6401(5) 0.1974(8)
O1C O -0.6341(4) 0.3599(5) 0.1974(8)
O2E O -0.5084(3) 0.4071(4) 0.3335(7)
O2F O 0.0084(3) -0.0929(4) 0.6665(7)
O2C O -0.5084(3) -0.4071(4) 0.3335(7)
O2C_2 O -0.5084(3) 0.5929(4) 0.3335(7)
O3E O -0.5998(5) 0.5000 0.0905(9)
O4D O 0.8039(3) 0.0000 1.2709(9)
O4E O -0.6961(3) 0.5000 0.2709(9)
N1D N 0.5244(5) 0.0000 0.9901(13)
C1D C 0.7030(6) 0.0000 1.3163(13)
C2E C -0.3626(5) 0.2246(8) 0.2460(10)
C2F C -0.1374(5) -0.2754(8) 0.7540(10)
C2C C -0.3626(5) -0.2246(8) 0.2460(10)
H1E H -0.3421 0.1913 0.2114
H1F H -0.1579 -0.3087 0.7886
H1C H -0.3421 -0.1913 0.2114
O5E O -0.5169(3) 0.3057(6) 0.1425(9)
O5F O 0.0169(3) -0.1943(6) 0.8575(9)
O5C O -0.5169(3) -0.3057(6) 0.1425(9)
H2E H -0.5316 0.3375 0.1774
H2F H 0.0316 -0.1625 0.8226
H2C H -0.5316 -0.3375 0.1774
C3E C -0.4541(4) 0.2958(8) 0.2239(10)
C3F C -0.0459(4) -0.2042(8) 0.7761(10)
C3C C -0.4541(4) -0.2958(8) 0.2239(10)
O6D O 0.7395(5) 0.0000 1.0528(12)
C4D C 0.6519(7) 0.0000 1.3420(16)
H3D H 0.6578 0.0000 1.4274
C5D C 0.5831(5) 0.0000 1.1080(15)
C6D C 0.5930(6) 0.0000 1.2363(18)
H4D H 0.5586 0.0000 1.2509
C7E C -0.3279(4) 0.2586(6) 0.3735(10)
C7F C -0.1721(4) -0.2414(6) 0.6265(10)
C7C C -0.3279(4) -0.2586(6) 0.3735(10)
C8D C 0.7480(5) 0.0000 1.1631(13)
C9D C 0.6335(5) 0.0000 1.0851(12)
H5D H 0.6273 0.0000 0.9996
N2E N -0.2635(4) 0.2383(6) 0.4409(9)
N2F N -0.2365(4) -0.2617(6) 0.5591(9)
N2C N -0.2635(4) -0.2383(6) 0.4409(9)
C10E C -0.4205(3) 0.3291(5) 0.3495(8)
C10F C -0.0795(3) -0.1709(5) 0.6505(8)
C10C C -0.4205(3) -0.3291(5) 0.3495(8)
C11E C -0.3582(4) 0.3111(5) 0.4221(8)
C11F C -0.1418(4) -0.1889(5) 0.5779(8)
C11C C -0.3582(4) -0.3111(5) 0.4221(8)
H6E H -0.3359 0.3345 0.5057
H6F H -0.1641 -0.1655 0.4943
H6C H -0.3359 -0.3345 0.5057
C12E C -0.4512(3) 0.3861(4) 0.4080(8)
C12F C -0.0488(3) -0.1139(4) 0.5920(8)
C12C C -0.4512(3) -0.3861(4) 0.4080(8)
C13D C 0.6947(5) 0.0000 1.1909(14)
C14E C -0.4245(6) 0.2384(9) 0.1722(12)
C14F C -0.0755(6) -0.2616(9) 0.8278(12)
C14C C -0.4245(6) -0.2384(9) 0.1722(12)
H7E H -0.4472 0.2118 0.0911
H7F H -0.0528 -0.2882 0.9089
H7C H -0.4472 -0.2118 0.0911
O7D O 0.7620(5) 0.0000 1.4226(12)
H8D H 0.7881 0.0000 1.3970
O8E O -0.4197(3) 0.4088(4) 0.5229(6)
O8F O -0.0803(3) -0.0912(4) 0.4771(6)
O8C O -0.4197(3) -0.4088(4) 0.5229(6)
O8D O 0.0803(3) -0.0912(4) 0.5229(6)
O8B O 0.0803(3) 0.0912(4) 0.5229(6)
O8A O -0.5803(3) 0.5912(4) 0.4771(6)
O8G O -0.5803(3) 0.4088(4) 0.4771(6)
N3E N -0.6416(7) 0.5000 -0.1289(13)
C15E C -0.6477(7) 0.5000 -0.0242(14)
H9E H -0.6875 0.5000 -0.0320
C16E C -0.5781(10) 0.5000 -0.117(2)
H10E H -0.5474 0.5000 -0.0258
H11E H -0.5729 0.4491 -0.1583
H12E H -0.5729 0.5509 -0.1583
C17E C -0.6982(15) 0.5000 -0.252(2)
H13E H -0.7336 0.5000 -0.2371
H14E H -0.6994 0.5509 -0.3014
H15E H -0.6994 0.4491 -0.3014
C18F C 0.1665(6) 0.1948(7) 0.7814(15)
C18E C -0.6665(6) 0.6948(7) 0.2186(15)
C18C C -0.6665(6) 0.3052(7) 0.2186(15)
H16F H 0.1855 0.1775 0.7321
H16E H -0.6855 0.6775 0.2679
H16C H -0.6855 0.3225 0.2679
N4F N 0.1753(7) 0.2770(8) 0.8259(17)
N4E N -0.6753(7) 0.7770(8) 0.1741(17)
N4C N -0.6753(7) 0.2230(8) 0.1741(17)
C19F C 0.142(2) 0.311(2) 0.888(6)
C19E C -0.642(2) 0.811(2) 0.112(6)
C19C C -0.642(2) 0.189(2) 0.112(6)
H17F H 0.1188 0.2651 0.9024
H17E H -0.6188 0.7651 0.0976
H17C H -0.6188 0.2349 0.0976
H18F H 0.1703 0.3363 0.9711
H18E H -0.6703 0.8363 0.0289
H18C H -0.6703 0.1637 0.0289
H19F H 0.1129 0.3549 0.8336
H19E H -0.6129 0.8549 0.1664
H19C H -0.6129 0.1451 0.1664
C20F C 0.2166(10) 0.3297(11) 0.803(2)
C20E C -0.7166(10) 0.8297(11) 0.197(2)
C20C C -0.7166(10) 0.1703(11) 0.197(2)
H20F H 0.2234 0.3040 0.7352
H20E H -0.7234 0.8040 0.2648
H20C H -0.7234 0.1960 0.2648
H21F H 0.1987 0.3865 0.7755
H21E H -0.6987 0.8865 0.2245
H21C H -0.6987 0.1135 0.2245
H22F H 0.2557 0.3345 0.8818
H22E H -0.7557 0.8345 0.1182
H22C H -0.7557 0.1655 0.1182
loop_
_geom_bond_atom_site_label_1
_geom_bond_atom_site_label_2
_geom_bond_site_symmetry_1
_geom_bond_site_symmetry_2
Cd1 O1 1_555 1_555
O1 C18 1_555 1_555
O2 Cd1 1_555 1_555
O3 Cd1 1_555 1_555
O4 Cd1 1_555 1_555
N1 C5 1_555 1_555
C1 C4 1_555 1_555
C2 H1 1_555 1_555
O5 H2 1_555 1_555
C3 O5 1_555 1_555
O6 C8 1_555 1_555
C4 H3 1_555 1_555
C5 C6 1_555 1_555
C6 C4 1_555 1_555
H4 C6 1_555 1_555
C7 C2 1_555 1_555
C8 O4 1_555 1_555
C9 C5 1_555 1_555
H5 C9 1_555 1_555
N2 C7 1_555 1_555
C10 C3 1_555 1_555
C11 C7 1_555 1_555
H6 C11 1_555 1_555
C12 O2 1_555 1_555
C13 C1 1_555 1_555
C14 C2 1_555 1_555
H7 C14 1_555 1_555
O7 C1 1_555 1_555
H8 O7 1_555 1_555
O8 C12 1_555 1_555
N3 C15 1_555 1_555
C15 O3 1_555 1_555
H9 C15 1_555 1_555
C16 N3 1_555 1_555
H10 C16 1_555 1_555
H11 C16 1_555 1_555
H12 C16 1_555 1_555
C17 N3 1_555 1_555
H13 C17 1_555 1_555
H14 C17 1_555 1_555
H15 C17 1_555 1_555
C18 H16 1_555 1_555
N4 C18 1_555 1_555
C19 N4 1_555 1_555
H17 C19 1_555 1_555
H18 C19 1_555 1_555
H19 C19 1_555 1_555
C20 N4 1_555 1_555
H20 C20 1_555 1_555
H21 C20 1_555 1_555
H22 C20 1_555 1_555
O9 H23 1_555 1_555
H24 O9 1_555 1_555
Cd1E O1E 1_555 1_555
Cd1D O8 1_555 1_555
Cd1A O8E 1_555 1_555
Cd1D_2 O4D 1_555 1_555
Cd1E_2 O2C 1_555 1_555
Cd1A_2 O8C 1_555 1_555
O1F Cd1 1_555 1_555
O1E C18E 1_555 1_555
O1C Cd1E 1_555 1_555
O2E Cd1E 1_555 1_555
O2F Cd1 1_555 1_555
O2C C12C 1_555 1_555
O2C_2 Cd1E 1_555 1_555
O3E Cd1E 1_555 1_555
O4D C8D 1_555 1_555
O4E Cd1E 1_555 1_555
N1D N1 1_555 1_555
C1D C4D 1_555 1_555
C2E H1E 1_555 1_555
C2F H1F 1_555 1_555
C2C H1C 1_555 1_555
O5E H2E 1_555 1_555
O5F H2F 1_555 1_555
O5C H2C 1_555 1_555
C3E O5E 1_555 1_555
C3F O5F 1_555 1_555
C3C O5C 1_555 1_555
O6D C8D 1_555 1_555
C4D H3D 1_555 1_555
C5D N1D 1_555 1_555
C6D C4D 1_555 1_555
H4D C6D 1_555 1_555
C7E C2E 1_555 1_555
C7F C2F 1_555 1_555
C7C C2C 1_555 1_555
C8D C13D 1_555 1_555
C9D C5D 1_555 1_555
H5D C9D 1_555 1_555
N2E N2 1_555 1_555
N2F C7F 1_555 1_555
N2C C7C 1_555 1_555
C10E C3E 1_555 1_555
C10F C3F 1_555 1_555
C10C C3C 1_555 1_555
C11E C7E 1_555 1_555
C11F C7F 1_555 1_555
C11C C7C 1_555 1_555
H6E C11E 1_555 1_555
H6F C11F 1_555 1_555
H6C C11C 1_555 1_555
C12E O2E 1_555 1_555
C12F O2F 1_555 1_555
C12C C10C 1_555 1_555
C13D C1D 1_555 1_555
C14E C2E 1_555 1_555
C14F C2F 1_555 1_555
C14C C2C 1_555 1_555
H7E C14E 1_555 1_555
H7F C14F 1_555 1_555
H7C C14C 1_555 1_555
O7D C1D 1_555 1_555
H8D O7D 1_555 1_555
O8E C12E 1_555 1_555
O8F Cd1D 1_555 1_555
O8C C12C 1_555 1_555
O8D Cd1 1_555 1_555
O8B Cd1 1_555 1_555
O8A Cd1E 1_555 1_555
O8G Cd1E 1_555 1_555
N3E C15E 1_555 1_555
C15E O3E 1_555 1_555
H9E C15E 1_555 1_555
C16E N3E 1_555 1_555
H10E C16E 1_555 1_555
H11E C16E 1_555 1_555
H12E C16E 1_555 1_555
C17E N3E 1_555 1_555
H13E C17E 1_555 1_555
H14E C17E 1_555 1_555
H15E C17E 1_555 1_555
C18F O1F 1_555 1_555
C18E H16E 1_555 1_555
C18C O1C 1_555 1_555
H16F C18F 1_555 1_555
H16C C18C 1_555 1_555
N4F C18F 1_555 1_555
N4E C18E 1_555 1_555
N4C C18C 1_555 1_555
C19F N4F 1_555 1_555
C19E N4E 1_555 1_555
C19C N4C 1_555 1_555
H17F C19F 1_555 1_555
H17E C19E 1_555 1_555
H17C C19C 1_555 1_555
H18F C19F 1_555 1_555
H18E C19E 1_555 1_555
H18C C19C 1_555 1_555
H19F C19F 1_555 1_555
H19E C19E 1_555 1_555
H19C C19C 1_555 1_555
C20F N4F 1_555 1_555
C20E N4E 1_555 1_555
C20C N4C 1_555 1_555
H20F C20F 1_555 1_555
H20E C20E 1_555 1_555
H20C C20C 1_555 1_555
H21F C20F 1_555 1_555
H21E C20E 1_555 1_555
H21C C20C 1_555 1_555
H22F C20F 1_555 1_555
H22E C20E 1_555 1_555
H22C C20C 1_555 1_555
O9B O9 1_555 1_555
H23B O9B 1_555 1_555
C3 C14 1_555 1_555
C8 C13 1_555 1_555
C9 C13 1_555 1_555
C10 C11 1_555 1_555
C10 C12 1_555 1_555
H24 O9B 1_555 1_555
C3E C14E 1_555 1_555
C3F C14F 1_555 1_555
C3C C14C 1_555 1_555
C5D C6D 1_555 1_555
C7E N2E 1_555 1_555
C9D C13D 1_555 1_555
N2F N2C 1_555 1_555
C10E C11E 1_555 1_555
C10E C12E 1_555 1_555
C10F C11F 1_555 1_555
C10F C12F 1_555 1_555
C10C C11C 1_555 1_555
C12F O8F 1_555 1_555

#END
