
#######################################################################
#
#                 Cambridge Crystallographic Data Centre
#                                CCDC 
#
#######################################################################
#
# If this CIF has been generated from an entry in the Cambridge 
# Structural Database, then it will include bibliographic, chemical, 
# crystal, experimental, refinement or atomic coordinate data resulting 
# from the CCDC's data processing and validation procedures.
#
#######################################################################

data_WODWUJ
_symmetry_cell_setting           triclinic
_symmetry_space_group_name_H-M   'P -1'
_symmetry_Int_Tables_number      2
_space_group_name_Hall           '-P 1'
loop_
_symmetry_equiv_pos_site_id
_symmetry_equiv_pos_as_xyz
1 x,y,z
2 -x,-y,-z
_cell_length_a                   10.602(2)
_cell_length_b                   11.330(2)
_cell_length_c                   12.446(3)
_cell_angle_alpha                86.27(3)
_cell_angle_beta                 82.02(3)
_cell_angle_gamma                89.22(3)
_cell_volume                     1477.39
loop_
_atom_site_label
_atom_site_type_symbol
_atom_site_fract_x
_atom_site_fract_y
_atom_site_fract_z
Gd1 Gd 0.427481(18) -0.014022(16) 0.261441(15)
Zn1 Zn 0.63184(4) 0.33770(4) 0.29809(4)
O1 O 0.5342(3) 0.0888(2) 0.0937(2)
O2 O 0.5530(3) 0.1839(2) 0.2400(2)
O3 O 0.4141(3) 0.0756(3) 0.4327(2)
O4 O 0.1973(3) -0.0012(3) 0.3354(2)
O5 O 0.2759(3) 0.1420(3) 0.2175(3)
O6 O 0.4174(3) -0.2509(2) 0.5427(2)
O7 O 0.7005(3) -0.4974(2) 0.3249(2)
O8 O 0.6940(3) 0.1134(3) -0.1388(3)
O9 O 0.3920(3) -0.1798(2) 0.3769(2)
O10 O 0.4980(3) 0.1789(3) -0.1416(2)
O11 O 0.6416(3) -0.3175(3) 0.3766(3)
N1 N 0.4597(3) -0.5654(3) 0.3354(3)
O12 O 0.6406(3) -0.0689(3) 0.2958(3)
N2 N -0.1870(3) 0.2570(3) 0.2945(3)
N3 N 0.6477(4) 0.3754(3) 0.1227(3)
C1 C 0.4789(4) -0.4571(3) 0.3682(3)
C2 C 0.5663(4) 0.1777(3) 0.1370(3)
C3 C 0.3999(4) -0.2630(3) 0.4464(3)
C4 C 0.6186(4) -0.4196(4) 0.3561(3)
C5 C 0.3789(4) -0.3853(3) 0.4114(3)
C6 C 0.6187(4) 0.2838(3) 0.0674(3)
C7 C 0.1825(4) 0.0934(4) 0.2793(3)
C8 C 0.3400(4) -0.6056(4) 0.3429(4)
H1 H 0.3264 -0.6800 0.3193
C9 C 0.6046(5) 0.1849(4) -0.1105(3)
C10 C 0.2560(4) -0.4289(4) 0.4191(4)
H2 H 0.1870 -0.3835 0.4475
C11 C 0.0533(4) 0.1505(4) 0.2842(4)
C12 C 0.2365(4) -0.5393(4) 0.3849(4)
H3 H 0.1545 -0.5691 0.3900
C13 C 0.6324(5) 0.2875(4) -0.0456(3)
C14 C 0.0351(4) 0.2568(4) 0.2264(5)
H4 H 0.1031 0.2943 0.1827
C15 C -0.0514(4) 0.1002(4) 0.3482(4)
H5 H -0.0428 0.0299 0.3895
C16 C -0.1688(4) 0.1543(4) 0.3508(4)
H6 H -0.2385 0.1182 0.3933
C17 C -0.0849(5) 0.3061(4) 0.2345(4)
H7 H -0.0954 0.3778 0.1959
C18 C 0.6864(6) 0.4763(4) 0.0667(4)
H8 H 0.7052 0.5405 0.1045
C19 C 0.6737(7) 0.3921(5) -0.1013(4)
H9 H 0.6844 0.3979 -0.1769
C20 C 0.6993(7) 0.4882(5) -0.0455(4)
H10 H 0.7247 0.5597 -0.0826
Gd1A Gd 0.572519(18) 0.014022(16) -0.261441(15)
Zn1_2 Zn -0.36816(4) 0.33770(4) 0.29809(4)
Zn1_3 Zn 0.63184(4) -0.66230(4) 0.29809(4)
Zn1A Zn 0.36816(4) -0.33770(4) 0.70191(4)
O6A O 0.5826(3) 0.2509(2) 0.4573(2)
O7_2 O 0.7005(3) 0.5026(2) 0.3249(2)
O8A O 0.3060(3) -0.1134(3) 0.1388(3)
O10A O 0.5020(3) -0.1789(3) 0.1416(2)
N1_2 N 0.4597(3) 0.4346(3) 0.3354(3)
N2_2 N 0.8130(3) 0.2570(3) 0.2945(3)
O13 O 0.0479(6) 0.7908(6) 0.3783(10)
O14 O 0.7283(4) 0.7809(4) 0.0072(3)
O15 O 0.1911(5) 0.1921(4) 0.5193(4)
O16 O 0.0364(6) 0.4042(7) 0.7235(7)
O17 O 0.8387(6) 0.9574(9) 0.1287(6)
O18 O 0.9111(9) 0.1201(12) 0.9602(11)
O19 O 0.9639(10) 0.6484(14) 0.0482(8)
loop_
_geom_bond_atom_site_label_1
_geom_bond_atom_site_label_2
_geom_bond_site_symmetry_1
_geom_bond_site_symmetry_2
Gd1 O1 1_555 1_555
Zn1 O2 1_555 1_555
O1 C2 1_555 1_555
O2 Gd1 1_555 1_555
O3 Gd1 1_555 1_555
O4 Gd1 1_555 1_555
O5 Gd1 1_555 1_555
O6 C3 1_555 1_555
O7 C4 1_555 1_555
O8 C9 1_555 1_555
O9 Gd1 1_555 1_555
O10 C9 1_555 1_555
O11 C4 1_555 1_555
N1 C1 1_555 1_555
O12 Gd1 1_555 1_555
N2 C16 1_555 1_555
N3 Zn1 1_555 1_555
C1 C4 1_555 1_555
C2 O2 1_555 1_555
C3 O9 1_555 1_555
C5 C1 1_555 1_555
C6 N3 1_555 1_555
C7 O4 1_555 1_555
C8 N1 1_555 1_555
H1 C8 1_555 1_555
C9 C13 1_555 1_555
C10 C5 1_555 1_555
H2 C10 1_555 1_555
C11 C7 1_555 1_555
C12 C8 1_555 1_555
H3 C12 1_555 1_555
C13 C6 1_555 1_555
C14 C11 1_555 1_555
H4 C14 1_555 1_555
C15 C11 1_555 1_555
H5 C15 1_555 1_555
C16 C15 1_555 1_555
H6 C16 1_555 1_555
C17 N2 1_555 1_555
H7 C17 1_555 1_555
C18 N3 1_555 1_555
H8 C18 1_555 1_555
C19 C13 1_555 1_555
H9 C19 1_555 1_555
C20 C18 1_555 1_555
H10 C20 1_555 1_555
Gd1A O8 1_555 1_555
Zn1_2 N2 1_555 1_555
Zn1_3 O7 1_555 1_555
Zn1A O6 1_555 1_555
O6A Zn1 1_555 1_555
O7_2 Zn1 1_555 1_555
O8A Gd1 1_555 1_555
O10A Gd1 1_555 1_555
N1_2 Zn1 1_555 1_555
N2_2 Zn1 1_555 1_555
O5 C7 1_555 1_555
O10 Gd1A 1_555 1_555
N1 Zn1_3 1_555 1_555
C2 C6 1_555 1_555
C3 C5 1_555 1_555
C10 C12 1_555 1_555
C14 C17 1_555 1_555
C19 C20 1_555 1_555

#END
