
#######################################################################
#
#                 Cambridge Crystallographic Data Centre
#                                CCDC 
#
#######################################################################
#
# If this CIF has been generated from an entry in the Cambridge 
# Structural Database, then it will include bibliographic, chemical, 
# crystal, experimental, refinement or atomic coordinate data resulting 
# from the CCDC's data processing and validation procedures.
#
#######################################################################

data_WODWES
_symmetry_cell_setting           orthorhombic
_symmetry_space_group_name_H-M   'P b c a'
_symmetry_Int_Tables_number      61
_space_group_name_Hall           '-P 2ac 2ab'
loop_
_symmetry_equiv_pos_site_id
_symmetry_equiv_pos_as_xyz
1 x,y,z
2 1/2-x,-y,1/2+z
3 -x,1/2+y,1/2-z
4 1/2+x,1/2-y,-z
5 -x,-y,-z
6 1/2+x,y,1/2-z
7 x,1/2-y,1/2+z
8 1/2-x,1/2+y,z
_cell_length_a                   7.5923(17)
_cell_length_b                   18.203(4)
_cell_length_c                   30.102(7)
_cell_angle_alpha                90
_cell_angle_beta                 90
_cell_angle_gamma                90
_cell_volume                     4160.18
loop_
_atom_site_label
_atom_site_type_symbol
_atom_site_fract_x
_atom_site_fract_y
_atom_site_fract_z
Br1 Br 0.35251(4) 0.04080(2) 0.244513(13)
Cu1 Cu 0.09454(6) 0.10632(2) 0.221986(14)
N1 N 0.0626(3) 0.19429(15) 0.18638(8)
N2 N -0.0073(3) 0.30503(15) 0.16341(8)
H1 H -0.0400 0.3503 0.1640
C1 C 0.0165(4) 0.26113(19) 0.19918(10)
C2 C 0.0233(4) 0.2665(2) 0.32294(11)
C3 C -0.0091(4) 0.28552(17) 0.24524(10)
C4 C 0.0493(4) 0.24294(19) 0.28033(10)
H2 H 0.1058 0.1985 0.2750
N3 N 0.0843(4) 0.2188(2) 0.35960(11)
C5 C -0.0917(4) 0.3527(2) 0.25541(11)
H3 H -0.1319 0.3826 0.2325
C6 C 0.0300(4) 0.26462(19) 0.12598(10)
C7 C 0.1002(4) 0.12836(19) 0.11422(11)
C8 C -0.0140(5) 0.1112(2) 0.07970(12)
H4 H -0.1051 0.1434 0.0726
C9 C 0.0695(4) 0.19542(19) 0.14043(10)
O1 O 0.1476(4) 0.15955(18) 0.35041(9)
C10 C -0.1135(4) 0.3745(2) 0.29893(12)
H5 H -0.1681 0.4191 0.3050
C11 C 0.0274(5) 0.29700(19) 0.08079(11)
O2 O 0.0684(4) 0.24115(18) 0.39753(9)
C12 C 0.1544(6) 0.2773(2) 0.05025(12)
H6 H 0.2424 0.2444 0.0583
C13 C -0.0560(4) 0.3317(2) 0.33327(12)
H7 H -0.0704 0.3464 0.3626
C14 C -0.0987(7) 0.3765(3) 0.02602(15)
H8 H -0.1843 0.4106 0.0180
C15 C 0.0059(6) 0.0473(2) 0.05585(13)
H9 H -0.0710 0.0365 0.0327
C16 C 0.1394(7) -0.0002(2) 0.06626(15)
H10 H 0.1529 -0.0435 0.0503
C17 C 0.2523(6) 0.0158(2) 0.09997(14)
H11 H 0.3427 -0.0167 0.1070
C18 C 0.2335(5) 0.0796(2) 0.12366(12)
H12 H 0.3122 0.0901 0.1465
C19 C 0.1519(6) 0.3061(2) 0.00780(13)
H13 H 0.2360 0.2915 -0.0129
C20 C -0.0986(5) 0.3468(2) 0.06836(13)
H14 H -0.1849 0.3608 0.0886
C21 C 0.0259(7) 0.3560(3) -0.00380(14)
H15 H 0.0255 0.3760 -0.0322
Br1E Br -0.14749(4) 0.04080(2) 0.255487(13)
Cu1E Cu 0.59454(6) 0.10632(2) 0.278014(14)
O3 O -0.0964(4) 0.45624(15) 0.16459(9)
O4? O 0.2314(8) -0.0099(3) 0.35941(19)
loop_
_geom_bond_atom_site_label_1
_geom_bond_atom_site_label_2
_geom_bond_site_symmetry_1
_geom_bond_site_symmetry_2
Br1 Cu1 1_555 1_555
Cu1 N1 1_555 1_555
N1 C1 1_555 1_555
N2 H1 1_555 1_555
C1 N2 1_555 1_555
C2 C4 1_555 1_555
C3 C1 1_555 1_555
C4 C3 1_555 1_555
H2 C4 1_555 1_555
N3 C2 1_555 1_555
C5 C3 1_555 1_555
H3 C5 1_555 1_555
C6 N2 1_555 1_555
C7 C8 1_555 1_555
C8 H4 1_555 1_555
C9 N1 1_555 1_555
O1 N3 1_555 1_555
C10 C5 1_555 1_555
H5 C10 1_555 1_555
C11 C6 1_555 1_555
O2 N3 1_555 1_555
C12 C11 1_555 1_555
H6 C12 1_555 1_555
C13 C2 1_555 1_555
H7 C13 1_555 1_555
C14 H8 1_555 1_555
C15 C8 1_555 1_555
H9 C15 1_555 1_555
C16 C15 1_555 1_555
H10 C16 1_555 1_555
C17 C16 1_555 1_555
H11 C17 1_555 1_555
C18 C7 1_555 1_555
H12 C18 1_555 1_555
C19 C12 1_555 1_555
H13 C19 1_555 1_555
C20 C11 1_555 1_555
H14 C20 1_555 1_555
C21 C14 1_555 1_555
H15 C21 1_555 1_555
Br1E Cu1 1_555 1_555
Cu1E Br1 1_555 1_555
C6 C9 1_555 1_555
C7 C9 1_555 1_555
C10 C13 1_555 1_555
C14 C20 1_555 1_555
C17 C18 1_555 1_555
C19 C21 1_555 1_555

#END
