
#######################################################################
#
#                 Cambridge Crystallographic Data Centre
#                                CCDC 
#
#######################################################################
#
# If this CIF has been generated from an entry in the Cambridge 
# Structural Database, then it will include bibliographic, chemical, 
# crystal, experimental, refinement or atomic coordinate data resulting 
# from the CCDC's data processing and validation procedures.
#
#######################################################################

data_WODWAO
_symmetry_cell_setting           triclinic
_symmetry_space_group_name_H-M   'P -1'
_symmetry_Int_Tables_number      2
_space_group_name_Hall           '-P 1'
loop_
_symmetry_equiv_pos_site_id
_symmetry_equiv_pos_as_xyz
1 x,y,z
2 -x,-y,-z
_cell_length_a                   11.0486(7)
_cell_length_b                   15.4850(10)
_cell_length_c                   16.3158(11)
_cell_angle_alpha                102.0430(10)
_cell_angle_beta                 102.7270(10)
_cell_angle_gamma                94.078(2)
_cell_volume                     2642.79
loop_
_atom_site_label
_atom_site_type_symbol
_atom_site_fract_x
_atom_site_fract_y
_atom_site_fract_z
C1 C 0.3778(6) 0.5234(4) 0.5711(4)
C2 C 0.2773(5) 0.5726(4) 0.5439(4)
H1 H 0.2858 0.6136 0.5106
C3 C 0.1650(7) 0.5570(5) 0.5694(5)
H2 H 0.0964 0.5821 0.5444
C4 C 0.1488(8) 0.5090(6) 0.6264(6)
H3 H 0.0768 0.5067 0.6469
C5 C 0.2539(8) 0.4601(5) 0.6538(6)
H4 H 0.2467 0.4214 0.6895
C6 C 0.3657(6) 0.4714(5) 0.6267(5)
H5 H 0.4326 0.4424 0.6475
C7 C 0.5001(5) 0.5344(4) 0.5408(4)
C8 C 0.6204(7) 0.6620(5) 0.5723(4)
C9 C 0.7120(9) 0.7461(5) 0.5993(7)
C10 C 0.8289(9) 0.7156(6) 0.5601(6)
H6 H 0.8017 0.6841 0.4999
H7 H 0.8902 0.7659 0.5658
C11 C 0.8775(7) 0.6571(6) 0.6151(5)
H8 H 0.9648 0.6770 0.6432
H9 H 0.8709 0.5969 0.5809
C12 C 0.7968(7) 0.6592(5) 0.6864(6)
H10 H 0.8319 0.6408 0.7398
C13 C 0.6763(7) 0.6069(5) 0.6248(4)
C14 C 0.7552(7) 0.7522(5) 0.6917(5)
C15 C 0.8668(7) 0.8285(5) 0.7399(5)
H11 H 0.9173 0.8378 0.7008
H12 H 0.9171 0.8114 0.7884
H13 H 0.8337 0.8826 0.7596
C16 C 0.6540(10) 0.7680(6) 0.7423(7)
H14 H 0.6391 0.8291 0.7502
H15 H 0.6814 0.7542 0.7977
H16 H 0.5781 0.7304 0.7107
C17 C 0.6700(9) 0.8237(6) 0.5587(5)
H17 H 0.5803 0.8183 0.5431
H18 H 0.7014 0.8220 0.5081
H19 H 0.7020 0.8791 0.5997
C18 C 0.0504(6) 0.7088(4) 0.0836(4)
C19 C 0.0602(8) 0.6306(5) 0.1116(5)
H20 H 0.1355 0.6195 0.1441
C20 C -0.0466(7) 0.5690(6) 0.0896(5)
H21 H -0.0416 0.5184 0.1118
C21 C -0.1560(9) 0.5776(6) 0.0388(5)
H22 H -0.2243 0.5344 0.0266
C22 C -0.1649(8) 0.6520(5) 0.0050(6)
H23 H -0.2374 0.6583 -0.0337
C23 C -0.0616(7) 0.7180(5) 0.0306(5)
H24 H -0.0689 0.7701 0.0111
C24 C 0.1606(7) 0.7782(4) 0.1042(4)
C25 C 0.3141(6) 0.7471(4) 0.0439(4)
C26 C 0.4169(8) 0.7218(6) -0.0059(5)
C27 C 0.4978(8) 0.8171(5) 0.0164(5)
H25 H 0.5106 0.8455 0.0770
H26 H 0.5787 0.8115 0.0032
C28 C 0.4187(7) 0.8728(5) -0.0422(5)
H27 H 0.4578 0.8823 -0.0879
H28 H 0.4086 0.9300 -0.0083
C29 C 0.2863(7) 0.8106(5) -0.0811(5)
H29 H 0.2289 0.8265 -0.1291
C30 C 0.2355(7) 0.8017(4) -0.0054(4)
C31 C 0.3313(7) 0.7138(5) -0.1007(5)
C32 C 0.2226(8) 0.6410(5) -0.1256(5)
H30 H 0.1468 0.6644 -0.1471
H31 H 0.2157 0.6188 -0.0759
H32 H 0.2360 0.5935 -0.1697
C33 C 0.4174(7) 0.7035(5) -0.1649(5)
H33 H 0.4353 0.6430 -0.1775
H34 H 0.4940 0.7424 -0.1395
H35 H 0.3759 0.7185 -0.2173
C34 C 0.4505(7) 0.6290(5) 0.0000(5)
H36 H 0.4772 0.6269 0.0596
H37 H 0.5168 0.6158 -0.0282
H38 H 0.3785 0.5859 -0.0276
C35 C 0.2943(7) 0.9157(4) 0.2293(5)
C36 C 0.3545(7) 0.9527(5) 0.1761(5)
H39 H 0.3215 0.9385 0.1167
C37 C 0.4641(6) 1.0108(5) 0.2116(5)
H40 H 0.5044 1.0356 0.1760
C38 C 0.5135(7) 1.0321(5) 0.3004(5)
H41 H 0.5869 1.0710 0.3242
C39 C 0.4533(7) 0.9951(5) 0.3537(4)
H42 H 0.4863 1.0093 0.4131
C40 C 0.3437(6) 0.9370(5) 0.3181(4)
H43 H 0.3033 0.9122 0.3537
C41 C 0.1733(7) 0.8524(4) 0.1915(4)
C42 C 0.0343(7) 0.8344(4) 0.2691(5)
C43 C -0.0670(7) 0.8237(5) 0.3185(4)
C44 C -0.1782(6) 0.7644(5) 0.2481(4)
H44 H -0.2430 0.7433 0.2733
H45 H -0.1503 0.7140 0.2140
C45 C -0.2235(7) 0.8335(5) 0.1933(5)
H46 H -0.3078 0.8449 0.1962
H47 H -0.2224 0.8113 0.1334
C46 C -0.1274(6) 0.9223(5) 0.2350(5)
H48 H -0.1524 0.9781 0.2213
C47 C -0.0093(7) 0.8927(5) 0.2150(5)
C48 C -0.1006(7) 0.9159(5) 0.3304(4)
C49 C 0.0108(8) 0.9853(6) 0.3840(5)
H49 H 0.0662 0.9585 0.4227
H50 H -0.0195 1.0345 0.4166
H51 H 0.0549 1.0062 0.3460
C50 C -0.2109(8) 0.9272(5) 0.3704(5)
H52 H -0.2558 0.8699 0.3642
H53 H -0.2652 0.9633 0.3419
H54 H -0.1818 0.9556 0.4306
C51 C -0.0455(8) 0.7828(5) 0.3975(5)
H55 H 0.0057 0.8253 0.4466
H56 H -0.0042 0.7306 0.3863
H57 H -0.1244 0.7668 0.4093
N1 N 0.5176(5) 0.6277(4) 0.5225(4)
N2 N 0.6059(5) 0.5331(4) 0.6109(4)
N3 N 0.2777(5) 0.7350(3) 0.1088(3)
N4 N 0.1499(5) 0.8250(3) 0.0318(3)
N5 N 0.1408(5) 0.8072(4) 0.2570(4)
N6 N 0.0665(5) 0.9079(4) 0.1691(4)
Cu1 Cu 0.41441(11) 0.69508(7) 0.44982(7)
Cu2 Cu 0.66041(10) 0.45081(7) 0.69376(6)
Cu3 Cu 0.35926(10) 0.67041(7) 0.19370(7)
Cu4 Cu 0.24194(10) 0.73739(7) 0.33162(6)
Cu5 Cu 0.05220(8) 0.94248(7) 0.05232(6)
Br1 Br 0.49345(8) 0.74009(5) 0.33209(6)
Br2 Br 0.60962(7) 0.48261(5) 0.83133(4)
Br3 Br 0.85848(7) 0.40899(5) 0.67739(5)
Br4 Br 0.29203(7) 0.81115(5) 0.49169(5)
Br5 Br 0.17097(7) 1.06421(5) 0.02058(5)
C1A C 0.6222(6) 0.4766(4) 0.4289(4)
C2A C 0.7227(5) 0.4274(4) 0.4561(4)
H1A H 0.7142 0.3864 0.4894
C3A C 0.8350(7) 0.4430(5) 0.4306(5)
H2A H 0.9036 0.4179 0.4556
C4A C 0.8512(8) 0.4910(6) 0.3736(6)
H3A H 0.9232 0.4933 0.3531
C5A C 0.7461(8) 0.5399(5) 0.3462(6)
H4A H 0.7533 0.5786 0.3105
C6A C 0.6343(6) 0.5286(5) 0.3733(5)
H5A H 0.5674 0.5576 0.3525
C7A C 0.4999(5) 0.4656(4) 0.4592(4)
C8A C 0.3796(7) 0.3380(5) 0.4277(4)
C9A C 0.2880(9) 0.2539(5) 0.4007(7)
C10A C 0.1711(9) 0.2844(6) 0.4399(6)
H6A H 0.1983 0.3159 0.5001
H7A H 0.1098 0.2341 0.4342
C11A C 0.1225(7) 0.3429(6) 0.3849(5)
H8A H 0.0352 0.3230 0.3568
H9A H 0.1291 0.4031 0.4191
C12A C 0.2032(7) 0.3408(5) 0.3136(6)
H10A H 0.1681 0.3592 0.2602
C13A C 0.3237(7) 0.3931(5) 0.3752(4)
C14A C 0.2448(7) 0.2478(5) 0.3083(5)
C15A C 0.1332(7) 0.1715(5) 0.2601(5)
H11A H 0.0827 0.1622 0.2992
H12A H 0.0829 0.1886 0.2116
H13A H 0.1663 0.1174 0.2404
C16A C 0.3460(10) 0.2320(6) 0.2577(7)
H14A H 0.3609 0.1709 0.2498
H15A H 0.3186 0.2458 0.2023
H16A H 0.4219 0.2696 0.2893
C17A C 0.3300(9) 0.1763(6) 0.4413(5)
H17A H 0.4197 0.1817 0.4569
H18A H 0.2986 0.1780 0.4919
H19A H 0.2980 0.1209 0.4003
C18A C 0.9496(6) 0.2912(4) 0.9164(4)
C19A C 0.9398(8) 0.3694(5) 0.8884(5)
H20A H 0.8645 0.3805 0.8559
C20A C 1.0466(7) 0.4310(6) 0.9104(5)
H21A H 1.0416 0.4816 0.8882
C21A C 1.1560(9) 0.4224(6) 0.9612(5)
H22A H 1.2243 0.4656 0.9734
C22A C 1.1649(8) 0.3480(5) 0.9950(6)
H23A H 1.2374 0.3417 1.0337
C23A C 1.0616(7) 0.2820(5) 0.9694(5)
H24A H 1.0689 0.2299 0.9889
C24A C 0.8394(7) 0.2218(4) 0.8958(4)
C25A C 0.6859(6) 0.2529(4) 0.9561(4)
C26A C 0.5831(8) 0.2782(6) 1.0059(5)
C27A C 0.5022(8) 0.1829(5) 0.9836(5)
H25A H 0.4894 0.1545 0.9230
H26A H 0.4213 0.1885 0.9968
C28A C 0.5813(7) 0.1272(5) 1.0422(5)
H27A H 0.5422 0.1177 1.0879
H28A H 0.5914 0.0700 1.0083
C29A C 0.7137(7) 0.1894(5) 1.0811(5)
H29A H 0.7711 0.1735 1.1291
C30A C 0.7645(7) 0.1983(4) 1.0054(4)
C31A C 0.6687(7) 0.2862(5) 1.1007(5)
C32A C 0.7774(8) 0.3590(5) 1.1256(5)
H30A H 0.8532 0.3356 1.1471
H31A H 0.7843 0.3812 1.0759
H32A H 0.7640 0.4065 1.1697
C33A C 0.5826(7) 0.2965(5) 1.1649(5)
H33A H 0.5647 0.3570 1.1775
H34A H 0.5060 0.2576 1.1395
H35A H 0.6241 0.2815 1.2173
C34A C 0.5495(7) 0.3710(5) 1.0000(5)
H36A H 0.5228 0.3731 0.9404
H37A H 0.4832 0.3842 1.0282
H38A H 0.6215 0.4141 1.0276
C35A C 0.7057(7) 0.0843(4) 0.7707(5)
C36A C 0.6455(7) 0.0473(5) 0.8239(5)
H39A H 0.6785 0.0615 0.8833
C37A C 0.5359(6) -0.0108(5) 0.7884(5)
H40A H 0.4956 -0.0356 0.8240
C38A C 0.4865(7) -0.0321(5) 0.6996(5)
H41A H 0.4131 -0.0710 0.6758
C39A C 0.5467(7) 0.0049(5) 0.6463(4)
H42A H 0.5137 -0.0093 0.5869
C40A C 0.6563(6) 0.0630(5) 0.6819(4)
H43A H 0.6967 0.0878 0.6463
C41A C 0.8267(7) 0.1476(4) 0.8085(4)
C42A C 0.9657(7) 0.1656(4) 0.7309(5)
C43A C 1.0670(7) 0.1763(5) 0.6815(4)
C44A C 1.1782(6) 0.2356(5) 0.7519(4)
H44A H 1.2430 0.2567 0.7267
H45A H 1.1503 0.2860 0.7860
C45A C 1.2235(7) 0.1665(5) 0.8067(5)
H46A H 1.3078 0.1551 0.8038
H47A H 1.2224 0.1887 0.8666
C46A C 1.1274(6) 0.0777(5) 0.7650(5)
H48A H 1.1524 0.0219 0.7787
C47A C 1.0093(7) 0.1073(5) 0.7850(5)
C48A C 1.1006(7) 0.0841(5) 0.6696(4)
C49A C 0.9892(8) 0.0147(6) 0.6160(5)
H49A H 0.9338 0.0415 0.5773
H50A H 1.0195 -0.0345 0.5834
H51A H 0.9451 -0.0062 0.6540
C50A C 1.2109(8) 0.0728(5) 0.6296(5)
H52A H 1.2558 0.1301 0.6358
H53A H 1.2652 0.0367 0.6581
H54A H 1.1818 0.0444 0.5694
C51A C 1.0455(8) 0.2172(5) 0.6025(5)
H55A H 0.9943 0.1747 0.5534
H56A H 1.0042 0.2694 0.6137
H57A H 1.1244 0.2332 0.5907
N1A N 0.4824(5) 0.3723(4) 0.4775(4)
N2A N 0.3941(5) 0.4669(4) 0.3891(4)
N3A N 0.7223(5) 0.2650(3) 0.8912(3)
N4A N 0.8501(5) 0.1750(3) 0.9682(3)
N5A N 0.8592(5) 0.1928(4) 0.7430(4)
N6A N 0.9335(5) 0.0921(4) 0.8309(4)
Cu1A Cu 0.58559(11) 0.30492(7) 0.55018(7)
Cu2A Cu 0.33959(10) 0.54919(7) 0.30624(6)
Cu3A Cu 0.64074(10) 0.32959(7) 0.80630(7)
Cu4A Cu 0.75806(10) 0.26261(7) 0.66838(6)
Cu5A Cu 0.94780(8) 0.05752(7) 0.94768(6)
Cu5A_2 Cu -0.05220(8) 1.05752(7) -0.05232(6)
Cu5_2 Cu 1.05220(8) -0.05752(7) 1.05232(6)
Br1A Br 0.50655(8) 0.25991(5) 0.66791(6)
Br2A Br 0.39038(7) 0.51739(5) 0.16867(4)
Br3A Br 0.14152(7) 0.59101(5) 0.32261(5)
Br4A Br 0.70797(7) 0.18885(5) 0.50831(5)
Br5A Br -0.17097(7) 0.93579(5) -0.02058(5)
Br5_2 Br 1.17097(7) 0.06421(5) 1.02058(5)
Br5A_2 Br 0.82903(7) -0.06421(5) 0.97942(5)
O1 O 0.1281(9) 0.8383(7) 0.6390(6)
H58 H 0.1704 0.8315 0.6009
H59 H 0.0994 0.7877 0.6438
loop_
_geom_bond_atom_site_label_1
_geom_bond_atom_site_label_2
_geom_bond_site_symmetry_1
_geom_bond_site_symmetry_2
C1 C2 1_555 1_555
C2 H1 1_555 1_555
C3 C2 1_555 1_555
H2 C3 1_555 1_555
C4 C3 1_555 1_555
H3 C4 1_555 1_555
C5 C4 1_555 1_555
H4 C5 1_555 1_555
C6 C1 1_555 1_555
H5 C6 1_555 1_555
C7 C1 1_555 1_555
C8 C9 1_555 1_555
C9 C10 1_555 1_555
C10 H6 1_555 1_555
H7 C10 1_555 1_555
C11 C10 1_555 1_555
H8 C11 1_555 1_555
H9 C11 1_555 1_555
C12 C11 1_555 1_555
H10 C12 1_555 1_555
C13 C8 1_555 1_555
C14 C9 1_555 1_555
C15 C14 1_555 1_555
H11 C15 1_555 1_555
H12 C15 1_555 1_555
H13 C15 1_555 1_555
C16 C14 1_555 1_555
H14 C16 1_555 1_555
H15 C16 1_555 1_555
H16 C16 1_555 1_555
C17 C9 1_555 1_555
H17 C17 1_555 1_555
H18 C17 1_555 1_555
H19 C17 1_555 1_555
C18 C19 1_555 1_555
C19 H20 1_555 1_555
C20 C19 1_555 1_555
H21 C20 1_555 1_555
C21 C20 1_555 1_555
H22 C21 1_555 1_555
C22 C21 1_555 1_555
H23 C22 1_555 1_555
C23 C18 1_555 1_555
H24 C23 1_555 1_555
C24 C18 1_555 1_555
C25 C26 1_555 1_555
C26 C27 1_555 1_555
C27 H25 1_555 1_555
H26 C27 1_555 1_555
C28 C27 1_555 1_555
H27 C28 1_555 1_555
H28 C28 1_555 1_555
C29 C28 1_555 1_555
H29 C29 1_555 1_555
C30 C25 1_555 1_555
C31 C26 1_555 1_555
C32 C31 1_555 1_555
H30 C32 1_555 1_555
H31 C32 1_555 1_555
H32 C32 1_555 1_555
C33 C31 1_555 1_555
H33 C33 1_555 1_555
H34 C33 1_555 1_555
H35 C33 1_555 1_555
C34 C26 1_555 1_555
H36 C34 1_555 1_555
H37 C34 1_555 1_555
H38 C34 1_555 1_555
C35 C36 1_555 1_555
C36 H39 1_555 1_555
C37 C36 1_555 1_555
H40 C37 1_555 1_555
C38 C37 1_555 1_555
H41 C38 1_555 1_555
C39 C38 1_555 1_555
H42 C39 1_555 1_555
C40 C35 1_555 1_555
H43 C40 1_555 1_555
C41 C24 1_555 1_555
C42 C43 1_555 1_555
C43 C44 1_555 1_555
C44 H44 1_555 1_555
H45 C44 1_555 1_555
C45 C44 1_555 1_555
H46 C45 1_555 1_555
H47 C45 1_555 1_555
C46 C45 1_555 1_555
H48 C46 1_555 1_555
C47 C42 1_555 1_555
C48 C43 1_555 1_555
C49 C48 1_555 1_555
H49 C49 1_555 1_555
H50 C49 1_555 1_555
H51 C49 1_555 1_555
C50 C48 1_555 1_555
H52 C50 1_555 1_555
H53 C50 1_555 1_555
H54 C50 1_555 1_555
C51 C43 1_555 1_555
H55 C51 1_555 1_555
H56 C51 1_555 1_555
H57 C51 1_555 1_555
N1 C7 1_555 1_555
N2 C7 1_555 1_555
N3 C24 1_555 1_555
N4 C24 1_555 1_555
N5 C41 1_555 1_555
N6 C41 1_555 1_555
O1 H58 1_555 1_555
H59 O1 1_555 1_555
Cu1 N1 1_555 1_555
Cu2 N2 1_555 1_555
Cu3 N3 1_555 1_555
Cu4 N5 1_555 1_555
Cu5 N4 1_555 1_555
Br1 Cu1 1_555 1_555
Br2 Cu2 1_555 1_555
Br3 Cu2 1_555 1_555
Br4 Cu1 1_555 1_555
Br5 Cu5 1_555 1_555
C1A C2A 1_555 1_555
C2A H1A 1_555 1_555
C3A C2A 1_555 1_555
H2A C3A 1_555 1_555
C4A C3A 1_555 1_555
H3A C4A 1_555 1_555
C5A C4A 1_555 1_555
H4A C5A 1_555 1_555
C6A C1A 1_555 1_555
H5A C6A 1_555 1_555
C7A C7 1_555 1_555
C8A C9A 1_555 1_555
C9A C10A 1_555 1_555
C10A H6A 1_555 1_555
H7A C10A 1_555 1_555
C11A C10A 1_555 1_555
H8A C11A 1_555 1_555
H9A C11A 1_555 1_555
C12A C11A 1_555 1_555
H10A C12A 1_555 1_555
C13A C8A 1_555 1_555
C14A C9A 1_555 1_555
C15A C14A 1_555 1_555
H11A C15A 1_555 1_555
H12A C15A 1_555 1_555
H13A C15A 1_555 1_555
C16A C14A 1_555 1_555
H14A C16A 1_555 1_555
H15A C16A 1_555 1_555
H16A C16A 1_555 1_555
C17A C9A 1_555 1_555
H17A C17A 1_555 1_555
H18A C17A 1_555 1_555
H19A C17A 1_555 1_555
C18A C19A 1_555 1_555
C19A H20A 1_555 1_555
C20A C19A 1_555 1_555
H21A C20A 1_555 1_555
C21A C20A 1_555 1_555
H22A C21A 1_555 1_555
C22A C21A 1_555 1_555
H23A C22A 1_555 1_555
C23A C18A 1_555 1_555
H24A C23A 1_555 1_555
C24A C18A 1_555 1_555
C25A C26A 1_555 1_555
C26A C27A 1_555 1_555
C27A H25A 1_555 1_555
H26A C27A 1_555 1_555
C28A C27A 1_555 1_555
H27A C28A 1_555 1_555
H28A C28A 1_555 1_555
C29A C28A 1_555 1_555
H29A C29A 1_555 1_555
C30A C25A 1_555 1_555
C31A C26A 1_555 1_555
C32A C31A 1_555 1_555
H30A C32A 1_555 1_555
H31A C32A 1_555 1_555
H32A C32A 1_555 1_555
C33A C31A 1_555 1_555
H33A C33A 1_555 1_555
H34A C33A 1_555 1_555
H35A C33A 1_555 1_555
C34A C26A 1_555 1_555
H36A C34A 1_555 1_555
H37A C34A 1_555 1_555
H38A C34A 1_555 1_555
C35A C36A 1_555 1_555
C36A H39A 1_555 1_555
C37A C36A 1_555 1_555
H40A C37A 1_555 1_555
C38A C37A 1_555 1_555
H41A C38A 1_555 1_555
C39A C38A 1_555 1_555
H42A C39A 1_555 1_555
C40A C35A 1_555 1_555
H43A C40A 1_555 1_555
C41A C24A 1_555 1_555
C42A C43A 1_555 1_555
C43A C44A 1_555 1_555
C44A H44A 1_555 1_555
H45A C44A 1_555 1_555
C45A C44A 1_555 1_555
H46A C45A 1_555 1_555
H47A C45A 1_555 1_555
C46A C45A 1_555 1_555
H48A C46A 1_555 1_555
C47A C42A 1_555 1_555
C48A C43A 1_555 1_555
C49A C48A 1_555 1_555
H49A C49A 1_555 1_555
H50A C49A 1_555 1_555
H51A C49A 1_555 1_555
C50A C48A 1_555 1_555
H52A C50A 1_555 1_555
H53A C50A 1_555 1_555
H54A C50A 1_555 1_555
C51A C43A 1_555 1_555
H55A C51A 1_555 1_555
H56A C51A 1_555 1_555
H57A C51A 1_555 1_555
N1A C7A 1_555 1_555
N2A C7A 1_555 1_555
N3A C24A 1_555 1_555
N4A C24A 1_555 1_555
N5A C41A 1_555 1_555
N6A C41A 1_555 1_555
Cu1A Cu2 1_555 1_555
Cu2A Cu1 1_555 1_555
Cu3A Cu2 1_555 1_555
Cu4A Br3 1_555 1_555
Cu5A N4A 1_555 1_555
Cu5A_2 Cu5 1_555 1_555
Cu5_2 Cu5A 1_555 1_555
Br1A Cu1A 1_555 1_555
Br2A Cu3 1_555 1_555
Br3A Cu4 1_555 1_555
Br4A Cu1A 1_555 1_555
Br5A Cu5 1_555 1_555
Br5_2 Cu5A 1_555 1_555
Br5A_2 Cu5A 1_555 1_555
C5 C6 1_555 1_555
C8 N1 1_555 1_555
C12 C13 1_555 1_555
C12 C14 1_555 1_555
C13 N2 1_555 1_555
C22 C23 1_555 1_555
C25 N3 1_555 1_555
C29 C30 1_555 1_555
C29 C31 1_555 1_555
C30 N4 1_555 1_555
C35 C41 1_555 1_555
C39 C40 1_555 1_555
C42 N5 1_555 1_555
C46 C47 1_555 1_555
C46 C48 1_555 1_555
C47 N6 1_555 1_555
N6 Cu5 1_555 1_555
Cu1 Cu4 1_555 1_555
Cu3 Cu4 1_555 1_555
Cu3 Br1 1_555 1_555
Cu3 Cu2A 1_555 1_555
Cu4 Br1 1_555 1_555
Cu4 Br4 1_555 1_555
Br2 Cu3A 1_555 1_555
Br5 Cu5A_2 1_555 1_555
C1A C7A 1_555 1_555
C5A C6A 1_555 1_555
C8A N1A 1_555 1_555
C12A C13A 1_555 1_555
C12A C14A 1_555 1_555
C13A N2A 1_555 1_555
C22A C23A 1_555 1_555
C25A N3A 1_555 1_555
C29A C30A 1_555 1_555
C29A C31A 1_555 1_555
C30A N4A 1_555 1_555
C35A C41A 1_555 1_555
C39A C40A 1_555 1_555
C42A N5A 1_555 1_555
C46A C47A 1_555 1_555
C46A C48A 1_555 1_555
C47A N6A 1_555 1_555
N1A Cu1A 1_555 1_555
N2A Cu2A 1_555 1_555
N3A Cu3A 1_555 1_555
N5A Cu4A 1_555 1_555
N6A Cu5A 1_555 1_555
Cu1A Cu4A 1_555 1_555
Cu2A Br2A 1_555 1_555
Cu2A Br3A 1_555 1_555
Cu3A Cu4A 1_555 1_555
Cu3A Br1A 1_555 1_555
Cu4A Br1A 1_555 1_555
Cu4A Br4A 1_555 1_555
Cu5A_2 Br5A 1_555 1_555
Cu5_2 Br5_2 1_555 1_555
Cu5_2 Br5A_2 1_555 1_555

#END
