
#######################################################################
#
#                 Cambridge Crystallographic Data Centre
#                                CCDC 
#
#######################################################################
#
# If this CIF has been generated from an entry in the Cambridge 
# Structural Database, then it will include bibliographic, chemical, 
# crystal, experimental, refinement or atomic coordinate data resulting 
# from the CCDC's data processing and validation procedures.
#
#######################################################################

data_WODXOE
_symmetry_cell_setting           triclinic
_symmetry_space_group_name_H-M   'P -1'
_symmetry_Int_Tables_number      2
_space_group_name_Hall           '-P 1'
loop_
_symmetry_equiv_pos_site_id
_symmetry_equiv_pos_as_xyz
1 x,y,z
2 -x,-y,-z
_cell_length_a                   8.558(3)
_cell_length_b                   12.227(4)
_cell_length_c                   17.063(5)
_cell_angle_alpha                104.282(4)
_cell_angle_beta                 96.968(2)
_cell_angle_gamma                100.492(3)
_cell_volume                     1675.25
loop_
_atom_site_label
_atom_site_type_symbol
_atom_site_fract_x
_atom_site_fract_y
_atom_site_fract_z
Er1 Er -0.29286(2) -0.061159(17) 0.421503(12)
Cu1 Cu 0.11593(10) 0.57365(7) 0.05563(5)
I1 I -0.17581(6) 0.52222(5) 0.09048(3)
C1 C 0.4163(7) 0.5968(5) 0.1715(3)
H1 H 0.4510 0.6596 0.1515
C2 C 0.5201(7) 0.5729(5) 0.2284(3)
H2 H 0.6242 0.6183 0.2464
C3 C 0.4697(7) 0.4805(5) 0.2592(3)
H3 H 0.5395 0.4637 0.2985
C4 C 0.2174(7) 0.4422(5) 0.1721(3)
H4 H 0.1140 0.3966 0.1516
C5 C 0.3162(6) 0.4135(4) 0.2316(3)
C6 C 0.2535(5) 0.3151(4) 0.2657(3)
C7 C 0.3582(6) 0.2710(4) 0.3122(3)
H5 H 0.4690 0.2949 0.3155
C8 C 0.0891(6) 0.2690(4) 0.2570(3)
H6 H 0.0164 0.2929 0.2234
C9 C 0.3011(6) 0.1924(4) 0.3538(3)
H7 H 0.3736 0.1657 0.3855
C10 C 0.0305(6) 0.1879(4) 0.2972(3)
H8 H -0.0797 0.1572 0.2898
C11 C 0.1391(5) 0.1536(4) 0.3486(3)
C12 C 0.0779(6) 0.0764(4) 0.4004(3)
C13 C -0.1489(10) 0.1757(6) -0.1424(4)
H9 H -0.1174 0.2054 -0.1847
C14 C -0.1758(11) 0.0596(7) -0.1539(4)
H10 H -0.1679 0.0108 -0.2039
C15 C -0.2152(9) 0.0151(6) -0.0899(4)
H11 H -0.2276 -0.0637 -0.0955
C16 C -0.2104(8) 0.2046(5) -0.0136(3)
H12 H -0.2260 0.2540 0.0344
C17 C -0.2357(7) 0.0864(5) -0.0193(3)
C18 C -0.2851(7) 0.0440(5) 0.0515(3)
C19 C -0.2512(8) -0.0575(5) 0.0625(4)
H13 H -0.2028 -0.1021 0.0244
C20 C -0.3572(7) 0.1085(5) 0.1083(3)
H14 H -0.3818 0.1768 0.1012
C21 C -0.3935(7) 0.0726(5) 0.1761(3)
H15 H -0.4431 0.1167 0.2139
C22 C -0.2891(8) -0.0941(5) 0.1307(3)
H16 H -0.2680 -0.1638 0.1368
C23 C -0.3566(6) -0.0288(4) 0.1882(3)
C24 C -0.3776(6) -0.0589(4) 0.2668(3)
C25 C -0.0361(6) 0.7688(4) 0.3508(3)
H17 H -0.0003 0.8319 0.3313
C26 C 0.0285(7) 0.6744(4) 0.3294(3)
H18 H 0.1067 0.6731 0.2959
C27 C -0.0244(6) 0.5798(4) 0.3584(3)
H19 H 0.0162 0.5136 0.3433
C28 C -0.1970(6) 0.6842(4) 0.4277(3)
H20 H -0.2743 0.6885 0.4615
C29 C -0.1377(5) 0.5846(4) 0.4098(3)
C30 C -0.1997(5) 0.4859(4) 0.4415(3)
C31 C -0.1821(6) 0.3766(4) 0.4049(3)
H21 H -0.1279 0.3662 0.3605
C32 C -0.2811(6) 0.4979(4) 0.5089(3)
H22 H -0.2931 0.5708 0.5365
C33 C -0.2414(6) 0.2810(4) 0.4312(3)
H23 H -0.2256 0.2087 0.4050
C34 C -0.3444(6) 0.4016(4) 0.5351(3)
H24 H -0.4004 0.4110 0.5789
C35 C -0.3244(5) 0.2936(4) 0.4967(3)
C36 C -0.3957(5) 0.1886(4) 0.5219(3)
N1 N 0.2666(6) 0.5338(4) 0.1431(3)
N2 N -0.1655(7) 0.2507(4) -0.0723(3)
N3 N -0.1484(5) 0.7753(3) 0.3985(2)
O1 O -0.0719(4) 0.0393(3) 0.3921(2)
O2 O 0.1790(4) 0.0558(3) 0.45101(19)
O3 O -0.3324(5) -0.1472(3) 0.2790(2)
O4 O -0.4289(5) 0.0076(3) 0.3228(2)
O5 O -0.3493(4) 0.0979(3) 0.4970(2)
O6 O -0.5019(4) 0.1989(3) 0.5679(2)
Er1_2 Er -0.29286(2) 0.938841(17) 0.421503(12)
Er1A Er -0.70714(2) 0.061159(17) 0.578497(12)
Er1A_2 Er 0.29286(2) 0.061159(17) 0.578497(12)
Cu1A Cu -0.11593(10) 0.42635(7) -0.05563(5)
I1A I 0.17581(6) 0.47778(5) -0.09048(3)
N2A N 0.1655(7) 0.7493(4) 0.0723(3)
N3_2 N -0.1484(5) -0.2247(3) 0.3985(2)
O2A O -0.1790(4) -0.0558(3) 0.54899(19)
O6A O -0.4981(4) -0.1989(3) 0.4321(2)
loop_
_geom_bond_atom_site_label_1
_geom_bond_atom_site_label_2
_geom_bond_site_symmetry_1
_geom_bond_site_symmetry_2
Er1 O1 1_555 1_555
Cu1 I1 1_555 1_555
I1 Cu1A 1_555 1_555
C1 H1 1_555 1_555
C2 C1 1_555 1_555
H2 C2 1_555 1_555
C3 C2 1_555 1_555
H3 C3 1_555 1_555
C4 H4 1_555 1_555
C5 C3 1_555 1_555
C6 C5 1_555 1_555
C7 C6 1_555 1_555
H5 C7 1_555 1_555
C8 C6 1_555 1_555
H6 C8 1_555 1_555
C9 C7 1_555 1_555
H7 C9 1_555 1_555
C10 C8 1_555 1_555
H8 C10 1_555 1_555
C11 C9 1_555 1_555
C12 C11 1_555 1_555
C13 H9 1_555 1_555
C14 C13 1_555 1_555
H10 C14 1_555 1_555
C15 C14 1_555 1_555
H11 C15 1_555 1_555
C16 H12 1_555 1_555
C17 C15 1_555 1_555
C18 C17 1_555 1_555
C19 C18 1_555 1_555
H13 C19 1_555 1_555
C20 C18 1_555 1_555
H14 C20 1_555 1_555
C21 C20 1_555 1_555
H15 C21 1_555 1_555
C22 C19 1_555 1_555
H16 C22 1_555 1_555
C23 C21 1_555 1_555
C24 C23 1_555 1_555
C25 H17 1_555 1_555
C26 C25 1_555 1_555
H18 C26 1_555 1_555
C27 C26 1_555 1_555
H19 C27 1_555 1_555
C28 H20 1_555 1_555
C29 C27 1_555 1_555
C30 C29 1_555 1_555
C31 C30 1_555 1_555
H21 C31 1_555 1_555
C32 C30 1_555 1_555
H22 C32 1_555 1_555
C33 C31 1_555 1_555
H23 C33 1_555 1_555
C34 C32 1_555 1_555
H24 C34 1_555 1_555
C35 C33 1_555 1_555
C36 C35 1_555 1_555
N1 Cu1 1_555 1_555
N2 C13 1_555 1_555
N3 C25 1_555 1_555
O1 C12 1_555 1_555
O2 C12 1_555 1_555
O3 Er1 1_555 1_555
O4 Er1 1_555 1_555
O5 Er1 1_555 1_555
O6 C36 1_555 1_555
Er1_2 N3 1_555 1_555
Er1A O6 1_555 1_555
Er1A_2 O2 1_555 1_555
Cu1A N2 1_555 1_555
I1A Cu1 1_555 1_555
N2A Cu1 1_555 1_555
N3_2 Er1 1_555 1_555
O2A Er1 1_555 1_555
O6A Er1 1_555 1_555
C1 N1 1_555 1_555
C4 C5 1_555 1_555
C4 N1 1_555 1_555
C10 C11 1_555 1_555
C16 C17 1_555 1_555
C16 N2 1_555 1_555
C22 C23 1_555 1_555
C24 O3 1_555 1_555
C24 O4 1_555 1_555
C28 C29 1_555 1_555
C28 N3 1_555 1_555
C34 C35 1_555 1_555
C36 O5 1_555 1_555
Cu1A I1A 1_555 1_555

#END
