
#######################################################################
#
#                 Cambridge Crystallographic Data Centre
#                                CCDC 
#
#######################################################################
#
# If this CIF has been generated from an entry in the Cambridge 
# Structural Database, then it will include bibliographic, chemical, 
# crystal, experimental, refinement or atomic coordinate data resulting 
# from the CCDC's data processing and validation procedures.
#
#######################################################################

data_WODXEU
_symmetry_cell_setting           triclinic
_symmetry_space_group_name_H-M   'P -1'
_symmetry_Int_Tables_number      2
_space_group_name_Hall           '-P 1'
loop_
_symmetry_equiv_pos_site_id
_symmetry_equiv_pos_as_xyz
1 x,y,z
2 -x,-y,-z
_cell_length_a                   10.458(2)
_cell_length_b                   12.274(3)
_cell_length_c                   12.401(3)
_cell_angle_alpha                86.14(3)
_cell_angle_beta                 79.87(3)
_cell_angle_gamma                76.58(3)
_cell_volume                     1523.63
loop_
_atom_site_label
_atom_site_type_symbol
_atom_site_fract_x
_atom_site_fract_y
_atom_site_fract_z
O1 O 0.1345(3) -0.0988(2) 0.9756(2)
La1 La -0.04264(2) 0.125313(16) 0.829066(16)
Zn1 Zn 0.18644(4) 0.35029(3) 0.19024(3)
O2 O 0.1864(3) 0.2608(2) 1.0468(2)
N1 N 0.1718(3) 0.3940(2) 0.3587(2)
O3 O -0.0543(4) 0.0466(3) 0.6436(2)
O4 O -0.1402(3) -0.0481(2) 0.8584(2)
C1 C 0.0117(4) 0.4499(3) 0.8727(3)
O5 O 0.0398(4) 0.1579(3) 0.4480(2)
O6 O -0.0532(3) 0.2808(3) 0.6760(3)
N2 N 0.6092(3) -0.2743(3) 0.8268(3)
O7 O 0.1477(3) 0.1758(3) 0.6669(3)
C2 C 0.1279(3) 0.3819(3) 0.9005(3)
C3 C -0.1226(3) 0.4174(3) 0.8876(3)
C4 C 0.1440(3) 0.2675(3) 0.9585(3)
C5 C 0.1270(4) 0.3213(3) 0.4340(3)
C6 C 0.0899(4) 0.2253(3) 0.3851(3)
C7 C 0.3862(4) -0.2548(3) 0.9225(3)
H1 H 0.3266 -0.2811 0.9770
C8 C 0.2073(4) 0.4814(3) 0.3929(3)
H2 H 0.2368 0.5323 0.3409
N3 N 0.0071(3) 0.5546(2) 0.8317(2)
C9 C 0.3433(4) -0.1600(3) 0.8606(3)
C10 C 0.2419(4) 0.4249(3) 0.8795(3)
H3 H 0.3220 0.3817 0.8961
C11 C 0.1172(4) 0.5948(3) 0.8132(3)
H4 H 0.1126 0.6676 0.7854
C12 C 0.1170(4) 0.3344(3) 0.5455(3)
C13 C 0.2009(4) -0.0942(3) 0.8820(3)
C14 C 0.5186(4) -0.3099(3) 0.9027(3)
H5 H 0.5462 -0.3747 0.9438
C15 C 0.2373(4) 0.5312(3) 0.8341(3)
H6 H 0.3140 0.5592 0.8180
C16 C 0.1584(5) 0.4245(4) 0.5787(3)
H7 H 0.1565 0.4341 0.6528
C17 C 0.2022(5) 0.4996(4) 0.5017(3)
H8 H 0.2278 0.5615 0.5230
C18 C 0.0664(4) 0.2569(3) 0.6341(3)
C19 C 0.4350(4) -0.1251(4) 0.7803(4)
H9 H 0.4086 -0.0630 0.7355
C20 C 0.5654(4) -0.1824(4) 0.7669(4)
H10 H 0.6266 -0.1565 0.7136
O8 O -0.2906(3) 0.1811(3) 0.8108(3)
O9 O -0.2215(2) 0.4947(2) 0.8728(2)
O10 O 0.1122(3) 0.2209(2) 0.2824(2)
O11 O 0.1262(3) 0.1848(2) 0.9143(2)
O12 O 0.1579(3) -0.0355(2) 0.8032(2)
O13 O -0.1279(3) 0.3191(2) 0.9127(2)
O1A O -0.1345(3) 0.0988(2) 1.0244(2)
La1A La 0.04264(2) -0.125313(16) 1.170934(16)
Zn1_2 Zn 0.18644(4) 0.35029(3) 1.19024(3)
Zn1A Zn -0.18644(4) 0.64971(3) 0.80976(3)
Zn1A_2 Zn 0.81356(4) -0.35029(3) 0.80976(3)
O2_2 O 0.1864(3) 0.2608(2) 0.0468(2)
N2A N 0.3908(3) 0.2743(3) 0.1732(3)
N3A N -0.0071(3) 0.4454(2) 0.1683(2)
O9A O 0.2215(2) 0.5053(2) 0.1272(2)
O14 O 0.4309(3) 0.6002(3) 0.1644(3)
O15 O 0.7721(6) 0.1613(7) 0.3962(6)
O16 O 0.4662(8) 0.0988(6) 0.9340(7)
O17 O 0.5308(9) 0.3154(8) 0.4580(9)
O18 O 0.3970(8) 0.1798(8) 0.7274(9)
O19 O 0.5094(6) 0.5429(10) 0.3640(5)
O20 O 0.6398(10) 0.0628(11) 0.6187(11)
O21 O 0.3868(10) 0.1094(13) 0.5163(10)
loop_
_geom_bond_atom_site_label_1
_geom_bond_atom_site_label_2
_geom_bond_site_symmetry_1
_geom_bond_site_symmetry_2
O1 C13 1_555 1_555
La1 O3 1_555 1_555
Zn1 N1 1_555 1_555
O2 C4 1_555 1_555
N1 C5 1_555 1_555
O4 La1 1_555 1_555
C1 C2 1_555 1_555
O5 C6 1_555 1_555
O6 La1 1_555 1_555
N2 C14 1_555 1_555
O7 La1 1_555 1_555
C2 C4 1_555 1_555
C3 C1 1_555 1_555
C4 O11 1_555 1_555
C5 C6 1_555 1_555
C6 O10 1_555 1_555
C7 H1 1_555 1_555
C8 N1 1_555 1_555
H2 C8 1_555 1_555
N3 C1 1_555 1_555
C9 C7 1_555 1_555
C10 C2 1_555 1_555
H3 C10 1_555 1_555
C11 N3 1_555 1_555
H4 C11 1_555 1_555
C12 C5 1_555 1_555
C13 C9 1_555 1_555
C14 C7 1_555 1_555
H5 C14 1_555 1_555
C15 C10 1_555 1_555
H6 C15 1_555 1_555
C16 C12 1_555 1_555
H7 C16 1_555 1_555
C17 C8 1_555 1_555
H8 C17 1_555 1_555
C18 O6 1_555 1_555
C19 C9 1_555 1_555
H9 C19 1_555 1_555
C20 N2 1_555 1_555
H10 C20 1_555 1_555
O8 La1 1_555 1_555
O9 C3 1_555 1_555
O10 Zn1 1_555 1_555
O11 La1 1_555 1_555
O12 La1 1_555 1_555
O13 La1 1_555 1_555
O1A La1 1_555 1_555
La1A O1 1_555 1_555
Zn1_2 O2 1_555 1_555
Zn1A N3 1_555 1_555
Zn1A_2 N2 1_555 1_555
O2_2 Zn1 1_555 1_555
N2A Zn1 1_555 1_555
N3A Zn1 1_555 1_555
O9A Zn1 1_555 1_555
O7 C18 1_555 1_555
C3 O13 1_555 1_555
C11 C15 1_555 1_555
C12 C18 1_555 1_555
C13 O12 1_555 1_555
C16 C17 1_555 1_555
C19 C20 1_555 1_555
O9 Zn1A 1_555 1_555

#END
