
#######################################################################
#
#                 Cambridge Crystallographic Data Centre
#                                CCDC 
#
#######################################################################
#
# If this CIF has been generated from an entry in the Cambridge 
# Structural Database, then it will include bibliographic, chemical, 
# crystal, experimental, refinement or atomic coordinate data resulting 
# from the CCDC's data processing and validation procedures.
#
#######################################################################

data_WODXIY
_symmetry_cell_setting           triclinic
_symmetry_space_group_name_H-M   'P -1'
_symmetry_Int_Tables_number      2
_space_group_name_Hall           '-P 1'
loop_
_symmetry_equiv_pos_site_id
_symmetry_equiv_pos_as_xyz
1 x,y,z
2 -x,-y,-z
_cell_length_a                   9.947(2)
_cell_length_b                   20.250(5)
_cell_length_c                   20.523(5)
_cell_angle_alpha                112.677(2)
_cell_angle_beta                 102.538(2)
_cell_angle_gamma                94.502(3)
_cell_volume                     3662.48
loop_
_atom_site_label
_atom_site_type_symbol
_atom_site_fract_x
_atom_site_fract_y
_atom_site_fract_z
Dy1 Dy 0.27188(3) 0.429798(16) 0.608120(17)
Dy2 Dy 0.23747(3) 0.590919(17) 0.409997(18)
Cu1 Cu -0.65211(16) -0.09134(6) 0.12799(6)
Cu2 Cu -0.51476(15) -0.17063(6) 0.18764(7)
Cu3 Cu 0.9642(3) 0.88090(9) 1.18069(10)
I1 I -0.47804(9) -0.17107(3) 0.06273(4)
I2 I -0.68967(9) -0.08160(4) 0.24894(4)
C1 C -0.0105(8) 0.2907(4) 0.5283(4)
C2 C -0.0515(7) 0.2095(4) 0.4856(4)
C3 C -0.1909(9) 0.1764(4) 0.4549(4)
H1 H -0.2604 0.2048 0.4590
C4 C 0.0493(9) 0.1660(4) 0.4734(5)
H2 H 0.1433 0.1877 0.4919
C5 C -0.2276(9) 0.1009(4) 0.4178(5)
H3 H -0.3217 0.0794 0.4003
C6 C 0.0140(9) 0.0916(4) 0.4348(5)
H4 H 0.0840 0.0639 0.4273
C7 C -0.1272(9) 0.0575(4) 0.4065(4)
C8 C -0.1670(10) -0.0228(4) 0.3654(5)
C9 C -0.2883(11) -0.0540(4) 0.3082(5)
H5 H -0.3430 -0.0231 0.2961
C10 C -0.0900(12) -0.0702(5) 0.3844(6)
H6 H -0.0097 -0.0516 0.4234
C11 C -0.1317(13) -0.1454(5) 0.3455(7)
H7 H -0.0784 -0.1771 0.3570
C12 C -0.2539(12) -0.1715(5) 0.2894(6)
H8 H -0.2843 -0.2216 0.2645
C13 C 0.2713(9) 0.4004(4) 0.7602(5)
C14 C 0.2783(8) 0.4515(4) 0.8379(4)
C15 C 0.2522(9) 0.5214(4) 0.8540(5)
H9 H 0.2231 0.5364 0.8165
C16 C 0.3196(10) 0.4296(4) 0.8941(5)
H10 H 0.3378 0.3828 0.8836
C17 C 0.2693(10) 0.5689(4) 0.9260(5)
H11 H 0.2534 0.6160 0.9361
C18 C 0.3339(10) 0.4777(4) 0.9667(5)
H12 H 0.3601 0.4622 1.0040
C19 C 0.3095(9) 0.5487(4) 0.9840(4)
C20 C 0.3333(9) 0.6004(4) 1.0614(5)
C21 C 0.3789(10) 0.6738(4) 1.0855(5)
H13 H 0.3934 0.6908 1.0511
C22 C 0.3136(10) 0.5770(5) 1.1155(6)
H14 H 0.2830 0.5280 1.1029
C23 C 0.3396(11) 0.6263(5) 1.1866(5)
H15 H 0.3279 0.6111 1.2227
C24 C 0.3832(10) 0.6990(5) 1.2044(5)
H16 H 0.3986 0.7326 1.2526
C25 C 0.5957(8) 0.4996(4) 0.7238(4)
C26 C 0.6753(7) 0.5499(4) 0.8014(4)
C27 C 0.8148(8) 0.5456(5) 0.8271(5)
H17 H 0.8603 0.5151 0.7957
C28 C 0.6099(8) 0.5962(4) 0.8477(4)
H18 H 0.5172 0.5995 0.8305
C29 C 0.8844(8) 0.5873(5) 0.8998(5)
H19 H 0.9774 0.5845 0.9170
C30 C 0.6825(10) 0.6382(5) 0.9205(5)
H20 H 0.6382 0.6702 0.9513
C31 C 0.8192(9) 0.6334(5) 0.9479(5)
C32 C 0.8926(10) 0.6726(6) 1.0268(5)
C33 C 0.8915(13) 0.7439(6) 1.0644(5)
H21 H 0.8464 0.7688 1.0390
C34 C 0.9637(11) 0.6359(7) 1.0664(6)
H22 H 0.9728 0.5878 1.0422
C35 C 1.0190(13) 0.6725(8) 1.1409(7)
H23 H 1.0593 0.6485 1.1687
C36 C 1.0134(14) 0.7437(8) 1.1728(7)
H24 H 1.0545 0.7685 1.2230
C37 C 0.3049(8) 0.5847(4) 0.5780(4)
C38 C 0.3589(11) 0.6570(5) 0.6418(6)
C39 C 0.3018(9) 0.7169(4) 0.6424(4)
H25 H 0.2284 0.7125 0.6032
C40 C 0.4694(8) 0.6643(4) 0.6995(4)
H26 H 0.5104 0.6243 0.6983
C41 C 0.3542(9) 0.7845(4) 0.7018(4)
H27 H 0.3148 0.8248 0.7022
C42 C 0.5202(8) 0.7314(4) 0.7595(5)
H28 H 0.5919 0.7354 0.7992
C43 C 0.4638(8) 0.7920(4) 0.7600(4)
C44 C 0.5188(9) 0.8621(4) 0.8249(4)
C45 C 0.5451(10) 0.9275(4) 0.8181(5)
H29 H 0.5265 0.9263 0.7712
C46 C 0.5462(9) 0.8652(4) 0.8955(5)
H30 H 0.5308 0.8229 0.9028
C47 C 0.5968(10) 0.9320(4) 0.9552(5)
H31 H 0.6155 0.9351 1.0028
C48 C 0.6185(10) 0.9928(4) 0.9429(5)
H32 H 0.6509 1.0374 0.9831
C49 C 0.5603(8) 0.6599(4) 0.5169(4)
C50 C 0.6640(8) 0.7218(4) 0.5801(4)
C51 C 0.7971(8) 0.7101(4) 0.6038(4)
H33 H 0.8198 0.6643 0.5824
C52 C 0.6295(9) 0.7895(4) 0.6118(5)
H34 H 0.5393 0.7972 0.5964
C53 C 0.8955(9) 0.7657(4) 0.6588(4)
H35 H 0.9840 0.7568 0.6754
C54 C 0.7305(9) 0.8460(4) 0.6667(5)
H36 H 0.7075 0.8918 0.6879
C55 C 0.8661(8) 0.8353(4) 0.6906(4)
C56 C 0.9772(9) 0.8966(5) 0.7450(4)
C57 C 0.9717(11) 0.9668(5) 0.7517(5)
H37 H 0.8959 0.9745 0.7216
C58 C 1.0907(10) 0.8854(5) 0.7892(5)
H38 H 1.0982 0.8393 0.7873
C59 C 1.1948(12) 0.9462(7) 0.8375(6)
H39 H 1.2736 0.9402 0.8672
C60 C 1.1807(12) 1.0131(7) 0.8406(7)
H40 H 1.2509 1.0524 0.8728
C61 C -0.0516(10) 0.4551(5) 0.3338(6)
C62 C -0.0469(7) 0.3856(4) 0.2728(4)
C63 C 0.0798(8) 0.3644(4) 0.2631(4)
H41 H 0.1627 0.3911 0.2984
C64 C -0.1695(8) 0.3431(4) 0.2222(4)
H42 H -0.2550 0.3552 0.2294
C65 C 0.0844(9) 0.3047(4) 0.2022(5)
H43 H 0.1700 0.2920 0.1960
C66 C -0.1669(9) 0.2825(4) 0.1604(4)
H44 H -0.2502 0.2547 0.1262
C67 C -0.0390(8) 0.2636(4) 0.1498(4)
C68 C -0.0385(9) 0.2007(4) 0.0815(5)
C69 C -0.1425(11) 0.1841(4) 0.0180(5)
H45 H -0.2059 0.2157 0.0188
C70 C 0.0578(11) 0.1551(5) 0.0784(6)
H46 H 0.1295 0.1634 0.1197
C71 C 0.0460(12) 0.0965(6) 0.0127(7)
H47 H 0.1126 0.0665 0.0089
C72 C -0.0609(11) 0.0834(5) -0.0451(6)
H48 H -0.0686 0.0426 -0.0880
C73 C 0.2640(10) 0.7365(5) 0.3673(5)
C74 C 0.3392(10) 0.8153(5) 0.4051(5)
C75 C 0.4725(9) 0.8324(5) 0.4489(6)
H49 H 0.5188 0.7969 0.4566
C76 C 0.2677(12) 0.8683(6) 0.4010(6)
H50 H 0.1757 0.8565 0.3723
C77 C 0.5367(11) 0.9053(5) 0.4816(6)
H51 H 0.6309 0.9174 0.5072
C78 C 0.3337(12) 0.9410(5) 0.4404(6)
H52 H 0.2815 0.9771 0.4402
C79 C 0.4668(12) 0.9606(5) 0.4778(6)
O1 O 0.3944(6) 0.3367(3) 0.6275(3)
H53 H 0.3498 0.2935 0.6110
H54 H 0.4662 0.3493 0.6637
O2 O -0.1091(6) 0.3252(3) 0.5377(3)
O3 O 0.0984(5) 0.4322(3) 0.5032(3)
H55 H 0.1248 0.4485 0.4747
H56 H 0.0115 0.4257 0.5006
O4 O 0.1148(5) 0.3195(3) 0.5503(3)
O5 O 0.3544(5) 0.4923(3) 0.4265(3)
H57 H 0.3120 0.4484 0.4047
H58 H 0.4321 0.5025 0.4585
O6 O 0.3205(8) 0.3438(3) 0.7489(4)
O7 O 0.2166(6) 0.4208(3) 0.7095(3)
O8 O 0.0672(6) 0.5866(3) 0.3037(3)
H59 H 0.0934 0.6013 0.2741
H60 H -0.0196 0.5808 0.3013
O9 O 0.4675(5) 0.4992(3) 0.7056(3)
O10 O 0.6628(6) 0.4617(3) 0.6827(3)
O11 O 0.3592(5) 0.5305(2) 0.5798(3)
O12 O 0.2069(5) 0.5799(3) 0.5241(3)
O13 O 0.6078(5) 0.6074(3) 0.4782(3)
O14 O 0.4328(5) 0.6645(3) 0.5055(3)
O15 O 0.0634(5) 0.4951(3) 0.3765(3)
O16 O -0.1677(5) 0.4712(3) 0.3381(3)
O17 O 0.3255(6) 0.6883(3) 0.3818(3)
O18 O 0.1474(8) 0.7227(4) 0.3225(4)
N1 N -0.3318(9) -0.1264(4) 0.2691(4)
N2 N 0.4038(8) 0.7224(4) 1.1549(4)
N3 N 0.9530(11) 0.7811(5) 1.1375(5)
N4 N 0.5953(8) 0.9915(4) 0.8748(4)
N5 N 1.0709(11) 1.0249(5) 0.7996(5)
N6 N -0.1582(9) 0.1256(4) -0.0448(4)
C73A C 0.7360(10) 1.2635(5) 0.6327(5)
C74A C 0.6608(10) 1.1847(5) 0.5949(5)
C75A C 0.5275(9) 1.1676(5) 0.5511(6)
H49A H 0.4812 1.2031 0.5434
C76A C 0.7323(12) 1.1317(6) 0.5990(6)
H50A H 0.8243 1.1435 0.6277
C77A C 0.4633(11) 1.0947(5) 0.5184(6)
H51A H 0.3691 1.0826 0.4928
C78A C 0.6663(12) 1.0590(5) 0.5596(6)
H52A H 0.7185 1.0229 0.5598
C79A C 0.5332(12) 1.0394(5) 0.5222(6)
O17A O 0.6745(6) 1.3117(3) 0.6182(3)
O18A O 0.8526(8) 1.2773(4) 0.6775(4)
Dy1A Dy -1.27188(3) -0.429798(16) -0.608120(17)
Dy2A Dy -1.23747(3) -0.590919(17) -0.409997(18)
Cu1A Cu -0.34789(16) 0.09134(6) -0.12799(6)
Cu2A Cu -0.48524(15) 0.17063(6) -0.18764(7)
Cu3A Cu -1.9642(3) -0.88090(9) -1.18069(10)
I1A I -0.52196(9) 0.17107(3) -0.06273(4)
I2A I -0.31033(9) 0.08160(4) -0.24894(4)
C1A C -0.9895(8) -0.2907(4) -0.5283(4)
C2A C -0.9485(7) -0.2095(4) -0.4856(4)
C3A C -0.8091(9) -0.1764(4) -0.4549(4)
H1A H -0.7396 -0.2048 -0.4590
C4A C -1.0493(9) -0.1660(4) -0.4734(5)
H2A H -1.1433 -0.1877 -0.4919
C5A C -0.7724(9) -0.1009(4) -0.4178(5)
H3A H -0.6783 -0.0794 -0.4003
C6A C -1.0140(9) -0.0916(4) -0.4348(5)
H4A H -1.0840 -0.0639 -0.4273
C7A C -0.8728(9) -0.0575(4) -0.4065(4)
C8A C -0.8330(10) 0.0228(4) -0.3654(5)
C9A C -0.7117(11) 0.0540(4) -0.3082(5)
H5A H -0.6570 0.0231 -0.2961
C10A C -0.9100(12) 0.0702(5) -0.3844(6)
H6A H -0.9903 0.0516 -0.4234
C11A C -0.8683(13) 0.1454(5) -0.3455(7)
H7A H -0.9216 0.1771 -0.3570
C12A C -0.7461(12) 0.1715(5) -0.2894(6)
H8A H -0.7157 0.2216 -0.2645
C13A C -1.2713(9) -0.4004(4) -0.7602(5)
C14A C -1.2783(8) -0.4515(4) -0.8379(4)
C15A C -1.2522(9) -0.5214(4) -0.8540(5)
H9A H -1.2231 -0.5364 -0.8165
C16A C -1.3196(10) -0.4296(4) -0.8941(5)
H10A H -1.3378 -0.3828 -0.8836
C17A C -1.2693(10) -0.5689(4) -0.9260(5)
H11A H -1.2534 -0.6160 -0.9361
C18A C -1.3339(10) -0.4777(4) -0.9667(5)
H12A H -1.3601 -0.4622 -1.0040
C19A C -1.3095(9) -0.5487(4) -0.9840(4)
C20A C -1.3333(9) -0.6004(4) -1.0614(5)
C21A C -1.3789(10) -0.6738(4) -1.0855(5)
H13A H -1.3934 -0.6908 -1.0511
C22A C -1.3136(10) -0.5770(5) -1.1155(6)
H14A H -1.2830 -0.5280 -1.1029
C23A C -1.3396(11) -0.6263(5) -1.1866(5)
H15A H -1.3279 -0.6111 -1.2227
C24A C -1.3832(10) -0.6990(5) -1.2044(5)
H16A H -1.3986 -0.7326 -1.2526
C25A C -1.5957(8) -0.4996(4) -0.7238(4)
C26A C -1.6753(7) -0.5499(4) -0.8014(4)
C27A C -1.8148(8) -0.5456(5) -0.8271(5)
H17A H -1.8603 -0.5151 -0.7957
C28A C -1.6099(8) -0.5962(4) -0.8477(4)
H18A H -1.5172 -0.5995 -0.8305
C29A C -1.8844(8) -0.5873(5) -0.8998(5)
H19A H -1.9774 -0.5845 -0.9170
C30A C -1.6825(10) -0.6382(5) -0.9205(5)
H20A H -1.6382 -0.6702 -0.9513
C31A C -1.8192(9) -0.6334(5) -0.9479(5)
C32A C -1.8926(10) -0.6726(6) -1.0268(5)
C33A C -1.8915(13) -0.7439(6) -1.0644(5)
H21A H -1.8464 -0.7688 -1.0390
C34A C -1.9637(11) -0.6359(7) -1.0664(6)
H22A H -1.9728 -0.5878 -1.0422
C35A C -2.0190(13) -0.6725(8) -1.1409(7)
H23A H -2.0593 -0.6485 -1.1687
C36A C -2.0134(14) -0.7437(8) -1.1728(7)
H24A H -2.0545 -0.7685 -1.2230
C37A C -1.3049(8) -0.5847(4) -0.5780(4)
C38A C -1.3589(11) -0.6570(5) -0.6418(6)
C39A C -1.3018(9) -0.7169(4) -0.6424(4)
H25A H -1.2284 -0.7125 -0.6032
C40A C -1.4694(8) -0.6643(4) -0.6995(4)
H26A H -1.5104 -0.6243 -0.6983
C41A C -1.3542(9) -0.7845(4) -0.7018(4)
H27A H -1.3148 -0.8248 -0.7022
C42A C -1.5202(8) -0.7314(4) -0.7595(5)
H28A H -1.5919 -0.7354 -0.7992
C43A C -1.4638(8) -0.7920(4) -0.7600(4)
C44A C -1.5188(9) -0.8621(4) -0.8249(4)
C45A C -1.5451(10) -0.9275(4) -0.8181(5)
H29A H -1.5265 -0.9263 -0.7712
C46A C -1.5462(9) -0.8652(4) -0.8955(5)
H30A H -1.5308 -0.8229 -0.9028
C47A C -1.5968(10) -0.9320(4) -0.9552(5)
H31A H -1.6155 -0.9351 -1.0028
C48A C -1.6185(10) -0.9928(4) -0.9429(5)
H32A H -1.6509 -1.0374 -0.9831
C49A C -1.5603(8) -0.6599(4) -0.5169(4)
C50A C -1.6640(8) -0.7218(4) -0.5801(4)
C51A C -1.7971(8) -0.7101(4) -0.6038(4)
H33A H -1.8198 -0.6643 -0.5824
C52A C -1.6295(9) -0.7895(4) -0.6118(5)
H34A H -1.5393 -0.7972 -0.5964
C53A C -1.8955(9) -0.7657(4) -0.6588(4)
H35A H -1.9840 -0.7568 -0.6754
C54A C -1.7305(9) -0.8460(4) -0.6667(5)
H36A H -1.7075 -0.8918 -0.6879
C55A C -1.8661(8) -0.8353(4) -0.6906(4)
C56A C -1.9772(9) -0.8966(5) -0.7450(4)
C57A C -1.9717(11) -0.9668(5) -0.7517(5)
H37A H -1.8959 -0.9745 -0.7216
C58A C -2.0907(10) -0.8854(5) -0.7892(5)
H38A H -2.0982 -0.8393 -0.7873
C59A C -2.1948(12) -0.9462(7) -0.8375(6)
H39A H -2.2736 -0.9402 -0.8672
C60A C -2.1807(12) -1.0131(7) -0.8406(7)
H40A H -2.2509 -1.0524 -0.8728
C61A C -0.9484(10) -0.4551(5) -0.3338(6)
C62A C -0.9531(7) -0.3856(4) -0.2728(4)
C63A C -1.0798(8) -0.3644(4) -0.2631(4)
H41A H -1.1627 -0.3911 -0.2984
C64A C -0.8305(8) -0.3431(4) -0.2222(4)
H42A H -0.7450 -0.3552 -0.2294
C65A C -1.0844(9) -0.3047(4) -0.2022(5)
H43A H -1.1700 -0.2920 -0.1960
C66A C -0.8331(9) -0.2825(4) -0.1604(4)
H44A H -0.7498 -0.2547 -0.1262
C67A C -0.9610(8) -0.2636(4) -0.1498(4)
C68A C -0.9615(9) -0.2007(4) -0.0815(5)
C69A C -0.8575(11) -0.1841(4) -0.0180(5)
H45A H -0.7941 -0.2157 -0.0188
C70A C -1.0578(11) -0.1551(5) -0.0784(6)
H46A H -1.1295 -0.1634 -0.1197
C71A C -1.0460(12) -0.0965(6) -0.0127(7)
H47A H -1.1126 -0.0665 -0.0089
C72A C -0.9391(11) -0.0834(5) 0.0451(6)
H48A H -0.9314 -0.0426 0.0880
O1A O -1.3944(6) -0.3367(3) -0.6275(3)
H53A H -1.3498 -0.2935 -0.6110
H54A H -1.4662 -0.3493 -0.6637
O2A O -0.8909(6) -0.3252(3) -0.5377(3)
O3A O -1.0984(5) -0.4322(3) -0.5032(3)
H55A H -1.1248 -0.4485 -0.4747
H56A H -1.0115 -0.4257 -0.5006
O4A O -1.1148(5) -0.3195(3) -0.5503(3)
O5A O -1.3544(5) -0.4923(3) -0.4265(3)
H57A H -1.3120 -0.4484 -0.4047
H58A H -1.4321 -0.5025 -0.4585
O6A O -1.3205(8) -0.3438(3) -0.7489(4)
O7A O -1.2166(6) -0.4208(3) -0.7095(3)
O8A O -1.0672(6) -0.5866(3) -0.3037(3)
H59A H -1.0934 -0.6013 -0.2741
H60A H -0.9804 -0.5808 -0.3013
O9A O -1.4675(5) -0.4992(3) -0.7056(3)
O10A O -1.6628(6) -0.4617(3) -0.6827(3)
O11A O -1.3592(5) -0.5305(2) -0.5798(3)
O12A O -1.2069(5) -0.5799(3) -0.5241(3)
O13A O -1.6078(5) -0.6074(3) -0.4782(3)
O14A O -1.4328(5) -0.6645(3) -0.5055(3)
O15A O -1.0634(5) -0.4951(3) -0.3765(3)
O16A O -0.8323(5) -0.4712(3) -0.3381(3)
N1A N -0.6682(9) 0.1264(4) -0.2691(4)
N2A N -1.4038(8) -0.7224(4) -1.1549(4)
N3A N -1.9530(11) -0.7811(5) -1.1375(5)
N4A N -1.5953(8) -0.9915(4) -0.8748(4)
N5A N -2.0709(11) -1.0249(5) -0.7996(5)
N6A N -0.8418(9) -0.1256(4) 0.0448(4)
Dy1_2 Dy -1.72812(3) -0.570202(16) -0.391880(17)
Dy1_3 Dy -0.72812(3) -0.570202(16) -0.391880(17)
Dy1A_2 Dy -0.27188(3) 0.570202(16) 0.391880(17)
Dy1A_3 Dy 0.72812(3) 0.570202(16) 0.391880(17)
Dy2_2 Dy -1.76253(3) -0.409081(17) -0.590003(18)
Dy2_3 Dy -0.76253(3) -0.409081(17) -0.590003(18)
Dy2A_2 Dy -0.23747(3) 0.409081(17) 0.590003(18)
Dy2A_3 Dy 0.76253(3) 0.409081(17) 0.590003(18)
Dy2A_4 Dy 0.76253(3) 1.409081(17) 0.590003(18)
Cu1_2 Cu -1.65211(16) -1.09134(6) -0.87201(6)
Cu1A_2 Cu 0.65211(16) 1.09134(6) 0.87201(6)
Cu2_2 Cu 0.48524(15) 0.82937(6) 1.18764(7)
Cu2A_2 Cu -1.48524(15) -0.82937(6) -1.18764(7)
Cu3_2 Cu -2.0358(3) -1.11910(9) -0.81931(10)
Cu3_3 Cu -1.0358(3) -0.11910(9) 0.18069(10)
Cu3A_2 Cu 0.0358(3) 0.11910(9) -0.18069(10)
Cu3A_3 Cu 1.0358(3) 1.11910(9) 0.81931(10)
I2_2 I 1.31033(9) 0.91840(4) 1.24894(4)
I2A_2 I -2.31033(9) -0.91840(4) -1.24894(4)
O2_2 O -1.1091(6) -0.6748(3) -0.4623(3)
O2A_2 O 0.1091(6) 0.6748(3) 0.4623(3)
O10_2 O -1.3372(6) -0.5383(3) -0.3173(3)
O10A_2 O 0.3372(6) 0.5383(3) 0.3173(3)
O13_2 O -1.3922(5) -0.3926(3) -0.5218(3)
O13A_2 O 0.3922(5) 0.3926(3) 0.5218(3)
O16_2 O -1.1677(5) -0.5288(3) -0.6619(3)
O16A_2 O 0.1677(5) 0.5288(3) 0.6619(3)
O17A_2 O -1.3255(6) -0.6883(3) -0.3818(3)
N2_2 N -0.5962(8) -0.2776(4) 0.1549(4)
N2A_2 N -0.4038(8) 0.2776(4) -0.1549(4)
N4_2 N -0.4047(8) -0.0085(4) -0.1252(4)
N4A_2 N -0.5953(8) 0.0085(4) 0.1252(4)
N5_2 N -1.9291(11) -0.9751(5) -1.2004(5)
N5A_2 N 0.9291(11) 0.9751(5) 1.2004(5)
loop_
_geom_bond_atom_site_label_1
_geom_bond_atom_site_label_2
_geom_bond_site_symmetry_1
_geom_bond_site_symmetry_2
Dy1 O1 1_555 1_555
Dy2 O5 1_555 1_555
Cu1 I1 1_555 1_555
Cu2 I1 1_555 1_555
Cu3 N3 1_555 1_555
I2 Cu1 1_555 1_555
C1 C2 1_555 1_555
C2 C3 1_555 1_555
C3 H1 1_555 1_555
C4 C2 1_555 1_555
H2 C4 1_555 1_555
C5 C3 1_555 1_555
H3 C5 1_555 1_555
C6 C4 1_555 1_555
H4 C6 1_555 1_555
C7 C5 1_555 1_555
C8 C7 1_555 1_555
C9 C8 1_555 1_555
H5 C9 1_555 1_555
C10 C8 1_555 1_555
H6 C10 1_555 1_555
C11 C10 1_555 1_555
H7 C11 1_555 1_555
C12 C11 1_555 1_555
H8 C12 1_555 1_555
C13 C14 1_555 1_555
C14 C15 1_555 1_555
C15 H9 1_555 1_555
C16 C14 1_555 1_555
H10 C16 1_555 1_555
C17 C15 1_555 1_555
H11 C17 1_555 1_555
C18 C16 1_555 1_555
H12 C18 1_555 1_555
C19 C17 1_555 1_555
C20 C19 1_555 1_555
C21 C20 1_555 1_555
H13 C21 1_555 1_555
C22 C20 1_555 1_555
H14 C22 1_555 1_555
C23 C22 1_555 1_555
H15 C23 1_555 1_555
C24 C23 1_555 1_555
H16 C24 1_555 1_555
C25 C26 1_555 1_555
C26 C27 1_555 1_555
C27 H17 1_555 1_555
C28 C26 1_555 1_555
H18 C28 1_555 1_555
C29 C27 1_555 1_555
H19 C29 1_555 1_555
C30 C28 1_555 1_555
H20 C30 1_555 1_555
C31 C29 1_555 1_555
C32 C31 1_555 1_555
C33 C32 1_555 1_555
H21 C33 1_555 1_555
C34 C32 1_555 1_555
H22 C34 1_555 1_555
C35 C34 1_555 1_555
H23 C35 1_555 1_555
C36 C35 1_555 1_555
H24 C36 1_555 1_555
C37 C38 1_555 1_555
C38 C39 1_555 1_555
C39 H25 1_555 1_555
C40 C38 1_555 1_555
H26 C40 1_555 1_555
C41 C39 1_555 1_555
H27 C41 1_555 1_555
C42 C40 1_555 1_555
H28 C42 1_555 1_555
C43 C41 1_555 1_555
C44 C43 1_555 1_555
C45 C44 1_555 1_555
H29 C45 1_555 1_555
C46 C44 1_555 1_555
H30 C46 1_555 1_555
C47 C46 1_555 1_555
H31 C47 1_555 1_555
C48 C47 1_555 1_555
H32 C48 1_555 1_555
C49 C50 1_555 1_555
C50 C51 1_555 1_555
C51 H33 1_555 1_555
C52 C50 1_555 1_555
H34 C52 1_555 1_555
C53 C51 1_555 1_555
H35 C53 1_555 1_555
C54 C52 1_555 1_555
H36 C54 1_555 1_555
C55 C53 1_555 1_555
C56 C55 1_555 1_555
C57 C56 1_555 1_555
H37 C57 1_555 1_555
C58 C56 1_555 1_555
H38 C58 1_555 1_555
C59 C58 1_555 1_555
H39 C59 1_555 1_555
C60 C59 1_555 1_555
H40 C60 1_555 1_555
C61 C62 1_555 1_555
C62 C63 1_555 1_555
C63 H41 1_555 1_555
C64 C62 1_555 1_555
H42 C64 1_555 1_555
C65 C63 1_555 1_555
H43 C65 1_555 1_555
C66 C64 1_555 1_555
H44 C66 1_555 1_555
C67 C65 1_555 1_555
C68 C67 1_555 1_555
C69 C68 1_555 1_555
H45 C69 1_555 1_555
C70 C68 1_555 1_555
H46 C70 1_555 1_555
C71 C70 1_555 1_555
H47 C71 1_555 1_555
C72 C71 1_555 1_555
H48 C72 1_555 1_555
C73 C74 1_555 1_555
C74 C75 1_555 1_555
C75 H49 1_555 1_555
C76 C74 1_555 1_555
H50 C76 1_555 1_555
C77 C75 1_555 1_555
H51 C77 1_555 1_555
C78 C76 1_555 1_555
H52 C78 1_555 1_555
C79 C77 1_555 1_555
O1 H53 1_555 1_555
H54 O1 1_555 1_555
O2 C1 1_555 1_555
O3 Dy1 1_555 1_555
H55 O3 1_555 1_555
H56 O3 1_555 1_555
O4 Dy1 1_555 1_555
O5 H57 1_555 1_555
H58 O5 1_555 1_555
O6 C13 1_555 1_555
O7 Dy1 1_555 1_555
O8 Dy2 1_555 1_555
H59 O8 1_555 1_555
H60 O8 1_555 1_555
O9 Dy1 1_555 1_555
O10 C25 1_555 1_555
O11 Dy1 1_555 1_555
O12 Dy2 1_555 1_555
O13 C49 1_555 1_555
O14 Dy2 1_555 1_555
O15 Dy2 1_555 1_555
O16 C61 1_555 1_555
O17 Dy2 1_555 1_555
O18 C73 1_555 1_555
N1 Cu2 1_555 1_555
N2 C21 1_555 1_555
N3 C33 1_555 1_555
N4 C45 1_555 1_555
N5 C57 1_555 1_555
N6 C69 1_555 1_555
C73A C74A 1_555 1_555
C74A C75A 1_555 1_555
C75A H49A 1_555 1_555
C76A C74A 1_555 1_555
H50A C76A 1_555 1_555
C77A C75A 1_555 1_555
H51A C77A 1_555 1_555
C78A C76A 1_555 1_555
H52A C78A 1_555 1_555
C79A C79 1_555 1_555
O17A C73A 1_555 1_555
O18A C73A 1_555 1_555
Dy1A O1A 1_555 1_555
Dy2A O5A 1_555 1_555
Cu1A N6 1_555 1_555
Cu2A I1A 1_555 1_555
Cu3A N3A 1_555 1_555
I1A Cu1A 1_555 1_555
I2A Cu1A 1_555 1_555
C1A C2A 1_555 1_555
C2A C3A 1_555 1_555
C3A H1A 1_555 1_555
C4A C2A 1_555 1_555
H2A C4A 1_555 1_555
C5A C3A 1_555 1_555
H3A C5A 1_555 1_555
C6A C4A 1_555 1_555
H4A C6A 1_555 1_555
C7A C5A 1_555 1_555
C8A C7A 1_555 1_555
C9A C8A 1_555 1_555
H5A C9A 1_555 1_555
C10A C8A 1_555 1_555
H6A C10A 1_555 1_555
C11A C10A 1_555 1_555
H7A C11A 1_555 1_555
C12A C11A 1_555 1_555
H8A C12A 1_555 1_555
C13A C14A 1_555 1_555
C14A C15A 1_555 1_555
C15A H9A 1_555 1_555
C16A C14A 1_555 1_555
H10A C16A 1_555 1_555
C17A C15A 1_555 1_555
H11A C17A 1_555 1_555
C18A C16A 1_555 1_555
H12A C18A 1_555 1_555
C19A C17A 1_555 1_555
C20A C19A 1_555 1_555
C21A C20A 1_555 1_555
H13A C21A 1_555 1_555
C22A C20A 1_555 1_555
H14A C22A 1_555 1_555
C23A C22A 1_555 1_555
H15A C23A 1_555 1_555
C24A C23A 1_555 1_555
H16A C24A 1_555 1_555
C25A C26A 1_555 1_555
C26A C27A 1_555 1_555
C27A H17A 1_555 1_555
C28A C26A 1_555 1_555
H18A C28A 1_555 1_555
C29A C27A 1_555 1_555
H19A C29A 1_555 1_555
C30A C28A 1_555 1_555
H20A C30A 1_555 1_555
C31A C29A 1_555 1_555
C32A C31A 1_555 1_555
C33A C32A 1_555 1_555
H21A C33A 1_555 1_555
C34A C32A 1_555 1_555
H22A C34A 1_555 1_555
C35A C34A 1_555 1_555
H23A C35A 1_555 1_555
C36A C35A 1_555 1_555
H24A C36A 1_555 1_555
C37A C38A 1_555 1_555
C38A C39A 1_555 1_555
C39A H25A 1_555 1_555
C40A C38A 1_555 1_555
H26A C40A 1_555 1_555
C41A C39A 1_555 1_555
H27A C41A 1_555 1_555
C42A C40A 1_555 1_555
H28A C42A 1_555 1_555
C43A C41A 1_555 1_555
C44A C43A 1_555 1_555
C45A C44A 1_555 1_555
H29A C45A 1_555 1_555
C46A C44A 1_555 1_555
H30A C46A 1_555 1_555
C47A C46A 1_555 1_555
H31A C47A 1_555 1_555
C48A C47A 1_555 1_555
H32A C48A 1_555 1_555
C49A C50A 1_555 1_555
C50A C51A 1_555 1_555
C51A H33A 1_555 1_555
C52A C50A 1_555 1_555
H34A C52A 1_555 1_555
C53A C51A 1_555 1_555
H35A C53A 1_555 1_555
C54A C52A 1_555 1_555
H36A C54A 1_555 1_555
C55A C53A 1_555 1_555
C56A C55A 1_555 1_555
C57A C56A 1_555 1_555
H37A C57A 1_555 1_555
C58A C56A 1_555 1_555
H38A C58A 1_555 1_555
C59A C58A 1_555 1_555
H39A C59A 1_555 1_555
C60A C59A 1_555 1_555
H40A C60A 1_555 1_555
C61A C62A 1_555 1_555
C62A C63A 1_555 1_555
C63A H41A 1_555 1_555
C64A C62A 1_555 1_555
H42A C64A 1_555 1_555
C65A C63A 1_555 1_555
H43A C65A 1_555 1_555
C66A C64A 1_555 1_555
H44A C66A 1_555 1_555
C67A C65A 1_555 1_555
C68A C67A 1_555 1_555
C69A C68A 1_555 1_555
H45A C69A 1_555 1_555
C70A C68A 1_555 1_555
H46A C70A 1_555 1_555
C71A C70A 1_555 1_555
H47A C71A 1_555 1_555
C72A C71A 1_555 1_555
H48A C72A 1_555 1_555
O1A H53A 1_555 1_555
H54A O1A 1_555 1_555
O2A C1A 1_555 1_555
O3A Dy1A 1_555 1_555
H55A O3A 1_555 1_555
H56A O3A 1_555 1_555
O4A Dy1A 1_555 1_555
O5A H57A 1_555 1_555
H58A O5A 1_555 1_555
O6A C13A 1_555 1_555
O7A Dy1A 1_555 1_555
O8A Dy2A 1_555 1_555
H59A O8A 1_555 1_555
H60A O8A 1_555 1_555
O9A Dy1A 1_555 1_555
O10A C25A 1_555 1_555
O11A Dy1A 1_555 1_555
O12A Dy2A 1_555 1_555
O13A C49A 1_555 1_555
O14A Dy2A 1_555 1_555
O15A Dy2A 1_555 1_555
O16A C61A 1_555 1_555
N1A Cu2A 1_555 1_555
N2A C21A 1_555 1_555
N3A C33A 1_555 1_555
N4A C45A 1_555 1_555
N5A C57A 1_555 1_555
N6A Cu1 1_555 1_555
Dy1_2 O13A 1_555 1_555
Dy1_3 O16A 1_555 1_555
Dy1A_2 O16 1_555 1_555
Dy1A_3 O13 1_555 1_555
Dy2_2 O10A 1_555 1_555
Dy2_3 O2A 1_555 1_555
Dy2A_2 O2 1_555 1_555
Dy2A_3 O10 1_555 1_555
Dy2A_4 O17A 1_555 1_555
Cu1_2 N4A 1_555 1_555
Cu1A_2 N4 1_555 1_555
Cu2_2 N2 1_555 1_555
Cu2A_2 N2A 1_555 1_555
Cu3_2 N5A 1_555 1_555
Cu3_3 I2 1_555 1_555
Cu3A_2 I2A 1_555 1_555
Cu3A_3 N5 1_555 1_555
I2_2 Cu3 1_555 1_555
I2A_2 Cu3A 1_555 1_555
O2_2 Dy2A 1_555 1_555
O2A_2 Dy2 1_555 1_555
O10_2 Dy2A 1_555 1_555
O10A_2 Dy2 1_555 1_555
O13_2 Dy1A 1_555 1_555
O13A_2 Dy1 1_555 1_555
O16_2 Dy1A 1_555 1_555
O16A_2 Dy1 1_555 1_555
O17A_2 Dy2A 1_555 1_555
N2_2 Cu2 1_555 1_555
N2A_2 Cu2A 1_555 1_555
N4_2 Cu1A 1_555 1_555
N4A_2 Cu1 1_555 1_555
N5_2 Cu3A 1_555 1_555
N5A_2 Cu3 1_555 1_555
Cu2 I2 1_555 1_555
C1 O4 1_555 1_555
C6 C7 1_555 1_555
C9 N1 1_555 1_555
C12 N1 1_555 1_555
C13 O7 1_555 1_555
C18 C19 1_555 1_555
C24 N2 1_555 1_555
C25 O9 1_555 1_555
C30 C31 1_555 1_555
C36 N3 1_555 1_555
C37 O11 1_555 1_555
C37 O12 1_555 1_555
C42 C43 1_555 1_555
C48 N4 1_555 1_555
C49 O14 1_555 1_555
C54 C55 1_555 1_555
C60 N5 1_555 1_555
C61 O15 1_555 1_555
C66 C67 1_555 1_555
C72 N6 1_555 1_555
C73 O17 1_555 1_555
C78 C79 1_555 1_555
C77A C79A 1_555 1_555
C78A C79A 1_555 1_555
Cu2A I2A 1_555 1_555
C1A O4A 1_555 1_555
C6A C7A 1_555 1_555
C9A N1A 1_555 1_555
C12A N1A 1_555 1_555
C13A O7A 1_555 1_555
C18A C19A 1_555 1_555
C24A N2A 1_555 1_555
C25A O9A 1_555 1_555
C30A C31A 1_555 1_555
C36A N3A 1_555 1_555
C37A O11A 1_555 1_555
C37A O12A 1_555 1_555
C42A C43A 1_555 1_555
C48A N4A 1_555 1_555
C49A O14A 1_555 1_555
C54A C55A 1_555 1_555
C60A N5A 1_555 1_555
C61A O15A 1_555 1_555
C66A C67A 1_555 1_555
C69A N6A 1_555 1_555
C72A N6A 1_555 1_555

#END
