
#######################################################################
#
#                 Cambridge Crystallographic Data Centre
#                                CCDC 
#
#######################################################################
#
# If this CIF has been generated from an entry in the Cambridge 
# Structural Database, then it will include bibliographic, chemical, 
# crystal, experimental, refinement or atomic coordinate data resulting 
# from the CCDC's data processing and validation procedures.
#
#######################################################################

data_WODYIZ
_symmetry_cell_setting           triclinic
_symmetry_space_group_name_H-M   'P 1'
_symmetry_Int_Tables_number      1
_space_group_name_Hall           'P 1'
loop_
_symmetry_equiv_pos_site_id
_symmetry_equiv_pos_as_xyz
1 x,y,z
_cell_length_a                   8.5561(17)
_cell_length_b                   8.6560(18)
_cell_length_c                   24.424(5)
_cell_angle_alpha                93.654(3)
_cell_angle_beta                 95.997(3)
_cell_angle_gamma                91.067(4)
_cell_volume                     1794.74
loop_
_atom_site_label
_atom_site_type_symbol
_atom_site_fract_x
_atom_site_fract_y
_atom_site_fract_z
Cd1 Cd 0.41127(7) -0.88310(7) 0.39291(3)
Cd2 Cd 1.36348(7) 0.29314(7) 0.89204(3)
O1 O -1.4326(19) -0.872(2) -0.0934(8)
O2 O -1.4817(15) -0.7160(14) -0.0228(5)
O3 O 0.2494(15) -0.8539(17) 0.3110(5)
O4 O 0.185(2) -0.738(2) 0.3849(8)
O5 O 1.336(2) 0.4291(16) 0.8081(6)
O6 O 1.5169(16) 0.498(2) 0.8763(7)
O7 O 1.268(2) 1.886(2) 0.4068(6)
O8 O 1.4409(16) 1.9792(15) 0.4720(4)
N1 N -0.7379(15) -0.8785(17) 0.1158(5)
N2 N -0.484(2) -0.6884(19) 0.1718(7)
N3 N 0.5598(19) -0.680(2) 0.4328(5)
N4 N 0.8702(18) -0.3307(18) 0.5822(6)
N5 N 0.9163(17) -0.270(2) 0.7001(7)
N6 N 1.2100(13) 0.0891(14) 0.8485(5)
N7 N 1.5016(14) 1.0967(14) 0.6736(5)
N8 N 1.3049(16) 1.3240(17) 0.6230(6)
N9 N 1.1740(17) 0.4255(18) 0.9307(6)
N10 N 0.8982(19) 0.6948(17) 1.0805(6)
N11 N 0.8887(19) 0.7239(17) 1.1973(6)
N12 N 0.5998(16) 0.9915(15) 1.3470(5)
C1 C -1.398(2) -0.824(2) -0.0453(10)
C2 C -1.2482(17) -0.8604(18) -0.0109(6)
C3 C -1.134(2) -0.962(3) -0.0404(8)
H1 H -1.1559 -1.0004 -0.0778
C4 C -0.990(2) -0.9956(19) -0.0077(7)
H2 H -0.9192 -1.0606 -0.0251
C5 C -0.948(2) -0.947(2) 0.0423(7)
C6 C -1.058(2) -0.847(2) 0.0656(8)
H3 H -1.0247 -0.8010 0.1012
C7 C -1.201(2) -0.810(2) 0.0446(7)
H4 H -1.2692 -0.7523 0.0660
C8 C -0.805(2) -0.998(3) 0.0729(8)
H5 H -0.7263 -1.0224 0.0469
H6 H -0.8288 -1.0943 0.0907
C9 C -0.672(2) -0.753(3) 0.0916(7)
H7 H -0.7528 -0.7080 0.0656
H8 H -0.5847 -0.7884 0.0709
C10 C -0.6118(14) -0.6314(16) 0.1372(6)
H9 H -0.6994 -0.6125 0.1607
C11 C -0.567(2) -0.479(3) 0.1175(8)
H10 H -0.5335 -0.4064 0.1492
H11 H -0.6582 -0.4370 0.0959
H12 H -0.4811 -0.4919 0.0943
C12 C -0.540(2) -0.837(2) 0.1941(8)
H13 H -0.4513 -0.8795 0.2173
H14 H -0.6240 -0.8126 0.2179
C13 C -0.601(3) -0.957(3) 0.1500(8)
H15 H -0.6393 -1.0507 0.1663
H16 H -0.5173 -0.9877 0.1265
C14 C -0.417(2) -0.5907(15) 0.2156(7)
H17 H -0.4949 -0.5758 0.2425
H18 H -0.3966 -0.4885 0.2014
C15 C -0.2626(17) -0.6415(18) 0.2470(8)
C16 C -0.1645(18) -0.7281(19) 0.2180(7)
H19 H -0.1864 -0.7575 0.1797
C17 C -0.0235(16) -0.7710(17) 0.2510(6)
H20 H 0.0507 -0.8341 0.2344
C18 C 0.0049(19) -0.722(2) 0.3058(7)
C19 C -0.0842(18) -0.6372(19) 0.3305(8)
H21 H -0.0556 -0.6055 0.3683
C20 C -0.2245(17) -0.588(2) 0.3044(6)
H22 H -0.2921 -0.5220 0.3231
C21 C 0.1599(18) -0.7812(19) 0.3340(7)
C22 C 0.548(2) -0.530(2) 0.4230(7)
H23 H 0.4793 -0.5053 0.3918
C23 C 0.625(2) -0.407(2) 0.4536(7)
H24 H 0.6064 -0.3038 0.4437
C24 C 0.7299(18) -0.433(2) 0.4983(6)
C25 C 0.7532(19) -0.578(2) 0.5057(8)
H25 H 0.8306 -0.6029 0.5343
C26 C 0.6715(17) -0.6984(16) 0.4740(6)
H26 H 0.6970 -0.8012 0.4824
C27 C 0.8113(18) -0.300(2) 0.5271(8)
H27 H 0.8998 -0.2693 0.5068
H28 H 0.7386 -0.2124 0.5283
C28 C 0.7362(17) -0.3415(18) 0.6180(6)
H29 H 0.6577 -0.4208 0.6011
H30 H 0.6836 -0.2408 0.6205
C29 C 0.804(3) -0.388(3) 0.6793(10)
H31 H 0.7180 -0.3923 0.7034
H32 H 0.8538 -0.4899 0.6775
C30 C 1.041(2) -0.251(2) 0.6665(8)
H33 H 1.0985 -0.3487 0.6632
H34 H 1.1160 -0.1693 0.6842
C31 C 0.9790(17) -0.2069(19) 0.6108(6)
H35 H 1.0675 -0.1900 0.5886
H36 H 0.9222 -0.1087 0.6141
C32 C 0.974(2) -0.2987(19) 0.7562(7)
H37 H 1.0493 -0.3840 0.7549
H38 H 0.8841 -0.3362 0.7747
C33 C 1.055(2) -0.1628(16) 0.7929(7)
C34 C 1.160(2) -0.179(2) 0.8399(7)
H39 H 1.1743 -0.2780 0.8538
C35 C 1.244(2) -0.051(2) 0.8667(7)
H40 H 1.3224 -0.0627 0.8966
C36 C 1.112(2) 0.116(3) 0.8018(7)
H41 H 1.1022 0.2175 0.7897
C37 C 1.030(2) -0.004(2) 0.7732(7)
H42 H 0.9591 0.0121 0.7417
C38 C 1.4458(17) 0.5288(16) 0.8311(6)
C39 C 1.5021(16) 0.6579(18) 0.7992(6)
C40 C 1.4377(17) 0.6689(18) 0.7453(7)
H43 H 1.3707 0.5880 0.7274
C41 C 1.4708(18) 0.7993(16) 0.7168(6)
H44 H 1.4258 0.8082 0.6799
C42 C 1.5695(18) 0.9136(18) 0.7431(8)
C43 C 1.6225(18) 0.890(2) 0.7998(7)
H45 H 1.6869 0.9702 0.8192
C44 C 1.5943(18) 0.7775(19) 0.8261(7)
H46 H 1.6347 0.7735 0.8637
C45 C 1.617(3) 1.043(2) 0.7134(9)
H47 H 1.6506 1.1300 0.7406
H48 H 1.7099 1.0125 0.6946
C46 C 1.565(2) 1.219(2) 0.6348(8)
H49 H 1.5984 1.3160 0.6578
C47 C 1.707(3) 1.154(2) 0.6101(7)
H50 H 1.7588 1.2350 0.5920
H51 H 1.6728 1.0682 0.5830
H52 H 1.7800 1.1156 0.6395
C48 C 1.4359(19) 1.256(2) 0.5923(9)
H53 H 1.3977 1.1613 0.5697
H54 H 1.4736 1.3319 0.5676
C49 C 1.243(2) 1.219(2) 0.6548(8)
H55 H 1.1986 1.1275 0.6314
H56 H 1.1572 1.2660 0.6740
C50 C 1.374(2) 1.1703(19) 0.6966(6)
H57 H 1.4149 1.2634 0.7196
H58 H 1.3285 1.0988 0.7212
C51 C 1.178(2) 1.364(2) 0.5792(7)
H59 H 1.0821 1.3911 0.5965
H60 H 1.1531 1.2727 0.5530
C52 C 1.232(2) 1.503(2) 0.5472(7)
C53 C 1.156(2) 1.5023(19) 0.4943(7)
H61 H 1.0858 1.4230 0.4773
C54 C 1.205(2) 1.654(2) 0.4658(8)
H62 H 1.1567 1.6672 0.4297
C55 C 1.3079(17) 1.763(2) 0.4879(8)
C56 C 1.3690(18) 1.745(2) 0.5412(7)
H63 H 1.4418 1.8220 0.5585
C57 C 1.331(2) 1.623(2) 0.5711(7)
H64 H 1.3732 1.6205 0.6086
C58 C 1.337(2) 1.899(3) 0.4555(7)
C59 C 1.219(2) 0.5249(19) 0.9782(8)
H65 H 1.3275 0.5466 0.9884
C60 C 1.114(2) 0.591(2) 1.0100(6)
H66 H 1.1470 0.6526 1.0428
C61 C 0.950(2) 0.562(2) 0.9918(9)
C62 C 0.906(2) 0.477(2) 0.9452(9)
H67 H 0.7973 0.4689 0.9325
C63 C 1.016(2) 0.399(2) 0.9134(7)
H68 H 0.9815 0.3312 0.8821
C64 C 0.840(2) 0.646(2) 1.0293(6)
H69 H 0.7983 0.7363 1.0104
H70 H 0.7497 0.5745 1.0321
C65 C 0.9198(19) 0.5606(18) 1.1172(7)
H71 H 0.9861 0.4812 1.1008
H72 H 0.8168 0.5121 1.1220
C66 C 1.000(3) 0.628(2) 1.1724(8)
H73 H 1.0321 0.5441 1.1964
H74 H 1.0943 0.6903 1.1667
C67 C 0.859(3) 0.852(2) 1.1663(8)
H75 H 0.9576 0.9127 1.1660
H76 H 0.7836 0.9188 1.1843
C68 C 0.7910(18) 0.8090(17) 1.1067(6)
H77 H 0.6844 0.7620 1.1061
H78 H 0.7827 0.9032 1.0857
C69 C 0.957(2) 0.774(2) 1.2593(7)
H79 H 1.0018 0.6835 1.2777
H80 H 1.0419 0.8539 1.2597
C70 C 0.823(2) 0.8382(17) 1.2891(6)
C71 C 0.8693(19) 0.9303(17) 1.3385(5)
H81 H 0.9760 0.9449 1.3534
C72 C 0.754(2) 0.9926(19) 1.3615(6)
H82 H 0.7857 1.0504 1.3953
C73 C 0.562(2) 0.909(2) 1.3031(6)
H83 H 0.4539 0.9012 1.2891
C74 C 0.670(2) 0.8288(18) 1.2741(9)
H84 H 0.6320 0.7647 1.2423
Cd1_2 Cd 0.41127(7) 1.11690(7) 1.39291(3)
Cd1_3 Cd 1.41127(7) 2.11690(7) 0.39291(3)
Cd2_2 Cd -1.63652(7) -0.70686(7) -0.10796(3)
O1_2 O 1.5674(19) 0.128(2) 0.9066(8)
O2_2 O 1.5183(15) 0.2840(14) 0.9772(5)
O7_2 O 0.268(2) -1.114(2) 0.4068(6)
O8_2 O 0.4409(16) -1.0208(15) 0.4720(4)
N12_2 N 0.5998(16) -1.0085(15) 0.3470(5)
O9 O 0.4851(13) 0.7926(12) 0.9633(4)
O10 O 0.7606(12) 0.3131(16) 0.8180(5)
loop_
_geom_bond_atom_site_label_1
_geom_bond_atom_site_label_2
_geom_bond_site_symmetry_1
_geom_bond_site_symmetry_2
Cd1 O3 1_555 1_555
Cd2 O5 1_555 1_555
O1 C1 1_555 1_555
O2 C1 1_555 1_555
O3 C21 1_555 1_555
O4 Cd1 1_555 1_555
O5 C38 1_555 1_555
O6 Cd2 1_555 1_555
O7 C58 1_555 1_555
O8 C58 1_555 1_555
N1 C8 1_555 1_555
N2 C10 1_555 1_555
N3 Cd1 1_555 1_555
N4 C27 1_555 1_555
N5 C29 1_555 1_555
N6 Cd2 1_555 1_555
N7 C45 1_555 1_555
N8 C48 1_555 1_555
N9 Cd2 1_555 1_555
N10 C64 1_555 1_555
N11 C66 1_555 1_555
N12 C72 1_555 1_555
C1 C2 1_555 1_555
C2 C3 1_555 1_555
C3 H1 1_555 1_555
C4 C3 1_555 1_555
H2 C4 1_555 1_555
C5 C4 1_555 1_555
C6 C5 1_555 1_555
H3 C6 1_555 1_555
C7 C2 1_555 1_555
H4 C7 1_555 1_555
C8 C5 1_555 1_555
H5 C8 1_555 1_555
H6 C8 1_555 1_555
C9 N1 1_555 1_555
H7 C9 1_555 1_555
H8 C9 1_555 1_555
C10 C9 1_555 1_555
H9 C10 1_555 1_555
C11 C10 1_555 1_555
H10 C11 1_555 1_555
H11 C11 1_555 1_555
H12 C11 1_555 1_555
C12 N2 1_555 1_555
H13 C12 1_555 1_555
H14 C12 1_555 1_555
C13 N1 1_555 1_555
H15 C13 1_555 1_555
H16 C13 1_555 1_555
C14 N2 1_555 1_555
H17 C14 1_555 1_555
H18 C14 1_555 1_555
C15 C14 1_555 1_555
C16 C15 1_555 1_555
H19 C16 1_555 1_555
C17 C16 1_555 1_555
H20 C17 1_555 1_555
C18 C17 1_555 1_555
C19 C18 1_555 1_555
H21 C19 1_555 1_555
C20 C15 1_555 1_555
H22 C20 1_555 1_555
C21 O4 1_555 1_555
C22 N3 1_555 1_555
H23 C22 1_555 1_555
C23 C22 1_555 1_555
H24 C23 1_555 1_555
C24 C23 1_555 1_555
C25 C24 1_555 1_555
H25 C25 1_555 1_555
C26 N3 1_555 1_555
H26 C26 1_555 1_555
C27 C24 1_555 1_555
H27 C27 1_555 1_555
H28 C27 1_555 1_555
C28 N4 1_555 1_555
H29 C28 1_555 1_555
H30 C28 1_555 1_555
C29 C28 1_555 1_555
H31 C29 1_555 1_555
H32 C29 1_555 1_555
C30 N5 1_555 1_555
H33 C30 1_555 1_555
H34 C30 1_555 1_555
C31 N4 1_555 1_555
H35 C31 1_555 1_555
H36 C31 1_555 1_555
C32 N5 1_555 1_555
H37 C32 1_555 1_555
H38 C32 1_555 1_555
C33 C32 1_555 1_555
C34 C33 1_555 1_555
H39 C34 1_555 1_555
C35 N6 1_555 1_555
H40 C35 1_555 1_555
C36 N6 1_555 1_555
H41 C36 1_555 1_555
C37 C33 1_555 1_555
H42 C37 1_555 1_555
C38 O6 1_555 1_555
C39 C38 1_555 1_555
C40 C39 1_555 1_555
H43 C40 1_555 1_555
C41 C40 1_555 1_555
H44 C41 1_555 1_555
C42 C41 1_555 1_555
C43 C42 1_555 1_555
H45 C43 1_555 1_555
C44 C39 1_555 1_555
H46 C44 1_555 1_555
C45 C42 1_555 1_555
H47 C45 1_555 1_555
H48 C45 1_555 1_555
C46 N7 1_555 1_555
H49 C46 1_555 1_555
C47 C46 1_555 1_555
H50 C47 1_555 1_555
H51 C47 1_555 1_555
H52 C47 1_555 1_555
C48 C46 1_555 1_555
H53 C48 1_555 1_555
H54 C48 1_555 1_555
C49 N8 1_555 1_555
H55 C49 1_555 1_555
H56 C49 1_555 1_555
C50 N7 1_555 1_555
H57 C50 1_555 1_555
H58 C50 1_555 1_555
C51 N8 1_555 1_555
H59 C51 1_555 1_555
H60 C51 1_555 1_555
C52 C51 1_555 1_555
C53 C52 1_555 1_555
H61 C53 1_555 1_555
C54 C53 1_555 1_555
H62 C54 1_555 1_555
C55 C54 1_555 1_555
C56 C55 1_555 1_555
H63 C56 1_555 1_555
C57 C52 1_555 1_555
H64 C57 1_555 1_555
C58 C55 1_555 1_555
C59 N9 1_555 1_555
H65 C59 1_555 1_555
C60 C59 1_555 1_555
H66 C60 1_555 1_555
C61 C60 1_555 1_555
C62 C61 1_555 1_555
H67 C62 1_555 1_555
C63 N9 1_555 1_555
H68 C63 1_555 1_555
C64 C61 1_555 1_555
H69 C64 1_555 1_555
H70 C64 1_555 1_555
C65 N10 1_555 1_555
H71 C65 1_555 1_555
H72 C65 1_555 1_555
C66 C65 1_555 1_555
H73 C66 1_555 1_555
H74 C66 1_555 1_555
C67 N11 1_555 1_555
H75 C67 1_555 1_555
H76 C67 1_555 1_555
C68 N10 1_555 1_555
H77 C68 1_555 1_555
H78 C68 1_555 1_555
C69 N11 1_555 1_555
H79 C69 1_555 1_555
H80 C69 1_555 1_555
C70 C69 1_555 1_555
C71 C70 1_555 1_555
H81 C71 1_555 1_555
C72 C71 1_555 1_555
H82 C72 1_555 1_555
C73 N12 1_555 1_555
H83 C73 1_555 1_555
C74 C70 1_555 1_555
H84 C74 1_555 1_555
Cd1_2 N12 1_555 1_555
Cd1_3 O7 1_555 1_555
Cd2_2 O1 1_555 1_555
O1_2 Cd2 1_555 1_555
O2_2 Cd2 1_555 1_555
O7_2 Cd1 1_555 1_555
O8_2 Cd1 1_555 1_555
N12_2 Cd1 1_555 1_555
O2 Cd2_2 1_555 1_555
O8 Cd1_3 1_555 1_555
C6 C7 1_555 1_555
C12 C13 1_555 1_555
C18 C21 1_555 1_555
C19 C20 1_555 1_555
C25 C26 1_555 1_555
C30 C31 1_555 1_555
C34 C35 1_555 1_555
C36 C37 1_555 1_555
C43 C44 1_555 1_555
C49 C50 1_555 1_555
C56 C57 1_555 1_555
C62 C63 1_555 1_555
C67 C68 1_555 1_555
C73 C74 1_555 1_555

#END
