
#######################################################################
#
#                 Cambridge Crystallographic Data Centre
#                                CCDC 
#
#######################################################################
#
# If this CIF has been generated from an entry in the Cambridge 
# Structural Database, then it will include bibliographic, chemical, 
# crystal, experimental, refinement or atomic coordinate data resulting 
# from the CCDC's data processing and validation procedures.
#
#######################################################################

data_WOFBAV
_symmetry_cell_setting           rhombohedral
_symmetry_space_group_name_H-M   'R 3 c'
_symmetry_Int_Tables_number      161
_space_group_name_Hall           'R 3 -2"c'
loop_
_symmetry_equiv_pos_site_id
_symmetry_equiv_pos_as_xyz
1 x,y,z
2 -y,x-y,z
3 -x+y,-x,z
4 -y,-x,1/2+z
5 -x+y,y,1/2+z
6 x,x-y,1/2+z
7 2/3+x,1/3+y,1/3+z
8 2/3-y,1/3+x-y,1/3+z
9 2/3-x+y,1/3-x,1/3+z
10 2/3-y,1/3-x,5/6+z
11 2/3-x+y,1/3+y,5/6+z
12 2/3+x,1/3+x-y,5/6+z
13 1/3+x,2/3+y,2/3+z
14 1/3-y,2/3+x-y,2/3+z
15 1/3-x+y,2/3-x,2/3+z
16 1/3-y,2/3-x,1/6+z
17 1/3-x+y,2/3+y,1/6+z
18 1/3+x,2/3+x-y,1/6+z
_cell_length_a                   14.8056(7)
_cell_length_b                   14.8056(7)
_cell_length_c                   12.1621(12)
_cell_angle_alpha                90
_cell_angle_beta                 90
_cell_angle_gamma                120.00
_cell_volume                     2308.83
loop_
_atom_site_label
_atom_site_type_symbol
_atom_site_fract_x
_atom_site_fract_y
_atom_site_fract_z
Na1 Na -0.73773(4) -0.12277(4) 0.00441(4)
N1 N -0.69939(7) -0.25791(7) -0.07918(8)
N2 N -0.6667 -0.3333 -0.24383(14)
C1 C -0.59366(8) -0.22838(8) -0.04014(10)
H1 H -0.5931 -0.2275 0.0396
H2 H -0.5449 -0.1584 -0.0655
C2 C -0.69809(11) -0.25996(11) -0.20111(10)
H3 H -0.7671 -0.2798 -0.2286
H4 H -0.6501 -0.1905 -0.2282
N3 N -0.65422(8) 0.05771(9) -0.13952(9)
O1 O -0.71201(9) 0.05609(11) -0.06562(12)
O2 O -0.63044(11) -0.01228(9) -0.14675(11)
O3 O -0.61793(9) 0.13012(8) -0.20904(11)
Na1B Na -0.38504(6) -0.26227(4) 0.00441(4)
Na1A Na -0.87723(4) -0.61496(6) 0.00441(4)
Na1J Na -0.71837(6) 0.21056(4) -0.16226(4)
Na1M Na -0.54390(4) 0.05171(6) -0.32892(4)
Na1P Na -1.05171(6) -0.45610(4) 0.17108(4)
Na1K Na -1.07106(4) -0.28163(6) -0.16226(4)
Na1H Na -0.71837(6) 0.07106(4) 0.33774(4)
Na1Q Na -0.40440(4) 0.05171(6) 0.17108(4)
N1B N -0.55852(10) -0.30061(7) -0.07918(8)
N1A N -0.74209(7) -0.44148(10) -0.07918(8)
C1B C -0.63472(11) -0.40634(8) -0.04014(10)
C1A C -0.77162(8) -0.36528(11) -0.04014(10)
H1A H -0.7725 -0.3656 0.0396
H1B H -0.6344 -0.4069 0.0396
H2A H -0.8416 -0.3865 -0.0655
H2B H -0.6135 -0.4551 -0.0655
C2A C -0.74004(11) -0.43813(16) -0.20111(10)
C2B C -0.56187(16) -0.30191(11) -0.20111(10)
H3A H -0.7202 -0.4873 -0.2286
H3B H -0.5127 -0.2329 -0.2286
H4A H -0.8095 -0.4596 -0.2282
H4B H -0.5404 -0.3499 -0.2282
N3P N -0.95474(12) -0.27562(9) 0.02715(9)
N3H N -0.62140(12) -0.01245(8) 0.19381(9)
O1P O -0.89857(14) -0.27724(11) 0.10105(12)
O1H O -0.56523(14) 0.04534(9) 0.26771(12)
O1B O -0.23190(14) -0.28799(9) -0.06562(12)
O1Q O -0.37868(9) -0.10143(14) 0.10105(12)
O1A O -1.05609(11) -0.76810(14) -0.06562(12)
O1O O -0.72276(11) -0.62132(9) 0.10105(12)
O2P O -1.04851(14) -0.34561(9) 0.01992(11)
O2H O -0.71517(14) -0.03623(11) 0.18658(11)
O2B O -0.38184(14) -0.36956(11) -0.14675(11)
O2G O -0.32105(9) -0.28483(14) 0.18658(11)
O2A O -0.98772(9) -0.61816(14) -0.14675(11)
O2F O -0.96377(11) -0.67895(9) 0.18658(11)
O3P O -0.91862(12) -0.20321(8) -0.04237(11)
O3H O -0.58528(12) -0.04874(9) 0.12429(11)
O3G O -0.46345(8) -0.41472(12) 0.12429(11)
O3Q O -0.28460(9) -0.08138(12) -0.04237(11)
O3F O -0.95126(9) -0.53655(8) 0.12429(11)
O3O O -0.79679(8) -0.71540(9) -0.04237(11)
loop_
_geom_bond_atom_site_label_1
_geom_bond_atom_site_label_2
_geom_bond_site_symmetry_1
_geom_bond_site_symmetry_2
Na1 N1 1_555 1_555
N1 C1 1_555 1_555
N2 C2 1_555 1_555
C1 H1 1_555 1_555
H2 C1 1_555 1_555
C2 N1 1_555 1_555
H3 C2 1_555 1_555
H4 C2 1_555 1_555
N3 O1 1_555 1_555
O1 Na1 1_555 1_555
O2 Na1 1_555 1_555
O3 N3 1_555 1_555
Na1B N1B 1_555 1_555
Na1A N1A 1_555 1_555
Na1J O1 1_555 1_555
Na1M O2 1_555 1_555
Na1P O1P 1_555 1_555
Na1K O2P 1_555 1_555
Na1H O1H 1_555 1_555
Na1Q O1H 1_555 1_555
N1B C1 1_555 1_555
N1A C1B 1_555 1_555
C1B N1B 1_555 1_555
C1A N1 1_555 1_555
H1A C1A 1_555 1_555
H1B C1B 1_555 1_555
H2A C1A 1_555 1_555
H2B C1B 1_555 1_555
C2A N2 1_555 1_555
C2B N2 1_555 1_555
H3A C2A 1_555 1_555
H3B C2B 1_555 1_555
H4A C2A 1_555 1_555
H4B C2B 1_555 1_555
N3P O1P 1_555 1_555
N3H O1H 1_555 1_555
O1P Na1 1_555 1_555
O1B Na1B 1_555 1_555
O1Q Na1B 1_555 1_555
O1A Na1A 1_555 1_555
O1O Na1A 1_555 1_555
O2P Na1P 1_555 1_555
O2H Na1 1_555 1_555
O2B Na1B 1_555 1_555
O2G Na1B 1_555 1_555
O2A Na1A 1_555 1_555
O2F Na1A 1_555 1_555
O3P Na1 1_555 1_555
O3H Na1 1_555 1_555
O3G Na1B 1_555 1_555
O3Q Na1B 1_555 1_555
O3F Na1A 1_555 1_555
O3O Na1A 1_555 1_555
N3 O2 1_555 1_555
O3 Na1J 1_555 1_555
O3 Na1M 1_555 1_555
Na1P O3F 1_555 1_555
Na1K O3P 1_555 1_555
Na1H O2H 1_555 1_555
Na1Q O1Q 1_555 1_555
Na1Q O3H 1_555 1_555
N1B C2B 1_555 1_555
N1A C1A 1_555 1_555
N1A C2A 1_555 1_555
N3P O2P 1_555 1_555
N3P O3P 1_555 1_555
N3H O2H 1_555 1_555
N3H O3H 1_555 1_555

#END
