
#######################################################################
#
#                 Cambridge Crystallographic Data Centre
#                                CCDC 
#
#######################################################################
#
# If this CIF has been generated from an entry in the Cambridge 
# Structural Database, then it will include bibliographic, chemical, 
# crystal, experimental, refinement or atomic coordinate data resulting 
# from the CCDC's data processing and validation procedures.
#
#######################################################################

data_WOFQUE
_symmetry_cell_setting           orthorhombic
_symmetry_space_group_name_H-M   'P b c n'
_symmetry_Int_Tables_number      60
_space_group_name_Hall           '-P 2n 2ab'
loop_
_symmetry_equiv_pos_site_id
_symmetry_equiv_pos_as_xyz
1 x,y,z
2 1/2-x,1/2-y,1/2+z
3 1/2+x,1/2-y,-z
4 -x,y,1/2-z
5 -x,-y,-z
6 1/2+x,1/2+y,1/2-z
7 1/2-x,1/2+y,z
8 x,-y,1/2+z
_cell_length_a                   17.549(3)
_cell_length_b                   10.952(2)
_cell_length_c                   25.322(5)
_cell_angle_alpha                90
_cell_angle_beta                 90
_cell_angle_gamma                90
_cell_volume                     4866.8
loop_
_atom_site_label
_atom_site_type_symbol
_atom_site_fract_x
_atom_site_fract_y
_atom_site_fract_z
Yb1 Yb 0.134890(17) 0.47703(3) 0.093697(13)
Co1 Co 0.12890(5) 0.02318(9) 0.38583(4)
O1 O 0.1496(3) -0.0939(5) 0.3323(2)
O2 O 0.1560(7) -0.1182(7) 0.2455(3)
O3 O 0.0965(4) 0.2826(7) 0.1395(3)
O4 O 0.1181(5) 0.4478(7) 0.1862(3)
O5 O 0.1464(3) -0.0982(5) 0.4377(2)
O6 O 0.2405(3) -0.2050(5) 0.4748(2)
O7 O 0.0079(3) 0.4536(6) 0.0733(3)
O8 O 0.0202(3) 0.6081(6) 0.1268(3)
O9 O 0.6064(3) 0.6410(5) 0.0622(2)
O10 O 0.5140(3) 0.7077(5) 0.0087(2)
O11 O 0.2486(3) 0.3620(5) 0.1108(2)
O12 O 0.2533(3) 0.4953(5) 0.0462(2)
O13 O 0.1252(3) 0.3445(5) 0.0223(2)
O14 O 0.2088(3) 0.6223(5) 0.1385(2)
O15 O 0.1295(3) 0.6502(6) 0.0393(2)
N1 N 0.1118(4) 0.1316(6) 0.3270(2)
N2 N 0.2370(3) 0.0532(6) 0.3907(3)
N3 N 0.5226(4) 0.4851(6) 0.1097(3)
C1 C 0.1251(5) 0.0767(8) 0.2803(3)
C2 C 0.1209(5) 0.1384(8) 0.2325(3)
H1 H 0.1283 0.0969 0.2000
C3 C 0.1053(4) 0.2624(8) 0.2337(3)
C4 C 0.0907(5) 0.3189(8) 0.2818(4)
H2 H 0.0793 0.4036 0.2832
C5 C 0.0931(5) 0.2492(7) 0.3283(3)
H3 H 0.0812 0.2865 0.3612
C6 C 0.1449(6) -0.0543(9) 0.2855(4)
C7 C 0.1057(5) 0.3347(9) 0.1826(4)
C8 C 0.2724(4) -0.0349(6) 0.4195(3)
C9 C 0.3498(4) -0.0412(7) 0.4229(3)
H4 H 0.3731 -0.1044 0.4429
C10 C 0.3948(4) 0.0455(7) 0.3969(3)
C11 C 0.3590(4) 0.1366(7) 0.3689(3)
H5 H 0.3878 0.1978 0.3514
C12 C 0.2789(4) 0.1374(7) 0.3665(3)
H6 H 0.2541 0.1999 0.3470
C13 C 0.2178(4) -0.1206(7) 0.4467(3)
C14 C -0.0193(4) 0.5369(8) 0.1014(3)
C15 C 0.4863(4) 0.5502(7) 0.0710(3)
C16 C 0.4112(4) 0.5335(7) 0.0600(3)
H7 H 0.3868 0.5802 0.0333
C17 C 0.3705(4) 0.4466(8) 0.0888(3)
C18 C 0.4082(4) 0.3794(8) 0.1269(3)
H8 H 0.3819 0.3189 0.1466
C19 C 0.4845(4) 0.4011(7) 0.1361(3)
H9 H 0.5103 0.3544 0.1622
C20 C 0.5376(4) 0.6407(7) 0.0444(3)
C21 C 0.2861(4) 0.4321(8) 0.0805(3)
Yb1E Yb 0.634890(17) -0.02297(3) 0.406303(13)
Yb1E_2 Yb -0.365110(17) 0.97703(3) 0.406303(13)
Yb1_2 Yb -0.865110(17) 0.47703(3) 0.093697(13)
Co1E Co -0.37110(5) 0.52318(9) 0.11417(4)
Co1E_2 Co 0.62890(5) 0.52318(9) 0.11417(4)
O1E O -0.3504(3) 0.4061(5) 0.1677(2)
O2E O -0.3440(7) 0.3818(7) 0.2545(3)
O3E O 0.5965(4) -0.2174(7) 0.3605(3)
O3E_2 O -0.4035(4) 0.7826(7) 0.3605(3)
O4E O 0.6181(5) -0.0522(7) 0.3138(3)
O4E_2 O -0.3819(5) 0.9478(7) 0.3138(3)
O5E O -0.3536(3) 0.4018(5) 0.0623(2)
O6E O -0.2595(3) 0.2950(5) 0.0252(2)
O7E O 0.5079(3) -0.0464(6) 0.4267(3)
O8E O 0.5202(3) 0.1081(6) 0.3732(3)
O9E O 0.1064(3) 0.1410(5) 0.4378(2)
O9_2 O -0.3936(3) 0.6410(5) 0.0622(2)
O10_2 O -0.4860(3) 0.7077(5) 0.0087(2)
O11E O 0.7486(3) -0.1380(5) 0.3892(2)
O11_2 O -0.7514(3) 0.3620(5) 0.1108(2)
O12E O 0.7533(3) -0.0047(5) 0.4538(2)
O12_2 O -0.7467(3) 0.4953(5) 0.0462(2)
O13E O 0.6252(3) -0.1555(5) 0.4777(2)
O14E O 0.7088(3) 0.1223(5) 0.3615(2)
O15E O 0.6295(3) 0.1502(6) 0.4607(2)
N1E N -0.3882(4) 0.6316(6) 0.1730(2)
N2E N -0.2630(3) 0.5532(6) 0.1093(3)
N3E N 0.0226(4) -0.0149(6) 0.3903(3)
N3_2 N -0.4774(4) 0.4851(6) 0.1097(3)
C1E C -0.3749(5) 0.5767(8) 0.2197(3)
C2E C -0.3791(5) 0.6384(8) 0.2675(3)
H1E H -0.3717 0.5969 0.3000
C3E C -0.3947(4) 0.7624(8) 0.2663(3)
C4E C -0.4093(5) 0.8189(8) 0.2182(4)
H2E H -0.4207 0.9036 0.2168
C5E C -0.4069(5) 0.7492(7) 0.1717(3)
H3E H -0.4188 0.7865 0.1388
C6E C -0.3551(6) 0.4457(9) 0.2145(4)
C7E C -0.3943(5) 0.8347(9) 0.3174(4)
C8E C -0.2276(4) 0.4651(6) 0.0805(3)
C9E C -0.1502(4) 0.4588(7) 0.0771(3)
H4E H -0.1269 0.3956 0.0571
C10E C -0.1052(4) 0.5455(7) 0.1031(3)
C11E C -0.1410(4) 0.6366(7) 0.1311(3)
H5E H -0.1122 0.6978 0.1486
C12E C -0.2211(4) 0.6374(7) 0.1335(3)
H6E H -0.2459 0.6999 0.1530
C13E C -0.2822(4) 0.3794(7) 0.0533(3)
C14E C 0.4807(4) 0.0369(8) 0.3986(3)
C15_2 C -0.5137(4) 0.5502(7) 0.0710(3)
C16_2 C -0.5888(4) 0.5335(7) 0.0600(3)
H7_2 H -0.6132 0.5802 0.0333
C17_2 C -0.6295(4) 0.4466(8) 0.0888(3)
C18_2 C -0.5918(4) 0.3794(8) 0.1269(3)
H8_2 H -0.6181 0.3189 0.1466
C19_2 C -0.5155(4) 0.4011(7) 0.1361(3)
H9_2 H -0.4897 0.3544 0.1622
C20_2 C -0.4624(4) 0.6407(7) 0.0444(3)
C21_2 C -0.7139(4) 0.4321(8) 0.0805(3)
O16 O 0.1957(5) 0.6405(7) 0.2437(3)
loop_
_geom_bond_atom_site_label_1
_geom_bond_atom_site_label_2
_geom_bond_site_symmetry_1
_geom_bond_site_symmetry_2
Yb1 O3 1_555 1_555
Co1 O1 1_555 1_555
O1 C6 1_555 1_555
O2 C6 1_555 1_555
O3 C7 1_555 1_555
O4 Yb1 1_555 1_555
O5 Co1 1_555 1_555
O6 C13 1_555 1_555
O7 Yb1 1_555 1_555
O8 Yb1 1_555 1_555
O9 C20 1_555 1_555
O10 C20 1_555 1_555
O11 Yb1 1_555 1_555
O12 Yb1 1_555 1_555
O13 Yb1 1_555 1_555
O14 Yb1 1_555 1_555
O15 Yb1 1_555 1_555
N1 Co1 1_555 1_555
N2 Co1 1_555 1_555
N3 C15 1_555 1_555
C1 N1 1_555 1_555
C2 C1 1_555 1_555
H1 C2 1_555 1_555
C3 C2 1_555 1_555
C4 C3 1_555 1_555
H2 C4 1_555 1_555
C5 N1 1_555 1_555
H3 C5 1_555 1_555
C6 C1 1_555 1_555
C7 O4 1_555 1_555
C8 N2 1_555 1_555
C9 C8 1_555 1_555
H4 C9 1_555 1_555
C10 C9 1_555 1_555
C11 C10 1_555 1_555
H5 C11 1_555 1_555
C12 N2 1_555 1_555
H6 C12 1_555 1_555
C13 O5 1_555 1_555
C14 O7 1_555 1_555
C15 C16 1_555 1_555
C16 H7 1_555 1_555
C17 C16 1_555 1_555
C18 C17 1_555 1_555
H8 C18 1_555 1_555
C19 N3 1_555 1_555
H9 C19 1_555 1_555
C20 C15 1_555 1_555
C21 O11 1_555 1_555
Yb1E O3E 1_555 1_555
Yb1E_2 O3E_2 1_555 1_555
Yb1_2 O11_2 1_555 1_555
Co1E O1E 1_555 1_555
Co1E_2 O9 1_555 1_555
O1E C6E 1_555 1_555
O2E C6E 1_555 1_555
O3E_2 C7E 1_555 1_555
O4E Yb1E 1_555 1_555
O4E_2 Yb1E_2 1_555 1_555
O5E Co1E 1_555 1_555
O6E C13E 1_555 1_555
O7E Yb1E 1_555 1_555
O8E Yb1E 1_555 1_555
O9E Co1 1_555 1_555
O9_2 Co1E 1_555 1_555
O10_2 C20_2 1_555 1_555
O11E Yb1E 1_555 1_555
O11_2 C21_2 1_555 1_555
O12E Yb1E 1_555 1_555
O12_2 Yb1_2 1_555 1_555
O13E Yb1E 1_555 1_555
O14E Yb1E 1_555 1_555
O15E Yb1E 1_555 1_555
N1E Co1E 1_555 1_555
N2E Co1E 1_555 1_555
N3E Co1 1_555 1_555
N3_2 Co1E 1_555 1_555
C1E N1E 1_555 1_555
C2E C1E 1_555 1_555
H1E C2E 1_555 1_555
C3E C2E 1_555 1_555
C4E C3E 1_555 1_555
H2E C4E 1_555 1_555
C5E N1E 1_555 1_555
H3E C5E 1_555 1_555
C6E C1E 1_555 1_555
C7E O4E_2 1_555 1_555
C8E N2E 1_555 1_555
C9E C8E 1_555 1_555
H4E C9E 1_555 1_555
C10E C14 1_555 1_555
C11E C10E 1_555 1_555
H5E C11E 1_555 1_555
C12E N2E 1_555 1_555
H6E C12E 1_555 1_555
C13E O5E 1_555 1_555
C14E C10 1_555 1_555
C15_2 N3_2 1_555 1_555
C16_2 C15_2 1_555 1_555
H7_2 C16_2 1_555 1_555
C17_2 C16_2 1_555 1_555
C18_2 C17_2 1_555 1_555
H8_2 C18_2 1_555 1_555
C19_2 N3_2 1_555 1_555
H9_2 C19_2 1_555 1_555
C20_2 O9_2 1_555 1_555
C21_2 O12_2 1_555 1_555
O8 C14 1_555 1_555
O12 C21 1_555 1_555
N3 Co1E_2 1_555 1_555
C3 C7 1_555 1_555
C4 C5 1_555 1_555
C8 C13 1_555 1_555
C11 C12 1_555 1_555
C17 C21 1_555 1_555
C18 C19 1_555 1_555
O7E C14E 1_555 1_555
O8E C14E 1_555 1_555
C3E C7E 1_555 1_555
C4E C5E 1_555 1_555
C8E C13E 1_555 1_555
C9E C10E 1_555 1_555
C11E C12E 1_555 1_555
C15_2 C20_2 1_555 1_555
C17_2 C21_2 1_555 1_555
C18_2 C19_2 1_555 1_555

#END
