
#######################################################################
#
#                 Cambridge Crystallographic Data Centre
#                                CCDC 
#
#######################################################################
#
# If this CIF has been generated from an entry in the Cambridge 
# Structural Database, then it will include bibliographic, chemical, 
# crystal, experimental, refinement or atomic coordinate data resulting 
# from the CCDC's data processing and validation procedures.
#
#######################################################################

data_WOFSIU
_symmetry_cell_setting           trigonal
_symmetry_space_group_name_H-M   'P -3 c 1'
_symmetry_Int_Tables_number      165
_space_group_name_Hall           '-P 3 2"c'
loop_
_symmetry_equiv_pos_site_id
_symmetry_equiv_pos_as_xyz
1 x,y,z
2 -y,x-y,z
3 -x+y,-x,z
4 y,x,1/2-z
5 -x,-x+y,1/2-z
6 x-y,-y,1/2-z
7 -x,-y,-z
8 y,-x+y,-z
9 x-y,x,-z
10 -y,-x,1/2+z
11 x,x-y,1/2+z
12 -x+y,y,1/2+z
_cell_length_a                   13.5470(10)
_cell_length_b                   13.5470(10)
_cell_length_c                   16.6177(10)
_cell_angle_alpha                90
_cell_angle_beta                 90
_cell_angle_gamma                120
_cell_volume                     2641.12
loop_
_atom_site_label
_atom_site_type_symbol
_atom_site_fract_x
_atom_site_fract_y
_atom_site_fract_z
Sm1 Sm -0.3333 0.3333 0.21073(2)
O1 O 0.1161(3) 0.5358(3) 0.3162(2)
O2 O 0.2375(3) 0.5083(4) 0.3857(3)
O3 O -0.4836(4) 0.2711(4) 0.3053(3)
O4 O -0.5158(4) 0.3586(4) 0.4048(3)
H1 H -0.4840 0.4131 0.3741
N1 N -0.5809(4) 0.0693(4) 0.3759(2)
H2 H -0.5453 0.0776 0.3313
C1 C 0.1380(4) 0.4843(5) 0.3695(3)
C2 C 0.0432(4) 0.3892(5) 0.4164(3)
H3 H 0.0573 0.3259 0.4207
H4 H 0.0410 0.4154 0.4703
C3 C -0.5775(4) 0.1657(5) 0.4228(3)
H5 H -0.5367 0.1757 0.4729
H6 H -0.6546 0.1476 0.4358
C4 C -0.5188(5) 0.2757(5) 0.3744(3)
Sm1C Sm 0.3333 0.6667 0.28927(2)
Sm1C_2 Sm -0.6667 0.6667 0.28927(2)
Sm1C_3 Sm -0.6667 -0.3333 0.28927(2)
O1E O -0.4197(4) 0.4642(3) 0.1838(2)
O1C O -0.4642(3) 0.1161(3) 0.1838(2)
O1D O -0.1161(3) 0.4197(4) 0.1838(2)
O1A O -0.5358(3) 0.5803(4) 0.3162(2)
O1B O -0.5803(4) -0.1161(3) 0.3162(2)
O2E O -0.2708(5) 0.4917(4) 0.1143(3)
O2C O -0.4917(4) 0.2375(3) 0.1143(3)
O2D O -0.2375(3) 0.2708(5) 0.1143(3)
O2A O -0.5083(4) 0.7292(5) 0.3857(3)
O2B O -0.7292(5) -0.2375(3) 0.3857(3)
O3A O -0.2711(4) 0.2453(6) 0.3053(3)
O3B O -0.2453(6) 0.4836(4) 0.3053(3)
O4A O -0.3586(4) 0.1256(6) 0.4048(3)
O4B O -0.1256(6) 0.5158(4) 0.4048(3)
H1A H -0.4131 0.1029 0.3741
H1B H -0.1029 0.4840 0.3741
N1A N -0.0693(4) 0.3498(6) 0.3759(2)
N1B N -0.3498(6) 0.5809(4) 0.3759(2)
H2A H -0.0776 0.3771 0.3313
H2B H -0.3771 0.5453 0.3313
C1A C -0.4843(5) 0.6537(6) 0.3695(3)
C1B C -0.6537(6) -0.1380(4) 0.3695(3)
C2A C -0.3892(5) 0.6540(6) 0.4164(3)
C2B C -0.6540(6) -0.0432(4) 0.4164(3)
H3A H -0.3259 0.7314 0.4207
H3B H -0.7314 -0.0573 0.4207
H4A H -0.4154 0.6256 0.4703
H4B H -0.6256 -0.0410 0.4703
C3A C -0.1657(5) 0.2568(6) 0.4228(3)
C3B C -0.2568(6) 0.5775(4) 0.4228(3)
H5A H -0.1757 0.2876 0.4729
H5B H -0.2876 0.5367 0.4729
H6A H -0.1476 0.1978 0.4358
H6B H -0.1978 0.6546 0.4358
C4A C -0.2757(5) 0.2055(7) 0.3744(3)
C4B C -0.2055(7) 0.5188(5) 0.3744(3)
loop_
_geom_bond_atom_site_label_1
_geom_bond_atom_site_label_2
_geom_bond_site_symmetry_1
_geom_bond_site_symmetry_2
Sm1 O3 1_555 1_555
O1 C1 1_555 1_555
O2 C1 1_555 1_555
O3 C4 1_555 1_555
O4 H1 1_555 1_555
N1 H2 1_555 1_555
C1 C2 1_555 1_555
C2 H3 1_555 1_555
H4 C2 1_555 1_555
C3 N1 1_555 1_555
H5 C3 1_555 1_555
H6 C3 1_555 1_555
C4 O4 1_555 1_555
Sm1C O1 1_555 1_555
Sm1C_2 O1A 1_555 1_555
Sm1C_3 O1B 1_555 1_555
O1E Sm1 1_555 1_555
O1C Sm1 1_555 1_555
O1D Sm1 1_555 1_555
O1A C1A 1_555 1_555
O1B C1B 1_555 1_555
O2E Sm1 1_555 1_555
O2C Sm1 1_555 1_555
O2D Sm1 1_555 1_555
O2A Sm1C_2 1_555 1_555
O2B Sm1C_3 1_555 1_555
O3A Sm1 1_555 1_555
O3B Sm1 1_555 1_555
O4A H1A 1_555 1_555
O4B H1B 1_555 1_555
N1A C2 1_555 1_555
N1B H2B 1_555 1_555
H2A N1A 1_555 1_555
C1A O2A 1_555 1_555
C1B O2B 1_555 1_555
C2A N1B 1_555 1_555
C2B N1 1_555 1_555
H3A C2A 1_555 1_555
H3B C2B 1_555 1_555
H4A C2A 1_555 1_555
H4B C2B 1_555 1_555
C3A N1A 1_555 1_555
C3B N1B 1_555 1_555
H5A C3A 1_555 1_555
H5B C3B 1_555 1_555
H6A C3A 1_555 1_555
H6B C3B 1_555 1_555
C4A O3A 1_555 1_555
C4B O3B 1_555 1_555
O2 Sm1C 1_555 1_555
C3 C4 1_555 1_555
O4A C4A 1_555 1_555
O4B C4B 1_555 1_555
C1A C2A 1_555 1_555
C1B C2B 1_555 1_555
C3A C4A 1_555 1_555
C3B C4B 1_555 1_555

#END
