
#######################################################################
#
#                 Cambridge Crystallographic Data Centre
#                                CCDC 
#
#######################################################################
#
# If this CIF has been generated from an entry in the Cambridge 
# Structural Database, then it will include bibliographic, chemical, 
# crystal, experimental, refinement or atomic coordinate data resulting 
# from the CCDC's data processing and validation procedures.
#
#######################################################################

data_WOFSUH
_symmetry_cell_setting           triclinic
_symmetry_space_group_name_H-M   'P -1'
_symmetry_Int_Tables_number      2
_space_group_name_Hall           '-P 1'
loop_
_symmetry_equiv_pos_site_id
_symmetry_equiv_pos_as_xyz
1 x,y,z
2 -x,-y,-z
_cell_length_a                   6.2018(11)
_cell_length_b                   11.257(2)
_cell_length_c                   11.568(2)
_cell_angle_alpha                103.004(2)
_cell_angle_beta                 99.908(3)
_cell_angle_gamma                96.709(2)
_cell_volume                     764.91
loop_
_atom_site_label
_atom_site_type_symbol
_atom_site_fract_x
_atom_site_fract_y
_atom_site_fract_z
Pd1 Pd 0.63491(3) 0.641467(16) 0.440498(15)
Pd2 Pd 0.21955(2) 0.543478(14) 0.478531(15)
C1 C 0.6899(4) 0.4785(2) 0.3541(2)
O1 O 0.6628(3) 0.41861(17) 0.25764(16)
C2 C 0.7976(4) 0.6346(2) 0.6019(2)
O2 O 0.8542(3) 0.69744(16) 0.69753(15)
O3 O 0.5563(3) 0.81003(15) 0.52604(17)
O4 O 0.2266(3) 0.73199(15) 0.55410(17)
C3 C 0.3749(4) 0.8203(2) 0.5593(2)
C4 C 0.3366(4) 0.9472(2) 0.6099(2)
H1 H 0.4531 1.0139 0.6205
C5 C 0.1501(5) 0.9720(2) 0.6406(3)
H2 H 0.0337 0.9045 0.6270
C6 C 0.1056(6) 1.0975(3) 0.6953(3)
H3 H 0.0635 1.0987 0.7733
H4 H -0.0154 1.1182 0.6407
H5 H 0.2396 1.1583 0.7078
O5 O 0.4488(3) 0.65398(18) 0.27599(16)
O6 O 0.1219(3) 0.57641(17) 0.30732(16)
C7 C 0.2404(4) 0.6254(2) 0.2474(2)
C8 C 0.1291(4) 0.6505(2) 0.1342(2)
H6 H 0.2184 0.6816 0.0852
C9 C -0.0868(5) 0.6321(2) 0.0979(2)
H7 H -0.1726 0.5990 0.1473
C10 C -0.2110(6) 0.6583(3) -0.0137(3)
H8 H -0.3138 0.5840 -0.0618
H9 H -0.1060 0.6827 -0.0618
H10 H -0.2946 0.7255 0.0092
Pd1A Pd 0.36509(3) 0.358533(16) 0.559502(15)
Pd2A Pd -0.21955(2) 0.456522(14) 0.521469(15)
Pd2A_2 Pd 0.78045(2) 0.456522(14) 0.521469(15)
C1A C 0.3101(4) 0.5215(2) 0.6459(2)
C2A C 0.2024(4) 0.3654(2) 0.3981(2)
C11 C 0.3807(10) 0.8962(4) -0.0771(5)
H11 H 0.2959 0.8233 -0.1319
C12 C 0.2955(7) 0.9569(5) 0.0157(5)
H12 H 0.1532 0.9261 0.0267
C13 C 0.4162(10) 1.0619(5) 0.0924(4)
H13 H 0.3577 1.1059 0.1569
C11A C 0.6193(10) 1.1038(4) 0.0771(5)
H11A H 0.7041 1.1767 0.1319
C12A C 0.7045(7) 1.0431(5) -0.0157(5)
H12A H 0.8468 1.0739 -0.0267
C13A C 0.5838(10) 0.9381(5) -0.0924(4)
H13A H 0.6423 0.8941 -0.1569
loop_
_geom_bond_atom_site_label_1
_geom_bond_atom_site_label_2
_geom_bond_site_symmetry_1
_geom_bond_site_symmetry_2
Pd1 Pd2 1_555 1_555
Pd2 O4 1_555 1_555
C1 Pd1 1_555 1_555
O1 C1 1_555 1_555
C2 Pd1 1_555 1_555
O2 C2 1_555 1_555
O3 Pd1 1_555 1_555
O4 C3 1_555 1_555
C3 O3 1_555 1_555
C4 C3 1_555 1_555
H1 C4 1_555 1_555
C5 C4 1_555 1_555
H2 C5 1_555 1_555
C6 C5 1_555 1_555
H3 C6 1_555 1_555
H4 C6 1_555 1_555
H5 C6 1_555 1_555
O5 Pd1 1_555 1_555
O6 Pd2 1_555 1_555
C7 O5 1_555 1_555
C8 C7 1_555 1_555
H6 C8 1_555 1_555
C9 C8 1_555 1_555
H7 C9 1_555 1_555
C10 C9 1_555 1_555
H8 C10 1_555 1_555
H9 C10 1_555 1_555
H10 C10 1_555 1_555
C11 H11 1_555 1_555
C12 C11 1_555 1_555
H12 C12 1_555 1_555
C13 C12 1_555 1_555
H13 C13 1_555 1_555
Pd1A Pd2 1_555 1_555
Pd2A Pd2 1_555 1_555
Pd2A_2 Pd1 1_555 1_555
C1A Pd2 1_555 1_555
C2A Pd2 1_555 1_555
C11A C13 1_555 1_555
H11A C11A 1_555 1_555
C12A C11A 1_555 1_555
H12A C12A 1_555 1_555
C13A C11 1_555 1_555
H13A C13A 1_555 1_555
C1 Pd2A_2 1_555 1_555
C2 Pd2A_2 1_555 1_555
O6 C7 1_555 1_555
Pd1A Pd2A_2 1_555 1_555
Pd1A C1A 1_555 1_555
Pd1A C2A 1_555 1_555
C12A C13A 1_555 1_555

#END
