
#######################################################################
#
#                 Cambridge Crystallographic Data Centre
#                                CCDC 
#
#######################################################################
#
# If this CIF has been generated from an entry in the Cambridge 
# Structural Database, then it will include bibliographic, chemical, 
# crystal, experimental, refinement or atomic coordinate data resulting 
# from the CCDC's data processing and validation procedures.
#
#######################################################################

data_WOFSOA
_symmetry_cell_setting           trigonal
_symmetry_space_group_name_H-M   'P -3 c 1'
_symmetry_Int_Tables_number      165
_space_group_name_Hall           '-P 3 2"c'
loop_
_symmetry_equiv_pos_site_id
_symmetry_equiv_pos_as_xyz
1 x,y,z
2 -y,x-y,z
3 -x+y,-x,z
4 y,x,1/2-z
5 -x,-x+y,1/2-z
6 x-y,-y,1/2-z
7 -x,-y,-z
8 y,-x+y,-z
9 x-y,x,-z
10 -y,-x,1/2+z
11 x,x-y,1/2+z
12 -x+y,y,1/2+z
_cell_length_a                   13.481(2)
_cell_length_b                   13.481(2)
_cell_length_c                   16.566(3)
_cell_angle_alpha                90
_cell_angle_beta                 90
_cell_angle_gamma                120
_cell_volume                     2607.31
loop_
_atom_site_label
_atom_site_type_symbol
_atom_site_fract_x
_atom_site_fract_y
_atom_site_fract_z
Eu1 Eu 0.3333 0.6667 0.211427(9)
O1 O 0.53524(16) 0.41819(15) 0.31481(11)
O2 O 0.50736(16) 0.26681(17) 0.38516(12)
O3 O 0.24615(19) 0.51675(17) 0.30528(11)
O4 O 0.1228(2) 0.48310(18) 0.40477(13)
H1 H 0.1010 0.5175 0.3736
N1 N 0.34913(16) 0.41821(16) 0.37651(11)
H2 H 0.3777 0.4555 0.3311
C1 C 0.4835(2) 0.34400(19) 0.36798(13)
C2 C 0.3878(2) 0.3445(2) 0.41573(14)
H3 H 0.3224 0.2653 0.4200
H4 H 0.4150 0.3729 0.4710
C3 C 0.2564(2) 0.4217(2) 0.42259(13)
H5 H 0.2877 0.4637 0.4738
H6 H 0.1959 0.3426 0.4359
C4 C 0.2047(2) 0.4804(2) 0.37371(14)
Eu1C Eu 0.6667 0.3333 0.288573(9)
Eu1C_2 Eu 0.6667 1.3333 0.288573(9)
Eu1C_3 Eu -0.3333 0.3333 0.288573(9)
O1D O 0.46476(16) 0.88295(22) 0.18519(11)
O1E O 0.11705(22) 0.58181(15) 0.18519(11)
O1C O 0.41819(15) 0.53524(16) 0.18519(11)
O1A O 0.58181(15) 1.11705(22) 0.31481(11)
O1B O -0.11705(22) 0.46476(16) 0.31481(11)
O2D O 0.49264(16) 0.75945(23) 0.11484(12)
O2E O 0.24055(23) 0.73319(17) 0.11484(12)
O2C O 0.26681(17) 0.50736(16) 0.11484(12)
O2A O 0.73319(17) 1.24055(23) 0.38516(12)
O2B O -0.24055(23) 0.49264(16) 0.38516(12)
O3A O 0.48325(17) 0.72940(25) 0.30528(11)
O3B O 0.27060(25) 0.75385(19) 0.30528(11)
O4A O 0.51690(18) 0.63970(27) 0.40477(13)
O4B O 0.36030(27) 0.8772(2) 0.40477(13)
H1A H 0.4825 0.5835 0.3736
H1B H 0.4165 0.8990 0.3736
N1A N 0.58179(16) 0.93092(23) 0.37651(11)
N1B N 0.06908(23) 0.65087(16) 0.37651(11)
H2A H 0.5445 0.9222 0.3311
H2B H 0.0778 0.6223 0.3311
C1A C 0.65600(19) 1.13950(28) 0.36798(13)
C1B C -0.13950(28) 0.5165(2) 0.36798(13)
C2A C 0.6555(2) 1.0433(3) 0.41573(14)
C2B C -0.0433(3) 0.6122(2) 0.41573(14)
H3A H 0.7347 1.0571 0.4200
H3B H -0.0571 0.6776 0.4200
H4A H 0.6271 1.0421 0.4710
H4B H -0.0421 0.5850 0.4710
C3A C 0.5783(2) 0.8347(3) 0.42259(13)
C3B C 0.1653(3) 0.7436(2) 0.42259(13)
H5A H 0.5363 0.8240 0.4738
H5B H 0.1760 0.7123 0.4738
H6A H 0.6574 0.8533 0.4359
H6B H 0.1467 0.8041 0.4359
C4A C 0.5196(2) 0.7243(3) 0.37371(14)
C4B C 0.2757(3) 0.7953(2) 0.37371(14)
loop_
_geom_bond_atom_site_label_1
_geom_bond_atom_site_label_2
_geom_bond_site_symmetry_1
_geom_bond_site_symmetry_2
Eu1 O3 1_555 1_555
O1 C1 1_555 1_555
O2 C1 1_555 1_555
O3 C4 1_555 1_555
O4 H1 1_555 1_555
N1 H2 1_555 1_555
C1 C2 1_555 1_555
C2 N1 1_555 1_555
H3 C2 1_555 1_555
H4 C2 1_555 1_555
C3 N1 1_555 1_555
H5 C3 1_555 1_555
H6 C3 1_555 1_555
C4 O4 1_555 1_555
Eu1C O1 1_555 1_555
Eu1C_2 O1A 1_555 1_555
Eu1C_3 O1B 1_555 1_555
O1D Eu1 1_555 1_555
O1E Eu1 1_555 1_555
O1C Eu1 1_555 1_555
O1A C1A 1_555 1_555
O1B C1B 1_555 1_555
O2D Eu1 1_555 1_555
O2E Eu1 1_555 1_555
O2C Eu1 1_555 1_555
O2A Eu1C_2 1_555 1_555
O2B Eu1C_3 1_555 1_555
O3A Eu1 1_555 1_555
O3B Eu1 1_555 1_555
O4A H1A 1_555 1_555
O4B H1B 1_555 1_555
N1A H2A 1_555 1_555
N1B H2B 1_555 1_555
C1A O2A 1_555 1_555
C1B O2B 1_555 1_555
C2A N1A 1_555 1_555
C2B N1B 1_555 1_555
H3A C2A 1_555 1_555
H3B C2B 1_555 1_555
H4A C2A 1_555 1_555
H4B C2B 1_555 1_555
C3A N1A 1_555 1_555
C3B N1B 1_555 1_555
H5A C3A 1_555 1_555
H5B C3B 1_555 1_555
H6A C3A 1_555 1_555
H6B C3B 1_555 1_555
C4A O3A 1_555 1_555
C4B O3B 1_555 1_555
O2 Eu1C 1_555 1_555
C3 C4 1_555 1_555
O4A C4A 1_555 1_555
O4B C4B 1_555 1_555
C1A C2A 1_555 1_555
C1B C2B 1_555 1_555
C3A C4A 1_555 1_555
C3B C4B 1_555 1_555

#END
