
#######################################################################
#
#                 Cambridge Crystallographic Data Centre
#                                CCDC 
#
#######################################################################
#
# If this CIF has been generated from an entry in the Cambridge 
# Structural Database, then it will include bibliographic, chemical, 
# crystal, experimental, refinement or atomic coordinate data resulting 
# from the CCDC's data processing and validation procedures.
#
#######################################################################

data_WOFSUG
_symmetry_cell_setting           trigonal
_symmetry_space_group_name_H-M   'P -3 c 1'
_symmetry_Int_Tables_number      165
_space_group_name_Hall           '-P 3 2"c'
loop_
_symmetry_equiv_pos_site_id
_symmetry_equiv_pos_as_xyz
1 x,y,z
2 -y,x-y,z
3 -x+y,-x,z
4 y,x,1/2-z
5 -x,-x+y,1/2-z
6 x-y,-y,1/2-z
7 -x,-y,-z
8 y,-x+y,-z
9 x-y,x,-z
10 -y,-x,1/2+z
11 x,x-y,1/2+z
12 -x+y,y,1/2+z
_cell_length_a                   13.5310(10)
_cell_length_b                   13.5310(10)
_cell_length_c                   16.5610(10)
_cell_angle_alpha                90
_cell_angle_beta                 90
_cell_angle_gamma                120
_cell_volume                     2625.89
loop_
_atom_site_label
_atom_site_type_symbol
_atom_site_fract_x
_atom_site_fract_y
_atom_site_fract_z
Gd1 Gd 0.3333 0.6667 0.21116(3)
O1 O 0.2476(4) 0.5178(4) 0.3050(3)
O2 O 0.1253(4) 0.4828(4) 0.4047(3)
H1 H 0.1031 0.5152 0.3740
O3 O 0.5369(3) 0.4200(3) 0.3157(3)
O4 O 0.5106(4) 0.2717(4) 0.3852(3)
N1 N 0.3500(4) 0.4183(4) 0.3755(3)
H2 H 0.3763 0.4527 0.3303
C1 C 0.2062(5) 0.4801(5) 0.3742(4)
C2 C 0.2583(5) 0.4233(5) 0.4222(4)
H3 H 0.2900 0.4654 0.4719
H4 H 0.1994 0.3465 0.4364
C3 C 0.3914(5) 0.3464(5) 0.4163(4)
H5 H 0.3286 0.2686 0.4212
H6 H 0.4179 0.3755 0.4702
C4 C 0.4858(4) 0.3468(4) 0.3698(3)
Gd1C Gd 0.6667 0.3333 0.28884(3)
Gd1C_2 Gd 0.6667 1.3333 0.28884(3)
Gd1C_3 Gd -0.3333 0.3333 0.28884(3)
O1A O 0.4822(4) 0.7298(6) 0.3050(3)
O1B O 0.2702(6) 0.7524(4) 0.3050(3)
O2A O 0.5172(4) 0.6425(6) 0.4047(3)
O2B O 0.3575(6) 0.8747(4) 0.4047(3)
H1A H 0.4848 0.5879 0.3740
H1B H 0.4121 0.8969 0.3740
O3A O 0.5800(3) 1.1169(4) 0.3157(3)
O3B O -0.1169(4) 0.4631(3) 0.3157(3)
O3C O 0.4200(3) 0.5369(3) 0.1843(3)
O3D O 0.4631(3) 0.8831(4) 0.1843(3)
O3E O 0.1169(4) 0.5800(3) 0.1843(3)
O4A O 0.7283(4) 1.2389(6) 0.3852(3)
O4B O -0.2389(6) 0.4894(4) 0.3852(3)
O4C O 0.2717(4) 0.5106(4) 0.1148(3)
O4D O 0.4894(4) 0.7611(6) 0.1148(3)
O4E O 0.2389(6) 0.7283(4) 0.1148(3)
N1A N 0.5817(4) 0.9317(6) 0.3755(3)
N1B N 0.0683(6) 0.6500(4) 0.3755(3)
H2A H 0.5473 0.9236 0.3303
H2B H 0.0764 0.6237 0.3303
C1A C 0.5199(5) 0.7261(7) 0.3742(4)
C1B C 0.2739(7) 0.7938(5) 0.3742(4)
C2A C 0.5767(5) 0.8350(7) 0.4222(4)
C2B C 0.1650(7) 0.7417(5) 0.4222(4)
H3A H 0.5346 0.8246 0.4719
H3B H 0.1754 0.7100 0.4719
H4A H 0.6535 0.8529 0.4364
H4B H 0.1471 0.8006 0.4364
C3A C 0.6536(5) 1.0450(7) 0.4163(4)
C3B C -0.0450(7) 0.6086(5) 0.4163(4)
H5A H 0.7314 1.0600 0.4212
H5B H -0.0600 0.6714 0.4212
H6A H 0.6245 1.0424 0.4702
H6B H -0.0424 0.5821 0.4702
C4A C 0.6532(4) 1.1390(6) 0.3698(3)
C4B C -0.1390(6) 0.5142(4) 0.3698(3)
loop_
_geom_bond_atom_site_label_1
_geom_bond_atom_site_label_2
_geom_bond_site_symmetry_1
_geom_bond_site_symmetry_2
Gd1 O1 1_555 1_555
O1 C1 1_555 1_555
O2 H1 1_555 1_555
O3 C4 1_555 1_555
O4 C4 1_555 1_555
N1 H2 1_555 1_555
C1 O2 1_555 1_555
C2 N1 1_555 1_555
H3 C2 1_555 1_555
H4 C2 1_555 1_555
C3 N1 1_555 1_555
H5 C3 1_555 1_555
H6 C3 1_555 1_555
C4 C3 1_555 1_555
Gd1C O3 1_555 1_555
Gd1C_2 O3A 1_555 1_555
Gd1C_3 O3B 1_555 1_555
O1A Gd1 1_555 1_555
O1B Gd1 1_555 1_555
O2A H1A 1_555 1_555
O2B H1B 1_555 1_555
O3A C4A 1_555 1_555
O3B C4B 1_555 1_555
O3C Gd1 1_555 1_555
O3D Gd1 1_555 1_555
O3E Gd1 1_555 1_555
O4A Gd1C_2 1_555 1_555
O4B Gd1C_3 1_555 1_555
O4C Gd1 1_555 1_555
O4D Gd1 1_555 1_555
O4E Gd1 1_555 1_555
N1A H2A 1_555 1_555
N1B H2B 1_555 1_555
C1A O1A 1_555 1_555
C1B O1B 1_555 1_555
C2A N1A 1_555 1_555
C2B N1B 1_555 1_555
H3A C2A 1_555 1_555
H3B C2B 1_555 1_555
H4A C2A 1_555 1_555
H4B C2B 1_555 1_555
C3A N1A 1_555 1_555
C3B N1B 1_555 1_555
H5A C3A 1_555 1_555
H5B C3B 1_555 1_555
H6A C3A 1_555 1_555
H6B C3B 1_555 1_555
C4A O4A 1_555 1_555
C4B O4B 1_555 1_555
O4 Gd1C 1_555 1_555
C1 C2 1_555 1_555
O2A C1A 1_555 1_555
O2B C1B 1_555 1_555
C1A C2A 1_555 1_555
C1B C2B 1_555 1_555
C3A C4A 1_555 1_555
C3B C4B 1_555 1_555

#END
