
#######################################################################
#
#                 Cambridge Crystallographic Data Centre
#                                CCDC 
#
#######################################################################
#
# If this CIF has been generated from an entry in the Cambridge 
# Structural Database, then it will include bibliographic, chemical, 
# crystal, experimental, refinement or atomic coordinate data resulting 
# from the CCDC's data processing and validation procedures.
#
#######################################################################

data_WOFTAN
_symmetry_cell_setting           trigonal
_symmetry_space_group_name_H-M   'P -3 c 1'
_symmetry_Int_Tables_number      165
_space_group_name_Hall           '-P 3 2"c'
loop_
_symmetry_equiv_pos_site_id
_symmetry_equiv_pos_as_xyz
1 x,y,z
2 -y,x-y,z
3 -x+y,-x,z
4 y,x,1/2-z
5 -x,-x+y,1/2-z
6 x-y,-y,1/2-z
7 -x,-y,-z
8 y,-x+y,-z
9 x-y,x,-z
10 -y,-x,1/2+z
11 x,x-y,1/2+z
12 -x+y,y,1/2+z
_cell_length_a                   13.5350(10)
_cell_length_b                   13.5350(10)
_cell_length_c                   16.5167(10)
_cell_angle_alpha                90
_cell_angle_beta                 90
_cell_angle_gamma                120
_cell_volume                     2620.42
loop_
_atom_site_label
_atom_site_type_symbol
_atom_site_fract_x
_atom_site_fract_y
_atom_site_fract_z
Tb1 Tb 0.3333 0.6667 0.211314(18)
O1 O 0.5383(3) 0.4210(3) 0.3151(2)
O2 O 0.5111(3) 0.2719(3) 0.3850(2)
O3 O 0.2490(3) 0.5187(3) 0.3041(2)
O4 O 0.1250(3) 0.4821(3) 0.4032(2)
H1 H 0.1031 0.5152 0.3729
N1 N 0.3514(3) 0.4197(3) 0.3752(2)
H2 H 0.3782 0.4547 0.3300
C1 C 0.4874(3) 0.3475(3) 0.3687(3)
C2 C 0.3921(4) 0.3480(3) 0.4161(3)
H3 H 0.3290 0.2704 0.4212
H4 H 0.4189 0.3774 0.4700
C3 C 0.2591(4) 0.4234(4) 0.4218(3)
H5 H 0.2900 0.4649 0.4719
H6 H 0.2003 0.3463 0.4354
C4 C 0.2074(3) 0.4810(4) 0.3726(3)
Tb1C Tb 0.6667 0.3333 0.288686(18)
Tb1C_2 Tb 0.6667 1.3333 0.288686(18)
Tb1C_3 Tb -0.3333 0.3333 0.288686(18)
O1D O 0.4617(3) 0.8827(4) 0.1849(2)
O1E O 0.1173(4) 0.5790(3) 0.1849(2)
O1C O 0.4210(3) 0.5383(3) 0.1849(2)
O1A O 0.5790(3) 1.1173(4) 0.3151(2)
O1B O -0.1173(4) 0.4617(3) 0.3151(2)
O2D O 0.4889(3) 0.7608(4) 0.1150(2)
O2E O 0.2392(4) 0.7281(3) 0.1150(2)
O2C O 0.2719(3) 0.5111(3) 0.1150(2)
O2A O 0.7281(3) 1.2392(4) 0.3850(2)
O2B O -0.2392(4) 0.4889(3) 0.3850(2)
O3A O 0.4813(3) 0.7303(4) 0.3041(2)
O3B O 0.2697(4) 0.7510(3) 0.3041(2)
O4A O 0.5179(3) 0.6429(4) 0.4032(2)
O4B O 0.3571(4) 0.8750(3) 0.4032(2)
H1A H 0.4848 0.5879 0.3729
H1B H 0.4121 0.8969 0.3729
N1A N 0.5803(3) 0.9317(4) 0.3752(2)
N1B N 0.0683(4) 0.6486(3) 0.3752(2)
H2A H 0.5453 0.9235 0.3300
H2B H 0.0765 0.6218 0.3300
C1A C 0.6525(3) 1.1399(4) 0.3687(3)
C1B C -0.1399(4) 0.5126(3) 0.3687(3)
C2A C 0.6520(3) 1.0441(5) 0.4161(3)
C2B C -0.0441(5) 0.6079(4) 0.4161(3)
H3A H 0.7296 1.0586 0.4212
H3B H -0.0586 0.6710 0.4212
H4A H 0.6226 1.0415 0.4700
H4B H -0.0415 0.5811 0.4700
C3A C 0.5766(4) 0.8357(6) 0.4218(3)
C3B C 0.1643(6) 0.7409(4) 0.4218(3)
H5A H 0.5351 0.8251 0.4719
H5B H 0.1749 0.7100 0.4719
H6A H 0.6537 0.8540 0.4354
H6B H 0.1460 0.7997 0.4354
C4A C 0.5190(4) 0.7264(5) 0.3726(3)
C4B C 0.2736(5) 0.7926(3) 0.3726(3)
loop_
_geom_bond_atom_site_label_1
_geom_bond_atom_site_label_2
_geom_bond_site_symmetry_1
_geom_bond_site_symmetry_2
Tb1 O3 1_555 1_555
O1 C1 1_555 1_555
O2 C1 1_555 1_555
O3 C4 1_555 1_555
O4 H1 1_555 1_555
N1 H2 1_555 1_555
C1 C2 1_555 1_555
C2 N1 1_555 1_555
H3 C2 1_555 1_555
H4 C2 1_555 1_555
C3 N1 1_555 1_555
H5 C3 1_555 1_555
H6 C3 1_555 1_555
C4 O4 1_555 1_555
Tb1C O1 1_555 1_555
Tb1C_2 O1A 1_555 1_555
Tb1C_3 O1B 1_555 1_555
O1D Tb1 1_555 1_555
O1E Tb1 1_555 1_555
O1C Tb1 1_555 1_555
O1A C1A 1_555 1_555
O1B C1B 1_555 1_555
O2D Tb1 1_555 1_555
O2E Tb1 1_555 1_555
O2C Tb1 1_555 1_555
O2A Tb1C_2 1_555 1_555
O2B Tb1C_3 1_555 1_555
O3A Tb1 1_555 1_555
O3B Tb1 1_555 1_555
O4A H1A 1_555 1_555
O4B H1B 1_555 1_555
N1A H2A 1_555 1_555
N1B H2B 1_555 1_555
C1A O2A 1_555 1_555
C1B O2B 1_555 1_555
C2A N1A 1_555 1_555
C2B N1B 1_555 1_555
H3A C2A 1_555 1_555
H3B C2B 1_555 1_555
H4A C2A 1_555 1_555
H4B C2B 1_555 1_555
C3A N1A 1_555 1_555
C3B N1B 1_555 1_555
H5A C3A 1_555 1_555
H5B C3B 1_555 1_555
H6A C3A 1_555 1_555
H6B C3B 1_555 1_555
C4A O3A 1_555 1_555
C4B O3B 1_555 1_555
O2 Tb1C 1_555 1_555
C3 C4 1_555 1_555
O4A C4A 1_555 1_555
O4B C4B 1_555 1_555
C1A C2A 1_555 1_555
C1B C2B 1_555 1_555
C3A C4A 1_555 1_555
C3B C4B 1_555 1_555

#END
