
#######################################################################
#
#                 Cambridge Crystallographic Data Centre
#                                CCDC 
#
#######################################################################
#
# If this CIF has been generated from an entry in the Cambridge 
# Structural Database, then it will include bibliographic, chemical, 
# crystal, experimental, refinement or atomic coordinate data resulting 
# from the CCDC's data processing and validation procedures.
#
#######################################################################

data_WOFTOB
_symmetry_cell_setting           monoclinic
_symmetry_space_group_name_H-M   'P 21/c'
_symmetry_Int_Tables_number      14
_space_group_name_Hall           '-P 2ybc'
loop_
_symmetry_equiv_pos_site_id
_symmetry_equiv_pos_as_xyz
1 x,y,z
2 -x,1/2+y,1/2-z
3 -x,-y,-z
4 x,1/2-y,1/2+z
_cell_length_a                   12.5378(4)
_cell_length_b                   8.8733(3)
_cell_length_c                   26.6828(9)
_cell_angle_alpha                90
_cell_angle_beta                 92.562(2)
_cell_angle_gamma                90
_cell_volume                     2965.54
loop_
_atom_site_label
_atom_site_type_symbol
_atom_site_fract_x
_atom_site_fract_y
_atom_site_fract_z
Tb1 Tb 0.777623(9) 0.393286(13) 0.139417(4)
N1 N 0.8287(2) 0.2724(3) 0.05558(9)
N2 N 0.9646(2) 0.4486(3) 0.11212(10)
C1 C 1.0019(3) 0.3834(4) 0.07049(13)
C2 C 0.7956(5) 0.1120(5) -0.01554(17)
H1 H 0.7476 0.0525 -0.0343
C3 C 1.1078(3) 0.4118(5) 0.05527(17)
C4 C 0.9317(3) 0.2869(4) 0.04138(12)
C5 C 1.0281(3) 0.5442(4) 0.13744(14)
H2 H 1.0027 0.5887 0.1661
C6 C 1.1306(3) 0.5819(5) 0.12360(18)
H3 H 1.1713 0.6520 0.1420
C7 C 0.9693(4) 0.2170(4) -0.00146(14)
C8 C 1.1409(5) 0.3349(7) 0.0111(2)
H4 H 1.2098 0.3508 0.0006
C9 C 0.7623(4) 0.1885(4) 0.02776(14)
H5 H 0.6918 0.1792 0.0368
C10 C 1.0771(5) 0.2425(6) -0.01520(18)
H6 H 1.1027 0.1933 -0.0430
C11 C 1.1697(3) 0.5140(6) 0.0828(2)
H7 H 1.2384 0.5362 0.0732
C12 C 0.8979(6) 0.1265(5) -0.02926(16)
H8 H 0.9204 0.0758 -0.0574
N3 N 0.61933(18) 0.2098(3) 0.14634(10)
N4 N 0.6131(2) 0.4971(3) 0.18176(9)
C13 C 0.5207(2) 0.4182(4) 0.17804(11)
C14 C 0.5240(2) 0.2665(4) 0.15941(12)
C15 C 0.6100(3) 0.6355(4) 0.19981(13)
H9 H 0.6735 0.6896 0.2032
C16 C 0.4289(3) 0.1813(5) 0.15524(15)
C17 C 0.4344(3) 0.0341(5) 0.13653(19)
H10 H 0.3732 -0.0248 0.1330
C18 C 0.5154(4) 0.7046(5) 0.21406(14)
H11 H 0.5165 0.8031 0.2259
C19 C 0.4223(3) 0.4788(5) 0.19231(13)
C20 C 0.3285(3) 0.3866(6) 0.18838(18)
H12 H 0.2641 0.4255 0.1986
C21 C 0.3311(3) 0.2469(6) 0.17044(19)
H13 H 0.2684 0.1908 0.1677
C22 C 0.6211(3) 0.0697(4) 0.12911(15)
H14 H 0.6862 0.0296 0.1202
C23 C 0.4224(4) 0.6266(5) 0.21042(15)
H15 H 0.3593 0.6711 0.2199
O1 O 0.86158(16) 0.1749(2) 0.16324(8)
O2 O 0.8721(2) -0.0491(3) 0.12538(9)
C24 C 0.9625(3) -0.0189(4) 0.20477(12)
C25 C 0.8927(2) 0.0417(4) 0.15883(12)
C26 C 1.0800(2) 0.0238(4) 0.20216(12)
F1 F 0.9606(2) -0.1720(2) 0.20569(10)
F2 F 0.92663(18) 0.0295(3) 0.24810(8)
F3 F 1.08782(17) 0.1757(2) 0.20706(9)
F4 F 1.10711(17) -0.0031(3) 0.15304(8)
O3 O 0.64677(17) 0.4495(2) 0.07586(8)
O4 O 0.6199(2) 0.6933(3) 0.05993(12)
C27 C 0.5964(2) 0.5587(4) 0.05772(11)
C28 C 0.4919(2) 0.5172(4) 0.02754(11)
F5 F 0.44631(19) 0.3952(3) 0.04792(9)
F6 F 0.42099(19) 0.6305(3) 0.03004(9)
C29 C 0.5298(3) -0.0211(4) 0.12362(18)
H16 H 0.5349 -0.1187 0.1112
C30 C 1.1582(2) -0.0607(4) 0.24054(12)
O5 O 1.2220(2) -0.1431(4) 0.22252(12)
O6 O 1.14869(16) -0.0231(3) 0.28538(8)
O7 O 0.78798(19) 0.6592(3) 0.12376(9)
H17 H 0.828(3) 0.728(5) 0.1290(14)
H18 H 0.739(4) 0.685(5) 0.1051(17)
Tb1A Tb 1.222377(9) 0.893286(13) 0.360583(4)
Tb1A_2 Tb 1.222377(9) -0.106714(13) 0.360583(4)
Tb1B Tb 0.222377(9) 0.606714(13) -0.139417(4)
N1A N 1.1713(2) 0.7724(3) 0.44442(9)
N2A N 1.0354(2) 0.9486(3) 0.38788(10)
C1A C 0.9981(3) 0.8834(4) 0.42951(13)
C2A C 1.2044(5) 0.6120(5) 0.51554(17)
H1A H 1.2524 0.5525 0.5343
C3A C 0.8922(3) 0.9118(5) 0.44473(17)
C4A C 1.0683(3) 0.7869(4) 0.45862(12)
C5A C 0.9719(3) 1.0442(4) 0.36256(14)
H2A H 0.9973 1.0887 0.3339
C6A C 0.8694(3) 1.0819(5) 0.37640(18)
H3A H 0.8287 1.1520 0.3580
C7A C 1.0307(4) 0.7170(4) 0.50146(14)
C8A C 0.8591(5) 0.8349(7) 0.4889(2)
H4A H 0.7902 0.8508 0.4994
C9A C 1.2377(4) 0.6885(4) 0.47224(14)
H5A H 1.3082 0.6792 0.4632
C10A C 0.9229(5) 0.7425(6) 0.51520(18)
H6A H 0.8973 0.6933 0.5430
C11A C 0.8303(3) 1.0140(6) 0.4172(2)
H7A H 0.7616 1.0362 0.4268
C12A C 1.1021(6) 0.6265(5) 0.52926(16)
H8A H 1.0796 0.5758 0.5574
N3A N 1.38067(18) 0.7098(3) 0.35366(10)
N4A N 1.3869(2) 0.9971(3) 0.31824(9)
C13A C 1.4793(2) 0.9182(4) 0.32196(11)
C14A C 1.4760(2) 0.7665(4) 0.34059(12)
C15A C 1.3900(3) 1.1355(4) 0.30019(13)
H9A H 1.3265 1.1896 0.2968
C16A C 1.5711(3) 0.6813(5) 0.34476(15)
C17A C 1.5656(3) 0.5341(5) 0.36347(19)
H10A H 1.6268 0.4752 0.3670
C18A C 1.4846(4) 1.2046(5) 0.28594(14)
H11A H 1.4835 1.3031 0.2741
C19A C 1.5777(3) 0.9788(5) 0.30769(13)
C20A C 1.6715(3) 0.8866(6) 0.31162(18)
H12A H 1.7359 0.9255 0.3014
C21A C 1.6689(3) 0.7469(6) 0.32956(19)
H13A H 1.7316 0.6908 0.3323
C22A C 1.3789(3) 0.5697(4) 0.37089(15)
H14A H 1.3138 0.5296 0.3798
C23A C 1.5776(4) 1.1266(5) 0.28958(15)
H15A H 1.6407 1.1711 0.2801
O1A O 1.13842(16) 0.6749(2) 0.33676(8)
O2A O 1.1279(2) 0.4509(3) 0.37462(9)
C24A C 1.0375(3) 0.4811(4) 0.29523(12)
C25A C 1.1073(2) 0.5417(4) 0.34117(12)
C26A C 0.9200(2) 0.5238(4) 0.29784(12)
F1A F 1.0394(2) 0.3280(2) 0.29431(10)
F2A F 1.07337(18) 0.5295(3) 0.25190(8)
F3A F 0.91218(17) 0.6757(2) 0.29294(9)
F4A F 0.89289(17) 0.4969(3) 0.34696(8)
O3B O 0.35323(17) 0.5505(2) -0.07586(8)
O3A O 1.35323(17) 0.9495(2) 0.42414(8)
O4B O 0.3801(2) 0.3067(3) -0.05993(12)
C27B C 0.4036(2) 0.4413(4) -0.05772(11)
C28B C 0.5081(2) 0.4828(4) -0.02754(11)
F5B F 0.55369(19) 0.6048(3) -0.04792(9)
F6B F 0.57901(19) 0.3695(3) -0.03004(9)
C29A C 1.4702(3) 0.4789(4) 0.37638(18)
H16A H 1.4651 0.3813 0.3888
C30A C 0.8418(2) 0.4393(4) 0.25946(12)
O5A O 0.7780(2) 0.3569(4) 0.27748(12)
O6A O 0.85131(16) 0.4769(3) 0.21462(8)
O6_2 O 1.14869(16) 0.9769(3) 0.28538(8)
O7A O 1.21202(19) 1.1592(3) 0.37624(9)
H17A H 1.172(3) 1.228(5) 0.3710(14)
H18A H 1.261(4) 1.185(5) 0.3949(17)
loop_
_geom_bond_atom_site_label_1
_geom_bond_atom_site_label_2
_geom_bond_site_symmetry_1
_geom_bond_site_symmetry_2
Tb1 N1 1_555 1_555
N1 C4 1_555 1_555
N2 Tb1 1_555 1_555
C1 N2 1_555 1_555
C2 H1 1_555 1_555
C3 C1 1_555 1_555
C4 C1 1_555 1_555
C5 N2 1_555 1_555
H2 C5 1_555 1_555
C6 C5 1_555 1_555
H3 C6 1_555 1_555
C7 C4 1_555 1_555
C8 C3 1_555 1_555
H4 C8 1_555 1_555
C9 N1 1_555 1_555
H5 C9 1_555 1_555
C10 C7 1_555 1_555
H6 C10 1_555 1_555
C11 C3 1_555 1_555
H7 C11 1_555 1_555
C12 C2 1_555 1_555
H8 C12 1_555 1_555
N3 Tb1 1_555 1_555
N4 Tb1 1_555 1_555
C13 N4 1_555 1_555
C14 N3 1_555 1_555
C15 N4 1_555 1_555
H9 C15 1_555 1_555
C16 C14 1_555 1_555
C17 C16 1_555 1_555
H10 C17 1_555 1_555
C18 C15 1_555 1_555
H11 C18 1_555 1_555
C19 C13 1_555 1_555
C20 C19 1_555 1_555
H12 C20 1_555 1_555
C21 C16 1_555 1_555
H13 C21 1_555 1_555
C22 N3 1_555 1_555
H14 C22 1_555 1_555
C23 C18 1_555 1_555
H15 C23 1_555 1_555
O1 Tb1 1_555 1_555
O2 C25 1_555 1_555
C24 C25 1_555 1_555
C25 O1 1_555 1_555
C26 C24 1_555 1_555
F1 C24 1_555 1_555
F2 C24 1_555 1_555
F3 C26 1_555 1_555
F4 C26 1_555 1_555
O3 Tb1 1_555 1_555
O4 C27 1_555 1_555
C27 O3 1_555 1_555
C28 C27 1_555 1_555
F5 C28 1_555 1_555
F6 C28 1_555 1_555
C29 C17 1_555 1_555
H16 C29 1_555 1_555
C30 C26 1_555 1_555
O5 C30 1_555 1_555
O6 C30 1_555 1_555
O7 Tb1 1_555 1_555
H17 O7 1_555 1_555
H18 O7 1_555 1_555
Tb1A N1A 1_555 1_555
Tb1A_2 O6 1_555 1_555
Tb1B O3B 1_555 1_555
N1A C4A 1_555 1_555
N2A Tb1A 1_555 1_555
C1A N2A 1_555 1_555
C2A H1A 1_555 1_555
C3A C1A 1_555 1_555
C4A C1A 1_555 1_555
C5A N2A 1_555 1_555
H2A C5A 1_555 1_555
C6A C5A 1_555 1_555
H3A C6A 1_555 1_555
C7A C4A 1_555 1_555
C8A C3A 1_555 1_555
H4A C8A 1_555 1_555
C9A N1A 1_555 1_555
H5A C9A 1_555 1_555
C10A C7A 1_555 1_555
H6A C10A 1_555 1_555
C11A C3A 1_555 1_555
H7A C11A 1_555 1_555
C12A C2A 1_555 1_555
H8A C12A 1_555 1_555
N3A Tb1A 1_555 1_555
N4A Tb1A 1_555 1_555
C13A N4A 1_555 1_555
C14A N3A 1_555 1_555
C15A N4A 1_555 1_555
H9A C15A 1_555 1_555
C16A C14A 1_555 1_555
C17A C16A 1_555 1_555
H10A C17A 1_555 1_555
C18A C15A 1_555 1_555
H11A C18A 1_555 1_555
C19A C13A 1_555 1_555
C20A C19A 1_555 1_555
H12A C20A 1_555 1_555
C21A C16A 1_555 1_555
H13A C21A 1_555 1_555
C22A N3A 1_555 1_555
H14A C22A 1_555 1_555
C23A C18A 1_555 1_555
H15A C23A 1_555 1_555
O1A Tb1A 1_555 1_555
O2A C25A 1_555 1_555
C24A C25A 1_555 1_555
C25A O1A 1_555 1_555
C26A C24A 1_555 1_555
F1A C24A 1_555 1_555
F2A C24A 1_555 1_555
F3A C26A 1_555 1_555
F4A C26A 1_555 1_555
O3B C27B 1_555 1_555
O3A Tb1A 1_555 1_555
O4B C27B 1_555 1_555
C27B C28B 1_555 1_555
C28B C28 1_555 1_555
F5B C28B 1_555 1_555
F6B C28B 1_555 1_555
C29A C17A 1_555 1_555
H16A C29A 1_555 1_555
C30A C26A 1_555 1_555
O5A C30A 1_555 1_555
O6A Tb1 1_555 1_555
O6_2 Tb1A 1_555 1_555
O7A Tb1A 1_555 1_555
H17A O7A 1_555 1_555
H18A O7A 1_555 1_555
C2 C9 1_555 1_555
C6 C11 1_555 1_555
C7 C12 1_555 1_555
C8 C10 1_555 1_555
C13 C14 1_555 1_555
C19 C23 1_555 1_555
C20 C21 1_555 1_555
C22 C29 1_555 1_555
C2A C9A 1_555 1_555
C6A C11A 1_555 1_555
C7A C12A 1_555 1_555
C8A C10A 1_555 1_555
C13A C14A 1_555 1_555
C19A C23A 1_555 1_555
C20A C21A 1_555 1_555
C22A C29A 1_555 1_555
C30A O6A 1_555 1_555

#END
