
#######################################################################
#
#                 Cambridge Crystallographic Data Centre
#                                CCDC 
#
#######################################################################
#
# If this CIF has been generated from an entry in the Cambridge 
# Structural Database, then it will include bibliographic, chemical, 
# crystal, experimental, refinement or atomic coordinate data resulting 
# from the CCDC's data processing and validation procedures.
#
#######################################################################

data_WOFVAP
_symmetry_cell_setting           monoclinic
_symmetry_space_group_name_H-M   'C 2/c'
_symmetry_Int_Tables_number      15
_space_group_name_Hall           '-C 2yn'
loop_
_symmetry_equiv_pos_site_id
_symmetry_equiv_pos_as_xyz
1 x,y,z
2 1/2+x,1/2+y,z
3 -x,y,1/2-z
4 1/2-x,1/2+y,1/2-z
5 -x,-y,-z
6 1/2-x,1/2-y,-z
7 x,-y,1/2+z
8 1/2+x,1/2-y,1/2+z
_cell_length_a                   17.096(8)
_cell_length_b                   11.289(5)
_cell_length_c                   12.794(6)
_cell_angle_alpha                90
_cell_angle_beta                 104.2580(10)
_cell_angle_gamma                90
_cell_volume                     2393.14
loop_
_atom_site_label
_atom_site_type_symbol
_atom_site_fract_x
_atom_site_fract_y
_atom_site_fract_z
Ag1 Ag 0.357521(9) 0.706122(16) 0.055649(15)
N1 N 0.30294(7) 0.84527(13) 0.13415(12)
N2 N 0.21998(7) 0.86619(12) 0.10472(11)
N3 N 0.28395(10) 1.07777(16) 0.31198(16)
H1 H 0.3306 1.0936 0.3534
H2 H 0.2421 1.1161 0.3191
N4 N 0.27609(8) 0.98826(13) 0.23190(12)
N5 N -0.02646(8) 1.10707(13) 0.11599(10)
C1 C 0.20590(8) 0.95385(14) 0.16327(12)
C2 C 0.33396(10) 0.92022(16) 0.20943(16)
H3 H 0.3886 0.9260 0.2431
C3 C 0.03914(10) 1.17455(15) 0.13189(14)
H4 H 0.0328 1.2564 0.1303
C4 C 0.11626(10) 1.12887(15) 0.15063(14)
H5 H 0.1607 1.1789 0.1610
C5 C 0.12611(8) 1.00706(14) 0.15375(12)
C6 C 0.05830(9) 0.93671(15) 0.13935(12)
H6 H 0.0628 0.8546 0.1419
C7 C -0.01635(9) 0.99034(16) 0.12116(11)
H7 H -0.0618 0.9425 0.1121
Ag1E Ag 0.142479(9) 0.793878(16) -0.055649(15)
Ag1A Ag -0.142479(9) 1.206122(16) 0.055649(15)
Ag1D Ag 0.642479(9) 0.293878(16) -0.055649(15)
N1E N 0.19706(7) 0.65473(13) -0.13415(12)
N2E N 0.28002(7) 0.63381(12) -0.10472(11)
N3E N 0.21605(10) 0.42223(16) -0.31198(16)
H1E H 0.1694 0.4064 -0.3534
H2E H 0.2579 0.3839 -0.3191
N4E N 0.22391(8) 0.51174(13) -0.23190(12)
N5E N 0.52646(8) 0.39293(13) -0.11599(10)
N5A N 0.47354(8) 0.60707(13) 0.11599(10)
N5D N 0.02646(8) 0.89293(13) -0.11599(10)
C1E C 0.29410(8) 0.54615(14) -0.16327(12)
C2E C 0.16604(10) 0.57978(16) -0.20943(16)
H3E H 0.1114 0.5740 -0.2431
C3E C 0.46086(10) 0.32545(15) -0.13189(14)
H4E H 0.4672 0.2436 -0.1303
C4E C 0.38374(10) 0.37113(15) -0.15063(14)
H5E H 0.3393 0.3211 -0.1610
C5E C 0.37389(8) 0.49294(14) -0.15375(12)
C6E C 0.44170(9) 0.56329(15) -0.13935(12)
H6E H 0.4372 0.6454 -0.1419
C7E C 0.51635(9) 0.50966(16) -0.12116(11)
H7E H 0.5618 0.5575 -0.1121
O1 O 0.5000 0.8184(3) -0.2500
O2 O 0.2504(4) 1.1150(6) -0.0187(5)
C8 C 0.630(3) 0.771(3) -0.103(3)
O3 O 0.6704(3) 0.7563(4) -0.1513(4)
Si1 Si 0.5000 1.0000 0.0000
F1 F 0.50687(7) 1.03493(11) -0.12423(9)
F2 F 0.59073(6) 0.93313(11) 0.02588(10)
F3 F 0.54529(7) 1.12794(11) 0.04775(10)
F1D F 0.49313(7) 0.96507(11) 0.12423(9)
F2D F 0.40927(6) 1.06687(11) -0.02588(10)
F3D F 0.45471(7) 0.87206(11) -0.04775(10)
Ag2? Ag 0.34050(4) 0.65850(8) 0.08448(7)
loop_
_geom_bond_atom_site_label_1
_geom_bond_atom_site_label_2
_geom_bond_site_symmetry_1
_geom_bond_site_symmetry_2
Ag1 N1 1_555 1_555
N1 N2 1_555 1_555
N2 C1 1_555 1_555
N3 H1 1_555 1_555
H2 N3 1_555 1_555
N4 N3 1_555 1_555
N5 C3 1_555 1_555
C1 N4 1_555 1_555
C2 N1 1_555 1_555
H3 C2 1_555 1_555
C3 H4 1_555 1_555
C4 C3 1_555 1_555
H5 C4 1_555 1_555
C5 C1 1_555 1_555
C6 C5 1_555 1_555
H6 C6 1_555 1_555
C7 N5 1_555 1_555
H7 C7 1_555 1_555
C8 O3 1_555 1_555
Si1 F1 1_555 1_555
F2 Si1 1_555 1_555
F3 Si1 1_555 1_555
Ag1E N2 1_555 1_555
Ag1A N5 1_555 1_555
Ag1D N5E 1_555 1_555
N1E Ag1E 1_555 1_555
N2E Ag1 1_555 1_555
N3E H1E 1_555 1_555
H2E N3E 1_555 1_555
N4E N3E 1_555 1_555
N5E C3E 1_555 1_555
N5A Ag1 1_555 1_555
N5D Ag1E 1_555 1_555
C1E N2E 1_555 1_555
C2E N1E 1_555 1_555
H3E C2E 1_555 1_555
C3E H4E 1_555 1_555
C4E C3E 1_555 1_555
H5E C4E 1_555 1_555
C5E C1E 1_555 1_555
C6E C5E 1_555 1_555
H6E C6E 1_555 1_555
C7E N5E 1_555 1_555
H7E C7E 1_555 1_555
F1D Si1 1_555 1_555
F2D Si1 1_555 1_555
F3D Si1 1_555 1_555
N4 C2 1_555 1_555
C4 C5 1_555 1_555
C6 C7 1_555 1_555
N1E N2E 1_555 1_555
N4E C1E 1_555 1_555
N4E C2E 1_555 1_555
C4E C5E 1_555 1_555
C6E C7E 1_555 1_555

#END
