
#######################################################################
#
#                 Cambridge Crystallographic Data Centre
#                                CCDC 
#
#######################################################################
#
# If this CIF has been generated from an entry in the Cambridge 
# Structural Database, then it will include bibliographic, chemical, 
# crystal, experimental, refinement or atomic coordinate data resulting 
# from the CCDC's data processing and validation procedures.
#
#######################################################################

data_WOFYIB
_symmetry_cell_setting           monoclinic
_symmetry_space_group_name_H-M   'C 2/c'
_symmetry_Int_Tables_number      15
_space_group_name_Hall           '-C 2yn'
loop_
_symmetry_equiv_pos_site_id
_symmetry_equiv_pos_as_xyz
1 x,y,z
2 -x,y,1/2-z
3 1/2+x,1/2+y,z
4 1/2-x,1/2+y,1/2-z
5 -x,-y,-z
6 x,-y,1/2+z
7 1/2-x,1/2-y,-z
8 1/2+x,1/2-y,1/2+z
_cell_length_a                   26.148(5)
_cell_length_b                   5.6860(11)
_cell_length_c                   15.827(3)
_cell_angle_alpha                90
_cell_angle_beta                 125.196(3)
_cell_angle_gamma                90
_cell_volume                     1922.93
loop_
_atom_site_label
_atom_site_type_symbol
_atom_site_fract_x
_atom_site_fract_y
_atom_site_fract_z
Co1 Co 0.05765(2) 0.39682(8) 0.01896(4)
N1 N 0.07283(15) 0.0980(5) 0.0874(3)
C1 C 0.06458(16) -0.0833(6) 0.1116(3)
S1 S 0.05262(4) -0.34442(16) 0.14424(7)
N2 N 0.09691(14) 0.6244(5) -0.0255(2)
C2 C 0.06084(18) 0.7689(7) -0.1034(3)
H1 H 0.0183 0.7349 -0.1467
C3 C 0.0823(2) 0.9710(8) -0.1255(4)
H2 H 0.0549 1.0657 -0.1821
C4 C 0.14410(19) 1.0238(7) -0.0622(3)
H3 H 0.1593 1.1579 -0.0743
C5 C 0.18517(18) 0.8764(6) 0.0216(3)
C6 C 0.25000(19) 0.9183(8) 0.0899(3)
H4 H 0.2672 1.0516 0.0815
C7 C 0.28768(19) 0.7652(8) 0.1682(3)
H5 H 0.3304 0.7954 0.2125
C8 C 0.2633(2) 0.5641(8) 0.1830(3)
H6 H 0.2897 0.4594 0.2359
C9 C 0.20020(18) 0.5209(8) 0.1193(3)
H7 H 0.1839 0.3881 0.1300
C10 C 0.15980(17) 0.6762(6) 0.0376(3)
Co1_2 Co 0.05765(2) -0.60318(8) 0.01896(4)
Co1D Co -0.05765(2) -0.39682(8) -0.01896(4)
S1_2 S 0.05262(4) 0.65558(16) 0.14424(7)
S1D S -0.05262(4) 0.34442(16) -0.14424(7)
loop_
_geom_bond_atom_site_label_1
_geom_bond_atom_site_label_2
_geom_bond_site_symmetry_1
_geom_bond_site_symmetry_2
Co1 N1 1_555 1_555
N1 C1 1_555 1_555
C1 S1 1_555 1_555
S1 Co1_2 1_555 1_555
N2 Co1 1_555 1_555
C2 N2 1_555 1_555
H1 C2 1_555 1_555
C3 C2 1_555 1_555
H2 C3 1_555 1_555
C4 C3 1_555 1_555
H3 C4 1_555 1_555
C5 C4 1_555 1_555
C6 C5 1_555 1_555
H4 C6 1_555 1_555
C7 C6 1_555 1_555
H5 C7 1_555 1_555
C8 C7 1_555 1_555
H6 C8 1_555 1_555
C9 C8 1_555 1_555
H7 C9 1_555 1_555
C10 N2 1_555 1_555
Co1D S1 1_555 1_555
S1_2 Co1 1_555 1_555
S1D Co1 1_555 1_555
C5 C10 1_555 1_555
C9 C10 1_555 1_555

#END
