
#######################################################################
#
#                 Cambridge Crystallographic Data Centre
#                                CCDC 
#
#######################################################################
#
# If this CIF has been generated from an entry in the Cambridge 
# Structural Database, then it will include bibliographic, chemical, 
# crystal, experimental, refinement or atomic coordinate data resulting 
# from the CCDC's data processing and validation procedures.
#
#######################################################################

data_WOGHOP
_symmetry_cell_setting           monoclinic
_symmetry_space_group_name_H-M   'P 21/n'
_symmetry_Int_Tables_number      14
_space_group_name_Hall           '-P 2yn'
loop_
_symmetry_equiv_pos_site_id
_symmetry_equiv_pos_as_xyz
1 x,y,z
2 1/2+x,1/2-y,1/2+z
3 -x,-y,-z
4 1/2-x,1/2+y,1/2-z
_cell_length_a                   10.8294(9)
_cell_length_b                   12.7465(11)
_cell_length_c                   12.3971(11)
_cell_angle_alpha                90
_cell_angle_beta                 95.115(2)
_cell_angle_gamma                90
_cell_volume                     1704.44
loop_
_atom_site_label
_atom_site_type_symbol
_atom_site_fract_x
_atom_site_fract_y
_atom_site_fract_z
Fe1 Fe 0.02977(6) -0.12100(5) -0.34082(5)
Fe2 Fe -0.49054(6) -0.12488(5) -0.14779(5)
P1 P -0.43443(11) -0.12342(9) 0.11858(9)
P2 P -0.57073(11) -0.37263(9) -0.10772(9)
P3 P -0.25197(12) -0.16015(10) -0.30309(11)
O1 O -0.5194(3) -0.3864(2) 0.0087(2)
O2 O -0.1242(3) -0.1120(2) -0.2695(2)
O3 O -0.5483(3) -0.4684(2) -0.1764(2)
O4 O -0.4941(3) -0.2221(2) 0.1607(2)
O5 O 0.2137(3) -0.1337(2) -0.3776(2)
O6 O 0.1284(3) -0.1318(2) -0.1857(2)
O7 O -0.3369(3) -0.1340(2) -0.2172(3)
O8 O -0.4147(3) -0.1307(2) -0.0002(2)
O9 O -0.5172(3) -0.2777(2) -0.1597(3)
O10 O -0.5105(3) -0.0296(2) 0.1485(3)
O11 O 0.3224(3) -0.1203(2) -0.1060(2)
O12 O 0.4075(3) -0.1179(2) -0.3016(2)
O13 O -0.2978(3) -0.1151(2) 0.1757(3)
H1 H -0.3005(3) -0.1108(2) 0.2414(3)
O14 O -0.7158(3) -0.3599(2) -0.1051(3)
H2 H -0.7480(3) -0.3521(2) -0.1670(3)
O15 O -0.2331(3) -0.2849(2) -0.2972(3)
H3 H -0.1824(3) -0.3026(2) -0.3390(3)
O16 O -0.2981(3) -0.1284(3) -0.4156(3)
C1 C 0.2940(4) -0.1260(3) -0.2981(4)
C2 C 0.2444(4) -0.1266(3) -0.1861(4)
O10B O -0.4895(3) 0.0296(2) -0.1485(3)
O12_2 O -0.5925(3) -0.1179(2) -0.3016(2)
O11_2 O -0.6776(3) -0.1203(2) -0.1060(2)
Fe2_2 Fe 0.50946(6) -0.12488(5) -0.14779(5)
O4A O 0.0059(3) -0.2779(2) -0.3393(2)
O1A O -0.0194(3) -0.1136(2) -0.4913(2)
O3C O 0.0483(3) 0.0316(2) -0.3236(2)
Fe1A Fe -0.47023(6) -0.37900(5) 0.15918(5)
Fe2B Fe -0.50946(6) 0.12488(5) 0.14779(5)
Fe1C Fe -0.52977(6) -0.62100(5) -0.15918(5)
C3 C 1.0659(5) -0.0872(4) 0.0500(4)
H4 H 1.0405(5) -0.0843(4) 0.1231(4)
H5 H 1.1225(5) -0.1458(4) 0.0461(4)
C4 C 1.1315(4) 0.0129(4) 0.0260(4)
H6 H 1.1622(4) 0.0082(4) -0.0450(4)
H7 H 1.2020(4) 0.0228(4) 0.0790(4)
N1 N 0.9536(4) -0.1046(3) -0.0288(3)
H8 H 0.9805(4) -0.1067(3) -0.0962(3)
C5 C 0.8915(5) -0.2085(4) -0.0107(4)
H9 H 0.8963(5) -0.2238(4) 0.0662(4)
H10 H 0.8047(5) -0.2047(4) -0.0375(4)
C6 C 0.9538(5) -0.2942(4) -0.0686(4)
H11 H 1.0388(5) -0.3001(4) -0.0371(4)
H12 H 0.9563(5) -0.2738(4) -0.1437(4)
C7 C 0.8935(5) -0.4012(4) -0.0654(4)
H13 H 0.9335(5) -0.4481(4) -0.1131(4)
H14 H 0.9074(5) -0.4290(4) 0.0076(4)
N2 N 0.7582(4) -0.4003(3) -0.0978(4)
H15 H 0.7284(4) -0.4651(3) -0.0943(4)
H16 H 0.7447(4) -0.3764(3) -0.1653(4)
H17 H 0.7205(4) -0.3587(3) -0.0533(4)
N1B N 1.0464(4) 0.1046(3) 0.0288(3)
C4B C 0.8685(4) -0.0129(4) -0.0260(4)
C3B C 0.9341(5) 0.0872(4) -0.0500(4)
H8B H 1.0195(4) 0.1067(3) 0.0962(3)
C5B C 1.1085(5) 0.2085(4) 0.0107(4)
H6B H 0.8378(4) -0.0082(4) 0.0450(4)
H7B H 0.7980(4) -0.0228(4) -0.0790(4)
H4B H 0.9595(5) 0.0843(4) -0.1231(4)
H5B H 0.8775(5) 0.1458(4) -0.0461(4)
H9B H 1.1037(5) 0.2238(4) -0.0662(4)
H10B H 1.1953(5) 0.2047(4) 0.0375(4)
C6B C 1.0462(5) 0.2942(4) 0.0686(4)
H11B H 0.9612(5) 0.3001(4) 0.0371(4)
H12B H 1.0437(5) 0.2738(4) 0.1437(4)
C7B C 1.1065(5) 0.4012(4) 0.0654(4)
H13B H 1.0665(5) 0.4481(4) 0.1131(4)
H14B H 1.0926(5) 0.4290(4) -0.0076(4)
N2B N 1.2418(4) 0.4003(3) 0.0978(4)
H15B H 1.2716(4) 0.4651(3) 0.0943(4)
H16B H 1.2553(4) 0.3764(3) 0.1653(4)
H17B H 1.2795(4) 0.3587(3) 0.0533(4)
loop_
_geom_bond_atom_site_label_1
_geom_bond_atom_site_label_2
_geom_bond_site_symmetry_1
_geom_bond_site_symmetry_2
Fe1 O2 1_555 1_555
Fe2 O7 1_555 1_555
P1 O4 1_555 1_555
P2 O1 1_555 1_555
P3 O2 1_555 1_555
O1 Fe1A 1_555 1_555
O3 P2 1_555 1_555
O4 Fe1A 1_555 1_555
O5 Fe1 1_555 1_555
O6 Fe1 1_555 1_555
O7 P3 1_555 1_555
O8 Fe2 1_555 1_555
O9 Fe2 1_555 1_555
O10 P1 1_555 1_555
O11 C2 1_555 1_555
O12 C1 1_555 1_555
O13 P1 1_555 1_555
H1 O13 1_555 1_555
O14 P2 1_555 1_555
H2 O14 1_555 1_555
O15 P3 1_555 1_555
H3 O15 1_555 1_555
O16 P3 1_555 1_555
C1 O5 1_555 1_555
C2 O6 1_555 1_555
C3 H4 1_555 1_555
H5 C3 1_555 1_555
C4 C3 1_555 1_555
H6 C4 1_555 1_555
H7 C4 1_555 1_555
N1 C3 1_555 1_555
H8 N1 1_555 1_555
C5 N1 1_555 1_555
H9 C5 1_555 1_555
H10 C5 1_555 1_555
C6 C5 1_555 1_555
H11 C6 1_555 1_555
H12 C6 1_555 1_555
C7 C6 1_555 1_555
H13 C7 1_555 1_555
H14 C7 1_555 1_555
N2 C7 1_555 1_555
H15 N2 1_555 1_555
H16 N2 1_555 1_555
H17 N2 1_555 1_555
O10B Fe2 1_555 1_555
O12_2 Fe2 1_555 1_555
O11_2 Fe2 1_555 1_555
N1B C4 1_555 1_555
C4B N1 1_555 1_555
Fe2_2 O11 1_555 1_555
C3B N1B 1_555 1_555
H8B N1B 1_555 1_555
C5B N1B 1_555 1_555
H6B C4B 1_555 1_555
H7B C4B 1_555 1_555
O4A Fe1 1_555 1_555
O1A Fe1 1_555 1_555
O3C Fe1 1_555 1_555
H4B C3B 1_555 1_555
H5B C3B 1_555 1_555
H9B C5B 1_555 1_555
H10B C5B 1_555 1_555
C6B C5B 1_555 1_555
Fe2B O10 1_555 1_555
Fe1C O3 1_555 1_555
H11B C6B 1_555 1_555
H12B C6B 1_555 1_555
C7B C6B 1_555 1_555
H13B C7B 1_555 1_555
H14B C7B 1_555 1_555
N2B C7B 1_555 1_555
H15B N2B 1_555 1_555
H16B N2B 1_555 1_555
H17B N2B 1_555 1_555
P1 O8 1_555 1_555
P2 O9 1_555 1_555
O12 Fe2_2 1_555 1_555
C1 C2 1_555 1_555
C4B C3B 1_555 1_555

#END
