
#######################################################################
#
#                 Cambridge Crystallographic Data Centre
#                                CCDC 
#
#######################################################################
#
# If this CIF has been generated from an entry in the Cambridge 
# Structural Database, then it will include bibliographic, chemical, 
# crystal, experimental, refinement or atomic coordinate data resulting 
# from the CCDC's data processing and validation procedures.
#
#######################################################################

data_WOGKOT01
_symmetry_cell_setting           monoclinic
_symmetry_space_group_name_H-M   'C 2/c'
_symmetry_Int_Tables_number      15
_space_group_name_Hall           '-C 2yn'
loop_
_symmetry_equiv_pos_site_id
_symmetry_equiv_pos_as_xyz
1 x,y,z
2 1/2+x,1/2+y,z
3 -x,y,1/2-z
4 1/2-x,1/2+y,1/2-z
5 -x,-y,-z
6 1/2-x,1/2-y,-z
7 x,-y,1/2+z
8 1/2+x,1/2-y,1/2+z
_cell_length_a                   13.936(3)
_cell_length_b                   11.642(2)
_cell_length_c                   12.090(2)
_cell_angle_alpha                90
_cell_angle_beta                 108.27(3)
_cell_angle_gamma                90
_cell_volume                     1862.64
loop_
_atom_site_label
_atom_site_type_symbol
_atom_site_fract_x
_atom_site_fract_y
_atom_site_fract_z
Mg1 Mg 0.26351(4) 0.74829(4) 0.22054(4)
C1 C 0.11421(10) 1.00113(12) 0.35638(12)
C2 C 0.16743(10) 0.95125(12) 0.28982(12)
C3 C 0.11365(13) 0.81335(13) 0.37317(15)
H1 H 0.1008 0.7405 0.3968
C4 C 0.08839(10) 1.12028(12) 0.38224(12)
C5 C 0.21903(10) 0.99435(12) 0.20604(12)
N1 N 0.08076(10) 0.91095(11) 0.40702(12)
H2 H 0.0429 0.9129 0.4550
N2 N 0.16649(9) 0.83362(11) 0.30210(11)
O1 O 0.02434(9) 1.12959(10) 0.43491(10)
O2 O 0.13085(9) 1.20381(9) 0.35327(10)
O3 O 0.22928(8) 1.09944(9) 0.19155(9)
O4 O 0.25013(8) 0.91697(9) 0.15271(9)
O5 O 0.39026(8) 0.81210(9) 0.35895(10)
H3 H 0.4333 0.7633 0.3873
H4 H 0.3884 0.8607 0.4073
O6 O 0.14310(10) 0.68563(10) 0.08569(11)
H5 H 0.1417 0.6214 0.0586
H6 H 0.1175 0.7316 0.0322
Mg1C Mg 0.23649(4) 0.24829(4) 0.27946(4)
Mg1C_2 Mg 0.23649(4) 1.24829(4) 0.27946(4)
C1C C 0.38579(10) 0.50113(12) 0.14362(12)
C2C C 0.33257(10) 0.45125(12) 0.21018(12)
C3C C 0.38635(13) 0.31335(13) 0.12683(15)
H1C H 0.3992 0.2405 0.1032
C4C C 0.41161(10) 0.62028(12) 0.11776(12)
C5C C 0.28097(10) 0.49435(12) 0.29396(12)
N1C N 0.41924(10) 0.41095(11) 0.09298(12)
H2C H 0.4571 0.4129 0.0450
N2C N 0.33351(9) 0.33362(11) 0.19790(11)
O1C O 0.47566(9) 0.62959(10) 0.06509(10)
O2C O 0.36915(9) 0.70381(9) 0.14673(10)
O2_2 O 0.13085(9) 0.20381(9) 0.35327(10)
O3C O 0.27072(8) 0.59944(9) 0.30845(9)
O3_2 O 0.22928(8) 0.09944(9) 0.19155(9)
O4C O 0.24987(8) 0.41697(9) 0.34729(9)
O5C O 0.10974(8) 0.31210(9) 0.14105(10)
H3C H 0.0667 0.2633 0.1127
H4C H 0.1116 0.3607 0.0927
O6C O 0.35690(10) 0.18563(10) 0.41431(11)
H5C H 0.3583 0.1214 0.4414
H6C H 0.3825 0.2316 0.4678
O7 O 0.37198(10) 0.96899(12) 0.53032(11)
H7 H 0.3195 0.9828 0.5456
H8 H 0.4203 0.9774 0.5909
O8 O 0.5000 0.95927(17) 0.2500
H9 H 0.5484 0.9319 0.2347
H9B H 0.4516 0.9319 0.2653
loop_
_geom_bond_atom_site_label_1
_geom_bond_atom_site_label_2
_geom_bond_site_symmetry_1
_geom_bond_site_symmetry_2
Mg1 N2 1_555 1_555
C1 C2 1_555 1_555
C2 C5 1_555 1_555
C3 H1 1_555 1_555
C4 C1 1_555 1_555
C5 O3 1_555 1_555
N1 C1 1_555 1_555
H2 N1 1_555 1_555
N2 C2 1_555 1_555
O1 C4 1_555 1_555
O2 C4 1_555 1_555
O3 Mg1C_2 1_555 1_555
O4 Mg1 1_555 1_555
O5 Mg1 1_555 1_555
H3 O5 1_555 1_555
H4 O5 1_555 1_555
O6 Mg1 1_555 1_555
H5 O6 1_555 1_555
H6 O6 1_555 1_555
O7 H7 1_555 1_555
H8 O7 1_555 1_555
O8 H9 1_555 1_555
Mg1C N2C 1_555 1_555
Mg1C_2 O2 1_555 1_555
C1C C2C 1_555 1_555
C2C C5C 1_555 1_555
C3C H1C 1_555 1_555
C4C C1C 1_555 1_555
C5C O3C 1_555 1_555
N1C C1C 1_555 1_555
H2C N1C 1_555 1_555
N2C C2C 1_555 1_555
O1C C4C 1_555 1_555
O2C Mg1 1_555 1_555
O2_2 Mg1C 1_555 1_555
O3C Mg1 1_555 1_555
O3_2 Mg1C 1_555 1_555
O4C Mg1C 1_555 1_555
O5C Mg1C 1_555 1_555
H3C O5C 1_555 1_555
H4C O5C 1_555 1_555
O6C Mg1C 1_555 1_555
H5C O6C 1_555 1_555
H6C O6C 1_555 1_555
H9B O8 1_555 1_555
C3 N1 1_555 1_555
C3 N2 1_555 1_555
C5 O4 1_555 1_555
C3C N1C 1_555 1_555
C3C N2C 1_555 1_555
C4C O2C 1_555 1_555
C5C O4C 1_555 1_555

#END
