
#######################################################################
#
#                 Cambridge Crystallographic Data Centre
#                                CCDC 
#
#######################################################################
#
# If this CIF has been generated from an entry in the Cambridge 
# Structural Database, then it will include bibliographic, chemical, 
# crystal, experimental, refinement or atomic coordinate data resulting 
# from the CCDC's data processing and validation procedures.
#
#######################################################################

data_WOGKOT
_symmetry_cell_setting           monoclinic
_symmetry_space_group_name_H-M   'C 2/c'
_symmetry_Int_Tables_number      15
_space_group_name_Hall           '-C 2yn'
loop_
_symmetry_equiv_pos_site_id
_symmetry_equiv_pos_as_xyz
1 x,y,z
2 1/2+x,1/2+y,z
3 -x,y,1/2-z
4 1/2-x,1/2+y,1/2-z
5 -x,-y,-z
6 1/2-x,1/2-y,-z
7 x,-y,1/2+z
8 1/2+x,1/2-y,1/2+z
_cell_length_a                   13.9242(4)
_cell_length_b                   11.6256(3)
_cell_length_c                   12.0761(3)
_cell_angle_alpha                90
_cell_angle_beta                 108.2400(10)
_cell_angle_gamma                90
_cell_volume                     1856.62
loop_
_atom_site_label
_atom_site_type_symbol
_atom_site_fract_x
_atom_site_fract_y
_atom_site_fract_z
C1 C 0.61348(17) -0.31332(18) 0.37302(19)
C2 C 0.61435(14) -0.50114(16) 0.35654(16)
C3 C 0.66751(13) -0.45117(16) 0.28968(16)
C4 C 0.71909(14) -0.49446(16) 0.20625(16)
C5 C 0.58832(14) -0.61994(16) 0.38241(16)
N1 N 0.66658(12) -0.33362(14) 0.30211(14)
N2 N 0.58079(13) -0.41087(14) 0.40698(16)
O1 O 0.64312(15) -0.18605(17) 0.08553(16)
O2 O 0.89009(12) -0.31266(13) 0.35899(14)
O3 O 0.72934(10) -0.59942(11) 0.19157(12)
O4 O 0.75017(10) -0.41681(11) 0.15280(12)
O5 O 0.63098(11) -0.70386(12) 0.35336(13)
O6 O 0.52423(11) -0.62975(12) 0.43492(13)
Mg1 Mg 0.76346(5) -0.24829(5) 0.22061(6)
H1 H 0.6023(16) -0.2387(19) 0.3971(19)
H2 H 0.5457(18) -0.414(2) 0.453(2)
H3 H 0.640(2) -0.129(3) 0.057(3)
H4 H 0.930(2) -0.267(2) 0.384(2)
H7 H 0.887(3) -0.364(2) 0.419(2)
H8 H 0.617(4) -0.232(4) 0.031(5)
C1C C 0.88652(17) 0.18668(18) 0.12698(19)
C2C C 0.88565(14) -0.00114(16) 0.14346(16)
C3C C 0.83249(13) 0.04883(16) 0.21032(16)
C4C C 0.78091(14) 0.00554(16) 0.29375(16)
C5C C 0.91168(14) -0.11994(16) 0.11759(16)
N1C N 0.83342(12) 0.16638(14) 0.19789(14)
N2C N 0.91921(13) 0.08913(14) 0.09302(16)
O1C O 0.85688(15) 0.31395(17) 0.41447(16)
O2C O 0.60991(12) 0.18734(13) 0.14101(14)
O3C O 0.77066(10) -0.09942(11) 0.30843(12)
O3_2 O 0.72934(10) 0.40058(11) 0.19157(12)
O4C O 0.74983(10) 0.08319(11) 0.34720(12)
O5C O 0.86902(11) -0.20386(12) 0.14664(13)
O5_2 O 0.63098(11) 0.29614(12) 0.35336(13)
O6C O 0.97577(11) -0.12975(12) 0.06508(13)
Mg1C Mg 0.73654(5) 0.25171(5) 0.27939(6)
Mg1C_2 Mg 0.73654(5) -0.74829(5) 0.27939(6)
H1C H 0.8977(16) 0.2613(19) 0.1029(19)
H2C H 0.9543(18) 0.086(2) 0.047(2)
H3C H 0.860(2) 0.371(3) 0.443(3)
H4C H 0.570(2) 0.233(2) 0.116(2)
H7C H 0.613(3) 0.136(2) 0.081(2)
H8C H 0.883(4) 0.268(4) 0.469(5)
O7 O 0.87214(18) -0.46928(17) 0.53038(17)
H5 H 0.919(4) -0.480(3) 0.586(4)
H6 H 0.824(3) -0.481(3) 0.543(3)
O8 O 1.0000 -0.4587(2) 0.2500
H9 H 0.960(7) -0.439(6) 0.259(10)
H9B H 1.040(7) -0.439(6) 0.241(10)
loop_
_geom_bond_atom_site_label_1
_geom_bond_atom_site_label_2
_geom_bond_site_symmetry_1
_geom_bond_site_symmetry_2
C1 N1 1_555 1_555
C2 C3 1_555 1_555
C3 C4 1_555 1_555
C4 O3 1_555 1_555
C5 C2 1_555 1_555
N1 C3 1_555 1_555
N2 C1 1_555 1_555
O1 Mg1 1_555 1_555
O2 Mg1 1_555 1_555
O3 Mg1C_2 1_555 1_555
O4 C4 1_555 1_555
O5 C5 1_555 1_555
O6 C5 1_555 1_555
O7 H5 1_555 1_555
O8 H9 1_555 1_555
Mg1 N1 1_555 1_555
H1 C1 1_555 1_555
H2 N2 1_555 1_555
H3 O1 1_555 1_555
H4 O2 1_555 1_555
H6 O7 1_555 1_555
H7 O2 1_555 1_555
H8 O1 1_555 1_555
C1C N1C 1_555 1_555
C2C C3C 1_555 1_555
C3C C4C 1_555 1_555
C4C O3C 1_555 1_555
C5C C2C 1_555 1_555
N1C C3C 1_555 1_555
N2C C1C 1_555 1_555
O1C Mg1C 1_555 1_555
O2C Mg1C 1_555 1_555
O3C Mg1 1_555 1_555
O3_2 Mg1C 1_555 1_555
O4C C4C 1_555 1_555
O5C Mg1 1_555 1_555
O5_2 Mg1C 1_555 1_555
O6C C5C 1_555 1_555
Mg1C N1C 1_555 1_555
Mg1C_2 O5 1_555 1_555
H1C C1C 1_555 1_555
H2C N2C 1_555 1_555
H3C O1C 1_555 1_555
H4C O2C 1_555 1_555
H7C O2C 1_555 1_555
H8C O1C 1_555 1_555
H9B O8 1_555 1_555
C2 N2 1_555 1_555
O4 Mg1 1_555 1_555
C2C N2C 1_555 1_555
C5C O5C 1_555 1_555
O4C Mg1C 1_555 1_555

#END
