
#######################################################################
#
#                 Cambridge Crystallographic Data Centre
#                                CCDC 
#
#######################################################################
#
# If this CIF has been generated from an entry in the Cambridge 
# Structural Database, then it will include bibliographic, chemical, 
# crystal, experimental, refinement or atomic coordinate data resulting 
# from the CCDC's data processing and validation procedures.
#
#######################################################################

data_WOGLAG
_symmetry_cell_setting           monoclinic
_symmetry_space_group_name_H-M   'P 21/n'
_symmetry_Int_Tables_number      14
_space_group_name_Hall           '-P 2yn'
loop_
_symmetry_equiv_pos_site_id
_symmetry_equiv_pos_as_xyz
1 x,y,z
2 1/2-x,1/2+y,1/2-z
3 -x,-y,-z
4 1/2+x,1/2-y,1/2+z
_cell_length_a                   10.4503(7)
_cell_length_b                   16.6457(11)
_cell_length_c                   11.4380(8)
_cell_angle_alpha                90
_cell_angle_beta                 108.225(3)
_cell_angle_gamma                90
_cell_volume                     1889.86
loop_
_atom_site_label
_atom_site_type_symbol
_atom_site_fract_x
_atom_site_fract_y
_atom_site_fract_z
C1 C 0.7278(2) 0.27179(12) -0.0189(2)
C2 C 0.52019(18) 0.30318(11) -0.05498(17)
C3 C 0.52909(18) 0.22199(11) -0.08030(17)
C4 C 0.40764(19) 0.35973(12) -0.06602(17)
C5 C 0.43098(19) 0.15572(12) -0.12060(17)
C6 C 0.47619(19) 0.21548(12) 0.19615(18)
C7 C 0.43473(17) 0.31024(11) 0.30647(17)
C8 C 0.32162(18) 0.29764(11) 0.20495(17)
C9 C 0.18899(19) 0.33745(12) 0.15584(18)
C10 C 0.47271(18) 0.36566(11) 0.41320(17)
N1 N 0.64840(15) 0.33415(9) -0.01534(15)
N2 N 0.66214(15) 0.20302(10) -0.05787(15)
N3 N 0.35016(15) 0.23714(10) 0.13493(14)
N4 N 0.53194(15) 0.25693(9) 0.29941(14)
O1 O 0.6639(2) 0.49374(11) -0.13834(16)
O2 O 0.85333(16) 0.47258(11) 0.11254(18)
O3 O 0.63579(18) 0.43496(10) 0.20664(15)
O4 O 0.44405(12) 0.43312(7) -0.04401(12)
O5 O 0.28854(13) 0.33803(8) -0.09440(13)
O6 O 0.47657(13) 0.08902(8) -0.14443(13)
O7 O 0.30927(13) 0.16520(8) -0.12949(12)
O8 O 0.11246(13) 0.31027(8) 0.05505(12)
O9 O 0.15943(13) 0.39685(8) 0.21079(12)
O10 O 0.59452(12) 0.36222(8) 0.48039(12)
O11 O 0.38897(13) 0.41197(8) 0.43624(13)
O12 O 0.6881(2) -0.04059(10) -0.1438(2)
O13 O 0.6968(2) 0.04386(12) 0.07511(17)
Mg1 Mg 0.65078(6) 0.45999(4) 0.03302(6)
Mg2 Mg 0.20588(6) 0.23729(4) -0.04626(6)
Mg3 Mg 0.68659(6) 0.08005(4) -0.10564(6)
H1 H 0.822(2) 0.2768(12) 0.0025(19)
H2 H 0.524(2) 0.1753(12) 0.1685(17)
H3 H 0.722(3) 0.522(2) -0.158(3)
H4 H 0.616(3) 0.462(2) -0.197(3)
H5 H 0.892(3) 0.450(2) 0.184(3)
H6 H 0.903(3) 0.5067(19) 0.105(3)
H7 H 0.566(4) 0.438(2) 0.212(4)
H8 H 0.683(3) 0.4006(19) 0.261(3)
H9 H 0.746(3) -0.0663(18) -0.103(3)
H10 H 0.651(3) -0.0618(19) -0.207(3)
H11 H 0.765(4) 0.055(2) 0.122(4)
H12 H 0.649(4) 0.005(3) 0.094(4)
N4C N 0.03194(15) 0.24307(9) -0.20059(14)
O4B O 0.55595(12) 0.56688(7) 0.04401(12)
O9C O 0.65943(13) 0.10315(8) -0.28921(12)
O10C O 0.09452(12) 0.13778(8) -0.01961(12)
O11C O 0.88897(13) 0.08803(8) -0.06376(13)
Mg1B Mg 0.34922(6) 0.54001(4) -0.03302(6)
Mg2C Mg 0.70588(6) 0.26271(4) 0.45374(6)
Mg3C Mg 0.18659(6) 0.41995(4) 0.39436(6)
O14 O 0.04697(19) 0.58205(11) 0.10719(17)
H13 H 0.004(3) 0.6167(19) 0.064(3)
H14 H 0.101(4) 0.569(2) 0.070(4)
O15 O 0.4900(3) 0.4035(2) -0.3074(2)
H15 H 0.561(2) 0.3677(11) -0.2901(18)
H16 H 0.489(7) 0.412(4) -0.409(7)
loop_
_geom_bond_atom_site_label_1
_geom_bond_atom_site_label_2
_geom_bond_site_symmetry_1
_geom_bond_site_symmetry_2
C1 N1 1_555 1_555
C2 C3 1_555 1_555
C3 C5 1_555 1_555
C4 C2 1_555 1_555
C5 O6 1_555 1_555
C6 N3 1_555 1_555
C7 C8 1_555 1_555
C8 C9 1_555 1_555
C9 O8 1_555 1_555
C10 C7 1_555 1_555
N1 C2 1_555 1_555
N2 C1 1_555 1_555
N3 C8 1_555 1_555
N4 C6 1_555 1_555
O1 Mg1 1_555 1_555
O2 Mg1 1_555 1_555
O3 Mg1 1_555 1_555
O4 C4 1_555 1_555
O5 C4 1_555 1_555
O6 Mg3 1_555 1_555
O7 C5 1_555 1_555
O8 Mg2 1_555 1_555
O9 C9 1_555 1_555
O10 C10 1_555 1_555
O11 C10 1_555 1_555
O12 Mg3 1_555 1_555
O13 Mg3 1_555 1_555
O14 H13 1_555 1_555
O15 H15 1_555 1_555
Mg1 N1 1_555 1_555
Mg2 N3 1_555 1_555
Mg3 N2 1_555 1_555
H1 C1 1_555 1_555
H2 C6 1_555 1_555
H3 O1 1_555 1_555
H4 O1 1_555 1_555
H5 O2 1_555 1_555
H6 O2 1_555 1_555
H7 O3 1_555 1_555
H8 O3 1_555 1_555
H9 O12 1_555 1_555
H10 O12 1_555 1_555
H11 O13 1_555 1_555
H12 O13 1_555 1_555
H14 O14 1_555 1_555
H16 O15 1_555 1_555
N4C Mg2 1_555 1_555
O4B Mg1 1_555 1_555
O9C Mg3 1_555 1_555
O10C Mg2 1_555 1_555
O11C Mg3 1_555 1_555
Mg1B O4 1_555 1_555
Mg2C N4 1_555 1_555
Mg3C O9 1_555 1_555
C3 N2 1_555 1_555
C7 N4 1_555 1_555
O4 Mg1 1_555 1_555
O5 Mg2 1_555 1_555
O7 Mg2 1_555 1_555
O10 Mg2C 1_555 1_555
O11 Mg3C 1_555 1_555
O4B Mg1B 1_555 1_555

#END
