
#######################################################################
#
#                 Cambridge Crystallographic Data Centre
#                                CCDC 
#
#######################################################################
#
# If this CIF has been generated from an entry in the Cambridge 
# Structural Database, then it will include bibliographic, chemical, 
# crystal, experimental, refinement or atomic coordinate data resulting 
# from the CCDC's data processing and validation procedures.
#
#######################################################################

data_WOGLIP
_symmetry_cell_setting           triclinic
_symmetry_space_group_name_H-M   'P -1'
_symmetry_Int_Tables_number      2
_space_group_name_Hall           '-P 1'
loop_
_symmetry_equiv_pos_site_id
_symmetry_equiv_pos_as_xyz
1 x,y,z
2 -x,-y,-z
_cell_length_a                   7.9232(16)
_cell_length_b                   14.660(3)
_cell_length_c                   15.006(3)
_cell_angle_alpha                90.87(3)
_cell_angle_beta                 101.59(3)
_cell_angle_gamma                96.05(3)
_cell_volume                     1696.78
loop_
_atom_site_label
_atom_site_type_symbol
_atom_site_fract_x
_atom_site_fract_y
_atom_site_fract_z
Ag1 Ag 0.55997(3) 0.623996(16) 0.193191(16)
Ag2 Ag 1.09344(4) 0.73683(2) 0.559729(15)
N1 N 0.9508(4) 0.74453(18) 0.42242(16)
N2 N 0.7459(3) 0.70202(15) 0.30035(15)
N3 N 0.8052(3) 0.79226(14) 0.29671(14)
N4 N 0.8144(3) 0.55722(14) -0.01843(14)
N5 N 0.7810(3) 0.50211(17) 0.04971(16)
N6 N 0.6310(3) 0.44557(16) -0.08559(16)
N7 N 0.3874(3) 0.80902(15) -0.17577(14)
N8 N 0.2859(4) 0.73609(19) -0.15335(18)
N9 N 0.2414(4) 0.74926(19) -0.30422(17)
O1 O 0.3433(5) 0.3595(2) 0.27848(18)
H1 H 0.3183 0.3125 0.3041
O2 O 0.5348(5) 0.4805(2) 0.30638(18)
O3 O 0.8979(4) 0.57765(17) 0.5610(2)
O4 O 0.9806(4) 0.50433(18) 0.68569(19)
O5 O 0.8877(4) 0.36594(19) 0.75718(17)
O6 O 0.6568(3) 0.26565(16) 0.73969(15)
O7 O 0.3331(6) 0.1529(3) 0.4747(3)
O8 O 0.2445(4) 0.2282(2) 0.35584(18)
C1 C 0.8373(4) 0.67638(19) 0.37664(17)
H2 H 0.8252 0.6170 0.3973
C2 C 0.9275(4) 0.8156(2) 0.36998(18)
H3 H 0.9883 0.8736 0.3827
C3 C 0.7250(4) 0.85062(17) 0.22624(16)
H4 H 0.7884 0.9115 0.2350
H5 H 0.6074 0.8562 0.2331
C4 C 0.7204(3) 0.81506(16) 0.13043(16)
C5 C 0.8211(3) 0.74863(16) 0.11058(16)
H6 H 0.8947 0.7231 0.1575
C6 C 0.8124(3) 0.72006(16) 0.02098(17)
C7 C 0.7046(3) 0.75840(16) -0.04958(16)
H7 H 0.6998 0.7392 -0.1095
C8 C 0.6033(3) 0.82569(17) -0.03080(17)
C9 C 0.6113(3) 0.85291(16) 0.05905(16)
H8 H 0.5428 0.8971 0.0720
C10 C 0.9210(3) 0.64583(17) 0.00135(19)
H9 H 0.9729 0.6623 -0.0503
H10 H 1.0138 0.6409 0.0536
C11 C 0.7248(4) 0.52255(19) -0.09731(19)
H11 H 0.7273 0.5486 -0.1532
C12 C 0.6704(4) 0.43577(19) 0.0049(2)
H12 H 0.6234 0.3863 0.0334
C13 C 0.4916(4) 0.87273(18) -0.10593(17)
H13 H 0.4153 0.9079 -0.0797
H14 H 0.5655 0.9154 -0.1339
C14 C 0.3577(4) 0.8166(2) -0.26483(18)
H15 H 0.4106 0.8625 -0.2953
C15 C 0.2022(5) 0.7019(2) -0.2329(2)
H16 H 0.1226 0.6497 -0.2399
C16 C 0.4701(5) 0.4099(2) 0.3315(2)
C17 C 0.8813(4) 0.5100(2) 0.6063(2)
C18 C 0.7493(4) 0.3270(2) 0.71022(19)
C19 C 0.3451(5) 0.2208(2) 0.4307(2)
C20 C 0.4805(4) 0.30018(19) 0.47120(18)
C21 C 0.5338(4) 0.37941(19) 0.42814(18)
C22 C 0.6641(4) 0.4415(2) 0.4788(2)
H17 H 0.7007 0.4936 0.4501
C23 C 0.7435(4) 0.43154(18) 0.56878(18)
C24 C 0.6869(3) 0.35316(18) 0.61225(17)
C25 C 0.5586(4) 0.29029(19) 0.56152(18)
H18 H 0.5226 0.2380 0.5900
H19 H 0.916(9) 0.418(2) 0.741(5)
Ag1A Ag 0.44003(3) 0.376004(16) -0.193191(16)
Ag2_2 Ag 0.09344(4) 0.73683(2) -0.440271(15)
N6A N 0.3690(3) 0.55443(16) 0.08559(16)
N9_2 N 1.2414(4) 0.74926(19) 0.69578(17)
O9 O 0.8618(3) 0.09089(16) 0.77374(14)
O10 O 0.7677(3) 0.17401(14) 0.87532(14)
H20 H 0.7320 0.2036 0.8308
O11 O 0.8178(3) -0.11223(19) 0.78251(15)
H21 H 0.8186 -0.1389 0.7342
O12 O 1.0963(3) -0.06949(17) 0.78019(16)
C26 C 0.8443(3) 0.10630(18) 0.85032(17)
C27 C 0.9726(4) -0.07130(18) 0.81641(18)
C28 C 0.9853(3) -0.03167(16) 0.91060(16)
C29 C 0.9198(3) 0.05001(16) 0.92790(17)
C30 C 0.9354(3) 0.08076(17) 1.01759(17)
H22 H 0.8919 0.1351 1.0296
O9A O 1.1382(3) -0.09089(16) 1.22626(14)
O10A O 1.2323(3) -0.17401(14) 1.12468(14)
H20A H 1.2680 -0.2036 1.1692
O11A O 1.1822(3) 0.11223(19) 1.21749(15)
H21A H 1.1814 0.1389 1.2658
O12A O 0.9037(3) 0.06949(17) 1.21981(16)
C26A C 1.1557(3) -0.10630(18) 1.14968(17)
C27A C 1.0274(4) 0.07130(18) 1.18359(18)
C28A C 1.0147(3) 0.03167(16) 1.08940(16)
C29A C 1.0802(3) -0.05001(16) 1.07210(17)
C30A C 1.0646(3) -0.08076(17) 0.98241(17)
H22A H 1.1081 -0.1351 0.9704
O13 O 1.0090(15) 0.0410(5) 0.4173(5)
O14 O 0.5046(10) 0.0232(5) 0.6543(6)
O15 O 0.730(2) 0.0573(13) 0.4959(15)
loop_
_geom_bond_atom_site_label_1
_geom_bond_atom_site_label_2
_geom_bond_site_symmetry_1
_geom_bond_site_symmetry_2
Ag1 N2 1_555 1_555
Ag2 N1 1_555 1_555
N1 C1 1_555 1_555
N2 N3 1_555 1_555
N3 C2 1_555 1_555
N4 N5 1_555 1_555
N5 C12 1_555 1_555
N6 C11 1_555 1_555
N7 N8 1_555 1_555
N8 C15 1_555 1_555
N9 C14 1_555 1_555
O1 H1 1_555 1_555
O2 Ag1 1_555 1_555
O3 Ag2 1_555 1_555
O4 C17 1_555 1_555
O5 C18 1_555 1_555
O6 C18 1_555 1_555
O7 C19 1_555 1_555
O8 C19 1_555 1_555
C1 N2 1_555 1_555
H2 C1 1_555 1_555
C2 N1 1_555 1_555
H3 C2 1_555 1_555
C3 N3 1_555 1_555
H4 C3 1_555 1_555
H5 C3 1_555 1_555
C4 C3 1_555 1_555
C5 C4 1_555 1_555
H6 C5 1_555 1_555
C6 C5 1_555 1_555
C7 C6 1_555 1_555
H7 C7 1_555 1_555
C8 C7 1_555 1_555
C9 C4 1_555 1_555
H8 C9 1_555 1_555
C10 N4 1_555 1_555
H9 C10 1_555 1_555
H10 C10 1_555 1_555
C11 N4 1_555 1_555
H11 C11 1_555 1_555
C12 N6 1_555 1_555
H12 C12 1_555 1_555
C13 N7 1_555 1_555
H13 C13 1_555 1_555
H14 C13 1_555 1_555
C14 N7 1_555 1_555
H15 C14 1_555 1_555
C15 N9 1_555 1_555
H16 C15 1_555 1_555
C16 O1 1_555 1_555
C17 O3 1_555 1_555
C18 C24 1_555 1_555
C19 C20 1_555 1_555
C20 C21 1_555 1_555
C21 C16 1_555 1_555
C22 C21 1_555 1_555
H17 C22 1_555 1_555
C23 C17 1_555 1_555
C24 C23 1_555 1_555
C25 C20 1_555 1_555
H18 C25 1_555 1_555
H19 O5 1_555 1_555
O9 C26 1_555 1_555
O10 H20 1_555 1_555
O11 H21 1_555 1_555
O12 C27 1_555 1_555
C26 O10 1_555 1_555
C27 O11 1_555 1_555
C28 C27 1_555 1_555
C29 C26 1_555 1_555
C30 C29 1_555 1_555
H22 C30 1_555 1_555
Ag1A N6 1_555 1_555
Ag2_2 N9 1_555 1_555
N6A Ag1 1_555 1_555
N9_2 Ag2 1_555 1_555
O9A C26A 1_555 1_555
O10A H20A 1_555 1_555
O11A H21A 1_555 1_555
O12A C27A 1_555 1_555
C26A O10A 1_555 1_555
C27A O11A 1_555 1_555
C28A C30 1_555 1_555
C29A C26A 1_555 1_555
C30A C28 1_555 1_555
H22A C30A 1_555 1_555
O2 C16 1_555 1_555
C6 C10 1_555 1_555
C8 C9 1_555 1_555
C8 C13 1_555 1_555
C22 C23 1_555 1_555
C24 C25 1_555 1_555
C28 C29 1_555 1_555
C27A C28A 1_555 1_555
C28A C29A 1_555 1_555
C29A C30A 1_555 1_555

#END
