
#######################################################################
#
#                 Cambridge Crystallographic Data Centre
#                                CCDC 
#
#######################################################################
#
# If this CIF has been generated from an entry in the Cambridge 
# Structural Database, then it will include bibliographic, chemical, 
# crystal, experimental, refinement or atomic coordinate data resulting 
# from the CCDC's data processing and validation procedures.
#
#######################################################################

data_WOGLEL
_symmetry_cell_setting           triclinic
_symmetry_space_group_name_H-M   'P -1'
_symmetry_Int_Tables_number      2
_space_group_name_Hall           '-P 1'
loop_
_symmetry_equiv_pos_site_id
_symmetry_equiv_pos_as_xyz
1 x,y,z
2 -x,-y,-z
_cell_length_a                   8.8837(18)
_cell_length_b                   9.895(2)
_cell_length_c                   12.851(3)
_cell_angle_alpha                105.00(3)
_cell_angle_beta                 95.34(3)
_cell_angle_gamma                100.26(3)
_cell_volume                     1062.15
loop_
_atom_site_label
_atom_site_type_symbol
_atom_site_fract_x
_atom_site_fract_y
_atom_site_fract_z
Cd1 Cd 0.23592(3) 0.27544(3) 0.37792(2)
N1 N 0.2203(5) 0.2555(4) 0.5548(3)
N2 N 0.2874(4) 0.3106(4) 0.7297(3)
N3 N 0.1316(4) 0.2989(5) 0.7157(3)
N4 N 0.0347(4) 0.8113(4) 0.6671(3)
N5 N 0.2710(5) 0.9546(4) 0.7031(4)
N6 N 0.2624(4) 0.8620(4) 0.7655(3)
N7 N 0.2528(4) 1.0318(4) 1.3127(3)
N8 N 0.3463(5) 0.8315(4) 1.2842(4)
N9 N 0.2149(4) 0.8111(4) 1.2146(3)
N10 N 0.2285(5) 0.3058(7) 0.2036(4)
N11 N 0.4971(5) 0.6700(5) 0.5802(4)
S1 S 0.20736(16) 0.55204(15) 0.45876(17)
S2 S 0.1803(2) 0.12981(19) -0.01189(15)
C1 C 0.0967(6) 0.2656(5) 0.6104(4)
H1 H -0.0041 0.2499 0.5757
C2 C 0.3376(5) 0.2857(5) 0.6347(3)
H2 H 0.4405 0.2888 0.6250
C3 C 0.3762(5) 0.3612(5) 0.8384(3)
H3 H 0.4854 0.3676 0.8335
H4 H 0.3451 0.2942 0.8797
C4 C 0.3485(5) 0.5065(5) 0.8954(3)
C5 C 0.2750(5) 0.5271(4) 0.9869(3)
H5 H 0.2466 0.4515 1.0164
C6 C 0.2434(5) 0.6589(4) 1.0345(3)
C7 C 0.2843(5) 0.7704(4) 0.9893(3)
H6 H 0.2615 0.8589 1.0203
C8 C 0.3591(5) 0.7511(5) 0.8981(3)
C9 C 0.3905(5) 0.6192(5) 0.8523(3)
H7 H 0.4408 0.6058 0.7913
C10 C 0.1321(6) 0.9188(5) 0.6462(4)
H8 H 0.1030 0.9645 0.5951
C11 C 0.1225(5) 0.7790(5) 0.7433(4)
H9 H 0.0899 0.7077 0.7762
C12 C 0.3946(5) 0.8685(5) 0.8444(4)
H10 H 0.4844 0.8585 0.8078
H11 H 0.4181 0.9606 0.8990
C13 C 0.1625(5) 0.9307(5) 1.2323(4)
H12 H 0.0741 0.9419 1.1935
C14 C 0.3628(6) 0.9645(5) 1.3409(4)
H13 H 0.4446 1.0097 1.3968
C15 C 0.1549(5) 0.6760(5) 1.1309(4)
H14 H 0.0470 0.6704 1.1056
H15 H 0.1601 0.5976 1.1625
C16 C 0.2084(6) 0.2243(6) 0.1139(5)
C17 C 0.3779(5) 0.6202(5) 0.5294(4)
Cd1_2 Cd 0.23592(3) 1.27544(3) 1.37792(2)
Cd1A Cd -0.23592(3) 0.72456(3) 0.62208(2)
Cd1A_2 Cd 0.76408(3) 0.72456(3) 0.62208(2)
N4A N -0.0347(4) 0.1887(4) 0.3329(3)
N7_2 N 0.2528(4) 0.0318(4) 0.3127(3)
N11A N 0.5029(5) 0.3300(5) 0.4198(4)
loop_
_geom_bond_atom_site_label_1
_geom_bond_atom_site_label_2
_geom_bond_site_symmetry_1
_geom_bond_site_symmetry_2
Cd1 N1 1_555 1_555
N1 C1 1_555 1_555
N2 N3 1_555 1_555
N3 C1 1_555 1_555
N4 C10 1_555 1_555
N5 N6 1_555 1_555
N6 C11 1_555 1_555
N7 C13 1_555 1_555
N8 N9 1_555 1_555
N9 C13 1_555 1_555
N10 Cd1 1_555 1_555
N11 C17 1_555 1_555
S1 Cd1 1_555 1_555
S2 C16 1_555 1_555
C1 H1 1_555 1_555
C2 N1 1_555 1_555
H2 C2 1_555 1_555
C3 N2 1_555 1_555
H3 C3 1_555 1_555
H4 C3 1_555 1_555
C4 C3 1_555 1_555
C5 C4 1_555 1_555
H5 C5 1_555 1_555
C6 C5 1_555 1_555
C7 C6 1_555 1_555
H6 C7 1_555 1_555
C8 C7 1_555 1_555
C9 C4 1_555 1_555
H7 C9 1_555 1_555
C10 N5 1_555 1_555
H8 C10 1_555 1_555
C11 N4 1_555 1_555
H9 C11 1_555 1_555
C12 N6 1_555 1_555
H10 C12 1_555 1_555
H11 C12 1_555 1_555
C13 H12 1_555 1_555
C14 N7 1_555 1_555
H13 C14 1_555 1_555
C15 N9 1_555 1_555
H14 C15 1_555 1_555
H15 C15 1_555 1_555
C16 N10 1_555 1_555
C17 S1 1_555 1_555
Cd1_2 N7 1_555 1_555
Cd1A N4 1_555 1_555
Cd1A_2 N11 1_555 1_555
N4A Cd1 1_555 1_555
N7_2 Cd1 1_555 1_555
N11A Cd1 1_555 1_555
N2 C2 1_555 1_555
N8 C14 1_555 1_555
C6 C15 1_555 1_555
C8 C9 1_555 1_555
C8 C12 1_555 1_555

#END
