
#######################################################################
#
#                 Cambridge Crystallographic Data Centre
#                                CCDC 
#
#######################################################################
#
# If this CIF has been generated from an entry in the Cambridge 
# Structural Database, then it will include bibliographic, chemical, 
# crystal, experimental, refinement or atomic coordinate data resulting 
# from the CCDC's data processing and validation procedures.
#
#######################################################################

data_WOGNEM
_symmetry_cell_setting           monoclinic
_symmetry_space_group_name_H-M   'C 2/c'
_symmetry_Int_Tables_number      15
_space_group_name_Hall           '-C 2yn'
loop_
_symmetry_equiv_pos_site_id
_symmetry_equiv_pos_as_xyz
1 x,y,z
2 1/2+x,1/2+y,z
3 -x,y,1/2-z
4 1/2-x,1/2+y,1/2-z
5 -x,-y,-z
6 1/2-x,1/2-y,-z
7 x,-y,1/2+z
8 1/2+x,1/2-y,1/2+z
_cell_length_a                   10.6682(7)
_cell_length_b                   11.0490(7)
_cell_length_c                   22.6563(14)
_cell_angle_alpha                90
_cell_angle_beta                 101.401(1)
_cell_angle_gamma                90
_cell_volume                     2617.87
loop_
_atom_site_label
_atom_site_type_symbol
_atom_site_fract_x
_atom_site_fract_y
_atom_site_fract_z
Co1 Co 0.5000 0.64801(3) 0.2500
O1 O 0.60733(12) 0.64666(13) 0.18575(6)
O2 O 0.40351(13) 0.65638(14) 0.14327(6)
O3 O 0.30786(17) 0.7752(2) -0.06851(8)
H1 H 0.2523 0.7863 -0.0982
O4 O 0.39825(18) 0.6736(2) -0.13349(8)
O5 O 0.85792(15) 0.55679(17) -0.04477(7)
H2 H 0.9287 0.5390 -0.0439
O6 O 0.91135(16) 0.5199(2) 0.05406(8)
N1 N 0.5000 0.4678(2) 0.2500
N2 N 0.5000 -0.1726(2) 0.2500
C1 C 0.55508(19) 0.64578(18) 0.07857(9)
C2 C 0.67509(19) 0.60572(19) 0.07160(9)
H3 H 0.7360 0.5843 0.1053
C3 C 0.70461(19) 0.5975(2) 0.01464(10)
C4 C 0.6137(2) 0.6293(2) -0.03605(10)
H4 H 0.6326 0.6222 -0.0742
C5 C 0.4946(2) 0.6717(2) -0.02928(10)
C6 C 0.4664(2) 0.6797(2) 0.02785(10)
H5 H 0.3867 0.7084 0.0322
C7 C 0.51892(19) 0.65013(18) 0.13895(9)
C8 C 0.8332(2) 0.5551(2) 0.00808(10)
C9 C 0.3971(2) 0.7059(2) -0.08302(10)
C10 C 0.4034(2) 0.40519(19) 0.21766(10)
H6 H 0.3356 0.4477 0.1947
C11 C 0.3993(2) 0.28136(19) 0.21669(10)
H7 H 0.3295 0.2414 0.1938
C12 C 0.5000 0.2156(3) 0.2500
C13 C 0.5000 0.0812(3) 0.2500
C14 C 0.38822(19) 0.01470(19) 0.23157(10)
H8 H 0.3108 0.0547 0.2192
C15 C 0.3916(2) -0.1093(2) 0.23148(10)
H9 H 0.3158 -0.1514 0.2181
Co1_2 Co 0.5000 -0.35199(3) 0.2500
O1B O 0.39267(12) 0.64666(13) 0.31425(6)
O2B O 0.59649(13) 0.65638(14) 0.35673(6)
O3B O 0.69214(17) 0.7752(2) 0.56851(8)
H1B H 0.7477 0.7863 0.5982
O4B O 0.60175(18) 0.6736(2) 0.63349(8)
O5B O 0.14208(15) 0.55679(17) 0.54477(7)
H2B H 0.0713 0.5390 0.5439
O6B O 0.08865(16) 0.5199(2) 0.44594(8)
N2_2 N 0.5000 0.8274(2) 0.2500
C1B C 0.44492(19) 0.64578(18) 0.42143(9)
C2B C 0.32491(19) 0.60572(19) 0.42840(9)
H3B H 0.2640 0.5843 0.3947
C3B C 0.29539(19) 0.5975(2) 0.48536(10)
C4B C 0.3863(2) 0.6293(2) 0.53605(10)
H4B H 0.3674 0.6222 0.5742
C5B C 0.5054(2) 0.6717(2) 0.52928(10)
C6B C 0.5336(2) 0.6797(2) 0.47215(10)
H5B H 0.6133 0.7084 0.4678
C7B C 0.48108(19) 0.65013(18) 0.36105(9)
C8B C 0.1668(2) 0.5551(2) 0.49192(10)
C9B C 0.6029(2) 0.7059(2) 0.58302(10)
C10B C 0.5966(2) 0.40519(19) 0.28234(10)
H6B H 0.6644 0.4477 0.3053
C11B C 0.6007(2) 0.28136(19) 0.28331(10)
H7B H 0.6705 0.2414 0.3062
C14B C 0.61178(19) 0.01470(19) 0.26843(10)
H8B H 0.6892 0.0547 0.2808
C15B C 0.6084(2) -0.1093(2) 0.26852(10)
H9B H 0.6842 -0.1514 0.2819
loop_
_geom_bond_atom_site_label_1
_geom_bond_atom_site_label_2
_geom_bond_site_symmetry_1
_geom_bond_site_symmetry_2
Co1 O1 1_555 1_555
O1 C7 1_555 1_555
O2 Co1 1_555 1_555
O3 H1 1_555 1_555
O4 C9 1_555 1_555
O5 H2 1_555 1_555
O6 C8 1_555 1_555
N1 Co1 1_555 1_555
N2 C15 1_555 1_555
C1 C2 1_555 1_555
C2 H3 1_555 1_555
C3 C2 1_555 1_555
C4 C3 1_555 1_555
H4 C4 1_555 1_555
C5 C4 1_555 1_555
C6 C1 1_555 1_555
H5 C6 1_555 1_555
C7 O2 1_555 1_555
C8 O5 1_555 1_555
C9 O3 1_555 1_555
C10 N1 1_555 1_555
H6 C10 1_555 1_555
C11 C10 1_555 1_555
H7 C11 1_555 1_555
C12 C11 1_555 1_555
C13 C12 1_555 1_555
C14 C13 1_555 1_555
H8 C14 1_555 1_555
C15 C14 1_555 1_555
H9 C15 1_555 1_555
Co1_2 N2 1_555 1_555
O1B Co1 1_555 1_555
O2B Co1 1_555 1_555
O3B H1B 1_555 1_555
O4B C9B 1_555 1_555
O5B H2B 1_555 1_555
O6B C8B 1_555 1_555
N2_2 Co1 1_555 1_555
C1B C2B 1_555 1_555
C2B H3B 1_555 1_555
C3B C2B 1_555 1_555
C4B C3B 1_555 1_555
H4B C4B 1_555 1_555
C5B C4B 1_555 1_555
C6B C1B 1_555 1_555
H5B C6B 1_555 1_555
C7B O1B 1_555 1_555
C8B O5B 1_555 1_555
C9B O3B 1_555 1_555
C10B N1 1_555 1_555
H6B C10B 1_555 1_555
C11B C12 1_555 1_555
H7B C11B 1_555 1_555
C14B C13 1_555 1_555
H8B C14B 1_555 1_555
C15B N2 1_555 1_555
H9B C15B 1_555 1_555
C1 C7 1_555 1_555
C3 C8 1_555 1_555
C5 C6 1_555 1_555
C5 C9 1_555 1_555
O2B C7B 1_555 1_555
C1B C7B 1_555 1_555
C3B C8B 1_555 1_555
C5B C6B 1_555 1_555
C5B C9B 1_555 1_555
C10B C11B 1_555 1_555
C14B C15B 1_555 1_555

#END
