
#######################################################################
#
#                 Cambridge Crystallographic Data Centre
#                                CCDC 
#
#######################################################################
#
# If this CIF has been generated from an entry in the Cambridge 
# Structural Database, then it will include bibliographic, chemical, 
# crystal, experimental, refinement or atomic coordinate data resulting 
# from the CCDC's data processing and validation procedures.
#
#######################################################################

data_WOGQIU
_symmetry_cell_setting           monoclinic
_symmetry_space_group_name_H-M   'P 21/c'
_symmetry_Int_Tables_number      14
_space_group_name_Hall           '-P 2ybc'
loop_
_symmetry_equiv_pos_site_id
_symmetry_equiv_pos_as_xyz
1 x,y,z
2 -x,1/2+y,1/2-z
3 -x,-y,-z
4 x,1/2-y,1/2+z
_cell_length_a                   11.5083(9)
_cell_length_b                   8.6111(4)
_cell_length_c                   13.7574(11)
_cell_angle_alpha                90
_cell_angle_beta                 117.878(6)
_cell_angle_gamma                90
_cell_volume                     1205.12
loop_
_atom_site_label
_atom_site_type_symbol
_atom_site_fract_x
_atom_site_fract_y
_atom_site_fract_z
C1 C 0.6238(4) 0.5505(5) 0.8516(4)
C2 C 0.5454(5) 0.4708(6) 0.7582(4)
H1 H 0.5824 0.4233 0.7185
C3 C 0.4100(5) 0.4596(6) 0.7211(4)
H2 H 0.3578 0.4040 0.6574
C4 C 0.3538(4) 0.5300(5) 0.7780(4)
C5 C 0.4312(4) 0.6183(5) 0.8738(4)
C6 C 0.3753(5) 0.7006(6) 0.9311(5)
H3 H 0.2850 0.6967 0.9060
C7 C 0.4518(6) 0.7847(7) 1.0219(5)
H4 H 0.4133 0.8378 1.0583
C8 C 0.5875(6) 0.7928(7) 1.0617(5)
H5 H 0.6385 0.8514 1.1241
C9 C 0.6457(5) 0.7157(6) 1.0097(4)
H6 H 0.7366 0.7203 1.0383
C10 C 0.5703(4) 0.6281(5) 0.9126(4)
N1 N 0.2154(4) 0.5145(5) 0.7386(4)
H7 H 0.2019 0.5161 0.7980
H8 H 0.1931 0.4188 0.7093
Cl1 Cl -0.11470(12) 0.44244(15) 0.55004(11)
O1 O 0.8373(3) 0.7136(4) 0.9049(4)
O2 O 0.8139(3) 0.4724(5) 0.8090(3)
O3 O 0.8618(3) 0.4714(5) 0.9999(3)
S1 S 0.79551(11) 0.55160(14) 0.89484(11)
Pb1 Pb 0.042875(17) 0.71223(2) 0.592380(15)
O4 O -0.0244(6) 0.6989(7) 0.7502(5)
H9 H -0.088(5) 0.659(8) 0.753(5)
H10 H 0.014(6) 0.753(7) 0.805(4)
Cl1B Cl 0.11470(12) 0.55756(15) 0.44996(11)
O1C O -0.1627(3) 0.7864(4) 0.4049(4)
O2A O 0.1861(3) 0.9724(5) 0.6910(3)
Pb1A Pb 0.957125(17) 0.21223(2) 0.907620(15)
Pb1B Pb -0.042875(17) 0.28777(2) 0.407620(15)
Pb1C Pb 1.042875(17) 0.78777(2) 1.092380(15)
loop_
_geom_bond_atom_site_label_1
_geom_bond_atom_site_label_2
_geom_bond_site_symmetry_1
_geom_bond_site_symmetry_2
C1 C2 1_555 1_555
C2 H1 1_555 1_555
C3 C2 1_555 1_555
H2 C3 1_555 1_555
C4 C3 1_555 1_555
C5 C4 1_555 1_555
C6 C5 1_555 1_555
H3 C6 1_555 1_555
C7 C6 1_555 1_555
H4 C7 1_555 1_555
C8 C7 1_555 1_555
H5 C8 1_555 1_555
C9 C8 1_555 1_555
H6 C9 1_555 1_555
C10 C1 1_555 1_555
N1 C4 1_555 1_555
H7 N1 1_555 1_555
H8 N1 1_555 1_555
Cl1 Pb1 1_555 1_555
O1 S1 1_555 1_555
O2 S1 1_555 1_555
O3 S1 1_555 1_555
S1 C1 1_555 1_555
Pb1 N1 1_555 1_555
O4 Pb1 1_555 1_555
H9 O4 1_555 1_555
H10 O4 1_555 1_555
Cl1B Pb1 1_555 1_555
O1C Pb1 1_555 1_555
O2A Pb1 1_555 1_555
Pb1A O2 1_555 1_555
Pb1B Cl1 1_555 1_555
Pb1C O1 1_555 1_555
C5 C10 1_555 1_555
C9 C10 1_555 1_555
Cl1B Pb1B 1_555 1_555

#END
