
#######################################################################
#
#                 Cambridge Crystallographic Data Centre
#                                CCDC 
#
#######################################################################
#
# If this CIF has been generated from an entry in the Cambridge 
# Structural Database, then it will include bibliographic, chemical, 
# crystal, experimental, refinement or atomic coordinate data resulting 
# from the CCDC's data processing and validation procedures.
#
#######################################################################

data_WOGRIU
_symmetry_cell_setting           orthorhombic
_symmetry_space_group_name_H-M   'P b c a'
_symmetry_Int_Tables_number      61
_space_group_name_Hall           '-P 2ac 2ab'
loop_
_symmetry_equiv_pos_site_id
_symmetry_equiv_pos_as_xyz
1 x,y,z
2 1/2-x,-y,1/2+z
3 -x,1/2+y,1/2-z
4 1/2+x,1/2-y,-z
5 -x,-y,-z
6 1/2+x,y,1/2-z
7 x,1/2-y,1/2+z
8 1/2-x,1/2+y,z
_cell_length_a                   11.4340(4)
_cell_length_b                   12.2530(5)
_cell_length_c                   15.3806(6)
_cell_angle_alpha                90
_cell_angle_beta                 90
_cell_angle_gamma                90
_cell_volume                     2154.83
loop_
_atom_site_label
_atom_site_type_symbol
_atom_site_fract_x
_atom_site_fract_y
_atom_site_fract_z
Cu1 Cu 0.44386(3) 0.58247(3) 0.28065(2)
N1 N 0.42996(19) 0.45592(18) 0.37017(14)
N2 N 0.4249(2) 0.01317(17) 0.66651(14)
C1 C 0.3680(2) 0.4601(2) 0.44384(17)
H1 H 0.3252 0.5247 0.4561
C2 C 0.3631(2) 0.3757(2) 0.50299(17)
H2 H 0.3176 0.3825 0.5544
C3 C 0.4252(2) 0.2806(2) 0.48664(16)
C4 C 0.4902(2) 0.2762(2) 0.41074(17)
H3 H 0.5350 0.2132 0.3972
C5 C 0.4892(2) 0.3641(2) 0.35506(17)
H4 H 0.5332 0.3591 0.3028
C6 C 0.4236(2) 0.18673(19) 0.54777(15)
C7 C 0.3241(2) 0.1573(2) 0.59312(19)
H5 H 0.2532 0.1963 0.5845
C8 C 0.3280(2) 0.0711(2) 0.65107(18)
H6 H 0.2585 0.0521 0.6813
C9 C 0.5207(2) 0.0408(2) 0.62150(17)
H7 H 0.5902 -0.0001 0.6308
C10 C 0.5238(2) 0.1255(2) 0.56241(17)
H8 H 0.5939 0.1417 0.5320
N3 N 0.6066(2) 0.6321(2) 0.26898(16)
C11 C 0.6915(2) 0.6652(2) 0.23866(16)
S1 S 0.81061(6) 0.71667(6) 0.19394(5)
Cu1F Cu 0.44386(3) -0.08247(3) 0.78065(2)
Cu1E Cu 0.94386(3) 0.58247(3) 0.21935(2)
N2F N 0.4249(2) 0.48683(17) 0.16651(14)
S1E S 0.31061(6) 0.71667(6) 0.30606(5)
loop_
_geom_bond_atom_site_label_1
_geom_bond_atom_site_label_2
_geom_bond_site_symmetry_1
_geom_bond_site_symmetry_2
Cu1 N1 1_555 1_555
N1 C1 1_555 1_555
N2 C8 1_555 1_555
C1 H1 1_555 1_555
C2 C1 1_555 1_555
H2 C2 1_555 1_555
C3 C2 1_555 1_555
C4 C3 1_555 1_555
H3 C4 1_555 1_555
C5 N1 1_555 1_555
H4 C5 1_555 1_555
C6 C3 1_555 1_555
C7 C6 1_555 1_555
H5 C7 1_555 1_555
C8 C7 1_555 1_555
H6 C8 1_555 1_555
C9 N2 1_555 1_555
H7 C9 1_555 1_555
C10 C6 1_555 1_555
H8 C10 1_555 1_555
N3 Cu1 1_555 1_555
C11 N3 1_555 1_555
S1 C11 1_555 1_555
Cu1F N2 1_555 1_555
Cu1E S1 1_555 1_555
N2F Cu1 1_555 1_555
S1E Cu1 1_555 1_555
C4 C5 1_555 1_555
C9 C10 1_555 1_555

#END
