
#######################################################################
#
#                 Cambridge Crystallographic Data Centre
#                                CCDC 
#
#######################################################################
#
# If this CIF has been generated from an entry in the Cambridge 
# Structural Database, then it will include bibliographic, chemical, 
# crystal, experimental, refinement or atomic coordinate data resulting 
# from the CCDC's data processing and validation procedures.
#
#######################################################################

data_WOGRER
_symmetry_cell_setting           monoclinic
_symmetry_space_group_name_H-M   'P 21/n'
_symmetry_Int_Tables_number      14
_space_group_name_Hall           '-P 2yn'
loop_
_symmetry_equiv_pos_site_id
_symmetry_equiv_pos_as_xyz
1 x,y,z
2 1/2-x,1/2+y,1/2-z
3 -x,-y,-z
4 1/2+x,1/2-y,1/2+z
_cell_length_a                   11.9966(15)
_cell_length_b                   15.440(2)
_cell_length_c                   16.491(2)
_cell_angle_alpha                90
_cell_angle_beta                 100.541(2)
_cell_angle_gamma                90
_cell_volume                     3003.04
loop_
_atom_site_label
_atom_site_type_symbol
_atom_site_fract_x
_atom_site_fract_y
_atom_site_fract_z
Mn1 Mn 0.94496(9) 0.42839(8) 0.40217(8)
N1 N 1.1349(5) 0.4025(4) 0.4142(4)
N2 N 0.9886(5) 0.4424(5) 0.2733(4)
N3 N 1.3037(6) 0.3919(5) 0.1235(5)
N4 N 1.4234(5) 0.3619(4) 0.2400(4)
H1 H 1.4856 0.3494 0.2729
O1 O 0.7821(4) 0.4809(4) 0.3488(4)
O2 O 0.0414(6) 0.6582(5) 0.0702(4)
O3 O -0.0520(5) 0.7343(5) 0.1514(4)
O4 O 0.0078(5) 0.5668(4) 0.4391(4)
O5 O 0.1612(5) 0.6282(4) 0.5063(4)
C1 C 1.2047(7) 0.3851(5) 0.4843(6)
H2 H 1.1767 0.3860 0.5333
C2 C 1.3186(7) 0.3653(6) 0.4868(5)
H3 H 1.3656 0.3535 0.5370
C3 C 1.3605(7) 0.3634(5) 0.4166(5)
H4 H 1.4370 0.3519 0.4183
C4 C 1.2892(6) 0.3787(5) 0.3408(5)
C5 C 1.3197(6) 0.3778(5) 0.2623(5)
C6 C 1.2474(7) 0.3962(6) 0.1890(5)
C7 C 1.1313(7) 0.4180(6) 0.1896(6)
C8 C 1.0520(7) 0.4389(7) 0.1178(6)
H5 H 1.0727 0.4398 0.0662
C9 C 0.9423(8) 0.4580(8) 0.1272(7)
H6 H 0.8870 0.4699 0.0812
C10 C 0.9157(7) 0.4593(7) 0.2040(6)
H7 H 0.8415 0.4729 0.2084
C11 C 1.0966(7) 0.4197(5) 0.2666(5)
C12 C 1.1736(6) 0.3995(5) 0.3429(5)
C13 C 1.4092(7) 0.3694(6) 0.1577(6)
C14 C 1.5036(8) 0.3580(6) 0.1128(6)
C15 C 1.4940(10) 0.3864(8) 0.0325(7)
H8 H 1.4263 0.4112 0.0063
C16 C 1.5827(11) 0.3788(9) -0.0095(8)
H9 H 1.5750 0.3982 -0.0636
C17 C 1.6821(10) 0.3425(8) 0.0291(8)
H10 H 1.7427 0.3383 0.0014
C18 C 1.6934(9) 0.3127(8) 0.1073(8)
H11 H 1.7611 0.2872 0.1327
C19 C 1.6047(8) 0.3200(7) 0.1489(7)
H12 H 1.6129 0.2990 0.2026
C20 C 0.6778(7) 0.4735(5) 0.3465(5)
C21 C 0.6054(6) 0.5469(5) 0.3099(5)
C22 C 0.6480(7) 0.6080(6) 0.2624(6)
H13 H 0.7235 0.6055 0.2565
C23 C 0.5779(7) 0.6732(6) 0.2234(6)
C24 C 0.4654(6) 0.6771(5) 0.2328(5)
H14 H 0.4193 0.7213 0.2072
C25 C 0.4202(6) 0.6161(5) 0.2798(5)
C26 C 0.4910(6) 0.5517(5) 0.3193(5)
H15 H 0.4627 0.5114 0.3522
C27 C 0.2977(6) 0.6217(5) 0.2847(5)
C28 C 0.2188(6) 0.6416(5) 0.2138(5)
H16 H 0.2439 0.6485 0.1641
C29 C 0.1040(6) 0.6515(5) 0.2150(5)
C30 C 0.0671(6) 0.6391(5) 0.2886(5)
H17 H -0.0096 0.6451 0.2903
C31 C 0.1425(6) 0.6178(5) 0.3599(5)
C32 C 0.2592(6) 0.6111(5) 0.3578(5)
H18 H 0.3105 0.5994 0.4061
C33 C 0.0248(7) 0.6811(6) 0.1384(5)
C34 C 0.1011(7) 0.6046(6) 0.4390(6)
C35 C 0.6211(7) 0.7392(7) 0.1702(6)
O6 O 0.5575(6) 0.7946(4) 0.1359(5)
O7 O 0.7214(6) 0.7329(6) 0.1638(5)
O8 O 0.6302(5) 0.4091(4) 0.3735(4)
Mn2 Mn 0.70053(12) 0.29225(10) 0.42175(9)
O9 O 0.6520(6) 0.2278(5) 0.5173(4)
Mn1_2 Mn -0.05504(9) 0.42839(8) 0.40217(8)
Mn1A Mn 0.55504(9) 0.92839(8) 0.09783(8)
Mn1B Mn 0.05504(9) 0.57161(8) 0.59783(8)
O3A O 0.5520(5) 0.2343(5) 0.3486(4)
O4_2 O 1.0078(5) 0.5668(4) 0.4391(4)
O5B O 0.8388(5) 0.3718(4) 0.4937(4)
O6A O 0.9425(6) 0.2946(4) 0.3641(5)
O7A O 0.7786(6) 0.2329(6) 0.3362(5)
Mn2A Mn -0.20053(12) 0.79225(10) 0.07825(9)
Mn2A_2 Mn 0.79947(12) 0.79225(10) 0.07825(9)
Mn2B Mn 0.29947(12) 0.70775(10) 0.57825(9)
loop_
_geom_bond_atom_site_label_1
_geom_bond_atom_site_label_2
_geom_bond_site_symmetry_1
_geom_bond_site_symmetry_2
Mn1 N1 1_555 1_555
N1 C1 1_555 1_555
N2 Mn1 1_555 1_555
N3 C6 1_555 1_555
N4 H1 1_555 1_555
O1 Mn1 1_555 1_555
O2 C33 1_555 1_555
O3 C33 1_555 1_555
O4 C34 1_555 1_555
O5 C34 1_555 1_555
C1 H2 1_555 1_555
C2 C1 1_555 1_555
H3 C2 1_555 1_555
C3 C2 1_555 1_555
H4 C3 1_555 1_555
C4 C3 1_555 1_555
C5 N4 1_555 1_555
C6 C5 1_555 1_555
C7 C6 1_555 1_555
C8 C7 1_555 1_555
H5 C8 1_555 1_555
C9 C8 1_555 1_555
H6 C9 1_555 1_555
C10 N2 1_555 1_555
H7 C10 1_555 1_555
C11 N2 1_555 1_555
C12 N1 1_555 1_555
C13 N3 1_555 1_555
C14 C13 1_555 1_555
C15 C14 1_555 1_555
H8 C15 1_555 1_555
C16 C15 1_555 1_555
H9 C16 1_555 1_555
C17 C16 1_555 1_555
H10 C17 1_555 1_555
C18 C17 1_555 1_555
H11 C18 1_555 1_555
C19 C14 1_555 1_555
H12 C19 1_555 1_555
C20 O1 1_555 1_555
C21 C20 1_555 1_555
C22 C21 1_555 1_555
H13 C22 1_555 1_555
C23 C22 1_555 1_555
C24 C23 1_555 1_555
H14 C24 1_555 1_555
C25 C24 1_555 1_555
C26 C21 1_555 1_555
H15 C26 1_555 1_555
C27 C25 1_555 1_555
C28 C27 1_555 1_555
H16 C28 1_555 1_555
C29 C28 1_555 1_555
C30 C29 1_555 1_555
H17 C30 1_555 1_555
C31 C30 1_555 1_555
C32 C27 1_555 1_555
H18 C32 1_555 1_555
C33 C29 1_555 1_555
C34 C31 1_555 1_555
C35 C23 1_555 1_555
O6 C35 1_555 1_555
O7 C35 1_555 1_555
O8 C20 1_555 1_555
Mn2 O8 1_555 1_555
O9 Mn2 1_555 1_555
Mn1_2 O4 1_555 1_555
Mn1A O6 1_555 1_555
Mn1B O5 1_555 1_555
O3A Mn2 1_555 1_555
O4_2 Mn1 1_555 1_555
O5B Mn1 1_555 1_555
O6A Mn1 1_555 1_555
O7A Mn2 1_555 1_555
Mn2A O3 1_555 1_555
Mn2A_2 O7 1_555 1_555
Mn2B O5 1_555 1_555
N4 C13 1_555 1_555
C4 C5 1_555 1_555
C4 C12 1_555 1_555
C7 C11 1_555 1_555
C9 C10 1_555 1_555
C11 C12 1_555 1_555
C18 C19 1_555 1_555
C25 C26 1_555 1_555
C31 C32 1_555 1_555
Mn2 O5B 1_555 1_555

#END
