
#######################################################################
#
#                 Cambridge Crystallographic Data Centre
#                                CCDC 
#
#######################################################################
#
# If this CIF has been generated from an entry in the Cambridge 
# Structural Database, then it will include bibliographic, chemical, 
# crystal, experimental, refinement or atomic coordinate data resulting 
# from the CCDC's data processing and validation procedures.
#
#######################################################################

data_WOGSEQ
_symmetry_cell_setting           orthorhombic
_symmetry_space_group_name_H-M   'A m a 2'
_symmetry_Int_Tables_number      40
_space_group_name_Hall           'A 2 -2a'
loop_
_symmetry_equiv_pos_site_id
_symmetry_equiv_pos_as_xyz
1 x,y,z
2 -x,-y,z
3 1/2+x,-y,z
4 1/2-x,y,z
5 x,1/2+y,1/2+z
6 -x,1/2-y,1/2+z
7 1/2+x,1/2-y,1/2+z
8 1/2-x,1/2+y,1/2+z
_cell_length_a                   7.1884(3)
_cell_length_b                   17.6983(7)
_cell_length_c                   5.7395(3)
_cell_angle_alpha                90
_cell_angle_beta                 90
_cell_angle_gamma                90
_cell_volume                     730.193
loop_
_atom_site_label
_atom_site_type_symbol
_atom_site_fract_x
_atom_site_fract_y
_atom_site_fract_z
Cu1 Cu 0.2500 0.135570(19) 0.0000
N1 N 0.0502(3) 0.17945(12) 0.1951(4)
N2 N -0.2500 0.23708(17) 0.2870(6)
N3 N 0.2500 0.0174(2) 0.2016(7)
N4 N 0.5499(3) -0.10116(12) 0.7853(4)
C1 C -0.0935(3) 0.20438(12) 0.2315(4)
C2 C 0.2500 -0.0196(3) 0.3761(9)
C3 C 0.2500 -0.0669(2) 0.5846(6)
C4 C 0.0858(3) -0.08556(13) 0.6942(5)
N1C N 0.4498(3) 0.17945(12) 0.1951(4)
N4A N 0.4501(3) 0.10116(12) -0.2147(4)
N2E N 0.2500 0.26292(17) -0.2130(6)
C4C C 0.4142(3) -0.08556(13) 0.6942(5)
N4B N 0.0499(3) 0.10116(12) -0.2147(4)
N4C N -0.0499(3) -0.10116(12) 0.7853(4)
Cu1E Cu -0.2500 0.364430(19) 0.5000
C1C C -0.4065(3) 0.20438(12) 0.2315(4)
Cu1A Cu 0.7500 -0.135570(19) 1.0000
Cu1A_2 Cu -0.2500 -0.135570(19) 1.0000
N1C_2 N -0.5502(3) 0.17945(12) 0.1951(4)
Cu1_2 Cu -0.7500 0.135570(19) 0.0000
loop_
_geom_bond_atom_site_label_1
_geom_bond_atom_site_label_2
_geom_bond_site_symmetry_1
_geom_bond_site_symmetry_2
Cu1 N1 1_555 1_555
N1 C1 1_555 1_555
N2 C1 1_555 1_555
N3 Cu1 1_555 1_555
N4 C4C 1_555 1_555
C2 N3 1_555 1_555
C3 C2 1_555 1_555
C4 C3 1_555 1_555
N1C Cu1 1_555 1_555
N4A Cu1 1_555 1_555
N2E Cu1 1_555 1_555
C4C C3 1_555 1_555
N4B Cu1 1_555 1_555
N4C C4 1_555 1_555
Cu1E N2 1_555 1_555
C1C N2 1_555 1_555
Cu1A N4 1_555 1_555
Cu1A_2 N4C 1_555 1_555
N1C_2 C1C 1_555 1_555
Cu1_2 N1C_2 1_555 1_555

#END
