
#######################################################################
#
#                 Cambridge Crystallographic Data Centre
#                                CCDC 
#
#######################################################################
#
# If this CIF has been generated from an entry in the Cambridge 
# Structural Database, then it will include bibliographic, chemical, 
# crystal, experimental, refinement or atomic coordinate data resulting 
# from the CCDC's data processing and validation procedures.
#
#######################################################################

data_WOGSEQ01
_symmetry_cell_setting           orthorhombic
_symmetry_space_group_name_H-M   'A m a 2'
_symmetry_Int_Tables_number      40
_space_group_name_Hall           'A 2 -2a'
loop_
_symmetry_equiv_pos_site_id
_symmetry_equiv_pos_as_xyz
1 x,y,z
2 -x,-y,z
3 1/2+x,-y,z
4 1/2-x,y,z
5 x,1/2+y,1/2+z
6 -x,1/2-y,1/2+z
7 1/2+x,1/2-y,1/2+z
8 1/2-x,1/2+y,1/2+z
_cell_length_a                   7.2041(3)
_cell_length_b                   17.4837(6)
_cell_length_c                   5.7281(2)
_cell_angle_alpha                90
_cell_angle_beta                 90
_cell_angle_gamma                90
_cell_volume                     721.479
loop_
_atom_site_label
_atom_site_type_symbol
_atom_site_fract_x
_atom_site_fract_y
_atom_site_fract_z
Cu1 Cu 0.2500 0.135166(19) 0.0000
N1 N 0.0504(3) 0.17886(11) 0.1974(4)
N2 N -0.2500 0.23783(16) 0.2899(6)
N3 N 0.2500 0.01615(19) 0.1942(7)
N4 N 0.5501(3) -0.10111(11) 0.7835(4)
C1 C -0.0937(3) 0.20435(12) 0.2356(4)
C2 C 0.2500 -0.0198(3) 0.3701(8)
C3 C 0.2500 -0.06682(19) 0.5810(6)
C4 C 0.0862(3) -0.08543(12) 0.6914(4)
N1C N 0.4496(3) 0.17886(11) 0.1974(4)
N4A N 0.4499(3) 0.10111(11) -0.2165(4)
N2E N 0.2500 0.26217(16) -0.2101(6)
C4C C 0.4138(3) -0.08543(12) 0.6914(4)
N4B N 0.0501(3) 0.10111(11) -0.2165(4)
N4C N -0.0501(3) -0.10111(11) 0.7835(4)
Cu1A Cu 0.7500 -0.135166(19) 1.0000
Cu1A_2 Cu -0.2500 -0.135166(19) 1.0000
Cu1E Cu -0.2500 0.364834(19) 0.5000
C1C C -0.4063(3) 0.20435(12) 0.2356(4)
N1C_2 N -0.5504(3) 0.17886(11) 0.1974(4)
Cu1_2 Cu -0.7500 0.135166(19) 0.0000
loop_
_geom_bond_atom_site_label_1
_geom_bond_atom_site_label_2
_geom_bond_site_symmetry_1
_geom_bond_site_symmetry_2
Cu1 N1 1_555 1_555
N1 C1 1_555 1_555
N2 C1 1_555 1_555
N3 Cu1 1_555 1_555
N4 C4C 1_555 1_555
C2 N3 1_555 1_555
C3 C2 1_555 1_555
C4 C3 1_555 1_555
N1C Cu1 1_555 1_555
N4A Cu1 1_555 1_555
N2E Cu1 1_555 1_555
C4C C3 1_555 1_555
N4B Cu1 1_555 1_555
N4C C4 1_555 1_555
Cu1A N4 1_555 1_555
Cu1A_2 N4C 1_555 1_555
Cu1E N2 1_555 1_555
C1C N2 1_555 1_555
N1C_2 C1C 1_555 1_555
Cu1_2 N1C_2 1_555 1_555

#END
