
#######################################################################
#
#                 Cambridge Crystallographic Data Centre
#                                CCDC 
#
#######################################################################
#
# If this CIF has been generated from an entry in the Cambridge 
# Structural Database, then it will include bibliographic, chemical, 
# crystal, experimental, refinement or atomic coordinate data resulting 
# from the CCDC's data processing and validation procedures.
#
#######################################################################

data_WOHDON
_symmetry_cell_setting           orthorhombic
_symmetry_space_group_name_H-M   'P 21 21 21'
_symmetry_Int_Tables_number      19
_space_group_name_Hall           'P 2ac 2ab'
loop_
_symmetry_equiv_pos_site_id
_symmetry_equiv_pos_as_xyz
1 x,y,z
2 1/2-x,-y,1/2+z
3 -x,1/2+y,1/2-z
4 1/2+x,1/2-y,-z
_cell_length_a                   8.4085(17)
_cell_length_b                   9.807(2)
_cell_length_c                   21.019(4)
_cell_angle_alpha                90
_cell_angle_beta                 90
_cell_angle_gamma                90
_cell_volume                     1733.27
loop_
_atom_site_label
_atom_site_type_symbol
_atom_site_fract_x
_atom_site_fract_y
_atom_site_fract_z
Cd1 Cd -0.00436(2) -0.392500(19) 0.283060(9)
Cd2 Cd -0.19393(2) 0.16251(2) 0.477369(9)
S1 S -0.36856(8) -0.23962(7) 0.29278(3)
O1 O 0.0460(3) -0.1037(2) 0.25775(9)
O2 O 0.1017(3) -0.2275(2) 0.34239(10)
O3 O 0.1128(2) 0.13029(19) 0.32196(9)
H1 H 0.185(3) 0.182(3) 0.3135(16)
O4 O -0.0510(2) -0.0122(2) 0.42373(10)
H2 H -0.066(4) -0.0940(12) 0.4210(17)
O5 O 0.0787(2) 0.1984(2) 0.48292(10)
O6 O 0.3216(2) 0.1428(2) 0.45649(11)
O7 O -0.1887(3) 0.2746(2) 0.38224(10)
H3 H -0.152(4) 0.216(3) 0.3567(13)
H4 H -0.266(3) 0.317(3) 0.3658(14)
O8 O -0.3901(3) 0.0220(3) 0.44213(12)
H5 H -0.387(4) -0.034(3) 0.4118(14)
H6 H -0.483(2) 0.058(4) 0.4436(17)
O9 O -0.1848(3) 0.0328(2) 0.56779(11)
H7 H -0.148(4) -0.0456(19) 0.5574(17)
H8 H -0.114(3) 0.071(3) 0.5910(16)
O10 O 0.2352(3) -0.3880(2) 0.23136(11)
H9 H 0.250(4) -0.466(2) 0.2151(16)
H10 H 0.312(3) -0.370(3) 0.2559(14)
O11 O 0.0107(3) -0.5027(2) 0.38044(11)
H11 H -0.037(3) -0.578(2) 0.3832(18)
H12 H 0.102(2) -0.508(3) 0.3952(18)
O12 O -0.2647(3) -0.3539(3) 0.31247(10)
O13 O -0.3470(3) -0.2163(3) 0.22377(10)
O14 O -0.5327(3) -0.2751(3) 0.30734(12)
O15 O -0.3252(4) -0.1169(2) 0.32792(11)
C1 C 0.0989(3) -0.1170(3) 0.31292(12)
C2 C 0.1666(3) 0.0063(3) 0.34882(12)
H13 H 0.2830 0.0035 0.3463
C3 C 0.1169(3) -0.0030(3) 0.41887(12)
H14 H 0.1644 -0.0849 0.4377
C4 C 0.1743(3) 0.1209(3) 0.45506(12)
Cd1B Cd 0.00436(2) 0.107500(19) 0.216940(9)
Cd2C Cd 0.30607(2) 0.33749(2) 0.522631(9)
O1B O -0.0460(3) -0.6037(2) 0.24225(9)
O3B O -0.1128(2) -0.36971(19) 0.17804(9)
H1B H -0.185(3) -0.318(3) 0.1865(16)
O5C O -0.4213(2) 0.3016(2) 0.51708(10)
O6C O -0.1784(2) 0.3572(2) 0.54351(11)
O16 O 0.6676(4) 0.2865(4) -0.04876(14)
O17 O -0.4451(3) 0.4128(3) 0.34899(11)
O18 O 0.5244(4) 0.2053(3) 0.05985(13)
loop_
_geom_bond_atom_site_label_1
_geom_bond_atom_site_label_2
_geom_bond_site_symmetry_1
_geom_bond_site_symmetry_2
Cd1 O2 1_555 1_555
Cd2 O4 1_555 1_555
S1 O12 1_555 1_555
O1 C1 1_555 1_555
O2 C1 1_555 1_555
O3 H1 1_555 1_555
O4 H2 1_555 1_555
O5 Cd2 1_555 1_555
O6 C4 1_555 1_555
O7 Cd2 1_555 1_555
H3 O7 1_555 1_555
H4 O7 1_555 1_555
O8 Cd2 1_555 1_555
H5 O8 1_555 1_555
H6 O8 1_555 1_555
O9 Cd2 1_555 1_555
H7 O9 1_555 1_555
H8 O9 1_555 1_555
O10 Cd1 1_555 1_555
H9 O10 1_555 1_555
H10 O10 1_555 1_555
O11 Cd1 1_555 1_555
H11 O11 1_555 1_555
H12 O11 1_555 1_555
O12 Cd1 1_555 1_555
O13 S1 1_555 1_555
O14 S1 1_555 1_555
O15 S1 1_555 1_555
C1 C2 1_555 1_555
C2 O3 1_555 1_555
H13 C2 1_555 1_555
C3 O4 1_555 1_555
H14 C3 1_555 1_555
C4 O5 1_555 1_555
Cd1B O1 1_555 1_555
Cd2C O5 1_555 1_555
O1B Cd1 1_555 1_555
O3B Cd1 1_555 1_555
H1B O3B 1_555 1_555
O5C Cd2 1_555 1_555
O6C Cd2 1_555 1_555
O3 Cd1B 1_555 1_555
O6 Cd2C 1_555 1_555
C2 C3 1_555 1_555
C3 C4 1_555 1_555

#END
