
#######################################################################
#
#                 Cambridge Crystallographic Data Centre
#                                CCDC 
#
#######################################################################
#
# If this CIF has been generated from an entry in the Cambridge 
# Structural Database, then it will include bibliographic, chemical, 
# crystal, experimental, refinement or atomic coordinate data resulting 
# from the CCDC's data processing and validation procedures.
#
#######################################################################

data_WOHDUU
_symmetry_cell_setting           monoclinic
_symmetry_space_group_name_H-M   'P 21/n'
_symmetry_Int_Tables_number      14
_space_group_name_Hall           '-P 2yn'
loop_
_symmetry_equiv_pos_site_id
_symmetry_equiv_pos_as_xyz
1 x,y,z
2 1/2-x,1/2+y,1/2-z
3 -x,-y,-z
4 1/2+x,1/2-y,1/2+z
_cell_length_a                   8.9175(9)
_cell_length_b                   14.6167(14)
_cell_length_c                   21.666(2)
_cell_angle_alpha                90
_cell_angle_beta                 91.163(2)
_cell_angle_gamma                90
_cell_volume                     2823.46
loop_
_atom_site_label
_atom_site_type_symbol
_atom_site_fract_x
_atom_site_fract_y
_atom_site_fract_z
Y1 Y 0.24125(4) 0.26334(2) 0.15544(2)
Y2 Y 0.75843(4) 0.50183(2) 0.26595(2)
O1 O 0.4261(3) 0.36712(17) 0.20078(12)
O2 O 0.5446(3) 0.50252(17) 0.20267(12)
O3 O 0.0532(3) 0.29386(17) 0.07681(12)
O4 O 0.0077(4) 0.35875(19) -0.01503(12)
O5 O 0.3740(3) 0.62267(18) -0.01320(12)
H1 H 0.435 0.657 0.0024
O6 O 0.0582(3) 0.14910(17) 0.17897(12)
O7 O -0.0645(3) 0.01788(17) 0.16116(12)
O8 O 0.4284(3) 0.25594(17) 0.07743(12)
O9 O 0.4600(3) 0.23169(18) -0.02329(12)
O10 O 0.2320(3) -0.09825(18) -0.02747(12)
H2 H 0.223 -0.148 0.000
O11 O 0.4133(3) 0.15334(18) 0.19397(11)
O12 O 0.5378(3) 0.08381(17) 0.27151(11)
O13 O 0.0693(3) 0.35574(17) 0.20900(11)
O14 O -0.0364(3) 0.40723(17) 0.29523(11)
O15 O 0.3288(3) 0.26227(18) 0.45574(12)
H3 H 0.4031 0.2156 0.4657
O16 O 0.6839(3) 0.65940(17) 0.25287(12)
H4 H 0.6032 0.6676 0.2671
H5 H 0.7319 0.6812 0.2861
O17 O 0.6674(3) 0.35296(18) 0.27911(13)
H6 H 0.5837 0.3424 0.265
H7 H 0.6746 0.3195 0.3107
O18 O 0.8656(3) 0.55997(17) 0.35817(11)
H8 H 0.9545 0.598 0.3531
H9 H 0.8385 0.5851 0.3906
O19 O 0.8227(3) 0.44247(18) 0.16797(12)
H10 H 0.7737 0.399 0.1555
H11 H 0.9174 0.422 0.1807
N1 N 0.2649(4) 0.4125(2) 0.10404(14)
N2 N 0.2252(4) 0.1302(2) 0.08387(13)
N3 N 0.2480(3) 0.2482(2) 0.26814(14)
C1 C 0.3728(4) 0.4714(3) 0.12049(17)
C2 C 0.4121(5) 0.5454(3) 0.08442(17)
H12 H 0.4853 0.5882 0.0986
C3 C 0.3415(5) 0.5558(2) 0.02675(17)
C4 C 0.2311(5) 0.4928(3) 0.00898(17)
H13 H 0.1817 0.4975 -0.0302
C5 C 0.1951(5) 0.4239(2) 0.04928(17)
C6 C 0.4540(4) 0.4464(2) 0.17961(16)
C7 C 0.0754(5) 0.3538(3) 0.03547(18)
C8 C 0.1328(4) 0.0603(2) 0.09455(16)
C9 C 0.1285(4) -0.0178(2) 0.05872(17)
H14 H 0.0634 -0.0671 0.0682
C10 C 0.2231(5) -0.0222(2) 0.00797(17)
C11 C 0.3107(4) 0.0534(2) -0.00628(17)
H15 H 0.3691 0.0544 -0.0425
C12 C 0.3105(4) 0.1272(2) 0.03377(16)
C13 C 0.0331(4) 0.0757(2) 0.14926(16)
C14 C 0.4075(4) 0.2116(2) 0.02790(17)
C15 C 0.3521(4) 0.1940(2) 0.29545(16)
C16 C 0.3817(4) 0.1943(2) 0.35790(16)
H16 H 0.455 0.1546 0.3757
C17 C 0.3006(4) 0.2548(2) 0.39459(17)
C18 C 0.1879(4) 0.3081(2) 0.36713(17)
H17 H 0.1274 0.3473 0.3912
C19 C 0.1667(4) 0.3021(2) 0.30361(16)
C20 C 0.4416(4) 0.1384(2) 0.25071(17)
C21 C 0.0565(4) 0.3601(2) 0.26704(17)
Y2_2 Y -0.24157(4) 0.50183(2) 0.26595(2)
Y2A Y -0.25843(4) 0.00183(2) 0.23405(2)
Y2A_2 Y 0.74157(4) 0.00183(2) 0.23405(2)
O7A O 0.5645(3) 0.51788(17) 0.33884(12)
O12A O 0.9622(3) 0.58381(17) 0.22849(11)
O14_2 O 0.9636(3) 0.40723(17) 0.29523(11)
O20 O 0.7371(4) 0.26865(19) 0.12830(14)
H18 H 0.8133 0.2799 0.1049
H19 H 0.6452 0.2713 0.1053
O21 O -0.2437(4) 0.2381(2) 0.37054(16)
H20 H -0.1773 0.2588 0.3995
H21 H -0.2138 0.1926 0.345
loop_
_geom_bond_atom_site_label_1
_geom_bond_atom_site_label_2
_geom_bond_site_symmetry_1
_geom_bond_site_symmetry_2
Y1 O1 1_555 1_555
Y2 O2 1_555 1_555
O1 C6 1_555 1_555
O2 C6 1_555 1_555
O3 Y1 1_555 1_555
O4 C7 1_555 1_555
O5 H1 1_555 1_555
O6 Y1 1_555 1_555
O7 C13 1_555 1_555
O8 Y1 1_555 1_555
O9 C14 1_555 1_555
O10 H2 1_555 1_555
O11 Y1 1_555 1_555
O12 C20 1_555 1_555
O13 Y1 1_555 1_555
O14 C21 1_555 1_555
O15 H3 1_555 1_555
O16 Y2 1_555 1_555
H4 O16 1_555 1_555
H5 O16 1_555 1_555
O17 Y2 1_555 1_555
H6 O17 1_555 1_555
H7 O17 1_555 1_555
O18 Y2 1_555 1_555
H8 O18 1_555 1_555
H9 O18 1_555 1_555
O19 Y2 1_555 1_555
H10 O19 1_555 1_555
H11 O19 1_555 1_555
N1 Y1 1_555 1_555
N2 Y1 1_555 1_555
N3 Y1 1_555 1_555
C1 N1 1_555 1_555
C2 C1 1_555 1_555
H12 C2 1_555 1_555
C3 O5 1_555 1_555
C4 C3 1_555 1_555
H13 C4 1_555 1_555
C5 N1 1_555 1_555
C6 C1 1_555 1_555
C7 O3 1_555 1_555
C8 N2 1_555 1_555
C9 C8 1_555 1_555
H14 C9 1_555 1_555
C10 O10 1_555 1_555
C11 C10 1_555 1_555
H15 C11 1_555 1_555
C12 N2 1_555 1_555
C13 O6 1_555 1_555
C14 O8 1_555 1_555
C15 N3 1_555 1_555
C16 C15 1_555 1_555
H16 C16 1_555 1_555
C17 O15 1_555 1_555
C18 C17 1_555 1_555
H17 C18 1_555 1_555
C19 N3 1_555 1_555
C20 O11 1_555 1_555
C21 O13 1_555 1_555
O20 H18 1_555 1_555
H19 O20 1_555 1_555
O21 H20 1_555 1_555
H21 O21 1_555 1_555
Y2_2 O14 1_555 1_555
Y2A O7 1_555 1_555
Y2A_2 O12 1_555 1_555
O7A Y2 1_555 1_555
O12A Y2 1_555 1_555
O14_2 Y2 1_555 1_555
C2 C3 1_555 1_555
C4 C5 1_555 1_555
C5 C7 1_555 1_555
C8 C13 1_555 1_555
C9 C10 1_555 1_555
C11 C12 1_555 1_555
C12 C14 1_555 1_555
C15 C20 1_555 1_555
C16 C17 1_555 1_555
C18 C19 1_555 1_555
C19 C21 1_555 1_555

#END
