
#######################################################################
#
#                 Cambridge Crystallographic Data Centre
#                                CCDC 
#
#######################################################################
#
# If this CIF has been generated from an entry in the Cambridge 
# Structural Database, then it will include bibliographic, chemical, 
# crystal, experimental, refinement or atomic coordinate data resulting 
# from the CCDC's data processing and validation procedures.
#
#######################################################################

data_WOHDOM
_symmetry_cell_setting           triclinic
_symmetry_space_group_name_H-M   'P -1'
_symmetry_Int_Tables_number      2
_space_group_name_Hall           '-P 1'
loop_
_symmetry_equiv_pos_site_id
_symmetry_equiv_pos_as_xyz
1 x,y,z
2 -x,-y,-z
_cell_length_a                   9.101(2)
_cell_length_b                   10.162(2)
_cell_length_c                   13.066(2)
_cell_angle_alpha                97.910(10)
_cell_angle_beta                 109.970(10)
_cell_angle_gamma                100.680(10)
_cell_volume                     1089.34
loop_
_atom_site_label
_atom_site_type_symbol
_atom_site_fract_x
_atom_site_fract_y
_atom_site_fract_z
Fe1 Fe 0.0000 0.0000 0.0000
Fe2 Fe 0.5000 0.0000 0.5000
S1 S 0.25679(13) 0.09841(11) 0.27701(8)
O1 O 0.1483(4) 0.0142(3) 0.1665(2)
O2 O 0.3250(4) 0.0066(3) 0.3484(2)
O3 O 0.3918(4) 0.1931(3) 0.2655(2)
O4 O 0.1675(4) 0.1749(3) 0.3267(2)
N1 N 0.1641(5) -0.0936(4) -0.0520(3)
N2 N 0.1212(5) -0.1751(4) -0.1543(3)
H1 H 0.0293(5) -0.1861(4) -0.2090(3)
C1 C 0.2361(6) -0.2365(5) -0.1616(4)
C2 C 0.3606(6) -0.1946(5) -0.0610(4)
H2 H 0.4593(6) -0.2199(5) -0.0402(4)
C3 C 0.3118(6) -0.1066(5) 0.0048(4)
H3 H 0.3744(6) -0.0621(5) 0.0795(4)
C4 C 0.2149(7) -0.3302(5) -0.2675(4)
H4 H 0.3135(17) -0.3591(32) -0.2586(11)
H5 H 0.1908(46) -0.2822(13) -0.3281(7)
H6 H 0.1266(31) -0.4101(19) -0.2843(17)
N3 N 0.1188(4) 0.2070(4) -0.0059(3)
N4 N 0.2553(5) 0.2919(4) 0.0730(3)
H7 H 0.3157(5) 0.2677(4) 0.1312(3)
C5 C 0.2875(6) 0.4178(5) 0.0517(4)
C6 C 0.1669(7) 0.4143(5) -0.0460(4)
H8 H 0.1538(7) 0.4864(5) -0.0836(4)
C7 C 0.0673(7) 0.2827(5) -0.0786(5)
H9 H -0.0254(7) 0.2512(5) -0.1445(5)
C8 C 0.4341(7) 0.5267(5) 0.1279(4)
H10 H 0.5263(11) 0.5151(23) 0.1096(21)
H11 H 0.4549(27) 0.5194(25) 0.2045(5)
H12 H 0.4161(18) 0.6163(5) 0.1189(23)
N5 N 0.3945(5) -0.2211(3) 0.4483(3)
N6 N 0.3880(4) -0.3072(3) 0.5170(3)
H13 H 0.4312(4) -0.2820(3) 0.5894(3)
C9 C 0.3076(6) -0.4365(5) 0.4615(4)
C10 C 0.2566(6) -0.4335(5) 0.3508(4)
H14 H 0.1954(6) -0.5074(5) 0.2900(4)
C11 C 0.3137(6) -0.2996(5) 0.3465(4)
H15 H 0.2975(6) -0.2678(5) 0.2802(4)
C12 C 0.2869(8) -0.5499(5) 0.5213(5)
H16 H 0.2101(45) -0.5386(29) 0.5561(35)
H17 H 0.3900(14) -0.5471(31) 0.5782(27)
H18 H 0.2473(57) -0.6375(6) 0.4685(8)
N7 N 0.3380(4) 0.0361(4) 0.5842(3)
N8 N 0.2210(4) 0.1037(3) 0.5478(3)
H19 H 0.1935(4) 0.1266(3) 0.4833(3)
C13 C 0.1523(5) 0.1315(4) 0.6217(4)
C14 C 0.2281(6) 0.0783(5) 0.7113(4)
H20 H 0.2076(6) 0.0806(5) 0.7772(4)
C15 C 0.3390(6) 0.0213(5) 0.6851(4)
H21 H 0.4076(6) -0.0228(5) 0.7319(4)
C16 C 0.0210(6) 0.2037(5) 0.5992(4)
H22 H -0.0264(31) 0.2000(34) 0.5198(6)
H23 H 0.0646(10) 0.2987(11) 0.6393(25)
H24 H -0.0612(23) 0.1598(24) 0.6237(29)
O1A O -0.1483(4) -0.0142(3) -0.1665(2)
N1A N -0.1641(5) 0.0936(4) 0.0520(3)
N3A N -0.1188(4) -0.2070(4) 0.0059(3)
O2A O 0.6750(4) -0.0066(3) 0.6516(2)
N5A N 0.6055(5) 0.2211(3) 0.5517(3)
N7A N 0.6620(4) -0.0361(4) 0.4158(3)
N2A N -0.1212(5) 0.1751(4) 0.1543(3)
C3A C -0.3118(6) 0.1066(5) -0.0048(4)
N4A N -0.2553(5) -0.2919(4) -0.0730(3)
C7A C -0.0673(7) -0.2827(5) 0.0786(5)
S1A S 0.74321(13) -0.09841(11) 0.72299(8)
N6A N 0.6120(4) 0.3072(3) 0.4830(3)
C11A C 0.6863(6) 0.2996(5) 0.6535(4)
N8A N 0.7790(4) -0.1037(3) 0.4522(3)
C15A C 0.6610(6) -0.0213(5) 0.3149(4)
H1A H -0.0293(5) 0.1861(4) 0.2090(3)
C1A C -0.2361(6) 0.2365(5) 0.1616(4)
C2A C -0.3606(6) 0.1946(5) 0.0610(4)
H3A H -0.3744(6) 0.0621(5) -0.0795(4)
H7A H -0.3157(5) -0.2677(4) -0.1312(3)
C5A C -0.2875(6) -0.4178(5) -0.0517(4)
C6A C -0.1669(7) -0.4143(5) 0.0460(4)
H9A H 0.0254(7) -0.2512(5) 0.1445(5)
O1A_2 O 0.8517(4) -0.0142(3) 0.8335(2)
O3A O 0.6082(4) -0.1931(3) 0.7345(2)
O4A O 0.8325(4) -0.1749(3) 0.6733(2)
H13A H 0.5688(4) 0.2820(3) 0.4106(3)
C9A C 0.6924(6) 0.4365(5) 0.5385(4)
C10A C 0.7434(6) 0.4335(5) 0.6492(4)
H15A H 0.7025(6) 0.2678(5) 0.7198(4)
H19A H 0.8065(4) -0.1266(3) 0.5167(3)
C13A C 0.8477(5) -0.1315(4) 0.3783(4)
C14A C 0.7719(6) -0.0783(5) 0.2887(4)
H21A H 0.5924(6) 0.0228(5) 0.2681(4)
C4A C -0.2149(7) 0.3302(5) 0.2675(4)
H2A H -0.4593(6) 0.2199(5) 0.0402(4)
C8A C -0.4341(7) -0.5267(5) -0.1279(4)
H8A H -0.1538(7) -0.4864(5) 0.0836(4)
Fe1_2 Fe 1.0000 0.0000 1.0000
C12A C 0.7131(8) 0.5499(5) 0.4787(5)
H14A H 0.8046(6) 0.5074(5) 0.7100(4)
C16A C 0.9790(6) -0.2037(5) 0.4008(4)
H20A H 0.7924(6) -0.0806(5) 0.2228(4)
H4A H -0.3135(17) 0.3591(32) 0.2586(11)
H5A H -0.1908(46) 0.2822(13) 0.3281(7)
H6A H -0.1266(31) 0.4101(19) 0.2843(17)
H10A H -0.5263(11) -0.5151(23) -0.1096(21)
H11A H -0.4549(27) -0.5194(25) -0.2045(5)
H12A H -0.4161(18) -0.6163(5) -0.1189(23)
H16A H 0.7899(45) 0.5386(29) 0.4439(35)
H17A H 0.6100(14) 0.5471(31) 0.4218(27)
H18A H 0.7527(57) 0.6375(6) 0.5315(8)
H22A H 1.0264(31) -0.2000(34) 0.4802(6)
H23A H 0.9354(10) -0.2987(11) 0.3607(25)
H24A H 1.0612(23) -0.1598(24) 0.3763(29)
loop_
_geom_bond_atom_site_label_1
_geom_bond_atom_site_label_2
_geom_bond_site_symmetry_1
_geom_bond_site_symmetry_2
Fe1 O1 1_555 1_555
Fe2 O2 1_555 1_555
S1 O1 1_555 1_555
O2 S1 1_555 1_555
O3 S1 1_555 1_555
O4 S1 1_555 1_555
N1 Fe1 1_555 1_555
N2 N1 1_555 1_555
H1 N2 1_555 1_555
C1 N2 1_555 1_555
C2 C1 1_555 1_555
H2 C2 1_555 1_555
C3 N1 1_555 1_555
H3 C3 1_555 1_555
C4 C1 1_555 1_555
H4 C4 1_555 1_555
H5 C4 1_555 1_555
H6 C4 1_555 1_555
N3 Fe1 1_555 1_555
N4 N3 1_555 1_555
H7 N4 1_555 1_555
C5 N4 1_555 1_555
C6 C5 1_555 1_555
H8 C6 1_555 1_555
C7 N3 1_555 1_555
H9 C7 1_555 1_555
C8 C5 1_555 1_555
H10 C8 1_555 1_555
H11 C8 1_555 1_555
H12 C8 1_555 1_555
N5 Fe2 1_555 1_555
N6 N5 1_555 1_555
H13 N6 1_555 1_555
C9 N6 1_555 1_555
C10 C9 1_555 1_555
H14 C10 1_555 1_555
C11 N5 1_555 1_555
H15 C11 1_555 1_555
C12 C9 1_555 1_555
H16 C12 1_555 1_555
H17 C12 1_555 1_555
H18 C12 1_555 1_555
N7 Fe2 1_555 1_555
N8 N7 1_555 1_555
H19 N8 1_555 1_555
C13 N8 1_555 1_555
C14 C13 1_555 1_555
H20 C14 1_555 1_555
C15 N7 1_555 1_555
H21 C15 1_555 1_555
C16 C13 1_555 1_555
H22 C16 1_555 1_555
H23 C16 1_555 1_555
H24 C16 1_555 1_555
O1A Fe1 1_555 1_555
N1A Fe1 1_555 1_555
N3A Fe1 1_555 1_555
O2A Fe2 1_555 1_555
N5A Fe2 1_555 1_555
N7A Fe2 1_555 1_555
N2A N1A 1_555 1_555
C3A N1A 1_555 1_555
N4A N3A 1_555 1_555
C7A N3A 1_555 1_555
S1A O2A 1_555 1_555
N6A N5A 1_555 1_555
C11A N5A 1_555 1_555
N8A N7A 1_555 1_555
C15A N7A 1_555 1_555
H1A N2A 1_555 1_555
C1A N2A 1_555 1_555
C2A C3A 1_555 1_555
H3A C3A 1_555 1_555
H7A N4A 1_555 1_555
C5A N4A 1_555 1_555
C6A C7A 1_555 1_555
H9A C7A 1_555 1_555
O1A_2 S1A 1_555 1_555
O3A S1A 1_555 1_555
O4A S1A 1_555 1_555
H13A N6A 1_555 1_555
C9A N6A 1_555 1_555
C10A C11A 1_555 1_555
H15A C11A 1_555 1_555
H19A N8A 1_555 1_555
C13A N8A 1_555 1_555
C14A C15A 1_555 1_555
H21A C15A 1_555 1_555
C4A C1A 1_555 1_555
H2A C2A 1_555 1_555
C8A C5A 1_555 1_555
H8A C6A 1_555 1_555
Fe1_2 O1A_2 1_555 1_555
C12A C9A 1_555 1_555
H14A C10A 1_555 1_555
C16A C13A 1_555 1_555
H20A C14A 1_555 1_555
H4A C4A 1_555 1_555
H5A C4A 1_555 1_555
H6A C4A 1_555 1_555
H10A C8A 1_555 1_555
H11A C8A 1_555 1_555
H12A C8A 1_555 1_555
H16A C12A 1_555 1_555
H17A C12A 1_555 1_555
H18A C12A 1_555 1_555
H22A C16A 1_555 1_555
H23A C16A 1_555 1_555
H24A C16A 1_555 1_555
C2 C3 1_555 1_555
C6 C7 1_555 1_555
C10 C11 1_555 1_555
C14 C15 1_555 1_555
C1A C2A 1_555 1_555
C5A C6A 1_555 1_555
C9A C10A 1_555 1_555
C13A C14A 1_555 1_555

#END
