
#######################################################################
#
#                 Cambridge Crystallographic Data Centre
#                                CCDC 
#
#######################################################################
#
# If this CIF has been generated from an entry in the Cambridge 
# Structural Database, then it will include bibliographic, chemical, 
# crystal, experimental, refinement or atomic coordinate data resulting 
# from the CCDC's data processing and validation procedures.
#
#######################################################################

data_WOHGEG
_symmetry_cell_setting           triclinic
_symmetry_space_group_name_H-M   'P -1'
_symmetry_Int_Tables_number      2
_space_group_name_Hall           '-P 1'
loop_
_symmetry_equiv_pos_site_id
_symmetry_equiv_pos_as_xyz
1 x,y,z
2 -x,-y,-z
_cell_length_a                   8.5370(8)
_cell_length_b                   11.2691(10)
_cell_length_c                   15.0738(14)
_cell_angle_alpha                94.712(2)
_cell_angle_beta                 94.964(2)
_cell_angle_gamma                100.500(2)
_cell_volume                     1413.42
loop_
_atom_site_label
_atom_site_type_symbol
_atom_site_fract_x
_atom_site_fract_y
_atom_site_fract_z
Ag1 Ag 0.85323(5) 0.76133(3) 0.68861(2)
Cl1 Cl 1.15805(14) 0.80464(11) 0.54296(7)
S1 S 0.80338(13) 0.95802(9) 0.75472(7)
S2 S 0.86884(13) 1.57243(9) 0.76066(7)
S3 S 0.58474(15) 0.68817(11) 0.48561(8)
O1 O 0.9801(4) 1.1974(3) 0.9135(2)
O2 O 1.0966(4) 1.4468(3) 0.89841(19)
O3 O 1.0993(6) 0.8429(4) 0.6243(3)
O4 O 1.1347(6) 0.6758(3) 0.5327(3)
O5 O 1.0726(5) 0.8432(4) 0.4686(3)
O6 O 1.3243(4) 0.8558(4) 0.5461(3)
O7 O 0.6268(4) 0.6912(3) 0.5853(2)
C1 C 0.9859(6) 1.2922(4) 0.9829(3)
H1 H 0.9938 1.2593 1.0417
H2 H 0.8859 1.3248 0.9766
C2 C 0.9951(5) 1.0626(4) 0.7580(3)
H3 H 1.0502 1.0437 0.7049
H4 H 0.9784 1.1473 0.7586
C3 C 1.1277(6) 1.3930(4) 0.9792(3)
H5 H 1.1388 1.4538 1.0318
H6 H 1.2277 1.3603 0.9784
C4 C 1.2163(5) 1.5298(4) 0.8717(3)
C5 C 1.3568(5) 1.5825(4) 0.9245(3)
H7 H 1.3753 1.5619 0.9839
C6 C 1.4697(6) 1.6651(4) 0.8900(4)
H8 H 1.5657 1.7013 0.9265
C7 C 1.4469(6) 1.6965(4) 0.8045(4)
H9 H 1.5262 1.7531 0.7816
C8 C 1.3052(6) 1.6438(4) 0.7516(3)
H10 H 1.2885 1.6651 0.6924
C9 C 1.1878(5) 1.5606(4) 0.7839(3)
C10 C 1.0359(5) 1.5036(4) 0.7269(3)
H11 H 1.0120 1.4155 0.7329
H12 H 1.0494 1.5146 0.6634
C11 C 0.7018(5) 1.4734(4) 0.6917(3)
H13 H 0.6103 1.5160 0.6863
H14 H 0.7338 1.4577 0.6309
C12 C 0.6476(5) 1.3543(4) 0.7276(3)
C13 C 0.5495(6) 1.3454(4) 0.7966(3)
H15 H 0.5200 1.4163 0.8233
C14 C 0.4944(6) 1.2342(5) 0.8267(4)
H16 H 0.4276 1.2291 0.8740
C15 C 0.5363(6) 1.1306(4) 0.7882(3)
H17 H 0.4977 1.0545 0.8091
C16 C 0.6348(5) 1.1368(4) 0.7188(3)
C17 C 0.6910(5) 1.2484(4) 0.6904(3)
H18 H 0.7607 1.2536 0.6444
C18 C 0.6763(5) 1.0220(4) 0.6762(3)
H19 H 0.7324 1.0402 0.6227
H20 H 0.5767 0.9622 0.6566
C19 C 1.0935(5) 1.0462(4) 0.8424(3)
C20 C 1.1878(5) 0.9587(4) 0.8457(3)
H21 H 1.1933 0.9080 0.7929
C21 C 1.2746(6) 0.9437(4) 0.9250(3)
H22 H 1.3386 0.8831 0.9266
C22 C 1.2669(5) 1.0176(4) 1.0011(3)
H23 H 1.3275 1.0084 1.0552
C23 C 1.1726(5) 1.1048(4) 1.0003(3)
H24 H 1.1681 1.1549 1.0535
C24 C 1.0849(5) 1.1190(4) 0.9219(3)
C25 C 0.7153(7) 0.6034(5) 0.4349(4)
H25 H 0.6850 0.5180 0.4455
H26 H 0.8257 0.6351 0.4609
H27 H 0.7071 0.6104 0.3704
C26 C 0.6688(6) 0.8340(4) 0.4548(3)
H28 H 0.6090 0.8940 0.4782
H29 H 0.6623 0.8315 0.3895
H30 H 0.7811 0.8565 0.4799
Ag1_2 Ag 0.85323(5) 1.76133(3) 0.68861(2)
S2_2 S 0.86884(13) 0.57243(9) 0.76066(7)
loop_
_geom_bond_atom_site_label_1
_geom_bond_atom_site_label_2
_geom_bond_site_symmetry_1
_geom_bond_site_symmetry_2
Ag1 S1 1_555 1_555
Cl1 O3 1_555 1_555
S1 C2 1_555 1_555
S2 C10 1_555 1_555
S3 O7 1_555 1_555
O1 C1 1_555 1_555
O2 C3 1_555 1_555
O3 Ag1 1_555 1_555
O4 Cl1 1_555 1_555
O5 Cl1 1_555 1_555
O6 Cl1 1_555 1_555
O7 Ag1 1_555 1_555
C1 H1 1_555 1_555
H2 C1 1_555 1_555
C2 H3 1_555 1_555
H4 C2 1_555 1_555
C3 C1 1_555 1_555
H5 C3 1_555 1_555
H6 C3 1_555 1_555
C4 O2 1_555 1_555
C5 C4 1_555 1_555
H7 C5 1_555 1_555
C6 C5 1_555 1_555
H8 C6 1_555 1_555
C7 C6 1_555 1_555
H9 C7 1_555 1_555
C8 C7 1_555 1_555
H10 C8 1_555 1_555
C9 C4 1_555 1_555
C10 C9 1_555 1_555
H11 C10 1_555 1_555
H12 C10 1_555 1_555
C11 S2 1_555 1_555
H13 C11 1_555 1_555
H14 C11 1_555 1_555
C12 C11 1_555 1_555
C13 C12 1_555 1_555
H15 C13 1_555 1_555
C14 C13 1_555 1_555
H16 C14 1_555 1_555
C15 C14 1_555 1_555
H17 C15 1_555 1_555
C16 C15 1_555 1_555
C17 C12 1_555 1_555
H18 C17 1_555 1_555
C18 S1 1_555 1_555
H19 C18 1_555 1_555
H20 C18 1_555 1_555
C19 C2 1_555 1_555
C20 C19 1_555 1_555
H21 C20 1_555 1_555
C21 C20 1_555 1_555
H22 C21 1_555 1_555
C22 C21 1_555 1_555
H23 C22 1_555 1_555
C23 C22 1_555 1_555
H24 C23 1_555 1_555
C24 O1 1_555 1_555
C25 S3 1_555 1_555
H25 C25 1_555 1_555
H26 C25 1_555 1_555
H27 C25 1_555 1_555
C26 S3 1_555 1_555
H28 C26 1_555 1_555
H29 C26 1_555 1_555
H30 C26 1_555 1_555
Ag1_2 S2 1_555 1_555
S2_2 Ag1 1_555 1_555
C8 C9 1_555 1_555
C16 C17 1_555 1_555
C16 C18 1_555 1_555
C19 C24 1_555 1_555
C23 C24 1_555 1_555

#END
