
#######################################################################
#
#                 Cambridge Crystallographic Data Centre
#                                CCDC 
#
#######################################################################
#
# If this CIF has been generated from an entry in the Cambridge 
# Structural Database, then it will include bibliographic, chemical, 
# crystal, experimental, refinement or atomic coordinate data resulting 
# from the CCDC's data processing and validation procedures.
#
#######################################################################

data_WOHGAB
_symmetry_cell_setting           monoclinic
_symmetry_space_group_name_H-M   'P 21/c'
_symmetry_Int_Tables_number      14
_space_group_name_Hall           '-P 2ybc'
loop_
_symmetry_equiv_pos_site_id
_symmetry_equiv_pos_as_xyz
1 x,y,z
2 x,1/2-y,1/2+z
3 -x,-y,-z
4 -x,1/2+y,1/2-z
_cell_length_a                   11.244(4)
_cell_length_b                   7.4944(6)
_cell_length_c                   12.4931(8)
_cell_angle_alpha                90
_cell_angle_beta                 89.091(1)
_cell_angle_gamma                90
_cell_volume                     1052.62
loop_
_atom_site_label
_atom_site_type_symbol
_atom_site_fract_x
_atom_site_fract_y
_atom_site_fract_z
Cu1 Cu 0.00887(4) 0.41221(6) -0.37856(3)
O1 O 0.1253(3) 0.4903(4) -0.4817(2)
O2 O 0.0206(3) 0.6372(4) -0.3025(2)
O3 O 0.1186(3) 0.8544(4) -0.2244(2)
O4 O 0.1913(4) 0.2998(7) -0.2678(4)
N1 N 0.0033(3) 0.1646(4) -0.4479(2)
C1 C 0.2151(4) 0.5932(5) -0.4572(3)
C2 C 0.3155(4) 0.5950(6) -0.5259(3)
C3 C 0.4126(4) 0.7001(7) -0.5075(4)
C4 C 0.4141(4) 0.8115(8) -0.4189(4)
C5 C 0.3177(4) 0.8145(6) -0.3499(3)
C6 C 0.2165(4) 0.7107(5) -0.3680(3)
C7 C 0.1129(4) 0.7335(5) -0.2944(3)
C8 C 0.0963(4) 0.1033(5) -0.5059(3)
C9 C -0.0925(4) 0.0595(6) -0.4431(3)
C10 C 0.3092(6) 0.2945(9) -0.2615(6)
H1 H 0.3118 0.5173 -0.5750
H2 H 0.4877 0.6958 -0.5572
H3 H 0.4828 0.8754 -0.4000
H4 H 0.3175 0.8836 -0.2764
H5 H 0.1601 0.1802 -0.5156
H6 H -0.1561 0.0985 -0.4068
H7 H 0.1735 0.2344 -0.2558
H8 H 0.3353 0.1842 -0.2968
H9 H 0.3328 0.2942 -0.1916
H10 H 0.3417 0.3908 -0.3013
Cu1B Cu -0.00887(4) 0.58779(6) -0.62144(3)
O1B O -0.1253(3) 0.5097(4) -0.5183(2)
O3C O -0.1186(3) 0.3544(4) -0.2756(2)
Cu1C Cu -0.00887(4) 0.91221(6) -0.12144(3)
N1B N -0.0033(3) 0.8354(4) -0.5521(2)
O2B O -0.0206(3) 0.3628(4) -0.6975(2)
C7B C -0.1129(4) 0.2665(5) -0.7056(3)
O3B O -0.1186(3) 0.1456(4) -0.7756(2)
Cu1A Cu 0.00887(4) 0.08779(6) -0.87856(3)
Cu1B_2 Cu -0.00887(4) -0.41221(6) -0.62144(3)
N1B_2 N -0.0033(3) -0.1646(4) -0.5521(2)
C6B C -0.2165(4) 0.2893(5) -0.6320(3)
C1B C -0.2151(4) 0.4068(5) -0.5428(3)
C2B C -0.3155(4) 0.4050(6) -0.4741(3)
C3B C -0.4126(4) 0.2999(7) -0.4925(4)
C4B C -0.4141(4) 0.1885(8) -0.5811(4)
C5B C -0.3177(4) 0.1855(6) -0.6501(3)
H4B H -0.3175 0.1164 -0.7236
H3B H -0.4828 0.1246 -0.6000
H2B H -0.4877 0.3042 -0.4428
H1B H -0.3118 0.4827 -0.4250
O3A O 0.1186(3) 0.6456(4) -0.7244(2)
O4B O -0.1913(4) 0.7002(7) -0.7322(4)
C10B C -0.3092(6) 0.7055(9) -0.7385(6)
H8B H -0.3353 0.8158 -0.7032
H9B H -0.3328 0.7058 -0.8084
H10B H -0.3417 0.6092 -0.6987
H7B H -0.1735 0.7656 -0.7442
C9B C 0.0925(4) -0.0595(6) -0.5569(3)
C8B C -0.0963(4) -0.1033(5) -0.4941(3)
H5B H -0.1601 -0.1802 -0.4844
H6B H 0.1561 -0.0985 -0.5932
loop_
_geom_bond_atom_site_label_1
_geom_bond_atom_site_label_2
_geom_bond_site_symmetry_1
_geom_bond_site_symmetry_2
Cu1 O1 1_555 1_555
O1 C1 1_555 1_555
O2 Cu1 1_555 1_555
O3 C7 1_555 1_555
O4 Cu1 1_555 1_555
N1 Cu1 1_555 1_555
C1 C2 1_555 1_555
C2 C3 1_555 1_555
C3 C4 1_555 1_555
C4 C5 1_555 1_555
C5 C6 1_555 1_555
C6 C1 1_555 1_555
C7 O2 1_555 1_555
C8 N1 1_555 1_555
C9 N1 1_555 1_555
C10 O4 1_555 1_555
H1 C2 1_555 1_555
H2 C3 1_555 1_555
H3 C4 1_555 1_555
H4 C5 1_555 1_555
H5 C8 1_555 1_555
H6 C9 1_555 1_555
H7 O4 1_555 1_555
H8 C10 1_555 1_555
H9 C10 1_555 1_555
H10 C10 1_555 1_555
Cu1B O1 1_555 1_555
O1B Cu1 1_555 1_555
O3C Cu1 1_555 1_555
Cu1C O3 1_555 1_555
N1B Cu1B 1_555 1_555
O2B Cu1B 1_555 1_555
C7B O2B 1_555 1_555
O3B C7B 1_555 1_555
Cu1A O3B 1_555 1_555
Cu1B_2 N1B_2 1_555 1_555
N1B_2 C9B 1_555 1_555
C6B C7B 1_555 1_555
C1B O1B 1_555 1_555
C2B C1B 1_555 1_555
C3B C2B 1_555 1_555
C4B C3B 1_555 1_555
C5B C6B 1_555 1_555
H4B C5B 1_555 1_555
H3B C4B 1_555 1_555
H2B C3B 1_555 1_555
H1B C2B 1_555 1_555
O3A Cu1B 1_555 1_555
O4B Cu1B 1_555 1_555
C10B O4B 1_555 1_555
H8B C10B 1_555 1_555
H9B C10B 1_555 1_555
H10B C10B 1_555 1_555
H7B O4B 1_555 1_555
C9B C8 1_555 1_555
C8B C9 1_555 1_555
H5B C8B 1_555 1_555
H6B C9B 1_555 1_555
C6 C7 1_555 1_555
Cu1B O1B 1_555 1_555
N1B_2 C8B 1_555 1_555
C6B C1B 1_555 1_555
C4B C5B 1_555 1_555

#END
