
#######################################################################
#
#                 Cambridge Crystallographic Data Centre
#                                CCDC 
#
#######################################################################
#
# If this CIF has been generated from an entry in the Cambridge 
# Structural Database, then it will include bibliographic, chemical, 
# crystal, experimental, refinement or atomic coordinate data resulting 
# from the CCDC's data processing and validation procedures.
#
#######################################################################

data_WOHHEH
_symmetry_cell_setting           monoclinic
_symmetry_space_group_name_H-M   'P 21/n'
_symmetry_Int_Tables_number      14
_space_group_name_Hall           '-P 2yn'
loop_
_symmetry_equiv_pos_site_id
_symmetry_equiv_pos_as_xyz
1 x,y,z
2 1/2-x,1/2+y,1/2-z
3 -x,-y,-z
4 1/2+x,1/2-y,1/2+z
_cell_length_a                   11.4183(5)
_cell_length_b                   17.1126(7)
_cell_length_c                   12.1536(5)
_cell_angle_alpha                90
_cell_angle_beta                 91.0480(10)
_cell_angle_gamma                90
_cell_volume                     2374.38
loop_
_atom_site_label
_atom_site_type_symbol
_atom_site_fract_x
_atom_site_fract_y
_atom_site_fract_z
Cu1 Cu 0.10061(4) 1.01616(3) 0.41484(3)
I1 I 0.03658(2) 1.110217(13) 0.575730(19)
S1 S 0.28949(7) 0.97369(5) 0.46702(7)
S2 S 0.39566(8) 0.58706(5) 0.24648(7)
O1 O 0.2864(2) 0.79351(14) 0.6448(2)
O2 O 0.2687(2) 0.56981(15) 0.5018(2)
C1 C 0.2973(3) 0.7100(2) 0.6379(3)
H1 H 0.3076 0.6870 0.7122
H2 H 0.3654 0.6955 0.5930
C2 C 0.1849(4) 0.6814(2) 0.5843(3)
H3 H 0.1181 0.6999 0.6281
H4 H 0.1772 0.7049 0.5101
C3 C 0.1775(4) 0.5940(2) 0.5736(3)
H5 H 0.1879 0.5691 0.6467
H6 H 0.1001 0.5786 0.5427
C4 C 0.2708(3) 0.4926(2) 0.4711(3)
C5 C 0.1898(4) 0.4365(2) 0.5056(3)
H7 H 0.1295 0.4505 0.5547
C6 C 0.1986(4) 0.3610(2) 0.4674(3)
H8 H 0.1428 0.3231 0.4894
C7 C 0.2863(5) 0.3397(3) 0.3986(3)
H9 H 0.2911 0.2874 0.3729
C8 C 0.3683(4) 0.3945(2) 0.3662(3)
H10 H 0.4300 0.3792 0.3194
C9 C 0.3614(3) 0.4717(2) 0.4012(3)
C10 C 0.4504(3) 0.5313(2) 0.3648(3)
H11 H 0.5238 0.5043 0.3452
H12 H 0.4684 0.5675 0.4264
C11 C 0.5141(3) 0.6576(2) 0.2371(3)
H13 H 0.5891 0.6297 0.2495
H14 H 0.5144 0.6785 0.1611
C12 C 0.5099(3) 0.7259(2) 0.3160(3)
C13 C 0.6126(3) 0.7509(2) 0.3673(3)
H15 H 0.6831 0.7223 0.3580
C14 C 0.6126(3) 0.8176(2) 0.4324(3)
H16 H 0.6831 0.8345 0.4675
C15 C 0.5101(3) 0.8596(2) 0.4462(3)
H17 H 0.5107 0.9053 0.4907
C16 C 0.4072(3) 0.8353(2) 0.3957(3)
C17 C 0.4081(3) 0.7682(2) 0.3318(3)
H18 H 0.3371 0.7508 0.2979
C18 C 0.2911(3) 0.8778(2) 0.4042(3)
H19 H 0.2375 0.8439 0.4460
H20 H 0.2576 0.8829 0.3289
C19 C 0.2669(3) 0.9526(2) 0.6130(3)
H21 H 0.2459 1.0018 0.6505
H22 H 0.1994 0.9166 0.6190
C20 C 0.3701(3) 0.9170(2) 0.6728(3)
C21 C 0.4609(3) 0.9632(2) 0.7138(3)
H23 H 0.4559 1.0183 0.7056
C22 C 0.5578(4) 0.9317(3) 0.7660(3)
H24 H 0.6192 0.9644 0.7928
C23 C 0.5645(4) 0.8510(3) 0.7789(3)
H25 H 0.6315 0.8285 0.8140
C24 C 0.4758(4) 0.8033(2) 0.7415(3)
H26 H 0.4804 0.7484 0.7526
C25 C 0.3786(3) 0.8358(2) 0.6872(3)
Cu1B Cu -0.10061(4) 0.98384(3) 0.58516(3)
Cu1A Cu 0.39939(4) 0.51616(3) 0.08516(3)
I1B I -0.03658(2) 0.889783(13) 0.424270(19)
S2A S 0.10434(8) 1.08706(5) 0.25352(7)
loop_
_geom_bond_atom_site_label_1
_geom_bond_atom_site_label_2
_geom_bond_site_symmetry_1
_geom_bond_site_symmetry_2
Cu1 I1 1_555 1_555
I1 Cu1B 1_555 1_555
S1 Cu1 1_555 1_555
S2 C10 1_555 1_555
O1 C1 1_555 1_555
O2 C3 1_555 1_555
C1 H1 1_555 1_555
H2 C1 1_555 1_555
C2 C1 1_555 1_555
H3 C2 1_555 1_555
H4 C2 1_555 1_555
C3 C2 1_555 1_555
H5 C3 1_555 1_555
H6 C3 1_555 1_555
C4 O2 1_555 1_555
C5 C4 1_555 1_555
H7 C5 1_555 1_555
C6 C5 1_555 1_555
H8 C6 1_555 1_555
C7 C6 1_555 1_555
H9 C7 1_555 1_555
C8 C7 1_555 1_555
H10 C8 1_555 1_555
C9 C4 1_555 1_555
C10 C9 1_555 1_555
H11 C10 1_555 1_555
H12 C10 1_555 1_555
C11 S2 1_555 1_555
H13 C11 1_555 1_555
H14 C11 1_555 1_555
C12 C11 1_555 1_555
C13 C12 1_555 1_555
H15 C13 1_555 1_555
C14 C13 1_555 1_555
H16 C14 1_555 1_555
C15 C14 1_555 1_555
H17 C15 1_555 1_555
C16 C15 1_555 1_555
C17 C12 1_555 1_555
H18 C17 1_555 1_555
C18 S1 1_555 1_555
H19 C18 1_555 1_555
H20 C18 1_555 1_555
C19 S1 1_555 1_555
H21 C19 1_555 1_555
H22 C19 1_555 1_555
C20 C19 1_555 1_555
C21 C20 1_555 1_555
H23 C21 1_555 1_555
C22 C21 1_555 1_555
H24 C22 1_555 1_555
C23 C22 1_555 1_555
H25 C23 1_555 1_555
C24 C23 1_555 1_555
H26 C24 1_555 1_555
C25 O1 1_555 1_555
Cu1B I1B 1_555 1_555
Cu1A S2 1_555 1_555
I1B Cu1 1_555 1_555
S2A Cu1 1_555 1_555
C8 C9 1_555 1_555
C16 C17 1_555 1_555
C16 C18 1_555 1_555
C20 C25 1_555 1_555
C24 C25 1_555 1_555

#END
