
#######################################################################
#
#                 Cambridge Crystallographic Data Centre
#                                CCDC 
#
#######################################################################
#
# If this CIF has been generated from an entry in the Cambridge 
# Structural Database, then it will include bibliographic, chemical, 
# crystal, experimental, refinement or atomic coordinate data resulting 
# from the CCDC's data processing and validation procedures.
#
#######################################################################

data_WOHJEJ
_symmetry_cell_setting           monoclinic
_symmetry_space_group_name_H-M   'P 21/c'
_symmetry_Int_Tables_number      14
_space_group_name_Hall           '-P 2ybc'
loop_
_symmetry_equiv_pos_site_id
_symmetry_equiv_pos_as_xyz
1 x,y,z
2 -x,1/2+y,1/2-z
3 -x,-y,-z
4 x,1/2-y,1/2+z
_cell_length_a                   14.2235(5)
_cell_length_b                   12.1001(5)
_cell_length_c                   29.2663(12)
_cell_angle_alpha                90
_cell_angle_beta                 94.027(2)
_cell_angle_gamma                90
_cell_volume                     5024.46
loop_
_atom_site_label
_atom_site_type_symbol
_atom_site_fract_x
_atom_site_fract_y
_atom_site_fract_z
Ag1 Ag 0.60655(5) 0.21309(7) 0.32298(2)
Ag2 Ag 0.63599(5) -0.05166(7) 0.19717(2)
N1 N 0.5038(5) 0.1363(6) 0.3704(2)
N2 N 0.5027(5) 0.0406(6) 0.2832(2)
N3 N 0.5002(5) 0.0278(6) 0.2378(2)
N4 N 0.5058(5) -0.0178(7) 0.1479(2)
N5 N 0.2491(5) 0.3749(7) 0.2541(2)
N6 N 0.4293(5) 0.2942(6) 0.2514(2)
N7 N 0.5216(5) 0.2752(6) 0.2525(2)
N8 N 0.7026(5) 0.2195(7) 0.2618(2)
N9 N -0.0111(8) 0.1024(11) 0.3673(5)
N10 N 0.2089(8) 0.4197(12) 0.0020(4)
N11 N 0.7317(6) 0.2386(8) 0.3805(3)
N12 N 0.7394(7) -0.0647(10) 0.1311(3)
C1 C 0.5186(7) 0.1483(8) 0.4161(3)
C2 C 0.4728(7) 0.0859(9) 0.4477(3)
C3 C 0.4097(7) 0.0074(9) 0.4316(3)
C4 C 0.3911(6) -0.0040(8) 0.3851(3)
C5 C 0.4384(6) 0.0608(8) 0.3555(3)
C6 C 0.4237(6) 0.0503(8) 0.3050(3)
C7 C 0.3329(6) 0.0461(7) 0.2805(3)
C8 C 0.3309(6) 0.0234(7) 0.2346(3)
C9 C 0.4165(6) 0.0178(7) 0.2129(3)
C10 C 0.4199(6) -0.0003(7) 0.1631(3)
C11 C 0.3412(7) 0.0044(9) 0.1331(3)
C12 C 0.3492(9) -0.0087(10) 0.0868(4)
C13 C 0.4363(8) -0.0236(9) 0.0712(3)
C14 C 0.5118(8) -0.0272(10) 0.1022(3)
C15 C 0.2436(6) 0.0635(8) 0.3029(3)
C16 C 0.2352(6) 0.1499(8) 0.3342(3)
C17 C 0.1508(8) 0.1616(10) 0.3554(4)
C18 C 0.0777(7) 0.0920(10) 0.3434(4)
C19 C 0.0827(7) 0.0139(11) 0.3110(4)
C20 C 0.1657(7) -0.0046(10) 0.2905(4)
C21 C 0.1591(6) 0.3725(8) 0.2633(3)
C22 C 0.0921(7) 0.3088(9) 0.2396(4)
C23 C 0.1175(7) 0.2482(9) 0.2027(4)
C24 C 0.2107(7) 0.2510(8) 0.1914(3)
C25 C 0.2748(6) 0.3148(8) 0.2182(3)
C26 C 0.3782(6) 0.3073(7) 0.2120(3)
C27 C 0.4189(6) 0.3080(7) 0.1694(3)
C28 C 0.5134(6) 0.2784(7) 0.1708(3)
C29 C 0.5633(6) 0.2610(7) 0.2136(3)
C30 C 0.6640(6) 0.2295(7) 0.2184(3)
C31 C 0.7162(7) 0.2058(9) 0.1811(3)
C32 C 0.8102(7) 0.1721(9) 0.1885(4)
C33 C 0.8491(7) 0.1648(8) 0.2323(4)
C34 C 0.7941(6) 0.1887(9) 0.2674(3)
C35 C 0.3665(6) 0.3394(8) 0.1255(3)
C36 C 0.3832(7) 0.2830(9) 0.0854(3)
C37 C 0.3332(7) 0.3112(10) 0.0445(3)
C38 C 0.2675(7) 0.3948(10) 0.0457(3)
C39 C 0.2512(7) 0.4532(9) 0.0838(4)
C40 C 0.3026(6) 0.4255(8) 0.1240(3)
C41 C 0.7793(7) 0.2548(9) 0.4120(3)
C42 C 0.8383(7) 0.2782(10) 0.4537(3)
C43 C 0.7881(7) -0.0438(11) 0.1039(3)
C44 C 0.8497(8) -0.0133(13) 0.0685(4)
O1 O -0.0056(7) 0.1546(10) 0.4029(4)
O2 O -0.0820(6) 0.0572(10) 0.3505(4)
O3 O 0.2250(7) 0.3680(11) -0.0320(3)
O4 O 0.1463(8) 0.4871(10) 0.0043(3)
H1 H 0.5634 0.2027 0.4276
H2 H 0.4855 0.0977 0.4800
H3 H 0.3785 -0.0386 0.4525
H4 H 0.3451 -0.0566 0.3732
H5 H 0.2719 0.0129 0.2171
H6 H 0.2802 0.0156 0.1444
H7 H 0.2942 -0.0062 0.0658
H8 H 0.4434 -0.0312 0.0390
H9 H 0.5730 -0.0375 0.0909
H10 H 0.2869 0.1998 0.3410
H11 H 0.1446 0.2186 0.3778
H12 H 0.0281 -0.0294 0.3017
H13 H 0.1705 -0.0620 0.2681
H14 H 0.1401 0.4169 0.2882
H15 H 0.0286 0.3079 0.2486
H16 H 0.0717 0.2045 0.1851
H17 H 0.2306 0.2103 0.1656
H18 H 0.5448 0.2700 0.1430
H19 H 0.6878 0.2122 0.1505
H20 H 0.8466 0.1549 0.1630
H21 H 0.9135 0.1422 0.2384
H22 H 0.8225 0.1848 0.2981
H23 H 0.4298 0.2255 0.0860
H24 H 0.3436 0.2730 0.0166
H25 H 0.2052 0.5113 0.0830
H26 H 0.2940 0.4672 0.1513
H27 H 0.8949 0.2351 0.4537
H28 H 0.8540 0.3554 0.4546
H29 H 0.8049 0.2596 0.4800
H30 H 0.8694 -0.0785 0.0531
H31 H 0.8171 0.0351 0.0467
H32 H 0.9039 0.0239 0.0825
Ag2A Ag 0.36401(5) 0.44834(7) 0.30283(2)
N5A N 0.7509(5) -0.1251(7) 0.2459(2)
N6A N 0.5707(5) -0.2058(6) 0.2486(2)
C45 C -0.1547(9) 0.3549(14) 0.0866(5)
C46 C -0.0524(9) 0.3455(10) 0.0781(7)
C47 C 0.0656(9) 0.2169(17) 0.0736(9)
C48 C 0.0836(13) 0.150(2) 0.0330(7)
O5 O -0.0308(7) 0.2348(9) 0.0756(6)
H33 H -0.1709 0.4318 0.0877
H34 H -0.1659 0.3207 0.1153
H35 H -0.1927 0.3195 0.0624
H36 H -0.0141 0.3806 0.1022
H37 H -0.0409 0.3794 0.0494
H38 H 0.0972 0.2868 0.0721
H39 H 0.0891 0.1780 0.1007
H40 H 0.1504 0.1393 0.0327
H41 H 0.0609 0.1885 0.0058
H42 H 0.0528 0.0797 0.0343
B1 B 0.0542(5) -0.0606(7) 0.1615(3)
F1 F -0.0151(4) 0.0115(5) 0.1715(3)
F9 F 0.0250(10) -0.1665(7) 0.1689(6)
F10 F 0.0744(11) -0.0512(13) 0.1166(3)
F11 F 0.1342(7) -0.0393(14) 0.1882(5)
B2 B 0.6140(9) 0.2015(12) 0.0312(4)
F5 F 0.6537(5) 0.2870(6) 0.00660(19)
F6 F 0.6673(5) 0.1056(6) 0.0255(2)
F7 F 0.5216(4) 0.1843(6) 0.0147(2)
F8 F 0.6167(5) 0.2295(6) 0.07680(18)
F2? F 0.0344(10) -0.1030(12) 0.1190(4)
F3? F 0.1382(5) -0.0053(10) 0.1633(5)
F4? F 0.0616(10) -0.1445(10) 0.1928(5)
loop_
_geom_bond_atom_site_label_1
_geom_bond_atom_site_label_2
_geom_bond_site_symmetry_1
_geom_bond_site_symmetry_2
Ag1 N1 1_555 1_555
Ag2 N3 1_555 1_555
N1 C1 1_555 1_555
N2 Ag1 1_555 1_555
N3 N2 1_555 1_555
N4 Ag2 1_555 1_555
N5 C21 1_555 1_555
N6 N7 1_555 1_555
N7 Ag1 1_555 1_555
N8 Ag1 1_555 1_555
N9 C18 1_555 1_555
N10 C38 1_555 1_555
N11 Ag1 1_555 1_555
N12 Ag2 1_555 1_555
C1 C2 1_555 1_555
C2 C3 1_555 1_555
C3 C4 1_555 1_555
C4 C5 1_555 1_555
C5 N1 1_555 1_555
C6 N2 1_555 1_555
C7 C6 1_555 1_555
C8 C7 1_555 1_555
C9 N3 1_555 1_555
C10 N4 1_555 1_555
C11 C10 1_555 1_555
C12 C11 1_555 1_555
C13 C12 1_555 1_555
C14 N4 1_555 1_555
C15 C7 1_555 1_555
C16 C15 1_555 1_555
C17 C16 1_555 1_555
C18 C17 1_555 1_555
C19 C18 1_555 1_555
C20 C15 1_555 1_555
C21 C22 1_555 1_555
C22 C23 1_555 1_555
C23 C24 1_555 1_555
C24 C25 1_555 1_555
C25 N5 1_555 1_555
C26 N6 1_555 1_555
C27 C26 1_555 1_555
C28 C27 1_555 1_555
C29 N7 1_555 1_555
C30 N8 1_555 1_555
C31 C30 1_555 1_555
C32 C31 1_555 1_555
C33 C32 1_555 1_555
C34 N8 1_555 1_555
C35 C27 1_555 1_555
C36 C35 1_555 1_555
C37 C36 1_555 1_555
C38 C37 1_555 1_555
C39 C38 1_555 1_555
C40 C35 1_555 1_555
C41 N11 1_555 1_555
C42 C41 1_555 1_555
C43 N12 1_555 1_555
C44 C43 1_555 1_555
C45 C46 1_555 1_555
C46 O5 1_555 1_555
C47 C48 1_555 1_555
C48 H40 1_555 1_555
O1 N9 1_555 1_555
O2 N9 1_555 1_555
O3 N10 1_555 1_555
O4 N10 1_555 1_555
O5 C47 1_555 1_555
B1 F1 1_555 1_555
B2 F5 1_555 1_555
F6 B2 1_555 1_555
F7 B2 1_555 1_555
F8 B2 1_555 1_555
F9 B1 1_555 1_555
F10 B1 1_555 1_555
F11 B1 1_555 1_555
H1 C1 1_555 1_555
H2 C2 1_555 1_555
H3 C3 1_555 1_555
H4 C4 1_555 1_555
H5 C8 1_555 1_555
H6 C11 1_555 1_555
H7 C12 1_555 1_555
H8 C13 1_555 1_555
H9 C14 1_555 1_555
H10 C16 1_555 1_555
H11 C17 1_555 1_555
H12 C19 1_555 1_555
H13 C20 1_555 1_555
H14 C21 1_555 1_555
H15 C22 1_555 1_555
H16 C23 1_555 1_555
H17 C24 1_555 1_555
H18 C28 1_555 1_555
H19 C31 1_555 1_555
H20 C32 1_555 1_555
H21 C33 1_555 1_555
H22 C34 1_555 1_555
H23 C36 1_555 1_555
H24 C37 1_555 1_555
H25 C39 1_555 1_555
H26 C40 1_555 1_555
H27 C42 1_555 1_555
H28 C42 1_555 1_555
H29 C42 1_555 1_555
H30 C44 1_555 1_555
H31 C44 1_555 1_555
H32 C44 1_555 1_555
H33 C45 1_555 1_555
H34 C45 1_555 1_555
H35 C45 1_555 1_555
H36 C46 1_555 1_555
H37 C46 1_555 1_555
H38 C47 1_555 1_555
H39 C47 1_555 1_555
H41 C48 1_555 1_555
H42 C48 1_555 1_555
Ag2A N5 1_555 1_555
N5A Ag2 1_555 1_555
N6A Ag2 1_555 1_555
N6 Ag2A 1_555 1_555
C5 C6 1_555 1_555
C8 C9 1_555 1_555
C9 C10 1_555 1_555
C13 C14 1_555 1_555
C19 C20 1_555 1_555
C25 C26 1_555 1_555
C28 C29 1_555 1_555
C29 C30 1_555 1_555
C33 C34 1_555 1_555
C39 C40 1_555 1_555

#END
