
#######################################################################
#
#                 Cambridge Crystallographic Data Centre
#                                CCDC 
#
#######################################################################
#
# If this CIF has been generated from an entry in the Cambridge 
# Structural Database, then it will include bibliographic, chemical, 
# crystal, experimental, refinement or atomic coordinate data resulting 
# from the CCDC's data processing and validation procedures.
#
#######################################################################

data_WOHKAH
_symmetry_cell_setting           monoclinic
_symmetry_space_group_name_H-M   'P 21/c'
_symmetry_Int_Tables_number      14
_space_group_name_Hall           '-P 2ybc'
loop_
_symmetry_equiv_pos_site_id
_symmetry_equiv_pos_as_xyz
1 x,y,z
2 -x,1/2+y,1/2-z
3 -x,-y,-z
4 x,1/2-y,1/2+z
_cell_length_a                   12.0612(7)
_cell_length_b                   19.6783(11)
_cell_length_c                   16.3392(7)
_cell_angle_alpha                90
_cell_angle_beta                 116.804(3)
_cell_angle_gamma                90
_cell_volume                     3461.33
loop_
_atom_site_label
_atom_site_type_symbol
_atom_site_fract_x
_atom_site_fract_y
_atom_site_fract_z
O28 O 0.9194(16) 0.2165(8) 0.3455(14)
H15 H 0.889(17) 0.185(5) 0.307(8)
H16 H 0.886(15) 0.253(4) 0.321(10)
W1 W 1.45248(6) 0.17526(3) 0.45116(5)
Cu1 Cu 1.1297(2) 0.14132(11) 0.05085(15)
Si1 Si 1.5000 0.0000 0.5000
O1 O 0.9833(14) 0.2826(8) 0.1534(12)
N1 N 0.9430(15) 0.1406(8) 0.0060(11)
C1 C 0.8596(19) 0.0959(10) -0.0471(14)
H1 H 0.8875 0.0617 -0.0725
W2 W 1.26368(6) 0.05437(4) 0.28721(4)
Cu2 Cu 1.1018(3) 0.31722(12) 0.27227(17)
O2 O 1.2445(15) 0.2997(7) 0.2287(10)
N2 N 1.1146(15) 0.2232(9) 0.1078(11)
C2 C 0.739(2) 0.0951(11) -0.0676(14)
H2 H 0.6819 0.0639 -0.1071
N3 N 1.3095(15) 0.1665(7) 0.1092(10)
C3 C 0.7080(19) 0.1475(10) -0.0218(13)
H3 H 0.6300 0.1457 -0.0234
O3 O 1.1365(16) 0.4352(7) 0.4737(11)
W3 W 1.31396(7) -0.12049(4) 0.33486(5)
O4 O 1.1155(16) 0.3468(7) 0.3910(10)
N4 N 1.089(2) 0.4143(8) 0.2447(14)
C4 C 0.785(2) 0.2020(14) 0.0256(19)
H4 H 0.7583 0.2409 0.0435
O5 O 1.1144(15) 0.2199(7) 0.3157(10)
C5 C 0.9100(19) 0.1904(9) 0.0430(12)
C6 C 1.011(2) 0.2381(11) 0.1085(14)
O6 O 1.422(2) -0.0983(10) 0.2820(19)
W4 W 1.76880(6) -0.07971(4) 0.51087(5)
C7 C 1.2262(19) 0.2536(10) 0.1702(12)
O7 O 1.642(3) 0.0537(12) 0.3498(17)
W5 W 1.72153(7) 0.09604(4) 0.46434(5)
O8 O 1.810(2) 0.0121(10) 0.5090(15)
C8 C 1.3377(19) 0.2191(11) 0.1648(15)
O9 O 1.2300(17) -0.0385(10) 0.2841(14)
C9 C 1.4519(19) 0.2456(11) 0.2160(15)
H5 H 1.4642 0.2860 0.2485
O10 O 1.8220(17) -0.0687(10) 0.6409(13)
C10 C 1.553(2) 0.2066(11) 0.2162(15)
H6 H 1.6347 0.2185 0.2539
W6 W 1.53560(8) -0.02326(4) 0.29937(5)
O11 O 1.3897(17) 0.0312(10) 0.2497(16)
C11 C 1.524(2) 0.1513(14) 0.1591(18)
H7 H 1.5879 0.1277 0.1546
O12 O 1.6739(16) -0.1576(12) 0.5122(11)
C12 C 1.4070(19) 0.1307(11) 0.1098(15)
H8 H 1.3915 0.0913 0.0750
O13 O 1.4366(14) -0.1748(9) 0.4237(10)
C13 C 1.1159(19) 0.4516(9) 0.3212(14)
O14 O 1.7628(15) 0.1176(9) 0.5867(10)
C14 C 1.0850(19) 0.4441(10) 0.1752(12)
H9 H 1.0771 0.4182 0.1253
O15 O 1.3515(14) 0.1359(9) 0.3383(11)
C15 C 1.0918(19) 0.5146(10) 0.1706(12)
H10 H 1.0855 0.5351 0.1174
O16 O 1.5900(15) 0.1581(10) 0.4252(10)
C16 C 1.1079(19) 0.5544(10) 0.2457(12)
H11 H 1.1065 0.6015 0.2410
O17 O 1.4245(14) 0.2591(7) 0.4265(9)
C17 C 1.1265(19) 0.5235(11) 0.3292(15)
H12 H 1.1435 0.5474 0.3827
O18 O 1.2187(16) -0.1739(8) 0.2495(10)
C18 C 1.1260(16) 0.4104(8) 0.4025(11)
O19 O 1.8964(13) -0.1195(8) 0.5177(12)
O20 O 1.1532(14) 0.0771(9) 0.1856(10)
O21 O 1.8274(13) 0.1416(9) 0.4504(12)
O22 O 1.5540(16) -0.0335(7) 0.2041(9)
O23 O 1.670(2) -0.0806(9) 0.3792(15)
O24 O 1.603(3) 0.0001(13) 0.4600(17)
O25 O 1.560(2) 0.0719(12) 0.5158(15)
O26 O 1.573(3) 0.0166(14) 0.6034(18)
O27 O 1.602(2) -0.0577(11) 0.5547(17)
H13 H 1.082(13) 0.205(2) 0.348(9)
H14 H 1.106(17) 0.191(6) 0.275(9)
O24B O 1.397(3) -0.0001(13) 0.5400(17)
O25B O 1.440(2) -0.0719(12) 0.4842(15)
O26B O 1.427(3) -0.0166(14) 0.3966(18)
O27B O 1.398(2) 0.0577(11) 0.4453(17)
W1B W 1.54752(6) -0.17526(3) 0.54884(5)
Cu1B Cu 1.8703(2) -0.14132(11) 0.94915(15)
O1B O 2.0167(14) -0.2826(8) 0.8466(12)
N1B N 2.0570(15) -0.1406(8) 0.9940(11)
C1B C 2.1404(19) -0.0959(10) 1.0471(14)
H1B H 2.1125 -0.0617 1.0725
W2B W 1.73632(6) -0.05437(4) 0.71279(4)
Cu2B Cu 1.8982(3) -0.31722(12) 0.72773(17)
O2B O 1.7555(15) -0.2997(7) 0.7713(10)
N2B N 1.8854(15) -0.2232(9) 0.8922(11)
C2B C 2.261(2) -0.0951(11) 1.0676(14)
H2B H 2.3181 -0.0639 1.1071
N3B N 1.6905(15) -0.1665(7) 0.8908(10)
C3B C 2.2920(19) -0.1475(10) 1.0218(13)
H3B H 2.3700 -0.1457 1.0234
O3B O 1.8635(16) -0.4352(7) 0.5263(11)
W3B W 1.68604(7) 0.12049(4) 0.66514(5)
O4B O 1.8845(16) -0.3468(7) 0.6090(10)
N4B N 1.911(2) -0.4143(8) 0.7553(14)
C4B C 2.215(2) -0.2020(14) 0.9744(19)
H4B H 2.2417 -0.2409 0.9565
O5B O 1.8856(15) -0.2199(7) 0.6843(10)
C5B C 2.0900(19) -0.1904(9) 0.9570(12)
C6B C 1.989(2) -0.2381(11) 0.8915(14)
O6B O 1.578(2) 0.0983(10) 0.7180(19)
W4B W 1.23120(6) 0.07971(4) 0.48913(5)
C7B C 1.7738(19) -0.2536(10) 0.8298(12)
O7B O 1.358(3) -0.0537(12) 0.6502(17)
W5B W 1.27847(7) -0.09604(4) 0.53566(5)
O8B O 1.190(2) -0.0121(10) 0.4910(15)
C8B C 1.6623(19) -0.2191(11) 0.8352(15)
O9B O 1.7700(17) 0.0385(10) 0.7159(14)
C9B C 1.5481(19) -0.2456(11) 0.7840(15)
H5B H 1.5358 -0.2860 0.7515
O10B O 1.1780(17) 0.0687(10) 0.3591(13)
C10B C 1.447(2) -0.2066(11) 0.7838(15)
H6B H 1.3653 -0.2185 0.7461
W6B W 1.46440(8) 0.02326(4) 0.70063(5)
O11B O 1.6103(17) -0.0312(10) 0.7503(16)
C11B C 1.476(2) -0.1513(14) 0.8409(18)
H7B H 1.4121 -0.1277 0.8454
O12B O 1.3261(16) 0.1576(12) 0.4878(11)
C12B C 1.5930(19) -0.1307(11) 0.8902(15)
H8B H 1.6085 -0.0913 0.9250
O13B O 1.5634(14) 0.1748(9) 0.5763(10)
C13B C 1.8841(19) -0.4516(9) 0.6788(14)
O14B O 1.2372(15) -0.1176(9) 0.4133(10)
C14B C 1.9150(19) -0.4441(10) 0.8248(12)
H9B H 1.9229 -0.4182 0.8747
O15B O 1.6485(14) -0.1359(9) 0.6617(11)
C15B C 1.9082(19) -0.5146(10) 0.8294(12)
H10B H 1.9145 -0.5351 0.8826
O16B O 1.4100(15) -0.1581(10) 0.5748(10)
C16B C 1.8921(19) -0.5544(10) 0.7543(12)
H11B H 1.8935 -0.6015 0.7590
O17B O 1.5755(14) -0.2591(7) 0.5735(9)
C17B C 1.8735(19) -0.5235(11) 0.6708(15)
H12B H 1.8565 -0.5474 0.6173
O18B O 1.7813(16) 0.1739(8) 0.7505(10)
C18B C 1.8740(16) -0.4104(8) 0.5975(11)
O19B O 1.1036(13) 0.1195(8) 0.4823(12)
O20B O 1.8468(14) -0.0771(9) 0.8144(10)
O21B O 1.1726(13) -0.1416(9) 0.5496(12)
O22B O 1.4460(16) 0.0335(7) 0.7959(9)
O23B O 1.330(2) 0.0806(9) 0.6208(15)
H13B H 1.918(13) -0.205(2) 0.652(9)
H14B H 1.894(17) -0.191(6) 0.725(9)
Cu1A Cu 1.8703(2) -0.35868(11) 0.44915(15)
Cu1C Cu 1.1297(2) 0.35868(11) 0.55085(15)
O3A O 1.8635(16) -0.0648(7) 1.0263(11)
O3C O 1.1365(16) 0.0648(7) -0.0263(11)
O4A O 1.8845(16) -0.1532(7) 1.1090(10)
O4C O 1.1155(16) 0.1532(7) -0.1090(10)
loop_
_geom_bond_atom_site_label_1
_geom_bond_atom_site_label_2
_geom_bond_site_symmetry_1
_geom_bond_site_symmetry_2
W1 O15 1_555 1_555
Cu1 N1 1_555 1_555
Si1 O24 1_555 1_555
O1 Cu2 1_555 1_555
N1 C1 1_555 1_555
C1 H1 1_555 1_555
W2 O9 1_555 1_555
Cu2 O2 1_555 1_555
O2 C7 1_555 1_555
N2 Cu1 1_555 1_555
C2 C1 1_555 1_555
H2 C2 1_555 1_555
N3 Cu1 1_555 1_555
C3 C2 1_555 1_555
H3 C3 1_555 1_555
O3 C18 1_555 1_555
W3 O6 1_555 1_555
O4 Cu2 1_555 1_555
N4 Cu2 1_555 1_555
C4 C3 1_555 1_555
H4 C4 1_555 1_555
O5 Cu2 1_555 1_555
C5 N1 1_555 1_555
C6 O1 1_555 1_555
O6 W6 1_555 1_555
W4 O8 1_555 1_555
C7 N2 1_555 1_555
O7 W5 1_555 1_555
W5 O8 1_555 1_555
C8 N3 1_555 1_555
O9 W3 1_555 1_555
C9 C8 1_555 1_555
H5 C9 1_555 1_555
O10 W4 1_555 1_555
C10 C9 1_555 1_555
H6 C10 1_555 1_555
W6 O7 1_555 1_555
O11 W2 1_555 1_555
C11 C10 1_555 1_555
H7 C11 1_555 1_555
O12 W4 1_555 1_555
C12 N3 1_555 1_555
H8 C12 1_555 1_555
O13 W3 1_555 1_555
C13 N4 1_555 1_555
O14 W5 1_555 1_555
C14 N4 1_555 1_555
H9 C14 1_555 1_555
O15 W2 1_555 1_555
C15 C14 1_555 1_555
H10 C15 1_555 1_555
O16 W1 1_555 1_555
C16 C15 1_555 1_555
H11 C16 1_555 1_555
O17 W1 1_555 1_555
C17 C13 1_555 1_555
H12 C17 1_555 1_555
O18 W3 1_555 1_555
C18 O4 1_555 1_555
O19 W4 1_555 1_555
O20 Cu1 1_555 1_555
O21 W5 1_555 1_555
O22 W6 1_555 1_555
O23 W4 1_555 1_555
O24 W4 1_555 1_555
O25 W1 1_555 1_555
O26 Si1 1_555 1_555
O27 Si1 1_555 1_555
H13 O5 1_555 1_555
H14 O5 1_555 1_555
O28 H15 1_555 1_555
H16 O28 1_555 1_555
O24B Si1 1_555 1_555
O25B Si1 1_555 1_555
O26B Si1 1_555 1_555
O27B W1 1_555 1_555
W1B O12 1_555 1_555
Cu1B N1B 1_555 1_555
O1B Cu2B 1_555 1_555
N1B C1B 1_555 1_555
C1B H1B 1_555 1_555
W2B O10 1_555 1_555
Cu2B O2B 1_555 1_555
O2B C7B 1_555 1_555
N2B Cu1B 1_555 1_555
C2B C1B 1_555 1_555
H2B C2B 1_555 1_555
N3B Cu1B 1_555 1_555
C3B C2B 1_555 1_555
H3B C3B 1_555 1_555
O3B C18B 1_555 1_555
W3B O14 1_555 1_555
O4B Cu2B 1_555 1_555
N4B Cu2B 1_555 1_555
C4B C3B 1_555 1_555
H4B C4B 1_555 1_555
O5B Cu2B 1_555 1_555
C5B N1B 1_555 1_555
C6B O1B 1_555 1_555
O6B W3B 1_555 1_555
W4B O24B 1_555 1_555
C7B N2B 1_555 1_555
O7B W5B 1_555 1_555
W5B O24B 1_555 1_555
O8B W4B 1_555 1_555
C8B N3B 1_555 1_555
O9B W2B 1_555 1_555
C9B C8B 1_555 1_555
H5B C9B 1_555 1_555
O10B W2 1_555 1_555
C10B C9B 1_555 1_555
H6B C10B 1_555 1_555
W6B O26 1_555 1_555
O11B W2B 1_555 1_555
C11B C10B 1_555 1_555
H7B C11B 1_555 1_555
O12B W1 1_555 1_555
C12B N3B 1_555 1_555
H8B C12B 1_555 1_555
O13B W1 1_555 1_555
C13B N4B 1_555 1_555
O14B W3 1_555 1_555
C14B N4B 1_555 1_555
H9B C14B 1_555 1_555
O15B W1B 1_555 1_555
C15B C14B 1_555 1_555
H10B C15B 1_555 1_555
O16B W1B 1_555 1_555
C16B C15B 1_555 1_555
H11B C16B 1_555 1_555
O17B W1B 1_555 1_555
C17B C13B 1_555 1_555
H12B C17B 1_555 1_555
O18B W3B 1_555 1_555
C18B O4B 1_555 1_555
O19B W4B 1_555 1_555
O20B Cu1B 1_555 1_555
O21B W5B 1_555 1_555
O22B W6B 1_555 1_555
O23B W4B 1_555 1_555
H13B O5B 1_555 1_555
H14B O5B 1_555 1_555
Cu1A O3B 1_555 1_555
Cu1C O3 1_555 1_555
O3A Cu1B 1_555 1_555
O3C Cu1 1_555 1_555
O4A Cu1B 1_555 1_555
O4C Cu1 1_555 1_555
Si1 O25 1_555 1_555
Si1 O27B 1_555 1_555
W2 O20 1_555 1_555
W2 O26B 1_555 1_555
W2 O27B 1_555 1_555
N2 C6 1_555 1_555
W3 O25B 1_555 1_555
W3 O26B 1_555 1_555
O4 Cu1C 1_555 1_555
C4 C5 1_555 1_555
C5 C6 1_555 1_555
W4 O27 1_555 1_555
C7 C8 1_555 1_555
W5 O16 1_555 1_555
W5 O24 1_555 1_555
W5 O25 1_555 1_555
W6 O11 1_555 1_555
W6 O23 1_555 1_555
W6 O24 1_555 1_555
W6 O26B 1_555 1_555
C11 C12 1_555 1_555
O13 W1B 1_555 1_555
C13 C18 1_555 1_555
C16 C17 1_555 1_555
O25 O26 1_555 1_555
O25 O27B 1_555 1_555
O25 W3B 1_555 1_555
O26 O27 1_555 1_555
O26 W2B 1_555 1_555
O26 W3B 1_555 1_555
O27 O25B 1_555 1_555
O27 W1B 1_555 1_555
O27 W2B 1_555 1_555
O24B W6B 1_555 1_555
O25B O26B 1_555 1_555
O25B W1B 1_555 1_555
O25B W5B 1_555 1_555
O26B O27B 1_555 1_555
O27B W4B 1_555 1_555
W2B O15B 1_555 1_555
W2B O20B 1_555 1_555
N2B C6B 1_555 1_555
W3B O9B 1_555 1_555
W3B O13B 1_555 1_555
O4B Cu1A 1_555 1_555
C4B C5B 1_555 1_555
C5B C6B 1_555 1_555
O6B W6B 1_555 1_555
W4B O10B 1_555 1_555
W4B O12B 1_555 1_555
C7B C8B 1_555 1_555
O7B W6B 1_555 1_555
W5B O8B 1_555 1_555
W5B O14B 1_555 1_555
W5B O16B 1_555 1_555
W6B O11B 1_555 1_555
W6B O23B 1_555 1_555
C11B C12B 1_555 1_555
C13B C18B 1_555 1_555
C16B C17B 1_555 1_555

#END
