
#######################################################################
#
#                 Cambridge Crystallographic Data Centre
#                                CCDC 
#
#######################################################################
#
# If this CIF has been generated from an entry in the Cambridge 
# Structural Database, then it will include bibliographic, chemical, 
# crystal, experimental, refinement or atomic coordinate data resulting 
# from the CCDC's data processing and validation procedures.
#
#######################################################################

data_WOHKOU
_symmetry_cell_setting           monoclinic
_symmetry_space_group_name_H-M   'P 21/n'
_symmetry_Int_Tables_number      14
_space_group_name_Hall           '-P 2yn'
loop_
_symmetry_equiv_pos_site_id
_symmetry_equiv_pos_as_xyz
1 x,y,z
2 1/2-x,1/2+y,1/2-z
3 -x,-y,-z
4 1/2+x,1/2-y,1/2+z
_cell_length_a                   13.3921(4)
_cell_length_b                   7.6541(3)
_cell_length_c                   16.1897(6)
_cell_angle_alpha                90
_cell_angle_beta                 94.1314(17)
_cell_angle_gamma                90
_cell_volume                     1655.2
loop_
_atom_site_label
_atom_site_type_symbol
_atom_site_fract_x
_atom_site_fract_y
_atom_site_fract_z
Cu1 Cu 0.50309(3) 0.22767(6) 0.50901(3)
S1 S 0.41165(7) 0.07838(13) 0.41096(5)
Cu2 Cu 0.37847(4) 0.06419(9) 0.27466(3)
Cl1 Cl 0.25808(7) -0.17154(13) 0.24404(6)
Cl2 Cl 0.48506(9) 0.07880(16) 0.17727(7)
C1 C 0.3021(3) 0.0675(5) 0.4668(2)
N1 N 0.2972(2) 0.1231(4) 0.54396(19)
N2 N 0.3850(2) 0.2026(4) 0.57331(19)
C2 C 0.3946(3) 0.2652(5) 0.6474(2)
C3 C 0.4895(3) 0.3572(5) 0.6681(2)
N3 N 0.5487(2) 0.3558(4) 0.60893(18)
N4 N 0.6393(2) 0.4371(4) 0.6125(2)
C4 C 0.6915(3) 0.4286(5) 0.5436(2)
S2 S 0.64246(7) 0.33293(13) 0.45396(5)
N5 N 0.7821(2) 0.4985(4) 0.5507(2)
C5 C 0.8483(3) 0.5120(6) 0.4838(3)
C6 C 0.5086(3) 0.4511(6) 0.7491(2)
C7 C 0.4111(4) 0.4852(7) 0.7896(3)
C8 C 0.3466(3) 0.3274(7) 0.7916(3)
C9 C 0.3146(3) 0.2535(6) 0.7080(3)
N6 N 0.2220(2) -0.0066(4) 0.4278(2)
C10 C 0.1286(3) -0.0333(6) 0.4660(3)
H1 H 0.9146 0.5230 0.5084
H2 H 0.8432 0.4091 0.4499
H3 H 0.8304 0.6149 0.4515
H4 H 0.5517 0.3795 0.7857
H5 H 0.5428 0.5622 0.7390
H6 H 0.4261 0.5295 0.8455
H7 H 0.3728 0.5744 0.7573
H8 H 0.3877 0.2356 0.8206
H9 H 0.2887 0.3523 0.8216
H10 H 0.2950 0.1322 0.7131
H11 H 0.2593 0.3222 0.6854
H12 H 0.0848 -0.1061 0.4309
H13 H 0.1413 -0.0894 0.5185
H14 H 0.0964 0.0776 0.4730
H15 H 0.6612 0.4933 0.6559
H16 H 0.8026 0.5417 0.5979
H17 H 0.2246 -0.0366 0.3773
Cu1B Cu 0.49691(3) -0.22767(6) 0.49099(3)
S1B S 0.58835(7) -0.07838(13) 0.58904(5)
Cu2A Cu 0.12153(4) -0.43581(9) 0.22534(3)
Cl1A Cl 0.24192(7) 0.32846(13) 0.25596(6)
loop_
_geom_bond_atom_site_label_1
_geom_bond_atom_site_label_2
_geom_bond_site_symmetry_1
_geom_bond_site_symmetry_2
Cu1 S1 1_555 1_555
S1 Cu2 1_555 1_555
Cu2 Cl1 1_555 1_555
Cl1 Cu2A 1_555 1_555
Cl2 Cu2 1_555 1_555
C1 S1 1_555 1_555
N1 C1 1_555 1_555
N2 Cu1 1_555 1_555
C2 N2 1_555 1_555
C3 C2 1_555 1_555
N3 Cu1 1_555 1_555
N4 N3 1_555 1_555
C4 N4 1_555 1_555
S2 Cu1 1_555 1_555
N5 C4 1_555 1_555
C5 N5 1_555 1_555
C6 C3 1_555 1_555
C7 C6 1_555 1_555
C8 C7 1_555 1_555
C9 C2 1_555 1_555
N6 C1 1_555 1_555
C10 N6 1_555 1_555
H1 C5 1_555 1_555
H2 C5 1_555 1_555
H3 C5 1_555 1_555
H4 C6 1_555 1_555
H5 C6 1_555 1_555
H6 C7 1_555 1_555
H7 C7 1_555 1_555
H8 C8 1_555 1_555
H9 C8 1_555 1_555
H10 C9 1_555 1_555
H11 C9 1_555 1_555
H12 C10 1_555 1_555
H13 C10 1_555 1_555
H14 C10 1_555 1_555
H15 N4 1_555 1_555
H16 N5 1_555 1_555
H17 N6 1_555 1_555
Cu1B S1 1_555 1_555
S1B Cu1 1_555 1_555
Cl1A Cu2 1_555 1_555
N1 N2 1_555 1_555
C3 N3 1_555 1_555
C4 S2 1_555 1_555
C8 C9 1_555 1_555
Cu1B S1B 1_555 1_555

#END
