
#######################################################################
#
#                 Cambridge Crystallographic Data Centre
#                                CCDC 
#
#######################################################################
#
# If this CIF has been generated from an entry in the Cambridge 
# Structural Database, then it will include bibliographic, chemical, 
# crystal, experimental, refinement or atomic coordinate data resulting 
# from the CCDC's data processing and validation procedures.
#
#######################################################################

data_WOHKAG
_symmetry_cell_setting           monoclinic
_symmetry_space_group_name_H-M   'C 2/c'
_symmetry_Int_Tables_number      15
_space_group_name_Hall           '-C 2yn'
loop_
_symmetry_equiv_pos_site_id
_symmetry_equiv_pos_as_xyz
1 x,y,z
2 1/2+x,1/2+y,z
3 -x,y,1/2-z
4 1/2-x,1/2+y,1/2-z
5 -x,-y,-z
6 1/2-x,1/2-y,-z
7 x,-y,1/2+z
8 1/2+x,1/2-y,1/2+z
_cell_length_a                   25.5134(2)
_cell_length_b                   11.6105(1)
_cell_length_c                   17.6852(2)
_cell_angle_alpha                90
_cell_angle_beta                 122.0663(4)
_cell_angle_gamma                90
_cell_volume                     4439.51
loop_
_atom_site_label
_atom_site_type_symbol
_atom_site_fract_x
_atom_site_fract_y
_atom_site_fract_z
Ag1 Ag 0.5000 0.61695(3) 0.7500
Ag2 Ag 0.467057(10) 0.382838(19) 0.421516(13)
N1 N 0.45054(10) 0.20521(19) 0.44961(14)
N2 N 0.50404(9) 0.36929(18) 0.57845(13)
N3 N 0.59586(10) 0.6111(2) 0.79407(14)
N4 N 0.54026(10) 0.44952(18) 0.63804(14)
C1 C 0.41711(13) 0.1284(2) 0.38456(17)
C2 C 0.40088(14) 0.0217(2) 0.4002(2)
C3 C 0.41915(14) -0.0078(2) 0.4861(2)
C4 C 0.45379(13) 0.0702(2) 0.55374(19)
C5 C 0.46899(12) 0.1758(2) 0.53418(17)
C6 C 0.50739(12) 0.2609(2) 0.60565(17)
C7 C 0.54434(12) 0.2296(2) 0.69517(17)
C8 C 0.58098(12) 0.3123(2) 0.75769(17)
C9 C 0.57851(12) 0.4237(2) 0.72379(16)
C10 C 0.62082(12) 0.5191(2) 0.77850(16)
C11 C 0.68334(13) 0.5126(3) 0.80944(19)
C12 C 0.72113(13) 0.6043(3) 0.85799(19)
C13 C 0.69593(14) 0.6984(3) 0.87419(19)
C14 C 0.63317(13) 0.6990(2) 0.84211(18)
C15 C 0.61972(12) 0.2863(2) 0.85418(17)
C16 C 0.62414(12) 0.3640(2) 0.91747(16)
C17 C 0.65855(12) 0.3391(2) 1.00796(17)
C18 C 0.68966(13) 0.2341(3) 1.03604(17)
C19 C 0.68619(13) 0.1560(3) 0.97394(18)
C20 C 0.65110(13) 0.1810(2) 0.88412(18)
C21 C 0.72971(17) 0.2810(3) 1.1888(2)
O1 O 0.72475(10) 0.2018(2) 1.12321(13)
H1 H 0.4048 0.1492 0.3259
H2 H 0.3778 -0.0300 0.3528
H3 H 0.4101 -0.0806 0.4990
H4 H 0.4660 0.0528 0.6128
H5 H 0.5450 0.1533 0.7133
H6 H 0.6990 0.4477 0.7967
H7 H 0.7636 0.6024 0.8791
H8 H 0.7211 0.7608 0.9075
H9 H 0.6154 0.7620 0.8538
H10 H 0.6032 0.4351 0.8985
H11 H 0.6605 0.3921 1.0495
H12 H 0.7077 0.0859 0.9932
H13 H 0.6483 0.1270 0.8426
H14 H 0.7563 0.2463 1.2475
H15 H 0.6888 0.2958 1.1786
H16 H 0.7478 0.3528 1.1851
Ag2B Ag 0.532943(10) 0.382838(19) 1.078484(13)
Ag2D Ag 0.532943(10) 0.617162(19) 0.578484(13)
Ag2F Ag 0.467057(10) 0.617162(19) 0.921516(13)
N1B N 0.54946(10) 0.20521(19) 1.05039(14)
N2B N 0.49596(9) 0.36929(18) 0.92155(13)
N3B N 0.40414(10) 0.6111(2) 0.70593(14)
N4B N 0.45974(10) 0.44952(18) 0.86196(14)
N4D N 0.45974(10) 0.55048(18) 0.36196(14)
N4F N 0.54026(10) 0.55048(18) 1.13804(14)
C1B C 0.58289(13) 0.1284(2) 1.11544(17)
C2B C 0.59912(14) 0.0217(2) 1.0998(2)
C3B C 0.58085(14) -0.0078(2) 1.0139(2)
C4B C 0.54621(13) 0.0702(2) 0.94626(19)
C5B C 0.53101(12) 0.1758(2) 0.96582(17)
C6B C 0.49261(12) 0.2609(2) 0.89435(17)
C7B C 0.45566(12) 0.2296(2) 0.80483(17)
C8B C 0.41902(12) 0.3123(2) 0.74231(17)
C9B C 0.42149(12) 0.4237(2) 0.77621(16)
C10B C 0.37918(12) 0.5191(2) 0.72150(16)
C11B C 0.31666(13) 0.5126(3) 0.69056(19)
C12B C 0.27887(13) 0.6043(3) 0.64201(19)
C13B C 0.30407(14) 0.6984(3) 0.62581(19)
C14B C 0.36683(13) 0.6990(2) 0.65789(18)
C15B C 0.38028(12) 0.2863(2) 0.64582(17)
C16B C 0.37586(12) 0.3640(2) 0.58253(16)
C17B C 0.34145(12) 0.3391(2) 0.49204(17)
C18B C 0.31034(13) 0.2341(3) 0.46396(17)
C19B C 0.31381(13) 0.1560(3) 0.52606(18)
C20B C 0.34890(13) 0.1810(2) 0.61588(18)
C21B C 0.27029(17) 0.2810(3) 0.3112(2)
O1B O 0.27525(10) 0.2018(2) 0.37679(13)
H1B H 0.5952 0.1492 1.1741
H2B H 0.6222 -0.0300 1.1472
H3B H 0.5899 -0.0806 1.0010
H4B H 0.5340 0.0528 0.8872
H5B H 0.4550 0.1533 0.7867
H6B H 0.3010 0.4477 0.7033
H7B H 0.2364 0.6024 0.6209
H8B H 0.2789 0.7608 0.5925
H9B H 0.3846 0.7620 0.6462
H10B H 0.3968 0.4351 0.6015
H11B H 0.3395 0.3921 0.4505
H12B H 0.2923 0.0859 0.5068
H13B H 0.3517 0.1270 0.6574
H14B H 0.2437 0.2463 0.2525
H15B H 0.3112 0.2958 0.3214
H16B H 0.2522 0.3528 0.3149
B1 B 0.5000 0.8992(4) 0.7500
F1 F 0.48639(9) 0.82984(14) 0.67754(11)
F2 F 0.44932(10) 0.96787(16) 0.72809(13)
F1B F 0.51361(9) 0.82984(14) 0.82246(11)
F2B F 0.55068(10) 0.96787(16) 0.77191(13)
B2 B 0.64243(16) 0.3436(3) 0.5663(2)
F3 F 0.59156(9) 0.3980(2) 0.49729(15)
F4 F 0.66061(18) 0.2592(3) 0.5266(2)
F5 F 0.6265(3) 0.2782(4) 0.6170(4)
F6 F 0.69212(19) 0.4086(3) 0.6197(3)
F7? F 0.6305(5) 0.2513(6) 0.5972(7)
F8? F 0.6871(3) 0.3400(9) 0.5496(5)
F9? F 0.6586(3) 0.4342(6) 0.6310(4)
loop_
_geom_bond_atom_site_label_1
_geom_bond_atom_site_label_2
_geom_bond_site_symmetry_1
_geom_bond_site_symmetry_2
Ag1 N3 1_555 1_555
Ag2 N1 1_555 1_555
N1 C1 1_555 1_555
N2 Ag2 1_555 1_555
N3 C10 1_555 1_555
N4 N2 1_555 1_555
C1 C2 1_555 1_555
C2 C3 1_555 1_555
C3 C4 1_555 1_555
C4 C5 1_555 1_555
C5 N1 1_555 1_555
C6 N2 1_555 1_555
C7 C6 1_555 1_555
C8 C7 1_555 1_555
C9 N4 1_555 1_555
C10 C9 1_555 1_555
C11 C10 1_555 1_555
C12 C11 1_555 1_555
C13 C12 1_555 1_555
C14 N3 1_555 1_555
C15 C8 1_555 1_555
C16 C15 1_555 1_555
C17 C16 1_555 1_555
C18 C17 1_555 1_555
C19 C18 1_555 1_555
C20 C15 1_555 1_555
C21 O1 1_555 1_555
O1 C18 1_555 1_555
B1 F1 1_555 1_555
B2 F3 1_555 1_555
F2 B1 1_555 1_555
F4 B2 1_555 1_555
F5 B2 1_555 1_555
F6 B2 1_555 1_555
H1 C1 1_555 1_555
H2 C2 1_555 1_555
H3 C3 1_555 1_555
H4 C4 1_555 1_555
H5 C7 1_555 1_555
H6 C11 1_555 1_555
H7 C12 1_555 1_555
H8 C13 1_555 1_555
H9 C14 1_555 1_555
H10 C16 1_555 1_555
H11 C17 1_555 1_555
H12 C19 1_555 1_555
H13 C20 1_555 1_555
H14 C21 1_555 1_555
H15 C21 1_555 1_555
H16 C21 1_555 1_555
Ag2B N1B 1_555 1_555
Ag2D N4 1_555 1_555
Ag2F N4B 1_555 1_555
N1B C1B 1_555 1_555
N2B Ag2B 1_555 1_555
N3B Ag1 1_555 1_555
N4B N2B 1_555 1_555
N4D Ag2 1_555 1_555
N4F Ag2B 1_555 1_555
C1B C2B 1_555 1_555
C2B C3B 1_555 1_555
C3B C4B 1_555 1_555
C4B C5B 1_555 1_555
C5B N1B 1_555 1_555
C6B N2B 1_555 1_555
C7B C6B 1_555 1_555
C8B C7B 1_555 1_555
C9B N4B 1_555 1_555
C10B N3B 1_555 1_555
C11B C10B 1_555 1_555
C12B C11B 1_555 1_555
C13B C12B 1_555 1_555
C14B N3B 1_555 1_555
C15B C8B 1_555 1_555
C16B C15B 1_555 1_555
C17B C16B 1_555 1_555
C18B C17B 1_555 1_555
C19B C18B 1_555 1_555
C20B C15B 1_555 1_555
C21B O1B 1_555 1_555
O1B C18B 1_555 1_555
F1B B1 1_555 1_555
F2B B1 1_555 1_555
H1B C1B 1_555 1_555
H2B C2B 1_555 1_555
H3B C3B 1_555 1_555
H4B C4B 1_555 1_555
H5B C7B 1_555 1_555
H6B C11B 1_555 1_555
H7B C12B 1_555 1_555
H8B C13B 1_555 1_555
H9B C14B 1_555 1_555
H10B C16B 1_555 1_555
H11B C17B 1_555 1_555
H12B C19B 1_555 1_555
H13B C20B 1_555 1_555
H14B C21B 1_555 1_555
H15B C21B 1_555 1_555
H16B C21B 1_555 1_555
C5 C6 1_555 1_555
C8 C9 1_555 1_555
C13 C14 1_555 1_555
C19 C20 1_555 1_555
C5B C6B 1_555 1_555
C8B C9B 1_555 1_555
C9B C10B 1_555 1_555
C13B C14B 1_555 1_555
C19B C20B 1_555 1_555

#END
