
#######################################################################
#
#                 Cambridge Crystallographic Data Centre
#                                CCDC 
#
#######################################################################
#
# If this CIF has been generated from an entry in the Cambridge 
# Structural Database, then it will include bibliographic, chemical, 
# crystal, experimental, refinement or atomic coordinate data resulting 
# from the CCDC's data processing and validation procedures.
#
#######################################################################

data_WOHNUE
_symmetry_cell_setting           monoclinic
_symmetry_space_group_name_H-M   'C 2/c'
_symmetry_Int_Tables_number      15
_space_group_name_Hall           '-C 2yn'
loop_
_symmetry_equiv_pos_site_id
_symmetry_equiv_pos_as_xyz
1 x,y,z
2 -x,y,1/2-z
3 1/2+x,1/2+y,z
4 1/2-x,1/2+y,1/2-z
5 -x,-y,-z
6 x,-y,1/2+z
7 1/2-x,1/2-y,-z
8 1/2+x,1/2-y,1/2+z
_cell_length_a                   10.859(3)
_cell_length_b                   19.201(6)
_cell_length_c                   11.834(4)
_cell_angle_alpha                90
_cell_angle_beta                 98.030(19)
_cell_angle_gamma                90
_cell_volume                     2443.24
loop_
_atom_site_label
_atom_site_type_symbol
_atom_site_fract_x
_atom_site_fract_y
_atom_site_fract_z
Cu1 Cu 0.7500 0.7500 0.5000
O1 O 0.8003(3) 0.84580(16) 0.4815(3)
O2 O 0.9951(3) 0.81045(16) 0.5319(3)
O3 O 0.6080(3) 0.93873(16) 0.9864(3)
N1 N 0.7060(3) 0.7751(2) 0.6566(3)
N2 N 0.5915(3) 0.8211(2) 0.9726(3)
H1 H 0.5694 0.7840 1.0087
C1 C 0.9173(5) 0.8576(2) 0.5069(4)
C2 C 0.9595(4) 0.9308(2) 0.5020(4)
C3 C 1.0844(4) 0.9470(2) 0.5240(4)
H2 H 1.1432 0.9105 0.5408
C4 C 0.8743(5) 0.9856(2) 0.4778(4)
H3 H 0.7878 0.9759 0.4626
C5 C 0.6862(4) 0.7261(2) 0.7321(4)
H4 H 0.6978 0.6788 0.7125
C6 C 0.6501(4) 0.7401(2) 0.8364(4)
H5 H 0.6374 0.7031 0.8868
C7 C 0.6320(4) 0.8091(2) 0.8681(4)
C8 C 0.6539(4) 0.8610(2) 0.7905(4)
H6 H 0.6439 0.9087 0.8083
C9 C 0.6902(4) 0.8420(2) 0.6880(4)
H7 H 0.7050 0.8779 0.6362
C10 C 0.5818(4) 0.8834(2) 1.0264(4)
C11 C 0.5373(4) 0.8799(2) 1.1425(4)
C12 C 0.5187(5) 0.9419(2) 1.1967(4)
H8 H 0.5319 0.9849 1.1604
C13 C 0.5197(5) 0.8182(2) 1.1962(4)
H9 H 0.5342 0.7753 1.1602
O1D O 1.1997(3) 1.15420(16) 0.5185(3)
O2D O 1.0049(3) 1.18955(16) 0.4681(3)
C1D C 1.0827(5) 1.1424(2) 0.4931(4)
C2D C 1.0405(4) 1.0692(2) 0.4980(4)
C3D C 0.9156(4) 1.0530(2) 0.4760(4)
H2D H 0.8568 1.0895 0.4592
C4D C 1.1257(5) 1.0144(2) 0.5222(4)
H3D H 1.2122 1.0241 0.5374
O3A O 0.3920(3) 0.93873(16) 1.5136(3)
N1A N 0.2940(3) 0.7751(2) 1.8434(3)
N2A N 0.4085(3) 0.8211(2) 1.5274(3)
H1A H 0.4306 0.7840 1.4913
C5A C 0.3138(4) 0.7261(2) 1.7679(4)
H4A H 0.3022 0.6788 1.7875
C6A C 0.3499(4) 0.7401(2) 1.6636(4)
H5A H 0.3626 0.7031 1.6132
C7A C 0.3680(4) 0.8091(2) 1.6319(4)
C8A C 0.3461(4) 0.8610(2) 1.7095(4)
H6A H 0.3561 0.9087 1.6917
C9A C 0.3098(4) 0.8420(2) 1.8120(4)
H7A H 0.2950 0.8779 1.8638
C10A C 0.4182(4) 0.8834(2) 1.4736(4)
C11A C 0.4627(4) 0.8799(2) 1.3575(4)
C12A C 0.4813(5) 0.9419(2) 1.3033(4)
H8A H 0.4681 0.9849 1.3396
C13A C 0.4803(5) 0.8182(2) 1.3038(4)
H9A H 0.4658 0.7753 1.3398
Cu1A Cu 0.2500 0.7500 2.0000
Cu1B Cu 1.2500 1.2500 0.5000
O1F O 0.6997(3) 0.65420(16) 0.5185(3)
N1F N 0.7940(3) 0.7249(2) 0.3434(3)
loop_
_geom_bond_atom_site_label_1
_geom_bond_atom_site_label_2
_geom_bond_site_symmetry_1
_geom_bond_site_symmetry_2
Cu1 O1 1_555 1_555
O1 C1 1_555 1_555
O2 C1 1_555 1_555
O3 C10 1_555 1_555
N1 Cu1 1_555 1_555
N2 H1 1_555 1_555
C1 C2 1_555 1_555
C2 C3 1_555 1_555
C3 H2 1_555 1_555
C4 C2 1_555 1_555
H3 C4 1_555 1_555
C5 N1 1_555 1_555
H4 C5 1_555 1_555
C6 C5 1_555 1_555
H5 C6 1_555 1_555
C7 N2 1_555 1_555
C8 C7 1_555 1_555
H6 C8 1_555 1_555
C9 N1 1_555 1_555
H7 C9 1_555 1_555
C10 N2 1_555 1_555
C11 C10 1_555 1_555
C12 C11 1_555 1_555
H8 C12 1_555 1_555
C13 C11 1_555 1_555
H9 C13 1_555 1_555
O1D C1D 1_555 1_555
O2D C1D 1_555 1_555
C1D C2D 1_555 1_555
C2D C3D 1_555 1_555
C3D C4 1_555 1_555
H2D C3D 1_555 1_555
C4D C3 1_555 1_555
H3D C4D 1_555 1_555
O3A C10A 1_555 1_555
N1A C5A 1_555 1_555
N2A H1A 1_555 1_555
C5A H4A 1_555 1_555
C6A C5A 1_555 1_555
H5A C6A 1_555 1_555
C7A N2A 1_555 1_555
C8A C7A 1_555 1_555
H6A C8A 1_555 1_555
C9A N1A 1_555 1_555
H7A C9A 1_555 1_555
C10A N2A 1_555 1_555
C11A C10A 1_555 1_555
C12A C12 1_555 1_555
H8A C12A 1_555 1_555
C13A C13 1_555 1_555
H9A C13A 1_555 1_555
Cu1A N1A 1_555 1_555
Cu1B O1D 1_555 1_555
O1F Cu1 1_555 1_555
N1F Cu1 1_555 1_555
C6 C7 1_555 1_555
C8 C9 1_555 1_555
C2D C4D 1_555 1_555
C6A C7A 1_555 1_555
C8A C9A 1_555 1_555
C11A C12A 1_555 1_555
C11A C13A 1_555 1_555

#END
