
#######################################################################
#
#                 Cambridge Crystallographic Data Centre
#                                CCDC 
#
#######################################################################
#
# If this CIF has been generated from an entry in the Cambridge 
# Structural Database, then it will include bibliographic, chemical, 
# crystal, experimental, refinement or atomic coordinate data resulting 
# from the CCDC's data processing and validation procedures.
#
#######################################################################

data_WOHPAM
_symmetry_cell_setting           triclinic
_symmetry_space_group_name_H-M   'P -1'
_symmetry_Int_Tables_number      2
_space_group_name_Hall           '-P 1'
loop_
_symmetry_equiv_pos_site_id
_symmetry_equiv_pos_as_xyz
1 x,y,z
2 -x,-y,-z
_cell_length_a                   10.8077(9)
_cell_length_b                   14.8109(12)
_cell_length_c                   20.330(2)
_cell_angle_alpha                94.016(7)
_cell_angle_beta                 92.267(7)
_cell_angle_gamma                109.779(6)
_cell_volume                     3047.81
loop_
_atom_site_label
_atom_site_type_symbol
_atom_site_fract_x
_atom_site_fract_y
_atom_site_fract_z
Cd1 Cd 0.69487(6) 0.60868(5) 0.33275(3)
Cd2 Cd 0.80919(7) 0.87519(5) 0.31828(3)
O1 O 0.6008(6) 0.7540(4) 0.3205(3)
O2 O 0.4755(6) 0.6032(4) 0.3277(3)
O3 O 0.0267(6) 0.8783(5) 0.3190(3)
O4 O -0.0945(6) 0.7288(4) 0.3344(3)
O5 O 0.8204(6) 0.5002(4) 0.3351(3)
O6 O 0.6057(5) 0.4355(4) 0.3362(3)
O7 O 0.8855(6) 0.0465(4) 0.3311(3)
O8 O 0.6725(6) -0.0214(5) 0.3069(4)
O9 O 0.8506(6) 0.6001(4) 0.6879(3)
O10 O 0.5033(7) 0.6186(6) 0.9858(3)
O11 O 0.6599(6) 0.9092(6) 0.6673(3)
O12 O 1.0130(17) 0.899(2) 0.9815(8)
N1 N 0.6957(7) 0.6251(5) 0.4448(3)
N2 N 0.6617(7) 0.6209(5) 0.6506(3)
H1 H 0.5889 0.6286 0.6636
N3 N 0.7101(8) 0.6210(6) 1.0164(4)
H2 H 0.7871 0.6264 1.0011
N4 N 0.6994(7) 0.6061(5) 1.2215(3)
N5 N 0.8148(8) 0.8800(5) 0.4300(4)
N6 N 0.8486(7) 0.8891(6) 0.6368(4)
H3 H 0.9219 0.8825 0.6523
N7 N 0.7960(9) 0.8682(7) 0.9996(4)
H4 H 0.7179 0.8618 0.9815
N8 N 0.8059(8) 0.8599(6) 1.2064(4)
C1 C 0.4896(8) 0.6904(6) 0.3248(4)
C2 C 0.3690(8) 0.7188(6) 0.3275(4)
C3 C 0.3748(9) 0.8119(7) 0.3198(5)
H5 H 0.4570 0.8600 0.3139
C4 C 0.2595(9) 0.8362(7) 0.3206(5)
H6 H 0.2646 0.9007 0.3158
C5 C 0.1384(8) 0.7663(6) 0.3284(4)
C6 C 0.1343(9) 0.6741(7) 0.3373(5)
H7 H 0.0524 0.6261 0.3438
C7 C 0.2481(9) 0.6499(7) 0.3370(5)
H8 H 0.2430 0.5859 0.3434
C8 C 0.0148(9) 0.7927(7) 0.3273(4)
C9 C 0.7176(9) 0.4280(6) 0.3372(4)
C10 C 0.7293(8) 0.3305(6) 0.3394(4)
C11 C 0.8528(8) 0.3215(6) 0.3501(4)
H9 H 0.9282 0.3776 0.3606
C12 C 0.8668(8) 0.2318(6) 0.3455(5)
H10 H 0.9514 0.2265 0.3527
C13 C 0.7573(9) 0.1497(6) 0.3304(4)
C14 C 0.6336(9) 0.1567(7) 0.3224(5)
H11 H 0.5580 0.1002 0.3144
C15 C 0.6205(9) 0.2474(6) 0.3263(5)
H12 H 0.5355 0.2523 0.3198
C16 C 0.7722(9) 0.0527(7) 0.3226(5)
C17 C 0.5894(10) 0.6285(8) 0.4751(5)
H13 H 0.5167 0.6313 0.4485
C18 C 0.5788(10) 0.6282(8) 0.5423(5)
H14 H 0.5008 0.6318 0.5605
C19 C 0.6796(9) 0.6227(6) 0.5835(4)
C20 C 0.7916(9) 0.6201(8) 0.5531(4)
H15 H 0.8657 0.6178 0.5787
C21 C 0.7941(9) 0.6209(7) 0.4856(4)
H16 H 0.8716 0.6183 0.4662
C22 C 0.7453(8) 0.6084(6) 0.6992(4)
C23 C 0.7013(9) 0.6088(6) 0.7680(4)
C24 C 0.7527(9) 0.5617(7) 0.8121(4)
H17 H 0.8074 0.5270 0.7972
C25 C 0.7248(9) 0.5652(7) 0.8778(4)
H18 H 0.7602 0.5326 0.9079
C26 C 0.6444(9) 0.6163(7) 0.9004(4)
C27 C 0.5902(9) 0.6605(7) 0.8556(4)
H19 H 0.5330 0.6932 0.8702
C28 C 0.6174(9) 0.6579(6) 0.7903(4)
H20 H 0.5798 0.6892 0.7601
C29 C 0.6107(10) 0.6185(7) 0.9706(4)
C30 C 0.7007(10) 0.6157(7) 1.0846(4)
C31 C 0.8140(9) 0.6247(7) 1.1229(4)
H21 H 0.8949 0.6345 1.1029
C32 C 0.8088(9) 0.6193(7) 1.1900(4)
H22 H 0.8875 0.6253 1.2152
C33 C 0.5902(9) 0.5962(7) 1.1835(4)
H23 H 0.5101 0.5850 1.2046
C34 C 0.5867(10) 0.6011(7) 1.1162(4)
H24 H 0.5066 0.5944 1.0920
C35 C 0.9235(9) 0.8791(7) 0.4647(5)
H25 H 0.9962 0.8764 0.4410
C36 C 0.9349(10) 0.8819(7) 0.5321(5)
H26 H 1.0136 0.8804 0.5538
C37 C 0.8308(9) 0.8870(7) 0.5692(5)
C38 C 0.7217(10) 0.8899(8) 0.5341(5)
H27 H 0.6486 0.8949 0.5566
C39 C 0.7180(10) 0.8855(8) 0.4665(5)
H28 H 0.6399 0.8865 0.4439
C40 C 0.7651(9) 0.9003(7) 0.6817(5)
C41 C 0.8060(9) 0.8975(7) 0.7531(5)
C42 C 0.8983(10) 0.8558(8) 0.7732(5)
H29 H 0.9418 0.8301 0.7411
C43 C 0.9262(10) 0.8521(8) 0.8400(6)
H30 H 0.9916 0.8263 0.8534
C44 C 0.8595(10) 0.8857(8) 0.8876(5)
C45 C 0.7678(11) 0.9264(8) 0.8670(6)
H31 H 0.7224 0.9508 0.8988
C46 C 0.7420(11) 0.9316(8) 0.8007(5)
H32 H 0.6785 0.9593 0.7876
C47 C 0.8942(12) 0.8792(9) 0.9573(6)
C48 C 0.8045(11) 0.8658(9) 1.0677(6)
C49 C 0.9210(11) 0.8800(8) 1.1066(5)
H33 H 1.0022 0.8910 1.0867
C50 C 0.9156(10) 0.8778(7) 1.1734(5)
H34 H 0.9962 0.8898 1.1987
C51 C 0.6949(11) 0.8437(8) 1.1682(5)
H35 H 0.6144 0.8296 1.1893
C52 C 0.6899(11) 0.8462(8) 1.1011(5)
H36 H 0.6078 0.8345 1.0772
Cd1_2 Cd -0.30513(6) 0.60868(5) 0.33275(3)
Cd1_3 Cd 0.69487(6) 0.60868(5) 1.33275(3)
Cd2_2 Cd -0.19081(7) 0.87519(5) 0.31828(3)
Cd2_3 Cd 0.80919(7) -0.12481(5) 0.31828(3)
Cd2_4 Cd 0.80919(7) 0.87519(5) 1.31828(3)
O3_2 O 1.0267(6) 0.8783(5) 0.3190(3)
O4_2 O 0.9055(6) 0.7288(4) 0.3344(3)
O7_2 O 0.8855(6) 1.0465(4) 0.3311(3)
O8_2 O 0.6725(6) 0.9786(5) 0.3069(4)
N4_2 N 0.6994(7) 0.6061(5) 0.2215(3)
N8_2 N 0.8059(8) 0.8599(6) 0.2064(4)
O14 O 0.9704(7) 0.4578(6) 0.2387(3)
O15 O 0.9773(8) 0.6752(7) 0.9780(4)
O16 O 0.2642(19) 0.6198(14) 0.9518(9)
O19 O 0.5236(14) 0.8342(11) 0.9625(6)
O21 O 0.5371(18) 0.9947(13) 0.1809(9)
O23 O 0.2742(15) 0.9338(11) 0.9833(8)
O24 O 0.1400(15) 0.6764(11) 0.8641(7)
O26 O 0.1802(15) 0.6826(11) 0.0687(7)
O27 O 0.0035(18) 0.4883(13) 0.1093(8)
O29 O 0.335(3) 0.847(2) 0.8707(14)
O30 O 0.1307(18) 0.6366(13) 0.1789(9)
O32 O 0.356(4) 0.843(3) 0.100(2)
O13? O 0.990(2) 0.855(3) 0.9689(11)
O17? O 0.240(2) 0.5882(17) 0.9673(11)
O18? O 0.546(2) 0.8877(16) 0.9685(9)
O20? O 0.488(2) 0.9707(14) 0.2087(9)
O22? O 0.262(4) 0.933(3) 0.943(2)
O25? O 0.231(4) 0.722(3) 0.8420(17)
O28? O 0.387(3) 0.8913(19) 0.8667(12)
O31? O 0.381(2) 0.8742(18) 0.0715(12)
loop_
_geom_bond_atom_site_label_1
_geom_bond_atom_site_label_2
_geom_bond_site_symmetry_1
_geom_bond_site_symmetry_2
Cd1 O1 1_555 1_555
Cd2 O1 1_555 1_555
O1 C1 1_555 1_555
O2 Cd1 1_555 1_555
O3 C8 1_555 1_555
O4 C8 1_555 1_555
O5 Cd1 1_555 1_555
O6 Cd1 1_555 1_555
O7 C16 1_555 1_555
O8 C16 1_555 1_555
O9 C22 1_555 1_555
O10 C29 1_555 1_555
O11 C40 1_555 1_555
O12 C47 1_555 1_555
N1 Cd1 1_555 1_555
N2 H1 1_555 1_555
N3 H2 1_555 1_555
N4 C32 1_555 1_555
N5 Cd2 1_555 1_555
N6 H3 1_555 1_555
N7 H4 1_555 1_555
N8 C50 1_555 1_555
C1 O2 1_555 1_555
C2 C1 1_555 1_555
C3 C2 1_555 1_555
H5 C3 1_555 1_555
C4 C3 1_555 1_555
H6 C4 1_555 1_555
C5 C4 1_555 1_555
C6 C5 1_555 1_555
H7 C6 1_555 1_555
C7 C2 1_555 1_555
H8 C7 1_555 1_555
C8 C5 1_555 1_555
C9 O5 1_555 1_555
C10 C9 1_555 1_555
C11 C10 1_555 1_555
H9 C11 1_555 1_555
C12 C11 1_555 1_555
H10 C12 1_555 1_555
C13 C12 1_555 1_555
C14 C13 1_555 1_555
H11 C14 1_555 1_555
C15 C10 1_555 1_555
H12 C15 1_555 1_555
C16 C13 1_555 1_555
C17 N1 1_555 1_555
H13 C17 1_555 1_555
C18 C17 1_555 1_555
H14 C18 1_555 1_555
C19 N2 1_555 1_555
C20 C19 1_555 1_555
H15 C20 1_555 1_555
C21 N1 1_555 1_555
H16 C21 1_555 1_555
C22 N2 1_555 1_555
C23 C22 1_555 1_555
C24 C23 1_555 1_555
H17 C24 1_555 1_555
C25 C24 1_555 1_555
H18 C25 1_555 1_555
C26 C25 1_555 1_555
C27 C26 1_555 1_555
H19 C27 1_555 1_555
C28 C23 1_555 1_555
H20 C28 1_555 1_555
C29 N3 1_555 1_555
C30 N3 1_555 1_555
C31 C30 1_555 1_555
H21 C31 1_555 1_555
C32 C31 1_555 1_555
H22 C32 1_555 1_555
C33 N4 1_555 1_555
H23 C33 1_555 1_555
C34 C30 1_555 1_555
H24 C34 1_555 1_555
C35 N5 1_555 1_555
H25 C35 1_555 1_555
C36 C35 1_555 1_555
H26 C36 1_555 1_555
C37 N6 1_555 1_555
C38 C37 1_555 1_555
H27 C38 1_555 1_555
C39 N5 1_555 1_555
H28 C39 1_555 1_555
C40 N6 1_555 1_555
C41 C40 1_555 1_555
C42 C41 1_555 1_555
H29 C42 1_555 1_555
C43 C42 1_555 1_555
H30 C43 1_555 1_555
C44 C43 1_555 1_555
C45 C44 1_555 1_555
H31 C45 1_555 1_555
C46 C41 1_555 1_555
H32 C46 1_555 1_555
C47 N7 1_555 1_555
C48 N7 1_555 1_555
C49 C48 1_555 1_555
H33 C49 1_555 1_555
C50 C49 1_555 1_555
H34 C50 1_555 1_555
C51 N8 1_555 1_555
H35 C51 1_555 1_555
C52 C48 1_555 1_555
H36 C52 1_555 1_555
Cd1_2 O4 1_555 1_555
Cd1_3 N4 1_555 1_555
Cd2_2 O3 1_555 1_555
Cd2_3 O7 1_555 1_555
Cd2_4 N8 1_555 1_555
O3_2 Cd2 1_555 1_555
O4_2 Cd1 1_555 1_555
O7_2 Cd2 1_555 1_555
O8_2 Cd2 1_555 1_555
N4_2 Cd1 1_555 1_555
N8_2 Cd2 1_555 1_555
Cd2 O4_2 1_555 1_555
O4 Cd2_2 1_555 1_555
O6 C9 1_555 1_555
O8 Cd2_3 1_555 1_555
C6 C7 1_555 1_555
C14 C15 1_555 1_555
C18 C19 1_555 1_555
C20 C21 1_555 1_555
C26 C29 1_555 1_555
C27 C28 1_555 1_555
C33 C34 1_555 1_555
C36 C37 1_555 1_555
C38 C39 1_555 1_555
C44 C47 1_555 1_555
C45 C46 1_555 1_555
C51 C52 1_555 1_555

#END
