
#######################################################################
#
#                 Cambridge Crystallographic Data Centre
#                                CCDC 
#
#######################################################################
#
# If this CIF has been generated from an entry in the Cambridge 
# Structural Database, then it will include bibliographic, chemical, 
# crystal, experimental, refinement or atomic coordinate data resulting 
# from the CCDC's data processing and validation procedures.
#
#######################################################################

data_WOHPUG
_symmetry_cell_setting           rhombohedral
_symmetry_space_group_name_H-M   'R -3'
_symmetry_Int_Tables_number      148
_space_group_name_Hall           '-R 3'
loop_
_symmetry_equiv_pos_site_id
_symmetry_equiv_pos_as_xyz
1 x,y,z
2 -y,x-y,z
3 -x+y,-x,z
4 2/3+x,1/3+y,1/3+z
5 2/3-y,1/3+x-y,1/3+z
6 2/3-x+y,1/3-x,1/3+z
7 1/3+x,2/3+y,2/3+z
8 1/3-y,2/3+x-y,2/3+z
9 1/3-x+y,2/3-x,2/3+z
10 -x,-y,-z
11 y,-x+y,-z
12 x-y,x,-z
13 1/3-x,2/3-y,2/3-z
14 1/3+y,2/3-x+y,2/3-z
15 1/3+x-y,2/3+x,2/3-z
16 2/3-x,1/3-y,1/3-z
17 2/3+y,1/3-x+y,1/3-z
18 2/3+x-y,1/3+x,1/3-z
_cell_length_a                   12.4305(4)
_cell_length_b                   12.4305(4)
_cell_length_c                   33.8994(17)
_cell_angle_alpha                90
_cell_angle_beta                 90
_cell_angle_gamma                120
_cell_volume                     4536.28
loop_
_atom_site_label
_atom_site_type_symbol
_atom_site_fract_x
_atom_site_fract_y
_atom_site_fract_z
Cu1 Cu 0.04589(4) 0.87486(4) 0.031311(12)
Mn1 Mn -0.3333 0.3333 0.15020(2)
S1 S -0.14099(7) 0.80687(7) 0.05803(2)
O1 O -0.2658(2) 0.5012(2) 0.11491(6)
O2 O -0.3598(2) 0.6151(2) 0.11817(6)
O3 O -0.4288(3) 0.4008(3) 0.18829(8)
N1 N -0.2455(2) 0.6678(2) -0.00557(8)
C1 C -0.2458(3) 0.6662(3) 0.03410(9)
C2 C -0.3217(3) 0.5584(3) 0.05528(10)
C3 C -0.3998(3) 0.4503(3) 0.03458(11)
H1 H -0.4512 0.3771 0.0481
C4 C -0.4004(3) 0.4528(3) -0.00632(10)
H2 H -0.4523 0.3817 -0.0207
C5 C -0.3227(3) 0.5625(3) -0.02486(10)
H3 H -0.3232 0.5643 -0.0523
C6 C -0.3169(3) 0.5586(3) 0.09982(10)
H4 H -0.464(4) 0.365(4) 0.2046(12)
H5 H -0.401(4) 0.473(4) 0.1955(11)
Cu1A Cu -0.87486(4) 0.17103(6) 0.031311(12)
S1A S -0.80687(7) 0.05214(10) 0.05803(2)
O1A O -0.5012(2) 0.2330(3) 0.11491(6)
O2A O -0.6151(2) 0.0251(3) 0.11817(6)
O3A O -0.4008(3) 0.1704(4) 0.18829(8)
N1A N -0.6678(2) 0.0867(3) -0.00557(8)
C1A C -0.6662(3) 0.0880(4) 0.03410(9)
C2A C -0.5584(3) 0.1199(4) 0.05528(10)
C3A C -0.4503(3) 0.1499(4) 0.03458(11)
H1A H -0.3771 0.1717 0.0481
C4A C -0.4528(3) 0.1468(4) -0.00632(10)
H2A H -0.3817 0.1660 -0.0207
C5A C -0.5625(3) 0.1148(4) -0.02486(10)
H3A H -0.5643 0.1125 -0.0523
C6A C -0.5586(3) 0.1245(4) 0.09982(10)
H4A H -0.365(4) 0.171(6) 0.2046(12)
H5A H -0.473(4) 0.126(6) 0.1955(11)
Cu1B Cu -0.17103(6) -0.04589(4) 0.031311(12)
S1B S -0.05214(10) 0.14099(7) 0.05803(2)
O1B O -0.2330(3) 0.2658(2) 0.11491(6)
O2B O -0.0251(3) 0.3598(2) 0.11817(6)
O3B O -0.1704(4) 0.4288(3) 0.18829(8)
N1B N -0.0867(3) 0.2455(2) -0.00557(8)
C1B C -0.0880(4) 0.2458(3) 0.03410(9)
C2B C -0.1199(4) 0.3217(3) 0.05528(10)
C3B C -0.1499(4) 0.3998(3) 0.03458(11)
H1B H -0.1717 0.4512 0.0481
C4B C -0.1468(4) 0.4004(3) -0.00632(10)
H2B H -0.1660 0.4523 -0.0207
C5B C -0.1148(4) 0.3227(3) -0.02486(10)
H3B H -0.1125 0.3232 -0.0523
C6B C -0.1245(4) 0.3169(3) 0.09982(10)
H4B H -0.171(6) 0.464(4) 0.2046(12)
H5B H -0.126(6) 0.401(4) 0.1955(11)
Cu1_2 Cu -0.95411(4) -0.12514(4) 0.031311(12)
Cu1A_2 Cu 0.12514(4) 0.17103(6) 0.031311(12)
Cu1B_2 Cu -0.17103(6) 0.95411(4) 0.031311(12)
Cu1I Cu -1.04589(4) 0.12514(4) -0.031311(12)
Cu1I_2 Cu -0.04589(4) 0.12514(4) -0.031311(12)
Cu1J Cu -0.12514(4) -0.17103(6) -0.031311(12)
Cu1J_2 Cu -0.12514(4) 0.82897(6) -0.031311(12)
Cu1K Cu -0.82897(6) 0.04589(4) -0.031311(12)
Cu1K_2 Cu 0.17103(6) 1.04589(4) -0.031311(12)
S1_2 S -0.14099(7) -0.19313(7) 0.05803(2)
S1A_2 S 0.19313(7) 1.05214(10) 0.05803(2)
S1B_2 S -1.05214(10) 0.14099(7) 0.05803(2)
N1I N -0.7545(2) 0.3322(2) 0.00557(8)
N1J N -0.3322(2) -0.0867(3) 0.00557(8)
N1K N 0.0867(3) 0.7545(2) 0.00557(8)
Mn2 Mn 0.3333 0.6667 0.1667
O4 O 0.4339(2) 0.8320(2) 0.12938(8)
H6 H 0.409(4) 0.877(4) 0.1212(13)
H7 H 0.514(4) 0.880(4) 0.1321(12)
O4A O 0.1680(2) 0.6019(3) 0.12938(8)
H6A H 0.123(4) 0.532(6) 0.1212(13)
H7A H 0.120(4) 0.634(6) 0.1321(12)
O4B O 0.3981(3) 0.5661(2) 0.12938(8)
H6B H 0.468(6) 0.591(4) 0.1212(13)
H7B H 0.366(6) 0.486(4) 0.1321(12)
O4O O 0.2328(2) 0.5013(2) 0.20395(8)
H6O H 0.258(4) 0.456(4) 0.2121(13)
H7O H 0.153(4) 0.453(4) 0.2012(12)
O4P O 0.4987(2) 0.7314(3) 0.20395(8)
H6P H 0.544(4) 0.801(6) 0.2121(13)
H7P H 0.547(4) 0.699(6) 0.2012(12)
O4Q O 0.2686(3) 0.7672(2) 0.20395(8)
H6Q H 0.199(6) 0.742(4) 0.2121(13)
H7Q H 0.301(6) 0.847(4) 0.2012(12)
O5 O -0.3288(2) 0.6544(2) 0.19613(9)
H8 H -0.264(4) 0.707(4) 0.2028(12)
H9 H -0.325(3) 0.658(3) 0.1709(12)
loop_
_geom_bond_atom_site_label_1
_geom_bond_atom_site_label_2
_geom_bond_site_symmetry_1
_geom_bond_site_symmetry_2
Cu1 S1 1_555 1_555
Mn1 O1 1_555 1_555
S1 C1 1_555 1_555
O1 C6 1_555 1_555
O2 C6 1_555 1_555
O3 Mn1 1_555 1_555
N1 C1 1_555 1_555
C1 C2 1_555 1_555
C2 C3 1_555 1_555
C3 H1 1_555 1_555
C4 C3 1_555 1_555
H2 C4 1_555 1_555
C5 N1 1_555 1_555
H3 C5 1_555 1_555
C6 C2 1_555 1_555
H4 O3 1_555 1_555
H5 O3 1_555 1_555
Mn2 O4 1_555 1_555
O4 H6 1_555 1_555
H7 O4 1_555 1_555
O5 H8 1_555 1_555
H9 O5 1_555 1_555
Cu1A S1A 1_555 1_555
S1A C1A 1_555 1_555
O1A Mn1 1_555 1_555
O2A C6A 1_555 1_555
O3A Mn1 1_555 1_555
N1A C1A 1_555 1_555
C1A C2A 1_555 1_555
C2A C3A 1_555 1_555
C3A H1A 1_555 1_555
C4A C3A 1_555 1_555
H2A C4A 1_555 1_555
C5A N1A 1_555 1_555
H3A C5A 1_555 1_555
C6A O1A 1_555 1_555
H4A O3A 1_555 1_555
H5A O3A 1_555 1_555
Cu1B S1B 1_555 1_555
S1B C1B 1_555 1_555
O1B Mn1 1_555 1_555
O2B C6B 1_555 1_555
O3B Mn1 1_555 1_555
N1B C1B 1_555 1_555
C1B C2B 1_555 1_555
C2B C3B 1_555 1_555
C3B H1B 1_555 1_555
C4B C3B 1_555 1_555
H2B C4B 1_555 1_555
C5B N1B 1_555 1_555
H3B C5B 1_555 1_555
C6B O1B 1_555 1_555
H4B O3B 1_555 1_555
H5B O3B 1_555 1_555
Cu1_2 S1A 1_555 1_555
Cu1A_2 S1B 1_555 1_555
Cu1B_2 S1 1_555 1_555
Cu1I Cu1A 1_555 1_555
Cu1I_2 Cu1B 1_555 1_555
Cu1J Cu1B 1_555 1_555
Cu1J_2 Cu1 1_555 1_555
Cu1K Cu1A 1_555 1_555
Cu1K_2 Cu1 1_555 1_555
S1_2 Cu1B 1_555 1_555
S1A_2 Cu1 1_555 1_555
S1B_2 Cu1A 1_555 1_555
N1I Cu1A 1_555 1_555
N1J Cu1B 1_555 1_555
N1K Cu1 1_555 1_555
O4A Mn2 1_555 1_555
H6A O4A 1_555 1_555
H7A O4A 1_555 1_555
O4B Mn2 1_555 1_555
H6B O4B 1_555 1_555
H7B O4B 1_555 1_555
O4O Mn2 1_555 1_555
H6O O4O 1_555 1_555
H7O O4O 1_555 1_555
O4P Mn2 1_555 1_555
H6P O4P 1_555 1_555
H7P O4P 1_555 1_555
O4Q Mn2 1_555 1_555
H6Q O4Q 1_555 1_555
H7Q O4Q 1_555 1_555
N1 Cu1J_2 1_555 1_555
C4 C5 1_555 1_555
N1A Cu1K 1_555 1_555
C2A C6A 1_555 1_555
C4A C5A 1_555 1_555
N1B Cu1I_2 1_555 1_555
C2B C6B 1_555 1_555
C4B C5B 1_555 1_555
Cu1_2 Cu1K 1_555 1_555
Cu1A_2 Cu1I_2 1_555 1_555
Cu1B_2 Cu1J_2 1_555 1_555

#END
