
#######################################################################
#
#                 Cambridge Crystallographic Data Centre
#                                CCDC 
#
#######################################################################
#
# If this CIF has been generated from an entry in the Cambridge 
# Structural Database, then it will include bibliographic, chemical, 
# crystal, experimental, refinement or atomic coordinate data resulting 
# from the CCDC's data processing and validation procedures.
#
#######################################################################

data_WOHQAN
_symmetry_cell_setting           triclinic
_symmetry_space_group_name_H-M   'P -1'
_symmetry_Int_Tables_number      2
_space_group_name_Hall           '-P 1'
loop_
_symmetry_equiv_pos_site_id
_symmetry_equiv_pos_as_xyz
1 x,y,z
2 -x,-y,-z
_cell_length_a                   12.3484(6)
_cell_length_b                   12.4660(5)
_cell_length_c                   14.0980(8)
_cell_angle_alpha                97.148(4)
_cell_angle_beta                 108.384(5)
_cell_angle_gamma                119.315(5)
_cell_volume                     1690.65
loop_
_atom_site_label
_atom_site_type_symbol
_atom_site_fract_x
_atom_site_fract_y
_atom_site_fract_z
Cu1 Cu 1.09316(4) 0.42791(4) 0.58510(3)
Cu2 Cu 0.83913(4) 0.31478(4) 0.41109(3)
Cu3 Cu 1.10148(4) 0.50696(4) 0.40835(3)
Mn1 Mn 1.11058(5) 0.01112(5) 0.10698(4)
Mn2 Mn 1.25358(5) 0.31832(5) 0.05971(4)
S1 S 0.96085(8) 0.28992(8) 0.33229(6)
S2 S 0.94951(8) 0.36372(8) 0.66347(6)
S3 S 1.29938(8) 0.62158(8) 0.65959(6)
O1 O 1.0758(2) 0.1269(2) 0.20693(18)
O2 O 0.8625(3) -0.0158(3) 0.18659(19)
O3 O 0.8970(2) 0.1041(2) 0.78120(18)
O4 O 0.7801(3) 0.1895(3) 0.7999(2)
O5 O 1.6198(3) 0.6562(2) 0.7842(2)
O6 O 1.6683(2) 0.8535(2) 0.78334(18)
O7 O 1.1547(3) -0.1174(3) 0.0281(2)
O8 O 1.1131(2) 0.1126(2) -0.00541(18)
O9 O 1.1160(3) 0.3317(3) 0.1260(2)
O10 O 1.3908(4) 0.5313(3) 0.1103(3)
O11 O 1.1519(3) 0.3369(3) -0.0882(3)
O12 O 1.4007(3) 0.3021(3) 0.0057(2)
N1 N 1.0967(3) 0.2769(3) 0.5169(2)
N2 N 0.7562(3) 0.1752(3) 0.4761(2)
N3 N 1.3048(3) 0.5760(3) 0.4707(2)
C1 C 1.0387(3) 0.2244(3) 0.4102(2)
C2 C 1.0406(3) 0.1215(3) 0.3609(2)
C3 C 1.1017(3) 0.0714(3) 0.4232(3)
H1 H 1.1027 0.0019 0.3920
C4 C 1.1616(3) 0.1262(3) 0.5332(3)
H2 H 1.2040 0.0946 0.5767
C5 C 1.1567(3) 0.2284(3) 0.5764(3)
H3 H 1.1969 0.2651 0.6499
C6 C 0.9865(3) 0.0728(3) 0.2422(3)
C7 C 0.6501(4) 0.0536(3) 0.4125(3)
H4 H 0.6155 0.0354 0.3394
C8 C 0.5904(4) -0.0455(3) 0.4510(3)
H5 H 0.5163 -0.1289 0.4051
C9 C 0.6430(4) -0.0180(3) 0.5598(3)
H6 H 0.6047 -0.0834 0.5878
C10 C 0.7524(3) 0.1065(3) 0.6266(3)
C11 C 0.8077(3) 0.2031(3) 0.5815(3)
C12 C 0.8138(3) 0.1367(3) 0.7453(3)
C13 C 1.3820(3) 0.6245(3) 0.5765(2)
C14 C 1.5228(3) 0.6758(3) 0.6207(3)
C15 C 1.5828(4) 0.6742(3) 0.5531(3)
H7 H 1.6763 0.7072 0.5808
C16 C 1.5037(4) 0.6234(3) 0.4440(3)
H8 H 1.5427 0.6214 0.3976
C17 C 1.3661(4) 0.5760(3) 0.4066(3)
H9 H 1.3126 0.5422 0.3336
C18 C 1.6106(3) 0.7334(3) 0.7397(3)
H10 H 1.133(4) 0.098(4) -0.044(3)
H11 H 1.195(5) 0.383(5) -0.108(4)
H12 H 1.078(6) 0.264(5) -0.130(4)
H13 H 1.173(6) -0.156(6) 0.081(5)
H14 H 1.092(7) -0.164(6) -0.008(5)
H15 H 1.116(6) 0.293(5) 0.179(3)
H16 H 1.106(8) 0.402(5) 0.140(5)
H17 H 1.348(6) 0.575(6) 0.117(6)
H18 H 1.485(3) 0.585(6) 0.161(5)
H19 H 1.373(8) 0.287(8) -0.0680(14)
H20 H 1.483(6) 0.386(4) 0.046(5)
Cu1A Cu 0.90684(4) 0.57209(4) 0.41490(3)
Cu2A Cu 1.16087(4) 0.68522(4) 0.58891(3)
Cu3A Cu 0.89852(4) 0.49304(4) 0.59165(3)
Mn1A Mn 0.88942(5) -0.01112(5) -0.10698(4)
Mn1A_2 Mn 0.88942(5) -0.01112(5) 0.89302(4)
Mn1A_3 Mn 1.88942(5) 0.98888(5) 0.89302(4)
Mn2A Mn 1.74642(5) 0.68168(5) 0.94029(4)
S2A S 1.05049(8) 0.63628(8) 0.33653(6)
S3A S 0.70062(8) 0.37842(8) 0.34041(6)
O3A O 1.1030(2) -0.1041(2) 0.21880(18)
O5A O 1.3802(3) 0.3438(2) 0.2158(2)
O6A O 1.3317(2) 0.1465(2) 0.21666(18)
O8A O 0.8869(2) -0.1126(2) 0.00541(18)
O13 O 1.4452(4) 0.1135(5) 0.0722(3)
H21 H 1.419(8) 0.123(9) 0.128(4)
H22 H 1.542(3) 0.147(9) 0.104(6)
O14 O 0.6449(3) -0.2056(3) 0.2039(2)
O15 O 0.7551(6) 0.3414(6) 0.0635(4)
O16 O 1.0282(5) 0.4943(4) 0.1028(3)
H23 H 1.099(6) 0.573(5) 0.161(5)
H24 H 0.947(5) 0.495(8) 0.076(7)
loop_
_geom_bond_atom_site_label_1
_geom_bond_atom_site_label_2
_geom_bond_site_symmetry_1
_geom_bond_site_symmetry_2
Cu1 Cu2 1_555 1_555
Cu2 S1 1_555 1_555
Cu3 Cu1 1_555 1_555
Mn1 O1 1_555 1_555
Mn2 O8 1_555 1_555
S1 Cu3 1_555 1_555
S2 Cu1 1_555 1_555
S3 Cu1 1_555 1_555
O1 C6 1_555 1_555
O2 C6 1_555 1_555
O3 C12 1_555 1_555
O4 C12 1_555 1_555
O5 C18 1_555 1_555
O6 C18 1_555 1_555
O7 Mn1 1_555 1_555
O8 Mn1 1_555 1_555
O9 Mn2 1_555 1_555
O10 Mn2 1_555 1_555
O11 Mn2 1_555 1_555
O12 Mn2 1_555 1_555
N1 Cu1 1_555 1_555
N2 Cu2 1_555 1_555
N3 Cu3 1_555 1_555
C1 S1 1_555 1_555
C2 C1 1_555 1_555
C3 C2 1_555 1_555
H1 C3 1_555 1_555
C4 C3 1_555 1_555
H2 C4 1_555 1_555
C5 N1 1_555 1_555
H3 C5 1_555 1_555
C6 C2 1_555 1_555
C7 N2 1_555 1_555
H4 C7 1_555 1_555
C8 C7 1_555 1_555
H5 C8 1_555 1_555
C9 C8 1_555 1_555
H6 C9 1_555 1_555
C10 C9 1_555 1_555
C11 S2 1_555 1_555
C12 C10 1_555 1_555
C13 S3 1_555 1_555
C14 C13 1_555 1_555
C15 C14 1_555 1_555
H7 C15 1_555 1_555
C16 C15 1_555 1_555
H8 C16 1_555 1_555
C17 N3 1_555 1_555
H9 C17 1_555 1_555
C18 C14 1_555 1_555
H10 O8 1_555 1_555
H11 O11 1_555 1_555
H12 O11 1_555 1_555
H13 O7 1_555 1_555
H14 O7 1_555 1_555
H15 O9 1_555 1_555
H16 O9 1_555 1_555
H17 O10 1_555 1_555
H18 O10 1_555 1_555
H19 O12 1_555 1_555
H20 O12 1_555 1_555
O13 H21 1_555 1_555
H22 O13 1_555 1_555
O16 H23 1_555 1_555
H24 O16 1_555 1_555
Cu1A Cu2 1_555 1_555
Cu2A Cu1 1_555 1_555
Cu3A Cu2 1_555 1_555
Mn1A O8 1_555 1_555
Mn1A_2 O3 1_555 1_555
Mn1A_3 O6 1_555 1_555
Mn2A O5 1_555 1_555
S2A Cu3 1_555 1_555
S3A Cu2 1_555 1_555
O3A Mn1 1_555 1_555
O5A Mn2 1_555 1_555
O6A Mn1 1_555 1_555
O8A Mn1 1_555 1_555
Cu3 Cu2A 1_555 1_555
S2 Cu3A 1_555 1_555
S3 Cu2A 1_555 1_555
N1 C1 1_555 1_555
N2 C11 1_555 1_555
N3 C13 1_555 1_555
C4 C5 1_555 1_555
C10 C11 1_555 1_555
C16 C17 1_555 1_555
Cu1A Cu2A 1_555 1_555
Cu1A Cu3A 1_555 1_555
Cu1A S2A 1_555 1_555
Cu1A S3A 1_555 1_555
Mn1A O8A 1_555 1_555

#END
