
#######################################################################
#
#                 Cambridge Crystallographic Data Centre
#                                CCDC 
#
#######################################################################
#
# If this CIF has been generated from an entry in the Cambridge 
# Structural Database, then it will include bibliographic, chemical, 
# crystal, experimental, refinement or atomic coordinate data resulting 
# from the CCDC's data processing and validation procedures.
#
#######################################################################

data_WOHQER
_symmetry_cell_setting           monoclinic
_symmetry_space_group_name_H-M   'C 2/c'
_symmetry_Int_Tables_number      15
_space_group_name_Hall           '-C 2yn'
loop_
_symmetry_equiv_pos_site_id
_symmetry_equiv_pos_as_xyz
1 x,y,z
2 -x,y,1/2-z
3 1/2+x,1/2+y,z
4 1/2-x,1/2+y,1/2-z
5 -x,-y,-z
6 x,-y,1/2+z
7 1/2-x,1/2-y,-z
8 1/2+x,1/2-y,1/2+z
_cell_length_a                   22.5369(5)
_cell_length_b                   12.3093(2)
_cell_length_c                   25.3732(5)
_cell_angle_alpha                90
_cell_angle_beta                 107.090(2)
_cell_angle_gamma                90
_cell_volume                     6728.06
loop_
_atom_site_label
_atom_site_type_symbol
_atom_site_fract_x
_atom_site_fract_y
_atom_site_fract_z
Ag1 Ag 0.92995(2) 0.45141(4) 0.548688(17)
Ag2 Ag 1.04582(2) 0.63956(4) 0.551389(17)
Ag3 Ag 0.92593(2) 0.62055(4) 0.465173(17)
Mn1 Mn 0.93855(4) 0.90174(7) 0.78419(3)
S1 S 0.86045(6) 0.47215(12) 0.41155(6)
S2 S 0.96908(7) 0.61768(11) 0.60345(6)
S3 S 0.99941(7) 1.29262(11) 0.92150(6)
N1 N 0.8272(2) 0.4283(4) 0.5033(2)
N2 N 0.8817(2) 0.7142(4) 0.52274(18)
N3 N 1.0565(2) 1.1931(4) 1.01669(18)
O1 O 0.7212(2) 0.4878(4) 0.32943(19)
O2 O 0.7181(3) 0.3070(5) 0.3333(2)
O3 O 0.89404(19) 0.8376(4) 0.70332(16)
O4 O 0.9760(2) 0.9894(4) 0.86009(17)
O5 O 1.0426(3) 1.1091(4) 0.8457(2)
O6 O 0.8970(2) 0.7744(4) 0.82303(17)
O7 O 0.98266(19) 0.7936(4) 0.68715(18)
O8 O 1.0000 1.0111(4) 0.7500
O9 O 0.8567(2) 1.0033(4) 0.77401(19)
C1 C 0.8078(3) 0.4323(5) 0.4476(2)
C2 C 0.7472(3) 0.4025(5) 0.4178(3)
C3 C 0.7055(3) 0.3736(5) 0.4468(3)
C4 C 0.7243(3) 0.3748(6) 0.5031(3)
C5 C 0.7851(3) 0.4009(6) 0.5296(3)
C6 C 0.7270(3) 0.4000(6) 0.3546(3)
C7 C 0.9092(3) 0.7153(4) 0.5775(2)
C8 C 0.8896(2) 0.7863(4) 0.6127(2)
C9 C 0.8373(3) 0.8493(5) 0.5900(2)
C10 C 0.8067(3) 0.8442(5) 0.5333(2)
C11 C 0.8318(3) 0.7786(5) 0.5017(2)
C12 C 0.9248(3) 0.8062(4) 0.6721(2)
C13 C 1.0350(2) 1.1801(4) 0.9618(2)
C14 C 1.0388(3) 1.0783(5) 0.9375(2)
C15 C 1.0632(3) 0.9916(5) 0.9718(2)
C16 C 1.0857(3) 1.0056(5) 1.0284(2)
C17 C 1.0816(3) 1.1082(5) 1.0489(2)
C18 C 1.0167(3) 1.0592(5) 0.8758(2)
H1 H 0.668(3) 0.354(5) 0.428(3)
H2 H 0.699(4) 0.356(6) 0.521(3)
H3 H 0.797(3) 0.400(6) 0.560(3)
H4 H 0.825(4) 0.904(7) 0.613(3)
H5 H 0.773(3) 0.881(5) 0.515(3)
H6 H 0.817(3) 0.777(6) 0.469(3)
H7 H 1.063(3) 0.928(5) 0.955(2)
H8 H 1.108(3) 0.941(6) 1.053(3)
H9 H 1.094(3) 1.127(6) 1.084(3)
Ag1A Ag 1.07005(2) 0.45141(4) 0.951312(17)
Ag2A Ag 0.95418(2) 0.63956(4) 0.948611(17)
Ag3A Ag 1.07407(2) 0.62055(4) 1.034827(17)
Mn1A Mn 1.06145(4) 0.90174(7) 0.71581(3)
S1A S 1.13955(6) 0.47215(12) 1.08845(6)
S2A S 1.03092(7) 0.61768(11) 0.89655(6)
S3A S 1.00059(7) 1.29262(11) 0.57850(6)
N1A N 1.1728(2) 0.4283(4) 0.9967(2)
N2A N 1.1183(2) 0.7142(4) 0.97726(18)
N3A N 0.9435(2) 1.1931(4) 0.48331(18)
O1A O 1.2788(2) 0.4878(4) 1.17057(19)
O2A O 1.2819(3) 0.3070(5) 1.1667(2)
O3A O 1.10596(19) 0.8376(4) 0.79668(16)
O4A O 1.0240(2) 0.9894(4) 0.63991(17)
O5A O 0.9574(3) 1.1091(4) 0.6543(2)
O6A O 1.1030(2) 0.7744(4) 0.67697(17)
O7A O 1.01734(19) 0.7936(4) 0.81285(18)
O9A O 1.1433(2) 1.0033(4) 0.72599(19)
C1A C 1.1922(3) 0.4323(5) 1.0524(2)
C2A C 1.2528(3) 0.4025(5) 1.0822(3)
C3A C 1.2945(3) 0.3736(5) 1.0532(3)
C4A C 1.2757(3) 0.3748(6) 0.9969(3)
C5A C 1.2149(3) 0.4009(6) 0.9704(3)
C6A C 1.2730(3) 0.4000(6) 1.1454(3)
C7A C 1.0908(3) 0.7153(4) 0.9225(2)
C8A C 1.1104(2) 0.7863(4) 0.8873(2)
C9A C 1.1627(3) 0.8493(5) 0.9100(2)
C10A C 1.1933(3) 0.8442(5) 0.9667(2)
C11A C 1.1682(3) 0.7786(5) 0.9983(2)
C12A C 1.0752(3) 0.8062(4) 0.8279(2)
C13A C 0.9650(2) 1.1801(4) 0.5382(2)
C14A C 0.9612(3) 1.0783(5) 0.5625(2)
C15A C 0.9368(3) 0.9916(5) 0.5282(2)
C16A C 0.9143(3) 1.0056(5) 0.4716(2)
C17A C 0.9184(3) 1.1082(5) 0.4511(2)
C18A C 0.9833(3) 1.0592(5) 0.6242(2)
H1A H 1.332(3) 0.354(5) 1.072(3)
H2A H 1.301(4) 0.356(6) 0.979(3)
H3A H 1.203(3) 0.400(6) 0.940(3)
H4A H 1.175(4) 0.904(7) 0.887(3)
H5A H 1.227(3) 0.881(5) 0.985(3)
H6A H 1.183(3) 0.777(6) 1.031(3)
H7A H 0.937(3) 0.928(5) 0.545(2)
H8A H 0.892(3) 0.941(6) 0.447(3)
H9A H 0.906(3) 1.127(6) 0.416(3)
Ag1_2 Ag 0.92995(2) 1.45141(4) 0.548688(17)
Ag1A_2 Ag 1.07005(2) 1.45141(4) 0.951312(17)
Ag1D Ag 1.07005(2) 0.54859(4) 0.451312(17)
Ag1E Ag 0.92995(2) 0.54859(4) 1.048688(17)
Ag2D Ag 0.95418(2) 0.36044(4) 0.448611(17)
Ag2D_2 Ag 0.95418(2) 1.36044(4) 0.448611(17)
Ag2E Ag 1.04582(2) 0.36044(4) 1.051389(17)
Ag2E_2 Ag 1.04582(2) 1.36044(4) 1.051389(17)
Ag3D Ag 1.07407(2) 1.37945(4) 0.534827(17)
Ag3E Ag 0.92593(2) 1.37945(4) 0.965173(17)
S1D S 1.13955(6) 0.52785(12) 0.58845(6)
S1E S 0.86045(6) 0.52785(12) 0.91155(6)
S3_2 S 0.99941(7) 0.29262(11) 0.92150(6)
S3A_2 S 1.00059(7) 0.29262(11) 0.57850(6)
S3D S 1.00059(7) 0.70738(11) 1.07850(6)
S3E S 0.99941(7) 0.70738(11) 0.42150(6)
N3D N 0.9435(2) 0.8069(4) 0.98331(18)
N3E N 1.0565(2) 0.8069(4) 0.51669(18)
O10 O 1.0000 0.5919(7) 0.7500
O11 O 0.9400(6) 0.3947(11) 0.7840(6)
O12 O 0.8767(4) 0.2128(8) 0.8212(5)
O13 O 0.7654(6) 0.2937(12) 0.8338(6)
O14 O 0.8141(8) 0.475(2) 0.7622(11)
O15 O 0.7928(3) 0.6847(6) 0.7628(3)
O16 O 0.6025(5) 0.7896(8) 0.8209(7)
O17 O 0.5125(15) 0.794(2) 0.7907(12)
O18 O 0.6218(6) 1.0103(11) 0.8152(9)
O19 O 0.7308(4) 1.0973(7) 0.8817(3)
O20 O 0.7742(3) 0.9052(7) 0.8415(4)
loop_
_geom_bond_atom_site_label_1
_geom_bond_atom_site_label_2
_geom_bond_site_symmetry_1
_geom_bond_site_symmetry_2
Ag1 Ag3 1_555 1_555
Ag2 Ag3 1_555 1_555
Ag3 S1 1_555 1_555
Mn1 O3 1_555 1_555
S1 C1 1_555 1_555
S2 Ag1 1_555 1_555
S3 C13 1_555 1_555
N1 Ag1 1_555 1_555
N2 Ag3 1_555 1_555
N3 C13 1_555 1_555
O1 C6 1_555 1_555
O2 C6 1_555 1_555
O3 C12 1_555 1_555
O4 Mn1 1_555 1_555
O5 C18 1_555 1_555
O6 Mn1 1_555 1_555
O7 C12 1_555 1_555
O8 Mn1 1_555 1_555
O9 Mn1 1_555 1_555
C1 N1 1_555 1_555
C2 C1 1_555 1_555
C3 C2 1_555 1_555
C4 C3 1_555 1_555
C5 N1 1_555 1_555
C6 C2 1_555 1_555
C7 S2 1_555 1_555
C8 C7 1_555 1_555
C9 C8 1_555 1_555
C10 C9 1_555 1_555
C11 N2 1_555 1_555
C12 C8 1_555 1_555
C13 C14 1_555 1_555
C14 C15 1_555 1_555
C15 C16 1_555 1_555
C16 C17 1_555 1_555
C17 N3 1_555 1_555
C18 O4 1_555 1_555
H1 C3 1_555 1_555
H2 C4 1_555 1_555
H3 C5 1_555 1_555
H4 C9 1_555 1_555
H5 C10 1_555 1_555
H6 C11 1_555 1_555
H7 C15 1_555 1_555
H8 C16 1_555 1_555
H9 C17 1_555 1_555
Ag1A Ag3A 1_555 1_555
Ag2A Ag3A 1_555 1_555
Ag3A S1A 1_555 1_555
Mn1A O7 1_555 1_555
S1A C1A 1_555 1_555
S2A Ag1A 1_555 1_555
S3A C13A 1_555 1_555
N1A Ag1A 1_555 1_555
N2A Ag3A 1_555 1_555
N3A C13A 1_555 1_555
O1A C6A 1_555 1_555
O2A C6A 1_555 1_555
O3A Mn1A 1_555 1_555
O4A Mn1A 1_555 1_555
O5A C18A 1_555 1_555
O6A Mn1A 1_555 1_555
O7A Mn1 1_555 1_555
O9A Mn1A 1_555 1_555
C1A N1A 1_555 1_555
C2A C1A 1_555 1_555
C3A C2A 1_555 1_555
C4A C3A 1_555 1_555
C5A N1A 1_555 1_555
C6A C2A 1_555 1_555
C7A S2A 1_555 1_555
C8A C7A 1_555 1_555
C9A C8A 1_555 1_555
C10A C9A 1_555 1_555
C11A N2A 1_555 1_555
C12A O3A 1_555 1_555
C13A C14A 1_555 1_555
C14A C15A 1_555 1_555
C15A C16A 1_555 1_555
C16A C17A 1_555 1_555
C17A N3A 1_555 1_555
C18A O4A 1_555 1_555
H1A C3A 1_555 1_555
H2A C4A 1_555 1_555
H3A C5A 1_555 1_555
H4A C9A 1_555 1_555
H5A C10A 1_555 1_555
H6A C11A 1_555 1_555
H7A C15A 1_555 1_555
H8A C16A 1_555 1_555
H9A C17A 1_555 1_555
Ag1_2 S3A 1_555 1_555
Ag1A_2 S3 1_555 1_555
Ag1D Ag2 1_555 1_555
Ag1E Ag2A 1_555 1_555
Ag2D Ag1 1_555 1_555
Ag2D_2 N3A 1_555 1_555
Ag2E Ag1A 1_555 1_555
Ag2E_2 N3 1_555 1_555
Ag3D S3A 1_555 1_555
Ag3E S3 1_555 1_555
S1D Ag2 1_555 1_555
S1E Ag2A 1_555 1_555
S3_2 Ag1A 1_555 1_555
S3A_2 Ag1 1_555 1_555
S3D Ag3A 1_555 1_555
S3E Ag3 1_555 1_555
N3D Ag2A 1_555 1_555
N3E Ag2 1_555 1_555
Ag2 S2 1_555 1_555
S1 Ag2D 1_555 1_555
N2 C7 1_555 1_555
O8 Mn1A 1_555 1_555
C4 C5 1_555 1_555
C10 C11 1_555 1_555
C14 C18 1_555 1_555
Ag2A S2A 1_555 1_555
S1A Ag2E 1_555 1_555
N2A C7A 1_555 1_555
O7A C12A 1_555 1_555
C4A C5A 1_555 1_555
C8A C12A 1_555 1_555
C10A C11A 1_555 1_555
C14A C18A 1_555 1_555
Ag1_2 Ag2D_2 1_555 1_555
Ag1A_2 Ag2E_2 1_555 1_555
Ag1D S3E 1_555 1_555
Ag1E S3D 1_555 1_555
Ag2D_2 Ag3D 1_555 1_555
Ag2E_2 Ag3E 1_555 1_555

#END
