
#######################################################################
#
#                 Cambridge Crystallographic Data Centre
#                                CCDC 
#
#######################################################################
#
# If this CIF has been generated from an entry in the Cambridge 
# Structural Database, then it will include bibliographic, chemical, 
# crystal, experimental, refinement or atomic coordinate data resulting 
# from the CCDC's data processing and validation procedures.
#
#######################################################################

data_WOHWAT
_symmetry_cell_setting           triclinic
_symmetry_space_group_name_H-M   'P -1'
_symmetry_Int_Tables_number      2
_space_group_name_Hall           '-P 1'
loop_
_symmetry_equiv_pos_site_id
_symmetry_equiv_pos_as_xyz
1 x,y,z
2 -x,-y,-z
_cell_length_a                   8.6916(15)
_cell_length_b                   11.293(4)
_cell_length_c                   11.632(2)
_cell_angle_alpha                91.36(2)
_cell_angle_beta                 106.884(15)
_cell_angle_gamma                102.57(2)
_cell_volume                     1061.7
loop_
_atom_site_label
_atom_site_type_symbol
_atom_site_fract_x
_atom_site_fract_y
_atom_site_fract_z
C1 C 0.7325(16) 0.2571(11) 0.6219(10)
C2 C 0.6793(15) 0.1629(11) 0.5138(9)
C3 C 0.7444(15) 0.0676(12) 0.4998(11)
H1 H 0.8347 0.0544 0.5600
C4 C 0.6761(17) -0.0104(12) 0.3953(13)
H2 H 0.7162 -0.0789 0.3863
C5 C 0.546(2) 0.0146(13) 0.3031(13)
H3 H 0.5027 -0.0361 0.2314
C6 C 0.4807(18) 0.1132(13) 0.3168(11)
H4 H 0.3933 0.1297 0.2562
C7 C 0.5495(14) 0.1853(10) 0.4225(9)
C8 C 0.9516(14) 0.7472(10) 0.9087(9)
C9 C 0.9524(15) 0.7827(13) 0.7964(10)
H5 H 0.8837 0.7337 0.7273
C10 C 1.0575(19) 0.8933(16) 0.7865(14)
H6 H 1.0575 0.9152 0.7099
C11 C 1.1612(17) 0.9712(15) 0.8860(15)
H7 H 1.2299 1.0442 0.8781
C12 C 1.1563(14) 0.9347(13) 0.9959(13)
H8 H 1.2232 0.9858 1.0641
C13 C 1.0569(14) 0.8250(12) 1.0127(10)
H9 H 1.0597 0.8035 1.0899
C14 C 0.6809(13) 0.6500(9) 0.9998(9)
C15 C 0.5361(12) 0.6760(10) 0.9318(9)
H10 H 0.5091 0.6672 0.8482
C16 C 0.4303(14) 0.7144(10) 0.9834(12)
H11 H 0.3340 0.7327 0.9354
C17 C 0.4681(18) 0.7256(12) 1.1063(14)
H12 H 0.3987 0.7532 1.1428
C18 C 0.6080(17) 0.6959(12) 1.1752(10)
H13 H 0.6309 0.7017 1.2586
C19 C 0.7159(12) 0.6581(11) 1.1259(9)
H14 H 0.8104 0.6380 1.1747
C20 C 0.9446(11) 0.5267(9) 1.0293(8)
H15 H 1.0130 0.5825 1.0990
H16 H 0.8744 0.4615 1.0564
N1 N 0.6386(10) 0.3378(8) 0.6018(6)
O1 O 0.5223(10) 0.4060(7) 0.3946(6)
O2 O 0.3360(10) 0.2851(8) 0.4814(7)
O3 O 0.8417(11) 0.2563(10) 0.7120(7)
P1 P 0.8166(3) 0.6071(3) 0.9212(2)
S1 S 0.4958(4) 0.3126(3) 0.4714(2)
Ag1 Ag 0.68663(12) 0.48921(10) 0.73436(8)
C8A C 1.0484(14) 0.2528(10) 1.0913(9)
C9A C 1.0476(15) 0.2173(13) 1.2036(10)
H5A H 1.1163 0.2663 1.2727
C10A C 0.9425(19) 0.1067(16) 1.2135(14)
H6A H 0.9425 0.0848 1.2901
C11A C 0.8388(17) 0.0288(15) 1.1140(15)
H7A H 0.7701 -0.0442 1.1219
C12A C 0.8437(14) 0.0653(13) 1.0041(13)
H8A H 0.7768 0.0142 0.9359
C13A C 0.9431(14) 0.1750(12) 0.9873(10)
H9A H 0.9403 0.1965 0.9101
C14A C 1.3191(13) 0.3500(9) 1.0002(9)
C15A C 1.4639(12) 0.3240(10) 1.0682(9)
H10A H 1.4909 0.3328 1.1518
C16A C 1.5697(14) 0.2856(10) 1.0166(12)
H11A H 1.6660 0.2673 1.0646
C17A C 1.5319(18) 0.2744(12) 0.8937(14)
H12A H 1.6013 0.2468 0.8572
C18A C 1.3920(17) 0.3041(12) 0.8248(10)
H13A H 1.3691 0.2983 0.7414
C19A C 1.2841(12) 0.3419(11) 0.8741(9)
H14A H 1.1896 0.3620 0.8253
C20A C 1.0554(11) 0.4733(9) 0.9707(8)
H15A H 0.9870 0.4175 0.9010
H16A H 1.1256 0.5385 0.9436
P1A P 1.1834(3) 0.3929(3) 1.0788(2)
C1A C 0.2675(16) 0.7429(11) 0.3781(10)
C2A C 0.3207(15) 0.8371(11) 0.4862(9)
C3A C 0.2556(15) 0.9324(12) 0.5002(11)
H1A H 0.1653 0.9456 0.4400
C4A C 0.3239(17) 1.0104(12) 0.6047(13)
H2A H 0.2838 1.0789 0.6137
C5A C 0.454(2) 0.9854(13) 0.6969(13)
H3A H 0.4973 1.0361 0.7686
C6A C 0.5193(18) 0.8868(13) 0.6832(11)
H4A H 0.6067 0.8703 0.7438
C7A C 0.4505(14) 0.8147(10) 0.5775(9)
N1A N 0.3614(10) 0.6622(8) 0.3982(6)
O1A O 0.4777(10) 0.5940(7) 0.6054(6)
O2A O 0.6640(10) 0.7149(8) 0.5186(7)
O3A O 0.1583(11) 0.7437(10) 0.2880(7)
S1A S 0.5042(4) 0.6874(3) 0.5286(2)
Ag1A Ag 0.31337(12) 0.51079(10) 0.26564(8)
P1A_2 P 0.1834(3) 0.3929(3) 0.0788(2)
Ag1A_2 Ag 1.31337(12) 0.51079(10) 1.26564(8)
loop_
_geom_bond_atom_site_label_1
_geom_bond_atom_site_label_2
_geom_bond_site_symmetry_1
_geom_bond_site_symmetry_2
C1 C2 1_555 1_555
C2 C3 1_555 1_555
C3 H1 1_555 1_555
C4 C3 1_555 1_555
H2 C4 1_555 1_555
C5 C4 1_555 1_555
H3 C5 1_555 1_555
C6 C5 1_555 1_555
H4 C6 1_555 1_555
C7 C2 1_555 1_555
C8 C9 1_555 1_555
C9 H5 1_555 1_555
C10 C9 1_555 1_555
H6 C10 1_555 1_555
C11 C10 1_555 1_555
H7 C11 1_555 1_555
C12 C11 1_555 1_555
H8 C12 1_555 1_555
C13 C8 1_555 1_555
H9 C13 1_555 1_555
C14 C15 1_555 1_555
C15 H10 1_555 1_555
C16 C15 1_555 1_555
H11 C16 1_555 1_555
C17 C16 1_555 1_555
H12 C17 1_555 1_555
C18 C17 1_555 1_555
H13 C18 1_555 1_555
C19 C14 1_555 1_555
H14 C19 1_555 1_555
C20 H15 1_555 1_555
H16 C20 1_555 1_555
N1 C1 1_555 1_555
O1 S1 1_555 1_555
O2 S1 1_555 1_555
O3 C1 1_555 1_555
P1 C8 1_555 1_555
S1 C7 1_555 1_555
Ag1 N1 1_555 1_555
C8A C9A 1_555 1_555
C9A H5A 1_555 1_555
C10A C9A 1_555 1_555
H6A C10A 1_555 1_555
C11A C10A 1_555 1_555
H7A C11A 1_555 1_555
C12A C11A 1_555 1_555
H8A C12A 1_555 1_555
C13A C8A 1_555 1_555
H9A C13A 1_555 1_555
C14A C15A 1_555 1_555
C15A H10A 1_555 1_555
C16A C15A 1_555 1_555
H11A C16A 1_555 1_555
C17A C16A 1_555 1_555
H12A C17A 1_555 1_555
C18A C17A 1_555 1_555
H13A C18A 1_555 1_555
C19A C14A 1_555 1_555
H14A C19A 1_555 1_555
C20A C20 1_555 1_555
H15A C20A 1_555 1_555
H16A C20A 1_555 1_555
P1A C8A 1_555 1_555
C1A C2A 1_555 1_555
C2A C3A 1_555 1_555
C3A H1A 1_555 1_555
C4A C3A 1_555 1_555
H2A C4A 1_555 1_555
C5A C4A 1_555 1_555
H3A C5A 1_555 1_555
C6A C5A 1_555 1_555
H4A C6A 1_555 1_555
C7A C2A 1_555 1_555
N1A C1A 1_555 1_555
O1A Ag1 1_555 1_555
O2A S1A 1_555 1_555
O3A C1A 1_555 1_555
S1A C7A 1_555 1_555
Ag1A O1 1_555 1_555
P1A_2 Ag1A 1_555 1_555
Ag1A_2 P1A 1_555 1_555
C6 C7 1_555 1_555
C12 C13 1_555 1_555
C14 P1 1_555 1_555
C18 C19 1_555 1_555
C20 P1 1_555 1_555
N1 S1 1_555 1_555
P1 Ag1 1_555 1_555
C12A C13A 1_555 1_555
C14A P1A 1_555 1_555
C18A C19A 1_555 1_555
C20A P1A 1_555 1_555
C6A C7A 1_555 1_555
N1A S1A 1_555 1_555
N1A Ag1A 1_555 1_555
O1A S1A 1_555 1_555

#END
