
#######################################################################
#
#                 Cambridge Crystallographic Data Centre
#                                CCDC 
#
#######################################################################
#
# If this CIF has been generated from an entry in the Cambridge 
# Structural Database, then it will include bibliographic, chemical, 
# crystal, experimental, refinement or atomic coordinate data resulting 
# from the CCDC's data processing and validation procedures.
#
#######################################################################

data_WOHWEX
_symmetry_cell_setting           monoclinic
_symmetry_space_group_name_H-M   'P 21/c'
_symmetry_Int_Tables_number      14
_space_group_name_Hall           '-P 2ybc'
loop_
_symmetry_equiv_pos_site_id
_symmetry_equiv_pos_as_xyz
1 x,y,z
2 -x,1/2+y,1/2-z
3 -x,-y,-z
4 x,1/2-y,1/2+z
_cell_length_a                   20.3361(4)
_cell_length_b                   14.9758(3)
_cell_length_c                   27.2484(6)
_cell_angle_alpha                90
_cell_angle_beta                 126.417(1)
_cell_angle_gamma                90
_cell_volume                     6677.94
loop_
_atom_site_label
_atom_site_type_symbol
_atom_site_fract_x
_atom_site_fract_y
_atom_site_fract_z
C1 C 0.90712(19) 0.1494(2) 0.55610(14)
C2 C 0.9155(3) 0.0652(3) 0.53896(17)
H1 H 0.9602 0.0302 0.5674
C3 C 0.8596(3) 0.0323(4) 0.4812(2)
H2 H 0.8662 -0.0244 0.4708
C4 C 0.7958(3) 0.0826(5) 0.4402(2)
H3 H 0.7583 0.0602 0.4011
C5 C 0.7840(3) 0.1652(5) 0.4537(2)
H4 H 0.7393 0.1992 0.4243
C6 C 0.8409(3) 0.1993(4) 0.51342(19)
H5 H 0.8331 0.2556 0.5235
C7 C 1.07599(19) 0.1769(2) 0.63659(14)
C8 C 1.0826(2) 0.2268(3) 0.59694(18)
H6 H 1.0419 0.2674 0.5706
C9 C 1.1491(4) 0.2164(5) 0.5965(3)
H7 H 1.1530 0.2490 0.5692
C10 C 1.2098(3) 0.1583(5) 0.6360(3)
H8 H 1.2546 0.1510 0.6351
C11 C 1.2056(3) 0.1113(4) 0.6761(3)
H9 H 1.2478 0.0727 0.7033
C12 C 1.1385(2) 0.1202(3) 0.6770(2)
H10 H 1.1358 0.0879 0.7049
C13 C 0.98942(19) 0.1081(2) 0.68258(14)
H11 H 0.9973 0.0498 0.6713
H12 H 1.0362 0.1203 0.7241
C14 C 0.91226(18) 0.1067(2) 0.67960(14)
H13 H 0.8665 0.0887 0.6390
H14 H 0.9014 0.1667 0.6865
C15 C 1.06880(19) 0.0388(2) 0.92031(14)
C16 C 1.0718(3) 0.0108(3) 0.97011(17)
H15 H 1.0305 -0.0255 0.9640
C17 C 1.1348(3) 0.0360(4) 1.02825(19)
H16 H 1.1360 0.0159 1.0611
C18 C 1.1954(3) 0.0900(3) 1.0382(2)
H17 H 1.2378 0.1071 1.0777
C19 C 1.1939(2) 0.1186(3) 0.9909(2)
H18 H 1.2352 0.1558 0.9977
C20 C 1.1308(2) 0.0929(2) 0.93157(17)
H19 H 1.1307 0.1128 0.8992
C21 C 0.89428(19) 0.0142(2) 0.83570(13)
C22 C 0.8742(2) 0.0986(3) 0.84368(18)
H20 H 0.9107 0.1456 0.8559
C23 C 0.7994(3) 0.1132(3) 0.8334(2)
H21 H 0.7860 0.1699 0.8388
C24 C 0.7456(3) 0.0442(4) 0.8155(2)
H22 H 0.6957 0.0542 0.8087
C25 C 0.7647(3) -0.0386(4) 0.80759(18)
H23 H 0.7278 -0.0852 0.7954
C26 C 0.8387(2) -0.0539(3) 0.81760(15)
H24 H 0.8512 -0.1110 0.8121
C27 C 0.9860(2) 0.0691(2) 0.79160(13)
H25 H 0.9771 0.1296 0.7993
H26 H 1.0379 0.0677 0.7975
C28 C 0.91799(19) 0.0437(2) 0.72609(13)
H27 H 0.8663 0.0442 0.7206
H28 H 0.9274 -0.0166 0.7185
C29 C 0.91132(19) 0.3588(2) 0.80510(14)
C30 C 0.8792(3) 0.3699(3) 0.8373(2)
H29 H 0.8260 0.3900 0.8185
C31 C 0.9298(3) 0.3497(3) 0.8990(2)
H30 H 0.9101 0.3565 0.9221
C32 C 1.0070(3) 0.3204(3) 0.9263(2)
H31 H 1.0392 0.3072 0.9677
C33 C 1.0392(2) 0.3096(3) 0.89443(17)
H32 H 1.0926 0.2898 0.9138
C34 C 0.98975(19) 0.3290(2) 0.83234(14)
C35 C 1.0090(2) 0.3188(2) 0.78787(17)
N1 N 0.94566(18) 0.34281(18) 0.73099(13)
O1 O 0.80000(16) 0.3150(2) 0.69150(12)
O2 O 0.84985(16) 0.46751(18) 0.71106(12)
O3 O 1.07462(16) 0.29112(19) 0.80145(13)
P1 P 0.98421(5) 0.19181(5) 0.63225(3)
P2 P 0.99007(5) -0.00678(5) 0.84587(4)
S1 S 0.86729(5) 0.37492(6) 0.72757(4)
Ag1 Ag 0.978177(17) 0.340919(15) 0.662790(12)
P2A P 1.00993(5) 0.49322(5) 0.65413(4)
Ag1A Ag 1.021823(17) -0.159081(15) 0.837210(12)
C36 C 0.39314(18) 0.4098(2) 0.05878(13)
C37 C 0.3191(2) 0.4541(3) 0.02502(16)
H33 H 0.3126 0.5071 0.0395
C38 C 0.2537(2) 0.4192(3) -0.03115(19)
H34 H 0.2038 0.4488 -0.0536
C39 C 0.2629(3) 0.3425(3) -0.05283(19)
H35 H 0.2194 0.3199 -0.0902
C40 C 0.3353(3) 0.2986(3) -0.02023(18)
H36 H 0.3413 0.2461 -0.0354
C41 C 0.3995(2) 0.3311(2) 0.03488(16)
H37 H 0.4486 0.2998 0.0569
C42 C 0.56337(18) 0.43914(19) 0.12771(13)
C43 C 0.5642(2) 0.4934(2) 0.08671(16)
H38 H 0.5228 0.5351 0.0639
C44 C 0.6252(2) 0.4862(3) 0.07948(19)
H39 H 0.6245 0.5220 0.0513
C45 C 0.6872(3) 0.4261(3) 0.1140(2)
H40 H 0.7285 0.4211 0.1090
C46 C 0.6888(2) 0.3735(3) 0.15562(19)
H41 H 0.7316 0.3336 0.1793
C47 C 0.62671(19) 0.3798(2) 0.16255(15)
H42 H 0.6278 0.3438 0.1908
C48 C 0.49256(18) 0.3698(2) 0.18612(14)
H43 H 0.4988 0.3112 0.1741
H44 H 0.5419 0.3831 0.2263
C49 C 0.42000(19) 0.3692(2) 0.18850(14)
H45 H 0.3718 0.3511 0.1490
H46 H 0.4108 0.4295 0.1963
C50 C 0.5960(2) 0.3019(2) 0.43095(15)
C51 C 0.6494(3) 0.3646(3) 0.43709(18)
H47 H 0.6420 0.3875 0.4024
C52 C 0.7144(3) 0.3945(3) 0.4941(2)
H48 H 0.7501 0.4370 0.4973
C53 C 0.7259(3) 0.3623(3) 0.5450(2)
H49 H 0.7683 0.3842 0.5831
C54 C 0.6753(3) 0.2977(4) 0.54046(19)
H50 H 0.6841 0.2743 0.5755
C55 C 0.6110(3) 0.2672(3) 0.48390(18)
H51 H 0.5772 0.2226 0.4812
C56 C 0.4203(2) 0.2800(2) 0.35309(14)
C57 C 0.3619(3) 0.2143(3) 0.33368(17)
H52 H 0.3712 0.1571 0.3257
C58 C 0.2891(3) 0.2333(4) 0.3260(2)
H53 H 0.2503 0.1886 0.3132
C59 C 0.2746(3) 0.3168(5) 0.3370(2)
H54 H 0.2256 0.3292 0.3312
C60 C 0.3317(4) 0.3825(4) 0.3565(2)
H55 H 0.3218 0.4394 0.3645
C61 C 0.4041(3) 0.3645(3) 0.3645(2)
H56 H 0.4426 0.4097 0.3776
C62 C 0.5025(2) 0.3318(2) 0.30133(14)
H57 H 0.4958 0.3925 0.3101
H58 H 0.5523 0.3293 0.3041
C63 C 0.4305(2) 0.3070(2) 0.23731(14)
H59 H 0.3810 0.3086 0.2350
H60 H 0.4377 0.2464 0.2288
C64 C 0.43370(19) 0.6197(2) 0.32100(13)
C65 C 0.4063(3) 0.6302(3) 0.35653(18)
H61 H 0.3528 0.6469 0.3397
C66 C 0.4623(4) 0.6148(3) 0.4181(2)
H62 H 0.4465 0.6221 0.4437
C67 C 0.5402(3) 0.5892(3) 0.44235(18)
H63 H 0.5760 0.5779 0.4840
C68 C 0.5670(2) 0.5796(3) 0.40686(17)
H64 H 0.6208 0.5633 0.4241
C69 C 0.51257(19) 0.5948(2) 0.34498(14)
C70 C 0.5252(2) 0.5851(2) 0.29653(17)
N2 N 0.45707(17) 0.60455(18) 0.24056(12)
O4 O 0.31804(15) 0.56485(19) 0.21076(11)
O5 O 0.35590(15) 0.72125(17) 0.22234(11)
O6 O 0.58988(16) 0.5614(2) 0.30720(14)
P3 P 0.47833(5) 0.45300(5) 0.13187(3)
P4 P 0.51160(6) 0.25661(5) 0.35770(4)
S2 S 0.38102(5) 0.63083(6) 0.24147(4)
Ag2 Ag 0.470789(16) 0.603050(15) 0.161303(12)
P4A P 0.48840(6) 0.75661(5) 0.14230(4)
Ag2A Ag 0.529211(16) 0.103050(15) 0.338697(12)
loop_
_geom_bond_atom_site_label_1
_geom_bond_atom_site_label_2
_geom_bond_site_symmetry_1
_geom_bond_site_symmetry_2
C1 C2 1_555 1_555
C2 H1 1_555 1_555
C3 C2 1_555 1_555
H2 C3 1_555 1_555
C4 C3 1_555 1_555
H3 C4 1_555 1_555
C5 C4 1_555 1_555
H4 C5 1_555 1_555
C6 C1 1_555 1_555
H5 C6 1_555 1_555
C7 C8 1_555 1_555
C8 H6 1_555 1_555
C9 C8 1_555 1_555
H7 C9 1_555 1_555
C10 C9 1_555 1_555
H8 C10 1_555 1_555
C11 C10 1_555 1_555
H9 C11 1_555 1_555
C12 C7 1_555 1_555
H10 C12 1_555 1_555
C13 H11 1_555 1_555
H12 C13 1_555 1_555
C14 C13 1_555 1_555
H13 C14 1_555 1_555
H14 C14 1_555 1_555
C15 C16 1_555 1_555
C16 H15 1_555 1_555
C17 C16 1_555 1_555
H16 C17 1_555 1_555
C18 C17 1_555 1_555
H17 C18 1_555 1_555
C19 C18 1_555 1_555
H18 C19 1_555 1_555
C20 C15 1_555 1_555
H19 C20 1_555 1_555
C21 C22 1_555 1_555
C22 H20 1_555 1_555
C23 C22 1_555 1_555
H21 C23 1_555 1_555
C24 C23 1_555 1_555
H22 C24 1_555 1_555
C25 C24 1_555 1_555
H23 C25 1_555 1_555
C26 C21 1_555 1_555
H24 C26 1_555 1_555
C27 H25 1_555 1_555
H26 C27 1_555 1_555
C28 C14 1_555 1_555
H27 C28 1_555 1_555
H28 C28 1_555 1_555
C29 C30 1_555 1_555
C30 H29 1_555 1_555
C31 C30 1_555 1_555
H30 C31 1_555 1_555
C32 C31 1_555 1_555
H31 C32 1_555 1_555
C33 C32 1_555 1_555
H32 C33 1_555 1_555
C34 C29 1_555 1_555
C35 C34 1_555 1_555
N1 C35 1_555 1_555
O1 S1 1_555 1_555
O2 S1 1_555 1_555
O3 C35 1_555 1_555
P1 C1 1_555 1_555
P2 C15 1_555 1_555
S1 C29 1_555 1_555
Ag1 N1 1_555 1_555
C36 C37 1_555 1_555
C37 H33 1_555 1_555
C38 C37 1_555 1_555
H34 C38 1_555 1_555
C39 C38 1_555 1_555
H35 C39 1_555 1_555
C40 C39 1_555 1_555
H36 C40 1_555 1_555
C41 C36 1_555 1_555
H37 C41 1_555 1_555
C42 C43 1_555 1_555
C43 H38 1_555 1_555
C44 C43 1_555 1_555
H39 C44 1_555 1_555
C45 C44 1_555 1_555
H40 C45 1_555 1_555
C46 C45 1_555 1_555
H41 C46 1_555 1_555
C47 C42 1_555 1_555
H42 C47 1_555 1_555
C48 H43 1_555 1_555
H44 C48 1_555 1_555
C49 C48 1_555 1_555
H45 C49 1_555 1_555
H46 C49 1_555 1_555
C50 C51 1_555 1_555
C51 H47 1_555 1_555
C52 C51 1_555 1_555
H48 C52 1_555 1_555
C53 C52 1_555 1_555
H49 C53 1_555 1_555
C54 C53 1_555 1_555
H50 C54 1_555 1_555
C55 C50 1_555 1_555
H51 C55 1_555 1_555
C56 C57 1_555 1_555
C57 H52 1_555 1_555
C58 C57 1_555 1_555
H53 C58 1_555 1_555
C59 C58 1_555 1_555
H54 C59 1_555 1_555
C60 C59 1_555 1_555
H55 C60 1_555 1_555
C61 C56 1_555 1_555
H56 C61 1_555 1_555
C62 H57 1_555 1_555
H58 C62 1_555 1_555
C63 C49 1_555 1_555
H59 C63 1_555 1_555
H60 C63 1_555 1_555
C64 C65 1_555 1_555
C65 H61 1_555 1_555
C66 C65 1_555 1_555
H62 C66 1_555 1_555
C67 C66 1_555 1_555
H63 C67 1_555 1_555
C68 C67 1_555 1_555
H64 C68 1_555 1_555
C69 C64 1_555 1_555
C70 C69 1_555 1_555
N2 C70 1_555 1_555
O4 S2 1_555 1_555
O5 S2 1_555 1_555
O6 C70 1_555 1_555
P3 C36 1_555 1_555
P4 C50 1_555 1_555
S2 C64 1_555 1_555
Ag2 N2 1_555 1_555
P2A Ag1 1_555 1_555
Ag1A P2 1_555 1_555
P4A Ag2 1_555 1_555
Ag2A P4 1_555 1_555
C5 C6 1_555 1_555
C7 P1 1_555 1_555
C11 C12 1_555 1_555
C13 P1 1_555 1_555
C19 C20 1_555 1_555
C21 P2 1_555 1_555
C25 C26 1_555 1_555
C27 C28 1_555 1_555
C27 P2 1_555 1_555
C33 C34 1_555 1_555
N1 S1 1_555 1_555
P1 Ag1 1_555 1_555
C40 C41 1_555 1_555
C42 P3 1_555 1_555
C46 C47 1_555 1_555
C48 P3 1_555 1_555
C54 C55 1_555 1_555
C56 P4 1_555 1_555
C60 C61 1_555 1_555
C62 C63 1_555 1_555
C62 P4 1_555 1_555
C68 C69 1_555 1_555
N2 S2 1_555 1_555
P3 Ag2 1_555 1_555

#END
