
#######################################################################
#
#                 Cambridge Crystallographic Data Centre
#                                CCDC 
#
#######################################################################
#
# If this CIF has been generated from an entry in the Cambridge 
# Structural Database, then it will include bibliographic, chemical, 
# crystal, experimental, refinement or atomic coordinate data resulting 
# from the CCDC's data processing and validation procedures.
#
#######################################################################

data_WOHYUN
_symmetry_cell_setting           monoclinic
_symmetry_space_group_name_H-M   'C 2/c'
_symmetry_Int_Tables_number      15
_space_group_name_Hall           '-C 2yn'
loop_
_symmetry_equiv_pos_site_id
_symmetry_equiv_pos_as_xyz
1 x,y,z
2 1/2+x,1/2+y,z
3 x,-y,1/2+z
4 1/2+x,1/2-y,1/2+z
5 -x,-y,-z
6 1/2-x,1/2-y,-z
7 -x,y,1/2-z
8 1/2-x,1/2+y,1/2-z
_cell_length_a                   26.9621(13)
_cell_length_b                   10.1005(5)
_cell_length_c                   7.9512(4)
_cell_angle_alpha                90.00
_cell_angle_beta                 93.393(2)
_cell_angle_gamma                90.00
_cell_volume                     2161.56
loop_
_atom_site_label
_atom_site_type_symbol
_atom_site_fract_x
_atom_site_fract_y
_atom_site_fract_z
Mn1 Mn 0.5000 0.12636(7) 0.2500
O1 O 0.44437(8) 0.1729(2) 0.0474(3)
C1 C 0.37869(11) 0.1350(3) -0.1590(4)
C2 C 0.29913(11) 0.2425(3) -0.1527(4)
C3 C 0.43085(11) 0.1096(3) -0.0841(4)
C4 C 0.27940(11) 0.1581(3) -0.2786(4)
C5 C 0.35980(12) 0.0561(3) -0.2907(4)
C6 C 0.13383(11) 0.1534(3) -0.4422(4)
C7 C 0.34811(11) 0.2307(3) -0.0938(4)
C8 C 0.22755(11) 0.1614(3) -0.3354(4)
C9 C 0.31070(12) 0.0654(4) -0.3497(4)
C10 C 0.18495(12) 0.1571(3) -0.3851(4)
C11 C 0.11596(12) 0.0737(4) -0.5751(4)
O2 O 0.45589(8) 0.0260(2) -0.1545(3)
N1 N 0.55049(9) 0.2713(3) 0.0988(3)
C12 C 0.53459(12) 0.3480(4) -0.0317(5)
C13 C 0.09912(12) 0.2281(3) -0.3603(4)
C14 C 0.06556(13) 0.0751(4) -0.6187(5)
H1 H 0.0558(11) 0.030(3) -0.694(4)
H2 H 0.3606(13) 0.288(3) -0.011(5)
H3 H 0.1102(12) 0.281(3) -0.273(4)
H4 H 0.2978(12) 0.004(3) -0.444(4)
H5 H 0.1400(15) 0.020(4) -0.626(5)
H6 H 0.2783(13) 0.306(4) -0.101(5)
H7 H 0.3801(12) -0.002(3) -0.335(4)
H8 H 0.5033(17) 0.345(4) -0.060(6)
O1F O 0.55563(8) 0.1729(2) 0.4526(3)
O2D O 0.54411(8) -0.0260(2) 0.1545(3)
N1F N 0.44951(9) 0.2713(3) 0.4012(3)
O2B O 0.45589(8) -0.0260(2) 0.3455(3)
C13C C 0.59912(12) 0.2719(3) 0.1397(4)
C14C C 0.56556(13) 0.4249(4) -0.1187(5)
N1C N 0.05049(9) 0.2287(3) -0.4012(3)
C12C C 0.03459(12) 0.1520(4) -0.5317(5)
Mn1B Mn 0.5000 -0.12636(7) -0.2500
C6C C 0.63383(11) 0.3466(3) 0.0578(4)
H3C H 0.6102(12) 0.219(3) 0.227(4)
C11C C 0.61596(12) 0.4263(4) -0.0751(4)
H1C H 0.5558(11) 0.470(3) -0.194(4)
Mn1C Mn 0.0000 0.37364(7) -0.2500
H8C H 0.0033(17) 0.155(4) -0.560(6)
C10C C 0.68495(12) 0.3429(3) 0.1149(4)
H5C H 0.6400(15) 0.480(4) -0.126(5)
C8C C 0.72755(11) 0.3386(3) 0.1646(4)
C4C C 0.77940(11) 0.3419(3) 0.2214(4)
C2C C 0.79913(11) 0.2575(3) 0.3473(4)
C9C C 0.81070(12) 0.4346(4) 0.1503(4)
C7C C 0.84811(11) 0.2693(3) 0.4062(4)
H6C H 0.7783(13) 0.194(4) 0.399(5)
C5C C 0.85980(12) 0.4439(3) 0.2093(4)
H4C H 0.7978(12) 0.496(3) 0.056(4)
C1C C 0.87869(11) 0.3650(3) 0.3410(4)
H2C H 0.8606(13) 0.212(3) 0.489(5)
H7C H 0.8801(12) 0.502(3) 0.165(4)
C3C C 0.93085(11) 0.3904(3) 0.4159(4)
O1C O 0.94437(8) 0.3271(2) 0.5474(3)
O2C O 0.95589(8) 0.4740(2) 0.3455(3)
Mn1C_2 Mn 1.0000 0.37364(7) 0.7500
Mn1A Mn 1.0000 0.62636(7) 0.2500
loop_
_geom_bond_atom_site_label_1
_geom_bond_atom_site_label_2
_geom_bond_site_symmetry_1
_geom_bond_site_symmetry_2
Mn1 O1 1_555 1_555
O1 C3 1_555 1_555
C1 C3 1_555 1_555
C2 C4 1_555 1_555
C3 O2 1_555 1_555
C4 C8 1_555 1_555
C5 C1 1_555 1_555
C6 C10 1_555 1_555
C7 C1 1_555 1_555
C8 C10 1_555 1_555
C9 C4 1_555 1_555
C11 C6 1_555 1_555
O2 Mn1B 1_555 1_555
N1 Mn1 1_555 1_555
C12 N1 1_555 1_555
C13 C6 1_555 1_555
C14 C11 1_555 1_555
H1 C14 1_555 1_555
H2 C7 1_555 1_555
H3 C13 1_555 1_555
H4 C9 1_555 1_555
H5 C11 1_555 1_555
H6 C2 1_555 1_555
H7 C5 1_555 1_555
H8 C12 1_555 1_555
O1F Mn1 1_555 1_555
O2D Mn1 1_555 1_555
N1F Mn1 1_555 1_555
O2B Mn1 1_555 1_555
C13C N1 1_555 1_555
C14C C12 1_555 1_555
N1C C13 1_555 1_555
C12C C14 1_555 1_555
C6C C13C 1_555 1_555
H3C C13C 1_555 1_555
C11C C14C 1_555 1_555
H1C C14C 1_555 1_555
Mn1C N1C 1_555 1_555
H8C C12C 1_555 1_555
C10C C6C 1_555 1_555
H5C C11C 1_555 1_555
C8C C10C 1_555 1_555
C4C C8C 1_555 1_555
C2C C4C 1_555 1_555
C9C C4C 1_555 1_555
C7C C2C 1_555 1_555
H6C C2C 1_555 1_555
C5C C9C 1_555 1_555
H4C C9C 1_555 1_555
C1C C7C 1_555 1_555
H2C C7C 1_555 1_555
H7C C5C 1_555 1_555
C3C C1C 1_555 1_555
O1C C3C 1_555 1_555
O2C C3C 1_555 1_555
Mn1C_2 O1C 1_555 1_555
Mn1A O2C 1_555 1_555
C2 C7 1_555 1_555
C5 C9 1_555 1_555
N1C C12C 1_555 1_555
C6C C11C 1_555 1_555
C5C C1C 1_555 1_555

#END
