
#######################################################################
#
#                 Cambridge Crystallographic Data Centre
#                                CCDC 
#
#######################################################################
#
# If this CIF has been generated from an entry in the Cambridge 
# Structural Database, then it will include bibliographic, chemical, 
# crystal, experimental, refinement or atomic coordinate data resulting 
# from the CCDC's data processing and validation procedures.
#
#######################################################################

data_WOHZOI
_symmetry_cell_setting           triclinic
_symmetry_space_group_name_H-M   'P -1'
_symmetry_Int_Tables_number      2
_space_group_name_Hall           '-P 1'
loop_
_symmetry_equiv_pos_site_id
_symmetry_equiv_pos_as_xyz
1 x,y,z
2 -x,-y,-z
_cell_length_a                   6.9237(7)
_cell_length_b                   9.9651(10)
_cell_length_c                   10.4360(11)
_cell_angle_alpha                109.309(2)
_cell_angle_beta                 104.143(2)
_cell_angle_gamma                105.889(2)
_cell_volume                     607.467
loop_
_atom_site_label
_atom_site_type_symbol
_atom_site_fract_x
_atom_site_fract_y
_atom_site_fract_z
N1 N 0.4745(3) -0.2348(2) -0.3282(2)
N2 N 0.3805(3) -0.3210(2) -0.1265(2)
N3 N 0.8105(4) 0.0788(2) -0.1107(2)
N4 N 0.9875(3) 0.1375(2) -0.0209(2)
N5 N 1.1620(4) 0.2001(2) 0.0681(2)
N6 N 0.3452(3) -0.0159(2) -0.1184(2)
N7 N 0.2897(3) 0.0211(2) -0.2135(2)
N8 N 0.2368(5) 0.0560(3) -0.3075(3)
C1 C 0.5098(5) -0.1874(3) -0.4285(3)
H1 H 0.5964 -0.0848 -0.3986
C2 C 0.4208(5) -0.2872(4) -0.5786(3)
H2 H 0.4462 -0.2500 -0.6462
C3 C 0.2965(5) -0.4395(4) -0.6242(3)
H3 H 0.2396 -0.5065 -0.7229
C4 C 0.2552(4) -0.4940(3) -0.5217(3)
C5 C 0.1289(4) -0.6510(3) -0.5594(3)
H4 H 0.0694 -0.7228 -0.6566
C6 C 0.0946(4) -0.6967(3) -0.4545(3)
H5 H 0.0159 -0.7999 -0.4805
C7 C 0.1778(4) -0.5883(3) -0.3057(3)
C8 C 0.1403(4) -0.6272(3) -0.1939(3)
H6 H 0.0615 -0.7288 -0.2147
C9 C 0.2200(5) -0.5150(3) -0.0545(3)
H7 H 0.1951 -0.5397 0.0201
C10 C 0.3391(4) -0.3631(3) -0.0249(3)
H8 H 0.3918 -0.2880 0.0705
C11 C 0.3023(4) -0.4327(3) -0.2655(3)
C12 C 0.3459(4) -0.3860(3) -0.3744(3)
Ni1 Ni 0.58860(4) -0.10998(3) -0.10317(3)
N5A N 0.8380(4) -0.2001(2) -0.0681(2)
Ni1A Ni 1.41140(4) 0.10998(3) 0.10317(3)
Ni1A_2 Ni 0.41140(4) 0.10998(3) 0.10317(3)
N6A N 0.6548(3) 0.0159(2) 0.1184(2)
loop_
_geom_bond_atom_site_label_1
_geom_bond_atom_site_label_2
_geom_bond_site_symmetry_1
_geom_bond_site_symmetry_2
N1 C1 1_555 1_555
N2 C10 1_555 1_555
N3 N4 1_555 1_555
N4 N5 1_555 1_555
N5 Ni1A 1_555 1_555
N6 N7 1_555 1_555
N7 N8 1_555 1_555
C1 H1 1_555 1_555
C2 C1 1_555 1_555
H2 C2 1_555 1_555
C3 C2 1_555 1_555
H3 C3 1_555 1_555
C4 C3 1_555 1_555
C5 C4 1_555 1_555
H4 C5 1_555 1_555
C6 C5 1_555 1_555
H5 C6 1_555 1_555
C7 C6 1_555 1_555
C8 C7 1_555 1_555
H6 C8 1_555 1_555
C9 C8 1_555 1_555
H7 C9 1_555 1_555
C10 C9 1_555 1_555
H8 C10 1_555 1_555
C11 N2 1_555 1_555
C12 N1 1_555 1_555
Ni1 N1 1_555 1_555
N5A Ni1 1_555 1_555
Ni1A_2 N6 1_555 1_555
N6A Ni1 1_555 1_555
N2 Ni1 1_555 1_555
N3 Ni1 1_555 1_555
N6 Ni1 1_555 1_555
C4 C12 1_555 1_555
C7 C11 1_555 1_555
C11 C12 1_555 1_555
Ni1A_2 N6A 1_555 1_555

#END
