
#######################################################################
#
#                 Cambridge Crystallographic Data Centre
#                                CCDC 
#
#######################################################################
#
# If this CIF has been generated from an entry in the Cambridge 
# Structural Database, then it will include bibliographic, chemical, 
# crystal, experimental, refinement or atomic coordinate data resulting 
# from the CCDC's data processing and validation procedures.
#
#######################################################################

data_WOJDUW
_symmetry_cell_setting           monoclinic
_symmetry_space_group_name_H-M   'C c'
_symmetry_Int_Tables_number      9
_space_group_name_Hall           'C -2yc'
loop_
_symmetry_equiv_pos_site_id
_symmetry_equiv_pos_as_xyz
1 x,y,z
2 x,-y,1/2+z
3 1/2+x,1/2+y,z
4 1/2+x,1/2-y,1/2+z
_cell_length_a                   28.6094(9)
_cell_length_b                   9.2197(3)
_cell_length_c                   28.5260(9)
_cell_angle_alpha                90
_cell_angle_beta                 100.5500(10)
_cell_angle_gamma                90
_cell_volume                     7397.11
loop_
_atom_site_label
_atom_site_type_symbol
_atom_site_fract_x
_atom_site_fract_y
_atom_site_fract_z
Mn1 Mn 0.420991(17) 0.66599(5) 0.663420(18)
Mn2 Mn 0.252412(17) 0.68355(5) 0.495054(17)
Mn3 Mn 0.079419(17) 0.80440(5) 0.333777(17)
O1 O 0.30757(8) 0.7560(3) 0.54766(9)
N1 N 0.38680(10) 0.7899(3) 0.71602(10)
N2 N 0.35467(9) 0.7500(3) 0.62276(10)
N3 N 0.43069(10) 0.6279(3) 0.58505(10)
N4 N 0.39404(10) 0.4322(3) 0.64345(11)
N5 N 0.46069(10) 0.8650(3) 0.64411(10)
C1 C 0.40613(13) 0.8180(4) 0.76121(13)
H1 H 0.4363 0.7770 0.7737
C2 C 0.38414(13) 0.9053(4) 0.79130(13)
H2 H 0.3994 0.9244 0.8232
C3 C 0.34007(13) 0.9624(4) 0.77351(13)
H3 H 0.3246 1.0218 0.7932
C4 C 0.31775(12) 0.9327(3) 0.72606(13)
C5 C 0.27202(12) 0.9854(4) 0.70653(14)
H4 H 0.2547 1.0418 0.7254
C6 C 0.25277(12) 0.9539(4) 0.65968(14)
H5 H 0.2217 0.9873 0.6466
C7 C 0.27849(12) 0.8726(4) 0.63074(13)
H6 H 0.2643 0.8527 0.5986
C8 C 0.32382(11) 0.8216(3) 0.64834(12)
C9 C 0.34326(12) 0.8472(3) 0.69775(12)
C10 C 0.34599(11) 0.7302(3) 0.57664(12)
C11 C 0.38750(12) 0.6818(4) 0.55296(12)
H7 H 0.3856 0.6863 0.5194
C12 C 0.43742(12) 0.4710(4) 0.57940(13)
H8 H 0.4698 0.4432 0.5955
H9 H 0.4342 0.4474 0.5451
C13 C 0.40109(12) 0.3856(4) 0.60053(13)
C14 C 0.37951(13) 0.2619(4) 0.57832(14)
H10 H 0.3852 0.2332 0.5479
C15 C 0.34978(15) 0.1819(4) 0.60138(16)
H11 H 0.3345 0.0973 0.5870
C16 C 0.34256(14) 0.2268(5) 0.64560(17)
H12 H 0.3225 0.1729 0.6623
C17 C 0.36530(13) 0.3532(4) 0.66553(14)
H13 H 0.3601 0.3840 0.6959
C18 C 0.47366(12) 0.7094(4) 0.57855(13)
H14 H 0.4741 0.7197 0.5441
H15 H 0.5024 0.6548 0.5933
C19 C 0.47439(11) 0.8581(4) 0.60112(12)
C20 C 0.49017(12) 0.9784(4) 0.57970(13)
H16 H 0.4995 0.9701 0.5495
C21 C 0.49229(12) 1.1115(4) 0.60264(14)
H17 H 0.5029 1.1956 0.5884
C22 C 0.47867(13) 1.1192(4) 0.64669(14)
H18 H 0.4803 1.2084 0.6636
C23 C 0.46250(12) 0.9944(4) 0.66580(13)
H19 H 0.4523 1.0009 0.6956
O2 O 0.12952(9) 0.7026(3) 0.38560(9)
N6 N 0.21756(10) 0.5404(3) 0.54063(10)
N7 N 0.18276(9) 0.6307(3) 0.45238(9)
N8 N 0.25654(10) 0.7877(3) 0.42211(10)
N9 N 0.29272(9) 0.5250(3) 0.45795(10)
N10 N 0.22050(10) 0.9105(3) 0.49663(11)
C24 C 0.23713(13) 0.4900(4) 0.58346(13)
H20 H 0.2688 0.5182 0.5963
C25 C 0.21378(14) 0.3980(4) 0.61079(13)
H21 H 0.2298 0.3612 0.6405
C26 C 0.16736(14) 0.3627(4) 0.59356(13)
H22 H 0.1506 0.3019 0.6117
C27 C 0.14433(12) 0.4165(4) 0.54885(12)
C28 C 0.09655(13) 0.3829(4) 0.52869(14)
H23 H 0.0780 0.3250 0.5459
C29 C 0.07719(12) 0.4335(4) 0.48459(14)
H24 H 0.0450 0.4116 0.4717
C30 C 0.10391(12) 0.5184(4) 0.45731(14)
H25 H 0.0894 0.5511 0.4265
C31 C 0.15102(11) 0.5542(3) 0.47528(12)
C32 C 0.17141(12) 0.5036(3) 0.52251(12)
C33 C 0.17057(11) 0.6957(3) 0.41111(12)
C34 C 0.21051(11) 0.7644(3) 0.38975(11)
H26 H 0.2060 0.7911 0.3571
C35 C 0.29664(12) 0.7237(4) 0.40340(12)
H27 H 0.3264 0.7748 0.4173
H28 H 0.2914 0.7363 0.3684
C36 C 0.30169(11) 0.5643(4) 0.41536(12)
C37 C 0.31710(12) 0.4657(4) 0.38424(14)
H29 H 0.3221 0.4955 0.3537
C38 C 0.32484(13) 0.3230(4) 0.39914(15)
H30 H 0.3354 0.2532 0.3789
C39 C 0.31696(12) 0.2836(4) 0.44388(15)
H31 H 0.3229 0.1871 0.4551
C40 C 0.30038(12) 0.3857(4) 0.47199(13)
H32 H 0.2941 0.3574 0.5023
C41 C 0.26469(12) 0.9431(4) 0.43302(12)
H33 H 0.2621 0.9990 0.4030
H34 H 0.2971 0.9573 0.4518
C42 C 0.22816(11) 0.9970(4) 0.46110(12)
C43 C 0.20338(13) 1.1256(4) 0.44996(13)
H35 H 0.2102 1.1870 0.4253
C44 C 0.16831(13) 1.1621(4) 0.47581(14)
H36 H 0.1503 1.2484 0.4686
C45 C 0.15973(14) 1.0723(4) 0.51207(14)
H37 H 0.1358 1.0951 0.5300
C46 C 0.18705(13) 0.9479(4) 0.52154(13)
H38 H 0.1818 0.8866 0.5468
O3 O -0.02360(8) 0.9231(3) 0.21201(8)
N11 N 0.03891(10) 0.9043(3) 0.38486(10)
N12 N 0.01703(9) 0.9006(3) 0.28983(10)
N13 N 0.09697(10) 0.7810(3) 0.25813(10)
N14 N 0.05526(10) 0.5779(3) 0.30800(10)
N15 N 0.11949(10) 1.0095(3) 0.32275(10)
C47 C 0.05219(13) 0.9096(4) 0.43194(13)
H39 H 0.0798 0.8575 0.4461
C48 C 0.02740(14) 0.9886(4) 0.46201(13)
H40 H 0.0386 0.9912 0.4955
C49 C -0.01292(13) 1.0610(4) 0.44202(14)
H41 H -0.0301 1.1149 0.4616
C50 C -0.02927(13) 1.0560(4) 0.39207(13)
C51 C -0.07136(13) 1.1258(4) 0.36963(14)
H42 H -0.0898 1.1800 0.3880
C52 C -0.08544(12) 1.1149(4) 0.32105(14)
H43 H -0.1143 1.1596 0.3061
C53 C -0.05770(12) 1.0379(4) 0.29278(13)
H44 H -0.0682 1.0326 0.2592
C54 C -0.01569(11) 0.9707(3) 0.31326(12)
C55 C -0.00160(11) 0.9762(3) 0.36437(12)
C56 C 0.01214(11) 0.8871(3) 0.24318(12)
C57 C 0.05448(12) 0.8277(4) 0.22345(13)
H45 H 0.0536 0.8209 0.1901
C58 C 0.10740(12) 0.6265(4) 0.25185(12)
H46 H 0.1397 0.6041 0.2696
H47 H 0.1069 0.6069 0.2176
C59 C 0.07172(11) 0.5294(4) 0.26939(12)
C60 C 0.05911(13) 0.3952(4) 0.24932(13)
H48 H 0.0712 0.3637 0.2222
C61 C 0.02852(14) 0.3072(4) 0.26920(15)
H49 H 0.0195 0.2148 0.2558
C62 C 0.01151(14) 0.3553(4) 0.30854(15)
H50 H -0.0093 0.2968 0.3228
C63 C 0.02550(13) 0.4918(4) 0.32698(13)
H51 H 0.0136 0.5255 0.3540
C64 C 0.13940(12) 0.8722(4) 0.25600(13)
H52 H 0.1398 0.8970 0.2223
H53 H 0.1684 0.8153 0.2682
C65 C 0.14062(12) 1.0105(4) 0.28444(13)
C66 C 0.16525(13) 1.1319(4) 0.27274(16)
H54 H 0.1802 1.1306 0.2456
C67 C 0.16760(13) 1.2544(4) 0.30119(15)
H55 H 0.1849 1.3372 0.2943
C68 C 0.14457(13) 1.2548(4) 0.33960(14)
H56 H 0.1448 1.3389 0.3589
C69 C 0.12109(12) 1.1300(4) 0.34953(13)
H57 H 0.1056 1.1297 0.3763
Mn1C Mn -0.079009(17) 0.83401(5) 0.163420(18)
O3C O 0.47640(8) 0.5769(3) 0.71201(8)
S1 S 0.25234(3) 0.38407(8) 0.76080(3)
F1 F 0.29117(9) 0.5405(3) 0.70132(9)
F2 F 0.29557(15) 0.6345(3) 0.77153(11)
F3 F 0.22959(12) 0.6357(3) 0.72122(11)
O4 O 0.22641(9) 0.4266(3) 0.79773(9)
O5 O 0.22421(10) 0.3132(3) 0.72036(9)
O6 O 0.29789(10) 0.3184(3) 0.77827(11)
C70 C 0.26792(16) 0.5577(4) 0.73746(14)
S2 S 0.09141(3) 0.91508(10) 0.62128(3)
F4 F 0.09652(10) 0.6290(3) 0.61619(14)
F5 F 0.16202(9) 0.7397(3) 0.61128(11)
F6 F 0.13895(17) 0.7185(5) 0.67663(14)
O7 O 0.12698(12) 1.0202(4) 0.63546(19)
O8 O 0.05492(14) 0.8973(4) 0.64811(18)
O9 O 0.0745(2) 0.9155(8) 0.57020(18)
C71 C 0.12241(17) 0.7429(6) 0.6276(2)
S3 S -0.08534(3) 0.49134(9) 0.45339(3)
F7 F -0.01555(9) 0.6696(3) 0.48852(10)
F8 F -0.07497(9) 0.7732(3) 0.44660(13)
F9 F -0.02744(12) 0.6496(4) 0.41312(12)
O10 O -0.11627(10) 0.4891(3) 0.40740(10)
O11 O -0.05036(10) 0.3775(3) 0.46223(11)
O12 O -0.10922(9) 0.5207(3) 0.49270(10)
C72 C -0.04913(13) 0.6555(4) 0.45055(13)
loop_
_geom_bond_atom_site_label_1
_geom_bond_atom_site_label_2
_geom_bond_site_symmetry_1
_geom_bond_site_symmetry_2
Mn1 N1 1_555 1_555
Mn2 O1 1_555 1_555
Mn3 O2 1_555 1_555
O1 C10 1_555 1_555
N1 C1 1_555 1_555
N2 Mn1 1_555 1_555
N3 Mn1 1_555 1_555
N4 Mn1 1_555 1_555
N5 Mn1 1_555 1_555
C1 H1 1_555 1_555
C2 C1 1_555 1_555
H2 C2 1_555 1_555
C3 C2 1_555 1_555
H3 C3 1_555 1_555
C4 C3 1_555 1_555
C5 C4 1_555 1_555
H4 C5 1_555 1_555
C6 C5 1_555 1_555
H5 C6 1_555 1_555
C7 C6 1_555 1_555
H6 C7 1_555 1_555
C8 N2 1_555 1_555
C9 N1 1_555 1_555
C10 N2 1_555 1_555
C11 N3 1_555 1_555
H7 C11 1_555 1_555
C12 N3 1_555 1_555
H8 C12 1_555 1_555
H9 C12 1_555 1_555
C13 N4 1_555 1_555
C14 C13 1_555 1_555
H10 C14 1_555 1_555
C15 C14 1_555 1_555
H11 C15 1_555 1_555
C16 C15 1_555 1_555
H12 C16 1_555 1_555
C17 N4 1_555 1_555
H13 C17 1_555 1_555
C18 N3 1_555 1_555
H14 C18 1_555 1_555
H15 C18 1_555 1_555
C19 N5 1_555 1_555
C20 C19 1_555 1_555
H16 C20 1_555 1_555
C21 C20 1_555 1_555
H17 C21 1_555 1_555
C22 C21 1_555 1_555
H18 C22 1_555 1_555
C23 N5 1_555 1_555
H19 C23 1_555 1_555
O2 C33 1_555 1_555
N6 Mn2 1_555 1_555
N7 Mn2 1_555 1_555
N8 Mn2 1_555 1_555
N9 Mn2 1_555 1_555
N10 Mn2 1_555 1_555
C24 N6 1_555 1_555
H20 C24 1_555 1_555
C25 C24 1_555 1_555
H21 C25 1_555 1_555
C26 C25 1_555 1_555
H22 C26 1_555 1_555
C27 C26 1_555 1_555
C28 C27 1_555 1_555
H23 C28 1_555 1_555
C29 C28 1_555 1_555
H24 C29 1_555 1_555
C30 C29 1_555 1_555
H25 C30 1_555 1_555
C31 N7 1_555 1_555
C32 N6 1_555 1_555
C33 N7 1_555 1_555
C34 N8 1_555 1_555
H26 C34 1_555 1_555
C35 N8 1_555 1_555
H27 C35 1_555 1_555
H28 C35 1_555 1_555
C36 N9 1_555 1_555
C37 C36 1_555 1_555
H29 C37 1_555 1_555
C38 C37 1_555 1_555
H30 C38 1_555 1_555
C39 C38 1_555 1_555
H31 C39 1_555 1_555
C40 N9 1_555 1_555
H32 C40 1_555 1_555
C41 N8 1_555 1_555
H33 C41 1_555 1_555
H34 C41 1_555 1_555
C42 N10 1_555 1_555
C43 C42 1_555 1_555
H35 C43 1_555 1_555
C44 C43 1_555 1_555
H36 C44 1_555 1_555
C45 C44 1_555 1_555
H37 C45 1_555 1_555
C46 N10 1_555 1_555
H38 C46 1_555 1_555
O3 C56 1_555 1_555
N11 Mn3 1_555 1_555
N12 Mn3 1_555 1_555
N13 Mn3 1_555 1_555
N14 Mn3 1_555 1_555
N15 Mn3 1_555 1_555
C47 N11 1_555 1_555
H39 C47 1_555 1_555
C48 C47 1_555 1_555
H40 C48 1_555 1_555
C49 C48 1_555 1_555
H41 C49 1_555 1_555
C50 C49 1_555 1_555
C51 C50 1_555 1_555
H42 C51 1_555 1_555
C52 C51 1_555 1_555
H43 C52 1_555 1_555
C53 C52 1_555 1_555
H44 C53 1_555 1_555
C54 N12 1_555 1_555
C55 N11 1_555 1_555
C56 N12 1_555 1_555
C57 N13 1_555 1_555
H45 C57 1_555 1_555
C58 N13 1_555 1_555
H46 C58 1_555 1_555
H47 C58 1_555 1_555
C59 N14 1_555 1_555
C60 C59 1_555 1_555
H48 C60 1_555 1_555
C61 C60 1_555 1_555
H49 C61 1_555 1_555
C62 C61 1_555 1_555
H50 C62 1_555 1_555
C63 N14 1_555 1_555
H51 C63 1_555 1_555
C64 N13 1_555 1_555
H52 C64 1_555 1_555
H53 C64 1_555 1_555
C65 N15 1_555 1_555
C66 C65 1_555 1_555
H54 C66 1_555 1_555
C67 C66 1_555 1_555
H55 C67 1_555 1_555
C68 C67 1_555 1_555
H56 C68 1_555 1_555
C69 N15 1_555 1_555
H57 C69 1_555 1_555
S1 O4 1_555 1_555
F1 C70 1_555 1_555
F2 C70 1_555 1_555
F3 C70 1_555 1_555
O5 S1 1_555 1_555
O6 S1 1_555 1_555
C70 S1 1_555 1_555
S2 O7 1_555 1_555
F4 C71 1_555 1_555
F5 C71 1_555 1_555
F6 C71 1_555 1_555
O8 S2 1_555 1_555
O9 S2 1_555 1_555
C71 S2 1_555 1_555
S3 O10 1_555 1_555
F7 C72 1_555 1_555
F8 C72 1_555 1_555
F9 C72 1_555 1_555
O11 S3 1_555 1_555
O12 S3 1_555 1_555
C72 S3 1_555 1_555
Mn1C O3 1_555 1_555
O3C Mn1 1_555 1_555
C4 C9 1_555 1_555
C7 C8 1_555 1_555
C8 C9 1_555 1_555
C10 C11 1_555 1_555
C12 C13 1_555 1_555
C16 C17 1_555 1_555
C18 C19 1_555 1_555
C22 C23 1_555 1_555
C27 C32 1_555 1_555
C30 C31 1_555 1_555
C31 C32 1_555 1_555
C33 C34 1_555 1_555
C35 C36 1_555 1_555
C39 C40 1_555 1_555
C41 C42 1_555 1_555
C45 C46 1_555 1_555
C50 C55 1_555 1_555
C53 C54 1_555 1_555
C54 C55 1_555 1_555
C56 C57 1_555 1_555
C58 C59 1_555 1_555
C62 C63 1_555 1_555
C64 C65 1_555 1_555
C68 C69 1_555 1_555

#END
