
#######################################################################
#
#                 Cambridge Crystallographic Data Centre
#                                CCDC 
#
#######################################################################
#
# If this CIF has been generated from an entry in the Cambridge 
# Structural Database, then it will include bibliographic, chemical, 
# crystal, experimental, refinement or atomic coordinate data resulting 
# from the CCDC's data processing and validation procedures.
#
#######################################################################

data_WOJJOV
_symmetry_cell_setting           tetragonal
_symmetry_space_group_name_H-M   'P 4/n m m'
_symmetry_Int_Tables_number      129
_space_group_name_Hall           'P -4 -2 -1ab'
loop_
_symmetry_equiv_pos_site_id
_symmetry_equiv_pos_as_xyz
1 x,y,z
2 -x,-y,z
3 1/2-y,1/2+x,z
4 1/2+y,1/2-x,z
5 1/2-x,1/2+y,-z
6 1/2+x,1/2-y,-z
7 y,x,-z
8 -y,-x,-z
9 1/2-x,1/2-y,-z
10 1/2+x,1/2+y,-z
11 y,-x,-z
12 -y,x,-z
13 x,-y,z
14 -x,y,z
15 1/2-y,1/2-x,z
16 1/2+y,1/2+x,z
_cell_length_a                   21.1012(7)
_cell_length_b                   21.1012(7)
_cell_length_c                   6.6095(4)
_cell_angle_alpha                90
_cell_angle_beta                 90
_cell_angle_gamma                90
_cell_volume                     2942.95
loop_
_atom_site_label
_atom_site_type_symbol
_atom_site_fract_x
_atom_site_fract_y
_atom_site_fract_z
Al1 Al 0.250 0.250 0.000
Al2 Al 0.250 0.250 0.500
O1 O 0.219(1) 0.281(1) 0.285(8)
C1 C 0.253(3) 0.139(3) 0.27(1)
O2 O 0.248(2) 0.171(2) 0.117(6)
O3 O 0.251(2) 0.165(2) 0.447(5)
C2 C 0.257(3) 0.068(3) 0.26(1)
C3 C 0.289(2) 0.034(2) 0.097(8)
C4 C 0.230(3) 0.034(3) 0.41(1)
C5 C 0.322(2) 0.068(3) -0.061(9)
C6 C 0.350(2) 0.034(2) -0.228(9)
H1 H 0.21(2) 0.06(3) 0.53(6)
H2 H 0.322(2) 0.12(2) -0.061(9)
H3 H 0.37(2) 0.06(1) -0.35(6)
Al1B Al 0.250 -0.250 0.000
Al1C Al -0.250 0.250 0.000
Al2B Al 0.250 -0.250 0.500
Al2_2 Al 0.250 0.250 -0.500
Al2C Al -0.250 0.250 -0.500
O1F O 0.281(1) 0.219(1) -0.285(8)
O1F_2 O 0.281(1) 0.219(1) 0.715(8)
C1L C 0.253(3) -0.139(3) 0.27(1)
C1F C 0.139(3) 0.253(3) -0.27(1)
C1K C -0.139(3) 0.253(3) -0.27(1)
O2L O 0.248(2) -0.171(2) 0.117(6)
O2F O 0.171(2) 0.248(2) -0.117(6)
O2K O -0.171(2) 0.248(2) -0.117(6)
O2H O 0.252(2) 0.329(2) -0.117(6)
O2N O 0.329(2) 0.252(2) 0.117(6)
O3L O 0.251(2) -0.165(2) 0.447(5)
O3F O 0.165(2) 0.251(2) -0.447(5)
O3K O -0.165(2) 0.251(2) -0.447(5)
O3F_2 O 0.165(2) 0.251(2) 0.553(5)
O3H O 0.249(2) 0.335(2) 0.553(5)
O3N O 0.335(2) 0.249(2) 0.447(5)
C2L C 0.257(3) -0.068(3) 0.26(1)
C2F C 0.068(3) 0.257(3) -0.26(1)
C2K C -0.068(3) 0.257(3) -0.26(1)
C3L C 0.289(2) -0.034(2) 0.097(8)
C3F C 0.034(2) 0.289(2) -0.097(8)
C3K C -0.034(2) 0.289(2) -0.097(8)
C4L C 0.230(3) -0.034(3) 0.41(1)
C4F C 0.034(3) 0.230(3) -0.41(1)
C4K C -0.034(3) 0.230(3) -0.41(1)
C5L C 0.322(2) -0.068(3) -0.061(9)
C5F C 0.068(3) 0.322(2) 0.061(9)
C5K C -0.068(3) 0.322(2) 0.061(9)
C6L C 0.350(2) -0.034(2) -0.228(9)
C6F C 0.034(2) 0.350(2) 0.228(9)
C6K C -0.034(2) 0.350(2) 0.228(9)
H1L H 0.21(2) -0.06(3) 0.53(6)
H1F H 0.06(3) 0.21(2) -0.53(6)
H1K H -0.06(3) 0.21(2) -0.53(6)
H2L H 0.322(2) -0.12(2) -0.061(9)
H2F H 0.12(2) 0.322(2) 0.061(9)
H2K H -0.12(2) 0.322(2) 0.061(9)
H3L H 0.37(2) -0.06(1) -0.35(6)
H3F H 0.06(1) 0.37(2) 0.35(6)
H3K H -0.06(1) 0.37(2) 0.35(6)
O4 O 0.386(2) 0.546(2) 0.145(6)
O5 O 0.440(4) 0.600(4) 0.66(1)
loop_
_geom_bond_atom_site_label_1
_geom_bond_atom_site_label_2
_geom_bond_site_symmetry_1
_geom_bond_site_symmetry_2
Al1 O1 1_555 1_555
Al2 O1 1_555 1_555
C1 O2 1_555 1_555
O2 Al1 1_555 1_555
O3 Al2 1_555 1_555
C2 C1 1_555 1_555
C3 C2 1_555 1_555
C4 C2 1_555 1_555
C5 C3 1_555 1_555
C6 C5 1_555 1_555
H1 C4 1_555 1_555
H2 C5 1_555 1_555
H3 C6 1_555 1_555
Al1B O2L 1_555 1_555
Al1C O2K 1_555 1_555
Al2B O3L 1_555 1_555
Al2_2 O1F 1_555 1_555
Al2C O3K 1_555 1_555
O1F Al1 1_555 1_555
O1F_2 Al2 1_555 1_555
C1L O2L 1_555 1_555
C1F O2F 1_555 1_555
C1K O2K 1_555 1_555
O2F Al1 1_555 1_555
O2H Al1 1_555 1_555
O2N Al1 1_555 1_555
O3L C1L 1_555 1_555
O3F Al2_2 1_555 1_555
O3K C1K 1_555 1_555
O3F_2 Al2 1_555 1_555
O3H Al2 1_555 1_555
O3N Al2 1_555 1_555
C2L C1L 1_555 1_555
C2F C1F 1_555 1_555
C2K C1K 1_555 1_555
C3L C3 1_555 1_555
C3F C2F 1_555 1_555
C3K C2K 1_555 1_555
C4L C4 1_555 1_555
C4F C2F 1_555 1_555
C4K C2K 1_555 1_555
C5L C3L 1_555 1_555
C5F C3F 1_555 1_555
C5K C3K 1_555 1_555
C6L C6 1_555 1_555
C6F C5F 1_555 1_555
C6K C5K 1_555 1_555
H1L C4L 1_555 1_555
H1F C4F 1_555 1_555
H1K C4K 1_555 1_555
H2L C5L 1_555 1_555
H2F C5F 1_555 1_555
H2K C5K 1_555 1_555
H3L C6L 1_555 1_555
H3F C6F 1_555 1_555
H3K C6K 1_555 1_555
C1 O3 1_555 1_555
C1F O3F 1_555 1_555
C2L C3L 1_555 1_555
C2L C4L 1_555 1_555
C3F C3K 1_555 1_555
C4F C4K 1_555 1_555
C5L C6L 1_555 1_555
C6F C6K 1_555 1_555

#END
