
#######################################################################
#
#                 Cambridge Crystallographic Data Centre
#                                CCDC 
#
#######################################################################
#
# If this CIF has been generated from an entry in the Cambridge 
# Structural Database, then it will include bibliographic, chemical, 
# crystal, experimental, refinement or atomic coordinate data resulting 
# from the CCDC's data processing and validation procedures.
#
#######################################################################

data_WOJKEN
_symmetry_cell_setting           monoclinic
_symmetry_space_group_name_H-M   'P 21/n'
_symmetry_Int_Tables_number      14
_space_group_name_Hall           '-P 2yn'
loop_
_symmetry_equiv_pos_site_id
_symmetry_equiv_pos_as_xyz
1 x,y,z
2 1/2-x,1/2+y,1/2-z
3 -x,-y,-z
4 1/2+x,1/2-y,1/2+z
_cell_length_a                   8.6367(11)
_cell_length_b                   13.2598(16)
_cell_length_c                   13.4188(14)
_cell_angle_alpha                90
_cell_angle_beta                 101.737(3)
_cell_angle_gamma                90
_cell_volume                     1504.6
loop_
_atom_site_label
_atom_site_type_symbol
_atom_site_fract_x
_atom_site_fract_y
_atom_site_fract_z
I1 I 0.01318(5) 0.80017(3) 0.33435(3)
Ni1 Ni 0.000 0.500 1.0
C1 C 0.1600(6) 0.4962(4) 0.8111(3)
H1 H 0.2538 0.4945 0.8623
C2 C 0.1749(6) 0.4983(4) 0.7105(3)
H2 H 0.2763 0.500 0.6934
C3 C 0.0387(6) 0.4978(4) 0.6352(3)
C4 C -0.1044(6) 0.4962(4) 0.6634(4)
H3 H -0.1996 0.4952 0.6134
C5 C -0.1092(6) 0.4962(4) 0.7655(3)
H4 H -0.2096 0.496 0.784
C6 C 0.1181(6) 0.7073(4) 0.9562(4)
H5 H 0.1913 0.668 0.9286
C7 C 0.1276(7) 0.8108(4) 0.9503(4)
H6 H 0.2052 0.842 0.9196
C8 C 0.0228(7) 0.8671(4) 0.9897(4)
C9 C -0.0855(7) 0.8207(4) 1.0356(4)
H7 H -0.1575 0.8591 1.0651
C10 C -0.0877(7) 0.7150(4) 1.0381(4)
H8 H -0.1634 0.6824 1.0694
N1 N 0.0212(5) 0.4964(3) 0.8404(3)
N2 N 0.0617(5) 0.4987(3) 0.5323(3)
N3 N 0.0113(5) 0.6588(3) 0.9985(3)
N4 N 0.0347(6) 0.9783(4) 0.9742(4)
O1 O 0.2450(4) 0.4913(3) 1.0428(2)
H9 H 0.305(5) 0.539(3) 1.062(4)
H10 H 0.293(6) 0.442(3) 1.074(3)
C1B C -0.1600(6) 0.5038(4) 0.1889(3)
H1B H -0.2538 0.5055 0.1377
C2B C -0.1749(6) 0.5017(4) 0.2895(3)
H2B H -0.2763 0.500 0.3066
C3B C -0.0387(6) 0.5022(4) 0.3648(3)
C4B C 0.1044(6) 0.5038(4) 0.3366(4)
H3B H 0.1996 0.5048 0.3866
C5B C 0.1092(6) 0.5038(4) 0.2345(3)
H4B H 0.2096 0.504 0.216
N1B N -0.0212(5) 0.5036(3) 0.1596(3)
N2B N -0.0617(5) 0.5013(3) 0.4677(3)
C6B C -0.1181(6) 1.2927(4) 1.0438(4)
H5B H -0.1913 1.332 1.0714
C7B C -0.1276(7) 1.1892(4) 1.0497(4)
H6B H -0.2052 1.158 1.0804
C8B C -0.0228(7) 1.1329(4) 1.0103(4)
C9B C 0.0855(7) 1.1793(4) 0.9644(4)
H7B H 0.1575 1.1409 0.9349
C10B C 0.0877(7) 1.2850(4) 0.9619(4)
H8B H 0.1634 1.3176 0.9306
N3B N -0.0113(5) 1.3412(3) 1.0015(3)
N4B N -0.0347(6) 1.0217(4) 1.0258(4)
O1B O -0.2450(4) 0.5087(3) 0.9572(2)
H9B H -0.305(5) 0.461(3) 0.938(4)
H10B H -0.293(6) 0.558(3) 0.926(3)
Ni1_2 Ni 0.000 0.500 0.0
Ni1_3 Ni 0.000 1.500 1.0
N1B_2 N -0.0212(5) 0.5036(3) 1.1596(3)
N3B_2 N -0.0113(5) 0.3412(3) 1.0015(3)
C11 C 0.8888(11) 0.7821(7) 0.7076(6)
H11 H 0.9057 0.8424 0.7508
H12 H 0.9055 0.7217 0.7504
H13 H 0.7804 0.7823 0.6675
C12 C 1.0001(11) 0.7823(7) 0.6391(7)
H14 H 1.1095 0.7802 0.6796
H15 H 0.9832 0.7214 0.5957
O2 O 0.9803(5) 0.8708(3) 0.5759(3)
H16 H 0.9192 0.8576 0.5203
loop_
_geom_bond_atom_site_label_1
_geom_bond_atom_site_label_2
_geom_bond_site_symmetry_1
_geom_bond_site_symmetry_2
Ni1 N1 1_555 1_555
C1 H1 1_555 1_555
C2 C1 1_555 1_555
H2 C2 1_555 1_555
C3 C2 1_555 1_555
C4 C3 1_555 1_555
H3 C4 1_555 1_555
C5 C4 1_555 1_555
H4 C5 1_555 1_555
C6 H5 1_555 1_555
C7 C6 1_555 1_555
H6 C7 1_555 1_555
C8 C7 1_555 1_555
C9 C8 1_555 1_555
H7 C9 1_555 1_555
C10 C9 1_555 1_555
H8 C10 1_555 1_555
N1 C1 1_555 1_555
N2 C3 1_555 1_555
N3 Ni1 1_555 1_555
N4 C8 1_555 1_555
O1 Ni1 1_555 1_555
H9 O1 1_555 1_555
H10 O1 1_555 1_555
C11 H11 1_555 1_555
H12 C11 1_555 1_555
H13 C11 1_555 1_555
C12 C11 1_555 1_555
H14 C12 1_555 1_555
H15 C12 1_555 1_555
O2 C12 1_555 1_555
H16 O2 1_555 1_555
C1B H1B 1_555 1_555
C2B C1B 1_555 1_555
H2B C2B 1_555 1_555
C3B C2B 1_555 1_555
C4B C3B 1_555 1_555
H3B C4B 1_555 1_555
C5B C4B 1_555 1_555
H4B C5B 1_555 1_555
N1B C1B 1_555 1_555
N2B N2 1_555 1_555
C6B H5B 1_555 1_555
C7B C6B 1_555 1_555
H6B C7B 1_555 1_555
C8B C7B 1_555 1_555
C9B C8B 1_555 1_555
H7B C9B 1_555 1_555
C10B C9B 1_555 1_555
H8B C10B 1_555 1_555
N3B C6B 1_555 1_555
N4B N4 1_555 1_555
O1B Ni1 1_555 1_555
H9B O1B 1_555 1_555
H10B O1B 1_555 1_555
Ni1_2 N1B 1_555 1_555
Ni1_3 N3B 1_555 1_555
N1B_2 Ni1 1_555 1_555
N3B_2 Ni1 1_555 1_555
C5 N1 1_555 1_555
C6 N3 1_555 1_555
C10 N3 1_555 1_555
C3B N2B 1_555 1_555
C5B N1B 1_555 1_555
C8B N4B 1_555 1_555
C10B N3B 1_555 1_555

#END
