
#######################################################################
#
#                 Cambridge Crystallographic Data Centre
#                                CCDC 
#
#######################################################################
#
# If this CIF has been generated from an entry in the Cambridge 
# Structural Database, then it will include bibliographic, chemical, 
# crystal, experimental, refinement or atomic coordinate data resulting 
# from the CCDC's data processing and validation procedures.
#
#######################################################################

data_WOJMIS
_symmetry_cell_setting           monoclinic
_symmetry_space_group_name_H-M   'P 21/c'
_symmetry_Int_Tables_number      14
_space_group_name_Hall           '-P 2ybc'
loop_
_symmetry_equiv_pos_site_id
_symmetry_equiv_pos_as_xyz
1 x,y,z
2 -x,1/2+y,1/2-z
3 -x,-y,-z
4 x,1/2-y,1/2+z
_cell_length_a                   21.148(10)
_cell_length_b                   7.283(4)
_cell_length_c                   19.986(10)
_cell_angle_alpha                90
_cell_angle_beta                 106.569(13)
_cell_angle_gamma                90
_cell_volume                     2950.44
loop_
_atom_site_label
_atom_site_type_symbol
_atom_site_fract_x
_atom_site_fract_y
_atom_site_fract_z
Ag1 Ag 0.38246(3) 0.34609(12) 0.24368(4)
Ag2 Ag 0.11510(3) 0.29497(11) 0.24528(3)
C1 C 0.4984(4) 0.1089(12) 0.2122(4)
N1 N 0.4375(4) 0.1695(12) 0.1774(4)
C2 C 0.4237(5) 0.1581(15) 0.1049(5)
N2 N 0.4664(4) 0.1037(13) 0.0721(4)
C3 C 0.5267(4) 0.0462(14) 0.1132(5)
N3 N 0.5442(4) 0.0428(13) 0.1837(4)
N4 N 0.3640(4) 0.2084(15) 0.0687(4)
H1 H 0.3351 0.2480 0.0910
H2 H 0.3521 0.2034 0.0218
N5 N 0.5693(4) -0.0087(14) 0.0802(4)
H3 H 0.6095 -0.0488 0.1048
H4 H 0.5584 -0.0050 0.0333
C4 C 0.5158(4) 0.1133(13) 0.2894(4)
C5 C 0.4698(6) 0.0594(17) 0.3236(5)
H5 H 0.4271 0.0164 0.2970
C6 C 0.4867(7) 0.066(2) 0.3967(6)
H6 H 0.4557 0.0290 0.4211
C7 C 0.5472(8) 0.131(2) 0.4332(6)
H7 H 0.5595 0.1334 0.4832
C8 C 0.5930(6) 0.1865(18) 0.3988(5)
H8 H 0.6355 0.2321 0.4249
C9 C 0.5771(5) 0.1800(16) 0.3277(5)
H9 H 0.6082 0.2192 0.3037
C10 C -0.0109(4) 0.0417(13) 0.2114(4)
N6 N 0.0340(4) 0.0999(12) 0.1792(4)
C11 C 0.0151(4) 0.0817(14) 0.1089(4)
N7 N -0.0442(4) 0.0149(12) 0.0715(4)
C12 C -0.0856(5) -0.0303(14) 0.1077(4)
N8 N -0.0710(4) -0.0215(12) 0.1803(4)
N9 N 0.0589(4) 0.1213(14) 0.0746(4)
H10 H 0.0994 0.1610 0.0983
H11 H 0.0480 0.1096 0.0279
N10 N -0.1459(4) -0.0841(17) 0.0727(5)
H12 H -0.1756 -0.1121 0.0957
H13 H -0.1572 -0.0920 0.0259
C13 C 0.0099(5) 0.0424(15) 0.2882(4)
C14 C -0.0334(5) 0.1034(15) 0.3253(5)
H14 H -0.0765 0.1467 0.3003
C15 C -0.0139(6) 0.0993(17) 0.3960(5)
H15 H -0.0427 0.1455 0.4214
C16 C 0.0497(6) 0.0308(18) 0.4322(5)
H16 H 0.0630 0.0280 0.4823
C17 C 0.0905(6) -0.0326(19) 0.3969(5)
H17 H 0.1327 -0.0816 0.4221
C18 C 0.0717(5) -0.0271(16) 0.3247(5)
H18 H 0.1016 -0.0689 0.2998
S1 S 0.27988(13) 0.1533(5) 0.35019(15)
C19 C 0.2796(13) -0.087(3) 0.3567(16)
O1 O 0.2144(4) 0.2103(18) 0.3374(6)
O2 O 0.3095(6) 0.182(3) 0.2958(9)
O3 O 0.3230(7) 0.199(3) 0.4162(9)
F1 F 0.3332(8) -0.164(2) 0.3567(15)
F2 F 0.2622(11) -0.135(3) 0.4129(13)
F3 F 0.2369(10) -0.174(2) 0.3173(16)
S2 S 0.21654(13) 0.4341(6) 0.13290(18)
C20 C 0.2139(8) 0.672(3) 0.1029(13)
O4 O 0.2848(4) 0.393(2) 0.1518(5)
O5 O 0.1869(6) 0.447(2) 0.1874(8)
O6 O 0.1772(7) 0.331(2) 0.0751(10)
F4 F 0.1548(6) 0.730(2) 0.0832(14)
F5 F 0.2325(9) 0.680(2) 0.0477(9)
F6 F 0.2530(9) 0.768(3) 0.1476(12)
Ag1A Ag 0.61754(3) -0.15391(12) 0.25632(4)
Ag2A Ag -0.11510(3) -0.20503(11) 0.25472(3)
N3A N 0.4558(4) 0.5428(13) 0.3163(4)
N8A N 0.0710(4) 0.4785(12) 0.3197(4)
loop_
_geom_bond_atom_site_label_1
_geom_bond_atom_site_label_2
_geom_bond_site_symmetry_1
_geom_bond_site_symmetry_2
Ag1 N1 1_555 1_555
Ag2 N6 1_555 1_555
C1 N1 1_555 1_555
N1 C2 1_555 1_555
C2 N2 1_555 1_555
N2 C3 1_555 1_555
C3 N3 1_555 1_555
N3 C1 1_555 1_555
N4 C2 1_555 1_555
H1 N4 1_555 1_555
H2 N4 1_555 1_555
N5 C3 1_555 1_555
H3 N5 1_555 1_555
H4 N5 1_555 1_555
C4 C1 1_555 1_555
C5 C4 1_555 1_555
H5 C5 1_555 1_555
C6 C5 1_555 1_555
H6 C6 1_555 1_555
C7 C6 1_555 1_555
H7 C7 1_555 1_555
C8 C7 1_555 1_555
H8 C8 1_555 1_555
C9 C4 1_555 1_555
H9 C9 1_555 1_555
C10 N6 1_555 1_555
N6 C11 1_555 1_555
C11 N7 1_555 1_555
N7 C12 1_555 1_555
C12 N8 1_555 1_555
N8 C10 1_555 1_555
N9 C11 1_555 1_555
H10 N9 1_555 1_555
H11 N9 1_555 1_555
N10 C12 1_555 1_555
H12 N10 1_555 1_555
H13 N10 1_555 1_555
C13 C10 1_555 1_555
C14 C13 1_555 1_555
H14 C14 1_555 1_555
C15 C14 1_555 1_555
H15 C15 1_555 1_555
C16 C15 1_555 1_555
H16 C16 1_555 1_555
C17 C16 1_555 1_555
H17 C17 1_555 1_555
C18 C13 1_555 1_555
H18 C18 1_555 1_555
S1 C19 1_555 1_555
C19 F1 1_555 1_555
O1 Ag2 1_555 1_555
O2 Ag1 1_555 1_555
O3 S1 1_555 1_555
F2 C19 1_555 1_555
F3 C19 1_555 1_555
S2 C20 1_555 1_555
C20 F4 1_555 1_555
O4 Ag1 1_555 1_555
O5 Ag2 1_555 1_555
O6 S2 1_555 1_555
F5 C20 1_555 1_555
F6 C20 1_555 1_555
Ag1A N3 1_555 1_555
Ag2A N8 1_555 1_555
N3A Ag1 1_555 1_555
N8A Ag2 1_555 1_555
C8 C9 1_555 1_555
C17 C18 1_555 1_555
S1 O1 1_555 1_555
S1 O2 1_555 1_555
S2 O4 1_555 1_555
S2 O5 1_555 1_555

#END
