
#######################################################################
#
#                 Cambridge Crystallographic Data Centre
#                                CCDC 
#
#######################################################################
#
# If this CIF has been generated from an entry in the Cambridge 
# Structural Database, then it will include bibliographic, chemical, 
# crystal, experimental, refinement or atomic coordinate data resulting 
# from the CCDC's data processing and validation procedures.
#
#######################################################################

data_WOJMUE
_symmetry_cell_setting           monoclinic
_symmetry_space_group_name_H-M   'P 21/n'
_symmetry_Int_Tables_number      14
_space_group_name_Hall           '-P 2yn'
loop_
_symmetry_equiv_pos_site_id
_symmetry_equiv_pos_as_xyz
1 x,y,z
2 1/2-x,1/2+y,1/2-z
3 -x,-y,-z
4 1/2+x,1/2-y,1/2+z
_cell_length_a                   12.552(5)
_cell_length_b                   12.958(5)
_cell_length_c                   19.320(7)
_cell_angle_alpha                90
_cell_angle_beta                 90.167(7)
_cell_angle_gamma                90
_cell_volume                     3142.36
loop_
_atom_site_label
_atom_site_type_symbol
_atom_site_fract_x
_atom_site_fract_y
_atom_site_fract_z
Ag1 Ag 0.79817(6) 0.02111(6) 0.08976(4)
Ag2 Ag 0.30049(6) -0.04314(6) 0.10303(4)
N1 N 0.6431(7) -0.0044(6) 0.1502(4)
N2 N 0.4701(7) -0.0708(6) 0.1257(4)
N3 N 0.5795(7) -0.1498(6) 0.2119(4)
N4 N 0.5317(7) 0.0781(6) 0.0734(5)
H1 H 0.5819 0.1245 0.0669
H2 H 0.4708 0.0831 0.0511
N5 N 0.4224(6) -0.2223(6) 0.1774(4)
H3 H 0.3640 -0.2224 0.1521
H4 H 0.4346 -0.2729 0.2068
N6 N 0.9663(6) 0.0551(6) 0.1179(4)
N7 N 1.0710(7) 0.1453(7) 0.2019(4)
N8 N 1.1417(7) -0.0012(6) 0.1454(4)
N9 N 0.9111(7) 0.2089(6) 0.1659(4)
H5 H 0.9210 0.2613 0.1941
H6 H 0.8529 0.2055 0.1405
N10 N 1.0384(7) -0.0901(6) 0.0671(4)
H7 H 1.0914 -0.1338 0.0613
H8 H 0.9786 -0.0985 0.0439
C1 C 0.5482(8) 0.0001(8) 0.1171(5)
C2 C 0.4916(8) -0.1467(8) 0.1712(5)
C3 C 0.6540(8) -0.0773(7) 0.1988(5)
C4 C 0.7496(8) -0.0756(8) 0.2419(5)
C5 C 0.7956(9) 0.0152(8) 0.2634(5)
H9 H 0.7638 0.0785 0.2498
C6 C 0.8860(9) 0.0179(9) 0.3038(6)
H10 H 0.9152 0.0823 0.3178
C7 C 0.9354(9) -0.0753(10) 0.3246(6)
C8 C 0.8908(9) -0.1686(9) 0.3023(6)
H11 H 0.9230 -0.2321 0.3151
C9 C 0.7991(8) -0.1687(8) 0.2611(5)
H12 H 0.7697 -0.2324 0.2460
C10 C 1.0312(10) -0.0753(12) 0.3715(6)
H13 H 1.0693 -0.0097 0.3667
H14 H 1.0785 -0.1323 0.3587
H15 H 1.0081 -0.0838 0.4196
C11 C 1.0488(8) -0.0116(8) 0.1108(5)
C12 C 0.9835(8) 0.1354(8) 0.1616(5)
C13 C 1.1459(8) 0.0754(7) 0.1917(5)
C14 C 1.2433(8) 0.0831(8) 0.2350(5)
C15 C 1.2889(9) -0.0049(9) 0.2635(5)
H16 H 1.2559 -0.0700 0.2562
C16 C 1.3827(10) 0.0006(10) 0.3028(5)
H17 H 1.4141 -0.0599 0.3218
C17 C 1.4296(9) 0.0990(11) 0.3135(6)
C18 C 1.3837(9) 0.1867(10) 0.2855(6)
H18 H 1.4148 0.2528 0.2926
C19 C 1.2916(10) 0.1759(9) 0.2467(5)
H19 H 1.2603 0.2361 0.2273
C20 C 1.5311(10) 0.1066(13) 0.3559(7)
H20 H 1.5797 0.1559 0.3341
H21 H 1.5653 0.0386 0.3582
H22 H 1.5140 0.1300 0.4028
S1 S 0.7238(2) 0.2668(2) -0.00442(14)
O1 O 0.7399(6) 0.2037(5) 0.0566(4)
O2 O 0.7633(6) 0.2246(5) -0.0681(4)
O3 O 0.6162(7) 0.3080(9) -0.0113(4)
C21 C 0.8020(16) 0.3791(11) 0.0118(7)
F1 F 0.7932(10) 0.4439(5) -0.0397(4)
F2 F 0.7761(9) 0.4237(6) 0.0696(4)
F3 F 0.9066(8) 0.3466(9) 0.0146(5)
S2 S 0.7547(2) -0.1753(2) -0.02228(15)
O4 O 0.7000(7) -0.0816(5) 0.0009(4)
O5 O 0.8673(7) -0.1687(7) -0.0169(4)
O6 O 0.7150(7) -0.2141(6) -0.0872(4)
C22 C 0.7172(12) -0.2711(10) 0.0397(7)
F4 F 0.7573(7) -0.3595(5) 0.0267(4)
F5 F 0.6104(7) -0.2777(7) 0.0440(4)
F6 F 0.7514(7) -0.2426(6) 0.1033(3)
Ag2_2 Ag 1.30049(6) -0.04314(6) 0.10303(4)
Ag2B Ag 0.69951(6) 0.04314(6) -0.10303(4)
N8_2 N 0.1417(7) -0.0012(6) 0.1454(4)
O2B O 0.2367(6) -0.2246(5) 0.0681(4)
O4B O 0.3000(7) 0.0816(5) -0.0009(4)
loop_
_geom_bond_atom_site_label_1
_geom_bond_atom_site_label_2
_geom_bond_site_symmetry_1
_geom_bond_site_symmetry_2
Ag1 N1 1_555 1_555
Ag2 N2 1_555 1_555
N1 C1 1_555 1_555
N2 C1 1_555 1_555
N3 C2 1_555 1_555
N4 H1 1_555 1_555
H2 N4 1_555 1_555
N5 H3 1_555 1_555
H4 N5 1_555 1_555
N6 Ag1 1_555 1_555
N7 C12 1_555 1_555
N8 C11 1_555 1_555
N9 H5 1_555 1_555
H6 N9 1_555 1_555
N10 H7 1_555 1_555
H8 N10 1_555 1_555
C1 N4 1_555 1_555
C2 N2 1_555 1_555
C3 N1 1_555 1_555
C4 C3 1_555 1_555
C5 C4 1_555 1_555
H9 C5 1_555 1_555
C6 C5 1_555 1_555
H10 C6 1_555 1_555
C7 C6 1_555 1_555
C8 C7 1_555 1_555
H11 C8 1_555 1_555
C9 C4 1_555 1_555
H12 C9 1_555 1_555
C10 C7 1_555 1_555
H13 C10 1_555 1_555
H14 C10 1_555 1_555
H15 C10 1_555 1_555
C11 N6 1_555 1_555
C12 N6 1_555 1_555
C13 N7 1_555 1_555
C14 C13 1_555 1_555
C15 C14 1_555 1_555
H16 C15 1_555 1_555
C16 C15 1_555 1_555
H17 C16 1_555 1_555
C17 C16 1_555 1_555
C18 C17 1_555 1_555
H18 C18 1_555 1_555
C19 C14 1_555 1_555
H19 C19 1_555 1_555
C20 C17 1_555 1_555
H20 C20 1_555 1_555
H21 C20 1_555 1_555
H22 C20 1_555 1_555
S1 O1 1_555 1_555
O1 Ag1 1_555 1_555
O2 S1 1_555 1_555
O3 S1 1_555 1_555
C21 S1 1_555 1_555
F1 C21 1_555 1_555
F2 C21 1_555 1_555
F3 C21 1_555 1_555
S2 O4 1_555 1_555
O4 Ag1 1_555 1_555
O5 S2 1_555 1_555
O6 S2 1_555 1_555
C22 S2 1_555 1_555
F4 C22 1_555 1_555
F5 C22 1_555 1_555
F6 C22 1_555 1_555
Ag2_2 N8 1_555 1_555
Ag2B O2 1_555 1_555
N8_2 Ag2 1_555 1_555
O2B Ag2 1_555 1_555
O4B Ag2 1_555 1_555
N3 C3 1_555 1_555
N5 C2 1_555 1_555
N8 C13 1_555 1_555
N9 C12 1_555 1_555
N10 C11 1_555 1_555
C8 C9 1_555 1_555
C18 C19 1_555 1_555
O4 Ag2B 1_555 1_555

#END
