
#######################################################################
#
#                 Cambridge Crystallographic Data Centre
#                                CCDC 
#
#######################################################################
#
# If this CIF has been generated from an entry in the Cambridge 
# Structural Database, then it will include bibliographic, chemical, 
# crystal, experimental, refinement or atomic coordinate data resulting 
# from the CCDC's data processing and validation procedures.
#
#######################################################################

data_WOJROD
_symmetry_cell_setting           triclinic
_symmetry_space_group_name_H-M   'P -1'
_symmetry_Int_Tables_number      2
_space_group_name_Hall           '-P 1'
loop_
_symmetry_equiv_pos_site_id
_symmetry_equiv_pos_as_xyz
1 x,y,z
2 -x,-y,-z
_cell_length_a                   11.819(2)
_cell_length_b                   18.924(4)
_cell_length_c                   20.027(4)
_cell_angle_alpha                109.20(3)
_cell_angle_beta                 100.94(3)
_cell_angle_gamma                93.72(3)
_cell_volume                     4113.94
loop_
_atom_site_label
_atom_site_type_symbol
_atom_site_fract_x
_atom_site_fract_y
_atom_site_fract_z
Mo1 Mo 0.16267(13) 0.37443(8) 0.27146(8)
Mo2 Mo -0.27774(12) 0.22003(8) -0.05211(8)
Mo3 Mo -0.14193(13) 0.40643(8) 0.27445(8)
Mo4 Mo 0.16859(13) 0.43383(8) 0.12963(8)
Mo5 Mo 0.22581(13) 0.25566(9) 0.11976(8)
Mo6 Mo -0.06166(14) 0.21611(8) 0.25178(8)
Mo7 Mo -0.28674(13) 0.15423(8) 0.10222(8)
Mo8 Mo 0.00547(13) 0.19117(8) -0.05262(8)
Mo9 Mo -0.01857(14) 0.10778(8) 0.08924(8)
Mo10 Mo -0.07471(14) 0.36668(9) -0.03116(8)
Mo11 Mo -0.34823(12) 0.34760(8) 0.11509(8)
Mo12 Mo -0.12410(13) 0.48414(8) 0.14603(9)
P1 P -0.0646(4) 0.2964(2) 0.1135(2)
O1 O 0.2544(10) 0.5079(6) 0.1312(7)
O2 O -0.0267(10) 0.1285(7) 0.0054(6)
O3 O -0.1359(10) 0.3076(7) 0.2716(6)
O4 O -0.2906(9) 0.4415(6) 0.1174(6)
O5 O -0.1656(10) 0.1651(6) -0.0907(6)
O6 O 0.0772(11) 0.3981(6) 0.0352(6)
O7 O 0.0659(8) 0.3257(5) 0.1448(5)
O8 O -0.0920(9) 0.2770(6) 0.0314(5)
O9 O -0.1372(8) 0.3563(6) 0.1468(6)
O10 O -0.3350(10) 0.2979(6) 0.0194(6)
O11 O 0.2510(11) 0.4071(6) 0.3556(6)
O12 O 0.2089(10) 0.4449(6) 0.2331(6)
O13 O -0.2978(10) 0.3840(7) 0.2215(6)
O14 O -0.3969(10) 0.1832(7) -0.1195(7)
O15 O -0.2177(10) 0.3029(7) -0.0794(6)
O16 O 0.0750(10) 0.2808(6) 0.2707(6)
O17 O 0.1305(11) 0.1769(6) 0.1237(6)
O18 O -0.3380(10) 0.2468(6) 0.1249(6)
O19 O 0.1449(10) 0.2296(7) 0.0184(6)
O20 O 0.0256(10) 0.4151(6) 0.2883(6)
O21 O -0.0944(9) 0.2248(6) 0.1306(5)
O22 O 0.2586(10) 0.3074(7) 0.2211(6)
O23 O -0.0004(10) 0.2760(7) -0.0779(6)
O24 O 0.3506(12) 0.2214(7) 0.1121(7)
O25 O -0.4907(10) 0.3517(7) 0.1044(7)
O26 O 0.0309(10) 0.4784(6) 0.1573(7)
O27 O -0.2898(10) 0.1615(6) 0.0065(6)
O28 O -0.1312(11) 0.4314(6) 0.0404(7)
O29 O 0.2586(10) 0.3562(6) 0.1129(6)
O30 O -0.0650(12) 0.4133(8) -0.0877(8)
O31 O -0.1298(10) 0.4930(6) 0.2415(7)
O32 O -0.2224(11) 0.1659(7) 0.1986(6)
O33 O 0.0351(12) 0.0254(7) 0.0731(7)
O34 O 0.0492(12) 0.1312(8) -0.1213(7)
O35 O -0.1326(13) 0.5730(7) 0.1494(8)
O36 O -0.0102(11) 0.1326(7) 0.1949(7)
O37 O -0.0567(12) 0.1979(7) 0.3300(7)
O38 O -0.1790(11) 0.0811(6) 0.0752(6)
O39 O -0.4082(11) 0.0944(7) 0.0848(7)
O40 O -0.1566(11) 0.4491(8) 0.3606(7)
Cu1 Cu -0.65592(18) -0.44175(11) -0.43296(11)
Cu2 Cu -1.23989(19) -0.23017(11) -0.80589(12)
N1 N -0.5657(12) -0.3400(8) -0.3724(8)
N2 N -0.7578(12) -0.5424(7) -0.4759(7)
N3 N -0.7415(12) -0.3992(7) -0.5058(8)
N4 N -0.5902(12) -0.4892(8) -0.3586(7)
N5 N -1.1716(11) -0.1266(7) -0.7397(8)
N6 N -1.3089(12) -0.1739(8) -0.8686(8)
N7 N -1.3357(12) -0.3301(8) -0.8724(8)
N8 N -1.1250(14) -0.2768(8) -0.7492(8)
C1 C -0.8845(14) -0.3494(9) -0.6068(10)
C2 C -0.9332(16) -0.2960(11) -0.7085(10)
H1 H -0.8560 -0.2925 -0.7123
C3 C -0.3890(16) -0.2558(9) -0.3361(9)
H2 H -0.3142 -0.2466 -0.3424
C4 C -1.3796(15) -0.2028(10) -0.9351(10)
H3 H -1.4017 -0.2548 -0.9553
C5 C -1.0899(16) 0.0249(10) -0.6605(11)
H4 H -1.0620 0.0753 -0.6335
C6 C -1.1645(18) -0.3074(11) -0.7034(11)
H5 H -1.2430 -0.3117 -0.7027
C7 C -1.3612(16) -0.4373(10) -0.9800(10)
H6 H -1.3317 -0.4649 -1.0191
C8 C -0.6162(17) -0.5657(9) -0.3855(10)
C9 C -1.1059(14) -0.1061(10) -0.6715(9)
H7 H -1.0892 -0.1431 -0.6514
C10 C -1.1577(15) 0.0046(10) -0.7293(11)
H8 H -1.1750 0.0409 -0.7503
C11 C -1.2011(14) -0.0733(9) -0.7680(9)
C12 C -1.2951(11) -0.3707(7) -0.9310(7)
H9 H -1.2241 -0.3539 -0.9379
C13 C -1.4648(11) -0.4640(7) -0.9740(7)
C14 C -0.7143(15) -0.5967(11) -0.4505(10)
C15 C -0.4261(16) -0.2029(10) -0.2833(10)
C16 C -1.3176(18) -0.0520(10) -0.8770(10)
H10 H -1.2979 0.0001 -0.8557
C17 C -0.7529(18) -0.6707(10) -0.4845(11)
H11 H -0.7125 -0.7069 -0.4721
C18 C -0.4576(16) -0.3222(10) -0.3805(10)
H12 H -0.4291 -0.3557 -0.4169
C19 C -0.9671(16) -0.3249(9) -0.6586(10)
C20 C -1.2756(16) -0.0979(10) -0.8400(9)
C21 C -1.3874(17) -0.0824(11) -0.9444(11)
H13 H -1.4125 -0.0510 -0.9698
C22 C -0.6053(14) -0.2892(11) -0.3206(11)
H14 H -0.6796 -0.3005 -0.3146
C23 C -0.5205(14) -0.4555(12) -0.2947(9)
H15 H -0.5047 -0.4030 -0.2775
C24 C -1.0865(16) -0.3318(11) -0.6585(10)
H16 H -1.1129 -0.3531 -0.6276
C25 C -0.8008(17) -0.3952(10) -0.6255(10)
H17 H -0.7889 -0.4103 -0.6725
C26 C -1.0633(17) -0.0317(10) -0.6312(10)
H18 H -1.0170 -0.0189 -0.5848
C27 C -0.9038(17) -0.6373(11) -0.5592(10)
H19 H -0.9723 -0.6499 -0.5948
C28 C -1.4213(15) -0.1583(11) -0.9752(11)
H20 H -1.4702 -0.1795 -1.0211
C29 C -0.540(2) -0.2205(11) -0.2757(10)
H21 H -0.5713 -0.1864 -0.2411
C30 C -1.4352(17) -0.3536(12) -0.8664(12)
H22 H -1.4645 -0.3246 -0.8279
C31 C -0.5650(19) -0.6078(12) -0.3475(11)
H23 H -0.5803 -0.6603 -0.3665
C32 C -0.8196(15) -0.3532(12) -0.4864(12)
H24 H -0.8275 -0.3383 -0.4386
C33 C -0.4700(16) -0.4931(13) -0.2522(11)
H25 H -0.4239 -0.4675 -0.2061
C34 C -0.8533(14) -0.5646(10) -0.5280(9)
H26 H -0.8875 -0.5284 -0.5440
C35 C -0.8896(18) -0.3267(11) -0.5341(10)
H27 H -0.9406 -0.2932 -0.5173
C36 C -0.4904(14) -0.5717(9) -0.2807(8)
H28 H -0.4538 -0.5998 -0.2548
C37 C -1.5030(14) -0.4207(9) -0.9148(8)
H29 H -1.5769 -0.4361 -0.9069
C38 C -0.855(2) -0.6923(11) -0.5385(12)
H30 H -0.8879 -0.7426 -0.5600
C39 C -1.0142(17) -0.2731(11) -0.7514(10)
H31 H -0.9903 -0.2536 -0.7843
Cl1 Cl -0.5000 -0.5000 -0.5000
C40 C -0.7362(16) -0.4179(10) -0.5745(10)
H32 H -0.6825 -0.4500 -0.5897
N9 N -0.2323(16) 0.0086(9) -0.1557(11)
H33 H -0.1935 0.0525 -0.1306
C41 C -0.320(2) -0.0127(12) -0.1376(12)
H34 H -0.3427 0.0205 -0.0982
C42 C -0.1974(18) -0.0354(12) -0.2135(13)
H35 H -0.1305 -0.0190 -0.2253
C43 C -0.386(2) -0.0840(11) -0.1733(11)
H36 H -0.4474 -0.1004 -0.1564
C44 C -0.2597(17) -0.1037(12) -0.2546(12)
H37 H -0.2372 -0.1332 -0.2958
C45 C -0.3547(17) -0.1293(9) -0.2359(10)
Cu1A Cu -0.34408(18) -0.55825(11) -0.56704(11)
Cu1A_2 Cu -2.34408(18) -0.55825(11) -1.56704(11)
Cu2A Cu -1.76011(19) -0.76983(11) -1.19411(12)
N1A N -2.4343(12) -0.6600(8) -1.6276(8)
N2A N -2.2422(12) -0.4576(7) -1.5241(7)
N3A N -2.2585(12) -0.6008(7) -1.4942(8)
N4A N -2.4098(12) -0.5108(8) -1.6414(7)
N5A N -1.8284(11) -0.8734(7) -1.2603(8)
N6A N -1.6911(12) -0.8261(8) -1.1314(8)
N7A N -1.6643(12) -0.6699(8) -1.1276(8)
N8A N -1.8750(14) -0.7232(8) -1.2508(8)
C1A C -2.1155(14) -0.6506(9) -1.3932(10)
C2A C -2.0668(16) -0.7040(11) -1.2915(10)
H1A H -2.1440 -0.7075 -1.2877
C3A C -2.6110(16) -0.7442(9) -1.6639(9)
H2A H -2.6858 -0.7534 -1.6576
C4A C -1.6204(15) -0.7972(10) -1.0649(10)
H3A H -1.5983 -0.7452 -1.0447
C5A C -1.9101(16) -1.0249(10) -1.3395(11)
H4A H -1.9380 -1.0753 -1.3665
C6A C -1.8355(18) -0.6926(11) -1.2966(11)
H5A H -1.7570 -0.6883 -1.2973
C7A C -1.6388(16) -0.5627(10) -1.0200(10)
H6A H -1.6683 -0.5351 -0.9809
C8A C -2.3838(17) -0.4343(9) -1.6145(10)
C9A C -1.8941(14) -0.8939(10) -1.3285(9)
H7A H -1.9108 -0.8569 -1.3486
C10A C -1.8423(15) -1.0046(10) -1.2707(11)
H8A H -1.8250 -1.0409 -1.2497
C11A C -1.7989(14) -0.9267(9) -1.2320(9)
C12A C -1.7049(11) -0.6293(7) -1.0690(7)
H9A H -1.7759 -0.6461 -1.0621
C13A C -1.5352(11) -0.5360(7) -1.0260(7)
C14A C -2.2857(15) -0.4033(11) -1.5495(10)
C15A C -2.5739(16) -0.7971(10) -1.7167(10)
C16A C -1.6824(18) -0.9480(10) -1.1230(10)
H10A H -1.7021 -1.0001 -1.1443
C17A C -2.2471(18) -0.3293(10) -1.5155(11)
H11A H -2.2875 -0.2931 -1.5279
C18A C -2.5424(16) -0.6778(10) -1.6195(10)
H12A H -2.5709 -0.6443 -1.5831
C19A C -2.0329(16) -0.6751(9) -1.3414(10)
C20A C -1.7244(16) -0.9021(10) -1.1600(9)
C21A C -1.6126(17) -0.9176(11) -1.0556(11)
H13A H -1.5875 -0.9490 -1.0302
C22A C -2.3947(14) -0.7108(11) -1.6794(11)
H14A H -2.3204 -0.6995 -1.6854
C23A C -2.4795(14) -0.5445(12) -1.7053(9)
H15A H -2.4953 -0.5970 -1.7225
C24A C -1.9135(16) -0.6682(11) -1.3415(10)
H16A H -1.8871 -0.6469 -1.3724
C25A C -2.1992(17) -0.6048(10) -1.3745(10)
H17A H -2.2111 -0.5897 -1.3275
C26A C -1.9367(17) -0.9683(10) -1.3688(10)
H18A H -1.9830 -0.9811 -1.4152
C27A C -2.0962(17) -0.3627(11) -1.4408(10)
H19A H -2.0277 -0.3501 -1.4052
C28A C -1.5787(15) -0.8417(11) -1.0248(11)
H20A H -1.5298 -0.8205 -0.9789
C29A C -2.460(2) -0.7795(11) -1.7243(10)
H21A H -2.4287 -0.8136 -1.7589
C30A C -1.5648(17) -0.6464(12) -1.1336(12)
H22A H -1.5355 -0.6754 -1.1721
C31A C -2.4350(19) -0.3922(12) -1.6525(11)
H23A H -2.4197 -0.3397 -1.6335
C32A C -2.1804(15) -0.6468(12) -1.5136(12)
H24A H -2.1725 -0.6617 -1.5614
C33A C -2.5300(16) -0.5069(13) -1.7478(11)
H25A H -2.5761 -0.5325 -1.7939
C34A C -2.1467(14) -0.4354(10) -1.4720(9)
H26A H -2.1125 -0.4716 -1.4560
C35A C -2.1104(18) -0.6733(11) -1.4659(10)
H27A H -2.0594 -0.7068 -1.4827
C36A C -2.5096(14) -0.4283(9) -1.7193(8)
H28A H -2.5462 -0.4002 -1.7452
C37A C -1.4970(14) -0.5793(9) -1.0852(8)
H29A H -1.4231 -0.5639 -1.0931
C38A C -2.145(2) -0.3077(11) -1.4615(12)
H30A H -2.1121 -0.2574 -1.4400
C39A C -1.9858(17) -0.7269(11) -1.2486(10)
H31A H -2.0097 -0.7464 -1.2157
Cl1_2 Cl -2.5000 -0.5000 -1.5000
C40A C -2.2638(16) -0.5821(10) -1.4255(10)
H32A H -2.3175 -0.5500 -1.4103
N9A N -2.7677(16) -1.0086(9) -1.8443(11)
H33A H -2.8065 -1.0525 -1.8694
C41A C -2.680(2) -0.9873(12) -1.8624(12)
H34A H -2.6573 -1.0205 -1.9018
C42A C -2.8026(18) -0.9646(12) -1.7865(13)
H35A H -2.8695 -0.9810 -1.7747
C43A C -2.614(2) -0.9160(11) -1.8267(11)
H36A H -2.5526 -0.8996 -1.8436
C44A C -2.7403(17) -0.8963(12) -1.7454(12)
H37A H -2.7628 -0.8668 -1.7042
C45A C -2.6453(17) -0.8707(9) -1.7641(10)
O63 O -0.3272(16) 0.3066(10) -0.2239(9)
Mo13? Mo 0.77775(13) 1.09688(8) 0.51575(8)
Mo14? Mo 0.75192(13) 0.91542(8) 0.53491(8)
Mo15? Mo 0.57831(13) 0.85708(8) 0.35451(8)
Mo16? Mo 0.69626(14) 1.07717(9) 0.67132(9)
Mo17? Mo 0.52788(14) 1.19124(8) 0.50774(8)
Mo18? Mo 0.56339(14) 1.04405(9) 0.35094(9)
O41? O 0.5992(13) 1.0609(8) 0.2815(7)
O42? O 0.5353(12) 1.2786(7) 0.5081(8)
O43? O 0.7552(16) 0.9816(7) 0.6254(7)
O44? O 0.7153(13) 1.0693(9) 0.4189(7)
O45? O 0.8127(15) 1.0043(7) 0.5134(7)
O46? O 0.6797(14) 1.1798(9) 0.5300(7)
O47? O 0.6125(12) 0.7884(7) 0.2861(7)
O48? O 0.7705(16) 1.1168(8) 0.6182(7)
O49? O 0.9064(12) 1.1461(8) 0.5281(9)
O50? O 0.8697(12) 0.8760(8) 0.5460(9)
O51? O 0.7883(15) 1.1091(7) 0.7505(7)
O52? O 0.5278(12) 1.1337(10) 0.4042(8)
O53? O 0.4953(12) 1.2018(10) 0.5961(8)
O54? O 0.7079(14) 0.8764(10) 0.4264(8)
O55? O 0.6396(12) 0.8433(9) 0.5334(8)
P2? P 0.5000 1.0000 0.5000
O56? O 0.4860(19) 0.9697(12) 0.4156(11)
O57? O 0.6108(14) 0.9413(8) 0.3348(10)
O58? O 0.4147(15) 0.9968(9) 0.3134(10)
O59? O 0.5883(14) 1.1435(9) 0.6849(12)
O60? O 0.5654(19) 1.0600(13) 0.4812(11)
O61? O 0.446(2) 1.0728(12) 0.5177(13)
O62? O 0.3742(17) 0.9858(12) 0.4646(11)
loop_
_geom_bond_atom_site_label_1
_geom_bond_atom_site_label_2
_geom_bond_site_symmetry_1
_geom_bond_site_symmetry_2
Mo1 O7 1_555 1_555
Mo2 O5 1_555 1_555
Mo3 O3 1_555 1_555
Mo4 O1 1_555 1_555
Mo5 O7 1_555 1_555
Mo6 O3 1_555 1_555
Mo7 O18 1_555 1_555
Mo8 O2 1_555 1_555
Mo9 O2 1_555 1_555
Mo10 O6 1_555 1_555
Mo11 O4 1_555 1_555
Mo12 O4 1_555 1_555
Cu1 N1 1_555 1_555
Cu2 N5 1_555 1_555
P1 O7 1_555 1_555
O5 Mo8 1_555 1_555
O6 Mo4 1_555 1_555
O7 Mo4 1_555 1_555
O8 Mo2 1_555 1_555
O9 Mo3 1_555 1_555
O10 Mo2 1_555 1_555
O11 Mo1 1_555 1_555
O12 Mo1 1_555 1_555
O13 Mo3 1_555 1_555
O14 Mo2 1_555 1_555
O15 Mo2 1_555 1_555
O16 Mo1 1_555 1_555
O17 Mo5 1_555 1_555
O18 Mo11 1_555 1_555
O19 Mo5 1_555 1_555
O20 Mo1 1_555 1_555
O21 Mo6 1_555 1_555
O22 Mo1 1_555 1_555
O23 Mo8 1_555 1_555
O24 Mo5 1_555 1_555
O25 Mo11 1_555 1_555
O26 Mo4 1_555 1_555
O27 Mo2 1_555 1_555
O28 Mo10 1_555 1_555
O29 Mo4 1_555 1_555
O30 Mo10 1_555 1_555
O31 Mo3 1_555 1_555
O32 Mo6 1_555 1_555
O33 Mo9 1_555 1_555
O34 Mo8 1_555 1_555
O35 Mo12 1_555 1_555
O36 Mo6 1_555 1_555
O37 Mo6 1_555 1_555
O38 Mo7 1_555 1_555
O39 Mo7 1_555 1_555
O40 Mo3 1_555 1_555
N1 C18 1_555 1_555
N2 Cu1 1_555 1_555
N3 Cu1 1_555 1_555
N4 Cu1 1_555 1_555
N5 C9 1_555 1_555
N6 Cu2 1_555 1_555
N7 Cu2 1_555 1_555
N8 Cu2 1_555 1_555
C1 C19 1_555 1_555
C2 H1 1_555 1_555
C3 H2 1_555 1_555
C4 N6 1_555 1_555
H3 C4 1_555 1_555
C5 H4 1_555 1_555
C6 N8 1_555 1_555
H5 C6 1_555 1_555
C7 H6 1_555 1_555
C8 N4 1_555 1_555
C9 H7 1_555 1_555
C10 C5 1_555 1_555
H8 C10 1_555 1_555
C11 N5 1_555 1_555
C12 N7 1_555 1_555
H9 C12 1_555 1_555
C13 C7 1_555 1_555
C14 N2 1_555 1_555
C15 C3 1_555 1_555
C16 H10 1_555 1_555
C17 C14 1_555 1_555
H11 C17 1_555 1_555
C18 C3 1_555 1_555
H12 C18 1_555 1_555
C19 C2 1_555 1_555
C20 N6 1_555 1_555
C21 C16 1_555 1_555
H13 C21 1_555 1_555
C22 N1 1_555 1_555
H14 C22 1_555 1_555
C23 N4 1_555 1_555
H15 C23 1_555 1_555
C24 C6 1_555 1_555
H16 C24 1_555 1_555
C25 C1 1_555 1_555
H17 C25 1_555 1_555
C26 C5 1_555 1_555
H18 C26 1_555 1_555
C27 H19 1_555 1_555
C28 C4 1_555 1_555
H20 C28 1_555 1_555
C29 C15 1_555 1_555
H21 C29 1_555 1_555
C30 N7 1_555 1_555
H22 C30 1_555 1_555
C31 C8 1_555 1_555
H23 C31 1_555 1_555
C32 N3 1_555 1_555
H24 C32 1_555 1_555
C33 C23 1_555 1_555
H25 C33 1_555 1_555
C34 N2 1_555 1_555
H26 C34 1_555 1_555
C35 C1 1_555 1_555
H27 C35 1_555 1_555
C36 C31 1_555 1_555
H28 C36 1_555 1_555
C37 C13 1_555 1_555
H29 C37 1_555 1_555
C38 C17 1_555 1_555
H30 C38 1_555 1_555
C39 N8 1_555 1_555
H31 C39 1_555 1_555
Cl1 Cu1 1_555 1_555
C40 N3 1_555 1_555
H32 C40 1_555 1_555
N9 H33 1_555 1_555
C41 N9 1_555 1_555
H34 C41 1_555 1_555
C42 N9 1_555 1_555
H35 C42 1_555 1_555
C43 C41 1_555 1_555
H36 C43 1_555 1_555
C44 C42 1_555 1_555
H37 C44 1_555 1_555
C45 C15 1_555 1_555
Cu1A Cl1 1_555 1_555
Cu1A_2 N1A 1_555 1_555
Cu2A N5A 1_555 1_555
N1A C18A 1_555 1_555
N2A Cu1A_2 1_555 1_555
N3A Cu1A_2 1_555 1_555
N4A Cu1A_2 1_555 1_555
N5A C9A 1_555 1_555
N6A Cu2A 1_555 1_555
N7A Cu2A 1_555 1_555
N8A Cu2A 1_555 1_555
C1A C19A 1_555 1_555
C2A H1A 1_555 1_555
C3A H2A 1_555 1_555
C4A N6A 1_555 1_555
H3A C4A 1_555 1_555
C5A H4A 1_555 1_555
C6A N8A 1_555 1_555
H5A C6A 1_555 1_555
C7A H6A 1_555 1_555
C8A N4A 1_555 1_555
C9A H7A 1_555 1_555
C10A C5A 1_555 1_555
H8A C10A 1_555 1_555
C11A N5A 1_555 1_555
C12A N7A 1_555 1_555
H9A C12A 1_555 1_555
C13A C13 1_555 1_555
C14A N2A 1_555 1_555
C15A C3A 1_555 1_555
C16A H10A 1_555 1_555
C17A C14A 1_555 1_555
H11A C17A 1_555 1_555
C18A C3A 1_555 1_555
H12A C18A 1_555 1_555
C19A C2A 1_555 1_555
C20A N6A 1_555 1_555
C21A C16A 1_555 1_555
H13A C21A 1_555 1_555
C22A N1A 1_555 1_555
H14A C22A 1_555 1_555
C23A N4A 1_555 1_555
H15A C23A 1_555 1_555
C24A C6A 1_555 1_555
H16A C24A 1_555 1_555
C25A C1A 1_555 1_555
H17A C25A 1_555 1_555
C26A C5A 1_555 1_555
H18A C26A 1_555 1_555
C27A H19A 1_555 1_555
C28A C4A 1_555 1_555
H20A C28A 1_555 1_555
C29A C15A 1_555 1_555
H21A C29A 1_555 1_555
C30A N7A 1_555 1_555
H22A C30A 1_555 1_555
C31A C8A 1_555 1_555
H23A C31A 1_555 1_555
C32A N3A 1_555 1_555
H24A C32A 1_555 1_555
C33A C23A 1_555 1_555
H25A C33A 1_555 1_555
C34A N2A 1_555 1_555
H26A C34A 1_555 1_555
C35A C1A 1_555 1_555
H27A C35A 1_555 1_555
C36A C31A 1_555 1_555
H28A C36A 1_555 1_555
C37A C13A 1_555 1_555
H29A C37A 1_555 1_555
C38A C17A 1_555 1_555
H30A C38A 1_555 1_555
C39A N8A 1_555 1_555
H31A C39A 1_555 1_555
Cl1_2 Cu1A_2 1_555 1_555
C40A N3A 1_555 1_555
H32A C40A 1_555 1_555
N9A H33A 1_555 1_555
C41A N9A 1_555 1_555
H34A C41A 1_555 1_555
C42A N9A 1_555 1_555
H35A C42A 1_555 1_555
C43A C41A 1_555 1_555
H36A C43A 1_555 1_555
C44A C42A 1_555 1_555
H37A C44A 1_555 1_555
C45A C15A 1_555 1_555
Mo3 O20 1_555 1_555
Mo4 O12 1_555 1_555
Mo5 O22 1_555 1_555
Mo5 O29 1_555 1_555
Mo6 O16 1_555 1_555
Mo7 O21 1_555 1_555
Mo7 O27 1_555 1_555
Mo7 O32 1_555 1_555
Mo8 O8 1_555 1_555
Mo8 O19 1_555 1_555
Mo9 O17 1_555 1_555
Mo9 O21 1_555 1_555
Mo9 O36 1_555 1_555
Mo9 O38 1_555 1_555
Mo10 O8 1_555 1_555
Mo10 O15 1_555 1_555
Mo10 O23 1_555 1_555
Mo11 O9 1_555 1_555
Mo11 O10 1_555 1_555
Mo11 O13 1_555 1_555
Mo12 O9 1_555 1_555
Mo12 O26 1_555 1_555
Mo12 O28 1_555 1_555
Mo12 O31 1_555 1_555
P1 O8 1_555 1_555
P1 O9 1_555 1_555
P1 O21 1_555 1_555
C2 C39 1_555 1_555
C7 C12 1_555 1_555
C8 C14 1_555 1_555
C9 C26 1_555 1_555
C10 C11 1_555 1_555
C11 C20 1_555 1_555
C16 C20 1_555 1_555
C19 C24 1_555 1_555
C21 C28 1_555 1_555
C22 C29 1_555 1_555
C25 C40 1_555 1_555
C27 C34 1_555 1_555
C27 C38 1_555 1_555
C30 C37 1_555 1_555
C32 C35 1_555 1_555
C33 C36 1_555 1_555
C43 C45 1_555 1_555
C44 C45 1_555 1_555
C2A C39A 1_555 1_555
C7A C12A 1_555 1_555
C7A C13A 1_555 1_555
C8A C14A 1_555 1_555
C9A C26A 1_555 1_555
C10A C11A 1_555 1_555
C11A C20A 1_555 1_555
C16A C20A 1_555 1_555
C19A C24A 1_555 1_555
C21A C28A 1_555 1_555
C22A C29A 1_555 1_555
C25A C40A 1_555 1_555
C27A C34A 1_555 1_555
C27A C38A 1_555 1_555
C30A C37A 1_555 1_555
C32A C35A 1_555 1_555
C33A C36A 1_555 1_555
C43A C45A 1_555 1_555
C44A C45A 1_555 1_555

#END
