
#######################################################################
#
#                 Cambridge Crystallographic Data Centre
#                                CCDC 
#
#######################################################################
#
# If this CIF has been generated from an entry in the Cambridge 
# Structural Database, then it will include bibliographic, chemical, 
# crystal, experimental, refinement or atomic coordinate data resulting 
# from the CCDC's data processing and validation procedures.
#
#######################################################################

data_WOJRAO
_symmetry_cell_setting           triclinic
_symmetry_space_group_name_H-M   'P -1'
_symmetry_Int_Tables_number      2
_space_group_name_Hall           '-P 1'
loop_
_symmetry_equiv_pos_site_id
_symmetry_equiv_pos_as_xyz
1 x,y,z
2 -x,-y,-z
_cell_length_a                   9.9265(7)
_cell_length_b                   10.7785(7)
_cell_length_c                   21.601(2)
_cell_angle_alpha                76.508(1)
_cell_angle_beta                 85.551(1)
_cell_angle_gamma                63.070(1)
_cell_volume                     2002.61
loop_
_atom_site_label
_atom_site_type_symbol
_atom_site_fract_x
_atom_site_fract_y
_atom_site_fract_z
O1 O -0.13686(18) -0.08754(17) 0.48052(8)
H1 H -0.1897 -0.1279 0.5130
H2 H -0.1344 -0.1156 0.4447
O2 O 0.37222(18) -0.10662(17) -0.00398(8)
H3 H 0.3852 -0.1961 0.0264
H4 H 0.2956 -0.0916 -0.0320
N1 N -0.0063(2) 0.1046(2) 0.40317(9)
N2 N 0.2966(2) 0.1790(2) 0.01846(9)
N3 N 0.2014(2) -0.1853(2) 0.48433(9)
N4 N 0.5226(2) -0.0822(2) 0.09973(9)
C1 C -0.0355(3) 0.2427(3) 0.39028(12)
H7 H -0.0649 0.2910 0.4242
C2 C -0.0250(3) 0.3181(3) 0.33065(12)
H8 H -0.0478 0.4159 0.3243
C3 C 0.0186(3) 0.2516(3) 0.28009(12)
C4 C 0.0431(3) 0.1106(3) 0.29211(12)
H9 H 0.0692 0.0614 0.2585
C5 C 0.0296(3) 0.0419(3) 0.35314(12)
H10 H 0.0466 -0.0545 0.3601
C6 C 0.0395(3) 0.3284(3) 0.21510(12)
H11 H 0.1256 0.2601 0.1951
H12 H 0.0654 0.4043 0.2199
C7 C -0.1003(3) 0.3953(3) 0.17098(12)
H13 H -0.1877 0.4609 0.1915
H14 H -0.1237 0.3192 0.1644
C8 C -0.0781(3) 0.4786(3) 0.10579(12)
H15 H -0.1726 0.5236 0.0795
H16 H -0.0553 0.5552 0.1121
C9 C 0.0489(3) 0.3811(2) 0.07150(11)
C10 C 0.0326(3) 0.2883(3) 0.04090(11)
H17 H -0.0639 0.2916 0.0376
C11 C 0.1558(3) 0.1917(3) 0.01532(11)
H18 H 0.1407 0.1306 -0.0057
C12 C 0.3115(3) 0.2710(2) 0.04679(11)
H19 H 0.4090 0.2659 0.0494
C13 C 0.1924(3) 0.3723(3) 0.07225(11)
H20 H 0.2090 0.4366 0.0905
C14 C 0.1949(3) -0.2748(3) 0.45193(12)
H21 H 0.1004 -0.2754 0.4482
C15 C 0.3178(3) -0.3658(3) 0.42387(12)
H22 H 0.3062 -0.4255 0.4008
C16 C 0.4588(3) -0.3705(2) 0.42928(11)
C17 C 0.4688(3) -0.2884(2) 0.46767(11)
H23 H 0.5640 -0.2941 0.4763
C18 C 0.3390(3) -0.1977(2) 0.49348(11)
H24 H 0.3486 -0.1413 0.5191
C19 C 0.5910(3) -0.4565(3) 0.39311(11)
H25 H 0.6024 -0.5550 0.4007
H26 H 0.6846 -0.4616 0.4090
C20 C 0.5698(3) -0.3899(3) 0.32076(11)
H27 H 0.6560 -0.4523 0.2986
H28 H 0.4765 -0.3859 0.3050
C21 C 0.5591(3) -0.2399(3) 0.30420(11)
H29 H 0.4693 -0.1755 0.3241
H30 H 0.6498 -0.2424 0.3216
C22 C 0.5470(3) -0.1825(2) 0.23289(11)
C23 C 0.4110(3) -0.1265(3) 0.19962(11)
H31 H 0.3228 -0.1216 0.2218
C24 C 0.4028(3) -0.0779(3) 0.13434(11)
H32 H 0.3077 -0.0396 0.1128
C25 C 0.6550(3) -0.1370(2) 0.13201(11)
H33 H 0.7417 -0.1415 0.1087
C26 C 0.6715(3) -0.1873(3) 0.19742(11)
H34 H 0.7676 -0.2249 0.2180
Ni1 Ni 0.0000 0.0000 0.5000
Ni2 Ni 0.5000 0.0000 0.0000
O1A O 0.13686(18) 0.08754(17) 0.51948(8)
N1A N 0.0063(2) -0.1046(2) 0.59683(9)
N3A N -0.2014(2) 0.1853(2) 0.51567(9)
O2A O 0.62778(18) 0.10662(17) 0.00398(8)
N2A N 0.7034(2) -0.1790(2) -0.01846(9)
N4A N 0.4774(2) 0.0822(2) -0.09973(9)
C24A C 0.5972(3) 0.0779(3) -0.13434(11)
C25A C 0.3450(3) 0.1370(2) -0.13201(11)
C1A C 0.0355(3) -0.2427(3) 0.60972(12)
C5A C -0.0296(3) -0.0419(3) 0.64686(12)
C23A C 0.5890(3) 0.1265(3) -0.19962(11)
H32A H 0.6923 0.0396 -0.1128
H33A H 0.2583 0.1415 -0.1087
C26A C 0.3285(3) 0.1873(3) -0.19742(11)
C4A C -0.0431(3) -0.1106(3) 0.70789(12)
H10A H -0.0466 0.0545 0.6399
H7A H 0.0649 -0.2910 0.5758
C2A C 0.0250(3) -0.3181(3) 0.66935(12)
C3A C -0.0186(3) -0.2516(3) 0.71991(12)
H9A H -0.0692 -0.0614 0.7415
H8A H 0.0478 -0.4159 0.6757
C22A C 0.4530(3) 0.1825(2) -0.23289(11)
H34A H 0.2324 0.2249 -0.2180
H31A H 0.6772 0.1216 -0.2218
C6A C -0.0395(3) -0.3284(3) 0.78490(12)
C21A C 0.4409(3) 0.2399(3) -0.30420(11)
C20A C 0.4302(3) 0.3899(3) -0.32076(11)
H29A H 0.5307 0.1755 -0.3241
H30A H 0.3502 0.2424 -0.3216
H11A H -0.1256 -0.2601 0.8049
H12A H -0.0654 -0.4043 0.7801
C7A C 0.1003(3) -0.3953(3) 0.82902(12)
C19A C 0.4090(3) 0.4565(3) -0.39311(11)
H27A H 0.3440 0.4523 -0.2986
H28A H 0.5235 0.3859 -0.3050
H13A H 0.1877 -0.4609 0.8085
H14A H 0.1237 -0.3192 0.8356
C8A C 0.0781(3) -0.4786(3) 0.89421(12)
C16A C 0.5412(3) 0.3705(2) -0.42928(11)
H25A H 0.3976 0.5550 -0.4007
H26A H 0.3154 0.4616 -0.4090
H15A H 0.1726 -0.5236 0.9205
H16A H 0.0553 -0.5552 0.8879
C9A C -0.0489(3) -0.3811(2) 0.92850(11)
C15A C 0.6822(3) 0.3658(3) -0.42387(12)
C17A C 0.5312(3) 0.2884(2) -0.46767(11)
C10A C -0.0326(3) -0.2883(3) 0.95910(11)
C13A C -0.1924(3) -0.3723(3) 0.92775(11)
C14A C 0.8051(3) 0.2748(3) -0.45193(12)
H22A H 0.6938 0.4255 -0.4008
H23A H 0.4360 0.2941 -0.4763
C18A C 0.6610(3) 0.1977(2) -0.49348(11)
H17A H 0.0639 -0.2916 0.9624
C11A C -0.1558(3) -0.1917(3) 0.98468(11)
C12A C -0.3115(3) -0.2710(2) 0.95321(11)
H20A H -0.2090 -0.4366 0.9095
N3A_2 N 0.7986(2) 0.1853(2) -0.48433(9)
H21A H 0.8996 0.2754 -0.4482
H24A H 0.6514 0.1413 -0.5191
N2A_2 N -0.2966(2) -0.1790(2) 0.98154(9)
H18A H -0.1407 -0.1306 1.0057
H19A H -0.4090 -0.2659 0.9506
Ni1_2 Ni 1.0000 0.0000 -0.5000
Ni2_2 Ni -0.5000 0.0000 1.0000
H1A H 0.1897 0.1279 0.4870
H2A H 0.1344 0.1156 0.5553
H3A H 0.6148 0.1961 -0.0264
H4A H 0.7044 0.0916 0.0320
O3 O 0.9819(2) 0.8531(3) 0.11636(15)
O4 O 1.0294(2) 0.9979(3) 0.15347(10)
O5 O 0.8482(2) 1.0779(2) 0.08359(11)
N7 N 0.9538(3) 0.9765(3) 0.11776(11)
O6 O 0.8606(5) 0.6459(4) 0.43199(15)
O7 O 0.9612(3) 0.6232(3) 0.33984(16)
O8 O 0.8811(2) 0.8199(2) 0.36911(10)
N8 N 0.8997(3) 0.6959(3) 0.38129(15)
O9 O 1.1545(3) 0.7379(3) 0.26392(12)
H5 H 1.0954 0.6892 0.2637
H6 H 1.0888 0.8384 0.2316
N5 N 0.3080(2) -0.8230(2) 0.42968(10)
N6 N 0.4303(3) -0.3604(2) 0.07882(11)
C27 C 0.4391(3) -0.9285(3) 0.41828(12)
H35 H 0.4633 -1.0227 0.4417
C28 C 0.5414(3) -0.9101(3) 0.37488(12)
H36 H 0.6327 -0.9898 0.3691
C29 C 0.5096(3) -0.7734(3) 0.33956(11)
C30 C 0.3720(3) -0.6633(3) 0.35017(12)
H37 H 0.3436 -0.5684 0.3266
C31 C 0.2763(3) -0.6922(3) 0.39517(13)
H38 H 0.1834 -0.6150 0.4018
C32 C 0.6223(3) -0.7511(3) 0.29308(12)
H39 H 0.7178 -0.7810 0.3165
H40 H 0.5826 -0.6482 0.2731
C33 C 0.6556(3) -0.8345(3) 0.24101(12)
H41 H 0.6839 -0.9359 0.2610
H42 H 0.7428 -0.8301 0.2168
C34 C 0.5202(3) -0.7766(3) 0.19483(12)
H43 H 0.5417 -0.8428 0.1663
H44 H 0.4302 -0.7719 0.2193
C35 C 0.4869(3) -0.6302(3) 0.15521(12)
C36 C 0.5769(3) -0.6157(3) 0.10395(12)
H45 H 0.6597 -0.6974 0.0940
C37 C 0.5440(3) -0.4806(3) 0.06783(12)
H46 H 0.6063 -0.4728 0.0329
C38 C 0.3454(3) -0.3748(3) 0.12856(13)
H47 H 0.2643 -0.2910 0.1377
C39 C 0.3696(3) -0.5054(3) 0.16743(13)
H48 H 0.3064 -0.5097 0.2024
loop_
_geom_bond_atom_site_label_1
_geom_bond_atom_site_label_2
_geom_bond_site_symmetry_1
_geom_bond_site_symmetry_2
O1 H1 1_555 1_555
H2 O1 1_555 1_555
O2 H3 1_555 1_555
H4 O2 1_555 1_555
O3 N7 1_555 1_555
O4 N7 1_555 1_555
O5 N7 1_555 1_555
O6 N8 1_555 1_555
O7 N8 1_555 1_555
O8 N8 1_555 1_555
O9 H5 1_555 1_555
H6 O9 1_555 1_555
N1 C1 1_555 1_555
N2 C11 1_555 1_555
N3 C14 1_555 1_555
N4 C24 1_555 1_555
N5 C27 1_555 1_555
N6 C37 1_555 1_555
C1 H7 1_555 1_555
C2 C1 1_555 1_555
H8 C2 1_555 1_555
C3 C2 1_555 1_555
C4 C3 1_555 1_555
H9 C4 1_555 1_555
C5 N1 1_555 1_555
H10 C5 1_555 1_555
C6 C3 1_555 1_555
H11 C6 1_555 1_555
H12 C6 1_555 1_555
C7 C6 1_555 1_555
H13 C7 1_555 1_555
H14 C7 1_555 1_555
C8 C7 1_555 1_555
H15 C8 1_555 1_555
H16 C8 1_555 1_555
C9 C8 1_555 1_555
C10 C9 1_555 1_555
H17 C10 1_555 1_555
C11 C10 1_555 1_555
H18 C11 1_555 1_555
C12 N2 1_555 1_555
H19 C12 1_555 1_555
C13 C9 1_555 1_555
H20 C13 1_555 1_555
C14 H21 1_555 1_555
C15 C14 1_555 1_555
H22 C15 1_555 1_555
C16 C15 1_555 1_555
C17 C16 1_555 1_555
H23 C17 1_555 1_555
C18 N3 1_555 1_555
H24 C18 1_555 1_555
C19 C16 1_555 1_555
H25 C19 1_555 1_555
H26 C19 1_555 1_555
C20 C19 1_555 1_555
H27 C20 1_555 1_555
H28 C20 1_555 1_555
C21 C20 1_555 1_555
H29 C21 1_555 1_555
H30 C21 1_555 1_555
C22 C21 1_555 1_555
C23 C22 1_555 1_555
H31 C23 1_555 1_555
C24 C23 1_555 1_555
H32 C24 1_555 1_555
C25 N4 1_555 1_555
H33 C25 1_555 1_555
C26 C22 1_555 1_555
H34 C26 1_555 1_555
C27 H35 1_555 1_555
C28 C27 1_555 1_555
H36 C28 1_555 1_555
C29 C28 1_555 1_555
C30 C29 1_555 1_555
H37 C30 1_555 1_555
C31 N5 1_555 1_555
H38 C31 1_555 1_555
C32 C29 1_555 1_555
H39 C32 1_555 1_555
H40 C32 1_555 1_555
C33 C32 1_555 1_555
H41 C33 1_555 1_555
H42 C33 1_555 1_555
C34 C33 1_555 1_555
H43 C34 1_555 1_555
H44 C34 1_555 1_555
C35 C34 1_555 1_555
C36 C35 1_555 1_555
H45 C36 1_555 1_555
C37 C36 1_555 1_555
H46 C37 1_555 1_555
C38 N6 1_555 1_555
H47 C38 1_555 1_555
C39 C35 1_555 1_555
H48 C39 1_555 1_555
Ni1 O1 1_555 1_555
Ni2 O2 1_555 1_555
O1A Ni1 1_555 1_555
N1A Ni1 1_555 1_555
N3A Ni1 1_555 1_555
O2A Ni2 1_555 1_555
N2A Ni2 1_555 1_555
N4A Ni2 1_555 1_555
C24A N4A 1_555 1_555
C25A N4A 1_555 1_555
C1A N1A 1_555 1_555
C5A N1A 1_555 1_555
C23A C24A 1_555 1_555
H32A C24A 1_555 1_555
H33A C25A 1_555 1_555
C26A C25A 1_555 1_555
C4A C5A 1_555 1_555
H10A C5A 1_555 1_555
H7A C1A 1_555 1_555
C2A C1A 1_555 1_555
C3A C4A 1_555 1_555
H9A C4A 1_555 1_555
H8A C2A 1_555 1_555
C22A C23A 1_555 1_555
H34A C26A 1_555 1_555
H31A C23A 1_555 1_555
C6A C3A 1_555 1_555
C21A C22A 1_555 1_555
C20A C21A 1_555 1_555
H29A C21A 1_555 1_555
H30A C21A 1_555 1_555
H11A C6A 1_555 1_555
H12A C6A 1_555 1_555
C7A C6A 1_555 1_555
C19A C20A 1_555 1_555
H27A C20A 1_555 1_555
H28A C20A 1_555 1_555
H13A C7A 1_555 1_555
H14A C7A 1_555 1_555
C8A C7A 1_555 1_555
C16A C19A 1_555 1_555
H25A C19A 1_555 1_555
H26A C19A 1_555 1_555
H15A C8A 1_555 1_555
H16A C8A 1_555 1_555
C9A C8A 1_555 1_555
C15A C16A 1_555 1_555
C17A C16A 1_555 1_555
C10A C9A 1_555 1_555
C13A C9A 1_555 1_555
C14A C15A 1_555 1_555
H22A C15A 1_555 1_555
H23A C17A 1_555 1_555
C18A C17A 1_555 1_555
H17A C10A 1_555 1_555
C11A C10A 1_555 1_555
C12A C13A 1_555 1_555
H20A C13A 1_555 1_555
N3A_2 C14A 1_555 1_555
H21A C14A 1_555 1_555
H24A C18A 1_555 1_555
N2A_2 C11A 1_555 1_555
H18A C11A 1_555 1_555
H19A C12A 1_555 1_555
Ni1_2 N3A_2 1_555 1_555
Ni2_2 N2A_2 1_555 1_555
H1A O1A 1_555 1_555
H2A O1A 1_555 1_555
H3A O2A 1_555 1_555
H4A O2A 1_555 1_555
N1 Ni1 1_555 1_555
N2 Ni2 1_555 1_555
N3 Ni1 1_555 1_555
N4 Ni2 1_555 1_555
C4 C5 1_555 1_555
C12 C13 1_555 1_555
C17 C18 1_555 1_555
C25 C26 1_555 1_555
C30 C31 1_555 1_555
C38 C39 1_555 1_555
C26A C22A 1_555 1_555
C2A C3A 1_555 1_555
C18A N3A_2 1_555 1_555
C12A N2A_2 1_555 1_555

#END
