
#######################################################################
#
#                 Cambridge Crystallographic Data Centre
#                                CCDC 
#
#######################################################################
#
# If this CIF has been generated from an entry in the Cambridge 
# Structural Database, then it will include bibliographic, chemical, 
# crystal, experimental, refinement or atomic coordinate data resulting 
# from the CCDC's data processing and validation procedures.
#
#######################################################################

data_WOJXEZ
_symmetry_cell_setting           orthorhombic
_symmetry_space_group_name_H-M   'P n n a'
_symmetry_Int_Tables_number      52
_space_group_name_Hall           '-P 2a 2bc'
loop_
_symmetry_equiv_pos_site_id
_symmetry_equiv_pos_as_xyz
1 x,y,z
2 1/2-x,-y,z
3 x,1/2-y,1/2-z
4 1/2-x,1/2+y,1/2-z
5 -x,-y,-z
6 1/2+x,y,-z
7 -x,1/2+y,1/2+z
8 1/2+x,1/2-y,1/2+z
_cell_length_a                   15.9691(4)
_cell_length_b                   54.4728(13)
_cell_length_c                   10.4636(3)
_cell_angle_alpha                90
_cell_angle_beta                 90
_cell_angle_gamma                90
_cell_volume                     9102.09
loop_
_atom_site_label
_atom_site_type_symbol
_atom_site_fract_x
_atom_site_fract_y
_atom_site_fract_z
Cu1 Cu 0.40044(5) 0.2500 0.7500
Cu2 Cu 0.2500 0.0000 1.16193(8)
S1 S 0.16669(12) 0.17612(2) 1.04844(14)
S2 S 0.07360(9) 0.12331(2) 1.07658(13)
O1 O 0.4026(2) 0.21613(5) 0.8893(3)
O2 O 0.4615(2) 0.21055(6) 1.0813(3)
O3 O 0.3229(2) 0.17359(6) 0.8979(3)
O4 O 0.1662(2) 0.08289(5) 0.9385(3)
O5 O 0.2267(2) 0.03588(6) 0.9400(3)
O6 O 0.2285(2) 0.03551(6) 1.1538(3)
N1 N 0.3975(2) 0.22522(7) 0.5983(3)
N2 N 0.5304(3) 0.2500 0.7500
N3 N 0.2722(3) 0.2500 0.7500
N4 N 0.2500 0.0000 1.3883(6)
N5 N 0.1249(3) -0.00546(7) 1.1574(4)
C1 C 0.4184(3) 0.20408(8) 0.9887(4)
C2 C 0.4038(4) 0.23251(9) 0.4764(4)
H1 H 0.4101 0.2492 0.4598
C3 C 0.4013(4) 0.21668(10) 0.3756(5)
H2 H 0.4046 0.2227 0.2925
C4 C 0.3941(4) 0.19265(11) 0.3954(5)
H3 H 0.3957 0.1816 0.3277
C5 C 0.3842(5) 0.18462(11) 0.5197(6)
H4 H 0.3751 0.1681 0.5371
C6 C 0.3879(4) 0.20143(9) 0.6171(5)
H5 H 0.3835 0.1958 0.7007
C7 C 0.5737(3) 0.25537(9) 0.6445(5)
H6 H 0.5445 0.2590 0.5700
C8 C 0.6591(4) 0.25569(12) 0.6417(5)
H7 H 0.6873 0.2597 0.5669
C9 C 0.7026(4) 0.2500 0.7500
H8 H 0.7609 0.2500 0.7500
C10 C 0.2284(3) 0.26912(9) 0.7057(5)
H9 H 0.2572 0.2827 0.6748
C11 C 0.1421(3) 0.26939(11) 0.7043(5)
H10 H 0.1139 0.2830 0.6719
C12 C 0.0982(7) 0.2500 0.7500
H11 H 0.0400 0.2500 0.7500
C13 C 0.3058(3) 0.08767(9) 0.7838(5)
H12 H 0.2805 0.0724 0.7917
C14 C 0.3738(4) 0.09060(11) 0.7053(6)
H13 H 0.3940 0.0772 0.6597
C15 C 0.4136(4) 0.11353(12) 0.6926(5)
H14 H 0.4593 0.1152 0.6381
C16 C 0.3852(3) 0.13338(10) 0.7602(5)
H15 H 0.4124 0.1484 0.7529
C17 C 0.3152(3) 0.13115(8) 0.8402(4)
C18 C 0.2824(3) 0.15142(8) 0.9111(4)
C19 C 0.2113(3) 0.14920(8) 0.9824(4)
C20 C 0.1684(3) 0.12579(8) 0.9918(4)
C21 C 0.2032(3) 0.10572(8) 0.9320(4)
C22 C 0.2746(3) 0.10796(8) 0.8524(4)
C23 C 0.0053(3) 0.11482(9) 0.9500(5)
C24 C 0.0015(4) 0.12870(11) 0.8387(6)
H16 H 0.0349 0.1426 0.8298
C25 C -0.0517(4) 0.12188(13) 0.7418(6)
H17 H -0.0534 0.1310 0.6668
C26 C -0.1037(4) 0.10112(13) 0.7552(7)
C27 C -0.0994(4) 0.08840(12) 0.8684(7)
H18 H -0.1349 0.0751 0.8808
C28 C -0.0446(4) 0.09474(10) 0.9634(6)
H19 H -0.0415 0.0853 1.0373
C29 C 0.1644(4) 0.17028(9) 1.2144(5)
C30 C 0.2162(4) 0.15407(11) 1.2753(5)
H20 H 0.2534 0.1446 1.2280
C31 C 0.2135(5) 0.15173(12) 1.4079(6)
H21 H 0.2476 0.1403 1.4483
C32 C 0.1600(5) 0.16644(13) 1.4805(6)
C33 C 0.1105(5) 0.18227(14) 1.4176(7)
H22 H 0.0754 0.1923 1.4652
C34 C 0.1089(5) 0.18446(12) 1.2857(7)
H23 H 0.0716 0.1951 1.2458
C35 C 0.3812(4) 0.17856(9) 0.9989(5)
H24 H 0.4260 0.1665 0.9962
H25 H 0.3529 0.1769 1.0805
C36 C 0.1744(3) 0.07052(8) 1.0582(5)
H26 H 0.1195 0.0688 1.0969
H27 H 0.2087 0.0804 1.1150
C37 C 0.2407(4) -0.02035(12) 1.4545(6)
H28 H 0.2340 -0.0350 1.4101
C38 C 0.2404(5) -0.02108(17) 1.5867(7)
H29 H 0.2336 -0.0359 1.6296
C39 C 0.2500 0.0000 1.6521(10)
H30 H 0.2500 0.0000 1.7410
C40 C 0.0743(3) 0.00815(10) 1.2327(5)
H31 H 0.0984 0.0204 1.2827
C41 C -0.0109(4) 0.00490(13) 1.2392(6)
H32 H -0.0434 0.0147 1.2921
C42 C -0.0472(4) -0.01319(12) 1.1660(7)
H33 H -0.1047 -0.0159 1.1693
C43 C 0.0019(4) -0.02689(11) 1.0894(6)
H34 H -0.0215 -0.0392 1.0394
C44 C 0.0871(3) -0.02259(9) 1.0852(6)
H35 H 0.1197 -0.0320 1.0300
C45 C 0.2140(3) 0.04511(8) 1.0444(5)
C46 C 0.1591(6) 0.16483(17) 1.6245(7)
H36 H 0.2085 0.1725 1.6582
H37 H 0.1578 0.1479 1.6500
H38 H 0.1103 0.1731 1.6569
C47 C -0.1575(6) 0.09258(18) 0.6503(9)
H39 H -0.1241 0.0841 0.5880
H40 H -0.1844 0.1064 0.6109
H41 H -0.1993 0.0816 0.6835
Cu2B Cu 0.2500 0.5000 0.33807(8)
S1B S 0.16669(12) 0.32388(2) 0.45156(14)
S2B S 0.07360(9) 0.37669(2) 0.42342(13)
O1B O 0.4026(2) 0.28387(5) 0.6107(3)
O2B O 0.4615(2) 0.28945(6) 0.4187(3)
O3B O 0.3229(2) 0.32641(6) 0.6021(3)
O4B O 0.1662(2) 0.41711(5) 0.5615(3)
O5B O 0.2267(2) 0.46412(6) 0.5600(3)
O6B O 0.2285(2) 0.46449(6) 0.3462(3)
O6A O 0.2715(2) -0.03551(6) 1.1538(3)
N1B N 0.3975(2) 0.27478(7) 0.9017(3)
N5A N 0.3751(3) 0.00546(7) 1.1574(4)
C1B C 0.4184(3) 0.29592(8) 0.5113(4)
C2B C 0.4038(4) 0.26749(9) 1.0236(4)
H1B H 0.4101 0.2508 1.0402
C3B C 0.4013(4) 0.28332(10) 1.1244(5)
H2B H 0.4046 0.2773 1.2075
C4B C 0.3941(4) 0.30735(11) 1.1046(5)
H3B H 0.3957 0.3184 1.1723
C5B C 0.3842(5) 0.31538(11) 0.9803(6)
H4B H 0.3751 0.3319 0.9629
C6B C 0.3879(4) 0.29857(9) 0.8829(5)
H5B H 0.3835 0.3042 0.7993
C7B C 0.5737(3) 0.24463(9) 0.8555(5)
H6B H 0.5445 0.2410 0.9300
C8B C 0.6591(4) 0.24431(12) 0.8583(5)
H7B H 0.6873 0.2403 0.9331
C10B C 0.2284(3) 0.23088(9) 0.7943(5)
H9B H 0.2572 0.2173 0.8252
C11B C 0.1421(3) 0.23061(11) 0.7957(5)
H10B H 0.1139 0.2170 0.8281
C13B C 0.3058(3) 0.41233(9) 0.7162(5)
H12B H 0.2805 0.4276 0.7083
C14B C 0.3738(4) 0.40940(11) 0.7947(6)
H13B H 0.3940 0.4228 0.8403
C15B C 0.4136(4) 0.38647(12) 0.8074(5)
H14B H 0.4593 0.3848 0.8619
C16B C 0.3852(3) 0.36662(10) 0.7398(5)
H15B H 0.4124 0.3516 0.7471
C17B C 0.3152(3) 0.36885(8) 0.6598(4)
C18B C 0.2824(3) 0.34858(8) 0.5889(4)
C19B C 0.2113(3) 0.35080(8) 0.5176(4)
C20B C 0.1684(3) 0.37421(8) 0.5082(4)
C21B C 0.2032(3) 0.39428(8) 0.5680(4)
C22B C 0.2746(3) 0.39204(8) 0.6476(4)
C23B C 0.0053(3) 0.38518(9) 0.5500(5)
C24B C 0.0015(4) 0.37130(11) 0.6613(6)
H16B H 0.0349 0.3574 0.6702
C25B C -0.0517(4) 0.37812(13) 0.7582(6)
H17B H -0.0534 0.3690 0.8332
C26B C -0.1037(4) 0.39888(13) 0.7448(7)
C27B C -0.0994(4) 0.41160(12) 0.6316(7)
H18B H -0.1349 0.4249 0.6192
C28B C -0.0446(4) 0.40526(10) 0.5366(6)
H19B H -0.0415 0.4147 0.4627
C29B C 0.1644(4) 0.32972(9) 0.2856(5)
C30B C 0.2162(4) 0.34593(11) 0.2247(5)
H20B H 0.2534 0.3554 0.2720
C31B C 0.2135(5) 0.34827(12) 0.0921(6)
H21B H 0.2476 0.3597 0.0517
C32B C 0.1600(5) 0.33356(13) 0.0195(6)
C33B C 0.1105(5) 0.31773(14) 0.0824(7)
H22B H 0.0754 0.3077 0.0348
C34B C 0.1089(5) 0.31554(12) 0.2143(7)
H23B H 0.0716 0.3049 0.2542
C35B C 0.3812(4) 0.32144(9) 0.5011(5)
H24B H 0.4260 0.3335 0.5038
H25B H 0.3529 0.3231 0.4195
C36B C 0.1744(3) 0.42948(8) 0.4418(5)
H26B H 0.1195 0.4312 0.4031
H27B H 0.2087 0.4196 0.3850
C37A C 0.2593(4) 0.02035(12) 1.4545(6)
H28A H 0.2660 0.0350 1.4101
C38A C 0.2596(5) 0.02108(17) 1.5867(7)
H29A H 0.2664 0.0359 1.6296
C40A C 0.4257(3) -0.00815(10) 1.2327(5)
H31A H 0.4016 -0.0204 1.2827
C41A C 0.5109(4) -0.00490(13) 1.2392(6)
H32A H 0.5434 -0.0147 1.2921
C42A C 0.5472(4) 0.01319(12) 1.1660(7)
H33A H 0.6047 0.0159 1.1693
C43A C 0.4981(4) 0.02689(11) 1.0894(6)
H34A H 0.5215 0.0392 1.0394
C44A C 0.4129(3) 0.02259(9) 1.0852(6)
H35A H 0.3803 0.0320 1.0300
C45B C 0.2140(3) 0.45489(8) 0.4556(5)
C46B C 0.1591(6) 0.33517(17) -0.1245(7)
H36B H 0.2085 0.3275 -0.1582
H37B H 0.1578 0.3521 -0.1500
H38B H 0.1103 0.3269 -0.1569
C47B C -0.1575(6) 0.40742(18) 0.8497(9)
H39B H -0.1241 0.4159 0.9120
H40B H -0.1844 0.3936 0.8891
H41B H -0.1993 0.4184 0.8165
C48 C 0.0377(6) 0.05448(19) 0.5731(11)
H42 H 0.0064 0.0430 0.6184
C49 C 0.0734(8) 0.0714(3) 0.3908(8)
H43 H 0.0700 0.0719 0.3021
C50 C 0.1242(8) 0.0877(2) 0.5738(17)
H44 H 0.1555 0.0995 0.6166
N6 N 0.0344(6) 0.05464(15) 0.4459(9)
C51 C 0.1188(7) 0.0883(3) 0.4467(18)
H45 H 0.1463 0.1003 0.3994
C52 C 0.0862(7) 0.0708(3) 0.6375(8)
H46 H 0.0919 0.0699 0.7258
loop_
_geom_bond_atom_site_label_1
_geom_bond_atom_site_label_2
_geom_bond_site_symmetry_1
_geom_bond_site_symmetry_2
Cu1 O1 1_555 1_555
Cu2 O6 1_555 1_555
S1 C19 1_555 1_555
S2 C20 1_555 1_555
O1 C1 1_555 1_555
O2 C1 1_555 1_555
O3 C18 1_555 1_555
O4 C21 1_555 1_555
O5 C45 1_555 1_555
O6 C45 1_555 1_555
N1 Cu1 1_555 1_555
N2 Cu1 1_555 1_555
N3 Cu1 1_555 1_555
N4 Cu2 1_555 1_555
N5 Cu2 1_555 1_555
C1 C35 1_555 1_555
C2 N1 1_555 1_555
H1 C2 1_555 1_555
C3 C2 1_555 1_555
H2 C3 1_555 1_555
C4 C3 1_555 1_555
H3 C4 1_555 1_555
C5 C4 1_555 1_555
H4 C5 1_555 1_555
C6 N1 1_555 1_555
H5 C6 1_555 1_555
C7 N2 1_555 1_555
H6 C7 1_555 1_555
C8 C7 1_555 1_555
H7 C8 1_555 1_555
C9 C8 1_555 1_555
H8 C9 1_555 1_555
C10 N3 1_555 1_555
H9 C10 1_555 1_555
C11 C10 1_555 1_555
H10 C11 1_555 1_555
C12 C11 1_555 1_555
H11 C12 1_555 1_555
C13 H12 1_555 1_555
C14 C13 1_555 1_555
H13 C14 1_555 1_555
C15 C14 1_555 1_555
H14 C15 1_555 1_555
C16 C15 1_555 1_555
H15 C16 1_555 1_555
C17 C16 1_555 1_555
C18 C17 1_555 1_555
C19 C18 1_555 1_555
C20 C19 1_555 1_555
C21 C20 1_555 1_555
C22 C13 1_555 1_555
C23 S2 1_555 1_555
C24 C23 1_555 1_555
H16 C24 1_555 1_555
C25 C24 1_555 1_555
H17 C25 1_555 1_555
C26 C25 1_555 1_555
C27 C26 1_555 1_555
H18 C27 1_555 1_555
C28 C23 1_555 1_555
H19 C28 1_555 1_555
C29 S1 1_555 1_555
C30 C29 1_555 1_555
H20 C30 1_555 1_555
C31 C30 1_555 1_555
H21 C31 1_555 1_555
C32 C31 1_555 1_555
C33 C32 1_555 1_555
H22 C33 1_555 1_555
C34 C29 1_555 1_555
H23 C34 1_555 1_555
C35 O3 1_555 1_555
H24 C35 1_555 1_555
H25 C35 1_555 1_555
C36 O4 1_555 1_555
H26 C36 1_555 1_555
H27 C36 1_555 1_555
C37 N4 1_555 1_555
H28 C37 1_555 1_555
C38 C37 1_555 1_555
H29 C38 1_555 1_555
C39 C38 1_555 1_555
H30 C39 1_555 1_555
C40 N5 1_555 1_555
H31 C40 1_555 1_555
C41 C40 1_555 1_555
H32 C41 1_555 1_555
C42 C41 1_555 1_555
H33 C42 1_555 1_555
C43 C42 1_555 1_555
H34 C43 1_555 1_555
C44 N5 1_555 1_555
H35 C44 1_555 1_555
C45 C36 1_555 1_555
C46 C32 1_555 1_555
H36 C46 1_555 1_555
H37 C46 1_555 1_555
H38 C46 1_555 1_555
C47 C26 1_555 1_555
H39 C47 1_555 1_555
H40 C47 1_555 1_555
H41 C47 1_555 1_555
C48 H42 1_555 1_555
C49 H43 1_555 1_555
C50 H44 1_555 1_555
N6 C48 1_555 1_555
C51 C49 1_555 1_555
H45 C51 1_555 1_555
C52 C48 1_555 1_555
H46 C52 1_555 1_555
Cu2B O6B 1_555 1_555
S1B C19B 1_555 1_555
S2B C20B 1_555 1_555
O1B Cu1 1_555 1_555
O2B C1B 1_555 1_555
O3B C18B 1_555 1_555
O4B C21B 1_555 1_555
O5B C45B 1_555 1_555
O6B C45B 1_555 1_555
O6A Cu2 1_555 1_555
N1B Cu1 1_555 1_555
N5A Cu2 1_555 1_555
C1B O1B 1_555 1_555
C2B N1B 1_555 1_555
H1B C2B 1_555 1_555
C3B C2B 1_555 1_555
H2B C3B 1_555 1_555
C4B C3B 1_555 1_555
H3B C4B 1_555 1_555
C5B C4B 1_555 1_555
H4B C5B 1_555 1_555
C6B N1B 1_555 1_555
H5B C6B 1_555 1_555
C7B N2 1_555 1_555
H6B C7B 1_555 1_555
C8B C9 1_555 1_555
H7B C8B 1_555 1_555
C10B N3 1_555 1_555
H9B C10B 1_555 1_555
C11B C12 1_555 1_555
H10B C11B 1_555 1_555
C13B H12B 1_555 1_555
C14B C13B 1_555 1_555
H13B C14B 1_555 1_555
C15B C14B 1_555 1_555
H14B C15B 1_555 1_555
C16B C15B 1_555 1_555
H15B C16B 1_555 1_555
C17B C16B 1_555 1_555
C18B C17B 1_555 1_555
C19B C18B 1_555 1_555
C20B C19B 1_555 1_555
C21B C20B 1_555 1_555
C22B C13B 1_555 1_555
C23B S2B 1_555 1_555
C24B C23B 1_555 1_555
H16B C24B 1_555 1_555
C25B C24B 1_555 1_555
H17B C25B 1_555 1_555
C26B C25B 1_555 1_555
C27B C26B 1_555 1_555
H18B C27B 1_555 1_555
C28B C23B 1_555 1_555
H19B C28B 1_555 1_555
C29B S1B 1_555 1_555
C30B C29B 1_555 1_555
H20B C30B 1_555 1_555
C31B C30B 1_555 1_555
H21B C31B 1_555 1_555
C32B C31B 1_555 1_555
C33B C32B 1_555 1_555
H22B C33B 1_555 1_555
C34B C29B 1_555 1_555
H23B C34B 1_555 1_555
C35B O3B 1_555 1_555
H24B C35B 1_555 1_555
H25B C35B 1_555 1_555
C36B O4B 1_555 1_555
H26B C36B 1_555 1_555
H27B C36B 1_555 1_555
C37A N4 1_555 1_555
H28A C37A 1_555 1_555
C38A C39 1_555 1_555
H29A C38A 1_555 1_555
C40A N5A 1_555 1_555
H31A C40A 1_555 1_555
C41A C40A 1_555 1_555
H32A C41A 1_555 1_555
C42A C41A 1_555 1_555
H33A C42A 1_555 1_555
C43A C42A 1_555 1_555
H34A C43A 1_555 1_555
C44A N5A 1_555 1_555
H35A C44A 1_555 1_555
C45B C36B 1_555 1_555
C46B C32B 1_555 1_555
H36B C46B 1_555 1_555
H37B C46B 1_555 1_555
H38B C46B 1_555 1_555
C47B C26B 1_555 1_555
H39B C47B 1_555 1_555
H40B C47B 1_555 1_555
H41B C47B 1_555 1_555
C5 C6 1_555 1_555
C17 C22 1_555 1_555
C21 C22 1_555 1_555
C27 C28 1_555 1_555
C33 C34 1_555 1_555
C43 C44 1_555 1_555
C49 N6 1_555 1_555
C50 C51 1_555 1_555
C50 C52 1_555 1_555
C1B C35B 1_555 1_555
C5B C6B 1_555 1_555
C7B C8B 1_555 1_555
C10B C11B 1_555 1_555
C17B C22B 1_555 1_555
C21B C22B 1_555 1_555
C27B C28B 1_555 1_555
C33B C34B 1_555 1_555
C37A C38A 1_555 1_555
C43A C44A 1_555 1_555

#END
