
#######################################################################
#
#                 Cambridge Crystallographic Data Centre
#                                CCDC 
#
#######################################################################
#
# If this CIF has been generated from an entry in the Cambridge 
# Structural Database, then it will include bibliographic, chemical, 
# crystal, experimental, refinement or atomic coordinate data resulting 
# from the CCDC's data processing and validation procedures.
#
#######################################################################

data_WOJXAV
_symmetry_cell_setting           orthorhombic
_symmetry_space_group_name_H-M   'P n n a'
_symmetry_Int_Tables_number      52
_space_group_name_Hall           '-P 2a 2bc'
loop_
_symmetry_equiv_pos_site_id
_symmetry_equiv_pos_as_xyz
1 x,y,z
2 1/2-x,-y,z
3 1/2-x,1/2+y,1/2-z
4 x,1/2-y,1/2-z
5 -x,-y,-z
6 1/2+x,y,-z
7 1/2+x,1/2-y,1/2+z
8 -x,1/2+y,1/2+z
_cell_length_a                   15.9305(8)
_cell_length_b                   54.404(3)
_cell_length_c                   10.6095(5)
_cell_angle_alpha                90
_cell_angle_beta                 90
_cell_angle_gamma                90
_cell_volume                     9195.07
loop_
_atom_site_label
_atom_site_type_symbol
_atom_site_fract_x
_atom_site_fract_y
_atom_site_fract_z
Cu1 Cu 0.39873(4) 0.2500 0.2500
Cu2 Cu 0.2500 0.5000 0.66272(7)
Br1 Br 0.15380(4) 0.335440(13) 1.15021(5)
Br2 Br -0.17373(4) 0.407660(12) 0.12719(6)
S1 S 0.07084(6) 0.37691(2) 0.58241(9)
S2 S 0.16055(8) 0.323510(19) 0.54823(10)
C1 C 0.2004(2) 0.39405(6) 0.4385(3)
C2 C 0.1662(2) 0.37385(7) 0.4964(3)
C3 C 0.2790(2) 0.34839(7) 0.4169(3)
C4 C 0.1586(3) 0.32881(7) 0.7124(4)
C5 C 0.4151(2) 0.29544(7) 0.4899(3)
C6 C 0.3819(3) 0.29903(7) 0.1216(4)
H1 H 0.3757 0.3044 0.2042
C7 C 0.3114(2) 0.36861(7) 0.3473(3)
C8 C 0.1733(2) 0.42955(7) 0.5626(4)
H2 H 0.2075 0.4197 0.6187
H3 H 0.1186 0.4315 0.6012
C9 C 0.2265(2) 0.23098(8) 0.2044(4)
H4 H 0.2557 0.2176 0.1725
C10 C 0.2067(2) 0.35048(6) 0.4858(3)
C11 C -0.1009(3) 0.41214(8) 0.3681(4)
H5 H -0.1352 0.4259 0.3753
C12 C -0.0534(3) 0.37738(8) 0.2503(4)
H6 H -0.0549 0.3680 0.1771
C13 C 0.4054(3) 0.26828(8) -0.0191(4)
H7 H 0.4145 0.2517 -0.0359
C14 C 0.4028(3) 0.28428(8) -0.1184(4)
H8 H 0.4104 0.2786 -0.2003
C15 C 0.2717(2) 0.39178(7) 0.3587(3)
C16 C 0.6580(3) 0.24473(10) 0.1428(5)
H9 H 0.6862 0.2412 0.0681
C17 C -0.1031(3) 0.39808(8) 0.2620(4)
C18 C -0.0015(3) 0.37089(8) 0.3486(4)
H10 H 0.0307 0.3567 0.3425
C19 C 0.1542(3) 0.33288(8) 0.9720(4)
C20 C 0.2138(2) 0.45467(7) 0.5470(4)
C21 C 0.5720(2) 0.24464(7) 0.1461(4)
H11 H 0.5428 0.2407 0.0730
C22 C 0.3764(3) 0.32063(8) 0.5038(4)
H12 H 0.3469 0.3216 0.5836
H13 H 0.4206 0.3329 0.5046
C23 C 0.2105(3) 0.34531(7) 0.7745(4)
H14 H 0.2476 0.3550 0.7284
C24 C 0.0035(2) 0.38518(7) 0.4565(4)
C25 C 0.3819(2) 0.36634(9) 0.2669(4)
H15 H 0.4096 0.3513 0.2598
C26 C 0.3891(3) 0.30861(8) -0.0964(4)
H16 H 0.3882 0.3199 -0.1624
C27 C 0.3698(3) 0.40905(9) 0.2116(4)
H17 H 0.3896 0.4224 0.1654
C28 C 0.3031(2) 0.41208(7) 0.2891(4)
H18 H 0.2780 0.4274 0.2967
C29 C 0.0960(4) 0.2500 0.2500
H19 H 0.0376 0.2500 0.2500
C30 C 0.1025(3) 0.31480(8) 0.7835(5)
H20 H 0.0655 0.3042 0.7432
C31 C 0.4094(3) 0.38622(10) 0.1998(4)
H21 H 0.4549 0.3845 0.1456
C32 C 0.0007(3) 0.52622(9) 0.5898(5)
H22 H -0.0231 0.5384 0.5400
C33 C 0.0735(3) 0.49125(9) 0.7314(5)
H23 H 0.0983 0.4791 0.7805
C34 C 0.3767(3) 0.31603(8) 0.0257(4)
H24 H 0.3650 0.3324 0.0436
C35 C 0.0863(3) 0.52219(8) 0.5868(5)
H25 H 0.1194 0.5317 0.5337
C36 C -0.0471(3) 0.40582(8) 0.4650(4)
H26 H -0.0448 0.4156 0.5369
C37 C 0.2075(3) 0.34753(8) 0.9036(4)
H27 H 0.2416 0.3589 0.9444
C38 C 0.1406(3) 0.23035(9) 0.2025(4)
H28 H 0.1126 0.2168 0.1695
C39 C -0.0118(3) 0.49415(10) 0.7382(5)
H29 H -0.0440 0.4842 0.7905
C40 C 0.1017(3) 0.31659(9) 0.9126(4)
H30 H 0.0655 0.3068 0.9597
C41 C -0.0488(3) 0.51221(10) 0.6659(5)
H31 H -0.1065 0.5148 0.6690
C42 C 0.7022(4) 0.2500 0.2500
H32 H 0.7606 0.2500 0.2500
C43 C 0.2604(4) 0.47981(10) 0.9502(5)
H33 H 0.2680 0.4651 0.9074
N1 N 0.2703(2) 0.2500 0.2500
N2 N 0.39537(18) 0.27520(5) 0.1012(3)
N3 N 0.5285(2) 0.2500 0.2500
N4 N 0.1231(2) 0.50501(6) 0.6578(3)
N5 N 0.2500 0.5000 0.8834(5)
O1 O 0.31854(16) 0.32600(5) 0.4022(2)
O2 O 0.22974(18) 0.46459(5) 0.6539(3)
O3 O 0.40297(17) 0.28392(5) 0.3892(2)
O4 O 0.16390(15) 0.41693(4) 0.4453(2)
O5 O 0.45758(18) 0.28872(5) 0.5810(3)
O6 O 0.2262(2) 0.46380(5) 0.4436(3)
C44 C 0.2500 0.5000 1.1469(9)
H34 H 0.2500 0.5000 1.2346
C45 C 0.2608(4) 0.47936(16) 1.0798(7)
H35 H 0.2687 0.4645 1.1216
Cu2B Cu 0.2500 0.0000 -0.16272(7)
Br1C Br 0.15380(4) 0.164560(13) -0.65021(5)
Br2C Br -0.17373(4) 0.092340(12) 0.37281(6)
S1C S 0.07084(6) 0.12309(2) -0.08241(9)
S2C S 0.16055(8) 0.176490(19) -0.04823(10)
C1C C 0.2004(2) 0.10595(6) 0.0615(3)
C2C C 0.1662(2) 0.12615(7) 0.0036(3)
C3C C 0.2790(2) 0.15161(7) 0.0831(3)
C4C C 0.1586(3) 0.17119(7) -0.2124(4)
C5C C 0.4151(2) 0.20456(7) 0.0101(3)
C6C C 0.3819(3) 0.20097(7) 0.3784(4)
H1C H 0.3757 0.1956 0.2958
C7C C 0.3114(2) 0.13139(7) 0.1527(3)
C8C C 0.1733(2) 0.07045(7) -0.0626(4)
H2C H 0.2075 0.0803 -0.1187
H3C H 0.1186 0.0685 -0.1012
C9C C 0.2265(2) 0.26902(8) 0.2956(4)
H4C H 0.2557 0.2824 0.3275
C10C C 0.2067(2) 0.14952(6) 0.0142(3)
C11C C -0.1009(3) 0.08786(8) 0.1319(4)
H5C H -0.1352 0.0741 0.1247
C12C C -0.0534(3) 0.12262(8) 0.2497(4)
H6C H -0.0549 0.1320 0.3229
C13C C 0.4054(3) 0.23172(8) 0.5191(4)
H7C H 0.4145 0.2483 0.5359
C14C C 0.4028(3) 0.21572(8) 0.6184(4)
H8C H 0.4104 0.2214 0.7003
C15C C 0.2717(2) 0.10822(7) 0.1413(3)
C16C C 0.6580(3) 0.25527(10) 0.3572(5)
H9C H 0.6862 0.2588 0.4319
C17C C -0.1031(3) 0.10192(8) 0.2380(4)
C18C C -0.0015(3) 0.12911(8) 0.1514(4)
H10C H 0.0307 0.1433 0.1575
C19C C 0.1542(3) 0.16712(8) -0.4720(4)
C20C C 0.2138(2) 0.04533(7) -0.0470(4)
C21C C 0.5720(2) 0.25536(7) 0.3539(4)
H11C H 0.5428 0.2593 0.4270
C22C C 0.3764(3) 0.17937(8) -0.0038(4)
H12C H 0.3469 0.1784 -0.0836
H13C H 0.4206 0.1671 -0.0046
C23C C 0.2105(3) 0.15469(7) -0.2745(4)
H14C H 0.2476 0.1450 -0.2284
C24C C 0.0035(2) 0.11482(7) 0.0435(4)
C25C C 0.3819(2) 0.13366(9) 0.2331(4)
H15C H 0.4096 0.1487 0.2402
C26C C 0.3891(3) 0.19139(8) 0.5964(4)
H16C H 0.3882 0.1801 0.6624
C27C C 0.3698(3) 0.09095(9) 0.2884(4)
H17C H 0.3896 0.0776 0.3346
C28C C 0.3031(2) 0.08792(7) 0.2109(4)
H18C H 0.2780 0.0726 0.2033
C30C C 0.1025(3) 0.18520(8) -0.2835(5)
H20C H 0.0655 0.1958 -0.2432
C31C C 0.4094(3) 0.11378(10) 0.3002(4)
H21C H 0.4549 0.1155 0.3544
C32A C 0.4993(3) 0.47378(9) 0.5898(5)
H22A H 0.5231 0.4616 0.5400
C33A C 0.4265(3) 0.50875(9) 0.7314(5)
H23A H 0.4017 0.5209 0.7805
C34C C 0.3767(3) 0.18397(8) 0.4743(4)
H24C H 0.3650 0.1676 0.4564
C35A C 0.4137(3) 0.47781(8) 0.5868(5)
H25A H 0.3806 0.4683 0.5337
C36C C -0.0471(3) 0.09418(8) 0.0350(4)
H26C H -0.0448 0.0844 -0.0369
C37C C 0.2075(3) 0.15247(8) -0.4036(4)
H27C H 0.2416 0.1411 -0.4444
C38C C 0.1406(3) 0.26965(9) 0.2975(4)
H28C H 0.1126 0.2832 0.3305
C39A C 0.5118(3) 0.50585(10) 0.7382(5)
H29A H 0.5440 0.5158 0.7905
C40C C 0.1017(3) 0.18341(9) -0.4126(4)
H30C H 0.0655 0.1932 -0.4597
C41A C 0.5488(3) 0.48779(10) 0.6659(5)
H31A H 0.6065 0.4852 0.6690
C43A C 0.2396(4) 0.52019(10) 0.9502(5)
H33A H 0.2320 0.5349 0.9074
N2C N 0.39537(18) 0.22480(5) 0.3988(3)
N4A N 0.3769(2) 0.49499(6) 0.6578(3)
O1C O 0.31854(16) 0.17400(5) 0.0978(2)
O2C O 0.22974(18) 0.03541(5) -0.1539(3)
O2A O 0.27026(18) 0.53541(5) 0.6539(3)
O3C O 0.40297(17) 0.21608(5) 0.1108(2)
O4C O 0.16390(15) 0.08307(4) 0.0547(2)
O5C O 0.45758(18) 0.21128(5) -0.0810(3)
O6C O 0.2262(2) 0.03620(5) 0.0564(3)
C45A C 0.2392(4) 0.52064(16) 1.0798(7)
H35A H 0.2313 0.5355 1.1216
N6 N 0.0341(6) 0.05434(12) 0.5506(9)
C46 C 0.0700(6) 0.0726(3) 0.6022(7)
H36 H 0.0681 0.0739 0.6896
C47 C 0.0805(6) 0.0704(2) 0.3581(6)
H37 H 0.0847 0.0690 0.2710
C48 C 0.1157(5) 0.08869(16) 0.4171(13)
H38 H 0.1447 0.1007 0.3728
C49 C 0.0376(6) 0.05346(15) 0.4268(10)
H39 H 0.0099 0.0408 0.3849
C50 C 0.1095(5) 0.0898(2) 0.5398(15)
H40 H 0.1334 0.1029 0.5830
loop_
_geom_bond_atom_site_label_1
_geom_bond_atom_site_label_2
_geom_bond_site_symmetry_1
_geom_bond_site_symmetry_2
Cu1 N1 1_555 1_555
Cu2 N4 1_555 1_555
Br1 C19 1_555 1_555
Br2 C17 1_555 1_555
S1 C2 1_555 1_555
S2 C4 1_555 1_555
C1 C2 1_555 1_555
C2 C10 1_555 1_555
C3 C7 1_555 1_555
C4 C23 1_555 1_555
C5 C22 1_555 1_555
C6 H1 1_555 1_555
C7 C15 1_555 1_555
C8 H2 1_555 1_555
H3 C8 1_555 1_555
C9 H4 1_555 1_555
C10 S2 1_555 1_555
C11 H5 1_555 1_555
C12 H6 1_555 1_555
C13 H7 1_555 1_555
C14 C13 1_555 1_555
H8 C14 1_555 1_555
C15 C1 1_555 1_555
C16 H9 1_555 1_555
C17 C11 1_555 1_555
C18 C12 1_555 1_555
H10 C18 1_555 1_555
C19 C37 1_555 1_555
C20 C8 1_555 1_555
C21 C16 1_555 1_555
H11 C21 1_555 1_555
C22 H12 1_555 1_555
H13 C22 1_555 1_555
C23 H14 1_555 1_555
C24 S1 1_555 1_555
C25 C7 1_555 1_555
H15 C25 1_555 1_555
C26 C14 1_555 1_555
H16 C26 1_555 1_555
C27 H17 1_555 1_555
C28 C15 1_555 1_555
H18 C28 1_555 1_555
C29 H19 1_555 1_555
C30 C4 1_555 1_555
H20 C30 1_555 1_555
C31 C25 1_555 1_555
H21 C31 1_555 1_555
C32 H22 1_555 1_555
C33 H23 1_555 1_555
C34 C6 1_555 1_555
H24 C34 1_555 1_555
C35 C32 1_555 1_555
H25 C35 1_555 1_555
C36 C11 1_555 1_555
H26 C36 1_555 1_555
C37 C23 1_555 1_555
H27 C37 1_555 1_555
C38 C9 1_555 1_555
H28 C38 1_555 1_555
C39 C33 1_555 1_555
H29 C39 1_555 1_555
C40 C19 1_555 1_555
H30 C40 1_555 1_555
C41 C32 1_555 1_555
H31 C41 1_555 1_555
C42 C16 1_555 1_555
H32 C42 1_555 1_555
C43 H33 1_555 1_555
N1 C9 1_555 1_555
N2 Cu1 1_555 1_555
N3 Cu1 1_555 1_555
N4 C33 1_555 1_555
N5 Cu2 1_555 1_555
O1 C3 1_555 1_555
O2 Cu2 1_555 1_555
O3 Cu1 1_555 1_555
O4 C1 1_555 1_555
O5 C5 1_555 1_555
O6 C20 1_555 1_555
C44 H34 1_555 1_555
C45 C43 1_555 1_555
H35 C45 1_555 1_555
N6 C46 1_555 1_555
C46 H36 1_555 1_555
C47 H37 1_555 1_555
C48 C47 1_555 1_555
H38 C48 1_555 1_555
C49 N6 1_555 1_555
H39 C49 1_555 1_555
C50 C46 1_555 1_555
H40 C50 1_555 1_555
Cu2B O2C 1_555 1_555
Br1C C19C 1_555 1_555
Br2C C17C 1_555 1_555
S1C C2C 1_555 1_555
S2C C4C 1_555 1_555
C1C C2C 1_555 1_555
C2C C10C 1_555 1_555
C3C C7C 1_555 1_555
C4C C23C 1_555 1_555
C5C C22C 1_555 1_555
C6C H1C 1_555 1_555
C7C C15C 1_555 1_555
C8C H2C 1_555 1_555
H3C C8C 1_555 1_555
C9C N1 1_555 1_555
H4C C9C 1_555 1_555
C10C S2C 1_555 1_555
C11C H5C 1_555 1_555
C12C H6C 1_555 1_555
C13C H7C 1_555 1_555
C14C C13C 1_555 1_555
H8C C14C 1_555 1_555
C15C C1C 1_555 1_555
C16C C42 1_555 1_555
H9C C16C 1_555 1_555
C17C C11C 1_555 1_555
C18C C12C 1_555 1_555
H10C C18C 1_555 1_555
C19C C37C 1_555 1_555
C20C C8C 1_555 1_555
C21C N3 1_555 1_555
H11C C21C 1_555 1_555
C22C H12C 1_555 1_555
H13C C22C 1_555 1_555
C23C H14C 1_555 1_555
C24C S1C 1_555 1_555
C25C C7C 1_555 1_555
H15C C25C 1_555 1_555
C26C C14C 1_555 1_555
H16C C26C 1_555 1_555
C27C H17C 1_555 1_555
C28C C15C 1_555 1_555
H18C C28C 1_555 1_555
C30C C4C 1_555 1_555
H20C C30C 1_555 1_555
C31C C25C 1_555 1_555
H21C C31C 1_555 1_555
C32A H22A 1_555 1_555
C33A H23A 1_555 1_555
C34C C6C 1_555 1_555
H24C C34C 1_555 1_555
C35A C32A 1_555 1_555
H25A C35A 1_555 1_555
C36C C11C 1_555 1_555
H26C C36C 1_555 1_555
C37C C23C 1_555 1_555
H27C C37C 1_555 1_555
C38C C29 1_555 1_555
H28C C38C 1_555 1_555
C39A C33A 1_555 1_555
H29A C39A 1_555 1_555
C40C C19C 1_555 1_555
H30C C40C 1_555 1_555
C41A C32A 1_555 1_555
H31A C41A 1_555 1_555
C43A N5 1_555 1_555
H33A C43A 1_555 1_555
N2C Cu1 1_555 1_555
N4A Cu2 1_555 1_555
O1C C3C 1_555 1_555
O2C C20C 1_555 1_555
O2A Cu2 1_555 1_555
O3C Cu1 1_555 1_555
O4C C1C 1_555 1_555
O5C C5C 1_555 1_555
O6C C20C 1_555 1_555
C45A C44 1_555 1_555
H35A C45A 1_555 1_555
C3 C10 1_555 1_555
C5 O3 1_555 1_555
C6 N2 1_555 1_555
C8 O4 1_555 1_555
C12 C17 1_555 1_555
C13 N2 1_555 1_555
C18 C24 1_555 1_555
C20 O2 1_555 1_555
C21 N3 1_555 1_555
C22 O1 1_555 1_555
C24 C36 1_555 1_555
C26 C34 1_555 1_555
C27 C28 1_555 1_555
C27 C31 1_555 1_555
C29 C38 1_555 1_555
C30 C40 1_555 1_555
C35 N4 1_555 1_555
C39 C41 1_555 1_555
C43 N5 1_555 1_555
C44 C45 1_555 1_555
C47 C49 1_555 1_555
C48 C50 1_555 1_555
C3C C10C 1_555 1_555
C5C O3C 1_555 1_555
C6C N2C 1_555 1_555
C8C O4C 1_555 1_555
C9C C38C 1_555 1_555
C12C C17C 1_555 1_555
C13C N2C 1_555 1_555
C16C C21C 1_555 1_555
C18C C24C 1_555 1_555
C22C O1C 1_555 1_555
C24C C36C 1_555 1_555
C26C C34C 1_555 1_555
C27C C28C 1_555 1_555
C27C C31C 1_555 1_555
C30C C40C 1_555 1_555
C33A N4A 1_555 1_555
C35A N4A 1_555 1_555
C39A C41A 1_555 1_555
C43A C45A 1_555 1_555

#END
