
#######################################################################
#
#                 Cambridge Crystallographic Data Centre
#                                CCDC 
#
#######################################################################
#
# If this CIF has been generated from an entry in the Cambridge 
# Structural Database, then it will include bibliographic, chemical, 
# crystal, experimental, refinement or atomic coordinate data resulting 
# from the CCDC's data processing and validation procedures.
#
#######################################################################

data_WOJYUP
_symmetry_cell_setting           triclinic
_symmetry_space_group_name_H-M   'P -1'
_symmetry_Int_Tables_number      2
_space_group_name_Hall           '-P 1'
loop_
_symmetry_equiv_pos_site_id
_symmetry_equiv_pos_as_xyz
1 x,y,z
2 -x,-y,-z
_cell_length_a                   9.8797(3)
_cell_length_b                   11.5540(3)
_cell_length_c                   15.8655(4)
_cell_angle_alpha                71.134(2)
_cell_angle_beta                 74.932(2)
_cell_angle_gamma                68.190(2)
_cell_volume                     1570.8
loop_
_atom_site_label
_atom_site_type_symbol
_atom_site_fract_x
_atom_site_fract_y
_atom_site_fract_z
Sr1 Sr 0.23961(2) 0.213486(19) 0.296181(13)
P1 P 0.14435(8) 0.38954(7) 0.43344(4)
P2 P -0.03101(7) 0.44273(6) 0.36206(5)
P3 P 0.22963(7) 0.51563(6) 0.23617(4)
P4 P 0.50559(6) 0.02541(6) 0.18995(4)
P5 P 0.33891(7) -0.06201(6) 0.25216(4)
P6 P 0.23021(7) 0.17552(6) 0.10355(4)
N1 N 0.0800(2) 0.0749(2) 0.43347(13)
N2 N -0.4143(2) -0.06828(19) 0.56924(13)
C1 C 0.2746(3) 0.4395(2) 0.34496(17)
C2 C 0.0495(3) 0.5105(2) 0.25409(17)
C3 C 0.4258(3) 0.4323(3) 0.3615(2)
C4 C 0.4306(4) 0.5704(3) 0.3416(3)
H1 H 0.35 0.617 0.3813
H2 H 0.4193 0.6149 0.2785
H3 H 0.5253 0.5673 0.3523
C5 C 0.4501(4) 0.3649(3) 0.4597(2)
H4 H 0.3701 0.4104 0.5003
H5 H 0.5449 0.3657 0.4676
H6 H 0.4508 0.2756 0.4739
C6 C 0.5516(3) 0.3599(3) 0.2995(2)
H7 H 0.549 0.2718 0.3123
H8 H 0.6463 0.3571 0.31
H9 H 0.5401 0.4043 0.2364
C7 C -0.0461(3) 0.5784(2) 0.17855(19)
C8 C 0.0401(4) 0.6321(4) 0.0897(2)
H10 H 0.0806 0.6927 0.0979
H11 H -0.0256 0.6769 0.0443
H12 H 0.1211 0.5614 0.0696
C9 C -0.1708(4) 0.6929(3) 0.2056(3)
H13 H -0.1287 0.7514 0.2151
H14 H -0.2324 0.6619 0.2614
H15 H -0.2312 0.7388 0.1575
C10 C -0.1101(5) 0.4868(4) 0.1659(3)
H16 H -0.1709 0.5311 0.1179
H17 H -0.1712 0.4566 0.2223
H18 H -0.0298 0.413 0.1492
C11 C 0.4117(2) 0.1558(2) 0.11053(14)
C12 C 0.1983(3) 0.0443(2) 0.19060(16)
C13 C 0.4955(3) 0.2403(2) 0.03636(15)
C14 C 0.3988(3) 0.3811(3) 0.01177(19)
H19 H 0.3086 0.386 -0.0061
H20 H 0.4532 0.4305 -0.0384
H21 H 0.3726 0.4171 0.0641
C15 C 0.6336(3) 0.2375(3) 0.0635(2)
H22 H 0.6829 0.2924 0.0142
H23 H 0.7008 0.1489 0.076
H24 H 0.6062 0.2695 0.1177
C16 C 0.5381(4) 0.1898(3) -0.04870(19)
H25 H 0.449 0.1915 -0.0659
H26 H 0.6054 0.1013 -0.0362
H27 H 0.5872 0.2447 -0.0981
C17 C 0.0503(3) 0.0183(2) 0.20333(17)
C18 C -0.0804(3) 0.1359(3) 0.2203(2)
H28 H -0.0734 0.2114 0.1705
H29 H -0.0786 0.1517 0.277
H30 H -0.1728 0.12 0.2242
C19 C 0.0398(3) -0.0086(3) 0.1165(2)
H31 H 0.1228 -0.0839 0.1046
H32 H 0.0434 0.0665 0.0657
H33 H -0.0533 -0.0255 0.1242
C20 C 0.0378(4) -0.0990(3) 0.2815(2)
H34 H 0.1211 -0.1749 0.2712
H35 H -0.055 -0.1143 0.2851
H36 H 0.0392 -0.0828 0.3382
C21 C -0.0630(3) 0.1243(2) 0.46434(16)
H37 H -0.1121 0.2129 0.4405
C22 C 0.1419(3) -0.0506(2) 0.47014(16)
H38 H 0.2435 -0.0903 0.4505
C23 C -0.3583(3) -0.0664(2) 0.48275(16)
H39 H -0.2571 -0.1124 0.4675
C24 C -0.5567(3) -0.0004(2) 0.58553(16)
H40 H -0.6013 0.0021 0.6459
C22A C -0.1419(3) 0.0506(2) 0.52986(16)
N1A N -0.0800(2) -0.0749(2) 0.56653(13)
C21A C 0.0630(3) -0.1243(2) 0.53566(16)
H37A H 0.1121 -0.2129 0.5595
H38A H -0.2435 0.0903 0.5495
Sr1A Sr -0.23961(2) -0.213486(19) 0.703819(13)
P1A P -0.14435(8) -0.38954(7) 0.56656(4)
P2A P 0.03101(7) -0.44273(6) 0.63794(5)
P3A P -0.22963(7) -0.51563(6) 0.76383(4)
C1A C -0.2746(3) -0.4395(2) 0.65504(17)
C2A C -0.0495(3) -0.5105(2) 0.74591(17)
C3A C -0.4258(3) -0.4323(3) 0.6385(2)
C4A C -0.4306(4) -0.5704(3) 0.6584(3)
H1A H -0.35 -0.617 0.6187
H2A H -0.4193 -0.6149 0.7215
H3A H -0.5253 -0.5673 0.6477
C5A C -0.4501(4) -0.3649(3) 0.5403(2)
H4A H -0.3701 -0.4104 0.4997
H5A H -0.5449 -0.3657 0.5324
H6A H -0.4508 -0.2756 0.5261
C6A C -0.5516(3) -0.3599(3) 0.7005(2)
H7A H -0.549 -0.2718 0.6877
H8A H -0.6463 -0.3571 0.69
H9A H -0.5401 -0.4043 0.7636
C7A C 0.0461(3) -0.5784(2) 0.82145(19)
C8A C -0.0401(4) -0.6321(4) 0.9103(2)
H10A H -0.0806 -0.6927 0.9021
H11A H 0.0256 -0.6769 0.9557
H12A H -0.1211 -0.5614 0.9304
C9A C 0.1708(4) -0.6929(3) 0.7944(3)
H13A H 0.1287 -0.7514 0.7849
H14A H 0.2324 -0.6619 0.7386
H15A H 0.2312 -0.7388 0.8425
C10A C 0.1101(5) -0.4868(4) 0.8341(3)
H16A H 0.1709 -0.5311 0.8821
H17A H 0.1712 -0.4566 0.7777
H18A H 0.0298 -0.413 0.8508
P4A P -0.50559(6) -0.02541(6) 0.81005(4)
P5A P -0.33891(7) 0.06201(6) 0.74784(4)
P6A P -0.23021(7) -0.17552(6) 0.89645(4)
C11A C -0.4117(2) -0.1558(2) 0.88947(14)
C12A C -0.1983(3) -0.0443(2) 0.80940(16)
C13A C -0.4955(3) -0.2403(2) 0.96364(15)
C14A C -0.3988(3) -0.3811(3) 0.98823(19)
H19A H -0.3086 -0.386 1.0061
H20A H -0.4532 -0.4305 1.0384
H21A H -0.3726 -0.4171 0.9359
C15A C -0.6336(3) -0.2375(3) 0.9365(2)
H22A H -0.6829 -0.2924 0.9858
H23A H -0.7008 -0.1489 0.924
H24A H -0.6062 -0.2695 0.8823
C16A C -0.5381(4) -0.1898(3) 1.04870(19)
H25A H -0.449 -0.1915 1.0659
H26A H -0.6054 -0.1013 1.0362
H27A H -0.5872 -0.2447 1.0981
C17A C -0.0503(3) -0.0183(2) 0.79667(17)
C18A C 0.0804(3) -0.1359(3) 0.7797(2)
H28A H 0.0734 -0.2114 0.8295
H29A H 0.0786 -0.1517 0.723
H30A H 0.1728 -0.12 0.7758
C19A C -0.0398(3) 0.0086(3) 0.8835(2)
H31A H -0.1228 0.0839 0.8954
H32A H -0.0434 -0.0665 0.9343
H33A H 0.0533 0.0255 0.8758
C20A C -0.0378(4) 0.0990(3) 0.7185(2)
H34A H -0.1211 0.1749 0.7288
H35A H 0.055 0.1143 0.7149
H36A H -0.0392 0.0828 0.6618
N2A N 0.4143(2) 0.06828(19) 0.43076(13)
C24A C -0.4433(3) 0.0004(2) 0.41447(16)
N2A_2 N -0.5857(2) 0.06828(19) 0.43076(13)
C23A C -0.6417(3) 0.0664(2) 0.51725(16)
H39A H -0.7429 0.1124 0.5325
H40A H -0.3987 -0.0021 0.3541
Sr1_2 Sr -0.76039(2) 0.213486(19) 0.296181(13)
loop_
_geom_bond_atom_site_label_1
_geom_bond_atom_site_label_2
_geom_bond_site_symmetry_1
_geom_bond_site_symmetry_2
Sr1 P1 1_555 1_555
P1 P2 1_555 1_555
P2 Sr1 1_555 1_555
P3 Sr1 1_555 1_555
P4 Sr1 1_555 1_555
P5 Sr1 1_555 1_555
P6 Sr1 1_555 1_555
N1 Sr1 1_555 1_555
N2 C23 1_555 1_555
C1 Sr1 1_555 1_555
C2 Sr1 1_555 1_555
C3 C1 1_555 1_555
C4 C3 1_555 1_555
H1 C4 1_555 1_555
H2 C4 1_555 1_555
H3 C4 1_555 1_555
C5 C3 1_555 1_555
H4 C5 1_555 1_555
H5 C5 1_555 1_555
H6 C5 1_555 1_555
C6 C3 1_555 1_555
H7 C6 1_555 1_555
H8 C6 1_555 1_555
H9 C6 1_555 1_555
C7 C2 1_555 1_555
C8 C7 1_555 1_555
H10 C8 1_555 1_555
H11 C8 1_555 1_555
H12 C8 1_555 1_555
C9 C7 1_555 1_555
H13 C9 1_555 1_555
H14 C9 1_555 1_555
H15 C9 1_555 1_555
C10 C7 1_555 1_555
H16 C10 1_555 1_555
H17 C10 1_555 1_555
H18 C10 1_555 1_555
C11 Sr1 1_555 1_555
C12 Sr1 1_555 1_555
C13 C11 1_555 1_555
C14 C13 1_555 1_555
H19 C14 1_555 1_555
H20 C14 1_555 1_555
H21 C14 1_555 1_555
C15 C13 1_555 1_555
H22 C15 1_555 1_555
H23 C15 1_555 1_555
H24 C15 1_555 1_555
C16 C13 1_555 1_555
H25 C16 1_555 1_555
H26 C16 1_555 1_555
H27 C16 1_555 1_555
C17 C12 1_555 1_555
C18 C17 1_555 1_555
H28 C18 1_555 1_555
H29 C18 1_555 1_555
H30 C18 1_555 1_555
C19 C17 1_555 1_555
H31 C19 1_555 1_555
H32 C19 1_555 1_555
H33 C19 1_555 1_555
C20 C17 1_555 1_555
H34 C20 1_555 1_555
H35 C20 1_555 1_555
H36 C20 1_555 1_555
C21 N1 1_555 1_555
H37 C21 1_555 1_555
C22 N1 1_555 1_555
H38 C22 1_555 1_555
C23 H39 1_555 1_555
C24 N2 1_555 1_555
H40 C24 1_555 1_555
C22A C21 1_555 1_555
N1A C22A 1_555 1_555
C21A C22 1_555 1_555
H37A C21A 1_555 1_555
H38A C22A 1_555 1_555
Sr1A N2 1_555 1_555
P1A Sr1A 1_555 1_555
P2A Sr1A 1_555 1_555
P3A Sr1A 1_555 1_555
C1A Sr1A 1_555 1_555
C2A Sr1A 1_555 1_555
C3A C1A 1_555 1_555
C4A C3A 1_555 1_555
H1A C4A 1_555 1_555
H2A C4A 1_555 1_555
H3A C4A 1_555 1_555
C5A C3A 1_555 1_555
H4A C5A 1_555 1_555
H5A C5A 1_555 1_555
H6A C5A 1_555 1_555
C6A C3A 1_555 1_555
H7A C6A 1_555 1_555
H8A C6A 1_555 1_555
H9A C6A 1_555 1_555
C7A C2A 1_555 1_555
C8A C7A 1_555 1_555
H10A C8A 1_555 1_555
H11A C8A 1_555 1_555
H12A C8A 1_555 1_555
C9A C7A 1_555 1_555
H13A C9A 1_555 1_555
H14A C9A 1_555 1_555
H15A C9A 1_555 1_555
C10A C7A 1_555 1_555
H16A C10A 1_555 1_555
H17A C10A 1_555 1_555
H18A C10A 1_555 1_555
P4A Sr1A 1_555 1_555
P5A Sr1A 1_555 1_555
P6A Sr1A 1_555 1_555
C11A Sr1A 1_555 1_555
C12A Sr1A 1_555 1_555
C13A C11A 1_555 1_555
C14A C13A 1_555 1_555
H19A C14A 1_555 1_555
H20A C14A 1_555 1_555
H21A C14A 1_555 1_555
C15A C13A 1_555 1_555
H22A C15A 1_555 1_555
H23A C15A 1_555 1_555
H24A C15A 1_555 1_555
C16A C13A 1_555 1_555
H25A C16A 1_555 1_555
H26A C16A 1_555 1_555
H27A C16A 1_555 1_555
C17A C12A 1_555 1_555
C18A C17A 1_555 1_555
H28A C18A 1_555 1_555
H29A C18A 1_555 1_555
H30A C18A 1_555 1_555
C19A C17A 1_555 1_555
H31A C19A 1_555 1_555
H32A C19A 1_555 1_555
H33A C19A 1_555 1_555
C20A C17A 1_555 1_555
H34A C20A 1_555 1_555
H35A C20A 1_555 1_555
H36A C20A 1_555 1_555
N2A Sr1 1_555 1_555
C24A C23 1_555 1_555
N2A_2 C24A 1_555 1_555
C23A C24 1_555 1_555
H39A C23A 1_555 1_555
H40A C24A 1_555 1_555
Sr1_2 N2A_2 1_555 1_555
P1 C1 1_555 1_555
P2 C2 1_555 1_555
P3 C2 1_555 1_555
P3 C1 1_555 1_555
P4 P5 1_555 1_555
P4 C11 1_555 1_555
P5 C12 1_555 1_555
P6 C12 1_555 1_555
P6 C11 1_555 1_555
N1A C21A 1_555 1_555
N1A Sr1A 1_555 1_555
P1A P2A 1_555 1_555
P1A C1A 1_555 1_555
P2A C2A 1_555 1_555
P3A C2A 1_555 1_555
P3A C1A 1_555 1_555
P4A P5A 1_555 1_555
P4A C11A 1_555 1_555
P5A C12A 1_555 1_555
P6A C12A 1_555 1_555
P6A C11A 1_555 1_555
N2A_2 C23A 1_555 1_555

#END
