
#######################################################################
#
#                 Cambridge Crystallographic Data Centre
#                                CCDC 
#
#######################################################################
#
# If this CIF has been generated from an entry in the Cambridge 
# Structural Database, then it will include bibliographic, chemical, 
# crystal, experimental, refinement or atomic coordinate data resulting 
# from the CCDC's data processing and validation procedures.
#
#######################################################################

data_WOJYUR
_symmetry_cell_setting           monoclinic
_symmetry_space_group_name_H-M   'C 2/c'
_symmetry_Int_Tables_number      15
_space_group_name_Hall           '-C 2yn'
loop_
_symmetry_equiv_pos_site_id
_symmetry_equiv_pos_as_xyz
1 x,y,z
2 -x,y,1/2-z
3 1/2+x,1/2+y,z
4 1/2-x,1/2+y,1/2-z
5 -x,-y,-z
6 x,-y,1/2+z
7 1/2-x,1/2-y,-z
8 1/2+x,1/2-y,1/2+z
_cell_length_a                   19.7427(3)
_cell_length_b                   18.4330(2)
_cell_length_c                   27.8981(4)
_cell_angle_alpha                90
_cell_angle_beta                 107.3330(10)
_cell_angle_gamma                90
_cell_volume                     9691.56
loop_
_atom_site_label
_atom_site_type_symbol
_atom_site_fract_x
_atom_site_fract_y
_atom_site_fract_z
Tb1 Tb 0.496630(19) 1.018390(18) 0.413300(12)
Tb2 Tb 0.453370(19) 0.428540(19) 0.441710(12)
O1 O 0.4118(3) 0.9280(3) 0.36643(19)
O2 O 0.4908(3) 0.8896(3) 0.43520(18)
O3 O 0.5096(3) 1.1306(3) 0.4642(2)
O4 O 0.5817(13) 1.1100(15) 0.3958(8)
O5 O 0.0890(6) 0.6990(4) 0.1111(3)
O6 O 0.0869(4) 0.5897(3) 0.1401(2)
O7 O 0.4267(4) 0.5499(3) 0.4250(2)
O8 O 0.4945(4) 0.6272(3) 0.4807(2)
O9 O 0.4377(3) 0.5162(4) 0.5314(2)
O10 O 0.4672(4) 0.5487(7) 0.8577(3)
O11 O 0.3601(4) 0.5683(4) 0.8609(2)
O12 O 0.0826(3) 0.4886(3) 0.5409(2)
O13 O 0.1071(3) 0.5018(3) 0.4694(2)
O14 O 0.3571(3) 0.4527(3) 0.4739(2)
O15 O 0.3828(4) 0.3187(3) 0.4358(2)
C1 C 0.4388(4) 0.8776(4) 0.3967(3)
C2 C 0.4091(5) 0.8022(4) 0.3861(3)
C3 C 0.4385(5) 0.7450(4) 0.4187(3)
H1 H 0.4753 0.7547 0.4488
C4 C 0.4149(5) 0.6747(4) 0.4075(3)
C5 C 0.4487(5) 0.6130(4) 0.4404(3)
C6 C 0.3584(5) 0.6614(5) 0.3628(3)
H2 H 0.3421 0.6132 0.3545
C7 C 0.3270(5) 0.7181(5) 0.3312(3)
C8 C 0.3532(6) 0.7882(5) 0.3435(3)
H3 H 0.3322 0.8274 0.3220
C9 C 0.2691(6) 0.7038(5) 0.2835(4)
C10 C 0.2578(11) 0.6346(10) 0.2645(7)
H4 H 0.2857 0.5960 0.2827
C11 C 0.2067(11) 0.6200(10) 0.2194(7)
H5 H 0.2014 0.5718 0.2068
C12 C 0.1679(13) 0.7425(10) 0.2112(7)
H6 H 0.1358 0.7788 0.1939
C13 C 0.2207(12) 0.7585(10) 0.2562(7)
H7 H 0.2246 0.8066 0.2690
C14 C 0.1638(6) 0.6730(5) 0.1927(3)
C15 C 0.1079(6) 0.6542(5) 0.1450(3)
C16 C 0.3765(4) 0.4903(5) 0.5139(3)
C17 C 0.3242(4) 0.5006(4) 0.5423(3)
C18 C 0.2521(4) 0.4931(4) 0.5172(3)
H8 H 0.2370 0.4830 0.4822
C19 C 0.2025(4) 0.5003(4) 0.5431(3)
C20 C 0.1256(4) 0.4972(4) 0.5161(3)
C21 C 0.2264(4) 0.5117(4) 0.5957(3)
H9 H 0.1929 0.5151 0.6140
C22 C 0.2985(4) 0.5180(5) 0.6209(3)
C23 C 0.3467(4) 0.5141(5) 0.5936(3)
H10 H 0.3958 0.5208 0.6102
C24 C 0.3248(4) 0.5285(5) 0.6765(3)
C25 C 0.3740(5) 0.5442(6) 0.7807(3)
C26 C 0.4012(6) 0.5549(5) 0.8367(3)
C27 C 0.2741(11) 0.5339(12) 0.7034(7)
H11 H 0.2247 0.5336 0.6862
C28 C 0.2992(7) 0.5399(15) 0.7567(7)
H12 H 0.2668 0.5411 0.7760
C29 C 0.4166(8) 0.5049(11) 0.7559(4)
H13 H 0.4601 0.4832 0.7747
C30 C 0.3927(7) 0.4988(12) 0.7024(4)
H14 H 0.4210 0.4758 0.6847
O16 O 0.5210(5) 0.3296(5) 0.4230(4)
N1 N 0.6241(11) 0.2924(16) 0.4111(10)
C31 C 0.5548(12) 0.309(2) 0.3948(9)
C32 C 0.662(2) 0.303(3) 0.4661(11)
H15 H 0.6789 0.2559 0.4815
H16 H 0.6291 0.3241 0.4826
H17 H 0.7024 0.3356 0.4700
C33 C 0.6650(18) 0.2668(18) 0.3769(13)
H18 H 0.7036 0.3009 0.3782
H19 H 0.6333 0.2640 0.3424
H20 H 0.6849 0.2186 0.3876
C34 C 0.519(2) 0.284(2) 0.3368(11)
H21 H 0.4681 0.2775 0.3301
H22 H 0.5404 0.2373 0.3313
H23 H 0.5285 0.3203 0.3140
O17 O 0.5499(4) 0.9642(4) 0.3567(2)
N2 N 0.5735(12) 0.9629(13) 0.2825(7)
C35 C 0.5613(13) 0.9318(14) 0.3220(8)
C36 C 0.5989(12) 0.9215(13) 0.2455(7)
H24 H 0.6010 0.8697 0.2539
H25 H 0.6464 0.9385 0.2465
H26 H 0.5662 0.9288 0.2118
C37 C 0.5503(19) 1.0404(14) 0.2756(11)
H27 H 0.5317 1.0549 0.3030
H28 H 0.5909 1.0711 0.2758
C38 C 0.5841(19) 0.8471(15) 0.3214(14)
H29 H 0.5732 0.8213 0.3489
H30 H 0.6351 0.8439 0.3257
H31 H 0.5577 0.8251 0.2893
Tb1B Tb -0.003370(19) 0.518390(18) 0.413300(12)
Tb1C Tb 0.003370(19) 0.518390(18) 0.086700(12)
Tb1F Tb 0.003370(19) 0.481610(18) 0.586700(12)
Tb2D Tb 0.546630(19) 0.571460(19) 0.558290(12)
Tb2E Tb 0.453370(19) 0.571460(19) 0.941710(12)
O6C O 0.4131(4) 1.0897(3) 0.3599(2)
O8D O 0.5055(4) 0.3728(3) 0.5193(2)
O9D O 0.5623(3) 0.4838(4) 0.4686(2)
O10E O 0.4672(4) 0.4513(7) 0.3577(3)
O11E O 0.3601(4) 0.4317(4) 0.3609(2)
O12F O 0.4174(3) 1.0114(3) 0.4591(2)
O13B O 0.6071(3) 1.0018(3) 0.4694(2)
O18 O 0.2229(7) 0.5574(11) 0.8679(6)
H32 H 0.221(13) 0.599(6) 0.878(11)
H33 H 0.262(6) 0.538(13) 0.877(11)
O19 O 0.7414(7) 0.8180(6) 0.4246(7)
N3 N 0.6639(18) 0.7546(16) 0.4414(14)
C39 C 0.714(2) 0.7574(12) 0.4182(17)
C40 C 0.716(5) 0.679(2) 0.391(3)
H34 H 0.6770 0.6766 0.3600
H35 H 0.7108 0.6402 0.4139
H36 H 0.7614 0.6737 0.3841
C41 C 0.639(3) 0.6783(18) 0.443(2)
H37 H 0.6190 0.6599 0.4090
H38 H 0.6027 0.6771 0.4607
H39 H 0.6792 0.6478 0.4613
C42 C 0.655(4) 0.817(2) 0.460(2)
H40 H 0.7007 0.8418 0.4718
H41 H 0.6352 0.8097 0.4877
H42 H 0.6221 0.8460 0.4336
O20 O 0.6787(4) 0.1457(4) 0.4198(3)
O21 O 0.7123(4) 0.0672(4) 0.3894(3)
O22? O 0.5566(10) 1.1096(13) 0.3787(6)
C43? C 0.2302(15) 0.6404(13) 0.2797(9)
H43? H 0.2392 0.6072 0.3069
C44? C 0.1771(15) 0.6267(12) 0.2345(9)
H44? H 0.1488 0.5843 0.2321
C45? C 0.2050(12) 0.7353(11) 0.1997(8)
H45? H 0.1964 0.7691 0.1728
C46? C 0.2581(13) 0.7510(11) 0.2439(7)
H46? H 0.2863 0.7935 0.2465
C47? C 0.2839(11) 0.5563(14) 0.7063(8)
H47? H 0.2363 0.5707 0.6902
C48? C 0.3085(14) 0.5630(14) 0.7541(9)
H48? H 0.2780 0.5824 0.7716
C49? C 0.4141(11) 0.5649(13) 0.7528(7)
H49? H 0.4593 0.5854 0.7687
C50? C 0.3922(10) 0.5575(12) 0.7008(6)
H50? H 0.4225 0.5720 0.6818
N4? N 0.577(3) 0.289(4) 0.369(2)
C51? C 0.5768(17) 0.317(5) 0.413(2)
C52? C 0.516(4) 0.253(5) 0.330(3)
H51? H 0.4710 0.2688 0.3339
H52? H 0.5206 0.2001 0.3339
H53? H 0.5181 0.2661 0.2961
C53? C 0.650(3) 0.281(6) 0.363(3)
H54? H 0.6821 0.3151 0.3853
H55? H 0.6476 0.2915 0.3280
H56? H 0.6664 0.2313 0.3713
C54? C 0.646(5) 0.316(6) 0.463(3)
H57? H 0.6320 0.3336 0.4922
H58? H 0.6831 0.3469 0.4580
H59? H 0.6634 0.2660 0.4698
O23? O 0.5455(11) 0.8239(12) 0.3326(7)
C55? C 0.5617(15) 0.7921(10) 0.2991(8)
N5? N 0.5393(12) 0.7280(10) 0.2776(8)
C56? C 0.481(2) 0.6893(18) 0.2906(16)
H60? H 0.4698 0.7169 0.3164
H61? H 0.4381 0.6795 0.2643
H62? H 0.5022 0.6450 0.3045
C57? C 0.567(2) 0.699(3) 0.2372(15)
H63? H 0.5987 0.7288 0.2261
H64? H 0.5902 0.6545 0.2498
H65? H 0.5260 0.6890 0.2095
C58? C 0.6186(14) 0.8353(14) 0.2778(10)
H66? H 0.6302 0.8794 0.2961
H67? H 0.6606 0.8078 0.2818
H68? H 0.5973 0.8456 0.2428
N6? N 0.6736(8) 0.7206(7) 0.4180(6)
C59? C 0.6933(9) 0.7871(8) 0.4360(8)
C60? C 0.6555(16) 0.8161(11) 0.4769(9)
H69? H 0.6132 0.7869 0.4746
H70? H 0.6418 0.8670 0.4699
H71? H 0.6888 0.8119 0.5107
C61? C 0.6121(13) 0.6838(11) 0.4269(10)
H72? H 0.6057 0.6362 0.4105
H73? H 0.5694 0.7132 0.4129
H74? H 0.6204 0.6776 0.4631
C62? C 0.713(2) 0.6922(14) 0.3852(14)
H75? H 0.6953 0.6437 0.3735
H76? H 0.7635 0.6893 0.4038
H77? H 0.7064 0.7245 0.3563
H78? H 0.5132 1.0459 0.2435
loop_
_geom_bond_atom_site_label_1
_geom_bond_atom_site_label_2
_geom_bond_site_symmetry_1
_geom_bond_site_symmetry_2
Tb1 O1 1_555 1_555
Tb2 O7 1_555 1_555
O1 C1 1_555 1_555
O2 Tb1 1_555 1_555
O3 Tb1 1_555 1_555
O4 Tb1 1_555 1_555
O5 C15 1_555 1_555
O6 C15 1_555 1_555
O7 C5 1_555 1_555
O8 C5 1_555 1_555
O9 C16 1_555 1_555
O10 C26 1_555 1_555
O11 C26 1_555 1_555
O12 C20 1_555 1_555
O13 C20 1_555 1_555
O14 Tb2 1_555 1_555
O15 Tb2 1_555 1_555
C1 O2 1_555 1_555
C2 C1 1_555 1_555
C3 C2 1_555 1_555
H1 C3 1_555 1_555
C4 C3 1_555 1_555
C5 C4 1_555 1_555
C6 C4 1_555 1_555
H2 C6 1_555 1_555
C7 C6 1_555 1_555
C8 C2 1_555 1_555
H3 C8 1_555 1_555
C9 C7 1_555 1_555
C10 C9 1_555 1_555
H4 C10 1_555 1_555
C11 C10 1_555 1_555
H5 C11 1_555 1_555
C12 H6 1_555 1_555
C13 C9 1_555 1_555
H7 C13 1_555 1_555
C14 C11 1_555 1_555
C15 C14 1_555 1_555
C16 O14 1_555 1_555
C17 C16 1_555 1_555
C18 C17 1_555 1_555
H8 C18 1_555 1_555
C19 C18 1_555 1_555
C20 C19 1_555 1_555
C21 C19 1_555 1_555
H9 C21 1_555 1_555
C22 C21 1_555 1_555
C23 C17 1_555 1_555
H10 C23 1_555 1_555
C24 C22 1_555 1_555
C25 C26 1_555 1_555
C27 C24 1_555 1_555
H11 C27 1_555 1_555
C28 C25 1_555 1_555
H12 C28 1_555 1_555
C29 C25 1_555 1_555
H13 C29 1_555 1_555
C30 C24 1_555 1_555
H14 C30 1_555 1_555
O16 Tb2 1_555 1_555
N1 C31 1_555 1_555
C31 O16 1_555 1_555
C32 N1 1_555 1_555
H15 C32 1_555 1_555
H16 C32 1_555 1_555
H17 C32 1_555 1_555
C33 N1 1_555 1_555
H18 C33 1_555 1_555
H19 C33 1_555 1_555
H20 C33 1_555 1_555
C34 C31 1_555 1_555
H21 C34 1_555 1_555
H22 C34 1_555 1_555
H23 C34 1_555 1_555
O17 Tb1 1_555 1_555
N2 C35 1_555 1_555
C35 O17 1_555 1_555
C36 N2 1_555 1_555
H24 C36 1_555 1_555
H25 C36 1_555 1_555
H26 C36 1_555 1_555
C37 N2 1_555 1_555
H27 C37 1_555 1_555
H28 C37 1_555 1_555
C38 C35 1_555 1_555
H29 C38 1_555 1_555
H30 C38 1_555 1_555
H31 C38 1_555 1_555
O18 H32 1_555 1_555
H33 O18 1_555 1_555
O19 C39 1_555 1_555
N3 C39 1_555 1_555
C39 C40 1_555 1_555
C40 H34 1_555 1_555
H35 C40 1_555 1_555
H36 C40 1_555 1_555
C41 N3 1_555 1_555
H37 C41 1_555 1_555
H38 C41 1_555 1_555
H39 C41 1_555 1_555
C42 N3 1_555 1_555
H40 C42 1_555 1_555
H41 C42 1_555 1_555
H42 C42 1_555 1_555
Tb1B O13 1_555 1_555
Tb1C O6 1_555 1_555
Tb1F O12 1_555 1_555
Tb2D O8 1_555 1_555
Tb2E O10 1_555 1_555
O6C Tb1 1_555 1_555
O8D Tb2 1_555 1_555
O9D Tb2 1_555 1_555
O10E Tb2 1_555 1_555
O11E Tb2 1_555 1_555
O12F Tb1 1_555 1_555
O13B Tb1 1_555 1_555
O9 Tb2D 1_555 1_555
O11 Tb2E 1_555 1_555
C7 C8 1_555 1_555
C12 C13 1_555 1_555
C12 C14 1_555 1_555
C22 C23 1_555 1_555
C27 C28 1_555 1_555
C29 C30 1_555 1_555

#END
