
#######################################################################
#
#                 Cambridge Crystallographic Data Centre
#                                CCDC 
#
#######################################################################
#
# If this CIF has been generated from an entry in the Cambridge 
# Structural Database, then it will include bibliographic, chemical, 
# crystal, experimental, refinement or atomic coordinate data resulting 
# from the CCDC's data processing and validation procedures.
#
#######################################################################

data_WOJYAW
_symmetry_cell_setting           triclinic
_symmetry_space_group_name_H-M   'P -1'
_symmetry_Int_Tables_number      2
_space_group_name_Hall           '-P 1'
loop_
_symmetry_equiv_pos_site_id
_symmetry_equiv_pos_as_xyz
1 x,y,z
2 -x,-y,-z
_cell_length_a                   12.524(4)
_cell_length_b                   15.811(5)
_cell_length_c                   17.099(5)
_cell_angle_alpha                100.619(3)
_cell_angle_beta                 107.124(2)
_cell_angle_gamma                105.5650(10)
_cell_volume                     2986.94
loop_
_atom_site_label
_atom_site_type_symbol
_atom_site_fract_x
_atom_site_fract_y
_atom_site_fract_z
W1 W 0.77177(3) 1.19000(2) 0.923884(17)
W2 W 0.18540(3) 1.26671(2) 0.494282(17)
Cu1 Cu 0.91159(8) 1.27884(6) 1.08427(5)
Cu2 Cu 0.62335(8) 1.09993(6) 0.76714(5)
Cu3 Cu 0.30526(8) 1.18553(6) 0.59098(5)
Cu4 Cu 1.05530(8) 1.34139(6) 1.39953(5)
S1 S 0.94264(18) 1.17473(14) 0.99472(12)
S2 S 0.74362(17) 1.29699(14) 1.01127(11)
S3 S 0.62186(18) 1.05989(14) 0.88547(12)
S4 S 0.77766(17) 1.22881(14) 0.80627(11)
S5 S 0.25393(19) 1.15821(15) 0.44947(12)
S6 S 0.24397(17) 1.29960(13) 0.63541(11)
S7 S 0.98818(16) 1.21565(14) 1.43684(12)
S8 S 1.25342(17) 1.39317(14) 1.45891(12)
S9 S 0.39746(17) 1.12281(14) 0.68073(11)
S10 S 1.01913(16) 1.34152(13) 1.21957(11)
N1 N 0.5205(5) 1.0179(4) 0.6539(3)
N2 N 0.9553(5) 1.4043(4) 1.3456(3)
C1 C 0.4175(6) 1.0305(5) 0.6193(4)
C2 C 0.3358(7) 0.9727(5) 0.5407(4)
H1 H 0.2630 0.9804 0.5178
C3 C 0.3622(7) 0.9038(5) 0.4964(5)
H2 H 0.3087 0.8659 0.4429
C4 C 0.4682(7) 0.8921(5) 0.5324(5)
H3 H 0.4879 0.8459 0.5042
C5 C 0.5453(7) 0.9504(5) 0.6114(5)
H4 H 0.6174 0.9424 0.6362
C6 C 0.9438(6) 1.4037(5) 1.2640(4)
C7 C 0.8761(7) 1.4503(6) 1.2219(4)
H5 H 0.8699 1.4511 1.1665
C8 C 0.8186(8) 1.4952(6) 1.2629(5)
H6 H 0.7742 1.5270 1.2356
C9 C 0.8273(7) 1.4924(6) 1.3442(5)
H7 H 0.7873 1.5211 1.3721
C10 C 0.8949(7) 1.4475(5) 1.3834(4)
H8 H 0.9005 1.4461 1.4386
W2_2 W 1.18540(3) 1.26671(2) 1.494282(17)
S7_2 S -0.01182(16) 1.21565(14) 0.43684(12)
S8_2 S 0.25342(17) 1.39317(14) 0.45891(12)
N3 N 0.3432(5) 1.5305(4) 0.2163(4)
C11 C 0.2295(6) 1.5082(5) 0.1396(4)
H9 H 0.1621 1.4820 0.1552
H10 H 0.2247 1.5652 0.1281
C12 C 0.2177(7) 1.4436(6) 0.0586(4)
H11 H 0.2123 1.3837 0.0668
H12 H 0.2876 1.4660 0.0444
C13 C 0.1072(7) 1.4355(6) -0.0142(5)
H13 H 0.0377 1.4116 0.0000
H14 H 0.1118 1.4960 -0.0202
C14 C 0.0920(8) 1.3736(7) -0.0988(5)
H15 H 0.0210 1.3708 -0.1422
H16 H 0.0859 1.3132 -0.0936
H17 H 0.1595 1.3977 -0.1141
C15 C 0.3450(7) 1.4444(5) 0.2431(4)
H18 H 0.3501 1.4011 0.1973
H19 H 0.2698 1.4172 0.2492
C16 C 0.4449(7) 1.4562(5) 0.3255(5)
H20 H 0.5212 1.4881 0.3232
H21 H 0.4353 1.4922 0.3738
C17 C 0.4399(7) 1.3618(5) 0.3359(5)
H22 H 0.3609 1.3288 0.3330
H23 H 0.4538 1.3279 0.2887
C18 C 0.5301(8) 1.3655(6) 0.4189(5)
H24 H 0.5232 1.3043 0.4217
H25 H 0.5155 1.3974 0.4659
H26 H 0.6087 1.3970 0.4217
C19 C 0.3485(6) 1.6062(5) 0.2880(4)
H27 H 0.3463 1.6592 0.2676
H28 H 0.4240 1.6238 0.3347
C20 C 0.2481(7) 1.5804(5) 0.3224(5)
H29 H 0.1717 1.5601 0.2760
H30 H 0.2528 1.5304 0.3472
C21 C 0.2588(7) 1.6630(5) 0.3897(4)
H31 H 0.3377 1.6854 0.4335
H32 H 0.2501 1.7113 0.3634
C22 C 0.1678(8) 1.6426(6) 0.4312(5)
H33 H 0.1779 1.6975 0.4720
H34 H 0.1781 1.5968 0.4597
H35 H 0.0893 1.6205 0.3884
C23 C 0.4539(6) 1.5671(5) 0.1944(5)
H36 H 0.5236 1.5878 0.2463
H37 H 0.4598 1.5170 0.1556
C24 C 0.4559(7) 1.6455(6) 0.1540(5)
H38 H 0.3896 1.6239 0.1000
H39 H 0.4452 1.6944 0.1910
C25 C 0.5679(8) 1.6828(7) 0.1391(6)
H40 H 0.5653 1.7349 0.1172
H41 H 0.6340 1.7047 0.1933
C26 C 0.5905(15) 1.6162(10) 0.0789(11)
H42 H 0.6638 1.6452 0.0722
H43 H 0.5264 1.5950 0.0246
H44 H 0.5959 1.5652 0.1009
N4 N -0.1609(5) 1.0013(4) 0.1798(4)
C27 C -0.1161(7) 0.9803(5) 0.2641(5)
H45 H -0.0532 1.0350 0.3047
H46 H -0.1806 0.9672 0.2854
C28 C -0.0690(7) 0.9016(6) 0.2618(5)
H47 H -0.1344 0.8445 0.2302
H48 H -0.0135 0.9087 0.2321
C29 C -0.0073(7) 0.8972(6) 0.3505(5)
H49 H -0.0632 0.8896 0.3799
H50 H 0.0574 0.9547 0.3822
C30 C 0.0423(8) 0.8186(7) 0.3496(6)
H51 H 0.0809 0.8188 0.4072
H52 H 0.0986 0.8262 0.3214
H53 H -0.0217 0.7613 0.3197
C31 C -0.1829(7) 1.0919(5) 0.1969(5)
H54 H -0.1088 1.1389 0.2359
H55 H -0.2040 1.1078 0.1436
C32 C -0.2779(7) 1.0946(5) 0.2336(5)
H56 H -0.2569 1.0821 0.2885
H57 H -0.3532 1.0482 0.1957
C33 C -0.2897(7) 1.1888(6) 0.2442(5)
H58 H -0.3139 1.1994 0.1886
H59 H -0.2126 1.2349 0.2791
C34 C -0.3804(8) 1.1993(6) 0.2859(6)
H60 H -0.3847 1.2597 0.2912
H61 H -0.3560 1.1901 0.3415
H62 H -0.4572 1.1547 0.2511
C35 C -0.0696(7) 1.0102(5) 0.1365(5)
H63 H -0.0606 0.9510 0.1210
H64 H -0.1008 1.0255 0.0840
C36 C 0.0516(7) 1.0806(6) 0.1889(5)
H65 H 0.0768 1.0744 0.2462
H66 H 0.0476 1.1416 0.1928
C37 C 0.1417(7) 1.0681(6) 0.1485(6)
H67 H 0.1453 1.0071 0.1450
H68 H 0.1148 1.0729 0.0907
C38 C 0.2611(8) 1.1353(7) 0.1958(6)
H69 H 0.3139 1.1240 0.1676
H70 H 0.2891 1.1301 0.2527
H71 H 0.2587 1.1958 0.1982
C39 C -0.2742(7) 0.9233(5) 0.1229(5)
H72 H -0.3277 0.9135 0.1540
H73 H -0.2551 0.8679 0.1106
C40 C -0.3387(7) 0.9379(6) 0.0389(5)
H74 H -0.2850 0.9495 0.0080
H75 H -0.3615 0.9915 0.0505
C41 C -0.4500(8) 0.8548(7) -0.0171(6)
H76 H -0.4973 0.8386 0.0173
H77 H -0.4971 0.8728 -0.0628
C42 C -0.4284(10) 0.7716(7) -0.0557(6)
H78 H -0.5031 0.7237 -0.0889
H79 H -0.3835 0.7519 -0.0112
H80 H -0.3844 0.7858 -0.0919
loop_
_geom_bond_atom_site_label_1
_geom_bond_atom_site_label_2
_geom_bond_site_symmetry_1
_geom_bond_site_symmetry_2
W1 S1 1_555 1_555
W2 S5 1_555 1_555
Cu1 S1 1_555 1_555
Cu2 S3 1_555 1_555
Cu3 S5 1_555 1_555
Cu4 S7 1_555 1_555
S2 W1 1_555 1_555
S3 W1 1_555 1_555
S4 W1 1_555 1_555
S6 W2 1_555 1_555
S7 W2_2 1_555 1_555
S8 Cu4 1_555 1_555
S9 Cu3 1_555 1_555
S10 Cu1 1_555 1_555
N1 Cu2 1_555 1_555
N2 Cu4 1_555 1_555
N3 C11 1_555 1_555
N4 C27 1_555 1_555
C1 S9 1_555 1_555
C2 C1 1_555 1_555
H1 C2 1_555 1_555
C3 C2 1_555 1_555
H2 C3 1_555 1_555
C4 C3 1_555 1_555
H3 C4 1_555 1_555
C5 N1 1_555 1_555
H4 C5 1_555 1_555
C6 S10 1_555 1_555
C7 C6 1_555 1_555
H5 C7 1_555 1_555
C8 C7 1_555 1_555
H6 C8 1_555 1_555
C9 C8 1_555 1_555
H7 C9 1_555 1_555
C10 N2 1_555 1_555
H8 C10 1_555 1_555
C11 H9 1_555 1_555
H10 C11 1_555 1_555
C12 C11 1_555 1_555
H11 C12 1_555 1_555
H12 C12 1_555 1_555
C13 C12 1_555 1_555
H13 C13 1_555 1_555
H14 C13 1_555 1_555
C14 C13 1_555 1_555
H15 C14 1_555 1_555
H16 C14 1_555 1_555
H17 C14 1_555 1_555
C15 N3 1_555 1_555
H18 C15 1_555 1_555
H19 C15 1_555 1_555
C16 C15 1_555 1_555
H20 C16 1_555 1_555
H21 C16 1_555 1_555
C17 C16 1_555 1_555
H22 C17 1_555 1_555
H23 C17 1_555 1_555
C18 C17 1_555 1_555
H24 C18 1_555 1_555
H25 C18 1_555 1_555
H26 C18 1_555 1_555
C19 N3 1_555 1_555
H27 C19 1_555 1_555
H28 C19 1_555 1_555
C20 C19 1_555 1_555
H29 C20 1_555 1_555
H30 C20 1_555 1_555
C21 C20 1_555 1_555
H31 C21 1_555 1_555
H32 C21 1_555 1_555
C22 C21 1_555 1_555
H33 C22 1_555 1_555
H34 C22 1_555 1_555
H35 C22 1_555 1_555
C23 N3 1_555 1_555
H36 C23 1_555 1_555
H37 C23 1_555 1_555
C24 C23 1_555 1_555
H38 C24 1_555 1_555
H39 C24 1_555 1_555
C25 C24 1_555 1_555
H40 C25 1_555 1_555
H41 C25 1_555 1_555
C26 C25 1_555 1_555
H42 C26 1_555 1_555
H43 C26 1_555 1_555
H44 C26 1_555 1_555
C27 H45 1_555 1_555
H46 C27 1_555 1_555
C28 C27 1_555 1_555
H47 C28 1_555 1_555
H48 C28 1_555 1_555
C29 C28 1_555 1_555
H49 C29 1_555 1_555
H50 C29 1_555 1_555
C30 C29 1_555 1_555
H51 C30 1_555 1_555
H52 C30 1_555 1_555
H53 C30 1_555 1_555
C31 N4 1_555 1_555
H54 C31 1_555 1_555
H55 C31 1_555 1_555
C32 C31 1_555 1_555
H56 C32 1_555 1_555
H57 C32 1_555 1_555
C33 C32 1_555 1_555
H58 C33 1_555 1_555
H59 C33 1_555 1_555
C34 C33 1_555 1_555
H60 C34 1_555 1_555
H61 C34 1_555 1_555
H62 C34 1_555 1_555
C35 N4 1_555 1_555
H63 C35 1_555 1_555
H64 C35 1_555 1_555
C36 C35 1_555 1_555
H65 C36 1_555 1_555
H66 C36 1_555 1_555
C37 C36 1_555 1_555
H67 C37 1_555 1_555
H68 C37 1_555 1_555
C38 C37 1_555 1_555
H69 C38 1_555 1_555
H70 C38 1_555 1_555
H71 C38 1_555 1_555
C39 N4 1_555 1_555
H72 C39 1_555 1_555
H73 C39 1_555 1_555
C40 C39 1_555 1_555
H74 C40 1_555 1_555
H75 C40 1_555 1_555
C41 C40 1_555 1_555
H76 C41 1_555 1_555
H77 C41 1_555 1_555
C42 C41 1_555 1_555
H78 C42 1_555 1_555
H79 C42 1_555 1_555
H80 C42 1_555 1_555
W2_2 S8 1_555 1_555
S7_2 W2 1_555 1_555
S8_2 W2 1_555 1_555
Cu1 S2 1_555 1_555
Cu2 S4 1_555 1_555
Cu3 S6 1_555 1_555
N1 C1 1_555 1_555
N2 C6 1_555 1_555
C4 C5 1_555 1_555
C9 C10 1_555 1_555

#END
