
#######################################################################
#
#                 Cambridge Crystallographic Data Centre
#                                CCDC 
#
#######################################################################
#
# If this CIF has been generated from an entry in the Cambridge 
# Structural Database, then it will include bibliographic, chemical, 
# crystal, experimental, refinement or atomic coordinate data resulting 
# from the CCDC's data processing and validation procedures.
#
#######################################################################

data_WOJYOK
_symmetry_cell_setting           monoclinic
_symmetry_space_group_name_H-M   'P 21/n'
_symmetry_Int_Tables_number      14
_space_group_name_Hall           '-P 2yn'
loop_
_symmetry_equiv_pos_site_id
_symmetry_equiv_pos_as_xyz
1 x,y,z
2 1/2-x,1/2+y,1/2-z
3 -x,-y,-z
4 1/2+x,1/2-y,1/2+z
_cell_length_a                   11.987(4)
_cell_length_b                   20.931(7)
_cell_length_c                   12.757(5)
_cell_angle_alpha                90
_cell_angle_beta                 94.583(4)
_cell_angle_gamma                90
_cell_volume                     3190.5
loop_
_atom_site_label
_atom_site_type_symbol
_atom_site_fract_x
_atom_site_fract_y
_atom_site_fract_z
Mo1 Mo 0.83574(4) 0.20807(3) 0.05922(4)
Cu1 Cu 0.71997(6) 0.26901(4) 0.19171(6)
Cu2 Cu 0.93748(7) 0.14427(4) -0.08001(7)
S1 S 0.72704(14) 0.16307(8) 0.17210(14)
S2 S 0.83537(15) 0.31261(8) 0.08580(14)
S3 S 0.76774(14) 0.18602(9) -0.10400(14)
S4 S 1.00753(14) 0.16899(8) 0.08187(13)
S5 S 1.09981(13) 0.19291(8) -0.20617(13)
N1 N 1.1612(4) 0.0777(2) -0.2782(4)
N2 N 1.0093(4) 0.0841(2) -0.1692(4)
C1 C 1.0921(5) 0.1095(3) -0.2202(5)
C2 C 1.1456(6) 0.0139(3) -0.2855(5)
C3 C 1.0618(6) -0.0163(3) -0.2343(6)
H1 H 1.0527 -0.0604 -0.2385
C4 C 0.9928(5) 0.0201(3) -0.1774(5)
C5 C 1.2242(7) -0.0207(4) -0.3505(6)
H2 H 1.2746 0.0093 -0.3784
H3 H 1.2661 -0.0514 -0.3076
H4 H 1.1824 -0.0422 -0.4073
C6 C 0.8966(6) -0.0068(3) -0.1228(7)
H5 H 0.8597 0.0271 -0.0885
H6 H 0.8445 -0.0269 -0.1735
H7 H 0.9241 -0.0377 -0.0715
Cu1C Cu 1.21997(6) 0.23099(4) -0.30829(6)
S5C S 0.59981(13) 0.30709(8) 0.29383(13)
N3 N 0.8824(4) 0.2777(3) 0.5298(4)
C7 C 0.7750(5) 0.2378(3) 0.5225(6)
H8 H 0.7143 0.2649 0.5419
H9 H 0.7583 0.2256 0.4496
C8 C 0.7755(6) 0.1781(4) 0.5888(6)
H10 H 0.7938 0.1889 0.6621
H11 H 0.8319 0.1487 0.5672
C9 C 0.6608(8) 0.1463(4) 0.5761(8)
H12 H 0.6050 0.1760 0.5980
H13 H 0.6426 0.1365 0.5025
C10 C 0.6560(10) 0.0857(5) 0.6397(9)
H14 H 0.5824 0.0675 0.6292
H15 H 0.6724 0.0953 0.7129
H16 H 0.7100 0.0558 0.6174
C11 C 0.9083(5) 0.3022(3) 0.6408(5)
H17 H 0.9156 0.2656 0.6876
H18 H 0.9804 0.3234 0.6441
C12 C 0.8253(6) 0.3474(4) 0.6822(6)
H19 H 0.7525 0.3269 0.6794
H20 H 0.8188 0.3849 0.6375
C13 C 0.8584(7) 0.3681(4) 0.7949(6)
H21 H 0.7975 0.3929 0.8200
H22 H 0.8677 0.3303 0.8385
C14 C 0.9631(8) 0.4069(5) 0.8091(8)
H23 H 0.9785 0.4169 0.8823
H24 H 0.9537 0.4457 0.7693
H25 H 1.0243 0.3828 0.7850
C15 C 0.8641(5) 0.3326(3) 0.4532(6)
H26 H 0.8455 0.3150 0.3837
H27 H 0.7997 0.3568 0.4721
C16 C 0.9604(6) 0.3785(4) 0.4464(6)
H28 H 1.0223 0.3568 0.4169
H29 H 0.9859 0.3933 0.5163
C17 C 0.9233(7) 0.4352(4) 0.3774(6)
H30 H 0.8861 0.4193 0.3122
H31 H 0.9890 0.4587 0.3600
C18 C 0.8443(7) 0.4808(4) 0.4287(7)
H32 H 0.8236 0.5151 0.3811
H33 H 0.8814 0.4979 0.4921
H34 H 0.7784 0.4581 0.4453
C19 C 0.9818(5) 0.2369(3) 0.5047(5)
H35 H 0.9919 0.2036 0.5576
H36 H 1.0483 0.2635 0.5110
C20 C 0.9738(6) 0.2052(3) 0.3956(5)
H37 H 0.9061 0.1797 0.3870
H38 H 0.9693 0.2379 0.3417
C21 C 1.0735(6) 0.1633(3) 0.3823(5)
H39 H 1.1412 0.1880 0.3984
H40 H 1.0722 0.1499 0.3094
C22 C 1.0770(7) 0.1036(4) 0.4530(6)
H41 H 1.1420 0.0787 0.4411
H42 H 1.0109 0.0785 0.4365
H43 H 1.0802 0.1164 0.5254
loop_
_geom_bond_atom_site_label_1
_geom_bond_atom_site_label_2
_geom_bond_site_symmetry_1
_geom_bond_site_symmetry_2
Mo1 S1 1_555 1_555
Cu1 S1 1_555 1_555
Cu2 S3 1_555 1_555
S2 Mo1 1_555 1_555
S3 Mo1 1_555 1_555
S4 Mo1 1_555 1_555
S5 C1 1_555 1_555
N1 C1 1_555 1_555
N2 Cu2 1_555 1_555
N3 C7 1_555 1_555
C1 N2 1_555 1_555
C2 N1 1_555 1_555
C3 C2 1_555 1_555
H1 C3 1_555 1_555
C4 N2 1_555 1_555
C5 C2 1_555 1_555
H2 C5 1_555 1_555
H3 C5 1_555 1_555
H4 C5 1_555 1_555
C6 C4 1_555 1_555
H5 C6 1_555 1_555
H6 C6 1_555 1_555
H7 C6 1_555 1_555
C7 H8 1_555 1_555
H9 C7 1_555 1_555
C8 C7 1_555 1_555
H10 C8 1_555 1_555
H11 C8 1_555 1_555
C9 C8 1_555 1_555
H12 C9 1_555 1_555
H13 C9 1_555 1_555
C10 C9 1_555 1_555
H14 C10 1_555 1_555
H15 C10 1_555 1_555
H16 C10 1_555 1_555
C11 N3 1_555 1_555
H17 C11 1_555 1_555
H18 C11 1_555 1_555
C12 C11 1_555 1_555
H19 C12 1_555 1_555
H20 C12 1_555 1_555
C13 C12 1_555 1_555
H21 C13 1_555 1_555
H22 C13 1_555 1_555
C14 C13 1_555 1_555
H23 C14 1_555 1_555
H24 C14 1_555 1_555
H25 C14 1_555 1_555
C15 N3 1_555 1_555
H26 C15 1_555 1_555
H27 C15 1_555 1_555
C16 C15 1_555 1_555
H28 C16 1_555 1_555
H29 C16 1_555 1_555
C17 C16 1_555 1_555
H30 C17 1_555 1_555
H31 C17 1_555 1_555
C18 C17 1_555 1_555
H32 C18 1_555 1_555
H33 C18 1_555 1_555
H34 C18 1_555 1_555
C19 N3 1_555 1_555
H35 C19 1_555 1_555
H36 C19 1_555 1_555
C20 C19 1_555 1_555
H37 C20 1_555 1_555
H38 C20 1_555 1_555
C21 C20 1_555 1_555
H39 C21 1_555 1_555
H40 C21 1_555 1_555
C22 C21 1_555 1_555
H41 C22 1_555 1_555
H42 C22 1_555 1_555
H43 C22 1_555 1_555
Cu1C S5 1_555 1_555
S5C Cu1 1_555 1_555
Cu1 S2 1_555 1_555
Cu2 S4 1_555 1_555
C3 C4 1_555 1_555

#END
