
#######################################################################
#
#                 Cambridge Crystallographic Data Centre
#                                CCDC 
#
#######################################################################
#
# If this CIF has been generated from an entry in the Cambridge 
# Structural Database, then it will include bibliographic, chemical, 
# crystal, experimental, refinement or atomic coordinate data resulting 
# from the CCDC's data processing and validation procedures.
#
#######################################################################

data_WOJYIE
_symmetry_cell_setting           monoclinic
_symmetry_space_group_name_H-M   'P 21/n'
_symmetry_Int_Tables_number      14
_space_group_name_Hall           '-P 2yn'
loop_
_symmetry_equiv_pos_site_id
_symmetry_equiv_pos_as_xyz
1 x,y,z
2 1/2-x,1/2+y,1/2-z
3 -x,-y,-z
4 1/2+x,1/2-y,1/2+z
_cell_length_a                   12.006(3)
_cell_length_b                   20.976(4)
_cell_length_c                   12.765(3)
_cell_angle_alpha                90
_cell_angle_beta                 94.699(2)
_cell_angle_gamma                90
_cell_volume                     3203.91
loop_
_atom_site_label
_atom_site_type_symbol
_atom_site_fract_x
_atom_site_fract_y
_atom_site_fract_z
W1 W 0.335533(15) 0.207989(9) 0.059586(15)
Cu1 Cu 0.43708(5) 0.14409(3) -0.08064(5)
Cu2 Cu 0.21927(5) 0.26926(3) 0.19233(5)
S1 S 0.50716(10) 0.16906(6) 0.08249(10)
S2 S 0.26696(10) 0.18609(7) -0.10353(10)
S3 S 0.33611(11) 0.31220(6) 0.08616(11)
S4 S 0.22766(10) 0.16308(6) 0.17260(10)
S5 S 0.59910(10) 0.19254(6) -0.20601(9)
N1 N 0.5087(3) 0.08355(19) -0.1687(3)
N2 N 0.6602(3) 0.0780(2) -0.2787(3)
C1 C 0.5914(4) 0.1098(2) -0.2209(3)
C2 C 0.4924(4) 0.0202(2) -0.1781(4)
C3 C 0.5616(4) -0.0161(3) -0.2357(4)
H1 H 0.5523 -0.0600 -0.2411
C4 C 0.6457(4) 0.0147(2) -0.2855(4)
C5 C 0.3962(4) -0.0065(3) -0.1238(5)
H2 H 0.3597 0.0273 -0.0893
H3 H 0.4234 -0.0376 -0.0728
H4 H 0.3439 -0.0263 -0.1748
C6 C 0.7234(5) -0.0206(3) -0.3502(5)
H5 H 0.7752 0.0087 -0.3774
H6 H 0.6813 -0.0415 -0.4076
H7 H 0.7638 -0.0519 -0.3074
Cu2C Cu 0.71927(5) 0.23074(3) -0.30767(5)
S5C S 0.09910(10) 0.30746(6) 0.29399(9)
N3 N 0.8823(3) 0.2222(2) 0.0307(3)
C7 C 0.8636(4) 0.1672(3) -0.0466(4)
H8 H 0.7990 0.1432 -0.0279
H9 H 0.8454 0.1849 -0.1161
C8 C 0.9603(4) 0.1213(3) -0.0524(5)
H10 H 0.9850 0.1064 0.0176
H11 H 1.0224 0.1429 -0.0811
C9 C 0.9237(5) 0.0644(3) -0.1221(5)
H12 H 0.8871 0.0801 -0.1876
H13 H 0.9894 0.0408 -0.1386
C10 C 0.8443(6) 0.0196(3) -0.0707(5)
H14 H 0.8232 -0.0147 -0.1180
H15 H 0.7788 0.0426 -0.0545
H16 H 0.8811 0.0026 -0.0071
C11 C 0.9086(4) 0.1981(2) 0.1421(4)
H17 H 0.9804 0.1767 0.1455
H18 H 0.9163 0.2347 0.1886
C12 C 0.8246(5) 0.1533(3) 0.1835(5)
H19 H 0.8172 0.1159 0.1388
H20 H 0.7523 0.1741 0.1813
C13 C 0.8593(5) 0.1328(3) 0.2956(5)
H21 H 0.8708 0.1708 0.3386
H22 H 0.7982 0.1091 0.3221
C14 C 0.9626(6) 0.0929(4) 0.3088(6)
H23 H 0.9797 0.0835 0.3820
H24 H 1.0238 0.1157 0.2825
H25 H 0.9506 0.0538 0.2704
C15 C 0.7753(4) 0.2614(3) 0.0224(4)
H26 H 0.7588 0.2734 -0.0507
H27 H 0.7148 0.2343 0.0417
C16 C 0.7753(5) 0.3215(3) 0.0884(4)
H28 H 0.7942 0.3109 0.1617
H29 H 0.8312 0.3509 0.0664
C17 C 0.6615(6) 0.3527(3) 0.0763(6)
H30 H 0.6420 0.3614 0.0025
H31 H 0.6065 0.3232 0.0999
C18 C 0.6560(7) 0.4141(4) 0.1373(6)
H32 H 0.5820 0.4316 0.1267
H33 H 0.7089 0.4439 0.1133
H34 H 0.6735 0.4057 0.2108
C19 C 0.9813(4) 0.2628(3) 0.0046(4)
H35 H 1.0477 0.2363 0.0107
H36 H 0.9918 0.2962 0.0569
C20 C 0.9725(4) 0.2936(3) -0.1035(4)
H37 H 0.9042 0.3183 -0.1128
H38 H 0.9695 0.2607 -0.1571
C21 C 1.0729(4) 0.3370(3) -0.1159(4)
H39 H 1.1409 0.3126 -0.1005
H40 H 1.0712 0.3508 -0.1886
C22 C 1.0772(5) 0.3956(3) -0.0457(4)
H41 H 1.1424 0.4203 -0.0574
H42 H 1.0804 0.3826 0.0266
H43 H 1.0116 0.4210 -0.0620
loop_
_geom_bond_atom_site_label_1
_geom_bond_atom_site_label_2
_geom_bond_site_symmetry_1
_geom_bond_site_symmetry_2
W1 S1 1_555 1_555
Cu1 S1 1_555 1_555
Cu2 S3 1_555 1_555
S2 W1 1_555 1_555
S3 W1 1_555 1_555
S4 W1 1_555 1_555
S5 C1 1_555 1_555
N1 Cu1 1_555 1_555
N2 C1 1_555 1_555
N3 C7 1_555 1_555
C1 N1 1_555 1_555
C2 N1 1_555 1_555
C3 C2 1_555 1_555
H1 C3 1_555 1_555
C4 N2 1_555 1_555
C5 C2 1_555 1_555
H2 C5 1_555 1_555
H3 C5 1_555 1_555
H4 C5 1_555 1_555
C6 C4 1_555 1_555
H5 C6 1_555 1_555
H6 C6 1_555 1_555
H7 C6 1_555 1_555
C7 H8 1_555 1_555
H9 C7 1_555 1_555
C8 C7 1_555 1_555
H10 C8 1_555 1_555
H11 C8 1_555 1_555
C9 C8 1_555 1_555
H12 C9 1_555 1_555
H13 C9 1_555 1_555
C10 C9 1_555 1_555
H14 C10 1_555 1_555
H15 C10 1_555 1_555
H16 C10 1_555 1_555
C11 N3 1_555 1_555
H17 C11 1_555 1_555
H18 C11 1_555 1_555
C12 C11 1_555 1_555
H19 C12 1_555 1_555
H20 C12 1_555 1_555
C13 C12 1_555 1_555
H21 C13 1_555 1_555
H22 C13 1_555 1_555
C14 C13 1_555 1_555
H23 C14 1_555 1_555
H24 C14 1_555 1_555
H25 C14 1_555 1_555
C15 N3 1_555 1_555
H26 C15 1_555 1_555
H27 C15 1_555 1_555
C16 C15 1_555 1_555
H28 C16 1_555 1_555
H29 C16 1_555 1_555
C17 C16 1_555 1_555
H30 C17 1_555 1_555
H31 C17 1_555 1_555
C18 C17 1_555 1_555
H32 C18 1_555 1_555
H33 C18 1_555 1_555
H34 C18 1_555 1_555
C19 N3 1_555 1_555
H35 C19 1_555 1_555
H36 C19 1_555 1_555
C20 C19 1_555 1_555
H37 C20 1_555 1_555
H38 C20 1_555 1_555
C21 C20 1_555 1_555
H39 C21 1_555 1_555
H40 C21 1_555 1_555
C22 C21 1_555 1_555
H41 C22 1_555 1_555
H42 C22 1_555 1_555
H43 C22 1_555 1_555
Cu2C S5 1_555 1_555
S5C Cu2 1_555 1_555
Cu1 S2 1_555 1_555
Cu2 S4 1_555 1_555
C3 C4 1_555 1_555

#END
