
#######################################################################
#
#                 Cambridge Crystallographic Data Centre
#                                CCDC 
#
#######################################################################
#
# If this CIF has been generated from an entry in the Cambridge 
# Structural Database, then it will include bibliographic, chemical, 
# crystal, experimental, refinement or atomic coordinate data resulting 
# from the CCDC's data processing and validation procedures.
#
#######################################################################

data_WOJZEA
_symmetry_cell_setting           monoclinic
_symmetry_space_group_name_H-M   'P 2/n'
_symmetry_Int_Tables_number      13
_space_group_name_Hall           '-P 2yac'
loop_
_symmetry_equiv_pos_site_id
_symmetry_equiv_pos_as_xyz
1 x,y,z
2 1/2+x,-y,1/2+z
3 -x,-y,-z
4 1/2-x,y,1/2-z
_cell_length_a                   17.096(7)
_cell_length_b                   11.183(6)
_cell_length_c                   18.607(12)
_cell_angle_alpha                90
_cell_angle_beta                 103.520(10)
_cell_angle_gamma                90
_cell_volume                     3458.79
loop_
_atom_site_label
_atom_site_type_symbol
_atom_site_fract_x
_atom_site_fract_y
_atom_site_fract_z
Zn1 Zn -0.41343(3) 0.06306(4) -0.00090(3)
Zn2 Zn -0.50043(3) -0.17578(4) -0.12963(3)
N1 N -0.3087(2) 0.0248(3) -0.0462(2)
N2 N -0.4392(2) -0.1291(3) -0.2082(2)
O1 O -0.4688(2) 0.1912(3) -0.10110(19)
O2 O -0.39587(19) 0.2479(3) 0.00713(18)
O3 O -0.3983(2) -0.3094(3) -0.0011(2)
O4 O -0.4791(2) -0.3480(3) -0.11240(18)
O5 O -0.61032(19) -0.1370(3) -0.18271(18)
O6 O -0.6535(2) -0.0181(3) -0.10217(17)
O7 O -0.47161(17) -0.0908(2) -0.03568(15)
H1 H -0.4465 -0.1428 -0.0057
C1 C -0.2728(3) 0.1093(4) -0.0793(3)
H3 H -0.2858 0.1915 -0.0729
C2 C -0.2187(3) 0.0838(4) -0.1218(3)
H4 H -0.1956 0.1477 -0.1445
C3 C -0.1975(3) -0.0353(4) -0.1325(2)
C4 C -0.2300(3) -0.1214(4) -0.0928(3)
H5 H -0.2143 -0.2037 -0.0943
C5 C -0.2841(3) -0.0884(4) -0.0516(3)
H6 H -0.3053 -0.1495 -0.0253
C6 C -0.1474(2) -0.0677(4) -0.1851(2)
C7 C -0.1164(3) 0.0198(4) -0.2249(3)
H7 H -0.1251 0.1029 -0.2165
C8 C -0.4263(3) -0.0135(4) -0.2237(3)
H8 H -0.4478 0.0481 -0.1979
C9 C -0.4105(3) -0.2135(4) -0.2463(3)
H9 H -0.4197 -0.2958 -0.2362
C10 C -0.1323(3) -0.1871(4) -0.2005(3)
H10 H -0.1513 -0.2505 -0.1742
C11 C -0.4380(3) 0.2720(4) -0.0564(3)
C12 C -0.4516(3) 0.4012(4) -0.0793(3)
H11 H -0.4834 0.4201 -0.1276
C13 C -0.4205(3) 0.4891(4) -0.0341(3)
H12 H -0.3875 0.4667 0.0132
C14 C -0.4322(3) -0.3788(4) -0.0500(3)
C15 C -0.6627(3) -0.0739(4) -0.1616(2)
C16 C -0.7446(3) -0.0703(4) -0.2138(2)
H13 H -0.7913 -0.0680 -0.1936
O7B O -0.52839(17) 0.0908(2) 0.03568(15)
Zn1B Zn -0.58657(3) -0.06306(4) 0.00090(3)
C8C C -0.0737(3) -0.0135(4) -0.2763(3)
C7C C -0.3836(3) 0.0198(4) -0.2751(3)
C10C C -0.3677(3) -0.1871(4) -0.2995(3)
C9C C -0.0895(3) -0.2135(4) -0.2537(3)
C14_2 C -0.4322(3) 0.6212(4) -0.0500(3)
C13_2 C -0.4205(3) -0.5109(4) -0.0341(3)
O5B O -0.38968(19) 0.1370(3) 0.18271(18)
Zn2B Zn -0.49957(3) 0.17578(4) 0.12963(3)
H1B H -0.5535 0.1428 0.0057
O6B O -0.3465(2) 0.0181(3) 0.10217(17)
N1B N -0.6913(2) -0.0248(3) 0.0462(2)
O1B O -0.5312(2) -0.1912(3) 0.10110(19)
O2B O -0.60413(19) -0.2479(3) -0.00713(18)
N2C N -0.0608(2) -0.1291(3) -0.2918(2)
H8C H -0.0522 0.0481 -0.3021
C6C C -0.3526(2) -0.0677(4) -0.3149(2)
H7C H -0.3749 0.1029 -0.2835
H10C H -0.3487 -0.2505 -0.3258
H9C H -0.0803 -0.2958 -0.2638
O3_2 O -0.3983(2) 0.6906(3) -0.0011(2)
O4_2 O -0.4791(2) 0.6520(3) -0.11240(18)
C12_2 C -0.4516(3) -0.5988(4) -0.0793(3)
H12_2 H -0.3875 -0.5333 0.0132
N2B N -0.5608(2) 0.1291(3) 0.2082(2)
O4B O -0.5209(2) 0.3480(3) 0.11240(18)
C16C C -0.7554(3) -0.0703(4) -0.2862(2)
Zn2C Zn 0.00043(3) -0.17578(4) -0.37037(3)
C3C C -0.3025(3) -0.0353(4) -0.3675(2)
Zn2_2 Zn -0.50043(3) 0.82422(4) -0.12963(3)
C11_2 C -0.4380(3) -0.7280(4) -0.0564(3)
H11_2 H -0.4834 -0.5799 -0.1276
C15C C -0.8373(3) -0.0739(4) -0.3384(2)
H13C H -0.7087 -0.0680 -0.3064
C2C C -0.2813(3) 0.0838(4) -0.3782(3)
C4C C -0.2700(3) -0.1214(4) -0.4072(3)
O1_2 O -0.4688(2) -0.8088(3) -0.10110(19)
O2_2 O -0.39587(19) -0.7521(3) 0.00713(18)
O5C O -0.88968(19) -0.1370(3) -0.31729(18)
O6C O -0.8465(2) -0.0181(3) -0.39783(17)
Zn1C Zn -0.08657(3) 0.06306(4) -0.49910(3)
C1C C -0.2272(3) 0.1093(4) -0.4207(3)
H4C H -0.3044 0.1477 -0.3555
H5C H -0.2857 -0.2037 -0.4057
C5C C -0.2159(3) -0.0884(4) -0.4484(3)
Zn1_2 Zn -0.41343(3) -0.93694(4) -0.00090(3)
Zn2C_2 Zn -0.99957(3) -0.17578(4) -0.37037(3)
Zn1A Zn -0.91343(3) -0.06306(4) -0.50090(3)
N1C N -0.1913(2) 0.0248(3) -0.4538(2)
H3C H -0.2142 0.1915 -0.4271
H6C H -0.1947 -0.1495 -0.4747
Zn3 Zn -0.07630(3) 0.41748(4) 0.02119(3)
Zn4 Zn 0.01780(3) 0.67075(4) 0.13106(3)
N3 N -0.1396(2) 0.3979(3) 0.1092(2)
N4 N -0.0828(2) 0.7089(3) 0.1682(2)
O8 O 0.1066(2) 0.6829(3) 0.21866(17)
O9 O 0.1016(2) 0.4849(3) 0.2233(2)
O10 O -0.1702(2) 0.5894(3) -0.0480(2)
O11 O -0.17189(19) 0.3927(3) -0.06211(17)
O12 O 0.01105(17) 0.5244(3) 0.07425(15)
H2 H 0.0444 0.4776 0.1016
O13 O 0.0246(2) 0.8150(3) 0.07509(17)
O14 O 0.0291(2) 0.7500(3) -0.03819(18)
C17 C -0.2193(3) 0.3741(4) 0.0930(2)
H14 H -0.2462 0.3618 0.0422
C18 C -0.2639(3) 0.3683(4) 0.1459(3)
H15 H -0.3202 0.3492 0.1318
C19 C -0.2270(3) 0.3889(4) 0.2204(2)
C20 C -0.1436(3) 0.4104(4) 0.2365(2)
H16 H -0.1145 0.4216 0.2868
C21 C -0.1037(3) 0.4146(4) 0.1807(2)
H17 H -0.0470 0.4308 0.1933
C22 C -0.1578(3) 0.6961(4) 0.1275(3)
H18 H -0.1656 0.6779 0.0759
C23 C -0.2253(3) 0.7078(4) 0.1571(3)
H19 H -0.2783 0.6981 0.1262
C24 C -0.2149(3) 0.7337(4) 0.2319(2)
C25 C -0.1367(3) 0.7522(4) 0.2733(3)
H20 H -0.1278 0.7744 0.3244
C26 C -0.0731(3) 0.7388(4) 0.2409(3)
H21 H -0.0195 0.7504 0.2704
C27 C 0.1308(3) 0.5814(4) 0.2481(2)
C28 C 0.1991(3) 0.5870(4) 0.3139(2)
H22 H 0.2224 0.6638 0.3289
C29 C 0.2301(3) 0.4943(4) 0.3540(3)
H23 H 0.2067 0.4172 0.3402
C30 C -0.2000(3) 0.4972(4) -0.0804(3)
C31 C 0.0223(3) 0.8303(4) 0.0072(2)
C32 C 0.0087(3) 0.9560(4) -0.0211(2)
H24 H 0.0126 0.9740 -0.0706
O12B O -0.01105(17) 0.4756(3) -0.07425(15)
Zn3B Zn 0.07630(3) 0.58252(4) -0.02119(3)
C19C C -0.2730(3) 0.3889(4) 0.2796(2)
C24C C -0.2851(3) 0.7337(4) 0.2681(2)
C30A C 0.3000(3) 0.5028(4) 0.4196(3)
C29A C -0.2699(3) 0.5057(4) -0.1460(3)
O14B O -0.0291(2) 0.2500(3) 0.03819(18)
C32B C -0.0087(3) 1.0440(4) 0.0211(2)
Zn4B Zn -0.01780(3) 0.32925(4) -0.13106(3)
H2B H -0.0444 0.5224 -0.1016
N3B N 0.1396(2) 0.6021(3) -0.1092(2)
O10B O 0.1702(2) 0.4106(3) 0.0480(2)
O11B O 0.17189(19) 0.6073(3) 0.06211(17)
O13B O -0.0246(2) 0.1850(3) -0.07509(17)
C18C C -0.2361(3) 0.3683(4) 0.3541(3)
C20C C -0.3564(3) 0.4104(4) 0.2635(2)
C23C C -0.2747(3) 0.7078(4) 0.3429(3)
C25C C -0.3633(3) 0.7522(4) 0.2267(3)
O10A O 0.3298(2) 0.4106(3) 0.4520(2)
O11A O 0.32811(19) 0.6073(3) 0.43789(17)
C28A C -0.3009(3) 0.4130(4) -0.1861(2)
H23A H -0.2933 0.5828 -0.1598
C31B C -0.0223(3) 1.1697(4) -0.0072(2)
H24B H -0.0126 1.0260 0.0706
N4B N 0.0828(2) 0.2911(3) -0.1682(2)
O8B O -0.1066(2) 0.3171(3) -0.21866(17)
C17C C -0.2807(3) 0.3741(4) 0.4070(2)
H15C H -0.1798 0.3492 0.3682
H16C H -0.3855 0.4216 0.2132
C21C C -0.3963(3) 0.4146(4) 0.3193(2)
C22C C -0.3422(3) 0.6961(4) 0.3725(3)
H19C H -0.2217 0.6981 0.3738
H20C H -0.3722 0.7744 0.1756
C26C C -0.4269(3) 0.7388(4) 0.2591(3)
Zn3A Zn 0.42370(3) 0.58252(4) 0.52119(3)
C27A C -0.3692(3) 0.4186(4) -0.2519(2)
H22A H -0.2776 0.3362 -0.1711
O13B_2 O -0.0246(2) 1.1850(3) -0.07509(17)
O14B_2 O -0.0291(2) 1.2500(3) 0.03819(18)
N3C N -0.3604(2) 0.3979(3) 0.3908(2)
H14C H -0.2538 0.3618 0.4578
H17C H -0.4530 0.4308 0.3067
N4C N -0.4172(2) 0.7089(3) 0.3318(2)
H18C H -0.3344 0.6779 0.4241
H21C H -0.4805 0.7504 0.2296
O8A O -0.3934(2) 0.3171(3) -0.28134(17)
O9A O -0.3984(2) 0.5151(3) -0.2767(2)
Zn4B_2 Zn -0.01780(3) 1.32925(4) -0.13106(3)
Zn3_2 Zn -0.07630(3) 1.41748(4) 0.02119(3)
Zn3C Zn -0.42370(3) 0.41748(4) 0.47881(3)
Zn4C Zn -0.51780(3) 0.67075(4) 0.36894(3)
Zn4A Zn -0.48220(3) 0.32925(4) -0.36894(3)
loop_
_geom_bond_atom_site_label_1
_geom_bond_atom_site_label_2
_geom_bond_site_symmetry_1
_geom_bond_site_symmetry_2
Zn1 N1 1_555 1_555
Zn2 N2 1_555 1_555
Zn3 N3 1_555 1_555
Zn4 N4 1_555 1_555
N1 C1 1_555 1_555
N2 C8 1_555 1_555
N3 C17 1_555 1_555
N4 C22 1_555 1_555
O1 Zn1 1_555 1_555
O2 Zn1 1_555 1_555
O3 C14 1_555 1_555
O4 Zn2 1_555 1_555
O5 Zn2 1_555 1_555
O6 C15 1_555 1_555
O7 Zn1 1_555 1_555
H1 O7 1_555 1_555
O8 Zn4 1_555 1_555
O9 C27 1_555 1_555
O10 Zn3 1_555 1_555
O11 Zn3 1_555 1_555
O12 Zn3 1_555 1_555
H2 O12 1_555 1_555
O13 Zn4 1_555 1_555
O14 C31 1_555 1_555
C1 H3 1_555 1_555
C2 C1 1_555 1_555
H4 C2 1_555 1_555
C3 C2 1_555 1_555
C4 C3 1_555 1_555
H5 C4 1_555 1_555
C5 N1 1_555 1_555
H6 C5 1_555 1_555
C6 C3 1_555 1_555
C7 C6 1_555 1_555
H7 C7 1_555 1_555
C8 H8 1_555 1_555
C9 N2 1_555 1_555
H9 C9 1_555 1_555
C10 C6 1_555 1_555
H10 C10 1_555 1_555
C11 O1 1_555 1_555
C12 C11 1_555 1_555
H11 C12 1_555 1_555
C13 C12 1_555 1_555
H12 C13 1_555 1_555
C14 O4 1_555 1_555
C15 O5 1_555 1_555
C16 C15 1_555 1_555
H13 C16 1_555 1_555
C17 H14 1_555 1_555
C18 C17 1_555 1_555
H15 C18 1_555 1_555
C19 C18 1_555 1_555
C20 C19 1_555 1_555
H16 C20 1_555 1_555
C21 N3 1_555 1_555
H17 C21 1_555 1_555
C22 H18 1_555 1_555
C23 C22 1_555 1_555
H19 C23 1_555 1_555
C24 C23 1_555 1_555
C25 C24 1_555 1_555
H20 C25 1_555 1_555
C26 N4 1_555 1_555
H21 C26 1_555 1_555
C27 O8 1_555 1_555
C28 C27 1_555 1_555
H22 C28 1_555 1_555
C29 C28 1_555 1_555
H23 C29 1_555 1_555
C30 O10 1_555 1_555
C31 O13 1_555 1_555
C32 C31 1_555 1_555
H24 C32 1_555 1_555
O7B Zn1 1_555 1_555
O12B Zn3 1_555 1_555
Zn1B O6 1_555 1_555
Zn3B O12 1_555 1_555
C8C C7 1_555 1_555
C7C C8 1_555 1_555
C10C C9 1_555 1_555
C9C C10 1_555 1_555
C14_2 C13 1_555 1_555
C13_2 C14 1_555 1_555
O5B Zn2B 1_555 1_555
C19C C19 1_555 1_555
C24C C24 1_555 1_555
C30A C29 1_555 1_555
C29A C30 1_555 1_555
O14B Zn3 1_555 1_555
C32B C32 1_555 1_555
Zn2B O7B 1_555 1_555
H1B O7B 1_555 1_555
Zn4B O12B 1_555 1_555
H2B O12B 1_555 1_555
O6B Zn1 1_555 1_555
N1B Zn1B 1_555 1_555
O1B Zn1B 1_555 1_555
O2B Zn1B 1_555 1_555
N3B Zn3B 1_555 1_555
O10B Zn3B 1_555 1_555
O11B Zn3B 1_555 1_555
O13B Zn4B 1_555 1_555
N2C C8C 1_555 1_555
H8C C8C 1_555 1_555
C6C C7C 1_555 1_555
H7C C7C 1_555 1_555
H10C C10C 1_555 1_555
H9C C9C 1_555 1_555
O3_2 C14_2 1_555 1_555
O4_2 C14_2 1_555 1_555
C12_2 C13_2 1_555 1_555
H12_2 C13_2 1_555 1_555
C18C C19C 1_555 1_555
C20C C19C 1_555 1_555
C23C C24C 1_555 1_555
C25C C24C 1_555 1_555
O10A C30A 1_555 1_555
O11A C30A 1_555 1_555
C28A C29A 1_555 1_555
H23A C29A 1_555 1_555
C31B C32B 1_555 1_555
H24B C32B 1_555 1_555
N2B Zn2B 1_555 1_555
O4B Zn2B 1_555 1_555
N4B Zn4B 1_555 1_555
O8B Zn4B 1_555 1_555
C16C C16 1_555 1_555
Zn2C N2C 1_555 1_555
C3C C6C 1_555 1_555
Zn2_2 O4_2 1_555 1_555
C11_2 C12_2 1_555 1_555
H11_2 C12_2 1_555 1_555
C17C C18C 1_555 1_555
H15C C18C 1_555 1_555
H16C C20C 1_555 1_555
C21C C20C 1_555 1_555
C22C C23C 1_555 1_555
H19C C23C 1_555 1_555
H20C C25C 1_555 1_555
C26C C25C 1_555 1_555
Zn3A O10A 1_555 1_555
C27A C28A 1_555 1_555
H22A C28A 1_555 1_555
O13B_2 C31B 1_555 1_555
O14B_2 C31B 1_555 1_555
C15C C16C 1_555 1_555
H13C C16C 1_555 1_555
C2C C3C 1_555 1_555
C4C C3C 1_555 1_555
O1_2 C11_2 1_555 1_555
O2_2 C11_2 1_555 1_555
N3C C17C 1_555 1_555
H14C C17C 1_555 1_555
H17C C21C 1_555 1_555
N4C C22C 1_555 1_555
H18C C22C 1_555 1_555
H21C C26C 1_555 1_555
O8A C27A 1_555 1_555
O9A C27A 1_555 1_555
Zn4B_2 O13B_2 1_555 1_555
Zn3_2 O14B_2 1_555 1_555
O5C C15C 1_555 1_555
O6C C15C 1_555 1_555
Zn1C N1C 1_555 1_555
C1C C2C 1_555 1_555
H4C C2C 1_555 1_555
H5C C4C 1_555 1_555
C5C C4C 1_555 1_555
Zn1_2 O1_2 1_555 1_555
Zn3C N3C 1_555 1_555
Zn4C N4C 1_555 1_555
Zn4A O8A 1_555 1_555
Zn2C_2 O5C 1_555 1_555
Zn1A O6C 1_555 1_555
N1C C1C 1_555 1_555
H3C C1C 1_555 1_555
H6C C5C 1_555 1_555
Zn2 O7 1_555 1_555
Zn4 O12 1_555 1_555
O2 C11 1_555 1_555
O7 Zn1B 1_555 1_555
O11 C30 1_555 1_555
O14 Zn3B 1_555 1_555
C4 C5 1_555 1_555
C20 C21 1_555 1_555
C25 C26 1_555 1_555
O7B Zn1B 1_555 1_555
O12B Zn3B 1_555 1_555
C10C C6C 1_555 1_555
C9C N2C 1_555 1_555
O11A Zn3A 1_555 1_555
C21C N3C 1_555 1_555
C26C N4C 1_555 1_555
O2_2 Zn1_2 1_555 1_555
C5C N1C 1_555 1_555

#END
