
#######################################################################
#
#                 Cambridge Crystallographic Data Centre
#                                CCDC 
#
#######################################################################
#
# If this CIF has been generated from an entry in the Cambridge 
# Structural Database, then it will include bibliographic, chemical, 
# crystal, experimental, refinement or atomic coordinate data resulting 
# from the CCDC's data processing and validation procedures.
#
#######################################################################

data_WOJZIG
_symmetry_cell_setting           monoclinic
_symmetry_space_group_name_H-M   'C 2/c'
_symmetry_Int_Tables_number      15
_space_group_name_Hall           '-C 2yn'
loop_
_symmetry_equiv_pos_site_id
_symmetry_equiv_pos_as_xyz
1 x,y,z
2 -x,y,1/2-z
3 1/2+x,1/2+y,z
4 1/2-x,1/2+y,1/2-z
5 -x,-y,-z
6 x,-y,1/2+z
7 1/2-x,1/2-y,-z
8 1/2+x,1/2-y,1/2+z
_cell_length_a                   24.5711(7)
_cell_length_b                   13.2963(4)
_cell_length_c                   14.7313(5)
_cell_angle_alpha                90
_cell_angle_beta                 96.735(3)
_cell_angle_gamma                90
_cell_volume                     4779.57
loop_
_atom_site_label
_atom_site_type_symbol
_atom_site_fract_x
_atom_site_fract_y
_atom_site_fract_z
O9 O 0.1218(12) 0.441(2) -0.2771(18)
H15 H 0.1576 0.4156 -0.2523
H16 H 0.1206 0.5049 -0.3077
Eu1 Eu 0.328769(12) 0.79250(2) 0.030196(19)
O1 O 0.3045(2) 0.7343(4) -0.1206(3)
O2 O 0.22569(19) 0.6493(4) -0.1461(3)
O3 O 0.2016(2) 0.4396(4) -0.4376(4)
O4 O 0.2749(2) 0.3530(3) -0.4576(3)
O5 O 0.6006(2) 0.6660(4) -0.4993(4)
O6 O 0.5869(2) 0.8197(4) -0.4562(4)
O7 O 0.3767(3) 0.9397(6) 0.1038(5)
O8 O 0.3738(3) 0.7318(6) 0.1759(5)
C1 C 0.2731(3) 0.6724(5) -0.1635(4)
C2 C 0.2951(3) 0.6214(5) -0.2438(4)
C3 C 0.2642(3) 0.5519(5) -0.2976(4)
H1 H 0.2284 0.5384 -0.2867
C4 C 0.2862(3) 0.5024(5) -0.3673(4)
C5 C 0.2520(3) 0.4264(5) -0.4232(4)
C6 C 0.3392(3) 0.5240(5) -0.3849(5)
H2 H 0.3545 0.4878 -0.4296
C7 C 0.3700(3) 0.5991(5) -0.3366(5)
C8 C 0.3470(3) 0.6449(5) -0.2636(4)
H3 H 0.3675 0.6922 -0.2277
C9 C 0.4240(3) 0.6311(5) -0.3613(5)
C10 C 0.4599(3) 0.5635(6) -0.3941(5)
H4 H 0.4507 0.4957 -0.3977
C11 C 0.5089(3) 0.5944(6) -0.4216(5)
H5 H 0.5326 0.5470 -0.4416
C12 C 0.5232(3) 0.6957(5) -0.4200(5)
C13 C 0.5737(3) 0.7281(5) -0.4610(5)
C14 C 0.4885(3) 0.7620(6) -0.3847(6)
H6 H 0.4980 0.8297 -0.3806
C15 C 0.4402(3) 0.7314(6) -0.3553(6)
H7 H 0.4179 0.7784 -0.3309
N1 N 0.3896(8) 0.6501(16) 0.3127(8)
C16 C 0.3546(8) 0.6970(15) 0.2395(10)
H8 H 0.3170 0.7000 0.2419
C17 C 0.3616(10) 0.5969(19) 0.3822(15)
H9 H 0.3884 0.5684 0.4276
H10 H 0.3390 0.5443 0.3534
H11 H 0.3391 0.6436 0.4108
C18 C 0.4467(8) 0.664(3) 0.3171(17)
H12 H 0.4547 0.7080 0.2689
H13 H 0.4641 0.6000 0.3104
H14 H 0.4603 0.6926 0.3751
Eu1A Eu 0.671231(12) 0.79250(2) -0.530196(19)
Eu1C Eu 0.171231(12) 0.29250(2) -0.530196(19)
Eu1E Eu 0.328769(12) 0.20750(2) -0.469804(19)
Eu1F Eu 0.171231(12) 0.70750(2) -0.030196(19)
O2F O 0.27431(19) 0.8507(4) 0.1461(3)
O3C O 0.2984(2) 0.9396(4) -0.0624(4)
O4C O 0.2251(2) 0.8530(3) -0.0424(3)
O4E O 0.2749(2) 0.6470(3) 0.0424(3)
O5A O 0.3994(2) 0.6660(4) -0.0007(4)
O6A O 0.4131(2) 0.8197(4) -0.0438(4)
loop_
_geom_bond_atom_site_label_1
_geom_bond_atom_site_label_2
_geom_bond_site_symmetry_1
_geom_bond_site_symmetry_2
Eu1 O1 1_555 1_555
O1 C1 1_555 1_555
O2 C1 1_555 1_555
O3 C5 1_555 1_555
O4 C5 1_555 1_555
O5 C13 1_555 1_555
O6 C13 1_555 1_555
O7 Eu1 1_555 1_555
O8 Eu1 1_555 1_555
C1 C2 1_555 1_555
C2 C3 1_555 1_555
C3 H1 1_555 1_555
C4 C3 1_555 1_555
C5 C4 1_555 1_555
C6 C4 1_555 1_555
H2 C6 1_555 1_555
C7 C6 1_555 1_555
C8 C2 1_555 1_555
H3 C8 1_555 1_555
C9 C7 1_555 1_555
C10 C9 1_555 1_555
H4 C10 1_555 1_555
C11 C10 1_555 1_555
H5 C11 1_555 1_555
C12 C11 1_555 1_555
C13 C12 1_555 1_555
C14 C12 1_555 1_555
H6 C14 1_555 1_555
C15 C9 1_555 1_555
H7 C15 1_555 1_555
N1 C16 1_555 1_555
C16 O8 1_555 1_555
H8 C16 1_555 1_555
C17 N1 1_555 1_555
H9 C17 1_555 1_555
H10 C17 1_555 1_555
H11 C17 1_555 1_555
C18 N1 1_555 1_555
H12 C18 1_555 1_555
H13 C18 1_555 1_555
H14 C18 1_555 1_555
O9 H15 1_555 1_555
H16 O9 1_555 1_555
Eu1A O5 1_555 1_555
Eu1C O3 1_555 1_555
Eu1E O4 1_555 1_555
Eu1F O2 1_555 1_555
O2F Eu1 1_555 1_555
O3C Eu1 1_555 1_555
O4C Eu1 1_555 1_555
O4E Eu1 1_555 1_555
O5A Eu1 1_555 1_555
O6A Eu1 1_555 1_555
O4 Eu1C 1_555 1_555
O6 Eu1A 1_555 1_555
C7 C8 1_555 1_555
C14 C15 1_555 1_555
Eu1F O4C 1_555 1_555
Eu1F O4E 1_555 1_555

#END
