
#######################################################################
#
#                 Cambridge Crystallographic Data Centre
#                                CCDC 
#
#######################################################################
#
# If this CIF has been generated from an entry in the Cambridge 
# Structural Database, then it will include bibliographic, chemical, 
# crystal, experimental, refinement or atomic coordinate data resulting 
# from the CCDC's data processing and validation procedures.
#
#######################################################################

data_WOJZOM
_symmetry_cell_setting           monoclinic
_symmetry_space_group_name_H-M   'C 2/c'
_symmetry_Int_Tables_number      15
_space_group_name_Hall           '-C 2yn'
loop_
_symmetry_equiv_pos_site_id
_symmetry_equiv_pos_as_xyz
1 x,y,z
2 -x,y,1/2-z
3 1/2+x,1/2+y,z
4 1/2-x,1/2+y,1/2-z
5 -x,-y,-z
6 x,-y,1/2+z
7 1/2-x,1/2-y,-z
8 1/2+x,1/2-y,1/2+z
_cell_length_a                   24.8112(8)
_cell_length_b                   13.7461(4)
_cell_length_c                   13.6627(4)
_cell_angle_alpha                90
_cell_angle_beta                 99.153(3)
_cell_angle_gamma                90
_cell_volume                     4600.43
loop_
_atom_site_label
_atom_site_type_symbol
_atom_site_fract_x
_atom_site_fract_y
_atom_site_fract_z
Sm1 Sm 0.170233(5) 0.215478(8) 0.461044(8)
C1 C 0.07530(10) 0.28048(17) 0.53748(18)
C2 C 0.02402(10) 0.31182(19) 0.57474(18)
C3 C -0.01422(12) 0.2436(2) 0.5932(3)
H1 H -0.0068 0.1776 0.5886
C4 C -0.06371(13) 0.2737(2) 0.6185(3)
H2 H -0.0893 0.2272 0.6298
C5 C -0.07590(10) 0.37206(18) 0.62747(18)
C6 C -0.03678(11) 0.4398(2) 0.6107(2)
H3 H -0.0436 0.5060 0.6157
C7 C 0.01269(11) 0.4080(2) 0.5862(2)
H4 H 0.0390 0.4539 0.5774
C8 C -0.13064(10) 0.39993(18) 0.65019(19)
C9 C -0.15381(10) 0.34657(19) 0.71914(18)
H5 H -0.1332 0.2982 0.7550
C10 C -0.20665(10) 0.36301(17) 0.73630(17)
C11 C -0.23812(10) 0.43346(17) 0.67997(18)
H6 H -0.2746 0.4421 0.6864
C12 C -0.21438(10) 0.49103(16) 0.61371(17)
C13 C -0.16114(10) 0.47529(17) 0.60036(17)
H7 H -0.1454 0.5153 0.5578
C14 C -0.22871(10) 0.30712(18) 0.81685(18)
C15 C -0.24922(10) 0.56970(16) 0.55873(16)
C16 C 0.0575(3) 0.3373(8) 0.1609(7)
H8 H 0.0271 0.3038 0.1810
H9 H 0.0537 0.3372 0.0898
H10 H 0.0583 0.4032 0.1844
C17 C 0.1585(3) 0.3514(7) 0.1867(7)
H11 H 0.1944 0.3252 0.2078
H12 H 0.1547 0.4112 0.2212
H13 H 0.1534 0.3634 0.1167
C18 C 0.18057(19) -0.0663(3) 0.3271(3)
H14 H 0.2154 -0.0377 0.3513
H15 H 0.1846 -0.1138 0.2773
H16 H 0.1666 -0.0972 0.3809
C19 C 0.0770(2) -0.0459(3) 0.2372(4)
H17 H 0.0643 -0.0717 0.2948
H18 H 0.0869 -0.0984 0.1974
H19 H 0.0485 -0.0082 0.1992
O1 O 0.10696(7) 0.34308(13) 0.51399(15)
O2 O 0.08439(7) 0.18995(13) 0.52822(14)
O3 O -0.22727(7) 0.64462(11) 0.53041(12)
O4 O -0.30037(7) 0.55892(12) 0.54345(13)
O5 O -0.27694(7) 0.32743(14) 0.83011(13)
O6 O -0.19809(7) 0.24671(13) 0.86404(12)
O7 O 0.12500(11) 0.29888(16) 0.31574(17)
O8 O 0.12079(8) 0.08572(14) 0.36104(15)
S1 S 0.11667(7) 0.28005(10) 0.20949(9)
S2 S 0.13348(4) 0.02764(7) 0.27387(7)
Sm1A Sm -0.170233(5) 0.215478(8) 1.038956(8)
Sm1B Sm -0.329767(5) 0.715478(8) 0.461044(8)
Sm1D Sm -0.170233(5) 0.784522(8) 0.538956(8)
Sm1G Sm -0.329767(5) 0.284522(8) 0.961044(8)
O3B O 0.27273(7) 0.14462(11) 0.53041(12)
O3D O 0.22727(7) 0.35538(11) 0.46959(12)
O4B O 0.19963(7) 0.05892(12) 0.54345(13)
O5G O 0.22306(7) 0.17257(14) 0.33011(13)
O6A O 0.19809(7) 0.24671(13) 0.63596(12)
loop_
_geom_bond_atom_site_label_1
_geom_bond_atom_site_label_2
_geom_bond_site_symmetry_1
_geom_bond_site_symmetry_2
Sm1 O1 1_555 1_555
C1 C2 1_555 1_555
C2 C3 1_555 1_555
C3 H1 1_555 1_555
C4 C3 1_555 1_555
H2 C4 1_555 1_555
C5 C4 1_555 1_555
C6 C5 1_555 1_555
H3 C6 1_555 1_555
C7 C2 1_555 1_555
H4 C7 1_555 1_555
C8 C5 1_555 1_555
C9 C8 1_555 1_555
H5 C9 1_555 1_555
C10 C9 1_555 1_555
C11 C10 1_555 1_555
H6 C11 1_555 1_555
C12 C11 1_555 1_555
C13 C8 1_555 1_555
H7 C13 1_555 1_555
C14 C10 1_555 1_555
C15 C12 1_555 1_555
C16 H8 1_555 1_555
H9 C16 1_555 1_555
H10 C16 1_555 1_555
C17 H11 1_555 1_555
H12 C17 1_555 1_555
H13 C17 1_555 1_555
C18 H14 1_555 1_555
H15 C18 1_555 1_555
H16 C18 1_555 1_555
C19 H17 1_555 1_555
H18 C19 1_555 1_555
H19 C19 1_555 1_555
O1 C1 1_555 1_555
O2 Sm1 1_555 1_555
O3 C15 1_555 1_555
O4 C15 1_555 1_555
O5 C14 1_555 1_555
O6 C14 1_555 1_555
O7 Sm1 1_555 1_555
O8 Sm1 1_555 1_555
S1 C16 1_555 1_555
S2 C18 1_555 1_555
Sm1A O6 1_555 1_555
Sm1B O3 1_555 1_555
Sm1D O3 1_555 1_555
Sm1G O5 1_555 1_555
O3B Sm1 1_555 1_555
O3D Sm1 1_555 1_555
O4B Sm1 1_555 1_555
O5G Sm1 1_555 1_555
O6A Sm1 1_555 1_555
C1 O2 1_555 1_555
C6 C7 1_555 1_555
C12 C13 1_555 1_555
C17 S1 1_555 1_555
C19 S2 1_555 1_555
O4 Sm1B 1_555 1_555
O7 S1 1_555 1_555
O8 S2 1_555 1_555

#END
