
#######################################################################
#
#                 Cambridge Crystallographic Data Centre
#                                CCDC 
#
#######################################################################
#
# If this CIF has been generated from an entry in the Cambridge 
# Structural Database, then it will include bibliographic, chemical, 
# crystal, experimental, refinement or atomic coordinate data resulting 
# from the CCDC's data processing and validation procedures.
#
#######################################################################

data_WOJZAY
_symmetry_cell_setting           monoclinic
_symmetry_space_group_name_H-M   'C 2/c'
_symmetry_Int_Tables_number      15
_space_group_name_Hall           '-C 2yn'
loop_
_symmetry_equiv_pos_site_id
_symmetry_equiv_pos_as_xyz
1 x,y,z
2 -x,y,1/2-z
3 1/2+x,1/2+y,z
4 1/2-x,1/2+y,1/2-z
5 -x,-y,-z
6 x,-y,1/2+z
7 1/2-x,1/2-y,-z
8 1/2+x,1/2-y,1/2+z
_cell_length_a                   24.8443(7)
_cell_length_b                   12.8836(4)
_cell_length_c                   15.0538(5)
_cell_angle_alpha                90
_cell_angle_beta                 96.709(3)
_cell_angle_gamma                90
_cell_volume                     4785.49
loop_
_atom_site_label
_atom_site_type_symbol
_atom_site_fract_x
_atom_site_fract_y
_atom_site_fract_z
O9 O 0.1281(4) 0.4412(8) -0.2801(6)
H15 H 0.1576 0.4156 -0.2523
H16 H 0.1206 0.5049 -0.3077
Ce1 Ce 0.328806(8) 0.796964(17) 0.033831(15)
O1 O 0.30629(13) 0.7411(3) -0.1215(2)
O2 O 0.22817(13) 0.6557(3) -0.1516(2)
O3 O 0.20203(13) 0.4527(2) -0.4394(2)
O4 O 0.27345(12) 0.3606(2) -0.4633(2)
O5 O 0.59850(14) 0.6679(3) -0.4984(3)
O6 O 0.58481(14) 0.8293(3) -0.4597(3)
O7 O 0.3744(2) 0.9577(4) 0.1101(3)
O8 O 0.3761(2) 0.7321(5) 0.1791(3)
C1 C 0.27550(17) 0.6785(3) -0.1659(3)
C2 C 0.29716(16) 0.6278(3) -0.2451(3)
C3 C 0.26597(16) 0.5601(3) -0.2996(3)
H1 H 0.2302 0.5480 -0.2897
C4 C 0.28700(16) 0.5097(3) -0.3689(3)
C5 C 0.25216(17) 0.4361(3) -0.4270(3)
C6 C 0.33989(17) 0.5306(3) -0.3856(3)
H2 H 0.3544 0.4953 -0.4312
C7 C 0.37135(16) 0.6036(3) -0.3351(3)
C8 C 0.34965(17) 0.6505(3) -0.2635(3)
H3 H 0.3705 0.6976 -0.2275
C9 C 0.42532(16) 0.6360(3) -0.3593(3)
C10 C 0.45978(19) 0.5653(4) -0.3928(4)
H4 H 0.4505 0.4953 -0.3956
C11 C 0.50795(19) 0.5972(4) -0.4222(4)
H5 H 0.5308 0.5485 -0.4437
C12 C 0.52220(17) 0.7007(3) -0.4200(3)
C13 C 0.57176(18) 0.7346(4) -0.4617(3)
C14 C 0.4897(2) 0.7697(4) -0.3838(4)
H6 H 0.4999 0.8391 -0.3792
C15 C 0.4415(2) 0.7388(4) -0.3536(4)
H7 H 0.4198 0.7876 -0.3292
N1 N 0.3921(7) 0.6575(15) 0.3165(7)
C16 C 0.3571(7) 0.6960(13) 0.2425(9)
H8 H 0.3198 0.6934 0.2429
C17 C 0.3636(9) 0.6055(17) 0.3837(13)
H9 H 0.3895 0.5768 0.4294
H10 H 0.3414 0.5509 0.3558
H11 H 0.3411 0.6548 0.4099
C18 C 0.4463(7) 0.6795(19) 0.3194(14)
H12 H 0.4521 0.7241 0.2703
H13 H 0.4662 0.6162 0.3153
H14 H 0.4586 0.7137 0.3748
Ce1A Ce 0.671194(8) 0.796964(17) -0.533831(15)
Ce1C Ce 0.171194(8) 0.296964(17) -0.533831(15)
Ce1E Ce 0.328806(8) 0.203036(17) -0.466169(15)
Ce1F Ce 0.171194(8) 0.703036(17) -0.033831(15)
O2F O 0.27183(13) 0.8443(3) 0.1516(2)
O3C O 0.29797(13) 0.9527(2) -0.0606(2)
O4C O 0.22655(12) 0.8606(2) -0.0367(2)
O4E O 0.27345(12) 0.6394(2) 0.0367(2)
O5A O 0.40150(14) 0.6679(3) -0.0016(3)
O6A O 0.41519(14) 0.8293(3) -0.0403(3)
loop_
_geom_bond_atom_site_label_1
_geom_bond_atom_site_label_2
_geom_bond_site_symmetry_1
_geom_bond_site_symmetry_2
Ce1 O1 1_555 1_555
O1 C1 1_555 1_555
O2 C1 1_555 1_555
O3 C5 1_555 1_555
O4 C5 1_555 1_555
O5 C13 1_555 1_555
O6 C13 1_555 1_555
O7 Ce1 1_555 1_555
O8 Ce1 1_555 1_555
C1 C2 1_555 1_555
C2 C3 1_555 1_555
C3 H1 1_555 1_555
C4 C3 1_555 1_555
C5 C4 1_555 1_555
C6 C4 1_555 1_555
H2 C6 1_555 1_555
C7 C6 1_555 1_555
C8 C2 1_555 1_555
H3 C8 1_555 1_555
C9 C7 1_555 1_555
C10 C9 1_555 1_555
H4 C10 1_555 1_555
C11 C10 1_555 1_555
H5 C11 1_555 1_555
C12 C11 1_555 1_555
C13 C12 1_555 1_555
C14 C12 1_555 1_555
H6 C14 1_555 1_555
C15 C9 1_555 1_555
H7 C15 1_555 1_555
N1 C16 1_555 1_555
C16 O8 1_555 1_555
H8 C16 1_555 1_555
C17 N1 1_555 1_555
H9 C17 1_555 1_555
H10 C17 1_555 1_555
H11 C17 1_555 1_555
C18 N1 1_555 1_555
H12 C18 1_555 1_555
H13 C18 1_555 1_555
H14 C18 1_555 1_555
O9 H15 1_555 1_555
H16 O9 1_555 1_555
Ce1A O5 1_555 1_555
Ce1C O3 1_555 1_555
Ce1E O4 1_555 1_555
Ce1F O2 1_555 1_555
O2F Ce1 1_555 1_555
O3C Ce1 1_555 1_555
O4C Ce1 1_555 1_555
O4E Ce1 1_555 1_555
O5A Ce1 1_555 1_555
O6A Ce1 1_555 1_555
O4 Ce1C 1_555 1_555
O6 Ce1A 1_555 1_555
C7 C8 1_555 1_555
C14 C15 1_555 1_555
Ce1F O4C 1_555 1_555
Ce1F O4E 1_555 1_555

#END
