
#######################################################################
#
#                 Cambridge Crystallographic Data Centre
#                                CCDC 
#
#######################################################################
#
# If this CIF has been generated from an entry in the Cambridge 
# Structural Database, then it will include bibliographic, chemical, 
# crystal, experimental, refinement or atomic coordinate data resulting 
# from the CCDC's data processing and validation procedures.
#
#######################################################################

data_WOJZUS
_symmetry_cell_setting           orthorhombic
_symmetry_space_group_name_H-M   'P 21 21 21'
_symmetry_Int_Tables_number      19
_space_group_name_Hall           'P 2ac 2ab'
loop_
_symmetry_equiv_pos_site_id
_symmetry_equiv_pos_as_xyz
1 x,y,z
2 1/2+x,1/2-y,-z
3 -x,1/2+y,1/2-z
4 1/2-x,-y,1/2+z
_cell_length_a                   9.8749(10)
_cell_length_b                   11.7989(11)
_cell_length_c                   19.907(2)
_cell_angle_alpha                90
_cell_angle_beta                 90
_cell_angle_gamma                90
_cell_volume                     2319.42
loop_
_atom_site_label
_atom_site_type_symbol
_atom_site_fract_x
_atom_site_fract_y
_atom_site_fract_z
Pd1 Pd 0.48920(4) 1.00181(3) 0.23250(2)
Pd2 Pd 0.52717(4) 0.76229(3) 0.23885(2)
F1 F -0.0275(4) 1.0674(5) 0.1349(2)
F2 F -0.0129(4) 0.9703(4) 0.0460(3)
F3 F -0.0082(4) 1.1493(4) 0.0414(2)
F4 F 1.0755(4) 0.6152(4) 0.2045(3)
F5 F 1.1297(4) 0.6671(5) 0.1066(3)
F6 F 1.0994(4) 0.7901(4) 0.1838(2)
O1 O 0.3515(4) 0.7826(3) 0.3024(2)
O2 O 0.3157(4) 0.9684(3) 0.2857(2)
O3 O 0.6560(4) 0.7967(4) 0.3172(2)
O4 O 0.6111(4) 0.9823(3) 0.3219(2)
N1 N 0.6515(5) 1.0443(4) 0.1732(3)
H1 H 0.6824 1.1215 0.1850
H2 H 0.7270 0.9912 0.1823
N2 N 0.4095(4) 0.7209(4) 0.1586(3)
H3 H 0.3788 0.6414 0.1631
H4 H 0.3283 0.7701 0.1580
C1 C 0.6185(6) 1.0407(6) 0.1010(3)
H5 H 0.6512 0.9688 0.0813
H6 H 0.6636 1.1042 0.0775
C2 C 0.4668(6) 1.0498(5) 0.0926(3)
C3 C 0.3876(6) 1.0299(5) 0.1497(3)
C4 C 0.2475(5) 1.0347(5) 0.1446(3)
H7 H 0.1926 1.0217 0.1830
C5 C 0.1885(6) 1.0586(5) 0.0831(3)
C6 C 0.2660(6) 1.0791(6) 0.0265(3)
H8 H 0.2239 1.0952 -0.0153
C7 C 0.4075(6) 1.0757(6) 0.0317(3)
H9 H 0.4622 1.0910 -0.0065
C8 C 0.0382(6) 1.0612(6) 0.0763(3)
C9 C 0.2846(6) 0.8723(5) 0.3087(3)
C10 C 0.1513(6) 0.8663(5) 0.3456(3)
H10 H 0.0797 0.8431 0.3144
H11 H 0.1295 0.9410 0.3642
H12 H 0.1581 0.8109 0.3821
C11 C 0.4849(6) 0.7344(5) 0.0941(2)
H13 H 0.4677 0.8105 0.0749
H14 H 0.4541 0.6769 0.0612
C12 C 0.6339(6) 0.7197(5) 0.1080(3)
C13 C 0.7267(7) 0.6925(6) 0.0590(3)
H15 H 0.6976 0.6801 0.0141
C14 C 0.8625(6) 0.6833(5) 0.0753(4)
H16 H 0.9269 0.6647 0.0416
C15 C 0.9042(6) 0.7013(5) 0.1407(4)
C16 C 0.8113(5) 0.7260(5) 0.1911(3)
H17 H 0.8407 0.7365 0.2361
C17 C 0.6749(5) 0.7351(5) 0.1748(3)
C18 C 1.0497(6) 0.6921(6) 0.1590(4)
C19 C 0.6652(6) 0.8922(5) 0.3439(3)
C20 C 0.7488(6) 0.8995(6) 0.4067(3)
H18 H 0.8427 0.9177 0.3949
H19 H 0.7460 0.8267 0.4303
H20 H 0.7123 0.9590 0.4359
Pd1B Pd 0.51080(4) 0.50181(3) 0.26750(2)
Pd2B Pd 0.47283(4) 1.26229(3) 0.26115(2)
loop_
_geom_bond_atom_site_label_1
_geom_bond_atom_site_label_2
_geom_bond_site_symmetry_1
_geom_bond_site_symmetry_2
Pd1 Pd2 1_555 1_555
Pd2 O1 1_555 1_555
F1 C8 1_555 1_555
F2 C8 1_555 1_555
F3 C8 1_555 1_555
F4 C18 1_555 1_555
F5 C18 1_555 1_555
F6 C18 1_555 1_555
O1 C9 1_555 1_555
O2 Pd1 1_555 1_555
O3 Pd2 1_555 1_555
O4 Pd1 1_555 1_555
N1 Pd1 1_555 1_555
H1 N1 1_555 1_555
H2 N1 1_555 1_555
N2 Pd2 1_555 1_555
H3 N2 1_555 1_555
H4 N2 1_555 1_555
C1 N1 1_555 1_555
H5 C1 1_555 1_555
H6 C1 1_555 1_555
C2 C1 1_555 1_555
C3 Pd1 1_555 1_555
C4 C3 1_555 1_555
H7 C4 1_555 1_555
C5 C4 1_555 1_555
C6 C5 1_555 1_555
H8 C6 1_555 1_555
C7 C2 1_555 1_555
H9 C7 1_555 1_555
C8 C5 1_555 1_555
C9 O2 1_555 1_555
C10 C9 1_555 1_555
H10 C10 1_555 1_555
H11 C10 1_555 1_555
H12 C10 1_555 1_555
C11 N2 1_555 1_555
H13 C11 1_555 1_555
H14 C11 1_555 1_555
C12 C11 1_555 1_555
C13 C12 1_555 1_555
H15 C13 1_555 1_555
C14 C13 1_555 1_555
H16 C14 1_555 1_555
C15 C14 1_555 1_555
C16 C15 1_555 1_555
H17 C16 1_555 1_555
C17 Pd2 1_555 1_555
C18 C15 1_555 1_555
C19 O3 1_555 1_555
C20 C19 1_555 1_555
H18 C20 1_555 1_555
H19 C20 1_555 1_555
H20 C20 1_555 1_555
Pd1B Pd2 1_555 1_555
Pd2B Pd1 1_555 1_555
O4 C19 1_555 1_555
C2 C3 1_555 1_555
C6 C7 1_555 1_555
C12 C17 1_555 1_555
C16 C17 1_555 1_555

#END
