
#######################################################################
#
#                 Cambridge Crystallographic Data Centre
#                                CCDC 
#
#######################################################################
#
# If this CIF has been generated from an entry in the Cambridge 
# Structural Database, then it will include bibliographic, chemical, 
# crystal, experimental, refinement or atomic coordinate data resulting 
# from the CCDC's data processing and validation procedures.
#
#######################################################################

data_WOJZOK01
_symmetry_cell_setting           monoclinic
_symmetry_space_group_name_H-M   'C 2'
_symmetry_Int_Tables_number      5
_space_group_name_Hall           'C 2y'
loop_
_symmetry_equiv_pos_site_id
_symmetry_equiv_pos_as_xyz
1 x,y,z
2 -x,y,-z
3 1/2+x,1/2+y,z
4 1/2-x,1/2+y,-z
_cell_length_a                   21.522(3)
_cell_length_b                   8.8667(11)
_cell_length_c                   13.0464(16)
_cell_angle_alpha                90.00
_cell_angle_beta                 95.207(2)
_cell_angle_gamma                90.00
_cell_volume                     2479.36
loop_
_atom_site_label
_atom_site_type_symbol
_atom_site_fract_x
_atom_site_fract_y
_atom_site_fract_z
Zn1 Zn 1.0000 0.68446(9) 1.0000
Zn2 Zn 0.5000 1.58574(10) 1.5000
O1 O 0.94878(19) 0.7332(5) 1.1276(3)
O2 O 0.9227(2) 0.8539(6) 0.9846(4)
N1 N 0.5420(2) 1.4317(6) 1.4121(4)
C1 C 0.9160(3) 0.8295(7) 1.0765(5)
C2 C 0.8664(3) 0.9111(7) 1.1285(5)
C3 C 0.6300(3) 1.2825(8) 1.3025(5)
C4 C 0.7729(3) 1.0588(8) 1.2262(6)
C5 C 0.5454(3) 1.4562(7) 1.3118(5)
H1 H 0.5173 1.5266 1.2779
C6 C 0.6782(3) 1.2122(9) 1.2425(6)
H2 H 0.6748 1.2284 1.1702
C7 C 0.8177(3) 0.9724(9) 1.2819(6)
H3 H 0.8169 0.9638 1.3544
C8 C 0.5806(3) 1.3283(9) 1.4574(5)
H4 H 0.5773 1.3061 1.5279
C9 C 0.6247(3) 1.2523(8) 1.4077(6)
H5 H 0.6513 1.1805 1.4435
C10 C 0.8636(3) 0.8986(8) 1.2337(5)
H6 H 0.8935 0.8386 1.2733
C11 C 0.5879(3) 1.3841(7) 1.2542(5)
H7 H 0.5881 1.4042 1.1827
C12 C 0.7241(3) 1.1311(8) 1.2819(6)
H8 H 0.7267 1.1162 1.3543
C13 C 0.7759(3) 1.0726(8) 1.1196(6)
H9 H 0.7458 1.1324 1.0803
C14 C 0.8225(3) 0.9991(8) 1.0705(6)
H10 H 0.8243 1.0091 0.9983
O3 O 0.6075(2) -0.2801(7) 0.4653(4)
O4 O 0.5529(2) -0.2970(7) 0.6000(4)
C15 C 0.5995(3) -0.2485(8) 0.5551(6)
N2 N 0.9458(2) 0.5252(6) 0.9168(4)
C16 C 0.7719(3) 0.1549(8) 0.7801(5)
H11 H 0.7606 0.1848 0.8458
C17 C 0.7293(3) 0.0558(7) 0.7200(5)
C18 C 0.8999(3) 0.4576(8) 0.9617(5)
H12 H 0.8941 0.4830 1.0309
C19 C 0.7363(3) 0.0105(7) 0.6185(5)
H13 H 0.7707 0.0475 0.5851
C20 C 0.8674(3) 0.3114(8) 0.8120(5)
C21 C 0.8604(3) 0.3528(8) 0.9124(5)
H14 H 0.8282 0.3087 0.9477
C22 C 0.8255(3) 0.2078(8) 0.7509(5)
H15 H 0.8376 0.1762 0.6860
C23 C 0.9176(3) 0.3781(7) 0.7660(5)
H16 H 0.9260 0.3523 0.6980
C24 C 0.9544(3) 0.4827(7) 0.8232(5)
H17 H 0.9882 0.5265 0.7918
C25 C 0.6351(4) -0.0968(10) 0.7125(6)
H18 H 0.5999 -0.1317 0.7447
C26 C 0.6443(3) -0.1422(7) 0.6133(5)
C27 C 0.6775(4) -0.0004(9) 0.7643(7)
H19 H 0.6711 0.0286 0.8326
C28 C 0.6949(3) -0.0855(7) 0.5667(5)
H20 H 0.7008 -0.1139 0.4980
O1A O 1.05122(19) 0.7332(5) 0.8724(3)
O2A O 1.0773(2) 0.8539(6) 1.0154(4)
N1A N 1.4580(2) 1.4317(6) 0.5879(4)
C1A C 1.0840(3) 0.8295(7) 0.9235(5)
C2A C 1.1336(3) 0.9111(7) 0.8715(5)
C3A C 1.3700(3) 1.2825(8) 0.6975(5)
C4A C 1.2271(3) 1.0588(8) 0.7738(6)
C5A C 1.4546(3) 1.4562(7) 0.6882(5)
H1A H 1.4827 1.5266 0.7221
C6A C 1.3218(3) 1.2122(9) 0.7575(6)
H2A H 1.3252 1.2284 0.8298
C7A C 1.1823(3) 0.9724(9) 0.7181(6)
H3A H 1.1831 0.9638 0.6456
C8A C 1.4194(3) 1.3283(9) 0.5426(5)
H4A H 1.4227 1.3061 0.4721
C9A C 1.3753(3) 1.2523(8) 0.5923(6)
H5A H 1.3487 1.1805 0.5565
C10A C 1.1364(3) 0.8986(8) 0.7663(5)
H6A H 1.1065 0.8386 0.7267
C11A C 1.4121(3) 1.3841(7) 0.7458(5)
H7A H 1.4119 1.4042 0.8173
C12A C 1.2759(3) 1.1311(8) 0.7181(6)
H8A H 1.2733 1.1162 0.6457
C13A C 1.2241(3) 1.0726(8) 0.8804(6)
H9A H 1.2542 1.1324 0.9197
C14A C 1.1775(3) 0.9991(8) 0.9295(6)
H10A H 1.1757 1.0091 1.0017
O3A O 1.3925(2) -0.2801(7) 1.5347(4)
O4A O 1.4471(2) -0.2970(7) 1.4000(4)
C15A C 1.4005(3) -0.2485(8) 1.4449(6)
N2A N 1.0542(2) 0.5252(6) 1.0832(4)
C16A C 1.2281(3) 0.1549(8) 1.2199(5)
H11A H 1.2394 0.1848 1.1542
C17A C 1.2707(3) 0.0558(7) 1.2800(5)
C18A C 1.1001(3) 0.4576(8) 1.0383(5)
H12A H 1.1059 0.4830 0.9691
C19A C 1.2637(3) 0.0105(7) 1.3815(5)
H13A H 1.2293 0.0475 1.4149
C20A C 1.1326(3) 0.3114(8) 1.1880(5)
C21A C 1.1396(3) 0.3528(8) 1.0876(5)
H14A H 1.1718 0.3087 1.0523
C22A C 1.1745(3) 0.2078(8) 1.2491(5)
H15A H 1.1624 0.1762 1.3140
C23A C 1.0824(3) 0.3781(7) 1.2340(5)
H16A H 1.0740 0.3523 1.3020
C24A C 1.0456(3) 0.4827(7) 1.1768(5)
H17A H 1.0118 0.5265 1.2082
C25A C 1.3649(4) -0.0968(10) 1.2875(6)
H18A H 1.4001 -0.1317 1.2553
C26A C 1.3557(3) -0.1422(7) 1.3867(5)
C27A C 1.3225(4) -0.0004(9) 1.2357(7)
H19A H 1.3289 0.0286 1.1674
C28A C 1.3051(3) -0.0855(7) 1.4333(5)
H20A H 1.2992 -0.1139 1.5020
N1A_2 N 0.4580(2) 1.4317(6) 1.5879(4)
O4_2 O 0.5529(2) 1.7030(7) 1.6000(4)
O4A_2 O 0.4471(2) 1.7030(7) 1.4000(4)
Zn2_2 Zn 0.5000 -0.41426(10) 0.5000
Zn2_3 Zn 1.5000 1.58574(10) 0.5000
Zn2_4 Zn 1.5000 -0.41426(10) 1.5000
loop_
_geom_bond_atom_site_label_1
_geom_bond_atom_site_label_2
_geom_bond_site_symmetry_1
_geom_bond_site_symmetry_2
Zn1 O1 1_555 1_555
Zn2 N1 1_555 1_555
O1 C1 1_555 1_555
O2 Zn1 1_555 1_555
N1 C5 1_555 1_555
C1 O2 1_555 1_555
C2 C1 1_555 1_555
C3 C6 1_555 1_555
C4 C7 1_555 1_555
C5 H1 1_555 1_555
C6 H2 1_555 1_555
C7 H3 1_555 1_555
C8 N1 1_555 1_555
H4 C8 1_555 1_555
C9 C3 1_555 1_555
H5 C9 1_555 1_555
C10 C2 1_555 1_555
H6 C10 1_555 1_555
C11 C3 1_555 1_555
H7 C11 1_555 1_555
C12 C4 1_555 1_555
H8 C12 1_555 1_555
C13 C4 1_555 1_555
H9 C13 1_555 1_555
C14 C2 1_555 1_555
H10 C14 1_555 1_555
O3 C15 1_555 1_555
O4 C15 1_555 1_555
C15 C26 1_555 1_555
N2 Zn1 1_555 1_555
C16 H11 1_555 1_555
C17 C16 1_555 1_555
C18 N2 1_555 1_555
H12 C18 1_555 1_555
C19 C17 1_555 1_555
H13 C19 1_555 1_555
C20 C21 1_555 1_555
C21 C18 1_555 1_555
H14 C21 1_555 1_555
C22 C16 1_555 1_555
H15 C22 1_555 1_555
C23 C20 1_555 1_555
H16 C23 1_555 1_555
C24 N2 1_555 1_555
H17 C24 1_555 1_555
C25 H18 1_555 1_555
C26 C25 1_555 1_555
C27 C17 1_555 1_555
H19 C27 1_555 1_555
C28 C19 1_555 1_555
H20 C28 1_555 1_555
O1A Zn1 1_555 1_555
O2A Zn1 1_555 1_555
N1A C5A 1_555 1_555
C1A O1A 1_555 1_555
C2A C1A 1_555 1_555
C3A C6A 1_555 1_555
C4A C7A 1_555 1_555
C5A H1A 1_555 1_555
C6A H2A 1_555 1_555
C7A H3A 1_555 1_555
C8A N1A 1_555 1_555
H4A C8A 1_555 1_555
C9A C3A 1_555 1_555
H5A C9A 1_555 1_555
C10A C2A 1_555 1_555
H6A C10A 1_555 1_555
C11A C3A 1_555 1_555
H7A C11A 1_555 1_555
C12A C4A 1_555 1_555
H8A C12A 1_555 1_555
C13A C4A 1_555 1_555
H9A C13A 1_555 1_555
C14A C2A 1_555 1_555
H10A C14A 1_555 1_555
O3A C15A 1_555 1_555
O4A C15A 1_555 1_555
C15A C26A 1_555 1_555
N2A Zn1 1_555 1_555
C16A H11A 1_555 1_555
C17A C16A 1_555 1_555
C18A N2A 1_555 1_555
H12A C18A 1_555 1_555
C19A C17A 1_555 1_555
H13A C19A 1_555 1_555
C20A C21A 1_555 1_555
C21A C18A 1_555 1_555
H14A C21A 1_555 1_555
C22A C16A 1_555 1_555
H15A C22A 1_555 1_555
C23A C20A 1_555 1_555
H16A C23A 1_555 1_555
C24A N2A 1_555 1_555
H17A C24A 1_555 1_555
C25A H18A 1_555 1_555
C26A C25A 1_555 1_555
C27A C17A 1_555 1_555
H19A C27A 1_555 1_555
C28A C19A 1_555 1_555
H20A C28A 1_555 1_555
N1A_2 Zn2 1_555 1_555
O4_2 Zn2 1_555 1_555
O4A_2 Zn2 1_555 1_555
Zn2_2 O4 1_555 1_555
Zn2_3 N1A 1_555 1_555
Zn2_4 O4A 1_555 1_555
C5 C11 1_555 1_555
C6 C12 1_555 1_555
C7 C10 1_555 1_555
C8 C9 1_555 1_555
C13 C14 1_555 1_555
C20 C22 1_555 1_555
C23 C24 1_555 1_555
C25 C27 1_555 1_555
C26 C28 1_555 1_555
O2A C1A 1_555 1_555
C5A C11A 1_555 1_555
C6A C12A 1_555 1_555
C7A C10A 1_555 1_555
C8A C9A 1_555 1_555
C13A C14A 1_555 1_555
C20A C22A 1_555 1_555
C23A C24A 1_555 1_555
C25A C27A 1_555 1_555
C26A C28A 1_555 1_555

#END
