
#######################################################################
#
#                 Cambridge Crystallographic Data Centre
#                                CCDC 
#
#######################################################################
#
# If this CIF has been generated from an entry in the Cambridge 
# Structural Database, then it will include bibliographic, chemical, 
# crystal, experimental, refinement or atomic coordinate data resulting 
# from the CCDC's data processing and validation procedures.
#
#######################################################################

data_WOKHIN
_symmetry_cell_setting           triclinic
_symmetry_space_group_name_H-M   'P -1'
_symmetry_Int_Tables_number      2
_space_group_name_Hall           '-P 1'
loop_
_symmetry_equiv_pos_site_id
_symmetry_equiv_pos_as_xyz
1 x,y,z
2 -x,-y,-z
_cell_length_a                   9.090(2)
_cell_length_b                   9.465(2)
_cell_length_c                   10.179(2)
_cell_angle_alpha                93.13(3)
_cell_angle_beta                 107.33(3)
_cell_angle_gamma                103.89(3)
_cell_volume                     804.017
loop_
_atom_site_label
_atom_site_type_symbol
_atom_site_fract_x
_atom_site_fract_y
_atom_site_fract_z
Zn1 Zn 0.5000 0.0000 0.0000
S1 S 0.38407(10) -0.00953(10) -0.26329(9)
S2 S 0.65438(10) -0.16832(10) -0.07999(9)
P1 P 0.55630(11) -0.10872(10) -0.26546(9)
C1 C 0.7090(5) 0.0215(5) -0.3135(5)
C2 C 0.8771(4) 0.0005(4) -0.2796(4)
C3 C 0.9935(6) 0.1398(6) -0.2936(7)
C4 C 0.8809(6) -0.1284(6) -0.3712(6)
C5 C 0.4726(6) -0.2630(5) -0.4035(5)
C6 C 0.3136(7) -0.3693(6) -0.4103(7)
C7 C 0.2303(11) -0.4469(9) -0.5594(11)
C8 C 0.340(2) -0.4812(16) -0.3117(10)
N1 N 0.3119(3) -0.1950(3) -0.0054(3)
C9 C 0.1584(4) -0.1969(4) -0.0565(4)
C10 C 0.0359(5) -0.3115(4) -0.0557(4)
C11 C 0.0658(4) -0.4367(3) -0.0022(3)
C12 C 0.2258(4) -0.4354(4) 0.0497(4)
C13 C 0.3433(4) -0.3142(4) 0.0469(4)
H1 H 0.718(4) 0.109(4) -0.263(4)
H2 H 0.663(4) 0.019(4) -0.405(4)
H3 H 0.917(4) -0.010(3) -0.186(4)
H4 H 1.101(6) 0.139(5) -0.275(5)
H5 H 0.996(5) 0.229(5) -0.237(5)
H6 H 0.967(6) 0.157(5) -0.395(5)
H7 H 0.990(5) -0.128(4) -0.352(4)
H8 H 0.830(4) -0.213(4) -0.343(4)
H9 H 0.827(5) -0.126(5) -0.461(5)
H10 H 0.544(4) -0.308(4) -0.403(3)
H11 H 0.461(5) -0.224(5) -0.488(5)
H12 H 0.252(6) -0.311(6) -0.397(5)
H13 H 0.299(9) -0.503(8) -0.597(7)
H14 H 0.128(9) -0.499(8) -0.552(7)
H15 H 0.189(11) -0.396(9) -0.613(8)
H16 H 0.392(7) -0.460(7) -0.216(7)
H17 H 0.229(8) -0.506(10) -0.329(7)
H18 H 0.339(18) -0.558(12) -0.327(12)
H19 H 0.135(4) -0.118(4) -0.089(4)
H20 H -0.054(4) -0.304(4) -0.087(3)
H21 H 0.249(4) -0.511(4) 0.087(4)
H22 H 0.440(4) -0.325(4) 0.073(3)
S1A S 0.61593(10) 0.00953(10) 0.26329(9)
P1A P 0.44370(11) 0.10872(10) 0.26546(9)
S2A S 0.34562(10) 0.16832(10) 0.07999(9)
C11A C -0.0658(4) -0.5633(3) 0.0022(3)
C10A C -0.0359(5) -0.6885(4) 0.0557(4)
C9A C -0.1584(4) -0.8031(4) 0.0565(4)
N1A N -0.3119(3) -0.8050(3) 0.0054(3)
Zn1A Zn -0.5000 -1.0000 0.0000
C13A C -0.3433(4) -0.6858(4) -0.0469(4)
C12A C -0.2258(4) -0.5646(4) -0.0497(4)
H21A H -0.249(4) -0.489(4) -0.087(4)
H22A H -0.440(4) -0.675(4) -0.073(3)
H19A H -0.135(4) -0.882(4) 0.089(4)
H20A H 0.054(4) -0.696(4) 0.087(3)
N1A_2 N 0.6881(3) 0.1950(3) 0.0054(3)
C1A C 0.2910(5) -0.0215(5) 0.3135(5)
C2A C 0.1229(4) -0.0005(4) 0.2796(4)
C3A C 0.0065(6) -0.1398(6) 0.2936(7)
H4A H -0.101(6) -0.139(5) 0.275(5)
H5A H 0.004(5) -0.229(5) 0.237(5)
H6A H 0.033(6) -0.157(5) 0.395(5)
C4A C 0.1191(6) 0.1284(6) 0.3712(6)
H7A H 0.010(5) 0.128(4) 0.352(4)
H8A H 0.170(4) 0.213(4) 0.343(4)
H9A H 0.173(5) 0.126(5) 0.461(5)
H3A H 0.083(4) 0.010(3) 0.186(4)
H1A H 0.282(4) -0.109(4) 0.263(4)
H2A H 0.337(4) -0.019(4) 0.405(4)
C5A C 0.5274(6) 0.2630(5) 0.4035(5)
C6A C 0.6864(7) 0.3693(6) 0.4103(7)
C7A C 0.7697(11) 0.4469(9) 0.5594(11)
H13A H 0.701(9) 0.503(8) 0.597(7)
H14A H 0.872(9) 0.499(8) 0.552(7)
H15A H 0.811(11) 0.396(9) 0.613(8)
C8A C 0.660(2) 0.4812(16) 0.3117(10)
H16A H 0.608(7) 0.460(7) 0.216(7)
H17A H 0.771(8) 0.506(10) 0.329(7)
H18A H 0.661(18) 0.558(12) 0.327(12)
H12A H 0.748(6) 0.311(6) 0.397(5)
H10A H 0.456(4) 0.308(4) 0.403(3)
H11A H 0.539(5) 0.224(5) 0.488(5)
loop_
_geom_bond_atom_site_label_1
_geom_bond_atom_site_label_2
_geom_bond_site_symmetry_1
_geom_bond_site_symmetry_2
Zn1 S1 1_555 1_555
S1 P1 1_555 1_555
S2 Zn1 1_555 1_555
P1 S2 1_555 1_555
C1 P1 1_555 1_555
C2 C1 1_555 1_555
C3 C2 1_555 1_555
C4 C2 1_555 1_555
C5 P1 1_555 1_555
C6 C5 1_555 1_555
C7 C6 1_555 1_555
C8 C6 1_555 1_555
N1 Zn1 1_555 1_555
C9 N1 1_555 1_555
C10 C9 1_555 1_555
C11 C10 1_555 1_555
C12 C11 1_555 1_555
C13 N1 1_555 1_555
H1 C1 1_555 1_555
H2 C1 1_555 1_555
H3 C2 1_555 1_555
H4 C3 1_555 1_555
H5 C3 1_555 1_555
H6 C3 1_555 1_555
H7 C4 1_555 1_555
H8 C4 1_555 1_555
H9 C4 1_555 1_555
H10 C5 1_555 1_555
H11 C5 1_555 1_555
H12 C6 1_555 1_555
H13 C7 1_555 1_555
H14 C7 1_555 1_555
H15 C7 1_555 1_555
H16 C8 1_555 1_555
H17 C8 1_555 1_555
H18 C8 1_555 1_555
H19 C9 1_555 1_555
H20 C10 1_555 1_555
H21 C12 1_555 1_555
H22 C13 1_555 1_555
S1A Zn1 1_555 1_555
P1A S1A 1_555 1_555
S2A Zn1 1_555 1_555
C11A C11 1_555 1_555
C10A C11A 1_555 1_555
C9A C10A 1_555 1_555
N1A C9A 1_555 1_555
Zn1A N1A 1_555 1_555
C13A N1A 1_555 1_555
C12A C11A 1_555 1_555
H21A C12A 1_555 1_555
H22A C13A 1_555 1_555
H19A C9A 1_555 1_555
H20A C10A 1_555 1_555
N1A_2 Zn1 1_555 1_555
C1A P1A 1_555 1_555
C2A C1A 1_555 1_555
C3A C2A 1_555 1_555
H4A C3A 1_555 1_555
H5A C3A 1_555 1_555
H6A C3A 1_555 1_555
C4A C2A 1_555 1_555
H7A C4A 1_555 1_555
H8A C4A 1_555 1_555
H9A C4A 1_555 1_555
H3A C2A 1_555 1_555
H1A C1A 1_555 1_555
H2A C1A 1_555 1_555
C5A P1A 1_555 1_555
C6A C5A 1_555 1_555
C7A C6A 1_555 1_555
H13A C7A 1_555 1_555
H14A C7A 1_555 1_555
H15A C7A 1_555 1_555
C8A C6A 1_555 1_555
H16A C8A 1_555 1_555
H17A C8A 1_555 1_555
H18A C8A 1_555 1_555
H12A C6A 1_555 1_555
H10A C5A 1_555 1_555
H11A C5A 1_555 1_555
C12 C13 1_555 1_555
P1A S2A 1_555 1_555
C13A C12A 1_555 1_555

#END
