
#######################################################################
#
#                 Cambridge Crystallographic Data Centre
#                                CCDC 
#
#######################################################################
#
# If this CIF has been generated from an entry in the Cambridge 
# Structural Database, then it will include bibliographic, chemical, 
# crystal, experimental, refinement or atomic coordinate data resulting 
# from the CCDC's data processing and validation procedures.
#
#######################################################################

data_WOKMUF
_symmetry_cell_setting           triclinic
_symmetry_space_group_name_H-M   'P -1'
_symmetry_Int_Tables_number      2
_space_group_name_Hall           '-P 1'
loop_
_symmetry_equiv_pos_site_id
_symmetry_equiv_pos_as_xyz
1 x,y,z
2 -x,-y,-z
_cell_length_a                   9.089(2)
_cell_length_b                   13.411(3)
_cell_length_c                   18.293(4)
_cell_angle_alpha                88.561(3)
_cell_angle_beta                 79.061(3)
_cell_angle_gamma                88.899(3)
_cell_volume                     2188.34
loop_
_atom_site_label
_atom_site_type_symbol
_atom_site_fract_x
_atom_site_fract_y
_atom_site_fract_z
O1 O 0.0734(7) -0.0597(5) 0.1050(4)
O2 O -0.2290(7) -0.0598(5) -0.0115(4)
O3 O -0.2360(7) -0.0889(6) 0.1427(4)
O4 O -0.0679(8) -0.2108(5) 0.0457(4)
O5 O -0.0808(7) 0.0728(5) 0.0469(4)
O6 O -0.0637(9) 0.0777(6) 0.2096(4)
O7 O 0.0519(8) 0.2200(5) 0.1005(4)
O8 O 0.2358(8) 0.0906(6) 0.1632(4)
O14 O 0.2217(8) -0.2158(5) 0.0213(4)
O15 O 0.4196(7) -0.0889(5) -0.0630(4)
O16 O 0.3854(8) -0.0842(6) 0.0874(4)
O17 O -0.2569(8) 0.2518(7) 0.1274(4)
O18 O 0.0807(9) -0.3800(6) -0.0288(5)
N1 N 0.4217(10) 0.2819(7) 0.0717(5)
N2 N 0.4118(10) 0.2846(7) 0.2197(5)
N3 N 0.5123(9) 0.0981(7) 0.2304(5)
Mo1 Mo -0.10755(9) -0.08528(7) 0.06427(5)
Mo2 Mo 0.07040(10) 0.08466(7) 0.13128(5)
Mo4 Mo 0.28726(9) -0.08251(7) 0.01813(5)
Mo5 Mo 0.11046(10) -0.25563(7) -0.05171(5)
Cu1 Cu 0.47442(15) 0.17713(10) 0.14251(7)
C1 C 0.5226(11) 0.0021(9) 0.2384(6)
H1 H 0.5118 -0.0371 0.1986
C2 C 0.5484(13) -0.0446(11) 0.3019(7)
H2 H 0.5572 -0.1138 0.3043
C3 C 0.5611(14) 0.0096(11) 0.3609(7)
H3 H 0.5772 -0.0215 0.4047
C4 C 0.5497(13) 0.1134(11) 0.3557(7)
H4 H 0.5588 0.1527 0.3957
C5 C 0.5243(13) 0.1565(9) 0.2888(7)
C6 C 0.5045(14) 0.2679(10) 0.2766(7)
H5 H 0.4565 0.2982 0.3228
H6 H 0.6016 0.2984 0.2603
C7 C 0.3917(11) 0.2675(9) 0.0059(7)
H7 H 0.4009 0.2034 -0.0128
C8 C 0.3461(14) 0.3451(10) -0.0376(8)
H8 H 0.3345 0.3344 -0.0862
C9 C 0.3192(16) 0.4370(11) -0.0069(9)
H9 H 0.2857 0.4895 -0.0339
C10 C 0.3426(16) 0.4519(10) 0.0658(9)
H10 H 0.3227 0.5136 0.0879
C11 C 0.3962(14) 0.3722(9) 0.1042(7)
C12 C 0.4361(15) 0.3814(9) 0.1789(7)
H11 H 0.5403 0.4001 0.1735
H12 H 0.3744 0.4328 0.2066
C13 C 0.2502(13) 0.2767(10) 0.2544(7)
H13 H 0.2238 0.3279 0.2905
H14 H 0.2323 0.2125 0.2785
H15 H 0.1903 0.2847 0.2166
O1A O -0.0734(7) 0.0597(5) -0.1050(4)
O2A O 0.2290(7) 0.0598(5) 0.0115(4)
O3A O 0.2360(7) 0.0889(6) -0.1427(4)
O4A O 0.0679(8) 0.2108(5) -0.0457(4)
O5A O 0.0808(7) -0.0728(5) -0.0469(4)
O6A O 0.0637(9) -0.0777(6) -0.2096(4)
O7A O -0.0519(8) -0.2200(5) -0.1005(4)
O8A O -0.2358(8) -0.0906(6) -0.1632(4)
O14A O -0.2217(8) 0.2158(5) -0.0213(4)
O15A O -0.4196(7) 0.0889(5) 0.0630(4)
O15A_2 O 0.5804(7) 0.0889(5) 0.0630(4)
O15_2 O -0.5804(7) -0.0889(5) -0.0630(4)
O16A O -0.3854(8) 0.0842(6) -0.0874(4)
O17_2 O 0.7431(8) 0.2518(7) 0.1274(4)
O17A O 0.2569(8) -0.2518(7) -0.1274(4)
O17A_2 O -0.7431(8) -0.2518(7) -0.1274(4)
O18A O -0.0807(9) 0.3800(6) 0.0288(5)
N1A N -0.4217(10) -0.2819(7) -0.0717(5)
N2A N -0.4118(10) -0.2846(7) -0.2197(5)
N3A N -0.5123(9) -0.0981(7) -0.2304(5)
Mo1A Mo 0.10755(9) 0.08528(7) -0.06427(5)
Mo2A Mo -0.07040(10) -0.08466(7) -0.13128(5)
Mo4A Mo -0.28726(9) 0.08251(7) -0.01813(5)
Mo5A Mo -0.11046(10) 0.25563(7) 0.05171(5)
Cu1A Cu -0.47442(15) -0.17713(10) -0.14251(7)
Cu1A_2 Cu 0.52558(15) -0.17713(10) -0.14251(7)
Cu1_2 Cu -0.52558(15) 0.17713(10) 0.14251(7)
C1A C -0.5226(11) -0.0021(9) -0.2384(6)
H1A H -0.5118 0.0371 -0.1986
C2A C -0.5484(13) 0.0446(11) -0.3019(7)
H2A H -0.5572 0.1138 -0.3043
C3A C -0.5611(14) -0.0096(11) -0.3609(7)
H3A H -0.5772 0.0215 -0.4047
C4A C -0.5497(13) -0.1134(11) -0.3557(7)
H4A H -0.5588 -0.1527 -0.3957
C5A C -0.5243(13) -0.1565(9) -0.2888(7)
C6A C -0.5045(14) -0.2679(10) -0.2766(7)
H5A H -0.4565 -0.2982 -0.3228
H6A H -0.6016 -0.2984 -0.2603
C7A C -0.3917(11) -0.2675(9) -0.0059(7)
H7A H -0.4009 -0.2034 0.0128
C8A C -0.3461(14) -0.3451(10) 0.0376(8)
H8A H -0.3345 -0.3344 0.0862
C9A C -0.3192(16) -0.4370(11) 0.0069(9)
H9A H -0.2857 -0.4895 0.0339
C10A C -0.3426(16) -0.4519(10) -0.0658(9)
H10A H -0.3227 -0.5136 -0.0879
C11A C -0.3962(14) -0.3722(9) -0.1042(7)
C12A C -0.4361(15) -0.3814(9) -0.1789(7)
H11A H -0.5403 -0.4001 -0.1735
H12A H -0.3744 -0.4328 -0.2066
C13A C -0.2502(13) -0.2767(10) -0.2544(7)
H13A H -0.2238 -0.3279 -0.2905
H14A H -0.2323 -0.2125 -0.2785
H15A H -0.1903 -0.2847 -0.2166
O9 O 0.2487(7) 0.4751(5) 0.5410(4)
O10 O 0.5443(7) 0.4278(5) 0.5481(4)
O11 O 0.5858(7) 0.6319(5) 0.5548(4)
O12 O 0.3774(7) 0.5296(5) 0.6608(4)
O13 O 0.2762(8) 0.6783(6) 0.5791(5)
O19 O 0.1255(8) 0.5957(6) 0.4388(4)
O20 O 0.3403(7) 0.5003(6) 0.3379(4)
O21 O 0.1161(8) 0.3941(6) 0.4274(4)
O22 O 0.3487(8) 0.3338(6) 0.6531(4)
O23 O 0.6392(9) 0.2978(6) 0.6750(5)
O24 O 0.4526(9) 0.4047(6) 0.7790(4)
O25 O 0.4766(9) 0.2082(6) 0.5362(4)
O26 O 0.1863(8) 0.2707(6) 0.5513(4)
N4 N 0.0337(10) 0.6170(7) 0.2941(5)
N5 N 0.0702(10) 0.8129(7) 0.2920(5)
N6 N 0.1175(10) 0.8219(7) 0.4295(5)
Mo3 Mo 0.38500(9) 0.57359(7) 0.56853(5)
Mo6 Mo 0.23396(9) 0.48719(7) 0.43648(5)
Mo7 Mo 0.51236(10) 0.39538(7) 0.68573(5)
Mo8 Mo 0.36327(10) 0.31160(7) 0.54945(5)
Cu2 Cu 0.07778(15) 0.70619(10) 0.37191(8)
C14 C -0.0201(11) 0.5261(9) 0.3010(7)
H16 H -0.0382 0.4962 0.3482
C15 C -0.0508(14) 0.4730(10) 0.2433(7)
H17 H -0.0883 0.4088 0.2512
C16 C -0.0253(17) 0.5162(13) 0.1727(8)
H18 H -0.0474 0.4827 0.1323
C17 C 0.0343(17) 0.6113(11) 0.1640(7)
H19 H 0.0571 0.6417 0.1170
C18 C 0.0589(13) 0.6593(10) 0.2251(6)
C19 C 0.1278(14) 0.7621(9) 0.2198(7)
H20 H 0.2362 0.7563 0.2114
H21 H 0.0997 0.8004 0.1788
C20 C 0.1104(13) 0.8239(10) 0.5028(7)
H22 H 0.0780 0.7678 0.5319
C21 C 0.1502(15) 0.9082(12) 0.5369(9)
H23 H 0.1491 0.9070 0.5879
C22 C 0.1906(16) 0.9919(11) 0.4958(10)
H24 H 0.2152 1.0496 0.5176
C23 C 0.1939(14) 0.9884(11) 0.4193(9)
H25 H 0.2204 1.0449 0.3895
C24 C 0.1588(13) 0.9030(10) 0.3879(8)
C25 C 0.1670(14) 0.8955(10) 0.3061(8)
H26 H 0.1335 0.9578 0.2861
H27 H 0.2698 0.8827 0.2816
C26 C -0.0839(12) 0.8498(9) 0.2946(7)
H28 H -0.0848 0.9000 0.2564
H29 H -0.1216 0.8778 0.3424
H30 H -0.1462 0.7955 0.2867
O9A O 0.7513(7) 0.5249(5) 0.4590(4)
O10A O 0.4557(7) 0.5722(5) 0.4519(4)
O11A O 0.4142(7) 0.3681(5) 0.4452(4)
O12A O 0.6226(7) 0.4704(5) 0.3392(4)
O13A O 0.7238(8) 0.3217(6) 0.4209(5)
O19A O 0.8745(8) 0.4043(6) 0.5612(4)
O20A O 0.6597(7) 0.4997(6) 0.6621(4)
O21A O 0.8839(8) 0.6059(6) 0.5726(4)
O22A O 0.6513(8) 0.6662(6) 0.3469(4)
O23A O 0.3608(9) 0.7022(6) 0.3250(5)
O24A O 0.5474(9) 0.5953(6) 0.2210(4)
O25A O 0.5234(9) 0.7918(6) 0.4638(4)
O26A O 0.8137(8) 0.7293(6) 0.4487(4)
O26A_2 O -0.1863(8) 0.7293(6) 0.4487(4)
O26_2 O 1.1863(8) 0.2707(6) 0.5513(4)
N4A N 0.9663(10) 0.3830(7) 0.7059(5)
N5A N 0.9298(10) 0.1871(7) 0.7080(5)
N6A N 0.8825(10) 0.1781(7) 0.5705(5)
Mo3A Mo 0.61500(9) 0.42641(7) 0.43147(5)
Mo6A Mo 0.76604(9) 0.51281(7) 0.56352(5)
Mo7A Mo 0.48764(10) 0.60462(7) 0.31427(5)
Mo8A Mo 0.63673(10) 0.68840(7) 0.45055(5)
Cu2A Cu 0.92222(15) 0.29381(10) 0.62809(8)
Cu2A_2 Cu -0.07778(15) 0.29381(10) 0.62809(8)
Cu2_2 Cu 1.07778(15) 0.70619(10) 0.37191(8)
C14A C 1.0201(11) 0.4739(9) 0.6990(7)
H16A H 1.0382 0.5038 0.6518
C15A C 1.0508(14) 0.5270(10) 0.7567(7)
H17A H 1.0883 0.5912 0.7488
C16A C 1.0253(17) 0.4838(13) 0.8273(8)
H18A H 1.0474 0.5173 0.8677
C17A C 0.9657(17) 0.3887(11) 0.8360(7)
H19A H 0.9429 0.3583 0.8830
C18A C 0.9411(13) 0.3407(10) 0.7749(6)
C19A C 0.8722(14) 0.2379(9) 0.7802(7)
H20A H 0.7638 0.2437 0.7886
H21A H 0.9003 0.1996 0.8212
C20A C 0.8896(13) 0.1761(10) 0.4972(7)
H22A H 0.9220 0.2322 0.4681
C21A C 0.8498(15) 0.0918(12) 0.4631(9)
H23A H 0.8509 0.0930 0.4121
C22A C 0.8094(16) 0.0081(11) 0.5042(10)
H24A H 0.7848 -0.0496 0.4824
C23A C 0.8061(14) 0.0116(11) 0.5807(9)
H25A H 0.7796 -0.0449 0.6105
C24A C 0.8412(13) 0.0970(10) 0.6121(8)
C25A C 0.8330(14) 0.1045(10) 0.6939(8)
H26A H 0.8665 0.0422 0.7139
H27A H 0.7302 0.1173 0.7184
C26A C 1.0839(12) 0.1502(9) 0.7054(7)
H28A H 1.0848 0.1000 0.7436
H29A H 1.1216 0.1222 0.6576
H30A H 1.1462 0.2045 0.7133
loop_
_geom_bond_atom_site_label_1
_geom_bond_atom_site_label_2
_geom_bond_site_symmetry_1
_geom_bond_site_symmetry_2
O1 Mo1 1_555 1_555
O2 Mo1 1_555 1_555
O3 Mo1 1_555 1_555
O4 Mo1 1_555 1_555
O5 Mo1 1_555 1_555
O6 Mo2 1_555 1_555
O7 Mo2 1_555 1_555
O8 Mo2 1_555 1_555
O9 Mo3 1_555 1_555
O10 Mo3 1_555 1_555
O11 Mo3 1_555 1_555
O12 Mo3 1_555 1_555
O13 Mo3 1_555 1_555
O14 Mo4 1_555 1_555
O15 Mo4 1_555 1_555
O16 Mo4 1_555 1_555
O17 Mo5A 1_555 1_555
O18 Mo5 1_555 1_555
O19 Mo6 1_555 1_555
O20 Mo6 1_555 1_555
O21 Mo6 1_555 1_555
O22 Mo7 1_555 1_555
O23 Mo7 1_555 1_555
O24 Mo7 1_555 1_555
O25 Mo8 1_555 1_555
O26 Mo8 1_555 1_555
N1 Cu1 1_555 1_555
N2 Cu1 1_555 1_555
N3 Cu1 1_555 1_555
N4 Cu2 1_555 1_555
N5 Cu2 1_555 1_555
N6 Cu2 1_555 1_555
Mo1 O5A 1_555 1_555
Mo2 O1 1_555 1_555
Mo3 O10A 1_555 1_555
Mo4 O1 1_555 1_555
Mo5 O4 1_555 1_555
Mo6 O9 1_555 1_555
Mo7 O10 1_555 1_555
Mo8 O9 1_555 1_555
Cu1 O8 1_555 1_555
Cu2 O19 1_555 1_555
C1 N3 1_555 1_555
H1 C1 1_555 1_555
C2 C1 1_555 1_555
H2 C2 1_555 1_555
C3 C2 1_555 1_555
H3 C3 1_555 1_555
C4 C3 1_555 1_555
H4 C4 1_555 1_555
C5 N3 1_555 1_555
C6 N2 1_555 1_555
H5 C6 1_555 1_555
H6 C6 1_555 1_555
C7 N1 1_555 1_555
H7 C7 1_555 1_555
C8 C7 1_555 1_555
H8 C8 1_555 1_555
C9 C8 1_555 1_555
H9 C9 1_555 1_555
C10 C9 1_555 1_555
H10 C10 1_555 1_555
C11 N1 1_555 1_555
C12 N2 1_555 1_555
H11 C12 1_555 1_555
H12 C12 1_555 1_555
C13 N2 1_555 1_555
H13 C13 1_555 1_555
H14 C13 1_555 1_555
H15 C13 1_555 1_555
C14 N4 1_555 1_555
H16 C14 1_555 1_555
C15 C14 1_555 1_555
H17 C15 1_555 1_555
C16 C15 1_555 1_555
H18 C16 1_555 1_555
C17 C16 1_555 1_555
H19 C17 1_555 1_555
C18 N4 1_555 1_555
C19 N5 1_555 1_555
H20 C19 1_555 1_555
H21 C19 1_555 1_555
C20 N6 1_555 1_555
H22 C20 1_555 1_555
C21 C20 1_555 1_555
H23 C21 1_555 1_555
C22 C21 1_555 1_555
H24 C22 1_555 1_555
C23 C22 1_555 1_555
H25 C23 1_555 1_555
C24 N6 1_555 1_555
C25 N5 1_555 1_555
H26 C25 1_555 1_555
H27 C25 1_555 1_555
C26 N5 1_555 1_555
H28 C26 1_555 1_555
H29 C26 1_555 1_555
H30 C26 1_555 1_555
O1A Mo1A 1_555 1_555
O2A Mo2 1_555 1_555
O3A Mo1A 1_555 1_555
O4A Mo1A 1_555 1_555
O5A Mo4 1_555 1_555
O6A Mo2A 1_555 1_555
O7A Mo5 1_555 1_555
O8A Mo2A 1_555 1_555
O9A Mo3A 1_555 1_555
O10A Mo6 1_555 1_555
O11A Mo6 1_555 1_555
O12A Mo3A 1_555 1_555
O13A Mo3A 1_555 1_555
O14A Mo4A 1_555 1_555
O15A Mo4A 1_555 1_555
O15A_2 Cu1 1_555 1_555
O15_2 Cu1A 1_555 1_555
O16A Mo4A 1_555 1_555
O17_2 Cu1 1_555 1_555
O17A Mo5 1_555 1_555
O17A_2 Cu1A 1_555 1_555
O18A Mo5A 1_555 1_555
O19A Mo6A 1_555 1_555
O20A Mo7 1_555 1_555
O21A Mo6A 1_555 1_555
O22A Mo7A 1_555 1_555
O23A Cu2 1_555 1_555
O24A Mo7A 1_555 1_555
O25A Mo8A 1_555 1_555
O26A Mo8A 1_555 1_555
O26A_2 Cu2 1_555 1_555
O26_2 Cu2A 1_555 1_555
N1A Cu1A 1_555 1_555
N2A Cu1A 1_555 1_555
N3A Cu1A 1_555 1_555
N4A Cu2A 1_555 1_555
N5A Cu2A 1_555 1_555
N6A Cu2A 1_555 1_555
Mo1A O5 1_555 1_555
Mo2A O2 1_555 1_555
Mo3A O10 1_555 1_555
Mo4A O2 1_555 1_555
Mo5A O5 1_555 1_555
Mo6A O10 1_555 1_555
Mo7A O20 1_555 1_555
Mo8A O11 1_555 1_555
Cu1A O8A 1_555 1_555
Cu1A_2 O15 1_555 1_555
Cu1_2 O17 1_555 1_555
Cu2A O23 1_555 1_555
Cu2A_2 O26 1_555 1_555
Cu2_2 O26A 1_555 1_555
C1A N3A 1_555 1_555
H1A C1A 1_555 1_555
C2A C1A 1_555 1_555
H2A C2A 1_555 1_555
C3A C2A 1_555 1_555
H3A C3A 1_555 1_555
C4A C3A 1_555 1_555
H4A C4A 1_555 1_555
C5A N3A 1_555 1_555
C6A N2A 1_555 1_555
H5A C6A 1_555 1_555
H6A C6A 1_555 1_555
C7A N1A 1_555 1_555
H7A C7A 1_555 1_555
C8A C7A 1_555 1_555
H8A C8A 1_555 1_555
C9A C8A 1_555 1_555
H9A C9A 1_555 1_555
C10A C9A 1_555 1_555
H10A C10A 1_555 1_555
C11A N1A 1_555 1_555
C12A N2A 1_555 1_555
H11A C12A 1_555 1_555
H12A C12A 1_555 1_555
C13A N2A 1_555 1_555
H13A C13A 1_555 1_555
H14A C13A 1_555 1_555
H15A C13A 1_555 1_555
C14A N4A 1_555 1_555
H16A C14A 1_555 1_555
C15A C14A 1_555 1_555
H17A C15A 1_555 1_555
C16A C15A 1_555 1_555
H18A C16A 1_555 1_555
C17A C16A 1_555 1_555
H19A C17A 1_555 1_555
C18A N4A 1_555 1_555
C19A N5A 1_555 1_555
H20A C19A 1_555 1_555
H21A C19A 1_555 1_555
C20A N6A 1_555 1_555
H22A C20A 1_555 1_555
C21A C20A 1_555 1_555
H23A C21A 1_555 1_555
C22A C21A 1_555 1_555
H24A C22A 1_555 1_555
C23A C22A 1_555 1_555
H25A C23A 1_555 1_555
C24A N6A 1_555 1_555
C25A N5A 1_555 1_555
H26A C25A 1_555 1_555
H27A C25A 1_555 1_555
C26A N5A 1_555 1_555
H28A C26A 1_555 1_555
H29A C26A 1_555 1_555
H30A C26A 1_555 1_555
O5 Mo2 1_555 1_555
O5 Mo4A 1_555 1_555
O7 Mo5A 1_555 1_555
O10 Mo8 1_555 1_555
O11 Mo6A 1_555 1_555
O12 Mo7 1_555 1_555
O14 Mo5 1_555 1_555
O22 Mo8 1_555 1_555
Mo4 O2A 1_555 1_555
Mo5 O5A 1_555 1_555
Mo8 O11A 1_555 1_555
C4 C5 1_555 1_555
C5 C6 1_555 1_555
C10 C11 1_555 1_555
C11 C12 1_555 1_555
C17 C18 1_555 1_555
C18 C19 1_555 1_555
C23 C24 1_555 1_555
C24 C25 1_555 1_555
O1A Mo2A 1_555 1_555
O1A Mo4A 1_555 1_555
O2A Mo1A 1_555 1_555
O4A Mo5A 1_555 1_555
O5A Mo1A 1_555 1_555
O5A Mo2A 1_555 1_555
O7A Mo2A 1_555 1_555
O9A Mo6A 1_555 1_555
O9A Mo8A 1_555 1_555
O10A Mo3A 1_555 1_555
O10A Mo7A 1_555 1_555
O10A Mo8A 1_555 1_555
O11A Mo3A 1_555 1_555
O12A Mo7A 1_555 1_555
O14A Mo5A 1_555 1_555
O15A Cu1_2 1_555 1_555
O17A Cu1A_2 1_555 1_555
O19A Cu2A 1_555 1_555
O20A Mo6A 1_555 1_555
O22A Mo8A 1_555 1_555
O23A Mo7A 1_555 1_555
C4A C5A 1_555 1_555
C5A C6A 1_555 1_555
C10A C11A 1_555 1_555
C11A C12A 1_555 1_555
C17A C18A 1_555 1_555
C18A C19A 1_555 1_555
C23A C24A 1_555 1_555
C24A C25A 1_555 1_555

#END
