
#######################################################################
#
#                 Cambridge Crystallographic Data Centre
#                                CCDC 
#
#######################################################################
#
# If this CIF has been generated from an entry in the Cambridge 
# Structural Database, then it will include bibliographic, chemical, 
# crystal, experimental, refinement or atomic coordinate data resulting 
# from the CCDC's data processing and validation procedures.
#
#######################################################################

data_WOKQUI
_symmetry_cell_setting           monoclinic
_symmetry_space_group_name_H-M   'P 21/c'
_symmetry_Int_Tables_number      14
_space_group_name_Hall           '-P 2ybc'
loop_
_symmetry_equiv_pos_site_id
_symmetry_equiv_pos_as_xyz
1 x,y,z
2 x,1/2-y,1/2+z
3 -x,-y,-z
4 -x,1/2+y,1/2-z
_cell_length_a                   8.833(2)
_cell_length_b                   17.703(4)
_cell_length_c                   12.074(2)
_cell_angle_alpha                90.00
_cell_angle_beta                 93.11(3)
_cell_angle_gamma                90.00
_cell_volume                     1885.24
loop_
_atom_site_label
_atom_site_type_symbol
_atom_site_fract_x
_atom_site_fract_y
_atom_site_fract_z
Bi1 Bi -0.30400(3) 0.24252(1) 0.12443(2)
S1 S -0.2438(2) 0.1488(1) 0.3750(1)
O1 O -0.3439(6) 0.1565(3) 0.2737(4)
O2 O -0.1044(7) 0.1892(3) 0.3670(5)
O3 O -0.3295(7) 0.1696(3) 0.4706(4)
C1 C -0.3422(8) 0.3416(4) 0.2331(5)
C2 C -0.2357(10) 0.3588(4) 0.3194(6)
C3 C -0.2542(12) 0.4218(5) 0.3847(6)
C4 C -0.3727(13) 0.4700(5) 0.3632(8)
C5 C -0.4766(12) 0.4551(6) 0.2791(8)
C6 C -0.4617(10) 0.3906(5) 0.2140(7)
C7 C -0.5471(8) 0.2175(4) 0.0826(5)
C8 C -0.6545(10) 0.2183(4) 0.1622(7)
C9 C -0.8015(10) 0.2011(5) 0.1342(7)
C10 C -0.8476(12) 0.1806(5) 0.0279(7)
C11 C -0.7411(13) 0.1782(6) -0.0509(7)
C12 C -0.5936(11) 0.1967(5) -0.0239(6)
C13 C -0.2059(9) 0.0510(4) 0.3900(5)
C14 C -0.2494(10) 0.0154(4) 0.4849(6)
C15 C -0.2176(10) -0.0597(4) 0.5051(6)
C16 C -0.1382(11) -0.0976(5) 0.4269(7)
C17 C -0.0970(11) -0.0618(5) 0.3318(7)
C18 C -0.1298(9) 0.0127(4) 0.3097(6)
C19 C -0.2670(19) -0.0983(7) 0.6062(11)
C20 C -0.0882(18) 0.0466(7) 0.1995(10)
H1 H -0.1575(97) 0.3222(44) 0.3332(64)
H2 H -0.1725(97) 0.4267(44) 0.4569(69)
H3 H -0.387(11) 0.5143(56) 0.4107(76)
H4 H -0.5639(85) 0.4850(39) 0.2648(53)
H5 H -0.5135(92) 0.3776(41) 0.1596(63)
H6 H -0.627(11) 0.2259(49) 0.2341(77)
H7 H -0.8886(79) 0.2024(36) 0.1907(51)
H8 H -0.976(13) 0.1762(53) 0.0108(82)
H9 H -0.748(14) 0.1672(64) -0.1091(82)
H10 H -0.5187(96) 0.2016(45) -0.0714(65)
H11 H -0.3085(79) 0.0414(38) 0.5335(55)
H12 H -0.1135(94) -0.1483(48) 0.4344(61)
H13 H -0.038(11) -0.0924(49) 0.2833(69)
H14 H -0.193(19) -0.0857(81) 0.670(13)
H15 H -0.265(16) -0.1394(85) 0.597(11)
H16 H -0.347(19) -0.0689(83) 0.634(12)
H17 H -0.052(15) 0.0955(71) 0.2056(94)
H18 H -0.191(20) 0.060(11) 0.165(14)
H19 H -0.044(16) 0.0198(74) 0.176(10)
O3A O -0.3295(7) 0.3304(3) -0.0294(4)
Bi1A Bi -0.30400(3) 0.25748(1) 0.62443(2)
loop_
_geom_bond_atom_site_label_1
_geom_bond_atom_site_label_2
_geom_bond_site_symmetry_1
_geom_bond_site_symmetry_2
Bi1 O1 1_555 1_555
S1 O1 1_555 1_555
O2 S1 1_555 1_555
O3 S1 1_555 1_555
C1 Bi1 1_555 1_555
C2 C1 1_555 1_555
C3 C2 1_555 1_555
C4 C3 1_555 1_555
C5 C4 1_555 1_555
C6 C1 1_555 1_555
C7 Bi1 1_555 1_555
C8 C7 1_555 1_555
C9 C8 1_555 1_555
C10 C9 1_555 1_555
C11 C10 1_555 1_555
C12 C7 1_555 1_555
C13 S1 1_555 1_555
C14 C13 1_555 1_555
C15 C14 1_555 1_555
C16 C15 1_555 1_555
C17 C16 1_555 1_555
C18 C13 1_555 1_555
C19 C15 1_555 1_555
C20 C18 1_555 1_555
H1 C2 1_555 1_555
H2 C3 1_555 1_555
H3 C4 1_555 1_555
H4 C5 1_555 1_555
H5 C6 1_555 1_555
H6 C8 1_555 1_555
H7 C9 1_555 1_555
H8 C10 1_555 1_555
H9 C11 1_555 1_555
H10 C12 1_555 1_555
H11 C14 1_555 1_555
H12 C16 1_555 1_555
H13 C17 1_555 1_555
H14 C19 1_555 1_555
H15 C19 1_555 1_555
H16 C19 1_555 1_555
H17 C20 1_555 1_555
H18 C20 1_555 1_555
H19 C20 1_555 1_555
O3A Bi1 1_555 1_555
Bi1A O3 1_555 1_555
C5 C6 1_555 1_555
C11 C12 1_555 1_555
C17 C18 1_555 1_555

#END
