
#######################################################################
#
#                 Cambridge Crystallographic Data Centre
#                                CCDC 
#
#######################################################################
#
# If this CIF has been generated from an entry in the Cambridge 
# Structural Database, then it will include bibliographic, chemical, 
# crystal, experimental, refinement or atomic coordinate data resulting 
# from the CCDC's data processing and validation procedures.
#
#######################################################################

data_WOKROF
_symmetry_cell_setting           triclinic
_symmetry_space_group_name_H-M   'P -1'
_symmetry_Int_Tables_number      2
_space_group_name_Hall           '-P 1'
loop_
_symmetry_equiv_pos_site_id
_symmetry_equiv_pos_as_xyz
1 x,y,z
2 -x,-y,-z
_cell_length_a                   8.5941(3)
_cell_length_b                   8.6431(3)
_cell_length_c                   11.3627(3)
_cell_angle_alpha                75.8240(10)
_cell_angle_beta                 75.6950(10)
_cell_angle_gamma                69.5170(10)
_cell_volume                     754.38
loop_
_atom_site_label
_atom_site_type_symbol
_atom_site_fract_x
_atom_site_fract_y
_atom_site_fract_z
Cd1 Cd 0.168824(19) 0.345223(18) 0.730124(14)
Ni1 Ni 0.0000 0.0000 0.5000
Ni2 Ni 0.5000 0.5000 1.0000
N1 N 0.2923(2) 0.4611(2) 0.54052(19)
H1 H 0.2173 0.5034 0.4901
H2 H 0.3802 0.3823 0.5086
H3 H 0.3271 0.5425 0.5497
N2 N 0.3833(2) 0.0818(2) 0.71818(19)
H4 H 0.3373 -0.0005 0.7560
H5 H 0.4196 0.0713 0.6383
N3 N 0.0104(2) 0.2633(2) 0.6263(2)
C1 C 0.2235(3) -0.1143(3) 0.5224(2)
N4 N 0.0616(3) 0.2239(3) 0.9240(2)
H6 H -0.0391 0.2167 0.9235
H7 H 0.0510 0.2866 0.9787
H8 H 0.1314 0.1217 0.9444
N5 N 0.3136(3) 0.4435(3) 0.8309(2)
C2 C 0.3835(3) 0.4668(3) 0.8954(2)
C3 C 0.0036(3) 0.1660(3) 0.5759(2)
C4 C 0.8294(3) -0.1189(3) 0.7808(2)
H9 H 0.8483 -0.0278 0.7978
C5 C 0.5291(3) 0.0577(3) 0.7732(2)
H10 H 0.4898 0.0657 0.8598
H11 H 0.5754 0.1491 0.7344
N6 N 0.3610(3) -0.1830(3) 0.5362(2)
C6 C 0.6498(3) -0.2468(3) 0.7388(2)
H12 H 0.5463 -0.2431 0.7249
C7 C 0.9596(3) -0.2684(3) 0.7727(2)
H13 H 1.0657 -0.2743 0.7830
C8 C 0.6703(3) -0.1060(3) 0.7634(2)
C9 C 0.7857(3) -0.3931(3) 0.7353(2)
H14 H 0.7691 -0.4874 0.7215
N7 N 0.2830(3) 0.8620(3) 0.9871(2)
C10 C 0.3655(3) 0.7234(3) 0.9929(2)
N8 N 0.9386(2) -0.4051(2) 0.75063(18)
Cd1A Cd -0.168824(19) -0.345223(18) 0.269876(14)
N1A N -0.2923(2) -0.4611(2) 0.45948(19)
H1A H -0.2173 -0.5034 0.5099
H2A H -0.3802 -0.3823 0.4914
H3A H -0.3271 -0.5425 0.4503
N2A N -0.3833(2) -0.0818(2) 0.28182(19)
H4A H -0.3373 0.0005 0.2440
H5A H -0.4196 -0.0713 0.3617
N3A N -0.0104(2) -0.2633(2) 0.3737(2)
C1A C -0.2235(3) 0.1143(3) 0.4776(2)
N4A N -0.0616(3) -0.2239(3) 0.0760(2)
H6A H 0.0391 -0.2167 0.0765
H7A H -0.0510 -0.2866 0.0213
H8A H -0.1314 -0.1217 0.0556
N5A N -0.3136(3) -0.4435(3) 0.1691(2)
C2A C -0.3835(3) -0.4668(3) 0.1046(2)
C3A C -0.0036(3) -0.1660(3) 0.4241(2)
C4A C -0.8294(3) 0.1189(3) 0.2192(2)
H9A H -0.8483 0.0278 0.2022
C5A C -0.5291(3) -0.0577(3) 0.2268(2)
H10A H -0.4898 -0.0657 0.1402
H11A H -0.5754 -0.1491 0.2656
N6A N -0.3610(3) 0.1830(3) 0.4638(2)
C6A C -0.6498(3) 0.2468(3) 0.2612(2)
H12A H -0.5463 0.2431 0.2751
C7A C -0.9596(3) 0.2684(3) 0.2273(2)
H13A H -1.0657 0.2743 0.2170
C8A C -0.6703(3) 0.1060(3) 0.2366(2)
C9A C -0.7857(3) 0.3931(3) 0.2647(2)
H14A H -0.7691 0.4874 0.2785
N8A N -0.9386(2) 0.4051(2) 0.24937(18)
N7A N 0.7170(3) 0.1380(3) 1.0129(2)
C10A C 0.6345(3) 0.2766(3) 1.0071(2)
Cd1_2 Cd 1.168824(19) -0.654777(18) 0.730124(14)
Cd1A_2 Cd -1.168824(19) 0.654777(18) 0.269876(14)
Ni2_2 Ni -0.5000 -0.5000 0.0000
C2A_2 C 0.6165(3) 0.5332(3) 1.1046(2)
N8_2 N -0.0614(2) 0.5949(2) 0.75063(18)
N8A_2 N 0.0614(2) -0.5949(2) 0.24937(18)
loop_
_geom_bond_atom_site_label_1
_geom_bond_atom_site_label_2
_geom_bond_site_symmetry_1
_geom_bond_site_symmetry_2
Cd1 N1 1_555 1_555
Ni1 C1 1_555 1_555
Ni2 C2 1_555 1_555
N1 H1 1_555 1_555
H2 N1 1_555 1_555
H3 N1 1_555 1_555
N2 Cd1 1_555 1_555
H4 N2 1_555 1_555
H5 N2 1_555 1_555
N3 Cd1 1_555 1_555
C1 N6 1_555 1_555
N4 Cd1 1_555 1_555
H6 N4 1_555 1_555
H7 N4 1_555 1_555
H8 N4 1_555 1_555
N5 Cd1 1_555 1_555
C2 N5 1_555 1_555
C3 Ni1 1_555 1_555
C4 H9 1_555 1_555
C5 N2 1_555 1_555
H10 C5 1_555 1_555
H11 C5 1_555 1_555
C6 H12 1_555 1_555
C7 C4 1_555 1_555
H13 C7 1_555 1_555
C8 C4 1_555 1_555
C9 C6 1_555 1_555
H14 C9 1_555 1_555
N7 C10 1_555 1_555
C10 Ni2 1_555 1_555
N8 C7 1_555 1_555
Cd1A N1A 1_555 1_555
N1A H1A 1_555 1_555
H2A N1A 1_555 1_555
H3A N1A 1_555 1_555
N2A Cd1A 1_555 1_555
H4A N2A 1_555 1_555
H5A N2A 1_555 1_555
N3A Cd1A 1_555 1_555
C1A Ni1 1_555 1_555
N4A Cd1A 1_555 1_555
H6A N4A 1_555 1_555
H7A N4A 1_555 1_555
H8A N4A 1_555 1_555
N5A Cd1A 1_555 1_555
C2A N5A 1_555 1_555
C3A Ni1 1_555 1_555
C4A H9A 1_555 1_555
C5A N2A 1_555 1_555
H10A C5A 1_555 1_555
H11A C5A 1_555 1_555
N6A C1A 1_555 1_555
C6A H12A 1_555 1_555
C7A C4A 1_555 1_555
H13A C7A 1_555 1_555
C8A C4A 1_555 1_555
C9A C6A 1_555 1_555
H14A C9A 1_555 1_555
N8A C7A 1_555 1_555
N7A C10A 1_555 1_555
C10A Ni2 1_555 1_555
Cd1_2 N8 1_555 1_555
Cd1A_2 N8A 1_555 1_555
Ni2_2 C2A 1_555 1_555
C2A_2 Ni2 1_555 1_555
N8_2 Cd1 1_555 1_555
N8A_2 Cd1A 1_555 1_555
N3 C3 1_555 1_555
C5 C8 1_555 1_555
C6 C8 1_555 1_555
C9 N8 1_555 1_555
N3A C3A 1_555 1_555
C5A C8A 1_555 1_555
C6A C8A 1_555 1_555
C9A N8A 1_555 1_555

#END
