
#######################################################################
#
#                 Cambridge Crystallographic Data Centre
#                                CCDC 
#
#######################################################################
#
# If this CIF has been generated from an entry in the Cambridge 
# Structural Database, then it will include bibliographic, chemical, 
# crystal, experimental, refinement or atomic coordinate data resulting 
# from the CCDC's data processing and validation procedures.
#
#######################################################################

data_WOKSAS
_symmetry_cell_setting           orthorhombic
_symmetry_space_group_name_H-M   'P b c a'
_symmetry_Int_Tables_number      61
_space_group_name_Hall           '-P 2ac 2ab'
loop_
_symmetry_equiv_pos_site_id
_symmetry_equiv_pos_as_xyz
1 x,y,z
2 1/2-x,-y,1/2+z
3 -x,1/2+y,1/2-z
4 1/2+x,1/2-y,-z
5 -x,-y,-z
6 1/2+x,y,1/2-z
7 x,1/2-y,1/2+z
8 1/2-x,1/2+y,z
_cell_length_a                   14.0883(13)
_cell_length_b                   13.8063(11)
_cell_length_c                   14.5821(15)
_cell_angle_alpha                90
_cell_angle_beta                 90
_cell_angle_gamma                90
_cell_volume                     2836.32
loop_
_atom_site_label
_atom_site_type_symbol
_atom_site_fract_x
_atom_site_fract_y
_atom_site_fract_z
Zn1 Zn 0.20462(3) 0.35484(4) 0.05389(3)
N1 N 0.3056(2) 0.3602(3) 0.1608(2)
N2 N 0.5508(2) 0.3819(3) -0.2843(2)
H1 H 0.6019 0.3807 -0.3166
N3 N 0.1569(3) 0.1774(3) -0.0185(3)
O1 O 0.59237(18) 0.3438(2) 0.36139(18)
O2 O 0.4820(2) 0.4048(2) 0.45449(19)
O3 O 0.30793(18) 0.3597(2) -0.04351(18)
O4 O 0.2255(2) 0.4030(3) -0.1672(2)
O5 O 0.2155(2) 0.1949(3) 0.0448(2)
O6 O 0.1142(2) 0.2465(3) -0.0517(2)
O7 O 0.1452(3) 0.0939(3) -0.0435(3)
O8 O 0.1758(2) 0.4990(2) 0.0314(2)
H2 H 0.1280 0.5279 0.0087
H3 H 0.2258 0.5256 0.0108
C1 C 0.5089(3) 0.3716(3) 0.3799(3)
C2 C 0.3984(3) 0.3619(4) 0.1436(3)
H4 H 0.4183 0.3613 0.0828
C3 C 0.4665(3) 0.3644(4) 0.2117(3)
H5 H 0.5306 0.3652 0.1967
C4 C 0.4382(3) 0.3658(3) 0.3022(3)
C5 C 0.3419(3) 0.3630(3) 0.3198(3)
H6 H 0.3200 0.3630 0.3800
C6 C 0.2787(3) 0.3602(3) 0.2486(3)
H7 H 0.2142 0.3582 0.2619
C7 C 0.2994(3) 0.3826(3) -0.1267(3)
C8 C 0.5577(3) 0.3827(4) -0.1934(3)
H8 H 0.6172 0.3826 -0.1658
C9 C 0.4780(3) 0.3835(3) -0.1404(3)
H9 H 0.4827 0.3834 -0.0767
C10 C 0.3901(3) 0.3846(3) -0.1823(3)
C11 C 0.3854(3) 0.3855(3) -0.2767(3)
H10 H 0.3269 0.3880 -0.3061
C12 C 0.4676(3) 0.3828(4) -0.3267(3)
H11 H 0.4651 0.3817 -0.3904
Zn1E Zn 0.70462(3) 0.35484(4) 0.44611(3)
O1E O 0.09237(18) 0.3438(2) 0.13861(18)
loop_
_geom_bond_atom_site_label_1
_geom_bond_atom_site_label_2
_geom_bond_site_symmetry_1
_geom_bond_site_symmetry_2
Zn1 N1 1_555 1_555
N1 C2 1_555 1_555
N2 H1 1_555 1_555
N3 O5 1_555 1_555
O1 C1 1_555 1_555
O2 C1 1_555 1_555
O3 Zn1 1_555 1_555
O4 C7 1_555 1_555
O5 Zn1 1_555 1_555
O6 Zn1 1_555 1_555
O7 N3 1_555 1_555
O8 Zn1 1_555 1_555
H2 O8 1_555 1_555
H3 O8 1_555 1_555
C1 C4 1_555 1_555
C2 H4 1_555 1_555
C3 C2 1_555 1_555
H5 C3 1_555 1_555
C4 C3 1_555 1_555
C5 C4 1_555 1_555
H6 C5 1_555 1_555
C6 N1 1_555 1_555
H7 C6 1_555 1_555
C7 O3 1_555 1_555
C8 N2 1_555 1_555
H8 C8 1_555 1_555
C9 C8 1_555 1_555
H9 C9 1_555 1_555
C10 C7 1_555 1_555
C11 C10 1_555 1_555
H10 C11 1_555 1_555
C12 N2 1_555 1_555
H11 C12 1_555 1_555
Zn1E O1 1_555 1_555
O1E Zn1 1_555 1_555
N3 O6 1_555 1_555
C5 C6 1_555 1_555
C9 C10 1_555 1_555
C11 C12 1_555 1_555

#END
