
#######################################################################
#
#                 Cambridge Crystallographic Data Centre
#                                CCDC 
#
#######################################################################
#
# If this CIF has been generated from an entry in the Cambridge 
# Structural Database, then it will include bibliographic, chemical, 
# crystal, experimental, refinement or atomic coordinate data resulting 
# from the CCDC's data processing and validation procedures.
#
#######################################################################

data_WOKSEW
_symmetry_cell_setting           triclinic
_symmetry_space_group_name_H-M   'P -1'
_symmetry_Int_Tables_number      2
_space_group_name_Hall           '-P 1'
loop_
_symmetry_equiv_pos_site_id
_symmetry_equiv_pos_as_xyz
1 x,y,z
2 -x,-y,-z
_cell_length_a                   8.6081(10)
_cell_length_b                   8.7713(11)
_cell_length_c                   11.7263(13)
_cell_angle_alpha                76.056(10)
_cell_angle_beta                 75.364(9)
_cell_angle_gamma                68.561(11)
_cell_volume                     786.449
loop_
_atom_site_label
_atom_site_type_symbol
_atom_site_fract_x
_atom_site_fract_y
_atom_site_fract_z
Pt1 Pt 0.0000 0.0000 0.0000
Pt2 Pt 0.5000 0.5000 0.5000
Cd1 Cd 0.3329(2) 0.1548(2) 0.26451(16)
N1 N 0.112(2) 0.410(2) 0.2871(19)
H1 H 0.0683 0.4101 0.3654
H2 H 0.1559 0.4930 0.2607
C1 C 0.126(3) 0.042(3) 0.103(2)
N2 N -0.436(2) 0.914(2) 0.2453(19)
C2 C 0.488(3) 0.340(3) 0.417(2)
C3 C 0.260(3) 0.636(3) 0.484(2)
N3 N 0.478(2) 0.241(2) 0.3628(19)
C4 C -0.032(3) 0.444(3) 0.221(2)
H3 H -0.0814 0.3555 0.2506
H4 H 0.0144 0.4425 0.1370
O1 O 0.4396(19) 0.2932(19) 0.0852(14)
H5 H 0.4156 0.2679 0.0253
H6 H 0.5501 0.2654 0.0755
C5 C -0.317(3) 0.644(3) 0.193(2)
H7 H -0.3293 0.5646 0.1581
O2 O 0.2107(19) 0.045(2) 0.4520(14)
H8 H 0.1981 -0.0483 0.4501
H9 H 0.1109 0.1144 0.4754
C6 C -0.301(3) 0.882(3) 0.291(2)
H10 H -0.2940 0.9599 0.3289
N4 N 0.123(2) 0.705(2) 0.4730(19)
C7 C -0.443(3) 0.792(3) 0.201(2)
H11 H -0.5414 0.8086 0.1742
C8 C -0.175(3) 0.613(3) 0.236(2)
N5 N 0.187(2) 0.069(2) 0.1656(19)
C9 C -0.165(3) 0.731(3) 0.283(2)
H12 H -0.0674 0.7148 0.3111
C10 C -0.143(3) 0.237(3) -0.015(2)
N6 N -0.235(3) 0.373(3) -0.025(2)
Cd1A Cd -0.3329(2) -0.1548(2) -0.26451(16)
N1A N -0.112(2) -0.410(2) -0.2871(19)
H1A H -0.0683 -0.4101 -0.3654
H2A H -0.1559 -0.4930 -0.2607
C1A C -0.126(3) -0.042(3) -0.103(2)
N2A N 0.436(2) -0.914(2) -0.2453(19)
C2A C -0.488(3) -0.340(3) -0.417(2)
N3A N -0.478(2) -0.241(2) -0.3628(19)
C4A C 0.032(3) -0.444(3) -0.221(2)
H3A H 0.0814 -0.3555 -0.2506
H4A H -0.0144 -0.4425 -0.1370
O1A O -0.4396(19) -0.2932(19) -0.0852(14)
H5A H -0.4156 -0.2679 -0.0253
H6A H -0.5501 -0.2654 -0.0755
C5A C 0.317(3) -0.644(3) -0.193(2)
H7A H 0.3293 -0.5646 -0.1581
O2A O -0.2107(19) -0.045(2) -0.4520(14)
H8A H -0.1981 0.0483 -0.4501
H9A H -0.1109 -0.1144 -0.4754
C6A C 0.301(3) -0.882(3) -0.291(2)
H10A H 0.2940 -0.9599 -0.3289
C7A C 0.443(3) -0.792(3) -0.201(2)
H11A H 0.5414 -0.8086 -0.1742
C8A C 0.175(3) -0.613(3) -0.236(2)
N5A N -0.187(2) -0.069(2) -0.1656(19)
C9A C 0.165(3) -0.731(3) -0.283(2)
H12A H 0.0674 -0.7148 -0.3111
C10A C 0.143(3) -0.237(3) 0.015(2)
N6A N 0.235(3) -0.373(3) 0.025(2)
C3A C 0.740(3) 0.364(3) 0.516(2)
N4A N 0.877(2) 0.295(2) 0.5270(19)
Pt2_2 Pt -0.5000 -0.5000 -0.5000
Cd1_2 Cd -0.6671(2) 1.1548(2) 0.26451(16)
Cd1A_2 Cd 0.6671(2) -1.1548(2) -0.26451(16)
N2_2 N 0.564(2) -0.086(2) 0.2453(19)
N2A_2 N -0.564(2) 0.086(2) -0.2453(19)
C2A_2 C 0.512(3) 0.660(3) 0.583(2)
loop_
_geom_bond_atom_site_label_1
_geom_bond_atom_site_label_2
_geom_bond_site_symmetry_1
_geom_bond_site_symmetry_2
Pt1 C1 1_555 1_555
Pt2 C2 1_555 1_555
Cd1 N1 1_555 1_555
N1 H1 1_555 1_555
H2 N1 1_555 1_555
C1 N5 1_555 1_555
N2 C6 1_555 1_555
C2 N3 1_555 1_555
C3 Pt2 1_555 1_555
N3 Cd1 1_555 1_555
C4 N1 1_555 1_555
H3 C4 1_555 1_555
H4 C4 1_555 1_555
O1 Cd1 1_555 1_555
H5 O1 1_555 1_555
H6 O1 1_555 1_555
C5 H7 1_555 1_555
O2 Cd1 1_555 1_555
H8 O2 1_555 1_555
H9 O2 1_555 1_555
C6 H10 1_555 1_555
N4 C3 1_555 1_555
C7 N2 1_555 1_555
H11 C7 1_555 1_555
C8 C4 1_555 1_555
N5 Cd1 1_555 1_555
C9 C6 1_555 1_555
H12 C9 1_555 1_555
C10 Pt1 1_555 1_555
N6 C10 1_555 1_555
Cd1A N1A 1_555 1_555
N1A H1A 1_555 1_555
H2A N1A 1_555 1_555
C1A Pt1 1_555 1_555
N2A C6A 1_555 1_555
C2A N3A 1_555 1_555
N3A Cd1A 1_555 1_555
C4A N1A 1_555 1_555
H3A C4A 1_555 1_555
H4A C4A 1_555 1_555
O1A Cd1A 1_555 1_555
H5A O1A 1_555 1_555
H6A O1A 1_555 1_555
C5A H7A 1_555 1_555
O2A Cd1A 1_555 1_555
H8A O2A 1_555 1_555
H9A O2A 1_555 1_555
C6A H10A 1_555 1_555
C7A N2A 1_555 1_555
H11A C7A 1_555 1_555
C8A C4A 1_555 1_555
N5A Cd1A 1_555 1_555
C9A C6A 1_555 1_555
H12A C9A 1_555 1_555
C10A Pt1 1_555 1_555
N6A C10A 1_555 1_555
C3A Pt2 1_555 1_555
N4A C3A 1_555 1_555
Pt2_2 C2A 1_555 1_555
Cd1_2 N2 1_555 1_555
Cd1A_2 N2A 1_555 1_555
N2_2 Cd1 1_555 1_555
N2A_2 Cd1A 1_555 1_555
C2A_2 Pt2 1_555 1_555
C5 C7 1_555 1_555
C5 C8 1_555 1_555
C8 C9 1_555 1_555
C1A N5A 1_555 1_555
C5A C7A 1_555 1_555
C5A C8A 1_555 1_555
C8A C9A 1_555 1_555

#END
