
#######################################################################
#
#                 Cambridge Crystallographic Data Centre
#                                CCDC 
#
#######################################################################
#
# If this CIF has been generated from an entry in the Cambridge 
# Structural Database, then it will include bibliographic, chemical, 
# crystal, experimental, refinement or atomic coordinate data resulting 
# from the CCDC's data processing and validation procedures.
#
#######################################################################

data_WOKVEZ
_symmetry_cell_setting           monoclinic
_symmetry_space_group_name_H-M   'P 21/c'
_symmetry_Int_Tables_number      14
_space_group_name_Hall           '-P 2ybc'
loop_
_symmetry_equiv_pos_site_id
_symmetry_equiv_pos_as_xyz
1 x,y,z
2 -x,1/2+y,1/2-z
3 -x,-y,-z
4 x,1/2-y,1/2+z
_cell_length_a                   8.6868(8)
_cell_length_b                   13.2161(11)
_cell_length_c                   11.1387(9)
_cell_angle_alpha                90
_cell_angle_beta                 97.977(3)
_cell_angle_gamma                90
_cell_volume                     1266.41
loop_
_atom_site_label
_atom_site_type_symbol
_atom_site_fract_x
_atom_site_fract_y
_atom_site_fract_z
Ni1 Ni 1.0000 0.0000 0.5000
O1 O 0.8453(3) 0.1262(2) 0.5039(2)
O2 O 0.7607(4) 0.1204(2) 0.6843(3)
N1 N 0.7966(5) -0.1785(3) 0.6026(4)
N2 N 1.0252(5) 0.0398(3) 0.3276(3)
N3 N 0.8153(4) -0.0942(3) 0.4219(3)
C1 C 0.6897(5) 0.2611(3) 0.5582(4)
C2 C 0.7095(6) 0.3181(3) 0.4575(4)
H1 H 0.7742 0.2940 0.4041
C3 C 0.5910(5) 0.2994(3) 0.6353(4)
H2 H 0.5745 0.2628 0.7037
C4 C 0.5172(5) 0.3913(3) 0.6113(4)
H3 H 0.4509 0.4148 0.6639
C5 C 0.6358(6) 0.4095(3) 0.4342(4)
H4 H 0.6515 0.4454 0.3651
C6 C 0.5385(5) 0.4498(3) 0.5114(3)
C7 C 0.7718(5) 0.1619(3) 0.5854(4)
C8 C 0.8359(6) -0.1963(3) 0.4831(5)
H5 H 0.7669 -0.2461 0.4402
H6 H 0.9423 -0.2198 0.4870
C9 C 0.6593(6) -0.1111(4) 0.5800(5)
H7 H 0.6665 -0.0570 0.6393
H8 H 0.5644 -0.1489 0.5841
C10 C 0.6614(5) -0.0689(4) 0.4538(5)
H9 H 0.5800 -0.0995 0.3969
H10 H 0.6461 0.0038 0.4533
C11 C 0.8281(6) -0.0955(4) 0.2924(4)
H11 H 0.7299 -0.1162 0.2467
H12 H 0.9073 -0.1435 0.2766
C12 C 0.8711(6) 0.0107(3) 0.2530(4)
H13 H 0.8809 0.0111 0.1673
H14 H 0.7909 0.0587 0.2669
C13 C 1.0777(6) 0.1430(4) 0.3082(5)
H15 H 1.1110 0.1466 0.2288
H16 H 0.9901 0.1885 0.3080
H17 H 1.103(6) -0.005(3) 0.307(5)
O1B O 0.1547(3) 0.8738(2) 0.4961(2)
O2B O 0.2393(4) 0.8796(2) 0.3157(3)
C1B C 0.3103(5) 0.7389(3) 0.4418(4)
C2B C 0.2905(6) 0.6819(3) 0.5425(4)
H1B H 0.2258 0.7060 0.5959
C3B C 0.4090(5) 0.7006(3) 0.3647(4)
H2B H 0.4255 0.7372 0.2963
C4B C 0.4828(5) 0.6087(3) 0.3887(4)
H3B H 0.5491 0.5852 0.3361
C5B C 0.3642(6) 0.5905(3) 0.5658(4)
H4B H 0.3485 0.5546 0.6349
C6B C 0.4615(5) 0.5502(3) 0.4886(3)
C7B C 0.2282(5) 0.8381(3) 0.4146(4)
N1B N 1.2034(5) 0.1785(3) 0.3974(4)
N2B N 0.9748(5) -0.0398(3) 0.6724(3)
N3B N 1.1847(4) 0.0942(3) 0.5781(3)
C8B C 1.1641(6) 0.1963(3) 0.5169(5)
H5B H 1.2331 0.2461 0.5598
H6B H 1.0577 0.2198 0.5130
C9B C 1.3407(6) 0.1111(4) 0.4200(5)
H7B H 1.3335 0.0570 0.3607
H8B H 1.4356 0.1489 0.4159
C10B C 1.3386(5) 0.0689(4) 0.5462(5)
H9B H 1.4200 0.0995 0.6031
H10B H 1.3539 -0.0038 0.5467
C11B C 1.1719(6) 0.0955(4) 0.7076(4)
H11B H 1.2701 0.1162 0.7533
H12B H 1.0927 0.1435 0.7234
C12B C 1.1289(6) -0.0107(3) 0.7470(4)
H13B H 1.1191 -0.0111 0.8327
H14B H 1.2091 -0.0587 0.7331
C13B C 0.9223(6) -0.1430(4) 0.6918(5)
H15B H 0.8890 -0.1466 0.7712
H16B H 1.0099 -0.1885 0.6920
H17B H 0.897(6) 0.005(3) 0.693(5)
Ni1_2 Ni 0.0000 1.0000 0.5000
O1B_2 O 1.1547(3) -0.1262(2) 0.4961(2)
loop_
_geom_bond_atom_site_label_1
_geom_bond_atom_site_label_2
_geom_bond_site_symmetry_1
_geom_bond_site_symmetry_2
Ni1 O1 1_555 1_555
O1 C7 1_555 1_555
O2 C7 1_555 1_555
N1 C8 1_555 1_555
N2 Ni1 1_555 1_555
N3 Ni1 1_555 1_555
C1 C2 1_555 1_555
C2 H1 1_555 1_555
C3 C1 1_555 1_555
H2 C3 1_555 1_555
C4 C3 1_555 1_555
H3 C4 1_555 1_555
C5 C2 1_555 1_555
H4 C5 1_555 1_555
C6 C4 1_555 1_555
C7 C1 1_555 1_555
C8 N3 1_555 1_555
H5 C8 1_555 1_555
H6 C8 1_555 1_555
C9 N1 1_555 1_555
H7 C9 1_555 1_555
H8 C9 1_555 1_555
C10 N3 1_555 1_555
H9 C10 1_555 1_555
H10 C10 1_555 1_555
C11 N3 1_555 1_555
H11 C11 1_555 1_555
H12 C11 1_555 1_555
C12 N2 1_555 1_555
H13 C12 1_555 1_555
H14 C12 1_555 1_555
C13 N2 1_555 1_555
H15 C13 1_555 1_555
H16 C13 1_555 1_555
H17 N2 1_555 1_555
O1B C7B 1_555 1_555
O2B C7B 1_555 1_555
C1B C2B 1_555 1_555
C2B H1B 1_555 1_555
C3B C1B 1_555 1_555
H2B C3B 1_555 1_555
C4B C3B 1_555 1_555
H3B C4B 1_555 1_555
C5B C2B 1_555 1_555
H4B C5B 1_555 1_555
C6B C6 1_555 1_555
C7B C1B 1_555 1_555
N1B C13 1_555 1_555
N2B Ni1 1_555 1_555
N3B Ni1 1_555 1_555
C8B N1B 1_555 1_555
H5B C8B 1_555 1_555
H6B C8B 1_555 1_555
C9B N1B 1_555 1_555
H7B C9B 1_555 1_555
H8B C9B 1_555 1_555
C10B N3B 1_555 1_555
H9B C10B 1_555 1_555
H10B C10B 1_555 1_555
C11B N3B 1_555 1_555
H11B C11B 1_555 1_555
H12B C11B 1_555 1_555
C12B N2B 1_555 1_555
H13B C12B 1_555 1_555
H14B C12B 1_555 1_555
C13B N1 1_555 1_555
H15B C13B 1_555 1_555
H16B C13B 1_555 1_555
H17B N2B 1_555 1_555
Ni1_2 O1B 1_555 1_555
O1B_2 Ni1 1_555 1_555
C5 C6 1_555 1_555
C9 C10 1_555 1_555
C11 C12 1_555 1_555
C4B C6B 1_555 1_555
C5B C6B 1_555 1_555
N2B C13B 1_555 1_555
N3B C8B 1_555 1_555
C9B C10B 1_555 1_555
C11B C12B 1_555 1_555

#END
