
#######################################################################
#
#                 Cambridge Crystallographic Data Centre
#                                CCDC 
#
#######################################################################
#
# If this CIF has been generated from an entry in the Cambridge 
# Structural Database, then it will include bibliographic, chemical, 
# crystal, experimental, refinement or atomic coordinate data resulting 
# from the CCDC's data processing and validation procedures.
#
#######################################################################

data_WOKYIG
_symmetry_cell_setting           triclinic
_symmetry_space_group_name_H-M   'P -1'
_symmetry_Int_Tables_number      2
_space_group_name_Hall           '-P 1'
loop_
_symmetry_equiv_pos_site_id
_symmetry_equiv_pos_as_xyz
1 x,y,z
2 -x,-y,-z
_cell_length_a                   11.1470(5)
_cell_length_b                   13.0560(6)
_cell_length_c                   14.4500(7)
_cell_angle_alpha                93.050(4)
_cell_angle_beta                 90.862(4)
_cell_angle_gamma                94.400(4)
_cell_volume                     2093.43
loop_
_atom_site_label
_atom_site_type_symbol
_atom_site_fract_x
_atom_site_fract_y
_atom_site_fract_z
C33 C 1.0562(18) 0.0629(11) 0.0667(9)
C34 C 1.1167(19) 0.0055(13) 0.0203(10)
C35 C 1.1229(8) -0.1245(8) -0.1015(6)
C36 C 1.2242(9) -0.1602(9) -0.0605(6)
H25 H 1.2421 -0.1438 0.0019
C37 C 1.2987(8) -0.2203(9) -0.1127(8)
H26 H 1.3664 -0.2442 -0.0853
N5 N 1.2719(8) -0.2449(7) -0.2059(8)
C38 C 1.1706(8) -0.2092(8) -0.2469(6)
H27 H 1.1527 -0.2256 -0.3092
C39 C 1.0961(7) -0.1491(8) -0.1947(6)
H28 H 1.0283 -0.1252 -0.2221
C40 C 1.0674(11) -0.0665(9) -0.0525(9)
N6 N 1.0674(11) -0.0665(9) -0.0525(9)
C33A C 0.9438(18) -0.0629(11) -0.0667(9)
C34A C 0.8833(19) -0.0055(13) -0.0203(10)
C35A C 0.8771(8) 0.1245(8) 0.1015(6)
C36A C 0.7758(9) 0.1602(9) 0.0605(6)
H25A H 0.7579 0.1438 -0.0019
C37A C 0.7013(8) 0.2203(9) 0.1127(8)
H26A H 0.6336 0.2442 0.0853
N5A N 0.7281(8) 0.2449(7) 0.2059(8)
C38A C 0.8294(8) 0.2092(8) 0.2469(6)
H27A H 0.8473 0.2256 0.3092
C39A C 0.9039(7) 0.1491(8) 0.1947(6)
H28A H 0.9717 0.1252 0.2221
C40A C 0.9326(11) 0.0665(9) 0.0525(9)
N6A N 0.9326(11) 0.0665(9) 0.0525(9)
C41 C 0.386(4) 0.044(4) 0.103(3)
C42 C 0.3799(17) 0.1814(15) 0.1188(14)
N7 N 0.473(3) 0.011(4) 0.0221(19)
C41A C 0.614(4) -0.044(4) -0.103(3)
C42A C 0.6201(17) -0.1814(15) -0.1188(14)
N7A N 0.527(3) -0.011(4) -0.0221(19)
O7 O 0.5363(7) 0.6486(7) 0.9894(7)
O8 O 0.3878(8) -0.1740(7) 0.1406(6)
O9 O 0.4863(10) 0.2604(10) 0.2941(9)
Ag1 Ag 0.04538(5) 0.61390(4) 0.96352(4)
Ag2 Ag 0.53781(6) 0.11408(5) 0.45769(5)
C1 C 0.0846(6) 0.4747(5) 0.7934(4)
H1 H 0.0020 0.4787 0.7867
C2 C 0.1434(5) 0.4157(5) 0.7288(4)
H2 H 0.1007 0.3798 0.6800
C3 C 0.2666(5) 0.4106(4) 0.7378(4)
C4 C 0.3274(5) 0.4661(5) 0.8110(4)
H3 H 0.4100 0.4642 0.8195
C5 C 0.2607(6) 0.5246(5) 0.8709(5)
H4 H 0.3018 0.5650 0.9179
C6 C 0.3311(5) 0.3455(4) 0.6721(4)
C7 C 0.4256(5) 0.2883(4) 0.7042(4)
H5 H 0.4497 0.2939 0.7663
C8 C 0.4807(5) 0.2246(5) 0.6419(4)
H6 H 0.5424 0.1874 0.6632
C9 C 0.3607(6) 0.2672(5) 0.5218(4)
H7 H 0.3382 0.2599 0.4594
C10 C 0.3008(5) 0.3331(5) 0.5794(4)
H8 H 0.2398 0.3693 0.5554
C11 C 0.5994(6) 0.0121(5) 0.2709(5)
H9 H 0.5279 0.0378 0.2522
C12 C 0.6603(6) -0.0468(5) 0.2077(4)
H10 H 0.6306 -0.0592 0.1473
C13 C 0.7667(5) -0.0877(5) 0.2348(4)
C14 C 0.8080(6) -0.0638(5) 0.3244(4)
H11 H 0.8794 -0.0884 0.3447
C15 C 0.7442(7) -0.0038(6) 0.3839(5)
H12 H 0.7739 0.0116 0.4439
C16 C 0.8314(5) -0.1557(4) 0.1710(4)
C17 C 0.7686(6) -0.2170(5) 0.1018(4)
H13 H 0.6860 -0.2145 0.0936
C18 C 0.8320(6) -0.2821(5) 0.0454(4)
H14 H 0.7901 -0.3242 0.0000
C19 C 0.9535(5) -0.1605(5) 0.1780(4)
H15 H 0.9982 -0.1196 0.2228
C20 C 1.0094(5) -0.2262(5) 0.1184(4)
H16 H 1.0924 -0.2284 0.1238
N1 N 0.1432(5) 0.5264(4) 0.8655(4)
N2 N 0.4490(5) 0.2138(4) 0.5515(4)
N3 N 0.6395(5) 0.0335(4) 0.3578(4)
N4 N 0.9503(5) -0.2865(4) 0.0537(4)
C21 C 0.3075(7) 0.5996(6) 1.4480(5)
C22 C 0.3634(7) 0.5227(6) 1.4058(6)
H17 H 0.4089 0.4811 1.4404
C23 C 0.3528(6) 0.5058(5) 1.3112(5)
H18 H 0.3909 0.4526 1.2817
C24 C 0.2867(5) 0.5669(5) 1.2610(5)
C25 C 0.2296(6) 0.6475(5) 1.3055(5)
H19 H 0.1846 0.6898 1.2713
C26 C 0.2409(7) 0.6632(6) 1.3996(5)
H20 H 0.2038 0.7163 1.4303
O1 O 0.1807(6) 0.4606(6) 1.1260(5)
O2 O 0.2326(8) 0.6360(6) 1.1032(4)
O3 O 0.3863(5) 0.5190(6) 1.1086(4)
S1 S 0.27097(14) 0.54442(15) 1.13898(12)
Cl1 Cl 0.3216(3) 0.6208(2) 1.56774(15)
C27 C 0.1659(5) 0.0910(5) 0.3572(4)
C28 C 0.0871(6) 0.1114(6) 0.4275(5)
H21 H 0.0610 0.0593 0.4656
C29 C 0.0472(7) 0.2070(6) 0.4416(6)
H22 H -0.0056 0.2207 0.4892
C30 C 0.0859(7) 0.2817(6) 0.3849(7)
C31 C 0.1640(8) 0.2628(6) 0.3127(6)
H23 H 0.1887 0.3145 0.2737
C32 C 0.2035(6) 0.1662(6) 0.3004(5)
H24 H 0.2563 0.1521 0.2529
O4 O 0.3365(5) -0.0242(5) 0.3951(4)
O5 O 0.2332(7) -0.0556(5) 0.2482(4)
O6 O 0.1338(5) -0.1015(4) 0.3892(5)
S2 S 0.22135(16) -0.03274(15) 0.34508(13)
Cl2 Cl 0.0396(3) 0.40575(18) 0.4032(2)
Ag1_2 Ag 1.04538(5) -0.38610(4) -0.03648(4)
Ag2A Ag 0.46219(6) -0.11408(5) 0.54231(5)
N4_2 N -0.0497(5) 0.7135(4) 1.0537(4)
O4A O 0.6635(5) 0.0242(5) 0.6049(4)
loop_
_geom_bond_atom_site_label_1
_geom_bond_atom_site_label_2
_geom_bond_site_symmetry_1
_geom_bond_site_symmetry_2
Ag1 N1 1_555 1_555
Ag2 N2 1_555 1_555
C1 H1 1_555 1_555
C2 C1 1_555 1_555
H2 C2 1_555 1_555
C3 C2 1_555 1_555
C4 C3 1_555 1_555
H3 C4 1_555 1_555
C5 C4 1_555 1_555
H4 C5 1_555 1_555
C6 C3 1_555 1_555
C7 C6 1_555 1_555
H5 C7 1_555 1_555
C8 C7 1_555 1_555
H6 C8 1_555 1_555
C9 H7 1_555 1_555
C10 C6 1_555 1_555
H8 C10 1_555 1_555
C11 H9 1_555 1_555
C12 C11 1_555 1_555
H10 C12 1_555 1_555
C13 C12 1_555 1_555
C14 C13 1_555 1_555
H11 C14 1_555 1_555
C15 C14 1_555 1_555
H12 C15 1_555 1_555
C16 C13 1_555 1_555
C17 C16 1_555 1_555
H13 C17 1_555 1_555
C18 C17 1_555 1_555
H14 C18 1_555 1_555
C19 C16 1_555 1_555
H15 C19 1_555 1_555
C20 C19 1_555 1_555
H16 C20 1_555 1_555
N1 C1 1_555 1_555
N2 C8 1_555 1_555
N3 Ag2 1_555 1_555
N4 C18 1_555 1_555
C21 C22 1_555 1_555
C22 H17 1_555 1_555
C23 C22 1_555 1_555
H18 C23 1_555 1_555
C24 C23 1_555 1_555
C25 C24 1_555 1_555
H19 C25 1_555 1_555
C26 C21 1_555 1_555
H20 C26 1_555 1_555
O1 S1 1_555 1_555
O2 Ag1 1_555 1_555
O3 S1 1_555 1_555
S1 C24 1_555 1_555
Cl1 C21 1_555 1_555
C27 C28 1_555 1_555
C28 H21 1_555 1_555
C29 C28 1_555 1_555
H22 C29 1_555 1_555
C30 C29 1_555 1_555
C31 C30 1_555 1_555
H23 C31 1_555 1_555
C32 C27 1_555 1_555
H24 C32 1_555 1_555
O4 Ag2 1_555 1_555
O5 S2 1_555 1_555
O6 S2 1_555 1_555
S2 C27 1_555 1_555
Cl2 C30 1_555 1_555
C33 C34 1_555 1_555
C34 C40 1_555 1_555
C35 C36 1_555 1_555
C36 H25 1_555 1_555
C37 C36 1_555 1_555
H26 C37 1_555 1_555
N5 C37 1_555 1_555
C38 N5 1_555 1_555
H27 C38 1_555 1_555
C39 C35 1_555 1_555
H28 C39 1_555 1_555
C40 C35 1_555 1_555
N6 C34 1_555 1_555
C41 C42 1_555 1_555
N7 C41 1_555 1_555
Ag1_2 N4 1_555 1_555
Ag2A O4 1_555 1_555
N4_2 Ag1 1_555 1_555
O4A Ag2 1_555 1_555
C33A C40 1_555 1_555
C34A C33A 1_555 1_555
C35A C36A 1_555 1_555
C36A H25A 1_555 1_555
C37A C36A 1_555 1_555
H26A C37A 1_555 1_555
N5A C37A 1_555 1_555
C38A N5A 1_555 1_555
H27A C38A 1_555 1_555
C39A C35A 1_555 1_555
H28A C39A 1_555 1_555
C40A C33 1_555 1_555
N6A C33 1_555 1_555
C41A C42A 1_555 1_555
N7A N7 1_555 1_555
C5 N1 1_555 1_555
C9 C10 1_555 1_555
C9 N2 1_555 1_555
C11 N3 1_555 1_555
C15 N3 1_555 1_555
C20 N4 1_555 1_555
C25 C26 1_555 1_555
O2 S1 1_555 1_555
C31 C32 1_555 1_555
O4 S2 1_555 1_555
C35 N6 1_555 1_555
C38 C39 1_555 1_555
N6 C33A 1_555 1_555
Ag2A O4A 1_555 1_555
C34A C40A 1_555 1_555
C34A N6A 1_555 1_555
C35A C40A 1_555 1_555
C35A N6A 1_555 1_555
C38A C39A 1_555 1_555
C41A N7A 1_555 1_555

#END
