
#######################################################################
#
#                 Cambridge Crystallographic Data Centre
#                                CCDC 
#
#######################################################################
#
# If this CIF has been generated from an entry in the Cambridge 
# Structural Database, then it will include bibliographic, chemical, 
# crystal, experimental, refinement or atomic coordinate data resulting 
# from the CCDC's data processing and validation procedures.
#
#######################################################################

data_WOLHUC
_symmetry_cell_setting           monoclinic
_symmetry_space_group_name_H-M   'P 21/c'
_symmetry_Int_Tables_number      14
_space_group_name_Hall           '-P 2ybc'
loop_
_symmetry_equiv_pos_site_id
_symmetry_equiv_pos_as_xyz
1 x,y,z
2 -x,1/2+y,1/2-z
3 -x,-y,-z
4 x,1/2-y,1/2+z
_cell_length_a                   17.8211(13)
_cell_length_b                   7.3609(5)
_cell_length_c                   19.3030(14)
_cell_angle_alpha                90
_cell_angle_beta                 112.1360(10)
_cell_angle_gamma                90
_cell_volume                     2345.51
loop_
_atom_site_label
_atom_site_type_symbol
_atom_site_fract_x
_atom_site_fract_y
_atom_site_fract_z
Ag1 Ag 0.738403(13) 0.12649(3) 0.016177(11)
C1 C 0.85713(16) 0.1214(4) 0.19354(14)
O1 O 0.70179(13) -0.3625(3) 0.01676(15)
N1 N 0.69072(15) 1.1164(3) 0.30144(13)
C2 C 0.93688(15) -0.1147(4) -0.00088(13)
N2 N 0.82338(15) 0.3776(3) 0.23477(12)
O2 O 0.81160(12) -0.1707(3) 0.01130(14)
C3 C 0.56736(15) -0.3917(4) 0.00827(14)
C4 C 0.64723(16) 1.3705(4) 0.33576(14)
O3 O 0.87615(13) -0.4055(3) -0.01166(14)
N3 N 0.79725(14) 0.2066(3) 0.13309(12)
C5 C 0.87118(16) -0.2437(4) -0.00122(14)
O4 O 0.63447(14) -0.1088(3) 0.01798(15)
C6 C 0.78069(18) 0.3578(4) 0.16079(16)
H1 H 0.7432 0.4428 0.1322
C7 C 0.72428(18) 1.1364(4) 0.37657(16)
H2 H 0.7604 1.0536 0.4084
C8 C 0.57127(16) -0.5793(4) 0.00363(15)
H3 H 0.6194 -0.6334 0.0061
C9 C 0.87300(17) 0.2276(4) 0.25715(15)
C10 C 0.49519(16) -0.3123(4) 0.00463(15)
H4 H 0.4915 -0.1868 0.0077
C11 C 0.63915(16) -0.2744(4) 0.01509(15)
C12 C 0.64128(17) 1.2647(4) 0.27405(15)
C13 C 1.00121(17) -0.1820(4) -0.01718(16)
H5 H 1.0024 -0.3042 -0.0290
C14 C 0.93630(16) 0.0679(4) 0.01601(16)
H6 H 0.8934 0.1148 0.0267
C15 C 0.59232(19) 1.3133(5) 0.20133(16)
H7 H 0.5887 1.2419 0.1604
C16 C 0.5499(2) 1.4721(5) 0.19333(17)
H8 H 0.5166 1.5096 0.1456
C17 C 0.60327(19) 1.5294(4) 0.32633(17)
H9 H 0.6061 1.6006 0.3671
C18 C 0.9572(2) -0.0862(5) 0.26596(19)
H10 H 0.9866 -0.1929 0.2702
C19 C 0.69787(19) 0.9644(4) 0.25518(17)
H11 H 0.7130 1.0119 0.2154
H12 H 0.6453 0.9070 0.2321
C20 C 0.9727(2) 0.0226(5) 0.32879(18)
H13 H 1.0126 -0.0132 0.3739
C21 C 0.89909(19) -0.0393(4) 0.19746(17)
H14 H 0.8885 -0.1127 0.1556
C22 C 0.8211(2) 0.5281(4) 0.28381(17)
H15 H 0.8745 0.5828 0.3051
H16 H 0.8079 0.4803 0.3247
C23 C 0.7585(2) 0.8231(4) 0.29745(17)
H17 H 0.7438 0.7731 0.3371
H18 H 0.8118 0.8779 0.3200
C24 C 0.93134(19) 0.1806(5) 0.32637(17)
H19 H 0.9416 0.2524 0.3686
C25 C 0.76062(19) 0.6716(4) 0.24394(17)
H20 H 0.7073 0.6172 0.2217
H21 H 0.7745 0.7227 0.2040
C26 C 0.5549(2) 1.5790(5) 0.25422(18)
H22 H 0.5252 1.6861 0.2463
N4 N 0.70036(14) 1.2863(3) 0.40004(12)
H23 H 0.748(2) -0.303(7) 0.017(2)
O1B O 0.29821(13) -0.6375(3) -0.01676(15)
C3B C 0.43264(15) -0.6083(4) -0.00827(14)
O4B O 0.36553(14) -0.8912(3) -0.01798(15)
C8B C 0.42873(16) -0.4207(4) -0.00363(15)
H3B H 0.3806 -0.3666 -0.0061
C10B C 0.50481(16) -0.6877(4) -0.00463(15)
H4B H 0.5085 -0.8132 -0.0077
C11B C 0.36085(16) -0.7256(4) -0.01509(15)
H23B H 0.252(2) -0.697(7) -0.017(2)
C2B C 1.06312(15) 0.1147(4) 0.00088(13)
O2B O 1.18840(12) 0.1707(3) -0.01130(14)
O3B O 1.12385(13) 0.4055(3) 0.01166(14)
C5B C 1.12882(16) 0.2437(4) 0.00122(14)
C13B C 0.99879(17) 0.1820(4) 0.01718(16)
H5B H 0.9976 0.3042 0.0290
C14B C 1.06370(16) -0.0679(4) -0.01601(16)
H6B H 1.1066 -0.1148 -0.0267
Ag1B Ag 0.261597(13) -1.12649(3) -0.016177(11)
C1B C 0.14287(16) -1.1214(4) -0.19354(14)
N1B N 0.30928(15) -2.1164(3) -0.30144(13)
N2B N 0.17662(15) -1.3776(3) -0.23477(12)
C4B C 0.35277(16) -2.3705(4) -0.33576(14)
N3B N 0.20275(14) -1.2066(3) -0.13309(12)
C6B C 0.21931(18) -1.3578(4) -0.16079(16)
H1B H 0.2568 -1.4428 -0.1322
C7B C 0.27572(18) -2.1364(4) -0.37657(16)
H2B H 0.2396 -2.0536 -0.4084
C9B C 0.12700(17) -1.2276(4) -0.25715(15)
C12B C 0.35872(17) -2.2647(4) -0.27405(15)
C15B C 0.40768(19) -2.3133(5) -0.20133(16)
H7B H 0.4113 -2.2419 -0.1604
C16B C 0.4501(2) -2.4721(5) -0.19333(17)
H8B H 0.4834 -2.5096 -0.1456
C17B C 0.39673(19) -2.5294(4) -0.32633(17)
H9B H 0.3939 -2.6006 -0.3671
C18B C 0.0428(2) -0.9138(5) -0.26596(19)
H10B H 0.0134 -0.8071 -0.2702
C19B C 0.30213(19) -1.9644(4) -0.25518(17)
H11B H 0.2870 -2.0119 -0.2154
H12B H 0.3547 -1.9070 -0.2321
C20B C 0.0273(2) -1.0226(5) -0.32879(18)
H13B H -0.0126 -0.9868 -0.3739
C21B C 0.10091(19) -0.9607(4) -0.19746(17)
H14B H 0.1115 -0.8873 -0.1556
C22B C 0.1789(2) -1.5281(4) -0.28381(17)
H15B H 0.1255 -1.5828 -0.3051
H16B H 0.1921 -1.4803 -0.3247
C23B C 0.2415(2) -1.8231(4) -0.29745(17)
H17B H 0.2562 -1.7731 -0.3371
H18B H 0.1882 -1.8779 -0.3200
C24B C 0.06866(19) -1.1806(5) -0.32637(17)
H19B H 0.0584 -1.2524 -0.3686
C25B C 0.23938(19) -1.6716(4) -0.24394(17)
H20B H 0.2927 -1.6172 -0.2217
H21B H 0.2255 -1.7227 -0.2040
C26B C 0.4451(2) -2.5790(5) -0.25422(18)
H22B H 0.4748 -2.6861 -0.2463
N4B N 0.29964(14) -2.2863(3) -0.40004(12)
Ag1A Ag 0.261597(13) -2.37351(3) -0.516177(11)
Ag1B_2 Ag 1.261597(13) -0.12649(3) -0.016177(11)
Ag1C Ag 0.738403(13) 1.37351(3) 0.516177(11)
O2B_2 O 0.18840(12) -0.8293(3) -0.01130(14)
N4A N 0.29964(14) -1.2137(3) 0.09996(12)
N4C N 0.70036(14) 0.2137(3) -0.09996(12)
loop_
_geom_bond_atom_site_label_1
_geom_bond_atom_site_label_2
_geom_bond_site_symmetry_1
_geom_bond_site_symmetry_2
Ag1 O2 1_555 1_555
C1 N3 1_555 1_555
O1 C11 1_555 1_555
N1 C7 1_555 1_555
C2 C5 1_555 1_555
N2 C6 1_555 1_555
O2 C5 1_555 1_555
C3 C8 1_555 1_555
C4 C12 1_555 1_555
O3 C5 1_555 1_555
N3 Ag1 1_555 1_555
O4 Ag1 1_555 1_555
C6 N3 1_555 1_555
H1 C6 1_555 1_555
C7 H2 1_555 1_555
C8 H3 1_555 1_555
C9 C1 1_555 1_555
C10 C3 1_555 1_555
H4 C10 1_555 1_555
C11 C3 1_555 1_555
C12 N1 1_555 1_555
C13 C2 1_555 1_555
H5 C13 1_555 1_555
C14 C2 1_555 1_555
H6 C14 1_555 1_555
C15 C12 1_555 1_555
H7 C15 1_555 1_555
C16 C15 1_555 1_555
H8 C16 1_555 1_555
C17 C4 1_555 1_555
H9 C17 1_555 1_555
C18 H10 1_555 1_555
C19 N1 1_555 1_555
H11 C19 1_555 1_555
H12 C19 1_555 1_555
C20 C18 1_555 1_555
H13 C20 1_555 1_555
C21 C1 1_555 1_555
H14 C21 1_555 1_555
C22 N2 1_555 1_555
H15 C22 1_555 1_555
H16 C22 1_555 1_555
C23 C19 1_555 1_555
H17 C23 1_555 1_555
H18 C23 1_555 1_555
C24 C9 1_555 1_555
H19 C24 1_555 1_555
C25 C22 1_555 1_555
H20 C25 1_555 1_555
H21 C25 1_555 1_555
C26 C16 1_555 1_555
H22 C26 1_555 1_555
N4 C4 1_555 1_555
H23 O1 1_555 1_555
O1B C11B 1_555 1_555
C3B C8B 1_555 1_555
O4B C11B 1_555 1_555
C8B C10 1_555 1_555
H3B C8B 1_555 1_555
C10B C8 1_555 1_555
H4B C10B 1_555 1_555
C11B C3B 1_555 1_555
H23B O1B 1_555 1_555
C2B C5B 1_555 1_555
O2B C5B 1_555 1_555
O3B C5B 1_555 1_555
C13B C14 1_555 1_555
H5B C13B 1_555 1_555
C14B C13 1_555 1_555
H6B C14B 1_555 1_555
Ag1B O4B 1_555 1_555
C1B N3B 1_555 1_555
N1B C7B 1_555 1_555
N2B C6B 1_555 1_555
C4B C12B 1_555 1_555
N3B Ag1B 1_555 1_555
C6B N3B 1_555 1_555
H1B C6B 1_555 1_555
C7B H2B 1_555 1_555
C9B C1B 1_555 1_555
C12B N1B 1_555 1_555
C15B C12B 1_555 1_555
H7B C15B 1_555 1_555
C16B C15B 1_555 1_555
H8B C16B 1_555 1_555
C17B C4B 1_555 1_555
H9B C17B 1_555 1_555
C18B H10B 1_555 1_555
C19B N1B 1_555 1_555
H11B C19B 1_555 1_555
H12B C19B 1_555 1_555
C20B C18B 1_555 1_555
H13B C20B 1_555 1_555
C21B C1B 1_555 1_555
H14B C21B 1_555 1_555
C22B N2B 1_555 1_555
H15B C22B 1_555 1_555
H16B C22B 1_555 1_555
C23B C19B 1_555 1_555
H17B C23B 1_555 1_555
H18B C23B 1_555 1_555
C24B C9B 1_555 1_555
H19B C24B 1_555 1_555
C25B C22B 1_555 1_555
H20B C25B 1_555 1_555
H21B C25B 1_555 1_555
C26B C16B 1_555 1_555
H22B C26B 1_555 1_555
N4B C4B 1_555 1_555
Ag1A N4B 1_555 1_555
Ag1B_2 O2B 1_555 1_555
Ag1C N4 1_555 1_555
O2B_2 Ag1B 1_555 1_555
N4A Ag1B 1_555 1_555
N4C Ag1 1_555 1_555
N2 C9 1_555 1_555
O4 C11 1_555 1_555
C7 N4 1_555 1_555
C17 C26 1_555 1_555
C18 C21 1_555 1_555
C20 C24 1_555 1_555
C23 C25 1_555 1_555
C3B C10B 1_555 1_555
C2B C13B 1_555 1_555
C2B C14B 1_555 1_555
N2B C9B 1_555 1_555
C7B N4B 1_555 1_555
C17B C26B 1_555 1_555
C18B C21B 1_555 1_555
C20B C24B 1_555 1_555
C23B C25B 1_555 1_555

#END
