
#######################################################################
#
#                 Cambridge Crystallographic Data Centre
#                                CCDC 
#
#######################################################################
#
# If this CIF has been generated from an entry in the Cambridge 
# Structural Database, then it will include bibliographic, chemical, 
# crystal, experimental, refinement or atomic coordinate data resulting 
# from the CCDC's data processing and validation procedures.
#
#######################################################################

data_WOLHEM
_symmetry_cell_setting           triclinic
_symmetry_space_group_name_H-M   'P -1'
_symmetry_Int_Tables_number      2
_space_group_name_Hall           '-P 1'
loop_
_symmetry_equiv_pos_site_id
_symmetry_equiv_pos_as_xyz
1 x,y,z
2 -x,-y,-z
_cell_length_a                   7.2925(3)
_cell_length_b                   10.5024(4)
_cell_length_c                   26.3378(11)
_cell_angle_alpha                92.863(2)
_cell_angle_beta                 89.977(3)
_cell_angle_gamma                110.332(2)
_cell_volume                     1888.83
loop_
_atom_site_label
_atom_site_type_symbol
_atom_site_fract_x
_atom_site_fract_y
_atom_site_fract_z
Cu1 Cu 0.30286(6) 0.28255(4) 0.863518(17)
O1 O 0.5414(3) 0.4158(2) 0.84550(9)
N1 N 0.2591(4) 0.4051(3) 0.91632(10)
N2 N 0.0056(4) 0.1769(3) 0.86622(11)
C1 C 0.3757(4) 0.0803(4) 0.78292(14)
C2 C 0.8433(4) 0.5913(3) 0.85574(13)
N3 N 0.3533(4) 0.1532(3) 0.81356(12)
N4 N 0.4220(4) 0.0003(3) 0.75002(12)
C3 C 0.5832(5) 0.5727(3) 0.91799(13)
C4 C 0.9032(5) 0.5556(4) 0.80830(14)
H1 H 0.8135 0.4855 0.7872
C5 C 0.6472(5) 0.5222(3) 0.87320(13)
C6 C -0.0374(5) 0.2084(4) 0.91962(15)
H2 H 0.0128 0.1562 0.9428
H3 H -0.1808 0.1801 0.9237
C7 C -0.0534(5) 0.0268(4) 0.85736(16)
H4 H 0.0193 -0.0070 0.8820
H5 H -0.0124 0.0074 0.8229
C8 C 0.9770(5) 0.6995(3) 0.88622(14)
C9 C 0.7248(5) 0.6830(4) 0.94697(13)
H6 H 0.6842 0.7170 0.9774
N5 N 0.3919(10) 0.1401(9) 0.9324(4)
C10 C 0.3824(5) 0.5216(3) 0.93439(13)
C11 C 0.9118(5) 0.7401(4) 0.93299(14)
H7 H 1.0014 0.8085 0.9547
C12 C 1.2221(5) 0.7216(4) 0.82270(17)
H8 H 1.3522 0.7635 0.8116
C13 C 1.1677(5) 0.7611(4) 0.86853(16)
H9 H 1.2601 0.8314 0.8889
C14 C 0.0561(5) 0.3595(4) 0.93389(14)
H10 H -0.0172 0.4106 0.9176
H11 H 0.0539 0.3758 0.9712
C15 C -0.0934(5) 0.2380(4) 0.83080(15)
H12 H -0.0498 0.3371 0.8392
H13 H -0.2360 0.2001 0.8365
C16 C -0.0577(7) 0.2157(5) 0.77553(16)
H14 H 0.0824 0.2563 0.7690
H15 H -0.1300 0.2583 0.7550
H16 H -0.1022 0.1179 0.7665
C17 C 0.3168(5) 0.6072(4) 0.97221(15)
H17 H 0.1791 0.5942 0.9655
H18 H 0.3966 0.7031 0.9693
H19 H 0.3316 0.5802 1.0066
C18 C 1.0873(5) 0.6196(4) 0.79189(16)
H20 H 1.1247 0.5950 0.7594
C19 C 0.3803(13) 0.0614(8) 0.9629(3)
C20 C -0.2703(5) -0.0532(4) 0.86198(18)
H21 H -0.3098 -0.0447 0.8972
H22 H -0.2957 -0.1492 0.8523
H23 H -0.3452 -0.0173 0.8394
N6 N 0.2002(4) -0.1535(3) 0.68656(13)
N7 N 0.4211(10) 0.0064(7) 0.9891(2)
C21 C 0.2967(5) -0.0796(4) 0.71711(14)
Cu2 Cu 0.02041(6) -0.28243(4) 0.636443(17)
O2 O 0.1250(3) -0.4158(2) 0.65449(9)
N8 N -0.1465(4) -0.4051(3) 0.58369(11)
N9 N -0.1717(4) -0.1771(3) 0.63360(11)
C22 C 0.2506(5) -0.5923(3) 0.64431(13)
C23 C 0.1257(5) -0.5217(3) 0.62666(13)
C24 C -0.2457(5) -0.2090(4) 0.58042(15)
H24 H -0.1431 -0.1569 0.5572
H25 H -0.3606 -0.1806 0.5762
C25 C 0.0106(5) -0.5728(3) 0.58189(13)
C26 C 0.2778(5) -0.6988(3) 0.61355(14)
C27 C 0.3475(5) -0.5552(4) 0.69173(14)
H26 H 0.3287 -0.4845 0.7126
C28 C -0.0798(5) -0.0264(4) 0.64269(16)
H27 H 0.0276 0.0074 0.6183
H28 H -0.0208 -0.0073 0.6773
C29 C 0.0420(5) -0.6827(4) 0.55309(14)
H29 H -0.0322 -0.7164 0.5226
C30 C -0.1386(5) -0.5210(4) 0.56583(13)
C31 C 0.5008(6) -0.7214(4) 0.67739(18)
H30 H 0.5894 -0.7630 0.6884
C32 C 0.1718(5) -0.7408(4) 0.56714(14)
H31 H 0.1917 -0.8101 0.5457
C33 C -0.3033(5) -0.3592(4) 0.56614(15)
H32 H -0.4279 -0.4102 0.5824
H33 H -0.3215 -0.3752 0.5288
C34 C -0.2902(5) -0.6070(4) 0.52757(15)
H34 H -0.4149 -0.5938 0.5340
H35 H -0.3070 -0.7030 0.5306
H36 H -0.2474 -0.5801 0.4932
C35 C 0.4059(6) -0.7615(4) 0.63144(16)
H37 H 0.4265 -0.8327 0.6113
C36 C -0.3321(5) -0.2386(4) 0.66932(15)
H38 H -0.3872 -0.3377 0.6610
H39 H -0.4371 -0.2011 0.6637
C37 C 0.4683(5) -0.6194(4) 0.70818(16)
H40 H 0.5305 -0.5947 0.7407
C38 C -0.2740(7) -0.2160(5) 0.72452(16)
H41 H -0.1651 -0.2481 0.7304
H42 H -0.3856 -0.2664 0.7450
H43 H -0.2335 -0.1188 0.7343
C39 C -0.2163(6) 0.0537(4) 0.63771(18)
H44 H -0.2684 0.0415 0.6028
H45 H -0.1441 0.1503 0.6458
H46 H -0.3246 0.0208 0.6613
N10 N 0.2476(11) -0.1420(9) 0.5685(4)
C40 C 0.3169(10) -0.0622(7) 0.5378(3)
N11 N 0.4141(8) -0.0086(7) 0.5114(2)
N5A N 0.6081(10) -0.1401(9) 1.0676(4)
C19A C 0.6197(13) -0.0614(8) 1.0371(3)
N7A N 0.5789(10) -0.0064(7) 1.0109(2)
C40A C 0.6831(10) 0.0622(7) 0.4622(3)
N11A N 0.5859(8) 0.0086(7) 0.4886(2)
N10A N 0.7524(11) 0.1420(9) 0.4315(4)
Cu1A Cu 0.69714(6) -0.28255(4) 0.136482(17)
O1A O 0.4586(3) -0.4158(2) 0.15450(9)
N1A N 0.7409(4) -0.4051(3) 0.08368(10)
N2A N 0.9944(4) -0.1769(3) 0.13378(11)
C1A C 0.6243(4) -0.0803(4) 0.21708(14)
C2A C 0.1567(4) -0.5913(3) 0.14426(13)
N3A N 0.6467(4) -0.1532(3) 0.18644(12)
N4A N 0.5780(4) -0.0003(3) 0.24998(12)
C3A C 0.4168(5) -0.5727(3) 0.08201(13)
C4A C 0.0968(5) -0.5556(4) 0.19170(14)
H1A H 0.1865 -0.4855 0.2128
C5A C 0.3528(5) -0.5222(3) 0.12680(13)
C6A C 1.0374(5) -0.2084(4) 0.08038(15)
H2A H 0.9872 -0.1562 0.0572
H3A H 1.1808 -0.1801 0.0763
C7A C 1.0534(5) -0.0268(4) 0.14264(16)
H4A H 0.9807 0.0070 0.1180
H5A H 1.0124 -0.0074 0.1771
C8A C 0.0230(5) -0.6995(3) 0.11378(14)
C9A C 0.2752(5) -0.6830(4) 0.05303(13)
H6A H 0.3158 -0.7170 0.0226
C10A C 0.6176(5) -0.5216(3) 0.06561(13)
C11A C 0.0882(5) -0.7401(4) 0.06701(14)
H7A H -0.0014 -0.8085 0.0453
C12A C -0.2221(5) -0.7216(4) 0.17730(17)
H8A H -0.3522 -0.7635 0.1884
C13A C -0.1677(5) -0.7611(4) 0.13147(16)
H9A H -0.2601 -0.8314 0.1111
C14A C 0.9439(5) -0.3595(4) 0.06611(14)
H10A H 1.0172 -0.4106 0.0824
H11A H 0.9461 -0.3758 0.0288
C15A C 1.0934(5) -0.2380(4) 0.16920(15)
H12A H 1.0498 -0.3371 0.1608
H13A H 1.2360 -0.2001 0.1635
C16A C 1.0577(7) -0.2157(5) 0.22447(16)
H14A H 0.9176 -0.2563 0.2310
H15A H 1.1300 -0.2583 0.2450
H16A H 1.1022 -0.1179 0.2335
C17A C 0.6832(5) -0.6072(4) 0.02779(15)
H17A H 0.8209 -0.5942 0.0345
H18A H 0.6034 -0.7031 0.0307
H19A H 0.6684 -0.5802 -0.0066
C18A C -0.0873(5) -0.6196(4) 0.20811(16)
H20A H -0.1247 -0.5950 0.2406
C20A C 1.2703(5) 0.0532(4) 0.13802(18)
H21A H 1.3098 0.0447 0.1028
H22A H 1.2957 0.1492 0.1477
H23A H 1.3452 0.0173 0.1606
N6A N 0.7998(4) 0.1535(3) 0.31344(13)
C21A C 0.7033(5) 0.0796(4) 0.28289(14)
Cu2A Cu 0.97959(6) 0.28243(4) 0.363557(17)
O2A O 0.8750(3) 0.4158(2) 0.34551(9)
N8A N 1.1465(4) 0.4051(3) 0.41631(11)
N9A N 1.1717(4) 0.1771(3) 0.36640(11)
C22A C 0.7494(5) 0.5923(3) 0.35569(13)
C23A C 0.8743(5) 0.5217(3) 0.37334(13)
C24A C 1.2457(5) 0.2090(4) 0.41958(15)
H24A H 1.1431 0.1569 0.4428
H25A H 1.3606 0.1806 0.4238
C25A C 0.9894(5) 0.5728(3) 0.41811(13)
C26A C 0.7222(5) 0.6988(3) 0.38645(14)
C27A C 0.6525(5) 0.5552(4) 0.30827(14)
H26A H 0.6713 0.4845 0.2874
C28A C 1.0798(5) 0.0264(4) 0.35731(16)
H27A H 0.9724 -0.0074 0.3817
H28A H 1.0208 0.0073 0.3227
C29A C 0.9580(5) 0.6827(4) 0.44691(14)
H29A H 1.0322 0.7164 0.4774
C30A C 1.1386(5) 0.5210(4) 0.43417(13)
C31A C 0.4992(6) 0.7214(4) 0.32261(18)
H30A H 0.4106 0.7630 0.3116
C32A C 0.8282(5) 0.7408(4) 0.43286(14)
H31A H 0.8083 0.8101 0.4543
C33A C 1.3033(5) 0.3592(4) 0.43386(15)
H32A H 1.4279 0.4102 0.4176
H33A H 1.3215 0.3752 0.4712
C34A C 1.2902(5) 0.6070(4) 0.47243(15)
H34A H 1.4149 0.5938 0.4660
H35A H 1.3070 0.7030 0.4694
H36A H 1.2474 0.5801 0.5068
C35A C 0.5941(6) 0.7615(4) 0.36856(16)
H37A H 0.5735 0.8327 0.3887
C36A C 1.3321(5) 0.2386(4) 0.33068(15)
H38A H 1.3872 0.3377 0.3390
H39A H 1.4371 0.2011 0.3363
C37A C 0.5317(5) 0.6194(4) 0.29182(16)
H40A H 0.4695 0.5947 0.2593
C38A C 1.2740(7) 0.2160(5) 0.27548(16)
H41A H 1.1651 0.2481 0.2696
H42A H 1.3856 0.2664 0.2550
H43A H 1.2335 0.1188 0.2657
C39A C 1.2163(6) -0.0537(4) 0.36229(18)
H44A H 1.2684 -0.0415 0.3972
H45A H 1.1441 -0.1503 0.3542
H46A H 1.3246 -0.0208 0.3387
Cu1A_2 Cu 0.69714(6) -0.28255(4) 1.136482(17)
N5A_2 N 0.6081(10) -0.1401(9) 0.0676(4)
loop_
_geom_bond_atom_site_label_1
_geom_bond_atom_site_label_2
_geom_bond_site_symmetry_1
_geom_bond_site_symmetry_2
Cu1 O1 1_555 1_555
O1 C5 1_555 1_555
N1 Cu1 1_555 1_555
N2 Cu1 1_555 1_555
C1 N3 1_555 1_555
C2 C4 1_555 1_555
N3 Cu1 1_555 1_555
N4 C1 1_555 1_555
C3 C5 1_555 1_555
C4 H1 1_555 1_555
C5 C2 1_555 1_555
C6 N2 1_555 1_555
H2 C6 1_555 1_555
H3 C6 1_555 1_555
C7 N2 1_555 1_555
H4 C7 1_555 1_555
H5 C7 1_555 1_555
C8 C2 1_555 1_555
C9 C3 1_555 1_555
H6 C9 1_555 1_555
N5 Cu1 1_555 1_555
C10 N1 1_555 1_555
C11 C8 1_555 1_555
H7 C11 1_555 1_555
C12 H8 1_555 1_555
C13 C8 1_555 1_555
H9 C13 1_555 1_555
C14 N1 1_555 1_555
H10 C14 1_555 1_555
H11 C14 1_555 1_555
C15 N2 1_555 1_555
H12 C15 1_555 1_555
H13 C15 1_555 1_555
C16 C15 1_555 1_555
H14 C16 1_555 1_555
H15 C16 1_555 1_555
H16 C16 1_555 1_555
C17 C10 1_555 1_555
H17 C17 1_555 1_555
H18 C17 1_555 1_555
H19 C17 1_555 1_555
C18 C4 1_555 1_555
H20 C18 1_555 1_555
C19 N5 1_555 1_555
C20 C7 1_555 1_555
H21 C20 1_555 1_555
H22 C20 1_555 1_555
H23 C20 1_555 1_555
N6 C21 1_555 1_555
N7 C19 1_555 1_555
C21 N4 1_555 1_555
Cu2 N6 1_555 1_555
O2 Cu2 1_555 1_555
N8 Cu2 1_555 1_555
N9 Cu2 1_555 1_555
C22 C23 1_555 1_555
C23 O2 1_555 1_555
C24 N9 1_555 1_555
H24 C24 1_555 1_555
H25 C24 1_555 1_555
C25 C23 1_555 1_555
C26 C22 1_555 1_555
C27 C22 1_555 1_555
H26 C27 1_555 1_555
C28 N9 1_555 1_555
H27 C28 1_555 1_555
H28 C28 1_555 1_555
C29 C25 1_555 1_555
H29 C29 1_555 1_555
C30 N8 1_555 1_555
C31 H30 1_555 1_555
C32 C26 1_555 1_555
H31 C32 1_555 1_555
C33 N8 1_555 1_555
H32 C33 1_555 1_555
H33 C33 1_555 1_555
C34 C30 1_555 1_555
H34 C34 1_555 1_555
H35 C34 1_555 1_555
H36 C34 1_555 1_555
C35 C26 1_555 1_555
H37 C35 1_555 1_555
C36 N9 1_555 1_555
H38 C36 1_555 1_555
H39 C36 1_555 1_555
C37 C27 1_555 1_555
H40 C37 1_555 1_555
C38 C36 1_555 1_555
H41 C38 1_555 1_555
H42 C38 1_555 1_555
H43 C38 1_555 1_555
C39 C28 1_555 1_555
H44 C39 1_555 1_555
H45 C39 1_555 1_555
H46 C39 1_555 1_555
N10 Cu2 1_555 1_555
C40 N10 1_555 1_555
N11 C40 1_555 1_555
N5A C19A 1_555 1_555
C19A N7A 1_555 1_555
N7A N7 1_555 1_555
C40A N11A 1_555 1_555
N11A N11 1_555 1_555
N10A C40A 1_555 1_555
Cu1A O1A 1_555 1_555
O1A C5A 1_555 1_555
N1A Cu1A 1_555 1_555
N2A Cu1A 1_555 1_555
C1A N3A 1_555 1_555
C2A C4A 1_555 1_555
N3A Cu1A 1_555 1_555
N4A C1A 1_555 1_555
C3A C5A 1_555 1_555
C4A H1A 1_555 1_555
C5A C2A 1_555 1_555
C6A N2A 1_555 1_555
H2A C6A 1_555 1_555
H3A C6A 1_555 1_555
C7A N2A 1_555 1_555
H4A C7A 1_555 1_555
H5A C7A 1_555 1_555
C8A C2A 1_555 1_555
C9A C3A 1_555 1_555
H6A C9A 1_555 1_555
C10A N1A 1_555 1_555
C11A C8A 1_555 1_555
H7A C11A 1_555 1_555
C12A H8A 1_555 1_555
C13A C8A 1_555 1_555
H9A C13A 1_555 1_555
C14A N1A 1_555 1_555
H10A C14A 1_555 1_555
H11A C14A 1_555 1_555
C15A N2A 1_555 1_555
H12A C15A 1_555 1_555
H13A C15A 1_555 1_555
C16A C15A 1_555 1_555
H14A C16A 1_555 1_555
H15A C16A 1_555 1_555
H16A C16A 1_555 1_555
C17A C10A 1_555 1_555
H17A C17A 1_555 1_555
H18A C17A 1_555 1_555
H19A C17A 1_555 1_555
C18A C4A 1_555 1_555
H20A C18A 1_555 1_555
C20A C7A 1_555 1_555
H21A C20A 1_555 1_555
H22A C20A 1_555 1_555
H23A C20A 1_555 1_555
N6A C21A 1_555 1_555
C21A N4A 1_555 1_555
Cu2A N10A 1_555 1_555
O2A Cu2A 1_555 1_555
N8A Cu2A 1_555 1_555
N9A Cu2A 1_555 1_555
C22A C23A 1_555 1_555
C23A O2A 1_555 1_555
C24A N9A 1_555 1_555
H24A C24A 1_555 1_555
H25A C24A 1_555 1_555
C25A C23A 1_555 1_555
C26A C22A 1_555 1_555
C27A C22A 1_555 1_555
H26A C27A 1_555 1_555
C28A N9A 1_555 1_555
H27A C28A 1_555 1_555
H28A C28A 1_555 1_555
C29A C25A 1_555 1_555
H29A C29A 1_555 1_555
C30A N8A 1_555 1_555
C31A H30A 1_555 1_555
C32A C26A 1_555 1_555
H31A C32A 1_555 1_555
C33A N8A 1_555 1_555
H32A C33A 1_555 1_555
H33A C33A 1_555 1_555
C34A C30A 1_555 1_555
H34A C34A 1_555 1_555
H35A C34A 1_555 1_555
H36A C34A 1_555 1_555
C35A C26A 1_555 1_555
H37A C35A 1_555 1_555
C36A N9A 1_555 1_555
H38A C36A 1_555 1_555
H39A C36A 1_555 1_555
C37A C27A 1_555 1_555
H40A C37A 1_555 1_555
C38A C36A 1_555 1_555
H41A C38A 1_555 1_555
H42A C38A 1_555 1_555
H43A C38A 1_555 1_555
C39A C28A 1_555 1_555
H44A C39A 1_555 1_555
H45A C39A 1_555 1_555
H46A C39A 1_555 1_555
Cu1A_2 N5A 1_555 1_555
N5A_2 Cu1A 1_555 1_555
C3 C10 1_555 1_555
C6 C14 1_555 1_555
C9 C11 1_555 1_555
C12 C13 1_555 1_555
C12 C18 1_555 1_555
C24 C33 1_555 1_555
C25 C30 1_555 1_555
C29 C32 1_555 1_555
C31 C35 1_555 1_555
C31 C37 1_555 1_555
C3A C10A 1_555 1_555
C6A C14A 1_555 1_555
C9A C11A 1_555 1_555
C12A C13A 1_555 1_555
C12A C18A 1_555 1_555
N6A Cu2A 1_555 1_555
C24A C33A 1_555 1_555
C25A C30A 1_555 1_555
C29A C32A 1_555 1_555
C31A C35A 1_555 1_555
C31A C37A 1_555 1_555

#END
