
#######################################################################
#
#                 Cambridge Crystallographic Data Centre
#                                CCDC 
#
#######################################################################
#
# If this CIF has been generated from an entry in the Cambridge 
# Structural Database, then it will include bibliographic, chemical, 
# crystal, experimental, refinement or atomic coordinate data resulting 
# from the CCDC's data processing and validation procedures.
#
#######################################################################

data_WOLKUF
_symmetry_cell_setting           triclinic
_symmetry_space_group_name_H-M   'P -1'
_symmetry_Int_Tables_number      2
_space_group_name_Hall           '-P 1'
loop_
_symmetry_equiv_pos_site_id
_symmetry_equiv_pos_as_xyz
1 x,y,z
2 -x,-y,-z
_cell_length_a                   7.954(2)
_cell_length_b                   10.975(3)
_cell_length_c                   11.537(3)
_cell_angle_alpha                85.507(3)
_cell_angle_beta                 82.430(3)
_cell_angle_gamma                78.814(3)
_cell_volume                     977.937
loop_
_atom_site_label
_atom_site_type_symbol
_atom_site_fract_x
_atom_site_fract_y
_atom_site_fract_z
Zn1 Zn 0.74711(5) 0.79638(4) 0.47547(4)
Zn2 Zn 1.12298(6) 0.75324(4) 0.53593(4)
S1 S 0.94641(18) 0.49316(13) 0.84508(10)
O1 O 0.0412(4) 1.1000(3) 0.3509(3)
O2 O 0.3099(3) 1.1037(3) 0.3838(2)
O3 O 0.6657(4) 1.0305(3) 0.2707(3)
O4 O 0.5721(3) 0.8674(3) 0.3719(2)
O5 O 0.7189(5) 0.7723(4) -0.0275(3)
O6 O 0.7858(4) 0.8224(4) 0.1324(3)
O7 O 0.9760(3) 0.8170(3) 0.4105(2)
O8 O 1.2973(4) 0.8560(3) 0.5395(3)
H1 H 1.3104 0.8923 0.5992
H2 H 1.3833 0.8601 0.4880
N1 N 0.6807(5) 0.8195(3) 0.0662(3)
N2 N 1.2818(4) 0.3771(3) 0.4767(3)
N3 N 1.2523(4) 0.5872(3) 0.4692(3)
N4 N 1.0614(5) 0.6238(3) 0.6734(3)
C1 C 0.3801(6) 0.8588(4) 0.0258(4)
H3 H 0.4187 0.8183 -0.0433
C2 C 0.2091(6) 0.9014(4) 0.0552(4)
H4 H 0.1293 0.8874 0.0081
C3 C 0.1546(6) 0.9656(4) 0.1555(4)
H5 H 0.0370 0.9930 0.1759
C4 C 0.2697(5) 0.9907(3) 0.2267(3)
C5 C 0.2010(5) 1.0698(3) 0.3292(3)
C6 C 0.4469(5) 0.9411(3) 0.2012(3)
C7 C 0.4966(5) 0.8762(4) 0.0994(3)
C8 C 0.5756(5) 0.9502(4) 0.2870(3)
C9 C 1.4669(5) 0.3461(4) 0.2812(4)
H6 H 1.4824 0.2598 0.2832
C10 C 1.5390(6) 0.4143(5) 0.1869(4)
H7 H 1.6041 0.3720 0.1244
C11 C 1.5169(7) 0.5429(5) 0.1832(4)
H8 H 1.5669 0.5843 0.1182
C12 C 1.4241(6) 0.6100(4) 0.2718(4)
H9 H 1.4097 0.6963 0.2691
C13 C 1.3515(5) 0.5437(4) 0.3670(3)
C14 C 1.3710(5) 0.4140(4) 0.3717(3)
C15 C 1.2144(5) 0.4853(3) 0.5287(3)
C16 C 1.1098(5) 0.5018(4) 0.6426(3)
C17 C 1.0558(6) 0.4192(4) 0.7257(4)
H10 H 1.0758 0.3336 0.7185
C18 C 0.9743(6) 0.6301(5) 0.7785(4)
H11 H 0.9312 0.7052 0.8133
Zn1A Zn 0.25289(5) 1.20362(4) 0.52453(4)
Zn1A_2 Zn 1.25289(5) 0.20362(4) 0.52453(4)
Zn2A Zn -0.12298(6) 1.24676(4) 0.46407(4)
O1A O 0.9588(4) 0.9000(3) 0.6491(3)
O2A O 0.6901(3) 0.8963(3) 0.6162(2)
N2A N 0.7182(4) 0.6229(3) 0.5233(3)
loop_
_geom_bond_atom_site_label_1
_geom_bond_atom_site_label_2
_geom_bond_site_symmetry_1
_geom_bond_site_symmetry_2
Zn1 O4 1_555 1_555
Zn2 O7 1_555 1_555
S1 C17 1_555 1_555
O1 C5 1_555 1_555
O2 C5 1_555 1_555
O3 C8 1_555 1_555
O4 C8 1_555 1_555
O5 N1 1_555 1_555
O6 N1 1_555 1_555
O7 Zn1 1_555 1_555
O8 Zn2 1_555 1_555
H1 O8 1_555 1_555
H2 O8 1_555 1_555
N1 C7 1_555 1_555
N2 C14 1_555 1_555
N3 Zn2 1_555 1_555
N4 Zn2 1_555 1_555
C1 H3 1_555 1_555
C2 C1 1_555 1_555
H4 C2 1_555 1_555
C3 C2 1_555 1_555
H5 C3 1_555 1_555
C4 C3 1_555 1_555
C5 C4 1_555 1_555
C6 C4 1_555 1_555
C7 C1 1_555 1_555
C8 C6 1_555 1_555
C9 H6 1_555 1_555
C10 C9 1_555 1_555
H7 C10 1_555 1_555
C11 C10 1_555 1_555
H8 C11 1_555 1_555
C12 C11 1_555 1_555
H9 C12 1_555 1_555
C13 N3 1_555 1_555
C14 C9 1_555 1_555
C15 N2 1_555 1_555
C16 N4 1_555 1_555
C17 C16 1_555 1_555
H10 C17 1_555 1_555
C18 S1 1_555 1_555
H11 C18 1_555 1_555
Zn1A O2 1_555 1_555
Zn1A_2 N2 1_555 1_555
Zn2A O1 1_555 1_555
O1A Zn2 1_555 1_555
O2A Zn1 1_555 1_555
N2A Zn1 1_555 1_555
N3 C15 1_555 1_555
N4 C18 1_555 1_555
C6 C7 1_555 1_555
C12 C13 1_555 1_555
C13 C14 1_555 1_555
C15 C16 1_555 1_555

#END
