
#######################################################################
#
#                 Cambridge Crystallographic Data Centre
#                                CCDC 
#
#######################################################################
#
# If this CIF has been generated from an entry in the Cambridge 
# Structural Database, then it will include bibliographic, chemical, 
# crystal, experimental, refinement or atomic coordinate data resulting 
# from the CCDC's data processing and validation procedures.
#
#######################################################################

data_WOLLUF
_symmetry_cell_setting           monoclinic
_symmetry_space_group_name_H-M   'C 2/c'
_symmetry_Int_Tables_number      15
_space_group_name_Hall           '-C 2yn'
loop_
_symmetry_equiv_pos_site_id
_symmetry_equiv_pos_as_xyz
1 x,y,z
2 1/2+x,1/2+y,z
3 -x,y,1/2-z
4 1/2-x,1/2+y,1/2-z
5 -x,-y,-z
6 1/2-x,1/2-y,-z
7 x,-y,1/2+z
8 1/2+x,1/2-y,1/2+z
_cell_length_a                   9.3471(6)
_cell_length_b                   18.9283(11)
_cell_length_c                   12.4791(9)
_cell_angle_alpha                90
_cell_angle_beta                 101.718(8)
_cell_angle_gamma                90
_cell_volume                     2161.85
loop_
_atom_site_label
_atom_site_type_symbol
_atom_site_fract_x
_atom_site_fract_y
_atom_site_fract_z
Cu1 Cu 0.04797(3) 0.418835(13) 0.530166(18)
S1 S -0.09029(5) 0.28933(2) 0.68150(3)
O1 O -0.07845(17) 0.35520(8) 0.62431(13)
O2 O -0.0662(2) 0.22689(8) 0.62124(12)
O3 O -0.21931(17) 0.28690(9) 0.72844(12)
N1 N 0.12176(18) 0.49728(8) 0.64054(12)
N2 N 0.09979(18) 0.56503(8) 0.60553(12)
N3 N 0.2228(2) 0.36085(11) 0.53621(15)
C1 C 0.2154(2) 0.48390(9) 0.73432(14)
H1 H 0.2282 0.4366 0.7573
C2 C 0.2961(2) 0.53596(9) 0.80074(13)
C3 C 0.2746(2) 0.60456(10) 0.76258(15)
H2 H 0.3257 0.6424 0.8016
C4 C 0.1751(2) 0.61607(9) 0.66473(15)
H3 H 0.1605 0.6627 0.6391
C5 C 0.4009(2) 0.51707(9) 0.90281(13)
C6 C 0.3816(2) 0.45565(9) 0.96081(14)
H4 H 0.3021 0.4256 0.9348
C7 C 0.5200(2) 0.56094(10) 0.94316(14)
H5 H 0.5338 0.6023 0.9048
C8 C 0.3219(3) 0.32623(13) 0.56406(16)
C9 C 0.4493(3) 0.28146(16) 0.6008(2)
H6 H 0.5267 0.3091 0.6451
H7 H 0.4826 0.2627 0.5378
H8 H 0.4232 0.2427 0.6441
Cu1B Cu -0.04797(3) 0.418835(13) 0.969834(18)
Cu1D Cu -0.04797(3) 0.581165(13) 0.469834(18)
Cu1D_2 Cu 0.95203(3) 0.581165(13) 1.469834(18)
Cu1_2 Cu 1.04797(3) 0.418835(13) 1.530166(18)
S1B S 0.09029(5) 0.28933(2) 0.81850(3)
O1B O 0.07845(17) 0.35520(8) 0.87569(13)
O2B O 0.0662(2) 0.22689(8) 0.87876(12)
O3B O 0.21931(17) 0.28690(9) 0.77156(12)
N1D N 0.87824(18) 0.50272(8) 1.35946(12)
N1B N -0.12176(18) 0.49728(8) 0.85946(12)
N2D N 0.90021(18) 0.43497(8) 1.39447(12)
N2D_2 N -0.09979(18) 0.43497(8) 0.39447(12)
N2F N 0.09979(18) 0.43497(8) 1.10553(12)
N3B N -0.2228(2) 0.36085(11) 0.96379(15)
C1D C 0.7846(2) 0.51610(9) 1.26568(14)
H1D H 0.7718 0.5634 1.2427
C2D C 0.7039(2) 0.46404(9) 1.19926(13)
C3D C 0.7254(2) 0.39544(10) 1.23742(15)
H2D H 0.6743 0.3576 1.1984
C4D C 0.8249(2) 0.38393(9) 1.33527(15)
H3D H 0.8395 0.3373 1.3609
C5D C 0.5991(2) 0.48293(9) 1.09719(13)
C6D C 0.6184(2) 0.54435(9) 1.03919(14)
H4D H 0.6979 0.5744 1.0652
C7D C 0.4800(2) 0.43906(10) 1.05684(14)
H5D H 0.4662 0.3977 1.0952
C8B C -0.3219(3) 0.32623(13) 0.93594(16)
C9B C -0.4493(3) 0.28146(16) 0.8992(2)
H6B H -0.5267 0.3091 0.8549
H7B H -0.4826 0.2627 0.9622
H8B H -0.4232 0.2427 0.8559
loop_
_geom_bond_atom_site_label_1
_geom_bond_atom_site_label_2
_geom_bond_site_symmetry_1
_geom_bond_site_symmetry_2
Cu1 O1 1_555 1_555
S1 O1 1_555 1_555
O2 S1 1_555 1_555
O3 S1 1_555 1_555
N1 Cu1 1_555 1_555
N2 N1 1_555 1_555
N3 Cu1 1_555 1_555
C1 N1 1_555 1_555
H1 C1 1_555 1_555
C2 C1 1_555 1_555
C3 C2 1_555 1_555
H2 C3 1_555 1_555
C4 N2 1_555 1_555
H3 C4 1_555 1_555
C5 C2 1_555 1_555
C6 C5 1_555 1_555
H4 C6 1_555 1_555
C7 C5 1_555 1_555
H5 C7 1_555 1_555
C8 N3 1_555 1_555
C9 C8 1_555 1_555
H6 C9 1_555 1_555
H7 C9 1_555 1_555
H8 C9 1_555 1_555
Cu1B O1B 1_555 1_555
Cu1D N2 1_555 1_555
Cu1D_2 N1D 1_555 1_555
Cu1_2 N2D 1_555 1_555
S1B S1 1_555 1_555
O1B S1B 1_555 1_555
O2B S1B 1_555 1_555
O3B S1B 1_555 1_555
N1D N2D 1_555 1_555
N1B Cu1B 1_555 1_555
N2D C4D 1_555 1_555
N2D_2 Cu1 1_555 1_555
N2F Cu1B 1_555 1_555
N3B Cu1B 1_555 1_555
C1D N1D 1_555 1_555
H1D C1D 1_555 1_555
C2D C1D 1_555 1_555
C3D C2D 1_555 1_555
H2D C3D 1_555 1_555
C4D C3D 1_555 1_555
H3D C4D 1_555 1_555
C5D C2D 1_555 1_555
C6D C7 1_555 1_555
H4D C6D 1_555 1_555
C7D C6 1_555 1_555
H5D C7D 1_555 1_555
C8B N3B 1_555 1_555
C9B C8B 1_555 1_555
H6B C9B 1_555 1_555
H7B C9B 1_555 1_555
H8B C9B 1_555 1_555
C3 C4 1_555 1_555
C5D C6D 1_555 1_555
C5D C7D 1_555 1_555

#END
