
#######################################################################
#
#                 Cambridge Crystallographic Data Centre
#                                CCDC 
#
#######################################################################
#
# If this CIF has been generated from an entry in the Cambridge 
# Structural Database, then it will include bibliographic, chemical, 
# crystal, experimental, refinement or atomic coordinate data resulting 
# from the CCDC's data processing and validation procedures.
#
#######################################################################

data_WOLLAM
_symmetry_cell_setting           monoclinic
_symmetry_space_group_name_H-M   'P 21/c'
_symmetry_Int_Tables_number      14
_space_group_name_Hall           '-P 2ybc'
loop_
_symmetry_equiv_pos_site_id
_symmetry_equiv_pos_as_xyz
1 x,y,z
2 -x,1/2+y,1/2-z
3 -x,-y,-z
4 x,1/2-y,1/2+z
_cell_length_a                   7.5577(9)
_cell_length_b                   14.5614(18)
_cell_length_c                   16.1537(19)
_cell_angle_alpha                90
_cell_angle_beta                 94.9290(10)
_cell_angle_gamma                90
_cell_volume                     1771.15
loop_
_atom_site_label
_atom_site_type_symbol
_atom_site_fract_x
_atom_site_fract_y
_atom_site_fract_z
O1 O -0.4718(2) 0.90086(13) 0.04686(10)
O2 O -0.2226(2) 0.97378(11) 0.01990(9)
O3 O 0.4745(2) 1.09215(11) 0.11828(10)
H1 H 0.4770 1.0943 0.0658
H2 H 0.3667 1.0946 0.1295
C1 C -0.3126(3) 0.92587(15) 0.06503(13)
C2 C -0.2278(3) 0.89485(15) 0.14868(13)
C3 C -0.2713(3) 0.80733(16) 0.17512(15)
H3 H -0.3489 0.7712 0.1412
Co1 Co 0.29354(4) 0.98332(2) 0.102510(17)
S1 S 0.01940(9) 0.70571(5) 0.03733(4)
O4 O 0.0824(2) 1.05958(11) 0.13965(9)
N1 N 0.0584(3) 0.97266(16) 0.33651(12)
N2 N 0.1702(2) 0.85561(13) 0.08161(11)
N3 N 0.3678(2) 0.91581(13) 0.21865(11)
C4 C -0.0511(3) 0.91540(16) 0.27631(13)
C5 C 0.4490(3) 0.84579(17) 0.34225(14)
C6 C -0.0637(3) 1.04700(15) 0.16940(12)
O5 O 0.0904(3) 1.05155(13) 0.31809(12)
N4 N 0.3490(3) 0.78516(13) 0.29094(12)
C7 C 0.3056(3) 0.83097(15) 0.21865(13)
C8 C 0.6319(4) 0.9932(2) 0.41110(17)
H4 H 0.6953 1.0422 0.4356
C9 C 0.4594(3) 0.92711(16) 0.29674(13)
C10 C -0.0934(3) 0.82814(18) 0.30227(15)
H5 H -0.0489 0.8070 0.3543
C11 C 0.2023(3) 0.79449(15) 0.14629(13)
C12 C -0.2012(3) 0.77294(18) 0.25102(16)
H6 H -0.2269 0.7134 0.2669
C13 C 0.5517(3) 1.00280(18) 0.33124(16)
H7 H 0.5591 1.0574 0.3019
C14 C 0.0748(3) 0.81728(17) 0.01965(14)
H8 H 0.0402 0.8480 -0.0296
C15 C -0.1110(3) 0.95082(15) 0.19846(13)
O6 O 0.1125(3) 0.93782(18) 0.40244(12)
C16 C 0.5279(4) 0.83635(19) 0.42318(15)
H9 H 0.5189 0.7824 0.4533
C17 C 0.1313(3) 0.71028(17) 0.13363(15)
H10 H 0.1417 0.6621 0.1715
C18 C 0.6198(3) 0.9116(2) 0.45579(16)
H11 H 0.6756 0.9079 0.5093
O7 O -0.1796(2) 1.10732(11) 0.17656(10)
O1_2 O 0.5282(2) 0.90086(13) 0.04686(10)
O2B O 0.2226(2) 1.02622(11) -0.01990(9)
Co1_2 Co -0.70646(4) 0.98332(2) 0.102510(17)
Co1B Co -0.29354(4) 1.01668(2) -0.102510(17)
loop_
_geom_bond_atom_site_label_1
_geom_bond_atom_site_label_2
_geom_bond_site_symmetry_1
_geom_bond_site_symmetry_2
O1 C1 1_555 1_555
O2 C1 1_555 1_555
O3 H1 1_555 1_555
H2 O3 1_555 1_555
C1 C2 1_555 1_555
C2 C3 1_555 1_555
C3 H3 1_555 1_555
Co1 O3 1_555 1_555
S1 C14 1_555 1_555
O4 Co1 1_555 1_555
N1 C4 1_555 1_555
N2 Co1 1_555 1_555
N3 Co1 1_555 1_555
C4 C10 1_555 1_555
C5 N4 1_555 1_555
C6 O4 1_555 1_555
O5 N1 1_555 1_555
N4 C7 1_555 1_555
C7 N3 1_555 1_555
C8 H4 1_555 1_555
C9 N3 1_555 1_555
C10 H5 1_555 1_555
C11 N2 1_555 1_555
C12 C3 1_555 1_555
H6 C12 1_555 1_555
C13 C8 1_555 1_555
H7 C13 1_555 1_555
C14 N2 1_555 1_555
H8 C14 1_555 1_555
C15 C2 1_555 1_555
O6 N1 1_555 1_555
C16 C5 1_555 1_555
H9 C16 1_555 1_555
C17 S1 1_555 1_555
H10 C17 1_555 1_555
C18 C8 1_555 1_555
H11 C18 1_555 1_555
O7 C6 1_555 1_555
O1_2 Co1 1_555 1_555
O2B Co1 1_555 1_555
Co1_2 O1 1_555 1_555
Co1B O2 1_555 1_555
C4 C15 1_555 1_555
C5 C9 1_555 1_555
C6 C15 1_555 1_555
C7 C11 1_555 1_555
C9 C13 1_555 1_555
C10 C12 1_555 1_555
C11 C17 1_555 1_555
C16 C18 1_555 1_555

#END
