
#######################################################################
#
#                 Cambridge Crystallographic Data Centre
#                                CCDC 
#
#######################################################################
#
# If this CIF has been generated from an entry in the Cambridge 
# Structural Database, then it will include bibliographic, chemical, 
# crystal, experimental, refinement or atomic coordinate data resulting 
# from the CCDC's data processing and validation procedures.
#
#######################################################################

data_WOLMOA
_symmetry_cell_setting           triclinic
_symmetry_space_group_name_H-M   'P -1'
_symmetry_Int_Tables_number      2
_space_group_name_Hall           '-P 1'
loop_
_symmetry_equiv_pos_site_id
_symmetry_equiv_pos_as_xyz
1 x,y,z
2 -x,-y,-z
_cell_length_a                   5.5566(7)
_cell_length_b                   10.5875(13)
_cell_length_c                   15.419(2)
_cell_angle_alpha                72.987(10)
_cell_angle_beta                 84.721(11)
_cell_angle_gamma                82.058(11)
_cell_volume                     857.816
loop_
_atom_site_label
_atom_site_type_symbol
_atom_site_fract_x
_atom_site_fract_y
_atom_site_fract_z
Ag1 Ag 0.17582(5) 0.04146(2) 0.386125(18)
O1 O 0.0893(5) -0.0831(3) 0.28858(19)
O2 O 0.4575(5) -0.1947(4) 0.3118(2)
F1 F 0.0238(6) -0.2372(4) 0.1849(2)
F2 F 0.3893(7) -0.3298(2) 0.19990(18)
F3 F 0.5468(8) -0.0925(5) 0.1038(2)
F4 F 0.1887(10) -0.0085(4) 0.0816(2)
F5 F 0.3311(6) -0.1702(3) 0.03313(17)
N1 N 0.3211(5) -0.1271(2) 0.51248(17)
N2 N 0.1547(5) -0.1783(2) 0.57859(17)
N3 N 0.4131(5) 0.1713(2) 0.26941(17)
N4 N 0.3307(5) 0.2994(3) 0.22958(18)
C1 C 0.5214(6) -0.2032(3) 0.4983(2)
H1 H 0.6378 -0.1643 0.4540
C2 C 0.5717(5) -0.3385(3) 0.54517(19)
C3 C 0.3984(6) -0.3893(3) 0.6124(2)
H2 H 0.4187 -0.4788 0.6474
C4 C 0.1939(6) -0.3044(3) 0.6268(2)
H3 H 0.0776 -0.3384 0.6730
C5 C 0.8863(6) -0.5359(3) 0.5854(2)
H4 H 0.8084 -0.5608 0.6436
C6 C 0.7925(5) -0.4202(3) 0.5219(2)
C7 C 0.9094(6) -0.3852(3) 0.4348(2)
H5 H 0.8489 -0.3083 0.3905
C8 C 0.6289(6) 0.1204(3) 0.2418(2)
H6 H 0.6807 0.0299 0.2682
C9 C 0.7814(6) 0.1948(3) 0.1756(2)
H7 H 0.9346 0.1559 0.1591
C10 C 0.7042(6) 0.3257(3) 0.1349(2)
C11 C 0.4691(6) 0.3717(3) 0.1647(2)
H8 H 0.4066 0.4600 0.1364
C12 C 1.0220(6) 0.3661(3) 0.0069(2)
H9 H 1.0380 0.2750 0.0109
C13 C 0.8543(6) 0.4155(3) 0.0654(2)
C14 C 0.8345(6) 0.5513(3) 0.0571(2)
H10 H 0.7221 0.5873 0.0955
C15 C 0.2676(7) -0.1593(3) 0.2742(2)
C16 C 0.2501(7) -0.2118(3) 0.1909(3)
C17 C 0.3300(9) -0.1208(4) 0.1016(3)
Ag1A Ag 1.82418(5) -1.04146(2) 0.613875(18)
Ag1A_2 Ag -0.17582(5) -0.04146(2) 0.613875(18)
Ag1_2 Ag 2.17582(5) -0.95854(2) 0.386125(18)
Ag1A_3 Ag 1.82418(5) 0.95854(2) -0.386125(18)
O1A O 1.9107(5) -0.9169(3) 0.71142(19)
O2A O 1.5425(5) -0.8053(4) 0.6882(2)
F1A F 1.9762(6) -0.7628(4) 0.8151(2)
F2A F 1.6107(7) -0.6702(2) 0.80010(18)
F3A F 1.4532(8) -0.9075(5) 0.8962(2)
F4A F 1.8113(10) -0.9915(4) 0.9184(2)
F5A F 1.6689(6) -0.8298(3) 0.96687(17)
N1A N 1.6789(5) -0.8729(2) 0.48752(17)
N2A N 1.8453(5) -0.8217(2) 0.42141(17)
N2A_2 N -0.1547(5) 0.1783(2) 0.42141(17)
N2_2 N 2.1547(5) -1.1783(2) 0.57859(17)
N3A N 1.5869(5) 0.8287(2) -0.26941(17)
N3A_2 N 1.5869(5) -1.1713(2) 0.73059(17)
N4A N 1.6693(5) 0.7006(3) -0.22958(18)
C1A C 1.4786(6) -0.7968(3) 0.5017(2)
H1A H 1.3622 -0.8357 0.5460
C2A C 1.4283(5) -0.6615(3) 0.45483(19)
C3A C 1.6016(6) -0.6107(3) 0.3876(2)
H2A H 1.5813 -0.5212 0.3526
C4A C 1.8061(6) -0.6956(3) 0.3732(2)
H3A H 1.9224 -0.6616 0.3270
C5A C 1.1137(6) -0.4641(3) 0.4146(2)
H4A H 1.1916 -0.4392 0.3564
C6A C 1.2075(5) -0.5798(3) 0.4781(2)
C7A C 1.0906(6) -0.6148(3) 0.5652(2)
H5A H 1.1511 -0.6917 0.6095
C8A C 1.3711(6) 0.8796(3) -0.2418(2)
H6A H 1.3193 0.9701 -0.2682
C9A C 1.2186(6) 0.8052(3) -0.1756(2)
H7A H 1.0654 0.8441 -0.1591
C10A C 1.2958(6) 0.6743(3) -0.1349(2)
C11A C 1.5309(6) 0.6283(3) -0.1647(2)
H8A H 1.5934 0.5400 -0.1364
C12A C 0.9780(6) 0.6339(3) -0.0069(2)
H9A H 0.9620 0.7250 -0.0109
C13A C 1.1457(6) 0.5845(3) -0.0654(2)
C14A C 1.1655(6) 0.4487(3) -0.0571(2)
H10A H 1.2779 0.4127 -0.0955
C15A C 1.7324(7) -0.8407(3) 0.7258(2)
C16A C 1.7499(7) -0.7882(3) 0.8091(3)
C17A C 1.6700(9) -0.8792(4) 0.8984(3)
loop_
_geom_bond_atom_site_label_1
_geom_bond_atom_site_label_2
_geom_bond_site_symmetry_1
_geom_bond_site_symmetry_2
Ag1 O1 1_555 1_555
O1 C15 1_555 1_555
O2 C15 1_555 1_555
F1 C16 1_555 1_555
F2 C16 1_555 1_555
F3 C17 1_555 1_555
F4 C17 1_555 1_555
F5 C17 1_555 1_555
N1 Ag1 1_555 1_555
N2 N1 1_555 1_555
N3 Ag1 1_555 1_555
N4 N3 1_555 1_555
C1 N1 1_555 1_555
H1 C1 1_555 1_555
C2 C1 1_555 1_555
C3 C2 1_555 1_555
H2 C3 1_555 1_555
C4 N2 1_555 1_555
H3 C4 1_555 1_555
C5 H4 1_555 1_555
C6 C2 1_555 1_555
C7 C6 1_555 1_555
H5 C7 1_555 1_555
C8 N3 1_555 1_555
H6 C8 1_555 1_555
C9 C8 1_555 1_555
H7 C9 1_555 1_555
C10 C9 1_555 1_555
C11 N4 1_555 1_555
H8 C11 1_555 1_555
C12 H9 1_555 1_555
C13 C10 1_555 1_555
C14 C13 1_555 1_555
H10 C14 1_555 1_555
C15 C16 1_555 1_555
C16 C17 1_555 1_555
Ag1A O1A 1_555 1_555
Ag1A_2 N2 1_555 1_555
Ag1_2 N2A 1_555 1_555
Ag1A_3 N3A 1_555 1_555
O1A C15A 1_555 1_555
O2A C15A 1_555 1_555
F1A C16A 1_555 1_555
F2A C16A 1_555 1_555
F3A C17A 1_555 1_555
F4A C17A 1_555 1_555
F5A C17A 1_555 1_555
N1A Ag1A 1_555 1_555
N2A N1A 1_555 1_555
N2A_2 Ag1 1_555 1_555
N2_2 Ag1A 1_555 1_555
N3A N4A 1_555 1_555
N3A_2 Ag1A 1_555 1_555
N4A C11A 1_555 1_555
C1A N1A 1_555 1_555
H1A C1A 1_555 1_555
C2A C1A 1_555 1_555
C3A C2A 1_555 1_555
H2A C3A 1_555 1_555
C4A N2A 1_555 1_555
H3A C4A 1_555 1_555
C5A C7 1_555 1_555
H4A C5A 1_555 1_555
C6A C2A 1_555 1_555
C7A C5 1_555 1_555
H5A C7A 1_555 1_555
C8A N3A 1_555 1_555
H6A C8A 1_555 1_555
C9A C8A 1_555 1_555
H7A C9A 1_555 1_555
C10A C9A 1_555 1_555
C11A C10A 1_555 1_555
H8A C11A 1_555 1_555
C12A C14 1_555 1_555
H9A C12A 1_555 1_555
C13A C10A 1_555 1_555
C14A C12 1_555 1_555
H10A C14A 1_555 1_555
C15A C16A 1_555 1_555
C16A C17A 1_555 1_555
C3 C4 1_555 1_555
C5 C6 1_555 1_555
C10 C11 1_555 1_555
C12 C13 1_555 1_555
C3A C4A 1_555 1_555
C5A C6A 1_555 1_555
C6A C7A 1_555 1_555
C12A C13A 1_555 1_555
C13A C14A 1_555 1_555

#END
