
#######################################################################
#
#                 Cambridge Crystallographic Data Centre
#                                CCDC 
#
#######################################################################
#
# If this CIF has been generated from an entry in the Cambridge 
# Structural Database, then it will include bibliographic, chemical, 
# crystal, experimental, refinement or atomic coordinate data resulting 
# from the CCDC's data processing and validation procedures.
#
#######################################################################

data_WOLMUH
_symmetry_cell_setting           orthorhombic
_symmetry_space_group_name_H-M   'P n m a'
_symmetry_Int_Tables_number      62
_space_group_name_Hall           '-P 2ac 2n'
loop_
_symmetry_equiv_pos_site_id
_symmetry_equiv_pos_as_xyz
1 x,y,z
2 1/2-x,-y,1/2+z
3 1/2+x,1/2-y,1/2-z
4 -x,1/2+y,-z
5 -x,-y,-z
6 1/2+x,y,1/2-z
7 1/2-x,1/2+y,1/2+z
8 x,1/2-y,z
_cell_length_a                   10.4087(9)
_cell_length_b                   18.4023(16)
_cell_length_c                   12.2695(11)
_cell_angle_alpha                90
_cell_angle_beta                 90
_cell_angle_gamma                90
_cell_volume                     2350.15
loop_
_atom_site_label
_atom_site_type_symbol
_atom_site_fract_x
_atom_site_fract_y
_atom_site_fract_z
C1 C 0.3340(4) 0.2500 0.8504(3)
C2 C 0.3403(4) 0.2500 0.9721(3)
C3 C 0.4551(4) 0.2500 1.0308(4)
C4 C 0.5827(4) 0.2500 0.9743(4)
C5 C 0.4505(6) 0.2500 1.1432(4)
H1 H 0.5269 0.2500 1.1826
C6 C 0.3345(7) 0.2500 1.1984(4)
H2 H 0.3328 0.2500 1.2742
C7 C 0.2227(6) 0.2500 1.1402(4)
H3 H 0.1444 0.2500 1.1766
C8 C 0.2251(4) 0.2500 1.0294(4)
H4 H 0.1479 0.2500 0.9912
C9 C 0.4155(3) 0.13853(17) 0.4548(2)
H5 H 0.3463 0.1571 0.4157
C10 C 0.5005(3) 0.09283(17) 0.4018(2)
C11 C 0.5618(3) 0.05904(18) 0.2134(2)
C12 C 0.5039(3) 0.04198(18) 0.1030(2)
H6 H 0.4293 0.0737 0.0923
C13 C 0.5984(3) 0.05659(18) 0.0118(2)
H7 H 0.6758 0.0285 0.0243
H8 H 0.6216 0.1076 0.0124
C14 C 0.4570(3) -0.03700(19) 0.0999(2)
H9 H 0.5282 -0.0692 0.1164
H10 H 0.3916 -0.0440 0.1552
C15 C 0.6038(3) 0.06535(18) 0.4603(3)
H11 H 0.6627 0.0342 0.4275
C16 C 0.6174(3) 0.08521(19) 0.5683(2)
H12 H 0.6865 0.0681 0.6090
C17 C 0.5281(3) 0.13027(19) 0.6151(2)
H13 H 0.5375 0.1425 0.6882
N1 N 0.4281(2) 0.15740(14) 0.55997(19)
N2 N 0.4744(2) 0.07491(15) 0.29241(19)
H14 H 0.3948 0.0739 0.2735
O1 O 0.3268(2) 0.19008(14) 0.80175(17)
O2 O 0.6829(3) 0.2500 1.0312(3)
O3 O 0.5880(3) 0.2500 0.8735(3)
O4 O 0.6777(2) 0.05740(16) 0.23204(19)
Cd1 Cd 0.30605(3) 0.2500 0.63550(2)
O1G O 0.3268(2) 0.30992(14) 0.80175(17)
C9D C 0.5845(3) -0.13853(17) -0.4548(2)
H5D H 0.6537 -0.1571 -0.4157
C10D C 0.4995(3) -0.09283(17) -0.4018(2)
C11D C 0.4382(3) -0.05904(18) -0.2134(2)
C12D C 0.4961(3) -0.04198(18) -0.1030(2)
H6D H 0.5707 -0.0737 -0.0923
C13D C 0.4016(3) -0.05659(18) -0.0118(2)
H7D H 0.3242 -0.0285 -0.0243
H8D H 0.3784 -0.1076 -0.0124
C14D C 0.5430(3) 0.03700(19) -0.0999(2)
H9D H 0.4718 0.0692 -0.1164
H10D H 0.6084 0.0440 -0.1552
C15D C 0.3962(3) -0.06535(18) -0.4603(3)
H11D H 0.3373 -0.0342 -0.4275
C16D C 0.3826(3) -0.08521(19) -0.5683(2)
H12D H 0.3135 -0.0681 -0.6090
C17D C 0.4719(3) -0.13027(19) -0.6151(2)
H13D H 0.4625 -0.1425 -0.6882
N1D N 0.5719(2) -0.15740(14) -0.55997(19)
N2D N 0.5256(2) -0.07491(15) -0.29241(19)
H14D H 0.6052 -0.0739 -0.2735
O4D O 0.3223(2) -0.05740(16) -0.23204(19)
N1G N 0.4281(2) 0.34260(14) 0.55997(19)
O2B O 0.1829(3) 0.2500 0.4688(3)
O3B O 0.0880(3) 0.2500 0.6265(3)
Cd1B Cd 0.80605(3) 0.2500 0.86450(2)
Cd1C Cd 0.69395(3) -0.2500 -0.63550(2)
loop_
_geom_bond_atom_site_label_1
_geom_bond_atom_site_label_2
_geom_bond_site_symmetry_1
_geom_bond_site_symmetry_2
C1 C2 1_555 1_555
C2 C3 1_555 1_555
C3 C4 1_555 1_555
C4 O2 1_555 1_555
C5 C3 1_555 1_555
H1 C5 1_555 1_555
C6 C5 1_555 1_555
H2 C6 1_555 1_555
C7 C6 1_555 1_555
H3 C7 1_555 1_555
C8 C2 1_555 1_555
H4 C8 1_555 1_555
C9 H5 1_555 1_555
C10 C9 1_555 1_555
C11 C12 1_555 1_555
C12 H6 1_555 1_555
C13 C12 1_555 1_555
H7 C13 1_555 1_555
H8 C13 1_555 1_555
C14 C12 1_555 1_555
H9 C14 1_555 1_555
H10 C14 1_555 1_555
C15 C10 1_555 1_555
H11 C15 1_555 1_555
C16 C15 1_555 1_555
H12 C16 1_555 1_555
C17 C16 1_555 1_555
H13 C17 1_555 1_555
N1 C9 1_555 1_555
N2 C10 1_555 1_555
H14 N2 1_555 1_555
O1 C1 1_555 1_555
O2 Cd1B 1_555 1_555
O3 C4 1_555 1_555
O4 C11 1_555 1_555
Cd1 N1 1_555 1_555
O1G C1 1_555 1_555
C9D H5D 1_555 1_555
C10D C9D 1_555 1_555
C11D C12D 1_555 1_555
C12D H6D 1_555 1_555
C13D C14 1_555 1_555
H7D C13D 1_555 1_555
H8D C13D 1_555 1_555
C14D C13 1_555 1_555
H9D C14D 1_555 1_555
H10D C14D 1_555 1_555
C15D C10D 1_555 1_555
H11D C15D 1_555 1_555
C16D C15D 1_555 1_555
H12D C16D 1_555 1_555
C17D C16D 1_555 1_555
H13D C17D 1_555 1_555
N1D C9D 1_555 1_555
N2D C10D 1_555 1_555
H14D N2D 1_555 1_555
O4D C11D 1_555 1_555
N1G Cd1 1_555 1_555
O2B Cd1 1_555 1_555
O3B Cd1 1_555 1_555
Cd1B O3 1_555 1_555
Cd1C N1D 1_555 1_555
C7 C8 1_555 1_555
C11 N2 1_555 1_555
C17 N1 1_555 1_555
O1 Cd1 1_555 1_555
Cd1 O1G 1_555 1_555
C11D N2D 1_555 1_555
C12D C13D 1_555 1_555
C12D C14D 1_555 1_555
C17D N1D 1_555 1_555

#END
