
#######################################################################
#
#                 Cambridge Crystallographic Data Centre
#                                CCDC 
#
#######################################################################
#
# If this CIF has been generated from an entry in the Cambridge 
# Structural Database, then it will include bibliographic, chemical, 
# crystal, experimental, refinement or atomic coordinate data resulting 
# from the CCDC's data processing and validation procedures.
#
#######################################################################

data_WOLMAM
_symmetry_cell_setting           triclinic
_symmetry_space_group_name_H-M   'P -1'
_symmetry_Int_Tables_number      2
_space_group_name_Hall           '-P 1'
loop_
_symmetry_equiv_pos_site_id
_symmetry_equiv_pos_as_xyz
1 x,y,z
2 -x,-y,-z
_cell_length_a                   12.5703(9)
_cell_length_b                   13.7895(13)
_cell_length_c                   14.1629(12)
_cell_angle_alpha                94.203(11)
_cell_angle_beta                 93.205(11)
_cell_angle_gamma                107.835(10)
_cell_volume                     2322.75
loop_
_atom_site_label
_atom_site_type_symbol
_atom_site_fract_x
_atom_site_fract_y
_atom_site_fract_z
Cu1 Cu 0.21412(4) 0.18221(3) 0.02312(3)
Cu2 Cu -0.61621(4) 0.17190(3) -0.81421(3)
N1 N -0.5078(3) 0.1796(2) -0.7033(2)
N2 N -0.5489(3) 0.1370(3) -0.6252(3)
N3 N 0.1040(3) 0.1790(2) -0.0860(2)
N4 N -0.0060(3) 0.1544(3) -0.0714(3)
N5 N 0.2934(3) 0.0721(2) 0.0011(2)
N6 N 0.3592(3) 0.0610(2) 0.0763(2)
N7 N 0.4068(3) -0.6872(2) 0.1367(2)
N8 N 0.3325(3) -0.6805(2) 0.0668(2)
N9 N 0.1453(3) 0.1392(3) 0.1480(2)
N10 N 0.2189(3) 0.1338(3) 0.2191(2)
C1 C -0.4774(4) 0.1419(4) -0.5508(3)
H1 H -0.5067 0.1106 -0.4971
C2 C -0.3609(3) 0.1905(3) -0.5469(3)
C3 C -0.3234(4) 0.2349(4) -0.6262(3)
H2 H -0.2468 0.2702 -0.6287
C4 C -0.3992(4) 0.2275(3) -0.7034(3)
H3 H -0.3723 0.2578 -0.7583
C5 C -0.2848(4) 0.1898(3) -0.4633(3)
C6 C -0.1709(5) 0.2421(7) -0.4626(5)
H4 H -0.1440 0.2791 -0.5141
C7 C -0.0965(5) 0.2405(7) -0.3873(5)
H5 H -0.0201 0.2771 -0.3883
C8 C -0.1324(3) 0.1861(3) -0.3106(3)
C9 C -0.2444(4) 0.1385(5) -0.3096(3)
H6 H -0.2715 0.1040 -0.2568
C10 C -0.3201(4) 0.1399(5) -0.3852(3)
H7 H -0.3969 0.1057 -0.3824
C11 C -0.0773(4) 0.1573(5) -0.1434(3)
H8 H -0.1537 0.1401 -0.1324
C12 C -0.0480(3) 0.1839(3) -0.2338(3)
C13 C 0.0639(4) 0.2063(4) -0.2469(3)
H9 H 0.0910 0.2241 -0.3058
C14 C 0.1365(4) 0.2021(4) -0.1704(3)
H10 H 0.2130 0.2166 -0.1797
C15 C 0.3861(3) -0.0251(3) 0.0796(3)
H11 H 0.4332 -0.0302 0.1316
C16 C 0.3487(3) -0.1080(3) 0.0104(3)
C17 C 0.2868(4) -0.0935(3) -0.0684(3)
H12 H 0.2619 -0.1441 -0.1199
C18 C 0.2627(4) -0.0014(3) -0.0686(3)
H13 H 0.2216 0.0088 -0.1224
C19 C 0.3694(3) -0.2069(3) 0.0235(3)
C20 C 0.3061(5) -0.2952(3) -0.0278(4)
H14 H 0.2524 -0.2927 -0.0757
C21 C 0.3195(5) -0.3898(3) -0.0105(4)
H15 H 0.2755 -0.4495 -0.0474
C22 C 0.3967(4) -0.3959(3) 0.0601(3)
C23 C 0.4658(4) -0.3053(3) 0.1074(4)
H16 H 0.5232 -0.3071 0.1521
C24 C 0.4524(4) -0.2122(3) 0.0905(4)
H17 H 0.4996 -0.1518 0.1245
C25 C 0.3326(3) -0.5890(3) 0.0424(3)
H18 H 0.2810 -0.5869 -0.0074
C26 C 0.4044(3) -0.4958(3) 0.0860(3)
C27 C 0.4811(4) -0.5048(3) 0.1558(4)
H19 H 0.5341 -0.4461 0.1876
C28 C 0.4790(4) -0.6012(3) 0.1782(3)
H20 H 0.5320 -0.6061 0.2257
C29 C 0.1833(3) 0.1036(3) 0.3016(3)
H21 H 0.2369 0.1010 0.3496
C30 C 0.0707(3) 0.0753(3) 0.3215(3)
C31 C -0.0030(4) 0.0828(4) 0.2485(3)
H22 H -0.0801 0.0662 0.2563
C32 C 0.0376(4) 0.1147(4) 0.1643(3)
H23 H -0.0137 0.1195 0.1154
C33 C 0.1082(5) 0.0187(7) 0.4797(4)
H24 H 0.1839 0.0320 0.4675
C34 C 0.0349(3) 0.0370(3) 0.4139(3)
C35 C -0.0722(4) 0.0194(7) 0.4355(4)
H25 H -0.1238 0.0332 0.3921
Cu1_2 Cu 0.21412(4) 1.18221(3) 0.02312(3)
Cu1_3 Cu 0.21412(4) -0.81779(3) 0.02312(3)
Cu1A Cu -0.21412(4) -0.18221(3) 0.97688(3)
Cu2_2 Cu 0.38379(4) 0.17190(3) 0.18579(3)
Cu2_3 Cu 0.38379(4) -0.82810(3) 0.18579(3)
Cu2A Cu -0.38379(4) -0.17190(3) 0.81421(3)
Cu2_4 Cu 0.38379(4) 1.17190(3) 0.18579(3)
Cu2_5 Cu -0.61621(4) 1.17190(3) -0.81421(3)
N1_2 N -0.5078(3) 1.1796(2) -0.7033(2)
N1_3 N 0.4922(3) 0.1796(2) 0.2967(2)
N2_2 N -0.5489(3) 1.1370(3) -0.6252(3)
N3_2 N 0.1040(3) 1.1790(2) -0.0860(2)
N4_2 N -0.0060(3) 1.1544(3) -0.0714(3)
N5_2 N 0.2934(3) 1.0721(2) 0.0011(2)
N6_2 N 0.3592(3) 1.0610(2) 0.0763(2)
N6_3 N -0.6408(3) 0.0610(2) -0.9237(2)
N7_2 N 0.4068(3) 0.3128(2) 0.1367(2)
N7_3 N -0.5932(3) 0.3128(2) -0.8633(2)
N8_2 N 0.3325(3) 0.3195(2) 0.0668(2)
N8_3 N 0.3325(3) 1.3195(2) 0.0668(2)
N9A N -0.1453(3) -0.1392(3) 0.8520(2)
N9_2 N 0.1453(3) 1.1392(3) 0.1480(2)
N10A N -0.2189(3) -0.1338(3) 0.7809(2)
N10_2 N -0.7811(3) 0.1338(3) -0.7809(2)
C1_2 C -0.4774(4) 1.1419(4) -0.5508(3)
H1_2 H -0.5067 1.1106 -0.4971
C2_2 C -0.3609(3) 1.1905(3) -0.5469(3)
C3_2 C -0.3234(4) 1.2349(4) -0.6262(3)
H2_2 H -0.2468 1.2702 -0.6287
C4_2 C -0.3992(4) 1.2275(3) -0.7034(3)
H3_2 H -0.3723 1.2578 -0.7583
C5_2 C -0.2848(4) 1.1898(3) -0.4633(3)
C6_2 C -0.1709(5) 1.2421(7) -0.4626(5)
H4_2 H -0.1440 1.2791 -0.5141
C7_2 C -0.0965(5) 1.2405(7) -0.3873(5)
H5_2 H -0.0201 1.2771 -0.3883
C8_2 C -0.1324(3) 1.1861(3) -0.3106(3)
C9_2 C -0.2444(4) 1.1385(5) -0.3096(3)
H6_2 H -0.2715 1.1040 -0.2568
C10_2 C -0.3201(4) 1.1399(5) -0.3852(3)
H7_2 H -0.3969 1.1057 -0.3824
C11_2 C -0.0773(4) 1.1573(5) -0.1434(3)
H8_2 H -0.1537 1.1401 -0.1324
C12_2 C -0.0480(3) 1.1839(3) -0.2338(3)
C13_2 C 0.0639(4) 1.2063(4) -0.2469(3)
H9_2 H 0.0910 1.2241 -0.3058
C14_2 C 0.1365(4) 1.2021(4) -0.1704(3)
H10_2 H 0.2130 1.2166 -0.1797
C15_2 C 0.3861(3) 0.9749(3) 0.0796(3)
H11_2 H 0.4332 0.9698 0.1316
C16_2 C 0.3487(3) 0.8920(3) 0.0104(3)
C17_2 C 0.2868(4) 0.9065(3) -0.0684(3)
H12_2 H 0.2619 0.8559 -0.1199
C18_2 C 0.2627(4) 0.9986(3) -0.0686(3)
H13_2 H 0.2216 1.0088 -0.1224
C19_2 C 0.3694(3) 0.7931(3) 0.0235(3)
C20_2 C 0.3061(5) 0.7048(3) -0.0278(4)
H14_2 H 0.2524 0.7073 -0.0757
C21_2 C 0.3195(5) 0.6102(3) -0.0105(4)
H15_2 H 0.2755 0.5505 -0.0474
C22_2 C 0.3967(4) 0.6041(3) 0.0601(3)
C23_2 C 0.4658(4) 0.6947(3) 0.1074(4)
H16_2 H 0.5232 0.6929 0.1521
C24_2 C 0.4524(4) 0.7878(3) 0.0905(4)
H17_2 H 0.4996 0.8482 0.1245
C25_2 C 0.3326(3) 0.4110(3) 0.0424(3)
H18_2 H 0.2810 0.4131 -0.0074
C26_2 C 0.4044(3) 0.5042(3) 0.0860(3)
C27_2 C 0.4811(4) 0.4952(3) 0.1558(4)
H19_2 H 0.5341 0.5539 0.1876
C28_2 C 0.4790(4) 0.3988(3) 0.1782(3)
H20_2 H 0.5320 0.3939 0.2257
C29A C -0.1833(3) -0.1036(3) 0.6984(3)
H21A H -0.2369 -0.1010 0.6504
C30A C -0.0707(3) -0.0753(3) 0.6785(3)
C31A C 0.0030(4) -0.0828(4) 0.7515(3)
H22A H 0.0801 -0.0662 0.7437
C32A C -0.0376(4) -0.1147(4) 0.8357(3)
H23A H 0.0137 -0.1195 0.8846
C33A C -0.1082(5) -0.0187(7) 0.5203(4)
H24A H -0.1839 -0.0320 0.5325
C34A C -0.0349(3) -0.0370(3) 0.5861(3)
C35A C 0.0722(4) -0.0194(7) 0.5645(4)
H25A H 0.1238 -0.0332 0.6079
B1 B 0.6504(5) -0.0360(5) 0.3003(4)
F1 F 0.7374(3) 0.0515(3) 0.2823(2)
F2 F 0.5511(2) -0.0272(3) 0.2616(2)
F3 F 0.6488(3) -0.0401(3) 0.3964(2)
F4 F 0.6706(4) -0.1200(3) 0.2556(3)
B2 B 0.2149(9) 0.4833(8) -0.2661(8)
F5 F 0.1263(5) 0.4310(4) -0.3240(4)
F6 F 0.2498(6) 0.4312(4) -0.2015(5)
F7 F 0.3068(6) 0.5167(6) -0.3261(6)
F8 F 0.2186(5) 0.5778(4) -0.2304(4)
C37 C 0.0468(15) 0.4834(15) 0.1763(16)
Cl4 Cl 0.029(2) 0.3591(14) 0.130(2)
Cl5 Cl 0.1799(12) 0.5384(11) 0.2347(12)
Cl6 Cl 0.020(2) 0.5590(19) 0.091(2)
C38 C 0.3700(10) 0.3649(10) 0.5272(7)
Cl10 Cl 0.3669(10) 0.2802(8) 0.6037(7)
Cl11 Cl 0.4820(12) 0.3911(12) 0.4542(10)
Cl12 Cl 0.2430(13) 0.337(2) 0.4546(15)
C36? C 0.0252(17) 0.5041(10) 0.1087(14)
Cl1? Cl 0.0331(8) 0.3853(6) 0.0672(8)
Cl2? Cl 0.1437(10) 0.5778(8) 0.1799(9)
Cl3? Cl -0.0112(12) 0.5699(9) 0.0185(11)
Cl7? Cl 0.4916(11) 0.3563(12) 0.5952(9)
Cl8? Cl 0.3871(9) 0.3672(7) 0.4091(6)
Cl9? Cl 0.2632(9) 0.2500(8) 0.5437(8)
loop_
_geom_bond_atom_site_label_1
_geom_bond_atom_site_label_2
_geom_bond_site_symmetry_1
_geom_bond_site_symmetry_2
Cu1 N3 1_555 1_555
Cu2 N1 1_555 1_555
B1 F1 1_555 1_555
F2 B1 1_555 1_555
F3 B1 1_555 1_555
F4 B1 1_555 1_555
B2 F5 1_555 1_555
F6 B2 1_555 1_555
F7 B2 1_555 1_555
F8 B2 1_555 1_555
N1 N2 1_555 1_555
N2 C1 1_555 1_555
N3 N4 1_555 1_555
N4 C11 1_555 1_555
N5 Cu1 1_555 1_555
N6 N5 1_555 1_555
N7 N8 1_555 1_555
N8 C25 1_555 1_555
N9 Cu1 1_555 1_555
N10 N9 1_555 1_555
C1 H1 1_555 1_555
C2 C1 1_555 1_555
C3 C2 1_555 1_555
H2 C3 1_555 1_555
C4 N1 1_555 1_555
H3 C4 1_555 1_555
C5 C2 1_555 1_555
C6 C5 1_555 1_555
H4 C6 1_555 1_555
C7 C6 1_555 1_555
H5 C7 1_555 1_555
C8 C7 1_555 1_555
C9 C8 1_555 1_555
H6 C9 1_555 1_555
C10 C5 1_555 1_555
H7 C10 1_555 1_555
C11 H8 1_555 1_555
C12 C8 1_555 1_555
C13 C12 1_555 1_555
H9 C13 1_555 1_555
C14 N3 1_555 1_555
H10 C14 1_555 1_555
C15 N6 1_555 1_555
H11 C15 1_555 1_555
C16 C15 1_555 1_555
C17 C16 1_555 1_555
H12 C17 1_555 1_555
C18 N5 1_555 1_555
H13 C18 1_555 1_555
C19 C16 1_555 1_555
C20 C19 1_555 1_555
H14 C20 1_555 1_555
C21 C20 1_555 1_555
H15 C21 1_555 1_555
C22 C21 1_555 1_555
C23 C22 1_555 1_555
H16 C23 1_555 1_555
C24 C19 1_555 1_555
H17 C24 1_555 1_555
C25 H18 1_555 1_555
C26 C22 1_555 1_555
C27 C26 1_555 1_555
H19 C27 1_555 1_555
C28 N7 1_555 1_555
H20 C28 1_555 1_555
C29 N10 1_555 1_555
H21 C29 1_555 1_555
C30 C29 1_555 1_555
C31 C30 1_555 1_555
H22 C31 1_555 1_555
C32 N9 1_555 1_555
H23 C32 1_555 1_555
C33 H24 1_555 1_555
C34 C30 1_555 1_555
C35 C34 1_555 1_555
H25 C35 1_555 1_555
C37 Cl4 1_555 1_555
Cl5 C37 1_555 1_555
Cl6 C37 1_555 1_555
C38 Cl10 1_555 1_555
Cl11 C38 1_555 1_555
Cl12 C38 1_555 1_555
Cu1_2 N3_2 1_555 1_555
Cu1_3 N8 1_555 1_555
Cu1A N9A 1_555 1_555
Cu2_2 N6 1_555 1_555
Cu2_3 N7 1_555 1_555
Cu2A N10A 1_555 1_555
Cu2_4 N6_2 1_555 1_555
Cu2_5 N1_2 1_555 1_555
N1_2 N2_2 1_555 1_555
N1_3 Cu2_2 1_555 1_555
N2_2 C1_2 1_555 1_555
N3_2 N4_2 1_555 1_555
N4_2 C11_2 1_555 1_555
N5_2 Cu1_2 1_555 1_555
N6_2 N5_2 1_555 1_555
N6_3 Cu2 1_555 1_555
N7_2 Cu2_2 1_555 1_555
N7_3 Cu2 1_555 1_555
N8_2 Cu1 1_555 1_555
N8_3 Cu1_2 1_555 1_555
N9A N10A 1_555 1_555
N9_2 Cu1_2 1_555 1_555
N10A C29A 1_555 1_555
N10_2 Cu2 1_555 1_555
C1_2 H1_2 1_555 1_555
C2_2 C1_2 1_555 1_555
C3_2 C2_2 1_555 1_555
H2_2 C3_2 1_555 1_555
C4_2 N1_2 1_555 1_555
H3_2 C4_2 1_555 1_555
C5_2 C2_2 1_555 1_555
C6_2 C5_2 1_555 1_555
H4_2 C6_2 1_555 1_555
C7_2 C6_2 1_555 1_555
H5_2 C7_2 1_555 1_555
C8_2 C7_2 1_555 1_555
C9_2 C8_2 1_555 1_555
H6_2 C9_2 1_555 1_555
C10_2 C5_2 1_555 1_555
H7_2 C10_2 1_555 1_555
C11_2 H8_2 1_555 1_555
C12_2 C8_2 1_555 1_555
C13_2 C12_2 1_555 1_555
H9_2 C13_2 1_555 1_555
C14_2 N3_2 1_555 1_555
H10_2 C14_2 1_555 1_555
C15_2 N6_2 1_555 1_555
H11_2 C15_2 1_555 1_555
C16_2 C15_2 1_555 1_555
C17_2 C16_2 1_555 1_555
H12_2 C17_2 1_555 1_555
C18_2 N5_2 1_555 1_555
H13_2 C18_2 1_555 1_555
C19_2 C16_2 1_555 1_555
C20_2 C19_2 1_555 1_555
H14_2 C20_2 1_555 1_555
C21_2 C20_2 1_555 1_555
H15_2 C21_2 1_555 1_555
C22_2 C21_2 1_555 1_555
C23_2 C22_2 1_555 1_555
H16_2 C23_2 1_555 1_555
C24_2 C19_2 1_555 1_555
H17_2 C24_2 1_555 1_555
C25_2 N8_2 1_555 1_555
H18_2 C25_2 1_555 1_555
C26_2 C22_2 1_555 1_555
C27_2 C26_2 1_555 1_555
H19_2 C27_2 1_555 1_555
C28_2 N7_2 1_555 1_555
H20_2 C28_2 1_555 1_555
C29A H21A 1_555 1_555
C30A C29A 1_555 1_555
C31A C30A 1_555 1_555
H22A C31A 1_555 1_555
C32A N9A 1_555 1_555
H23A C32A 1_555 1_555
C33A C35 1_555 1_555
H24A C33A 1_555 1_555
C34A C30A 1_555 1_555
C35A C33 1_555 1_555
H25A C35A 1_555 1_555
N10 Cu2_2 1_555 1_555
C3 C4 1_555 1_555
C9 C10 1_555 1_555
C11 C12 1_555 1_555
C13 C14 1_555 1_555
C17 C18 1_555 1_555
C23 C24 1_555 1_555
C25 C26 1_555 1_555
C27 C28 1_555 1_555
C31 C32 1_555 1_555
C33 C34 1_555 1_555
N7_2 N8_2 1_555 1_555
C3_2 C4_2 1_555 1_555
C9_2 C10_2 1_555 1_555
C11_2 C12_2 1_555 1_555
C13_2 C14_2 1_555 1_555
C17_2 C18_2 1_555 1_555
C23_2 C24_2 1_555 1_555
C25_2 C26_2 1_555 1_555
C27_2 C28_2 1_555 1_555
C31A C32A 1_555 1_555
C33A C34A 1_555 1_555
C34A C35A 1_555 1_555

#END
