
#######################################################################
#
#                 Cambridge Crystallographic Data Centre
#                                CCDC 
#
#######################################################################
#
# If this CIF has been generated from an entry in the Cambridge 
# Structural Database, then it will include bibliographic, chemical, 
# crystal, experimental, refinement or atomic coordinate data resulting 
# from the CCDC's data processing and validation procedures.
#
#######################################################################

data_WOLMOB
_symmetry_cell_setting           orthorhombic
_symmetry_space_group_name_H-M   'P m n 21'
_symmetry_Int_Tables_number      31
_space_group_name_Hall           'P 2ac -2'
loop_
_symmetry_equiv_pos_site_id
_symmetry_equiv_pos_as_xyz
1 x,y,z
2 1/2-x,-y,1/2+z
3 -x,y,z
4 1/2+x,-y,1/2+z
_cell_length_a                   18.5491(14)
_cell_length_b                   10.2932(8)
_cell_length_c                   12.0723(9)
_cell_angle_alpha                90
_cell_angle_beta                 90
_cell_angle_gamma                90
_cell_volume                     2304.96
loop_
_atom_site_label
_atom_site_type_symbol
_atom_site_fract_x
_atom_site_fract_y
_atom_site_fract_z
Zn1 Zn -0.5000 -1.08204(7) -0.05573(5)
Zn2 Zn -1.0000 -1.44463(6) 1.20741(5)
O1 O -0.8139(3) -1.0735(3) 0.8169(4)
O2 O -0.5000 -1.3623(5) -0.3141(5)
O3 O -0.5000 -1.4328(4) -0.4847(5)
O4 O -0.5000 -0.8443(6) -0.0824(5)
O5 O -0.6921(3) -1.4250(3) 0.3466(4)
O6 O -0.5000 -0.9534(4) 0.0686(4)
O7 O -0.5589(4) -0.5708(4) -0.1300(4)
O8 O -0.5582(4) -1.0951(4) -0.2133(4)
N1 N -0.9157(2) -1.3323(3) 1.1407(3)
N2 N -0.8269(3) -1.2818(4) 0.8734(3)
H1 H -0.8242 -1.3617 0.8531
N3 N -0.5858(2) -1.1902(4) 0.0135(3)
N4 N -0.6726(3) -1.2216(4) 0.2832(4)
H2 H -0.6729 -1.1408 0.3013
C1 C -0.8938(3) -1.3440(4) 1.0352(4)
H3 H -0.9111 -1.4135 0.9938
C2 C -0.8463(3) -1.2572(4) 0.9847(4)
C3 C -0.8192(3) -1.1562(5) 1.0476(5)
H4 H -0.7870 -1.0969 1.0171
C4 C -0.8406(3) -1.1452(5) 1.1562(4)
H5 H -0.8230 -1.0777 1.1997
C5 C -0.8880(3) -1.2336(4) 1.2007(5)
H6 H -0.9015 -1.2250 1.2745
C6 C -0.8124(3) -1.1904(5) 0.7966(4)
C7 C -0.7933(3) -1.2449(4) 0.6835(4)
H7 H -0.8245 -1.3200 0.6698
C8 C -0.7152(3) -1.2923(5) 0.6817(4)
H8 H -0.6834 -1.2211 0.7012
H9 H -0.7091 -1.3603 0.7365
C9 C -0.6942(3) -1.3445(5) 0.5682(5)
H10 H -0.6436 -1.3681 0.5690
H11 H -0.7218 -1.4226 0.5532
C10 C -0.7071(3) -1.2480(4) 0.4763(4)
H12 H -0.6752 -1.1732 0.4876
C11 C -0.7853(3) -1.2005(5) 0.4779(4)
H13 H -0.7915 -1.1336 0.4221
H14 H -0.8170 -1.2722 0.4594
C12 C -0.8064(3) -1.1462(5) 0.5906(4)
H15 H -0.8570 -1.1224 0.5895
H16 H -0.7786 -1.0682 0.6052
C13 C -0.5000 -1.3420(7) -0.4152(8)
C14 C -0.5000 -1.2054(6) -0.4584(7)
C15 C -0.5000 -1.0973(6) -0.3886(6)
C16 C -0.5000 -0.9740(6) -0.4377(6)
H17 H -0.5000 -0.9003 -0.3930
C17 C -0.5000 -0.9605(7) -0.5494(6)
H18 H -0.5000 -0.8774 -0.5796
C18 C -0.5000 -1.0638(8) -0.6181(7)
H19 H -0.5000 -1.0526 -0.6945
C19 C -0.5000 -1.1863(8) -0.5725(7)
H20 H -0.5000 -1.2582 -0.6191
C20 C -0.6146(3) -1.2894(4) -0.0414(5)
H21 H -0.6009 -1.3033 -0.1145
C21 C -0.6640(4) -1.3725(5) 0.0061(4)
H22 H -0.6833 -1.4408 -0.0347
C22 C -0.6846(3) -1.3535(5) 0.1146(5)
H23 H -0.7182 -1.4080 0.1478
C23 C -0.6542(3) -1.2517(4) 0.1730(4)
C24 C -0.6047(3) -1.1724(4) 0.1201(4)
H24 H -0.5837 -1.1046 0.1595
C25 C -0.6901(3) -1.3083(5) 0.3645(5)
C26 C -0.5000 -0.7256(6) 0.0876(6)
C27 C -0.5000 -0.7354(6) 0.2020(7)
H25 H -0.5000 -0.8174 0.2345
C28 C -0.5000 -0.6277(8) 0.2685(6)
H26 H -0.5000 -0.6377 0.3450
C29 C -0.5000 -0.5083(8) 0.2249(7)
H27 H -0.5000 -0.4358 0.2708
C30 C -0.5000 -0.4932(7) 0.1094(7)
H28 H -0.5000 -0.4105 0.0783
C31 C -0.5000 -0.6024(7) 0.0417(6)
C32 C -0.5000 -0.8470(6) 0.0182(7)
C33 C -0.5000 -0.5820(7) -0.0859(8)
C34 C -0.5000 -1.0994(7) -0.2656(7)
O8B O -0.4418(4) -1.0951(4) -0.2133(4)
O7B O -0.4411(4) -0.5708(4) -0.1300(4)
O1B O -1.1861(3) -1.0735(3) 0.8169(4)
O5B O -1.3079(3) -1.4250(3) 0.3466(4)
N1B N -1.0843(2) -1.3323(3) 1.1407(3)
N2B N -1.1731(3) -1.2818(4) 0.8734(3)
H1B H -1.1758 -1.3617 0.8531
N3B N -1.4142(2) -1.1902(4) 0.0135(3)
N4B N -1.3274(3) -1.2216(4) 0.2832(4)
H2B H -1.3271 -1.1408 0.3013
C1B C -1.1062(3) -1.3440(4) 1.0352(4)
H3B H -1.0889 -1.4135 0.9938
C2B C -1.1537(3) -1.2572(4) 0.9847(4)
C3B C -1.1808(3) -1.1562(5) 1.0476(5)
H4B H -1.2130 -1.0969 1.0171
C4B C -1.1594(3) -1.1452(5) 1.1562(4)
H5B H -1.1770 -1.0777 1.1997
C5B C -1.1120(3) -1.2336(4) 1.2007(5)
H6B H -1.0985 -1.2250 1.2745
C6B C -1.1876(3) -1.1904(5) 0.7966(4)
C7B C -1.2067(3) -1.2449(4) 0.6835(4)
H7B H -1.1755 -1.3200 0.6698
C8B C -1.2848(3) -1.2923(5) 0.6817(4)
H8B H -1.3166 -1.2211 0.7012
H9B H -1.2909 -1.3603 0.7365
C9B C -1.3058(3) -1.3445(5) 0.5682(5)
H10B H -1.3564 -1.3681 0.5690
H11B H -1.2782 -1.4226 0.5532
C10B C -1.2929(3) -1.2480(4) 0.4763(4)
H12B H -1.3248 -1.1732 0.4876
C11B C -1.2147(3) -1.2005(5) 0.4779(4)
H13B H -1.2085 -1.1336 0.4221
H14B H -1.1830 -1.2722 0.4594
C12B C -1.1936(3) -1.1462(5) 0.5906(4)
H15B H -1.1430 -1.1224 0.5895
H16B H -1.2214 -1.0682 0.6052
C20B C -1.3854(3) -1.2894(4) -0.0414(5)
H21B H -1.3991 -1.3033 -0.1145
C21B C -1.3360(4) -1.3725(5) 0.0061(4)
H22B H -1.3167 -1.4408 -0.0347
C22B C -1.3154(3) -1.3535(5) 0.1146(5)
H23B H -1.2818 -1.4080 0.1478
C23B C -1.3458(3) -1.2517(4) 0.1730(4)
C24B C -1.3953(3) -1.1724(4) 0.1201(4)
H24B H -1.4163 -1.1046 0.1595
C25B C -1.3099(3) -1.3083(5) 0.3645(5)
Zn1_2 Zn -1.5000 -1.08204(7) -0.05573(5)
Zn2A Zn -0.5000 -1.55537(6) -0.29259(5)
Zn2A_2 Zn -0.5000 -0.55537(6) -0.29259(5)
O2A O -1.0000 -1.6377(5) 1.1859(5)
O7A O -0.9411(4) -1.4292(4) 1.3700(4)
O7C O -1.0589(4) -1.4292(4) 1.3700(4)
N3B_2 N -0.4142(2) -1.1902(4) 0.0135(3)
loop_
_geom_bond_atom_site_label_1
_geom_bond_atom_site_label_2
_geom_bond_site_symmetry_1
_geom_bond_site_symmetry_2
Zn1 O4 1_555 1_555
Zn2 N1 1_555 1_555
O1 C6 1_555 1_555
O2 C13 1_555 1_555
O3 C13 1_555 1_555
O4 C32 1_555 1_555
O5 C25 1_555 1_555
O6 Zn1 1_555 1_555
O7 C33 1_555 1_555
O8 Zn1 1_555 1_555
N1 C1 1_555 1_555
N2 H1 1_555 1_555
N3 Zn1 1_555 1_555
N4 H2 1_555 1_555
C1 H3 1_555 1_555
C2 N2 1_555 1_555
C3 C2 1_555 1_555
H4 C3 1_555 1_555
C4 C3 1_555 1_555
H5 C4 1_555 1_555
C5 N1 1_555 1_555
H6 C5 1_555 1_555
C6 N2 1_555 1_555
C7 C6 1_555 1_555
H7 C7 1_555 1_555
C8 C7 1_555 1_555
H8 C8 1_555 1_555
H9 C8 1_555 1_555
C9 C8 1_555 1_555
H10 C9 1_555 1_555
H11 C9 1_555 1_555
C10 C9 1_555 1_555
H12 C10 1_555 1_555
C11 C10 1_555 1_555
H13 C11 1_555 1_555
H14 C11 1_555 1_555
C12 C7 1_555 1_555
H15 C12 1_555 1_555
H16 C12 1_555 1_555
C13 C14 1_555 1_555
C14 C15 1_555 1_555
C15 C16 1_555 1_555
C16 H17 1_555 1_555
C17 C16 1_555 1_555
H18 C17 1_555 1_555
C18 C17 1_555 1_555
H19 C18 1_555 1_555
C19 C14 1_555 1_555
H20 C19 1_555 1_555
C20 N3 1_555 1_555
H21 C20 1_555 1_555
C21 C20 1_555 1_555
H22 C21 1_555 1_555
C22 C21 1_555 1_555
H23 C22 1_555 1_555
C23 N4 1_555 1_555
C24 N3 1_555 1_555
H24 C24 1_555 1_555
C25 N4 1_555 1_555
C26 C27 1_555 1_555
C27 H25 1_555 1_555
C28 C27 1_555 1_555
H26 C28 1_555 1_555
C29 C28 1_555 1_555
H27 C29 1_555 1_555
C30 C29 1_555 1_555
H28 C30 1_555 1_555
C31 C26 1_555 1_555
C32 O6 1_555 1_555
C33 C31 1_555 1_555
C34 O8 1_555 1_555
O8B Zn1 1_555 1_555
O7B C33 1_555 1_555
O1B C6B 1_555 1_555
O5B C25B 1_555 1_555
N1B Zn2 1_555 1_555
N2B H1B 1_555 1_555
N3B C20B 1_555 1_555
N4B H2B 1_555 1_555
C1B N1B 1_555 1_555
H3B C1B 1_555 1_555
C2B N2B 1_555 1_555
C3B C2B 1_555 1_555
H4B C3B 1_555 1_555
C4B C3B 1_555 1_555
H5B C4B 1_555 1_555
C5B N1B 1_555 1_555
H6B C5B 1_555 1_555
C6B N2B 1_555 1_555
C7B C6B 1_555 1_555
H7B C7B 1_555 1_555
C8B C7B 1_555 1_555
H8B C8B 1_555 1_555
H9B C8B 1_555 1_555
C9B C8B 1_555 1_555
H10B C9B 1_555 1_555
H11B C9B 1_555 1_555
C10B C9B 1_555 1_555
H12B C10B 1_555 1_555
C11B C10B 1_555 1_555
H13B C11B 1_555 1_555
H14B C11B 1_555 1_555
C12B C7B 1_555 1_555
H15B C12B 1_555 1_555
H16B C12B 1_555 1_555
C20B H21B 1_555 1_555
C21B C20B 1_555 1_555
H22B C21B 1_555 1_555
C22B C21B 1_555 1_555
H23B C22B 1_555 1_555
C23B N4B 1_555 1_555
C24B N3B 1_555 1_555
H24B C24B 1_555 1_555
C25B N4B 1_555 1_555
Zn1_2 N3B 1_555 1_555
Zn2A O2 1_555 1_555
Zn2A_2 O7 1_555 1_555
O2A Zn2 1_555 1_555
O7A Zn2 1_555 1_555
O7C Zn2 1_555 1_555
N3B_2 Zn1 1_555 1_555
C1 C2 1_555 1_555
C4 C5 1_555 1_555
C10 C25 1_555 1_555
C11 C12 1_555 1_555
C15 C34 1_555 1_555
C18 C19 1_555 1_555
C22 C23 1_555 1_555
C23 C24 1_555 1_555
C26 C32 1_555 1_555
C30 C31 1_555 1_555
C34 O8B 1_555 1_555
O7B Zn2A_2 1_555 1_555
C1B C2B 1_555 1_555
C4B C5B 1_555 1_555
C10B C25B 1_555 1_555
C11B C12B 1_555 1_555
C22B C23B 1_555 1_555
C23B C24B 1_555 1_555

#END
