
#######################################################################
#
#                 Cambridge Crystallographic Data Centre
#                                CCDC 
#
#######################################################################
#
# If this CIF has been generated from an entry in the Cambridge 
# Structural Database, then it will include bibliographic, chemical, 
# crystal, experimental, refinement or atomic coordinate data resulting 
# from the CCDC's data processing and validation procedures.
#
#######################################################################

data_WOLMEQ
_symmetry_cell_setting           triclinic
_symmetry_space_group_name_H-M   'P -1'
_symmetry_Int_Tables_number      2
_space_group_name_Hall           '-P 1'
loop_
_symmetry_equiv_pos_site_id
_symmetry_equiv_pos_as_xyz
1 x,y,z
2 -x,-y,-z
_cell_length_a                   8.3964(2)
_cell_length_b                   9.5399(2)
_cell_length_c                   12.4383(3)
_cell_angle_alpha                80.0473(10)
_cell_angle_beta                 82.901(2)
_cell_angle_gamma                64.9520(11)
_cell_volume                     887.614
loop_
_atom_site_label
_atom_site_type_symbol
_atom_site_fract_x
_atom_site_fract_y
_atom_site_fract_z
Ag1 Ag 0.08269(3) 0.29858(3) 0.95226(2)
N1 N 0.1343(3) 0.5117(3) 0.8564(2)
N2 N 0.0737(3) 0.6561(3) 0.8864(2)
N3 N 0.3385(3) 0.0831(3) 0.9063(2)
N4 N 0.4703(4) 0.1031(3) 0.8416(2)
N5 N -0.0569(3) 0.1889(3) 0.7806(2)
O1 O -0.0423(3) 0.1219(3) 0.87777(19)
O2 O -0.0877(3) 0.1306(3) 0.7077(2)
O3 O -0.0404(3) 0.3153(3) 0.7585(2)
C1 C 0.1099(4) 0.7654(4) 0.8207(3)
H1 H 0.0646 0.8651 0.8409
C2 C 0.2116(4) 0.7392(4) 0.7233(3)
H2 H 0.2339 0.8191 0.6795
C3 C 0.2783(4) 0.5922(4) 0.6932(3)
C4 C 0.2319(4) 0.4829(4) 0.7643(3)
H3 H 0.2726 0.3828 0.7453
C5 C 0.3923(4) 0.5459(4) 0.5932(3)
C6 C 0.5322(4) 0.3990(4) 0.5968(3)
H4 H 0.5539 0.3312 0.6620
C7 C 0.3613(4) 0.6462(4) 0.4959(3)
H5 H 0.2684 0.7445 0.4930
C8 C 0.6049(4) -0.0207(4) 0.8110(3)
H6 H 0.6944 -0.0050 0.7658
C9 C 0.6215(4) -0.1733(4) 0.8421(3)
H7 H 0.7176 -0.2569 0.8168
C10 C 0.4914(4) -0.1968(4) 0.9114(3)
C11 C 0.3494(4) -0.0602(4) 0.9391(3)
H8 H 0.2568 -0.0713 0.9836
C12 C 0.4975(4) -0.3537(4) 0.9567(3)
C13 C 0.5742(4) -0.4781(4) 0.8959(3)
H9 H 0.6245 -0.4640 0.8263
C14 C 0.4242(4) -0.3779(4) 1.0616(3)
H10 H 0.3737 -0.2960 1.1033
Ag1A Ag 0.91731(3) 0.70142(3) 0.04774(2)
Ag1A_2 Ag -0.08269(3) 0.70142(3) 1.04774(2)
Ag1_2 Ag 1.08269(3) 0.29858(3) -0.04774(2)
Ag1A_3 Ag 0.91731(3) -1.29858(3) 1.04774(2)
N1A N 0.8657(3) 0.4883(3) 0.1436(2)
N2A N 0.9263(3) 0.3439(3) 0.1136(2)
N2A_2 N -0.0737(3) 0.3439(3) 1.1136(2)
N2_2 N 1.0737(3) 0.6561(3) -0.1136(2)
N3A N 0.6615(3) -1.0831(3) 1.0937(2)
N3A_2 N 0.6615(3) 0.9169(3) 0.0937(2)
N4A N 0.5297(4) -1.1031(3) 1.1584(2)
N5A N 1.0569(3) 0.8111(3) 0.2194(2)
O1A O 1.0423(3) 0.8781(3) 0.12223(19)
O2A O 1.0877(3) 0.8694(3) 0.2923(2)
O3A O 1.0404(3) 0.6847(3) 0.2415(2)
C1A C 0.8901(4) 0.2346(4) 0.1793(3)
H1A H 0.9354 0.1349 0.1591
C2A C 0.7884(4) 0.2608(4) 0.2767(3)
H2A H 0.7661 0.1809 0.3205
C3A C 0.7217(4) 0.4078(4) 0.3068(3)
C4A C 0.7681(4) 0.5171(4) 0.2357(3)
H3A H 0.7274 0.6172 0.2547
C5A C 0.6077(4) 0.4541(4) 0.4068(3)
C6A C 0.4678(4) 0.6010(4) 0.4032(3)
H4A H 0.4461 0.6688 0.3380
C7A C 0.6387(4) 0.3538(4) 0.5041(3)
H5A H 0.7316 0.2555 0.5070
C8A C 0.3951(4) -0.9793(4) 1.1890(3)
H6A H 0.3056 -0.9950 1.2342
C9A C 0.3785(4) -0.8267(4) 1.1579(3)
H7A H 0.2824 -0.7431 1.1832
C10A C 0.5086(4) -0.8032(4) 1.0886(3)
C11A C 0.6506(4) -0.9398(4) 1.0609(3)
H8A H 0.7432 -0.9287 1.0164
C12A C 0.5025(4) -0.6463(4) 1.0433(3)
C13A C 0.4258(4) -0.5219(4) 1.1041(3)
H9A H 0.3755 -0.5360 1.1737
C14A C 0.5758(4) -0.6221(4) 0.9384(3)
H10A H 0.6263 -0.7040 0.8967
C15 C 0.8414(5) 0.7726(4) 0.4855(3)
H11 H 0.9492 0.7260 0.4397
Cl1 Cl 0.86568(12) 0.90581(11) 0.55624(8)
Cl2 Cl 0.81266(17) 0.62264(12) 0.57839(9)
Cl3 Cl 0.66427(14) 0.87013(14) 0.40019(10)
loop_
_geom_bond_atom_site_label_1
_geom_bond_atom_site_label_2
_geom_bond_site_symmetry_1
_geom_bond_site_symmetry_2
Ag1 N1 1_555 1_555
N1 N2 1_555 1_555
N2 C1 1_555 1_555
N3 Ag1 1_555 1_555
N4 N3 1_555 1_555
N5 O1 1_555 1_555
O1 Ag1 1_555 1_555
O2 N5 1_555 1_555
O3 Ag1 1_555 1_555
C1 H1 1_555 1_555
C2 C1 1_555 1_555
H2 C2 1_555 1_555
C3 C2 1_555 1_555
C4 N1 1_555 1_555
H3 C4 1_555 1_555
C5 C3 1_555 1_555
C6 C5 1_555 1_555
H4 C6 1_555 1_555
C7 C5 1_555 1_555
H5 C7 1_555 1_555
C8 N4 1_555 1_555
H6 C8 1_555 1_555
C9 C8 1_555 1_555
H7 C9 1_555 1_555
C10 C9 1_555 1_555
C11 N3 1_555 1_555
H8 C11 1_555 1_555
C12 C10 1_555 1_555
C13 C12 1_555 1_555
H9 C13 1_555 1_555
C14 C12 1_555 1_555
H10 C14 1_555 1_555
C15 H11 1_555 1_555
Cl1 C15 1_555 1_555
Cl2 C15 1_555 1_555
Cl3 C15 1_555 1_555
Ag1A N1A 1_555 1_555
Ag1A_2 N2 1_555 1_555
Ag1_2 N2A 1_555 1_555
Ag1A_3 N3A 1_555 1_555
N1A N2A 1_555 1_555
N2A C1A 1_555 1_555
N2A_2 Ag1 1_555 1_555
N2_2 Ag1A 1_555 1_555
N3A N4A 1_555 1_555
N3A_2 Ag1A 1_555 1_555
N4A C8A 1_555 1_555
N5A O1A 1_555 1_555
O1A Ag1A 1_555 1_555
O2A N5A 1_555 1_555
O3A Ag1A 1_555 1_555
C1A H1A 1_555 1_555
C2A C1A 1_555 1_555
H2A C2A 1_555 1_555
C3A C2A 1_555 1_555
C4A N1A 1_555 1_555
H3A C4A 1_555 1_555
C5A C3A 1_555 1_555
C6A C7 1_555 1_555
H4A C6A 1_555 1_555
C7A C6 1_555 1_555
H5A C7A 1_555 1_555
C8A H6A 1_555 1_555
C9A C8A 1_555 1_555
H7A C9A 1_555 1_555
C10A C9A 1_555 1_555
C11A N3A 1_555 1_555
H8A C11A 1_555 1_555
C12A C10A 1_555 1_555
C13A C14 1_555 1_555
H9A C13A 1_555 1_555
C14A C13 1_555 1_555
H10A C14A 1_555 1_555
N5 O3 1_555 1_555
C3 C4 1_555 1_555
C10 C11 1_555 1_555
N5A O3A 1_555 1_555
C3A C4A 1_555 1_555
C5A C6A 1_555 1_555
C5A C7A 1_555 1_555
C10A C11A 1_555 1_555
C12A C13A 1_555 1_555
C12A C14A 1_555 1_555

#END
