
#######################################################################
#
#                 Cambridge Crystallographic Data Centre
#                                CCDC 
#
#######################################################################
#
# If this CIF has been generated from an entry in the Cambridge 
# Structural Database, then it will include bibliographic, chemical, 
# crystal, experimental, refinement or atomic coordinate data resulting 
# from the CCDC's data processing and validation procedures.
#
#######################################################################

data_WOLNAN
_symmetry_cell_setting           monoclinic
_symmetry_space_group_name_H-M   'P 21/c'
_symmetry_Int_Tables_number      14
_space_group_name_Hall           '-P 2ybc'
loop_
_symmetry_equiv_pos_site_id
_symmetry_equiv_pos_as_xyz
1 x,y,z
2 -x,1/2+y,1/2-z
3 -x,-y,-z
4 x,1/2-y,1/2+z
_cell_length_a                   7.2863(3)
_cell_length_b                   14.3867(6)
_cell_length_c                   12.2774(5)
_cell_angle_alpha                90
_cell_angle_beta                 90.945(3)
_cell_angle_gamma                90
_cell_volume                     1286.81
loop_
_atom_site_label
_atom_site_type_symbol
_atom_site_fract_x
_atom_site_fract_y
_atom_site_fract_z
Ag1 Ag 0.21935(4) 0.047736(19) 0.529325(18)
O1 O 0.4686(3) 0.13728(16) 0.6522(2)
O2 O 0.5021(3) 0.11499(16) 0.47559(19)
N1 N 0.0361(3) 0.02061(16) 0.67188(18)
N2 N -0.1337(3) -0.01318(16) 0.65023(17)
C1 C -0.2563(4) -0.01654(19) 0.7283(2)
H1 H -0.3726 -0.0394 0.7109
C2 C -0.2216(4) 0.01236(18) 0.8361(2)
C3 C -0.0487(4) 0.04644(19) 0.8565(2)
H2 H -0.0150 0.0670 0.9258
C4 C 0.0751(4) 0.04984(19) 0.7720(2)
H3 H 0.1915 0.0739 0.7864
C5 C -0.3655(4) 0.00621(19) 0.9196(2)
C6 C -0.5032(4) -0.06046(19) 0.9128(2)
H4 H -0.5060 -0.1016 0.8544
C7 C -0.3637(4) 0.0666(2) 1.0085(2)
H5 H -0.2722 0.1114 1.0149
C8 C 0.5563(4) 0.1457(2) 0.5669(3)
C9 C 0.7408(4) 0.19201(19) 0.5704(2)
C10 C 0.8505(5) 0.1926(2) 0.4796(2)
H6 H 0.8077 0.1658 0.4151
C11 C 1.0240(5) 0.2327(2) 0.4834(3)
H7 H 1.0975 0.2323 0.4222
C12 C 1.0860(5) 0.2734(2) 0.5791(3)
H8 H 1.2024 0.2999 0.5826
C13 C 0.9773(5) 0.2747(2) 0.6686(3)
H9 H 1.0194 0.3030 0.7324
C14 C 0.8053(4) 0.2344(2) 0.6652(2)
H10 H 0.7324 0.2356 0.7267
Ag1B Ag -1.21935(4) -0.047736(19) 1.470675(18)
Ag1B_2 Ag -0.21935(4) -0.047736(19) 0.470675(18)
Ag1_2 Ag -0.78065(4) 0.047736(19) 1.529325(18)
O1B O -1.4686(3) -0.13728(16) 1.3478(2)
O2B O -1.5021(3) -0.11499(16) 1.52441(19)
N1B N -1.0361(3) -0.02061(16) 1.32812(18)
N2B N -0.8663(3) 0.01318(16) 1.34977(17)
N2B_2 N 0.1337(3) 0.01318(16) 0.34977(17)
N2_2 N -1.1337(3) -0.01318(16) 1.65023(17)
C1B C -0.7437(4) 0.01654(19) 1.2717(2)
H1B H -0.6274 0.0394 1.2891
C2B C -0.7784(4) -0.01236(18) 1.1639(2)
C3B C -0.9513(4) -0.04644(19) 1.1435(2)
H2B H -0.9850 -0.0670 1.0742
C4B C -1.0751(4) -0.04984(19) 1.2280(2)
H3B H -1.1915 -0.0739 1.2136
C5B C -0.6345(4) -0.00621(19) 1.0804(2)
C6B C -0.4968(4) 0.06046(19) 1.0872(2)
H4B H -0.4940 0.1016 1.1456
C7B C -0.6363(4) -0.0666(2) 0.9915(2)
H5B H -0.7278 -0.1114 0.9851
C8B C -1.5563(4) -0.1457(2) 1.4331(3)
C9B C -1.7408(4) -0.19201(19) 1.4296(2)
C10B C -1.8505(5) -0.1926(2) 1.5204(2)
H6B H -1.8077 -0.1658 1.5849
C11B C -2.0240(5) -0.2327(2) 1.5166(3)
H7B H -2.0975 -0.2323 1.5778
C12B C -2.0860(5) -0.2734(2) 1.4209(3)
H8B H -2.2024 -0.2999 1.4174
C13B C -1.9773(5) -0.2747(2) 1.3314(3)
H9B H -2.0194 -0.3030 1.2676
C14B C -1.8053(4) -0.2344(2) 1.3348(2)
H10B H -1.7324 -0.2356 1.2733
O3 O 0.3689(8) 0.2241(4) 0.3013(4)
H11 H 0.4456 0.2155 0.3636
H12 H 0.4348 0.2627 0.2594
O4? O 0.3741(18) 0.2762(9) 0.3349(11)
loop_
_geom_bond_atom_site_label_1
_geom_bond_atom_site_label_2
_geom_bond_site_symmetry_1
_geom_bond_site_symmetry_2
Ag1 O1 1_555 1_555
O1 C8 1_555 1_555
O2 Ag1 1_555 1_555
N1 Ag1 1_555 1_555
N2 N1 1_555 1_555
C1 N2 1_555 1_555
H1 C1 1_555 1_555
C2 C1 1_555 1_555
C3 C2 1_555 1_555
H2 C3 1_555 1_555
C4 N1 1_555 1_555
H3 C4 1_555 1_555
C5 C2 1_555 1_555
C6 C5 1_555 1_555
H4 C6 1_555 1_555
C7 C5 1_555 1_555
H5 C7 1_555 1_555
C8 O2 1_555 1_555
C9 C8 1_555 1_555
C10 C9 1_555 1_555
H6 C10 1_555 1_555
C11 C10 1_555 1_555
H7 C11 1_555 1_555
C12 C11 1_555 1_555
H8 C12 1_555 1_555
C13 C12 1_555 1_555
H9 C13 1_555 1_555
C14 C9 1_555 1_555
H10 C14 1_555 1_555
O3 H11 1_555 1_555
H12 O3 1_555 1_555
Ag1B O1B 1_555 1_555
Ag1B_2 N2 1_555 1_555
Ag1_2 N2B 1_555 1_555
O1B C8B 1_555 1_555
O2B Ag1B 1_555 1_555
N1B Ag1B 1_555 1_555
N2B N1B 1_555 1_555
N2B_2 Ag1 1_555 1_555
N2_2 Ag1B 1_555 1_555
C1B N2B 1_555 1_555
H1B C1B 1_555 1_555
C2B C1B 1_555 1_555
C3B C2B 1_555 1_555
H2B C3B 1_555 1_555
C4B N1B 1_555 1_555
H3B C4B 1_555 1_555
C5B C2B 1_555 1_555
C6B C7 1_555 1_555
H4B C6B 1_555 1_555
C7B C6 1_555 1_555
H5B C7B 1_555 1_555
C8B O2B 1_555 1_555
C9B C8B 1_555 1_555
C10B C9B 1_555 1_555
H6B C10B 1_555 1_555
C11B C10B 1_555 1_555
H7B C11B 1_555 1_555
C12B C11B 1_555 1_555
H8B C12B 1_555 1_555
C13B C12B 1_555 1_555
H9B C13B 1_555 1_555
C14B C9B 1_555 1_555
H10B C14B 1_555 1_555
C3 C4 1_555 1_555
C13 C14 1_555 1_555
C3B C4B 1_555 1_555
C5B C6B 1_555 1_555
C5B C7B 1_555 1_555
C13B C14B 1_555 1_555

#END
