
#######################################################################
#
#                 Cambridge Crystallographic Data Centre
#                                CCDC 
#
#######################################################################
#
# If this CIF has been generated from an entry in the Cambridge 
# Structural Database, then it will include bibliographic, chemical, 
# crystal, experimental, refinement or atomic coordinate data resulting 
# from the CCDC's data processing and validation procedures.
#
#######################################################################

data_WOLNER
_symmetry_cell_setting           triclinic
_symmetry_space_group_name_H-M   'P -1'
_symmetry_Int_Tables_number      2
_space_group_name_Hall           '-P 1'
loop_
_symmetry_equiv_pos_site_id
_symmetry_equiv_pos_as_xyz
1 x,y,z
2 -x,-y,-z
_cell_length_a                   9.4238(6)
_cell_length_b                   14.2038(12)
_cell_length_c                   14.2032(10)
_cell_angle_alpha                104.457(8)
_cell_angle_beta                 98.140(8)
_cell_angle_gamma                108.924(9)
_cell_volume                     1689.26
loop_
_atom_site_label
_atom_site_type_symbol
_atom_site_fract_x
_atom_site_fract_y
_atom_site_fract_z
C30 C 0.5000 0.5000 1.0000
C31 C 0.5550(11) 0.6039(8) 1.0609(6)
C32 C 0.5586(12) 0.6845(8) 1.0240(8)
H27 H 0.5998 0.7555 1.0698
C33 C 0.5012(12) 0.6641(9) 0.9228(7)
H28 H 0.5030 0.7237 0.8979
C34 C 0.4418(12) 0.5626(8) 0.8544(7)
H29 H 0.4031 0.5484 0.7836
C35 C 0.4383(11) 0.4793(8) 0.8909(7)
C37 C 0.6296(10) 0.6290(10) 1.1801(9)
O8 O 0.4270(13) 0.4501(6) 0.7939(5)
O9 O 0.7158(10) 0.7167(6) 1.2225(6)
C31A C 0.4450(11) 0.3961(8) 0.9391(6)
C32A C 0.4414(12) 0.3155(8) 0.9760(8)
H27A H 0.4002 0.2445 0.9302
C33A C 0.4988(12) 0.3359(9) 1.0772(7)
H28A H 0.4970 0.2763 1.1021
C34A C 0.5582(12) 0.4374(8) 1.1456(7)
H29A H 0.5969 0.4516 1.2164
C35A C 0.5617(11) 0.5207(8) 1.1091(7)
C37A C 0.3704(10) 0.3710(10) 0.8199(9)
O8A O 0.5730(13) 0.5499(6) 1.2061(5)
O9A O 0.2842(10) 0.2833(6) 0.7775(6)
O14 O 0.3792(14) 0.0575(9) 0.9536(8)
Ag1 Ag 0.65919(4) 0.14847(3) 0.42149(3)
Ag2 Ag 1.79921(5) 0.43376(3) 0.44344(3)
Ag3 Ag 0.42076(5) 0.14904(4) 0.57667(3)
N1 N 0.6726(5) 0.2628(3) 0.6477(3)
N2 N 0.7677(5) 0.2650(3) 0.5850(3)
N3 N 0.3220(5) 0.0209(3) 0.4287(2)
N4 N 0.4128(4) 0.0241(3) 0.3634(3)
N5 N 0.0237(5) -0.4064(3) -0.3510(3)
N6 N -0.1315(5) -0.4651(3) -0.3948(3)
C1 C 0.7299(6) 0.3189(4) 0.7439(3)
H1 H 0.6603 0.3170 0.7854
C2 C 0.8882(6) 0.3814(3) 0.7888(3)
C3 C 0.9846(6) 0.3811(4) 0.7241(3)
H2 H 1.0917 0.4196 0.7476
C4 C 0.9198(6) 0.3226(4) 0.6233(3)
H3 H 0.9859 0.3234 0.5796
C5 C 0.8471(7) 0.4705(5) 0.9520(4)
H4 H 0.7424 0.4506 0.9205
C6 C 0.9449(6) 0.4418(3) 0.8972(3)
C7 C 1.0986(7) 0.4721(5) 0.9476(4)
H5 H 1.1671 0.4528 0.9121
C8 C 0.3532(5) -0.0334(3) 0.2686(3)
H6 H 0.4188 -0.0290 0.2244
C9 C 0.1944(6) -0.1023(3) 0.2287(3)
C10 C 0.1042(6) -0.1042(4) 0.2952(3)
H7 H -0.0015 -0.1471 0.2746
C11 C 0.1720(6) -0.0407(4) 0.3955(3)
H8 H 0.1090 -0.0417 0.4413
C12 C 0.1355(5) -0.1636(3) 0.1202(3)
C13 C 0.2360(6) -0.1890(5) 0.0642(4)
H9 H 0.3416 -0.1667 0.0948
C14 C 0.1798(6) -0.2470(5) -0.0361(4)
H10 H 0.2481 -0.2649 -0.0726
C15 C 0.0237(6) -0.2800(3) -0.0851(3)
C16 C -0.0754(6) -0.2561(4) -0.0290(4)
H11 H -0.1808 -0.2782 -0.0599
C17 C -0.0213(6) -0.1996(4) 0.0725(4)
H12 H -0.0911 -0.1854 0.1096
C18 C 0.0655(5) -0.3484(4) -0.2565(3)
H13 H 0.1713 -0.3078 -0.2288
C19 C -0.0354(5) -0.3425(3) -0.1936(3)
C20 C -0.1920(6) -0.4013(4) -0.2400(3)
H14 H -0.2679 -0.4019 -0.2036
C21 C -0.2332(6) -0.4592(4) -0.3417(3)
H15 H -0.3388 -0.4957 -0.3735
C22 C 0.8980(6) 0.1254(4) 0.3246(4)
C23 C 1.4747(6) 0.2858(4) 0.3743(4)
C24 C 1.0343(5) 0.1353(3) 0.2819(3)
C25 C 1.1844(6) 0.2022(4) 0.3417(3)
H16 H 1.1953 0.2411 0.4082
C26 C 1.3149(6) 0.2122(4) 0.3054(3)
C27 C 1.2984(6) 0.1564(4) 0.2064(4)
H17 H 1.3862 0.1627 0.1805
C28 C 1.1496(7) 0.0902(4) 0.1445(3)
H18 H 1.1395 0.0523 0.0778
C29 C 1.0199(6) 0.0807(4) 0.1812(3)
H19 H 0.9216 0.0378 0.1390
O1 O 0.9232(5) 0.1645(3) 0.4186(3)
O2 O 0.7627(4) 0.0793(3) 0.2672(3)
O3 O 1.4830(5) 0.3370(4) 0.4601(3)
O4 O 1.5893(4) 0.2890(3) 0.3372(3)
O5 O 0.1683(5) 0.1668(3) 0.5756(3)
H20 H 0.0980 0.1703 0.5324
H21 H 0.2051 0.2257 0.6230
O6 O 0.4013(5) 0.1274(3) 0.7391(3)
H22 H 0.3868 0.1765 0.7806
H23 H 0.3451 0.0685 0.7443
O7 O 1.6933(8) 0.5761(4) 0.4139(3)
H24 H 1.6392 0.6016 0.4494
H25 H 1.6559 0.5691 0.3531
Ag1A Ag 1.34081(4) 0.85153(3) 1.57851(3)
Ag1A_2 Ag 1.34081(4) -0.14847(3) -0.42149(3)
Ag2A Ag 0.20079(5) -0.43376(3) -0.44344(3)
Ag2_2 Ag -0.20079(5) -0.56624(3) -0.55656(3)
Ag2A_2 Ag 2.20079(5) 0.56624(3) 0.55656(3)
Ag2A_3 Ag 0.20079(5) 0.56624(3) 1.55656(3)
Ag3A Ag 1.57924(5) 0.85096(4) 1.42333(3)
Ag3A_2 Ag 1.57924(5) -0.14904(4) -0.57667(3)
N1A N 1.3274(5) 0.7372(3) 1.3523(3)
N2A N 1.2323(5) 0.7350(3) 1.4150(3)
N3A N 1.6780(5) -0.0209(3) -0.4287(2)
N3A_2 N 1.6780(5) 0.9791(3) 1.5713(2)
N4A N 1.5872(4) -0.0241(3) -0.3634(3)
N4A_2 N 1.5872(4) 0.9759(3) 1.6366(3)
N5A N 1.9763(5) 0.4064(3) 0.3510(3)
N6A N 2.1315(5) 0.4651(3) 0.3948(3)
N6_2 N 1.8685(5) 0.5349(3) 0.6052(3)
N6A_2 N 0.1315(5) -0.5349(3) -0.6052(3)
C1A C 1.2701(6) 0.6811(4) 1.2561(3)
H1A H 1.3397 0.6830 1.2146
C2A C 1.1118(6) 0.6186(3) 1.2112(3)
C3A C 1.0154(6) 0.6189(4) 1.2759(3)
H2A H 0.9083 0.5804 1.2524
C4A C 1.0802(6) 0.6774(4) 1.3767(3)
H3A H 1.0141 0.6766 1.4204
C5A C 1.1529(7) 0.5295(5) 1.0480(4)
H4A H 1.2576 0.5494 1.0795
C6A C 1.0551(6) 0.5582(3) 1.1028(3)
C7A C 0.9014(7) 0.5279(5) 1.0524(4)
H5A H 0.8329 0.5472 1.0879
C8A C 1.6468(5) 0.0334(3) -0.2686(3)
H6A H 1.5812 0.0290 -0.2244
C9A C 1.8056(6) 0.1023(3) -0.2287(3)
C10A C 1.8958(6) 0.1042(4) -0.2952(3)
H7A H 2.0015 0.1471 -0.2746
C11A C 1.8280(6) 0.0407(4) -0.3955(3)
H8A H 1.8910 0.0417 -0.4413
C12A C 1.8645(5) 0.1636(3) -0.1202(3)
C13A C 1.7640(6) 0.1890(5) -0.0642(4)
H9A H 1.6584 0.1667 -0.0948
C14A C 1.8202(6) 0.2470(5) 0.0361(4)
H10A H 1.7519 0.2649 0.0726
C15A C 1.9763(6) 0.2800(3) 0.0851(3)
C16A C 2.0754(6) 0.2561(4) 0.0290(4)
H11A H 2.1808 0.2782 0.0599
C17A C 2.0213(6) 0.1996(4) -0.0725(4)
H12A H 2.0911 0.1854 -0.1096
C18A C 1.9345(5) 0.3484(4) 0.2565(3)
H13A H 1.8287 0.3078 0.2288
C19A C 2.0354(5) 0.3425(3) 0.1936(3)
C20A C 2.1920(6) 0.4013(4) 0.2400(3)
H14A H 2.2679 0.4019 0.2036
C21A C 2.2332(6) 0.4592(4) 0.3417(3)
H15A H 2.3388 0.4957 0.3735
C22A C 1.1020(6) 0.8746(4) 1.6754(4)
C23A C 0.5253(6) 0.7142(4) 1.6257(4)
C24A C 0.9657(5) 0.8647(3) 1.7181(3)
C25A C 0.8156(6) 0.7978(4) 1.6583(3)
H16A H 0.8047 0.7589 1.5918
C26A C 0.6851(6) 0.7878(4) 1.6946(3)
C27A C 0.7016(6) 0.8436(4) 1.7936(4)
H17A H 0.6138 0.8373 1.8195
C28A C 0.8504(7) 0.9098(4) 1.8555(3)
H18A H 0.8605 0.9477 1.9222
C29A C 0.9801(6) 0.9193(4) 1.8188(3)
H19A H 1.0784 0.9622 1.8610
O1A O 1.0768(5) 0.8355(3) 1.5814(3)
O2A O 1.2373(4) 0.9207(3) 1.7328(3)
O3A O 0.5170(5) 0.6630(4) 1.5399(3)
O4A O 0.4107(4) 0.7110(3) 1.6628(3)
O4A_2 O 0.4107(4) -0.2890(3) -0.3372(3)
O5A O 1.8317(5) 0.8332(3) 1.4244(3)
H20A H 1.9020 0.8297 1.4676
H21A H 1.7949 0.7743 1.3770
O6A O 1.5987(5) 0.8726(3) 1.2609(3)
H22A H 1.6132 0.8235 1.2194
H23A H 1.6549 0.9315 1.2557
O7A O 0.3067(8) -0.5761(4) -0.4139(3)
H24A H 0.3608 -0.6016 -0.4494
H25A H 0.3441 -0.5691 -0.3531
H26? H 0.5009 0.4436 1.0260
C36? C 0.6201(11) 0.6271(13) 1.1692(7)
O10? O 0.3891(14) 0.2976(6) 0.8554(6)
O11? O 0.3007(13) 0.3493(8) 0.7333(6)
O12? O 0.4174(12) 0.1985(8) 0.9962(6)
O13? O 0.6008(12) 0.3589(7) 1.1758(6)
O15? O 0.5733(16) 0.0028(10) 1.0777(9)
loop_
_geom_bond_atom_site_label_1
_geom_bond_atom_site_label_2
_geom_bond_site_symmetry_1
_geom_bond_site_symmetry_2
Ag1 N2 1_555 1_555
Ag2 O4 1_555 1_555
Ag3 N1 1_555 1_555
N1 N2 1_555 1_555
N2 C4 1_555 1_555
N3 Ag3 1_555 1_555
N4 Ag1 1_555 1_555
N5 N6 1_555 1_555
N6 C21 1_555 1_555
C1 N1 1_555 1_555
H1 C1 1_555 1_555
C2 C1 1_555 1_555
C3 C2 1_555 1_555
H2 C3 1_555 1_555
C4 C3 1_555 1_555
H3 C4 1_555 1_555
C5 H4 1_555 1_555
C6 C2 1_555 1_555
C7 C6 1_555 1_555
H5 C7 1_555 1_555
C8 N4 1_555 1_555
H6 C8 1_555 1_555
C9 C8 1_555 1_555
C10 C9 1_555 1_555
H7 C10 1_555 1_555
C11 N3 1_555 1_555
H8 C11 1_555 1_555
C12 C9 1_555 1_555
C13 C12 1_555 1_555
H9 C13 1_555 1_555
C14 C13 1_555 1_555
H10 C14 1_555 1_555
C15 C14 1_555 1_555
C16 C15 1_555 1_555
H11 C16 1_555 1_555
C17 C12 1_555 1_555
H12 C17 1_555 1_555
C18 N5 1_555 1_555
H13 C18 1_555 1_555
C19 C15 1_555 1_555
C20 C19 1_555 1_555
H14 C20 1_555 1_555
C21 C20 1_555 1_555
H15 C21 1_555 1_555
C22 C24 1_555 1_555
C23 C26 1_555 1_555
C24 C25 1_555 1_555
C25 H16 1_555 1_555
C26 C25 1_555 1_555
C27 C26 1_555 1_555
H17 C27 1_555 1_555
C28 C27 1_555 1_555
H18 C28 1_555 1_555
C29 C24 1_555 1_555
H19 C29 1_555 1_555
O1 Ag1 1_555 1_555
O2 Ag1 1_555 1_555
O3 C23 1_555 1_555
O4 C23 1_555 1_555
O5 Ag3 1_555 1_555
H20 O5 1_555 1_555
H21 O5 1_555 1_555
O6 Ag3 1_555 1_555
H22 O6 1_555 1_555
H23 O6 1_555 1_555
O7 Ag2 1_555 1_555
H24 O7 1_555 1_555
H25 O7 1_555 1_555
C30 C31 1_555 1_555
C31 C32 1_555 1_555
C32 H27 1_555 1_555
C33 C32 1_555 1_555
H28 C33 1_555 1_555
C34 C33 1_555 1_555
H29 C34 1_555 1_555
C35 C30 1_555 1_555
C37 C31 1_555 1_555
O8 C34 1_555 1_555
O9 C37 1_555 1_555
Ag1A N2A 1_555 1_555
Ag1A_2 N4A 1_555 1_555
Ag2A N5 1_555 1_555
Ag2_2 N6 1_555 1_555
Ag2A_2 N6A 1_555 1_555
Ag2A_3 O4A 1_555 1_555
Ag3A N1A 1_555 1_555
Ag3A_2 N3A 1_555 1_555
N1A N2A 1_555 1_555
N2A C4A 1_555 1_555
N3A N4A 1_555 1_555
N3A_2 Ag3A 1_555 1_555
N4A C8A 1_555 1_555
N4A_2 Ag1A 1_555 1_555
N5A Ag2 1_555 1_555
N6A N5A 1_555 1_555
N6_2 Ag2 1_555 1_555
N6A_2 Ag2A 1_555 1_555
C1A N1A 1_555 1_555
H1A C1A 1_555 1_555
C2A C1A 1_555 1_555
C3A C2A 1_555 1_555
H2A C3A 1_555 1_555
C4A C3A 1_555 1_555
H3A C4A 1_555 1_555
C5A C7 1_555 1_555
H4A C5A 1_555 1_555
C6A C2A 1_555 1_555
C7A C5 1_555 1_555
H5A C7A 1_555 1_555
C8A H6A 1_555 1_555
C9A C8A 1_555 1_555
C10A C9A 1_555 1_555
H7A C10A 1_555 1_555
C11A N3A 1_555 1_555
H8A C11A 1_555 1_555
C12A C9A 1_555 1_555
C13A C12A 1_555 1_555
H9A C13A 1_555 1_555
C14A C13A 1_555 1_555
H10A C14A 1_555 1_555
C15A C14A 1_555 1_555
C16A C15A 1_555 1_555
H11A C16A 1_555 1_555
C17A C12A 1_555 1_555
H12A C17A 1_555 1_555
C18A N5A 1_555 1_555
H13A C18A 1_555 1_555
C19A C15A 1_555 1_555
C20A C19A 1_555 1_555
H14A C20A 1_555 1_555
C21A N6A 1_555 1_555
H15A C21A 1_555 1_555
C22A C24A 1_555 1_555
C23A C26A 1_555 1_555
C24A C25A 1_555 1_555
C25A H16A 1_555 1_555
C26A C25A 1_555 1_555
C27A C26A 1_555 1_555
H17A C27A 1_555 1_555
C28A C27A 1_555 1_555
H18A C28A 1_555 1_555
C29A C24A 1_555 1_555
H19A C29A 1_555 1_555
O1A Ag1A 1_555 1_555
O2A Ag1A 1_555 1_555
O3A C23A 1_555 1_555
O4A C23A 1_555 1_555
O4A_2 Ag2A 1_555 1_555
O5A Ag3A 1_555 1_555
H20A O5A 1_555 1_555
H21A O5A 1_555 1_555
O6A Ag3A 1_555 1_555
H22A O6A 1_555 1_555
H23A O6A 1_555 1_555
O7A Ag2A 1_555 1_555
H24A O7A 1_555 1_555
H25A O7A 1_555 1_555
C31A C30 1_555 1_555
C32A C31A 1_555 1_555
H27A C32A 1_555 1_555
C33A C32A 1_555 1_555
H28A C33A 1_555 1_555
C34A C33A 1_555 1_555
H29A C34A 1_555 1_555
C35A C30 1_555 1_555
C37A C35 1_555 1_555
O8A C37 1_555 1_555
O9A C37A 1_555 1_555
N3 N4 1_555 1_555
C5 C6 1_555 1_555
C10 C11 1_555 1_555
C16 C17 1_555 1_555
C18 C19 1_555 1_555
C22 O1 1_555 1_555
C22 O2 1_555 1_555
C28 C29 1_555 1_555
C31 C35A 1_555 1_555
C34 C35 1_555 1_555
C35 O8 1_555 1_555
C35 C31A 1_555 1_555
C37 C35A 1_555 1_555
O8 C37A 1_555 1_555
N3A_2 N4A_2 1_555 1_555
C5A C6A 1_555 1_555
C6A C7A 1_555 1_555
C10A C11A 1_555 1_555
C16A C17A 1_555 1_555
C18A C19A 1_555 1_555
C20A C21A 1_555 1_555
C22A O1A 1_555 1_555
C22A O2A 1_555 1_555
C28A C29A 1_555 1_555
C31A C37A 1_555 1_555
C34A C35A 1_555 1_555
C34A O8A 1_555 1_555
C35A O8A 1_555 1_555

#END
