
#######################################################################
#
#                 Cambridge Crystallographic Data Centre
#                                CCDC 
#
#######################################################################
#
# If this CIF has been generated from an entry in the Cambridge 
# Structural Database, then it will include bibliographic, chemical, 
# crystal, experimental, refinement or atomic coordinate data resulting 
# from the CCDC's data processing and validation procedures.
#
#######################################################################

data_WOLQOE
_symmetry_cell_setting           monoclinic
_symmetry_space_group_name_H-M   'P 2/c'
_symmetry_Int_Tables_number      13
_space_group_name_Hall           '-P 2yc'
loop_
_symmetry_equiv_pos_site_id
_symmetry_equiv_pos_as_xyz
1 x,y,z
2 -x,y,1/2-z
3 -x,-y,-z
4 x,-y,1/2+z
_cell_length_a                   29.760(5)
_cell_length_b                   16.294(3)
_cell_length_c                   17.340(2)
_cell_angle_alpha                90
_cell_angle_beta                 91.420(15)
_cell_angle_gamma                90
_cell_volume                     8405.75
loop_
_atom_site_label
_atom_site_type_symbol
_atom_site_fract_x
_atom_site_fract_y
_atom_site_fract_z
C1 C 0.35893(7) 0.00941(15) 0.73041(13)
C2 C 0.39431(7) 0.06403(15) 0.76272(14)
C3 C 0.38275(7) 0.14300(15) 0.74370(14)
C4 C 0.33944(7) 0.13809(15) 0.69868(14)
C5 C 0.43326(8) 0.04623(17) 0.80575(14)
H1 H 0.4410 -0.0089 0.8178
C6 C 0.46063(8) 0.11052(17) 0.83074(14)
C7 C 0.44810(8) 0.19237(17) 0.81474(15)
C8 C 0.40896(8) 0.20880(16) 0.76998(15)
H2 H 0.4006 0.2637 0.7579
C9 C 0.33020(8) -0.12630(15) 0.71113(14)
C10 C 0.33819(8) -0.20687(16) 0.73384(15)
H3 H 0.3622 -0.2178 0.7694
C11 C 0.31253(8) -0.27158(16) 0.70665(15)
C12 C 0.27794(8) -0.25091(15) 0.65423(15)
H4 H 0.2595 -0.2927 0.6321
C13 C 0.27072(8) -0.17044(15) 0.63484(14)
H5 H 0.2466 -0.1584 0.5998
C14 C 0.27606(8) 0.20578(14) 0.63829(14)
C15 C 0.25994(8) 0.28407(15) 0.61989(14)
H6 H 0.2782 0.3305 0.6312
C16 C 0.21768(8) 0.29545(15) 0.58541(13)
C17 C 0.19301(8) 0.22396(15) 0.57089(15)
H7 H 0.1637 0.2275 0.5481
C18 C 0.21076(8) 0.14894(16) 0.58930(15)
H8 H 0.1932 0.1016 0.5777
C19 C 0.50412(8) 0.09204(18) 0.87585(16)
H9 H 0.5291 0.1204 0.8502
H10 H 0.5018 0.1158 0.9281
C20 C 0.51613(8) 0.00203(17) 0.88397(15)
H11 H 0.5184 -0.0222 0.8319
H12 H 0.4915 -0.0265 0.9105
C21 C 0.56025(8) -0.01316(19) 0.92892(15)
H13 H 0.5849 0.0154 0.9027
H14 H 0.5580 0.0105 0.9813
C22 C 0.57161(9) -0.10395(19) 0.93576(16)
H15 H 0.5459 -0.1326 0.9590
H16 H 0.5752 -0.1265 0.8833
C23 C 0.61388(9) -0.12284(19) 0.98355(16)
H17 H 0.6398 -0.0945 0.9606
H18 H 0.6104 -0.1011 1.0364
C24 C 0.62363(11) -0.2141(2) 0.98806(19)
H19 H 0.5994 -0.2418 1.0150
H20 H 0.6522 -0.2230 1.0163
H21 H 0.6257 -0.2364 0.9358
C25 C 0.47667(9) 0.26148(17) 0.84701(17)
H22 H 0.4809 0.2521 0.9031
H23 H 0.5067 0.2575 0.8238
C26 C 0.45997(9) 0.34824(18) 0.83572(18)
H24 H 0.4304 0.3542 0.8602
H25 H 0.4557 0.3591 0.7799
C27 C 0.49247(11) 0.4111(2) 0.8702(2)
H26 H 0.4970 0.3991 0.9258
H27 H 0.5219 0.4047 0.8454
C28 C 0.47743(14) 0.4985(2) 0.8613(2)
H28 H 0.4496 0.5066 0.8904
H29 H 0.4702 0.5094 0.8062
C29 C 0.51319(18) 0.5607(3) 0.8901(3)
H30 H 0.5207 0.5489 0.9449
H31 H 0.5408 0.5528 0.8604
C30 C 0.4994(2) 0.6454(3) 0.8834(4)
H32 H 0.4960 0.6600 0.8287
H33 H 0.5221 0.6807 0.9081
H34 H 0.4706 0.6529 0.9087
C31 C 0.32335(9) -0.35873(16) 0.73455(17)
C32 C 0.37195(10) -0.3794(2) 0.7147(3)
H35 H 0.3792 -0.4349 0.7327
H36 H 0.3923 -0.3400 0.7401
H37 H 0.3754 -0.3764 0.6588
C33 C 0.31755(13) -0.3620(2) 0.82287(18)
H38 H 0.2862 -0.3502 0.8348
H39 H 0.3372 -0.3210 0.8478
H40 H 0.3256 -0.4167 0.8420
C34 C 0.29270(10) -0.42227(17) 0.69744(17)
H41 H 0.2615 -0.4103 0.7102
H42 H 0.3009 -0.4769 0.7168
H43 H 0.2959 -0.4207 0.6413
C35 C 0.20080(8) 0.37966(15) 0.55998(14)
C36 C 0.21833(9) 0.39517(17) 0.47862(15)
H44 H 0.2513 0.3938 0.4801
H45 H 0.2080 0.4491 0.4604
H46 H 0.2069 0.3525 0.4435
C37 C 0.21863(11) 0.44730(17) 0.61317(18)
H47 H 0.2093 0.4365 0.6660
H48 H 0.2065 0.5003 0.5959
H49 H 0.2515 0.4486 0.6118
C38 C 0.14921(9) 0.38325(18) 0.55819(18)
H50 H 0.1373 0.3439 0.5201
H51 H 0.1393 0.4387 0.5440
H52 H 0.1381 0.3694 0.6093
C39 C 0.14940(7) 0.09330(14) 0.97871(13)
C40 C 0.10715(7) 0.08725(14) 1.02230(13)
C41 C 0.09403(7) 0.00631(14) 1.01986(12)
C42 C 0.12595(7) -0.03718(14) 0.96982(13)
C43 C 0.08058(7) 0.14608(15) 1.05721(13)
H53 H 0.0896 0.2020 1.0580
C44 C 0.04036(7) 0.12209(15) 1.09131(13)
C45 C 0.02860(7) 0.03779(14) 1.09351(13)
C46 C 0.05536(7) -0.01985(15) 1.05597(12)
H54 H 0.0472 -0.0762 1.0552
C47 C 0.21043(7) 0.17518(14) 0.93209(13)
C48 C 0.22701(8) 0.25536(14) 0.93160(14)
H55 H 0.2116 0.2966 0.9592
C49 C 0.26514(8) 0.27677(15) 0.89226(14)
C50 C 0.28669(8) 0.21308(16) 0.85431(15)
H56 H 0.3134 0.2234 0.8270
C51 C 0.26909(8) 0.13541(16) 0.85661(15)
H57 H 0.2845 0.0932 0.8303
C52 C 0.14519(7) -0.15779(14) 0.89992(13)
C53 C 0.12643(8) -0.23179(14) 0.87336(14)
H58 H 0.0978 -0.2478 0.8909
C54 C 0.14844(8) -0.28233(14) 0.82221(14)
C55 C 0.19149(8) -0.25624(15) 0.80101(14)
H59 H 0.2087 -0.2886 0.7670
C56 C 0.20855(8) -0.18376(15) 0.82964(14)
H60 H 0.2380 -0.1686 0.8153
C57 C 0.00981(8) 0.18623(15) 1.12601(15)
H61 H 0.0188 0.1934 1.1810
H62 H -0.0213 0.1646 1.1244
C58 C 0.00944(8) 0.27069(15) 1.08764(15)
H63 H -0.0098 0.3079 1.1177
H64 H 0.0404 0.2931 1.0898
C59 C -0.00745(9) 0.27091(17) 1.00381(16)
H65 H 0.0134 0.2382 0.9726
H66 H -0.0372 0.2439 1.0008
C60 C -0.01154(10) 0.35639(19) 0.96928(18)
H67 H -0.0341 0.3876 0.9982
H68 H 0.0177 0.3849 0.9762
C61 C -0.02494(12) 0.3577(2) 0.88416(19)
H69 H -0.0532 0.3264 0.8765
H70 H -0.0014 0.3298 0.8546
C62 C -0.03163(14) 0.4442(3) 0.8523(2)
H71 H -0.0557 0.4716 0.8801
H72 H -0.0398 0.4413 0.7973
H73 H -0.0037 0.4755 0.8592
C63 C -0.01348(7) 0.01130(15) 1.13511(13)
H74 H -0.0113 0.0325 1.1886
H75 H -0.0396 0.0384 1.1096
C64 C -0.02313(8) -0.07981(16) 1.13894(14)
H76 H 0.0028 -0.1081 1.1640
H77 H -0.0269 -0.1017 1.0859
C65 C -0.06553(8) -0.09784(16) 1.18405(15)
H78 H -0.0609 -0.0779 1.2376
H79 H -0.0908 -0.0663 1.1606
C66 C -0.07868(9) -0.18725(17) 1.18675(16)
H80 H -0.0539 -0.2188 1.2116
H81 H -0.0828 -0.2078 1.1333
C67 C -0.12201(10) -0.2029(2) 1.23079(18)
H82 H -0.1169 -0.1875 1.2855
H83 H -0.1461 -0.1673 1.2092
C68 C -0.13755(12) -0.2917(2) 1.2268(2)
H84 H -0.1443 -0.3066 1.1730
H85 H -0.1646 -0.2983 1.2573
H86 H -0.1137 -0.3275 1.2477
C69 C 0.28099(8) 0.36599(15) 0.89000(15)
C70 C 0.24524(9) 0.41685(16) 0.84607(17)
H87 H 0.2417 0.3959 0.7933
H88 H 0.2547 0.4744 0.8446
H89 H 0.2165 0.4127 0.8723
C71 C 0.28682(9) 0.39868(16) 0.97234(16)
H90 H 0.2578 0.3973 0.9979
H91 H 0.2979 0.4553 0.9708
H92 H 0.3085 0.3644 1.0010
C72 C 0.32572(9) 0.37439(17) 0.84859(18)
H93 H 0.3482 0.3385 0.8734
H94 H 0.3360 0.4315 0.8516
H95 H 0.3215 0.3585 0.7944
C73 C 0.12551(8) -0.35940(15) 0.78917(14)
C74 C 0.08668(9) -0.33117(17) 0.73552(17)
H96 H 0.0656 -0.2978 0.7648
H97 H 0.0710 -0.3793 0.7142
H98 H 0.0987 -0.2984 0.6933
C75 C 0.15793(9) -0.41220(17) 0.74334(18)
H99 H 0.1681 -0.3812 0.6986
H100 H 0.1425 -0.4622 0.7257
H101 H 0.1839 -0.4270 0.7763
C76 C 0.10610(9) -0.41283(16) 0.85360(16)
H102 H 0.1306 -0.4323 0.8877
H103 H 0.0903 -0.4600 0.8306
H104 H 0.0850 -0.3802 0.8835
C77 C 0.19185(7) -0.02316(14) 0.71079(13)
C78 C 0.14367(8) -0.04990(17) 0.71919(15)
H105 H 0.1246 -0.0213 0.6809
H106 H 0.1337 -0.0365 0.7711
H107 H 0.1414 -0.1093 0.7110
C79 C 0.29205(8) 0.04791(15) 0.46837(14)
C80 C 0.33557(9) 0.09374(19) 0.48189(17)
H108 H 0.3506 0.0732 0.5290
H109 H 0.3551 0.0854 0.4379
H110 H 0.3293 0.1524 0.4876
Co1 Co 0.272936(10) 0.01328(2) 0.636231(18)
Co2 Co 0.211853(9) -0.008805(19) 0.885007(17)
N1 N 0.32664(6) 0.05685(12) 0.69244(11)
N2 N 0.31949(6) 0.20404(12) 0.67389(11)
N3 N 0.36092(6) -0.06924(12) 0.74062(12)
N4 N 0.25204(6) 0.13771(12) 0.62320(11)
N5 N 0.29554(6) -0.10713(12) 0.66217(11)
N6 N 0.15914(6) 0.01765(11) 0.94739(10)
N7 N 0.17098(6) 0.16306(11) 0.97337(11)
N8 N 0.11889(6) -0.11309(12) 0.95045(11)
N9 N 0.23118(6) 0.11455(12) 0.89389(11)
N10 N 0.18645(6) -0.13265(11) 0.87657(11)
O1 O 0.20764(5) -0.02376(10) 0.64416(9)
O2 O 0.21537(5) -0.00120(10) 0.76891(9)
O3 O 0.27374(5) 0.05495(10) 0.40251(10)
O4 O 0.27546(5) 0.00482(10) 0.52069(9)
Co2C Co 0.211853(9) 0.008805(19) 0.385007(17)
O3C O 0.27374(5) -0.05495(10) 0.90251(10)
C81 C 0.12984(13) 0.6393(2) 0.5170(3)
H111 H 0.1147 0.5988 0.5490
H112 H 0.1506 0.6113 0.4828
H113 H 0.1074 0.6695 0.4859
O5 O 0.15402(8) 0.69464(14) 0.56476(14)
H114 H 0.1630 0.7466 0.5312
loop_
_geom_bond_atom_site_label_1
_geom_bond_atom_site_label_2
_geom_bond_site_symmetry_1
_geom_bond_site_symmetry_2
C1 C2 1_555 1_555
C2 C3 1_555 1_555
C3 C4 1_555 1_555
C4 N1 1_555 1_555
C5 C2 1_555 1_555
H1 C5 1_555 1_555
C6 C5 1_555 1_555
C7 C6 1_555 1_555
C8 C3 1_555 1_555
H2 C8 1_555 1_555
C9 C10 1_555 1_555
C10 H3 1_555 1_555
C11 C10 1_555 1_555
C12 C11 1_555 1_555
H4 C12 1_555 1_555
C13 C12 1_555 1_555
H5 C13 1_555 1_555
C14 C15 1_555 1_555
C15 H6 1_555 1_555
C16 C15 1_555 1_555
C17 C16 1_555 1_555
H7 C17 1_555 1_555
C18 C17 1_555 1_555
H8 C18 1_555 1_555
C19 C6 1_555 1_555
H9 C19 1_555 1_555
H10 C19 1_555 1_555
C20 C19 1_555 1_555
H11 C20 1_555 1_555
H12 C20 1_555 1_555
C21 C20 1_555 1_555
H13 C21 1_555 1_555
H14 C21 1_555 1_555
C22 C21 1_555 1_555
H15 C22 1_555 1_555
H16 C22 1_555 1_555
C23 C22 1_555 1_555
H17 C23 1_555 1_555
H18 C23 1_555 1_555
C24 C23 1_555 1_555
H19 C24 1_555 1_555
H20 C24 1_555 1_555
H21 C24 1_555 1_555
C25 C7 1_555 1_555
H22 C25 1_555 1_555
H23 C25 1_555 1_555
C26 C25 1_555 1_555
H24 C26 1_555 1_555
H25 C26 1_555 1_555
C27 C26 1_555 1_555
H26 C27 1_555 1_555
H27 C27 1_555 1_555
C28 C27 1_555 1_555
H28 C28 1_555 1_555
H29 C28 1_555 1_555
C29 C28 1_555 1_555
H30 C29 1_555 1_555
H31 C29 1_555 1_555
C30 C29 1_555 1_555
H32 C30 1_555 1_555
H33 C30 1_555 1_555
H34 C30 1_555 1_555
C31 C11 1_555 1_555
C32 C31 1_555 1_555
H35 C32 1_555 1_555
H36 C32 1_555 1_555
H37 C32 1_555 1_555
C33 C31 1_555 1_555
H38 C33 1_555 1_555
H39 C33 1_555 1_555
H40 C33 1_555 1_555
C34 C31 1_555 1_555
H41 C34 1_555 1_555
H42 C34 1_555 1_555
H43 C34 1_555 1_555
C35 C16 1_555 1_555
C36 C35 1_555 1_555
H44 C36 1_555 1_555
H45 C36 1_555 1_555
H46 C36 1_555 1_555
C37 C35 1_555 1_555
H47 C37 1_555 1_555
H48 C37 1_555 1_555
H49 C37 1_555 1_555
C38 C35 1_555 1_555
H50 C38 1_555 1_555
H51 C38 1_555 1_555
H52 C38 1_555 1_555
C39 C40 1_555 1_555
C40 C41 1_555 1_555
C41 C42 1_555 1_555
C42 N6 1_555 1_555
C43 C40 1_555 1_555
H53 C43 1_555 1_555
C44 C43 1_555 1_555
C45 C44 1_555 1_555
C46 C41 1_555 1_555
H54 C46 1_555 1_555
C47 C48 1_555 1_555
C48 H55 1_555 1_555
C49 C48 1_555 1_555
C50 C49 1_555 1_555
H56 C50 1_555 1_555
C51 C50 1_555 1_555
H57 C51 1_555 1_555
C52 C53 1_555 1_555
C53 H58 1_555 1_555
C54 C53 1_555 1_555
C55 C54 1_555 1_555
H59 C55 1_555 1_555
C56 C55 1_555 1_555
H60 C56 1_555 1_555
C57 C44 1_555 1_555
H61 C57 1_555 1_555
H62 C57 1_555 1_555
C58 C57 1_555 1_555
H63 C58 1_555 1_555
H64 C58 1_555 1_555
C59 C58 1_555 1_555
H65 C59 1_555 1_555
H66 C59 1_555 1_555
C60 C59 1_555 1_555
H67 C60 1_555 1_555
H68 C60 1_555 1_555
C61 C60 1_555 1_555
H69 C61 1_555 1_555
H70 C61 1_555 1_555
C62 C61 1_555 1_555
H71 C62 1_555 1_555
H72 C62 1_555 1_555
H73 C62 1_555 1_555
C63 C45 1_555 1_555
H74 C63 1_555 1_555
H75 C63 1_555 1_555
C64 C63 1_555 1_555
H76 C64 1_555 1_555
H77 C64 1_555 1_555
C65 C64 1_555 1_555
H78 C65 1_555 1_555
H79 C65 1_555 1_555
C66 C65 1_555 1_555
H80 C66 1_555 1_555
H81 C66 1_555 1_555
C67 C66 1_555 1_555
H82 C67 1_555 1_555
H83 C67 1_555 1_555
C68 C67 1_555 1_555
H84 C68 1_555 1_555
H85 C68 1_555 1_555
H86 C68 1_555 1_555
C69 C49 1_555 1_555
C70 C69 1_555 1_555
H87 C70 1_555 1_555
H88 C70 1_555 1_555
H89 C70 1_555 1_555
C71 C69 1_555 1_555
H90 C71 1_555 1_555
H91 C71 1_555 1_555
H92 C71 1_555 1_555
C72 C69 1_555 1_555
H93 C72 1_555 1_555
H94 C72 1_555 1_555
H95 C72 1_555 1_555
C73 C54 1_555 1_555
C74 C73 1_555 1_555
H96 C74 1_555 1_555
H97 C74 1_555 1_555
H98 C74 1_555 1_555
C75 C73 1_555 1_555
H99 C75 1_555 1_555
H100 C75 1_555 1_555
H101 C75 1_555 1_555
C76 C73 1_555 1_555
H102 C76 1_555 1_555
H103 C76 1_555 1_555
H104 C76 1_555 1_555
C77 C78 1_555 1_555
C78 H105 1_555 1_555
H106 C78 1_555 1_555
H107 C78 1_555 1_555
C79 C80 1_555 1_555
C80 H108 1_555 1_555
H109 C80 1_555 1_555
H110 C80 1_555 1_555
C81 H111 1_555 1_555
H112 C81 1_555 1_555
H113 C81 1_555 1_555
Co1 N1 1_555 1_555
Co2 N6 1_555 1_555
N1 C1 1_555 1_555
N2 C4 1_555 1_555
N3 C1 1_555 1_555
N4 C14 1_555 1_555
N5 C9 1_555 1_555
N6 C39 1_555 1_555
N7 C39 1_555 1_555
N8 C42 1_555 1_555
N9 C47 1_555 1_555
N10 C52 1_555 1_555
O1 C77 1_555 1_555
O2 C77 1_555 1_555
O3 C79 1_555 1_555
O4 C79 1_555 1_555
O5 C81 1_555 1_555
H114 O5 1_555 1_555
Co2C O3 1_555 1_555
O3C Co2 1_555 1_555
C7 C8 1_555 1_555
C9 N3 1_555 1_555
C13 N5 1_555 1_555
C14 N2 1_555 1_555
C18 N4 1_555 1_555
C45 C46 1_555 1_555
C47 N7 1_555 1_555
C51 N9 1_555 1_555
C52 N8 1_555 1_555
C56 N10 1_555 1_555
Co1 N4 1_555 1_555
Co1 N5 1_555 1_555
Co1 O1 1_555 1_555
Co1 O4 1_555 1_555
Co2 N9 1_555 1_555
Co2 N10 1_555 1_555
Co2 O2 1_555 1_555

#END
