
#######################################################################
#
#                 Cambridge Crystallographic Data Centre
#                                CCDC 
#
#######################################################################
#
# If this CIF has been generated from an entry in the Cambridge 
# Structural Database, then it will include bibliographic, chemical, 
# crystal, experimental, refinement or atomic coordinate data resulting 
# from the CCDC's data processing and validation procedures.
#
#######################################################################

data_WOLROF
_symmetry_cell_setting           tetragonal
_symmetry_space_group_name_H-M   'I 4/m m m'
_symmetry_Int_Tables_number      139
_space_group_name_Hall           '-I 4 2'
loop_
_symmetry_equiv_pos_site_id
_symmetry_equiv_pos_as_xyz
1 x,y,z
2 -y,x,z
3 y,-x,z
4 y,x,-z
5 1/2+x,1/2+y,1/2+z
6 1/2-y,1/2+x,1/2+z
7 1/2+y,1/2-x,1/2+z
8 1/2+y,1/2+x,1/2-z
9 -x,-y,z
10 -x,y,-z
11 x,-y,-z
12 -y,-x,-z
13 1/2-x,1/2-y,1/2+z
14 1/2-x,1/2+y,1/2-z
15 1/2+x,1/2-y,1/2-z
16 1/2-y,1/2-x,1/2-z
17 -x,-y,-z
18 y,-x,-z
19 -y,x,-z
20 -y,-x,z
21 1/2-x,1/2-y,1/2-z
22 1/2+y,1/2-x,1/2-z
23 1/2-y,1/2+x,1/2-z
24 1/2-y,1/2-x,1/2+z
25 x,y,-z
26 x,-y,z
27 -x,y,z
28 y,x,z
29 1/2+x,1/2+y,1/2-z
30 1/2+x,1/2-y,1/2+z
31 1/2-x,1/2+y,1/2+z
32 1/2+y,1/2+x,1/2+z
_cell_length_a                   16.0914(9)
_cell_length_b                   16.0914(9)
_cell_length_c                   28.187(3)
_cell_angle_alpha                90
_cell_angle_beta                 90
_cell_angle_gamma                90
_cell_volume                     7298.55
loop_
_atom_site_label
_atom_site_type_symbol
_atom_site_fract_x
_atom_site_fract_y
_atom_site_fract_z
Cu1 Cu 0.10836(3) 0.10836(3) 0.5000
Cu2 Cu 0.1938(4) 0.1938(4) 0.4081(3)
C1 C 0.2466(3) 0.0000 0.39664(17)
C2 C 0.3055(3) 0.0000 0.35678(16)
C3 C 0.3359(3) -0.0725(2) 0.33885(13)
H1 H 0.3168 -0.1229 0.3509
C4 C 0.3947(2) -0.0724(2) 0.30308(13)
H2 H 0.4138 -0.1229 0.2912
C5 C 0.4256(3) 0.0000 0.28459(15)
C6 C 0.5000 0.0000 0.2500
N1 N 0.16811(17) 0.04134(15) 0.45175(9)
N2 N 0.21672(17) 0.06902(18) 0.41717(10)
Cl1 Cl 0.0000 0.0000 0.4880(4)
Cl2 Cl 0.2292(16) 0.2292(16) 0.5000
Cu1D Cu 0.60836(3) -0.39164(3) 0.0000
Cu1E Cu 0.39164(3) -0.39164(3) 0.0000
Cu1A Cu 0.89164(3) 0.10836(3) 0.5000
Cu1B Cu 0.10836(3) -0.10836(3) 0.5000
Cu1A_2 Cu -0.10836(3) 0.10836(3) 0.5000
Cu1P Cu -0.10836(3) -0.10836(3) 0.5000
Cu1P_2 Cu 0.89164(3) -0.10836(3) 0.5000
Cu1F Cu 0.60836(3) 0.39164(3) 0.0000
Cu1T Cu 0.39164(3) 0.39164(3) 0.0000
Cu1D_2 Cu -0.39164(3) 0.60836(3) 1.0000
Cu1F_2 Cu -0.39164(3) 0.39164(3) 1.0000
Cu1B_2 Cu 0.10836(3) 0.89164(3) 0.5000
Cu1P_3 Cu -0.10836(3) 0.89164(3) 0.5000
Cu1E_2 Cu 0.39164(3) 0.60836(3) 1.0000
Cu1T_2 Cu 0.39164(3) 0.39164(3) 1.0000
Cu2G Cu 0.6938(4) -0.3062(4) 0.0919(3)
Cu2V Cu 0.3062(4) -0.3062(4) 0.0919(3)
Cu2A Cu 0.8062(4) 0.1938(4) 0.4081(3)
Cu2S Cu 0.8062(4) -0.1938(4) 0.4081(3)
Cu2U Cu 0.6938(4) 0.3062(4) 0.0919(3)
Cu2T Cu 0.3062(4) 0.3062(4) 0.0919(3)
Cu2B Cu 0.1938(4) -0.1938(4) 0.4081(3)
Cu2C Cu 0.1938(4) 0.1938(4) 0.5919(3)
Cu2D Cu -0.3062(4) 0.6938(4) 0.9081(3)
Cu2F Cu -0.3062(4) 0.3062(4) 0.9081(3)
Cu2Q Cu 0.1938(4) 0.8062(4) 0.5919(3)
Cu2P Cu -0.1938(4) 0.8062(4) 0.5919(3)
Cu2E Cu 0.3062(4) 0.6938(4) 0.9081(3)
Cu2W Cu 0.3062(4) 0.3062(4) 0.9081(3)
Cu2R Cu -0.1938(4) 0.1938(4) 0.5919(3)
Cu2D_2 Cu 0.6938(4) -0.3062(4) -0.0919(3)
Cu2E_2 Cu 0.3062(4) -0.3062(4) -0.0919(3)
Cu2R_2 Cu 0.8062(4) 0.1938(4) 0.5919(3)
C1G C 0.5000 -0.2534(3) 0.10336(17)
C1Z C 0.7534(3) 0.0000 0.39664(17)
C1U C 0.5000 0.2534(3) 0.10336(17)
C1C C 0.0000 0.2466(3) 0.60336(17)
C1D C -0.2534(3) 0.5000 0.89664(17)
C1Q C 0.0000 0.7534(3) 0.60336(17)
C1DA C 0.2534(3) 0.5000 0.89664(17)
C2G C 0.5000 -0.1945(3) 0.14322(16)
C2Z C 0.6945(3) 0.0000 0.35678(16)
C2U C 0.5000 0.1945(3) 0.14322(16)
C2C C 0.0000 0.3055(3) 0.64322(16)
C2D C -0.1945(3) 0.5000 0.85678(16)
C2Q C 0.0000 0.6945(3) 0.64322(16)
C2DA C 0.1945(3) 0.5000 0.85678(16)
C3Y C 0.3359(3) 0.0725(2) 0.33885(13)
C3G C 0.4275(2) -0.1641(3) 0.16115(13)
C3V C 0.5725(2) -0.1641(3) 0.16115(13)
C3Z C 0.6641(3) -0.0725(2) 0.33885(13)
C3H C 0.6641(3) 0.0725(2) 0.33885(13)
C3U C 0.4275(2) 0.1641(3) 0.16115(13)
C3O C 0.5725(2) 0.1641(3) 0.16115(13)
C3C C -0.0725(2) 0.3359(3) 0.66115(13)
C3R C 0.0725(2) 0.3359(3) 0.66115(13)
C3D C -0.1641(3) 0.4275(2) 0.83885(13)
C3CA C -0.1641(3) 0.5725(2) 0.83885(13)
C3Q C -0.0725(2) 0.6641(3) 0.66115(13)
C3K C 0.0725(2) 0.6641(3) 0.66115(13)
C3DA C 0.1641(3) 0.4275(2) 0.83885(13)
C3L C 0.1641(3) 0.5725(2) 0.83885(13)
H1Y H 0.3168 0.1229 0.3509
H1V H 0.6229 -0.1832 0.1491
H1G H 0.3771 -0.1832 0.1491
H1H H 0.6832 0.1229 0.3509
H1Z H 0.6832 -0.1229 0.3509
H1O H 0.6229 0.1832 0.1491
H1U H 0.3771 0.1832 0.1491
H1C H -0.1229 0.3168 0.6491
H1R H 0.1229 0.3168 0.6491
H1CA H -0.1832 0.6229 0.8509
H1D H -0.1832 0.3771 0.8509
H1K H 0.1229 0.6832 0.6491
H1Q H -0.1229 0.6832 0.6491
H1L H 0.1832 0.6229 0.8509
H1DA H 0.1832 0.3771 0.8509
C4Y C 0.3947(2) 0.0724(2) 0.30308(13)
C4G C 0.4276(2) -0.1053(2) 0.19692(13)
C4V C 0.5724(2) -0.1053(2) 0.19692(13)
C4Z C 0.6053(2) -0.0724(2) 0.30308(13)
C4H C 0.6053(2) 0.0724(2) 0.30308(13)
C4U C 0.4276(2) 0.1053(2) 0.19692(13)
C4O C 0.5724(2) 0.1053(2) 0.19692(13)
C4C C -0.0724(2) 0.3947(2) 0.69692(13)
C4R C 0.0724(2) 0.3947(2) 0.69692(13)
C4D C -0.1053(2) 0.4276(2) 0.80308(13)
C4CA C -0.1053(2) 0.5724(2) 0.80308(13)
C4Q C -0.0724(2) 0.6053(2) 0.69692(13)
C4K C 0.0724(2) 0.6053(2) 0.69692(13)
C4DA C 0.1053(2) 0.4276(2) 0.80308(13)
C4L C 0.1053(2) 0.5724(2) 0.80308(13)
H2Y H 0.4138 0.1229 0.2912
H2V H 0.6229 -0.0862 0.2088
H2G H 0.3771 -0.0862 0.2088
H2H H 0.5862 0.1229 0.2912
H2Z H 0.5862 -0.1229 0.2912
H2O H 0.6229 0.0862 0.2088
H2U H 0.3771 0.0862 0.2088
H2C H -0.1229 0.4138 0.7088
H2R H 0.1229 0.4138 0.7088
H2CA H -0.0862 0.6229 0.7912
H2D H -0.0862 0.3771 0.7912
H2K H 0.1229 0.5862 0.7088
H2Q H -0.1229 0.5862 0.7088
H2L H 0.0862 0.6229 0.7912
H2DA H 0.0862 0.3771 0.7912
C5G C 0.5000 -0.0744(3) 0.21541(15)
C5Z C 0.5744(3) 0.0000 0.28459(15)
C5U C 0.5000 0.0744(3) 0.21541(15)
C5C C 0.0000 0.4256(3) 0.71541(15)
C5D C -0.0744(3) 0.5000 0.78459(15)
C5Q C 0.0000 0.5744(3) 0.71541(15)
C5DA C 0.0744(3) 0.5000 0.78459(15)
C6C C 0.0000 0.5000 0.7500
N1G N 0.54134(15) -0.33189(17) 0.04825(9)
N1V N 0.45866(15) -0.33189(17) 0.04825(9)
N1Z N 0.83189(17) 0.04134(15) 0.45175(9)
N1H N 0.83189(17) -0.04134(15) 0.45175(9)
N1U N 0.54134(15) 0.33189(17) 0.04825(9)
N1O N 0.45866(15) 0.33189(17) 0.04825(9)
N1Y N 0.16811(17) -0.04134(15) 0.45175(9)
N1C N 0.04134(15) 0.16811(17) 0.54825(9)
N1D N -0.33189(17) 0.54134(15) 0.95175(9)
N1CA N -0.33189(17) 0.45866(15) 0.95175(9)
N1Q N 0.04134(15) 0.83189(17) 0.54825(9)
N1K N -0.04134(15) 0.83189(17) 0.54825(9)
N1DA N 0.33189(17) 0.54134(15) 0.95175(9)
N1L N 0.33189(17) 0.45866(15) 0.95175(9)
N1R N -0.04134(15) 0.16811(17) 0.54825(9)
N1X N 0.16811(17) 0.04134(15) 0.54825(9)
N1AA N 0.04134(15) 0.16811(17) 0.45175(9)
N1D_2 N 0.66811(17) -0.45866(15) -0.04825(9)
N1EA N 0.54134(15) -0.33189(17) -0.04825(9)
N1BA N 0.66811(17) -0.45866(15) 0.04825(9)
N1DA_2 N 0.33189(17) -0.45866(15) -0.04825(9)
N1E N 0.45866(15) -0.33189(17) -0.04825(9)
N1M N 0.33189(17) -0.45866(15) 0.04825(9)
N1R_2 N 0.95866(15) 0.16811(17) 0.54825(9)
N1I N 0.83189(17) 0.04134(15) 0.54825(9)
N1A N 0.95866(15) 0.16811(17) 0.45175(9)
N2G N 0.56902(18) -0.28328(17) 0.08283(10)
N2V N 0.43098(18) -0.28328(17) 0.08283(10)
N2Z N 0.78328(17) 0.06902(18) 0.41717(10)
N2H N 0.78328(17) -0.06902(18) 0.41717(10)
N2U N 0.56902(18) 0.28328(17) 0.08283(10)
N2O N 0.43098(18) 0.28328(17) 0.08283(10)
N2Y N 0.21672(17) -0.06902(18) 0.41717(10)
N2C N 0.06902(18) 0.21672(17) 0.58283(10)
N2D N -0.28328(17) 0.56902(18) 0.91717(10)
N2CA N -0.28328(17) 0.43098(18) 0.91717(10)
N2Q N 0.06902(18) 0.78328(17) 0.58283(10)
N2K N -0.06902(18) 0.78328(17) 0.58283(10)
N2DA N 0.28328(17) 0.56902(18) 0.91717(10)
N2L N 0.28328(17) 0.43098(18) 0.91717(10)
N2R N -0.06902(18) 0.21672(17) 0.58283(10)
N2AA N 0.06902(18) 0.21672(17) 0.41717(10)
N2BA N 0.71672(17) -0.43098(18) 0.08283(10)
N2M N 0.28328(17) -0.43098(18) 0.08283(10)
N2A N 0.93098(18) 0.21672(17) 0.41717(10)
N2S N 0.93098(18) -0.21672(17) 0.41717(10)
N2N N 0.71672(17) 0.43098(18) 0.08283(10)
N2T N 0.28328(17) 0.43098(18) 0.08283(10)
N2B N 0.06902(18) -0.21672(17) 0.41717(10)
Cl1C Cl 0.0000 0.0000 0.5120(4)
Cl1G Cl 0.5000 -0.5000 0.0120(4)
Cl1D Cl 0.5000 -0.5000 -0.0120(4)
Cl1_2 Cl 1.0000 0.0000 0.4880(4)
Cl1C_2 Cl 1.0000 0.0000 0.5120(4)
Cl2D Cl 0.7292(16) -0.2708(16) 0.0000
Cl2E Cl 0.2708(16) -0.2708(16) 0.0000
Cl2A Cl 0.7708(16) 0.2292(16) 0.5000
Cl2P Cl 0.7708(16) -0.2292(16) 0.5000
Cl2F Cl 0.7292(16) 0.2708(16) 0.0000
Cl2T Cl 0.2708(16) 0.2708(16) 0.0000
Cl2B Cl 0.2292(16) -0.2292(16) 0.5000
loop_
_geom_bond_atom_site_label_1
_geom_bond_atom_site_label_2
_geom_bond_site_symmetry_1
_geom_bond_site_symmetry_2
Cu1 N1 1_555 1_555
Cu2 N2 1_555 1_555
C1 C2 1_555 1_555
C2 C3 1_555 1_555
C3 H1 1_555 1_555
C4 C3 1_555 1_555
H2 C4 1_555 1_555
C5 C4 1_555 1_555
C6 C5 1_555 1_555
N1 N2 1_555 1_555
N2 C1 1_555 1_555
Cl1 Cu1 1_555 1_555
Cl2 Cu1 1_555 1_555
Cu1D N1G 1_555 1_555
Cu1E N1V 1_555 1_555
Cu1A N1Z 1_555 1_555
Cu1B Cl1 1_555 1_555
Cu1A_2 Cl1 1_555 1_555
Cu1P Cl1 1_555 1_555
Cu1P_2 N1H 1_555 1_555
Cu1F N1U 1_555 1_555
Cu1T N1O 1_555 1_555
Cu1D_2 N1D 1_555 1_555
Cu1F_2 N1CA 1_555 1_555
Cu1B_2 N1Q 1_555 1_555
Cu1P_3 N1K 1_555 1_555
Cu1E_2 N1DA 1_555 1_555
Cu1T_2 N1L 1_555 1_555
Cu2G N2G 1_555 1_555
Cu2V N2V 1_555 1_555
Cu2A N2Z 1_555 1_555
Cu2S N2H 1_555 1_555
Cu2U N2U 1_555 1_555
Cu2T N2O 1_555 1_555
Cu2B N2Y 1_555 1_555
Cu2C Cl2 1_555 1_555
Cu2D N2D 1_555 1_555
Cu2F N2CA 1_555 1_555
Cu2Q N2Q 1_555 1_555
Cu2P N2K 1_555 1_555
Cu2E N2DA 1_555 1_555
Cu2W N2L 1_555 1_555
Cu2R N2R 1_555 1_555
Cu2D_2 Cl2D 1_555 1_555
Cu2E_2 Cl2E 1_555 1_555
Cu2R_2 Cl2A 1_555 1_555
C1G C2G 1_555 1_555
C1Z C2Z 1_555 1_555
C1U C2U 1_555 1_555
C1C C2C 1_555 1_555
C1D C2D 1_555 1_555
C1Q C2Q 1_555 1_555
C1DA C2DA 1_555 1_555
C2G C3G 1_555 1_555
C2Z C3Z 1_555 1_555
C2U C3U 1_555 1_555
C2C C3C 1_555 1_555
C2D C3D 1_555 1_555
C2Q C3Q 1_555 1_555
C2DA C3DA 1_555 1_555
C3Y C2 1_555 1_555
C3G H1G 1_555 1_555
C3V C2G 1_555 1_555
C3Z H1Z 1_555 1_555
C3H C2Z 1_555 1_555
C3U H1U 1_555 1_555
C3O C2U 1_555 1_555
C3C H1C 1_555 1_555
C3R C2C 1_555 1_555
C3D H1D 1_555 1_555
C3CA C2D 1_555 1_555
C3Q H1Q 1_555 1_555
C3K C2Q 1_555 1_555
C3DA H1DA 1_555 1_555
C3L C2DA 1_555 1_555
H1Y C3Y 1_555 1_555
H1V C3V 1_555 1_555
H1H C3H 1_555 1_555
H1O C3O 1_555 1_555
H1R C3R 1_555 1_555
H1CA C3CA 1_555 1_555
H1K C3K 1_555 1_555
H1L C3L 1_555 1_555
C4Y C5 1_555 1_555
C4G C3G 1_555 1_555
C4V C3V 1_555 1_555
C4Z C3Z 1_555 1_555
C4H C3H 1_555 1_555
C4U C3U 1_555 1_555
C4O C3O 1_555 1_555
C4C C3C 1_555 1_555
C4R C3R 1_555 1_555
C4D C3D 1_555 1_555
C4CA C3CA 1_555 1_555
C4Q C3Q 1_555 1_555
C4K C3K 1_555 1_555
C4DA C3DA 1_555 1_555
C4L C3L 1_555 1_555
H2Y C4Y 1_555 1_555
H2V C4V 1_555 1_555
H2G C4G 1_555 1_555
H2H C4H 1_555 1_555
H2Z C4Z 1_555 1_555
H2O C4O 1_555 1_555
H2U C4U 1_555 1_555
H2C C4C 1_555 1_555
H2R C4R 1_555 1_555
H2CA C4CA 1_555 1_555
H2D C4D 1_555 1_555
H2K C4K 1_555 1_555
H2Q C4Q 1_555 1_555
H2L C4L 1_555 1_555
H2DA C4DA 1_555 1_555
C5G C6 1_555 1_555
C5Z C6 1_555 1_555
C5U C6 1_555 1_555
C5C C4C 1_555 1_555
C5D C4D 1_555 1_555
C5Q C4Q 1_555 1_555
C5DA C4DA 1_555 1_555
C6C C5C 1_555 1_555
N1G N1V 1_555 1_555
N1V N2V 1_555 1_555
N1Z N1H 1_555 1_555
N1H N2H 1_555 1_555
N1U N1O 1_555 1_555
N1O N2O 1_555 1_555
N1Y N1 1_555 1_555
N1C Cu1 1_555 1_555
N1D N1CA 1_555 1_555
N1CA N2CA 1_555 1_555
N1Q N1K 1_555 1_555
N1K N2K 1_555 1_555
N1DA N1L 1_555 1_555
N1L N2L 1_555 1_555
N1R Cu1A_2 1_555 1_555
N1X Cu1 1_555 1_555
N1AA Cu1 1_555 1_555
N1D_2 Cu1D 1_555 1_555
N1EA Cu1D 1_555 1_555
N1BA Cu1D 1_555 1_555
N1DA_2 Cu1E 1_555 1_555
N1E Cu1E 1_555 1_555
N1M Cu1E 1_555 1_555
N1R_2 Cu1A 1_555 1_555
N1I Cu1A 1_555 1_555
N1A Cu1A 1_555 1_555
N2G C1G 1_555 1_555
N2V C1G 1_555 1_555
N2Z C1Z 1_555 1_555
N2H C1Z 1_555 1_555
N2U C1U 1_555 1_555
N2O C1U 1_555 1_555
N2Y C1 1_555 1_555
N2C Cu2C 1_555 1_555
N2D C1D 1_555 1_555
N2CA C1D 1_555 1_555
N2Q C1Q 1_555 1_555
N2K C1Q 1_555 1_555
N2DA C1DA 1_555 1_555
N2L C1DA 1_555 1_555
N2R C1C 1_555 1_555
N2AA Cu2 1_555 1_555
N2BA Cu2G 1_555 1_555
N2M Cu2V 1_555 1_555
N2A Cu2A 1_555 1_555
N2S Cu2S 1_555 1_555
N2N Cu2U 1_555 1_555
N2T Cu2T 1_555 1_555
N2B Cu2B 1_555 1_555
Cl1C Cu1 1_555 1_555
Cl1G Cu1D 1_555 1_555
Cl1D Cu1D 1_555 1_555
Cl1_2 Cu1A 1_555 1_555
Cl1C_2 Cu1A 1_555 1_555
Cl2D Cu1D 1_555 1_555
Cl2E Cu1E 1_555 1_555
Cl2A Cu1A 1_555 1_555
Cl2P Cu1P_2 1_555 1_555
Cl2F Cu1F 1_555 1_555
Cl2T Cu1T 1_555 1_555
Cl2B Cu1B 1_555 1_555
Cu2 Cl2 1_555 1_555
Cl1 Cl1C 1_555 1_555
Cu1E Cl1G 1_555 1_555
Cu1E Cl1D 1_555 1_555
Cu1B N1Y 1_555 1_555
Cu1B Cl1C 1_555 1_555
Cu1A_2 Cl1C 1_555 1_555
Cu1P Cl1C 1_555 1_555
Cu1P_2 Cl1_2 1_555 1_555
Cu1P_2 Cl1C_2 1_555 1_555
Cu2G Cl2D 1_555 1_555
Cu2V Cl2E 1_555 1_555
Cu2A Cl2A 1_555 1_555
Cu2S Cl2P 1_555 1_555
Cu2U Cl2F 1_555 1_555
Cu2T Cl2T 1_555 1_555
Cu2B Cl2B 1_555 1_555
C1C N2C 1_555 1_555
C3Y C4Y 1_555 1_555
C4G C5G 1_555 1_555
C4V C5G 1_555 1_555
C4Z C5Z 1_555 1_555
C4H C5Z 1_555 1_555
C4U C5U 1_555 1_555
C4O C5U 1_555 1_555
C4R C5C 1_555 1_555
C4CA C5D 1_555 1_555
C4K C5Q 1_555 1_555
C4L C5DA 1_555 1_555
C5D C6C 1_555 1_555
C5Q C6C 1_555 1_555
C5DA C6C 1_555 1_555
N1G N2G 1_555 1_555
N1Z N2Z 1_555 1_555
N1U N2U 1_555 1_555
N1Y N2Y 1_555 1_555
N1C N1R 1_555 1_555
N1C N2C 1_555 1_555
N1D N2D 1_555 1_555
N1Q N2Q 1_555 1_555
N1DA N2DA 1_555 1_555
N1R N2R 1_555 1_555
N1AA N2AA 1_555 1_555
N1EA N1E 1_555 1_555
N1BA N2BA 1_555 1_555
N1M N2M 1_555 1_555
N1A N2A 1_555 1_555
Cl1G Cl1D 1_555 1_555
Cl1_2 Cl1C_2 1_555 1_555

#END
