
#######################################################################
#
#                 Cambridge Crystallographic Data Centre
#                                CCDC 
#
#######################################################################
#
# If this CIF has been generated from an entry in the Cambridge 
# Structural Database, then it will include bibliographic, chemical, 
# crystal, experimental, refinement or atomic coordinate data resulting 
# from the CCDC's data processing and validation procedures.
#
#######################################################################

data_WOLSOG
_symmetry_cell_setting           triclinic
_symmetry_space_group_name_H-M   'P -1'
_symmetry_Int_Tables_number      2
_space_group_name_Hall           '-P 1'
loop_
_symmetry_equiv_pos_site_id
_symmetry_equiv_pos_as_xyz
1 x,y,z
2 -x,-y,-z
_cell_length_a                   8.9251(6)
_cell_length_b                   15.0298(9)
_cell_length_c                   15.2006(9)
_cell_angle_alpha                87.473(4)
_cell_angle_beta                 76.674(4)
_cell_angle_gamma                83.130(4)
_cell_volume                     1969.61
loop_
_atom_site_label
_atom_site_type_symbol
_atom_site_fract_x
_atom_site_fract_y
_atom_site_fract_z
Ag1 Ag 0.72187(4) 1.47197(2) 0.72834(2)
N1 N 0.9140(4) 1.2011(2) 0.5708(2)
N2 N 0.8342(4) 1.3124(2) 0.6678(2)
N3 N 1.3866(4) 0.7024(2) 0.0444(2)
N4 N 1.3348(4) 0.5911(2) 0.1411(2)
N5 N 0.7595(4) 0.5475(2) 0.4543(2)
N6 N 0.7420(4) 0.5430(2) 0.6023(2)
O1 O 0.8446(3) 1.07144(17) 0.52266(18)
O2 O 0.6952(3) 0.93661(18) 0.58540(18)
O3 O 1.3052(3) 0.83999(19) -0.02448(18)
O4 O 1.3451(3) 0.97462(18) 0.0823(2)
O5 O 0.6069(3) 0.57264(19) 0.34453(19)
O6 O 0.7684(3) 0.54246(18) 0.17368(19)
C1 C 0.5451(4) 0.8993(3) 0.2946(3)
H1 H 0.5306 0.9399 0.2435
H2 H 0.4416 0.8942 0.3344
C2 C 0.6439(4) 0.9415(2) 0.3481(3)
C3 C 0.6282(4) 0.9172(2) 0.4395(3)
H3 H 0.5645 0.8717 0.4640
C4 C 0.7022(4) 0.9572(3) 0.4957(3)
C5 C 0.7907(4) 1.0277(2) 0.4603(3)
C6 C 0.8158(4) 1.0485(2) 0.3684(3)
H4 H 0.8827 1.0925 0.3438
C7 C 0.7438(4) 1.0055(3) 0.3104(3)
C8 C 0.7799(4) 1.0312(2) 0.2098(3)
H5 H 0.6864 1.0275 0.1861
H6 H 0.8024 1.0944 0.2034
C9 C 0.9160(4) 0.9732(2) 0.1517(3)
C10 C 1.0657(5) 0.9968(3) 0.1480(3)
H7 H 1.0774 1.0445 0.1839
C11 C 1.1966(4) 0.9517(3) 0.0930(3)
C12 C 1.1796(4) 0.8804(3) 0.0409(3)
C13 C 1.0327(5) 0.8551(3) 0.0458(3)
H8 H 1.0222 0.8061 0.0112
C14 C 0.8991(4) 0.9007(3) 0.1009(3)
C15 C 0.7426(5) 0.8680(3) 0.1001(3)
H9 H 0.6601 0.9190 0.1134
H10 H 0.7461 0.8468 0.0388
C16 C 0.7017(4) 0.7924(3) 0.1686(3)
C17 C 0.7567(4) 0.7048(3) 0.1398(3)
H11 H 0.8161 0.6956 0.0798
C18 C 0.7265(5) 0.6309(3) 0.1970(3)
C19 C 0.6421(5) 0.6459(3) 0.2867(3)
C20 C 0.5858(4) 0.7318(3) 0.3156(3)
H12 H 0.5270 0.7407 0.3758
C21 C 0.6140(4) 0.8064(3) 0.2573(3)
C22 C 0.9231(5) 1.1483(3) 0.4919(3)
H13 H 0.8730 1.1837 0.4479
H14 H 1.0327 1.1298 0.4622
C23 C 0.9840(5) 1.1800(3) 0.6422(3)
H15 H 1.0521 1.1278 0.6491
C24 C 0.9361(5) 1.2483(3) 0.7002(3)
H16 H 0.9674 1.2524 0.7554
C25 C 0.8232(5) 1.2808(3) 0.5907(3)
H17 H 0.7599 1.3099 0.5532
C26 C 0.6203(5) 0.8591(3) 0.6205(3)
H18 H 0.5095 0.8707 0.6216
H19 H 0.6340 0.8457 0.6820
H20 H 0.6663 0.8078 0.5818
C27 C 1.4262(5) 0.7909(3) 0.0091(3)
H21 H 1.4486 0.8251 0.0579
H22 H 1.5211 0.7836 -0.0400
C28 C 1.3678(12) 0.6322(4) -0.0028(4)
H23 H 1.3763 0.6306 -0.0662
C29 C 1.3347(9) 0.5644(4) 0.0576(4)
H24 H 1.3144 0.5068 0.0433
C30 C 1.3660(5) 0.6744(3) 0.1308(3)
H25 H 1.3733 0.7107 0.1789
C31 C 1.3604(5) 1.0527(3) 0.1282(3)
H26 H 1.2973 1.1043 0.1085
H27 H 1.4693 1.0642 0.1140
H28 H 1.3252 1.0434 0.1935
C32 C 0.7404(6) 0.5217(3) 0.3671(3)
H29 H 0.8342 0.5319 0.3201
H30 H 0.7281 0.4570 0.3687
C33 C 0.7002(5) 0.5076(3) 0.5345(3)
H31 H 0.6366 0.4603 0.5412
C34 C 0.8348(6) 0.6082(3) 0.5621(3)
H32 H 0.8848 0.6446 0.5934
C35 C 0.8435(6) 0.6126(3) 0.4729(3)
H33 H 0.8974 0.6528 0.4306
C36 C 0.8817(6) 0.5264(3) 0.0918(3)
H34 H 0.8388 0.5506 0.0407
H35 H 0.9112 0.4618 0.0847
H36 H 0.9732 0.5558 0.0935
Ag1A Ag 1.27813(4) 0.52803(2) 0.27166(2)
Ag1_2 Ag 0.72187(4) 0.47197(2) 0.72834(2)
N4A N 0.6652(4) 1.4089(2) 0.8589(2)
N6_2 N 0.7420(4) 1.5430(2) 0.6023(2)
Re1 Re 0.88344(2) 0.694606(11) 0.805320(11)
O7 O 0.6858(4) 0.7199(3) 0.8176(3)
O8 O 0.9340(6) 0.7009(3) 0.9062(3)
O9 O 0.9700(6) 0.7706(3) 0.7300(3)
O10 O 0.9385(5) 0.5888(2) 0.7633(3)
N7 N 0.6123(5) 0.2987(3) 0.4272(3)
C37 C 0.6177(6) 0.3073(3) 0.3516(4)
C38 C 0.6263(7) 0.3203(4) 0.2544(4)
H37 H 0.6427 0.3826 0.2370
H38 H 0.5292 0.3071 0.2408
H39 H 0.7127 0.2800 0.2204
loop_
_geom_bond_atom_site_label_1
_geom_bond_atom_site_label_2
_geom_bond_site_symmetry_1
_geom_bond_site_symmetry_2
Ag1 N2 1_555 1_555
N1 C22 1_555 1_555
N2 C24 1_555 1_555
N3 C27 1_555 1_555
N4 C29 1_555 1_555
N5 C32 1_555 1_555
N6 C33 1_555 1_555
O1 C5 1_555 1_555
O2 C4 1_555 1_555
O3 C12 1_555 1_555
O4 C11 1_555 1_555
O5 C19 1_555 1_555
O6 C18 1_555 1_555
C1 H1 1_555 1_555
H2 C1 1_555 1_555
C2 C1 1_555 1_555
C3 C2 1_555 1_555
H3 C3 1_555 1_555
C4 C3 1_555 1_555
C5 C4 1_555 1_555
C6 C5 1_555 1_555
H4 C6 1_555 1_555
C7 C2 1_555 1_555
C8 C7 1_555 1_555
H5 C8 1_555 1_555
H6 C8 1_555 1_555
C9 C8 1_555 1_555
C10 C9 1_555 1_555
H7 C10 1_555 1_555
C11 C10 1_555 1_555
C12 C11 1_555 1_555
C13 C12 1_555 1_555
H8 C13 1_555 1_555
C14 C9 1_555 1_555
C15 C14 1_555 1_555
H9 C15 1_555 1_555
H10 C15 1_555 1_555
C16 C15 1_555 1_555
C17 C16 1_555 1_555
H11 C17 1_555 1_555
C18 C17 1_555 1_555
C19 C18 1_555 1_555
C20 C19 1_555 1_555
H12 C20 1_555 1_555
C21 C1 1_555 1_555
C22 O1 1_555 1_555
H13 C22 1_555 1_555
H14 C22 1_555 1_555
C23 N1 1_555 1_555
H15 C23 1_555 1_555
C24 C23 1_555 1_555
H16 C24 1_555 1_555
C25 N1 1_555 1_555
H17 C25 1_555 1_555
C26 O2 1_555 1_555
H18 C26 1_555 1_555
H19 C26 1_555 1_555
H20 C26 1_555 1_555
C27 O3 1_555 1_555
H21 C27 1_555 1_555
H22 C27 1_555 1_555
C28 N3 1_555 1_555
H23 C28 1_555 1_555
C29 C28 1_555 1_555
H24 C29 1_555 1_555
C30 N3 1_555 1_555
H25 C30 1_555 1_555
C31 O4 1_555 1_555
H26 C31 1_555 1_555
H27 C31 1_555 1_555
H28 C31 1_555 1_555
C32 O5 1_555 1_555
H29 C32 1_555 1_555
H30 C32 1_555 1_555
C33 N5 1_555 1_555
H31 C33 1_555 1_555
C34 N6 1_555 1_555
H32 C34 1_555 1_555
C35 N5 1_555 1_555
H33 C35 1_555 1_555
C36 O6 1_555 1_555
H34 C36 1_555 1_555
H35 C36 1_555 1_555
H36 C36 1_555 1_555
Re1 O7 1_555 1_555
O8 Re1 1_555 1_555
O9 Re1 1_555 1_555
O10 Re1 1_555 1_555
N7 C37 1_555 1_555
C37 C38 1_555 1_555
C38 H37 1_555 1_555
H38 C38 1_555 1_555
H39 C38 1_555 1_555
Ag1A N4 1_555 1_555
Ag1_2 N6 1_555 1_555
N4A Ag1 1_555 1_555
N6_2 Ag1 1_555 1_555
N2 C25 1_555 1_555
N4 C30 1_555 1_555
C6 C7 1_555 1_555
C13 C14 1_555 1_555
C16 C21 1_555 1_555
C20 C21 1_555 1_555
C34 C35 1_555 1_555

#END
