
#######################################################################
#
#                 Cambridge Crystallographic Data Centre
#                                CCDC 
#
#######################################################################
#
# If this CIF has been generated from an entry in the Cambridge 
# Structural Database, then it will include bibliographic, chemical, 
# crystal, experimental, refinement or atomic coordinate data resulting 
# from the CCDC's data processing and validation procedures.
#
#######################################################################

data_WOLSUM
_symmetry_cell_setting           triclinic
_symmetry_space_group_name_H-M   'P -1'
_symmetry_Int_Tables_number      2
_space_group_name_Hall           '-P 1'
loop_
_symmetry_equiv_pos_site_id
_symmetry_equiv_pos_as_xyz
1 x,y,z
2 -x,-y,-z
_cell_length_a                   14.2674(11)
_cell_length_b                   15.0917(12)
_cell_length_c                   16.9138(13)
_cell_angle_alpha                111.868(4)
_cell_angle_beta                 100.442(4)
_cell_angle_gamma                90.440(4)
_cell_volume                     3312.54
loop_
_atom_site_label
_atom_site_type_symbol
_atom_site_fract_x
_atom_site_fract_y
_atom_site_fract_z
Sb1 Sb 0.26821(4) 0.39085(4) 0.16834(4)
F1 F 0.1950(5) 0.3161(5) 0.0651(4)
F2 F 0.1741(5) 0.4731(6) 0.2019(6)
F3 F 0.3106(6) 0.4686(5) 0.1168(5)
F4 F 0.3505(7) 0.4689(5) 0.2724(5)
F5 F 0.3668(5) 0.3143(4) 0.1444(5)
F6 F 0.2295(9) 0.3120(6) 0.2175(6)
Ag1 Ag 0.68772(4) 0.27139(4) 0.28748(4)
O1 O 0.2671(3) -0.0037(3) -0.0009(3)
N1 N 0.7580(4) 0.1346(4) 0.2485(4)
C1 C 0.0226(4) 0.0517(5) -0.0830(4)
O2 O 0.1863(3) -0.1756(3) -0.0759(3)
N2 N 0.3209(5) -0.4238(5) -0.2982(4)
C2 C 0.1197(5) 0.0661(5) -0.0434(4)
H1 H 0.1498 0.1294 -0.0177
O3 O -0.1463(4) -0.3160(5) -0.4607(4)
N3 N -0.4411(5) 0.2722(6) -0.6294(5)
C3 C 0.1737(4) -0.0100(5) -0.0405(4)
O4 O -0.1824(5) -0.1952(5) -0.5369(4)
C4 C 0.1289(5) -0.1046(5) -0.0808(4)
O5 O 0.0207(5) 0.2812(5) -0.3403(4)
C5 C 0.0324(5) -0.1181(5) -0.1206(4)
H2 H 0.0024 -0.1814 -0.1478
O6 O 0.1396(4) 0.3444(4) -0.1911(3)
C6 C -0.0217(5) -0.0416(5) -0.1217(4)
C7 C -0.1275(5) -0.0664(5) -0.1658(4)
H3 H -0.1639 -0.0105 -0.1407
H4 H -0.1529 -0.1204 -0.1538
C8 C -0.1421(5) -0.0939(6) -0.2643(5)
C9 C -0.1338(5) -0.1904(6) -0.3162(5)
H5 H -0.1178 -0.2345 -0.2889
C10 C -0.1482(5) -0.2222(7) -0.4050(5)
C11 C -0.1674(6) -0.1558(7) -0.4456(5)
C12 C -0.1737(5) -0.0615(8) -0.3961(6)
H6 H -0.1851 -0.0167 -0.4234
C13 C -0.1636(5) -0.0301(6) -0.3051(5)
C14 C -0.1762(5) 0.0758(6) -0.2545(5)
H7 H -0.2282 0.0964 -0.2895
H8 H -0.1967 0.0815 -0.2001
C15 C -0.0873(5) 0.1441(6) -0.2314(5)
C16 C -0.0724(6) 0.1796(7) -0.2954(6)
H9 H -0.1158 0.1580 -0.3498
C17 C 0.0038(5) 0.2449(6) -0.2805(5)
C18 C 0.0677(5) 0.2777(5) -0.2004(5)
C19 C 0.0541(5) 0.2426(5) -0.1379(4)
H10 H 0.0978 0.2650 -0.0837
C20 C -0.0218(5) 0.1753(5) -0.1518(4)
C21 C -0.0299(5) 0.1412(5) -0.0785(5)
H11 H -0.0984 0.1274 -0.0803
H12 H -0.0039 0.1937 -0.0221
C22 C 0.3163(5) 0.0900(5) 0.0403(5)
H13 H 0.2812 0.1326 0.0832
H14 H 0.3209 0.1179 -0.0035
C23 C 0.1466(6) -0.2717(5) -0.1272(5)
H15 H 0.0909 -0.2854 -0.1059
H16 H 0.1947 -0.3165 -0.1227
H17 H 0.1270 -0.2791 -0.1881
C24 C -0.1386(6) -0.3872(7) -0.4223(5)
H18 H -0.1696 -0.4491 -0.4664
H19 H -0.1739 -0.3681 -0.3740
C25 C -0.1916(9) -0.1302(9) -0.5808(6)
H20 H -0.2486 -0.0954 -0.5699
H21 H -0.1977 -0.1661 -0.6434
H22 H -0.1348 -0.0846 -0.5592
C26 C -0.0268(6) 0.2302(8) -0.4290(6)
H23 H -0.0252 0.1606 -0.4423
H24 H 0.0095 0.2459 -0.4674
C27 C 0.2132(8) 0.3740(8) -0.1112(7)
H25 H 0.1849 0.4109 -0.0614
H26 H 0.2650 0.4138 -0.1157
H27 H 0.2386 0.3171 -0.1033
C28 C 0.4154(5) 0.0803(5) 0.0854(4)
C29 C 0.4293(5) 0.0208(5) 0.1328(4)
H28 H 0.3758 -0.0138 0.1370
C30 C 0.5199(5) 0.0116(5) 0.1734(5)
H29 H 0.5279 -0.0292 0.2050
C31 C 0.6001(5) 0.0622(5) 0.1684(5)
C32 C 0.5858(5) 0.1207(5) 0.1197(5)
H30 H 0.6392 0.1548 0.1146
C33 C 0.4952(5) 0.1290(5) 0.0794(5)
H31 H 0.4871 0.1689 0.0469
C34 C 0.6987(5) 0.0538(5) 0.2110(5)
C35 C 0.7303(5) -0.0333(5) 0.2115(5)
H32 H 0.6871 -0.0893 0.1879
C36 C 0.8253(6) -0.0378(6) 0.2466(5)
H33 H 0.8475 -0.0969 0.2468
C37 C 0.8871(5) 0.0441(6) 0.2812(5)
H34 H 0.9527 0.0431 0.3046
C38 C 0.8489(5) 0.1273(6) 0.2801(5)
H35 H 0.8908 0.1841 0.3038
C39 C -0.0372(6) -0.4010(6) -0.3881(5)
C40 C -0.0192(7) -0.4452(6) -0.3291(5)
H36 H -0.0698 -0.4567 -0.3036
C41 C 0.0710(7) -0.4734(5) -0.3059(5)
H37 H 0.0805 -0.5068 -0.2676
C42 C 0.1473(6) -0.4526(5) -0.3391(5)
C43 C 0.1296(6) -0.4043(5) -0.3962(5)
H38 H 0.1811 -0.3882 -0.4182
C44 C 0.0399(6) -0.3798(6) -0.4212(5)
H39 H 0.0298 -0.3483 -0.4609
C45 C 0.2427(6) -0.4849(5) -0.3175(5)
C46 C 0.2508(8) -0.5760(6) -0.3153(5)
H40 H 0.1953 -0.6175 -0.3269
C47 C 0.3406(9) -0.6051(7) -0.2961(6)
H41 H 0.3470 -0.6675 -0.2957
C48 C 0.4220(8) -0.5437(7) -0.2773(6)
H42 H 0.4841 -0.5629 -0.2634
C49 C 0.4088(7) -0.4519(6) -0.2795(6)
H43 H 0.4632 -0.4089 -0.2674
C50 C -0.1291(6) 0.2516(6) -0.4502(5)
C51 C -0.1627(8) 0.3372(6) -0.4067(5)
H44 H -0.1225 0.3837 -0.3574
C52 C -0.2543(9) 0.3563(6) -0.4338(6)
H45 H -0.2764 0.4158 -0.4019
C53 C -0.3157(6) 0.2914(6) -0.5066(5)
C54 C -0.2824(6) 0.2031(6) -0.5482(5)
H46 H -0.3226 0.1555 -0.5968
C55 C -0.1910(6) 0.1847(6) -0.5187(5)
H47 H -0.1699 0.1234 -0.5470
C56 C -0.4116(8) 0.3095(10) -0.5412(7)
C57 C -0.5318(7) 0.2796(12) -0.6646(9)
H48 H -0.5389 0.2900 -0.7173
C69 C -0.4609(10) 0.3853(15) -0.4774(10)
H65 H -0.4309 0.4177 -0.4181
C70 C -0.5501(11) 0.4044(16) -0.5094(12)
H66 H -0.5864 0.4479 -0.4728
C71 C -0.5865(12) 0.3560(18) -0.6003(13)
H67 H -0.6473 0.3706 -0.6238
Ag1A Ag 0.31228(4) -0.27139(4) -0.28748(4)
Ag1_2 Ag -0.31228(4) 0.27139(4) -0.71252(4)
N2A N 0.6791(5) 0.4238(5) 0.2982(4)
N3_2 N 0.5589(5) 0.2722(6) 0.3706(5)
N4 N -0.4066(9) -0.0708(10) -0.4544(9)
O7 O -0.3783(8) -0.0130(8) -0.5538(8)
C58 C -0.4230(12) -0.1745(12) -0.5151(11)
H49 H -0.3895 -0.2140 -0.4863
H50 H -0.3986 -0.1827 -0.5678
H51 H -0.4917 -0.1941 -0.5308
C59 C -0.4219(10) -0.0421(10) -0.3672(9)
H52 H -0.4878 -0.0620 -0.3684
H53 H -0.4108 0.0278 -0.3381
H54 H -0.3775 -0.0723 -0.3355
C73 C -0.3858(12) 0.0175(13) -0.4771(12)
H68 H -0.3800 0.0828 -0.4387
N5 N -0.2714(9) 0.2829(9) -0.1649(8)
O8 O -0.3899(10) 0.1679(10) -0.1944(9)
C60 C -0.3181(12) 0.2219(12) -0.1387(12)
H55 H -0.2987 0.2196 -0.0827
C61 C -0.3050(15) 0.2891(15) -0.2461(13)
H56 H -0.3646 0.2479 -0.2748
H57 H -0.2570 0.2680 -0.2825
H58 H -0.3170 0.3556 -0.2376
C62 C -0.1937(13) 0.3421(13) -0.1095(12)
H59 H -0.2136 0.3863 -0.0573
H60 H -0.1672 0.3787 -0.1387
H61 H -0.1449 0.3034 -0.0930
N6 N -0.4753(10) 0.3594(10) -0.0277(9)
O9 O -0.3296(13) 0.4042(13) 0.0632(11)
C63 C -0.4107(13) 0.3648(13) 0.0499(12)
C64 C -0.4640(16) 0.4042(16) -0.0929(15)
C65 C -0.565(2) 0.299(2) -0.0574(18)
O10 O -0.4251(8) -0.1696(8) -0.7247(7)
C66? C -0.505(2) 0.3076(16) -0.5080(14)
H62? H -0.4983 0.3096 -0.4504
C67? C -0.5927(17) 0.304(2) -0.5491(16)
H63? H -0.6427 0.3206 -0.5174
C68? C -0.6133(18) 0.2749(19) -0.6379(18)
H64? H -0.6749 0.2550 -0.6740
O11? O -0.576(2) 0.258(2) -0.1410(18)
C72? C 0.0008(12) 0.4824(12) 0.0664(11)
O12? O -0.1742(12) 0.3441(13) -0.0376(11)
N7? N -0.0574(13) 0.4537(13) -0.0276(12)
C74? C -0.137(2) 0.387(2) -0.0754(18)
loop_
_geom_bond_atom_site_label_1
_geom_bond_atom_site_label_2
_geom_bond_site_symmetry_1
_geom_bond_site_symmetry_2
Sb1 F1 1_555 1_555
Ag1 N1 1_555 1_555
O1 C3 1_555 1_555
N1 C34 1_555 1_555
C1 C2 1_555 1_555
F2 Sb1 1_555 1_555
O2 C4 1_555 1_555
N2 C45 1_555 1_555
C2 H1 1_555 1_555
F3 Sb1 1_555 1_555
O3 C10 1_555 1_555
N3 C56 1_555 1_555
C3 C2 1_555 1_555
F4 Sb1 1_555 1_555
O4 C11 1_555 1_555
N4 C58 1_555 1_555
C4 C3 1_555 1_555
F5 Sb1 1_555 1_555
O5 C17 1_555 1_555
N5 C60 1_555 1_555
C5 C4 1_555 1_555
H2 C5 1_555 1_555
F6 Sb1 1_555 1_555
O6 C18 1_555 1_555
N6 C63 1_555 1_555
C6 C1 1_555 1_555
O7 C73 1_555 1_555
C7 C6 1_555 1_555
H3 C7 1_555 1_555
H4 C7 1_555 1_555
O8 C60 1_555 1_555
C8 C7 1_555 1_555
O9 C63 1_555 1_555
C9 C8 1_555 1_555
H5 C9 1_555 1_555
C10 C9 1_555 1_555
C11 C10 1_555 1_555
C12 C11 1_555 1_555
H6 C12 1_555 1_555
C13 C8 1_555 1_555
C14 C13 1_555 1_555
H7 C14 1_555 1_555
H8 C14 1_555 1_555
C15 C14 1_555 1_555
C16 C15 1_555 1_555
H9 C16 1_555 1_555
C17 C16 1_555 1_555
C18 C17 1_555 1_555
C19 C18 1_555 1_555
H10 C19 1_555 1_555
C20 C15 1_555 1_555
C21 C1 1_555 1_555
H11 C21 1_555 1_555
H12 C21 1_555 1_555
C22 O1 1_555 1_555
H13 C22 1_555 1_555
H14 C22 1_555 1_555
C23 O2 1_555 1_555
H15 C23 1_555 1_555
H16 C23 1_555 1_555
H17 C23 1_555 1_555
C24 O3 1_555 1_555
H18 C24 1_555 1_555
H19 C24 1_555 1_555
C25 O4 1_555 1_555
H20 C25 1_555 1_555
H21 C25 1_555 1_555
H22 C25 1_555 1_555
C26 O5 1_555 1_555
H23 C26 1_555 1_555
H24 C26 1_555 1_555
C27 O6 1_555 1_555
H25 C27 1_555 1_555
H26 C27 1_555 1_555
H27 C27 1_555 1_555
C28 C22 1_555 1_555
C29 C28 1_555 1_555
H28 C29 1_555 1_555
C30 C29 1_555 1_555
H29 C30 1_555 1_555
C31 C30 1_555 1_555
C32 C31 1_555 1_555
H30 C32 1_555 1_555
C33 C28 1_555 1_555
H31 C33 1_555 1_555
C34 C31 1_555 1_555
C35 C34 1_555 1_555
H32 C35 1_555 1_555
C36 C35 1_555 1_555
H33 C36 1_555 1_555
C37 C36 1_555 1_555
H34 C37 1_555 1_555
C38 N1 1_555 1_555
H35 C38 1_555 1_555
C39 C24 1_555 1_555
C40 C39 1_555 1_555
H36 C40 1_555 1_555
C41 C40 1_555 1_555
H37 C41 1_555 1_555
C42 C41 1_555 1_555
C43 C42 1_555 1_555
H38 C43 1_555 1_555
C44 C39 1_555 1_555
H39 C44 1_555 1_555
C45 C42 1_555 1_555
C46 C45 1_555 1_555
H40 C46 1_555 1_555
C47 C46 1_555 1_555
H41 C47 1_555 1_555
C48 C47 1_555 1_555
H42 C48 1_555 1_555
C49 N2 1_555 1_555
H43 C49 1_555 1_555
C50 C26 1_555 1_555
C51 C50 1_555 1_555
H44 C51 1_555 1_555
C52 C51 1_555 1_555
H45 C52 1_555 1_555
C53 C52 1_555 1_555
C54 C53 1_555 1_555
H46 C54 1_555 1_555
C55 C50 1_555 1_555
H47 C55 1_555 1_555
C56 C53 1_555 1_555
C57 N3 1_555 1_555
H48 C57 1_555 1_555
C58 H49 1_555 1_555
H50 C58 1_555 1_555
H51 C58 1_555 1_555
C59 N4 1_555 1_555
H52 C59 1_555 1_555
H53 C59 1_555 1_555
H54 C59 1_555 1_555
C60 H55 1_555 1_555
C61 N5 1_555 1_555
H56 C61 1_555 1_555
H57 C61 1_555 1_555
H58 C61 1_555 1_555
C62 N5 1_555 1_555
H59 C62 1_555 1_555
H60 C62 1_555 1_555
H61 C62 1_555 1_555
C64 N6 1_555 1_555
C65 N6 1_555 1_555
C69 C56 1_555 1_555
H65 C69 1_555 1_555
C70 C69 1_555 1_555
H66 C70 1_555 1_555
C71 C57 1_555 1_555
H67 C71 1_555 1_555
C73 N4 1_555 1_555
H68 C73 1_555 1_555
Ag1A N2 1_555 1_555
Ag1_2 N3 1_555 1_555
N2A Ag1 1_555 1_555
N3_2 Ag1 1_555 1_555
C5 C6 1_555 1_555
C12 C13 1_555 1_555
C19 C20 1_555 1_555
C20 C21 1_555 1_555
C32 C33 1_555 1_555
C37 C38 1_555 1_555
C43 C44 1_555 1_555
C48 C49 1_555 1_555
C54 C55 1_555 1_555
C70 C71 1_555 1_555

#END
