
#######################################################################
#
#                 Cambridge Crystallographic Data Centre
#                                CCDC 
#
#######################################################################
#
# If this CIF has been generated from an entry in the Cambridge 
# Structural Database, then it will include bibliographic, chemical, 
# crystal, experimental, refinement or atomic coordinate data resulting 
# from the CCDC's data processing and validation procedures.
#
#######################################################################

data_WOMCAE
_symmetry_cell_setting           monoclinic
_symmetry_space_group_name_H-M   'P 21/c'
_symmetry_Int_Tables_number      14
_space_group_name_Hall           '-P 2ybc'
loop_
_symmetry_equiv_pos_site_id
_symmetry_equiv_pos_as_xyz
1 x,y,z
2 -x,1/2+y,1/2-z
3 -x,-y,-z
4 x,1/2-y,1/2+z
_cell_length_a                   11.376(4)
_cell_length_b                   20.675(8)
_cell_length_c                   17.957(7)
_cell_angle_alpha                90
_cell_angle_beta                 99.139(7)
_cell_angle_gamma                90
_cell_volume                     4169.85
loop_
_atom_site_label
_atom_site_type_symbol
_atom_site_fract_x
_atom_site_fract_y
_atom_site_fract_z
Ni1 Ni 0.69366(5) 0.16794(2) 0.33145(3)
N1 N 0.3170(3) 0.59129(16) 0.2504(2)
N2 N 0.4169(3) 0.52356(16) 0.33330(19)
N3 N 0.6665(3) 0.34598(16) 0.44384(18)
N4 N 0.6860(3) 0.24517(15) 0.40627(18)
N5 N -0.1677(3) 0.21471(16) 0.28778(18)
N6 N -0.0138(3) 0.23102(18) 0.22872(19)
N7 N 0.3901(3) 0.22407(17) 0.17561(18)
N8 N 0.5628(3) 0.21549(15) 0.25188(18)
N9 N 0.5591(3) 0.11890(16) 0.37996(19)
N10 N 0.4152(3) 0.09673(17) 0.44545(19)
N11 N -0.0002(3) 0.09975(17) 0.48031(19)
N12 N -0.1722(3) 0.11932(16) 0.40761(19)
C1 C 0.4135(4) 0.5831(2) 0.3012(2)
H1 H 0.4734 0.6150 0.3137
C2 C 0.2544(4) 0.5344(2) 0.2504(3)
H2 H 0.1801 0.5258 0.2197
C3 C 0.3145(4) 0.4921(2) 0.3009(3)
H3 H 0.2906 0.4495 0.3117
C4 C 0.5144(4) 0.50028(19) 0.3875(2)
C5 C 0.5770(4) 0.5432(2) 0.4386(2)
H4 H 0.5546 0.5874 0.4386
C6 C 0.6724(4) 0.5207(2) 0.4893(2)
H5 H 0.7173 0.5501 0.5233
C7 C 0.7037(4) 0.4556(2) 0.4913(2)
H6 H 0.7687 0.4402 0.5267
C8 C 0.6378(4) 0.41321(19) 0.4403(2)
C9 C 0.5435(4) 0.43489(19) 0.3876(2)
H7 H 0.4999 0.4059 0.3525
C10 C 0.6563(4) 0.30478(19) 0.3841(2)
H8 H 0.6311 0.3172 0.3332
C11 C 0.7036(4) 0.3098(2) 0.5073(2)
H9 H 0.7177 0.3251 0.5578
C12 C 0.7162(4) 0.2481(2) 0.4842(2)
H10 H 0.7416 0.2125 0.5162
C13 C -0.1133(4) 0.1959(2) 0.2322(2)
H11 H -0.1406 0.1617 0.1984
C14 C -0.0991(4) 0.2650(2) 0.3224(2)
H12 H -0.1165 0.2886 0.3647
C15 C -0.0033(4) 0.2758(2) 0.2872(2)
H13 H 0.0576 0.3073 0.2998
C16 C 0.0657(4) 0.2254(2) 0.1751(2)
C17 C 0.0207(5) 0.2212(3) 0.0989(3)
H14 H -0.0627 0.2215 0.0817
C18 C 0.1003(5) 0.2167(4) 0.0484(3)
H15 H 0.0708 0.2135 -0.0040
C19 C 0.2232(5) 0.2167(3) 0.0729(3)
H16 H 0.2770 0.2128 0.0377
C20 C 0.2653(4) 0.2226(2) 0.1496(2)
C21 C 0.1862(4) 0.2265(2) 0.2014(2)
H17 H 0.2150 0.2299 0.2539
C22 C 0.4470(4) 0.2081(2) 0.2458(2)
H18 H 0.4077 0.1934 0.2855
C23 C 0.4778(4) 0.2428(2) 0.1344(2)
H19 H 0.4667 0.2562 0.0832
C24 C 0.5824(4) 0.2381(2) 0.1822(2)
H20 H 0.6581 0.2487 0.1698
C25 C -0.0566(4) 0.1300(2) 0.4176(2)
H21 H -0.0176 0.1556 0.3850
C26 C -0.1909(4) 0.0794(2) 0.4665(2)
H22 H -0.2661 0.0630 0.4741
C27 C -0.0862(4) 0.0673(2) 0.5117(2)
H23 H -0.0743 0.0416 0.5562
C28 C 0.1240(4) 0.1033(2) 0.5108(2)
C29 C 0.1579(4) 0.1120(2) 0.5878(2)
H24 H 0.0993 0.1159 0.6198
C30 C 0.2777(4) 0.1148(2) 0.6177(2)
H25 H 0.3010 0.1194 0.6706
C31 C 0.3640(4) 0.1111(2) 0.5715(2)
H26 H 0.4462 0.1137 0.5919
C32 C 0.3269(4) 0.1035(2) 0.4938(2)
C33 C 0.2073(4) 0.09954(19) 0.4633(2)
H27 H 0.1834 0.0943 0.4105
C34 C 0.4919(4) 0.1420(2) 0.4274(2)
H28 H 0.4968 0.1849 0.4464
C35 C 0.5238(4) 0.0550(2) 0.3675(3)
H29 H 0.5568 0.0255 0.3359
C36 C 0.4353(4) 0.0411(2) 0.4072(3)
H30 H 0.3950 0.0009 0.4084
Ni1_2 Ni -0.30634(5) 0.16794(2) 0.33145(3)
Ni1A Ni 0.30634(5) 0.66794(2) 0.16855(3)
N1A N 0.6830(3) 0.09129(16) 0.2496(2)
N5_2 N 0.8323(3) 0.21471(16) 0.28778(18)
N12_2 N 0.8278(3) 0.11932(16) 0.40761(19)
Cl1 Cl 0.75673(13) 0.11070(6) 0.66575(7)
O1 O 0.8225(5) 0.0511(2) 0.6649(3)
O2 O 0.8280(4) 0.1650(2) 0.6523(2)
O3 O 0.7153(5) 0.1172(2) 0.7359(3)
O4 O 0.6567(4) 0.1077(2) 0.6047(2)
Cl2 Cl 0.31433(10) 0.30630(5) 0.38872(5)
O5 O 0.3533(3) 0.32339(16) 0.31823(17)
O6 O 0.2210(3) 0.35012(17) 0.4011(2)
O7 O 0.4130(3) 0.31078(18) 0.44968(17)
O8 O 0.2697(3) 0.24118(14) 0.38474(17)
O9 O 0.8657(8) 0.5544(4) 0.2606(5)
C37 C 0.7627(11) 0.5529(5) 0.2957(6)
H31 H 0.7735 0.5822 0.3392
H32 H 0.7499 0.5088 0.3127
H33 H 0.6935 0.5667 0.2596
O10 O 1.0420(11) -0.0534(9) 0.8818(9)
O11 O 0.0117(14) 0.0697(14) -0.0576(13)
loop_
_geom_bond_atom_site_label_1
_geom_bond_atom_site_label_2
_geom_bond_site_symmetry_1
_geom_bond_site_symmetry_2
Ni1 N4 1_555 1_555
N1 C1 1_555 1_555
N2 C1 1_555 1_555
N3 C8 1_555 1_555
N4 C10 1_555 1_555
N5 C13 1_555 1_555
N6 C13 1_555 1_555
N7 C20 1_555 1_555
N8 Ni1 1_555 1_555
N9 Ni1 1_555 1_555
N10 C32 1_555 1_555
N11 C25 1_555 1_555
N12 C25 1_555 1_555
C1 H1 1_555 1_555
C2 N1 1_555 1_555
H2 C2 1_555 1_555
C3 N2 1_555 1_555
H3 C3 1_555 1_555
C4 N2 1_555 1_555
C5 C4 1_555 1_555
H4 C5 1_555 1_555
C6 C5 1_555 1_555
H5 C6 1_555 1_555
C7 C6 1_555 1_555
H6 C7 1_555 1_555
C8 C7 1_555 1_555
C9 C4 1_555 1_555
H7 C9 1_555 1_555
C10 N3 1_555 1_555
H8 C10 1_555 1_555
C11 N3 1_555 1_555
H9 C11 1_555 1_555
C12 N4 1_555 1_555
H10 C12 1_555 1_555
C13 H11 1_555 1_555
C14 N5 1_555 1_555
H12 C14 1_555 1_555
C15 N6 1_555 1_555
H13 C15 1_555 1_555
C16 N6 1_555 1_555
C17 C16 1_555 1_555
H14 C17 1_555 1_555
C18 C17 1_555 1_555
H15 C18 1_555 1_555
C19 C18 1_555 1_555
H16 C19 1_555 1_555
C20 C19 1_555 1_555
C21 C16 1_555 1_555
H17 C21 1_555 1_555
C22 N7 1_555 1_555
H18 C22 1_555 1_555
C23 N7 1_555 1_555
H19 C23 1_555 1_555
C24 N8 1_555 1_555
H20 C24 1_555 1_555
C25 H21 1_555 1_555
C26 N12 1_555 1_555
H22 C26 1_555 1_555
C27 N11 1_555 1_555
H23 C27 1_555 1_555
C28 N11 1_555 1_555
C29 C28 1_555 1_555
H24 C29 1_555 1_555
C30 C29 1_555 1_555
H25 C30 1_555 1_555
C31 C30 1_555 1_555
H26 C31 1_555 1_555
C32 C31 1_555 1_555
C33 C28 1_555 1_555
H27 C33 1_555 1_555
C34 N9 1_555 1_555
H28 C34 1_555 1_555
C35 N9 1_555 1_555
H29 C35 1_555 1_555
C36 N10 1_555 1_555
H30 C36 1_555 1_555
Cl1 O1 1_555 1_555
O2 Cl1 1_555 1_555
O3 Cl1 1_555 1_555
O4 Cl1 1_555 1_555
Cl2 O5 1_555 1_555
O6 Cl2 1_555 1_555
O7 Cl2 1_555 1_555
O8 Cl2 1_555 1_555
O9 C37 1_555 1_555
C37 H31 1_555 1_555
H32 C37 1_555 1_555
H33 C37 1_555 1_555
Ni1_2 N5 1_555 1_555
Ni1A N1 1_555 1_555
N1A Ni1 1_555 1_555
N5_2 Ni1 1_555 1_555
N12_2 Ni1 1_555 1_555
N8 C22 1_555 1_555
N10 C34 1_555 1_555
N12 Ni1_2 1_555 1_555
C2 C3 1_555 1_555
C8 C9 1_555 1_555
C11 C12 1_555 1_555
C14 C15 1_555 1_555
C20 C21 1_555 1_555
C23 C24 1_555 1_555
C26 C27 1_555 1_555
C32 C33 1_555 1_555
C35 C36 1_555 1_555

#END
