
#######################################################################
#
#                 Cambridge Crystallographic Data Centre
#                                CCDC 
#
#######################################################################
#
# If this CIF has been generated from an entry in the Cambridge 
# Structural Database, then it will include bibliographic, chemical, 
# crystal, experimental, refinement or atomic coordinate data resulting 
# from the CCDC's data processing and validation procedures.
#
#######################################################################

data_WOMCUY
_symmetry_cell_setting           tetragonal
_symmetry_space_group_name_H-M   'I 41/a'
_symmetry_Int_Tables_number      88
_space_group_name_Hall           '-I 4ad'
loop_
_symmetry_equiv_pos_site_id
_symmetry_equiv_pos_as_xyz
1 x,y,z
2 1/2-x,-y,1/2+z
3 3/4-y,1/4+x,1/4+z
4 3/4+y,3/4-x,3/4+z
5 1/2+x,1/2+y,1/2+z
6 -x,1/2-y,z
7 1/4-y,3/4+x,3/4+z
8 1/4+y,1/4-x,1/4+z
9 -x,-y,-z
10 1/2+x,y,1/2-z
11 1/4+y,3/4-x,3/4-z
12 1/4-y,1/4+x,1/4-z
13 1/2-x,1/2-y,1/2-z
14 x,1/2+y,-z
15 3/4+y,1/4-x,1/4-z
16 3/4-y,3/4+x,3/4-z
_cell_length_a                   22.0734(10)
_cell_length_b                   22.0734(10)
_cell_length_c                   16.1233(14)
_cell_angle_alpha                90
_cell_angle_beta                 90
_cell_angle_gamma                90
_cell_volume                     7855.84
loop_
_atom_site_label
_atom_site_type_symbol
_atom_site_fract_x
_atom_site_fract_y
_atom_site_fract_z
Cd1 Cd 0.421191(16) 0.011965(16) 0.05059(2)
N1 N 0.3672(2) 0.0632(2) -0.0467(3)
N2 N 0.4423(2) 0.1012(2) 0.1213(3)
C1 C 0.4873(3) 0.2190(2) 0.1436(4)
C2 C 0.3126(2) 0.0894(2) -0.0560(3)
C3 C 0.2098(4) 0.0267(4) 0.1082(5)
H1 H 0.2003 -0.0106 0.1318
C4 C 0.4276(3) 0.2088(3) 0.1183(5)
H2 H 0.4017 0.2413 0.1086
C5 C 0.2352(3) 0.1385(3) 0.0355(5)
H3 H 0.2432 0.1757 0.0107
C6 C 0.3965(2) 0.0718(2) -0.1201(3)
C7 C 0.4982(3) 0.1111(3) 0.1511(4)
H4 H 0.5223 0.0778 0.1642
C8 C 0.5218(3) 0.1688(3) 0.1631(4)
H5 H 0.5607 0.1735 0.1842
C9 C 0.1928(4) 0.1346(4) 0.0991(6)
H6 H 0.1723 0.1689 0.1173
C10 C 0.2655(3) 0.0872(3) 0.0092(4)
C11 C 0.1817(4) 0.0789(5) 0.1347(6)
C12 C 0.4074(3) 0.1502(3) 0.1080(5)
H7 H 0.3676 0.1442 0.0910
C13 C 0.2524(3) 0.0312(3) 0.0457(4)
H8 H 0.2726 -0.0034 0.0277
Cl1 Cl 0.13194(19) 0.07352(18) 0.2190(3)
O1 O 0.4128(2) 0.1047(2) -0.3000(3)
H9 H 0.4350 0.0856 -0.2689
O2 O 0.48284(19) 0.0525(2) -0.2024(3)
N3 N 0.3057(2) 0.1151(2) -0.1309(3)
C14 C 0.3582(2) 0.1034(2) -0.1727(3)
C15 C 0.3638(3) 0.1206(3) -0.2602(4)
C16 C 0.4594(2) 0.0503(2) -0.1319(3)
O3 O 0.32236(19) 0.1482(2) -0.2945(3)
O4 O 0.48523(17) 0.02976(18) -0.0686(3)
N2E N 0.5577(2) 0.3988(2) 0.1213(3)
C1E C 0.5127(3) 0.2810(2) 0.1436(4)
C4E C 0.5724(3) 0.2912(3) 0.1183(5)
H2E H 0.5983 0.2587 0.1086
C7E C 0.5018(3) 0.3889(3) 0.1511(4)
H4E H 0.4777 0.4222 0.1642
C8E C 0.4782(3) 0.3312(3) 0.1631(4)
H5E H 0.4393 0.3265 0.1842
C12E C 0.5926(3) 0.3498(3) 0.1080(5)
H7E H 0.6324 0.3558 0.0910
Cd1E Cd 0.578809(16) 0.488035(16) 0.05059(2)
N1E N 0.6328(2) 0.4368(2) -0.0467(3)
C2E C 0.6874(2) 0.4106(2) -0.0560(3)
C3E C 0.7902(4) 0.4733(4) 0.1082(5)
H1E H 0.7997 0.5106 0.1318
C5E C 0.7648(3) 0.3615(3) 0.0355(5)
H3E H 0.7568 0.3243 0.0107
C6E C 0.6035(2) 0.4282(2) -0.1201(3)
C9E C 0.8072(4) 0.3654(4) 0.0991(6)
H6E H 0.8277 0.3311 0.1173
C10E C 0.7345(3) 0.4128(3) 0.0092(4)
C11E C 0.8183(4) 0.4211(5) 0.1347(6)
C13E C 0.7476(3) 0.4688(3) 0.0457(4)
H8E H 0.7274 0.5034 0.0277
Cl1E Cl 0.86806(19) 0.42648(18) 0.2190(3)
O1E O 0.5872(2) 0.3953(2) -0.3000(3)
H9E H 0.5650 0.4144 -0.2689
O2E O 0.51716(19) 0.4475(2) -0.2024(3)
N3E N 0.6943(2) 0.3849(2) -0.1309(3)
C14E C 0.6418(2) 0.3966(2) -0.1727(3)
C15E C 0.6362(3) 0.3794(3) -0.2602(4)
C16E C 0.5406(2) 0.4497(2) -0.1319(3)
O3E O 0.67764(19) 0.3518(2) -0.2945(3)
O4E O 0.51477(17) 0.47024(18) -0.0686(3)
Cd1C Cd 0.761965(16) 0.328809(16) -0.19941(2)
Cd1F Cd 0.238035(16) 0.171191(16) -0.19941(2)
Cd1H Cd 0.578809(16) -0.011965(16) -0.05059(2)
Cd1M Cd 0.421191(16) 0.511965(16) -0.05059(2)
N3B N 0.6349(2) 0.5557(2) 0.1191(3)
N3G N 0.3651(2) -0.0557(2) 0.1191(3)
O3B O 0.6018(2) 0.57236(19) -0.0445(3)
O3G O 0.3982(2) -0.07236(19) -0.0445(3)
O4H O 0.51477(17) -0.02976(18) 0.0686(3)
O4M O 0.48523(17) 0.52976(18) 0.0686(3)
loop_
_geom_bond_atom_site_label_1
_geom_bond_atom_site_label_2
_geom_bond_site_symmetry_1
_geom_bond_site_symmetry_2
Cd1 N1 1_555 1_555
N1 C2 1_555 1_555
N2 Cd1 1_555 1_555
C1 C4 1_555 1_555
C2 C10 1_555 1_555
C3 H1 1_555 1_555
C4 H2 1_555 1_555
C5 H3 1_555 1_555
C6 N1 1_555 1_555
C7 N2 1_555 1_555
H4 C7 1_555 1_555
C8 C1 1_555 1_555
H5 C8 1_555 1_555
C9 C5 1_555 1_555
H6 C9 1_555 1_555
C10 C5 1_555 1_555
C11 C3 1_555 1_555
C12 N2 1_555 1_555
H7 C12 1_555 1_555
C13 C3 1_555 1_555
H8 C13 1_555 1_555
Cl1 C11 1_555 1_555
O1 H9 1_555 1_555
O2 C16 1_555 1_555
N3 C2 1_555 1_555
C14 C6 1_555 1_555
C15 O1 1_555 1_555
C16 C6 1_555 1_555
O3 C15 1_555 1_555
O4 Cd1 1_555 1_555
N2E C7E 1_555 1_555
C1E C1 1_555 1_555
C4E C1E 1_555 1_555
H2E C4E 1_555 1_555
C7E H4E 1_555 1_555
C8E C1E 1_555 1_555
H5E C8E 1_555 1_555
C12E N2E 1_555 1_555
H7E C12E 1_555 1_555
Cd1E N2E 1_555 1_555
N1E Cd1E 1_555 1_555
C2E N1E 1_555 1_555
C3E H1E 1_555 1_555
C5E H3E 1_555 1_555
C6E N1E 1_555 1_555
C9E C5E 1_555 1_555
H6E C9E 1_555 1_555
C10E C2E 1_555 1_555
C11E C3E 1_555 1_555
C13E C3E 1_555 1_555
H8E C13E 1_555 1_555
Cl1E C11E 1_555 1_555
O1E H9E 1_555 1_555
O2E C16E 1_555 1_555
N3E C2E 1_555 1_555
C14E C6E 1_555 1_555
C15E O1E 1_555 1_555
C16E C6E 1_555 1_555
O3E C15E 1_555 1_555
O4E Cd1E 1_555 1_555
Cd1C N3E 1_555 1_555
Cd1F N3 1_555 1_555
Cd1H O4 1_555 1_555
Cd1M O4E 1_555 1_555
N3B Cd1E 1_555 1_555
N3G Cd1 1_555 1_555
O3B Cd1E 1_555 1_555
O3G Cd1 1_555 1_555
O4H Cd1 1_555 1_555
O4M Cd1E 1_555 1_555
C4 C12 1_555 1_555
C7 C8 1_555 1_555
C9 C11 1_555 1_555
C10 C13 1_555 1_555
N3 C14 1_555 1_555
C14 C15 1_555 1_555
C16 O4 1_555 1_555
O3 Cd1F 1_555 1_555
C4E C12E 1_555 1_555
C7E C8E 1_555 1_555
C5E C10E 1_555 1_555
C9E C11E 1_555 1_555
C10E C13E 1_555 1_555
N3E C14E 1_555 1_555
C14E C15E 1_555 1_555
C16E O4E 1_555 1_555
O3E Cd1C 1_555 1_555
Cd1H O4H 1_555 1_555
Cd1M O4M 1_555 1_555

#END
