
#######################################################################
#
#                 Cambridge Crystallographic Data Centre
#                                CCDC 
#
#######################################################################
#
# If this CIF has been generated from an entry in the Cambridge 
# Structural Database, then it will include bibliographic, chemical, 
# crystal, experimental, refinement or atomic coordinate data resulting 
# from the CCDC's data processing and validation procedures.
#
#######################################################################

data_WOMFIO
_symmetry_cell_setting           hexagonal
_symmetry_space_group_name_H-M   'P 61'
_symmetry_Int_Tables_number      169
_space_group_name_Hall           'P 61'
loop_
_symmetry_equiv_pos_site_id
_symmetry_equiv_pos_as_xyz
1 x,y,z
2 -y,x-y,1/3+z
3 -x+y,-x,2/3+z
4 -x,-y,1/2+z
5 y,-x+y,5/6+z
6 x-y,x,1/6+z
_cell_length_a                   14.3295(6)
_cell_length_b                   14.3295(6)
_cell_length_c                   10.0523(8)
_cell_angle_alpha                90
_cell_angle_beta                 90
_cell_angle_gamma                120
_cell_volume                     1787.55
loop_
_atom_site_label
_atom_site_type_symbol
_atom_site_fract_x
_atom_site_fract_y
_atom_site_fract_z
Mn1 Mn 0.66040(4) 0.53523(4) 0.39572(6)
C1 C 0.7797(4) 0.4610(3) 0.1982(4)
C2 C 0.8715(3) 0.4809(3) 0.2853(4)
C3 C 0.9207(3) 0.5441(3) 0.3959(4)
C4 C 0.9027(3) 0.6169(3) 0.4858(4)
N1 N 0.9297(2) 0.4347(2) 0.2500(4)
N2 N 1.0118(3) 0.4681(3) 0.3338(4)
N3 N 1.0083(2) 0.5346(2) 0.4222(3)
O1 O 0.7601(3) 0.3963(3) 0.1031(4)
O2 O 0.7284(2) 0.5099(3) 0.2184(3)
O3 O 0.8125(3) 0.6100(3) 0.4911(4)
O4 O 0.9815(2) 0.6785(2) 0.5568(4)
Mn1E Mn 1.12517(6) 0.66040(4) 0.56239(6)
Mn1B Mn 0.87483(6) 0.33960(4) 0.06239(6)
N1A N 0.5653(2) 0.4950(3) 0.5833(4)
N3D N 0.5346(2) 0.5263(3) 0.2555(3)
O1A O 0.6037(3) 0.3638(4) 0.4364(4)
O4D O 0.6785(2) 0.6970(3) 0.3901(4)
N4 N 0.2822(5) -0.2344(4) -0.0647(7)
H1 H 0.2419 -0.2516 -0.1390
H2 H 0.3311 -0.1637 -0.0696
H3 H 0.3168 -0.2709 -0.0825
H4 H 0.2376 -0.2676 0.0041
O5 O 0.1238(9) -0.3176(9) 0.1214(14)
H5 H 0.1516 -0.3089 0.1984
H6 H 0.0702 -0.3110 0.0994
O6 O -0.038(2) -0.286(2) 0.059(3)
H7 H -0.0515 -0.2530 0.1199
H8 H -0.0364 -0.2481 -0.0074
O7 O -0.091(3) -0.173(3) 0.241(4)
H9 H -0.0369 -0.1405 0.2923
H10 H -0.1570 -0.2057 0.2652
O8 O -0.029(3) -0.191(2) -0.227(4)
H11 H -0.0294 -0.2344 -0.2848
H12 H -0.0785 -0.1857 -0.2661
loop_
_geom_bond_atom_site_label_1
_geom_bond_atom_site_label_2
_geom_bond_site_symmetry_1
_geom_bond_site_symmetry_2
Mn1 O2 1_555 1_555
C1 C2 1_555 1_555
C2 C3 1_555 1_555
C3 C4 1_555 1_555
C4 O3 1_555 1_555
N1 C2 1_555 1_555
N2 N1 1_555 1_555
N3 C3 1_555 1_555
O1 C1 1_555 1_555
O2 C1 1_555 1_555
O3 Mn1 1_555 1_555
O4 C4 1_555 1_555
N4 H1 1_555 1_555
H2 N4 1_555 1_555
H3 N4 1_555 1_555
H4 N4 1_555 1_555
O5 H5 1_555 1_555
H6 O5 1_555 1_555
O6 H7 1_555 1_555
H8 O6 1_555 1_555
O7 H9 1_555 1_555
H10 O7 1_555 1_555
O8 H11 1_555 1_555
H12 O8 1_555 1_555
Mn1E N3 1_555 1_555
Mn1B N1 1_555 1_555
N1A Mn1 1_555 1_555
N3D Mn1 1_555 1_555
O1A Mn1 1_555 1_555
O4D Mn1 1_555 1_555
N2 N3 1_555 1_555
O1 Mn1B 1_555 1_555
O4 Mn1E 1_555 1_555

#END
