
#######################################################################
#
#                 Cambridge Crystallographic Data Centre
#                                CCDC 
#
#######################################################################
#
# If this CIF has been generated from an entry in the Cambridge 
# Structural Database, then it will include bibliographic, chemical, 
# crystal, experimental, refinement or atomic coordinate data resulting 
# from the CCDC's data processing and validation procedures.
#
#######################################################################

data_WOMJUE
_symmetry_cell_setting           triclinic
_symmetry_space_group_name_H-M   'P -1'
_symmetry_Int_Tables_number      2
_space_group_name_Hall           '-P 1'
loop_
_symmetry_equiv_pos_site_id
_symmetry_equiv_pos_as_xyz
1 x,y,z
2 -x,-y,-z
_cell_length_a                   6.855(11)
_cell_length_b                   8.807(14)
_cell_length_c                   9.896(17)
_cell_angle_alpha                95.22(3)
_cell_angle_beta                 102.86(4)
_cell_angle_gamma                98.168(19)
_cell_volume                     571.875
loop_
_atom_site_label
_atom_site_type_symbol
_atom_site_fract_x
_atom_site_fract_y
_atom_site_fract_z
Gd1 Gd 0.20075(2) 0.386847(18) -0.095392(16)
C1 C 0.3602(7) 0.3208(5) -0.3909(4)
C2 C 0.5744(7) 0.3505(5) -0.3357(4)
C3 C 0.7030(8) 0.3266(8) -0.4220(5)
H1 H 0.8427 0.3488 -0.3858
C4 C 0.6256(9) 0.2695(10) -0.5633(5)
H2 H 0.7128 0.2506 -0.6202
C5 C 0.4246(8) 0.2423(8) -0.6156(5)
H3 H 0.3718 0.2077 -0.7102
C6 C 0.6653(6) 0.4158(5) -0.1865(4)
N1 N 0.2979(6) 0.2651(5) -0.5315(4)
O1 O 0.2234(5) 0.3375(4) -0.3273(3)
O2 O 0.5549(5) 0.4725(4) -0.1145(3)
O3 O 0.8502(5) 0.4187(3) -0.1336(3)
O4 O 0.0997(5) 0.2657(4) 0.0909(3)
O5 O -0.0567(5) 0.1511(4) 0.2607(3)
O6 O -0.2340(5) 0.1147(4) 0.0167(3)
O7 O -0.1865(5) 0.3626(4) 0.1554(3)
O8 O -0.0318(5) 0.1428(4) -0.2024(3)
H4 H -0.0929 0.1285 -0.1274
H5 H 0.0463 0.0755 -0.2251
O9 O 0.3848(5) 0.1788(4) -0.0622(4)
H6 H 0.3345 0.0850 -0.0625
H7 H 0.5143 0.1932 -0.0448
S1 S -0.09341(16) 0.22393(11) 0.13212(10)
H8 H 0.167(3) 0.254(9) -0.577(6)
Gd1A Gd 0.79925(2) 0.613153(18) 0.095392(16)
Gd1_2 Gd 1.20075(2) 0.386847(18) -0.095392(16)
Gd1A_2 Gd -0.20075(2) 0.613153(18) 0.095392(16)
O2A O 0.4451(5) 0.5275(4) 0.1145(3)
O3A O 0.1498(5) 0.5813(3) 0.1336(3)
O3_2 O -0.1498(5) 0.4187(3) -0.1336(3)
O7A O 0.1865(5) 0.6374(4) -0.1554(3)
loop_
_geom_bond_atom_site_label_1
_geom_bond_atom_site_label_2
_geom_bond_site_symmetry_1
_geom_bond_site_symmetry_2
Gd1 O1 1_555 1_555
C1 C2 1_555 1_555
C2 C3 1_555 1_555
C3 H1 1_555 1_555
C4 C3 1_555 1_555
H2 C4 1_555 1_555
C5 C4 1_555 1_555
H3 C5 1_555 1_555
C6 C2 1_555 1_555
N1 C1 1_555 1_555
O1 C1 1_555 1_555
O2 Gd1 1_555 1_555
O3 C6 1_555 1_555
O4 Gd1 1_555 1_555
O5 S1 1_555 1_555
O6 S1 1_555 1_555
O7 S1 1_555 1_555
O8 Gd1 1_555 1_555
H4 O8 1_555 1_555
H5 O8 1_555 1_555
O9 Gd1 1_555 1_555
H6 O9 1_555 1_555
H7 O9 1_555 1_555
S1 O4 1_555 1_555
H8 N1 1_555 1_555
Gd1A O2 1_555 1_555
Gd1_2 O3 1_555 1_555
Gd1A_2 O7 1_555 1_555
O2A Gd1 1_555 1_555
O3A Gd1 1_555 1_555
O3_2 Gd1 1_555 1_555
O7A Gd1 1_555 1_555
C5 N1 1_555 1_555
C6 O2 1_555 1_555
O3 Gd1A 1_555 1_555
Gd1A O2A 1_555 1_555
Gd1A_2 O3A 1_555 1_555
Gd1A_2 O3_2 1_555 1_555

#END
