
#######################################################################
#
#                 Cambridge Crystallographic Data Centre
#                                CCDC 
#
#######################################################################
#
# If this CIF has been generated from an entry in the Cambridge 
# Structural Database, then it will include bibliographic, chemical, 
# crystal, experimental, refinement or atomic coordinate data resulting 
# from the CCDC's data processing and validation procedures.
#
#######################################################################

data_WOMJAK
_symmetry_cell_setting           monoclinic
_symmetry_space_group_name_H-M   'P 21/c'
_symmetry_Int_Tables_number      14
_space_group_name_Hall           '-P 2ybc'
loop_
_symmetry_equiv_pos_site_id
_symmetry_equiv_pos_as_xyz
1 x,y,z
2 -x,1/2+y,1/2-z
3 -x,-y,-z
4 x,1/2-y,1/2+z
_cell_length_a                   7.0390(11)
_cell_length_b                   18.706(3)
_cell_length_c                   8.9548(14)
_cell_angle_alpha                90
_cell_angle_beta                 100.036(2)
_cell_angle_gamma                90
_cell_volume                     1161.05
loop_
_atom_site_label
_atom_site_type_symbol
_atom_site_fract_x
_atom_site_fract_y
_atom_site_fract_z
Pr1 Pr 0.22650(3) 0.451360(9) 0.40102(2)
O1 O 0.3352(3) 0.33028(13) 0.4010(3)
O2 O 0.5935(3) 0.43912(12) 0.4863(3)
O3 O 0.8878(3) 0.42671(13) 0.4381(3)
O4 O 0.3969(4) 0.47250(19) 0.1886(3)
O5 O 0.0344(4) 0.39465(15) 0.1628(3)
N1 N 0.4655(5) 0.22727(16) 0.3413(4)
H1 H 0.3550 0.2077 0.3414
C1 C 0.4834(5) 0.29808(19) 0.3785(4)
C2 C 0.6742(5) 0.32712(18) 0.3846(4)
C3 C 0.8175(6) 0.2837(2) 0.3468(5)
H2 H 0.9404 0.3026 0.3498
C4 C 0.7841(6) 0.2127(2) 0.3044(6)
H3 H 0.8817 0.1849 0.2767
C5 C 0.6070(6) 0.1852(2) 0.3042(5)
H4 H 0.5820 0.1375 0.2787
C6 C 0.7218(5) 0.40162(18) 0.4375(4)
S1 S -0.15793(12) 0.56353(5) 0.19881(10)
O6 O 0.0493(3) 0.54797(12) 0.2468(3)
O7 O -0.2516(3) 0.50157(14) 0.1136(3)
O8 O -0.2504(4) 0.57597(14) 0.3326(3)
O9 O -0.1820(4) 0.62770(14) 0.1027(3)
H5 H 0.516(2) 0.480(2) 0.192(5)
H6 H 0.328(5) 0.471(4) 0.100(3)
H7 H 0.079(6) 0.378(2) 0.088(3)
H8 H -0.052(5) 0.4269(19) 0.141(4)
Pr1B Pr 0.77350(3) 0.548640(9) 0.59898(2)
Pr1_2 Pr 1.22650(3) 0.451360(9) 0.40102(2)
Pr1B_2 Pr -0.22650(3) 0.548640(9) 0.59898(2)
O2B O 0.4065(3) 0.56088(12) 0.5137(3)
O3_2 O -0.1122(3) 0.42671(13) 0.4381(3)
O3B O 0.1122(3) 0.57329(13) 0.5619(3)
O8B O 0.2504(4) 0.42403(14) 0.6674(3)
loop_
_geom_bond_atom_site_label_1
_geom_bond_atom_site_label_2
_geom_bond_site_symmetry_1
_geom_bond_site_symmetry_2
Pr1 O1 1_555 1_555
O1 C1 1_555 1_555
O2 Pr1 1_555 1_555
O3 C6 1_555 1_555
O4 Pr1 1_555 1_555
O5 Pr1 1_555 1_555
N1 H1 1_555 1_555
C1 N1 1_555 1_555
C2 C1 1_555 1_555
C3 C2 1_555 1_555
H2 C3 1_555 1_555
C4 C3 1_555 1_555
H3 C4 1_555 1_555
C5 N1 1_555 1_555
H4 C5 1_555 1_555
C6 O2 1_555 1_555
S1 O6 1_555 1_555
O6 Pr1 1_555 1_555
O7 S1 1_555 1_555
O8 S1 1_555 1_555
O9 S1 1_555 1_555
H5 O4 1_555 1_555
H6 O4 1_555 1_555
H7 O5 1_555 1_555
H8 O5 1_555 1_555
Pr1B O2 1_555 1_555
Pr1_2 O3 1_555 1_555
Pr1B_2 O8 1_555 1_555
O2B Pr1 1_555 1_555
O3_2 Pr1 1_555 1_555
O3B Pr1 1_555 1_555
O8B Pr1 1_555 1_555
O3 Pr1B 1_555 1_555
C2 C6 1_555 1_555
C4 C5 1_555 1_555
Pr1B O2B 1_555 1_555
Pr1B_2 O3_2 1_555 1_555
Pr1B_2 O3B 1_555 1_555

#END
