
#######################################################################
#
#                 Cambridge Crystallographic Data Centre
#                                CCDC 
#
#######################################################################
#
# If this CIF has been generated from an entry in the Cambridge 
# Structural Database, then it will include bibliographic, chemical, 
# crystal, experimental, refinement or atomic coordinate data resulting 
# from the CCDC's data processing and validation procedures.
#
#######################################################################

data_WOMJEO
_symmetry_cell_setting           rhombohedral
_symmetry_space_group_name_H-M   'R -3 c'
_symmetry_Int_Tables_number      167
_space_group_name_Hall           '-R 3 2"c'
loop_
_symmetry_equiv_pos_site_id
_symmetry_equiv_pos_as_xyz
1 x,y,z
2 -y,x-y,z
3 -x+y,-x,z
4 y,x,1/2-z
5 2/3+x,1/3+y,1/3+z
6 2/3-y,1/3+x-y,1/3+z
7 2/3-x+y,1/3-x,1/3+z
8 2/3+y,1/3+x,5/6-z
9 1/3+x,2/3+y,2/3+z
10 1/3+y,2/3+x,1/6-z
11 -x,-x+y,1/2-z
12 x-y,-y,1/2-z
13 1/3-y,2/3+x-y,2/3+z
14 1/3-x+y,2/3-x,2/3+z
15 1/3-x,2/3-x+y,1/6-z
16 1/3+x-y,2/3-y,1/6-z
17 2/3-x,1/3-x+y,5/6-z
18 2/3+x-y,1/3-y,5/6-z
19 -x,-y,-z
20 y,-x+y,-z
21 x-y,x,-z
22 -y,-x,1/2+z
23 1/3-x,2/3-y,2/3-z
24 1/3+y,2/3-x+y,2/3-z
25 1/3+x-y,2/3+x,2/3-z
26 1/3-y,2/3-x,1/6+z
27 2/3-x,1/3-y,1/3-z
28 2/3-y,1/3-x,5/6+z
29 x,x-y,1/2+z
30 -x+y,y,1/2+z
31 2/3+y,1/3-x+y,1/3-z
32 2/3+x-y,1/3+x,1/3-z
33 2/3+x,1/3+x-y,5/6+z
34 2/3-x+y,1/3+y,5/6+z
35 1/3+x,2/3+x-y,1/6+z
36 1/3-x+y,2/3+y,1/6+z
_cell_length_a                   12.481(6)
_cell_length_b                   12.481(6)
_cell_length_c                   53.66(2)
_cell_angle_alpha                90
_cell_angle_beta                 90
_cell_angle_gamma                120.00
_cell_volume                     7239.02
loop_
_atom_site_label
_atom_site_type_symbol
_atom_site_fract_x
_atom_site_fract_y
_atom_site_fract_z
S1 S 0.0000 0.0000 0.0000
O7 O 0.0188(14) 0.1179(11) 0.0081(2)
O7A O -0.1179(11) -0.0991(18) 0.0081(2)
O7B O 0.0991(18) -0.0188(14) 0.0081(2)
O7R O -0.0188(14) -0.1179(11) -0.0081(2)
O7S O 0.1179(11) 0.0991(18) -0.0081(2)
O7T O -0.0991(18) 0.0188(14) -0.0081(2)
N2 N 0.6667 0.3333 0.0833
O9 O 0.7678(8) 0.3333 0.0833
O9A O 0.6667 0.4345(8) 0.0833
O9B O 0.5655(8) 0.2322(8) 0.0833
O10 O 0.456(3) 0.301(3) 0.0653(6)
Pr1 Pr 0.14479(5) 0.3333 0.0833
O1 O 0.1459(6) 0.4958(6) 0.10942(10)
H1 H 0.2027 0.5295 0.1180
H2 H 0.1519 0.5694 0.1033
O2 O 0.1377(6) 0.4842(5) 0.05639(11)
O3 O 0.3614(5) 0.4963(5) 0.07477(10)
O4 O 0.2250(6) 0.3030(5) 0.04513(11)
C1 C 0.2944(9) 0.4095(9) -0.01537(17)
H3 H 0.2660 0.3762 -0.0311
O5 O -0.0701(11) 0.3333 0.0833
C2 C 0.1335(7) 0.5800(7) 0.05602(14)
C3 C 0.1275(7) 0.6266(7) 0.03108(14)
N1 N 0.2479(7) 0.3400(7) 0.00461(14)
H4 H 0.1926 0.2639 0.0023
C4 C 0.1480(8) 0.5781(8) 0.01041(15)
H5 H 0.1650 0.5140 0.0123
C5 C 0.2791(7) 0.3772(7) 0.02829(15)
C6 C 0.1451(9) 0.6178(8) -0.01298(16)
H6 H 0.1635 0.5850 -0.0268
Pr1A Pr 0.6667 0.81149(5) 0.0833
Pr1B Pr 0.18851(5) 0.85521(5) 0.0833
O1O O -0.0166(8) 0.1709(6) 0.05725(10)
H1O H 0.0065 0.1372 0.0487
H2O H -0.0842 0.0973 0.0634
O2O O -0.0132(8) 0.1825(5) 0.11028(11)
O2A O 0.5158(5) 0.6535(8) 0.05639(11)
O3O O 0.1984(7) 0.1704(5) 0.09190(10)
O3B O 0.1349(7) 0.6386(5) 0.07477(10)
O4O O 0.2553(8) 0.3637(5) 0.12154(11)
O4B O 0.0780(8) 0.7750(6) 0.04513(11)
C1B C 0.1151(13) 0.7056(9) -0.01537(17)
H3B H 0.1102 0.7340 -0.0311
C2A C 0.4200(7) 0.5535(10) 0.05602(14)
C3A C 0.3734(7) 0.5009(10) 0.03108(14)
N1B N 0.0921(10) 0.7521(7) 0.00461(14)
H4B H 0.0713 0.8074 0.0023
C4A C 0.4219(8) 0.5699(11) 0.01041(15)
H5A H 0.4860 0.6510 0.0123
C5B C 0.0981(10) 0.7209(7) 0.02829(15)
C6A C 0.3822(8) 0.5273(12) -0.01298(16)
H6A H 0.4150 0.5785 -0.0268
O6? O 0.0000 0.0000 0.0274(4)
O8? O 0.5656(8) 0.3333 0.0833
loop_
_geom_bond_atom_site_label_1
_geom_bond_atom_site_label_2
_geom_bond_site_symmetry_1
_geom_bond_site_symmetry_2
Pr1 O1 1_555 1_555
O1 H1 1_555 1_555
H2 O1 1_555 1_555
O2 Pr1 1_555 1_555
O3 Pr1 1_555 1_555
O4 Pr1 1_555 1_555
C1 H3 1_555 1_555
O5 Pr1 1_555 1_555
C2 O2 1_555 1_555
C3 C2 1_555 1_555
N1 C1 1_555 1_555
H4 N1 1_555 1_555
C4 C3 1_555 1_555
H5 C4 1_555 1_555
C5 O4 1_555 1_555
C6 C4 1_555 1_555
H6 C6 1_555 1_555
S1 O7 1_555 1_555
O7 O7S 1_555 1_555
N2 O9 1_555 1_555
Pr1A O2A 1_555 1_555
Pr1B O3B 1_555 1_555
O1O Pr1 1_555 1_555
H1O O1O 1_555 1_555
H2O O1O 1_555 1_555
O2O Pr1 1_555 1_555
O2A C2A 1_555 1_555
O3O Pr1 1_555 1_555
O3B C2 1_555 1_555
O4O Pr1 1_555 1_555
O4B Pr1B 1_555 1_555
C1B C6 1_555 1_555
H3B C1B 1_555 1_555
C2A O3 1_555 1_555
C3A C5 1_555 1_555
N1B C1B 1_555 1_555
H4B N1B 1_555 1_555
C4A C3A 1_555 1_555
H5A C4A 1_555 1_555
C5B C3 1_555 1_555
C6A C1 1_555 1_555
H6A C6A 1_555 1_555
O7A S1 1_555 1_555
O7B S1 1_555 1_555
O7R S1 1_555 1_555
O7S S1 1_555 1_555
O7T S1 1_555 1_555
O9A N2 1_555 1_555
O9B N2 1_555 1_555
N1 C5 1_555 1_555
O7 O7T 1_555 1_555
O4B C5B 1_555 1_555
C2A C3A 1_555 1_555
N1B C5B 1_555 1_555
C4A C6A 1_555 1_555
O7A O7R 1_555 1_555
O7A O7T 1_555 1_555
O7B O7R 1_555 1_555
O7B O7S 1_555 1_555

#END
