
#######################################################################
#
#                 Cambridge Crystallographic Data Centre
#                                CCDC 
#
#######################################################################
#
# If this CIF has been generated from an entry in the Cambridge 
# Structural Database, then it will include bibliographic, chemical, 
# crystal, experimental, refinement or atomic coordinate data resulting 
# from the CCDC's data processing and validation procedures.
#
#######################################################################

data_WOMJIS
_symmetry_cell_setting           monoclinic
_symmetry_space_group_name_H-M   'P 21/c'
_symmetry_Int_Tables_number      14
_space_group_name_Hall           '-P 2ybc'
loop_
_symmetry_equiv_pos_site_id
_symmetry_equiv_pos_as_xyz
1 x,y,z
2 -x,1/2+y,1/2-z
3 -x,-y,-z
4 x,1/2-y,1/2+z
_cell_length_a                   6.9943(11)
_cell_length_b                   18.637(3)
_cell_length_c                   8.9029(14)
_cell_angle_alpha                90
_cell_angle_beta                 99.958(2)
_cell_angle_gamma                90
_cell_volume                     1143.03
loop_
_atom_site_label
_atom_site_type_symbol
_atom_site_fract_x
_atom_site_fract_y
_atom_site_fract_z
Nd1 Nd 0.227389(16) 0.451597(6) 0.400988(13)
O1 O 0.3328(2) 0.33054(9) 0.4009(2)
O2 O 0.5930(3) 0.43937(9) 0.4873(2)
O3 O 0.8890(2) 0.42761(9) 0.43728(18)
O4 O 0.3984(3) 0.47219(11) 0.1891(2)
O5 O 0.0361(3) 0.39540(10) 0.16432(19)
N1 N 0.4638(3) 0.22708(11) 0.3383(3)
H1 H 0.3529 0.2074 0.3395
C1 C 0.4834(3) 0.29855(13) 0.3765(3)
C2 C 0.6747(4) 0.32776(13) 0.3824(3)
C3 C 0.8196(4) 0.28492(13) 0.3420(3)
H2 H 0.9430 0.3041 0.3452
C4 C 0.7852(4) 0.21352(14) 0.2966(3)
H3 H 0.8823 0.1860 0.2657
C5 C 0.6058(4) 0.18532(14) 0.2989(3)
H4 H 0.5809 0.1374 0.2735
C6 C 0.7224(3) 0.40221(13) 0.4367(3)
S1 S -0.15657(8) 0.56383(3) 0.19869(7)
O6 O 0.0523(3) 0.54837(8) 0.2472(2)
O7 O -0.2502(2) 0.50132(10) 0.11247(18)
O8 O -0.2509(2) 0.57642(10) 0.33310(19)
O9 O -0.1816(3) 0.62832(10) 0.10152(18)
H5 H 0.5179(19) 0.481(2) 0.189(4)
H6 H 0.328(4) 0.472(2) 0.100(2)
H7 H 0.081(4) 0.3784(17) 0.088(2)
H8 H -0.054(4) 0.4263(14) 0.140(3)
Nd1B Nd 0.772611(16) 0.548403(6) 0.599012(13)
Nd1_2 Nd 1.227389(16) 0.451597(6) 0.400988(13)
Nd1B_2 Nd -0.227389(16) 0.548403(6) 0.599012(13)
O2B O 0.4070(3) 0.56063(9) 0.5127(2)
O3_2 O -0.1110(2) 0.42761(9) 0.43728(18)
O3B O 0.1110(2) 0.57239(9) 0.56272(18)
O8B O 0.2509(2) 0.42358(10) 0.66690(19)
loop_
_geom_bond_atom_site_label_1
_geom_bond_atom_site_label_2
_geom_bond_site_symmetry_1
_geom_bond_site_symmetry_2
Nd1 O1 1_555 1_555
O1 C1 1_555 1_555
O2 Nd1 1_555 1_555
O3 C6 1_555 1_555
O4 Nd1 1_555 1_555
O5 Nd1 1_555 1_555
N1 H1 1_555 1_555
C1 N1 1_555 1_555
C2 C1 1_555 1_555
C3 C2 1_555 1_555
H2 C3 1_555 1_555
C4 C3 1_555 1_555
H3 C4 1_555 1_555
C5 N1 1_555 1_555
H4 C5 1_555 1_555
C6 O2 1_555 1_555
S1 O6 1_555 1_555
O6 Nd1 1_555 1_555
O7 S1 1_555 1_555
O8 S1 1_555 1_555
O9 S1 1_555 1_555
H5 O4 1_555 1_555
H6 O4 1_555 1_555
H7 O5 1_555 1_555
H8 O5 1_555 1_555
Nd1B O2 1_555 1_555
Nd1_2 O3 1_555 1_555
Nd1B_2 O8 1_555 1_555
O2B Nd1 1_555 1_555
O3_2 Nd1 1_555 1_555
O3B Nd1 1_555 1_555
O8B Nd1 1_555 1_555
O3 Nd1B 1_555 1_555
C2 C6 1_555 1_555
C4 C5 1_555 1_555
Nd1B O2B 1_555 1_555
Nd1B_2 O3_2 1_555 1_555
Nd1B_2 O3B 1_555 1_555

#END
