
#######################################################################
#
#                 Cambridge Crystallographic Data Centre
#                                CCDC 
#
#######################################################################
#
# If this CIF has been generated from an entry in the Cambridge 
# Structural Database, then it will include bibliographic, chemical, 
# crystal, experimental, refinement or atomic coordinate data resulting 
# from the CCDC's data processing and validation procedures.
#
#######################################################################

data_WOMKAL
_symmetry_cell_setting           monoclinic
_symmetry_space_group_name_H-M   'P 2/c'
_symmetry_Int_Tables_number      13
_space_group_name_Hall           '-P 2yc'
loop_
_symmetry_equiv_pos_site_id
_symmetry_equiv_pos_as_xyz
1 x,y,z
2 -x,y,1/2-z
3 -x,-y,-z
4 x,-y,1/2+z
_cell_length_a                   9.898(3)
_cell_length_b                   6.528(2)
_cell_length_c                   29.317(9)
_cell_angle_alpha                90
_cell_angle_beta                 104.029(9)
_cell_angle_gamma                90
_cell_volume                     1837.79
loop_
_atom_site_label
_atom_site_type_symbol
_atom_site_fract_x
_atom_site_fract_y
_atom_site_fract_z
Gd1 Gd 1.0000 0.68194(18) 0.2500
Gd2 Gd 1.5000 0.17493(19) 0.2500
O1 O 0.8022(14) 0.786(2) 0.1937(5)
O2 O 0.8775(12) 0.3724(19) 0.2103(4)
H1 H 0.8549 0.3655 0.1804
H2 H 0.8583 0.2738 0.2266
O3 O 1.5090(13) 0.377(2) 0.1829(4)
O4 O 1.2939(13) 0.373(2) 0.2291(4)
O5 O 0.3944(13) 0.964(2) 0.1850(5)
O6 O 1.0663(14) 0.987(2) 0.2102(5)
H3 H 1.0475 0.9924 0.1803
H4 H 1.1080 1.0866 0.2264
O7 O 0.6746(13) 0.984(2) 0.2277(5)
C1 C 0.4402(19) 0.929(3) 0.1487(6)
C2 C 1.4085(19) 0.408(3) 0.1485(6)
N1 N 0.3441(17) 0.924(2) 0.1064(6)
H5 H 0.2576 0.9396 0.1061
C3 C 0.6919(18) 0.888(3) 0.1931(7)
N2 N 1.4324(18) 0.397(3) 0.1038(5)
H6 H 1.5166 0.3767 0.1018
O8 O 1.1203(13) 0.575(2) 0.1951(4)
C4 C 0.616(2) 0.861(3) 0.1064(7)
H7 H 0.7085 0.8370 0.1059
C5 C 1.2657(19) 0.450(3) 0.1484(7)
C6 C 0.5824(18) 0.889(3) 0.1486(6)
C7 C 1.2252(17) 0.465(3) 0.1943(6)
C8 C 1.334(2) 0.417(3) 0.0633(7)
H8 H 1.3590 0.4112 0.0347
C9 C 1.167(2) 0.468(3) 0.1081(7)
H9 H 1.0757 0.4966 0.1092
C10 C 0.513(2) 0.867(3) 0.0634(7)
H10 H 0.5375 0.8515 0.0349
C11 C 1.200(2) 0.444(4) 0.0636(7)
H11 H 1.1305 0.4463 0.0358
C12 C 0.379(2) 0.896(3) 0.0649(7)
H12 H 0.3103 0.8960 0.0370
Gd2_2 Gd 0.5000 1.17493(19) 0.2500
Gd2_3 Gd 1.5000 1.17493(19) 0.2500
Gd2_4 Gd 0.5000 0.17493(19) 0.2500
O1A O 1.1978(14) 0.786(2) 0.3063(5)
O2A O 1.1225(12) 0.3724(19) 0.2897(4)
H1A H 1.1451 0.3655 0.3196
H2A H 1.1417 0.2738 0.2734
O3A O 0.4910(13) 0.377(2) 0.3171(4)
O3A_2 O 1.4910(13) 0.377(2) 0.3171(4)
O4A O 0.7061(13) 0.373(2) 0.2709(4)
O4A_2 O 1.7061(13) 0.373(2) 0.2709(4)
O5A O 1.6056(13) 0.964(2) 0.3150(5)
O5_2 O 1.3944(13) -0.036(2) 0.1850(5)
O5A_2 O 1.6056(13) -0.036(2) 0.3150(5)
O6A O 0.9337(14) 0.987(2) 0.2898(5)
H3A H 0.9525 0.9924 0.3197
H4A H 0.8920 1.0866 0.2736
O7A O 1.3254(13) 0.984(2) 0.2723(5)
O7_2 O 1.6746(13) -0.016(2) 0.2277(5)
O7A_2 O 1.3254(13) -0.016(2) 0.2723(5)
C1A C 1.5598(19) 0.929(3) 0.3513(6)
C2A C 0.5915(19) 0.408(3) 0.3515(6)
N1A N 1.6559(17) 0.924(2) 0.3936(6)
H5A H 1.7424 0.9396 0.3939
C3A C 1.3081(18) 0.888(3) 0.3069(7)
N2A N 0.5676(18) 0.397(3) 0.3962(5)
H6A H 0.4834 0.3767 0.3982
O8A O 0.8797(13) 0.575(2) 0.3049(4)
C4A C 1.384(2) 0.861(3) 0.3936(7)
H7A H 1.2915 0.8370 0.3941
C5A C 0.7343(19) 0.450(3) 0.3516(7)
C6A C 1.4176(18) 0.889(3) 0.3514(6)
C7A C 0.7748(17) 0.465(3) 0.3057(6)
C8A C 0.666(2) 0.417(3) 0.4367(7)
H8A H 0.6410 0.4112 0.4653
C9A C 0.833(2) 0.468(3) 0.3919(7)
H9A H 0.9243 0.4966 0.3908
C10A C 1.487(2) 0.867(3) 0.4366(7)
H10A H 1.4625 0.8515 0.4651
C11A C 0.800(2) 0.444(4) 0.4364(7)
H11A H 0.8695 0.4463 0.4642
C12A C 1.621(2) 0.896(3) 0.4351(7)
H12A H 1.6897 0.8960 0.4630
Cl1 Cl 0.7656(6) 0.3603(10) 0.06430(19)
O9 O 0.6248(17) 0.360(3) 0.0376(7)
O10 O 0.762(3) 0.339(4) 0.1122(6)
O11 O 0.831(2) 0.548(4) 0.0572(8)
O12 O 0.835(2) 0.199(4) 0.0497(8)
O13 O 0.0614(19) 0.946(3) 0.1083(7)
loop_
_geom_bond_atom_site_label_1
_geom_bond_atom_site_label_2
_geom_bond_site_symmetry_1
_geom_bond_site_symmetry_2
Gd1 O1 1_555 1_555
Gd2 O3 1_555 1_555
O1 C3 1_555 1_555
O2 Gd1 1_555 1_555
H1 O2 1_555 1_555
H2 O2 1_555 1_555
O3 C2 1_555 1_555
O4 Gd2 1_555 1_555
O5 C1 1_555 1_555
O6 Gd1 1_555 1_555
H3 O6 1_555 1_555
H4 O6 1_555 1_555
O7 C3 1_555 1_555
C1 N1 1_555 1_555
C2 N2 1_555 1_555
N1 H5 1_555 1_555
C3 C6 1_555 1_555
N2 H6 1_555 1_555
O8 Gd1 1_555 1_555
C4 H7 1_555 1_555
C5 C2 1_555 1_555
C6 C1 1_555 1_555
C7 O4 1_555 1_555
C8 N2 1_555 1_555
H8 C8 1_555 1_555
C9 C5 1_555 1_555
H9 C9 1_555 1_555
C10 C4 1_555 1_555
H10 C10 1_555 1_555
C11 C8 1_555 1_555
H11 C11 1_555 1_555
C12 N1 1_555 1_555
H12 C12 1_555 1_555
Cl1 O9 1_555 1_555
O10 Cl1 1_555 1_555
O11 Cl1 1_555 1_555
O12 Cl1 1_555 1_555
Gd2_2 O5 1_555 1_555
Gd2_3 O5A 1_555 1_555
Gd2_4 O3A 1_555 1_555
O1A Gd1 1_555 1_555
O2A Gd1 1_555 1_555
H1A O2A 1_555 1_555
H2A O2A 1_555 1_555
O3A C2A 1_555 1_555
O3A_2 Gd2 1_555 1_555
O4A Gd2_4 1_555 1_555
O4A_2 Gd2 1_555 1_555
O5A C1A 1_555 1_555
O5_2 Gd2 1_555 1_555
O5A_2 Gd2 1_555 1_555
O6A Gd1 1_555 1_555
H3A O6A 1_555 1_555
H4A O6A 1_555 1_555
O7A Gd2_3 1_555 1_555
O7_2 Gd2 1_555 1_555
O7A_2 Gd2 1_555 1_555
C1A N1A 1_555 1_555
C2A N2A 1_555 1_555
N1A H5A 1_555 1_555
C3A O1A 1_555 1_555
N2A H6A 1_555 1_555
O8A Gd1 1_555 1_555
C4A H7A 1_555 1_555
C5A C2A 1_555 1_555
C6A C1A 1_555 1_555
C7A O4A 1_555 1_555
C8A N2A 1_555 1_555
H8A C8A 1_555 1_555
C9A C5A 1_555 1_555
H9A C9A 1_555 1_555
C10A C4A 1_555 1_555
H10A C10A 1_555 1_555
C11A C8A 1_555 1_555
H11A C11A 1_555 1_555
C12A N1A 1_555 1_555
H12A C12A 1_555 1_555
O7 Gd2_2 1_555 1_555
O8 C7 1_555 1_555
C4 C6 1_555 1_555
C5 C7 1_555 1_555
C9 C11 1_555 1_555
C10 C12 1_555 1_555
O7A C3A 1_555 1_555
C3A C6A 1_555 1_555
O8A C7A 1_555 1_555
C4A C6A 1_555 1_555
C5A C7A 1_555 1_555
C9A C11A 1_555 1_555
C10A C12A 1_555 1_555

#END
