
#######################################################################
#
#                 Cambridge Crystallographic Data Centre
#                                CCDC 
#
#######################################################################
#
# If this CIF has been generated from an entry in the Cambridge 
# Structural Database, then it will include bibliographic, chemical, 
# crystal, experimental, refinement or atomic coordinate data resulting 
# from the CCDC's data processing and validation procedures.
#
#######################################################################

data_WOMXON
_symmetry_cell_setting           triclinic
_symmetry_space_group_name_H-M   'P -1'
_symmetry_Int_Tables_number      2
_space_group_name_Hall           '-P 1'
loop_
_symmetry_equiv_pos_site_id
_symmetry_equiv_pos_as_xyz
1 x,y,z
2 -x,-y,-z
_cell_length_a                   10.1557(8)
_cell_length_b                   12.2174(11)
_cell_length_c                   12.5774(10)
_cell_angle_alpha                71.4930(10)
_cell_angle_beta                 75.1070(11)
_cell_angle_gamma                77.3160(10)
_cell_volume                     1413.83
loop_
_atom_site_label
_atom_site_type_symbol
_atom_site_fract_x
_atom_site_fract_y
_atom_site_fract_z
Co1 Co 0.45614(2) 0.87177(2) 0.89255(2)
O1 O 0.62455(12) 0.73402(11) 0.87949(12)
O2 O 0.65679(13) 0.88005(11) 0.93005(12)
N1 N 0.37367(15) 0.80092(14) 1.07118(13)
N2 N 0.24279(16) 0.79807(14) 1.24380(13)
N3 N -0.45249(15) 0.94992(14) 1.71198(13)
N4 N -0.32941(16) 0.94151(16) 1.53882(14)
O3 O 0.33752(14) 1.03541(12) 0.89375(11)
H1 H 0.3420 1.0526 0.9505
C1 C 0.70427(18) 0.78871(16) 0.89702(15)
C2 C 0.37421(18) 0.68516(16) 1.13790(16)
C3 C 0.85676(18) 0.74855(16) 0.87295(16)
C4 C -0.44822(18) 1.06372(18) 1.64032(16)
C5 C 0.94835(18) 0.81440(17) 0.87828(16)
H2 H 0.9157 0.8840 0.8982
C6 C -0.3713(2) 1.0590(2) 1.53102(17)
C7 C 0.29241(19) 0.68235(17) 1.24650(16)
C8 C 1.04678(18) 0.60377(16) 0.81791(16)
C9 C 0.29477(19) 0.86264(17) 1.13906(16)
H3 H 0.2766 0.9438 1.1165
C10 C -0.38035(19) 0.88240(19) 1.64689(17)
H4 H -0.3660 0.8013 1.6732
C11 C 1.13684(18) 0.67131(17) 0.82521(16)
H5 H 1.2312 0.6455 0.8106
C12 C 0.4252(2) 0.47890(19) 1.1976(2)
H6 H 0.4698 0.4086 1.1829
C13 C 1.08936(18) 0.77628(16) 0.85381(16)
C14 C 0.2752(2) 0.57909(19) 1.33230(18)
H7 H 0.2205 0.5783 1.4042
C15 C -0.2403(2) 0.8914(2) 1.44902(19)
H8 H -0.2651 0.9355 1.3761
H9 H -0.2556 0.8117 1.4645
C16 C -0.5046(2) 1.17133(19) 1.66087(18)
H10 H -0.5548 1.1763 1.7327
C17 C 0.90574(18) 0.64516(16) 0.84197(16)
H11 H 0.8432 0.6025 0.8371
C18 C 0.0020(2) 0.8378(2) 1.34727(18)
H12 H -0.0106 0.7569 1.3658
H13 H -0.0256 0.8790 1.2748
C19 C 0.4416(2) 0.58153(18) 1.11250(18)
H14 H 0.4958 0.5816 1.0406
C20 C 1.0973(2) 0.49088(18) 0.78069(18)
C21 C 0.1525(2) 0.8439(2) 1.33607(18)
H15 H 0.1635 0.9245 1.3218
H16 H 0.1804 0.7997 1.4078
C22 C 1.2418(2) 0.4351(2) 0.8042(3)
H17 H 1.2659 0.3606 0.7883
H18 H 1.2422 0.4249 0.8830
H19 H 1.3075 0.4850 0.7559
C23 C -0.4090(3) 1.2635(2) 1.4630(2)
H20 H -0.3982 1.3320 1.4042
C24 C -0.0884(2) 0.8919(2) 1.44060(19)
H21 H -0.0634 0.8485 1.5136
H22 H -0.0724 0.9717 1.4238
C25 C 1.0996(3) 0.5217(2) 0.6527(2)
H23 H 1.0084 0.5542 0.6390
H24 H 1.1309 0.4524 0.6271
H25 H 1.1609 0.5777 0.6114
C26 C -0.4840(2) 1.2705(2) 1.5713(2)
H26 H -0.5206 1.3434 1.5832
C27 C 0.3433(3) 0.4779(2) 1.3052(2)
H27 H 0.3344 0.4067 1.3604
C28 C -0.3511(2) 1.1590(2) 1.44110(19)
H28 H -0.3004 1.1549 1.3691
C29 C 1.0005(2) 0.40052(19) 0.8452(2)
H29 H 0.9114 0.4297 0.8257
H30 H 0.9918 0.3860 0.9262
H31 H 1.0374 0.3292 0.8243
C30 C 1.18695(19) 0.84985(18) 0.86078(16)
O4 O 1.31356(12) 0.80686(12) 0.85032(12)
O5 O 1.13747(16) 0.94785(14) 0.87465(18)
H32 H 0.263(3) 1.017(2) 0.894(2)
Co1_2 Co -0.54386(2) 0.87177(2) 1.89255(2)
Co1_3 Co 1.45614(2) 0.87177(2) 0.89255(2)
N3_2 N 0.54751(15) 0.94992(14) 0.71198(13)
O4_2 O 0.31356(12) 0.80686(12) 0.85032(12)
loop_
_geom_bond_atom_site_label_1
_geom_bond_atom_site_label_2
_geom_bond_site_symmetry_1
_geom_bond_site_symmetry_2
Co1 O1 1_555 1_555
O1 C1 1_555 1_555
O2 Co1 1_555 1_555
N1 Co1 1_555 1_555
N2 C7 1_555 1_555
N3 C4 1_555 1_555
N4 C6 1_555 1_555
O3 Co1 1_555 1_555
H1 O3 1_555 1_555
C1 O2 1_555 1_555
C2 N1 1_555 1_555
C3 C1 1_555 1_555
C4 C6 1_555 1_555
C5 C3 1_555 1_555
H2 C5 1_555 1_555
C6 C28 1_555 1_555
C7 C2 1_555 1_555
C8 C11 1_555 1_555
C9 N1 1_555 1_555
H3 C9 1_555 1_555
C10 N3 1_555 1_555
H4 C10 1_555 1_555
C11 H5 1_555 1_555
C12 H6 1_555 1_555
C13 C5 1_555 1_555
C14 C7 1_555 1_555
H7 C14 1_555 1_555
C15 N4 1_555 1_555
H8 C15 1_555 1_555
H9 C15 1_555 1_555
C16 C4 1_555 1_555
H10 C16 1_555 1_555
C17 C3 1_555 1_555
H11 C17 1_555 1_555
C18 H12 1_555 1_555
H13 C18 1_555 1_555
C19 C2 1_555 1_555
H14 C19 1_555 1_555
C20 C8 1_555 1_555
C21 N2 1_555 1_555
H15 C21 1_555 1_555
H16 C21 1_555 1_555
C22 C20 1_555 1_555
H17 C22 1_555 1_555
H18 C22 1_555 1_555
H19 C22 1_555 1_555
C23 H20 1_555 1_555
C24 C15 1_555 1_555
H21 C24 1_555 1_555
H22 C24 1_555 1_555
C25 C20 1_555 1_555
H23 C25 1_555 1_555
H24 C25 1_555 1_555
H25 C25 1_555 1_555
C26 C16 1_555 1_555
H26 C26 1_555 1_555
C27 C12 1_555 1_555
H27 C27 1_555 1_555
C28 C23 1_555 1_555
H28 C28 1_555 1_555
C29 C20 1_555 1_555
H29 C29 1_555 1_555
H30 C29 1_555 1_555
H31 C29 1_555 1_555
C30 C13 1_555 1_555
O4 C30 1_555 1_555
O5 C30 1_555 1_555
H32 O3 1_555 1_555
Co1_2 N3 1_555 1_555
Co1_3 O4 1_555 1_555
N3_2 Co1 1_555 1_555
O4_2 Co1 1_555 1_555
N2 C9 1_555 1_555
N4 C10 1_555 1_555
C8 C17 1_555 1_555
C11 C13 1_555 1_555
C12 C19 1_555 1_555
C14 C27 1_555 1_555
C18 C21 1_555 1_555
C18 C24 1_555 1_555
C23 C26 1_555 1_555

#END
