
#######################################################################
#
#                 Cambridge Crystallographic Data Centre
#                                CCDC 
#
#######################################################################
#
# If this CIF has been generated from an entry in the Cambridge 
# Structural Database, then it will include bibliographic, chemical, 
# crystal, experimental, refinement or atomic coordinate data resulting 
# from the CCDC's data processing and validation procedures.
#
#######################################################################

data_WONDIO
_symmetry_cell_setting           triclinic
_symmetry_space_group_name_H-M   'P -1'
_symmetry_Int_Tables_number      2
_space_group_name_Hall           '-P 1'
loop_
_symmetry_equiv_pos_site_id
_symmetry_equiv_pos_as_xyz
1 x,y,z
2 -x,-y,-z
_cell_length_a                   10.3845(9)
_cell_length_b                   10.7053(9)
_cell_length_c                   27.400(3)
_cell_angle_alpha                84.153(4)
_cell_angle_beta                 89.737(5)
_cell_angle_gamma                64.833(3)
_cell_volume                     2740
loop_
_atom_site_label
_atom_site_type_symbol
_atom_site_fract_x
_atom_site_fract_y
_atom_site_fract_z
N4 N 0.1917(3) 0.4713(3) 0.22675(10)
O6 O 0.1458(3) 0.6958(3) 0.20155(12)
C44 C 0.2279(4) 0.5731(3) 0.21099(14)
H20 H 0.3262 0.5485 0.2067
C45 C 0.2971(4) 0.3308(3) 0.23800(14)
H21 H 0.2502 0.2711 0.2490
H22 H 0.3633 0.3270 0.2641
H23 H 0.3497 0.2985 0.2086
C46 C 0.0440(4) 0.4987(4) 0.23143(16)
H24 H 0.0370 0.4125 0.2434
H25 H -0.0064 0.5350 0.1993
H26 H 0.0010 0.5674 0.2547
Cu1 Cu 0.80444(3) 0.16619(3) 0.264127(10)
O1 O 0.81153(18) 0.34472(17) 0.24876(6)
F1 F 0.67436(16) 0.69007(16) 0.37901(5)
F2 F 0.93970(16) 0.53095(15) 0.36643(5)
F3 F 0.74863(15) 0.52141(14) 0.14441(5)
O2 O 0.80918(17) 0.98111(17) 0.28012(6)
F4 F 0.74872(17) 0.72148(16) 0.12014(5)
F5 F 0.44072(17) 0.69223(19) 0.15655(6)
F6 F 0.69903(16) 0.88098(14) 0.36032(5)
F7 F 0.98473(15) 0.70127(16) 0.33359(5)
O3 O 0.57919(19) 0.44444(19) 0.22631(7)
N1 N 0.8421(2) 0.1230(2) 0.19441(7)
F8 F 0.84554(18) 0.69497(18) 0.44951(5)
F9 F 0.47798(19) 0.85107(16) 0.11177(6)
C1 C 0.6960(2) 0.5873(2) 0.23985(9)
N2 N 0.7284(2) 0.2303(2) 0.32981(7)
F10 F 0.95430(19) 0.81322(17) 0.41481(6)
C2 C 0.7455(3) 0.7487(2) 0.34955(9)
O4 O 0.5840(2) 1.08426(18) 0.25058(7)
C3 C 0.6831(2) 0.6878(2) 0.20100(8)
C4 C 0.6810(3) 0.8138(2) 0.21051(9)
H1 H 0.6669 0.8833 0.1839
C5 C 0.6794(3) 0.6598(3) 0.14810(9)
C6 C 0.6926(3) 0.4478(3) 0.23652(8)
C7 C 0.7653(3) 0.2142(3) 0.15634(9)
H2 H 0.6852 0.2960 0.1629
C8 C 0.6991(2) 0.8404(2) 0.25815(9)
C9 C 0.5586(2) 0.4208(2) 0.46024(8)
C10 C 0.7176(2) 0.7376(2) 0.29673(8)
C11 C 0.5277(3) 0.7126(3) 0.12398(9)
C12 C 0.5972(3) 0.2505(3) 0.34306(9)
H3 H 0.5418 0.2233 0.3227
C13 C 0.9458(3) 0.6910(3) 0.41793(10)
C14 C 0.6185(3) 0.3484(2) 0.41580(8)
C15 C 0.7985(3) 0.1931(3) 0.10827(9)
H4 H 0.7411 0.2587 0.0823
C16 C 0.6941(3) 0.9817(3) 0.26406(8)
C17 C 0.7142(3) 0.6143(3) 0.28710(9)
H5 H 0.7246 0.5461 0.3138
C18 C 0.5143(2) 0.5636(3) 0.45580(8)
H6 H 0.5236 0.6086 0.4252
C19 C 0.8047(3) 0.2693(3) 0.35910(9)
H7 H 0.8976 0.2561 0.3499
C20 C 0.9046(3) 0.6681(3) 0.36637(9)
F11 F 1.0821(2) 0.45774(18) 0.45157(6)
O5 O 1.03805(19) 0.07785(19) 0.29044(7)
F12 F 1.1238(2) 0.6158(2) 0.48096(7)
F13 F 1.19232(19) 0.5593(2) 0.40886(7)
C21 C 0.9172(3) 0.0747(3) 0.09809(9)
C22 C 0.9909(3) -0.0218(3) 0.13728(9)
H8 H 1.0688 -0.1064 0.1317
C23 C 0.7546(3) 0.3276(3) 0.40193(9)
H9 H 0.8124 0.3533 0.4217
N3 N 1.2416(2) -0.1164(3) 0.28536(9)
C24 C 1.0901(3) 0.5770(3) 0.44004(11)
C25 C 0.5431(3) 0.3561(3) 0.50584(9)
C26 C 0.5393(3) 0.3094(3) 0.38527(9)
H10 H 0.4455 0.3230 0.3933
C27 C 1.1121(3) -0.0467(3) 0.30091(9)
H11 H 1.0735 -0.0973 0.3218
F14 F 1.19996(17) 0.08996(17) 0.09352(6)
F15 F 1.05422(19) 0.31076(16) -0.01456(5)
F16 F 0.94445(16) 0.32096(15) 0.05373(6)
F17 F 0.62271(19) 0.6404(2) 0.04763(6)
F18 F 0.53933(19) 0.51314(17) 0.09156(7)
F19 F 1.29682(17) 0.12453(18) 0.02564(6)
F20 F 1.1863(2) 0.4098(2) 0.04511(8)
F21 F 1.3788(3) 0.3554(2) 0.12174(8)
F22 F 1.4168(2) 0.1423(2) 0.12859(8)
F23 F 1.1347(2) 0.3398(2) 0.11657(7)
C28 C 1.0174(3) 0.1142(3) 0.01458(9)
C29 C 1.0568(3) 0.0691(3) -0.03154(9)
H12 H 1.0966 0.1172 -0.0532
F24 F 1.4606(2) 0.2360(3) 0.06139(9)
C30 C 0.9504(3) 0.0056(3) 0.18468(9)
H13 H 1.0017 -0.0616 0.2112
C31 C 1.0481(3) 0.2332(3) 0.02727(9)
C32 C 0.9596(3) 0.0433(3) 0.04719(8)
C33 C 0.5187(3) 0.6452(3) 0.07766(10)
C34 C 1.1918(3) 0.1861(3) 0.05614(10)
C35 C 1.2192(3) 0.3000(3) 0.07859(11)
C36 C 1.3726(4) 0.2564(4) 0.09808(13)
F25 F 0.3767(2) 0.6377(2) 0.01280(7)
F26 F 0.3557(3) 0.8370(2) 0.02640(8)
F27 F 0.2694(2) 0.7292(3) 0.07603(8)
C37 C 0.3769(4) 0.7132(3) 0.04771(12)
C38 C 1.3262(3) -0.2629(3) 0.30151(14)
H14 H 1.4181 -0.2949 0.2859
H15 H 1.2755 -0.3166 0.2923
H16 H 1.3420 -0.2758 0.3373
C39 C 1.3043(4) -0.0468(4) 0.25193(17)
H17 H 1.3997 -0.1132 0.2442
H18 H 1.3113 0.0290 0.2673
H19 H 1.2446 -0.0091 0.2216
F28 F 0.58943(16) 0.13835(15) 0.47709(5)
F29 F 0.50664(16) 0.17477(15) 0.54988(5)
F30 F 0.75015(17) 0.18662(16) 0.58085(5)
F31 F 0.83268(16) 0.15023(18) 0.50792(6)
F32 F 0.94169(19) -0.0640(2) 0.57582(7)
F33 F 0.6274(2) -0.1016(2) 0.56845(8)
F34 F 0.6894(2) -0.0204(2) 0.62811(6)
F35 F 0.8328(2) -0.09577(19) 0.51398(7)
F36 F 0.8267(3) -0.2226(2) 0.60825(9)
C40 C 0.5924(3) 0.2009(3) 0.51727(8)
C41 C 0.7452(3) 0.1270(3) 0.54023(9)
C42 C 0.7350(4) -0.0931(3) 0.59091(12)
C43 C 0.8117(3) -0.0327(3) 0.55461(11)
N1A N 1.1579(2) -0.1230(2) -0.19441(7)
C7A C 1.2347(3) -0.2142(3) -0.15634(9)
H2A H 1.3148 -0.2960 -0.1629
C15A C 1.2015(3) -0.1931(3) -0.10827(9)
H4A H 1.2589 -0.2587 -0.0823
C21A C 1.0828(3) -0.0747(3) -0.09809(9)
C22A C 1.0091(3) 0.0218(3) -0.13728(9)
H8A H 0.9312 0.1064 -0.1317
F14A F 0.80004(17) -0.08996(17) -0.09352(6)
F15A F 0.94578(19) -0.31076(16) 0.01456(5)
F16A F 1.05555(16) -0.32096(15) -0.05373(6)
F19A F 0.70318(17) -0.12453(18) -0.02564(6)
F20A F 0.8137(2) -0.4098(2) -0.04511(8)
F21A F 0.6212(3) -0.3554(2) -0.12174(8)
F22A F 0.5832(2) -0.1423(2) -0.12859(8)
F23A F 0.8653(2) -0.3398(2) -0.11657(7)
C28A C 0.9826(3) -0.1142(3) -0.01458(9)
C29A C 0.9432(3) -0.0691(3) 0.03154(9)
H12A H 0.9034 -0.1172 0.0532
F24A F 0.5394(2) -0.2360(3) -0.06139(9)
C30A C 1.0496(3) -0.0056(3) -0.18468(9)
H13A H 0.9983 0.0616 -0.2112
C31A C 0.9519(3) -0.2332(3) -0.02727(9)
C32A C 1.0404(3) -0.0433(3) -0.04719(8)
C34A C 0.8082(3) -0.1861(3) -0.05614(10)
C35A C 0.7808(3) -0.3000(3) -0.07859(11)
C36A C 0.6274(4) -0.2564(4) -0.09808(13)
N2A N 0.2716(2) 0.7697(2) 0.67019(7)
C9A C 0.4414(2) 0.5792(2) 0.53976(8)
C12A C 0.4028(3) 0.7495(3) 0.65694(9)
H3A H 0.4582 0.7767 0.6773
C14A C 0.3815(3) 0.6516(2) 0.58420(8)
C18A C 0.4857(2) 0.4364(3) 0.54420(8)
H6A H 0.4764 0.3914 0.5748
C19A C 0.1953(3) 0.7307(3) 0.64090(9)
H7A H 0.1024 0.7439 0.6501
C23A C 0.2454(3) 0.6724(3) 0.59807(9)
H9A H 0.1876 0.6467 0.5783
C25A C 0.4569(3) 0.6439(3) 0.49416(9)
C26A C 0.4607(3) 0.6906(3) 0.61473(9)
H10A H 0.5545 0.6770 0.6067
F28A F 0.41057(16) 0.86165(15) 0.52291(5)
F29A F 0.49336(16) 0.82523(15) 0.45012(5)
F30A F 0.24985(17) 0.81338(16) 0.41915(5)
F31A F 0.16732(16) 0.84977(18) 0.49208(6)
F32A F 0.05831(19) 1.0640(2) 0.42418(7)
F33A F 0.3726(2) 1.1016(2) 0.43155(8)
F34A F 0.3106(2) 1.0204(2) 0.37189(6)
F35A F 0.1672(2) 1.09577(19) 0.48602(7)
F36A F 0.1733(3) 1.2226(2) 0.39175(9)
C40A C 0.4076(3) 0.7991(3) 0.48273(8)
C41A C 0.2548(3) 0.8730(3) 0.45977(9)
C42A C 0.2650(4) 1.0931(3) 0.40909(12)
C43A C 0.1883(3) 1.0327(3) 0.44539(11)
Cu1A Cu 0.19556(3) 0.83381(3) 0.735873(10)
O1A O 0.18847(18) 0.65528(17) 0.75124(6)
F1A F 0.32564(16) 0.30993(16) 0.62099(5)
F2A F 0.06030(16) 0.46905(15) 0.63357(5)
F3A F 0.25137(15) 0.47859(14) 0.85559(5)
O2A O 0.19082(17) 0.01889(17) 0.71988(6)
F4A F 0.25128(17) 0.27852(16) 0.87986(5)
F5A F 0.55928(17) 0.30777(19) 0.84345(6)
F6A F 0.30097(16) 0.11902(14) 0.63968(5)
F7A F 0.01527(15) 0.29873(16) 0.66641(5)
O3A O 0.42081(19) 0.55556(19) 0.77369(7)
F8A F 0.15446(18) 0.30503(18) 0.55049(5)
F9A F 0.52202(19) 0.14893(16) 0.88823(6)
C1A C 0.3040(2) 0.4127(2) 0.76015(9)
F10A F 0.04570(19) 0.18678(17) 0.58519(6)
C2A C 0.2545(3) 0.2513(2) 0.65045(9)
O4A O 0.4160(2) -0.08426(18) 0.74942(7)
C3A C 0.3169(2) 0.3122(2) 0.79900(8)
C4A C 0.3190(3) 0.1862(2) 0.78949(9)
H1A H 0.3331 0.1167 0.8161
C5A C 0.3206(3) 0.3402(3) 0.85190(9)
C6A C 0.3074(3) 0.5522(3) 0.76348(8)
C8A C 0.3009(2) 0.1596(2) 0.74185(9)
C10A C 0.2824(2) 0.2624(2) 0.70327(8)
C11A C 0.4723(3) 0.2874(3) 0.87602(9)
C13A C 0.0542(3) 0.3090(3) 0.58207(10)
C16A C 0.3059(3) 0.0183(3) 0.73594(8)
C17A C 0.2858(3) 0.3857(3) 0.71290(9)
H5A H 0.2754 0.4539 0.6862
C20A C 0.0954(3) 0.3319(3) 0.63363(9)
F11A F -0.0821(2) 0.54226(18) 0.54843(6)
O5A O -0.03805(19) 0.92215(19) 0.70956(7)
F12A F -0.1238(2) 0.3842(2) 0.51904(7)
F13A F -0.19232(19) 0.4407(2) 0.59114(7)
N3A N -0.2416(2) 1.1164(3) 0.71464(9)
C24A C -0.0901(3) 0.4230(3) 0.55996(11)
C27A C -0.1121(3) 1.0467(3) 0.69909(9)
H11A H -0.0735 1.0973 0.6782
F17A F 0.37729(19) 0.3596(2) 0.95237(6)
F18A F 0.46067(19) 0.48686(17) 0.90844(7)
C33A C 0.4813(3) 0.3548(3) 0.92234(10)
F25A F 0.6233(2) 0.3623(2) 0.98720(7)
F26A F 0.6443(3) 0.1630(2) 0.97360(8)
F27A F 0.7306(2) 0.2708(3) 0.92397(8)
C37A C 0.6231(4) 0.2868(3) 0.95229(12)
C38A C -0.3262(3) 1.2629(3) 0.69849(14)
H14A H -0.4181 1.2949 0.7141
H15A H -0.2755 1.3166 0.7077
H16A H -0.3420 1.2758 0.6627
C39A C -0.3043(4) 1.0468(4) 0.74807(17)
H17A H -0.3997 1.1132 0.7558
H18A H -0.3113 0.9710 0.7327
H19A H -0.2446 1.0091 0.7784
Cu1_2 Cu 0.80444(3) 1.16619(3) 0.264127(10)
Cu1A_2 Cu 0.19556(3) -0.16619(3) 0.735873(10)
Cu1A_3 Cu 1.19556(3) -0.16619(3) -0.264127(10)
O2_2 O 0.80918(17) -0.01889(17) 0.28012(6)
O2A_2 O 0.19082(17) 1.01889(17) 0.71988(6)
N1A_2 N 0.1579(2) 0.8770(2) 0.80559(7)
loop_
_geom_bond_atom_site_label_1
_geom_bond_atom_site_label_2
_geom_bond_site_symmetry_1
_geom_bond_site_symmetry_2
Cu1 O1 1_555 1_555
O1 C6 1_555 1_555
F1 C2 1_555 1_555
F2 C20 1_555 1_555
F3 C5 1_555 1_555
O2 C16 1_555 1_555
F4 C5 1_555 1_555
F5 C11 1_555 1_555
F6 C2 1_555 1_555
F7 C20 1_555 1_555
O3 C6 1_555 1_555
N1 Cu1 1_555 1_555
F8 C13 1_555 1_555
F9 C11 1_555 1_555
C1 C3 1_555 1_555
N2 Cu1 1_555 1_555
F10 C13 1_555 1_555
C2 C10 1_555 1_555
O4 C16 1_555 1_555
C3 C4 1_555 1_555
C4 H1 1_555 1_555
C5 C3 1_555 1_555
C6 C1 1_555 1_555
C7 N1 1_555 1_555
H2 C7 1_555 1_555
C8 C4 1_555 1_555
C9 C14 1_555 1_555
C10 C8 1_555 1_555
C11 C5 1_555 1_555
C12 N2 1_555 1_555
H3 C12 1_555 1_555
C13 C20 1_555 1_555
C14 C23 1_555 1_555
C15 C7 1_555 1_555
H4 C15 1_555 1_555
C16 C8 1_555 1_555
C17 C1 1_555 1_555
H5 C17 1_555 1_555
C18 C9 1_555 1_555
H6 C18 1_555 1_555
C19 N2 1_555 1_555
H7 C19 1_555 1_555
C20 C2 1_555 1_555
F11 C24 1_555 1_555
O5 Cu1 1_555 1_555
F12 C24 1_555 1_555
F13 C24 1_555 1_555
C21 C15 1_555 1_555
C22 C21 1_555 1_555
H8 C22 1_555 1_555
C23 C19 1_555 1_555
H9 C23 1_555 1_555
N3 C27 1_555 1_555
C24 C13 1_555 1_555
C25 C9 1_555 1_555
C26 C12 1_555 1_555
H10 C26 1_555 1_555
C27 O5 1_555 1_555
H11 C27 1_555 1_555
F14 C34 1_555 1_555
F15 C31 1_555 1_555
F16 C31 1_555 1_555
F17 C33 1_555 1_555
F18 C33 1_555 1_555
F19 C34 1_555 1_555
F20 C35 1_555 1_555
F21 C36 1_555 1_555
F22 C36 1_555 1_555
F23 C35 1_555 1_555
C28 C29 1_555 1_555
C29 H12 1_555 1_555
F24 C36 1_555 1_555
C30 N1 1_555 1_555
H13 C30 1_555 1_555
C31 C28 1_555 1_555
C32 C21 1_555 1_555
C33 C11 1_555 1_555
C34 C31 1_555 1_555
C35 C34 1_555 1_555
C36 C35 1_555 1_555
F25 C37 1_555 1_555
F26 C37 1_555 1_555
F27 C37 1_555 1_555
C37 C33 1_555 1_555
C38 N3 1_555 1_555
H14 C38 1_555 1_555
H15 C38 1_555 1_555
H16 C38 1_555 1_555
C39 N3 1_555 1_555
H17 C39 1_555 1_555
H18 C39 1_555 1_555
H19 C39 1_555 1_555
F28 C40 1_555 1_555
F29 C40 1_555 1_555
F30 C41 1_555 1_555
F31 C41 1_555 1_555
F32 C43 1_555 1_555
F33 C42 1_555 1_555
F34 C42 1_555 1_555
F35 C43 1_555 1_555
F36 C42 1_555 1_555
C40 C25 1_555 1_555
C41 C40 1_555 1_555
C42 C43 1_555 1_555
C43 C41 1_555 1_555
N4 C44 1_555 1_555
O6 C44 1_555 1_555
C44 H20 1_555 1_555
C45 N4 1_555 1_555
H21 C45 1_555 1_555
H22 C45 1_555 1_555
H23 C45 1_555 1_555
C46 N4 1_555 1_555
H24 C46 1_555 1_555
H25 C46 1_555 1_555
H26 C46 1_555 1_555
N1A C7A 1_555 1_555
C7A H2A 1_555 1_555
C15A C7A 1_555 1_555
H4A C15A 1_555 1_555
C21A C15A 1_555 1_555
C22A C21A 1_555 1_555
H8A C22A 1_555 1_555
F14A C34A 1_555 1_555
F15A C31A 1_555 1_555
F16A C31A 1_555 1_555
F19A C34A 1_555 1_555
F20A C35A 1_555 1_555
F21A C36A 1_555 1_555
F22A C36A 1_555 1_555
F23A C35A 1_555 1_555
C28A C29A 1_555 1_555
C29A C32 1_555 1_555
H12A C29A 1_555 1_555
F24A C36A 1_555 1_555
C30A N1A 1_555 1_555
H13A C30A 1_555 1_555
C31A C28A 1_555 1_555
C32A C29 1_555 1_555
C34A C31A 1_555 1_555
C35A C34A 1_555 1_555
C36A C35A 1_555 1_555
N2A C12A 1_555 1_555
C9A C14A 1_555 1_555
C12A H3A 1_555 1_555
C14A C23A 1_555 1_555
C18A C25 1_555 1_555
H6A C18A 1_555 1_555
C19A N2A 1_555 1_555
H7A C19A 1_555 1_555
C23A C19A 1_555 1_555
H9A C23A 1_555 1_555
C25A C18 1_555 1_555
C26A C12A 1_555 1_555
H10A C26A 1_555 1_555
F28A C40A 1_555 1_555
F29A C40A 1_555 1_555
F30A C41A 1_555 1_555
F31A C41A 1_555 1_555
F32A C43A 1_555 1_555
F33A C42A 1_555 1_555
F34A C42A 1_555 1_555
F35A C43A 1_555 1_555
F36A C42A 1_555 1_555
C40A C25A 1_555 1_555
C41A C40A 1_555 1_555
C42A C43A 1_555 1_555
C43A C41A 1_555 1_555
Cu1A N2A 1_555 1_555
O1A Cu1A 1_555 1_555
F1A C2A 1_555 1_555
F2A C20A 1_555 1_555
F3A C5A 1_555 1_555
O2A C16A 1_555 1_555
F4A C5A 1_555 1_555
F5A C11A 1_555 1_555
F6A C2A 1_555 1_555
F7A C20A 1_555 1_555
O3A C6A 1_555 1_555
F8A C13A 1_555 1_555
F9A C11A 1_555 1_555
C1A C3A 1_555 1_555
F10A C13A 1_555 1_555
C2A C10A 1_555 1_555
O4A C16A 1_555 1_555
C3A C4A 1_555 1_555
C4A H1A 1_555 1_555
C5A C3A 1_555 1_555
C6A O1A 1_555 1_555
C8A C4A 1_555 1_555
C10A C8A 1_555 1_555
C11A C5A 1_555 1_555
C13A C20A 1_555 1_555
C16A C8A 1_555 1_555
C17A C1A 1_555 1_555
H5A C17A 1_555 1_555
C20A C2A 1_555 1_555
F11A C24A 1_555 1_555
O5A Cu1A 1_555 1_555
F12A C24A 1_555 1_555
F13A C24A 1_555 1_555
N3A C27A 1_555 1_555
C24A C13A 1_555 1_555
C27A O5A 1_555 1_555
H11A C27A 1_555 1_555
F17A C33A 1_555 1_555
F18A C33A 1_555 1_555
C33A C11A 1_555 1_555
F25A C37A 1_555 1_555
F26A C37A 1_555 1_555
F27A C37A 1_555 1_555
C37A C33A 1_555 1_555
C38A N3A 1_555 1_555
H14A C38A 1_555 1_555
H15A C38A 1_555 1_555
H16A C38A 1_555 1_555
C39A N3A 1_555 1_555
H17A C39A 1_555 1_555
H18A C39A 1_555 1_555
H19A C39A 1_555 1_555
Cu1_2 O2 1_555 1_555
Cu1A_2 O2A 1_555 1_555
Cu1A_3 N1A 1_555 1_555
O2_2 Cu1 1_555 1_555
O2A_2 Cu1A 1_555 1_555
N1A_2 Cu1A 1_555 1_555
C10 C17 1_555 1_555
C14 C26 1_555 1_555
C22 C30 1_555 1_555
C28 C32 1_555 1_555
C21A C32A 1_555 1_555
C22A C30A 1_555 1_555
C28A C32A 1_555 1_555
C9A C18A 1_555 1_555
C9A C25A 1_555 1_555
C14A C26A 1_555 1_555
C1A C6A 1_555 1_555
C10A C17A 1_555 1_555

#END
