
#######################################################################
#
#                 Cambridge Crystallographic Data Centre
#                                CCDC 
#
#######################################################################
#
# If this CIF has been generated from an entry in the Cambridge 
# Structural Database, then it will include bibliographic, chemical, 
# crystal, experimental, refinement or atomic coordinate data resulting 
# from the CCDC's data processing and validation procedures.
#
#######################################################################

data_WONHOY
_symmetry_cell_setting           monoclinic
_symmetry_space_group_name_H-M   'P 21/n'
_symmetry_Int_Tables_number      14
_space_group_name_Hall           '-P 2yn'
loop_
_symmetry_equiv_pos_site_id
_symmetry_equiv_pos_as_xyz
1 x,y,z
2 1/2-x,1/2+y,1/2-z
3 -x,-y,-z
4 1/2+x,1/2-y,1/2+z
_cell_length_a                   8.7419(8)
_cell_length_b                   12.8229(13)
_cell_length_c                   15.1970(14)
_cell_angle_alpha                90
_cell_angle_beta                 99.536(2)
_cell_angle_gamma                90
_cell_volume                     1679.99
loop_
_atom_site_label
_atom_site_type_symbol
_atom_site_fract_x
_atom_site_fract_y
_atom_site_fract_z
Ag1 Ag 0.35379(6) 0.45075(5) 0.52835(3)
N1 N 0.1863(6) 0.4659(4) 0.4086(3)
N2 N -0.0059(6) 0.0681(4) 0.1570(4)
N3 N 0.2829(6) 0.3294(4) 0.3374(3)
H1 H 0.3505 0.3215 0.3849
C1 C 0.0777(8) 0.5418(5) 0.4076(5)
H2 H 0.0862 0.5871 0.4560
C2 C -0.0433(8) 0.5550(6) 0.3390(6)
H3 H -0.1147 0.6085 0.3404
C3 C -0.0571(9) 0.4888(6) 0.2694(5)
H4 H -0.1400 0.4955 0.2228
C4 C 0.0488(8) 0.4128(6) 0.2668(5)
H5 H 0.0394 0.3677 0.2182
C5 C 0.1730(7) 0.4020(5) 0.3375(4)
C6 C 0.2938(7) 0.2630(5) 0.2610(5)
H6 H 0.3989 0.2367 0.2664
H7 H 0.2732 0.3049 0.2071
C7 C 0.1817(7) 0.1707(5) 0.2514(4)
C8 C 0.1667(8) 0.1077(5) 0.3227(4)
H8 H 0.2238 0.1210 0.3788
C9 C 0.0652(8) 0.0240(5) 0.3096(5)
H9 H 0.0525 -0.0195 0.3568
C10 C -0.0160(7) 0.0066(5) 0.2260(5)
H10 H -0.0814 -0.0510 0.2171
C11 C 0.0935(7) 0.1491(5) 0.1709(4)
H11 H 0.1023 0.1925 0.1230
Ag1C Ag -0.14621(6) 0.04925(5) 0.02835(3)
N2C N 0.4941(6) 0.4319(4) 0.6570(4)
B1 B 0.1965(12) 0.1771(8) 0.5784(6)
F1 F 0.1291(9) 0.2550(5) 0.5257(4)
F2 F 0.1822(10) 0.1892(5) 0.6625(4)
F3 F 0.1455(12) 0.0882(5) 0.5467(5)
F4 F 0.3407(9) 0.1768(10) 0.5666(7)
S1 S 0.7113(5) 0.2390(3) 0.4720(3)
C12 C 0.602(3) 0.1198(16) 0.4586(16)
H12 H 0.5436 0.1128 0.5065
H13 H 0.6716 0.0618 0.4595
H14 H 0.5323 0.1210 0.4027
O1 O 0.5981(6) 0.3218(4) 0.4452(3)
C13 C 0.8101(10) 0.2257(8) 0.3736(6)
H15 H 0.8706 0.2871 0.3679
H16 H 0.7340 0.2172 0.3208
H17 H 0.8770 0.1658 0.3811
S2? S 0.6385(5) 0.2151(4) 0.4133(3)
C14? C 0.717(3) 0.138(2) 0.5046(14)
H18? H 0.6360 0.1194 0.5376
H19? H 0.7955 0.1769 0.5425
H20? H 0.7610 0.0763 0.4839
H21? H 0.7948 0.2673 0.3203
H22? H 0.8455 0.1575 0.3603
H23? H 0.8862 0.2582 0.4179
loop_
_geom_bond_atom_site_label_1
_geom_bond_atom_site_label_2
_geom_bond_site_symmetry_1
_geom_bond_site_symmetry_2
Ag1 N1 1_555 1_555
N1 C1 1_555 1_555
N2 C10 1_555 1_555
N3 H1 1_555 1_555
C1 H2 1_555 1_555
C2 C1 1_555 1_555
H3 C2 1_555 1_555
C3 C2 1_555 1_555
H4 C3 1_555 1_555
C4 C3 1_555 1_555
H5 C4 1_555 1_555
C5 N1 1_555 1_555
C6 N3 1_555 1_555
H6 C6 1_555 1_555
H7 C6 1_555 1_555
C7 C6 1_555 1_555
C8 C7 1_555 1_555
H8 C8 1_555 1_555
C9 C8 1_555 1_555
H9 C9 1_555 1_555
C10 C9 1_555 1_555
H10 C10 1_555 1_555
C11 N2 1_555 1_555
H11 C11 1_555 1_555
B1 F1 1_555 1_555
F2 B1 1_555 1_555
F3 B1 1_555 1_555
F4 B1 1_555 1_555
S1 C12 1_555 1_555
C12 H12 1_555 1_555
H13 C12 1_555 1_555
H14 C12 1_555 1_555
O1 S1 1_555 1_555
C13 S1 1_555 1_555
H15 C13 1_555 1_555
H16 C13 1_555 1_555
H17 C13 1_555 1_555
Ag1C N2 1_555 1_555
N2C Ag1 1_555 1_555
N3 C5 1_555 1_555
C4 C5 1_555 1_555
C7 C11 1_555 1_555

#END
