
#######################################################################
#
#                 Cambridge Crystallographic Data Centre
#                                CCDC 
#
#######################################################################
#
# If this CIF has been generated from an entry in the Cambridge 
# Structural Database, then it will include bibliographic, chemical, 
# crystal, experimental, refinement or atomic coordinate data resulting 
# from the CCDC's data processing and validation procedures.
#
#######################################################################

data_WONJIU
_symmetry_cell_setting           triclinic
_symmetry_space_group_name_H-M   'P -1'
_symmetry_Int_Tables_number      2
_space_group_name_Hall           '-P 1'
loop_
_symmetry_equiv_pos_site_id
_symmetry_equiv_pos_as_xyz
1 x,y,z
2 -x,-y,-z
_cell_length_a                   10.0375(5)
_cell_length_b                   10.3460(4)
_cell_length_c                   18.1680(8)
_cell_angle_alpha                87.3327(11)
_cell_angle_beta                 83.8644(12)
_cell_angle_gamma                77.4709(13)
_cell_volume                     1830.7
loop_
_atom_site_label
_atom_site_type_symbol
_atom_site_fract_x
_atom_site_fract_y
_atom_site_fract_z
Zn1 Zn -0.03851(4) 0.13161(4) 0.92674(2)
C1 C -0.4924(3) 0.3805(3) 1.03852(18)
H1 H -0.4873 0.3007 1.065
C2 C -0.3732(3) 0.4124(3) 1.00346(18)
C3 C -0.3814(3) 0.5340(3) 0.96546(18)
C4 C -0.2417(3) 0.3088(3) 1.0028(2)
C5 C 0.2052(3) 0.0499(3) 0.99737(18)
C6 C 0.3575(3) 0.0288(3) 0.99759(17)
C7 C 0.4208(3) -0.0725(3) 1.04392(17)
H2 H 0.3668 -0.1204 1.0739
C8 C 0.4385(3) 0.1033(3) 0.95364(17)
C9 C 0.4507(3) 0.2709(3) 0.85815(18)
H3 H 0.5114 0.2067 0.8258
H4 H 0.5053 0.3211 0.8813
C10 C 0.3456(4) 0.3619(3) 0.8151(2)
H5 H 0.3925 0.4106 0.7777
H6 H 0.2871 0.4256 0.8486
C11 C 0.2568(3) 0.2883(4) 0.77783(19)
H7 H 0.2139 0.2356 0.8148
H8 H 0.1846 0.3521 0.7565
C12 C 0.3784(4) 0.2471(4) 0.65035(19)
C13 C 0.3459(4) 0.3741(4) 0.6189(2)
H9 H 0.2898 0.4438 0.6453
C14 C 0.4000(5) 0.3919(5) 0.5476(2)
H10 H 0.3787 0.4755 0.5251
C15 C 0.4846(5) 0.2905(5) 0.5081(2)
H11 H 0.5197 0.3069 0.4599
C16 C 0.5184(4) 0.1642(5) 0.5390(2)
H12 H 0.5758 0.096 0.512
C17 C 0.4644(4) 0.1411(4) 0.61171(19)
C18 C 0.4722(4) 0.0252(4) 0.6603(2)
C19 C 0.3894(3) 0.0676(4) 0.72638(19)
C20 C 0.3698(4) -0.0218(4) 0.7844(2)
H13 H 0.3135 0.0055 0.8273
C21 C 0.4368(5) -0.1518(4) 0.7758(2)
H14 H 0.4246 -0.2132 0.8135
C22 C 0.5224(5) -0.1941(4) 0.7121(3)
H15 H 0.5685 -0.2823 0.7086
C23 C 0.5394(4) -0.1070(4) 0.6544(2)
H16 H 0.5955 -0.136 0.6116
C24 C -0.2562(4) 0.6810(3) 0.8938(2)
H17 H -0.3104 0.7576 0.9198
H18 H -0.2923 0.6764 0.8468
C25 C -0.1068(4) 0.6895(4) 0.8819(2)
H19 H -0.0735 0.6936 0.9298
H20 H -0.0997 0.7711 0.8548
C26 C -0.0156(4) 0.5743(4) 0.8402(2)
H21 H 0.0793 0.575 0.8456
H22 H -0.0344 0.4924 0.8626
C27 C -0.1218(4) 0.5159(4) 0.7293(2)
C28 C -0.2089(4) 0.4352(4) 0.7612(2)
H23 H -0.2139 0.4138 0.8115
C29 C -0.2865(4) 0.3891(4) 0.7149(3)
H24 H -0.3457 0.3358 0.7347
C30 C -0.2799(5) 0.4191(5) 0.6394(3)
H25 H -0.3344 0.3859 0.61
C31 C -0.1936(5) 0.4977(5) 0.6079(3)
H26 H -0.1897 0.5179 0.5574
C32 C -0.1127(4) 0.5462(4) 0.6525(2)
C33 C -0.0131(4) 0.6289(4) 0.6388(2)
C34 C 0.0426(5) 0.6864(5) 0.5752(3)
H27 H 0.0137 0.6765 0.5292
C35 C 0.1414(6) 0.7582(6) 0.5817(3)
H28 H 0.1799 0.7965 0.5396
C36 C 0.1840(5) 0.7739(5) 0.6500(3)
H29 H 0.2509 0.8228 0.6526
C37 C 0.1309(4) 0.7199(4) 0.7142(3)
H30 H 0.1596 0.7321 0.7599
C38 C 0.0323(4) 0.6460(4) 0.7077(2)
C39 C -0.0837(4) 0.0730(4) 0.7785(2)
H31 H -0.1511 0.034 0.8037
C40 C 0.0264(5) 0.1377(5) 0.6630(2)
H32 H 0.0195 0.1298 0.6112
H33 H 0.1169 0.095 0.6745
H34 H 0.009 0.2297 0.6749
C41 C -0.1660(6) 0.0189(6) 0.6664(3)
H35 H -0.1441 0.0292 0.614
H36 H -0.259 0.064 0.6799
H37 H -0.1558 -0.0735 0.6793
O1 O -0.1734(3) 0.2911(3) 0.93868(15)
O2 O -0.2107(3) 0.2420(3) 1.05779(16)
O3 O -0.2588(2) 0.5629(2) 0.93702(15)
O4 O 0.1383(2) 0.0114(2) 1.05370(12)
O5 O 0.1521(2) 0.1044(2) 0.94125(12)
O6 O -0.0098(3) 0.1191(3) 0.81556(13)
O7 O 0.3726(2) 0.2063(2) 0.91301(12)
N1 N 0.3343(3) 0.2024(3) 0.72013(15)
N2 N -0.0333(3) 0.5760(3) 0.76173(17)
N3 N -0.0736(3) 0.0752(4) 0.70591(18)
C1A C -0.5076(3) 0.6195(3) 0.96148(18)
H1A H -0.5127 0.6993 0.935
C2A C -0.6268(3) 0.5876(3) 0.99654(18)
C3A C -0.6186(3) 0.4660(3) 1.03454(18)
C4A C -0.7583(3) 0.6912(3) 0.9972(2)
C24A C -0.7438(4) 0.3190(3) 1.1062(2)
H17A H -0.6896 0.2424 1.0802
H18A H -0.7077 0.3236 1.1532
C25A C -0.8932(4) 0.3105(4) 1.1181(2)
H19A H -0.9265 0.3064 1.0702
H20A H -0.9003 0.2289 1.1452
C26A C -0.9844(4) 0.4257(4) 1.1598(2)
H21A H -1.0793 0.425 1.1544
H22A H -0.9656 0.5076 1.1374
C27A C -0.8782(4) 0.4841(4) 1.2707(2)
C28A C -0.7911(4) 0.5648(4) 1.2388(2)
H23A H -0.7861 0.5862 1.1885
C29A C -0.7135(4) 0.6109(4) 1.2851(3)
H24A H -0.6543 0.6642 1.2653
C30A C -0.7201(5) 0.5809(5) 1.3606(3)
H25A H -0.6656 0.6141 1.39
C31A C -0.8064(5) 0.5023(5) 1.3921(3)
H26A H -0.8103 0.4821 1.4426
C32A C -0.8873(4) 0.4538(4) 1.3475(2)
C33A C -0.9869(4) 0.3711(4) 1.3612(2)
C34A C -1.0426(5) 0.3136(5) 1.4248(3)
H27A H -1.0137 0.3235 1.4708
C35A C -1.1414(6) 0.2418(6) 1.4183(3)
H28A H -1.1799 0.2035 1.4604
C36A C -1.1840(5) 0.2261(5) 1.3500(3)
H29A H -1.2509 0.1772 1.3474
C37A C -1.1309(4) 0.2801(4) 1.2858(3)
H30A H -1.1596 0.2679 1.2401
C38A C -1.0323(4) 0.3540(4) 1.2923(2)
O1A O -0.8266(3) 0.7089(3) 1.06132(15)
O2A O -0.7893(3) 0.7580(3) 0.94221(16)
O3A O -0.7412(2) 0.4371(2) 1.06298(15)
N2A N -0.9667(3) 0.4240(3) 1.23827(17)
C5A C 0.7948(3) -0.0499(3) 1.00263(18)
C6A C 0.6425(3) -0.0288(3) 1.00241(17)
C7A C 0.5792(3) 0.0725(3) 0.95608(17)
H2A H 0.6332 0.1204 0.9261
C8A C 0.5615(3) -0.1033(3) 1.04636(17)
C9A C 0.5493(3) -0.2709(3) 1.14185(18)
H3A H 0.4886 -0.2067 1.1742
H4A H 0.4947 -0.3211 1.1187
C10A C 0.6544(4) -0.3619(3) 1.1849(2)
H5A H 0.6075 -0.4106 1.2223
H6A H 0.7129 -0.4256 1.1514
C11A C 0.7432(3) -0.2883(4) 1.22217(19)
H7A H 0.7861 -0.2356 1.1852
H8A H 0.8154 -0.3521 1.2435
C12A C 0.6216(4) -0.2471(4) 1.34965(19)
C13A C 0.6541(4) -0.3741(4) 1.3811(2)
H9A H 0.7102 -0.4438 1.3547
C14A C 0.6000(5) -0.3919(5) 1.4524(2)
H10A H 0.6213 -0.4755 1.4749
C15A C 0.5154(5) -0.2905(5) 1.4919(2)
H11A H 0.4803 -0.3069 1.5401
C16A C 0.4816(4) -0.1642(5) 1.4610(2)
H12A H 0.4242 -0.096 1.488
C17A C 0.5356(4) -0.1411(4) 1.38829(19)
C18A C 0.5278(4) -0.0252(4) 1.3397(2)
C19A C 0.6106(3) -0.0676(4) 1.27362(19)
C20A C 0.6302(4) 0.0218(4) 1.2156(2)
H13A H 0.6865 -0.0055 1.1727
C21A C 0.5632(5) 0.1518(4) 1.2242(2)
H14A H 0.5754 0.2132 1.1865
C22A C 0.4776(5) 0.1941(4) 1.2879(3)
H15A H 0.4315 0.2823 1.2914
C23A C 0.4606(4) 0.1070(4) 1.3456(2)
H16A H 0.4045 0.136 1.3884
O4A O 0.8617(2) -0.0114(2) 0.94630(12)
O5A O 0.8479(2) -0.1044(2) 1.05875(12)
O7A O 0.6274(2) -0.2063(2) 1.08699(12)
N1A N 0.6657(3) -0.2024(3) 1.27987(15)
Zn1A Zn -0.96149(4) 0.86839(4) 1.07326(2)
C39A C -0.9163(4) 0.9270(4) 1.2215(2)
H31A H -0.8489 0.966 1.1963
C40A C -1.0264(5) 0.8623(5) 1.3370(2)
H32A H -1.0195 0.8702 1.3888
H33A H -1.1169 0.905 1.3255
H34A H -1.009 0.7703 1.3251
C41A C -0.8340(6) 0.9811(6) 1.3336(3)
H35A H -0.8559 0.9708 1.386
H36A H -0.741 0.936 1.3201
H37A H -0.8442 1.0735 1.3207
O6A O -0.9902(3) 0.8809(3) 1.18444(13)
N3A N -0.9264(3) 0.9248(4) 1.29409(18)
Zn1_2 Zn 0.96149(4) 0.13161(4) 0.92674(2)
Zn1A_2 Zn 0.03851(4) -0.13161(4) 1.07326(2)
Zn1A_3 Zn 1.03851(4) -0.13161(4) 1.07326(2)
O4_2 O -0.8617(2) 1.0114(2) 1.05370(12)
O4A_2 O -0.1383(2) -0.0114(2) 0.94630(12)
O5A_2 O -1.1521(2) 0.8956(2) 1.05875(12)
loop_
_geom_bond_atom_site_label_1
_geom_bond_atom_site_label_2
_geom_bond_site_symmetry_1
_geom_bond_site_symmetry_2
Zn1 O1 1_555 1_555
C1 H1 1_555 1_555
C2 C1 1_555 1_555
C3 C2 1_555 1_555
C4 C2 1_555 1_555
C5 C6 1_555 1_555
C6 C7 1_555 1_555
C7 H2 1_555 1_555
C8 C6 1_555 1_555
C9 H3 1_555 1_555
H4 C9 1_555 1_555
C10 C9 1_555 1_555
H5 C10 1_555 1_555
H6 C10 1_555 1_555
C11 C10 1_555 1_555
H7 C11 1_555 1_555
H8 C11 1_555 1_555
C12 C13 1_555 1_555
C13 H9 1_555 1_555
C14 C13 1_555 1_555
H10 C14 1_555 1_555
C15 C14 1_555 1_555
H11 C15 1_555 1_555
C16 C15 1_555 1_555
H12 C16 1_555 1_555
C17 C12 1_555 1_555
C18 C17 1_555 1_555
C19 C18 1_555 1_555
C20 C19 1_555 1_555
H13 C20 1_555 1_555
C21 C20 1_555 1_555
H14 C21 1_555 1_555
C22 C21 1_555 1_555
H15 C22 1_555 1_555
C23 C18 1_555 1_555
H16 C23 1_555 1_555
C24 H17 1_555 1_555
H18 C24 1_555 1_555
C25 C24 1_555 1_555
H19 C25 1_555 1_555
H20 C25 1_555 1_555
C26 C25 1_555 1_555
H21 C26 1_555 1_555
H22 C26 1_555 1_555
C27 C28 1_555 1_555
C28 H23 1_555 1_555
C29 C28 1_555 1_555
H24 C29 1_555 1_555
C30 C29 1_555 1_555
H25 C30 1_555 1_555
C31 C30 1_555 1_555
H26 C31 1_555 1_555
C32 C27 1_555 1_555
C33 C32 1_555 1_555
C34 C33 1_555 1_555
H27 C34 1_555 1_555
C35 C34 1_555 1_555
H28 C35 1_555 1_555
C36 C35 1_555 1_555
H29 C36 1_555 1_555
C37 C36 1_555 1_555
H30 C37 1_555 1_555
C38 C33 1_555 1_555
C39 H31 1_555 1_555
C40 H32 1_555 1_555
H33 C40 1_555 1_555
H34 C40 1_555 1_555
C41 H35 1_555 1_555
H36 C41 1_555 1_555
H37 C41 1_555 1_555
O1 C4 1_555 1_555
O2 C4 1_555 1_555
O3 C3 1_555 1_555
O4 C5 1_555 1_555
O5 Zn1 1_555 1_555
O6 Zn1 1_555 1_555
O7 C8 1_555 1_555
N1 C11 1_555 1_555
N2 C26 1_555 1_555
N3 C39 1_555 1_555
C1A C3 1_555 1_555
H1A C1A 1_555 1_555
C2A C1A 1_555 1_555
C3A C1 1_555 1_555
C4A C2A 1_555 1_555
C24A H17A 1_555 1_555
H18A C24A 1_555 1_555
C25A C24A 1_555 1_555
H19A C25A 1_555 1_555
H20A C25A 1_555 1_555
C26A C25A 1_555 1_555
H21A C26A 1_555 1_555
H22A C26A 1_555 1_555
C27A C28A 1_555 1_555
C28A H23A 1_555 1_555
C29A C28A 1_555 1_555
H24A C29A 1_555 1_555
C30A C29A 1_555 1_555
H25A C30A 1_555 1_555
C31A C30A 1_555 1_555
H26A C31A 1_555 1_555
C32A C27A 1_555 1_555
C33A C32A 1_555 1_555
C34A C33A 1_555 1_555
H27A C34A 1_555 1_555
C35A C34A 1_555 1_555
H28A C35A 1_555 1_555
C36A C35A 1_555 1_555
H29A C36A 1_555 1_555
C37A C36A 1_555 1_555
H30A C37A 1_555 1_555
C38A C33A 1_555 1_555
O1A C4A 1_555 1_555
O2A C4A 1_555 1_555
O3A C3A 1_555 1_555
N2A C26A 1_555 1_555
C5A C6A 1_555 1_555
C6A C7A 1_555 1_555
C7A C8 1_555 1_555
H2A C7A 1_555 1_555
C8A C7 1_555 1_555
C9A H3A 1_555 1_555
H4A C9A 1_555 1_555
C10A C9A 1_555 1_555
H5A C10A 1_555 1_555
H6A C10A 1_555 1_555
C11A C10A 1_555 1_555
H7A C11A 1_555 1_555
H8A C11A 1_555 1_555
C12A C13A 1_555 1_555
C13A H9A 1_555 1_555
C14A C13A 1_555 1_555
H10A C14A 1_555 1_555
C15A C14A 1_555 1_555
H11A C15A 1_555 1_555
C16A C15A 1_555 1_555
H12A C16A 1_555 1_555
C17A C12A 1_555 1_555
C18A C17A 1_555 1_555
C19A C18A 1_555 1_555
C20A C19A 1_555 1_555
H13A C20A 1_555 1_555
C21A C20A 1_555 1_555
H14A C21A 1_555 1_555
C22A C21A 1_555 1_555
H15A C22A 1_555 1_555
C23A C18A 1_555 1_555
H16A C23A 1_555 1_555
O4A C5A 1_555 1_555
O5A C5A 1_555 1_555
O7A C8A 1_555 1_555
N1A C11A 1_555 1_555
Zn1A O1A 1_555 1_555
C39A H31A 1_555 1_555
C40A H32A 1_555 1_555
H33A C40A 1_555 1_555
H34A C40A 1_555 1_555
C41A H35A 1_555 1_555
H36A C41A 1_555 1_555
H37A C41A 1_555 1_555
O6A Zn1A 1_555 1_555
N3A C39A 1_555 1_555
Zn1_2 O4A 1_555 1_555
Zn1A_2 O4 1_555 1_555
Zn1A_3 O5A 1_555 1_555
O4_2 Zn1A 1_555 1_555
O4A_2 Zn1 1_555 1_555
O5A_2 Zn1A 1_555 1_555
C5 O5 1_555 1_555
C9 O7 1_555 1_555
C12 N1 1_555 1_555
C16 C17 1_555 1_555
C19 N1 1_555 1_555
C22 C23 1_555 1_555
C24 O3 1_555 1_555
C27 N2 1_555 1_555
C31 C32 1_555 1_555
C37 C38 1_555 1_555
C38 N2 1_555 1_555
C39 O6 1_555 1_555
C40 N3 1_555 1_555
C41 N3 1_555 1_555
C2A C3A 1_555 1_555
C24A O3A 1_555 1_555
C27A N2A 1_555 1_555
C31A C32A 1_555 1_555
C37A C38A 1_555 1_555
C38A N2A 1_555 1_555
C6A C8A 1_555 1_555
C9A O7A 1_555 1_555
C12A N1A 1_555 1_555
C16A C17A 1_555 1_555
C19A N1A 1_555 1_555
C22A C23A 1_555 1_555
C39A O6A 1_555 1_555
C40A N3A 1_555 1_555
C41A N3A 1_555 1_555

#END
