
#######################################################################
#
#                 Cambridge Crystallographic Data Centre
#                                CCDC 
#
#######################################################################
#
# If this CIF has been generated from an entry in the Cambridge 
# Structural Database, then it will include bibliographic, chemical, 
# crystal, experimental, refinement or atomic coordinate data resulting 
# from the CCDC's data processing and validation procedures.
#
#######################################################################

data_WONKEQ
_symmetry_cell_setting           orthorhombic
_symmetry_space_group_name_H-M   'P 21 21 21'
_symmetry_Int_Tables_number      19
_space_group_name_Hall           'P 2ac 2ab'
loop_
_symmetry_equiv_pos_site_id
_symmetry_equiv_pos_as_xyz
1 x,y,z
2 1/2-x,-y,1/2+z
3 1/2+x,1/2-y,-z
4 -x,1/2+y,1/2-z
_cell_length_a                   26.3733(8)
_cell_length_b                   8.7566(2)
_cell_length_c                   17.2143(6)
_cell_angle_alpha                90
_cell_angle_beta                 90
_cell_angle_gamma                90
_cell_volume                     3975.48
loop_
_atom_site_label
_atom_site_type_symbol
_atom_site_fract_x
_atom_site_fract_y
_atom_site_fract_z
Ag1 Ag 0.24756(5) -0.2632(1) 0.00667(6)
Ag2 Ag 0.50090(3) 0.42828(6) -0.65715(6)
N1 N 0.2018(3) -0.3262(8) -0.0914(4)
N2 N 0.2829(3) -0.1714(9) -0.8906(4)
N3 N 0.4359(2) 0.2653(8) -0.6481(5)
N4 N 0.0685(3) -0.7760(9) -0.3554(5)
C1 C 0.2795(3) -0.1793(8) -0.5518(5)
C2 C 0.3025(3) -0.2963(9) -0.5075(4)
C3 C 0.3526(3) -0.3476(10) -0.5237(5)
C4 C 0.3751(3) -0.460(1) -0.4820(5)
C5 C 0.3473(3) -0.530(1) -0.4183(5)
C6 C 0.3005(3) -0.481(1) -0.4009(5)
C7 C 0.2763(3) -0.3665(9) -0.4443(4)
C8 C 0.2261(3) -0.3165(9) -0.4287(5)
C9 C 0.2033(3) -0.2026(9) -0.4730(4)
C10 C 0.1517(3) -0.1518(9) -0.4588(5)
C11 C 0.1313(3) -0.0373(10) -0.5008(5)
C12 C 0.1585(3) 0.033(1) -0.5598(5)
C13 C 0.2059(3) -0.0111(9) -0.5775(5)
C14 C 0.2307(3) -0.1303(9) -0.5354(4)
C15 C 0.3073(3) -0.1107(10) -0.6193(5)
C16 C 0.3471(3) -0.0131(10) -0.6100(5)
C17 C 0.3712(3) 0.051(1) -0.6733(5)
C18 C 0.3570(3) 0.013(1) -0.7472(4)
C19 C 0.3167(3) -0.0870(9) -0.7572(5)
C20 C 0.2925(3) -0.1498(8) -0.6935(5)
C21 C 0.2992(3) -0.131(1) -0.8342(5)
C22 C 0.4088(3) 0.1661(9) -0.6600(5)
C23 C 0.1969(2) -0.3883(9) -0.3658(4)
C24 C 0.2082(3) -0.3536(10) -0.2877(5)
C25 C 0.1787(3) -0.4167(10) -0.2291(5)
C26 C 0.1397(3) -0.5227(9) -0.2446(5)
C27 C 0.1306(3) -0.556(1) -0.3212(5)
C28 C 0.1580(3) -0.4926(10) -0.3806(5)
C29 C 0.1912(3) -0.3720(9) -0.1509(5)
C30 C 0.0942(3) -0.6749(10) -0.3391(5)
H1 H 0.3706 -0.3010 -0.5650
H2 H 0.4082 -0.4938 -0.4945
H3 H 0.3621 -0.6078 -0.3880
H4 H 0.2836 -0.5274 -0.3592
H5 H 0.2233 0.0370 -0.6196
H6 H 0.1433 0.1145 -0.5881
H7 H 0.0974 -0.0040 -0.4892
H8 H 0.1321 -0.2001 -0.4197
H9 H 0.1504 -0.5203 -0.4326
H10 H 0.2360 -0.2887 -0.2751
H11 H 0.1205 -0.5675 -0.2040
H12 H 0.3744 0.0544 -0.7905
H13 H 0.2660 -0.2210 -0.7008
H14 H 0.3581 0.0120 -0.5586
Ag1_2 Ag 0.24756(5) -0.2632(1) -0.99333(6)
Ag2B Ag 0.00090(3) -0.92828(6) -0.34285(6)
N2_2 N 0.2829(3) -0.1714(9) 0.1094(4)
N4B N 0.5685(3) 0.2760(9) -0.6446(5)
S1 S 0.49835(9) 0.2852(2) -0.8521(1)
F4 F 0.4563(2) 0.4447(9) -0.9613(4)
F5 F 0.4938(3) 0.2463(7) -1.0002(3)
F6 F 0.5374(2) 0.4375(9) -0.9652(4)
O6 O 0.4532(2) 0.1919(9) -0.8460(5)
O7 O 0.5009(3) 0.4190(6) -0.8067(3)
O8 O 0.5436(3) 0.199(1) -0.8514(5)
C38 C 0.4975(4) 0.3591(9) -0.9512(5)
S2 S 0.31913(8) -0.4496(2) -0.1500(1)
F1 F 0.3956(2) -0.5287(10) -0.2367(4)
F2 F 0.3927(3) -0.6461(8) -0.1285(5)
F3 F 0.4162(2) -0.410(1) -0.1327(5)
O3 O 0.3164(2) -0.3086(7) -0.1908(3)
O4 O 0.2904(2) -0.5700(7) -0.1842(4)
O5 O 0.3156(3) -0.4369(8) -0.0654(4)
C37 C 0.3837(4) -0.513(1) -0.1620(7)
O1 O 0.1584(3) -0.0721(10) 0.0774(5)
C31 C 0.1640(4) -0.087(2) 0.2152(7)
C32 C 0.1452(4) -0.015(1) 0.1402(6)
C33 C 0.1110(4) 0.118(2) 0.1467(8)
H15 H 0.2000 -0.0853 0.2166
H16 H 0.1507 -0.0337 0.2585
H17 H 0.1529 -0.1914 0.2175
H18 H 0.1064 0.1416 0.1998
H19 H 0.0795 0.0928 0.1236
H20 H 0.1258 0.2017 0.1205
O2 O 0.4967(6) -0.104(2) -0.023(1)
C34 C 0.5356(7) -0.257(2) -0.140(1)
C35 C 0.508(1) -0.171(3) -0.093(2)
C36 C 0.4805(8) -0.042(3) -0.157(1)
H21 H 0.4862 -0.0757 -0.2084
H22 H 0.4942 0.0549 -0.1488
H23 H 0.4445 -0.0400 -0.1476
H24 H 0.5588 -0.1907 -0.1681
H25 H 0.5143 -0.3047 -0.1779
H26 H 0.5540 -0.3297 -0.1127
loop_
_geom_bond_atom_site_label_1
_geom_bond_atom_site_label_2
_geom_bond_site_symmetry_1
_geom_bond_site_symmetry_2
Ag1 N1 1_555 1_555
Ag2 N3 1_555 1_555
S1 O6 1_555 1_555
S2 O3 1_555 1_555
F1 C37 1_555 1_555
F2 C37 1_555 1_555
F3 C37 1_555 1_555
F4 C38 1_555 1_555
F5 C38 1_555 1_555
F6 C38 1_555 1_555
O1 C32 1_555 1_555
O2 C35 1_555 1_555
O4 S2 1_555 1_555
O5 S2 1_555 1_555
O7 S1 1_555 1_555
O8 S1 1_555 1_555
N1 C29 1_555 1_555
N2 C21 1_555 1_555
N3 C22 1_555 1_555
N4 C30 1_555 1_555
C1 C2 1_555 1_555
C2 C3 1_555 1_555
C3 C4 1_555 1_555
C4 C5 1_555 1_555
C5 C6 1_555 1_555
C6 C7 1_555 1_555
C7 C2 1_555 1_555
C8 C7 1_555 1_555
C9 C8 1_555 1_555
C10 C9 1_555 1_555
C11 C10 1_555 1_555
C12 C11 1_555 1_555
C13 C12 1_555 1_555
C14 C1 1_555 1_555
C15 C1 1_555 1_555
C16 C15 1_555 1_555
C17 C16 1_555 1_555
C18 C17 1_555 1_555
C19 C18 1_555 1_555
C20 C15 1_555 1_555
C21 C19 1_555 1_555
C22 C17 1_555 1_555
C23 C8 1_555 1_555
C24 C23 1_555 1_555
C25 C24 1_555 1_555
C26 C25 1_555 1_555
C27 C26 1_555 1_555
C28 C23 1_555 1_555
C29 C25 1_555 1_555
C30 C27 1_555 1_555
C31 C32 1_555 1_555
C32 C33 1_555 1_555
C33 H18 1_555 1_555
C34 C35 1_555 1_555
C35 C36 1_555 1_555
C36 H21 1_555 1_555
C37 S2 1_555 1_555
C38 S1 1_555 1_555
H1 C3 1_555 1_555
H2 C4 1_555 1_555
H3 C5 1_555 1_555
H4 C6 1_555 1_555
H5 C13 1_555 1_555
H6 C12 1_555 1_555
H7 C11 1_555 1_555
H8 C10 1_555 1_555
H9 C28 1_555 1_555
H10 C24 1_555 1_555
H11 C26 1_555 1_555
H12 C18 1_555 1_555
H13 C20 1_555 1_555
H14 C16 1_555 1_555
H15 C31 1_555 1_555
H16 C31 1_555 1_555
H17 C31 1_555 1_555
H19 C33 1_555 1_555
H20 C33 1_555 1_555
H22 C36 1_555 1_555
H23 C36 1_555 1_555
H24 C34 1_555 1_555
H25 C34 1_555 1_555
H26 C34 1_555 1_555
Ag1_2 N2 1_555 1_555
Ag2B N4 1_555 1_555
N2_2 Ag1 1_555 1_555
N4B Ag2 1_555 1_555
C9 C14 1_555 1_555
C13 C14 1_555 1_555
C19 C20 1_555 1_555
C27 C28 1_555 1_555

#END
