
#######################################################################
#
#                 Cambridge Crystallographic Data Centre
#                                CCDC 
#
#######################################################################
#
# If this CIF has been generated from an entry in the Cambridge 
# Structural Database, then it will include bibliographic, chemical, 
# crystal, experimental, refinement or atomic coordinate data resulting 
# from the CCDC's data processing and validation procedures.
#
#######################################################################

data_WONPUL
_symmetry_cell_setting           triclinic
_symmetry_space_group_name_H-M   'P -1'
_symmetry_Int_Tables_number      2
_space_group_name_Hall           '-P 1'
loop_
_symmetry_equiv_pos_site_id
_symmetry_equiv_pos_as_xyz
1 x,y,z
2 -x,-y,-z
_cell_length_a                   8.84380(10)
_cell_length_b                   9.0751(15)
_cell_length_c                   12.178(2)
_cell_angle_alpha                74.427(3)
_cell_angle_beta                 78.403(13)
_cell_angle_gamma                80.053(11)
_cell_volume                     914.951
loop_
_atom_site_label
_atom_site_type_symbol
_atom_site_fract_x
_atom_site_fract_y
_atom_site_fract_z
Pb1 Pb 0.22261(8) 0.22372(8) 0.10800(6)
O1 O 0.3203(15) 0.4829(15) 0.0830(12)
H1 H 0.3303 0.5525 0.0089
O2 O 0.0175(15) 0.0417(14) 0.0997(12)
H2 H -0.0524 0.0703 0.0455
Cl1 Cl 0.4857(5) 0.1043(5) -0.1654(4)
O4 O 0.5913(17) 0.1203(15) -0.0939(13)
O5 O 0.3298(12) 0.1310(12) -0.1160(10)
O6 O 0.5250(15) 0.2017(14) -0.2792(11)
O7 O 0.5128(14) -0.0538(14) -0.1735(12)
Cl2 Cl -0.1114(5) 0.4982(5) 0.1910(4)
O8 O -0.0405(14) 0.3415(14) 0.1953(12)
O9 O -0.0490(16) 0.6044(14) 0.0884(12)
O10 O -0.2697(19) 0.4990(19) 0.1895(17)
O11 O -0.101(2) 0.5436(19) 0.2896(16)
N1 N 0.2836(17) 0.2748(17) 0.2850(14)
N2 N 0.1468(17) 0.0243(18) 0.2850(14)
C1 C 0.359(2) 0.524(2) 0.1741(17)
H5 H 0.2913 0.6195 0.1860
H6 H 0.4677 0.5469 0.1541
C2 C 0.341(2) 0.401(2) 0.2853(18)
C3 C 0.388(2) 0.415(2) 0.3805(18)
H7 H 0.4318 0.5051 0.3759
C4 C 0.376(2) 0.307(2) 0.4824(19)
H8 H 0.4045 0.3210 0.5496
C5 C 0.315(2) 0.167(2) 0.4818(18)
C6 C 0.269(2) 0.160(2) 0.3862(17)
C7 C 0.201(2) 0.026(2) 0.3848(18)
C8 C 0.190(2) -0.097(2) 0.4804(18)
C9 C 0.249(2) -0.088(2) 0.5801(18)
H9 H 0.2462 -0.1730 0.6456
C10 C 0.309(2) 0.039(2) 0.5827(18)
H10 H 0.3453 0.0433 0.6497
C11 C 0.079(2) -0.096(2) 0.2842(18)
C12 C 0.070(2) -0.230(2) 0.3849(18)
H11 H 0.0248 -0.3180 0.3840
C13 C 0.126(2) -0.224(2) 0.4765(18)
H12 H 0.1220 -0.3098 0.5417
C14 C 0.023(2) -0.104(2) 0.1857(18)
H13 H -0.0821 -0.1362 0.2094
H14 H 0.0919 -0.1840 0.1508
Pb1A Pb 0.77739(8) -0.22372(8) -0.10800(6)
Pb1A_2 Pb -0.22261(8) 0.77628(8) -0.10800(6)
O7A O 0.4872(14) 0.0538(14) 0.1735(12)
O9A O 0.0490(16) 0.3956(14) -0.0884(12)
O3 O 0.7315(18) 0.2419(18) 0.0766(15)
H3 H 0.8028 0.2464 0.0977
H4 H 0.6612 0.2203 0.1020
loop_
_geom_bond_atom_site_label_1
_geom_bond_atom_site_label_2
_geom_bond_site_symmetry_1
_geom_bond_site_symmetry_2
Pb1 O1 1_555 1_555
O1 H1 1_555 1_555
O2 Pb1 1_555 1_555
H2 O2 1_555 1_555
O3 H3 1_555 1_555
H4 O3 1_555 1_555
Cl1 O4 1_555 1_555
O5 Pb1 1_555 1_555
O6 Cl1 1_555 1_555
O7 Cl1 1_555 1_555
Cl2 O8 1_555 1_555
O8 Pb1 1_555 1_555
O9 Cl2 1_555 1_555
O10 Cl2 1_555 1_555
O11 Cl2 1_555 1_555
N1 Pb1 1_555 1_555
N2 Pb1 1_555 1_555
C1 O1 1_555 1_555
H5 C1 1_555 1_555
H6 C1 1_555 1_555
C2 N1 1_555 1_555
C3 C2 1_555 1_555
H7 C3 1_555 1_555
C4 C3 1_555 1_555
H8 C4 1_555 1_555
C5 C4 1_555 1_555
C6 N1 1_555 1_555
C7 N2 1_555 1_555
C8 C7 1_555 1_555
C9 C8 1_555 1_555
H9 C9 1_555 1_555
C10 C5 1_555 1_555
H10 C10 1_555 1_555
C11 N2 1_555 1_555
C12 C11 1_555 1_555
H11 C12 1_555 1_555
C13 C8 1_555 1_555
H12 C13 1_555 1_555
C14 O2 1_555 1_555
H13 C14 1_555 1_555
H14 C14 1_555 1_555
Pb1A O7 1_555 1_555
Pb1A_2 O9 1_555 1_555
O7A Pb1 1_555 1_555
O9A Pb1 1_555 1_555
Cl1 O5 1_555 1_555
C1 C2 1_555 1_555
C5 C6 1_555 1_555
C6 C7 1_555 1_555
C9 C10 1_555 1_555
C11 C14 1_555 1_555
C12 C13 1_555 1_555

#END
