
#######################################################################
#
#                 Cambridge Crystallographic Data Centre
#                                CCDC 
#
#######################################################################
#
# If this CIF has been generated from an entry in the Cambridge 
# Structural Database, then it will include bibliographic, chemical, 
# crystal, experimental, refinement or atomic coordinate data resulting 
# from the CCDC's data processing and validation procedures.
#
#######################################################################

data_WONRUO
_symmetry_cell_setting           monoclinic
_symmetry_space_group_name_H-M   'C 2/c'
_symmetry_Int_Tables_number      15
_space_group_name_Hall           '-C 2yn'
loop_
_symmetry_equiv_pos_site_id
_symmetry_equiv_pos_as_xyz
1 x,y,z
2 -x,y,1/2-z
3 1/2+x,1/2+y,z
4 1/2-x,1/2+y,1/2-z
5 -x,-y,-z
6 x,-y,1/2+z
7 1/2-x,1/2-y,-z
8 1/2+x,1/2-y,1/2+z
_cell_length_a                   11.760(2)
_cell_length_b                   14.750(3)
_cell_length_c                   11.690(2)
_cell_angle_alpha                90
_cell_angle_beta                 92.29(3)
_cell_angle_gamma                90
_cell_volume                     2026.13
loop_
_atom_site_label
_atom_site_type_symbol
_atom_site_fract_x
_atom_site_fract_y
_atom_site_fract_z
I1 I 0.13419(5) 0.23277(4) 0.14692(5)
Cu1 Cu 0.31791(8) 0.18978(6) 0.04508(7)
N1 N 0.4389(5) 0.1347(3) 0.1673(4)
N2 N 0.3148(5) 0.0537(4) 0.0028(5)
C1 C 0.2543(7) 0.0177(6) -0.0860(6)
H1 H 0.2148 0.0568 -0.1358
C2 C 0.2482(7) -0.0718(6) -0.1065(7)
H2 H 0.2055 -0.0942 -0.1690
C3 C 0.3059(7) -0.1292(5) -0.0337(7)
H3 H 0.3024 -0.1915 -0.0452
C4 C 0.3694(6) -0.0941(4) 0.0569(6)
H4 H 0.4100 -0.1322 0.1070
C5 C 0.3720(6) -0.0029(4) 0.0723(5)
C6 C 0.4400(6) 0.0430(4) 0.1667(5)
C7 C 0.5000 -0.0045(6) 0.2500
H5 H 0.5000 -0.0676 0.2500
C8 C 0.5000 0.1762(6) 0.2500
C9 C 0.5000 0.2766(6) 0.2500
C10 C 0.5215(7) 0.3245(5) 0.1519(7)
H6 H 0.5339 0.2935 0.0842
C11 C 0.5248(7) 0.4190(5) 0.1534(8)
H7 H 0.5439 0.4509 0.0883
C12 C 0.5000 0.4641(8) 0.2500
H8 H 0.5000 0.5271 0.2500
N1A N 0.5611(5) 0.1347(3) 0.3327(4)
N2A N 0.6852(5) 0.0537(4) 0.4972(5)
C1A C 0.7457(7) 0.0177(6) 0.5860(6)
H1A H 0.7852 0.0568 0.6358
C2A C 0.7518(7) -0.0718(6) 0.6065(7)
H2A H 0.7945 -0.0942 0.6690
C3A C 0.6941(7) -0.1292(5) 0.5337(7)
H3A H 0.6976 -0.1915 0.5452
C4A C 0.6306(6) -0.0941(4) 0.4431(6)
H4A H 0.5900 -0.1322 0.3930
C5A C 0.6280(6) -0.0029(4) 0.4277(5)
C6A C 0.5600(6) 0.0430(4) 0.3333(5)
C10A C 0.4785(7) 0.3245(5) 0.3481(7)
H6A H 0.4661 0.2935 0.4158
C11A C 0.4752(7) 0.4190(5) 0.3466(8)
H7A H 0.4561 0.4509 0.4117
I1A I 0.86581(5) 0.23277(4) 0.35308(5)
Cu1A Cu 0.68209(8) 0.18978(6) 0.45492(7)
I1F I 0.36581(5) 0.26723(4) -0.14692(5)
I1G I 0.63419(5) 0.26723(4) 0.64692(5)
Cu1F Cu 0.18209(8) 0.31022(6) -0.04508(7)
Cu1G Cu 0.81791(8) 0.31022(6) 0.54508(7)
loop_
_geom_bond_atom_site_label_1
_geom_bond_atom_site_label_2
_geom_bond_site_symmetry_1
_geom_bond_site_symmetry_2
I1 Cu1 1_555 1_555
Cu1 N1 1_555 1_555
N1 C6 1_555 1_555
N2 Cu1 1_555 1_555
C1 N2 1_555 1_555
H1 C1 1_555 1_555
C2 C1 1_555 1_555
H2 C2 1_555 1_555
C3 C2 1_555 1_555
H3 C3 1_555 1_555
C4 C3 1_555 1_555
H4 C4 1_555 1_555
C5 N2 1_555 1_555
C6 C5 1_555 1_555
C7 C6 1_555 1_555
H5 C7 1_555 1_555
C8 N1 1_555 1_555
C9 C8 1_555 1_555
C10 C9 1_555 1_555
H6 C10 1_555 1_555
C11 C10 1_555 1_555
H7 C11 1_555 1_555
C12 C11 1_555 1_555
H8 C12 1_555 1_555
N1A C8 1_555 1_555
N2A C1A 1_555 1_555
C1A H1A 1_555 1_555
C2A C1A 1_555 1_555
H2A C2A 1_555 1_555
C3A C2A 1_555 1_555
H3A C3A 1_555 1_555
C4A C3A 1_555 1_555
H4A C4A 1_555 1_555
C5A N2A 1_555 1_555
C6A C7 1_555 1_555
C10A C9 1_555 1_555
H6A C10A 1_555 1_555
C11A C12 1_555 1_555
H7A C11A 1_555 1_555
I1A Cu1A 1_555 1_555
Cu1A N1A 1_555 1_555
I1F Cu1 1_555 1_555
I1G Cu1A 1_555 1_555
Cu1F I1 1_555 1_555
Cu1G I1A 1_555 1_555
C4 C5 1_555 1_555
N1A C6A 1_555 1_555
N2A Cu1A 1_555 1_555
C4A C5A 1_555 1_555
C5A C6A 1_555 1_555
C10A C11A 1_555 1_555
I1F Cu1F 1_555 1_555
I1G Cu1G 1_555 1_555

#END
