
#######################################################################
#
#                 Cambridge Crystallographic Data Centre
#                                CCDC 
#
#######################################################################
#
# If this CIF has been generated from an entry in the Cambridge 
# Structural Database, then it will include bibliographic, chemical, 
# crystal, experimental, refinement or atomic coordinate data resulting 
# from the CCDC's data processing and validation procedures.
#
#######################################################################

data_WONRUN
_symmetry_cell_setting           monoclinic
_symmetry_space_group_name_H-M   'P 21/n'
_symmetry_Int_Tables_number      14
_space_group_name_Hall           '-P 2yn'
loop_
_symmetry_equiv_pos_site_id
_symmetry_equiv_pos_as_xyz
1 x,y,z
2 1/2-x,1/2+y,1/2-z
3 -x,-y,-z
4 1/2+x,1/2-y,1/2+z
_cell_length_a                   10.5773(12)
_cell_length_b                   10.8899(11)
_cell_length_c                   11.4306(9)
_cell_angle_alpha                90
_cell_angle_beta                 97.292(8)
_cell_angle_gamma                90
_cell_volume                     1305.99
loop_
_atom_site_label
_atom_site_type_symbol
_atom_site_fract_x
_atom_site_fract_y
_atom_site_fract_z
Ni1 Ni 0.0000 0.0000 0.5000
Cu1 Cu 0.5000 -0.5000 0.5000
S1 S 0.40316(10) -0.32048(10) 0.53497(10)
S2 S 0.31336(10) -0.57787(9) 0.41462(11)
C1 C 0.2519(3) -0.3442(3) 0.4592(3)
C2 C 0.2130(4) -0.4528(4) 0.4086(3)
C3 C 0.1732(3) -0.2372(4) 0.4553(3)
C4 C 0.0841(4) -0.4729(4) 0.3429(4)
C5 C 0.1272(5) 0.1323(4) 0.3349(4)
H1 H 0.1711 0.0626 0.3058
H2 H 0.1672 0.2069 0.3112
C6 C 0.2660(4) 0.1041(4) 0.5245(5)
H3 H 0.3224 0.1685 0.5036
H4 H 0.2969 0.0266 0.4975
C7 C 0.2686(5) 0.1004(4) 0.6570(5)
H5 H 0.2238 0.1720 0.6810
H6 H 0.3566 0.1069 0.6927
C8 C 0.2106(5) -0.0131(4) 0.7063(4)
H7 H 0.2476 -0.0857 0.6751
H8 H 0.2319 -0.0140 0.7914
C9 C 0.0107(5) -0.1304(4) 0.7155(4)
H9 H 0.0183 -0.1327 0.8009
H10 H 0.0536 -0.2021 0.6889
N1 N 0.1171(3) -0.1489(3) 0.4577(3)
N2 N 0.1360(3) 0.1269(3) 0.4650(3)
H11 H 0.1109 0.2013 0.4900
N3 N 0.0709(3) -0.0179(3) 0.6769(3)
H12 H 0.0387 0.0459 0.7153
F1 F 0.0864(3) -0.4989(4) 0.2314(3)
F2 F 0.0028(3) -0.3838(3) 0.3501(4)
F3 F 0.0256(3) -0.5709(3) 0.3815(3)
Cu1_2 Cu -0.5000 0.5000 0.5000
S1B S -0.40316(10) 0.32048(10) 0.46503(10)
S1B_2 S 0.59684(10) -0.67952(10) 0.46503(10)
S2B S -0.31336(10) 0.57787(9) 0.58538(11)
S2B_2 S 0.68664(10) -0.42213(9) 0.58538(11)
C1B C -0.2519(3) 0.3442(3) 0.5408(3)
C2B C -0.2130(4) 0.4528(4) 0.5914(3)
C3B C -0.1732(3) 0.2372(4) 0.5447(3)
C4B C -0.0841(4) 0.4729(4) 0.6571(4)
C5B C -0.1272(5) -0.1323(4) 0.6651(4)
H1B H -0.1711 -0.0626 0.6942
H2B H -0.1672 -0.2069 0.6888
C6B C -0.2660(4) -0.1041(4) 0.4755(5)
H3B H -0.3224 -0.1685 0.4964
H4B H -0.2969 -0.0266 0.5025
C7B C -0.2686(5) -0.1004(4) 0.3430(5)
H5B H -0.2238 -0.1720 0.3190
H6B H -0.3566 -0.1069 0.3073
C8B C -0.2106(5) 0.0131(4) 0.2937(4)
H7B H -0.2476 0.0857 0.3249
H8B H -0.2319 0.0140 0.2086
C9B C -0.0107(5) 0.1304(4) 0.2845(4)
H9B H -0.0183 0.1327 0.1991
H10B H -0.0536 0.2021 0.3111
N1B N -0.1171(3) 0.1489(3) 0.5423(3)
N2B N -0.1360(3) -0.1269(3) 0.5350(3)
H11B H -0.1109 -0.2013 0.5100
N3B N -0.0709(3) 0.0179(3) 0.3231(3)
H12B H -0.0387 -0.0459 0.2847
F1B F -0.0864(3) 0.4989(4) 0.7686(3)
F2B F -0.0028(3) 0.3838(3) 0.6499(4)
F3B F -0.0256(3) 0.5709(3) 0.6185(3)
loop_
_geom_bond_atom_site_label_1
_geom_bond_atom_site_label_2
_geom_bond_site_symmetry_1
_geom_bond_site_symmetry_2
Ni1 N1 1_555 1_555
Cu1 S1 1_555 1_555
S1 C1 1_555 1_555
S2 Cu1 1_555 1_555
C1 C2 1_555 1_555
C2 S2 1_555 1_555
C3 C1 1_555 1_555
C4 C2 1_555 1_555
C5 H1 1_555 1_555
H2 C5 1_555 1_555
C6 H3 1_555 1_555
H4 C6 1_555 1_555
C7 C6 1_555 1_555
H5 C7 1_555 1_555
H6 C7 1_555 1_555
C8 C7 1_555 1_555
H7 C8 1_555 1_555
H8 C8 1_555 1_555
C9 H9 1_555 1_555
H10 C9 1_555 1_555
N1 C3 1_555 1_555
N2 Ni1 1_555 1_555
H11 N2 1_555 1_555
N3 Ni1 1_555 1_555
H12 N3 1_555 1_555
F1 C4 1_555 1_555
F2 C4 1_555 1_555
F3 C4 1_555 1_555
Cu1_2 S1B 1_555 1_555
S1B C1B 1_555 1_555
S1B_2 Cu1 1_555 1_555
S2B Cu1_2 1_555 1_555
S2B_2 Cu1 1_555 1_555
C1B C2B 1_555 1_555
C2B S2B 1_555 1_555
C3B C1B 1_555 1_555
C4B C2B 1_555 1_555
C5B C9 1_555 1_555
H1B C5B 1_555 1_555
H2B C5B 1_555 1_555
C6B H3B 1_555 1_555
H4B C6B 1_555 1_555
C7B C6B 1_555 1_555
H5B C7B 1_555 1_555
H6B C7B 1_555 1_555
C8B C7B 1_555 1_555
H7B C8B 1_555 1_555
H8B C8B 1_555 1_555
C9B C5 1_555 1_555
H9B C9B 1_555 1_555
H10B C9B 1_555 1_555
N1B Ni1 1_555 1_555
N2B Ni1 1_555 1_555
H11B N2B 1_555 1_555
N3B Ni1 1_555 1_555
H12B N3B 1_555 1_555
F1B C4B 1_555 1_555
F2B C4B 1_555 1_555
F3B C4B 1_555 1_555
C5 N2 1_555 1_555
C6 N2 1_555 1_555
C8 N3 1_555 1_555
C9 N3 1_555 1_555
C3B N1B 1_555 1_555
C5B N2B 1_555 1_555
C6B N2B 1_555 1_555
C8B N3B 1_555 1_555
C9B N3B 1_555 1_555

#END
