
#######################################################################
#
#                 Cambridge Crystallographic Data Centre
#                                CCDC 
#
#######################################################################
#
# If this CIF has been generated from an entry in the Cambridge 
# Structural Database, then it will include bibliographic, chemical, 
# crystal, experimental, refinement or atomic coordinate data resulting 
# from the CCDC's data processing and validation procedures.
#
#######################################################################

data_WONSID
_symmetry_cell_setting           triclinic
_symmetry_space_group_name_H-M   'P -1'
_symmetry_Int_Tables_number      2
_space_group_name_Hall           '-P 1'
loop_
_symmetry_equiv_pos_site_id
_symmetry_equiv_pos_as_xyz
1 x,y,z
2 -x,-y,-z
_cell_length_a                   10.2778(2)
_cell_length_b                   11.0412(3)
_cell_length_c                   12.64560(10)
_cell_angle_alpha                70.080(4)
_cell_angle_beta                 66.429(3)
_cell_angle_gamma                77.346(6)
_cell_volume                     1230.86
loop_
_atom_site_label
_atom_site_type_symbol
_atom_site_fract_x
_atom_site_fract_y
_atom_site_fract_z
Zn1 Zn 1.07653(6) 0.23218(6) 0.26920(6)
F1 F 1.0655(4) 0.7896(5) 0.2575(4)
F2 F 1.1892(9) 0.5156(7) 0.5847(5)
O1 O 1.4541(4) 0.6437(4) 0.0301(4)
H1 H 1.5013 0.6829 -0.0383
O2 O 0.8432(4) 0.2555(4) 0.2083(4)
O3 O 0.8811(3) 0.2011(4) 0.3802(4)
O4 O 0.3732(4) 0.2422(4) 0.2039(4)
O5 O 0.1858(3) 0.2051(4) 0.3737(4)
O6 O 0.2593(4) 0.0830(6) 0.7623(4)
H2 H 0.2369 0.0620 0.8356
O7 O 0.4698(4) 0.0942(5) 0.7687(4)
N1 N 1.1553(4) 1.1084(4) 0.1669(4)
N2 N 1.1964(5) 1.0306(5) 0.0128(5)
N3 N 1.2863(4) 0.9660(4) 0.0739(4)
N4 N 1.1454(5) 0.6167(5) 0.0850(5)
N5 N 1.0034(5) 0.6282(5) 0.1023(5)
N6 N 1.0848(4) 0.4201(5) 0.1679(5)
C1 C 1.2608(5) 1.0145(5) 0.1641(5)
H3 H 1.3100 0.9866 0.2173
C2 C 1.1188(6) 1.1152(6) 0.0731(6)
H4 H 1.0464 1.1736 0.0529
C3 C 1.3936(5) 0.8626(5) 0.0348(6)
H5 H 1.4712 0.8550 0.0626
H6 H 1.4322 0.8873 -0.0524
C4 C 1.3356(5) 0.7287(5) 0.0811(5)
C5 C 1.2935(6) 0.6733(6) 0.2180(6)
C6 C 1.3906(9) 0.5873(7) 0.2664(7)
H7 H 1.4802 0.5642 0.2152
C7 C 1.3546(11) 0.5354(9) 0.3910(8)
H8 H 1.4194 0.4781 0.4232
C8 C 1.2262(12) 0.5699(10) 0.4622(9)
C9 C 1.1266(10) 0.6526(9) 0.4217(8)
H9 H 1.0369 0.6733 0.4742
C10 C 1.1647(7) 0.7045(7) 0.2993(6)
C11 C 1.2160(6) 0.7372(6) 0.0348(6)
H10 H 1.1454 0.8077 0.0553
H11 H 1.2554 0.7568 -0.0522
C12 C 1.1907(6) 0.4957(6) 0.1250(6)
H12 H 1.2832 0.4665 0.1237
C13 C 0.9746(6) 0.5065(6) 0.1499(6)
H13 H 0.8850 0.4818 0.1696
C14 C 0.8006(5) 0.2210(5) 0.3184(6)
C15 C 0.6453(5) 0.2012(5) 0.3904(5)
C16 C 0.5909(5) 0.1645(6) 0.5145(6)
H14 H 0.6509 0.1519 0.5570
C17 C 0.4463(5) 0.1462(6) 0.5769(5)
C18 C 0.3565(5) 0.1626(6) 0.5141(6)
H15 H 0.2604 0.1506 0.5556
C19 C 0.4110(5) 0.1973(5) 0.3887(5)
C20 C 0.5543(5) 0.2181(5) 0.3282(6)
H16 H 0.5901 0.2437 0.2445
C21 C 0.3189(5) 0.2161(5) 0.3158(6)
C22 C 0.3951(5) 0.1075(6) 0.7103(6)
Zn1_2 Zn 0.07653(6) 0.23218(6) 0.26920(6)
Zn1_3 Zn 1.07653(6) 1.23218(6) 0.26920(6)
O5_2 O 1.1858(3) 0.2051(4) 0.3737(4)
N1_2 N 1.1553(4) 0.1084(4) 0.1669(4)
loop_
_geom_bond_atom_site_label_1
_geom_bond_atom_site_label_2
_geom_bond_site_symmetry_1
_geom_bond_site_symmetry_2
Zn1 O3 1_555 1_555
F1 C10 1_555 1_555
F2 C8 1_555 1_555
O1 H1 1_555 1_555
O2 C14 1_555 1_555
O3 C14 1_555 1_555
O4 C21 1_555 1_555
O5 C21 1_555 1_555
O6 H2 1_555 1_555
O7 C22 1_555 1_555
N1 C1 1_555 1_555
N2 N3 1_555 1_555
N3 C1 1_555 1_555
N4 N5 1_555 1_555
N5 C13 1_555 1_555
N6 Zn1 1_555 1_555
C1 H3 1_555 1_555
C2 N1 1_555 1_555
H4 C2 1_555 1_555
C3 N3 1_555 1_555
H5 C3 1_555 1_555
H6 C3 1_555 1_555
C4 O1 1_555 1_555
C5 C4 1_555 1_555
C6 C5 1_555 1_555
H7 C6 1_555 1_555
C7 C6 1_555 1_555
H8 C7 1_555 1_555
C8 C7 1_555 1_555
C9 C8 1_555 1_555
H9 C9 1_555 1_555
C10 C5 1_555 1_555
C11 N4 1_555 1_555
H10 C11 1_555 1_555
H11 C11 1_555 1_555
C12 N4 1_555 1_555
H12 C12 1_555 1_555
C13 N6 1_555 1_555
H13 C13 1_555 1_555
C14 C15 1_555 1_555
C15 C16 1_555 1_555
C16 H14 1_555 1_555
C17 C16 1_555 1_555
C18 C17 1_555 1_555
H15 C18 1_555 1_555
C19 C18 1_555 1_555
C20 C15 1_555 1_555
H16 C20 1_555 1_555
C21 C19 1_555 1_555
C22 O6 1_555 1_555
Zn1_2 O5 1_555 1_555
Zn1_3 N1 1_555 1_555
O5_2 Zn1 1_555 1_555
N1_2 Zn1 1_555 1_555
N2 C2 1_555 1_555
N6 C12 1_555 1_555
C3 C4 1_555 1_555
C4 C11 1_555 1_555
C9 C10 1_555 1_555
C17 C22 1_555 1_555
C19 C20 1_555 1_555

#END
