
#######################################################################
#
#                 Cambridge Crystallographic Data Centre
#                                CCDC 
#
#######################################################################
#
# If this CIF has been generated from an entry in the Cambridge 
# Structural Database, then it will include bibliographic, chemical, 
# crystal, experimental, refinement or atomic coordinate data resulting 
# from the CCDC's data processing and validation procedures.
#
#######################################################################

data_WONSEZ
_symmetry_cell_setting           triclinic
_symmetry_space_group_name_H-M   'P -1'
_symmetry_Int_Tables_number      2
_space_group_name_Hall           '-P 1'
loop_
_symmetry_equiv_pos_site_id
_symmetry_equiv_pos_as_xyz
1 x,y,z
2 -x,-y,-z
_cell_length_a                   10.219(2)
_cell_length_b                   11.106(2)
_cell_length_c                   11.388(2)
_cell_angle_alpha                69.285(2)
_cell_angle_beta                 65.113(2)
_cell_angle_gamma                69.792(2)
_cell_volume                     1066.8
loop_
_atom_site_label
_atom_site_type_symbol
_atom_site_fract_x
_atom_site_fract_y
_atom_site_fract_z
Zn1 Zn -0.06811(5) 0.82847(5) 0.65759(5)
F1 F -0.4568(5) 0.3696(6) 0.9357(5)
F2 F -0.3462(6) 0.5273(5) 0.4713(4)
O1 O 0.0022(5) 0.1910(4) 0.8723(4)
H1 H 0.0438 0.2488 0.8653
O2 O 0.1322(3) 0.8451(4) 0.5361(3)
O3 O 0.1665(4) 0.8164(5) 0.7225(4)
O4 O 0.6473(4) 0.7984(4) 0.7279(4)
O5 O 0.8333(4) 0.8379(4) 0.5386(4)
N1 N -0.1707(4) -0.0607(4) 0.7927(4)
N2 N -0.3488(7) 0.0225(7) 0.9626(5)
N3 N -0.2224(6) 0.0563(4) 0.9314(5)
N4 N -0.1115(5) 0.4553(4) 0.9182(4)
N5 N -0.0521(5) 0.6356(4) 0.7797(4)
N6 N 0.0394(6) 0.4307(5) 0.8791(5)
C1 C -0.3118(7) -0.0496(7) 0.8791(6)
H2 H -0.3777 -0.0902 0.8793
C2 C -0.1196(7) 0.0085(6) 0.8305(7)
H3 H -0.0237 0.0217 0.7910
C3 C -0.2228(8) 0.1417(6) 1.0049(6)
H4 H -0.3244 0.1773 1.0556
H5 H -0.1713 0.0889 1.0678
C4 C -0.1530(7) 0.2497(6) 0.9181(6)
C5 C -0.2092(8) 0.3276(6) 0.7977(6)
C6 C -0.3503(9) 0.3786(7) 0.8132(6)
C7 C -0.4085(10) 0.4500(8) 0.7044(9)
H6 H -0.5094 0.4832 0.7185
C8 C -0.3034(9) 0.4643(6) 0.5800(6)
C9 C -0.1599(8) 0.4151(7) 0.5641(6)
H7 H -0.0908 0.4267 0.4782
C10 C -0.1089(10) 0.3461(6) 0.6727(6)
H8 H -0.0079 0.3139 0.6587
C11 C -0.1886(9) 0.3502(6) 1.0012(5)
H9 H -0.2947 0.3872 1.0325
H10 H -0.1573 0.3050 1.0784
C12 C -0.1616(6) 0.5771(5) 0.8564(5)
H11 H -0.2609 0.6161 0.8660
C13 C 0.0684(6) 0.5416(6) 0.7964(6)
H12 H 0.1641 0.5549 0.7525
C14 C 0.2139(5) 0.8318(5) 0.6009(5)
C15 C 0.3742(5) 0.8329(4) 0.5245(5)
C16 C 0.4333(5) 0.8449(5) 0.3884(5)
H13 H 0.3755 0.8469 0.3425
C17 C 0.5807(6) 0.8539(6) 0.3205(5)
H14 H 0.6208 0.8644 0.2284
C18 C 0.6670(5) 0.8472(5) 0.3898(5)
H15 H 0.7649 0.8543 0.3437
C19 C 0.6100(5) 0.8303(4) 0.5262(5)
C20 C 0.4627(5) 0.8233(4) 0.5928(5)
H16 H 0.4231 0.8118 0.6849
C21 C 0.7002(5) 0.8211(5) 0.6055(5)
Zn1_2 Zn -0.06811(5) -0.17153(5) 0.65759(5)
Zn1_3 Zn 0.93189(5) 0.82847(5) 0.65759(5)
O5_2 O -0.1667(4) 0.8379(4) 0.5386(4)
N1_2 N -0.1707(4) 0.9393(4) 0.7927(4)
loop_
_geom_bond_atom_site_label_1
_geom_bond_atom_site_label_2
_geom_bond_site_symmetry_1
_geom_bond_site_symmetry_2
Zn1 O2 1_555 1_555
F1 C6 1_555 1_555
F2 C8 1_555 1_555
O1 H1 1_555 1_555
O2 C14 1_555 1_555
O3 C14 1_555 1_555
O4 C21 1_555 1_555
O5 C21 1_555 1_555
N1 C1 1_555 1_555
N2 N3 1_555 1_555
N3 C2 1_555 1_555
N4 N6 1_555 1_555
N5 Zn1 1_555 1_555
N6 C13 1_555 1_555
C1 N2 1_555 1_555
H2 C1 1_555 1_555
C2 N1 1_555 1_555
H3 C2 1_555 1_555
C3 N3 1_555 1_555
H4 C3 1_555 1_555
H5 C3 1_555 1_555
C4 O1 1_555 1_555
C5 C4 1_555 1_555
C6 C5 1_555 1_555
C7 C6 1_555 1_555
H6 C7 1_555 1_555
C8 C7 1_555 1_555
C9 C8 1_555 1_555
H7 C9 1_555 1_555
C10 C5 1_555 1_555
H8 C10 1_555 1_555
C11 N4 1_555 1_555
H9 C11 1_555 1_555
H10 C11 1_555 1_555
C12 N4 1_555 1_555
H11 C12 1_555 1_555
C13 N5 1_555 1_555
H12 C13 1_555 1_555
C14 C15 1_555 1_555
C15 C16 1_555 1_555
C16 H13 1_555 1_555
C17 C16 1_555 1_555
H14 C17 1_555 1_555
C18 C17 1_555 1_555
H15 C18 1_555 1_555
C19 C18 1_555 1_555
C20 C15 1_555 1_555
H16 C20 1_555 1_555
C21 C19 1_555 1_555
Zn1_2 N1 1_555 1_555
Zn1_3 O5 1_555 1_555
O5_2 Zn1 1_555 1_555
N1_2 Zn1 1_555 1_555
N5 C12 1_555 1_555
C3 C4 1_555 1_555
C4 C11 1_555 1_555
C9 C10 1_555 1_555
C19 C20 1_555 1_555

#END
