
#######################################################################
#
#                 Cambridge Crystallographic Data Centre
#                                CCDC 
#
#######################################################################
#
# If this CIF has been generated from an entry in the Cambridge 
# Structural Database, then it will include bibliographic, chemical, 
# crystal, experimental, refinement or atomic coordinate data resulting 
# from the CCDC's data processing and validation procedures.
#
#######################################################################

data_WONXON
_symmetry_cell_setting           orthorhombic
_symmetry_space_group_name_H-M   'P 21 21 21'
_symmetry_Int_Tables_number      19
_space_group_name_Hall           'P 2ac 2ab'
loop_
_symmetry_equiv_pos_site_id
_symmetry_equiv_pos_as_xyz
1 x,y,z
2 1/2-x,-y,1/2+z
3 -x,1/2+y,1/2-z
4 1/2+x,1/2-y,-z
_cell_length_a                   7.4490(5)
_cell_length_b                   7.7741(6)
_cell_length_c                   29.3227(19)
_cell_angle_alpha                90
_cell_angle_beta                 90
_cell_angle_gamma                90
_cell_volume                     1698.06
loop_
_atom_site_label
_atom_site_type_symbol
_atom_site_fract_x
_atom_site_fract_y
_atom_site_fract_z
C1 C 0.9136(4) 0.5976(4) 0.85193(8)
H1 H 0.8757 0.7029 0.8386
C2 C 0.9806(4) 0.3295(4) 0.86148(9)
H2 H 0.9973 0.2105 0.8556
C3 C 1.0135(4) 0.4090(4) 0.90173(8)
H3 H 1.0580 0.3569 0.9288
C4 C 0.9726(4) 0.7137(4) 0.92921(9)
C5 C 0.8916(4) 0.8707(4) 0.92103(9)
H4 H 0.8378 0.8925 0.8922
C6 C 0.8882(4) 0.9960(4) 0.95428(9)
H5 H 0.8301 1.1021 0.9479
C7 C 0.9681(4) 0.9719(4) 0.99733(8)
C8 C 1.0506(4) 0.8127(4) 1.00444(9)
H6 H 1.1069 0.7912 1.0329
C9 C 1.0535(4) 0.6852(4) 0.97149(9)
H7 H 1.1104 0.5784 0.9777
C10 C 0.9582(4) 1.1067(4) 1.03337(8)
C11 C 1.0138(3) 1.0764(4) 1.07852(8)
H8 H 1.0692 0.9697 1.0857
C12 C 0.9905(4) 1.1963(4) 1.11269(9)
H9 H 1.0307 1.1724 1.1428
C13 C 0.8834(4) 1.2675(4) 1.02415(9)
H10 H 0.8480 1.2941 0.9938
C14 C 0.8595(4) 1.3897(4) 1.05825(8)
H11 H 0.8099 1.4989 1.0511
C15 C 0.9083(4) 1.3517(4) 1.10286(9)
C16 C 0.8095(3) 1.4351(4) 1.18074(8)
H12 H 0.8066 1.3225 1.1933
C17 C 0.8479(4) 1.6488(4) 1.13274(10)
H13 H 0.8753 1.7144 1.1063
C18 C 0.7832(4) 1.7091(4) 1.17292(9)
H14 H 0.7581 1.8263 1.1795
N1 N 0.9190(3) 0.4488(3) 0.83051(7)
N2 N 0.9701(3) 0.5795(3) 0.89587(6)
N3 N 0.7596(3) 1.5745(3) 1.20248(7)
N4 N 0.8660(3) 1.4730(3) 1.13783(8)
Cu1 Cu 0.83536(4) 0.42977(5) 0.765918(11)
O1 O 0.6992(2) 0.2148(2) 0.78100(5)
O2 O 0.9741(2) 0.0986(2) 0.75279(5)
O3 O 0.8284(3) -0.0353(2) 0.81805(5)
O4 O 0.6942(2) -0.0615(3) 0.74342(5)
O5 O 0.6203(3) 0.6126(3) 0.78490(6)
S1 S 0.79852(8) 0.04886(9) 0.77442(2)
H15 H 0.521(4) 0.586(4) 0.7763(8)
H16 H 0.636(3) 0.714(3) 0.7720(9)
N3A N 0.7404(3) 0.4255(3) 0.70248(7)
Cu1A Cu 0.66464(4) 1.57023(5) 1.265918(11)
Cu1B Cu 1.16464(4) -0.07023(5) 0.734082(11)
O2B O 1.0259(2) 0.5986(2) 0.74721(5)
loop_
_geom_bond_atom_site_label_1
_geom_bond_atom_site_label_2
_geom_bond_site_symmetry_1
_geom_bond_site_symmetry_2
C1 H1 1_555 1_555
C2 H2 1_555 1_555
C3 C2 1_555 1_555
H3 C3 1_555 1_555
C4 C5 1_555 1_555
C5 H4 1_555 1_555
C6 C5 1_555 1_555
H5 C6 1_555 1_555
C7 C6 1_555 1_555
C8 C7 1_555 1_555
H6 C8 1_555 1_555
C9 C4 1_555 1_555
H7 C9 1_555 1_555
C10 C7 1_555 1_555
C11 C10 1_555 1_555
H8 C11 1_555 1_555
C12 C11 1_555 1_555
H9 C12 1_555 1_555
C13 C10 1_555 1_555
H10 C13 1_555 1_555
C14 C13 1_555 1_555
H11 C14 1_555 1_555
C15 C12 1_555 1_555
C16 H12 1_555 1_555
C17 H13 1_555 1_555
C18 C17 1_555 1_555
H14 C18 1_555 1_555
N1 C1 1_555 1_555
N2 C1 1_555 1_555
N3 C16 1_555 1_555
N4 C15 1_555 1_555
Cu1 N1 1_555 1_555
O1 Cu1 1_555 1_555
O2 S1 1_555 1_555
O3 S1 1_555 1_555
O4 S1 1_555 1_555
O5 Cu1 1_555 1_555
S1 O1 1_555 1_555
H15 O5 1_555 1_555
H16 O5 1_555 1_555
N3A Cu1 1_555 1_555
Cu1A N3 1_555 1_555
Cu1B O2 1_555 1_555
O2B Cu1 1_555 1_555
C2 N1 1_555 1_555
C3 N2 1_555 1_555
C4 N2 1_555 1_555
C8 C9 1_555 1_555
C14 C15 1_555 1_555
C16 N4 1_555 1_555
C17 N4 1_555 1_555
C18 N3 1_555 1_555

#END
