
#######################################################################
#
#                 Cambridge Crystallographic Data Centre
#                                CCDC 
#
#######################################################################
#
# If this CIF has been generated from an entry in the Cambridge 
# Structural Database, then it will include bibliographic, chemical, 
# crystal, experimental, refinement or atomic coordinate data resulting 
# from the CCDC's data processing and validation procedures.
#
#######################################################################

data_WONXED
_symmetry_cell_setting           monoclinic
_symmetry_space_group_name_H-M   'P 21/n'
_symmetry_Int_Tables_number      14
_space_group_name_Hall           '-P 2yn'
loop_
_symmetry_equiv_pos_site_id
_symmetry_equiv_pos_as_xyz
1 x,y,z
2 1/2-x,1/2+y,1/2-z
3 -x,-y,-z
4 1/2+x,1/2-y,1/2+z
_cell_length_a                   10.2735(9)
_cell_length_b                   6.0763(5)
_cell_length_c                   19.7937(17)
_cell_angle_alpha                90
_cell_angle_beta                 93.162(1)
_cell_angle_gamma                90
_cell_volume                     1233.74
loop_
_atom_site_label
_atom_site_type_symbol
_atom_site_fract_x
_atom_site_fract_y
_atom_site_fract_z
Zn1 Zn 0.67219(4) 0.16823(7) 0.25871(2)
Br1 Br 0.44693(4) 0.82703(7) 0.12679(2)
Br2 Br 0.29446(4) 0.90900(7) -0.02407(2)
O1 O 0.5753(3) 0.3069(5) 0.17289(14)
O2 O 0.7382(3) 0.5281(5) 0.14391(14)
O3 O 0.4997(3) 0.0388(5) 0.28649(16)
O4 O 0.7340(3) 0.4512(5) 0.29207(14)
H1 H 0.771(4) 0.445(8) 0.3314(10)
N1 N 0.3949(4) -0.2524(7) 0.3285(2)
C1 C 0.6320(4) 0.4301(6) 0.13354(19)
C2 C 0.5628(4) 0.4655(6) 0.06396(19)
C3 C 0.4749(4) 0.6375(6) 0.05320(19)
C4 C 0.4133(4) 0.6727(6) -0.0098(2)
C5 C 0.4984(4) -0.1528(7) 0.3077(2)
H2 H 0.5762 -0.2314 0.3089
C6 C 0.2697(6) -0.1437(11) 0.3303(5)
H3 H 0.2739 -0.0031 0.3084
H4 H 0.2483 -0.1233 0.3765
H5 H 0.2040 -0.2326 0.3073
C7 C 0.4054(6) -0.4790(9) 0.3545(4)
H6 H 0.3550 -0.5758 0.3251
H7 H 0.3731 -0.4849 0.3991
H8 H 0.4951 -0.5243 0.3564
Zn1B Zn 0.32781(4) 0.83177(7) -0.25871(2)
Zn1A Zn 0.82781(4) 0.66823(7) 0.24129(2)
Zn1C Zn 0.17219(4) 0.33177(7) -0.24129(2)
Zn1A_2 Zn 0.82781(4) -0.33177(7) 0.24129(2)
Br1B Br 0.55307(4) 0.17297(7) -0.12679(2)
Br2B Br 0.70554(4) 0.09100(7) 0.02407(2)
O1B O 0.4247(3) 0.6931(5) -0.17289(14)
O2B O 0.2618(3) 0.4719(5) -0.14391(14)
O2A O 0.7618(3) 0.0281(5) 0.35609(14)
O2C O 0.2382(3) 0.9719(5) -0.35609(14)
O3B O 0.5003(3) 0.9612(5) -0.28649(16)
O4A O 0.7660(3) -0.0488(5) 0.20793(14)
O4B O 0.2660(3) 0.5488(5) -0.29207(14)
O4C O 0.2340(3) 1.0488(5) -0.20793(14)
H1A H 0.729(4) -0.055(8) 0.1686(10)
H1B H 0.229(4) 0.555(8) -0.3314(10)
H1C H 0.271(4) 1.055(8) -0.1686(10)
N1B N 0.6051(4) 1.2524(7) -0.3285(2)
C1B C 0.3680(4) 0.5699(6) -0.13354(19)
C2B C 0.4372(4) 0.5345(6) -0.06396(19)
C3B C 0.5251(4) 0.3625(6) -0.05320(19)
C4B C 0.5867(4) 0.3273(6) 0.0098(2)
C5B C 0.5016(4) 1.1528(7) -0.3077(2)
H2B H 0.4238 1.2314 -0.3089
C6B C 0.7303(6) 1.1437(11) -0.3303(5)
H3B H 0.7261 1.0031 -0.3084
H4B H 0.7517 1.1233 -0.3765
H5B H 0.7960 1.2326 -0.3073
C7B C 0.5946(6) 1.4790(9) -0.3545(4)
H6B H 0.6450 1.5758 -0.3251
H7B H 0.6269 1.4849 -0.3991
H8B H 0.5049 1.5243 -0.3564
O6 O 0.8812(12) 0.6770(18) 0.0298(6)
O5? O 0.9814(11) 0.5987(17) 0.0123(7)
loop_
_geom_bond_atom_site_label_1
_geom_bond_atom_site_label_2
_geom_bond_site_symmetry_1
_geom_bond_site_symmetry_2
Zn1 O1 1_555 1_555
Br1 C3 1_555 1_555
Br2 C4 1_555 1_555
O1 C1 1_555 1_555
O2 C1 1_555 1_555
O3 Zn1 1_555 1_555
O4 Zn1 1_555 1_555
H1 O4 1_555 1_555
N1 C5 1_555 1_555
C1 C2 1_555 1_555
C2 C3 1_555 1_555
C3 C4 1_555 1_555
C4 C2B 1_555 1_555
C5 O3 1_555 1_555
H2 C5 1_555 1_555
C6 N1 1_555 1_555
H3 C6 1_555 1_555
H4 C6 1_555 1_555
H5 C6 1_555 1_555
C7 N1 1_555 1_555
H6 C7 1_555 1_555
H7 C7 1_555 1_555
H8 C7 1_555 1_555
Zn1B O1B 1_555 1_555
Zn1A O2 1_555 1_555
Zn1C O2B 1_555 1_555
Zn1A_2 O4A 1_555 1_555
Br1B C3B 1_555 1_555
Br2B C4B 1_555 1_555
O1B C1B 1_555 1_555
O2B C1B 1_555 1_555
O2A Zn1 1_555 1_555
O2C Zn1B 1_555 1_555
O3B Zn1B 1_555 1_555
O4A Zn1 1_555 1_555
O4B Zn1B 1_555 1_555
O4C Zn1B 1_555 1_555
H1A O4A 1_555 1_555
H1B O4B 1_555 1_555
H1C O4C 1_555 1_555
N1B C5B 1_555 1_555
C1B C2B 1_555 1_555
C2B C3B 1_555 1_555
C3B C4B 1_555 1_555
C4B C2 1_555 1_555
C5B O3B 1_555 1_555
H2B C5B 1_555 1_555
C6B N1B 1_555 1_555
H3B C6B 1_555 1_555
H4B C6B 1_555 1_555
H5B C6B 1_555 1_555
C7B N1B 1_555 1_555
H6B C7B 1_555 1_555
H7B C7B 1_555 1_555
H8B C7B 1_555 1_555
O4 Zn1A 1_555 1_555
Zn1C O4B 1_555 1_555

#END
