
#######################################################################
#
#                 Cambridge Crystallographic Data Centre
#                                CCDC 
#
#######################################################################
#
# If this CIF has been generated from an entry in the Cambridge 
# Structural Database, then it will include bibliographic, chemical, 
# crystal, experimental, refinement or atomic coordinate data resulting 
# from the CCDC's data processing and validation procedures.
#
#######################################################################

data_WONYOO
_symmetry_cell_setting           monoclinic
_symmetry_space_group_name_H-M   'P 21/c'
_symmetry_Int_Tables_number      14
_space_group_name_Hall           '-P 2ybc'
loop_
_symmetry_equiv_pos_site_id
_symmetry_equiv_pos_as_xyz
1 x,y,z
2 -x,1/2+y,1/2-z
3 -x,-y,-z
4 x,1/2-y,1/2+z
_cell_length_a                   5.4076(10)
_cell_length_b                   8.536(2)
_cell_length_c                   21.321(4)
_cell_angle_alpha                90
_cell_angle_beta                 94.219(3)
_cell_angle_gamma                90
_cell_volume                     981.495
loop_
_atom_site_label
_atom_site_type_symbol
_atom_site_fract_x
_atom_site_fract_y
_atom_site_fract_z
Zn1 Zn 0.18242(4) 0.85791(3) 0.275739(11)
P1 P -0.30719(9) 1.04161(6) 0.29395(2)
O1 O -0.1569(3) 0.92675(18) 0.25663(7)
O2 O -0.2116(3) 1.20811(17) 0.29028(7)
O3 O -0.5816(3) 1.02725(17) 0.27390(7)
O4 O -0.2608(3) 1.00216(18) 0.36670(7)
N1 N 0.6834(4) 0.6759(2) 0.63731(9)
N2 N 0.1056(3) 0.6387(2) 0.44292(9)
N3 N 0.0458(4) 0.6703(2) 0.38271(9)
N4 N 0.2174(3) 0.7651(2) 0.36259(8)
N5 N 0.3928(3) 0.7968(2) 0.40884(8)
C1 C 0.7796(4) 0.7737(3) 0.59648(11)
H1 H 0.9263 0.8309 0.6084
C2 C 0.6646(4) 0.7910(3) 0.53692(11)
H2 H 0.7317 0.8599 0.5076
C3 C 0.4491(4) 0.7065(2) 0.52022(10)
C4 C 0.3559(4) 0.6048(3) 0.56440(10)
H3 H 0.2100 0.5455 0.5540
C5 C 0.4780(4) 0.5919(3) 0.62288(10)
H4 H 0.4167 0.5233 0.6532
C6 C 0.3184(4) 0.7167(2) 0.45787(10)
H5 H 0.741(6) 0.661(3) 0.6725(15)
H6 H -0.354(5) 0.935(3) 0.3801(14)
Zn1A Zn -0.18242(4) 1.35791(3) 0.224261(11)
Zn1_2 Zn -0.81758(4) 0.85791(3) 0.275739(11)
O2A O 0.2116(3) 0.70811(17) 0.20972(7)
O3_2 O 0.4184(3) 1.02725(17) 0.27390(7)
loop_
_geom_bond_atom_site_label_1
_geom_bond_atom_site_label_2
_geom_bond_site_symmetry_1
_geom_bond_site_symmetry_2
Zn1 O1 1_555 1_555
P1 O1 1_555 1_555
O2 P1 1_555 1_555
O3 P1 1_555 1_555
O4 P1 1_555 1_555
N1 C1 1_555 1_555
N2 N3 1_555 1_555
N3 N4 1_555 1_555
N4 Zn1 1_555 1_555
N5 N4 1_555 1_555
C1 H1 1_555 1_555
C2 C1 1_555 1_555
H2 C2 1_555 1_555
C3 C2 1_555 1_555
C4 C3 1_555 1_555
H3 C4 1_555 1_555
C5 N1 1_555 1_555
H4 C5 1_555 1_555
C6 N2 1_555 1_555
H5 N1 1_555 1_555
H6 O4 1_555 1_555
Zn1A O2 1_555 1_555
Zn1_2 O3 1_555 1_555
O2A Zn1 1_555 1_555
O3_2 Zn1 1_555 1_555
N5 C6 1_555 1_555
C3 C6 1_555 1_555
C4 C5 1_555 1_555

#END
