
#######################################################################
#
#                 Cambridge Crystallographic Data Centre
#                                CCDC 
#
#######################################################################
#
# If this CIF has been generated from an entry in the Cambridge 
# Structural Database, then it will include bibliographic, chemical, 
# crystal, experimental, refinement or atomic coordinate data resulting 
# from the CCDC's data processing and validation procedures.
#
#######################################################################

data_WONYAA
_symmetry_cell_setting           monoclinic
_symmetry_space_group_name_H-M   'P 21/c'
_symmetry_Int_Tables_number      14
_space_group_name_Hall           '-P 2ybc'
loop_
_symmetry_equiv_pos_site_id
_symmetry_equiv_pos_as_xyz
1 x,y,z
2 -x,1/2+y,1/2-z
3 -x,-y,-z
4 x,1/2-y,1/2+z
_cell_length_a                   10.9685(6)
_cell_length_b                   17.9797(11)
_cell_length_c                   8.7605(6)
_cell_angle_alpha                90
_cell_angle_beta                 101.706(6)
_cell_angle_gamma                90
_cell_volume                     1691.73
loop_
_atom_site_label
_atom_site_type_symbol
_atom_site_fract_x
_atom_site_fract_y
_atom_site_fract_z
C1 C -0.1577(3) 0.10929(16) -0.2282(4)
H1 H -0.2252 0.0751 -0.2491
C2 C 0.0182(3) 0.15994(17) -0.1331(4)
H2 H 0.0998 0.1672 -0.0735
C3 C -0.0445(3) 0.20964(17) -0.2350(4)
H3 H -0.0166 0.2575 -0.2584
C4 C -0.2535(3) 0.20707(17) -0.4185(4)
C5 C -0.2754(3) 0.28263(17) -0.4237(4)
H4 H -0.2249 0.3149 -0.3513
C6 C -0.3718(3) 0.31094(17) -0.5357(3)
H5 H -0.3862 0.3631 -0.54
C7 C -0.4478(3) 0.26503(16) -0.6418(4)
C8 C -0.4225(3) 0.18856(16) -0.6371(4)
H6 H -0.4726 0.1561 -0.7095
C9 C -0.3245(2) 0.16007(17) -0.5271(3)
H7 H -0.306 0.1084 -0.5262
C10 C -0.8518(3) 0.41937(15) -1.2137(4)
H8 H -0.7777 0.423 -1.2536
C11 C -1.0423(3) 0.42689(16) -1.1910(4)
H9 H -1.1291 0.4371 -1.2138
C12 C -0.9799(3) 0.39566(16) -1.0569(4)
H10 H -1.0134 0.3803 -0.9702
C13 C -0.7542(3) 0.35934(16) -0.9643(3)
C14 C -0.6426(3) 0.39772(16) -0.9262(4)
H11 H -0.6341 0.4451 -0.971
C15 C -0.5435(3) 0.36663(17) -0.8225(4)
H12 H -0.4675 0.3934 -0.7956
C16 C -0.7664(3) 0.29048(17) -0.8985(4)
H13 H -0.8434 0.2646 -0.9235
C17 C -0.6669(3) 0.25932(16) -0.7966(4)
H14 H -0.6758 0.2117 -0.753
C18 C -0.5535(3) 0.29686(16) -0.7568(3)
N1 N -0.0526(2) 0.09725(13) -0.1276(3)
N2 N -0.1574(2) 0.17685(13) -0.2983(3)
N3 N -0.9621(2) 0.44179(13) -1.2895(3)
N4 N -0.8569(2) 0.39073(13) -1.0726(3)
O1 O -0.18279(15) -0.01555(11) 0.0222(2)
O2 O -0.40337(17) -0.02682(12) -0.1324(2)
O3 O -0.35742(16) 0.02078(10) 0.1473(2)
H15 H -0.4323 0.0122 0.1494
P1 P -0.31503(7) -0.03143(5) 0.02429(10)
H16 H -0.32032 -0.1034 0.0771
Ni1 Ni 0.00000 0.00000 0.00000
C1C C 0.8423(3) 0.39071(16) 1.2718(4)
H1C H 0.7748 0.4249 1.2509
C2C C 1.0182(3) 0.34006(17) 1.3669(4)
H2C H 1.0998 0.3328 1.4265
C3C C 0.9555(3) 0.29036(17) 1.2650(4)
H3C H 0.9834 0.2425 1.2416
C4C C 0.7465(3) 0.29293(17) 1.0815(4)
C5C C 0.7246(3) 0.21737(17) 1.0763(4)
H4C H 0.7751 0.1851 1.1487
C6C C 0.6282(3) 0.18906(17) 0.9643(3)
H5C H 0.6138 0.1369 0.96
C7C C 0.5522(3) 0.23497(16) 0.8582(4)
C8C C 0.5775(3) 0.31144(16) 0.8629(4)
H6C H 0.5274 0.3439 0.7905
C9C C 0.6755(2) 0.33993(17) 0.9729(3)
H7C H 0.694 0.3916 0.9738
C10C C 0.1482(3) 0.08063(15) 0.2863(4)
H8C H 0.2223 0.077 0.2464
C11C C -0.0423(3) 0.07311(16) 0.3090(4)
H9C H -0.1291 0.0629 0.2862
C12C C 0.0201(3) 0.10434(16) 0.4431(4)
H10C H -0.0134 0.1197 0.5298
C13C C 0.2458(3) 0.14066(16) 0.5357(3)
C14C C 0.3574(3) 0.10228(16) 0.5738(4)
H11C H 0.3659 0.0549 0.529
C15C C 0.4565(3) 0.13337(17) 0.6775(4)
H12C H 0.5325 0.1066 0.7044
C16C C 0.2336(3) 0.20952(17) 0.6015(4)
H13C H 0.1566 0.2354 0.5765
C17C C 0.3331(3) 0.24068(16) 0.7034(4)
H14C H 0.3242 0.2883 0.747
C18C C 0.4465(3) 0.20314(16) 0.7432(3)
N1C N 0.9474(2) 0.40275(13) 1.3724(3)
N1B N 0.0526(2) -0.09725(13) 0.1276(3)
N2C N 0.8426(2) 0.32315(13) 1.2017(3)
N3C N 0.0379(2) 0.05821(13) 0.2105(3)
N3A N -0.0379(2) -0.05821(13) -0.2105(3)
N4C N 0.1431(2) 0.10927(13) 0.4274(3)
O1B O 0.18279(15) 0.01555(11) -0.0222(2)
O2B O 0.40337(17) 0.02682(12) 0.1324(2)
O3B O 0.35742(16) -0.02078(10) -0.1473(2)
H15B H 0.4323 -0.0122 -0.1494
P1B P 0.31503(7) 0.03143(5) -0.02429(10)
H16B H 0.32032 0.1034 -0.0771
Ni1C Ni -1.00000 0.50000 -1.50000
Ni1C_2 Ni 1.00000 0.50000 1.50000
loop_
_geom_bond_atom_site_label_1
_geom_bond_atom_site_label_2
_geom_bond_site_symmetry_1
_geom_bond_site_symmetry_2
C1 H1 1_555 1_555
C2 H2 1_555 1_555
C3 C2 1_555 1_555
H3 C3 1_555 1_555
C4 C5 1_555 1_555
C5 H4 1_555 1_555
C6 C5 1_555 1_555
H5 C6 1_555 1_555
C7 C6 1_555 1_555
C8 C7 1_555 1_555
H6 C8 1_555 1_555
C9 C4 1_555 1_555
H7 C9 1_555 1_555
C10 H8 1_555 1_555
C11 H9 1_555 1_555
C12 C11 1_555 1_555
H10 C12 1_555 1_555
C13 C14 1_555 1_555
C14 H11 1_555 1_555
C15 C14 1_555 1_555
H12 C15 1_555 1_555
C16 C13 1_555 1_555
H13 C16 1_555 1_555
C17 C16 1_555 1_555
H14 C17 1_555 1_555
C18 C7 1_555 1_555
N1 C1 1_555 1_555
N2 C1 1_555 1_555
N3 C10 1_555 1_555
N4 C10 1_555 1_555
O1 P1 1_555 1_555
O2 P1 1_555 1_555
O3 H15 1_555 1_555
P1 O3 1_555 1_555
H16 P1 1_555 1_555
Ni1 N1 1_555 1_555
C1C H1C 1_555 1_555
C2C H2C 1_555 1_555
C3C C2C 1_555 1_555
H3C C3C 1_555 1_555
C4C C5C 1_555 1_555
C5C H4C 1_555 1_555
C6C C5C 1_555 1_555
H5C C6C 1_555 1_555
C7C C6C 1_555 1_555
C8C C7C 1_555 1_555
H6C C8C 1_555 1_555
C9C C4C 1_555 1_555
H7C C9C 1_555 1_555
C10C H8C 1_555 1_555
C11C H9C 1_555 1_555
C12C C11C 1_555 1_555
H10C C12C 1_555 1_555
C13C C14C 1_555 1_555
C14C H11C 1_555 1_555
C15C C14C 1_555 1_555
H12C C15C 1_555 1_555
C16C C13C 1_555 1_555
H13C C16C 1_555 1_555
C17C C16C 1_555 1_555
H14C C17C 1_555 1_555
C18C C7C 1_555 1_555
N1C C1C 1_555 1_555
N1B Ni1 1_555 1_555
N2C C1C 1_555 1_555
N3C Ni1 1_555 1_555
N3A Ni1 1_555 1_555
N4C C10C 1_555 1_555
O1B Ni1 1_555 1_555
O2B P1B 1_555 1_555
O3B H15B 1_555 1_555
P1B O1B 1_555 1_555
H16B P1B 1_555 1_555
Ni1C N3 1_555 1_555
Ni1C_2 N1C 1_555 1_555
C2 N1 1_555 1_555
C3 N2 1_555 1_555
C4 N2 1_555 1_555
C8 C9 1_555 1_555
C11 N3 1_555 1_555
C12 N4 1_555 1_555
C13 N4 1_555 1_555
C15 C18 1_555 1_555
C17 C18 1_555 1_555
O1 Ni1 1_555 1_555
C2C N1C 1_555 1_555
C3C N2C 1_555 1_555
C4C N2C 1_555 1_555
C8C C9C 1_555 1_555
C10C N3C 1_555 1_555
C11C N3C 1_555 1_555
C12C N4C 1_555 1_555
C13C N4C 1_555 1_555
C15C C18C 1_555 1_555
C17C C18C 1_555 1_555
O3B P1B 1_555 1_555

#END
