
#######################################################################
#
#                 Cambridge Crystallographic Data Centre
#                                CCDC 
#
#######################################################################
#
# If this CIF has been generated from an entry in the Cambridge 
# Structural Database, then it will include bibliographic, chemical, 
# crystal, experimental, refinement or atomic coordinate data resulting 
# from the CCDC's data processing and validation procedures.
#
#######################################################################

data_WONZIJ
_symmetry_cell_setting           tetragonal
_symmetry_space_group_name_H-M   'I 4/m c m'
_symmetry_Int_Tables_number      140
_space_group_name_Hall           '-I 4 2c'
loop_
_symmetry_equiv_pos_site_id
_symmetry_equiv_pos_as_xyz
1 x,y,z
2 -y,x,z
3 y,-x,z
4 y,x,1/2-z
5 1/2+x,1/2+y,1/2+z
6 1/2-y,1/2+x,1/2+z
7 1/2+y,1/2-x,1/2+z
8 1/2+y,1/2+x,-z
9 -x,-y,z
10 -x,y,1/2-z
11 x,-y,1/2-z
12 -y,-x,1/2-z
13 1/2-x,1/2-y,1/2+z
14 1/2-x,1/2+y,-z
15 1/2+x,1/2-y,-z
16 1/2-y,1/2-x,-z
17 -x,-y,-z
18 y,-x,-z
19 -y,x,-z
20 -y,-x,1/2+z
21 1/2-x,1/2-y,1/2-z
22 1/2+y,1/2-x,1/2-z
23 1/2-y,1/2+x,1/2-z
24 1/2-y,1/2-x,z
25 x,y,-z
26 x,-y,1/2+z
27 -x,y,1/2+z
28 y,x,1/2+z
29 1/2+x,1/2+y,1/2-z
30 1/2+x,1/2-y,z
31 1/2-x,1/2+y,z
32 1/2+y,1/2+x,z
_cell_length_a                   16.0491(8)
_cell_length_b                   16.0491(8)
_cell_length_c                   15.3683(16)
_cell_angle_alpha                90
_cell_angle_beta                 90
_cell_angle_gamma                90
_cell_volume                     3958.47
loop_
_atom_site_label
_atom_site_type_symbol
_atom_site_fract_x
_atom_site_fract_y
_atom_site_fract_z
Zn1 Zn 0.0000 1.0000 0.2500
Si1 Si 0.0000 1.0000 0.0000
F1 F 0.0000 1.0000 0.1119(4)
F2 F -0.0220(6) 1.1015(4) 0.0000
N1 N 0.0939(2) 0.9061(2) 0.2500
C1 C 0.0987(5) 0.8499(4) 0.3130(5)
H1 H 0.0591 0.8522 0.3589
C2 C 0.1585(5) 0.7883(5) 0.3147(5)
H2 H 0.1592 0.7493 0.3611
C3 C 0.2170(3) 0.7830(3) 0.2500
Zn1X Zn 0.0000 1.0000 -0.2500
Zn1BA Zn 0.5000 0.5000 0.2500
Zn1BA_2 Zn 0.5000 1.5000 0.2500
F1X F 0.0000 1.0000 -0.1119(4)
F1C F 0.0000 1.0000 0.3881(4)
F2A F -0.1015(4) 0.9780(6) 0.0000
F2B F 0.1015(4) 1.0220(6) 0.0000
F2P F 0.0220(6) 0.8985(4) 0.0000
N1EA N 0.4061(2) 0.5939(2) 0.2500
N1A N 0.0939(2) 1.0939(2) 0.2500
N1DA N 0.4061(2) 1.4061(2) 0.2500
N1B N -0.0939(2) 0.9061(2) 0.2500
N1C N -0.0939(2) 1.0939(2) 0.2500
C1K C 0.1501(4) 0.9013(5) 0.1870(5)
C1EA C 0.3499(4) 0.5987(5) 0.3130(5)
C1T C 0.4013(5) 0.6501(4) 0.1870(5)
C1A C 0.1501(4) 1.0987(5) 0.3130(5)
C1J C 0.0987(5) 1.1501(4) 0.1870(5)
C1DA C 0.4013(5) 1.3499(4) 0.3130(5)
C1U C 0.3499(4) 1.4013(5) 0.1870(5)
H1K H 0.1478 0.9409 0.1411
H1T H 0.4409 0.6478 0.1411
H1EA H 0.3522 0.5591 0.3589
H1A H 0.1478 1.0591 0.3589
H1J H 0.0591 1.1478 0.1411
H1U H 0.3522 1.4409 0.1411
H1DA H 0.4409 1.3522 0.3589
C2K C 0.2117(5) 0.8415(5) 0.1853(5)
C2EA C 0.2883(5) 0.6585(5) 0.3147(5)
C2T C 0.3415(5) 0.7117(5) 0.1853(5)
C2A C 0.2117(5) 1.1585(5) 0.3147(5)
C2J C 0.1585(5) 1.2117(5) 0.1853(5)
C2DA C 0.3415(5) 1.2883(5) 0.3147(5)
C2U C 0.2883(5) 1.3415(5) 0.1853(5)
H2K H 0.2507 0.8408 0.1389
H2T H 0.3408 0.7507 0.1389
H2EA H 0.2493 0.6592 0.3611
H2A H 0.2507 1.1592 0.3611
H2J H 0.1592 1.2507 0.1389
H2U H 0.2493 1.3408 0.1389
H2DA H 0.3408 1.2493 0.3611
C3EA C 0.2830(3) 0.7170(3) 0.2500
C3A C 0.2170(3) 1.2170(3) 0.2500
C3DA C 0.2830(3) 1.2830(3) 0.2500
O1 O 0.2485(17) 0.7956(13) 0.5000
O2 O 0.3498(10) 0.8498(10) 0.0000
O3 O 0.2895(7) 0.0585(8) 0.0943(9)
O4 O 0.264(2) 0.978(3) 0.0000
O5 O 0.411(5) 0.0000 0.2500
F3? F 0.0305(14) 1.0971(9) 0.0000
loop_
_geom_bond_atom_site_label_1
_geom_bond_atom_site_label_2
_geom_bond_site_symmetry_1
_geom_bond_site_symmetry_2
Zn1 F1 1_555 1_555
Si1 F1 1_555 1_555
F2 Si1 1_555 1_555
N1 Zn1 1_555 1_555
C1 N1 1_555 1_555
H1 C1 1_555 1_555
C2 C1 1_555 1_555
H2 C2 1_555 1_555
C3 C2 1_555 1_555
Zn1X F1X 1_555 1_555
Zn1BA N1EA 1_555 1_555
Zn1BA_2 N1DA 1_555 1_555
F1X Si1 1_555 1_555
F1C Zn1 1_555 1_555
F2A Si1 1_555 1_555
F2B Si1 1_555 1_555
F2P Si1 1_555 1_555
N1EA C1EA 1_555 1_555
N1A Zn1 1_555 1_555
N1DA C1DA 1_555 1_555
N1B Zn1 1_555 1_555
N1C Zn1 1_555 1_555
C1K N1 1_555 1_555
C1EA H1EA 1_555 1_555
C1T N1EA 1_555 1_555
C1A N1A 1_555 1_555
C1J N1A 1_555 1_555
C1DA H1DA 1_555 1_555
C1U N1DA 1_555 1_555
H1K C1K 1_555 1_555
H1T C1T 1_555 1_555
H1A C1A 1_555 1_555
H1J C1J 1_555 1_555
H1U C1U 1_555 1_555
C2K C3 1_555 1_555
C2EA C1EA 1_555 1_555
C2T C1T 1_555 1_555
C2A C1A 1_555 1_555
C2J C1J 1_555 1_555
C2DA C1DA 1_555 1_555
C2U C1U 1_555 1_555
H2K C2K 1_555 1_555
H2T C2T 1_555 1_555
H2EA C2EA 1_555 1_555
H2A C2A 1_555 1_555
H2J C2J 1_555 1_555
H2U C2U 1_555 1_555
H2DA C2DA 1_555 1_555
C3EA C3 1_555 1_555
C3A C2A 1_555 1_555
C3DA C2DA 1_555 1_555
C1K C2K 1_555 1_555
C2EA C3EA 1_555 1_555
C2T C3EA 1_555 1_555
C2J C3A 1_555 1_555
C2U C3DA 1_555 1_555
C3A C3DA 1_555 1_555

#END
