
#######################################################################
#
#                 Cambridge Crystallographic Data Centre
#                                CCDC 
#
#######################################################################
#
# If this CIF has been generated from an entry in the Cambridge 
# Structural Database, then it will include bibliographic, chemical, 
# crystal, experimental, refinement or atomic coordinate data resulting 
# from the CCDC's data processing and validation procedures.
#
#######################################################################

data_WONZEE
_symmetry_cell_setting           orthorhombic
_symmetry_space_group_name_H-M   'P c m n'
_symmetry_Int_Tables_number      62
_space_group_name_Hall           '-P 2n 2ac'
loop_
_symmetry_equiv_pos_site_id
_symmetry_equiv_pos_as_xyz
1 x,y,z
2 1/2-x,y,1/2+z
3 x,1/2-y,z
4 1/2+x,1/2+y,1/2-z
5 -x,-y,-z
6 1/2+x,-y,1/2-z
7 -x,1/2+y,-z
8 1/2-x,1/2-y,1/2+z
_cell_length_a                   7.273(2)
_cell_length_b                   11.449(3)
_cell_length_c                   18.213(4)
_cell_angle_alpha                90
_cell_angle_beta                 90
_cell_angle_gamma                90
_cell_volume                     1516.57
loop_
_atom_site_label
_atom_site_type_symbol
_atom_site_fract_x
_atom_site_fract_y
_atom_site_fract_z
Pb1 Pb -0.46179(9) -0.2500 0.32602(4)
B1 B -0.617(4) -0.2500 0.1249(13)
H1 H -0.6528 -0.2500 0.0719
N1 N -0.6906(16) -0.1388(11) 0.1637(6)
N2 N -0.6780(17) -0.3767(10) 0.2377(6)
C1 C -0.758(2) -0.4808(12) 0.2481(8)
H2 H -0.7704 0.0157 0.2951
N3 N -0.820(2) -0.5322(14) 0.1858(7)
C2 C -0.777(3) -0.4516(17) 0.1366(9)
H3 H -0.8059 -0.4588 0.0859
N4 N -0.402(2) -0.2500 0.1328(8)
N5 N -0.310(2) -0.2500 0.1979(10)
C3 C -0.135(3) -0.2500 0.1775(12)
H4 H -0.0366 -0.2500 0.2118
N6 N -0.108(3) -0.2500 0.1053(11)
C4 C -0.280(3) -0.2500 0.0799(12)
H5 H -0.3105 -0.2500 0.0292
O1 O -0.129(3) -0.2500 0.3753(17)
H6 H -0.0286 -0.2500 0.3420
H7 H -0.1074 -0.2500 0.4267
O2 O -0.776(3) -0.337(2) 0.3928(13)
O3 O -0.577(2) -0.3962(17) 0.4638(10)
O4 O -0.836(3) -0.474(3) 0.4579(17)
N7 N -0.729(3) -0.4055(18) 0.4382(11)
Pb1C Pb -0.96179(9) -0.7500 0.17398(4)
N2B N -0.6780(17) -0.1233(10) 0.2377(6)
N1B N -0.6906(16) -0.3612(11) 0.1637(6)
N3C N -0.320(2) -0.0322(14) 0.3142(7)
N3E N -0.320(2) -0.4678(14) 0.3142(7)
O2B O -0.776(3) -0.163(2) 0.3928(13)
N7B N -0.729(3) -0.0945(18) 0.4382(11)
O3B O -0.577(2) -0.1038(17) 0.4638(10)
O4B O -0.836(3) -0.026(3) 0.4579(17)
C2B C -0.777(3) -0.0484(17) 0.1366(9)
N3B N -0.820(2) 0.0322(14) 0.1858(7)
Pb1C_2 Pb -0.96179(9) 0.2500 0.17398(4)
C1B C -0.758(2) -0.0192(12) 0.2481(8)
H3B H -0.8059 -0.0412 0.0859
H2B H -0.7704 -0.5157 0.2951
loop_
_geom_bond_atom_site_label_1
_geom_bond_atom_site_label_2
_geom_bond_site_symmetry_1
_geom_bond_site_symmetry_2
Pb1 N2 1_555 1_555
B1 H1 1_555 1_555
N1 B1 1_555 1_555
N2 C1 1_555 1_555
C1 N3 1_555 1_555
H2 C1B 1_555 1_555
N3 C2 1_555 1_555
C2 H3 1_555 1_555
N4 B1 1_555 1_555
N5 Pb1 1_555 1_555
C3 N5 1_555 1_555
H4 C3 1_555 1_555
N6 C3 1_555 1_555
C4 N4 1_555 1_555
H5 C4 1_555 1_555
O1 Pb1 1_555 1_555
H6 O1 1_555 1_555
H7 O1 1_555 1_555
O2 Pb1 1_555 1_555
O3 N7 1_555 1_555
O4 N7 1_555 1_555
N7 O2 1_555 1_555
Pb1C N3 1_555 1_555
N2B Pb1 1_555 1_555
N1B B1 1_555 1_555
N3C Pb1 1_555 1_555
N3E Pb1 1_555 1_555
O2B Pb1 1_555 1_555
N7B O2B 1_555 1_555
O3B N7B 1_555 1_555
O4B N7B 1_555 1_555
C2B N1 1_555 1_555
N3B C2B 1_555 1_555
Pb1C_2 N3B 1_555 1_555
C1B N2B 1_555 1_555
H3B C2B 1_555 1_555
H2B C1 1_555 1_555
N1 N2B 1_555 1_555
N2 N1B 1_555 1_555
C2 N1B 1_555 1_555
N4 N5 1_555 1_555
N6 C4 1_555 1_555
N3B C1B 1_555 1_555

#END
