
#######################################################################
#
#                 Cambridge Crystallographic Data Centre
#                                CCDC 
#
#######################################################################
#
# If this CIF has been generated from an entry in the Cambridge 
# Structural Database, then it will include bibliographic, chemical, 
# crystal, experimental, refinement or atomic coordinate data resulting 
# from the CCDC's data processing and validation procedures.
#
#######################################################################

data_WOPCIN
_symmetry_cell_setting           triclinic
_symmetry_space_group_name_H-M   'P -1'
_symmetry_Int_Tables_number      2
_space_group_name_Hall           '-P 1'
loop_
_symmetry_equiv_pos_site_id
_symmetry_equiv_pos_as_xyz
1 x,y,z
2 -x,-y,-z
_cell_length_a                   12.71730(10)
_cell_length_b                   13.27650(10)
_cell_length_c                   14.53070(10)
_cell_angle_alpha                114.6240(10)
_cell_angle_beta                 90.7940(10)
_cell_angle_gamma                104.1070(10)
_cell_volume                     2144.4
loop_
_atom_site_label
_atom_site_type_symbol
_atom_site_fract_x
_atom_site_fract_y
_atom_site_fract_z
Hg1 Hg 1.35920(7) 0.89572(8) 0.49674(7)
Hg2 Hg 1.03081(7) 0.84233(6) 0.45484(7)
I1 I 1.28427(11) 0.78931(10) 0.61126(8)
I2 I 1.55207(10) 0.85754(9) 0.40249(10)
I3 I 0.89638(8) 0.95487(8) 0.37181(6)
I4 I 0.93848(11) 0.62854(8) 0.42242(8)
I5 I 1.20576(9) 0.84456(8) 0.32996(7)
I2A I 1.44793(10) 1.14246(9) 0.59751(10)
I3A I 1.10362(8) 1.04513(8) 0.62819(6)
Hg1A Hg 1.64080(7) 1.10428(8) 0.50326(7)
Hg2A Hg 0.96919(7) 1.15767(6) 0.54516(7)
K1 K 0.3198(2) 0.2624(2) 0.1383(2)
C1 C 0.0356(11) 0.1957(10) 0.0551(12)
C2 C 0.0388(11) 0.2279(11) 0.1614(11)
C3 C 0.1108(14) 0.2167(14) 0.3056(11)
H1 H 0.0394 0.1934 0.3249
H2 H 0.1400 0.2995 0.3437
C4 C 0.1861(16) 0.1558(15) 0.3258(12)
H3 H 0.1914 0.1705 0.3972
H4 H 0.1577 0.0734 0.2848
C5 C 0.3667(13) 0.1307(16) 0.2968(13)
H5 H 0.3578 0.1072 0.3518
H6 H 0.4412 0.1779 0.3075
C6 C 0.3485(13) 0.0282(14) 0.1994(14)
H7 H 0.3972 -0.0170 0.2015
H8 H 0.2738 -0.0191 0.1879
C7 C 0.3371(13) -0.0338(12) 0.0176(12)
H9 H 0.2602 -0.0735 0.0090
H10 H 0.3791 -0.0882 0.0098
C8 C 0.3578(12) 0.0100(13) -0.0605(11)
H11 H 0.4341 0.0531 -0.0484
H12 H 0.3453 -0.0552 -0.1271
C9 C 0.1867(12) 0.0174(11) -0.1182(10)
H13 H 0.1576 -0.0455 -0.1000
H14 H 0.1922 -0.0150 -0.1907
C10 C 0.1129(11) 0.0930(11) -0.0946(9)
H15 H 0.1434 0.1590 -0.1082
H16 H 0.0418 0.0512 -0.1352
C11 C -0.0281(13) 0.2323(13) 0.0064(13)
H17 H -0.0308 0.2104 -0.0635
C12 C -0.0885(13) 0.3033(13) 0.0651(17)
H18 H -0.1314 0.3308 0.0340
C13 C -0.0873(12) 0.3341(15) 0.1662(18)
H19 H -0.1302 0.3812 0.2024
C14 C -0.0249(12) 0.2981(13) 0.2168(14)
H20 H -0.0250 0.3199 0.2865
C15 C 0.3311(13) 0.3803(9) -0.0419(9)
C16 C 0.2575(12) 0.4301(11) 0.0174(10)
C17 C 0.2134(11) 0.5114(11) 0.1884(10)
H21 H 0.1451 0.4529 0.1761
H22 H 0.1976 0.5749 0.1796
C18 C 0.2688(15) 0.5531(13) 0.2958(10)
H23 H 0.3375 0.6110 0.3079
H24 H 0.2225 0.5873 0.3453
C19 C 0.3662(14) 0.4910(13) 0.3891(10)
H25 H 0.3527 0.4325 0.4143
H26 H 0.3594 0.5620 0.4435
C20 C 0.4824(15) 0.5099(14) 0.3609(12)
H27 H 0.4959 0.5668 0.3337
H28 H 0.5348 0.5386 0.4213
C21 C 0.6040(11) 0.4114(15) 0.2594(13)
H29 H 0.6279 0.4733 0.2390
H30 H 0.6547 0.4266 0.3171
C22 C 0.6031(10) 0.3032(15) 0.1760(14)
H31 H 0.6774 0.3055 0.1609
H32 H 0.5787 0.2426 0.1979
C23 C 0.5812(11) 0.3320(12) 0.0279(13)
H33 H 0.6389 0.3010 -0.0060
H34 H 0.6127 0.4131 0.0725
C24 C 0.4942(13) 0.3187(13) -0.0500(11)
H35 H 0.5247 0.3562 -0.0922
H36 H 0.4597 0.2379 -0.0936
C25 C 0.3125(13) 0.3404(11) -0.1468(11)
H37 H 0.3607 0.3061 -0.1883
C26 C 0.2186(17) 0.3529(12) -0.1894(12)
H38 H 0.2050 0.3256 -0.2599
C27 C 0.1505(15) 0.4019(14) -0.1323(13)
H39 H 0.0908 0.4110 -0.1625
C28 C 0.1667(14) 0.4412(12) -0.0250(11)
H40 H 0.1169 0.4736 0.0155
O1 O 0.1035(8) 0.1844(8) 0.1999(6)
O2 O 0.2942(10) 0.1966(9) 0.3005(7)
O3 O 0.3679(8) 0.0609(8) 0.1179(8)
O4 O 0.2911(7) 0.0826(7) -0.0624(6)
O5 O 0.1036(8) 0.1289(8) 0.0125(7)
O6 O 0.2848(8) 0.4650(8) 0.1191(7)
O7 O 0.2880(8) 0.4568(7) 0.3060(7)
O8 O 0.4952(8) 0.4062(8) 0.2881(8)
O9 O 0.5369(7) 0.2740(8) 0.0858(8)
O10 O 0.4177(8) 0.3728(8) 0.0081(6)
loop_
_geom_bond_atom_site_label_1
_geom_bond_atom_site_label_2
_geom_bond_site_symmetry_1
_geom_bond_site_symmetry_2
Hg1 I1 1_555 1_555
Hg2 I3 1_555 1_555
I2 Hg1 1_555 1_555
I3 Hg2A 1_555 1_555
I4 Hg2 1_555 1_555
I5 Hg1 1_555 1_555
K1 O1 1_555 1_555
C1 C2 1_555 1_555
C2 C14 1_555 1_555
C3 H1 1_555 1_555
H2 C3 1_555 1_555
C4 C3 1_555 1_555
H3 C4 1_555 1_555
H4 C4 1_555 1_555
C5 H5 1_555 1_555
H6 C5 1_555 1_555
C6 C5 1_555 1_555
H7 C6 1_555 1_555
H8 C6 1_555 1_555
C7 H9 1_555 1_555
H10 C7 1_555 1_555
C8 C7 1_555 1_555
H11 C8 1_555 1_555
H12 C8 1_555 1_555
C9 H13 1_555 1_555
H14 C9 1_555 1_555
C10 C9 1_555 1_555
H15 C10 1_555 1_555
H16 C10 1_555 1_555
C11 C1 1_555 1_555
H17 C11 1_555 1_555
C12 C11 1_555 1_555
H18 C12 1_555 1_555
C13 C12 1_555 1_555
H19 C13 1_555 1_555
C14 C13 1_555 1_555
H20 C14 1_555 1_555
C15 C16 1_555 1_555
C16 C28 1_555 1_555
C17 H21 1_555 1_555
H22 C17 1_555 1_555
C18 C17 1_555 1_555
H23 C18 1_555 1_555
H24 C18 1_555 1_555
C19 H25 1_555 1_555
H26 C19 1_555 1_555
C20 C19 1_555 1_555
H27 C20 1_555 1_555
H28 C20 1_555 1_555
C21 H29 1_555 1_555
H30 C21 1_555 1_555
C22 C21 1_555 1_555
H31 C22 1_555 1_555
H32 C22 1_555 1_555
C23 H33 1_555 1_555
H34 C23 1_555 1_555
C24 C23 1_555 1_555
H35 C24 1_555 1_555
H36 C24 1_555 1_555
C25 C15 1_555 1_555
H37 C25 1_555 1_555
C26 C25 1_555 1_555
H38 C26 1_555 1_555
C27 C26 1_555 1_555
H39 C27 1_555 1_555
C28 C27 1_555 1_555
H40 C28 1_555 1_555
O1 C2 1_555 1_555
O2 K1 1_555 1_555
O3 K1 1_555 1_555
O4 K1 1_555 1_555
O5 K1 1_555 1_555
O6 K1 1_555 1_555
O7 K1 1_555 1_555
O8 K1 1_555 1_555
O9 K1 1_555 1_555
O10 K1 1_555 1_555
I2A Hg1 1_555 1_555
I3A Hg2 1_555 1_555
Hg1A I2 1_555 1_555
Hg2A I3A 1_555 1_555
Hg2 I5 1_555 1_555
C1 O5 1_555 1_555
C3 O1 1_555 1_555
C4 O2 1_555 1_555
C5 O2 1_555 1_555
C6 O3 1_555 1_555
C7 O3 1_555 1_555
C8 O4 1_555 1_555
C9 O4 1_555 1_555
C10 O5 1_555 1_555
C15 O10 1_555 1_555
C16 O6 1_555 1_555
C17 O6 1_555 1_555
C18 O7 1_555 1_555
C19 O7 1_555 1_555
C20 O8 1_555 1_555
C21 O8 1_555 1_555
C22 O9 1_555 1_555
C23 O9 1_555 1_555
C24 O10 1_555 1_555
I2A Hg1A 1_555 1_555

#END
