
#######################################################################
#
#                 Cambridge Crystallographic Data Centre
#                                CCDC 
#
#######################################################################
#
# If this CIF has been generated from an entry in the Cambridge 
# Structural Database, then it will include bibliographic, chemical, 
# crystal, experimental, refinement or atomic coordinate data resulting 
# from the CCDC's data processing and validation procedures.
#
#######################################################################

data_WOPDAH
_symmetry_cell_setting           monoclinic
_symmetry_space_group_name_H-M   'C 2/c'
_symmetry_Int_Tables_number      15
_space_group_name_Hall           '-C 2yn'
loop_
_symmetry_equiv_pos_site_id
_symmetry_equiv_pos_as_xyz
1 x,y,z
2 1/2+x,1/2+y,z
3 -x,y,1/2-z
4 1/2-x,1/2+y,1/2-z
5 -x,-y,-z
6 1/2-x,1/2-y,-z
7 x,-y,1/2+z
8 1/2+x,1/2-y,1/2+z
_cell_length_a                   18.438(2)
_cell_length_b                   14.6000(16)
_cell_length_c                   15.5025(17)
_cell_angle_alpha                90
_cell_angle_beta                 90.140(1)
_cell_angle_gamma                90
_cell_volume                     4173.18
loop_
_atom_site_label
_atom_site_type_symbol
_atom_site_fract_x
_atom_site_fract_y
_atom_site_fract_z
Mn1 Mn 0.210950(15) -0.271140(19) 0.133530(18)
O1 O 0.22154(8) -0.65730(10) 0.38598(10)
O2 O 0.17464(10) -0.67072(10) 0.51782(10)
O3 O 0.16292(10) -0.37158(11) 0.21891(10)
O4 O 0.19268(13) -0.24738(13) 0.29039(14)
N1 N 0.31008(10) -0.37014(12) 0.13551(13)
N2 N 0.61232(10) -0.67524(12) 0.12594(12)
C1 C 0.16936(11) -0.52541(13) 0.44890(12)
C2 C 0.17776(11) -0.47611(14) 0.37270(12)
H1 H 0.1923 -0.5057 0.3225
C3 C 0.16424(12) -0.38211(14) 0.37196(13)
C4 C 0.14369(14) -0.33829(15) 0.44746(15)
H2 H 0.1378 -0.2750 0.4471
C5 C 0.13170(13) -0.38614(16) 0.52355(14)
C6 C 0.14404(12) -0.48084(16) 0.52290(13)
H3 H 0.1352 -0.5147 0.5726
C7 C 0.18996(11) -0.62510(13) 0.45153(13)
C8 C 0.17356(12) -0.32941(15) 0.28893(15)
C9 C 0.10193(17) -0.33764(19) 0.60465(16)
C10 C 0.1223(3) -0.2340(2) 0.6047(2)
H4 H 0.1013 -0.2048 0.5551
H5 H 0.1741 -0.2276 0.6028
H6 H 0.1041 -0.2056 0.6561
C11 C 0.1346(2) -0.3772(2) 0.68672(17)
H7 H 0.1173 -0.3433 0.7356
H8 H 0.1865 -0.3730 0.6841
H9 H 0.1206 -0.4402 0.6923
C12 C 0.0204(2) -0.3460(3) 0.6034(2)
H10 H 0.0018 -0.3198 0.5511
H11 H 0.0005 -0.3140 0.6520
H12 H 0.0070 -0.4094 0.6063
C13 C 0.37703(14) -0.34286(17) 0.1171(2)
H13 H 0.3844 -0.2812 0.1051
C14 C 0.43619(14) -0.40057(18) 0.1147(2)
H14 H 0.4818 -0.3771 0.1017
C15 C 0.42826(12) -0.49306(14) 0.13158(15)
C16 C 0.35861(14) -0.52205(17) 0.1500(2)
H15 H 0.3497 -0.5835 0.1617
C17 C 0.30217(13) -0.45944(17) 0.1511(2)
H16 H 0.2559 -0.4810 0.1635
C18 C 0.49144(11) -0.55663(14) 0.12926(14)
C19 C 0.56165(14) -0.52467(17) 0.1213(2)
H17 H 0.5700 -0.4621 0.1165
C20 C 0.61960(14) -0.58475(18) 0.1205(2)
H18 H 0.6661 -0.5606 0.1159
C21 C 0.54480(14) -0.70589(16) 0.1340(2)
H19 H 0.5380 -0.7689 0.1381
C22 C 0.48404(13) -0.65053(16) 0.1369(2)
H20 H 0.4383 -0.6764 0.1439
Mn1A Mn 0.710950(15) -0.771140(19) 0.133530(18)
Mn1C Mn 0.289050(15) -0.771140(19) 0.366470(18)
Mn1F Mn 0.210950(15) -0.728860(19) 0.633530(18)
O1C O 0.27846(8) -0.15730(10) 0.11402(10)
O2F O 0.17464(10) -0.32928(10) 0.01782(10)
N2A N 0.11232(10) -0.17524(12) 0.12594(12)
loop_
_geom_bond_atom_site_label_1
_geom_bond_atom_site_label_2
_geom_bond_site_symmetry_1
_geom_bond_site_symmetry_2
Mn1 O3 1_555 1_555
O1 C7 1_555 1_555
O2 C7 1_555 1_555
O3 C8 1_555 1_555
O4 Mn1 1_555 1_555
N1 Mn1 1_555 1_555
N2 C20 1_555 1_555
C1 C2 1_555 1_555
C2 H1 1_555 1_555
C3 C2 1_555 1_555
C4 C3 1_555 1_555
H2 C4 1_555 1_555
C5 C4 1_555 1_555
C6 C1 1_555 1_555
H3 C6 1_555 1_555
C7 C1 1_555 1_555
C8 O4 1_555 1_555
C9 C5 1_555 1_555
C10 C9 1_555 1_555
H4 C10 1_555 1_555
H5 C10 1_555 1_555
H6 C10 1_555 1_555
C11 C9 1_555 1_555
H7 C11 1_555 1_555
H8 C11 1_555 1_555
H9 C11 1_555 1_555
C12 C9 1_555 1_555
H10 C12 1_555 1_555
H11 C12 1_555 1_555
H12 C12 1_555 1_555
C13 N1 1_555 1_555
H13 C13 1_555 1_555
C14 C13 1_555 1_555
H14 C14 1_555 1_555
C15 C14 1_555 1_555
C16 C15 1_555 1_555
H15 C16 1_555 1_555
C17 N1 1_555 1_555
H16 C17 1_555 1_555
C18 C15 1_555 1_555
C19 C18 1_555 1_555
H17 C19 1_555 1_555
C20 C19 1_555 1_555
H18 C20 1_555 1_555
C21 N2 1_555 1_555
H19 C21 1_555 1_555
C22 C18 1_555 1_555
H20 C22 1_555 1_555
Mn1A N2 1_555 1_555
Mn1C O1 1_555 1_555
Mn1F O2 1_555 1_555
O1C Mn1 1_555 1_555
O2F Mn1 1_555 1_555
N2A Mn1 1_555 1_555
C3 C8 1_555 1_555
C5 C6 1_555 1_555
C16 C17 1_555 1_555
C21 C22 1_555 1_555

#END
