
#######################################################################
#
#                 Cambridge Crystallographic Data Centre
#                                CCDC 
#
#######################################################################
#
# If this CIF has been generated from an entry in the Cambridge 
# Structural Database, then it will include bibliographic, chemical, 
# crystal, experimental, refinement or atomic coordinate data resulting 
# from the CCDC's data processing and validation procedures.
#
#######################################################################

data_WOPDUB
_symmetry_cell_setting           triclinic
_symmetry_space_group_name_H-M   'P -1'
_symmetry_Int_Tables_number      2
_space_group_name_Hall           '-P 1'
loop_
_symmetry_equiv_pos_site_id
_symmetry_equiv_pos_as_xyz
1 x,y,z
2 -x,-y,-z
_cell_length_a                   9.8326(13)
_cell_length_b                   10.9290(15)
_cell_length_c                   16.539(2)
_cell_angle_alpha                71.419(2)
_cell_angle_beta                 79.114(2)
_cell_angle_gamma                70.648(1)
_cell_volume                     1582.56
loop_
_atom_site_label
_atom_site_type_symbol
_atom_site_fract_x
_atom_site_fract_y
_atom_site_fract_z
Mn1 Mn 0.42282(3) 0.34860(3) 0.417211(19)
Mn2 Mn 0.5000 0.0000 0.5000
O1 O 0.50506(17) 0.26649(14) 0.31008(10)
O2 O 0.54731(16) 0.04341(14) 0.36509(9)
O3 O 0.8659(3) -0.26219(19) 0.19950(13)
H1 H 0.9117 -0.3341 0.1891
O4 O 0.9150(3) -0.1829(2) 0.06057(14)
O5 O 1.15986(15) 0.36943(14) 0.41371(10)
O6 O 1.31689(13) 0.19206(13) 0.48595(9)
O7 O 0.63886(15) 0.33606(14) 0.44276(10)
O8 O 0.61648(16) 0.13302(16) 0.50486(11)
O9 O 0.33643(18) 0.44113(17) 0.52058(11)
H2 H 0.2623 0.4242 0.5478
H3 H 0.3496 0.5057 0.5309
N1 N 0.4035(2) 0.54809(18) 0.32006(13)
N2 N 0.0080(3) 1.5030(2) 0.17372(15)
C1 C 0.5561(2) 0.1466(2) 0.30597(13)
C2 C 0.6372(2) 0.1243(2) 0.22237(13)
C3 C 0.6447(2) 0.2339(2) 0.15172(15)
H6 H 0.5985 0.3208 0.1565
C4 C 0.7198(3) 0.2162(3) 0.07412(16)
C5 C 0.7913(3) 0.0855(3) 0.06938(16)
H7 H 0.8438 0.0718 0.0184
C6 C 0.7860(3) -0.0255(2) 0.13934(15)
C7 C 0.7082(2) -0.0062(2) 0.21598(14)
H8 H 0.7036 -0.0800 0.2627
C8 C 0.8629(3) -0.1639(3) 0.12925(18)
C9 C 0.7219(4) 0.3372(3) -0.00328(18)
H9 H 0.8119 0.3175 -0.0381
H10 H 0.7121 0.4143 0.0157
H11 H 0.6432 0.3560 -0.0362
C10 C 1.18695(19) 0.25643(19) 0.46718(13)
C11 C 1.07011(19) 0.19186(18) 0.51214(13)
C12 C 0.93337(19) 0.24055(18) 0.48297(13)
H12 H 0.9103 0.3184 0.4378
C13 C 0.83082(19) 0.17156(19) 0.52210(13)
C14 C 0.8655(2) 0.0559(2) 0.59016(14)
H13 H 0.7975 0.0093 0.6148
C15 C 0.9999(2) 0.0088(2) 0.62210(13)
C16 C 1.1015(2) 0.07844(19) 0.58198(13)
H14 H 1.1921 0.0483 0.6024
C17 C 1.0384(3) -0.1175(2) 0.69567(16)
H15 H 0.9662 -0.1636 0.7067
H16 H 1.0426 -0.0934 0.7459
H17 H 1.1310 -0.1756 0.6811
C18 C 0.6863(2) 0.2161(2) 0.48772(14)
C19 C 0.5210(3) 0.5684(3) 0.2681(2)
H18 H 0.6074 0.4991 0.2753
C20 C 0.5211(4) 0.6849(3) 0.2054(2)
H19 H 0.6067 0.6935 0.1721
C21 C 0.3976(3) 0.7884(2) 0.19118(17)
C22 C 0.2733(3) 0.7681(3) 0.2433(2)
H20 H 0.1850 0.8348 0.2353
C23 C 0.2823(3) 0.6474(2) 0.30720(17)
H21 H 0.1990 0.6363 0.3424
C24 C 0.3963(4) 0.9201(3) 0.1227(2)
H22 H 0.4946 0.9260 0.1079
H23 H 0.3619 0.9193 0.0716
C25 C 0.3039(4) 1.0417(3) 0.1494(2)
H24 H 0.3330 1.0378 0.2033
H25 H 0.2043 1.0389 0.1597
C26 C 0.3100(3) 1.1765(2) 0.08479(18)
H26 H 0.4072 1.1844 0.0778
H27 H 0.2865 1.1798 0.0296
C27 C 0.2045(3) 1.2917(2) 0.11556(15)
C28 C 0.0652(3) 1.3464(3) 0.09147(19)
H28 H 0.0348 1.3125 0.0554
C29 C -0.0282(3) 1.4511(3) 0.1211(2)
H29 H -0.1212 1.4875 0.1036
C30 C 0.1400(4) 1.4461(3) 0.19955(19)
H30 H 0.1666 1.4786 0.2379
C31 C 0.2387(3) 1.3421(3) 0.17238(18)
H31 H 0.3297 1.3052 0.1927
Mn1A Mn 0.57718(3) -0.34860(3) 0.582789(19)
Mn1_2 Mn 1.42282(3) 0.34860(3) 0.417211(19)
Mn1A_2 Mn 1.57718(3) -0.34860(3) 0.582789(19)
Mn2_2 Mn 1.5000 0.0000 0.5000
O1A O 0.49494(17) -0.26649(14) 0.68992(10)
O2A O 0.45269(16) -0.04341(14) 0.63491(9)
O3A O 0.1341(3) 0.26219(19) 0.80050(13)
H1A H 0.0883 0.3341 0.8109
O4A O 0.0850(3) 0.1829(2) 0.93943(14)
O5A O 0.84014(15) -0.36943(14) 0.58629(10)
O6A O 0.68311(13) -0.19206(13) 0.51405(9)
O6_2 O 0.31689(13) 0.19206(13) 0.48595(9)
O7A O 1.36114(15) -0.33606(14) 0.55724(10)
O7A_2 O 0.36114(15) -0.33606(14) 0.55724(10)
O8A O 1.38352(16) -0.13302(16) 0.49514(11)
O8A_2 O 0.38352(16) -0.13302(16) 0.49514(11)
O9A O 0.66357(18) -0.44113(17) 0.47942(11)
H2A H 0.7377 -0.4242 0.4522
H3A H 0.6504 -0.5057 0.4691
N1A N 0.5965(2) -0.54809(18) 0.67994(13)
N2A N 0.9920(3) -1.5030(2) 0.82628(15)
C1A C 0.4439(2) -0.1466(2) 0.69403(13)
C2A C 0.3628(2) -0.1243(2) 0.77763(13)
C3A C 0.3553(2) -0.2339(2) 0.84828(15)
H6A H 0.4015 -0.3208 0.8435
C4A C 0.2802(3) -0.2162(3) 0.92588(16)
C5A C 0.2087(3) -0.0855(3) 0.93062(16)
H7A H 0.1562 -0.0718 0.9816
C6A C 0.2140(3) 0.0255(2) 0.86066(15)
C7A C 0.2918(2) 0.0062(2) 0.78402(14)
H8A H 0.2964 0.0800 0.7373
C8A C 0.1371(3) 0.1639(3) 0.87075(18)
C9A C 0.2781(4) -0.3372(3) 1.00328(18)
H9A H 0.1881 -0.3175 1.0381
H10A H 0.2879 -0.4143 0.9843
H11A H 0.3568 -0.3560 1.0362
C10A C 0.81305(19) -0.25643(19) 0.53282(13)
C11A C 0.92989(19) -0.19186(18) 0.48786(13)
C12A C 1.06663(19) -0.24055(18) 0.51703(13)
H12A H 1.0897 -0.3184 0.5622
C13A C 1.16918(19) -0.17156(19) 0.47790(13)
C14A C 1.1345(2) -0.0559(2) 0.40984(14)
H13A H 1.2025 -0.0093 0.3852
C15A C 1.0001(2) -0.0088(2) 0.37790(13)
C16A C 0.8985(2) -0.07844(19) 0.41802(13)
H14A H 0.8079 -0.0483 0.3976
C17A C 0.9616(3) 0.1175(2) 0.30433(16)
H15A H 1.0338 0.1636 0.2933
H16A H 0.9574 0.0934 0.2541
H17A H 0.8690 0.1756 0.3189
C18A C 1.3137(2) -0.2161(2) 0.51228(14)
C19A C 0.4790(3) -0.5684(3) 0.7319(2)
H18A H 0.3926 -0.4991 0.7247
C20A C 0.4789(4) -0.6849(3) 0.7946(2)
H19A H 0.3933 -0.6935 0.8279
C21A C 0.6024(3) -0.7884(2) 0.80882(17)
C22A C 0.7267(3) -0.7681(3) 0.7567(2)
H20A H 0.8150 -0.8348 0.7647
C23A C 0.7177(3) -0.6474(2) 0.69280(17)
H21A H 0.8010 -0.6363 0.6576
C24A C 0.6037(4) -0.9201(3) 0.8773(2)
H22A H 0.5054 -0.9260 0.8921
H23A H 0.6381 -0.9193 0.9284
C25A C 0.6961(4) -1.0417(3) 0.8506(2)
H24A H 0.6670 -1.0378 0.7967
H25A H 0.7957 -1.0389 0.8403
C26A C 0.6900(3) -1.1765(2) 0.91521(18)
H26A H 0.5928 -1.1844 0.9222
H27A H 0.7135 -1.1798 0.9704
C27A C 0.7955(3) -1.2917(2) 0.88444(15)
C28A C 0.9348(3) -1.3464(3) 0.90853(19)
H28A H 0.9652 -1.3125 0.9446
C29A C 1.0282(3) -1.4511(3) 0.8789(2)
H29A H 1.1212 -1.4875 0.8964
C30A C 0.8600(4) -1.4461(3) 0.80045(19)
H30A H 0.8334 -1.4786 0.7621
C31A C 0.7613(3) -1.3421(3) 0.82762(18)
H31A H 0.6703 -1.3052 0.8073
O10 O 0.0886(2) 0.40824(19) 0.61511(13)
H4 H 0.0182 0.4775 0.6092
H5 H 0.0882 0.3583 0.6647
loop_
_geom_bond_atom_site_label_1
_geom_bond_atom_site_label_2
_geom_bond_site_symmetry_1
_geom_bond_site_symmetry_2
Mn1 O1 1_555 1_555
Mn2 O2 1_555 1_555
O1 C1 1_555 1_555
O2 C1 1_555 1_555
O3 H1 1_555 1_555
O4 C8 1_555 1_555
O5 C10 1_555 1_555
O6 C10 1_555 1_555
O7 Mn1 1_555 1_555
O8 Mn2 1_555 1_555
O9 Mn1 1_555 1_555
H2 O9 1_555 1_555
H3 O9 1_555 1_555
O10 H4 1_555 1_555
H5 O10 1_555 1_555
N1 Mn1 1_555 1_555
N2 C29 1_555 1_555
C1 C2 1_555 1_555
C2 C3 1_555 1_555
C3 H6 1_555 1_555
C4 C3 1_555 1_555
C5 C4 1_555 1_555
H7 C5 1_555 1_555
C6 C5 1_555 1_555
C7 C2 1_555 1_555
H8 C7 1_555 1_555
C8 O3 1_555 1_555
C9 C4 1_555 1_555
H9 C9 1_555 1_555
H10 C9 1_555 1_555
H11 C9 1_555 1_555
C10 C11 1_555 1_555
C11 C12 1_555 1_555
C12 H12 1_555 1_555
C13 C12 1_555 1_555
C14 C13 1_555 1_555
H13 C14 1_555 1_555
C15 C14 1_555 1_555
C16 C11 1_555 1_555
H14 C16 1_555 1_555
C17 C15 1_555 1_555
H15 C17 1_555 1_555
H16 C17 1_555 1_555
H17 C17 1_555 1_555
C18 O7 1_555 1_555
C19 N1 1_555 1_555
H18 C19 1_555 1_555
C20 C19 1_555 1_555
H19 C20 1_555 1_555
C21 C20 1_555 1_555
C22 C21 1_555 1_555
H20 C22 1_555 1_555
C23 N1 1_555 1_555
H21 C23 1_555 1_555
C24 C21 1_555 1_555
H22 C24 1_555 1_555
H23 C24 1_555 1_555
C25 C24 1_555 1_555
H24 C25 1_555 1_555
H25 C25 1_555 1_555
C26 C25 1_555 1_555
H26 C26 1_555 1_555
H27 C26 1_555 1_555
C27 C26 1_555 1_555
C28 C27 1_555 1_555
H28 C28 1_555 1_555
C29 C28 1_555 1_555
H29 C29 1_555 1_555
C30 N2 1_555 1_555
H30 C30 1_555 1_555
C31 C27 1_555 1_555
H31 C31 1_555 1_555
Mn1A O1A 1_555 1_555
Mn1_2 O6 1_555 1_555
Mn1A_2 O7A 1_555 1_555
Mn2_2 O6 1_555 1_555
O1A C1A 1_555 1_555
O2A Mn2 1_555 1_555
O3A H1A 1_555 1_555
O4A C8A 1_555 1_555
O5A C10A 1_555 1_555
O6A Mn2 1_555 1_555
O6_2 Mn1 1_555 1_555
O7A C18A 1_555 1_555
O7A_2 Mn1A 1_555 1_555
O8A Mn2_2 1_555 1_555
O8A_2 Mn2 1_555 1_555
O9A Mn1A 1_555 1_555
H2A O9A 1_555 1_555
H3A O9A 1_555 1_555
N1A Mn1A 1_555 1_555
N2A C29A 1_555 1_555
C1A O2A 1_555 1_555
C2A C1A 1_555 1_555
C3A C2A 1_555 1_555
H6A C3A 1_555 1_555
C4A C3A 1_555 1_555
C5A C4A 1_555 1_555
H7A C5A 1_555 1_555
C6A C5A 1_555 1_555
C7A C2A 1_555 1_555
H8A C7A 1_555 1_555
C8A O3A 1_555 1_555
C9A C4A 1_555 1_555
H9A C9A 1_555 1_555
H10A C9A 1_555 1_555
H11A C9A 1_555 1_555
C10A O6A 1_555 1_555
C11A C10A 1_555 1_555
C12A C11A 1_555 1_555
H12A C12A 1_555 1_555
C13A C12A 1_555 1_555
C14A C13A 1_555 1_555
H13A C14A 1_555 1_555
C15A C14A 1_555 1_555
C16A C11A 1_555 1_555
H14A C16A 1_555 1_555
C17A C15A 1_555 1_555
H15A C17A 1_555 1_555
H16A C17A 1_555 1_555
H17A C17A 1_555 1_555
C18A O8A 1_555 1_555
C19A N1A 1_555 1_555
H18A C19A 1_555 1_555
C20A C19A 1_555 1_555
H19A C20A 1_555 1_555
C21A C20A 1_555 1_555
C22A C21A 1_555 1_555
H20A C22A 1_555 1_555
C23A N1A 1_555 1_555
H21A C23A 1_555 1_555
C24A C21A 1_555 1_555
H22A C24A 1_555 1_555
H23A C24A 1_555 1_555
C25A C24A 1_555 1_555
H24A C25A 1_555 1_555
H25A C25A 1_555 1_555
C26A C25A 1_555 1_555
H26A C26A 1_555 1_555
H27A C26A 1_555 1_555
C27A C26A 1_555 1_555
C28A C27A 1_555 1_555
H28A C28A 1_555 1_555
C29A C28A 1_555 1_555
H29A C29A 1_555 1_555
C30A N2A 1_555 1_555
H30A C30A 1_555 1_555
C31A C27A 1_555 1_555
H31A C31A 1_555 1_555
Mn2 O6_2 1_555 1_555
O8 C18 1_555 1_555
C6 C7 1_555 1_555
C6 C8 1_555 1_555
C13 C18 1_555 1_555
C15 C16 1_555 1_555
C22 C23 1_555 1_555
C30 C31 1_555 1_555
Mn1A O6A 1_555 1_555
C6A C7A 1_555 1_555
C6A C8A 1_555 1_555
C13A C18A 1_555 1_555
C15A C16A 1_555 1_555
C22A C23A 1_555 1_555
C30A C31A 1_555 1_555

#END
