
#######################################################################
#
#                 Cambridge Crystallographic Data Centre
#                                CCDC 
#
#######################################################################
#
# If this CIF has been generated from an entry in the Cambridge 
# Structural Database, then it will include bibliographic, chemical, 
# crystal, experimental, refinement or atomic coordinate data resulting 
# from the CCDC's data processing and validation procedures.
#
#######################################################################

data_WOPDIP
_symmetry_cell_setting           triclinic
_symmetry_space_group_name_H-M   'P -1'
_symmetry_Int_Tables_number      2
_space_group_name_Hall           '-P 1'
loop_
_symmetry_equiv_pos_site_id
_symmetry_equiv_pos_as_xyz
1 x,y,z
2 -x,-y,-z
_cell_length_a                   10.3090(12)
_cell_length_b                   11.4973(14)
_cell_length_c                   11.4980(14)
_cell_angle_alpha                73.492(1)
_cell_angle_beta                 71.723(1)
_cell_angle_gamma                76.497(1)
_cell_volume                     1225.01
loop_
_atom_site_label
_atom_site_type_symbol
_atom_site_fract_x
_atom_site_fract_y
_atom_site_fract_z
Mn1 Mn 0.60794(4) 0.09480(4) 1.06872(4)
O1 O 0.6799(2) 0.2320(2) 1.1478(2)
O2 O 0.8270(2) 0.0982(2) 1.0484(3)
O3 O 1.3910(2) 0.1482(2) 1.1349(2)
O4 O 1.3292(2) 0.0331(2) 1.0439(3)
N1 N 0.5874(3) 0.2596(2) 0.9028(2)
N2 N 0.5959(3) 0.9586(2) 0.2593(3)
C1 C 0.8011(3) 0.1816(3) 1.1067(3)
C2 C 0.9201(3) 0.2199(3) 1.1289(3)
C3 C 1.0520(3) 0.1523(2) 1.1010(3)
H1 H 1.0682 0.0836 1.0680
C4 C 1.1598(3) 0.1899(2) 1.1234(3)
C5 C 1.1342(3) 0.2951(3) 1.1691(3)
H2 H 1.2066 0.3185 1.1846
C6 C 1.0048(3) 0.3662(3) 1.1922(3)
C7 C 0.8975(3) 0.3247(3) 1.1739(3)
H3 H 0.8083 0.3684 1.1925
C8 C 1.3033(3) 0.1181(2) 1.0977(3)
C9 C 0.9775(4) 0.4847(3) 1.2388(4)
C10 C 1.1102(6) 0.5465(5) 1.1877(7)
H4 H 1.0948 0.6166 1.2228
H5 H 1.1308 0.5724 1.0977
H6 H 1.1865 0.4887 1.2112
C11 C 0.9394(9) 0.4535(5) 1.3788(5)
H7 H 0.8531 0.4224 1.4104
H8 H 0.9301 0.5258 1.4085
H9 H 1.0103 0.3921 1.4077
C12 C 0.8696(5) 0.5799(4) 1.1859(5)
H10 H 0.7795 0.5582 1.2295
H11 H 0.8875 0.5831 1.0980
H12 H 0.8731 0.6588 1.1965
C13 C 0.5093(3) 0.3661(3) 0.9265(3)
H13 H 0.4644 0.3694 1.0097
C14 C 0.4927(4) 0.4698(3) 0.8344(3)
H14 H 0.4383 0.5414 0.8556
C15 C 0.5570(4) 0.4677(3) 0.7097(3)
C16 C 0.6355(6) 0.3586(4) 0.6866(4)
H15 H 0.6807 0.3525 0.6042
C17 C 0.6482(5) 0.2577(3) 0.7841(4)
H16 H 0.7021 0.1851 0.7651
C18 C 0.5406(6) 0.5801(4) 0.6047(4)
H17 H 0.5891 0.5581 0.5249
H18 H 0.4432 0.6033 0.6071
C19 C 0.5928(5) 0.6902(3) 0.6091(4)
H19 H 0.5344 0.7223 0.6811
H20 H 0.6860 0.6657 0.6190
C20 C 0.5926(4) 0.7886(3) 0.4911(3)
C21 C 0.4743(5) 0.8614(4) 0.4656(4)
H21 H 0.3899 0.8548 0.5259
C22 C 0.4792(4) 0.9441(4) 0.3517(4)
H22 H 0.3970 0.9925 0.3381
C23 C 0.7126(5) 0.8931(4) 0.2875(4)
H23 H 0.7962 0.9048 0.2276
C24 C 0.7162(5) 0.8098(4) 0.3994(4)
H24 H 0.8005 0.7678 0.4139
Mn1_2 Mn 1.60794(4) 0.09480(4) 1.06872(4)
Mn1A Mn 1.39206(4) -0.09480(4) 0.93128(4)
Mn1_3 Mn 0.60794(4) 1.09480(4) 0.06872(4)
O3_2 O 0.3910(2) 0.1482(2) 1.1349(2)
O4A O 0.6708(2) -0.0331(2) 0.9561(3)
N2_2 N 0.5959(3) -0.0414(2) 1.2593(3)
loop_
_geom_bond_atom_site_label_1
_geom_bond_atom_site_label_2
_geom_bond_site_symmetry_1
_geom_bond_site_symmetry_2
Mn1 O1 1_555 1_555
O1 C1 1_555 1_555
O2 Mn1 1_555 1_555
O3 C8 1_555 1_555
O4 C8 1_555 1_555
N1 Mn1 1_555 1_555
N2 C22 1_555 1_555
C1 O2 1_555 1_555
C2 C1 1_555 1_555
C3 C2 1_555 1_555
H1 C3 1_555 1_555
C4 C3 1_555 1_555
C5 C4 1_555 1_555
H2 C5 1_555 1_555
C6 C5 1_555 1_555
C7 C2 1_555 1_555
H3 C7 1_555 1_555
C8 C4 1_555 1_555
C9 C6 1_555 1_555
C10 C9 1_555 1_555
H4 C10 1_555 1_555
H5 C10 1_555 1_555
H6 C10 1_555 1_555
C11 C9 1_555 1_555
H7 C11 1_555 1_555
H8 C11 1_555 1_555
H9 C11 1_555 1_555
C12 C9 1_555 1_555
H10 C12 1_555 1_555
H11 C12 1_555 1_555
H12 C12 1_555 1_555
C13 N1 1_555 1_555
H13 C13 1_555 1_555
C14 C13 1_555 1_555
H14 C14 1_555 1_555
C15 C14 1_555 1_555
C16 C15 1_555 1_555
H15 C16 1_555 1_555
C17 N1 1_555 1_555
H16 C17 1_555 1_555
C18 C15 1_555 1_555
H17 C18 1_555 1_555
H18 C18 1_555 1_555
C19 C18 1_555 1_555
H19 C19 1_555 1_555
H20 C19 1_555 1_555
C20 C19 1_555 1_555
C21 C20 1_555 1_555
H21 C21 1_555 1_555
C22 C21 1_555 1_555
H22 C22 1_555 1_555
C23 N2 1_555 1_555
H23 C23 1_555 1_555
C24 C20 1_555 1_555
H24 C24 1_555 1_555
Mn1_2 O3 1_555 1_555
Mn1A O4 1_555 1_555
Mn1_3 N2 1_555 1_555
O3_2 Mn1 1_555 1_555
O4A Mn1 1_555 1_555
N2_2 Mn1 1_555 1_555
C6 C7 1_555 1_555
C16 C17 1_555 1_555
C23 C24 1_555 1_555

#END
