
#######################################################################
#
#                 Cambridge Crystallographic Data Centre
#                                CCDC 
#
#######################################################################
#
# If this CIF has been generated from an entry in the Cambridge 
# Structural Database, then it will include bibliographic, chemical, 
# crystal, experimental, refinement or atomic coordinate data resulting 
# from the CCDC's data processing and validation procedures.
#
#######################################################################

data_WOPFAJ
_symmetry_cell_setting           rhombohedral
_symmetry_space_group_name_H-M   'R -3'
_symmetry_Int_Tables_number      148
_space_group_name_Hall           '-R 3'
loop_
_symmetry_equiv_pos_site_id
_symmetry_equiv_pos_as_xyz
1 x,y,z
2 -y,x-y,z
3 -x+y,-x,z
4 2/3+x,1/3+y,1/3+z
5 2/3-y,1/3+x-y,1/3+z
6 2/3-x+y,1/3-x,1/3+z
7 1/3+x,2/3+y,2/3+z
8 1/3-y,2/3+x-y,2/3+z
9 1/3-x+y,2/3-x,2/3+z
10 -x,-y,-z
11 y,-x+y,-z
12 x-y,x,-z
13 1/3-x,2/3-y,2/3-z
14 1/3+y,2/3-x+y,2/3-z
15 1/3+x-y,2/3+x,2/3-z
16 2/3-x,1/3-y,1/3-z
17 2/3+y,1/3-x+y,1/3-z
18 2/3+x-y,1/3+x,1/3-z
_cell_length_a                   14.453(3)
_cell_length_b                   14.453(3)
_cell_length_c                   34.208(12)
_cell_angle_alpha                90
_cell_angle_beta                 90
_cell_angle_gamma                120.00
_cell_volume                     6188.34
loop_
_atom_site_label
_atom_site_type_symbol
_atom_site_fract_x
_atom_site_fract_y
_atom_site_fract_z
Er1 Er 0.6667 0.3333 0.113994(16)
Mn1 Mn 1.0000 0.5000 0.0000
N1 N 0.7473(4) 0.2183(4) 0.11153(15)
O1 O 0.8028(4) 0.3805(4) 0.06561(14)
O2 O 0.9278(5) 0.3585(5) 0.03561(17)
O3 O 0.6003(4) 0.1917(4) 0.16134(14)
O4 O 0.5792(5) 0.0375(5) 0.18304(19)
O5 O 0.8848(4) 0.0289(4) 0.10534(16)
H1 H 0.8543 -0.0228 0.1199
C1 C 0.8552(6) 0.3340(5) 0.0602(2)
C2 C 0.8260(5) 0.2382(5) 0.08613(19)
C3 C 0.8727(6) 0.1759(6) 0.0834(2)
H2 H 0.9277 0.1928 0.0657
C4 C 0.8369(6) 0.0877(6) 0.1074(2)
C5 C 0.7535(5) 0.0648(5) 0.1340(2)
H3 H 0.7275 0.0061 0.1506
C6 C 0.7121(5) 0.1323(5) 0.13466(18)
C7 C 0.6235(5) 0.1176(5) 0.1623(2)
O6 O 1.1482(7) 0.4896(7) -0.0016(2)
O7 O 1.0563(8) 0.5945(7) 0.0537(3)
Er1I Er 1.3333 0.6667 -0.113994(16)
Er1J Er 0.3333 0.6666 -0.113994(16)
Er1K Er 0.3334 -0.3333 -0.113994(16)
Mn1A Mn 0.5000 0.5000 0.0000
Mn1B Mn 0.5000 0.0000 0.0000
N1A N 0.7817(4) 0.5290(6) 0.11153(15)
N1B N 0.4710(6) 0.2527(4) 0.11153(15)
N1I N 1.2527(4) 0.7817(4) -0.11153(15)
N1J N 0.2183(4) 0.4710(6) -0.11153(15)
N1K N 0.5290(6) -0.2527(4) -0.11153(15)
N1J_2 N 1.2183(4) 0.4710(6) -0.11153(15)
N1K_2 N 1.5290(6) 0.7473(4) -0.11153(15)
O1A O 0.6195(4) 0.4223(6) 0.06561(14)
O1B O 0.5777(6) 0.1972(4) 0.06561(14)
O1I O 1.1972(4) 0.6195(4) -0.06561(14)
O1J O 0.3805(4) 0.5777(6) -0.06561(14)
O1K O 0.4223(6) -0.1972(4) -0.06561(14)
O1J_2 O 1.3805(4) 0.5777(6) -0.06561(14)
O1K_2 O 1.4223(6) 0.8028(4) -0.06561(14)
O2A O 0.6415(5) 0.5693(7) 0.03561(17)
O2B O 0.4307(7) 0.0722(5) 0.03561(17)
O2I O 1.0722(5) 0.6415(5) -0.03561(17)
O2J O 0.3585(5) 0.4307(7) -0.03561(17)
O2K O 0.5693(7) -0.0722(5) -0.03561(17)
O3A O 0.8083(4) 0.4086(6) 0.16134(14)
O3B O 0.5914(6) 0.3997(4) 0.16134(14)
O3I O 1.3997(4) 0.8083(4) -0.16134(14)
O3J O 0.1917(4) 0.5914(6) -0.16134(14)
O3K O 0.4086(6) -0.3997(4) -0.16134(14)
O3J_2 O 1.1917(4) 0.5914(6) -0.16134(14)
O3K_2 O 1.4086(6) 0.6003(4) -0.16134(14)
O4A O 0.9625(5) 0.5417(7) 0.18304(19)
O4B O 0.4583(7) 0.4208(5) 0.18304(19)
O4I O 1.4208(5) 0.9625(5) -0.18304(19)
O4J O 0.0375(5) 0.4583(7) -0.18304(19)
O4K O 0.5417(7) -0.4208(5) -0.18304(19)
O5A O 0.9711(4) 0.8559(6) 0.10534(16)
O5B O 0.1441(6) 0.1152(4) 0.10534(16)
O5I O 1.1152(4) 0.9711(4) -0.10534(16)
O5J O 0.0289(4) 0.1441(6) -0.10534(16)
O5K O 0.8559(6) -0.1152(4) -0.10534(16)
H1A H 1.0228 0.8771 0.1199
H1B H 0.1229 0.1457 0.1199
H1I H 1.1457 1.0228 -0.1199
H1J H -0.0228 0.1229 -0.1199
H1K H 0.8771 -0.1457 -0.1199
C1A C 0.6660(5) 0.5212(8) 0.0602(2)
C1B C 0.4788(8) 0.1448(6) 0.0602(2)
C1I C 1.1448(6) 0.6660(5) -0.0602(2)
C1J C 0.3340(5) 0.4788(8) -0.0602(2)
C1K C 0.5212(8) -0.1448(6) -0.0602(2)
C2A C 0.7618(5) 0.5878(7) 0.08613(19)
C2B C 0.4122(7) 0.1740(5) 0.08613(19)
C2I C 1.1740(5) 0.7618(5) -0.08613(19)
C2J C 0.2382(5) 0.4122(7) -0.08613(19)
C2K C 0.5878(7) -0.1740(5) -0.08613(19)
C3A C 0.8241(6) 0.6968(8) 0.0834(2)
C3B C 0.3032(8) 0.1273(6) 0.0834(2)
C3I C 1.1273(6) 0.8241(6) -0.0834(2)
C3J C 0.1759(6) 0.3032(8) -0.0834(2)
C3K C 0.6968(8) -0.1273(6) -0.0834(2)
H2A H 0.8072 0.7349 0.0657
H2B H 0.2651 0.0723 0.0657
H2I H 1.0723 0.8072 -0.0657
H2J H 0.1928 0.2651 -0.0657
H2K H 0.7349 -0.0723 -0.0657
C4A C 0.9123(6) 0.7492(8) 0.1074(2)
C4B C 0.2508(8) 0.1631(6) 0.1074(2)
C4I C 1.1631(6) 0.9123(6) -0.1074(2)
C4J C 0.0877(6) 0.2508(8) -0.1074(2)
C4K C 0.7492(8) -0.1631(6) -0.1074(2)
C5A C 0.9352(5) 0.6887(7) 0.1340(2)
C5B C 0.3113(7) 0.2465(5) 0.1340(2)
C5I C 1.2465(5) 0.9352(5) -0.1340(2)
C5J C 0.0648(5) 0.3113(7) -0.1340(2)
C5K C 0.6887(7) -0.2465(5) -0.1340(2)
H3A H 0.9939 0.7214 0.1506
H3B H 0.2786 0.2725 0.1506
H3I H 1.2725 0.9939 -0.1506
H3J H 0.0061 0.2786 -0.1506
H3K H 0.7214 -0.2725 -0.1506
C6A C 0.8677(5) 0.5798(7) 0.13466(18)
C6B C 0.4202(7) 0.2879(5) 0.13466(18)
C6I C 1.2879(5) 0.8677(5) -0.13466(18)
C6J C 0.1323(5) 0.4202(7) -0.13466(18)
C6K C 0.5798(7) -0.2879(5) -0.13466(18)
C7A C 0.8824(5) 0.5059(7) 0.1623(2)
C7B C 0.4941(7) 0.3765(5) 0.1623(2)
C7I C 1.3765(5) 0.8824(5) -0.1623(2)
C7J C 0.1176(5) 0.4941(7) -0.1623(2)
C7K C 0.5059(7) -0.3765(5) -0.1623(2)
O6I O 0.8518(7) 0.5104(7) 0.0016(2)
O6A O 0.5104(7) 0.6586(10) -0.0016(2)
O6J O 0.4896(7) 0.3414(10) 0.0016(2)
O6B O 0.3414(10) -0.1482(7) -0.0016(2)
O6K O 0.6586(10) 0.1482(7) 0.0016(2)
O7I O 0.9437(8) 0.4055(7) -0.0537(3)
O7A O 0.4055(7) 0.4618(11) 0.0537(3)
O7J O 0.5945(7) 0.5382(11) -0.0537(3)
O7B O 0.5382(11) -0.0563(8) 0.0537(3)
O7K O 0.4618(11) 0.0563(8) -0.0537(3)
O8 O 0.3333 0.6667 0.0367(6)
O9 O 0.1853(10) 0.3643(12) 0.0699(5)
O10 O 0.1025(15) 0.5093(16) 0.1244(5)
O11 O 0.3333 0.6667 0.1148(11)
O12 O 0.102(3) 0.275(2) 0.0092(7)
O13 O 0.075(4) 0.149(4) 0.0263(8)
loop_
_geom_bond_atom_site_label_1
_geom_bond_atom_site_label_2
_geom_bond_site_symmetry_1
_geom_bond_site_symmetry_2
Er1 N1 1_555 1_555
Mn1 O2 1_555 1_555
N1 C2 1_555 1_555
O1 Er1 1_555 1_555
O2 C1 1_555 1_555
O3 Er1 1_555 1_555
O4 C7 1_555 1_555
O5 H1 1_555 1_555
C1 O1 1_555 1_555
C2 C1 1_555 1_555
C3 C2 1_555 1_555
H2 C3 1_555 1_555
C4 O5 1_555 1_555
C5 C4 1_555 1_555
H3 C5 1_555 1_555
C6 N1 1_555 1_555
C7 O3 1_555 1_555
O6 Mn1 1_555 1_555
O7 Mn1 1_555 1_555
Er1I N1I 1_555 1_555
Er1J N1J 1_555 1_555
Er1K N1K 1_555 1_555
Mn1A O2A 1_555 1_555
Mn1B O2B 1_555 1_555
N1A Er1 1_555 1_555
N1B Er1 1_555 1_555
N1I C2I 1_555 1_555
N1J C2J 1_555 1_555
N1K C2K 1_555 1_555
N1J_2 Er1I 1_555 1_555
N1K_2 Er1I 1_555 1_555
O1A Er1 1_555 1_555
O1B Er1 1_555 1_555
O1I Er1I 1_555 1_555
O1J Er1J 1_555 1_555
O1K Er1K 1_555 1_555
O1J_2 Er1I 1_555 1_555
O1K_2 Er1I 1_555 1_555
O2A C1A 1_555 1_555
O2B C1B 1_555 1_555
O2I Mn1 1_555 1_555
O2J Mn1A 1_555 1_555
O2K Mn1B 1_555 1_555
O3A Er1 1_555 1_555
O3B Er1 1_555 1_555
O3I Er1I 1_555 1_555
O3J Er1J 1_555 1_555
O3K Er1K 1_555 1_555
O3J_2 Er1I 1_555 1_555
O3K_2 Er1I 1_555 1_555
O4A C7A 1_555 1_555
O4B C7B 1_555 1_555
O4I C7I 1_555 1_555
O4J C7J 1_555 1_555
O4K C7K 1_555 1_555
O5A H1A 1_555 1_555
O5B H1B 1_555 1_555
O5I H1I 1_555 1_555
O5J H1J 1_555 1_555
O5K H1K 1_555 1_555
C1A O1A 1_555 1_555
C1B O1B 1_555 1_555
C1I O1I 1_555 1_555
C1J O1J 1_555 1_555
C1K O1K 1_555 1_555
C2A N1A 1_555 1_555
C2B N1B 1_555 1_555
C2I C1I 1_555 1_555
C2J C1J 1_555 1_555
C2K C1K 1_555 1_555
C3A C2A 1_555 1_555
C3B C2B 1_555 1_555
C3I C2I 1_555 1_555
C3J C2J 1_555 1_555
C3K C2K 1_555 1_555
H2A C3A 1_555 1_555
H2B C3B 1_555 1_555
H2I C3I 1_555 1_555
H2J C3J 1_555 1_555
H2K C3K 1_555 1_555
C4A O5A 1_555 1_555
C4B O5B 1_555 1_555
C4I O5I 1_555 1_555
C4J O5J 1_555 1_555
C4K O5K 1_555 1_555
C5A C4A 1_555 1_555
C5B C4B 1_555 1_555
C5I C4I 1_555 1_555
C5J C4J 1_555 1_555
C5K C4K 1_555 1_555
H3A C5A 1_555 1_555
H3B C5B 1_555 1_555
H3I C5I 1_555 1_555
H3J C5J 1_555 1_555
H3K C5K 1_555 1_555
C6A N1A 1_555 1_555
C6B N1B 1_555 1_555
C6I N1I 1_555 1_555
C6J N1J 1_555 1_555
C6K N1K 1_555 1_555
C7A O3A 1_555 1_555
C7B O3B 1_555 1_555
C7I O3I 1_555 1_555
C7J O3J 1_555 1_555
C7K O3K 1_555 1_555
O6I Mn1 1_555 1_555
O6A Mn1A 1_555 1_555
O6J Mn1A 1_555 1_555
O6B Mn1B 1_555 1_555
O6K Mn1B 1_555 1_555
O7I Mn1 1_555 1_555
O7A Mn1A 1_555 1_555
O7J Mn1A 1_555 1_555
O7B Mn1B 1_555 1_555
O7K Mn1B 1_555 1_555
C3 C4 1_555 1_555
C5 C6 1_555 1_555
C6 C7 1_555 1_555
O2I C1I 1_555 1_555
O2J C1J 1_555 1_555
O2K C1K 1_555 1_555
C1A C2A 1_555 1_555
C1B C2B 1_555 1_555
C3A C4A 1_555 1_555
C3B C4B 1_555 1_555
C3I C4I 1_555 1_555
C3J C4J 1_555 1_555
C3K C4K 1_555 1_555
C5A C6A 1_555 1_555
C5B C6B 1_555 1_555
C5I C6I 1_555 1_555
C5J C6J 1_555 1_555
C5K C6K 1_555 1_555
C6A C7A 1_555 1_555
C6B C7B 1_555 1_555
C6I C7I 1_555 1_555
C6J C7J 1_555 1_555
C6K C7K 1_555 1_555

#END
