
#######################################################################
#
#                 Cambridge Crystallographic Data Centre
#                                CCDC 
#
#######################################################################
#
# If this CIF has been generated from an entry in the Cambridge 
# Structural Database, then it will include bibliographic, chemical, 
# crystal, experimental, refinement or atomic coordinate data resulting 
# from the CCDC's data processing and validation procedures.
#
#######################################################################

data_WOPFEN
_symmetry_cell_setting           rhombohedral
_symmetry_space_group_name_H-M   'R -3'
_symmetry_Int_Tables_number      148
_space_group_name_Hall           '-R 3'
loop_
_symmetry_equiv_pos_site_id
_symmetry_equiv_pos_as_xyz
1 x,y,z
2 -y,x-y,z
3 -x+y,-x,z
4 2/3+x,1/3+y,1/3+z
5 2/3-y,1/3+x-y,1/3+z
6 2/3-x+y,1/3-x,1/3+z
7 1/3+x,2/3+y,2/3+z
8 1/3-y,2/3+x-y,2/3+z
9 1/3-x+y,2/3-x,2/3+z
10 -x,-y,-z
11 y,-x+y,-z
12 x-y,x,-z
13 1/3-x,2/3-y,2/3-z
14 1/3+y,2/3-x+y,2/3-z
15 1/3+x-y,2/3+x,2/3-z
16 2/3-x,1/3-y,1/3-z
17 2/3+y,1/3-x+y,1/3-z
18 2/3+x-y,1/3+x,1/3-z
_cell_length_a                   14.419(2)
_cell_length_b                   14.419(2)
_cell_length_c                   34.057(10)
_cell_angle_alpha                90
_cell_angle_beta                 90
_cell_angle_gamma                120.00
_cell_volume                     6132.07
loop_
_atom_site_label
_atom_site_type_symbol
_atom_site_fract_x
_atom_site_fract_y
_atom_site_fract_z
Ho1 Ho 0.6667 0.3333 0.114384(11)
Mn1 Mn 1.0000 0.5000 0.0000
N1 N 0.7481(3) 0.2180(3) 0.11204(11)
O1 O 0.8031(3) 0.3803(3) 0.06573(11)
O2 O 0.9279(3) 0.3587(3) 0.03560(13)
O3 O 0.6013(3) 0.1912(3) 0.16207(10)
O4 O 0.5799(4) 0.0359(3) 0.18318(14)
O5 O 0.8844(3) 0.0274(3) 0.10479(12)
H1 H 0.8651 -0.0149 0.1232
C1 C 0.8556(4) 0.3335(4) 0.06057(15)
C2 C 0.8258(4) 0.2377(4) 0.08626(14)
C3 C 0.8720(4) 0.1747(4) 0.08320(15)
H2 H 0.9265 0.1913 0.0651
C4 C 0.8367(4) 0.0864(4) 0.10730(15)
C5 C 0.7531(4) 0.0630(4) 0.13378(15)
H3 H 0.7259 0.0030 0.1499
C6 C 0.7128(4) 0.1313(4) 0.13516(15)
C7 C 0.6241(4) 0.1167(4) 0.16264(15)
O6 O 1.1475(5) 0.4892(5) -0.00184(19)
O7 O 1.0555(7) 0.5943(5) 0.0538(2)
Ho1I Ho 1.3333 0.6667 -0.114384(11)
Ho1J Ho 0.3333 0.6666 -0.114384(11)
Ho1K Ho 0.3334 -0.3333 -0.114384(11)
Mn1A Mn 0.5000 0.5000 0.0000
Mn1B Mn 0.5000 0.0000 0.0000
N1A N 0.7820(3) 0.5301(4) 0.11204(11)
N1B N 0.4699(4) 0.2519(3) 0.11204(11)
N1I N 1.2519(3) 0.7820(3) -0.11204(11)
N1J N 0.2180(3) 0.4699(4) -0.11204(11)
N1K N 0.5301(4) -0.2519(3) -0.11204(11)
N1J_2 N 1.2180(3) 0.4699(4) -0.11204(11)
N1K_2 N 1.5301(4) 0.7481(3) -0.11204(11)
O1A O 0.6197(3) 0.4228(4) 0.06573(11)
O1B O 0.5772(4) 0.1969(3) 0.06573(11)
O1I O 1.1969(3) 0.6197(3) -0.06573(11)
O1J O 0.3803(3) 0.5772(4) -0.06573(11)
O1K O 0.4228(4) -0.1969(3) -0.06573(11)
O1J_2 O 1.3803(3) 0.5772(4) -0.06573(11)
O1K_2 O 1.4228(4) 0.8031(3) -0.06573(11)
O2A O 0.6413(3) 0.5692(4) 0.03560(13)
O2B O 0.4308(4) 0.0721(3) 0.03560(13)
O2I O 1.0721(3) 0.6413(3) -0.03560(13)
O2J O 0.3587(3) 0.4308(4) -0.03560(13)
O2K O 0.5692(4) -0.0721(3) -0.03560(13)
O3A O 0.8088(3) 0.4101(4) 0.16207(10)
O3B O 0.5899(4) 0.3987(3) 0.16207(10)
O3I O 1.3987(3) 0.8088(3) -0.16207(10)
O3J O 0.1912(3) 0.5899(4) -0.16207(10)
O3K O 0.4101(4) -0.3987(3) -0.16207(10)
O3J_2 O 1.1912(3) 0.5899(4) -0.16207(10)
O3K_2 O 1.4101(4) 0.6013(3) -0.16207(10)
O4A O 0.9641(3) 0.5440(5) 0.18318(14)
O4B O 0.4560(5) 0.4201(4) 0.18318(14)
O4I O 1.4201(4) 0.9641(3) -0.18318(14)
O4J O 0.0359(3) 0.4560(5) -0.18318(14)
O4K O 0.5440(5) -0.4201(4) -0.18318(14)
O5A O 0.9726(3) 0.8570(4) 0.10479(12)
O5B O 0.1430(4) 0.1156(3) 0.10479(12)
O5I O 1.1156(3) 0.9726(3) -0.10479(12)
O5J O 0.0274(3) 0.1430(4) -0.10479(12)
O5K O 0.8570(4) -0.1156(3) -0.10479(12)
H1A H 1.0149 0.8800 0.1232
H1B H 0.1200 0.1349 0.1232
H1I H 1.1349 1.0149 -0.1232
H1J H -0.0149 0.1200 -0.1232
H1K H 0.8800 -0.1349 -0.1232
C1A C 0.6665(4) 0.5221(6) 0.06057(15)
C1B C 0.4779(6) 0.1444(4) 0.06057(15)
C1I C 1.1444(4) 0.6665(4) -0.06057(15)
C1J C 0.3335(4) 0.4779(6) -0.06057(15)
C1K C 0.5221(6) -0.1444(4) -0.06057(15)
C2A C 0.7623(4) 0.5881(6) 0.08626(14)
C2B C 0.4119(6) 0.1742(4) 0.08626(14)
C2I C 1.1742(4) 0.7623(4) -0.08626(14)
C2J C 0.2377(4) 0.4119(6) -0.08626(14)
C2K C 0.5881(6) -0.1742(4) -0.08626(14)
C3A C 0.8253(4) 0.6973(6) 0.08320(15)
C3B C 0.3027(6) 0.1280(4) 0.08320(15)
C3I C 1.1280(4) 0.8253(4) -0.08320(15)
C3J C 0.1747(4) 0.3027(6) -0.08320(15)
C3K C 0.6973(6) -0.1280(4) -0.08320(15)
H2A H 0.8087 0.7352 0.0651
H2B H 0.2648 0.0735 0.0651
H2I H 1.0735 0.8087 -0.0651
H2J H 0.1913 0.2648 -0.0651
H2K H 0.7352 -0.0735 -0.0651
C4A C 0.9136(4) 0.7503(6) 0.10730(15)
C4B C 0.2497(6) 0.1633(4) 0.10730(15)
C4I C 1.1633(4) 0.9136(4) -0.10730(15)
C4J C 0.0864(4) 0.2497(6) -0.10730(15)
C4K C 0.7503(6) -0.1633(4) -0.10730(15)
C5A C 0.9370(4) 0.6901(6) 0.13378(15)
C5B C 0.3099(6) 0.2469(4) 0.13378(15)
C5I C 1.2469(4) 0.9370(4) -0.13378(15)
C5J C 0.0630(4) 0.3099(6) -0.13378(15)
C5K C 0.6901(6) -0.2469(4) -0.13378(15)
H3A H 0.9970 0.7229 0.1499
H3B H 0.2771 0.2741 0.1499
H3I H 1.2741 0.9970 -0.1499
H3J H 0.0030 0.2771 -0.1499
H3K H 0.7229 -0.2741 -0.1499
C6A C 0.8687(4) 0.5815(6) 0.13516(15)
C6B C 0.4185(6) 0.2872(4) 0.13516(15)
C6I C 1.2872(4) 0.8687(4) -0.13516(15)
C6J C 0.1313(4) 0.4185(6) -0.13516(15)
C6K C 0.5815(6) -0.2872(4) -0.13516(15)
C7A C 0.8833(4) 0.5074(6) 0.16264(15)
C7B C 0.4926(6) 0.3759(4) 0.16264(15)
C7I C 1.3759(4) 0.8833(4) -0.16264(15)
C7J C 0.1167(4) 0.4926(6) -0.16264(15)
C7K C 0.5074(6) -0.3759(4) -0.16264(15)
O6I O 0.8525(5) 0.5108(5) 0.00184(19)
O6A O 0.5108(5) 0.6583(7) -0.00184(19)
O6J O 0.4892(5) 0.3417(7) 0.00184(19)
O6B O 0.3417(7) -0.1475(5) -0.00184(19)
O6K O 0.6583(7) 0.1475(5) 0.00184(19)
O7I O 0.9445(7) 0.4057(5) -0.0538(2)
O7A O 0.4057(5) 0.4612(9) 0.0538(2)
O7J O 0.5943(5) 0.5388(9) -0.0538(2)
O7B O 0.5388(9) -0.0555(7) 0.0538(2)
O7K O 0.4612(9) 0.0555(7) -0.0538(2)
O8 O 0.3333 0.6667 0.0364(5)
O9 O 0.1842(8) 0.3640(10) 0.0709(4)
O10 O 0.1036(11) 0.5077(11) 0.1257(4)
O11 O 0.3333 0.6667 0.1163(7)
O12 O 0.104(3) 0.277(2) 0.0094(6)
O13 O 0.075(3) 0.143(3) 0.0275(6)
loop_
_geom_bond_atom_site_label_1
_geom_bond_atom_site_label_2
_geom_bond_site_symmetry_1
_geom_bond_site_symmetry_2
Ho1 N1 1_555 1_555
Mn1 O2 1_555 1_555
N1 C2 1_555 1_555
O1 Ho1 1_555 1_555
O2 C1 1_555 1_555
O3 Ho1 1_555 1_555
O4 C7 1_555 1_555
O5 H1 1_555 1_555
C1 O1 1_555 1_555
C2 C1 1_555 1_555
C3 C2 1_555 1_555
H2 C3 1_555 1_555
C4 O5 1_555 1_555
C5 C4 1_555 1_555
H3 C5 1_555 1_555
C6 N1 1_555 1_555
C7 O3 1_555 1_555
O6 Mn1 1_555 1_555
O7 Mn1 1_555 1_555
Ho1I N1I 1_555 1_555
Ho1J N1J 1_555 1_555
Ho1K N1K 1_555 1_555
Mn1A O2A 1_555 1_555
Mn1B O2B 1_555 1_555
N1A Ho1 1_555 1_555
N1B Ho1 1_555 1_555
N1I C2I 1_555 1_555
N1J C2J 1_555 1_555
N1K C2K 1_555 1_555
N1J_2 Ho1I 1_555 1_555
N1K_2 Ho1I 1_555 1_555
O1A Ho1 1_555 1_555
O1B Ho1 1_555 1_555
O1I Ho1I 1_555 1_555
O1J Ho1J 1_555 1_555
O1K Ho1K 1_555 1_555
O1J_2 Ho1I 1_555 1_555
O1K_2 Ho1I 1_555 1_555
O2A C1A 1_555 1_555
O2B C1B 1_555 1_555
O2I Mn1 1_555 1_555
O2J Mn1A 1_555 1_555
O2K Mn1B 1_555 1_555
O3A Ho1 1_555 1_555
O3B Ho1 1_555 1_555
O3I Ho1I 1_555 1_555
O3J Ho1J 1_555 1_555
O3K Ho1K 1_555 1_555
O3J_2 Ho1I 1_555 1_555
O3K_2 Ho1I 1_555 1_555
O4A C7A 1_555 1_555
O4B C7B 1_555 1_555
O4I C7I 1_555 1_555
O4J C7J 1_555 1_555
O4K C7K 1_555 1_555
O5A H1A 1_555 1_555
O5B H1B 1_555 1_555
O5I H1I 1_555 1_555
O5J H1J 1_555 1_555
O5K H1K 1_555 1_555
C1A O1A 1_555 1_555
C1B O1B 1_555 1_555
C1I O1I 1_555 1_555
C1J O1J 1_555 1_555
C1K O1K 1_555 1_555
C2A N1A 1_555 1_555
C2B N1B 1_555 1_555
C2I C1I 1_555 1_555
C2J C1J 1_555 1_555
C2K C1K 1_555 1_555
C3A C2A 1_555 1_555
C3B C2B 1_555 1_555
C3I C2I 1_555 1_555
C3J C2J 1_555 1_555
C3K C2K 1_555 1_555
H2A C3A 1_555 1_555
H2B C3B 1_555 1_555
H2I C3I 1_555 1_555
H2J C3J 1_555 1_555
H2K C3K 1_555 1_555
C4A O5A 1_555 1_555
C4B O5B 1_555 1_555
C4I O5I 1_555 1_555
C4J O5J 1_555 1_555
C4K O5K 1_555 1_555
C5A C4A 1_555 1_555
C5B C4B 1_555 1_555
C5I C4I 1_555 1_555
C5J C4J 1_555 1_555
C5K C4K 1_555 1_555
H3A C5A 1_555 1_555
H3B C5B 1_555 1_555
H3I C5I 1_555 1_555
H3J C5J 1_555 1_555
H3K C5K 1_555 1_555
C6A N1A 1_555 1_555
C6B N1B 1_555 1_555
C6I N1I 1_555 1_555
C6J N1J 1_555 1_555
C6K N1K 1_555 1_555
C7A O3A 1_555 1_555
C7B O3B 1_555 1_555
C7I O3I 1_555 1_555
C7J O3J 1_555 1_555
C7K O3K 1_555 1_555
O6I Mn1 1_555 1_555
O6A Mn1A 1_555 1_555
O6J Mn1A 1_555 1_555
O6B Mn1B 1_555 1_555
O6K Mn1B 1_555 1_555
O7I Mn1 1_555 1_555
O7A Mn1A 1_555 1_555
O7J Mn1A 1_555 1_555
O7B Mn1B 1_555 1_555
O7K Mn1B 1_555 1_555
C3 C4 1_555 1_555
C5 C6 1_555 1_555
C6 C7 1_555 1_555
O2I C1I 1_555 1_555
O2J C1J 1_555 1_555
O2K C1K 1_555 1_555
C1A C2A 1_555 1_555
C1B C2B 1_555 1_555
C3A C4A 1_555 1_555
C3B C4B 1_555 1_555
C3I C4I 1_555 1_555
C3J C4J 1_555 1_555
C3K C4K 1_555 1_555
C5A C6A 1_555 1_555
C5B C6B 1_555 1_555
C5I C6I 1_555 1_555
C5J C6J 1_555 1_555
C5K C6K 1_555 1_555
C6A C7A 1_555 1_555
C6B C7B 1_555 1_555
C6I C7I 1_555 1_555
C6J C7J 1_555 1_555
C6K C7K 1_555 1_555

#END
