
#######################################################################
#
#                 Cambridge Crystallographic Data Centre
#                                CCDC 
#
#######################################################################
#
# If this CIF has been generated from an entry in the Cambridge 
# Structural Database, then it will include bibliographic, chemical, 
# crystal, experimental, refinement or atomic coordinate data resulting 
# from the CCDC's data processing and validation procedures.
#
#######################################################################

data_WOPGUF
_symmetry_cell_setting           monoclinic
_symmetry_space_group_name_H-M   'P 2/c'
_symmetry_Int_Tables_number      13
_space_group_name_Hall           '-P 2yc'
loop_
_symmetry_equiv_pos_site_id
_symmetry_equiv_pos_as_xyz
1 x,y,z
2 -x,y,1/2-z
3 -x,-y,-z
4 x,-y,1/2+z
_cell_length_a                   20.103(3)
_cell_length_b                   9.6451(16)
_cell_length_c                   21.915(4)
_cell_angle_alpha                90
_cell_angle_beta                 107.832(2)
_cell_angle_gamma                90
_cell_volume                     4045.08
loop_
_atom_site_label
_atom_site_type_symbol
_atom_site_fract_x
_atom_site_fract_y
_atom_site_fract_z
Zn1 Zn 0.67261(3) 0.02214(6) 0.49438(3)
Zn2 Zn -0.14468(3) 1.51598(6) -0.03878(3)
C1 C 0.5766(2) 0.2426(5) 0.4396(3)
C2 C 0.5554(2) 0.3907(5) 0.4389(2)
C3 C 0.6026(2) 0.4900(4) 0.4744(2)
H1 H 0.6460 0.4628 0.5014
C4 C 0.5841(2) 0.6290(5) 0.4688(2)
C5 C 0.5177(2) 0.6696(5) 0.4301(2)
H2 H 0.5055 0.7629 0.4266
C6 C 0.4707(2) 0.5714(5) 0.3974(2)
C7 C 0.4896(2) 0.4325(5) 0.4012(2)
H3 H 0.4579 0.3668 0.3783
C8 C 0.6355(2) 0.7388(5) 0.5010(2)
C9 C 0.3840(2) 0.7429(5) 0.3543(3)
H4 H 0.4183 0.8011 0.3439
H5 H 0.3803 0.7721 0.3955
C10 C 0.3139(2) 0.7573(5) 0.3034(2)
C11 C 0.2936(3) 0.8860(6) 0.2766(3)
H6 H 0.3234 0.9614 0.2897
C12 C 0.2297(2) 0.9044(5) 0.2308(3)
H7 H 0.2172 0.9919 0.2132
C13 C 0.1843(2) 0.7961(5) 0.2107(2)
C14 C 0.2045(3) 0.6674(5) 0.2385(2)
H8 H 0.1741 0.5928 0.2259
C15 C 0.2682(2) 0.6467(5) 0.2840(2)
H9 H 0.2806 0.5591 0.3016
C16 C 0.1147(2) 0.8074(5) 0.1593(2)
H10 H 0.1198 0.7818 0.1181
H11 H 0.0814 0.7447 0.1687
C17 C 0.0283(2) 0.9760(5) 0.1100(2)
C18 C 0.0099(2) 1.1131(4) 0.0995(2)
H12 H 0.0382 1.1811 0.1245
C19 C -0.0503(2) 1.1507(4) 0.0520(2)
C20 C -0.0939(2) 1.0489(4) 0.0148(2)
H13 H -0.1341 1.0737 -0.0177
C21 C -0.0762(2) 0.9108(4) 0.0271(2)
C22 C -0.0149(2) 0.8737(5) 0.0742(2)
H14 H -0.0029 0.7808 0.0816
C23 C -0.1215(2) 0.7973(4) -0.0110(2)
C24 C -0.0676(2) 1.3006(5) 0.0375(2)
C25 C -0.2803(2) 1.5805(5) -0.1386(3)
H15 H -0.2618 1.6691 -0.1379
C26 C -0.3462(3) 1.5540(5) -0.1795(3)
H16 H -0.3710 1.6237 -0.2062
C27 C -0.3752(2) 1.4242(5) -0.1807(2)
C28 C -0.3345(2) 1.3241(5) -0.1415(2)
H17 H -0.3517 1.2347 -0.1414
C29 C -0.2686(2) 1.3569(5) -0.1025(2)
H18 H -0.2417 1.2876 -0.0771
C30 C -0.4458(2) 1.3832(5) -0.2207(2)
C31 C 0.7799(2) 0.1809(5) 0.5846(2)
H19 H 0.7534 0.2534 0.5614
C32 C 0.8416(2) 0.2111(5) 0.6311(2)
H20 H 0.8565 0.3025 0.6386
C33 C 0.8816(2) 0.1049(5) 0.6668(2)
C34 C 0.8565(3) -0.0280(5) 0.6542(3)
H21 H 0.8811 -0.1019 0.6779
C35 C 0.7945(3) -0.0511(5) 0.6060(3)
H22 H 0.7785 -0.1416 0.5972
C36 C 0.9486(2) 0.1432(5) 0.7144(2)
N1 N 0.75664(19) 0.0523(4) 0.57159(19)
N2 N 1.0000 0.0570(6) 0.7500
N3 N 1.0000 -0.0865(6) 0.7500
H23 H 1.0352 -0.1310 0.7744
N4 N -0.24167(19) 1.4834(4) -0.0998(2)
N5 N -0.5000 1.6131(6) -0.2500
H24 H -0.5373 1.6577 -0.2701
N6 N -0.5000 1.4696(5) -0.2500
N7 N -0.46560(17) 1.2541(4) -0.23116(19)
N8 N 0.96743(18) 0.2728(4) 0.72755(18)
O1 O 0.5429(2) 0.1637(4) 0.39598(19)
O2 O 0.62887(17) 0.2045(3) 0.48556(17)
O3 O 0.69282(19) 0.7076(4) 0.5377(2)
O4 O 0.61515(17) 0.8635(3) 0.48592(19)
O5 O -0.09907(17) 0.6760(3) 0.00579(17)
O6 O -0.17607(16) 0.8234(3) -0.05428(17)
O7 O -0.11328(16) 1.3268(3) -0.01562(16)
O8 O -0.03830(16) 1.3908(3) 0.07764(17)
O9 O 0.40529(16) 0.6010(3) 0.35746(17)
O10 O 0.08982(15) 0.9479(3) 0.15686(16)
O11 O 0.71781(18) 0.0044(3) 0.42359(18)
O12 O -0.09847(18) 1.5344(4) -0.11457(19)
O13 O -0.2023(2) 1.4929(4) 0.0466(2)
C25A C -0.7197(2) 1.5805(5) -0.3614(3)
H15A H -0.7382 1.6691 -0.3621
C26A C -0.6538(3) 1.5540(5) -0.3205(3)
H16A H -0.6290 1.6237 -0.2938
C27A C -0.6248(2) 1.4242(5) -0.3193(2)
C28A C -0.6655(2) 1.3241(5) -0.3585(2)
H17A H -0.6483 1.2347 -0.3586
C29A C -0.7314(2) 1.3569(5) -0.3975(2)
H18A H -0.7583 1.2876 -0.4229
C30A C -0.5542(2) 1.3832(5) -0.2793(2)
N4A N -0.75833(19) 1.4834(4) -0.4002(2)
H24A H -0.4627 1.6577 -0.2299
N7A N -0.53440(17) 1.2541(4) -0.26884(19)
C31A C 1.2201(2) 0.1809(5) 0.9154(2)
H19A H 1.2466 0.2534 0.9386
C32A C 1.1584(2) 0.2111(5) 0.8689(2)
H20A H 1.1435 0.3025 0.8614
C33A C 1.1184(2) 0.1049(5) 0.8332(2)
C34A C 1.1435(3) -0.0280(5) 0.8458(3)
H21A H 1.1189 -0.1019 0.8221
C35A C 1.2055(3) -0.0511(5) 0.8940(3)
H22A H 1.2215 -0.1416 0.9028
C36A C 1.0514(2) 0.1432(5) 0.7856(2)
N1A N 1.24336(19) 0.0523(4) 0.92841(19)
H23A H 0.9648 -0.1310 0.7256
N8A N 1.03257(18) 0.2728(4) 0.77245(18)
Zn1A Zn -1.67261(3) 0.02214(6) -0.99438(3)
Zn2A Zn -0.85532(3) 1.51598(6) -0.46122(3)
C1A C -1.5766(2) 0.2426(5) -0.9396(3)
C2A C -1.5554(2) 0.3907(5) -0.9389(2)
C3A C -1.6026(2) 0.4900(4) -0.9744(2)
H1A H -1.6460 0.4628 -1.0014
C4A C -1.5841(2) 0.6290(5) -0.9688(2)
C5A C -1.5177(2) 0.6696(5) -0.9301(2)
H2A H -1.5055 0.7629 -0.9266
C6A C -1.4707(2) 0.5714(5) -0.8974(2)
C7A C -1.4896(2) 0.4325(5) -0.9012(2)
H3A H -1.4579 0.3668 -0.8783
C8A C -1.6355(2) 0.7388(5) -1.0010(2)
C9A C -1.3840(2) 0.7429(5) -0.8543(3)
H4A H -1.4183 0.8011 -0.8439
H5A H -1.3803 0.7721 -0.8955
C10A C -1.3139(2) 0.7573(5) -0.8034(2)
C11A C -1.2936(3) 0.8860(6) -0.7766(3)
H6A H -1.3234 0.9614 -0.7897
C12A C -1.2297(2) 0.9044(5) -0.7308(3)
H7A H -1.2172 0.9919 -0.7132
C13A C -1.1843(2) 0.7961(5) -0.7107(2)
C14A C -1.2045(3) 0.6674(5) -0.7385(2)
H8A H -1.1741 0.5928 -0.7259
C15A C -1.2682(2) 0.6467(5) -0.7840(2)
H9A H -1.2806 0.5591 -0.8016
C16A C -1.1147(2) 0.8074(5) -0.6593(2)
H10A H -1.1198 0.7818 -0.6181
H11A H -1.0814 0.7447 -0.6687
C17A C -1.0283(2) 0.9760(5) -0.6100(2)
C18A C -1.0099(2) 1.1131(4) -0.5995(2)
H12A H -1.0382 1.1811 -0.6245
C19A C -0.9497(2) 1.1507(4) -0.5520(2)
C20A C -0.9061(2) 1.0489(4) -0.5148(2)
H13A H -0.8659 1.0737 -0.4823
C21A C -0.9238(2) 0.9108(4) -0.5271(2)
C22A C -0.9851(2) 0.8737(5) -0.5742(2)
H14A H -0.9971 0.7808 -0.5816
C23A C -0.8785(2) 0.7973(4) -0.4890(2)
C24A C -0.9324(2) 1.3006(5) -0.5375(2)
O1A O -1.5429(2) 0.1637(4) -0.89598(19)
O2A O -1.62887(17) 0.2045(3) -0.98556(17)
O3A O -1.69282(19) 0.7076(4) -1.0377(2)
O4A O -1.61515(17) 0.8635(3) -0.98592(19)
O5A O -0.90093(17) 0.6760(3) -0.50579(17)
O6A O -0.82393(16) 0.8234(3) -0.44572(17)
O7A O -0.88672(16) 1.3268(3) -0.48438(16)
O8A O -0.96170(16) 1.3908(3) -0.57764(17)
O9A O -1.40529(16) 0.6010(3) -0.85746(17)
O10A O -1.08982(15) 0.9479(3) -0.65686(16)
O11A O -1.71781(18) 0.0044(3) -0.92359(18)
O12A O -0.90153(18) 1.5344(4) -0.38543(19)
O13A O -0.7977(2) 1.4929(4) -0.5466(2)
Zn1_2 Zn 0.67261(3) 1.02214(6) 0.49438(3)
Zn1A_2 Zn -1.67261(3) 1.02214(6) -0.99438(3)
Zn1A_3 Zn 1.32739(3) 0.02214(6) 1.00562(3)
Zn2_2 Zn -0.14468(3) 0.51598(6) -0.03878(3)
Zn2A_2 Zn -0.85532(3) 0.51598(6) -0.46122(3)
N1A_2 N -1.75664(19) 0.0523(4) -1.07159(19)
O4_2 O 0.61515(17) -0.1365(3) 0.48592(19)
O4A_2 O -1.61515(17) -0.1365(3) -0.98592(19)
O5_2 O -0.09907(17) 1.6760(3) 0.00579(17)
O5A_2 O -0.90093(17) 1.6760(3) -0.50579(17)
O14 O 0.5975(2) 0.0128(4) 0.31573(19)
O15 O 0.9129(3) 0.4559(5) 0.1787(3)
O16 O 0.5884(2) 0.1695(5) 0.2034(2)
O17 O 0.8605(3) 0.6890(5) 0.7693(2)
O18 O 0.2838(3) 0.2759(6) 0.3124(3)
loop_
_geom_bond_atom_site_label_1
_geom_bond_atom_site_label_2
_geom_bond_site_symmetry_1
_geom_bond_site_symmetry_2
Zn1 N1 1_555 1_555
Zn2 N4 1_555 1_555
C1 C2 1_555 1_555
C2 C3 1_555 1_555
C3 H1 1_555 1_555
C4 C3 1_555 1_555
C5 C4 1_555 1_555
H2 C5 1_555 1_555
C6 C5 1_555 1_555
C7 C2 1_555 1_555
H3 C7 1_555 1_555
C8 C4 1_555 1_555
C9 H4 1_555 1_555
H5 C9 1_555 1_555
C10 C9 1_555 1_555
C11 C10 1_555 1_555
H6 C11 1_555 1_555
C12 C11 1_555 1_555
H7 C12 1_555 1_555
C13 C12 1_555 1_555
C14 C13 1_555 1_555
H8 C14 1_555 1_555
C15 C10 1_555 1_555
H9 C15 1_555 1_555
C16 C13 1_555 1_555
H10 C16 1_555 1_555
H11 C16 1_555 1_555
C17 C18 1_555 1_555
C18 H12 1_555 1_555
C19 C18 1_555 1_555
C20 C19 1_555 1_555
H13 C20 1_555 1_555
C21 C20 1_555 1_555
C22 C17 1_555 1_555
H14 C22 1_555 1_555
C23 C21 1_555 1_555
C24 C19 1_555 1_555
C25 H15 1_555 1_555
C26 C25 1_555 1_555
H16 C26 1_555 1_555
C27 C26 1_555 1_555
C28 C27 1_555 1_555
H17 C28 1_555 1_555
C29 C28 1_555 1_555
H18 C29 1_555 1_555
C30 C27 1_555 1_555
C31 H19 1_555 1_555
C32 C31 1_555 1_555
H20 C32 1_555 1_555
C33 C32 1_555 1_555
C34 C33 1_555 1_555
H21 C34 1_555 1_555
C35 C34 1_555 1_555
H22 C35 1_555 1_555
C36 C33 1_555 1_555
N1 C31 1_555 1_555
N2 C36 1_555 1_555
N3 N2 1_555 1_555
H23 N3 1_555 1_555
N4 C25 1_555 1_555
N5 H24 1_555 1_555
N6 C30 1_555 1_555
N7 C30 1_555 1_555
N8 C36 1_555 1_555
O1 C1 1_555 1_555
O2 Zn1 1_555 1_555
O3 C8 1_555 1_555
O4 C8 1_555 1_555
O5 C23 1_555 1_555
O6 C23 1_555 1_555
O7 Zn2 1_555 1_555
O8 C24 1_555 1_555
O9 C6 1_555 1_555
O10 C16 1_555 1_555
O11 Zn1 1_555 1_555
O12 Zn2 1_555 1_555
O13 Zn2 1_555 1_555
C25A H15A 1_555 1_555
C26A C25A 1_555 1_555
H16A C26A 1_555 1_555
C27A C26A 1_555 1_555
C28A C27A 1_555 1_555
H17A C28A 1_555 1_555
C29A C28A 1_555 1_555
H18A C29A 1_555 1_555
C30A N6 1_555 1_555
N4A C25A 1_555 1_555
H24A N5 1_555 1_555
N7A N7 1_555 1_555
C31A H19A 1_555 1_555
C32A C31A 1_555 1_555
H20A C32A 1_555 1_555
C33A C32A 1_555 1_555
C34A C33A 1_555 1_555
H21A C34A 1_555 1_555
C35A C34A 1_555 1_555
H22A C35A 1_555 1_555
C36A N2 1_555 1_555
N1A C31A 1_555 1_555
H23A N3 1_555 1_555
N8A N8 1_555 1_555
Zn1A O2A 1_555 1_555
Zn2A N4A 1_555 1_555
C1A C2A 1_555 1_555
C2A C3A 1_555 1_555
C3A H1A 1_555 1_555
C4A C3A 1_555 1_555
C5A C4A 1_555 1_555
H2A C5A 1_555 1_555
C6A C5A 1_555 1_555
C7A C2A 1_555 1_555
H3A C7A 1_555 1_555
C8A C4A 1_555 1_555
C9A H4A 1_555 1_555
H5A C9A 1_555 1_555
C10A C9A 1_555 1_555
C11A C10A 1_555 1_555
H6A C11A 1_555 1_555
C12A C11A 1_555 1_555
H7A C12A 1_555 1_555
C13A C12A 1_555 1_555
C14A C13A 1_555 1_555
H8A C14A 1_555 1_555
C15A C10A 1_555 1_555
H9A C15A 1_555 1_555
C16A C13A 1_555 1_555
H10A C16A 1_555 1_555
H11A C16A 1_555 1_555
C17A C18A 1_555 1_555
C18A H12A 1_555 1_555
C19A C18A 1_555 1_555
C20A C19A 1_555 1_555
H13A C20A 1_555 1_555
C21A C20A 1_555 1_555
C22A C17A 1_555 1_555
H14A C22A 1_555 1_555
C23A C21A 1_555 1_555
C24A C19A 1_555 1_555
O1A C1A 1_555 1_555
O2A C1A 1_555 1_555
O3A C8A 1_555 1_555
O4A C8A 1_555 1_555
O5A C23A 1_555 1_555
O6A C23A 1_555 1_555
O7A Zn2A 1_555 1_555
O8A C24A 1_555 1_555
O9A C6A 1_555 1_555
O10A C16A 1_555 1_555
O11A Zn1A 1_555 1_555
O12A Zn2A 1_555 1_555
O13A Zn2A 1_555 1_555
Zn1_2 O4 1_555 1_555
Zn1A_2 O4A 1_555 1_555
Zn1A_3 N1A 1_555 1_555
Zn2_2 O5 1_555 1_555
Zn2A_2 O5A 1_555 1_555
N1A_2 Zn1A 1_555 1_555
O4_2 Zn1 1_555 1_555
O4A_2 Zn1A 1_555 1_555
O5_2 Zn2 1_555 1_555
O5A_2 Zn2A 1_555 1_555
C1 O2 1_555 1_555
C6 C7 1_555 1_555
C9 O9 1_555 1_555
C14 C15 1_555 1_555
C17 O10 1_555 1_555
C21 C22 1_555 1_555
C24 O7 1_555 1_555
C29 N4 1_555 1_555
C35 N1 1_555 1_555
N5 N6 1_555 1_555
C27A C30A 1_555 1_555
C29A N4A 1_555 1_555
C30A N7A 1_555 1_555
C33A C36A 1_555 1_555
C35A N1A 1_555 1_555
C36A N8A 1_555 1_555
C6A C7A 1_555 1_555
C9A O9A 1_555 1_555
C14A C15A 1_555 1_555
C17A O10A 1_555 1_555
C21A C22A 1_555 1_555
C24A O7A 1_555 1_555

#END
