
#######################################################################
#
#                 Cambridge Crystallographic Data Centre
#                                CCDC 
#
#######################################################################
#
# If this CIF has been generated from an entry in the Cambridge 
# Structural Database, then it will include bibliographic, chemical, 
# crystal, experimental, refinement or atomic coordinate data resulting 
# from the CCDC's data processing and validation procedures.
#
#######################################################################

data_WOPHIU
_symmetry_cell_setting           monoclinic
_symmetry_space_group_name_H-M   'C 2/c'
_symmetry_Int_Tables_number      15
_space_group_name_Hall           '-C 2yn'
loop_
_symmetry_equiv_pos_site_id
_symmetry_equiv_pos_as_xyz
1 x,y,z
2 -x,y,1/2-z
3 1/2+x,1/2+y,z
4 1/2-x,1/2+y,1/2-z
5 -x,-y,-z
6 x,-y,1/2+z
7 1/2-x,1/2-y,-z
8 1/2+x,1/2-y,1/2+z
_cell_length_a                   30.892(6)
_cell_length_b                   14.751(2)
_cell_length_c                   19.080(3)
_cell_angle_alpha                90
_cell_angle_beta                 111.552(3)
_cell_angle_gamma                90
_cell_volume                     8086.64
loop_
_atom_site_label
_atom_site_type_symbol
_atom_site_fract_x
_atom_site_fract_y
_atom_site_fract_z
O1 O 0.4568(8) 0.612(2) 0.1659(15)
C1 C 0.4356(2) 0.4557(5) 0.2751(4)
C2 C 0.4004(2) 0.4749(4) 0.3098(4)
C3 C 0.3535(2) 0.4785(5) 0.2653(4)
H1 H 0.3434 0.4671 0.2139
C4 C 0.3219(2) 0.4994(5) 0.2991(4)
C5 C 0.3370(2) 0.5194(5) 0.3762(4)
H2 H 0.3154 0.5347 0.3977
C6 C 0.3835(2) 0.5164(5) 0.4203(4)
C7 C 0.3994(3) 0.5419(6) 0.5019(4)
C8 C 0.4152(2) 0.4930(5) 0.3859(4)
H3 H 0.4468 0.4896 0.4151
C9 C 0.2573(2) 0.4867(6) 0.1821(4)
H4 H 0.2677 0.4275 0.1726
H5 H 0.2690 0.5320 0.1567
C10 C 0.2054(2) 0.4897(6) 0.1534(4)
C11 C 0.1820(3) 0.5037(8) 0.0771(5)
H6 H 0.1987 0.5130 0.0459
C12 C 0.1339(3) 0.5039(8) 0.0469(5)
H7 H 0.1188 0.5134 -0.0045
C13 C 0.1089(2) 0.4913(6) 0.0885(5)
H8 H 0.0766 0.4922 0.0670
C14 C 0.1314(2) 0.4766(8) 0.1653(5)
C15 C 0.1801(3) 0.4791(7) 0.1968(5)
H9 H 0.1951 0.4734 0.2487
C16 C 0.1029(3) 0.4525(7) 0.2202(6)
H10 H 0.0747 0.4192 0.1929
H11 H 0.1220 0.4164 0.2630
C17 C 0.0706(3) 0.5320(6) 0.2901(4)
C18 C 0.0563(2) 0.4569(6) 0.3200(4)
H12 H 0.0615 0.3987 0.3061
C19 C 0.0337(2) 0.4699(5) 0.3718(4)
C20 C 0.0208(2) 0.3903(5) 0.4071(4)
C21 C 0.0253(2) 0.5564(5) 0.3910(3)
H13 H 0.0105 0.5649 0.4250
C22 C 0.0392(2) 0.6315(5) 0.3593(4)
C23 C 0.0313(2) 0.7262(6) 0.3778(4)
C24 C 0.0617(2) 0.6176(6) 0.3081(4)
H14 H 0.0707 0.6671 0.2865
C25 C 0.0774(4) 0.7751(7) 0.6559(6)
H15 H 0.0524 0.7887 0.6703
C26 C 0.1213(4) 0.7814(8) 0.7082(7)
H16 H 0.1253 0.8013 0.7564
C27 C 0.1579(3) 0.7607(7) 0.6933(8)
C28 C 0.1517(4) 0.7387(7) 0.6178(9)
H17 H 0.1768 0.7273 0.6034
C29 C 0.1051(3) 0.7349(6) 0.5653(6)
H18 H 0.1003 0.7212 0.5154
C30 C 0.2026(4) 0.7602(10) 0.7590(9)
C31 C 0.2746(4) 0.7541(11) 0.8301(10)
C32 C 0.3283(3) 0.7554(8) 0.8653(8)
C33 C 0.3565(5) 0.7821(10) 0.8318(7)
H19 H 0.3449 0.8004 0.7817
C34 C 0.4048(3) 0.7822(9) 0.8742(6)
H20 H 0.4248 0.8007 0.8506
C35 C 0.3924(3) 0.7360(8) 0.9722(7)
H21 H 0.4030 0.7217 1.0232
C36 C 0.3455(4) 0.7316(11) 0.9338(10)
H22 H 0.3262 0.7112 0.9580
N1 N 0.0686(2) 0.7495(4) 0.5829(4)
N2 N 0.2043(4) 0.7478(15) 0.8254(8)
N3 N 0.2479(4) 0.7417(16) 0.8642(9)
N4 N 0.2466(2) 0.7613(5) 0.7600(4)
N5 N 0.2592(5) 0.7855(9) 0.6941(8)
H23 H 0.2877 0.7964 0.7003
H24 H 0.2379 0.7885 0.6498
N6 N 0.4229(2) 0.7577(4) 0.9452(4)
O2 O 0.42192(16) 0.4499(5) 0.2051(3)
O3 O 0.47604(17) 0.4470(6) 0.3173(3)
O4 O 0.44343(19) 0.5421(4) 0.5383(3)
O5 O 0.3716(2) 0.5651(6) 0.5294(3)
O6 O 0.27416(16) 0.5044(5) 0.2610(3)
O7 O 0.0931(2) 0.5313(5) 0.2426(4)
O8 O 0.0244(2) 0.3117(4) 0.3846(3)
O9 O 0.00732(16) 0.4005(3) 0.4611(3)
O10 O 0.0091(2) 0.7427(4) 0.4191(3)
O11 O 0.0480(2) 0.7880(4) 0.3484(4)
O12 O -0.0082(2) 0.8729(4) 0.5337(4)
Zn1 Zn 0.45816(2) 0.41975(6) 0.14393(4)
Zn2 Zn -0.00452(3) 0.73549(6) 0.51363(5)
N6G N -0.0771(2) 0.7423(4) 0.4452(4)
O3A O 0.52396(17) 0.4470(6) 0.1827(3)
O4E O 0.44343(19) 0.4579(4) 0.0383(3)
O8D O -0.0244(2) 0.6883(4) 0.6154(3)
O9D O -0.00732(16) 0.5995(3) 0.5389(3)
O11C O 0.4520(2) 0.2880(4) 0.1516(4)
Zn1A Zn 0.54184(2) 0.41975(6) 0.35607(4)
Zn1C Zn 0.04184(2) 0.91975(6) 0.35607(4)
Zn1E Zn 0.45816(2) 0.58025(6) 0.64393(4)
Zn2D Zn 0.00452(3) 0.26451(6) 0.48637(5)
Zn2G Zn 0.49548(3) 0.76451(6) 1.01363(5)
O13 O 0.1361(6) 0.8678(12) 0.8844(8)
O14 O 0.3380(6) 0.7068(16) 0.6278(13)
O15 O 0.5000 0.7120(15) 0.2500
O16 O 0.2979(10) 0.920(2) 0.6040(14)
loop_
_geom_bond_atom_site_label_1
_geom_bond_atom_site_label_2
_geom_bond_site_symmetry_1
_geom_bond_site_symmetry_2
C1 C2 1_555 1_555
C2 C3 1_555 1_555
C3 H1 1_555 1_555
C4 C3 1_555 1_555
C5 C4 1_555 1_555
H2 C5 1_555 1_555
C6 C5 1_555 1_555
C7 C6 1_555 1_555
C8 C2 1_555 1_555
H3 C8 1_555 1_555
C9 H4 1_555 1_555
H5 C9 1_555 1_555
C10 C9 1_555 1_555
C11 C10 1_555 1_555
H6 C11 1_555 1_555
C12 C11 1_555 1_555
H7 C12 1_555 1_555
C13 C12 1_555 1_555
H8 C13 1_555 1_555
C14 C13 1_555 1_555
C15 C10 1_555 1_555
H9 C15 1_555 1_555
C16 C14 1_555 1_555
H10 C16 1_555 1_555
H11 C16 1_555 1_555
C17 C18 1_555 1_555
C18 H12 1_555 1_555
C19 C18 1_555 1_555
C20 C19 1_555 1_555
C21 C19 1_555 1_555
H13 C21 1_555 1_555
C22 C21 1_555 1_555
C23 C22 1_555 1_555
C24 C17 1_555 1_555
H14 C24 1_555 1_555
C25 H15 1_555 1_555
C26 C25 1_555 1_555
H16 C26 1_555 1_555
C27 C26 1_555 1_555
C28 C27 1_555 1_555
H17 C28 1_555 1_555
C29 C28 1_555 1_555
H18 C29 1_555 1_555
C30 C27 1_555 1_555
C31 C32 1_555 1_555
C32 C33 1_555 1_555
C33 H19 1_555 1_555
C34 C33 1_555 1_555
H20 C34 1_555 1_555
C35 H21 1_555 1_555
C36 C32 1_555 1_555
H22 C36 1_555 1_555
N1 C25 1_555 1_555
N2 C30 1_555 1_555
N3 C31 1_555 1_555
N4 C30 1_555 1_555
N5 N4 1_555 1_555
H23 N5 1_555 1_555
H24 N5 1_555 1_555
N6 C34 1_555 1_555
O2 C1 1_555 1_555
O3 C1 1_555 1_555
O4 C7 1_555 1_555
O5 C7 1_555 1_555
O6 C4 1_555 1_555
O7 C16 1_555 1_555
O8 C20 1_555 1_555
O9 C20 1_555 1_555
O10 C23 1_555 1_555
O11 C23 1_555 1_555
O12 Zn2 1_555 1_555
Zn1 O2 1_555 1_555
Zn2 N1 1_555 1_555
N6G Zn2 1_555 1_555
O3A Zn1 1_555 1_555
O4E Zn1 1_555 1_555
O8D Zn2 1_555 1_555
O9D Zn2 1_555 1_555
O11C Zn1 1_555 1_555
Zn1A O3 1_555 1_555
Zn1C O11 1_555 1_555
Zn1E O4 1_555 1_555
Zn2D O8 1_555 1_555
Zn2G N6 1_555 1_555
C6 C8 1_555 1_555
C9 O6 1_555 1_555
C14 C15 1_555 1_555
C17 O7 1_555 1_555
C22 C24 1_555 1_555
C29 N1 1_555 1_555
C31 N4 1_555 1_555
C35 C36 1_555 1_555
C35 N6 1_555 1_555
N2 N3 1_555 1_555
O9 Zn2D 1_555 1_555
O10 Zn2 1_555 1_555

#END
