
#######################################################################
#
#                 Cambridge Crystallographic Data Centre
#                                CCDC 
#
#######################################################################
#
# If this CIF has been generated from an entry in the Cambridge 
# Structural Database, then it will include bibliographic, chemical, 
# crystal, experimental, refinement or atomic coordinate data resulting 
# from the CCDC's data processing and validation procedures.
#
#######################################################################

data_WOPHIU01
_symmetry_cell_setting           monoclinic
_symmetry_space_group_name_H-M   'C 2/c'
_symmetry_Int_Tables_number      15
_space_group_name_Hall           '-C 2yn'
loop_
_symmetry_equiv_pos_site_id
_symmetry_equiv_pos_as_xyz
1 x,y,z
2 -x,y,1/2-z
3 1/2+x,1/2+y,z
4 1/2-x,1/2+y,1/2-z
5 -x,-y,-z
6 x,-y,1/2+z
7 1/2-x,1/2-y,-z
8 1/2+x,1/2-y,1/2+z
_cell_length_a                   38.030(4)
_cell_length_b                   10.0098(9)
_cell_length_c                   26.423(3)
_cell_angle_alpha                90
_cell_angle_beta                 125.5890(10)
_cell_angle_gamma                90
_cell_volume                     8179.71
loop_
_atom_site_label
_atom_site_type_symbol
_atom_site_fract_x
_atom_site_fract_y
_atom_site_fract_z
Zn1 Zn 0.83734(2) -0.33221(6) 0.29160(3)
Zn2 Zn 0.88609(2) -0.03563(7) 0.41558(3)
C1 C 1.07079(19) 0.7205(6) 0.0842(3)
C2 C 1.02774(19) 0.6611(5) 0.0612(3)
C3 C 1.02565(19) 0.5368(6) 0.0825(3)
H1 H 1.0507 0.4885 0.1099
C4 C 0.9853(2) 0.4853(6) 0.0621(3)
C5 C 0.94775(19) 0.5584(6) 0.0218(3)
H2 H 0.9210 0.5251 0.0092
C6 C 0.95093(19) 0.6833(6) 0.0005(3)
C7 C 0.99084(18) 0.7329(6) 0.0203(3)
H3 H 0.9928 0.8153 0.0058
C8 C 0.9117(2) 0.7674(6) -0.0402(3)
C9 C 1.0146(2) 0.2859(7) 0.1226(3)
H4 H 1.0318 0.3339 0.1618
H5 H 1.0323 0.2687 0.1079
C10 C 0.9985(2) 0.1567(6) 0.1312(3)
C11 C 0.9727(2) 0.1551(6) 0.1532(3)
H6 H 0.9654 0.2354 0.1625
C12 C 0.9579(2) 0.0373(6) 0.1611(3)
C13 C 0.9710(3) -0.0791(7) 0.1498(4)
H7 H 0.9615 -0.1597 0.1553
C14 C 0.9970(3) -0.0815(8) 0.1310(5)
H8 H 1.0054 -0.1631 0.1243
C15 C 1.0120(3) 0.0388(7) 0.1213(4)
H9 H 1.0303 0.0378 0.1087
C16 C 0.9295(3) 0.0298(7) 0.1825(4)
H10 H 0.9047 -0.0260 0.1541
H11 H 0.9453 -0.0118 0.2233
C17 C 0.8943(2) 0.1617(6) 0.2153(3)
C18 C 0.8855(2) 0.2891(6) 0.2259(3)
H12 H 0.8927 0.3634 0.2126
C19 C 0.8661(2) 0.3058(6) 0.2564(3)
C20 C 0.8565(2) 0.1934(6) 0.2772(3)
H13 H 0.8441 0.2037 0.2987
C21 C 0.86491(19) 0.0693(6) 0.2666(3)
C22 C 0.8840(2) 0.0504(6) 0.2344(3)
H14 H 0.8893 -0.0349 0.2264
C23 C 0.8552(2) 0.4422(6) 0.2682(3)
C24 C 0.85441(19) -0.0535(6) 0.2886(3)
C25 C 0.77337(19) -0.2085(6) 0.3120(3)
H15 H 0.7703 -0.1452 0.2840
C26 C 0.74973(19) -0.1932(6) 0.3354(3)
H16 H 0.7324 -0.1180 0.3248
C27 C 0.7512(2) -0.2875(7) 0.3743(3)
C28 C 0.7796(3) -0.3974(8) 0.3906(4)
H17 H 0.7821 -0.4653 0.4165
C29 C 0.8036(2) -0.3988(8) 0.3659(4)
H18 H 0.8232 -0.4681 0.3777
C30 C 0.7265(2) -0.2681(7) 0.4003(3)
C31 C 0.6908(2) -0.2918(7) 0.4397(3)
C32 C 0.6708(2) -0.3463(7) 0.4698(3)
C33 C 0.6419(3) -0.2617(8) 0.4713(4)
H19 H 0.6342 -0.1791 0.4514
C34 C 0.6253(3) -0.3045(8) 0.5029(4)
H20 H 0.6051 -0.2508 0.5024
C35 C 0.6629(2) -0.4996(7) 0.5298(4)
H21 H 0.6699 -0.5827 0.5492
C36 C 0.6797(3) -0.4648(7) 0.4979(4)
H22 H 0.6976 -0.5243 0.4958
N1 N 0.80031(16) -0.3086(5) 0.3272(2)
N2 N 0.71053(18) -0.3596(6) 0.4181(2)
N3 N 0.71765(19) -0.1502(6) 0.4099(3)
N4 N 0.6949(2) -0.1649(6) 0.4348(3)
N5 N 0.7090(3) -0.5008(7) 0.4110(4)
H23 H 0.7194 -0.5373 0.3929
H24 H 0.6976 -0.5496 0.4247
N6 N 0.63672(16) -0.4195(5) 0.5344(2)
O1 O 1.06962(15) 0.8388(4) 0.0655(2)
O2 O 1.10415(14) 0.6533(4) 0.1172(2)
O3 O 0.87655(15) 0.7338(6) -0.0493(3)
O4 O 0.91695(15) 0.8691(5) -0.0624(2)
O5 O 0.97780(14) 0.3618(4) 0.0783(2)
O6 O 0.91515(18) 0.1561(4) 0.1859(2)
O7 O 0.8568(2) -0.1657(4) 0.2707(2)
O8 O 0.84354(13) -0.0344(4) 0.32520(19)
O9 O 0.83454(17) 0.4520(5) 0.2906(2)
O10 O 0.8676(2) 0.5423(5) 0.2557(3)
O11 O 0.77924(19) -0.3251(7) 0.1995(3)
Zn1_2 Zn 0.83734(2) 0.66779(6) 0.29160(3)
Zn1A Zn 1.16266(2) 0.66779(6) 0.20840(3)
Zn2A Zn 1.11391(2) 0.96437(7) 0.08442(3)
Zn2E Zn 0.88609(2) 1.03563(7) -0.08442(3)
Zn2F Zn 0.61391(2) -0.46437(7) 0.58442(3)
N6F N 0.86328(16) -0.0805(5) 0.4656(2)
O1A O 0.93038(15) -0.1612(4) 0.4345(2)
O2A O 0.89585(14) -0.3467(4) 0.3828(2)
O4E O 0.91695(15) 0.1309(5) 0.4376(2)
O9_2 O 0.83454(17) -0.5480(5) 0.2906(2)
O10_2 O 0.8676(2) -0.4577(5) 0.2557(3)
O12 O 0.7989(2) 0.2728(10) 0.3395(3)
O13 O 0.7849(3) 0.6398(7) 0.1024(3)
O14 O 0.7761(6) 0.315(2) 0.4770(12)
loop_
_geom_bond_atom_site_label_1
_geom_bond_atom_site_label_2
_geom_bond_site_symmetry_1
_geom_bond_site_symmetry_2
Zn1 N1 1_555 1_555
Zn2 O8 1_555 1_555
C1 C2 1_555 1_555
C2 C3 1_555 1_555
C3 H1 1_555 1_555
C4 C3 1_555 1_555
C5 C4 1_555 1_555
H2 C5 1_555 1_555
C6 C5 1_555 1_555
C7 C2 1_555 1_555
H3 C7 1_555 1_555
C8 C6 1_555 1_555
C9 H4 1_555 1_555
H5 C9 1_555 1_555
C10 C9 1_555 1_555
C11 C10 1_555 1_555
H6 C11 1_555 1_555
C12 C11 1_555 1_555
C13 C12 1_555 1_555
H7 C13 1_555 1_555
C14 C13 1_555 1_555
H8 C14 1_555 1_555
C15 C10 1_555 1_555
H9 C15 1_555 1_555
C16 C12 1_555 1_555
H10 C16 1_555 1_555
H11 C16 1_555 1_555
C17 C18 1_555 1_555
C18 H12 1_555 1_555
C19 C18 1_555 1_555
C20 C19 1_555 1_555
H13 C20 1_555 1_555
C21 C20 1_555 1_555
C22 C17 1_555 1_555
H14 C22 1_555 1_555
C23 C19 1_555 1_555
C24 C21 1_555 1_555
C25 H15 1_555 1_555
C26 C25 1_555 1_555
H16 C26 1_555 1_555
C27 C26 1_555 1_555
C28 C27 1_555 1_555
H17 C28 1_555 1_555
C29 C28 1_555 1_555
H18 C29 1_555 1_555
C30 C27 1_555 1_555
C31 C32 1_555 1_555
C32 C33 1_555 1_555
C33 H19 1_555 1_555
C34 C33 1_555 1_555
H20 C34 1_555 1_555
C35 H21 1_555 1_555
C36 C32 1_555 1_555
H22 C36 1_555 1_555
N1 C25 1_555 1_555
N2 C30 1_555 1_555
N3 C30 1_555 1_555
N4 C31 1_555 1_555
N5 N2 1_555 1_555
H23 N5 1_555 1_555
H24 N5 1_555 1_555
N6 C34 1_555 1_555
O1 C1 1_555 1_555
O2 C1 1_555 1_555
O3 C8 1_555 1_555
O4 C8 1_555 1_555
O5 C4 1_555 1_555
O6 C16 1_555 1_555
O7 Zn1 1_555 1_555
O8 C24 1_555 1_555
O9 C23 1_555 1_555
O10 C23 1_555 1_555
O11 Zn1 1_555 1_555
Zn1_2 O9 1_555 1_555
Zn1A O2 1_555 1_555
Zn2A O1 1_555 1_555
Zn2E O4 1_555 1_555
Zn2F N6 1_555 1_555
N6F Zn2 1_555 1_555
O1A Zn2 1_555 1_555
O2A Zn1 1_555 1_555
O4E Zn2 1_555 1_555
O9_2 Zn1 1_555 1_555
O10_2 Zn1 1_555 1_555
C6 C7 1_555 1_555
C9 O5 1_555 1_555
C14 C15 1_555 1_555
C17 O6 1_555 1_555
C21 C22 1_555 1_555
C24 O7 1_555 1_555
C29 N1 1_555 1_555
C31 N2 1_555 1_555
C35 C36 1_555 1_555
C35 N6 1_555 1_555
N3 N4 1_555 1_555
O10 Zn1_2 1_555 1_555

#END
