
#######################################################################
#
#                 Cambridge Crystallographic Data Centre
#                                CCDC 
#
#######################################################################
#
# If this CIF has been generated from an entry in the Cambridge 
# Structural Database, then it will include bibliographic, chemical, 
# crystal, experimental, refinement or atomic coordinate data resulting 
# from the CCDC's data processing and validation procedures.
#
#######################################################################

data_WOPHAM
_symmetry_cell_setting           triclinic
_symmetry_space_group_name_H-M   'P -1'
_symmetry_Int_Tables_number      2
_space_group_name_Hall           '-P 1'
loop_
_symmetry_equiv_pos_site_id
_symmetry_equiv_pos_as_xyz
1 x,y,z
2 -x,-y,-z
_cell_length_a                   9.2048(9)
_cell_length_b                   10.5115(10)
_cell_length_c                   26.568(3)
_cell_angle_alpha                100.8440(10)
_cell_angle_beta                 91.5730(10)
_cell_angle_gamma                109.1230(10)
_cell_volume                     2374.38
loop_
_atom_site_label
_atom_site_type_symbol
_atom_site_fract_x
_atom_site_fract_y
_atom_site_fract_z
O1 O 0.3844(4) 0.1112(5) 0.25908(14)
H1 H 0.2898 0.0794 0.2566
C1 C 0.9642(5) 0.3435(4) 0.30194(17)
C2 C 0.8578(5) 0.2667(4) 0.25320(15)
C3 C 0.9159(5) 0.2489(5) 0.20622(17)
H2 H 1.0217 0.2851 0.2041
C4 C 0.8172(6) 0.1771(5) 0.16192(17)
C5 C 0.6593(5) 0.1277(5) 0.16431(17)
H3 H 0.5928 0.0827 0.1346
C6 C 0.6014(5) 0.1466(5) 0.21212(17)
C7 C 0.6988(5) 0.2132(4) 0.25621(16)
H4 H 0.6589 0.2227 0.2879
C8 C 0.4327(5) 0.0914(5) 0.21362(19)
C9 C 0.7926(8) 0.0618(8) 0.0749(2)
H5 H 0.7221 0.0979 0.0594
H6 H 0.7325 -0.0214 0.0858
C10 C 1.0558(9) 0.0600(10) 0.0506(3)
H7 H 1.0957 0.1026 0.0844
C11 C 0.9053(9) 0.0301(8) 0.0356(2)
C12 C 0.8485(10) -0.0249(10) -0.0137(3)
H8 H 0.7456 -0.0401 -0.0236
O2 O 1.1041(3) 0.4047(4) 0.29639(12)
H9 H 1.1471 0.4568 0.3236
O3 O 0.9091(4) 0.3412(4) 0.34402(12)
O4 O 0.3434(4) 0.0298(5) 0.17442(14)
O5 O 0.8838(4) 0.1595(5) 0.11698(14)
O1A O 1.6156(4) -0.1112(5) -0.25908(14)
H1A H 1.7102 -0.0794 -0.2566
C1A C 1.0358(5) -0.3435(4) -0.30194(17)
C2A C 1.1422(5) -0.2667(4) -0.25320(15)
C3A C 1.0841(5) -0.2489(5) -0.20622(17)
H2A H 0.9783 -0.2851 -0.2041
C4A C 1.1828(6) -0.1771(5) -0.16192(17)
C5A C 1.3407(5) -0.1277(5) -0.16431(17)
H3A H 1.4072 -0.0827 -0.1346
C6A C 1.3986(5) -0.1466(5) -0.21212(17)
C7A C 1.3012(5) -0.2132(4) -0.25621(16)
H4A H 1.3411 -0.2227 -0.2879
C8A C 1.5673(5) -0.0914(5) -0.21362(19)
C9A C 1.2074(8) -0.0618(8) -0.0749(2)
H5A H 1.2779 -0.0979 -0.0594
H6A H 1.2675 0.0214 -0.0858
C10A C 0.9442(9) -0.0600(10) -0.0506(3)
H7A H 0.9043 -0.1026 -0.0844
C11A C 1.0947(9) -0.0301(8) -0.0356(2)
C12A C 1.1515(10) 0.0249(10) 0.0137(3)
H8A H 1.2544 0.0401 0.0236
O2A O 0.8959(3) -0.4047(4) -0.29639(12)
H9A H 0.8529 -0.4568 -0.3236
O3A O 1.0909(4) -0.3412(4) -0.34402(12)
O4A O 1.6566(4) -0.0298(5) -0.17442(14)
O5A O 1.1162(4) -0.1595(5) -0.11698(14)
Co1 Co 1.26583(6) 0.80026(6) 0.38686(2)
C13 C 1.0439(5) 0.6878(4) 0.28483(15)
C14 C 0.8924(5) 0.6109(4) 0.25419(15)
C15 C 0.8890(5) 0.5698(5) 0.20108(16)
H10 H 0.9805 0.5887 0.1853
C16 C 0.7488(5) 0.5009(5) 0.17187(16)
C17 C 0.6124(5) 0.4715(5) 0.19566(16)
H11 H 0.5181 0.4247 0.1761
C18 C 0.6172(5) 0.5121(4) 0.24834(16)
C19 C 0.7583(5) 0.5832(4) 0.27819(15)
H12 H 0.7613 0.6112 0.3137
C20 C 0.4726(5) 0.4812(5) 0.27445(17)
C21 C 0.8660(6) 0.4992(8) 0.09291(19)
H13 H 0.9386 0.4557 0.1017
H14 H 0.9161 0.5983 0.1025
C22 C 0.8153(6) 0.4560(8) 0.03586(19)
C23 C 0.8430(9) 0.3463(7) 0.0065(2)
H15 H 0.8923 0.2966 0.0216
C24 C 0.7972(8) 0.3090(7) -0.0461(2)
H16 H 0.8160 0.2338 -0.0657
C25 C 0.7256(6) 0.3800(7) -0.06955(19)
C26 C 0.6982(9) 0.4894(10) -0.0397(2)
H17 H 0.6495 0.5396 -0.0547
C27 C 0.7428(9) 0.5262(11) 0.0132(3)
H18 H 0.7223 0.6002 0.0330
C28 C 0.6744(6) 0.3372(7) -0.12627(19)
H19 H 0.7065 0.4158 -0.1426
H20 H 0.7171 0.2688 -0.1429
C29 C 0.4292(5) 0.2220(6) -0.17618(16)
C30 C 0.4922(5) 0.2123(5) -0.22243(16)
H21 H 0.5986 0.2487 -0.2233
C31 C 0.3970(5) 0.1480(4) -0.26803(15)
C32 C 0.2378(5) 0.0924(4) -0.26640(15)
H22 H 0.1735 0.0478 -0.2966
C33 C 0.1760(5) 0.1041(5) -0.21943(16)
C34 C 0.2706(5) 0.1685(5) -0.17468(17)
H23 H 0.2283 0.1763 -0.1433
C35 C 0.0071(5) 0.0482(5) -0.21754(18)
C36 C 0.4584(5) 0.1402(4) -0.32021(16)
C37 C 1.1966(5) 0.8555(5) 0.50024(16)
H24 H 1.2856 0.9321 0.5037
C38 C 1.1325(5) 0.8198(5) 0.54417(17)
H25 H 1.1796 0.8696 0.5766
C39 C 0.9976(5) 0.7092(5) 0.53919(16)
H26 H 0.9538 0.6818 0.5682
C40 C 0.9274(5) 0.6388(4) 0.48988(15)
C41 C 1.0022(5) 0.6782(4) 0.44813(15)
H27 H 0.9585 0.6293 0.4153
C42 C 0.7831(5) 0.5217(4) 0.48518(14)
C43 C 0.5690(5) 0.3525(4) 0.45596(15)
C44 C 0.4375(5) 0.2502(4) 0.42232(14)
C45 C 0.4095(5) 0.1127(4) 0.42182(16)
H28 H 0.4778 0.0892 0.4416
C46 C 0.1901(5) 0.0488(4) 0.36665(16)
H29 H 0.1030 -0.0197 0.3484
C47 C 0.2121(5) 0.1833(5) 0.36418(17)
H30 H 0.1429 0.2046 0.3439
C48 C 0.3381(5) 0.2857(4) 0.39218(16)
H31 H 0.3563 0.3774 0.3909
N1 N 1.1356(4) 0.7843(3) 0.45297(12)
N2 N 0.7293(4) 0.4658(4) 0.52398(12)
N3 N 0.5924(4) 0.3592(4) 0.50565(13)
N4 N 0.6853(4) 0.4537(3) 0.44171(12)
N5 N 0.7091(4) 0.4809(4) 0.39234(12)
H32 H 0.6452 0.4300 0.3664
H33 H 0.7877 0.5485 0.3880
N6 N 0.2882(4) 0.0113(3) 0.39410(12)
O6 O 1.0562(3) 0.7257(3) 0.33201(10)
O7 O 1.1630(4) 0.7120(4) 0.25792(12)
O8 O 0.4722(4) 0.4949(4) 0.32051(12)
O9 O 0.3441(4) 0.4377(4) 0.24317(12)
H34 H 0.2693 0.4189 0.2599
O10 O 0.7308(4) 0.4572(5) 0.11948(12)
O11 O 0.5105(4) 0.2809(5) -0.12918(13)
O12 O 0.6061(3) 0.1843(3) -0.32148(10)
O13 O 0.3659(4) 0.0938(4) -0.35885(12)
O14 O -0.0803(4) -0.0163(4) -0.25632(12)
O15 O -0.0426(4) 0.0735(5) -0.17272(13)
H35 H -0.1341 0.0271 -0.1739
O16 O 1.2390(4) 0.5973(3) 0.37989(11)
O17 O 1.4732(3) 0.8528(3) 0.43717(10)
Co1_2 Co 0.26583(6) -0.19974(6) 0.38686(2)
Co1A Co 0.73417(6) 0.19974(6) -0.38686(2)
N6_2 N 1.2882(4) 1.0113(3) 0.39410(12)
O12A O 1.3939(3) 0.8157(3) 0.32148(10)
loop_
_geom_bond_atom_site_label_1
_geom_bond_atom_site_label_2
_geom_bond_site_symmetry_1
_geom_bond_site_symmetry_2
O1 H1 1_555 1_555
C1 C2 1_555 1_555
C2 C3 1_555 1_555
C3 H2 1_555 1_555
C4 C3 1_555 1_555
C5 C4 1_555 1_555
H3 C5 1_555 1_555
C6 C5 1_555 1_555
C7 C2 1_555 1_555
H4 C7 1_555 1_555
C8 O1 1_555 1_555
C9 H5 1_555 1_555
H6 C9 1_555 1_555
C10 H7 1_555 1_555
C11 C9 1_555 1_555
C12 C11 1_555 1_555
H8 C12 1_555 1_555
O2 C1 1_555 1_555
H9 O2 1_555 1_555
O3 C1 1_555 1_555
O4 C8 1_555 1_555
O5 C4 1_555 1_555
Co1 N1 1_555 1_555
C13 C14 1_555 1_555
C14 C15 1_555 1_555
C15 H10 1_555 1_555
C16 C15 1_555 1_555
C17 C16 1_555 1_555
H11 C17 1_555 1_555
C18 C17 1_555 1_555
C19 C14 1_555 1_555
H12 C19 1_555 1_555
C20 C18 1_555 1_555
C21 H13 1_555 1_555
H14 C21 1_555 1_555
C22 C21 1_555 1_555
C23 C22 1_555 1_555
H15 C23 1_555 1_555
C24 C23 1_555 1_555
H16 C24 1_555 1_555
C25 C24 1_555 1_555
C26 C25 1_555 1_555
H17 C26 1_555 1_555
C27 C22 1_555 1_555
H18 C27 1_555 1_555
C28 C25 1_555 1_555
H19 C28 1_555 1_555
H20 C28 1_555 1_555
C29 C30 1_555 1_555
C30 H21 1_555 1_555
C31 C30 1_555 1_555
C32 C31 1_555 1_555
H22 C32 1_555 1_555
C33 C32 1_555 1_555
C34 C29 1_555 1_555
H23 C34 1_555 1_555
C35 C33 1_555 1_555
C36 C31 1_555 1_555
C37 H24 1_555 1_555
C38 C37 1_555 1_555
H25 C38 1_555 1_555
C39 C38 1_555 1_555
H26 C39 1_555 1_555
C40 C39 1_555 1_555
C41 C40 1_555 1_555
H27 C41 1_555 1_555
C42 C40 1_555 1_555
C43 C44 1_555 1_555
C44 C45 1_555 1_555
C45 H28 1_555 1_555
C46 H29 1_555 1_555
C47 C46 1_555 1_555
H30 C47 1_555 1_555
C48 C44 1_555 1_555
H31 C48 1_555 1_555
N1 C37 1_555 1_555
N2 C42 1_555 1_555
N3 C43 1_555 1_555
N4 C42 1_555 1_555
N5 N4 1_555 1_555
H32 N5 1_555 1_555
H33 N5 1_555 1_555
N6 C45 1_555 1_555
O6 Co1 1_555 1_555
O7 C13 1_555 1_555
O8 C20 1_555 1_555
O9 C20 1_555 1_555
H34 O9 1_555 1_555
O10 C16 1_555 1_555
O11 C28 1_555 1_555
O12 C36 1_555 1_555
O13 C36 1_555 1_555
O14 C35 1_555 1_555
O15 C35 1_555 1_555
H35 O15 1_555 1_555
O16 Co1 1_555 1_555
O17 Co1 1_555 1_555
O1A H1A 1_555 1_555
C1A C2A 1_555 1_555
C2A C3A 1_555 1_555
C3A H2A 1_555 1_555
C4A C3A 1_555 1_555
C5A C4A 1_555 1_555
H3A C5A 1_555 1_555
C6A C5A 1_555 1_555
C7A C2A 1_555 1_555
H4A C7A 1_555 1_555
C8A O1A 1_555 1_555
C9A H5A 1_555 1_555
H6A C9A 1_555 1_555
C10A C12 1_555 1_555
H7A C10A 1_555 1_555
C11A C9A 1_555 1_555
C12A C10 1_555 1_555
H8A C12A 1_555 1_555
O2A C1A 1_555 1_555
H9A O2A 1_555 1_555
O3A C1A 1_555 1_555
O4A C8A 1_555 1_555
O5A C4A 1_555 1_555
Co1_2 N6 1_555 1_555
Co1A O12 1_555 1_555
N6_2 Co1 1_555 1_555
O12A Co1 1_555 1_555
C6 C7 1_555 1_555
C6 C8 1_555 1_555
C9 O5 1_555 1_555
C10 C11 1_555 1_555
C13 O6 1_555 1_555
C18 C19 1_555 1_555
C21 O10 1_555 1_555
C26 C27 1_555 1_555
C29 O11 1_555 1_555
C33 C34 1_555 1_555
C41 N1 1_555 1_555
C43 N4 1_555 1_555
C46 N6 1_555 1_555
C47 C48 1_555 1_555
N2 N3 1_555 1_555
C6A C7A 1_555 1_555
C6A C8A 1_555 1_555
C9A O5A 1_555 1_555
C10A C11A 1_555 1_555
C11A C12A 1_555 1_555

#END
