
#######################################################################
#
#                 Cambridge Crystallographic Data Centre
#                                CCDC 
#
#######################################################################
#
# If this CIF has been generated from an entry in the Cambridge 
# Structural Database, then it will include bibliographic, chemical, 
# crystal, experimental, refinement or atomic coordinate data resulting 
# from the CCDC's data processing and validation procedures.
#
#######################################################################

data_WOPJIW
_symmetry_cell_setting           monoclinic
_symmetry_space_group_name_H-M   'C 2/c'
_symmetry_Int_Tables_number      15
_space_group_name_Hall           '-C 2yn'
loop_
_symmetry_equiv_pos_site_id
_symmetry_equiv_pos_as_xyz
1 x,y,z
2 -x,y,1/2-z
3 1/2+x,1/2+y,z
4 1/2-x,1/2+y,1/2-z
5 -x,-y,-z
6 x,-y,1/2+z
7 1/2-x,1/2-y,-z
8 1/2+x,1/2-y,1/2+z
_cell_length_a                   15.7272(7)
_cell_length_b                   11.5164(5)
_cell_length_c                   11.4048(5)
_cell_angle_alpha                90
_cell_angle_beta                 99.005(4)
_cell_angle_gamma                90
_cell_volume                     2040.19
loop_
_atom_site_label
_atom_site_type_symbol
_atom_site_fract_x
_atom_site_fract_y
_atom_site_fract_z
Pt1 Pt 0.7500 0.7500 0.5000
Co1 Co 0.5000 0.75946(13) 0.7500
N1 N 0.6140(4) 0.7638(6) 0.6711(6)
C1 C 0.6649(5) 0.7601(6) 0.6125(6)
O1 O 0.5000 0.9327(7) 0.7500
H1 H 0.460(3) 0.9754(17) 0.715(7)
N2 N 0.6401(4) 0.9291(7) 0.3338(6)
C2 C 0.6790(5) 0.8641(8) 0.3938(7)
N3 N 0.5000 0.5778(7) 0.7500
C3 C 0.5912(4) 0.6000(7) 0.9333(7)
C4 C 0.5471(5) 0.4041(7) 0.8438(7)
H2 H 0.5785 0.3641 0.9070
C5 C 0.6723(5) 0.7523(8) 1.0967(7)
H3 H 0.6983 0.8060 1.1518
N4 N 0.5766(4) 0.7150(6) 0.9158(5)
C6 C 0.6475(4) 0.5594(7) 1.0321(6)
H4 H 0.6570 0.4802 1.0426
C7 C 0.5467(5) 0.5248(7) 0.8418(7)
C8 C 0.6885(5) 0.6369(9) 1.1133(7)
H5 H 0.7267 0.6110 1.1786
C9 C 0.6164(5) 0.7895(8) 0.9965(7)
H6 H 0.6065 0.8686 0.9854
C10 C 0.5000 0.3445(11) 0.7500
H7 H 0.5000 0.2637 0.7500
H1A H 0.540(3) 0.9754(17) 0.785(7)
C3A C 0.4088(4) 0.6000(7) 0.5667(7)
C4A C 0.4529(5) 0.4041(7) 0.6562(7)
H2A H 0.4215 0.3641 0.5930
C5A C 0.3277(5) 0.7523(8) 0.4033(7)
H3A H 0.3017 0.8060 0.3482
N4A N 0.4234(4) 0.7150(6) 0.5842(5)
C6A C 0.3525(4) 0.5594(7) 0.4679(6)
H4A H 0.3430 0.4802 0.4574
C7A C 0.4533(5) 0.5248(7) 0.6582(7)
C8A C 0.3115(5) 0.6369(9) 0.3867(7)
H5A H 0.2733 0.6110 0.3214
C9A C 0.3836(5) 0.7895(8) 0.5035(7)
H6A H 0.3935 0.8686 0.5146
N1A N 0.3860(4) 0.7638(6) 0.8289(6)
C1A C 0.3351(5) 0.7601(6) 0.8875(6)
N2F N 0.8599(4) 0.5709(7) 0.6662(6)
C2F C 0.8210(5) 0.6359(8) 0.6062(7)
Pt1A Pt 0.2500 0.7500 1.0000
C1F C 0.8351(5) 0.7399(6) 0.3875(6)
loop_
_geom_bond_atom_site_label_1
_geom_bond_atom_site_label_2
_geom_bond_site_symmetry_1
_geom_bond_site_symmetry_2
Pt1 C1 1_555 1_555
Co1 N1 1_555 1_555
N1 C1 1_555 1_555
O1 Co1 1_555 1_555
H1 O1 1_555 1_555
N2 C2 1_555 1_555
C2 Pt1 1_555 1_555
N3 Co1 1_555 1_555
C3 N4 1_555 1_555
C4 H2 1_555 1_555
C5 H3 1_555 1_555
N4 Co1 1_555 1_555
C6 C3 1_555 1_555
H4 C6 1_555 1_555
C7 N3 1_555 1_555
C8 C5 1_555 1_555
H5 C8 1_555 1_555
C9 C5 1_555 1_555
H6 C9 1_555 1_555
C10 C4 1_555 1_555
H7 C10 1_555 1_555
H1A O1 1_555 1_555
C3A N4A 1_555 1_555
C4A C10 1_555 1_555
H2A C4A 1_555 1_555
C5A H3A 1_555 1_555
N4A Co1 1_555 1_555
C6A C3A 1_555 1_555
H4A C6A 1_555 1_555
C7A N3 1_555 1_555
C8A C5A 1_555 1_555
H5A C8A 1_555 1_555
C9A C5A 1_555 1_555
H6A C9A 1_555 1_555
N1A Co1 1_555 1_555
C1A N1A 1_555 1_555
N2F C2F 1_555 1_555
C2F Pt1 1_555 1_555
Pt1A C1A 1_555 1_555
C1F Pt1 1_555 1_555
C3 C7 1_555 1_555
C4 C7 1_555 1_555
N4 C9 1_555 1_555
C6 C8 1_555 1_555
C3A C7A 1_555 1_555
C4A C7A 1_555 1_555
N4A C9A 1_555 1_555
C6A C8A 1_555 1_555

#END
