
#######################################################################
#
#                 Cambridge Crystallographic Data Centre
#                                CCDC 
#
#######################################################################
#
# If this CIF has been generated from an entry in the Cambridge 
# Structural Database, then it will include bibliographic, chemical, 
# crystal, experimental, refinement or atomic coordinate data resulting 
# from the CCDC's data processing and validation procedures.
#
#######################################################################

data_WOPJAO
_symmetry_cell_setting           monoclinic
_symmetry_space_group_name_H-M   'P 21/c'
_symmetry_Int_Tables_number      14
_space_group_name_Hall           '-P 2ybc'
loop_
_symmetry_equiv_pos_site_id
_symmetry_equiv_pos_as_xyz
1 x,y,z
2 -x,1/2+y,1/2-z
3 -x,-y,-z
4 x,1/2-y,1/2+z
_cell_length_a                   15.244(4)
_cell_length_b                   18.562(5)
_cell_length_c                   12.019(3)
_cell_angle_alpha                90
_cell_angle_beta                 96.527(4)
_cell_angle_gamma                90
_cell_volume                     3378.84
loop_
_atom_site_label
_atom_site_type_symbol
_atom_site_fract_x
_atom_site_fract_y
_atom_site_fract_z
Zn1 Zn 0.39086(4) 0.45999(3) 1.01384(4)
Zn2 Zn 0.0000 0.5000 1.5000
C1 C 0.2432(3) 0.5209(3) 1.0216(4)
C2 C 0.1539(3) 0.5479(2) 1.0419(4)
C3 C 0.1171(3) 0.5293(3) 1.1384(4)
H1 H 0.1497 0.5027 1.1942
C4 C 0.0312(3) 0.5504(2) 1.1515(4)
C5 C -0.0170(3) 0.5908(3) 1.0683(4)
H2 H -0.0744 0.6050 1.0770
C6 C 0.0199(3) 0.6099(3) 0.9728(4)
C7 C 0.1065(3) 0.5899(3) 0.9619(4)
H3 H 0.1328 0.6052 0.8998
C8 C -0.0126(3) 0.5286(3) 1.2531(4)
C9 C -0.1106(3) 0.6730(3) 0.8992(4)
H4 H -0.1090 0.7053 0.9628
H5 H -0.1465 0.6316 0.9138
C10 C -0.1513(3) 0.7112(3) 0.7948(4)
C11 C -0.1908(3) 0.6729(3) 0.7033(4)
H6 H -0.1877 0.6229 0.7036
C12 C -0.2351(3) 0.7081(3) 0.6109(4)
C13 C -0.2396(3) 0.7821(3) 0.6135(4)
H7 H -0.2697 0.8062 0.5529
C14 C -0.2007(4) 0.8220(3) 0.7037(4)
H8 H -0.2049 0.8719 0.7043
C15 C -0.1553(3) 0.7852(3) 0.7929(4)
H9 H -0.1270 0.8112 0.8527
C16 C -0.2826(3) 0.6667(3) 0.5151(4)
H10 H -0.2870 0.6951 0.4469
H11 H -0.2516 0.6223 0.5027
C17 C -0.4292(3) 0.6188(3) 0.4722(4)
C18 C -0.5095(3) 0.6067(3) 0.5127(4)
H12 H -0.5167 0.6210 0.5853
C19 C -0.5788(3) 0.5742(3) 0.4484(4)
C20 C -0.5685(3) 0.5547(3) 0.3385(4)
H13 H -0.6152 0.5338 0.2932
C21 C -0.4880(3) 0.5666(3) 0.2970(4)
C22 C -0.4174(3) 0.5974(3) 0.3646(4)
H14 H -0.3630 0.6034 0.3377
C23 C -0.4792(3) 0.5487(3) 0.1782(4)
C24 C -0.6626(3) 0.5602(3) 0.4981(5)
C25 C 0.3987(3) 0.3366(3) 1.1690(4)
H15 H 0.3425 0.3536 1.1778
C26 C 0.4322(3) 0.2798(3) 1.2325(4)
H16 H 0.3989 0.2582 1.2836
C27 C 0.5151(3) 0.2547(3) 1.2206(4)
H17 H 0.5384 0.2160 1.2632
C28 C 0.5644(3) 0.2881(3) 1.1435(4)
C29 C 0.5265(3) 0.3448(3) 1.0829(4)
H18 H 0.5586 0.3677 1.0319
C30 C 0.6532(3) 0.2596(3) 1.1349(4)
C31 C 0.7754(3) 0.2222(3) 1.0745(4)
C32 C 0.8433(3) 0.2021(3) 1.0030(4)
C33 C 0.8849(3) 0.1362(3) 1.0272(4)
H19 H 0.8684 0.1095 1.0870
C34 C 0.9714(3) 0.1492(3) 0.8847(4)
H20 H 1.0153 0.1318 0.8441
C35 C 0.9338(4) 0.2149(3) 0.8556(4)
H21 H 0.9515 0.2405 0.7956
C36 C 0.8700(3) 0.2425(3) 0.9157(4)
H22 H 0.8452 0.2874 0.8982
N1 N 0.4449(3) 0.3687(2) 1.0942(3)
N2 N 0.6681(3) 0.2925(3) 0.9423(3)
H23 H 0.6169 0.3126 0.9345
H24 H 0.6996 0.2919 0.8874
N3 N 0.7000(3) 0.2606(2) 1.0445(3)
N4 N 0.7774(3) 0.2014(3) 1.1779(4)
N5 N 0.7001(3) 0.2250(3) 1.2172(4)
N6 N 0.9473(3) 0.1091(2) 0.9694(3)
O1 O 0.2899(2) 0.5557(2) 0.9614(3)
O2 O 0.2704(2) 0.46132(19) 1.0664(3)
O3 O 0.0364(2) 0.50701(18) 1.3380(2)
O4 O -0.0955(2) 0.5327(2) 1.2462(3)
O5 O -0.0224(2) 0.6496(2) 0.8856(3)
O6 O -0.3682(2) 0.6518(3) 0.5465(3)
O7 O -0.4033(2) 0.5560(2) 0.1443(3)
O8 O -0.5468(3) 0.5315(2) 0.1138(3)
O9 O -0.7203(2) 0.5206(2) 0.4567(3)
O10 O -0.6659(3) 0.5959(3) 0.5929(3)
H25 H -0.7054 0.5792 0.6262
O11 O 0.1293(2) 0.45560(18) 1.5406(3)
Zn1B Zn -0.39086(4) 0.54001(3) -0.01384(4)
C1B C -0.2432(3) 0.4791(3) -0.0216(4)
C2B C -0.1539(3) 0.4521(2) -0.0419(4)
C3B C -0.1171(3) 0.4707(3) -0.1384(4)
H1B H -0.1497 0.4973 -0.1942
C4B C -0.0312(3) 0.4496(2) -0.1515(4)
C5B C 0.0170(3) 0.4092(3) -0.0683(4)
H2B H 0.0744 0.3950 -0.0770
C6B C -0.0199(3) 0.3901(3) 0.0272(4)
C7B C -0.1065(3) 0.4101(3) 0.0381(4)
H3B H -0.1328 0.3948 0.1002
C8B C 0.0126(3) 0.4714(3) -0.2531(4)
C9B C 0.1106(3) 0.3270(3) 0.1008(4)
H4B H 0.1090 0.2947 0.0372
H5B H 0.1465 0.3684 0.0862
C10B C 0.1513(3) 0.2888(3) 0.2052(4)
C11B C 0.1908(3) 0.3271(3) 0.2967(4)
H6B H 0.1877 0.3771 0.2964
C12B C 0.2351(3) 0.2919(3) 0.3891(4)
C13B C 0.2396(3) 0.2179(3) 0.3865(4)
H7B H 0.2697 0.1938 0.4471
C14B C 0.2007(4) 0.1780(3) 0.2963(4)
H8B H 0.2049 0.1281 0.2957
C15B C 0.1553(3) 0.2148(3) 0.2071(4)
H9B H 0.1270 0.1888 0.1473
C16B C 0.2826(3) 0.3333(3) 0.4849(4)
H10B H 0.2870 0.3049 0.5531
H11B H 0.2516 0.3777 0.4973
C17B C 0.4292(3) 0.3812(3) 0.5278(4)
C18B C 0.5095(3) 0.3933(3) 0.4873(4)
H12B H 0.5167 0.3790 0.4147
C19B C 0.5788(3) 0.4258(3) 0.5516(4)
C20B C 0.5685(3) 0.4453(3) 0.6615(4)
H13B H 0.6152 0.4662 0.7068
C21B C 0.4880(3) 0.4334(3) 0.7030(4)
C22B C 0.4174(3) 0.4026(3) 0.6354(4)
H14B H 0.3630 0.3966 0.6623
C23B C 0.4792(3) 0.4513(3) 0.8218(4)
C24B C 0.6626(3) 0.4398(3) 0.5019(5)
C25B C -0.3987(3) 0.6634(3) -0.1690(4)
H15B H -0.3425 0.6464 -0.1778
C26B C -0.4322(3) 0.7202(3) -0.2325(4)
H16B H -0.3989 0.7418 -0.2836
C27B C -0.5151(3) 0.7453(3) -0.2206(4)
H17B H -0.5384 0.7840 -0.2632
C28B C -0.5644(3) 0.7119(3) -0.1435(4)
C29B C -0.5265(3) 0.6552(3) -0.0829(4)
H18B H -0.5586 0.6323 -0.0319
C30B C -0.6532(3) 0.7404(3) -0.1349(4)
C31B C -0.7754(3) 0.7778(3) -0.0745(4)
C32B C -0.8433(3) 0.7979(3) -0.0030(4)
C33B C -0.8849(3) 0.8638(3) -0.0272(4)
H19B H -0.8684 0.8905 -0.0870
C34B C -0.9714(3) 0.8508(3) 0.1153(4)
H20B H -1.0153 0.8682 0.1559
C35B C -0.9338(4) 0.7851(3) 0.1444(4)
H21B H -0.9515 0.7595 0.2044
C36B C -0.8700(3) 0.7575(3) 0.0843(4)
H22B H -0.8452 0.7126 0.1018
N1B N -0.4449(3) 0.6313(2) -0.0942(3)
N2B N -0.6681(3) 0.7075(3) 0.0577(3)
H23B H -0.6169 0.6874 0.0655
H24B H -0.6996 0.7081 0.1126
N3B N -0.7000(3) 0.7394(2) -0.0445(3)
N4B N -0.7774(3) 0.7986(3) -0.1779(4)
N5B N -0.7001(3) 0.7750(3) -0.2172(4)
N6B N -0.9473(3) 0.8909(2) 0.0306(3)
O1B O -0.2899(2) 0.4443(2) 0.0386(3)
O2B O -0.2704(2) 0.53868(19) -0.0664(3)
O3B O -0.0364(2) 0.49299(18) -0.3380(2)
O4B O 0.0955(2) 0.4673(2) -0.2462(3)
O5B O 0.0224(2) 0.3504(2) 0.1144(3)
O6B O 0.3682(2) 0.3482(3) 0.4535(3)
O7B O 0.4033(2) 0.4440(2) 0.8557(3)
O8B O 0.5468(3) 0.4685(2) 0.8862(3)
O9B O 0.7203(2) 0.4794(2) 0.5433(3)
O10B O 0.6659(3) 0.4041(3) 0.4071(3)
H25B H 0.7054 0.4208 0.3738
O11B O -0.1293(2) 0.54440(18) 1.4594(3)
Zn1_2 Zn -0.60914(4) 0.45999(3) 0.01384(4)
Zn1B_2 Zn 0.60914(4) 0.54001(3) 0.98616(4)
Zn2_2 Zn 0.0000 0.5000 -0.5000
Zn2A Zn -1.0000 1.0000 0.0000
Zn2A_2 Zn 1.0000 0.0000 1.0000
N6A N 0.0527(3) 0.6091(2) 1.5306(3)
N6C N -0.0527(3) 0.3909(2) 1.4694(3)
O3B_2 O -0.0364(2) 0.49299(18) 1.6620(2)
O8_2 O 0.4532(3) 0.5315(2) 1.1138(3)
O8B_2 O -0.4532(3) 0.4685(2) -0.1138(3)
O12 O 0.2265(3) 0.5668(3) 0.7345(3)
loop_
_geom_bond_atom_site_label_1
_geom_bond_atom_site_label_2
_geom_bond_site_symmetry_1
_geom_bond_site_symmetry_2
Zn1 N1 1_555 1_555
Zn2 O3 1_555 1_555
C1 C2 1_555 1_555
C2 C3 1_555 1_555
C3 H1 1_555 1_555
C4 C3 1_555 1_555
C5 C4 1_555 1_555
H2 C5 1_555 1_555
C6 C5 1_555 1_555
C7 C2 1_555 1_555
H3 C7 1_555 1_555
C8 C4 1_555 1_555
C9 H4 1_555 1_555
H5 C9 1_555 1_555
C10 C9 1_555 1_555
C11 C10 1_555 1_555
H6 C11 1_555 1_555
C12 C11 1_555 1_555
C13 C12 1_555 1_555
H7 C13 1_555 1_555
C14 C13 1_555 1_555
H8 C14 1_555 1_555
C15 C10 1_555 1_555
H9 C15 1_555 1_555
C16 C12 1_555 1_555
H10 C16 1_555 1_555
H11 C16 1_555 1_555
C17 C18 1_555 1_555
C18 H12 1_555 1_555
C19 C18 1_555 1_555
C20 C19 1_555 1_555
H13 C20 1_555 1_555
C21 C20 1_555 1_555
C22 C17 1_555 1_555
H14 C22 1_555 1_555
C23 C21 1_555 1_555
C24 C19 1_555 1_555
C25 H15 1_555 1_555
C26 C25 1_555 1_555
H16 C26 1_555 1_555
C27 C26 1_555 1_555
H17 C27 1_555 1_555
C28 C27 1_555 1_555
C29 C28 1_555 1_555
H18 C29 1_555 1_555
C30 C28 1_555 1_555
C31 C32 1_555 1_555
C32 C33 1_555 1_555
C33 H19 1_555 1_555
C34 H20 1_555 1_555
C35 C34 1_555 1_555
H21 C35 1_555 1_555
C36 C32 1_555 1_555
H22 C36 1_555 1_555
N1 C25 1_555 1_555
N2 H23 1_555 1_555
H24 N2 1_555 1_555
N3 C30 1_555 1_555
N4 C31 1_555 1_555
N5 C30 1_555 1_555
N6 C33 1_555 1_555
O1 Zn1 1_555 1_555
O2 Zn1 1_555 1_555
O3 C8 1_555 1_555
O4 C8 1_555 1_555
O5 C6 1_555 1_555
O6 C16 1_555 1_555
O7 C23 1_555 1_555
O8 C23 1_555 1_555
O9 C24 1_555 1_555
O10 C24 1_555 1_555
H25 O10 1_555 1_555
O11 Zn2 1_555 1_555
Zn1B O7 1_555 1_555
C1B C2B 1_555 1_555
C2B C3B 1_555 1_555
C3B H1B 1_555 1_555
C4B C3B 1_555 1_555
C5B C4B 1_555 1_555
H2B C5B 1_555 1_555
C6B C5B 1_555 1_555
C7B C2B 1_555 1_555
H3B C7B 1_555 1_555
C8B C4B 1_555 1_555
C9B H4B 1_555 1_555
H5B C9B 1_555 1_555
C10B C9B 1_555 1_555
C11B C10B 1_555 1_555
H6B C11B 1_555 1_555
C12B C11B 1_555 1_555
C13B C12B 1_555 1_555
H7B C13B 1_555 1_555
C14B C13B 1_555 1_555
H8B C14B 1_555 1_555
C15B C10B 1_555 1_555
H9B C15B 1_555 1_555
C16B C12B 1_555 1_555
H10B C16B 1_555 1_555
H11B C16B 1_555 1_555
C17B C18B 1_555 1_555
C18B H12B 1_555 1_555
C19B C18B 1_555 1_555
C20B C19B 1_555 1_555
H13B C20B 1_555 1_555
C21B C20B 1_555 1_555
C22B C17B 1_555 1_555
H14B C22B 1_555 1_555
C23B C21B 1_555 1_555
C24B C19B 1_555 1_555
C25B H15B 1_555 1_555
C26B C25B 1_555 1_555
H16B C26B 1_555 1_555
C27B C26B 1_555 1_555
H17B C27B 1_555 1_555
C28B C27B 1_555 1_555
C29B C28B 1_555 1_555
H18B C29B 1_555 1_555
C30B C28B 1_555 1_555
C31B C32B 1_555 1_555
C32B C33B 1_555 1_555
C33B H19B 1_555 1_555
C34B H20B 1_555 1_555
C35B C34B 1_555 1_555
H21B C35B 1_555 1_555
C36B C32B 1_555 1_555
H22B C36B 1_555 1_555
N1B Zn1B 1_555 1_555
N2B H23B 1_555 1_555
H24B N2B 1_555 1_555
N3B C30B 1_555 1_555
N4B C31B 1_555 1_555
N5B C30B 1_555 1_555
N6B C33B 1_555 1_555
O1B Zn1B 1_555 1_555
O2B Zn1B 1_555 1_555
O3B C8B 1_555 1_555
O4B C8B 1_555 1_555
O5B C6B 1_555 1_555
O6B C16B 1_555 1_555
O7B Zn1 1_555 1_555
O8B C23B 1_555 1_555
O9B C24B 1_555 1_555
O10B C24B 1_555 1_555
H25B O10B 1_555 1_555
O11B Zn2 1_555 1_555
Zn1_2 O8 1_555 1_555
Zn1B_2 O8B 1_555 1_555
Zn2_2 O3B 1_555 1_555
Zn2A N6B 1_555 1_555
Zn2A_2 N6 1_555 1_555
N6A Zn2 1_555 1_555
N6C Zn2 1_555 1_555
O3B_2 Zn2 1_555 1_555
O8_2 Zn1 1_555 1_555
O8B_2 Zn1B 1_555 1_555
C1 O1 1_555 1_555
C1 O2 1_555 1_555
C6 C7 1_555 1_555
C9 O5 1_555 1_555
C14 C15 1_555 1_555
C17 O6 1_555 1_555
C21 C22 1_555 1_555
C29 N1 1_555 1_555
C31 N3 1_555 1_555
C34 N6 1_555 1_555
C35 C36 1_555 1_555
N2 N3 1_555 1_555
N4 N5 1_555 1_555
C1B O1B 1_555 1_555
C1B O2B 1_555 1_555
C6B C7B 1_555 1_555
C9B O5B 1_555 1_555
C14B C15B 1_555 1_555
C17B O6B 1_555 1_555
C21B C22B 1_555 1_555
C23B O7B 1_555 1_555
C25B N1B 1_555 1_555
C29B N1B 1_555 1_555
C31B N3B 1_555 1_555
C34B N6B 1_555 1_555
C35B C36B 1_555 1_555
N2B N3B 1_555 1_555
N4B N5B 1_555 1_555

#END
