
#######################################################################
#
#                 Cambridge Crystallographic Data Centre
#                                CCDC 
#
#######################################################################
#
# If this CIF has been generated from an entry in the Cambridge 
# Structural Database, then it will include bibliographic, chemical, 
# crystal, experimental, refinement or atomic coordinate data resulting 
# from the CCDC's data processing and validation procedures.
#
#######################################################################

data_WOPJOA
_symmetry_cell_setting           rhombohedral
_symmetry_space_group_name_H-M   'R 3'
_symmetry_Int_Tables_number      146
_space_group_name_Hall           'R 3'
loop_
_symmetry_equiv_pos_site_id
_symmetry_equiv_pos_as_xyz
1 x,y,z
2 -y,x-y,z
3 -x+y,-x,z
4 2/3+x,1/3+y,1/3+z
5 2/3-y,1/3+x-y,1/3+z
6 2/3-x+y,1/3-x,1/3+z
7 1/3+x,2/3+y,2/3+z
8 1/3-y,2/3+x-y,2/3+z
9 1/3-x+y,2/3-x,2/3+z
_cell_length_a                   30.581(1)
_cell_length_b                   30.581(1)
_cell_length_c                   8.917(1)
_cell_angle_alpha                90
_cell_angle_beta                 90
_cell_angle_gamma                120.00
_cell_volume                     7221.92
loop_
_atom_site_label
_atom_site_type_symbol
_atom_site_fract_x
_atom_site_fract_y
_atom_site_fract_z
P1 P 0.3333 0.6667 0.55893(19)
P2 P 0.15990(4) 0.45857(4) 0.85980(11)
O1 O 0.13343(10) 0.47750(10) 0.9648(3)
O2 O 0.12426(10) 0.42602(10) 0.7337(3)
O3 O 0.18437(10) 0.43254(10) 0.9390(3)
C1 C 0.28647(14) 0.60729(14) 0.6478(5)
C2 C 0.29742(15) 0.58304(14) 0.7613(5)
H1 H 0.3310 0.5976 0.7977
C3 C 0.25977(15) 0.53754(15) 0.8228(5)
H2 H 0.2680 0.5217 0.9008
C4 C 0.20992(14) 0.51529(14) 0.7696(4)
C5 C 0.19952(15) 0.53961(14) 0.6549(5)
H3 H 0.1661 0.5251 0.6173
C6 C 0.23687(15) 0.58449(14) 0.5945(5)
H4 H 0.2287 0.6001 0.5157
Na1 Na 0.17216(6) 0.37342(6) 0.39992(19)
Na2 Na 0.04803(6) 0.35775(6) 0.29607(19)
O7 O 0.11258(12) 0.35567(12) 0.1571(4)
H9 H 0.0935(17) 0.3310(13) 0.096(5)
H10 H 0.1316(18) 0.3811(13) 0.099(5)
O8 O 0.12656(12) 0.41679(11) 0.4264(3)
H11 H 0.122(2) 0.4208(19) 0.517(3)
H12 H 0.141(2) 0.4439(14) 0.377(5)
O9 O 0.22210(11) 0.41093(12) 0.1915(3)
H13 H 0.2192(19) 0.4299(18) 0.125(5)
H14 H 0.2540(9) 0.4229(19) 0.204(6)
O10 O 0.23906(11) 0.43667(11) 0.5732(4)
H15 H 0.2689(11) 0.4452(19) 0.551(7)
H16 H 0.2327(18) 0.4600(15) 0.573(7)
O11 O 0.13765(12) 0.34367(12) 0.6490(4)
H17 H 0.1261(19) 0.3600(15) 0.696(6)
H18 H 0.123(2) 0.3130(10) 0.681(6)
O12 O 0.18271(11) 0.30114(11) 0.3770(4)
H19 H 0.176(2) 0.2814(17) 0.454(4)
H20 H 0.1614(18) 0.2845(18) 0.308(4)
O13 O -0.00852(11) 0.35757(10) 0.4813(3)
H21 H -0.0368(12) 0.3555(19) 0.462(7)
H22 H 0.0099(16) 0.3842(15) 0.531(6)
O14 O 0.04501(11) 0.41806(10) 0.1196(3)
H23 H 0.0719(14) 0.4383(16) 0.071(6)
H24 H 0.0362(19) 0.4339(18) 0.176(5)
Na3 Na 0.31910(6) 0.35769(6) 0.82152(18)
Na4 Na 0.21961(6) 0.38800(6) 0.80149(18)
O15 O 0.25287(11) 0.34373(10) 0.6603(4)
H25 H 0.263(2) 0.3494(18) 0.569(3)
H26 H 0.2304(17) 0.3128(10) 0.668(6)
O16 O 0.30446(11) 0.42564(11) 0.9116(4)
H27 H 0.3252(17) 0.4526(14) 0.866(5)
H28 H 0.309(2) 0.4282(19) 1.006(2)
O17 O 0.25531(10) 0.29136(10) 0.9653(3)
H29 H 0.2334(15) 0.2997(18) 0.990(7)
H30 H 0.2399(17) 0.2621(12) 0.925(6)
O18 O 0.38445(11) 0.37612(12) 0.9996(4)
H31 H 0.3999(18) 0.3647(17) 0.950(6)
H32 H 0.4010(18) 0.4084(8) 0.998(7)
O19 O 0.18784(12) 0.32586(11) 1.0041(4)
H33 H 0.199(2) 0.3498(13) 1.066(5)
H34 H 0.1654(16) 0.2986(11) 1.043(6)
C1A C 0.39271(14) 0.67918(20) 0.6478(5)
C2A C 0.41696(14) 0.71438(21) 0.7613(5)
H1A H 0.4024 0.7334 0.7977
C3A C 0.46246(15) 0.72223(21) 0.8228(5)
H2A H 0.4783 0.7463 0.9008
C4A C 0.48471(14) 0.69463(20) 0.7696(4)
P2A P 0.54143(4) 0.70133(6) 0.85980(11)
O1A O 0.52250(10) 0.65593(14) 0.9648(3)
O2A O 0.57398(10) 0.69824(14) 0.7337(3)
O3A O 0.56746(10) 0.75183(14) 0.9390(3)
C5A C 0.46039(14) 0.65991(21) 0.6549(5)
H3A H 0.4749 0.6410 0.6173
C6A C 0.41551(14) 0.65238(21) 0.5945(5)
H4A H 0.3999 0.6286 0.5157
C1B C 0.32082(20) 0.71353(14) 0.6478(5)
C2B C 0.28562(21) 0.70258(15) 0.7613(5)
H1B H 0.2666 0.6690 0.7977
C3B C 0.27777(21) 0.74023(15) 0.8228(5)
H2B H 0.2537 0.7320 0.9008
C4B C 0.30537(20) 0.79008(14) 0.7696(4)
P2B P 0.29867(6) 0.84010(4) 0.85980(11)
O1B O 0.34407(14) 0.86657(10) 0.9648(3)
O2B O 0.30176(14) 0.87574(10) 0.7337(3)
O3B O 0.24817(14) 0.81563(10) 0.9390(3)
C5B C 0.34009(21) 0.80048(15) 0.6549(5)
H3B H 0.3590 0.8339 0.6173
C6B C 0.34762(21) 0.76313(15) 0.5945(5)
H4B H 0.3714 0.7713 0.5157
O13G O -0.02424(10) 0.30058(15) 0.1480(3)
H21G H -0.0222(19) 0.2744(22) 0.129(7)
H22G H -0.0509(15) 0.2924(22) 0.198(6)
O14E O 0.03972(15) 0.28832(11) 0.4529(3)
H23E H 0.0331(21) 0.2614(14) 0.404(6)
H24E H 0.0644(26) 0.2971(19) 0.509(5)
Na2G Na -0.02442(6) 0.35695(8) -0.03726(19)
Na2E Na -0.02361(8) 0.28530(6) 0.62940(19)
Na4A Na 0.61200(6) 0.83161(8) 0.80149(18)
Na4B Na 0.16839(8) 0.78039(6) 0.80149(18)
O17H O 0.36938(14) 0.41136(10) 0.6320(3)
H29H H 0.3996(23) 0.4333(15) 0.657(7)
H30H H 0.3555(21) 0.4268(17) 0.592(6)
O18H O 0.32500(16) 0.28222(11) 0.6663(4)
H31H H 0.2981(25) 0.2668(18) 0.617(6)
H32H H 0.3407(20) 0.2657(18) 0.665(7)
O10A O 0.56333(11) 0.80239(16) 0.5732(4)
H15A H 0.5548(19) 0.8237(22) 0.551(7)
H16A H 0.5400(15) 0.7727(23) 0.573(7)
O11A O 0.65633(12) 0.79398(17) 0.6490(4)
H17A H 0.6400(15) 0.7661(24) 0.696(6)
H18A H 0.6870(10) 0.8100(22) 0.681(6)
O15A O 0.65627(10) 0.90914(15) 0.6603(4)
H25A H 0.6506(18) 0.9136(27) 0.569(3)
H26A H 0.6872(10) 0.9176(20) 0.668(6)
O16A O 0.57436(11) 0.87882(16) 0.9116(4)
H27A H 0.5474(14) 0.8726(22) 0.866(5)
H28A H 0.5718(19) 0.8808(28) 1.006(2)
O19A O 0.67414(11) 0.86198(16) 1.0041(4)
H33A H 0.6502(13) 0.8492(24) 1.066(5)
H34A H 0.7014(11) 0.8668(19) 1.043(6)
O10B O 0.19761(16) 0.76094(11) 0.5732(4)
H15B H 0.1763(22) 0.7311(11) 0.551(7)
H16B H 0.2273(23) 0.7673(18) 0.573(7)
O11B O 0.20602(17) 0.86235(12) 0.6490(4)
H17B H 0.2339(24) 0.8739(19) 0.696(6)
H18B H 0.1900(22) 0.877(2) 0.681(6)
O15B O 0.09086(15) 0.74713(11) 0.6603(4)
H25B H 0.0864(27) 0.737(2) 0.569(3)
H26B H 0.0824(20) 0.7696(17) 0.668(6)
O16B O 0.12118(16) 0.69554(11) 0.9116(4)
H27B H 0.1274(22) 0.6748(17) 0.866(5)
H28B H 0.1192(28) 0.691(2) 1.006(2)
O19B O 0.13802(16) 0.81216(12) 1.0041(4)
H33B H 0.1508(24) 0.801(2) 1.066(5)
H34B H 0.1332(19) 0.8346(16) 1.043(6)
Na1A Na 0.62658(6) 0.79874(8) 0.39992(19)
Na1B Na 0.20126(8) 0.82784(6) 0.39992(19)
Na3A Na 0.64231(6) 0.96141(8) 0.82152(18)
Na3B Na 0.03859(8) 0.68090(6) 0.82152(18)
O7A O 0.64433(12) 0.75691(17) 0.1571(4)
H9A H 0.6690(13) 0.7625(21) 0.096(5)
H10A H 0.6189(13) 0.7505(22) 0.099(5)
O8A O 0.58321(11) 0.70977(16) 0.4264(3)
H11A H 0.5792(19) 0.7012(28) 0.517(3)
H12A H 0.5561(14) 0.6971(24) 0.377(5)
O9A O 0.58907(12) 0.81117(16) 0.1915(3)
H13A H 0.5701(18) 0.7893(26) 0.125(5)
H14A H 0.5771(19) 0.8311(21) 0.204(6)
O12A O 0.69886(11) 0.88157(16) 0.3770(4)
H19A H 0.7186(17) 0.8946(26) 0.454(4)
H20A H 0.7155(18) 0.8769(25) 0.308(4)
O7B O 0.24309(17) 0.88742(12) 0.1571(4)
H9B H 0.2375(21) 0.9065(17) 0.096(5)
H10B H 0.2495(22) 0.8684(18) 0.099(5)
O8B O 0.29023(16) 0.87344(12) 0.4264(3)
H11B H 0.2988(28) 0.878(2) 0.517(3)
H12B H 0.3029(24) 0.859(2) 0.377(5)
O9B O 0.18883(16) 0.77790(11) 0.1915(3)
H13B H 0.2107(26) 0.7808(19) 0.125(5)
H14B H 0.1689(21) 0.7460(9) 0.204(6)
O12B O 0.11843(16) 0.81729(11) 0.3770(4)
H19B H 0.1054(26) 0.824(2) 0.454(4)
H20B H 0.1231(25) 0.8386(18) 0.308(4)
O17A O 0.70864(10) 0.96395(14) 0.9653(3)
H29A H 0.7003(18) 0.9337(23) 0.990(7)
H30A H 0.7379(12) 0.9778(21) 0.925(6)
O18A O 0.62388(12) 1.00833(16) 0.9996(4)
H31A H 0.6353(17) 1.0352(25) 0.950(6)
H32A H 0.5916(8) 0.9926(20) 0.998(7)
Na3D Na 0.30898(6) 0.29474(8) 1.15485(18)
Na3H Na 0.37192(8) 0.34757(6) 0.48819(18)
O7G O -0.02234(12) 0.42358(17) -0.1762(4)
O8G O -0.08346(11) 0.37644(16) 0.0931(3)
O13E O 0.03276(15) 0.34185(11) -0.1854(3)
O14G O -0.08473(10) 0.29362(15) -0.2137(3)
Na1E Na -0.13207(8) 0.16117(6) 0.73325(19)
O7E O -0.09024(17) 0.22075(12) 0.4904(4)
O8E O -0.04310(16) 0.20677(12) 0.7597(3)
O13E_2 O 0.03276(15) 0.34185(11) 0.8146(3)
O14G_2 O -0.08473(10) 0.29362(15) 0.7863(3)
Na2A Na 0.64225(6) 0.69028(8) 0.29607(19)
Na2B Na 0.30972(8) 0.95197(6) 0.29607(19)
Na3E Na 0.70526(8) 1.01423(6) 1.15485(18)
O17F O 0.58864(10) 0.95803(10) 0.6320(3)
O18F O 0.71778(11) 1.04279(12) 0.6663(4)
O17B O 0.03605(14) 0.74469(10) 0.9653(3)
O17G O 0.04197(10) 0.63062(14) 0.6320(3)
O18B O -0.00833(16) 0.61555(11) 0.9996(4)
O18G O -0.04279(12) 0.67500(16) 0.6663(4)
H9G H 0.0023(13) 0.4292(21) -0.237(5)
H10G H -0.0478(13) 0.4172(22) -0.234(5)
H11G H -0.0875(19) 0.3679(28) 0.184(3)
H12G H -0.1106(14) 0.3638(24) 0.044(5)
H21E H 0.0590(22) 0.3701(12) -0.205(7)
H22E H 0.0410(22) 0.3234(16) -0.136(6)
H23G H -0.1050(16) 0.3003(21) -0.262(6)
H24G H -0.1006(18) 0.2690(26) -0.157(5)
H9E H -0.0958(21) 0.2398(17) 0.429(5)
H10E H -0.0838(22) 0.2017(18) 0.432(5)
H11E H -0.0345(28) 0.211(2) 0.850(3)
H12E H -0.0304(24) 0.192(2) 0.710(5)
H21E_2 H 0.0590(22) 0.3701(12) 0.795(7)
H22E_2 H 0.0410(22) 0.3234(16) 0.864(6)
H23G_2 H -0.1050(16) 0.3003(21) 0.738(6)
H24G_2 H -0.1006(18) 0.2690(26) 0.843(5)
H29F H 0.5667(15) 0.9664(18) 0.657(7)
H30F H 0.5732(17) 0.9288(12) 0.592(6)
H31F H 0.7332(18) 1.0314(17) 0.617(6)
H32F H 0.7343(18) 1.0751(8) 0.665(7)
H29B H 0.0663(23) 0.7666(15) 0.990(7)
H30B H 0.0222(21) 0.7601(17) 0.925(6)
H29G H 0.0336(18) 0.6004(23) 0.657(7)
H30G H 0.0712(12) 0.6445(21) 0.592(6)
H31B H -0.0352(25) 0.6001(18) 0.950(6)
H32B H 0.0074(20) 0.5990(18) 0.998(7)
H31G H -0.0314(17) 0.7019(25) 0.617(6)
H32G H -0.0751(8) 0.6593(20) 0.665(7)
P3 P 0.3333 0.6667 1.05837(19)
P4 P 0.35273(4) 0.47937(3) 1.31846(11)
O4 O 0.33453(10) 0.46916(10) 1.4808(3)
O5 O 0.31893(10) 0.43551(10) 1.2159(3)
O6 O 0.40803(10) 0.49351(10) 1.3050(3)
C7 C 0.33878(14) 0.61520(14) 1.1456(4)
C8 C 0.30600(15) 0.58274(15) 1.2553(5)
H5 H 0.2801 0.5881 1.2940
C9 C 0.31081(15) 0.54281(15) 1.3081(5)
H6 H 0.2882 0.5212 1.3828
C10 C 0.34844(14) 0.53369(14) 1.2536(5)
C11 C 0.38094(15) 0.56564(15) 1.1443(5)
H7 H 0.4068 0.5602 1.1061
C12 C 0.37598(15) 0.60576(15) 1.0900(5)
H8 H 0.3983 0.6270 1.0140
C7A C 0.38480(14) 0.72358(20) 1.1456(4)
C8A C 0.41726(15) 0.72326(21) 1.2553(5)
H5A H 0.4119 0.6920 1.2940
C9A C 0.45719(15) 0.76800(21) 1.3081(5)
H6A H 0.4788 0.7670 1.3828
C10A C 0.46631(14) 0.81475(20) 1.2536(5)
P4A P 0.52063(3) 0.87336(5) 1.31846(11)
O4A O 0.53084(10) 0.86537(14) 1.4808(3)
O5A O 0.56449(10) 0.88342(14) 1.2159(3)
O6A O 0.50649(10) 0.91452(14) 1.3050(3)
C11A C 0.43436(15) 0.81530(21) 1.1443(5)
H7A H 0.4398 0.8466 1.1061
C12A C 0.39424(15) 0.77022(21) 1.0900(5)
H8A H 0.3730 0.7713 1.0140
C7B C 0.27642(20) 0.66122(14) 1.1456(4)
C8B C 0.27674(21) 0.69400(15) 1.2553(5)
H5B H 0.3080 0.7199 1.2940
C9B C 0.23200(21) 0.68919(15) 1.3081(5)
H6B H 0.2330 0.7118 1.3828
C10B C 0.18525(20) 0.65156(14) 1.2536(5)
P4B P 0.12664(5) 0.64727(4) 1.31846(11)
O4B O 0.13463(14) 0.66547(10) 1.4808(3)
O5B O 0.11658(14) 0.68107(10) 1.2159(3)
O6B O 0.08548(14) 0.59197(10) 1.3050(3)
C11B C 0.18470(21) 0.61906(15) 1.1443(5)
H7B H 0.1534 0.5932 1.1061
C12B C 0.22978(21) 0.62402(15) 1.0900(5)
H8B H 0.2287 0.6017 1.0140
O20 O 0.16694(13) 0.50231(12) 1.2445(4)
H35 H 0.1878(18) 0.5324(10) 1.260(6)
H36 H 0.160(2) 0.4950(19) 1.153(3)
O21 O 0.09221(13) 0.51397(13) 1.4001(4)
H37 H 0.092(2) 0.5408(14) 1.373(6)
H38 H 0.1165(17) 0.5129(19) 1.354(6)
O22 O 0.05368(11) 0.44633(12) 0.6269(4)
H39 H 0.0655(18) 0.4716(16) 0.566(6)
H40 H 0.0788(14) 0.445(2) 0.667(6)
O23 O 0.09525(12) 0.53900(13) 0.8446(4)
H41 H 0.1068(19) 0.5216(17) 0.878(7)
H42 H 0.1169(16) 0.5665(13) 0.805(6)
O24 O 0.15606(13) 0.63657(13) 0.7389(4)
H43 H 0.1494(19) 0.640(2) 0.648(3)
H44 H 0.1866(10) 0.646(2) 0.749(6)
loop_
_geom_bond_atom_site_label_1
_geom_bond_atom_site_label_2
_geom_bond_site_symmetry_1
_geom_bond_site_symmetry_2
P1 C1 1_555 1_555
P2 O1 1_555 1_555
O2 P2 1_555 1_555
O3 P2 1_555 1_555
C1 C2 1_555 1_555
C2 H1 1_555 1_555
C3 C2 1_555 1_555
H2 C3 1_555 1_555
C4 P2 1_555 1_555
C5 C4 1_555 1_555
H3 C5 1_555 1_555
C6 C1 1_555 1_555
H4 C6 1_555 1_555
P3 C7 1_555 1_555
P4 O4 1_555 1_555
O5 P4 1_555 1_555
O6 P4 1_555 1_555
C7 C8 1_555 1_555
C8 H5 1_555 1_555
C9 C8 1_555 1_555
H6 C9 1_555 1_555
C10 P4 1_555 1_555
C11 C10 1_555 1_555
H7 C11 1_555 1_555
C12 C7 1_555 1_555
H8 C12 1_555 1_555
Na1 O7 1_555 1_555
Na2 O7 1_555 1_555
O7 H9 1_555 1_555
H10 O7 1_555 1_555
O8 Na1 1_555 1_555
H11 O8 1_555 1_555
H12 O8 1_555 1_555
O9 Na1 1_555 1_555
H13 O9 1_555 1_555
H14 O9 1_555 1_555
O10 Na1 1_555 1_555
H15 O10 1_555 1_555
H16 O10 1_555 1_555
O11 Na1 1_555 1_555
H17 O11 1_555 1_555
H18 O11 1_555 1_555
O12 Na1 1_555 1_555
H19 O12 1_555 1_555
H20 O12 1_555 1_555
O13 Na2 1_555 1_555
H21 O13 1_555 1_555
H22 O13 1_555 1_555
O14 Na2 1_555 1_555
H23 O14 1_555 1_555
H24 O14 1_555 1_555
Na3 O15 1_555 1_555
Na4 O3 1_555 1_555
O15 Na4 1_555 1_555
H25 O15 1_555 1_555
H26 O15 1_555 1_555
O16 Na3 1_555 1_555
H27 O16 1_555 1_555
H28 O16 1_555 1_555
O17 Na3 1_555 1_555
H29 O17 1_555 1_555
H30 O17 1_555 1_555
O18 Na3 1_555 1_555
H31 O18 1_555 1_555
H32 O18 1_555 1_555
O19 Na4 1_555 1_555
H33 O19 1_555 1_555
H34 O19 1_555 1_555
O20 H35 1_555 1_555
H36 O20 1_555 1_555
O21 H37 1_555 1_555
H38 O21 1_555 1_555
O22 H39 1_555 1_555
H40 O22 1_555 1_555
O23 H41 1_555 1_555
H42 O23 1_555 1_555
O24 H43 1_555 1_555
H44 O24 1_555 1_555
C1A P1 1_555 1_555
C2A C1A 1_555 1_555
H1A C2A 1_555 1_555
C3A C2A 1_555 1_555
H2A C3A 1_555 1_555
C4A C3A 1_555 1_555
P2A C4A 1_555 1_555
O1A P2A 1_555 1_555
O2A P2A 1_555 1_555
O3A P2A 1_555 1_555
C5A C4A 1_555 1_555
H3A C5A 1_555 1_555
C6A C1A 1_555 1_555
H4A C6A 1_555 1_555
C1B P1 1_555 1_555
C2B C1B 1_555 1_555
H1B C2B 1_555 1_555
C3B C2B 1_555 1_555
H2B C3B 1_555 1_555
C4B C3B 1_555 1_555
P2B C4B 1_555 1_555
O1B P2B 1_555 1_555
O2B P2B 1_555 1_555
O3B P2B 1_555 1_555
C5B C4B 1_555 1_555
H3B C5B 1_555 1_555
C6B C1B 1_555 1_555
H4B C6B 1_555 1_555
C7A P3 1_555 1_555
C8A C7A 1_555 1_555
H5A C8A 1_555 1_555
C9A C8A 1_555 1_555
H6A C9A 1_555 1_555
C10A C9A 1_555 1_555
P4A C10A 1_555 1_555
O4A P4A 1_555 1_555
O5A P4A 1_555 1_555
O6A P4A 1_555 1_555
C11A C10A 1_555 1_555
H7A C11A 1_555 1_555
C12A C7A 1_555 1_555
H8A C12A 1_555 1_555
C7B P3 1_555 1_555
C8B C7B 1_555 1_555
H5B C8B 1_555 1_555
C9B C8B 1_555 1_555
H6B C9B 1_555 1_555
C10B C9B 1_555 1_555
P4B C10B 1_555 1_555
O4B P4B 1_555 1_555
O5B P4B 1_555 1_555
O6B P4B 1_555 1_555
C11B C10B 1_555 1_555
H7B C11B 1_555 1_555
C12B C7B 1_555 1_555
H8B C12B 1_555 1_555
O13G Na2 1_555 1_555
H21G O13G 1_555 1_555
H22G O13G 1_555 1_555
O14E Na2 1_555 1_555
H23E O14E 1_555 1_555
H24E O14E 1_555 1_555
Na2G O14 1_555 1_555
Na2E O13 1_555 1_555
Na4A O3A 1_555 1_555
Na4B O3B 1_555 1_555
O17H Na3 1_555 1_555
H29H O17H 1_555 1_555
H30H O17H 1_555 1_555
O18H Na3 1_555 1_555
H31H O18H 1_555 1_555
H32H O18H 1_555 1_555
O10A Na4A 1_555 1_555
H15A O10A 1_555 1_555
H16A O10A 1_555 1_555
O11A Na4A 1_555 1_555
H17A O11A 1_555 1_555
H18A O11A 1_555 1_555
O15A Na4A 1_555 1_555
H25A O15A 1_555 1_555
H26A O15A 1_555 1_555
O16A Na4A 1_555 1_555
H27A O16A 1_555 1_555
H28A O16A 1_555 1_555
O19A Na4A 1_555 1_555
H33A O19A 1_555 1_555
H34A O19A 1_555 1_555
O10B Na4B 1_555 1_555
H15B O10B 1_555 1_555
H16B O10B 1_555 1_555
O11B Na4B 1_555 1_555
H17B O11B 1_555 1_555
H18B O11B 1_555 1_555
O15B Na4B 1_555 1_555
H25B O15B 1_555 1_555
H26B O15B 1_555 1_555
O16B Na4B 1_555 1_555
H27B O16B 1_555 1_555
H28B O16B 1_555 1_555
O19B Na4B 1_555 1_555
H33B O19B 1_555 1_555
H34B O19B 1_555 1_555
Na1A O10A 1_555 1_555
Na1B O10B 1_555 1_555
Na3A O15A 1_555 1_555
Na3B O15B 1_555 1_555
O7A Na1A 1_555 1_555
H9A O7A 1_555 1_555
H10A O7A 1_555 1_555
O8A Na1A 1_555 1_555
H11A O8A 1_555 1_555
H12A O8A 1_555 1_555
O9A Na1A 1_555 1_555
H13A O9A 1_555 1_555
H14A O9A 1_555 1_555
O12A Na1A 1_555 1_555
H19A O12A 1_555 1_555
H20A O12A 1_555 1_555
O7B Na1B 1_555 1_555
H9B O7B 1_555 1_555
H10B O7B 1_555 1_555
O8B Na1B 1_555 1_555
H11B O8B 1_555 1_555
H12B O8B 1_555 1_555
O9B Na1B 1_555 1_555
H13B O9B 1_555 1_555
H14B O9B 1_555 1_555
O12B Na1B 1_555 1_555
H19B O12B 1_555 1_555
H20B O12B 1_555 1_555
O17A Na3A 1_555 1_555
H29A O17A 1_555 1_555
H30A O17A 1_555 1_555
O18A Na3A 1_555 1_555
H31A O18A 1_555 1_555
H32A O18A 1_555 1_555
Na3D O17 1_555 1_555
Na3H O17H 1_555 1_555
O7G Na2G 1_555 1_555
O8G Na2G 1_555 1_555
O13E Na2G 1_555 1_555
O14G Na2G 1_555 1_555
Na1E O7E 1_555 1_555
O7E Na2E 1_555 1_555
O8E Na2E 1_555 1_555
O13E_2 Na2E 1_555 1_555
O14G_2 Na2E 1_555 1_555
Na2A O7A 1_555 1_555
Na2B O7B 1_555 1_555
Na3E O17A 1_555 1_555
O17F Na3A 1_555 1_555
O18F Na3A 1_555 1_555
O17B Na3B 1_555 1_555
O17G Na3B 1_555 1_555
O18B Na3B 1_555 1_555
O18G Na3B 1_555 1_555
H9G O7G 1_555 1_555
H10G O7G 1_555 1_555
H11G O8G 1_555 1_555
H12G O8G 1_555 1_555
H21E O13E 1_555 1_555
H22E O13E 1_555 1_555
H23G O14G 1_555 1_555
H24G O14G 1_555 1_555
H9E O7E 1_555 1_555
H10E O7E 1_555 1_555
H11E O8E 1_555 1_555
H12E O8E 1_555 1_555
H21E_2 O13E_2 1_555 1_555
H22E_2 O13E_2 1_555 1_555
H23G_2 O14G_2 1_555 1_555
H24G_2 O14G_2 1_555 1_555
H29F O17F 1_555 1_555
H30F O17F 1_555 1_555
H31F O18F 1_555 1_555
H32F O18F 1_555 1_555
H29B O17B 1_555 1_555
H30B O17B 1_555 1_555
H29G O17G 1_555 1_555
H30G O17G 1_555 1_555
H31B O18B 1_555 1_555
H32B O18B 1_555 1_555
H31G O18G 1_555 1_555
H32G O18G 1_555 1_555
C3 C4 1_555 1_555
C5 C6 1_555 1_555
C9 C10 1_555 1_555
C11 C12 1_555 1_555
Na2 O8 1_555 1_555
O10 Na4 1_555 1_555
O11 Na4 1_555 1_555
Na4 O16 1_555 1_555
O18 Na3D 1_555 1_555
C5A C6A 1_555 1_555
C5B C6B 1_555 1_555
C11A C12A 1_555 1_555
C11B C12B 1_555 1_555
O13G Na2G 1_555 1_555
O14E Na2E 1_555 1_555
O18H Na3H 1_555 1_555
O11A Na1A 1_555 1_555
O16A Na3A 1_555 1_555
O11B Na1B 1_555 1_555
O16B Na3B 1_555 1_555
O8A Na2A 1_555 1_555
O8B Na2B 1_555 1_555
O18A Na3E 1_555 1_555
Na1E O8E 1_555 1_555

#END
