
#######################################################################
#
#                 Cambridge Crystallographic Data Centre
#                                CCDC 
#
#######################################################################
#
# If this CIF has been generated from an entry in the Cambridge 
# Structural Database, then it will include bibliographic, chemical, 
# crystal, experimental, refinement or atomic coordinate data resulting 
# from the CCDC's data processing and validation procedures.
#
#######################################################################

data_WOPKUI
_symmetry_cell_setting           monoclinic
_symmetry_space_group_name_H-M   'P 21/n'
_symmetry_Int_Tables_number      14
_space_group_name_Hall           '-P 2yn'
loop_
_symmetry_equiv_pos_site_id
_symmetry_equiv_pos_as_xyz
1 x,y,z
2 1/2-x,1/2+y,1/2-z
3 -x,-y,-z
4 1/2+x,1/2-y,1/2+z
_cell_length_a                   14.9889(9)
_cell_length_b                   20.6351(12)
_cell_length_c                   15.7126(9)
_cell_angle_alpha                90
_cell_angle_beta                 102.445(4)
_cell_angle_gamma                90
_cell_volume                     4745.68
loop_
_atom_site_label
_atom_site_type_symbol
_atom_site_fract_x
_atom_site_fract_y
_atom_site_fract_z
Mn1 Mn 0.51943(4) 0.21432(3) 0.66208(4)
Mn2 Mn 0.48852(4) 0.21160(3) 0.85995(4)
Mn3 Mn 0.19895(4) 0.25086(3) 0.33190(4)
C1 C 0.7134(3) 0.1500(2) 0.6892(3)
C2 C 0.7555(3) 0.0885(2) 0.6618(3)
H1 H 0.8192 0.0845 0.6972
C3 C 0.7592(4) 0.0871(3) 0.5665(3)
H2 H 0.6969 0.0858 0.5308
H3 H 0.7927 0.0485 0.5546
H4 H 0.7903 0.1261 0.5521
C4 C 0.6998(4) 0.0308(2) 0.6829(4)
H5 H 0.7008 0.0304 0.7455
H6 H 0.7262 -0.0095 0.6666
H7 H 0.6365 0.0348 0.6501
C5 C 0.6514(3) 0.1337(2) 0.9363(3)
C6 C 0.6849(3) 0.0659(2) 0.9599(3)
H8 H 0.6555 0.0377 0.9099
C7 C 0.7862(3) 0.0586(3) 0.9689(4)
H9 H 0.8032 0.0733 0.9153
H10 H 0.8031 0.0129 0.9793
H11 H 0.8182 0.0847 1.0181
C8 C 0.6502(3) 0.0418(2) 1.0390(3)
H12 H 0.6703 0.0716 1.0880
H13 H 0.6748 -0.0015 1.0552
H14 H 0.5833 0.0400 1.0245
C9 C 0.6077(3) 0.3307(2) 0.9517(3)
C10 C 0.6041(3) 0.3911(2) 1.0072(3)
H15 H 0.6229 0.4287 0.9749
C11 C 0.6740(4) 0.3851(3) 1.0922(4)
H16 H 0.6557 0.3504 1.1274
H17 H 0.6777 0.4261 1.1242
H18 H 0.7339 0.3749 1.0799
C12 C 0.4248(3) 0.1043(2) 0.7208(3)
C13 C 0.5101(4) 0.4057(3) 1.0212(4)
H19 H 0.4673 0.4093 0.9646
H20 H 0.5112 0.4466 1.0530
H21 H 0.4904 0.3706 1.0550
C14 C 0.3946(3) 0.0340(2) 0.7114(3)
H22 H 0.3343 0.0308 0.7286
C15 C 0.3828(3) 0.0068(2) 0.6192(3)
H23 H 0.3383 0.0331 0.5788
H24 H 0.3610 -0.0381 0.6181
H25 H 0.4416 0.0078 0.6015
C16 C 0.4640(3) -0.0066(2) 0.7764(3)
H26 H 0.5225 -0.0073 0.7581
H27 H 0.4411 -0.0509 0.7779
H28 H 0.4727 0.0127 0.8346
C17 C 0.3629(3) 0.2839(2) 0.7248(3)
C18 C 0.2860(3) 0.3326(2) 0.7032(3)
H29 H 0.2937 0.3573 0.6505
C19 C 0.2858(3) 0.3815(2) 0.7765(3)
H30 H 0.2732 0.3589 0.8275
H31 H 0.2385 0.4142 0.7567
H32 H 0.3457 0.4027 0.7923
C20 C 0.1957(3) 0.2963(3) 0.6799(3)
H33 H 0.1934 0.2711 0.6267
H34 H 0.1452 0.3274 0.6704
H35 H 0.1905 0.2671 0.7278
C21 C 0.6179(3) 0.3408(2) 0.6812(3)
C22 C 0.6056(3) 0.4140(2) 0.6704(3)
H36 H 0.6671 0.4332 0.6716
C23 C 0.5735(4) 0.4392(3) 0.7499(3)
H37 H 0.5126 0.4219 0.7499
H38 H 0.5709 0.4867 0.7480
H39 H 0.6164 0.4253 0.8030
C24 C 0.5428(3) 0.4340(2) 0.5848(3)
H40 H 0.5676 0.4179 0.5359
H41 H 0.5386 0.4814 0.5819
H42 H 0.4819 0.4156 0.5815
C25 C 0.2380(3) 0.1736(2) 1.0055(3)
H43 H 0.1970 0.1734 0.9470
H44 H 0.2000 0.1662 1.0490
C26 C 0.4660(3) 0.1962(2) 1.0483(3)
H45 H 0.5133 0.1621 1.0526
H46 H 0.4975 0.2385 1.0591
C27 C 0.3438(3) 0.2360(2) 1.1074(3)
H47 H 0.3075 0.2292 1.1523
H48 H 0.3746 0.2785 1.1185
C28 C 0.3584(3) 0.1320(2) 0.9449(3)
H49 H 0.3174 0.1310 0.8864
H50 H 0.4038 0.0968 0.9476
C29 C 0.3355(3) 0.2476(2) 0.9540(3)
H51 H 0.3654 0.2906 0.9627
H52 H 0.2939 0.2473 0.8957
C30 C 0.3656(3) 0.1224(2) 1.0975(3)
H53 H 0.4114 0.0873 1.1018
H54 H 0.3295 0.1145 1.1423
C31 C 0.4848(3) 0.1374(2) 0.4898(3)
H55 H 0.5482 0.1222 0.5119
H56 H 0.4437 0.1092 0.5149
C32 C 0.5224(3) 0.1738(2) 0.3576(3)
H57 H 0.5068 0.1701 0.2932
H58 H 0.5864 0.1593 0.3780
C33 C 0.5380(3) 0.2472(2) 0.4777(3)
H59 H 0.5332 0.2931 0.4947
H60 H 0.6021 0.2333 0.4994
C34 C 0.3801(2) 0.2276(2) 0.4840(3)
H61 H 0.3382 0.2008 0.5102
H62 H 0.3729 0.2732 0.5006
C35 C 0.3679(3) 0.1530(2) 0.3633(3)
H63 H 0.3265 0.1247 0.3880
H64 H 0.3513 0.1488 0.2990
C36 C 0.4189(3) 0.2623(2) 0.3508(3)
H65 H 0.4029 0.2594 0.2865
H66 H 0.4123 0.3081 0.3672
N1 N 0.4072(2) 0.19589(17) 0.9576(2)
N2 N 0.2820(2) 0.23713(18) 1.0212(2)
N3 N 0.3046(2) 0.12045(18) 1.0110(2)
N4 N 0.4133(2) 0.18488(18) 1.1154(2)
N5 N 0.4764(2) 0.20646(17) 0.5197(2)
N6 N 0.4619(2) 0.13136(17) 0.3946(2)
N7 N 0.5148(2) 0.24208(18) 0.3822(2)
N8 N 0.3546(2) 0.22152(17) 0.3877(2)
O1 O 0.56063(17) 0.22197(14) 0.77994(17)
O2 O 0.75059(18) 0.17425(14) 0.76106(18)
O3 O 0.64200(18) 0.17143(14) 0.63824(17)
O4 O 0.56364(19) 0.14004(14) 0.91863(18)
O5 O 0.70618(19) 0.17857(15) 0.93445(18)
O6 O 0.67403(18) 0.32687(14) 0.91410(18)
O7 O 0.54524(18) 0.28896(14) 0.94652(18)
O8 O 0.46973(18) 0.12571(14) 0.66579(17)
O9 O 0.40683(19) 0.13623(14) 0.78243(18)
O10 O 0.38579(18) 0.25519(14) 0.66251(18)
O11 O 0.39791(18) 0.27565(14) 0.80510(17)
O12 O 0.55052(19) 0.30607(14) 0.64286(18)
O13 O 0.68997(18) 0.32039(14) 0.72906(18)
Mn3C Mn 0.69895(4) 0.24914(3) 0.83190(4)
O1C O 0.06063(17) 0.27803(14) 0.27994(17)
O2C O 0.25059(18) 0.32575(14) 0.26106(18)
O5C O 0.20618(19) 0.32143(15) 0.43445(18)
O6C O 0.17403(18) 0.17313(14) 0.41410(18)
O13C O 0.18997(18) 0.17961(14) 0.22906(18)
C37 C 0.0659(4) 0.1063(3) 0.8001(4)
H67 H 0.0209 0.0975 0.7453
H68 H 0.0330 0.1075 0.8484
C38 C 0.1365(4) 0.0531(3) 0.8164(4)
H69 H 0.1689 0.0520 0.7685
H70 H 0.1062 0.0113 0.8198
H71 H 0.1801 0.0613 0.8714
O14 O 0.1091(2) 0.16739(18) 0.7940(2)
H72 H 0.0812 0.1941 0.8202
loop_
_geom_bond_atom_site_label_1
_geom_bond_atom_site_label_2
_geom_bond_site_symmetry_1
_geom_bond_site_symmetry_2
Mn1 N5 1_555 1_555
Mn2 N1 1_555 1_555
Mn3 N8 1_555 1_555
C1 C2 1_555 1_555
C2 H1 1_555 1_555
C3 C2 1_555 1_555
H2 C3 1_555 1_555
H3 C3 1_555 1_555
H4 C3 1_555 1_555
C4 C2 1_555 1_555
H5 C4 1_555 1_555
H6 C4 1_555 1_555
H7 C4 1_555 1_555
C5 C6 1_555 1_555
C6 H8 1_555 1_555
C7 C6 1_555 1_555
H9 C7 1_555 1_555
H10 C7 1_555 1_555
H11 C7 1_555 1_555
C8 C6 1_555 1_555
H12 C8 1_555 1_555
H13 C8 1_555 1_555
H14 C8 1_555 1_555
C9 C10 1_555 1_555
C10 H15 1_555 1_555
C11 C10 1_555 1_555
H16 C11 1_555 1_555
H17 C11 1_555 1_555
H18 C11 1_555 1_555
C12 C14 1_555 1_555
C13 C10 1_555 1_555
H19 C13 1_555 1_555
H20 C13 1_555 1_555
H21 C13 1_555 1_555
C14 H22 1_555 1_555
C15 C14 1_555 1_555
H23 C15 1_555 1_555
H24 C15 1_555 1_555
H25 C15 1_555 1_555
C16 C14 1_555 1_555
H26 C16 1_555 1_555
H27 C16 1_555 1_555
H28 C16 1_555 1_555
C17 C18 1_555 1_555
C18 H29 1_555 1_555
C19 C18 1_555 1_555
H30 C19 1_555 1_555
H31 C19 1_555 1_555
H32 C19 1_555 1_555
C20 C18 1_555 1_555
H33 C20 1_555 1_555
H34 C20 1_555 1_555
H35 C20 1_555 1_555
C21 C22 1_555 1_555
C22 H36 1_555 1_555
C23 C22 1_555 1_555
H37 C23 1_555 1_555
H38 C23 1_555 1_555
H39 C23 1_555 1_555
C24 C22 1_555 1_555
H40 C24 1_555 1_555
H41 C24 1_555 1_555
H42 C24 1_555 1_555
C25 H43 1_555 1_555
H44 C25 1_555 1_555
C26 H45 1_555 1_555
H46 C26 1_555 1_555
C27 H47 1_555 1_555
H48 C27 1_555 1_555
C28 H49 1_555 1_555
H50 C28 1_555 1_555
C29 H51 1_555 1_555
H52 C29 1_555 1_555
C30 H53 1_555 1_555
H54 C30 1_555 1_555
C31 H55 1_555 1_555
H56 C31 1_555 1_555
C32 H57 1_555 1_555
H58 C32 1_555 1_555
C33 H59 1_555 1_555
H60 C33 1_555 1_555
C34 H61 1_555 1_555
H62 C34 1_555 1_555
C35 H63 1_555 1_555
H64 C35 1_555 1_555
C36 H65 1_555 1_555
H66 C36 1_555 1_555
C37 H67 1_555 1_555
H68 C37 1_555 1_555
C38 C37 1_555 1_555
H69 C38 1_555 1_555
H70 C38 1_555 1_555
H71 C38 1_555 1_555
N1 C26 1_555 1_555
N2 C25 1_555 1_555
N3 C25 1_555 1_555
N4 C26 1_555 1_555
N5 C31 1_555 1_555
N6 C31 1_555 1_555
N7 C32 1_555 1_555
N8 C34 1_555 1_555
O1 Mn1 1_555 1_555
O2 C1 1_555 1_555
O3 Mn1 1_555 1_555
O4 Mn2 1_555 1_555
O5 C5 1_555 1_555
O6 C9 1_555 1_555
O7 Mn2 1_555 1_555
O8 Mn1 1_555 1_555
O9 Mn2 1_555 1_555
O10 Mn1 1_555 1_555
O11 Mn2 1_555 1_555
O12 Mn1 1_555 1_555
O13 C21 1_555 1_555
O14 C37 1_555 1_555
H72 O14 1_555 1_555
Mn3C O1 1_555 1_555
O1C Mn3 1_555 1_555
O2C Mn3 1_555 1_555
O5C Mn3 1_555 1_555
O6C Mn3 1_555 1_555
O13C Mn3 1_555 1_555
Mn2 O1 1_555 1_555
C1 O3 1_555 1_555
C5 O4 1_555 1_555
C9 O7 1_555 1_555
C12 O8 1_555 1_555
C12 O9 1_555 1_555
C17 O10 1_555 1_555
C17 O11 1_555 1_555
C21 O12 1_555 1_555
C27 N2 1_555 1_555
C27 N4 1_555 1_555
C28 N1 1_555 1_555
C28 N3 1_555 1_555
C29 N1 1_555 1_555
C29 N2 1_555 1_555
C30 N3 1_555 1_555
C30 N4 1_555 1_555
C32 N6 1_555 1_555
C33 N5 1_555 1_555
C33 N7 1_555 1_555
C34 N5 1_555 1_555
C35 N6 1_555 1_555
C35 N8 1_555 1_555
C36 N7 1_555 1_555
C36 N8 1_555 1_555
O2 Mn3C 1_555 1_555
O5 Mn3C 1_555 1_555
O6 Mn3C 1_555 1_555
O13 Mn3C 1_555 1_555

#END
