
#######################################################################
#
#                 Cambridge Crystallographic Data Centre
#                                CCDC 
#
#######################################################################
#
# If this CIF has been generated from an entry in the Cambridge 
# Structural Database, then it will include bibliographic, chemical, 
# crystal, experimental, refinement or atomic coordinate data resulting 
# from the CCDC's data processing and validation procedures.
#
#######################################################################

data_WOPKES
_symmetry_cell_setting           triclinic
_symmetry_space_group_name_H-M   'P -1'
_symmetry_Int_Tables_number      2
_space_group_name_Hall           '-P 1'
loop_
_symmetry_equiv_pos_site_id
_symmetry_equiv_pos_as_xyz
1 x,y,z
2 -x,-y,-z
_cell_length_a                   8.9434(4)
_cell_length_b                   11.0838(5)
_cell_length_c                   11.7545(6)
_cell_angle_alpha                88.675(3)
_cell_angle_beta                 72.588(3)
_cell_angle_gamma                84.840(3)
_cell_volume                     1107.28
loop_
_atom_site_label
_atom_site_type_symbol
_atom_site_fract_x
_atom_site_fract_y
_atom_site_fract_z
Mn1 Mn 0.24572(5) 0.28084(4) 0.47585(4)
Mn2 Mn 0.5000 0.0000 0.5000
C1 C 0.2449(3) 0.0312(3) 0.3601(3)
C2 C 0.1928(4) -0.0233(3) 0.2613(3)
H1 H 0.2159 -0.1132 0.2611
C3 C 0.0166(5) 0.0060(4) 0.2818(4)
H2 H -0.0069 0.0939 0.2797
H3 H -0.0416 -0.0250 0.3597
H4 H -0.0148 -0.0323 0.2191
C4 C 0.2895(6) 0.0267(4) 0.1430(3)
H5 H 0.2652 0.1146 0.1413
H6 H 0.2639 -0.0111 0.0774
H7 H 0.4018 0.0087 0.1341
C5 C 0.7353(3) -0.2159(3) 0.3116(3)
C6 C 0.7260(4) -0.1801(3) 0.1883(3)
H8 H 0.7132 -0.0897 0.1842
C7 C 0.8755(4) -0.2258(4) 0.0907(3)
H9 H 0.8829 -0.3145 0.0872
H10 H 0.8714 -0.1925 0.0136
H11 H 0.9677 -0.1997 0.1089
C8 C 0.5811(4) -0.2301(4) 0.1701(3)
H12 H 0.4865 -0.1963 0.2310
H13 H 0.5735 -0.2076 0.0908
H14 H 0.5901 -0.3186 0.1769
C9 C 0.5879(3) 0.2293(3) 0.3223(3)
C10 C 0.7135(4) 0.2680(3) 0.2116(3)
H15 H 0.8175 0.2291 0.2146
C11 C 0.7238(5) 0.4048(4) 0.2041(3)
H16 H 0.8119 0.4237 0.1352
H17 H 0.7405 0.4338 0.2771
H18 H 0.6256 0.4448 0.1953
C12 C 0.6803(7) 0.2189(4) 0.1039(4)
H19 H 0.6736 0.1312 0.1123
H20 H 0.7653 0.2356 0.0320
H21 H 0.5804 0.2578 0.0974
C13 C -0.0638(3) 0.4591(2) 0.5088(2)
C14 C -0.1368(3) 0.2675(3) 0.5129(3)
H22 H -0.1109 0.1826 0.5024
C15 C -0.2927(3) 0.3116(3) 0.5442(3)
H23 H -0.3741 0.2588 0.5570
C16 C -0.3259(3) 0.4351(3) 0.5561(3)
H24 H -0.4325 0.4679 0.5790
N1 N -0.0201(3) 0.3408(2) 0.4967(2)
N2 N -0.2109(3) 0.5110(2) 0.5361(2)
O1 O 0.3318(2) -0.03285(18) 0.40711(19)
O2 O 0.1961(3) 0.14058(19) 0.3854(2)
O3 O 0.6516(2) -0.15744(18) 0.40224(18)
O4 O 0.8245(3) -0.3057(2) 0.3262(2)
O5 O 0.4721(2) 0.30590(19) 0.3663(2)
O6 O 0.6063(2) 0.12440(18) 0.36074(19)
Mn1A Mn 0.75428(5) -0.28084(4) 0.52415(4)
Mn1A_2 Mn -0.24572(5) 0.71916(4) 0.52415(4)
C1A C 0.7551(3) -0.0312(3) 0.6399(3)
C2A C 0.8072(4) 0.0233(3) 0.7387(3)
H1A H 0.7841 0.1132 0.7389
C3A C 0.9834(5) -0.0060(4) 0.7182(4)
H2A H 1.0069 -0.0939 0.7203
H3A H 1.0416 0.0250 0.6403
H4A H 1.0148 0.0323 0.7809
C4A C 0.7105(6) -0.0267(4) 0.8570(3)
H5A H 0.7348 -0.1146 0.8587
H6A H 0.7361 0.0111 0.9226
H7A H 0.5982 -0.0087 0.8659
C5A C 0.2647(3) 0.2159(3) 0.6884(3)
C6A C 0.2740(4) 0.1801(3) 0.8117(3)
H8A H 0.2868 0.0897 0.8158
C7A C 0.1245(4) 0.2258(4) 0.9093(3)
H9A H 0.1171 0.3145 0.9128
H10A H 0.1286 0.1925 0.9864
H11A H 0.0323 0.1997 0.8911
C8A C 0.4189(4) 0.2301(4) 0.8299(3)
H12A H 0.5135 0.1963 0.7690
H13A H 0.4265 0.2076 0.9092
H14A H 0.4099 0.3186 0.8231
C9A C 0.4121(3) -0.2293(3) 0.6777(3)
C10A C 0.2865(4) -0.2680(3) 0.7884(3)
H15A H 0.1825 -0.2291 0.7854
C11A C 0.2762(5) -0.4048(4) 0.7959(3)
H16A H 0.1881 -0.4237 0.8648
H17A H 0.2595 -0.4338 0.7229
H18A H 0.3744 -0.4448 0.8047
C12A C 0.3197(7) -0.2189(4) 0.8961(4)
H19A H 0.3264 -0.1312 0.8877
H20A H 0.2347 -0.2356 0.9680
H21A H 0.4196 -0.2578 0.9026
C13A C 0.0638(3) 0.5409(2) 0.4912(2)
C14A C 0.1368(3) 0.7325(3) 0.4871(3)
H22A H 0.1109 0.8174 0.4976
C15A C 0.2927(3) 0.6884(3) 0.4558(3)
H23A H 0.3741 0.7412 0.4430
C16A C 0.3259(3) 0.5649(3) 0.4439(3)
H24A H 0.4325 0.5321 0.4210
N1A N 0.0201(3) 0.6592(2) 0.5033(2)
N1A_2 N 1.0201(3) -0.3408(2) 0.5033(2)
N2A N 0.2109(3) 0.4890(2) 0.4639(2)
N2_2 N 0.7891(3) -0.4890(2) 0.5361(2)
O1A O 0.6682(2) 0.03285(18) 0.59289(19)
O2A O 0.8039(3) -0.14058(19) 0.6146(2)
O3A O 0.3484(2) 0.15744(18) 0.59776(18)
O4A O 0.1755(3) 0.3057(2) 0.6738(2)
O5A O 0.5279(2) -0.30590(19) 0.6337(2)
O6A O 0.3937(2) -0.12440(18) 0.63926(19)
C17 C 0.8343(9) 0.4892(8) 0.8504(6)
C18 C 0.8568(5) 0.3877(4) 0.7738(3)
H25 H 0.7964 0.3226 0.8172
H26 H 0.9688 0.3592 0.7466
H27 H 0.8209 0.4112 0.7048
O8 O 0.6942(10) 0.5565(10) 0.8747(8)
O7? O 0.8333(19) 0.6038(11) 0.8104(12)
loop_
_geom_bond_atom_site_label_1
_geom_bond_atom_site_label_2
_geom_bond_site_symmetry_1
_geom_bond_site_symmetry_2
Mn1 N1 1_555 1_555
Mn2 O1 1_555 1_555
C1 C2 1_555 1_555
C2 H1 1_555 1_555
C3 C2 1_555 1_555
H2 C3 1_555 1_555
H3 C3 1_555 1_555
H4 C3 1_555 1_555
C4 C2 1_555 1_555
H5 C4 1_555 1_555
H6 C4 1_555 1_555
H7 C4 1_555 1_555
C5 C6 1_555 1_555
C6 H8 1_555 1_555
C7 C6 1_555 1_555
H9 C7 1_555 1_555
H10 C7 1_555 1_555
H11 C7 1_555 1_555
C8 C6 1_555 1_555
H12 C8 1_555 1_555
H13 C8 1_555 1_555
H14 C8 1_555 1_555
C9 C10 1_555 1_555
C10 H15 1_555 1_555
C11 C10 1_555 1_555
H16 C11 1_555 1_555
H17 C11 1_555 1_555
H18 C11 1_555 1_555
C12 C10 1_555 1_555
H19 C12 1_555 1_555
H20 C12 1_555 1_555
H21 C12 1_555 1_555
C13 N1 1_555 1_555
C14 H22 1_555 1_555
C15 C14 1_555 1_555
H23 C15 1_555 1_555
C16 C15 1_555 1_555
H24 C16 1_555 1_555
C17 C18 1_555 1_555
C18 H25 1_555 1_555
H26 C18 1_555 1_555
H27 C18 1_555 1_555
N1 C14 1_555 1_555
N2 C13 1_555 1_555
O1 C1 1_555 1_555
O2 Mn1 1_555 1_555
O3 Mn2 1_555 1_555
O4 C5 1_555 1_555
O5 Mn1 1_555 1_555
O6 Mn2 1_555 1_555
O8 C17 1_555 1_555
Mn1A O3 1_555 1_555
Mn1A_2 N2 1_555 1_555
C1A C2A 1_555 1_555
C2A H1A 1_555 1_555
C3A C2A 1_555 1_555
H2A C3A 1_555 1_555
H3A C3A 1_555 1_555
H4A C3A 1_555 1_555
C4A C2A 1_555 1_555
H5A C4A 1_555 1_555
H6A C4A 1_555 1_555
H7A C4A 1_555 1_555
C5A C6A 1_555 1_555
C6A H8A 1_555 1_555
C7A C6A 1_555 1_555
H9A C7A 1_555 1_555
H10A C7A 1_555 1_555
H11A C7A 1_555 1_555
C8A C6A 1_555 1_555
H12A C8A 1_555 1_555
H13A C8A 1_555 1_555
H14A C8A 1_555 1_555
C9A C10A 1_555 1_555
C10A H15A 1_555 1_555
C11A C10A 1_555 1_555
H16A C11A 1_555 1_555
H17A C11A 1_555 1_555
H18A C11A 1_555 1_555
C12A C10A 1_555 1_555
H19A C12A 1_555 1_555
H20A C12A 1_555 1_555
H21A C12A 1_555 1_555
C13A C13 1_555 1_555
C14A H22A 1_555 1_555
C15A C14A 1_555 1_555
H23A C15A 1_555 1_555
C16A C15A 1_555 1_555
H24A C16A 1_555 1_555
N1A Mn1A_2 1_555 1_555
N1A_2 Mn1A 1_555 1_555
N2A Mn1 1_555 1_555
N2_2 Mn1A 1_555 1_555
O1A Mn2 1_555 1_555
O2A Mn1A 1_555 1_555
O3A Mn1 1_555 1_555
O4A Mn1 1_555 1_555
O5A Mn1A 1_555 1_555
O6A Mn2 1_555 1_555
Mn2 O3A 1_555 1_555
C1 O2 1_555 1_555
C5 O3 1_555 1_555
C9 O5 1_555 1_555
C9 O6 1_555 1_555
C16 N2 1_555 1_555
O4 Mn1A 1_555 1_555
C1A O1A 1_555 1_555
C1A O2A 1_555 1_555
C5A O3A 1_555 1_555
C5A O4A 1_555 1_555
C9A O5A 1_555 1_555
C9A O6A 1_555 1_555
C13A N1A 1_555 1_555
C13A N2A 1_555 1_555
C14A N1A 1_555 1_555
C16A N2A 1_555 1_555

#END
