
#######################################################################
#
#                 Cambridge Crystallographic Data Centre
#                                CCDC 
#
#######################################################################
#
# If this CIF has been generated from an entry in the Cambridge 
# Structural Database, then it will include bibliographic, chemical, 
# crystal, experimental, refinement or atomic coordinate data resulting 
# from the CCDC's data processing and validation procedures.
#
#######################################################################

data_WOPKUJ
_symmetry_cell_setting           monoclinic
_symmetry_space_group_name_H-M   'P 21/n'
_symmetry_Int_Tables_number      14
_space_group_name_Hall           '-P 2yn'
loop_
_symmetry_equiv_pos_site_id
_symmetry_equiv_pos_as_xyz
1 x,y,z
2 1/2-x,1/2+y,1/2-z
3 -x,-y,-z
4 1/2+x,1/2-y,1/2+z
_cell_length_a                   11.1696(17)
_cell_length_b                   16.161(2)
_cell_length_c                   16.004(2)
_cell_angle_alpha                90
_cell_angle_beta                 93.458(3)
_cell_angle_gamma                90
_cell_volume                     2883.65
loop_
_atom_site_label
_atom_site_type_symbol
_atom_site_fract_x
_atom_site_fract_y
_atom_site_fract_z
Ni1 Ni 0.27771(4) 0.06178(2) 0.98863(2)
C1 C 0.3429(3) 0.21356(19) 0.88921(19)
C2 C 0.3086(3) 0.27180(18) 0.81633(18)
C3 C 0.3433(3) 0.35240(19) 0.8250(2)
H1 H 0.3853 0.3687 0.8742
C4 C 0.3180(3) 0.4110(2) 0.7628(2)
H2 H 0.3430 0.4654 0.7712
C5 C 0.2566(3) 0.38957(19) 0.68914(19)
C6 C 0.2184(3) 0.30647(18) 0.67658(19)
C7 C 0.2414(3) 0.24588(18) 0.74100(18)
C8 C 0.1991(3) 0.1646(2) 0.7261(2)
H3 H 0.2118 0.1247 0.7676
C9 C 0.1399(4) 0.1433(2) 0.6520(2)
H4 H 0.1115 0.0896 0.6440
C10 C 0.1217(4) 0.2020(2) 0.5879(2)
H5 H 0.0828 0.1868 0.5372
C11 C 0.1606(3) 0.2807(2) 0.59974(19)
H6 H 0.1491 0.3187 0.5564
C12 C 0.2384(3) 0.45528(18) 0.62262(19)
C13 C 0.1741(3) 0.2175(2) 1.0487(2)
H7 H 0.2352 0.2454 1.0236
C14 C 0.0603(3) 0.1215(2) 1.0900(2)
H8 H 0.0281 0.0694 1.0989
C15 C 0.0164(3) 0.1935(2) 1.1183(2)
H9 H -0.0506 0.2000 1.1495
C16 C 0.0811(3) 0.3425(2) 1.1046(2)
C17 C -0.0300(3) 0.3811(2) 1.1055(3)
H10 H -0.1000 0.3499 1.0996
C18 C -0.0362(3) 0.4668(2) 1.1155(3)
H11 H -0.1101 0.4930 1.1176
C19 C 0.0692(3) 0.5122(2) 1.1223(2)
C20 C 0.1806(3) 0.4719(2) 1.1219(2)
C21 C 0.1867(3) 0.38737(19) 1.1146(2)
H12 H 0.2605 0.3606 1.1164
C22 C 0.2840(3) 0.5320(2) 1.1301(2)
C23 C 0.3652(4) 0.5239(2) 1.0574(3)
H13 H 0.4298 0.5629 1.0643
H14 H 0.3197 0.5350 1.0057
H15 H 0.3971 0.4688 1.0562
C24 C 0.3560(4) 0.5212(2) 1.2141(2)
H16 H 0.4210 0.5601 1.2178
H17 H 0.3873 0.4660 1.2181
H18 H 0.3046 0.5308 1.2591
C25 C 0.2157(3) 0.6146(2) 1.1293(2)
C26 C 0.0924(3) 0.6021(2) 1.1263(2)
C27 C 0.0149(4) 0.6698(2) 1.1260(3)
H19 H -0.0676 0.6620 1.1253
C28 C 0.0631(4) 0.7491(2) 1.1265(3)
H20 H 0.0127 0.7949 1.1263
C29 C 0.1852(3) 0.7599(2) 1.1273(2)
C30 C 0.2639(3) 0.69321(19) 1.1287(2)
H21 H 0.3463 0.7013 1.1293
C31 C 0.1982(3) 0.9034(2) 1.0717(2)
H22 H 0.1278 0.9016 1.0376
C32 C 0.3630(4) 0.9439(2) 1.1328(2)
H23 H 0.4286 0.9768 1.1491
C33 C 0.3425(4) 0.8680(2) 1.1618(2)
H24 H 0.3912 0.8387 1.2005
N1 N 0.1599(3) 0.13708(16) 1.04611(17)
N2 N 0.0896(3) 0.25512(16) 1.09216(17)
N3 N 0.2357(3) 0.84159(16) 1.12350(17)
N4 N 0.2723(3) 0.96596(16) 1.07513(17)
O1 O 0.4258(3) 0.23703(16) 0.93909(16)
O2 O 0.2836(2) 0.14906(14) 0.89537(13)
O3 O 0.3289(2) 0.49273(13) 0.59960(14)
O4 O 0.1345(2) 0.47139(14) 0.59113(14)
O5 O 0.4228(2) 0.11528(14) 1.05066(15)
H25 H 0.433(4) 0.1628(12) 1.030(2)
H26 H 0.488(2) 0.089(2) 1.060(3)
Ni1_2 Ni 0.27771(4) 1.06178(2) 0.98863(2)
Ni1A Ni 0.22229(4) 0.56178(2) 0.51137(2)
N4_2 N 0.2723(3) -0.03404(16) 1.07513(17)
O3A O 0.1711(2) -0.00727(13) 0.90040(14)
O4A O 0.3655(2) -0.02861(14) 0.90887(14)
loop_
_geom_bond_atom_site_label_1
_geom_bond_atom_site_label_2
_geom_bond_site_symmetry_1
_geom_bond_site_symmetry_2
Ni1 N1 1_555 1_555
C1 C2 1_555 1_555
C2 C3 1_555 1_555
C3 H1 1_555 1_555
C4 C3 1_555 1_555
H2 C4 1_555 1_555
C5 C4 1_555 1_555
C6 C5 1_555 1_555
C7 C2 1_555 1_555
C8 C7 1_555 1_555
H3 C8 1_555 1_555
C9 C8 1_555 1_555
H4 C9 1_555 1_555
C10 C9 1_555 1_555
H5 C10 1_555 1_555
C11 C6 1_555 1_555
H6 C11 1_555 1_555
C12 C5 1_555 1_555
C13 H7 1_555 1_555
C14 H8 1_555 1_555
C15 C14 1_555 1_555
H9 C15 1_555 1_555
C16 C17 1_555 1_555
C17 H10 1_555 1_555
C18 C17 1_555 1_555
H11 C18 1_555 1_555
C19 C18 1_555 1_555
C20 C19 1_555 1_555
C21 C16 1_555 1_555
H12 C21 1_555 1_555
C22 C20 1_555 1_555
C23 C22 1_555 1_555
H13 C23 1_555 1_555
H14 C23 1_555 1_555
H15 C23 1_555 1_555
C24 C22 1_555 1_555
H16 C24 1_555 1_555
H17 C24 1_555 1_555
H18 C24 1_555 1_555
C25 C22 1_555 1_555
C26 C19 1_555 1_555
C27 C26 1_555 1_555
H19 C27 1_555 1_555
C28 C27 1_555 1_555
H20 C28 1_555 1_555
C29 C28 1_555 1_555
C30 C25 1_555 1_555
H21 C30 1_555 1_555
C31 H22 1_555 1_555
C32 H23 1_555 1_555
C33 C32 1_555 1_555
H24 C33 1_555 1_555
N1 C13 1_555 1_555
N2 C13 1_555 1_555
N3 C29 1_555 1_555
N4 C31 1_555 1_555
O1 C1 1_555 1_555
O2 Ni1 1_555 1_555
O3 C12 1_555 1_555
O4 C12 1_555 1_555
O5 Ni1 1_555 1_555
H25 O5 1_555 1_555
H26 O5 1_555 1_555
Ni1_2 N4 1_555 1_555
Ni1A O3 1_555 1_555
N4_2 Ni1 1_555 1_555
O3A Ni1 1_555 1_555
O4A Ni1 1_555 1_555
C1 O2 1_555 1_555
C6 C7 1_555 1_555
C10 C11 1_555 1_555
C14 N1 1_555 1_555
C15 N2 1_555 1_555
C16 N2 1_555 1_555
C20 C21 1_555 1_555
C25 C26 1_555 1_555
C29 C30 1_555 1_555
C31 N3 1_555 1_555
C32 N4 1_555 1_555
C33 N3 1_555 1_555
O4 Ni1A 1_555 1_555

#END
