
#######################################################################
#
#                 Cambridge Crystallographic Data Centre
#                                CCDC 
#
#######################################################################
#
# If this CIF has been generated from an entry in the Cambridge 
# Structural Database, then it will include bibliographic, chemical, 
# crystal, experimental, refinement or atomic coordinate data resulting 
# from the CCDC's data processing and validation procedures.
#
#######################################################################

data_WOPMOD
_symmetry_cell_setting           orthorhombic
_symmetry_space_group_name_H-M   'P c c n'
_symmetry_Int_Tables_number      56
_space_group_name_Hall           '-P 2ab 2ac'
loop_
_symmetry_equiv_pos_site_id
_symmetry_equiv_pos_as_xyz
1 x,y,z
2 1/2+x,1/2+y,-z
3 1/2-x,y,1/2+z
4 x,1/2-y,1/2+z
5 -x,-y,-z
6 1/2-x,1/2-y,z
7 1/2+x,-y,1/2-z
8 -x,1/2+y,1/2-z
_cell_length_a                   24.047(2)
_cell_length_b                   13.9090(10)
_cell_length_c                   14.4780(10)
_cell_angle_alpha                90
_cell_angle_beta                 90
_cell_angle_gamma                90
_cell_volume                     4842.45
loop_
_atom_site_label
_atom_site_type_symbol
_atom_site_fract_x
_atom_site_fract_y
_atom_site_fract_z
Cu1 Cu 0.10827(5) 0.24503(12) 0.33902(9)
O1 O 0.1125(3) 0.1091(6) 0.3129(5)
H1 H 0.1162 0.0546 0.3368
H2 H 0.1148 0.1032 0.2543
N1 N 0.0951(4) 0.3836(7) 0.3640(6)
C1 C 0.0282(6) 0.5032(9) 0.3873(8)
H3 H -0.0091 0.5197 0.3940
N2 N 0.1913(3) 0.2510(6) 0.3404(5)
C2 C 0.0021(5) 0.3293(9) 0.3583(8)
N3 N 0.0251(4) 0.2432(7) 0.3393(6)
C3 C 0.0417(5) 0.4079(8) 0.3692(7)
C4 C 0.1222(7) 0.5488(11) 0.3923(9)
H4 H 0.1502 0.5941 0.4017
C5 C -0.0076(6) 0.1698(10) 0.3266(8)
H5 H 0.0087 0.1104 0.3148
C6 C 0.0668(6) 0.5725(11) 0.3957(8)
H6 H 0.0561 0.6362 0.4037
C7 C 0.1340(7) 0.4520(11) 0.3739(9)
H7 H 0.1711 0.4341 0.3681
C8 C -0.0544(6) 0.3443(10) 0.3640(9)
H8 H -0.0695 0.4039 0.3789
C9 C -0.0651(7) 0.1747(11) 0.3294(10)
H9 H -0.0869 0.1203 0.3205
C10 C 0.2231(5) 0.2520(9) 0.4162(9)
H10 H 0.2052 0.2559 0.4730
C11 C 0.2224(4) 0.2514(9) 0.2659(9)
H11 H 0.2045 0.2538 0.2090
C12 C -0.0884(7) 0.2624(11) 0.3457(10)
H12 H -0.1269 0.2689 0.3448
S1 S 0.07825(12) 0.2287(2) 0.5877(2)
O2 O 0.1122(3) 0.2172(5) 0.5087(4)
O3 O 0.0380(4) 0.2983(9) 0.5775(6)
O4 O 0.1077(3) 0.2324(6) 0.6708(4)
C13 C 0.0399(5) 0.1138(10) 0.5955(7)
F1 F 0.0148(6) 0.1010(9) 0.5177(6)
F2 F 0.0771(6) 0.0477(10) 0.6087(11)
F3 F 0.0051(5) 0.1160(10) 0.6629(6)
C10E C 0.2769(5) 0.2480(9) 0.4162(9)
C11E C 0.2776(4) 0.2486(9) 0.2659(9)
O4C O 0.1077(3) 0.2676(6) 0.1708(4)
N2E N 0.3087(3) 0.2490(6) 0.3404(5)
H10E H 0.2948 0.2441 0.4730
H11E H 0.2955 0.2462 0.2090
Cu1C Cu 0.10827(5) 0.25497(12) 0.83902(9)
Cu1E Cu 0.39173(5) 0.25497(12) 0.33902(9)
O1E O 0.3875(3) 0.3909(6) 0.3129(5)
N1E N 0.4049(4) 0.1164(7) 0.3640(6)
N3E N 0.4749(4) 0.2568(7) 0.3393(6)
O2E O 0.3878(3) 0.2828(5) 0.5087(4)
O4B O 0.3923(3) 0.2324(6) 0.1708(4)
H1E H 0.3838 0.4454 0.3368
H2E H 0.3852 0.3968 0.2543
C3E C 0.4583(5) 0.0921(8) 0.3692(7)
C7E C 0.3660(7) 0.0480(11) 0.3739(9)
C2E C 0.4979(5) 0.1707(9) 0.3583(8)
C5E C 0.5076(6) 0.3302(10) 0.3266(8)
S1E S 0.42175(12) 0.2713(2) 0.5877(2)
C1E C 0.4718(6) -0.0032(9) 0.3873(8)
C4E C 0.3778(7) -0.0488(11) 0.3923(9)
H7E H 0.3289 0.0659 0.3681
C8E C 0.5544(6) 0.1557(10) 0.3640(9)
H5E H 0.4913 0.3896 0.3148
C9E C 0.5651(7) 0.3253(11) 0.3294(10)
O3E O 0.4620(4) 0.2017(9) 0.5775(6)
O4E O 0.3923(3) 0.2676(6) 0.6708(4)
C13E C 0.4601(5) 0.3862(10) 0.5955(7)
H3E H 0.5091 -0.0197 0.3940
C6E C 0.4332(6) -0.0725(11) 0.3957(8)
H4E H 0.3498 -0.0941 0.4017
H8E H 0.5695 0.0961 0.3789
C12E C 0.5884(7) 0.2376(11) 0.3457(10)
H9E H 0.5869 0.3797 0.3205
Cu1B Cu 0.39173(5) 0.24503(12) 0.83902(9)
F1E F 0.4852(6) 0.3990(9) 0.5177(6)
F2E F 0.4229(6) 0.4523(10) 0.6087(11)
F3E F 0.4949(5) 0.3840(10) 0.6629(6)
H6E H 0.4439 -0.1362 0.4037
H12E H 0.6269 0.2311 0.3448
S2 S 0.2122(3) 0.4936(5) 0.6129(4)
O5 O 0.1617(5) 0.4738(11) 0.6538(9)
O6 O 0.2371(6) 0.4176(11) 0.5670(13)
O7 O 0.2116(9) 0.5795(11) 0.5601(15)
C14 C 0.2552(6) 0.5611(11) 0.6895(11)
F4 F 0.2604(6) 0.4969(13) 0.7533(12)
F5 F 0.2289(6) 0.6358(12) 0.7180(14)
F6 F 0.3023(5) 0.5832(14) 0.6531(10)
loop_
_geom_bond_atom_site_label_1
_geom_bond_atom_site_label_2
_geom_bond_site_symmetry_1
_geom_bond_site_symmetry_2
Cu1 O1 1_555 1_555
O1 H1 1_555 1_555
H2 O1 1_555 1_555
N1 Cu1 1_555 1_555
C1 H3 1_555 1_555
N2 Cu1 1_555 1_555
C2 N3 1_555 1_555
N3 Cu1 1_555 1_555
C3 N1 1_555 1_555
C4 H4 1_555 1_555
C5 N3 1_555 1_555
H5 C5 1_555 1_555
C6 C1 1_555 1_555
H6 C6 1_555 1_555
C7 N1 1_555 1_555
H7 C7 1_555 1_555
C8 C2 1_555 1_555
H8 C8 1_555 1_555
C9 C5 1_555 1_555
H9 C9 1_555 1_555
C10 N2 1_555 1_555
H10 C10 1_555 1_555
C11 N2 1_555 1_555
H11 C11 1_555 1_555
C12 C8 1_555 1_555
H12 C12 1_555 1_555
S1 O2 1_555 1_555
O2 Cu1 1_555 1_555
O3 S1 1_555 1_555
O4 S1 1_555 1_555
C13 S1 1_555 1_555
F1 C13 1_555 1_555
F2 C13 1_555 1_555
F3 C13 1_555 1_555
S2 O5 1_555 1_555
O6 S2 1_555 1_555
O7 S2 1_555 1_555
C14 S2 1_555 1_555
F4 C14 1_555 1_555
F5 C14 1_555 1_555
F6 C14 1_555 1_555
C10E C10 1_555 1_555
C11E C11 1_555 1_555
O4C Cu1 1_555 1_555
N2E C10E 1_555 1_555
H10E C10E 1_555 1_555
H11E C11E 1_555 1_555
Cu1C O4 1_555 1_555
Cu1E N2E 1_555 1_555
O1E Cu1E 1_555 1_555
N1E Cu1E 1_555 1_555
N3E Cu1E 1_555 1_555
O2E Cu1E 1_555 1_555
O4B Cu1E 1_555 1_555
H1E O1E 1_555 1_555
H2E O1E 1_555 1_555
C3E N1E 1_555 1_555
C7E N1E 1_555 1_555
C2E N3E 1_555 1_555
C5E N3E 1_555 1_555
S1E O2E 1_555 1_555
C1E C3E 1_555 1_555
C4E C7E 1_555 1_555
H7E C7E 1_555 1_555
C8E C2E 1_555 1_555
H5E C5E 1_555 1_555
C9E C5E 1_555 1_555
O3E S1E 1_555 1_555
O4E S1E 1_555 1_555
C13E S1E 1_555 1_555
H3E C1E 1_555 1_555
C6E C1E 1_555 1_555
H4E C4E 1_555 1_555
H8E C8E 1_555 1_555
C12E C8E 1_555 1_555
H9E C9E 1_555 1_555
Cu1B O4E 1_555 1_555
F1E C13E 1_555 1_555
F2E C13E 1_555 1_555
F3E C13E 1_555 1_555
H6E C6E 1_555 1_555
H12E C12E 1_555 1_555
C1 C3 1_555 1_555
C2 C3 1_555 1_555
C4 C6 1_555 1_555
C4 C7 1_555 1_555
C9 C12 1_555 1_555
C11E N2E 1_555 1_555
C3E C2E 1_555 1_555
C4E C6E 1_555 1_555
C9E C12E 1_555 1_555

#END
