
#######################################################################
#
#                 Cambridge Crystallographic Data Centre
#                                CCDC 
#
#######################################################################
#
# If this CIF has been generated from an entry in the Cambridge 
# Structural Database, then it will include bibliographic, chemical, 
# crystal, experimental, refinement or atomic coordinate data resulting 
# from the CCDC's data processing and validation procedures.
#
#######################################################################

data_WOPMAP
_symmetry_cell_setting           monoclinic
_symmetry_space_group_name_H-M   'P 21/m'
_symmetry_Int_Tables_number      11
_space_group_name_Hall           '-P 2yb'
loop_
_symmetry_equiv_pos_site_id
_symmetry_equiv_pos_as_xyz
1 x,y,z
2 x,1/2-y,z
3 -x,-y,-z
4 -x,1/2+y,-z
_cell_length_a                   9.695(3)
_cell_length_b                   13.422(5)
_cell_length_c                   10.228(4)
_cell_angle_alpha                90
_cell_angle_beta                 92.20(4)
_cell_angle_gamma                90
_cell_volume                     1329.95
loop_
_atom_site_label
_atom_site_type_symbol
_atom_site_fract_x
_atom_site_fract_y
_atom_site_fract_z
S2 S 0.4330(3) 0.7500 0.1893(3)
O3 O 0.4320(14) 0.6432(6) 0.1772(16)
O4 O 0.5464(9) 0.7760(11) 0.2653(9)
O5 O 0.3093(9) 0.7816(10) 0.2293(13)
F3 F 0.3632(12) 0.7500 -0.0563(9)
F4 F 0.5751(10) 0.7500 -0.0192(9)
F5 F 0.4636(15) 0.8838(6) 0.0121(11)
C12 C 0.4599(11) 0.7904(7) 0.0201(8)
O3A O 0.4320(14) 0.8568(6) 0.1772(16)
O4A O 0.5464(9) 0.7240(11) 0.2653(9)
O5A O 0.3093(9) 0.7184(10) 0.2293(13)
C12A C 0.4599(11) 0.7096(7) 0.0201(8)
Cu1 Cu 0.17511(15) 0.2500 0.61043(13)
N1 N 0.2732(7) 0.1534(6) 0.4979(6)
N2 N 0.1113(7) 0.1467(5) 0.7368(7)
C1 C 0.0228(9) 0.0303(6) 0.9444(8)
C2 C 0.1988(11) 0.1059(8) 0.8242(10)
H1 H 0.2925 0.1182 0.8164
C3 C -0.0638(12) 0.0692(10) 0.8543(11)
H2 H -0.1579 0.0570 0.8595
C4 C 0.3355(15) -0.0057(11) 0.4166(13)
H3 H 0.3240 -0.0745 0.4161
C5 C 0.4460(11) 0.1400(15) 0.3413(10)
H4 H 0.5123 0.1710 0.2920
C6 C 0.4304(16) 0.0384(18) 0.3394(14)
H5 H 0.4842 -0.0004 0.2858
C7 C 0.1593(11) 0.0468(9) 0.9252(11)
H6 H 0.2258 0.0177 0.9810
C8 C 0.3605(8) 0.1946(8) 0.4181(7)
C9 C 0.2558(11) 0.0552(8) 0.4966(10)
H7 H 0.1904 0.0264 0.5490
C10 C -0.0185(11) 0.1268(10) 0.7542(11)
H8 H -0.0840 0.1532 0.6951
S1 S -0.1160(4) 0.2500 0.3838(4)
F1 F -0.0823(11) 0.2500 0.1324(8)
F2 F 0.0689(9) 0.3271(4) 0.2412(8)
O1 O -0.0274(9) 0.2500 0.4907(8)
O2 O -0.1932(12) 0.1657(4) 0.3739(14)
C11 C -0.0129(12) 0.2500 0.2410(9)
N1A N 0.2732(7) 0.3466(6) 0.4979(6)
N2A N 0.1113(7) 0.3533(5) 0.7368(7)
C1B C -0.0228(9) -0.0303(6) 1.0556(8)
C8A C 0.3605(8) 0.3054(8) 0.4181(7)
O2A O -0.1932(12) 0.3343(4) 0.3739(14)
F2A F 0.0689(9) 0.1729(4) 0.2412(8)
C3B C 0.0638(12) -0.0692(10) 1.1457(11)
C7B C -0.1593(11) -0.0468(9) 1.0748(11)
H2B H 0.1579 -0.0570 1.1405
C10B C 0.0185(11) -0.1268(10) 1.2458(11)
C2B C -0.1988(11) -0.1059(8) 1.1758(10)
H6B H -0.2258 -0.0177 1.0190
N2B N -0.1113(7) -0.1467(5) 1.2632(7)
H8B H 0.0840 -0.1532 1.3049
H1B H -0.2925 -0.1182 1.1836
Cu1B Cu -0.17511(15) -0.2500 1.38957(13)
C9A C 0.2558(11) 0.4448(8) 0.4966(10)
C5A C 0.4460(11) 0.3600(15) 0.3413(10)
C4A C 0.3355(15) 0.5057(11) 0.4166(13)
H7A H 0.1904 0.4736 0.5490
H4A H 0.5123 0.3290 0.2920
C6A C 0.4304(16) 0.4616(18) 0.3394(14)
H5A H 0.4842 0.5004 0.2858
H3A H 0.3240 0.5745 0.4161
loop_
_geom_bond_atom_site_label_1
_geom_bond_atom_site_label_2
_geom_bond_site_symmetry_1
_geom_bond_site_symmetry_2
Cu1 N1 1_555 1_555
N1 C8 1_555 1_555
N2 Cu1 1_555 1_555
C1 C3 1_555 1_555
C2 N2 1_555 1_555
H1 C2 1_555 1_555
C3 H2 1_555 1_555
C4 H3 1_555 1_555
C5 H4 1_555 1_555
C6 C4 1_555 1_555
H5 C6 1_555 1_555
C7 C1 1_555 1_555
H6 C7 1_555 1_555
C8 C5 1_555 1_555
C9 N1 1_555 1_555
H7 C9 1_555 1_555
C10 N2 1_555 1_555
H8 C10 1_555 1_555
S1 O1 1_555 1_555
F1 C11 1_555 1_555
F2 C11 1_555 1_555
O1 Cu1 1_555 1_555
O2 S1 1_555 1_555
C11 S1 1_555 1_555
S2 O3 1_555 1_555
O4 S2 1_555 1_555
O5 S2 1_555 1_555
F3 C12 1_555 1_555
F4 C12 1_555 1_555
F5 C12 1_555 1_555
C12 S2 1_555 1_555
N1A Cu1 1_555 1_555
N2A Cu1 1_555 1_555
C1B C1 1_555 1_555
C8A C8 1_555 1_555
O2A S1 1_555 1_555
F2A C11 1_555 1_555
O3A S2 1_555 1_555
O4A S2 1_555 1_555
O5A S2 1_555 1_555
C12A S2 1_555 1_555
C3B C1B 1_555 1_555
C7B C1B 1_555 1_555
H2B C3B 1_555 1_555
C10B C3B 1_555 1_555
C2B C7B 1_555 1_555
H6B C7B 1_555 1_555
N2B C10B 1_555 1_555
H8B C10B 1_555 1_555
H1B C2B 1_555 1_555
Cu1B N2B 1_555 1_555
C9A N1A 1_555 1_555
C5A C8A 1_555 1_555
C4A C9A 1_555 1_555
H7A C9A 1_555 1_555
H4A C5A 1_555 1_555
C6A C5A 1_555 1_555
H5A C6A 1_555 1_555
H3A C4A 1_555 1_555
C2 C7 1_555 1_555
C3 C10 1_555 1_555
C4 C9 1_555 1_555
C5 C6 1_555 1_555
O4 O4A 1_555 1_555
O5 O5A 1_555 1_555
F3 C12A 1_555 1_555
F4 C12A 1_555 1_555
C12 C12A 1_555 1_555
N1A C8A 1_555 1_555
C2B N2B 1_555 1_555
C4A C6A 1_555 1_555

#END
