
#######################################################################
#
#                 Cambridge Crystallographic Data Centre
#                                CCDC 
#
#######################################################################
#
# If this CIF has been generated from an entry in the Cambridge 
# Structural Database, then it will include bibliographic, chemical, 
# crystal, experimental, refinement or atomic coordinate data resulting 
# from the CCDC's data processing and validation procedures.
#
#######################################################################

data_WOPMET
_symmetry_cell_setting           triclinic
_symmetry_space_group_name_H-M   'P -1'
_symmetry_Int_Tables_number      2
_space_group_name_Hall           '-P 1'
loop_
_symmetry_equiv_pos_site_id
_symmetry_equiv_pos_as_xyz
1 x,y,z
2 -x,-y,-z
_cell_length_a                   9.1040(10)
_cell_length_b                   11.7550(10)
_cell_length_c                   13.5950(10)
_cell_angle_alpha                88.720(10)
_cell_angle_beta                 87.660(10)
_cell_angle_gamma                87.330(10)
_cell_volume                     1451.81
loop_
_atom_site_label
_atom_site_type_symbol
_atom_site_fract_x
_atom_site_fract_y
_atom_site_fract_z
Cu1 Cu 0.74979(7) 0.43561(5) 0.24504(4)
N1 N 0.7087(4) 0.5607(3) 0.3412(3)
C1 C 0.6643(5) 0.6606(4) 0.3011(3)
C2 C 0.6399(6) 0.7568(5) 0.3561(4)
H1 H 0.6119 0.8257 0.3257
C3 C 0.6572(7) 0.7509(5) 0.4571(4)
H2 H 0.6395 0.8148 0.4957
C4 C 0.7011(6) 0.6479(5) 0.4982(4)
H3 H 0.7142 0.6412 0.5656
C5 C 0.7260(6) 0.5541(5) 0.4394(4)
H4 H 0.7553 0.4846 0.4682
N2 N 0.6827(4) 0.5597(3) 0.1513(3)
C6 C 0.6452(5) 0.6588(4) 0.1941(3)
C7 C 0.5906(6) 0.7528(4) 0.1404(4)
H5 H 0.5663 0.8217 0.1706
C8 C 0.5736(7) 0.7400(5) 0.0399(4)
H6 H 0.5357 0.8006 0.0021
C9 C 0.6121(6) 0.6397(5) -0.0027(4)
H7 H 0.6019 0.6314 -0.0699
C10 C 0.6667(5) 0.5494(4) 0.0537(3)
H8 H 0.6927 0.4804 0.0240
N3 N 0.8163(4) 0.3209(3) 0.1413(3)
C11 C 0.9340(6) 0.3324(4) 0.0799(3)
H9 H 0.9750 0.4033 0.0742
C12 C 0.9969(6) 0.2452(4) 0.0250(4)
H10 H 1.0767 0.2574 -0.0183
C13 C 0.9391(6) 0.1392(4) 0.0356(3)
C14 C 0.8143(6) 0.1249(4) 0.0947(4)
H11 H 0.7704 0.0551 0.1007
C15 C 0.7576(5) 0.2195(4) 0.1446(4)
H12 H 0.6720 0.2115 0.1833
N4 N 0.8181(5) 0.3161(3) 0.3459(3)
N5 N 0.9367(5) 0.0080(4) 0.4939(4)
C16 C 0.9605(6) 0.2814(5) 0.3470(4)
H13 H 1.0297 0.3248 0.3131
C17 C 1.0076(6) 0.1838(5) 0.3964(4)
H14 H 1.1071 0.1618 0.3964
C18 C 0.9045(7) 0.1191(5) 0.4462(4)
C19 C 0.7594(6) 0.1549(5) 0.4492(4)
H15 H 0.6892 0.1138 0.4844
C20 C 0.7202(6) 0.2538(5) 0.3985(4)
H16 H 0.6217 0.2788 0.4006
N6 N 1.0143(5) 0.0471(3) -0.0170(3)
O1 O 0.5038(3) 0.3799(3) 0.2510(2)
H17 H 0.4970 0.3085 0.2600
H18 H 0.4191 0.4113 0.2629
S1 S 1.14714(17) 0.56309(12) 0.22733(12)
O2 O 1.0018(4) 0.5323(4) 0.2153(4)
O3 O 1.2326(6) 0.4855(5) 0.2817(5)
O4 O 1.2226(6) 0.6034(6) 0.1419(3)
C21 C 1.1241(9) 0.6879(8) 0.3030(6)
F1 F 1.0595(7) 0.6561(6) 0.3861(4)
F2 F 1.0435(8) 0.7630(5) 0.2625(7)
F3 F 1.2487(7) 0.7250(6) 0.3232(4)
N5A N 1.0633(5) -0.0080(4) 0.5061(4)
N6A N 0.9857(5) -0.0471(3) 0.0170(3)
C18A C 1.0955(7) -0.1191(5) 0.5538(4)
C17A C 0.9924(6) -0.1838(5) 0.6036(4)
C19A C 1.2406(6) -0.1549(5) 0.5508(4)
H15A H 1.3108 -0.1138 0.5156
C20A C 1.2798(6) -0.2538(5) 0.6015(4)
C16A C 1.0395(6) -0.2814(5) 0.6530(4)
H14A H 0.8929 -0.1618 0.6036
N4A N 1.1819(5) -0.3161(3) 0.6541(3)
H16A H 1.3783 -0.2788 0.5994
H13A H 0.9703 -0.3248 0.6869
Cu1A Cu 1.25021(7) -0.43561(5) 0.75496(4)
C13A C 1.0609(6) -0.1392(4) -0.0356(3)
C12A C 1.0031(6) -0.2452(4) -0.0250(4)
C14A C 1.1857(6) -0.1249(4) -0.0947(4)
C11A C 1.0660(6) -0.3324(4) -0.0799(3)
H10A H 0.9233 -0.2574 0.0183
H11A H 1.2296 -0.0551 -0.1007
C15A C 1.2424(5) -0.2195(4) -0.1446(4)
N3A N 1.1837(4) -0.3209(3) -0.1413(3)
H9A H 1.0250 -0.4033 -0.0742
H12A H 1.3280 -0.2115 -0.1833
Cu1A_2 Cu 1.25021(7) -0.43561(5) -0.24504(4)
N1A N 1.2913(4) -0.5607(3) 0.6588(3)
N2A N 1.3173(4) -0.5597(3) 0.8487(3)
N3A_2 N 1.1837(4) -0.3209(3) 0.8587(3)
O1A O 1.4962(3) -0.3799(3) 0.7490(2)
O2A O 0.9982(4) -0.5323(4) 0.7847(4)
C6A C 1.3548(5) -0.6588(4) 0.8059(3)
C10A C 1.3333(5) -0.5494(4) 0.9463(3)
C1A C 1.3357(5) -0.6606(4) 0.6989(3)
C5A C 1.2740(6) -0.5541(5) 0.5606(4)
C7A C 1.4094(6) -0.7528(4) 0.8596(4)
C9A C 1.3879(6) -0.6397(5) 1.0027(4)
H8A H 1.3073 -0.4804 0.9760
C2A C 1.3601(6) -0.7568(5) 0.6439(4)
C4A C 1.2989(6) -0.6479(5) 0.5018(4)
H4A H 1.2447 -0.4846 0.5318
C8A C 1.4264(7) -0.7400(5) 0.9601(4)
H7A H 1.3981 -0.6314 1.0699
H5A H 1.4337 -0.8217 0.8294
H1A H 1.3881 -0.8257 0.6743
C3A C 1.3428(7) -0.7509(5) 0.5429(4)
H3A H 1.2858 -0.6412 0.4344
S1A S 0.85286(17) -0.56309(12) 0.77267(12)
O3A O 0.7674(6) -0.4855(5) 0.7183(5)
O4A O 0.7774(6) -0.6034(6) 0.8581(3)
C21A C 0.8759(9) -0.6879(8) 0.6970(6)
F1A F 0.9405(7) -0.6561(6) 0.6139(4)
F2A F 0.9565(8) -0.7630(5) 0.7375(7)
F3A F 0.7513(7) -0.7250(6) 0.6768(4)
H17A H 1.5030 -0.3085 0.7400
H18A H 1.5809 -0.4113 0.7371
H6A H 1.4643 -0.8006 0.9979
H2A H 1.3605 -0.8148 0.5043
S2 S 1.41377(17) 1.05700(12) 0.27817(12)
O5 O 1.3843(5) 1.1716(3) 0.3023(4)
O6 O 1.5472(4) 1.0303(4) 0.2288(3)
O7 O 1.3830(6) 0.9811(5) 0.3607(4)
C22 C 1.2742(9) 1.0252(6) 0.1937(5)
F4 F 1.1437(5) 1.0320(4) 0.2298(4)
F5 F 1.2953(5) 0.9280(5) 0.1556(4)
F6 F 1.2810(8) 1.0991(7) 0.1229(4)
loop_
_geom_bond_atom_site_label_1
_geom_bond_atom_site_label_2
_geom_bond_site_symmetry_1
_geom_bond_site_symmetry_2
Cu1 N1 1_555 1_555
N1 C1 1_555 1_555
C1 C2 1_555 1_555
C2 H1 1_555 1_555
C3 C2 1_555 1_555
H2 C3 1_555 1_555
C4 C3 1_555 1_555
H3 C4 1_555 1_555
C5 N1 1_555 1_555
H4 C5 1_555 1_555
N2 Cu1 1_555 1_555
C6 C1 1_555 1_555
C7 C6 1_555 1_555
H5 C7 1_555 1_555
C8 C7 1_555 1_555
H6 C8 1_555 1_555
C9 C8 1_555 1_555
H7 C9 1_555 1_555
C10 N2 1_555 1_555
H8 C10 1_555 1_555
N3 Cu1 1_555 1_555
C11 N3 1_555 1_555
H9 C11 1_555 1_555
C12 C11 1_555 1_555
H10 C12 1_555 1_555
C13 C12 1_555 1_555
C14 C13 1_555 1_555
H11 C14 1_555 1_555
C15 N3 1_555 1_555
H12 C15 1_555 1_555
N4 Cu1 1_555 1_555
N5 C18 1_555 1_555
C16 N4 1_555 1_555
H13 C16 1_555 1_555
C17 C16 1_555 1_555
H14 C17 1_555 1_555
C18 C17 1_555 1_555
C19 C18 1_555 1_555
H15 C19 1_555 1_555
C20 N4 1_555 1_555
H16 C20 1_555 1_555
N6 C13 1_555 1_555
O1 Cu1 1_555 1_555
H17 O1 1_555 1_555
H18 O1 1_555 1_555
S1 O2 1_555 1_555
O2 Cu1 1_555 1_555
O3 S1 1_555 1_555
O4 S1 1_555 1_555
C21 S1 1_555 1_555
F1 C21 1_555 1_555
F2 C21 1_555 1_555
F3 C21 1_555 1_555
S2 O5 1_555 1_555
O6 S2 1_555 1_555
O7 S2 1_555 1_555
C22 S2 1_555 1_555
F4 C22 1_555 1_555
F5 C22 1_555 1_555
F6 C22 1_555 1_555
N5A N5 1_555 1_555
N6A N6 1_555 1_555
C18A N5A 1_555 1_555
C17A C18A 1_555 1_555
C19A C18A 1_555 1_555
H15A C19A 1_555 1_555
C20A C19A 1_555 1_555
C16A C17A 1_555 1_555
H14A C17A 1_555 1_555
N4A C20A 1_555 1_555
H16A C20A 1_555 1_555
H13A C16A 1_555 1_555
Cu1A N4A 1_555 1_555
C13A N6A 1_555 1_555
C12A C13A 1_555 1_555
C14A C13A 1_555 1_555
C11A C12A 1_555 1_555
H10A C12A 1_555 1_555
H11A C14A 1_555 1_555
C15A C14A 1_555 1_555
N3A C11A 1_555 1_555
H9A C11A 1_555 1_555
H12A C15A 1_555 1_555
Cu1A_2 N3A 1_555 1_555
N1A Cu1A 1_555 1_555
N2A Cu1A 1_555 1_555
N3A_2 Cu1A 1_555 1_555
O1A Cu1A 1_555 1_555
O2A Cu1A 1_555 1_555
C6A N2A 1_555 1_555
C10A N2A 1_555 1_555
C1A N1A 1_555 1_555
C5A N1A 1_555 1_555
C7A C6A 1_555 1_555
C9A C10A 1_555 1_555
H8A C10A 1_555 1_555
C2A C1A 1_555 1_555
C4A C5A 1_555 1_555
H4A C5A 1_555 1_555
C8A C7A 1_555 1_555
H7A C9A 1_555 1_555
H5A C7A 1_555 1_555
H1A C2A 1_555 1_555
C3A C2A 1_555 1_555
H3A C4A 1_555 1_555
S1A O2A 1_555 1_555
O3A S1A 1_555 1_555
O4A S1A 1_555 1_555
C21A S1A 1_555 1_555
F1A C21A 1_555 1_555
F2A C21A 1_555 1_555
F3A C21A 1_555 1_555
H17A O1A 1_555 1_555
H18A O1A 1_555 1_555
H6A C8A 1_555 1_555
H2A C3A 1_555 1_555
C4 C5 1_555 1_555
N2 C6 1_555 1_555
C9 C10 1_555 1_555
C14 C15 1_555 1_555
C19 C20 1_555 1_555
C16A N4A 1_555 1_555
C15A N3A 1_555 1_555
C6A C1A 1_555 1_555
C9A C8A 1_555 1_555
C4A C3A 1_555 1_555

#END
