
#######################################################################
#
#                 Cambridge Crystallographic Data Centre
#                                CCDC 
#
#######################################################################
#
# If this CIF has been generated from an entry in the Cambridge 
# Structural Database, then it will include bibliographic, chemical, 
# crystal, experimental, refinement or atomic coordinate data resulting 
# from the CCDC's data processing and validation procedures.
#
#######################################################################

data_WOPNUK01
_symmetry_cell_setting           monoclinic
_symmetry_space_group_name_H-M   'P 21/c'
_symmetry_Int_Tables_number      14
_space_group_name_Hall           '-P 2ybc'
loop_
_symmetry_equiv_pos_site_id
_symmetry_equiv_pos_as_xyz
1 x,y,z
2 -x,1/2+y,1/2-z
3 -x,-y,-z
4 x,1/2-y,1/2+z
_cell_length_a                   12.1290(10)
_cell_length_b                   11.5414(11)
_cell_length_c                   14.5056(12)
_cell_angle_alpha                90
_cell_angle_beta                 109.808(4)
_cell_angle_gamma                90
_cell_volume                     1910.43
loop_
_atom_site_label
_atom_site_type_symbol
_atom_site_fract_x
_atom_site_fract_y
_atom_site_fract_z
Cu1 Cu 0.292986(18) 0.453619(18) 0.525313(15)
O1 O 0.40527(12) 0.56384(11) 0.61366(10)
O2 O 0.30105(12) 0.53988(13) 0.71228(11)
O3 O 0.37600(13) 0.47221(16) 0.41376(11)
N1 N 0.17501(14) 0.57791(14) 0.46578(11)
N2 N 0.15786(13) 0.35376(14) 0.44842(11)
N3 N 0.61073(13) 0.82308(14) 0.89593(12)
C1 C 0.38328(16) 0.58409(16) 0.69270(14)
C2 C 0.46406(15) 0.66777(15) 0.76394(13)
C3 C 0.44137(18) 0.70262(18) 0.84685(15)
H1 H 0.3763 0.6741 0.8596
C4 C 0.51564(18) 0.77969(18) 0.91043(15)
H2 H 0.4991 0.8026 0.9658
C5 C 0.63354(17) 0.78757(18) 0.81619(15)
H3 H 0.7005 0.8154 0.8061
C6 C 0.56277(17) 0.71213(18) 0.74883(15)
H4 H 0.5808 0.6910 0.6937
C7 C 0.15789(19) 0.23791(18) 0.44152(16)
H5 H 0.2262 0.1974 0.4745
C8 C 0.0594(2) 0.1769(2) 0.38675(18)
H6 H 0.0614 0.0965 0.3835
C9 C -0.0402(2) 0.2356(2) 0.33772(18)
H7 H -0.1070 0.1957 0.3004
C10 C -0.04148(17) 0.3550(2) 0.34363(16)
H8 H -0.1090 0.3964 0.3104
C11 C 0.05932(16) 0.41198(17) 0.39973(13)
C12 C 0.06848(16) 0.53917(17) 0.41090(13)
C13 C -0.02325(19) 0.6150(2) 0.36940(16)
H9 H -0.0968 0.5869 0.3322
C14 C -0.0049(2) 0.7323(2) 0.38359(18)
H10 H -0.0658 0.7844 0.3564
C15 C 0.1047(2) 0.7713(2) 0.43859(18)
H11 H 0.1193 0.8502 0.4487
C16 C 0.1929(2) 0.69175(18) 0.47851(16)
H12 H 0.2672 0.7183 0.5155
H17 H 0.4428 0.4741 0.4107
H18 H 0.3322 0.4909 0.3571
Cu1A Cu 0.707014(18) 0.953619(18) 0.974687(15)
N3A N 0.38927(13) 0.32308(14) 0.60407(12)
O4 O 0.1785(2) 0.4611(2) 0.23608(16)
O5 O 0.1753(2) 0.4728(2) 0.08861(15)
O6 O 0.3072(2) 0.5594(2) 0.20337(17)
N4 N 0.21926(19) 0.49654(18) 0.17516(15)
O7 O 0.3569(2) 0.4245(2) 0.90053(16)
H13 H 0.3353 0.4614 0.8432
H14 H 0.4296 0.4167 0.9142
O8 O 0.3982(2) 0.5971(2) 0.04685(15)
H15 H 0.3840 0.5933 0.0983
H16 H 0.3528 0.5457 0.0067
loop_
_geom_bond_atom_site_label_1
_geom_bond_atom_site_label_2
_geom_bond_site_symmetry_1
_geom_bond_site_symmetry_2
Cu1 O1 1_555 1_555
O1 C1 1_555 1_555
O2 C1 1_555 1_555
O3 Cu1 1_555 1_555
N1 Cu1 1_555 1_555
N2 Cu1 1_555 1_555
N3 C4 1_555 1_555
C1 C2 1_555 1_555
C2 C3 1_555 1_555
C3 H1 1_555 1_555
C4 C3 1_555 1_555
H2 C4 1_555 1_555
C5 N3 1_555 1_555
H3 C5 1_555 1_555
C6 C2 1_555 1_555
H4 C6 1_555 1_555
C7 N2 1_555 1_555
H5 C7 1_555 1_555
C8 C7 1_555 1_555
H6 C8 1_555 1_555
C9 C8 1_555 1_555
H7 C9 1_555 1_555
C10 C9 1_555 1_555
H8 C10 1_555 1_555
C11 N2 1_555 1_555
C12 N1 1_555 1_555
C13 C12 1_555 1_555
H9 C13 1_555 1_555
C14 C13 1_555 1_555
H10 C14 1_555 1_555
C15 C14 1_555 1_555
H11 C15 1_555 1_555
C16 N1 1_555 1_555
H12 C16 1_555 1_555
O4 N4 1_555 1_555
O5 N4 1_555 1_555
O6 N4 1_555 1_555
O7 H13 1_555 1_555
O8 H15 1_555 1_555
H14 O7 1_555 1_555
H16 O8 1_555 1_555
H17 O3 1_555 1_555
H18 O3 1_555 1_555
Cu1A N3 1_555 1_555
N3A Cu1 1_555 1_555
C5 C6 1_555 1_555
C10 C11 1_555 1_555
C11 C12 1_555 1_555
C15 C16 1_555 1_555

#END
