
#######################################################################
#
#                 Cambridge Crystallographic Data Centre
#                                CCDC 
#
#######################################################################
#
# If this CIF has been generated from an entry in the Cambridge 
# Structural Database, then it will include bibliographic, chemical, 
# crystal, experimental, refinement or atomic coordinate data resulting 
# from the CCDC's data processing and validation procedures.
#
#######################################################################

data_WOPNUK
_symmetry_cell_setting           monoclinic
_symmetry_space_group_name_H-M   'P 21/c'
_symmetry_Int_Tables_number      14
_space_group_name_Hall           '-P 2ybc'
loop_
_symmetry_equiv_pos_site_id
_symmetry_equiv_pos_as_xyz
1 x,y,z
2 x,1/2-y,1/2+z
3 -x,-y,-z
4 -x,1/2+y,1/2-z
_cell_length_a                   12.114(5)
_cell_length_b                   11.555(5)
_cell_length_c                   14.514(5)
_cell_angle_alpha                90
_cell_angle_beta                 109.80(4)
_cell_angle_gamma                90
_cell_volume                     1911.52
loop_
_atom_site_label
_atom_site_type_symbol
_atom_site_fract_x
_atom_site_fract_y
_atom_site_fract_z
Cu1 Cu -0.29289(6) 0.04643(6) 0.47464(5)
N1 N -0.1571(4) 0.1469(4) 0.5516(3)
N2 N -0.1757(4) -0.0766(4) 0.5341(3)
N3 N -0.3897(4) 0.1771(4) 0.3956(3)
C1 C -0.1585(5) 0.2621(5) 0.5587(4)
H1 H -0.2274 0.3019 0.5259
C2 C -0.0609(6) 0.3238(6) 0.6131(5)
H2 H -0.0635 0.4041 0.6170
C3 C 0.0416(6) 0.2634(6) 0.6619(5)
H3 H 0.1096 0.3027 0.6976
C4 C 0.0406(5) 0.1454(6) 0.6567(4)
H4 H 0.1074 0.1035 0.6910
C5 C -0.0588(5) 0.0891(5) 0.6010(4)
C6 C -0.0687(5) -0.0389(6) 0.5894(4)
C7 C 0.0230(5) -0.1150(6) 0.6308(4)
H5 H 0.0965 -0.0869 0.6682
C8 C 0.0059(6) -0.2303(6) 0.6167(5)
H6 H 0.0676 -0.2816 0.6437
C9 C -0.1056(6) -0.2718(6) 0.5613(5)
H7 H -0.1197 -0.3508 0.5517
C10 C -0.1929(6) -0.1929(5) 0.5218(5)
H8 H -0.2671 -0.2197 0.4849
C11 C -0.4839(5) 0.2203(5) 0.4104(4)
H9 H -0.4996 0.1975 0.4661
C12 C -0.5594(5) 0.2972(5) 0.3474(4)
H10 H -0.6247 0.3252 0.3602
C13 C -0.4392(5) 0.2882(5) 0.2484(4)
H11 H -0.4221 0.3089 0.1928
C14 C -0.5362(5) 0.3320(5) 0.2642(4)
C15 C -0.3659(5) 0.2118(5) 0.3172(4)
H12 H -0.2985 0.1844 0.3075
C16 C -0.6173(5) 0.4152(5) 0.1937(4)
O1 O -0.6987(3) 0.4610(4) 0.2124(3)
O2 O -0.5945(3) 0.4356(3) 0.1139(3)
O6 O -0.3758(3) 0.0275(4) 0.5861(3)
H13 H -0.3260 0.0009 0.6383
H14 H -0.4413 0.0333 0.5953
O2C O -0.4055(3) -0.0644(3) 0.3861(3)
Cu1C Cu -0.70711(6) 0.54643(6) 0.02536(5)
N4 N -0.2193(5) 0.0021(5) 0.8251(5)
O3 O -0.1775(5) 0.0397(6) 0.7644(4)
O4 O -0.1758(5) 0.0276(6) 0.9113(4)
O5 O -0.3072(5) -0.0585(5) 0.7964(4)
O7 O -0.6022(4) 0.0973(5) 0.0476(4)
H15 H -0.6140 0.0459 0.0035
H16 H -0.6384 0.0645 0.0814
O8 O -0.3561(5) 0.0738(5) 0.0996(4)
H17 H -0.3186 0.0414 0.1538
H18 H -0.4303 0.0803 0.0836
loop_
_geom_bond_atom_site_label_1
_geom_bond_atom_site_label_2
_geom_bond_site_symmetry_1
_geom_bond_site_symmetry_2
Cu1 N1 1_555 1_555
N1 C1 1_555 1_555
N2 Cu1 1_555 1_555
N3 Cu1 1_555 1_555
C1 H1 1_555 1_555
C2 C1 1_555 1_555
H2 C2 1_555 1_555
C3 C2 1_555 1_555
H3 C3 1_555 1_555
C4 C3 1_555 1_555
H4 C4 1_555 1_555
C5 N1 1_555 1_555
C6 N2 1_555 1_555
C7 C6 1_555 1_555
H5 C7 1_555 1_555
C8 C7 1_555 1_555
H6 C8 1_555 1_555
C9 C8 1_555 1_555
H7 C9 1_555 1_555
C10 N2 1_555 1_555
H8 C10 1_555 1_555
C11 N3 1_555 1_555
H9 C11 1_555 1_555
C12 C11 1_555 1_555
H10 C12 1_555 1_555
C13 H11 1_555 1_555
C14 C12 1_555 1_555
C15 N3 1_555 1_555
H12 C15 1_555 1_555
C16 C14 1_555 1_555
O1 C16 1_555 1_555
O2 C16 1_555 1_555
N4 O3 1_555 1_555
O4 N4 1_555 1_555
O5 N4 1_555 1_555
O6 Cu1 1_555 1_555
H13 O6 1_555 1_555
H14 O6 1_555 1_555
O7 H15 1_555 1_555
H16 O7 1_555 1_555
O8 H17 1_555 1_555
H18 O8 1_555 1_555
O2C Cu1 1_555 1_555
Cu1C O2 1_555 1_555
C4 C5 1_555 1_555
C5 C6 1_555 1_555
C9 C10 1_555 1_555
C13 C14 1_555 1_555
C13 C15 1_555 1_555

#END
