
#######################################################################
#
#                 Cambridge Crystallographic Data Centre
#                                CCDC 
#
#######################################################################
#
# If this CIF has been generated from an entry in the Cambridge 
# Structural Database, then it will include bibliographic, chemical, 
# crystal, experimental, refinement or atomic coordinate data resulting 
# from the CCDC's data processing and validation procedures.
#
#######################################################################

data_WOPNAQ
_symmetry_cell_setting           monoclinic
_symmetry_space_group_name_H-M   'P 21/m'
_symmetry_Int_Tables_number      11
_space_group_name_Hall           '-P 2yb'
loop_
_symmetry_equiv_pos_site_id
_symmetry_equiv_pos_as_xyz
1 x,y,z
2 x,1/2-y,z
3 -x,-y,-z
4 -x,1/2+y,-z
_cell_length_a                   8.823(3)
_cell_length_b                   11.962(4)
_cell_length_c                   14.220(6)
_cell_angle_alpha                90
_cell_angle_beta                 95.73(3)
_cell_angle_gamma                90
_cell_volume                     1493.29
loop_
_atom_site_label
_atom_site_type_symbol
_atom_site_fract_x
_atom_site_fract_y
_atom_site_fract_z
B1 B 0.4013(13) 0.2500 0.5290(7)
F1 F 0.4855(7) 0.1554(5) 0.5220(5)
F2 F 0.2846(10) 0.2500 0.4578(6)
F3 F 0.3394(10) 0.2500 0.6132(6)
F1A F 0.4855(7) 0.3446(5) 0.5220(5)
B2 B 0.9764(19) 0.7500 0.1288(12)
F4 F 0.8570(16) 0.7500 0.0598(9)
F5 F 1.029(2) 0.6433(12) 0.1395(15)
F6 F 0.927(2) 0.7848(16) 0.2111(9)
F7 F 1.0871(18) 0.8175(16) 0.1022(14)
F5A F 1.029(2) 0.8567(12) 0.1395(15)
F6A F 0.927(2) 0.7152(16) 0.2111(9)
F7A F 1.0871(18) 0.6825(16) 0.1022(14)
Cu1 Cu 0.13384(19) 0.2500 0.26962(12)
O1 O -0.0452(11) 0.2500 0.1386(8)
C1 C -0.1761(17) 0.3170(15) 0.119(2)
C2 C -0.316(2) 0.2500 0.1384(18)
N1 N 0.0054(9) 0.1414(7) 0.3333(6)
N2 N 0.2709(8) 0.1309(6) 0.2253(6)
C3 C 0.5393(10) -0.1435(7) 0.1446(7)
H1 H 0.6398 -0.1430 0.1791
H2 H 0.5516 -0.1411 0.0776
C4 C 0.4567(14) -0.2500 0.1669(10)
H3 H 0.4415 -0.2500 0.2336
H4 H 0.3570 -0.2500 0.1314
C5 C 0.0033(13) 0.0282(8) 0.3222(8)
H5 H 0.0679 -0.0051 0.2826
C6 C -0.0935(15) -0.0373(11) 0.3689(9)
H6 H -0.0955 -0.1142 0.3593
C7 C -0.1856(16) 0.0092(13) 0.4288(9)
H7 H -0.2477 -0.0353 0.4625
C8 C -0.1856(13) 0.1280(11) 0.4392(8)
H8 H -0.2503 0.1628 0.4780
C9 C -0.0886(10) 0.1888(8) 0.3910(6)
C10 C 0.3688(12) 0.0789(8) 0.2868(7)
H9 H 0.3772 0.1031 0.3493
C11 C 0.4589(12) -0.0088(8) 0.2640(7)
H10 H 0.5234 -0.0445 0.3103
C12 C 0.4516(10) -0.0425(7) 0.1713(7)
C13 C 0.3519(11) 0.0152(8) 0.1065(7)
H11 H 0.3433 -0.0045 0.0429
C14 C 0.2692(11) 0.0985(8) 0.1361(7)
H12 H 0.2056 0.1369 0.0910
N1A N 0.0054(9) 0.3586(7) 0.3333(6)
N2A N 0.2709(8) 0.3691(6) 0.2253(6)
C1A C -0.1761(17) 0.1830(15) 0.119(2)
C3A C 0.5393(10) -0.3565(7) 0.1446(7)
C9A C -0.0886(10) 0.3112(8) 0.3910(6)
H1A H 0.6398 -0.3570 0.1791
H2A H 0.5516 -0.3589 0.0776
C12A C 0.4516(10) -0.4575(7) 0.1713(7)
C8A C -0.1856(13) 0.3720(11) 0.4392(8)
C5A C 0.0033(13) 0.4718(8) 0.3222(8)
C7A C -0.1856(16) 0.4908(13) 0.4288(9)
H8A H -0.2503 0.3372 0.4780
H5A H 0.0679 0.5051 0.2826
C6A C -0.0935(15) 0.5373(11) 0.3689(9)
H7A H -0.2477 0.5353 0.4625
H6A H -0.0955 0.6142 0.3593
C11A C 0.4589(12) -0.4912(8) 0.2640(7)
C13A C 0.3519(11) -0.5152(8) 0.1065(7)
C10A C 0.3688(12) -0.5789(8) 0.2868(7)
H10A H 0.5234 -0.4555 0.3103
H11A H 0.3433 -0.4955 0.0429
C14A C 0.2692(11) -0.5985(8) 0.1361(7)
N2A_2 N 0.2709(8) -0.6309(6) 0.2253(6)
H9A H 0.3772 -0.6031 0.3493
H12A H 0.2056 -0.6369 0.0910
Cu1_2 Cu 0.13384(19) -0.7500 0.26962(12)
loop_
_geom_bond_atom_site_label_1
_geom_bond_atom_site_label_2
_geom_bond_site_symmetry_1
_geom_bond_site_symmetry_2
Cu1 O1 1_555 1_555
O1 C1 1_555 1_555
C1 C2 1_555 1_555
C2 C1A 1_555 1_555
N1 Cu1 1_555 1_555
N2 Cu1 1_555 1_555
C3 H1 1_555 1_555
H2 C3 1_555 1_555
C4 C3 1_555 1_555
H3 C4 1_555 1_555
H4 C4 1_555 1_555
C5 N1 1_555 1_555
H5 C5 1_555 1_555
C6 C5 1_555 1_555
H6 C6 1_555 1_555
C7 C6 1_555 1_555
H7 C7 1_555 1_555
C8 C7 1_555 1_555
H8 C8 1_555 1_555
C9 N1 1_555 1_555
C10 N2 1_555 1_555
H9 C10 1_555 1_555
C11 C10 1_555 1_555
H10 C11 1_555 1_555
C12 C3 1_555 1_555
C13 C12 1_555 1_555
H11 C13 1_555 1_555
C14 N2 1_555 1_555
H12 C14 1_555 1_555
B1 F1 1_555 1_555
F2 B1 1_555 1_555
F3 B1 1_555 1_555
B2 F4 1_555 1_555
F5 B2 1_555 1_555
F6 B2 1_555 1_555
F7 B2 1_555 1_555
N1A Cu1 1_555 1_555
N2A Cu1 1_555 1_555
C1A O1 1_555 1_555
C3A C4 1_555 1_555
C9A C9 1_555 1_555
F1A B1 1_555 1_555
F5A B2 1_555 1_555
F6A B2 1_555 1_555
F7A B2 1_555 1_555
H1A C3A 1_555 1_555
H2A C3A 1_555 1_555
C12A C3A 1_555 1_555
C8A C9A 1_555 1_555
C5A N1A 1_555 1_555
C7A C8A 1_555 1_555
H8A C8A 1_555 1_555
H5A C5A 1_555 1_555
C6A C5A 1_555 1_555
H7A C7A 1_555 1_555
H6A C6A 1_555 1_555
C11A C12A 1_555 1_555
C13A C12A 1_555 1_555
C10A C11A 1_555 1_555
H10A C11A 1_555 1_555
H11A C13A 1_555 1_555
C14A C13A 1_555 1_555
N2A_2 C10A 1_555 1_555
H9A C10A 1_555 1_555
H12A C14A 1_555 1_555
Cu1_2 N2A_2 1_555 1_555
C1 C1A 1_555 1_555
C8 C9 1_555 1_555
C11 C12 1_555 1_555
C13 C14 1_555 1_555
F5 F7A 1_555 1_555
F6 F6A 1_555 1_555
F7 F5A 1_555 1_555
N1A C9A 1_555 1_555
C7A C6A 1_555 1_555
C14A N2A_2 1_555 1_555

#END
