
#######################################################################
#
#                 Cambridge Crystallographic Data Centre
#                                CCDC 
#
#######################################################################
#
# If this CIF has been generated from an entry in the Cambridge 
# Structural Database, then it will include bibliographic, chemical, 
# crystal, experimental, refinement or atomic coordinate data resulting 
# from the CCDC's data processing and validation procedures.
#
#######################################################################

data_WOPNIY
_symmetry_cell_setting           monoclinic
_symmetry_space_group_name_H-M   'C 2/c'
_symmetry_Int_Tables_number      15
_space_group_name_Hall           '-C 2yn'
loop_
_symmetry_equiv_pos_site_id
_symmetry_equiv_pos_as_xyz
1 x,y,z
2 1/2+x,1/2+y,z
3 x,-y,1/2+z
4 1/2+x,1/2-y,1/2+z
5 -x,-y,-z
6 1/2-x,1/2-y,-z
7 -x,y,1/2-z
8 1/2-x,1/2+y,1/2-z
_cell_length_a                   19.177(2)
_cell_length_b                   8.2980(10)
_cell_length_c                   21.249(3)
_cell_angle_alpha                90
_cell_angle_beta                 109.800(10)
_cell_angle_gamma                90
_cell_volume                     3181.47
loop_
_atom_site_label
_atom_site_type_symbol
_atom_site_fract_x
_atom_site_fract_y
_atom_site_fract_z
Cu1 Cu 0.958943(13) 0.17840(3) 0.466745(11)
Cl1 Cl 1.06553(3) 0.06454(6) 0.46243(3)
N1 N 1.00854(8) 0.31804(16) 0.54621(8)
N2 N 0.87048(9) 0.30266(17) 0.46822(8)
C1 C 0.96190(10) 0.4189(2) 0.56274(9)
C2 C 1.0000 -0.0238(3) 0.2500
H1 H 0.9850 0.0448 0.2107
H2 H 1.0150 0.0448 0.2893
C3 C 1.08077(11) 0.3154(2) 0.58485(10)
H3 H 1.1128 0.2463 0.5735
N3 N 0.90746(10) 0.0953(2) 0.37467(9)
C4 C 0.80119(12) 0.2871(3) 0.42487(11)
H4 H 0.7913 0.2092 0.3915
C5 C 0.98705(13) 0.5175(2) 0.61878(10)
H5 H 0.9544 0.5856 0.6298
C6 C 1.06088(13) 0.5132(2) 0.65782(10)
H6 H 1.0785 0.5783 0.6956
C7 C 0.82920(12) 0.5153(2) 0.52266(10)
H7 H 0.8399 0.5931 0.5561
C8 C 0.93544(12) -0.1266(2) 0.25037(11)
H8 H 0.9526 -0.2025 0.2871
H9 H 0.9188 -0.1885 0.2092
C9 C 1.10846(12) 0.4119(2) 0.64060(11)
H10 H 1.1585 0.4087 0.6662
C10 C 0.75841(13) 0.4997(3) 0.47774(12)
H11 H 0.7206 0.5664 0.4806
C11 C 0.88450(10) 0.4138(2) 0.51746(9)
C12 C 0.74426(12) 0.3843(3) 0.42867(12)
H12 H 0.6966 0.3717 0.3982
C13 C 0.88899(11) 0.0409(2) 0.32279(10)
C14 C 0.86918(12) -0.0349(3) 0.25699(10)
H13 H 0.8534 0.0470 0.2225
H14 H 0.8282 -0.1087 0.2509
Cl1D Cl 0.93447(3) -0.06454(6) 0.53757(3)
Cu1D Cu 1.041057(13) -0.17840(3) 0.533255(11)
C8F C 1.06456(12) -0.1266(2) 0.24963(11)
N1D N 0.99146(8) -0.31804(16) 0.45379(8)
N2D N 1.12952(9) -0.30266(17) 0.53178(8)
N3D N 1.09254(10) -0.0953(2) 0.62533(9)
C1D C 1.03810(10) -0.4189(2) 0.43726(9)
C3D C 0.91923(11) -0.3154(2) 0.41515(10)
C5D C 1.01295(13) -0.5175(2) 0.38122(10)
C11D C 1.11550(10) -0.4138(2) 0.48254(9)
H3D H 0.8872 -0.2463 0.4265
C9D C 0.89154(12) -0.4119(2) 0.35940(11)
H5D H 1.0456 -0.5856 0.3702
C6D C 0.93912(13) -0.5132(2) 0.34218(10)
H10D H 0.8415 -0.4087 0.3338
H6D H 0.9215 -0.5783 0.3044
C7D C 1.17080(12) -0.5153(2) 0.47734(10)
C4D C 1.19881(12) -0.2871(3) 0.57513(11)
H7D H 1.1601 -0.5931 0.4439
C10D C 1.24159(13) -0.4997(3) 0.52226(12)
H4D H 1.2087 -0.2092 0.6085
C12D C 1.25574(12) -0.3843(3) 0.57133(12)
H11D H 1.2794 -0.5664 0.5194
H8F H 1.0474 -0.2025 0.2129
H9F H 1.0812 -0.1885 0.2908
C14F C 1.13082(12) -0.0349(3) 0.24301(10)
C13F C 1.11101(11) 0.0409(2) 0.17721(10)
H13F H 1.1466 0.0470 0.2775
H14F H 1.1718 -0.1087 0.2491
N3F N 1.09254(10) 0.0953(2) 0.12533(9)
Cu1F Cu 1.041057(13) 0.17840(3) 0.033255(11)
H12D H 1.3034 -0.3717 0.6018
B1 B 0.20113(15) 0.6168(4) 0.82141(15)
F1 F 0.21406(10) 0.6766(2) 0.76604(9)
F2 F 0.13916(11) 0.6885(2) 0.82495(10)
F3 F 0.18865(14) 0.4558(2) 0.81566(11)
F4 F 0.25974(10) 0.6425(3) 0.87797(9)
loop_
_geom_bond_atom_site_label_1
_geom_bond_atom_site_label_2
_geom_bond_site_symmetry_1
_geom_bond_site_symmetry_2
Cu1 Cl1 1_555 1_555
Cl1 Cu1D 1_555 1_555
N1 Cu1 1_555 1_555
N2 Cu1 1_555 1_555
C1 N1 1_555 1_555
C2 H1 1_555 1_555
H2 C2 1_555 1_555
C3 N1 1_555 1_555
H3 C3 1_555 1_555
N3 Cu1 1_555 1_555
C4 N2 1_555 1_555
H4 C4 1_555 1_555
C5 C1 1_555 1_555
H5 C5 1_555 1_555
C6 C5 1_555 1_555
H6 C6 1_555 1_555
C7 H7 1_555 1_555
C8 C2 1_555 1_555
H8 C8 1_555 1_555
H9 C8 1_555 1_555
C9 C3 1_555 1_555
H10 C9 1_555 1_555
C10 C7 1_555 1_555
H11 C10 1_555 1_555
C11 N2 1_555 1_555
C12 C4 1_555 1_555
H12 C12 1_555 1_555
C13 N3 1_555 1_555
C14 C8 1_555 1_555
H13 C14 1_555 1_555
H14 C14 1_555 1_555
B1 F1 1_555 1_555
F2 B1 1_555 1_555
F3 B1 1_555 1_555
F4 B1 1_555 1_555
Cl1D Cu1 1_555 1_555
Cu1D Cl1D 1_555 1_555
C8F C2 1_555 1_555
N1D Cu1D 1_555 1_555
N2D Cu1D 1_555 1_555
N3D Cu1D 1_555 1_555
C1D N1D 1_555 1_555
C3D N1D 1_555 1_555
C5D C1D 1_555 1_555
C11D N2D 1_555 1_555
H3D C3D 1_555 1_555
C9D C3D 1_555 1_555
H5D C5D 1_555 1_555
C6D C5D 1_555 1_555
H10D C9D 1_555 1_555
H6D C6D 1_555 1_555
C7D C11D 1_555 1_555
C4D N2D 1_555 1_555
H7D C7D 1_555 1_555
C10D C7D 1_555 1_555
H4D C4D 1_555 1_555
C12D C4D 1_555 1_555
H11D C10D 1_555 1_555
H8F C8F 1_555 1_555
H9F C8F 1_555 1_555
C14F C8F 1_555 1_555
C13F C14F 1_555 1_555
H13F C14F 1_555 1_555
H14F C14F 1_555 1_555
N3F C13F 1_555 1_555
Cu1F N3F 1_555 1_555
H12D C12D 1_555 1_555
C1 C11 1_555 1_555
C6 C9 1_555 1_555
C7 C11 1_555 1_555
C10 C12 1_555 1_555
C13 C14 1_555 1_555
C1D C11D 1_555 1_555
C9D C6D 1_555 1_555
C10D C12D 1_555 1_555

#END
