
#######################################################################
#
#                 Cambridge Crystallographic Data Centre
#                                CCDC 
#
#######################################################################
#
# If this CIF has been generated from an entry in the Cambridge 
# Structural Database, then it will include bibliographic, chemical, 
# crystal, experimental, refinement or atomic coordinate data resulting 
# from the CCDC's data processing and validation procedures.
#
#######################################################################

data_WOPPAU
_symmetry_cell_setting           monoclinic
_symmetry_space_group_name_H-M   'P 2/c'
_symmetry_Int_Tables_number      13
_space_group_name_Hall           '-P 2yc'
loop_
_symmetry_equiv_pos_site_id
_symmetry_equiv_pos_as_xyz
1 x,y,z
2 -x,y,1/2-z
3 -x,-y,-z
4 x,-y,1/2+z
_cell_length_a                   11.615(5)
_cell_length_b                   9.728(4)
_cell_length_c                   15.900(6)
_cell_angle_alpha                90
_cell_angle_beta                 99.347(7)
_cell_angle_gamma                90
_cell_volume                     1772.7
loop_
_atom_site_label
_atom_site_type_symbol
_atom_site_fract_x
_atom_site_fract_y
_atom_site_fract_z
Zn1 Zn 0.17733(3) 0.18904(3) 0.286659(19)
O1 O 0.03973(18) 0.21585(19) 0.35689(13)
O2 O -0.11649(19) 0.3330(2) 0.29843(13)
O3 O 0.29189(18) 0.2683(2) 0.37692(13)
O4 O -0.20222(18) 0.5257(2) 0.38325(14)
H1 H -0.2007 0.4765 0.3416
O5 O 0.3428(2) 0.4227(2) 0.28667(13)
C1 C -0.1017(2) 0.5102(3) 0.43894(17)
O6 O 0.4991(2) 0.6030(3) 0.33897(13)
H2 H 0.4539 0.5594 0.3039
C2 C -0.0296(2) 0.3133(3) 0.35704(18)
N1 N 0.1617(2) -0.0220(3) 0.30613(17)
C3 C 0.4272(2) 0.4391(3) 0.43171(18)
C4 C -0.0851(2) 0.5956(3) 0.50963(17)
H3 H -0.1423 0.6597 0.5165
C5 C -0.0153(2) 0.4123(3) 0.42929(17)
C6 C 0.3494(3) 0.3734(3) 0.35931(18)
C7 C 0.4299(3) 0.3909(3) 0.51401(18)
H4 H 0.3823 0.3175 0.5235
C8 C 0.4982(3) 0.5506(3) 0.41776(18)
C9 C 0.2252(3) -0.1045(3) 0.2632(2)
C10 C 0.4355(7) -0.0324(7) 0.1140(6)
H5 H 0.4874 -0.0774 0.0846
C11 C 0.0963(6) -0.2196(5) 0.3717(4)
H6 H 0.0520 -0.2569 0.4098
C12 C 0.2242(4) -0.2462(4) 0.2733(3)
H7 H 0.2678 -0.3018 0.2428
C13 C 0.4223(7) 0.1090(6) 0.1083(5)
H8 H 0.4646 0.1606 0.0746
C14 C 0.0990(4) -0.0802(4) 0.3591(3)
H9 H 0.0549 -0.0241 0.3890
C15 C 0.1602(6) -0.3029(5) 0.3272(5)
H10 H 0.1591 -0.3978 0.3343
C16 C 0.2955(4) -0.0358(4) 0.2078(3)
C17 C 0.3451(5) 0.1719(5) 0.1534(3)
H11 H 0.3354 0.2666 0.1489
N2 N 0.2845(3) 0.1026(3) 0.2027(2)
C18 C 0.3704(6) -0.1051(6) 0.1640(4)
H12 H 0.3771 -0.2002 0.1681
O1B O -0.03973(18) 0.78415(19) 0.64311(13)
O4B O 0.20222(18) 0.4743(2) 0.61675(14)
H1B H 0.2007 0.5235 0.6584
C1B C 0.1017(2) 0.4898(3) 0.56106(17)
C2B C 0.0296(2) 0.6867(3) 0.64296(18)
C4B C 0.0851(2) 0.4044(3) 0.49037(17)
H3B H 0.1423 0.3403 0.4835
C5B C 0.0153(2) 0.5877(3) 0.57071(17)
O2B O 0.11649(19) 0.6670(2) 0.70157(13)
O3B O 0.70811(18) 0.7317(2) 0.62308(13)
O5B O 0.6572(2) 0.5773(2) 0.71333(13)
O6B O 0.5009(2) 0.3970(3) 0.66103(13)
H2B H 0.5461 0.4406 0.6961
C3B C 0.5728(2) 0.5609(3) 0.56829(18)
C6B C 0.6506(3) 0.6266(3) 0.64069(18)
C7B C 0.5701(3) 0.6091(3) 0.48599(18)
H4B H 0.6177 0.6825 0.4765
C8B C 0.5018(3) 0.4494(3) 0.58224(18)
Zn1A Zn -0.17733(3) 0.18904(3) 0.213341(19)
N1A N -0.1617(2) -0.0220(3) 0.19387(17)
C9A C -0.2252(3) -0.1045(3) 0.2368(2)
C10A C -0.4355(7) -0.0324(7) 0.3860(6)
H5A H -0.4874 -0.0774 0.4154
C11A C -0.0963(6) -0.2196(5) 0.1283(4)
H6A H -0.0520 -0.2569 0.0902
C12A C -0.2242(4) -0.2462(4) 0.2267(3)
H7A H -0.2678 -0.3018 0.2572
C13A C -0.4223(7) 0.1090(6) 0.3917(5)
H8A H -0.4646 0.1606 0.4254
C14A C -0.0990(4) -0.0802(4) 0.1409(3)
H9A H -0.0549 -0.0241 0.1110
C15A C -0.1602(6) -0.3029(5) 0.1728(5)
H10A H -0.1591 -0.3978 0.1657
C16A C -0.2955(4) -0.0358(4) 0.2922(3)
C17A C -0.3451(5) 0.1719(5) 0.3466(3)
H11A H -0.3354 0.2666 0.3511
N2A N -0.2845(3) 0.1026(3) 0.2973(2)
C18A C -0.3704(6) -0.1051(6) 0.3360(4)
H12A H -0.3771 -0.2002 0.3319
Zn1B Zn -0.17733(3) 0.81096(3) 0.713341(19)
Zn1B_2 Zn 0.82267(3) 0.81096(3) 0.713341(19)
Zn1C Zn 0.17733(3) 0.81096(3) 0.786659(19)
O1A O -0.03973(18) 0.21585(19) 0.14311(13)
O2A O 0.11649(19) 0.3330(2) 0.20157(13)
O3A O -0.29189(18) 0.2683(2) 0.12308(13)
loop_
_geom_bond_atom_site_label_1
_geom_bond_atom_site_label_2
_geom_bond_site_symmetry_1
_geom_bond_site_symmetry_2
Zn1 O1 1_555 1_555
O1 C2 1_555 1_555
O2 C2 1_555 1_555
O3 Zn1 1_555 1_555
O4 H1 1_555 1_555
O5 C6 1_555 1_555
C1 O4 1_555 1_555
O6 H2 1_555 1_555
C2 C5 1_555 1_555
N1 Zn1 1_555 1_555
C3 C6 1_555 1_555
C4 C1 1_555 1_555
H3 C4 1_555 1_555
C5 C1 1_555 1_555
C6 O3 1_555 1_555
C7 C3 1_555 1_555
H4 C7 1_555 1_555
C8 O6 1_555 1_555
C9 N1 1_555 1_555
C10 H5 1_555 1_555
C11 H6 1_555 1_555
C12 C9 1_555 1_555
H7 C12 1_555 1_555
C13 C10 1_555 1_555
H8 C13 1_555 1_555
C14 N1 1_555 1_555
H9 C14 1_555 1_555
C15 C11 1_555 1_555
H10 C15 1_555 1_555
C16 C9 1_555 1_555
C17 C13 1_555 1_555
H11 C17 1_555 1_555
N2 Zn1 1_555 1_555
C18 C10 1_555 1_555
H12 C18 1_555 1_555
O1B C2B 1_555 1_555
O4B H1B 1_555 1_555
C1B O4B 1_555 1_555
C2B C5B 1_555 1_555
C4B C5 1_555 1_555
H3B C4B 1_555 1_555
C5B C4 1_555 1_555
O2B C2B 1_555 1_555
O3B C6B 1_555 1_555
O5B C6B 1_555 1_555
O6B H2B 1_555 1_555
C3B C6B 1_555 1_555
C7B C8 1_555 1_555
H4B C7B 1_555 1_555
C8B C7 1_555 1_555
Zn1A O2 1_555 1_555
N1A Zn1A 1_555 1_555
C9A N1A 1_555 1_555
C10A H5A 1_555 1_555
C11A H6A 1_555 1_555
C12A C9A 1_555 1_555
H7A C12A 1_555 1_555
C13A C10A 1_555 1_555
H8A C13A 1_555 1_555
C14A N1A 1_555 1_555
H9A C14A 1_555 1_555
C15A C11A 1_555 1_555
H10A C15A 1_555 1_555
C16A C9A 1_555 1_555
C17A C13A 1_555 1_555
H11A C17A 1_555 1_555
N2A Zn1A 1_555 1_555
C18A C10A 1_555 1_555
H12A C18A 1_555 1_555
Zn1B O1B 1_555 1_555
Zn1B_2 O3B 1_555 1_555
Zn1C O2B 1_555 1_555
O1A Zn1A 1_555 1_555
O2A Zn1 1_555 1_555
O3A Zn1A 1_555 1_555
C3 C8 1_555 1_555
C11 C14 1_555 1_555
C12 C15 1_555 1_555
C16 N2 1_555 1_555
C16 C18 1_555 1_555
C17 N2 1_555 1_555
C1B C4B 1_555 1_555
C1B C5B 1_555 1_555
O6B C8B 1_555 1_555
C3B C7B 1_555 1_555
C3B C8B 1_555 1_555
C11A C14A 1_555 1_555
C12A C15A 1_555 1_555
C16A N2A 1_555 1_555
C16A C18A 1_555 1_555
C17A N2A 1_555 1_555

#END
