
#######################################################################
#
#                 Cambridge Crystallographic Data Centre
#                                CCDC 
#
#######################################################################
#
# If this CIF has been generated from an entry in the Cambridge 
# Structural Database, then it will include bibliographic, chemical, 
# crystal, experimental, refinement or atomic coordinate data resulting 
# from the CCDC's data processing and validation procedures.
#
#######################################################################

data_WOPXAA02
_symmetry_cell_setting           orthorhombic
_symmetry_space_group_name_H-M   'P b c a'
_symmetry_Int_Tables_number      61
_space_group_name_Hall           '-P 2ac 2ab'
loop_
_symmetry_equiv_pos_site_id
_symmetry_equiv_pos_as_xyz
1 x,y,z
2 1/2-x,-y,1/2+z
3 -x,1/2+y,1/2-z
4 1/2+x,1/2-y,-z
5 -x,-y,-z
6 1/2+x,y,1/2-z
7 x,1/2-y,1/2+z
8 1/2-x,1/2+y,z
_cell_length_a                   7.5778(15)
_cell_length_b                   7.4057(15)
_cell_length_c                   14.112(3)
_cell_angle_alpha                90
_cell_angle_beta                 90
_cell_angle_gamma                90
_cell_volume                     791.95
loop_
_atom_site_label
_atom_site_type_symbol
_atom_site_fract_x
_atom_site_fract_y
_atom_site_fract_z
Mo1 Mo 0.53166(15) 0.04528(15) 0.72776(8)
O1 O 0.5146(12) 0.0380(14) 0.6103(7)
O2 O 0.2595(18) 0.0319(19) 0.7541(8)
O3 O 0.5015(15) 0.2788(19) 0.7507(8)
N1 N 0.5181(16) 0.0232(17) 0.9019(10)
C1 C 0.6184(16) -0.0953(17) 0.9490(9)
H1 H 0.7012 -0.1637 0.9162
C2 C 0.3993(17) 0.1175(19) 0.9535(10)
H2 H 0.3269 0.2003 0.9228
Mo1E Mo 0.03166(15) 0.04528(15) 0.77224(8)
Mo1B Mo 0.46834(15) 0.54528(15) 0.77224(8)
Mo1D Mo 0.46834(15) -0.04528(15) 1.27224(8)
Mo1A Mo 0.96834(15) -0.04528(15) 1.22776(8)
Mo1A_2 Mo -0.03166(15) -0.04528(15) 1.22776(8)
O1D O 0.4854(12) -0.0380(14) 1.3897(7)
O2E O 0.7595(18) 0.0319(19) 0.7459(8)
O2A O 0.2405(18) -0.0319(19) 1.2541(8)
O2D O 0.7405(18) -0.0319(19) 1.2459(8)
O3B O 0.4985(15) -0.2212(19) 0.7493(8)
O3D O 0.4985(15) -0.2788(19) 1.2493(8)
O3F O 0.5015(15) 0.2212(19) 1.2507(8)
N1D N 0.4819(16) -0.0232(17) 1.0981(10)
C1D C 0.3816(16) 0.0953(17) 1.0510(9)
H1D H 0.2988 0.1637 1.0838
C2D C 0.6007(17) -0.1175(19) 1.0465(10)
H2D H 0.6731 -0.2003 1.0772
loop_
_geom_bond_atom_site_label_1
_geom_bond_atom_site_label_2
_geom_bond_site_symmetry_1
_geom_bond_site_symmetry_2
Mo1 O1 1_555 1_555
O2 Mo1 1_555 1_555
O3 Mo1 1_555 1_555
N1 Mo1 1_555 1_555
C1 N1 1_555 1_555
H1 C1 1_555 1_555
C2 N1 1_555 1_555
H2 C2 1_555 1_555
Mo1E O2 1_555 1_555
Mo1B O3 1_555 1_555
Mo1D O1D 1_555 1_555
Mo1A O2D 1_555 1_555
Mo1A_2 O2A 1_555 1_555
O2E Mo1 1_555 1_555
O2A Mo1D 1_555 1_555
O2D Mo1D 1_555 1_555
O3B Mo1 1_555 1_555
O3D Mo1D 1_555 1_555
O3F Mo1D 1_555 1_555
N1D Mo1D 1_555 1_555
C1D C2 1_555 1_555
H1D C1D 1_555 1_555
C2D C1 1_555 1_555
H2D C2D 1_555 1_555
N1D C1D 1_555 1_555
N1D C2D 1_555 1_555

#END
