
#######################################################################
#
#                 Cambridge Crystallographic Data Centre
#                                CCDC 
#
#######################################################################
#
# If this CIF has been generated from an entry in the Cambridge 
# Structural Database, then it will include bibliographic, chemical, 
# crystal, experimental, refinement or atomic coordinate data resulting 
# from the CCDC's data processing and validation procedures.
#
#######################################################################

data_WOPXEE
_symmetry_cell_setting           triclinic
_symmetry_space_group_name_H-M   'P -1'
_symmetry_Int_Tables_number      2
_space_group_name_Hall           '-P 1'
loop_
_symmetry_equiv_pos_site_id
_symmetry_equiv_pos_as_xyz
1 x,y,z
2 -x,-y,-z
_cell_length_a                   5.568(2)
_cell_length_b                   6.829(2)
_cell_length_c                   9.2460(12)
_cell_angle_alpha                100.716(12)
_cell_angle_beta                 101.521(15)
_cell_angle_gamma                112.50(3)
_cell_volume                     304.602
loop_
_atom_site_label
_atom_site_type_symbol
_atom_site_fract_x
_atom_site_fract_y
_atom_site_fract_z
Mo1 Mo -0.30214(7) -0.33832(5) -0.61079(4)
Cu1 Cu 0.44127(9) -0.11571(7) -0.38062(5)
O1 O -0.2188(7) -0.3009(5) -0.7758(4)
O2 O -0.0021(6) -0.2417(5) -0.4649(4)
O3 O 0.5026(6) -0.3703(5) -0.3542(3)
O4 O -0.4948(6) -0.1745(4) -0.5826(3)
N1 N 0.4481(7) -0.0118(5) -0.1631(3)
H1 H 0.4012(7) 0.1026(5) -0.1573(3)
C1 C 0.7265(9) 0.0792(8) -0.0573(4)
H2 H 0.8489(9) 0.1931(8) -0.0915(4)
H3 H 0.7856(9) -0.0377(8) -0.0618(4)
C2 C 0.2541(9) -0.1767(7) -0.1075(4)
H4 H 0.2933(9) -0.3043(7) -0.1146(4)
H5 H 0.0700(9) -0.2265(7) -0.1729(4)
O3A O -0.5026(6) -0.6297(5) -0.6458(3)
O4_2 O 0.5052(6) -0.1745(4) -0.5826(3)
O4A O 0.4948(6) 0.1745(4) -0.4174(3)
Cu1_2 Cu -0.55873(9) -0.11571(7) -0.38062(5)
Cu1A Cu -0.44127(9) 0.11571(7) -0.61938(5)
C2A C 0.7459(9) 0.1767(7) 0.1075(4)
C1A C 0.2735(9) -0.0792(8) 0.0573(4)
N1A N 0.5519(7) 0.0118(5) 0.1631(3)
H4A H 0.7067(9) 0.3043(7) 0.1146(4)
H5A H 0.9300(9) 0.2265(7) 0.1729(4)
H2A H 0.1511(9) -0.1931(8) 0.0915(4)
H3A H 0.2144(9) 0.0377(8) 0.0618(4)
O2A O 0.0021(6) 0.2417(5) -0.5351(4)
O3A_2 O -0.5026(6) 0.3703(5) -0.6458(3)
O4A_2 O -0.5052(6) 0.1745(4) -0.4174(3)
N1A_2 N -0.4481(7) 0.0118(5) -0.8369(3)
Mo1A Mo 0.30214(7) 0.33832(5) -0.38921(4)
Cu1A_2 Cu 0.55873(9) 0.11571(7) -0.61938(5)
Mo1A_2 Mo 0.30214(7) -0.66168(5) -0.38921(4)
O1A O 0.2188(7) 0.3009(5) -0.2242(4)
O3_2 O 0.5026(6) 0.6297(5) -0.3542(3)
Cu1A_3 Cu 0.55873(9) 0.11571(7) 0.38062(5)
H1A H 0.5988(7) -0.1026(5) 0.1573(3)
Cu1_3 Cu 0.44127(9) 0.88429(7) -0.38062(5)
H1A_2 H -0.4012(7) -0.1026(5) -0.8427(3)
loop_
_geom_bond_atom_site_label_1
_geom_bond_atom_site_label_2
_geom_bond_site_symmetry_1
_geom_bond_site_symmetry_2
Mo1 O1 1_555 1_555
Cu1 O2 1_555 1_555
O2 Mo1 1_555 1_555
O3 Cu1 1_555 1_555
O4 Mo1 1_555 1_555
N1 Cu1 1_555 1_555
H1 N1 1_555 1_555
C1 N1 1_555 1_555
H2 C1 1_555 1_555
H3 C1 1_555 1_555
C2 N1 1_555 1_555
H4 C2 1_555 1_555
H5 C2 1_555 1_555
O3A Mo1 1_555 1_555
O4_2 Cu1 1_555 1_555
O4A Cu1 1_555 1_555
Cu1_2 O4 1_555 1_555
Cu1A O4 1_555 1_555
C2A C1 1_555 1_555
C1A C2 1_555 1_555
N1A C2A 1_555 1_555
H4A C2A 1_555 1_555
H5A C2A 1_555 1_555
H2A C1A 1_555 1_555
H3A C1A 1_555 1_555
O2A Cu1A 1_555 1_555
O3A_2 Cu1A 1_555 1_555
O4A_2 Cu1_2 1_555 1_555
N1A_2 Cu1A 1_555 1_555
Mo1A O4A 1_555 1_555
Cu1A_2 O4_2 1_555 1_555
Mo1A_2 O3 1_555 1_555
O1A Mo1A 1_555 1_555
O3_2 Mo1A 1_555 1_555
Cu1A_3 N1A 1_555 1_555
H1A N1A 1_555 1_555
Cu1_3 O3_2 1_555 1_555
H1A_2 N1A_2 1_555 1_555
O4A Cu1A_2 1_555 1_555
Cu1A O4A_2 1_555 1_555
C1A N1A 1_555 1_555
O2A Mo1A 1_555 1_555

#END
