
#######################################################################
#
#                 Cambridge Crystallographic Data Centre
#                                CCDC 
#
#######################################################################
#
# If this CIF has been generated from an entry in the Cambridge 
# Structural Database, then it will include bibliographic, chemical, 
# crystal, experimental, refinement or atomic coordinate data resulting 
# from the CCDC's data processing and validation procedures.
#
#######################################################################

data_WOPXUW
_symmetry_cell_setting           monoclinic
_symmetry_space_group_name_H-M   'P 21/c'
_symmetry_Int_Tables_number      14
_space_group_name_Hall           '-P 2ybc'
loop_
_symmetry_equiv_pos_site_id
_symmetry_equiv_pos_as_xyz
1 x,y,z
2 -x,1/2+y,1/2-z
3 -x,-y,-z
4 x,1/2-y,1/2+z
_cell_length_a                   12.8248(16)
_cell_length_b                   15.240(2)
_cell_length_c                   35.105(4)
_cell_angle_alpha                90
_cell_angle_beta                 97.121(3)
_cell_angle_gamma                90
_cell_volume                     6808.35
loop_
_atom_site_label
_atom_site_type_symbol
_atom_site_fract_x
_atom_site_fract_y
_atom_site_fract_z
Ru1 Ru 0.41976(3) -0.52768(3) 0.504496(10)
Ru2 Ru 0.08303(3) -0.52752(2) 0.506477(9)
Cl1 Cl 0.25696(8) -0.60470(7) 0.52112(3)
O1 O 0.3482(2) -0.4402(2) 0.46688(9)
O2 O 0.5058(2) -0.3869(2) 0.45755(9)
O3 O 0.1028(3) -0.2391(3) 0.37930(12)
O4 O 0.2187(3) -0.1885(4) 0.32622(13)
O5 O 0.4257(3) -0.2209(3) 0.33198(12)
O6 O 0.4297(2) -0.6118(2) 0.46060(8)
O7 O 0.5875(2) -0.5579(2) 0.45239(8)
O8 O 0.3711(3) -0.8444(3) 0.35486(11)
O9 O 0.5581(3) -0.8626(3) 0.33084(11)
O10 O 0.7237(3) -0.7643(3) 0.35805(10)
O11 O 0.0957(2) -0.5306(2) 0.45000(8)
O12 O -0.0678(2) -0.4780(2) 0.43697(8)
O13 O 0.2359(3) -0.5214(3) 0.32191(10)
O14 O 0.0702(4) -0.4971(6) 0.27053(14)
O15 O -0.1271(4) -0.4837(5) 0.29071(12)
O16 O 0.1418(2) -0.4041(2) 0.51043(8)
O17 O -0.0206(2) -0.3501(2) 0.49859(8)
O18 O 0.3657(3) -0.1266(2) 0.52714(12)
O19 O 0.2371(3) -0.0069(3) 0.54885(18)
O20 O 0.0307(3) -0.0380(3) 0.54907(16)
C1 C 0.4062(4) -0.3891(3) 0.44967(13)
C2 C 0.3575(4) -0.3314(3) 0.41873(14)
C3 C 0.2501(4) -0.3139(3) 0.41557(14)
H1 H 0.2085 -0.3356 0.4341
C4 C 0.2055(4) -0.2641(4) 0.38483(16)
C5 C 0.2657(5) -0.2353(4) 0.35689(17)
C6 C 0.3733(5) -0.2523(4) 0.36081(17)
C7 C 0.4198(4) -0.2999(4) 0.39197(15)
H2 H 0.4933 -0.3110 0.3950
C8 C 0.0388(4) -0.2625(4) 0.4076(2)
H3 H 0.0600 -0.2312 0.4321
H4 H 0.0399 -0.3265 0.4123
C9 C -0.0710(7) -0.2310(6) 0.3880(3)
H5 H -0.0712 -0.1666 0.3845
H6 H -0.0877 -0.2591 0.3625
C10 C -0.1508(7) -0.2573(7) 0.4141(3)
H7 H -0.2207 -0.2373 0.4031
H8 H -0.1323 -0.2303 0.4394
H9 H -0.1511 -0.3213 0.4168
C11 C 0.2112(9) -0.2344(9) 0.2898(3)
H10 H 0.1911 -0.1925 0.2687
H11 H 0.2808 -0.2593 0.2863
C12 C 0.1356(9) -0.3033(9) 0.2881(3)
H12 H 0.1508 -0.3391 0.3117
H13 H 0.1462 -0.3415 0.2661
C13 C 0.0163(8) -0.2764(10) 0.2840(3)
H14 H -0.0272 -0.3291 0.2848
H15 H -0.0025 -0.2460 0.2595
H16 H 0.0041 -0.2373 0.3052
C14 C 0.5366(5) -0.2361(5) 0.33477(18)
H17 H 0.5515 -0.2996 0.3332
H18 H 0.5724 -0.2132 0.3594
C15 C 0.5740(6) -0.1874(6) 0.3009(2)
H19 H 0.5582 -0.1241 0.3027
H20 H 0.5367 -0.2101 0.2765
C16 C 0.6926(7) -0.2008(7) 0.3016(3)
H21 H 0.7168 -0.1696 0.2799
H22 H 0.7077 -0.2635 0.2997
H23 H 0.7291 -0.1777 0.3257
C17 C 0.5114(4) -0.6115(3) 0.44393(13)
C18 C 0.5228(4) -0.6773(3) 0.41335(13)
C19 C 0.4376(4) -0.7291(3) 0.39979(13)
H24 H 0.3724 -0.7231 0.4098
C20 C 0.4493(4) -0.7899(3) 0.37124(14)
C21 C 0.5455(4) -0.7994(4) 0.35789(14)
C22 C 0.6313(4) -0.7480(3) 0.37270(14)
C23 C 0.6190(4) -0.6858(3) 0.40015(13)
H25 H 0.6761 -0.6492 0.4099
C24 C 0.2683(5) -0.8350(4) 0.36514(19)
H26 H 0.2724 -0.8290 0.3934
H27 H 0.2271 -0.8884 0.3575
C25 C 0.2117(6) -0.7544(6) 0.3459(2)
H28 H 0.1402 -0.7507 0.3536
H29 H 0.2503 -0.7006 0.3550
C26 C 0.2038(7) -0.7586(7) 0.3022(2)
H30 H 0.1675 -0.7061 0.2912
H31 H 0.1641 -0.8110 0.2930
H32 H 0.2745 -0.7613 0.2944
C27 C 0.5520(6) -0.8270(5) 0.29291(19)
H33 H 0.5987 -0.7753 0.2927
H34 H 0.4792 -0.8085 0.2839
C28 C 0.5858(6) -0.8974(6) 0.2674(2)
H35 H 0.5387 -0.9486 0.2684
H36 H 0.5773 -0.8756 0.2407
C29 C 0.6938(6) -0.9259(7) 0.2776(2)
H37 H 0.7098 -0.9730 0.2602
H38 H 0.7031 -0.9477 0.3040
H39 H 0.7414 -0.8764 0.2753
C30 C 0.8143(4) -0.7216(5) 0.37592(18)
H40 H 0.8240 -0.7345 0.4038
H41 H 0.8073 -0.6573 0.3724
C31 C 0.9071(6) -0.7549(7) 0.3577(2)
H42 H 0.9717 -0.7283 0.3714
H43 H 0.9122 -0.8191 0.3617
C32 C 0.9054(9) -0.7383(9) 0.3189(3)
H44 H 0.9646 -0.7682 0.3093
H45 H 0.9110 -0.6750 0.3147
H46 H 0.8393 -0.7600 0.3051
C33 C 0.0176(4) -0.5054(3) 0.42627(13)
C34 C 0.0289(4) -0.5069(3) 0.38495(13)
C35 C 0.1286(4) -0.5173(3) 0.37404(13)
H47 H 0.1875 -0.5253 0.3929
C36 C 0.1416(4) -0.5161(4) 0.33579(16)
C37 C 0.0530(5) -0.5062(6) 0.30813(17)
C38 C -0.0457(5) -0.4953(5) 0.31981(17)
C39 C -0.0587(4) -0.4957(4) 0.35817(15)
H48 H -0.1264 -0.4884 0.3661
C40 C 0.3268(4) -0.5148(4) 0.34951(14)
H49 H 0.3320 -0.5669 0.3665
H50 H 0.3221 -0.4618 0.3655
C41 C 0.4221(5) -0.5092(5) 0.32845(17)
H51 H 0.4151 -0.4572 0.3114
H52 H 0.4851 -0.5005 0.3474
C42 C 0.4383(5) -0.5885(5) 0.30489(19)
H53 H 0.5017 -0.5808 0.2923
H54 H 0.3774 -0.5965 0.2854
H55 H 0.4465 -0.6403 0.3215
C43 C 0.0312(12) -0.5505(11) 0.2441(3)
H56 H -0.0446 -0.5587 0.2459
H57 H 0.0660 -0.6083 0.2482
C44 C 0.0453(10) -0.5166(12) 0.2039(3)
H58 H 0.0740 -0.4564 0.2070
H59 H 0.1001 -0.5532 0.1942
C45 C -0.0381(16) -0.5137(14) 0.1759(5)
H60 H -0.0153 -0.4903 0.1523
H61 H -0.0927 -0.4757 0.1842
H62 H -0.0662 -0.5730 0.1712
C46 C -0.2316(5) -0.4698(7) 0.30168(19)
H63 H -0.2302 -0.4221 0.3209
H64 H -0.2575 -0.5240 0.3129
C47 C -0.3030(6) -0.4445(8) 0.2648(2)
H65 H -0.3726 -0.4259 0.2714
H66 H -0.2716 -0.3946 0.2522
C48 C -0.3162(8) -0.5210(11) 0.2378(3)
H67 H -0.3593 -0.5033 0.2140
H68 H -0.3509 -0.5692 0.2497
H69 H -0.2471 -0.5404 0.2319
C49 C 0.0776(3) -0.3408(3) 0.50755(12)
C50 C 0.1185(4) -0.2517(3) 0.51597(14)
C51 C 0.2245(4) -0.2346(3) 0.51557(14)
H70 H 0.2698 -0.2787 0.5078
C52 C 0.2639(4) -0.1524(3) 0.52662(17)
C53 C 0.1972(4) -0.0881(4) 0.53854(19)
C54 C 0.0894(4) -0.1059(4) 0.53797(19)
C55 C 0.0497(4) -0.1872(3) 0.52646(15)
H71 H -0.0232 -0.1992 0.5257
C56 C 0.4330(4) -0.1781(3) 0.50614(16)
H72 H 0.4023 -0.1835 0.4789
H73 H 0.4423 -0.2376 0.5173
C57 C 0.5373(4) -0.1305(3) 0.50911(18)
H74 H 0.5648 -0.1223 0.5365
H75 H 0.5271 -0.0719 0.4971
C58 C 0.6167(4) -0.1823(4) 0.48918(19)
H76 H 0.6841 -0.1512 0.4920
H77 H 0.5907 -0.1884 0.4619
H78 H 0.6263 -0.2406 0.5009
C59 C 0.2546(8) 0.0080(8) 0.5887(3)
H79 H 0.2010 0.0510 0.5945
H80 H 0.2378 -0.0477 0.6011
C60 C 0.4478(5) 0.0250(5) 0.5951(2)
H81 H 0.4952 0.0671 0.6095
H82 H 0.4456 0.0366 0.5675
H83 H 0.4734 -0.0347 0.6007
C61 C -0.0817(4) -0.0498(4) 0.5460(2)
H84 H -0.0994 -0.1000 0.5619
H85 H -0.1110 -0.0610 0.5190
C62 C -0.1257(4) 0.0349(4) 0.5603(2)
H86 H -0.1069 0.0845 0.5442
H87 H -0.0945 0.0460 0.5871
C63 C -0.2462(5) 0.0290(4) 0.5584(2)
H88 H -0.2734 0.0838 0.5680
H89 H -0.2647 -0.0200 0.5744
H90 H -0.2771 0.0194 0.5318
C64 C 0.3417(7) 0.0343(13) 0.6063(3)
H91 H 0.3459 0.0077 0.6322
H92 H 0.3324 0.0981 0.6101
Ru1B Ru 0.58024(3) -0.47232(3) 0.495504(10)
Ru2B Ru -0.08303(3) -0.47248(2) 0.493523(9)
O2B O 0.4942(2) -0.6131(2) 0.54245(9)
O7B O 0.4125(2) -0.4421(2) 0.54761(8)
O12B O 0.0678(2) -0.5220(2) 0.56303(8)
O17B O 0.0206(2) -0.6499(2) 0.50141(8)
O21 O 0.1869(5) -0.7167(4) 0.43933(18)
O22 O 0.6779(5) -0.4483(5) 0.38888(18)
H101 H 0.6184 -0.4877 0.3948
H102 H 0.7130 -0.5045 0.3790
C65? C -0.0729(15) -0.2216(12) 0.4109(7)
H93? H -0.0931 -0.2315 0.4369
H94? H -0.0725 -0.1576 0.4059
C66? C -0.1463(14) -0.2662(14) 0.3819(6)
H95? H -0.2172 -0.2428 0.3825
H96? H -0.1460 -0.3293 0.3873
H97? H -0.1246 -0.2564 0.3564
C67? C 0.9335(17) -0.8392(18) 0.3637(7)
H98? H 0.9942 -0.8531 0.3503
H99? H 0.8741 -0.8766 0.3537
H100? H 0.9514 -0.8496 0.3912
loop_
_geom_bond_atom_site_label_1
_geom_bond_atom_site_label_2
_geom_bond_site_symmetry_1
_geom_bond_site_symmetry_2
Ru1 Cl1 1_555 1_555
Ru2 Cl1 1_555 1_555
O1 Ru1 1_555 1_555
O2 C1 1_555 1_555
O3 C4 1_555 1_555
O4 C5 1_555 1_555
O5 C6 1_555 1_555
O6 Ru1 1_555 1_555
O7 C17 1_555 1_555
O8 C20 1_555 1_555
O9 C21 1_555 1_555
O10 C22 1_555 1_555
O11 Ru2 1_555 1_555
O12 C33 1_555 1_555
O13 C36 1_555 1_555
O14 C37 1_555 1_555
O15 C38 1_555 1_555
O16 Ru2 1_555 1_555
O17 C49 1_555 1_555
O18 C52 1_555 1_555
O19 C53 1_555 1_555
O20 C54 1_555 1_555
C1 O1 1_555 1_555
C2 C1 1_555 1_555
C3 C2 1_555 1_555
H1 C3 1_555 1_555
C4 C3 1_555 1_555
C5 C4 1_555 1_555
C6 C5 1_555 1_555
C7 C2 1_555 1_555
H2 C7 1_555 1_555
C8 O3 1_555 1_555
H3 C8 1_555 1_555
H4 C8 1_555 1_555
C9 C8 1_555 1_555
H5 C9 1_555 1_555
H6 C9 1_555 1_555
C10 C9 1_555 1_555
H7 C10 1_555 1_555
H8 C10 1_555 1_555
H9 C10 1_555 1_555
C11 O4 1_555 1_555
H10 C11 1_555 1_555
H11 C11 1_555 1_555
C12 C11 1_555 1_555
H12 C12 1_555 1_555
H13 C12 1_555 1_555
C13 C12 1_555 1_555
H14 C13 1_555 1_555
H15 C13 1_555 1_555
H16 C13 1_555 1_555
C14 O5 1_555 1_555
H17 C14 1_555 1_555
H18 C14 1_555 1_555
C15 C14 1_555 1_555
H19 C15 1_555 1_555
H20 C15 1_555 1_555
C16 C15 1_555 1_555
H21 C16 1_555 1_555
H22 C16 1_555 1_555
H23 C16 1_555 1_555
C17 O6 1_555 1_555
C18 C17 1_555 1_555
C19 C18 1_555 1_555
H24 C19 1_555 1_555
C20 C19 1_555 1_555
C21 C20 1_555 1_555
C22 C21 1_555 1_555
C23 C18 1_555 1_555
H25 C23 1_555 1_555
C24 O8 1_555 1_555
H26 C24 1_555 1_555
H27 C24 1_555 1_555
C25 C24 1_555 1_555
H28 C25 1_555 1_555
H29 C25 1_555 1_555
C26 C25 1_555 1_555
H30 C26 1_555 1_555
H31 C26 1_555 1_555
H32 C26 1_555 1_555
C27 O9 1_555 1_555
H33 C27 1_555 1_555
H34 C27 1_555 1_555
C28 C27 1_555 1_555
H35 C28 1_555 1_555
H36 C28 1_555 1_555
C29 C28 1_555 1_555
H37 C29 1_555 1_555
H38 C29 1_555 1_555
H39 C29 1_555 1_555
C30 O10 1_555 1_555
H40 C30 1_555 1_555
H41 C30 1_555 1_555
C31 C30 1_555 1_555
H42 C31 1_555 1_555
H43 C31 1_555 1_555
C32 C31 1_555 1_555
H44 C32 1_555 1_555
H45 C32 1_555 1_555
H46 C32 1_555 1_555
C33 O11 1_555 1_555
C34 C33 1_555 1_555
C35 C34 1_555 1_555
H47 C35 1_555 1_555
C36 C35 1_555 1_555
C37 C36 1_555 1_555
C38 C37 1_555 1_555
C39 C34 1_555 1_555
H48 C39 1_555 1_555
C40 O13 1_555 1_555
H49 C40 1_555 1_555
H50 C40 1_555 1_555
C41 C40 1_555 1_555
H51 C41 1_555 1_555
H52 C41 1_555 1_555
C42 C41 1_555 1_555
H53 C42 1_555 1_555
H54 C42 1_555 1_555
H55 C42 1_555 1_555
C43 O14 1_555 1_555
H56 C43 1_555 1_555
H57 C43 1_555 1_555
C44 C43 1_555 1_555
H58 C44 1_555 1_555
H59 C44 1_555 1_555
C45 C44 1_555 1_555
H60 C45 1_555 1_555
H61 C45 1_555 1_555
H62 C45 1_555 1_555
C46 O15 1_555 1_555
H63 C46 1_555 1_555
H64 C46 1_555 1_555
C47 C46 1_555 1_555
H65 C47 1_555 1_555
H66 C47 1_555 1_555
C48 C47 1_555 1_555
H67 C48 1_555 1_555
H68 C48 1_555 1_555
H69 C48 1_555 1_555
C49 O16 1_555 1_555
C50 C49 1_555 1_555
C51 C50 1_555 1_555
H70 C51 1_555 1_555
C52 C51 1_555 1_555
C53 C52 1_555 1_555
C54 C53 1_555 1_555
C55 C50 1_555 1_555
H71 C55 1_555 1_555
C56 O18 1_555 1_555
H72 C56 1_555 1_555
H73 C56 1_555 1_555
C57 C56 1_555 1_555
H74 C57 1_555 1_555
H75 C57 1_555 1_555
C58 C57 1_555 1_555
H76 C58 1_555 1_555
H77 C58 1_555 1_555
H78 C58 1_555 1_555
C59 O19 1_555 1_555
H79 C59 1_555 1_555
H80 C59 1_555 1_555
C60 H81 1_555 1_555
H82 C60 1_555 1_555
H83 C60 1_555 1_555
C61 O20 1_555 1_555
H84 C61 1_555 1_555
H85 C61 1_555 1_555
C62 C61 1_555 1_555
H86 C62 1_555 1_555
H87 C62 1_555 1_555
C63 C62 1_555 1_555
H88 C63 1_555 1_555
H89 C63 1_555 1_555
H90 C63 1_555 1_555
C64 C59 1_555 1_555
H91 C64 1_555 1_555
H92 C64 1_555 1_555
O22 H101 1_555 1_555
H102 O22 1_555 1_555
Ru1B Ru1 1_555 1_555
Ru2B Ru2 1_555 1_555
O2B Ru1 1_555 1_555
O7B Ru1 1_555 1_555
O12B Ru2 1_555 1_555
O17B Ru2 1_555 1_555
O2 Ru1B 1_555 1_555
O7 Ru1B 1_555 1_555
O12 Ru2B 1_555 1_555
O17 Ru2B 1_555 1_555
C6 C7 1_555 1_555
C22 C23 1_555 1_555
C38 C39 1_555 1_555
C54 C55 1_555 1_555
C60 C64 1_555 1_555

#END
