
#######################################################################
#
#                 Cambridge Crystallographic Data Centre
#                                CCDC 
#
#######################################################################
#
# If this CIF has been generated from an entry in the Cambridge 
# Structural Database, then it will include bibliographic, chemical, 
# crystal, experimental, refinement or atomic coordinate data resulting 
# from the CCDC's data processing and validation procedures.
#
#######################################################################

data_WOQCUB
_symmetry_cell_setting           triclinic
_symmetry_space_group_name_H-M   'P -1'
_symmetry_Int_Tables_number      2
_space_group_name_Hall           '-P 1'
loop_
_symmetry_equiv_pos_site_id
_symmetry_equiv_pos_as_xyz
1 x,y,z
2 -x,-y,-z
_cell_length_a                   7.8197(12)
_cell_length_b                   8.2810(8)
_cell_length_c                   14.752(2)
_cell_angle_alpha                86.210(9)
_cell_angle_beta                 76.512(12)
_cell_angle_gamma                79.496(10)
_cell_volume                     913.073
loop_
_atom_site_label
_atom_site_type_symbol
_atom_site_fract_x
_atom_site_fract_y
_atom_site_fract_z
Fe1 Fe 0.00000 0.00000 0.00000
S1 S 0.23714(8) -0.14767(8) 0.26844(4)
N1 N 0.0822(2) -0.1390(2) 0.11483(13)
N2 N 0.1951(2) 0.3625(2) 0.12222(12)
N3 N 0.2411(3) 0.4221(3) 0.03355(14)
N4 N 0.1071(2) 0.2038(2) 0.03764(13)
N5 N 0.5463(2) 0.2985(2) 0.16110(12)
N6 N 0.5476(3) 0.1723(3) 0.22494(14)
N7 N 0.7479(2) 0.1008(2) 0.09294(13)
C1 C 0.1462(3) -0.1441(3) 0.17862(15)
C2 C 0.1844(3) 0.3221(3) -0.01488(17)
C3 C 0.1167(3) 0.2330(3) 0.12318(16)
C4 C 0.2330(3) 0.4356(3) 0.20074(15)
C5 C 0.6708(3) 0.0567(3) 0.18074(17)
C6 C 0.6653(2) 0.2528(3) 0.08309(15)
C7 C 0.4281(2) 0.4541(3) 0.18163(17)
H1 H 0.1970 0.3327 -0.081
H2 H 0.0752 0.1725 0.1756
H3 H 0.2049 0.3665 0.2565
H4 H 0.1577 0.543 0.2123
H5 H 0.7046 -0.054 0.2095
H6 H 0.6870 0.317 0.0300
H7 H 0.4536 0.5313 0.1284
H8 H 0.4510 0.5008 0.2366
Fe1_2 Fe 1.00000 0.00000 0.00000
Fe1_3 Fe -1.00000 0.00000 0.00000
S1A S -0.23714(8) 0.14767(8) -0.26844(4)
N1A N -0.0822(2) 0.1390(2) -0.11483(13)
N2_2 N -0.8049(2) 0.3625(2) 0.12222(12)
N3_2 N -0.7589(3) 0.4221(3) 0.03355(14)
N4_2 N -0.8929(2) 0.2038(2) 0.03764(13)
N4A N -0.1071(2) -0.2038(2) -0.03764(13)
N5_2 N -0.4537(2) 0.2985(2) 0.16110(12)
N6_2 N -0.4524(3) 0.1723(3) 0.22494(14)
N7_2 N -0.2521(2) 0.1008(2) 0.09294(13)
N7A N 0.2521(2) -0.1008(2) -0.09294(13)
C1A C -0.1462(3) 0.1441(3) -0.17862(15)
C2_2 C -0.8156(3) 0.3221(3) -0.01488(17)
C3_2 C -0.8833(3) 0.2330(3) 0.12318(16)
C4_2 C -0.7670(3) 0.4356(3) 0.20074(15)
C5_2 C -0.3292(3) 0.0567(3) 0.18074(17)
C6_2 C -0.3347(2) 0.2528(3) 0.08309(15)
C7_2 C -0.5719(2) 0.4541(3) 0.18163(17)
H1_2 H -0.8030 0.3327 -0.081
H2_2 H -0.9248 0.1725 0.1756
H3_2 H -0.7951 0.3665 0.2565
H4_2 H -0.8423 0.543 0.2123
H5_2 H -0.2954 -0.054 0.2095
H6_2 H -0.3130 0.317 0.0300
H7_2 H -0.5464 0.5313 0.1284
H8_2 H -0.5490 0.5008 0.2366
Fe2 Fe 0.50000 0.00000 0.50000
S2 S 0.76016(7) -0.44534(8) 0.28817(4)
O1 O 0.6327(2) -0.1586(2) 0.58985(11)
N8 N 0.6515(2) -0.1568(2) 0.38928(13)
N9 N 0.8757(2) 0.3286(2) 0.49720(12)
N10 N 0.9867(2) 0.2160(2) 0.43783(13)
N11 N 0.7088(2) 0.1578(2) 0.47448(12)
C8 C 0.6978(2) -0.2763(3) 0.34657(14)
C9 C 0.8798(2) 0.1175(3) 0.42569(16)
C10 C 0.7114(2) 0.2919(3) 0.51791(15)
C11 C 0.9416(3) 0.4551(3) 0.53793(15)
H9 H 0.736(4) -0.162(4) 0.587(3)
H10 H 0.586(4) -0.153(4) 0.646(3)
H11 H 0.9201 0.024 0.3852
H12 H 0.614 0.3516 0.5570
H13 H 1.0099 0.4045 0.5826
H14 H 0.8413 0.5327 0.5707
Fe2_2 Fe 1.50000 1.00000 0.50000
S2A S 0.23984(7) 0.44534(8) 0.71183(4)
O1A O 0.3673(2) 0.1586(2) 0.41015(11)
N8A N 0.3485(2) 0.1568(2) 0.61072(13)
N9A N 1.1243(2) 0.6714(2) 0.50280(12)
N10A N 1.0133(2) 0.7840(2) 0.56217(13)
N11A N 1.2912(2) 0.8422(2) 0.52552(12)
N11A_2 N 0.2912(2) -0.1578(2) 0.52552(12)
C8A C 0.3022(2) 0.2763(3) 0.65343(14)
C9A C 1.1202(2) 0.8825(3) 0.57431(16)
C10A C 1.2886(2) 0.7081(3) 0.48209(15)
C11A C 1.0584(3) 0.5449(3) 0.46207(15)
H9A H 0.264(4) 0.162(4) 0.413(3)
H10A H 0.414(4) 0.153(4) 0.354(3)
H11A H 1.0799 0.976 0.6148
H12A H 1.386 0.6484 0.4430
H13A H 0.9901 0.5955 0.4174
H14A H 1.1587 0.4673 0.4293
loop_
_geom_bond_atom_site_label_1
_geom_bond_atom_site_label_2
_geom_bond_site_symmetry_1
_geom_bond_site_symmetry_2
Fe1 N1 1_555 1_555
S1 C1 1_555 1_555
N1 C1 1_555 1_555
N2 N3 1_555 1_555
N3 C2 1_555 1_555
N4 Fe1 1_555 1_555
N5 N6 1_555 1_555
N6 C5 1_555 1_555
N7 C5 1_555 1_555
C2 N4 1_555 1_555
C3 N2 1_555 1_555
C4 N2 1_555 1_555
C5 H5 1_555 1_555
C6 N5 1_555 1_555
C7 N5 1_555 1_555
H1 C2 1_555 1_555
H2 C3 1_555 1_555
H3 C4 1_555 1_555
H4 C4 1_555 1_555
H6 C6 1_555 1_555
H7 C7 1_555 1_555
H8 C7 1_555 1_555
Fe2 O1 1_555 1_555
S2 C8 1_555 1_555
O1 H9 1_555 1_555
N8 Fe2 1_555 1_555
N9 N10 1_555 1_555
N10 C9 1_555 1_555
N11 Fe2 1_555 1_555
C8 N8 1_555 1_555
C9 N11 1_555 1_555
C10 N9 1_555 1_555
C11 N9 1_555 1_555
H10 O1 1_555 1_555
H11 C9 1_555 1_555
H12 C10 1_555 1_555
H13 C11 1_555 1_555
H14 C11 1_555 1_555
Fe1_2 N7 1_555 1_555
Fe1_3 N4_2 1_555 1_555
S1A C1A 1_555 1_555
N1A Fe1 1_555 1_555
N2_2 N3_2 1_555 1_555
N3_2 C2_2 1_555 1_555
N4_2 C2_2 1_555 1_555
N4A Fe1 1_555 1_555
N5_2 N6_2 1_555 1_555
N6_2 C5_2 1_555 1_555
N7_2 Fe1 1_555 1_555
N7A Fe1 1_555 1_555
C1A N1A 1_555 1_555
C2_2 H1_2 1_555 1_555
C3_2 N2_2 1_555 1_555
C4_2 N2_2 1_555 1_555
C5_2 N7_2 1_555 1_555
C6_2 N5_2 1_555 1_555
C7_2 N5_2 1_555 1_555
H2_2 C3_2 1_555 1_555
H3_2 C4_2 1_555 1_555
H4_2 C4_2 1_555 1_555
H5_2 C5_2 1_555 1_555
H6_2 C6_2 1_555 1_555
H7_2 C7_2 1_555 1_555
H8_2 C7_2 1_555 1_555
Fe2_2 N11A 1_555 1_555
S2A C8A 1_555 1_555
O1A Fe2 1_555 1_555
N8A Fe2 1_555 1_555
N9A N10A 1_555 1_555
N10A C9A 1_555 1_555
N11A C9A 1_555 1_555
N11A_2 Fe2 1_555 1_555
C8A N8A 1_555 1_555
C9A H11A 1_555 1_555
C10A N9A 1_555 1_555
C11A C11 1_555 1_555
H9A O1A 1_555 1_555
H10A O1A 1_555 1_555
H12A C10A 1_555 1_555
H13A C11A 1_555 1_555
H14A C11A 1_555 1_555
N4 C3 1_555 1_555
N7 C6 1_555 1_555
C4 C7 1_555 1_555
N11 C10 1_555 1_555
N4_2 C3_2 1_555 1_555
N7_2 C6_2 1_555 1_555
C4_2 C7_2 1_555 1_555
N9A C11A 1_555 1_555
N11A C10A 1_555 1_555

#END
