
#######################################################################
#
#                 Cambridge Crystallographic Data Centre
#                                CCDC 
#
#######################################################################
#
# If this CIF has been generated from an entry in the Cambridge 
# Structural Database, then it will include bibliographic, chemical, 
# crystal, experimental, refinement or atomic coordinate data resulting 
# from the CCDC's data processing and validation procedures.
#
#######################################################################

data_WOQCUB01
_symmetry_cell_setting           triclinic
_symmetry_space_group_name_H-M   'P -1'
_symmetry_Int_Tables_number      2
_space_group_name_Hall           '-P 1'
loop_
_symmetry_equiv_pos_site_id
_symmetry_equiv_pos_as_xyz
1 x,y,z
2 -x,-y,-z
_cell_length_a                   7.8314(16)
_cell_length_b                   8.329(2)
_cell_length_c                   14.783(3)
_cell_angle_alpha                86.332(14)
_cell_angle_beta                 76.383(13)
_cell_angle_gamma                79.761(14)
_cell_volume                     921.986
loop_
_atom_site_label
_atom_site_type_symbol
_atom_site_fract_x
_atom_site_fract_y
_atom_site_fract_z
Fe1 Fe 0.0000 0.5000 0.0000
S1 S 0.23675(8) 0.35219(7) 0.26729(4)
N1 N -0.4533(2) 0.79810(19) 0.16054(11)
N2 N -0.4523(2) 0.6736(2) 0.22464(12)
N3 N -0.2522(2) 0.6012(2) 0.09273(11)
N4 N -0.8048(2) 0.86189(19) 0.12190(11)
N5 N -0.7578(3) 0.9209(2) 0.03329(12)
N6 N -0.8919(2) 0.70364(19) 0.03726(11)
N7 N 0.0809(2) 0.3619(2) 0.11471(12)
C1 C -0.3293(3) 0.5587(3) 0.18051(15)
H1 H -0.2974 0.4548 0.2080
C2 C -0.3343(2) 0.7524(2) 0.08302(13)
H2 H -0.3112 0.8187 0.0282
C3 C -0.8143(3) 0.8211(3) -0.01442(14)
H3 H -0.8012 0.8313 -0.0800
C4 C -0.8828(3) 0.7340(2) 0.12272(13)
H4 H -0.9262 0.6723 0.1769
C5 C -0.5721(2) 0.9539(2) 0.18114(15)
H5 H -0.5460 1.0308 0.1278
H6 H -0.5495 1.0008 0.2362
C6 C -0.7662(2) 0.9352(2) 0.20002(14)
H7 H -0.7951 0.8659 0.2566
H8 H -0.8421 1.0436 0.2116
C7 C 0.1458(3) 0.3559(2) 0.17823(14)
Fe1_2 Fe -1.0000 0.5000 0.0000
S1A S -0.23675(8) 0.64781(7) -0.26729(4)
N1A N -0.5467(2) 0.20190(19) -0.16054(11)
N2A N -0.5477(2) 0.3264(2) -0.22464(12)
N3A N -0.7478(2) 0.3988(2) -0.09273(11)
N3A_2 N 0.2522(2) 0.3988(2) -0.09273(11)
N4A N -0.1952(2) 0.13811(19) -0.12190(11)
N5A N -0.2422(3) 0.0791(2) -0.03329(12)
N6A N -0.1081(2) 0.29636(19) -0.03726(11)
N6_2 N 0.1081(2) 0.70364(19) 0.03726(11)
N7A N -0.0809(2) 0.6381(2) -0.11471(12)
C1A C -0.6707(3) 0.4413(3) -0.18051(15)
H1A H -0.7026 0.5452 -0.2080
C2A C -0.6657(2) 0.2476(2) -0.08302(13)
H2A H -0.6888 0.1813 -0.0282
C3A C -0.1857(3) 0.1789(3) 0.01442(14)
H3A H -0.1988 0.1687 0.0800
C4A C -0.1172(3) 0.2660(2) -0.12272(13)
H4A H -0.0738 0.3277 -0.1769
C5A C -0.4279(2) 0.0461(2) -0.18114(15)
H5A H -0.4540 -0.0308 -0.1278
H6A H -0.4505 -0.0008 -0.2362
C6A C -0.2338(2) 0.0648(2) -0.20002(14)
H7A H -0.2049 0.1341 -0.2566
H8A H -0.1579 -0.0436 -0.2116
C7A C -0.1458(3) 0.6441(2) -0.17823(14)
Fe2 Fe -0.5000 0.5000 0.5000
S2 S -0.75895(7) 0.94412(7) 0.71152(4)
O1 O -0.6318(2) 0.65861(18) 0.41044(10)
N8 N -0.1236(2) 0.82814(19) 0.49738(11)
N9 N -0.0127(2) 0.7161(2) 0.43745(12)
N10 N -0.2904(2) 0.65773(19) 0.47483(11)
N11 N -0.6509(2) 0.6555(2) 0.61101(11)
C8 C -0.1197(2) 0.6174(2) 0.42589(14)
H9 H -0.0805 0.5258 0.3866
C9 C -0.2872(2) 0.7908(2) 0.51845(13)
H10 H -0.3872 0.8510 0.5590
C10 C -0.0569(3) 0.9535(3) 0.53772(14)
H11 H 0.0150 0.9016 0.5819
H12 H -0.1586 1.0304 0.5727
C11 C -0.6968(2) 0.7749(2) 0.65326(13)
H13 H -0.735(4) 0.664(3) 0.4139(17)
H14 H -0.585(4) 0.664(4) 0.353(2)
Fe2_2 Fe 0.5000 1.5000 0.5000
S2A S -0.24105(7) 0.05588(7) 0.28848(4)
O1A O -0.3682(2) 0.34139(18) 0.58956(10)
N8A N 0.1236(2) 1.17186(19) 0.50262(11)
N9A N 0.0127(2) 1.2839(2) 0.56255(12)
N10A N 0.2904(2) 1.34227(19) 0.52517(11)
N10A_2 N -0.7096(2) 0.34227(19) 0.52517(11)
N11A N -0.3491(2) 0.3445(2) 0.38899(11)
C8A C 0.1197(2) 1.3826(2) 0.57411(14)
H9A H 0.0805 1.4742 0.6134
C9A C 0.2872(2) 1.2092(2) 0.48155(13)
H10A H 0.3872 1.1490 0.4410
C10A C 0.0569(3) 1.0465(3) 0.46228(14)
H11A H -0.0150 1.0984 0.4181
H12A H 0.1586 0.9696 0.4273
C11A C -0.3032(2) 0.2251(2) 0.34674(13)
H13A H -0.265(4) 0.336(3) 0.5861(17)
H14A H -0.415(4) 0.336(4) 0.647(2)
loop_
_geom_bond_atom_site_label_1
_geom_bond_atom_site_label_2
_geom_bond_site_symmetry_1
_geom_bond_site_symmetry_2
Fe1 N3 1_555 1_555
S1 C7 1_555 1_555
N1 N2 1_555 1_555
N2 C1 1_555 1_555
N3 C1 1_555 1_555
N4 N5 1_555 1_555
N5 C3 1_555 1_555
N6 C3 1_555 1_555
N7 Fe1 1_555 1_555
C1 H1 1_555 1_555
C2 N1 1_555 1_555
H2 C2 1_555 1_555
C3 H3 1_555 1_555
C4 N4 1_555 1_555
H4 C4 1_555 1_555
C5 N1 1_555 1_555
H5 C5 1_555 1_555
H6 C5 1_555 1_555
C6 N4 1_555 1_555
H7 C6 1_555 1_555
H8 C6 1_555 1_555
C7 N7 1_555 1_555
Fe2 O1 1_555 1_555
S2 C11 1_555 1_555
O1 H13 1_555 1_555
N8 N9 1_555 1_555
N9 C8 1_555 1_555
N10 Fe2 1_555 1_555
N11 Fe2 1_555 1_555
C8 N10 1_555 1_555
H9 C8 1_555 1_555
C9 N8 1_555 1_555
H10 C9 1_555 1_555
C10 N8 1_555 1_555
H11 C10 1_555 1_555
H12 C10 1_555 1_555
C11 N11 1_555 1_555
H14 O1 1_555 1_555
Fe1_2 N6 1_555 1_555
S1A C7A 1_555 1_555
N1A N2A 1_555 1_555
N2A C1A 1_555 1_555
N3A Fe1_2 1_555 1_555
N3A_2 Fe1 1_555 1_555
N4A N5A 1_555 1_555
N5A C3A 1_555 1_555
N6A Fe1 1_555 1_555
N6_2 Fe1 1_555 1_555
N7A Fe1 1_555 1_555
C1A N3A 1_555 1_555
H1A C1A 1_555 1_555
C2A N1A 1_555 1_555
H2A C2A 1_555 1_555
C3A N6A 1_555 1_555
H3A C3A 1_555 1_555
C4A N4A 1_555 1_555
H4A C4A 1_555 1_555
C5A N1A 1_555 1_555
H5A C5A 1_555 1_555
H6A C5A 1_555 1_555
C6A N4A 1_555 1_555
H7A C6A 1_555 1_555
H8A C6A 1_555 1_555
C7A N7A 1_555 1_555
Fe2_2 N10A 1_555 1_555
S2A C11A 1_555 1_555
O1A Fe2 1_555 1_555
N8A N9A 1_555 1_555
N9A C8A 1_555 1_555
N10A C8A 1_555 1_555
N10A_2 Fe2 1_555 1_555
N11A Fe2 1_555 1_555
C8A H9A 1_555 1_555
C9A N8A 1_555 1_555
H10A C9A 1_555 1_555
C10A C10 1_555 1_555
H11A C10A 1_555 1_555
H12A C10A 1_555 1_555
C11A N11A 1_555 1_555
H13A O1A 1_555 1_555
H14A O1A 1_555 1_555
N3 C2 1_555 1_555
N6 C4 1_555 1_555
C5 C6 1_555 1_555
N10 C9 1_555 1_555
N3A C2A 1_555 1_555
N6A C4A 1_555 1_555
C5A C6A 1_555 1_555
N8A C10A 1_555 1_555
N10A C9A 1_555 1_555

#END
