
#######################################################################
#
#                 Cambridge Crystallographic Data Centre
#                                CCDC 
#
#######################################################################
#
# If this CIF has been generated from an entry in the Cambridge 
# Structural Database, then it will include bibliographic, chemical, 
# crystal, experimental, refinement or atomic coordinate data resulting 
# from the CCDC's data processing and validation procedures.
#
#######################################################################

data_WOQCUB02
_symmetry_cell_setting           triclinic
_symmetry_space_group_name_H-M   'P -1'
_symmetry_Int_Tables_number      2
_space_group_name_Hall           '-P 1'
loop_
_symmetry_equiv_pos_site_id
_symmetry_equiv_pos_as_xyz
1 x,y,z
2 -x,-y,-z
_cell_length_a                   7.9060(16)
_cell_length_b                   8.4425(17)
_cell_length_c                   14.969(3)
_cell_angle_alpha                86.58(3)
_cell_angle_beta                 75.98(3)
_cell_angle_gamma                80.17(3)
_cell_volume                     954.958
loop_
_atom_site_label
_atom_site_type_symbol
_atom_site_fract_x
_atom_site_fract_y
_atom_site_fract_z
Fe1 Fe 0.5000 0.5000 0.5000
N1 N 0.2497(5) 0.6029(4) 0.5932(2)
N2 N 0.5783(5) 0.3650(5) 0.6144(3)
N3 N 0.3884(5) 0.2985(4) 0.4631(2)
C1 C 0.1673(6) 0.7519(5) 0.5830(3)
C2 C 0.1707(7) 0.5632(6) 0.6810(3)
C3 C 0.6431(6) 0.3557(5) 0.6767(3)
N4 N 0.0478(4) 0.7988(4) 0.6602(2)
H1 H 0.1900 0.8145 0.5296
N5 N 0.0483(5) 0.6773(5) 0.7244(3)
H2 H 0.2007 0.4638 0.7083
S1 S 0.7356(2) 0.35106(17) 0.76544(10)
C4 C -0.0698(5) 0.9531(5) 0.6799(3)
C5 C -0.2631(5) 0.9342(5) 0.6984(3)
H3 H -0.0429 1.0264 0.6279
H4 H -0.0489 0.9996 0.7332
N6 N -0.3012(4) 0.8608(4) 0.6205(2)
H5 H -0.3364 1.0388 0.7098
H6 H -0.2924 0.8675 0.7533
N7 N -0.2564(6) 0.9195(5) 0.5324(3)
C6 C -0.3779(6) 0.7325(5) 0.6209(3)
C7 C -0.3132(7) 0.8199(6) 0.4851(3)
H7 H -0.4190 0.6723 0.6733
H8 H -0.3023 0.8305 0.4218
N2A N 0.4217(5) 0.6350(5) 0.3856(3)
N1A N 0.7503(5) 0.3971(4) 0.4068(2)
N3A N 0.6116(5) 0.7015(4) 0.5369(2)
C3A C 0.3569(6) 0.6443(5) 0.3233(3)
C1A C 0.8327(6) 0.2481(5) 0.4170(3)
C2A C 0.8293(7) 0.4368(6) 0.3190(3)
S1A S 0.2644(2) 0.64894(17) 0.23456(10)
N4A N 0.9522(4) 0.2012(4) 0.3398(2)
H1A H 0.8100 0.1855 0.4704
N5A N 0.9517(5) 0.3227(5) 0.2756(3)
H2A H 0.7993 0.5362 0.2917
C4A C 1.0698(5) 0.0469(5) 0.3201(3)
C5A C 1.2631(5) 0.0658(5) 0.3016(3)
H4A H 1.0489 0.0004 0.2668
H3A H 1.0429 -0.0264 0.3721
H6A H 1.2924 0.1325 0.2467
H5A H 1.3364 -0.0388 0.2902
N6A N 1.3012(4) 0.1392(4) 0.3795(2)
N7A N 1.2564(6) 0.0805(5) 0.4676(3)
C6A C 1.3779(6) 0.2675(5) 0.3791(3)
N3A_2 N -0.3884(5) 0.7015(4) 0.5369(2)
C7A C 1.3132(7) 0.1801(6) 0.5149(3)
N3_2 N 1.3884(5) 0.2985(4) 0.4631(2)
H7A H 1.4190 0.3277 0.3267
Fe1_2 Fe -0.5000 0.5000 0.5000
H8A H 1.3023 0.1695 0.5782
Fe1_3 Fe 1.5000 0.5000 0.5000
Fe2 Fe 1.0000 0.5000 0.0000
S2 S 0.74211(18) 0.93946(17) 0.21131(10)
O1 O 0.8667(4) 0.6569(4) -0.08943(19)
H9 H 0.9234 0.6451 -0.1429
N8 N 0.7884(4) 0.3429(4) 0.0253(2)
N9 N 0.5117(5) 0.2823(4) 0.0639(3)
N10 N 0.6221(4) 0.1718(4) 0.0035(2)
N11 N 0.8499(5) 0.6539(5) 0.1109(3)
C8 C 0.8052(5) 0.7709(6) 0.1526(3)
C9 C 0.7845(6) 0.2112(5) -0.0177(3)
H10 H 0.8817 0.1538 -0.0574
C10 C 0.6188(6) 0.3802(5) 0.0747(3)
H11 H 0.5809 0.4681 0.1132
C11 C 0.5547(6) 0.0470(6) -0.0367(3)
H12 H 0.6534 -0.0256 -0.0721
H13 H 0.4835 0.0974 -0.0782
N8A N 0.2116(4) -0.3429(4) -0.0253(2)
N9A N 0.4883(5) -0.2823(4) -0.0639(3)
N10A N 0.3779(4) -0.1718(4) -0.0035(2)
C9A C 0.2155(6) -0.2112(5) 0.0177(3)
H10A H 0.1183 -0.1538 0.0574
C10A C 0.3812(6) -0.3802(5) -0.0747(3)
H11A H 0.4191 -0.4681 -0.1132
C11A C 0.4453(6) -0.0470(6) 0.0367(3)
H12A H 0.3466 0.0256 0.0721
H13A H 0.5165 -0.0974 0.0782
S2A S 1.25789(18) 0.06054(17) -0.21131(10)
N11A N 1.1501(5) 0.3461(5) -0.1109(3)
C8A C 1.1948(5) 0.2291(6) -0.1526(3)
O1A O 1.1333(4) 0.3431(4) 0.08943(19)
H9A H 1.0766 0.3549 0.1429
Fe2_2 Fe 0.0000 -0.5000 0.0000
N8A_2 N 1.2116(4) 0.6571(4) -0.0253(2)
loop_
_geom_bond_atom_site_label_1
_geom_bond_atom_site_label_2
_geom_bond_site_symmetry_1
_geom_bond_site_symmetry_2
Fe1 N1 1_555 1_555
N1 C1 1_555 1_555
N2 Fe1 1_555 1_555
N3 Fe1 1_555 1_555
C1 N4 1_555 1_555
C2 N1 1_555 1_555
C3 N2 1_555 1_555
N4 N5 1_555 1_555
H1 C1 1_555 1_555
N5 C2 1_555 1_555
H2 C2 1_555 1_555
S1 C3 1_555 1_555
C4 N4 1_555 1_555
C5 C4 1_555 1_555
H3 C4 1_555 1_555
H4 C4 1_555 1_555
N6 C5 1_555 1_555
H5 C5 1_555 1_555
H6 C5 1_555 1_555
N7 N6 1_555 1_555
C6 N6 1_555 1_555
C7 N7 1_555 1_555
H7 C6 1_555 1_555
H8 C7 1_555 1_555
Fe2 O1 1_555 1_555
S2 C8 1_555 1_555
O1 H9 1_555 1_555
N8 Fe2 1_555 1_555
N9 N10 1_555 1_555
N10 C9 1_555 1_555
N11 Fe2 1_555 1_555
C8 N11 1_555 1_555
C9 N8 1_555 1_555
H10 C9 1_555 1_555
C10 N8 1_555 1_555
H11 C10 1_555 1_555
C11 N10 1_555 1_555
H12 C11 1_555 1_555
H13 C11 1_555 1_555
N2A Fe1 1_555 1_555
N1A Fe1 1_555 1_555
N3A Fe1 1_555 1_555
C3A N2A 1_555 1_555
C1A N1A 1_555 1_555
C2A N1A 1_555 1_555
S1A C3A 1_555 1_555
N4A C1A 1_555 1_555
H1A C1A 1_555 1_555
N5A C2A 1_555 1_555
H2A C2A 1_555 1_555
C4A N4A 1_555 1_555
C5A C4A 1_555 1_555
H4A C4A 1_555 1_555
H3A C4A 1_555 1_555
H6A C5A 1_555 1_555
H5A C5A 1_555 1_555
N6A C5A 1_555 1_555
N7A N6A 1_555 1_555
C6A N6A 1_555 1_555
N3A_2 C6 1_555 1_555
C7A N7A 1_555 1_555
N3_2 C6A 1_555 1_555
H7A C6A 1_555 1_555
Fe1_2 N3A_2 1_555 1_555
H8A C7A 1_555 1_555
Fe1_3 N3_2 1_555 1_555
N8A C9A 1_555 1_555
N9A N10A 1_555 1_555
N10A C9A 1_555 1_555
C9A H10A 1_555 1_555
C10A N8A 1_555 1_555
H11A C10A 1_555 1_555
C11A C11 1_555 1_555
H12A C11A 1_555 1_555
H13A C11A 1_555 1_555
S2A C8A 1_555 1_555
N11A Fe2 1_555 1_555
C8A N11A 1_555 1_555
O1A Fe2 1_555 1_555
H9A O1A 1_555 1_555
Fe2_2 N8A 1_555 1_555
N8A_2 Fe2 1_555 1_555
C7 N3A_2 1_555 1_555
N9 C10 1_555 1_555
N4A N5A 1_555 1_555
C7A N3_2 1_555 1_555
N9A C10A 1_555 1_555
N10A C11A 1_555 1_555

#END
