
#######################################################################
#
#                 Cambridge Crystallographic Data Centre
#                                CCDC 
#
#######################################################################
#
# If this CIF has been generated from an entry in the Cambridge 
# Structural Database, then it will include bibliographic, chemical, 
# crystal, experimental, refinement or atomic coordinate data resulting 
# from the CCDC's data processing and validation procedures.
#
#######################################################################

data_WOQDIQ
_symmetry_cell_setting           monoclinic
_symmetry_space_group_name_H-M   'P 21/c'
_symmetry_Int_Tables_number      14
_space_group_name_Hall           '-P 2ybc'
loop_
_symmetry_equiv_pos_site_id
_symmetry_equiv_pos_as_xyz
1 x,y,z
2 -x,1/2+y,1/2-z
3 -x,-y,-z
4 x,1/2-y,1/2+z
_cell_length_a                   9.8576(19)
_cell_length_b                   17.8098(19)
_cell_length_c                   9.1955(19)
_cell_angle_alpha                90
_cell_angle_beta                 117.477(13)
_cell_angle_gamma                90
_cell_volume                     1432.27
loop_
_atom_site_label
_atom_site_type_symbol
_atom_site_fract_x
_atom_site_fract_y
_atom_site_fract_z
Fe1 Fe 0.50000 0.00000 0.50000
S1 S 1.02875(9) -0.07869(6) 0.72421(11)
N1 N 0.7436(2) -0.01204(15) 0.6225(3)
N2 N 0.5949(3) 0.20614(14) 0.3222(3)
N3 N 0.4610(3) 0.22964(15) 0.3158(3)
N4 N 0.5187(2) 0.11301(14) 0.4186(2)
N5 N 1.4296(2) 0.40763(14) 0.3939(2)
N6 N 1.5843(3) 0.41109(15) 0.4803(3)
N7 N 1.5038(3) 0.45447(14) 0.2240(3)
C1 C 0.8622(3) -0.03930(17) 0.6648(3)
C2 C 0.4201(3) 0.17154(17) 0.3748(3)
C3 C 0.6272(3) 0.13679(17) 0.3829(3)
C4 C 0.6787(3) 0.25207(18) 0.2585(3)
C5 C 1.6238(3) 0.43985(17) 0.3731(3)
C6 C 1.3842(3) 0.43349(17) 0.2430(3)
C7 C 0.8385(3) 0.27047(18) 0.3858(3)
C8 C 0.9232(3) 0.31438(19) 0.3114(3)
C9 C 1.0886(3) 0.32909(19) 0.4307(3)
C10 C 1.1744(3) 0.36606(19) 0.3484(3)
C11 C 1.3412(3) 0.37526(18) 0.4684(3)
H1 H 0.325 0.17068 0.3863
H2 H 0.719 0.1073 0.3990
H3 H 1.720 0.4489 0.3962
H4 H 1.279 0.4365 0.159
H5 H 0.6248 0.2970 0.2165
H6 H 0.6832 0.2264 0.172
H7 H 0.8920 0.2255 0.4324
H8 H 0.8346 0.2991 0.4705
H9 H 0.9186 0.2867 0.218
H10 H 0.8718 0.3621 0.2712
H11 H 1.1409 0.2792 0.4823
H12 H 1.0938 0.3632 0.523
H13 H 1.1646 0.3352 0.256
H14 H 1.1296 0.4153 0.3059
H15 H 1.3499 0.4062 0.555
H16 H 1.3822 0.3282 0.5126
Fe1C Fe 1.50000 0.50000 0.00000
Fe1C_2 Fe -0.50000 0.50000 1.00000
S1B S -0.02875(9) 0.07869(6) 0.27579(11)
N1B N 0.2564(2) 0.01204(15) 0.3775(3)
N2C N -0.4051(3) 0.29386(14) 0.8222(3)
N3C N -0.5390(3) 0.27036(15) 0.8158(3)
N4C N -0.4813(2) 0.38699(14) 0.9186(2)
N4B N 0.4813(2) -0.11301(14) 0.5814(2)
N5C N 0.4296(2) 0.09237(14) 0.8939(2)
N6C N 0.5843(3) 0.08891(15) 0.9803(3)
N7C N 0.5038(3) 0.04553(14) 0.7240(3)
N7A N 0.4962(3) -0.04553(14) 0.2760(3)
C1B C 0.1378(3) 0.03930(17) 0.3352(3)
C2C C -0.5799(3) 0.32846(17) 0.8748(3)
C3C C -0.3728(3) 0.36321(17) 0.8829(3)
C4C C -0.3213(3) 0.24793(18) 0.7585(3)
C5C C 0.6238(3) 0.06015(17) 0.8731(3)
C6C C 0.3842(3) 0.06651(17) 0.7430(3)
C7C C -0.1615(3) 0.22953(18) 0.8858(3)
C8C C -0.0768(3) 0.18562(19) 0.8114(3)
C9C C 0.0886(3) 0.17091(19) 0.9307(3)
C10C C 0.1744(3) 0.13394(19) 0.8484(3)
C11C C 0.3412(3) 0.12474(18) 0.9684(3)
H1C H -0.675 0.32932 0.8863
H2C H -0.281 0.3927 0.8990
H3C H 0.720 0.0511 0.8962
H4C H 0.279 0.0635 0.659
H5C H -0.3752 0.2030 0.7165
H6C H -0.3168 0.2736 0.672
H7C H -0.1080 0.2745 0.9324
H8C H -0.1654 0.2009 0.9705
H9C H -0.0814 0.2133 0.718
H10C H -0.1282 0.1379 0.7712
H11C H 0.1409 0.2208 0.9823
H12C H 0.0938 0.1368 1.023
H13C H 0.1646 0.1648 0.756
H14C H 0.1296 0.0847 0.8059
H15C H 0.3499 0.0938 1.055
H16C H 0.3822 0.1718 1.0126
loop_
_geom_bond_atom_site_label_1
_geom_bond_atom_site_label_2
_geom_bond_site_symmetry_1
_geom_bond_site_symmetry_2
Fe1 N1 1_555 1_555
S1 C1 1_555 1_555
N1 C1 1_555 1_555
N2 N3 1_555 1_555
N3 C2 1_555 1_555
N4 Fe1 1_555 1_555
N5 N6 1_555 1_555
N6 C5 1_555 1_555
N7 C5 1_555 1_555
C2 N4 1_555 1_555
C3 N2 1_555 1_555
C4 N2 1_555 1_555
C5 H3 1_555 1_555
C6 N5 1_555 1_555
C7 C4 1_555 1_555
C8 C7 1_555 1_555
C9 C8 1_555 1_555
C10 C9 1_555 1_555
C11 N5 1_555 1_555
H1 C2 1_555 1_555
H2 C3 1_555 1_555
H4 C6 1_555 1_555
H5 C4 1_555 1_555
H6 C4 1_555 1_555
H7 C7 1_555 1_555
H8 C7 1_555 1_555
H9 C8 1_555 1_555
H10 C8 1_555 1_555
H11 C9 1_555 1_555
H12 C9 1_555 1_555
H13 C10 1_555 1_555
H14 C10 1_555 1_555
H15 C11 1_555 1_555
H16 C11 1_555 1_555
Fe1C N7 1_555 1_555
Fe1C_2 N4C 1_555 1_555
S1B C1B 1_555 1_555
N1B Fe1 1_555 1_555
N2C N3C 1_555 1_555
N3C C2C 1_555 1_555
N4C C2C 1_555 1_555
N4B Fe1 1_555 1_555
N5C N6C 1_555 1_555
N6C C5C 1_555 1_555
N7C Fe1 1_555 1_555
N7A Fe1 1_555 1_555
C1B N1B 1_555 1_555
C2C H1C 1_555 1_555
C3C N2C 1_555 1_555
C4C N2C 1_555 1_555
C5C N7C 1_555 1_555
C6C N5C 1_555 1_555
C7C C4C 1_555 1_555
C8C C7C 1_555 1_555
C9C C8C 1_555 1_555
C10C C9C 1_555 1_555
C11C N5C 1_555 1_555
H2C C3C 1_555 1_555
H3C C5C 1_555 1_555
H4C C6C 1_555 1_555
H5C C4C 1_555 1_555
H6C C4C 1_555 1_555
H7C C7C 1_555 1_555
H8C C7C 1_555 1_555
H9C C8C 1_555 1_555
H10C C8C 1_555 1_555
H11C C9C 1_555 1_555
H12C C9C 1_555 1_555
H13C C10C 1_555 1_555
H14C C10C 1_555 1_555
H15C C11C 1_555 1_555
H16C C11C 1_555 1_555
N4 C3 1_555 1_555
N7 C6 1_555 1_555
C10 C11 1_555 1_555
N4C C3C 1_555 1_555
N7C C6C 1_555 1_555
C10C C11C 1_555 1_555

#END
