
#######################################################################
#
#                 Cambridge Crystallographic Data Centre
#                                CCDC 
#
#######################################################################
#
# If this CIF has been generated from an entry in the Cambridge 
# Structural Database, then it will include bibliographic, chemical, 
# crystal, experimental, refinement or atomic coordinate data resulting 
# from the CCDC's data processing and validation procedures.
#
#######################################################################

data_WOQDOW
_symmetry_cell_setting           triclinic
_symmetry_space_group_name_H-M   'P -1'
_symmetry_Int_Tables_number      2
_space_group_name_Hall           '-P 1'
loop_
_symmetry_equiv_pos_site_id
_symmetry_equiv_pos_as_xyz
1 x,y,z
2 -x,-y,-z
_cell_length_a                   8.2680(7)
_cell_length_b                   8.3656(6)
_cell_length_c                   10.2403(8)
_cell_angle_alpha                67.023(6)
_cell_angle_beta                 76.082(7)
_cell_angle_gamma                77.594(6)
_cell_volume                     627.126
loop_
_atom_site_label
_atom_site_type_symbol
_atom_site_fract_x
_atom_site_fract_y
_atom_site_fract_z
Fe1 Fe 0.50000 0.50000 0.50000
O1 O 0.69692(19) 0.4327(2) 0.62134(16)
N1 N 0.2769(2) 0.0776(2) 0.85926(17)
N2 N 0.1328(2) 0.1900(2) 0.83286(19)
N3 N 0.3576(2) 0.3090(2) 0.68083(17)
N4 N 0.2526(2) -0.2124(2) 0.77581(17)
N5 N 0.2331(3) -0.0746(2) 0.65116(18)
N6 N 0.3800(2) -0.3112(2) 0.60450(17)
C1 C 0.1884(3) 0.3262(3) 0.7257(2)
C2 C 0.4086(3) 0.1496(2) 0.7685(2)
C3 C 0.2694(3) -0.1010(2) 0.9621(2)
C4 C 0.3124(3) -0.1405(3) 0.5518(2)
C5 C 0.3395(3) -0.3507(2) 0.7462(2)
C6 C 0.1739(3) -0.1992(2) 0.9154(2)
H1 H 0.72420 0.50760 0.64330
H2 H 0.78640 0.37090 0.60060
H3 H 0.11810 0.42700 0.68280
H4 H 0.51950 0.09580 0.76570
H5 H 0.21300 -0.09810 1.05610
H6 H 0.38250 -0.16180 0.97080
H7 H 0.32100 -0.07620 0.45360
H8 H 0.36580 -0.46010 0.81480
H9 H 0.16850 -0.31640 0.98670
H10 H 0.05960 -0.14040 0.91060
Fe1_2 Fe 0.50000 -0.50000 0.50000
O1A O 0.30308(19) 0.5673(2) 0.37866(16)
N1A N 0.7231(2) -0.0776(2) 0.14074(17)
N2A N 0.8672(2) -0.1900(2) 0.16714(19)
N3A N 0.6424(2) -0.3090(2) 0.31917(17)
N3A_2 N 0.6424(2) 0.6910(2) 0.31917(17)
N4A N 0.7474(2) 0.2124(2) 0.22419(17)
N5A N 0.7669(3) 0.0746(2) 0.34884(18)
N6A N 0.6200(2) 0.3112(2) 0.39550(17)
N6_2 N 0.3800(2) 0.6888(2) 0.60450(17)
C1A C 0.8116(3) -0.3262(3) 0.2743(2)
C2A C 0.5914(3) -0.1496(2) 0.2315(2)
C3A C 0.7306(3) 0.1010(2) 0.0379(2)
C4A C 0.6876(3) 0.1405(3) 0.4482(2)
C5A C 0.6605(3) 0.3507(2) 0.2538(2)
C6A C 0.8261(3) 0.1992(2) 0.0846(2)
H1A H 0.27580 0.49240 0.35670
H2A H 0.21360 0.62910 0.39940
H3A H 0.88190 -0.42700 0.31720
H4A H 0.48050 -0.09580 0.23430
H5A H 0.78700 0.09810 -0.05610
H6A H 0.61750 0.16180 0.02920
H7A H 0.67900 0.07620 0.54640
H8A H 0.63420 0.46010 0.18520
H9A H 0.83150 0.31640 0.01330
H10A H 0.94040 0.14040 0.08940
Cl1 Cl 0.23197(7) 0.27707(7) 0.18116(5)
O2 O 0.2259(3) 0.0994(3) 0.1963(2)
O3 O 0.3481(4) 0.3558(4) 0.0598(3)
O4 O 0.2854(5) 0.2670(4) 0.3064(3)
O5 O 0.0715(3) 0.3743(3) 0.1742(4)
O6 O -0.0203(2) 0.2405(3) 0.5447(2)
H11 H 0.02720 0.25830 0.45860
H12 H 0.03920 0.15400 0.59510
loop_
_geom_bond_atom_site_label_1
_geom_bond_atom_site_label_2
_geom_bond_site_symmetry_1
_geom_bond_site_symmetry_2
Fe1 O1 1_555 1_555
O1 H1 1_555 1_555
N1 N2 1_555 1_555
N2 C1 1_555 1_555
N3 Fe1 1_555 1_555
N4 N5 1_555 1_555
N5 C4 1_555 1_555
N6 C4 1_555 1_555
C1 N3 1_555 1_555
C2 N1 1_555 1_555
C3 N1 1_555 1_555
C4 H7 1_555 1_555
C5 N4 1_555 1_555
C6 N4 1_555 1_555
Cl1 O2 1_555 1_555
O3 Cl1 1_555 1_555
O4 Cl1 1_555 1_555
O5 Cl1 1_555 1_555
O6 H11 1_555 1_555
H2 O1 1_555 1_555
H3 C1 1_555 1_555
H4 C2 1_555 1_555
H5 C3 1_555 1_555
H6 C3 1_555 1_555
H8 C5 1_555 1_555
H9 C6 1_555 1_555
H10 C6 1_555 1_555
H12 O6 1_555 1_555
Fe1_2 N6 1_555 1_555
O1A Fe1 1_555 1_555
N1A N2A 1_555 1_555
N2A C1A 1_555 1_555
N3A Fe1_2 1_555 1_555
N3A_2 Fe1 1_555 1_555
N4A N5A 1_555 1_555
N5A C4A 1_555 1_555
N6A Fe1 1_555 1_555
N6_2 Fe1 1_555 1_555
C1A N3A 1_555 1_555
C2A N1A 1_555 1_555
C3A N1A 1_555 1_555
C4A N6A 1_555 1_555
C5A N4A 1_555 1_555
C6A N4A 1_555 1_555
H1A O1A 1_555 1_555
H2A O1A 1_555 1_555
H3A C1A 1_555 1_555
H4A C2A 1_555 1_555
H5A C3A 1_555 1_555
H6A C3A 1_555 1_555
H7A C4A 1_555 1_555
H8A C5A 1_555 1_555
H9A C6A 1_555 1_555
H10A C6A 1_555 1_555
N3 C2 1_555 1_555
N6 C5 1_555 1_555
C3 C6 1_555 1_555
N3A C2A 1_555 1_555
N6A C5A 1_555 1_555
C3A C6A 1_555 1_555

#END
