
#######################################################################
#
#                 Cambridge Crystallographic Data Centre
#                                CCDC 
#
#######################################################################
#
# If this CIF has been generated from an entry in the Cambridge 
# Structural Database, then it will include bibliographic, chemical, 
# crystal, experimental, refinement or atomic coordinate data resulting 
# from the CCDC's data processing and validation procedures.
#
#######################################################################

data_WOQDIQ01
_symmetry_cell_setting           monoclinic
_symmetry_space_group_name_H-M   'P 21/c'
_symmetry_Int_Tables_number      14
_space_group_name_Hall           '-P 2ybc'
loop_
_symmetry_equiv_pos_site_id
_symmetry_equiv_pos_as_xyz
1 x,y,z
2 -x,1/2+y,1/2-z
3 -x,-y,-z
4 x,1/2-y,1/2+z
_cell_length_a                   9.919(11)
_cell_length_b                   17.879(18)
_cell_length_c                   9.209(11)
_cell_angle_alpha                90
_cell_angle_beta                 117.479(19)
_cell_angle_gamma                90
_cell_volume                     1448.89
loop_
_atom_site_label
_atom_site_type_symbol
_atom_site_fract_x
_atom_site_fract_y
_atom_site_fract_z
Fe1 Fe 0.5000 0.0000 1.0000
S1 S -0.02954(13) 0.07845(7) 0.77550(16)
N1 N 0.2562(3) 0.01198(17) 0.8767(4)
N2 N 0.4962(3) -0.04566(16) 0.7759(4)
N3 N 0.5709(3) -0.09225(16) 0.6052(4)
N4 N 0.4162(4) -0.08938(17) 0.5196(4)
N5 N 1.4050(4) -0.29350(17) 0.6771(4)
N6 N 1.5387(4) -0.26973(17) 0.6837(4)
N7 N 1.4823(3) -0.38706(16) 0.5817(3)
C1 C 0.1364(5) 0.0394(2) 0.8338(4)
C2 C 1.3736(4) -0.3631(2) 0.6174(4)
H1 H 1.2888 -0.3907 0.6029
C3 C 0.6172(4) -0.0665(2) 0.7572(5)
H2 H 0.7179 -0.0635 0.8375
C4 C 1.5799(4) -0.3285(2) 0.6239(4)
H3 H 1.6682 -0.3291 0.6123
C5 C 0.6598(4) -0.1251(2) 0.5317(5)
H4 H 0.6509 -0.0936 0.4418
H5 H 0.6177 -0.1737 0.4868
C6 C 1.1618(4) -0.2295(2) 0.6130(4)
H6 H 1.1077 -0.2754 0.5642
H7 H 1.1663 -0.1998 0.5272
C7 C 0.8260(4) -0.1343(2) 0.6511(5)
H8 H 0.8358 -0.1646 0.7428
H9 H 0.8700 -0.0856 0.6930
C8 C 0.9127(5) -0.1714(2) 0.5692(5)
H10 H 0.8636 -0.2183 0.5203
H11 H 0.9082 -0.1392 0.4822
C9 C 1.3214(4) -0.2480(2) 0.7416(4)
H12 H 1.3766 -0.2018 0.7858
H13 H 1.3164 -0.2748 0.8306
C10 C 0.3768(4) -0.0601(2) 0.6268(4)
H14 H 0.2765 -0.0502 0.6023
C11 C 1.0757(4) -0.1862(2) 0.6873(5)
H15 H 1.0798 -0.2142 0.7794
H16 H 1.1265 -0.1387 0.7287
S1B S 1.02954(13) -0.07845(7) 1.22450(16)
N1B N 0.7438(3) -0.01198(17) 1.1233(4)
N2B N 0.5038(3) 0.04566(16) 1.2241(4)
N3B N 0.4291(3) 0.09225(16) 1.3948(4)
N4B N 0.5838(4) 0.08938(17) 1.4804(4)
N5B N -0.4050(4) 0.29350(17) 1.3229(4)
N6B N -0.5387(4) 0.26973(17) 1.3163(4)
N7B N -0.4823(3) 0.38706(16) 1.4183(3)
C1B C 0.8636(5) -0.0394(2) 1.1662(4)
C2B C -0.3736(4) 0.3631(2) 1.3826(4)
H1B H -0.2888 0.3907 1.3971
C3B C 0.3828(4) 0.0665(2) 1.2428(5)
H2B H 0.2821 0.0635 1.1625
C4B C -0.5799(4) 0.3285(2) 1.3761(4)
H3B H -0.6682 0.3291 1.3877
C5B C 0.3402(4) 0.1251(2) 1.4683(5)
H4B H 0.3491 0.0936 1.5582
H5B H 0.3823 0.1737 1.5132
C6B C -0.1618(4) 0.2295(2) 1.3870(4)
H6B H -0.1077 0.2754 1.4358
H7B H -0.1663 0.1998 1.4728
C7B C 0.1740(4) 0.1343(2) 1.3489(5)
H8B H 0.1642 0.1646 1.2572
H9B H 0.1300 0.0856 1.3070
C8B C 0.0873(5) 0.1714(2) 1.4308(5)
H10B H 0.1364 0.2183 1.4797
H11B H 0.0918 0.1392 1.5178
C9B C -0.3214(4) 0.2480(2) 1.2584(4)
H12B H -0.3766 0.2018 1.2142
H13B H -0.3164 0.2748 1.1694
C10B C 0.6232(4) 0.0601(2) 1.3732(4)
H14B H 0.7235 0.0502 1.3977
C11B C -0.0757(4) 0.1862(2) 1.3127(5)
H15B H -0.0798 0.2142 1.2206
H16B H -0.1265 0.1387 1.2713
Fe1A Fe -0.5000 0.5000 1.5000
Fe1A_2 Fe 1.5000 -0.5000 0.5000
N7A N 0.5177(3) 0.11294(16) 0.9183(3)
N7C N 0.4823(3) -0.11294(16) 1.0817(3)
loop_
_geom_bond_atom_site_label_1
_geom_bond_atom_site_label_2
_geom_bond_site_symmetry_1
_geom_bond_site_symmetry_2
Fe1 N1 1_555 1_555
S1 C1 1_555 1_555
N1 C1 1_555 1_555
N2 Fe1 1_555 1_555
N3 N4 1_555 1_555
N4 C10 1_555 1_555
N5 N6 1_555 1_555
N6 C4 1_555 1_555
N7 C2 1_555 1_555
C2 N5 1_555 1_555
H1 C2 1_555 1_555
C3 N2 1_555 1_555
H2 C3 1_555 1_555
C4 N7 1_555 1_555
H3 C4 1_555 1_555
C5 N3 1_555 1_555
H4 C5 1_555 1_555
H5 C5 1_555 1_555
C6 H6 1_555 1_555
H7 C6 1_555 1_555
C7 C5 1_555 1_555
H8 C7 1_555 1_555
H9 C7 1_555 1_555
C8 C7 1_555 1_555
H10 C8 1_555 1_555
H11 C8 1_555 1_555
C9 N5 1_555 1_555
H12 C9 1_555 1_555
H13 C9 1_555 1_555
C10 N2 1_555 1_555
H14 C10 1_555 1_555
C11 C6 1_555 1_555
H15 C11 1_555 1_555
H16 C11 1_555 1_555
S1B C1B 1_555 1_555
N1B Fe1 1_555 1_555
N2B Fe1 1_555 1_555
N3B N4B 1_555 1_555
N4B C10B 1_555 1_555
N5B N6B 1_555 1_555
N6B C4B 1_555 1_555
N7B C2B 1_555 1_555
C1B N1B 1_555 1_555
C2B N5B 1_555 1_555
H1B C2B 1_555 1_555
C3B N2B 1_555 1_555
H2B C3B 1_555 1_555
C4B N7B 1_555 1_555
H3B C4B 1_555 1_555
C5B N3B 1_555 1_555
H4B C5B 1_555 1_555
H5B C5B 1_555 1_555
C6B H6B 1_555 1_555
H7B C6B 1_555 1_555
C7B C5B 1_555 1_555
H8B C7B 1_555 1_555
H9B C7B 1_555 1_555
C8B C7B 1_555 1_555
H10B C8B 1_555 1_555
H11B C8B 1_555 1_555
C9B N5B 1_555 1_555
H12B C9B 1_555 1_555
H13B C9B 1_555 1_555
C10B N2B 1_555 1_555
H14B C10B 1_555 1_555
C11B C6B 1_555 1_555
H15B C11B 1_555 1_555
H16B C11B 1_555 1_555
Fe1A N7B 1_555 1_555
Fe1A_2 N7 1_555 1_555
N7A Fe1 1_555 1_555
N7C Fe1 1_555 1_555
N3 C3 1_555 1_555
C6 C9 1_555 1_555
C8 C11 1_555 1_555
N3B C3B 1_555 1_555
C6B C9B 1_555 1_555
C8B C11B 1_555 1_555

#END
