
#######################################################################
#
#                 Cambridge Crystallographic Data Centre
#                                CCDC 
#
#######################################################################
#
# If this CIF has been generated from an entry in the Cambridge 
# Structural Database, then it will include bibliographic, chemical, 
# crystal, experimental, refinement or atomic coordinate data resulting 
# from the CCDC's data processing and validation procedures.
#
#######################################################################

data_WOQJES03
_symmetry_cell_setting           orthorhombic
_symmetry_space_group_name_H-M   'P b c a'
_symmetry_Int_Tables_number      61
_space_group_name_Hall           '-P 2ac 2ab'
loop_
_symmetry_equiv_pos_site_id
_symmetry_equiv_pos_as_xyz
1 x,y,z
2 1/2-x,-y,1/2+z
3 -x,1/2+y,1/2-z
4 1/2+x,1/2-y,-z
5 -x,-y,-z
6 1/2+x,y,1/2-z
7 x,1/2-y,1/2+z
8 1/2-x,1/2+y,z
_cell_length_a                   7.0723(4)
_cell_length_b                   6.9258(4)
_cell_length_c                   22.3497(13)
_cell_angle_alpha                90
_cell_angle_beta                 90
_cell_angle_gamma                90
_cell_volume                     1094.72
loop_
_atom_site_label
_atom_site_type_symbol
_atom_site_fract_x
_atom_site_fract_y
_atom_site_fract_z
Zn1 Zn -0.09921(6) 0.29335(6) 0.290363(18)
Te1 Te -0.05292(3) -0.07982(3) 0.309284(9)
N1 N 0.0447(5) 0.4251(5) 0.36138(14)
H1 H 0.033(8) 0.548(8) 0.356(2)
H2 H 0.161(8) 0.406(7) 0.364(2)
C1 C -0.0295(7) 0.3872(7) 0.42122(17)
H3 H -0.157(9) 0.403(8) 0.420(3)
H4 H -0.021(10) 0.246(10) 0.430(3)
C2 C 0.0474(7) 0.5167(8) 0.47020(19)
H5 H 0.187(9) 0.502(9) 0.471(3)
H6 H 0.023(9) 0.634(9) 0.458(3)
Zn1D Zn 0.09921(6) 0.70665(6) 0.709637(18)
Zn1B Zn 0.09921(6) -0.20665(6) 0.209637(18)
Zn1C Zn 0.40079(6) 1.20665(6) 0.709637(18)
Zn1F Zn -0.09921(6) 1.20665(6) 0.790363(18)
Zn1G Zn -0.40079(6) -0.20665(6) 0.290363(18)
Te1D Te 0.05292(3) 1.07982(3) 0.690716(9)
Te1B Te 0.05292(3) 0.42018(3) 0.190716(9)
Te1C Te 0.44708(3) 0.57982(3) 0.690716(9)
Te1F Te -0.05292(3) 0.57982(3) 0.809284(9)
Te1G Te -0.44708(3) 0.42018(3) 0.309284(9)
N1D N -0.0447(5) 0.5749(5) 0.63862(14)
H1D H -0.033(8) 0.452(8) 0.644(2)
H2D H -0.161(8) 0.594(7) 0.636(2)
C1D C 0.0295(7) 0.6128(7) 0.57878(17)
H3D H 0.157(9) 0.597(8) 0.580(3)
H4D H 0.021(10) 0.754(10) 0.570(3)
C2D C -0.0474(7) 0.4833(8) 0.52980(19)
H5D H -0.187(9) 0.498(9) 0.529(3)
H6D H -0.023(9) 0.366(9) 0.542(3)
loop_
_geom_bond_atom_site_label_1
_geom_bond_atom_site_label_2
_geom_bond_site_symmetry_1
_geom_bond_site_symmetry_2
Zn1 Te1 1_555 1_555
Te1 Zn1B 1_555 1_555
N1 Zn1 1_555 1_555
H1 N1 1_555 1_555
H2 N1 1_555 1_555
C1 N1 1_555 1_555
H3 C1 1_555 1_555
H4 C1 1_555 1_555
C2 C1 1_555 1_555
H5 C2 1_555 1_555
H6 C2 1_555 1_555
Zn1D Te1D 1_555 1_555
Zn1C Te1D 1_555 1_555
Zn1F Te1D 1_555 1_555
Zn1G Te1 1_555 1_555
Te1B Zn1 1_555 1_555
Te1C Zn1D 1_555 1_555
Te1F Zn1D 1_555 1_555
Te1G Zn1 1_555 1_555
N1D Zn1D 1_555 1_555
H1D N1D 1_555 1_555
H2D N1D 1_555 1_555
C1D N1D 1_555 1_555
H3D C1D 1_555 1_555
H4D C1D 1_555 1_555
C2D C2 1_555 1_555
H5D C2D 1_555 1_555
H6D C2D 1_555 1_555
C1D C2D 1_555 1_555

#END
