
#######################################################################
#
#                 Cambridge Crystallographic Data Centre
#                                CCDC 
#
#######################################################################
#
# If this CIF has been generated from an entry in the Cambridge 
# Structural Database, then it will include bibliographic, chemical, 
# crystal, experimental, refinement or atomic coordinate data resulting 
# from the CCDC's data processing and validation procedures.
#
#######################################################################

data_WOQJIW04
_symmetry_cell_setting           orthorhombic
_symmetry_space_group_name_H-M   'C m c 21'
_symmetry_Int_Tables_number      36
_space_group_name_Hall           'C 2n -2'
loop_
_symmetry_equiv_pos_site_id
_symmetry_equiv_pos_as_xyz
1 x,y,z
2 -x,-y,1/2+z
3 x,-y,1/2+z
4 -x,y,z
5 1/2+x,1/2+y,z
6 1/2-x,1/2-y,1/2+z
7 1/2+x,1/2-y,1/2+z
8 1/2-x,1/2+y,z
_cell_length_a                   25.298(4)
_cell_length_b                   7.0388(12)
_cell_length_c                   6.8810(11)
_cell_angle_alpha                90
_cell_angle_beta                 90
_cell_angle_gamma                90
_cell_volume                     1225.28
loop_
_atom_site_label
_atom_site_type_symbol
_atom_site_fract_x
_atom_site_fract_y
_atom_site_fract_z
Zn1 Zn -0.285655(18) 0.34431(6) -0.12637(8)
Te1 Te -0.197188(9) 0.19448(3) -0.25006(6)
N1 N -0.34910(13) 0.1991(4) -0.2538(9)
H1 H -0.352(3) 0.203(8) -0.389(11)
H2 H -0.360(3) 0.098(12) -0.238(16)
C1 C -0.40152(18) 0.2628(6) -0.1843(6)
H3 H -0.406(3) 0.394(8) -0.211(8)
H4 H -0.397(3) 0.230(9) -0.030(10)
C2 C -0.44933(18) 0.1721(6) -0.2826(6)
H5 H -0.446(4) 0.217(11) -0.434(14)
H6 H -0.4461(19) 0.030(7) -0.270(9)
C3 C -0.5000 0.2485(11) -0.1957(11)
H7 H -0.5000 0.29(3) -0.07(3)
H8 H -0.5000 0.367(14) -0.24(2)
Zn1C Zn -0.714345(18) 0.34431(6) -0.12637(8)
Zn1D Zn -0.785655(18) -0.15569(6) -0.12637(8)
Zn1E Zn -0.214345(18) 0.15569(6) -0.62637(8)
Zn1F Zn -0.785655(18) 0.15569(6) -0.62637(8)
Zn1G Zn -0.214345(18) -0.15569(6) -0.12637(8)
Te1C Te -0.802812(9) 0.19448(3) -0.25006(6)
Te1D Te -0.697188(9) 0.69448(3) -0.25006(6)
Te1E Te -0.302812(9) 0.30552(3) 0.24994(6)
Te1F Te -0.697188(9) 0.30552(3) 0.24994(6)
Te1G Te -0.302812(9) 0.69448(3) -0.25006(6)
N1C N -0.65090(13) 0.1991(4) -0.2538(9)
H1C H -0.648(3) 0.203(8) -0.389(11)
H2C H -0.640(3) 0.098(12) -0.238(16)
C1C C -0.59848(18) 0.2628(6) -0.1843(6)
H3C H -0.594(3) 0.394(8) -0.211(8)
H4C H -0.603(3) 0.230(9) -0.030(10)
C2C C -0.55067(18) 0.1721(6) -0.2826(6)
H5C H -0.554(4) 0.217(11) -0.434(14)
H6C H -0.5539(19) 0.030(7) -0.270(9)
loop_
_geom_bond_atom_site_label_1
_geom_bond_atom_site_label_2
_geom_bond_site_symmetry_1
_geom_bond_site_symmetry_2
Zn1 Te1 1_555 1_555
Te1 Zn1E 1_555 1_555
N1 Zn1 1_555 1_555
H1 N1 1_555 1_555
H2 N1 1_555 1_555
C1 N1 1_555 1_555
H3 C1 1_555 1_555
H4 C1 1_555 1_555
C2 C1 1_555 1_555
H5 C2 1_555 1_555
H6 C2 1_555 1_555
C3 C2 1_555 1_555
H7 C3 1_555 1_555
H8 C3 1_555 1_555
Zn1C Te1C 1_555 1_555
Zn1D Te1C 1_555 1_555
Zn1F Te1C 1_555 1_555
Zn1G Te1 1_555 1_555
Te1D Zn1C 1_555 1_555
Te1E Zn1 1_555 1_555
Te1F Zn1C 1_555 1_555
Te1G Zn1 1_555 1_555
N1C Zn1C 1_555 1_555
H1C N1C 1_555 1_555
H2C N1C 1_555 1_555
C1C N1C 1_555 1_555
H3C C1C 1_555 1_555
H4C C1C 1_555 1_555
C2C C3 1_555 1_555
H5C C2C 1_555 1_555
H6C C2C 1_555 1_555
C1C C2C 1_555 1_555

#END
