
#######################################################################
#
#                 Cambridge Crystallographic Data Centre
#                                CCDC 
#
#######################################################################
#
# If this CIF has been generated from an entry in the Cambridge 
# Structural Database, then it will include bibliographic, chemical, 
# crystal, experimental, refinement or atomic coordinate data resulting 
# from the CCDC's data processing and validation procedures.
#
#######################################################################

data_WOQJES04
_symmetry_cell_setting           orthorhombic
_symmetry_space_group_name_H-M   'P b c a'
_symmetry_Int_Tables_number      61
_space_group_name_Hall           '-P 2ac 2ab'
loop_
_symmetry_equiv_pos_site_id
_symmetry_equiv_pos_as_xyz
1 x,y,z
2 1/2-x,-y,1/2+z
3 -x,1/2+y,1/2-z
4 1/2+x,1/2-y,-z
5 -x,-y,-z
6 1/2+x,y,1/2-z
7 x,1/2-y,1/2+z
8 1/2-x,1/2+y,z
_cell_length_a                   7.0996(4)
_cell_length_b                   6.9439(4)
_cell_length_c                   20.4912(11)
_cell_angle_alpha                90
_cell_angle_beta                 90
_cell_angle_gamma                90
_cell_volume                     1010.19
loop_
_atom_site_label
_atom_site_type_symbol
_atom_site_fract_x
_atom_site_fract_y
_atom_site_fract_z
Zn1 Zn -0.09299(7) 0.25197(7) 0.29319(2)
Te1 Te -0.05961(3) -0.12175(4) 0.314747(13)
N1 N 0.0491(5) 0.3817(5) 0.37177(18)
H1 H 0.012(11) 0.502(12) 0.373(4)
H2 H 0.171(10) 0.379(10) 0.372(3)
C1 C 0.0040(7) 0.2923(6) 0.4354(2)
H3 H -0.131(10) 0.263(9) 0.434(3)
H4 H 0.073(9) 0.162(10) 0.432(3)
C2 C 0.0589(6) 0.4099(6) 0.4960(2)
H5 H 0.043(9) 0.327(9) 0.534(3)
H6 H 0.200(9) 0.444(8) 0.494(3)
Zn1D Zn 0.09299(7) 0.74803(7) 0.70681(2)
Zn1B Zn 0.09299(7) -0.24803(7) 0.20681(2)
Zn1C Zn 0.40701(7) 1.24803(7) 0.70681(2)
Zn1F Zn -0.09299(7) 1.24803(7) 0.79319(2)
Zn1G Zn -0.40701(7) -0.24803(7) 0.29319(2)
Te1D Te 0.05961(3) 1.12175(4) 0.685253(13)
Te1B Te 0.05961(3) 0.37825(4) 0.185253(13)
Te1C Te 0.44039(3) 0.62175(4) 0.685253(13)
Te1F Te -0.05961(3) 0.62175(4) 0.814747(13)
Te1G Te -0.44039(3) 0.37825(4) 0.314747(13)
N1D N -0.0491(5) 0.6183(5) 0.62823(18)
H1D H -0.012(11) 0.498(12) 0.627(4)
H2D H -0.171(10) 0.621(10) 0.628(3)
C1D C -0.0040(7) 0.7077(6) 0.5646(2)
H3D H 0.131(10) 0.737(9) 0.566(3)
H4D H -0.073(9) 0.838(10) 0.568(3)
C2D C -0.0589(6) 0.5901(6) 0.5040(2)
H5D H -0.043(9) 0.673(9) 0.466(3)
H6D H -0.200(9) 0.556(8) 0.506(3)
loop_
_geom_bond_atom_site_label_1
_geom_bond_atom_site_label_2
_geom_bond_site_symmetry_1
_geom_bond_site_symmetry_2
Zn1 Te1 1_555 1_555
Te1 Zn1B 1_555 1_555
N1 Zn1 1_555 1_555
H1 N1 1_555 1_555
H2 N1 1_555 1_555
C1 N1 1_555 1_555
H3 C1 1_555 1_555
H4 C1 1_555 1_555
C2 C1 1_555 1_555
H5 C2 1_555 1_555
H6 C2 1_555 1_555
Zn1D Te1D 1_555 1_555
Zn1C Te1D 1_555 1_555
Zn1F Te1D 1_555 1_555
Zn1G Te1 1_555 1_555
Te1B Zn1 1_555 1_555
Te1C Zn1D 1_555 1_555
Te1F Zn1D 1_555 1_555
Te1G Zn1 1_555 1_555
N1D Zn1D 1_555 1_555
H1D N1D 1_555 1_555
H2D N1D 1_555 1_555
C1D N1D 1_555 1_555
H3D C1D 1_555 1_555
H4D C1D 1_555 1_555
C2D C2 1_555 1_555
H5D C2D 1_555 1_555
H6D C2D 1_555 1_555
C1D C2D 1_555 1_555

#END
