
#######################################################################
#
#                 Cambridge Crystallographic Data Centre
#                                CCDC 
#
#######################################################################
#
# If this CIF has been generated from an entry in the Cambridge 
# Structural Database, then it will include bibliographic, chemical, 
# crystal, experimental, refinement or atomic coordinate data resulting 
# from the CCDC's data processing and validation procedures.
#
#######################################################################

data_WOQJIW03
_symmetry_cell_setting           orthorhombic
_symmetry_space_group_name_H-M   'C m c 21'
_symmetry_Int_Tables_number      36
_space_group_name_Hall           'C 2n -2'
loop_
_symmetry_equiv_pos_site_id
_symmetry_equiv_pos_as_xyz
1 x,y,z
2 -x,-y,1/2+z
3 x,-y,1/2+z
4 -x,y,z
5 1/2+x,1/2+y,z
6 1/2-x,1/2-y,1/2+z
7 1/2+x,1/2-y,1/2+z
8 1/2-x,1/2+y,z
_cell_length_a                   25.2760(17)
_cell_length_b                   7.0590(5)
_cell_length_c                   6.9005(5)
_cell_angle_alpha                90
_cell_angle_beta                 90
_cell_angle_gamma                90
_cell_volume                     1231.21
loop_
_atom_site_label
_atom_site_type_symbol
_atom_site_fract_x
_atom_site_fract_y
_atom_site_fract_z
Zn1 Zn 0.21438(2) 0.15411(8) 0.24132(11)
Te1 Te 0.197273(10) 0.19519(4) 0.61706(8)
N1 N 0.15047(16) 0.2983(5) 0.1160(11)
H1 H 0.153(3) 0.273(12) -0.007(3)
H2 H 0.150(4) 0.419(4) 0.141(18)
C1 C 0.0988(2) 0.2338(11) 0.1802(10)
H3 H 0.0962 0.2570 0.3184
H4 H 0.0971 0.0977 0.1613
C2 C 0.0509(2) 0.3216(9) 0.0834(10)
H5 H 0.0521 0.2961 -0.0547
H6 H 0.0516 0.4578 0.1016
C3 C 0.0000 0.242(2) 0.1679(17)
H7 H 0.0000 0.2648 0.3064
H8 H 0.0000 0.1055 0.1489
Zn1C Zn -0.21438(2) 0.15411(8) 0.24132(11)
Zn1A Zn -0.21438(2) -0.15411(8) 0.74132(11)
Zn1B Zn 0.21438(2) -0.15411(8) 0.74132(11)
Zn1E Zn 0.28562(2) 0.34589(8) 0.74132(11)
Zn1F Zn -0.28562(2) 0.34589(8) 0.74132(11)
Te1C Te -0.197273(10) 0.19519(4) 0.61706(8)
Te1A Te -0.197273(10) -0.19519(4) 0.11706(8)
Te1B Te 0.197273(10) -0.19519(4) 0.11706(8)
Te1E Te 0.302727(10) 0.30481(4) 0.11706(8)
Te1F Te -0.302727(10) 0.30481(4) 0.11706(8)
N1C N -0.15047(16) 0.2983(5) 0.1160(11)
H1C H -0.153(3) 0.273(12) -0.007(3)
H2C H -0.150(4) 0.419(4) 0.141(18)
C1C C -0.0988(2) 0.2338(11) 0.1802(10)
H3C H -0.0962 0.2570 0.3184
H4C H -0.0971 0.0977 0.1613
C2C C -0.0509(2) 0.3216(9) 0.0834(10)
H5C H -0.0521 0.2961 -0.0547
H6C H -0.0516 0.4578 0.1016
loop_
_geom_bond_atom_site_label_1
_geom_bond_atom_site_label_2
_geom_bond_site_symmetry_1
_geom_bond_site_symmetry_2
Zn1 Te1 1_555 1_555
Te1 Zn1B 1_555 1_555
N1 Zn1 1_555 1_555
H1 N1 1_555 1_555
H2 N1 1_555 1_555
C1 N1 1_555 1_555
H3 C1 1_555 1_555
H4 C1 1_555 1_555
C2 C1 1_555 1_555
H5 C2 1_555 1_555
H6 C2 1_555 1_555
C3 C2 1_555 1_555
H7 C3 1_555 1_555
H8 C3 1_555 1_555
Zn1C Te1C 1_555 1_555
Zn1A Te1C 1_555 1_555
Zn1E Te1 1_555 1_555
Zn1F Te1C 1_555 1_555
Te1A Zn1C 1_555 1_555
Te1B Zn1 1_555 1_555
Te1E Zn1 1_555 1_555
Te1F Zn1C 1_555 1_555
N1C Zn1C 1_555 1_555
H1C N1C 1_555 1_555
H2C N1C 1_555 1_555
C1C N1C 1_555 1_555
H3C C1C 1_555 1_555
H4C C1C 1_555 1_555
C2C C3 1_555 1_555
H5C C2C 1_555 1_555
H6C C2C 1_555 1_555
C1C C2C 1_555 1_555

#END
