
#######################################################################
#
#                 Cambridge Crystallographic Data Centre
#                                CCDC 
#
#######################################################################
#
# If this CIF has been generated from an entry in the Cambridge 
# Structural Database, then it will include bibliographic, chemical, 
# crystal, experimental, refinement or atomic coordinate data resulting 
# from the CCDC's data processing and validation procedures.
#
#######################################################################

data_WOQKET
_symmetry_cell_setting           monoclinic
_symmetry_space_group_name_H-M   'P 21/c'
_symmetry_Int_Tables_number      14
_space_group_name_Hall           '-P 2ybc'
loop_
_symmetry_equiv_pos_site_id
_symmetry_equiv_pos_as_xyz
1 x,y,z
2 -x,1/2+y,1/2-z
3 -x,-y,-z
4 x,1/2-y,1/2+z
_cell_length_a                   11.232(2)
_cell_length_b                   9.3784(19)
_cell_length_c                   15.182(3)
_cell_angle_alpha                90
_cell_angle_beta                 96.19(3)
_cell_angle_gamma                90
_cell_volume                     1589.92
loop_
_atom_site_label
_atom_site_type_symbol
_atom_site_fract_x
_atom_site_fract_y
_atom_site_fract_z
Co1 Co 0.0000 0.0000 0.0000
O1 O 0.1778(3) -0.0431(3) -0.0026(2)
O2 O 0.2160(3) -0.0376(4) -0.1444(2)
O3 O 0.0130(3) -0.0479(3) 0.1395(2)
N1 N 0.0523(3) 0.2209(4) 0.0280(2)
N2 N 0.7841(4) 0.5277(5) 0.2442(3)
C1 C 0.0264(4) 0.2913(5) 0.1006(3)
H1 H -0.0265 0.2496 0.1360
C2 C 0.0749(4) 0.4233(5) 0.1252(3)
H2 H 0.0548 0.4673 0.1765
C3 C 0.1529(4) 0.4899(4) 0.0738(3)
C4 C 0.1768(4) 0.4190(5) -0.0025(3)
H3 H 0.2271 0.4602 -0.0401
C5 C 0.1260(4) 0.2872(5) -0.0227(3)
H4 H 0.1438 0.2420 -0.0742
C6 C 0.2111(4) 0.6317(5) 0.1004(4)
H5 H 0.1599 0.6836 0.1368
H6 H 0.2184 0.6877 0.0476
C7 C 0.3358(4) 0.6141(5) 0.1520(4)
H7 H 0.3616 0.7061 0.1763
H8 H 0.3289 0.5503 0.2015
C8 C 0.4312(5) 0.5574(6) 0.0990(4)
H9 H 0.4364 0.6189 0.0482
H10 H 0.4075 0.4634 0.0769
C9 C 0.5537(4) 0.5471(5) 0.1507(3)
C10 C 0.6122(4) 0.4185(5) 0.1644(4)
H11 H 0.5756 0.3346 0.1431
H12 H -0.0678 -0.0090 0.1546
H13 H 0.0837 -0.0308 0.1754
C11 C 0.7259(4) 0.4149(6) 0.2102(4)
H14 H 0.7637 0.3268 0.2175
C12 C 0.6142(5) 0.6665(6) 0.1852(4)
H15 H 0.5790 0.7561 0.1780
C13 C 0.7274(5) 0.6521(6) 0.2306(4)
H16 H 0.7662 0.7342 0.2529
C14 C 0.2473(4) -0.0358(4) -0.0631(3)
C15 C 0.3785(3) -0.0194(4) -0.0299(3)
C16 C 0.4141(4) 0.0109(4) 0.0582(3)
H17 H 0.3566 0.0189 0.0976
C17 C 0.4660(4) -0.0295(4) -0.0887(3)
H18 H 0.4437 -0.0488 -0.1483
Co1_2 Co 1.0000 0.0000 0.0000
O1B O 0.8222(3) 0.0431(3) 0.0026(2)
O1B_2 O -0.1778(3) 0.0431(3) 0.0026(2)
O2B O 0.7840(3) 0.0376(4) 0.1444(2)
O3B O -0.0130(3) 0.0479(3) -0.1395(2)
N1B N -0.0523(3) -0.2209(4) -0.0280(2)
N2B N -0.7841(4) -0.5277(5) -0.2442(3)
C1B C -0.0264(4) -0.2913(5) -0.1006(3)
H1B H 0.0265 -0.2496 -0.1360
C2B C -0.0749(4) -0.4233(5) -0.1252(3)
H2B H -0.0548 -0.4673 -0.1765
C3B C -0.1529(4) -0.4899(4) -0.0738(3)
C4B C -0.1768(4) -0.4190(5) 0.0025(3)
H3B H -0.2271 -0.4602 0.0401
C5B C -0.1260(4) -0.2872(5) 0.0227(3)
H4B H -0.1438 -0.2420 0.0742
C6B C -0.2111(4) -0.6317(5) -0.1004(4)
H5B H -0.1599 -0.6836 -0.1368
H6B H -0.2184 -0.6877 -0.0476
C7B C -0.3358(4) -0.6141(5) -0.1520(4)
H7B H -0.3616 -0.7061 -0.1763
H8B H -0.3289 -0.5503 -0.2015
C8B C -0.4312(5) -0.5574(6) -0.0990(4)
H9B H -0.4364 -0.6189 -0.0482
H10B H -0.4075 -0.4634 -0.0769
C9B C -0.5537(4) -0.5471(5) -0.1507(3)
C10B C -0.6122(4) -0.4185(5) -0.1644(4)
H11B H -0.5756 -0.3346 -0.1431
H12B H 0.0678 0.0090 -0.1546
H13B H -0.0837 0.0308 -0.1754
C11B C -0.7259(4) -0.4149(6) -0.2102(4)
H14B H -0.7637 -0.3268 -0.2175
C12B C -0.6142(5) -0.6665(6) -0.1852(4)
H15B H -0.5790 -0.7561 -0.1780
C13B C -0.7274(5) -0.6521(6) -0.2306(4)
H16B H -0.7662 -0.7342 -0.2529
C14B C 0.7527(4) 0.0358(4) 0.0631(3)
C15B C 0.6215(3) 0.0194(4) 0.0299(3)
C16B C 0.5859(4) -0.0109(4) -0.0582(3)
H17B H 0.6434 -0.0189 -0.0976
C17B C 0.5340(4) 0.0295(4) 0.0887(3)
H18B H 0.5563 0.0488 0.1483
loop_
_geom_bond_atom_site_label_1
_geom_bond_atom_site_label_2
_geom_bond_site_symmetry_1
_geom_bond_site_symmetry_2
Co1 O1 1_555 1_555
O1 C14 1_555 1_555
O2 C14 1_555 1_555
O3 Co1 1_555 1_555
N1 Co1 1_555 1_555
N2 C11 1_555 1_555
C1 N1 1_555 1_555
H1 C1 1_555 1_555
C2 C1 1_555 1_555
H2 C2 1_555 1_555
C3 C2 1_555 1_555
C4 C3 1_555 1_555
H3 C4 1_555 1_555
C5 N1 1_555 1_555
H4 C5 1_555 1_555
C6 C3 1_555 1_555
H5 C6 1_555 1_555
H6 C6 1_555 1_555
C7 C6 1_555 1_555
H7 C7 1_555 1_555
H8 C7 1_555 1_555
C8 C7 1_555 1_555
H9 C8 1_555 1_555
H10 C8 1_555 1_555
C9 C8 1_555 1_555
C10 C9 1_555 1_555
H11 C10 1_555 1_555
H12 O3 1_555 1_555
H13 O3 1_555 1_555
C11 C10 1_555 1_555
H14 C11 1_555 1_555
C12 C9 1_555 1_555
H15 C12 1_555 1_555
C13 N2 1_555 1_555
H16 C13 1_555 1_555
C14 C15 1_555 1_555
C15 C16 1_555 1_555
C16 H17 1_555 1_555
C17 C15 1_555 1_555
H18 C17 1_555 1_555
Co1_2 O1B 1_555 1_555
O1B C14B 1_555 1_555
O1B_2 Co1 1_555 1_555
O2B C14B 1_555 1_555
O3B Co1 1_555 1_555
N1B Co1 1_555 1_555
N2B C11B 1_555 1_555
C1B N1B 1_555 1_555
H1B C1B 1_555 1_555
C2B C1B 1_555 1_555
H2B C2B 1_555 1_555
C3B C2B 1_555 1_555
C4B C3B 1_555 1_555
H3B C4B 1_555 1_555
C5B N1B 1_555 1_555
H4B C5B 1_555 1_555
C6B C3B 1_555 1_555
H5B C6B 1_555 1_555
H6B C6B 1_555 1_555
C7B C6B 1_555 1_555
H7B C7B 1_555 1_555
H8B C7B 1_555 1_555
C8B C7B 1_555 1_555
H9B C8B 1_555 1_555
H10B C8B 1_555 1_555
C9B C8B 1_555 1_555
C10B C9B 1_555 1_555
H11B C10B 1_555 1_555
H12B O3B 1_555 1_555
H13B O3B 1_555 1_555
C11B C10B 1_555 1_555
H14B C11B 1_555 1_555
C12B C9B 1_555 1_555
H15B C12B 1_555 1_555
C13B N2B 1_555 1_555
H16B C13B 1_555 1_555
C14B C15B 1_555 1_555
C15B C16B 1_555 1_555
C16B C17 1_555 1_555
H17B C16B 1_555 1_555
C17B C16 1_555 1_555
H18B C17B 1_555 1_555
C4 C5 1_555 1_555
C12 C13 1_555 1_555
C4B C5B 1_555 1_555
C12B C13B 1_555 1_555
C15B C17B 1_555 1_555

#END
