
#######################################################################
#
#                 Cambridge Crystallographic Data Centre
#                                CCDC 
#
#######################################################################
#
# If this CIF has been generated from an entry in the Cambridge 
# Structural Database, then it will include bibliographic, chemical, 
# crystal, experimental, refinement or atomic coordinate data resulting 
# from the CCDC's data processing and validation procedures.
#
#######################################################################

data_WOQLEU
_symmetry_cell_setting           triclinic
_symmetry_space_group_name_H-M   'P -1'
_symmetry_Int_Tables_number      2
_space_group_name_Hall           '-P 1'
loop_
_symmetry_equiv_pos_site_id
_symmetry_equiv_pos_as_xyz
1 x,y,z
2 -x,-y,-z
_cell_length_a                   7.5472(8)
_cell_length_b                   7.5606(8)
_cell_length_c                   9.8352(10)
_cell_angle_alpha                83.6800(10)
_cell_angle_beta                 68.5280(10)
_cell_angle_gamma                79.6390(10)
_cell_volume                     513.144
loop_
_atom_site_label
_atom_site_type_symbol
_atom_site_fract_x
_atom_site_fract_y
_atom_site_fract_z
Cd1 Cd 0.5000 0.5000 0.5000
O1 O -0.1329(4) -0.2147(3) 0.8956(2)
O2 O -0.3397(3) -0.0003(3) 0.8532(3)
O3 O 0.3605(3) 0.3892(3) 0.7372(2)
N1 N 0.4059(3) 0.2818(3) 0.4054(3)
N2 N 0.1066(3) 0.1677(3) 0.4552(3)
N3 N -0.2102(3) 0.3289(3) 0.4816(3)
N4 N -0.1834(3) -0.0583(3) 0.8629(2)
N5 N 0.2298(3) 0.2829(3) 0.7670(2)
C1 C 0.2592(3) 0.2383(3) 0.4278(2)
C2 C -0.0590(3) 0.2619(3) 0.4680(2)
C3 C -0.3067(4) 0.3407(4) 0.9163(4)
H1 H -0.3083 0.4579 0.9460
H2 H -0.3774 0.2705 0.9994
H3 H -0.3652 0.3524 0.8433
C4 C -0.1028(3) 0.2488(3) 0.8542(2)
C5 C -0.0425(3) 0.0661(3) 0.8317(2)
C6 C 0.1501(4) -0.0059(3) 0.7798(2)
H4 H 0.1871 -0.1290 0.7677
C7 C 0.2853(4) 0.1047(4) 0.7467(3)
H5 H 0.4155 0.0579 0.7101
C8 C 0.0426(3) 0.3523(3) 0.8193(3)
H6 H 0.0092 0.4754 0.8326
Cd1_2 Cd -0.5000 0.5000 0.5000
Cd1_3 Cd 1.5000 0.5000 0.5000
O1A O 1.1329(4) 1.2147(3) 0.1044(2)
O2A O 1.3397(3) 1.0003(3) 0.1468(3)
O3A O 0.6395(3) 0.6108(3) 0.2628(2)
N1A N 0.5941(3) 0.7182(3) 0.5946(3)
N2A N 0.8934(3) 0.8323(3) 0.5448(3)
N3A N 1.2102(3) 0.6711(3) 0.5184(3)
N3_2 N 0.7898(3) 0.3289(3) 0.4816(3)
N3A_2 N 0.2102(3) 0.6711(3) 0.5184(3)
N4A N 1.1834(3) 1.0583(3) 0.1371(2)
N5A N 0.7702(3) 0.7171(3) 0.2330(2)
C1A C 0.7408(3) 0.7617(3) 0.5722(2)
C2A C 1.0590(3) 0.7381(3) 0.5320(2)
C3A C 1.3067(4) 0.6593(4) 0.0837(4)
H1A H 1.3083 0.5421 0.0540
H2A H 1.3774 0.7295 0.0006
H3A H 1.3652 0.6476 0.1567
C4A C 1.1028(3) 0.7512(3) 0.1458(2)
C5A C 1.0425(3) 0.9339(3) 0.1683(2)
C6A C 0.8499(4) 1.0059(3) 0.2202(2)
H4A H 0.8129 1.1290 0.2323
C7A C 0.7147(4) 0.8953(4) 0.2533(3)
H5A H 0.5845 0.9421 0.2899
C8A C 0.9574(3) 0.6477(3) 0.1807(3)
H6A H 0.9908 0.5246 0.1674
loop_
_geom_bond_atom_site_label_1
_geom_bond_atom_site_label_2
_geom_bond_site_symmetry_1
_geom_bond_site_symmetry_2
Cd1 O3 1_555 1_555
O1 N4 1_555 1_555
O2 N4 1_555 1_555
O3 N5 1_555 1_555
N1 Cd1 1_555 1_555
N2 C1 1_555 1_555
N3 C2 1_555 1_555
N4 C5 1_555 1_555
N5 C7 1_555 1_555
C1 N1 1_555 1_555
C2 N2 1_555 1_555
C3 H1 1_555 1_555
H2 C3 1_555 1_555
H3 C3 1_555 1_555
C4 C3 1_555 1_555
C5 C4 1_555 1_555
C6 C5 1_555 1_555
H4 C6 1_555 1_555
C7 C6 1_555 1_555
H5 C7 1_555 1_555
C8 N5 1_555 1_555
H6 C8 1_555 1_555
Cd1_2 N3 1_555 1_555
Cd1_3 N3A 1_555 1_555
O1A N4A 1_555 1_555
O2A N4A 1_555 1_555
O3A Cd1 1_555 1_555
N1A Cd1 1_555 1_555
N2A C1A 1_555 1_555
N3A C2A 1_555 1_555
N3_2 Cd1 1_555 1_555
N3A_2 Cd1 1_555 1_555
N4A C5A 1_555 1_555
N5A O3A 1_555 1_555
C1A N1A 1_555 1_555
C2A N2A 1_555 1_555
C3A H1A 1_555 1_555
H2A C3A 1_555 1_555
H3A C3A 1_555 1_555
C4A C3A 1_555 1_555
C5A C4A 1_555 1_555
C6A C5A 1_555 1_555
H4A C6A 1_555 1_555
C7A N5A 1_555 1_555
H5A C7A 1_555 1_555
C8A N5A 1_555 1_555
H6A C8A 1_555 1_555
C4 C8 1_555 1_555
C4A C8A 1_555 1_555
C6A C7A 1_555 1_555

#END
