
#######################################################################
#
#                 Cambridge Crystallographic Data Centre
#                                CCDC 
#
#######################################################################
#
# If this CIF has been generated from an entry in the Cambridge 
# Structural Database, then it will include bibliographic, chemical, 
# crystal, experimental, refinement or atomic coordinate data resulting 
# from the CCDC's data processing and validation procedures.
#
#######################################################################

data_WOQMIZ
_symmetry_cell_setting           monoclinic
_symmetry_space_group_name_H-M   'C 2/c'
_symmetry_Int_Tables_number      15
_space_group_name_Hall           '-C 2yn'
loop_
_symmetry_equiv_pos_site_id
_symmetry_equiv_pos_as_xyz
1 x,y,z
2 1/2+x,1/2+y,z
3 -x,y,1/2-z
4 1/2-x,1/2+y,1/2-z
5 -x,-y,-z
6 1/2-x,1/2-y,-z
7 x,-y,1/2+z
8 1/2+x,1/2-y,1/2+z
_cell_length_a                   26.108(2)
_cell_length_b                   9.6928(10)
_cell_length_c                   21.161(2)
_cell_angle_alpha                90
_cell_angle_beta                 126.494(2)
_cell_angle_gamma                90
_cell_volume                     4304.98
loop_
_atom_site_label
_atom_site_type_symbol
_atom_site_fract_x
_atom_site_fract_y
_atom_site_fract_z
Cd1 Cd 0.163966(9) 0.80224(2) 0.186508(12)
N1 N 0.05395(11) 0.8470(2) 0.11727(14)
N2 N 0.10891(11) 0.5924(2) 0.15983(14)
O1 O 0.18828(13) 0.8727(3) 0.30445(14)
O2 O 0.23664(13) 0.6773(4) 0.32126(16)
O3 O 0.14899(10) 0.7998(2) 0.06513(12)
O4 O 0.24360(10) 0.7435(2) 0.16977(12)
O7 O 0.18243(10) 1.0437(2) 0.19469(12)
H3 H 0.2076 1.0625 0.1829
H4 H 0.1988 1.0725 0.2410
C1 C 0.22048(16) 0.7708(4) 0.3456(2)
C2 C 0.23658(13) 0.7594(3) 0.42642(17)
C3 C 0.23231(15) 0.8742(3) 0.46128(19)
H5 H 0.2202 0.9585 0.4351
C4 C 0.25404(15) 0.6350(3) 0.46504(19)
H6 H 0.2567 0.5570 0.4415
C5 C 0.20622(14) 0.7676(3) 0.09733(18)
C6 C 0.22902(13) 0.7568(3) 0.04736(17)
C7 C 0.18645(13) 0.7628(3) -0.03373(18)
H7 H 0.1432 0.7718 -0.0571
C8 C 0.29305(14) 0.7441(3) 0.08069(18)
H8 H 0.3226 0.7403 0.1351
C15 C 0.02751(15) 0.9707(3) 0.09881(19)
H11 H 0.0539 1.0478 0.1175
C16 C -0.03804(15) 0.9903(4) 0.0527(2)
H12 H -0.0549 1.0790 0.0409
C17 C -0.07692(15) 0.8796(4) 0.0251(2)
H13 H -0.1209 0.8918 -0.0067
C18 C -0.05130(14) 0.7468(3) 0.04402(19)
C19 C 0.01571(13) 0.7355(3) 0.09130(16)
C20 C 0.04452(14) 0.6005(3) 0.11358(17)
C21 C 0.00562(16) 0.4833(3) 0.0881(2)
C22 C 0.0362(2) 0.3557(4) 0.1137(3)
H14 H 0.0120 0.2754 0.0981
C23 C 0.1001(2) 0.3473(4) 0.1607(3)
H15 H 0.1204 0.2622 0.1781
C24 C 0.13532(18) 0.4689(4) 0.1827(2)
H16 H 0.1795 0.4628 0.2152
C25 C -0.08894(16) 0.6240(4) 0.0181(2)
H17 H -0.1331 0.6313 -0.0142
C26 C -0.06213(18) 0.4987(4) 0.0391(2)
H18 H -0.0879 0.4207 0.0217
Cd1E Cd 0.336034(9) 0.69776(2) 0.813492(12)
Cd1E_2 Cd 0.336034(9) 0.69776(2) -0.186508(12)
N1E N 0.44605(11) 0.6530(2) 0.88273(14)
N2E N 0.39109(11) 0.9076(2) 0.84017(14)
O1E O 0.31172(13) 0.6273(3) 0.69555(14)
O2E O 0.26336(13) 0.8227(4) 0.67874(16)
O3E O 0.35101(10) 0.7002(2) -0.06513(12)
O3E_2 O 0.35101(10) 0.7002(2) 0.93487(12)
O4E O 0.25640(10) 0.7565(2) -0.16977(12)
O4E_2 O 0.25640(10) 0.7565(2) 0.83023(12)
O7E O 0.31757(10) 0.4563(2) 0.80531(12)
H3E H 0.2924 0.4375 0.8171
H4E H 0.3012 0.4275 0.7590
C1E C 0.27952(16) 0.7292(4) 0.6544(2)
C2E C 0.26342(13) 0.7406(3) 0.57358(17)
C3E C 0.26769(15) 0.6258(3) 0.53872(19)
H5E H 0.2798 0.5415 0.5649
C4E C 0.24596(15) 0.8650(3) 0.53496(19)
H6E H 0.2433 0.9430 0.5585
C5E C 0.29378(14) 0.7324(3) -0.09733(18)
C6E C 0.27098(13) 0.7432(3) -0.04736(17)
C7E C 0.31355(13) 0.7372(3) 0.03373(18)
H7E H 0.3568 0.7282 0.0571
C8E C 0.20695(14) 0.7559(3) -0.08069(18)
H8E H 0.1774 0.7597 -0.1351
C15E C 0.47249(15) 0.5293(3) 0.90119(19)
H11E H 0.4461 0.4522 0.8825
C16E C 0.53804(15) 0.5097(4) 0.9473(2)
H12E H 0.5549 0.4210 0.9591
C17E C 0.57692(15) 0.6204(4) 0.9749(2)
H13E H 0.6209 0.6082 1.0067
C18E C 0.55130(14) 0.7532(3) 0.95598(19)
C19E C 0.48429(13) 0.7645(3) 0.90870(16)
C20E C 0.45548(14) 0.8995(3) 0.88642(17)
C21E C 0.49438(16) 1.0167(3) 0.9119(2)
C22E C 0.4638(2) 1.1443(4) 0.8863(3)
H14E H 0.4880 1.2246 0.9019
C23E C 0.3999(2) 1.1527(4) 0.8393(3)
H15E H 0.3796 1.2378 0.8219
C24E C 0.36468(18) 1.0311(4) 0.8173(2)
H16E H 0.3205 1.0372 0.7848
C25E C 0.58894(16) 0.8760(4) 0.9819(2)
H17E H 0.6331 0.8687 1.0142
C26E C 0.56213(18) 1.0013(4) 0.9609(2)
H18E H 0.5879 1.0793 0.9783
O5 O 0.05219(11) 1.1134(2) 0.28343(16)
O6 O 0.05277(11) 0.3946(2) 0.28845(15)
C9 C 0.0000 1.0513(4) 0.2500
C10 C 0.0000 0.8973(4) 0.2500
C11 C 0.05674(14) 0.8252(3) 0.28751(19)
H9 H 0.0951 0.8730 0.3127
C12 C 0.05684(15) 0.6829(3) 0.2878(2)
H10 H 0.0952 0.6352 0.3134
C13 C 0.0000 0.6107(4) 0.2500
C14 C 0.0000 0.4565(5) 0.2500
O5B O -0.05219(11) 1.1134(2) 0.21657(16)
O6B O -0.05277(11) 0.3946(2) 0.21155(15)
C11B C -0.05674(14) 0.8252(3) 0.21249(19)
H9B H -0.0951 0.8730 0.1873
C12B C -0.05684(15) 0.6829(3) 0.2122(2)
H10B H -0.0952 0.6352 0.1866
H1? H 0.0460 1.1969 0.2794
H2? H 0.0467 0.3111 0.2840
loop_
_geom_bond_atom_site_label_1
_geom_bond_atom_site_label_2
_geom_bond_site_symmetry_1
_geom_bond_site_symmetry_2
Cd1 N1 1_555 1_555
N1 C15 1_555 1_555
N2 Cd1 1_555 1_555
O1 Cd1 1_555 1_555
O2 Cd1 1_555 1_555
O3 Cd1 1_555 1_555
O4 Cd1 1_555 1_555
O5 C9 1_555 1_555
O6 C14 1_555 1_555
O7 Cd1 1_555 1_555
H3 O7 1_555 1_555
H4 O7 1_555 1_555
C1 O1 1_555 1_555
C2 C1 1_555 1_555
C3 C2 1_555 1_555
H5 C3 1_555 1_555
C4 C2 1_555 1_555
H6 C4 1_555 1_555
C5 O3 1_555 1_555
C6 C5 1_555 1_555
C7 C6 1_555 1_555
H7 C7 1_555 1_555
C8 C6 1_555 1_555
H8 C8 1_555 1_555
C9 C10 1_555 1_555
C10 C11 1_555 1_555
C11 H9 1_555 1_555
C12 C11 1_555 1_555
H10 C12 1_555 1_555
C13 C12 1_555 1_555
C14 C13 1_555 1_555
C15 H11 1_555 1_555
C16 C15 1_555 1_555
H12 C16 1_555 1_555
C17 C16 1_555 1_555
H13 C17 1_555 1_555
C18 C17 1_555 1_555
C19 N1 1_555 1_555
C20 N2 1_555 1_555
C21 C20 1_555 1_555
C22 C21 1_555 1_555
H14 C22 1_555 1_555
C23 C22 1_555 1_555
H15 C23 1_555 1_555
C24 N2 1_555 1_555
H16 C24 1_555 1_555
C25 C18 1_555 1_555
H17 C25 1_555 1_555
C26 C21 1_555 1_555
H18 C26 1_555 1_555
Cd1E N1E 1_555 1_555
Cd1E_2 O3E 1_555 1_555
N1E C15E 1_555 1_555
N2E Cd1E 1_555 1_555
O1E Cd1E 1_555 1_555
O2E Cd1E 1_555 1_555
O3E C5E 1_555 1_555
O3E_2 Cd1E 1_555 1_555
O4E Cd1E_2 1_555 1_555
O4E_2 Cd1E 1_555 1_555
O5B C9 1_555 1_555
O6B C14 1_555 1_555
O7E Cd1E 1_555 1_555
H3E O7E 1_555 1_555
H4E O7E 1_555 1_555
C1E O1E 1_555 1_555
C2E C1E 1_555 1_555
C3E C4 1_555 1_555
H5E C3E 1_555 1_555
C4E C3 1_555 1_555
H6E C4E 1_555 1_555
C5E O4E 1_555 1_555
C6E C5E 1_555 1_555
C7E C8 1_555 1_555
H7E C7E 1_555 1_555
C8E C7 1_555 1_555
H8E C8E 1_555 1_555
C11B C10 1_555 1_555
H9B C11B 1_555 1_555
C12B C13 1_555 1_555
H10B C12B 1_555 1_555
C15E H11E 1_555 1_555
C16E C15E 1_555 1_555
H12E C16E 1_555 1_555
C17E C16E 1_555 1_555
H13E C17E 1_555 1_555
C18E C17E 1_555 1_555
C19E N1E 1_555 1_555
C20E N2E 1_555 1_555
C21E C20E 1_555 1_555
C22E C21E 1_555 1_555
H14E C22E 1_555 1_555
C23E C22E 1_555 1_555
H15E C23E 1_555 1_555
C24E N2E 1_555 1_555
H16E C24E 1_555 1_555
C25E C18E 1_555 1_555
H17E C25E 1_555 1_555
C26E C21E 1_555 1_555
H18E C26E 1_555 1_555
O2 C1 1_555 1_555
O4 C5 1_555 1_555
C18 C19 1_555 1_555
C19 C20 1_555 1_555
C23 C24 1_555 1_555
C25 C26 1_555 1_555
O2E C1E 1_555 1_555
C2E C3E 1_555 1_555
C2E C4E 1_555 1_555
C6E C7E 1_555 1_555
C6E C8E 1_555 1_555
C11B C12B 1_555 1_555
C18E C19E 1_555 1_555
C19E C20E 1_555 1_555
C23E C24E 1_555 1_555
C25E C26E 1_555 1_555

#END
