
#######################################################################
#
#                 Cambridge Crystallographic Data Centre
#                                CCDC 
#
#######################################################################
#
# If this CIF has been generated from an entry in the Cambridge 
# Structural Database, then it will include bibliographic, chemical, 
# crystal, experimental, refinement or atomic coordinate data resulting 
# from the CCDC's data processing and validation procedures.
#
#######################################################################

data_WOQRUR
_symmetry_cell_setting           hexagonal
_symmetry_space_group_name_H-M   'P 6/m'
_symmetry_Int_Tables_number      175
_space_group_name_Hall           '-P 6'
loop_
_symmetry_equiv_pos_site_id
_symmetry_equiv_pos_as_xyz
1 x,y,z
2 x-y,x,z
3 -y,x-y,z
4 -x,-y,z
5 -x+y,-x,z
6 y,-x+y,z
7 -x,-y,-z
8 -x+y,-x,-z
9 y,-x+y,-z
10 x,y,-z
11 x-y,x,-z
12 -y,x-y,-z
_cell_length_a                   15.0263(3)
_cell_length_b                   15.0263(3)
_cell_length_c                   17.6363(6)
_cell_angle_alpha                90
_cell_angle_beta                 90
_cell_angle_gamma                120
_cell_volume                     3448.6
loop_
_atom_site_label
_atom_site_type_symbol
_atom_site_fract_x
_atom_site_fract_y
_atom_site_fract_z
Ba1 Ba 0.5000 0.0000 0.0000
Ba2 Ba 0.6667 0.3333 0.0000
O1 O 0.5314(4) 0.1730(3) 0.0921(3)
O2 O 0.3966(4) 0.0235(4) 0.1245(3)
O3 O 0.7080(6) 0.1613(6) 0.0000
H1 H 0.7401 0.1608 -0.0395
C1 C 0.4922(6) 0.4467(6) 0.5000
C2 C 0.4830(5) 0.3938(5) 0.4325(3)
H2 H 0.4867 0.4261 0.3867
C3 C 0.4686(5) 0.2959(5) 0.4310(3)
C4 C 0.4610(7) 0.2465(6) 0.5000
H3 H 0.4507 0.1801 0.5000
C5 C 0.4633(5) 0.2463(4) 0.3564(3)
C6 C 0.4099(5) 0.1397(5) 0.3460(3)
H4 H 0.3754 0.0970 0.3867
C7 C 0.4077(5) 0.0968(5) 0.2759(4)
H5 H 0.3721 0.0257 0.2701
C8 C 0.4591(5) 0.1603(5) 0.2134(3)
C9 C 0.5117(5) 0.2652(5) 0.2237(3)
H6 H 0.5460 0.3079 0.1829
C10 C 0.5146(5) 0.3083(5) 0.2940(3)
H7 H 0.5512 0.3793 0.2996
C11 C 0.4611(5) 0.1159(5) 0.1382(3)
O1C O 0.4686(4) 0.8270(3) 0.0921(3)
O2C O 0.6034(4) 0.9765(4) 0.1245(3)
C1C C 0.5078(6) 0.5533(6) 0.5000
C2C C 0.5170(5) 0.6062(5) 0.4325(3)
H2C H 0.5133 0.5739 0.3867
C3C C 0.5314(5) 0.7041(5) 0.4310(3)
C4C C 0.5390(7) 0.7535(6) 0.5000
H3C H 0.5493 0.8199 0.5000
C5C C 0.5367(5) 0.7537(4) 0.3564(3)
C6C C 0.5901(5) 0.8603(5) 0.3460(3)
H4C H 0.6246 0.9030 0.3867
C7C C 0.5923(5) 0.9032(5) 0.2759(4)
H5C H 0.6279 0.9743 0.2701
C8C C 0.5409(5) 0.8397(5) 0.2134(3)
C9C C 0.4883(5) 0.7348(5) 0.2237(3)
H6C H 0.4540 0.6921 0.1829
C10C C 0.4854(5) 0.6917(5) 0.2940(3)
H7C H 0.4488 0.6207 0.2996
C11C C 0.5389(5) 0.8841(5) 0.1382(3)
O1F O 0.4686(4) 0.8270(3) 0.9079(3)
O2F O 0.6034(4) 0.9765(4) 0.8755(3)
C2F C 0.5170(5) 0.6062(5) 0.5675(3)
H2F H 0.5133 0.5739 0.6133
C3F C 0.5314(5) 0.7041(5) 0.5690(3)
C5F C 0.5367(5) 0.7537(4) 0.6436(3)
C6F C 0.5901(5) 0.8603(5) 0.6540(3)
H4F H 0.6246 0.9030 0.6133
C7F C 0.5923(5) 0.9032(5) 0.7241(4)
H5F H 0.6279 0.9743 0.7299
C8F C 0.5409(5) 0.8397(5) 0.7866(3)
C9F C 0.4883(5) 0.7348(5) 0.7763(3)
H6F H 0.4540 0.6921 0.8171
C10F C 0.4854(5) 0.6917(5) 0.7060(3)
H7F H 0.4488 0.6207 0.7004
C11F C 0.5389(5) 0.8841(5) 0.8618(3)
O1I O 0.5314(4) 0.1730(3) 0.9079(3)
O2I O 0.3966(4) 0.0235(4) 0.8755(3)
C2I C 0.4830(5) 0.3938(5) 0.5675(3)
H2I H 0.4867 0.4261 0.6133
C3I C 0.4686(5) 0.2959(5) 0.5690(3)
C5I C 0.4633(5) 0.2463(4) 0.6436(3)
C6I C 0.4099(5) 0.1397(5) 0.6540(3)
H4I H 0.3754 0.0970 0.6133
C7I C 0.4077(5) 0.0968(5) 0.7241(4)
H5I H 0.3721 0.0257 0.7299
C8I C 0.4591(5) 0.1603(5) 0.7866(3)
C9I C 0.5117(5) 0.2652(5) 0.7763(3)
H6I H 0.5460 0.3079 0.8171
C10I C 0.5146(5) 0.3083(5) 0.7060(3)
H7I H 0.5512 0.3793 0.7004
C11I C 0.4611(5) 0.1159(5) 0.8618(3)
H1I H 0.7401 0.1608 0.0395
Ba1A Ba 0.5000 0.5000 0.0000
Ba2A Ba 0.3334 0.6667 0.0000
O1A O 0.3584(5) 0.5314(4) 0.0921(3)
O2A O 0.3731(6) 0.3966(4) 0.1245(3)
O3A O 0.5467(8) 0.7080(6) 0.0000
H1A H 0.5793 0.7401 -0.0395
C1A C 0.0455(8) 0.4922(6) 0.5000
C2A C 0.0892(7) 0.4830(5) 0.4325(3)
H2A H 0.0606 0.4867 0.3867
C3A C 0.1727(7) 0.4686(5) 0.4310(3)
C4A C 0.2145(9) 0.4610(7) 0.5000
H3A H 0.2706 0.4507 0.5000
C5A C 0.2170(6) 0.4633(5) 0.3564(3)
C6A C 0.2702(7) 0.4099(5) 0.3460(3)
H4A H 0.2784 0.3754 0.3867
C7A C 0.3109(7) 0.4077(5) 0.2759(4)
H5A H 0.3464 0.3721 0.2701
C8A C 0.2988(7) 0.4591(5) 0.2134(3)
C9A C 0.2465(7) 0.5117(5) 0.2237(3)
H6A H 0.2381 0.5460 0.1829
C10A C 0.2063(7) 0.5146(5) 0.2940(3)
H7A H 0.1719 0.5512 0.2996
C11A C 0.3452(7) 0.4611(5) 0.1382(3)
O1D O -0.3584(5) 0.4686(4) 0.0921(3)
O2D O -0.3731(6) 0.6034(4) 0.1245(3)
C1D C -0.0455(8) 0.5078(6) 0.5000
C2D C -0.0892(7) 0.5170(5) 0.4325(3)
H2D H -0.0606 0.5133 0.3867
C3D C -0.1727(7) 0.5314(5) 0.4310(3)
C4D C -0.2145(9) 0.5390(7) 0.5000
H3D H -0.2706 0.5493 0.5000
C5D C -0.2170(6) 0.5367(5) 0.3564(3)
C6D C -0.2702(7) 0.5901(5) 0.3460(3)
H4D H -0.2784 0.6246 0.3867
C7D C -0.3109(7) 0.5923(5) 0.2759(4)
H5D H -0.3464 0.6279 0.2701
C8D C -0.2988(7) 0.5409(5) 0.2134(3)
C9D C -0.2465(7) 0.4883(5) 0.2237(3)
H6D H -0.2381 0.4540 0.1829
C10D C -0.2063(7) 0.4854(5) 0.2940(3)
H7D H -0.1719 0.4488 0.2996
C11D C -0.3452(7) 0.5389(5) 0.1382(3)
O1G O -0.3584(5) 0.4686(4) 0.9079(3)
O2G O -0.3731(6) 0.6034(4) 0.8755(3)
C2G C -0.0892(7) 0.5170(5) 0.5675(3)
H2G H -0.0606 0.5133 0.6133
C3G C -0.1727(7) 0.5314(5) 0.5690(3)
C5G C -0.2170(6) 0.5367(5) 0.6436(3)
C6G C -0.2702(7) 0.5901(5) 0.6540(3)
H4G H -0.2784 0.6246 0.6133
C7G C -0.3109(7) 0.5923(5) 0.7241(4)
H5G H -0.3464 0.6279 0.7299
C8G C -0.2988(7) 0.5409(5) 0.7866(3)
C9G C -0.2465(7) 0.4883(5) 0.7763(3)
H6G H -0.2381 0.4540 0.8171
C10G C -0.2063(7) 0.4854(5) 0.7060(3)
H7G H -0.1719 0.4488 0.7004
C11G C -0.3452(7) 0.5389(5) 0.8618(3)
O1J O 0.3584(5) 0.5314(4) 0.9079(3)
O2J O 0.3731(6) 0.3966(4) 0.8755(3)
C2J C 0.0892(7) 0.4830(5) 0.5675(3)
H2J H 0.0606 0.4867 0.6133
C3J C 0.1727(7) 0.4686(5) 0.5690(3)
C5J C 0.2170(6) 0.4633(5) 0.6436(3)
C6J C 0.2702(7) 0.4099(5) 0.6540(3)
H4J H 0.2784 0.3754 0.6133
C7J C 0.3109(7) 0.4077(5) 0.7241(4)
H5J H 0.3464 0.3721 0.7299
C8J C 0.2988(7) 0.4591(5) 0.7866(3)
C9J C 0.2465(7) 0.5117(5) 0.7763(3)
H6J H 0.2381 0.5460 0.8171
C10J C 0.2063(7) 0.5146(5) 0.7060(3)
H7J H 0.1719 0.5512 0.7004
C11J C 0.3452(7) 0.4611(5) 0.8618(3)
H1J H 0.5793 0.7401 0.0395
Ba1B Ba 1.0000 0.5000 0.0000
O1B O 0.8270(3) 0.3584(5) 0.0921(3)
O2B O 0.9765(4) 0.3731(6) 0.1245(3)
O3B O 0.8387(6) 0.5467(8) 0.0000
H1B H 0.8392 0.5793 -0.0395
C1B C 0.5533(6) 0.0455(8) 0.5000
C2B C 0.6062(5) 0.0892(7) 0.4325(3)
H2B H 0.5739 0.0606 0.3867
C3B C 0.7041(5) 0.1727(7) 0.4310(3)
C4B C 0.7535(6) 0.2145(9) 0.5000
H3B H 0.8199 0.2706 0.5000
C5B C 0.7537(4) 0.2170(6) 0.3564(3)
C6B C 0.8603(5) 0.2702(7) 0.3460(3)
H4B H 0.9030 0.2784 0.3867
C7B C 0.9032(5) 0.3109(7) 0.2759(4)
H5B H 0.9743 0.3464 0.2701
C8B C 0.8397(5) 0.2988(7) 0.2134(3)
C9B C 0.7348(5) 0.2465(7) 0.2237(3)
H6B H 0.6921 0.2381 0.1829
C10B C 0.6917(5) 0.2063(7) 0.2940(3)
H7B H 0.6207 0.1719 0.2996
C11B C 0.8841(5) 0.3452(7) 0.1382(3)
O1E O 0.1730(3) -0.3584(5) 0.0921(3)
O2E O 0.0235(4) -0.3731(6) 0.1245(3)
C1E C 0.4467(6) -0.0455(8) 0.5000
C2E C 0.3938(5) -0.0892(7) 0.4325(3)
H2E H 0.4261 -0.0606 0.3867
C3E C 0.2959(5) -0.1727(7) 0.4310(3)
C4E C 0.2465(6) -0.2145(9) 0.5000
H3E H 0.1801 -0.2706 0.5000
C5E C 0.2463(4) -0.2170(6) 0.3564(3)
C6E C 0.1397(5) -0.2702(7) 0.3460(3)
H4E H 0.0970 -0.2784 0.3867
C7E C 0.0968(5) -0.3109(7) 0.2759(4)
H5E H 0.0257 -0.3464 0.2701
C8E C 0.1603(5) -0.2988(7) 0.2134(3)
C9E C 0.2652(5) -0.2465(7) 0.2237(3)
H6E H 0.3079 -0.2381 0.1829
C10E C 0.3083(5) -0.2063(7) 0.2940(3)
H7E H 0.3793 -0.1719 0.2996
C11E C 0.1159(5) -0.3452(7) 0.1382(3)
O1H O 0.1730(3) -0.3584(5) 0.9079(3)
O2H O 0.0235(4) -0.3731(6) 0.8755(3)
C2H C 0.3938(5) -0.0892(7) 0.5675(3)
H2H H 0.4261 -0.0606 0.6133
C3H C 0.2959(5) -0.1727(7) 0.5690(3)
C5H C 0.2463(4) -0.2170(6) 0.6436(3)
C6H C 0.1397(5) -0.2702(7) 0.6540(3)
H4H H 0.0970 -0.2784 0.6133
C7H C 0.0968(5) -0.3109(7) 0.7241(4)
H5H H 0.0257 -0.3464 0.7299
C8H C 0.1603(5) -0.2988(7) 0.7866(3)
C9H C 0.2652(5) -0.2465(7) 0.7763(3)
H6H H 0.3079 -0.2381 0.8171
C10H C 0.3083(5) -0.2063(7) 0.7060(3)
H7H H 0.3793 -0.1719 0.7004
C11H C 0.1159(5) -0.3452(7) 0.8618(3)
O1K O 0.8270(3) 0.3584(5) 0.9079(3)
O2K O 0.9765(4) 0.3731(6) 0.8755(3)
C2K C 0.6062(5) 0.0892(7) 0.5675(3)
H2K H 0.5739 0.0606 0.6133
C3K C 0.7041(5) 0.1727(7) 0.5690(3)
C5K C 0.7537(4) 0.2170(6) 0.6436(3)
C6K C 0.8603(5) 0.2702(7) 0.6540(3)
H4K H 0.9030 0.2784 0.6133
C7K C 0.9032(5) 0.3109(7) 0.7241(4)
H5K H 0.9743 0.3464 0.7299
C8K C 0.8397(5) 0.2988(7) 0.7866(3)
C9K C 0.7348(5) 0.2465(7) 0.7763(3)
H6K H 0.6921 0.2381 0.8171
C10K C 0.6917(5) 0.2063(7) 0.7060(3)
H7K H 0.6207 0.1719 0.7004
C11K C 0.8841(5) 0.3452(7) 0.8618(3)
H1K H 0.8392 0.5793 0.0395
O3C O 0.2920(6) -0.1613(6) 0.0000
H1C H 0.2599 -0.1608 -0.0395
H1F H 0.2599 -0.1608 0.0395
O3D O 0.4533(8) 0.2920(6) 0.0000
H1D H 0.4207 0.2599 -0.0395
H1G H 0.4207 0.2599 0.0395
O3E O 0.1613(6) 0.4533(8) 0.0000
H1E H 0.1608 0.4207 -0.0395
H1H H 0.1608 0.4207 0.0395
Ba1_2 Ba 0.5000 0.0000 1.0000
Ba1_3 Ba 0.5000 1.0000 0.0000
Ba1_4 Ba 0.5000 1.0000 1.0000
Ba1A_2 Ba -0.5000 0.5000 0.0000
Ba1A_3 Ba -0.5000 0.5000 1.0000
Ba1A_4 Ba 0.5000 0.5000 1.0000
Ba1B_2 Ba 0.0000 -0.5000 0.0000
Ba1B_3 Ba 0.0000 -0.5000 1.0000
Ba1B_4 Ba 0.0000 0.5000 0.0000
Ba1B_5 Ba 1.0000 0.5000 1.0000
Ba2_2 Ba -0.3333 0.3333 0.0000
Ba2_3 Ba -0.3333 0.3333 1.0000
Ba2_4 Ba 0.6667 0.3333 1.0000
Ba2A_2 Ba 0.3334 -0.3333 0.0000
Ba2A_3 Ba 0.3334 -0.3333 1.0000
Ba2A_4 Ba 0.3334 0.6667 1.0000
O1C_2 O 0.4686(4) -0.1730(3) 0.0921(3)
O1D_2 O 0.6416(5) 0.4686(4) 0.0921(3)
O1E_2 O 0.1730(3) 0.6416(5) 0.0921(3)
O1E_3 O 1.1730(3) 0.6416(5) 0.0921(3)
O1F_2 O 0.4686(4) -0.1730(3) -0.0921(3)
O1F_3 O 0.4686(4) 0.8270(3) -0.0921(3)
O1G_2 O 0.6416(5) 0.4686(4) -0.0921(3)
O1H_2 O 0.1730(3) 0.6416(5) -0.0921(3)
O1H_3 O 1.1730(3) 0.6416(5) -0.0921(3)
O1I_2 O 0.5314(4) 0.1730(3) -0.0921(3)
O1J_2 O 0.3584(5) 0.5314(4) -0.0921(3)
O1K_2 O 0.8270(3) 0.3584(5) -0.0921(3)
O2C_2 O 0.6034(4) -0.0235(4) 0.1245(3)
O2D_2 O 0.6269(6) 0.6034(4) 0.1245(3)
O2E_2 O 1.0235(4) 0.6269(6) 0.1245(3)
O2F_2 O 0.6034(4) -0.0235(4) -0.1245(3)
O2G_2 O 0.6269(6) 0.6034(4) -0.1245(3)
O2H_2 O 1.0235(4) 0.6269(6) -0.1245(3)
O2I_2 O 0.3966(4) 0.0235(4) -0.1245(3)
O2J_2 O 0.3731(6) 0.3966(4) -0.1245(3)
O2K_2 O 0.9765(4) 0.3731(6) -0.1245(3)
O3C_2 O 0.2920(6) 0.8387(6) 0.0000
O3E_2 O 1.1613(6) 0.4533(8) 0.0000
loop_
_geom_bond_atom_site_label_1
_geom_bond_atom_site_label_2
_geom_bond_site_symmetry_1
_geom_bond_site_symmetry_2
Ba1 O1 1_555 1_555
Ba2 O1 1_555 1_555
O1 C11 1_555 1_555
O2 Ba1 1_555 1_555
O3 Ba1 1_555 1_555
H1 O3 1_555 1_555
C1 C2 1_555 1_555
C2 H2 1_555 1_555
C3 C2 1_555 1_555
C4 C3 1_555 1_555
H3 C4 1_555 1_555
C5 C3 1_555 1_555
C6 C5 1_555 1_555
H4 C6 1_555 1_555
C7 C6 1_555 1_555
H5 C7 1_555 1_555
C8 C7 1_555 1_555
C9 C8 1_555 1_555
H6 C9 1_555 1_555
C10 C5 1_555 1_555
H7 C10 1_555 1_555
C11 O2 1_555 1_555
O1C C11C 1_555 1_555
O2C C11C 1_555 1_555
C1C C1 1_555 1_555
C2C C1C 1_555 1_555
H2C C2C 1_555 1_555
C3C C2C 1_555 1_555
C4C C3C 1_555 1_555
H3C C4C 1_555 1_555
C5C C3C 1_555 1_555
C6C C5C 1_555 1_555
H4C C6C 1_555 1_555
C7C C6C 1_555 1_555
H5C C7C 1_555 1_555
C8C C7C 1_555 1_555
C9C C8C 1_555 1_555
H6C C9C 1_555 1_555
C10C C5C 1_555 1_555
H7C C10C 1_555 1_555
C11C C8C 1_555 1_555
O1F C11F 1_555 1_555
O2F C11F 1_555 1_555
C2F C1C 1_555 1_555
H2F C2F 1_555 1_555
C3F C4C 1_555 1_555
C5F C3F 1_555 1_555
C6F C5F 1_555 1_555
H4F C6F 1_555 1_555
C7F C6F 1_555 1_555
H5F C7F 1_555 1_555
C8F C7F 1_555 1_555
C9F C8F 1_555 1_555
H6F C9F 1_555 1_555
C10F C5F 1_555 1_555
H7F C10F 1_555 1_555
C11F C8F 1_555 1_555
O1I C11I 1_555 1_555
O2I C11I 1_555 1_555
C2I C1 1_555 1_555
H2I C2I 1_555 1_555
C3I C4 1_555 1_555
C5I C3I 1_555 1_555
C6I C5I 1_555 1_555
H4I C6I 1_555 1_555
C7I C6I 1_555 1_555
H5I C7I 1_555 1_555
C8I C7I 1_555 1_555
C9I C8I 1_555 1_555
H6I C9I 1_555 1_555
C10I C5I 1_555 1_555
H7I C10I 1_555 1_555
C11I C8I 1_555 1_555
H1I O3 1_555 1_555
Ba1A O1A 1_555 1_555
Ba2A O1C 1_555 1_555
O1A Ba2A 1_555 1_555
O2A Ba1A 1_555 1_555
O3A Ba1A 1_555 1_555
H1A O3A 1_555 1_555
C1A C2A 1_555 1_555
C2A H2A 1_555 1_555
C3A C2A 1_555 1_555
C4A C3A 1_555 1_555
H3A C4A 1_555 1_555
C5A C3A 1_555 1_555
C6A C5A 1_555 1_555
H4A C6A 1_555 1_555
C7A C6A 1_555 1_555
H5A C7A 1_555 1_555
C8A C7A 1_555 1_555
C9A C8A 1_555 1_555
H6A C9A 1_555 1_555
C10A C5A 1_555 1_555
H7A C10A 1_555 1_555
C11A O1A 1_555 1_555
O1D C11D 1_555 1_555
O2D C11D 1_555 1_555
C1D C1A 1_555 1_555
C2D C1D 1_555 1_555
H2D C2D 1_555 1_555
C3D C2D 1_555 1_555
C4D C3D 1_555 1_555
H3D C4D 1_555 1_555
C5D C3D 1_555 1_555
C6D C5D 1_555 1_555
H4D C6D 1_555 1_555
C7D C6D 1_555 1_555
H5D C7D 1_555 1_555
C8D C7D 1_555 1_555
C9D C8D 1_555 1_555
H6D C9D 1_555 1_555
C10D C5D 1_555 1_555
H7D C10D 1_555 1_555
C11D C8D 1_555 1_555
O1G C11G 1_555 1_555
O2G C11G 1_555 1_555
C2G C1D 1_555 1_555
H2G C2G 1_555 1_555
C3G C4D 1_555 1_555
C5G C3G 1_555 1_555
C6G C5G 1_555 1_555
H4G C6G 1_555 1_555
C7G C6G 1_555 1_555
H5G C7G 1_555 1_555
C8G C7G 1_555 1_555
C9G C8G 1_555 1_555
H6G C9G 1_555 1_555
C10G C5G 1_555 1_555
H7G C10G 1_555 1_555
C11G C8G 1_555 1_555
O1J C11J 1_555 1_555
O2J C11J 1_555 1_555
C2J C1A 1_555 1_555
H2J C2J 1_555 1_555
C3J C4A 1_555 1_555
C5J C3J 1_555 1_555
C6J C5J 1_555 1_555
H4J C6J 1_555 1_555
C7J C6J 1_555 1_555
H5J C7J 1_555 1_555
C8J C7J 1_555 1_555
C9J C8J 1_555 1_555
H6J C9J 1_555 1_555
C10J C5J 1_555 1_555
H7J C10J 1_555 1_555
C11J C8J 1_555 1_555
H1J O3A 1_555 1_555
Ba1B O1B 1_555 1_555
O1B Ba2 1_555 1_555
O2B Ba1B 1_555 1_555
O3B Ba2 1_555 1_555
H1B O3B 1_555 1_555
C1B C2B 1_555 1_555
C2B H2B 1_555 1_555
C3B C2B 1_555 1_555
C4B C3B 1_555 1_555
H3B C4B 1_555 1_555
C5B C3B 1_555 1_555
C6B C5B 1_555 1_555
H4B C6B 1_555 1_555
C7B C6B 1_555 1_555
H5B C7B 1_555 1_555
C8B C7B 1_555 1_555
C9B C8B 1_555 1_555
H6B C9B 1_555 1_555
C10B C5B 1_555 1_555
H7B C10B 1_555 1_555
C11B O1B 1_555 1_555
O1E C11E 1_555 1_555
O2E C11E 1_555 1_555
C1E C1B 1_555 1_555
C2E C1E 1_555 1_555
H2E C2E 1_555 1_555
C3E C2E 1_555 1_555
C4E C3E 1_555 1_555
H3E C4E 1_555 1_555
C5E C3E 1_555 1_555
C6E C5E 1_555 1_555
H4E C6E 1_555 1_555
C7E C6E 1_555 1_555
H5E C7E 1_555 1_555
C8E C7E 1_555 1_555
C9E C8E 1_555 1_555
H6E C9E 1_555 1_555
C10E C5E 1_555 1_555
H7E C10E 1_555 1_555
C11E C8E 1_555 1_555
O1H C11H 1_555 1_555
O2H C11H 1_555 1_555
C2H C1E 1_555 1_555
H2H C2H 1_555 1_555
C3H C4E 1_555 1_555
C5H C3H 1_555 1_555
C6H C5H 1_555 1_555
H4H C6H 1_555 1_555
C7H C6H 1_555 1_555
H5H C7H 1_555 1_555
C8H C7H 1_555 1_555
C9H C8H 1_555 1_555
H6H C9H 1_555 1_555
C10H C5H 1_555 1_555
H7H C10H 1_555 1_555
C11H C8H 1_555 1_555
O1K C11K 1_555 1_555
O2K C11K 1_555 1_555
C2K C1B 1_555 1_555
H2K C2K 1_555 1_555
C3K C4B 1_555 1_555
C5K C3K 1_555 1_555
C6K C5K 1_555 1_555
H4K C6K 1_555 1_555
C7K C6K 1_555 1_555
H5K C7K 1_555 1_555
C8K C7K 1_555 1_555
C9K C8K 1_555 1_555
H6K C9K 1_555 1_555
C10K C5K 1_555 1_555
H7K C10K 1_555 1_555
C11K C8K 1_555 1_555
H1K O3B 1_555 1_555
O3C Ba1 1_555 1_555
H1C O3C 1_555 1_555
H1F O3C 1_555 1_555
O3D Ba2 1_555 1_555
H1D O3D 1_555 1_555
H1G O3D 1_555 1_555
O3E Ba2A 1_555 1_555
H1E O3E 1_555 1_555
H1H O3E 1_555 1_555
Ba1_2 O1I 1_555 1_555
Ba1_3 O1C 1_555 1_555
Ba1_4 O1F 1_555 1_555
Ba1A_2 O1D 1_555 1_555
Ba1A_3 O1G 1_555 1_555
Ba1A_4 O1J 1_555 1_555
Ba1B_2 O1E 1_555 1_555
Ba1B_3 O1H 1_555 1_555
Ba1B_4 O3E 1_555 1_555
Ba1B_5 O1K 1_555 1_555
Ba2_2 O1D 1_555 1_555
Ba2_3 O1G 1_555 1_555
Ba2_4 O1I 1_555 1_555
Ba2A_2 O1E 1_555 1_555
Ba2A_3 O1H 1_555 1_555
Ba2A_4 O1F 1_555 1_555
O1C_2 Ba1 1_555 1_555
O1D_2 Ba2 1_555 1_555
O1E_2 Ba2A 1_555 1_555
O1E_3 Ba1B 1_555 1_555
O1F_2 Ba1 1_555 1_555
O1F_3 Ba2A 1_555 1_555
O1G_2 Ba2 1_555 1_555
O1H_2 Ba2A 1_555 1_555
O1H_3 Ba1B 1_555 1_555
O1I_2 Ba1 1_555 1_555
O1J_2 Ba1A 1_555 1_555
O1K_2 Ba2 1_555 1_555
O2C_2 Ba1 1_555 1_555
O2D_2 Ba1A 1_555 1_555
O2E_2 Ba1B 1_555 1_555
O2F_2 Ba1 1_555 1_555
O2G_2 Ba1A 1_555 1_555
O2H_2 Ba1B 1_555 1_555
O2I_2 Ba1 1_555 1_555
O2J_2 Ba1A 1_555 1_555
O2K_2 Ba1B 1_555 1_555
O3C_2 Ba2A 1_555 1_555
O3E_2 Ba1B 1_555 1_555
Ba2 O3 1_555 1_555
Ba2 O1I_2 1_555 1_555
C8 C11 1_555 1_555
C9 C10 1_555 1_555
O2C Ba1_3 1_555 1_555
C9C C10C 1_555 1_555
O2F Ba1_4 1_555 1_555
C2F C3F 1_555 1_555
C9F C10F 1_555 1_555
O2I Ba1_2 1_555 1_555
C2I C3I 1_555 1_555
C9I C10I 1_555 1_555
Ba1A O3D 1_555 1_555
Ba1A O1D_2 1_555 1_555
Ba1A O1G_2 1_555 1_555
Ba2A O3A 1_555 1_555
Ba2A O1J_2 1_555 1_555
O2A C11A 1_555 1_555
C8A C11A 1_555 1_555
C9A C10A 1_555 1_555
O2D Ba1A_2 1_555 1_555
C9D C10D 1_555 1_555
O2G Ba1A_3 1_555 1_555
C2G C3G 1_555 1_555
C9G C10G 1_555 1_555
O1J Ba2A_4 1_555 1_555
O2J Ba1A_4 1_555 1_555
C2J C3J 1_555 1_555
C9J C10J 1_555 1_555
Ba1B O3B 1_555 1_555
Ba1B O1K_2 1_555 1_555
O2B C11B 1_555 1_555
C8B C11B 1_555 1_555
C9B C10B 1_555 1_555
O2E Ba1B_2 1_555 1_555
C9E C10E 1_555 1_555
O2H Ba1B_3 1_555 1_555
C2H C3H 1_555 1_555
C9H C10H 1_555 1_555
O1K Ba2_4 1_555 1_555
O2K Ba1B_5 1_555 1_555
C2K C3K 1_555 1_555
C9K C10K 1_555 1_555
O3C Ba2A_2 1_555 1_555
Ba1_3 O1F_3 1_555 1_555
Ba1_3 O3C_2 1_555 1_555
Ba1B_4 O1E_2 1_555 1_555
Ba1B_4 O1H_2 1_555 1_555
Ba2A_2 O1C_2 1_555 1_555
Ba2A_2 O1F_2 1_555 1_555

#END
