
#######################################################################
#
#                 Cambridge Crystallographic Data Centre
#                                CCDC 
#
#######################################################################
#
# If this CIF has been generated from an entry in the Cambridge 
# Structural Database, then it will include bibliographic, chemical, 
# crystal, experimental, refinement or atomic coordinate data resulting 
# from the CCDC's data processing and validation procedures.
#
#######################################################################

data_WOQWUU
_symmetry_cell_setting           triclinic
_symmetry_space_group_name_H-M   'P -1'
_symmetry_Int_Tables_number      2
_space_group_name_Hall           '-P 1'
loop_
_symmetry_equiv_pos_site_id
_symmetry_equiv_pos_as_xyz
1 x,y,z
2 -x,-y,-z
_cell_length_a                   6.9259(10)
_cell_length_b                   10.3196(15)
_cell_length_c                   10.3838(14)
_cell_angle_alpha                64.295(2)
_cell_angle_beta                 70.943(3)
_cell_angle_gamma                85.582(3)
_cell_volume                     630.242
loop_
_atom_site_label
_atom_site_type_symbol
_atom_site_fract_x
_atom_site_fract_y
_atom_site_fract_z
Cu1 Cu -0.21162(7) -0.04759(4) 0.15594(4)
N1 N -0.2375(6) 0.1378(4) 0.1696(4)
N2 N -0.3020(6) 0.2334(3) 0.0840(4)
N3 N -0.3655(8) 0.3288(4) 0.0022(5)
N4 N 0.1628(5) -0.0421(4) 0.0661(4)
N5 N 0.2776(5) -0.0505(3) 0.1330(3)
N6 N 0.3804(6) -0.0609(5) 0.2028(5)
N7 N -0.2180(5) -0.2534(4) 0.1810(4)
N8 N -0.2377(5) -0.1538(3) 0.3786(4)
C1 C -0.2114(6) -0.3007(5) 0.0785(5)
H1 H -0.2073 -0.2343 -0.0181
C2 C -0.2106(7) -0.4480(5) 0.1131(6)
H2 H -0.2051 -0.4776 0.0393
C3 C -0.2176(7) -0.5469(5) 0.2518(5)
H3 H -0.2148 -0.6443 0.2736
C4 C -0.2292(6) -0.5017(4) 0.3640(5)
C5 C -0.2481(6) -0.5966(4) 0.5174(5)
H4 H -0.2508 -0.6956 0.5470
C6 C -0.2623(6) -0.5463(5) 0.6211(5)
H5 H -0.2743 -0.6108 0.7200
C7 C -0.2588(6) -0.3944(5) 0.5788(5)
C8 C -0.2753(7) -0.3327(5) 0.6798(5)
H6 H -0.2897 -0.3912 0.7807
C9 C -0.2698(8) -0.1867(5) 0.6269(5)
H7 H -0.2780 -0.1449 0.6917
C10 C -0.2519(7) -0.0996(5) 0.4769(5)
H8 H -0.2498 -0.0002 0.4437
C11 C -0.2417(5) -0.2986(4) 0.4297(4)
C12 C -0.2278(5) -0.3527(4) 0.3212(4)
N4A N -0.1628(5) 0.0421(4) -0.0661(4)
N5A N -0.2776(5) 0.0505(3) -0.1330(3)
N6A N -0.3804(6) 0.0609(5) -0.2028(5)
N6_2 N -0.6196(6) -0.0609(5) 0.2028(5)
Cu1A Cu 0.21162(7) 0.04759(4) -0.15594(4)
Cu1A_2 Cu -0.78838(7) 0.04759(4) -0.15594(4)
Cu1_2 Cu 0.78838(7) -0.04759(4) 0.15594(4)
N1A N 0.2375(6) -0.1378(4) -0.1696(4)
N2A N 0.3020(6) -0.2334(3) -0.0840(4)
N3A N 0.3655(8) -0.3288(4) -0.0022(5)
N6A_2 N 0.6196(6) 0.0609(5) -0.2028(5)
N7A N 0.2180(5) 0.2534(4) -0.1810(4)
N8A N 0.2377(5) 0.1538(3) -0.3786(4)
C1A C 0.2114(6) 0.3007(5) -0.0785(5)
H1A H 0.2073 0.2343 0.0181
C2A C 0.2106(7) 0.4480(5) -0.1131(6)
H2A H 0.2051 0.4776 -0.0393
C3A C 0.2176(7) 0.5469(5) -0.2518(5)
H3A H 0.2148 0.6443 -0.2736
C4A C 0.2292(6) 0.5017(4) -0.3640(5)
C5A C 0.2481(6) 0.5966(4) -0.5174(5)
H4A H 0.2508 0.6956 -0.5470
C6A C 0.2623(6) 0.5463(5) -0.6211(5)
H5A H 0.2743 0.6108 -0.7200
C7A C 0.2588(6) 0.3944(5) -0.5788(5)
C8A C 0.2753(7) 0.3327(5) -0.6798(5)
H6A H 0.2897 0.3912 -0.7807
C9A C 0.2698(8) 0.1867(5) -0.6269(5)
H7A H 0.2780 0.1449 -0.6917
C10A C 0.2519(7) 0.0996(5) -0.4769(5)
H8A H 0.2498 0.0002 -0.4437
C11A C 0.2417(5) 0.2986(4) -0.4297(4)
C12A C 0.2278(5) 0.3527(4) -0.3212(4)
loop_
_geom_bond_atom_site_label_1
_geom_bond_atom_site_label_2
_geom_bond_site_symmetry_1
_geom_bond_site_symmetry_2
Cu1 N1 1_555 1_555
N1 N2 1_555 1_555
N2 N3 1_555 1_555
N4 Cu1 1_555 1_555
N5 N4 1_555 1_555
N6 N5 1_555 1_555
N7 Cu1 1_555 1_555
N8 Cu1 1_555 1_555
C1 N7 1_555 1_555
H1 C1 1_555 1_555
C2 C1 1_555 1_555
H2 C2 1_555 1_555
C3 C2 1_555 1_555
H3 C3 1_555 1_555
C4 C3 1_555 1_555
C5 C4 1_555 1_555
H4 C5 1_555 1_555
C6 C5 1_555 1_555
H5 C6 1_555 1_555
C7 C6 1_555 1_555
C8 C7 1_555 1_555
H6 C8 1_555 1_555
C9 C8 1_555 1_555
H7 C9 1_555 1_555
C10 N8 1_555 1_555
H8 C10 1_555 1_555
C11 N8 1_555 1_555
C12 N7 1_555 1_555
N4A Cu1 1_555 1_555
N5A N4A 1_555 1_555
N6A N5A 1_555 1_555
N6_2 Cu1 1_555 1_555
Cu1A N4 1_555 1_555
Cu1A_2 N6A 1_555 1_555
Cu1_2 N6 1_555 1_555
N1A Cu1A 1_555 1_555
N2A N1A 1_555 1_555
N3A N2A 1_555 1_555
N6A_2 Cu1A 1_555 1_555
N7A Cu1A 1_555 1_555
N8A Cu1A 1_555 1_555
C1A N7A 1_555 1_555
H1A C1A 1_555 1_555
C2A C1A 1_555 1_555
H2A C2A 1_555 1_555
C3A C2A 1_555 1_555
H3A C3A 1_555 1_555
C4A C3A 1_555 1_555
C5A C4A 1_555 1_555
H4A C5A 1_555 1_555
C6A C5A 1_555 1_555
H5A C6A 1_555 1_555
C7A C6A 1_555 1_555
C8A C7A 1_555 1_555
H6A C8A 1_555 1_555
C9A C8A 1_555 1_555
H7A C9A 1_555 1_555
C10A N8A 1_555 1_555
H8A C10A 1_555 1_555
C11A N8A 1_555 1_555
C12A N7A 1_555 1_555
C4 C12 1_555 1_555
C7 C11 1_555 1_555
C9 C10 1_555 1_555
C11 C12 1_555 1_555
N4A Cu1A 1_555 1_555
C4A C12A 1_555 1_555
C7A C11A 1_555 1_555
C9A C10A 1_555 1_555
C11A C12A 1_555 1_555

#END
