
#######################################################################
#
#                 Cambridge Crystallographic Data Centre
#                                CCDC 
#
#######################################################################
#
# If this CIF has been generated from an entry in the Cambridge 
# Structural Database, then it will include bibliographic, chemical, 
# crystal, experimental, refinement or atomic coordinate data resulting 
# from the CCDC's data processing and validation procedures.
#
#######################################################################

data_WOQXIJ
_symmetry_cell_setting           monoclinic
_symmetry_space_group_name_H-M   'P 21/n'
_symmetry_Int_Tables_number      14
_space_group_name_Hall           '-P 2yn'
loop_
_symmetry_equiv_pos_site_id
_symmetry_equiv_pos_as_xyz
1 x,y,z
2 1/2+x,1/2-y,1/2+z
3 -x,-y,-z
4 1/2-x,1/2+y,1/2-z
_cell_length_a                   7.1100(10)
_cell_length_b                   15.100(2)
_cell_length_c                   7.1690(6)
_cell_angle_alpha                90.0
_cell_angle_beta                 111.34
_cell_angle_gamma                90.0
_cell_volume                     716.9
loop_
_atom_site_label
_atom_site_type_symbol
_atom_site_fract_x
_atom_site_fract_y
_atom_site_fract_z
Cd1 Cd 0.49044(3) 0.196897(12) 0.08011(3)
O1 O 0.3052(3) 0.30344(12) -0.1883(3)
O2 O 0.3998(4) 0.2788(2) 0.3030(5)
H1 H 0.2859(4) 0.2882(2) 0.2891(5)
H2 H 0.4805(4) 0.3133(2) 0.4002(5)
O3 O 0.6927(3) 0.36468(14) -0.4227(3)
O4 O 0.9509(3) 0.45133(15) -0.2783(4)
O5 O 0.4974(3) 0.12957(15) -0.2050(3)
H3 H 0.5027(3) 0.06710(15) -0.2314(3)
H4 H 0.4009(3) 0.14732(15) -0.2920(3)
C1 C 0.7705(4) 0.4299(2) -0.3138(4)
O6 O 0.6200(3) 0.3295(2) -0.0052(3)
C2 C 0.4594(4) 0.3530(2) -0.1399(4)
C3 C 0.6469(4) 0.4825(2) -0.2216(4)
H5 H 0.6167(4) 0.5388(2) -0.2739(4)
H6 H 0.7384(4) 0.4833(2) -0.0735(4)
C4 C 0.4446(4) 0.4405(2) -0.2454(4)
H7 H 0.3863(4) 0.4347(2) -0.3889(4)
H8 H 0.3631(4) 0.4815(2) -0.1964(4)
O1A O 0.8052(3) 0.19656(12) 0.3117(3)
O3A O 0.1927(3) 0.13532(14) 0.0773(3)
O4A O 0.4509(3) 0.04867(15) 0.2217(4)
Cd1A Cd -0.00956(3) 0.303103(12) -0.41989(3)
Cd1A_2 Cd 0.99044(3) 0.303103(12) -0.41989(3)
loop_
_geom_bond_atom_site_label_1
_geom_bond_atom_site_label_2
_geom_bond_site_symmetry_1
_geom_bond_site_symmetry_2
Cd1 O1 1_555 1_555
O1 C2 1_555 1_555
O2 Cd1 1_555 1_555
H1 O2 1_555 1_555
H2 O2 1_555 1_555
O3 C1 1_555 1_555
O4 C1 1_555 1_555
O5 Cd1 1_555 1_555
H3 O5 1_555 1_555
H4 O5 1_555 1_555
C1 C3 1_555 1_555
O6 Cd1 1_555 1_555
C2 O6 1_555 1_555
C3 H5 1_555 1_555
H6 C3 1_555 1_555
C4 C2 1_555 1_555
H7 C4 1_555 1_555
H8 C4 1_555 1_555
O1A Cd1 1_555 1_555
O3A Cd1 1_555 1_555
O4A Cd1 1_555 1_555
Cd1A O1 1_555 1_555
Cd1A_2 O3 1_555 1_555
O4 Cd1A_2 1_555 1_555
C3 C4 1_555 1_555

#END
