
#######################################################################
#
#                 Cambridge Crystallographic Data Centre
#                                CCDC 
#
#######################################################################
#
# If this CIF has been generated from an entry in the Cambridge 
# Structural Database, then it will include bibliographic, chemical, 
# crystal, experimental, refinement or atomic coordinate data resulting 
# from the CCDC's data processing and validation procedures.
#
#######################################################################

data_WOQXIJ01
_symmetry_cell_setting           monoclinic
_symmetry_space_group_name_H-M   'P 21/n'
_symmetry_Int_Tables_number      14
_space_group_name_Hall           '-P 2yn'
loop_
_symmetry_equiv_pos_site_id
_symmetry_equiv_pos_as_xyz
1 x,y,z
2 1/2-x,1/2+y,1/2-z
3 -x,-y,-z
4 1/2+x,1/2-y,1/2+z
_cell_length_a                   7.1230(2)
_cell_length_b                   15.1390(4)
_cell_length_c                   7.1850(2)
_cell_angle_alpha                90
_cell_angle_beta                 111.3950(14)
_cell_angle_gamma                90
_cell_volume                     721.402
loop_
_atom_site_label
_atom_site_type_symbol
_atom_site_fract_x
_atom_site_fract_y
_atom_site_fract_z
Cd1 Cd 0.990403(17) 0.196902(8) 0.080184(17)
O1 O 0.9966(3) 0.12943(12) -0.2057(2)
H1 H 0.896(6) 0.148(3) -0.284(6)
H2 H 0.998(5) 0.070(3) -0.208(6)
O2 O 0.8987(3) 0.27915(19) 0.3022(4)
H3 H 0.988(5) 0.308(2) 0.394(5)
H4 H 0.799(9) 0.285(3) 0.292(8)
O3 O 0.6929(2) 0.13536(10) 0.0774(2)
O4 O 0.9511(2) 0.04893(12) 0.2218(3)
C1 C 0.7707(2) 0.07007(11) 0.1867(2)
C2 C 0.6468(3) 0.01771(11) 0.2792(3)
H5 H 0.717(4) 0.0074(18) 0.412(4)
H6 H 0.625(4) -0.0432(19) 0.223(4)
C3 C 0.4450(3) 0.05959(12) 0.2543(3)
H7 H 0.361(6) 0.021(3) 0.311(5)
H8 H 0.367(5) 0.073(2) 0.116(5)
C4 C 0.4596(2) 0.14720(11) 0.3600(3)
O5 O 0.6200(2) 0.17060(13) 0.4948(3)
O6 O 0.3054(2) 0.19658(8) 0.3125(3)
O5C O 1.1200(2) 0.32940(13) -0.0052(3)
O6_2 O 1.3054(2) 0.19658(8) 0.3125(3)
O6C O 0.8054(2) 0.30342(8) -0.1875(3)
Cd1C Cd 0.490403(17) 0.303098(8) 0.580184(17)
Cd1_2 Cd -0.009597(17) 0.196902(8) 0.080184(17)
loop_
_geom_bond_atom_site_label_1
_geom_bond_atom_site_label_2
_geom_bond_site_symmetry_1
_geom_bond_site_symmetry_2
Cd1 O1 1_555 1_555
O1 H1 1_555 1_555
H2 O1 1_555 1_555
O2 Cd1 1_555 1_555
H3 O2 1_555 1_555
H4 O2 1_555 1_555
O3 Cd1 1_555 1_555
O4 Cd1 1_555 1_555
C1 O3 1_555 1_555
C2 C1 1_555 1_555
H5 C2 1_555 1_555
H6 C2 1_555 1_555
C3 C2 1_555 1_555
H7 C3 1_555 1_555
H8 C3 1_555 1_555
C4 C3 1_555 1_555
O5 C4 1_555 1_555
O6 C4 1_555 1_555
O5C Cd1 1_555 1_555
O6_2 Cd1 1_555 1_555
O6C Cd1 1_555 1_555
Cd1C O5 1_555 1_555
Cd1_2 O6 1_555 1_555
O4 C1 1_555 1_555
O6 Cd1C 1_555 1_555

#END
