
#######################################################################
#
#                 Cambridge Crystallographic Data Centre
#                                CCDC 
#
#######################################################################
#
# If this CIF has been generated from an entry in the Cambridge 
# Structural Database, then it will include bibliographic, chemical, 
# crystal, experimental, refinement or atomic coordinate data resulting 
# from the CCDC's data processing and validation procedures.
#
#######################################################################

data_WOQXOP
_symmetry_cell_setting           monoclinic
_symmetry_space_group_name_H-M   'C 2/c'
_symmetry_Int_Tables_number      15
_space_group_name_Hall           '-C 2yn'
loop_
_symmetry_equiv_pos_site_id
_symmetry_equiv_pos_as_xyz
1 x,y,z
2 x,-y,1/2+z
3 1/2+x,1/2+y,z
4 1/2+x,1/2-y,1/2+z
5 -x,-y,-z
6 -x,y,1/2-z
7 1/2-x,1/2-y,-z
8 1/2-x,1/2+y,1/2-z
_cell_length_a                   19.928(3)
_cell_length_b                   10.060(3)
_cell_length_c                   14.680(3)
_cell_angle_alpha                90
_cell_angle_beta                 110.30(1)
_cell_angle_gamma                90
_cell_volume                     2760.19
loop_
_atom_site_label
_atom_site_type_symbol
_atom_site_fract_x
_atom_site_fract_y
_atom_site_fract_z
Mn1 Mn 0.5000 0.0050(1) 0.2500
S1 S 0.28814(8) -0.0820(2) 0.3244(1)
N1 N 0.4412(2) 0.1694(4) 0.1437(3)
N2 N 0.4313(2) -0.1554(4) 0.1488(3)
N3 N 0.4205(2) -0.0019(5) 0.3214(3)
C1 C 0.3754(3) 0.2094(5) 0.1341(4)
C2 C 0.3379(3) 0.3024(5) 0.0675(4)
C3 C 0.3680(3) 0.3598(5) 0.0052(4)
C4 C 0.4364(3) 0.3213(6) 0.0174(4)
C5 C 0.4703(3) 0.2284(6) 0.0859(4)
C6 C 0.4109(3) -0.1455(5) 0.0519(4)
C7 C 0.3638(3) -0.2319(5) -0.0119(3)
C8 C 0.3363(3) -0.3368(5) 0.0241(4)
C9 C 0.3568(3) -0.3484(5) 0.1241(4)
C10 C 0.4034(3) -0.2580(5) 0.1817(3)
C11 C 0.3267(3) 0.4543(5) -0.0746(4)
C12 C 0.2860(3) -0.4357(5) -0.0433(4)
C13 C 0.3654(3) -0.0346(4) 0.3227(3)
H1 H 0.3532 0.1719 0.1762
H2 H 0.2913 0.3277 0.0644
H3 H 0.4605 0.3591 -0.0217
H4 H 0.5180 0.2048 0.0924
H5 H 0.4300 -0.0750 0.0257
H6 H 0.3505 -0.2190 -0.0799
H7 H 0.3384 -0.4182 0.1522
H8 H 0.4170 -0.2688 0.2500
H9 H 0.3593 0.4951 -0.0998
H10 H 0.2926 0.4040 -0.1240
H11 H 0.2574 -0.4743 -0.0105
H12 H 0.2565 -0.3897 -0.0992
N1E N 0.5588(2) 0.1694(4) 0.3563(3)
N2E N 0.5687(2) -0.1554(4) 0.3512(3)
N3E N 0.5795(2) -0.0019(5) 0.1786(3)
C12_2 C 0.2860(3) 0.5643(5) -0.0433(4)
C11_2 C 0.3267(3) -0.5457(5) -0.0746(4)
C13E C 0.6346(3) -0.0346(4) 0.1773(3)
C8_2 C 0.3363(3) 0.6632(5) 0.0241(4)
H11_2 H 0.2574 0.5257 -0.0105
H12_2 H 0.2565 0.6103 -0.0992
C3_2 C 0.3680(3) -0.6402(5) 0.0052(4)
H9_2 H 0.3593 -0.5049 -0.0998
H10_2 H 0.2926 -0.5960 -0.1240
S1E S 0.71186(8) -0.0820(2) 0.1756(1)
C7_2 C 0.3638(3) 0.7681(5) -0.0119(3)
C9_2 C 0.3568(3) 0.6516(5) 0.1241(4)
C2_2 C 0.3379(3) -0.6976(5) 0.0675(4)
C4_2 C 0.4364(3) -0.6787(6) 0.0174(4)
C6_2 C 0.4109(3) 0.8545(5) 0.0519(4)
H6_2 H 0.3505 0.7810 -0.0799
C10_2 C 0.4034(3) 0.7420(5) 0.1817(3)
H7_2 H 0.3384 0.5818 0.1522
C1_2 C 0.3754(3) -0.7906(5) 0.1341(4)
H2_2 H 0.2913 -0.6723 0.0644
C5_2 C 0.4703(3) -0.7716(6) 0.0859(4)
H3_2 H 0.4605 -0.6409 -0.0217
N2_2 N 0.4313(2) 0.8446(4) 0.1488(3)
H5_2 H 0.4300 0.9250 0.0257
H8_2 H 0.4170 0.7312 0.2500
N1_2 N 0.4412(2) -0.8306(4) 0.1437(3)
H1_2 H 0.3532 -0.8281 0.1762
H4_2 H 0.5180 -0.7952 0.0924
Mn1_2 Mn 0.5000 1.0050(1) 0.2500
Mn1_3 Mn 0.5000 -0.9950(1) 0.2500
loop_
_geom_bond_atom_site_label_1
_geom_bond_atom_site_label_2
_geom_bond_site_symmetry_1
_geom_bond_site_symmetry_2
Mn1 N1 1_555 1_555
S1 C13 1_555 1_555
N1 C1 1_555 1_555
N2 Mn1 1_555 1_555
N3 Mn1 1_555 1_555
C1 C2 1_555 1_555
C2 C3 1_555 1_555
C3 C4 1_555 1_555
C4 C5 1_555 1_555
C5 N1 1_555 1_555
C6 N2 1_555 1_555
C7 C6 1_555 1_555
C8 C7 1_555 1_555
C9 C8 1_555 1_555
C10 N2 1_555 1_555
C11 C3 1_555 1_555
C12 C8 1_555 1_555
C13 N3 1_555 1_555
H1 C1 1_555 1_555
H2 C2 1_555 1_555
H3 C4 1_555 1_555
H4 C5 1_555 1_555
H5 C6 1_555 1_555
H6 C7 1_555 1_555
H7 C9 1_555 1_555
H8 C10 1_555 1_555
H9 C11 1_555 1_555
H10 C11 1_555 1_555
H11 C12 1_555 1_555
H12 C12 1_555 1_555
N1E Mn1 1_555 1_555
N2E Mn1 1_555 1_555
N3E Mn1 1_555 1_555
C12_2 C11 1_555 1_555
C11_2 C12 1_555 1_555
C13E N3E 1_555 1_555
C8_2 C12_2 1_555 1_555
H11_2 C12_2 1_555 1_555
H12_2 C12_2 1_555 1_555
C3_2 C11_2 1_555 1_555
H9_2 C11_2 1_555 1_555
H10_2 C11_2 1_555 1_555
S1E C13E 1_555 1_555
C7_2 C8_2 1_555 1_555
C9_2 C8_2 1_555 1_555
C2_2 C3_2 1_555 1_555
C4_2 C3_2 1_555 1_555
C6_2 C7_2 1_555 1_555
H6_2 C7_2 1_555 1_555
C10_2 C9_2 1_555 1_555
H7_2 C9_2 1_555 1_555
C1_2 C2_2 1_555 1_555
H2_2 C2_2 1_555 1_555
C5_2 C4_2 1_555 1_555
H3_2 C4_2 1_555 1_555
N2_2 C6_2 1_555 1_555
H5_2 C6_2 1_555 1_555
H8_2 C10_2 1_555 1_555
N1_2 C1_2 1_555 1_555
H1_2 C1_2 1_555 1_555
H4_2 C5_2 1_555 1_555
Mn1_2 N2_2 1_555 1_555
Mn1_3 N1_2 1_555 1_555
C9 C10 1_555 1_555
C10_2 N2_2 1_555 1_555
C5_2 N1_2 1_555 1_555

#END
