
#######################################################################
#
#                 Cambridge Crystallographic Data Centre
#                                CCDC 
#
#######################################################################
#
# If this CIF has been generated from an entry in the Cambridge 
# Structural Database, then it will include bibliographic, chemical, 
# crystal, experimental, refinement or atomic coordinate data resulting 
# from the CCDC's data processing and validation procedures.
#
#######################################################################

data_WOQXIJ03
_symmetry_cell_setting           monoclinic
_symmetry_space_group_name_H-M   'P 21/c'
_symmetry_Int_Tables_number      14
_space_group_name_Hall           '-P 2ybc'
loop_
_symmetry_equiv_pos_site_id
_symmetry_equiv_pos_as_xyz
1 x,y,z
2 -x,1/2+y,1/2-z
3 -x,-y,-z
4 x,1/2-y,1/2+z
_cell_length_a                   7.7130(15)
_cell_length_b                   12.231(2)
_cell_length_c                   8.0560(16)
_cell_angle_alpha                90
_cell_angle_beta                 94.71(3)
_cell_angle_gamma                90
_cell_volume                     757.418
loop_
_atom_site_label
_atom_site_type_symbol
_atom_site_fract_x
_atom_site_fract_y
_atom_site_fract_z
Cd1 Cd 0.17614(3) 0.587427(19) 0.08353(3)
C1 C 0.4820(4) 0.6353(3) 0.2526(4)
C2 C 0.6501(5) 0.6626(3) 0.3501(6)
H1 H 0.6471 0.6327 0.4613
H2 H 0.7436 0.6262 0.2983
C3 C 0.6922(4) 0.7799(3) 0.3648(5)
H3 H 0.6046 0.8150 0.4262
H4 H 0.6840 0.8113 0.2538
C4 C 0.8675(4) 0.8072(3) 0.4482(4)
O1 O 0.4603(3) 0.5387(2) 0.2005(3)
O2 O 0.3664(3) 0.70570(19) 0.2216(3)
O3 O 0.9815(3) 0.7385(2) 0.4838(3)
O4 O 0.8946(3) 0.90780(18) 0.4832(3)
O5 O 0.0710(4) 0.5424(2) 0.3376(3)
H5 H -0.012(5) 0.499(3) 0.325(6)
H6 H 0.047(5) 0.598(2) 0.392(5)
O6 O 0.2576(3) 0.5909(2) -0.1850(3)
H7 H 0.348(4) 0.553(3) -0.197(5)
H8 H 0.278(5) 0.6562(17) -0.213(5)
Cd1C Cd 1.17614(3) 0.912573(19) 0.58353(3)
Cd1A Cd 0.82386(3) 1.087427(19) 0.41647(3)
O3C O -0.0185(3) 0.7615(2) -0.0162(3)
O4A O 0.1054(3) 0.40780(18) 0.0168(3)
O4C O -0.1054(3) 0.59220(18) -0.0168(3)
loop_
_geom_bond_atom_site_label_1
_geom_bond_atom_site_label_2
_geom_bond_site_symmetry_1
_geom_bond_site_symmetry_2
Cd1 O1 1_555 1_555
C1 C2 1_555 1_555
C2 H1 1_555 1_555
H2 C2 1_555 1_555
C3 C2 1_555 1_555
H3 C3 1_555 1_555
H4 C3 1_555 1_555
C4 C3 1_555 1_555
O1 C1 1_555 1_555
O2 Cd1 1_555 1_555
O3 C4 1_555 1_555
O4 C4 1_555 1_555
O5 Cd1 1_555 1_555
H5 O5 1_555 1_555
H6 O5 1_555 1_555
O6 Cd1 1_555 1_555
H7 O6 1_555 1_555
H8 O6 1_555 1_555
Cd1C O3 1_555 1_555
Cd1A O4 1_555 1_555
O3C Cd1 1_555 1_555
O4A Cd1 1_555 1_555
O4C Cd1 1_555 1_555
C1 O2 1_555 1_555
O4 Cd1C 1_555 1_555

#END
