
#######################################################################
#
#                 Cambridge Crystallographic Data Centre
#                                CCDC 
#
#######################################################################
#
# If this CIF has been generated from an entry in the Cambridge 
# Structural Database, then it will include bibliographic, chemical, 
# crystal, experimental, refinement or atomic coordinate data resulting 
# from the CCDC's data processing and validation procedures.
#
#######################################################################

data_WOQYUW
_symmetry_cell_setting           monoclinic
_symmetry_space_group_name_H-M   'P 21/c'
_symmetry_Int_Tables_number      14
_space_group_name_Hall           '-P 2ybc'
loop_
_symmetry_equiv_pos_site_id
_symmetry_equiv_pos_as_xyz
1 x,y,z
2 x,1/2-y,1/2+z
3 -x,-y,-z
4 -x,1/2+y,1/2-z
_cell_length_a                   7.4942(10)
_cell_length_b                   7.7257(11)
_cell_length_c                   17.852(3)
_cell_angle_alpha                90
_cell_angle_beta                 97.740(2)
_cell_angle_gamma                90
_cell_volume                     1024.18
loop_
_atom_site_label
_atom_site_type_symbol
_atom_site_fract_x
_atom_site_fract_y
_atom_site_fract_z
Co1 Co 0.12893(14) 0.05357(13) 0.36354(5)
Co2 Co -0.21524(14) -0.19480(13) 0.30831(6)
P1 P -0.0534(3) 0.4237(3) 0.31096(11)
O1 O -0.0918(7) -0.0457(6) 0.4074(3)
O2 O 0.0736(7) 0.3080(6) 0.3624(3)
O3 O 0.0120(7) 0.4400(6) 0.2331(3)
O4 O 0.3017(7) -0.1523(7) 0.3834(3)
O5 O 0.3513(7) 0.1344(7) 0.3015(3)
O6 O -0.2041(7) -0.0956(7) 0.5158(3)
O7 O 0.5582(7) -0.2597(6) 0.3566(3)
O8 O -0.0770(7) 0.5987(6) 0.3453(3)
O9 O 0.6134(7) 0.0200(6) 0.2767(3)
O10 O -0.2488(7) 0.3390(6) 0.2997(3)
H1 H -0.2438(7) 0.2424(6) 0.2810(3)
C1 C -0.0859(10) -0.0426(10) 0.4786(4)
C2 C 0.4407(11) -0.1439(10) 0.3524(4)
C3 C 0.4705(11) 0.0190(10) 0.3053(4)
C1B C 0.0859(10) 0.0426(10) 0.5214(4)
O1B O 0.0918(7) 0.0457(6) 0.5926(3)
O6B O 0.2041(7) 0.0956(7) 0.4842(3)
P1C P 0.0534(3) -0.0763(3) 0.18904(11)
O2C O -0.0736(7) -0.1920(6) 0.1376(3)
O3C O -0.0120(7) -0.0600(6) 0.2669(3)
O8C O 0.0770(7) 0.0987(6) 0.1547(3)
O10C O 0.2488(7) -0.1610(6) 0.2003(3)
H1C H 0.2438(7) -0.2576(6) 0.2190(3)
Co1B Co -0.12893(14) -0.05357(13) 0.63646(5)
Co2B Co 0.21524(14) 0.19480(13) 0.69169(6)
O4_2 O -0.6983(7) -0.1523(7) 0.3834(3)
O5_2 O -0.6487(7) 0.1344(7) 0.3015(3)
O7_2 O -0.4418(7) -0.2597(6) 0.3566(3)
O9_2 O -0.3866(7) 0.0200(6) 0.2767(3)
C2_2 C -0.5593(11) -0.1439(10) 0.3524(4)
C3_2 C -0.5295(11) 0.0190(10) 0.3053(4)
O8_2 O -0.0770(7) -0.4013(6) 0.3453(3)
Co1C Co -0.12893(14) 0.55357(13) 0.13646(5)
Co2C Co 0.21524(14) 0.30520(13) 0.19169(6)
Co2_2 Co 0.78476(14) -0.19480(13) 0.30831(6)
Co2_3 Co -0.21524(14) 0.80520(13) 0.30831(6)
Co1C_2 Co -0.12893(14) -0.44643(13) 0.13646(5)
O2B O -0.0736(7) -0.3080(6) 0.6376(3)
O3A O 0.0120(7) 0.0600(6) 0.7331(3)
O4B O -0.3017(7) 0.1523(7) 0.6166(3)
O5B O -0.3513(7) -0.1344(7) 0.6985(3)
O7B O 0.4418(7) 0.2597(6) 0.6434(3)
O8B O 0.0770(7) 0.4013(6) 0.6547(3)
O9B O 0.3866(7) -0.0200(6) 0.7233(3)
Co1_2 Co -0.87107(14) 0.05357(13) 0.36354(5)
N1 N 0.3876(11) 0.0356(9) -0.0683(4)
H2 H 0.4173(11) -0.0514(9) -0.0978(4)
H3 H 0.3014(11) 0.0991(9) -0.0956(4)
C4 C 0.3145(13) -0.0385(11) -0.0013(5)
H4 H 0.2116(13) -0.1112(11) -0.0184(5)
H5 H 0.2741(13) 0.0548(11) 0.0286(5)
C5 C 0.5449(13) 0.1436(11) -0.0469(5)
H6 H 0.5122(13) 0.2436(11) -0.0188(5)
H7 H 0.5922(13) 0.1842(11) -0.0917(5)
C5B C 0.4551(13) -0.1436(11) 0.0469(5)
N1B N 0.6124(11) -0.0356(9) 0.0683(4)
H2B H 0.5827(11) 0.0514(9) 0.0978(4)
H3B H 0.6986(11) -0.0991(9) 0.0956(4)
C4B C 0.6855(13) 0.0385(11) 0.0013(5)
H4B H 0.7884(13) 0.1112(11) 0.0184(5)
H5B H 0.7259(13) -0.0548(11) -0.0286(5)
H6B H 0.4878(13) -0.2436(11) 0.0188(5)
H7B H 0.4078(13) -0.1842(11) 0.0917(5)
loop_
_geom_bond_atom_site_label_1
_geom_bond_atom_site_label_2
_geom_bond_site_symmetry_1
_geom_bond_site_symmetry_2
Co1 O1 1_555 1_555
Co2 O1 1_555 1_555
P1 O2 1_555 1_555
O1 C1 1_555 1_555
O2 Co1 1_555 1_555
O3 P1 1_555 1_555
O4 Co1 1_555 1_555
O5 Co1 1_555 1_555
O6 C1 1_555 1_555
O7 C2 1_555 1_555
O8 P1 1_555 1_555
O9 C3 1_555 1_555
O10 P1 1_555 1_555
H1 O10 1_555 1_555
C1 C1B 1_555 1_555
C2 O4 1_555 1_555
C3 O5 1_555 1_555
N1 H2 1_555 1_555
H3 N1 1_555 1_555
C4 N1 1_555 1_555
H4 C4 1_555 1_555
H5 C4 1_555 1_555
C5 N1 1_555 1_555
H6 C5 1_555 1_555
H7 C5 1_555 1_555
C1B O1B 1_555 1_555
O1B Co1B 1_555 1_555
O6B Co1 1_555 1_555
C5B C4 1_555 1_555
N1B C5B 1_555 1_555
H2B N1B 1_555 1_555
H3B N1B 1_555 1_555
C4B C5 1_555 1_555
H4B C4B 1_555 1_555
H5B C4B 1_555 1_555
H6B C5B 1_555 1_555
H7B C5B 1_555 1_555
P1C O2C 1_555 1_555
O2C Co1C_2 1_555 1_555
O3C Co1 1_555 1_555
O8C P1C 1_555 1_555
O10C P1C 1_555 1_555
H1C O10C 1_555 1_555
Co1B O6 1_555 1_555
Co2B O1B 1_555 1_555
O4_2 C2_2 1_555 1_555
O5_2 C3_2 1_555 1_555
O7_2 Co2 1_555 1_555
O9_2 Co2 1_555 1_555
C2_2 O7_2 1_555 1_555
C3_2 O9_2 1_555 1_555
O8_2 Co2 1_555 1_555
Co1C O3 1_555 1_555
Co2C O3 1_555 1_555
Co2_2 O7 1_555 1_555
Co2_3 O8 1_555 1_555
O2B Co1B 1_555 1_555
O3A Co1B 1_555 1_555
O4B Co1B 1_555 1_555
O5B Co1B 1_555 1_555
O7B Co2B 1_555 1_555
O8B Co2B 1_555 1_555
O9B Co2B 1_555 1_555
Co1_2 O4_2 1_555 1_555
Co2 O3C 1_555 1_555
O9 Co2_2 1_555 1_555
C2 C3 1_555 1_555
C1B O6B 1_555 1_555
N1B C4B 1_555 1_555
P1C O3C 1_555 1_555
O8C Co2C 1_555 1_555
Co2B O3A 1_555 1_555
O5_2 Co1_2 1_555 1_555
C2_2 C3_2 1_555 1_555

#END
