
#######################################################################
#
#                 Cambridge Crystallographic Data Centre
#                                CCDC 
#
#######################################################################
#
# If this CIF has been generated from an entry in the Cambridge 
# Structural Database, then it will include bibliographic, chemical, 
# crystal, experimental, refinement or atomic coordinate data resulting 
# from the CCDC's data processing and validation procedures.
#
#######################################################################

data_WOQYAC
_symmetry_cell_setting           monoclinic
_symmetry_space_group_name_H-M   'C 2/c'
_symmetry_Int_Tables_number      15
_space_group_name_Hall           '-C 2yn'
loop_
_symmetry_equiv_pos_site_id
_symmetry_equiv_pos_as_xyz
1 x,y,z
2 x,-y,1/2+z
3 1/2+x,1/2+y,z
4 1/2+x,1/2-y,1/2+z
5 -x,-y,-z
6 -x,y,1/2-z
7 1/2-x,1/2-y,-z
8 1/2-x,1/2+y,1/2-z
_cell_length_a                   30.77(1)
_cell_length_b                   7.934(2)
_cell_length_c                   27.02(1)
_cell_angle_alpha                90
_cell_angle_beta                 123.22(3)
_cell_angle_gamma                90
_cell_volume                     5518.35
loop_
_atom_site_label
_atom_site_type_symbol
_atom_site_fract_x
_atom_site_fract_y
_atom_site_fract_z
V1 V 0.25173(3) 0.19957(9) 0.25165(3)
O1 O 0.2638(1) 0.3969(4) 0.2625(1)
O2 O 0.2263(1) 0.1850(4) 0.1684(1)
O3 O 0.1813(1) 0.1849(4) 0.2344(1)
O4 O 0.2892(2) -0.0305(10) -0.0043(2)
O5 O 0.3584(3) -0.111(1) 0.0776(2)
O6 O 0.0539(2) -0.0306(9) 0.3391(3)
O7 O 0.1297(2) -0.1252(8) 0.4086(2)
N1 N 0.3222(1) 0.1004(4) 0.2743(1)
N2 N 0.2802(1) 0.1198(4) 0.3363(1)
N3 N 0.3151(3) -0.046(1) 0.0499(3)
N4 N 0.1010(3) -0.0549(9) 0.3610(3)
C1 C 0.2483(2) 0.1311(6) 0.1424(2)
C2 C 0.2206(2) 0.1351(7) 0.0796(2)
C3 C 0.2415(3) 0.0808(8) 0.0497(2)
C4 C 0.2914(3) 0.0144(8) 0.0809(2)
C5 C 0.3204(2) 0.0063(7) 0.1413(2)
C6 C 0.3002(2) 0.0672(6) 0.1734(2)
C7 C 0.3327(2) 0.0504(5) 0.2368(2)
C8 C 0.3572(2) 0.0369(5) 0.3365(2)
C9 C 0.4149(2) 0.0650(6) 0.3629(2)
C10 C 0.4351(2) 0.1848(9) 0.3448(3)
C11 C 0.4891(3) 0.201(1) 0.3717(4)
C12 C 0.5211(3) 0.093(2) 0.4142(4)
C13 C 0.5030(3) -0.023(1) 0.4350(4)
C14 C 0.4492(2) -0.0390(8) 0.4086(3)
C15 C 0.3384(2) 0.1052(6) 0.3753(2)
C16 C 0.3641(2) 0.2656(6) 0.4098(2)
C17 C 0.3720(2) 0.4056(7) 0.3851(2)
C18 C 0.3989(3) 0.5401(8) 0.4187(4)
C19 C 0.4181(4) 0.545(1) 0.4765(4)
C20 C 0.4092(3) 0.417(1) 0.5030(3)
C21 C 0.3814(2) 0.2700(9) 0.4695(2)
C22 C 0.2537(2) 0.0704(5) 0.3569(2)
C23 C 0.1974(2) 0.0673(6) 0.3250(2)
C24 C 0.1760(2) 0.0065(7) 0.3556(2)
C25 C 0.1223(2) 0.0031(8) 0.3276(3)
C26 C 0.0897(2) 0.0623(7) 0.2707(3)
C27 C 0.1099(2) 0.1186(7) 0.2396(2)
C28 C 0.1646(2) 0.1254(6) 0.2660(2)
H1 H 0.1850 0.1772 0.0580
H2 H 0.2220 0.0882 0.0068
H3 H 0.3561 -0.0397 0.1633
H4 H 0.3659 -0.0066 0.2527
H5 H 0.3530 -0.0830 0.3346
H6 H 0.4111 0.2532 0.3117
H7 H 0.5022 0.2858 0.3573
H8 H 0.5581 0.1061 0.4305
H9 H 0.5273 -0.0977 0.4682
H10 H 0.4351 -0.1241 0.4222
H11 H 0.3461 0.0198 0.4041
H12 H 0.3582 0.4022 0.3430
H13 H 0.4028 0.6411 0.3979
H14 H 0.4398 0.6376 0.5005
H15 H 0.4214 0.4278 0.5440
H16 H 0.3756 0.1750 0.4881
H17 H 0.2726 0.0314 0.3973
H18 H 0.1988 -0.0301 0.3968
H19 H 0.0523 0.0538 0.2526
H20 H 0.0865 0.1634 0.1995
O1G O 0.2362(1) -0.1031(4) 0.2375(1)
V1G V 0.24827(3) 0.69957(9) 0.24835(3)
O8 O 0.5000 0.004(4) 0.2500
loop_
_geom_bond_atom_site_label_1
_geom_bond_atom_site_label_2
_geom_bond_site_symmetry_1
_geom_bond_site_symmetry_2
V1 O1 1_555 1_555
O1 V1G 1_555 1_555
O2 V1 1_555 1_555
O3 V1 1_555 1_555
O4 N3 1_555 1_555
O5 N3 1_555 1_555
O6 N4 1_555 1_555
O7 N4 1_555 1_555
N1 V1 1_555 1_555
N2 V1 1_555 1_555
N3 C4 1_555 1_555
N4 C25 1_555 1_555
C1 O2 1_555 1_555
C2 C1 1_555 1_555
C3 C2 1_555 1_555
C4 C3 1_555 1_555
C5 C4 1_555 1_555
C6 C1 1_555 1_555
C7 N1 1_555 1_555
C8 N1 1_555 1_555
C9 C8 1_555 1_555
C10 C9 1_555 1_555
C11 C10 1_555 1_555
C12 C11 1_555 1_555
C13 C12 1_555 1_555
C14 C9 1_555 1_555
C15 N2 1_555 1_555
C16 C15 1_555 1_555
C17 C16 1_555 1_555
C18 C17 1_555 1_555
C19 C18 1_555 1_555
C20 C19 1_555 1_555
C21 C16 1_555 1_555
C22 N2 1_555 1_555
C23 C22 1_555 1_555
C24 C23 1_555 1_555
C25 C24 1_555 1_555
C26 C25 1_555 1_555
C27 C26 1_555 1_555
C28 O3 1_555 1_555
H1 C2 1_555 1_555
H2 C3 1_555 1_555
H3 C5 1_555 1_555
H4 C7 1_555 1_555
H5 C8 1_555 1_555
H6 C10 1_555 1_555
H7 C11 1_555 1_555
H8 C12 1_555 1_555
H9 C13 1_555 1_555
H10 C14 1_555 1_555
H11 C15 1_555 1_555
H12 C17 1_555 1_555
H13 C18 1_555 1_555
H14 C19 1_555 1_555
H15 C20 1_555 1_555
H16 C21 1_555 1_555
H17 C22 1_555 1_555
H18 C24 1_555 1_555
H19 C26 1_555 1_555
H20 C27 1_555 1_555
O1G V1 1_555 1_555
C5 C6 1_555 1_555
C6 C7 1_555 1_555
C8 C15 1_555 1_555
C13 C14 1_555 1_555
C20 C21 1_555 1_555
C23 C28 1_555 1_555
C27 C28 1_555 1_555

#END
