
#######################################################################
#
#                 Cambridge Crystallographic Data Centre
#                                CCDC 
#
#######################################################################
#
# If this CIF has been generated from an entry in the Cambridge 
# Structural Database, then it will include bibliographic, chemical, 
# crystal, experimental, refinement or atomic coordinate data resulting 
# from the CCDC's data processing and validation procedures.
#
#######################################################################

data_WORGER
_symmetry_cell_setting           monoclinic
_symmetry_space_group_name_H-M   'P 21/c'
_symmetry_Int_Tables_number      14
_space_group_name_Hall           '-P 2ybc'
loop_
_symmetry_equiv_pos_site_id
_symmetry_equiv_pos_as_xyz
1 x,y,z
2 -x,1/2+y,1/2-z
3 -x,-y,-z
4 x,1/2-y,1/2+z
_cell_length_a                   8.0747(2)
_cell_length_b                   18.6500(7)
_cell_length_c                   26.4469(10)
_cell_angle_alpha                90
_cell_angle_beta                 94.391(3)
_cell_angle_gamma                90
_cell_volume                     3971.03
loop_
_atom_site_label
_atom_site_type_symbol
_atom_site_fract_x
_atom_site_fract_y
_atom_site_fract_z
Eu1 Eu 0.25022(8) 0.51195(3) 0.50599(2)
N1 N 0.0537(16) 0.3212(7) 0.6936(5)
N2 N 0.3421(18) 0.8656(8) 0.4959(6)
N3 N 0.3707(16) 0.3316(7) 0.3021(5)
C1 C 0.0685(17) 0.4528(11) 0.5841(6)
C2 C -0.008(2) 0.4005(10) 0.6205(6)
H1 H -0.0987 0.4238 0.6361
H2 H -0.0527 0.3592 0.6017
C3 C 0.123(2) 0.3762(10) 0.6613(7)
H3 H 0.2175 0.3567 0.6456
H4 H 0.1601 0.4169 0.6819
C4 C -0.019(2) 0.3428(10) 0.7365(6)
C5 C -0.075(2) 0.2863(10) 0.7708(7)
C6 C -0.149(3) 0.3041(13) 0.8134(7)
H5 H -0.1675 0.3518 0.8215
C7 C -0.199(3) 0.2460(18) 0.8462(9)
H6 H -0.2483 0.2576 0.8757
C8 C -0.175(3) 0.1785(17) 0.8357(9)
H7 H -0.2039 0.1433 0.8584
C9 C -0.109(2) 0.1593(12) 0.7912(8)
C10 C -0.082(3) 0.0862(13) 0.7760(10)
H8 H -0.1080 0.0488 0.7973
C11 C -0.023(4) 0.0725(14) 0.7343(13)
H9 H -0.0124 0.0245 0.7256
C12 C 0.028(4) 0.1246(12) 0.6995(11)
H10 H 0.0693 0.1112 0.6690
C13 C 0.015(2) 0.1954(9) 0.7127(7)
C14 C -0.0541(19) 0.2131(10) 0.7577(6)
C15 C 0.074(2) 0.2511(10) 0.6784(6)
C16 C 0.3821(17) 0.4556(8) 0.4165(6)
C17 C 0.452(2) 0.4152(12) 0.3728(6)
H11 H 0.5085 0.3725 0.3860
H12 H 0.5324 0.4452 0.3577
C18 C 0.317(2) 0.3934(11) 0.3320(7)
H13 H 0.2162 0.3808 0.3479
H14 H 0.2913 0.4337 0.3095
C19 C 0.342(2) 0.2633(11) 0.3232(6)
C20 C 0.393(2) 0.2013(9) 0.2939(6)
C21 C 0.368(3) 0.1355(12) 0.3126(8)
H15 H 0.3190 0.1299 0.3431
C22 C 0.418(3) 0.0738(12) 0.2847(9)
H16 H 0.4046 0.0280 0.2977
C23 C 0.483(3) 0.0827(12) 0.2396(8)
H17 H 0.5078 0.0426 0.2207
C24 C 0.515(2) 0.1514(9) 0.2205(7)
C25 C 0.589(2) 0.1619(13) 0.1744(7)
H18 H 0.6195 0.1223 0.1558
C26 C 0.618(3) 0.2293(15) 0.1568(7)
H19 H 0.6676 0.2357 0.1266
C27 C 0.572(2) 0.2871(13) 0.1842(7)
H20 H 0.5923 0.3327 0.1719
C28 C 0.497(2) 0.2814(10) 0.2285(6)
C29 C 0.466(2) 0.2117(10) 0.2487(6)
C30 C 0.446(2) 0.3454(11) 0.2584(7)
C31 C 0.255(2) 0.6640(8) 0.5064(6)
C32 C 0.224(2) 0.7453(8) 0.5010(8)
H21 H 0.1446 0.7539 0.4723
H22 H 0.1765 0.7629 0.5312
C33 C 0.380(2) 0.7863(10) 0.4936(7)
H23 H 0.4205 0.7745 0.4609
H24 H 0.4659 0.7738 0.5198
C34 C 0.363(3) 0.8971(10) 0.5420(7)
C35 C 0.3208(19) 0.9756(7) 0.5443(6)
C36 C 0.350(2) 1.0133(11) 0.5894(6)
H25 H 0.3982 0.9902 0.6181
C37 C 0.308(3) 1.0854(11) 0.5918(8)
H26 H 0.3277 1.1106 0.6220
C38 C 0.236(2) 1.1199(7) 0.5489(11)
H27 H 0.2082 1.1681 0.5504
C39 C 0.207(2) 1.0822(7) 0.5037(9)
C40 C 0.2492(18) 1.0101(7) 0.5014(6)
C41 C 0.100(5) 1.084(2) 0.4190(19)
H28 H 0.0467 1.1094 0.3920
C42 C 0.148(3) 1.0061(17) 0.4124(13)
H29 H 0.1301 0.9823 0.3816
C43 C 0.220(3) 0.9730(12) 0.4547(10)
C44 C 0.134(5) 1.1171(18) 0.463(3)
H30 H 0.1069 1.1653 0.4665
C45 C 0.269(2) 0.8957(9) 0.4512(8)
O1 O 0.3160(14) 0.3838(7) 0.5202(5)
H31 H 0.2539 0.3576 0.4977
H32 H 0.4298 0.3729 0.5176
O2 O 0.2786(18) 0.2586(9) 0.3629(5)
O3 O -0.044(2) 0.4078(8) 0.7439(6)
O4 O 0.132(2) 0.2385(9) 0.6389(6)
O5 O 0.475(2) 0.4066(7) 0.2444(6)
O6 O 0.2311(13) 0.4641(6) 0.4177(4)
O7 O 0.3353(13) 0.6314(6) 0.4745(5)
O8 O 0.1894(16) 0.6310(7) 0.5407(4)
O9 O 0.1961(14) 0.4868(7) 0.5956(4)
O10 O 0.4862(10) 0.4809(4) 0.4514(4)
O11 O 0.412(3) 0.8654(12) 0.5795(7)
O12 O 0.252(3) 0.8635(10) 0.4122(5)
O13 O 0.0064(11) 0.4549(7) 0.5378(3)
Eu1B Eu -0.25022(8) 0.48805(3) 0.49401(2)
Eu1B_2 Eu 0.74978(8) 0.48805(3) 0.49401(2)
O10B O 0.5138(10) 0.5191(4) 0.5486(4)
O13B O -0.0064(11) 0.5451(7) 0.4622(3)
O14 O 0.1337(17) 0.3019(7) 0.4522(5)
H33 H 0.0255 0.3178 0.4534
H34 H 0.1620 0.2764 0.4248
loop_
_geom_bond_atom_site_label_1
_geom_bond_atom_site_label_2
_geom_bond_site_symmetry_1
_geom_bond_site_symmetry_2
Eu1 O1 1_555 1_555
N1 C3 1_555 1_555
N2 C33 1_555 1_555
N3 C18 1_555 1_555
C1 C2 1_555 1_555
C2 H1 1_555 1_555
H2 C2 1_555 1_555
C3 C2 1_555 1_555
H3 C3 1_555 1_555
H4 C3 1_555 1_555
C4 N1 1_555 1_555
C5 C4 1_555 1_555
C6 C5 1_555 1_555
H5 C6 1_555 1_555
C7 C6 1_555 1_555
H6 C7 1_555 1_555
C8 C7 1_555 1_555
H7 C8 1_555 1_555
C9 C8 1_555 1_555
C10 C9 1_555 1_555
H8 C10 1_555 1_555
C11 C10 1_555 1_555
H9 C11 1_555 1_555
C12 C11 1_555 1_555
H10 C12 1_555 1_555
C13 C12 1_555 1_555
C14 C5 1_555 1_555
C15 N1 1_555 1_555
C16 C17 1_555 1_555
C17 H11 1_555 1_555
H12 C17 1_555 1_555
C18 C17 1_555 1_555
H13 C18 1_555 1_555
H14 C18 1_555 1_555
C19 N3 1_555 1_555
C20 C19 1_555 1_555
C21 C20 1_555 1_555
H15 C21 1_555 1_555
C22 C21 1_555 1_555
H16 C22 1_555 1_555
C23 C22 1_555 1_555
H17 C23 1_555 1_555
C24 C23 1_555 1_555
C25 C24 1_555 1_555
H18 C25 1_555 1_555
C26 C25 1_555 1_555
H19 C26 1_555 1_555
C27 C26 1_555 1_555
H20 C27 1_555 1_555
C28 C27 1_555 1_555
C29 C20 1_555 1_555
C30 N3 1_555 1_555
C31 C32 1_555 1_555
C32 H21 1_555 1_555
H22 C32 1_555 1_555
C33 C32 1_555 1_555
H23 C33 1_555 1_555
H24 C33 1_555 1_555
C34 N2 1_555 1_555
C35 C34 1_555 1_555
C36 C35 1_555 1_555
H25 C36 1_555 1_555
C37 C36 1_555 1_555
H26 C37 1_555 1_555
C38 C37 1_555 1_555
H27 C38 1_555 1_555
C39 C38 1_555 1_555
C40 C35 1_555 1_555
C41 H28 1_555 1_555
C42 C41 1_555 1_555
H29 C42 1_555 1_555
C43 C40 1_555 1_555
C44 C39 1_555 1_555
H30 C44 1_555 1_555
C45 N2 1_555 1_555
O1 H31 1_555 1_555
H32 O1 1_555 1_555
O2 C19 1_555 1_555
O3 C4 1_555 1_555
O4 C15 1_555 1_555
O5 C30 1_555 1_555
O6 Eu1 1_555 1_555
O7 Eu1 1_555 1_555
O8 Eu1 1_555 1_555
O9 Eu1 1_555 1_555
O10 Eu1 1_555 1_555
O11 C34 1_555 1_555
O12 C45 1_555 1_555
O13 Eu1 1_555 1_555
O14 H33 1_555 1_555
H34 O14 1_555 1_555
Eu1B O13 1_555 1_555
Eu1B_2 O10 1_555 1_555
O10B Eu1 1_555 1_555
O13B Eu1 1_555 1_555
C1 O9 1_555 1_555
C1 O13 1_555 1_555
C9 C14 1_555 1_555
C13 C14 1_555 1_555
C13 C15 1_555 1_555
C16 O6 1_555 1_555
C16 O10 1_555 1_555
C24 C29 1_555 1_555
C28 C29 1_555 1_555
C28 C30 1_555 1_555
C31 O7 1_555 1_555
C31 O8 1_555 1_555
C39 C40 1_555 1_555
C41 C44 1_555 1_555
C42 C43 1_555 1_555
C43 C45 1_555 1_555
Eu1B O13B 1_555 1_555
Eu1B_2 O10B 1_555 1_555

#END
