
#######################################################################
#
#                 Cambridge Crystallographic Data Centre
#                                CCDC 
#
#######################################################################
#
# If this CIF has been generated from an entry in the Cambridge 
# Structural Database, then it will include bibliographic, chemical, 
# crystal, experimental, refinement or atomic coordinate data resulting 
# from the CCDC's data processing and validation procedures.
#
#######################################################################

data_WORNIC
_symmetry_cell_setting           orthorhombic
_symmetry_space_group_name_H-M   'P b c n'
_symmetry_Int_Tables_number      60
_space_group_name_Hall           '-P 2n 2ab'
loop_
_symmetry_equiv_pos_site_id
_symmetry_equiv_pos_as_xyz
1 x,y,z
2 1/2-x,1/2-y,1/2+z
3 -x,y,1/2-z
4 1/2+x,1/2-y,-z
5 -x,-y,-z
6 1/2+x,1/2+y,1/2-z
7 x,-y,1/2+z
8 1/2-x,1/2+y,z
_cell_length_a                   7.8197(4)
_cell_length_b                   17.8112(9)
_cell_length_c                   26.5942(14)
_cell_angle_alpha                90
_cell_angle_beta                 90
_cell_angle_gamma                90
_cell_volume                     3703.99
loop_
_atom_site_label
_atom_site_type_symbol
_atom_site_fract_x
_atom_site_fract_y
_atom_site_fract_z
Co1 Co -0.01709(3) 0.040753(15) 0.381106(10)
O1 O 0.25868(18) 0.03325(9) 0.37203(5)
O2 O 0.15100(17) 0.06417(9) 0.44511(5)
O3 O 0.0980(3) -0.30953(10) 0.30960(7)
O4 O 0.2014(2) -0.20405(9) 0.27530(6)
N1 N 0.7561(2) 0.05594(9) 0.42647(6)
N2 N -0.0122(2) -0.07839(10) 0.39025(6)
N3 N -0.1402(2) 0.02982(9) 0.31189(6)
N4 N -0.2682(2) 0.08802(11) 0.24934(7)
N5 N -0.0360(2) 0.15556(10) 0.35980(7)
F1 F 0.66809(17) 0.13930(10) 0.54559(5)
F2 F -0.1660(3) -0.22383(8) 0.47001(6)
C1 C 0.2766(2) 0.05338(11) 0.41666(7)
C2 C 0.4535(2) 0.06554(11) 0.43702(7)
C3 C 0.5965(2) 0.04544(11) 0.40971(7)
H1 H 0.5812 0.0236 0.3783
C4 C 0.7767(3) 0.08733(12) 0.47167(8)
H2 H 0.8866 0.0951 0.4840
C5 C 0.6395(3) 0.10818(13) 0.50014(8)
C6 C 0.4763(2) 0.09836(12) 0.48361(8)
H3 H 0.3833 0.1132 0.5030
C7 C 0.1234(3) -0.24035(14) 0.30809(9)
C8 C 0.0489(3) -0.19699(12) 0.35173(8)
C9 C 0.0549(2) -0.11969(12) 0.35306(8)
H4 H 0.1085 -0.0948 0.3267
C10 C -0.0832(3) -0.11421(12) 0.42870(8)
H5 H -0.1285 -0.0867 0.4553
C11 C -0.0910(3) -0.19075(13) 0.42983(8)
C12 C -0.0279(3) -0.23361(13) 0.39149(9)
H6 H -0.0363 -0.2857 0.3922
C13 C -0.2105(3) -0.02260(12) 0.28005(8)
H7 H -0.2048 -0.0744 0.2843
C14 C -0.2889(3) 0.01291(13) 0.24173(8)
H8 H -0.3464 -0.0096 0.2151
C15 C -0.1786(2) 0.09594(12) 0.29173(7)
C16 C -0.1208(3) 0.16314(12) 0.31696(8)
C17 C -0.0584(3) 0.27646(13) 0.34034(9)
H9 H -0.0486 0.3285 0.3415
C18 C 0.0030(3) 0.22715(13) 0.37470(9)
H10 H 0.0623 0.2399 0.4038
H11 H -0.306(3) 0.1244(16) 0.2302(10)
H12 H -0.199(4) 0.2555(17) 0.2751(11)
N6 N -0.1378(2) 0.23532(11) 0.30359(7)
Co1_2 Co 0.98291(3) 0.040753(15) 0.381106(10)
N1_2 N -0.2439(2) 0.05594(9) 0.42647(6)
loop_
_geom_bond_atom_site_label_1
_geom_bond_atom_site_label_2
_geom_bond_site_symmetry_1
_geom_bond_site_symmetry_2
Co1 O1 1_555 1_555
O1 C1 1_555 1_555
O2 Co1 1_555 1_555
O3 C7 1_555 1_555
O4 C7 1_555 1_555
N1 C3 1_555 1_555
N2 Co1 1_555 1_555
N3 Co1 1_555 1_555
N4 C14 1_555 1_555
N5 Co1 1_555 1_555
F1 C5 1_555 1_555
F2 C11 1_555 1_555
C1 O2 1_555 1_555
C2 C1 1_555 1_555
C3 C2 1_555 1_555
H1 C3 1_555 1_555
C4 N1 1_555 1_555
H2 C4 1_555 1_555
C5 C4 1_555 1_555
C6 C2 1_555 1_555
H3 C6 1_555 1_555
C7 C8 1_555 1_555
C8 C9 1_555 1_555
C9 N2 1_555 1_555
H4 C9 1_555 1_555
C10 N2 1_555 1_555
H5 C10 1_555 1_555
C11 C10 1_555 1_555
C12 C8 1_555 1_555
H6 C12 1_555 1_555
C13 N3 1_555 1_555
H7 C13 1_555 1_555
C14 C13 1_555 1_555
H8 C14 1_555 1_555
C15 N3 1_555 1_555
C16 N5 1_555 1_555
C17 H9 1_555 1_555
C18 N5 1_555 1_555
H10 C18 1_555 1_555
H11 N4 1_555 1_555
H12 N6 1_555 1_555
N6 C16 1_555 1_555
Co1_2 N1 1_555 1_555
N1_2 Co1 1_555 1_555
N4 C15 1_555 1_555
C5 C6 1_555 1_555
C11 C12 1_555 1_555
C15 C16 1_555 1_555
C17 C18 1_555 1_555
C17 N6 1_555 1_555

#END
