
#######################################################################
#
#                 Cambridge Crystallographic Data Centre
#                                CCDC 
#
#######################################################################
#
# If this CIF has been generated from an entry in the Cambridge 
# Structural Database, then it will include bibliographic, chemical, 
# crystal, experimental, refinement or atomic coordinate data resulting 
# from the CCDC's data processing and validation procedures.
#
#######################################################################

data_WORRIE
_symmetry_cell_setting           monoclinic
_symmetry_space_group_name_H-M   'P 21/c'
_symmetry_Int_Tables_number      14
_space_group_name_Hall           '-P 2ybc'
loop_
_symmetry_equiv_pos_site_id
_symmetry_equiv_pos_as_xyz
1 x,y,z
2 -x,1/2+y,1/2-z
3 -x,-y,-z
4 x,1/2-y,1/2+z
_cell_length_a                   10.050(3)
_cell_length_b                   11.963(4)
_cell_length_c                   21.921(4)
_cell_angle_alpha                90
_cell_angle_beta                 92.72(4)
_cell_angle_gamma                90
_cell_volume                     2632.55
loop_
_atom_site_label
_atom_site_type_symbol
_atom_site_fract_x
_atom_site_fract_y
_atom_site_fract_z
Mn1 Mn 0.43847(9) 0.18068(6) 0.04005(4)
O1 O 0.4272(5) 0.1399(3) -0.0556(2)
O2 O 0.4405(5) -0.0437(3) -0.0731(2)
C1 C 0.4371(6) 0.0563(4) -0.0899(3)
C2 C 0.4367(6) 0.0795(5) -0.1583(3)
C3 C 0.4270(8) 0.1882(5) -0.1803(3)
H1 H 0.4213(8) 0.2473(5) -0.1530(3)
C4 C 0.4257(8) 0.2093(5) -0.2425(3)
H2 H 0.4185(8) 0.2824(5) -0.2568(3)
C5 C 0.4355(7) 0.1207(5) -0.2838(3)
C6 C 0.4435(8) 0.0119(5) -0.2619(3)
H3 H 0.4468(8) -0.0474(5) -0.2892(3)
C7 C 0.4465(8) -0.0091(5) -0.1991(3)
H4 H 0.4551(8) -0.0820(5) -0.1845(3)
C8 C 0.4356(7) 0.1431(5) -0.3521(3)
O3 O 0.4376(5) 0.2443(3) -0.3684(2)
O4 O 0.4361(7) 0.0610(4) -0.3871(2)
N1 N 0.6338(7) 0.2701(4) 0.0216(3)
C9 C 0.6485(8) 0.3274(5) -0.0302(4)
H5 H 0.5783(8) 0.3301(5) -0.0594(4)
C10 C 0.7668(9) 0.3830(6) -0.0412(4)
H6 H 0.7729(9) 0.4236(6) -0.0772(4)
C11 C 0.8721(9) 0.3793(5) -0.0013(4)
C12 C 0.8575(9) 0.3205(6) 0.0525(5)
H7 H 0.9268(9) 0.3165(6) 0.0821(5)
C13 C 0.7367(10) 0.2676(6) 0.0612(4)
H8 H 0.7279(10) 0.2279(6) 0.0973(4)
C14 C 1.0011(8) 0.4412(6) -0.0124(4)
H9 H 1.0753 0.4008 0.0071
H10 H 1.0145 0.4437 -0.0559
N2 N 0.2512(6) 0.0868(4) 0.0626(3)
C15 C 0.1613(8) 0.1259(6) 0.1010(4)
H11 H 0.1756(8) 0.1959(6) 0.1186(4)
C16 C 0.0497(8) 0.0673(6) 0.1155(4)
H12 H -0.0097(8) 0.0983(6) 0.1421(4)
C17 C 0.0254(7) -0.0360(6) 0.0912(3)
C18 C 0.1175(8) -0.0784(6) 0.0513(4)
H13 H 0.1059(8) -0.1486(6) 0.0336(4)
C19 C 0.2267(8) -0.0130(5) 0.0389(3)
H14 H 0.2871(8) -0.0413(5) 0.0120(3)
C20 C -0.0927(8) -0.1090(8) 0.1075(4)
H15 H -0.1292 -0.1454 0.0708
H16 H -0.1618 -0.0622 0.1234
C21 C -0.0519(9) -0.1981(6) 0.1551(4)
H17 H -0.1298 -0.2410 0.1650
H18 H 0.0114 -0.2489 0.1378
C22 C 0.0097(10) -0.1476(7) 0.2127(5)
C23 C -0.0665(11) -0.0883(10) 0.2529(5)
H19 H -0.1586(11) -0.0847(10) 0.2467(5)
C24 C -0.0043(19) -0.0351(13) 0.3019(9)
H20 H -0.0579(19) 0.0042(13) 0.3278(9)
C25 C 0.1945(17) -0.0878(14) 0.2792(7)
H21 H 0.2862(17) -0.0867(14) 0.2873(7)
C26 C 0.1457(14) -0.1480(11) 0.2281(7)
H22 H 0.2038(14) -0.1880(11) 0.2046(7)
N3 N 0.1220(15) -0.0348(12) 0.3149(6)
O5 O 0.3264(5) 0.3337(3) 0.0124(2)
C14B C 0.9989(8) 0.5588(6) 0.0124(4)
C11B C 1.1279(9) 0.6207(5) 0.0013(4)
C10B C 1.2332(9) 0.6170(6) 0.0412(4)
C9B C 1.3515(8) 0.6726(5) 0.0302(4)
N1B N 1.3662(7) 0.7299(4) -0.0216(3)
C13B C 1.2633(10) 0.7324(6) -0.0612(4)
C12B C 1.1425(9) 0.6795(6) -0.0525(5)
H7B H 1.0732(9) 0.6835(6) -0.0821(5)
H8B H 1.2721(10) 0.7721(6) -0.0973(4)
H5B H 1.4217(8) 0.6699(5) 0.0594(4)
H6B H 1.2271(9) 0.5764(6) 0.0772(4)
H9B H 0.9247 0.5992 -0.0071
H10B H 0.9855 0.5563 0.0559
O1B O 0.5728(5) -0.1399(3) 0.0556(2)
O2B O 0.5595(5) 0.0437(3) 0.0731(2)
Mn1B Mn 0.56153(9) -0.18068(6) -0.04005(4)
N2B N 0.7488(6) -0.0868(4) -0.0626(3)
C15B C 0.8387(8) -0.1259(6) -0.1010(4)
H11B H 0.8244(8) -0.1959(6) -0.1186(4)
C16B C 0.9503(8) -0.0673(6) -0.1155(4)
H12B H 1.0097(8) -0.0983(6) -0.1421(4)
C17B C 0.9746(7) 0.0360(6) -0.0912(3)
C18B C 0.8825(8) 0.0784(6) -0.0513(4)
H13B H 0.8941(8) 0.1486(6) -0.0336(4)
C19B C 0.7733(8) 0.0130(5) -0.0389(3)
H14B H 0.7129(8) 0.0413(5) -0.0120(3)
C20B C 1.0927(8) 0.1090(8) -0.1075(4)
H15B H 1.1292 0.1454 -0.0708
H16B H 1.1618 0.0622 -0.1234
C21B C 1.0519(9) 0.1981(6) -0.1551(4)
H17B H 1.1298 0.2410 -0.1650
H18B H 0.9886 0.2489 -0.1378
C22B C 0.9903(10) 0.1476(7) -0.2127(5)
C23B C 1.0665(11) 0.0883(10) -0.2529(5)
H19B H 1.1586(11) 0.0847(10) -0.2467(5)
C24B C 1.0043(19) 0.0351(13) -0.3019(9)
H20B H 1.0579(19) -0.0042(13) -0.3278(9)
C25B C 0.8055(17) 0.0878(14) -0.2792(7)
H21B H 0.7138(17) 0.0867(14) -0.2873(7)
C26B C 0.8543(14) 0.1480(11) -0.2281(7)
H22B H 0.7962(14) 0.1880(11) -0.2046(7)
N3B N 0.8780(15) 0.0348(12) -0.3149(6)
O5B O 0.6736(5) -0.3337(3) -0.0124(2)
O3C O 0.4376(5) 0.2557(3) 0.1316(2)
Mn1C Mn 0.43847(9) 0.31932(6) -0.45995(4)
Mn1B_2 Mn 1.56153(9) 0.81932(6) -0.04005(4)
O3A O 0.5624(5) -0.2557(3) -0.1316(2)
N1B_2 N 0.3662(7) -0.2701(4) -0.0216(3)
C8A C 0.5644(7) -0.3569(5) -0.1479(3)
C5A C 0.5645(7) -0.3793(5) -0.2162(3)
O4A O 0.5639(7) -0.4390(4) -0.1129(2)
C4A C 0.5743(8) -0.2907(5) -0.2575(3)
C6A C 0.5565(8) -0.4881(5) -0.2381(3)
C3A C 0.5730(8) -0.3118(5) -0.3197(3)
H2A H 0.5815(8) -0.2176(5) -0.2432(3)
H3A H 0.5532(8) -0.5474(5) -0.2108(3)
C7A C 0.5535(8) -0.5091(5) -0.3009(3)
C2A C 0.5633(6) -0.4205(5) -0.3417(3)
H1A H 0.5787(8) -0.2527(5) -0.3470(3)
H4A H 0.5449(8) -0.5820(5) -0.3155(3)
C1A C 0.5629(6) -0.4437(4) -0.4101(3)
O1A O 0.5728(5) -0.3601(3) -0.4444(2)
O2A O 0.5595(5) -0.5437(3) -0.4269(2)
Mn1A Mn 0.56153(9) -0.31932(6) -0.54005(4)
Mn1C_2 Mn 0.43847(9) -0.68068(6) -0.45995(4)
O6 O 0.6721(7) 0.5675(4) 0.1023(3)
loop_
_geom_bond_atom_site_label_1
_geom_bond_atom_site_label_2
_geom_bond_site_symmetry_1
_geom_bond_site_symmetry_2
Mn1 O1 1_555 1_555
O1 C1 1_555 1_555
O2 C1 1_555 1_555
C1 C2 1_555 1_555
C2 C3 1_555 1_555
C3 H1 1_555 1_555
C4 C3 1_555 1_555
H2 C4 1_555 1_555
C5 C4 1_555 1_555
C6 C5 1_555 1_555
H3 C6 1_555 1_555
C7 C2 1_555 1_555
H4 C7 1_555 1_555
C8 C5 1_555 1_555
O3 C8 1_555 1_555
O4 C8 1_555 1_555
N1 Mn1 1_555 1_555
C9 N1 1_555 1_555
H5 C9 1_555 1_555
C10 C9 1_555 1_555
H6 C10 1_555 1_555
C11 C10 1_555 1_555
C12 C11 1_555 1_555
H7 C12 1_555 1_555
C13 N1 1_555 1_555
H8 C13 1_555 1_555
C14 C11 1_555 1_555
H9 C14 1_555 1_555
H10 C14 1_555 1_555
N2 Mn1 1_555 1_555
C15 N2 1_555 1_555
H11 C15 1_555 1_555
C16 C15 1_555 1_555
H12 C16 1_555 1_555
C17 C16 1_555 1_555
C18 C17 1_555 1_555
H13 C18 1_555 1_555
C19 N2 1_555 1_555
H14 C19 1_555 1_555
C20 C17 1_555 1_555
H15 C20 1_555 1_555
H16 C20 1_555 1_555
C21 C20 1_555 1_555
H17 C21 1_555 1_555
H18 C21 1_555 1_555
C22 C21 1_555 1_555
C23 C22 1_555 1_555
H19 C23 1_555 1_555
C24 C23 1_555 1_555
H20 C24 1_555 1_555
C25 H21 1_555 1_555
C26 C22 1_555 1_555
H22 C26 1_555 1_555
N3 C24 1_555 1_555
O5 Mn1 1_555 1_555
C14B C14 1_555 1_555
C11B C14B 1_555 1_555
C10B C11B 1_555 1_555
C9B C10B 1_555 1_555
N1B C9B 1_555 1_555
C13B N1B 1_555 1_555
C12B C11B 1_555 1_555
H7B C12B 1_555 1_555
H8B C13B 1_555 1_555
H5B C9B 1_555 1_555
H6B C10B 1_555 1_555
H9B C14B 1_555 1_555
H10B C14B 1_555 1_555
O1B Mn1B 1_555 1_555
O2B Mn1 1_555 1_555
Mn1B O2 1_555 1_555
N2B Mn1B 1_555 1_555
C15B N2B 1_555 1_555
H11B C15B 1_555 1_555
C16B C15B 1_555 1_555
H12B C16B 1_555 1_555
C17B C16B 1_555 1_555
C18B C17B 1_555 1_555
H13B C18B 1_555 1_555
C19B N2B 1_555 1_555
H14B C19B 1_555 1_555
C20B C17B 1_555 1_555
H15B C20B 1_555 1_555
H16B C20B 1_555 1_555
C21B C20B 1_555 1_555
H17B C21B 1_555 1_555
H18B C21B 1_555 1_555
C22B C21B 1_555 1_555
C23B C22B 1_555 1_555
H19B C23B 1_555 1_555
C24B C23B 1_555 1_555
H20B C24B 1_555 1_555
C25B H21B 1_555 1_555
C26B C22B 1_555 1_555
H22B C26B 1_555 1_555
N3B C24B 1_555 1_555
O5B Mn1B 1_555 1_555
O3C Mn1 1_555 1_555
Mn1C O3 1_555 1_555
Mn1B_2 N1B 1_555 1_555
O3A Mn1B 1_555 1_555
N1B_2 Mn1B 1_555 1_555
C8A O3A 1_555 1_555
C5A C8A 1_555 1_555
O4A C8A 1_555 1_555
C4A C5A 1_555 1_555
C6A C5A 1_555 1_555
C3A C4A 1_555 1_555
H2A C4A 1_555 1_555
H3A C6A 1_555 1_555
C7A C6A 1_555 1_555
C2A C3A 1_555 1_555
H1A C3A 1_555 1_555
H4A C7A 1_555 1_555
C1A C2A 1_555 1_555
O1A C1A 1_555 1_555
O2A C1A 1_555 1_555
Mn1A O1A 1_555 1_555
Mn1C_2 O2A 1_555 1_555
C6 C7 1_555 1_555
C12 C13 1_555 1_555
C18 C19 1_555 1_555
C25 N3 1_555 1_555
C25 C26 1_555 1_555
C13B C12B 1_555 1_555
C18B C19B 1_555 1_555
C25B N3B 1_555 1_555
C25B C26B 1_555 1_555
C7A C2A 1_555 1_555

#END
