
#######################################################################
#
#                 Cambridge Crystallographic Data Centre
#                                CCDC 
#
#######################################################################
#
# If this CIF has been generated from an entry in the Cambridge 
# Structural Database, then it will include bibliographic, chemical, 
# crystal, experimental, refinement or atomic coordinate data resulting 
# from the CCDC's data processing and validation procedures.
#
#######################################################################

data_WORRIE01
_symmetry_cell_setting           monoclinic
_symmetry_space_group_name_H-M   'P 21/c'
_symmetry_Int_Tables_number      14
_space_group_name_Hall           '-P 2ybc'
loop_
_symmetry_equiv_pos_site_id
_symmetry_equiv_pos_as_xyz
1 x,y,z
2 -x,1/2+y,1/2-z
3 -x,-y,-z
4 x,1/2-y,1/2+z
_cell_length_a                   10.0330(3)
_cell_length_b                   11.94540(10)
_cell_length_c                   21.8640(5)
_cell_angle_alpha                90
_cell_angle_beta                 92.842(2)
_cell_angle_gamma                90
_cell_volume                     2617.14
loop_
_atom_site_label
_atom_site_type_symbol
_atom_site_fract_x
_atom_site_fract_y
_atom_site_fract_z
Mn1 Mn 0.06153(5) 0.18068(4) -0.04005(2)
O1 O 0.0727(2) 0.1393(2) 0.05545(10)
O2 O -0.0587(2) 0.0438(2) -0.07303(10)
N1 N -0.1343(3) 0.2697(2) -0.02167(13)
N2 N 0.2489(3) 0.0873(3) -0.06253(13)
C1 C 0.0640(3) 0.0564(3) 0.09042(14)
C2 C -0.1496(4) 0.3273(3) 0.02938(18)
H1 H -0.0784 0.3302 0.0582
C3 C -0.3575(4) 0.3203(3) -0.0527(2)
H2 H -0.4273 0.3162 -0.0822
C4 C 0.4746(3) -0.0375(4) -0.09091(17)
C5 C -0.2381(4) 0.2670(3) -0.06204(18)
H3 H -0.2299 0.2272 -0.0982
C6 C -0.2649(4) 0.3831(3) 0.04200(19)
H4 H -0.2697 0.4229 0.0784
C7 C 0.4499(4) 0.0667(4) -0.1153(2)
H5 H 0.5092 0.0978 -0.1420
C8 C 0.2734(4) -0.0140(3) -0.03849(18)
H6 H 0.2133 -0.0432 -0.0116
C9 C -0.3728(4) 0.3801(3) 0.0009(2)
C10 C 0.3827(4) -0.0769(4) -0.05148(18)
H7 H 0.3950 -0.1469 -0.0335
O3 O 0.1741(2) 0.3339(2) -0.01199(11)
C11 C 0.0735(3) 0.1873(3) 0.18012(15)
H8 H 0.0807 0.2464 0.1528
C12 C 0.0621(3) 0.0793(3) 0.15813(14)
C13 C 0.0745(4) 0.2089(3) 0.24255(16)
H9 H 0.0817 0.2822 0.2567
C14 C 0.0552(4) 0.0126(3) 0.26174(15)
H10 H 0.0496 -0.0468 0.2890
C15 C 0.0541(4) -0.0083(3) 0.19932(16)
H11 H 0.0480 -0.0815 0.1850
C16 C 0.0645(3) 0.1212(3) 0.28396(15)
C17 C -0.5013(4) 0.4406(3) 0.0122(2)
H12 H -0.5149 0.4422 0.0558
H13 H -0.5755 0.4004 -0.0077
C18 C 0.5517(5) -0.1980(4) -0.1551(2)
H14 H 0.6296 -0.2413 -0.1648
H15 H 0.4879 -0.2484 -0.1377
C19 C 0.4907(4) -0.1473(4) -0.2128(2)
C20 C 0.3382(4) 0.1256(4) -0.1006(2)
H16 H 0.3241 0.1958 -0.1181
C21 C 0.5923(4) -0.1084(4) -0.1079(2)
H17 H 0.6311 -0.1442 -0.0714
H18 H 0.6598 -0.0605 -0.1245
N3 N 0.3777(5) -0.0322(5) -0.3150(2)
C22 C 0.3568(5) -0.1472(6) -0.2267(3)
H19 H 0.2995 -0.1863 -0.2022
C23 C 0.5657(5) -0.0894(5) -0.2526(2)
H20 H 0.6581 -0.0876 -0.2465
C24 C 0.3057(6) -0.0883(7) -0.2779(3)
H21 H 0.2138 -0.0894 -0.2860
C25 C 0.5062(6) -0.0343(6) -0.3011(3)
H22 H 0.5613 0.0051 -0.3265
C26 C 0.0639(3) 0.1434(3) 0.35192(15)
O5 O 0.0634(2) 0.2443(2) 0.36863(10)
O6 O 0.0640(3) 0.0609(2) 0.38747(11)
Mn1B Mn -0.06153(5) -0.18068(4) 0.04005(2)
Mn1B_2 Mn -1.06153(5) 0.81932(4) 0.04005(2)
Mn1C Mn 0.06153(5) 0.31932(4) 0.45995(2)
Mn1A Mn -0.06153(5) -0.31932(4) -0.45995(2)
O1B O -0.0727(2) -0.1393(2) -0.05545(10)
O2B O 0.0587(2) -0.0438(2) 0.07303(10)
N1B N -0.8657(3) 0.7303(2) 0.02167(13)
N1B_2 N 0.1343(3) -0.2697(2) 0.02167(13)
N2B N -0.2489(3) -0.0873(3) 0.06253(13)
C1B C -0.0640(3) -0.0564(3) -0.09042(14)
C2B C -0.8504(4) 0.6727(3) -0.02938(18)
H1B H -0.9216 0.6698 -0.0582
C3B C -0.6425(4) 0.6797(3) 0.0527(2)
H2B H -0.5727 0.6838 0.0822
C4B C -0.4746(3) 0.0375(4) 0.09091(17)
C5B C -0.7619(4) 0.7330(3) 0.06204(18)
H3B H -0.7701 0.7728 0.0982
C6B C -0.7351(4) 0.6169(3) -0.04200(19)
H4B H -0.7303 0.5771 -0.0784
C7B C -0.4499(4) -0.0667(4) 0.1153(2)
H5B H -0.5092 -0.0978 0.1420
C8B C -0.2734(4) 0.0140(3) 0.03849(18)
H6B H -0.2133 0.0432 0.0116
C9B C -0.6272(4) 0.6199(3) -0.0009(2)
C10B C -0.3827(4) 0.0769(4) 0.05148(18)
H7B H -0.3950 0.1469 0.0335
O3B O -0.1741(2) -0.3339(2) 0.01199(11)
C11B C -0.0735(3) -0.1873(3) -0.18012(15)
H8B H -0.0807 -0.2464 -0.1528
C12B C -0.0621(3) -0.0793(3) -0.15813(14)
C13B C -0.0745(4) -0.2089(3) -0.24255(16)
H9B H -0.0817 -0.2822 -0.2567
C14B C -0.0552(4) -0.0126(3) -0.26174(15)
H10B H -0.0496 0.0468 -0.2890
C15B C -0.0541(4) 0.0083(3) -0.19932(16)
H11B H -0.0480 0.0815 -0.1850
C16B C -0.0645(3) -0.1212(3) -0.28396(15)
C17B C -0.4987(4) 0.5594(3) -0.0122(2)
H12B H -0.4851 0.5578 -0.0558
H13B H -0.4245 0.5996 0.0077
C18B C -0.5517(5) 0.1980(4) 0.1551(2)
H14B H -0.6296 0.2413 0.1648
H15B H -0.4879 0.2484 0.1377
C19B C -0.4907(4) 0.1473(4) 0.2128(2)
C20B C -0.3382(4) -0.1256(4) 0.1006(2)
H16B H -0.3241 -0.1958 0.1181
C21B C -0.5923(4) 0.1084(4) 0.1079(2)
H17B H -0.6311 0.1442 0.0714
H18B H -0.6598 0.0605 0.1245
N3B N -0.3777(5) 0.0322(5) 0.3150(2)
C22B C -0.3568(5) 0.1472(6) 0.2267(3)
H19B H -0.2995 0.1863 0.2022
C23B C -0.5657(5) 0.0894(5) 0.2526(2)
H20B H -0.6581 0.0876 0.2465
C24B C -0.3057(6) 0.0883(7) 0.2779(3)
H21B H -0.2138 0.0894 0.2860
C25B C -0.5062(6) 0.0343(6) 0.3011(3)
H22B H -0.5613 -0.0051 0.3265
C26B C -0.0639(3) -0.1434(3) -0.35192(15)
O5A O -0.0634(2) -0.2557(2) 0.13137(10)
O5C O 0.0634(2) 0.2557(2) -0.13137(10)
O5B O -0.0634(2) -0.2443(2) -0.36863(10)
O6B O -0.0640(3) -0.0609(2) -0.38747(11)
O4 O 0.1698(3) 0.4334(3) 0.10182(13)
loop_
_geom_bond_atom_site_label_1
_geom_bond_atom_site_label_2
_geom_bond_site_symmetry_1
_geom_bond_site_symmetry_2
Mn1 O1 1_555 1_555
O1 C1 1_555 1_555
O2 Mn1 1_555 1_555
N1 Mn1 1_555 1_555
N2 Mn1 1_555 1_555
C1 C12 1_555 1_555
C2 N1 1_555 1_555
H1 C2 1_555 1_555
C3 H2 1_555 1_555
C4 C7 1_555 1_555
C5 N1 1_555 1_555
H3 C5 1_555 1_555
C6 C2 1_555 1_555
H4 C6 1_555 1_555
C7 H5 1_555 1_555
C8 N2 1_555 1_555
H6 C8 1_555 1_555
C9 C3 1_555 1_555
C10 C4 1_555 1_555
H7 C10 1_555 1_555
O3 Mn1 1_555 1_555
C11 H8 1_555 1_555
C12 C11 1_555 1_555
C13 C11 1_555 1_555
H9 C13 1_555 1_555
C14 H10 1_555 1_555
C15 C12 1_555 1_555
H11 C15 1_555 1_555
C16 C13 1_555 1_555
C17 C9 1_555 1_555
H12 C17 1_555 1_555
H13 C17 1_555 1_555
C18 H14 1_555 1_555
H15 C18 1_555 1_555
C19 C18 1_555 1_555
C20 N2 1_555 1_555
H16 C20 1_555 1_555
C21 C4 1_555 1_555
H17 C21 1_555 1_555
H18 C21 1_555 1_555
N3 C24 1_555 1_555
C22 C19 1_555 1_555
H19 C22 1_555 1_555
C23 C19 1_555 1_555
H20 C23 1_555 1_555
C24 C22 1_555 1_555
H21 C24 1_555 1_555
C25 N3 1_555 1_555
H22 C25 1_555 1_555
C26 C16 1_555 1_555
O5 C26 1_555 1_555
O6 C26 1_555 1_555
Mn1B O1B 1_555 1_555
Mn1B_2 N1B 1_555 1_555
Mn1C O5 1_555 1_555
Mn1A O5B 1_555 1_555
O1B C1B 1_555 1_555
O2B C1 1_555 1_555
N1B C2B 1_555 1_555
N1B_2 Mn1B 1_555 1_555
N2B Mn1B 1_555 1_555
C1B O2 1_555 1_555
C2B H1B 1_555 1_555
C3B H2B 1_555 1_555
C4B C7B 1_555 1_555
C5B N1B 1_555 1_555
H3B C5B 1_555 1_555
C6B C2B 1_555 1_555
H4B C6B 1_555 1_555
C7B H5B 1_555 1_555
C8B N2B 1_555 1_555
H6B C8B 1_555 1_555
C9B C3B 1_555 1_555
C10B C4B 1_555 1_555
H7B C10B 1_555 1_555
O3B Mn1B 1_555 1_555
C11B H8B 1_555 1_555
C12B C1B 1_555 1_555
C13B C11B 1_555 1_555
H9B C13B 1_555 1_555
C14B H10B 1_555 1_555
C15B C12B 1_555 1_555
H11B C15B 1_555 1_555
C16B C13B 1_555 1_555
C17B C17 1_555 1_555
H12B C17B 1_555 1_555
H13B C17B 1_555 1_555
C18B H14B 1_555 1_555
H15B C18B 1_555 1_555
C19B C18B 1_555 1_555
C20B N2B 1_555 1_555
H16B C20B 1_555 1_555
C21B C4B 1_555 1_555
H17B C21B 1_555 1_555
H18B C21B 1_555 1_555
N3B C24B 1_555 1_555
C22B C19B 1_555 1_555
H19B C22B 1_555 1_555
C23B C19B 1_555 1_555
H20B C23B 1_555 1_555
C24B C22B 1_555 1_555
H21B C24B 1_555 1_555
C25B N3B 1_555 1_555
H22B C25B 1_555 1_555
C26B C16B 1_555 1_555
O5A Mn1B 1_555 1_555
O5C Mn1 1_555 1_555
O5B C26B 1_555 1_555
O6B C26B 1_555 1_555
C3 C5 1_555 1_555
C6 C9 1_555 1_555
C7 C20 1_555 1_555
C8 C10 1_555 1_555
C14 C15 1_555 1_555
C14 C16 1_555 1_555
C18 C21 1_555 1_555
C23 C25 1_555 1_555
Mn1B O2B 1_555 1_555
C3B C5B 1_555 1_555
C6B C9B 1_555 1_555
C7B C20B 1_555 1_555
C8B C10B 1_555 1_555
C9B C17B 1_555 1_555
C11B C12B 1_555 1_555
C14B C15B 1_555 1_555
C14B C16B 1_555 1_555
C18B C21B 1_555 1_555
C23B C25B 1_555 1_555

#END
