
#######################################################################
#
#                 Cambridge Crystallographic Data Centre
#                                CCDC 
#
#######################################################################
#
# If this CIF has been generated from an entry in the Cambridge 
# Structural Database, then it will include bibliographic, chemical, 
# crystal, experimental, refinement or atomic coordinate data resulting 
# from the CCDC's data processing and validation procedures.
#
#######################################################################

data_WORTII
_symmetry_cell_setting           orthorhombic
_symmetry_space_group_name_H-M   'P 21 21 21'
_symmetry_Int_Tables_number      19
_space_group_name_Hall           'P 2ac 2ab'
loop_
_symmetry_equiv_pos_site_id
_symmetry_equiv_pos_as_xyz
1 x,y,z
2 1/2-x,-y,1/2+z
3 1/2+x,1/2-y,-z
4 -x,1/2+y,1/2-z
_cell_length_a                   12.672(3)
_cell_length_b                   14.253(3)
_cell_length_c                   14.744(3)
_cell_angle_alpha                90
_cell_angle_beta                 90
_cell_angle_gamma                90
_cell_volume                     2662.97
loop_
_atom_site_label
_atom_site_type_symbol
_atom_site_fract_x
_atom_site_fract_y
_atom_site_fract_z
Er1 Er 0.665781(8) 0.168016(7) 0.364546(7)
Cl1 Cl 0.86666(4) 0.13922(4) 0.36624(5)
Cl2 Cl 0.47078(4) 0.21757(4) 0.35969(5)
Cl3 Cl 0.61368(5) -0.00912(4) 0.36798(5)
N1 N 0.68822(17) 0.31594(15) 0.45984(14)
N2 N 0.66584(19) 0.13049(14) 0.53193(13)
N3 N 0.6499(2) 0.12533(16) 0.19991(14)
N4 N 0.78439(18) 0.69051(15) 0.76582(15)
C1 C 0.6649(2) 0.60504(17) 0.67062(17)
H1 H 0.5958 0.5994 0.6462
C2 C 0.7419(2) 0.54016(18) 0.64799(18)
C3 C 0.7217(2) 0.46333(18) 0.58239(18)
C4 C 0.7513(3) 0.1234(2) 0.6761(2)
H2 H 0.8128 0.1349 0.7112
C5 C 0.6108(2) 0.34799(18) 0.51367(17)
H3 H 0.5433 0.3191 0.5097
C6 C 0.8404(2) 0.55144(18) 0.68770(18)
H4 H 0.8952 0.5077 0.6756
C7 C 0.6888(2) 0.67784(19) 0.72874(17)
H5 H 0.6347 0.7214 0.7433
C8 C 0.7496(2) 0.14502(18) 0.58516(19)
H6 H 0.8111 0.1717 0.5589
C9 C 0.7337(3) 0.11877(19) 0.1451(2)
H7 H 0.8012 0.1346 0.1686
C10 C 0.7815(2) 0.35836(18) 0.46667(19)
H8 H 0.8374 0.3372 0.4288
C11 C 0.6628(3) 0.0849(2) 0.71540(19)
H9 H 0.6620 0.0689 0.7780
C12 C 0.8017(2) 0.43151(19) 0.5259(2)
H10 H 0.8695 0.4597 0.5278
C13 C 0.5561(3) 0.1015(2) 0.1652(2)
H11 H 0.4955 0.1058 0.2029
C14 C 0.6239(2) 0.42067(18) 0.57449(18)
H12 H 0.5664 0.4413 0.6107
C15 C 0.5803(2) 0.0933(2) 0.5708(2)
H13 H 0.5200 0.0824 0.5341
C16 C 0.5750(3) 0.0700(2) 0.6616(2)
H14 H 0.5123 0.0442 0.6866
C17 C 0.8585(2) 0.62642(19) 0.74482(18)
H15 H 0.9267 0.6332 0.7707
C18 C 0.5437(3) 0.0710(2) 0.0769(2)
H16 H 0.4757 0.0542 0.0551
C19 C 0.7266(3) 0.0899(2) 0.0555(2)
H17 H 0.7876 0.0872 0.0181
C20 C 0.6286(4) 0.0653(2) 0.0218(2)
H18 H 0.6212 0.0446 -0.0391
Er1A Er 0.834219(8) 0.831984(7) 0.864546(7)
N4A N 0.71561(18) 0.30949(15) 0.26582(15)
N5 N 0.0100(3) 0.1808(3) 0.1300(3)
C21 C 0.1881(4) 0.1796(4) 0.1753(4)
H19 H 0.2383 0.1768 0.2231
C22 C 0.0845(4) 0.1771(4) 0.1923(3)
H20 H 0.0629 0.1722 0.2538
C23 C 0.0428(5) 0.1822(3) 0.0443(4)
H21 H -0.0087 0.1797 -0.0025
C24 C 0.1450(6) 0.1870(3) 0.0207(4)
H22 H 0.1639 0.1908 -0.0415
C25 C 0.2204(5) 0.1865(4) 0.0842(6)
H23 H 0.2929 0.1906 0.0684
loop_
_geom_bond_atom_site_label_1
_geom_bond_atom_site_label_2
_geom_bond_site_symmetry_1
_geom_bond_site_symmetry_2
Er1 Cl1 1_555 1_555
Cl2 Er1 1_555 1_555
Cl3 Er1 1_555 1_555
N1 Er1 1_555 1_555
N2 Er1 1_555 1_555
N3 Er1 1_555 1_555
N4 C7 1_555 1_555
C1 H1 1_555 1_555
C2 C1 1_555 1_555
C3 C2 1_555 1_555
C4 H2 1_555 1_555
C5 N1 1_555 1_555
H3 C5 1_555 1_555
C6 C2 1_555 1_555
H4 C6 1_555 1_555
C7 C1 1_555 1_555
H5 C7 1_555 1_555
C8 N2 1_555 1_555
H6 C8 1_555 1_555
C9 N3 1_555 1_555
H7 C9 1_555 1_555
C10 N1 1_555 1_555
H8 C10 1_555 1_555
C11 C4 1_555 1_555
H9 C11 1_555 1_555
C12 C3 1_555 1_555
H10 C12 1_555 1_555
C13 N3 1_555 1_555
H11 C13 1_555 1_555
C14 C3 1_555 1_555
H12 C14 1_555 1_555
C15 N2 1_555 1_555
H13 C15 1_555 1_555
C16 C11 1_555 1_555
H14 C16 1_555 1_555
C17 N4 1_555 1_555
H15 C17 1_555 1_555
C18 C13 1_555 1_555
H16 C18 1_555 1_555
C19 C9 1_555 1_555
H17 C19 1_555 1_555
C20 C18 1_555 1_555
H18 C20 1_555 1_555
N5 C22 1_555 1_555
C21 H19 1_555 1_555
C22 C21 1_555 1_555
H20 C22 1_555 1_555
C23 N5 1_555 1_555
H21 C23 1_555 1_555
C24 C23 1_555 1_555
H22 C24 1_555 1_555
C25 C21 1_555 1_555
H23 C25 1_555 1_555
Er1A N4 1_555 1_555
N4A Er1 1_555 1_555
C4 C8 1_555 1_555
C5 C14 1_555 1_555
C6 C17 1_555 1_555
C10 C12 1_555 1_555
C15 C16 1_555 1_555
C19 C20 1_555 1_555
C24 C25 1_555 1_555

#END
