
#######################################################################
#
#                 Cambridge Crystallographic Data Centre
#                                CCDC 
#
#######################################################################
#
# If this CIF has been generated from an entry in the Cambridge 
# Structural Database, then it will include bibliographic, chemical, 
# crystal, experimental, refinement or atomic coordinate data resulting 
# from the CCDC's data processing and validation procedures.
#
#######################################################################

data_WORTOO
_symmetry_cell_setting           orthorhombic
_symmetry_space_group_name_H-M   'P 21 21 21'
_symmetry_Int_Tables_number      19
_space_group_name_Hall           'P 2ac 2ab'
loop_
_symmetry_equiv_pos_site_id
_symmetry_equiv_pos_as_xyz
1 x,y,z
2 1/2-x,-y,1/2+z
3 1/2+x,1/2-y,-z
4 -x,1/2+y,1/2-z
_cell_length_a                   12.6249(9)
_cell_length_b                   14.2346(10)
_cell_length_c                   14.6827(10)
_cell_angle_alpha                90
_cell_angle_beta                 90
_cell_angle_gamma                90
_cell_volume                     2638.63
loop_
_atom_site_label
_atom_site_type_symbol
_atom_site_fract_x
_atom_site_fract_y
_atom_site_fract_z
Yb1 Yb 0.333926(17) 0.168217(16) 0.636264(16)
Cl1 Cl 0.13343(10) 0.13881(9) 0.63451(11)
Cl2 Cl 0.38547(10) -0.00844(9) 0.63328(11)
Cl3 Cl 0.52918(9) 0.21655(9) 0.64057(11)
N1 N 0.3123(4) 0.3147(3) 0.5413(3)
N2 N 0.3328(4) 0.1303(3) 0.4700(3)
N3 N 0.3493(4) 0.1262(3) 0.7992(3)
C1 C 0.2654(5) 0.1191(4) 0.8545(5)
H1 H 0.1975 0.1338 0.8303
C2 C 0.2487(5) 0.1454(4) 0.4164(4)
H2 H 0.1872 0.1729 0.4426
C3 C 0.3378(6) 0.0851(4) 0.2854(4)
H3 H 0.3397 0.0711 0.2222
C4 C 0.2471(6) 0.1229(5) 0.3255(5)
H4 H 0.1849 0.1329 0.2903
N4 N 0.2152(4) 0.6907(3) 0.2335(4)
C5 C 0.3905(4) 0.3471(4) 0.4870(4)
H5 H 0.4583 0.3185 0.4912
C6 C 0.3355(5) 0.6050(4) 0.3294(4)
H6 H 0.4046 0.5995 0.3543
C7 C 0.2785(4) 0.4629(4) 0.4180(4)
C8 C 0.4438(6) 0.1020(5) 0.8355(4)
H7 H 0.5047 0.1054 0.7975
C9 C 0.3115(4) 0.6781(4) 0.2718(4)
H8 H 0.3656 0.7222 0.2581
C10 C 0.4191(5) 0.0935(5) 0.4309(4)
H9 H 0.4800 0.0839 0.4677
C11 C 0.2180(5) 0.3575(4) 0.5346(4)
H10 H 0.1621 0.3368 0.5729
C12 C 0.1979(5) 0.4305(4) 0.4744(5)
H11 H 0.1295 0.4581 0.4717
C13 C 0.3768(5) 0.4197(4) 0.4257(4)
H12 H 0.4344 0.4401 0.3889
C14 C 0.4573(7) 0.0726(5) 0.9239(5)
H13 H 0.5258 0.0574 0.9463
C15 C 0.4246(5) 0.0685(5) 0.3401(4)
H14 H 0.4868 0.0406 0.3158
C16 C 0.1421(5) 0.6260(4) 0.2537(4)
H15 H 0.0738 0.6325 0.2271
C17 C 0.2581(5) 0.5395(4) 0.3509(5)
C18 C 0.1592(5) 0.5504(4) 0.3105(4)
H16 H 0.1043 0.5063 0.3219
C19 C 0.3693(7) 0.0657(5) 0.9798(5)
H17 H 0.3759 0.0437 1.0406
C20 C 0.2717(7) 0.0915(5) 0.9455(5)
H18 H 0.2103 0.0904 0.9830
Yb1A Yb 0.166074(17) 0.831783(16) 0.136264(16)
N4A N 0.2848(4) 0.3093(3) 0.7335(4)
C21 C 0.3557(9) 0.3130(6) 0.0173(7)
H19 H 0.3378 0.3107 -0.0455
C22 C 0.2803(8) 0.3114(7) 0.0811(9)
H20 H 0.2080 0.3054 0.0641
N5 N 0.4909(6) 0.3195(6) 0.1296(5)
C23 C 0.4162(7) 0.3197(8) 0.1930(6)
H21 H 0.4377 0.3207 0.2550
C24 C 0.3085(7) 0.3186(7) 0.1745(7)
H22 H 0.2568 0.3224 0.2213
C25 C 0.4597(8) 0.3181(6) 0.0443(6)
H23 H 0.5125 0.3208 -0.0017
loop_
_geom_bond_atom_site_label_1
_geom_bond_atom_site_label_2
_geom_bond_site_symmetry_1
_geom_bond_site_symmetry_2
Yb1 Cl1 1_555 1_555
Cl2 Yb1 1_555 1_555
Cl3 Yb1 1_555 1_555
N1 Yb1 1_555 1_555
N2 Yb1 1_555 1_555
N3 Yb1 1_555 1_555
C1 N3 1_555 1_555
H1 C1 1_555 1_555
C2 N2 1_555 1_555
H2 C2 1_555 1_555
C3 H3 1_555 1_555
C4 C2 1_555 1_555
H4 C4 1_555 1_555
N4 C9 1_555 1_555
C5 N1 1_555 1_555
H5 C5 1_555 1_555
C6 H6 1_555 1_555
C7 C12 1_555 1_555
C8 N3 1_555 1_555
H7 C8 1_555 1_555
C9 C6 1_555 1_555
H8 C9 1_555 1_555
C10 N2 1_555 1_555
H9 C10 1_555 1_555
C11 N1 1_555 1_555
H10 C11 1_555 1_555
C12 C11 1_555 1_555
H11 C12 1_555 1_555
C13 C5 1_555 1_555
H12 C13 1_555 1_555
C14 C8 1_555 1_555
H13 C14 1_555 1_555
C15 C3 1_555 1_555
H14 C15 1_555 1_555
C16 N4 1_555 1_555
H15 C16 1_555 1_555
C17 C6 1_555 1_555
C18 C16 1_555 1_555
H16 C18 1_555 1_555
C19 C14 1_555 1_555
H17 C19 1_555 1_555
C20 C1 1_555 1_555
H18 C20 1_555 1_555
C21 H19 1_555 1_555
C22 C21 1_555 1_555
H20 C22 1_555 1_555
N5 C23 1_555 1_555
C23 H21 1_555 1_555
C24 C22 1_555 1_555
H22 C24 1_555 1_555
C25 C21 1_555 1_555
H23 C25 1_555 1_555
Yb1A N4 1_555 1_555
N4A Yb1 1_555 1_555
C3 C4 1_555 1_555
C7 C13 1_555 1_555
C7 C17 1_555 1_555
C10 C15 1_555 1_555
C17 C18 1_555 1_555
C19 C20 1_555 1_555
N5 C25 1_555 1_555
C23 C24 1_555 1_555

#END
