
#######################################################################
#
#                 Cambridge Crystallographic Data Centre
#                                CCDC 
#
#######################################################################
#
# If this CIF has been generated from an entry in the Cambridge 
# Structural Database, then it will include bibliographic, chemical, 
# crystal, experimental, refinement or atomic coordinate data resulting 
# from the CCDC's data processing and validation procedures.
#
#######################################################################

data_WOSCUE
_symmetry_cell_setting           orthorhombic
_symmetry_space_group_name_H-M   'P 21 21 21'
_symmetry_Int_Tables_number      19
_space_group_name_Hall           'P 2ac 2ab'
loop_
_symmetry_equiv_pos_site_id
_symmetry_equiv_pos_as_xyz
1 x,y,z
2 1/2-x,-y,1/2+z
3 1/2+x,1/2-y,-z
4 -x,1/2+y,1/2-z
_cell_length_a                   12.6768(7)
_cell_length_b                   14.2281(8)
_cell_length_c                   14.7535(9)
_cell_angle_alpha                90
_cell_angle_beta                 90
_cell_angle_gamma                90
_cell_volume                     2661.04
loop_
_atom_site_label
_atom_site_type_symbol
_atom_site_fract_x
_atom_site_fract_y
_atom_site_fract_z
Dy1 Dy 0.33584(2) 0.833570(18) 0.863786(18)
Cl1 Cl 0.38898(10) 1.01206(9) 0.86612(11)
Cl2 Cl 0.13266(10) 0.86214(9) 0.86506(11)
Cl3 Cl 0.53247(10) 0.78245(10) 0.85813(12)
N1 N 0.3353(5) 0.8728(3) 1.0318(3)
N2 N 0.3129(4) 0.6852(4) 0.9599(3)
N3 N 0.3513(5) 0.8753(4) 0.6979(3)
N4 N 0.2163(4) 0.3096(3) 1.2658(3)
C1 C 0.2589(5) 0.4623(4) 1.1487(4)
C2 C 0.3354(6) 0.3960(4) 1.1713(4)
H1 H 0.4048 0.4019 1.1476
C3 C 0.3375(7) 0.9187(4) 1.2161(4)
H2 H 0.3385 0.9342 1.2787
C4 C 0.1607(6) 0.4515(4) 1.1904(4)
H3 H 0.1066 0.4964 1.1803
C5 C 0.2787(5) 0.5382(4) 1.0836(4)
C6 C 0.2486(6) 0.8779(5) 1.1760(5)
H4 H 0.1875 0.8650 1.2111
C7 C 0.2508(5) 0.8566(4) 1.0848(4)
H5 H 0.1899 0.8293 1.0581
C8 C 0.2681(5) 0.8798(4) 0.6414(6)
H6 H 0.2007 0.8621 0.6639
C9 C 0.3114(4) 0.3220(5) 1.2277(4)
H7 H 0.3650 0.2772 1.2404
C10 C 0.1993(5) 0.5713(4) 1.0274(4)
H8 H 0.1311 0.5439 1.0302
C11 C 0.4458(6) 0.8988(5) 0.6626(4)
H9 H 0.5061 0.8944 0.7007
C12 C 0.3764(5) 0.5802(4) 1.0761(4)
H10 H 0.4335 0.5593 1.1127
C13 C 0.4229(6) 0.9353(5) 1.1619(4)
H11 H 0.4848 0.9630 1.1866
C14 C 0.3908(5) 0.6532(5) 1.0145(4)
H12 H 0.4584 0.6818 1.0107
C15 C 0.2188(5) 0.6431(4) 0.9679(4)
H13 H 0.1627 0.6642 0.9304
C16 C 0.2760(7) 0.9088(5) 0.5524(5)
H14 H 0.2149 0.9119 0.5152
C17 C 0.4188(5) 0.9119(5) 1.0717(4)
H15 H 0.4793 0.9242 1.0356
C18 C 0.3733(7) 0.9332(5) 0.5179(5)
H16 H 0.3807 0.9525 0.4566
C19 C 0.4601(7) 0.9288(5) 0.5750(5)
H17 H 0.5282 0.9461 0.5539
C20 C 0.1424(5) 0.3752(4) 1.2464(4)
H18 H 0.0744 0.3685 1.2727
Dy1A Dy 0.16416(2) 0.166430(18) 1.363786(18)
N4A N 0.2837(4) 0.6904(3) 0.7658(3)
C21 C 0.4918(5) 0.6842(5) 0.3708(5)
H19 H 0.5644 0.6862 0.3551
C22 C 0.4175(7) 0.6824(7) 0.3072(6)
H20 H 0.4390 0.6809 0.2455
C23 C 0.3113(7) 0.6826(7) 0.3260(7)
H21 H 0.2599 0.6805 0.2792
N5 N 0.2820(8) 0.6860(7) 0.4193(9)
C24 C 0.4626(8) 0.6833(6) 0.4537(6)
H22 H 0.5166 0.6818 0.4983
C25 C 0.3620(9) 0.6844(6) 0.4837(7)
H23 H 0.3464 0.6840 0.5467
loop_
_geom_bond_atom_site_label_1
_geom_bond_atom_site_label_2
_geom_bond_site_symmetry_1
_geom_bond_site_symmetry_2
Dy1 Cl1 1_555 1_555
Cl2 Dy1 1_555 1_555
Cl3 Dy1 1_555 1_555
N1 Dy1 1_555 1_555
N2 Dy1 1_555 1_555
N3 Dy1 1_555 1_555
N4 C9 1_555 1_555
C1 C2 1_555 1_555
C2 H1 1_555 1_555
C3 H2 1_555 1_555
C4 C1 1_555 1_555
H3 C4 1_555 1_555
C5 C1 1_555 1_555
C6 C3 1_555 1_555
H4 C6 1_555 1_555
C7 N1 1_555 1_555
H5 C7 1_555 1_555
C8 N3 1_555 1_555
H6 C8 1_555 1_555
C9 C2 1_555 1_555
H7 C9 1_555 1_555
C10 C5 1_555 1_555
H8 C10 1_555 1_555
C11 N3 1_555 1_555
H9 C11 1_555 1_555
C12 C5 1_555 1_555
H10 C12 1_555 1_555
C13 C3 1_555 1_555
H11 C13 1_555 1_555
C14 N2 1_555 1_555
H12 C14 1_555 1_555
C15 N2 1_555 1_555
H13 C15 1_555 1_555
C16 C8 1_555 1_555
H14 C16 1_555 1_555
C17 N1 1_555 1_555
H15 C17 1_555 1_555
C18 C16 1_555 1_555
H16 C18 1_555 1_555
C19 C11 1_555 1_555
H17 C19 1_555 1_555
C20 N4 1_555 1_555
H18 C20 1_555 1_555
C21 H19 1_555 1_555
C22 C21 1_555 1_555
H20 C22 1_555 1_555
C23 C22 1_555 1_555
H21 C23 1_555 1_555
N5 C23 1_555 1_555
C24 C21 1_555 1_555
H22 C24 1_555 1_555
C25 N5 1_555 1_555
H23 C25 1_555 1_555
Dy1A N4 1_555 1_555
N4A Dy1 1_555 1_555
C4 C20 1_555 1_555
C6 C7 1_555 1_555
C10 C15 1_555 1_555
C12 C14 1_555 1_555
C13 C17 1_555 1_555
C18 C19 1_555 1_555
C24 C25 1_555 1_555

#END
