
#######################################################################
#
#                 Cambridge Crystallographic Data Centre
#                                CCDC 
#
#######################################################################
#
# If this CIF has been generated from an entry in the Cambridge 
# Structural Database, then it will include bibliographic, chemical, 
# crystal, experimental, refinement or atomic coordinate data resulting 
# from the CCDC's data processing and validation procedures.
#
#######################################################################

data_WOSCIS
_symmetry_cell_setting           orthorhombic
_symmetry_space_group_name_H-M   'P 21 21 21'
_symmetry_Int_Tables_number      19
_space_group_name_Hall           'P 2ac 2ab'
loop_
_symmetry_equiv_pos_site_id
_symmetry_equiv_pos_as_xyz
1 x,y,z
2 1/2-x,-y,1/2+z
3 1/2+x,1/2-y,-z
4 -x,1/2+y,1/2-z
_cell_length_a                   12.773(3)
_cell_length_b                   14.336(3)
_cell_length_c                   14.882(3)
_cell_angle_alpha                90
_cell_angle_beta                 90
_cell_angle_gamma                90
_cell_volume                     2725.1
loop_
_atom_site_label
_atom_site_type_symbol
_atom_site_fract_x
_atom_site_fract_y
_atom_site_fract_z
Gd1 Gd 0.33497(2) 0.167018(17) 0.365189(18)
Cl1 Cl 0.53177(11) 0.21876(10) 0.35997(13)
Cl2 Cl 0.13132(10) 0.13941(10) 0.36559(12)
Cl3 Cl 0.38767(12) -0.01214(10) 0.36906(12)
N1 N 0.3115(4) 0.3173(3) 0.4619(3)
N2 N 0.3356(5) 0.1301(3) 0.5350(3)
N3 N 0.2156(4) 0.6895(3) 0.7644(3)
N4 N 0.3526(5) 0.1241(4) 0.1988(4)
C1 C 0.2571(5) 0.5401(4) 0.6473(4)
C2 C 0.2774(5) 0.4643(4) 0.5827(4)
C3 C 0.1599(6) 0.5522(4) 0.6855(4)
H1 H 0.1052 0.5093 0.6728
C4 C 0.3744(5) 0.4213(4) 0.5754(4)
H2 H 0.4313 0.4413 0.6117
C5 C 0.3386(8) 0.0847(5) 0.7166(5)
H3 H 0.3400 0.0697 0.7788
C6 C 0.3336(6) 0.6046(4) 0.6705(4)
H4 H 0.4022 0.5991 0.6464
C7 C 0.2521(5) 0.1441(4) 0.5876(4)
H5 H 0.1911 0.1705 0.5613
C8 C 0.3101(5) 0.6768(4) 0.7284(4)
H6 H 0.3641 0.7196 0.7434
C9 C 0.2796(9) 0.0882(6) 0.0554(6)
H7 H 0.2194 0.0847 0.0181
C10 C 0.3877(5) 0.3496(4) 0.5153(4)
H8 H 0.4548 0.3212 0.5114
C11 C 0.4604(10) 0.0692(7) 0.0779(7)
H9 H 0.5280 0.0516 0.0571
C12 C 0.2190(5) 0.3593(4) 0.4681(5)
H10 H 0.1636 0.3384 0.4305
C13 C 0.2498(7) 0.1223(5) 0.6780(5)
H11 H 0.1886 0.1330 0.7128
C14 C 0.1999(5) 0.4319(5) 0.5266(5)
H12 H 0.1325 0.4599 0.5281
C15 C 0.1417(5) 0.6272(4) 0.7425(5)
H13 H 0.0736 0.6346 0.7672
C16 C 0.4195(6) 0.0915(5) 0.5736(5)
H14 H 0.4788 0.0786 0.5371
C17 C 0.4459(7) 0.1004(6) 0.1656(5)
H15 H 0.5054 0.1050 0.2037
C18 C 0.2712(7) 0.1173(5) 0.1437(6)
H16 H 0.2038 0.1332 0.1660
C19 C 0.4244(7) 0.0696(6) 0.6638(5)
H17 H 0.4866 0.0444 0.6889
C20 C 0.3765(10) 0.0644(7) 0.0229(6)
H18 H 0.3844 0.0448 -0.0377
Gd1A Gd 0.16503(2) 0.832982(17) 0.865189(18)
N3A N 0.2844(4) 0.3105(3) 0.2644(3)
C21 C 0.644(2) 0.8121(9) 0.5244(11)
H19 H 0.6600 0.8043 0.4624
C22 C 0.5463(18) 0.8227(11) 0.5483(13)
H20 H 0.4968 0.8341 0.5020
N5 N 0.7294(16) 0.8117(14) 0.587(2)
C23 C 0.5124(11) 0.8189(11) 0.6277(11)
H21 H 0.4401 0.8124 0.6413
C24 C 0.5839(15) 0.8247(14) 0.6897(11)
H22 H 0.5602 0.8312 0.7499
C25 C 0.6878(14) 0.8222(11) 0.6768(12)
H23 H 0.7340 0.8275 0.7266
loop_
_geom_bond_atom_site_label_1
_geom_bond_atom_site_label_2
_geom_bond_site_symmetry_1
_geom_bond_site_symmetry_2
Gd1 Cl1 1_555 1_555
Cl2 Gd1 1_555 1_555
Cl3 Gd1 1_555 1_555
N1 Gd1 1_555 1_555
N2 Gd1 1_555 1_555
N3 C8 1_555 1_555
N4 Gd1 1_555 1_555
C1 C2 1_555 1_555
C2 C4 1_555 1_555
C3 C1 1_555 1_555
H1 C3 1_555 1_555
C4 H2 1_555 1_555
C5 H3 1_555 1_555
C6 C1 1_555 1_555
H4 C6 1_555 1_555
C7 N2 1_555 1_555
H5 C7 1_555 1_555
C8 C6 1_555 1_555
H6 C8 1_555 1_555
C9 H7 1_555 1_555
C10 N1 1_555 1_555
H8 C10 1_555 1_555
C11 H9 1_555 1_555
C12 N1 1_555 1_555
H10 C12 1_555 1_555
C13 C5 1_555 1_555
H11 C13 1_555 1_555
C14 C2 1_555 1_555
H12 C14 1_555 1_555
C15 N3 1_555 1_555
H13 C15 1_555 1_555
C16 N2 1_555 1_555
H14 C16 1_555 1_555
C17 N4 1_555 1_555
H15 C17 1_555 1_555
C18 N4 1_555 1_555
H16 C18 1_555 1_555
C19 C5 1_555 1_555
H17 C19 1_555 1_555
C20 C9 1_555 1_555
H18 C20 1_555 1_555
C21 H19 1_555 1_555
C22 C21 1_555 1_555
H20 C22 1_555 1_555
N5 C21 1_555 1_555
C23 C22 1_555 1_555
H21 C23 1_555 1_555
C24 C23 1_555 1_555
H22 C24 1_555 1_555
C25 N5 1_555 1_555
H23 C25 1_555 1_555
Gd1A N3 1_555 1_555
N3A Gd1 1_555 1_555
C3 C15 1_555 1_555
C4 C10 1_555 1_555
C7 C13 1_555 1_555
C9 C18 1_555 1_555
C11 C17 1_555 1_555
C11 C20 1_555 1_555
C12 C14 1_555 1_555
C16 C19 1_555 1_555
C24 C25 1_555 1_555

#END
