
#######################################################################
#
#                 Cambridge Crystallographic Data Centre
#                                CCDC 
#
#######################################################################
#
# If this CIF has been generated from an entry in the Cambridge 
# Structural Database, then it will include bibliographic, chemical, 
# crystal, experimental, refinement or atomic coordinate data resulting 
# from the CCDC's data processing and validation procedures.
#
#######################################################################

data_WOSCUC
_symmetry_cell_setting           triclinic
_symmetry_space_group_name_H-M   'P -1'
_symmetry_Int_Tables_number      2
_space_group_name_Hall           '-P 1'
loop_
_symmetry_equiv_pos_site_id
_symmetry_equiv_pos_as_xyz
1 x,y,z
2 -x,-y,-z
_cell_length_a                   7.661(2)
_cell_length_b                   9.374(3)
_cell_length_c                   13.111(3)
_cell_angle_alpha                93.23(2)
_cell_angle_beta                 99.49(2)
_cell_angle_gamma                102.70(2)
_cell_volume                     901.746
loop_
_atom_site_label
_atom_site_type_symbol
_atom_site_fract_x
_atom_site_fract_y
_atom_site_fract_z
Tl1 Tl -0.3149(1) 0.34020(4) -0.00367(3)
Tl2 Tl -0.3117(1) 0.89652(5) -0.18108(4)
S1 S -0.7228(4) 0.6771(3) -0.3328(2)
S2 S -0.7505(3) 0.0468(3) -0.1062(2)
O1 O -0.614(1) 0.8034(9) -0.3715(7)
O2 O -0.915(1) 0.673(1) -0.3389(8)
O3 O -0.534(1) 0.483(1) -0.1241(6)
O4 O -0.569(1) 0.056(1) -0.1297(8)
O5 O -0.840(1) -0.0916(9) -0.0749(8)
O6 O -0.894(1) 0.3683(8) -0.0100(7)
O7 O -0.179(1) 0.643(1) -0.2083(9)
N1 N -0.633(1) 0.659(1) -0.2159(7)
N2 N -0.749(1) 0.1784(9) -0.0224(7)
C1 C -0.692(1) 0.512(1) -0.3886(8)
C2 C -0.740(2) 0.448(1) -0.4937(9)
C3 C -0.696(2) 0.314(1) -0.5114(9)
C4 C -0.614(2) 0.245(1) -0.437(1)
C5 C -0.570(2) 0.309(1) -0.333(1)
C6 C -0.613(1) 0.441(1) -0.3091(8)
C7 C -0.590(1) 0.527(1) -0.2093(8)
C8 C -0.891(1) 0.099(1) -0.2097(8)
C9 C -0.952(2) 0.037(1) -0.3123(8)
C10 C -1.068(2) 0.102(2) -0.378(1)
C11 C -1.121(2) 0.221(2) -0.341(1)
C12 C -1.061(2) 0.285(1) -0.238(1)
C13 C -0.945(1) 0.221(1) -0.1728(8)
C14 C -0.860(1) 0.265(1) -0.0610(9)
H1 H -0.789(2) 0.499(1) -0.5489(9)
H2 H -0.731(2) 0.266(1) -0.5808(9)
H3 H -0.580(2) 0.156(1) -0.455(1)
H4 H -0.520(2) 0.258(1) -0.279(1)
H5 H -0.916(2) -0.049(1) -0.3368(8)
H6 H -1.116(2) 0.061(2) -0.448(1)
H7 H -1.198(2) 0.265(2) -0.388(1)
H8 H -1.098(2) 0.370(1) -0.214(1)
O3A O -0.466(1) 0.517(1) 0.1241(6)
O5A O -0.160(1) 0.0916(9) 0.0749(8)
O6_2 O 0.106(1) 0.3683(8) -0.0100(7)
O6A O -0.106(1) 0.6317(8) 0.0100(7)
N1A N -0.367(1) 0.341(1) 0.2159(7)
O4_2 O -0.569(1) 1.056(1) -0.1297(8)
N2A N -0.251(1) 0.8216(9) 0.0224(7)
Tl1A Tl -0.6851(1) 0.65980(4) 0.00367(3)
Tl2_2 Tl -0.3117(1) -0.10348(5) -0.18108(4)
Tl1A_2 Tl -0.6851(1) -0.34020(4) 0.00367(3)
Tl1_2 Tl -1.3149(1) 0.34020(4) -0.00367(3)
Tl2A Tl -0.6883(1) 0.10348(5) 0.18108(4)
loop_
_geom_bond_atom_site_label_1
_geom_bond_atom_site_label_2
_geom_bond_site_symmetry_1
_geom_bond_site_symmetry_2
Tl1 O3 1_555 1_555
Tl2 O1 1_555 1_555
S1 O1 1_555 1_555
S2 O4 1_555 1_555
O2 S1 1_555 1_555
O3 C7 1_555 1_555
O4 Tl1 1_555 1_555
O5 S2 1_555 1_555
O6 C14 1_555 1_555
O7 Tl2 1_555 1_555
N1 Tl2 1_555 1_555
N2 Tl1 1_555 1_555
C1 S1 1_555 1_555
C2 C1 1_555 1_555
C3 C2 1_555 1_555
C4 C3 1_555 1_555
C5 C4 1_555 1_555
C6 C1 1_555 1_555
C7 N1 1_555 1_555
C8 S2 1_555 1_555
C9 C8 1_555 1_555
C10 C9 1_555 1_555
C11 C10 1_555 1_555
C12 C11 1_555 1_555
C13 C8 1_555 1_555
C14 N2 1_555 1_555
H1 C2 1_555 1_555
H2 C3 1_555 1_555
H3 C4 1_555 1_555
H4 C5 1_555 1_555
H5 C9 1_555 1_555
H6 C10 1_555 1_555
H7 C11 1_555 1_555
H8 C12 1_555 1_555
O3A Tl1 1_555 1_555
O5A Tl1 1_555 1_555
O6_2 Tl1 1_555 1_555
O6A Tl1 1_555 1_555
N1A Tl1 1_555 1_555
O4_2 Tl2 1_555 1_555
N2A Tl2 1_555 1_555
Tl1A O3 1_555 1_555
Tl2_2 O4 1_555 1_555
Tl1A_2 O5 1_555 1_555
Tl1_2 O6 1_555 1_555
Tl2A N2 1_555 1_555
S1 N1 1_555 1_555
S2 N2 1_555 1_555
O6 Tl1A 1_555 1_555
N1 Tl1A 1_555 1_555
C5 C6 1_555 1_555
C6 C7 1_555 1_555
C12 C13 1_555 1_555
C13 C14 1_555 1_555
O3A Tl1A 1_555 1_555
N1A Tl2A 1_555 1_555
N2A Tl1A 1_555 1_555

#END
