
#######################################################################
#
#                 Cambridge Crystallographic Data Centre
#                                CCDC 
#
#######################################################################
#
# If this CIF has been generated from an entry in the Cambridge 
# Structural Database, then it will include bibliographic, chemical, 
# crystal, experimental, refinement or atomic coordinate data resulting 
# from the CCDC's data processing and validation procedures.
#
#######################################################################

data_WOSDEN
_symmetry_cell_setting           triclinic
_symmetry_space_group_name_H-M   'P -1'
_symmetry_Int_Tables_number      2
_space_group_name_Hall           '-P 1'
loop_
_symmetry_equiv_pos_site_id
_symmetry_equiv_pos_as_xyz
1 x,y,z
2 -x,-y,-z
_cell_length_a                   7.0130(10)
_cell_length_b                   10.3760(10)
_cell_length_c                   11.372(3)
_cell_angle_alpha                73.640(10)
_cell_angle_beta                 78.150(10)
_cell_angle_gamma                81.440(10)
_cell_volume                     773.421
loop_
_atom_site_label
_atom_site_type_symbol
_atom_site_fract_x
_atom_site_fract_y
_atom_site_fract_z
Cu1 Cu 0.65241(5) 0.35334(3) 0.06751(3)
Cl1 Cl 0.69209(12) 0.57751(7) 0.02034(8)
N1 N 0.8031(4) 0.3284(2) -0.0971(2)
N2 N 0.6440(4) 0.1510(2) 0.1011(2)
C1 C 0.8838(5) 0.4198(3) -0.1949(3)
H1 H 0.8813 0.5076 -0.1888
C2 C 0.9725(5) 0.3886(4) -0.3065(3)
H2 H 1.0227 0.4560 -0.3742
C3 C 0.9857(5) 0.2590(4) -0.3165(3)
H3 H 1.0458 0.2376 -0.3904
C4 C 0.9072(4) 0.1587(3) -0.2137(3)
C5 C 0.9216(5) 0.0172(3) -0.2091(3)
H4 H 0.9820 -0.0114 -0.2795
C6 C 0.8501(5) -0.0742(3) -0.1060(3)
H5 H 0.8650 -0.1649 -0.1056
C7 C 0.7509(4) -0.0344(3) 0.0039(3)
C8 C 0.6701(5) -0.1234(3) 0.1152(3)
H6 H 0.6779 -0.2153 0.1213
C9 C 0.5802(5) -0.0741(3) 0.2143(3)
H7 H 0.5267 -0.1322 0.2884
C10 C 0.5693(5) 0.0640(3) 0.2035(3)
H8 H 0.5067 0.0963 0.2714
C11 C 0.7342(4) 0.1026(3) 0.0017(3)
C12 C 0.8167(4) 0.1991(3) -0.1067(3)
C13 C 0.6761(5) 0.3286(3) 0.3037(3)
C14 C 0.6163(6) 0.3467(4) 0.4344(3)
H9 H 0.7312 0.3295 0.4738
H10 H 0.5258 0.2813 0.4827
C15 C 0.5199(5) 0.4885(3) 0.4351(3)
H11 H 0.6045 0.5543 0.3794
H12 H 0.3974 0.5022 0.4042
O1 O 0.5384(3) 0.3483(2) 0.2408(2)
O2 O 0.8487(4) 0.2992(3) 0.2613(3)
C15A C 0.4801(5) 0.5115(3) 0.5649(3)
C14A C 0.3837(6) 0.6533(4) 0.5656(3)
C13A C 0.3239(5) 0.6714(3) 0.6963(3)
O1A O 0.4616(3) 0.6517(2) 0.7592(2)
O2A O 0.1513(4) 0.7008(3) 0.7387(3)
H9A H 0.2688 0.6705 0.5262
H10A H 0.4742 0.7187 0.5173
H11A H 0.3955 0.4457 0.6206
H12A H 0.6026 0.4978 0.5958
Cl1A Cl 0.30791(12) 0.42249(7) -0.02034(8)
Cu1A Cu 0.34759(5) 0.64666(3) -0.06751(3)
N1A N 0.1969(4) 0.6716(2) 0.0971(2)
N2A N 0.3560(4) 0.8490(2) -0.1011(2)
C1A C 0.1162(5) 0.5802(3) 0.1949(3)
H1A H 0.1187 0.4924 0.1888
C2A C 0.0275(5) 0.6114(4) 0.3065(3)
H2A H -0.0227 0.5440 0.3742
C3A C 0.0143(5) 0.7410(4) 0.3165(3)
H3A H -0.0458 0.7624 0.3904
C4A C 0.0928(4) 0.8413(3) 0.2137(3)
C5A C 0.0784(5) 0.9828(3) 0.2091(3)
H4A H 0.0180 1.0114 0.2795
C6A C 0.1499(5) 1.0742(3) 0.1060(3)
H5A H 0.1350 1.1649 0.1056
C7A C 0.2491(4) 1.0344(3) -0.0039(3)
C8A C 0.3299(5) 1.1234(3) -0.1152(3)
H6A H 0.3221 1.2153 -0.1213
C9A C 0.4198(5) 1.0741(3) -0.2143(3)
H7A H 0.4733 1.1322 -0.2884
C10A C 0.4307(5) 0.9360(3) -0.2035(3)
H8A H 0.4933 0.9037 -0.2714
C11A C 0.2658(4) 0.8974(3) -0.0017(3)
C12A C 0.1833(4) 0.8009(3) 0.1067(3)
Cu1A_2 Cu 0.34759(5) 0.64666(3) 0.93249(3)
O1A_2 O 0.4616(3) 0.6517(2) -0.2408(2)
O3 O 0.1687(4) 0.2550(3) 0.3807(3)
H13 H 0.2677 0.2851 0.3242
H14 H 0.0698 0.2819 0.3354
O4 O 0.2794(11) -0.0071(5) 0.5018(5)
H15 H 0.2536 0.0723 0.4522
H16 H 0.4138 -0.0026 0.5016
loop_
_geom_bond_atom_site_label_1
_geom_bond_atom_site_label_2
_geom_bond_site_symmetry_1
_geom_bond_site_symmetry_2
Cu1 Cl1 1_555 1_555
Cl1 Cu1A 1_555 1_555
N1 Cu1 1_555 1_555
N2 Cu1 1_555 1_555
C1 N1 1_555 1_555
H1 C1 1_555 1_555
C2 C1 1_555 1_555
H2 C2 1_555 1_555
C3 C2 1_555 1_555
H3 C3 1_555 1_555
C4 C3 1_555 1_555
C5 C4 1_555 1_555
H4 C5 1_555 1_555
C6 C5 1_555 1_555
H5 C6 1_555 1_555
C7 C6 1_555 1_555
C8 C7 1_555 1_555
H6 C8 1_555 1_555
C9 C8 1_555 1_555
H7 C9 1_555 1_555
C10 N2 1_555 1_555
H8 C10 1_555 1_555
C11 N2 1_555 1_555
C12 N1 1_555 1_555
C13 C14 1_555 1_555
C14 H9 1_555 1_555
H10 C14 1_555 1_555
C15 C14 1_555 1_555
H11 C15 1_555 1_555
H12 C15 1_555 1_555
O1 Cu1 1_555 1_555
O2 C13 1_555 1_555
O3 H13 1_555 1_555
O4 H15 1_555 1_555
H14 O3 1_555 1_555
H16 O4 1_555 1_555
C15A C15 1_555 1_555
C14A C15A 1_555 1_555
C13A C14A 1_555 1_555
O1A C13A 1_555 1_555
O2A C13A 1_555 1_555
H9A C14A 1_555 1_555
H10A C14A 1_555 1_555
H11A C15A 1_555 1_555
H12A C15A 1_555 1_555
Cl1A Cu1 1_555 1_555
Cu1A Cl1A 1_555 1_555
N1A Cu1A 1_555 1_555
N2A Cu1A 1_555 1_555
C1A N1A 1_555 1_555
H1A C1A 1_555 1_555
C2A C1A 1_555 1_555
H2A C2A 1_555 1_555
C3A C2A 1_555 1_555
H3A C3A 1_555 1_555
C4A C3A 1_555 1_555
C5A C4A 1_555 1_555
H4A C5A 1_555 1_555
C6A C5A 1_555 1_555
H5A C6A 1_555 1_555
C7A C6A 1_555 1_555
C8A C7A 1_555 1_555
H6A C8A 1_555 1_555
C9A C8A 1_555 1_555
H7A C9A 1_555 1_555
C10A N2A 1_555 1_555
H8A C10A 1_555 1_555
C11A N2A 1_555 1_555
C12A N1A 1_555 1_555
Cu1A_2 O1A 1_555 1_555
O1A_2 Cu1A 1_555 1_555
C4 C12 1_555 1_555
C7 C11 1_555 1_555
C9 C10 1_555 1_555
C11 C12 1_555 1_555
C13 O1 1_555 1_555
C4A C12A 1_555 1_555
C7A C11A 1_555 1_555
C9A C10A 1_555 1_555
C11A C12A 1_555 1_555

#END
