
#######################################################################
#
#                 Cambridge Crystallographic Data Centre
#                                CCDC 
#
#######################################################################
#
# If this CIF has been generated from an entry in the Cambridge 
# Structural Database, then it will include bibliographic, chemical, 
# crystal, experimental, refinement or atomic coordinate data resulting 
# from the CCDC's data processing and validation procedures.
#
#######################################################################

data_WOSDAL
_symmetry_cell_setting           orthorhombic
_symmetry_space_group_name_H-M   'P 21 21 21'
_symmetry_Int_Tables_number      19
_space_group_name_Hall           'P 2ac 2ab'
loop_
_symmetry_equiv_pos_site_id
_symmetry_equiv_pos_as_xyz
1 x,y,z
2 1/2-x,-y,1/2+z
3 1/2+x,1/2-y,-z
4 -x,1/2+y,1/2-z
_cell_length_a                   12.682(3)
_cell_length_b                   14.266(3)
_cell_length_c                   14.736(3)
_cell_angle_alpha                90
_cell_angle_beta                 90
_cell_angle_gamma                90
_cell_volume                     2666.06
loop_
_atom_site_label
_atom_site_type_symbol
_atom_site_fract_x
_atom_site_fract_y
_atom_site_fract_z
Ho1 Ho 0.165512(14) 0.332125(12) 0.364675(12)
Cl1 Cl 0.36697(8) 0.36074(7) 0.36613(8)
Cl2 Cl -0.02987(8) 0.28206(7) 0.35984(9)
Cl3 Cl 0.11321(9) 0.50953(7) 0.36835(8)
N1 N 0.1885(3) 0.1834(3) 0.4602(2)
N2 N 0.1654(4) 0.3698(2) 0.5322(2)
N3 N 0.1492(4) 0.3745(3) 0.1993(2)
N4 N 0.2846(3) -0.1903(3) 0.7653(2)
C1 C 0.2422(4) -0.0402(3) 0.6476(3)
C2 C 0.1645(4) -0.1048(3) 0.6702(3)
H1 H 0.0955 -0.0990 0.6459
C3 C 0.1888(3) -0.1777(3) 0.7285(3)
H2 H 0.1348 -0.2212 0.7432
C4 C 0.3407(4) -0.0513(3) 0.6872(3)
H3 H 0.3954 -0.0076 0.6752
C5 C 0.2226(4) 0.0366(3) 0.5829(3)
C6 C 0.2491(4) 0.3554(3) 0.5858(3)
H4 H 0.3110 0.3294 0.5597
C7 C 0.2497(5) 0.3765(4) 0.6763(4)
H5 H 0.3108 0.3642 0.7116
C8 C 0.2331(5) 0.3814(3) 0.1442(4)
H6 H 0.3007 0.3658 0.1674
C9 C 0.1111(4) 0.1523(3) 0.5143(3)
H7 H 0.0441 0.1820 0.5111
C10 C 0.2813(4) 0.1415(3) 0.4669(3)
H8 H 0.3369 0.1627 0.4289
C11 C 0.1629(6) 0.4151(4) 0.7159(3)
H9 H 0.1629 0.4311 0.7785
C12 C 0.0560(5) 0.3983(4) 0.1648(3)
H10 H -0.0045 0.3938 0.2025
C13 C 0.3020(4) 0.0682(3) 0.5264(3)
H11 H 0.3699 0.0401 0.5282
C14 C 0.1245(4) 0.0792(3) 0.5743(3)
H12 H 0.0668 0.0579 0.6098
C15 C 0.0804(4) 0.4068(4) 0.5714(3)
H13 H 0.0202 0.4176 0.5346
C16 C 0.0741(5) 0.4305(4) 0.6622(4)
H14 H 0.0114 0.4563 0.6871
C17 C 0.3583(4) -0.1266(3) 0.7444(3)
H15 H 0.4264 -0.1335 0.7703
C18 C 0.0430(6) 0.4294(4) 0.0768(4)
H16 H -0.0249 0.4469 0.0554
C19 C 0.2250(7) 0.4104(4) 0.0549(4)
H17 H 0.2857 0.4136 0.0173
C20 C 0.1274(7) 0.4346(5) 0.0215(4)
H18 H 0.1196 0.4546 -0.0396
Ho1A Ho 0.334488(14) -0.332125(12) 0.864675(12)
N4A N 0.2154(3) 0.1903(3) 0.2653(2)
N5 N 0.0103(6) 0.1815(6) 0.8704(6)
C21 C 0.1871(7) 0.1796(6) 0.8241(7)
H19 H 0.2363 0.1774 0.7755
C22 C 0.0458(11) 0.1816(7) 0.9555(7)
H20 H -0.0045 0.1782 1.0032
C23 C 0.0851(8) 0.1758(8) 0.8082(6)
H21 H 0.0634 0.1684 0.7469
C24 C 0.1457(11) 0.1862(6) 0.9777(7)
H22 H 0.1647 0.1890 1.0400
C25 C 0.2220(10) 0.1870(8) 0.9143(11)
H23 H 0.2946 0.1922 0.9295
loop_
_geom_bond_atom_site_label_1
_geom_bond_atom_site_label_2
_geom_bond_site_symmetry_1
_geom_bond_site_symmetry_2
Ho1 Cl1 1_555 1_555
Cl2 Ho1 1_555 1_555
Cl3 Ho1 1_555 1_555
N1 Ho1 1_555 1_555
N2 Ho1 1_555 1_555
N3 Ho1 1_555 1_555
N4 C3 1_555 1_555
C1 C2 1_555 1_555
C2 H1 1_555 1_555
C3 C2 1_555 1_555
H2 C3 1_555 1_555
C4 C1 1_555 1_555
H3 C4 1_555 1_555
C5 C1 1_555 1_555
C6 N2 1_555 1_555
H4 C6 1_555 1_555
C7 C6 1_555 1_555
H5 C7 1_555 1_555
C8 N3 1_555 1_555
H6 C8 1_555 1_555
C9 N1 1_555 1_555
H7 C9 1_555 1_555
C10 N1 1_555 1_555
H8 C10 1_555 1_555
C11 C7 1_555 1_555
H9 C11 1_555 1_555
C12 N3 1_555 1_555
H10 C12 1_555 1_555
C13 C5 1_555 1_555
H11 C13 1_555 1_555
C14 C5 1_555 1_555
H12 C14 1_555 1_555
C15 N2 1_555 1_555
H13 C15 1_555 1_555
C16 C11 1_555 1_555
H14 C16 1_555 1_555
C17 N4 1_555 1_555
H15 C17 1_555 1_555
C18 C12 1_555 1_555
H16 C18 1_555 1_555
C19 C8 1_555 1_555
H17 C19 1_555 1_555
C20 C18 1_555 1_555
H18 C20 1_555 1_555
N5 C22 1_555 1_555
C21 H19 1_555 1_555
C22 H20 1_555 1_555
C23 N5 1_555 1_555
H21 C23 1_555 1_555
C24 C22 1_555 1_555
H22 C24 1_555 1_555
C25 C21 1_555 1_555
H23 C25 1_555 1_555
Ho1A N4 1_555 1_555
N4A Ho1 1_555 1_555
C4 C17 1_555 1_555
C9 C14 1_555 1_555
C10 C13 1_555 1_555
C15 C16 1_555 1_555
C19 C20 1_555 1_555
C21 C23 1_555 1_555
C24 C25 1_555 1_555

#END
