
#######################################################################
#
#                 Cambridge Crystallographic Data Centre
#                                CCDC 
#
#######################################################################
#
# If this CIF has been generated from an entry in the Cambridge 
# Structural Database, then it will include bibliographic, chemical, 
# crystal, experimental, refinement or atomic coordinate data resulting 
# from the CCDC's data processing and validation procedures.
#
#######################################################################

data_WOSDOZ
_symmetry_cell_setting           triclinic
_symmetry_space_group_name_H-M   'P -1'
_symmetry_Int_Tables_number      2
_space_group_name_Hall           '-P 1'
loop_
_symmetry_equiv_pos_site_id
_symmetry_equiv_pos_as_xyz
1 x,y,z
2 -x,-y,-z
_cell_length_a                   13.1493(4)
_cell_length_b                   16.1900(5)
_cell_length_c                   19.3364(6)
_cell_angle_alpha                66.7678(10)
_cell_angle_beta                 70.8605(9)
_cell_angle_gamma                87.8194(9)
_cell_volume                     3553.78
loop_
_atom_site_label
_atom_site_type_symbol
_atom_site_fract_x
_atom_site_fract_y
_atom_site_fract_z
Pb1 Pb 0.51008(3) 0.29331(2) 0.50655(2)
Ir1 Ir 0.83850(3) -0.16600(2) 0.78288(2)
Ir2 Ir 1.15373(3) 0.65969(2) 0.21068(2)
O1 O 0.5633(6) 0.1355(4) 0.5528(4)
O2 O 0.6251(8) 0.2197(5) 0.5972(5)
O3 O 0.5059(6) -0.2473(5) 0.5940(4)
O4 O 0.5836(7) -0.3686(5) 0.6128(5)
O5 O 0.7091(6) 0.3241(5) 0.4109(5)
O6 O 0.6357(7) 0.4339(5) 0.4328(5)
O7 O 0.7028(7) 0.7807(6) 0.4514(5)
O8 O 0.7988(7) 0.9081(6) 0.3867(6)
O9 O 0.4086(7) 0.3946(5) 0.5933(5)
H1 H 0.3858 0.4455 0.5753
H2 H 0.3596 0.3572 0.6340
N1 N 0.9818(7) -0.1321(5) 0.6908(5)
N2 N 0.7055(7) -0.2052(5) 0.8846(5)
N3 N 0.7603(7) -0.0588(5) 0.7258(5)
N4 N 0.7673(7) -0.2134(5) 0.7197(5)
N5 N 1.1009(7) 0.7035(6) 0.1149(5)
N6 N 1.2256(7) 0.6144(5) 0.2956(5)
N7 N 1.0129(6) 0.5653(5) 0.2751(5)
N8 N 1.0416(6) 0.7201(5) 0.2759(5)
C1 C 0.9123(10) -0.2685(6) 0.8294(6)
C2 C 0.8764(10) -0.3433(8) 0.8983(7)
H3 H 0.8030 -0.3511 0.9317
C3 C 0.9412(10) -0.4074(7) 0.9213(7)
H4 H 0.9127 -0.4590 0.9703
C4 C 1.0509(12) -0.3989(8) 0.8734(7)
H5 H 1.0953 -0.4446 0.8912
C5 C 1.0935(11) -0.3277(8) 0.8035(7)
H6 H 1.1674 -0.3214 0.7714
C6 C 1.0251(9) -0.2637(6) 0.7802(7)
C7 C 1.0617(9) -0.1875(7) 0.7027(7)
C8 C 1.1629(9) -0.1689(8) 0.6430(7)
H7 H 1.2163 -0.2091 0.6521
C9 C 1.1872(10) -0.0975(8) 0.5745(7)
H8 H 1.2569 -0.0860 0.5348
C10 C 1.1092(10) -0.0402(8) 0.5618(6)
H9 H 1.1234 0.0124 0.5135
C11 C 1.0072(10) -0.0620(7) 0.6230(7)
H10 H 0.9531 -0.0226 0.6139
C12 C 0.8852(9) -0.1079(6) 0.8425(7)
C13 C 0.9797(10) -0.0553(8) 0.8183(7)
H11 H 1.0362 -0.0501 0.7707
C14 C 0.9944(11) -0.0096(7) 0.8620(7)
H12 H 1.0602 0.0269 0.8448
C15 C 0.9132(11) -0.0180(7) 0.9299(8)
H13 H 0.9231 0.0146 0.9591
C16 C 0.8173(12) -0.0710(7) 0.9588(7)
H14 H 0.7617 -0.0760 1.0068
C17 C 0.8063(9) -0.1153(7) 0.9155(6)
C18 C 0.7096(9) -0.1758(7) 0.9404(6)
C19 C 0.6272(11) -0.2039(8) 1.0139(7)
H15 H 0.6306 -0.1850 1.0539
C20 C 0.5387(10) -0.2610(9) 1.0277(8)
H16 H 0.4802 -0.2798 1.0771
C21 C 0.5357(10) -0.2886(8) 0.9733(7)
H17 H 0.4767 -0.3288 0.9833
C22 C 0.6188(11) -0.2587(8) 0.9017(7)
H18 H 0.6143 -0.2772 0.8618
C23 C 0.7613(8) 0.0180(7) 0.7316(6)
H19 H 0.7929 0.0259 0.7666
C24 C 0.7175(9) 0.0865(7) 0.6879(6)
H20 H 0.7242 0.1442 0.6890
C25 C 0.6619(9) 0.0752(6) 0.6408(6)
C26 C 0.6591(8) -0.0040(6) 0.6382(6)
H21 H 0.6229 -0.0151 0.6070
C27 C 0.7084(8) -0.0703(6) 0.6804(6)
C28 C 0.7082(8) -0.1569(6) 0.6802(6)
C29 C 0.6485(9) -0.1841(6) 0.6446(6)
H22 H 0.6081 -0.1422 0.6168
C30 C 0.6465(8) -0.2673(6) 0.6486(5)
C31 C 0.7104(9) -0.3221(7) 0.6874(6)
H23 H 0.7152 -0.3816 0.6893
C32 C 0.7663(10) -0.2942(7) 0.7228(7)
H24 H 0.8066 -0.3357 0.7510
C33 C 0.6105(10) 0.1498(6) 0.5935(6)
C34 C 0.5724(10) -0.2992(7) 0.6178(7)
C35 C 1.2465(10) 0.5960(7) 0.1482(6)
C36 C 1.3243(9) 0.5410(7) 0.1641(6)
H25 H 1.3416 0.5311 0.2105
C37 C 1.3781(11) 0.4997(7) 0.1154(8)
H26 H 1.4330 0.4628 0.1276
C38 C 1.3532(11) 0.5112(8) 0.0491(8)
H27 H 1.3889 0.4797 0.0171
C39 C 1.2800(13) 0.5658(8) 0.0283(7)
H28 H 1.2634 0.5727 -0.0179
C40 C 1.2286(11) 0.6119(7) 0.0741(7)
C41 C 1.1444(11) 0.6717(8) 0.0605(8)
C42 C 1.1149(13) 0.6970(8) -0.0080(9)
H29 H 1.1497 0.6741 -0.0472
C43 C 1.0389(16) 0.7525(11) -0.0187(10)
H30 H 1.0187 0.7702 -0.0651
C44 C 0.9914(16) 0.7829(10) 0.0393(11)
H31 H 0.9358 0.8217 0.0345
C45 C 1.0240(12) 0.7574(8) 0.1055(9)
H32 H 0.9899 0.7795 0.1454
C46 C 1.2740(9) 0.7573(7) 0.1660(6)
C47 C 1.2916(11) 0.8340(7) 0.0956(8)
H33 H 1.2511 0.8411 0.0613
C48 C 1.3702(10) 0.8983(8) 0.0787(7)
H34 H 1.3815 0.9534 0.0329
C49 C 1.4348(12) 0.8871(8) 0.1254(8)
H35 H 1.4895 0.9338 0.1100
C50 C 1.4218(10) 0.8131(8) 0.1904(7)
H36 H 1.4669 0.8052 0.2217
C51 C 1.3377(8) 0.7453(7) 0.2121(6)
C52 C 1.3149(8) 0.6654(6) 0.2826(6)
C53 C 1.3747(9) 0.6344(8) 0.3344(7)
H37 H 1.4370 0.6708 0.3247
C54 C 1.3455(12) 0.5546(8) 0.3973(7)
H38 H 1.3863 0.5336 0.4322
C55 C 1.2561(11) 0.5045(7) 0.4098(7)
H39 H 1.2334 0.4479 0.4545
C56 C 1.1963(9) 0.5350(7) 0.3577(6)
H40 H 1.1344 0.4984 0.3670
C57 C 1.0048(9) 0.4870(7) 0.2711(7)
H41 H 1.0654 0.4684 0.2397
C58 C 0.9098(8) 0.4319(7) 0.3119(7)
H42 H 0.9046 0.3764 0.3067
C59 C 0.8224(9) 0.4546(7) 0.3598(6)
C60 C 0.8335(9) 0.5347(6) 0.3652(6)
H43 H 0.7755 0.5538 0.3982
C61 C 0.9286(8) 0.5862(6) 0.3227(6)
C62 C 0.9419(8) 0.6741(6) 0.3237(6)
C63 C 0.8602(9) 0.7068(6) 0.3667(6)
H44 H 0.7925 0.6714 0.3990
C64 C 0.8770(9) 0.7906(6) 0.3624(6)
C65 C 0.9783(9) 0.8367(6) 0.3153(6)
H45 H 0.9936 0.8951 0.3124
C66 C 1.0565(8) 0.8009(6) 0.2732(6)
H46 H 1.1245 0.8356 0.2406
C67 C 0.7133(9) 0.4003(7) 0.4041(6)
C68 C 0.7828(10) 0.8264(7) 0.4043(7)
Pb1A Pb 0.48992(3) -0.29331(2) 0.49345(2)
Pb1A_2 Pb 0.48992(3) 0.70669(2) 0.49345(2)
O3A O 0.4941(6) 0.2473(5) 0.4060(4)
O4A O 0.4164(7) 0.3686(5) 0.3872(5)
O7A O 0.2972(7) 0.2193(6) 0.5486(5)
Cl1 Cl 0.7082(3) 0.8104(3) 0.2227(2)
O10 O 0.8161(11) 0.8371(9) 0.2010(9)
O11 O 0.6498(15) 0.8196(11) 0.2929(9)
O12 O 0.6697(13) 0.8724(11) 0.1597(8)
O13 O 0.6930(17) 0.7249(12) 0.2416(10)
O14 O 0.2964(10) 0.5204(9) 0.8650(9)
C69 C 0.3074(14) 0.4659(11) 0.8388(10)
C70 C 0.4084(15) 0.4646(13) 0.7787(10)
H47 H 0.4449 0.5262 0.7472
H48 H 0.3929 0.4411 0.7432
H49 H 0.4553 0.4258 0.8051
C71 C 0.2145(16) 0.3986(12) 0.8643(12)
H50 H 0.1587 0.3993 0.9123
H51 H 0.2391 0.3382 0.8764
H52 H 0.1844 0.4139 0.8212
O15 O 1.0614(11) 0.3515(8) 0.4429(10)
C72 C 0.9917(14) 0.2995(9) 0.4832(8)
C73 C 0.9944(19) 0.2074(12) 0.4836(11)
H53 H 0.9387 0.1970 0.4636
H54 H 0.9804 0.1624 0.5384
H55 H 1.0657 0.2022 0.4491
C74 C 0.8868(16) 0.3134(14) 0.5344(10)
H56 H 0.8932 0.3718 0.5375
H57 H 0.8669 0.2649 0.5882
H58 H 0.8309 0.3127 0.5113
O16 O 0.580(2) 0.1504(12) 0.2185(10)
C75 C 0.6289(18) 0.1026(13) 0.1874(12)
C76 C 0.724(2) 0.060(2) 0.203(3)
H59 H 0.7396 0.0762 0.2432
H60 H 0.7869 0.0822 0.1536
H61 H 0.7104 -0.0054 0.2237
C77 C 0.581(3) 0.075(2) 0.1394(16)
H62 H 0.5018 0.0687 0.1629
H63 H 0.6053 0.0174 0.1391
H64 H 0.6038 0.1214 0.0844
O17 O 0.5981(9) 0.1206(7) 0.3659(7)
H65 H 0.5874 0.1308 0.3237
H66 H 0.5804 0.1594 0.3847
O18 O 0.6188(8) 0.9574(6) 0.4536(7)
H67 H 0.5660 0.9475 0.4400
H68 H 0.6775 0.9476 0.4240
O19 O 0.5440(12) 0.3337(10) 0.1744(8)
H69 H 0.5382 0.2807 0.2115
H70 H 0.5983 0.3656 0.1681
loop_
_geom_bond_atom_site_label_1
_geom_bond_atom_site_label_2
_geom_bond_site_symmetry_1
_geom_bond_site_symmetry_2
Pb1 O1 1_555 1_555
Ir1 N1 1_555 1_555
Ir2 N5 1_555 1_555
O1 C33 1_555 1_555
O2 Pb1 1_555 1_555
O3 C34 1_555 1_555
O4 C34 1_555 1_555
O5 Pb1 1_555 1_555
O6 Pb1 1_555 1_555
O7 C68 1_555 1_555
O8 C68 1_555 1_555
O9 Pb1 1_555 1_555
H1 O9 1_555 1_555
H2 O9 1_555 1_555
N1 C7 1_555 1_555
N2 Ir1 1_555 1_555
N3 Ir1 1_555 1_555
N4 Ir1 1_555 1_555
N5 C41 1_555 1_555
N6 Ir2 1_555 1_555
N7 Ir2 1_555 1_555
N8 Ir2 1_555 1_555
C1 Ir1 1_555 1_555
C2 C1 1_555 1_555
H3 C2 1_555 1_555
C3 C2 1_555 1_555
H4 C3 1_555 1_555
C4 C3 1_555 1_555
H5 C4 1_555 1_555
C5 C4 1_555 1_555
H6 C5 1_555 1_555
C6 C1 1_555 1_555
C7 C6 1_555 1_555
C8 C7 1_555 1_555
H7 C8 1_555 1_555
C9 C8 1_555 1_555
H8 C9 1_555 1_555
C10 C9 1_555 1_555
H9 C10 1_555 1_555
C11 N1 1_555 1_555
H10 C11 1_555 1_555
C12 Ir1 1_555 1_555
C13 C12 1_555 1_555
H11 C13 1_555 1_555
C14 C13 1_555 1_555
H12 C14 1_555 1_555
C15 C14 1_555 1_555
H13 C15 1_555 1_555
C16 C15 1_555 1_555
H14 C16 1_555 1_555
C17 C12 1_555 1_555
C18 N2 1_555 1_555
C19 C18 1_555 1_555
H15 C19 1_555 1_555
C20 C19 1_555 1_555
H16 C20 1_555 1_555
C21 C20 1_555 1_555
H17 C21 1_555 1_555
C22 N2 1_555 1_555
H18 C22 1_555 1_555
C23 N3 1_555 1_555
H19 C23 1_555 1_555
C24 C23 1_555 1_555
H20 C24 1_555 1_555
C25 C24 1_555 1_555
C26 C25 1_555 1_555
H21 C26 1_555 1_555
C27 N3 1_555 1_555
C28 N4 1_555 1_555
C29 C28 1_555 1_555
H22 C29 1_555 1_555
C30 C29 1_555 1_555
C31 C30 1_555 1_555
H23 C31 1_555 1_555
C32 N4 1_555 1_555
H24 C32 1_555 1_555
C33 O2 1_555 1_555
C34 C30 1_555 1_555
C35 Ir2 1_555 1_555
C36 C35 1_555 1_555
H25 C36 1_555 1_555
C37 C36 1_555 1_555
H26 C37 1_555 1_555
C38 C37 1_555 1_555
H27 C38 1_555 1_555
C39 C38 1_555 1_555
H28 C39 1_555 1_555
C40 C35 1_555 1_555
C41 C40 1_555 1_555
C42 C41 1_555 1_555
H29 C42 1_555 1_555
C43 C42 1_555 1_555
H30 C43 1_555 1_555
C44 C43 1_555 1_555
H31 C44 1_555 1_555
C45 N5 1_555 1_555
H32 C45 1_555 1_555
C46 Ir2 1_555 1_555
C47 C46 1_555 1_555
H33 C47 1_555 1_555
C48 C47 1_555 1_555
H34 C48 1_555 1_555
C49 C48 1_555 1_555
H35 C49 1_555 1_555
C50 C49 1_555 1_555
H36 C50 1_555 1_555
C51 C46 1_555 1_555
C52 N6 1_555 1_555
C53 C52 1_555 1_555
H37 C53 1_555 1_555
C54 C53 1_555 1_555
H38 C54 1_555 1_555
C55 C54 1_555 1_555
H39 C55 1_555 1_555
C56 N6 1_555 1_555
H40 C56 1_555 1_555
C57 N7 1_555 1_555
H41 C57 1_555 1_555
C58 C57 1_555 1_555
H42 C58 1_555 1_555
C59 C58 1_555 1_555
C60 C59 1_555 1_555
H43 C60 1_555 1_555
C61 N7 1_555 1_555
C62 N8 1_555 1_555
C63 C62 1_555 1_555
H44 C63 1_555 1_555
C64 C63 1_555 1_555
C65 C64 1_555 1_555
H45 C65 1_555 1_555
C66 N8 1_555 1_555
H46 C66 1_555 1_555
C67 O5 1_555 1_555
C68 C64 1_555 1_555
Cl1 O10 1_555 1_555
O11 Cl1 1_555 1_555
O12 Cl1 1_555 1_555
O13 Cl1 1_555 1_555
O14 C69 1_555 1_555
C69 C70 1_555 1_555
C70 H47 1_555 1_555
H48 C70 1_555 1_555
H49 C70 1_555 1_555
C71 C69 1_555 1_555
H50 C71 1_555 1_555
H51 C71 1_555 1_555
H52 C71 1_555 1_555
O15 C72 1_555 1_555
C72 C73 1_555 1_555
C73 H53 1_555 1_555
H54 C73 1_555 1_555
H55 C73 1_555 1_555
C74 C72 1_555 1_555
H56 C74 1_555 1_555
H57 C74 1_555 1_555
H58 C74 1_555 1_555
O16 C75 1_555 1_555
C75 C76 1_555 1_555
C76 H59 1_555 1_555
H60 C76 1_555 1_555
H61 C76 1_555 1_555
C77 C75 1_555 1_555
H62 C77 1_555 1_555
H63 C77 1_555 1_555
H64 C77 1_555 1_555
O17 H65 1_555 1_555
H66 O17 1_555 1_555
O18 H67 1_555 1_555
H68 O18 1_555 1_555
O19 H69 1_555 1_555
H70 O19 1_555 1_555
Pb1A O3 1_555 1_555
Pb1A_2 O7 1_555 1_555
O3A Pb1 1_555 1_555
O4A Pb1 1_555 1_555
O7A Pb1 1_555 1_555
O4 Pb1A 1_555 1_555
O6 C67 1_555 1_555
C5 C6 1_555 1_555
C10 C11 1_555 1_555
C16 C17 1_555 1_555
C17 C18 1_555 1_555
C21 C22 1_555 1_555
C25 C33 1_555 1_555
C26 C27 1_555 1_555
C27 C28 1_555 1_555
C31 C32 1_555 1_555
C39 C40 1_555 1_555
C44 C45 1_555 1_555
C50 C51 1_555 1_555
C51 C52 1_555 1_555
C55 C56 1_555 1_555
C59 C67 1_555 1_555
C60 C61 1_555 1_555
C61 C62 1_555 1_555
C65 C66 1_555 1_555

#END
