
#######################################################################
#
#                 Cambridge Crystallographic Data Centre
#                                CCDC 
#
#######################################################################
#
# If this CIF has been generated from an entry in the Cambridge 
# Structural Database, then it will include bibliographic, chemical, 
# crystal, experimental, refinement or atomic coordinate data resulting 
# from the CCDC's data processing and validation procedures.
#
#######################################################################

data_WOSGIW
_symmetry_cell_setting           monoclinic
_symmetry_space_group_name_H-M   'C 2/c'
_symmetry_Int_Tables_number      15
_space_group_name_Hall           '-C 2yn'
loop_
_symmetry_equiv_pos_site_id
_symmetry_equiv_pos_as_xyz
1 x,y,z
2 -x,y,1/2-z
3 1/2+x,1/2+y,z
4 1/2-x,1/2+y,1/2-z
5 -x,-y,-z
6 x,-y,1/2+z
7 1/2-x,1/2-y,-z
8 1/2+x,1/2-y,1/2+z
_cell_length_a                   11.9644(11)
_cell_length_b                   11.7512(9)
_cell_length_c                   20.5623(16)
_cell_angle_alpha                90
_cell_angle_beta                 96.341(8)
_cell_angle_gamma                90
_cell_volume                     2873.29
loop_
_atom_site_label
_atom_site_type_symbol
_atom_site_fract_x
_atom_site_fract_y
_atom_site_fract_z
Ni1 Ni 0.90057(4) 0.08892(4) 0.51268(2)
N1 N 0.9035(3) -0.0530(2) 0.45869(13)
O1 O 0.7949(2) 0.6390(2) 0.25594(10)
N2 N 0.8600(3) 0.3103(3) 0.55144(13)
O2 O 0.9451(2) 0.4549(2) 0.30699(11)
N3 N 0.6543(2) 0.5035(2) 0.41419(13)
N4 N 0.9350(3) 0.1925(2) 0.43918(13)
N5 N 0.8134(3) -0.0871(3) 0.35258(15)
N6 N 0.9046(3) 0.2262(3) 0.57300(14)
N7 N 0.8569(3) -0.0683(2) 0.40447(15)
C1 C 0.7530(3) 0.6015(3) 0.31039(16)
N8 N 0.8166(3) 0.3948(3) 0.53198(15)
C2 C 1.0000 0.6159(4) 0.2500
C3 C 0.7945(3) 0.6249(3) 0.37504(16)
H1 H 0.8552 0.6736 0.3849
C4 C 0.9512(3) 0.3694(3) 0.35114(16)
C5 C 0.6131(3) 0.4861(3) 0.35128(17)
H2 H 0.5501 0.4398 0.3429
C6 C 0.9013(3) 0.6962(3) 0.25832(17)
H3 H 0.9158 0.7352 0.3000
H4 H 0.8970 0.7532 0.2240
C7 C 1.0163(3) 0.2716(3) 0.44838(16)
H5 H 1.0678 0.2658 0.4856
C8 C 0.6584(3) 0.5325(3) 0.29900(16)
H6 H 0.6264 0.5181 0.2565
C9 C 0.8640(3) 0.2007(3) 0.38317(16)
H7 H 0.8086 0.1455 0.3745
C10 C 0.7422(3) 0.5731(3) 0.42403(16)
H8 H 0.7707 0.5881 0.4671
C11 C 1.0309(3) 0.5408(3) 0.31016(16)
H9 H 1.1044 0.5066 0.3088
H10 H 1.0316 0.5849 0.3501
C12 C 1.0281(3) 0.3605(3) 0.40630(16)
H11 H 1.0860 0.4131 0.4146
C13 C 0.8705(3) 0.2863(3) 0.33909(16)
H12 H 0.8207 0.2885 0.3010
O1A O 1.2051(2) 0.6390(2) 0.24406(10)
O2A O 1.0549(2) 0.4549(2) 0.19301(11)
N3A N 1.3457(2) 0.5035(2) 0.08581(13)
N4A N 1.0650(3) 0.1925(2) 0.06082(13)
C1A C 1.2470(3) 0.6015(3) 0.18961(16)
C3A C 1.2055(3) 0.6249(3) 0.12496(16)
H1A H 1.1448 0.6736 0.1151
C4A C 1.0488(3) 0.3694(3) 0.14886(16)
C5A C 1.3869(3) 0.4861(3) 0.14872(17)
H2A H 1.4499 0.4398 0.1571
C6A C 1.0987(3) 0.6962(3) 0.24168(17)
H3A H 1.0842 0.7352 0.2000
H4A H 1.1030 0.7532 0.2760
C7A C 0.9837(3) 0.2716(3) 0.05162(16)
H5A H 0.9322 0.2658 0.0144
C8A C 1.3416(3) 0.5325(3) 0.20100(16)
H6A H 1.3736 0.5181 0.2435
C9A C 1.1360(3) 0.2007(3) 0.11683(16)
H7A H 1.1914 0.1455 0.1255
C10A C 1.2578(3) 0.5731(3) 0.07597(16)
H8A H 1.2293 0.5881 0.0329
C11A C 0.9691(3) 0.5408(3) 0.18984(16)
H9A H 0.8956 0.5066 0.1912
H10A H 0.9684 0.5849 0.1499
C12A C 0.9719(3) 0.3605(3) 0.09370(16)
H11A H 0.9140 0.4131 0.0854
C13A C 1.1295(3) 0.2863(3) 0.16091(16)
H12A H 1.1793 0.2885 0.1990
Ni1A Ni 1.09943(4) 0.08892(4) -0.01268(2)
N1A N 1.0965(3) -0.0530(2) 0.04131(13)
N2A N 1.1400(3) 0.3103(3) -0.05144(13)
N5A N 1.1866(3) -0.0871(3) 0.14742(15)
N6A N 1.0954(3) 0.2262(3) -0.07300(14)
N7A N 1.1431(3) -0.0683(2) 0.09553(15)
N8A N 1.1834(3) 0.3948(3) -0.03198(15)
Ni1D Ni 1.09943(4) -0.08892(4) 0.48732(2)
Ni1E Ni 0.90057(4) -0.08892(4) 0.01268(2)
Ni1F Ni 0.59943(4) 0.41108(4) 0.48732(2)
Ni1G Ni 1.40057(4) 0.41108(4) 0.01268(2)
N1D N 1.0965(3) 0.0530(2) 0.54131(13)
N1E N 0.9035(3) 0.0530(2) -0.04131(13)
N3F N 0.8457(2) -0.0035(2) 0.58581(13)
N3G N 1.1543(2) -0.0035(2) -0.08581(13)
loop_
_geom_bond_atom_site_label_1
_geom_bond_atom_site_label_2
_geom_bond_site_symmetry_1
_geom_bond_site_symmetry_2
Ni1 N1 1_555 1_555
N1 N7 1_555 1_555
O1 C1 1_555 1_555
N2 N6 1_555 1_555
O2 C4 1_555 1_555
N3 C5 1_555 1_555
N4 Ni1 1_555 1_555
N5 N7 1_555 1_555
N6 Ni1 1_555 1_555
C1 C3 1_555 1_555
N8 N2 1_555 1_555
C2 C6 1_555 1_555
C3 H1 1_555 1_555
C4 C12 1_555 1_555
C5 H2 1_555 1_555
C6 O1 1_555 1_555
H3 C6 1_555 1_555
H4 C6 1_555 1_555
C7 N4 1_555 1_555
H5 C7 1_555 1_555
C8 C1 1_555 1_555
H6 C8 1_555 1_555
C9 N4 1_555 1_555
H7 C9 1_555 1_555
C10 N3 1_555 1_555
H8 C10 1_555 1_555
C11 O2 1_555 1_555
H9 C11 1_555 1_555
H10 C11 1_555 1_555
C12 C7 1_555 1_555
H11 C12 1_555 1_555
C13 C4 1_555 1_555
H12 C13 1_555 1_555
O1A C1A 1_555 1_555
O2A C4A 1_555 1_555
N3A C5A 1_555 1_555
N4A C7A 1_555 1_555
C1A C3A 1_555 1_555
C3A H1A 1_555 1_555
C4A C12A 1_555 1_555
C5A H2A 1_555 1_555
C6A C2 1_555 1_555
H3A C6A 1_555 1_555
H4A C6A 1_555 1_555
C7A H5A 1_555 1_555
C8A C1A 1_555 1_555
H6A C8A 1_555 1_555
C9A N4A 1_555 1_555
H7A C9A 1_555 1_555
C10A N3A 1_555 1_555
H8A C10A 1_555 1_555
C11A C2 1_555 1_555
H9A C11A 1_555 1_555
H10A C11A 1_555 1_555
C12A C7A 1_555 1_555
H11A C12A 1_555 1_555
C13A C4A 1_555 1_555
H12A C13A 1_555 1_555
Ni1A N4A 1_555 1_555
N1A Ni1A 1_555 1_555
N2A N6A 1_555 1_555
N5A N7A 1_555 1_555
N6A Ni1A 1_555 1_555
N7A N1A 1_555 1_555
N8A N2A 1_555 1_555
Ni1D N1 1_555 1_555
Ni1E N1A 1_555 1_555
Ni1F N3 1_555 1_555
Ni1G N3A 1_555 1_555
N1D Ni1 1_555 1_555
N1E Ni1A 1_555 1_555
N3F Ni1 1_555 1_555
N3G Ni1A 1_555 1_555
C2 C11 1_555 1_555
C3 C10 1_555 1_555
C5 C8 1_555 1_555
C9 C13 1_555 1_555
O1A C6A 1_555 1_555
O2A C11A 1_555 1_555
C3A C10A 1_555 1_555
C5A C8A 1_555 1_555
C9A C13A 1_555 1_555
Ni1D N1D 1_555 1_555
Ni1E N1E 1_555 1_555

#END
