
#######################################################################
#
#                 Cambridge Crystallographic Data Centre
#                                CCDC 
#
#######################################################################
#
# If this CIF has been generated from an entry in the Cambridge 
# Structural Database, then it will include bibliographic, chemical, 
# crystal, experimental, refinement or atomic coordinate data resulting 
# from the CCDC's data processing and validation procedures.
#
#######################################################################

data_WOSGOC
_symmetry_cell_setting           monoclinic
_symmetry_space_group_name_H-M   'P 21/c'
_symmetry_Int_Tables_number      14
_space_group_name_Hall           '-P 2ybc'
loop_
_symmetry_equiv_pos_site_id
_symmetry_equiv_pos_as_xyz
1 x,y,z
2 -x,1/2+y,1/2-z
3 -x,-y,-z
4 x,1/2-y,1/2+z
_cell_length_a                   16.2734(18)
_cell_length_b                   18.977(3)
_cell_length_c                   19.136(2)
_cell_angle_alpha                90
_cell_angle_beta                 111.964(14)
_cell_angle_gamma                90
_cell_volume                     5480.66
loop_
_atom_site_label
_atom_site_type_symbol
_atom_site_fract_x
_atom_site_fract_y
_atom_site_fract_z
Mn1 Mn 0.0000 0.0000 0.0000
Mn2 Mn 1.0000 0.0000 0.5000
O1 O 0.34230(11) -0.06026(8) 0.17602(10)
O2 O 0.65366(10) -0.05770(8) 0.32250(11)
C1 C 0.49859(17) -0.05251(12) 0.24711(15)
O3 O 1.31104(10) -0.25106(9) 0.36090(9)
N1 N 0.11036(13) -0.07895(11) 0.07017(13)
C2 C 0.42145(15) -0.10183(12) 0.20632(15)
H1 H 0.4321 -0.1263 0.1660
H2 H 0.4152 -0.1366 0.2412
O4 O 0.99586(10) -0.25452(10) 0.23586(9)
C3 C 1.07823(14) -0.25309(14) 0.22634(14)
H3 H 1.0818 -0.2115 0.1981
H4 H 1.0839 -0.2944 0.1987
C4 C 0.57691(15) -0.10102(13) 0.28810(16)
H5 H 0.5651 -0.1282 0.3262
H6 H 0.5865 -0.1334 0.2527
N2 N 0.08031(14) 0.08860(11) 0.05570(14)
O5 O 0.44478(12) -0.04721(9) 0.34741(11)
C5 C 0.26606(16) -0.09528(13) 0.13652(15)
N3 N 1.06991(14) -0.50397(11) 0.41441(14)
O6 O 1.14890(12) -0.12615(9) 0.30940(11)
C6 C 1.23820(14) -0.25369(13) 0.29016(13)
H7 H 1.2412 -0.2965 0.2636
H8 H 1.2407 -0.2138 0.2594
C7 C 0.25883(16) -0.16611(13) 0.12042(15)
H9 H 0.3083 -0.1953 0.1360
N4 N 1.06496(14) -0.00020(11) 0.41072(14)
C8 C 0.92067(15) -0.25295(13) 0.17338(15)
C9 C 0.58542(18) -0.01809(15) 0.10022(16)
N5 N 1.13306(17) -0.11404(11) 0.59369(15)
C10 C 0.83610(18) -0.18259(15) 0.36715(17)
H10 H 0.8494 -0.2288 0.3590
C11 C 1.14409(16) -0.31529(12) 0.35035(15)
H11 H 1.1904 -0.3137 0.4002
H12 H 1.0872 -0.3144 0.3558
O7 O 1.15204(12) -0.37797(8) 0.31233(11)
C12 C 1.39317(16) -0.26218(12) 0.35845(15)
O8 O 0.55123(12) -0.04929(9) 0.14717(11)
C13 C 0.19054(16) -0.05347(13) 0.11027(15)
H13 H 0.1962 -0.0055 0.1212
C14 C 0.90221(18) -0.13801(14) 0.41068(17)
H14 H 0.9599 -0.1551 0.4310
C15 C 0.91588(17) -0.25301(12) 0.10024(15)
H15 H 0.9669 -0.2556 0.0894
C16 C 0.51966(17) -0.00512(13) 0.19223(16)
H16 H 0.4669 0.0200 0.1607
H17 H 0.5646 0.0291 0.2194
C17 C 0.73373(16) -0.09002(13) 0.34905(15)
C18 C 0.10355(17) -0.14823(14) 0.05694(15)
H18 H 0.0478 -0.1674 0.0308
C19 C 1.15217(14) -0.25194(12) 0.30410(13)
C20 C 1.09556(16) -0.05979(13) 0.39289(16)
H19 H 1.1000 -0.0993 0.4228
C21 C 0.41381(18) -0.01317(16) 0.39522(16)
N6 N 0.88733(13) -0.07212(11) 0.42481(13)
C22 C 0.80384(16) -0.04902(14) 0.39425(16)
H20 H 0.7922 -0.0028 0.4039
C23 C 1.14477(16) -0.18844(12) 0.34898(15)
H21 H 1.0891 -0.1900 0.3566
H22 H 1.1927 -0.1887 0.3980
N7 N 1.20218(19) -0.13341(14) 0.64329(17)
C24 C 0.75014(17) -0.15851(14) 0.33574(16)
H23 H 0.7046 -0.1879 0.3064
C25 C 1.40978(17) -0.28263(14) 0.29617(17)
H24 H 1.3636 -0.2898 0.2501
C26 C 1.12905(17) -0.43878(13) 0.33662(16)
C27 C 0.83342(18) -0.24912(15) 0.04333(17)
H25 H 0.8280 -0.2490 -0.0068
C28 C 0.58505(19) 0.05340(16) 0.08709(17)
H26 H 0.5606 0.0850 0.1111
N8 N 1.54770(15) -0.26119(14) 0.43344(17)
N9 N 0.76252(14) -0.24703(13) 0.13172(15)
C29 C 0.17554(17) -0.19204(13) 0.08036(16)
H27 H 0.1680 -0.2398 0.0691
C30 C 0.75976(19) -0.24542(16) 0.06112(19)
H28 H 0.7048 -0.2416 0.0220
C31 C 0.4201(2) 0.05843(17) 0.40874(18)
H29 H 0.4467 0.0881 0.3846
C32 C 1.46353(17) -0.25212(15) 0.42641(18)
H30 H 1.4517 -0.2386 0.4684
C33 C 0.47758(18) -0.00485(13) 0.30222(16)
H31 H 0.5306 0.0198 0.3339
H32 H 0.4335 0.0298 0.2749
N10 N 0.65981(16) -0.04088(16) 0.01587(15)
C34 C 1.12128(18) -0.06546(13) 0.33143(17)
C35 C 0.62336(19) -0.06281(17) 0.06373(18)
H33 H 0.6234 -0.1109 0.0732
C36 C 1.56257(19) -0.28121(16) 0.3723(2)
H34 H 1.6209 -0.2879 0.3767
C37 C 1.09692(16) -0.44333(13) 0.39387(15)
H35 H 1.0939 -0.4023 0.4194
C38 C 1.49694(18) -0.29230(15) 0.30387(19)
H36 H 1.5106 -0.3062 0.2629
C39 C 0.6222(2) 0.07650(18) 0.03715(19)
H37 H 0.6221 0.1242 0.0261
C40 C 0.84189(16) -0.25071(14) 0.18598(17)
H38 H 0.8452 -0.2519 0.2356
C41 C 0.3749(2) -0.05500(18) 0.43296(18)
H39 H 0.3712 -0.1032 0.4234
N11 N 1.07273(14) -0.09751(11) 0.54984(14)
C42 C 1.0622(2) 0.05634(15) 0.3694(2)
H40 H 1.0412 0.0983 0.3816
C43 C 1.0768(2) -0.56195(15) 0.37820(19)
H41 H 1.0579 -0.6045 0.3911
N12 N 0.34223(18) -0.03020(17) 0.48262(16)
C44 C 0.6595(2) 0.0281(2) 0.00364(18)
H42 H 0.6856 0.0446 -0.0289
C45 C 1.1111(2) -0.56158(16) 0.3219(2)
H43 H 1.1168 -0.6036 0.2990
C46 C 1.1363(2) -0.49979(14) 0.30021(19)
H44 H 1.1579 -0.4986 0.2616
C47 C 1.1185(2) -0.00612(14) 0.2888(2)
H45 H 1.1359 -0.0079 0.2478
C48 C 0.3856(2) 0.08456(19) 0.4596(2)
H46 H 0.3880 0.1326 0.4697
C49 C 1.0893(3) 0.05557(16) 0.3090(2)
H47 H 1.0878 0.0967 0.2821
C50 C 0.3477(2) 0.0395(2) 0.4950(2)
H48 H 0.3249 0.0580 0.5290
N13 N 0.0533(6) 0.1784(4) 0.1271(7)
N14 N 0.0676(5) 0.1331(4) 0.0907(5)
O1B O -0.34230(11) 0.06026(8) -0.17602(10)
O2B O -0.65366(10) 0.05770(8) -0.32250(11)
C1B C -0.49859(17) 0.05251(12) -0.24711(15)
N1B N -0.11036(13) 0.07895(11) -0.07017(13)
C2B C -0.42145(15) 0.10183(12) -0.20632(15)
H1B H -0.4321 0.1263 -0.1660
H2B H -0.4152 0.1366 -0.2412
C4B C -0.57691(15) 0.10102(13) -0.28810(16)
H5B H -0.5651 0.1282 -0.3262
H6B H -0.5865 0.1334 -0.2527
N2B N -0.08031(14) -0.08860(11) -0.05570(14)
O5B O -0.44478(12) 0.04721(9) -0.34741(11)
C5B C -0.26606(16) 0.09528(13) -0.13652(15)
C7B C -0.25883(16) 0.16611(13) -0.12042(15)
H9B H -0.3083 0.1953 -0.1360
C9B C -0.58542(18) 0.01809(15) -0.10022(16)
C10B C -0.83610(18) 0.18259(15) -0.36715(17)
H10B H -0.8494 0.2288 -0.3590
O8B O -0.55123(12) 0.04929(9) -0.14717(11)
C13B C -0.19054(16) 0.05347(13) -0.11027(15)
H13B H -0.1962 0.0055 -0.1212
C14B C -0.90221(18) 0.13801(14) -0.41068(17)
H14B H -0.9599 0.1551 -0.4310
C16B C -0.51966(17) 0.00512(13) -0.19223(16)
H16B H -0.4669 -0.0200 -0.1607
H17B H -0.5646 -0.0291 -0.2194
C17B C -0.73373(16) 0.09002(13) -0.34905(15)
C18B C -0.10355(17) 0.14823(14) -0.05694(15)
H18B H -0.0478 0.1674 -0.0308
C21B C -0.41381(18) 0.01317(16) -0.39522(16)
N6B N -0.88733(13) 0.07212(11) -0.42481(13)
C22B C -0.80384(16) 0.04902(14) -0.39425(16)
H20B H -0.7922 0.0028 -0.4039
C24B C -0.75014(17) 0.15851(14) -0.33574(16)
H23B H -0.7046 0.1879 -0.3064
C28B C -0.58505(19) -0.05340(16) -0.08709(17)
H26B H -0.5606 -0.0850 -0.1111
C29B C -0.17554(17) 0.19204(13) -0.08036(16)
H27B H -0.1680 0.2398 -0.0691
C31B C -0.4201(2) -0.05843(17) -0.40874(18)
H29B H -0.4467 -0.0881 -0.3846
C33B C -0.47758(18) 0.00485(13) -0.30222(16)
H31B H -0.5306 -0.0198 -0.3339
H32B H -0.4335 -0.0298 -0.2749
N10B N -0.65981(16) 0.04088(16) -0.01587(15)
C35B C -0.62336(19) 0.06281(17) -0.06373(18)
H33B H -0.6234 0.1109 -0.0732
C39B C -0.6222(2) -0.07650(18) -0.03715(19)
H37B H -0.6221 -0.1242 -0.0261
C41B C -0.3749(2) 0.05500(18) -0.43296(18)
H39B H -0.3712 0.1032 -0.4234
N12B N -0.34223(18) 0.03020(17) -0.48262(16)
C44B C -0.6595(2) -0.0281(2) -0.00364(18)
H42B H -0.6856 -0.0446 0.0289
C48B C -0.3856(2) -0.08456(19) -0.4596(2)
H46B H -0.3880 -0.1326 -0.4697
C50B C -0.3477(2) -0.0395(2) -0.4950(2)
H48B H -0.3249 -0.0580 -0.5290
N13B N -0.0533(6) -0.1784(4) -0.1271(7)
N14B N -0.0676(5) -0.1331(4) -0.0907(5)
O3C O 0.31104(10) -0.24894(9) -0.13910(9)
O4C O -0.00414(10) -0.24548(10) -0.26414(9)
C3C C 0.07823(14) -0.24691(14) -0.27366(14)
H3C H 0.0818 -0.2885 -0.3019
H4C H 0.0839 -0.2056 -0.3013
N3C N 0.06991(14) 0.00397(11) -0.08559(14)
O6C O 0.14890(12) -0.37385(9) -0.19060(11)
C6C C 0.23820(14) -0.24631(13) -0.20984(13)
H7C H 0.2412 -0.2035 -0.2364
H8C H 0.2407 -0.2862 -0.2406
N4C N 0.06496(14) -0.49980(11) -0.08928(14)
C8C C -0.07933(15) -0.24705(13) -0.32662(15)
C11C C 0.14409(16) -0.18471(12) -0.14965(15)
H11C H 0.1904 -0.1863 -0.0998
H12C H 0.0872 -0.1856 -0.1442
O7C O 0.15204(12) -0.12203(8) -0.18767(11)
C12C C 0.39317(16) -0.23782(12) -0.14155(15)
C15C C -0.08412(17) -0.24699(12) -0.39976(15)
H15C H -0.0331 -0.2444 -0.4106
C19C C 0.15217(14) -0.24806(12) -0.19590(13)
C20C C 0.09556(16) -0.44021(13) -0.10711(16)
H19C H 0.1000 -0.4007 -0.0772
C23C C 0.14477(16) -0.31156(12) -0.15102(15)
H21C H 0.0891 -0.3100 -0.1434
H22C H 0.1927 -0.3113 -0.1020
C25C C 0.40978(17) -0.21737(14) -0.20383(17)
H24C H 0.3636 -0.2102 -0.2499
C26C C 0.12905(17) -0.06122(13) -0.16338(16)
C27C C -0.16658(18) -0.25088(15) -0.45667(17)
H25C H -0.1720 -0.2510 -0.5068
N8C N 0.54770(15) -0.23881(14) -0.06656(17)
N9C N -0.23748(14) -0.25297(13) -0.36828(15)
C30C C -0.24024(19) -0.25458(16) -0.43888(19)
H28C H -0.2952 -0.2584 -0.4780
C32C C 0.46353(17) -0.24788(15) -0.07359(18)
H30C H 0.4517 -0.2614 -0.0316
C34C C 0.12128(18) -0.43454(13) -0.16857(17)
C36C C 0.56257(19) -0.21879(16) -0.1277(2)
H34C H 0.6209 -0.2121 -0.1233
C37C C 0.09692(16) -0.05667(13) -0.10613(15)
H35C H 0.0939 -0.0977 -0.0806
C38C C 0.49694(18) -0.20770(15) -0.19613(19)
H36C H 0.5106 -0.1938 -0.2371
C40C C -0.15811(16) -0.24929(14) -0.31402(17)
H38C H -0.1548 -0.2481 -0.2644
C42C C 0.0622(2) -0.55634(15) -0.1306(2)
H40C H 0.0412 -0.5983 -0.1184
C43C C 0.0768(2) 0.06195(15) -0.12180(19)
H41C H 0.0579 0.1045 -0.1089
C45C C 0.1111(2) 0.06158(16) -0.1781(2)
H43C H 0.1168 0.1036 -0.2010
C46C C 0.1363(2) -0.00021(14) -0.19979(19)
H44C H 0.1579 -0.0014 -0.2384
C47C C 0.1185(2) -0.49388(14) -0.2112(2)
H45C H 0.1359 -0.4921 -0.2522
C49C C 0.0893(3) -0.55557(16) -0.1910(2)
H47C H 0.0878 -0.5967 -0.2179
N5B N 0.86694(17) 0.11404(11) 0.40631(15)
N7B N 0.79782(19) 0.13341(14) 0.35671(17)
N11B N 0.92727(14) 0.09751(11) 0.45016(14)
Mn1A Mn 1.0000 -0.5000 0.5000
Mn2_2 Mn -1.0000 0.0000 -0.5000
Mn2A Mn 0.0000 -0.5000 0.0000
N3A N -0.06991(14) -0.00397(11) 0.08559(14)
N4B N 0.93504(14) 0.00020(11) 0.58928(14)
N6B_2 N 1.11267(13) 0.07212(11) 0.57519(13)
O9 O 0.61597(12) -0.25541(10) 0.18093(13)
O10 O 0.73624(12) -0.11186(10) -0.07187(12)
O11 O 0.43197(14) -0.24156(11) 0.09778(15)
O12 O 1.68191(17) -0.36758(13) 0.27747(15)
C51 C 1.7357(4) -0.3999(3) 0.2541(4)
N15? N 0.1042(9) 0.1449(6) 0.1687(6)
N16? N 0.0903(7) 0.1177(4) 0.1133(6)
loop_
_geom_bond_atom_site_label_1
_geom_bond_atom_site_label_2
_geom_bond_site_symmetry_1
_geom_bond_site_symmetry_2
Mn1 N1 1_555 1_555
Mn2 N4 1_555 1_555
O1 C2 1_555 1_555
O2 C4 1_555 1_555
C1 C2 1_555 1_555
O3 C6 1_555 1_555
N1 C13 1_555 1_555
C2 H1 1_555 1_555
H2 C2 1_555 1_555
O4 C3 1_555 1_555
C3 H3 1_555 1_555
H4 C3 1_555 1_555
C4 C1 1_555 1_555
H5 C4 1_555 1_555
H6 C4 1_555 1_555
N2 Mn1 1_555 1_555
O5 C21 1_555 1_555
C5 O1 1_555 1_555
N3 C37 1_555 1_555
O6 C23 1_555 1_555
C6 H7 1_555 1_555
H8 C6 1_555 1_555
C7 C5 1_555 1_555
H9 C7 1_555 1_555
N4 C20 1_555 1_555
C8 O4 1_555 1_555
C9 O8 1_555 1_555
N5 N7 1_555 1_555
C10 H10 1_555 1_555
C11 H11 1_555 1_555
H12 C11 1_555 1_555
O7 C11 1_555 1_555
C12 O3 1_555 1_555
O8 C16 1_555 1_555
C13 C5 1_555 1_555
H13 C13 1_555 1_555
C14 C10 1_555 1_555
H14 C14 1_555 1_555
C15 C8 1_555 1_555
H15 C15 1_555 1_555
C16 C1 1_555 1_555
H16 C16 1_555 1_555
H17 C16 1_555 1_555
C17 O2 1_555 1_555
C18 N1 1_555 1_555
H18 C18 1_555 1_555
C19 C3 1_555 1_555
C20 H19 1_555 1_555
C21 C31 1_555 1_555
N6 Mn2 1_555 1_555
C22 C17 1_555 1_555
H20 C22 1_555 1_555
C23 C19 1_555 1_555
H21 C23 1_555 1_555
H22 C23 1_555 1_555
C24 C10 1_555 1_555
H23 C24 1_555 1_555
C25 C12 1_555 1_555
H24 C25 1_555 1_555
C26 O7 1_555 1_555
C27 C15 1_555 1_555
H25 C27 1_555 1_555
C28 C9 1_555 1_555
H26 C28 1_555 1_555
N8 C32 1_555 1_555
N9 C30 1_555 1_555
C29 C7 1_555 1_555
H27 C29 1_555 1_555
C30 C27 1_555 1_555
H28 C30 1_555 1_555
C31 H29 1_555 1_555
C32 C12 1_555 1_555
H30 C32 1_555 1_555
C33 C1 1_555 1_555
H31 C33 1_555 1_555
H32 C33 1_555 1_555
N10 C35 1_555 1_555
C34 O6 1_555 1_555
C35 C9 1_555 1_555
H33 C35 1_555 1_555
C36 N8 1_555 1_555
H34 C36 1_555 1_555
C37 C26 1_555 1_555
H35 C37 1_555 1_555
C38 C25 1_555 1_555
H36 C38 1_555 1_555
C39 C28 1_555 1_555
H37 C39 1_555 1_555
C40 C8 1_555 1_555
H38 C40 1_555 1_555
C41 C21 1_555 1_555
H39 C41 1_555 1_555
N11 Mn2 1_555 1_555
C42 N4 1_555 1_555
H40 C42 1_555 1_555
C43 N3 1_555 1_555
H41 C43 1_555 1_555
N12 C41 1_555 1_555
C44 N10 1_555 1_555
H42 C44 1_555 1_555
C45 C43 1_555 1_555
H43 C45 1_555 1_555
C46 C26 1_555 1_555
H44 C46 1_555 1_555
C47 C34 1_555 1_555
H45 C47 1_555 1_555
C48 C31 1_555 1_555
H46 C48 1_555 1_555
C49 C42 1_555 1_555
H47 C49 1_555 1_555
C50 N12 1_555 1_555
H48 C50 1_555 1_555
N13 N14 1_555 1_555
N14 N2 1_555 1_555
O12 C51 1_555 1_555
O1B C2B 1_555 1_555
O2B C4B 1_555 1_555
C1B C2B 1_555 1_555
N1B Mn1 1_555 1_555
C2B H1B 1_555 1_555
H2B C2B 1_555 1_555
C4B C1B 1_555 1_555
H5B C4B 1_555 1_555
H6B C4B 1_555 1_555
N2B Mn1 1_555 1_555
O5B C21B 1_555 1_555
C5B O1B 1_555 1_555
C7B C5B 1_555 1_555
H9B C7B 1_555 1_555
C9B O8B 1_555 1_555
C10B H10B 1_555 1_555
O8B C16B 1_555 1_555
C13B N1B 1_555 1_555
H13B C13B 1_555 1_555
C14B C10B 1_555 1_555
H14B C14B 1_555 1_555
C16B C1B 1_555 1_555
H16B C16B 1_555 1_555
H17B C16B 1_555 1_555
C17B O2B 1_555 1_555
C18B N1B 1_555 1_555
H18B C18B 1_555 1_555
C21B C31B 1_555 1_555
N6B C14B 1_555 1_555
C22B C17B 1_555 1_555
H20B C22B 1_555 1_555
C24B C10B 1_555 1_555
H23B C24B 1_555 1_555
C28B C9B 1_555 1_555
H26B C28B 1_555 1_555
C29B C7B 1_555 1_555
H27B C29B 1_555 1_555
C31B H29B 1_555 1_555
C33B C1B 1_555 1_555
H31B C33B 1_555 1_555
H32B C33B 1_555 1_555
N10B C35B 1_555 1_555
C35B C9B 1_555 1_555
H33B C35B 1_555 1_555
C39B C28B 1_555 1_555
H37B C39B 1_555 1_555
C41B C21B 1_555 1_555
H39B C41B 1_555 1_555
N12B C41B 1_555 1_555
C44B N10B 1_555 1_555
H42B C44B 1_555 1_555
C48B C31B 1_555 1_555
H46B C48B 1_555 1_555
C50B N12B 1_555 1_555
H48B C50B 1_555 1_555
N13B N14B 1_555 1_555
N14B N2B 1_555 1_555
O3C C6C 1_555 1_555
O4C C3C 1_555 1_555
C3C H3C 1_555 1_555
H4C C3C 1_555 1_555
N3C Mn1 1_555 1_555
O6C C23C 1_555 1_555
C6C H7C 1_555 1_555
H8C C6C 1_555 1_555
N4C C20C 1_555 1_555
C8C O4C 1_555 1_555
C11C H11C 1_555 1_555
H12C C11C 1_555 1_555
O7C C11C 1_555 1_555
C12C O3C 1_555 1_555
C15C C8C 1_555 1_555
H15C C15C 1_555 1_555
C19C C3C 1_555 1_555
C20C H19C 1_555 1_555
C23C C19C 1_555 1_555
H21C C23C 1_555 1_555
H22C C23C 1_555 1_555
C25C C12C 1_555 1_555
H24C C25C 1_555 1_555
C26C O7C 1_555 1_555
C27C C15C 1_555 1_555
H25C C27C 1_555 1_555
N8C C32C 1_555 1_555
N9C C30C 1_555 1_555
C30C C27C 1_555 1_555
H28C C30C 1_555 1_555
C32C C12C 1_555 1_555
H30C C32C 1_555 1_555
C34C O6C 1_555 1_555
C36C N8C 1_555 1_555
H34C C36C 1_555 1_555
C37C N3C 1_555 1_555
H35C C37C 1_555 1_555
C38C C25C 1_555 1_555
H36C C38C 1_555 1_555
C40C C8C 1_555 1_555
H38C C40C 1_555 1_555
C42C N4C 1_555 1_555
H40C C42C 1_555 1_555
C43C N3C 1_555 1_555
H41C C43C 1_555 1_555
C45C C43C 1_555 1_555
H43C C45C 1_555 1_555
C46C C26C 1_555 1_555
H44C C46C 1_555 1_555
C47C C34C 1_555 1_555
H45C C47C 1_555 1_555
C49C C42C 1_555 1_555
H47C C49C 1_555 1_555
N5B N7B 1_555 1_555
N11B Mn2 1_555 1_555
Mn1A N3 1_555 1_555
Mn2_2 N6B 1_555 1_555
Mn2A N4C 1_555 1_555
N3A Mn1 1_555 1_555
N4B Mn2 1_555 1_555
N6B_2 Mn2 1_555 1_555
O5 C33 1_555 1_555
C6 C19 1_555 1_555
N5 N11 1_555 1_555
C11 C19 1_555 1_555
C14 N6 1_555 1_555
C17 C24 1_555 1_555
C18 C29 1_555 1_555
C20 C34 1_555 1_555
N6 C22 1_555 1_555
N9 C40 1_555 1_555
C36 C38 1_555 1_555
C39 C44 1_555 1_555
C45 C46 1_555 1_555
C47 C49 1_555 1_555
C48 C50 1_555 1_555
O5B C33B 1_555 1_555
C5B C13B 1_555 1_555
C17B C24B 1_555 1_555
C18B C29B 1_555 1_555
N6B C22B 1_555 1_555
C39B C44B 1_555 1_555
C48B C50B 1_555 1_555
C6C C19C 1_555 1_555
C11C C19C 1_555 1_555
C20C C34C 1_555 1_555
C26C C37C 1_555 1_555
N9C C40C 1_555 1_555
C36C C38C 1_555 1_555
C45C C46C 1_555 1_555
C47C C49C 1_555 1_555
N5B N11B 1_555 1_555

#END
