
#######################################################################
#
#                 Cambridge Crystallographic Data Centre
#                                CCDC 
#
#######################################################################
#
# If this CIF has been generated from an entry in the Cambridge 
# Structural Database, then it will include bibliographic, chemical, 
# crystal, experimental, refinement or atomic coordinate data resulting 
# from the CCDC's data processing and validation procedures.
#
#######################################################################

data_WOSQEC
_symmetry_cell_setting           orthorhombic
_symmetry_space_group_name_H-M   'P b c a'
_symmetry_Int_Tables_number      61
_space_group_name_Hall           '-P 2ac 2ab'
loop_
_symmetry_equiv_pos_site_id
_symmetry_equiv_pos_as_xyz
1 x,y,z
2 1/2-x,-y,1/2+z
3 -x,1/2+y,1/2-z
4 1/2+x,1/2-y,-z
5 -x,-y,-z
6 1/2+x,y,1/2-z
7 x,1/2-y,1/2+z
8 1/2-x,1/2+y,z
_cell_length_a                   18.4691(12)
_cell_length_b                   12.8091(9)
_cell_length_c                   19.5915(14)
_cell_angle_alpha                90
_cell_angle_beta                 90
_cell_angle_gamma                90
_cell_volume                     4634.81
loop_
_atom_site_label
_atom_site_type_symbol
_atom_site_fract_x
_atom_site_fract_y
_atom_site_fract_z
Cu1 Cu 0.70255(3) 0.26531(6) 0.53550(4)
S1 S 0.46309(8) 0.27112(14) 0.43319(8)
N1 N 0.8169(2) 0.4740(4) 0.4210(3)
N2 N 0.7445(2) 0.3875(4) 0.4888(2)
N3 N 0.9139(3) 0.5727(4) 0.2012(3)
N4 N 0.8629(3) 0.6363(5) 0.1076(3)
N5 N 1.0743(2) 0.4591(4) 0.3805(3)
N6 N 1.1604(2) 0.3632(4) 0.4247(3)
C1 C 0.8772(3) 0.4946(5) 0.3766(3)
C2 C 0.8654(3) 0.5279(5) 0.3121(3)
H1 H 0.8186 0.5408 0.2967
C3 C 0.9244(3) 0.5423(5) 0.2693(3)
C4 C 0.9934(3) 0.5214(5) 0.2913(3)
H2 H 1.0327 0.5306 0.2623
C5 C 1.0035(3) 0.4861(5) 0.3581(3)
C6 C 0.9466(3) 0.4738(5) 0.4018(3)
H3 H 0.9536 0.4524 0.4467
C7 C 0.8070(3) 0.3863(5) 0.4578(3)
H4 H 0.8403 0.3321 0.4608
C8 C 0.7122(3) 0.4803(6) 0.4706(4)
H5 H 0.6667 0.5019 0.4852
C9 C 0.7550(3) 0.5346(6) 0.4296(3)
H6 H 0.7456 0.5997 0.4105
C10 C 0.8557(3) 0.6221(6) 0.1738(3)
H7 H 0.8156 0.6434 0.1988
C11 C 0.9285(4) 0.5916(6) 0.0897(3)
H8 H 0.9473 0.5895 0.0457
C12 C 0.9615(4) 0.5510(7) 0.1464(4)
H9 H 1.0058 0.5165 0.1485
C13 C 1.0903(3) 0.3738(5) 0.4180(3)
H10 H 1.0561 0.3287 0.4366
C14 C 1.1913(3) 0.4455(6) 0.3911(3)
H11 H 1.2407 0.4588 0.3886
C15 C 1.1393(3) 0.5040(6) 0.3624(4)
H12 H 1.1458 0.5631 0.3355
C16 C 0.5370(3) 0.2789(5) 0.3800(3)
C17 C 0.5162(3) 0.2877(5) 0.3142(3)
H13 H 0.5487 0.2946 0.2782
C18 C 0.4412(3) 0.2853(5) 0.3055(3)
H14 H 0.4186 0.2888 0.2632
C19 C 0.4047(3) 0.2774(5) 0.3656(3)
C20 C 0.6124(3) 0.2727(5) 0.4081(3)
C21 C 0.3237(3) 0.2693(5) 0.3767(4)
O1 O 0.6163(2) 0.2668(4) 0.4720(2)
O2 O 0.6629(3) 0.2764(5) 0.3686(3)
O3 O 0.3027(2) 0.2744(4) 0.4369(2)
O4 O 0.2860(2) 0.2546(4) 0.3256(3)
Cu1A Cu 0.79745(3) 0.73469(6) 0.03550(4)
Cu1C Cu 0.20255(3) 0.23469(6) 0.46450(4)
Cu1C_2 Cu 1.20255(3) 0.23469(6) 0.46450(4)
N4A N 0.6371(3) 0.3637(5) 0.6076(3)
N6C N 0.6604(2) 0.1368(4) 0.5753(3)
O3C O 0.8027(2) 0.2256(4) 0.5631(2)
O5 O 0.2947(4) 0.2220(8) 0.1882(5)
H15 H 0.2920 0.2315 0.2311
H16 H 0.3151 0.2743 0.1698
O6 O 0.6352(5) 0.5244(10) 0.3074(4)
H17 H 0.6402 0.5770 0.2814
H18 H 0.6468 0.5411 0.3480
loop_
_geom_bond_atom_site_label_1
_geom_bond_atom_site_label_2
_geom_bond_site_symmetry_1
_geom_bond_site_symmetry_2
Cu1 N2 1_555 1_555
S1 C16 1_555 1_555
N1 C1 1_555 1_555
N2 C7 1_555 1_555
N3 C3 1_555 1_555
N4 C10 1_555 1_555
N5 C5 1_555 1_555
N6 C13 1_555 1_555
C1 C2 1_555 1_555
C2 H1 1_555 1_555
C3 C2 1_555 1_555
C4 C3 1_555 1_555
H2 C4 1_555 1_555
C5 C4 1_555 1_555
C6 C1 1_555 1_555
H3 C6 1_555 1_555
C7 N1 1_555 1_555
H4 C7 1_555 1_555
C8 N2 1_555 1_555
H5 C8 1_555 1_555
C9 N1 1_555 1_555
H6 C9 1_555 1_555
C10 N3 1_555 1_555
H7 C10 1_555 1_555
C11 N4 1_555 1_555
H8 C11 1_555 1_555
C12 N3 1_555 1_555
H9 C12 1_555 1_555
C13 N5 1_555 1_555
H10 C13 1_555 1_555
C14 N6 1_555 1_555
H11 C14 1_555 1_555
C15 N5 1_555 1_555
H12 C15 1_555 1_555
C16 C17 1_555 1_555
C17 H13 1_555 1_555
C18 C17 1_555 1_555
H14 C18 1_555 1_555
C19 S1 1_555 1_555
C20 C16 1_555 1_555
C21 C19 1_555 1_555
O1 Cu1 1_555 1_555
O2 C20 1_555 1_555
O3 C21 1_555 1_555
O4 C21 1_555 1_555
O5 H15 1_555 1_555
H16 O5 1_555 1_555
O6 H17 1_555 1_555
H18 O6 1_555 1_555
Cu1A N4 1_555 1_555
Cu1C O3 1_555 1_555
Cu1C_2 N6 1_555 1_555
N4A Cu1 1_555 1_555
N6C Cu1 1_555 1_555
O3C Cu1 1_555 1_555
C5 C6 1_555 1_555
C8 C9 1_555 1_555
C11 C12 1_555 1_555
C14 C15 1_555 1_555
C18 C19 1_555 1_555
C20 O1 1_555 1_555

#END
