
#######################################################################
#
#                 Cambridge Crystallographic Data Centre
#                                CCDC 
#
#######################################################################
#
# If this CIF has been generated from an entry in the Cambridge 
# Structural Database, then it will include bibliographic, chemical, 
# crystal, experimental, refinement or atomic coordinate data resulting 
# from the CCDC's data processing and validation procedures.
#
#######################################################################

data_WOSRUT
_symmetry_cell_setting           orthorhombic
_symmetry_space_group_name_H-M   'P n a 21'
_symmetry_Int_Tables_number      33
_space_group_name_Hall           'P 2c -2n'
loop_
_symmetry_equiv_pos_site_id
_symmetry_equiv_pos_as_xyz
1 x,y,z
2 -x,-y,1/2+z
3 1/2+x,1/2-y,z
4 1/2-x,1/2+y,1/2+z
_cell_length_a                   17.593(4)
_cell_length_b                   14.549(3)
_cell_length_c                   8.2865(17)
_cell_angle_alpha                90
_cell_angle_beta                 90
_cell_angle_gamma                90
_cell_volume                     2121.02
loop_
_atom_site_label
_atom_site_type_symbol
_atom_site_fract_x
_atom_site_fract_y
_atom_site_fract_z
C1 C 0.0207(7) 0.2933(10) 0.4219(14)
C2 C -0.0110(7) 0.3668(9) 0.5427(14)
Gd1 Gd 0.36188(3) 0.55924(3) 0.47790(7)
Gd2 Gd 0.16403(3) 0.43476(3) 0.46267(7)
Gd3 Gd 0.35493(3) 0.29332(3) 0.48859(7)
Gd4 Gd 0.29486(3) 0.43410(4) 0.10263(7)
O1 O 0.4548(5) 0.4812(7) 0.6489(11)
O2 O 0.3841(5) 0.4561(6) 0.8893(12)
O3 O 0.5154(5) 0.4131(8) 0.8755(12)
O4 O 0.4218(5) 0.3280(6) 0.7322(11)
O5 O 0.2397(5) 0.3491(7) 0.8890(11)
O6 O 0.2741(5) 0.2310(6) 0.6968(11)
O7 O 0.1735(5) 0.2080(7) 0.8871(10)
O8 O 0.1587(5) 0.3137(7) 0.6683(11)
O9 O 0.3355(5) 0.1710(6) 0.3103(11)
O10 O 0.2185(5) 0.1138(6) 0.1904(11)
O11 O 0.2616(5) 0.0561(6) 0.4466(10)
O12 O 0.3325(5) 0.0192(6) 0.2077(11)
O13 O 0.2937(4) 0.4278(5) 0.5781(10)
H1 H 0.2915 0.4292 0.6963
O14 O 0.3861(5) 0.4235(5) 0.3172(9)
H2 H 0.4384 0.4209 0.2771
O15 O 0.2486(4) 0.3338(6) 0.3115(9)
H3 H 0.2224 0.2796 0.2685
O16 O 0.2529(4) 0.5299(6) 0.3206(9)
H4 H 0.2294 0.5868 0.2816
O17 O 0.0856(5) 0.3087(6) 0.3683(11)
O18 O 0.0315(5) 0.4331(6) 0.5710(13)
O19 O -0.0198(5) 0.2248(7) 0.3974(11)
O20 O -0.0777(5) 0.3528(6) 0.5917(10)
O21 O 0.1416(6) 0.4488(6) 0.1474(11)
O22 O 0.3734(5) 0.2862(7) 0.0603(12)
O23 O 0.3753(6) 0.5842(7) 0.1210(14)
O24 O 0.4306(5) 0.6809(7) 0.6252(12)
O25 O 0.0990(5) 0.5834(7) 0.4058(11)
S1 S 0.44432(17) 0.4198(2) 0.7882(4)
S2 S 0.21206(16) 0.2750(2) 0.7856(3)
S3 S 0.28636(17) 0.0887(2) 0.2882(4)
Gd1A Gd 0.63812(3) 0.44076(3) 0.97790(7)
Gd1C Gd 0.13812(3) 0.05924(3) -0.02210(7)
Gd1C_2 Gd 0.13812(3) 0.05924(3) 0.97790(7)
Gd2C Gd 0.33597(3) -0.06524(3) -0.03733(7)
Gd3B Gd -0.14507(3) 0.20668(3) 0.48859(7)
Gd4_2 Gd 0.29486(3) 0.43410(4) 1.10263(7)
Gd4C Gd 0.20514(3) -0.06590(4) 0.60263(7)
O2_2 O 0.3841(5) 0.4561(6) -0.1107(12)
O3A O 0.4846(5) 0.5869(8) 0.3755(12)
O5_2 O 0.2397(5) 0.3491(7) -0.1110(11)
O7C O 0.3265(5) 0.7080(7) 0.3871(10)
O10C O 0.2815(5) 0.6138(6) 0.6904(11)
O11C O 0.2384(5) 0.5561(6) -0.0534(10)
O12C O 0.1675(5) 0.5192(6) 0.7077(11)
O19B O 0.4802(5) 0.2752(7) 0.3974(11)
O20B O 0.4223(5) 0.1472(6) 0.5917(10)
O26 O 0.0485(5) 0.3532(8) 0.9417(12)
loop_
_geom_bond_atom_site_label_1
_geom_bond_atom_site_label_2
_geom_bond_site_symmetry_1
_geom_bond_site_symmetry_2
C1 C2 1_555 1_555
C2 O18 1_555 1_555
Gd1 O1 1_555 1_555
Gd2 O8 1_555 1_555
Gd3 O4 1_555 1_555
Gd4 O14 1_555 1_555
O1 S1 1_555 1_555
O2 S1 1_555 1_555
O3 S1 1_555 1_555
O4 S1 1_555 1_555
O5 S2 1_555 1_555
O6 Gd3 1_555 1_555
O7 S2 1_555 1_555
O8 S2 1_555 1_555
O9 Gd3 1_555 1_555
O10 S3 1_555 1_555
O11 S3 1_555 1_555
O12 S3 1_555 1_555
O13 Gd1 1_555 1_555
H1 O13 1_555 1_555
O14 Gd1 1_555 1_555
H2 O14 1_555 1_555
O15 Gd2 1_555 1_555
H3 O15 1_555 1_555
O16 Gd1 1_555 1_555
H4 O16 1_555 1_555
O17 C1 1_555 1_555
O18 Gd2 1_555 1_555
O19 C1 1_555 1_555
O20 C2 1_555 1_555
O21 Gd2 1_555 1_555
O22 Gd4 1_555 1_555
O23 Gd4 1_555 1_555
O24 Gd1 1_555 1_555
O25 Gd2 1_555 1_555
S2 O6 1_555 1_555
S3 O9 1_555 1_555
Gd1A O3 1_555 1_555
Gd1C O10 1_555 1_555
Gd1C_2 O7 1_555 1_555
Gd2C O12 1_555 1_555
Gd3B O19 1_555 1_555
Gd4_2 O2 1_555 1_555
Gd4C O11 1_555 1_555
O2_2 Gd4 1_555 1_555
O3A Gd1 1_555 1_555
O5_2 Gd4 1_555 1_555
O7C Gd1 1_555 1_555
O10C Gd1 1_555 1_555
O11C Gd4 1_555 1_555
O12C Gd2 1_555 1_555
O19B Gd3 1_555 1_555
O20B Gd3 1_555 1_555
Gd2 O13 1_555 1_555
Gd2 O16 1_555 1_555
Gd2 O17 1_555 1_555
Gd3 O13 1_555 1_555
Gd3 O14 1_555 1_555
Gd3 O15 1_555 1_555
Gd4 O15 1_555 1_555
Gd4 O16 1_555 1_555
Gd4 O21 1_555 1_555
O5 Gd4_2 1_555 1_555
O20 Gd3B 1_555 1_555

#END
