
#######################################################################
#
#                 Cambridge Crystallographic Data Centre
#                                CCDC 
#
#######################################################################
#
# If this CIF has been generated from an entry in the Cambridge 
# Structural Database, then it will include bibliographic, chemical, 
# crystal, experimental, refinement or atomic coordinate data resulting 
# from the CCDC's data processing and validation procedures.
#
#######################################################################

data_WOSXIN
_symmetry_cell_setting           triclinic
_symmetry_space_group_name_H-M   'P -1'
_symmetry_Int_Tables_number      2
_space_group_name_Hall           '-P 1'
loop_
_symmetry_equiv_pos_site_id
_symmetry_equiv_pos_as_xyz
1 x,y,z
2 -x,-y,-z
_cell_length_a                   7.8068(4)
_cell_length_b                   12.9683(7)
_cell_length_c                   15.2926(8)
_cell_angle_alpha                92.7050(10)
_cell_angle_beta                 93.1520(10)
_cell_angle_gamma                106.4360(10)
_cell_volume                     1479.54
loop_
_atom_site_label
_atom_site_type_symbol
_atom_site_fract_x
_atom_site_fract_y
_atom_site_fract_z
Cu1 Cu 0.66838(6) 0.76764(3) 0.76908(2)
N1 N 0.6973(4) 0.4562(2) 0.73423(17)
N2 N 0.7254(4) 0.6282(2) 0.75955(17)
N3 N 0.6090(4) 0.0750(2) 0.76645(17)
N4 N 0.6455(4) -0.0837(2) 0.79015(17)
N5 N 0.3815(4) 0.1963(2) 0.50017(17)
N6 N 0.3140(4) 0.2060(2) 0.36033(17)
C1 C 0.6277(4) 0.3477(2) 0.6996(2)
C2 C 0.6412(4) 0.2656(2) 0.7519(2)
H1 H 0.6942 0.2809 0.8088
C3 C 0.5739(4) 0.1597(2) 0.7174(2)
C4 C 0.4849(4) 0.1352(2) 0.6352(2)
H2 H 0.4352 0.0641 0.6136
C5 C 0.4717(4) 0.2204(2) 0.5855(2)
C6 C 0.5457(4) 0.3269(2) 0.6159(2)
H3 H 0.5402 0.3828 0.5809
C7 C 0.6327(4) 0.5388(2) 0.7150(2)
H4 H 0.5353 0.5335 0.6755
C8 C 0.8586(5) 0.6017(3) 0.8089(2)
H5 H 0.9459 0.6493 0.8467
C9 C 0.8424(5) 0.4962(3) 0.7937(2)
H6 H 0.9150 0.4579 0.8186
C10 C 0.5593(4) -0.0314(2) 0.7410(2)
H7 H 0.4754 -0.0631 0.6948
C11 C 0.7565(5) -0.0081(3) 0.8501(2)
H8 H 0.8337 -0.0225 0.8932
C12 C 0.7360(5) 0.0900(3) 0.8366(2)
H9 H 0.7950 0.1547 0.8680
C13 C 0.4238(4) 0.2529(2) 0.4283(2)
H10 H 0.5171 0.3159 0.4271
C14 C 0.1952(5) 0.1159(3) 0.3900(2)
H11 H 0.1014 0.0677 0.3561
C15 C 0.2365(4) 0.1087(2) 0.4758(2)
H12 H 0.1787 0.0553 0.5114
C16 C 0.6446(4) 0.7148(3) 1.0434(2)
C17 C 0.7063(4) 0.8122(3) 1.0939(2)
C18 C 0.7877(4) 0.8164(3) 1.1773(2)
H13 H 0.8303 0.8825 1.2092
C19 C 0.8073(4) 0.7242(3) 1.2144(2)
C20 C 0.7403(5) 0.6261(3) 1.1647(2)
H14 H 0.7491 0.5629 1.1884
C21 C 0.6607(5) 0.6217(3) 1.0808(2)
H15 H 0.6174 0.5557 1.0489
C22 C 1.0490(4) 0.7490(3) 1.4791(2)
C23 C 0.9159(4) 0.6540(2) 1.4463(2)
C24 C 0.8471(4) 0.6473(3) 1.3593(2)
H16 H 0.7659 0.5829 1.3369
C25 C 0.8937(4) 0.7316(3) 1.3043(2)
C26 C 1.0222(4) 0.8247(3) 1.3379(2)
H17 H 1.0566 0.8831 1.3033
C27 C 1.0991(4) 0.8313(3) 1.4217(2)
H18 H 1.1889 0.8935 1.4411
C28 C 0.5789(4) 0.7084(3) 0.9481(2)
C29 C 0.6783(5) 0.9140(3) 1.0621(2)
C30 C 1.1446(5) 0.7776(3) 1.5706(2)
C31 C 0.8266(5) 0.5552(3) 1.4941(2)
O1 O 0.3696(3) 0.6720(2) 0.74523(16)
H19 H 0.3541 0.6094 0.7636
H20 H 0.3067 0.7045 0.7730
O2 O 0.6946(3) 0.76371(17) 0.90018(14)
O3 O 0.4290(3) 0.6491(2) 0.92236(16)
O4 O 0.7962(7) 0.9990(3) 1.0835(3)
H21 H 0.7677 1.0495 1.0628
O5 O 0.5375(4) 0.9090(2) 1.01693(17)
O6 O 1.2552(4) 0.8670(2) 1.58442(17)
O7 O 1.1065(3) 0.7103(2) 1.62962(16)
O8 O 0.6954(4) 0.4876(2) 1.45873(17)
O9 O 0.8873(3) 0.5441(2) 1.57291(15)
H22 H 0.9613 0.6004 1.5917
O10 O 1.0243(4) 0.8546(3) 0.7708(2)
H23 H 1.0578 0.9042 0.8117
H24 H 1.0766 0.8064 0.7796
Cu1_2 Cu 0.66838(6) -0.23236(3) 0.76908(2)
Cu1A Cu 0.33162(6) 0.23236(3) 0.23092(2)
N4_2 N 0.6455(4) 0.9163(2) 0.79015(17)
N6A N 0.6860(4) 0.7940(2) 0.63967(17)
O11 O 0.9398(4) 1.1985(3) 1.0285(2)
H25 H 0.9827 1.1930 0.9792
H26 H 0.8591 1.2306 1.0231
O12 O 0.1200(5) 0.6092(5) 1.0144(3)
H27 H 0.2134 0.6210 0.9860
H28 H 0.1379 0.5816 1.0622
loop_
_geom_bond_atom_site_label_1
_geom_bond_atom_site_label_2
_geom_bond_site_symmetry_1
_geom_bond_site_symmetry_2
Cu1 N2 1_555 1_555
N1 C1 1_555 1_555
N2 C7 1_555 1_555
N3 C3 1_555 1_555
N4 C10 1_555 1_555
N5 C5 1_555 1_555
N6 C13 1_555 1_555
C1 C2 1_555 1_555
C2 H1 1_555 1_555
C3 C2 1_555 1_555
C4 C3 1_555 1_555
H2 C4 1_555 1_555
C5 C4 1_555 1_555
C6 C1 1_555 1_555
H3 C6 1_555 1_555
C7 N1 1_555 1_555
H4 C7 1_555 1_555
C8 N2 1_555 1_555
H5 C8 1_555 1_555
C9 N1 1_555 1_555
H6 C9 1_555 1_555
C10 N3 1_555 1_555
H7 C10 1_555 1_555
C11 N4 1_555 1_555
H8 C11 1_555 1_555
C12 N3 1_555 1_555
H9 C12 1_555 1_555
C13 N5 1_555 1_555
H10 C13 1_555 1_555
C14 N6 1_555 1_555
H11 C14 1_555 1_555
C15 N5 1_555 1_555
H12 C15 1_555 1_555
C16 C17 1_555 1_555
C17 C18 1_555 1_555
C18 H13 1_555 1_555
C19 C18 1_555 1_555
C20 C19 1_555 1_555
H14 C20 1_555 1_555
C21 C16 1_555 1_555
H15 C21 1_555 1_555
C22 C23 1_555 1_555
C23 C24 1_555 1_555
C24 H16 1_555 1_555
C25 C19 1_555 1_555
C26 C25 1_555 1_555
H17 C26 1_555 1_555
C27 C22 1_555 1_555
H18 C27 1_555 1_555
C28 C16 1_555 1_555
C29 C17 1_555 1_555
C30 C22 1_555 1_555
C31 C23 1_555 1_555
O1 Cu1 1_555 1_555
H19 O1 1_555 1_555
H20 O1 1_555 1_555
O2 Cu1 1_555 1_555
O3 C28 1_555 1_555
O4 C29 1_555 1_555
H21 O4 1_555 1_555
O5 C29 1_555 1_555
O6 C30 1_555 1_555
O7 C30 1_555 1_555
O8 C31 1_555 1_555
O9 C31 1_555 1_555
H22 O9 1_555 1_555
O10 Cu1 1_555 1_555
H23 O10 1_555 1_555
H24 O10 1_555 1_555
O11 H25 1_555 1_555
H26 O11 1_555 1_555
O12 H27 1_555 1_555
H28 O12 1_555 1_555
Cu1_2 N4 1_555 1_555
Cu1A N6 1_555 1_555
N4_2 Cu1 1_555 1_555
N6A Cu1 1_555 1_555
C5 C6 1_555 1_555
C8 C9 1_555 1_555
C11 C12 1_555 1_555
C14 C15 1_555 1_555
C20 C21 1_555 1_555
C24 C25 1_555 1_555
C26 C27 1_555 1_555
C28 O2 1_555 1_555

#END
