
#######################################################################
#
#                 Cambridge Crystallographic Data Centre
#                                CCDC 
#
#######################################################################
#
# If this CIF has been generated from an entry in the Cambridge 
# Structural Database, then it will include bibliographic, chemical, 
# crystal, experimental, refinement or atomic coordinate data resulting 
# from the CCDC's data processing and validation procedures.
#
#######################################################################

data_WOSXEJ
_symmetry_cell_setting           monoclinic
_symmetry_space_group_name_H-M   'P 21/n'
_symmetry_Int_Tables_number      14
_space_group_name_Hall           '-P 2yn'
loop_
_symmetry_equiv_pos_site_id
_symmetry_equiv_pos_as_xyz
1 x,y,z
2 1/2-x,1/2+y,1/2-z
3 -x,-y,-z
4 1/2+x,1/2-y,1/2+z
_cell_length_a                   10.6155(8)
_cell_length_b                   11.4282(8)
_cell_length_c                   13.4265(9)
_cell_angle_alpha                90
_cell_angle_beta                 108.3530(10)
_cell_angle_gamma                90
_cell_volume                     1546
loop_
_atom_site_label
_atom_site_type_symbol
_atom_site_fract_x
_atom_site_fract_y
_atom_site_fract_z
Cu1 Cu 0.0000 0.5000 1.0000
N1 N 0.1443(3) 0.8416(2) 1.00107(18)
N2 N 0.0573(3) 0.6716(2) 1.02075(18)
N3 N 0.2942(2) 0.9748(2) 0.71623(18)
N4 N 0.3743(3) 0.9743(2) 0.58403(19)
N5 N 0.4339(3) 1.1814(2) 1.04738(18)
N6 N 0.5914(3) 1.3169(2) 1.1025(2)
C1 C 0.2153(3) 0.9257(2) 0.9610(2)
C2 C 0.2148(3) 0.9128(2) 0.8581(2)
H1 H 0.1663 0.8532 0.8159
C3 C 0.2880(3) 0.9905(2) 0.8198(2)
C4 C 0.3564(3) 1.0818(3) 0.8804(2)
H2 H 0.4016 1.1359 0.8526
C5 C 0.3566(3) 1.0919(2) 0.9834(2)
C6 C 0.2859(3) 1.0137(3) 1.0248(2)
H3 H 0.2862 1.0206 1.0939
C7 C 0.1341(3) 0.7264(3) 0.9769(2)
H4 H 0.1768 0.6905 0.9342
C8 C 0.0160(4) 0.7561(3) 1.0772(2)
H5 H -0.0409 0.7430 1.1164
C9 C 0.0701(3) 0.8603(3) 1.0674(2)
H6 H 0.0595 0.9305 1.0989
C10 C 0.3990(3) 1.0011(3) 0.6838(2)
H7 H 0.4780 1.0337 0.7261
C11 C 0.2473(3) 0.9293(3) 0.5504(2)
H8 H 0.2032 0.9035 0.4827
C12 C 0.1965(3) 0.9284(3) 0.6317(2)
H9 H 0.1132 0.9020 0.6305
C13 C 0.4316(3) 1.2189(3) 1.1450(2)
H10 H 0.3754 1.1930 1.1814
C14 C 0.5275(4) 1.3007(3) 1.1764(3)
H11 H 0.5479 1.3410 1.2397
C15 C 0.5321(3) 1.2450(3) 1.0268(2)
H12 H 0.5541 1.2378 0.9653
O1 O 0.1673(2) 0.4445(2) 1.16559(19)
H13 H 0.1626 0.3713 1.1750
H14 H 0.2440 0.4615 1.1628
N1B N -0.1443(3) 0.1584(2) 0.99893(18)
N2B N -0.0573(3) 0.3284(2) 0.97925(18)
N3B N -0.2942(2) 0.0252(2) 1.28377(18)
N4B N -0.3743(3) 0.0257(2) 1.41597(19)
N5B N -0.4339(3) -0.1814(2) 0.95262(18)
N6B N -0.5914(3) -0.3169(2) 0.8975(2)
C1B C -0.2153(3) 0.0743(2) 1.0390(2)
C2B C -0.2148(3) 0.0872(2) 1.1419(2)
H1B H -0.1663 0.1468 1.1841
C3B C -0.2880(3) 0.0095(2) 1.1802(2)
C4B C -0.3564(3) -0.0818(3) 1.1196(2)
H2B H -0.4016 -0.1359 1.1474
C5B C -0.3566(3) -0.0919(2) 1.0166(2)
C6B C -0.2859(3) -0.0137(3) 0.9752(2)
H3B H -0.2862 -0.0206 0.9061
C7B C -0.1341(3) 0.2736(3) 1.0231(2)
H4B H -0.1768 0.3095 1.0658
C8B C -0.0160(4) 0.2439(3) 0.9228(2)
H5B H 0.0409 0.2570 0.8836
C9B C -0.0701(3) 0.1397(3) 0.9326(2)
H6B H -0.0595 0.0695 0.9011
C10B C -0.3990(3) -0.0011(3) 1.3162(2)
H7B H -0.4780 -0.0337 1.2739
C11B C -0.2473(3) 0.0707(3) 1.4496(2)
H8B H -0.2032 0.0965 1.5173
C12B C -0.1965(3) 0.0716(3) 1.3683(2)
H9B H -0.1132 0.0980 1.3695
C13B C -0.4316(3) -0.2189(3) 0.8550(2)
H10B H -0.3754 -0.1930 0.8186
C14B C -0.5275(4) -0.3007(3) 0.8236(3)
H11B H -0.5479 -0.3410 0.7603
C15B C -0.5321(3) -0.2450(3) 0.9732(2)
H12B H -0.5541 -0.2378 1.0347
O1B O -0.1673(2) 0.5555(2) 0.83441(19)
H13B H -0.1626 0.6287 0.8250
H14B H -0.2440 0.5385 0.8372
Cu1A Cu -0.5000 0.0000 1.5000
Cu1A_2 Cu 0.5000 1.0000 0.5000
N4A N 0.1257(3) 0.4743(2) 0.91597(19)
N4C N -0.1257(3) 0.5257(2) 1.08403(19)
N7 N -0.1056(3) 0.8302(3) 0.7366(2)
O2 O -0.0940(3) 0.9254(3) 0.6991(3)
O3 O -0.0504(4) 0.7434(3) 0.7145(2)
O4 O -0.1667(4) 0.8217(3) 0.7985(3)
loop_
_geom_bond_atom_site_label_1
_geom_bond_atom_site_label_2
_geom_bond_site_symmetry_1
_geom_bond_site_symmetry_2
Cu1 N2 1_555 1_555
N1 C1 1_555 1_555
N2 C7 1_555 1_555
N3 C3 1_555 1_555
N4 C10 1_555 1_555
N5 C5 1_555 1_555
N6 C14 1_555 1_555
C1 C2 1_555 1_555
C2 H1 1_555 1_555
C3 C2 1_555 1_555
C4 C3 1_555 1_555
H2 C4 1_555 1_555
C5 C4 1_555 1_555
C6 C1 1_555 1_555
H3 C6 1_555 1_555
C7 N1 1_555 1_555
H4 C7 1_555 1_555
C8 N2 1_555 1_555
H5 C8 1_555 1_555
C9 N1 1_555 1_555
H6 C9 1_555 1_555
C10 N3 1_555 1_555
H7 C10 1_555 1_555
C11 N4 1_555 1_555
H8 C11 1_555 1_555
C12 N3 1_555 1_555
H9 C12 1_555 1_555
C13 N5 1_555 1_555
H10 C13 1_555 1_555
C14 C13 1_555 1_555
H11 C14 1_555 1_555
C15 N5 1_555 1_555
H12 C15 1_555 1_555
O1 Cu1 1_555 1_555
H13 O1 1_555 1_555
H14 O1 1_555 1_555
N7 O2 1_555 1_555
O3 N7 1_555 1_555
O4 N7 1_555 1_555
N1B C1B 1_555 1_555
N2B Cu1 1_555 1_555
N3B C3B 1_555 1_555
N4B C10B 1_555 1_555
N5B C5B 1_555 1_555
N6B C14B 1_555 1_555
C1B C2B 1_555 1_555
C2B H1B 1_555 1_555
C3B C2B 1_555 1_555
C4B C3B 1_555 1_555
H2B C4B 1_555 1_555
C5B C4B 1_555 1_555
C6B C1B 1_555 1_555
H3B C6B 1_555 1_555
C7B N1B 1_555 1_555
H4B C7B 1_555 1_555
C8B N2B 1_555 1_555
H5B C8B 1_555 1_555
C9B N1B 1_555 1_555
H6B C9B 1_555 1_555
C10B N3B 1_555 1_555
H7B C10B 1_555 1_555
C11B N4B 1_555 1_555
H8B C11B 1_555 1_555
C12B N3B 1_555 1_555
H9B C12B 1_555 1_555
C13B N5B 1_555 1_555
H10B C13B 1_555 1_555
C14B C13B 1_555 1_555
H11B C14B 1_555 1_555
C15B N5B 1_555 1_555
H12B C15B 1_555 1_555
O1B Cu1 1_555 1_555
H13B O1B 1_555 1_555
H14B O1B 1_555 1_555
Cu1A N4B 1_555 1_555
Cu1A_2 N4 1_555 1_555
N4A Cu1 1_555 1_555
N4C Cu1 1_555 1_555
N6 C15 1_555 1_555
C5 C6 1_555 1_555
C8 C9 1_555 1_555
C11 C12 1_555 1_555
N2B C7B 1_555 1_555
N6B C15B 1_555 1_555
C5B C6B 1_555 1_555
C8B C9B 1_555 1_555
C11B C12B 1_555 1_555

#END
