
#######################################################################
#
#                 Cambridge Crystallographic Data Centre
#                                CCDC 
#
#######################################################################
#
# If this CIF has been generated from an entry in the Cambridge 
# Structural Database, then it will include bibliographic, chemical, 
# crystal, experimental, refinement or atomic coordinate data resulting 
# from the CCDC's data processing and validation procedures.
#
#######################################################################

data_WOSYIO
_symmetry_cell_setting           rhombohedral
_symmetry_space_group_name_H-M   'R -3'
_symmetry_Int_Tables_number      148
_space_group_name_Hall           '-R 3'
loop_
_symmetry_equiv_pos_site_id
_symmetry_equiv_pos_as_xyz
1 x,y,z
2 -y,x-y,z
3 -x+y,-x,z
4 2/3+x,1/3+y,1/3+z
5 2/3-y,1/3+x-y,1/3+z
6 2/3-x+y,1/3-x,1/3+z
7 1/3+x,2/3+y,2/3+z
8 1/3-y,2/3+x-y,2/3+z
9 1/3-x+y,2/3-x,2/3+z
10 -x,-y,-z
11 y,-x+y,-z
12 x-y,x,-z
13 1/3-x,2/3-y,2/3-z
14 1/3+y,2/3-x+y,2/3-z
15 1/3+x-y,2/3+x,2/3-z
16 2/3-x,1/3-y,1/3-z
17 2/3+y,1/3-x+y,1/3-z
18 2/3+x-y,1/3+x,1/3-z
_cell_length_a                   18.9990(8)
_cell_length_b                   18.9990(8)
_cell_length_c                   37.0950(19)
_cell_angle_alpha                90
_cell_angle_beta                 90
_cell_angle_gamma                120
_cell_volume                     11596
loop_
_atom_site_label
_atom_site_type_symbol
_atom_site_fract_x
_atom_site_fract_y
_atom_site_fract_z
Cu1 Cu 0.5000 0.0000 1.0000
C1 C 0.77636(17) 0.16626(17) 0.87084(7)
C2 C 0.70511(17) 0.12423(17) 0.89022(7)
H1 H 0.6604 0.0800 0.8798
C3 C 0.69956(16) 0.14709(16) 0.92493(7)
C4 C 0.76560(16) 0.21548(16) 0.93904(7)
H2 H 0.7619 0.2328 0.9621
C5 C 0.83752(16) 0.25920(17) 0.91973(7)
C6 C 0.84202(18) 0.23225(18) 0.88615(8)
H3 H 0.8906 0.2591 0.8734
C7 C 0.7832(2) 0.14632(19) 0.83259(8)
C8 C 0.61986(17) 0.10266(17) 0.94528(7)
H4 H 0.6127 0.1428 0.9584
H5 H 0.5764 0.0781 0.9277
C9 C 0.90701(17) 0.33704(17) 0.93438(7)
C10 C 0.4006(2) -0.1642(2) 0.90686(8)
H6 H 0.4060 -0.1199 0.8923
H7 H 0.3448 -0.1977 0.9139
H8 H 0.4176 -0.1960 0.8932
C11 C 0.4465(2) -0.19944(18) 0.96342(9)
H9 H 0.3913 -0.2322 0.9714
H10 H 0.4817 -0.1778 0.9840
H11 H 0.4619 -0.2322 0.9495
C12 C 0.4538(2) -0.13058(16) 0.94054(7)
C13 C 0.54155(19) -0.07654(18) 0.92740(8)
H12 H 0.5555 -0.1096 0.9124
H13 H 0.5427 -0.0346 0.9121
C14 C 0.60715(19) -0.03555(17) 0.95533(8)
H14 H 0.5910 -0.0748 0.9751
C15 C 0.6881(2) -0.0234(2) 0.94258(11)
H15 H 0.7279 0.0026 0.9612
H16 H 0.7049 0.0102 0.9214
H17 H 0.6828 -0.0751 0.9370
C16 C 0.66964(18) 0.07120(18) 1.00057(8)
H18 H 0.7234 0.1028 0.9901
H19 H 0.6683 0.0268 1.0140
C17 C 0.65498(18) 0.12369(18) 1.02567(8)
H20 H 0.6922 0.1395 1.0459
H21 H 0.6644 0.1726 1.0133
N1 N 0.60900(13) 0.03768(13) 0.97148(6)
O1 O 0.72130(13) 0.08010(15) 0.82108(6)
H22 H 0.7288 0.0724 0.8000
O2 O 0.84088(17) 0.18622(17) 0.81431(7)
O3 O 0.96823(12) 0.37664(13) 0.91501(5)
O4 O 0.89992(12) 0.35882(12) 0.96514(5)
N2 N 0.56995(15) 0.07837(13) 1.03885(6)
H23 H 0.5648(18) 0.044(2) 1.0544(5)
C1I C 0.22364(17) -0.16626(17) 1.12916(7)
C2I C 0.29489(17) -0.12423(17) 1.10978(7)
H1I H 0.3396 -0.0800 1.1202
C3I C 0.30044(16) -0.14709(16) 1.07507(7)
C4I C 0.23440(16) -0.21548(16) 1.06096(7)
H2I H 0.2381 -0.2328 1.0379
C5I C 0.16248(16) -0.25920(17) 1.08027(7)
C6I C 0.15798(18) -0.23225(18) 1.11385(8)
H3I H 0.1094 -0.2591 1.1266
C7I C 0.2168(2) -0.14632(19) 1.16741(8)
C8I C 0.38014(17) -0.10266(17) 1.05472(7)
H4I H 0.3873 -0.1428 1.0416
H5I H 0.4236 -0.0781 1.0723
C9I C 0.09299(17) -0.33704(17) 1.06562(7)
C10I C 0.5994(2) 0.1642(2) 1.09314(8)
H6I H 0.5940 0.1199 1.1077
H7I H 0.6552 0.1977 1.0861
H8I H 0.5824 0.1960 1.1068
C11I C 0.5535(2) 0.19944(18) 1.03658(9)
H9I H 0.6087 0.2322 1.0286
H10I H 0.5183 0.1778 1.0160
H11I H 0.5381 0.2322 1.0505
C12I C 0.5462(2) 0.13058(16) 1.05946(7)
C13I C 0.45845(19) 0.07654(18) 1.07260(8)
H12I H 0.4445 0.1096 1.0876
H13I H 0.4573 0.0346 1.0879
C14I C 0.39285(19) 0.03555(17) 1.04467(8)
H14I H 0.4090 0.0748 1.0249
C15I C 0.3119(2) 0.0234(2) 1.05742(11)
H15I H 0.2721 -0.0026 1.0388
H16I H 0.2951 -0.0102 1.0786
H17I H 0.3172 0.0751 1.0630
C16I C 0.33036(18) -0.07120(18) 0.99943(8)
H18I H 0.2766 -0.1028 1.0099
H19I H 0.3317 -0.0268 0.9860
C17I C 0.34502(18) -0.12369(18) 0.97433(8)
H20I H 0.3078 -0.1395 0.9541
H21I H 0.3356 -0.1726 0.9867
N1I N 0.39100(13) -0.03768(13) 1.02852(6)
O1I O 0.27870(13) -0.08010(15) 1.17892(6)
H22I H 0.2712 -0.0724 1.2000
O2I O 0.15912(17) -0.18622(17) 1.18569(7)
O3I O 0.03177(12) -0.37664(13) 1.08499(5)
O4I O 0.10008(12) -0.35882(12) 1.03486(5)
N2I N 0.43005(15) -0.07837(13) 0.96115(6)
H23I H 0.4352(18) -0.044(2) 0.9456(5)
Cu1A Cu 0.0000 -0.5000 1.0000
Cu1A_2 Cu 1.0000 0.5000 1.0000
O4B O 0.45890(17) 0.10008(12) 0.96514(5)
O4K O 0.54110(17) -0.10008(12) 1.03486(5)
loop_
_geom_bond_atom_site_label_1
_geom_bond_atom_site_label_2
_geom_bond_site_symmetry_1
_geom_bond_site_symmetry_2
Cu1 N1 1_555 1_555
C1 C2 1_555 1_555
C2 H1 1_555 1_555
C3 C2 1_555 1_555
C4 C3 1_555 1_555
H2 C4 1_555 1_555
C5 C4 1_555 1_555
C6 C1 1_555 1_555
H3 C6 1_555 1_555
C7 C1 1_555 1_555
C8 C3 1_555 1_555
H4 C8 1_555 1_555
H5 C8 1_555 1_555
C9 C5 1_555 1_555
C10 H6 1_555 1_555
H7 C10 1_555 1_555
H8 C10 1_555 1_555
C11 H9 1_555 1_555
H10 C11 1_555 1_555
H11 C11 1_555 1_555
C12 C10 1_555 1_555
C13 C12 1_555 1_555
H12 C13 1_555 1_555
H13 C13 1_555 1_555
C14 C13 1_555 1_555
H14 C14 1_555 1_555
C15 C14 1_555 1_555
H15 C15 1_555 1_555
H16 C15 1_555 1_555
H17 C15 1_555 1_555
C16 H18 1_555 1_555
H19 C16 1_555 1_555
C17 C16 1_555 1_555
H20 C17 1_555 1_555
H21 C17 1_555 1_555
N1 C8 1_555 1_555
O1 C7 1_555 1_555
H22 O1 1_555 1_555
O2 C7 1_555 1_555
O3 C9 1_555 1_555
O4 C9 1_555 1_555
N2 Cu1 1_555 1_555
H23 N2 1_555 1_555
C1I C2I 1_555 1_555
C2I H1I 1_555 1_555
C3I C2I 1_555 1_555
C4I C3I 1_555 1_555
H2I C4I 1_555 1_555
C5I C4I 1_555 1_555
C6I C1I 1_555 1_555
H3I C6I 1_555 1_555
C7I C1I 1_555 1_555
C8I C3I 1_555 1_555
H4I C8I 1_555 1_555
H5I C8I 1_555 1_555
C9I C5I 1_555 1_555
C10I H6I 1_555 1_555
H7I C10I 1_555 1_555
H8I C10I 1_555 1_555
C11I H9I 1_555 1_555
H10I C11I 1_555 1_555
H11I C11I 1_555 1_555
C12I N2 1_555 1_555
C13I C12I 1_555 1_555
H12I C13I 1_555 1_555
H13I C13I 1_555 1_555
C14I C13I 1_555 1_555
H14I C14I 1_555 1_555
C15I C14I 1_555 1_555
H15I C15I 1_555 1_555
H16I C15I 1_555 1_555
H17I C15I 1_555 1_555
C16I H18I 1_555 1_555
H19I C16I 1_555 1_555
C17I C16I 1_555 1_555
H20I C17I 1_555 1_555
H21I C17I 1_555 1_555
N1I Cu1 1_555 1_555
O1I C7I 1_555 1_555
H22I O1I 1_555 1_555
O2I C7I 1_555 1_555
O3I C9I 1_555 1_555
O4I C9I 1_555 1_555
N2I Cu1 1_555 1_555
H23I N2I 1_555 1_555
Cu1A O4I 1_555 1_555
Cu1A_2 O4 1_555 1_555
O4B Cu1 1_555 1_555
O4K Cu1 1_555 1_555
C5 C6 1_555 1_555
C11 C12 1_555 1_555
C12 N2I 1_555 1_555
C14 N1 1_555 1_555
C16 N1 1_555 1_555
C17 N2 1_555 1_555
C5I C6I 1_555 1_555
C8I N1I 1_555 1_555
C10I C12I 1_555 1_555
C11I C12I 1_555 1_555
C14I N1I 1_555 1_555
C16I N1I 1_555 1_555
C17I N2I 1_555 1_555

#END
