
#######################################################################
#
#                 Cambridge Crystallographic Data Centre
#                                CCDC 
#
#######################################################################
#
# If this CIF has been generated from an entry in the Cambridge 
# Structural Database, then it will include bibliographic, chemical, 
# crystal, experimental, refinement or atomic coordinate data resulting 
# from the CCDC's data processing and validation procedures.
#
#######################################################################

data_WOSZEL
_symmetry_cell_setting           monoclinic
_symmetry_space_group_name_H-M   'P 21/n'
_symmetry_Int_Tables_number      14
_space_group_name_Hall           '-P 2yn'
loop_
_symmetry_equiv_pos_site_id
_symmetry_equiv_pos_as_xyz
1 x,y,z
2 1/2-x,1/2+y,1/2-z
3 -x,-y,-z
4 1/2+x,1/2-y,1/2+z
_cell_length_a                   14.0797(7)
_cell_length_b                   9.0269(3)
_cell_length_c                   27.4319(12)
_cell_angle_alpha                90
_cell_angle_beta                 91.187(5)
_cell_angle_gamma                90
_cell_volume                     3485.74
loop_
_atom_site_label
_atom_site_type_symbol
_atom_site_fract_x
_atom_site_fract_y
_atom_site_fract_z
Zn1 Zn 1.91945(4) -0.77891(5) 0.161902(18)
C1 C 2.0002(4) -0.5794(5) 0.23561(17)
N1 N 1.8236(3) -1.1876(4) 0.21332(17)
O1 O 1.9384(3) -0.6725(4) 0.22304(12)
O2 O 2.0646(3) -0.5329(5) 0.21090(14)
C2 C 1.9910(3) -0.5221(5) 0.28765(15)
O3 O 2.4135(3) 0.0465(4) 0.59453(17)
C3 C 2.0426(4) -0.4018(5) 0.30412(16)
H1 H 2.0849 -0.3552 0.2835
C4 C 2.0318(3) -0.3496(5) 0.35130(16)
H2 H 2.0672 -0.2682 0.3618
O4 O 2.3086(2) 0.1884(3) 0.62937(12)
C5 C 1.9697(3) -0.4157(4) 0.38318(15)
O5 O 1.5405(2) -0.6630(3) 0.63402(12)
C6 C 1.9204(4) -0.5398(5) 0.36649(16)
H3 H 1.8802 -0.5902 0.3873
O6 O 1.4471(3) -0.5172(5) 0.58903(14)
C7 C 1.9307(4) -0.5888(5) 0.31898(17)
H4 H 1.8953 -0.6698 0.3082
O7 O 1.8667(2) -0.9533(3) 0.19957(12)
C8 C 1.9602(3) -0.3628(4) 0.43452(14)
C9 C 2.0335(3) -0.2917(4) 0.45979(15)
H5 H 2.0905 -0.2744 0.4442
C10 C 2.0236(3) -0.2458(4) 0.50774(15)
C11 C 1.9392(3) -0.2752(4) 0.53146(15)
H6 H 1.9322 -0.2458 0.5637
C12 C 1.8646(3) -0.3489(4) 0.50697(15)
C13 C 1.8759(3) -0.3881(4) 0.45857(15)
H7 H 1.8255 -0.4328 0.4417
C14 C 2.1025(3) -0.1653(4) 0.53342(15)
C15 C 2.0845(3) -0.0467(4) 0.56409(16)
H8 H 2.0219 -0.0191 0.5695
C16 C 2.1573(3) 0.0313(4) 0.58672(16)
H9 H 2.1430 0.1090 0.6076
C17 C 2.2509(3) -0.0044(4) 0.57883(16)
C18 C 2.2697(3) -0.1266(5) 0.54966(17)
H10 H 2.3323 -0.1562 0.5455
C19 C 2.1967(3) -0.2052(5) 0.52669(17)
H11 H 2.2110 -0.2851 0.5067
C20 C 2.3315(4) 0.0815(5) 0.60224(18)
C21 C 1.7762(3) -0.3921(4) 0.53261(15)
C22 C 1.7825(3) -0.4596(5) 0.57827(16)
H12 H 1.8411 -0.4657 0.5945
C23 C 1.7022(3) -0.5179(5) 0.59979(17)
H13 H 1.7079 -0.5660 0.6297
C24 C 1.6147(3) -0.5054(5) 0.57754(17)
C25 C 1.6068(4) -0.4324(5) 0.53319(17)
H14 H 1.5472 -0.4185 0.5186
C26 C 1.6874(3) -0.3799(5) 0.51041(16)
H15 H 1.6816 -0.3360 0.4798
C27 C 1.5265(4) -0.5640(5) 0.60085(17)
C28 C 1.7988(5) -1.3327(6) 0.1922(3)
H16 H 1.8047 -1.3288 0.1575
H17 H 1.7345 -1.3571 0.2001
H18 H 1.8409 -1.4068 0.2054
C29 C 1.8197(5) -1.1761(6) 0.2654(2)
H19 H 1.8369 -1.0774 0.2752
H20 H 1.8632 -1.2456 0.2800
H21 H 1.7564 -1.1973 0.2757
C30 C 1.8457(3) -1.0756(6) 0.1846(2)
H22 H 1.8451 -1.0915 0.1511
Zn1C Zn 1.41945(4) -0.72109(5) 0.661902(18)
Zn1C_2 Zn 2.41945(4) 0.27891(5) 0.661902(18)
O4C O 1.8086(2) -0.6884(3) 0.12937(12)
O5C O 2.0405(2) -0.8370(3) 0.13402(12)
N2 N 1.8570(6) 0.0086(8) 0.7189(3)
O8 O 1.7818(5) 0.0814(9) 0.6511(3)
C31 C 1.8689(10) 0.0048(17) 0.7690(4)
H23 H 1.8149 0.0492 0.7839
H24 H 1.9253 0.0586 0.7782
H25 H 1.8749 -0.0962 0.7796
C32 C 1.9320(10) -0.0631(13) 0.6895(6)
H26 H 1.9130 -0.0623 0.6557
H27 H 1.9408 -0.1636 0.7002
H28 H 1.9906 -0.0097 0.6937
C33 C 1.7912(7) 0.0764(12) 0.6965(4)
H29 H 1.7467 0.1262 0.7150
N3 N 2.6042(3) 0.0153(4) 0.60844(16)
H30 H 2.5452 0.0507 0.6128
H31 H 2.6428 0.0582 0.6308
C34 C 2.6347(6) 0.0582(9) 0.5604(3)
H32 H 2.6333 0.1642 0.5576
H33 H 2.5929 0.0156 0.5362
H34 H 2.6983 0.0234 0.5556
C35 C 2.6034(6) -0.1429(7) 0.6172(3)
H35 H 2.5828 -0.1619 0.6497
H36 H 2.6662 -0.1819 0.6133
H37 H 2.5606 -0.1898 0.5943
loop_
_geom_bond_atom_site_label_1
_geom_bond_atom_site_label_2
_geom_bond_site_symmetry_1
_geom_bond_site_symmetry_2
Zn1 O1 1_555 1_555
C1 O1 1_555 1_555
N1 C28 1_555 1_555
O2 C1 1_555 1_555
C2 C1 1_555 1_555
O3 C20 1_555 1_555
C3 C2 1_555 1_555
H1 C3 1_555 1_555
C4 C3 1_555 1_555
H2 C4 1_555 1_555
O4 C20 1_555 1_555
C5 C4 1_555 1_555
O5 C27 1_555 1_555
C6 C5 1_555 1_555
H3 C6 1_555 1_555
O6 C27 1_555 1_555
C7 C2 1_555 1_555
H4 C7 1_555 1_555
O7 Zn1 1_555 1_555
C8 C5 1_555 1_555
C9 C8 1_555 1_555
H5 C9 1_555 1_555
C10 C9 1_555 1_555
C11 C10 1_555 1_555
H6 C11 1_555 1_555
C12 C11 1_555 1_555
C13 C8 1_555 1_555
H7 C13 1_555 1_555
C14 C10 1_555 1_555
C15 C14 1_555 1_555
H8 C15 1_555 1_555
C16 C15 1_555 1_555
H9 C16 1_555 1_555
C17 C16 1_555 1_555
C18 C17 1_555 1_555
H10 C18 1_555 1_555
C19 C14 1_555 1_555
H11 C19 1_555 1_555
C20 C17 1_555 1_555
C21 C12 1_555 1_555
C22 C21 1_555 1_555
H12 C22 1_555 1_555
C23 C22 1_555 1_555
H13 C23 1_555 1_555
C24 C23 1_555 1_555
C25 C24 1_555 1_555
H14 C25 1_555 1_555
C26 C21 1_555 1_555
H15 C26 1_555 1_555
C27 C24 1_555 1_555
C28 H16 1_555 1_555
H17 C28 1_555 1_555
H18 C28 1_555 1_555
C29 N1 1_555 1_555
H19 C29 1_555 1_555
H20 C29 1_555 1_555
H21 C29 1_555 1_555
C30 N1 1_555 1_555
H22 C30 1_555 1_555
N2 C31 1_555 1_555
O8 C33 1_555 1_555
C31 H23 1_555 1_555
H24 C31 1_555 1_555
H25 C31 1_555 1_555
C32 N2 1_555 1_555
H26 C32 1_555 1_555
H27 C32 1_555 1_555
H28 C32 1_555 1_555
C33 N2 1_555 1_555
H29 C33 1_555 1_555
N3 H30 1_555 1_555
H31 N3 1_555 1_555
C34 N3 1_555 1_555
H32 C34 1_555 1_555
H33 C34 1_555 1_555
H34 C34 1_555 1_555
C35 N3 1_555 1_555
H35 C35 1_555 1_555
H36 C35 1_555 1_555
H37 C35 1_555 1_555
Zn1C O5 1_555 1_555
Zn1C_2 O4 1_555 1_555
O4C Zn1 1_555 1_555
O5C Zn1 1_555 1_555
C6 C7 1_555 1_555
O7 C30 1_555 1_555
C12 C13 1_555 1_555
C18 C19 1_555 1_555
C25 C26 1_555 1_555

#END
