
#######################################################################
#
#                 Cambridge Crystallographic Data Centre
#                                CCDC 
#
#######################################################################
#
# If this CIF has been generated from an entry in the Cambridge 
# Structural Database, then it will include bibliographic, chemical, 
# crystal, experimental, refinement or atomic coordinate data resulting 
# from the CCDC's data processing and validation procedures.
#
#######################################################################

data_WOTBIQ
_symmetry_cell_setting           triclinic
_symmetry_space_group_name_H-M   'P -1'
_symmetry_Int_Tables_number      2
_space_group_name_Hall           '-P 1'
loop_
_symmetry_equiv_pos_site_id
_symmetry_equiv_pos_as_xyz
1 x,y,z
2 -x,-y,-z
_cell_length_a                   9.8242(16)
_cell_length_b                   11.9736(19)
_cell_length_c                   14.633(2)
_cell_angle_alpha                86.206(19)
_cell_angle_beta                 75.954(19)
_cell_angle_gamma                77.966(19)
_cell_volume                     1632.91
loop_
_atom_site_label
_atom_site_type_symbol
_atom_site_fract_x
_atom_site_fract_y
_atom_site_fract_z
Nd1 Nd 0.30397(5) 0.60915(5) 0.00104(4)
Nd2 Nd -0.08540(6) 0.84850(5) 0.00010(4)
O1 O 0.0919(10) 0.7678(8) 0.0923(6)
O2 O 0.2334(12) 0.6644(9) 0.1714(7)
O3 O 0.4336(11) 0.6625(10) -0.1601(7)
O4 O 0.5690(10) 0.5528(9) -0.0781(6)
O5 O 0.1173(10) 0.6888(9) -0.0828(7)
O6 O -0.0440(11) 0.7667(10) -0.1608(7)
O7 O -0.2369(10) 0.9271(8) 0.1525(7)
O8 O -0.0919(10) 1.0406(8) 0.0837(7)
O9 O -0.3405(11) 0.8579(11) -0.0220(9)
O10 O -0.2379(11) 0.9975(9) -0.0784(8)
O11 O 0.3159(11) 0.4459(9) -0.0918(7)
O12 O 0.1596(10) 0.3315(8) -0.0637(7)
O13 O 0.0943(10) 0.5135(9) 0.0795(7)
O14 O 0.4026(11) 0.7827(9) 0.0133(8)
C1 C 0.1265(14) 0.7378(12) 0.1693(8)
C2 C 0.5582(14) 0.6095(11) -0.1545(8)
C3 C 0.2710(14) 0.3636(12) -0.1127(8)
C4 C 0.0692(13) 0.6977(11) -0.1594(8)
C5 C -0.1860(13) 1.0151(10) 0.1565(8)
C6 C -0.3234(14) 0.9327(14) -0.0850(10)
C7 C 0.0326(19) 0.7991(18) 0.2556(11)
H1 H -0.0664 0.7983 0.2571
H2 H 0.0431 0.8782 0.2508
C8 C 0.066(3) 0.748(3) 0.3482(13)
H3 H 0.0544 0.6690 0.3538
H4 H 0.1648 0.7484 0.3470
C9 C 0.6873(19) 0.6181(19) -0.2289(11)
H5 H 0.7496 0.5433 -0.2365
H6 H 0.7379 0.6690 -0.2078
C10 C 0.662(3) 0.660(3) -0.3227(15)
H7 H 0.5768 0.7196 -0.3096
H8 H 0.7406 0.6972 -0.3519
C11 C 0.343(3) 0.3053(18) -0.2054(15)
H9 H 0.2691 0.3038 -0.2388
H10 H 0.3828 0.2266 -0.1917
C12 C 0.456(2) 0.3531(18) -0.2696(12)
H11 H 0.4238 0.4351 -0.2741
H12 H 0.5393 0.3392 -0.2430
C13 C 0.1499(16) 0.6250(13) -0.2416(10)
H13 H 0.1477 0.5459 -0.2237
H14 H 0.2492 0.6331 -0.2558
C14 C 0.096(2) 0.651(2) -0.3299(14)
H15 H 0.0965 0.7305 -0.3481
H16 H -0.0029 0.6414 -0.3169
C15 C -0.2281(17) 1.0873(13) 0.2444(9)
H17 H -0.2785 1.1624 0.2296
H18 H -0.1415 1.0969 0.2610
C16 C -0.320(2) 1.0396(17) 0.3276(12)
H19 H -0.4114 1.0389 0.3140
H20 H -0.2750 0.9611 0.3381
C17 C -0.4163(17) 0.9641(16) -0.1526(13)
H21 H -0.5072 1.0088 -0.1198
H22 H -0.4352 0.8946 -0.1730
C18 C -0.355(2) 1.0329(18) -0.2413(13)
H23 H -0.4295 1.0618 -0.2744
H24 H -0.3249 1.0979 -0.2215
C19 C -0.030(4) 0.812(4) 0.4337(16)
H25 H -0.0089 0.7740 0.4900
H26 H -0.1284 0.8145 0.4341
H27 H -0.0134 0.8886 0.4313
C20 C 0.647(10) 0.604(7) -0.384(3)
H28 H 0.6222 0.6535 -0.4340
H29 H 0.5726 0.5620 -0.3586
H30 H 0.7353 0.5512 -0.4079
C21 C 0.499(3) 0.305(2) -0.3669(15)
H31 H 0.5728 0.3412 -0.4050
H32 H 0.5347 0.2245 -0.3637
H33 H 0.4177 0.3196 -0.3945
C22 C 0.184(3) 0.576(3) -0.4116(15)
H34 H 0.1444 0.5957 -0.4658
H35 H 0.1819 0.4972 -0.3945
H36 H 0.2808 0.5867 -0.4260
C23 C -0.345(3) 1.105(3) 0.4161(15)
H37 H -0.4030 1.0692 0.4672
H38 H -0.2548 1.1058 0.4303
H39 H -0.3931 1.1820 0.4073
C24 C -0.233(3) 0.965(3) -0.3053(19)
H40 H -0.1982 1.0113 -0.3581
H41 H -0.2633 0.9020 -0.3272
H42 H -0.1590 0.9358 -0.2729
O4A O 0.4310(10) 0.4472(9) 0.0781(6)
O8A O 0.0919(10) 0.9594(8) -0.0837(7)
O12A O -0.1596(10) 0.6685(8) 0.0637(7)
Nd1A Nd 0.69603(5) 0.39085(5) -0.00104(4)
Nd2A Nd 0.08540(6) 1.15150(5) -0.00010(4)
Nd2A_2 Nd 0.08540(6) 0.15150(5) -0.00010(4)
loop_
_geom_bond_atom_site_label_1
_geom_bond_atom_site_label_2
_geom_bond_site_symmetry_1
_geom_bond_site_symmetry_2
Nd1 O1 1_555 1_555
Nd2 O1 1_555 1_555
O1 C1 1_555 1_555
O2 Nd1 1_555 1_555
O3 Nd1 1_555 1_555
O4 Nd1 1_555 1_555
O5 Nd1 1_555 1_555
O6 Nd2 1_555 1_555
O7 Nd2 1_555 1_555
O8 Nd2 1_555 1_555
O9 Nd2 1_555 1_555
O10 Nd2 1_555 1_555
O11 Nd1 1_555 1_555
O12 C3 1_555 1_555
O13 Nd1 1_555 1_555
O14 Nd1 1_555 1_555
C1 O2 1_555 1_555
C2 O3 1_555 1_555
C3 O11 1_555 1_555
C4 O5 1_555 1_555
C5 O7 1_555 1_555
C6 O9 1_555 1_555
C7 C1 1_555 1_555
H1 C7 1_555 1_555
H2 C7 1_555 1_555
C8 C7 1_555 1_555
H3 C8 1_555 1_555
H4 C8 1_555 1_555
C9 C2 1_555 1_555
H5 C9 1_555 1_555
H6 C9 1_555 1_555
C10 C9 1_555 1_555
H7 C10 1_555 1_555
H8 C10 1_555 1_555
C11 C3 1_555 1_555
H9 C11 1_555 1_555
H10 C11 1_555 1_555
C12 C11 1_555 1_555
H11 C12 1_555 1_555
H12 C12 1_555 1_555
C13 C4 1_555 1_555
H13 C13 1_555 1_555
H14 C13 1_555 1_555
C14 C13 1_555 1_555
H15 C14 1_555 1_555
H16 C14 1_555 1_555
C15 C5 1_555 1_555
H17 C15 1_555 1_555
H18 C15 1_555 1_555
C16 C15 1_555 1_555
H19 C16 1_555 1_555
H20 C16 1_555 1_555
C17 C6 1_555 1_555
H21 C17 1_555 1_555
H22 C17 1_555 1_555
C18 C17 1_555 1_555
H23 C18 1_555 1_555
H24 C18 1_555 1_555
C19 C8 1_555 1_555
H25 C19 1_555 1_555
H26 C19 1_555 1_555
H27 C19 1_555 1_555
C20 C10 1_555 1_555
H28 C20 1_555 1_555
H29 C20 1_555 1_555
H30 C20 1_555 1_555
C21 C12 1_555 1_555
H31 C21 1_555 1_555
H32 C21 1_555 1_555
H33 C21 1_555 1_555
C22 C14 1_555 1_555
H34 C22 1_555 1_555
H35 C22 1_555 1_555
H36 C22 1_555 1_555
C23 C16 1_555 1_555
H37 C23 1_555 1_555
H38 C23 1_555 1_555
H39 C23 1_555 1_555
C24 C18 1_555 1_555
H40 C24 1_555 1_555
H41 C24 1_555 1_555
H42 C24 1_555 1_555
O4A Nd1 1_555 1_555
O8A Nd2 1_555 1_555
O12A Nd2 1_555 1_555
Nd1A O4 1_555 1_555
Nd2A O8 1_555 1_555
Nd2A_2 O12 1_555 1_555
Nd2 O5 1_555 1_555
O4 C2 1_555 1_555
O6 C4 1_555 1_555
O8 C5 1_555 1_555
O10 C6 1_555 1_555
O4A Nd1A 1_555 1_555
O8A Nd2A 1_555 1_555

#END
