
#######################################################################
#
#                 Cambridge Crystallographic Data Centre
#                                CCDC 
#
#######################################################################
#
# If this CIF has been generated from an entry in the Cambridge 
# Structural Database, then it will include bibliographic, chemical, 
# crystal, experimental, refinement or atomic coordinate data resulting 
# from the CCDC's data processing and validation procedures.
#
#######################################################################

data_WOTLEW
_symmetry_cell_setting           monoclinic
_symmetry_space_group_name_H-M   'P 21/n'
_symmetry_Int_Tables_number      14
_space_group_name_Hall           '-P 2yn'
loop_
_symmetry_equiv_pos_site_id
_symmetry_equiv_pos_as_xyz
1 x,y,z
2 1/2+x,1/2-y,1/2+z
3 -x,-y,-z
4 1/2-x,1/2+y,1/2-z
_cell_length_a                   8.941(4)
_cell_length_b                   12.534(2)
_cell_length_c                   12.279(6)
_cell_angle_alpha                90
_cell_angle_beta                 100.83(3)
_cell_angle_gamma                90
_cell_volume                     1351.56
loop_
_atom_site_label
_atom_site_type_symbol
_atom_site_fract_x
_atom_site_fract_y
_atom_site_fract_z
Tl1 Tl 0.2444(1) 0.1524(1) 0.2084(1)
S1 S 0.2361(3) 0.3810(2) 0.2535(2)
O1 O -0.0843(9) 0.3744(4) 0.5443(6)
N1 N 0.0656(7) 0.2373(4) 0.3374(5)
N2 N 0.0678(9) 0.3995(5) 0.4150(6)
C1 C 0.119(3) 0.3343(5) 0.3354(7)
C2 C -0.024(1) 0.3419(5) 0.4697(7)
C3 C -0.0282(9) 0.2334(5) 0.4176(6)
C4 C -0.1166(9) 0.1564(5) 0.4470(7)
C5 C -0.1497(8) 0.0498(6) 0.3988(7)
C6 C -0.101(1) 0.0156(7) 0.3041(8)
C7 C -0.139(1) -0.0878(7) 0.2627(9)
C8 C -0.224(1) -0.1542(7) 0.3151(9)
C9 C -0.275(1) -0.1183(7) 0.4083(9)
C10 C -0.238(1) -0.0172(6) 0.4517(7)
C11 C 0.450(1) 0.1396(8) 0.325(1)
C12 C 0.058(1) 0.1400(8) 0.0732(8)
S1C S 0.2639(3) -0.1190(2) 0.2465(2)
O1A O 0.4157(9) 0.1256(4) 0.0443(6)
Tl1C Tl 0.2556(1) 0.6524(1) 0.2916(1)
Tl1A Tl -0.2556(1) 0.3476(1) 0.7084(1)
loop_
_geom_bond_atom_site_label_1
_geom_bond_atom_site_label_2
_geom_bond_site_symmetry_1
_geom_bond_site_symmetry_2
Tl1 S1 1_555 1_555
S1 C1 1_555 1_555
O1 C2 1_555 1_555
N1 Tl1 1_555 1_555
N2 C1 1_555 1_555
C1 N1 1_555 1_555
C2 N2 1_555 1_555
C3 N1 1_555 1_555
C4 C3 1_555 1_555
C5 C4 1_555 1_555
C6 C5 1_555 1_555
C7 C6 1_555 1_555
C8 C7 1_555 1_555
C9 C8 1_555 1_555
C10 C5 1_555 1_555
C11 Tl1 1_555 1_555
C12 Tl1 1_555 1_555
S1C Tl1 1_555 1_555
O1A Tl1 1_555 1_555
Tl1C S1 1_555 1_555
Tl1A O1 1_555 1_555
C2 C3 1_555 1_555
C9 C10 1_555 1_555

#END
