
#######################################################################
#
#                 Cambridge Crystallographic Data Centre
#                                CCDC 
#
#######################################################################
#
# If this CIF has been generated from an entry in the Cambridge 
# Structural Database, then it will include bibliographic, chemical, 
# crystal, experimental, refinement or atomic coordinate data resulting 
# from the CCDC's data processing and validation procedures.
#
#######################################################################

data_WOTLOI
_symmetry_cell_setting           triclinic
_symmetry_space_group_name_H-M   'P -1'
_symmetry_Int_Tables_number      2
_space_group_name_Hall           '-P 1'
loop_
_symmetry_equiv_pos_site_id
_symmetry_equiv_pos_as_xyz
1 x,y,z
2 -x,-y,-z
_cell_length_a                   11.3945(5)
_cell_length_b                   14.8843(8)
_cell_length_c                   15.8690(7)
_cell_angle_alpha                64.690(5)
_cell_angle_beta                 89.747(4)
_cell_angle_gamma                89.661(4)
_cell_volume                     2432.97
loop_
_atom_site_label
_atom_site_type_symbol
_atom_site_fract_x
_atom_site_fract_y
_atom_site_fract_z
Cu1 Cu 0.5000 0.5000 1.0000
Cu2 Cu 0.89375(14) 0.63759(13) 1.35754(13)
Cl1 Cl 1.0000 0.5000 1.5000
C1 C 0.3394(10) 0.6394(9) 0.8583(9)
H1 H 0.3652 0.6921 0.8700
C2 C 0.3103(12) 0.4981(10) 0.8633(10)
H2 H 0.3130 0.4298 0.8820
C3 C 0.2291(12) 0.7404(11) 0.7120(10)
H3 H 0.1579 0.7282 0.6853
H4 H 0.2116 0.7897 0.7350
C4 C 0.3212(12) 0.7782(10) 0.6396(11)
C5 C 0.3222(15) 0.7582(15) 0.5641(13)
H5 H 0.2597 0.7231 0.5557
C6 C 0.4091(16) 0.7865(15) 0.5006(14)
H6 H 0.4065 0.7689 0.4510
C7 C 0.5014(13) 0.8411(11) 0.5083(11)
C8 C 0.5014(15) 0.8631(12) 0.5798(13)
H7 H 0.5631 0.9004 0.5861
C9 C 0.4121(16) 0.8328(12) 0.6473(14)
H8 H 0.4152 0.8500 0.6971
C10 C 0.7014(13) 0.7520(14) 0.3981(14)
H9 H 0.6610 0.7664 0.3430
C11 C 0.8137(15) 0.6946(14) 0.5068(13)
H10 H 0.8718 0.6553 0.5468
C12 C 0.6912(12) 0.6277(10) 0.8868(11)
H11 H 0.7129 0.6455 0.9341
C13 C 0.6103(15) 0.5607(13) 0.8116(13)
H12 H 0.5594 0.5219 0.7955
C14 C 0.8323(12) 0.7374(11) 0.7656(12)
H13 H 0.7995 0.8040 0.7401
H14 H 0.8721 0.7281 0.7157
C15 C 0.9229(13) 0.7850(11) 0.8862(11)
H15 H 0.8706 0.8382 0.8678
C16 C 0.9190(10) 0.7246(10) 0.8421(11)
C17 C 0.9960(12) 0.6415(11) 0.8748(11)
H16 H 0.9952 0.5973 0.8475
C18 C 1.0710(11) 0.6265(10) 0.9463(11)
H17 H 1.1205 0.5714 0.9674
C19 C 1.0759(11) 0.6909(11) 0.9884(11)
C20 C 1.0004(12) 0.7716(11) 0.9569(12)
H18 H 1.0020 0.8166 0.9834
C21 C 1.1603(11) 0.6730(11) 1.0653(10)
H19 H 1.2230 0.6297 1.0629
H20 H 1.1949 0.7356 1.0571
C22 C 1.0505(12) 0.6732(10) 1.2011(11)
H21 H 1.0532 0.7410 1.1848
C23 C 1.0160(15) 0.5248(12) 1.2656(14)
H22 H 0.9869 0.4642 1.3085
C24 C 0.9743(11) 0.8454(10) 1.3130(11)
H23 H 0.9068 0.8757 1.2802
C25 C 1.1422(11) 0.8276(10) 1.3812(11)
H24 H 1.2121 0.8406 1.4038
C26 C 1.0608(12) 0.9939(10) 1.3252(11)
H25 H 1.0063 1.0347 1.2771
H26 H 1.1391 1.0203 1.3063
C27 C 1.0296(11) 0.9979(10) 1.4153(11)
C28 C 0.9161(12) 1.0141(11) 1.4346(12)
H27 H 0.8584 1.0266 1.3897
C29 C 1.1134(12) 0.9880(12) 1.4813(13)
H28 H 1.1920 0.9825 1.4680
C30 C 0.5997(14) 0.8736(13) 0.4399(12)
H29 H 0.5675 0.9002 0.3774
H30 H 0.6420 0.9265 0.4465
N1 N 0.3682(8) 0.5430(7) 0.9083(8)
N2 N 0.2501(10) 0.5580(9) 0.7915(9)
N3 N 0.2690(9) 0.6468(8) 0.7902(8)
N4 N 0.6802(11) 0.7948(11) 0.4512(10)
N5 N 0.7559(14) 0.7609(13) 0.5243(12)
N6 N 0.7859(12) 0.6858(11) 0.4291(10)
N7 N 0.6102(9) 0.5635(8) 0.8944(8)
N8 N 0.7374(9) 0.6635(8) 0.8043(8)
N9 N 0.6896(13) 0.6183(12) 0.7558(10)
N10 N 1.1030(9) 0.6279(8) 1.1547(9)
N11 N 1.0793(14) 0.5318(10) 1.1960(12)
N12 N 0.9944(9) 0.6080(7) 1.2731(8)
N13 N 0.9990(9) 0.7507(9) 1.3432(8)
N14 N 1.1026(12) 0.7407(11) 1.3868(13)
N15 N 1.0567(9) 0.8909(8) 1.3352(8)
C24A C 1.0257(11) 1.1546(10) 1.6870(11)
H23A H 1.0932 1.1243 1.7198
C25A C 0.8578(11) 1.1724(10) 1.6188(11)
H24A H 0.7879 1.1594 1.5962
C26A C 0.9392(12) 1.0061(10) 1.6748(11)
H25A H 0.9937 0.9653 1.7229
H26A H 0.8609 0.9797 1.6937
C27A C 0.9704(11) 1.0021(10) 1.5847(11)
C28A C 1.0839(12) 0.9859(11) 1.5654(12)
H27A H 1.1416 0.9734 1.6103
C29A C 0.8866(12) 1.0120(12) 1.5187(13)
H28A H 0.8080 1.0175 1.5320
N13A N 1.0010(9) 1.2493(9) 1.6568(8)
N14A N 0.8974(12) 1.2593(11) 1.6132(13)
N15A N 0.9433(9) 1.1091(8) 1.6648(8)
Cu2A Cu 0.10625(14) 0.36241(13) 0.64246(13)
C1A C 0.6606(10) 0.3606(9) 1.1417(9)
H1A H 0.6348 0.3079 1.1300
C2A C 0.6897(12) 0.5019(10) 1.1367(10)
H2A H 0.6870 0.5702 1.1180
C3A C 0.7709(12) 0.2596(11) 1.2880(10)
H3A H 0.8421 0.2718 1.3147
H4A H 0.7884 0.2103 1.2650
C4A C 0.6788(12) 0.2218(10) 1.3604(11)
C5A C 0.6778(15) 0.2418(15) 1.4359(13)
H5A H 0.7403 0.2769 1.4443
C6A C 0.5909(16) 0.2135(15) 1.4994(14)
H6A H 0.5935 0.2311 1.5490
C7A C 0.4986(13) 0.1589(11) 1.4917(11)
C8A C 0.4986(15) 0.1369(12) 1.4202(13)
H7A H 0.4369 0.0996 1.4139
C9A C 0.5879(16) 0.1672(12) 1.3527(14)
H8A H 0.5848 0.1500 1.3029
C10A C 0.2986(13) 0.2480(14) 1.6019(14)
H9A H 0.3390 0.2336 1.6570
C11A C 0.1863(15) 0.3054(14) 1.4932(13)
H10A H 0.1282 0.3447 1.4532
C12A C 0.3088(12) 0.3723(10) 1.1132(11)
H11A H 0.2871 0.3545 1.0659
C13A C 0.3897(15) 0.4393(13) 1.1884(13)
H12A H 0.4406 0.4781 1.2045
C14A C 0.1677(12) 0.2626(11) 1.2344(12)
H13A H 0.2005 0.1960 1.2599
H14A H 0.1279 0.2719 1.2843
C15A C 0.0771(13) 0.2150(11) 1.1138(11)
H15A H 0.1294 0.1618 1.1322
C16A C 0.0810(10) 0.2754(10) 1.1579(11)
C17A C 0.0040(12) 0.3585(11) 1.1252(11)
H16A H 0.0048 0.4027 1.1525
C18A C -0.0710(11) 0.3735(10) 1.0537(11)
H17A H -0.1205 0.4286 1.0326
C19A C -0.0759(11) 0.3091(11) 1.0116(11)
C20A C -0.0004(12) 0.2284(11) 1.0431(12)
H18A H -0.0020 0.1834 1.0166
C21A C -0.1603(11) 0.3270(11) 0.9347(10)
H19A H -0.2230 0.3703 0.9371
H20A H -0.1949 0.2644 0.9429
C22A C -0.0505(12) 0.3268(10) 0.7989(11)
H21A H -0.0532 0.2590 0.8152
C23A C -0.0160(15) 0.4752(12) 0.7344(14)
H22A H 0.0131 0.5358 0.6915
C30A C 0.4003(14) 0.1264(13) 1.5601(12)
H29A H 0.4325 0.0998 1.6226
H30A H 0.3580 0.0735 1.5535
N1A N 0.6318(8) 0.4570(7) 1.0917(8)
N2A N 0.7499(10) 0.4420(9) 1.2085(9)
N3A N 0.7310(9) 0.3532(8) 1.2098(8)
N4A N 0.3198(11) 0.2052(11) 1.5488(10)
N5A N 0.2441(14) 0.2391(13) 1.4757(12)
N6A N 0.2141(12) 0.3142(11) 1.5709(10)
N7A N 0.3898(9) 0.4365(8) 1.1056(8)
N8A N 0.2626(9) 0.3365(8) 1.1957(8)
N9A N 0.3104(13) 0.3817(12) 1.2442(10)
N10A N -0.1030(9) 0.3721(8) 0.8453(9)
N11A N -0.0793(14) 0.4682(10) 0.8040(12)
N12A N 0.0056(9) 0.3920(7) 0.7269(8)
Cu2_2 Cu 0.89375(14) 0.63759(13) 0.35754(13)
Cu2A_2 Cu 0.10625(14) 0.36241(13) 1.64246(13)
Cu2A_3 Cu 1.10625(14) 0.36241(13) 1.64246(13)
Cu2A_4 Cu 1.10625(14) 1.36241(13) 1.64246(13)
Cl1_2 Cl 0.0000 0.5000 0.5000
N6_2 N 0.7859(12) 0.6858(11) 1.4291(10)
N6A_2 N 0.2141(12) 0.3142(11) 0.5709(10)
N13A_2 N 0.0010(9) 0.2493(9) 0.6568(8)
O23 O 0.7803(10) 0.5320(8) 1.3648(9)
O24 O 0.566(2) 0.5492(17) 0.288(2)
O25 O 0.423(3) 0.416(4) 0.416(3)
O26 O 0.729(7) 0.451(4) 0.564(5)
W1 W 0.29612(4) 0.17466(4) 0.86829(4)
W2 W 0.29903(4) -0.05615(4) 0.86509(4)
W3 W 0.20384(4) -0.03110(4) 1.06269(4)
W4 W 0.40307(5) 0.03735(4) 1.19023(4)
W5 W 0.50441(4) 0.23385(4) 0.99186(4)
W6 W 0.59010(5) 0.19985(4) 0.79770(4)
B1 B 0.5000 0.0000 1.0000
O1 O 0.2014(8) 0.2592(7) 0.7953(7)
O2 O 0.6301(8) 0.2985(6) 0.7013(7)
O3 O 0.5048(7) 0.3487(6) 0.9890(7)
O4 O 0.5676(7) 0.0348(7) 1.2101(8)
O5 O 0.3573(7) 0.0538(7) 1.2843(7)
O6 O 0.4131(9) -0.1047(7) 1.2481(9)
O7 O 0.2624(9) -0.1554(7) 1.1494(8)
O8 O 0.2040(8) -0.0826(7) 0.7995(7)
O9 O 0.0640(7) -0.0469(7) 1.0956(8)
O10 O 0.2045(10) -0.0740(7) 0.9679(8)
O11 O 0.2738(10) 0.0796(7) 0.8198(9)
O12 O 0.4284(8) 0.2156(10) 0.7859(9)
O13 O 0.5815(8) 0.2598(9) 0.8834(9)
O14 O 0.4159(8) 0.1683(8) 1.1028(8)
O15 O 0.2602(9) 0.0258(7) 1.1420(8)
O16 O 0.3591(8) 0.2430(9) 0.9319(8)
O17 O 0.1992(10) 0.1002(7) 0.9678(7)
O18 O 0.3769(11) 0.0166(10) 0.9629(10)
O19 O 0.4779(11) 0.1094(10) 0.9395(10)
O20 O 0.4132(11) -0.0348(10) 1.0814(10)
O21 O 0.3605(7) -0.1869(7) 0.9403(8)
O22 O 0.5192(11) 0.0605(10) 1.0570(10)
O18A O 0.6231(11) -0.0166(10) 1.0371(10)
O19A O 0.5221(11) -0.1094(10) 1.0605(10)
O20A O 0.5868(11) 0.0348(10) 0.9186(10)
O22A O 0.4808(11) -0.0605(10) 0.9430(10)
W1A W 0.70388(4) -0.17466(4) 1.13171(4)
W2A W 0.70097(4) 0.05615(4) 1.13491(4)
W3A W 0.79616(4) 0.03110(4) 0.93731(4)
W4A W 0.59693(5) -0.03735(4) 0.80977(4)
W5A W 0.49559(4) -0.23385(4) 1.00814(4)
W6A W 0.40990(5) -0.19985(4) 1.20230(4)
O1A O 0.7986(8) -0.2592(7) 1.2047(7)
O2A O 0.3699(8) -0.2985(6) 1.2987(7)
O3A O 0.4952(7) -0.3487(6) 1.0110(7)
O4A O 0.4324(7) -0.0348(7) 0.7899(8)
O5A O 0.6427(7) -0.0538(7) 0.7157(7)
O6A O 0.5869(9) 0.1047(7) 0.7519(9)
O7A O 0.7376(9) 0.1554(7) 0.8506(8)
O8A O 0.7960(8) 0.0826(7) 1.2005(7)
O9A O 0.9360(7) 0.0469(7) 0.9044(8)
O10A O 0.7955(10) 0.0740(7) 1.0321(8)
O11A O 0.7262(10) -0.0796(7) 1.1802(9)
O12A O 0.5716(8) -0.2156(10) 1.2141(9)
O13A O 0.4185(8) -0.2598(9) 1.1166(9)
O14A O 0.5841(8) -0.1683(8) 0.8972(8)
O15A O 0.7398(9) -0.0258(7) 0.8580(8)
O16A O 0.6409(8) -0.2430(9) 1.0681(8)
O17A O 0.8008(10) -0.1002(7) 1.0322(7)
O21A O 0.6395(7) 0.1869(7) 1.0597(8)
O27? O 0.635(4) 0.443(3) 0.513(3)
loop_
_geom_bond_atom_site_label_1
_geom_bond_atom_site_label_2
_geom_bond_site_symmetry_1
_geom_bond_site_symmetry_2
W1 O1 1_555 1_555
W2 O8 1_555 1_555
W3 O7 1_555 1_555
W4 O4 1_555 1_555
W5 O3 1_555 1_555
W6 O2 1_555 1_555
B1 O18 1_555 1_555
O4 W2A 1_555 1_555
O5 W4 1_555 1_555
O6 W4 1_555 1_555
O7 W6A 1_555 1_555
O9 W3 1_555 1_555
O10 W2 1_555 1_555
O11 W1 1_555 1_555
O12 W1 1_555 1_555
O13 W5 1_555 1_555
O14 W4 1_555 1_555
O15 W3 1_555 1_555
O16 W1 1_555 1_555
O17 W1 1_555 1_555
O18 W1 1_555 1_555
O19 W1 1_555 1_555
O20 W3 1_555 1_555
O21 W2 1_555 1_555
O22 W4 1_555 1_555
Cu1 N1 1_555 1_555
Cu2 Cl1 1_555 1_555
Cl1 Cu2A_3 1_555 1_555
C1 H1 1_555 1_555
C2 H2 1_555 1_555
C3 H3 1_555 1_555
H4 C3 1_555 1_555
C4 C3 1_555 1_555
C5 C4 1_555 1_555
H5 C5 1_555 1_555
C6 C5 1_555 1_555
H6 C6 1_555 1_555
C7 C6 1_555 1_555
C8 C7 1_555 1_555
H7 C8 1_555 1_555
C9 C4 1_555 1_555
H8 C9 1_555 1_555
C10 H9 1_555 1_555
C11 H10 1_555 1_555
C12 H11 1_555 1_555
C13 H12 1_555 1_555
C14 H13 1_555 1_555
H14 C14 1_555 1_555
C15 H15 1_555 1_555
C16 C14 1_555 1_555
C17 C16 1_555 1_555
H16 C17 1_555 1_555
C18 C17 1_555 1_555
H17 C18 1_555 1_555
C19 C18 1_555 1_555
C20 C15 1_555 1_555
H18 C20 1_555 1_555
C21 C19 1_555 1_555
H19 C21 1_555 1_555
H20 C21 1_555 1_555
C22 H21 1_555 1_555
C23 H22 1_555 1_555
C24 H23 1_555 1_555
C25 H24 1_555 1_555
C26 H25 1_555 1_555
H26 C26 1_555 1_555
C27 C26 1_555 1_555
C28 C27 1_555 1_555
H27 C28 1_555 1_555
C29 C27 1_555 1_555
H28 C29 1_555 1_555
C30 C7 1_555 1_555
H29 C30 1_555 1_555
H30 C30 1_555 1_555
N1 C1 1_555 1_555
N2 C2 1_555 1_555
N3 C1 1_555 1_555
N4 C10 1_555 1_555
N5 C11 1_555 1_555
N6 C10 1_555 1_555
N7 Cu1 1_555 1_555
N8 C12 1_555 1_555
N9 C13 1_555 1_555
N10 C21 1_555 1_555
N11 C23 1_555 1_555
N12 Cu2 1_555 1_555
N13 Cu2 1_555 1_555
N14 C25 1_555 1_555
N15 C24 1_555 1_555
O18A B1 1_555 1_555
O19A B1 1_555 1_555
O20A W6 1_555 1_555
O22A W2 1_555 1_555
W1A O18A 1_555 1_555
W2A O22 1_555 1_555
W3A O18A 1_555 1_555
W4A O20A 1_555 1_555
W5A O21 1_555 1_555
W6A O6 1_555 1_555
O1A W1A 1_555 1_555
O2A W6A 1_555 1_555
O3A W5A 1_555 1_555
O4A W2 1_555 1_555
O5A W4A 1_555 1_555
O6A W6 1_555 1_555
O7A W6 1_555 1_555
O8A W2A 1_555 1_555
O9A W3A 1_555 1_555
O10A W2A 1_555 1_555
O11A W1A 1_555 1_555
O12A W1A 1_555 1_555
O13A W5A 1_555 1_555
O14A W4A 1_555 1_555
O15A W3A 1_555 1_555
O16A W1A 1_555 1_555
O17A W1A 1_555 1_555
O21A W5 1_555 1_555
C24A H23A 1_555 1_555
C25A H24A 1_555 1_555
C26A H25A 1_555 1_555
H26A C26A 1_555 1_555
C27A C26A 1_555 1_555
C28A C29 1_555 1_555
H27A C28A 1_555 1_555
C29A C28 1_555 1_555
H28A C29A 1_555 1_555
N13A C24A 1_555 1_555
N14A C25A 1_555 1_555
N15A C24A 1_555 1_555
Cu2A N12A 1_555 1_555
C1A H1A 1_555 1_555
C2A H2A 1_555 1_555
C3A H3A 1_555 1_555
H4A C3A 1_555 1_555
C4A C3A 1_555 1_555
C5A C4A 1_555 1_555
H5A C5A 1_555 1_555
C6A C5A 1_555 1_555
H6A C6A 1_555 1_555
C7A C6A 1_555 1_555
C8A C7A 1_555 1_555
H7A C8A 1_555 1_555
C9A C4A 1_555 1_555
H8A C9A 1_555 1_555
C10A H9A 1_555 1_555
C11A H10A 1_555 1_555
C12A H11A 1_555 1_555
C13A H12A 1_555 1_555
C14A H13A 1_555 1_555
H14A C14A 1_555 1_555
C15A H15A 1_555 1_555
C16A C14A 1_555 1_555
C17A C16A 1_555 1_555
H16A C17A 1_555 1_555
C18A C17A 1_555 1_555
H17A C18A 1_555 1_555
C19A C18A 1_555 1_555
C20A C15A 1_555 1_555
H18A C20A 1_555 1_555
C21A C19A 1_555 1_555
H19A C21A 1_555 1_555
H20A C21A 1_555 1_555
C22A H21A 1_555 1_555
C23A H22A 1_555 1_555
C30A C7A 1_555 1_555
H29A C30A 1_555 1_555
H30A C30A 1_555 1_555
N1A Cu1 1_555 1_555
N2A C2A 1_555 1_555
N3A C1A 1_555 1_555
N4A C10A 1_555 1_555
N5A C11A 1_555 1_555
N6A C10A 1_555 1_555
N7A Cu1 1_555 1_555
N8A C12A 1_555 1_555
N9A C13A 1_555 1_555
N10A C21A 1_555 1_555
N11A C23A 1_555 1_555
N12A C22A 1_555 1_555
Cu2_2 N6 1_555 1_555
Cu2A_2 N6A 1_555 1_555
Cu2A_4 N13A 1_555 1_555
Cl1_2 Cu2A 1_555 1_555
N6_2 Cu2 1_555 1_555
N6A_2 Cu2A 1_555 1_555
N13A_2 Cu2A 1_555 1_555
W2 O11 1_555 1_555
W2 O18 1_555 1_555
W3 O10 1_555 1_555
W3 O17 1_555 1_555
W3 O18 1_555 1_555
W4 O15 1_555 1_555
W4 O20 1_555 1_555
W5 O14 1_555 1_555
W5 O16 1_555 1_555
W5 O19 1_555 1_555
W5 O22 1_555 1_555
W6 O12 1_555 1_555
W6 O13 1_555 1_555
W6 O19 1_555 1_555
B1 O19 1_555 1_555
B1 O20 1_555 1_555
B1 O22 1_555 1_555
B1 O20A 1_555 1_555
B1 O22A 1_555 1_555
O18 O19 1_555 1_555
O18 O20 1_555 1_555
O18 O22A 1_555 1_555
O19 O22 1_555 1_555
O19 O20A 1_555 1_555
O20 O22 1_555 1_555
O20 O19A 1_555 1_555
O20 W6A 1_555 1_555
O22 O18A 1_555 1_555
C2 N1 1_555 1_555
C3 N3 1_555 1_555
C8 C9 1_555 1_555
C11 N6 1_555 1_555
C12 N7 1_555 1_555
C13 N7 1_555 1_555
C14 N8 1_555 1_555
C15 C16 1_555 1_555
C19 C20 1_555 1_555
C22 N10 1_555 1_555
C22 N12 1_555 1_555
C23 N12 1_555 1_555
C24 N13 1_555 1_555
C25 N15 1_555 1_555
C26 N15 1_555 1_555
C30 N4 1_555 1_555
N2 N3 1_555 1_555
N4 N5 1_555 1_555
N8 N9 1_555 1_555
N10 N11 1_555 1_555
N13 N14 1_555 1_555
O18A O19A 1_555 1_555
O18A O20A 1_555 1_555
O18A W2A 1_555 1_555
O19A O22A 1_555 1_555
O19A W1A 1_555 1_555
O19A W5A 1_555 1_555
O19A W6A 1_555 1_555
O20A O22A 1_555 1_555
O20A W3A 1_555 1_555
O22A W4A 1_555 1_555
O22A W5A 1_555 1_555
W2A O11A 1_555 1_555
W2A O21A 1_555 1_555
W3A O7A 1_555 1_555
W3A O10A 1_555 1_555
W3A O17A 1_555 1_555
W4A O4A 1_555 1_555
W4A O6A 1_555 1_555
W4A O15A 1_555 1_555
W5A O14A 1_555 1_555
W5A O16A 1_555 1_555
W6A O12A 1_555 1_555
W6A O13A 1_555 1_555
C25A N15A 1_555 1_555
C26A N15A 1_555 1_555
C27A C28A 1_555 1_555
C27A C29A 1_555 1_555
N13A N14A 1_555 1_555
C1A N1A 1_555 1_555
C2A N1A 1_555 1_555
C3A N3A 1_555 1_555
C8A C9A 1_555 1_555
C11A N6A 1_555 1_555
C12A N7A 1_555 1_555
C13A N7A 1_555 1_555
C14A N8A 1_555 1_555
C15A C16A 1_555 1_555
C19A C20A 1_555 1_555
C22A N10A 1_555 1_555
C23A N12A 1_555 1_555
C30A N4A 1_555 1_555
N2A N3A 1_555 1_555
N4A N5A 1_555 1_555
N8A N9A 1_555 1_555
N10A N11A 1_555 1_555

#END
