
#######################################################################
#
#                 Cambridge Crystallographic Data Centre
#                                CCDC 
#
#######################################################################
#
# If this CIF has been generated from an entry in the Cambridge 
# Structural Database, then it will include bibliographic, chemical, 
# crystal, experimental, refinement or atomic coordinate data resulting 
# from the CCDC's data processing and validation procedures.
#
#######################################################################

data_WOTPAY
_symmetry_cell_setting           trigonal
_symmetry_space_group_name_H-M   'P 32 2 1'
_symmetry_Int_Tables_number      154
_space_group_name_Hall           'P 32 2"'
loop_
_symmetry_equiv_pos_site_id
_symmetry_equiv_pos_as_xyz
1 x,y,z
2 -y,x-y,2/3+z
3 -x+y,-x,1/3+z
4 y,x,-z
5 -x,-x+y,2/3-z
6 x-y,-y,1/3-z
_cell_length_a                   7.4200(3)
_cell_length_b                   7.4200(3)
_cell_length_c                   12.1100(7)
_cell_angle_alpha                90
_cell_angle_beta                 90
_cell_angle_gamma                120
_cell_volume                     577.408
loop_
_atom_site_label
_atom_site_type_symbol
_atom_site_fract_x
_atom_site_fract_y
_atom_site_fract_z
Zn1 Zn 0.0000 0.30395(7) 0.3333
O1 O 0.2610(4) 0.3842(5) 0.4344(2)
O2 O -0.1046(5) 0.0272(4) 0.4398(2)
O3 O -0.1566(7) 0.3971(7) 0.4404(3)
H1 H -0.1309 0.5197 0.4241
H2 H -0.1163 0.3966 0.5064
C1 C 0.0370(7) 0.0370(7) 0.5000
C2 C 0.2453(7) 0.2453(7) 0.5000
O1C O 0.3842(5) 0.2610(4) 0.5656(2)
O2C O 0.0272(4) -0.1046(5) 0.5602(2)
O3D O 0.1566(7) 0.5537(10) 0.2263(3)
H1D H 0.1309 0.6506 0.2426
H2D H 0.1163 0.5129 0.1603
Zn1B Zn 0.30395(7) 0.0000 0.6666
O1D O -0.2610(4) 0.1232(6) 0.2323(2)
O2D O 0.1046(5) 0.1318(6) 0.2269(2)
O4 O 0.3571(4) 0.0012(4) 0.3324(2)
H3 H 0.4718 0.0371 0.3000
H4 H 0.2966 0.0588 0.3008
loop_
_geom_bond_atom_site_label_1
_geom_bond_atom_site_label_2
_geom_bond_site_symmetry_1
_geom_bond_site_symmetry_2
Zn1 O1 1_555 1_555
O1 C2 1_555 1_555
O2 Zn1 1_555 1_555
O3 Zn1 1_555 1_555
H1 O3 1_555 1_555
H2 O3 1_555 1_555
C1 O2 1_555 1_555
C2 C1 1_555 1_555
O4 H3 1_555 1_555
H4 O4 1_555 1_555
O1C C2 1_555 1_555
O2C C1 1_555 1_555
O3D Zn1 1_555 1_555
H1D O3D 1_555 1_555
H2D O3D 1_555 1_555
Zn1B O1C 1_555 1_555
O1D Zn1 1_555 1_555
O2D Zn1 1_555 1_555
O2C Zn1B 1_555 1_555

#END
