
#######################################################################
#
#                 Cambridge Crystallographic Data Centre
#                                CCDC 
#
#######################################################################
#
# If this CIF has been generated from an entry in the Cambridge 
# Structural Database, then it will include bibliographic, chemical, 
# crystal, experimental, refinement or atomic coordinate data resulting 
# from the CCDC's data processing and validation procedures.
#
#######################################################################

data_WOTQUR
_symmetry_cell_setting           triclinic
_symmetry_space_group_name_H-M   'P -1'
_symmetry_Int_Tables_number      2
_space_group_name_Hall           '-P 1'
loop_
_symmetry_equiv_pos_site_id
_symmetry_equiv_pos_as_xyz
1 x,y,z
2 -x,-y,-z
_cell_length_a                   12.493(4)
_cell_length_b                   13.295(7)
_cell_length_c                   11.207(5)
_cell_angle_alpha                105.06(5)
_cell_angle_beta                 100.79(3)
_cell_angle_gamma                111.30(3)
_cell_volume                     1590.56
loop_
_atom_site_label
_atom_site_type_symbol
_atom_site_fract_x
_atom_site_fract_y
_atom_site_fract_z
Cu1 Cu 0.0736(3) -0.0093(3) -0.1186(3)
Cu2 Cu 0.4754(3) 0.4476(3) 0.6172(3)
O1 O 0.117(1) 0.105(1) 0.047(1)
O2 O 0.162(1) -0.084(1) -0.048(1)
O3 O 0.387(1) 0.392(1) 0.442(1)
O4 O 0.536(1) 0.331(1) 0.588(1)
N1 N -0.002(2) -0.130(2) -0.296(2)
N2 N -0.007(2) 0.067(2) -0.205(2)
N3 N 0.566(2) 0.516(2) 0.807(2)
N4 N 0.398(2) 0.546(2) 0.672(2)
C1 C 0.258(2) 0.243(2) 0.241(2)
C2 C 0.212(2) 0.134(2) 0.143(2)
C3 C 0.278(2) 0.068(2) 0.156(2)
C4 C 0.367(2) 0.104(2) 0.272(2)
C5 C 0.409(2) 0.210(2) 0.374(2)
C6 C 0.354(2) 0.283(2) 0.357(2)
C7 C 0.242(2) -0.044(2) 0.060(2)
C8 C 0.298(2) -0.124(2) 0.086(2)
C9 C 0.500(2) 0.238(2) 0.490(2)
C10 C 0.558(2) 0.164(2) 0.513(2)
C11 C 0.014(2) -0.225(2) -0.333(2)
C12 C -0.039(3) -0.300(2) -0.461(3)
C13 C -0.106(3) -0.273(2) -0.548(2)
C14 C -0.119(2) -0.175(2) -0.512(3)
C15 C -0.067(2) -0.104(2) -0.382(3)
C16 C -0.070(2) 0.007(2) -0.331(3)
C17 C -0.130(3) 0.049(3) -0.405(3)
C18 C -0.135(3) 0.157(4) -0.338(4)
C19 C -0.068(3) 0.218(2) -0.212(3)
C20 C -0.010(3) 0.169(2) -0.147(2)
C21 C 0.651(2) 0.492(2) 0.866(3)
C22 C 0.717(3) 0.546(3) 0.994(2)
C23 C 0.699(2) 0.627(3) 1.060(2)
C24 C 0.604(3) 0.653(2) 1.006(2)
C25 C 0.539(2) 0.595(2) 0.869(2)
C26 C 0.444(2) 0.616(2) 0.798(2)
C27 C 0.411(2) 0.697(2) 0.847(2)
C28 C 0.321(2) 0.709(2) 0.763(3)
C29 C 0.270(2) 0.639(2) 0.637(2)
C30 C 0.316(2) 0.557(2) 0.598(2)
H1 H 0.2256 0.2951 0.2247
H2 H 0.4019 0.0519 0.2821
H3 H 0.2363 -0.1950 0.0810
H4 H 0.3366 -0.1399 0.0233
H5 H 0.3556 -0.0884 0.1709
H6 H 0.5431 0.1439 0.5853
H7 H 0.5314 0.0996 0.4389
H8 H 0.6454 0.2085 0.5353
H9 H 0.0604 -0.2394 -0.2706
H10 H -0.0308 -0.3724 -0.4885
H11 H -0.1446 -0.3285 -0.6363
H12 H -0.1641 -0.1595 -0.5783
H13 H -0.1664 0.0145 -0.4925
H14 H -0.1899 0.1795 -0.3856
H15 H -0.0631 0.2921 -0.1741
H16 H 0.6716 0.4377 0.8200
H17 H 0.7794 0.5259 1.0337
H18 H 0.7486 0.6687 1.1458
H19 H 0.5862 0.7086 1.0598
H20 H 0.4468 0.7496 0.9371
H21 H 0.2963 0.7700 0.7980
H22 H 0.2103 0.6453 0.5776
H23 H 0.2813 0.5052 0.5086
H24 H 0.0292 0.2057 -0.0619
O1A O -0.117(1) -0.105(1) -0.047(1)
O3A O 0.613(1) 0.608(1) 0.558(1)
Cu1A Cu -0.0736(3) 0.0093(3) 0.1186(3)
Cu2A Cu 0.5246(3) 0.5524(3) 0.3828(3)
Cl1 Cl 0.3388(8) 0.0509(7) -0.2354(7)
O5 O 0.289(2) -0.063(2) -0.322(2)
O6 O 0.417(2) 0.123(3) -0.273(3)
O7 O 0.247(2) 0.083(2) -0.229(2)
O8 O 0.396(2) 0.057(2) -0.110(2)
Cl2 Cl 0.044(1) 0.4873(9) 0.227(1)
O9 O -0.053(3) 0.497(3) 0.190(3)
O10 O 0.031(4) 0.387(2) 0.159(3)
O11 O 0.056(4) 0.492(3) 0.342(3)
O12 O 0.129(3) 0.576(3) 0.231(4)
loop_
_geom_bond_atom_site_label_1
_geom_bond_atom_site_label_2
_geom_bond_site_symmetry_1
_geom_bond_site_symmetry_2
Cu1 O1 1_555 1_555
Cu2 O3 1_555 1_555
Cl1 O5 1_555 1_555
Cl2 O9 1_555 1_555
O1 C2 1_555 1_555
O2 Cu1 1_555 1_555
O3 C6 1_555 1_555
O4 Cu2 1_555 1_555
O6 Cl1 1_555 1_555
O7 Cl1 1_555 1_555
O8 Cl1 1_555 1_555
O10 Cl2 1_555 1_555
O11 Cl2 1_555 1_555
O12 Cl2 1_555 1_555
N1 Cu1 1_555 1_555
N2 Cu1 1_555 1_555
N3 Cu2 1_555 1_555
N4 Cu2 1_555 1_555
C1 C2 1_555 1_555
C2 C3 1_555 1_555
C3 C4 1_555 1_555
C4 C5 1_555 1_555
C5 C6 1_555 1_555
C6 C1 1_555 1_555
C7 O2 1_555 1_555
C8 C7 1_555 1_555
C9 O4 1_555 1_555
C10 C9 1_555 1_555
C11 N1 1_555 1_555
C12 C11 1_555 1_555
C13 C12 1_555 1_555
C14 C13 1_555 1_555
C15 N1 1_555 1_555
C16 N2 1_555 1_555
C17 C16 1_555 1_555
C18 C17 1_555 1_555
C19 C18 1_555 1_555
C20 N2 1_555 1_555
C21 N3 1_555 1_555
C22 C21 1_555 1_555
C23 C22 1_555 1_555
C24 C23 1_555 1_555
C25 N3 1_555 1_555
C26 N4 1_555 1_555
C27 C26 1_555 1_555
C28 C27 1_555 1_555
C29 C28 1_555 1_555
C30 N4 1_555 1_555
H1 C1 1_555 1_555
H2 C4 1_555 1_555
H3 C8 1_555 1_555
H4 C8 1_555 1_555
H5 C8 1_555 1_555
H6 C10 1_555 1_555
H7 C10 1_555 1_555
H8 C10 1_555 1_555
H9 C11 1_555 1_555
H10 C12 1_555 1_555
H11 C13 1_555 1_555
H12 C14 1_555 1_555
H13 C17 1_555 1_555
H14 C18 1_555 1_555
H15 C19 1_555 1_555
H16 C21 1_555 1_555
H17 C22 1_555 1_555
H18 C23 1_555 1_555
H19 C24 1_555 1_555
H20 C27 1_555 1_555
H21 C28 1_555 1_555
H22 C29 1_555 1_555
H23 C30 1_555 1_555
H24 C20 1_555 1_555
O1A Cu1 1_555 1_555
O3A Cu2 1_555 1_555
Cu1A O1 1_555 1_555
Cu2A O3 1_555 1_555
C3 C7 1_555 1_555
C5 C9 1_555 1_555
C14 C15 1_555 1_555
C15 C16 1_555 1_555
C19 C20 1_555 1_555
C24 C25 1_555 1_555
C25 C26 1_555 1_555
C29 C30 1_555 1_555
O1A Cu1A 1_555 1_555
O3A Cu2A 1_555 1_555

#END
