
#######################################################################
#
#                 Cambridge Crystallographic Data Centre
#                                CCDC 
#
#######################################################################
#
# If this CIF has been generated from an entry in the Cambridge 
# Structural Database, then it will include bibliographic, chemical, 
# crystal, experimental, refinement or atomic coordinate data resulting 
# from the CCDC's data processing and validation procedures.
#
#######################################################################

data_WOTRAY
_symmetry_cell_setting           triclinic
_symmetry_space_group_name_H-M   'P -1'
_symmetry_Int_Tables_number      2
_space_group_name_Hall           '-P 1'
loop_
_symmetry_equiv_pos_site_id
_symmetry_equiv_pos_as_xyz
1 x,y,z
2 -x,-y,-z
_cell_length_a                   12.452(4)
_cell_length_b                   13.175(5)
_cell_length_c                   11.116(4)
_cell_angle_alpha                104.91(3)
_cell_angle_beta                 100.91(3)
_cell_angle_gamma                110.79(2)
_cell_volume                     1566.01
loop_
_atom_site_label
_atom_site_type_symbol
_atom_site_fract_x
_atom_site_fract_y
_atom_site_fract_z
Cu1 Cu 0.07502(6) -0.00972(6) -0.11649(7)
Cu2 Cu 0.47789(6) 0.44996(6) 0.62081(7)
O1 O 0.1227(3) 0.1072(3) 0.0481(4)
O2 O 0.1637(3) -0.0852(3) -0.0425(4)
O3 O 0.3856(3) 0.3917(3) 0.4419(3)
O4 O 0.5384(4) 0.3344(3) 0.5947(4)
N1 N 0.0036(4) -0.1297(4) -0.2947(5)
N2 N -0.0066(4) 0.0674(4) -0.2049(5)
N3 N 0.5699(4) 0.5182(4) 0.8090(4)
N4 N 0.3993(4) 0.5536(4) 0.6752(4)
C1 C 0.2583(5) 0.2471(4) 0.2443(5)
C2 C 0.2180(5) 0.1391(5) 0.1469(5)
C3 C 0.2785(5) 0.0668(5) 0.1636(5)
C4 C 0.3717(5) 0.1064(5) 0.2789(6)
C5 C 0.4091(5) 0.2123(5) 0.3799(5)
C6 C 0.3515(5) 0.2857(5) 0.3582(5)
C7 C 0.2443(5) -0.0459(5) 0.0655(6)
C8 C 0.3040(6) -0.1228(5) 0.0885(6)
C9 C 0.5025(5) 0.2424(5) 0.4990(6)
C10 C 0.5645(6) 0.1651(6) 0.5210(6)
C11 C 0.0155(6) -0.2285(6) -0.3303(6)
C12 C -0.0391(6) -0.3075(6) -0.4563(7)
C13 C -0.1060(7) -0.2823(7) -0.5460(6)
C14 C -0.1207(6) -0.1816(7) -0.5112(6)
C15 C -0.0642(5) -0.1054(6) -0.3833(6)
C16 C -0.0700(5) 0.0055(6) -0.3336(6)
C17 C -0.1330(6) 0.0490(7) -0.4065(7)
C18 C -0.1297(7) 0.1554(9) -0.3484(9)
C19 C -0.0642(7) 0.2187(7) -0.2175(8)
C20 C -0.0053(6) 0.1713(6) -0.1485(7)
C21 C 0.6562(6) 0.4935(6) 0.8680(6)
C22 C 0.7201(7) 0.5506(7) 1.0006(7)
C23 C 0.6910(7) 0.6334(7) 1.0706(6)
C24 C 0.6022(7) 0.6590(6) 1.0117(6)
C25 C 0.5433(6) 0.6012(5) 0.8795(6)
C26 C 0.4476(6) 0.6226(5) 0.8026(6)
C27 C 0.4126(7) 0.7087(7) 0.8514(6)
C28 C 0.3242(7) 0.7212(7) 0.7694(7)
C29 C 0.2742(6) 0.6497(6) 0.6409(7)
C30 C 0.3121(5) 0.5656(5) 0.5967(6)
H1 H 0.2185 0.2965 0.2317
H2 H 0.4126 0.0574 0.2917
H3 H 0.3968 -0.0743 0.0868
H4 H 0.2980 -0.1393 0.1889
H5 H 0.2525 -0.2025 0.0052
H6 H 0.4787 0.0927 0.5153
H7 H 0.5954 0.1567 0.4471
H8 H 0.6274 0.2151 0.6335
H9 H 0.0640 -0.2461 -0.2649
H10 H -0.0284 -0.3797 -0.4822
H11 H -0.1453 -0.3375 -0.6362
H12 H -0.1710 -0.1654 -0.5748
H13 H -0.1800 0.0046 -0.4982
H14 H -0.1758 0.1855 -0.3990
H15 H -0.0588 0.2960 -0.1764
H16 H 0.0394 0.2147 -0.0560
H17 H 0.6768 0.4341 0.8166
H18 H 0.7845 0.5337 1.0432
H19 H 0.7348 0.6733 1.1641
H20 H 0.5816 0.7181 1.0632
H21 H 0.4516 0.7606 0.9429
H22 H 0.3021 0.7843 0.8022
H23 H 0.2120 0.6580 0.5825
H24 H 0.2778 0.5155 0.5055
O1A O -0.1227(3) -0.1072(3) -0.0481(4)
Cu2A Cu 0.52211(6) 0.55004(6) 0.37919(7)
O3A O 0.6144(3) 0.6083(3) 0.5581(3)
Cu1A Cu -0.07502(6) 0.00972(6) 0.11649(7)
F1 F 0.2466(4) 0.0803(4) -0.2317(6)
F2 F 0.3927(6) 0.0577(6) -0.1226(6)
F3 F 0.4171(8) 0.1267(8) -0.2682(9)
F4 F 0.2947(6) -0.0559(5) -0.3251(5)
B1 B 0.3364(9) 0.0527(10) -0.2411(9)
F5 F 0.051(2) 0.395(1) 0.167(2)
F6 F -0.050(1) 0.507(1) 0.193(1)
F7 F 0.033(2) 0.498(2) 0.345(2)
F8 F 0.140(2) 0.583(1) 0.225(3)
B2 B 0.056(2) 0.495(1) 0.233(2)
F9? F 0.148(3) 0.454(3) 0.284(4)
F10? F -0.052(3) 0.396(5) 0.179(5)
F11? F 0.134(4) 0.563(6) 0.341(4)
F12? F 0.080(5) 0.533(4) 0.142(3)
loop_
_geom_bond_atom_site_label_1
_geom_bond_atom_site_label_2
_geom_bond_site_symmetry_1
_geom_bond_site_symmetry_2
Cu1 O1 1_555 1_555
Cu2 O3 1_555 1_555
F1 B1 1_555 1_555
F2 B1 1_555 1_555
F3 B1 1_555 1_555
F4 B1 1_555 1_555
F5 B2 1_555 1_555
F6 B2 1_555 1_555
F7 B2 1_555 1_555
F8 B2 1_555 1_555
O1 C2 1_555 1_555
O2 Cu1 1_555 1_555
O3 C6 1_555 1_555
O4 Cu2 1_555 1_555
N1 Cu1 1_555 1_555
N2 Cu1 1_555 1_555
N3 Cu2 1_555 1_555
N4 Cu2 1_555 1_555
C1 C2 1_555 1_555
C2 C3 1_555 1_555
C3 C4 1_555 1_555
C4 C5 1_555 1_555
C5 C6 1_555 1_555
C6 C1 1_555 1_555
C7 O2 1_555 1_555
C8 C7 1_555 1_555
C9 O4 1_555 1_555
C10 C9 1_555 1_555
C11 N1 1_555 1_555
C12 C11 1_555 1_555
C13 C12 1_555 1_555
C14 C13 1_555 1_555
C15 N1 1_555 1_555
C16 N2 1_555 1_555
C17 C16 1_555 1_555
C18 C17 1_555 1_555
C19 C18 1_555 1_555
C20 N2 1_555 1_555
C21 N3 1_555 1_555
C22 C21 1_555 1_555
C23 C22 1_555 1_555
C24 C23 1_555 1_555
C25 N3 1_555 1_555
C26 N4 1_555 1_555
C27 C26 1_555 1_555
C28 C27 1_555 1_555
C29 C28 1_555 1_555
C30 N4 1_555 1_555
H1 C1 1_555 1_555
H2 C4 1_555 1_555
H3 C8 1_555 1_555
H4 C8 1_555 1_555
H5 C8 1_555 1_555
H6 C10 1_555 1_555
H7 C10 1_555 1_555
H8 C10 1_555 1_555
H9 C11 1_555 1_555
H10 C12 1_555 1_555
H11 C13 1_555 1_555
H12 C14 1_555 1_555
H13 C17 1_555 1_555
H14 C18 1_555 1_555
H15 C19 1_555 1_555
H16 C20 1_555 1_555
H17 C21 1_555 1_555
H18 C22 1_555 1_555
H19 C23 1_555 1_555
H20 C24 1_555 1_555
H21 C27 1_555 1_555
H22 C28 1_555 1_555
H23 C29 1_555 1_555
H24 C30 1_555 1_555
O1A Cu1 1_555 1_555
Cu2A O3 1_555 1_555
O3A Cu2 1_555 1_555
Cu1A O1 1_555 1_555
C3 C7 1_555 1_555
C5 C9 1_555 1_555
C14 C15 1_555 1_555
C15 C16 1_555 1_555
C19 C20 1_555 1_555
C24 C25 1_555 1_555
C25 C26 1_555 1_555
C29 C30 1_555 1_555
O1A Cu1A 1_555 1_555
Cu2A O3A 1_555 1_555

#END
