
#######################################################################
#
#                 Cambridge Crystallographic Data Centre
#                                CCDC 
#
#######################################################################
#
# If this CIF has been generated from an entry in the Cambridge 
# Structural Database, then it will include bibliographic, chemical, 
# crystal, experimental, refinement or atomic coordinate data resulting 
# from the CCDC's data processing and validation procedures.
#
#######################################################################

data_WOTSEF
_symmetry_cell_setting           orthorhombic
_symmetry_space_group_name_H-M   'P 21 21 21'
_symmetry_Int_Tables_number      19
_space_group_name_Hall           'P 2ac 2ab'
loop_
_symmetry_equiv_pos_site_id
_symmetry_equiv_pos_as_xyz
1 x,y,z
2 1/2-x,-y,1/2+z
3 -x,1/2+y,1/2-z
4 1/2+x,1/2-y,-z
_cell_length_a                   10.4215(4)
_cell_length_b                   10.5323(4)
_cell_length_c                   22.2477(10)
_cell_angle_alpha                90
_cell_angle_beta                 90
_cell_angle_gamma                90
_cell_volume                     2441.96
loop_
_atom_site_label
_atom_site_type_symbol
_atom_site_fract_x
_atom_site_fract_y
_atom_site_fract_z
N1 N 0.6290(2) 0.4362(2) 0.65754(10)
C1 C 0.5718(3) 0.3934(3) 0.70722(12)
C2 C 0.6216(3) 0.2956(3) 0.74188(11)
Cd1 Cd 0.479411(17) 0.080513(17) 0.903263(7)
C3 C 0.2489(3) 0.1118(3) 1.01124(13)
H1 H 0.2780 0.0329 1.0241
C4 C 0.1614(3) 0.1765(3) 1.04589(14)
H2 H 0.1338 0.1409 1.0819
C5 C 0.1579(3) 0.3350(3) 0.97698(13)
H3 H 0.1255 0.4121 0.9633
C6 C 0.2492(3) 0.2723(3) 0.94224(12)
C7 C 0.3022(3) 0.3281(3) 0.88675(12)
C8 C 0.2483(4) 0.4483(4) 0.86119(18)
H4 H 0.2820 0.5197 0.8829
H5 H 0.1565 0.4472 0.8647
H6 H 0.2719 0.4551 0.8196
C9 C 0.5562(2) 0.2495(3) 0.79749(11)
C10 C 0.7365(3) 0.2407(3) 0.72331(13)
H7 H 0.7725 0.1740 0.7449
C11 C 0.7958(3) 0.2869(3) 0.67247(15)
H8 H 0.8731 0.2524 0.6595
C12 C 0.7399(3) 0.3837(3) 0.64131(14)
H9 H 0.7811 0.4145 0.6072
H10 H 0.4950 0.4308 0.7191
C13 C 0.6311(6) -0.2391(5) 0.9937(2)
H11 H 0.5925 -0.2434 1.0328
H12 H 0.7225 -0.2318 0.9978
H13 H 0.6109 -0.3147 0.9716
C14 C 0.5801(4) -0.1247(3) 0.96050(14)
N2 N 0.2931(2) 0.1595(2) 0.95971(10)
N3 N 0.1151(2) 0.2889(2) 1.02908(10)
N4 N 0.3990(2) 0.2693(2) 0.86398(9)
N5 N 0.4550(2) 0.3183(2) 0.81351(10)
O1 O 0.60245(19) 0.15310(19) 0.82352(9)
O2 O 0.6364(2) -0.0872(2) 0.91424(10)
O3 O 0.4845(2) -0.0690(2) 0.98151(9)
N1B N 0.3710(2) -0.0638(2) 0.84246(10)
Cd1B Cd 0.520589(17) 0.580513(17) 0.596737(7)
Cd1C Cd -0.020589(17) 0.419487(17) 1.096737(7)
N3C N 0.6151(2) 0.2111(2) 0.97092(10)
C15 C 0.8780(3) 0.0884(5) 0.87745(17)
H14 H 0.7843 0.0877 0.8810
Cl1 Cl 0.94263(13) 0.03738(17) 0.94528(6)
Cl2 Cl 0.92171(13) -0.01349(12) 0.81879(6)
Cl3 Cl 0.92675(14) 0.24334(13) 0.86164(7)
C16 C 0.2599(4) 0.8177(4) 0.16924(17)
H15 H 0.2339 0.7303 0.1602
Cl4 Cl 0.32655(18) 0.81988(17) 0.24117(6)
Cl5 Cl 0.37276(11) 0.86462(13) 0.11562(6)
Cl6 Cl 0.12367(11) 0.91405(13) 0.16595(6)
loop_
_geom_bond_atom_site_label_1
_geom_bond_atom_site_label_2
_geom_bond_site_symmetry_1
_geom_bond_site_symmetry_2
N1 C1 1_555 1_555
C1 C2 1_555 1_555
C2 C9 1_555 1_555
Cd1 N2 1_555 1_555
C3 H1 1_555 1_555
C4 C3 1_555 1_555
H2 C4 1_555 1_555
C5 H3 1_555 1_555
C6 C5 1_555 1_555
C7 C6 1_555 1_555
C8 C7 1_555 1_555
H4 C8 1_555 1_555
H5 C8 1_555 1_555
H6 C8 1_555 1_555
C9 N5 1_555 1_555
C10 C2 1_555 1_555
H7 C10 1_555 1_555
C11 C10 1_555 1_555
H8 C11 1_555 1_555
C12 N1 1_555 1_555
H9 C12 1_555 1_555
H10 C1 1_555 1_555
C13 H11 1_555 1_555
H12 C13 1_555 1_555
H13 C13 1_555 1_555
C14 C13 1_555 1_555
N2 C3 1_555 1_555
N3 C4 1_555 1_555
N4 Cd1 1_555 1_555
N5 N4 1_555 1_555
O1 Cd1 1_555 1_555
O2 Cd1 1_555 1_555
O3 Cd1 1_555 1_555
C15 H14 1_555 1_555
Cl1 C15 1_555 1_555
Cl2 C15 1_555 1_555
Cl3 C15 1_555 1_555
C16 H15 1_555 1_555
Cl4 C16 1_555 1_555
Cl5 C16 1_555 1_555
Cl6 C16 1_555 1_555
N1B Cd1 1_555 1_555
Cd1B N1 1_555 1_555
Cd1C N3 1_555 1_555
N3C Cd1 1_555 1_555
C5 N3 1_555 1_555
C6 N2 1_555 1_555
C7 N4 1_555 1_555
C9 O1 1_555 1_555
C11 C12 1_555 1_555
C14 O2 1_555 1_555
C14 O3 1_555 1_555

#END
