
#######################################################################
#
#                 Cambridge Crystallographic Data Centre
#                                CCDC 
#
#######################################################################
#
# If this CIF has been generated from an entry in the Cambridge 
# Structural Database, then it will include bibliographic, chemical, 
# crystal, experimental, refinement or atomic coordinate data resulting 
# from the CCDC's data processing and validation procedures.
#
#######################################################################

data_WOTXIO
_symmetry_cell_setting           monoclinic
_symmetry_space_group_name_H-M   'P 21/n'
_symmetry_Int_Tables_number      14
_space_group_name_Hall           '-P 2yn'
loop_
_symmetry_equiv_pos_site_id
_symmetry_equiv_pos_as_xyz
1 x,y,z
2 1/2-x,1/2+y,1/2-z
3 -x,-y,-z
4 1/2+x,1/2-y,1/2+z
_cell_length_a                   9.4328(11)
_cell_length_b                   16.3873(17)
_cell_length_c                   11.3981(12)
_cell_angle_alpha                90
_cell_angle_beta                 99.731(2)
_cell_angle_gamma                90
_cell_volume                     1736.55
loop_
_atom_site_label
_atom_site_type_symbol
_atom_site_fract_x
_atom_site_fract_y
_atom_site_fract_z
Cd1 Cd 1.05519(4) 0.08002(2) 0.40850(3)
V1 V 0.67079(8) 0.02639(4) 0.36662(7)
V2 V 0.55969(8) -0.13586(4) 0.48862(7)
N1 N 0.8944(4) 0.2693(2) 0.6173(4)
N2 N 1.0079(4) 0.1721(2) 0.5386(4)
N3 N 1.1874(4) -0.1084(2) 0.1847(4)
N4 N 1.0866(4) -0.0094(2) 0.2705(3)
O1 O 0.5710(3) -0.06652(19) 0.3675(3)
O2 O 0.8397(3) 0.01302(17) 0.4370(3)
O3 O 0.6745(4) 0.0548(2) 0.2315(3)
O4 O 0.5883(4) 0.1055(2) 0.4401(3)
O5 O 0.5334(4) -0.22796(19) 0.4357(3)
O6 O 1.2873(3) 0.1315(2) 0.4180(3)
O7 O 0.9147(4) 0.1632(2) 0.2512(3)
H1 H 0.8462 0.1363 0.2109
H2 H 0.9669 0.1840 0.2051
C1 C 0.8889(6) 0.2147(3) 0.5302(5)
H3 H 0.8098 0.2076 0.4703
C2 C 1.0943(6) 0.2014(3) 0.6385(5)
H4 H 1.1864 0.1825 0.6682
C3 C 1.0262(6) 0.2613(3) 0.6874(5)
H5 H 1.0618 0.2913 0.7553
C4 C 0.7844(6) 0.3315(3) 0.6285(5)
H6 H 0.7853 0.3430 0.7122
H7 H 0.6901 0.3102 0.5955
C5 C 0.8094(7) 0.4083(4) 0.5663(6)
H8 H 0.9034 0.4289 0.5976
H9 H 0.7383 0.4479 0.5785
H10 H 0.8026 0.3978 0.4827
C6 C 1.2014(6) -0.0562(3) 0.2747(5)
H11 H 1.2824 -0.0529 0.3337
C7 C 0.9964(6) -0.0334(3) 0.1706(5)
H12 H 0.9059 -0.0113 0.1436
C8 C 1.0572(6) -0.0937(4) 0.1167(5)
H13 H 1.0179 -0.1203 0.0466
C9 C 1.2957(6) -0.1675(3) 0.1594(5)
H14 H 1.2473 -0.2143 0.1185
H15 H 1.3511 -0.1865 0.2339
C10 C 1.3940(8) -0.1318(4) 0.0855(7)
H16 H 1.3416 -0.1198 0.0077
H17 H 1.4695 -0.1699 0.0788
H18 H 1.4350 -0.0824 0.1219
Cd1B Cd 0.94481(4) -0.08002(2) 0.59150(3)
V2B V 0.44031(8) 0.13586(4) 0.51138(7)
V2B_2 V 1.44031(8) 0.13586(4) 0.51138(7)
O2B O 1.1603(3) -0.01302(17) 0.5630(3)
O4B O 0.4117(4) -0.1055(2) 0.5599(3)
O6B O 0.7127(3) -0.1315(2) 0.5820(3)
loop_
_geom_bond_atom_site_label_1
_geom_bond_atom_site_label_2
_geom_bond_site_symmetry_1
_geom_bond_site_symmetry_2
Cd1 N2 1_555 1_555
V1 O1 1_555 1_555
V2 O1 1_555 1_555
N1 C1 1_555 1_555
N2 C1 1_555 1_555
N3 C6 1_555 1_555
N4 Cd1 1_555 1_555
O2 Cd1 1_555 1_555
O3 V1 1_555 1_555
O4 V1 1_555 1_555
O5 V2 1_555 1_555
O6 Cd1 1_555 1_555
O7 Cd1 1_555 1_555
H1 O7 1_555 1_555
H2 O7 1_555 1_555
C1 H3 1_555 1_555
C2 N2 1_555 1_555
H4 C2 1_555 1_555
C3 N1 1_555 1_555
H5 C3 1_555 1_555
C4 N1 1_555 1_555
H6 C4 1_555 1_555
H7 C4 1_555 1_555
C5 C4 1_555 1_555
H8 C5 1_555 1_555
H9 C5 1_555 1_555
H10 C5 1_555 1_555
C6 N4 1_555 1_555
H11 C6 1_555 1_555
C7 N4 1_555 1_555
H12 C7 1_555 1_555
C8 N3 1_555 1_555
H13 C8 1_555 1_555
C9 N3 1_555 1_555
H14 C9 1_555 1_555
H15 C9 1_555 1_555
C10 C9 1_555 1_555
H16 C10 1_555 1_555
H17 C10 1_555 1_555
H18 C10 1_555 1_555
Cd1B O2 1_555 1_555
V2B O4 1_555 1_555
V2B_2 O6 1_555 1_555
O2B Cd1 1_555 1_555
O4B V2 1_555 1_555
O6B V2 1_555 1_555
V1 O2 1_555 1_555
C2 C3 1_555 1_555
C7 C8 1_555 1_555
Cd1B O2B 1_555 1_555
Cd1B O6B 1_555 1_555

#END
