
#######################################################################
#
#                 Cambridge Crystallographic Data Centre
#                                CCDC 
#
#######################################################################
#
# If this CIF has been generated from an entry in the Cambridge 
# Structural Database, then it will include bibliographic, chemical, 
# crystal, experimental, refinement or atomic coordinate data resulting 
# from the CCDC's data processing and validation procedures.
#
#######################################################################

data_WOTZEM
_symmetry_cell_setting           monoclinic
_symmetry_space_group_name_H-M   'C 2/m'
_symmetry_Int_Tables_number      12
_space_group_name_Hall           '-C 2y'
loop_
_symmetry_equiv_pos_site_id
_symmetry_equiv_pos_as_xyz
1 x,y,z
2 -x,y,-z
3 1/2+x,1/2+y,z
4 1/2-x,1/2+y,-z
5 -x,-y,-z
6 x,-y,z
7 1/2-x,1/2-y,-z
8 1/2+x,1/2-y,z
_cell_length_a                   14.4270(3)
_cell_length_b                   15.6350(3)
_cell_length_c                   6.44200(10)
_cell_angle_alpha                90
_cell_angle_beta                 115.789(2)
_cell_angle_gamma                90
_cell_volume                     1308.37
loop_
_atom_site_label
_atom_site_type_symbol
_atom_site_fract_x
_atom_site_fract_y
_atom_site_fract_z
Mn1 Mn 1.0000 0.19733(2) 0.0000
O1 O 0.93763(11) 0.28058(9) 0.1567(3)
O2 O 0.82353(9) 0.27461(7) 0.3003(2)
O3 O 0.85749(10) 0.18562(9) -0.3125(2)
H1 H 0.8528(18) 0.2172(14) -0.415(3)
H2 H 0.8046(14) 0.1948(13) -0.303(4)
N1 N 0.94283(9) 0.07584(7) 0.1191(2)
C1 C 0.87734(12) 0.31443(9) 0.2247(3)
C2 C 0.87117(11) 0.41076(9) 0.2154(2)
C3 C 0.89433(12) 0.45565(10) 0.0583(3)
H3 H 0.9100 0.4261 -0.0477
C4 C 0.84600(12) 0.45565(10) 0.3696(3)
H4 H 0.8290 0.4261 0.4736
C5 C 0.88655(12) 0.07539(9) 0.2396(3)
H5 H 0.8665 0.1271 0.2789
C6 C 0.96834(14) 0.0000 0.0666(3)
C7 C 0.85806(17) 0.0000 0.3059(4)
H6 H 0.8207 0.0000 0.3927
O1E O 0.93763(11) 0.71942(9) 0.1567(3)
O2E O 0.82353(9) 0.72539(7) 0.3003(2)
C1E C 0.87734(12) 0.68557(9) 0.2247(3)
C2E C 0.87117(11) 0.58924(9) 0.2154(2)
C3E C 0.89433(12) 0.54435(10) 0.0583(3)
H3E H 0.9100 0.5739 -0.0477
C4E C 0.84600(12) 0.54435(10) 0.3696(3)
H4E H 0.8290 0.5739 0.4736
N1A N 1.05717(9) 0.07584(7) -0.1191(2)
C5A C 1.11345(12) 0.07539(9) -0.2396(3)
H5A H 1.1335 0.1271 -0.2789
C6A C 1.03166(14) 0.0000 -0.0666(3)
C7A C 1.14194(17) 0.0000 -0.3059(4)
H6A H 1.1793 0.0000 -0.3927
N1D N 1.05717(9) -0.07584(7) -0.1191(2)
C5D C 1.11345(12) -0.07539(9) -0.2396(3)
H5D H 1.1335 -0.1271 -0.2789
N1E N 0.94283(9) -0.07584(7) 0.1191(2)
C5E C 0.88655(12) -0.07539(9) 0.2396(3)
H5E H 0.8665 -0.1271 0.2789
O1A O 1.06237(11) 0.28058(9) -0.1567(3)
O2A O 1.17647(9) 0.27461(7) -0.3003(2)
O3A O 1.14251(10) 0.18562(9) 0.3125(2)
H1A H 1.1472(18) 0.2172(14) 0.415(3)
H2A H 1.1954(14) 0.1948(13) 0.303(4)
C1A C 1.12266(12) 0.31443(9) -0.2247(3)
C2A C 1.12883(11) 0.41076(9) -0.2154(2)
C3A C 1.10567(12) 0.45565(10) -0.0583(3)
H3A H 1.0900 0.4261 0.0477
C4A C 1.15400(12) 0.45565(10) -0.3696(3)
H4A H 1.1710 0.4261 -0.4736
O1D O 1.06237(11) 0.71942(9) -0.1567(3)
O2D O 1.17647(9) 0.72539(7) -0.3003(2)
C1D C 1.12266(12) 0.68557(9) -0.2247(3)
C2D C 1.12883(11) 0.58924(9) -0.2154(2)
C3D C 1.10567(12) 0.54435(10) -0.0583(3)
H3D H 1.0900 0.5739 0.0477
C4D C 1.15400(12) 0.54435(10) -0.3696(3)
H4D H 1.1710 0.5739 -0.4736
Mn1D Mn 1.0000 -0.19733(2) 0.0000
O3D O 1.14251(10) -0.18562(9) 0.3125(2)
H1D H 1.1472(18) -0.2172(14) 0.415(3)
H2D H 1.1954(14) -0.1948(13) 0.303(4)
O3E O 0.85749(10) -0.18562(9) -0.3125(2)
H1E H 0.8528(18) -0.2172(14) -0.415(3)
H2E H 0.8046(14) -0.1948(13) -0.303(4)
Mn1D_2 Mn 1.0000 0.80267(2) 0.0000
O1D_2 O 1.06237(11) -0.28058(9) -0.1567(3)
O1E_2 O 0.93763(11) -0.28058(9) 0.1567(3)
loop_
_geom_bond_atom_site_label_1
_geom_bond_atom_site_label_2
_geom_bond_site_symmetry_1
_geom_bond_site_symmetry_2
Mn1 O1 1_555 1_555
O1 C1 1_555 1_555
O2 C1 1_555 1_555
O3 Mn1 1_555 1_555
H1 O3 1_555 1_555
H2 O3 1_555 1_555
N1 Mn1 1_555 1_555
C1 C2 1_555 1_555
C2 C3 1_555 1_555
C3 H3 1_555 1_555
C4 C2 1_555 1_555
H4 C4 1_555 1_555
C5 N1 1_555 1_555
H5 C5 1_555 1_555
C6 N1 1_555 1_555
C7 C5 1_555 1_555
H6 C7 1_555 1_555
O1E C1E 1_555 1_555
O2E C1E 1_555 1_555
C1E C2E 1_555 1_555
C2E C3E 1_555 1_555
C3E C3 1_555 1_555
H3E C3E 1_555 1_555
C4E C4 1_555 1_555
H4E C4E 1_555 1_555
N1A Mn1 1_555 1_555
C5A N1A 1_555 1_555
H5A C5A 1_555 1_555
C6A C6 1_555 1_555
C7A C5A 1_555 1_555
H6A C7A 1_555 1_555
N1D C6A 1_555 1_555
C5D C7A 1_555 1_555
H5D C5D 1_555 1_555
N1E C6 1_555 1_555
C5E C7 1_555 1_555
H5E C5E 1_555 1_555
O1A Mn1 1_555 1_555
O2A C1A 1_555 1_555
O3A Mn1 1_555 1_555
H1A O3A 1_555 1_555
H2A O3A 1_555 1_555
C1A O1A 1_555 1_555
C2A C1A 1_555 1_555
C3A C2A 1_555 1_555
H3A C3A 1_555 1_555
C4A C2A 1_555 1_555
H4A C4A 1_555 1_555
O1D C1D 1_555 1_555
O2D C1D 1_555 1_555
C1D C2D 1_555 1_555
C2D C3D 1_555 1_555
C3D C3A 1_555 1_555
H3D C3D 1_555 1_555
C4D C4A 1_555 1_555
H4D C4D 1_555 1_555
Mn1D N1D 1_555 1_555
O3D Mn1D 1_555 1_555
H1D O3D 1_555 1_555
H2D O3D 1_555 1_555
O3E Mn1D 1_555 1_555
H1E O3E 1_555 1_555
H2E O3E 1_555 1_555
Mn1D_2 O1E 1_555 1_555
O1D_2 Mn1D 1_555 1_555
O1E_2 Mn1D 1_555 1_555
C2E C4E 1_555 1_555
N1A C6A 1_555 1_555
N1D C5D 1_555 1_555
N1E C5E 1_555 1_555
N1E Mn1D 1_555 1_555
O1D Mn1D_2 1_555 1_555
C2D C4D 1_555 1_555

#END
