
#######################################################################
#
#                 Cambridge Crystallographic Data Centre
#                                CCDC 
#
#######################################################################
#
# If this CIF has been generated from an entry in the Cambridge 
# Structural Database, then it will include bibliographic, chemical, 
# crystal, experimental, refinement or atomic coordinate data resulting 
# from the CCDC's data processing and validation procedures.
#
#######################################################################

data_WOTZIQ
_symmetry_cell_setting           triclinic
_symmetry_space_group_name_H-M   'P -1'
_symmetry_Int_Tables_number      2
_space_group_name_Hall           '-P 1'
loop_
_symmetry_equiv_pos_site_id
_symmetry_equiv_pos_as_xyz
1 x,y,z
2 -x,-y,-z
_cell_length_a                   6.7148(2)
_cell_length_b                   10.7900(3)
_cell_length_c                   11.7620(5)
_cell_angle_alpha                69.565(3)
_cell_angle_beta                 75.167(3)
_cell_angle_gamma                81.404(3)
_cell_volume                     770.248
loop_
_atom_site_label
_atom_site_type_symbol
_atom_site_fract_x
_atom_site_fract_y
_atom_site_fract_z
Cu1 Cu 0.0000 0.0000 0.5000
Cu2 Cu -0.06720(5) 0.30070(3) 0.41875(3)
O1 O 0.0838(3) 0.05372(15) 0.31075(13)
O2 O 0.0370(3) 0.27565(15) 0.25681(13)
O3 O 0.3524(3) 0.33471(17) -0.36946(15)
O4 O 0.4082(3) 0.11759(17) -0.32075(15)
O5 O 0.2310(3) 0.16542(18) 0.47498(16)
H1 H 0.327(3) 0.167(3) 0.413(2)
H2 H 0.273(5) 0.156(3) 0.537(2)
O6 O -0.3930(3) 0.41295(18) 0.38533(18)
H3 H -0.391(5) 0.4912(19) 0.379(3)
H4 H -0.473(4) 0.377(3) 0.451(2)
O7 O -0.2095(2) 0.14152(14) 0.48389(14)
H5 H -0.304(3) 0.132(3) 0.539(2)
N1 N 0.1136(3) 0.65456(18) 0.41706(17)
N2 N 0.0682(3) 0.47817(18) 0.35082(17)
C1 C 0.0862(3) 0.1677(2) 0.23341(19)
C2 C 0.1563(3) 0.1811(2) 0.09742(19)
C3 C 0.1813(4) 0.3044(2) 0.0080(2)
H6 H 0.1538 0.3798 0.0320
C4 C 0.2467(4) 0.3172(2) -0.1164(2)
H7 H 0.2648 0.4010 -0.1752
C5 C 0.2856(3) 0.2065(2) -0.15496(19)
C6 C 0.2580(6) 0.0838(3) -0.0660(2)
H8 H 0.2829 0.0084 -0.0900
C7 C 0.1935(7) 0.0712(3) 0.0589(2)
H9 H 0.1750 -0.0126 0.1177
C8 C 0.3532(3) 0.2209(2) -0.29157(19)
C9 C 0.0503(3) 0.5366(2) 0.43620(19)
C10 C 0.1958(4) 0.7240(2) 0.2994(2)
H10 H 0.2371 0.8086 0.2813
C11 C 0.2204(4) 0.6720(2) 0.2043(2)
H11 H 0.2782 0.7203 0.1226
C12 C 0.1570(4) 0.5466(2) 0.2339(2)
H12 H 0.1762 0.5088 0.1716
N1A N -0.1136(3) 0.34544(18) 0.58294(17)
N2A N -0.0682(3) 0.52183(18) 0.64918(17)
C9A C -0.0503(3) 0.4634(2) 0.56380(19)
C10A C -0.1958(4) 0.2760(2) 0.7006(2)
H10A H -0.2371 0.1914 0.7187
C11A C -0.2204(4) 0.3280(2) 0.7957(2)
H11A H -0.2782 0.2797 0.8774
C12A C -0.1570(4) 0.4534(2) 0.7661(2)
H12A H -0.1762 0.4912 0.8284
Cu2A Cu 0.06720(5) -0.30070(3) 0.58125(3)
O1A O -0.0838(3) -0.05372(15) 0.68925(13)
O2A O -0.0370(3) -0.27565(15) 0.74319(13)
O3A O -0.3524(3) -0.33471(17) 1.36946(15)
O4A O -0.4082(3) -0.11759(17) 1.32075(15)
O5A O -0.2310(3) -0.16542(18) 0.52502(16)
H1A H -0.327(3) -0.167(3) 0.587(2)
H2A H -0.273(5) -0.156(3) 0.463(2)
O6A O 0.3930(3) -0.41295(18) 0.61467(18)
H3A H 0.391(5) -0.4912(19) 0.621(3)
H4A H 0.473(4) -0.377(3) 0.549(2)
O7A O 0.2095(2) -0.14152(14) 0.51611(14)
H5A H 0.304(3) -0.132(3) 0.461(2)
C1A C -0.0862(3) -0.1677(2) 0.76659(19)
C2A C -0.1563(3) -0.1811(2) 0.90258(19)
C3A C -0.1813(4) -0.3044(2) 0.9920(2)
H6A H -0.1538 -0.3798 0.9680
C4A C -0.2467(4) -0.3172(2) 1.1164(2)
H7A H -0.2648 -0.4010 1.1752
C5A C -0.2856(3) -0.2065(2) 1.15496(19)
C6A C -0.2580(6) -0.0838(3) 1.0660(2)
H8A H -0.2829 -0.0084 1.0900
C7A C -0.1935(7) -0.0712(3) 0.9411(2)
H9A H -0.1750 0.0126 0.8823
C8A C -0.3532(3) -0.2209(2) 1.29157(19)
Cu2A_2 Cu 0.06720(5) 0.69930(3) 0.58125(3)
N1_2 N 0.1136(3) -0.34544(18) 0.41706(17)
N2A_2 N -0.0682(3) -0.47817(18) 0.64918(17)
O8 O 0.5818(3) 0.1520(2) 0.2934(2)
H13 H 0.588(6) 0.074(2) 0.297(4)
H14 H 0.655(5) 0.151(4) 0.341(3)
O9 O 0.6362(6) 0.3844(4) 0.0706(3)
H15 H 0.5926 0.3230 0.1357
H16 H 0.7713 0.3779 0.0530
loop_
_geom_bond_atom_site_label_1
_geom_bond_atom_site_label_2
_geom_bond_site_symmetry_1
_geom_bond_site_symmetry_2
Cu1 O1 1_555 1_555
Cu2 O2 1_555 1_555
O1 C1 1_555 1_555
O2 C1 1_555 1_555
O3 C8 1_555 1_555
O4 C8 1_555 1_555
O5 Cu1 1_555 1_555
H1 O5 1_555 1_555
H2 O5 1_555 1_555
O6 Cu2 1_555 1_555
H3 O6 1_555 1_555
H4 O6 1_555 1_555
O7 Cu1 1_555 1_555
H5 O7 1_555 1_555
N1 C9 1_555 1_555
N2 Cu2 1_555 1_555
C1 C2 1_555 1_555
C2 C3 1_555 1_555
C3 H6 1_555 1_555
C4 C3 1_555 1_555
H7 C4 1_555 1_555
C5 C4 1_555 1_555
C6 C5 1_555 1_555
H8 C6 1_555 1_555
C7 C2 1_555 1_555
H9 C7 1_555 1_555
C8 C5 1_555 1_555
C9 N2 1_555 1_555
C10 N1 1_555 1_555
H10 C10 1_555 1_555
C11 C10 1_555 1_555
H11 C11 1_555 1_555
C12 N2 1_555 1_555
H12 C12 1_555 1_555
O8 H13 1_555 1_555
H14 O8 1_555 1_555
O9 H15 1_555 1_555
H16 O9 1_555 1_555
N1A Cu2 1_555 1_555
N2A C9A 1_555 1_555
C9A C9 1_555 1_555
C10A N1A 1_555 1_555
H10A C10A 1_555 1_555
C11A C10A 1_555 1_555
H11A C11A 1_555 1_555
C12A N2A 1_555 1_555
H12A C12A 1_555 1_555
Cu2A O2A 1_555 1_555
O1A Cu1 1_555 1_555
O2A C1A 1_555 1_555
O3A C8A 1_555 1_555
O4A C8A 1_555 1_555
O5A Cu1 1_555 1_555
H1A O5A 1_555 1_555
H2A O5A 1_555 1_555
O6A Cu2A 1_555 1_555
H3A O6A 1_555 1_555
H4A O6A 1_555 1_555
O7A Cu1 1_555 1_555
H5A O7A 1_555 1_555
C1A O1A 1_555 1_555
C2A C1A 1_555 1_555
C3A C2A 1_555 1_555
H6A C3A 1_555 1_555
C4A C3A 1_555 1_555
H7A C4A 1_555 1_555
C5A C4A 1_555 1_555
C6A C5A 1_555 1_555
H8A C6A 1_555 1_555
C7A C2A 1_555 1_555
H9A C7A 1_555 1_555
C8A C5A 1_555 1_555
Cu2A_2 N1 1_555 1_555
N1_2 Cu2A 1_555 1_555
N2A_2 Cu2A 1_555 1_555
Cu2 O5 1_555 1_555
Cu2 O7 1_555 1_555
C6 C7 1_555 1_555
C11 C12 1_555 1_555
N1A C9A 1_555 1_555
N2A Cu2A_2 1_555 1_555
C11A C12A 1_555 1_555
Cu2A O5A 1_555 1_555
Cu2A O7A 1_555 1_555
C6A C7A 1_555 1_555

#END
