
#######################################################################
#
#                 Cambridge Crystallographic Data Centre
#                                CCDC 
#
#######################################################################
#
# If this CIF has been generated from an entry in the Cambridge 
# Structural Database, then it will include bibliographic, chemical, 
# crystal, experimental, refinement or atomic coordinate data resulting 
# from the CCDC's data processing and validation procedures.
#
#######################################################################

data_WOVCUH
_symmetry_cell_setting           monoclinic
_symmetry_space_group_name_H-M   'P 21/n'
_symmetry_Int_Tables_number      14
_space_group_name_Hall           '-P 2yn'
loop_
_symmetry_equiv_pos_site_id
_symmetry_equiv_pos_as_xyz
1 x,y,z
2 1/2-x,1/2+y,1/2-z
3 -x,-y,-z
4 1/2+x,1/2-y,1/2+z
_cell_length_a                   14.5660(18)
_cell_length_b                   14.658(3)
_cell_length_c                   20.520(6)
_cell_angle_alpha                90
_cell_angle_beta                 107.776(6)
_cell_angle_gamma                90
_cell_volume                     4172.02
loop_
_atom_site_label
_atom_site_type_symbol
_atom_site_fract_x
_atom_site_fract_y
_atom_site_fract_z
Mn1 Mn -0.02214(3) 0.26165(3) 0.54713(3)
C1 C 0.5657(5) 0.8441(3) 0.8390(3)
C2 C 0.6325(3) 0.8829(3) 0.8019(2)
C3 C 0.6995(4) 0.9490(3) 0.8341(2)
H1 H 0.7076 0.9635 0.8797
C4 C 0.7541(3) 0.9936(3) 0.7995(2)
H2 H 0.7982 1.0380 0.8214
C5 C 0.7427(3) 0.9717(3) 0.7329(2)
H3 H 0.7785 1.0021 0.7091
C6 C 0.6783(3) 0.9049(3) 0.7008(2)
H4 H 0.6721 0.8900 0.6557
C7 C 0.6223(3) 0.8593(2) 0.7344(2)
C8 C 0.5573(3) 0.7852(3) 0.6983(2)
C9 C 0.4894(3) 0.8004(3) 0.6356(2)
H5 H 0.4853 0.8575 0.6152
C10 C 0.4266(3) 0.7307(4) 0.6025(3)
H6 H 0.3800 0.7423 0.5609
C11 C 0.4335(4) 0.6453(3) 0.6313(3)
C12 C 0.5052(4) 0.6281(3) 0.6924(3)
H7 H 0.5129 0.5696 0.7108
C13 C 0.5647(3) 0.6971(3) 0.7258(3)
H8 H 0.6110 0.6851 0.7675
C14 C 0.3625(4) 0.5712(4) 0.5973(4)
H9 H 0.3518 0.5308 0.6317
H10 H 0.3013 0.5982 0.5718
C15 C 0.3513(3) 0.4456(3) 0.5209(2)
C16 C 0.3919(3) 0.3986(3) 0.4790(2)
H11 H 0.4490 0.4191 0.4726
C17 C 0.3480(3) 0.3215(3) 0.4465(2)
H12 H 0.3743 0.2908 0.4167
C18 C 0.2653(3) 0.2886(3) 0.4574(2)
H13 H 0.2369 0.2352 0.4360
C19 C 0.2249(2) 0.3347(2) 0.49982(17)
C20 C 0.2669(2) 0.4144(2) 0.53143(19)
H14 H 0.2389 0.4468 0.5594
C21 C 0.1361(3) 0.2987(3) 0.51397(18)
C22 C 0.0814(3) 0.1146(3) 0.66386(19)
H15 H 0.1154 0.1655 0.6855
C23 C 0.1054(3) 0.0303(3) 0.6940(2)
H16 H 0.1552 0.0243 0.7349
C24 C 0.0541(3) -0.0443(3) 0.66254(19)
H17 H 0.0692 -0.1019 0.6819
C25 C -0.0200(3) -0.0340(3) 0.60200(19)
H18 H -0.0559 -0.0840 0.5804
C26 C -0.0392(2) 0.0529(2) 0.57443(16)
C27 C -0.1147(2) 0.0706(2) 0.50798(17)
C28 C -0.1802(2) 0.0056(2) 0.47321(18)
H19 H -0.1795 -0.0523 0.4919
C29 C -0.2475(2) 0.0265(2) 0.41006(17)
C30 C -0.2428(2) 0.1139(2) 0.38382(18)
H20 H -0.2850 0.1304 0.3415
C31 C -0.1751(2) 0.1755(2) 0.42105(16)
C32 C -0.1596(2) 0.2674(2) 0.39512(17)
C33 C -0.1938(3) 0.2915(3) 0.32722(19)
H21 H -0.2323 0.2515 0.2951
C34 C -0.1702(3) 0.3761(3) 0.3075(2)
H22 H -0.1918 0.3932 0.2617
C35 C -0.1150(3) 0.4346(3) 0.3553(2)
H23 H -0.0990 0.4920 0.3429
C36 C -0.0837(3) 0.4062(3) 0.4226(2)
H24 H -0.0467 0.4462 0.4554
C37 C -0.3205(2) -0.0418(2) 0.37418(19)
C38 C -0.3071(3) -0.1343(3) 0.3889(2)
H25 H -0.2489 -0.1537 0.4191
C39 C -0.3761(3) -0.1973(3) 0.3605(2)
H26 H -0.3634 -0.2584 0.3717
C40 C -0.4655(3) -0.1731(3) 0.3151(2)
C41 C -0.4774(3) -0.0813(3) 0.2975(2)
H27 H -0.5347 -0.0626 0.2658
C42 C -0.4073(2) -0.0171(2) 0.32536(19)
H28 H -0.4178 0.0434 0.3115
C43 C -0.5113(4) -0.3405(3) 0.3050(3)
H29 H -0.5630 -0.3823 0.2851
H30 H -0.4917 -0.3462 0.3539
H31 H -0.4577 -0.3543 0.2887
C44 C -0.5454(3) -0.2427(3) 0.2847(3)
C45 C -0.6309(4) -0.2208(5) 0.3087(5)
H32 H -0.6813 -0.2642 0.2898
H33 H -0.6537 -0.1605 0.2938
H34 H -0.6120 -0.2236 0.3577
C46 C -0.5750(5) -0.2377(4) 0.2065(3)
H35 H -0.6251 -0.2814 0.1874
H36 H -0.5203 -0.2510 0.1914
H37 H -0.5983 -0.1775 0.1918
N1 N -0.1040(2) 0.32426(19) 0.44303(15)
N2 N -0.11347(19) 0.15456(18) 0.48261(14)
N3 N 0.0112(2) 0.1262(2) 0.60478(14)
O1 O 0.0993(2) 0.22560(19) 0.48815(16)
O2 O 0.10252(18) 0.3435(2) 0.55457(14)
O3 O 0.4011(2) 0.5215(2) 0.55248(17)
O4 O 0.4787(3) 0.8365(3) 0.8098(3)
O5 O 0.6068(4) 0.8221(3) 0.9000(2)
Mn1A Mn 0.52214(3) 0.76165(3) 0.95287(3)
O5A O -0.1068(4) 0.3221(3) 0.6000(2)
O6 O 0.5000 1.0000 0.5000
O7 O 0.4561(19) 0.9313(19) 0.4644(14)
O8 O 0.2884(3) 0.8582(3) 0.7965(2)
H38 H 0.342(4) 0.850(6) 0.784(4)
H39 H 0.297(6) 0.869(6) 0.8401(15)
loop_
_geom_bond_atom_site_label_1
_geom_bond_atom_site_label_2
_geom_bond_site_symmetry_1
_geom_bond_site_symmetry_2
Mn1 N1 1_555 1_555
C1 C2 1_555 1_555
C2 C3 1_555 1_555
C3 H1 1_555 1_555
C4 C3 1_555 1_555
H2 C4 1_555 1_555
C5 C4 1_555 1_555
H3 C5 1_555 1_555
C6 C5 1_555 1_555
H4 C6 1_555 1_555
C7 C2 1_555 1_555
C8 C7 1_555 1_555
C9 C8 1_555 1_555
H5 C9 1_555 1_555
C10 C9 1_555 1_555
H6 C10 1_555 1_555
C11 C10 1_555 1_555
C12 C11 1_555 1_555
H7 C12 1_555 1_555
C13 C8 1_555 1_555
H8 C13 1_555 1_555
C14 C11 1_555 1_555
H9 C14 1_555 1_555
H10 C14 1_555 1_555
C15 C16 1_555 1_555
C16 H11 1_555 1_555
C17 C16 1_555 1_555
H12 C17 1_555 1_555
C18 C17 1_555 1_555
H13 C18 1_555 1_555
C19 C18 1_555 1_555
C20 C15 1_555 1_555
H14 C20 1_555 1_555
C21 C19 1_555 1_555
C22 H15 1_555 1_555
C23 C22 1_555 1_555
H16 C23 1_555 1_555
C24 C23 1_555 1_555
H17 C24 1_555 1_555
C25 C24 1_555 1_555
H18 C25 1_555 1_555
C26 C25 1_555 1_555
C27 C26 1_555 1_555
C28 C27 1_555 1_555
H19 C28 1_555 1_555
C29 C28 1_555 1_555
C30 C29 1_555 1_555
H20 C30 1_555 1_555
C31 C30 1_555 1_555
C32 C31 1_555 1_555
C33 C32 1_555 1_555
H21 C33 1_555 1_555
C34 C33 1_555 1_555
H22 C34 1_555 1_555
C35 C34 1_555 1_555
H23 C35 1_555 1_555
C36 C35 1_555 1_555
H24 C36 1_555 1_555
C37 C29 1_555 1_555
C38 C37 1_555 1_555
H25 C38 1_555 1_555
C39 C38 1_555 1_555
H26 C39 1_555 1_555
C40 C39 1_555 1_555
C41 C40 1_555 1_555
H27 C41 1_555 1_555
C42 C37 1_555 1_555
H28 C42 1_555 1_555
C43 H29 1_555 1_555
H30 C43 1_555 1_555
H31 C43 1_555 1_555
C44 C40 1_555 1_555
C45 C44 1_555 1_555
H32 C45 1_555 1_555
H33 C45 1_555 1_555
H34 C45 1_555 1_555
C46 C44 1_555 1_555
H35 C46 1_555 1_555
H36 C46 1_555 1_555
H37 C46 1_555 1_555
N1 C32 1_555 1_555
N2 Mn1 1_555 1_555
N3 Mn1 1_555 1_555
O1 C21 1_555 1_555
O2 Mn1 1_555 1_555
O3 C14 1_555 1_555
O4 C1 1_555 1_555
O5 C1 1_555 1_555
O8 H38 1_555 1_555
H39 O8 1_555 1_555
Mn1A O5 1_555 1_555
O5A Mn1 1_555 1_555
C6 C7 1_555 1_555
C12 C13 1_555 1_555
C15 O3 1_555 1_555
C19 C20 1_555 1_555
C21 O2 1_555 1_555
C22 N3 1_555 1_555
C26 N3 1_555 1_555
C27 N2 1_555 1_555
C31 N2 1_555 1_555
C36 N1 1_555 1_555
C41 C42 1_555 1_555
C43 C44 1_555 1_555

#END
