
#######################################################################
#
#                 Cambridge Crystallographic Data Centre
#                                CCDC 
#
#######################################################################
#
# If this CIF has been generated from an entry in the Cambridge 
# Structural Database, then it will include bibliographic, chemical, 
# crystal, experimental, refinement or atomic coordinate data resulting 
# from the CCDC's data processing and validation procedures.
#
#######################################################################

data_WOVCER
_symmetry_cell_setting           triclinic
_symmetry_space_group_name_H-M   'P -1'
_symmetry_Int_Tables_number      2
_space_group_name_Hall           '-P 1'
loop_
_symmetry_equiv_pos_site_id
_symmetry_equiv_pos_as_xyz
1 x,y,z
2 -x,-y,-z
_cell_length_a                   11.334(4)
_cell_length_b                   12.173(8)
_cell_length_c                   14.151(3)
_cell_angle_alpha                77.398(2)
_cell_angle_beta                 69.085(4)
_cell_angle_gamma                85.979(5)
_cell_volume                     1779.75
loop_
_atom_site_label
_atom_site_type_symbol
_atom_site_fract_x
_atom_site_fract_y
_atom_site_fract_z
Ni1 Ni 0.65271(2) 0.25588(2) 0.314493(18)
C1 C 0.6001(2) 0.20256(18) 1.17588(17)
C2 C 0.5686(2) 0.18107(17) 1.08754(17)
C3 C 0.6625(2) 0.19291(18) 0.99075(17)
H1 H 0.7441 0.2137 0.9811
C4 C 0.6335(3) 0.17340(18) 0.90811(18)
C5 C 0.5120(3) 0.1428(2) 0.9239(2)
H2 H 0.4927 0.1290 0.8690
C6 C 0.4194(3) 0.1325(2) 1.0195(2)
H3 H 0.3376 0.1129 1.0288
C7 C 0.4475(2) 0.1512(2) 1.1026(2)
H4 H 0.3850 0.1437 1.1676
C8 C 0.8380(3) 0.2311(2) 0.7840(2)
H5 H 0.8890 0.1774 0.8139
H6 H 0.8296 0.2980 0.8125
C9 C 0.9014(2) 0.26076(19) 0.66907(18)
C10 C 0.9974(2) 0.3404(2) 0.6261(2)
H7 H 1.0234 0.3726 0.6694
C11 C 1.0553(2) 0.37299(19) 0.5206(2)
H8 H 1.1202 0.4263 0.4939
C12 C 1.0184(2) 0.32749(18) 0.45327(18)
C13 C 0.9241(2) 0.24596(18) 0.49639(17)
H9 H 0.8991 0.2131 0.4530
C14 C 0.8664(2) 0.21226(19) 0.60227(18)
H10 H 0.8038 0.1569 0.6291
C15 C 1.0780(2) 0.36792(18) 0.33962(18)
C16 C 1.2097(2) 0.3777(2) 0.2935(2)
H11 H 1.2591 0.3584 0.3348
C17 C 1.2673(3) 0.4149(3) 0.1895(3)
H12 H 1.3550 0.4199 0.1609
C18 C 1.1970(3) 0.4449(3) 0.1268(2)
H13 H 1.2362 0.4723 0.0562
C19 C 1.0667(2) 0.4340(2) 0.17003(19)
H14 H 1.0188 0.4524 0.1274
C20 C 1.0062(2) 0.39649(17) 0.27532(17)
C21 C 0.86376(19) 0.39013(16) 0.31580(15)
C22 C 0.5715(2) 0.48778(19) 0.22280(18)
H15 H 0.6315 0.4776 0.1604
C23 C 0.5035(3) 0.5862(2) 0.2256(2)
H16 H 0.5163 0.6409 0.1655
C24 C 0.4168(2) 0.6025(2) 0.3178(2)
H17 H 0.3712 0.6690 0.3211
C25 C 0.3974(2) 0.51928(17) 0.40615(18)
H18 H 0.3389 0.5286 0.4694
C26 C 0.46768(18) 0.42187(16) 0.39761(15)
C27 C 0.45501(18) 0.32588(16) 0.48612(15)
C28 C 0.36442(18) 0.31425(17) 0.58407(15)
H19 H 0.3044 0.3700 0.5995
C29 C 0.36344(18) 0.21879(17) 0.65945(15)
C30 C 0.45545(19) 0.13747(17) 0.63169(15)
H20 H 0.4582 0.0729 0.6801
C31 C 0.54230(18) 0.15329(16) 0.53220(14)
C32 C 0.64355(18) 0.07331(16) 0.49184(15)
C33 C 0.6738(2) -0.02029(19) 0.55353(18)
H21 H 0.6284 -0.0385 0.6241
C34 C 0.7728(3) -0.0862(2) 0.5083(2)
H22 H 0.7948 -0.1499 0.5482
C35 C 0.8382(3) -0.0573(2) 0.4048(2)
H23 H 0.9060 -0.1004 0.3733
C36 C 0.8025(2) 0.0361(2) 0.34772(18)
H24 H 0.8473 0.0553 0.2770
C37 C 0.26944(19) 0.20311(18) 0.76640(16)
C38 C 0.2039(2) 0.2939(2) 0.80535(17)
H25 H 0.2153 0.3652 0.7628
C39 C 0.1218(2) 0.2793(2) 0.90671(19)
H26 H 0.0794 0.3415 0.9308
C40 C 0.1009(2) 0.1759(2) 0.97306(17)
C41 C 0.1635(2) 0.0855(2) 0.93321(18)
H27 H 0.1494 0.0140 0.9754
C42 C 0.2462(2) 0.0983(2) 0.83253(16)
H28 H 0.2872 0.0356 0.8086
C43 C 0.0160(3) 0.1619(3) 1.0848(2)
H29 H 0.0128 0.0840 1.1183
H30 H -0.0674 0.1869 1.0885
H31 H 0.0487 0.2059 1.1187
O1 O 0.70601(14) 0.24461(13) 1.15917(11)
O2 O 0.52086(15) 0.18025(14) 1.26628(12)
O3 O 0.71697(19) 0.18399(15) 0.80940(13)
O4 O 0.82215(13) 0.31331(13) 0.28911(12)
O5 O 0.80076(15) 0.45624(14) 0.36750(14)
N1 N 0.70643(15) 0.10064(14) 0.38926(13)
N2 N 0.54179(14) 0.24636(13) 0.46187(12)
N3 N 0.55379(16) 0.40671(14) 0.30703(13)
Ni1_2 Ni 0.65271(2) 0.25588(2) 1.314493(18)
O1_2 O 0.70601(14) 0.24461(13) 0.15917(11)
O2_2 O 0.52086(15) 0.18025(14) 0.26628(12)
loop_
_geom_bond_atom_site_label_1
_geom_bond_atom_site_label_2
_geom_bond_site_symmetry_1
_geom_bond_site_symmetry_2
Ni1 O4 1_555 1_555
C1 C2 1_555 1_555
C2 C3 1_555 1_555
C3 H1 1_555 1_555
C4 C3 1_555 1_555
C5 C4 1_555 1_555
H2 C5 1_555 1_555
C6 C5 1_555 1_555
H3 C6 1_555 1_555
C7 C2 1_555 1_555
H4 C7 1_555 1_555
C8 H5 1_555 1_555
H6 C8 1_555 1_555
C9 C8 1_555 1_555
C10 C9 1_555 1_555
H7 C10 1_555 1_555
C11 C10 1_555 1_555
H8 C11 1_555 1_555
C12 C11 1_555 1_555
C13 C12 1_555 1_555
H9 C13 1_555 1_555
C14 C9 1_555 1_555
H10 C14 1_555 1_555
C15 C12 1_555 1_555
C16 C15 1_555 1_555
H11 C16 1_555 1_555
C17 C16 1_555 1_555
H12 C17 1_555 1_555
C18 C17 1_555 1_555
H13 C18 1_555 1_555
C19 C18 1_555 1_555
H14 C19 1_555 1_555
C20 C15 1_555 1_555
C21 C20 1_555 1_555
C22 H15 1_555 1_555
C23 C22 1_555 1_555
H16 C23 1_555 1_555
C24 C23 1_555 1_555
H17 C24 1_555 1_555
C25 C24 1_555 1_555
H18 C25 1_555 1_555
C26 C25 1_555 1_555
C27 C26 1_555 1_555
C28 C27 1_555 1_555
H19 C28 1_555 1_555
C29 C28 1_555 1_555
C30 C29 1_555 1_555
H20 C30 1_555 1_555
C31 C30 1_555 1_555
C32 C31 1_555 1_555
C33 C32 1_555 1_555
H21 C33 1_555 1_555
C34 C33 1_555 1_555
H22 C34 1_555 1_555
C35 C34 1_555 1_555
H23 C35 1_555 1_555
C36 C35 1_555 1_555
H24 C36 1_555 1_555
C37 C29 1_555 1_555
C38 C37 1_555 1_555
H25 C38 1_555 1_555
C39 C38 1_555 1_555
H26 C39 1_555 1_555
C40 C39 1_555 1_555
C41 C40 1_555 1_555
H27 C41 1_555 1_555
C42 C37 1_555 1_555
H28 C42 1_555 1_555
C43 C40 1_555 1_555
H29 C43 1_555 1_555
H30 C43 1_555 1_555
H31 C43 1_555 1_555
O1 C1 1_555 1_555
O2 C1 1_555 1_555
O3 C4 1_555 1_555
O4 C21 1_555 1_555
O5 C21 1_555 1_555
N1 Ni1 1_555 1_555
N2 Ni1 1_555 1_555
N3 Ni1 1_555 1_555
Ni1_2 O1 1_555 1_555
O1_2 Ni1 1_555 1_555
O2_2 Ni1 1_555 1_555
C6 C7 1_555 1_555
C8 O3 1_555 1_555
C13 C14 1_555 1_555
C19 C20 1_555 1_555
C22 N3 1_555 1_555
C26 N3 1_555 1_555
C27 N2 1_555 1_555
C31 N2 1_555 1_555
C32 N1 1_555 1_555
C36 N1 1_555 1_555
C41 C42 1_555 1_555
O2 Ni1_2 1_555 1_555

#END
