
#######################################################################
#
#                 Cambridge Crystallographic Data Centre
#                                CCDC 
#
#######################################################################
#
# If this CIF has been generated from an entry in the Cambridge 
# Structural Database, then it will include bibliographic, chemical, 
# crystal, experimental, refinement or atomic coordinate data resulting 
# from the CCDC's data processing and validation procedures.
#
#######################################################################

data_WOVCIV
_symmetry_cell_setting           monoclinic
_symmetry_space_group_name_H-M   'P 21/n'
_symmetry_Int_Tables_number      14
_space_group_name_Hall           '-P 2yn'
loop_
_symmetry_equiv_pos_site_id
_symmetry_equiv_pos_as_xyz
1 x,y,z
2 1/2-x,1/2+y,1/2-z
3 -x,-y,-z
4 1/2+x,1/2-y,1/2+z
_cell_length_a                   14.513(4)
_cell_length_b                   14.637(6)
_cell_length_c                   20.446(5)
_cell_angle_alpha                90
_cell_angle_beta                 107.589(8)
_cell_angle_gamma                90
_cell_volume                     4140.22
loop_
_atom_site_label
_atom_site_type_symbol
_atom_site_fract_x
_atom_site_fract_y
_atom_site_fract_z
Co1 Co 0.01852(5) 0.24660(4) 0.95904(3)
C1 C 0.0578(5) 0.1632(4) 0.8431(3)
C2 C 0.1280(4) 0.1245(4) 0.8074(3)
C3 C 0.1943(4) 0.0579(4) 0.8405(3)
H1 H 0.1994 0.0427 0.8856
C4 C 0.2522(5) 0.0142(4) 0.8084(3)
H2 H 0.2972 -0.0288 0.8320
C5 C 0.2436(4) 0.0339(4) 0.7420(3)
H3 H 0.2808 0.0029 0.7193
C6 C 0.1791(4) 0.1006(4) 0.7083(3)
H4 H 0.1748 0.1148 0.6632
C7 C 0.1207(4) 0.1471(3) 0.7399(3)
C8 C 0.0565(4) 0.2220(4) 0.7029(3)
C9 C -0.0117(4) 0.2053(4) 0.6395(3)
H5 H -0.0157 0.1476 0.6198
C10 C -0.0733(4) 0.2737(4) 0.6056(3)
H6 H -0.1195 0.2614 0.5639
C11 C -0.0666(5) 0.3608(4) 0.6337(4)
C12 C 0.0042(5) 0.3784(4) 0.6947(4)
H7 H 0.0113 0.4372 0.7128
C13 C 0.0647(4) 0.3100(4) 0.7291(3)
H8 H 0.1117 0.3229 0.7704
C14 C -0.1374(5) 0.4352(5) 0.6007(4)
H9 H -0.1995 0.4088 0.5761
H10 H -0.1465 0.4764 0.6354
C15 C -0.1473(4) 0.5604(3) 0.5230(3)
C16 C -0.1055(4) 0.6072(4) 0.4803(3)
H11 H -0.0490 0.5857 0.4733
C17 C -0.1482(4) 0.6852(4) 0.4486(3)
H12 H -0.1206 0.7165 0.4196
C18 C -0.2321(4) 0.7182(4) 0.4590(3)
H13 H -0.2602 0.7717 0.4375
C19 C -0.2735(3) 0.6717(3) 0.5013(2)
C20 C -0.2316(4) 0.5918(3) 0.5329(2)
H14 H -0.2603 0.5595 0.5608
C21 C -0.3631(3) 0.7078(3) 0.5142(2)
C22 C -0.0861(4) 0.3818(4) 0.8400(2)
H15 H -0.1225 0.3312 0.8201
C23 C -0.1075(4) 0.4652(4) 0.8075(3)
H16 H -0.1576 0.4707 0.7667
C24 C -0.0533(4) 0.5398(4) 0.8366(3)
H17 H -0.0664 0.5968 0.8158
C25 C 0.0208(4) 0.5292(4) 0.8971(2)
H18 H 0.0585 0.5789 0.9176
C26 C 0.0379(3) 0.4435(3) 0.9265(2)
C27 C 0.1132(3) 0.4262(3) 0.9930(2)
C28 C 0.1793(3) 0.4903(3) 1.0273(2)
H19 H 0.1797 0.5482 1.0087
C29 C 0.2461(3) 0.4679(3) 1.0905(2)
C30 C 0.2406(3) 0.3805(3) 1.1168(2)
H20 H 0.2827 0.3634 1.1591
C31 C 0.1723(3) 0.3201(3) 1.0794(2)
C32 C 0.1548(3) 0.2273(3) 1.1031(2)
C33 C 0.1919(4) 0.1988(4) 1.1697(3)
H21 H 0.2340 0.2358 1.2023
C34 C 0.1651(4) 0.1128(4) 1.1875(3)
H22 H 0.1882 0.0927 1.2326
C35 C 0.1056(4) 0.0588(4) 1.1392(3)
H23 H 0.0881 0.0010 1.1502
C36 C 0.0716(4) 0.0921(3) 1.0729(3)
H24 H 0.0316 0.0549 1.0393
C37 C 0.3202(3) 0.5357(3) 1.1273(2)
C38 C 0.3079(4) 0.6286(3) 1.1114(3)
H25 H 0.2509 0.6485 1.0797
C39 C 0.3785(4) 0.6914(3) 1.1416(3)
H26 H 0.3671 0.7527 1.1301
C40 C 0.4653(4) 0.6671(3) 1.1881(3)
C41 C 0.4759(4) 0.5745(3) 1.2060(3)
H27 H 0.5325 0.5555 1.2386
C42 C 0.4060(4) 0.5103(3) 1.1772(2)
H28 H 0.4159 0.4496 1.1910
C43 C 0.5454(4) 0.7354(4) 1.2186(3)
C44 C 0.6331(6) 0.7109(6) 1.2012(6)
H29 H 0.6830 0.7547 1.2210
H30 H 0.6195 0.7108 1.1522
H31 H 0.6543 0.6512 1.2189
C45 C 0.5703(6) 0.7336(5) 1.2969(4)
H32 H 0.5141 0.7496 1.3099
H33 H 0.6211 0.7766 1.3165
H34 H 0.5914 0.6734 1.3134
C46 C 0.5130(5) 0.8330(4) 1.1968(4)
H35 H 0.4556 0.8467 1.2090
H36 H 0.4996 0.8388 1.1480
H37 H 0.5633 0.8749 1.2196
N1 N 0.0937(3) 0.1756(3) 1.0548(2)
N2 N 0.1116(3) 0.3421(3) 1.01793(18)
N3 N -0.0153(3) 0.3707(3) 0.89877(18)
O1 O 0.0961(3) 0.1867(3) 0.9044(2)
O2 O -0.0288(3) 0.1668(3) 0.8107(2)
O3 O -0.0988(3) 0.4839(3) 0.5542(2)
O4 O -0.3988(2) 0.6646(3) 0.55417(17)
O5 O -0.4001(3) 0.7816(2) 0.48793(19)
Co1A Co -0.51852(5) 0.74660(4) 0.54096(3)
O4A O -0.1012(2) 0.1646(3) 0.94583(17)
O5A O -0.0999(3) 0.2816(2) 1.01207(19)
O7 O 0.0000 0.0000 0.5000
O9 O -0.2131(17) 0.2674(17) 0.4505(12)
O10 O -0.2212(4) 0.1429(4) 0.7955(2)
H38 H -0.163(3) 0.141(7) 0.789(4)
H39 H -0.213(5) 0.141(6) 0.8397(13)
O6? O -0.0448(19) 0.0702(18) 0.4656(13)
O8? O -0.2299(18) 0.2086(19) 0.4377(12)
loop_
_geom_bond_atom_site_label_1
_geom_bond_atom_site_label_2
_geom_bond_site_symmetry_1
_geom_bond_site_symmetry_2
Co1 N1 1_555 1_555
C1 C2 1_555 1_555
C2 C3 1_555 1_555
C3 H1 1_555 1_555
C4 C3 1_555 1_555
H2 C4 1_555 1_555
C5 C4 1_555 1_555
H3 C5 1_555 1_555
C6 C5 1_555 1_555
H4 C6 1_555 1_555
C7 C2 1_555 1_555
C8 C7 1_555 1_555
C9 C8 1_555 1_555
H5 C9 1_555 1_555
C10 C9 1_555 1_555
H6 C10 1_555 1_555
C11 C10 1_555 1_555
C12 C11 1_555 1_555
H7 C12 1_555 1_555
C13 C8 1_555 1_555
H8 C13 1_555 1_555
C14 C11 1_555 1_555
H9 C14 1_555 1_555
H10 C14 1_555 1_555
C15 C16 1_555 1_555
C16 H11 1_555 1_555
C17 C16 1_555 1_555
H12 C17 1_555 1_555
C18 C17 1_555 1_555
H13 C18 1_555 1_555
C19 C18 1_555 1_555
C20 C15 1_555 1_555
H14 C20 1_555 1_555
C21 C19 1_555 1_555
C22 H15 1_555 1_555
C23 C22 1_555 1_555
H16 C23 1_555 1_555
C24 C23 1_555 1_555
H17 C24 1_555 1_555
C25 C24 1_555 1_555
H18 C25 1_555 1_555
C26 C25 1_555 1_555
C27 C26 1_555 1_555
C28 C27 1_555 1_555
H19 C28 1_555 1_555
C29 C28 1_555 1_555
C30 C29 1_555 1_555
H20 C30 1_555 1_555
C31 C30 1_555 1_555
C32 C31 1_555 1_555
C33 C32 1_555 1_555
H21 C33 1_555 1_555
C34 C33 1_555 1_555
H22 C34 1_555 1_555
C35 C34 1_555 1_555
H23 C35 1_555 1_555
C36 C35 1_555 1_555
H24 C36 1_555 1_555
C37 C29 1_555 1_555
C38 C37 1_555 1_555
H25 C38 1_555 1_555
C39 C38 1_555 1_555
H26 C39 1_555 1_555
C40 C39 1_555 1_555
C41 C40 1_555 1_555
H27 C41 1_555 1_555
C42 C37 1_555 1_555
H28 C42 1_555 1_555
C43 C40 1_555 1_555
C44 C43 1_555 1_555
H29 C44 1_555 1_555
H30 C44 1_555 1_555
H31 C44 1_555 1_555
C45 C43 1_555 1_555
H32 C45 1_555 1_555
H33 C45 1_555 1_555
H34 C45 1_555 1_555
C46 C43 1_555 1_555
H35 C46 1_555 1_555
H36 C46 1_555 1_555
H37 C46 1_555 1_555
N1 C32 1_555 1_555
N2 Co1 1_555 1_555
N3 Co1 1_555 1_555
O1 Co1 1_555 1_555
O2 C1 1_555 1_555
O3 C14 1_555 1_555
O4 C21 1_555 1_555
O5 C21 1_555 1_555
O10 H38 1_555 1_555
H39 O10 1_555 1_555
Co1A O4 1_555 1_555
O4A Co1 1_555 1_555
O5A Co1 1_555 1_555
C1 O1 1_555 1_555
C6 C7 1_555 1_555
C12 C13 1_555 1_555
C15 O3 1_555 1_555
C19 C20 1_555 1_555
C22 N3 1_555 1_555
C26 N3 1_555 1_555
C27 N2 1_555 1_555
C31 N2 1_555 1_555
C36 N1 1_555 1_555
C41 C42 1_555 1_555
O5 Co1A 1_555 1_555

#END
