
#######################################################################
#
#                 Cambridge Crystallographic Data Centre
#                                CCDC 
#
#######################################################################
#
# If this CIF has been generated from an entry in the Cambridge 
# Structural Database, then it will include bibliographic, chemical, 
# crystal, experimental, refinement or atomic coordinate data resulting 
# from the CCDC's data processing and validation procedures.
#
#######################################################################

data_WOVDAO
_symmetry_cell_setting           triclinic
_symmetry_space_group_name_H-M   'P -1'
_symmetry_Int_Tables_number      2
_space_group_name_Hall           '-P 1'
loop_
_symmetry_equiv_pos_site_id
_symmetry_equiv_pos_as_xyz
1 x,y,z
2 -x,-y,-z
_cell_length_a                   10.270(8)
_cell_length_b                   11.118(9)
_cell_length_c                   12.3190(14)
_cell_angle_alpha                101.2890(10)
_cell_angle_beta                 106.449(7)
_cell_angle_gamma                90.366(5)
_cell_volume                     1320.08
loop_
_atom_site_label
_atom_site_type_symbol
_atom_site_fract_x
_atom_site_fract_y
_atom_site_fract_z
Mn1 Mn 0.41244(10) 0.11318(7) -0.02186(8)
C1 C 0.6634(8) 0.1292(7) 0.1985(6)
C2 C 0.7509(8) 0.2110(6) 0.3051(6)
C3 C 0.7023(8) 0.3173(6) 0.3569(6)
H1 H 0.6137 0.3372 0.3252
C4 C 0.7844(9) 0.3922(6) 0.4541(6)
H2 H 0.7503 0.4618 0.4890
C5 C 0.9169(9) 0.3663(6) 0.5010(6)
H3 H 0.9724 0.4183 0.5667
C6 C 0.9669(8) 0.2606(6) 0.4485(6)
C7 C 0.8845(8) 0.1811(6) 0.3537(6)
H4 H 0.9167 0.1086 0.3222
C8 C 1.1566(8) 0.1375(7) 0.4535(7)
H5 H 1.1520 0.1387 0.3740
H6 H 1.1067 0.0634 0.4543
C9 C 1.3038(8) 0.1390(7) 0.5252(6)
C10 C 1.3954(8) 0.2392(7) 0.5421(6)
H7 H 1.3667 0.3051 0.5071
C11 C 1.5275(8) 0.2413(6) 0.6099(7)
H8 H 1.5862 0.3098 0.6222
C12 C 1.5743(7) 0.1429(6) 0.6601(6)
C13 C 1.4852(8) 0.0429(6) 0.6403(6)
H9 H 1.5160 -0.0256 0.6705
C14 C 1.3497(8) 0.0419(6) 0.5758(6)
H10 H 1.2900 -0.0249 0.5671
C15 C 1.7209(8) 0.1408(6) 0.7241(6)
C16 C 1.8190(8) 0.1830(6) 0.6801(7)
H11 H 1.7905 0.2159 0.6140
C17 C 1.9582(9) 0.1781(7) 0.7307(7)
H12 H 2.0209 0.2086 0.6995
C18 C 2.0016(9) 0.1275(7) 0.8271(7)
H13 H 2.0938 0.1207 0.8606
C19 C 1.9059(8) 0.0871(6) 0.8734(7)
H14 H 1.9354 0.0549 0.9398
C20 C 1.7681(8) 0.0927(6) 0.8246(6)
C21 C 1.6763(8) 0.0514(6) 0.8901(6)
C22 C 0.3380(10) 0.3009(7) -0.1775(7)
H15 H 0.3463 0.2401 -0.2384
C23 C 0.3173(11) 0.4194(8) -0.1839(9)
H16 H 0.3065 0.4546 -0.2483
C24 C 0.3317(8) 0.3916(6) -0.0115(7)
H17 H 0.3334 0.4072 0.0659
C25 C 0.2946(11) 0.6079(7) -0.0421(9)
H18 H 0.3616 0.6558 -0.0606
H19 H 0.3094 0.6295 0.0408
C26 C 0.1571(15) 0.6408(12) -0.1010(13)
H20 H 0.1549 0.7296 -0.0828
H21 H 0.1423 0.6164 -0.1838
C27 C 0.0506(15) 0.5903(12) -0.0742(12)
H22 H 0.0474 0.6316 0.0019
H23 H 0.0622 0.5039 -0.0738
C28 C -0.1442(12) 0.7175(9) -0.1677(11)
H24 H -0.1013 0.7937 -0.1275
C29 C -0.1854(16) 0.5229(10) -0.2398(11)
H25 H -0.1726 0.4393 -0.2567
C30 C -0.2963(12) 0.5700(10) -0.2797(9)
H26 H -0.3767 0.5287 -0.3293
N1 N 0.3451(6) 0.2821(5) -0.0703(5)
N2 N 0.3155(7) 0.4771(5) -0.0747(6)
N3 N -0.0899(10) 0.6064(8) -0.1714(10)
N4 N -0.2744(13) 0.6933(10) -0.2355(9)
O1 O 0.5581(6) 0.1740(5) 0.1423(4)
O2 O 0.6961(5) 0.0222(4) 0.1698(4)
O3 O 1.0981(6) 0.2437(5) 0.5022(4)
O4 O 1.5811(5) 0.1160(4) 0.9031(4)
O5 O 1.7091(6) -0.0429(4) 0.9306(4)
Mn1_2 Mn 1.41244(10) 0.11318(7) 0.97814(8)
Mn1A Mn 0.58756(10) -0.11318(7) 0.02186(8)
Mn1A_2 Mn 1.58756(10) -0.11318(7) 1.02186(8)
O2A O 0.3039(5) -0.0222(4) -0.1698(4)
O4_2 O 0.5811(5) 0.1160(4) -0.0969(4)
O5A O 0.2909(6) 0.0429(4) 0.0694(4)
loop_
_geom_bond_atom_site_label_1
_geom_bond_atom_site_label_2
_geom_bond_site_symmetry_1
_geom_bond_site_symmetry_2
Mn1 N1 1_555 1_555
C1 C2 1_555 1_555
C2 C3 1_555 1_555
C3 H1 1_555 1_555
C4 C3 1_555 1_555
H2 C4 1_555 1_555
C5 C4 1_555 1_555
H3 C5 1_555 1_555
C6 C5 1_555 1_555
C7 C2 1_555 1_555
H4 C7 1_555 1_555
C8 H5 1_555 1_555
H6 C8 1_555 1_555
C9 C8 1_555 1_555
C10 C9 1_555 1_555
H7 C10 1_555 1_555
C11 C10 1_555 1_555
H8 C11 1_555 1_555
C12 C11 1_555 1_555
C13 C12 1_555 1_555
H9 C13 1_555 1_555
C14 C9 1_555 1_555
H10 C14 1_555 1_555
C15 C12 1_555 1_555
C16 C15 1_555 1_555
H11 C16 1_555 1_555
C17 C16 1_555 1_555
H12 C17 1_555 1_555
C18 C17 1_555 1_555
H13 C18 1_555 1_555
C19 C18 1_555 1_555
H14 C19 1_555 1_555
C20 C15 1_555 1_555
C21 C20 1_555 1_555
C22 H15 1_555 1_555
C23 C22 1_555 1_555
H16 C23 1_555 1_555
C24 H17 1_555 1_555
C25 H18 1_555 1_555
H19 C25 1_555 1_555
C26 C25 1_555 1_555
H20 C26 1_555 1_555
H21 C26 1_555 1_555
C27 C26 1_555 1_555
H22 C27 1_555 1_555
H23 C27 1_555 1_555
C28 H24 1_555 1_555
C29 H25 1_555 1_555
C30 C29 1_555 1_555
H26 C30 1_555 1_555
N1 C22 1_555 1_555
N2 C23 1_555 1_555
N3 C27 1_555 1_555
N4 C28 1_555 1_555
O1 Mn1 1_555 1_555
O2 C1 1_555 1_555
O3 C6 1_555 1_555
O4 C21 1_555 1_555
O5 C21 1_555 1_555
Mn1_2 O4 1_555 1_555
Mn1A Mn1 1_555 1_555
Mn1A_2 O5 1_555 1_555
O2A Mn1 1_555 1_555
O4_2 Mn1 1_555 1_555
O5A Mn1 1_555 1_555
C1 O1 1_555 1_555
C6 C7 1_555 1_555
C8 O3 1_555 1_555
C13 C14 1_555 1_555
C19 C20 1_555 1_555
C24 N1 1_555 1_555
C24 N2 1_555 1_555
C25 N2 1_555 1_555
C28 N3 1_555 1_555
C29 N3 1_555 1_555
C30 N4 1_555 1_555
O2 Mn1A 1_555 1_555
Mn1_2 Mn1A_2 1_555 1_555

#END
