
#######################################################################
#
#                 Cambridge Crystallographic Data Centre
#                                CCDC 
#
#######################################################################
#
# If this CIF has been generated from an entry in the Cambridge 
# Structural Database, then it will include bibliographic, chemical, 
# crystal, experimental, refinement or atomic coordinate data resulting 
# from the CCDC's data processing and validation procedures.
#
#######################################################################

data_WOVFAQ
_symmetry_cell_setting           orthorhombic
_symmetry_space_group_name_H-M   'P b c n'
_symmetry_Int_Tables_number      60
_space_group_name_Hall           '-P 2n 2ab'
loop_
_symmetry_equiv_pos_site_id
_symmetry_equiv_pos_as_xyz
1 x,y,z
2 1/2-x,1/2-y,1/2+z
3 1/2+x,1/2-y,-z
4 -x,y,1/2-z
5 -x,-y,-z
6 1/2+x,1/2+y,1/2-z
7 1/2-x,1/2+y,z
8 x,-y,1/2+z
_cell_length_a                   17.4631(10)
_cell_length_b                   14.438(3)
_cell_length_c                   21.4618(11)
_cell_angle_alpha                90
_cell_angle_beta                 90
_cell_angle_gamma                90
_cell_volume                     5411.21
loop_
_atom_site_label
_atom_site_type_symbol
_atom_site_fract_x
_atom_site_fract_y
_atom_site_fract_z
Cu1 Cu -0.23518(4) 0.16297(4) 0.77872(3)
C1 C 0.1437(3) 0.1448(4) 0.8212(3)
C2 C 0.0771(3) 0.1102(4) 0.8590(2)
C3 C 0.0321(4) 0.0380(4) 0.8398(3)
H1 H 0.0443 0.0067 0.8032
C4 C -0.0304(4) 0.0112(4) 0.8733(4)
H2 H -0.0591 -0.0391 0.8597
C5 C -0.0521(3) 0.0565(4) 0.9266(3)
C6 C -0.0064(3) 0.1277(5) 0.9465(2)
H3 H -0.0189 0.1590 0.9830
C7 C 0.0575(3) 0.1535(4) 0.9136(2)
H4 H 0.0881 0.2012 0.9286
C8 C -0.1248(3) 0.0290(4) 0.9600(3)
H5 H -0.1501 -0.0198 0.9367
H6 H -0.1119 0.0046 1.0008
C9 C -0.1811(4) 0.1524(4) 1.0230(3)
H7 H -0.1501 0.1328 1.0557
C10 C -0.2286(4) 0.2251(5) 1.0314(3)
H8 H -0.2305 0.2556 1.0696
C11 C -0.2739(3) 0.2530(4) 0.9832(3)
H9 H -0.3069 0.3027 0.9894
C12 C -0.2725(3) 0.2107(3) 0.9259(2)
C13 C -0.2224(3) 0.1330(3) 0.9164(2)
C14 C -0.3263(3) 0.2465(4) 0.8768(3)
C15 C -0.1798(3) 0.3557(3) 0.8184(2)
H10 H -0.2270 0.3844 0.8133
C16 C -0.0908(3) 0.2587(4) 0.8217(3)
H11 H -0.0643 0.2030 0.8183
C17 C -0.1068(3) 0.5075(3) 0.9281(2)
C18 C -0.1544(3) 0.4597(4) 0.9674(2)
H12 H -0.1839 0.4113 0.9518
C19 C -0.1593(3) 0.4822(4) 1.0296(2)
H13 H -0.1930 0.4498 1.0552
C20 C -0.1150(3) 0.5521(3) 1.0545(2)
C21 C -0.0652(3) 0.5985(3) 1.0151(2)
H14 H -0.0341 0.6451 1.0311
C22 C -0.0610(3) 0.5767(3) 0.9529(2)
H15 H -0.0273 0.6087 0.9272
C23 C -0.2000(3) 0.4841(3) 1.1936(2)
H16 H -0.2464 0.5154 1.1901
C24 C -0.1135(3) 0.3918(4) 1.2177(2)
H17 H -0.0881 0.3425 1.2364
N1 N -0.1780(3) 0.1077(3) 0.96742(19)
N2 N -0.1651(2) 0.2679(3) 0.80599(18)
N3 N -0.1172(2) 0.3967(3) 0.83934(17)
N4 N -0.1363(2) 0.5068(3) 1.16457(17)
N5 N -0.1883(2) 0.4103(3) 1.22840(17)
O1 O 0.1858(2) 0.2052(3) 0.84183(18)
O2 O 0.1516(2) 0.1069(2) 0.76754(15)
O3 O -0.2154(2) 0.0876(2) 0.86718(16)
O4 O -0.3208(2) 0.2191(3) 0.82045(17)
O5 O -0.3747(3) 0.3040(3) 0.8927(2)
C25 C -0.1059(4) 0.4920(3) 0.8591(2)
H18 H -0.134(3) 0.528(4) 0.840(3)
H19 H -0.067(3) 0.509(4) 0.842(3)
C26 C -0.1224(4) 0.5827(3) 1.1211(2)
H20 H -0.0869(17) 0.614(3) 1.133(3)
H21 H -0.152(2) 0.625(2) 1.127(3)
C27 C -0.0592(3) 0.3348(3) 0.8421(2)
H22 H -0.0091 0.3441 0.8554
C28 C -0.0805(3) 0.4469(3) 1.1800(2)
H23 H -0.0300 0.4459 1.1664
Cu1A Cu -0.26482(4) 0.33703(4) 1.27872(3)
Cu1C Cu 0.23518(4) 0.16297(4) 0.72128(3)
N5A N -0.3117(2) 0.0897(3) 0.72840(17)
O1C O -0.1858(2) 0.2052(3) 0.65817(18)
O2C O -0.1516(2) 0.1069(2) 0.73246(15)
O6 O 0.3147(5) 0.3338(5) 0.8240(3)
H24 H 0.275(4) 0.299(7) 0.815(4)
H25 H 0.336(6) 0.353(8) 0.790(3)
O7 O 0.3567(8) 0.4123(7) 0.7238(5)
H26 H 0.364(6) 0.472(2) 0.719(5)
O8 O -0.0091(9) 0.2095(10) 1.1864(8)
O9? O -0.0332(14) 0.2214(16) 1.1037(10)
loop_
_geom_bond_atom_site_label_1
_geom_bond_atom_site_label_2
_geom_bond_site_symmetry_1
_geom_bond_site_symmetry_2
Cu1 N2 1_555 1_555
C1 C2 1_555 1_555
C2 C3 1_555 1_555
C3 H1 1_555 1_555
C4 C3 1_555 1_555
H2 C4 1_555 1_555
C5 C4 1_555 1_555
C6 C5 1_555 1_555
H3 C6 1_555 1_555
C7 C2 1_555 1_555
H4 C7 1_555 1_555
C8 C5 1_555 1_555
H5 C8 1_555 1_555
H6 C8 1_555 1_555
C9 H7 1_555 1_555
C10 C9 1_555 1_555
H8 C10 1_555 1_555
C11 C10 1_555 1_555
H9 C11 1_555 1_555
C12 C11 1_555 1_555
C13 C12 1_555 1_555
C14 C12 1_555 1_555
C15 H10 1_555 1_555
C16 H11 1_555 1_555
C17 C18 1_555 1_555
C18 H12 1_555 1_555
C19 C18 1_555 1_555
H13 C19 1_555 1_555
C20 C19 1_555 1_555
C21 C20 1_555 1_555
H14 C21 1_555 1_555
C22 C17 1_555 1_555
H15 C22 1_555 1_555
C23 H16 1_555 1_555
C24 H17 1_555 1_555
N1 C8 1_555 1_555
N2 C15 1_555 1_555
N3 C15 1_555 1_555
N4 C23 1_555 1_555
N5 C23 1_555 1_555
O1 C1 1_555 1_555
O2 C1 1_555 1_555
O3 Cu1 1_555 1_555
O4 Cu1 1_555 1_555
O5 C14 1_555 1_555
C25 C17 1_555 1_555
H18 C25 1_555 1_555
H19 C25 1_555 1_555
C26 C20 1_555 1_555
H20 C26 1_555 1_555
H21 C26 1_555 1_555
C27 C16 1_555 1_555
H22 C27 1_555 1_555
C28 C24 1_555 1_555
H23 C28 1_555 1_555
O6 H24 1_555 1_555
H25 O6 1_555 1_555
O7 H26 1_555 1_555
Cu1A N5 1_555 1_555
Cu1C O1 1_555 1_555
N5A Cu1 1_555 1_555
O1C Cu1 1_555 1_555
O2C Cu1 1_555 1_555
C6 C7 1_555 1_555
C9 N1 1_555 1_555
C13 N1 1_555 1_555
C13 O3 1_555 1_555
C14 O4 1_555 1_555
C16 N2 1_555 1_555
C21 C22 1_555 1_555
C24 N5 1_555 1_555
N3 C25 1_555 1_555
N3 C27 1_555 1_555
N4 C26 1_555 1_555
N4 C28 1_555 1_555
O2 Cu1C 1_555 1_555

#END
