
#######################################################################
#
#                 Cambridge Crystallographic Data Centre
#                                CCDC 
#
#######################################################################
#
# If this CIF has been generated from an entry in the Cambridge 
# Structural Database, then it will include bibliographic, chemical, 
# crystal, experimental, refinement or atomic coordinate data resulting 
# from the CCDC's data processing and validation procedures.
#
#######################################################################

data_WOVLUO
_symmetry_cell_setting           monoclinic
_symmetry_space_group_name_H-M   'P 21'
_symmetry_Int_Tables_number      4
_space_group_name_Hall           'P 2yb'
loop_
_symmetry_equiv_pos_site_id
_symmetry_equiv_pos_as_xyz
1 x,y,z
2 -x,1/2+y,-z
_cell_length_a                   6.1810(10)
_cell_length_b                   9.2000(10)
_cell_length_c                   10.6910(10)
_cell_angle_alpha                90
_cell_angle_beta                 102.940(10)
_cell_angle_gamma                90
_cell_volume                     592.507
loop_
_atom_site_label
_atom_site_type_symbol
_atom_site_fract_x
_atom_site_fract_y
_atom_site_fract_z
Na1 Na -0.49700(17) 0.17086(14) -0.69603(11)
C1 C -0.1381(4) 0.2570(3) -0.4544(2)
O1 O -0.0430(3) 0.3093(2) -0.34585(19)
O2 O -0.2548(3) 0.3261(2) -0.54371(19)
C2 C -0.1011(4) 0.0938(3) -0.4730(2)
O3 O -0.1341(3) 0.0684(2) -0.60824(18)
C3 C -0.2675(4) 0.0039(3) -0.4187(2)
O4 O -0.4806(3) 0.0677(2) -0.46312(19)
C4 C -0.2036(4) -0.0098(3) -0.2710(2)
O5 O -0.3934(4) -0.0484(3) -0.2233(2)
C5 C -0.0326(4) -0.1298(3) -0.2316(2)
O6 O -0.1344(3) -0.2633(2) -0.2804(2)
C6 C 0.0565(5) -0.1453(3) -0.0861(2)
O7 O 0.1765(4) -0.0152(3) -0.0437(2)
C7 C 0.2053(5) -0.2773(4) -0.0526(3)
O8 O 0.3955(3) -0.2710(3) -0.1077(2)
O9 O -0.6385(5) -0.0636(3) -0.7793(2)
H1 H 0.046(5) 0.064(4) -0.432(3)
H2 H -0.261(5) -0.093(4) -0.453(3)
H3 H -0.146(5) 0.080(4) -0.237(3)
H4 H 0.092(5) -0.109(4) -0.271(3)
H5 H -0.071(5) -0.159(4) -0.046(3)
H6 H 0.254(6) -0.290(5) 0.043(4)
H7 H 0.121(6) -0.357(5) -0.082(4)
H8 H -0.078(8) -0.007(6) -0.615(4)
H9 H -0.560(7) 0.009(6) -0.464(4)
H10 H -0.478(6) 0.016(5) -0.229(4)
H11 H -0.054(7) -0.303(5) -0.308(4)
H12 H 0.232(7) -0.025(6) 0.032(5)
H13 H 0.450(7) -0.187(5) -0.086(4)
H14 H -0.732(10) -0.084(7) -0.743(6)
H15 H -0.560(12) -0.135(9) -0.788(7)
O5A O -0.6066(4) 0.4516(3) -0.7767(2)
O6A O -0.8656(3) 0.2367(2) -0.7196(2)
O8A O -0.3955(3) 0.2290(3) -0.8923(2)
Na1A Na 0.49700(17) -0.32914(14) -0.30397(11)
H13A H -0.450(7) 0.313(5) -0.914(4)
Na1A_2 Na -0.50300(17) -0.32914(14) -0.30397(11)
H11A H -0.946(7) 0.197(5) -0.692(4)
H10A H -0.522(6) 0.516(5) -0.771(4)
O10 O 0.3424(4) 0.2011(3) -0.1950(3)
H16 H 0.221(7) 0.232(5) -0.241(4)
H17 H 0.312(8) 0.160(6) -0.144(5)
loop_
_geom_bond_atom_site_label_1
_geom_bond_atom_site_label_2
_geom_bond_site_symmetry_1
_geom_bond_site_symmetry_2
Na1 O2 1_555 1_555
C1 O1 1_555 1_555
O2 C1 1_555 1_555
C2 C1 1_555 1_555
O3 Na1 1_555 1_555
C3 C2 1_555 1_555
O4 Na1 1_555 1_555
C4 C3 1_555 1_555
O5 C4 1_555 1_555
C5 C4 1_555 1_555
O6 C5 1_555 1_555
C6 C5 1_555 1_555
O7 C6 1_555 1_555
C7 C6 1_555 1_555
O8 C7 1_555 1_555
O9 Na1 1_555 1_555
O10 H16 1_555 1_555
H1 C2 1_555 1_555
H2 C3 1_555 1_555
H3 C4 1_555 1_555
H4 C5 1_555 1_555
H5 C6 1_555 1_555
H6 C7 1_555 1_555
H7 C7 1_555 1_555
H8 O3 1_555 1_555
H9 O4 1_555 1_555
H10 O5 1_555 1_555
H11 O6 1_555 1_555
H12 O7 1_555 1_555
H13 O8 1_555 1_555
H14 O9 1_555 1_555
H15 O9 1_555 1_555
H17 O10 1_555 1_555
O5A Na1 1_555 1_555
O6A Na1 1_555 1_555
O8A Na1 1_555 1_555
Na1A O8 1_555 1_555
H13A O8A 1_555 1_555
Na1A_2 O5 1_555 1_555
H11A O6A 1_555 1_555
H10A O5A 1_555 1_555
C2 O3 1_555 1_555
C3 O4 1_555 1_555
O6 Na1A_2 1_555 1_555

#END
