
#######################################################################
#
#                 Cambridge Crystallographic Data Centre
#                                CCDC 
#
#######################################################################
#
# If this CIF has been generated from an entry in the Cambridge 
# Structural Database, then it will include bibliographic, chemical, 
# crystal, experimental, refinement or atomic coordinate data resulting 
# from the CCDC's data processing and validation procedures.
#
#######################################################################

data_WOVMID
_symmetry_cell_setting           orthorhombic
_symmetry_space_group_name_H-M   'P b c a'
_symmetry_Int_Tables_number      61
_space_group_name_Hall           '-P 2ac 2ab'
loop_
_symmetry_equiv_pos_site_id
_symmetry_equiv_pos_as_xyz
1 x,y,z
2 1/2-x,1/2+y,z
3 x,1/2-y,1/2+z
4 1/2+x,y,1/2-z
5 -x,-y,-z
6 1/2+x,1/2-y,-z
7 -x,1/2+y,1/2-z
8 1/2-x,-y,1/2+z
_cell_length_a                   17.258(4)
_cell_length_b                   17.614(4)
_cell_length_c                   6.925(2)
_cell_angle_alpha                90
_cell_angle_beta                 90
_cell_angle_gamma                90
_cell_volume                     2105.08
loop_
_atom_site_label
_atom_site_type_symbol
_atom_site_fract_x
_atom_site_fract_y
_atom_site_fract_z
Ba1 Ba -0.575790(18) -0.456840(16) 0.25324(5)
Cl1 Cl -0.24079(8) -0.22106(8) 0.2856(2)
Cl2 Cl -0.58369(8) -0.21530(8) -0.0382(2)
O1 O -0.4889(3) -0.3498(2) 0.0616(6)
O2 O -0.3428(3) -0.3542(2) 0.1928(7)
O3 O -0.3411(3) -0.0876(2) 0.2206(6)
O4 O -0.4814(2) -0.0829(2) 0.0578(6)
O5 O -0.7171(3) -0.4067(3) 0.1033(7)
O6 O -0.6898(3) -0.4552(2) 0.5604(8)
O7 O -0.4169(3) -0.4935(2) 0.1349(7)
C1 C -0.4562(3) -0.2878(3) 0.0883(8)
C2 C -0.3717(3) -0.2905(3) 0.1654(8)
C3 C -0.3351(3) -0.2205(3) 0.2014(7)
C4 C -0.3706(3) -0.1497(3) 0.1804(8)
C5 C -0.4535(3) -0.1480(3) 0.0901(8)
C6 C -0.4897(3) -0.2162(3) 0.0523(8)
O4B O -0.4814(2) -0.4171(2) 0.5578(6)
O7D O -0.5831(3) -0.5065(2) -0.1349(7)
Ba1D Ba -0.424210(18) -0.543160(16) 0.74676(5)
Ba1D_2 Ba -0.424210(18) -0.543160(16) -0.25324(5)
O3F O -0.6589(3) -0.5876(2) 0.2794(6)
O4F O -0.5186(2) -0.5829(2) 0.4422(6)
Ba1F Ba -0.424210(18) 0.043160(16) 0.24676(5)
Ba1B Ba -0.575790(18) -0.043160(16) -0.24676(5)
O4D O -0.5186(2) 0.0829(2) -0.0578(6)
loop_
_geom_bond_atom_site_label_1
_geom_bond_atom_site_label_2
_geom_bond_site_symmetry_1
_geom_bond_site_symmetry_2
Ba1 O1 1_555 1_555
Cl1 C3 1_555 1_555
Cl2 C6 1_555 1_555
O1 C1 1_555 1_555
O2 C2 1_555 1_555
O3 C4 1_555 1_555
O4 C5 1_555 1_555
O5 Ba1 1_555 1_555
O6 Ba1 1_555 1_555
O7 Ba1 1_555 1_555
C1 C2 1_555 1_555
C2 C3 1_555 1_555
C3 C4 1_555 1_555
C4 C5 1_555 1_555
C5 C6 1_555 1_555
C6 C1 1_555 1_555
O4B Ba1 1_555 1_555
O7D Ba1 1_555 1_555
Ba1D O4B 1_555 1_555
Ba1D_2 O7 1_555 1_555
O3F Ba1 1_555 1_555
O4F Ba1 1_555 1_555
Ba1F O3 1_555 1_555
Ba1B O4 1_555 1_555
O4D Ba1F 1_555 1_555
O4 Ba1F 1_555 1_555
O7D Ba1D_2 1_555 1_555
Ba1D O4F 1_555 1_555
Ba1B O4D 1_555 1_555

#END
