
#######################################################################
#
#                 Cambridge Crystallographic Data Centre
#                                CCDC 
#
#######################################################################
#
# If this CIF has been generated from an entry in the Cambridge 
# Structural Database, then it will include bibliographic, chemical, 
# crystal, experimental, refinement or atomic coordinate data resulting 
# from the CCDC's data processing and validation procedures.
#
#######################################################################

data_WOVMOJ
_symmetry_cell_setting           monoclinic
_symmetry_space_group_name_H-M   'P 21/n'
_symmetry_Int_Tables_number      14
_space_group_name_Hall           '-P 2yn'
loop_
_symmetry_equiv_pos_site_id
_symmetry_equiv_pos_as_xyz
1 x,y,z
2 1/2+x,1/2-y,1/2+z
3 -x,-y,-z
4 1/2-x,1/2+y,1/2-z
_cell_length_a                   7.3460(10)
_cell_length_b                   9.6957(6)
_cell_length_c                   14.9150(10)
_cell_angle_alpha                90
_cell_angle_beta                 94.69(3)
_cell_angle_gamma                90
_cell_volume                     1058.76
loop_
_atom_site_label
_atom_site_type_symbol
_atom_site_fract_x
_atom_site_fract_y
_atom_site_fract_z
Hg1 Hg 0.24985(5) 0.06439(4) 0.01208(3)
Cl1 Cl 0.4387(4) -0.1001(3) 0.10017(17)
Cl2 Cl 0.0541(3) -0.0193(3) -0.11823(16)
S1 S 0.2955(4) 0.5257(3) 0.11267(19)
C1 C 0.2888(13) 0.3470(10) 0.1153(6)
C2 C 0.3131(17) 0.2736(12) 0.2009(7)
H1 H 0.3311 0.3390 0.2491
H2 H 0.4178 0.2144 0.2009
H3 H 0.2064 0.2193 0.2088
N1 N 0.2620(11) 0.2916(8) 0.0373(5)
C3 C 0.2382(13) 0.3864(11) -0.0348(6)
C4 C 0.2504(11) 0.5249(13) -0.0040(6)
C5 C 0.2323(13) 0.6329(11) -0.0624(8)
H4 H 0.2443 0.7233 -0.0420
C6 C 0.1960(17) 0.6050(12) -0.1525(9)
H5 H 0.1802 0.6775 -0.1932
C7 C 0.1823(16) 0.4684(12) -0.1841(8)
H6 H 0.1573 0.4513 -0.2452
C8 C 0.2059(15) 0.3601(12) -0.1246(6)
H7 H 0.1998 0.2696 -0.1455
Cl1B Cl 0.5613(4) 0.1001(3) -0.10017(17)
Cl2B Cl -0.0541(3) 0.0193(3) 0.11823(16)
Hg1B Hg 0.75015(5) -0.06439(4) -0.01208(3)
Hg1B_2 Hg -0.24985(5) -0.06439(4) -0.01208(3)
loop_
_geom_bond_atom_site_label_1
_geom_bond_atom_site_label_2
_geom_bond_site_symmetry_1
_geom_bond_site_symmetry_2
Hg1 Cl1 1_555 1_555
Cl1 Hg1B 1_555 1_555
Cl2 Hg1 1_555 1_555
S1 C1 1_555 1_555
C1 C2 1_555 1_555
C2 H1 1_555 1_555
H2 C2 1_555 1_555
H3 C2 1_555 1_555
N1 Hg1 1_555 1_555
C3 N1 1_555 1_555
C4 S1 1_555 1_555
C5 C4 1_555 1_555
H4 C5 1_555 1_555
C6 C5 1_555 1_555
H5 C6 1_555 1_555
C7 C6 1_555 1_555
H6 C7 1_555 1_555
C8 C3 1_555 1_555
H7 C8 1_555 1_555
Cl1B Hg1 1_555 1_555
Cl2B Hg1 1_555 1_555
Hg1B Cl1B 1_555 1_555
Hg1B_2 Cl2 1_555 1_555
C1 N1 1_555 1_555
C3 C4 1_555 1_555
C7 C8 1_555 1_555
Cl2B Hg1B_2 1_555 1_555

#END
