
#######################################################################
#
#                 Cambridge Crystallographic Data Centre
#                                CCDC 
#
#######################################################################
#
# If this CIF has been generated from an entry in the Cambridge 
# Structural Database, then it will include bibliographic, chemical, 
# crystal, experimental, refinement or atomic coordinate data resulting 
# from the CCDC's data processing and validation procedures.
#
#######################################################################

data_WOVNUS
_symmetry_cell_setting           monoclinic
_symmetry_space_group_name_H-M   'C 2/c'
_symmetry_Int_Tables_number      15
_space_group_name_Hall           '-C 2yn'
loop_
_symmetry_equiv_pos_site_id
_symmetry_equiv_pos_as_xyz
1 x,y,z
2 -x,y,1/2-z
3 1/2+x,1/2+y,z
4 1/2-x,1/2+y,1/2-z
5 -x,-y,-z
6 x,-y,1/2+z
7 1/2-x,1/2-y,-z
8 1/2+x,1/2-y,1/2+z
_cell_length_a                   23.182(11)
_cell_length_b                   12.610(5)
_cell_length_c                   17.333(8)
_cell_angle_alpha                90
_cell_angle_beta                 130.001(7)
_cell_angle_gamma                90
_cell_volume                     3881.39
loop_
_atom_site_label
_atom_site_type_symbol
_atom_site_fract_x
_atom_site_fract_y
_atom_site_fract_z
Cu1 Cu 0.292514(11) 0.148243(16) 0.152315(15)
O1 O 0.15349(7) 0.21688(10) 0.01197(10)
O2 O 0.20132(6) 0.05696(9) 0.07160(9)
O3 O -0.12119(7) 0.25515(10) -0.27297(10)
O4 O -0.18695(8) 0.10879(12) -0.35792(10)
O5 O -0.03541(7) -0.17566(11) -0.10244(11)
O6 O 0.30258(7) 0.13417(9) 0.04890(9)
H1 H 0.3251 0.1808 0.0413
H2 H 0.2609 0.1290 -0.0107
N1 N 0.29626(8) 0.13685(11) 0.26994(11)
N2 N 0.28197(9) 0.16180(11) 0.38214(12)
C1 C 0.14577(9) 0.11872(14) 0.01229(12)
C2 C 0.06824(9) 0.07121(13) -0.05906(12)
C3 C 0.00920(9) 0.13190(13) -0.13777(13)
H3 H 0.0177 0.2012 -0.1465
C4 C -0.06302(9) 0.08882(14) -0.20389(12)
C5 C -0.07561(10) -0.01518(15) -0.19112(13)
H4 H -0.1235 -0.0445 -0.2365
C6 C -0.01659(10) -0.07556(14) -0.11039(13)
C7 C 0.05531(9) -0.03233(13) -0.04466(13)
H5 H 0.0949 -0.0724 0.0090
C8 C -0.12935(10) 0.15484(14) -0.28612(13)
C9 C 0.02182(10) -0.23795(14) -0.01685(15)
H6 H 0.0449 -0.1984 0.0448
H7 H 0.0606 -0.2568 -0.0205
C10 C -0.01590(13) -0.33651(16) -0.0185(2)
H8 H -0.0584 -0.3167 -0.0240
H9 H 0.0193 -0.3758 0.0427
H10 H -0.0325 -0.3797 -0.0751
C11 C 0.22990(14) 0.30367(18) 0.24936(17)
H11 H 0.2650 0.3614 0.2829
H12 H 0.1904 0.3137 0.2524
H13 H 0.2088 0.3014 0.1802
C12 C 0.26952(10) 0.20230(14) 0.29967(13)
C13 C 0.32650(11) 0.05123(14) 0.33484(15)
H14 H 0.3493 -0.0071 0.3313
C14 C 0.31792(11) 0.06508(14) 0.40353(15)
H15 H 0.3331 0.0189 0.4554
C15 C 0.23408(12) 0.14381(14) 0.47148(15)
H16 H 0.2232 0.0730 0.4521
C16 C 0.26424(10) 0.20785(13) 0.44008(13)
C17 C 0.27972(11) 0.31383(14) 0.46822(15)
H17 H 0.2995 0.3565 0.4464
N1F N 0.20374(8) 0.36315(11) 0.73006(11)
N2F N 0.21803(9) 0.33820(11) 0.61786(12)
C11F C 0.27010(14) 0.19633(18) 0.75064(17)
H11F H 0.2350 0.1386 0.7171
H12F H 0.3096 0.1863 0.7476
H13F H 0.2912 0.1986 0.8198
C12F C 0.23048(10) 0.29770(14) 0.70033(13)
C13F C 0.17350(11) 0.44877(14) 0.66516(15)
H14F H 0.1507 0.5071 0.6687
C14F C 0.18208(11) 0.43492(14) 0.59647(15)
H15F H 0.1669 0.4811 0.5446
C15F C 0.26592(12) 0.35619(14) 0.52852(15)
H16F H 0.2768 0.4270 0.5479
C16F C 0.23576(10) 0.29215(13) 0.55992(13)
C17F C 0.22028(11) 0.18617(14) 0.53178(15)
H17F H 0.2005 0.1435 0.5536
Cu1F Cu 0.207486(11) 0.351757(16) 0.847685(15)
O1F O 0.34651(7) 0.28312(10) 0.98803(10)
O2F O 0.29868(6) 0.44304(9) 0.92840(9)
O3F O 0.62119(7) 0.24485(10) 1.27297(10)
O4F O 0.68695(8) 0.39121(12) 1.35792(10)
O5F O 0.53541(7) 0.67566(11) 1.10244(11)
O6F O 0.19742(7) 0.36583(9) 0.95110(9)
H1F H 0.1749 0.3192 0.9587
H2F H 0.2391 0.3710 1.0107
C1F C 0.35423(9) 0.38128(14) 0.98771(12)
C2F C 0.43176(9) 0.42879(13) 1.05906(12)
C3F C 0.49080(9) 0.36810(13) 1.13777(13)
H3F H 0.4823 0.2988 1.1465
C4F C 0.56302(9) 0.41118(14) 1.20389(12)
C5F C 0.57561(10) 0.51518(15) 1.19112(13)
H4F H 0.6235 0.5445 1.2365
C6F C 0.51659(10) 0.57556(14) 1.11039(13)
C7F C 0.44469(9) 0.53233(13) 1.04466(13)
H5F H 0.4051 0.5724 0.9910
C8F C 0.62935(10) 0.34516(14) 1.28612(13)
C9F C 0.47818(10) 0.73795(14) 1.01685(15)
H6F H 0.4551 0.6984 0.9552
H7F H 0.4394 0.7568 1.0205
C10F C 0.51590(13) 0.83651(16) 1.0185(2)
H8F H 0.5584 0.8167 1.0240
H9F H 0.4807 0.8758 0.9573
H10F H 0.5325 0.8797 1.0751
Cu1A Cu 0.707486(11) 0.148243(16) 1.347685(15)
Cu1G Cu -0.207486(11) 0.351757(16) -0.347685(15)
O3A O 0.12119(7) 0.25515(10) 0.77297(10)
O3G O 0.37881(7) 0.24485(10) 0.22703(10)
loop_
_geom_bond_atom_site_label_1
_geom_bond_atom_site_label_2
_geom_bond_site_symmetry_1
_geom_bond_site_symmetry_2
Cu1 O1 1_555 1_555
O1 C1 1_555 1_555
O2 Cu1 1_555 1_555
O3 C8 1_555 1_555
O4 C8 1_555 1_555
O5 C6 1_555 1_555
O6 Cu1 1_555 1_555
H1 O6 1_555 1_555
H2 O6 1_555 1_555
N1 Cu1 1_555 1_555
N2 C12 1_555 1_555
C1 O2 1_555 1_555
C2 C1 1_555 1_555
C3 C2 1_555 1_555
H3 C3 1_555 1_555
C4 C3 1_555 1_555
C5 C4 1_555 1_555
H4 C5 1_555 1_555
C6 C5 1_555 1_555
C7 C2 1_555 1_555
H5 C7 1_555 1_555
C8 C4 1_555 1_555
C9 O5 1_555 1_555
H6 C9 1_555 1_555
H7 C9 1_555 1_555
C10 C9 1_555 1_555
H8 C10 1_555 1_555
H9 C10 1_555 1_555
H10 C10 1_555 1_555
C11 H11 1_555 1_555
H12 C11 1_555 1_555
H13 C11 1_555 1_555
C12 N1 1_555 1_555
C13 N1 1_555 1_555
H14 C13 1_555 1_555
C14 N2 1_555 1_555
H15 C14 1_555 1_555
C15 H16 1_555 1_555
C16 N2 1_555 1_555
C17 C16 1_555 1_555
H17 C17 1_555 1_555
N1F C12F 1_555 1_555
N2F C12F 1_555 1_555
C11F H11F 1_555 1_555
H12F C11F 1_555 1_555
H13F C11F 1_555 1_555
C12F C11F 1_555 1_555
C13F N1F 1_555 1_555
H14F C13F 1_555 1_555
C14F N2F 1_555 1_555
H15F C14F 1_555 1_555
C15F C17 1_555 1_555
H16F C15F 1_555 1_555
C16F N2F 1_555 1_555
C17F C15 1_555 1_555
H17F C17F 1_555 1_555
Cu1F N1F 1_555 1_555
O1F Cu1F 1_555 1_555
O2F Cu1F 1_555 1_555
O3F C8F 1_555 1_555
O4F C8F 1_555 1_555
O5F C6F 1_555 1_555
O6F Cu1F 1_555 1_555
H1F O6F 1_555 1_555
H2F O6F 1_555 1_555
C1F O1F 1_555 1_555
C2F C1F 1_555 1_555
C3F C2F 1_555 1_555
H3F C3F 1_555 1_555
C4F C3F 1_555 1_555
C5F C4F 1_555 1_555
H4F C5F 1_555 1_555
C6F C5F 1_555 1_555
C7F C2F 1_555 1_555
H5F C7F 1_555 1_555
C8F C4F 1_555 1_555
C9F O5F 1_555 1_555
H6F C9F 1_555 1_555
H7F C9F 1_555 1_555
C10F C9F 1_555 1_555
H8F C10F 1_555 1_555
H9F C10F 1_555 1_555
H10F C10F 1_555 1_555
Cu1A O3F 1_555 1_555
Cu1G O3 1_555 1_555
O3A Cu1F 1_555 1_555
O3G Cu1 1_555 1_555
C6 C7 1_555 1_555
C11 C12 1_555 1_555
C13 C14 1_555 1_555
C15 C16 1_555 1_555
C13F C14F 1_555 1_555
C15F C16F 1_555 1_555
C16F C17F 1_555 1_555
O2F C1F 1_555 1_555
C6F C7F 1_555 1_555

#END
