
#######################################################################
#
#                 Cambridge Crystallographic Data Centre
#                                CCDC 
#
#######################################################################
#
# If this CIF has been generated from an entry in the Cambridge 
# Structural Database, then it will include bibliographic, chemical, 
# crystal, experimental, refinement or atomic coordinate data resulting 
# from the CCDC's data processing and validation procedures.
#
#######################################################################

data_WOVNEC
_symmetry_cell_setting           monoclinic
_symmetry_space_group_name_H-M   'P 21/c'
_symmetry_Int_Tables_number      14
_space_group_name_Hall           '-P 2ybc'
loop_
_symmetry_equiv_pos_site_id
_symmetry_equiv_pos_as_xyz
1 x,y,z
2 -x,1/2+y,1/2-z
3 -x,-y,-z
4 x,1/2-y,1/2+z
_cell_length_a                   8.7922(6)
_cell_length_b                   14.9186(8)
_cell_length_c                   13.4193(10)
_cell_angle_alpha                90
_cell_angle_beta                 120.130(5)
_cell_angle_gamma                90
_cell_volume                     1522.35
loop_
_atom_site_label
_atom_site_type_symbol
_atom_site_fract_x
_atom_site_fract_y
_atom_site_fract_z
Cu1 Cu -0.32886(3) -0.039100(17) 0.55281(2)
O1 O -0.2692(2) 0.07034(11) 0.50031(14)
O2 O -0.5466(2) 0.12296(11) 0.39980(14)
O3 O -0.6946(2) 0.32461(13) 0.06894(15)
O4 O -0.4985(2) 0.43109(11) 0.10605(13)
O5 O 0.0695(2) 0.28769(18) 0.3955(2)
H1 H 0.1330 0.2553 0.4503
N1 N -0.1225(3) -0.04093(13) 0.70859(17)
N2 N 0.1395(3) -0.03237(16) 0.86010(19)
C1 C -0.3859(3) 0.12350(15) 0.43037(19)
C2 C -0.3290(3) 0.19332(16) 0.3764(2)
C3 C -0.1520(3) 0.20735(18) 0.4145(2)
H2 H -0.0670 0.1741 0.4759
C4 C -0.1022(3) 0.27073(19) 0.3613(3)
C5 C -0.2286(3) 0.32101(18) 0.2696(2)
H3 H -0.1948 0.3643 0.2347
C6 C -0.4061(3) 0.30583(16) 0.23064(19)
C7 C -0.5451(3) 0.35604(16) 0.12795(19)
C8 C -0.4564(3) 0.24280(16) 0.2841(2)
H4 H -0.5750 0.2335 0.2585
C9 C 0.1137(4) 0.0225(3) 0.6771(3)
H5 H 0.0442 0.0031 0.5985
H6 H 0.2330 0.0029 0.7076
H7 H 0.1108 0.0868 0.6803
C10 C 0.0419(3) -0.01616(17) 0.7460(2)
C11 C -0.1293(4) -0.0727(3) 0.8024(2)
H8 H -0.2295 -0.0939 0.8014
C12 C 0.0321(4) -0.0682(3) 0.8959(3)
H9 H 0.0643 -0.0860 0.9704
C13 C 0.3249(3) -0.0153(2) 0.9319(2)
C14 C 0.4372(5) -0.0845(3) 0.9722(4)
H10 H 0.3955 -0.1429 0.9531
C15 C 0.3841(5) 0.0687(3) 0.9576(5)
H11 H 0.3059 0.1165 0.9285
N1B N 1.1225(3) 0.04093(13) 1.29141(17)
N2B N 0.8605(3) 0.03237(16) 1.13990(19)
C9B C 0.8863(4) -0.0225(3) 1.3229(3)
H5B H 0.9558 -0.0031 1.4015
H6B H 0.7670 -0.0029 1.2924
H7B H 0.8892 -0.0868 1.3197
C10B C 0.9581(3) 0.01616(17) 1.2540(2)
C11B C 1.1293(4) 0.0727(3) 1.1976(2)
H8B H 1.2295 0.0939 1.1986
C12B C 0.9679(4) 0.0682(3) 1.1041(3)
H9B H 0.9357 0.0860 1.0296
C13B C 0.6751(3) 0.0153(2) 1.0681(2)
C14B C 0.5628(5) 0.0845(3) 1.0278(4)
H10B H 0.6045 0.1429 1.0469
C15B C 0.6159(5) -0.0687(3) 1.0424(5)
H11B H 0.6941 -0.1165 1.0715
Cu1B Cu -0.67114(3) 0.039100(17) 0.44719(2)
O1B O -0.7308(2) -0.07034(11) 0.49969(14)
O2B O -0.4534(2) -0.12296(11) 0.60020(14)
O3B O -0.3054(2) -0.32461(13) 0.93106(15)
O4B O -0.5015(2) -0.43109(11) 0.89395(13)
O5B O -1.0695(2) -0.28769(18) 0.6045(2)
H1B H -1.1330 -0.2553 0.5497
C1B C -0.6141(3) -0.12350(15) 0.56963(19)
C2B C -0.6710(3) -0.19332(16) 0.6236(2)
C3B C -0.8480(3) -0.20735(18) 0.5855(2)
H2B H -0.9330 -0.1741 0.5241
C4B C -0.8978(3) -0.27073(19) 0.6387(3)
C5B C -0.7714(3) -0.32101(18) 0.7304(2)
H3B H -0.8052 -0.3643 0.7653
C6B C -0.5939(3) -0.30583(16) 0.76936(19)
C7B C -0.4549(3) -0.35604(16) 0.87205(19)
C8B C -0.5436(3) -0.24280(16) 0.7159(2)
H4B H -0.4250 -0.2335 0.7415
Cu1A Cu -0.67114(3) -0.539100(17) 0.94719(2)
Cu1A_2 Cu -0.67114(3) 0.460900(17) -0.05281(2)
Cu1B_2 Cu 1.32886(3) 0.039100(17) 1.44719(2)
Cu1C Cu -0.32886(3) -0.460900(17) 1.05281(2)
Cu1C_2 Cu -0.32886(3) 0.539100(17) 0.05281(2)
O3A O -0.3054(2) -0.17539(13) 0.43106(15)
O3C O -0.6946(2) 0.17539(13) 0.56894(15)
O4A O -0.5015(2) -0.06891(11) 0.39395(13)
O4C O -0.4985(2) 0.06891(11) 0.60605(13)
N1B_2 N -0.8775(3) 0.04093(13) 0.29141(17)
loop_
_geom_bond_atom_site_label_1
_geom_bond_atom_site_label_2
_geom_bond_site_symmetry_1
_geom_bond_site_symmetry_2
Cu1 O1 1_555 1_555
O1 C1 1_555 1_555
O2 C1 1_555 1_555
O3 C7 1_555 1_555
O4 C7 1_555 1_555
O5 H1 1_555 1_555
N1 Cu1 1_555 1_555
N2 C10 1_555 1_555
C1 C2 1_555 1_555
C2 C3 1_555 1_555
C3 H2 1_555 1_555
C4 O5 1_555 1_555
C5 C4 1_555 1_555
H3 C5 1_555 1_555
C6 C5 1_555 1_555
C7 C6 1_555 1_555
C8 C2 1_555 1_555
H4 C8 1_555 1_555
C9 H5 1_555 1_555
H6 C9 1_555 1_555
H7 C9 1_555 1_555
C10 N1 1_555 1_555
C11 N1 1_555 1_555
H8 C11 1_555 1_555
C12 N2 1_555 1_555
H9 C12 1_555 1_555
C13 N2 1_555 1_555
C14 C13 1_555 1_555
H10 C14 1_555 1_555
C15 C13 1_555 1_555
H11 C15 1_555 1_555
N1B C10B 1_555 1_555
N2B C10B 1_555 1_555
C9B H5B 1_555 1_555
H6B C9B 1_555 1_555
H7B C9B 1_555 1_555
C10B C9B 1_555 1_555
C11B N1B 1_555 1_555
H8B C11B 1_555 1_555
C12B N2B 1_555 1_555
H9B C12B 1_555 1_555
C13B N2B 1_555 1_555
C14B C15 1_555 1_555
H10B C14B 1_555 1_555
C15B C14 1_555 1_555
H11B C15B 1_555 1_555
Cu1B O2 1_555 1_555
O1B Cu1B 1_555 1_555
O2B Cu1 1_555 1_555
O3B C7B 1_555 1_555
O4B C7B 1_555 1_555
O5B H1B 1_555 1_555
C1B O1B 1_555 1_555
C2B C1B 1_555 1_555
C3B C2B 1_555 1_555
H2B C3B 1_555 1_555
C4B O5B 1_555 1_555
C5B C4B 1_555 1_555
H3B C5B 1_555 1_555
C6B C5B 1_555 1_555
C7B C6B 1_555 1_555
C8B C2B 1_555 1_555
H4B C8B 1_555 1_555
Cu1A O4B 1_555 1_555
Cu1A_2 O3 1_555 1_555
Cu1B_2 N1B 1_555 1_555
Cu1C O3B 1_555 1_555
Cu1C_2 O4 1_555 1_555
O3A Cu1 1_555 1_555
O3C Cu1B 1_555 1_555
O4A Cu1 1_555 1_555
O4C Cu1 1_555 1_555
N1B_2 Cu1B 1_555 1_555
O4 Cu1A_2 1_555 1_555
C3 C4 1_555 1_555
C6 C8 1_555 1_555
C9 C10 1_555 1_555
C11 C12 1_555 1_555
C11B C12B 1_555 1_555
C13B C14B 1_555 1_555
C13B C15B 1_555 1_555
Cu1B O4A 1_555 1_555
Cu1B O4C 1_555 1_555
O2B C1B 1_555 1_555
O4B Cu1C 1_555 1_555
C3B C4B 1_555 1_555
C6B C8B 1_555 1_555

#END
