
#######################################################################
#
#                 Cambridge Crystallographic Data Centre
#                                CCDC 
#
#######################################################################
#
# If this CIF has been generated from an entry in the Cambridge 
# Structural Database, then it will include bibliographic, chemical, 
# crystal, experimental, refinement or atomic coordinate data resulting 
# from the CCDC's data processing and validation procedures.
#
#######################################################################

data_WOVPEE
_symmetry_cell_setting           monoclinic
_symmetry_space_group_name_H-M   'P 21/c'
_symmetry_Int_Tables_number      14
_space_group_name_Hall           '-P 2ybc'
loop_
_symmetry_equiv_pos_site_id
_symmetry_equiv_pos_as_xyz
1 x,y,z
2 -x,1/2+y,1/2-z
3 -x,-y,-z
4 x,1/2-y,1/2+z
_cell_length_a                   8.0867(18)
_cell_length_b                   12.969(3)
_cell_length_c                   24.467(5)
_cell_angle_alpha                90
_cell_angle_beta                 103.932(6)
_cell_angle_gamma                90
_cell_volume                     2490.52
loop_
_atom_site_label
_atom_site_type_symbol
_atom_site_fract_x
_atom_site_fract_y
_atom_site_fract_z
Zn1 Zn 0.05678(3) 0.229407(17) 0.293340(10)
Zn2 Zn 0.47970(3) 0.223529(16) 0.309410(9)
O1 O 0.26420(17) 0.13743(10) 0.31267(6)
O2 O 0.1531(2) 0.12499(11) 0.38625(7)
O3 O 0.4725(2) -0.19505(11) 0.25081(6)
O4 O 0.5555(3) -0.32246(13) 0.31091(7)
O5 O 0.4714(2) -0.18549(12) 0.49316(6)
H1 H 0.4195 -0.1534 0.5126
O6 O 0.65804(18) 0.11942(10) 0.32712(6)
O7 O 0.6380(2) 0.13938(11) 0.41478(6)
O8 O 0.9073(2) -0.19670(11) 0.27203(6)
O9 O 1.0755(2) -0.29600(11) 0.33696(6)
O10 O 0.9518(2) -0.17241(11) 0.51709(6)
H2 H 0.9039 -0.1376 0.5367
N1 N 0.4225(2) 0.34410(12) 0.35310(7)
N2 N 0.3374(2) 0.44350(12) 0.41389(7)
N3 N 0.1495(2) 0.56847(12) 0.61048(7)
N4 N 0.0330(2) 0.65971(13) 0.66694(7)
C1 C 0.2454(3) 0.08875(14) 0.35797(8)
C2 C 0.3323(3) -0.01280(14) 0.37166(8)
C3 C 0.3794(3) -0.07112(14) 0.33038(8)
H3 H 0.3632 -0.0455 0.2940
C4 C 0.4512(3) -0.16847(14) 0.34371(8)
C5 C 0.4991(3) -0.23510(15) 0.29952(9)
C6 C 0.4799(3) -0.20465(15) 0.39852(8)
H4 H 0.5299 -0.2689 0.4076
C7 C 0.4341(3) -0.14532(15) 0.43999(8)
C8 C 0.3600(3) -0.05003(15) 0.42659(8)
H5 H 0.3284 -0.0106 0.4542
C9 C 0.6910(3) 0.09080(14) 0.37936(8)
C10 C 0.7915(2) -0.00678(14) 0.39385(8)
C11 C 0.8372(3) -0.06627(14) 0.35239(8)
H6 H 0.8078 -0.0449 0.3150
C12 C 0.9267(2) -0.15751(14) 0.36709(8)
C13 C 0.9761(3) -0.22262(14) 0.32273(9)
C14 C 0.9669(3) -0.19048(15) 0.42284(8)
H7 H 1.0285 -0.2510 0.4327
C15 C 0.9155(3) -0.13340(15) 0.46359(8)
C16 C 0.8308(3) -0.04087(15) 0.44956(8)
H8 H 0.8001 -0.0014 0.4773
C17 C 0.3845(3) 0.34759(15) 0.40243(8)
H9 H 0.3896 0.2913 0.4263
C18 C 0.4007(3) 0.44372(15) 0.33163(9)
H10 H 0.4188 0.4648 0.2972
C19 C 0.3491(3) 0.50491(16) 0.36895(9)
H11 H 0.3257 0.5751 0.3651
C20 C 0.2893(3) 0.47542(14) 0.46382(8)
C21 C 0.2729(3) 0.57914(16) 0.47441(9)
H12 H 0.2912 0.6280 0.4486
C22 C 0.2295(3) 0.61070(16) 0.52322(9)
H13 H 0.2203 0.6806 0.5305
C23 C 0.1999(2) 0.53781(15) 0.56106(8)
C24 C 0.2165(3) 0.43405(16) 0.55023(9)
H14 H 0.1969 0.3851 0.5757
C25 C 0.2615(3) 0.40277(16) 0.50209(9)
H15 H 0.2733 0.3329 0.4953
C26 C 0.1548(3) 0.50911(16) 0.65803(9)
H16 H 0.1995 0.4430 0.6650
C27 C 0.0830(3) 0.56548(16) 0.69198(9)
H17 H 0.0690 0.5445 0.7269
C28 C 0.0752(3) 0.65894(15) 0.61816(8)
H18 H 0.0565 0.7132 0.5926
O11 O -0.1152(2) 0.12329(12) 0.25957(7)
H19 H -0.201(3) 0.115(2) 0.2722(12)
H20 H -0.149(4) 0.140(3) 0.2251(8)
Zn1A Zn 0.94322(3) -0.270593(17) 0.206660(10)
Zn1B Zn -0.05678(3) 0.770593(17) 0.706660(10)
Zn2A Zn 0.52030(3) -0.276471(16) 0.190590(9)
O3A O 0.5275(2) 0.30495(11) 0.24919(6)
O8A O 0.0927(2) 0.30330(11) 0.22797(6)
N4B N -0.0330(2) 0.34029(13) 0.33306(7)
loop_
_geom_bond_atom_site_label_1
_geom_bond_atom_site_label_2
_geom_bond_site_symmetry_1
_geom_bond_site_symmetry_2
Zn1 O1 1_555 1_555
Zn2 O1 1_555 1_555
O1 C1 1_555 1_555
O2 C1 1_555 1_555
O3 C5 1_555 1_555
O4 C5 1_555 1_555
O5 H1 1_555 1_555
O6 Zn2 1_555 1_555
O7 C9 1_555 1_555
O8 C13 1_555 1_555
O9 C13 1_555 1_555
O10 H2 1_555 1_555
N1 Zn2 1_555 1_555
N2 C17 1_555 1_555
N3 C23 1_555 1_555
N4 C27 1_555 1_555
C1 C2 1_555 1_555
C2 C3 1_555 1_555
C3 H3 1_555 1_555
C4 C3 1_555 1_555
C5 C4 1_555 1_555
C6 C4 1_555 1_555
H4 C6 1_555 1_555
C7 O5 1_555 1_555
C8 C2 1_555 1_555
H5 C8 1_555 1_555
C9 O6 1_555 1_555
C10 C9 1_555 1_555
C11 C10 1_555 1_555
H6 C11 1_555 1_555
C12 C11 1_555 1_555
C13 C12 1_555 1_555
C14 C12 1_555 1_555
H7 C14 1_555 1_555
C15 O10 1_555 1_555
C16 C10 1_555 1_555
H8 C16 1_555 1_555
C17 N1 1_555 1_555
H9 C17 1_555 1_555
C18 N1 1_555 1_555
H10 C18 1_555 1_555
C19 N2 1_555 1_555
H11 C19 1_555 1_555
C20 N2 1_555 1_555
C21 C20 1_555 1_555
H12 C21 1_555 1_555
C22 C21 1_555 1_555
H13 C22 1_555 1_555
C23 C22 1_555 1_555
C24 C23 1_555 1_555
H14 C24 1_555 1_555
C25 C20 1_555 1_555
H15 C25 1_555 1_555
C26 N3 1_555 1_555
H16 C26 1_555 1_555
C27 C26 1_555 1_555
H17 C27 1_555 1_555
C28 N3 1_555 1_555
H18 C28 1_555 1_555
O11 Zn1 1_555 1_555
H19 O11 1_555 1_555
H20 O11 1_555 1_555
Zn1A O8 1_555 1_555
Zn1B N4 1_555 1_555
Zn2A O3 1_555 1_555
O3A Zn2 1_555 1_555
O8A Zn1 1_555 1_555
N4B Zn1 1_555 1_555
N4 C28 1_555 1_555
C6 C7 1_555 1_555
C7 C8 1_555 1_555
C14 C15 1_555 1_555
C15 C16 1_555 1_555
C18 C19 1_555 1_555
C24 C25 1_555 1_555

#END
