
#######################################################################
#
#                 Cambridge Crystallographic Data Centre
#                                CCDC 
#
#######################################################################
#
# If this CIF has been generated from an entry in the Cambridge 
# Structural Database, then it will include bibliographic, chemical, 
# crystal, experimental, refinement or atomic coordinate data resulting 
# from the CCDC's data processing and validation procedures.
#
#######################################################################

data_WOVPII
_symmetry_cell_setting           triclinic
_symmetry_space_group_name_H-M   'P -1'
_symmetry_Int_Tables_number      2
_space_group_name_Hall           '-P 1'
loop_
_symmetry_equiv_pos_site_id
_symmetry_equiv_pos_as_xyz
1 x,y,z
2 -x,-y,-z
_cell_length_a                   9.926(5)
_cell_length_b                   9.994(7)
_cell_length_c                   11.941(7)
_cell_angle_alpha                82.91(3)
_cell_angle_beta                 68.40(2)
_cell_angle_gamma                61.818(19)
_cell_volume                     968.964
loop_
_atom_site_label
_atom_site_type_symbol
_atom_site_fract_x
_atom_site_fract_y
_atom_site_fract_z
Mn1 Mn 0.49040(4) 0.18012(3) 0.89453(3)
O1 O 0.3866(2) 0.06447(18) 0.84660(14)
O2 O 0.3875(2) -0.1101(2) 0.98235(14)
O3 O 0.4948(2) -0.61083(18) 0.84791(17)
O4 O 0.4236(2) -0.62448(19) 0.69460(19)
O5 O 0.4340(3) -0.15222(18) 0.47599(15)
H1 H 0.4685 -0.2232 0.4282
N1 N 0.2540(2) 0.3160(2) 1.04388(18)
N2 N 0.0926(2) 0.4715(2) 1.20640(17)
N3 N -0.1009(2) 0.8605(2) 1.59944(16)
N4 N -0.2706(2) 1.0279(2) 1.75527(16)
C1 C 0.2412(3) 0.4119(3) 1.1175(2)
H2 H 0.3240 0.4359 1.1097
C2 C 0.1069(3) 0.3140(3) 1.0871(2)
H3 H 0.0806 0.2551 1.0530
C3 C 0.0056(3) 0.4091(3) 1.1859(2)
H4 H -0.1013 0.4287 1.2312
C4 C 0.0423(3) 0.5710(2) 1.30644(19)
C5 C -0.1155(3) 0.6878(3) 1.3504(2)
H5 H -0.1905 0.7031 1.3150
C6 C -0.1611(3) 0.7817(3) 1.4475(2)
H6 H -0.2673 0.8600 1.4776
C7 C -0.0498(3) 0.7600(2) 1.49991(18)
C8 C 0.1073(3) 0.6425(3) 1.4571(2)
H7 H 0.1818 0.6271 1.4930
C9 C 0.1531(3) 0.5483(3) 1.3606(2)
H8 H 0.2588 0.4690 1.3315
C10 C -0.2557(3) 0.9330(2) 1.67888(18)
H9 H -0.3413 0.9177 1.6795
C11 C -0.1160(3) 1.0159(3) 1.7232(2)
H10 H -0.0886 1.0699 1.7615
C12 C -0.0105(3) 0.9137(3) 1.6276(2)
H11 H 0.1002 0.8850 1.5888
C13 C 0.3862(2) -0.0596(2) 0.88121(18)
C14 C 0.3893(2) -0.1567(2) 0.79252(17)
C15 C 0.4015(3) -0.1098(2) 0.67614(18)
H12 H 0.3971 -0.0151 0.6566
C16 C 0.4203(3) -0.2036(2) 0.58896(18)
C17 C 0.4261(3) -0.3447(2) 0.61922(19)
H13 H 0.4347 -0.4063 0.5620
C18 C 0.4190(2) -0.3945(2) 0.73452(19)
C19 C 0.3987(2) -0.2997(2) 0.82154(18)
H14 H 0.3914 -0.3315 0.8992
C20 C 0.4471(3) -0.5560(2) 0.7600(2)
Mn1_2 Mn -0.50960(4) 1.18012(3) 1.89453(3)
Mn1_3 Mn 0.49040(4) -0.81988(3) 0.89453(3)
Mn1A Mn 0.50960(4) -0.18012(3) 1.10547(3)
O2A O 0.6125(2) 0.1101(2) 1.01765(14)
O3_2 O 0.4948(2) 0.38917(18) 0.84791(17)
N4_2 N 0.7294(2) 0.0279(2) 0.75527(16)
loop_
_geom_bond_atom_site_label_1
_geom_bond_atom_site_label_2
_geom_bond_site_symmetry_1
_geom_bond_site_symmetry_2
Mn1 O1 1_555 1_555
O1 C13 1_555 1_555
O2 C13 1_555 1_555
O3 C20 1_555 1_555
O4 C20 1_555 1_555
O5 H1 1_555 1_555
N1 Mn1 1_555 1_555
N2 C1 1_555 1_555
N3 C7 1_555 1_555
N4 C10 1_555 1_555
C1 N1 1_555 1_555
H2 C1 1_555 1_555
C2 N1 1_555 1_555
H3 C2 1_555 1_555
C3 N2 1_555 1_555
H4 C3 1_555 1_555
C4 N2 1_555 1_555
C5 C4 1_555 1_555
H5 C5 1_555 1_555
C6 C5 1_555 1_555
H6 C6 1_555 1_555
C7 C6 1_555 1_555
C8 C7 1_555 1_555
H7 C8 1_555 1_555
C9 C4 1_555 1_555
H8 C9 1_555 1_555
C10 N3 1_555 1_555
H9 C10 1_555 1_555
C11 N4 1_555 1_555
H10 C11 1_555 1_555
C12 N3 1_555 1_555
H11 C12 1_555 1_555
C13 C14 1_555 1_555
C14 C15 1_555 1_555
C15 H12 1_555 1_555
C16 O5 1_555 1_555
C17 C16 1_555 1_555
H13 C17 1_555 1_555
C18 C17 1_555 1_555
C19 C14 1_555 1_555
H14 C19 1_555 1_555
C20 C18 1_555 1_555
Mn1_2 N4 1_555 1_555
Mn1_3 O3 1_555 1_555
Mn1A O2 1_555 1_555
O2A Mn1 1_555 1_555
O3_2 Mn1 1_555 1_555
N4_2 Mn1 1_555 1_555
C2 C3 1_555 1_555
C8 C9 1_555 1_555
C11 C12 1_555 1_555
C15 C16 1_555 1_555
C18 C19 1_555 1_555

#END
