
#######################################################################
#
#                 Cambridge Crystallographic Data Centre
#                                CCDC 
#
#######################################################################
#
# If this CIF has been generated from an entry in the Cambridge 
# Structural Database, then it will include bibliographic, chemical, 
# crystal, experimental, refinement or atomic coordinate data resulting 
# from the CCDC's data processing and validation procedures.
#
#######################################################################

data_WOVROQ
_symmetry_cell_setting           triclinic
_symmetry_space_group_name_H-M   'P -1'
_symmetry_Int_Tables_number      2
_space_group_name_Hall           '-P 1'
loop_
_symmetry_equiv_pos_site_id
_symmetry_equiv_pos_as_xyz
1 x,y,z
2 -x,-y,-z
_cell_length_a                   7.751(2)
_cell_length_b                   12.916(3)
_cell_length_c                   14.603(4)
_cell_angle_alpha                83.875(6)
_cell_angle_beta                 88.192(7)
_cell_angle_gamma                74.126(6)
_cell_volume                     1398.15
loop_
_atom_site_label
_atom_site_type_symbol
_atom_site_fract_x
_atom_site_fract_y
_atom_site_fract_z
Cu1 Cu 0.5000 0.5000 1.0000
Cu2 Cu 1.0000 0.0000 0.5000
O1 O 0.5993(4) 0.4994(2) 0.87327(16)
O2 O 0.5784(4) 0.3318(2) 0.90120(19)
O3 O 0.8392(4) 0.0791(2) 0.6557(2)
O4 O 0.9314(4) 0.1511(2) 0.52610(17)
O5 O 0.7124(5) 0.5564(2) 0.54093(18)
N1 N 0.2581(4) 0.5368(3) 0.9443(2)
N2 N 0.0145(5) 0.6177(3) 0.8674(2)
N3 N -0.5299(5) 0.9154(3) 0.6548(2)
N4 N -0.7731(4) 0.9761(3) 0.5714(2)
C1 C 0.6127(5) 0.4055(3) 0.8492(2)
C2 C 0.6721(5) 0.3881(3) 0.7514(2)
C3 C 0.7329(5) 0.2847(3) 0.7237(3)
H1 H 0.7340 0.2248 0.7654
C4 C 0.7916(5) 0.2705(3) 0.6351(2)
C5 C 0.8591(5) 0.1582(3) 0.6051(3)
C6 C 0.7861(5) 0.3589(3) 0.5717(2)
H2 H 0.8240 0.3486 0.5114
C7 C 0.7242(5) 0.4626(3) 0.5978(3)
C8 C 0.6678(5) 0.4775(3) 0.6880(2)
H3 H 0.6274 0.5470 0.7060
C9 C 0.7542(6) 0.5479(3) 0.4463(3)
H4 H 0.6748 0.5137 0.4186
H5 H 0.8769 0.5050 0.4390
C10 C 0.7296(7) 0.6623(4) 0.4014(3)
H6 H 0.8046 0.6964 0.4327
H7 H 0.6058 0.7033 0.4088
C11 C 0.7770(8) 0.6666(5) 0.2989(3)
H8 H 0.9029 0.6335 0.2915
H9 H 0.7485 0.7407 0.2727
H10 H 0.7094 0.6285 0.2682
C12 C 0.1957(8) 0.7386(4) 0.9128(4)
H11 H 0.1504 0.7674 0.9694
H12 H 0.1381 0.7876 0.8617
H13 H 0.3228 0.7296 0.9093
C13 C 0.1585(6) 0.6322(4) 0.9097(3)
C14 C 0.1773(5) 0.4595(3) 0.9237(3)
H14 H 0.2198 0.3854 0.9402
C15 C 0.0259(6) 0.5091(4) 0.8755(3)
H15 H -0.0543 0.4763 0.8525
C16 C -0.1215(6) 0.7000(4) 0.8131(3)
C17 C -0.2341(7) 0.7836(4) 0.8529(3)
H16 H -0.2199 0.7921 0.9144
C18 C -0.3702(7) 0.8561(4) 0.8010(3)
H17 H -0.4488 0.9133 0.8274
C19 C -0.3870(6) 0.8422(3) 0.7107(3)
C20 C -0.2734(6) 0.7585(4) 0.6705(3)
H18 H -0.2863 0.7501 0.6089
C21 C -0.1389(6) 0.6866(4) 0.7235(3)
H19 H -0.0605 0.6290 0.6976
C22 C -0.7057(7) 0.7831(4) 0.6408(3)
H20 H -0.8324 0.7908 0.6403
H21 H -0.6579 0.7513 0.7003
H22 H -0.6481 0.7373 0.5948
C23 C -0.6727(6) 0.8905(3) 0.6207(3)
C24 C -0.6905(6) 1.0577(3) 0.5744(3)
H23 H -0.7324 1.1274 0.5451
C25 C -0.5403(6) 1.0222(4) 0.6259(4)
H24 H -0.4611 1.0612 0.6390
N1A N -0.2581(4) 0.4632(3) 0.0557(2)
N2A N -0.0145(5) 0.3823(3) 0.1326(2)
N3A N 0.5299(5) 0.0846(3) 0.3452(2)
N4A N 0.7731(4) 0.0239(3) 0.4286(2)
C12A C -0.1957(8) 0.2614(4) 0.0872(4)
H11A H -0.1504 0.2326 0.0306
H12A H -0.1381 0.2124 0.1383
H13A H -0.3228 0.2704 0.0907
C13A C -0.1585(6) 0.3678(4) 0.0903(3)
C14A C -0.1773(5) 0.5405(3) 0.0763(3)
H14A H -0.2198 0.6146 0.0598
C15A C -0.0259(6) 0.4909(4) 0.1245(3)
H15A H 0.0543 0.5237 0.1475
C16A C 0.1215(6) 0.3000(4) 0.1869(3)
C17A C 0.2341(7) 0.2164(4) 0.1471(3)
H16A H 0.2199 0.2079 0.0856
C18A C 0.3702(7) 0.1439(4) 0.1990(3)
H17A H 0.4488 0.0867 0.1726
C19A C 0.3870(6) 0.1578(3) 0.2893(3)
C20A C 0.2734(6) 0.2415(4) 0.3295(3)
H18A H 0.2863 0.2499 0.3911
C21A C 0.1389(6) 0.3134(4) 0.2765(3)
H19A H 0.0605 0.3710 0.3024
C22A C 0.7057(7) 0.2169(4) 0.3592(3)
H20A H 0.8324 0.2092 0.3597
H21A H 0.6579 0.2487 0.2997
H22A H 0.6481 0.2627 0.4052
C23A C 0.6727(6) 0.1095(3) 0.3793(3)
C24A C 0.6905(6) -0.0577(3) 0.4256(3)
H23A H 0.7324 -0.1274 0.4549
C25A C 0.5403(6) -0.0222(4) 0.3741(4)
H24A H 0.4611 -0.0612 0.3610
O1A O 0.4007(4) 0.5006(2) 1.12673(16)
O2A O 0.4216(4) 0.6682(2) 1.09880(19)
O3A O 0.1608(4) 0.9209(2) 1.3443(2)
O4A O 0.0686(4) 0.8489(2) 1.47390(17)
O5A O 0.2876(5) 0.4436(2) 1.45907(18)
C1A C 0.3873(5) 0.5945(3) 1.1508(2)
C2A C 0.3279(5) 0.6119(3) 1.2486(2)
C3A C 0.2671(5) 0.7153(3) 1.2763(3)
H1A H 0.2660 0.7752 1.2346
C4A C 0.2084(5) 0.7295(3) 1.3649(2)
C5A C 0.1409(5) 0.8418(3) 1.3949(3)
C6A C 0.2139(5) 0.6411(3) 1.4283(2)
H2A H 0.1760 0.6514 1.4886
C7A C 0.2758(5) 0.5374(3) 1.4022(3)
C8A C 0.3322(5) 0.5225(3) 1.3120(2)
H3A H 0.3726 0.4530 1.2940
C9A C 0.2458(6) 0.4521(3) 1.5537(3)
H4A H 0.3252 0.4863 1.5814
H5A H 0.1231 0.4950 1.5610
C10A C 0.2704(7) 0.3377(4) 1.5986(3)
H6A H 0.1954 0.3036 1.5673
H7A H 0.3942 0.2967 1.5912
C11A C 0.2230(8) 0.3334(5) 1.7011(3)
H8A H 0.0971 0.3665 1.7085
H9A H 0.2515 0.2593 1.7273
H10A H 0.2906 0.3715 1.7318
Cu1_2 Cu -0.5000 0.5000 0.0000
Cu2_2 Cu -1.0000 1.0000 0.5000
Cu2_3 Cu 0.0000 1.0000 1.5000
O3A_2 O 1.1608(4) -0.0791(2) 0.3443(2)
O4A_2 O 1.0686(4) -0.1511(2) 0.47390(17)
N1A_2 N 0.7419(4) 0.4632(3) 1.0557(2)
N4_2 N 1.2269(4) -0.0239(3) 0.5714(2)
O6 O 0.2692(11) 0.0374(7) 0.9360(6)
O7 O 0.9676(9) 0.0099(4) 0.8413(4)
O8 O 0.5653(13) 0.1156(5) 0.9236(5)
loop_
_geom_bond_atom_site_label_1
_geom_bond_atom_site_label_2
_geom_bond_site_symmetry_1
_geom_bond_site_symmetry_2
Cu1 O1 1_555 1_555
Cu2 O3 1_555 1_555
O1 C1 1_555 1_555
O2 Cu1 1_555 1_555
O3 C5 1_555 1_555
O4 Cu2 1_555 1_555
O5 C7 1_555 1_555
N1 Cu1 1_555 1_555
N2 C13 1_555 1_555
N3 C19 1_555 1_555
N4 C23 1_555 1_555
C1 O2 1_555 1_555
C2 C1 1_555 1_555
C3 C2 1_555 1_555
H1 C3 1_555 1_555
C4 C3 1_555 1_555
C5 O4 1_555 1_555
C6 C4 1_555 1_555
H2 C6 1_555 1_555
C7 C6 1_555 1_555
C8 C2 1_555 1_555
H3 C8 1_555 1_555
C9 O5 1_555 1_555
H4 C9 1_555 1_555
H5 C9 1_555 1_555
C10 C9 1_555 1_555
H6 C10 1_555 1_555
H7 C10 1_555 1_555
C11 C10 1_555 1_555
H8 C11 1_555 1_555
H9 C11 1_555 1_555
H10 C11 1_555 1_555
C12 H11 1_555 1_555
H12 C12 1_555 1_555
H13 C12 1_555 1_555
C13 N1 1_555 1_555
C14 N1 1_555 1_555
H14 C14 1_555 1_555
C15 N2 1_555 1_555
H15 C15 1_555 1_555
C16 N2 1_555 1_555
C17 C16 1_555 1_555
H16 C17 1_555 1_555
C18 C17 1_555 1_555
H17 C18 1_555 1_555
C19 C18 1_555 1_555
C20 C19 1_555 1_555
H18 C20 1_555 1_555
C21 C16 1_555 1_555
H19 C21 1_555 1_555
C22 H20 1_555 1_555
H21 C22 1_555 1_555
H22 C22 1_555 1_555
C23 N3 1_555 1_555
C24 N4 1_555 1_555
H23 C24 1_555 1_555
C25 N3 1_555 1_555
H24 C25 1_555 1_555
N1A C13A 1_555 1_555
N2A C13A 1_555 1_555
N3A C19A 1_555 1_555
N4A Cu2 1_555 1_555
C12A H11A 1_555 1_555
H12A C12A 1_555 1_555
H13A C12A 1_555 1_555
C13A C12A 1_555 1_555
C14A N1A 1_555 1_555
H14A C14A 1_555 1_555
C15A N2A 1_555 1_555
H15A C15A 1_555 1_555
C16A N2A 1_555 1_555
C17A C16A 1_555 1_555
H16A C17A 1_555 1_555
C18A C17A 1_555 1_555
H17A C18A 1_555 1_555
C19A C18A 1_555 1_555
C20A C19A 1_555 1_555
H18A C20A 1_555 1_555
C21A C16A 1_555 1_555
H19A C21A 1_555 1_555
C22A H20A 1_555 1_555
H21A C22A 1_555 1_555
H22A C22A 1_555 1_555
C23A N3A 1_555 1_555
C24A N4A 1_555 1_555
H23A C24A 1_555 1_555
C25A N3A 1_555 1_555
H24A C25A 1_555 1_555
O1A Cu1 1_555 1_555
O2A Cu1 1_555 1_555
O3A C5A 1_555 1_555
O4A C5A 1_555 1_555
O5A C7A 1_555 1_555
C1A O1A 1_555 1_555
C2A C1A 1_555 1_555
C3A C2A 1_555 1_555
H1A C3A 1_555 1_555
C4A C3A 1_555 1_555
C5A C4A 1_555 1_555
C6A C4A 1_555 1_555
H2A C6A 1_555 1_555
C7A C6A 1_555 1_555
C8A C2A 1_555 1_555
H3A C8A 1_555 1_555
C9A O5A 1_555 1_555
H4A C9A 1_555 1_555
H5A C9A 1_555 1_555
C10A C9A 1_555 1_555
H6A C10A 1_555 1_555
H7A C10A 1_555 1_555
C11A C10A 1_555 1_555
H8A C11A 1_555 1_555
H9A C11A 1_555 1_555
H10A C11A 1_555 1_555
Cu1_2 N1A 1_555 1_555
Cu2_2 N4 1_555 1_555
Cu2_3 O3A 1_555 1_555
O3A_2 Cu2 1_555 1_555
O4A_2 Cu2 1_555 1_555
N1A_2 Cu1 1_555 1_555
N4_2 Cu2 1_555 1_555
C4 C5 1_555 1_555
C7 C8 1_555 1_555
C12 C13 1_555 1_555
C14 C15 1_555 1_555
C20 C21 1_555 1_555
C22 C23 1_555 1_555
C24 C25 1_555 1_555
N4A C23A 1_555 1_555
C14A C15A 1_555 1_555
C20A C21A 1_555 1_555
C22A C23A 1_555 1_555
C24A C25A 1_555 1_555
O2A C1A 1_555 1_555
O4A Cu2_3 1_555 1_555
C7A C8A 1_555 1_555

#END
