
#######################################################################
#
#                 Cambridge Crystallographic Data Centre
#                                CCDC 
#
#######################################################################
#
# If this CIF has been generated from an entry in the Cambridge 
# Structural Database, then it will include bibliographic, chemical, 
# crystal, experimental, refinement or atomic coordinate data resulting 
# from the CCDC's data processing and validation procedures.
#
#######################################################################

data_WOVSEH
_symmetry_cell_setting           triclinic
_symmetry_space_group_name_H-M   'P -1'
_symmetry_Int_Tables_number      2
_space_group_name_Hall           '-P 1'
loop_
_symmetry_equiv_pos_site_id
_symmetry_equiv_pos_as_xyz
1 x,y,z
2 -x,-y,-z
_cell_length_a                   10.229(3)
_cell_length_b                   10.294(3)
_cell_length_c                   12.220(3)
_cell_angle_alpha                85.672(11)
_cell_angle_beta                 74.666(9)
_cell_angle_gamma                69.355(7)
_cell_volume                     1161.01
loop_
_atom_site_label
_atom_site_type_symbol
_atom_site_fract_x
_atom_site_fract_y
_atom_site_fract_z
Co1 Co 0.51806(3) 0.57034(3) 0.68395(2)
O1 O 0.56820(19) 0.72631(17) 0.73970(14)
O2 O 0.4788(3) 0.8952(2) 0.6275(2)
O3 O 0.49993(19) 1.36599(17) 0.66481(13)
O4 O 0.59221(19) 1.40387(17) 0.79698(14)
O5 O 0.7348(2) 0.94252(19) 0.99889(15)
N1 N 0.7171(2) 0.5006(2) 0.55721(16)
N2 N 0.8789(2) 0.4911(2) 0.39541(16)
N3 N 1.1441(2) 0.6350(2) -0.03847(16)
N4 N 1.3131(2) 0.6316(2) -0.19525(16)
C1 C 0.5384(3) 0.8494(3) 0.7055(2)
C2 C 0.5761(3) 0.9487(2) 0.76569(19)
C3 C 0.5469(3) 1.0862(3) 0.7303(2)
H1 H 0.5047 1.1163 0.6701
C4 C 0.5816(3) 1.1774(2) 0.78597(18)
C5 C 0.5563(3) 1.3237(2) 0.74768(18)
C6 C 0.6451(3) 1.1329(3) 0.87694(19)
H2 H 0.6683 1.1942 0.9140
C7 C 0.6728(3) 0.9966(3) 0.91110(19)
C8 C 0.6390(3) 0.9048(2) 0.85550(19)
H3 H 0.6587 0.8133 0.8787
C9 C 0.7736(4) 1.0327(3) 1.0563(2)
H4 H 0.8462 1.0616 1.0044
H5 H 0.8107 0.9847 1.1181
H6 H 0.6899 1.1126 1.0852
C10 C 0.7507(3) 0.5660(3) 0.46309(19)
H7 H 0.6930 0.6532 0.4456
C11 C 0.8291(3) 0.3781(3) 0.5487(2)
H8 H 0.8349 0.3094 0.6030
C12 C 0.9301(3) 0.3700(3) 0.4507(2)
H9 H 1.0169 0.2973 0.4255
C13 C 0.9457(3) 0.5288(3) 0.28545(19)
C14 C 1.0945(3) 0.4792(3) 0.2468(2)
H10 H 1.1506 0.4219 0.2922
C15 C 1.1598(3) 0.5152(3) 0.1404(2)
H11 H 1.2600 0.4827 0.1144
C16 C 1.0755(3) 0.5999(3) 0.07231(18)
C17 C 0.9269(3) 0.6495(3) 0.1117(2)
H12 H 0.8707 0.7072 0.0666
C18 C 0.8611(3) 0.6135(3) 0.2184(2)
H13 H 0.7610 0.6461 0.2446
C19 C 1.2852(3) 0.5816(3) -0.0919(2)
H14 H 1.3546 0.5174 -0.0602
C20 C 1.1825(3) 0.7205(3) -0.2082(2)
H15 H 1.1684 0.7708 -0.2732
C21 C 1.0774(3) 0.7247(3) -0.1134(2)
H16 H 0.9797 0.7773 -0.1008
O6 O 0.41031(19) 0.69622(18) 0.56733(13)
H17 H 0.4354 0.7661 0.5698
H18 H 0.4481 0.6822 0.4964
Co1_2 Co 0.51806(3) 1.57034(3) 0.68395(2)
Co1_3 Co 1.51806(3) 0.57034(3) -0.31605(2)
O3_2 O 0.49993(19) 0.36599(17) 0.66481(13)
O4_2 O 0.59221(19) 0.40387(17) 0.79698(14)
N4_2 N 0.3131(2) 0.6316(2) 0.80475(16)
loop_
_geom_bond_atom_site_label_1
_geom_bond_atom_site_label_2
_geom_bond_site_symmetry_1
_geom_bond_site_symmetry_2
Co1 O1 1_555 1_555
O1 C1 1_555 1_555
O2 C1 1_555 1_555
O3 C5 1_555 1_555
O4 C5 1_555 1_555
O5 C7 1_555 1_555
N1 Co1 1_555 1_555
N2 C10 1_555 1_555
N3 C16 1_555 1_555
N4 C19 1_555 1_555
C1 C2 1_555 1_555
C2 C3 1_555 1_555
C3 H1 1_555 1_555
C4 C3 1_555 1_555
C5 C4 1_555 1_555
C6 C4 1_555 1_555
H2 C6 1_555 1_555
C7 C6 1_555 1_555
C8 C2 1_555 1_555
H3 C8 1_555 1_555
C9 O5 1_555 1_555
H4 C9 1_555 1_555
H5 C9 1_555 1_555
H6 C9 1_555 1_555
C10 N1 1_555 1_555
H7 C10 1_555 1_555
C11 N1 1_555 1_555
H8 C11 1_555 1_555
C12 N2 1_555 1_555
H9 C12 1_555 1_555
C13 N2 1_555 1_555
C14 C13 1_555 1_555
H10 C14 1_555 1_555
C15 C14 1_555 1_555
H11 C15 1_555 1_555
C16 C15 1_555 1_555
C17 C16 1_555 1_555
H12 C17 1_555 1_555
C18 C13 1_555 1_555
H13 C18 1_555 1_555
C19 N3 1_555 1_555
H14 C19 1_555 1_555
C20 N4 1_555 1_555
H15 C20 1_555 1_555
C21 N3 1_555 1_555
H16 C21 1_555 1_555
O6 Co1 1_555 1_555
H17 O6 1_555 1_555
H18 O6 1_555 1_555
Co1_2 O3 1_555 1_555
Co1_3 N4 1_555 1_555
O3_2 Co1 1_555 1_555
O4_2 Co1 1_555 1_555
N4_2 Co1 1_555 1_555
O4 Co1_2 1_555 1_555
C7 C8 1_555 1_555
C11 C12 1_555 1_555
C17 C18 1_555 1_555
C20 C21 1_555 1_555

#END
