
#######################################################################
#
#                 Cambridge Crystallographic Data Centre
#                                CCDC 
#
#######################################################################
#
# If this CIF has been generated from an entry in the Cambridge 
# Structural Database, then it will include bibliographic, chemical, 
# crystal, experimental, refinement or atomic coordinate data resulting 
# from the CCDC's data processing and validation procedures.
#
#######################################################################

data_WOVSIL
_symmetry_cell_setting           monoclinic
_symmetry_space_group_name_H-M   'C 2/c'
_symmetry_Int_Tables_number      15
_space_group_name_Hall           '-C 2yn'
loop_
_symmetry_equiv_pos_site_id
_symmetry_equiv_pos_as_xyz
1 x,y,z
2 -x,y,1/2-z
3 1/2+x,1/2+y,z
4 1/2-x,1/2+y,1/2-z
5 -x,-y,-z
6 x,-y,1/2+z
7 1/2-x,1/2-y,-z
8 1/2+x,1/2-y,1/2+z
_cell_length_a                   20.8887(16)
_cell_length_b                   15.0807(6)
_cell_length_c                   16.2939(11)
_cell_angle_alpha                90
_cell_angle_beta                 128.624(2)
_cell_angle_gamma                90
_cell_volume                     4010.08
loop_
_atom_site_label
_atom_site_type_symbol
_atom_site_fract_x
_atom_site_fract_y
_atom_site_fract_z
Mn1 Mn 0.172571(18) 0.861107(17) 0.98524(2)
O1 O 0.19928(11) 0.85936(9) 0.87791(12)
O2 O 0.23196(9) 0.71737(9) 0.88834(11)
O3 O 0.24152(10) 1.01171(9) 0.55271(12)
O4 O 0.16781(10) 1.05274(9) 0.59996(13)
O5 O 0.27898(12) 0.68741(10) 0.61788(14)
N1 N 0.08047(12) 0.75193(12) 0.92179(15)
N2 N 0.02569(11) 0.61790(12) 0.87951(15)
N3 N 0.01142(11) 0.24640(12) 0.89181(16)
N4 N -0.01499(18) 0.11130(18) 0.9122(2)
C1 C 0.21841(12) 0.79395(12) 0.85020(14)
C2 C 0.22699(12) 0.80885(12) 0.76572(14)
C3 C 0.21331(12) 0.89242(12) 0.72140(15)
H1 H 0.1967 0.9390 0.7417
C4 C 0.22447(12) 0.90622(12) 0.64675(15)
C5 C 0.21053(13) 0.99627(12) 0.59742(15)
C6 C 0.24664(14) 0.83606(13) 0.61429(16)
H2 H 0.2538 0.8452 0.5640
C7 C 0.25819(14) 0.75187(13) 0.65679(16)
C8 C 0.24894(13) 0.73777(12) 0.73296(16)
H3 H 0.2572 0.6817 0.7619
C9 C 0.28246(19) 0.59806(14) 0.6501(2)
H4 H 0.3268 0.5923 0.7239
H5 H 0.2912 0.5585 0.6117
H6 H 0.2318 0.5835 0.6362
C10 C 0.09546(14) 0.66571(14) 0.93426(18)
H7 H 0.1477 0.6411 0.9757
C11 C -0.00379(15) 0.75889(16) 0.8541(2)
H8 H -0.0327 0.8120 0.8300
C12 C -0.03829(15) 0.67728(16) 0.8278(2)
H9 H -0.0939 0.6640 0.7837
C13 C 0.02058(13) 0.52294(14) 0.87923(18)
C14 C -0.04637(15) 0.48299(15) 0.8630(2)
H10 H -0.0886 0.5175 0.8506
C15 C -0.04990(14) 0.39175(15) 0.8656(2)
H11 H -0.0951 0.3646 0.8533
C16 C 0.01353(14) 0.34070(14) 0.88624(18)
C17 C 0.07985(16) 0.38104(17) 0.9018(2)
H12 H 0.1228 0.3468 0.9161
C18 C 0.08225(15) 0.47256(16) 0.8961(2)
H13 H 0.1257 0.4996 0.9037
C19 C -0.03315(17) 0.19758(16) 0.9121(2)
H14 H -0.0687 0.2195 0.9234
C20 C 0.03900(13) 0.10602(14) 0.89161(18)
H15 H 0.0613 0.0546 0.8872
C21 C 0.05322(16) 0.18662(17) 0.8794(2)
H16 H 0.0879 0.2016 0.8640
O6 O 0.06928(11) 0.94411(11) 0.85748(16)
Mn1E Mn 0.172571(18) 1.138893(17) 0.48524(2)
Mn1F Mn 0.327429(18) 0.638893(17) 1.01476(2)
O2F O 0.26804(9) 0.78263(9) 1.11166(11)
O3E O 0.24152(10) 0.98829(9) 1.05271(12)
O4E O 0.16781(10) 0.94726(9) 1.09996(13)
loop_
_geom_bond_atom_site_label_1
_geom_bond_atom_site_label_2
_geom_bond_site_symmetry_1
_geom_bond_site_symmetry_2
Mn1 O1 1_555 1_555
O1 C1 1_555 1_555
O2 C1 1_555 1_555
O3 C5 1_555 1_555
O4 C5 1_555 1_555
O5 C7 1_555 1_555
N1 Mn1 1_555 1_555
N2 C10 1_555 1_555
N3 C16 1_555 1_555
N4 C19 1_555 1_555
C1 C2 1_555 1_555
C2 C3 1_555 1_555
C3 H1 1_555 1_555
C4 C3 1_555 1_555
C5 C4 1_555 1_555
C6 C4 1_555 1_555
H2 C6 1_555 1_555
C7 C6 1_555 1_555
C8 C2 1_555 1_555
H3 C8 1_555 1_555
C9 O5 1_555 1_555
H4 C9 1_555 1_555
H5 C9 1_555 1_555
H6 C9 1_555 1_555
C10 N1 1_555 1_555
H7 C10 1_555 1_555
C11 N1 1_555 1_555
H8 C11 1_555 1_555
C12 N2 1_555 1_555
H9 C12 1_555 1_555
C13 N2 1_555 1_555
C14 C13 1_555 1_555
H10 C14 1_555 1_555
C15 C14 1_555 1_555
H11 C15 1_555 1_555
C16 C15 1_555 1_555
C17 C16 1_555 1_555
H12 C17 1_555 1_555
C18 C13 1_555 1_555
H13 C18 1_555 1_555
C19 N3 1_555 1_555
H14 C19 1_555 1_555
C20 N4 1_555 1_555
H15 C20 1_555 1_555
C21 N3 1_555 1_555
H16 C21 1_555 1_555
O6 Mn1 1_555 1_555
Mn1E O3 1_555 1_555
Mn1F O2 1_555 1_555
O2F Mn1 1_555 1_555
O3E Mn1 1_555 1_555
O4E Mn1 1_555 1_555
O4 Mn1E 1_555 1_555
C7 C8 1_555 1_555
C11 C12 1_555 1_555
C17 C18 1_555 1_555
C20 C21 1_555 1_555

#END
