
#######################################################################
#
#                 Cambridge Crystallographic Data Centre
#                                CCDC 
#
#######################################################################
#
# If this CIF has been generated from an entry in the Cambridge 
# Structural Database, then it will include bibliographic, chemical, 
# crystal, experimental, refinement or atomic coordinate data resulting 
# from the CCDC's data processing and validation procedures.
#
#######################################################################

data_WOVVUA
_symmetry_cell_setting           orthorhombic
_symmetry_space_group_name_H-M   'P c c n'
_symmetry_Int_Tables_number      56
_space_group_name_Hall           '-P 2ab 2ac'
loop_
_symmetry_equiv_pos_site_id
_symmetry_equiv_pos_as_xyz
1 x,y,z
2 1/2-x,1/2-y,z
3 1/2+x,-y,1/2-z
4 -x,1/2+y,1/2-z
5 -x,-y,-z
6 1/2+x,1/2+y,-z
7 1/2-x,y,1/2+z
8 x,1/2-y,1/2+z
_cell_length_a                   20.864(8)
_cell_length_b                   23.558(9)
_cell_length_c                   16.357(6)
_cell_angle_alpha                90
_cell_angle_beta                 90
_cell_angle_gamma                90
_cell_volume                     8039.7
loop_
_atom_site_label
_atom_site_type_symbol
_atom_site_fract_x
_atom_site_fract_y
_atom_site_fract_z
C1 C 0.5979(3) 0.6277(2) 0.7377(4)
H1 H 0.6374 0.6418 0.7548
C2 C 0.5416(3) 0.6565(3) 0.7575(4)
H2 H 0.5426 0.6898 0.7879
C3 C 0.4825(3) 0.6332(3) 0.7297(4)
H3 H 0.4445 0.6525 0.7406
C4 C 0.4800(3) 0.5832(3) 0.6876(4)
C5 C 0.4223(3) 0.5605(3) 0.6632(4)
H4 H 0.3842 0.5794 0.6748
C6 C 0.4211(3) 0.5096(3) 0.6211(4)
H5 H 0.3818 0.4946 0.6056
C7 C 0.4776(3) 0.4794(3) 0.6010(4)
C8 C 0.4792(3) 0.4286(3) 0.5575(4)
H6 H 0.4411 0.4121 0.5400
C9 C 0.5357(3) 0.4034(3) 0.5406(4)
H7 H 0.5366 0.3695 0.5115
C10 C 0.5934(3) 0.4283(3) 0.5670(4)
H8 H 0.6323 0.4106 0.5563
C11 C 0.5345(3) 0.5049(3) 0.6259(4)
C12 C 0.5376(3) 0.5555(3) 0.6690(4)
N1 N 0.6105(3) 0.5177(2) 0.9378(3)
C13 C 0.6174(3) 0.5668(3) 0.9841(4)
H9 H 0.6565 0.5751 1.0087
C14 C 0.5656(4) 0.6038(3) 0.9939(4)
H10 H 0.5699 0.6365 1.0253
C15 C 0.5075(3) 0.5912(3) 0.9560(4)
H11 H 0.4733 0.6162 0.9618
C16 C 0.4995(2) 0.54385(14) 0.9115(2)
C17 C 0.44147(17) 0.53044(17) 0.8745(3)
H12 H 0.4066 0.5547 0.8801
C18 C 0.43558(15) 0.48076(18) 0.8293(3)
H13 H 0.3967 0.4718 0.8045
C19 C 0.48773(19) 0.44451(15) 0.8210(2)
C20 C 0.54578(16) 0.45792(15) 0.8579(2)
C21 C 0.55168(16) 0.50760(17) 0.9032(2)
C22 C 0.4798(3) 0.4005(3) 0.7770(4)
H14 H 0.4398 0.3926 0.7546
C23 C 0.5297(3) 0.3651(3) 0.7628(4)
H15 H 0.5240 0.3324 0.7316
C24 C 0.5908(3) 0.3781(3) 0.7958(4)
H16 H 0.6257 0.3550 0.7841
C25 C 0.7441(3) 0.5470(2) 0.8215(4)
C26 C 0.7736(3) 0.5933(2) 0.7726(3)
C27 C 0.8122(3) 0.6404(2) 0.7915(4)
H17 H 0.8283 0.6502 0.8426
C28 C 0.8209(3) 0.6674(3) 0.7229(4)
C29 C 0.8556(3) 0.7275(3) 0.7039(4)
H18 H 0.8735 0.7425 0.7534
H19 H 0.8246 0.7538 0.6824
H20 H 0.8891 0.7219 0.6645
C30 C 0.7415(3) 0.4368(3) 1.0924(4)
C31 C 0.7073(3) 0.3839(2) 1.0723(3)
C32 C 0.6973(3) 0.3399(3) 1.1210(4)
H21 H 0.7111 0.3345 1.1745
C33 C 0.6599(3) 0.3029(2) 1.0711(4)
C34 C 0.6230(3) 0.2443(3) 1.0886(4)
H22 H 0.5824 0.2522 1.1137
H23 H 0.6483 0.2212 1.1245
H24 H 0.6162 0.2246 1.0380
Cd1 Cd 0.68457(2) 0.529462(18) 0.64787(3)
Cd2 Cd 0.69310(2) 0.459512(18) 0.91228(3)
N2 N 0.5948(2) 0.5778(2) 0.6921(3)
N3 N 0.5921(2) 0.4791(2) 0.6089(3)
N4 N 0.5984(2) 0.4250(2) 0.8451(3)
N5 N 0.7587(2) 0.5972(2) 0.6926(3)
N6 N 0.7877(2) 0.6440(2) 0.6641(3)
N7 N 0.6812(2) 0.3771(2) 0.9985(3)
N8 N 0.6524(3) 0.3262(2) 0.9965(3)
O1 O 0.7042(2) 0.51938(16) 0.7908(2)
O2 O 0.7667(2) 0.53873(16) 0.8919(2)
O3 O 0.74340(19) 0.47383(16) 1.0427(2)
O4 O 0.76472(19) 0.44203(16) 1.1609(2)
O5 O 0.67856(19) 0.58383(16) 0.5312(3)
H25 H 0.6426 0.6091 0.5354
H26 H 0.6729 0.5593 0.4848
O6 O 0.7571(2) 0.40889(16) 0.8268(2)
H27 H 0.7772 0.4341 0.7884
H28 H 0.7320 0.3813 0.7978
Cd1F Cd 0.81543(2) 0.529462(18) 1.14787(3)
O3F O 0.75660(19) 0.47383(16) 0.5427(2)
O4F O 0.73528(19) 0.44203(16) 0.6609(2)
O7 O 0.7547(5) 0.2922(4) 0.8187(5)
H29 H 0.7573 0.2861 0.8698
H30 H 0.7305 0.2674 0.7970
O8 O 0.4885(6) 0.7017(6) 0.5958(8)
H33 H 0.4644 0.7141 0.6338
H34 H 0.5158 0.7270 0.5832
O9 O 0.4897(5) 0.7900(4) 0.5556(6)
H35 H 0.4898 0.7909 0.6076
H36 H 0.4704 0.7603 0.5394
O10 O 0.8152(7) 0.7646(6) 0.9174(10)
H37 H 0.8546 0.7730 0.9114
H38 H 0.7967 0.7906 0.9447
O11 O 0.8649(5) 0.7922(4) 0.5461(6)
H39 H 0.8244 0.7963 0.5461
H40 H 0.8799 0.7884 0.4981
H31? H 0.7741 0.3090 0.8575
H32? H 0.7514 0.2571 0.8298
H41? H 0.8371 0.7665 0.5379
H42? H 0.8949 0.7963 0.5115
loop_
_geom_bond_atom_site_label_1
_geom_bond_atom_site_label_2
_geom_bond_site_symmetry_1
_geom_bond_site_symmetry_2
C1 H1 1_555 1_555
C2 C1 1_555 1_555
H2 C2 1_555 1_555
C3 C2 1_555 1_555
H3 C3 1_555 1_555
C4 C3 1_555 1_555
C5 C4 1_555 1_555
H4 C5 1_555 1_555
C6 C5 1_555 1_555
H5 C6 1_555 1_555
C7 C6 1_555 1_555
C8 C7 1_555 1_555
H6 C8 1_555 1_555
C9 C8 1_555 1_555
H7 C9 1_555 1_555
C10 C9 1_555 1_555
H8 C10 1_555 1_555
C11 C7 1_555 1_555
C12 C4 1_555 1_555
N1 C13 1_555 1_555
C13 H9 1_555 1_555
C14 C13 1_555 1_555
H10 C14 1_555 1_555
C15 C14 1_555 1_555
H11 C15 1_555 1_555
C16 C15 1_555 1_555
C17 C16 1_555 1_555
H12 C17 1_555 1_555
C18 C17 1_555 1_555
H13 C18 1_555 1_555
C19 C18 1_555 1_555
C20 C19 1_555 1_555
C21 N1 1_555 1_555
C22 C19 1_555 1_555
H14 C22 1_555 1_555
C23 C22 1_555 1_555
H15 C23 1_555 1_555
C24 C23 1_555 1_555
H16 C24 1_555 1_555
C25 C26 1_555 1_555
C26 C27 1_555 1_555
C27 H17 1_555 1_555
C28 C27 1_555 1_555
C29 C28 1_555 1_555
H18 C29 1_555 1_555
H19 C29 1_555 1_555
H20 C29 1_555 1_555
C30 C31 1_555 1_555
C31 C32 1_555 1_555
C32 H21 1_555 1_555
C33 C32 1_555 1_555
C34 C33 1_555 1_555
H22 C34 1_555 1_555
H23 C34 1_555 1_555
H24 C34 1_555 1_555
Cd1 N2 1_555 1_555
Cd2 N1 1_555 1_555
N2 C1 1_555 1_555
N3 C10 1_555 1_555
N4 C20 1_555 1_555
N5 C26 1_555 1_555
N6 C28 1_555 1_555
N7 C31 1_555 1_555
N8 C33 1_555 1_555
O1 C25 1_555 1_555
O2 C25 1_555 1_555
O3 C30 1_555 1_555
O4 C30 1_555 1_555
O5 Cd1 1_555 1_555
H25 O5 1_555 1_555
H26 O5 1_555 1_555
O6 Cd2 1_555 1_555
H27 O6 1_555 1_555
H28 O6 1_555 1_555
O7 H29 1_555 1_555
H30 O7 1_555 1_555
O8 H33 1_555 1_555
H34 O8 1_555 1_555
O9 H35 1_555 1_555
H36 O9 1_555 1_555
O10 H37 1_555 1_555
H38 O10 1_555 1_555
O11 H39 1_555 1_555
H40 O11 1_555 1_555
Cd1F O3 1_555 1_555
O3F Cd1 1_555 1_555
O4F Cd1 1_555 1_555
C11 C12 1_555 1_555
C11 N3 1_555 1_555
C12 N2 1_555 1_555
C16 C21 1_555 1_555
C20 C21 1_555 1_555
C24 N4 1_555 1_555
Cd1 N3 1_555 1_555
Cd1 N5 1_555 1_555
Cd1 O1 1_555 1_555
Cd2 N4 1_555 1_555
Cd2 N7 1_555 1_555
Cd2 O1 1_555 1_555
Cd2 O2 1_555 1_555
Cd2 O3 1_555 1_555
N5 N6 1_555 1_555
N7 N8 1_555 1_555
O4 Cd1F 1_555 1_555

#END
