
#######################################################################
#
#                 Cambridge Crystallographic Data Centre
#                                CCDC 
#
#######################################################################
#
# If this CIF has been generated from an entry in the Cambridge 
# Structural Database, then it will include bibliographic, chemical, 
# crystal, experimental, refinement or atomic coordinate data resulting 
# from the CCDC's data processing and validation procedures.
#
#######################################################################

data_WOWBIV
_symmetry_cell_setting           tetragonal
_symmetry_space_group_name_H-M   'I 41/a'
_symmetry_Int_Tables_number      88
_space_group_name_Hall           '-I 4ad'
loop_
_symmetry_equiv_pos_site_id
_symmetry_equiv_pos_as_xyz
1 x,y,z
2 1/2-x,-y,1/2+z
3 3/4-y,1/4+x,1/4+z
4 3/4+y,3/4-x,3/4+z
5 1/2+x,1/2+y,1/2+z
6 -x,1/2-y,z
7 1/4-y,3/4+x,3/4+z
8 1/4+y,1/4-x,1/4+z
9 -x,-y,-z
10 1/2+x,y,1/2-z
11 1/4+y,3/4-x,3/4-z
12 1/4-y,1/4+x,1/4-z
13 1/2-x,1/2-y,1/2-z
14 x,1/2+y,-z
15 3/4+y,1/4-x,1/4-z
16 3/4-y,3/4+x,3/4-z
_cell_length_a                   18.1586(14)
_cell_length_b                   18.1586(14)
_cell_length_c                   14.416(2)
_cell_angle_alpha                90
_cell_angle_beta                 90
_cell_angle_gamma                90
_cell_volume                     4753.46
loop_
_atom_site_label
_atom_site_type_symbol
_atom_site_fract_x
_atom_site_fract_y
_atom_site_fract_z
Cd1 Cd 0.204553(15) 0.015159(15) 1.047679(19)
O1 O 0.13401(19) 0.10414(19) 0.9673(2)
O2 O 0.14563(15) -0.00221(17) 0.8966(2)
O3 O -0.19738(17) 0.0182(2) 0.5525(3)
O4 O -0.14278(19) -0.0212(2) 0.6784(2)
O5 O 0.1003(2) 0.0098(3) 1.1328(3)
H1 H 0.1126 0.0129 1.1874
H2 H 0.0659 0.0384 1.1246
C1 C 0.1173(2) 0.0623(2) 0.9019(3)
C2 C 0.0615(2) 0.0853(2) 0.8310(3)
C3 C 0.0155(3) 0.1451(3) 0.8481(3)
H3 H 0.0209 0.1724 0.9023
C4 C -0.0380(3) 0.1639(3) 0.7847(4)
H4 H -0.0703 0.2024 0.7976
C5 C -0.0440(3) 0.1256(3) 0.7011(3)
H5 H -0.0787 0.1398 0.6571
C6 C 0.0013(2) 0.0669(2) 0.6842(3)
C7 C 0.0538(2) 0.0451(2) 0.7491(3)
H6 H 0.0834 0.0043 0.7380
C8 C -0.0013(2) 0.0283(2) 0.5916(3)
C9 C -0.0671(2) 0.0070(2) 0.5481(3)
C10 C -0.1403(2) 0.0020(2) 0.5969(3)
C11 C 0.0644(2) 0.0201(2) 0.5424(3)
H7 H 0.1083 0.0332 0.5713
O1H O -0.13401(19) -0.10414(19) 0.0327(2)
O2H O -0.14563(15) 0.00221(17) 0.1034(2)
C1H C -0.1173(2) -0.0623(2) 0.0981(3)
C2H C -0.0615(2) -0.0853(2) 0.1690(3)
C3H C -0.0155(3) -0.1451(3) 0.1519(3)
H3H H -0.0209 -0.1724 0.0977
C4H C 0.0380(3) -0.1639(3) 0.2153(4)
H4H H 0.0703 -0.2024 0.2024
C5H C 0.0440(3) -0.1256(3) 0.2989(3)
H5H H 0.0787 -0.1398 0.3429
C6H C -0.0013(2) -0.0669(2) 0.3158(3)
C7H C -0.0538(2) -0.0451(2) 0.2509(3)
H6H H -0.0834 -0.0043 0.2620
C8H C 0.0013(2) -0.0283(2) 0.4084(3)
C9H C 0.0671(2) -0.0070(2) 0.4519(3)
C10H C 0.1403(2) -0.0020(2) 0.4031(3)
C11H C -0.0644(2) -0.0201(2) 0.4576(3)
H7H H -0.1083 -0.0332 0.4287
O3H O 0.19738(17) -0.0182(2) 0.4475(3)
O4H O 0.14278(19) 0.0212(2) 0.3216(2)
Cd1H Cd -0.204553(15) -0.015159(15) -0.047679(19)
O5H O -0.1003(2) -0.0098(3) -0.1328(3)
H1H H -0.1126 -0.0129 -0.1874
H2H H -0.0659 -0.0384 -0.1246
Cd1A Cd 0.295447(15) -0.015159(15) 0.547679(19)
Cd1F Cd 0.234841(15) -0.045447(15) 0.797679(19)
Cd1G Cd 0.265159(15) 0.045447(15) 0.297679(19)
Cd1I Cd -0.295447(15) 0.015159(15) 0.452321(19)
Cd1N Cd -0.234841(15) 0.045447(15) 0.202321(19)
Cd1O Cd -0.265159(15) -0.045447(15) 0.702321(19)
O2G O 0.24779(17) 0.10437(15) 1.1466(2)
O2O O -0.24779(17) -0.10437(15) -0.1466(2)
O3A O -0.30262(17) -0.0182(2) 0.0525(3)
O3B O -0.2682(2) 0.05262(17) -0.1975(3)
O3I O 0.30262(17) 0.0182(2) 0.9475(3)
O3J O 0.2682(2) -0.05262(17) 1.1975(3)
O4B O -0.2288(2) 0.10722(19) -0.0716(2)
O4J O 0.2288(2) -0.10722(19) 1.0716(2)
O6 O 0.9838(5) 0.1098(7) 0.1107(13)
H8 H 0.9488 0.0812 0.1104
H9 H 1.0182 0.0813 0.1189
loop_
_geom_bond_atom_site_label_1
_geom_bond_atom_site_label_2
_geom_bond_site_symmetry_1
_geom_bond_site_symmetry_2
Cd1 O1 1_555 1_555
O1 C1 1_555 1_555
O2 Cd1 1_555 1_555
O3 C10 1_555 1_555
O4 C10 1_555 1_555
O5 Cd1 1_555 1_555
H1 O5 1_555 1_555
H2 O5 1_555 1_555
C1 O2 1_555 1_555
C2 C1 1_555 1_555
C3 C2 1_555 1_555
H3 C3 1_555 1_555
C4 C3 1_555 1_555
H4 C4 1_555 1_555
C5 C4 1_555 1_555
H5 C5 1_555 1_555
C6 C5 1_555 1_555
C7 C2 1_555 1_555
H6 C7 1_555 1_555
C8 C6 1_555 1_555
C9 C8 1_555 1_555
C10 C9 1_555 1_555
C11 C8 1_555 1_555
H7 C11 1_555 1_555
O6 H8 1_555 1_555
H9 O6 1_555 1_555
O1H C1H 1_555 1_555
O2H C1H 1_555 1_555
C1H C2H 1_555 1_555
C2H C3H 1_555 1_555
C3H H3H 1_555 1_555
C4H C3H 1_555 1_555
H4H C4H 1_555 1_555
C5H C4H 1_555 1_555
H5H C5H 1_555 1_555
C6H C5H 1_555 1_555
C7H C2H 1_555 1_555
H6H C7H 1_555 1_555
C8H C6H 1_555 1_555
C9H C11 1_555 1_555
C10H C9H 1_555 1_555
C11H C9 1_555 1_555
H7H C11H 1_555 1_555
O3H C10H 1_555 1_555
O4H C10H 1_555 1_555
Cd1H O1H 1_555 1_555
O5H Cd1H 1_555 1_555
H1H O5H 1_555 1_555
H2H O5H 1_555 1_555
Cd1A O3H 1_555 1_555
Cd1F O2 1_555 1_555
Cd1G O3H 1_555 1_555
Cd1I O3 1_555 1_555
Cd1N O2H 1_555 1_555
Cd1O O3 1_555 1_555
O2G Cd1 1_555 1_555
O2O Cd1H 1_555 1_555
O3A Cd1H 1_555 1_555
O3B Cd1H 1_555 1_555
O3I Cd1 1_555 1_555
O3J Cd1 1_555 1_555
O4B Cd1H 1_555 1_555
O4J Cd1 1_555 1_555
O4 Cd1O 1_555 1_555
C6 C7 1_555 1_555
O2H Cd1H 1_555 1_555
C6H C7H 1_555 1_555
C8H C9H 1_555 1_555
C8H C11H 1_555 1_555
O4H Cd1G 1_555 1_555
Cd1F O3I 1_555 1_555
Cd1N O3A 1_555 1_555

#END
