
#######################################################################
#
#                 Cambridge Crystallographic Data Centre
#                                CCDC 
#
#######################################################################
#
# If this CIF has been generated from an entry in the Cambridge 
# Structural Database, then it will include bibliographic, chemical, 
# crystal, experimental, refinement or atomic coordinate data resulting 
# from the CCDC's data processing and validation procedures.
#
#######################################################################

data_WOWGEU02
_symmetry_cell_setting           monoclinic
_symmetry_space_group_name_H-M   'P 21/m'
_symmetry_Int_Tables_number      11
_space_group_name_Hall           '-P 2yb'
loop_
_symmetry_equiv_pos_site_id
_symmetry_equiv_pos_as_xyz
1 x,y,z
2 -x,1/2+y,-z
3 -x,-y,-z
4 x,1/2-y,z
_cell_length_a                   4.97546(3)
_cell_length_b                   11.98967(6)
_cell_length_c                   8.18047(6)
_cell_angle_alpha                90
_cell_angle_beta                 92.416(1)
_cell_angle_gamma                90
_cell_volume                     487.565
loop_
_atom_site_label
_atom_site_type_symbol
_atom_site_fract_x
_atom_site_fract_y
_atom_site_fract_z
Al1 Al -0.2468(7) -0.2500 -0.1438(4)
Al2 Al -0.5000 -0.5000 0.0000
P1 P 0.0088(4) -0.5150(1) -0.7670(2)
O1 O -0.2794(7) -0.4794(3) -0.8087(4)
O2 O 0.0410(8) -0.6434(3) -0.7663(5)
O3 O 0.2065(7) -0.4549(3) -0.8778(5)
O4 O -0.509(1) -0.2500 -0.3286(7)
O5 O -0.007(1) -0.2500 0.0519(7)
C1 C 0.089(2) -0.4668(6) -0.5572(9)
F1 F -0.4540(7) -0.1484(2) -0.0487(4)
C1B C -0.089(2) -0.5332(6) -0.4428(9)
P1B P -0.0088(4) -0.4850(1) -0.2330(2)
O1B O 0.2794(7) -0.5206(3) -0.1913(4)
O2B O -0.0410(8) -0.3566(3) -0.2337(5)
O3B O -0.2065(7) -0.5451(3) -0.1222(5)
Al2_2 Al 0.5000 -0.5000 -1.0000
Al2_3 Al 0.5000 -0.5000 0.0000
Al1A Al 0.2468(7) -0.7500 -0.8562(4)
Al2_4 Al -0.5000 -0.5000 -1.0000
O2A O -0.0410(8) -0.1434(3) -0.2337(5)
F1C F -0.4540(7) -0.3516(2) -0.0487(4)
O1_2 O -0.2794(7) -0.4794(3) 0.1913(4)
O1B_2 O -0.7206(7) -0.5206(3) -0.1913(4)
O3_2 O -0.7935(7) -0.4549(3) 0.1222(5)
F1A F -0.5460(7) -0.6484(2) 0.0487(4)
Al2A Al -0.5000 0.0000 0.0000
O6 O 0.439(1) -0.7500 -0.3419(7)
loop_
_geom_bond_atom_site_label_1
_geom_bond_atom_site_label_2
_geom_bond_site_symmetry_1
_geom_bond_site_symmetry_2
Al1 O4 1_555 1_555
Al2 O3B 1_555 1_555
P1 O1 1_555 1_555
O1 Al2_4 1_555 1_555
O2 P1 1_555 1_555
O3 P1 1_555 1_555
O5 Al1 1_555 1_555
C1 P1 1_555 1_555
F1 Al1 1_555 1_555
C1B C1 1_555 1_555
P1B C1B 1_555 1_555
O1B P1B 1_555 1_555
O2B Al1 1_555 1_555
O3B P1B 1_555 1_555
Al2_2 O3 1_555 1_555
Al2_3 O1B 1_555 1_555
Al1A O2 1_555 1_555
O2A Al1 1_555 1_555
F1C Al1 1_555 1_555
O1_2 Al2 1_555 1_555
O1B_2 Al2 1_555 1_555
O3_2 Al2 1_555 1_555
F1A Al2 1_555 1_555
Al2A F1 1_555 1_555
Al2 F1C 1_555 1_555
P1B O2B 1_555 1_555

#END
