
#######################################################################
#
#                 Cambridge Crystallographic Data Centre
#                                CCDC 
#
#######################################################################
#
# If this CIF has been generated from an entry in the Cambridge 
# Structural Database, then it will include bibliographic, chemical, 
# crystal, experimental, refinement or atomic coordinate data resulting 
# from the CCDC's data processing and validation procedures.
#
#######################################################################

data_WOWGEU
_symmetry_cell_setting           monoclinic
_symmetry_space_group_name_H-M   'P 21/m'
_symmetry_Int_Tables_number      11
_space_group_name_Hall           '-P 2yb'
loop_
_symmetry_equiv_pos_site_id
_symmetry_equiv_pos_as_xyz
1 x,y,z
2 x,1/2-y,z
3 -x,-y,-z
4 -x,1/2+y,-z
_cell_length_a                   4.978(3)
_cell_length_b                   12.00(1)
_cell_length_c                   8.189(6)
_cell_angle_alpha                90
_cell_angle_beta                 91.97(3)
_cell_angle_gamma                90
_cell_volume                     488.889
loop_
_atom_site_label
_atom_site_type_symbol
_atom_site_fract_x
_atom_site_fract_y
_atom_site_fract_z
Al1 Al 0.5000 0.5000 0.0000
Al2 Al 0.2416(7) 0.2500 0.1449(4)
P1 P 0.0052(4) 0.48526(18) 0.2322(2)
O1 O 0.0358(12) 0.3584(5) 0.2330(7)
O2 O 0.203(1) 0.5433(5) 0.1192(6)
O3 O -0.2836(11) 0.5191(5) 0.1928(6)
O4 O 0.4997(18) 0.2500 0.3271(11)
O5 O 0.0165(17) 0.2500 -0.054(1)
F1 F 0.4530(9) 0.3531(4) 0.0477(6)
C1 C 0.0787(17) 0.5307(7) 0.436(1)
H1 H 0.0357(17) 0.6117(7) 0.443(1)
H2 H 0.2747(17) 0.5187(7) 0.461(1)
O2B O 0.797(1) 0.4567(5) -0.1192(6)
O3B O 0.2836(11) 0.4809(5) -0.1928(6)
F1B F 0.5470(9) 0.6469(4) -0.0477(6)
O1A O 0.0358(12) 0.1416(5) 0.2330(7)
F1A F 0.4530(9) 0.1469(4) 0.0477(6)
O3_2 O 0.7164(11) 0.5191(5) 0.1928(6)
C1B C -0.0787(17) 0.4693(7) 0.564(1)
Al2B Al 0.7584(7) 0.7500 -0.1449(4)
Al1_2 Al -0.5000 0.5000 0.0000
P1B P -0.0052(4) 0.51474(18) 0.7678(2)
H1B H -0.0357(17) 0.3883(7) 0.557(1)
H2B H -0.2747(17) 0.4813(7) 0.539(1)
O1B O -0.0358(12) 0.6416(5) 0.7670(7)
O2B_2 O -0.203(1) 0.4567(5) 0.8808(6)
O3B_2 O 0.2836(11) 0.4809(5) 0.8072(6)
Al2B_2 Al -0.2416(7) 0.7500 0.8551(4)
Al1_3 Al -0.5000 0.5000 1.0000
Al1_4 Al 0.5000 0.5000 1.0000
O6 O 0.437(2) 0.2500 -0.3480(14)
loop_
_geom_bond_atom_site_label_1
_geom_bond_atom_site_label_2
_geom_bond_site_symmetry_1
_geom_bond_site_symmetry_2
Al1 O2 1_555 1_555
Al2 O1 1_555 1_555
P1 O1 1_555 1_555
O2 P1 1_555 1_555
O3 P1 1_555 1_555
O4 Al2 1_555 1_555
O5 Al2 1_555 1_555
F1 Al1 1_555 1_555
C1 P1 1_555 1_555
H1 C1 1_555 1_555
H2 C1 1_555 1_555
O2B Al1 1_555 1_555
O3B Al1 1_555 1_555
F1B Al1 1_555 1_555
O1A Al2 1_555 1_555
F1A Al2 1_555 1_555
O3_2 Al1 1_555 1_555
C1B C1 1_555 1_555
Al2B F1B 1_555 1_555
Al1_2 O3 1_555 1_555
P1B C1B 1_555 1_555
H1B C1B 1_555 1_555
H2B C1B 1_555 1_555
O1B P1B 1_555 1_555
O2B_2 P1B 1_555 1_555
O3B_2 P1B 1_555 1_555
Al2B_2 O1B 1_555 1_555
Al1_3 O2B_2 1_555 1_555
Al1_4 O3B_2 1_555 1_555
Al2 F1 1_555 1_555

#END
