
#######################################################################
#
#                 Cambridge Crystallographic Data Centre
#                                CCDC 
#
#######################################################################
#
# If this CIF has been generated from an entry in the Cambridge 
# Structural Database, then it will include bibliographic, chemical, 
# crystal, experimental, refinement or atomic coordinate data resulting 
# from the CCDC's data processing and validation procedures.
#
#######################################################################

data_WOWLOJ
_symmetry_cell_setting           triclinic
_symmetry_space_group_name_H-M   'P -1'
_symmetry_Int_Tables_number      2
_space_group_name_Hall           '-P 1'
loop_
_symmetry_equiv_pos_site_id
_symmetry_equiv_pos_as_xyz
1 x,y,z
2 -x,-y,-z
_cell_length_a                   8.9399(5)
_cell_length_b                   9.1967(3)
_cell_length_c                   15.4335(7)
_cell_angle_alpha                76.054(3)
_cell_angle_beta                 89.359(3)
_cell_angle_gamma                67.756(3)
_cell_volume                     1135.32
loop_
_atom_site_label
_atom_site_type_symbol
_atom_site_fract_x
_atom_site_fract_y
_atom_site_fract_z
Nd1 Nd 0.472746(7) 0.082980(7) 0.273057(4)
Fe1 Fe 0.0000 0.0000 0.5000
Fe2 Fe 0.0000 0.5000 0.0000
O1 O 0.57119(13) 0.03574(11) 0.13133(7)
O2 O 0.56791(12) 0.29270(11) 0.19413(7)
O3 O 0.39721(12) 0.31403(11) 0.34261(7)
O5 O 0.52005(15) -0.09202(14) 0.43235(7)
N1 N 0.32685(13) -0.09756(12) 0.22613(8)
N2 N 0.64959(13) -0.23822(13) 0.28621(8)
N3 N 0.33296(14) -0.35978(13) 0.22920(9)
N4 N 0.65681(14) -0.48830(13) 0.26391(8)
N5 N 0.23658(14) 0.29132(13) 0.16722(8)
N6 N -0.22639(17) 0.31851(17) 0.05863(11)
N7 N -0.20247(16) 0.76302(16) 0.09351(9)
N8 N 0.20825(14) 0.10513(14) 0.35611(8)
N9 N -0.1769(3) 0.35001(19) 0.51561(12)
N10 N -0.25213(16) 0.03282(15) 0.35373(10)
C1 C 0.17003(17) -0.03257(17) 0.19369(11)
H1 H 0.1125 0.0787 0.1846
C2 C 0.09138(18) -0.12575(18) 0.17331(12)
H2 H -0.0144 -0.0788 0.1465
C3 C 0.17725(18) -0.29099(17) 0.19466(11)
H3 H 0.1260 -0.3575 0.1849
C4 C 0.40228(16) -0.25945(15) 0.23970(9)
C5 C 0.57949(15) -0.33318(15) 0.26585(9)
C6 C 0.81666(19) -0.55347(17) 0.28411(11)
H4 H 0.8738 -0.6609 0.2829
C7 C 0.90035(18) -0.46789(18) 0.30673(11)
H5 H 1.0120 -0.5151 0.3212
C8 C 0.81104(17) -0.30864(17) 0.30701(10)
H6 H 0.8644 -0.2477 0.3221
C9 C 0.14559(15) 0.37380(14) 0.10527(9)
C10 C -0.14010(17) 0.38435(16) 0.03697(9)
C11 C -0.12455(16) 0.66438(15) 0.05985(9)
C12 C 0.12757(16) 0.07030(15) 0.40882(9)
C13 C -0.1150(2) 0.21922(18) 0.50981(10)
C14 C -0.15824(16) 0.02420(15) 0.40762(10)
H7 H 0.3231(10) 0.3280(16) 0.3860(6)
H8 H 0.4043(13) 0.4138(9) 0.3157(10)
H9 H 0.6132(18) 0.3068(17) 0.1394(5)
H10 H 0.575(2) 0.3685(10) 0.2242(5)
H11 H 0.637(2) -0.0602(9) 0.1152(10)
H12 H 0.533(3) 0.1188(11) 0.0762(8)
H17 H 0.6229(8) -0.1762(19) 0.447(2)
H18 H 0.4408(7) -0.1352(14) 0.4493(18)
C12A C -0.12757(16) -0.07030(15) 0.59118(9)
C13A C 0.1150(2) -0.21922(18) 0.49019(10)
C14A C 0.15824(16) -0.02420(15) 0.59238(10)
C9A C -0.14559(15) 0.62620(14) -0.10527(9)
C10A C 0.14010(17) 0.61565(16) -0.03697(9)
C11A C 0.12455(16) 0.33562(15) -0.05985(9)
N8A N -0.20825(14) -0.10513(14) 0.64389(8)
N9A N 0.1769(3) -0.35001(19) 0.48439(12)
N10_2 N 0.74787(16) 0.03282(15) 0.35373(10)
N10A N 0.25213(16) -0.03282(15) 0.64627(10)
N6A N 0.22639(17) 0.68149(17) -0.05863(11)
N7A N 0.20247(16) 0.23698(16) -0.09351(9)
Nd1A Nd -0.472746(7) -0.082980(7) 0.726943(4)
Nd1_2 Nd -0.527254(7) 0.082980(7) 0.273057(4)
Nd1A_2 Nd 0.527254(7) -0.082980(7) 0.726943(4)
O1A O -0.57119(13) -0.03574(11) 0.86867(7)
O2A O -0.56791(12) -0.29270(11) 0.80587(7)
O3A O -0.39721(12) -0.31403(11) 0.65739(7)
O5A O -0.52005(15) 0.09202(14) 0.56765(7)
N1A N -0.32685(13) 0.09756(12) 0.77387(8)
N2A N -0.64959(13) 0.23822(13) 0.71379(8)
N5A N -0.23658(14) -0.29132(13) 0.83278(8)
N10A_2 N -0.74787(16) -0.03282(15) 0.64627(10)
H11A H -0.637(2) 0.0602(9) 0.8848(10)
H12A H -0.533(3) -0.1188(11) 0.9238(8)
H9A H -0.6132(18) -0.3068(17) 0.8606(5)
H10A H -0.575(2) -0.3685(10) 0.7758(5)
H7A H -0.3231(10) -0.3280(16) 0.6140(6)
H8A H -0.4043(13) -0.4138(9) 0.6843(10)
H17A H -0.6229(8) 0.1762(19) 0.553(2)
H18A H -0.4408(7) 0.1352(14) 0.5507(18)
C1A C -0.17003(17) 0.03257(17) 0.80631(11)
C4A C -0.40228(16) 0.25945(15) 0.76030(9)
C5A C -0.57949(15) 0.33318(15) 0.73415(9)
C8A C -0.81104(17) 0.30864(17) 0.69299(10)
C9A_2 C -0.14559(15) -0.37380(14) 0.89473(9)
H1A H -0.1125 -0.0787 0.8154
C2A C -0.09138(18) 0.12575(18) 0.82669(12)
N3A N -0.33296(14) 0.35978(13) 0.77080(9)
N4A N -0.65681(14) 0.48830(13) 0.73609(8)
C7A C -0.90035(18) 0.46789(18) 0.69327(11)
H6A H -0.8644 0.2477 0.6779
Fe2_2 Fe 0.0000 -0.5000 1.0000
H2A H 0.0144 0.0788 0.8535
C3A C -0.17725(18) 0.29099(17) 0.80534(11)
C6A C -0.81666(19) 0.55347(17) 0.71589(11)
H5A H -1.0120 0.5151 0.6788
H3A H -0.1260 0.3575 0.8151
H4A H -0.8738 0.6609 0.7171
O4 O 0.52562(14) 0.25483(15) -0.03027(8)
H13 H 0.4220(8) 0.3408(17) -0.0367(18)
H14 H 0.5994(8) 0.3002(12) -0.0163(13)
O6 O 1.20261(18) -0.65774(16) 0.48429(10)
H15 H 1.0902(8) -0.6500(10) 0.4736(15)
H16 H 1.1832(13) -0.5450(8) 0.4857(13)
O7 O 0.5050(4) -0.3771(4) 0.4940(3)
H19 H 0.4915(18) -0.4240(13) 0.4447(5)
H20 H 0.4110(10) -0.381(2) 0.5280(6)
loop_
_geom_bond_atom_site_label_1
_geom_bond_atom_site_label_2
_geom_bond_site_symmetry_1
_geom_bond_site_symmetry_2
Nd1 O1 1_555 1_555
Fe1 C12 1_555 1_555
Fe2 C9 1_555 1_555
O1 H11 1_555 1_555
O2 Nd1 1_555 1_555
O3 Nd1 1_555 1_555
O4 H13 1_555 1_555
O5 Nd1 1_555 1_555
O6 H15 1_555 1_555
O7 H19 1_555 1_555
N1 Nd1 1_555 1_555
N2 Nd1 1_555 1_555
N3 C3 1_555 1_555
N4 C5 1_555 1_555
N5 Nd1 1_555 1_555
N6 C10 1_555 1_555
N7 C11 1_555 1_555
N8 Nd1 1_555 1_555
N9 C13 1_555 1_555
N10 C14 1_555 1_555
C1 N1 1_555 1_555
H1 C1 1_555 1_555
C2 C1 1_555 1_555
H2 C2 1_555 1_555
C3 C2 1_555 1_555
H3 C3 1_555 1_555
C4 N1 1_555 1_555
C5 N2 1_555 1_555
C6 N4 1_555 1_555
H4 C6 1_555 1_555
C7 C6 1_555 1_555
H5 C7 1_555 1_555
C8 N2 1_555 1_555
H6 C8 1_555 1_555
C9 N5 1_555 1_555
C10 Fe2 1_555 1_555
C11 Fe2 1_555 1_555
C12 N8 1_555 1_555
C13 Fe1 1_555 1_555
C14 Fe1 1_555 1_555
H7 O3 1_555 1_555
H8 O3 1_555 1_555
H9 O2 1_555 1_555
H10 O2 1_555 1_555
H12 O1 1_555 1_555
H14 O4 1_555 1_555
H16 O6 1_555 1_555
H17 O5 1_555 1_555
H18 O5 1_555 1_555
H20 O7 1_555 1_555
C12A Fe1 1_555 1_555
C13A Fe1 1_555 1_555
C14A Fe1 1_555 1_555
C9A Fe2 1_555 1_555
C10A Fe2 1_555 1_555
C11A Fe2 1_555 1_555
N8A C12A 1_555 1_555
N9A C13A 1_555 1_555
N10_2 Nd1 1_555 1_555
N10A C14A 1_555 1_555
N6A C10A 1_555 1_555
N7A C11A 1_555 1_555
Nd1A N8A 1_555 1_555
Nd1_2 N10 1_555 1_555
Nd1A_2 N10A 1_555 1_555
O1A Nd1A 1_555 1_555
O2A Nd1A 1_555 1_555
O3A Nd1A 1_555 1_555
O5A Nd1A 1_555 1_555
N1A Nd1A 1_555 1_555
N2A Nd1A 1_555 1_555
N5A Nd1A 1_555 1_555
N10A_2 Nd1A 1_555 1_555
H11A O1A 1_555 1_555
H12A O1A 1_555 1_555
H9A O2A 1_555 1_555
H10A O2A 1_555 1_555
H7A O3A 1_555 1_555
H8A O3A 1_555 1_555
H17A O5A 1_555 1_555
H18A O5A 1_555 1_555
C1A N1A 1_555 1_555
C4A N1A 1_555 1_555
C5A N2A 1_555 1_555
C8A N2A 1_555 1_555
C9A_2 N5A 1_555 1_555
H1A C1A 1_555 1_555
C2A C1A 1_555 1_555
N3A C4A 1_555 1_555
N4A C5A 1_555 1_555
C7A C8A 1_555 1_555
H6A C8A 1_555 1_555
Fe2_2 C9A_2 1_555 1_555
H2A C2A 1_555 1_555
C3A C2A 1_555 1_555
C6A N4A 1_555 1_555
H5A C7A 1_555 1_555
H3A C3A 1_555 1_555
H4A C6A 1_555 1_555
N3 C4 1_555 1_555
C4 C5 1_555 1_555
C7 C8 1_555 1_555
C4A C5A 1_555 1_555
N3A C3A 1_555 1_555
C7A C6A 1_555 1_555

#END
