
#######################################################################
#
#                 Cambridge Crystallographic Data Centre
#                                CCDC 
#
#######################################################################
#
# If this CIF has been generated from an entry in the Cambridge 
# Structural Database, then it will include bibliographic, chemical, 
# crystal, experimental, refinement or atomic coordinate data resulting 
# from the CCDC's data processing and validation procedures.
#
#######################################################################

data_WOWLUP
_symmetry_cell_setting           triclinic
_symmetry_space_group_name_H-M   'P -1'
_symmetry_Int_Tables_number      2
_space_group_name_Hall           '-P 1'
loop_
_symmetry_equiv_pos_site_id
_symmetry_equiv_pos_as_xyz
1 x,y,z
2 -x,-y,-z
_cell_length_a                   8.7801(5)
_cell_length_b                   9.2011(5)
_cell_length_c                   15.4319(10)
_cell_angle_alpha                76.337(4)
_cell_angle_beta                 88.982(4)
_cell_angle_gamma                67.542(4)
_cell_volume                     1115.89
loop_
_atom_site_label
_atom_site_type_symbol
_atom_site_fract_x
_atom_site_fract_y
_atom_site_fract_z
Nd1 Nd -0.46996(2) -0.090410(19) -0.272450(11)
Co1 Co 0.0000 0.0000 -0.5000
Co2 Co 0.0000 -0.5000 0.0000
O1 O -0.5776(4) -0.0365(3) -0.13249(16)
O2 O -0.5707(3) -0.2955(3) -0.19504(16)
O3 O -0.3923(3) -0.3228(3) -0.34215(17)
O5 O -0.5154(4) 0.0889(4) -0.43224(19)
N1 N -0.3213(4) 0.0894(3) -0.2254(2)
N2 N -0.6469(3) 0.2306(3) -0.28699(18)
N3 N -0.3271(4) 0.3509(3) -0.2274(2)
N4 N -0.6571(4) 0.4832(3) -0.2666(2)
N5 N -0.2321(4) -0.2984(3) -0.1652(2)
N6 N -0.2175(4) -0.6848(5) 0.0599(3)
N7 N -0.2064(4) -0.2438(4) 0.0929(2)
N8 N -0.2051(4) -0.1099(4) -0.3582(2)
N9 N 0.1793(6) -0.3430(5) -0.5212(3)
N10 N 0.2566(4) -0.0412(4) -0.3577(2)
C1 C -0.1642(5) 0.0247(5) -0.1922(3)
H1 H -0.1056 -0.0867 -0.1829
C2 C -0.0860(5) 0.1174(4) -0.1715(3)
H2 H 0.0214 0.0700 -0.1447
C3 C -0.1698(5) 0.2783(4) -0.1913(3)
H3 H -0.1171 0.3429 -0.1795
C4 C -0.3979(4) 0.2515(4) -0.2390(2)
C5 C -0.5764(4) 0.3262(4) -0.2670(2)
C6 C -0.8181(5) 0.5463(5) -0.2878(3)
H4 H -0.8775 0.6541 -0.2871
C7 C -0.9002(5) 0.4613(5) -0.3103(3)
H5 H -1.0135 0.5090 -0.3257
C8 C -0.8111(5) 0.3027(4) -0.3095(3)
H6 H -0.8654 0.2423 -0.3251
C9 C -0.1442(4) -0.3785(4) -0.1046(2)
C10 C -0.1346(4) -0.6166(4) 0.0374(2)
C11 C -0.1269(4) -0.3402(4) 0.0587(2)
C12 C -0.1249(4) -0.0708(4) -0.4104(2)
C13 C 0.1145(5) -0.2159(4) -0.5116(2)
C14 C 0.1599(4) -0.0287(4) -0.4101(2)
H7 H -0.3176(10) -0.3166(14) -0.3872(8)
H8 H -0.4055(12) -0.4226(9) -0.3393(16)
H9 H -0.6261(17) -0.312(2) -0.1416(5)
H10 H -0.587(2) -0.3646(11) -0.2284(6)
H11 H -0.639(3) 0.0593(10) -0.1120(11)
H12 H -0.514(2) -0.1134(14) -0.0794(9)
H17 H -0.6202(8) 0.110(3) -0.4616(12)
H18 H -0.4381(9) 0.061(5) -0.4766(8)
C9A C 0.1442(4) -0.6215(4) 0.1046(2)
C12A C 0.1249(4) 0.0708(4) -0.5896(2)
N8A N 0.2051(4) 0.1099(4) -0.6418(2)
Nd1A Nd 0.46996(2) 0.090410(19) -0.727550(11)
O1A O 0.5776(4) 0.0365(3) -0.86751(16)
H11A H 0.639(3) -0.0593(10) -0.8880(11)
H12A H 0.514(2) 0.1134(14) -0.9206(9)
O2A O 0.5707(3) 0.2955(3) -0.80496(16)
H9A H 0.6261(17) 0.312(2) -0.8584(5)
H10A H 0.587(2) 0.3646(11) -0.7716(6)
O3A O 0.3923(3) 0.3228(3) -0.65785(17)
H7A H 0.3176(10) 0.3166(14) -0.6128(8)
H8A H 0.4055(12) 0.4226(9) -0.6607(16)
O5A O 0.5154(4) -0.0889(4) -0.56776(19)
H17A H 0.6202(8) -0.110(3) -0.5384(12)
H18A H 0.4381(9) -0.061(5) -0.5234(8)
N1A N 0.3213(4) -0.0894(3) -0.7746(2)
N2A N 0.6469(3) -0.2306(3) -0.71301(18)
N5A N 0.2321(4) 0.2984(3) -0.8348(2)
N10A N 0.7434(4) 0.0412(4) -0.6423(2)
C13A C -0.1145(5) 0.2159(4) -0.4884(2)
C14A C -0.1599(4) 0.0287(4) -0.5899(2)
N10_2 N -0.7434(4) -0.0412(4) -0.3577(2)
C10A C 0.1346(4) -0.3834(4) -0.0374(2)
N6A N 0.2175(4) -0.3152(5) -0.0599(3)
C11A C 0.1269(4) -0.6598(4) -0.0587(2)
N7A N 0.2064(4) -0.7562(4) -0.0929(2)
C1A C 0.1642(5) -0.0247(5) -0.8078(3)
C4A C 0.3979(4) -0.2515(4) -0.7610(2)
C5A C 0.5764(4) -0.3262(4) -0.7330(2)
C8A C 0.8111(5) -0.3027(4) -0.6905(3)
C9A_2 C 0.1442(4) 0.3785(4) -0.8954(2)
N9A N -0.1793(6) 0.3430(5) -0.4788(3)
N10A_2 N -0.2566(4) 0.0412(4) -0.6423(2)
H1A H 0.1056 0.0867 -0.8171
C2A C 0.0860(5) -0.1174(4) -0.8285(3)
N3A N 0.3271(4) -0.3509(3) -0.7726(2)
N4A N 0.6571(4) -0.4832(3) -0.7334(2)
C7A C 0.9002(5) -0.4613(5) -0.6897(3)
H6A H 0.8654 -0.2423 -0.6749
Co2_2 Co 0.0000 0.5000 -1.0000
Nd1_2 Nd 0.53004(2) -0.090410(19) -0.272450(11)
Nd1A_2 Nd -0.53004(2) 0.090410(19) -0.727550(11)
H2A H -0.0214 -0.0700 -0.8553
C3A C 0.1698(5) -0.2783(4) -0.8087(3)
C6A C 0.8181(5) -0.5463(5) -0.7122(3)
H5A H 1.0135 -0.5090 -0.6743
H3A H 0.1171 -0.3429 -0.8205
H4A H 0.8775 -0.6541 -0.7129
O4 O 0.5353(4) -0.7522(5) -0.0282(2)
H13 H 0.4255(8) -0.668(2) -0.037(2)
H14 H 0.6021(9) -0.7037(13) -0.0066(13)
O6 O 1.2020(6) -1.6505(5) 0.4880(3)
H15 H 1.0951(9) -1.6384(11) 0.4643(11)
H16 H 1.1806(15) -1.5448(8) 0.4984(11)
O7 O 0.5272(8) -1.3736(9) 0.5036(4)
H19 H 0.513(2) -1.4015(16) 0.4488(5)
H20 H 0.4224(11) -1.353(3) 0.5292(7)
loop_
_geom_bond_atom_site_label_1
_geom_bond_atom_site_label_2
_geom_bond_site_symmetry_1
_geom_bond_site_symmetry_2
Nd1 O1 1_555 1_555
Co1 C12 1_555 1_555
Co2 C9 1_555 1_555
O1 H11 1_555 1_555
O2 Nd1 1_555 1_555
O3 Nd1 1_555 1_555
O4 H13 1_555 1_555
O5 Nd1 1_555 1_555
O6 H15 1_555 1_555
O7 H19 1_555 1_555
N1 Nd1 1_555 1_555
N2 Nd1 1_555 1_555
N3 C3 1_555 1_555
N4 C5 1_555 1_555
N5 Nd1 1_555 1_555
N6 C10 1_555 1_555
N7 C11 1_555 1_555
N8 Nd1 1_555 1_555
N9 C13 1_555 1_555
N10 C14 1_555 1_555
C1 N1 1_555 1_555
H1 C1 1_555 1_555
C2 C1 1_555 1_555
H2 C2 1_555 1_555
C3 C2 1_555 1_555
H3 C3 1_555 1_555
C4 N1 1_555 1_555
C5 N2 1_555 1_555
C6 N4 1_555 1_555
H4 C6 1_555 1_555
C7 C6 1_555 1_555
H5 C7 1_555 1_555
C8 N2 1_555 1_555
H6 C8 1_555 1_555
C9 N5 1_555 1_555
C10 Co2 1_555 1_555
C11 Co2 1_555 1_555
C12 N8 1_555 1_555
C13 Co1 1_555 1_555
C14 Co1 1_555 1_555
H7 O3 1_555 1_555
H8 O3 1_555 1_555
H9 O2 1_555 1_555
H10 O2 1_555 1_555
H12 O1 1_555 1_555
H14 O4 1_555 1_555
H16 O6 1_555 1_555
H17 O5 1_555 1_555
H18 O5 1_555 1_555
H20 O7 1_555 1_555
C9A Co2 1_555 1_555
C12A Co1 1_555 1_555
N8A C12A 1_555 1_555
Nd1A N8A 1_555 1_555
O1A Nd1A 1_555 1_555
H11A O1A 1_555 1_555
H12A O1A 1_555 1_555
O2A Nd1A 1_555 1_555
H9A O2A 1_555 1_555
H10A O2A 1_555 1_555
O3A Nd1A 1_555 1_555
H7A O3A 1_555 1_555
H8A O3A 1_555 1_555
O5A Nd1A 1_555 1_555
H17A O5A 1_555 1_555
H18A O5A 1_555 1_555
N1A Nd1A 1_555 1_555
N2A Nd1A 1_555 1_555
N5A Nd1A 1_555 1_555
N10A Nd1A 1_555 1_555
C13A Co1 1_555 1_555
C14A Co1 1_555 1_555
N10_2 Nd1 1_555 1_555
C10A Co2 1_555 1_555
N6A C10A 1_555 1_555
C11A Co2 1_555 1_555
N7A C11A 1_555 1_555
C1A N1A 1_555 1_555
C4A N1A 1_555 1_555
C5A N2A 1_555 1_555
C8A N2A 1_555 1_555
C9A_2 N5A 1_555 1_555
N9A C13A 1_555 1_555
N10A_2 C14A 1_555 1_555
H1A C1A 1_555 1_555
C2A C1A 1_555 1_555
N3A C4A 1_555 1_555
N4A C5A 1_555 1_555
C7A C8A 1_555 1_555
H6A C8A 1_555 1_555
Co2_2 C9A_2 1_555 1_555
Nd1_2 N10 1_555 1_555
Nd1A_2 N10A_2 1_555 1_555
H2A C2A 1_555 1_555
C3A C2A 1_555 1_555
C6A N4A 1_555 1_555
H5A C7A 1_555 1_555
H3A C3A 1_555 1_555
H4A C6A 1_555 1_555
N3 C4 1_555 1_555
C4 C5 1_555 1_555
C7 C8 1_555 1_555
C4A C5A 1_555 1_555
N3A C3A 1_555 1_555
C7A C6A 1_555 1_555

#END
