
#######################################################################
#
#                 Cambridge Crystallographic Data Centre
#                                CCDC 
#
#######################################################################
#
# If this CIF has been generated from an entry in the Cambridge 
# Structural Database, then it will include bibliographic, chemical, 
# crystal, experimental, refinement or atomic coordinate data resulting 
# from the CCDC's data processing and validation procedures.
#
#######################################################################

data_WOWMAY
_symmetry_cell_setting           monoclinic
_symmetry_space_group_name_H-M   'C 2/c'
_symmetry_Int_Tables_number      15
_space_group_name_Hall           '-C 2yn'
loop_
_symmetry_equiv_pos_site_id
_symmetry_equiv_pos_as_xyz
1 x,y,z
2 -x,y,1/2-z
3 1/2+x,1/2+y,z
4 1/2-x,1/2+y,1/2-z
5 -x,-y,-z
6 x,-y,1/2+z
7 1/2-x,1/2-y,-z
8 1/2+x,1/2-y,1/2+z
_cell_length_a                   22.797(6)
_cell_length_b                   10.814(3)
_cell_length_c                   11.523(3)
_cell_angle_alpha                90
_cell_angle_beta                 112.825(5)
_cell_angle_gamma                90
_cell_volume                     2618.28
loop_
_atom_site_label
_atom_site_type_symbol
_atom_site_fract_x
_atom_site_fract_y
_atom_site_fract_z
Ni1 Ni 0.32172(2) 0.58122(2) 0.56273(2)
O1 O 0.30501(6) 0.67974(10) 0.40072(10)
O2 O 0.25122(6) 0.85350(10) 0.39579(11)
O3 O 0.42010(6) 0.67963(12) 0.33683(12)
O4 O 0.34997(6) 0.54526(10) 0.21291(11)
N1 N 0.38094(7) 0.71477(12) 0.68837(13)
N2 N 0.24409(6) 0.94909(12) 0.04815(12)
C1 C 0.37134(14) 0.8331(2) 0.6610(2)
H1 H 0.3410 0.8546 0.5825
C2 C 0.40326(16) 0.92667(19) 0.7410(3)
H2 H 0.3949 1.0083 0.7143
C3 C 0.44679(10) 0.90212(17) 0.8584(2)
C4 C 0.47836(11) 1.00532(18) 0.9430(2)
H3 H 0.4665 1.0850 0.9126
C5 C 0.45718(12) 0.7782(2) 0.8888(2)
H4 H 0.4865 0.7547 0.9676
C6 C 0.42409(11) 0.68947(17) 0.80249(19)
H5 H 0.4324 0.6069 0.8254
C7 C 0.27853(7) 0.77891(13) 0.35131(14)
C8 C 0.28295(7) 0.81501(13) 0.22859(14)
C9 C 0.32496(7) 0.75839(13) 0.18355(14)
C10 C 0.36821(7) 0.65246(14) 0.25066(14)
C11 C 0.32706(7) 0.80286(15) 0.07165(15)
H6 H 0.3557 0.7697 0.0405
C12 C 0.28609(8) 0.89703(14) 0.00734(15)
H7 H 0.2878 0.9255 -0.0675
C13 C 0.24364(8) 0.90950(13) 0.15779(15)
H8 H 0.2157 0.9468 0.1883
O5 O 0.39760(6) 0.51135(12) 0.52357(12)
H9 H 0.4300(9) 0.496(2) 0.5889(17)
H10 H 0.4052(12) 0.557(2) 0.474(2)
N1D N 0.61906(7) 1.28523(12) 1.31163(13)
C1D C 0.62866(14) 1.1669(2) 1.3390(2)
H1D H 0.6590 1.1454 1.4175
C2D C 0.59674(16) 1.07333(19) 1.2590(3)
H2D H 0.6051 0.9917 1.2857
C3D C 0.55321(10) 1.09788(17) 1.1416(2)
C4D C 0.52164(11) 0.99468(18) 1.0570(2)
H3D H 0.5335 0.9150 1.0874
C5D C 0.54282(12) 1.2218(2) 1.1112(2)
H4D H 0.5135 1.2453 1.0324
C6D C 0.57591(11) 1.31053(17) 1.19751(19)
H5D H 0.5676 1.3931 1.1746
Ni1D Ni 0.67828(2) 1.41878(2) 1.43727(2)
O1D O 0.69499(6) 1.32026(10) 1.59928(10)
O2D O 0.74878(6) 1.14650(10) 1.60421(11)
O3D O 0.57990(6) 1.32037(12) 1.66317(12)
O4D O 0.65003(6) 1.45474(10) 1.78709(11)
N2D N 0.75591(6) 1.05091(12) 1.95185(12)
C7D C 0.72147(7) 1.22109(13) 1.64869(14)
C8D C 0.71705(7) 1.18499(13) 1.77141(14)
C9D C 0.67504(7) 1.24161(13) 1.81645(14)
C10D C 0.63179(7) 1.34754(14) 1.74934(14)
C11D C 0.67294(7) 1.19714(15) 1.92835(15)
H6D H 0.6443 1.2303 1.9595
C12D C 0.71391(8) 1.10297(14) 1.99266(15)
H7D H 0.7122 1.0745 2.0675
C13D C 0.75636(8) 1.09050(13) 1.84221(15)
H8D H 0.7843 1.0532 1.8117
O5D O 0.60240(6) 1.48865(12) 1.47643(12)
H9D H 0.5700(9) 1.504(2) 1.4111(17)
H10D H 0.5948(12) 1.443(2) 1.526(2)
Ni1A Ni 0.67828(2) 1.58122(2) 1.93727(2)
Ni1B Ni 0.82172(2) 1.08122(2) 1.56273(2)
Ni1C Ni 0.17828(2) 1.08122(2) -0.06273(2)
Ni1E Ni 0.32172(2) 0.41878(2) 0.06273(2)
Ni1F Ni 0.17828(2) 0.91878(2) 0.43727(2)
Ni1G Ni 0.82172(2) 0.91878(2) 2.06273(2)
O2B O 0.75122(6) 1.35350(10) 1.39579(11)
O2F O 0.24878(6) 0.64650(10) 0.60421(11)
O4A O 0.65003(6) 1.54526(10) 1.28709(11)
O4E O 0.34997(6) 0.45474(10) 0.71291(11)
N2C N 0.25591(6) 0.44909(12) 0.45185(12)
N2G N 0.74409(6) 1.55091(12) 1.54815(12)
O6 O 0.5000 0.5545(2) 0.2500
H11 H 0.5205(13) 0.602(2) 0.219(3)
H11A H 0.4795(13) 0.602(2) 0.281(3)
loop_
_geom_bond_atom_site_label_1
_geom_bond_atom_site_label_2
_geom_bond_site_symmetry_1
_geom_bond_site_symmetry_2
Ni1 O1 1_555 1_555
O1 C7 1_555 1_555
O2 C7 1_555 1_555
O3 C10 1_555 1_555
O4 C10 1_555 1_555
N1 Ni1 1_555 1_555
N2 C12 1_555 1_555
C1 N1 1_555 1_555
H1 C1 1_555 1_555
C2 C1 1_555 1_555
H2 C2 1_555 1_555
C3 C2 1_555 1_555
C4 C3 1_555 1_555
H3 C4 1_555 1_555
C5 C3 1_555 1_555
H4 C5 1_555 1_555
C6 N1 1_555 1_555
H5 C6 1_555 1_555
C7 C8 1_555 1_555
C8 C9 1_555 1_555
C9 C10 1_555 1_555
C11 C9 1_555 1_555
H6 C11 1_555 1_555
C12 C11 1_555 1_555
H7 C12 1_555 1_555
C13 N2 1_555 1_555
H8 C13 1_555 1_555
O5 Ni1 1_555 1_555
H9 O5 1_555 1_555
H10 O5 1_555 1_555
O6 H11 1_555 1_555
N1D C1D 1_555 1_555
C1D H1D 1_555 1_555
C2D C1D 1_555 1_555
H2D C2D 1_555 1_555
C3D C2D 1_555 1_555
C4D C4 1_555 1_555
H3D C4D 1_555 1_555
C5D C3D 1_555 1_555
H4D C5D 1_555 1_555
C6D N1D 1_555 1_555
H5D C6D 1_555 1_555
Ni1D N1D 1_555 1_555
O1D Ni1D 1_555 1_555
O2D C7D 1_555 1_555
O3D C10D 1_555 1_555
O4D C10D 1_555 1_555
N2D C12D 1_555 1_555
C7D O1D 1_555 1_555
C8D C7D 1_555 1_555
C9D C8D 1_555 1_555
C10D C9D 1_555 1_555
C11D C9D 1_555 1_555
H6D C11D 1_555 1_555
C12D C11D 1_555 1_555
H7D C12D 1_555 1_555
C13D N2D 1_555 1_555
H8D C13D 1_555 1_555
O5D Ni1D 1_555 1_555
H9D O5D 1_555 1_555
H10D O5D 1_555 1_555
Ni1A O4D 1_555 1_555
Ni1B O2D 1_555 1_555
Ni1C N2 1_555 1_555
Ni1E O4 1_555 1_555
Ni1F O2 1_555 1_555
Ni1G N2D 1_555 1_555
O2B Ni1D 1_555 1_555
O2F Ni1 1_555 1_555
O4A Ni1D 1_555 1_555
O4E Ni1 1_555 1_555
N2C Ni1 1_555 1_555
N2G Ni1D 1_555 1_555
H11A O6 1_555 1_555
C5 C6 1_555 1_555
C8 C13 1_555 1_555
C3D C4D 1_555 1_555
C5D C6D 1_555 1_555
C8D C13D 1_555 1_555

#END
