
#######################################################################
#
#                 Cambridge Crystallographic Data Centre
#                                CCDC 
#
#######################################################################
#
# If this CIF has been generated from an entry in the Cambridge 
# Structural Database, then it will include bibliographic, chemical, 
# crystal, experimental, refinement or atomic coordinate data resulting 
# from the CCDC's data processing and validation procedures.
#
#######################################################################

data_WOWMIG
_symmetry_cell_setting           triclinic
_symmetry_space_group_name_H-M   'P -1'
_symmetry_Int_Tables_number      2
_space_group_name_Hall           '-P 1'
loop_
_symmetry_equiv_pos_site_id
_symmetry_equiv_pos_as_xyz
1 x,y,z
2 -x,-y,-z
_cell_length_a                   9.1763(4)
_cell_length_b                   9.9129(4)
_cell_length_c                   10.6297(12)
_cell_angle_alpha                115.022(15)
_cell_angle_beta                 96.04(3)
_cell_angle_gamma                106.60(2)
_cell_volume                     810.701
loop_
_atom_site_label
_atom_site_type_symbol
_atom_site_fract_x
_atom_site_fract_y
_atom_site_fract_z
Ni1 Ni 0.24840(3) 0.39667(3) 0.23530(2)
O1 O 0.47776(16) 0.39996(16) 0.25950(15)
O2 O 0.44696(17) 0.14347(17) 0.18906(19)
O3 O 0.72434(16) 0.51045(17) 0.54155(14)
O4 O 0.85131(19) 0.72280(17) 0.51447(16)
N1 N 0.2175(2) 0.3011(2) 0.01264(17)
N2 N 0.2062(2) 0.1270(2) -0.20678(19)
N3 N 0.4589(2) 0.1390(2) -0.35476(19)
N4 N 0.6557(2) 0.3677(2) -0.27756(18)
N5 N 1.01187(19) 0.3859(2) 0.21462(17)
C1 C 0.1625(3) 0.3434(3) -0.0845(3)
H1 H 0.1344 0.4324 -0.0608
C2 C 0.2410(3) 0.1693(3) -0.0660(2)
H2 H 0.2775 0.1119 -0.0286
C3 C 0.1549(4) 0.2374(3) -0.2200(3)
H3 H 0.1214 0.2398 -0.3045
C4 C 0.2168(3) -0.0163(3) -0.3210(3)
H4 H 0.1113 -0.0946 -0.3731
H5 H 0.2723 -0.0623 -0.2777
C5 C 0.3003(3) 0.0166(3) -0.4260(2)
H6 H 0.3075 -0.0817 -0.4959
H7 H 0.2388 0.0514 -0.4772
C6 C 0.5092(3) 0.2787(3) -0.3577(2)
H8 H 0.4490 0.3089 -0.4092
C7 C 0.7005(3) 0.2791(3) -0.2223(2)
H9 H 0.7988 0.3110 -0.1623
C8 C 0.5797(3) 0.1372(3) -0.2682(3)
H10 H 0.5793 0.0561 -0.2457
C9 C 0.5262(2) 0.2873(2) 0.22729(19)
C10 C 0.6980(2) 0.3263(2) 0.22620(19)
C11 C 0.7385(2) 0.2241(2) 0.1102(2)
H11 H 0.6604 0.1349 0.0336
C12 C 0.8949(2) 0.2558(2) 0.1093(2)
H12 H 0.9202 0.1841 0.0328
C13 C 0.9714(2) 0.4885(2) 0.32308(19)
H13 H 1.0511 0.5818 0.3939
C14 C 0.8184(2) 0.4633(2) 0.33546(18)
C15 C 0.7932(2) 0.5757(2) 0.47440(19)
O5 O 0.16328(17) 0.16035(18) 0.20904(15)
H14 H 0.154(4) 0.184(4) 0.293(2)
H15 H 0.245(3) 0.139(3) 0.203(3)
Ni1_2 Ni 1.24840(3) 0.39667(3) 0.23530(2)
Ni1A Ni 0.75160(3) 0.60333(3) -0.23530(2)
Ni1A_2 Ni 0.75160(3) 0.60333(3) 0.76470(2)
O3A O 0.27566(16) 0.48955(17) 0.45845(14)
N4A N 0.3443(2) 0.6323(2) 0.27756(18)
N5_2 N 0.01187(19) 0.3859(2) 0.21462(17)
loop_
_geom_bond_atom_site_label_1
_geom_bond_atom_site_label_2
_geom_bond_site_symmetry_1
_geom_bond_site_symmetry_2
Ni1 O1 1_555 1_555
O1 C9 1_555 1_555
O2 C9 1_555 1_555
O3 C15 1_555 1_555
O4 C15 1_555 1_555
N1 Ni1 1_555 1_555
N2 C2 1_555 1_555
N3 C5 1_555 1_555
N4 C6 1_555 1_555
N5 C12 1_555 1_555
C1 N1 1_555 1_555
H1 C1 1_555 1_555
C2 N1 1_555 1_555
H2 C2 1_555 1_555
C3 N2 1_555 1_555
H3 C3 1_555 1_555
C4 N2 1_555 1_555
H4 C4 1_555 1_555
H5 C4 1_555 1_555
C5 C4 1_555 1_555
H6 C5 1_555 1_555
H7 C5 1_555 1_555
C6 N3 1_555 1_555
H8 C6 1_555 1_555
C7 N4 1_555 1_555
H9 C7 1_555 1_555
C8 N3 1_555 1_555
H10 C8 1_555 1_555
C9 C10 1_555 1_555
C10 C11 1_555 1_555
C11 H11 1_555 1_555
C12 C11 1_555 1_555
H12 C12 1_555 1_555
C13 N5 1_555 1_555
H13 C13 1_555 1_555
C14 C10 1_555 1_555
C15 C14 1_555 1_555
O5 Ni1 1_555 1_555
H14 O5 1_555 1_555
H15 O5 1_555 1_555
Ni1_2 N5 1_555 1_555
Ni1A N4 1_555 1_555
Ni1A_2 O3 1_555 1_555
O3A Ni1 1_555 1_555
N4A Ni1 1_555 1_555
N5_2 Ni1 1_555 1_555
C1 C3 1_555 1_555
C7 C8 1_555 1_555
C13 C14 1_555 1_555

#END
