
#######################################################################
#
#                 Cambridge Crystallographic Data Centre
#                                CCDC 
#
#######################################################################
#
# If this CIF has been generated from an entry in the Cambridge 
# Structural Database, then it will include bibliographic, chemical, 
# crystal, experimental, refinement or atomic coordinate data resulting 
# from the CCDC's data processing and validation procedures.
#
#######################################################################

data_WOWQEG
_symmetry_cell_setting           monoclinic
_symmetry_space_group_name_H-M   'P 21/c'
_symmetry_Int_Tables_number      14
_space_group_name_Hall           '-P 2ybc'
loop_
_symmetry_equiv_pos_site_id
_symmetry_equiv_pos_as_xyz
1 x,y,z
2 -x,1/2+y,1/2-z
3 -x,-y,-z
4 x,1/2-y,1/2+z
_cell_length_a                   10.0271(7)
_cell_length_b                   19.0026(14)
_cell_length_c                   14.5138(10)
_cell_angle_alpha                90
_cell_angle_beta                 92.7470(10)
_cell_angle_gamma                90
_cell_volume                     2762.3
loop_
_atom_site_label
_atom_site_type_symbol
_atom_site_fract_x
_atom_site_fract_y
_atom_site_fract_z
Pd1 Pd 1.00156(2) 0.18998(2) 1.01573(2)
O1 O 0.85655(19) 0.22845(10) 0.53063(12)
O2 O 0.77993(19) 0.12833(10) 0.58586(12)
O3 O 1.0157(2) 0.33913(10) 0.66607(11)
O4 O 0.9472(2) 0.36144(10) 0.80695(12)
C1 C 1.1969(3) 0.14845(16) 1.00226(18)
H1 H 1.2463 0.1659 0.9494
H2 H 1.2531 0.1439 1.0599
C2 C 1.1062(3) 0.09522(14) 0.98375(17)
H3 H 1.1041 0.0570 1.0310
C3 C 1.0580(3) 0.07490(14) 0.88720(17)
H4 H 0.9709 0.0506 0.8895
H5 H 1.1225 0.0417 0.8612
C4 C 1.0428(2) 0.13951(13) 0.82417(15)
H6 H 1.1281 0.1488 0.7933
C5 C 0.9270(2) 0.13011(12) 0.75134(15)
H7 H 0.9221 0.0826 0.7217
C6 C 0.9332(2) 0.19235(12) 0.68324(15)
H8 H 1.0286 0.2025 0.6711
C7 C 0.8750(2) 0.25486(12) 0.73910(15)
H9 H 0.7834 0.2648 0.7119
C8 C 0.8582(2) 0.22232(12) 0.83592(14)
H10 H 0.7994 0.2496 0.8767
C9 C 0.9990(2) 0.20644(12) 0.87802(15)
H11 H 1.0600 0.2464 0.8646
C10 C 0.8054(2) 0.14960(13) 0.80714(16)
H12 H 0.7214 0.1520 0.7685
H13 H 0.7941 0.1179 0.8604
C11 C 0.8549(2) 0.18451(13) 0.59274(16)
C12 C 0.7030(4) 0.11876(18) 0.4988(2)
H14 H 0.6412 0.1583 0.4891
H15 H 0.6524 0.0747 0.5008
H16 H 0.7639 0.1169 0.4480
C13 C 0.9541(3) 0.32151(13) 0.73285(16)
C14 C 1.0180(5) 0.42832(16) 0.8045(2)
H17 H 1.1137 0.4195 0.7998
H18 H 1.0031 0.4548 0.8610
H19 H 0.9847 0.4556 0.7509
Pd1C Pd 1.00156(2) 0.31002(2) 0.51573(2)
O1C O 0.85655(19) 0.27155(10) 1.03063(12)
O3C O 1.0157(2) 0.16087(10) 1.16607(11)
C15 C 0.3119(6) 0.3855(3) 0.0172(4)
H20 H 0.3552 0.4278 -0.0058
H21 H 0.2923 0.3530 -0.0341
H22 H 0.3715 0.3626 0.0635
N1 N 0.1897(4) 0.4049(3) 0.0584(3)
O5 O 0.0889(5) 0.3828(4) 0.0250(4)
O6 O 0.1954(5) 0.4372(2) 0.1286(4)
C16 C 0.5743(5) 0.1393(3) 0.0009(3)
H23 H 0.5073 0.1480 0.0466
H24 H 0.5304 0.1206 -0.0557
H25 H 0.6194 0.1836 -0.0130
N2 N 0.6704(4) 0.0894(2) 0.0372(3)
O7 O 0.6702(8) 0.0335(3) 0.0050(4)
O8 O 0.7467(5) 0.1043(3) 0.0954(4)
C17 C 0.5303(8) 0.4985(3) 0.7297(5)
H26 H 0.4876 0.4937 0.6679
H27 H 0.5965 0.4610 0.7399
H28 H 0.5747 0.5443 0.7352
N3 N 0.4326(7) 0.4934(2) 0.7964(5)
O9 O 0.3221(6) 0.4974(3) 0.7731(8)
O10 O 0.4794(8) 0.4821(3) 0.8766(4)
Sb1 Sb 0.41405(2) 0.25751(2) 0.75034(2)
F1 F 0.2736(2) 0.22993(11) 0.66892(15)
F2 F 0.4151(3) 0.16779(14) 0.80253(19)
F3 F 0.5366(2) 0.22740(14) 0.66614(16)
F4 F 0.5542(2) 0.28412(16) 0.83115(17)
F5 F 0.4121(2) 0.34650(11) 0.69651(17)
F6 F 0.2900(2) 0.28682(16) 0.83370(18)
loop_
_geom_bond_atom_site_label_1
_geom_bond_atom_site_label_2
_geom_bond_site_symmetry_1
_geom_bond_site_symmetry_2
Pd1 C1 1_555 1_555
O1 C11 1_555 1_555
O2 C11 1_555 1_555
O3 C13 1_555 1_555
O4 C13 1_555 1_555
C1 H1 1_555 1_555
H2 C1 1_555 1_555
C2 Pd1 1_555 1_555
H3 C2 1_555 1_555
C3 C2 1_555 1_555
H4 C3 1_555 1_555
H5 C3 1_555 1_555
C4 C3 1_555 1_555
H6 C4 1_555 1_555
C5 C4 1_555 1_555
H7 C5 1_555 1_555
C6 C5 1_555 1_555
H8 C6 1_555 1_555
C7 C6 1_555 1_555
H9 C7 1_555 1_555
C8 C7 1_555 1_555
H10 C8 1_555 1_555
C9 Pd1 1_555 1_555
H11 C9 1_555 1_555
C10 C5 1_555 1_555
H12 C10 1_555 1_555
H13 C10 1_555 1_555
C11 C6 1_555 1_555
C12 O2 1_555 1_555
H14 C12 1_555 1_555
H15 C12 1_555 1_555
H16 C12 1_555 1_555
C13 C7 1_555 1_555
C14 O4 1_555 1_555
H17 C14 1_555 1_555
H18 C14 1_555 1_555
H19 C14 1_555 1_555
C15 H20 1_555 1_555
H21 C15 1_555 1_555
H22 C15 1_555 1_555
N1 C15 1_555 1_555
O5 N1 1_555 1_555
O6 N1 1_555 1_555
C16 H23 1_555 1_555
H24 C16 1_555 1_555
H25 C16 1_555 1_555
N2 C16 1_555 1_555
O7 N2 1_555 1_555
O8 N2 1_555 1_555
C17 H26 1_555 1_555
H27 C17 1_555 1_555
H28 C17 1_555 1_555
N3 C17 1_555 1_555
O9 N3 1_555 1_555
O10 N3 1_555 1_555
Sb1 F1 1_555 1_555
F2 Sb1 1_555 1_555
F3 Sb1 1_555 1_555
F4 Sb1 1_555 1_555
F5 Sb1 1_555 1_555
F6 Sb1 1_555 1_555
Pd1C O1 1_555 1_555
O1C Pd1 1_555 1_555
O3C Pd1 1_555 1_555
O3 Pd1C 1_555 1_555
C1 C2 1_555 1_555
C4 C9 1_555 1_555
C8 C9 1_555 1_555
C8 C10 1_555 1_555

#END
