
#######################################################################
#
#                 Cambridge Crystallographic Data Centre
#                                CCDC 
#
#######################################################################
#
# If this CIF has been generated from an entry in the Cambridge 
# Structural Database, then it will include bibliographic, chemical, 
# crystal, experimental, refinement or atomic coordinate data resulting 
# from the CCDC's data processing and validation procedures.
#
#######################################################################

data_WOWQUW
_symmetry_cell_setting           orthorhombic
_symmetry_space_group_name_H-M   'P n m a'
_symmetry_Int_Tables_number      62
_space_group_name_Hall           '-P 2ac 2n'
loop_
_symmetry_equiv_pos_site_id
_symmetry_equiv_pos_as_xyz
1 x,y,z
2 1/2+x,1/2-y,1/2-z
3 -x,1/2+y,-z
4 1/2-x,-y,1/2+z
5 -x,-y,-z
6 1/2-x,1/2+y,1/2+z
7 x,1/2-y,z
8 1/2+x,y,1/2-z
_cell_length_a                   18.890(5)
_cell_length_b                   16.805(4)
_cell_length_c                   13.196(3)
_cell_angle_alpha                90
_cell_angle_beta                 90
_cell_angle_gamma                90
_cell_volume                     4189.02
loop_
_atom_site_label
_atom_site_type_symbol
_atom_site_fract_x
_atom_site_fract_y
_atom_site_fract_z
Pd1 Pd 0.33750(2) 0.03235(2) 0.72772(2)
O1 O 0.26264(11) -0.08330(13) 1.19224(16)
O2 O 0.37366(12) -0.07286(15) 1.14178(19)
O3 O 0.14360(12) -0.04820(15) 1.06415(16)
O4 O 0.15838(11) -0.01678(14) 0.90270(16)
C1 C 0.41140(18) -0.0629(2) 0.7427(3)
H1 H 0.4007 -0.1032 0.7952
H2 H 0.4298 -0.0860 0.6789
C2 C 0.44316(16) 0.0060(2) 0.7755(2)
H3 H 0.4815 0.0271 0.7307
C3 C 0.44714(16) 0.0315(2) 0.8852(2)
H4 H 0.4524 0.0900 0.8890
H5 H 0.4892 0.0070 0.9175
C4 C 0.37999(15) 0.00598(18) 0.9425(2)
H6 H 0.3847 -0.0499 0.9676
C5 C 0.36303(16) 0.06315(18) 1.0312(2)
H7 H 0.4050 0.0778 1.0735
C6 C 0.29862(15) 0.03166(17) 1.0931(2)
H8 H 0.2928 0.0705 1.1499
C7 C 0.30808(16) -0.04744(18) 1.1441(2)
C8 C 0.3897(3) -0.1450(3) 1.1988(5)
H9 H 0.4406 -0.1563 1.1945
H10 H 0.3631 -0.1898 1.1704
H11 H 0.3764 -0.1375 1.2700
C9 C 0.09600(19) -0.0648(3) 0.8806(3)
H12 H 0.0870 -0.0644 0.8075
H13 H 0.0550 -0.0426 0.9163
H14 H 0.1041 -0.1195 0.9034
C10 C 0.17628(16) -0.01187(19) 0.9992(2)
C11 C 0.23379(15) 0.04893(18) 1.0189(2)
H15 H 0.2086 0.0953 1.0499
C12 C 0.27135(15) 0.08346(17) 0.9239(2)
H16 H 0.2399 0.1136 0.8766
C13 C 0.32919(17) 0.13347(18) 0.9751(2)
H17 H 0.3097 0.1741 1.0216
H18 H 0.3618 0.1585 0.9257
C14 C 0.31334(15) 0.01460(18) 0.8746(2)
H19 H 0.2847 -0.0352 0.8803
Pd1C Pd 0.16250(2) -0.03235(2) 1.22772(2)
O1C O 0.23736(11) 0.08330(13) 0.69224(16)
O3C O 0.35640(12) 0.04820(15) 0.56415(16)
Sb1 Sb 0.24082(2) 0.2500 0.35500(3)
F1 F 0.14301(18) 0.2500 0.3412(3)
F2 F 0.24909(15) 0.17036(14) 0.2565(2)
F3 F 0.23420(15) 0.17113(13) 0.45562(19)
F4 F 0.33862(19) 0.2500 0.3723(4)
F2F F 0.24909(15) 0.32964(14) 0.2565(2)
F3F F 0.23420(15) 0.32887(13) 0.45562(19)
Sb2 Sb 0.57885(2) 0.2500 0.50946(2)
F5 F 0.6605(2) 0.2500 0.5901(4)
F6 F 0.5284(3) 0.2500 0.6281(3)
F7 F 0.57940(16) 0.13856(17) 0.5094(3)
F8 F 0.4970(3) 0.2500 0.4353(4)
F9 F 0.6350(4) 0.2500 0.3966(5)
F7F F 0.57940(16) 0.36144(17) 0.5094(3)
O5 O 0.5103(2) 0.1852(3) 0.0408(3)
N1 N 0.5002(3) 0.2500 0.0795(4)
C15 C 0.4756(4) 0.2500 0.1839(6)
O5F O 0.5103(2) 0.3148(3) 0.0408(3)
O6 O 0.4040(3) 0.3132(2) 0.7478(3)
N2 N 0.3864(3) 0.2500 0.7108(3)
C16 C 0.3508(4) 0.2500 0.6109(5)
O6F O 0.4040(3) 0.1868(2) 0.7478(3)
H20? H 0.3436 0.1950 0.5884
H21? H 0.3804 0.2782 0.5615
H22? H 0.3049 0.2768 0.6166
H23? H 0.4684 0.3049 0.2065
H24? H 0.5110 0.2243 0.2271
H25? H 0.4308 0.2208 0.1884
loop_
_geom_bond_atom_site_label_1
_geom_bond_atom_site_label_2
_geom_bond_site_symmetry_1
_geom_bond_site_symmetry_2
Pd1 C1 1_555 1_555
O1 C7 1_555 1_555
O2 C7 1_555 1_555
O3 C10 1_555 1_555
O4 C9 1_555 1_555
C1 H1 1_555 1_555
H2 C1 1_555 1_555
C2 Pd1 1_555 1_555
H3 C2 1_555 1_555
C3 C2 1_555 1_555
H4 C3 1_555 1_555
H5 C3 1_555 1_555
C4 C3 1_555 1_555
H6 C4 1_555 1_555
C5 C4 1_555 1_555
H7 C5 1_555 1_555
C6 C5 1_555 1_555
H8 C6 1_555 1_555
C7 C6 1_555 1_555
C8 O2 1_555 1_555
H9 C8 1_555 1_555
H10 C8 1_555 1_555
H11 C8 1_555 1_555
C9 H12 1_555 1_555
H13 C9 1_555 1_555
H14 C9 1_555 1_555
C10 O4 1_555 1_555
C11 C6 1_555 1_555
H15 C11 1_555 1_555
C12 C11 1_555 1_555
H16 C12 1_555 1_555
C13 C5 1_555 1_555
H17 C13 1_555 1_555
H18 C13 1_555 1_555
C14 Pd1 1_555 1_555
H19 C14 1_555 1_555
Sb1 F1 1_555 1_555
F2 Sb1 1_555 1_555
F3 Sb1 1_555 1_555
F4 Sb1 1_555 1_555
Sb2 F5 1_555 1_555
F6 Sb2 1_555 1_555
F7 Sb2 1_555 1_555
F8 Sb2 1_555 1_555
F9 Sb2 1_555 1_555
O5 N1 1_555 1_555
N1 C15 1_555 1_555
O6 N2 1_555 1_555
N2 C16 1_555 1_555
Pd1C O1 1_555 1_555
O1C Pd1 1_555 1_555
O3C Pd1 1_555 1_555
F2F Sb1 1_555 1_555
F3F Sb1 1_555 1_555
F7F Sb2 1_555 1_555
O5F N1 1_555 1_555
O6F N2 1_555 1_555
O3 Pd1C 1_555 1_555
C1 C2 1_555 1_555
C4 C14 1_555 1_555
C10 C11 1_555 1_555
C12 C13 1_555 1_555
C12 C14 1_555 1_555

#END
