
#######################################################################
#
#                 Cambridge Crystallographic Data Centre
#                                CCDC 
#
#######################################################################
#
# If this CIF has been generated from an entry in the Cambridge 
# Structural Database, then it will include bibliographic, chemical, 
# crystal, experimental, refinement or atomic coordinate data resulting 
# from the CCDC's data processing and validation procedures.
#
#######################################################################

data_WOWYIQ
_symmetry_cell_setting           monoclinic
_symmetry_space_group_name_H-M   'P 21/m'
_symmetry_Int_Tables_number      11
_space_group_name_Hall           '-P 2yb'
loop_
_symmetry_equiv_pos_site_id
_symmetry_equiv_pos_as_xyz
1 x,y,z
2 x,1/2-y,z
3 -x,-y,-z
4 -x,1/2+y,-z
_cell_length_a                   3.6350(7)
_cell_length_b                   17.160(3)
_cell_length_c                   6.9800(14)
_cell_angle_alpha                90.00
_cell_angle_beta                 90.58(3)
_cell_angle_gamma                90.00
_cell_volume                     435.366
loop_
_atom_site_label
_atom_site_type_symbol
_atom_site_fract_x
_atom_site_fract_y
_atom_site_fract_z
Cu1 Cu -1.4565(4) 0.32395(7) 0.7508(2)
Cu2 Cu -1.1077(6) 0.2500 1.1336(3)
Cl1 Cl -0.9292(6) 0.35779(14) 0.9653(3)
N1 N -1.2759(39) 0.2500 1.3839(18)
N2 N -1.5260(23) 0.5705(5) 0.4031(11)
C1 C -1.3496(39) 0.2500 1.5445(25)
C2 C -1.4251(29) 0.5666(6) 0.5839(15)
H1 H -1.3681(29) 0.6141(6) 0.6507(15)
C3 C -1.3951(26) 0.4974(6) 0.6807(14)
H2 H -1.6855(26) 0.5026(6) 0.1879(14)
Cu1B Cu -1.5435(4) 0.67605(7) 0.2492(2)
N2B N -1.4740(23) 0.4295(5) 0.5969(11)
Cu1A Cu -1.4565(4) 0.17605(7) 0.7508(2)
Cu1_2 Cu -0.4565(4) 0.32395(7) 0.7508(2)
Cu1A_2 Cu -0.4565(4) 0.17605(7) 0.7508(2)
Cl1A Cl -0.9292(6) 0.14221(14) 0.9653(3)
Cl1_2 Cl -1.9292(6) 0.35779(14) 0.9653(3)
C1_2 C -1.3496(39) 0.2500 0.5445(25)
C2B C -1.5749(29) 0.4334(6) 0.4161(15)
H1B H -1.6319(29) 0.3859(6) 0.3493(15)
C3B C -1.6049(26) 0.5026(6) 0.3193(14)
H2B H -1.3145(26) 0.4974(6) 0.8121(14)
Cl1A_2 Cl -1.9292(6) 0.14221(14) 0.9653(3)
N2C N -1.4740(23) 0.0705(5) 0.5969(11)
Cu1_3 Cu -1.4565(4) 0.32395(7) 1.7508(2)
Cu1A_3 Cu -1.4565(4) 0.17605(7) 1.7508(2)
loop_
_geom_bond_atom_site_label_1
_geom_bond_atom_site_label_2
_geom_bond_site_symmetry_1
_geom_bond_site_symmetry_2
Cu1 Cl1 1_555 1_555
Cu2 Cl1 1_555 1_555
Cl1 Cu1_2 1_555 1_555
N1 Cu2 1_555 1_555
N2 C2 1_555 1_555
C1 N1 1_555 1_555
C2 H1 1_555 1_555
C3 C2 1_555 1_555
H2 C3B 1_555 1_555
Cu1B N2 1_555 1_555
N2B Cu1 1_555 1_555
Cu1A Cu1 1_555 1_555
Cu1_2 Cu1A_2 1_555 1_555
Cu1A_2 Cl1A 1_555 1_555
Cl1A Cu2 1_555 1_555
Cl1_2 Cu1 1_555 1_555
C1_2 Cu1 1_555 1_555
C2B N2B 1_555 1_555
H1B C2B 1_555 1_555
C3B N2 1_555 1_555
H2B C3 1_555 1_555
Cl1A_2 Cu1A 1_555 1_555
N2C Cu1A 1_555 1_555
Cu1_3 C1 1_555 1_555
Cu1A_3 C1 1_555 1_555
C3 N2B 1_555 1_555
Cu1A Cl1A 1_555 1_555
Cu1A C1_2 1_555 1_555
C2B C3B 1_555 1_555
Cu1_3 Cu1A_3 1_555 1_555

#END
