
#######################################################################
#
#                 Cambridge Crystallographic Data Centre
#                                CCDC 
#
#######################################################################
#
# If this CIF has been generated from an entry in the Cambridge 
# Structural Database, then it will include bibliographic, chemical, 
# crystal, experimental, refinement or atomic coordinate data resulting 
# from the CCDC's data processing and validation procedures.
#
#######################################################################

data_WOWYOW
_symmetry_cell_setting           triclinic
_symmetry_space_group_name_H-M   'P -1'
_symmetry_Int_Tables_number      2
_space_group_name_Hall           '-P 1'
loop_
_symmetry_equiv_pos_site_id
_symmetry_equiv_pos_as_xyz
1 x,y,z
2 -x,-y,-z
_cell_length_a                   6.9671(14)
_cell_length_b                   7.849(2)
_cell_length_c                   8.099(2)
_cell_angle_alpha                71.69(3)
_cell_angle_beta                 70.71(3)
_cell_angle_gamma                85.43(3)
_cell_volume                     396.719
loop_
_atom_site_label
_atom_site_type_symbol
_atom_site_fract_x
_atom_site_fract_y
_atom_site_fract_z
Br1 Br -0.3426(2) 0.31590(14) 0.6503(2)
Br2 Br -0.6581(2) 0.18370(14) 0.3500(2)
Cu1 Cu -0.4435(2) 0.4157(2) 0.3618(2)
Cu2 Cu -0.5574(2) 0.0840(2) 0.6386(2)
N1 N 0.1841(13) 0.5385(12) -0.1456(13)
N2 N -0.8249(14) 0.0391(12) 0.8491(15)
C1 C 0.1724(18) 0.5476(16) 0.0112(18)
H1 H 0.2942(18) 0.5814(16) 0.0252(18)
C2 C 0.0029(19) 0.4860(17) -0.1635(19)
H2 H 0.0026(19) 0.4737(17) -0.2776(19)
C3 C -0.9948(17) -0.0080(16) 0.8398(17)
H3 H -0.9964(17) -0.0164(16) 0.7245(17)
C4 C -1.1646(18) -0.0430(17) 0.9783(20)
H4 H -0.7141(18) 0.0739(17) 1.0386(20)
C2A C -0.0029(19) 0.5140(17) 0.1635(19)
N1A N -0.1841(13) 0.4615(12) 0.1456(13)
Cu1A Cu 0.4435(2) 0.5843(2) -0.3618(2)
Br1A Br -0.6574(2) 0.68410(14) 0.3497(2)
Cu1A_2 Cu -0.5565(2) 0.5843(2) 0.6382(2)
Br2A Br -0.3419(2) -0.18370(14) 0.6500(2)
Cu1A_3 Cu -0.5565(2) -0.4157(2) 0.6382(2)
Cu2A Cu -0.4426(2) -0.0840(2) 0.3614(2)
N2A N -1.1751(14) -0.0391(12) 1.1509(15)
Cu2A_2 Cu -1.4426(2) -0.0840(2) 1.3614(2)
C3A C -1.0052(17) 0.0080(16) 1.1602(17)
H3A H -1.0036(17) 0.0164(16) 1.2755(17)
C4A C -0.8354(18) 0.0430(17) 1.0217(20)
H4A H -1.2859(18) -0.0739(17) 0.9614(20)
C1A C -0.1724(18) 0.4524(16) -0.0112(18)
H1A H -0.2942(18) 0.4186(16) -0.0252(18)
H2A H -0.0026(19) 0.5263(17) 0.2776(19)
Br2A_2 Br -0.3419(2) 0.81630(14) 0.6500(2)
N1_2 N -0.8159(13) 0.5385(12) 0.8544(13)
Cu2A_3 Cu -0.4426(2) 0.9160(2) 0.3614(2)
Br2_2 Br -0.6581(2) 1.18370(14) 0.3500(2)
N2A_2 N -0.1751(14) 0.9609(12) 0.1509(15)
loop_
_geom_bond_atom_site_label_1
_geom_bond_atom_site_label_2
_geom_bond_site_symmetry_1
_geom_bond_site_symmetry_2
Br1 Cu1 1_555 1_555
Br2 Cu1 1_555 1_555
Cu1 N1A 1_555 1_555
Cu2 Br1 1_555 1_555
N1 C1 1_555 1_555
N2 Cu2 1_555 1_555
C1 H1 1_555 1_555
C2 N1 1_555 1_555
H2 C2 1_555 1_555
C3 N2 1_555 1_555
H3 C3 1_555 1_555
C4 C3 1_555 1_555
H4 C4A 1_555 1_555
C2A C1 1_555 1_555
N1A C2A 1_555 1_555
Cu1A N1 1_555 1_555
Br1A Cu1 1_555 1_555
Cu1A_2 Br1 1_555 1_555
Br2A Cu2 1_555 1_555
Cu1A_3 Br2A 1_555 1_555
Cu2A Br2 1_555 1_555
N2A C4 1_555 1_555
Cu2A_2 N2A 1_555 1_555
C3A N2A 1_555 1_555
H3A C3A 1_555 1_555
C4A N2 1_555 1_555
H4A C4 1_555 1_555
C1A C2 1_555 1_555
H1A C1A 1_555 1_555
H2A C2A 1_555 1_555
Br2A_2 Cu1A_2 1_555 1_555
N1_2 Cu1A_2 1_555 1_555
Cu2A_3 Br1A 1_555 1_555
Br2_2 Cu2A_3 1_555 1_555
N2A_2 Cu2A_3 1_555 1_555
Br2 Cu2 1_555 1_555
N1A C1A 1_555 1_555
Br1A Cu1A_2 1_555 1_555
Br2A Cu2A 1_555 1_555
C3A C4A 1_555 1_555
Br2A_2 Cu2A_3 1_555 1_555

#END
