
#######################################################################
#
#                 Cambridge Crystallographic Data Centre
#                                CCDC 
#
#######################################################################
#
# If this CIF has been generated from an entry in the Cambridge 
# Structural Database, then it will include bibliographic, chemical, 
# crystal, experimental, refinement or atomic coordinate data resulting 
# from the CCDC's data processing and validation procedures.
#
#######################################################################

data_WOXJOI
_symmetry_cell_setting           triclinic
_symmetry_space_group_name_H-M   'P -1'
_symmetry_Int_Tables_number      2
_space_group_name_Hall           '-P 1'
loop_
_symmetry_equiv_pos_site_id
_symmetry_equiv_pos_as_xyz
1 x,y,z
2 -x,-y,-z
_cell_length_a                   9.985(2)
_cell_length_b                   10.998(2)
_cell_length_c                   15.174(2)
_cell_angle_alpha                87.89(1)
_cell_angle_beta                 76.73(1)
_cell_angle_gamma                77.77(1)
_cell_volume                     1584.91
loop_
_atom_site_label
_atom_site_type_symbol
_atom_site_fract_x
_atom_site_fract_y
_atom_site_fract_z
I1 I 0.0870(1) 0.1383(1) 0.4381(1)
I2 I 0.1560(1) 0.0859(1) 0.0174(1)
Cu1 Cu 0.0749(1) -0.0838(1) 0.4158(1)
Cu2 Cu -0.0953(2) 0.0569(1) 0.0845(1)
P1 P 0.2695(5) -0.2046(4) 0.4104(3)
P2 P -0.2173(5) 0.2381(4) 0.0960(3)
N1 N -0.0390(13) -0.0942(11) 0.3296(8)
N2 N -0.0971(14) -0.0477(1) 0.1935(9)
N3 N 0.0491(16) 0.0478(12) 0.2422(9)
C1 C 0.3640(18) -0.1671(14) 0.4821(11)
C2 C 0.2921(16) -0.1365(16) 0.5659(12)
C3 C 0.3613(22) -0.1114(17) 0.6274(12)
C4 C 0.4957(18) -0.1125(16) 0.6050(15)
C5 C 0.5614(18) -0.1409(17) 0.5197(16)
C6 C 0.4968(18) -0.1674(16) 0.4582(12)
C7 C 0.2513(17) -0.3538(14) 0.4411(11)
C8 C 0.3222(20) -0.4172(15) 0.4973(13)
C9 C 0.3020(24) -0.5301(18) 0.5143(15)
C10 C 0.2158(21) -0.5763(16) 0.4798(16)
C11 C 0.1458(18) -0.5103(17) 0.4282(13)
C12 C 0.1674(9) -0.3994(15) 0.4066(12)
C13 C 0.3912(19) -0.2293(16) 0.3112(13)
C14 C 0.4839(19) -0.3300(16) 0.2870(13)
C15 C 0.5724(21) -0.3420(19) 0.2102(15)
C16 C 0.5670(30) -0.2562(21) 0.1509(15)
C17 C 0.4800(30) -0.1477(22) 0.1739(16)
C18 C 0.3912(22) -0.1367(18) 0.2520(13)
C19 C -0.1143(16) -0.1737(14) 0.3394(11)
C20 C -0.1808(20) -0.1927(17) 0.2797(12)
C21 C -0.1652(17) -0.1267(15) 0.2068(12)
C22 C -0.0303(18) -0.0312(16) 0.2529(11)
C23 C -0.1542(20) 0.3386(16) 0.1490(12)
C24 C -0.0979(21) 0.4298(19) 0.1096(14)
C25 C -0.0407(24) 0.4998(21) 0.1529(15)
C26 C -0.0347(24) 0.4793(21) 0.2356(16)
C27 C -0.0910(30) 0.3877(20) 0.2754(15)
C28 C -0.1471(21) 0.3186(17) 0.2334(13)
C29 C -0.3882(17) 0.2533(16) 0.1494(12)
C30 C -0.4572(20) 0.1864(19) 0.1223(14)
C31 C -0.5953(21) 0.1944(21) 0.1622(18)
C32 C -0.6544(20) 0.2675(19) 0.2298(16)
C33 C -0.5834(22) 0.3321(19) 0.2591(14)
C34 C -0.4523(18) 0.3273(16) 0.2218(12)
C35 C -0.2334(17) 0.3100(15) -0.0036(12)
C36 C -0.1729(17) 0.2493(15) -0.0797(11)
C37 C -0.1938(21) 0.3009(17) -0.1590(13)
C38 C -0.2686(20) 0.4125(17) -0.1579(12)
C39 C -0.3314(21) 0.4723(18) -0.0812(13)
C40 C -0.3147(18) 0.4219(16) -0.0040(12)
Cu1A Cu -0.0749(1) 0.0838(1) 0.5842(1)
Cu2A Cu 0.0953(2) -0.0569(1) -0.0845(1)
I1A I -0.0870(1) -0.1383(1) 0.5619(1)
I2A I -0.1560(1) -0.0859(1) -0.0174(1)
loop_
_geom_bond_atom_site_label_1
_geom_bond_atom_site_label_2
_geom_bond_site_symmetry_1
_geom_bond_site_symmetry_2
I1 Cu1 1_555 1_555
I2 Cu2 1_555 1_555
Cu1 P1 1_555 1_555
Cu2 P2 1_555 1_555
P1 C1 1_555 1_555
P2 C23 1_555 1_555
N1 Cu1 1_555 1_555
N2 Cu2 1_555 1_555
N3 C22 1_555 1_555
C1 C2 1_555 1_555
C2 C3 1_555 1_555
C3 C4 1_555 1_555
C4 C5 1_555 1_555
C5 C6 1_555 1_555
C6 C1 1_555 1_555
C7 P1 1_555 1_555
C8 C7 1_555 1_555
C9 C8 1_555 1_555
C10 C9 1_555 1_555
C11 C10 1_555 1_555
C12 C7 1_555 1_555
C13 P1 1_555 1_555
C14 C13 1_555 1_555
C15 C14 1_555 1_555
C16 C15 1_555 1_555
C17 C16 1_555 1_555
C18 C13 1_555 1_555
C19 N1 1_555 1_555
C20 C19 1_555 1_555
C21 N2 1_555 1_555
C22 N1 1_555 1_555
C23 C24 1_555 1_555
C24 C25 1_555 1_555
C25 C26 1_555 1_555
C26 C27 1_555 1_555
C27 C28 1_555 1_555
C28 C23 1_555 1_555
C29 P2 1_555 1_555
C30 C29 1_555 1_555
C31 C30 1_555 1_555
C32 C31 1_555 1_555
C33 C32 1_555 1_555
C34 C29 1_555 1_555
C35 P2 1_555 1_555
C36 C35 1_555 1_555
C37 C36 1_555 1_555
C38 C37 1_555 1_555
C39 C38 1_555 1_555
C40 C35 1_555 1_555
Cu1A I1 1_555 1_555
Cu2A I2 1_555 1_555
I1A Cu1 1_555 1_555
I2A Cu2 1_555 1_555
N2 C22 1_555 1_555
C11 C12 1_555 1_555
C17 C18 1_555 1_555
C20 C21 1_555 1_555
C33 C34 1_555 1_555
C39 C40 1_555 1_555
Cu1A I1A 1_555 1_555
Cu2A I2A 1_555 1_555

#END
