
#######################################################################
#
#                 Cambridge Crystallographic Data Centre
#                                CCDC 
#
#######################################################################
#
# If this CIF has been generated from an entry in the Cambridge 
# Structural Database, then it will include bibliographic, chemical, 
# crystal, experimental, refinement or atomic coordinate data resulting 
# from the CCDC's data processing and validation procedures.
#
#######################################################################

data_WOXLOM
_symmetry_cell_setting           monoclinic
_symmetry_space_group_name_H-M   'P 21/n'
_symmetry_Int_Tables_number      14
_space_group_name_Hall           '-P 2yn'
loop_
_symmetry_equiv_pos_site_id
_symmetry_equiv_pos_as_xyz
1 x,y,z
2 1/2-x,1/2+y,1/2-z
3 -x,-y,-z
4 1/2+x,1/2-y,1/2+z
_cell_length_a                   13.0808(11)
_cell_length_b                   10.6982(9)
_cell_length_c                   14.0524(12)
_cell_angle_alpha                90
_cell_angle_beta                 96.336(2)
_cell_angle_gamma                90
_cell_volume                     1954.5
loop_
_atom_site_label
_atom_site_type_symbol
_atom_site_fract_x
_atom_site_fract_y
_atom_site_fract_z
Fe1 Fe 0.73498(3) 0.54167(3) 0.23051(3)
N1 N 0.71617(19) 0.3387(2) 0.21115(18)
C1 C 0.6089(2) 0.6267(2) 0.0438(2)
C2 C 0.5238(3) 0.6630(3) -0.0192(3)
H1 H 0.5307 0.6811 -0.0829
C3 C 0.4300(3) 0.6710(3) 0.0153(3)
H2 H 0.3721 0.6923 -0.0260
C4 C 0.4205(3) 0.6482(3) 0.1095(3)
H3 H 0.3571 0.6556 0.1330
C5 C 0.5086(2) 0.6133(3) 0.1704(2)
C6 C 0.5109(2) 0.5864(3) 0.2735(3)
C7 C 0.6132(4) 0.5199(4) 0.4164(3)
H4 H 0.5923 0.4341 0.4253
H5 H 0.5719 0.5738 0.4525
C8 C 0.7247(4) 0.5354(4) 0.4516(3)
H6 H 0.7416 0.6236 0.4569
H7 H 0.7391 0.4978 0.5144
C9 C 0.8976(3) 0.4882(4) 0.4061(3)
H8 H 0.9212 0.4391 0.4623
H9 H 0.9151 0.5750 0.4195
C10 C 0.9490(3) 0.4443(4) 0.3229(4)
H10 H 1.0228 0.4561 0.3359
H11 H 0.9359 0.3558 0.3126
C11 C 0.9333(3) 0.4594(4) 0.1464(4)
H12 H 0.9059 0.3752 0.1403
H13 H 1.0072 0.4553 0.1449
C12 C 0.8855(3) 0.5390(4) 0.0656(3)
H14 H 0.9232 0.6168 0.0632
H15 H 0.8875 0.4958 0.0052
C13 C 0.7134(3) 0.6095(3) 0.0161(2)
C14 C 0.7367(4) 0.6461(5) -0.0824(3)
H16 H 0.8076 0.6287 -0.0888
H17 H 0.7238 0.7338 -0.0919
H18 H 0.6936 0.5993 -0.1293
C15 C 0.4136(3) 0.6016(5) 0.3208(4)
H19 H 0.4271 0.5810 0.3875
H20 H 0.3615 0.5469 0.2908
H21 H 0.3904 0.6866 0.3142
C16 C 0.72800(19) 0.2346(2) 0.22635(18)
N2 N 0.60025(17) 0.60187(18) 0.13613(16)
N3 N 0.5971(2) 0.5526(2) 0.31452(19)
N4 N 0.7867(2) 0.4755(2) 0.3847(2)
H22 H 0.7727 0.3923 0.3864
N5 N 0.9099(2) 0.5147(3) 0.2365(3)
H23 H 0.9394 0.5919 0.2410
N6 N 0.7778(2) 0.5647(2) 0.0819(2)
Fe1A Fe 0.76502(3) 0.04167(3) 0.26949(3)
C16A C 0.77200(19) 0.7346(2) 0.27365(18)
B1 B 0.1291(4) 0.7375(5) 0.1643(4)
F1 F 0.0603(3) 0.7549(5) 0.2261(4)
F2 F 0.0752(4) 0.7572(6) 0.0772(3)
F3 F 0.1594(3) 0.6223(4) 0.1665(5)
F4 F 0.2103(2) 0.8163(3) 0.1811(3)
loop_
_geom_bond_atom_site_label_1
_geom_bond_atom_site_label_2
_geom_bond_site_symmetry_1
_geom_bond_site_symmetry_2
Fe1 N1 1_555 1_555
N1 C16 1_555 1_555
C1 C2 1_555 1_555
C2 H1 1_555 1_555
C3 C2 1_555 1_555
H2 C3 1_555 1_555
C4 C3 1_555 1_555
H3 C4 1_555 1_555
C5 C4 1_555 1_555
C6 C5 1_555 1_555
C7 H4 1_555 1_555
H5 C7 1_555 1_555
C8 C7 1_555 1_555
H6 C8 1_555 1_555
H7 C8 1_555 1_555
C9 H8 1_555 1_555
H9 C9 1_555 1_555
C10 C9 1_555 1_555
H10 C10 1_555 1_555
H11 C10 1_555 1_555
C11 H12 1_555 1_555
H13 C11 1_555 1_555
C12 C11 1_555 1_555
H14 C12 1_555 1_555
H15 C12 1_555 1_555
C13 C1 1_555 1_555
C14 C13 1_555 1_555
H16 C14 1_555 1_555
H17 C14 1_555 1_555
H18 C14 1_555 1_555
C15 C6 1_555 1_555
H19 C15 1_555 1_555
H20 C15 1_555 1_555
H21 C15 1_555 1_555
C16 Fe1A 1_555 1_555
N2 Fe1 1_555 1_555
N3 Fe1 1_555 1_555
N4 Fe1 1_555 1_555
H22 N4 1_555 1_555
N5 Fe1 1_555 1_555
H23 N5 1_555 1_555
N6 Fe1 1_555 1_555
B1 F1 1_555 1_555
F2 B1 1_555 1_555
F3 B1 1_555 1_555
F4 B1 1_555 1_555
C16A Fe1 1_555 1_555
C1 N2 1_555 1_555
C5 N2 1_555 1_555
C6 N3 1_555 1_555
C7 N3 1_555 1_555
C8 N4 1_555 1_555
C9 N4 1_555 1_555
C10 N5 1_555 1_555
C11 N5 1_555 1_555
C12 N6 1_555 1_555
C13 N6 1_555 1_555

#END
