
#######################################################################
#
#                 Cambridge Crystallographic Data Centre
#                                CCDC 
#
#######################################################################
#
# If this CIF has been generated from an entry in the Cambridge 
# Structural Database, then it will include bibliographic, chemical, 
# crystal, experimental, refinement or atomic coordinate data resulting 
# from the CCDC's data processing and validation procedures.
#
#######################################################################

data_WOXPEE
_symmetry_cell_setting           triclinic
_symmetry_space_group_name_H-M   'P -1'
_symmetry_Int_Tables_number      2
_space_group_name_Hall           '-P 1'
loop_
_symmetry_equiv_pos_site_id
_symmetry_equiv_pos_as_xyz
1 x,y,z
2 -x,-y,-z
_cell_length_a                   12.24(1)
_cell_length_b                   16.25(1)
_cell_length_c                   18.47(2)
_cell_angle_alpha                79.47(1)
_cell_angle_beta                 76.99(7)
_cell_angle_gamma                80.20(7)
_cell_volume                     3487.01
loop_
_atom_site_label
_atom_site_type_symbol
_atom_site_fract_x
_atom_site_fract_y
_atom_site_fract_z
Sb1 Sb 0.42708(6) 0.13751(4) 0.32237(3)
Sb2 Sb 0.07451(6) 0.62603(4) 0.44168(3)
Rb1 Rb 0.29537(10) 0.41843(6) 0.36815(6)
O1 O 0.1525(7) 0.3240(5) 0.3216(5)
C1 C 0.0495(10) 0.1427(7) 0.4770(6)
O3 O -0.0093(13) 0.1149(6) 0.5416(9)
O4 O 0.0448(10) 0.2125(6) 0.4554(7)
C2 C 0.1280(10) 0.0715(6) 0.4476(6)
C3 C 0.1936(8) 0.0895(5) 0.3643(5)
O5 O 0.2603(5) 0.1528(3) 0.3577(3)
C4 C 0.2698(9) 0.0054(6) 0.3501(5)
O6 O 0.3731(6) 0.0020(4) 0.3411(3)
O7 O 0.2173(6) -0.0560(4) 0.3534(4)
C5 C 0.1122(9) 0.1172(6) 0.3088(6)
C6 C 0.1758(9) 0.1289(6) 0.2291(6)
O8 O 0.2680(7) 0.0923(5) 0.2069(4)
O9 O 0.1195(6) 0.1849(4) 0.1844(4)
C7 C 0.3442(15) 0.1202(9) 0.5632(9)
O10 O 0.2742(10) 0.1649(13) 0.5355(7)
O11 O 0.3225(12) 0.0671(7) 0.6294(9)
C8 C 0.4648(11) 0.1187(8) 0.5417(6)
C9 C 0.5071(8) 0.1439(6) 0.4570(5)
O12 O 0.4759(6) 0.0880(4) 0.4176(3)
C10 C 0.4592(8) 0.2338(6) 0.4305(6)
O13 O 0.4142(6) 0.2468(4) 0.3715(4)
O14 O 0.4622(7) 0.2924(5) 0.4652(4)
C11 C 0.6378(11) 0.1347(8) 0.4455(8)
C12 C 0.6958(10) 0.1507(7) 0.3638(6)
O15 O 0.8042(7) 0.1189(5) 0.3516(5)
O16 O 0.6529(8) 0.1912(7) 0.3151(5)
C13 C 0.1469(10) 0.6050(7) 0.2195(5)
O17 O 0.2088(7) 0.5446(5) 0.2472(4)
O18 O 0.1935(7) 0.6707(5) 0.1773(4)
C14 C 0.0234(10) 0.6082(7) 0.2337(6)
C15 C -0.0293(9) 0.6040(5) 0.3189(5)
O19 O 0.0129(6) 0.6653(4) 0.3467(4)
C16 C 0.0046(8) 0.5159(6) 0.3597(6)
O20 O 0.0602(6) 0.5109(4) 0.4126(3)
O21 O -0.0227(7) 0.4538(4) 0.3427(4)
C17 C -0.1588(9) 0.6226(7) 0.3272(6)
C18 C -0.2219(10) 0.6269(7) 0.4072(7)
O22 O -0.1850(8) 0.6023(6) 0.4626(5)
O23 O -0.3269(7) 0.6654(6) 0.4074(5)
C19 C 0.4686(9) 0.5882(6) 0.2760(5)
O24 O 0.5374(8) 0.6162(5) 0.2139(5)
O25 O 0.4735(7) 0.5176(5) 0.3055(4)
C20 C 0.3837(10) 0.6612(7) 0.3017(5)
C21 C 0.3169(8) 0.6519(6) 0.3833(5)
O26 O 0.2375(6) 0.5949(4) 0.3966(3)
C22 C 0.2518(9) 0.7413(6) 0.3912(5)
O27 O 0.1464(6) 0.7514(4) 0.4002(3)
O28 O 0.3130(7) 0.7989(4) 0.3820(5)
C23 C 0.3960(9) 0.6252(6) 0.4399(5)
C24 C 0.3282(9) 0.6249(6) 0.5196(5)
O29 O 0.2473(7) 0.6780(5) 0.5337(4)
O30 O 0.3643(7) 0.5670(5) 0.5698(4)
H1 H 0.152(11) 0.285(7) 0.346(7)
H3 H 0.100(10) 0.029(7) 0.446(6)
H4 H 0.194(10) 0.042(7) 0.475(6)
H5 H 0.246(10) -0.106(7) 0.368(6)
H6 H 0.173(10) 0.191(7) 0.137(6)
H7 H 0.087(10) 0.083(7) 0.308(7)
H8 H 0.493(10) 0.064(7) 0.549(6)
H9 H 0.486(10) 0.154(7) 0.562(6)
H10 H 0.483(10) 0.340(7) 0.442(6)
H11 H 0.664(9) 0.070(7) 0.470(6)
H12 H 0.657(12) 0.161(8) 0.458(8)
H13 H 0.121(10) 0.726(6) 0.155(6)
H14 H 0.005(10) 0.667(7) 0.213(6)
H15 H 0.007(9) 0.562(6) 0.201(6)
H16 H -0.169(10) 0.673(7) 0.288(6)
H17 H -0.194(10) 0.584(7) 0.312(6)
H18 H 0.420(10) 0.698(7) 0.284(6)
H19 H 0.341(10) 0.680(7) 0.264(6)
H20 H 0.282(10) 0.845(7) 0.370(6)
H21 H 0.406(10) 0.574(7) 0.437(6)
H22 H 0.348(10) 0.536(7) 0.616(6)
O22A O 0.1850(8) 0.3977(6) 0.5374(5)
Rb1A Rb -0.29537(10) 0.58157(6) 0.63185(6)
Sb3 Sb 0.97378(5) -0.14342(4) 0.05138(3)
Sb4 Sb 0.62283(5) 0.34932(4) 0.19912(3)
Rb2 Rb 0.75344(10) 0.05800(6) 0.14772(6)
O2 O 0.8810(7) 0.1529(5) 0.2049(5)
C25 C 0.9385(11) -0.1188(8) 0.2772(6)
O31 O 0.8718(8) -0.0613(6) 0.2593(5)
O32 O 0.8937(9) -0.1901(6) 0.3140(6)
C26 C 1.0618(10) -0.1293(7) 0.2499(6)
C27 C 1.0939(9) -0.1176(6) 0.1636(5)
O33 O 1.0518(6) -0.1816(4) 0.1387(4)
C28 C 1.0453(9) -0.0295(6) 0.1298(5)
O34 O 0.9808(6) -0.0267(4) 0.0838(3)
O35 O 1.0709(7) 0.0334(4) 0.1473(5)
C29 C 1.2238(9) -0.1277(7) 0.1450(6)
C30 C 1.2719(10) -0.1187(7) 0.0603(6)
O36 O 1.2159(7) -0.1040(5) 0.0139(4)
O37 O 1.3836(6) -0.1321(5) 0.0472(5)
C31 C 0.5858(10) -0.1120(7) 0.2231(5)
O38 O 0.5822(8) -0.0404(5) 0.1954(5)
O39 O 0.5100(8) -0.1378(5) 0.2832(5)
C32 C 0.6734(10) -0.1844(7) 0.2003(5)
C33 C 0.7362(8) -0.1748(6) 0.1172(5)
O40 O 0.8114(6) -0.1155(4) 0.1024(3)
C34 C 0.8011(9) -0.2628(6) 0.1074(5)
O41 O 0.9084(6) -0.2697(4) 0.0921(3)
O42 O 0.7462(6) -0.3240(4) 0.1160(4)
C35 C 0.6504(8) -0.1499(6) 0.0658(6)
C36 C 0.7015(8) -0.1438(6) -0.0162(5)
O43 O 0.7881(7) -0.1888(5) -0.0400(4)
O44 O 0.6437(8) -0.0898(6) -0.0594(4)
C37 C 0.3429(9) 0.3317(6) 0.1666(6)
O45 O 0.3937(7) 0.3162(6) 0.2178(4)
O46 O 0.2314(7) 0.3446(5) 0.1776(5)
C38 C 0.3996(8) 0.3376(6) 0.0855(6)
C39 C 0.5295(9) 0.3240(6) 0.0717(5)
O47 O 0.5682(5) 0.3864(3) 0.1020(3)
C40 C 0.5695(8) 0.2366(6) 0.1104(5)
O48 O 0.6249(6) 0.2329(4) 0.1637(4)
O49 O 0.5504(7) 0.1723(4) 0.0908(4)
C41 C 0.5872(10) 0.3287(6) -0.0129(5)
C42 C 0.5753(10) 0.4164(6) -0.0532(5)
O50 O 0.4707(7) 0.4454(5) -0.0627(4)
O51 O 0.6515(7) 0.4590(4) -0.0752(4)
C43 C 0.8556(8) 0.3648(6) 0.2827(5)
O52 O 0.7685(6) 0.4130(5) 0.2957(4)
O53 O 0.8874(6) 0.3040(4) 0.3335(4)
C44 C 0.9315(8) 0.3657(6) 0.2074(6)
C45 C 0.8645(8) 0.3830(5) 0.1445(5)
O54 O 0.7879(6) 0.3216(4) 0.1604(3)
C46 C 0.7947(8) 0.4714(6) 0.1409(5)
O55 O 0.6884(6) 0.4775(4) 0.1563(3)
O56 O 0.8502(6) 0.5325(4) 0.1247(4)
C47 C 0.9449(8) 0.3715(7) 0.0687(6)
C48 C 0.8782(9) 0.3685(7) 0.0091(6)
O57 O 0.8638(7) 0.3077(5) -0.0110(5)
O58 O 0.8269(7) 0.4450(5) -0.0134(4)
H2 H 0.870(10) 0.213(7) 0.182(6)
H23 H 1.093(10) -0.193(7) 0.264(6)
H24 H 1.078(10) -0.088(7) 0.269(6)
H25 H 1.253(10) -0.091(7) 0.162(6)
H26 H 1.263(9) -0.191(6) 0.172(6)
H27 H 0.655(9) -0.243(7) 0.216(6)
H28 H 0.715(10) -0.202(7) 0.237(6)
H29 H 0.618(10) -0.096(7) 0.069(6)
H30 H 0.593(9) -0.196(6) 0.082(6)
H31 H 0.687(10) -0.082(7) -0.101(6)
H32 H 0.377(10) 0.386(7) 0.061(6)
H33 H 0.376(10) 0.286(6) 0.058(6)
H34 H 0.564(10) 0.281(6) -0.036(6)
H35 H 0.469(9) 0.511(7) -0.081(6)
H36 H 0.959(10) 0.403(6) 0.216(6)
H37 H 0.797(9) -0.384(6) 0.116(6)
H38 H 0.993(10) 0.408(7) 0.046(6)
H39 H 0.982(10) 0.323(7) 0.075(6)
H40 H 0.827(9) 0.497(6) -0.042(6)
O36A O 0.7841(7) 0.1040(5) -0.0139(4)
Rb2A Rb 1.24656(10) -0.05800(6) -0.14772(6)
loop_
_geom_bond_atom_site_label_1
_geom_bond_atom_site_label_2
_geom_bond_site_symmetry_1
_geom_bond_site_symmetry_2
Sb1 O5 1_555 1_555
Sb2 O19 1_555 1_555
Sb3 O33 1_555 1_555
Sb4 O47 1_555 1_555
Rb1 O1 1_555 1_555
Rb2 O2 1_555 1_555
O1 H1 1_555 1_555
O2 H2 1_555 1_555
C1 O3 1_555 1_555
O4 C1 1_555 1_555
C2 C1 1_555 1_555
C3 C2 1_555 1_555
O5 C3 1_555 1_555
C4 C3 1_555 1_555
O6 Sb1 1_555 1_555
O7 C4 1_555 1_555
C5 C3 1_555 1_555
C6 C5 1_555 1_555
O8 C6 1_555 1_555
O9 C6 1_555 1_555
C7 O10 1_555 1_555
O11 C7 1_555 1_555
C8 C7 1_555 1_555
C9 C8 1_555 1_555
O12 Sb1 1_555 1_555
C10 C9 1_555 1_555
O13 Sb1 1_555 1_555
O14 C10 1_555 1_555
C11 C9 1_555 1_555
C12 C11 1_555 1_555
O15 C12 1_555 1_555
O16 C12 1_555 1_555
C13 O17 1_555 1_555
O17 Rb1 1_555 1_555
O18 C13 1_555 1_555
C14 C13 1_555 1_555
C15 C14 1_555 1_555
O19 C15 1_555 1_555
C16 C15 1_555 1_555
O20 Sb2 1_555 1_555
O21 C16 1_555 1_555
C17 C15 1_555 1_555
C18 C17 1_555 1_555
O22 C18 1_555 1_555
O23 C18 1_555 1_555
C19 O24 1_555 1_555
O25 Rb1 1_555 1_555
C20 C19 1_555 1_555
C21 C20 1_555 1_555
O26 Sb2 1_555 1_555
C22 C21 1_555 1_555
O27 Sb2 1_555 1_555
O28 C22 1_555 1_555
C23 C21 1_555 1_555
C24 C23 1_555 1_555
O29 C24 1_555 1_555
O30 C24 1_555 1_555
C25 O31 1_555 1_555
O31 Rb2 1_555 1_555
O32 C25 1_555 1_555
C26 C25 1_555 1_555
C27 C26 1_555 1_555
O33 C27 1_555 1_555
C28 C27 1_555 1_555
O34 Sb3 1_555 1_555
O35 C28 1_555 1_555
C29 C27 1_555 1_555
C30 C29 1_555 1_555
O36 C30 1_555 1_555
O37 C30 1_555 1_555
C31 O38 1_555 1_555
O38 Rb2 1_555 1_555
O39 C31 1_555 1_555
C32 C31 1_555 1_555
C33 C32 1_555 1_555
O40 Sb3 1_555 1_555
C34 C33 1_555 1_555
O41 Sb3 1_555 1_555
O42 C34 1_555 1_555
C35 C33 1_555 1_555
C36 C35 1_555 1_555
O43 C36 1_555 1_555
O44 C36 1_555 1_555
C37 O45 1_555 1_555
O46 C37 1_555 1_555
C38 C37 1_555 1_555
C39 C38 1_555 1_555
O47 C39 1_555 1_555
C40 C39 1_555 1_555
O48 Sb4 1_555 1_555
O49 Rb2 1_555 1_555
C41 C39 1_555 1_555
C42 C41 1_555 1_555
O50 C42 1_555 1_555
O51 C42 1_555 1_555
C43 O52 1_555 1_555
O53 C43 1_555 1_555
C44 C43 1_555 1_555
C45 C44 1_555 1_555
O54 Sb4 1_555 1_555
C46 C45 1_555 1_555
O55 Sb4 1_555 1_555
O56 C46 1_555 1_555
C47 C45 1_555 1_555
C48 C47 1_555 1_555
O57 C48 1_555 1_555
O58 C48 1_555 1_555
H3 C2 1_555 1_555
H4 C2 1_555 1_555
H5 O7 1_555 1_555
H6 O9 1_555 1_555
H7 C5 1_555 1_555
H8 C8 1_555 1_555
H9 C8 1_555 1_555
H10 O14 1_555 1_555
H11 C11 1_555 1_555
H12 C11 1_555 1_555
H13 O18 1_555 1_555
H14 C14 1_555 1_555
H15 C14 1_555 1_555
H16 C17 1_555 1_555
H17 C17 1_555 1_555
H18 C20 1_555 1_555
H19 C20 1_555 1_555
H20 O28 1_555 1_555
H21 C23 1_555 1_555
H22 O30 1_555 1_555
H23 C26 1_555 1_555
H24 C26 1_555 1_555
H25 C29 1_555 1_555
H26 C29 1_555 1_555
H27 C32 1_555 1_555
H28 C32 1_555 1_555
H29 C35 1_555 1_555
H30 C35 1_555 1_555
H31 O44 1_555 1_555
H32 C38 1_555 1_555
H33 C38 1_555 1_555
H34 C41 1_555 1_555
H35 O50 1_555 1_555
H36 C44 1_555 1_555
H37 O42 1_555 1_555
H38 C47 1_555 1_555
H39 C47 1_555 1_555
H40 O58 1_555 1_555
O22A Rb1 1_555 1_555
O36A Rb2 1_555 1_555
Rb1A O22 1_555 1_555
Rb2A O36 1_555 1_555
Rb1 O13 1_555 1_555
Rb1 O20 1_555 1_555
Rb1 O26 1_555 1_555
Rb2 O34 1_555 1_555
Rb2 O40 1_555 1_555
Rb2 O48 1_555 1_555
C4 O6 1_555 1_555
C9 O12 1_555 1_555
C10 O13 1_555 1_555
C16 O20 1_555 1_555
C19 O25 1_555 1_555
C21 O26 1_555 1_555
C22 O27 1_555 1_555
C28 O34 1_555 1_555
C33 O40 1_555 1_555
C34 O41 1_555 1_555
C40 O48 1_555 1_555
C40 O49 1_555 1_555
C45 O54 1_555 1_555
C46 O55 1_555 1_555

#END
