
#######################################################################
#
#                 Cambridge Crystallographic Data Centre
#                                CCDC 
#
#######################################################################
#
# If this CIF has been generated from an entry in the Cambridge 
# Structural Database, then it will include bibliographic, chemical, 
# crystal, experimental, refinement or atomic coordinate data resulting 
# from the CCDC's data processing and validation procedures.
#
#######################################################################

data_WOXPOO01
_symmetry_cell_setting           monoclinic
_symmetry_space_group_name_H-M   'P 21/c'
_symmetry_Int_Tables_number      14
_space_group_name_Hall           '-P 2ybc'
loop_
_symmetry_equiv_pos_site_id
_symmetry_equiv_pos_as_xyz
1 x,y,z
2 -x,1/2+y,1/2-z
3 -x,-y,-z
4 x,1/2-y,1/2+z
_cell_length_a                   6.269(1)
_cell_length_b                   8.280(1)
_cell_length_c                   11.546(1)
_cell_angle_alpha                90
_cell_angle_beta                 103.51(1)
_cell_angle_gamma                90
_cell_volume                     582.738
loop_
_atom_site_label
_atom_site_type_symbol
_atom_site_fract_x
_atom_site_fract_y
_atom_site_fract_z
Na1 Na 0.37078(9) 0.04591(6) 0.11718(5)
O1 O 0.70341(16) 0.11930(12) 0.05576(9)
H1 H 0.719(3) 0.214(3) 0.0517(16)
H2 H 0.820(4) 0.086(3) 0.1082(19)
N1 N 0.11135(18) 0.28800(13) -0.13591(10)
H3 H 0.053(3) 0.206(2) -0.1768(16)
N2 N 0.19163(18) 0.27169(13) -0.01639(9)
C1 C 0.2509(2) 0.42103(14) 0.01236(11)
N3 N 0.34790(18) 0.46049(13) 0.13501(10)
O2 O 0.38560(17) 0.60293(12) 0.16097(9)
O3 O 0.39073(17) 0.34920(12) 0.20799(8)
N4 N 0.21905(18) 0.53343(12) -0.07393(9)
C2 C 0.13006(19) 0.44436(14) -0.17190(11)
O4 O 0.07601(15) 0.49205(11) -0.27931(8)
Na1B Na 0.62922(9) -0.04591(6) -0.11718(5)
Na1A Na 0.62922(9) 0.54591(6) 0.38282(5)
Na1C Na 0.37078(9) 0.45409(6) -0.38282(5)
O1B O 0.29659(16) -0.11930(12) -0.05576(9)
H1B H 0.281(3) -0.214(3) -0.0517(16)
H2B H 0.180(4) -0.086(3) -0.1082(19)
O2A O 0.61440(17) 0.10293(12) 0.33903(9)
O3A O 0.60927(17) -0.15080(12) 0.29201(8)
O4C O 0.07601(15) 0.00795(11) 0.22069(8)
loop_
_geom_bond_atom_site_label_1
_geom_bond_atom_site_label_2
_geom_bond_site_symmetry_1
_geom_bond_site_symmetry_2
Na1 O1 1_555 1_555
O1 H1 1_555 1_555
H2 O1 1_555 1_555
N1 H3 1_555 1_555
N2 Na1 1_555 1_555
C1 N2 1_555 1_555
N3 C1 1_555 1_555
O2 N3 1_555 1_555
O3 Na1 1_555 1_555
N4 C1 1_555 1_555
C2 N1 1_555 1_555
O4 C2 1_555 1_555
Na1B O1 1_555 1_555
Na1A O2 1_555 1_555
Na1C O4 1_555 1_555
O1B Na1 1_555 1_555
H1B O1B 1_555 1_555
H2B O1B 1_555 1_555
O2A Na1 1_555 1_555
O3A Na1 1_555 1_555
O4C Na1 1_555 1_555
N1 N2 1_555 1_555
N3 O3 1_555 1_555
O3 Na1A 1_555 1_555
N4 C2 1_555 1_555
Na1B O1B 1_555 1_555

#END
