
#######################################################################
#
#                 Cambridge Crystallographic Data Centre
#                                CCDC 
#
#######################################################################
#
# If this CIF has been generated from an entry in the Cambridge 
# Structural Database, then it will include bibliographic, chemical, 
# crystal, experimental, refinement or atomic coordinate data resulting 
# from the CCDC's data processing and validation procedures.
#
#######################################################################

data_WOXPOO
_symmetry_cell_setting           monoclinic
_symmetry_space_group_name_H-M   'P 21/c'
_symmetry_Int_Tables_number      14
_space_group_name_Hall           '-P 2ybc'
loop_
_symmetry_equiv_pos_site_id
_symmetry_equiv_pos_as_xyz
1 x,y,z
2 -x,1/2+y,1/2-z
3 -x,-y,-z
4 x,1/2-y,1/2+z
_cell_length_a                   6.303(1)
_cell_length_b                   8.285(1)
_cell_length_c                   11.574(2)
_cell_angle_alpha                90
_cell_angle_beta                 103.85(1)
_cell_angle_gamma                90
_cell_volume                     586.826
loop_
_atom_site_label
_atom_site_type_symbol
_atom_site_fract_x
_atom_site_fract_y
_atom_site_fract_z
Na1 Na 0.3699(1) 0.0458(1) 0.1171(1)
O1 O 0.0768(2) 0.0085(1) 0.2208(1)
O2 O 0.3896(2) 0.1496(2) 0.7071(1)
O3 O 0.3844(2) -0.1032(2) 0.6599(1)
O4 O 0.2971(2) -0.1190(2) -0.0560(1)
N1 N 0.1119(2) 0.2113(2) 0.3639(1)
N2 N 0.1918(2) 0.2277(2) 0.4833(1)
N3 N 0.2191(2) -0.0336(2) 0.4256(1)
N4 N 0.3473(2) 0.0387(2) 0.6342(1)
C1 C 0.1302(2) 0.0558(2) 0.3281(1)
C2 C 0.2503(2) 0.0786(2) 0.5117(1)
O2B O 0.6104(2) -0.1496(2) 0.2929(1)
O2C O 0.3896(2) 0.3504(2) 0.2071(1)
O3B O 0.6156(2) 0.1032(2) 0.3401(1)
O4B O 0.7029(2) 0.1190(2) 0.0560(1)
N2C N 0.1918(2) 0.2723(2) -0.0167(1)
Na1B Na 0.6301(1) -0.0458(1) 0.8829(1)
Na1C Na 0.3699(1) 0.4542(1) 0.6171(1)
Na1B_2 Na 0.6301(1) -0.0458(1) -0.1171(1)
loop_
_geom_bond_atom_site_label_1
_geom_bond_atom_site_label_2
_geom_bond_site_symmetry_1
_geom_bond_site_symmetry_2
Na1 O1 1_555 1_555
O1 C1 1_555 1_555
O2 N4 1_555 1_555
O3 N4 1_555 1_555
O4 Na1 1_555 1_555
N1 N2 1_555 1_555
N2 C2 1_555 1_555
N3 C1 1_555 1_555
N4 C2 1_555 1_555
C1 N1 1_555 1_555
C2 N3 1_555 1_555
O2B Na1 1_555 1_555
O2C Na1 1_555 1_555
O3B Na1 1_555 1_555
O4B Na1 1_555 1_555
N2C Na1 1_555 1_555
Na1B O2 1_555 1_555
Na1C O2 1_555 1_555
Na1B_2 O4 1_555 1_555
O3 Na1B 1_555 1_555
N2 Na1C 1_555 1_555
O4B Na1B_2 1_555 1_555

#END
