
#######################################################################
#
#                 Cambridge Crystallographic Data Centre
#                                CCDC 
#
#######################################################################
#
# If this CIF has been generated from an entry in the Cambridge 
# Structural Database, then it will include bibliographic, chemical, 
# crystal, experimental, refinement or atomic coordinate data resulting 
# from the CCDC's data processing and validation procedures.
#
#######################################################################

data_WOXQIL
_symmetry_cell_setting           monoclinic
_symmetry_space_group_name_H-M   'P 21/n'
_symmetry_Int_Tables_number      14
_space_group_name_Hall           '-P 2yn'
loop_
_symmetry_equiv_pos_site_id
_symmetry_equiv_pos_as_xyz
1 x,y,z
2 1/2-x,1/2+y,1/2-z
3 -x,-y,-z
4 1/2+x,1/2-y,1/2+z
_cell_length_a                   8.0700(9)
_cell_length_b                   9.9439(11)
_cell_length_c                   20.676(2)
_cell_angle_alpha                90
_cell_angle_beta                 96.206(2)
_cell_angle_gamma                90
_cell_volume                     1649.47
loop_
_atom_site_label
_atom_site_type_symbol
_atom_site_fract_x
_atom_site_fract_y
_atom_site_fract_z
Cd1 Cd 0.50397(2) 0.900275(18) 0.073284(7)
O1 O 0.4425(3) 0.89144(18) -0.03414(8)
N1 N 0.3718(2) 0.6900(2) 0.04828(9)
C1 C 0.3817(3) 0.7789(3) -0.05978(11)
O2 O 0.6607(3) 0.8606(2) 0.17669(11)
N2 N 0.1978(3) 0.5057(2) 0.37366(10)
C2 C 0.3518(4) 0.7581(3) -0.12649(12)
H1 H 0.3784 0.8272 -0.1553
O3 O 0.7821(3) 0.8390(2) 0.08800(11)
C3 C 0.2833(4) 0.6377(3) -0.15211(13)
H2 H 0.2649 0.6268 -0.1980
C4 C 0.2423(4) 0.5357(3) -0.11277(14)
H3 H 0.1950 0.4551 -0.1312
C5 C 0.2704(4) 0.5504(3) -0.04473(13)
C6 C 0.3411(3) 0.6709(2) -0.01771(11)
C7 C 0.2346(4) 0.4486(3) -0.00065(15)
H4 H 0.1892 0.3653 -0.0165
C8 C 0.2649(4) 0.4697(3) 0.06425(14)
H5 H 0.2404 0.4011 0.0937
C9 C 0.3328(3) 0.5928(3) 0.08845(12)
C10 C 0.3620(4) 0.6188(3) 0.15858(12)
H6 H 0.4433 0.6838 0.1737
C11 C 0.2796(4) 0.5554(3) 0.20208(12)
H7 H 0.1988 0.4915 0.1851
C12 C 0.2985(3) 0.5722(3) 0.27269(12)
C13 C 0.4225(4) 0.6491(3) 0.30794(14)
H8 H 0.5004 0.6983 0.2859
C14 C 0.4307(4) 0.6529(3) 0.37476(15)
H9 H 0.5139 0.7052 0.3992
C15 C 0.3169(4) 0.5801(3) 0.40615(14)
H10 H 0.3239 0.5833 0.4523
C16 C 0.1898(3) 0.5031(3) 0.30856(11)
H11 H 0.1044 0.4508 0.2855
C17 C 0.7856(4) 0.8339(3) 0.14827(15)
C18 C 0.9438(4) 0.7893(4) 0.18824(19)
H12 H 1.0047 0.8683 0.2064
H13 H 1.0136 0.7396 0.1605
H14 H 0.9158 0.7310 0.2237
Cd1A Cd -0.00397(2) 0.400275(18) 0.426716(7)
Cd1B Cd 0.49603(2) 1.099725(18) -0.073284(7)
O1B O 0.5575(3) 1.10856(18) 0.03414(8)
N2A N 0.3022(3) 1.0057(2) 0.12634(10)
loop_
_geom_bond_atom_site_label_1
_geom_bond_atom_site_label_2
_geom_bond_site_symmetry_1
_geom_bond_site_symmetry_2
Cd1 O1 1_555 1_555
O1 C1 1_555 1_555
N1 Cd1 1_555 1_555
C1 C2 1_555 1_555
O2 Cd1 1_555 1_555
N2 C15 1_555 1_555
C2 H1 1_555 1_555
O3 Cd1 1_555 1_555
C3 C2 1_555 1_555
H2 C3 1_555 1_555
C4 C3 1_555 1_555
H3 C4 1_555 1_555
C5 C4 1_555 1_555
C6 N1 1_555 1_555
C7 C5 1_555 1_555
H4 C7 1_555 1_555
C8 C7 1_555 1_555
H5 C8 1_555 1_555
C9 N1 1_555 1_555
C10 C9 1_555 1_555
H6 C10 1_555 1_555
C11 C10 1_555 1_555
H7 C11 1_555 1_555
C12 C11 1_555 1_555
C13 C12 1_555 1_555
H8 C13 1_555 1_555
C14 C13 1_555 1_555
H9 C14 1_555 1_555
C15 C14 1_555 1_555
H10 C15 1_555 1_555
C16 N2 1_555 1_555
H11 C16 1_555 1_555
C17 O2 1_555 1_555
C18 C17 1_555 1_555
H12 C18 1_555 1_555
H13 C18 1_555 1_555
H14 C18 1_555 1_555
Cd1A N2 1_555 1_555
Cd1B O1 1_555 1_555
O1B Cd1 1_555 1_555
N2A Cd1 1_555 1_555
C1 C6 1_555 1_555
O3 C17 1_555 1_555
C5 C6 1_555 1_555
C8 C9 1_555 1_555
C12 C16 1_555 1_555
Cd1B O1B 1_555 1_555

#END
