
#######################################################################
#
#                 Cambridge Crystallographic Data Centre
#                                CCDC 
#
#######################################################################
#
# If this CIF has been generated from an entry in the Cambridge 
# Structural Database, then it will include bibliographic, chemical, 
# crystal, experimental, refinement or atomic coordinate data resulting 
# from the CCDC's data processing and validation procedures.
#
#######################################################################

data_WOXQUX
_symmetry_cell_setting           triclinic
_symmetry_space_group_name_H-M   'P -1'
_symmetry_Int_Tables_number      2
_space_group_name_Hall           '-P 1'
loop_
_symmetry_equiv_pos_site_id
_symmetry_equiv_pos_as_xyz
1 x,y,z
2 -x,-y,-z
_cell_length_a                   8.8073(6)
_cell_length_b                   9.0322(6)
_cell_length_c                   10.2851(7)
_cell_angle_alpha                77.7640(10)
_cell_angle_beta                 79.3150(10)
_cell_angle_gamma                78.0290(10)
_cell_volume                     773.588
loop_
_atom_site_label
_atom_site_type_symbol
_atom_site_fract_x
_atom_site_fract_y
_atom_site_fract_z
I1 I 0.67977(4) -0.09710(4) 0.13062(3)
Cd1 Cd 0.58037(3) 0.06832(3) 0.33063(3)
O1 O 0.6370(3) 0.0094(3) 0.5400(3)
N1 N 0.7784(3) 0.2062(3) 0.3405(3)
C1 C 0.7509(4) 0.0668(4) 0.5670(4)
N2 N 0.5672(4) 0.6900(3) -0.2637(3)
C2 C 0.8052(5) 0.0300(4) 0.6897(4)
H1 H 0.7589 -0.0414 0.7596
C3 C 0.9262(5) 0.0945(5) 0.7142(4)
H2 H 0.9615 0.0639 0.7993
C4 C 0.9949(5) 0.2005(5) 0.6187(4)
H3 H 1.0760 0.2440 0.6376
C5 C 0.9437(4) 0.2446(4) 0.4916(4)
C6 C 0.8258(4) 0.1748(4) 0.4635(4)
C7 C 1.0014(5) 0.3571(5) 0.3870(4)
H4 H 1.0788 0.4089 0.4011
C8 C 0.9478(5) 0.3924(5) 0.2667(4)
H5 H 0.9847 0.4709 0.1982
C9 C 0.8365(4) 0.3115(4) 0.2438(4)
C10 C 0.7799(4) 0.3389(4) 0.1140(4)
H6 H 0.7602 0.2524 0.0850
C11 C 0.7539(4) 0.4745(4) 0.0337(4)
H7 H 0.7795 0.5599 0.0599
C12 C 0.6885(4) 0.5029(4) -0.0925(4)
C13 C 0.6785(5) 0.3871(5) -0.1587(4)
H8 H 0.7135 0.2825 -0.1219
C14 C 0.6175(5) 0.4244(5) -0.2779(4)
H9 H 0.6123 0.3464 -0.3252
C15 C 0.5642(5) 0.5771(5) -0.3272(4)
H10 H 0.5237 0.6027 -0.4101
C16 C 0.6292(4) 0.6532(4) -0.1496(4)
H11 H 0.6330 0.7339 -0.1049
Cd1A Cd 0.41963(3) -0.06832(3) 0.66937(3)
Cd1A_2 Cd 0.41963(3) 0.93168(3) -0.33063(3)
O1A O 0.3630(3) -0.0094(3) 0.4600(3)
N2A N 0.4328(4) 0.3100(3) 0.2637(3)
loop_
_geom_bond_atom_site_label_1
_geom_bond_atom_site_label_2
_geom_bond_site_symmetry_1
_geom_bond_site_symmetry_2
I1 Cd1 1_555 1_555
Cd1 O1 1_555 1_555
O1 C1 1_555 1_555
N1 Cd1 1_555 1_555
C1 C2 1_555 1_555
N2 C15 1_555 1_555
C2 H1 1_555 1_555
C3 C2 1_555 1_555
H2 C3 1_555 1_555
C4 C3 1_555 1_555
H3 C4 1_555 1_555
C5 C4 1_555 1_555
C6 N1 1_555 1_555
C7 C5 1_555 1_555
H4 C7 1_555 1_555
C8 C7 1_555 1_555
H5 C8 1_555 1_555
C9 N1 1_555 1_555
C10 C9 1_555 1_555
H6 C10 1_555 1_555
C11 C10 1_555 1_555
H7 C11 1_555 1_555
C12 C11 1_555 1_555
C13 C12 1_555 1_555
H8 C13 1_555 1_555
C14 C13 1_555 1_555
H9 C14 1_555 1_555
C15 C14 1_555 1_555
H10 C15 1_555 1_555
C16 N2 1_555 1_555
H11 C16 1_555 1_555
Cd1A O1 1_555 1_555
Cd1A_2 N2 1_555 1_555
O1A Cd1 1_555 1_555
N2A Cd1 1_555 1_555
C1 C6 1_555 1_555
C5 C6 1_555 1_555
C8 C9 1_555 1_555
C12 C16 1_555 1_555
Cd1A O1A 1_555 1_555

#END
