
#######################################################################
#
#                 Cambridge Crystallographic Data Centre
#                                CCDC 
#
#######################################################################
#
# If this CIF has been generated from an entry in the Cambridge 
# Structural Database, then it will include bibliographic, chemical, 
# crystal, experimental, refinement or atomic coordinate data resulting 
# from the CCDC's data processing and validation procedures.
#
#######################################################################

data_WOXQEH
_symmetry_cell_setting           monoclinic
_symmetry_space_group_name_H-M   'C 2/c'
_symmetry_Int_Tables_number      15
_space_group_name_Hall           '-C 2yn'
loop_
_symmetry_equiv_pos_site_id
_symmetry_equiv_pos_as_xyz
1 x,y,z
2 -x,y,1/2-z
3 1/2+x,1/2+y,z
4 1/2-x,1/2+y,1/2-z
5 -x,-y,-z
6 x,-y,1/2+z
7 1/2-x,1/2-y,-z
8 1/2+x,1/2-y,1/2+z
_cell_length_a                   23.908(4)
_cell_length_b                   11.2970(17)
_cell_length_c                   16.294(2)
_cell_angle_alpha                90
_cell_angle_beta                 130.487(2)
_cell_angle_gamma                90
_cell_volume                     3347.06
loop_
_atom_site_label
_atom_site_type_symbol
_atom_site_fract_x
_atom_site_fract_y
_atom_site_fract_z
C17 C 0.4733(7) 0.8629(11) 0.6954(6)
C18 C 0.3952(5) 0.8625(8) 0.6197(7)
O2 O 0.5086(6) 0.8647(10) 0.6536(9)
C17A C 0.5267(7) 0.8629(11) 0.8046(6)
C18A C 0.6048(5) 0.8625(8) 0.8803(7)
O2A O 0.4914(6) 0.8647(10) 0.8464(9)
Br1 Br 0.57429(2) 0.78278(4) 0.41455(3)
Zn1 Zn 0.67584(2) 0.67814(3) 0.45614(3)
O1 O 0.78124(12) 0.6980(2) 0.58785(18)
N1 N 0.68947(14) 0.5388(2) 0.5657(2)
C1 C 0.80822(18) 0.6283(3) 0.6719(2)
N2 N 0.34767(15) 0.5480(2) 0.1536(2)
C2 C 0.87891(19) 0.6355(3) 0.7678(3)
H1 H 0.9118 0.6917 0.7760
C3 C 0.9034(2) 0.5605(4) 0.8543(3)
H2 H 0.9524 0.5682 0.9204
C4 C 0.8585(2) 0.4769(4) 0.8458(3)
H3 H 0.8764 0.4272 0.9054
C5 C 0.7857(2) 0.4646(3) 0.7481(3)
C6 C 0.76015(17) 0.5424(3) 0.6612(2)
C7 C 0.7343(2) 0.3815(3) 0.7289(3)
H4 H 0.7490 0.3266 0.7839
C8 C 0.6645(2) 0.3782(3) 0.6340(3)
H5 H 0.6308 0.3209 0.6220
C9 C 0.64185(19) 0.4619(3) 0.5517(3)
C10 C 0.5663(2) 0.4706(3) 0.4498(3)
H6 H 0.5590 0.5227 0.3978
C11 C 0.5070(2) 0.4159(3) 0.4203(3)
H7 H 0.5132 0.3600 0.4691
C12 C 0.43222(19) 0.4349(3) 0.3178(3)
C13 C 0.3749(2) 0.3600(4) 0.2837(4)
H8 H 0.3833 0.2957 0.3280
C14 C 0.3061(2) 0.3782(4) 0.1861(4)
H9 H 0.2669 0.3264 0.1626
C15 C 0.2941(2) 0.4716(4) 0.1226(3)
H10 H 0.2465 0.4824 0.0545
C16 C 0.41464(19) 0.5297(3) 0.2495(3)
H11 H 0.4525 0.5846 0.2724
Zn1A Zn 0.32416(2) 0.67814(3) 0.04386(3)
Zn1F Zn 0.82416(2) 0.82186(3) 0.54386(3)
O1F O 0.71876(12) 0.8020(2) 0.41215(18)
N2A N 0.65233(15) 0.5480(2) 0.3464(2)
loop_
_geom_bond_atom_site_label_1
_geom_bond_atom_site_label_2
_geom_bond_site_symmetry_1
_geom_bond_site_symmetry_2
Br1 Zn1 1_555 1_555
Zn1 O1 1_555 1_555
O1 C1 1_555 1_555
N1 Zn1 1_555 1_555
C1 C2 1_555 1_555
N2 C15 1_555 1_555
C2 H1 1_555 1_555
C3 C2 1_555 1_555
H2 C3 1_555 1_555
C4 C3 1_555 1_555
H3 C4 1_555 1_555
C5 C4 1_555 1_555
C6 N1 1_555 1_555
C7 C5 1_555 1_555
H4 C7 1_555 1_555
C8 C7 1_555 1_555
H5 C8 1_555 1_555
C9 N1 1_555 1_555
C10 C9 1_555 1_555
H6 C10 1_555 1_555
C11 C10 1_555 1_555
H7 C11 1_555 1_555
C12 C11 1_555 1_555
C13 C12 1_555 1_555
H8 C13 1_555 1_555
C14 C13 1_555 1_555
H9 C14 1_555 1_555
C15 C14 1_555 1_555
H10 C15 1_555 1_555
C16 N2 1_555 1_555
H11 C16 1_555 1_555
C17 C18 1_555 1_555
O2 C17 1_555 1_555
Zn1A N2 1_555 1_555
Zn1F O1 1_555 1_555
O1F Zn1 1_555 1_555
N2A Zn1 1_555 1_555
C17A C17 1_555 1_555
C18A C17A 1_555 1_555
O2A C17A 1_555 1_555
C1 C6 1_555 1_555
C5 C6 1_555 1_555
C8 C9 1_555 1_555
C12 C16 1_555 1_555
Zn1F O1F 1_555 1_555

#END
