
#######################################################################
#
#                 Cambridge Crystallographic Data Centre
#                                CCDC 
#
#######################################################################
#
# If this CIF has been generated from an entry in the Cambridge 
# Structural Database, then it will include bibliographic, chemical, 
# crystal, experimental, refinement or atomic coordinate data resulting 
# from the CCDC's data processing and validation procedures.
#
#######################################################################

data_WOXQOR
_symmetry_cell_setting           monoclinic
_symmetry_space_group_name_H-M   'P 21/c'
_symmetry_Int_Tables_number      14
_space_group_name_Hall           '-P 2ybc'
loop_
_symmetry_equiv_pos_site_id
_symmetry_equiv_pos_as_xyz
1 x,y,z
2 -x,1/2+y,1/2-z
3 -x,-y,-z
4 x,1/2-y,1/2+z
_cell_length_a                   8.0362(17)
_cell_length_b                   9.919(2)
_cell_length_c                   21.302(4)
_cell_angle_alpha                90
_cell_angle_beta                 105.484(7)
_cell_angle_gamma                90
_cell_volume                     1636.38
loop_
_atom_site_label
_atom_site_type_symbol
_atom_site_fract_x
_atom_site_fract_y
_atom_site_fract_z
Cd1 Cd 0.07089(3) 0.40032(2) 0.073267(10)
O1 O 0.0197(4) 0.3900(2) -0.03448(11)
N1 N 0.1761(3) 0.1893(3) 0.04769(12)
C1 C 0.0555(4) 0.2772(3) -0.06045(15)
O2 O -0.1966(4) 0.3407(3) 0.08813(15)
N2 N 0.6736(4) 0.0049(3) 0.37316(13)
C2 C 0.0176(5) 0.2564(4) -0.12706(16)
H1 H -0.0392 0.3255 -0.1558
O3 O 0.0150(4) 0.3604(3) 0.17634(14)
C3 C 0.0614(5) 0.1355(4) -0.15310(18)
H2 H 0.0325 0.1240 -0.1990
O4 O -0.2554(6) 0.2904(5) 0.1891(2)
C4 C 0.1446(6) 0.0342(4) -0.11365(18)
H3 H 0.1751 -0.0462 -0.1321
C5 C 0.1849(5) 0.0491(4) -0.04563(18)
C6 C 0.1409(4) 0.1699(3) -0.01821(15)
C7 C 0.2672(6) -0.0523(4) -0.0016(2)
H4 H 0.2982 -0.1354 -0.0176
N3 N -0.1399(5) 0.3341(4) 0.14869(18)
C8 C 0.3019(5) -0.0308(4) 0.06349(19)
H5 H 0.3571 -0.0992 0.0930
C9 C 0.2569(4) 0.0921(3) 0.08777(17)
C10 C 0.2971(5) 0.1177(4) 0.15789(17)
H6 H 0.2300 0.1825 0.1731
C11 C 0.4232(5) 0.0548(4) 0.20150(17)
H7 H 0.4888 -0.0084 0.1846
C12 C 0.4727(4) 0.0713(4) 0.27225(16)
C13 C 0.3832(5) 0.1479(4) 0.30738(19)
H8 H 0.2832 0.1969 0.2852
C14 C 0.4400(5) 0.1522(5) 0.3740(2)
H9 H 0.3802 0.2046 0.3983
C15 C 0.5857(5) 0.0794(4) 0.40563(18)
H10 H 0.6240 0.0826 0.4518
C16 C 0.6177(4) 0.0024(4) 0.30799(16)
H11 H 0.6809 -0.0497 0.2848
Cd1A Cd 0.92911(3) -0.09968(2) 0.426733(10)
Cd1B Cd -0.07089(3) 0.59968(2) -0.073267(10)
O1B O -0.0197(4) 0.6100(2) 0.03448(11)
N2A N 0.3264(4) 0.5049(3) 0.12684(13)
loop_
_geom_bond_atom_site_label_1
_geom_bond_atom_site_label_2
_geom_bond_site_symmetry_1
_geom_bond_site_symmetry_2
Cd1 O1 1_555 1_555
O1 C1 1_555 1_555
N1 Cd1 1_555 1_555
C1 C2 1_555 1_555
O2 Cd1 1_555 1_555
N2 C15 1_555 1_555
C2 H1 1_555 1_555
O3 Cd1 1_555 1_555
C3 C2 1_555 1_555
H2 C3 1_555 1_555
O4 N3 1_555 1_555
C4 C3 1_555 1_555
H3 C4 1_555 1_555
C5 C4 1_555 1_555
C6 N1 1_555 1_555
C7 C5 1_555 1_555
H4 C7 1_555 1_555
N3 O2 1_555 1_555
C8 C7 1_555 1_555
H5 C8 1_555 1_555
C9 N1 1_555 1_555
C10 C9 1_555 1_555
H6 C10 1_555 1_555
C11 C10 1_555 1_555
H7 C11 1_555 1_555
C12 C11 1_555 1_555
C13 C12 1_555 1_555
H8 C13 1_555 1_555
C14 C13 1_555 1_555
H9 C14 1_555 1_555
C15 C14 1_555 1_555
H10 C15 1_555 1_555
C16 N2 1_555 1_555
H11 C16 1_555 1_555
Cd1A N2 1_555 1_555
Cd1B O1 1_555 1_555
O1B Cd1 1_555 1_555
N2A Cd1 1_555 1_555
C1 C6 1_555 1_555
O3 N3 1_555 1_555
C5 C6 1_555 1_555
C8 C9 1_555 1_555
C12 C16 1_555 1_555
Cd1B O1B 1_555 1_555

#END
