
#######################################################################
#
#                 Cambridge Crystallographic Data Centre
#                                CCDC 
#
#######################################################################
#
# If this CIF has been generated from an entry in the Cambridge 
# Structural Database, then it will include bibliographic, chemical, 
# crystal, experimental, refinement or atomic coordinate data resulting 
# from the CCDC's data processing and validation procedures.
#
#######################################################################

data_WOXQAD
_symmetry_cell_setting           monoclinic
_symmetry_space_group_name_H-M   'P 21/n'
_symmetry_Int_Tables_number      14
_space_group_name_Hall           '-P 2yn'
loop_
_symmetry_equiv_pos_site_id
_symmetry_equiv_pos_as_xyz
1 x,y,z
2 1/2-x,1/2+y,1/2-z
3 -x,-y,-z
4 1/2+x,1/2-y,1/2+z
_cell_length_a                   7.4490(8)
_cell_length_b                   10.1689(11)
_cell_length_c                   20.082(2)
_cell_angle_alpha                90
_cell_angle_beta                 96.345(2)
_cell_angle_gamma                90
_cell_volume                     1511.86
loop_
_atom_site_label
_atom_site_type_symbol
_atom_site_fract_x
_atom_site_fract_y
_atom_site_fract_z
I1 I -0.28500(5) 1.15232(4) -0.136953(18)
Zn1 Zn 0.01642(8) 1.10003(5) -0.06586(2)
O1 O 0.0544(5) 1.1001(3) 0.03275(14)
N1 N 0.1406(5) 1.2957(3) -0.04700(17)
C1 C 0.1106(6) 1.2107(4) 0.0613(2)
N2 N 0.2974(5) 1.5070(4) -0.38140(18)
C2 C 0.1224(7) 1.2330(5) 0.1304(2)
H1 H 0.0873 1.1652 0.1589
C3 C 0.1844(8) 1.3520(5) 0.1585(2)
H2 H 0.1886 1.3635 0.2055
C4 C 0.2393(7) 1.4524(5) 0.1206(2)
H3 H 0.2856 1.5314 0.1412
C5 C 0.2260(6) 1.4372(4) 0.0497(2)
C6 C 0.1589(6) 1.3171(4) 0.0207(2)
C7 C 0.2712(7) 1.5363(5) 0.0055(2)
H4 H 0.3167 1.6182 0.0226
C8 C 0.2497(7) 1.5145(5) -0.0615(2)
H5 H 0.2789 1.5819 -0.0912
C9 C 0.1842(6) 1.3925(4) -0.0873(2)
C10 C 0.1589(7) 1.3689(4) -0.1596(2)
H6 H 0.0827 1.2982 -0.1756
C11 C 0.2350(7) 1.4397(5) -0.2042(2)
H7 H 0.3171 1.5058 -0.1867
C12 C 0.2071(7) 1.4277(5) -0.2772(2)
C13 C 0.0884(7) 1.3414(5) -0.3122(3)
H8 H 0.0168 1.2839 -0.2888
C14 C 0.0743(7) 1.3392(5) -0.3813(3)
H9 H -0.0071 1.2802 -0.4058
C15 C 0.1791(7) 1.4232(5) -0.4147(2)
H10 H 0.1677 1.4220 -0.4622
C16 C 0.3118(7) 1.5073(5) -0.3144(2)
H11 H 0.3976 1.5646 -0.2909
Zn1A Zn 0.48358(8) 1.60003(5) -0.43414(2)
Zn1B Zn -0.01642(8) 0.89997(5) 0.06586(2)
O1B O -0.0544(5) 0.8999(3) -0.03275(14)
N2A N 0.2026(5) 1.0070(4) -0.11860(18)
loop_
_geom_bond_atom_site_label_1
_geom_bond_atom_site_label_2
_geom_bond_site_symmetry_1
_geom_bond_site_symmetry_2
I1 Zn1 1_555 1_555
Zn1 O1 1_555 1_555
O1 C1 1_555 1_555
N1 Zn1 1_555 1_555
C1 C2 1_555 1_555
N2 C15 1_555 1_555
C2 H1 1_555 1_555
C3 C2 1_555 1_555
H2 C3 1_555 1_555
C4 C3 1_555 1_555
H3 C4 1_555 1_555
C5 C4 1_555 1_555
C6 N1 1_555 1_555
C7 C5 1_555 1_555
H4 C7 1_555 1_555
C8 C7 1_555 1_555
H5 C8 1_555 1_555
C9 N1 1_555 1_555
C10 C9 1_555 1_555
H6 C10 1_555 1_555
C11 C10 1_555 1_555
H7 C11 1_555 1_555
C12 C11 1_555 1_555
C13 C12 1_555 1_555
H8 C13 1_555 1_555
C14 C13 1_555 1_555
H9 C14 1_555 1_555
C15 C14 1_555 1_555
H10 C15 1_555 1_555
C16 N2 1_555 1_555
H11 C16 1_555 1_555
Zn1A N2 1_555 1_555
Zn1B O1 1_555 1_555
O1B Zn1 1_555 1_555
N2A Zn1 1_555 1_555
C1 C6 1_555 1_555
C5 C6 1_555 1_555
C8 C9 1_555 1_555
C12 C16 1_555 1_555
Zn1B O1B 1_555 1_555

#END
