
#######################################################################
#
#                 Cambridge Crystallographic Data Centre
#                                CCDC 
#
#######################################################################
#
# If this CIF has been generated from an entry in the Cambridge 
# Structural Database, then it will include bibliographic, chemical, 
# crystal, experimental, refinement or atomic coordinate data resulting 
# from the CCDC's data processing and validation procedures.
#
#######################################################################

data_WOXSOT
_symmetry_cell_setting           monoclinic
_symmetry_space_group_name_H-M   'P 21/c'
_symmetry_Int_Tables_number      14
_space_group_name_Hall           '-P 2ybc'
loop_
_symmetry_equiv_pos_site_id
_symmetry_equiv_pos_as_xyz
1 x,y,z
2 -x,1/2+y,1/2-z
3 -x,-y,-z
4 x,1/2-y,1/2+z
_cell_length_a                   15.1320(9)
_cell_length_b                   18.0343(13)
_cell_length_c                   11.0712(5)
_cell_angle_alpha                90
_cell_angle_beta                 100.430(5)
_cell_angle_gamma                90
_cell_volume                     2971.35
loop_
_atom_site_label
_atom_site_type_symbol
_atom_site_fract_x
_atom_site_fract_y
_atom_site_fract_z
Eu1 Eu 0.96195(3) 0.88864(2) 0.22870(4)
Eu2 Eu 0.94014(3) 0.80696(2) 0.55852(4)
O1 O 0.9875(5) 1.0165(4) 0.1820(8)
H1 H 0.958(3) 1.055(3) 0.204(8)
H2 H 1.005(7) 1.025(6) 0.113(6)
C1 C 0.8307(6) 0.9548(5) 0.4278(8)
C2 C 0.7686(5) 1.0182(5) 0.4483(8)
H3 H 0.7501 1.0100 0.5275
C3 C 0.8189(6) 1.0910(5) 0.4560(8)
H4 H 0.8418 1.0983 0.3806
H5 H 0.7773 1.1310 0.4629
C4 C 0.8956(5) 1.0947(5) 0.5627(8)
C5 C 0.6841(6) 1.0227(5) 0.3507(9)
C6 C 0.6034(7) 1.0318(9) 0.3862(12)
H6 H 0.6000 1.0309 0.4692
C7 C 0.5249(8) 1.0424(12) 0.2977(14)
H7 H 0.4697 1.0483 0.3222
C8 C 0.5301(8) 1.0439(10) 0.1782(13)
H8 H 0.4782 1.0508 0.1201
C9 C 0.6086(8) 1.0356(9) 0.1415(12)
H9 H 0.6110 1.0364 0.0581
C10 C 0.6861(7) 1.0258(7) 0.2263(10)
H10 H 0.7407 1.0212 0.1996
O2 O 0.8447(4) 0.9058(4) 0.5100(5)
O3 O 0.8678(4) 0.9592(4) 0.3344(5)
O4 O 0.9717(4) 1.1179(3) 0.5474(5)
O5 O 0.8859(4) 1.0766(4) 0.6667(6)
C11 C 1.0727(5) 0.6617(5) 0.5060(7)
C12 C 1.1592(5) 0.6496(5) 0.4575(8)
H11 H 1.1563 0.6010 0.4172
C13 C 1.1657(6) 0.7090(6) 0.3629(8)
H12 H 1.2164 0.6986 0.3231
H13 H 1.1758 0.7567 0.4033
C14 C 1.0804(6) 0.7121(5) 0.2671(8)
C15 C 1.2374(6) 0.6493(6) 0.5661(8)
C16 C 1.2534(8) 0.5867(8) 0.6349(13)
H14 H 1.2163 0.5458 0.6138
C17 C 1.3234(9) 0.5812(11) 0.7363(14)
H15 H 1.3356 0.5368 0.7788
C18 C 1.3732(9) 0.6438(11) 0.7708(15)
H16 H 1.4156 0.6437 0.8430
C19 C 1.3609(10) 0.7067(11) 0.6994(16)
H17 H 1.3983 0.7473 0.7204
C20 C 1.2932(9) 0.7101(8) 0.5965(14)
H18 H 1.2855 0.7527 0.5484
O6 O 1.0411(4) 0.7715(3) 0.2320(5)
O7 O 1.0496(4) 0.6473(4) 0.2226(6)
O8 O 1.0376(4) 0.7261(4) 0.4864(6)
O9 O 1.0416(4) 0.6093(4) 0.5603(5)
C21 C 0.8392(5) 0.7367(5) 0.2970(7)
C22 C 0.7508(5) 0.7219(6) 0.3401(8)
H19 H 0.7434 0.7590 0.4022
C23 C 0.7517(6) 0.6451(6) 0.3982(8)
H20 H 0.6924 0.6347 0.4158
H21 H 0.7641 0.6085 0.3392
C24 C 0.8197(6) 0.6364(6) 0.5147(8)
C25 C 0.6777(6) 0.7335(7) 0.2284(9)
C26 C 0.6567(7) 0.6802(8) 0.1386(9)
H22 H 0.6859 0.6346 0.1484
C27 C 0.5919(7) 0.6933(9) 0.0323(11)
H23 H 0.5768 0.6566 -0.0268
C28 C 0.5514(8) 0.7623(10) 0.0181(13)
H24 H 0.5093 0.7719 -0.0524
C29 C 0.5717(9) 0.8168(10) 0.1051(12)
H25 H 0.5428 0.8624 0.0950
C30 C 0.6368(7) 0.8023(8) 0.2095(11)
H26 H 0.6529 0.8397 0.2672
O10 O 0.8807(4) 0.7965(3) 0.3325(5)
O11 O 0.8636(4) 0.6908(3) 0.2258(5)
O12 O 0.8668(3) 0.6931(3) 0.5593(5)
O13 O 0.8323(5) 0.5764(4) 0.5673(6)
Eu1B Eu 1.03805(3) 1.11136(2) 0.77130(4)
Eu1C Eu 0.96195(3) 0.61136(2) 0.72870(4)
Eu2B Eu 1.05986(3) 1.19304(2) 0.44148(4)
Eu2C Eu 0.94014(3) 0.69304(2) 0.05852(4)
O4B O 1.0283(4) 0.8821(3) 0.4526(5)
O5B O 1.1141(4) 0.9234(4) 0.3333(6)
O6C O 1.0411(4) 0.7285(3) 0.7320(5)
O7C O 1.0496(4) 0.8527(4) 0.7226(6)
O9C O 1.0416(4) 0.8907(4) 0.0603(5)
O11C O 0.8636(4) 0.8092(3) 0.7258(5)
O12C O 0.8668(3) 0.8069(3) 0.0593(5)
O13C O 0.8323(5) 0.9236(4) 0.0673(6)
loop_
_geom_bond_atom_site_label_1
_geom_bond_atom_site_label_2
_geom_bond_site_symmetry_1
_geom_bond_site_symmetry_2
Eu1 O1 1_555 1_555
Eu2 O2 1_555 1_555
O1 H1 1_555 1_555
H2 O1 1_555 1_555
C1 C2 1_555 1_555
C2 H3 1_555 1_555
C3 C2 1_555 1_555
H4 C3 1_555 1_555
H5 C3 1_555 1_555
C4 C3 1_555 1_555
C5 C2 1_555 1_555
C6 C5 1_555 1_555
H6 C6 1_555 1_555
C7 C6 1_555 1_555
H7 C7 1_555 1_555
C8 C7 1_555 1_555
H8 C8 1_555 1_555
C9 C8 1_555 1_555
H9 C9 1_555 1_555
C10 C5 1_555 1_555
H10 C10 1_555 1_555
O2 C1 1_555 1_555
O3 Eu1 1_555 1_555
O4 C4 1_555 1_555
O5 C4 1_555 1_555
C11 C12 1_555 1_555
C12 H11 1_555 1_555
C13 C12 1_555 1_555
H12 C13 1_555 1_555
H13 C13 1_555 1_555
C14 C13 1_555 1_555
C15 C12 1_555 1_555
C16 C15 1_555 1_555
H14 C16 1_555 1_555
C17 C16 1_555 1_555
H15 C17 1_555 1_555
C18 C17 1_555 1_555
H16 C18 1_555 1_555
C19 C18 1_555 1_555
H17 C19 1_555 1_555
C20 C15 1_555 1_555
H18 C20 1_555 1_555
O6 Eu1 1_555 1_555
O7 C14 1_555 1_555
O8 Eu2 1_555 1_555
O9 C11 1_555 1_555
C21 C22 1_555 1_555
C22 H19 1_555 1_555
C23 C22 1_555 1_555
H20 C23 1_555 1_555
H21 C23 1_555 1_555
C24 C23 1_555 1_555
C25 C22 1_555 1_555
C26 C25 1_555 1_555
H22 C26 1_555 1_555
C27 C26 1_555 1_555
H23 C27 1_555 1_555
C28 C27 1_555 1_555
H24 C28 1_555 1_555
C29 C28 1_555 1_555
H25 C29 1_555 1_555
C30 C25 1_555 1_555
H26 C30 1_555 1_555
O10 Eu1 1_555 1_555
O11 C21 1_555 1_555
O12 Eu2 1_555 1_555
O13 C24 1_555 1_555
Eu1B O4 1_555 1_555
Eu1C O9 1_555 1_555
Eu2B O4 1_555 1_555
Eu2C O6 1_555 1_555
O4B Eu1 1_555 1_555
O5B Eu1 1_555 1_555
O6C Eu2 1_555 1_555
O7C Eu2 1_555 1_555
O9C Eu1 1_555 1_555
O11C Eu2 1_555 1_555
O12C Eu1 1_555 1_555
O13C Eu1 1_555 1_555
Eu2 O10 1_555 1_555
Eu2 O4B 1_555 1_555
C1 O3 1_555 1_555
C9 C10 1_555 1_555
O5 Eu1B 1_555 1_555
C11 O8 1_555 1_555
C14 O6 1_555 1_555
C19 C20 1_555 1_555
O7 Eu2C 1_555 1_555
C21 O10 1_555 1_555
C24 O12 1_555 1_555
C29 C30 1_555 1_555
O11 Eu2C 1_555 1_555
O12 Eu1C 1_555 1_555
O13 Eu1C 1_555 1_555
Eu1C O6C 1_555 1_555
Eu2C O12C 1_555 1_555

#END
