
#######################################################################
#
#                 Cambridge Crystallographic Data Centre
#                                CCDC 
#
#######################################################################
#
# If this CIF has been generated from an entry in the Cambridge 
# Structural Database, then it will include bibliographic, chemical, 
# crystal, experimental, refinement or atomic coordinate data resulting 
# from the CCDC's data processing and validation procedures.
#
#######################################################################

data_WOXTIO
_symmetry_cell_setting           monoclinic
_symmetry_space_group_name_H-M   'P 21/c'
_symmetry_Int_Tables_number      14
_space_group_name_Hall           '-P 2ybc'
loop_
_symmetry_equiv_pos_site_id
_symmetry_equiv_pos_as_xyz
1 x,y,z
2 -x,1/2+y,1/2-z
3 -x,-y,-z
4 x,1/2-y,1/2+z
_cell_length_a                   15.3112(7)
_cell_length_b                   18.1174(6)
_cell_length_c                   11.0982(5)
_cell_angle_alpha                90
_cell_angle_beta                 100.778(5)
_cell_angle_gamma                90
_cell_volume                     3024.32
loop_
_atom_site_label
_atom_site_type_symbol
_atom_site_fract_x
_atom_site_fract_y
_atom_site_fract_z
Eu1 Eu 0.96184(4) 0.88750(2) 0.22986(5)
Gd1 Gd 0.93947(4) 0.80620(2) 0.55813(5)
O1 O 0.9889(9) 1.0156(5) 0.1830(11)
H1 H 0.986(13) 1.029(5) 0.107(5)
H2 H 0.963(5) 1.050(2) 0.219(8)
C1 C 0.8333(9) 0.9551(6) 0.4292(10)
C2 C 0.7716(7) 1.0174(6) 0.4475(10)
H3 H 0.7541 1.0099 0.5271
C3 C 0.8209(8) 1.0905(6) 0.4532(11)
H4 H 0.8427 1.0976 0.3774
H5 H 0.7798 1.1303 0.4604
C4 C 0.8972(7) 1.0940(5) 0.5585(9)
C5 C 0.6872(8) 1.0228(6) 0.3514(12)
C6 C 0.6076(11) 1.0277(15) 0.3847(18)
H6 H 0.6038 1.0233 0.4671
C7 C 0.5300(14) 1.039(2) 0.297(2)
H7 H 0.4761 1.0456 0.3230
C8 C 0.5322(14) 1.0420(15) 0.180(2)
H8 H 0.4799 1.0473 0.1225
C9 C 0.6118(12) 1.0367(13) 0.1424(19)
H9 H 0.6139 1.0401 0.0594
C10 C 0.6891(11) 1.0263(12) 0.2267(15)
H10 H 0.7429 1.0215 0.2001
O2 O 0.8466(6) 0.9054(5) 0.5084(8)
O3 O 0.8689(6) 0.9574(5) 0.3341(8)
O4 O 0.9723(6) 1.1192(5) 0.5472(7)
O5 O 0.8867(7) 1.0780(7) 0.6641(9)
C11 C 1.0707(8) 0.6626(6) 0.5095(10)
C12 C 1.1571(7) 0.6506(6) 0.4600(10)
H11 H 1.1533 0.6021 0.4202
C13 C 1.1619(8) 0.7087(7) 0.3617(12)
H12 H 1.1729 0.7567 0.4004
H13 H 1.2113 0.6974 0.3214
C14 C 1.0801(7) 0.7117(6) 0.2704(11)
C15 C 1.2345(9) 0.6485(8) 0.5671(12)
C16 C 1.2528(13) 0.5853(12) 0.633(2)
H14 H 1.2183 0.5437 0.6099
C17 C 1.3217(17) 0.5807(18) 0.735(2)
H15 H 1.3326 0.5370 0.7794
C18 C 1.3709(16) 0.6398(17) 0.768(2)
H16 H 1.4186 0.6368 0.8331
C19 C 1.3530(18) 0.7053(17) 0.707(2)
H17 H 1.3842 0.7477 0.7364
C20 C 1.2876(14) 0.7082(12) 0.601(2)
H18 H 1.2803 0.7508 0.5534
O6 O 1.0393(6) 0.7707(4) 0.2318(7)
O7 O 1.0480(7) 0.6485(5) 0.2213(7)
O8 O 1.0355(7) 0.7242(5) 0.4887(8)
O9 O 1.0407(6) 0.6102(4) 0.5635(7)
C21 C 0.8391(8) 0.7364(6) 0.2951(10)
C22 C 0.7519(8) 0.7208(8) 0.3397(11)
H19 H 0.7452 0.7579 0.4015
C23 C 0.7530(9) 0.6457(8) 0.3983(11)
H20 H 0.7655 0.6090 0.3402
H21 H 0.6944 0.6355 0.4153
C24 C 0.8207(8) 0.6378(7) 0.5163(11)
C25 C 0.6780(10) 0.7325(10) 0.2286(14)
C26 C 0.6568(11) 0.6794(11) 0.1381(15)
H22 H 0.6859 0.6342 0.1473
C27 C 0.5923(14) 0.6926(15) 0.0329(19)
H23 H 0.5792 0.6565 -0.0274
C28 C 0.5495(18) 0.7576(14) 0.020(2)
H24 H 0.5034 0.7647 -0.0469
C29 C 0.5738(16) 0.8166(15) 0.107(2)
H25 H 0.5477 0.8630 0.0946
C30 C 0.6377(14) 0.8014(12) 0.2103(19)
H26 H 0.6540 0.8382 0.2686
O10 O 0.8817(5) 0.7959(4) 0.3338(7)
O11 O 0.8608(6) 0.6913(4) 0.2245(8)
O12 O 0.8675(5) 0.6943(4) 0.5603(7)
O13 O 0.8346(8) 0.5771(6) 0.5670(9)
Eu1B Eu 1.03816(4) 1.11250(2) 0.77014(5)
Eu1C Eu 0.96184(4) 0.61250(2) 0.72986(5)
Gd1B Gd 1.06053(4) 1.19380(2) 0.44187(5)
Gd1C Gd 0.93947(4) 0.69380(2) 0.05813(5)
O4B O 1.0277(6) 0.8808(5) 0.4528(7)
O5B O 1.1133(7) 0.9220(7) 0.3359(9)
O6C O 1.0393(6) 0.7293(4) 0.7318(7)
O7C O 1.0480(7) 0.8515(5) 0.7213(7)
O9C O 1.0407(6) 0.8898(4) 0.0635(7)
O11C O 0.8608(6) 0.8087(4) 0.7245(8)
O12C O 0.8675(5) 0.8057(4) 0.0603(7)
O13C O 0.8346(8) 0.9229(6) 0.0670(9)
loop_
_geom_bond_atom_site_label_1
_geom_bond_atom_site_label_2
_geom_bond_site_symmetry_1
_geom_bond_site_symmetry_2
Eu1 O1 1_555 1_555
Gd1 O2 1_555 1_555
O1 H1 1_555 1_555
H2 O1 1_555 1_555
C1 C2 1_555 1_555
C2 H3 1_555 1_555
C3 C2 1_555 1_555
H4 C3 1_555 1_555
H5 C3 1_555 1_555
C4 C3 1_555 1_555
C5 C2 1_555 1_555
C6 C5 1_555 1_555
H6 C6 1_555 1_555
C7 C6 1_555 1_555
H7 C7 1_555 1_555
C8 C7 1_555 1_555
H8 C8 1_555 1_555
C9 C8 1_555 1_555
H9 C9 1_555 1_555
C10 C5 1_555 1_555
H10 C10 1_555 1_555
O2 C1 1_555 1_555
O3 Eu1 1_555 1_555
O4 C4 1_555 1_555
O5 C4 1_555 1_555
C11 C12 1_555 1_555
C12 H11 1_555 1_555
C13 C12 1_555 1_555
H12 C13 1_555 1_555
H13 C13 1_555 1_555
C14 C13 1_555 1_555
C15 C12 1_555 1_555
C16 C15 1_555 1_555
H14 C16 1_555 1_555
C17 C16 1_555 1_555
H15 C17 1_555 1_555
C18 C17 1_555 1_555
H16 C18 1_555 1_555
C19 C18 1_555 1_555
H17 C19 1_555 1_555
C20 C15 1_555 1_555
H18 C20 1_555 1_555
O6 Eu1 1_555 1_555
O7 C14 1_555 1_555
O8 Gd1 1_555 1_555
O9 C11 1_555 1_555
C21 C22 1_555 1_555
C22 H19 1_555 1_555
C23 C22 1_555 1_555
H20 C23 1_555 1_555
H21 C23 1_555 1_555
C24 C23 1_555 1_555
C25 C22 1_555 1_555
C26 C25 1_555 1_555
H22 C26 1_555 1_555
C27 C26 1_555 1_555
H23 C27 1_555 1_555
C28 C27 1_555 1_555
H24 C28 1_555 1_555
C29 C28 1_555 1_555
H25 C29 1_555 1_555
C30 C25 1_555 1_555
H26 C30 1_555 1_555
O10 Eu1 1_555 1_555
O11 C21 1_555 1_555
O12 Gd1 1_555 1_555
O13 C24 1_555 1_555
Eu1B O4 1_555 1_555
Eu1C O9 1_555 1_555
Gd1B O4 1_555 1_555
Gd1C O6 1_555 1_555
O4B Eu1 1_555 1_555
O5B Eu1 1_555 1_555
O6C Gd1 1_555 1_555
O7C Gd1 1_555 1_555
O9C Eu1 1_555 1_555
O11C Gd1 1_555 1_555
O12C Eu1 1_555 1_555
O13C Eu1 1_555 1_555
Gd1 O10 1_555 1_555
Gd1 O4B 1_555 1_555
C1 O3 1_555 1_555
C9 C10 1_555 1_555
O5 Eu1B 1_555 1_555
C11 O8 1_555 1_555
C14 O6 1_555 1_555
C19 C20 1_555 1_555
O7 Gd1C 1_555 1_555
C21 O10 1_555 1_555
C24 O12 1_555 1_555
C29 C30 1_555 1_555
O11 Gd1C 1_555 1_555
O12 Eu1C 1_555 1_555
O13 Eu1C 1_555 1_555
Eu1C O6C 1_555 1_555
Gd1C O12C 1_555 1_555

#END
