
#######################################################################
#
#                 Cambridge Crystallographic Data Centre
#                                CCDC 
#
#######################################################################
#
# If this CIF has been generated from an entry in the Cambridge 
# Structural Database, then it will include bibliographic, chemical, 
# crystal, experimental, refinement or atomic coordinate data resulting 
# from the CCDC's data processing and validation procedures.
#
#######################################################################

data_WOXTEK
_symmetry_cell_setting           monoclinic
_symmetry_space_group_name_H-M   'P 21/c'
_symmetry_Int_Tables_number      14
_space_group_name_Hall           '-P 2ybc'
loop_
_symmetry_equiv_pos_site_id
_symmetry_equiv_pos_as_xyz
1 x,y,z
2 -x,1/2+y,1/2-z
3 -x,-y,-z
4 x,1/2-y,1/2+z
_cell_length_a                   15.3688(8)
_cell_length_b                   18.2815(9)
_cell_length_c                   11.1221(5)
_cell_angle_alpha                90
_cell_angle_beta                 101.222(3)
_cell_angle_gamma                90
_cell_volume                     3065.17
loop_
_atom_site_label
_atom_site_type_symbol
_atom_site_fract_x
_atom_site_fract_y
_atom_site_fract_z
O1 O 0.5395(5) 0.1108(4) 1.5636(6)
C1 C 0.5689(7) 0.1652(7) 1.5114(9)
O2 O 0.3790(4) 0.2958(4) 0.3349(6)
O3 O 0.5348(5) 0.2251(5) 1.4903(7)
O4 O 0.3601(4) 0.1928(4) 0.2271(6)
C2 C 0.3373(6) 0.2368(6) 0.2976(8)
O5 O 0.4737(5) -0.1197(4) 1.0444(6)
O6 O 0.3910(5) -0.0780(5) 1.1633(7)
C3 C 0.3985(7) -0.0950(6) 1.0581(10)
C4 C 0.3234(6) -0.0896(5) 0.9524(9)
H1 H 0.2835 -0.1303 0.9554
H2 H 0.3462 -0.0939 0.8773
O7 O 0.4858(7) -0.0152(5) 0.6824(9)
H3 H 0.454(4) -0.046(3) 0.717(7)
H4 H 0.485(9) -0.031(5) 0.607(5)
C5 C 0.2499(6) 0.2228(6) 0.3380(9)
H5 H 0.2433 0.2601 0.3990
Sm1 Sm 0.43846(4) 0.19290(3) 1.06064(5)
Sm2 Sm 0.45945(4) 0.11236(3) 0.73018(5)
O8 O 0.5459(5) 0.1461(5) 1.2235(6)
O9 O 0.5374(4) 0.2716(4) 1.2366(6)
O10 O 0.3294(6) 0.0795(5) 0.5698(7)
O11 O 0.3649(4) 0.1942(4) 0.5584(6)
O12 O 0.3667(5) 0.0428(4) 0.8356(6)
C6 C 0.6601(7) 0.2083(6) 1.3668(10)
H6 H 0.7102 0.1982 1.3282
H7 H 0.6699 0.2555 1.4070
C7 C 0.3177(7) 0.1391(8) 0.5160(10)
C8 C 0.5759(8) 0.2117(7) 1.2687(11)
O13 O 0.3442(5) 0.0945(4) 1.0093(6)
C9 C 0.2710(6) -0.0185(5) 0.9484(9)
H8 H 0.2539 -0.0122 1.0281
C10 C 0.1771(7) 0.2343(8) 0.2285(10)
C11 C 0.6553(6) 0.1508(6) 1.4607(9)
H9 H 0.6510 0.1027 1.4211
C12 C 0.3300(7) 0.0456(7) 0.9295(10)
C13 C 0.7339(7) 0.1503(7) 1.5701(10)
C14 C 0.1880(6) -0.0228(6) 0.8528(10)
C15 C 0.2491(7) 0.1483(7) 0.3989(9)
H10 H 0.1907 0.1401 0.4172
H11 H 0.2590 0.1109 0.3410
C16 C 0.1541(9) 0.1832(8) 0.1396(12)
H12 H 0.1824 0.1380 0.1489
C17 C 0.1362(9) 0.3014(8) 0.2093(12)
H13 H 0.1530 0.3383 0.2666
C18 C 0.1857(9) -0.0244(8) 0.7298(12)
H14 H 0.2385 -0.0185 0.7017
C19 C 0.0892(10) 0.1960(10) 0.0343(14)
H15 H 0.0741 0.1599 -0.0250
C20 C 0.0493(11) 0.2621(11) 0.0211(16)
H16 H 0.0061 0.2710 -0.0484
C21 C 0.7515(11) 0.0906(10) 1.6372(15)
H17 H 0.7149 0.0502 1.6176
C22 C 0.1071(7) -0.0290(10) 0.8883(13)
H18 H 0.1050 -0.0271 0.9712
C23 C 0.1075(10) -0.0345(10) 0.6443(14)
H19 H 0.1078 -0.0368 0.5609
C24 C 0.7851(10) 0.2124(8) 1.6007(16)
H20 H 0.7749 0.2544 1.5529
C25 C 0.0314(11) -0.0409(10) 0.6863(16)
H21 H -0.0216 -0.0475 0.6307
C26 C 0.0700(11) 0.3160(10) 0.1060(14)
H22 H 0.0414 0.3610 0.0960
C27 C 0.0304(10) -0.0380(12) 0.8046(16)
H23 H -0.0231 -0.0422 0.8311
C28 C 0.8522(12) 0.2105(12) 1.7045(17)
H24 H 0.8860 0.2518 1.7298
C29 C 0.8677(13) 0.1443(13) 1.7705(19)
H25 H 0.9117 0.1425 1.8410
C30 C 0.8217(13) 0.0855(12) 1.7349(17)
H26 H 0.8360 0.0411 1.7746
O1_2 O 0.5395(5) 0.1108(4) 0.5636(6)
O2C O 0.3790(4) 0.2042(4) 0.8349(6)
O3C O 0.5348(5) 0.2749(5) 0.9903(7)
O4_2 O 0.3601(4) 0.1928(4) 1.2271(6)
O5B O 0.5263(5) 0.1197(4) 0.9556(6)
O6B O 0.6090(5) 0.0780(5) 0.8367(7)
Sm1_2 Sm 0.43846(4) 0.19290(3) 0.06064(5)
Sm1B Sm 0.56154(4) -0.19290(3) 0.93936(5)
Sm1C Sm 0.43846(4) 0.30710(3) 0.56064(5)
Sm1C_2 Sm 0.43846(4) 0.30710(3) 1.56064(5)
Sm2_2 Sm 0.45945(4) 0.11236(3) 1.73018(5)
Sm2B Sm 0.54055(4) -0.11236(3) 1.26982(5)
Sm2C Sm 0.45945(4) 0.38764(3) 0.23018(5)
Sm2C_2 Sm 0.45945(4) 0.38764(3) 1.23018(5)
O9C O 0.5374(4) 0.2284(4) 0.7366(6)
O11C O 0.3649(4) 0.3058(4) 1.0584(6)
loop_
_geom_bond_atom_site_label_1
_geom_bond_atom_site_label_2
_geom_bond_site_symmetry_1
_geom_bond_site_symmetry_2
O1 C1 1_555 1_555
C1 O3 1_555 1_555
O2 C2 1_555 1_555
O3 Sm1C_2 1_555 1_555
O4 C2 1_555 1_555
C2 C5 1_555 1_555
O5 C3 1_555 1_555
O6 C3 1_555 1_555
C3 C4 1_555 1_555
C4 H1 1_555 1_555
H2 C4 1_555 1_555
O7 H3 1_555 1_555
H4 O7 1_555 1_555
C5 H5 1_555 1_555
Sm1 O8 1_555 1_555
Sm2 O7 1_555 1_555
O8 C8 1_555 1_555
O9 Sm1 1_555 1_555
O10 Sm2 1_555 1_555
O11 Sm2 1_555 1_555
O12 Sm2 1_555 1_555
C6 H6 1_555 1_555
H7 C6 1_555 1_555
C7 O10 1_555 1_555
C8 O9 1_555 1_555
O13 Sm1 1_555 1_555
C9 C4 1_555 1_555
H8 C9 1_555 1_555
C10 C5 1_555 1_555
C11 C1 1_555 1_555
H9 C11 1_555 1_555
C12 O12 1_555 1_555
C13 C11 1_555 1_555
C14 C9 1_555 1_555
C15 C5 1_555 1_555
H10 C15 1_555 1_555
H11 C15 1_555 1_555
C16 C10 1_555 1_555
H12 C16 1_555 1_555
C17 C10 1_555 1_555
H13 C17 1_555 1_555
C18 C14 1_555 1_555
H14 C18 1_555 1_555
C19 C16 1_555 1_555
H15 C19 1_555 1_555
C20 C19 1_555 1_555
H16 C20 1_555 1_555
C21 C13 1_555 1_555
H17 C21 1_555 1_555
C22 C14 1_555 1_555
H18 C22 1_555 1_555
C23 C18 1_555 1_555
H19 C23 1_555 1_555
C24 C13 1_555 1_555
H20 C24 1_555 1_555
C25 C23 1_555 1_555
H21 C25 1_555 1_555
C26 C17 1_555 1_555
H22 C26 1_555 1_555
C27 C22 1_555 1_555
H23 C27 1_555 1_555
C28 C24 1_555 1_555
H24 C28 1_555 1_555
C29 C28 1_555 1_555
H25 C29 1_555 1_555
C30 C21 1_555 1_555
H26 C30 1_555 1_555
O1_2 Sm2 1_555 1_555
O2C Sm1 1_555 1_555
O3C Sm1 1_555 1_555
O4_2 Sm1 1_555 1_555
O5B Sm1 1_555 1_555
O6B Sm2 1_555 1_555
Sm1_2 O4 1_555 1_555
Sm1B O5 1_555 1_555
Sm1C O2 1_555 1_555
Sm2_2 O1 1_555 1_555
Sm2B O5 1_555 1_555
Sm2C O2 1_555 1_555
Sm2C_2 O9 1_555 1_555
O9C Sm2 1_555 1_555
O11C Sm1 1_555 1_555
O6 Sm2B 1_555 1_555
Sm2 O2C 1_555 1_555
Sm2 O5B 1_555 1_555
O11 C7 1_555 1_555
O11 Sm1C 1_555 1_555
C6 C8 1_555 1_555
C6 C11 1_555 1_555
C7 C15 1_555 1_555
O13 C12 1_555 1_555
C9 C12 1_555 1_555
C20 C26 1_555 1_555
C25 C27 1_555 1_555
C29 C30 1_555 1_555
Sm1C O9C 1_555 1_555
Sm2C_2 O11C 1_555 1_555

#END
