
#######################################################################
#
#                 Cambridge Crystallographic Data Centre
#                                CCDC 
#
#######################################################################
#
# If this CIF has been generated from an entry in the Cambridge 
# Structural Database, then it will include bibliographic, chemical, 
# crystal, experimental, refinement or atomic coordinate data resulting 
# from the CCDC's data processing and validation procedures.
#
#######################################################################

data_WOYBAN
_symmetry_cell_setting           monoclinic
_symmetry_space_group_name_H-M   'P 2/n'
_symmetry_Int_Tables_number      13
_space_group_name_Hall           '-P 2yac'
loop_
_symmetry_equiv_pos_site_id
_symmetry_equiv_pos_as_xyz
1 x,y,z
2 1/2-x,y,1/2-z
3 -x,-y,-z
4 1/2+x,-y,1/2+z
_cell_length_a                   7.1537(2)
_cell_length_b                   16.402(3)
_cell_length_c                   7.5485(2)
_cell_angle_alpha                90
_cell_angle_beta                 115.83(2)
_cell_angle_gamma                90
_cell_volume                     797.213
loop_
_atom_site_label
_atom_site_type_symbol
_atom_site_fract_x
_atom_site_fract_y
_atom_site_fract_z
Ca1 Ca 0.2500 0.47085(6) 0.2500
O1 O 0.4117(3) 0.58258(15) 0.1505(4)
O2 O 0.0822(4) 0.57790(15) -0.0615(4)
O3 O 0.2799(4) 0.39454(18) -0.0038(4)
H1 H 0.373(6) 0.406(3) -0.042(6)
H2 H 0.169(4) 0.389(3) -0.103(5)
N1 N 0.2395(6) 1.0338(2) -0.0120(6)
C1 C 0.2471(5) 0.6174(2) 0.0292(5)
C2 C 0.2483(5) 0.7080(2) 0.0061(5)
C3 C 0.0747(6) 0.7486(2) -0.1304(6)
H3 H -0.0394 0.7189 -0.2168
C4 C 0.0704(6) 0.8325(2) -0.1388(6)
H4 H -0.0465 0.8594 -0.2297
C5 C 0.2414(6) 0.8765(2) -0.0107(6)
C6 C 0.4170(6) 0.8368(2) 0.1245(6)
H5 H 0.5323 0.8664 0.2091
C7 C 0.4182(5) 0.7532(2) 0.1315(6)
H6 H 0.5354 0.7263 0.2221
C8 C 0.2393(6) 0.9646(3) -0.0136(6)
O1A O 0.0883(3) 0.58258(15) 0.3495(4)
O2A O 0.4178(4) 0.57790(15) 0.5615(4)
N1A N 0.2605(6) 1.0338(2) 0.5120(6)
C1A C 0.2529(5) 0.6174(2) 0.4708(5)
C2A C 0.2517(5) 0.7080(2) 0.4939(5)
C3A C 0.4253(6) 0.7486(2) 0.6304(6)
H3A H 0.5394 0.7189 0.7168
C4A C 0.4296(6) 0.8325(2) 0.6388(6)
H4A H 0.5465 0.8594 0.7297
C5A C 0.2586(6) 0.8765(2) 0.5107(6)
C6A C 0.0830(6) 0.8368(2) 0.3755(6)
H5A H -0.0323 0.8664 0.2909
C7A C 0.0818(5) 0.7532(2) 0.3685(6)
H6A H -0.0354 0.7263 0.2779
C8A C 0.2607(6) 0.9646(3) 0.5136(6)
O3A O 0.2201(4) 0.39454(18) 0.5038(4)
H1A H 0.127(6) 0.406(3) 0.542(6)
H2A H 0.331(4) 0.389(3) 0.603(5)
O2B O -0.0822(4) 0.42210(15) 0.0615(4)
O2C O 0.5822(4) 0.42210(15) 0.4385(4)
Ca1B Ca -0.2500 0.52915(6) -0.2500
Ca1B_2 Ca 0.7500 0.52915(6) 0.7500
loop_
_geom_bond_atom_site_label_1
_geom_bond_atom_site_label_2
_geom_bond_site_symmetry_1
_geom_bond_site_symmetry_2
Ca1 O1 1_555 1_555
O1 C1 1_555 1_555
O2 Ca1 1_555 1_555
O3 Ca1 1_555 1_555
H1 O3 1_555 1_555
H2 O3 1_555 1_555
N1 C8 1_555 1_555
C1 O2 1_555 1_555
C2 C1 1_555 1_555
C3 C2 1_555 1_555
H3 C3 1_555 1_555
C4 C3 1_555 1_555
H4 C4 1_555 1_555
C5 C4 1_555 1_555
C6 C5 1_555 1_555
H5 C6 1_555 1_555
C7 C2 1_555 1_555
H6 C7 1_555 1_555
C8 C5 1_555 1_555
O1A Ca1 1_555 1_555
O2A Ca1 1_555 1_555
N1A C8A 1_555 1_555
C1A O1A 1_555 1_555
C2A C1A 1_555 1_555
C3A C2A 1_555 1_555
H3A C3A 1_555 1_555
C4A C3A 1_555 1_555
H4A C4A 1_555 1_555
C5A C4A 1_555 1_555
C6A C5A 1_555 1_555
H5A C6A 1_555 1_555
C7A C2A 1_555 1_555
H6A C7A 1_555 1_555
C8A C5A 1_555 1_555
O3A Ca1 1_555 1_555
H1A O3A 1_555 1_555
H2A O3A 1_555 1_555
O2B Ca1 1_555 1_555
O2C Ca1 1_555 1_555
Ca1B O2 1_555 1_555
Ca1B_2 O2A 1_555 1_555
C6 C7 1_555 1_555
O2A C1A 1_555 1_555
C6A C7A 1_555 1_555
O2B Ca1B 1_555 1_555
O2C Ca1B_2 1_555 1_555

#END
