
#######################################################################
#
#                 Cambridge Crystallographic Data Centre
#                                CCDC 
#
#######################################################################
#
# If this CIF has been generated from an entry in the Cambridge 
# Structural Database, then it will include bibliographic, chemical, 
# crystal, experimental, refinement or atomic coordinate data resulting 
# from the CCDC's data processing and validation procedures.
#
#######################################################################

data_WOYHUP
_symmetry_cell_setting           tetragonal
_symmetry_space_group_name_H-M   'P 42/n n m'
_symmetry_Int_Tables_number      134
_space_group_name_Hall           '-P 4ac 2bc'
loop_
_symmetry_equiv_pos_site_id
_symmetry_equiv_pos_as_xyz
1 x,y,z
2 1/2-y,x,1/2+z
3 1/2-x,1/2-y,z
4 y,1/2-x,1/2+z
5 x,1/2-y,1/2-z
6 1/2-x,y,1/2-z
7 y,x,-z
8 1/2-y,1/2-x,-z
9 -x,-y,-z
10 1/2+y,-x,1/2-z
11 1/2+x,1/2+y,-z
12 -y,1/2+x,1/2-z
13 -x,1/2+y,1/2+z
14 1/2+x,-y,1/2+z
15 -y,-x,z
16 1/2+y,1/2+x,z
_cell_length_a                   17.7349(6)
_cell_length_b                   17.7349(6)
_cell_length_c                   28.1732(10)
_cell_angle_alpha                90
_cell_angle_beta                 90
_cell_angle_gamma                90
_cell_volume                     8861.22
loop_
_atom_site_label
_atom_site_type_symbol
_atom_site_fract_x
_atom_site_fract_y
_atom_site_fract_z
C1 C 0.4636(2) 0.1851(2) 0.07981(15)
C2 C 0.4148(2) 0.1862(2) 0.11809(14)
H1 H 0.3876 0.1418 0.1260
C3 C 0.4445(3) 0.3160(3) 0.13324(15)
H2 H 0.4383 0.3609 0.1512
C4 C 0.5918(3) 0.4082(3) 0.1035(3)
H3 H 0.6120 0.3880 0.1320
C5 C 0.4918(2) 0.3138(2) 0.09561(15)
C6 C 0.5023(3) 0.2500(2) 0.06850(16)
H4 H 0.5360 0.2508 0.0423
C7 C 0.5355(5) 0.4124(5) 0.0392(3)
H5 H 0.5039 0.3993 0.0133
C8 C 0.3503(2) 0.2508(3) 0.18547(16)
C9 C 0.4747(3) 0.1156(3) 0.05055(16)
C10 C 0.4048(2) 0.2503(2) 0.14510(14)
O1 O 0.6124(2) 0.1124(2) -0.0755(2)
N1 N 0.5348(2) 0.3806(2) 0.08287(14)
O2 O 0.5120(2) 0.12238(18) 0.01354(11)
O3 O 0.44496(19) 0.05594(17) 0.06626(11)
O4 O 0.31736(17) 0.18975(17) 0.19427(9)
O5 O 0.33925(17) 0.31238(17) 0.20667(10)
Zn1 Zn 0.54554(2) 0.04554(2) -0.03503(2)
Zn2 Zn 0.2500 0.16545(3) 0.2500
O6 O 0.2500 0.0495(4) 0.2500
C1N C 0.8149(2) 0.5364(2) 0.07981(15)
C2N C 0.8138(2) 0.5852(2) 0.11809(14)
H1N H 0.8582 0.6124 0.1260
C3N C 0.6840(3) 0.5555(3) 0.13324(15)
H2N H 0.6391 0.5617 0.1512
C5N C 0.6862(2) 0.5082(2) 0.09561(15)
C6N C 0.7500(2) 0.4977(3) 0.06850(16)
H4N H 0.7492 0.4640 0.0423
C7N C 0.5876(5) 0.4645(5) 0.0392(3)
H5N H 0.6007 0.4961 0.0133
C8N C 0.7492(3) 0.6497(2) 0.18547(16)
C9N C 0.8844(3) 0.5253(3) 0.05055(16)
C10N C 0.7497(2) 0.5952(2) 0.14510(14)
N1N N 0.6194(2) 0.4652(2) 0.08287(14)
O2N O 0.87762(18) 0.4880(2) 0.01354(11)
O3N O 0.94406(17) 0.55504(19) 0.06626(11)
O4N O 0.81025(17) 0.68264(17) 0.19427(9)
O5N O 0.68762(17) 0.66075(17) 0.20667(10)
O2O O 0.62238(18) 0.0120(2) 0.01354(11)
O3G O 0.44406(17) 0.05504(19) -0.06626(11)
O3H O 0.55504(19) -0.05594(17) -0.06626(11)
O4E O 0.18264(17) 0.18975(17) 0.30573(9)
O5B O 0.16075(17) 0.18762(17) 0.20667(10)
O5D O 0.33925(17) 0.18762(17) 0.29333(10)
Zn1B Zn 0.95446(2) 0.45446(2) -0.03503(2)
Zn1F Zn 1.04554(2) 0.54554(2) 0.03503(2)
Zn1G Zn 0.45446(2) -0.04554(2) 0.03503(2)
Zn2B Zn 0.2500 0.33455(3) 0.2500
Zn2I Zn 0.66545(3) 0.7500 0.2500
Zn2K Zn 0.83455(3) 0.7500 0.2500
loop_
_geom_bond_atom_site_label_1
_geom_bond_atom_site_label_2
_geom_bond_site_symmetry_1
_geom_bond_site_symmetry_2
C1 C2 1_555 1_555
C2 H1 1_555 1_555
C3 H2 1_555 1_555
C4 H3 1_555 1_555
C5 C3 1_555 1_555
C6 C1 1_555 1_555
H4 C6 1_555 1_555
C7 H5 1_555 1_555
C8 C10 1_555 1_555
C9 C1 1_555 1_555
C10 C2 1_555 1_555
O1 Zn1 1_555 1_555
N1 C4 1_555 1_555
O2 C9 1_555 1_555
O3 C9 1_555 1_555
O4 C8 1_555 1_555
O5 C8 1_555 1_555
Zn1 O2 1_555 1_555
Zn2 O4 1_555 1_555
O6 Zn2 1_555 1_555
C1N C2N 1_555 1_555
C2N H1N 1_555 1_555
C3N H2N 1_555 1_555
C5N C3N 1_555 1_555
C6N C1N 1_555 1_555
H4N C6N 1_555 1_555
C7N C7 1_555 1_555
H5N C7N 1_555 1_555
C8N C10N 1_555 1_555
C9N C1N 1_555 1_555
C10N C2N 1_555 1_555
N1N C4 1_555 1_555
O2N C9N 1_555 1_555
O3N C9N 1_555 1_555
O4N C8N 1_555 1_555
O5N C8N 1_555 1_555
O2O Zn1 1_555 1_555
O3G Zn1 1_555 1_555
O3H Zn1 1_555 1_555
O4E Zn2 1_555 1_555
O5B Zn2 1_555 1_555
O5D Zn2 1_555 1_555
Zn1B O2N 1_555 1_555
Zn1F O3N 1_555 1_555
Zn1G O3 1_555 1_555
Zn2B O5 1_555 1_555
Zn2I O5N 1_555 1_555
Zn2K O4N 1_555 1_555
C3 C10 1_555 1_555
C5 C6 1_555 1_555
C5 N1 1_555 1_555
C7 N1 1_555 1_555
C3N C10N 1_555 1_555
C5N C6N 1_555 1_555
C5N N1N 1_555 1_555
C7N N1N 1_555 1_555

#END
