
#######################################################################
#
#                 Cambridge Crystallographic Data Centre
#                                CCDC 
#
#######################################################################
#
# If this CIF has been generated from an entry in the Cambridge 
# Structural Database, then it will include bibliographic, chemical, 
# crystal, experimental, refinement or atomic coordinate data resulting 
# from the CCDC's data processing and validation procedures.
#
#######################################################################

data_WOYJAX
_symmetry_cell_setting           tetragonal
_symmetry_space_group_name_H-M   'I 41/a m d'
_symmetry_Int_Tables_number      141
_space_group_name_Hall           '-I 4bd 2'
loop_
_symmetry_equiv_pos_site_id
_symmetry_equiv_pos_as_xyz
1 x,y,z
2 1/4-y,3/4+x,1/4+z
3 -x,1/2-y,z
4 1/4+y,1/4-x,3/4+z
5 x,-y,-z
6 -x,1/2+y,-z
7 1/4+y,3/4+x,1/4-z
8 1/4-y,1/4-x,3/4-z
9 1/2+x,1/2+y,1/2+z
10 3/4-y,1/4+x,3/4+z
11 1/2-x,-y,1/2+z
12 3/4+y,3/4-x,1/4+z
13 1/2+x,1/2-y,1/2-z
14 1/2-x,y,1/2-z
15 3/4+y,1/4+x,3/4-z
16 3/4-y,3/4-x,1/4-z
17 -x,-y,-z
18 3/4+y,1/4-x,3/4-z
19 x,1/2+y,-z
20 3/4-y,3/4+x,1/4-z
21 -x,y,z
22 x,1/2-y,z
23 3/4-y,1/4-x,3/4+z
24 3/4+y,3/4+x,1/4+z
25 1/2-x,1/2-y,1/2-z
26 1/4+y,3/4-x,1/4-z
27 1/2+x,y,1/2-z
28 1/4-y,1/4+x,3/4-z
29 1/2-x,1/2+y,1/2+z
30 1/2+x,-y,1/2+z
31 1/4-y,3/4-x,1/4+z
32 1/4+y,1/4+x,3/4+z
_cell_length_a                   25.5552(11)
_cell_length_b                   25.5552(11)
_cell_length_c                   51.403(2)
_cell_angle_alpha                90
_cell_angle_beta                 90
_cell_angle_gamma                90
_cell_volume                     33569.7
loop_
_atom_site_label
_atom_site_type_symbol
_atom_site_fract_x
_atom_site_fract_y
_atom_site_fract_z
Zn1 Zn 0.22712(4) 0.43927(4) 0.126642(19)
Zn2 Zn 0.27900(4) 0.7500 0.03325(2)
Zn3 Zn 0.19784(5) 0.7500 -0.00923(2)
O1 O 0.2769(2) 0.4079(2) 0.15229(11)
C1 C 0.1882(3) 0.6766(3) 0.03323(18)
O2 O 0.1864(2) 0.4822(2) 0.10150(12)
N1 N 0.0414(3) 0.5515(3) 0.04470(13)
O3 O 0.3329(2) 0.4758(2) 0.15331(11)
O4 O 0.1659(2) 0.6950(3) 0.01370(12)
O5 O 0.2276(3) 0.6941(3) 0.04406(13)
C2 C 0.1644(3) 0.6286(4) 0.04539(16)
C3 C 0.1941(3) 0.5991(3) 0.06231(15)
H1 H 0.2286 0.6102 0.0664
C4 C 0.3384(4) 0.4127(3) 0.18622(18)
C5 C 0.3144(3) 0.4337(3) 0.16215(16)
C6 C 0.2079(3) 0.5224(4) 0.09172(17)
C7 C 0.3727(4) 0.4414(3) 0.19991(17)
H2 H 0.3831 0.4745 0.1933
C8 C 0.1146(3) 0.6128(3) 0.03893(17)
H3 H 0.0941 0.6325 0.0270
C9 C 0.1747(3) 0.5539(3) 0.07334(17)
C10 C 0.3445(6) 0.2500 0.2115(2)
H4 H 0.3561 0.2500 0.1940
C11 C 0.0948(3) 0.5673(4) 0.05025(18)
C12 C 0.1242(3) 0.5371(4) 0.06710(16)
H5 H 0.1105 0.5057 0.0742
N2 N 0.3350(4) 0.2919(3) 0.22588(16)
C13 C 0.0000 0.5794(5) 0.0504(2)
H6 H 0.0000 0.6137 0.0575
O6 O 0.1727(3) 0.3822(3) 0.13019(17)
O7 O 0.3287(4) 0.7500 0.06228(18)
C14 C 0.3189(6) 0.2752(4) 0.2512(2)
H7 H 0.3099 0.2972 0.2654
C15 C 0.3802(4) 0.3747(4) 0.23237(19)
H8 H 0.3940 0.3618 0.2483
C16 C 0.0262(3) 0.5034(4) 0.03566(18)
H9 H 0.0485 0.4755 0.0304
C17 C 0.3936(4) 0.4243(3) 0.22359(18)
C18 C 0.3247(4) 0.3626(3) 0.19513(18)
H10 H 0.3004 0.3420 0.1856
C19 C 0.3460(5) 0.3437(3) 0.21739(18)
O8 O 0.1489(6) 0.7500 -0.0399(2)
O9 O 0.4447(3) 0.4995(3) 0.22899(13)
O10 O 0.2523(2) 0.5375(3) 0.09564(12)
O11 O 0.4470(4) 0.4379(3) 0.26018(15)
C20 C 0.4309(4) 0.4579(4) 0.2382(2)
O1U O 0.2769(2) 0.0921(2) 0.15229(11)
C4U C 0.3384(4) 0.0873(3) 0.18622(18)
C5U C 0.3144(3) 0.0663(3) 0.16215(16)
C7U C 0.3727(4) 0.0586(3) 0.19991(17)
H2U H 0.3831 0.0255 0.1933
N2U N 0.3350(4) 0.2081(3) 0.22588(16)
C14U C 0.3189(6) 0.2248(4) 0.2512(2)
H7U H 0.3099 0.2028 0.2654
C15U C 0.3802(4) 0.1253(4) 0.23237(19)
H8U H 0.3940 0.1382 0.2483
C17U C 0.3936(4) 0.0757(3) 0.22359(18)
C18U C 0.3247(4) 0.1374(3) 0.19513(18)
H10U H 0.3004 0.1580 0.1856
C19U C 0.3460(5) 0.1563(3) 0.21739(18)
C20U C 0.4309(4) 0.0421(4) 0.2382(2)
O3U O 0.3329(2) 0.0242(2) 0.15331(11)
O9U O 0.4447(3) 0.0005(3) 0.22899(13)
O11U O 0.4470(4) 0.0621(3) 0.26018(15)
C1T C -0.1882(3) 0.6766(3) 0.03323(18)
O2T O -0.1864(2) 0.4822(2) 0.10150(12)
N1T N -0.0414(3) 0.5515(3) 0.04470(13)
O4T O -0.1659(2) 0.6950(3) 0.01370(12)
O5T O -0.2276(3) 0.6941(3) 0.04406(13)
C2T C -0.1644(3) 0.6286(4) 0.04539(16)
C3T C -0.1941(3) 0.5991(3) 0.06231(15)
H1T H -0.2286 0.6102 0.0664
C6T C -0.2079(3) 0.5224(4) 0.09172(17)
C8T C -0.1146(3) 0.6128(3) 0.03893(17)
H3T H -0.0941 0.6325 0.0270
C9T C -0.1747(3) 0.5539(3) 0.07334(17)
C11T C -0.0948(3) 0.5673(4) 0.05025(18)
C12T C -0.1242(3) 0.5371(4) 0.06710(16)
H5T H -0.1105 0.5057 0.0742
C16T C -0.0262(3) 0.5034(4) 0.03566(18)
H9T H -0.0485 0.4755 0.0304
O10T O -0.2523(2) 0.5375(3) 0.09564(12)
Zn1O Zn 0.31073(4) 0.52288(4) 0.123358(19)
O6O O 0.3678(3) 0.5773(3) 0.11981(17)
Zn1S Zn 0.31073(4) -0.02288(4) 0.123358(19)
Zn1T Zn -0.22712(4) 0.43927(4) 0.126642(19)
Zn1U Zn 0.22712(4) 0.06073(4) 0.126642(19)
Zn1Y Zn -0.31073(4) 0.52288(4) 0.123358(19)
Zn2A Zn 0.5000 0.02900(4) 0.28325(2)
Zn2B Zn -0.27900(4) 0.7500 0.03325(2)
Zn2K Zn 0.5000 0.47100(4) 0.28325(2)
Zn3A Zn 0.5000 -0.05216(5) 0.24077(2)
Zn3B Zn -0.19784(5) 0.7500 -0.00923(2)
Zn3K Zn 0.5000 0.55216(5) 0.24077(2)
O1O O 0.3421(2) 0.4731(2) 0.09771(11)
O2O O 0.2678(2) 0.5636(2) 0.14850(12)
O3O O 0.2742(2) 0.4171(2) 0.09669(11)
O4U O 0.1659(2) 0.8050(3) 0.01370(12)
O5U O 0.2276(3) 0.8059(3) 0.04406(13)
O9I O 0.2505(3) 0.6947(3) -0.02101(13)
O9V O 0.2505(3) 0.8053(3) -0.02101(13)
O10O O 0.2125(3) 0.4977(2) 0.15436(12)
O11I O 0.3121(3) 0.6970(4) 0.01018(15)
O11V O 0.3121(3) 0.8030(4) 0.01018(15)
loop_
_geom_bond_atom_site_label_1
_geom_bond_atom_site_label_2
_geom_bond_site_symmetry_1
_geom_bond_site_symmetry_2
Zn1 O1 1_555 1_555
Zn2 O5 1_555 1_555
Zn3 O4 1_555 1_555
O1 C5 1_555 1_555
C1 O4 1_555 1_555
O2 Zn1 1_555 1_555
N1 C11 1_555 1_555
O3 C5 1_555 1_555
O5 C1 1_555 1_555
C2 C1 1_555 1_555
C3 C2 1_555 1_555
H1 C3 1_555 1_555
C4 C5 1_555 1_555
C6 O2 1_555 1_555
C7 C4 1_555 1_555
H2 C7 1_555 1_555
C8 C2 1_555 1_555
H3 C8 1_555 1_555
C9 C3 1_555 1_555
C10 H4 1_555 1_555
C11 C8 1_555 1_555
C12 C9 1_555 1_555
H5 C12 1_555 1_555
N2 C10 1_555 1_555
C13 N1 1_555 1_555
H6 C13 1_555 1_555
O6 Zn1 1_555 1_555
O7 Zn2 1_555 1_555
C14 N2 1_555 1_555
H7 C14 1_555 1_555
C15 H8 1_555 1_555
C16 N1 1_555 1_555
H9 C16 1_555 1_555
C17 C7 1_555 1_555
C18 C4 1_555 1_555
H10 C18 1_555 1_555
C19 N2 1_555 1_555
O8 Zn3 1_555 1_555
O9 C20 1_555 1_555
O10 C6 1_555 1_555
O11 C20 1_555 1_555
C20 C17 1_555 1_555
O1U C5U 1_555 1_555
C4U C5U 1_555 1_555
C5U O3U 1_555 1_555
C7U C4U 1_555 1_555
H2U C7U 1_555 1_555
N2U C10 1_555 1_555
C14U C14 1_555 1_555
H7U C14U 1_555 1_555
C15U H8U 1_555 1_555
C17U C7U 1_555 1_555
C18U C4U 1_555 1_555
H10U C18U 1_555 1_555
C19U N2U 1_555 1_555
C20U C17U 1_555 1_555
O3U Zn1S 1_555 1_555
O9U C20U 1_555 1_555
O11U C20U 1_555 1_555
C1T O4T 1_555 1_555
O2T C6T 1_555 1_555
N1T C13 1_555 1_555
O4T Zn3B 1_555 1_555
O5T C1T 1_555 1_555
C2T C1T 1_555 1_555
C3T C2T 1_555 1_555
H1T C3T 1_555 1_555
C6T C9T 1_555 1_555
C8T C2T 1_555 1_555
H3T C8T 1_555 1_555
C9T C3T 1_555 1_555
C11T N1T 1_555 1_555
C12T C9T 1_555 1_555
H5T C12T 1_555 1_555
C16T C16 1_555 1_555
H9T C16T 1_555 1_555
O10T C6T 1_555 1_555
Zn1O O3 1_555 1_555
O6O Zn1O 1_555 1_555
Zn1T O2T 1_555 1_555
Zn1U O1U 1_555 1_555
Zn1Y O10T 1_555 1_555
Zn2A O11U 1_555 1_555
Zn2B O5T 1_555 1_555
Zn2K O11 1_555 1_555
Zn3A O9U 1_555 1_555
Zn3K O9 1_555 1_555
O1O Zn1O 1_555 1_555
O2O Zn1O 1_555 1_555
O3O Zn1 1_555 1_555
O4U Zn3 1_555 1_555
O5U Zn2 1_555 1_555
O9I Zn3 1_555 1_555
O9V Zn3 1_555 1_555
O10O Zn1 1_555 1_555
O11I Zn2 1_555 1_555
O11V Zn2 1_555 1_555
C6 C9 1_555 1_555
C11 C12 1_555 1_555
C15 C17 1_555 1_555
C15 C19 1_555 1_555
C18 C19 1_555 1_555
O10 Zn1O 1_555 1_555
N2U C14U 1_555 1_555
C15U C17U 1_555 1_555
C15U C19U 1_555 1_555
C18U C19U 1_555 1_555
N1T C16T 1_555 1_555
C8T C11T 1_555 1_555
C11T C12T 1_555 1_555

#END
