
#######################################################################
#
#                 Cambridge Crystallographic Data Centre
#                                CCDC 
#
#######################################################################
#
# If this CIF has been generated from an entry in the Cambridge 
# Structural Database, then it will include bibliographic, chemical, 
# crystal, experimental, refinement or atomic coordinate data resulting 
# from the CCDC's data processing and validation procedures.
#
#######################################################################

data_WOYJIF
_symmetry_cell_setting           tetragonal
_symmetry_space_group_name_H-M   'P 42/n n m'
_symmetry_Int_Tables_number      134
_space_group_name_Hall           '-P 4ac 2bc'
loop_
_symmetry_equiv_pos_site_id
_symmetry_equiv_pos_as_xyz
1 x,y,z
2 1/2-y,x,1/2+z
3 1/2-x,1/2-y,z
4 y,1/2-x,1/2+z
5 x,1/2-y,1/2-z
6 1/2-x,y,1/2-z
7 y,x,-z
8 1/2-y,1/2-x,-z
9 -x,-y,-z
10 1/2+y,-x,1/2-z
11 1/2+x,1/2+y,-z
12 -y,1/2+x,1/2-z
13 -x,1/2+y,1/2+z
14 1/2+x,-y,1/2+z
15 -y,-x,z
16 1/2+y,1/2+x,z
_cell_length_a                   17.7179(7)
_cell_length_b                   17.7179(7)
_cell_length_c                   27.5566(13)
_cell_angle_alpha                90
_cell_angle_beta                 90
_cell_angle_gamma                90
_cell_volume                     8650.68
loop_
_atom_site_label
_atom_site_type_symbol
_atom_site_fract_x
_atom_site_fract_y
_atom_site_fract_z
Cu1 Cu 0.03972(3) 0.53972(3) 0.53215(3)
Cu2 Cu 0.2500 0.32483(5) 0.7500
C1 C 0.1542(3) 0.2476(3) 0.68498(19)
C2 C 0.0368(3) 0.3139(3) 0.5773(2)
C3 C 0.0853(3) 0.3128(3) 0.61668(18)
H1 H 0.1104 0.3581 0.6257
C4 C 0.0986(3) 0.2473(3) 0.6436(2)
C5 C 0.0109(3) 0.1821(3) 0.5926(2)
C6 C 0.0004(4) 0.2441(4) 0.5661(2)
H2 H -0.0324 0.2418 0.5389
C7 C 0.0580(3) 0.1811(3) 0.6307(2)
H3 H 0.0643 0.1361 0.6490
O1 O 0.1822(2) 0.3106(2) 0.69464(12)
O2 O 0.1648(2) 0.1862(2) 0.70539(13)
N1 N -0.0302(3) 0.1165(3) 0.5807(2)
C8 C 0.0245(3) 0.3840(3) 0.5476(2)
O3 O 0.0539(2) 0.44193(19) 0.56428(12)
O4 O -0.0149(2) 0.3756(2) 0.51046(13)
C9 C -0.0876(4) 0.0876(4) 0.5993(3)
H4 H -0.1093 0.1093 0.6276
C10 C -0.0329(6) 0.0942(7) 0.5312(6)
H5 H -0.0040 0.1126 0.5047
O5 O 0.2500 0.4463(4) 0.7500
O6 O 0.1053(2) 0.6053(2) 0.5812(2)
C1N C -0.2476(3) -0.1542(3) 0.68498(19)
C2N C -0.3139(3) -0.0368(3) 0.5773(2)
C3N C -0.3128(3) -0.0853(3) 0.61668(18)
H1N H -0.3581 -0.1104 0.6257
C4N C -0.2473(3) -0.0986(3) 0.6436(2)
C5N C -0.1821(3) -0.0109(3) 0.5926(2)
C6N C -0.2441(4) -0.0004(4) 0.5661(2)
H2N H -0.2418 0.0324 0.5389
C7N C -0.1811(3) -0.0580(3) 0.6307(2)
H3N H -0.1361 -0.0643 0.6490
O1N O -0.3106(2) -0.1822(2) 0.69464(12)
O2N O -0.1862(2) -0.1648(2) 0.70539(13)
N1N N -0.1165(3) 0.0302(3) 0.5807(2)
C8N C -0.3840(3) -0.0245(3) 0.5476(2)
O3N O -0.44193(19) -0.0539(2) 0.56428(12)
O4N O -0.3756(2) 0.0149(2) 0.51046(13)
C10N C -0.0942(7) 0.0329(6) 0.5312(6)
H5N H -0.1126 0.0040 0.5047
Cu1B Cu -0.53972(3) -0.03972(3) 0.53215(3)
Cu1F Cu -0.46028(3) 0.03972(3) 0.46785(3)
Cu1G Cu -0.03972(3) 0.46028(3) 0.46785(3)
Cu2B Cu 0.2500 0.17517(5) 0.7500
Cu2I Cu -0.17517(5) -0.2500 0.7500
Cu2K Cu -0.32483(5) -0.2500 0.7500
O1E O 0.3178(2) 0.3106(2) 0.80536(12)
O2B O 0.3352(2) 0.3138(2) 0.70539(13)
O2D O 0.1648(2) 0.3138(2) 0.79461(13)
O3O O -0.05807(19) 0.5539(2) 0.56428(12)
O4G O 0.1244(2) 0.5149(2) 0.48954(13)
O4H O 0.0149(2) 0.6244(2) 0.48954(13)
loop_
_geom_bond_atom_site_label_1
_geom_bond_atom_site_label_2
_geom_bond_site_symmetry_1
_geom_bond_site_symmetry_2
Cu1 O3 1_555 1_555
Cu2 O1 1_555 1_555
C1 C4 1_555 1_555
C2 C3 1_555 1_555
C3 H1 1_555 1_555
C4 C3 1_555 1_555
C5 C6 1_555 1_555
C6 C2 1_555 1_555
H2 C6 1_555 1_555
C7 C4 1_555 1_555
H3 C7 1_555 1_555
O1 C1 1_555 1_555
O2 C1 1_555 1_555
N1 C5 1_555 1_555
C8 C2 1_555 1_555
O3 C8 1_555 1_555
O4 C8 1_555 1_555
C9 N1 1_555 1_555
H4 C9 1_555 1_555
C10 N1 1_555 1_555
H5 C10 1_555 1_555
O5 Cu2 1_555 1_555
O6 Cu1 1_555 1_555
C1N C4N 1_555 1_555
C2N C3N 1_555 1_555
C3N H1N 1_555 1_555
C4N C3N 1_555 1_555
C5N C6N 1_555 1_555
C6N C2N 1_555 1_555
H2N C6N 1_555 1_555
C7N C4N 1_555 1_555
H3N C7N 1_555 1_555
O1N C1N 1_555 1_555
O2N C1N 1_555 1_555
N1N C9 1_555 1_555
C8N C2N 1_555 1_555
O3N C8N 1_555 1_555
O4N C8N 1_555 1_555
C10N C10 1_555 1_555
H5N C10N 1_555 1_555
Cu1B O3N 1_555 1_555
Cu1F O4N 1_555 1_555
Cu1G Cu1 1_555 1_555
Cu2B Cu2 1_555 1_555
Cu2I O2N 1_555 1_555
Cu2K O1N 1_555 1_555
O1E Cu2 1_555 1_555
O2B Cu2 1_555 1_555
O2D Cu2 1_555 1_555
O3O Cu1 1_555 1_555
O4G Cu1 1_555 1_555
O4H Cu1 1_555 1_555
C5 C7 1_555 1_555
O2 Cu2B 1_555 1_555
O4 Cu1G 1_555 1_555
C5N C7N 1_555 1_555
C5N N1N 1_555 1_555
N1N C10N 1_555 1_555
Cu1B Cu1F 1_555 1_555
Cu2I Cu2K 1_555 1_555

#END
