
#######################################################################
#
#                 Cambridge Crystallographic Data Centre
#                                CCDC 
#
#######################################################################
#
# If this CIF has been generated from an entry in the Cambridge 
# Structural Database, then it will include bibliographic, chemical, 
# crystal, experimental, refinement or atomic coordinate data resulting 
# from the CCDC's data processing and validation procedures.
#
#######################################################################

data_WOYWOY
_symmetry_cell_setting           monoclinic
_symmetry_space_group_name_H-M   'P 21/m'
_symmetry_Int_Tables_number      11
_space_group_name_Hall           '-P 2yb'
loop_
_symmetry_equiv_pos_site_id
_symmetry_equiv_pos_as_xyz
1 x,y,z
2 -x,1/2+y,-z
3 -x,-y,-z
4 x,1/2-y,z
_cell_length_a                   12.355(3)
_cell_length_b                   33.452(7)
_cell_length_c                   12.952(3)
_cell_angle_alpha                90
_cell_angle_beta                 97.63(3)
_cell_angle_gamma                90
_cell_volume                     5305.66
loop_
_atom_site_label
_atom_site_type_symbol
_atom_site_fract_x
_atom_site_fract_y
_atom_site_fract_z
Cl2 Cl 0.3527(3) -0.2500 0.8283(2)
Mn1 Mn 0.79230(4) 0.06795(2) 0.39752(4)
Mn2 Mn 1.0000 0.0000 0.5000
N1 N 0.6109(2) 0.13092(8) 0.3078(2)
O1 O -0.0336(2) 0.05510(7) 0.4029(2)
O2 O 0.7211(2) 0.01273(8) 0.3487(3)
N2 N 0.7929(3) 0.08652(8) 0.2279(2)
N3 N 0.6345(2) 0.10029(9) 0.3763(2)
N4 N 0.7406(3) 0.12017(8) 0.1894(2)
C1 C 0.8231(4) 0.06754(10) 0.1451(3)
O3 O 0.9206(3) 0.02624(10) -0.3822(2)
O4 O 0.7953(3) 0.06960(14) -0.4409(2)
O5 O -0.0620(2) 0.11949(8) 0.4126(3)
C2 C 0.7014(3) 0.14795(9) 0.2608(3)
H1 H 0.6770 0.1728 0.2232
H2 H 0.7616 0.1549 0.3162
C3 C 0.7643(3) -0.02039(11) 0.3716(3)
C4 C 0.0000(3) 0.09088(11) 0.4016(3)
C5 C 0.2853(3) 0.07079(11) 0.3436(4)
H3 H 0.3261 0.0485 0.3245
C6 C 0.5375(3) 0.08850(12) 0.4014(3)
C7 C 0.5030(3) 0.13858(11) 0.2893(3)
C8 C 0.8347(4) 0.06039(12) -0.2590(3)
C9 C 0.4526(3) 0.11209(11) 0.3488(3)
C10 C 0.7887(4) 0.08900(12) 0.0536(3)
C11 C 0.3362(3) 0.10776(12) 0.3574(4)
C12 C 0.7032(4) -0.05741(11) 0.3342(3)
C13 C 0.7361(3) 0.12286(11) 0.0843(3)
C14 C 0.1164(3) 0.09769(11) 0.3846(4)
C15 C 0.8531(3) 0.05111(12) -0.3707(3)
C16 C 0.8055(4) 0.07887(12) -0.0540(3)
C17 C 0.1634(3) 0.13518(12) 0.3966(5)
H4 H 0.1215 0.1575 0.4134
N5 N 0.4373(5) -0.21507(10) 0.1729(4)
C18 C 0.8827(5) 0.02849(13) 0.1574(3)
H5 H 0.9321 0.0263 0.1044
H6 H 0.8300 0.0065 0.1489
H7 H 0.9251 0.0271 0.2268
C19 C 0.6817(4) 0.15645(14) 0.0221(4)
H8 H 0.7188 0.1816 0.0437
H9 H 0.6051 0.1581 0.0338
H10 H 0.6856 0.1518 -0.0520
C20 C 0.5044(5) -0.16098(14) 0.2487(5)
C21 C 0.2727(3) 0.13997(13) 0.3837(5)
H11 H 0.3050 0.1657 0.3929
C22 C 0.5768(5) -0.12527(14) 0.2752(4)
C23 C 0.5307(4) 0.05402(16) 0.4733(4)
H12 H 0.5261 0.0291 0.4333
H13 H 0.4655 0.0568 0.5084
H14 H 0.5959 0.0535 0.5253
N6 N 0.3686(4) -0.20595(12) 0.2475(4)
C24 C 0.4140(5) -0.17377(14) 0.2930(5)
C25 C 0.5177(4) -0.18823(12) 0.1720(4)
C26 C 0.4123(8) -0.2500 0.1060(7)
H15 H 0.3344 -0.2500 0.0759
H16 H 0.4576 -0.2500 0.0484
C27 C 0.7331(8) 0.0700(3) -0.2337(5)
H17 H 0.6712 0.0695 -0.2857
C28 C 0.4560(4) 0.16865(14) 0.2125(5)
H18 H 0.4907 0.1946 0.2291
H19 H 0.3773 0.1709 0.2149
H20 H 0.4687 0.1604 0.1425
C29 C 0.5836(15) -0.0976(5) 0.2106(16)
H21 H 0.5465 -0.1001 0.1418
C30 C 0.9213(6) 0.0549(2) -0.1780(5)
H22 H 0.9888 0.0441 -0.1925
C31 C 0.3693(7) -0.15495(19) 0.3844(6)
H23 H 0.3718 -0.1258 0.3783
H24 H 0.4134 -0.1633 0.4493
H25 H 0.2935 -0.1635 0.3849
C32 C 0.6065(5) -0.19067(15) 0.1000(5)
H26 H 0.6668 -0.2073 0.1326
H27 H 0.6336 -0.1638 0.0882
H28 H 0.5757 -0.2025 0.0333
Mn3 Mn 0.23316(15) -0.2500 0.28068(14)
Cl1 Cl 0.1340(3) -0.2500 0.0983(4)
C33 C 0.1770(3) 0.06535(11) 0.3569(4)
H29 H 0.1443 0.0397 0.3471
C34 C 0.9077(6) 0.06530(19) -0.0768(5)
H30 H 0.9675 0.0633 -0.0228
O6 O 0.1177(5) -0.20319(15) 0.3226(6)
C35 C 0.7215(8) 0.0804(4) -0.1319(6)
H31 H 0.6520 0.0889 -0.1166
O7 O 0.8557(3) -0.02580(10) 0.4238(3)
O8 O 0.2979(14) -0.2500 0.4553(10)
C36 C 0.7105(17) -0.0925(5) 0.3972(16)
H32 H 0.7673 -0.0945 0.4540
C37 C 0.6312(16) -0.1262(5) 0.3764(18)
H33 H 0.6194 -0.1459 0.4264
C38 C 0.6448(17) -0.0633(5) 0.2385(18)
H34 H 0.6458 -0.0428 0.1878
O2C O 0.7211(2) -0.51273(8) 0.3487(3)
C3C C 0.7643(3) -0.47961(11) 0.3716(3)
C12C C 0.7032(4) -0.44259(11) 0.3342(3)
N5C N 0.4373(5) -0.28493(10) 0.1729(4)
C20C C 0.5044(5) -0.33902(14) 0.2487(5)
C22C C 0.5768(5) -0.37473(14) 0.2752(4)
N6C N 0.3686(4) -0.29405(12) 0.2475(4)
C24C C 0.4140(5) -0.32623(14) 0.2930(5)
C25C C 0.5177(4) -0.31177(12) 0.1720(4)
C29C C 0.5836(15) -0.4024(5) 0.2106(16)
H21C H 0.5465 -0.3999 0.1418
C31C C 0.3693(7) -0.34505(19) 0.3844(6)
H23C H 0.3718 -0.3742 0.3783
H24C H 0.4134 -0.3367 0.4493
H25C H 0.2935 -0.3365 0.3849
C32C C 0.6065(5) -0.30933(15) 0.1000(5)
H26C H 0.6668 -0.2927 0.1326
H27C H 0.6336 -0.3362 0.0882
H28C H 0.5757 -0.2975 0.0333
O7C O 0.8557(3) -0.47420(10) 0.4238(3)
C36C C 0.7105(17) -0.4075(5) 0.3972(16)
H32C H 0.7673 -0.4055 0.4540
C37C C 0.6312(16) -0.3738(5) 0.3764(18)
H33C H 0.6194 -0.3541 0.4264
C38C C 0.6448(17) -0.4367(5) 0.2385(18)
H34C H 0.6458 -0.4572 0.1878
Mn1B Mn 0.20770(4) -0.06795(2) 0.60248(4)
N1B N 0.3891(2) -0.13092(8) 0.6922(2)
O1B O 1.0336(2) -0.05510(7) 0.5971(2)
N2B N 0.2071(3) -0.08652(8) 0.7721(2)
N3B N 0.3655(2) -0.10029(9) 0.6237(2)
N4B N 0.2594(3) -0.12017(8) 0.8106(2)
C1B C 0.1769(4) -0.06754(10) 0.8549(3)
O3B O 0.0794(3) -0.02624(10) 1.3822(2)
O4B O 0.2047(3) -0.06960(14) 1.4409(2)
O5B O 1.0620(2) -0.11949(8) 0.5874(3)
C2B C 0.2986(3) -0.14795(9) 0.7392(3)
H1B H 0.3230 -0.1728 0.7768
H2B H 0.2384 -0.1549 0.6838
C4B C 1.0000(3) -0.09088(11) 0.5984(3)
C5B C 0.7147(3) -0.07079(11) 0.6564(4)
H3B H 0.6739 -0.0485 0.6755
C6B C 0.4625(3) -0.08850(12) 0.5986(3)
C7B C 0.4970(3) -0.13858(11) 0.7107(3)
C8B C 0.1653(4) -0.06039(12) 1.2590(3)
C9B C 0.5474(3) -0.11209(11) 0.6512(3)
C10B C 0.2113(4) -0.08900(12) 0.9464(3)
C11B C 0.6638(3) -0.10776(12) 0.6426(4)
C13B C 0.2639(3) -0.12286(11) 0.9157(3)
C14B C 0.8836(3) -0.09769(11) 0.6154(4)
C15B C 0.1469(3) -0.05111(12) 1.3707(3)
C16B C 0.1945(4) -0.07887(12) 1.0540(3)
C17B C 0.8366(3) -0.13518(12) 0.6034(5)
H4B H 0.8785 -0.1575 0.5866
C18B C 0.1173(5) -0.02849(13) 0.8426(3)
H5B H 0.0679 -0.0263 0.8956
H6B H 0.1700 -0.0065 0.8511
H7B H 0.0749 -0.0271 0.7732
C19B C 0.3183(4) -0.15645(14) 0.9779(4)
H8B H 0.2812 -0.1816 0.9563
H9B H 0.3949 -0.1581 0.9662
H10B H 0.3144 -0.1518 1.0520
C21B C 0.7273(3) -0.13997(13) 0.6163(5)
H11B H 0.6950 -0.1657 0.6071
C23B C 0.4693(4) -0.05402(16) 0.5267(4)
H12B H 0.4739 -0.0291 0.5667
H13B H 0.5345 -0.0568 0.4916
H14B H 0.4041 -0.0535 0.4747
C27B C 0.2669(8) -0.0700(3) 1.2337(5)
H17B H 0.3288 -0.0695 1.2857
C28B C 0.5440(4) -0.16865(14) 0.7875(5)
H18B H 0.5093 -0.1946 0.7709
H19B H 0.6227 -0.1709 0.7851
H20B H 0.5313 -0.1604 0.8575
C30B C 0.0787(6) -0.0549(2) 1.1780(5)
H22B H 0.0112 -0.0441 1.1925
C33B C 0.8230(3) -0.06535(11) 0.6431(4)
H29B H 0.8557 -0.0397 0.6529
C34B C 0.0923(6) -0.06530(19) 1.0768(5)
H30B H 0.0325 -0.0633 1.0228
C35B C 0.2785(8) -0.0804(4) 1.1319(6)
H31B H 0.3480 -0.0889 1.1166
O6C O 0.1177(5) -0.29681(15) 0.3226(6)
Mn1_2 Mn -0.20770(4) 0.06795(2) 0.39752(4)
Mn1_3 Mn 0.79230(4) 0.06795(2) -0.60248(4)
Mn1B_2 Mn 0.20770(4) -0.06795(2) 1.60248(4)
Mn1B_3 Mn 1.20770(4) -0.06795(2) 0.60248(4)
Mn1C Mn 0.79230(4) -0.56795(2) 0.39752(4)
Mn2_2 Mn 0.0000 0.0000 0.5000
Mn2_3 Mn 0.0000 0.0000 1.5000
Mn2_4 Mn 1.0000 0.0000 -0.5000
Mn2A Mn 1.0000 -0.5000 0.5000
O1_2 O 0.9664(2) 0.05510(7) 0.4029(2)
O1B_2 O 0.0336(2) -0.05510(7) 0.5971(2)
O2B O 0.2789(2) -0.01273(8) 0.6513(3)
O3_2 O 0.9206(3) 0.02624(10) 0.6178(2)
O3B_2 O 1.0794(3) -0.02624(10) 0.3822(2)
O4_2 O 0.7953(3) 0.06960(14) 0.5591(2)
O4B_2 O 0.2047(3) -0.06960(14) 0.4409(2)
O7B O 1.1443(3) 0.02580(10) 0.5762(3)
C39? C 0.6882(9) -0.1272(2) 0.3126(8)
H35? H 0.7221 -0.1527 0.3212
C40? C 0.7526(9) -0.0927(2) 0.3382(8)
H36? H 0.8293 -0.0947 0.3577
C41? C 0.7928(10) 0.0402(3) -0.0918(9)
H37? H 0.7722 0.0193 -0.0489
C42? C 0.8193(10) 0.1108(3) -0.1276(8)
H38? H 0.8154 0.1380 -0.1072
C43? C 0.5926(7) -0.05332(19) 0.2926(6)
H39? H 0.5605 -0.0275 0.2850
C44? C 0.5298(8) -0.0874(2) 0.2623(7)
H40? H 0.4554 -0.0846 0.2331
C45? C 0.8376(10) 0.1014(3) -0.2250(8)
H41? H 0.8525 0.1220 -0.2716
C46? C 0.8109(9) 0.0325(3) -0.1946(8)
H42? H 0.8057 0.0057 -0.2188
loop_
_geom_bond_atom_site_label_1
_geom_bond_atom_site_label_2
_geom_bond_site_symmetry_1
_geom_bond_site_symmetry_2
Mn1 O2 1_555 1_555
Mn2 O7 1_555 1_555
N1 N3 1_555 1_555
O1 C4 1_555 1_555
O2 C3 1_555 1_555
N2 Mn1 1_555 1_555
N3 Mn1 1_555 1_555
N4 N2 1_555 1_555
C1 N2 1_555 1_555
O3 C15 1_555 1_555
O4 C15 1_555 1_555
O5 C4 1_555 1_555
C2 N1 1_555 1_555
H1 C2 1_555 1_555
H2 C2 1_555 1_555
C3 C12 1_555 1_555
C4 C14 1_555 1_555
C5 H3 1_555 1_555
C6 N3 1_555 1_555
C7 N1 1_555 1_555
C8 C15 1_555 1_555
C9 C6 1_555 1_555
C10 C1 1_555 1_555
C11 C5 1_555 1_555
C12 C36 1_555 1_555
C13 N4 1_555 1_555
C14 C17 1_555 1_555
C16 C10 1_555 1_555
C17 H4 1_555 1_555
N5 N6 1_555 1_555
C18 C1 1_555 1_555
H5 C18 1_555 1_555
H6 C18 1_555 1_555
H7 C18 1_555 1_555
C19 C13 1_555 1_555
H8 C19 1_555 1_555
H9 C19 1_555 1_555
H10 C19 1_555 1_555
C20 C22 1_555 1_555
C21 C11 1_555 1_555
H11 C21 1_555 1_555
C22 C29 1_555 1_555
C23 C6 1_555 1_555
H12 C23 1_555 1_555
H13 C23 1_555 1_555
H14 C23 1_555 1_555
N6 C24 1_555 1_555
C24 C20 1_555 1_555
C25 N5 1_555 1_555
C26 N5 1_555 1_555
H15 C26 1_555 1_555
H16 C26 1_555 1_555
C27 C8 1_555 1_555
H17 C27 1_555 1_555
C28 C7 1_555 1_555
H18 C28 1_555 1_555
H19 C28 1_555 1_555
H20 C28 1_555 1_555
C29 H21 1_555 1_555
C30 C8 1_555 1_555
H22 C30 1_555 1_555
C31 C24 1_555 1_555
H23 C31 1_555 1_555
H24 C31 1_555 1_555
H25 C31 1_555 1_555
C32 C25 1_555 1_555
H26 C32 1_555 1_555
H27 C32 1_555 1_555
H28 C32 1_555 1_555
Mn3 N6 1_555 1_555
Cl1 Mn3 1_555 1_555
C33 C5 1_555 1_555
H29 C33 1_555 1_555
C34 C16 1_555 1_555
H30 C34 1_555 1_555
O6 Mn3 1_555 1_555
C35 C16 1_555 1_555
H31 C35 1_555 1_555
O7 C3 1_555 1_555
O8 Mn3 1_555 1_555
C36 H32 1_555 1_555
C37 C22 1_555 1_555
H33 C37 1_555 1_555
C38 C12 1_555 1_555
H34 C38 1_555 1_555
O2C C3C 1_555 1_555
C3C C12C 1_555 1_555
C12C C36C 1_555 1_555
N5C C26 1_555 1_555
C20C C22C 1_555 1_555
C22C C29C 1_555 1_555
N6C Mn3 1_555 1_555
C24C C20C 1_555 1_555
C25C N5C 1_555 1_555
C29C H21C 1_555 1_555
C31C C24C 1_555 1_555
H23C C31C 1_555 1_555
H24C C31C 1_555 1_555
H25C C31C 1_555 1_555
C32C C25C 1_555 1_555
H26C C32C 1_555 1_555
H27C C32C 1_555 1_555
H28C C32C 1_555 1_555
O7C C3C 1_555 1_555
C36C H32C 1_555 1_555
C37C C22C 1_555 1_555
H33C C37C 1_555 1_555
C38C C12C 1_555 1_555
H34C C38C 1_555 1_555
Mn1B N2B 1_555 1_555
N1B N3B 1_555 1_555
O1B Mn2 1_555 1_555
N2B N4B 1_555 1_555
N3B Mn1B 1_555 1_555
N4B C2B 1_555 1_555
C1B N2B 1_555 1_555
O3B C15B 1_555 1_555
O4B C15B 1_555 1_555
O5B C4B 1_555 1_555
C2B N1B 1_555 1_555
H1B C2B 1_555 1_555
H2B C2B 1_555 1_555
C4B O1B 1_555 1_555
C5B H3B 1_555 1_555
C6B N3B 1_555 1_555
C7B N1B 1_555 1_555
C8B C15B 1_555 1_555
C9B C6B 1_555 1_555
C10B C1B 1_555 1_555
C11B C5B 1_555 1_555
C13B N4B 1_555 1_555
C14B C4B 1_555 1_555
C16B C10B 1_555 1_555
C17B C14B 1_555 1_555
H4B C17B 1_555 1_555
C18B C1B 1_555 1_555
H5B C18B 1_555 1_555
H6B C18B 1_555 1_555
H7B C18B 1_555 1_555
C19B C13B 1_555 1_555
H8B C19B 1_555 1_555
H9B C19B 1_555 1_555
H10B C19B 1_555 1_555
C21B C11B 1_555 1_555
H11B C21B 1_555 1_555
C23B C6B 1_555 1_555
H12B C23B 1_555 1_555
H13B C23B 1_555 1_555
H14B C23B 1_555 1_555
C27B C8B 1_555 1_555
H17B C27B 1_555 1_555
C28B C7B 1_555 1_555
H18B C28B 1_555 1_555
H19B C28B 1_555 1_555
H20B C28B 1_555 1_555
C30B C8B 1_555 1_555
H22B C30B 1_555 1_555
C33B C5B 1_555 1_555
H29B C33B 1_555 1_555
C34B C16B 1_555 1_555
H30B C34B 1_555 1_555
C35B C16B 1_555 1_555
H31B C35B 1_555 1_555
O6C Mn3 1_555 1_555
Mn1_2 O1 1_555 1_555
Mn1_3 O4 1_555 1_555
Mn1B_2 O4B 1_555 1_555
Mn1B_3 O1B 1_555 1_555
Mn1C O2C 1_555 1_555
Mn2_2 O1 1_555 1_555
Mn2_3 O3B 1_555 1_555
Mn2_4 O3 1_555 1_555
Mn2A O7C 1_555 1_555
O1_2 Mn1 1_555 1_555
O1B_2 Mn1B 1_555 1_555
O2B Mn1B 1_555 1_555
O3_2 Mn2 1_555 1_555
O3B_2 Mn2 1_555 1_555
O4_2 Mn1 1_555 1_555
O4B_2 Mn1B 1_555 1_555
O7B Mn2 1_555 1_555
Mn2 O1_2 1_555 1_555
N4 C2 1_555 1_555
C7 C9 1_555 1_555
C9 C11 1_555 1_555
C10 C13 1_555 1_555
C14 C33 1_555 1_555
C17 C21 1_555 1_555
C20 C25 1_555 1_555
C27 C35 1_555 1_555
C29 C38 1_555 1_555
C30 C34 1_555 1_555
C36 C37 1_555 1_555
N5C N6C 1_555 1_555
C20C C25C 1_555 1_555
N6C C24C 1_555 1_555
C29C C38C 1_555 1_555
C36C C37C 1_555 1_555
C7B C9B 1_555 1_555
C9B C11B 1_555 1_555
C10B C13B 1_555 1_555
C14B C33B 1_555 1_555
C17B C21B 1_555 1_555
C27B C35B 1_555 1_555
C30B C34B 1_555 1_555
Mn2_2 O1B_2 1_555 1_555

#END
