
#######################################################################
#
#                 Cambridge Crystallographic Data Centre
#                                CCDC 
#
#######################################################################
#
# If this CIF has been generated from an entry in the Cambridge 
# Structural Database, then it will include bibliographic, chemical, 
# crystal, experimental, refinement or atomic coordinate data resulting 
# from the CCDC's data processing and validation procedures.
#
#######################################################################

data_WOYZUH
_symmetry_cell_setting           orthorhombic
_symmetry_space_group_name_H-M   'P b c a'
_symmetry_Int_Tables_number      61
_space_group_name_Hall           '-P 2ac 2ab'
loop_
_symmetry_equiv_pos_site_id
_symmetry_equiv_pos_as_xyz
1 x,y,z
2 1/2-x,-y,1/2+z
3 -x,1/2+y,1/2-z
4 1/2+x,1/2-y,-z
5 -x,-y,-z
6 1/2+x,y,1/2-z
7 x,1/2-y,1/2+z
8 1/2-x,1/2+y,z
_cell_length_a                   17.5564(10)
_cell_length_b                   10.6174(6)
_cell_length_c                   25.2308(14)
_cell_angle_alpha                90
_cell_angle_beta                 90
_cell_angle_gamma                90
_cell_volume                     4703.1
loop_
_atom_site_label
_atom_site_type_symbol
_atom_site_fract_x
_atom_site_fract_y
_atom_site_fract_z
Dy1 Dy 0.097676(6) 0.741151(10) 0.362255(5)
O1 O 0.04996(11) 0.96194(18) 0.36543(8)
O2 O 0.13001(10) 0.57954(16) 0.30171(7)
N1 N 0.21752(13) 0.61797(19) 0.38538(8)
O3 O 0.32170(10) 0.34997(16) 0.31131(7)
C1 C 0.26214(15) 0.7200(2) 0.46572(10)
N2 N -0.06525(13) 0.7189(2) 0.22395(9)
C2 C 0.30261(15) 0.2840(2) 0.22218(10)
H1 H 0.3453 0.2322 0.2240
O4 O 0.03804(13) 0.56422(19) 0.39917(9)
C3 C 0.20080(15) 0.8067(2) 0.47060(10)
O5 O 0.14591(11) 0.81312(19) 0.43580(8)
C4 C 0.21623(14) 0.4336(2) 0.26216(10)
N3 N 0.23596(12) 0.5275(2) 0.34757(9)
O6 O -0.01780(11) 0.82398(18) 0.40730(8)
C5 C 0.19058(14) 0.5175(2) 0.30479(10)
C6 C 0.28155(14) 0.3554(2) 0.26694(10)
C7 C 0.20046(16) 0.8874(2) 0.51510(10)
H2 H 0.1598 0.9422 0.5199
C8 C 0.03631(17) 0.4780(3) 0.43193(12)
H3 H 0.0768 0.4718 0.4556
C9 C 0.25879(17) 0.8868(3) 0.55150(11)
H4 H 0.2575 0.9421 0.5801
C10 C -0.0862(2) 0.7574(3) 0.17058(13)
H5 H -0.0630 0.8371 0.1627
H6 H -0.1406 0.7650 0.1682
H7 H -0.0688 0.6954 0.1457
C11 C 0.26683(15) 0.6296(2) 0.42301(10)
H8 H 0.3086 0.5757 0.4226
C12 C 0.26130(16) 0.2892(3) 0.17561(11)
H9 H 0.2766 0.2412 0.1467
C13 C -0.10631(19) 0.6126(3) 0.24601(13)
H10 H -0.0844 0.5900 0.2795
H11 H -0.1029 0.5424 0.2222
H12 H -0.1588 0.6351 0.2509
N4 N -0.01861(14) 0.3939(2) 0.43591(9)
N5 N -0.00824(14) 0.9374(2) 0.39383(10)
O7 O 0.00520(13) 0.7479(2) 0.29687(10)
C14 C 0.32047(16) 0.7210(3) 0.50362(11)
H13 H 0.3606 0.6645 0.5002
C15 C 0.32003(17) 0.8037(3) 0.54592(11)
H14 H 0.3598 0.8040 0.5703
C16 C -0.01399(17) 0.7777(3) 0.25148(13)
H15 H 0.0099 0.8467 0.2360
O8 O -0.05282(13) 1.0210(2) 0.40646(11)
C17 C -0.0833(2) 0.3909(4) 0.40108(15)
H16 H -0.0837 0.4655 0.3796
H17 H -0.1292 0.3872 0.4217
H18 H -0.0802 0.3180 0.3787
C18 C -0.0147(2) 0.2938(3) 0.47529(13)
H19 H -0.0098 0.2140 0.4577
H20 H -0.0604 0.2942 0.4962
H21 H 0.0285 0.3073 0.4979
C19 C 0.17502(15) 0.4363(2) 0.21450(10)
H22 H 0.1320 0.4870 0.2120
C20 C 0.19692(16) 0.3655(3) 0.17142(11)
H23 H 0.1692 0.3685 0.1400
H24 H 0.2823 0.5566 0.3305
Dy1G Dy 0.402324(6) 0.241151(10) 0.362255(5)
O3G O 0.17830(10) 0.84997(16) 0.31131(7)
loop_
_geom_bond_atom_site_label_1
_geom_bond_atom_site_label_2
_geom_bond_site_symmetry_1
_geom_bond_site_symmetry_2
Dy1 O1 1_555 1_555
O1 N5 1_555 1_555
O2 Dy1 1_555 1_555
N1 Dy1 1_555 1_555
O3 C6 1_555 1_555
C1 C3 1_555 1_555
N2 C10 1_555 1_555
C2 H1 1_555 1_555
O4 Dy1 1_555 1_555
C3 O5 1_555 1_555
O5 Dy1 1_555 1_555
C4 C5 1_555 1_555
N3 N1 1_555 1_555
O6 Dy1 1_555 1_555
C5 O2 1_555 1_555
C6 C2 1_555 1_555
C7 C3 1_555 1_555
H2 C7 1_555 1_555
C8 O4 1_555 1_555
H3 C8 1_555 1_555
C9 C7 1_555 1_555
H4 C9 1_555 1_555
C10 H5 1_555 1_555
H6 C10 1_555 1_555
H7 C10 1_555 1_555
C11 N1 1_555 1_555
H8 C11 1_555 1_555
C12 C2 1_555 1_555
H9 C12 1_555 1_555
C13 N2 1_555 1_555
H10 C13 1_555 1_555
H11 C13 1_555 1_555
H12 C13 1_555 1_555
N4 C8 1_555 1_555
N5 O6 1_555 1_555
O7 Dy1 1_555 1_555
C14 C1 1_555 1_555
H13 C14 1_555 1_555
C15 C9 1_555 1_555
H14 C15 1_555 1_555
C16 N2 1_555 1_555
H15 C16 1_555 1_555
O8 N5 1_555 1_555
C17 N4 1_555 1_555
H16 C17 1_555 1_555
H17 C17 1_555 1_555
H18 C17 1_555 1_555
C18 N4 1_555 1_555
H19 C18 1_555 1_555
H20 C18 1_555 1_555
H21 C18 1_555 1_555
C19 C4 1_555 1_555
H22 C19 1_555 1_555
C20 C12 1_555 1_555
H23 C20 1_555 1_555
H24 N3 1_555 1_555
Dy1G O3 1_555 1_555
O3G Dy1 1_555 1_555
C1 C11 1_555 1_555
C4 C6 1_555 1_555
N3 C5 1_555 1_555
O7 C16 1_555 1_555
C14 C15 1_555 1_555
C19 C20 1_555 1_555

#END
