
#######################################################################
#
#                 Cambridge Crystallographic Data Centre
#                                CCDC 
#
#######################################################################
#
# If this CIF has been generated from an entry in the Cambridge 
# Structural Database, then it will include bibliographic, chemical, 
# crystal, experimental, refinement or atomic coordinate data resulting 
# from the CCDC's data processing and validation procedures.
#
#######################################################################

data_WOYZOB
_symmetry_cell_setting           orthorhombic
_symmetry_space_group_name_H-M   'P b c a'
_symmetry_Int_Tables_number      61
_space_group_name_Hall           '-P 2ac 2ab'
loop_
_symmetry_equiv_pos_site_id
_symmetry_equiv_pos_as_xyz
1 x,y,z
2 1/2-x,-y,1/2+z
3 -x,1/2+y,1/2-z
4 1/2+x,1/2-y,-z
5 -x,-y,-z
6 1/2+x,y,1/2-z
7 x,1/2-y,1/2+z
8 1/2-x,1/2+y,z
_cell_length_a                   17.5789(15)
_cell_length_b                   10.6997(9)
_cell_length_c                   25.330(2)
_cell_angle_alpha                90
_cell_angle_beta                 90
_cell_angle_gamma                90
_cell_volume                     4764.29
loop_
_atom_site_label
_atom_site_type_symbol
_atom_site_fract_x
_atom_site_fract_y
_atom_site_fract_z
Tb1 Tb 0.097494(8) 0.741918(13) 0.137644(7)
O1 O 0.05045(15) 0.9619(2) 0.13311(12)
N1 N 0.21687(17) 0.6170(2) 0.11395(12)
O2 O 0.13049(13) 0.5805(2) 0.19759(10)
C1 C 0.2612(2) 0.7162(3) 0.03335(14)
C2 C 0.19068(19) 0.5182(3) 0.19442(14)
O3 O 0.32080(13) 0.3502(2) 0.18787(10)
N2 N 0.23616(17) 0.5284(3) 0.15196(12)
H1 H 0.2363 0.4528 0.1357
C3 C 0.26532(19) 0.6272(3) 0.07601(15)
H2 H 0.3065 0.5725 0.0762
O4 O 0.14518(15) 0.8096(3) 0.06313(11)
C4 C 0.1758(2) 0.4386(3) 0.28443(15)
H3 H 0.1332 0.4898 0.2871
C5 C 0.2579(2) 0.8807(3) -0.05193(16)
H4 H 0.2566 0.9352 -0.0805
C6 C 0.2002(2) 0.8034(3) 0.02837(15)
O5 O -0.01812(15) 0.8251(3) 0.09288(13)
N3 N -0.06529(17) 0.7175(3) 0.27597(13)
C7 C 0.2003(2) 0.8824(3) -0.01583(15)
H5 H 0.1600 0.9375 -0.0207
C8 C -0.0878(3) 0.7537(4) 0.32881(18)
H6 H -0.0697 0.6928 0.3536
H7 H -0.1423 0.7584 0.3307
H8 H -0.0664 0.8338 0.3371
C9 C 0.21595(19) 0.4351(3) 0.23693(14)
C10 C 0.3188(2) 0.7167(3) -0.00465(16)
H9 H 0.3586 0.6598 -0.0015
C11 C -0.1036(3) 0.6105(4) 0.25325(19)
H10 H -0.1563 0.6302 0.2477
H11 H -0.0995 0.5407 0.2769
H12 H -0.0804 0.5897 0.2201
N4 N -0.00778(19) 0.9375(3) 0.10505(15)
C12 C -0.0150(2) 0.7788(4) 0.2489(2)
H13 H 0.0069 0.8486 0.2647
C13 C 0.1973(2) 0.3688(3) 0.32748(16)
H14 H 0.1698 0.3727 0.3588
O6 O -0.05188(19) 1.0210(3) 0.09268(17)
C14 C 0.3186(2) 0.7981(3) -0.04645(16)
H15 H 0.3583 0.7982 -0.0707
O7 O 0.00591(17) 0.7517(3) 0.20413(15)
N5 N -0.01818(18) 0.3965(3) 0.06462(14)
C15 C 0.0354(3) 0.4797(4) 0.06918(18)
H16 H 0.0766 0.4732 0.0463
C16 C -0.0847(3) 0.3943(5) 0.0973(2)
H17 H -0.0875 0.4703 0.1173
H18 H -0.0821 0.3243 0.1209
H19 H -0.1292 0.3869 0.0754
C17 C -0.0115(3) 0.2956(4) 0.0266(2)
H20 H 0.0342 0.3062 0.0064
H21 H -0.0547 0.2967 0.0034
H22 H -0.0097 0.2171 0.0449
O8 O 0.03637(19) 0.5659(3) 0.10116(14)
C18 C 0.3019(2) 0.2861(3) 0.27686(15)
H23 H 0.3443 0.2343 0.2750
C19 C 0.2612(2) 0.2917(4) 0.32309(16)
H24 H 0.2764 0.2436 0.3518
C20 C 0.28107(19) 0.3567(3) 0.23228(14)
Tb1G Tb 0.402506(8) 0.241918(13) 0.137644(7)
O3G O 0.17920(13) 0.8502(2) 0.18787(10)
loop_
_geom_bond_atom_site_label_1
_geom_bond_atom_site_label_2
_geom_bond_site_symmetry_1
_geom_bond_site_symmetry_2
Tb1 O1 1_555 1_555
O1 N4 1_555 1_555
N1 Tb1 1_555 1_555
O2 Tb1 1_555 1_555
C1 C3 1_555 1_555
C2 O2 1_555 1_555
O3 C20 1_555 1_555
N2 N1 1_555 1_555
H1 N2 1_555 1_555
C3 N1 1_555 1_555
H2 C3 1_555 1_555
O4 Tb1 1_555 1_555
C4 H3 1_555 1_555
C5 H4 1_555 1_555
C6 C1 1_555 1_555
O5 Tb1 1_555 1_555
N3 C8 1_555 1_555
C7 C5 1_555 1_555
H5 C7 1_555 1_555
C8 H6 1_555 1_555
H7 C8 1_555 1_555
H8 C8 1_555 1_555
C9 C2 1_555 1_555
C10 C1 1_555 1_555
H9 C10 1_555 1_555
C11 N3 1_555 1_555
H10 C11 1_555 1_555
H11 C11 1_555 1_555
H12 C11 1_555 1_555
N4 O5 1_555 1_555
C12 N3 1_555 1_555
H13 C12 1_555 1_555
C13 C4 1_555 1_555
H14 C13 1_555 1_555
O6 N4 1_555 1_555
C14 C5 1_555 1_555
H15 C14 1_555 1_555
O7 Tb1 1_555 1_555
N5 C15 1_555 1_555
C15 H16 1_555 1_555
C16 N5 1_555 1_555
H17 C16 1_555 1_555
H18 C16 1_555 1_555
H19 C16 1_555 1_555
C17 N5 1_555 1_555
H20 C17 1_555 1_555
H21 C17 1_555 1_555
H22 C17 1_555 1_555
O8 Tb1 1_555 1_555
C18 H23 1_555 1_555
C19 C13 1_555 1_555
H24 C19 1_555 1_555
C20 C9 1_555 1_555
Tb1G O3 1_555 1_555
O3G Tb1 1_555 1_555
C2 N2 1_555 1_555
O4 C6 1_555 1_555
C4 C9 1_555 1_555
C6 C7 1_555 1_555
C10 C14 1_555 1_555
C12 O7 1_555 1_555
C15 O8 1_555 1_555
C18 C19 1_555 1_555
C18 C20 1_555 1_555

#END
