
#######################################################################
#
#                 Cambridge Crystallographic Data Centre
#                                CCDC 
#
#######################################################################
#
# If this CIF has been generated from an entry in the Cambridge 
# Structural Database, then it will include bibliographic, chemical, 
# crystal, experimental, refinement or atomic coordinate data resulting 
# from the CCDC's data processing and validation procedures.
#
#######################################################################

data_WOZBAQ
_symmetry_cell_setting           orthorhombic
_symmetry_space_group_name_H-M   'P b c a'
_symmetry_Int_Tables_number      61
_space_group_name_Hall           '-P 2ac 2ab'
loop_
_symmetry_equiv_pos_site_id
_symmetry_equiv_pos_as_xyz
1 x,y,z
2 1/2-x,-y,1/2+z
3 -x,1/2+y,1/2-z
4 1/2+x,1/2-y,-z
5 -x,-y,-z
6 1/2+x,y,1/2-z
7 x,1/2-y,1/2+z
8 1/2-x,1/2+y,z
_cell_length_a                   17.497(2)
_cell_length_b                   10.6651(12)
_cell_length_c                   25.333(3)
_cell_angle_alpha                90
_cell_angle_beta                 90
_cell_angle_gamma                90
_cell_volume                     4727.32
loop_
_atom_site_label
_atom_site_type_symbol
_atom_site_fract_x
_atom_site_fract_y
_atom_site_fract_z
C1 C 0.1753(2) 1.0629(3) 0.21624(16)
H1 H 0.1326 1.0112 0.2137
C2 C 0.2163(2) 1.0670(3) 0.26386(15)
C3 C 0.3018(2) 1.2158(3) 0.22399(16)
H2 H 0.3444 1.2678 0.2257
C4 C 0.2811(2) 1.1452(3) 0.26888(15)
Ho1 Ho 0.098544(9) 0.759771(13) 0.363051(7)
O1 O 0.05141(16) 0.5417(2) 0.36596(12)
N1 N 0.21792(19) 0.8825(3) 0.38662(12)
O2 O 0.13059(15) 0.9196(2) 0.30321(10)
N2 N 0.23672(19) 0.9723(3) 0.34854(12)
H3 H 0.2365 1.0479 0.3650
C5 C 0.1906(2) 0.9826(3) 0.30613(15)
C6 C 0.2616(2) 0.7822(3) 0.46721(14)
O3 O -0.01675(16) 0.6780(3) 0.40773(13)
C7 C 0.2005(2) 0.6954(3) 0.47141(15)
C8 C 0.2665(2) 0.8716(3) 0.42423(15)
H4 H 0.3083 0.9255 0.4239
C9 C 0.1998(2) 0.6155(3) 0.51554(15)
H5 H 0.1593 0.5600 0.5199
O4 O 0.14621(17) 0.6883(3) 0.43640(11)
N3 N -0.0067(2) 0.5651(3) 0.39496(15)
C10 C 0.2573(3) 0.6171(4) 0.55241(16)
H6 H 0.2554 0.5626 0.5810
C11 C 0.3187(3) 0.7001(4) 0.54728(16)
H7 H 0.3583 0.6999 0.5718
C12 C 0.3194(2) 0.7819(4) 0.50540(16)
H8 H 0.3595 0.8387 0.5023
O5 O -0.0508(2) 0.4822(3) 0.40769(16)
O6 O 0.00523(18) 0.7554(3) 0.29875(15)
O7 O 0.0386(2) 0.9343(3) 0.39968(14)
C13 C -0.0130(3) 0.7254(4) 0.2534(2)
H9 H 0.0109 0.6560 0.2385
N4 N -0.06367(19) 0.7848(3) 0.22507(13)
C14 C -0.0833(3) 0.7456(4) 0.17198(18)
H10 H -0.0631 0.8046 0.1470
H11 H -0.1379 0.7419 0.1685
H12 H -0.0620 0.6642 0.1653
C15 C -0.1046(3) 0.8911(4) 0.24649(19)
H13 H -0.0806 0.9176 0.2787
H14 H -0.1566 0.8676 0.2535
H15 H -0.1037 0.9587 0.2215
O8 O 0.32108(15) 1.1520(2) 0.31297(10)
N5 N -0.0194(2) 1.1023(3) 0.43487(15)
C16 C 0.0365(3) 1.0207(4) 0.4307(2)
H16 H 0.0778 1.0299 0.4534
C17 C -0.0856(4) 1.1059(6) 0.4031(3)
H17 H -0.0826 1.1757 0.3793
H18 H -0.1299 1.1150 0.4252
H19 H -0.0895 1.0294 0.3833
C18 C -0.0122(4) 1.2024(5) 0.4733(2)
H20 H 0.0341 1.1914 0.4931
H21 H -0.0551 1.2005 0.4968
H22 H -0.0108 1.2817 0.4554
C19 C 0.2606(2) 1.2098(4) 0.17759(16)
H23 H 0.2759 1.2576 0.1487
C20 C 0.1966(2) 1.1334(4) 0.17347(16)
H24 H 0.1688 1.1300 0.1422
Ho1G Ho 0.401456(9) 1.259771(13) 0.363051(7)
O8G O 0.17892(15) 0.6520(2) 0.31297(10)
loop_
_geom_bond_atom_site_label_1
_geom_bond_atom_site_label_2
_geom_bond_site_symmetry_1
_geom_bond_site_symmetry_2
C1 H1 1_555 1_555
C2 C1 1_555 1_555
C3 H2 1_555 1_555
C4 C2 1_555 1_555
Ho1 O1 1_555 1_555
O1 N3 1_555 1_555
N1 Ho1 1_555 1_555
O2 Ho1 1_555 1_555
N2 N1 1_555 1_555
H3 N2 1_555 1_555
C5 C2 1_555 1_555
C6 C7 1_555 1_555
O3 Ho1 1_555 1_555
C7 C9 1_555 1_555
C8 N1 1_555 1_555
H4 C8 1_555 1_555
C9 H5 1_555 1_555
O4 Ho1 1_555 1_555
N3 O3 1_555 1_555
C10 C9 1_555 1_555
H6 C10 1_555 1_555
C11 C10 1_555 1_555
H7 C11 1_555 1_555
C12 C6 1_555 1_555
H8 C12 1_555 1_555
O5 N3 1_555 1_555
O6 Ho1 1_555 1_555
O7 Ho1 1_555 1_555
C13 O6 1_555 1_555
H9 C13 1_555 1_555
N4 C13 1_555 1_555
C14 N4 1_555 1_555
H10 C14 1_555 1_555
H11 C14 1_555 1_555
H12 C14 1_555 1_555
C15 N4 1_555 1_555
H13 C15 1_555 1_555
H14 C15 1_555 1_555
H15 C15 1_555 1_555
O8 C4 1_555 1_555
N5 C16 1_555 1_555
C16 O7 1_555 1_555
H16 C16 1_555 1_555
C17 N5 1_555 1_555
H17 C17 1_555 1_555
H18 C17 1_555 1_555
H19 C17 1_555 1_555
C18 N5 1_555 1_555
H20 C18 1_555 1_555
H21 C18 1_555 1_555
H22 C18 1_555 1_555
C19 C3 1_555 1_555
H23 C19 1_555 1_555
C20 C1 1_555 1_555
H24 C20 1_555 1_555
Ho1G O8 1_555 1_555
O8G Ho1 1_555 1_555
C3 C4 1_555 1_555
O2 C5 1_555 1_555
N2 C5 1_555 1_555
C6 C8 1_555 1_555
C7 O4 1_555 1_555
C11 C12 1_555 1_555
C19 C20 1_555 1_555

#END
