
#######################################################################
#
#                 Cambridge Crystallographic Data Centre
#                                CCDC 
#
#######################################################################
#
# If this CIF has been generated from an entry in the Cambridge 
# Structural Database, then it will include bibliographic, chemical, 
# crystal, experimental, refinement or atomic coordinate data resulting 
# from the CCDC's data processing and validation procedures.
#
#######################################################################

data_WOZBEU
_symmetry_cell_setting           orthorhombic
_symmetry_space_group_name_H-M   'P b c a'
_symmetry_Int_Tables_number      61
_space_group_name_Hall           '-P 2ac 2ab'
loop_
_symmetry_equiv_pos_site_id
_symmetry_equiv_pos_as_xyz
1 x,y,z
2 1/2-x,-y,1/2+z
3 -x,1/2+y,1/2-z
4 1/2+x,1/2-y,-z
5 -x,-y,-z
6 1/2+x,y,1/2-z
7 x,1/2-y,1/2+z
8 1/2-x,1/2+y,z
_cell_length_a                   17.4707(14)
_cell_length_b                   10.7118(9)
_cell_length_c                   25.398(2)
_cell_angle_alpha                90
_cell_angle_beta                 90
_cell_angle_gamma                90
_cell_volume                     4753.05
loop_
_atom_site_label
_atom_site_type_symbol
_atom_site_fract_x
_atom_site_fract_y
_atom_site_fract_z
Er1 Er 0.600267(18) 0.24054(3) 0.364564(14)
O1 O 0.5527(3) 0.4565(5) 0.3670(2)
N1 N 0.7185(3) 0.1193(5) 0.3873(2)
O2 O 0.6313(3) 0.0823(5) 0.3046(2)
N2 N 0.7361(3) 0.0272(6) 0.3502(2)
H1 H 0.7842 0.0440 0.3381
C1 C 0.7623(4) 0.2175(7) 0.4683(3)
C2 C 0.7010(5) 0.3831(7) 0.5165(3)
H2 H 0.6605 0.4385 0.5208
C3 C 0.7590(5) -0.2085(8) 0.1792(3)
H3 H 0.7735 -0.2568 0.1505
C4 C 0.7023(5) 0.3053(7) 0.4721(3)
O3 O 0.4852(3) 0.3220(6) 0.4094(2)
O4 O 0.6478(3) 0.3136(5) 0.4370(2)
C5 C 0.7803(4) -0.1454(7) 0.2696(3)
O5 O 0.5414(4) 0.0680(5) 0.4014(3)
C6 C 0.7160(4) -0.0653(7) 0.2653(3)
C7 C 0.7675(4) 0.1280(7) 0.4250(3)
H4 H 0.8090 0.0737 0.4247
C8 C 0.8007(4) -0.2154(7) 0.2249(3)
H5 H 0.8433 -0.2674 0.2264
N3 N 0.4952(4) 0.4333(7) 0.3958(3)
C9 C 0.7574(5) 0.3796(8) 0.5533(3)
H6 H 0.7553 0.4337 0.5819
C10 C 0.6905(5) 0.0196(7) 0.3077(3)
C11 C 0.6960(5) -0.1312(7) 0.1752(3)
H7 H 0.6685 -0.1267 0.1439
O6 O 0.4518(4) 0.5166(7) 0.4090(3)
O7 O 0.5046(4) 0.2407(7) 0.3023(3)
C12 C 0.8181(5) 0.2964(7) 0.5489(3)
H8 H 0.8569 0.2953 0.5739
C13 C 0.6746(4) -0.0614(7) 0.2179(3)
H9 H 0.6317 -0.0102 0.2154
C14 C 0.8195(5) 0.2158(7) 0.5068(3)
H10 H 0.8594 0.1587 0.5039
N4 N 0.4396(4) 0.2132(6) 0.2273(3)
N5 N 0.4802(5) -0.0989(7) 0.4339(3)
C15 C 0.3977(5) 0.1077(8) 0.2465(4)
H11 H 0.4167 0.0847 0.2806
H12 H 0.4038 0.0389 0.2227
H13 H 0.3444 0.1288 0.2492
C16 C 0.4882(4) 0.2696(8) 0.2573(4)
H14 H 0.5131 0.3388 0.2432
H15 H 0.5670 -0.0226 0.4466
C17 C 0.4106(4) -0.1088(8) 0.4077(4)
H16 H 0.4022 -0.0353 0.3869
H17 H 0.3701 -0.1174 0.4330
H18 H 0.4114 -0.1808 0.3852
O8 O 0.8213(3) -0.1515(4) 0.31382(19)
C18 C 0.4217(7) 0.2546(9) 0.1744(4)
H19 H 0.4493 0.3301 0.1670
H20 H 0.3678 0.2700 0.1716
H21 H 0.4363 0.1913 0.1497
C19 C 0.4917(6) -0.1947(9) 0.4702(4)
H22 H 0.5414 -0.1861 0.4858
H23 H 0.4883 -0.2739 0.4526
H24 H 0.4533 -0.1902 0.4971
C20 C 0.5264 -0.0102 0.4234
Er1G Er 0.899733(18) -0.25946(3) 0.364564(14)
O8G O 0.6787(3) 0.3485(4) 0.31382(19)
loop_
_geom_bond_atom_site_label_1
_geom_bond_atom_site_label_2
_geom_bond_site_symmetry_1
_geom_bond_site_symmetry_2
Er1 O1 1_555 1_555
O1 N3 1_555 1_555
N1 Er1 1_555 1_555
O2 Er1 1_555 1_555
N2 N1 1_555 1_555
H1 N2 1_555 1_555
C1 C4 1_555 1_555
C2 H2 1_555 1_555
C3 H3 1_555 1_555
C4 C2 1_555 1_555
O3 Er1 1_555 1_555
O4 Er1 1_555 1_555
C5 C6 1_555 1_555
O5 Er1 1_555 1_555
C6 C10 1_555 1_555
C7 N1 1_555 1_555
H4 C7 1_555 1_555
C8 C3 1_555 1_555
H5 C8 1_555 1_555
N3 O3 1_555 1_555
C9 C2 1_555 1_555
H6 C9 1_555 1_555
C10 O2 1_555 1_555
C11 C3 1_555 1_555
H7 C11 1_555 1_555
O6 N3 1_555 1_555
O7 Er1 1_555 1_555
C12 C9 1_555 1_555
H8 C12 1_555 1_555
C13 C6 1_555 1_555
H9 C13 1_555 1_555
C14 C1 1_555 1_555
H10 C14 1_555 1_555
N4 C15 1_555 1_555
N5 C17 1_555 1_555
C15 H11 1_555 1_555
H12 C15 1_555 1_555
H13 C15 1_555 1_555
C16 O7 1_555 1_555
H14 C16 1_555 1_555
H15 C20 1_555 1_555
C17 H16 1_555 1_555
H17 C17 1_555 1_555
H18 C17 1_555 1_555
O8 C5 1_555 1_555
C18 N4 1_555 1_555
H19 C18 1_555 1_555
H20 C18 1_555 1_555
H21 C18 1_555 1_555
C19 N5 1_555 1_555
H22 C19 1_555 1_555
H23 C19 1_555 1_555
H24 C19 1_555 1_555
C20 O5 1_555 1_555
Er1G O8 1_555 1_555
O8G Er1 1_555 1_555
N2 C10 1_555 1_555
C1 C7 1_555 1_555
C4 O4 1_555 1_555
C5 C8 1_555 1_555
C11 C13 1_555 1_555
C12 C14 1_555 1_555
N4 C16 1_555 1_555
N5 C20 1_555 1_555

#END
