
#######################################################################
#
#                 Cambridge Crystallographic Data Centre
#                                CCDC 
#
#######################################################################
#
# If this CIF has been generated from an entry in the Cambridge 
# Structural Database, then it will include bibliographic, chemical, 
# crystal, experimental, refinement or atomic coordinate data resulting 
# from the CCDC's data processing and validation procedures.
#
#######################################################################

data_WOZDAS
_symmetry_cell_setting           monoclinic
_symmetry_space_group_name_H-M   'P 21/n'
_symmetry_Int_Tables_number      14
_space_group_name_Hall           '-P 2yn'
loop_
_symmetry_equiv_pos_site_id
_symmetry_equiv_pos_as_xyz
1 x,y,z
2 1/2-x,1/2+y,1/2-z
3 -x,-y,-z
4 1/2+x,1/2-y,1/2+z
_cell_length_a                   11.8298(15)
_cell_length_b                   10.2009(10)
_cell_length_c                   17.0420(15)
_cell_angle_alpha                90
_cell_angle_beta                 95.150(5)
_cell_angle_gamma                90
_cell_volume                     2048.23
loop_
_atom_site_label
_atom_site_type_symbol
_atom_site_fract_x
_atom_site_fract_y
_atom_site_fract_z
Eu1 Eu 0.893714(11) 1.858408(13) 0.024322(8)
O1 O 0.9424(2) 2.6319(2) 0.05239(16)
O2 O 0.8272(2) 2.7235(2) 0.13156(14)
C1 C 0.7041(4) 2.3638(3) 0.2005(2)
H1 H 0.6528 2.3591 0.2387
O3 O 0.9278(3) 2.1303(2) 0.02585(17)
C2 C 0.8628(3) 2.3774(3) 0.0885(2)
H2 H 0.9168 2.3815 0.0521
O4 O 0.5173(2) 1.5876(3) -0.36325(14)
C3 C 0.6303(3) 1.6217(3) -0.21356(19)
H3 H 0.5700 1.6776 -0.2283
O5 O 0.7265(2) 1.7640(2) -0.02456(14)
C4 C 0.8138(3) 2.2571(3) 0.10637(19)
C5 C 0.7334(3) 2.2517(3) 0.1611(2)
H4 H 0.6990 2.1723 0.1712
O6 O 0.7887(2) 2.0313(2) 0.07834(18)
C6 C 0.8457(3) 2.1327(3) 0.0678(2)
O7 O 0.5709(3) 1.8066(4) -0.1029(2)
C7 C 0.7520(3) 2.4831(3) 0.1826(2)
H5 H 0.7320 2.5586 0.2086
C8 C 0.6902(3) 1.6341(3) -0.1396(2)
C9 C 0.7778(3) 1.5479(4) -0.1168(2)
H6 H 0.8175 1.5565 -0.0674
C10 C 0.6021(3) 1.5154(3) -0.34701(19)
C11 C 0.8706(3) 2.6235(3) 0.10294(19)
C12 C 0.6582(3) 1.7442(3) -0.0855(2)
C13 C 0.7493(3) 1.4382(4) -0.2416(2)
H7 H 0.7694 1.3731 -0.2759
C14 C 0.6616(3) 1.5249(3) -0.26524(18)
C15 C 0.8065(3) 1.4487(4) -0.1674(2)
H8 H 0.8639 1.3897 -0.1514
C16 C 0.8296(3) 2.4909(3) 0.12597(19)
O8 O 0.6423(2) 1.4356(3) -0.39343(15)
Eu1_2 Eu 0.893714(11) 2.858408(13) 0.024322(8)
Eu1A Eu 0.606286(11) 1.358408(13) -0.524322(8)
Eu1B Eu 1.106286(11) 2.141592(13) -0.024322(8)
Eu1C Eu 0.393714(11) 1.641592(13) -0.475678(8)
O1_2 O 0.9424(2) 1.6319(2) 0.05239(16)
O2_2 O 0.8272(2) 1.7235(2) 0.13156(14)
O3B O 1.0722(3) 1.8697(2) -0.02585(17)
O4C O 1.0173(2) 1.9124(3) 0.13675(14)
O8A O 0.8577(2) 1.9356(3) -0.10657(15)
N1 N 0.5229(3) 1.1859(4) -0.1222(2)
C17 C 0.6293(6) 1.1475(7) -0.0772(6)
H9 H 0.6204 1.1533 -0.0218
H10 H 0.6892 1.2050 -0.0900
H11 H 0.6479 1.0590 -0.0902
C18 C 0.4951(7) 1.3217(6) -0.1034(6)
H12 H 0.4855 1.3287 -0.0482
H13 H 0.4260 1.3469 -0.1335
H14 H 0.5555 1.3785 -0.1162
C19 C 0.5384(8) 1.1750(11) -0.2077(5)
H15 H 0.5987 1.2321 -0.2203
H16 H 0.4694 1.1996 -0.2380
H17 H 0.5572 1.0861 -0.2198
C20 C 0.4299(4) 1.0978(6) -0.1036(4)
H18 H 0.4200 1.1033 -0.0484
H19 H 0.4482 1.0093 -0.1167
H20 H 0.3609 1.1236 -0.1336
loop_
_geom_bond_atom_site_label_1
_geom_bond_atom_site_label_2
_geom_bond_site_symmetry_1
_geom_bond_site_symmetry_2
Eu1 O3 1_555 1_555
O1 C11 1_555 1_555
O2 C11 1_555 1_555
C1 H1 1_555 1_555
O3 C6 1_555 1_555
C2 H2 1_555 1_555
O4 C10 1_555 1_555
C3 H3 1_555 1_555
O5 Eu1 1_555 1_555
C4 C2 1_555 1_555
C5 C1 1_555 1_555
H4 C5 1_555 1_555
O6 Eu1 1_555 1_555
C6 C4 1_555 1_555
O7 C12 1_555 1_555
C7 C1 1_555 1_555
H5 C7 1_555 1_555
C8 C3 1_555 1_555
C9 C8 1_555 1_555
H6 C9 1_555 1_555
C10 C14 1_555 1_555
C11 C16 1_555 1_555
C12 O5 1_555 1_555
C13 H7 1_555 1_555
C14 C3 1_555 1_555
C15 C9 1_555 1_555
H8 C15 1_555 1_555
C16 C2 1_555 1_555
O8 C10 1_555 1_555
N1 C17 1_555 1_555
C17 H9 1_555 1_555
H10 C17 1_555 1_555
H11 C17 1_555 1_555
C18 N1 1_555 1_555
H12 C18 1_555 1_555
H13 C18 1_555 1_555
H14 C18 1_555 1_555
C19 N1 1_555 1_555
H15 C19 1_555 1_555
H16 C19 1_555 1_555
H17 C19 1_555 1_555
C20 N1 1_555 1_555
H18 C20 1_555 1_555
H19 C20 1_555 1_555
H20 C20 1_555 1_555
Eu1_2 O1 1_555 1_555
Eu1A O8 1_555 1_555
Eu1B O3 1_555 1_555
Eu1C O4 1_555 1_555
O1_2 Eu1 1_555 1_555
O2_2 Eu1 1_555 1_555
O3B Eu1 1_555 1_555
O4C Eu1 1_555 1_555
O8A Eu1 1_555 1_555
O2 Eu1_2 1_555 1_555
C4 C5 1_555 1_555
O6 C6 1_555 1_555
C7 C16 1_555 1_555
C8 C12 1_555 1_555
C13 C14 1_555 1_555
C13 C15 1_555 1_555
Eu1B O3B 1_555 1_555

#END
