
#######################################################################
#
#                 Cambridge Crystallographic Data Centre
#                                CCDC 
#
#######################################################################
#
# If this CIF has been generated from an entry in the Cambridge 
# Structural Database, then it will include bibliographic, chemical, 
# crystal, experimental, refinement or atomic coordinate data resulting 
# from the CCDC's data processing and validation procedures.
#
#######################################################################

data_WOZDEW
_symmetry_cell_setting           orthorhombic
_symmetry_space_group_name_H-M   'P c c n'
_symmetry_Int_Tables_number      56
_space_group_name_Hall           '-P 2ab 2ac'
loop_
_symmetry_equiv_pos_site_id
_symmetry_equiv_pos_as_xyz
1 x,y,z
2 1/2-x,1/2-y,z
3 -x,1/2+y,1/2-z
4 1/2+x,-y,1/2-z
5 -x,-y,-z
6 1/2+x,1/2+y,-z
7 x,1/2-y,1/2+z
8 1/2-x,y,1/2+z
_cell_length_a                   17.932(3)
_cell_length_b                   19.514(3)
_cell_length_c                   10.1397(16)
_cell_angle_alpha                90
_cell_angle_beta                 90
_cell_angle_gamma                90
_cell_volume                     3548.14
loop_
_atom_site_label
_atom_site_type_symbol
_atom_site_fract_x
_atom_site_fract_y
_atom_site_fract_z
Eu1 Eu 0.077912(18) 0.742684(18) 0.34499(3)
Eu2 Eu -0.2500 0.7500 0.28791(4)
Cl1 Cl 0.2500 0.7500 0.3340(7)
O1 O 0.2229(3) 1.1523(3) 0.3438(5)
C1 C -0.0768(3) 0.5825(4) 0.3435(6)
O2 O -0.0379(3) 0.6912(2) 0.2617(5)
O3 O 0.1971(3) 1.1832(2) 0.5493(5)
O4 O -0.1379(3) 0.7920(3) 0.1721(5)
H1 H -0.1523 0.8257 0.1080
H2 H -0.1138 0.7544 0.1286
O5 O -0.1403(3) 0.6871(2) 0.3849(5)
O6 O -0.0573(4) 0.3416(3) 0.5018(5)
C2 C 0.1530(4) 0.9805(4) 0.6525(6)
H3 H 0.1319 0.9682 0.7206
O7 O -0.0276(3) 0.7961(3) 0.4708(5)
H4 H -0.0740 0.7776 0.4400
H5 H -0.0272 0.8448 0.4573
O8 O -0.0321(3) 0.3290(3) 0.2900(5)
C3 C 0.1796(4) 0.9473(3) 0.4296(7)
H6 H 0.1834 0.9134 0.3656
C4 C 0.2052(3) 1.1386(3) 0.4601(6)
C5 C -0.0596(3) 0.4411(3) 0.3689(6)
C6 C 0.1567(3) 0.9305(3) 0.5568(6)
C7 C 0.1693(4) 1.0478(3) 0.6220(6)
H7 H 0.1663 1.0814 0.6868
O9 O 0.1253(4) 0.8171(3) 0.4982(7)
C8 C -0.1126(4) 0.5474(3) 0.4439(7)
H8 H -0.1433 0.5712 0.5020
C9 C -0.0331(4) 0.5454(3) 0.2539(7)
H9 H -0.0088 0.5682 0.1859
C10 C -0.0258(4) 0.4746(3) 0.2663(7)
H10 H 0.0019 0.4501 0.2047
C11 C 0.1904(3) 1.0653(3) 0.4951(6)
C12 C 0.1969(4) 1.0143(3) 0.3995(6)
H11 H 0.2130 1.0255 0.3151
C13 C -0.0856(3) 0.6586(4) 0.3291(6)
C14 C -0.1032(4) 0.4772(3) 0.4592(7)
H12 H -0.1260 0.4544 0.5290
C15 C 0.1324(4) 0.8588(3) 0.5894(8)
C16 C -0.0488(3) 0.3651(3) 0.3866(6)
O10 O 0.1899(4) 0.7934(4) 0.2285(8)
O11 O 0.2019(3) 0.6985(3) 0.4303(9)
O12 O 0.1175(4) 0.8444(3) 0.7047(7)
O10A O 0.3101(4) 0.7066(4) 0.2285(8)
O11A O 0.2981(3) 0.8015(3) 0.4303(9)
Eu1A Eu -0.577912(18) 0.757316(18) 0.34499(3)
O1A O -0.7229(3) 0.3477(3) 0.3438(5)
C1A C -0.4232(3) 0.9175(4) 0.3435(6)
O2A O -0.4621(3) 0.8088(2) 0.2617(5)
O3A O -0.6971(3) 0.3168(2) 0.5493(5)
O4A O -0.3621(3) 0.7080(3) 0.1721(5)
H1A H -0.3477 0.6743 0.1080
H2A H -0.3862 0.7456 0.1286
O5A O -0.3597(3) 0.8129(2) 0.3849(5)
O6A O -0.4427(4) 1.1584(3) 0.5018(5)
C2A C -0.6530(4) 0.5195(4) 0.6525(6)
H3A H -0.6319 0.5318 0.7206
O7A O -0.4724(3) 0.7039(3) 0.4708(5)
H4A H -0.4260 0.7224 0.4400
H5A H -0.4728 0.6552 0.4573
O8A O -0.4679(3) 1.1710(3) 0.2900(5)
C3A C -0.6796(4) 0.5527(3) 0.4296(7)
H6A H -0.6834 0.5866 0.3656
C4A C -0.7052(3) 0.3614(3) 0.4601(6)
C5A C -0.4404(3) 1.0589(3) 0.3689(6)
C6A C -0.6567(3) 0.5695(3) 0.5568(6)
C7A C -0.6693(4) 0.4522(3) 0.6220(6)
H7A H -0.6663 0.4186 0.6868
O9A O -0.6253(4) 0.6829(3) 0.4982(7)
C8A C -0.3874(4) 0.9526(3) 0.4439(7)
H8A H -0.3567 0.9288 0.5020
C9A C -0.4669(4) 0.9546(3) 0.2539(7)
H9A H -0.4912 0.9318 0.1859
C10A C -0.4742(4) 1.0254(3) 0.2663(7)
H10A H -0.5019 1.0499 0.2047
C11A C -0.6904(3) 0.4347(3) 0.4951(6)
C12A C -0.6969(4) 0.4857(3) 0.3995(6)
H11A H -0.7130 0.4745 0.3151
C13A C -0.4144(3) 0.8414(4) 0.3291(6)
C14A C -0.3968(4) 1.0228(3) 0.4592(7)
H12A H -0.3740 1.0456 0.5290
C15A C -0.6324(4) 0.6412(3) 0.5894(8)
C16A C -0.4512(3) 1.1349(3) 0.3866(6)
O12A O -0.6175(4) 0.6556(3) 0.7047(7)
Eu1A_2 Eu 0.422088(18) 0.757316(18) 0.34499(3)
Eu1B Eu -0.077912(18) 0.242684(18) 0.15501(3)
Eu1C Eu -0.422088(18) 1.257316(18) 0.15501(3)
Eu1D Eu -0.077912(18) 0.257316(18) 0.65501(3)
Eu1E Eu -0.422088(18) 1.242684(18) 0.65501(3)
Eu1F Eu 0.077912(18) 0.757316(18) 0.84499(3)
Eu1G Eu -0.577912(18) 0.742684(18) 0.84499(3)
Eu2B Eu -0.7500 0.2500 0.21209(4)
Eu2B_2 Eu 0.2500 1.2500 0.21209(4)
Eu2D Eu -0.7500 0.2500 0.71209(4)
Eu2D_2 Eu 0.2500 1.2500 0.71209(4)
O1B O -0.2229(3) 0.6523(3) 0.1562(5)
O1C O -0.2771(3) 0.8477(3) 0.1562(5)
O3D O -0.1971(3) 0.8168(2) 0.4507(5)
O3E O -0.3029(3) 0.6832(2) 0.4507(5)
O6D O 0.0573(4) 0.6584(3) 0.4982(5)
O6E O -0.5573(4) 0.8416(3) 0.4982(5)
O8B O 0.0321(3) 0.8290(3) 0.2100(5)
O8C O -0.5321(3) 0.6710(3) 0.2100(5)
O10A_2 O -0.6899(4) 0.7066(4) 0.2285(8)
O11A_2 O -0.7019(3) 0.8015(3) 0.4303(9)
O12F O 0.1175(4) 0.6556(3) 0.2047(7)
O12G O -0.6175(4) 0.8444(3) 0.2047(7)
loop_
_geom_bond_atom_site_label_1
_geom_bond_atom_site_label_2
_geom_bond_site_symmetry_1
_geom_bond_site_symmetry_2
Eu1 O2 1_555 1_555
Eu2 O4 1_555 1_555
Cl1 O10 1_555 1_555
O1 C4 1_555 1_555
C1 C8 1_555 1_555
O2 C13 1_555 1_555
O3 C4 1_555 1_555
O4 H1 1_555 1_555
H2 O4 1_555 1_555
O5 Eu2 1_555 1_555
O6 C16 1_555 1_555
C2 H3 1_555 1_555
O7 Eu1 1_555 1_555
H4 O7 1_555 1_555
H5 O7 1_555 1_555
O8 C16 1_555 1_555
C3 H6 1_555 1_555
C4 C11 1_555 1_555
C5 C10 1_555 1_555
C6 C2 1_555 1_555
C7 C2 1_555 1_555
H7 C7 1_555 1_555
O9 Eu1 1_555 1_555
C8 H8 1_555 1_555
C9 C1 1_555 1_555
H9 C9 1_555 1_555
C10 C9 1_555 1_555
H10 C10 1_555 1_555
C11 C7 1_555 1_555
C12 C3 1_555 1_555
H11 C12 1_555 1_555
C13 C1 1_555 1_555
C14 C5 1_555 1_555
H12 C14 1_555 1_555
C15 C6 1_555 1_555
C16 C5 1_555 1_555
O10 Eu1 1_555 1_555
O11 Eu1 1_555 1_555
O12 C15 1_555 1_555
O10A Cl1 1_555 1_555
O11A Cl1 1_555 1_555
Eu1A O2A 1_555 1_555
O1A C4A 1_555 1_555
C1A C8A 1_555 1_555
O2A C13A 1_555 1_555
O3A C4A 1_555 1_555
O4A Eu2 1_555 1_555
H1A O4A 1_555 1_555
H2A O4A 1_555 1_555
O5A Eu2 1_555 1_555
O6A C16A 1_555 1_555
C2A H3A 1_555 1_555
O7A Eu1A 1_555 1_555
H4A O7A 1_555 1_555
H5A O7A 1_555 1_555
O8A C16A 1_555 1_555
C3A H6A 1_555 1_555
C4A C11A 1_555 1_555
C5A C10A 1_555 1_555
C6A C2A 1_555 1_555
C7A C2A 1_555 1_555
H7A C7A 1_555 1_555
O9A Eu1A 1_555 1_555
C8A H8A 1_555 1_555
C9A C1A 1_555 1_555
H9A C9A 1_555 1_555
C10A C9A 1_555 1_555
H10A C10A 1_555 1_555
C11A C7A 1_555 1_555
C12A C3A 1_555 1_555
H11A C12A 1_555 1_555
C13A C1A 1_555 1_555
C14A C5A 1_555 1_555
H12A C14A 1_555 1_555
C15A C6A 1_555 1_555
C16A C5A 1_555 1_555
O12A C15A 1_555 1_555
Eu1A_2 O10A 1_555 1_555
Eu1B O8 1_555 1_555
Eu1C O8A 1_555 1_555
Eu1D O6 1_555 1_555
Eu1E O6A 1_555 1_555
Eu1F O12 1_555 1_555
Eu1G O12A 1_555 1_555
Eu2B O1A 1_555 1_555
Eu2B_2 O1 1_555 1_555
Eu2D O3A 1_555 1_555
Eu2D_2 O3 1_555 1_555
O1B Eu2 1_555 1_555
O1C Eu2 1_555 1_555
O3D Eu2 1_555 1_555
O3E Eu2 1_555 1_555
O6D Eu1 1_555 1_555
O6E Eu1A 1_555 1_555
O8B Eu1 1_555 1_555
O8C Eu1A 1_555 1_555
O10A_2 Eu1A 1_555 1_555
O11A_2 Eu1A 1_555 1_555
O12F Eu1 1_555 1_555
O12G Eu1A 1_555 1_555
Cl1 O11 1_555 1_555
O5 C13 1_555 1_555
C3 C6 1_555 1_555
O9 C15 1_555 1_555
C8 C14 1_555 1_555
C11 C12 1_555 1_555
O11A Eu1A_2 1_555 1_555
O5A C13A 1_555 1_555
C3A C6A 1_555 1_555
O9A C15A 1_555 1_555
C8A C14A 1_555 1_555
C11A C12A 1_555 1_555

#END
