
#######################################################################
#
#                 Cambridge Crystallographic Data Centre
#                                CCDC 
#
#######################################################################
#
# If this CIF has been generated from an entry in the Cambridge 
# Structural Database, then it will include bibliographic, chemical, 
# crystal, experimental, refinement or atomic coordinate data resulting 
# from the CCDC's data processing and validation procedures.
#
#######################################################################

data_WOZGUP
_symmetry_cell_setting           monoclinic
_symmetry_space_group_name_H-M   'C 2/c'
_symmetry_Int_Tables_number      15
_space_group_name_Hall           '-C 2yn'
loop_
_symmetry_equiv_pos_site_id
_symmetry_equiv_pos_as_xyz
1 x,y,z
2 -x,y,1/2-z
3 1/2+x,1/2+y,z
4 1/2-x,1/2+y,1/2-z
5 -x,-y,-z
6 x,-y,1/2+z
7 1/2-x,1/2-y,-z
8 1/2+x,1/2-y,1/2+z
_cell_length_a                   20.429(2)
_cell_length_b                   22.744(2)
_cell_length_c                   21.792(2)
_cell_angle_alpha                90
_cell_angle_beta                 108.783(2)
_cell_angle_gamma                90
_cell_volume                     9586.14
loop_
_atom_site_label
_atom_site_type_symbol
_atom_site_fract_x
_atom_site_fract_y
_atom_site_fract_z
Mo1 Mo 0.90105(5) 0.05654(4) 0.15681(5)
Mo2 Mo 0.91846(5) -0.16363(4) 0.32373(5)
Mo3 Mo 0.81671(5) -0.05528(4) 0.20472(5)
Mo4 Mo 0.91151(6) 0.04424(4) 0.31599(5)
Mo5 Mo 0.96849(6) -0.06456(4) 0.07990(5)
Mo6 Mo 0.90760(5) -0.17660(4) 0.15059(5)
P1 P 1.0000 -0.05977(17) 0.2500
O1 O 0.9926(3) -0.0979(3) 0.1903(3)
O2 O 0.8308(4) 0.0045(3) 0.2759(4)
O3 O 0.9544(4) -0.1235(3) 0.4005(4)
O4 O 0.9108(4) -0.1280(3) 0.0762(3)
O5 O 0.7316(4) -0.0668(3) 0.1889(4)
O6 O 0.9162(4) -0.0096(3) 0.1004(3)
O7 O 0.9928(4) 0.0712(3) 0.1750(3)
O8 O 0.8845(4) 0.0960(3) 0.3560(4)
O9 O 0.8567(4) -0.1078(3) 0.2810(3)
O10 O 0.8180(4) 0.0075(3) 0.1520(3)
O11 O 0.8501(4) -0.2278(3) 0.1126(4)
O12 O 0.9911(4) -0.2072(3) 0.1510(3)
O13 O 0.9368(4) -0.0212(3) 0.2375(3)
O14 O 0.9582(5) -0.0519(3) 0.0022(4)
O15 O 0.8639(4) 0.1083(3) 0.1023(4)
O16 O 0.9519(4) -0.0115(3) 0.3761(3)
O17 O 0.8693(4) -0.2136(3) 0.3440(4)
O18 O 0.8919(4) 0.0891(3) 0.2314(3)
O19 O 0.8439(4) -0.1109(3) 0.1579(3)
O20 O 0.9173(4) -0.1901(3) 0.2368(3)
O1A O 1.0074(3) -0.0979(3) 0.3097(3)
O13A O 1.0632(4) -0.0212(3) 0.2625(3)
Mo1A Mo 1.09895(5) 0.05654(4) 0.34319(5)
Mo2A Mo 1.08154(5) -0.16363(4) 0.17627(5)
Mo3A Mo 1.18329(5) -0.05528(4) 0.29528(5)
Mo4A Mo 1.08849(6) 0.04424(4) 0.18401(5)
Mo5A Mo 1.03151(6) -0.06456(4) 0.42010(5)
Mo6A Mo 1.09240(5) -0.17660(4) 0.34941(5)
O2A O 1.1692(4) 0.0045(3) 0.2241(4)
O3A O 1.0456(4) -0.1235(3) 0.0995(4)
O4A O 1.0892(4) -0.1280(3) 0.4238(3)
O5A O 1.2684(4) -0.0668(3) 0.3111(4)
O6A O 1.0838(4) -0.0096(3) 0.3996(3)
O7A O 1.0072(4) 0.0712(3) 0.3250(3)
O8A O 1.1155(4) 0.0960(3) 0.1440(4)
O9A O 1.1433(4) -0.1078(3) 0.2190(3)
O10A O 1.1820(4) 0.0075(3) 0.3480(3)
O11A O 1.1499(4) -0.2278(3) 0.3874(4)
O12A O 1.0089(4) -0.2072(3) 0.3490(3)
O14A O 1.0418(5) -0.0519(3) 0.4978(4)
O15A O 1.1361(4) 0.1083(3) 0.3977(4)
O16A O 1.0481(4) -0.0115(3) 0.1239(3)
O17A O 1.1307(4) -0.2136(3) 0.1560(4)
O18A O 1.1081(4) 0.0891(3) 0.2686(3)
O19A O 1.1561(4) -0.1109(3) 0.3421(3)
O20A O 1.0827(4) -0.1901(3) 0.2632(3)
Co1 Co 0.7500 0.2500 0.0000
N1 N 0.7722(4) 0.3113(3) -0.0649(4)
C1 C 0.7485(4) 0.3129(4) -0.1298(4)
H1 H 0.7183 0.2851 -0.1573
N2 N 0.7749(4) 0.3607(4) -0.1491(4)
N3 N 0.8149(5) 0.3886(3) -0.0961(5)
C2 C 0.8132(5) 0.3581(4) -0.0441(4)
H2 H 0.8370 0.3678 -0.0001
C3 C 0.7689(8) 0.3846(7) -0.2124(8)
H3 H 0.7488 0.4246 -0.2165
H4 H 0.7374 0.3596 -0.2465
C4 C 0.8386(5) 0.3872(5) -0.2220(5)
C5 C 0.8642(6) 0.3360(5) -0.2404(6)
H5 H 0.8382 0.3006 -0.2460
C6 C 0.9278(6) 0.3365(4) -0.2508(6)
H6 H 0.9453 0.3015 -0.2634
C7 C 0.9657(6) 0.3882(5) -0.2427(6)
C8 C 0.9401(6) 0.4394(4) -0.2242(6)
H7 H 0.9661 0.4747 -0.2187
C9 C 0.8766(6) 0.4389(4) -0.2139(6)
H8 H 0.8590 0.4739 -0.2012
N4 N 0.6371(4) 0.2597(3) -0.0454(4)
C10 C 0.5956(4) 0.2731(3) -0.0099(4)
H9 H 0.6100 0.2783 0.0358
N5 N 0.5301(4) 0.2778(3) -0.0509(4)
N6 N 0.5310(4) 0.2674(3) -0.1118(4)
C11 C 0.5972(4) 0.2562(4) -0.1084(4)
H10 H 0.6129 0.2474 -0.1439
C12 C 0.4687(6) 0.2916(6) -0.0347(7)
H11 H 0.4360 0.3129 -0.0716
H12 H 0.4814 0.3184 0.0031
C13 C 0.4318(5) 0.2376(4) -0.0189(5)
C14 C 0.3626(5) 0.2277(5) -0.0544(5)
H13 H 0.3399 0.2521 -0.0903
C15 C 0.3266(5) 0.1819(5) -0.0370(5)
H14 H 0.2794 0.1752 -0.0612
C16 C 0.3598(5) 0.1461(4) 0.0157(5)
C17 C 0.4290(5) 0.1560(4) 0.0512(5)
H15 H 0.4517 0.1316 0.0871
C18 C 0.4650(5) 0.2018(4) 0.0338(5)
H16 H 0.5122 0.2085 0.0580
N7 N 0.2499(4) -0.1775(3) 0.0647(4)
C19 C 0.2140(4) -0.1274(4) 0.0424(4)
H17 H 0.1858 -0.1201 -0.0010
N8 N 0.2255(4) -0.0896(3) 0.0930(4)
N9 N 0.2684(5) -0.1163(4) 0.1466(4)
C20 C 0.2835(4) -0.1706(4) 0.1291(4)
H18 H 0.3125 -0.1989 0.1570
C21 C 0.1979(7) -0.0320(6) 0.0909(7)
H19 H 0.1506 -0.0311 0.0594
H20 H 0.1949 -0.0218 0.1341
C22 C 0.2422(6) 0.0135(5) 0.0715(6)
C23 C 0.2825(7) 0.0521(5) 0.1177(6)
H21 H 0.2833 0.0493 0.1614
C24 C 0.3217(6) 0.0946(5) 0.0999(6)
H22 H 0.3493 0.1210 0.1315
C25 C 0.3205(6) 0.0986(5) 0.0361(6)
C26 C 0.2801(7) 0.0601(5) -0.0101(5)
H23 H 0.2793 0.0628 -0.0538
C27 C 0.2410(6) 0.0175(5) 0.0077(6)
H24 H 0.2133 -0.0089 -0.0239
N1A N 1.2278(4) 0.3113(3) -0.4351(4)
C1A C 1.2515(4) 0.3129(4) -0.3702(4)
H1A H 1.2817 0.2851 -0.3427
N2A N 1.2251(4) 0.3607(4) -0.3509(4)
N3A N 1.1851(5) 0.3886(3) -0.4039(5)
C2A C 1.1868(5) 0.3581(4) -0.4559(4)
H2A H 1.1630 0.3678 -0.4999
C3A C 1.2311(8) 0.3846(7) -0.2876(8)
H3A H 1.2512 0.4246 -0.2835
H4A H 1.2626 0.3596 -0.2535
C4A C 1.1614(5) 0.3872(5) -0.2780(5)
C5A C 1.1358(6) 0.3360(5) -0.2596(6)
H5A H 1.1618 0.3006 -0.2540
C6A C 1.0722(6) 0.3365(4) -0.2492(6)
H6A H 1.0547 0.3015 -0.2366
C7A C 1.0343(6) 0.3882(5) -0.2573(6)
C8A C 1.0599(6) 0.4394(4) -0.2758(6)
H7A H 1.0339 0.4747 -0.2813
C9A C 1.1234(6) 0.4389(4) -0.2861(6)
H8A H 1.1410 0.4739 -0.2988
N4F N 0.8629(4) 0.2403(3) 0.0454(4)
C10F C 0.9044(4) 0.2269(3) 0.0099(4)
H9F H 0.8900 0.2217 -0.0358
N5F N 0.9699(4) 0.2222(3) 0.0509(4)
N6F N 0.9690(4) 0.2326(3) 0.1118(4)
C11F C 0.9028(4) 0.2438(4) 0.1084(4)
H10F H 0.8871 0.2526 0.1439
C12F C 1.0313(6) 0.2084(6) 0.0347(7)
H11F H 1.0640 0.1871 0.0716
H12F H 1.0186 0.1816 -0.0031
C13F C 1.0682(5) 0.2624(4) 0.0189(5)
C14F C 1.1374(5) 0.2723(5) 0.0544(5)
H13F H 1.1601 0.2479 0.0903
C15F C 1.1734(5) 0.3181(5) 0.0370(5)
H14F H 1.2206 0.3248 0.0612
C16F C 1.1402(5) 0.3539(4) -0.0157(5)
C17F C 1.0710(5) 0.3440(4) -0.0512(5)
H15F H 1.0483 0.3684 -0.0871
C18F C 1.0350(5) 0.2982(4) -0.0338(5)
H16F H 0.9878 0.2915 -0.0580
N7F N 1.2501(4) 0.6775(3) -0.0647(4)
C19F C 1.2860(4) 0.6274(4) -0.0424(4)
H17F H 1.3142 0.6201 0.0010
N8F N 1.2745(4) 0.5896(3) -0.0930(4)
N9F N 1.2316(5) 0.6163(4) -0.1466(4)
C20F C 1.2165(4) 0.6706(4) -0.1291(4)
H18F H 1.1875 0.6989 -0.1570
C21F C 1.3021(7) 0.5320(6) -0.0909(7)
H19F H 1.3494 0.5311 -0.0594
H20F H 1.3051 0.5218 -0.1341
C22F C 1.2578(6) 0.4865(5) -0.0715(6)
C23F C 1.2175(7) 0.4479(5) -0.1177(6)
H21F H 1.2167 0.4507 -0.1614
C24F C 1.1783(6) 0.4054(5) -0.0999(6)
H22F H 1.1507 0.3790 -0.1315
C25F C 1.1795(6) 0.4014(5) -0.0361(6)
C26F C 1.2199(7) 0.4399(5) 0.0101(5)
H23F H 1.2207 0.4372 0.0538
C27F C 1.2590(6) 0.4825(5) -0.0077(6)
H24F H 1.2867 0.5089 0.0239
Co1A Co 1.2500 0.2500 -0.5000
Co1B Co 0.2500 -0.2500 0.0000
Co1B_2 Co 1.2500 0.7500 0.0000
N1F N 0.7278(4) 0.1887(3) 0.0649(4)
N7B N 0.7499(4) 0.3225(3) 0.0647(4)
N7D N 0.7501(4) 0.1775(3) -0.0647(4)
O21 O 0.9107(7) 0.2162(6) 0.2596(6)
loop_
_geom_bond_atom_site_label_1
_geom_bond_atom_site_label_2
_geom_bond_site_symmetry_1
_geom_bond_site_symmetry_2
Mo1 O6 1_555 1_555
Mo2 O3 1_555 1_555
Mo3 O2 1_555 1_555
Mo4 O2 1_555 1_555
Mo5 O1 1_555 1_555
Mo6 O1 1_555 1_555
P1 O1 1_555 1_555
O1 Mo2A 1_555 1_555
O3 Mo5A 1_555 1_555
O4 Mo5 1_555 1_555
O5 Mo3 1_555 1_555
O6 Mo5 1_555 1_555
O7 Mo1 1_555 1_555
O8 Mo4 1_555 1_555
O9 Mo2 1_555 1_555
O10 Mo1 1_555 1_555
O11 Mo6 1_555 1_555
O12 Mo6 1_555 1_555
O13 Mo1 1_555 1_555
O14 Mo5 1_555 1_555
O15 Mo1 1_555 1_555
O16 Mo4 1_555 1_555
O17 Mo2 1_555 1_555
O18 Mo1 1_555 1_555
O19 Mo3 1_555 1_555
O20 Mo2 1_555 1_555
Co1 N1 1_555 1_555
N1 C1 1_555 1_555
C1 H1 1_555 1_555
N2 C1 1_555 1_555
N3 N2 1_555 1_555
C2 N1 1_555 1_555
H2 C2 1_555 1_555
C3 N2 1_555 1_555
H3 C3 1_555 1_555
H4 C3 1_555 1_555
C4 C3 1_555 1_555
C5 C4 1_555 1_555
H5 C5 1_555 1_555
C6 C5 1_555 1_555
H6 C6 1_555 1_555
C7 C6 1_555 1_555
C8 C7 1_555 1_555
H7 C8 1_555 1_555
C9 C4 1_555 1_555
H8 C9 1_555 1_555
N4 Co1 1_555 1_555
C10 N4 1_555 1_555
H9 C10 1_555 1_555
N5 C10 1_555 1_555
N6 N5 1_555 1_555
C11 N4 1_555 1_555
H10 C11 1_555 1_555
C12 N5 1_555 1_555
H11 C12 1_555 1_555
H12 C12 1_555 1_555
C13 C12 1_555 1_555
C14 C13 1_555 1_555
H13 C14 1_555 1_555
C15 C14 1_555 1_555
H14 C15 1_555 1_555
C16 C15 1_555 1_555
C17 C16 1_555 1_555
H15 C17 1_555 1_555
C18 C13 1_555 1_555
H16 C18 1_555 1_555
N7 C19 1_555 1_555
C19 H17 1_555 1_555
N8 C19 1_555 1_555
N9 N8 1_555 1_555
C20 N7 1_555 1_555
H18 C20 1_555 1_555
C21 N8 1_555 1_555
H19 C21 1_555 1_555
H20 C21 1_555 1_555
C22 C21 1_555 1_555
C23 C22 1_555 1_555
H21 C23 1_555 1_555
C24 C23 1_555 1_555
H22 C24 1_555 1_555
C25 C16 1_555 1_555
C26 C25 1_555 1_555
H23 C26 1_555 1_555
C27 C22 1_555 1_555
H24 C27 1_555 1_555
O1A Mo2 1_555 1_555
O13A P1 1_555 1_555
Mo1A O13A 1_555 1_555
Mo2A O12 1_555 1_555
Mo3A O13A 1_555 1_555
Mo4A O7 1_555 1_555
Mo5A O16 1_555 1_555
Mo6A O1A 1_555 1_555
O2A Mo3A 1_555 1_555
O3A Mo5 1_555 1_555
O4A Mo5A 1_555 1_555
O5A Mo3A 1_555 1_555
O6A Mo1A 1_555 1_555
O7A Mo4 1_555 1_555
O8A Mo4A 1_555 1_555
O9A Mo2A 1_555 1_555
O10A Mo1A 1_555 1_555
O11A Mo6A 1_555 1_555
O12A Mo2 1_555 1_555
O14A Mo5A 1_555 1_555
O15A Mo1A 1_555 1_555
O16A Mo5 1_555 1_555
O17A Mo2A 1_555 1_555
O18A Mo1A 1_555 1_555
O19A Mo3A 1_555 1_555
O20A Mo2A 1_555 1_555
N1A C1A 1_555 1_555
C1A H1A 1_555 1_555
N2A C1A 1_555 1_555
N3A N2A 1_555 1_555
C2A N1A 1_555 1_555
H2A C2A 1_555 1_555
C3A N2A 1_555 1_555
H3A C3A 1_555 1_555
H4A C3A 1_555 1_555
C4A C3A 1_555 1_555
C5A C4A 1_555 1_555
H5A C5A 1_555 1_555
C6A C5A 1_555 1_555
H6A C6A 1_555 1_555
C7A C7 1_555 1_555
C8A C7A 1_555 1_555
H7A C8A 1_555 1_555
C9A C4A 1_555 1_555
H8A C9A 1_555 1_555
N4F Co1 1_555 1_555
C10F N4F 1_555 1_555
H9F C10F 1_555 1_555
N5F C10F 1_555 1_555
N6F N5F 1_555 1_555
C11F N4F 1_555 1_555
H10F C11F 1_555 1_555
C12F N5F 1_555 1_555
H11F C12F 1_555 1_555
H12F C12F 1_555 1_555
C13F C12F 1_555 1_555
C14F C13F 1_555 1_555
H13F C14F 1_555 1_555
C15F C14F 1_555 1_555
H14F C15F 1_555 1_555
C16F C15F 1_555 1_555
C17F C16F 1_555 1_555
H15F C17F 1_555 1_555
C18F C13F 1_555 1_555
H16F C18F 1_555 1_555
N7F C19F 1_555 1_555
C19F H17F 1_555 1_555
N8F C19F 1_555 1_555
N9F N8F 1_555 1_555
C20F N7F 1_555 1_555
H18F C20F 1_555 1_555
C21F N8F 1_555 1_555
H19F C21F 1_555 1_555
H20F C21F 1_555 1_555
C22F C21F 1_555 1_555
C23F C22F 1_555 1_555
H21F C23F 1_555 1_555
C24F C23F 1_555 1_555
H22F C24F 1_555 1_555
C25F C16F 1_555 1_555
C26F C25F 1_555 1_555
H23F C26F 1_555 1_555
C27F C22F 1_555 1_555
H24F C27F 1_555 1_555
Co1A N1A 1_555 1_555
Co1B N7 1_555 1_555
Co1B_2 N7F 1_555 1_555
N1F Co1 1_555 1_555
N7B Co1 1_555 1_555
N7D Co1 1_555 1_555
Mo3 O9 1_555 1_555
Mo3 O10 1_555 1_555
Mo3 O13 1_555 1_555
Mo4 O13 1_555 1_555
Mo4 O18 1_555 1_555
Mo6 O4 1_555 1_555
Mo6 O19 1_555 1_555
Mo6 O20 1_555 1_555
P1 O13 1_555 1_555
P1 O1A 1_555 1_555
N3 C2 1_555 1_555
C8 C9 1_555 1_555
N6 C11 1_555 1_555
C17 C18 1_555 1_555
N9 C20 1_555 1_555
C24 C25 1_555 1_555
C26 C27 1_555 1_555
O1A Mo5A 1_555 1_555
O13A Mo4A 1_555 1_555
Mo1A O7A 1_555 1_555
Mo2A O3A 1_555 1_555
Mo3A O9A 1_555 1_555
Mo3A O10A 1_555 1_555
Mo4A O2A 1_555 1_555
Mo4A O16A 1_555 1_555
Mo4A O18A 1_555 1_555
Mo5A O6A 1_555 1_555
Mo6A O4A 1_555 1_555
Mo6A O12A 1_555 1_555
Mo6A O19A 1_555 1_555
Mo6A O20A 1_555 1_555
N3A C2A 1_555 1_555
C6A C7A 1_555 1_555
C8A C9A 1_555 1_555
N6F C11F 1_555 1_555
C17F C18F 1_555 1_555
N9F C20F 1_555 1_555
C24F C25F 1_555 1_555
C26F C27F 1_555 1_555

#END
