
#######################################################################
#
#                 Cambridge Crystallographic Data Centre
#                                CCDC 
#
#######################################################################
#
# If this CIF has been generated from an entry in the Cambridge 
# Structural Database, then it will include bibliographic, chemical, 
# crystal, experimental, refinement or atomic coordinate data resulting 
# from the CCDC's data processing and validation procedures.
#
#######################################################################

data_WOZKOL
_symmetry_cell_setting           monoclinic
_symmetry_space_group_name_H-M   'P 21/a'
_symmetry_Int_Tables_number      14
_space_group_name_Hall           '-P 2yab'
loop_
_symmetry_equiv_pos_site_id
_symmetry_equiv_pos_as_xyz
1 x,y,z
2 1/2+x,1/2-y,z
3 -x,-y,-z
4 1/2-x,1/2+y,-z
_cell_length_a                   5.1564(10)
_cell_length_b                   10.7578(15)
_cell_length_c                   8.982(2)
_cell_angle_alpha                90
_cell_angle_beta                 96.715(15)
_cell_angle_gamma                90
_cell_volume                     494.827
loop_
_atom_site_label
_atom_site_type_symbol
_atom_site_fract_x
_atom_site_fract_y
_atom_site_fract_z
Co1 Co 1.0000 0.5000 1.0000
C1 C 0.7469(3) 0.44683(15) 0.68731(15)
O1 O 0.9185(3) 0.37055(12) 0.66624(12)
O2 O 0.7158(2) 0.49678(11) 0.81164(10)
C2 C 0.5666(3) 0.48487(14) 0.5562(2)
O3 O 0.8155(2) 0.66360(11) 1.06073(13)
H1 H 0.8766(43) 0.6779(19) 1.1466(27)
H2 H 0.8292(45) 0.7232(21) 1.0205(26)
O4 O 1.2513(2) 0.60502(11) 0.87935(12)
H3 H 1.1846(45) 0.6270(19) 0.7991(26)
H4 H 1.3793(45) 0.5733(21) 0.8648(24)
C2B C 0.4334(3) 0.51513(14) 0.4438(2)
C1B C 0.2531(3) 0.55317(15) 0.31269(15)
O1B O 0.0815(3) 0.62945(12) 0.33376(12)
O2B O 0.2842(2) 0.50322(11) 0.18836(10)
O3B O 1.1845(2) 0.33640(11) 0.93927(13)
H1B H 1.1234(43) 0.3221(19) 0.8534(27)
H2B H 1.1708(45) 0.2768(21) 0.9795(26)
O4B O 0.7487(2) 0.39498(11) 1.12065(12)
H3B H 0.8154(45) 0.3730(19) 1.2009(26)
H4B H 0.6207(45) 0.4267(21) 1.1352(24)
O2B_2 O 1.2842(2) 0.50322(11) 1.18836(10)
Co1_2 Co 0.0000 0.5000 0.0000
O5 O 1.0255(3) 0.69425(12) 0.61906(13)
H5 H 1.0296(42) 0.6723(20) 0.5367(27)
H6 H 0.8854(48) 0.7214(21) 0.6229(24)
loop_
_geom_bond_atom_site_label_1
_geom_bond_atom_site_label_2
_geom_bond_site_symmetry_1
_geom_bond_site_symmetry_2
Co1 O2 1_555 1_555
C1 O1 1_555 1_555
O2 C1 1_555 1_555
C2 C1 1_555 1_555
O3 Co1 1_555 1_555
H1 O3 1_555 1_555
H2 O3 1_555 1_555
O4 Co1 1_555 1_555
H3 O4 1_555 1_555
H4 O4 1_555 1_555
O5 H5 1_555 1_555
H6 O5 1_555 1_555
C2B C2 1_555 1_555
C1B C2B 1_555 1_555
O1B C1B 1_555 1_555
O2B C1B 1_555 1_555
O3B Co1 1_555 1_555
H1B O3B 1_555 1_555
H2B O3B 1_555 1_555
O4B Co1 1_555 1_555
H3B O4B 1_555 1_555
H4B O4B 1_555 1_555
O2B_2 Co1 1_555 1_555
Co1_2 O2B 1_555 1_555

#END
