
#######################################################################
#
#                 Cambridge Crystallographic Data Centre
#                                CCDC 
#
#######################################################################
#
# If this CIF has been generated from an entry in the Cambridge 
# Structural Database, then it will include bibliographic, chemical, 
# crystal, experimental, refinement or atomic coordinate data resulting 
# from the CCDC's data processing and validation procedures.
#
#######################################################################

data_WOZNEG
_symmetry_cell_setting           monoclinic
_symmetry_space_group_name_H-M   'C 2/c'
_symmetry_Int_Tables_number      15
_space_group_name_Hall           '-C 2yn'
loop_
_symmetry_equiv_pos_site_id
_symmetry_equiv_pos_as_xyz
1 x,y,z
2 -x,y,1/2-z
3 1/2+x,1/2+y,z
4 1/2-x,1/2+y,1/2-z
5 -x,-y,-z
6 x,-y,1/2+z
7 1/2-x,1/2-y,-z
8 1/2+x,1/2-y,1/2+z
_cell_length_a                   28.669(19)
_cell_length_b                   10.270(7)
_cell_length_c                   14.060(9)
_cell_angle_alpha                90
_cell_angle_beta                 116.469(10)
_cell_angle_gamma                90
_cell_volume                     3705.75
loop_
_atom_site_label
_atom_site_type_symbol
_atom_site_fract_x
_atom_site_fract_y
_atom_site_fract_z
Cu1 Cu 0.13611(3) 0.84355(6) 0.27142(6)
N1 N 0.20995(18) 0.9071(5) 0.3515(4)
N2 N 0.17346(18) 0.6794(4) 0.2948(4)
N3 N 0.07546(18) 0.7151(4) 0.2109(4)
O1 O 0.11213(17) 0.9134(4) 0.1173(3)
O2 O 0.16612(18) 0.8177(5) 0.0701(4)
O3 O 0.10387(15) 1.0058(4) -0.1970(3)
O4 O 0.11340(17) 1.1129(4) -0.0531(3)
C1 C 0.1252(2) 0.8702(5) 0.0510(5)
C2 C 0.0861(2) 0.8896(5) -0.0679(4)
C3 C 0.0310(2) 0.9134(7) -0.0799(5)
H1 H 0.0196 0.8383 -0.0554
H2 H 0.0078 0.9288 -0.1533
H3 H 0.0312 0.9879 -0.0386
C4 C 0.0865(2) 0.7692(5) -0.1323(5)
H4 H 0.0760 0.6941 -0.1060
H5 H 0.1211 0.7560 -0.1254
H6 H 0.0628 0.7823 -0.2058
C5 C 0.1028(2) 1.0134(5) -0.1069(5)
C6 C 0.2258(3) 1.0309(6) 0.3777(5)
H7 H 0.2009 1.0966 0.3585
C7 C 0.2770(3) 1.0631(7) 0.4313(5)
H8 H 0.2867 1.1495 0.4486
C8 C 0.3142(3) 0.9677(7) 0.4597(5)
H9 H 0.3493 0.9884 0.4966
C9 C 0.2987(2) 0.8407(6) 0.4330(5)
H10 H 0.3232 0.7743 0.4513
C10 C 0.2466(2) 0.8137(5) 0.3789(5)
C11 C 0.2247(2) 0.6809(5) 0.3440(5)
C12 C 0.2538(2) 0.5670(6) 0.3595(5)
H11 H 0.2901 0.5675 0.3938
C13 C 0.2254(3) 0.4525(6) 0.3207(5)
H12 H 0.2433 0.3744 0.3290
C14 C 0.1724(3) 0.4514(6) 0.2711(5)
H13 H 0.1542 0.3738 0.2465
C15 C 0.1460(2) 0.5685(5) 0.2580(5)
C16 C 0.0897(2) 0.5894(6) 0.2088(5)
C17 C 0.0530(3) 0.4935(6) 0.1621(5)
H14 H 0.0630 0.4074 0.1615
C18 C 0.0020(3) 0.5276(7) 0.1170(6)
H15 H -0.0233 0.4637 0.0867
C19 C -0.0128(2) 0.6541(7) 0.1153(5)
H16 H -0.0477 0.6784 0.0820
C20 C 0.0259(2) 0.7441(7) 0.1646(5)
H17 H 0.0163 0.8305 0.1651
Cu1E Cu 0.13611(3) 1.15645(6) -0.22858(6)
O3E O 0.10387(15) 0.9942(4) 0.3030(3)
O5 O 0.10349(19) 1.1923(4) 0.1379(4)
loop_
_geom_bond_atom_site_label_1
_geom_bond_atom_site_label_2
_geom_bond_site_symmetry_1
_geom_bond_site_symmetry_2
Cu1 N1 1_555 1_555
N1 C6 1_555 1_555
N2 Cu1 1_555 1_555
N3 Cu1 1_555 1_555
O1 Cu1 1_555 1_555
O2 C1 1_555 1_555
O3 C5 1_555 1_555
O4 C5 1_555 1_555
C1 O1 1_555 1_555
C2 C1 1_555 1_555
C3 C2 1_555 1_555
H1 C3 1_555 1_555
H2 C3 1_555 1_555
H3 C3 1_555 1_555
C4 C2 1_555 1_555
H4 C4 1_555 1_555
H5 C4 1_555 1_555
H6 C4 1_555 1_555
C5 C2 1_555 1_555
C6 H7 1_555 1_555
C7 C6 1_555 1_555
H8 C7 1_555 1_555
C8 C7 1_555 1_555
H9 C8 1_555 1_555
C9 C8 1_555 1_555
H10 C9 1_555 1_555
C10 N1 1_555 1_555
C11 N2 1_555 1_555
C12 C11 1_555 1_555
H11 C12 1_555 1_555
C13 C12 1_555 1_555
H12 C13 1_555 1_555
C14 C13 1_555 1_555
H13 C14 1_555 1_555
C15 N2 1_555 1_555
C16 N3 1_555 1_555
C17 C16 1_555 1_555
H14 C17 1_555 1_555
C18 C17 1_555 1_555
H15 C18 1_555 1_555
C19 C18 1_555 1_555
H16 C19 1_555 1_555
C20 N3 1_555 1_555
H17 C20 1_555 1_555
Cu1E O3 1_555 1_555
O3E Cu1 1_555 1_555
C9 C10 1_555 1_555
C10 C11 1_555 1_555
C14 C15 1_555 1_555
C15 C16 1_555 1_555
C19 C20 1_555 1_555

#END
