
#######################################################################
#
#                 Cambridge Crystallographic Data Centre
#                                CCDC 
#
#######################################################################
#
# If this CIF has been generated from an entry in the Cambridge 
# Structural Database, then it will include bibliographic, chemical, 
# crystal, experimental, refinement or atomic coordinate data resulting 
# from the CCDC's data processing and validation procedures.
#
#######################################################################

data_WOZNOQ
_symmetry_cell_setting           monoclinic
_symmetry_space_group_name_H-M   'P 21/n'
_symmetry_Int_Tables_number      14
_space_group_name_Hall           '-P 2yn'
loop_
_symmetry_equiv_pos_site_id
_symmetry_equiv_pos_as_xyz
1 x,y,z
2 1/2-x,1/2+y,1/2-z
3 -x,-y,-z
4 1/2+x,1/2-y,1/2+z
_cell_length_a                   9.7146(11)
_cell_length_b                   30.072(3)
_cell_length_c                   10.7018(12)
_cell_angle_alpha                90
_cell_angle_beta                 103.522(2)
_cell_angle_gamma                90
_cell_volume                     3039.73
loop_
_atom_site_label
_atom_site_type_symbol
_atom_site_fract_x
_atom_site_fract_y
_atom_site_fract_z
O1 O 0.09988(14) 0.13832(4) 0.83881(13)
O2 O -0.06016(16) 0.09646(5) 0.89664(15)
O3 O 0.04042(16) 0.34574(5) 0.65300(14)
O4 O -0.08854(16) 0.32900(5) 0.45956(14)
C1 C 0.0024(2) 0.13213(6) 0.89888(19)
C2 C 0.0442(2) 0.27114(6) 0.58198(19)
C3 C -0.0064(2) 0.31834(6) 0.56067(19)
O5 O 0.18571(17) 0.29131(5) 0.78503(15)
C4 C 0.1527(2) 0.26002(7) 0.7018(2)
C5 C -0.0333(2) 0.17140(7) 0.9779(2)
C6 C -0.0651(2) 0.23477(7) 0.5347(2)
H1 H -0.0582 0.2072 0.5862
H2 H -0.1629 0.2441 0.4935
C7 C 0.0452(3) 0.24305(7) 0.4646(2)
H3 H 0.0164 0.2575 0.3794
H4 H 0.1211 0.2206 0.4719
C8 C -0.1621(3) 0.16011(9) 1.0313(3)
H5 H -0.2448 0.1556 0.9599
H6 H -0.1806 0.1846 1.0855
H7 H -0.1433 0.1328 1.0826
C9 C -0.0695(5) 0.21209(9) 0.8927(3)
H8 H -0.1457 0.2047 0.8179
H9 H 0.0144 0.2216 0.8637
H10 H -0.1006 0.2362 0.9413
C10 C 0.0923(3) 0.17909(13) 1.0896(3)
H11 H 0.1174 0.1512 1.1367
H12 H 0.0679 0.2015 1.1473
H13 H 0.1730 0.1895 1.0572
O6 O 0.30006(14) 0.11751(4) 0.71184(13)
N1 N 0.01072(17) 0.08642(5) 0.58086(16)
N2 N 0.04351(16) 0.02301(5) 0.74081(16)
N3 N 0.25641(17) 0.04790(5) 0.91513(16)
C11 C 0.3801(2) 0.09730(7) 0.65034(19)
C12 C -0.0837(2) 0.05304(6) 0.54571(19)
O7 O 0.20385(16) 0.22233(5) 0.71626(17)
C13 C 0.2032(2) 0.00784(6) 0.93809(19)
C14 C 0.0768(2) -0.00584(6) 0.83876(19)
C15 C -0.0664(2) 0.01653(6) 0.64082(19)
C16 C 0.2639(2) -0.01730(7) 1.0450(2)
H14 H 0.2260 -0.0455 1.0588
C17 C -0.0048(2) -0.04352(7) 0.8405(2)
H15 H 0.0164 -0.0638 0.9104
C18 C 0.0026(2) 0.12211(7) 0.5047(2)
H16 H 0.0694 0.1454 0.5293
C19 C 0.4903(2) 0.12499(8) 0.6027(2)
C20 C -0.1867(2) 0.05457(7) 0.4321(2)
H17 H -0.2507 0.0305 0.4077
C21 C -0.1187(2) -0.05063(7) 0.7368(2)
H18 H -0.1759 -0.0763 0.7356
C22 C 0.3682(2) 0.06417(7) 1.0005(2)
H19 H 0.4047 0.0925 0.9854
C23 C -0.1947(2) 0.09167(8) 0.3549(2)
H20 H -0.2652 0.0935 0.2769
C24 C -0.1505(2) -0.02103(7) 0.6351(2)
H21 H -0.2275 -0.0263 0.5636
C25 C -0.0997(2) 0.12615(8) 0.3918(2)
H22 H -0.1047 0.1521 0.3403
C26 C 0.4322(2) 0.04080(7) 1.1103(2)
H23 H 0.5106 0.0532 1.1703
C27 C 0.3810(2) -0.00051(7) 1.1315(2)
H24 H 0.4256 -0.0173 1.2050
C28 C 0.4953(3) 0.17326(8) 0.6487(3)
H25 H 0.5175 0.1740 0.7428
H26 H 0.4031 0.1873 0.6148
H27 H 0.5684 0.1894 0.6178
C29 C 0.6359(2) 0.10442(9) 0.6544(3)
H28 H 0.6585 0.1048 0.7486
H29 H 0.7072 0.1216 0.6236
H30 H 0.6357 0.0736 0.6242
C30 C 0.4506(3) 0.12340(14) 0.4559(3)
H31 H 0.4538 0.0926 0.4272
H32 H 0.5178 0.1414 0.4220
H33 H 0.3548 0.1352 0.4244
Cu1 Cu 0.15013(2) 0.078071(7) 0.75201(2)
Li1 Li 0.2623(3) 0.17001(11) 0.8111(3)
O8 O 0.36993(16) 0.05672(5) 0.62876(16)
O4C O 0.41146(16) 0.17100(5) 0.95956(14)
Li1C Li -0.2377(3) 0.32999(11) 0.3111(3)
O9 O 0.4982(8) 0.0138(2) 0.4430(6)
H34? H 0.543(15) -0.010(3) 0.462(10)
H35? H 0.468(15) 0.021(4) 0.509(8)
loop_
_geom_bond_atom_site_label_1
_geom_bond_atom_site_label_2
_geom_bond_site_symmetry_1
_geom_bond_site_symmetry_2
O1 C1 1_555 1_555
O2 C1 1_555 1_555
O3 C3 1_555 1_555
O4 C3 1_555 1_555
C1 C5 1_555 1_555
C2 C3 1_555 1_555
O5 C4 1_555 1_555
C4 C2 1_555 1_555
C5 C8 1_555 1_555
C6 C2 1_555 1_555
H1 C6 1_555 1_555
H2 C6 1_555 1_555
C7 C2 1_555 1_555
H3 C7 1_555 1_555
H4 C7 1_555 1_555
C8 H5 1_555 1_555
H6 C8 1_555 1_555
H7 C8 1_555 1_555
C9 C5 1_555 1_555
H8 C9 1_555 1_555
H9 C9 1_555 1_555
H10 C9 1_555 1_555
C10 C5 1_555 1_555
H11 C10 1_555 1_555
H12 C10 1_555 1_555
H13 C10 1_555 1_555
O6 C11 1_555 1_555
N1 C12 1_555 1_555
N2 C14 1_555 1_555
N3 C13 1_555 1_555
C11 C19 1_555 1_555
C12 C15 1_555 1_555
O7 C4 1_555 1_555
C13 C14 1_555 1_555
C14 C17 1_555 1_555
C15 N2 1_555 1_555
C16 C13 1_555 1_555
H14 C16 1_555 1_555
C17 H15 1_555 1_555
C18 N1 1_555 1_555
H16 C18 1_555 1_555
C19 C28 1_555 1_555
C20 C12 1_555 1_555
H17 C20 1_555 1_555
C21 C17 1_555 1_555
H18 C21 1_555 1_555
C22 N3 1_555 1_555
H19 C22 1_555 1_555
C23 C20 1_555 1_555
H20 C23 1_555 1_555
C24 C15 1_555 1_555
H21 C24 1_555 1_555
C25 C18 1_555 1_555
H22 C25 1_555 1_555
C26 C22 1_555 1_555
H23 C26 1_555 1_555
C27 C16 1_555 1_555
H24 C27 1_555 1_555
C28 H25 1_555 1_555
H26 C28 1_555 1_555
H27 C28 1_555 1_555
C29 C19 1_555 1_555
H28 C29 1_555 1_555
H29 C29 1_555 1_555
H30 C29 1_555 1_555
C30 C19 1_555 1_555
H31 C30 1_555 1_555
H32 C30 1_555 1_555
H33 C30 1_555 1_555
Cu1 O1 1_555 1_555
Li1 O1 1_555 1_555
O8 C11 1_555 1_555
O4C Li1 1_555 1_555
Li1C O4 1_555 1_555
C6 C7 1_555 1_555
O6 Cu1 1_555 1_555
O6 Li1 1_555 1_555
N1 Cu1 1_555 1_555
N2 Cu1 1_555 1_555
N3 Cu1 1_555 1_555
O7 Li1 1_555 1_555
C21 C24 1_555 1_555
C23 C25 1_555 1_555
C26 C27 1_555 1_555

#END
