
#######################################################################
#
#                 Cambridge Crystallographic Data Centre
#                                CCDC 
#
#######################################################################
#
# If this CIF has been generated from an entry in the Cambridge 
# Structural Database, then it will include bibliographic, chemical, 
# crystal, experimental, refinement or atomic coordinate data resulting 
# from the CCDC's data processing and validation procedures.
#
#######################################################################

data_WOZPIM
_symmetry_cell_setting           monoclinic
_symmetry_space_group_name_H-M   'P 21/c'
_symmetry_Int_Tables_number      14
_space_group_name_Hall           '-P 2ybc'
loop_
_symmetry_equiv_pos_site_id
_symmetry_equiv_pos_as_xyz
1 x,y,z
2 -x,1/2+y,1/2-z
3 -x,-y,-z
4 x,1/2-y,1/2+z
_cell_length_a                   8.7795(14)
_cell_length_b                   6.4704(11)
_cell_length_c                   10.8283(17)
_cell_angle_alpha                90
_cell_angle_beta                 106.422(2)
_cell_angle_gamma                90
_cell_volume                     590.028
loop_
_atom_site_label
_atom_site_type_symbol
_atom_site_fract_x
_atom_site_fract_y
_atom_site_fract_z
Cu1 Cu 0.51475(3) 0.41540(4) 0.34894(2)
S1 S 0.25680(6) 0.23082(8) 0.28864(5)
N1 N 0.4023(2) -0.1392(3) 0.29954(17)
N2 N 0.4420(2) -0.3001(3) 0.38083(16)
N3 N 0.3897(2) -0.2640(3) 0.48238(16)
N4 N 0.3154(2) -0.0802(3) 0.47073(17)
C1 C 0.3256(2) -0.0084(3) 0.35804(19)
C2 C 0.1469(3) 0.3159(3) 0.3999(2)
H1 H 0.2093 0.2860 0.4873
H2 H 0.1321 0.4644 0.3923
C3 C -0.0133(3) 0.2128(4) 0.3749(3)
H3 H -0.0678 0.2670 0.4332
H4 H 0.0010 0.0665 0.3878
H5 H -0.0748 0.2394 0.2879
Cu1_2 Cu 0.51475(3) -0.58460(4) 0.34894(2)
Cu1A Cu 0.48525(3) -0.08460(4) 0.15106(2)
Cu1B Cu 0.48525(3) -0.41540(4) 0.65106(2)
N1A N 0.5977(2) 0.3608(3) 0.20046(17)
N2_2 N 0.4420(2) 0.6999(3) 0.38083(16)
N3B N 0.6103(2) 0.2640(3) 0.51762(16)
loop_
_geom_bond_atom_site_label_1
_geom_bond_atom_site_label_2
_geom_bond_site_symmetry_1
_geom_bond_site_symmetry_2
Cu1 S1 1_555 1_555
S1 C1 1_555 1_555
N1 N2 1_555 1_555
N2 N3 1_555 1_555
N3 N4 1_555 1_555
N4 C1 1_555 1_555
C1 N1 1_555 1_555
C2 S1 1_555 1_555
H1 C2 1_555 1_555
H2 C2 1_555 1_555
C3 C2 1_555 1_555
H3 C3 1_555 1_555
H4 C3 1_555 1_555
H5 C3 1_555 1_555
Cu1_2 N2 1_555 1_555
Cu1A N1 1_555 1_555
Cu1B N3 1_555 1_555
N1A Cu1 1_555 1_555
N2_2 Cu1 1_555 1_555
N3B Cu1 1_555 1_555

#END
