
#######################################################################
#
#                 Cambridge Crystallographic Data Centre
#                                CCDC 
#
#######################################################################
#
# If this CIF has been generated from an entry in the Cambridge 
# Structural Database, then it will include bibliographic, chemical, 
# crystal, experimental, refinement or atomic coordinate data resulting 
# from the CCDC's data processing and validation procedures.
#
#######################################################################

data_WOZTUA
_symmetry_cell_setting           monoclinic
_symmetry_space_group_name_H-M   'P 21/c'
_symmetry_Int_Tables_number      14
_space_group_name_Hall           '-P 2ybc'
loop_
_symmetry_equiv_pos_site_id
_symmetry_equiv_pos_as_xyz
1 x,y,z
2 x,1/2-y,1/2+z
3 -x,-y,-z
4 -x,1/2+y,1/2-z
_cell_length_a                   10.5774(7)
_cell_length_b                   21.9723(15)
_cell_length_c                   14.4196(10)
_cell_angle_alpha                90
_cell_angle_beta                 110.121(1)
_cell_angle_gamma                90
_cell_volume                     3146.72
loop_
_atom_site_label
_atom_site_type_symbol
_atom_site_fract_x
_atom_site_fract_y
_atom_site_fract_z
In1 In 0.204943(13) 0.310613(6) -0.044119(9)
S1 S 0.15335(6) 0.22189(2) -0.15805(4)
S2 S 0.01712(5) 0.38346(3) -0.08219(4)
S3 S 0.33478(5) 0.26649(2) 0.11977(4)
S4 S 0.39075(5) 0.36106(2) -0.08348(4)
O1 O 0.06217(16) 0.18533(7) -0.02062(11)
O2 O 0.00962(16) 0.31163(7) 0.05865(12)
O3 O 0.31154(17) 0.38423(7) 0.12021(11)
O4 O 0.19804(13) 0.34962(6) -0.25453(10)
Na1 Na 0.06694(8) 0.28087(3) -0.36917(5)
N1 N -0.1310(2) 0.30306(12) -0.33276(17)
C1 C -0.1934(3) 0.29185(13) -0.2866(2)
C2 C -0.2728(4) 0.2757(2) -0.2251(3)
H1 H -0.2264 0.2443 -0.1786
H2 H -0.2844 0.3114 -0.1892
H3 H -0.3602 0.2607 -0.2666
C3 C 0.08487(18) 0.17121(8) -0.09520(13)
C4 C -0.03614(19) 0.35800(8) 0.01285(13)
C5 C 0.3640(2) 0.34007(9) 0.16983(14)
C6 C 0.31350(19) 0.36701(8) -0.21097(14)
C7 C 0.0555(2) 0.10852(8) -0.13676(13)
C8 C 0.1005(2) 0.08686(10) -0.21004(15)
H4 H 0.1521 0.1120 -0.2359
C9 C 0.0692(3) 0.02788(11) -0.24536(18)
H5 H 0.1000 0.0133 -0.2951
C10 C -0.0050(3) -0.00875(12) -0.2088(2)
H6 H -0.0253 -0.0486 -0.2329
C11 C -0.0504(4) 0.01221(13) -0.1368(2)
H7 H -0.1021 -0.0133 -0.1116
C12 C -0.0207(3) 0.07086(12) -0.1007(2)
H8 H -0.0528 0.0850 -0.0513
C13 C -0.14081(18) 0.39421(8) 0.03557(13)
C14 C -0.2011(2) 0.36879(10) 0.09805(17)
H9 H -0.1771 0.3294 0.1234
C15 C -0.2961(3) 0.40127(12) 0.1230(2)
H10 H -0.3371 0.3839 0.1650
C16 C -0.3311(2) 0.45915(12) 0.08650(19)
H11 H -0.3960 0.4811 0.1039
C17 C -0.2722(2) 0.48491(10) 0.02513(17)
H12 H -0.2965 0.5244 0.0003
C18 C -0.1767(2) 0.45265(9) -0.00031(14)
H13 H -0.1358 0.4704 -0.0422
C19 C 0.4605(2) 0.34686(9) 0.27232(14)
C20 C 0.4940(2) 0.29926(11) 0.33908(15)
H14 H 0.4512 0.2613 0.3217
C21 C 0.5911(3) 0.30758(14) 0.43201(18)
H15 H 0.6136 0.2755 0.4779
C22 C 0.6540(3) 0.36294(16) 0.4563(2)
H16 H 0.7218 0.3682 0.5182
C23 C 0.6193(3) 0.41017(14) 0.3920(2)
H17 H 0.6621 0.4480 0.4099
C24 C 0.5214(2) 0.40293(11) 0.30018(17)
H18 H 0.4962 0.4361 0.2565
C25 C 0.3957(2) 0.39449(8) -0.26642(15)
C26 C 0.3417(2) 0.39760(10) -0.36817(16)
H19 H 0.2535 0.3838 -0.4011
C27 C 0.4168(3) 0.42097(12) -0.4220(2)
H20 H 0.3798 0.4229 -0.4913
C28 C 0.5459(3) 0.44140(14) -0.3736(2)
H21 H 0.5972 0.4571 -0.4100
C29 C 0.5995(3) 0.43888(15) -0.2732(2)
H22 H 0.6873 0.4533 -0.2406
C30 C 0.5254(2) 0.41515(12) -0.21864(19)
H23 H 0.5633 0.4131 -0.1494
Na1A Na 0.06694(8) 0.21913(3) 0.13083(5)
S3A S 0.33478(5) 0.23351(2) -0.38023(4)
O1A O 0.06217(16) 0.31467(7) -0.52062(11)
O2A O 0.00962(16) 0.18837(7) -0.44135(12)
loop_
_geom_bond_atom_site_label_1
_geom_bond_atom_site_label_2
_geom_bond_site_symmetry_1
_geom_bond_site_symmetry_2
In1 S1 1_555 1_555
S1 Na1 1_555 1_555
S2 In1 1_555 1_555
S3 In1 1_555 1_555
S4 In1 1_555 1_555
O1 C3 1_555 1_555
O2 C4 1_555 1_555
O3 C5 1_555 1_555
O4 Na1 1_555 1_555
Na1 N1 1_555 1_555
N1 C1 1_555 1_555
C1 C2 1_555 1_555
C2 H1 1_555 1_555
H2 C2 1_555 1_555
H3 C2 1_555 1_555
C3 S1 1_555 1_555
C4 S2 1_555 1_555
C5 S3 1_555 1_555
C6 S4 1_555 1_555
C7 C3 1_555 1_555
C8 C7 1_555 1_555
H4 C8 1_555 1_555
C9 C8 1_555 1_555
H5 C9 1_555 1_555
C10 C9 1_555 1_555
H6 C10 1_555 1_555
C11 C10 1_555 1_555
H7 C11 1_555 1_555
C12 C7 1_555 1_555
H8 C12 1_555 1_555
C13 C4 1_555 1_555
C14 C13 1_555 1_555
H9 C14 1_555 1_555
C15 C14 1_555 1_555
H10 C15 1_555 1_555
C16 C15 1_555 1_555
H11 C16 1_555 1_555
C17 C16 1_555 1_555
H12 C17 1_555 1_555
C18 C13 1_555 1_555
H13 C18 1_555 1_555
C19 C5 1_555 1_555
C20 C19 1_555 1_555
H14 C20 1_555 1_555
C21 C20 1_555 1_555
H15 C21 1_555 1_555
C22 C21 1_555 1_555
H16 C22 1_555 1_555
C23 C22 1_555 1_555
H17 C23 1_555 1_555
C24 C19 1_555 1_555
H18 C24 1_555 1_555
C25 C6 1_555 1_555
C26 C25 1_555 1_555
H19 C26 1_555 1_555
C27 C26 1_555 1_555
H20 C27 1_555 1_555
C28 C27 1_555 1_555
H21 C28 1_555 1_555
C29 C28 1_555 1_555
H22 C29 1_555 1_555
C30 C25 1_555 1_555
H23 C30 1_555 1_555
Na1A S3 1_555 1_555
S3A Na1 1_555 1_555
O1A Na1 1_555 1_555
O2A Na1 1_555 1_555
O1 Na1A 1_555 1_555
O2 Na1A 1_555 1_555
O4 C6 1_555 1_555
C11 C12 1_555 1_555
C17 C18 1_555 1_555
C23 C24 1_555 1_555
C29 C30 1_555 1_555

#END
