
#######################################################################
#
#                 Cambridge Crystallographic Data Centre
#                                CCDC 
#
#######################################################################
#
# If this CIF has been generated from an entry in the Cambridge 
# Structural Database, then it will include bibliographic, chemical, 
# crystal, experimental, refinement or atomic coordinate data resulting 
# from the CCDC's data processing and validation procedures.
#
#######################################################################

data_WOZVAI
_symmetry_cell_setting           monoclinic
_symmetry_space_group_name_H-M   'P 21/n'
_symmetry_Int_Tables_number      14
_space_group_name_Hall           '-P 2yn'
loop_
_symmetry_equiv_pos_site_id
_symmetry_equiv_pos_as_xyz
1 x,y,z
2 1/2+x,1/2-y,1/2+z
3 -x,-y,-z
4 1/2-x,1/2+y,1/2-z
_cell_length_a                   12.307(3)
_cell_length_b                   13.672(3)
_cell_length_c                   20.575(4)
_cell_angle_alpha                90
_cell_angle_beta                 92.356(4)
_cell_angle_gamma                90
_cell_volume                     3459.05
loop_
_atom_site_label
_atom_site_type_symbol
_atom_site_fract_x
_atom_site_fract_y
_atom_site_fract_z
In1 In 0.554999(14) 0.228321(13) 0.220503(9)
K1 K 0.74291(4) -0.02802(4) 0.19560(3)
S1 S 0.68113(5) 0.22993(5) 0.13123(3)
S2 S 0.39488(5) 0.33901(5) 0.19808(3)
S3 S 0.46139(5) 0.06536(5) 0.21631(3)
S4 S 0.59837(6) 0.25250(5) 0.33851(3)
O1 O 0.79291(13) 0.32028(13) 0.22456(9)
O2 O 0.57948(12) 0.42502(12) 0.22223(8)
O3 O 0.45247(15) 0.14298(14) 0.09998(9)
O4 O 0.70482(13) 0.10651(13) 0.29055(8)
C1 C 0.78835(19) 0.29932(18) 0.16709(13)
C2 C 0.48168(19) 0.43835(18) 0.20965(11)
C3 C 0.4163(2) 0.07934(19) 0.13443(13)
C4 C 0.68960(19) 0.15381(18) 0.34000(12)
N1 N 0.5945(2) -0.11523(19) 0.10492(13)
C5 C 0.5336(2) -0.1647(2) 0.07895(14)
C6 C 0.4557(3) -0.2289(2) 0.04464(16)
H1 H 0.3824 -0.2115 0.0560
H2 H 0.4702 -0.2963 0.0570
H3 H 0.4626 -0.2217 -0.0019
C7 C 0.9960(3) 0.0975(2) 0.12222(15)
N2 N 0.9210(2) 0.0524(2) 0.13014(13)
C8 C 1.0916(2) 0.1569(2) 0.11294(19)
H4 H 1.1412 0.1507 0.1506
H5 H 1.0702 0.2248 0.1076
H6 H 1.1275 0.1350 0.0744
C9 C 0.87272(19) 0.33515(17) 0.12229(13)
C10 C 0.9550(2) 0.39439(19) 0.14820(15)
H7 H 0.9567 0.4105 0.1926
C11 C 1.0345(2) 0.4299(2) 0.10896(19)
H8 H 1.0897 0.4703 0.1269
C12 C 1.0336(2) 0.4068(2) 0.04426(19)
H9 H 1.0885 0.4306 0.0181
C13 C 0.9526(3) 0.3488(2) 0.01766(16)
H10 H 0.9516 0.3334 -0.0269
C14 C 0.8716(2) 0.3126(2) 0.05655(14)
H11 H 0.8162 0.2728 0.0382
C15 C 0.43702(19) 0.53978(18) 0.20492(12)
C16 C 0.5080(2) 0.61799(19) 0.21433(12)
H12 H 0.5830 0.6064 0.2201
C17 C 0.4693(3) 0.7122(2) 0.21520(14)
H13 H 0.5178 0.7648 0.2216
C18 C 0.3600(3) 0.7295(2) 0.20670(16)
H14 H 0.3336 0.7939 0.2084
C19 C 0.2887(2) 0.6532(2) 0.19563(16)
H15 H 0.2140 0.6657 0.1886
C20 C 0.3270(2) 0.5580(2) 0.19479(14)
H16 H 0.2784 0.5057 0.1874
C21 C 0.32943(19) 0.01217(18) 0.10830(12)
C22 C 0.2618(2) -0.03948(18) 0.14786(13)
H17 H 0.2739 -0.0374 0.1933
C23 C 0.1768(2) -0.09400(19) 0.12138(15)
H18 H 0.1307 -0.1283 0.1487
C24 C 0.1596(2) -0.0981(2) 0.05504(16)
H19 H 0.1006 -0.1340 0.0370
C25 C 0.2285(3) -0.0496(2) 0.01493(16)
H20 H 0.2182 -0.0545 -0.0305
C26 C 0.3124(2) 0.0061(2) 0.04147(14)
H21 H 0.3584 0.0402 0.0140
C27 C 0.74630(18) 0.12916(18) 0.40320(12)
C28 C 0.7977(2) 0.03900(19) 0.40867(13)
H22 H 0.7973 -0.0035 0.3728
C29 C 0.8497(2) 0.0114(2) 0.46677(15)
H23 H 0.8827 -0.0504 0.4707
C30 C 0.8526(2) 0.0749(3) 0.51864(14)
H24 H 0.8881 0.0562 0.5580
C31 C 0.8044(2) 0.1651(2) 0.51355(14)
H25 H 0.8083 0.2085 0.5490
C32 C 0.7499(2) 0.1924(2) 0.45612(12)
H26 H 0.7154 0.2536 0.4530
S4C S 0.90163(6) -0.24750(5) 0.16149(3)
O1C O 0.70709(13) -0.17972(13) 0.27544(9)
O2C O 0.92052(12) -0.07498(12) 0.27777(8)
K1C K 0.75709(4) 0.47198(4) 0.30440(3)
loop_
_geom_bond_atom_site_label_1
_geom_bond_atom_site_label_2
_geom_bond_site_symmetry_1
_geom_bond_site_symmetry_2
In1 S1 1_555 1_555
K1 S3 1_555 1_555
S1 C1 1_555 1_555
S2 In1 1_555 1_555
S3 In1 1_555 1_555
S4 In1 1_555 1_555
O1 C1 1_555 1_555
O2 C2 1_555 1_555
O3 C3 1_555 1_555
O4 K1 1_555 1_555
C1 C9 1_555 1_555
C2 S2 1_555 1_555
C3 S3 1_555 1_555
C4 S4 1_555 1_555
N1 K1 1_555 1_555
C5 N1 1_555 1_555
C6 C5 1_555 1_555
H1 C6 1_555 1_555
H2 C6 1_555 1_555
H3 C6 1_555 1_555
C7 N2 1_555 1_555
N2 K1 1_555 1_555
C8 C7 1_555 1_555
H4 C8 1_555 1_555
H5 C8 1_555 1_555
H6 C8 1_555 1_555
C9 C10 1_555 1_555
C10 H7 1_555 1_555
C11 C10 1_555 1_555
H8 C11 1_555 1_555
C12 C11 1_555 1_555
H9 C12 1_555 1_555
C13 C12 1_555 1_555
H10 C13 1_555 1_555
C14 C9 1_555 1_555
H11 C14 1_555 1_555
C15 C2 1_555 1_555
C16 C15 1_555 1_555
H12 C16 1_555 1_555
C17 C16 1_555 1_555
H13 C17 1_555 1_555
C18 C17 1_555 1_555
H14 C18 1_555 1_555
C19 C18 1_555 1_555
H15 C19 1_555 1_555
C20 C15 1_555 1_555
H16 C20 1_555 1_555
C21 C3 1_555 1_555
C22 C21 1_555 1_555
H17 C22 1_555 1_555
C23 C22 1_555 1_555
H18 C23 1_555 1_555
C24 C23 1_555 1_555
H19 C24 1_555 1_555
C25 C24 1_555 1_555
H20 C25 1_555 1_555
C26 C21 1_555 1_555
H21 C26 1_555 1_555
C27 C4 1_555 1_555
C28 C27 1_555 1_555
H22 C28 1_555 1_555
C29 C28 1_555 1_555
H23 C29 1_555 1_555
C30 C29 1_555 1_555
H24 C30 1_555 1_555
C31 C30 1_555 1_555
H25 C31 1_555 1_555
C32 C27 1_555 1_555
H26 C32 1_555 1_555
S4C K1 1_555 1_555
O1C K1 1_555 1_555
O2C K1 1_555 1_555
K1C S4 1_555 1_555
O1 K1C 1_555 1_555
O2 K1C 1_555 1_555
O4 C4 1_555 1_555
C13 C14 1_555 1_555
C19 C20 1_555 1_555
C25 C26 1_555 1_555
C31 C32 1_555 1_555

#END
