
#######################################################################
#
#                 Cambridge Crystallographic Data Centre
#                                CCDC 
#
#######################################################################
#
# If this CIF has been generated from an entry in the Cambridge 
# Structural Database, then it will include bibliographic, chemical, 
# crystal, experimental, refinement or atomic coordinate data resulting 
# from the CCDC's data processing and validation procedures.
#
#######################################################################

data_WOZWEP
_symmetry_cell_setting           tetragonal
_symmetry_space_group_name_H-M   'P 4/m n c'
_symmetry_Int_Tables_number      128
_space_group_name_Hall           '-P 4 2n'
loop_
_symmetry_equiv_pos_site_id
_symmetry_equiv_pos_as_xyz
1 x,y,z
2 -x,-y,z
3 -y,x,z
4 y,-x,z
5 1/2-x,1/2+y,1/2-z
6 1/2+x,1/2-y,1/2-z
7 1/2+y,1/2+x,1/2-z
8 1/2-y,1/2-x,1/2-z
9 -x,-y,-z
10 x,y,-z
11 y,-x,-z
12 -y,x,-z
13 1/2+x,1/2-y,1/2+z
14 1/2-x,1/2+y,1/2+z
15 1/2-y,1/2-x,1/2+z
16 1/2+y,1/2+x,1/2+z
_cell_length_a                   23.474(3)
_cell_length_b                   23.474(3)
_cell_length_c                   6.6926(9)
_cell_angle_alpha                90
_cell_angle_beta                 90
_cell_angle_gamma                90
_cell_volume                     3687.81
loop_
_atom_site_label
_atom_site_type_symbol
_atom_site_fract_x
_atom_site_fract_y
_atom_site_fract_z
In1 In 0.12300(3) 0.27548(3) 1.0000
P1 P 0.60476(10) 0.20059(11) 1.0000
C1 C 0.5150(5) 0.1237(5) 1.0000
H1 H 0.5430 0.0957 1.0000
O1 O 0.6391(3) 0.1454(3) 1.0000
O2 O 0.2182(3) 0.2519(3) 1.0000
O3 O 0.1542(3) 0.1847(3) 1.0000
C2 C 0.5301(4) 0.1797(4) 1.0000
C3 C 0.2057(5) 0.1999(4) 1.0000
O4 O 0.2155(4) -0.0210(3) 1.0000
O5 O 0.3067(4) -0.0383(3) 1.0000
C4 C 0.4138(4) 0.1477(4) 1.0000
C5 C 0.3085(4) 0.1714(4) 1.0000
H2 H 0.3178 0.2099 1.0000
C6 C 0.2796(4) 0.0582(4) 1.0000
C7 C 0.3524(4) 0.1320(4) 1.0000
C8 C 0.2374(4) 0.0986(4) 1.0000
H3 H 0.1993 0.0876 1.0000
C9 C 0.2521(4) 0.1562(4) 1.0000
C10 C 0.4308(4) 0.2035(4) 1.0000
H4 H 0.4033 0.2320 1.0000
C11 C 0.2657(6) -0.0037(5) 1.0000
C12 C 0.4887(5) 0.2189(4) 1.0000
H5 H 0.4984 0.2573 1.0000
C13 C 0.3365(4) 0.0743(4) 1.0000
H6 H 0.3646 0.0464 1.0000
C14 C 0.4560(5) 0.1079(5) 1.0000
H7 H 0.4463 0.0695 1.0000
O6 O 0.61465(19) 0.23751(19) 0.8153(7)
O6I O 0.61465(19) 0.23751(19) 1.1847(7)
In1B In 0.72452(3) 0.12300(3) 1.0000
In1C In 0.27548(3) -0.12300(3) 1.0000
In1E In 0.62300(3) 0.22452(3) 0.5000
In1E_2 In 0.62300(3) 0.22452(3) 1.5000
O1C O 0.1454(3) 0.3609(3) 1.0000
O5B O 0.0383(3) 0.3067(4) 1.0000
O6E O 0.11465(19) 0.26249(19) 0.6847(7)
O6L O 0.11465(19) 0.26249(19) 1.3153(7)
O7 O 0.3608(11) 0.3381(9) 1.0000
O8 O 0.3768(15) 0.462(2) 0.753(6)
H8 H 0.3484 0.4667 0.6758
H9 H 0.3669 0.4398 0.8471
H10? H 0.3551 0.4279 1.0961
H11? H 0.3173 0.4033 0.9635
O9? O 0.3519(7) 0.4045(12) 1.0000
loop_
_geom_bond_atom_site_label_1
_geom_bond_atom_site_label_2
_geom_bond_site_symmetry_1
_geom_bond_site_symmetry_2
In1 O2 1_555 1_555
P1 O1 1_555 1_555
C1 H1 1_555 1_555
O1 In1B 1_555 1_555
O2 C3 1_555 1_555
O3 In1 1_555 1_555
C2 P1 1_555 1_555
C3 O3 1_555 1_555
O4 C11 1_555 1_555
O5 C11 1_555 1_555
C4 C7 1_555 1_555
C5 H2 1_555 1_555
C6 C8 1_555 1_555
C7 C5 1_555 1_555
C8 H3 1_555 1_555
C9 C3 1_555 1_555
C10 C4 1_555 1_555
H4 C10 1_555 1_555
C11 C6 1_555 1_555
C12 C2 1_555 1_555
H5 C12 1_555 1_555
C13 C6 1_555 1_555
H6 C13 1_555 1_555
C14 C1 1_555 1_555
H7 C14 1_555 1_555
O6 P1 1_555 1_555
O8 H8 1_555 1_555
H9 O8 1_555 1_555
O6I P1 1_555 1_555
In1C O5 1_555 1_555
In1E O6 1_555 1_555
In1E_2 O6I 1_555 1_555
O1C In1 1_555 1_555
O5B In1 1_555 1_555
O6E In1 1_555 1_555
O6L In1 1_555 1_555
C1 C2 1_555 1_555
C4 C14 1_555 1_555
C5 C9 1_555 1_555
C7 C13 1_555 1_555
C8 C9 1_555 1_555
C10 C12 1_555 1_555

#END
