
#######################################################################
#
#                 Cambridge Crystallographic Data Centre
#                                CCDC 
#
#######################################################################
#
# If this CIF has been generated from an entry in the Cambridge 
# Structural Database, then it will include bibliographic, chemical, 
# crystal, experimental, refinement or atomic coordinate data resulting 
# from the CCDC's data processing and validation procedures.
#
#######################################################################

data_WOZXOA
_symmetry_cell_setting           monoclinic
_symmetry_space_group_name_H-M   'C 2/c'
_symmetry_Int_Tables_number      15
_space_group_name_Hall           '-C 2yn'
loop_
_symmetry_equiv_pos_site_id
_symmetry_equiv_pos_as_xyz
1 x,y,z
2 -x,y,1/2-z
3 1/2+x,1/2+y,z
4 1/2-x,1/2+y,1/2-z
5 -x,-y,-z
6 x,-y,1/2+z
7 1/2-x,1/2-y,-z
8 1/2+x,1/2-y,1/2+z
_cell_length_a                   14.747(2)
_cell_length_b                   8.8586(4)
_cell_length_c                   13.4233(10)
_cell_angle_alpha                90
_cell_angle_beta                 119.302(7)
_cell_angle_gamma                90
_cell_volume                     1529.22
loop_
_atom_site_label
_atom_site_type_symbol
_atom_site_fract_x
_atom_site_fract_y
_atom_site_fract_z
Co1 Co 0.2500 -0.2500 0.5000
N1 N 0.12983(12) -0.07878(17) 0.44287(13)
N2 N 0.10714(15) 0.3142(2) 0.42372(17)
H1 H 0.1717 0.3394 0.4573
H2 H 0.0598 0.3828 0.3978
N3 N 0.15720(12) 0.06697(17) 0.45396(14)
N4 N -0.02307(12) 0.1379(2) 0.35831(15)
N5 N 0.33518(13) -0.13738(18) 0.65633(14)
N6 N 0.41248(13) -0.0140(2) 0.84294(15)
N7 N 0.32423(13) 0.12714(18) 0.92776(14)
C1 C 0.08041(15) 0.1692(2) 0.41196(17)
C2 C -0.04569(16) -0.0061(2) 0.35037(18)
H3 H -0.1151 -0.0353 0.3149
C3 C 0.03080(15) -0.1165(2) 0.39327(17)
H4 H 0.0121 -0.2177 0.3870
C4 C 0.36562(14) -0.0768(2) 0.74200(17)
C5 C 0.36028(15) 0.0605(2) 0.88271(16)
N1F N 0.37017(12) -0.42122(17) 0.55713(13)
N2F N 0.39286(15) -0.8142(2) 0.57628(17)
H1F H 0.3283 -0.8394 0.5427
H2F H 0.4402 -0.8828 0.6022
N3F N 0.34280(12) -0.56697(17) 0.54604(14)
N4F N 0.52307(12) -0.6379(2) 0.64169(15)
N5F N 0.16482(13) -0.36262(18) 0.34367(14)
N6F N 0.08752(13) -0.4860(2) 0.15706(15)
N7F N 0.17577(13) -0.62714(18) 0.07224(14)
C1F C 0.41959(15) -0.6692(2) 0.58804(17)
C2F C 0.54569(16) -0.4939(2) 0.64963(18)
H3F H 0.6151 -0.4647 0.6851
C3F C 0.46920(15) -0.3835(2) 0.60673(17)
H4F H 0.4879 -0.2823 0.6130
C4F C 0.13438(14) -0.4232(2) 0.25800(17)
C5F C 0.13972(15) -0.5605(2) 0.11729(16)
Co1C Co 0.2500 -0.7500 0.0000
Co1C_2 Co 0.2500 0.2500 1.0000
N7C N 0.17577(13) -0.37286(18) 0.57224(14)
N7E N 0.32423(13) -0.12714(18) 0.42776(14)
loop_
_geom_bond_atom_site_label_1
_geom_bond_atom_site_label_2
_geom_bond_site_symmetry_1
_geom_bond_site_symmetry_2
Co1 N1 1_555 1_555
N1 N3 1_555 1_555
N2 H1 1_555 1_555
H2 N2 1_555 1_555
N3 C1 1_555 1_555
N4 C1 1_555 1_555
N5 Co1 1_555 1_555
N6 C4 1_555 1_555
N7 C5 1_555 1_555
C1 N2 1_555 1_555
C2 N4 1_555 1_555
H3 C2 1_555 1_555
C3 N1 1_555 1_555
H4 C3 1_555 1_555
C4 N5 1_555 1_555
C5 N6 1_555 1_555
N1F Co1 1_555 1_555
N2F H1F 1_555 1_555
H2F N2F 1_555 1_555
N3F N1F 1_555 1_555
N4F C1F 1_555 1_555
N5F Co1 1_555 1_555
N6F C4F 1_555 1_555
N7F C5F 1_555 1_555
C1F N2F 1_555 1_555
C2F N4F 1_555 1_555
H3F C2F 1_555 1_555
C3F N1F 1_555 1_555
H4F C3F 1_555 1_555
C4F N5F 1_555 1_555
C5F N6F 1_555 1_555
Co1C N7F 1_555 1_555
Co1C_2 N7 1_555 1_555
N7C Co1 1_555 1_555
N7E Co1 1_555 1_555
C2 C3 1_555 1_555
N3F C1F 1_555 1_555
C2F C3F 1_555 1_555

#END
