
#######################################################################
#
#                 Cambridge Crystallographic Data Centre
#                                CCDC 
#
#######################################################################
#
# If this CIF has been generated from an entry in the Cambridge 
# Structural Database, then it will include bibliographic, chemical, 
# crystal, experimental, refinement or atomic coordinate data resulting 
# from the CCDC's data processing and validation procedures.
#
#######################################################################

data_WUBDII
_symmetry_cell_setting           monoclinic
_symmetry_space_group_name_H-M   'P 21'
_symmetry_Int_Tables_number      4
_space_group_name_Hall           'P 2yb'
loop_
_symmetry_equiv_pos_site_id
_symmetry_equiv_pos_as_xyz
1 x,y,z
2 -x,1/2+y,-z
_cell_length_a                   8.4200(6)
_cell_length_b                   6.4428(5)
_cell_length_c                   15.1098(12)
_cell_angle_alpha                90
_cell_angle_beta                 105.5730(10)
_cell_angle_gamma                90
_cell_volume                     789.591
loop_
_atom_site_label
_atom_site_type_symbol
_atom_site_fract_x
_atom_site_fract_y
_atom_site_fract_z
Co1 Co 0.19276(6) 0.09664(11) 0.97000(4)
Co2 Co 0.49725(12) -0.16017(15) 0.99508(7)
P1 P -0.15845(11) 0.0929(3) 0.98901(7)
C1 C -0.1611(5) 0.0817(12) 0.8684(3)
H1 H -0.1740 -0.0615 0.8478
H2 H -0.2549 0.1596 0.8325
C2 C 0.0164(6) 0.1140(13) 0.7603(3)
H3 H 0.1131 0.1919 0.7546
C3 C 0.0586(9) -0.1129(11) 0.7582(5)
H4 H 0.1508 -0.1445 0.8095
H5 H 0.0865 -0.1435 0.7021
H6 H -0.0345 -0.1951 0.7618
C4 C -0.1283(8) 0.1784(11) 0.6787(4)
H7 H -0.2246 0.0964 0.6820
C5 C -0.1727(9) 0.4004(13) 0.6812(5)
H8 H -0.0764 0.4846 0.6829
H9 H -0.2050 0.4272 0.7371
C6 C -0.3127(11) 0.4659(16) 0.5989(6)
H10 H -0.4130 0.3945 0.6011
H11 H -0.3316 0.6138 0.6023
C7 C -0.2742(13) 0.4165(19) 0.5082(6)
H12 H -0.3694 0.4485 0.4576
H13 H -0.1830 0.5021 0.5020
C8 C -0.2304(11) 0.1930(16) 0.5042(6)
H14 H -0.1965 0.1680 0.4487
H15 H -0.3270 0.1086 0.5014
C9 C -0.0917(9) 0.1280(17) 0.5873(4)
H16 H 0.0091 0.1979 0.5850
H17 H -0.0737 -0.0202 0.5842
C10 C 0.4775(7) -0.4562(8) 0.8223(5)
C11 C 0.4885(10) -0.2772(11) 0.7594(5)
H18 H 0.4459 -0.1537 0.7803
H19 H 0.4249 -0.3087 0.6980
H20 H 0.6015 -0.2555 0.7599
N1 N -0.0081(5) 0.1674(6) 0.8528(3)
H21 H -0.0207 0.3186 0.8529
O1 O 0.0204(3) 0.0835(8) 1.0441(2)
O2 O -0.2555(5) -0.0992(6) 1.0036(3)
O3 O -0.2481(5) 0.2870(6) 1.0086(3)
O4 O 0.3994(3) 0.0955(7) 0.92069(19)
H22 H 0.3883 0.1015 0.8545
O5 O 0.5101(4) -0.4232(7) 0.9034(2)
O6 O 0.4407(8) -0.6321(8) 0.7852(3)
Co1A Co -0.19276(6) -0.40336(11) 1.03000(4)
Co1A_2 Co -0.19276(6) 0.59664(11) 1.03000(4)
Co2_2 Co -0.50275(12) -0.16017(15) 0.99508(7)
Co2A Co -0.49725(12) 0.33983(15) 1.00492(7)
Co2A_2 Co 0.50275(12) -0.66017(15) 1.00492(7)
Co2A_3 Co 0.50275(12) 0.33983(15) 1.00492(7)
O2_2 O 0.7445(5) -0.0992(6) 1.0036(3)
O2A O 0.2555(5) 0.4008(6) 0.9964(3)
O3A O 0.2481(5) -0.2130(6) 0.9914(3)
O4A O 0.6006(3) -0.4045(7) 1.07931(19)
O5A O 0.4899(4) 0.0768(7) 1.0966(2)
loop_
_geom_bond_atom_site_label_1
_geom_bond_atom_site_label_2
_geom_bond_site_symmetry_1
_geom_bond_site_symmetry_2
Co1 N1 1_555 1_555
Co2 O4 1_555 1_555
P1 C1 1_555 1_555
C1 H1 1_555 1_555
H2 C1 1_555 1_555
C2 H3 1_555 1_555
C3 C2 1_555 1_555
H4 C3 1_555 1_555
H5 C3 1_555 1_555
H6 C3 1_555 1_555
C4 C2 1_555 1_555
H7 C4 1_555 1_555
C5 C4 1_555 1_555
H8 C5 1_555 1_555
H9 C5 1_555 1_555
C6 C5 1_555 1_555
H10 C6 1_555 1_555
H11 C6 1_555 1_555
C7 C6 1_555 1_555
H12 C7 1_555 1_555
H13 C7 1_555 1_555
C8 C7 1_555 1_555
H14 C8 1_555 1_555
H15 C8 1_555 1_555
C9 C4 1_555 1_555
H16 C9 1_555 1_555
H17 C9 1_555 1_555
C10 C11 1_555 1_555
C11 H18 1_555 1_555
H19 C11 1_555 1_555
H20 C11 1_555 1_555
N1 C1 1_555 1_555
H21 N1 1_555 1_555
O1 Co1 1_555 1_555
O2 P1 1_555 1_555
O3 P1 1_555 1_555
O4 Co1 1_555 1_555
H22 O4 1_555 1_555
O5 Co2 1_555 1_555
O6 C10 1_555 1_555
Co1A O2 1_555 1_555
Co1A_2 O3 1_555 1_555
Co2_2 O2 1_555 1_555
Co2A O3 1_555 1_555
Co2A_2 O5 1_555 1_555
Co2A_3 O4 1_555 1_555
O2_2 Co2 1_555 1_555
O2A Co1 1_555 1_555
O3A Co1 1_555 1_555
O4A Co2 1_555 1_555
O5A Co2 1_555 1_555
Co2 O3A 1_555 1_555
P1 O1 1_555 1_555
C2 N1 1_555 1_555
C8 C9 1_555 1_555
C10 O5 1_555 1_555
Co2A_2 O4A 1_555 1_555
Co2A_3 O2A 1_555 1_555
Co2A_3 O5A 1_555 1_555

#END
