
#######################################################################
#
#                 Cambridge Crystallographic Data Centre
#                                CCDC 
#
#######################################################################
#
# If this CIF has been generated from an entry in the Cambridge 
# Structural Database, then it will include bibliographic, chemical, 
# crystal, experimental, refinement or atomic coordinate data resulting 
# from the CCDC's data processing and validation procedures.
#
#######################################################################

data_WUBGOR
_symmetry_cell_setting           monoclinic
_symmetry_space_group_name_H-M   'P 21/c'
_symmetry_Int_Tables_number      14
_space_group_name_Hall           '-P 2ybc'
loop_
_symmetry_equiv_pos_site_id
_symmetry_equiv_pos_as_xyz
1 x,y,z
2 -x,1/2+y,1/2-z
3 -x,-y,-z
4 x,1/2-y,1/2+z
_cell_length_a                   7.4582(15)
_cell_length_b                   18.454(4)
_cell_length_c                   10.380(2)
_cell_angle_alpha                90
_cell_angle_beta                 92.01(3)
_cell_angle_gamma                90
_cell_volume                     1427.76
loop_
_atom_site_label
_atom_site_type_symbol
_atom_site_fract_x
_atom_site_fract_y
_atom_site_fract_z
O1 O 0.6934(3) 0.68353(11) 0.8895(2)
C1 C 0.1906(4) 0.5530(2) 0.4200(3)
H1 H 0.1472 0.5934 0.3754
N1 N 0.2603(3) 0.49919(18) 0.3530(3)
C2 C 0.2484(3) 0.49287(16) 0.6203(3)
C3 C 0.0967(4) 0.74132(16) 0.7491(3)
H2 H -0.0252 0.7313 0.7530
C4 C 0.3238(4) 0.4420(2) 0.4183(3)
H3 H 0.3700 0.4035 0.3721
C5 C 0.1790(4) 0.55199(18) 0.5534(3)
H4 H 0.1260 0.5901 0.5965
C6 C 0.3239(4) 0.81276(16) 0.6776(3)
H5 H 0.3612 0.8528 0.6313
C7 C 0.2170(4) 0.69605(15) 0.8144(3)
H6 H 0.1763 0.6565 0.8607
C8 C 0.3244(4) 0.4369(2) 0.5521(3)
H7 H 0.3746 0.3970 0.5945
C9 C 0.3999(4) 0.71071(14) 0.8097(3)
C10 C 0.2433(3) 0.49034(14) 0.7643(2)
C11 C 0.4532(4) 0.77056(15) 0.7400(3)
H8 H 0.5741 0.7822 0.7354
N2 N 0.1477(3) 0.79890(13) 0.6804(2)
C12 C 0.5360(4) 0.66283(14) 0.8795(3)
O2 O 0.2525(2) 0.51142(9) 1.08504(16)
O3 O 0.4739(2) 0.60380(10) 0.92412(19)
O4 O 0.0519(2) 0.38734(9) 0.97729(18)
O5 O 0.3748(2) 0.46189(10) 0.82490(17)
O6 O 0.1086(2) 0.51816(10) 0.81584(17)
Sc1 Sc 0.0000 0.5000 1.0000
Sc2 Sc 0.5000 0.5000 1.0000
C1B C -0.1906(4) 0.4470(2) 1.5800(3)
H1B H -0.1472 0.4066 1.6246
N1B N -0.2603(3) 0.50081(18) 1.6470(3)
C2B C -0.2484(3) 0.50713(16) 1.3797(3)
C4B C -0.3238(4) 0.5580(2) 1.5817(3)
H3B H -0.3700 0.5965 1.6279
C5B C -0.1790(4) 0.44801(18) 1.4466(3)
H4B H -0.1260 0.4099 1.4035
C8B C -0.3244(4) 0.5631(2) 1.4479(3)
H7B H -0.3746 0.6030 1.4055
C10B C -0.2433(3) 0.50966(14) 1.2357(2)
O2B O -0.2525(2) 0.48858(9) 0.91496(16)
O4B O -0.0519(2) 0.61266(9) 1.02271(18)
O5B O -0.3748(2) 0.53811(10) 1.17510(17)
O6B O -0.1086(2) 0.48184(10) 1.18416(17)
O1B O 0.3066(3) 0.31647(11) 1.1105(2)
C3B C 0.9033(4) 0.25868(16) 1.2509(3)
H2B H 1.0252 0.2687 1.2470
C6B C 0.6761(4) 0.18724(16) 1.3224(3)
H5B H 0.6388 0.1472 1.3687
C7B C 0.7830(4) 0.30395(15) 1.1856(3)
H6B H 0.8237 0.3435 1.1393
C9B C 0.6001(4) 0.28929(14) 1.1903(3)
C11B C 0.5468(4) 0.22944(15) 1.2600(3)
H8B H 0.4259 0.2178 1.2646
N2B N 0.8523(3) 0.20110(13) 1.3196(2)
C12B C 0.4640(4) 0.33717(14) 1.1205(3)
O3B O 0.5261(2) 0.39620(10) 1.07588(19)
O2B_2 O 0.7475(2) 0.48858(9) 0.91496(16)
O5B_2 O 0.6252(2) 0.53811(10) 1.17510(17)
Sc2_2 Sc -0.5000 0.5000 1.0000
loop_
_geom_bond_atom_site_label_1
_geom_bond_atom_site_label_2
_geom_bond_site_symmetry_1
_geom_bond_site_symmetry_2
O1 C12 1_555 1_555
C1 H1 1_555 1_555
N1 C1 1_555 1_555
C2 C5 1_555 1_555
C3 H2 1_555 1_555
C4 N1 1_555 1_555
H3 C4 1_555 1_555
C5 C1 1_555 1_555
H4 C5 1_555 1_555
C6 H5 1_555 1_555
C7 C3 1_555 1_555
H6 C7 1_555 1_555
C8 C2 1_555 1_555
H7 C8 1_555 1_555
C9 C7 1_555 1_555
C10 C2 1_555 1_555
C11 C6 1_555 1_555
H8 C11 1_555 1_555
N2 C3 1_555 1_555
C12 C9 1_555 1_555
O2 Sc1 1_555 1_555
O3 C12 1_555 1_555
O4 Sc1 1_555 1_555
O5 C10 1_555 1_555
O6 C10 1_555 1_555
Sc1 O6 1_555 1_555
Sc2 O2 1_555 1_555
C1B H1B 1_555 1_555
N1B C1B 1_555 1_555
C2B C5B 1_555 1_555
C4B N1B 1_555 1_555
H3B C4B 1_555 1_555
C5B C1B 1_555 1_555
H4B C5B 1_555 1_555
C8B C2B 1_555 1_555
H7B C8B 1_555 1_555
C10B C2B 1_555 1_555
O2B Sc1 1_555 1_555
O4B Sc1 1_555 1_555
O5B C10B 1_555 1_555
O6B Sc1 1_555 1_555
O1B C12B 1_555 1_555
C3B H2B 1_555 1_555
C6B H5B 1_555 1_555
C7B C3B 1_555 1_555
H6B C7B 1_555 1_555
C9B C7B 1_555 1_555
C11B C6B 1_555 1_555
H8B C11B 1_555 1_555
N2B C3B 1_555 1_555
C12B C9B 1_555 1_555
O3B Sc2 1_555 1_555
O2B_2 Sc2 1_555 1_555
O5B_2 Sc2 1_555 1_555
Sc2_2 O2B 1_555 1_555
C4 C8 1_555 1_555
C6 N2 1_555 1_555
C9 C11 1_555 1_555
O3 Sc2 1_555 1_555
O5 Sc2 1_555 1_555
C4B C8B 1_555 1_555
C10B O6B 1_555 1_555
O5B Sc2_2 1_555 1_555
C6B N2B 1_555 1_555
C9B C11B 1_555 1_555
C12B O3B 1_555 1_555

#END
