
#######################################################################
#
#                 Cambridge Crystallographic Data Centre
#                                CCDC 
#
#######################################################################
#
# If this CIF has been generated from an entry in the Cambridge 
# Structural Database, then it will include bibliographic, chemical, 
# crystal, experimental, refinement or atomic coordinate data resulting 
# from the CCDC's data processing and validation procedures.
#
#######################################################################

data_WUBGIL
_symmetry_cell_setting           orthorhombic
_symmetry_space_group_name_H-M   'F d d d'
_symmetry_Int_Tables_number      70
_space_group_name_Hall           '-F 2uv 2vw'
loop_
_symmetry_equiv_pos_site_id
_symmetry_equiv_pos_as_xyz
1 x,y,z
2 1/4-x,1/4-y,z
3 x,1/4-y,1/4-z
4 1/4-x,y,1/4-z
5 x,1/2+y,1/2+z
6 1/4-x,3/4-y,1/2+z
7 x,3/4-y,3/4-z
8 1/4-x,1/2+y,3/4-z
9 1/2+x,y,1/2+z
10 3/4-x,1/4-y,1/2+z
11 1/2+x,1/4-y,3/4-z
12 3/4-x,y,3/4-z
13 1/2+x,1/2+y,z
14 3/4-x,3/4-y,z
15 1/2+x,3/4-y,1/4-z
16 3/4-x,1/2+y,1/4-z
17 -x,-y,-z
18 3/4+x,3/4+y,-z
19 -x,3/4+y,3/4+z
20 3/4+x,-y,3/4+z
21 -x,1/2-y,1/2-z
22 3/4+x,1/4+y,1/2-z
23 -x,1/4+y,1/4+z
24 3/4+x,1/2-y,1/4+z
25 1/2-x,-y,1/2-z
26 1/4+x,3/4+y,1/2-z
27 1/2-x,3/4+y,1/4+z
28 1/4+x,-y,1/4+z
29 1/2-x,1/2-y,-z
30 1/4+x,1/4+y,-z
31 1/2-x,1/4+y,3/4+z
32 1/4+x,1/2-y,3/4+z
_cell_length_a                   31.8861(12)
_cell_length_b                   20.2788(6)
_cell_length_c                   10.5793(3)
_cell_angle_alpha                90
_cell_angle_beta                 90
_cell_angle_gamma                90
_cell_volume                     6840.7
loop_
_atom_site_label
_atom_site_type_symbol
_atom_site_fract_x
_atom_site_fract_y
_atom_site_fract_z
Sc1 Sc 0.8750 0.8750 0.3750
Sc2 Sc 0.76838(5) 0.8750 0.8750
O1 O 0.77094(16) 0.6735(2) 0.7567(4)
O2 O 0.80936(14) 0.89373(19) 0.7286(4)
O3 O 0.84109(14) 0.91436(19) 0.5471(4)
O4 O 0.76968(16) 0.7773(2) 0.8195(4)
O5 O 0.71748(14) 0.8555(2) 0.9995(4)
H1 H 0.7263 0.8373 1.0635
N1 N 0.83026(15) 0.7970(2) 0.4507(4)
N2 N 0.79983(17) 0.7069(2) 0.5205(5)
H2 H 0.7908 0.6669 0.5226
C1 C 0.8203(2) 0.7353(3) 0.4248(6)
H3 H 0.8268 0.7141 0.3492
C2 C 0.81403(16) 0.8089(3) 0.5706(5)
C3 C 0.82164(18) 0.8768(3) 0.6191(5)
C4 C 0.79564(18) 0.7531(3) 0.6152(5)
C5 C 0.77717(17) 0.7331(3) 0.7387(5)
O1F O 0.77094(16) 1.0765(2) -0.0067(4)
O2F O 0.80936(14) 0.85627(19) 0.0214(4)
O3F O 0.84109(14) 0.83564(19) 0.2029(4)
O4F O 0.76968(16) 0.9727(2) -0.0695(4)
N1F N 0.83026(15) 0.9530(2) 0.2993(4)
N2F N 0.79983(17) 1.0431(2) 0.2295(5)
H2F H 0.7908 1.0831 0.2274
C1F C 0.8203(2) 1.0147(3) 0.3252(6)
H3F H 0.8268 1.0359 0.4008
C2F C 0.81403(16) 0.9411(3) 0.1794(5)
C3F C 0.82164(18) 0.8732(3) 0.1309(5)
C4F C 0.79564(18) 0.9969(3) 0.1348(5)
C5F C 0.77717(17) 1.0169(3) 0.0113(5)
O1K O 0.97906(16) 0.6735(2) -0.0067(4)
O2K O 0.94064(14) 0.89373(19) 0.0214(4)
O3K O 0.90891(14) 0.91436(19) 0.2029(4)
O4K O 0.98032(16) 0.7773(2) -0.0695(4)
N1K N 0.91974(15) 0.7970(2) 0.2993(4)
N2K N 0.95017(17) 0.7069(2) 0.2295(5)
H2K H 0.9592 0.6669 0.2274
C1K C 0.9297(2) 0.7353(3) 0.3252(6)
H3K H 0.9232 0.7141 0.4008
C2K C 0.93597(16) 0.8089(3) 0.1794(5)
C3K C 0.92836(18) 0.8768(3) 0.1309(5)
C4K C 0.95436(18) 0.7531(3) 0.1348(5)
C5K C 0.97283(17) 0.7331(3) 0.0113(5)
Sc2K Sc 0.98162(5) 0.8750 0.8750
O1M O 0.97906(16) 1.0765(2) 0.7567(4)
O2M O 0.94064(14) 0.85627(19) 0.7286(4)
O3M O 0.90891(14) 0.83564(19) 0.5471(4)
O4M O 0.98032(16) 0.9727(2) 0.8195(4)
O5M O 1.03252(14) 0.8945(2) 0.9995(4)
H1M H 1.0237 0.9127 1.0635
N1M N 0.91974(15) 0.9530(2) 0.4507(4)
N2M N 0.95017(17) 1.0431(2) 0.5205(5)
H2M H 0.9592 1.0831 0.5226
C1M C 0.9297(2) 1.0147(3) 0.4248(6)
H3M H 0.9232 1.0359 0.3492
C2M C 0.93597(16) 0.9411(3) 0.5706(5)
C3M C 0.92836(18) 0.8732(3) 0.6191(5)
C4M C 0.95436(18) 0.9969(3) 0.6152(5)
C5M C 0.97283(17) 1.0169(3) 0.7387(5)
O5F O 0.71748(14) 0.8945(2) 0.7505(4)
H1F H 0.7263 0.9127 0.6865
O5K O 1.03252(14) 0.8555(2) 0.7505(4)
H1K H 1.0237 0.8373 0.6865
Sc2_2 Sc 0.76838(5) 0.8750 -0.1250
Sc2K_2 Sc 0.98162(5) 0.8750 -0.1250
O2F_2 O 0.80936(14) 0.85627(19) 1.0214(4)
O2K_2 O 0.94064(14) 0.89373(19) 1.0214(4)
O4F_2 O 0.76968(16) 0.9727(2) 0.9305(4)
O4K_2 O 0.98032(16) 0.7773(2) 0.9305(4)
loop_
_geom_bond_atom_site_label_1
_geom_bond_atom_site_label_2
_geom_bond_site_symmetry_1
_geom_bond_site_symmetry_2
Sc1 O3 1_555 1_555
Sc2 O2 1_555 1_555
O1 C5 1_555 1_555
O2 C3 1_555 1_555
O3 C3 1_555 1_555
O4 Sc2 1_555 1_555
O5 Sc2 1_555 1_555
H1 O5 1_555 1_555
N1 Sc1 1_555 1_555
N2 H2 1_555 1_555
C1 N1 1_555 1_555
H3 C1 1_555 1_555
C2 N1 1_555 1_555
C3 C2 1_555 1_555
C4 N2 1_555 1_555
C5 O4 1_555 1_555
O1F C5F 1_555 1_555
O2F C3F 1_555 1_555
O3F Sc1 1_555 1_555
O4F C5F 1_555 1_555
N1F Sc1 1_555 1_555
N2F H2F 1_555 1_555
C1F N1F 1_555 1_555
H3F C1F 1_555 1_555
C2F N1F 1_555 1_555
C3F O3F 1_555 1_555
C4F N2F 1_555 1_555
C5F C4F 1_555 1_555
O1K C5K 1_555 1_555
O2K C3K 1_555 1_555
O3K Sc1 1_555 1_555
O4K C5K 1_555 1_555
N1K Sc1 1_555 1_555
N2K H2K 1_555 1_555
C1K N1K 1_555 1_555
H3K C1K 1_555 1_555
C2K N1K 1_555 1_555
C3K O3K 1_555 1_555
C4K N2K 1_555 1_555
C5K C4K 1_555 1_555
Sc2K O2M 1_555 1_555
O1M C5M 1_555 1_555
O2M C3M 1_555 1_555
O3M Sc1 1_555 1_555
O4M Sc2K 1_555 1_555
O5M Sc2K 1_555 1_555
H1M O5M 1_555 1_555
N1M Sc1 1_555 1_555
N2M H2M 1_555 1_555
C1M N1M 1_555 1_555
H3M C1M 1_555 1_555
C2M N1M 1_555 1_555
C3M O3M 1_555 1_555
C4M N2M 1_555 1_555
C5M O4M 1_555 1_555
O5F Sc2 1_555 1_555
H1F O5F 1_555 1_555
O5K Sc2K 1_555 1_555
H1K O5K 1_555 1_555
Sc2_2 O2F 1_555 1_555
Sc2K_2 O2K 1_555 1_555
O2F_2 Sc2 1_555 1_555
O2K_2 Sc2K 1_555 1_555
O4F_2 Sc2 1_555 1_555
O4K_2 Sc2K 1_555 1_555
N2 C1 1_555 1_555
C2 C4 1_555 1_555
C4 C5 1_555 1_555
O4F Sc2_2 1_555 1_555
N2F C1F 1_555 1_555
C2F C3F 1_555 1_555
C2F C4F 1_555 1_555
O4K Sc2K_2 1_555 1_555
N2K C1K 1_555 1_555
C2K C3K 1_555 1_555
C2K C4K 1_555 1_555
N2M C1M 1_555 1_555
C2M C3M 1_555 1_555
C2M C4M 1_555 1_555
C4M C5M 1_555 1_555

#END
