
#######################################################################
#
#                 Cambridge Crystallographic Data Centre
#                                CCDC 
#
#######################################################################
#
# If this CIF has been generated from an entry in the Cambridge 
# Structural Database, then it will include bibliographic, chemical, 
# crystal, experimental, refinement or atomic coordinate data resulting 
# from the CCDC's data processing and validation procedures.
#
#######################################################################

data_WUBLIQ
_symmetry_cell_setting           monoclinic
_symmetry_space_group_name_H-M   'C 2/c'
_symmetry_Int_Tables_number      15
_space_group_name_Hall           '-C 2yn'
loop_
_symmetry_equiv_pos_site_id
_symmetry_equiv_pos_as_xyz
1 x,y,z
2 -x,y,1/2-z
3 1/2+x,1/2+y,z
4 1/2-x,1/2+y,1/2-z
5 -x,-y,-z
6 x,-y,1/2+z
7 1/2-x,1/2-y,-z
8 1/2+x,1/2-y,1/2+z
_cell_length_a                   23.472(7)
_cell_length_b                   16.398(3)
_cell_length_c                   18.803(5)
_cell_angle_alpha                90
_cell_angle_beta                 112.30(3)
_cell_angle_gamma                90
_cell_volume                     6695.89
loop_
_atom_site_label
_atom_site_type_symbol
_atom_site_fract_x
_atom_site_fract_y
_atom_site_fract_z
Cu1 Cu 0.27745(6) 0.75981(8) 0.18359(8)
Cu2 Cu 0.27012(6) 0.94172(8) 0.19734(7)
N1 N 0.4330(4) 0.9727(5) 0.4010(4)
C1 C 0.3825(4) 0.9784(6) 0.3356(6)
H1 H 0.3677 1.0312 0.3226
N2 N 0.3509(3) 0.9225(4) 0.2874(4)
C2 C 0.3752(4) 0.8475(6) 0.3095(5)
C3 C 0.4265(4) 0.8322(5) 0.3775(5)
C4 C 0.4552(4) 0.8982(6) 0.4228(6)
N3 N 0.5058(4) 0.8881(5) 0.4863(4)
H2 H 0.5240 0.9298 0.5130
H3 H 0.5201 0.8399 0.5004
N4 N 0.4390(4) 0.7498(5) 0.3814(4)
C5 C 0.3934(4) 0.7183(5) 0.3204(5)
H4 H 0.3890 0.6626 0.3107
N5 N 0.3537(3) 0.7748(4) 0.2733(4)
N6 N 0.0795(4) 0.9693(5) 0.0549(5)
C6 C 0.1388(4) 0.9765(6) 0.1004(6)
H5 H 0.1516 1.0292 0.1173
N7 N 0.1827(4) 0.9193(4) 0.1255(4)
C7 C 0.1609(4) 0.8432(5) 0.0973(5)
C8 C 0.0992(4) 0.8265(6) 0.0495(6)
C9 C 0.0586(5) 0.8930(6) 0.0262(7)
N8 N -0.0007(4) 0.8864(5) -0.0201(5)
H6 H -0.0240 0.9288 -0.0308
H7 H -0.0155 0.8398 -0.0392
N9 N 0.0929(4) 0.7452(4) 0.0327(5)
C10 C 0.1478(4) 0.7162(6) 0.0707(6)
H8 H 0.1568 0.6609 0.0711
N10 N 0.1917(3) 0.7730(4) 0.1104(4)
N11 N 0.2523(5) 0.5024(5) 0.0278(4)
C11 C 0.2474(6) 0.4348(7) 0.0650(6)
H9 H 0.2414 0.3860 0.0378
N12 N 0.2502(5) 0.4303(5) 0.1361(4)
C12 C 0.2591(5) 0.5060(6) 0.1720(5)
C13 C 0.2674(4) 0.5784(6) 0.1394(5)
C14 C 0.2622(5) 0.5779(6) 0.0637(6)
N13 N 0.2675(4) 0.6437(5) 0.0244(4)
H10 H 0.2746 0.6907 0.0463
H11 H 0.2637 0.6389 -0.0227
N14 N 0.2727(4) 0.6405(5) 0.1920(4)
C15 C 0.2635(4) 0.6028(5) 0.2491(6)
H12 H 0.2625 0.6313 0.2914
N15 N 0.2557(3) 0.5206(4) 0.2431(4)
O1 O 0.2948(3) 0.8599(4) 0.1405(3)
O2 O 0.2865(3) 1.0452(4) 0.1277(3)
C16 C 0.1648(5) 0.7735(8) 0.2675(7)
O3 O 0.2292(3) 0.7858(4) 0.2853(5)
Cu2C Cu 0.22988(6) 0.44172(8) 0.30266(7)
N15C N 0.2443(3) 1.0206(4) 0.2569(4)
loop_
_geom_bond_atom_site_label_1
_geom_bond_atom_site_label_2
_geom_bond_site_symmetry_1
_geom_bond_site_symmetry_2
Cu1 N5 1_555 1_555
Cu2 N2 1_555 1_555
N1 C1 1_555 1_555
C1 H1 1_555 1_555
N2 C1 1_555 1_555
C2 N2 1_555 1_555
C3 C2 1_555 1_555
C4 N1 1_555 1_555
N3 C4 1_555 1_555
H2 N3 1_555 1_555
H3 N3 1_555 1_555
N4 C3 1_555 1_555
C5 N4 1_555 1_555
H4 C5 1_555 1_555
N5 C2 1_555 1_555
N6 C6 1_555 1_555
C6 H5 1_555 1_555
N7 Cu2 1_555 1_555
C7 N7 1_555 1_555
C8 C7 1_555 1_555
C9 N6 1_555 1_555
N8 C9 1_555 1_555
H6 N8 1_555 1_555
H7 N8 1_555 1_555
N9 C8 1_555 1_555
C10 N9 1_555 1_555
H8 C10 1_555 1_555
N10 Cu1 1_555 1_555
N11 C11 1_555 1_555
C11 H9 1_555 1_555
N12 C11 1_555 1_555
C12 N12 1_555 1_555
C13 C12 1_555 1_555
C14 N11 1_555 1_555
N13 C14 1_555 1_555
H10 N13 1_555 1_555
H11 N13 1_555 1_555
N14 Cu1 1_555 1_555
C15 N14 1_555 1_555
H12 C15 1_555 1_555
N15 C12 1_555 1_555
O1 Cu1 1_555 1_555
O2 Cu2 1_555 1_555
C16 O3 1_555 1_555
O3 Cu1 1_555 1_555
Cu2C N15 1_555 1_555
N15C Cu2 1_555 1_555
Cu2 O1 1_555 1_555
C3 C4 1_555 1_555
C5 N5 1_555 1_555
C6 N7 1_555 1_555
C7 N10 1_555 1_555
C8 C9 1_555 1_555
C10 N10 1_555 1_555
C13 C14 1_555 1_555
C13 N14 1_555 1_555
C15 N15 1_555 1_555

#END
