
#######################################################################
#
#                 Cambridge Crystallographic Data Centre
#                                CCDC 
#
#######################################################################
#
# If this CIF has been generated from an entry in the Cambridge 
# Structural Database, then it will include bibliographic, chemical, 
# crystal, experimental, refinement or atomic coordinate data resulting 
# from the CCDC's data processing and validation procedures.
#
#######################################################################

data_WUBMAJ
_symmetry_cell_setting           monoclinic
_symmetry_space_group_name_H-M   'P 21/c'
_symmetry_Int_Tables_number      14
_space_group_name_Hall           '-P 2ybc'
loop_
_symmetry_equiv_pos_site_id
_symmetry_equiv_pos_as_xyz
1 x,y,z
2 -x,1/2+y,1/2-z
3 -x,-y,-z
4 x,1/2-y,1/2+z
_cell_length_a                   10.6733(17)
_cell_length_b                   10.8591(17)
_cell_length_c                   11.0886(18)
_cell_angle_alpha                90
_cell_angle_beta                 102.446(2)
_cell_angle_gamma                90
_cell_volume                     1254.99
loop_
_atom_site_label
_atom_site_type_symbol
_atom_site_fract_x
_atom_site_fract_y
_atom_site_fract_z
Sn1 Sn 0.35666(7) 0.16519(7) 0.43551(7)
O1 O 0.2159(8) 0.3034(7) 0.3929(7)
O2 O 0.3712(8) 0.3624(7) 0.3059(8)
O3 O 0.2271(7) 0.4014(7) 0.0398(7)
O4 O 0.3910(8) 0.5248(7) 0.0593(8)
C1 C 0.2619(12) 0.3784(11) 0.3252(11)
C2 C 0.1789(11) 0.4825(10) 0.2677(11)
H1 H 0.1039 0.4462 0.2125
C3 C 0.2432(11) 0.5650(10) 0.1897(10)
H2 H 0.3173 0.6032 0.2445
C4 C 0.1538(13) 0.6681(12) 0.1312(14)
H3 H 0.1991 0.7222 0.0856
H4 H 0.0813 0.6331 0.0734
C5 C 0.1057(15) 0.7419(12) 0.2275(16)
H5 H 0.1772 0.7851 0.2790
H6 H 0.0446 0.8029 0.1867
C6 C 0.0428(14) 0.6616(13) 0.3071(14)
H7 H -0.0357 0.6277 0.2574
H8 H 0.0199 0.7113 0.3718
C7 C 0.1287(13) 0.5570(12) 0.3654(12)
H9 H 0.0811 0.5030 0.4088
H10 H 0.2008 0.5902 0.4251
C8 C 0.2920(11) 0.4950(11) 0.0923(10)
C9 C 0.3228(13) 0.0624(12) 0.2707(10)
H11 H 0.2836 0.1143 0.2029
H12 H 0.2667 -0.0052 0.2772
H13 H 0.4027 0.0314 0.2568
C10 C 0.5029(11) 0.2500(11) 0.5637(11)
H14 H 0.5845 0.2275 0.5470
H15 H 0.4989 0.2238 0.6454
H16 H 0.4927 0.3378 0.5576
Sn1C Sn 0.35666(7) 0.33481(7) -0.06449(7)
O3C O 0.2271(7) 0.0986(7) 0.5398(7)
O4C O 0.3910(8) -0.0248(7) 0.5593(8)
loop_
_geom_bond_atom_site_label_1
_geom_bond_atom_site_label_2
_geom_bond_site_symmetry_1
_geom_bond_site_symmetry_2
Sn1 O1 1_555 1_555
O1 C1 1_555 1_555
O2 Sn1 1_555 1_555
O3 C8 1_555 1_555
O4 C8 1_555 1_555
C1 O2 1_555 1_555
C2 C1 1_555 1_555
H1 C2 1_555 1_555
C3 C2 1_555 1_555
H2 C3 1_555 1_555
C4 C3 1_555 1_555
H3 C4 1_555 1_555
H4 C4 1_555 1_555
C5 C4 1_555 1_555
H5 C5 1_555 1_555
H6 C5 1_555 1_555
C6 C5 1_555 1_555
H7 C6 1_555 1_555
H8 C6 1_555 1_555
C7 C2 1_555 1_555
H9 C7 1_555 1_555
H10 C7 1_555 1_555
C8 C3 1_555 1_555
C9 Sn1 1_555 1_555
H11 C9 1_555 1_555
H12 C9 1_555 1_555
H13 C9 1_555 1_555
C10 Sn1 1_555 1_555
H14 C10 1_555 1_555
H15 C10 1_555 1_555
H16 C10 1_555 1_555
Sn1C O3 1_555 1_555
O3C Sn1 1_555 1_555
O4C Sn1 1_555 1_555
O4 Sn1C 1_555 1_555
C6 C7 1_555 1_555

#END
