
#######################################################################
#
#                 Cambridge Crystallographic Data Centre
#                                CCDC 
#
#######################################################################
#
# If this CIF has been generated from an entry in the Cambridge 
# Structural Database, then it will include bibliographic, chemical, 
# crystal, experimental, refinement or atomic coordinate data resulting 
# from the CCDC's data processing and validation procedures.
#
#######################################################################

data_WUBMEN
_symmetry_cell_setting           monoclinic
_symmetry_space_group_name_H-M   'P 21/c'
_symmetry_Int_Tables_number      14
_space_group_name_Hall           '-P 2ybc'
loop_
_symmetry_equiv_pos_site_id
_symmetry_equiv_pos_as_xyz
1 x,y,z
2 -x,1/2+y,1/2-z
3 -x,-y,-z
4 x,1/2-y,1/2+z
_cell_length_a                   9.4552(12)
_cell_length_b                   17.316(2)
_cell_length_c                   8.7500(11)
_cell_angle_alpha                90
_cell_angle_beta                 93.211(2)
_cell_angle_gamma                90
_cell_volume                     1430.36
loop_
_atom_site_label
_atom_site_type_symbol
_atom_site_fract_x
_atom_site_fract_y
_atom_site_fract_z
Sn1 Sn -0.216707(19) 0.141039(11) 0.88524(2)
O1 O -0.0696(2) 0.07691(11) 0.7706(2)
O2 O -0.0669(2) 0.17905(13) 0.6225(3)
O3 O 0.6324(2) 0.09587(11) 0.7178(2)
O4 O 0.4911(2) 0.13213(12) 0.8972(2)
O5 O 0.4337(2) 0.09106(15) 0.1813(2)
H1 H 0.435(4) 0.109(2) 0.0925(18)
O6 O 0.2109(3) 0.1220(2) 0.1344(3)
O7 O -0.0088(2) 0.19088(12) 0.9851(3)
H2 H -0.022(4) 0.2325(12) 1.032(4)
H3 H 0.056(3) 0.167(2) 1.035(4)
C1 C 0.1210(3) 0.08575(17) 0.6044(3)
H4 H 0.1185 0.0281 0.6094
C2 C 0.2435(3) 0.11454(17) 0.7119(3)
H5 H 0.2456 0.1717 0.7114
H6 H 0.2293 0.0971 0.8177
C3 C 0.3838(3) 0.08316(17) 0.6597(3)
H7 H 0.3773 0.0255 0.6609
C4 C 0.4072(3) 0.10760(18) 0.4944(3)
H8 H 0.4967 0.0850 0.4614
H9 H 0.4151 0.1645 0.4889
C5 C 0.2831(3) 0.08007(18) 0.3876(3)
H10 H 0.2806 0.0224 0.3934
C6 C 0.1412(3) 0.10980(17) 0.4384(3)
H11 H 0.0634 0.0884 0.3708
H12 H 0.1383 0.1668 0.4300
C7 C -0.0147(3) 0.11683(16) 0.6645(3)
C8 C 0.5078(3) 0.10563(16) 0.7671(3)
C9 C 0.3034(3) 0.10148(18) 0.2235(3)
C10 C -0.2300(3) 0.06422(17) 1.0702(3)
H13 H -0.2981 0.0232 1.0424
H14 H -0.2614 0.0923 1.1595
H15 H -0.1367 0.0414 1.0950
C11 C -0.2730(3) 0.25755(16) 0.8481(4)
H16 H -0.1916 0.2859 0.8119
H17 H -0.3015 0.2804 0.9441
H18 H -0.3520 0.2605 0.7709
Sn1_2 Sn 0.783293(19) 0.141039(11) 0.88524(2)
O3_2 O -0.3676(2) 0.09587(11) 0.7178(2)
O4_2 O -0.5089(2) 0.13213(12) 0.8972(2)
loop_
_geom_bond_atom_site_label_1
_geom_bond_atom_site_label_2
_geom_bond_site_symmetry_1
_geom_bond_site_symmetry_2
Sn1 O1 1_555 1_555
O1 C7 1_555 1_555
O2 C7 1_555 1_555
O3 C8 1_555 1_555
O4 C8 1_555 1_555
O5 H1 1_555 1_555
O6 C9 1_555 1_555
O7 Sn1 1_555 1_555
H2 O7 1_555 1_555
H3 O7 1_555 1_555
C1 H4 1_555 1_555
C2 C1 1_555 1_555
H5 C2 1_555 1_555
H6 C2 1_555 1_555
C3 C2 1_555 1_555
H7 C3 1_555 1_555
C4 C3 1_555 1_555
H8 C4 1_555 1_555
H9 C4 1_555 1_555
C5 C4 1_555 1_555
H10 C5 1_555 1_555
C6 C1 1_555 1_555
H11 C6 1_555 1_555
H12 C6 1_555 1_555
C7 C1 1_555 1_555
C8 C3 1_555 1_555
C9 O5 1_555 1_555
C10 Sn1 1_555 1_555
H13 C10 1_555 1_555
H14 C10 1_555 1_555
H15 C10 1_555 1_555
C11 Sn1 1_555 1_555
H16 C11 1_555 1_555
H17 C11 1_555 1_555
H18 C11 1_555 1_555
Sn1_2 O3 1_555 1_555
O3_2 Sn1 1_555 1_555
O4_2 Sn1 1_555 1_555
O4 Sn1_2 1_555 1_555
C5 C6 1_555 1_555
C5 C9 1_555 1_555

#END
