
#######################################################################
#
#                 Cambridge Crystallographic Data Centre
#                                CCDC 
#
#######################################################################
#
# If this CIF has been generated from an entry in the Cambridge 
# Structural Database, then it will include bibliographic, chemical, 
# crystal, experimental, refinement or atomic coordinate data resulting 
# from the CCDC's data processing and validation procedures.
#
#######################################################################

data_WUBNEO
_symmetry_cell_setting           triclinic
_symmetry_space_group_name_H-M   'P -1'
_symmetry_Int_Tables_number      2
_space_group_name_Hall           '-P 1'
loop_
_symmetry_equiv_pos_site_id
_symmetry_equiv_pos_as_xyz
1 x,y,z
2 -x,-y,-z
_cell_length_a                   9.8337(12)
_cell_length_b                   10.0529(7)
_cell_length_c                   15.735(3)
_cell_angle_alpha                98.507(10)
_cell_angle_beta                 106.136(13)
_cell_angle_gamma                97.295(8)
_cell_volume                     1454.48
loop_
_atom_site_label
_atom_site_type_symbol
_atom_site_fract_x
_atom_site_fract_y
_atom_site_fract_z
Co1 Co -0.26339(9) 0.21204(9) -0.58546(6)
O1 O -1.1059(4) 0.1904(4) -0.6458(3)
C1 C 0.6432(10) 0.7841(8) 0.4074(5)
H1 H 0.6188 0.7077 0.4306
O2 O -0.4355(5) 0.1959(5) -0.7069(3)
O3 O -0.9876(6) 0.3977(5) -0.6316(5)
C2 C -0.9228(6) 0.2153(6) -0.7146(4)
C3 C -0.9782(6) 0.1370(6) -0.8020(4)
C4 C -1.1839(6) -0.0312(6) -0.9138(4)
H2 H -1.1207 -0.0925 -0.9143
C5 C -1.3242(6) -0.0684(7) -0.9701(5)
H3 H -1.3525 -0.1530 -1.0088
N1 N -0.1812(6) 0.2169(5) -0.4495(4)
N2 N 0.6956(6) 0.7819(6) 0.3357(4)
N3 N 0.6916(6) 0.9956(5) 0.3934(4)
C6 C -0.5229(7) 0.2115(6) -0.6628(5)
C7 C -0.6810(6) 0.1890(6) -0.7118(4)
C8 C -1.3752(7) 0.1425(6) -0.9068(4)
H4 H -1.4400 0.2003 -0.9007
C9 C -0.7756(6) 0.2392(6) -0.6717(4)
H5 H -0.7400 0.2913 -0.6137
N4 N -0.1864(6) 0.2285(6) -0.3097(4)
C10 C -1.1352(7) 0.0961(6) -0.8563(4)
C11 C -1.4256(6) 0.0207(6) -0.9699(4)
C12 C -1.0159(7) 0.2733(6) -0.6611(4)
C13 C -0.8809(6) 0.0880(6) -0.8442(4)
H6 H -0.9152 0.0375 -0.9027
C14 C 0.0730(8) 0.3439(7) 0.0020(5)
H7 H 0.0858 0.3158 0.0570
C15 C -0.7336(6) 0.1140(6) -0.7996(4)
H8 H -0.6705 0.0813 -0.8284
C16 C -0.0998(7) 0.1270(7) -0.4083(5)
H9 H -0.0504 0.0699 -0.4357
C17 C 0.7262(8) 0.9159(6) 0.3331(5)
H10 H 0.7681 0.9478 0.2920
C18 C 0.7126(9) 0.6681(7) 0.2781(6)
H11 H 0.7436 0.6000 0.3134
H12 H 0.7878 0.6964 0.2523
C19 C 0.3194(8) 0.4926(7) 0.0638(5)
C20 C 0.5770(8) 0.6034(6) 0.2024(5)
C21 C 0.3987(8) 0.6162(7) 0.0665(5)
H13 H 0.3666 0.6639 0.0206
C22 C -0.2180(9) 0.2743(10) -0.2244(5)
H14 H -0.2694 0.1977 -0.2083
H15 H -0.2782 0.3436 -0.2320
C23 C -1.2349(6) 0.1815(6) -0.8534(4)
H16 H -1.2063 0.2662 -0.8147
C24 C -0.1037(8) 0.1355(7) -0.3234(5)
H17 H -0.0579 0.0865 -0.2817
C25 C -0.0523(9) 0.2950(7) -0.0656(5)
H18 H -0.1241 0.2349 -0.0560
C26 C -0.0736(9) 0.3340(7) -0.1480(5)
C27 C 0.1624(9) 0.4702(8) -0.0928(5)
H19 H 0.2346 0.5280 -0.1038
C28 C 0.3760(8) 0.4228(6) 0.1321(5)
H20 H 0.3274 0.3371 0.1318
C29 C -0.2297(8) 0.2761(7) -0.3859(5)
H21 H -0.2870 0.3429 -0.3933
C30 C 0.5243(9) 0.6727(7) 0.1346(6)
H22 H 0.5736 0.7581 0.1348
C31 C 0.1827(8) 0.4353(7) -0.0098(5)
C32 C 0.5002(9) 0.4769(7) 0.1989(6)
H23 H 0.5345 0.4274 0.2434
C33 C 0.0305(9) 0.4176(8) -0.1621(5)
H24 H 0.0168 0.4421 -0.2183
C34 C 0.6324(8) 0.9070(8) 0.4387(6)
H25 H 0.5917 0.9320 0.4841
O4 O -0.2030(5) 0.4349(5) -0.5644(4)
H26 H -0.1728 0.4725 -0.5060
H27 H -0.2767 0.4731 -0.5903
O5 O -0.4815(4) 0.2422(5) -0.5788(3)
O2A O -2.5645(5) -0.1959(5) -1.2931(3)
C2A C -2.0772(6) -0.2153(6) -1.2854(4)
C3A C -2.0218(6) -0.1370(6) -1.1980(4)
C4A C -1.8161(6) 0.0312(6) -1.0862(4)
H2A H -1.8793 0.0925 -1.0857
C5A C -1.6758(6) 0.0684(7) -1.0299(5)
H3A H -1.6475 0.1530 -0.9912
C6A C -2.4771(7) -0.2115(6) -1.3372(5)
C7A C -2.3190(6) -0.1890(6) -1.2882(4)
C8A C -1.6248(7) -0.1425(6) -1.0932(4)
H4A H -1.5600 -0.2003 -1.0993
C9A C -2.2244(6) -0.2392(6) -1.3283(4)
H5A H -2.2600 -0.2913 -1.3863
C10A C -1.8648(7) -0.0961(6) -1.1437(4)
C11A C -1.5744(6) -0.0207(6) -1.0301(4)
C13A C -2.1191(6) -0.0880(6) -1.1558(4)
H6A H -2.0848 -0.0375 -1.0973
C15A C -2.2664(6) -0.1140(6) -1.2004(4)
H8A H -2.3295 -0.0813 -1.1716
C23A C -1.7651(6) -0.1815(6) -1.1466(4)
H16A H -1.7937 -0.2662 -1.1853
O5A O -2.5185(4) -0.2422(5) -1.4212(3)
O1A O -1.8941(4) -0.1904(4) -1.3542(3)
O3A O -2.0124(6) -0.3977(5) -1.3684(5)
C12A C -1.9841(7) -0.2733(6) -1.3389(4)
Co1A Co -2.73661(9) -0.21204(9) -1.41454(6)
C1A C -3.6432(10) -0.7841(8) -2.4074(5)
H1A H -3.6188 -0.7077 -2.4306
N1A N -2.8188(6) -0.2169(5) -1.5505(4)
N2A N -3.6956(6) -0.7819(6) -2.3357(4)
N3A N -3.6916(6) -0.9956(5) -2.3934(4)
N4A N -2.8136(6) -0.2285(6) -1.6903(4)
C14A C -3.0730(8) -0.3439(7) -2.0020(5)
H7A H -3.0858 -0.3158 -2.0570
C16A C -2.9002(7) -0.1270(7) -1.5917(5)
H9A H -2.9496 -0.0699 -1.5643
C17A C -3.7262(8) -0.9159(6) -2.3331(5)
H10A H -3.7681 -0.9478 -2.2920
C18A C -3.7126(9) -0.6681(7) -2.2781(6)
H11A H -3.7436 -0.6000 -2.3134
H12A H -3.7878 -0.6964 -2.2523
C19A C -3.3194(8) -0.4926(7) -2.0638(5)
C20A C -3.5770(8) -0.6034(6) -2.2024(5)
C21A C -3.3987(8) -0.6162(7) -2.0665(5)
H13A H -3.3666 -0.6639 -2.0206
C22A C -2.7820(9) -0.2743(10) -1.7756(5)
H14A H -2.7306 -0.1977 -1.7917
H15A H -2.7218 -0.3436 -1.7680
C24A C -2.8963(8) -0.1355(7) -1.6766(5)
H17A H -2.9421 -0.0865 -1.7183
C25A C -2.9477(9) -0.2950(7) -1.9344(5)
H18A H -2.8759 -0.2349 -1.9440
C26A C -2.9264(9) -0.3340(7) -1.8520(5)
C27A C -3.1624(9) -0.4702(8) -1.9072(5)
H19A H -3.2346 -0.5280 -1.8962
C28A C -3.3760(8) -0.4228(6) -2.1321(5)
H20A H -3.3274 -0.3371 -2.1318
C29A C -2.7703(8) -0.2761(7) -1.6141(5)
H21A H -2.7130 -0.3429 -1.6067
C30A C -3.5243(9) -0.6727(7) -2.1346(6)
H22A H -3.5736 -0.7581 -2.1348
C31A C -3.1827(8) -0.4353(7) -1.9902(5)
C32A C -3.5002(9) -0.4769(7) -2.1989(6)
H23A H -3.5345 -0.4274 -2.2434
C33A C -3.0305(9) -0.4176(8) -1.8379(5)
H24A H -3.0168 -0.4421 -1.7817
C34A C -3.6324(8) -0.9070(8) -2.4387(6)
H25A H -3.5917 -0.9320 -2.4841
O4A O -2.7970(5) -0.4349(5) -1.4356(4)
H26A H -2.8272 -0.4725 -1.4940
H27A H -2.7233 -0.4731 -1.4097
Co1_2 Co -1.26339(9) 0.21204(9) -0.58546(6)
Co1_3 Co 0.73661(9) 1.21204(9) 0.41454(6)
Co1A_2 Co -3.73661(9) -1.21204(9) -2.41454(6)
Co1A_3 Co -1.73661(9) -0.21204(9) -1.41454(6)
O1_2 O -0.1059(4) 0.1904(4) -0.6458(3)
O1A_2 O -2.8941(4) -0.1904(4) -1.3542(3)
N3_2 N -0.3084(6) -0.0044(5) -0.6066(4)
N3A_2 N -2.6916(6) 0.0044(5) -1.3934(4)
loop_
_geom_bond_atom_site_label_1
_geom_bond_atom_site_label_2
_geom_bond_site_symmetry_1
_geom_bond_site_symmetry_2
Co1 O2 1_555 1_555
O1 C12 1_555 1_555
C1 H1 1_555 1_555
O2 C6 1_555 1_555
O3 C12 1_555 1_555
C2 C3 1_555 1_555
C3 C10 1_555 1_555
C4 H2 1_555 1_555
C5 C4 1_555 1_555
H3 C5 1_555 1_555
N1 Co1 1_555 1_555
N2 C1 1_555 1_555
N3 C17 1_555 1_555
C6 C7 1_555 1_555
C7 C9 1_555 1_555
C8 H4 1_555 1_555
C9 C2 1_555 1_555
H5 C9 1_555 1_555
N4 C22 1_555 1_555
C10 C4 1_555 1_555
C11 C5 1_555 1_555
C12 C2 1_555 1_555
C13 C3 1_555 1_555
H6 C13 1_555 1_555
C14 H7 1_555 1_555
C15 C7 1_555 1_555
H8 C15 1_555 1_555
C16 N1 1_555 1_555
H9 C16 1_555 1_555
C17 N2 1_555 1_555
H10 C17 1_555 1_555
C18 N2 1_555 1_555
H11 C18 1_555 1_555
H12 C18 1_555 1_555
C19 C21 1_555 1_555
C20 C18 1_555 1_555
C21 H13 1_555 1_555
C22 H14 1_555 1_555
H15 C22 1_555 1_555
C23 C8 1_555 1_555
H16 C23 1_555 1_555
C24 N4 1_555 1_555
H17 C24 1_555 1_555
C25 C14 1_555 1_555
H18 C25 1_555 1_555
C26 C22 1_555 1_555
C27 H19 1_555 1_555
C28 C19 1_555 1_555
H20 C28 1_555 1_555
C29 N1 1_555 1_555
H21 C29 1_555 1_555
C30 C20 1_555 1_555
H22 C30 1_555 1_555
C31 C14 1_555 1_555
C32 C20 1_555 1_555
H23 C32 1_555 1_555
C33 C26 1_555 1_555
H24 C33 1_555 1_555
C34 C1 1_555 1_555
H25 C34 1_555 1_555
O4 Co1 1_555 1_555
H26 O4 1_555 1_555
H27 O4 1_555 1_555
O5 Co1 1_555 1_555
O2A C6A 1_555 1_555
C2A C3A 1_555 1_555
C3A C10A 1_555 1_555
C4A H2A 1_555 1_555
C5A C4A 1_555 1_555
H3A C5A 1_555 1_555
C6A C7A 1_555 1_555
C7A C9A 1_555 1_555
C8A H4A 1_555 1_555
C9A C2A 1_555 1_555
H5A C9A 1_555 1_555
C10A C4A 1_555 1_555
C11A C11 1_555 1_555
C13A C3A 1_555 1_555
H6A C13A 1_555 1_555
C15A C7A 1_555 1_555
H8A C15A 1_555 1_555
C23A C8A 1_555 1_555
H16A C23A 1_555 1_555
O5A C6A 1_555 1_555
O1A C12A 1_555 1_555
O3A C12A 1_555 1_555
C12A C2A 1_555 1_555
Co1A O2A 1_555 1_555
C1A H1A 1_555 1_555
N1A Co1A 1_555 1_555
N2A C1A 1_555 1_555
N3A C17A 1_555 1_555
N4A C22A 1_555 1_555
C14A H7A 1_555 1_555
C16A N1A 1_555 1_555
H9A C16A 1_555 1_555
C17A N2A 1_555 1_555
H10A C17A 1_555 1_555
C18A N2A 1_555 1_555
H11A C18A 1_555 1_555
H12A C18A 1_555 1_555
C19A C21A 1_555 1_555
C20A C18A 1_555 1_555
C21A H13A 1_555 1_555
C22A H14A 1_555 1_555
H15A C22A 1_555 1_555
C24A N4A 1_555 1_555
H17A C24A 1_555 1_555
C25A C14A 1_555 1_555
H18A C25A 1_555 1_555
C26A C22A 1_555 1_555
C27A H19A 1_555 1_555
C28A C19A 1_555 1_555
H20A C28A 1_555 1_555
C29A N1A 1_555 1_555
H21A C29A 1_555 1_555
C30A C20A 1_555 1_555
H22A C30A 1_555 1_555
C31A C14A 1_555 1_555
C32A C20A 1_555 1_555
H23A C32A 1_555 1_555
C33A C26A 1_555 1_555
H24A C33A 1_555 1_555
C34A C1A 1_555 1_555
H25A C34A 1_555 1_555
O4A Co1A 1_555 1_555
H26A O4A 1_555 1_555
H27A O4A 1_555 1_555
Co1_2 O1 1_555 1_555
Co1_3 N3 1_555 1_555
Co1A_2 N3A 1_555 1_555
Co1A_3 O1A 1_555 1_555
O1_2 Co1 1_555 1_555
O1A_2 Co1A 1_555 1_555
N3_2 Co1 1_555 1_555
N3A_2 Co1A 1_555 1_555
N3 C34 1_555 1_555
C6 O5 1_555 1_555
C8 C11 1_555 1_555
N4 C29 1_555 1_555
C10 C23 1_555 1_555
C13 C15 1_555 1_555
C16 C24 1_555 1_555
C19 C31 1_555 1_555
C21 C30 1_555 1_555
C25 C26 1_555 1_555
C27 C31 1_555 1_555
C27 C33 1_555 1_555
C28 C32 1_555 1_555
C5A C11A 1_555 1_555
C8A C11A 1_555 1_555
C10A C23A 1_555 1_555
C13A C15A 1_555 1_555
O5A Co1A 1_555 1_555
N3A C34A 1_555 1_555
N4A C29A 1_555 1_555
C16A C24A 1_555 1_555
C19A C31A 1_555 1_555
C21A C30A 1_555 1_555
C25A C26A 1_555 1_555
C27A C31A 1_555 1_555
C27A C33A 1_555 1_555
C28A C32A 1_555 1_555

#END
