
#######################################################################
#
#                 Cambridge Crystallographic Data Centre
#                                CCDC 
#
#######################################################################
#
# If this CIF has been generated from an entry in the Cambridge 
# Structural Database, then it will include bibliographic, chemical, 
# crystal, experimental, refinement or atomic coordinate data resulting 
# from the CCDC's data processing and validation procedures.
#
#######################################################################

data_WUBNIS
_symmetry_cell_setting           triclinic
_symmetry_space_group_name_H-M   'P -1'
_symmetry_Int_Tables_number      2
_space_group_name_Hall           '-P 1'
loop_
_symmetry_equiv_pos_site_id
_symmetry_equiv_pos_as_xyz
1 x,y,z
2 -x,-y,-z
_cell_length_a                   7.3524(4)
_cell_length_b                   10.8982(5)
_cell_length_c                   24.6400(14)
_cell_angle_alpha                90.393(4)
_cell_angle_beta                 90.391(4)
_cell_angle_gamma                98.794(4)
_cell_volume                     1951.03
loop_
_atom_site_label
_atom_site_type_symbol
_atom_site_fract_x
_atom_site_fract_y
_atom_site_fract_z
Mn1 Mn 0.10003(12) 0.66090(8) 0.20575(4)
O1 O 0.3808(6) 0.6551(5) 0.2085(2)
O2 O 0.0558(6) 0.4698(4) 0.1860(2)
O3 O 0.0860(7) 0.6095(5) 0.2890(2)
O4 O 0.1632(7) 0.8486(4) 0.2285(2)
N1 N 0.1145(9) 0.7166(6) 0.1232(3)
O5 O -0.1815(7) 0.6689(4) 0.2099(2)
H1 H 0.4080 0.6127 0.2362
H2 H 0.4413 0.7295 0.2113
C1 C -0.0942(10) 0.4083(6) 0.1667(3)
H3 H 0.0399 0.6639 0.3079
H4 H 0.1949 0.6051 0.3012
H5 H 0.0859 0.8656 0.2519
H6 H 0.1576 0.8938 0.2007
C2 C 0.2680(12) 0.7882(8) 0.1059(3)
C3 C -0.0058(11) 0.7119(7) 0.0816(3)
H7 H -0.2141 0.6808 0.2433
H8 H -0.2446 0.5994 0.1982
O6 O -0.2420(6) 0.4464(4) 0.1603(2)
C4 C -0.0860(9) 0.2724(6) 0.1527(3)
N2 N 0.2409(9) 0.8324(6) 0.0553(2)
H9 H 0.3772 0.8052 0.1257
C5 C 0.0621(11) 0.7784(7) 0.0392(3)
H10 H -0.1240 0.6669 0.0824
C6 C 0.0589(9) 0.2332(6) 0.1232(3)
C7 C -0.2265(9) 0.1842(6) 0.1732(3)
C8 C 0.3724(11) 0.9163(7) 0.0261(3)
H11 H 0.0041 0.7873 0.0061
C9 C 0.0651(9) 0.1064(6) 0.1201(3)
C10 C 0.1909(9) 0.3189(6) 0.0909(3)
C11 C -0.2227(9) 0.0573(6) 0.1674(3)
H12 H -0.3247 0.2108 0.1910
C12 C 0.5571(12) 0.9258(9) 0.0399(4)
C13 C 0.3120(13) 0.9878(10) -0.0134(4)
H13 H 0.1637 0.0786 0.1029
C14 C -0.0737(9) 0.0203(6) 0.1421(3)
C15 C 0.1406(10) 0.4176(7) 0.0638(3)
C16 C 0.3702(10) 0.2929(7) 0.0830(3)
C17 C -0.3778(9) -0.0344(6) 0.1869(3)
H14 H -0.0656 -0.0639 0.1397
H15 H 0.0239 0.4382 0.0691
C18 C 0.2608(10) 0.4877(7) 0.0285(3)
H16 H 0.4087 0.2268 0.1012
C19 C 0.4909(10) 0.3646(6) 0.0484(3)
O7 O -0.3657(6) -0.1514(4) 0.1811(2)
O8 O -0.5190(8) -0.0003(5) 0.2039(3)
C20 C 0.4397(10) 0.4640(7) 0.0195(3)
H17 H 0.2205 0.5529 0.0102
H18 H 0.6093 0.3458 0.0444
C13A C 0.6880(13) 1.0122(10) 0.0134(4)
C12A C 0.4429(12) 1.0742(9) -0.0399(4)
C8A C 0.6276(11) 1.0837(7) -0.0261(3)
N2A N 0.7591(9) 1.1676(6) -0.0553(2)
C20A C 0.5603(10) 0.5360(7) -0.0195(3)
C5A C 0.9379(11) 1.2216(7) -0.0392(3)
C2A C 0.7320(12) 1.2118(8) -0.1059(3)
C18A C 0.7392(10) 0.5123(7) -0.0285(3)
C19A C 0.5091(10) 0.6354(6) -0.0484(3)
H11A H 0.9959 1.2127 -0.0061
C3A C 1.0058(11) 1.2881(7) -0.0816(3)
N1A N 0.8855(9) 1.2834(6) -0.1232(3)
H9A H 0.6228 1.1948 -0.1257
C15A C 0.8594(10) 0.5824(7) -0.0638(3)
H17A H 0.7795 0.4471 -0.0102
C16A C 0.6298(10) 0.7071(7) -0.0830(3)
H18A H 0.3907 0.6542 -0.0444
H10A H 1.1240 1.3331 -0.0824
Mn1A Mn 0.89997(12) 1.33910(8) -0.20575(4)
H15A H 0.9761 0.5618 -0.0691
C10A C 0.8091(9) 0.6811(6) -0.0909(3)
H16A H 0.5913 0.7732 -0.1012
C6A C 0.9411(9) 0.7668(6) -0.1232(3)
C9A C 0.9349(9) 0.8936(6) -0.1201(3)
C4A C 1.0860(9) 0.7276(6) -0.1527(3)
H13A H 0.8363 0.9214 -0.1029
C14A C 1.0737(9) 0.9797(6) -0.1421(3)
C1A C 1.0942(10) 0.5917(6) -0.1667(3)
C7A C 1.2265(9) 0.8158(6) -0.1732(3)
C11A C 1.2227(9) 0.9427(6) -0.1674(3)
H14A H 1.0656 1.0639 -0.1397
O6A O 1.2420(6) 0.5536(4) -0.1603(2)
O2A O 0.9442(6) 0.5302(4) -0.1860(2)
H12A H 1.3247 0.7892 -0.1910
C17A C 1.3778(9) 1.0344(6) -0.1869(3)
Mn1A_2 Mn 0.89997(12) 0.33910(8) -0.20575(4)
O7A O 1.3657(6) 1.1514(4) -0.1811(2)
O8A O 1.5190(8) 1.0003(5) -0.2039(3)
O1A O 0.6192(6) 0.3449(5) -0.2085(2)
O3A O 0.9140(7) 0.3905(5) -0.2890(2)
O4A O 0.8368(7) 0.1514(4) -0.2285(2)
O5A O 1.1815(7) 0.3311(4) -0.2099(2)
N1A_2 N 0.8855(9) 0.2834(6) -0.1232(3)
H1A H 0.5920 0.3873 -0.2362
H2A H 0.5587 0.2705 -0.2113
H3A H 0.9601 0.3361 -0.3079
H4A H 0.8051 0.3949 -0.3012
H5A H 0.9141 0.1344 -0.2519
H6A H 0.8424 0.1062 -0.2007
H7A H 1.2141 0.3192 -0.2433
H8A H 1.2446 0.4006 -0.1982
Mn2 Mn 0.39844(12) 0.34099(8) 0.29416(4)
O9 O 0.8674(6) 1.1503(4) 0.3189(2)
N3 N 0.2597(8) 0.1714(5) 0.4447(2)
O10 O 0.3361(7) 0.1568(4) 0.2708(2)
H19 H 0.2413 0.1229 0.2877
H20 H 0.4266 0.1199 0.2785
O11 O 0.6773(6) 0.3362(4) 0.2884(2)
H21 H 0.7058 0.2675 0.3021
H22 H 0.7407 0.3986 0.3061
O12 O 0.4466(6) 0.5326(4) 0.31435(18)
O13 O 0.7402(6) 0.5539(4) 0.3395(2)
O14 O 1.0223(8) 0.9994(5) 0.2964(3)
O15 O 0.4110(7) 0.3921(5) 0.2111(2)
H23 H 0.3595 0.3309 0.1914
H24 H 0.5237 0.4112 0.2014
C21 C 0.7202(10) 0.9443(6) 0.3317(3)
O16 O 0.1156(6) 0.3462(4) 0.2897(2)
H25 H 0.0881 0.4030 0.3108
H26 H 0.0578 0.2762 0.2997
N4 N 0.3825(8) 0.2836(5) 0.3766(2)
C22 C 0.3036(10) 0.6862(6) 0.4088(3)
C23 C 0.4381(10) 0.8964(7) 0.3806(3)
H27 H 0.3424 0.9233 0.3996
C24 C 0.0086(10) 0.6347(8) 0.4515(3)
H28 H -0.1111 0.6510 0.4557
C25 C 0.1827(11) 0.0087(8) 0.5129(3)
H29 H 0.3069 0.0144 0.5217
C26 C 0.0645(9) 0.5386(6) 0.4804(3)
C27 C 0.5123(11) 0.2907(7) 0.4190(3)
H30 H 0.6299 0.3365 0.4190
C28 C 0.4425(9) 0.7708(6) 0.3766(3)
C29 C 0.7246(9) 0.8182(6) 0.3268(3)
H31 H 0.8239 0.7916 0.3096
C30 C 0.5923(8) 0.5972(6) 0.3333(3)
C31 C 0.4347(10) 0.2178(7) 0.4603(3)
H32 H 0.4910 0.2028 0.4930
C32 C 0.2379(10) 0.2106(6) 0.3943(3)
H33 H 0.1309 0.1884 0.3739
C33 C 0.5853(9) 0.7303(5) 0.3470(3)
C34 C 0.2405(9) 0.5125(6) 0.4708(3)
H34 H 0.2795 0.4451 0.4878
C35 C 0.3584(9) 0.5848(6) 0.4365(3)
H35 H 0.4765 0.5664 0.4314
C36 C 0.1244(9) 0.7071(6) 0.4167(3)
H36 H 0.0815 0.7711 0.3981
C37 C 0.5714(10) 0.9845(6) 0.3574(3)
H37 H 0.5615 1.0685 0.3591
C38 C 0.8823(10) 1.0407(6) 0.3130(3)
C39 C 0.1280(11) 0.0849(7) 0.4732(3)
C40 C -0.0548(12) 0.0763(8) 0.4602(3)
H38 H -0.0932 0.1270 0.4336
O9A O -0.8674(6) -0.1503(4) 0.6811(2)
O12A O -0.4466(6) 0.4674(4) 0.68565(18)
O13A O -0.7402(6) 0.4461(4) 0.6605(2)
O14A O -1.0223(8) 0.0006(5) 0.7036(3)
C21A C -0.7202(10) 0.0557(6) 0.6683(3)
C22A C -0.3036(10) 0.3138(6) 0.5912(3)
C23A C -0.4381(10) 0.1036(7) 0.6194(3)
H27A H -0.3424 0.0767 0.6004
C24A C -0.0086(10) 0.3653(8) 0.5485(3)
H28A H 0.1111 0.3490 0.5443
C26A C -0.0645(9) 0.4614(6) 0.5196(3)
C28A C -0.4425(9) 0.2292(6) 0.6234(3)
C29A C -0.7246(9) 0.1818(6) 0.6732(3)
H31A H -0.8239 0.2084 0.6904
C30A C -0.5923(8) 0.4028(6) 0.6667(3)
C33A C -0.5853(9) 0.2697(5) 0.6530(3)
C34A C -0.2405(9) 0.4875(6) 0.5292(3)
H34A H -0.2795 0.5549 0.5122
C35A C -0.3584(9) 0.4152(6) 0.5635(3)
H35A H -0.4765 0.4336 0.5686
C36A C -0.1244(9) 0.2929(6) 0.5833(3)
H36A H -0.0815 0.2289 0.6019
C37A C -0.5714(10) 0.0155(6) 0.6426(3)
H37A H -0.5615 -0.0685 0.6409
C38A C -0.8823(10) -0.0407(6) 0.6870(3)
N3A N -0.2597(8) -0.1714(5) 0.5553(2)
N4A N -0.3825(8) -0.2836(5) 0.6234(2)
C25A C -0.1827(11) -0.0087(8) 0.4871(3)
H29A H -0.3069 -0.0144 0.4783
C27A C -0.5123(11) -0.2907(7) 0.5810(3)
H30A H -0.6299 -0.3365 0.5810
C31A C -0.4347(10) -0.2178(7) 0.5397(3)
H32A H -0.4910 -0.2028 0.5070
C32A C -0.2379(10) -0.2106(6) 0.6057(3)
H33A H -0.1309 -0.1884 0.6261
C39A C -0.1280(11) -0.0849(7) 0.5268(3)
C40A C 0.0548(12) -0.0763(8) 0.5398(3)
H38A H 0.0932 -0.1270 0.5664
Mn2A Mn -0.39844(12) -0.34099(8) 0.70584(4)
Mn2A_2 Mn -0.39844(12) 0.65901(8) 0.70584(4)
N4A_2 N -0.3825(8) 0.7164(5) 0.6234(2)
O10A O -0.3361(7) 0.8432(4) 0.7292(2)
O16A O -0.1156(6) 0.6538(4) 0.7103(2)
O15A O -0.4110(7) 0.6079(5) 0.7889(2)
O11A O -0.6773(6) 0.6638(4) 0.7116(2)
H19A H -0.2413 0.8771 0.7123
H22A H -0.7407 0.6014 0.6939
H21A H -0.7058 0.7325 0.6979
H20A H -0.4266 0.8801 0.7215
H25A H -0.0881 0.5970 0.6892
H24A H -0.5237 0.5888 0.7986
H23A H -0.3595 0.6691 0.8086
H26A H -0.0578 0.7238 0.7003
loop_
_geom_bond_atom_site_label_1
_geom_bond_atom_site_label_2
_geom_bond_site_symmetry_1
_geom_bond_site_symmetry_2
Mn1 O1 1_555 1_555
O1 H1 1_555 1_555
O2 Mn1 1_555 1_555
O3 Mn1 1_555 1_555
O4 Mn1 1_555 1_555
N1 Mn1 1_555 1_555
O5 Mn1 1_555 1_555
H2 O1 1_555 1_555
C1 O2 1_555 1_555
H3 O3 1_555 1_555
H4 O3 1_555 1_555
H5 O4 1_555 1_555
H6 O4 1_555 1_555
C2 N1 1_555 1_555
C3 N1 1_555 1_555
H7 O5 1_555 1_555
H8 O5 1_555 1_555
O6 C1 1_555 1_555
C4 C1 1_555 1_555
N2 C2 1_555 1_555
H9 C2 1_555 1_555
C5 C3 1_555 1_555
H10 C3 1_555 1_555
C6 C4 1_555 1_555
C7 C4 1_555 1_555
C8 N2 1_555 1_555
H11 C5 1_555 1_555
C9 C6 1_555 1_555
C10 C6 1_555 1_555
C11 C7 1_555 1_555
H12 C7 1_555 1_555
C12 C8 1_555 1_555
C13 C8 1_555 1_555
H13 C9 1_555 1_555
C14 C9 1_555 1_555
C15 C10 1_555 1_555
C16 C10 1_555 1_555
C17 C11 1_555 1_555
H14 C14 1_555 1_555
H15 C15 1_555 1_555
C18 C15 1_555 1_555
H16 C16 1_555 1_555
C19 C16 1_555 1_555
O7 C17 1_555 1_555
O8 C17 1_555 1_555
C20 C18 1_555 1_555
H17 C18 1_555 1_555
H18 C19 1_555 1_555
Mn2 O10 1_555 1_555
O9 C38 1_555 1_555
N3 C31 1_555 1_555
O10 H19 1_555 1_555
H20 O10 1_555 1_555
O11 Mn2 1_555 1_555
H21 O11 1_555 1_555
H22 O11 1_555 1_555
O12 Mn2 1_555 1_555
O13 C30 1_555 1_555
O14 C38 1_555 1_555
O15 Mn2 1_555 1_555
H23 O15 1_555 1_555
H24 O15 1_555 1_555
C21 C29 1_555 1_555
O16 Mn2 1_555 1_555
H25 O16 1_555 1_555
H26 O16 1_555 1_555
N4 Mn2 1_555 1_555
C22 C28 1_555 1_555
C23 H27 1_555 1_555
C24 H28 1_555 1_555
C25 H29 1_555 1_555
C26 C24 1_555 1_555
C27 N4 1_555 1_555
H30 C27 1_555 1_555
C28 C23 1_555 1_555
C29 H31 1_555 1_555
C30 O12 1_555 1_555
C31 C27 1_555 1_555
H32 C31 1_555 1_555
C32 N3 1_555 1_555
H33 C32 1_555 1_555
C33 C28 1_555 1_555
C34 C26 1_555 1_555
H34 C34 1_555 1_555
C35 C22 1_555 1_555
H35 C35 1_555 1_555
C36 C22 1_555 1_555
H36 C36 1_555 1_555
C37 C21 1_555 1_555
H37 C37 1_555 1_555
C38 C21 1_555 1_555
C39 N3 1_555 1_555
C40 C39 1_555 1_555
H38 C40 1_555 1_555
C13A C12 1_555 1_555
C12A C13 1_555 1_555
C8A C13A 1_555 1_555
N2A C8A 1_555 1_555
C20A C20 1_555 1_555
C5A N2A 1_555 1_555
C2A N2A 1_555 1_555
C18A C20A 1_555 1_555
C19A C20A 1_555 1_555
H11A C5A 1_555 1_555
C3A C5A 1_555 1_555
N1A C2A 1_555 1_555
H9A C2A 1_555 1_555
C15A C18A 1_555 1_555
H17A C18A 1_555 1_555
C16A C19A 1_555 1_555
H18A C19A 1_555 1_555
H10A C3A 1_555 1_555
Mn1A N1A 1_555 1_555
H15A C15A 1_555 1_555
C10A C15A 1_555 1_555
H16A C16A 1_555 1_555
C6A C10A 1_555 1_555
C9A C6A 1_555 1_555
C4A C6A 1_555 1_555
H13A C9A 1_555 1_555
C14A C9A 1_555 1_555
C1A C4A 1_555 1_555
C7A C4A 1_555 1_555
C11A C14A 1_555 1_555
H14A C14A 1_555 1_555
O6A C1A 1_555 1_555
O2A C1A 1_555 1_555
H12A C7A 1_555 1_555
C17A C11A 1_555 1_555
Mn1A_2 O2A 1_555 1_555
O7A C17A 1_555 1_555
O8A C17A 1_555 1_555
O1A Mn1A_2 1_555 1_555
O3A Mn1A_2 1_555 1_555
O4A Mn1A_2 1_555 1_555
O5A Mn1A_2 1_555 1_555
N1A_2 Mn1A_2 1_555 1_555
H1A O1A 1_555 1_555
H2A O1A 1_555 1_555
H3A O3A 1_555 1_555
H4A O3A 1_555 1_555
H5A O4A 1_555 1_555
H6A O4A 1_555 1_555
H7A O5A 1_555 1_555
H8A O5A 1_555 1_555
O9A C38A 1_555 1_555
O12A C30A 1_555 1_555
O13A C30A 1_555 1_555
O14A C38A 1_555 1_555
C21A C29A 1_555 1_555
C22A C28A 1_555 1_555
C23A H27A 1_555 1_555
C24A H28A 1_555 1_555
C26A C26 1_555 1_555
C28A C23A 1_555 1_555
C29A H31A 1_555 1_555
C30A C33A 1_555 1_555
C33A C28A 1_555 1_555
C34A C26A 1_555 1_555
H34A C34A 1_555 1_555
C35A C22A 1_555 1_555
H35A C35A 1_555 1_555
C36A C22A 1_555 1_555
H36A C36A 1_555 1_555
C37A C21A 1_555 1_555
H37A C37A 1_555 1_555
C38A C21A 1_555 1_555
N3A C31A 1_555 1_555
N4A C27A 1_555 1_555
C25A C40 1_555 1_555
H29A C25A 1_555 1_555
C27A H30A 1_555 1_555
C31A C27A 1_555 1_555
H32A C31A 1_555 1_555
C32A N3A 1_555 1_555
H33A C32A 1_555 1_555
C39A N3A 1_555 1_555
C40A C25 1_555 1_555
H38A C40A 1_555 1_555
Mn2A N4A 1_555 1_555
Mn2A_2 O12A 1_555 1_555
N4A_2 Mn2A_2 1_555 1_555
O10A Mn2A_2 1_555 1_555
O16A Mn2A_2 1_555 1_555
O15A Mn2A_2 1_555 1_555
O11A Mn2A_2 1_555 1_555
H19A O10A 1_555 1_555
H22A O11A 1_555 1_555
H21A O11A 1_555 1_555
H20A O10A 1_555 1_555
H25A O16A 1_555 1_555
H24A O15A 1_555 1_555
H23A O15A 1_555 1_555
H26A O16A 1_555 1_555
N2 C5 1_555 1_555
C11 C14 1_555 1_555
C19 C20 1_555 1_555
N4 C32 1_555 1_555
C23 C37 1_555 1_555
C24 C36 1_555 1_555
C25 C39 1_555 1_555
C29 C33 1_555 1_555
C30 C33 1_555 1_555
C34 C35 1_555 1_555
C12A C8A 1_555 1_555
C3A N1A 1_555 1_555
C16A C10A 1_555 1_555
C7A C11A 1_555 1_555
C23A C37A 1_555 1_555
C24A C26A 1_555 1_555
C24A C36A 1_555 1_555
C29A C33A 1_555 1_555
C34A C35A 1_555 1_555
N4A C32A 1_555 1_555
C25A C39A 1_555 1_555
C39A C40A 1_555 1_555

#END
