
#######################################################################
#
#                 Cambridge Crystallographic Data Centre
#                                CCDC 
#
#######################################################################
#
# If this CIF has been generated from an entry in the Cambridge 
# Structural Database, then it will include bibliographic, chemical, 
# crystal, experimental, refinement or atomic coordinate data resulting 
# from the CCDC's data processing and validation procedures.
#
#######################################################################

data_WUBSER
_symmetry_cell_setting           monoclinic
_symmetry_space_group_name_H-M   'P 21/a'
_symmetry_Int_Tables_number      14
_space_group_name_Hall           '-P 2yab'
loop_
_symmetry_equiv_pos_site_id
_symmetry_equiv_pos_as_xyz
1 x,y,z
2 1/2+x,1/2-y,z
3 -x,-y,-z
4 1/2-x,1/2+y,-z
_cell_length_a                   8.690(3)
_cell_length_b                   8.522(3)
_cell_length_c                   11.216(5)
_cell_angle_alpha                90
_cell_angle_beta                 94.81(3)
_cell_angle_gamma                90
_cell_volume                     827.689
loop_
_atom_site_label
_atom_site_type_symbol
_atom_site_fract_x
_atom_site_fract_y
_atom_site_fract_z
Cd1 Cd 0.0000 0.0000 0.5000
N1 N 0.1515(5) 0.1591(5) 0.6311(4)
N2 N 0.2169(5) 0.2690(5) 0.5952(4)
N3 N 0.2798(6) 0.3830(6) 0.5638(4)
N4 N 0.0222(5) 0.1905(5) 0.3509(4)
C1 C -0.0189(6) 0.3396(6) 0.3689(5)
H1 H -0.0712(6) 0.3633(6) 0.4356(5)
C2 C 0.0139(6) 0.4605(6) 0.2913(5)
H2 H -0.0175(6) 0.5626(6) 0.3056(5)
C3 C 0.0940(6) 0.4268(6) 0.1926(5)
C4 C 0.1354(7) 0.2723(7) 0.1736(5)
H3 H 0.1871(7) 0.2456(7) 0.1072(5)
C5 C 0.0995(6) 0.1587(6) 0.2540(5)
H4 H 0.1296(6) 0.0558(6) 0.2412(5)
C6 C 0.1348(7) 0.5543(6) 0.1051(5)
O1 O 0.2128(6) 0.5202(5) 0.0244(4)
C7 C 0.0763(7) 0.7180(6) 0.1215(5)
H5 H 0.1096(36) 0.7542(17) 0.2005(12)
H6 H -0.0344(7) 0.7182(10) 0.1111(32)
H7 H 0.1164(34) 0.7862(10) 0.0634(22)
N1B N -0.1515(5) -0.1591(5) 0.3689(4)
N2B N -0.2169(5) -0.2690(5) 0.4048(4)
N3B N -0.2798(6) -0.3830(6) 0.4362(4)
N4B N -0.0222(5) -0.1905(5) 0.6491(4)
C1B C 0.0189(6) -0.3396(6) 0.6311(5)
H1B H 0.0712(6) -0.3633(6) 0.5644(5)
C2B C -0.0139(6) -0.4605(6) 0.7087(5)
H2B H 0.0175(6) -0.5626(6) 0.6944(5)
C3B C -0.0940(6) -0.4268(6) 0.8074(5)
C4B C -0.1354(7) -0.2723(7) 0.8264(5)
H3B H -0.1871(7) -0.2456(7) 0.8928(5)
C5B C -0.0995(6) -0.1587(6) 0.7460(5)
H4B H -0.1296(6) -0.0558(6) 0.7588(5)
C6B C -0.1348(7) -0.5543(6) 0.8949(5)
O1B O -0.2128(6) -0.5202(5) 0.9756(4)
C7B C -0.0763(7) -0.7180(6) 0.8785(5)
H5B H -0.1096(36) -0.7542(17) 0.7995(12)
H6B H 0.0344(7) -0.7182(10) 0.8889(32)
H7B H -0.1164(34) -0.7862(10) 0.9366(22)
N3A N -0.2202(6) 0.1170(6) 0.5638(4)
N3C N 0.2202(6) -0.1170(6) 0.4362(4)
Cd1A Cd 0.5000 0.5000 0.5000
Cd1A_2 Cd -0.5000 -0.5000 0.5000
loop_
_geom_bond_atom_site_label_1
_geom_bond_atom_site_label_2
_geom_bond_site_symmetry_1
_geom_bond_site_symmetry_2
Cd1 N1 1_555 1_555
N1 N2 1_555 1_555
N2 N3 1_555 1_555
N3 Cd1A 1_555 1_555
N4 Cd1 1_555 1_555
C1 N4 1_555 1_555
H1 C1 1_555 1_555
C2 C1 1_555 1_555
H2 C2 1_555 1_555
C3 C2 1_555 1_555
C4 C3 1_555 1_555
H3 C4 1_555 1_555
C5 N4 1_555 1_555
H4 C5 1_555 1_555
C6 C3 1_555 1_555
O1 C6 1_555 1_555
C7 C6 1_555 1_555
H5 C7 1_555 1_555
H6 C7 1_555 1_555
H7 C7 1_555 1_555
N1B Cd1 1_555 1_555
N2B N1B 1_555 1_555
N3B N2B 1_555 1_555
N4B Cd1 1_555 1_555
C1B N4B 1_555 1_555
H1B C1B 1_555 1_555
C2B C1B 1_555 1_555
H2B C2B 1_555 1_555
C3B C2B 1_555 1_555
C4B C3B 1_555 1_555
H3B C4B 1_555 1_555
C5B N4B 1_555 1_555
H4B C5B 1_555 1_555
C6B C3B 1_555 1_555
O1B C6B 1_555 1_555
C7B C6B 1_555 1_555
H5B C7B 1_555 1_555
H6B C7B 1_555 1_555
H7B C7B 1_555 1_555
N3A Cd1 1_555 1_555
N3C Cd1 1_555 1_555
Cd1A_2 N3B 1_555 1_555
C4 C5 1_555 1_555
C4B C5B 1_555 1_555

#END
