
#######################################################################
#
#                 Cambridge Crystallographic Data Centre
#                                CCDC 
#
#######################################################################
#
# If this CIF has been generated from an entry in the Cambridge 
# Structural Database, then it will include bibliographic, chemical, 
# crystal, experimental, refinement or atomic coordinate data resulting 
# from the CCDC's data processing and validation procedures.
#
#######################################################################

data_WUBSAN
_symmetry_cell_setting           monoclinic
_symmetry_space_group_name_H-M   'P 21/a'
_symmetry_Int_Tables_number      14
_space_group_name_Hall           '-P 2yab'
loop_
_symmetry_equiv_pos_site_id
_symmetry_equiv_pos_as_xyz
1 x,y,z
2 1/2+x,1/2-y,z
3 -x,-y,-z
4 1/2-x,1/2+y,-z
_cell_length_a                   9.107(4)
_cell_length_b                   13.696(5)
_cell_length_c                   9.310(4)
_cell_angle_alpha                90
_cell_angle_beta                 114.11(3)
_cell_angle_gamma                90
_cell_volume                     1059.93
loop_
_atom_site_label
_atom_site_type_symbol
_atom_site_fract_x
_atom_site_fract_y
_atom_site_fract_z
Cd1 Cd 0.11616(5) 0.39708(3) 0.10019(5)
N1 N -0.0295(7) 0.4510(4) -0.1474(6)
N2 N -0.0017(6) 0.4270(4) -0.2592(7)
N3 N 0.0210(7) 0.4033(4) -0.3669(7)
N4 N -0.0535(6) 0.3046(4) 0.1675(7)
N5 N -0.1786(6) 0.2737(4) 0.0799(6)
N6 N -0.3052(7) 0.2422(4) -0.0034(7)
N7 N 0.3153(6) 0.3758(4) 0.3518(6)
C1 C 0.4704(7) 0.3892(4) 0.3748(8)
C2 C 0.5952(8) 0.3760(4) 0.5187(8)
H1 H 0.7006(8) 0.3857(4) 0.5307(8)
C3 C 0.5632(8) 0.3478(5) 0.6472(8)
H2 H 0.6463(8) 0.3378(5) 0.7457(8)
C4 C 0.4033(8) 0.3350(5) 0.6240(8)
H3 H 0.3772(8) 0.3172(5) 0.7071(8)
C5 C 0.2843(8) 0.3491(5) 0.4748(8)
H4 H 0.1777(8) 0.3396(5) 0.4593(8)
C6 C 0.4949(8) 0.4232(4) 0.2313(7)
O1 O 0.3766(5) 0.4466(3) 0.1118(5)
C7 C 0.6611(8) 0.4282(5) 0.2382(8)
H5 H 0.7131(21) 0.3662(11) 0.2708(52)
H6 H 0.7211(18) 0.4775(23) 0.3123(40)
H7 H 0.6563(8) 0.4443(33) 0.1360(15)
N1B N 0.0295(7) 0.5490(4) 0.1474(6)
N6A N 0.1948(7) 0.2578(4) -0.0034(7)
Cd1B Cd -0.11616(5) 0.60292(3) -0.10019(5)
Cd1A Cd -0.38384(5) 0.10292(3) 0.10019(5)
loop_
_geom_bond_atom_site_label_1
_geom_bond_atom_site_label_2
_geom_bond_site_symmetry_1
_geom_bond_site_symmetry_2
Cd1 N1 1_555 1_555
N1 N2 1_555 1_555
N2 N3 1_555 1_555
N4 Cd1 1_555 1_555
N5 N4 1_555 1_555
N6 N5 1_555 1_555
N7 Cd1 1_555 1_555
C1 N7 1_555 1_555
C2 C1 1_555 1_555
H1 C2 1_555 1_555
C3 C2 1_555 1_555
H2 C3 1_555 1_555
C4 C3 1_555 1_555
H3 C4 1_555 1_555
C5 N7 1_555 1_555
H4 C5 1_555 1_555
C6 C1 1_555 1_555
O1 Cd1 1_555 1_555
C7 C6 1_555 1_555
H5 C7 1_555 1_555
H6 C7 1_555 1_555
H7 C7 1_555 1_555
N1B Cd1 1_555 1_555
N6A Cd1 1_555 1_555
Cd1B N1 1_555 1_555
Cd1A N6 1_555 1_555
C4 C5 1_555 1_555
C6 O1 1_555 1_555
N1B Cd1B 1_555 1_555

#END
