
#######################################################################
#
#                 Cambridge Crystallographic Data Centre
#                                CCDC 
#
#######################################################################
#
# If this CIF has been generated from an entry in the Cambridge 
# Structural Database, then it will include bibliographic, chemical, 
# crystal, experimental, refinement or atomic coordinate data resulting 
# from the CCDC's data processing and validation procedures.
#
#######################################################################

data_WUBWAT
_symmetry_cell_setting           orthorhombic
_symmetry_space_group_name_H-M   'P 21 21 21'
_symmetry_Int_Tables_number      19
_space_group_name_Hall           'P 2ac 2ab'
loop_
_symmetry_equiv_pos_site_id
_symmetry_equiv_pos_as_xyz
1 x,y,z
2 1/2-x,-y,1/2+z
3 1/2+x,1/2-y,-z
4 -x,1/2+y,1/2-z
_cell_length_a                   10.1891(8)
_cell_length_b                   13.4961(11)
_cell_length_c                   7.4491(5)
_cell_angle_alpha                90
_cell_angle_beta                 90
_cell_angle_gamma                90
_cell_volume                     1024.35
loop_
_atom_site_label
_atom_site_type_symbol
_atom_site_fract_x
_atom_site_fract_y
_atom_site_fract_z
Cd1 Cd 0.24415(7) 0.00192(7) 0.31349(9)
Br1 Br 0.44442(8) 0.03071(8) 0.06673(14)
Br2 Br 0.37743(10) 0.11262(9) 0.56256(15)
O1 O 0.1309(8) 0.1397(6) 0.2136(9)
O2 O 0.1420(7) 0.1362(6) -0.0865(9)
N1 N -0.0870(10) 0.2205(8) -0.1393(11)
H1 H -0.0168 0.2171 -0.2100
H2 H -0.1202 0.2813 -0.1471
C1 C 0.0861(9) 0.1560(7) 0.0564(15)
C2 C -0.0488(10) 0.1988(8) 0.0510(15)
H3 H -0.0524 0.2596 0.1229
C3 C -0.1523(12) 0.1260(13) 0.115(2)
H4 H -0.1172 0.0826 0.2066
H5 H -0.2279 0.1607 0.1627
C4 C -0.1878(13) 0.0697(13) -0.047(2)
H6 H -0.2733 0.0392 -0.0326
H7 H -0.1236 0.0181 -0.0701
C5 C -0.1899(14) 0.1441(12) -0.200(2)
H8 H -0.2758 0.1743 -0.2126
H9 H -0.1651 0.1134 -0.3127
Cd1A Cd 0.25585(7) -0.00192(7) -0.18651(9)
Cd1A_2 Cd 0.25585(7) -0.00192(7) 0.81349(9)
Br1A Br 0.05558(8) -0.03071(8) 0.56673(14)
Br2A Br 0.12257(10) -0.11262(9) 0.06256(15)
O2A O 0.3580(7) -0.1362(6) 0.4135(9)
O3 O 0.111(2) 0.2521(17) 0.587(2)
H10 H 0.11(3) 0.296(11) 0.50(2)
H11 H 0.13(3) 0.197(8) 0.54(3)
loop_
_geom_bond_atom_site_label_1
_geom_bond_atom_site_label_2
_geom_bond_site_symmetry_1
_geom_bond_site_symmetry_2
Cd1 Br1 1_555 1_555
Br1 Cd1A 1_555 1_555
Br2 Cd1 1_555 1_555
O1 Cd1 1_555 1_555
O2 C1 1_555 1_555
N1 H1 1_555 1_555
H2 N1 1_555 1_555
C1 O1 1_555 1_555
C2 N1 1_555 1_555
H3 C2 1_555 1_555
C3 C2 1_555 1_555
H4 C3 1_555 1_555
H5 C3 1_555 1_555
C4 C3 1_555 1_555
H6 C4 1_555 1_555
H7 C4 1_555 1_555
C5 N1 1_555 1_555
H8 C5 1_555 1_555
H9 C5 1_555 1_555
O3 H10 1_555 1_555
H11 O3 1_555 1_555
Cd1A O2 1_555 1_555
Cd1A_2 Br2 1_555 1_555
Br1A Cd1 1_555 1_555
Br2A Cd1 1_555 1_555
O2A Cd1 1_555 1_555
C1 C2 1_555 1_555
C4 C5 1_555 1_555
Cd1A Br2A 1_555 1_555
Cd1A_2 Br1A 1_555 1_555

#END
