
#######################################################################
#
#                 Cambridge Crystallographic Data Centre
#                                CCDC 
#
#######################################################################
#
# If this CIF has been generated from an entry in the Cambridge 
# Structural Database, then it will include bibliographic, chemical, 
# crystal, experimental, refinement or atomic coordinate data resulting 
# from the CCDC's data processing and validation procedures.
#
#######################################################################

data_WUBZAU
_symmetry_cell_setting           monoclinic
_symmetry_space_group_name_H-M   'P 21/c'
_symmetry_Int_Tables_number      14
_space_group_name_Hall           '-P 2ybc'
loop_
_symmetry_equiv_pos_site_id
_symmetry_equiv_pos_as_xyz
1 x,y,z
2 x,1/2-y,1/2+z
3 -x,-y,-z
4 -x,1/2+y,1/2-z
_cell_length_a                   6.5597(6)
_cell_length_b                   16.6357(15)
_cell_length_c                   13.2576(12)
_cell_angle_alpha                90
_cell_angle_beta                 90.52
_cell_angle_gamma                90
_cell_volume                     1446.68
loop_
_atom_site_label
_atom_site_type_symbol
_atom_site_fract_x
_atom_site_fract_y
_atom_site_fract_z
Ag1 Ag 0.22982(10) 0.47827(4) 0.71545(4)
Ag2 Ag -0.23074(10) 0.77021(4) 0.79845(4)
S1 S -0.4858(3) 0.62714(12) 1.09726(12)
S2 S 0.4724(3) 0.62372(11) 0.42733(12)
N1 N 0.1114(9) 0.6042(3) 0.6721(4)
N2 N -0.1190(8) 0.6455(3) 0.8526(4)
O1 O -0.3890(9) 0.6969(3) 1.1434(4)
O2 O -0.4105(10) 0.5520(3) 1.1392(4)
O3 O -0.7053(8) 0.6323(4) 1.0944(4)
O4 O 0.6930(8) 0.6190(4) 0.4254(4)
O5 O 0.3771(10) 0.5545(3) 0.3814(4)
O6 O 0.3974(10) 0.6974(3) 0.3844(4)
O7 O -0.0328(9) 0.3746(4) 0.7425(5)
C1 C 0.1852(11) 0.6647(4) 0.7460(5)
H1 H 0.1395 0.7178 0.7255
H2 H 0.3331 0.6648 0.7474
C2 C 0.1748(11) 0.6255(5) 0.5684(5)
H3 H 0.1239 0.6787 0.5519
H4 H 0.1145 0.5878 0.5210
C3 C -0.1136(11) 0.6022(4) 0.6749(5)
H5 H -0.1634 0.5617 0.6282
H6 H -0.1669 0.6539 0.6533
C4 C 0.1063(11) 0.6462(4) 0.8501(5)
H7 H 0.1573 0.5941 0.8715
H8 H 0.1573 0.6861 0.8972
C5 C -0.1823(10) 0.6256(5) 0.9565(5)
H9 H -0.1202 0.6635 1.0031
H10 H -0.1326 0.5724 0.9738
C6 C -0.1901(11) 0.5835(4) 0.7799(5)
H11 H -0.3379 0.5819 0.7791
H12 H -0.1405 0.5312 0.8009
C7 C 0.4043(10) 0.6245(5) 0.5569(5)
C8 C -0.4149(10) 0.6277(4) 0.9692(5)
H13 H -0.4687 0.6757 0.9370
H14 H -0.4746 0.5814 0.9356
H15 H 0.479(13) 0.675(5) 0.595(6)
H16 H 0.467(12) 0.580(5) 0.578(5)
H17 H -0.104(11) 0.384(4) 0.714(5)
H18 H -0.12(3) 0.376(10) 0.819(15)
O2B O 0.4105(10) 0.4480(3) 0.8608(4)
O4B O 0.3070(8) 0.3810(4) 0.5746(4)
O1A O -0.3890(9) 0.8031(3) 0.6434(4)
O4A O -0.3070(8) 0.8810(4) 0.9254(4)
O7C O 0.0328(9) 0.8746(4) 0.7575(5)
Ag2A Ag -0.23074(10) 0.72979(4) 1.29845(4)
Ag1B Ag -0.22982(10) 0.52173(4) 1.28455(4)
Ag1B_2 Ag 0.77018(10) 0.52173(4) 0.28455(4)
Ag2A_2 Ag 0.76926(10) 0.72979(4) 0.29845(4)
Ag2C Ag 0.23074(10) 0.27021(4) 0.70155(4)
H17C H 0.104(11) 0.884(4) 0.786(5)
H18C H 0.12(3) 0.876(10) 0.681(15)
loop_
_geom_bond_atom_site_label_1
_geom_bond_atom_site_label_2
_geom_bond_site_symmetry_1
_geom_bond_site_symmetry_2
Ag1 N1 1_555 1_555
Ag2 N2 1_555 1_555
S1 O1 1_555 1_555
S2 O4 1_555 1_555
N1 C1 1_555 1_555
N2 C4 1_555 1_555
O1 Ag2A 1_555 1_555
O2 S1 1_555 1_555
O3 S1 1_555 1_555
O4 Ag1B_2 1_555 1_555
O5 S2 1_555 1_555
O6 S2 1_555 1_555
O7 Ag1 1_555 1_555
C1 H1 1_555 1_555
H2 C1 1_555 1_555
C2 N1 1_555 1_555
H3 C2 1_555 1_555
H4 C2 1_555 1_555
C3 N1 1_555 1_555
H5 C3 1_555 1_555
H6 C3 1_555 1_555
C4 C1 1_555 1_555
H7 C4 1_555 1_555
H8 C4 1_555 1_555
C5 N2 1_555 1_555
H9 C5 1_555 1_555
H10 C5 1_555 1_555
C6 N2 1_555 1_555
H11 C6 1_555 1_555
H12 C6 1_555 1_555
C7 S2 1_555 1_555
C8 S1 1_555 1_555
H13 C8 1_555 1_555
H14 C8 1_555 1_555
H15 C7 1_555 1_555
H16 C7 1_555 1_555
H17 O7 1_555 1_555
H18 O7 1_555 1_555
O2B Ag1 1_555 1_555
O4B Ag1 1_555 1_555
O1A Ag2 1_555 1_555
O4A Ag2 1_555 1_555
O7C Ag2 1_555 1_555
Ag1B O2 1_555 1_555
Ag2A_2 O4 1_555 1_555
Ag2C O7 1_555 1_555
H17C O7C 1_555 1_555
H18C O7C 1_555 1_555
C2 C7 1_555 1_555
C3 C6 1_555 1_555
C5 C8 1_555 1_555
O4B Ag2C 1_555 1_555

#END
