
#######################################################################
#
#                 Cambridge Crystallographic Data Centre
#                                CCDC 
#
#######################################################################
#
# If this CIF has been generated from an entry in the Cambridge 
# Structural Database, then it will include bibliographic, chemical, 
# crystal, experimental, refinement or atomic coordinate data resulting 
# from the CCDC's data processing and validation procedures.
#
#######################################################################

data_WUCBIH
_symmetry_cell_setting           tetragonal
_symmetry_space_group_name_H-M   'P 43 21 2'
_symmetry_Int_Tables_number      96
_space_group_name_Hall           'P 4nw 2abw'
loop_
_symmetry_equiv_pos_site_id
_symmetry_equiv_pos_as_xyz
1 x,y,z
2 -x,-y,1/2+z
3 1/2-y,1/2+x,3/4+z
4 1/2+y,1/2-x,1/4+z
5 1/2-x,1/2+y,3/4-z
6 1/2+x,1/2-y,1/4-z
7 y,x,-z
8 -y,-x,1/2-z
_cell_length_a                   20.8348(16)
_cell_length_b                   20.8348(16)
_cell_length_c                   14.064(2)
_cell_angle_alpha                90
_cell_angle_beta                 90
_cell_angle_gamma                90
_cell_volume                     6105.03
loop_
_atom_site_label
_atom_site_type_symbol
_atom_site_fract_x
_atom_site_fract_y
_atom_site_fract_z
Ca1 Ca 0.48895(3) -0.06322(3) 0.35007(5)
C1 C 0.2052(2) 0.0969(2) 0.3768(3)
C2 C 0.1903(2) 0.1658(2) 0.3781(3)
C3 C 0.2394(2) 0.2111(2) 0.3730(3)
C4 C 0.3047(2) 0.19221(18) 0.3632(3)
C5 C 0.3206(2) 0.12356(18) 0.3558(3)
C6 C 0.1273(3) 0.1845(3) 0.3840(4)
H1 H 0.0952 0.1535 0.3862
C7 C 0.1108(4) 0.2487(3) 0.3868(5)
H2 H 0.0680 0.2610 0.3903
C8 C 0.1590(4) 0.2943(3) 0.3844(4)
H3 H 0.1483 0.3375 0.3875
C9 C 0.2234(3) 0.2766(3) 0.3776(4)
C10 C 0.2741(4) 0.3210(3) 0.3741(4)
H4 H 0.2646 0.3645 0.3786
C11 C 0.3360(4) 0.3031(2) 0.3647(4)
H5 H 0.3681 0.3341 0.3631
C12 C 0.3521(3) 0.2375(2) 0.3574(3)
H6 H 0.3946 0.2252 0.3486
C13 C 0.28459(17) 0.01053(18) 0.3583(3)
H7 H 0.2490 -0.0122 0.3890
C14 C 0.2849(2) -0.0097(2) 0.2540(3)
H8 H 0.2425 -0.0052 0.2282
H9 H 0.2983 -0.0536 0.2491
H10 H 0.3141 0.0171 0.2191
C15 C 0.34585(16) -0.00748(17) 0.4121(3)
N1 N 0.27079(14) 0.07964(16) 0.3660(2)
O1 O 0.16517(16) 0.05434(19) 0.3832(3)
O2 O 0.37488(13) 0.10465(13) 0.3404(2)
O3 O 0.38162(12) -0.04793(12) 0.3736(2)
O4 O 0.35361(12) 0.01620(13) 0.49268(19)
C16 C 0.7708(3) 0.0924(4) 0.3604(6)
C17 C 0.7947(3) 0.1599(4) 0.3691(5)
C18 C 0.7496(3) 0.2105(3) 0.3716(5)
C19 C 0.6834(4) 0.1988(3) 0.3704(6)
C20 C 0.6580(4) 0.1338(3) 0.3671(6)
C21 C 0.8580(3) 0.1718(4) 0.3706(6)
H11 H 0.8855 0.1369 0.3647
C22 C 0.8855(4) 0.2312(5) 0.3801(6)
H12 H 0.9296 0.2372 0.3843
C23 C 0.8411(4) 0.2828(4) 0.3830(6)
H13 H 0.8568 0.3244 0.3885
C24 C 0.7757(4) 0.2737(4) 0.3780(6)
C25 C 0.7286(4) 0.3217(4) 0.3804(7)
H14 H 0.7427 0.3640 0.3835
C26 C 0.6648(4) 0.3118(4) 0.3784(7)
H15 H 0.6366 0.3463 0.3804
C27 C 0.6411(4) 0.2483(3) 0.3732(6)
H16 H 0.5972 0.2406 0.3718
C28 C 0.6785(4) 0.0179(4) 0.3571(5)
H17 H 0.7154 -0.0090 0.3402
C29 C 0.6548(6) -0.0072(5) 0.4526(6)
H18 H 0.6889 -0.0051 0.4984
H19 H 0.6410 -0.0510 0.4457
H20 H 0.6194 0.0185 0.4740
C30 C 0.6307(4) 0.0105(6) 0.2761(5)
N2 N 0.7031(3) 0.0845(3) 0.3613(5)
O5 O 0.8062(3) 0.0459(4) 0.3530(5)
O6 O 0.6017(3) 0.1205(3) 0.3695(5)
O7 O 0.58077(12) -0.02316(14) 0.2875(2)
O8 O 0.64449(15) 0.03369(16) 0.1980(2)
O9 O 0.48758(15) 0.04570(12) 0.4250(2)
H21 H 0.4567(12) 0.0681(17) 0.405(3)
H22 H 0.5193(13) 0.0695(18) 0.413(3)
Ca1B Ca 0.56322(3) -0.01105(3) 0.10007(5)
Ca1C Ca 0.43678(3) 0.01105(3) 0.60007(5)
O4B O 0.48380(13) -0.14639(12) 0.24268(19)
O7C O 0.47684(14) -0.08077(12) 0.5375(2)
O8C O 0.53369(16) -0.14449(15) 0.4480(2)
O9B O 0.45430(12) -0.01242(15) 0.1750(2)
O12 O 0.6595(10) 0.4841(9) 0.1981(15)
C31? C 0.7824(4) 0.0689(5) 0.3711(11)
C32? C 0.8109(4) 0.1331(5) 0.3722(8)
C33? C 0.7728(5) 0.1885(5) 0.3747(7)
C34? C 0.7054(5) 0.1841(4) 0.3696(9)
C35? C 0.6750(5) 0.1208(4) 0.3653(8)
C36? C 0.8755(5) 0.1406(6) 0.3798(11)
H23? H 0.9012 0.1040 0.3789
C37? C 0.9050(6) 0.1995(7) 0.3886(12)
H24? H 0.9492 0.2022 0.3967
C38? C 0.8672(5) 0.2554(6) 0.3853(8)
H25? H 0.8865 0.2956 0.3841
C39? C 0.8015(5) 0.2496(6) 0.3838(11)
C40? C 0.7598(6) 0.3027(6) 0.3817(10)
H26? H 0.7781 0.3432 0.3883
C41? C 0.6966(7) 0.3000(6) 0.3711(16)
H27? H 0.6717 0.3368 0.3658
C42? C 0.6693(6) 0.2380(5) 0.3682(10)
H28? H 0.6249 0.2341 0.3654
C43? C 0.6837(5) 0.0047(5) 0.3527(7)
H29? H 0.7175 -0.0247 0.3315
C44? C 0.6642(9) -0.0191(8) 0.4497(9)
H30? H 0.7008 -0.0186 0.4912
H31? H 0.6481 -0.0621 0.4446
H32? H 0.6313 0.0083 0.4751
C45? C 0.6341(7) 0.0040(11) 0.2740(8)
N3? N 0.7148(3) 0.0676(4) 0.3603(6)
O10? O 0.8097(5) 0.0174(6) 0.3674(9)
O11? O 0.6161(4) 0.1139(5) 0.3669(8)
O13? O 0.6037(18) 0.4980(14) 0.105(2)
O14? O 0.5809(11) 0.4878(10) 0.4931(17)
O15? O 0.5594(19) 0.4923(18) 0.739(3)
loop_
_geom_bond_atom_site_label_1
_geom_bond_atom_site_label_2
_geom_bond_site_symmetry_1
_geom_bond_site_symmetry_2
Ca1 O3 1_555 1_555
C1 C2 1_555 1_555
C2 C3 1_555 1_555
C3 C4 1_555 1_555
C4 C5 1_555 1_555
C5 N1 1_555 1_555
C6 C2 1_555 1_555
H1 C6 1_555 1_555
C7 C6 1_555 1_555
H2 C7 1_555 1_555
C8 C7 1_555 1_555
H3 C8 1_555 1_555
C9 C3 1_555 1_555
C10 C9 1_555 1_555
H4 C10 1_555 1_555
C11 C10 1_555 1_555
H5 C11 1_555 1_555
C12 C4 1_555 1_555
H6 C12 1_555 1_555
C13 H7 1_555 1_555
C14 C13 1_555 1_555
H8 C14 1_555 1_555
H9 C14 1_555 1_555
H10 C14 1_555 1_555
C15 C13 1_555 1_555
N1 C1 1_555 1_555
O1 C1 1_555 1_555
O2 C5 1_555 1_555
O3 C15 1_555 1_555
O4 C15 1_555 1_555
C16 C17 1_555 1_555
C17 C18 1_555 1_555
C18 C19 1_555 1_555
C19 C20 1_555 1_555
C20 N2 1_555 1_555
C21 C17 1_555 1_555
H11 C21 1_555 1_555
C22 C21 1_555 1_555
H12 C22 1_555 1_555
C23 C22 1_555 1_555
H13 C23 1_555 1_555
C24 C18 1_555 1_555
C25 C24 1_555 1_555
H14 C25 1_555 1_555
C26 C25 1_555 1_555
H15 C26 1_555 1_555
C27 C19 1_555 1_555
H16 C27 1_555 1_555
C28 H17 1_555 1_555
C29 C28 1_555 1_555
H18 C29 1_555 1_555
H19 C29 1_555 1_555
H20 C29 1_555 1_555
C30 C28 1_555 1_555
N2 C16 1_555 1_555
O5 C16 1_555 1_555
O6 C20 1_555 1_555
O7 Ca1 1_555 1_555
O8 C30 1_555 1_555
O9 Ca1 1_555 1_555
H21 O9 1_555 1_555
H22 O9 1_555 1_555
Ca1B O7 1_555 1_555
Ca1C O4 1_555 1_555
O4B Ca1 1_555 1_555
O7C Ca1 1_555 1_555
O8C Ca1 1_555 1_555
O9B Ca1 1_555 1_555
C8 C9 1_555 1_555
C11 C12 1_555 1_555
C13 N1 1_555 1_555
C23 C24 1_555 1_555
C26 C27 1_555 1_555
C28 N2 1_555 1_555
C30 O7 1_555 1_555
O8 Ca1B 1_555 1_555
O9 Ca1C 1_555 1_555
Ca1B O9B 1_555 1_555
Ca1C O7C 1_555 1_555

#END
