
#######################################################################
#
#                 Cambridge Crystallographic Data Centre
#                                CCDC 
#
#######################################################################
#
# If this CIF has been generated from an entry in the Cambridge 
# Structural Database, then it will include bibliographic, chemical, 
# crystal, experimental, refinement or atomic coordinate data resulting 
# from the CCDC's data processing and validation procedures.
#
#######################################################################

data_WUCCAA
_symmetry_cell_setting           tetragonal
_symmetry_space_group_name_H-M   'P 43 21 2'
_symmetry_Int_Tables_number      96
_space_group_name_Hall           'P 4nw 2abw'
loop_
_symmetry_equiv_pos_site_id
_symmetry_equiv_pos_as_xyz
1 x,y,z
2 1/2-y,1/2+x,3/4+z
3 -x,-y,1/2+z
4 1/2+y,1/2-x,1/4+z
5 1/2+x,1/2-y,1/4-z
6 1/2-x,1/2+y,3/4-z
7 y,x,-z
8 -y,-x,1/2-z
_cell_length_a                   19.9415(9)
_cell_length_b                   19.9415(9)
_cell_length_c                   14.9995(13)
_cell_angle_alpha                90
_cell_angle_beta                 90
_cell_angle_gamma                90
_cell_volume                     5964.75
loop_
_atom_site_label
_atom_site_type_symbol
_atom_site_fract_x
_atom_site_fract_y
_atom_site_fract_z
Sr1 Sr 0.55184(2) 0.96072(2) 0.44791(2)
O1 O 0.68910(18) 0.69719(16) 0.6369(2)
O2 O 0.64910(15) 0.90459(15) 0.52441(19)
O3 O 0.51147(14) 0.87519(15) 0.56705(18)
O4 O 0.56198(15) 0.86287(14) 0.69799(19)
N1 N 0.66769(19) 0.80374(18) 0.5907(2)
C1 C 0.7108(2) 0.7533(2) 0.6206(3)
C2 C 0.7817(2) 0.7714(2) 0.6330(3)
C3 C 0.8039(2) 0.8371(2) 0.6140(3)
C4 C 0.7592(2) 0.8853(2) 0.5771(3)
C5 C 0.6892(2) 0.8665(2) 0.5614(3)
C6 C 0.8265(3) 0.7250(3) 0.6669(3)
H1 H 0.8118 0.6808 0.6801
C7 C 0.8934(3) 0.7431(3) 0.6819(3)
H2 H 0.9239 0.7107 0.7047
C8 C 0.9155(3) 0.8064(3) 0.6641(3)
H3 H 0.9610 0.8177 0.6753
C9 C 0.8718(2) 0.8555(3) 0.6293(3)
C10 C 0.8916(3) 0.9218(3) 0.6095(4)
H4 H 0.9365 0.9351 0.6211
C11 C 0.8473(2) 0.9675(3) 0.5738(3)
H5 H 0.8620 1.0117 0.5604
C12 C 0.7804(2) 0.9491(2) 0.5572(3)
H6 H 0.7500 0.9806 0.5322
C13 C 0.5953(2) 0.7873(2) 0.5824(3)
H7 H 0.5866 0.7488 0.6234
C14 C 0.5784(2) 0.7634(2) 0.4890(3)
H8 H 0.5921 0.7974 0.4456
H9 H 0.5299 0.7559 0.4843
H10 H 0.6021 0.7213 0.4769
C15 C 0.5534(2) 0.84723(19) 0.6181(3)
O5 O 0.2246(8) 0.9371(6) 0.3479(13)
O6 O 0.4206(6) 0.8436(13) 0.2611(19)
O7 O 0.46643(14) 0.99916(15) 0.31356(19)
O8 O 0.43113(15) 0.92779(16) 0.41595(19)
N2 N 0.3256(6) 0.8908(5) 0.3143(16)
C16 C 0.2586(6) 0.8864(7) 0.3432(9)
C17 C 0.2346(4) 0.8180(5) 0.3665(6)
C18 C 0.2777(5) 0.7634(5) 0.3623(5)
C19 C 0.3445(5) 0.7694(4) 0.3315(6)
C20 C 0.3671(5) 0.8368(4) 0.3000(7)
C21 C 0.1698(5) 0.8096(5) 0.3954(7)
H11 H 0.1403 0.8470 0.3969
C22 C 0.1462(5) 0.7460(5) 0.4231(6)
H12 H 0.1013 0.7406 0.4432
C23 C 0.1905(5) 0.6907(5) 0.4203(6)
H13 H 0.1750 0.6476 0.4377
C24 C 0.2561(5) 0.6988(5) 0.3927(6)
C25 C 0.3034(5) 0.6452(6) 0.3913(7)
H14 H 0.2894 0.6025 0.4123
C26 C 0.3684(6) 0.6519(5) 0.3611(7)
H15 H 0.3988 0.6152 0.3606
C27 C 0.3872(6) 0.7159(5) 0.3311(7)
H16 H 0.4316 0.7222 0.3097
C28 C 0.3535(5) 0.9592(5) 0.3004(7)
H17 H 0.3231 0.9907 0.3327
C29 C 0.3517(6) 0.9797(6) 0.2039(7)
H18 H 0.3805 0.9496 0.1690
H19 H 0.3680 1.0258 0.1980
H20 H 0.3056 0.9769 0.1817
C30 C 0.4219(6) 0.9635(7) 0.3474(8)
O9 O 0.56192(17) 0.86907(16) 0.3249(2)
H21 H 0.5242(15) 0.852(2) 0.318(3)
H22 H 0.571(2) 0.888(2) 0.277(2)
Sr1A Sr 0.53928(2) 1.05184(2) 0.19791(2)
Sr1C Sr 0.46072(2) 0.94816(2) 0.69791(2)
O3A O 0.62481(15) 1.01147(14) 0.31705(18)
O4A O 0.63713(14) 1.06198(15) 0.44799(19)
O7C O 0.49916(15) 1.03357(14) 0.56356(19)
O10 O 0.5849(4) 0.6091(4) 0.6551(5)
O11 O 0.534(3) 0.534(3) 0.5000
O12 O 0.5554(9) 0.5048(8) 0.7119(11)
O13 O 0.6029(10) 0.5404(11) 0.8662(15)
O14? O 0.2325(8) 0.9095(7) 0.3443(11)
O15? O 0.4394(8) 0.8394(16) 0.260(2)
N3? N 0.3371(7) 0.8735(6) 0.3064(19)
C31? C 0.2715(5) 0.8622(6) 0.3385(8)
C32? C 0.2545(6) 0.7917(6) 0.3614(7)
C33? C 0.3036(5) 0.7421(5) 0.3583(6)
C34? C 0.3701(6) 0.7560(5) 0.3261(7)
C35? C 0.3847(5) 0.8244(5) 0.2923(8)
C36? C 0.1899(6) 0.7780(6) 0.3904(8)
H23? H 0.1574 0.8128 0.3904
C37? C 0.1717(7) 0.7139(6) 0.4194(8)
H24? H 0.1274 0.7045 0.4391
C38? C 0.2221(5) 0.6632(6) 0.4184(7)
H25? H 0.2109 0.6193 0.4378
C39? C 0.2864(6) 0.6762(6) 0.3903(7)
C40? C 0.3414(7) 0.6301(7) 0.3869(9)
H26? H 0.3329 0.5860 0.4078
C41? C 0.4056(7) 0.6431(6) 0.3566(10)
H27? H 0.4394 0.6095 0.3570
C42? C 0.4185(7) 0.7075(5) 0.3253(8)
H28? H 0.4618 0.7180 0.3029
C43? C 0.3584(5) 0.9445(5) 0.2935(8)
H29? H 0.3241 0.9730 0.3240
C44? C 0.3597(7) 0.9666(6) 0.1951(8)
H30? H 0.3932 0.9403 0.1627
H31? H 0.3713 1.0143 0.1916
H32? H 0.3154 0.9594 0.1685
C45? C 0.4250(7) 0.9559(8) 0.3429(9)
O16? O 0.6678(14) 0.5622(14) 0.7341(19)
O17? O 0.5760(6) 0.6027(7) 0.5891(9)
O18? O 0.5357(8) 0.5684(12) 0.4964(10)
O19? O 0.5259(11) 0.5846(11) 1.0705(16)
O20? O 0.5221(9) 0.5499(11) 1.0340(13)
O21? O 0.6038(5) 0.5318(5) 0.7982(8)
O22? O 0.5819(9) 0.5585(10) 0.9788(12)
loop_
_geom_bond_atom_site_label_1
_geom_bond_atom_site_label_2
_geom_bond_site_symmetry_1
_geom_bond_site_symmetry_2
Sr1 O2 1_555 1_555
O1 C1 1_555 1_555
O2 C5 1_555 1_555
O3 Sr1 1_555 1_555
O4 C15 1_555 1_555
N1 C1 1_555 1_555
C1 C2 1_555 1_555
C2 C3 1_555 1_555
C3 C4 1_555 1_555
C4 C5 1_555 1_555
C5 N1 1_555 1_555
C6 C2 1_555 1_555
H1 C6 1_555 1_555
C7 C6 1_555 1_555
H2 C7 1_555 1_555
C8 C7 1_555 1_555
H3 C8 1_555 1_555
C9 C3 1_555 1_555
C10 C9 1_555 1_555
H4 C10 1_555 1_555
C11 C10 1_555 1_555
H5 C11 1_555 1_555
C12 C4 1_555 1_555
H6 C12 1_555 1_555
C13 N1 1_555 1_555
H7 C13 1_555 1_555
C14 C13 1_555 1_555
H8 C14 1_555 1_555
H9 C14 1_555 1_555
H10 C14 1_555 1_555
C15 O3 1_555 1_555
O5 C16 1_555 1_555
O6 C20 1_555 1_555
O7 Sr1 1_555 1_555
O8 Sr1 1_555 1_555
N2 C16 1_555 1_555
C16 C17 1_555 1_555
C17 C18 1_555 1_555
C18 C19 1_555 1_555
C19 C20 1_555 1_555
C20 N2 1_555 1_555
C21 C17 1_555 1_555
H11 C21 1_555 1_555
C22 C21 1_555 1_555
H12 C22 1_555 1_555
C23 C22 1_555 1_555
H13 C23 1_555 1_555
C24 C18 1_555 1_555
C25 C24 1_555 1_555
H14 C25 1_555 1_555
C26 C25 1_555 1_555
H15 C26 1_555 1_555
C27 C19 1_555 1_555
H16 C27 1_555 1_555
C28 N2 1_555 1_555
H17 C28 1_555 1_555
C29 C28 1_555 1_555
H18 C29 1_555 1_555
H19 C29 1_555 1_555
H20 C29 1_555 1_555
C30 O7 1_555 1_555
O9 Sr1 1_555 1_555
H21 O9 1_555 1_555
H22 O9 1_555 1_555
Sr1A O7 1_555 1_555
Sr1C O3 1_555 1_555
O3A Sr1 1_555 1_555
O4A Sr1 1_555 1_555
O7C Sr1 1_555 1_555
O4 Sr1C 1_555 1_555
C8 C9 1_555 1_555
C11 C12 1_555 1_555
C13 C15 1_555 1_555
O8 C30 1_555 1_555
C23 C24 1_555 1_555
C26 C27 1_555 1_555
C28 C30 1_555 1_555
Sr1A O3A 1_555 1_555
Sr1C O7C 1_555 1_555

#END
