
#######################################################################
#
#                 Cambridge Crystallographic Data Centre
#                                CCDC 
#
#######################################################################
#
# If this CIF has been generated from an entry in the Cambridge 
# Structural Database, then it will include bibliographic, chemical, 
# crystal, experimental, refinement or atomic coordinate data resulting 
# from the CCDC's data processing and validation procedures.
#
#######################################################################

data_WUCCUS
_symmetry_cell_setting           monoclinic
_symmetry_space_group_name_H-M   'P 21/n'
_symmetry_Int_Tables_number      14
_space_group_name_Hall           '-P 2yn'
loop_
_symmetry_equiv_pos_site_id
_symmetry_equiv_pos_as_xyz
1 x,y,z
2 1/2+x,1/2-y,1/2+z
3 -x,-y,-z
4 1/2-x,1/2+y,1/2-z
_cell_length_a                   16.785(3)
_cell_length_b                   7.5580(10)
_cell_length_c                   19.804(3)
_cell_angle_alpha                90
_cell_angle_beta                 90.26
_cell_angle_gamma                90
_cell_volume                     2512.33
loop_
_atom_site_label
_atom_site_type_symbol
_atom_site_fract_x
_atom_site_fract_y
_atom_site_fract_z
Ag1 Ag 1.06382(2) -0.40254(4) 0.211249(15)
S1 S 1.13521(5) -0.41619(13) 0.10130(5)
S2 S 1.38736(6) -0.87105(13) 0.16883(5)
N1 N 0.9776(2) -0.2416(4) 0.1387(2)
N2 N 1.5372(2) -1.0453(4) 0.23010(14)
C1 C 0.9103(3) -0.1773(6) 0.1601(2)
H1 H 0.9038(3) -0.1651(6) 0.2080(2)
C2 C 0.8480(3) -0.1198(6) 0.1162(3)
H2 H 0.7968(3) -0.0851(6) 0.1332(3)
C3 C 0.8622(3) -0.1230(5) 0.0489(2)
H3 H 0.8239(3) -0.0737(5) 0.0180(2)
C4 C 0.9329(2) -0.1859(5) 0.0245(2)
C5 C 0.9519(3) -0.1903(5) -0.0457(2)
H4 H 0.9139(3) -0.1423(5) -0.0771(2)
C6 C 1.0214(3) -0.2561(5) -0.0681(2)
H5 H 1.0312(3) -0.2599(5) -0.1158(2)
C7 C 1.0780(2) -0.3219(5) -0.0208(2)
H6 H 1.1279(2) -0.3691(5) -0.0361(2)
C8 C 1.0633(2) -0.3193(5) 0.0466(2)
C9 C 0.9906(2) -0.2488(5) 0.0717(2)
C10 C 1.2091(2) -0.2427(5) 0.1100(2)
H7 H 1.1855(2) -0.1387(5) 0.1292(2)
H8 H 1.2306(2) -0.2130(5) 0.0666(2)
C11 C 1.2743(2) -0.3147(5) 0.1563(2)
C12 C 1.2877(2) -0.2514(4) 0.2204(2)
H9 H 1.2532(2) -0.1616(4) 0.2382(2)
C13 C 1.3487(2) -0.3133(5) 0.2597(2)
H10 H 1.3569(2) -0.2652(5) 0.3040(2)
C14 C 1.3985(2) -0.4474(5) 0.2361(2)
H11 H 1.4403(2) -0.4935(5) 0.2643(2)
C15 C 1.3856(2) -0.5139(5) 0.1708(2)
C16 C 1.3242(2) -0.4451(5) 0.1325(2)
H12 H 1.3153(2) -0.4896(5) 0.0877(2)
C17 C 1.4349(2) -0.6618(5) 0.1429(2)
H13 H 1.4377(2) -0.6550(5) 0.0946(2)
H14 H 1.4879(2) -0.6548(5) 0.1610(2)
C18 C 1.4511(2) -1.0312(5) 0.1305(2)
C19 C 1.4328(2) -1.0896(5) 0.0690(2)
H15 H 1.3862(2) -1.0446(5) 0.0466(2)
C20 C 1.4794(2) -1.2195(5) 0.0375(2)
H16 H 1.4629(2) -1.2675(5) -0.0052(2)
C21 C 1.5449(2) -1.2765(5) 0.0653(2)
H17 H 1.5777(2) -1.3581(5) 0.0407(2)
C22 C 1.5679(2) -1.2210(5) 0.1303(2)
C23 C 1.6393(3) -1.2761(6) 0.1640(2)
H18 H 1.6765(3) -1.3512(6) 0.1410(2)
C24 C 1.6536(2) -1.2241(6) 0.2261(2)
H19 H 1.6988(2) -1.2702(6) 0.2502(2)
C25 C 1.6045(2) -1.1027(6) 0.2576(2)
H20 H 1.6195(2) -1.0582(6) 0.3012(2)
C26 C 1.5195(2) -1.0979(5) 0.1654(2)
S2C S 1.11264(6) -0.37105(13) 0.33117(5)
N2C N 0.9628(2) -0.5453(4) 0.26990(14)
Ag1C Ag 1.43618(2) -0.90254(4) 0.288751(15)
Cl1 Cl 0.69679(6) -0.7335(2) 0.09282(6)
O1 O 0.7038(2) -0.8905(5) 0.0551(2)
O2 O 0.6978(3) -0.5943(6) 0.0431(2)
O3 O 0.7631(2) -0.6962(6) 0.1286(2)
O4 O 0.6280(2) -0.7156(6) 0.1250(3)
loop_
_geom_bond_atom_site_label_1
_geom_bond_atom_site_label_2
_geom_bond_site_symmetry_1
_geom_bond_site_symmetry_2
Ag1 S1 1_555 1_555
S1 C8 1_555 1_555
S2 C17 1_555 1_555
N1 Ag1 1_555 1_555
N2 C25 1_555 1_555
C1 N1 1_555 1_555
H1 C1 1_555 1_555
C2 C1 1_555 1_555
H2 C2 1_555 1_555
C3 C2 1_555 1_555
H3 C3 1_555 1_555
C4 C3 1_555 1_555
C5 C4 1_555 1_555
H4 C5 1_555 1_555
C6 C5 1_555 1_555
H5 C6 1_555 1_555
C7 C6 1_555 1_555
H6 C7 1_555 1_555
C8 C7 1_555 1_555
C9 N1 1_555 1_555
C10 S1 1_555 1_555
H7 C10 1_555 1_555
H8 C10 1_555 1_555
C11 C10 1_555 1_555
C12 C11 1_555 1_555
H9 C12 1_555 1_555
C13 C12 1_555 1_555
H10 C13 1_555 1_555
C14 C13 1_555 1_555
H11 C14 1_555 1_555
C15 C14 1_555 1_555
C16 C11 1_555 1_555
H12 C16 1_555 1_555
C17 C15 1_555 1_555
H13 C17 1_555 1_555
H14 C17 1_555 1_555
C18 S2 1_555 1_555
C19 C18 1_555 1_555
H15 C19 1_555 1_555
C20 C19 1_555 1_555
H16 C20 1_555 1_555
C21 C20 1_555 1_555
H17 C21 1_555 1_555
C22 C21 1_555 1_555
C23 C22 1_555 1_555
H18 C23 1_555 1_555
C24 C23 1_555 1_555
H19 C24 1_555 1_555
C25 C24 1_555 1_555
H20 C25 1_555 1_555
C26 N2 1_555 1_555
Cl1 O1 1_555 1_555
O2 Cl1 1_555 1_555
O3 Cl1 1_555 1_555
O4 Cl1 1_555 1_555
S2C Ag1 1_555 1_555
N2C Ag1 1_555 1_555
Ag1C S2 1_555 1_555
N2 Ag1C 1_555 1_555
C4 C9 1_555 1_555
C8 C9 1_555 1_555
C15 C16 1_555 1_555
C18 C26 1_555 1_555
C22 C26 1_555 1_555

#END
