
#######################################################################
#
#                 Cambridge Crystallographic Data Centre
#                                CCDC 
#
#######################################################################
#
# If this CIF has been generated from an entry in the Cambridge 
# Structural Database, then it will include bibliographic, chemical, 
# crystal, experimental, refinement or atomic coordinate data resulting 
# from the CCDC's data processing and validation procedures.
#
#######################################################################

data_WUCCUU
_symmetry_cell_setting           orthorhombic
_symmetry_space_group_name_H-M   'P 21 21 21'
_symmetry_Int_Tables_number      19
_space_group_name_Hall           'P 2ac 2ab'
loop_
_symmetry_equiv_pos_site_id
_symmetry_equiv_pos_as_xyz
1 x,y,z
2 1/2-x,-y,1/2+z
3 1/2+x,1/2-y,-z
4 -x,1/2+y,1/2-z
_cell_length_a                   7.0910(9)
_cell_length_b                   14.1845(18)
_cell_length_c                   26.618(3)
_cell_angle_alpha                90
_cell_angle_beta                 90
_cell_angle_gamma                90
_cell_volume                     2677.3
loop_
_atom_site_label
_atom_site_type_symbol
_atom_site_fract_x
_atom_site_fract_y
_atom_site_fract_z
Sr1 Sr 0.53704(5) 0.29389(3) 0.02276(2)
O1 O 0.2750(5) 0.3449(2) 0.22981(12)
O2 O 0.2101(5) 0.0469(2) 0.16989(12)
O3 O 0.2441(4) 0.2209(2) 0.06497(10)
O4 O 0.0127(4) 0.2329(2) 0.12178(10)
O5 O 0.6274(5) 0.2421(2) 0.11399(13)
H1 H 0.739(8) 0.223(4) 0.117(2)
O6 O 0.4041(5) 0.7183(2) -0.01228(11)
O7 O 0.3847(4) 0.4411(2) 0.07291(11)
O8 O 0.2465(4) 0.36829(19) -0.02406(11)
O9 O 0.0418(4) 0.47750(19) 0.00310(11)
O10 O 0.6490(4) 0.4575(2) -0.00799(12)
H2 H 0.764(7) 0.468(4) -0.012(2)
O11 O 0.8817(4) 0.3236(2) 0.04041(11)
H3 H 0.934(7) 0.306(4) 0.0684(16)
H4 H 0.940(8) 0.376(3) 0.034(2)
N1 N 0.2502(5) 0.1946(3) 0.20051(13)
N2 N 0.3744(5) 0.5804(2) 0.03056(13)
C1 C 0.2298(6) 0.2635(3) 0.23781(17)
C2 C 0.1605(6) 0.2313(3) 0.28661(17)
C3 C 0.1376(6) 0.1345(3) 0.29645(16)
C4 C 0.1534(6) 0.0674(3) 0.25753(17)
C5 C 0.2023(6) 0.0987(3) 0.20604(17)
C6 C 0.1327(6) 0.2962(4) 0.32486(17)
H5 H 0.1440 0.3617 0.3181
C7 C 0.0882(7) 0.2653(4) 0.37344(18)
H6 H 0.0660 0.3105 0.3991
C8 C 0.0761(7) 0.1721(4) 0.38450(18)
H7 H 0.0521 0.1529 0.4181
C9 C 0.0989(6) 0.1030(4) 0.34633(17)
C10 C 0.0844(6) 0.0047(3) 0.35501(18)
H8 H 0.0636 -0.0175 0.3882
C11 C 0.0994(7) -0.0583(3) 0.31698(18)
H9 H 0.0881 -0.1238 0.3237
C12 C 0.1315(6) -0.0273(3) 0.26754(18)
H10 H 0.1383 -0.0718 0.2409
C13 C 0.3283(6) 0.2242(3) 0.15159(16)
H11 H 0.3630 0.2920 0.1560
C14 C 0.1811(6) 0.2230(3) 0.10962(16)
C15 C 0.5130(6) 0.1740(3) 0.13854(16)
H12 H 0.5757 0.1508 0.1694
H13 H 0.4887 0.1197 0.1161
C16 C 0.3979(6) 0.6788(3) 0.02821(18)
C17 C 0.4106(6) 0.7301(3) 0.07597(17)
C18 C 0.3982(6) 0.6802(3) 0.12194(17)
C19 C 0.3891(6) 0.5803(3) 0.12248(16)
C20 C 0.3850(6) 0.5272(3) 0.07458(16)
C21 C 0.4251(6) 0.8266(3) 0.07623(17)
H14 H 0.4356 0.8597 0.0453
C22 C 0.4248(6) 0.8769(3) 0.12158(17)
H15 H 0.4359 0.9436 0.1212
C23 C 0.4085(7) 0.8304(3) 0.16630(18)
H16 H 0.4069 0.8652 0.1968
C24 C 0.3939(6) 0.7307(3) 0.16774(17)
C25 C 0.3735(6) 0.6789(3) 0.21313(17)
H17 H 0.3655 0.7119 0.2441
C26 C 0.3653(6) 0.5829(3) 0.21301(17)
H18 H 0.3529 0.5498 0.2438
C27 C 0.3752(6) 0.5322(3) 0.16729(17)
H19 H 0.3722 0.4652 0.1675
C28 C 0.3469(6) 0.5317(3) -0.01774(16)
H20 H 0.2859 0.5790 -0.0403
C29 C 0.2019(6) 0.4510(3) -0.01209(15)
C30 C 0.5329(6) 0.5073(3) -0.04254(15)
H21 H 0.5099 0.4680 -0.0726
H22 H 0.5973 0.5658 -0.0534
Sr1B Sr 0.03704(5) 0.20611(3) -0.02276(2)
Sr1B_2 Sr 1.03704(5) 0.20611(3) -0.02276(2)
O3B O 0.7441(4) 0.2791(2) -0.06497(10)
O8B O 0.7465(4) 0.13171(19) 0.02406(11)
O11B O 0.3817(4) 0.1764(2) -0.04041(11)
loop_
_geom_bond_atom_site_label_1
_geom_bond_atom_site_label_2
_geom_bond_site_symmetry_1
_geom_bond_site_symmetry_2
Sr1 O3 1_555 1_555
O1 C1 1_555 1_555
O2 C5 1_555 1_555
O3 C14 1_555 1_555
O4 C14 1_555 1_555
O5 Sr1 1_555 1_555
H1 O5 1_555 1_555
O6 C16 1_555 1_555
O7 Sr1 1_555 1_555
O8 Sr1 1_555 1_555
O9 C29 1_555 1_555
O10 Sr1 1_555 1_555
H2 O10 1_555 1_555
O11 Sr1 1_555 1_555
H3 O11 1_555 1_555
H4 O11 1_555 1_555
N1 C1 1_555 1_555
N2 C16 1_555 1_555
C1 C2 1_555 1_555
C2 C3 1_555 1_555
C3 C4 1_555 1_555
C4 C5 1_555 1_555
C5 N1 1_555 1_555
C6 C2 1_555 1_555
H5 C6 1_555 1_555
C7 C6 1_555 1_555
H6 C7 1_555 1_555
C8 C7 1_555 1_555
H7 C8 1_555 1_555
C9 C3 1_555 1_555
C10 C9 1_555 1_555
H8 C10 1_555 1_555
C11 C10 1_555 1_555
H9 C11 1_555 1_555
C12 C4 1_555 1_555
H10 C12 1_555 1_555
C13 N1 1_555 1_555
H11 C13 1_555 1_555
C14 C13 1_555 1_555
C15 O5 1_555 1_555
H12 C15 1_555 1_555
H13 C15 1_555 1_555
C16 C17 1_555 1_555
C17 C18 1_555 1_555
C18 C19 1_555 1_555
C19 C20 1_555 1_555
C20 O7 1_555 1_555
C21 C17 1_555 1_555
H14 C21 1_555 1_555
C22 C21 1_555 1_555
H15 C22 1_555 1_555
C23 C22 1_555 1_555
H16 C23 1_555 1_555
C24 C18 1_555 1_555
C25 C24 1_555 1_555
H17 C25 1_555 1_555
C26 C25 1_555 1_555
H18 C26 1_555 1_555
C27 C19 1_555 1_555
H19 C27 1_555 1_555
C28 N2 1_555 1_555
H20 C28 1_555 1_555
C29 O8 1_555 1_555
C30 O10 1_555 1_555
H21 C30 1_555 1_555
H22 C30 1_555 1_555
Sr1B O3 1_555 1_555
Sr1B_2 O11 1_555 1_555
O3B Sr1 1_555 1_555
O8B Sr1 1_555 1_555
O11B Sr1 1_555 1_555
O8 Sr1B 1_555 1_555
N2 C20 1_555 1_555
C8 C9 1_555 1_555
C11 C12 1_555 1_555
C13 C15 1_555 1_555
C23 C24 1_555 1_555
C26 C27 1_555 1_555
C28 C29 1_555 1_555
C28 C30 1_555 1_555
Sr1B O11B 1_555 1_555
Sr1B_2 O3B 1_555 1_555
Sr1B_2 O8B 1_555 1_555

#END
