
#######################################################################
#
#                 Cambridge Crystallographic Data Centre
#                                CCDC 
#
#######################################################################
#
# If this CIF has been generated from an entry in the Cambridge 
# Structural Database, then it will include bibliographic, chemical, 
# crystal, experimental, refinement or atomic coordinate data resulting 
# from the CCDC's data processing and validation procedures.
#
#######################################################################

data_WUCDIH
_symmetry_cell_setting           monoclinic
_symmetry_space_group_name_H-M   'P 21/m'
_symmetry_Int_Tables_number      11
_space_group_name_Hall           '-P 2yb'
loop_
_symmetry_equiv_pos_site_id
_symmetry_equiv_pos_as_xyz
1 x,y,z
2 x,1/2-y,z
3 -x,-y,-z
4 -x,1/2+y,-z
_cell_length_a                   5.293(2)
_cell_length_b                   21.946(8)
_cell_length_c                   6.011(3)
_cell_angle_alpha                90
_cell_angle_beta                 96.21(3)
_cell_angle_gamma                90
_cell_volume                     694.142
loop_
_atom_site_label
_atom_site_type_symbol
_atom_site_fract_x
_atom_site_fract_y
_atom_site_fract_z
Cu1 Cu 0.24934(11) 0.2500 0.74566(9)
S1 S -0.0726(2) 0.2500 0.4468(2)
C1 C 0.0757(8) 0.2500 0.2206(7)
N1 N 0.1653(8) 0.2500 0.0535(6)
N2 N 0.4675(4) 0.32739(12) 0.7065(4)
C2 C 0.4364(6) 0.36209(14) 0.5240(5)
H1 H 0.2914(61) 0.3551(15) 0.4258(54)
C3 C 0.6059(5) 0.40778(14) 0.4846(5)
N3 N 0.8130(5) 0.41927(13) 0.6254(5)
C4 C 0.8424(7) 0.3851(2) 0.8089(6)
H2 H 0.9837(69) 0.3912(17) 0.8988(61)
C5 C 0.6715(6) 0.3404(2) 0.8510(5)
H3 H 0.6886(64) 0.3166(17) 0.9674(61)
C6 C 0.5546(6) 0.44608(14) 0.2782(6)
O1 O 0.3494(4) 0.44195(12) 0.1624(4)
N4 N 0.7394(6) 0.4831(2) 0.2326(5)
H4 H 0.7306(59) 0.5043(15) 0.1133(35)
H5 H 0.8764(39) 0.4874(17) 0.3156(43)
N2A N 0.4675(4) 0.17261(12) 0.7065(4)
C2A C 0.4364(6) 0.13791(14) 0.5240(5)
H1A H 0.2914(61) 0.1449(15) 0.4258(54)
C3A C 0.6059(5) 0.09222(14) 0.4846(5)
N3A N 0.8130(5) 0.08073(13) 0.6254(5)
C4A C 0.8424(7) 0.1149(2) 0.8089(6)
H2A H 0.9837(69) 0.1088(17) 0.8988(61)
C5A C 0.6715(6) 0.1596(2) 0.8510(5)
H3A H 0.6886(64) 0.1834(17) 0.9674(61)
C6A C 0.5546(6) 0.05392(14) 0.2782(6)
O1A O 0.3494(4) 0.05805(12) 0.1624(4)
N4A N 0.7394(6) 0.0169(2) 0.2326(5)
H4A H 0.7306(59) -0.0043(15) 0.1133(35)
H5A H 0.8764(39) 0.0126(17) 0.3156(43)
N1_2 N 0.1653(8) 0.2500 1.0535(6)
Cu1_2 Cu 0.24934(11) 0.2500 -0.25434(9)
loop_
_geom_bond_atom_site_label_1
_geom_bond_atom_site_label_2
_geom_bond_site_symmetry_1
_geom_bond_site_symmetry_2
Cu1 S1 1_555 1_555
S1 C1 1_555 1_555
C1 N1 1_555 1_555
N1 Cu1_2 1_555 1_555
N2 Cu1 1_555 1_555
C2 N2 1_555 1_555
H1 C2 1_555 1_555
C3 C2 1_555 1_555
N3 C3 1_555 1_555
C4 N3 1_555 1_555
H2 C4 1_555 1_555
C5 N2 1_555 1_555
H3 C5 1_555 1_555
C6 C3 1_555 1_555
O1 C6 1_555 1_555
N4 C6 1_555 1_555
H4 N4 1_555 1_555
H5 N4 1_555 1_555
N2A Cu1 1_555 1_555
C2A N2A 1_555 1_555
H1A C2A 1_555 1_555
C3A C2A 1_555 1_555
N3A C3A 1_555 1_555
C4A N3A 1_555 1_555
H2A C4A 1_555 1_555
C5A N2A 1_555 1_555
H3A C5A 1_555 1_555
C6A C3A 1_555 1_555
O1A C6A 1_555 1_555
N4A C6A 1_555 1_555
H4A N4A 1_555 1_555
H5A N4A 1_555 1_555
N1_2 Cu1 1_555 1_555
C4 C5 1_555 1_555
C4A C5A 1_555 1_555

#END
