
#######################################################################
#
#                 Cambridge Crystallographic Data Centre
#                                CCDC 
#
#######################################################################
#
# If this CIF has been generated from an entry in the Cambridge 
# Structural Database, then it will include bibliographic, chemical, 
# crystal, experimental, refinement or atomic coordinate data resulting 
# from the CCDC's data processing and validation procedures.
#
#######################################################################

data_WUCDAZ
_symmetry_cell_setting           monoclinic
_symmetry_space_group_name_H-M   'P 21/n'
_symmetry_Int_Tables_number      14
_space_group_name_Hall           '-P 2yn'
loop_
_symmetry_equiv_pos_site_id
_symmetry_equiv_pos_as_xyz
1 x,y,z
2 1/2+x,1/2-y,1/2+z
3 -x,-y,-z
4 1/2-x,1/2+y,1/2-z
_cell_length_a                   16.501(4)
_cell_length_b                   7.576(2)
_cell_length_c                   19.761(4)
_cell_angle_alpha                90
_cell_angle_beta                 90.71
_cell_angle_gamma                90
_cell_volume                     2470.16
loop_
_atom_site_label
_atom_site_type_symbol
_atom_site_fract_x
_atom_site_fract_y
_atom_site_fract_z
Ag1 Ag 0.938989(14) 0.40355(3) -0.210763(12)
S1 S 0.88962(4) 0.37020(10) -0.33033(4)
S2 S 0.63410(4) -0.08305(10) -0.39813(4)
N1 N 1.04030(12) 0.5501(3) -0.26961(10)
N2 N 0.47304(12) -0.2562(3) -0.36217(12)
C1 C 0.95172(15) 0.5309(3) -0.36769(12)
C2 C 0.93336(15) 0.5897(4) -0.43064(13)
H1 H 0.88656(15) 0.5422(4) -0.45351(13)
C3 C 0.9800(2) 0.7170(4) -0.46341(14)
H2 H 0.9644(2) 0.7575(4) -0.50773(14)
C4 C 1.0469(2) 0.7820(4) -0.43267(13)
H3 H 1.0789(2) 0.8686(4) -0.45569(13)
C5 C 1.07035(15) 0.7275(4) -0.36820(13)
C6 C 1.1399(2) 0.7891(4) -0.3335(2)
H4 H 1.1754(2) 0.8715(4) -0.3551(2)
C7 C 1.1570(2) 0.7318(5) -0.2710(2)
H5 H 1.2047(2) 0.7731(5) -0.2477(2)
C8 C 1.1062(2) 0.6150(4) -0.24028(14)
H6 H 1.1187(2) 0.5798(4) -0.19467(14)
C9 C 1.02226(14) 0.6033(4) -0.33345(12)
C10 C 0.4027(2) -0.3173(4) -0.3416(2)
H7 H 0.3922(2) -0.3191(4) -0.2940(2)
C11 C 0.3426(2) -0.3801(5) -0.3860(2)
H8 H 0.2929(2) -0.4260(5) -0.3686(2)
C12 C 0.3552(2) -0.3755(4) -0.4532(2)
H9 H 0.3135(2) -0.4139(4) -0.4842(2)
C13 C 0.4301(2) -0.3128(4) -0.47741(15)
C14 C 0.4478(2) -0.3120(4) -0.5461(2)
H10 H 0.4086(2) -0.3557(4) -0.5782(2)
C15 C 0.5183(2) -0.2517(4) -0.56763(15)
H11 H 0.5302(2) -0.2552(4) -0.61504(15)
C16 C 0.5765(2) -0.1808(4) -0.52139(14)
H12 H 0.6267(2) -0.1344(4) -0.53785(14)
C17 C 0.56130(15) -0.1800(3) -0.45398(13)
C18 C 0.48746(15) -0.2489(4) -0.42855(13)
C19 C 0.70975(14) -0.2571(4) -0.38799(14)
H13 H 0.73108(14) -0.2894(4) -0.43125(14)
H14 H 0.68592(14) -0.3600(4) -0.36799(14)
C20 C 0.77695(14) -0.1860(3) -0.34265(13)
C21 C 0.82644(15) -0.0531(3) -0.36645(13)
H15 H 0.81736(15) -0.0072(3) -0.41119(13)
C22 C 0.78877(15) -0.2487(3) -0.27796(13)
H16 H 0.75356(15) -0.3377(3) -0.26011(13)
C23 C 0.8523(2) -0.1815(4) -0.23838(15)
H17 H 0.8620(2) -0.2284(4) -0.19389(15)
C24 C 0.9010(2) -0.0498(4) -0.26252(14)
H18 H 0.9436(2) -0.0021(4) -0.23452(14)
C25 C 0.88856(15) 0.0143(4) -0.32735(13)
C26 C 0.9387(2) 0.1648(3) -0.35522(15)
H19 H 0.9928(2) 0.1600(3) -0.33695(15)
H20 H 0.9414(2) 0.1569(3) -0.40362(15)
S2C S 0.86590(4) 0.41695(10) -0.10187(4)
N2C N 1.02696(12) 0.2438(3) -0.13783(12)
Ag1C Ag 0.561011(14) -0.09645(3) -0.289237(12)
B1 B 0.7000(2) 0.2671(7) 0.0886(2)
F1 F 0.7147(2) 0.1485(5) 0.0399(2)
F2 F 0.7015(2) 0.4156(5) 0.0379(2)
F3 F 0.7618(2) 0.2699(5) 0.1289(2)
F4 F 0.6242(2) 0.2967(4) 0.1124(2)
F5? F 0.6939(2) 0.0956(6) 0.0634(2)
F6? F 0.6632(5) 0.3789(12) 0.0575(4)
F7? F 0.7647(2) 0.3562(6) 0.1161(2)
F8? F 0.6530(4) 0.2447(9) 0.1492(3)
loop_
_geom_bond_atom_site_label_1
_geom_bond_atom_site_label_2
_geom_bond_site_symmetry_1
_geom_bond_site_symmetry_2
Ag1 S1 1_555 1_555
S1 C1 1_555 1_555
S2 C17 1_555 1_555
N1 Ag1 1_555 1_555
N2 C10 1_555 1_555
C1 C2 1_555 1_555
C2 H1 1_555 1_555
C3 C2 1_555 1_555
H2 C3 1_555 1_555
C4 C3 1_555 1_555
H3 C4 1_555 1_555
C5 C4 1_555 1_555
C6 C5 1_555 1_555
H4 C6 1_555 1_555
C7 C6 1_555 1_555
H5 C7 1_555 1_555
C8 N1 1_555 1_555
H6 C8 1_555 1_555
C9 N1 1_555 1_555
C10 H7 1_555 1_555
C11 C10 1_555 1_555
H8 C11 1_555 1_555
C12 C11 1_555 1_555
H9 C12 1_555 1_555
C13 C12 1_555 1_555
C14 C13 1_555 1_555
H10 C14 1_555 1_555
C15 C14 1_555 1_555
H11 C15 1_555 1_555
C16 C15 1_555 1_555
H12 C16 1_555 1_555
C17 C16 1_555 1_555
C18 N2 1_555 1_555
C19 S2 1_555 1_555
H13 C19 1_555 1_555
H14 C19 1_555 1_555
C20 C19 1_555 1_555
C21 C20 1_555 1_555
H15 C21 1_555 1_555
C22 C20 1_555 1_555
H16 C22 1_555 1_555
C23 C22 1_555 1_555
H17 C23 1_555 1_555
C24 C23 1_555 1_555
H18 C24 1_555 1_555
C25 C21 1_555 1_555
C26 S1 1_555 1_555
H19 C26 1_555 1_555
H20 C26 1_555 1_555
B1 F1 1_555 1_555
F2 B1 1_555 1_555
F3 B1 1_555 1_555
F4 B1 1_555 1_555
S2C Ag1 1_555 1_555
N2C Ag1 1_555 1_555
Ag1C S2 1_555 1_555
N2 Ag1C 1_555 1_555
C1 C9 1_555 1_555
C5 C9 1_555 1_555
C7 C8 1_555 1_555
C13 C18 1_555 1_555
C17 C18 1_555 1_555
C24 C25 1_555 1_555
C25 C26 1_555 1_555

#END
