
#######################################################################
#
#                 Cambridge Crystallographic Data Centre
#                                CCDC 
#
#######################################################################
#
# If this CIF has been generated from an entry in the Cambridge 
# Structural Database, then it will include bibliographic, chemical, 
# crystal, experimental, refinement or atomic coordinate data resulting 
# from the CCDC's data processing and validation procedures.
#
#######################################################################

data_WUCMAI
_symmetry_cell_setting           monoclinic
_symmetry_space_group_name_H-M   'C 2/c'
_symmetry_Int_Tables_number      15
_space_group_name_Hall           '-C 2yn'
loop_
_symmetry_equiv_pos_site_id
_symmetry_equiv_pos_as_xyz
1 x,y,z
2 1/2+x,1/2+y,z
3 x,-y,1/2+z
4 1/2+x,1/2-y,1/2+z
5 -x,-y,-z
6 1/2-x,1/2-y,-z
7 -x,y,1/2-z
8 1/2-x,1/2+y,1/2-z
_cell_length_a                   18.814(5)
_cell_length_b                   7.973(2)
_cell_length_c                   15.374(4)
_cell_angle_alpha                90
_cell_angle_beta                 108.046(4)
_cell_angle_gamma                90
_cell_volume                     2192.72
loop_
_atom_site_label
_atom_site_type_symbol
_atom_site_fract_x
_atom_site_fract_y
_atom_site_fract_z
C1 C 0.28934(13) 0.2422(3) 0.30941(17)
C2 C -0.05724(13) 0.0316(3) 0.14406(16)
C3 C 0.10338(15) 0.4402(3) 0.32077(18)
C4 C 0.05023(14) 0.7001(3) 0.49043(17)
H1 H 0.0076 0.7492 0.4977
C5 C 0.04325(15) 0.6055(3) 0.41299(19)
H2 H -0.0030 0.5907 0.3690
C6 C 0.10751(14) 0.5327(3) 0.40271(16)
C7 C 0.17534(15) 0.5530(3) 0.47020(18)
H3 H 0.2186 0.5029 0.4653
C8 C 0.17670(14) 0.6504(3) 0.54526(17)
H4 H 0.2221 0.6655 0.5908
Cd1 Cd 0.124529(8) 0.10175(2) 0.180902(11)
N1 N 0.24819(13) 0.1816(3) 0.24545(16)
N2 N -0.00360(12) 0.0804(3) 0.13157(16)
N3 N 0.10042(14) 0.3685(3) 0.25528(17)
N4 N 0.11562(11) 0.7240(2) 0.55532(13)
S1 S 0.34791(4) 0.32817(8) 0.40201(4)
S2 S -0.13431(4) -0.04022(12) 0.15943(6)
N4B N 0.11562(11) 0.2760(2) 0.05532(13)
S1G S 0.15209(4) -0.17183(8) 0.09799(4)
S2F S 0.13431(4) -0.04022(12) 0.34057(6)
Cd1B Cd 0.124529(8) 0.89825(2) 0.680902(11)
Cd1G Cd 0.375471(8) 0.60175(2) 0.319098(11)
Cd1F Cd -0.124529(8) 0.10175(2) 0.319098(11)
loop_
_geom_bond_atom_site_label_1
_geom_bond_atom_site_label_2
_geom_bond_site_symmetry_1
_geom_bond_site_symmetry_2
C1 N1 1_555 1_555
C2 N2 1_555 1_555
C3 C6 1_555 1_555
C4 H1 1_555 1_555
C5 C4 1_555 1_555
H2 C5 1_555 1_555
C6 C5 1_555 1_555
C7 C6 1_555 1_555
H3 C7 1_555 1_555
C8 C7 1_555 1_555
H4 C8 1_555 1_555
Cd1 N1 1_555 1_555
N2 Cd1 1_555 1_555
N3 C3 1_555 1_555
N4 C4 1_555 1_555
S1 C1 1_555 1_555
S2 C2 1_555 1_555
N4B Cd1 1_555 1_555
S1G Cd1 1_555 1_555
S2F Cd1 1_555 1_555
Cd1B N4 1_555 1_555
Cd1G S1 1_555 1_555
Cd1F S2 1_555 1_555
C8 N4 1_555 1_555
Cd1 N3 1_555 1_555

#END
