
#######################################################################
#
#                 Cambridge Crystallographic Data Centre
#                                CCDC 
#
#######################################################################
#
# If this CIF has been generated from an entry in the Cambridge 
# Structural Database, then it will include bibliographic, chemical, 
# crystal, experimental, refinement or atomic coordinate data resulting 
# from the CCDC's data processing and validation procedures.
#
#######################################################################

data_WUCMEM
_symmetry_cell_setting           monoclinic
_symmetry_space_group_name_H-M   'P 21/n'
_symmetry_Int_Tables_number      14
_space_group_name_Hall           '-P 2yn'
loop_
_symmetry_equiv_pos_site_id
_symmetry_equiv_pos_as_xyz
1 x,y,z
2 1/2+x,1/2-y,1/2+z
3 -x,-y,-z
4 1/2-x,1/2+y,1/2-z
_cell_length_a                   6.1196(2)
_cell_length_b                   22.5318(8)
_cell_length_c                   11.96170(10)
_cell_angle_alpha                90.00
_cell_angle_beta                 91.766(2)
_cell_angle_gamma                90.00
_cell_volume                     1648.56
loop_
_atom_site_label
_atom_site_type_symbol
_atom_site_fract_x
_atom_site_fract_y
_atom_site_fract_z
Gd1 Gd 1.43790(10) 0.14782(2) 1.43888(5)
Zn1 Zn 1.0000 0.0000 1.0000
O1 O 1.3189(14) 0.0414(3) 1.4789(7)
H1 H 1.3505(14) 0.0330(3) 1.5441(7)
O2 O 1.7305(14) 0.0843(3) 1.3855(7)
H2 H 1.8347(14) 0.0885(3) 1.4295(7)
O3 O 1.5083(15) 0.1145(3) 1.6286(7)
H3 H 1.5699(15) 0.1409(3) 1.6646(7)
O4 O 1.2686(14) 0.2283(3) 1.3475(7)
O5 O 1.2507(16) 0.3126(4) 1.2499(8)
O6 O 1.5662(12) 0.3564(3) 0.9947(6)
O7 O 1.2660(12) 0.3016(3) 1.0151(6)
O8 O 1.2739(13) 0.1037(3) 1.2816(6)
O9 O 1.1128(13) 0.0420(4) 1.1594(7)
O10 O 1.5673(13) -0.0132(3) 1.2449(7)
O11 O 1.7990(13) -0.0413(3) 1.1135(7)
N1 N 1.6475(15) 0.2020(4) 1.2607(8)
N2 N 1.8050(16) 0.2647(4) 1.0772(8)
N3 N 1.4067(17) 0.1368(4) 1.0470(8)
N4 N 1.7520(15) 0.0617(4) 1.0074(8)
C1 C 1.3297(20) 0.2631(5) 1.2736(10)
C2 C 1.5260(19) 0.2449(5) 1.2079(9)
C3 C 1.6003(19) 0.2735(4) 1.1136(9)
C4 C 1.9183(20) 0.2220(5) 1.1294(11)
H4 H 2.0588(20) 0.2141(5) 1.1060(11)
C5 C 1.8406(19) 0.1893(5) 1.2150(10)
H5 H 1.9224(19) 0.1574(5) 1.2426(10)
C6 C 1.4643(20) 0.3146(5) 1.0367(9)
C7 C 1.2673(19) 0.0748(5) 1.1922(10)
C8 C 1.4399(19) 0.0874(5) 1.1061(9)
C9 C 1.6106(19) 0.0487(5) 1.0890(10)
C10 C 1.7164(22) 0.1090(5) 0.9451(10)
H6 H 1.8087(22) 0.1175(5) 0.8868(10)
C11 C 1.5418(19) 0.1467(5) 0.9658(10)
H7 H 1.5201(19) 0.1799(5) 0.9207(10)
C12 C 1.6631(20) -0.0064(5) 1.1555(10)
O8B O 0.7261(13) -0.1037(3) 0.7184(6)
O9B O 0.8872(13) -0.0420(4) 0.8406(7)
O10B O 0.4327(13) 0.0132(3) 0.7551(7)
O11B O 0.2010(13) 0.0413(3) 0.8865(7)
N3B N 0.5933(17) -0.1368(4) 0.9530(8)
N4B N 0.2480(15) -0.0617(4) 0.9926(8)
C7B C 0.7327(19) -0.0748(5) 0.8078(10)
C8B C 0.5601(19) -0.0874(5) 0.8939(9)
C9B C 0.3894(19) -0.0487(5) 0.9110(10)
C10B C 0.2836(22) -0.1090(5) 1.0549(10)
H6B H 0.1913(22) -0.1175(5) 1.1132(10)
C11B C 0.4582(19) -0.1467(5) 1.0342(10)
H7B H 0.4799(19) -0.1799(5) 1.0793(10)
C12B C 0.3369(20) 0.0064(5) 0.8445(10)
Gd1B Gd 0.56210(10) -0.14782(2) 0.56112(5)
O4A O 0.7686(14) 0.2717(3) 1.8475(7)
O5A O 0.7507(16) 0.1874(4) 1.7499(8)
O6A O 1.0662(12) 0.1436(3) 1.4947(6)
O7A O 0.7660(12) 0.1984(3) 1.5151(6)
N1A N 1.1475(15) 0.2980(4) 1.7607(8)
N2A N 1.3050(16) 0.2353(4) 1.5772(8)
C1A C 0.8297(20) 0.2369(5) 1.7736(10)
C2A C 1.0260(19) 0.2551(5) 1.7079(9)
C3A C 1.1003(19) 0.2265(4) 1.6136(9)
C4A C 1.4183(20) 0.2780(5) 1.6294(11)
H4A H 1.5588(20) 0.2859(5) 1.6060(11)
C5A C 1.3406(19) 0.3107(5) 1.7150(10)
H5A H 1.4224(19) 0.3426(5) 1.7426(10)
C6A C 0.9643(20) 0.1854(5) 1.5367(9)
O1B O 0.6811(14) -0.0414(3) 0.5211(7)
H1B H 0.6495(14) -0.0330(3) 0.4559(7)
O2B O 0.2695(14) -0.0843(3) 0.6145(7)
H2B H 0.1653(14) -0.0885(3) 0.5705(7)
O3B O 0.4917(15) -0.1145(3) 0.3714(7)
H3B H 0.4301(15) -0.1409(3) 0.3354(7)
O7A_2 O 1.7660(12) 0.1984(3) 1.5151(6)
O11_2 O 0.7990(13) -0.0413(3) 1.1135(7)
O11B_2 O 1.2010(13) 0.0413(3) 0.8865(7)
N4_2 N 0.7520(15) 0.0617(4) 1.0074(8)
N4B_2 N 1.2480(15) -0.0617(4) 0.9926(8)
Gd1A Gd 1.93790(10) 0.35218(2) 0.93888(5)
Gd1A_2 Gd 0.93790(10) 0.35218(2) 0.93888(5)
Zn1_2 Zn 2.0000 0.0000 1.0000
Zn1_3 Zn 0.0000 0.0000 1.0000
O4B O 0.7314(14) -0.2283(3) 0.6525(7)
O6C O 0.9338(12) -0.1436(3) 0.5053(6)
O7C O 0.2340(12) -0.1984(3) 0.4849(6)
N1B N 0.3525(15) -0.2020(4) 0.7393(8)
N2C N 0.6950(16) -0.2353(4) 0.4228(8)
Gd1A_3 Gd 0.93790(10) 0.35218(2) 1.93888(5)
Gd1_2 Gd 0.43790(10) 0.14782(2) 1.43888(5)
O12 O 0.0415(17) -0.0308(4) 1.3564(8)
loop_
_geom_bond_atom_site_label_1
_geom_bond_atom_site_label_2
_geom_bond_site_symmetry_1
_geom_bond_site_symmetry_2
Gd1 O1 1_555 1_555
Zn1 O9 1_555 1_555
O1 H1 1_555 1_555
O2 Gd1 1_555 1_555
H2 O2 1_555 1_555
O3 Gd1 1_555 1_555
H3 O3 1_555 1_555
O4 Gd1 1_555 1_555
O5 C1 1_555 1_555
O6 C6 1_555 1_555
O7 C6 1_555 1_555
O8 Gd1 1_555 1_555
O9 C7 1_555 1_555
O10 C12 1_555 1_555
O11 C12 1_555 1_555
N1 Gd1 1_555 1_555
N2 C3 1_555 1_555
N3 C8 1_555 1_555
N4 C9 1_555 1_555
C1 O4 1_555 1_555
C2 N1 1_555 1_555
C3 C2 1_555 1_555
C4 N2 1_555 1_555
H4 C4 1_555 1_555
C5 N1 1_555 1_555
H5 C5 1_555 1_555
C6 C3 1_555 1_555
C7 O8 1_555 1_555
C8 C7 1_555 1_555
C9 C8 1_555 1_555
C10 N4 1_555 1_555
H6 C10 1_555 1_555
C11 N3 1_555 1_555
H7 C11 1_555 1_555
C12 C9 1_555 1_555
O8B C7B 1_555 1_555
O9B Zn1 1_555 1_555
O10B C12B 1_555 1_555
O11B C12B 1_555 1_555
N3B C8B 1_555 1_555
N4B C9B 1_555 1_555
C7B O9B 1_555 1_555
C8B C7B 1_555 1_555
C9B C8B 1_555 1_555
C10B N4B 1_555 1_555
H6B C10B 1_555 1_555
C11B N3B 1_555 1_555
H7B C11B 1_555 1_555
C12B C9B 1_555 1_555
Gd1B O8B 1_555 1_555
O4A C1A 1_555 1_555
O5A C1A 1_555 1_555
O6A Gd1 1_555 1_555
O7A C6A 1_555 1_555
N1A C2A 1_555 1_555
N2A Gd1 1_555 1_555
C1A C2A 1_555 1_555
C2A C3A 1_555 1_555
C3A N2A 1_555 1_555
C4A N2A 1_555 1_555
H4A C4A 1_555 1_555
C5A N1A 1_555 1_555
H5A C5A 1_555 1_555
C6A O6A 1_555 1_555
O1B Gd1B 1_555 1_555
H1B O1B 1_555 1_555
O2B Gd1B 1_555 1_555
H2B O2B 1_555 1_555
O3B Gd1B 1_555 1_555
H3B O3B 1_555 1_555
O7A_2 Gd1 1_555 1_555
O11_2 Zn1 1_555 1_555
O11B_2 Zn1 1_555 1_555
N4_2 Zn1 1_555 1_555
N4B_2 Zn1 1_555 1_555
Gd1A O6 1_555 1_555
Gd1A_2 O7 1_555 1_555
Zn1_2 O11 1_555 1_555
Zn1_3 O11B 1_555 1_555
O4B Gd1B 1_555 1_555
O6C Gd1B 1_555 1_555
O7C Gd1B 1_555 1_555
N1B Gd1B 1_555 1_555
N2C Gd1B 1_555 1_555
Gd1A_3 O4A 1_555 1_555
Gd1_2 O7A 1_555 1_555
N2 Gd1A 1_555 1_555
N4 Zn1_2 1_555 1_555
C1 C2 1_555 1_555
C4 C5 1_555 1_555
C10 C11 1_555 1_555
N4B Zn1_3 1_555 1_555
C10B C11B 1_555 1_555
N1A Gd1A_3 1_555 1_555
C3A C6A 1_555 1_555
C4A C5A 1_555 1_555

#END
