
#######################################################################
#
#                 Cambridge Crystallographic Data Centre
#                                CCDC 
#
#######################################################################
#
# If this CIF has been generated from an entry in the Cambridge 
# Structural Database, then it will include bibliographic, chemical, 
# crystal, experimental, refinement or atomic coordinate data resulting 
# from the CCDC's data processing and validation procedures.
#
#######################################################################

data_WUCQOA
_symmetry_cell_setting           monoclinic
_symmetry_space_group_name_H-M   'C 2/c'
_symmetry_Int_Tables_number      15
_space_group_name_Hall           '-C 2yn'
loop_
_symmetry_equiv_pos_site_id
_symmetry_equiv_pos_as_xyz
1 x,y,z
2 1/2+x,1/2+y,z
3 x,-y,1/2+z
4 1/2+x,1/2-y,1/2+z
5 -x,-y,-z
6 1/2-x,1/2-y,-z
7 -x,y,1/2-z
8 1/2-x,1/2+y,1/2-z
_cell_length_a                   14.1640(14)
_cell_length_b                   11.2088(11)
_cell_length_c                   12.6934(12)
_cell_angle_alpha                90
_cell_angle_beta                 113.225(2)
_cell_angle_gamma                90
_cell_volume                     1851.92
loop_
_atom_site_label
_atom_site_type_symbol
_atom_site_fract_x
_atom_site_fract_y
_atom_site_fract_z
Co1 Co 0.2500 0.2500 0.0000
C1 C 0.3288(3) 0.7366(3) 0.3124(3)
C2 C 0.3483(2) 0.6697(3) 0.2187(3)
C3 C 0.3684(3) 0.7343(3) 0.1361(3)
H1 H 0.372(2) 0.810(3) 0.138(2)
C4 C 0.3872(2) 0.6725(3) 0.0512(3)
C5 C 0.4070(3) 0.7377(3) -0.0410(3)
C6 C 0.3877(3) 0.5493(3) 0.0498(3)
H2 H 0.404(3) 0.506(3) -0.005(3)
C7 C 0.3690(2) 0.4850(3) 0.1326(3)
C8 C 0.3469(3) 0.5467(3) 0.2158(3)
H3 H 0.338(3) 0.502(3) 0.270(3)
N1 N 0.3707(2) 0.3577(3) 0.1303(3)
H4 H 0.429(3) 0.331(3) 0.117(3)
H5 H 0.377(3) 0.334(4) 0.186(4)
O1 O 0.3494(3) 0.8432(3) 0.3256(3)
O2 O 0.2930(2) 0.3231(2) -0.1272(2)
O3 O 0.4250(2) 0.6855(2) -0.1150(2)
O4 O 0.4030(2) 0.8544(3) -0.0361(2)
H6 H 0.411(4) 0.885(4) -0.085(4)
O5 O 0.3574(2) 0.1126(3) 0.0367(3)
H7 H 0.3510 0.0451 0.0411
H8 H 0.3692 0.1026 -0.0165
N1E N 0.1293(2) 0.1423(3) -0.1303(3)
O2E O 0.2070(2) 0.1769(2) 0.1272(2)
O5E O 0.1426(2) 0.3874(3) -0.0367(3)
O2B O 0.2930(2) 0.6769(2) 0.3728(2)
C1B C 0.3288(3) 0.2634(3) -0.1876(3)
C2B C 0.3483(2) 0.3303(3) -0.2813(3)
O1B O 0.3494(3) 0.1568(3) -0.1744(3)
C3B C 0.3684(3) 0.2657(3) -0.3639(3)
C8B C 0.3469(3) 0.4533(3) -0.2842(3)
H1B H 0.372(2) 0.190(3) -0.362(2)
C4B C 0.3872(2) 0.3275(3) -0.4488(3)
C7B C 0.3690(2) 0.5150(3) -0.3674(3)
H3B H 0.338(3) 0.498(3) -0.230(3)
C5B C 0.4070(3) 0.2623(3) -0.5410(3)
C6B C 0.3877(3) 0.4507(3) -0.4502(3)
N1B N 0.3707(2) 0.6423(3) -0.3697(3)
O3B O 0.4250(2) 0.3145(2) -0.6150(2)
O4B O 0.4030(2) 0.1456(3) -0.5361(2)
H2B H 0.404(3) 0.494(3) -0.505(3)
Co1B Co 0.2500 0.7500 -0.5000
H4B H 0.429(3) 0.669(3) -0.383(3)
H5B H 0.377(3) 0.666(4) -0.314(4)
H6B H 0.411(4) 0.115(4) -0.585(4)
H7E H 0.1490 0.4549 -0.0411
H8E H 0.1308 0.3974 0.0165
Co1B_2 Co 0.2500 0.7500 0.5000
H4E H 0.071(3) 0.169(3) -0.117(3)
H5E H 0.123(3) 0.166(4) -0.186(4)
O6 O 0.4076(3) 1.0474(3) 0.2739(3)
H9 H 0.3850 0.9687 0.2820
H10 H 0.4531 1.0589 0.2680
loop_
_geom_bond_atom_site_label_1
_geom_bond_atom_site_label_2
_geom_bond_site_symmetry_1
_geom_bond_site_symmetry_2
Co1 N1 1_555 1_555
C1 C2 1_555 1_555
C2 C3 1_555 1_555
C3 H1 1_555 1_555
C4 C3 1_555 1_555
C5 C4 1_555 1_555
C6 C4 1_555 1_555
H2 C6 1_555 1_555
C7 C6 1_555 1_555
C8 C2 1_555 1_555
H3 C8 1_555 1_555
N1 C7 1_555 1_555
H4 N1 1_555 1_555
H5 N1 1_555 1_555
O1 C1 1_555 1_555
O2 Co1 1_555 1_555
O3 C5 1_555 1_555
O4 C5 1_555 1_555
H6 O4 1_555 1_555
O5 Co1 1_555 1_555
H7 O5 1_555 1_555
H8 O5 1_555 1_555
O6 H9 1_555 1_555
H10 O6 1_555 1_555
N1E Co1 1_555 1_555
O2E Co1 1_555 1_555
O5E Co1 1_555 1_555
O2B C1 1_555 1_555
C1B O2 1_555 1_555
C2B C1B 1_555 1_555
O1B C1B 1_555 1_555
C3B C2B 1_555 1_555
C8B C2B 1_555 1_555
H1B C3B 1_555 1_555
C4B C3B 1_555 1_555
C7B C8B 1_555 1_555
H3B C8B 1_555 1_555
C5B C4B 1_555 1_555
C6B C4B 1_555 1_555
N1B C7B 1_555 1_555
O3B C5B 1_555 1_555
O4B C5B 1_555 1_555
H2B C6B 1_555 1_555
Co1B N1B 1_555 1_555
H4B N1B 1_555 1_555
H5B N1B 1_555 1_555
H6B O4B 1_555 1_555
H7E O5E 1_555 1_555
H8E O5E 1_555 1_555
Co1B_2 O2B 1_555 1_555
H4E N1E 1_555 1_555
H5E N1E 1_555 1_555
C7 C8 1_555 1_555
C7B C6B 1_555 1_555

#END
