
#######################################################################
#
#                 Cambridge Crystallographic Data Centre
#                                CCDC 
#
#######################################################################
#
# If this CIF has been generated from an entry in the Cambridge 
# Structural Database, then it will include bibliographic, chemical, 
# crystal, experimental, refinement or atomic coordinate data resulting 
# from the CCDC's data processing and validation procedures.
#
#######################################################################

data_WUCRUH
_symmetry_cell_setting           monoclinic
_symmetry_space_group_name_H-M   'C 2'
_symmetry_Int_Tables_number      5
_space_group_name_Hall           'C 2y'
loop_
_symmetry_equiv_pos_site_id
_symmetry_equiv_pos_as_xyz
1 x,y,z
2 -x,y,-z
3 1/2+x,1/2+y,z
4 1/2-x,1/2+y,-z
_cell_length_a                   9.7367(8)
_cell_length_b                   17.1463(14)
_cell_length_c                   7.1062(6)
_cell_angle_alpha                90.00
_cell_angle_beta                 101.909(2)
_cell_angle_gamma                90.00
_cell_volume                     1160.83
loop_
_atom_site_label
_atom_site_type_symbol
_atom_site_fract_x
_atom_site_fract_y
_atom_site_fract_z
Fe1 Fe 0.5000 0.16361(7) 0.0000
Fe2 Fe -0.30470(8) 0.33845(5) -0.43161(13)
O1 O -0.2361(5) 0.2717(3) -0.1746(7)
O2 O 0.2169(5) 0.2649(3) -0.3987(7)
O3 O -0.5000 0.2638(4) -0.5000
O4 O 0.3656(4) 0.1695(3) -0.2841(6)
O5 O 0.1022(5) -0.0918(3) -0.2578(8)
O6 O -0.3378(4) 0.1565(3) -0.1456(7)
O7 O 0.5000 0.0390(4) 0.0000
O8 O 0.5000 0.2872(4) 0.0000
O9 O -0.1177(5) 0.4062(3) -0.3668(8)
O10 O -0.1289(5) -0.0822(3) -0.3325(8)
C1 C 0.1227(5) 0.1545(4) -0.2743(8)
C2 C -0.1133(5) 0.1549(4) -0.2156(8)
C3 C 0.0006(6) 0.0339(3) -0.2558(8)
C4 C 0.1228(6) 0.0736(3) -0.2733(8)
H1 H 0.2031(6) 0.0460(3) -0.2841(8)
C5 C -0.0090(6) -0.0528(3) -0.2827(9)
C6 C 0.0040(6) 0.1952(3) -0.2477(8)
H2 H 0.0032(6) 0.2494(3) -0.2515(8)
C7 C -0.2375(6) 0.1975(4) -0.1768(9)
C8 C 0.2447(6) 0.1996(3) -0.3214(9)
C9 C -0.1149(6) 0.0740(3) -0.2253(9)
H3 H -0.1948(6) 0.0467(3) -0.2110(9)
O1A O 1.2361(5) 0.2717(3) 0.1746(7)
O2A O 0.7831(5) 0.2649(3) 0.3987(7)
O4A O 0.6344(4) 0.1695(3) 0.2841(6)
O5A O 0.8978(5) -0.0918(3) 0.2578(8)
O6A O 1.3378(4) 0.1565(3) 0.1456(7)
O10A O 1.1289(5) -0.0822(3) 0.3325(8)
C1A C 0.8773(5) 0.1545(4) 0.2743(8)
C2A C 1.1133(5) 0.1549(4) 0.2156(8)
C3A C 0.9994(6) 0.0339(3) 0.2558(8)
C4A C 0.8772(6) 0.0736(3) 0.2733(8)
H1A H 0.7969(6) 0.0460(3) 0.2841(8)
C5A C 1.0090(6) -0.0528(3) 0.2827(9)
C6A C 0.9960(6) 0.1952(3) 0.2477(8)
H2A H 0.9968(6) 0.2494(3) 0.2515(8)
C7A C 1.2375(6) 0.1975(4) 0.1768(9)
C8A C 0.7553(6) 0.1996(3) 0.3214(9)
C9A C 1.1149(6) 0.0740(3) 0.2253(9)
H3A H 1.1948(6) 0.0467(3) 0.2110(9)
Fe2A Fe 1.30470(8) 0.33845(5) 0.43161(13)
O9A O 1.1177(5) 0.4062(3) 0.3668(8)
O6_2 O 0.6622(4) 0.1565(3) -0.1456(7)
O6A_2 O 0.3378(4) 0.1565(3) 0.1456(7)
O2A_2 O -0.2169(5) 0.2649(3) -0.6013(7)
O5B O -0.3978(5) 0.4082(3) -0.2578(8)
O10C O -0.3711(5) 0.4178(3) -0.6675(8)
Fe2A_2 Fe 0.30470(8) 0.33845(5) -0.56839(13)
Fe2A_3 Fe -0.69530(8) 0.33845(5) -0.56839(13)
Fe2B Fe 0.19530(8) -0.16155(5) -0.43161(13)
Fe1_2 Fe -0.5000 0.16361(7) 0.0000
Fe2C Fe -0.19530(8) -0.16155(5) -0.56839(13)
Fe2_2 Fe 0.69530(8) 0.33845(5) 0.56839(13)
Fe2C_2 Fe 0.80470(8) -0.16155(5) 0.43161(13)
Fe1_3 Fe 1.5000 0.16361(7) 0.0000
Fe2B_2 Fe 1.19530(8) -0.16155(5) 0.56839(13)
O2_2 O 1.2169(5) 0.2649(3) 0.6013(7)
O3_2 O 1.5000 0.2638(4) 0.5000
O5C O 1.3978(5) 0.4082(3) 0.2578(8)
O10B O 1.3711(5) 0.4178(3) 0.6675(8)
O11 O 0.3531(6) -0.0930(4) 0.1145(9)
O12 O 0.5000 0.0449(5) 0.5000
loop_
_geom_bond_atom_site_label_1
_geom_bond_atom_site_label_2
_geom_bond_site_symmetry_1
_geom_bond_site_symmetry_2
Fe1 O4 1_555 1_555
Fe2 O1 1_555 1_555
O1 C7 1_555 1_555
O2 C8 1_555 1_555
O3 Fe2 1_555 1_555
O4 C8 1_555 1_555
O5 C5 1_555 1_555
O6 C7 1_555 1_555
O7 Fe1 1_555 1_555
O8 Fe1 1_555 1_555
O9 Fe2 1_555 1_555
O10 C5 1_555 1_555
C1 C4 1_555 1_555
C2 C6 1_555 1_555
C3 C4 1_555 1_555
C4 H1 1_555 1_555
C5 C3 1_555 1_555
C6 C1 1_555 1_555
H2 C6 1_555 1_555
C7 C2 1_555 1_555
C8 C1 1_555 1_555
C9 C2 1_555 1_555
H3 C9 1_555 1_555
O1A C7A 1_555 1_555
O2A C8A 1_555 1_555
O4A Fe1 1_555 1_555
O5A C5A 1_555 1_555
O6A C7A 1_555 1_555
O10A C5A 1_555 1_555
C1A C4A 1_555 1_555
C2A C6A 1_555 1_555
C3A C4A 1_555 1_555
C4A H1A 1_555 1_555
C5A C3A 1_555 1_555
C6A C1A 1_555 1_555
H2A C6A 1_555 1_555
C7A C2A 1_555 1_555
C8A O4A 1_555 1_555
C9A C2A 1_555 1_555
H3A C9A 1_555 1_555
Fe2A O1A 1_555 1_555
O9A Fe2A 1_555 1_555
O6_2 Fe1 1_555 1_555
O6A_2 Fe1 1_555 1_555
O2A_2 Fe2 1_555 1_555
O5B Fe2 1_555 1_555
O10C Fe2 1_555 1_555
Fe2A_2 O2 1_555 1_555
Fe2A_3 O3 1_555 1_555
Fe2B O5 1_555 1_555
Fe1_2 O6 1_555 1_555
Fe2C O10 1_555 1_555
Fe2_2 O2A 1_555 1_555
Fe2C_2 O5A 1_555 1_555
Fe1_3 O6A 1_555 1_555
Fe2B_2 O10A 1_555 1_555
O2_2 Fe2A 1_555 1_555
O3_2 Fe2A 1_555 1_555
O5C Fe2A 1_555 1_555
O10B Fe2A 1_555 1_555
C3 C9 1_555 1_555
C1A C8A 1_555 1_555
C3A C9A 1_555 1_555

#END
