
#######################################################################
#
#                 Cambridge Crystallographic Data Centre
#                                CCDC 
#
#######################################################################
#
# If this CIF has been generated from an entry in the Cambridge 
# Structural Database, then it will include bibliographic, chemical, 
# crystal, experimental, refinement or atomic coordinate data resulting 
# from the CCDC's data processing and validation procedures.
#
#######################################################################

data_WUCSOE
_symmetry_cell_setting           monoclinic
_symmetry_space_group_name_H-M   'P 2/c'
_symmetry_Int_Tables_number      13
_space_group_name_Hall           '-P 2yc'
loop_
_symmetry_equiv_pos_site_id
_symmetry_equiv_pos_as_xyz
1 x,y,z
2 -x,y,1/2-z
3 -x,-y,-z
4 x,-y,1/2+z
_cell_length_a                   7.782(5)
_cell_length_b                   7.787(5)
_cell_length_c                   26.565(17)
_cell_angle_alpha                90
_cell_angle_beta                 96.944(13)
_cell_angle_gamma                90
_cell_volume                     1597.99
loop_
_atom_site_label
_atom_site_type_symbol
_atom_site_fract_x
_atom_site_fract_y
_atom_site_fract_z
Zn1 Zn 0.61226(18) 0.87890(15) 0.09729(5)
Br1 Br 0.8535(2) 0.6703(2) -0.09402(5)
Br2 Br 0.7828(3) 0.5721(2) 0.29616(5)
O1 O 0.7016(14) 0.0524(10) 0.1531(4)
O2 O 0.6009(14) 0.1763(11) 0.0804(4)
O3 O 1.3161(13) 0.8875(14) 0.1151(4)
O4 O 1.4152(12) 0.8001(13) 0.0456(4)
N1 N 0.8066(13) 0.8284(11) 0.0515(4)
N2 N 0.6600(14) 0.6634(10) 0.1445(3)
C1 C 0.9711(17) 0.8431(13) 0.0722(5)
H1 H 0.9924 0.8776 0.1059
C2 C 1.1112(16) 0.8100(13) 0.0464(4)
C3 C 1.0752(16) 0.7546(14) -0.0041(4)
H2 H 1.1652 0.7283 -0.0228
C4 C 0.9069(16) 0.7398(13) -0.0257(4)
C5 C 0.7712(17) 0.7770(13) 0.0027(4)
H3 H 0.6569 0.7663 -0.0119
C6 C 1.2922(17) 0.8355(15) 0.0719(5)
C7 C 0.7033(15) 0.6789(13) 0.1951(4)
H4 H 0.7166 0.7877 0.2095
C8 C 0.7280(19) 0.5377(15) 0.2256(5)
C9 C 0.7183(18) 0.3739(15) 0.2048(5)
H5 H 0.7393 0.2775 0.2252
C10 C 0.6764(16) 0.3571(12) 0.1525(4)
C11 C 0.6487(15) 0.5061(12) 0.1248(4)
H6 H 0.6203 0.4961 0.0899
C12 C 0.6606(17) 0.1848(14) 0.1265(5)
Zn1_2 Zn 0.61226(18) -0.12110(15) 0.09729(5)
Zn1_3 Zn 1.61226(18) 0.87890(15) 0.09729(5)
O1_2 O 0.7016(14) 1.0524(10) 0.1531(4)
O2_2 O 0.6009(14) 1.1763(11) 0.0804(4)
O3_2 O 0.3161(13) 0.8875(14) 0.1151(4)
O4_2 O 0.4152(12) 0.8001(13) 0.0456(4)
O5 O 0.662(3) 0.040(2) 0.2839(6)
H7 H 0.7701 0.0526 0.2818
H8 H 0.6546 -0.0047 0.3130
O6? O 0.996(6) 0.021(5) 0.2315(12)
loop_
_geom_bond_atom_site_label_1
_geom_bond_atom_site_label_2
_geom_bond_site_symmetry_1
_geom_bond_site_symmetry_2
Zn1 N1 1_555 1_555
Br1 C4 1_555 1_555
Br2 C8 1_555 1_555
O1 C12 1_555 1_555
O2 C12 1_555 1_555
O3 C6 1_555 1_555
O4 C6 1_555 1_555
N1 C1 1_555 1_555
N2 Zn1 1_555 1_555
C1 H1 1_555 1_555
C2 C1 1_555 1_555
C3 C2 1_555 1_555
H2 C3 1_555 1_555
C4 C3 1_555 1_555
C5 N1 1_555 1_555
H3 C5 1_555 1_555
C6 C2 1_555 1_555
C7 N2 1_555 1_555
H4 C7 1_555 1_555
C8 C7 1_555 1_555
C9 C8 1_555 1_555
H5 C9 1_555 1_555
C10 C9 1_555 1_555
C11 N2 1_555 1_555
H6 C11 1_555 1_555
C12 C10 1_555 1_555
O5 H7 1_555 1_555
H8 O5 1_555 1_555
Zn1_2 O1 1_555 1_555
Zn1_3 O3 1_555 1_555
O1_2 Zn1 1_555 1_555
O2_2 Zn1 1_555 1_555
O3_2 Zn1 1_555 1_555
O4_2 Zn1 1_555 1_555
O2 Zn1_2 1_555 1_555
O4 Zn1_3 1_555 1_555
C4 C5 1_555 1_555
C10 C11 1_555 1_555

#END
