
#######################################################################
#
#                 Cambridge Crystallographic Data Centre
#                                CCDC 
#
#######################################################################
#
# If this CIF has been generated from an entry in the Cambridge 
# Structural Database, then it will include bibliographic, chemical, 
# crystal, experimental, refinement or atomic coordinate data resulting 
# from the CCDC's data processing and validation procedures.
#
#######################################################################

data_WUCWIC
_symmetry_cell_setting           tetragonal
_symmetry_space_group_name_H-M   'I 41/a'
_symmetry_Int_Tables_number      88
_space_group_name_Hall           '-I 4ad'
loop_
_symmetry_equiv_pos_site_id
_symmetry_equiv_pos_as_xyz
1 x,y,z
2 1/2-x,-y,1/2+z
3 3/4-y,1/4+x,1/4+z
4 3/4+y,3/4-x,3/4+z
5 1/2+x,1/2+y,1/2+z
6 -x,1/2-y,z
7 1/4-y,3/4+x,3/4+z
8 1/4+y,1/4-x,1/4+z
9 -x,-y,-z
10 1/2+x,y,1/2-z
11 1/4+y,3/4-x,3/4-z
12 1/4-y,1/4+x,1/4-z
13 1/2-x,1/2-y,1/2-z
14 x,1/2+y,-z
15 3/4+y,1/4-x,1/4-z
16 3/4-y,3/4+x,3/4-z
_cell_length_a                   30.2710(4)
_cell_length_b                   30.2710(4)
_cell_length_c                   8.2855(3)
_cell_angle_alpha                90
_cell_angle_beta                 90
_cell_angle_gamma                90
_cell_volume                     7592.28
loop_
_atom_site_label
_atom_site_type_symbol
_atom_site_fract_x
_atom_site_fract_y
_atom_site_fract_z
Tb1 Tb 0.025772(6) 0.806925(6) 0.03945(2)
O1 O 0.05893(10) 0.77687(9) 0.2727(3)
O2 O 0.08155(9) 0.78225(9) 0.5292(3)
O3 O 0.06032(10) 1.14894(9) 0.2100(4)
O4 O -0.00198(10) 1.12777(9) 0.0864(3)
O5 O -0.04030(9) 0.76863(8) -0.0096(3)
H1 H -0.0613 0.7782 0.0492
N1 N 0.05714(11) 0.86418(11) 0.2388(4)
C1 C 0.07062(13) 0.79847(13) 0.3959(5)
C2 C 0.06973(14) 0.84826(13) 0.3820(5)
C3 C 0.07918(18) 0.87558(15) 0.5092(6)
H2 H 0.0895 0.8637 0.6056
C4 C 0.0735(2) 0.92056(15) 0.4951(6)
H3 H 0.0790 0.9391 0.5824
C5 C 0.05936(17) 0.93796(15) 0.3470(6)
C6 C 0.05256(16) 0.90745(14) 0.2237(6)
H4 H 0.0442 0.9183 0.1232
C7 C 0.05172(18) 0.98546(15) 0.3170(6)
C8 C 0.0791(2) 1.01819(16) 0.3710(8)
H5 H 0.1027 1.0109 0.4379
C9 C 0.0726(2) 1.06184(17) 0.3287(7)
H6 H 0.0921 1.0833 0.3660
C10 C 0.03787(17) 1.07390(15) 0.2326(6)
C11 C 0.00752(18) 1.04129(16) 0.1898(6)
H7 H -0.0176 1.0490 0.1314
C12 C 0.01414(19) 0.99789(16) 0.2329(7)
H8 H -0.0068 0.9767 0.2053
C13 C 0.03162(16) 1.12067(14) 0.1725(5)
Tb1E Tb -0.025772(6) 0.693075(6) 0.03945(2)
Tb1G Tb 0.056925(6) 1.224228(6) 0.28945(2)
Tb1H Tb -0.025772(6) 1.193075(6) -0.03945(2)
Tb1J Tb 0.056925(6) 0.724228(6) 0.71055(2)
Tb1O Tb -0.056925(6) 0.775772(6) -0.28945(2)
O2O O -0.03225(9) 0.83155(9) 0.2208(3)
O3F O 0.10106(9) 0.81032(10) -0.0400(4)
O4H O 0.00198(10) 0.87223(9) -0.0864(3)
O5E O 0.04030(9) 0.73137(8) -0.0096(3)
O5J O 0.01863(8) 0.79030(9) -0.2404(3)
loop_
_geom_bond_atom_site_label_1
_geom_bond_atom_site_label_2
_geom_bond_site_symmetry_1
_geom_bond_site_symmetry_2
Tb1 O1 1_555 1_555
O1 C1 1_555 1_555
O2 C1 1_555 1_555
O3 C13 1_555 1_555
O4 C13 1_555 1_555
O5 Tb1 1_555 1_555
H1 O5 1_555 1_555
N1 Tb1 1_555 1_555
C1 C2 1_555 1_555
C2 N1 1_555 1_555
C3 C2 1_555 1_555
H2 C3 1_555 1_555
C4 C3 1_555 1_555
H3 C4 1_555 1_555
C5 C4 1_555 1_555
C6 N1 1_555 1_555
H4 C6 1_555 1_555
C7 C5 1_555 1_555
C8 C7 1_555 1_555
H5 C8 1_555 1_555
C9 C8 1_555 1_555
H6 C9 1_555 1_555
C10 C9 1_555 1_555
C11 C10 1_555 1_555
H7 C11 1_555 1_555
C12 C7 1_555 1_555
H8 C12 1_555 1_555
C13 C10 1_555 1_555
Tb1E O5 1_555 1_555
Tb1G O3 1_555 1_555
Tb1H O4 1_555 1_555
Tb1J O2 1_555 1_555
Tb1O O5 1_555 1_555
O2O Tb1 1_555 1_555
O3F Tb1 1_555 1_555
O4H Tb1 1_555 1_555
O5E Tb1 1_555 1_555
O5J Tb1 1_555 1_555
C5 C6 1_555 1_555
C11 C12 1_555 1_555
Tb1E O5E 1_555 1_555
Tb1O O5J 1_555 1_555

#END
