
#######################################################################
#
#                 Cambridge Crystallographic Data Centre
#                                CCDC 
#
#######################################################################
#
# If this CIF has been generated from an entry in the Cambridge 
# Structural Database, then it will include bibliographic, chemical, 
# crystal, experimental, refinement or atomic coordinate data resulting 
# from the CCDC's data processing and validation procedures.
#
#######################################################################

data_WUCZID
_symmetry_cell_setting           monoclinic
_symmetry_space_group_name_H-M   'P 21/n'
_symmetry_Int_Tables_number      14
_space_group_name_Hall           '-P 2yn'
loop_
_symmetry_equiv_pos_site_id
_symmetry_equiv_pos_as_xyz
1 x,y,z
2 1/2+x,1/2-y,1/2+z
3 -x,-y,-z
4 1/2-x,1/2+y,1/2-z
_cell_length_a                   9.3386(2)
_cell_length_b                   9.7200(3)
_cell_length_c                   17.1794(6)
_cell_angle_alpha                90
_cell_angle_beta                 97.946(2)
_cell_angle_gamma                90
_cell_volume                     1544.42
loop_
_atom_site_label
_atom_site_type_symbol
_atom_site_fract_x
_atom_site_fract_y
_atom_site_fract_z
Sn1 Sn 0.621559(18) 0.109887(19) 0.785293(10)
O1 O 0.4018(2) -0.1357(2) 0.74584(12)
N1 N 0.6361(3) -0.0939(2) 0.84324(14)
H1 H 0.707(3) -0.094(3) 0.8772(17)
N2 N 0.8522(2) 0.1340(2) 0.80733(14)
N3 N 0.6773(2) 0.0062(2) 0.68270(12)
C1 C 0.9224(3) 0.1322(4) 0.89023(19)
C2 C 0.9153(3) 0.0292(3) 0.76108(17)
H2 H 0.9105 -0.0620 0.7863
H3 H 1.0181 0.0510 0.7587
C3 C 0.8326(3) 0.0253(3) 0.67875(17)
H4 H 0.8478 0.1125 0.6512
H5 H 0.8688 -0.0512 0.6488
C4 C 0.5930(4) 0.0392(4) 0.60614(18)
H6 H 0.6128 0.1342 0.5918
H7 H 0.4896 0.0288 0.6096
H8 H 0.6203 -0.0235 0.5660
C5 C 0.5158(3) -0.1426(3) 0.87575(16)
C6 C 0.3878(3) -0.1631(3) 0.82437(16)
C7 C 0.2630(3) -0.2109(4) 0.8493(2)
H9 H 0.1770 -0.2221 0.8133
C8 C 0.2659(4) -0.2424(4) 0.9285(2)
H10 H 0.1810 -0.2752 0.9472
C9 C 0.3905(4) -0.2262(4) 0.97962(19)
H11 H 0.3916 -0.2506 1.0332
C10 C 0.5157(3) -0.1749(3) 0.95511(16)
C11 C 0.6517(4) -0.1552(4) 1.01263(17)
H12 H 0.6302 -0.1699 1.0662
H13 H 0.6881 -0.0615 1.0078
H14 H 0.7251 -0.2214 1.0012
C12 C 0.2734(4) -0.1428(5) 0.6901(2)
H15 H 0.2303 -0.2344 0.6918
H16 H 0.2976 -0.1254 0.6372
H17 H 0.2043 -0.0733 0.7029
Li1 Li 0.6155(5) -0.1729(5) 0.7307(3)
Li1C Li 0.8845(5) 0.3271(5) 0.7693(3)
N2C N 0.6478(2) -0.3660(2) 0.69267(14)
loop_
_geom_bond_atom_site_label_1
_geom_bond_atom_site_label_2
_geom_bond_site_symmetry_1
_geom_bond_site_symmetry_2
Sn1 N1 1_555 1_555
O1 C6 1_555 1_555
N1 H1 1_555 1_555
N2 Sn1 1_555 1_555
N3 Sn1 1_555 1_555
C1 N2 1_555 1_555
C2 N2 1_555 1_555
H2 C2 1_555 1_555
H3 C2 1_555 1_555
C3 N3 1_555 1_555
H4 C3 1_555 1_555
H5 C3 1_555 1_555
C4 N3 1_555 1_555
H6 C4 1_555 1_555
H7 C4 1_555 1_555
H8 C4 1_555 1_555
C5 N1 1_555 1_555
C6 C5 1_555 1_555
C7 C6 1_555 1_555
H9 C7 1_555 1_555
C8 C7 1_555 1_555
H10 C8 1_555 1_555
C9 C8 1_555 1_555
H11 C9 1_555 1_555
C10 C5 1_555 1_555
C11 C10 1_555 1_555
H12 C11 1_555 1_555
H13 C11 1_555 1_555
H14 C11 1_555 1_555
C12 O1 1_555 1_555
H15 C12 1_555 1_555
H16 C12 1_555 1_555
H17 C12 1_555 1_555
Li1 O1 1_555 1_555
Li1C N2 1_555 1_555
N2C Li1 1_555 1_555
N1 Li1 1_555 1_555
N3 Li1 1_555 1_555
C2 C3 1_555 1_555
C9 C10 1_555 1_555

#END
