
#######################################################################
#
#                 Cambridge Crystallographic Data Centre
#                                CCDC 
#
#######################################################################
#
# If this CIF has been generated from an entry in the Cambridge 
# Structural Database, then it will include bibliographic, chemical, 
# crystal, experimental, refinement or atomic coordinate data resulting 
# from the CCDC's data processing and validation procedures.
#
#######################################################################

data_WUDCOP
_symmetry_cell_setting           triclinic
_symmetry_space_group_name_H-M   'P -1'
_symmetry_Int_Tables_number      2
_space_group_name_Hall           '-P 1'
loop_
_symmetry_equiv_pos_site_id
_symmetry_equiv_pos_as_xyz
1 x,y,z
2 -x,-y,-z
_cell_length_a                   8.6160(3)
_cell_length_b                   8.7423(3)
_cell_length_c                   13.4725(5)
_cell_angle_alpha                107.706(3)
_cell_angle_beta                 101.769(3)
_cell_angle_gamma                100.667(3)
_cell_volume                     912.57
loop_
_atom_site_label
_atom_site_type_symbol
_atom_site_fract_x
_atom_site_fract_y
_atom_site_fract_z
Se1 Se 0.46167(2) 0.85044(2) 0.470735(15)
K1 K 0.78572(5) 1.03440(5) 0.68389(3)
O1 O 0.99482(19) 1.37427(18) 0.76958(12)
O2 O 1.1451(2) 1.12129(19) 0.69907(13)
O3 O 0.70033(18) 0.70926(18) 0.70835(12)
O4 O 0.95198(18) 0.79081(18) 0.61484(12)
O5 O 0.5730(2) 0.97212(18) 0.81027(12)
O6 O 0.75142(19) 1.30776(18) 0.87638(12)
C1 C 0.5497(3) 1.1003(3) 0.89525(18)
H1 H 0.6246 1.1151 0.9639
H2 H 0.4380 1.0715 0.9003
C2 C 0.5820(3) 1.2582(3) 0.87090(19)
H3 H 0.5147 1.2399 0.7991
H4 H 0.5542 1.3451 0.9232
C3 C 1.1843(3) 1.2732(3) 0.67936(19)
H5 H 1.1120 1.2636 0.6111
H6 H 1.2968 1.2981 0.6752
C4 C 0.7069(3) 0.6036(2) 0.60592(17)
H7 H 0.6483 0.6333 0.5481
H8 H 0.6557 0.4885 0.5938
C5 C 0.8835(3) 0.6248(3) 0.60663(18)
H9 H 0.9435 0.6027 0.6676
H10 H 0.8918 0.5467 0.5404
C6 C 1.1264(3) 0.8310(3) 0.6380(2)
H11 H 1.1590 0.7432 0.5898
H12 H 1.1747 0.8410 0.7121
C7 C 0.9641(3) 1.5000(3) 0.85355(18)
H13 H 0.9928 1.6066 0.8445
H14 H 1.0304 1.5095 0.9237
C8 C 0.7854(3) 1.4526(3) 0.84732(18)
H15 H 0.7581 1.5437 0.8965
H16 H 0.7193 1.4293 0.7743
C9 C 0.5367(3) 0.6850(3) 0.71728(18)
H17 H 0.4966 0.5740 0.7178
H18 H 0.4650 0.6967 0.6560
C10 C 1.1860(3) 0.9916(3) 0.62285(19)
H19 H 1.3042 1.0170 0.6342
H20 H 1.1349 0.9829 0.5495
C11 C 0.5370(3) 0.8134(3) 0.82118(18)
H21 H 0.4305 0.7900 0.8348
H22 H 0.6194 0.8118 0.8815
C12 C 1.1632(3) 1.4093(3) 0.77086(19)
H23 H 1.2312 1.4149 0.8395
H24 H 1.1965 1.5158 0.7623
N1 N 1.0724(3) 1.1468(2) 0.93214(16)
H25 H 1.1766 1.1698 0.9279
H26 H 1.0580 1.2322 0.9837
C13 C 1.0226(3) 0.9868(3) 0.94701(17)
H27 H 1.1120 0.9338 0.9472
H28 H 0.9289 0.9137 0.8871
Se1A Se 0.53833(2) 1.14956(2) 0.529265(15)
N1A N 0.9276(3) 0.8532(2) 1.06786(16)
H25A H 0.8234 0.8302 1.0721
H26A H 0.9420 0.7678 1.0163
C13A C 0.9774(3) 1.0132(3) 1.05299(17)
H27A H 0.8880 1.0662 1.0528
H28A H 1.0711 1.0863 1.1129
K1A K 0.21428(5) 0.96560(5) 0.31611(3)
O1A O 0.00518(19) 0.62573(18) 0.23042(12)
O2A O -0.1451(2) 0.87871(19) 0.30093(13)
O3A O 0.29967(18) 1.29074(18) 0.29165(12)
O4A O 0.04802(18) 1.20919(18) 0.38516(12)
O5A O 0.4270(2) 1.02788(18) 0.18973(12)
O6A O 0.24858(19) 0.69224(18) 0.12362(12)
C1A C 0.4503(3) 0.8997(3) 0.10475(18)
H1A H 0.3754 0.8849 0.0361
H2A H 0.5620 0.9285 0.0997
C2A C 0.4180(3) 0.7418(3) 0.12910(19)
H3A H 0.4853 0.7601 0.2009
H4A H 0.4458 0.6549 0.0768
C3A C -0.1843(3) 0.7268(3) 0.32064(19)
H5A H -0.1120 0.7364 0.3889
H6A H -0.2968 0.7019 0.3248
C4A C 0.2931(3) 1.3964(2) 0.39408(17)
H7A H 0.3517 1.3667 0.4519
H8A H 0.3443 1.5115 0.4062
C5A C 0.1165(3) 1.3752(3) 0.39337(18)
H9A H 0.0565 1.3973 0.3324
H10A H 0.1082 1.4533 0.4596
C6A C -0.1264(3) 1.1690(3) 0.3620(2)
H11A H -0.1590 1.2568 0.4102
H12A H -0.1747 1.1590 0.2879
C7A C 0.0359(3) 0.5000(3) 0.14645(18)
H13A H 0.0072 0.3934 0.1555
H14A H -0.0304 0.4905 0.0763
C8A C 0.2146(3) 0.5474(3) 0.15268(18)
H15A H 0.2419 0.4563 0.1035
H16A H 0.2807 0.5707 0.2257
C9A C 0.4633(3) 1.3150(3) 0.28272(18)
H17A H 0.5034 1.4260 0.2822
H18A H 0.5350 1.3033 0.3440
C10A C -0.1860(3) 1.0084(3) 0.37715(19)
H19A H -0.3042 0.9830 0.3658
H20A H -0.1349 1.0171 0.4505
C11A C 0.4630(3) 1.1866(3) 0.17882(18)
H21A H 0.5695 1.2100 0.1652
H22A H 0.3806 1.1882 0.1185
C12A C -0.1632(3) 0.5907(3) 0.22914(19)
H23A H -0.2312 0.5851 0.1605
H24A H -0.1965 0.4842 0.2377
K1A_2 K 1.21428(5) 0.96560(5) 1.31611(3)
N1A_2 N -0.0724(3) 0.8532(2) 0.06786(16)
loop_
_geom_bond_atom_site_label_1
_geom_bond_atom_site_label_2
_geom_bond_site_symmetry_1
_geom_bond_site_symmetry_2
Se1 K1 1_555 1_555
K1 O1 1_555 1_555
O1 C7 1_555 1_555
O2 K1 1_555 1_555
O3 K1 1_555 1_555
O4 K1 1_555 1_555
O5 K1 1_555 1_555
O6 K1 1_555 1_555
C1 O5 1_555 1_555
H1 C1 1_555 1_555
H2 C1 1_555 1_555
C2 O6 1_555 1_555
H3 C2 1_555 1_555
H4 C2 1_555 1_555
C3 O2 1_555 1_555
H5 C3 1_555 1_555
H6 C3 1_555 1_555
C4 O3 1_555 1_555
H7 C4 1_555 1_555
H8 C4 1_555 1_555
C5 O4 1_555 1_555
H9 C5 1_555 1_555
H10 C5 1_555 1_555
C6 O4 1_555 1_555
H11 C6 1_555 1_555
H12 C6 1_555 1_555
C7 H13 1_555 1_555
H14 C7 1_555 1_555
C8 O6 1_555 1_555
H15 C8 1_555 1_555
H16 C8 1_555 1_555
C9 O3 1_555 1_555
H17 C9 1_555 1_555
H18 C9 1_555 1_555
C10 O2 1_555 1_555
H19 C10 1_555 1_555
H20 C10 1_555 1_555
C11 O5 1_555 1_555
H21 C11 1_555 1_555
H22 C11 1_555 1_555
C12 O1 1_555 1_555
H23 C12 1_555 1_555
H24 C12 1_555 1_555
N1 K1 1_555 1_555
H25 N1 1_555 1_555
H26 N1 1_555 1_555
C13 N1 1_555 1_555
H27 C13 1_555 1_555
H28 C13 1_555 1_555
Se1A Se1 1_555 1_555
N1A H25A 1_555 1_555
H26A N1A 1_555 1_555
C13A C13 1_555 1_555
H27A C13A 1_555 1_555
H28A C13A 1_555 1_555
K1A Se1 1_555 1_555
O1A K1A 1_555 1_555
O2A K1A 1_555 1_555
O3A K1A 1_555 1_555
O4A K1A 1_555 1_555
O5A K1A 1_555 1_555
O6A K1A 1_555 1_555
C1A O5A 1_555 1_555
H1A C1A 1_555 1_555
H2A C1A 1_555 1_555
C2A O6A 1_555 1_555
H3A C2A 1_555 1_555
H4A C2A 1_555 1_555
C3A O2A 1_555 1_555
H5A C3A 1_555 1_555
H6A C3A 1_555 1_555
C4A O3A 1_555 1_555
H7A C4A 1_555 1_555
H8A C4A 1_555 1_555
C5A O4A 1_555 1_555
H9A C5A 1_555 1_555
H10A C5A 1_555 1_555
C6A O4A 1_555 1_555
H11A C6A 1_555 1_555
H12A C6A 1_555 1_555
C7A O1A 1_555 1_555
H13A C7A 1_555 1_555
H14A C7A 1_555 1_555
C8A O6A 1_555 1_555
H15A C8A 1_555 1_555
H16A C8A 1_555 1_555
C9A O3A 1_555 1_555
H17A C9A 1_555 1_555
H18A C9A 1_555 1_555
C10A O2A 1_555 1_555
H19A C10A 1_555 1_555
H20A C10A 1_555 1_555
C11A O5A 1_555 1_555
H21A C11A 1_555 1_555
H22A C11A 1_555 1_555
C12A O1A 1_555 1_555
H23A C12A 1_555 1_555
H24A C12A 1_555 1_555
K1A_2 N1A 1_555 1_555
N1A_2 K1A 1_555 1_555
K1 Se1A 1_555 1_555
C1 C2 1_555 1_555
C3 C12 1_555 1_555
C4 C5 1_555 1_555
C6 C10 1_555 1_555
C7 C8 1_555 1_555
C9 C11 1_555 1_555
Se1A K1A 1_555 1_555
N1A C13A 1_555 1_555
C1A C2A 1_555 1_555
C3A C12A 1_555 1_555
C4A C5A 1_555 1_555
C6A C10A 1_555 1_555
C7A C8A 1_555 1_555
C9A C11A 1_555 1_555

#END
