
#######################################################################
#
#                 Cambridge Crystallographic Data Centre
#                                CCDC 
#
#######################################################################
#
# If this CIF has been generated from an entry in the Cambridge 
# Structural Database, then it will include bibliographic, chemical, 
# crystal, experimental, refinement or atomic coordinate data resulting 
# from the CCDC's data processing and validation procedures.
#
#######################################################################

data_WUDHIO
_symmetry_cell_setting           triclinic
_symmetry_space_group_name_H-M   'P -1'
_symmetry_Int_Tables_number      2
_space_group_name_Hall           '-P 1'
loop_
_symmetry_equiv_pos_site_id
_symmetry_equiv_pos_as_xyz
1 x,y,z
2 -x,-y,-z
_cell_length_a                   9.5253(16)
_cell_length_b                   11.871(2)
_cell_length_c                   15.278(3)
_cell_angle_alpha                81.457(2)
_cell_angle_beta                 85.925(2)
_cell_angle_gamma                82.990(2)
_cell_volume                     1693.15
loop_
_atom_site_label
_atom_site_type_symbol
_atom_site_fract_x
_atom_site_fract_y
_atom_site_fract_z
C1 C 0.8175(9) 0.2930(7) 0.7709(5)
C2 C 0.8631(10) 0.3911(7) 0.7028(5)
H1 H 0.8102 0.4617 0.7171
H2 H 0.9623 0.3967 0.7099
C3 C 0.8456(10) 0.3844(6) 0.6076(5)
C4 C 0.7154(11) 0.4033(9) 0.5746(7)
H3 H 0.6369 0.4208 0.6120
C5 C 0.6958(11) 0.3972(9) 0.4864(9)
H4 H 0.6057 0.4117 0.4646
C6 C 0.8129(11) 0.3691(8) 0.4313(6)
H5 H 0.8001 0.3631 0.3724
C7 C 0.9468(9) 0.3500(6) 0.4614(5)
C8 C 0.9603(9) 0.3602(6) 0.5502(5)
H6 H 1.0505 0.3503 0.5716
C9 C 1.0749(9) 0.3188(7) 0.4056(5)
H7 H 1.1440 0.3707 0.4109
H8 H 1.0497 0.3308 0.3443
C10 C 1.1451(9) 0.1962(7) 0.4274(5)
C11 C 0.8008(8) -0.0591(6) 1.0075(5)
C12 C 0.8772(9) -0.1668(7) 1.0554(5)
H9 H 0.9598 -0.1464 1.0804
H10 H 0.9107 -0.2174 1.0122
C13 C 0.7929(7) -0.2327(7) 1.1286(5)
C14 C 0.7790(7) -0.2018(6) 1.2131(5)
H11 H 0.8267 -0.1423 1.2247
C15 C 0.6969(8) -0.2561(7) 1.2803(5)
C16 C 0.6316(8) -0.3468(7) 1.2625(5)
H12 H 0.5780 -0.3864 1.3075
C17 C 0.6440(9) -0.3802(7) 1.1791(6)
H13 H 0.5980 -0.4407 1.1676
C18 C 0.7263(9) -0.3219(7) 1.1127(5)
H14 H 0.7358 -0.3443 1.0566
C19 C 0.6785(8) -0.2181(7) 1.3713(5)
H15 H 0.6761 -0.2860 1.4151
H16 H 0.7618 -0.1827 1.3806
C20 C 0.5493(8) -0.1357(7) 1.3892(5)
C21 C 0.5077(8) 0.1997(7) 1.0722(5)
H17 H 0.4914 0.1234 1.0874
C22 C 0.5781(8) 0.3500(7) 1.0096(5)
H18 H 0.6239 0.4011 0.9686
C23 C 0.3566(8) 0.2769(7) 1.1963(5)
H19 H 0.3762 0.3333 1.2324
H20 H 0.3738 0.2016 1.2309
C24 C 0.2039(8) 0.2986(7) 1.1730(4)
C25 C 0.1221(8) 0.2074(7) 1.1859(4)
H21 H 0.1634 0.1340 1.2066
C26 C -0.0176(8) 0.2244(7) 1.1683(4)
C27 C -0.0790(9) 0.3319(9) 1.1372(5)
H22 H -0.1745 0.3436 1.1253
C28 C 0.0020(10) 0.4235(8) 1.1234(6)
H23 H -0.0402 0.4966 1.1026
C29 C 0.1433(9) 0.4075(7) 1.1401(5)
H24 H 0.1975 0.4686 1.1295
C30 C -0.1038(9) 0.1238(8) 1.1832(5)
H25 H -0.1631 0.1279 1.1335
H26 H -0.0401 0.0532 1.1855
C31 C -0.1622(8) 0.0706(7) 1.3463(5)
H27 H -0.0762 0.0285 1.3611
C32 C -0.3658(9) 0.1536(7) 1.3509(5)
H28 H -0.4552 0.1799 1.3734
Cd1 Cd 0.70902(6) 0.14191(5) 0.90097(4)
Cd2 Cd 1.31143(6) -0.00794(5) 0.45500(3)
N1 N 0.5887(6) 0.2387(5) 1.0040(4)
N2 N 0.4985(7) 0.3829(5) 1.0769(4)
N3 N 0.4529(6) 0.2831(5) 1.1159(4)
N4 N -0.1943(7) 0.1206(6) 1.2660(4)
N5 N -0.3270(7) 0.1782(6) 1.2662(4)
N6 N -0.2717(6) 0.0898(5) 1.4024(4)
O1 O 0.8061(7) 0.1988(5) 0.7506(3)
O2 O 0.7918(7) 0.3147(5) 0.8482(4)
O3 O 1.2566(5) 0.1683(4) 0.3836(3)
O4 O 1.0953(5) 0.1300(4) 0.4905(3)
O5 O 0.8631(5) -0.0068(4) 0.9422(3)
O6 O 0.6791(6) -0.0249(4) 1.0342(3)
O7 O 0.4666(6) -0.0924(5) 1.3308(4)
O8 O 0.5313(5) -0.1104(5) 1.4676(3)
O9 O 0.5384(5) 0.0681(4) 0.8443(3)
H29 H 0.5264 0.0960 0.7905
H30 H 0.4604 0.0748 0.8747
O10 O 1.1436(5) -0.0927(4) 0.3980(3)
H31 H 1.0881 -0.1240 0.4378
H32 H 1.1789 -0.1404 0.3639
Cd2_2 Cd 0.31143(6) -0.00794(5) 1.45500(3)
Cd2A Cd -0.31143(6) 0.00794(5) 1.54500(3)
Cd2A_2 Cd 0.68857(6) 0.00794(5) 1.54500(3)
N6A N 1.2717(6) -0.0898(5) 0.5976(4)
O7_2 O 1.4666(6) -0.0924(5) 0.3308(4)
O8_2 O 1.5313(5) -0.1104(5) 0.4676(3)
O8A O 1.4687(5) 0.1104(5) 0.5324(3)
loop_
_geom_bond_atom_site_label_1
_geom_bond_atom_site_label_2
_geom_bond_site_symmetry_1
_geom_bond_site_symmetry_2
C1 C2 1_555 1_555
C2 H1 1_555 1_555
H2 C2 1_555 1_555
C3 C2 1_555 1_555
C4 C3 1_555 1_555
H3 C4 1_555 1_555
C5 C4 1_555 1_555
H4 C5 1_555 1_555
C6 C5 1_555 1_555
H5 C6 1_555 1_555
C7 C6 1_555 1_555
C8 C3 1_555 1_555
H6 C8 1_555 1_555
C9 C7 1_555 1_555
H7 C9 1_555 1_555
H8 C9 1_555 1_555
C10 C9 1_555 1_555
C11 C12 1_555 1_555
C12 H9 1_555 1_555
H10 C12 1_555 1_555
C13 C12 1_555 1_555
C14 C13 1_555 1_555
H11 C14 1_555 1_555
C15 C14 1_555 1_555
C16 C15 1_555 1_555
H12 C16 1_555 1_555
C17 C16 1_555 1_555
H13 C17 1_555 1_555
C18 C13 1_555 1_555
H14 C18 1_555 1_555
C19 C15 1_555 1_555
H15 C19 1_555 1_555
H16 C19 1_555 1_555
C20 C19 1_555 1_555
C21 H17 1_555 1_555
C22 H18 1_555 1_555
C23 H19 1_555 1_555
H20 C23 1_555 1_555
C24 C23 1_555 1_555
C25 C24 1_555 1_555
H21 C25 1_555 1_555
C26 C25 1_555 1_555
C27 C26 1_555 1_555
H22 C27 1_555 1_555
C28 C27 1_555 1_555
H23 C28 1_555 1_555
C29 C24 1_555 1_555
H24 C29 1_555 1_555
C30 C26 1_555 1_555
H25 C30 1_555 1_555
H26 C30 1_555 1_555
C31 H27 1_555 1_555
C32 H28 1_555 1_555
Cd1 N1 1_555 1_555
Cd2 O3 1_555 1_555
N1 C21 1_555 1_555
N2 C22 1_555 1_555
N3 C21 1_555 1_555
N4 C30 1_555 1_555
N5 C32 1_555 1_555
N6 C31 1_555 1_555
O1 C1 1_555 1_555
O2 C1 1_555 1_555
O3 C10 1_555 1_555
O4 C10 1_555 1_555
O5 C11 1_555 1_555
O6 C11 1_555 1_555
O7 C20 1_555 1_555
O8 C20 1_555 1_555
O9 Cd1 1_555 1_555
H29 O9 1_555 1_555
H30 O9 1_555 1_555
O10 Cd2 1_555 1_555
H31 O10 1_555 1_555
H32 O10 1_555 1_555
Cd2_2 O7 1_555 1_555
Cd2A N6 1_555 1_555
Cd2A_2 O8 1_555 1_555
N6A Cd2 1_555 1_555
O7_2 Cd2 1_555 1_555
O8_2 Cd2 1_555 1_555
O8A Cd2 1_555 1_555
C7 C8 1_555 1_555
C17 C18 1_555 1_555
C22 N1 1_555 1_555
C23 N3 1_555 1_555
C28 C29 1_555 1_555
C31 N4 1_555 1_555
C32 N6 1_555 1_555
Cd1 O1 1_555 1_555
Cd1 O2 1_555 1_555
Cd1 O5 1_555 1_555
Cd1 O6 1_555 1_555
Cd2 O4 1_555 1_555
N2 N3 1_555 1_555
N4 N5 1_555 1_555
O8 Cd2_2 1_555 1_555

#END
