
#######################################################################
#
#                 Cambridge Crystallographic Data Centre
#                                CCDC 
#
#######################################################################
#
# If this CIF has been generated from an entry in the Cambridge 
# Structural Database, then it will include bibliographic, chemical, 
# crystal, experimental, refinement or atomic coordinate data resulting 
# from the CCDC's data processing and validation procedures.
#
#######################################################################

data_WUDJEM
_symmetry_cell_setting           triclinic
_symmetry_space_group_name_H-M   'P -1'
_symmetry_Int_Tables_number      2
_space_group_name_Hall           '-P 1'
loop_
_symmetry_equiv_pos_site_id
_symmetry_equiv_pos_as_xyz
1 x,y,z
2 -x,-y,-z
_cell_length_a                   8.066(2)
_cell_length_b                   11.397(2)
_cell_length_c                   19.555(4)
_cell_angle_alpha                74.776(9)
_cell_angle_beta                 80.442(9)
_cell_angle_gamma                85.170(9)
_cell_volume                     1708.93
loop_
_atom_site_label
_atom_site_type_symbol
_atom_site_fract_x
_atom_site_fract_y
_atom_site_fract_z
Co1 Co 0.37243(4) 0.35276(3) 0.232869(17)
Co2 Co -0.5000 1.0000 0.5000
N1 N 0.1726(3) 0.46273(19) 0.27708(12)
N2 N -0.3310(3) 0.8783(2) 0.44543(12)
N3 N 0.5688(3) 0.2333(2) 0.19467(12)
N4 N 1.2149(4) -0.1616(3) 0.07713(19)
N5 N 0.2498(3) 0.3971(2) 0.13908(11)
O1 O 0.4775(2) 0.32409(15) 0.32971(10)
O2 O 0.6189(3) 0.34224(18) 0.41429(11)
O3 O 0.3469(4) 0.96817(19) 0.26708(13)
O4 O 0.2375(3) 0.92279(18) 0.38232(11)
S1 S 0.64394(8) 0.55973(6) 0.20957(4)
O5 O 0.5202(2) 0.50156(17) 0.18276(10)
O6 O 0.7738(3) 0.4751(2) 0.23710(12)
O7 O 0.7002(3) 0.6686(2) 0.15697(12)
O8 O 0.2362(2) 0.19400(16) 0.27379(10)
H1 H 0.1815 0.1933 0.3157
H2 H 0.3041 0.1308 0.2773
O9 O -0.5687(2) 1.09310(16) 0.40337(10)
H3 H -0.6536 1.0606 0.3956
H4 H -0.5354 1.1640 0.3724
O10 O -0.3011(2) 1.11948(16) 0.48249(10)
H5 H -0.3323 1.1904 0.4603
H6 H -0.2699 1.1130 0.5246
C1 C 0.5381(3) 0.3858(2) 0.36495(14)
C2 C 0.4924(4) 0.5209(2) 0.35044(14)
C3 C 0.5277(3) 0.6057(2) 0.28447(14)
C4 C 0.4722(4) 0.7268(2) 0.27689(15)
H7 H 0.4978 0.7833 0.2331
C5 C 0.3785(3) 0.7637(2) 0.33461(15)
C6 C 0.3467(4) 0.6796(3) 0.40032(16)
H8 H 0.2852 0.7038 0.4393
C7 C 0.4060(4) 0.5601(2) 0.40827(15)
H9 H 0.3875 0.5053 0.4531
C8 C 0.3160(4) 0.8947(2) 0.32652(16)
C9 C 0.0757(4) 0.4246(2) 0.34087(15)
H10 H 0.0806 0.3422 0.3641
C10 C -0.0307(4) 0.5014(3) 0.37369(15)
H11 H -0.0967 0.4706 0.4176
C11 C -0.0389(3) 0.6256(2) 0.34068(14)
C12 C 0.0544(3) 0.6635(2) 0.27299(15)
H12 H 0.0486 0.7448 0.2477
C13 C 0.1551(3) 0.5808(2) 0.24342(15)
H13 H 0.2144 0.6081 0.1976
C14 C -0.2606(4) 0.7755(3) 0.48218(16)
H14 H -0.2767 0.7593 0.5319
C15 C -0.1655(4) 0.6925(3) 0.45043(16)
H15 H -0.1195 0.6225 0.4786
C16 C -0.1384(3) 0.7132(2) 0.37627(15)
C17 C -0.2097(4) 0.8208(3) 0.33792(15)
H16 H -0.1951 0.8397 0.2881
C18 C -0.3018(4) 0.8987(3) 0.37414(15)
H17 H -0.3468 0.9704 0.3472
C19 C 0.7047(3) 0.1986(3) 0.22762(15)
H18 H 0.7142 0.2287 0.2666
C20 C 0.8306(3) 0.1206(3) 0.20649(16)
H19 H 0.9216 0.0982 0.2314
C21 C 0.8217(3) 0.0753(2) 0.14819(15)
C22 C 0.6800(4) 0.1105(3) 0.11426(16)
H20 H 0.6672 0.0815 0.0753
C23 C 0.5592(4) 0.1884(3) 0.13892(16)
H21 H 0.4657 0.2110 0.1155
C24 C 1.2456(5) -0.0715(5) 0.1031(3)
H22 H 1.3571 -0.0600 0.1055
C25 C 1.1239(4) 0.0073(4) 0.1270(2)
H23 H 1.1533 0.0686 0.1455
C26 C 0.9572(4) -0.0068(3) 0.12301(16)
C27 C 0.9239(4) -0.1013(3) 0.0963(2)
H24 H 0.8140 -0.1149 0.0927
C28 C 1.0553(5) -0.1757(4) 0.0750(2)
H25 H 1.0298 -0.2399 0.0580
C29 C 0.3101(4) 0.4679(4) 0.07611(17)
H26 H 0.4210 0.4907 0.0688
C30 C 0.2170(4) 0.5096(4) 0.02079(17)
H27 H 0.2656 0.5593 -0.0224
C31 C 0.0533(3) 0.4783(2) 0.02902(14)
C32 C -0.0112(4) 0.4072(3) 0.09495(17)
H28 H -0.1226 0.3848 0.1040
C33 C 0.0900(4) 0.3694(3) 0.14738(17)
H29 H 0.0435 0.3213 0.1915
N5A N -0.2498(3) 0.6029(2) -0.13908(11)
C29A C -0.3101(4) 0.5321(4) -0.07611(17)
H26A H -0.4210 0.5093 -0.0688
C30A C -0.2170(4) 0.4904(4) -0.02079(17)
H27A H -0.2656 0.4407 0.0224
C31A C -0.0533(3) 0.5217(2) -0.02902(14)
C32A C 0.0112(4) 0.5928(3) -0.09495(17)
H28A H 0.1226 0.6152 -0.1040
C33A C -0.0900(4) 0.6306(3) -0.14738(17)
H29A H -0.0435 0.6787 -0.1915
Co1A Co -1.37243(4) 1.64724(3) 0.767131(17)
N1A N -1.1726(3) 1.53727(19) 0.72292(12)
N2A N -0.6690(3) 1.1217(2) 0.55457(12)
N3A N -1.5688(3) 1.7667(2) 0.80533(12)
N4A N -2.2149(4) 2.1616(3) 0.92287(19)
O1A O -1.4775(2) 1.67591(15) 0.67029(10)
O2A O -1.6189(3) 1.65776(18) 0.58571(11)
O3A O -1.3469(4) 1.03183(19) 0.73292(13)
O4A O -1.2375(3) 1.07721(18) 0.61768(11)
S1A S -1.64394(8) 1.44027(6) 0.79043(4)
O5A O -1.5202(2) 1.49844(17) 0.81724(10)
O6A O -1.7738(3) 1.5249(2) 0.76290(12)
O7A O -1.7002(3) 1.3314(2) 0.84303(12)
O8A O -1.2362(2) 1.80600(16) 0.72621(10)
H1A H -1.1815 1.8067 0.6843
H2A H -1.3041 1.8692 0.7227
O9A O -0.4313(2) 0.90690(16) 0.59663(10)
H3A H -0.3464 0.9394 0.6044
H4A H -0.4646 0.8360 0.6276
O10A O -0.6989(2) 0.88052(16) 0.51751(10)
H5A H -0.6677 0.8096 0.5397
H6A H -0.7301 0.8870 0.4754
C1A C -1.5381(3) 1.6142(2) 0.63505(14)
C2A C -1.4924(4) 1.4791(2) 0.64956(14)
C3A C -1.5277(3) 1.3943(2) 0.71553(14)
C4A C -1.4722(4) 1.2732(2) 0.72311(15)
H7A H -1.4978 1.2167 0.7669
C5A C -1.3785(3) 1.2363(2) 0.66539(15)
C6A C -1.3467(4) 1.3204(3) 0.59968(16)
H8A H -1.2852 1.2962 0.5607
C7A C -1.4060(4) 1.4399(2) 0.59173(15)
H9A H -1.3875 1.4947 0.5469
C8A C -1.3160(4) 1.1053(2) 0.67348(16)
C9A C -1.0757(4) 1.5754(2) 0.65913(15)
H10A H -1.0806 1.6578 0.6359
C10A C -0.9693(4) 1.4986(3) 0.62631(15)
H11A H -0.9033 1.5294 0.5824
C11A C -0.9611(3) 1.3744(2) 0.65932(14)
C12A C -1.0544(3) 1.3365(2) 0.72701(15)
H12A H -1.0486 1.2552 0.7523
C13A C -1.1551(3) 1.4192(2) 0.75658(15)
H13A H -1.2144 1.3919 0.8024
C14A C -0.7394(4) 1.2245(3) 0.51782(16)
H14A H -0.7233 1.2407 0.4681
C15A C -0.8345(4) 1.3075(3) 0.54957(16)
H15A H -0.8805 1.3775 0.5214
C16A C -0.8616(3) 1.2868(2) 0.62373(15)
C17A C -0.7903(4) 1.1792(3) 0.66208(15)
H16A H -0.8049 1.1603 0.7119
C18A C -0.6982(4) 1.1013(3) 0.62586(15)
H17A H -0.6532 1.0296 0.6528
C19A C -1.7047(3) 1.8014(3) 0.77238(15)
H18A H -1.7142 1.7713 0.7334
C20A C -1.8306(3) 1.8794(3) 0.79351(16)
H19A H -1.9216 1.9018 0.7686
C21A C -1.8217(3) 1.9247(2) 0.85181(15)
C22A C -1.6800(4) 1.8895(3) 0.88574(16)
H20A H -1.6672 1.9185 0.9247
C23A C -1.5592(4) 1.8116(3) 0.86108(16)
H21A H -1.4657 1.7890 0.8845
C24A C -2.2456(5) 2.0715(5) 0.8969(3)
H22A H -2.3571 2.0600 0.8945
C25A C -2.1239(4) 1.9927(4) 0.8730(2)
H23A H -2.1533 1.9314 0.8545
C26A C -1.9572(4) 2.0068(3) 0.87699(16)
C27A C -1.9239(4) 2.1013(3) 0.9037(2)
H24A H -1.8140 2.1149 0.9073
C28A C -2.0553(5) 2.1757(4) 0.9250(2)
H25A H -2.0298 2.2399 0.9420
Co1A_2 Co -0.37243(4) 0.64724(3) -0.232869(17)
N5A_2 N -1.2498(3) 1.6029(2) 0.86092(11)
O11 O -0.0131(4) 0.1044(3) 0.37832(18)
H30 H -0.1139 0.1051 0.3996
H31 H 0.0305 0.0327 0.3890
O12 O 1.5511(4) -0.2503(4) 0.02172(16)
H32 H 1.4515 -0.2452 0.0436
H33 H 1.6075 -0.2382 0.0521
loop_
_geom_bond_atom_site_label_1
_geom_bond_atom_site_label_2
_geom_bond_site_symmetry_1
_geom_bond_site_symmetry_2
Co1 N1 1_555 1_555
Co2 N2 1_555 1_555
N1 C9 1_555 1_555
N2 C14 1_555 1_555
N3 Co1 1_555 1_555
N4 C24 1_555 1_555
N5 Co1 1_555 1_555
O1 Co1 1_555 1_555
O2 C1 1_555 1_555
O3 C8 1_555 1_555
O4 C8 1_555 1_555
S1 O5 1_555 1_555
O5 Co1 1_555 1_555
O6 S1 1_555 1_555
O7 S1 1_555 1_555
O8 Co1 1_555 1_555
H1 O8 1_555 1_555
H2 O8 1_555 1_555
O9 Co2 1_555 1_555
H3 O9 1_555 1_555
H4 O9 1_555 1_555
O10 Co2 1_555 1_555
H5 O10 1_555 1_555
H6 O10 1_555 1_555
C1 O1 1_555 1_555
C2 C1 1_555 1_555
C3 S1 1_555 1_555
C4 C3 1_555 1_555
H7 C4 1_555 1_555
C5 C4 1_555 1_555
C6 C5 1_555 1_555
H8 C6 1_555 1_555
C7 C2 1_555 1_555
H9 C7 1_555 1_555
C8 C5 1_555 1_555
C9 H10 1_555 1_555
C10 C9 1_555 1_555
H11 C10 1_555 1_555
C11 C10 1_555 1_555
C12 C11 1_555 1_555
H12 C12 1_555 1_555
C13 N1 1_555 1_555
H13 C13 1_555 1_555
C14 H14 1_555 1_555
C15 C14 1_555 1_555
H15 C15 1_555 1_555
C16 C11 1_555 1_555
C17 C16 1_555 1_555
H16 C17 1_555 1_555
C18 N2 1_555 1_555
H17 C18 1_555 1_555
C19 N3 1_555 1_555
H18 C19 1_555 1_555
C20 C19 1_555 1_555
H19 C20 1_555 1_555
C21 C20 1_555 1_555
C22 C21 1_555 1_555
H20 C22 1_555 1_555
C23 N3 1_555 1_555
H21 C23 1_555 1_555
C24 H22 1_555 1_555
C25 C24 1_555 1_555
H23 C25 1_555 1_555
C26 C21 1_555 1_555
C27 C26 1_555 1_555
H24 C27 1_555 1_555
C28 N4 1_555 1_555
H25 C28 1_555 1_555
C29 N5 1_555 1_555
H26 C29 1_555 1_555
C30 C29 1_555 1_555
H27 C30 1_555 1_555
C31 C30 1_555 1_555
C32 C31 1_555 1_555
H28 C32 1_555 1_555
C33 N5 1_555 1_555
H29 C33 1_555 1_555
O11 H30 1_555 1_555
H31 O11 1_555 1_555
O12 H32 1_555 1_555
H33 O12 1_555 1_555
N5A C29A 1_555 1_555
C29A H26A 1_555 1_555
C30A C29A 1_555 1_555
H27A C30A 1_555 1_555
C31A C31 1_555 1_555
C32A C31A 1_555 1_555
H28A C32A 1_555 1_555
C33A N5A 1_555 1_555
H29A C33A 1_555 1_555
Co1A N1A 1_555 1_555
N1A C9A 1_555 1_555
N2A Co2 1_555 1_555
N3A Co1A 1_555 1_555
N4A C24A 1_555 1_555
O1A Co1A 1_555 1_555
O2A C1A 1_555 1_555
O3A C8A 1_555 1_555
O4A C8A 1_555 1_555
S1A O5A 1_555 1_555
O5A Co1A 1_555 1_555
O6A S1A 1_555 1_555
O7A S1A 1_555 1_555
O8A Co1A 1_555 1_555
H1A O8A 1_555 1_555
H2A O8A 1_555 1_555
O9A Co2 1_555 1_555
H3A O9A 1_555 1_555
H4A O9A 1_555 1_555
O10A Co2 1_555 1_555
H5A O10A 1_555 1_555
H6A O10A 1_555 1_555
C1A O1A 1_555 1_555
C2A C1A 1_555 1_555
C3A S1A 1_555 1_555
C4A C3A 1_555 1_555
H7A C4A 1_555 1_555
C5A C4A 1_555 1_555
C6A C5A 1_555 1_555
H8A C6A 1_555 1_555
C7A C2A 1_555 1_555
H9A C7A 1_555 1_555
C8A C5A 1_555 1_555
C9A H10A 1_555 1_555
C10A C9A 1_555 1_555
H11A C10A 1_555 1_555
C11A C10A 1_555 1_555
C12A C11A 1_555 1_555
H12A C12A 1_555 1_555
C13A N1A 1_555 1_555
H13A C13A 1_555 1_555
C14A N2A 1_555 1_555
H14A C14A 1_555 1_555
C15A C14A 1_555 1_555
H15A C15A 1_555 1_555
C16A C11A 1_555 1_555
C17A C16A 1_555 1_555
H16A C17A 1_555 1_555
C18A N2A 1_555 1_555
H17A C18A 1_555 1_555
C19A N3A 1_555 1_555
H18A C19A 1_555 1_555
C20A C19A 1_555 1_555
H19A C20A 1_555 1_555
C21A C20A 1_555 1_555
C22A C21A 1_555 1_555
H20A C22A 1_555 1_555
C23A N3A 1_555 1_555
H21A C23A 1_555 1_555
C24A H22A 1_555 1_555
C25A C24A 1_555 1_555
H23A C25A 1_555 1_555
C26A C21A 1_555 1_555
C27A C26A 1_555 1_555
H24A C27A 1_555 1_555
C28A N4A 1_555 1_555
H25A C28A 1_555 1_555
Co1A_2 N5A 1_555 1_555
N5A_2 Co1A 1_555 1_555
C2 C3 1_555 1_555
C6 C7 1_555 1_555
C12 C13 1_555 1_555
C15 C16 1_555 1_555
C17 C18 1_555 1_555
C22 C23 1_555 1_555
C25 C26 1_555 1_555
C27 C28 1_555 1_555
C32 C33 1_555 1_555
C30A C31A 1_555 1_555
C32A C33A 1_555 1_555
C2A C3A 1_555 1_555
C6A C7A 1_555 1_555
C12A C13A 1_555 1_555
C15A C16A 1_555 1_555
C17A C18A 1_555 1_555
C22A C23A 1_555 1_555
C25A C26A 1_555 1_555
C27A C28A 1_555 1_555

#END
