
#######################################################################
#
#                 Cambridge Crystallographic Data Centre
#                                CCDC 
#
#######################################################################
#
# If this CIF has been generated from an entry in the Cambridge 
# Structural Database, then it will include bibliographic, chemical, 
# crystal, experimental, refinement or atomic coordinate data resulting 
# from the CCDC's data processing and validation procedures.
#
#######################################################################

data_WUDJIQ
_symmetry_cell_setting           monoclinic
_symmetry_space_group_name_H-M   'C 2/c'
_symmetry_Int_Tables_number      15
_space_group_name_Hall           '-C 2yn'
loop_
_symmetry_equiv_pos_site_id
_symmetry_equiv_pos_as_xyz
1 x,y,z
2 -x,y,1/2-z
3 1/2+x,1/2+y,z
4 1/2-x,1/2+y,1/2-z
5 -x,-y,-z
6 x,-y,1/2+z
7 1/2-x,1/2-y,-z
8 1/2+x,1/2-y,1/2+z
_cell_length_a                   16.961(4)
_cell_length_b                   16.446(3)
_cell_length_c                   12.987(3)
_cell_angle_alpha                90
_cell_angle_beta                 117.022(3)
_cell_angle_gamma                90
_cell_volume                     3227.13
loop_
_atom_site_label
_atom_site_type_symbol
_atom_site_fract_x
_atom_site_fract_y
_atom_site_fract_z
Co1 Co 0.5000 0.10089(3) 0.7500
N1 N 0.46215(15) 0.17924(14) 0.84527(17)
O1 O 0.37200(15) 0.07207(16) 0.63915(18)
O2 O 0.46556(13) 0.00024(14) 0.60520(19)
N2 N 0.42235(15) 0.21416(15) 0.98059(18)
C1 C 0.36476(17) 0.25422(16) 0.8810(2)
C2 C 0.38817(18) 0.02076(17) 0.5798(2)
C3 C 0.31148(17) -0.01457(15) 0.4757(2)
C4 C 0.32303(18) -0.03657(17) 0.3804(2)
H1 H 0.3786 -0.0317 0.3830
C5 C 0.47733(18) 0.17001(18) 0.9539(2)
H2 H 0.5214 0.1365 1.0064
O3 O 0.10093(17) -0.10366(14) 0.1800(2)
C6 C 0.39104(18) 0.23265(16) 0.7975(2)
C7 C 0.2531(2) -0.06546(17) 0.2819(2)
H3 H 0.2610 -0.0801 0.2181
C8 C 0.5047(2) 0.2089(2) 1.1943(2)
H4 H 0.5404 0.2550 1.1945
H5 H 0.5351 0.1598 1.1908
C9 C 0.22884(19) -0.0219(2) 0.4712(2)
H6 H 0.2205 -0.0064 0.5344
C10 C 0.2759(2) 0.3149(2) 0.6626(3)
H7 H 0.2448 0.3361 0.5885
C11 C 0.05289(18) -0.04860(18) 0.0917(2)
C12 C 0.0458(2) 0.0333(2) 0.1086(2)
H8 H 0.0771 0.0557 0.1819
C13 C 0.1718(2) -0.07240(18) 0.2787(2)
C14 C 0.3458(2) 0.26448(19) 0.6859(3)
H9 H 0.3628 0.2517 0.6291
C15 C 0.4176(2) 0.2131(2) 1.0912(2)
H10 H 0.3825 0.1667 1.0916
H11 H 0.3873 0.2618 1.0961
C16 C 0.2935(2) 0.30607(19) 0.8577(3)
H12 H 0.2766 0.3200 0.9142
C17 C 0.0075(2) -0.08197(19) -0.0168(3)
H13 H 0.0127 -0.1371 -0.0282
C18 C 0.2497(2) 0.3356(2) 0.7465(3)
H14 H 0.2015 0.3700 0.7270
C19 C 0.15846(19) -0.0521(2) 0.3733(3)
H15 H 0.1032 -0.0586 0.3708
N1A N 0.53785(15) 0.17924(14) 1.65473(17)
N2A N 0.57765(15) 0.21416(15) 1.51941(18)
C1A C 0.63524(17) 0.25422(16) 1.6190(2)
C5A C 0.52267(18) 0.17001(18) 1.5461(2)
H2A H 0.4786 0.1365 1.4936
C6A C 0.60896(18) 0.23265(16) 1.7025(2)
C8A C 0.4953(2) 0.2089(2) 1.3057(2)
H4A H 0.4596 0.2550 1.3055
H5A H 0.4649 0.1598 1.3092
C10A C 0.7241(2) 0.3149(2) 1.8374(3)
H7A H 0.7552 0.3361 1.9115
C14A C 0.6542(2) 0.26448(19) 1.8141(3)
H9A H 0.6372 0.2517 1.8709
C15A C 0.5824(2) 0.2131(2) 1.4088(2)
H10A H 0.6175 0.1667 1.4084
H11A H 0.6127 0.2618 1.4039
C16A C 0.7065(2) 0.30607(19) 1.6423(3)
H12A H 0.7234 0.3200 1.5858
C18A C 0.7503(2) 0.3356(2) 1.7535(3)
H14A H 0.7985 0.3700 1.7730
O1D O -0.37200(15) -0.07207(16) -0.63915(18)
O2D O -0.46556(13) -0.00024(14) -0.60520(19)
C2D C -0.38817(18) -0.02076(17) -0.5798(2)
C3D C -0.31148(17) 0.01457(15) -0.4757(2)
C4D C -0.32303(18) 0.03657(17) -0.3804(2)
H1D H -0.3786 0.0317 -0.3830
O3D O -0.10093(17) 0.10366(14) -0.1800(2)
C7D C -0.2531(2) 0.06546(17) -0.2819(2)
H3D H -0.2610 0.0801 -0.2181
C9D C -0.22884(19) 0.0219(2) -0.4712(2)
H6D H -0.2205 0.0064 -0.5344
C11D C -0.05289(18) 0.04860(18) -0.0917(2)
C12D C -0.0458(2) -0.0333(2) -0.1086(2)
H8D H -0.0771 -0.0557 -0.1819
C13D C -0.1718(2) 0.07240(18) -0.2787(2)
C17D C -0.0075(2) 0.08197(19) 0.0168(3)
H13D H -0.0127 0.1371 0.0282
C19D C -0.15846(19) 0.0521(2) -0.3733(3)
H15D H -0.1032 0.0586 -0.3708
Co1_2 Co 0.5000 0.10089(3) 1.7500
Co1D Co -0.5000 -0.10089(3) -0.7500
N1A_2 N 0.53785(15) 0.17924(14) 0.65473(17)
O1A O 0.62800(15) 0.07207(16) 0.86085(18)
O2A O 0.53444(13) 0.00024(14) 0.89480(19)
loop_
_geom_bond_atom_site_label_1
_geom_bond_atom_site_label_2
_geom_bond_site_symmetry_1
_geom_bond_site_symmetry_2
Co1 N1 1_555 1_555
N1 C5 1_555 1_555
O1 Co1 1_555 1_555
O2 Co1 1_555 1_555
N2 C1 1_555 1_555
C1 C6 1_555 1_555
C2 O1 1_555 1_555
C3 C2 1_555 1_555
C4 C3 1_555 1_555
H1 C4 1_555 1_555
C5 N2 1_555 1_555
H2 C5 1_555 1_555
O3 C11 1_555 1_555
C6 N1 1_555 1_555
C7 C4 1_555 1_555
H3 C7 1_555 1_555
C8 H4 1_555 1_555
H5 C8 1_555 1_555
C9 C3 1_555 1_555
H6 C9 1_555 1_555
C10 H7 1_555 1_555
C11 C12 1_555 1_555
C12 H8 1_555 1_555
C13 O3 1_555 1_555
C14 C6 1_555 1_555
H9 C14 1_555 1_555
C15 N2 1_555 1_555
H10 C15 1_555 1_555
H11 C15 1_555 1_555
C16 C1 1_555 1_555
H12 C16 1_555 1_555
C17 C11 1_555 1_555
H13 C17 1_555 1_555
C18 C10 1_555 1_555
H14 C18 1_555 1_555
C19 C9 1_555 1_555
H15 C19 1_555 1_555
N1A C5A 1_555 1_555
N2A C1A 1_555 1_555
C1A C6A 1_555 1_555
C5A N2A 1_555 1_555
H2A C5A 1_555 1_555
C6A N1A 1_555 1_555
C8A C8 1_555 1_555
H4A C8A 1_555 1_555
H5A C8A 1_555 1_555
C10A H7A 1_555 1_555
C14A C6A 1_555 1_555
H9A C14A 1_555 1_555
C15A N2A 1_555 1_555
H10A C15A 1_555 1_555
H11A C15A 1_555 1_555
C16A C1A 1_555 1_555
H12A C16A 1_555 1_555
C18A C10A 1_555 1_555
H14A C18A 1_555 1_555
O1D C2D 1_555 1_555
O2D C2D 1_555 1_555
C2D C3D 1_555 1_555
C3D C4D 1_555 1_555
C4D H1D 1_555 1_555
O3D C11D 1_555 1_555
C7D C4D 1_555 1_555
H3D C7D 1_555 1_555
C9D C3D 1_555 1_555
H6D C9D 1_555 1_555
C11D C12D 1_555 1_555
C12D C17 1_555 1_555
H8D C12D 1_555 1_555
C13D O3D 1_555 1_555
C17D C12 1_555 1_555
H13D C17D 1_555 1_555
C19D C9D 1_555 1_555
H15D C19D 1_555 1_555
Co1_2 N1A 1_555 1_555
Co1D O1D 1_555 1_555
N1A_2 Co1 1_555 1_555
O1A Co1 1_555 1_555
O2A Co1 1_555 1_555
O2 C2 1_555 1_555
C7 C13 1_555 1_555
C8 C15 1_555 1_555
C10 C14 1_555 1_555
C13 C19 1_555 1_555
C16 C18 1_555 1_555
C8A C15A 1_555 1_555
C10A C14A 1_555 1_555
C16A C18A 1_555 1_555
O2D Co1D 1_555 1_555
C7D C13D 1_555 1_555
C11D C17D 1_555 1_555
C13D C19D 1_555 1_555

#END
