
#######################################################################
#
#                 Cambridge Crystallographic Data Centre
#                                CCDC 
#
#######################################################################
#
# If this CIF has been generated from an entry in the Cambridge 
# Structural Database, then it will include bibliographic, chemical, 
# crystal, experimental, refinement or atomic coordinate data resulting 
# from the CCDC's data processing and validation procedures.
#
#######################################################################

data_WUDJAI
_symmetry_cell_setting           monoclinic
_symmetry_space_group_name_H-M   'C 2/c'
_symmetry_Int_Tables_number      15
_space_group_name_Hall           '-C 2yn'
loop_
_symmetry_equiv_pos_site_id
_symmetry_equiv_pos_as_xyz
1 x,y,z
2 -x,y,1/2-z
3 1/2+x,1/2+y,z
4 1/2-x,1/2+y,1/2-z
5 -x,-y,-z
6 x,-y,1/2+z
7 1/2-x,1/2-y,-z
8 1/2+x,1/2-y,1/2+z
_cell_length_a                   25.2378(11)
_cell_length_b                   8.6872(4)
_cell_length_c                   18.8139(8)
_cell_angle_alpha                90
_cell_angle_beta                 130.447(5)
_cell_angle_gamma                90
_cell_volume                     3139.05
loop_
_atom_site_label
_atom_site_type_symbol
_atom_site_fract_x
_atom_site_fract_y
_atom_site_fract_z
Co1 Co 0.12867(6) 0.20514(17) 0.06328(8)
Co2 Co 0.0000 0.5000 0.0000
N1 N 0.1850(4) 0.0440(9) 0.0554(5)
O1 O 0.0751(3) 0.3419(8) 0.0907(4)
O2 O 0.1491(4) 0.1757(9) 0.1979(5)
O3 O 0.0513(3) 0.4614(9) 0.4506(4)
O4 O 0.0855(3) 0.6937(11) 0.4396(5)
O5 O 0.0631(3) 0.6727(8) 0.1046(4)
O6 O 0.1476(3) 0.7949(8) 0.2553(4)
O7 O 0.1838(3) 0.5836(7) 0.2106(4)
O8 O 0.2093(4) 0.3697(9) 0.1296(5)
O9 O 0.0434(6) 0.0453(16) -0.0094(8)
S1 S 0.12754(11) 0.6514(3) 0.20211(15)
C1 C 0.1101(5) 0.2872(13) 0.1737(7)
C2 C 0.1028(4) 0.3609(14) 0.2390(5)
C3 C 0.1071(4) 0.5185(13) 0.2537(6)
C4 C 0.0980(4) 0.5792(13) 0.3135(6)
H1 H 0.1015 0.6849 0.3237
C5 C 0.0837(4) 0.4827(15) 0.3584(6)
C6 C 0.0800(4) 0.3256(16) 0.3439(6)
H2 H 0.0704 0.2604 0.3735
C7 C 0.0904(4) 0.2640(13) 0.2861(6)
H3 H 0.0891 0.1579 0.2785
C8 C 0.0722(5) 0.5519(18) 0.4207(6)
C9 C 0.2011(5) 0.0687(12) 0.0006(7)
H4 H 0.1936 0.1668 -0.0243
C10 C 0.2272(5) -0.0383(12) -0.0204(7)
H5 H 0.2385 -0.0127 -0.0572
C11 C 0.2373(4) -0.1877(11) 0.0127(6)
C12 C 0.2218(6) -0.2124(13) 0.0705(7)
H6 H 0.2284 -0.3097 0.0957
C13 C 0.1973(6) -0.0968(13) 0.0906(7)
H7 H 0.1886 -0.1170 0.1309
H8 H 0.246(5) 0.359(11) 0.164(6)
H9 H 0.207(6) 0.441(13) 0.164(8)
N1F N 0.3150(4) -0.5440(9) -0.0554(5)
C9F C 0.2989(5) -0.5687(12) -0.0006(7)
H4F H 0.3064 -0.6668 0.0243
C10F C 0.2728(5) -0.4617(12) 0.0204(7)
H5F H 0.2615 -0.4873 0.0572
C11F C 0.2627(4) -0.3123(11) -0.0127(6)
C12F C 0.2782(6) -0.2876(13) -0.0705(7)
H6F H 0.2716 -0.1903 -0.0957
C13F C 0.3027(6) -0.4032(13) -0.0906(7)
H7F H 0.3114 -0.3830 -0.1309
Co1A Co -0.12867(6) 0.20514(17) 0.43672(8)
O1A O -0.0751(3) 0.3419(8) 0.4093(4)
O2A O -0.1491(4) 0.1757(9) 0.3021(5)
O3A O -0.0513(3) 0.4614(9) 0.0494(4)
O4A O -0.0855(3) 0.6937(11) 0.0604(5)
O5A O -0.0631(3) 0.6727(8) 0.3954(4)
O6A O -0.1476(3) 0.7949(8) 0.2447(4)
O7A O -0.1838(3) 0.5836(7) 0.2894(4)
O8A O -0.2093(4) 0.3697(9) 0.3704(5)
O9A O -0.0434(6) 0.0453(16) 0.5094(8)
S1A S -0.12754(11) 0.6514(3) 0.29789(15)
C1A C -0.1101(5) 0.2872(13) 0.3263(7)
C2A C -0.1028(4) 0.3609(14) 0.2610(5)
C3A C -0.1071(4) 0.5185(13) 0.2463(6)
C4A C -0.0980(4) 0.5792(13) 0.1865(6)
H1A H -0.1015 0.6849 0.1763
C5A C -0.0837(4) 0.4827(15) 0.1416(6)
C6A C -0.0800(4) 0.3256(16) 0.1561(6)
H2A H -0.0704 0.2604 0.1265
C7A C -0.0904(4) 0.2640(13) 0.2139(6)
H3A H -0.0891 0.1579 0.2215
C8A C -0.0722(5) 0.5519(18) 0.0793(6)
H8A H -0.246(5) 0.359(11) 0.336(6)
H9A H -0.207(6) 0.441(13) 0.336(8)
Co1D Co -0.12867(6) 0.79486(17) -0.06328(8)
Co1E Co 0.12867(6) 0.79486(17) 0.56328(8)
Co1F Co 0.37133(6) -0.70514(17) -0.06328(8)
Co2A Co 0.0000 0.5000 0.5000
N1A N -0.1850(4) 0.0440(9) 0.4446(5)
O1D O -0.0751(3) 0.6581(8) -0.0907(4)
O3E O 0.0513(3) 0.5386(9) -0.0494(4)
O4D O -0.0855(3) 0.3063(11) 0.5604(5)
O4E O 0.0855(3) 0.3063(11) -0.0604(5)
O5D O -0.0631(3) 0.3273(8) -0.1046(4)
O10 O -0.0156(7) 0.0541(17) -0.1854(10)
loop_
_geom_bond_atom_site_label_1
_geom_bond_atom_site_label_2
_geom_bond_site_symmetry_1
_geom_bond_site_symmetry_2
Co1 N1 1_555 1_555
Co2 O1 1_555 1_555
N1 C9 1_555 1_555
O1 Co1 1_555 1_555
O2 Co1 1_555 1_555
O3 C8 1_555 1_555
O4 C8 1_555 1_555
O5 Co2 1_555 1_555
O6 S1 1_555 1_555
O7 S1 1_555 1_555
O8 Co1 1_555 1_555
O9 Co1 1_555 1_555
S1 O5 1_555 1_555
C1 O1 1_555 1_555
C2 C1 1_555 1_555
C3 S1 1_555 1_555
C4 C3 1_555 1_555
H1 C4 1_555 1_555
C5 C4 1_555 1_555
C6 C5 1_555 1_555
H2 C6 1_555 1_555
C7 C2 1_555 1_555
H3 C7 1_555 1_555
C8 C5 1_555 1_555
C9 H4 1_555 1_555
C10 C9 1_555 1_555
H5 C10 1_555 1_555
C11 C10 1_555 1_555
C12 C11 1_555 1_555
H6 C12 1_555 1_555
C13 N1 1_555 1_555
H7 C13 1_555 1_555
H8 O8 1_555 1_555
H9 O8 1_555 1_555
N1F C9F 1_555 1_555
C9F H4F 1_555 1_555
C10F C9F 1_555 1_555
H5F C10F 1_555 1_555
C11F C11 1_555 1_555
C12F C11F 1_555 1_555
H6F C12F 1_555 1_555
C13F N1F 1_555 1_555
H7F C13F 1_555 1_555
Co1A O1A 1_555 1_555
O1A C1A 1_555 1_555
O2A Co1A 1_555 1_555
O3A Co2 1_555 1_555
O4A C8A 1_555 1_555
O5A S1A 1_555 1_555
O6A S1A 1_555 1_555
O7A S1A 1_555 1_555
O8A Co1A 1_555 1_555
O9A Co1A 1_555 1_555
S1A C3A 1_555 1_555
C1A O2A 1_555 1_555
C2A C1A 1_555 1_555
C3A C2A 1_555 1_555
C4A C3A 1_555 1_555
H1A C4A 1_555 1_555
C5A C4A 1_555 1_555
C6A C5A 1_555 1_555
H2A C6A 1_555 1_555
C7A C2A 1_555 1_555
H3A C7A 1_555 1_555
C8A O3A 1_555 1_555
H8A O8A 1_555 1_555
H9A O8A 1_555 1_555
Co1D O4A 1_555 1_555
Co1E O4 1_555 1_555
Co1F N1F 1_555 1_555
Co2A O3 1_555 1_555
N1A Co1A 1_555 1_555
O1D Co2 1_555 1_555
O3E Co2 1_555 1_555
O4D Co1A 1_555 1_555
O4E Co1 1_555 1_555
O5D Co2 1_555 1_555
O2 C1 1_555 1_555
C2 C3 1_555 1_555
C6 C7 1_555 1_555
C12 C13 1_555 1_555
C10F C11F 1_555 1_555
C12F C13F 1_555 1_555
O1A Co2A 1_555 1_555
O5A Co2A 1_555 1_555
C5A C8A 1_555 1_555
C6A C7A 1_555 1_555
Co1D O1D 1_555 1_555

#END
