
#######################################################################
#
#                 Cambridge Crystallographic Data Centre
#                                CCDC 
#
#######################################################################
#
# If this CIF has been generated from an entry in the Cambridge 
# Structural Database, then it will include bibliographic, chemical, 
# crystal, experimental, refinement or atomic coordinate data resulting 
# from the CCDC's data processing and validation procedures.
#
#######################################################################

data_WUDLEM
_symmetry_cell_setting           monoclinic
_symmetry_space_group_name_H-M   'C 2/c'
_symmetry_Int_Tables_number      15
_space_group_name_Hall           '-C 2yn'
loop_
_symmetry_equiv_pos_site_id
_symmetry_equiv_pos_as_xyz
1 x,y,z
2 1/2+x,1/2+y,z
3 x,-y,1/2+z
4 1/2+x,1/2-y,1/2+z
5 -x,-y,-z
6 1/2-x,1/2-y,-z
7 -x,y,1/2-z
8 1/2-x,1/2+y,1/2-z
_cell_length_a                   15.1164(4)
_cell_length_b                   12.64470(10)
_cell_length_c                   17.4594(5)
_cell_angle_alpha                90
_cell_angle_beta                 90.549(2)
_cell_angle_gamma                90
_cell_volume                     3337.08
loop_
_atom_site_label
_atom_site_type_symbol
_atom_site_fract_x
_atom_site_fract_y
_atom_site_fract_z
Sn1 Sn 0.07721(3) 0.80006(4) 0.11295(3)
Sn2 Sn 0.31586(3) 0.80721(4) 0.06196(3)
N1 N -0.1730(4) 0.5396(5) -0.2507(3)
O1 O 0.1802(3) 0.7683(4) 0.0413(3)
O2 O 0.0389(3) 0.6543(4) -0.0469(3)
O3 O -0.0203(3) 0.7923(4) 0.0120(3)
O4 O -0.4044(3) 0.6816(5) -0.2116(3)
O5 O -0.3107(3) 0.6789(4) -0.3081(3)
O6 O -0.2347(4) 0.4788(5) -0.2553(4)
O7 O -0.1070(4) 0.5371(5) -0.2917(4)
C1 C 0.0410(5) 0.6478(6) 0.1476(5)
H1 H 0.0833 0.5976 0.1290
H2 H -0.0165 0.6311 0.1272
H3 H 0.0396 0.6448 0.2025
C2 C 0.0456(6) 0.9616(6) 0.1159(5)
H4 H 0.0891 1.0008 0.0879
H5 H 0.0450 0.9854 0.1680
H6 H -0.0116 0.9724 0.0929
C3 C 0.2942(5) 0.9703(6) 0.0461(5)
H7 H 0.2321 0.9851 0.0493
H8 H 0.3154 0.9911 -0.0033
H9 H 0.3253 1.0092 0.0852
C4 C 0.3548(6) 0.6925(6) 0.1419(5)
H10 H 0.3034 0.6577 0.1617
H11 H 0.3868 0.7257 0.1831
H12 H 0.3921 0.6414 0.1175
C5 C -0.0231(5) 0.7180(6) -0.0374(4)
C6 C -0.1030(5) 0.7074(5) -0.0873(4)
C7 C -0.1788(5) 0.7687(6) -0.0757(4)
H13 H -0.1802 0.8183 -0.0364
C8 C -0.2510(5) 0.7549(7) -0.1231(4)
H14 H -0.3012 0.7958 -0.1152
C9 C -0.2514(4) 0.6825(5) -0.1817(4)
C10 C -0.3304(5) 0.6801(6) -0.2359(4)
C11 C -0.1758(5) 0.6231(6) -0.1917(4)
C12 C -0.1011(5) 0.6333(6) -0.1461(4)
H15 H -0.0512 0.5920 -0.1545
O5C O 0.1893(3) 0.8211(4) 0.1919(3)
O1E O 0.3198(3) 0.7317(4) -0.0413(3)
O2E O 0.4611(3) 0.8457(4) 0.0469(3)
Sn2E Sn 0.18414(3) 0.69279(4) -0.06196(3)
Sn1C Sn -0.42279(3) 0.69994(4) -0.38705(3)
loop_
_geom_bond_atom_site_label_1
_geom_bond_atom_site_label_2
_geom_bond_site_symmetry_1
_geom_bond_site_symmetry_2
Sn1 O1 1_555 1_555
Sn2 O1 1_555 1_555
N1 O6 1_555 1_555
O1 Sn2E 1_555 1_555
O2 C5 1_555 1_555
O3 Sn1 1_555 1_555
O4 C10 1_555 1_555
O5 C10 1_555 1_555
O7 N1 1_555 1_555
C1 Sn1 1_555 1_555
H1 C1 1_555 1_555
H2 C1 1_555 1_555
H3 C1 1_555 1_555
C2 Sn1 1_555 1_555
H4 C2 1_555 1_555
H5 C2 1_555 1_555
H6 C2 1_555 1_555
C3 Sn2 1_555 1_555
H7 C3 1_555 1_555
H8 C3 1_555 1_555
H9 C3 1_555 1_555
C4 Sn2 1_555 1_555
H10 C4 1_555 1_555
H11 C4 1_555 1_555
H12 C4 1_555 1_555
C5 O3 1_555 1_555
C6 C5 1_555 1_555
C7 C6 1_555 1_555
H13 C7 1_555 1_555
C8 C7 1_555 1_555
H14 C8 1_555 1_555
C9 C8 1_555 1_555
C10 C9 1_555 1_555
C11 N1 1_555 1_555
C12 C6 1_555 1_555
H15 C12 1_555 1_555
O5C Sn1 1_555 1_555
O1E Sn2 1_555 1_555
O2E Sn2 1_555 1_555
Sn2E O2 1_555 1_555
Sn1C O5 1_555 1_555
C9 C11 1_555 1_555
C11 C12 1_555 1_555
O1E Sn2E 1_555 1_555

#END
