
#######################################################################
#
#                 Cambridge Crystallographic Data Centre
#                                CCDC 
#
#######################################################################
#
# If this CIF has been generated from an entry in the Cambridge 
# Structural Database, then it will include bibliographic, chemical, 
# crystal, experimental, refinement or atomic coordinate data resulting 
# from the CCDC's data processing and validation procedures.
#
#######################################################################

data_WUDPUI
_symmetry_cell_setting           triclinic
_symmetry_space_group_name_H-M   'P -1'
_symmetry_Int_Tables_number      2
_space_group_name_Hall           '-P 1'
loop_
_symmetry_equiv_pos_site_id
_symmetry_equiv_pos_as_xyz
1 x,y,z
2 -x,-y,-z
_cell_length_a                   7.1012(15)
_cell_length_b                   7.1296(15)
_cell_length_c                   7.4995(17)
_cell_angle_alpha                73.046(17)
_cell_angle_beta                 87.460(18)
_cell_angle_gamma                89.204(17)
_cell_volume                     362.831
loop_
_atom_site_label
_atom_site_type_symbol
_atom_site_fract_x
_atom_site_fract_y
_atom_site_fract_z
N1 N 0.2545(4) 0.4234(4) -0.0274(4)
H1 H 0.2023 0.4015 -0.1267
H2 H 0.2013 0.5329 -0.0111
C1 C 0.4568(5) 0.4618(4) -0.0728(4)
H3 H 0.4733 0.5574 -0.1945
H4 H 0.5199 0.3417 -0.0777
N2 N 0.3917(4) -0.0173(4) 0.2813(4)
H5 H 0.3526 -0.1244 0.2531
H6 H 0.4946 0.0274 0.2075
C2 C 0.4533(5) -0.0830(4) 0.4754(4)
H7 H 0.5413 -0.1912 0.4895
H8 H 0.3452 -0.1291 0.5599
N3 N 0.0621(4) 0.2730(4) 0.4244(4)
H9 H -0.0620 0.2484 0.4262
H10 H 0.1069 0.1903 0.5289
C3 C 0.0800(5) 0.4718(5) 0.4414(4)
H11 H 0.0833 0.5647 0.3176
H12 H 0.1987 0.4818 0.4971
Se1 Se -0.11689(4) 0.04166(4) 0.10180(4)
Li1 Li 0.1842(8) 0.1932(7) 0.2036(7)
N1A N 0.7455(4) 0.5766(4) 0.0274(4)
H1A H 0.7977 0.5985 0.1267
H2A H 0.7987 0.4671 0.0111
C1A C 0.5432(5) 0.5382(4) 0.0728(4)
H3A H 0.5267 0.4426 0.1945
H4A H 0.4801 0.6583 0.0777
N2A N 0.6083(4) 0.0173(4) 0.7187(4)
H5A H 0.6474 0.1244 0.7469
H6A H 0.5054 -0.0274 0.7925
C2A C 0.5467(5) 0.0830(4) 0.5246(4)
H7A H 0.4587 0.1912 0.5105
H8A H 0.6548 0.1291 0.4401
N3A N -0.0621(4) 0.7270(4) 0.5756(4)
H9A H 0.0620 0.7516 0.5738
H10A H -0.1069 0.8097 0.4711
C3A C -0.0800(5) 0.5282(5) 0.5586(4)
H11A H -0.0833 0.4353 0.6824
H12A H -0.1987 0.5182 0.5029
Se1A Se 0.11689(4) -0.04166(4) -0.10180(4)
Li1A Li -0.1842(8) -0.1932(7) -0.2036(7)
N1A_2 N -0.2545(4) -0.4234(4) 0.0274(4)
N2A_2 N -0.3917(4) 0.0173(4) -0.2813(4)
N3A_2 N -0.0621(4) -0.2730(4) -0.4244(4)
Li1A_2 Li -0.1842(8) 0.8068(7) 0.7964(7)
Li1A_3 Li 0.8158(8) -0.1932(7) 0.7964(7)
Li1A_4 Li 0.8158(8) 0.8068(7) -0.2036(7)
loop_
_geom_bond_atom_site_label_1
_geom_bond_atom_site_label_2
_geom_bond_site_symmetry_1
_geom_bond_site_symmetry_2
N1 H1 1_555 1_555
H2 N1 1_555 1_555
C1 N1 1_555 1_555
H3 C1 1_555 1_555
H4 C1 1_555 1_555
N2 H5 1_555 1_555
H6 N2 1_555 1_555
C2 N2 1_555 1_555
H7 C2 1_555 1_555
H8 C2 1_555 1_555
N3 H9 1_555 1_555
H10 N3 1_555 1_555
C3 N3 1_555 1_555
H11 C3 1_555 1_555
H12 C3 1_555 1_555
Se1 Li1 1_555 1_555
Li1 N1 1_555 1_555
N1A H1A 1_555 1_555
H2A N1A 1_555 1_555
C1A C1 1_555 1_555
H3A C1A 1_555 1_555
H4A C1A 1_555 1_555
N2A H5A 1_555 1_555
H6A N2A 1_555 1_555
C2A C2 1_555 1_555
H7A C2A 1_555 1_555
H8A C2A 1_555 1_555
N3A H9A 1_555 1_555
H10A N3A 1_555 1_555
C3A C3 1_555 1_555
H11A C3A 1_555 1_555
H12A C3A 1_555 1_555
Se1A Se1 1_555 1_555
Li1A Se1A 1_555 1_555
N1A_2 Li1A 1_555 1_555
N2A_2 Li1A 1_555 1_555
N3A_2 Li1A 1_555 1_555
Li1A_2 N3A 1_555 1_555
Li1A_3 N2A 1_555 1_555
Li1A_4 N1A 1_555 1_555
N2 Li1 1_555 1_555
N3 Li1 1_555 1_555
N1A C1A 1_555 1_555
N2A C2A 1_555 1_555
N3A C3A 1_555 1_555

#END
