
#######################################################################
#
#                 Cambridge Crystallographic Data Centre
#                                CCDC 
#
#######################################################################
#
# If this CIF has been generated from an entry in the Cambridge 
# Structural Database, then it will include bibliographic, chemical, 
# crystal, experimental, refinement or atomic coordinate data resulting 
# from the CCDC's data processing and validation procedures.
#
#######################################################################

data_WUDTIA
_symmetry_cell_setting           triclinic
_symmetry_space_group_name_H-M   'P -1'
_symmetry_Int_Tables_number      2
_space_group_name_Hall           '-P 1'
loop_
_symmetry_equiv_pos_site_id
_symmetry_equiv_pos_as_xyz
1 x,y,z
2 -x,-y,-z
_cell_length_a                   9.8401(3)
_cell_length_b                   10.0517(3)
_cell_length_c                   18.0642(6)
_cell_angle_alpha                90.221(3)
_cell_angle_beta                 93.857(3)
_cell_angle_gamma                113.891(3)
_cell_volume                     1628.99
loop_
_atom_site_label
_atom_site_type_symbol
_atom_site_fract_x
_atom_site_fract_y
_atom_site_fract_z
Ce1 Ce 1.50731(2) 0.27658(2) 1.496377(10)
O1 O 0.5737(4) 0.1618(4) 0.60313(18)
O2 O 1.4364(4) 0.4125(4) 0.58596(17)
O3 O 1.7409(5) 0.2267(5) 1.4698(2)
H1 H 1.8381 0.2941 1.4755
H2 H 1.7387 0.1393 1.4533
O4 O 0.5581(4) -0.0609(4) 0.58213(17)
O5 O 1.3848(4) 0.5993(4) 0.61815(17)
O6 O 1.3024(4) 0.3095(3) 1.42133(17)
O7 O 1.2679(3) 0.5090(3) 1.45344(16)
O8 O 1.2690(4) 0.0859(4) 1.5464(2)
N1 N 1.1077(5) 0.0249(5) 1.6375(3)
C1 C 1.1646(9) -0.0699(8) 1.6765(4)
H3 H 1.1777 -0.0459 1.7288
H4 H 1.2587 -0.0571 1.6587
H5 H 1.0952 -0.1693 1.6680
C2 C 0.9725(9) 0.1654(11) 1.6135(4)
H6 H 1.0002 0.2541 1.6434
H7 H 0.8722 0.1383 1.5910
C3 C 1.3999(5) 0.4839(5) 0.6327(2)
C4 C 1.0798(6) 0.1878(6) 1.5546(3)
H8 H 1.1471 0.2896 1.5529
H9 H 1.0270 0.1555 1.5062
C5 C 0.8802(6) 0.1250(5) 0.9654(2)
C6 C 0.7350(6) 0.0010(6) 0.9364(3)
H10 H 0.7469 -0.0898 0.9410
H11 H 0.6572 -0.0031 0.9678
C7 C 1.0775(5) 0.4228(5) 1.1854(2)
C8 C 1.3176(6) 0.4914(6) 0.7599(3)
H12 H 1.2976 0.5714 0.7466
C9 C 1.1904(5) 0.4095(5) 1.3310(2)
C10 C 1.4075(6) 0.3120(6) 0.7312(3)
H13 H 1.4474 0.2690 0.6982
C11 C 0.5758(5) 0.0435(5) 0.6239(2)
C12 C 1.2139(5) 0.3321(5) 1.2732(3)
H14 H 1.2666 0.2745 1.2826
C13 C 1.3823(7) 0.2600(6) 0.8020(3)
H15 H 1.4076 0.1837 0.8162
C14 C 0.7147(7) 0.1457(6) 0.8246(3)
H16 H 0.7628 0.2306 0.8537
C15 C 1.3198(5) 0.3195(6) 0.8522(3)
C16 C 1.3739(5) 0.4276(5) 0.7093(2)
C17 C 1.2904(7) 0.4375(6) 0.8304(3)
H17 H 1.2518 0.4815 0.8636
C18 C 0.6052(5) 0.0308(5) 0.7059(2)
C19 C 0.6072(6) -0.1115(5) 0.8123(3)
H18 H 0.5803 -0.2021 0.8333
C20 C 0.9800(9) 0.0486(9) 1.6594(4)
H19 H 0.9925 0.0770 1.7116
H20 H 0.8895 -0.0394 1.6507
C21 C 0.6838(5) 0.0125(5) 0.8562(2)
C22 C 1.2985(7) 0.4767(7) 1.0396(4)
H21 H 1.3605 0.4396 1.0682
H22 H 1.2804 0.5463 1.0694
H23 H 1.3477 0.5230 0.9967
C23 C 1.1638(5) 0.0961(6) 1.5779(3)
C24 C 1.0122(6) 0.1402(5) 0.9347(2)
C25 C 1.2908(6) 0.2594(7) 0.9290(3)
H24 H 1.377(7) 0.316(7) 0.960(4)
C26 C 0.6753(6) 0.1550(5) 0.7505(3)
H25 H 0.6962 0.2458 0.7306
C27 C 1.1068(6) 0.4902(6) 1.3158(3)
H26 H 1.0884 0.5412 1.3541
C28 C 1.1474(6) 0.2519(5) 0.9598(2)
C29 C 1.1588(6) 0.3402(5) 1.2012(3)
H27 H 1.1769 0.2891 1.1629
C30 C 0.5691(5) -0.1041(5) 0.7372(3)
H28 H 0.5197 -0.1890 0.7082
C31 C 0.7455(7) 0.1947(8) 1.0632(4)
H29 H 0.6853 0.2343 1.0349
H30 H 0.7736 0.2420 1.1115
H31 H 0.6896 0.0922 1.0682
C32 C 0.8849(6) 0.2196(6) 1.0234(2)
C33 C 1.0237(7) 0.4428(6) 1.1067(3)
H32 H 0.9239 0.4390 1.1081
H33 H 1.0873 0.5396 1.0920
C34 C 1.2585(4) 0.4086(5) 1.4078(2)
C35 C 1.0507(6) 0.4954(6) 1.2444(3)
H34 H 0.9935 0.5489 1.2356
C36 C 1.0201(6) 0.3354(5) 1.0470(2)
C37 C 1.0081(7) 0.0330(6) 0.8749(3)
H35 H 1.0519 -0.0301 0.8950
H36 H 1.0632 0.0848 0.8347
H37 H 0.9066 -0.0240 0.8571
C38 C 1.1511(6) 0.3521(5) 1.0150(2)
H38 H 1.293(6) 0.164(7) 0.927(3)
Ce1_2 Ce 0.50731(2) 0.27658(2) 0.496377(10)
Ce1_3 Ce 1.50731(2) 0.27658(2) 0.496377(10)
Ce1A Ce 0.49269(2) -0.27658(2) 0.503623(10)
Ce1A_2 Ce 1.49269(2) 0.72342(2) 0.503623(10)
Ce1A_3 Ce 1.49269(2) 0.72342(2) 1.503623(10)
O1_2 O 1.5737(4) 0.1618(4) 1.60313(18)
O2_2 O 1.4364(4) 0.4125(4) 1.58596(17)
O4A O 1.4419(4) 0.0609(4) 1.41787(17)
O5A O 1.6152(4) 0.4007(4) 1.38185(17)
O7A O 1.7321(3) 0.4910(3) 1.54656(16)
loop_
_geom_bond_atom_site_label_1
_geom_bond_atom_site_label_2
_geom_bond_site_symmetry_1
_geom_bond_site_symmetry_2
Ce1 O3 1_555 1_555
O1 C11 1_555 1_555
O2 C3 1_555 1_555
O3 H1 1_555 1_555
H2 O3 1_555 1_555
O4 C11 1_555 1_555
O5 C3 1_555 1_555
O6 Ce1 1_555 1_555
O7 C34 1_555 1_555
O8 Ce1 1_555 1_555
N1 C1 1_555 1_555
C1 H3 1_555 1_555
H4 C1 1_555 1_555
H5 C1 1_555 1_555
C2 H6 1_555 1_555
H7 C2 1_555 1_555
C3 C16 1_555 1_555
C4 C2 1_555 1_555
H8 C4 1_555 1_555
H9 C4 1_555 1_555
C5 C6 1_555 1_555
C6 H10 1_555 1_555
H11 C6 1_555 1_555
C7 C29 1_555 1_555
C8 H12 1_555 1_555
C9 C12 1_555 1_555
C10 H13 1_555 1_555
C11 C18 1_555 1_555
C12 H14 1_555 1_555
C13 C10 1_555 1_555
H15 C13 1_555 1_555
C14 H16 1_555 1_555
C15 C13 1_555 1_555
C16 C8 1_555 1_555
C17 C8 1_555 1_555
H17 C17 1_555 1_555
C18 C26 1_555 1_555
C19 H18 1_555 1_555
C20 N1 1_555 1_555
H19 C20 1_555 1_555
H20 C20 1_555 1_555
C21 C6 1_555 1_555
C22 H21 1_555 1_555
H22 C22 1_555 1_555
H23 C22 1_555 1_555
C23 O8 1_555 1_555
C24 C5 1_555 1_555
C25 C15 1_555 1_555
H24 C25 1_555 1_555
C26 C14 1_555 1_555
H25 C26 1_555 1_555
C27 C9 1_555 1_555
H26 C27 1_555 1_555
C28 C24 1_555 1_555
C29 C12 1_555 1_555
H27 C29 1_555 1_555
C30 C18 1_555 1_555
H28 C30 1_555 1_555
C31 H29 1_555 1_555
H30 C31 1_555 1_555
H31 C31 1_555 1_555
C32 C5 1_555 1_555
C33 C7 1_555 1_555
H32 C33 1_555 1_555
H33 C33 1_555 1_555
C34 O6 1_555 1_555
C35 C7 1_555 1_555
H34 C35 1_555 1_555
C36 C32 1_555 1_555
C37 C24 1_555 1_555
H35 C37 1_555 1_555
H36 C37 1_555 1_555
H37 C37 1_555 1_555
C38 C22 1_555 1_555
H38 C25 1_555 1_555
Ce1_2 O1 1_555 1_555
Ce1_3 O2 1_555 1_555
Ce1A O4 1_555 1_555
Ce1A_2 O5 1_555 1_555
Ce1A_3 O7 1_555 1_555
O1_2 Ce1 1_555 1_555
O2_2 Ce1 1_555 1_555
O4A Ce1 1_555 1_555
O5A Ce1 1_555 1_555
O7A Ce1 1_555 1_555
N1 C23 1_555 1_555
C2 C20 1_555 1_555
C4 C23 1_555 1_555
C9 C34 1_555 1_555
C10 C16 1_555 1_555
C14 C21 1_555 1_555
C15 C17 1_555 1_555
C19 C21 1_555 1_555
C19 C30 1_555 1_555
C25 C28 1_555 1_555
C27 C35 1_555 1_555
C28 C38 1_555 1_555
C31 C32 1_555 1_555
C33 C36 1_555 1_555
C36 C38 1_555 1_555

#END
