
#######################################################################
#
#                 Cambridge Crystallographic Data Centre
#                                CCDC 
#
#######################################################################
#
# If this CIF has been generated from an entry in the Cambridge 
# Structural Database, then it will include bibliographic, chemical, 
# crystal, experimental, refinement or atomic coordinate data resulting 
# from the CCDC's data processing and validation procedures.
#
#######################################################################

data_WUDTOG
_symmetry_cell_setting           triclinic
_symmetry_space_group_name_H-M   'P -1'
_symmetry_Int_Tables_number      2
_space_group_name_Hall           '-P 1'
loop_
_symmetry_equiv_pos_site_id
_symmetry_equiv_pos_as_xyz
1 x,y,z
2 -x,-y,-z
_cell_length_a                   9.8432(3)
_cell_length_b                   10.0408(3)
_cell_length_c                   18.0453(7)
_cell_angle_alpha                90.135(3)
_cell_angle_beta                 93.963(3)
_cell_angle_gamma                113.872(3)
_cell_volume                     1626.11
loop_
_atom_site_label
_atom_site_type_symbol
_atom_site_fract_x
_atom_site_fract_y
_atom_site_fract_z
Pr1 Pr 0.00715(8) 0.27666(8) -0.00319(4)
O1 O 0.9393(13) 0.4120(13) 0.0859(6)
O2 O 0.0596(16) -0.0616(15) 0.0819(7)
O3 O 0.0729(15) 0.1608(13) 0.1023(6)
O4 O 0.8040(13) 0.3092(13) 0.9224(6)
O5 O 0.8876(14) 0.5992(13) 0.1163(6)
O6 O -0.2286(14) 0.0874(14) 0.0457(7)
O7 O 0.2370(16) 0.2252(17) -0.0303(8)
H1 H 0.2400 0.1308 -0.0317
H2 H 0.3330 0.2975 -0.0404
O8 O 0.7704(13) 0.5108(13) 0.9541(6)
C1 C 0.0772(17) 0.0424(16) 0.1230(8)
C2 C 0.183(2) 0.0121(19) 0.3565(9)
C3 C 0.658(2) 0.3403(19) 0.7011(9)
H3 H 0.6750 0.2887 0.6626
C4 C 0.6901(19) 0.4079(17) 0.8310(9)
C5 C 0.1039(18) 0.0304(18) 0.2050(9)
C6 C 0.382(2) 0.127(2) 0.4651(9)
C7 C 0.9007(17) 0.4826(18) 0.1324(9)
C8 C 0.608(2) 0.493(2) 0.8163(9)
H4 H 0.5929 0.5467 0.8544
C9 C 0.715(2) 0.3322(19) 0.7735(9)
H5 H 0.7697 0.2762 0.7827
C10 C 0.0694(19) -0.1054(18) 0.2363(9)
H6 H 0.0223 -0.1905 0.2072
C11 C 0.791(2) 0.438(2) 0.3293(10)
H7 H 0.7510 0.4817 0.3621
C12 C 0.881(2) 0.260(2) 0.3012(10)
H8 H 0.9049 0.1823 0.3152
C13 C 0.8743(17) 0.4290(17) 0.2087(9)
C14 C 0.647(2) 0.252(2) 0.4589(9)
C15 C 0.907(2) 0.311(2) 0.2317(10)
H9 H 0.9474 0.2673 0.1990
N1 N -0.3930(19) 0.0233(19) 0.1374(9)
C16 C 0.214(2) 0.147(2) 0.3242(10)
H10 H 0.2607 0.2326 0.3531
C17 C 0.819(2) 0.320(2) 0.3524(9)
C18 C 0.649(2) 0.3519(19) 0.5157(8)
C19 C 0.819(2) 0.493(2) 0.2607(10)
H11 H 0.8018 0.5753 0.2483
C20 C 0.235(2) 0.000(2) 0.4361(10)
H12 H 0.2480 -0.0905 0.4404
H13 H 0.1571 -0.0055 0.4677
C21 C 0.522(2) 0.442(2) 0.6059(9)
H14 H 0.4218 0.4362 0.6071
H15 H 0.5844 0.5396 0.5914
C22 C 0.577(2) 0.4220(19) 0.6856(9)
C23 C 0.522(2) 0.336(2) 0.5463(9)
C24 C 0.247(3) 0.195(3) 0.5630(14)
H16 H 0.1849 0.0928 0.5632
H17 H 0.1933 0.2449 0.5377
H18 H 0.2757 0.2329 0.6132
C25 C -0.3349(19) 0.095(2) 0.0779(10)
C26 C -0.337(3) -0.073(3) 0.1761(14)
H19 H -0.2653 -0.0874 0.1476
H20 H -0.4184 -0.1650 0.1825
H21 H -0.2912 -0.0299 0.2239
C27 C 0.512(2) 0.1407(19) 0.4344(8)
C28 C 0.509(3) 0.034(2) 0.3743(10)
H22 H 0.4110 -0.0433 0.3679
H23 H 0.5800 -0.0062 0.3884
H24 H 0.5335 0.0832 0.3284
C29 C 0.106(2) -0.112(2) 0.3109(10)
H25 H 0.0786 -0.2025 0.3318
C30 C 0.175(2) 0.1539(19) 0.2492(10)
H26 H 0.1986 0.2445 0.2284
C31 C 0.7590(16) 0.4093(17) 0.9082(9)
C32 C 0.791(2) 0.261(2) 0.4294(9)
H27 H 0.8739 0.3226 0.4635
H28 H 0.7910 0.1644 0.4293
C33 C 0.550(2) 0.495(2) 0.7445(9)
H29 H 0.4909 0.5468 0.7354
C34 C 0.384(2) 0.218(2) 0.5236(9)
C35 C 0.799(2) 0.477(3) 0.5388(13)
H30 H 0.7868 0.5360 0.5773
H31 H 0.8364 0.5349 0.4966
H32 H 0.8690 0.4374 0.5569
C36 C -0.525(3) 0.167(3) 0.1121(15)
H33 H -0.6245 0.1448 0.0895
H34 H -0.4943 0.2544 0.1434
C37 C -0.420(2) 0.189(2) 0.0539(12)
H35 H -0.3524 0.2910 0.0521
H36 H -0.4730 0.1570 0.0054
C38 C -0.524(3) 0.042(3) 0.1574(16)
H37 H -0.5174 0.0647 0.2101
H38 H -0.6133 -0.0457 0.1451
Pr1_2 Pr 1.00715(8) 0.27666(8) -0.00319(4)
Pr1_3 Pr 1.00715(8) 0.27666(8) 0.99681(4)
Pr1A Pr -0.00715(8) -0.27666(8) 0.00319(4)
Pr1A_2 Pr 0.99285(8) 0.72334(8) 0.00319(4)
Pr1A_3 Pr 0.99285(8) 0.72334(8) 1.00319(4)
O1_2 O -0.0607(13) 0.4120(13) 0.0859(6)
O2A O -0.0596(16) 0.0616(15) -0.0819(7)
O4_2 O -0.1960(13) 0.3092(13) -0.0776(6)
O5A O 0.1124(14) 0.4008(13) -0.1163(6)
O8A O 0.2296(13) 0.4892(13) 0.0459(6)
loop_
_geom_bond_atom_site_label_1
_geom_bond_atom_site_label_2
_geom_bond_site_symmetry_1
_geom_bond_site_symmetry_2
Pr1 O3 1_555 1_555
O1 C7 1_555 1_555
O2 C1 1_555 1_555
O3 C1 1_555 1_555
O4 C31 1_555 1_555
O5 C7 1_555 1_555
O6 Pr1 1_555 1_555
O7 Pr1 1_555 1_555
H1 O7 1_555 1_555
H2 O7 1_555 1_555
O8 C31 1_555 1_555
C1 C5 1_555 1_555
C2 C16 1_555 1_555
C3 H3 1_555 1_555
C4 C8 1_555 1_555
C5 C10 1_555 1_555
C6 C20 1_555 1_555
C7 C13 1_555 1_555
C8 H4 1_555 1_555
C9 C3 1_555 1_555
H5 C9 1_555 1_555
C10 H6 1_555 1_555
C11 H7 1_555 1_555
C12 H8 1_555 1_555
C13 C15 1_555 1_555
C14 C18 1_555 1_555
C15 C12 1_555 1_555
H9 C15 1_555 1_555
N1 C25 1_555 1_555
C16 H10 1_555 1_555
C17 C11 1_555 1_555
C18 C23 1_555 1_555
C19 C11 1_555 1_555
H11 C19 1_555 1_555
C20 C2 1_555 1_555
H12 C20 1_555 1_555
H13 C20 1_555 1_555
C21 H14 1_555 1_555
H15 C21 1_555 1_555
C22 C3 1_555 1_555
C23 C21 1_555 1_555
C24 H16 1_555 1_555
H17 C24 1_555 1_555
H18 C24 1_555 1_555
C25 O6 1_555 1_555
C26 N1 1_555 1_555
H19 C26 1_555 1_555
H20 C26 1_555 1_555
H21 C26 1_555 1_555
C27 C6 1_555 1_555
C28 C27 1_555 1_555
H22 C28 1_555 1_555
H23 C28 1_555 1_555
H24 C28 1_555 1_555
C29 C2 1_555 1_555
H25 C29 1_555 1_555
C30 C5 1_555 1_555
H26 C30 1_555 1_555
C31 C4 1_555 1_555
C32 C14 1_555 1_555
H27 C32 1_555 1_555
H28 C32 1_555 1_555
C33 C8 1_555 1_555
H29 C33 1_555 1_555
C34 C6 1_555 1_555
C35 C18 1_555 1_555
H30 C35 1_555 1_555
H31 C35 1_555 1_555
H32 C35 1_555 1_555
C36 H33 1_555 1_555
H34 C36 1_555 1_555
C37 C25 1_555 1_555
H35 C37 1_555 1_555
H36 C37 1_555 1_555
C38 N1 1_555 1_555
H37 C38 1_555 1_555
H38 C38 1_555 1_555
Pr1_2 O1 1_555 1_555
Pr1_3 O4 1_555 1_555
Pr1A O2 1_555 1_555
Pr1A_2 O5 1_555 1_555
Pr1A_3 O8 1_555 1_555
O1_2 Pr1 1_555 1_555
O2A Pr1 1_555 1_555
O4_2 Pr1 1_555 1_555
O5A Pr1 1_555 1_555
O8A Pr1 1_555 1_555
C4 C9 1_555 1_555
C10 C29 1_555 1_555
C12 C17 1_555 1_555
C13 C19 1_555 1_555
C14 C27 1_555 1_555
C16 C30 1_555 1_555
C17 C32 1_555 1_555
C21 C22 1_555 1_555
C22 C33 1_555 1_555
C23 C34 1_555 1_555
C24 C34 1_555 1_555
C36 C37 1_555 1_555
C36 C38 1_555 1_555

#END
