
#######################################################################
#
#                 Cambridge Crystallographic Data Centre
#                                CCDC 
#
#######################################################################
#
# If this CIF has been generated from an entry in the Cambridge 
# Structural Database, then it will include bibliographic, chemical, 
# crystal, experimental, refinement or atomic coordinate data resulting 
# from the CCDC's data processing and validation procedures.
#
#######################################################################

data_WUDVEY
_symmetry_cell_setting           orthorhombic
_symmetry_space_group_name_H-M   'P n m a'
_symmetry_Int_Tables_number      62
_space_group_name_Hall           '-P 2ac 2n'
loop_
_symmetry_equiv_pos_site_id
_symmetry_equiv_pos_as_xyz
1 x,y,z
2 1/2-x,-y,1/2+z
3 1/2+x,1/2-y,1/2-z
4 -x,1/2+y,-z
5 -x,-y,-z
6 1/2+x,y,1/2-z
7 1/2-x,1/2+y,1/2+z
8 x,1/2-y,z
_cell_length_a                   32.7626(14)
_cell_length_b                   34.950(2)
_cell_length_c                   5.7721(4)
_cell_angle_alpha                90
_cell_angle_beta                 90
_cell_angle_gamma                90
_cell_volume                     6609.36
loop_
_atom_site_label
_atom_site_type_symbol
_atom_site_fract_x
_atom_site_fract_y
_atom_site_fract_z
Yb1 Yb 0.54371(4) 0.2500 0.8801(6)
O1 O 0.3521(5) 0.7004(3) 0.289(2)
O2 O 0.1920(3) 0.2958(3) 0.2376(19)
O3 O 0.2353(4) 0.2953(3) -0.044(2)
O4 O 0.4055(4) 0.7096(3) 0.067(3)
C1 C 0.3650(4) 0.5822(3) 0.222(3)
H1 H 0.3543 0.5652 0.3300
C2 C 0.3634(4) 0.6212(3) 0.269(3)
H2 H 0.3507 0.6301 0.4024
O5 O 0.5181(5) 0.2933(5) 0.166(4)
C3 C 0.2949(4) 0.4469(5) 0.525(4)
H3 H 0.2977 0.4426 0.6905
H4 H 0.2756 0.4677 0.5043
C4 C 0.3807(4) 0.6466(3) 0.115(3)
C5 C 0.3816(5) 0.5680(3) 0.024(3)
C6 C 0.3365(3) 0.4597(4) 0.430(3)
C7 C 0.4089(3) 0.4619(3) 0.465(3)
C8 C 0.4120(3) 0.4870(3) 0.284(3)
C9 C 0.3380(4) 0.4849(4) 0.250(3)
C10 C 0.2773(4) 0.4116(4) 0.418(3)
C11 C 0.2221(5) 0.3109(4) 0.132(4)
C12 C 0.3720(4) 0.4468(4) 0.540(3)
C13 C 0.3983(5) 0.6324(4) -0.085(3)
H5 H 0.4093 0.6494 -0.1919
C14 C 0.3997(5) 0.5936(4) -0.129(3)
H6 H 0.4129 0.5846 -0.2606
C15 C 0.3800(6) 0.5251(4) -0.035(3)
H7 H 0.3570 0.5208 -0.1378
H8 H 0.4046 0.5185 -0.1193
C16 C 0.4467(4) 0.4498(4) 0.608(3)
H9 H 0.4667 0.4703 0.6000
H10 H 0.4385 0.4472 0.7686
C17 C 0.2411(5) 0.3462(3) 0.232(3)
C18 C 0.3762(4) 0.4988(3) 0.165(3)
C19 C 0.4533(4) 0.5028(4) 0.218(3)
H11 H 0.4590 0.5253 0.3082
H12 H 0.4533 0.5093 0.0564
H13 H 0.4739 0.4839 0.2472
C20 C 0.3804(6) 0.6885(4) 0.166(4)
C21 C 0.2449(4) 0.3935(4) 0.533(4)
H14 H 0.2351 0.4035 0.6710
C22 C 0.4578(6) 0.3941(5) 0.340(4)
H15 H 0.4382 0.4038 0.2403
C23 C 0.2905(5) 0.3957(5) 0.221(4)
H16 H 0.3128 0.4068 0.1462
C24 C 0.4665(5) 0.4137(4) 0.533(4)
C25 C 0.2728(5) 0.3637(5) 0.122(3)
H17 H 0.2824 0.3541 -0.0185
C26 C 0.5052(5) 0.3433(5) 0.427(6)
C27 C 0.2274(5) 0.3605(4) 0.441(3)
H18 H 0.2065 0.3481 0.5203
C28 C 0.2989(5) 0.4987(5) 0.130(5)
H19 H 0.2812 0.4773 0.1031
H20 H 0.3058 0.5104 -0.0151
H21 H 0.2853 0.5170 0.2271
C29 C 0.3699(6) 0.4177(5) 0.729(3)
H22 H 0.3720 0.4302 0.8763
H23 H 0.3919 0.3998 0.7114
H24 H 0.3443 0.4043 0.7200
C30 C 0.4956(6) 0.3969(5) 0.679(5)
H25 H 0.5023 0.4089 0.8183
C31 C 0.4770(7) 0.3597(5) 0.282(4)
H26 H 0.4705 0.3477 0.1426
C32 C 0.5145(6) 0.3627(6) 0.620(7)
H27 H 0.5345 0.3529 0.7185
C33 C 0.5274(8) 0.3050(5) 0.386(6)
O6 O 0.5450(7) 0.2913(5) 0.549(6)
O7 O 0.4782(17) 0.2500 0.691(11)
Yb2 Yb 0.31885(4) 0.7500 0.4463(2)
O8 O 0.2909(6) 0.7500 0.087(3)
O9 O 0.3787(5) 0.7500 0.640(3)
O1D O 0.6479(5) 0.2996(3) 0.711(2)
O2D O 0.8080(3) 0.7042(3) 0.7624(19)
O3D O 0.7647(4) 0.7047(3) 1.044(2)
O4D O 0.5945(4) 0.2904(3) 0.933(3)
C1D C 0.6350(4) 0.4178(3) 0.778(3)
H1D H 0.6457 0.4348 0.6700
C2D C 0.6366(4) 0.3788(3) 0.731(3)
H2D H 0.6493 0.3699 0.5976
O5D O 0.4819(5) 0.7067(5) 0.834(4)
C3D C 0.7051(4) 0.5531(5) 0.475(4)
H3D H 0.7023 0.5574 0.3095
H4D H 0.7244 0.5323 0.4957
C4D C 0.6193(4) 0.3534(3) 0.885(3)
C5D C 0.6184(5) 0.4320(3) 0.976(3)
C6D C 0.6635(3) 0.5403(4) 0.570(3)
C7D C 0.5911(3) 0.5381(3) 0.535(3)
C8D C 0.5880(3) 0.5130(3) 0.716(3)
C9D C 0.6620(4) 0.5151(4) 0.750(3)
C10D C 0.7227(4) 0.5884(4) 0.582(3)
C11D C 0.7779(5) 0.6891(4) 0.868(4)
C12D C 0.6280(4) 0.5532(4) 0.460(3)
C13D C 0.6017(5) 0.3676(4) 1.085(3)
H5D H 0.5907 0.3506 1.1919
C14D C 0.6003(5) 0.4064(4) 1.129(3)
H6D H 0.5871 0.4154 1.2606
C15D C 0.6200(6) 0.4749(4) 1.035(3)
H7D H 0.6430 0.4792 1.1378
H8D H 0.5954 0.4815 1.1193
C16D C 0.5533(4) 0.5502(4) 0.392(3)
H9D H 0.5333 0.5297 0.4000
H10D H 0.5615 0.5528 0.2314
C17D C 0.7589(5) 0.6538(3) 0.768(3)
C18D C 0.6238(4) 0.5012(3) 0.835(3)
C19D C 0.5467(4) 0.4972(4) 0.782(3)
H11D H 0.5410 0.4747 0.6918
H12D H 0.5467 0.4907 0.9436
H13D H 0.5261 0.5161 0.7528
C20D C 0.6196(6) 0.3115(4) 0.834(4)
C21D C 0.7551(4) 0.6065(4) 0.467(4)
H14D H 0.7649 0.5965 0.3290
C22D C 0.5422(6) 0.6059(5) 0.660(4)
H15D H 0.5618 0.5962 0.7597
C23D C 0.7095(5) 0.6043(5) 0.779(4)
H16D H 0.6872 0.5932 0.8538
C24D C 0.5335(5) 0.5863(4) 0.467(4)
C25D C 0.7272(5) 0.6363(5) 0.878(3)
H17D H 0.7176 0.6459 1.0185
C26D C 0.4948(5) 0.6567(5) 0.573(6)
C27D C 0.7726(5) 0.6395(4) 0.559(3)
H18D H 0.7935 0.6519 0.4797
C28D C 0.7011(5) 0.5013(5) 0.870(5)
H19D H 0.7188 0.5227 0.8969
H20D H 0.6942 0.4896 1.0151
H21D H 0.7147 0.4830 0.7729
C29D C 0.6301(6) 0.5823(5) 0.271(3)
H22D H 0.6280 0.5698 0.1237
H23D H 0.6081 0.6002 0.2886
H24D H 0.6557 0.5957 0.2800
C30D C 0.5044(6) 0.6031(5) 0.321(5)
H25D H 0.4977 0.5911 0.1817
C31D C 0.5230(7) 0.6403(5) 0.718(4)
H26D H 0.5295 0.6523 0.8574
C32D C 0.4855(6) 0.6373(6) 0.380(7)
H27D H 0.4655 0.6471 0.2815
C33D C 0.4726(8) 0.6950(5) 0.614(6)
O6D O 0.4550(7) 0.7087(5) 0.451(6)
Yb1_2 Yb 0.54371(4) 0.2500 -0.1199(6)
Yb1C Yb 0.45629(4) 0.7500 0.1199(6)
Yb1C_2 Yb 0.45629(4) 0.7500 1.1199(6)
O1G O 0.3521(5) 0.7996(3) 0.289(2)
O2A O 0.3080(3) 0.7042(3) 0.7376(19)
O2F O 0.3080(3) 0.7958(3) 0.7376(19)
O3A O 0.2647(4) 0.7047(3) 0.456(2)
O3F O 0.2647(4) 0.7953(3) 0.456(2)
O4C O 0.5945(4) 0.2096(3) 0.933(3)
O5_2 O 0.5181(5) 0.2933(5) 1.166(4)
O5G O 0.5181(5) 0.2067(5) 1.166(4)
O6G O 0.5450(7) 0.2087(5) 0.549(6)
Yb2A Yb 0.18115(4) 0.2500 -0.0537(2)
Yb2B Yb 0.81885(4) 0.7500 1.0537(2)
Yb2C Yb 0.68115(4) 0.2500 0.5537(2)
loop_
_geom_bond_atom_site_label_1
_geom_bond_atom_site_label_2
_geom_bond_site_symmetry_1
_geom_bond_site_symmetry_2
Yb1 O6 1_555 1_555
O1 C20 1_555 1_555
O2 C11 1_555 1_555
O3 C11 1_555 1_555
O4 C20 1_555 1_555
C1 H1 1_555 1_555
C2 C1 1_555 1_555
H2 C2 1_555 1_555
O5 C33 1_555 1_555
C3 H3 1_555 1_555
H4 C3 1_555 1_555
C4 C2 1_555 1_555
C5 C1 1_555 1_555
C6 C3 1_555 1_555
C7 C8 1_555 1_555
C8 C18 1_555 1_555
C9 C6 1_555 1_555
C10 C3 1_555 1_555
C11 C17 1_555 1_555
C12 C6 1_555 1_555
C13 C4 1_555 1_555
H5 C13 1_555 1_555
C14 C5 1_555 1_555
H6 C14 1_555 1_555
C15 C5 1_555 1_555
H7 C15 1_555 1_555
H8 C15 1_555 1_555
C16 C7 1_555 1_555
H9 C16 1_555 1_555
H10 C16 1_555 1_555
C17 C25 1_555 1_555
C18 C9 1_555 1_555
C19 C8 1_555 1_555
H11 C19 1_555 1_555
H12 C19 1_555 1_555
H13 C19 1_555 1_555
C20 C4 1_555 1_555
C21 C10 1_555 1_555
H14 C21 1_555 1_555
C22 H15 1_555 1_555
C23 C10 1_555 1_555
H16 C23 1_555 1_555
C24 C16 1_555 1_555
C25 C23 1_555 1_555
H17 C25 1_555 1_555
C26 C31 1_555 1_555
C27 C17 1_555 1_555
H18 C27 1_555 1_555
C28 C9 1_555 1_555
H19 C28 1_555 1_555
H20 C28 1_555 1_555
H21 C28 1_555 1_555
C29 C12 1_555 1_555
H22 C29 1_555 1_555
H23 C29 1_555 1_555
H24 C29 1_555 1_555
C30 C24 1_555 1_555
H25 C30 1_555 1_555
C31 C22 1_555 1_555
H26 C31 1_555 1_555
C32 C26 1_555 1_555
H27 C32 1_555 1_555
C33 C26 1_555 1_555
O6 C33 1_555 1_555
O7 Yb1 1_555 1_555
Yb2 O1 1_555 1_555
O8 Yb2 1_555 1_555
O9 Yb2 1_555 1_555
O1D C20D 1_555 1_555
O2D C11D 1_555 1_555
O3D C11D 1_555 1_555
O4D Yb1 1_555 1_555
C1D H1D 1_555 1_555
C2D C1D 1_555 1_555
H2D C2D 1_555 1_555
O5D C33D 1_555 1_555
C3D H3D 1_555 1_555
H4D C3D 1_555 1_555
C4D C2D 1_555 1_555
C5D C1D 1_555 1_555
C6D C3D 1_555 1_555
C7D C8D 1_555 1_555
C8D C18D 1_555 1_555
C9D C6D 1_555 1_555
C10D C3D 1_555 1_555
C11D C17D 1_555 1_555
C12D C6D 1_555 1_555
C13D C4D 1_555 1_555
H5D C13D 1_555 1_555
C14D C5D 1_555 1_555
H6D C14D 1_555 1_555
C15D C5D 1_555 1_555
H7D C15D 1_555 1_555
H8D C15D 1_555 1_555
C16D C7D 1_555 1_555
H9D C16D 1_555 1_555
H10D C16D 1_555 1_555
C17D C25D 1_555 1_555
C18D C9D 1_555 1_555
C19D C8D 1_555 1_555
H11D C19D 1_555 1_555
H12D C19D 1_555 1_555
H13D C19D 1_555 1_555
C20D O4D 1_555 1_555
C21D C10D 1_555 1_555
H14D C21D 1_555 1_555
C22D H15D 1_555 1_555
C23D C10D 1_555 1_555
H16D C23D 1_555 1_555
C24D C16D 1_555 1_555
C25D C23D 1_555 1_555
H17D C25D 1_555 1_555
C26D C31D 1_555 1_555
C27D C17D 1_555 1_555
H18D C27D 1_555 1_555
C28D C9D 1_555 1_555
H19D C28D 1_555 1_555
H20D C28D 1_555 1_555
H21D C28D 1_555 1_555
C29D C12D 1_555 1_555
H22D C29D 1_555 1_555
H23D C29D 1_555 1_555
H24D C29D 1_555 1_555
C30D C24D 1_555 1_555
H25D C30D 1_555 1_555
C31D C22D 1_555 1_555
H26D C31D 1_555 1_555
C32D C26D 1_555 1_555
H27D C32D 1_555 1_555
C33D C26D 1_555 1_555
O6D C33D 1_555 1_555
Yb1_2 O5 1_555 1_555
Yb1C O4 1_555 1_555
Yb1C_2 O5D 1_555 1_555
O1G Yb2 1_555 1_555
O2A Yb2 1_555 1_555
O2F Yb2 1_555 1_555
O3A Yb2 1_555 1_555
O3F Yb2 1_555 1_555
O4C Yb1 1_555 1_555
O5_2 Yb1 1_555 1_555
O5G Yb1 1_555 1_555
O6G Yb1 1_555 1_555
Yb2A O2 1_555 1_555
Yb2B O2D 1_555 1_555
Yb2C O1D 1_555 1_555
O3 Yb2A 1_555 1_555
C7 C12 1_555 1_555
C13 C14 1_555 1_555
C15 C18 1_555 1_555
C21 C27 1_555 1_555
C22 C24 1_555 1_555
C30 C32 1_555 1_555
O3D Yb2B 1_555 1_555
C4D C20D 1_555 1_555
C7D C12D 1_555 1_555
C13D C14D 1_555 1_555
C15D C18D 1_555 1_555
C21D C27D 1_555 1_555
C22D C24D 1_555 1_555
C30D C32D 1_555 1_555
O6D Yb1C 1_555 1_555

#END
