
#######################################################################
#
#                 Cambridge Crystallographic Data Centre
#                                CCDC 
#
#######################################################################
#
# If this CIF has been generated from an entry in the Cambridge 
# Structural Database, then it will include bibliographic, chemical, 
# crystal, experimental, refinement or atomic coordinate data resulting 
# from the CCDC's data processing and validation procedures.
#
#######################################################################

data_WUDXAV
_symmetry_cell_setting           triclinic
_symmetry_space_group_name_H-M   'P -1'
_symmetry_Int_Tables_number      2
_space_group_name_Hall           '-P 1'
loop_
_symmetry_equiv_pos_site_id
_symmetry_equiv_pos_as_xyz
1 x,y,z
2 -x,-y,-z
_cell_length_a                   6.5200(13)
_cell_length_b                   9.0600(18)
_cell_length_c                   10.968(2)
_cell_angle_alpha                111.55(3)
_cell_angle_beta                 92.07(3)
_cell_angle_gamma                95.03(3)
_cell_volume                     598.648
loop_
_atom_site_label
_atom_site_type_symbol
_atom_site_fract_x
_atom_site_fract_y
_atom_site_fract_z
Zn1 Zn 0.25434(9) 0.68542(7) 0.92013(5)
Zn2 Zn 0.40316(9) 1.05290(7) 0.88811(6)
O1 O 0.3171(5) 0.9290(4) 1.0110(3)
O2 O 0.2496(5) 0.6733(4) 1.7355(3)
O3 O 0.4037(5) 0.2918(4) 1.0562(3)
O4 O 0.1716(6) 0.4363(4) 0.8393(4)
H1 H 0.1531 0.3843 0.8894
H2 H 0.1571 0.3879 0.7564
O5 O 0.4367(6) 0.8755(4) 1.7067(3)
O6 O 0.5205(5) 0.8007(4) 1.2189(3)
O7 O 0.2392(6) 0.6515(4) 1.0987(3)
C1 C 0.3129(7) 0.6427(6) 1.5208(4)
C2 C 0.3360(7) 0.6173(6) 1.2950(5)
C3 C 0.2658(7) 0.4564(5) 1.2534(4)
O8 O 0.0871(6) 1.0462(5) 0.8347(4)
C4 C 0.3697(7) 0.6963(5) 1.1961(4)
C5 C 0.3632(7) 0.7101(5) 1.4281(4)
H3 H 0.4149 0.8171 1.4557
C6 C 0.2159(7) 0.3889(5) 1.3460(4)
H4 H 0.1687 0.2810 1.3184
C7 C 0.2365(7) 0.4822(5) 1.4782(5)
H5 H 0.1992 0.4376 1.5393
C8 C 0.2442(7) 0.3415(5) 1.1119(4)
O9 O 0.0665(5) 0.2905(4) 1.0566(3)
C9 C 0.3366(7) 0.7383(5) 1.6651(4)
H6 H 0.033(9) 1.119(5) 0.889(4)
H7 H 0.027(8) 1.039(7) 0.763(3)
H8 H 0.213(6) 0.950(7) 1.055(5)
Zn1_2 Zn 0.25434(9) 0.68542(7) 1.92013(5)
Zn1A Zn 0.74566(9) 0.31458(7) 1.07987(5)
Zn1A_2 Zn -0.25434(9) 0.31458(7) 1.07987(5)
Zn2A Zn 0.59684(9) 0.94710(7) 1.11189(6)
Zn2_2 Zn 0.40316(9) 0.05290(7) 0.88811(6)
Zn2_3 Zn 0.40316(9) 1.05290(7) 1.88811(6)
O1A O 0.6829(5) 1.0710(4) 0.9890(3)
O2_2 O 0.2496(5) 0.6733(4) 0.7355(3)
O3A O 0.5963(5) 0.7082(4) 0.9438(3)
O3_2 O 0.4037(5) 1.2918(4) 1.0562(3)
O5_2 O 0.4367(6) 0.8755(4) 0.7067(3)
O6A O 0.4795(5) 1.1993(4) 0.7811(3)
O9A O -0.0665(5) 0.7095(4) 0.9434(3)
H8A H 0.787(6) 1.050(7) 0.945(5)
O10 O -0.119(3) -0.149(2) 0.3867(14)
H9 H -0.1082 -0.1195 0.3218
H10 H -0.1685 -0.2436 0.3744
O11 O -0.1810(10) 0.9698(8) 0.6171(7)
H11 H -0.3067 0.9434 0.5878
H12 H -0.0991 1.0171 0.5813
loop_
_geom_bond_atom_site_label_1
_geom_bond_atom_site_label_2
_geom_bond_site_symmetry_1
_geom_bond_site_symmetry_2
Zn1 O1 1_555 1_555
Zn2 O1 1_555 1_555
O1 H8 1_555 1_555
O2 C9 1_555 1_555
O3 C8 1_555 1_555
O4 Zn1 1_555 1_555
H1 O4 1_555 1_555
H2 O4 1_555 1_555
O5 C9 1_555 1_555
O6 C4 1_555 1_555
O7 Zn1 1_555 1_555
C1 C5 1_555 1_555
C2 C3 1_555 1_555
C3 C6 1_555 1_555
O8 Zn2 1_555 1_555
C4 O7 1_555 1_555
C5 C2 1_555 1_555
H3 C5 1_555 1_555
C6 H4 1_555 1_555
C7 C1 1_555 1_555
H5 C7 1_555 1_555
C8 C3 1_555 1_555
O9 C8 1_555 1_555
C9 C1 1_555 1_555
H6 O8 1_555 1_555
H7 O8 1_555 1_555
O10 H9 1_555 1_555
H10 O10 1_555 1_555
O11 H11 1_555 1_555
H12 O11 1_555 1_555
Zn1_2 O2 1_555 1_555
Zn1A O3 1_555 1_555
Zn1A_2 O9 1_555 1_555
Zn2A O1 1_555 1_555
Zn2_2 O3 1_555 1_555
Zn2_3 O5 1_555 1_555
O1A Zn2 1_555 1_555
O2_2 Zn1 1_555 1_555
O3A Zn1 1_555 1_555
O3_2 Zn2 1_555 1_555
O5_2 Zn2 1_555 1_555
O6A Zn2 1_555 1_555
O9A Zn1 1_555 1_555
H8A O1A 1_555 1_555
O6 Zn2A 1_555 1_555
C2 C4 1_555 1_555
C6 C7 1_555 1_555
Zn2A O1A 1_555 1_555
Zn2A O3A 1_555 1_555

#END
