
#######################################################################
#
#                 Cambridge Crystallographic Data Centre
#                                CCDC 
#
#######################################################################
#
# If this CIF has been generated from an entry in the Cambridge 
# Structural Database, then it will include bibliographic, chemical, 
# crystal, experimental, refinement or atomic coordinate data resulting 
# from the CCDC's data processing and validation procedures.
#
#######################################################################

data_WUDXEZ
_symmetry_cell_setting           orthorhombic
_symmetry_space_group_name_H-M   'P b c a'
_symmetry_Int_Tables_number      61
_space_group_name_Hall           '-P 2ac 2ab'
loop_
_symmetry_equiv_pos_site_id
_symmetry_equiv_pos_as_xyz
1 x,y,z
2 1/2-x,-y,1/2+z
3 -x,1/2+y,1/2-z
4 1/2+x,1/2-y,-z
5 -x,-y,-z
6 1/2+x,y,1/2-z
7 x,1/2-y,1/2+z
8 1/2-x,1/2+y,z
_cell_length_a                   7.4040(15)
_cell_length_b                   7.4960(15)
_cell_length_c                   42.620(9)
_cell_angle_alpha                90
_cell_angle_beta                 90
_cell_angle_gamma                90
_cell_volume                     2365.43
loop_
_atom_site_label
_atom_site_type_symbol
_atom_site_fract_x
_atom_site_fract_y
_atom_site_fract_z
K1 K 0.37104(18) 0.14011(16) 0.47386(3)
Br1 Br 0.61760(9) 0.10331(9) 0.250808(16)
S1 S 0.58499(19) 0.62304(19) 0.45695(3)
O1 O 0.3943(6) 0.2277(6) 0.38445(10)
H1 H 0.4193 0.3295 0.3900
O2 O 0.4757(5) 0.4679(5) 0.44997(9)
O3 O 0.7266(6) 0.5896(5) 0.47995(9)
O4 O 0.4746(5) 0.7769(5) 0.46475(9)
N1 N 0.5327(7) 0.5418(7) 0.37998(12)
C1 C 0.5318(8) 0.3397(8) 0.33701(13)
C2 C 0.4440(8) 0.2047(8) 0.35435(14)
C3 C 0.4077(8) 0.0442(8) 0.33989(16)
H2 H 0.3496 -0.0455 0.3511
C4 C 0.4559(8) 0.0143(9) 0.30928(16)
H3 H 0.4303 -0.0947 0.2999
C5 C 0.5430(8) 0.1468(9) 0.29236(14)
C6 C 0.5802(8) 0.3078(8) 0.30631(14)
H4 H 0.6388 0.3964 0.2949
C7 C 0.5710(8) 0.5094(8) 0.35144(15)
H5 H 0.6260 0.5979 0.3395
C8 C 0.5814(8) 0.7107(8) 0.39407(13)
H6 H 0.4731 0.7730 0.4007
H7 H 0.6431 0.7845 0.3788
C9 C 0.7035(8) 0.6796(8) 0.42208(13)
H8 H 0.7737 0.7867 0.4259
H9 H 0.7873 0.5842 0.4171
K1D K 0.62896(18) -0.14011(16) 0.52614(3)
K1G K 0.12896(18) 0.64011(16) 0.47386(3)
K1C K 0.87104(18) 0.35989(16) 0.52614(3)
K1D_2 K 0.62896(18) 0.85989(16) 0.52614(3)
K1G_2 K 1.12896(18) 0.64011(16) 0.47386(3)
K1_2 K 0.37104(18) 1.14011(16) 0.47386(3)
O2G O 0.0243(5) -0.0321(5) 0.44997(9)
O3C O 0.2266(6) -0.0896(5) 0.52005(9)
O3D O 0.2734(6) 0.4104(5) 0.52005(9)
O3G O 0.7734(6) 0.0896(5) 0.47995(9)
O4_2 O 0.4746(5) -0.2231(5) 0.46475(9)
O4D O 0.5254(5) 0.2231(5) 0.53525(9)
O4G O 0.0254(5) 0.2769(5) 0.46475(9)
loop_
_geom_bond_atom_site_label_1
_geom_bond_atom_site_label_2
_geom_bond_site_symmetry_1
_geom_bond_site_symmetry_2
K1 O2 1_555 1_555
Br1 C5 1_555 1_555
S1 O2 1_555 1_555
O1 H1 1_555 1_555
O2 K1G 1_555 1_555
O3 S1 1_555 1_555
O4 S1 1_555 1_555
N1 C7 1_555 1_555
C1 C2 1_555 1_555
C2 O1 1_555 1_555
C3 C2 1_555 1_555
H2 C3 1_555 1_555
C4 C3 1_555 1_555
H3 C4 1_555 1_555
C5 C4 1_555 1_555
C6 C1 1_555 1_555
H4 C6 1_555 1_555
C7 C1 1_555 1_555
H5 C7 1_555 1_555
C8 N1 1_555 1_555
H6 C8 1_555 1_555
H7 C8 1_555 1_555
C9 S1 1_555 1_555
H8 C9 1_555 1_555
H9 C9 1_555 1_555
K1D O3C 1_555 1_555
K1G O4 1_555 1_555
K1C O3 1_555 1_555
K1D_2 O3 1_555 1_555
K1G_2 O3 1_555 1_555
K1_2 O4 1_555 1_555
O2G K1 1_555 1_555
O3C K1 1_555 1_555
O3D K1 1_555 1_555
O3G K1 1_555 1_555
O4_2 K1 1_555 1_555
O4D K1 1_555 1_555
O4G K1 1_555 1_555
O4 K1D_2 1_555 1_555
C5 C6 1_555 1_555
C8 C9 1_555 1_555
K1D O3G 1_555 1_555
K1D O4_2 1_555 1_555
K1D O4D 1_555 1_555
K1G O3D 1_555 1_555
K1G O4G 1_555 1_555
K1C O3G 1_555 1_555
K1C O4D 1_555 1_555

#END
