
#######################################################################
#
#                 Cambridge Crystallographic Data Centre
#                                CCDC 
#
#######################################################################
#
# If this CIF has been generated from an entry in the Cambridge 
# Structural Database, then it will include bibliographic, chemical, 
# crystal, experimental, refinement or atomic coordinate data resulting 
# from the CCDC's data processing and validation procedures.
#
#######################################################################

data_WUDYAW01
_symmetry_cell_setting           monoclinic
_symmetry_space_group_name_H-M   'C 2/c'
_symmetry_Int_Tables_number      15
_space_group_name_Hall           '-C 2yn'
loop_
_symmetry_equiv_pos_site_id
_symmetry_equiv_pos_as_xyz
1 x,y,z
2 -x,y,1/2-z
3 1/2+x,1/2+y,z
4 1/2-x,1/2+y,1/2-z
5 -x,-y,-z
6 x,-y,1/2+z
7 1/2-x,1/2-y,-z
8 1/2+x,1/2-y,1/2+z
_cell_length_a                   21.099(2)
_cell_length_b                   12.0022(12)
_cell_length_c                   7.5739(8)
_cell_angle_alpha                90
_cell_angle_beta                 98.0770(10)
_cell_angle_gamma                90
_cell_volume                     1898.95
loop_
_atom_site_label
_atom_site_type_symbol
_atom_site_fract_x
_atom_site_fract_y
_atom_site_fract_z
Co1 Co 0.5000 0.34475(3) 0.2500
P1 P 0.41489(2) 0.57324(4) 0.07309(5)
O1 O 0.43492(6) 0.65125(10) -0.06346(16)
O2 O 0.42494(6) 0.63360(10) 0.25908(16)
H1 H 0.4339 0.5874 0.3384
O3 O 0.44413(6) 0.45754(10) 0.08274(15)
N1 N 0.44407(7) 0.20432(12) 0.14030(18)
C1 C 0.47137(10) -0.10113(15) 0.1965(2)
H2 H 0.4521 -0.1685 0.1599
C2 C 0.44026(9) 0.00151(15) 0.1392(2)
C3 C 0.38021(9) 0.00625(16) 0.0301(2)
H3 H 0.3587 -0.0590 -0.0074
C4 C 0.35407(9) 0.10750(17) -0.0197(2)
H4 H 0.3144 0.1117 -0.0907
C5 C 0.38748(8) 0.20511(16) 0.0373(2)
H5 H 0.3693 0.2734 0.0014
C6 C 0.46965(8) 0.10378(14) 0.1923(2)
C7 C 0.32904(8) 0.54969(15) 0.0229(2)
H6 H 0.3205 0.5105 -0.0899
H7 H 0.3161 0.5013 0.1141
C8 C 0.28812(8) 0.65278(15) 0.0118(2)
C9 C 0.25229(9) 0.68091(16) 0.1468(2)
H8 H 0.2535 0.6349 0.2460
C10 C 0.28514(8) 0.72354(15) -0.1354(2)
H9 H 0.3085 0.7064 -0.2271
P1F P 0.08511(2) 0.92676(4) -0.07309(5)
O1F O 0.06508(6) 0.84875(10) 0.06346(16)
O2F O 0.07506(6) 0.86640(10) -0.25908(16)
H1F H 0.0661 0.9126 -0.3384
O3F O 0.05587(6) 1.04246(10) -0.08274(15)
C7F C 0.17096(8) 0.95031(15) -0.0229(2)
H6F H 0.1795 0.9895 0.0899
H7F H 0.1839 0.9987 -0.1141
C8F C 0.21188(8) 0.84722(15) -0.0118(2)
C9F C 0.24771(9) 0.81909(16) -0.1468(2)
H8F H 0.2465 0.8651 -0.2460
C10F C 0.21486(8) 0.77646(15) 0.1354(2)
H9F H 0.1915 0.7936 0.2271
N1A N 0.55593(7) 0.20432(12) 0.35970(18)
C1A C 0.52863(10) -0.10113(15) 0.3035(2)
H2A H 0.5479 -0.1685 0.3401
C2A C 0.55974(9) 0.00151(15) 0.3608(2)
C3A C 0.61979(9) 0.00625(16) 0.4699(2)
H3A H 0.6413 -0.0590 0.5074
C4A C 0.64593(9) 0.10750(17) 0.5197(2)
H4A H 0.6856 0.1117 0.5907
C5A C 0.61252(8) 0.20511(16) 0.4627(2)
H5A H 0.6307 0.2734 0.4986
C6A C 0.53035(8) 0.10378(14) 0.3077(2)
Co1B Co 0.0000 0.84475(3) 0.2500
Co1D Co 0.5000 0.65525(3) -0.2500
Co1F Co 0.0000 1.15525(3) -0.2500
O1D O 0.56508(6) 0.34875(10) 0.06346(16)
O1E O 0.43492(6) 0.34875(10) 0.43654(16)
O3A O 0.55587(6) 0.45754(10) 0.41726(15)
loop_
_geom_bond_atom_site_label_1
_geom_bond_atom_site_label_2
_geom_bond_site_symmetry_1
_geom_bond_site_symmetry_2
Co1 O3 1_555 1_555
P1 O1 1_555 1_555
O1 Co1D 1_555 1_555
O2 P1 1_555 1_555
H1 O2 1_555 1_555
O3 P1 1_555 1_555
N1 Co1 1_555 1_555
C1 H2 1_555 1_555
C2 C1 1_555 1_555
C3 C2 1_555 1_555
H3 C3 1_555 1_555
C4 C3 1_555 1_555
H4 C4 1_555 1_555
C5 N1 1_555 1_555
H5 C5 1_555 1_555
C6 N1 1_555 1_555
C7 P1 1_555 1_555
H6 C7 1_555 1_555
H7 C7 1_555 1_555
C8 C7 1_555 1_555
C9 C8 1_555 1_555
H8 C9 1_555 1_555
C10 C8 1_555 1_555
H9 C10 1_555 1_555
P1F O1F 1_555 1_555
O1F Co1B 1_555 1_555
O2F P1F 1_555 1_555
H1F O2F 1_555 1_555
O3F P1F 1_555 1_555
C7F P1F 1_555 1_555
H6F C7F 1_555 1_555
H7F C7F 1_555 1_555
C8F C7F 1_555 1_555
C9F C10 1_555 1_555
H8F C9F 1_555 1_555
C10F C9 1_555 1_555
H9F C10F 1_555 1_555
N1A Co1 1_555 1_555
C1A C1 1_555 1_555
H2A C1A 1_555 1_555
C2A C1A 1_555 1_555
C3A C2A 1_555 1_555
H3A C3A 1_555 1_555
C4A C3A 1_555 1_555
H4A C4A 1_555 1_555
C5A N1A 1_555 1_555
H5A C5A 1_555 1_555
C6A C6 1_555 1_555
Co1F O3F 1_555 1_555
O1D Co1 1_555 1_555
O1E Co1 1_555 1_555
O3A Co1 1_555 1_555
C2 C6 1_555 1_555
C4 C5 1_555 1_555
C8F C9F 1_555 1_555
C8F C10F 1_555 1_555
N1A C6A 1_555 1_555
C2A C6A 1_555 1_555
C4A C5A 1_555 1_555

#END
