
#######################################################################
#
#                 Cambridge Crystallographic Data Centre
#                                CCDC 
#
#######################################################################
#
# If this CIF has been generated from an entry in the Cambridge 
# Structural Database, then it will include bibliographic, chemical, 
# crystal, experimental, refinement or atomic coordinate data resulting 
# from the CCDC's data processing and validation procedures.
#
#######################################################################

data_WUDYAW
_symmetry_cell_setting           monoclinic
_symmetry_space_group_name_H-M   'C 2/c'
_symmetry_Int_Tables_number      15
_space_group_name_Hall           '-C 2yn'
loop_
_symmetry_equiv_pos_site_id
_symmetry_equiv_pos_as_xyz
1 x,y,z
2 -x,y,1/2-z
3 1/2+x,1/2+y,z
4 1/2-x,1/2+y,1/2-z
5 -x,-y,-z
6 x,-y,1/2+z
7 1/2-x,1/2-y,-z
8 1/2+x,1/2-y,1/2+z
_cell_length_a                   21.169(4)
_cell_length_b                   12.001(2)
_cell_length_c                   7.6211(15)
_cell_angle_alpha                90
_cell_angle_beta                 98.03(3)
_cell_angle_gamma                90
_cell_volume                     1917.15
loop_
_atom_site_label
_atom_site_type_symbol
_atom_site_fract_x
_atom_site_fract_y
_atom_site_fract_z
Co1 Co 0.0000 0.15446(4) 0.7500
P1 P 0.08516(3) 0.07332(5) 0.42766(9)
O1 O 0.06433(9) 0.15079(16) 0.5616(3)
O2 O 0.07608(11) 0.13367(16) 0.2436(3)
H1 H 0.0640(17) 0.096(3) 0.153(3)
O3 O 0.05614(9) -0.04188(15) 0.4160(2)
N1 N -0.05588(11) 0.29523(18) 0.6423(3)
C1 C -0.03026(14) 0.3955(2) 0.6932(4)
C2 C -0.05957(17) 0.4980(3) 0.6414(4)
C3 C -0.0287(2) 0.6008(2) 0.6973(5)
C4 C -0.11921(19) 0.4928(3) 0.5334(5)
H2 H -0.1411 0.5594 0.4947
C5 C -0.14542(17) 0.3920(3) 0.4847(5)
H3 H -0.1859 0.3878 0.4133
C6 C -0.11219(14) 0.2945(3) 0.5406(4)
H4 H -0.1308 0.2248 0.5041
C7 C 0.17057(12) 0.0510(2) 0.4790(4)
H5 H 0.1790 0.0115 0.5940
H6 H 0.1840 0.0011 0.3876
C8 C 0.21152(13) 0.1538(2) 0.4896(4)
C9 C 0.21529(15) 0.2246(3) 0.6339(4)
H7 H 0.1915 0.2082 0.7276
C10 C 0.24681(15) 0.1808(3) 0.3562(4)
H8 H 0.2451 0.1336 0.2556
Co1B Co 0.5000 0.65446(4) 0.7500
Co1D Co 0.0000 -0.15446(4) 0.2500
Co1F Co 0.5000 0.34554(4) 0.2500
P1F P 0.41484(3) 0.42668(5) 0.57234(9)
O1F O 0.43567(9) 0.34921(16) 0.4384(3)
O1A O -0.06433(9) 0.15079(16) 0.9384(3)
O2F O 0.42392(11) 0.36633(16) 0.7564(3)
H1F H 0.4360(17) 0.404(3) 0.847(3)
O3F O 0.44386(9) 0.54188(15) 0.5840(2)
O3D O -0.05614(9) 0.04188(15) 0.5840(2)
O3E O 0.05614(9) 0.04188(15) 0.9160(2)
N1A N 0.05588(11) 0.29523(18) 0.8577(3)
C1A C 0.03026(14) 0.3955(2) 0.8068(4)
C2A C 0.05957(17) 0.4980(3) 0.8586(4)
C3A C 0.0287(2) 0.6008(2) 0.8027(5)
C4A C 0.11921(19) 0.4928(3) 0.9666(5)
H2A H 0.1411 0.5594 1.0053
C5A C 0.14542(17) 0.3920(3) 1.0153(5)
H3A H 0.1859 0.3878 1.0867
C6A C 0.11219(14) 0.2945(3) 0.9594(4)
H4A H 0.1308 0.2248 0.9959
C7F C 0.32943(12) 0.4490(2) 0.5210(4)
H5F H 0.3210 0.4885 0.4060
H6F H 0.3160 0.4989 0.6124
C8F C 0.28848(13) 0.3462(2) 0.5104(4)
C9F C 0.28471(15) 0.2754(3) 0.3661(4)
H7F H 0.3085 0.2918 0.2724
C10F C 0.25319(15) 0.3192(3) 0.6438(4)
H8F H 0.2549 0.3664 0.7444
loop_
_geom_bond_atom_site_label_1
_geom_bond_atom_site_label_2
_geom_bond_site_symmetry_1
_geom_bond_site_symmetry_2
Co1 O1 1_555 1_555
P1 O1 1_555 1_555
O2 P1 1_555 1_555
H1 O2 1_555 1_555
O3 P1 1_555 1_555
N1 Co1 1_555 1_555
C1 N1 1_555 1_555
C2 C1 1_555 1_555
C3 C2 1_555 1_555
C4 C2 1_555 1_555
H2 C4 1_555 1_555
C5 C4 1_555 1_555
H3 C5 1_555 1_555
C6 N1 1_555 1_555
H4 C6 1_555 1_555
C7 P1 1_555 1_555
H5 C7 1_555 1_555
H6 C7 1_555 1_555
C8 C7 1_555 1_555
C9 C8 1_555 1_555
H7 C9 1_555 1_555
C10 C8 1_555 1_555
H8 C10 1_555 1_555
Co1B O3F 1_555 1_555
Co1D O3 1_555 1_555
Co1F O1F 1_555 1_555
P1F O1F 1_555 1_555
O1A Co1 1_555 1_555
O2F P1F 1_555 1_555
H1F O2F 1_555 1_555
O3F P1F 1_555 1_555
O3D Co1 1_555 1_555
O3E Co1 1_555 1_555
N1A Co1 1_555 1_555
C1A C1 1_555 1_555
C2A C1A 1_555 1_555
C3A C3 1_555 1_555
C4A C2A 1_555 1_555
H2A C4A 1_555 1_555
C5A C4A 1_555 1_555
H3A C5A 1_555 1_555
C6A N1A 1_555 1_555
H4A C6A 1_555 1_555
C7F P1F 1_555 1_555
H5F C7F 1_555 1_555
H6F C7F 1_555 1_555
C8F C7F 1_555 1_555
C9F C10 1_555 1_555
H7F C9F 1_555 1_555
C10F C9 1_555 1_555
H8F C10F 1_555 1_555
C5 C6 1_555 1_555
N1A C1A 1_555 1_555
C2A C3A 1_555 1_555
C5A C6A 1_555 1_555
C8F C9F 1_555 1_555
C8F C10F 1_555 1_555

#END
