
#######################################################################
#
#                 Cambridge Crystallographic Data Centre
#                                CCDC 
#
#######################################################################
#
# If this CIF has been generated from an entry in the Cambridge 
# Structural Database, then it will include bibliographic, chemical, 
# crystal, experimental, refinement or atomic coordinate data resulting 
# from the CCDC's data processing and validation procedures.
#
#######################################################################

data_WUDZOM
_symmetry_cell_setting           monoclinic
_symmetry_space_group_name_H-M   'C 2'
_symmetry_Int_Tables_number      5
_space_group_name_Hall           'C 2y'
loop_
_symmetry_equiv_pos_site_id
_symmetry_equiv_pos_as_xyz
1 x,y,z
2 -x,y,-z
3 1/2+x,1/2+y,z
4 1/2-x,1/2+y,-z
_cell_length_a                   34.4391(11)
_cell_length_b                   15.0959(3)
_cell_length_c                   29.9556(10)
_cell_angle_alpha                90
_cell_angle_beta                 101.454(3)
_cell_angle_gamma                90
_cell_volume                     15263.4
loop_
_atom_site_label
_atom_site_type_symbol
_atom_site_fract_x
_atom_site_fract_y
_atom_site_fract_z
Zn1 Zn 0.57772(9) 0.2662(2) 0.84554(9)
Zn2 Zn 0.36566(9) 0.9727(2) 0.70934(15)
Zn3 Zn 0.08164(8) 1.00737(19) 0.34312(8)
Zn4 Zn -0.13160(9) 0.2929(2) 0.20486(15)
Zn5 Zn 0.17805(18) 0.5281(2) 0.0268(2)
Zn6 Zn 0.1697(5) 0.2452(12) 0.5182(4)
I1 I 0.61283(19) 0.1512(4) 0.8033(3)
I2 I 0.5242(3) 0.2377(5) 0.8899(4)
I3 I 0.3411(3) 0.9137(7) 0.7870(3)
I4 I 0.3681(2) 1.1275(3) 0.6943(4)
I5 I 0.2294(3) 0.1514(5) 0.5475(3)
I6 I 0.1268(3) 0.2348(6) 0.43943(19)
I7 I 0.02972(19) 1.0383(4) 0.3906(2)
I8 I 0.1198(5) 1.1176(7) 0.3026(3)
I9 I -0.1612(8) 0.339(2) 0.2850(10)
I10 I -0.1126(10) 0.1517(13) 0.1668(10)
I11 I 0.1475(9) 0.5705(10) -0.0455(7)
I12 I 0.2500(6) 0.6039(8) 0.0703(11)
N1 N 0.5611(5) 0.3647(11) 0.7983(6)
C1 C 0.5294(5) 0.4198(14) 0.8003(7)
H1 H 0.5118 0.4065 0.8202
C2 C 0.5233(6) 0.4958(14) 0.7726(7)
H2 H 0.5017 0.5343 0.7740
C3 C 0.5485(5) 0.5148(11) 0.7434(6)
C4 C 0.5784(7) 0.4596(15) 0.7417(8)
H3 H 0.5953 0.4704 0.7207
C5 C 0.5849(8) 0.3891(19) 0.7692(9)
H4 H 0.6076 0.3539 0.7684
N2 N 0.4172(5) 0.8999(11) 0.7074(8)
C6 C 0.4346(10) 0.898(3) 0.6669(12)
H5 H 0.4244 0.9337 0.6413
C7 C 0.4624(9) 0.8492(18) 0.6668(10)
H6 H 0.4738 0.8526 0.6405
C8 C 0.4796(5) 0.7905(12) 0.6989(6)
C9 C 0.4315(7) 0.8431(16) 0.7407(9)
H7 H 0.4195 0.8391 0.7667
C10 C 0.4630(6) 0.7908(18) 0.7379(7)
H8 H 0.4740 0.7538 0.7629
N3 N 0.6355(5) 0.7279(12) 0.5662(7)
C11 C 0.6410(11) 0.659(2) 0.5941(12)
H9 H 0.6587 0.6144 0.5882
C12 C 0.6212(11) 0.646(2) 0.6353(15)
H10 H 0.6302 0.6078 0.6606
C13 C 0.5858(6) 0.7019(13) 0.6281(9)
C14 C 0.5775(7) 0.7621(18) 0.5946(8)
H11 H 0.5531 0.7935 0.5902
C15 C 0.6035(7) 0.7787(16) 0.5667(9)
H12 H 0.5988 0.8283 0.5468
C16 C 0.5438(5) 0.5981(12) 0.7150(6)
N4 N 0.5151(5) 0.6571(11) 0.7235(5)
C17 C 0.5118(5) 0.7265(12) 0.6958(5)
N5 N 0.5328(4) 0.7438(11) 0.6630(5)
C18 C 0.5589(5) 0.6829(12) 0.6593(6)
N6 N 0.5663(4) 0.6099(9) 0.6857(5)
N7 N 0.3264(5) 0.9120(11) 0.6580(7)
C19 C 0.3199(6) 0.8230(14) 0.6628(9)
H13 H 0.3331 0.7922 0.6892
C20 C 0.2938(7) 0.7781(13) 0.6284(8)
H14 H 0.2921 0.7153 0.6293
C21 C 0.2703(4) 0.8244(12) 0.5928(6)
C22 C 0.2765(6) 0.9139(12) 0.5917(8)
H15 H 0.2619 0.9481 0.5674
C23 C 0.3028(6) 0.9539(14) 0.6242(9)
H16 H 0.3049 1.0166 0.6230
N8 N 0.1856(6) 0.3799(10) 0.5267(6)
C24 C 0.1655(9) 0.4335(16) 0.4980(10)
H17 H 0.1446 0.4093 0.4759
C25 C 0.1719(11) 0.5226(17) 0.4966(8)
H18 H 0.1570 0.5572 0.4727
C26 C 0.1995(6) 0.5621(13) 0.5296(7)
C27 C 0.2222(9) 0.5064(16) 0.5629(13)
H19 H 0.2437 0.5295 0.5845
C28 C 0.2117(10) 0.4125(14) 0.5634(11)
H20 H 0.2227 0.3755 0.5884
N9 N 0.1235(5) 0.9371(11) 0.3886(6)
C29 C 0.1228(8) 0.8491(14) 0.3875(9)
H21 H 0.1048 0.8207 0.3636
C30 C 0.1478(8) 0.7952(15) 0.4208(10)
H22 H 0.1495 0.7329 0.4169
C31 C 0.1704(5) 0.8387(12) 0.4600(7)
C32 C 0.1752(6) 0.9295(15) 0.4543(7)
H23 H 0.1949 0.9623 0.4744
C33 C 0.1497(7) 0.9707(15) 0.4175(7)
H24 H 0.1532 1.0327 0.4147
C34 C 0.2406(5) 0.7781(11) 0.5586(7)
N10 N 0.2359(4) 0.6924(9) 0.5633(5)
C35 C 0.2069(6) 0.6587(13) 0.5306(7)
N11 N 0.1844(4) 0.7018(9) 0.4969(5)
C36 C 0.1935(5) 0.7877(11) 0.4946(7)
N12 N 0.2215(4) 0.8294(9) 0.5244(6)
N13 N 0.0621(4) 0.9041(11) 0.2972(5)
C37 C 0.0357(5) 0.8485(13) 0.3007(6)
H25 H 0.0204 0.8607 0.3231
C38 C 0.0264(5) 0.7731(13) 0.2761(6)
H26 H 0.0052 0.7356 0.2804
C39 C 0.0497(5) 0.7539(14) 0.2441(6)
C40 C 0.0778(7) 0.8165(16) 0.2372(7)
H27 H 0.0931 0.8086 0.2143
C41 C 0.0827(6) 0.8920(12) 0.2656(8)
H28 H 0.1017 0.9355 0.2615
N14 N -0.0813(6) 0.3683(14) 0.2055(7)
C42 C -0.0664(8) 0.3675(15) 0.1730(10)
H29 H -0.0768 0.3259 0.1499
C43 C -0.0330(7) 0.425(2) 0.1642(10)
H30 H -0.0220 0.4233 0.1376
C44 C -0.0207(5) 0.4831(12) 0.2021(8)
C45 C -0.0360(6) 0.4812(14) 0.2375(8)
H31 H -0.0263 0.5192 0.2625
C46 C -0.0670(6) 0.4227(15) 0.2391(9)
H32 H -0.0782 0.4220 0.2656
N15 N 0.1412(8) 0.5420(13) 0.0732(9)
C47 C 0.1073(10) 0.5045(19) 0.0667(9)
H33 H 0.0995 0.4693 0.0401
C48 C 0.0810(8) 0.5124(17) 0.0964(8)
H34 H 0.0584 0.4753 0.0937
C49 C 0.0891(6) 0.5757(12) 0.1295(7)
C50 C 0.1248(7) 0.6148(15) 0.1348(9)
H35 H 0.1310 0.6582 0.1582
C51 C 0.1513(9) 0.5987(18) 0.1112(11)
H36 H 0.1769 0.6243 0.1190
C52 C 0.0444(5) 0.6701(12) 0.2183(6)
N16 N 0.0172(4) 0.6148(10) 0.2237(5)
C53 C 0.0123(5) 0.5460(13) 0.1956(6)
N17 N 0.0333(4) 0.5270(10) 0.1657(6)
C54 C 0.0638(6) 0.5878(12) 0.1649(7)
N18 N 0.0690(5) 0.6616(11) 0.1890(5)
N19 N 0.1905(8) 0.3942(14) 0.0308(11)
C55 C 0.2179(10) 0.357(2) 0.0561(12)
H37 H 0.2383 0.3934 0.0724
C56 C 0.2219(9) 0.2701(16) 0.0629(10)
H38 H 0.2404 0.2493 0.0886
C57 C 0.2010(6) 0.2116(13) 0.0352(8)
C58 C 0.1726(8) 0.2503(16) -0.0004(9)
H39 H 0.1564 0.2153 -0.0231
C59 C 0.1699(12) 0.3427(19) -0.0002(11)
H40 H 0.1518 0.3700 -0.0244
N20 N 0.1200(5) -0.1623(10) -0.1108(6)
C60 C 0.1133(10) -0.0769(19) -0.0985(12)
H41 H 0.0903 -0.0482 -0.1148
C61 C 0.1357(8) -0.0322(13) -0.0666(10)
H42 H 0.1296 0.0280 -0.0619
C62 C 0.1663(5) -0.0682(12) -0.0407(7)
C63 C 0.1721(7) -0.1567(14) -0.0458(9)
H43 H 0.1922 -0.1864 -0.0247
C64 C 0.1495(7) -0.2037(14) -0.0807(8)
H44 H 0.1544 -0.2650 -0.0841
N21 N 0.3280(5) -0.1405(12) 0.1564(7)
C65 C 0.3070(6) -0.1843(15) 0.1207(9)
H45 H 0.3121 -0.2456 0.1173
C66 C 0.2776(6) -0.1428(15) 0.0880(10)
H46 H 0.2631 -0.1742 0.0625
C67 C 0.2708(5) -0.0539(12) 0.0947(8)
C68 C 0.2924(6) -0.0093(14) 0.1318(8)
H47 H 0.2873 0.0508 0.1381
C69 C 0.3221(8) -0.0581(15) 0.1594(8)
H48 H 0.3396 -0.0268 0.1826
C70 C 0.2063(5) 0.1152(12) 0.0332(7)
N22 N 0.1818(5) 0.0684(11) 0.0037(7)
C71 C 0.1907(5) -0.0171(12) -0.0001(7)
N23 N 0.2205(4) -0.0585(10) 0.0263(5)
C72 C 0.2406(5) -0.0090(12) 0.0598(7)
N24 N 0.2353(5) 0.0793(10) 0.0650(7)
Zn1B Zn 0.07772(9) -0.2338(2) -0.15446(9)
Zn4B Zn 0.36840(9) -0.2071(2) 0.20486(15)
Zn6B Zn 0.6697(5) 0.7452(12) 0.5182(4)
N3B N 0.1355(5) 0.2279(12) 0.5662(7)
N20B N 0.6200(5) 0.3377(10) 0.8892(6)
N21B N -0.1720(5) 0.3595(12) 0.1564(7)
S1 S 0.1038(6) 0.2274(11) 0.0912(5)
C73 C 0.084(2) 0.169(2) 0.1309(19)
C74 C 0.0864(11) 0.078(2) 0.1281(11)
C75 C 0.1078(8) 0.056(2) 0.0928(11)
C76 C 0.108(2) 0.131(2) 0.0635(16)
H49 H 0.1098 0.1266 0.0324
C77 C 0.1182(10) -0.033(2) 0.0818(12)
C78 C 0.0976(11) -0.070(3) 0.0414(12)
C79 C 0.1078(13) -0.153(3) 0.0278(13)
H50 H 0.0937 -0.1782 0.0001
C80 C 0.1386(13) -0.200(2) 0.0545(15)
H51 H 0.1455 -0.2571 0.0452
C81 C 0.1592(10) -0.164(2) 0.0949(13)
C82 C 0.1490(9) -0.080(2) 0.1086(11)
C83 C 0.1696(11) -0.044(3) 0.1490(12)
H52 H 0.1627 0.0133 0.1583
C84 C 0.2004(12) -0.091(4) 0.1758(14)
H53 H 0.2145 -0.0656 0.2034
C85 C 0.2106(12) -0.174(4) 0.1621(16)
H54 H 0.2317 -0.2061 0.1804
C86 C 0.1900(12) -0.211(3) 0.1217(17)
H55 H 0.1969 -0.2675 0.1124
C87 C 0.0635(17) 0.216(4) 0.1639(17)
H56 H 0.0656 0.2805 0.1598
H57 H 0.0355 0.1992 0.1582
H58 H 0.0761 0.2004 0.1951
C88 C 0.0707(18) 0.008(3) 0.1562(17)
H59 H 0.0771 -0.0510 0.1461
H60 H 0.0830 0.0157 0.1884
H61 H 0.0419 0.0143 0.1524
C89 C 0.0647(13) -0.019(4) 0.0125(16)
H62 H 0.0729 0.0435 0.0190
C90 C 0.0240(15) -0.023(9) 0.026(3)
H63 H 0.0149 -0.0847 0.0257
H64 H 0.0263 0.0008 0.0572
C91 C 0.062(2) -0.026(8) -0.0393(15)
H65 H 0.0394 0.0089 -0.0550
H66 H 0.0864 -0.0040 -0.0471
H67 H 0.0581 -0.0885 -0.0487
C92 C 0.6652(17) 1.265(5) 0.665(3)
H68 H 0.6892 1.2996 0.6633
H69 H 0.6633 1.2597 0.6972
C93 C 0.6288(18) 1.317(3) 0.640(3)
H70 H 0.6241 1.3678 0.6585
H71 H 0.6345 1.3401 0.6107
C94 C 0.5910(14) 1.260(4) 0.629(2)
H72 H 0.5775 1.2652 0.6551
H73 H 0.5732 1.2867 0.6023
C95 C 0.5944(16) 1.161(4) 0.619(3)
H74 H 0.5758 1.1471 0.5900
H75 H 0.5856 1.1269 0.6433
C96 C 0.636(2) 1.126(4) 0.615(3)
H76 H 0.6369 1.0617 0.6212
H77 H 0.6391 1.1342 0.5829
C97 C 0.6704(17) 1.171(5) 0.646(3)
H78 H 0.6928 1.1735 0.6301
H79 H 0.6787 1.1318 0.6731
Zn7? Zn 0.1783(7) 0.2412(12) 0.5286(8)
I13? I 0.6153(4) 0.1524(8) 0.8143(7)
I14? I 0.5185(5) 0.2442(9) 0.8807(5)
I15? I 0.3469(2) 0.9565(10) 0.7777(3)
I16? I 0.3826(3) 1.1233(2) 0.6657(5)
I17? I 0.2424(5) 0.1575(7) 0.5670(9)
I18? I 0.1395(5) 0.2035(10) 0.4485(6)
I19? I 0.0223(8) 1.0238(16) 0.3837(6)
I20? I 0.1096(4) 1.1252(10) 0.3041(6)
I21? I -0.1501(5) 0.3156(11) 0.2783(4)
I22? I -0.1227(4) 0.1403(6) 0.1740(4)
I23? I 0.1275(4) 0.5442(7) -0.0583(3)
I24? I 0.2319(4) 0.6150(5) 0.0477(4)
S2? S 0.4958(8) 1.0799(15) 0.6325(5)
C98? C 0.4595(17) 1.097(6) 0.5848(12)
C99? C 0.4653(13) 1.053(3) 0.5459(9)
C100? C 0.5048(16) 1.012(5) 0.5540(10)
C101? C 0.5232(14) 1.024(5) 0.5999(12)
H80? H 0.5491 1.0022 0.6120
C102? C 0.5178(6) 0.9734(12) 0.5136(6)
C103? C 0.5432(7) 1.0211(13) 0.4919(7)
C104? C 0.5639(6) 0.9781(15) 0.4628(7)
H81? H 0.5812 1.0107 0.4480
C105? C 0.5591(6) 0.8875(15) 0.4555(7)
H82? H 0.5733 0.8582 0.4356
C106? C 0.5338(5) 0.8398(12) 0.4772(5)
C107? C 0.5131(4) 0.8828(12) 0.5063(5)
C108? C 0.4877(6) 0.8351(14) 0.5280(6)
H83? H 0.4736 0.8644 0.5479
C109? C 0.4830(6) 0.7444(14) 0.5207(6)
H84? H 0.4656 0.7118 0.5355
C110? C 0.5037(7) 0.7015(12) 0.4916(7)
H85? H 0.5004 0.6396 0.4865
C111? C 0.5291(7) 0.7492(13) 0.4699(6)
H86? H 0.5432 0.7199 0.4500
C112? C 0.4193(16) 1.133(6) 0.588(2)
H87? H 0.4208 1.1614 0.6180
H88? H 0.4109 1.1769 0.5641
H89? H 0.4000 1.0847 0.5848
C113? C 0.4385(19) 1.051(5) 0.4995(13)
H90? H 0.4508 1.0146 0.4789
H91? H 0.4129 1.0251 0.5020
H92? H 0.4345 1.1112 0.4873
C114? C 0.5489(11) 1.1199(16) 0.4991(11)
H93? H 0.5262 1.1457 0.5110
C115? C 0.549(3) 1.155(5) 0.4503(14)
H94? H 0.5521 1.2190 0.4511
H95? H 0.5702 1.1268 0.4384
H96? H 0.5232 1.1397 0.4305
C116? C 0.5885(16) 1.146(4) 0.530(2)
H97? H 0.5900 1.2103 0.5334
H98? H 0.5900 1.1189 0.5604
H99? H 0.6105 1.1242 0.5170
C117? C 0.0323(15) 0.436(2) -0.0253(18)
H100? H 0.0530 0.4508 0.0015
H101? H 0.0238 0.4913 -0.0420
C118? C -0.0032(19) 0.395(4) -0.009(3)
H102? H -0.0261 0.3930 -0.0347
H103? H -0.0105 0.4342 0.0148
C119? C 0.005(3) 0.302(4) 0.011(3)
H104? H -0.0198 0.2763 0.0172
H105? H 0.0245 0.3052 0.0398
C120? C 0.021(2) 0.240(3) -0.022(3)
H106? H 0.0285 0.1822 -0.0074
H107? H 0.0004 0.2294 -0.0497
C121? C 0.0578(16) 0.280(3) -0.037(2)
H108? H 0.0800 0.2819 -0.0105
H109? H 0.0658 0.2412 -0.0604
C122? C 0.0500(16) 0.374(3) -0.0566(16)
H110? H 0.0316 0.3699 -0.0864
H111? H 0.0752 0.3991 -0.0617
H112? H 0.0049 0.0122 0.0050
loop_
_geom_bond_atom_site_label_1
_geom_bond_atom_site_label_2
_geom_bond_site_symmetry_1
_geom_bond_site_symmetry_2
Zn1 I1 1_555 1_555
Zn2 I3 1_555 1_555
Zn3 I7 1_555 1_555
Zn4 I9 1_555 1_555
Zn5 I11 1_555 1_555
Zn6 I5 1_555 1_555
I2 Zn1 1_555 1_555
I4 Zn2 1_555 1_555
I6 Zn6 1_555 1_555
I8 Zn3 1_555 1_555
I10 Zn4 1_555 1_555
I12 Zn5 1_555 1_555
N1 Zn1 1_555 1_555
C1 N1 1_555 1_555
H1 C1 1_555 1_555
C2 C1 1_555 1_555
H2 C2 1_555 1_555
C3 C2 1_555 1_555
C4 C3 1_555 1_555
H3 C4 1_555 1_555
C5 N1 1_555 1_555
H4 C5 1_555 1_555
N2 Zn2 1_555 1_555
C6 N2 1_555 1_555
H5 C6 1_555 1_555
C7 C6 1_555 1_555
H6 C7 1_555 1_555
C8 C7 1_555 1_555
C9 N2 1_555 1_555
H7 C9 1_555 1_555
C10 C8 1_555 1_555
H8 C10 1_555 1_555
N3 C11 1_555 1_555
C11 H9 1_555 1_555
C12 C11 1_555 1_555
H10 C12 1_555 1_555
C13 C12 1_555 1_555
C14 C13 1_555 1_555
H11 C14 1_555 1_555
C15 N3 1_555 1_555
H12 C15 1_555 1_555
C16 C3 1_555 1_555
N4 C16 1_555 1_555
C17 C8 1_555 1_555
N5 C17 1_555 1_555
C18 C13 1_555 1_555
N6 C16 1_555 1_555
N7 Zn2 1_555 1_555
C19 N7 1_555 1_555
H13 C19 1_555 1_555
C20 C19 1_555 1_555
H14 C20 1_555 1_555
C21 C20 1_555 1_555
C22 C21 1_555 1_555
H15 C22 1_555 1_555
C23 N7 1_555 1_555
H16 C23 1_555 1_555
N8 Zn6 1_555 1_555
C24 N8 1_555 1_555
H17 C24 1_555 1_555
C25 C24 1_555 1_555
H18 C25 1_555 1_555
C26 C25 1_555 1_555
C27 C26 1_555 1_555
H19 C27 1_555 1_555
C28 N8 1_555 1_555
H20 C28 1_555 1_555
N9 Zn3 1_555 1_555
C29 N9 1_555 1_555
H21 C29 1_555 1_555
C30 C29 1_555 1_555
H22 C30 1_555 1_555
C31 C30 1_555 1_555
C32 C31 1_555 1_555
H23 C32 1_555 1_555
C33 N9 1_555 1_555
H24 C33 1_555 1_555
C34 C21 1_555 1_555
N10 C34 1_555 1_555
C35 C26 1_555 1_555
N11 C35 1_555 1_555
C36 C31 1_555 1_555
N12 C34 1_555 1_555
N13 Zn3 1_555 1_555
C37 N13 1_555 1_555
H25 C37 1_555 1_555
C38 C37 1_555 1_555
H26 C38 1_555 1_555
C39 C38 1_555 1_555
C40 C39 1_555 1_555
H27 C40 1_555 1_555
C41 N13 1_555 1_555
H28 C41 1_555 1_555
N14 Zn4 1_555 1_555
C42 N14 1_555 1_555
H29 C42 1_555 1_555
C43 C42 1_555 1_555
H30 C43 1_555 1_555
C44 C43 1_555 1_555
C45 C44 1_555 1_555
H31 C45 1_555 1_555
C46 N14 1_555 1_555
H32 C46 1_555 1_555
N15 Zn5 1_555 1_555
C47 N15 1_555 1_555
H33 C47 1_555 1_555
C48 C47 1_555 1_555
H34 C48 1_555 1_555
C49 C48 1_555 1_555
C50 C49 1_555 1_555
H35 C50 1_555 1_555
C51 N15 1_555 1_555
H36 C51 1_555 1_555
C52 C39 1_555 1_555
N16 C52 1_555 1_555
C53 C44 1_555 1_555
N17 C53 1_555 1_555
C54 C49 1_555 1_555
N18 C52 1_555 1_555
N19 Zn5 1_555 1_555
C55 N19 1_555 1_555
H37 C55 1_555 1_555
C56 C55 1_555 1_555
H38 C56 1_555 1_555
C57 C56 1_555 1_555
C58 C57 1_555 1_555
H39 C58 1_555 1_555
C59 N19 1_555 1_555
H40 C59 1_555 1_555
N20 C60 1_555 1_555
C60 H41 1_555 1_555
C61 C60 1_555 1_555
H42 C61 1_555 1_555
C62 C61 1_555 1_555
C63 C62 1_555 1_555
H43 C63 1_555 1_555
C64 N20 1_555 1_555
H44 C64 1_555 1_555
N21 C65 1_555 1_555
C65 H45 1_555 1_555
C66 C65 1_555 1_555
H46 C66 1_555 1_555
C67 C66 1_555 1_555
C68 C67 1_555 1_555
H47 C68 1_555 1_555
C69 N21 1_555 1_555
H48 C69 1_555 1_555
C70 C57 1_555 1_555
N22 C70 1_555 1_555
C71 C62 1_555 1_555
N23 C71 1_555 1_555
C72 C67 1_555 1_555
N24 C70 1_555 1_555
S1 C73 1_555 1_555
C73 C74 1_555 1_555
C74 C75 1_555 1_555
C75 C76 1_555 1_555
C76 S1 1_555 1_555
H49 C76 1_555 1_555
C77 C75 1_555 1_555
C78 C77 1_555 1_555
C79 C78 1_555 1_555
H50 C79 1_555 1_555
C80 C79 1_555 1_555
H51 C80 1_555 1_555
C81 C80 1_555 1_555
C82 C77 1_555 1_555
C83 C82 1_555 1_555
H52 C83 1_555 1_555
C84 C83 1_555 1_555
H53 C84 1_555 1_555
C85 C84 1_555 1_555
H54 C85 1_555 1_555
C86 C81 1_555 1_555
H55 C86 1_555 1_555
C87 C73 1_555 1_555
H56 C87 1_555 1_555
H57 C87 1_555 1_555
H58 C87 1_555 1_555
C88 C74 1_555 1_555
H59 C88 1_555 1_555
H60 C88 1_555 1_555
H61 C88 1_555 1_555
C89 C78 1_555 1_555
H62 C89 1_555 1_555
C90 C89 1_555 1_555
H63 C90 1_555 1_555
H64 C90 1_555 1_555
C91 C89 1_555 1_555
H65 C91 1_555 1_555
H66 C91 1_555 1_555
H67 C91 1_555 1_555
C92 H68 1_555 1_555
H69 C92 1_555 1_555
C93 C92 1_555 1_555
H70 C93 1_555 1_555
H71 C93 1_555 1_555
C94 C93 1_555 1_555
H72 C94 1_555 1_555
H73 C94 1_555 1_555
C95 C94 1_555 1_555
H74 C95 1_555 1_555
H75 C95 1_555 1_555
C96 C95 1_555 1_555
H76 C96 1_555 1_555
H77 C96 1_555 1_555
C97 C92 1_555 1_555
H78 C97 1_555 1_555
H79 C97 1_555 1_555
Zn1B N20 1_555 1_555
Zn4B N21 1_555 1_555
Zn6B N3 1_555 1_555
N3B Zn6 1_555 1_555
N20B Zn1 1_555 1_555
N21B Zn4 1_555 1_555
C4 C5 1_555 1_555
C9 C10 1_555 1_555
C14 C15 1_555 1_555
N4 C17 1_555 1_555
N5 C18 1_555 1_555
C18 N6 1_555 1_555
C22 C23 1_555 1_555
C27 C28 1_555 1_555
C32 C33 1_555 1_555
N10 C35 1_555 1_555
N11 C36 1_555 1_555
C36 N12 1_555 1_555
C40 C41 1_555 1_555
C45 C46 1_555 1_555
C50 C51 1_555 1_555
N16 C53 1_555 1_555
N17 C54 1_555 1_555
C54 N18 1_555 1_555
C58 C59 1_555 1_555
C63 C64 1_555 1_555
C68 C69 1_555 1_555
N22 C71 1_555 1_555
N23 C72 1_555 1_555
C72 N24 1_555 1_555
C81 C82 1_555 1_555
C85 C86 1_555 1_555
C96 C97 1_555 1_555

#END
