
#######################################################################
#
#                 Cambridge Crystallographic Data Centre
#                                CCDC 
#
#######################################################################
#
# If this CIF has been generated from an entry in the Cambridge 
# Structural Database, then it will include bibliographic, chemical, 
# crystal, experimental, refinement or atomic coordinate data resulting 
# from the CCDC's data processing and validation procedures.
#
#######################################################################

data_WUDZEB
_symmetry_cell_setting           triclinic
_symmetry_space_group_name_H-M   'P 1'
_symmetry_Int_Tables_number      1
_space_group_name_Hall           'P 1'
loop_
_symmetry_equiv_pos_site_id
_symmetry_equiv_pos_as_xyz
1 x,y,z
_cell_length_a                   11.430(3)
_cell_length_b                   12.242(3)
_cell_length_c                   14.279(3)
_cell_angle_alpha                106.196(4)
_cell_angle_beta                 94.316(4)
_cell_angle_gamma                98.294(3)
_cell_volume                     1884.57
loop_
_atom_site_label
_atom_site_type_symbol
_atom_site_fract_x
_atom_site_fract_y
_atom_site_fract_z
Mo1 Mo -0.47272(6) -0.05175(6) -0.04958(5)
Mo2 Mo -0.62396(6) -0.15957(6) 0.32120(5)
Mo3 Mo -0.73697(6) 0.07807(6) 0.30753(5)
Mo4 Mo -0.20213(6) -0.02338(6) 0.11843(5)
Mo5 Mo -0.48551(6) 0.10632(6) 0.46378(5)
Mo6 Mo -0.32309(6) 0.23351(6) 0.10533(5)
Mo7 Mo -0.65017(6) -0.22163(6) 0.05304(6)
Mo8 Mo -0.22081(6) 0.01173(6) 0.35910(6)
Mo9 Mo -0.29538(6) 0.29228(6) 0.35259(6)
Mo10 Mo -0.71590(6) 0.03762(6) 0.04649(6)
Mo11 Mo -0.55592(7) 0.30245(6) 0.22987(6)
Mo12 Mo -0.36835(7) -0.23098(6) 0.18769(6)
Si1 Si -0.4709(2) 0.0313(2) 0.2088(2)
O1 O -0.5462(5) -0.0274(5) 0.1021(4)
O2 O -0.3524(4) -0.0287(4) 0.2148(4)
O3 O -0.5479(5) 0.0203(5) 0.2932(4)
O4 O -0.4248(5) 0.1668(5) 0.2188(4)
O5 O -0.1240(5) 0.0075(5) 0.2435(5)
O6 O -0.6463(6) 0.2245(5) 0.2948(5)
O7 O -0.7623(6) 0.0315(5) 0.1738(5)
O8 O -0.6375(6) 0.1830(6) 0.1088(5)
O9 O -0.2453(6) -0.1884(5) 0.1180(5)
O10 O -0.2366(6) 0.3266(6) 0.2419(6)
O11 O -0.4842(5) -0.2057(6) 0.2820(5)
O12 O -0.4302(5) 0.3750(5) 0.3308(5)
O13 O -0.6777(5) -0.2031(6) 0.1756(5)
O14 O -0.4880(5) -0.2540(6) 0.0902(5)
O15 O -0.2534(6) -0.1484(5) 0.3097(5)
O16 O -0.6250(5) 0.0091(5) -0.0598(6)
O17 O -0.5604(5) -0.1920(5) -0.0618(5)
O18 O -0.5565(5) -0.0597(5) 0.4409(5)
O19 O -0.7548(5) -0.1348(5) 0.0183(6)
O20 O -0.4057(5) 0.1184(5) 0.0059(6)
O21 O -0.4379(6) 0.3267(5) 0.1346(5)
O22 O -0.3434(5) 0.0323(5) 0.4303(5)
O23 O -0.6983(7) -0.2693(6) 0.3520(6)
O24 O -0.2390(6) 0.3085(6) 0.0442(6)
O25 O -0.4058(5) 0.2291(5) 0.4318(5)
O26 O -0.4465(7) -0.0680(7) -0.1677(5)
O27 O -0.2170(5) 0.1752(5) 0.3534(5)
O28 O -0.0834(5) -0.0441(6) 0.0538(6)
O29 O -0.1041(5) 0.0285(6) 0.4422(5)
O30 O -0.8602(6) 0.1158(6) 0.3482(6)
O31 O -0.4656(7) 0.1430(7) 0.5856(6)
O32 O -0.2166(5) 0.1229(5) 0.1209(5)
O33 O -0.8422(5) 0.0487(6) -0.0146(5)
O34 O -0.6362(5) 0.1358(5) 0.4395(5)
O35 O -0.3306(5) -0.0721(5) 0.0040(5)
O36 O -0.2169(6) 0.4067(5) 0.4406(5)
O37 O -0.7210(7) -0.3532(6) -0.0112(6)
O38 O -0.6202(6) 0.4152(5) 0.2271(6)
O39 O -0.7516(5) -0.0674(5) 0.3248(5)
O40 O -0.3439(6) -0.3628(5) 0.1841(6)
Co1 Co -0.17983(10) 0.65903(9) -0.27071(9)
O41 O -0.2825(6) 0.7140(6) -0.1576(6)
H1 H -0.3167 0.6506 -0.1511
H2 H -0.2447 0.7480 -0.1009
O42 O -0.0719(5) 0.6032(5) -0.3774(5)
H3 H -0.0513 0.6646 -0.3932
H4 H -0.0047 0.5895 -0.3585
O43 O -0.0691(6) 0.5889(5) -0.1870(5)
O44 O -0.0147(8) 0.7385(6) 0.5165(6)
O45 O -0.3077(6) 0.5080(5) -0.3149(5)
O46 O -0.0741(5) -0.1817(5) -0.2175(5)
N1 N -0.0666(6) 0.6154(6) -0.0913(5)
N2 N -0.0274(7) 0.7209(6) 0.4209(6)
N3 N -0.2794(6) 0.4083(6) -0.3008(6)
N4 N -0.1098(6) -0.0901(5) -0.2340(5)
N5 N -0.2857(7) 0.7087(7) -0.3767(8)
C1 C -0.0043(8) 0.7126(7) -0.0304(7)
H5 H 0.0346 0.7675 -0.0565
C2 C 0.0047(7) 0.7351(7) 0.0708(7)
H6 H 0.0531 0.8022 0.1106
C3 C -0.0571(7) 0.6593(7) 0.1138(7)
C4 C -0.1272(10) 0.5599(8) 0.0470(8)
H7 H -0.1731 0.5073 0.0714
C5 C -0.1297(11) 0.5391(9) -0.0489(8)
H8 H -0.1753 0.4710 -0.0899
C6 C 0.0120(8) 0.8062(7) 0.3808(7)
H9 H 0.0467 0.8791 0.4215
C7 C 0.0010(8) 0.7857(7) 0.2831(7)
H10 H 0.0295 0.8452 0.2578
C8 C -0.0510(7) 0.6797(7) 0.2182(7)
C9 C -0.0941(8) 0.5954(7) 0.2602(7)
H11 H -0.1303 0.5225 0.2204
C10 C -0.0833(9) 0.6194(8) 0.3615(8)
H12 H -0.1159 0.5630 0.3888
C11 C -0.3373(8) 0.3623(7) -0.2411(7)
H13 H -0.3966 0.3965 -0.2092
C12 C -0.3078(8) 0.2611(7) -0.2267(8)
H14 H -0.3467 0.2276 -0.1840
C13 C -0.2222(7) 0.2114(6) -0.2752(7)
C14 C -0.1648(7) 0.2627(7) -0.3386(7)
H15 H -0.1056 0.2301 -0.3720
C15 C -0.1966(8) 0.3618(7) -0.3512(7)
H16 H -0.1605 0.3963 -0.3946
C16 C -0.1086(8) -0.0701(8) -0.3215(7)
H17 H -0.0839 -0.1227 -0.3736
C17 C -0.1432(10) 0.0262(8) -0.3343(7)
H18 H -0.1394 0.0405 -0.3948
C18 C -0.1839(7) 0.1036(6) -0.2592(6)
C19 C -0.1872(8) 0.0821(7) -0.1699(7)
H19 H -0.2136 0.1329 -0.1175
C20 C -0.1505(9) -0.0161(8) -0.1603(7)
H20 H -0.1538 -0.0323 -0.1006
C21 C -0.3253(10) 0.7071(10) -0.4535(8)
C22 C -0.3803(17) 0.6943(17) -0.5532(14)
H21 H -0.3629 0.7665 -0.5678
H22 H -0.4650 0.6719 -0.5574
H23 H -0.3489 0.6361 -0.5997
Co1_2 Co -0.17983(10) -0.34097(9) -0.27071(9)
O46_2 O -0.0741(5) 0.8183(5) -0.2175(5)
Co2 Co 0.21895(10) 0.39935(9) 0.69198(9)
O47 O 0.3181(7) 0.3475(6) 0.5729(6)
H24 H 0.3921 0.3718 0.5907
H25 H 0.3025 0.2741 0.5561
O48 O 0.1103(6) 0.4577(5) 0.7990(5)
H26 H 0.0884 0.3964 0.8145
H27 H 0.0437 0.4724 0.7799
O49 O 0.1070(5) 0.4695(5) 0.6092(4)
O50 O 0.0503(7) 0.3150(6) -0.0946(5)
O51 O 0.3453(5) 0.5498(5) 0.7374(5)
O52 O 0.1098(5) 1.2412(5) 0.6414(5)
N6 N 0.1097(7) 0.4450(6) 0.5109(6)
N7 N 0.0692(8) 0.3375(7) 0.0028(6)
N8 N 0.3215(6) 0.6498(6) 0.7270(5)
N9 N 0.1475(7) 1.1458(6) 0.6553(6)
N10 N 0.3228(7) 0.3482(7) 0.7944(7)
C23 C 0.0448(8) 0.3466(8) 0.4525(7)
H28 H 0.0029 0.2943 0.4795
C24 C 0.0406(8) 0.3240(8) 0.3553(7)
H29 H -0.0061 0.2563 0.3150
C25 C 0.1042(8) 0.3992(7) 0.3128(7)
C26 C 0.1680(12) 0.4970(9) 0.3753(8)
H30 H 0.2117 0.5503 0.3504
C27 C 0.1695(11) 0.5191(8) 0.4751(8)
H31 H 0.2134 0.5874 0.5171
C28 C 0.0348(9) 0.2510(8) 0.0398(7)
H32 H 0.0017 0.1785 -0.0025
C29 C 0.0476(8) 0.2671(8) 0.1391(7)
H33 H 0.0242 0.2053 0.1633
C30 C 0.0957(7) 0.3763(6) 0.2050(6)
C31 C 0.1357(9) 0.4611(8) 0.1610(8)
H34 H 0.1733 0.5335 0.2007
C32 C 0.1214(9) 0.4409(8) 0.0615(7)
H35 H 0.1481 0.4996 0.0346
C33 C 0.3796(8) 0.7025(8) 0.6688(9)
H36 H 0.4400 0.6696 0.6374
C34 C 0.3540(9) 0.8020(8) 0.6536(8)
H37 H 0.3983 0.8382 0.6153
C35 C 0.2600(7) 0.8480(8) 0.6967(7)
C36 C 0.2001(8) 0.7933(7) 0.7578(7)
H38 H 0.1377 0.8231 0.7882
C37 C 0.2338(8) 0.6950(7) 0.7730(7)
H39 H 0.1955 0.6601 0.8151
C38 C 0.1429(9) 1.1274(7) 0.7416(7)
H40 H 0.1112 1.1773 0.7910
C39 C 0.1853(8) 1.0337(7) 0.7585(7)
H41 H 0.1859 1.0234 0.8206
C40 C 0.2269(7) 0.9550(7) 0.6844(7)
C41 C 0.2278(9) 0.9786(8) 0.5953(7)
H42 H 0.2559 0.9281 0.5437
C42 C 0.1891(8) 1.0731(7) 0.5802(7)
H43 H 0.1912 1.0874 0.5197
C43 C 0.3672(16) 0.3393(15) 0.8600(14)
C44 C 0.4266(15) 0.3229(14) 0.9484(13)
H44 H 0.4381 0.2442 0.9352
H45 H 0.3781 0.3406 1.0009
H46 H 0.5025 0.3732 0.9671
Co2_2 Co 0.21895(10) 1.39935(9) 0.69198(9)
O52_2 O 0.1098(5) 0.2412(5) 0.6414(5)
O53 O 0.5055(6) 0.4772(6) 0.5355(6)
H47 H 0.5461 0.5003 0.4951
H48 H 0.5505 0.4555 0.5745
O54 O -0.4655(7) 0.5797(7) -0.1139(7)
H49 H -0.4525 0.5832 -0.0536
H50 H -0.5400 0.5674 -0.1316
loop_
_geom_bond_atom_site_label_1
_geom_bond_atom_site_label_2
_geom_bond_site_symmetry_1
_geom_bond_site_symmetry_2
Mo1 O1 1_555 1_555
Mo2 O3 1_555 1_555
Mo3 O3 1_555 1_555
Mo4 O2 1_555 1_555
Mo5 O3 1_555 1_555
Mo6 O4 1_555 1_555
Mo7 O1 1_555 1_555
Mo8 O2 1_555 1_555
Mo9 O4 1_555 1_555
Mo10 O1 1_555 1_555
Mo11 O4 1_555 1_555
Mo12 O2 1_555 1_555
Si1 O1 1_555 1_555
O2 Si1 1_555 1_555
O3 Si1 1_555 1_555
O4 Si1 1_555 1_555
O5 Mo4 1_555 1_555
O6 Mo3 1_555 1_555
O7 Mo3 1_555 1_555
O8 Mo10 1_555 1_555
O9 Mo4 1_555 1_555
O10 Mo6 1_555 1_555
O11 Mo2 1_555 1_555
O12 Mo9 1_555 1_555
O13 Mo2 1_555 1_555
O14 Mo7 1_555 1_555
O15 Mo8 1_555 1_555
O16 Mo1 1_555 1_555
O17 Mo1 1_555 1_555
O18 Mo2 1_555 1_555
O19 Mo7 1_555 1_555
O20 Mo1 1_555 1_555
O21 Mo6 1_555 1_555
O22 Mo5 1_555 1_555
O23 Mo2 1_555 1_555
O24 Mo6 1_555 1_555
O25 Mo5 1_555 1_555
O26 Mo1 1_555 1_555
O27 Mo8 1_555 1_555
O28 Mo4 1_555 1_555
O29 Mo8 1_555 1_555
O30 Mo3 1_555 1_555
O31 Mo5 1_555 1_555
O32 Mo4 1_555 1_555
O33 Mo10 1_555 1_555
O34 Mo3 1_555 1_555
O35 Mo1 1_555 1_555
O36 Mo9 1_555 1_555
O37 Mo7 1_555 1_555
O38 Mo11 1_555 1_555
O39 Mo2 1_555 1_555
O40 Mo12 1_555 1_555
Co1 O41 1_555 1_555
Co2 O47 1_555 1_555
O41 H1 1_555 1_555
H2 O41 1_555 1_555
O42 Co1 1_555 1_555
H3 O42 1_555 1_555
H4 O42 1_555 1_555
O43 Co1 1_555 1_555
O44 N2 1_555 1_555
O45 Co1 1_555 1_555
O46 N4 1_555 1_555
N1 O43 1_555 1_555
N2 C6 1_555 1_555
N3 O45 1_555 1_555
N4 C16 1_555 1_555
N5 Co1 1_555 1_555
C1 N1 1_555 1_555
H5 C1 1_555 1_555
C2 C1 1_555 1_555
H6 C2 1_555 1_555
C3 C2 1_555 1_555
C4 C3 1_555 1_555
H7 C4 1_555 1_555
C5 N1 1_555 1_555
H8 C5 1_555 1_555
C6 H9 1_555 1_555
C7 C6 1_555 1_555
H10 C7 1_555 1_555
C8 C3 1_555 1_555
C9 C8 1_555 1_555
H11 C9 1_555 1_555
C10 N2 1_555 1_555
H12 C10 1_555 1_555
C11 N3 1_555 1_555
H13 C11 1_555 1_555
C12 C11 1_555 1_555
H14 C12 1_555 1_555
C13 C12 1_555 1_555
C14 C13 1_555 1_555
H15 C14 1_555 1_555
C15 N3 1_555 1_555
H16 C15 1_555 1_555
C16 H17 1_555 1_555
C17 C16 1_555 1_555
H18 C17 1_555 1_555
C18 C13 1_555 1_555
C19 C18 1_555 1_555
H19 C19 1_555 1_555
C20 N4 1_555 1_555
H20 C20 1_555 1_555
C21 N5 1_555 1_555
C22 C21 1_555 1_555
H21 C22 1_555 1_555
H22 C22 1_555 1_555
H23 C22 1_555 1_555
O47 H24 1_555 1_555
H25 O47 1_555 1_555
O48 Co2 1_555 1_555
H26 O48 1_555 1_555
H27 O48 1_555 1_555
O49 Co2 1_555 1_555
O50 N7 1_555 1_555
O51 Co2 1_555 1_555
O52 N9 1_555 1_555
N6 O49 1_555 1_555
N7 C28 1_555 1_555
N8 O51 1_555 1_555
N9 C38 1_555 1_555
N10 Co2 1_555 1_555
C23 N6 1_555 1_555
H28 C23 1_555 1_555
C24 C23 1_555 1_555
H29 C24 1_555 1_555
C25 C24 1_555 1_555
C26 C25 1_555 1_555
H30 C26 1_555 1_555
C27 N6 1_555 1_555
H31 C27 1_555 1_555
C28 H32 1_555 1_555
C29 C28 1_555 1_555
H33 C29 1_555 1_555
C30 C25 1_555 1_555
C31 C30 1_555 1_555
H34 C31 1_555 1_555
C32 N7 1_555 1_555
H35 C32 1_555 1_555
C33 N8 1_555 1_555
H36 C33 1_555 1_555
C34 C33 1_555 1_555
H37 C34 1_555 1_555
C35 C34 1_555 1_555
C36 C35 1_555 1_555
H38 C36 1_555 1_555
C37 N8 1_555 1_555
H39 C37 1_555 1_555
C38 H40 1_555 1_555
C39 C38 1_555 1_555
H41 C39 1_555 1_555
C40 C35 1_555 1_555
C41 C40 1_555 1_555
H42 C41 1_555 1_555
C42 N9 1_555 1_555
H43 C42 1_555 1_555
C43 N10 1_555 1_555
C44 C43 1_555 1_555
H44 C44 1_555 1_555
H45 C44 1_555 1_555
H46 C44 1_555 1_555
O53 H47 1_555 1_555
H48 O53 1_555 1_555
O54 H49 1_555 1_555
H50 O54 1_555 1_555
Co1_2 O46 1_555 1_555
Co2_2 O52 1_555 1_555
O46_2 Co1 1_555 1_555
O52_2 Co2 1_555 1_555
Mo3 O39 1_555 1_555
Mo4 O35 1_555 1_555
Mo5 O18 1_555 1_555
Mo5 O34 1_555 1_555
Mo6 O20 1_555 1_555
Mo6 O32 1_555 1_555
Mo7 O13 1_555 1_555
Mo7 O17 1_555 1_555
Mo8 O5 1_555 1_555
Mo8 O22 1_555 1_555
Mo9 O10 1_555 1_555
Mo9 O25 1_555 1_555
Mo9 O27 1_555 1_555
Mo10 O7 1_555 1_555
Mo10 O16 1_555 1_555
Mo10 O19 1_555 1_555
Mo11 O6 1_555 1_555
Mo11 O8 1_555 1_555
Mo11 O12 1_555 1_555
Mo11 O21 1_555 1_555
Mo12 O9 1_555 1_555
Mo12 O11 1_555 1_555
Mo12 O14 1_555 1_555
Mo12 O15 1_555 1_555
C4 C5 1_555 1_555
C7 C8 1_555 1_555
C9 C10 1_555 1_555
C14 C15 1_555 1_555
C17 C18 1_555 1_555
C19 C20 1_555 1_555
C26 C27 1_555 1_555
C29 C30 1_555 1_555
C31 C32 1_555 1_555
C36 C37 1_555 1_555
C39 C40 1_555 1_555
C41 C42 1_555 1_555

#END
