
#######################################################################
#
#                 Cambridge Crystallographic Data Centre
#                                CCDC 
#
#######################################################################
#
# If this CIF has been generated from an entry in the Cambridge 
# Structural Database, then it will include bibliographic, chemical, 
# crystal, experimental, refinement or atomic coordinate data resulting 
# from the CCDC's data processing and validation procedures.
#
#######################################################################

data_WUFCAC
_symmetry_cell_setting           monoclinic
_symmetry_space_group_name_H-M   'P 21/c'
_symmetry_Int_Tables_number      14
_space_group_name_Hall           '-P 2ybc'
loop_
_symmetry_equiv_pos_site_id
_symmetry_equiv_pos_as_xyz
1 x,y,z
2 -x,1/2+y,1/2-z
3 -x,-y,-z
4 x,1/2-y,1/2+z
_cell_length_a                   9.4564(10)
_cell_length_b                   18.2679(19)
_cell_length_c                   15.7284(12)
_cell_angle_alpha                90
_cell_angle_beta                 126.045(4)
_cell_angle_gamma                90
_cell_volume                     2196.89
loop_
_atom_site_label
_atom_site_type_symbol
_atom_site_fract_x
_atom_site_fract_y
_atom_site_fract_z
Cu1 Cu 0.54596(4) 0.76740(2) 0.65525(3)
N1 N 0.4138(3) 0.82253(13) 0.5169(2)
N2 N 0.3380(3) 0.70095(13) 0.60054(19)
N3 N 0.6893(3) 0.70347(14) 0.7856(2)
O1 O 0.4288(3) 0.83956(12) 0.72011(18)
O2 O 0.6240(3) 0.89797(14) 0.88977(18)
O3 O 0.4784(3) 0.97027(12) 0.73148(18)
O4 O -0.1099(3) 0.95426(12) 0.81817(18)
H1 H -0.1857 0.9226 0.7880
O5 O -0.2539(2) 0.83492(11) 0.71078(17)
O6 O -0.1198(3) 0.76956(12) 0.65720(18)
S1 S 0.46990(9) 0.90602(4) 0.78161(6)
C1 C 0.3352(4) 0.78714(18) 0.4249(3)
H4 H 0.3384 0.7363 0.4252
C2 C 0.2497(4) 0.82348(19) 0.3297(3)
H5 H 0.1949 0.7973 0.2671
C3 C 0.2468(4) 0.8990(2) 0.3287(3)
H6 H 0.1942 0.9248 0.2660
C4 C 0.3241(4) 0.93499(19) 0.4233(3)
H7 H 0.3213 0.9858 0.4248
C5 C 0.4053(4) 0.89594(17) 0.5153(3)
H8 H 0.4559 0.9211 0.5783
C6 C 0.1784(4) 0.72957(17) 0.5574(2)
H9 H 0.1647 0.7801 0.5491
C7 C 0.0347(4) 0.68735(18) 0.5249(2)
H10 H -0.0738 0.7090 0.4954
C8 C 0.0533(4) 0.61250(18) 0.5364(2)
H11 H -0.0421 0.5828 0.5151
C9 C 0.2153(4) 0.58259(17) 0.5798(2)
H12 H 0.2314 0.5322 0.5885
C10 C 0.3534(4) 0.62803(16) 0.6104(2)
H13 H 0.4625 0.6072 0.6392
C11 C 0.8195(4) 0.6601(2) 0.8042(3)
H14 H 0.8561 0.6638 0.7609
C12 C 0.9007(5) 0.6099(2) 0.8861(3)
H15 H 0.9908 0.5806 0.8974
C13 C 0.8476(5) 0.6037(2) 0.9500(3)
H16 H 0.9000 0.5702 1.0050
C14 C 0.7148(5) 0.6484(2) 0.9310(3)
H17 H 0.6763 0.6456 0.9733
C15 C 0.6391(4) 0.69752(19) 0.8488(3)
H18 H 0.5497 0.7276 0.8369
C16 C 0.2920(4) 0.91812(16) 0.7898(2)
C17 C 0.1538(4) 0.86994(15) 0.7435(2)
H19 H 0.1527 0.8303 0.7059
C18 C 0.0151(4) 0.87888(16) 0.7513(2)
C19 C 0.0186(4) 0.93975(16) 0.8073(2)
C20 C 0.1591(4) 0.98834(17) 0.8547(3)
H20 H 0.1615 1.0283 0.8922
C21 C 0.2942(4) 0.97743(17) 0.8461(2)
H21 H 0.3878 1.0099 0.8782
C22 C -0.1279(4) 0.82326(17) 0.7021(2)
Cu1_2 Cu -0.45404(4) 0.76740(2) 0.65525(3)
O5_2 O 0.7461(2) 0.83492(11) 0.71078(17)
O7 O 0.6300(3) 0.66344(13) 0.55608(19)
H2 H 0.7105 0.6955 0.5852
H3 H 0.6130 0.6496 0.4991
loop_
_geom_bond_atom_site_label_1
_geom_bond_atom_site_label_2
_geom_bond_site_symmetry_1
_geom_bond_site_symmetry_2
Cu1 N1 1_555 1_555
N1 C1 1_555 1_555
N2 Cu1 1_555 1_555
N3 Cu1 1_555 1_555
O1 Cu1 1_555 1_555
O2 S1 1_555 1_555
O3 S1 1_555 1_555
O4 H1 1_555 1_555
O5 C22 1_555 1_555
O6 C22 1_555 1_555
O7 H2 1_555 1_555
H3 O7 1_555 1_555
S1 O1 1_555 1_555
C1 H4 1_555 1_555
C2 C1 1_555 1_555
H5 C2 1_555 1_555
C3 C2 1_555 1_555
H6 C3 1_555 1_555
C4 C3 1_555 1_555
H7 C4 1_555 1_555
C5 N1 1_555 1_555
H8 C5 1_555 1_555
C6 N2 1_555 1_555
H9 C6 1_555 1_555
C7 C6 1_555 1_555
H10 C7 1_555 1_555
C8 C7 1_555 1_555
H11 C8 1_555 1_555
C9 C8 1_555 1_555
H12 C9 1_555 1_555
C10 N2 1_555 1_555
H13 C10 1_555 1_555
C11 N3 1_555 1_555
H14 C11 1_555 1_555
C12 C11 1_555 1_555
H15 C12 1_555 1_555
C13 C12 1_555 1_555
H16 C13 1_555 1_555
C14 C13 1_555 1_555
H17 C14 1_555 1_555
C15 N3 1_555 1_555
H18 C15 1_555 1_555
C16 S1 1_555 1_555
C17 C16 1_555 1_555
H19 C17 1_555 1_555
C18 C17 1_555 1_555
C19 O4 1_555 1_555
C20 C19 1_555 1_555
H20 C20 1_555 1_555
C21 C16 1_555 1_555
H21 C21 1_555 1_555
C22 C18 1_555 1_555
Cu1_2 O5 1_555 1_555
O5_2 Cu1 1_555 1_555
C4 C5 1_555 1_555
C9 C10 1_555 1_555
C14 C15 1_555 1_555
C18 C19 1_555 1_555
C20 C21 1_555 1_555

#END
