
#######################################################################
#
#                 Cambridge Crystallographic Data Centre
#                                CCDC 
#
#######################################################################
#
# If this CIF has been generated from an entry in the Cambridge 
# Structural Database, then it will include bibliographic, chemical, 
# crystal, experimental, refinement or atomic coordinate data resulting 
# from the CCDC's data processing and validation procedures.
#
#######################################################################

data_WUFFIN
_symmetry_cell_setting           monoclinic
_symmetry_space_group_name_H-M   'P 21/c'
_symmetry_Int_Tables_number      14
_space_group_name_Hall           '-P 2ybc'
loop_
_symmetry_equiv_pos_site_id
_symmetry_equiv_pos_as_xyz
1 x,y,z
2 -x,1/2+y,1/2-z
3 -x,-y,-z
4 x,1/2-y,1/2+z
_cell_length_a                   7.2543(15)
_cell_length_b                   7.7658(16)
_cell_length_c                   13.092(3)
_cell_angle_alpha                90
_cell_angle_beta                 103.24(3)
_cell_angle_gamma                90
_cell_volume                     717.939
loop_
_atom_site_label
_atom_site_type_symbol
_atom_site_fract_x
_atom_site_fract_y
_atom_site_fract_z
Cu1 Cu 0.54988(7) 0.02564(6) 0.10072(4)
C1 C 0.1652(6) 0.5219(5) -0.1462(3)
H1 H 0.170(7) 0.457(7) -0.197(4)
C2 C 0.0846(6) 0.6827(6) -0.1598(4)
H2 H 0.037(6) 0.727(6) -0.227(4)
C3 C 0.0862(6) 0.7907(5) -0.0735(4)
H3 H 0.041(6) 0.894(6) -0.085(4)
C4 C 0.1691(6) 0.7337(5) 0.0263(4)
H4 H 0.185(8) 0.804(7) 0.080(4)
C5 C 0.2487(5) 0.5690(5) 0.0416(3)
C6 C 0.2463(5) 0.4620(5) -0.0449(3)
C7 C 0.3293(5) 0.2892(5) -0.0284(3)
C8 C 0.3381(5) 0.5081(4) 0.1466(3)
N1 N 0.4052(5) 0.2331(4) 0.0685(2)
N2 N 0.4025(5) 0.3457(4) 0.1525(3)
H5 H 0.460(7) 0.303(6) 0.208(4)
O1 O 0.3308(4) 0.1933(3) -0.1085(2)
O2 O 0.3551(4) 0.5982(3) 0.2279(2)
Cu1B Cu 0.45012(7) -0.02564(6) -0.10072(4)
Cu1A Cu 0.45012(7) 0.52564(6) 0.39928(4)
Cu1C Cu 0.54988(7) -0.52564(6) -0.39928(4)
C1B C 0.8348(6) -0.5219(5) 0.1462(3)
H1B H 0.830(7) -0.457(7) 0.197(4)
C2B C 0.9154(6) -0.6827(6) 0.1598(4)
H2B H 0.963(6) -0.727(6) 0.227(4)
C3B C 0.9138(6) -0.7907(5) 0.0735(4)
H3B H 0.959(6) -0.894(6) 0.085(4)
C4B C 0.8309(6) -0.7337(5) -0.0263(4)
H4B H 0.815(8) -0.804(7) -0.080(4)
C5B C 0.7513(5) -0.5690(5) -0.0416(3)
C6B C 0.7537(5) -0.4620(5) 0.0449(3)
C7B C 0.6707(5) -0.2892(5) 0.0284(3)
C8B C 0.6619(5) -0.5081(4) -0.1466(3)
N1B N 0.5948(5) -0.2331(4) -0.0685(2)
N2B N 0.5975(5) -0.3457(4) -0.1525(3)
H5B H 0.540(7) -0.303(6) -0.208(4)
O1B O 0.6692(4) -0.1933(3) 0.1085(2)
O2B O 0.6449(4) -0.5982(3) -0.2279(2)
O2A O 0.6449(4) 0.0982(3) 0.2721(2)
O2C O 0.3551(4) -0.0982(3) -0.2721(2)
loop_
_geom_bond_atom_site_label_1
_geom_bond_atom_site_label_2
_geom_bond_site_symmetry_1
_geom_bond_site_symmetry_2
Cu1 N1 1_555 1_555
C1 H1 1_555 1_555
C2 C1 1_555 1_555
H2 C2 1_555 1_555
C3 C2 1_555 1_555
H3 C3 1_555 1_555
C4 C3 1_555 1_555
H4 C4 1_555 1_555
C5 C4 1_555 1_555
C6 C1 1_555 1_555
C7 C6 1_555 1_555
C8 C5 1_555 1_555
N1 C7 1_555 1_555
N2 C8 1_555 1_555
H5 N2 1_555 1_555
O1 C7 1_555 1_555
O2 C8 1_555 1_555
Cu1B Cu1 1_555 1_555
Cu1A O2 1_555 1_555
Cu1C O2B 1_555 1_555
C1B H1B 1_555 1_555
C2B C1B 1_555 1_555
H2B C2B 1_555 1_555
C3B C2B 1_555 1_555
H3B C3B 1_555 1_555
C4B C3B 1_555 1_555
H4B C4B 1_555 1_555
C5B C4B 1_555 1_555
C6B C1B 1_555 1_555
C7B C6B 1_555 1_555
C8B C5B 1_555 1_555
N1B Cu1B 1_555 1_555
N2B C8B 1_555 1_555
H5B N2B 1_555 1_555
O1B Cu1 1_555 1_555
O2B C8B 1_555 1_555
O2A Cu1 1_555 1_555
O2C Cu1B 1_555 1_555
C5 C6 1_555 1_555
N1 N2 1_555 1_555
O1 Cu1B 1_555 1_555
C5B C6B 1_555 1_555
C7B N1B 1_555 1_555
C7B O1B 1_555 1_555
N1B N2B 1_555 1_555

#END
