
#######################################################################
#
#                 Cambridge Crystallographic Data Centre
#                                CCDC 
#
#######################################################################
#
# If this CIF has been generated from an entry in the Cambridge 
# Structural Database, then it will include bibliographic, chemical, 
# crystal, experimental, refinement or atomic coordinate data resulting 
# from the CCDC's data processing and validation procedures.
#
#######################################################################

data_WUFFUZ
_symmetry_cell_setting           orthorhombic
_symmetry_space_group_name_H-M   'P 21 21 2'
_symmetry_Int_Tables_number      18
_space_group_name_Hall           'P 2 2ab'
loop_
_symmetry_equiv_pos_site_id
_symmetry_equiv_pos_as_xyz
1 x,y,z
2 -x,-y,z
3 1/2-x,1/2+y,-z
4 1/2+x,1/2-y,-z
_cell_length_a                   11.840(2)
_cell_length_b                   14.977(3)
_cell_length_c                   3.7771(8)
_cell_angle_alpha                90
_cell_angle_beta                 90
_cell_angle_gamma                90
_cell_volume                     669.784
loop_
_atom_site_label
_atom_site_type_symbol
_atom_site_fract_x
_atom_site_fract_y
_atom_site_fract_z
Pb1 Pb 0.5000 0.5000 0.70483(3)
C1 C 0.0827(2) 0.77575(19) 0.3494(9)
H1 H 0.0094 0.7795 0.4365
C2 C 0.1377(2) 0.69358(19) 0.3626(9)
C3 C 0.2486(2) 0.6876(2) 0.2362(8)
C4 C 0.2980(2) 0.7639(2) 0.0972(9)
H2 H 0.3712 0.7623 0.0086
C5 C 0.2362(2) 0.8422(2) 0.0926(10)
H3 H 0.2698 0.8930 -0.0024
C6 C 0.0812(3) 0.61505(19) 0.5051(10)
C7 C 0.3074(2) 0.6018(2) 0.2718(8)
O1 O -0.01843(17) 0.61482(15) 0.6090(9)
O2 O 0.41374(17) 0.59522(15) 0.1776(7)
N1 N 0.1304(2) 0.84917(17) 0.2176(7)
N2 N 0.1460(2) 0.54114(17) 0.5147(9)
H4 H 0.1141 0.4937 0.5955
N3 N 0.2581(2) 0.53207(17) 0.4097(9)
Pb1_2 Pb 0.5000 0.5000 -0.29517(3)
Pb1B Pb 0.0000 1.0000 0.29517(3)
Pb1_3 Pb 0.5000 0.5000 1.70483(3)
Pb1B_2 Pb 0.0000 1.0000 1.29517(3)
C1_2 C 0.0827(2) 0.77575(19) 1.3494(9)
H1_2 H 0.0094 0.7795 1.4365
C2_2 C 0.1377(2) 0.69358(19) 1.3626(9)
C3_2 C 0.2486(2) 0.6876(2) 1.2362(8)
C4_2 C 0.2980(2) 0.7639(2) 1.0972(9)
H2_2 H 0.3712 0.7623 1.0086
C5_2 C 0.2362(2) 0.8422(2) 1.0926(10)
H3_2 H 0.2698 0.8930 0.9976
C6_2 C 0.0812(3) 0.61505(19) 1.5051(10)
C7_2 C 0.3074(2) 0.6018(2) 1.2718(8)
O1_2 O -0.01843(17) 0.61482(15) 1.6090(9)
O2_2 O 0.41374(17) 0.59522(15) 1.1776(7)
O2A O 0.58626(17) 0.40478(15) 0.1776(7)
O2A_2 O 0.58626(17) 0.40478(15) 1.1776(7)
N1_2 N 0.1304(2) 0.84917(17) 1.2176(7)
N1B N 0.3696(2) 0.34917(17) 0.7824(7)
N1C N 0.6304(2) 0.65083(17) 0.7824(7)
N2_2 N 0.1460(2) 0.54114(17) 1.5147(9)
H4_2 H 0.1141 0.4937 1.5955
N3_2 N 0.2581(2) 0.53207(17) 1.4097(9)
loop_
_geom_bond_atom_site_label_1
_geom_bond_atom_site_label_2
_geom_bond_site_symmetry_1
_geom_bond_site_symmetry_2
Pb1 O2 1_555 1_555
C1 H1 1_555 1_555
C2 C1 1_555 1_555
C3 C2 1_555 1_555
C4 C3 1_555 1_555
H2 C4 1_555 1_555
C5 C4 1_555 1_555
H3 C5 1_555 1_555
C6 C2 1_555 1_555
C7 C3 1_555 1_555
O1 C6 1_555 1_555
O2 C7 1_555 1_555
N1 C1 1_555 1_555
N2 C6 1_555 1_555
H4 N2 1_555 1_555
N3 C7 1_555 1_555
Pb1_2 O2 1_555 1_555
Pb1B N1 1_555 1_555
Pb1_3 O2_2 1_555 1_555
Pb1B_2 N1_2 1_555 1_555
C1_2 H1_2 1_555 1_555
C2_2 C1_2 1_555 1_555
C3_2 C2_2 1_555 1_555
C4_2 C3_2 1_555 1_555
H2_2 C4_2 1_555 1_555
C5_2 C4_2 1_555 1_555
H3_2 C5_2 1_555 1_555
C6_2 C2_2 1_555 1_555
C7_2 C3_2 1_555 1_555
O1_2 C6_2 1_555 1_555
O2_2 Pb1 1_555 1_555
O2A Pb1 1_555 1_555
O2A_2 Pb1 1_555 1_555
N1_2 C1_2 1_555 1_555
N1B Pb1 1_555 1_555
N1C Pb1 1_555 1_555
N2_2 C6_2 1_555 1_555
H4_2 N2_2 1_555 1_555
N3_2 C7_2 1_555 1_555
C5 N1 1_555 1_555
N2 N3 1_555 1_555
Pb1_2 O2A 1_555 1_555
Pb1_3 O2A_2 1_555 1_555
C5_2 N1_2 1_555 1_555
C7_2 O2_2 1_555 1_555
N2_2 N3_2 1_555 1_555

#END
