
#######################################################################
#
#                 Cambridge Crystallographic Data Centre
#                                CCDC 
#
#######################################################################
#
# If this CIF has been generated from an entry in the Cambridge 
# Structural Database, then it will include bibliographic, chemical, 
# crystal, experimental, refinement or atomic coordinate data resulting 
# from the CCDC's data processing and validation procedures.
#
#######################################################################

data_WUFFIO
_symmetry_cell_setting           orthorhombic
_symmetry_space_group_name_H-M   'P 21 21 21'
_symmetry_Int_Tables_number      19
_space_group_name_Hall           'P 2ac 2ab'
loop_
_symmetry_equiv_pos_site_id
_symmetry_equiv_pos_as_xyz
1 x,y,z
2 1/2-x,-y,1/2+z
3 1/2+x,1/2-y,-z
4 -x,1/2+y,1/2-z
_cell_length_a                   11.5276(9)
_cell_length_b                   12.7878(10)
_cell_length_c                   28.285(2)
_cell_angle_alpha                90
_cell_angle_beta                 90
_cell_angle_gamma                90
_cell_volume                     4169.57
loop_
_atom_site_label
_atom_site_type_symbol
_atom_site_fract_x
_atom_site_fract_y
_atom_site_fract_z
I1 I 0.50063(4) 0.78534(4) 0.46773(2)
I2 I 0.09876(4) 0.41042(4) 0.14734(2)
I3 I 0.11459(5) 0.59585(4) 0.30876(2)
I4 I 0.56556(15) 0.30647(9) 0.51264(3)
Ca1 Ca 0.53455(11) 0.37203(10) 0.27820(5)
Ca2 Ca 0.55317(12) 0.66087(10) 0.31101(5)
O1 O 0.6580(4) 0.5048(4) 0.32742(16)
O2 O 0.7001(5) 0.3367(4) 0.33170(18)
O3 O 0.4226(4) 0.4116(4) 0.34390(16)
O4 O 0.4391(4) 0.5772(4) 0.36946(16)
O5 O 0.4838(4) 0.5378(4) 0.25134(16)
O6 O 0.4223(5) 0.6927(4) 0.22803(16)
O7 O 0.7622(4) 0.6802(4) 0.28044(16)
O8 O 0.6321(4) 0.7962(4) 0.25585(16)
O9 O 0.4242(4) 0.7994(4) 0.32275(16)
O10 O 0.3145(4) 0.9020(4) 0.27825(16)
O11 O 0.6681(5) 0.7372(4) 0.37170(18)
H1 H 0.716(6) 0.783(5) 0.364(3)
H2 H 0.632(6) 0.755(6) 0.3963(18)
N1 N 0.8513(6) 0.5710(5) 0.3712(2)
H3 H 0.9093 0.5919 0.3472
H4 H 0.7779 0.6077 0.3639
N2 N 0.4256(6) 0.5121(4) 0.4621(2)
H5 H 0.4539 0.5790 0.4488
H6 H 0.4922 0.4751 0.4765
N3 N 0.2892(5) 0.6171(4) 0.1571(2)
H7 H 0.2875 0.6855 0.1735
H8 H 0.2114 0.5849 0.1598
N4 N 0.9412(5) 0.7729(5) 0.2348(2)
H9 H 0.9849 0.8373 0.2425
H10 H 0.9402 0.7276 0.2632
N5 N 0.2588(5) 0.7619(5) 0.3864(2)
H11 H 0.3409 0.7607 0.3967
H12 H 0.2396 0.6934 0.3721
C1 C 0.7208(6) 0.4304(5) 0.3402(2)
C2 C 0.8318(6) 0.4551(5) 0.3680(2)
H13 H 0.8996 0.4219 0.3519
C3 C 0.8275(8) 0.4183(7) 0.4196(3)
H14 H 0.7466 0.4191 0.4313
H15 H 0.8577 0.3460 0.4221
C4 C 0.8989(14) 0.4893(11) 0.4475(5)
H16 H 0.9827 0.4784 0.4418
H17 H 0.8823 0.4838 0.4817
C5 C 0.8564(15) 0.5922(14) 0.4269(5)
H18 H 0.9110 0.6497 0.4343
H19 H 0.7788 0.6103 0.4394
C6 C 0.4157(6) 0.4818(5) 0.3747(2)
C7 C 0.3731(7) 0.4458(6) 0.4233(2)
H20 H 0.3953 0.3710 0.4283
C8 C 0.2421(7) 0.4584(7) 0.4310(3)
H21 H 0.1990 0.3970 0.4188
H22 H 0.2126 0.5224 0.4154
C9 C 0.2318(8) 0.4665(7) 0.4850(3)
H23 H 0.1578 0.5001 0.4942
H24 H 0.2362 0.3965 0.4999
C10 C 0.3337(8) 0.5329(6) 0.4991(3)
H25 H 0.3620 0.5130 0.5309
H26 H 0.3121 0.6078 0.4995
C11 C 0.4304(6) 0.5976(5) 0.2230(2)
C12 C 0.3783(6) 0.5474(5) 0.1796(2)
H27 H 0.3422 0.4790 0.1883
C13 C 0.4678(7) 0.5310(7) 0.1402(3)
H28 H 0.5022 0.4601 0.1418
H29 H 0.5305 0.5837 0.1419
C14 C 0.3950(10) 0.5447(8) 0.0946(4)
H30 H 0.4451 0.5608 0.0672
H31 H 0.3492 0.4810 0.0877
C15 C 0.3196(8) 0.6325(6) 0.1059(3)
H32 H 0.2491 0.6316 0.0859
H33 H 0.3605 0.6998 0.1011
C16 C 0.7340(6) 0.7567(5) 0.2558(2)
C17 C 0.8181(6) 0.8005(6) 0.2205(2)
H34 H 0.8082 0.8777 0.2167
C18 C 0.8031(10) 0.7417(9) 0.1718(4)
H35 H 0.7791 0.6682 0.1766
H36 H 0.7451 0.7772 0.1515
C19 C 0.9234(8) 0.7480(8) 0.1502(3)
H37 H 0.9417 0.8193 0.1389
H38 H 0.9335 0.6974 0.1241
C20 C 0.9976(7) 0.7173(7) 0.1949(3)
H39 H 0.9963 0.6407 0.2000
H40 H 1.0791 0.7403 0.1911
C21 C 0.3319(6) 0.8491(5) 0.3143(2)
C22 C 0.2389(6) 0.8479(5) 0.3520(2)
H41 H 0.1625 0.8356 0.3362
C23 C 0.2274(7) 0.9435(6) 0.3836(3)
H42 H 0.1725 0.9946 0.3698
H43 H 0.3036 0.9780 0.3880
C24 C 0.1817(8) 0.9015(9) 0.4305(3)
H44 H 0.2325 0.9242 0.4568
H45 H 0.1024 0.9282 0.4365
C25 C 0.1804(7) 0.7848(8) 0.4272(3)
H46 H 0.2100 0.7526 0.4566
H47 H 0.1010 0.7586 0.4211
Ca1C Ca 0.46545(11) 0.87203(10) 0.22180(5)
O6C O 0.5777(5) 0.1927(4) 0.27197(16)
O8C O 0.3679(4) 0.2962(4) 0.24415(16)
O10C O 0.6855(4) 0.4020(4) 0.22175(16)
O12 O 1.0987(5) 0.9338(4) 0.24099(19)
H67 H 1.141(4) 0.928(7) 0.2647(10)
H68 H 1.154(3) 0.924(6) 0.2225(8)
O13 O 0.6478(10) 0.6644(9) 0.0612(4)
H69 H 0.712(6) 0.670(13) 0.047(4)
H70 H 0.612(10) 0.691(12) 0.038(3)
I5? I 0.6104(12) 0.3290(8) 0.5192(3)
H48? H 0.8986 0.3795 0.4285
H49? H 0.7586 0.3742 0.4258
C26? C 0.8195(15) 0.5273(13) 0.4458(6)
H50? H 0.7378 0.5509 0.4479
H51? H 0.8516 0.5221 0.4782
C27? C 0.8904(16) 0.6024(14) 0.4161(6)
H52? H 0.8710 0.6763 0.4229
H53? H 0.9748 0.5912 0.4201
H54? H 0.4528 0.4647 0.1231
H55? H 0.5474 0.5290 0.1533
C28? C 0.452(3) 0.627(2) 0.1061(10)
H56? H 0.4877 0.6916 0.1193
H57? H 0.4844 0.6134 0.0743
H58? H 0.2921 0.7012 0.0943
H59? H 0.2860 0.5765 0.0860
H60? H 0.8127 0.8781 0.2242
C29? C 0.812(3) 0.784(3) 0.1740(13)
H61? H 0.8451 0.8431 0.1561
H62? H 0.7305 0.7729 0.1639
C30? C 0.884(3) 0.684(3) 0.1670(12)
H63? H 0.9006 0.6698 0.1332
H64? H 0.8468 0.6217 0.1814
H65? H 1.0432 0.6561 0.2057
H66? H 1.0477 0.7643 0.1760
loop_
_geom_bond_atom_site_label_1
_geom_bond_atom_site_label_2
_geom_bond_site_symmetry_1
_geom_bond_site_symmetry_2
Ca1 O1 1_555 1_555
Ca2 O1 1_555 1_555
O1 C1 1_555 1_555
O2 Ca1 1_555 1_555
O3 Ca1 1_555 1_555
O4 Ca2 1_555 1_555
O5 Ca1 1_555 1_555
O6 Ca2 1_555 1_555
O7 Ca2 1_555 1_555
O8 Ca2 1_555 1_555
O9 Ca2 1_555 1_555
O10 C21 1_555 1_555
O11 Ca2 1_555 1_555
H1 O11 1_555 1_555
H2 O11 1_555 1_555
N1 H3 1_555 1_555
H4 N1 1_555 1_555
N2 H5 1_555 1_555
H6 N2 1_555 1_555
N3 H7 1_555 1_555
H8 N3 1_555 1_555
N4 H9 1_555 1_555
H10 N4 1_555 1_555
N5 H11 1_555 1_555
H12 N5 1_555 1_555
C1 O2 1_555 1_555
C2 N1 1_555 1_555
H13 C2 1_555 1_555
C3 C2 1_555 1_555
H14 C3 1_555 1_555
H15 C3 1_555 1_555
C4 C3 1_555 1_555
H16 C4 1_555 1_555
H17 C4 1_555 1_555
C5 N1 1_555 1_555
H18 C5 1_555 1_555
H19 C5 1_555 1_555
C6 O3 1_555 1_555
C7 N2 1_555 1_555
H20 C7 1_555 1_555
C8 C7 1_555 1_555
H21 C8 1_555 1_555
H22 C8 1_555 1_555
C9 C8 1_555 1_555
H23 C9 1_555 1_555
H24 C9 1_555 1_555
C10 N2 1_555 1_555
H25 C10 1_555 1_555
H26 C10 1_555 1_555
C11 O5 1_555 1_555
C12 N3 1_555 1_555
H27 C12 1_555 1_555
C13 C12 1_555 1_555
H28 C13 1_555 1_555
H29 C13 1_555 1_555
C14 C13 1_555 1_555
H30 C14 1_555 1_555
H31 C14 1_555 1_555
C15 N3 1_555 1_555
H32 C15 1_555 1_555
H33 C15 1_555 1_555
C16 O7 1_555 1_555
C17 N4 1_555 1_555
H34 C17 1_555 1_555
C18 C17 1_555 1_555
H35 C18 1_555 1_555
H36 C18 1_555 1_555
C19 C18 1_555 1_555
H37 C19 1_555 1_555
H38 C19 1_555 1_555
C20 N4 1_555 1_555
H39 C20 1_555 1_555
H40 C20 1_555 1_555
C21 O9 1_555 1_555
C22 N5 1_555 1_555
H41 C22 1_555 1_555
C23 C22 1_555 1_555
H42 C23 1_555 1_555
H43 C23 1_555 1_555
C24 C23 1_555 1_555
H44 C24 1_555 1_555
H45 C24 1_555 1_555
C25 N5 1_555 1_555
H46 C25 1_555 1_555
H47 C25 1_555 1_555
O12 H67 1_555 1_555
H68 O12 1_555 1_555
O13 H69 1_555 1_555
H70 O13 1_555 1_555
Ca1C O6 1_555 1_555
O6C Ca1 1_555 1_555
O8C Ca1 1_555 1_555
O10C Ca1 1_555 1_555
Ca2 O5 1_555 1_555
O4 C6 1_555 1_555
O6 C11 1_555 1_555
O8 C16 1_555 1_555
O8 Ca1C 1_555 1_555
O10 Ca1C 1_555 1_555
C1 C2 1_555 1_555
C4 C5 1_555 1_555
C6 C7 1_555 1_555
C9 C10 1_555 1_555
C11 C12 1_555 1_555
C14 C15 1_555 1_555
C16 C17 1_555 1_555
C19 C20 1_555 1_555
C21 C22 1_555 1_555
C24 C25 1_555 1_555

#END
