
#######################################################################
#
#                 Cambridge Crystallographic Data Centre
#                                CCDC 
#
#######################################################################
#
# If this CIF has been generated from an entry in the Cambridge 
# Structural Database, then it will include bibliographic, chemical, 
# crystal, experimental, refinement or atomic coordinate data resulting 
# from the CCDC's data processing and validation procedures.
#
#######################################################################

data_WUFFEK
_symmetry_cell_setting           triclinic
_symmetry_space_group_name_H-M   'P -1'
_symmetry_Int_Tables_number      2
_space_group_name_Hall           '-P 1'
loop_
_symmetry_equiv_pos_site_id
_symmetry_equiv_pos_as_xyz
1 x,y,z
2 -x,-y,-z
_cell_length_a                   7.9839(11)
_cell_length_b                   8.3434(11)
_cell_length_c                   8.8441(13)
_cell_angle_alpha                71.380(5)
_cell_angle_beta                 88.458(5)
_cell_angle_gamma                66.184(4)
_cell_volume                     507.205
loop_
_atom_site_label
_atom_site_type_symbol
_atom_site_fract_x
_atom_site_fract_y
_atom_site_fract_z
Co1 Co 0.0000 1.0000 0.5000
N1 N 0.2687(2) 0.8866(2) 0.6299(2)
N2 N 0.8810(2) 0.0746(2) 0.6964(2)
C1 C 0.4140(2) 0.8397(3) 0.6904(2)
C2 C 0.6004(3) 0.7780(3) 0.7691(3)
C3 C 0.7036(2) 0.5683(3) 0.8382(2)
C4 C 0.6448(3) 0.4468(3) 0.8245(2)
C5 C 0.7535(3) 0.2388(3) 0.9045(2)
C6 C 0.8244(2) 0.1444(2) 0.7878(2)
O1 O 0.02105(18) 1.25018(18) 0.41358(16)
H1 H 0.0413 1.2954 0.4771
H2 H -0.0554 1.3393 0.3416
H3 H 0.5897 0.8291 0.8529
H4 H 0.6694 0.8293 0.6919
H5 H 0.8174 0.5253 0.8931
H6 H 0.5301 0.4889 0.7639
H7 H 0.6801 0.1848 0.9680
H8 H 0.8570 0.2189 0.9701
N1A N -0.2687(2) 1.1134(2) 0.3701(2)
N2A N -0.8810(2) 1.9254(2) 0.3036(2)
C1A C -0.4140(2) 1.1603(3) 0.3096(2)
C2A C -0.6004(3) 1.2220(3) 0.2309(3)
C3A C -0.7036(2) 1.4317(3) 0.1618(2)
C4A C -0.6448(3) 1.5532(3) 0.1755(2)
C5A C -0.7535(3) 1.7612(3) 0.0955(2)
C6A C -0.8244(2) 1.8556(2) 0.2122(2)
O1A O -0.02105(18) 0.74982(18) 0.58642(16)
H1A H -0.0413 0.7046 0.5229
H2A H 0.0554 0.6607 0.6584
H3A H -0.5897 1.1709 0.1471
H4A H -0.6694 1.1707 0.3081
H5A H -0.8174 1.4747 0.1069
H6A H -0.5301 1.5111 0.2361
H7A H -0.6801 1.8152 0.0320
H8A H -0.8570 1.7811 0.0299
Co1_2 Co -1.0000 2.0000 0.5000
Co1_3 Co 1.0000 0.0000 0.5000
N2_2 N -0.1190(2) 1.0746(2) 0.6964(2)
N2A_2 N 0.1190(2) 0.9254(2) 0.3036(2)
B1 B 0.7569(3) 0.7200(3) 0.2131(3)
F1 F 0.77132(18) 0.55820(17) 0.18696(15)
F2 F 0.8571(16) 0.6724(15) 0.3523(13)
F3 F 0.8368(13) 0.8076(13) 0.0834(11)
F4 F 0.5804(9) 0.8300(10) 0.2014(15)
F5? F 0.9052(8) 0.6606(13) 0.3357(11)
F6? F 0.7671(17) 0.8497(11) 0.0853(10)
F7? F 0.5866(9) 0.7929(11) 0.2810(16)
loop_
_geom_bond_atom_site_label_1
_geom_bond_atom_site_label_2
_geom_bond_site_symmetry_1
_geom_bond_site_symmetry_2
Co1 N1 1_555 1_555
N1 C1 1_555 1_555
N2 C6 1_555 1_555
C1 C2 1_555 1_555
C2 C3 1_555 1_555
C3 C4 1_555 1_555
C4 C5 1_555 1_555
C5 C6 1_555 1_555
O1 Co1 1_555 1_555
H1 O1 1_555 1_555
H2 O1 1_555 1_555
H3 C2 1_555 1_555
H4 C2 1_555 1_555
H5 C3 1_555 1_555
H6 C4 1_555 1_555
H7 C5 1_555 1_555
H8 C5 1_555 1_555
B1 F1 1_555 1_555
F2 B1 1_555 1_555
F3 B1 1_555 1_555
F4 B1 1_555 1_555
N1A Co1 1_555 1_555
N2A C6A 1_555 1_555
C1A N1A 1_555 1_555
C2A C1A 1_555 1_555
C3A C2A 1_555 1_555
C4A C3A 1_555 1_555
C5A C4A 1_555 1_555
C6A C5A 1_555 1_555
O1A Co1 1_555 1_555
H1A O1A 1_555 1_555
H2A O1A 1_555 1_555
H3A C2A 1_555 1_555
H4A C2A 1_555 1_555
H5A C3A 1_555 1_555
H6A C4A 1_555 1_555
H7A C5A 1_555 1_555
H8A C5A 1_555 1_555
Co1_2 N2A 1_555 1_555
Co1_3 N2 1_555 1_555
N2_2 Co1 1_555 1_555
N2A_2 Co1 1_555 1_555

#END
