
#######################################################################
#
#                 Cambridge Crystallographic Data Centre
#                                CCDC 
#
#######################################################################
#
# If this CIF has been generated from an entry in the Cambridge 
# Structural Database, then it will include bibliographic, chemical, 
# crystal, experimental, refinement or atomic coordinate data resulting 
# from the CCDC's data processing and validation procedures.
#
#######################################################################

data_WUFFOT
_symmetry_cell_setting           triclinic
_symmetry_space_group_name_H-M   'P -1'
_symmetry_Int_Tables_number      2
_space_group_name_Hall           '-P 1'
loop_
_symmetry_equiv_pos_site_id
_symmetry_equiv_pos_as_xyz
1 x,y,z
2 -x,-y,-z
_cell_length_a                   4.1197(2)
_cell_length_b                   12.4547(10)
_cell_length_c                   16.4720(8)
_cell_angle_alpha                99.219(4)
_cell_angle_beta                 91.433(4)
_cell_angle_gamma                93.907(4)
_cell_volume                     831.762
loop_
_atom_site_label
_atom_site_type_symbol
_atom_site_fract_x
_atom_site_fract_y
_atom_site_fract_z
Pb1 Pb 0.68466(5) 0.986504(19) 0.101134(13)
O1 O 0.9544(14) 1.1036(4) 0.0078(3)
O2 O 1.2930(16) 1.5308(4) 0.0961(4)
O3 O 0.1335(12) 1.0270(4) 0.1924(3)
O4 O 0.2230(18) 0.8802(6) 0.4814(4)
N1 N 0.7262(14) 1.2043(5) 0.1514(4)
N2 N 1.2158(16) 1.2601(5) -0.0161(4)
N3 N 1.2949(16) 1.3698(5) 0.0098(4)
H1 H 1.4182 1.4022 -0.0215
N4 N -0.2547(15) 0.8446(5) 0.2102(4)
N5 N 0.3238(15) 1.0451(5) 0.3240(4)
N6 N 0.3313(15) 1.0029(6) 0.3962(3)
H2 H 0.4496 1.0403 0.4360
C1 C 0.621(2) 1.2544(7) 0.2228(5)
H3 H 0.4918 1.2141 0.2543
C2 C 0.701(2) 1.3680(7) 0.2528(6)
H4 H 0.6304 1.4009 0.3033
C3 C 0.887(2) 1.4269(6) 0.2042(5)
H5 H 0.9394 1.5011 0.2212
C4 C 0.9949(16) 1.3748(5) 0.1296(4)
C5 C 0.9108(15) 1.2642(5) 0.1059(4)
C6 C 1.0301(17) 1.2081(5) 0.0298(4)
C7 C 1.2024(18) 1.4317(6) 0.0780(5)
C8 C -0.4196(19) 0.7508(6) 0.2157(5)
H6 H -0.5558 0.7176 0.1716
C9 C -0.397(2) 0.7012(6) 0.2839(5)
H7 H -0.5070 0.6339 0.2854
C10 C -0.203(2) 0.7544(7) 0.3514(5)
H8 H -0.1911 0.7246 0.3995
C11 C -0.0325(18) 0.8505(6) 0.3457(4)
C12 C -0.0571(17) 0.8932(5) 0.2727(4)
C13 C 0.1334(15) 0.9938(5) 0.2640(4)
C14 C 0.1792(19) 0.9119(7) 0.4120(4)
Pb1A Pb 1.31534(5) 1.013496(19) -0.101134(13)
Pb1_2 Pb -0.31534(5) 0.986504(19) 0.101134(13)
O1A O 1.0456(14) 0.8964(4) -0.0078(3)
O3_2 O 1.1335(12) 1.0270(4) 0.1924(3)
N4_2 N 0.7453(15) 0.8446(5) 0.2102(4)
loop_
_geom_bond_atom_site_label_1
_geom_bond_atom_site_label_2
_geom_bond_site_symmetry_1
_geom_bond_site_symmetry_2
Pb1 O1 1_555 1_555
O1 C6 1_555 1_555
O2 C7 1_555 1_555
O3 Pb1 1_555 1_555
O4 C14 1_555 1_555
N1 Pb1 1_555 1_555
N2 N3 1_555 1_555
N3 H1 1_555 1_555
N4 C8 1_555 1_555
N5 N6 1_555 1_555
N6 H2 1_555 1_555
C1 N1 1_555 1_555
H3 C1 1_555 1_555
C2 C1 1_555 1_555
H4 C2 1_555 1_555
C3 C2 1_555 1_555
H5 C3 1_555 1_555
C4 C3 1_555 1_555
C5 N1 1_555 1_555
C6 N2 1_555 1_555
C7 N3 1_555 1_555
C8 H6 1_555 1_555
C9 C8 1_555 1_555
H7 C9 1_555 1_555
C10 C9 1_555 1_555
H8 C10 1_555 1_555
C11 C10 1_555 1_555
C12 N4 1_555 1_555
C13 O3 1_555 1_555
C14 N6 1_555 1_555
Pb1A O1 1_555 1_555
Pb1_2 O3 1_555 1_555
O1A Pb1 1_555 1_555
O3_2 Pb1 1_555 1_555
N4_2 Pb1 1_555 1_555
N4 Pb1_2 1_555 1_555
N5 C13 1_555 1_555
C4 C5 1_555 1_555
C4 C7 1_555 1_555
C5 C6 1_555 1_555
C11 C12 1_555 1_555
C11 C14 1_555 1_555
C12 C13 1_555 1_555
Pb1A O1A 1_555 1_555

#END
