
#######################################################################
#
#                 Cambridge Crystallographic Data Centre
#                                CCDC 
#
#######################################################################
#
# If this CIF has been generated from an entry in the Cambridge 
# Structural Database, then it will include bibliographic, chemical, 
# crystal, experimental, refinement or atomic coordinate data resulting 
# from the CCDC's data processing and validation procedures.
#
#######################################################################

data_WUFHIQ
_symmetry_cell_setting           monoclinic
_symmetry_space_group_name_H-M   'P 21/c'
_symmetry_Int_Tables_number      14
_space_group_name_Hall           '-P 2ybc'
loop_
_symmetry_equiv_pos_site_id
_symmetry_equiv_pos_as_xyz
1 x,y,z
2 -x,1/2+y,1/2-z
3 -x,-y,-z
4 x,1/2-y,1/2+z
_cell_length_a                   8.530(2)
_cell_length_b                   11.729(3)
_cell_length_c                   14.543(3)
_cell_angle_alpha                90
_cell_angle_beta                 91.071(4)
_cell_angle_gamma                90
_cell_volume                     1454.75
loop_
_atom_site_label
_atom_site_type_symbol
_atom_site_fract_x
_atom_site_fract_y
_atom_site_fract_z
Zn1 Zn 0.36079(2) 1.071598(16) 0.518234(13)
C1 C 0.0542(2) 0.76992(15) 0.01984(12)
O1 O 0.30645(18) 1.00982(14) 0.39150(10)
N1 N -0.16911(17) 0.67024(12) -0.04085(10)
O2 O 0.51272(17) 0.89955(14) 0.36458(10)
C2 C 0.1437(2) 0.81265(15) 0.10219(13)
C3 C 0.3016(2) 0.89857(16) 0.25752(13)
O3 O 0.28663(19) 0.57991(11) 0.07241(13)
C4 C 0.0963(2) 0.7976(2) -0.06844(15)
H1 H 0.1865 0.8401 -0.0783
C5 C 0.3679(2) 0.81350(15) 0.20520(13)
H2 H 0.4669 0.7860 0.2214
C6 C 0.2894(2) 0.76809(15) 0.12864(12)
C7 C -0.1274(2) 0.69821(18) -0.12590(13)
H3 H -0.1889 0.6737 -0.1755
O4 O 0.49673(19) 0.68551(13) 0.04812(12)
C8 C 0.0043(3) 0.7623(2) -0.14208(14)
H4 H 0.0309 0.7816 -0.2018
C9 C 0.1574(3) 0.94310(18) 0.23021(16)
H5 H 0.1125 1.0015 0.2640
C10 C 0.3800(2) 0.93978(15) 0.34476(13)
C11 C -0.0797(2) 0.70647(15) 0.03009(13)
H6 H -0.1099 0.6877 0.0893
C12 C 0.0808(2) 0.90119(19) 0.15352(15)
H7 H -0.0151 0.9326 0.1355
C13 C 0.3638(2) 0.67025(16) 0.07804(13)
Zn1A Zn -0.36079(2) 0.571598(16) -0.018234(13)
Zn1A_2 Zn 0.63921(2) 0.571598(16) -0.018234(13)
Zn1B Zn 0.63921(2) 0.928402(16) 0.481766(13)
Zn1C Zn 0.36079(2) 0.428402(16) 0.018234(13)
N1A N 0.16911(17) 1.17024(12) 0.54085(10)
O2B O 0.48728(17) 1.10045(14) 0.63542(10)
O3C O 0.28663(19) 0.92009(11) 0.57241(13)
O4A O 0.50327(19) 1.18551(13) 0.45188(12)
loop_
_geom_bond_atom_site_label_1
_geom_bond_atom_site_label_2
_geom_bond_site_symmetry_1
_geom_bond_site_symmetry_2
Zn1 O1 1_555 1_555
C1 C2 1_555 1_555
O1 C10 1_555 1_555
N1 C7 1_555 1_555
O2 C10 1_555 1_555
C2 C6 1_555 1_555
C3 C5 1_555 1_555
O3 C13 1_555 1_555
C4 C1 1_555 1_555
H1 C4 1_555 1_555
C5 H2 1_555 1_555
C6 C5 1_555 1_555
C7 H3 1_555 1_555
O4 C13 1_555 1_555
C8 C4 1_555 1_555
H4 C8 1_555 1_555
C9 C3 1_555 1_555
H5 C9 1_555 1_555
C10 C3 1_555 1_555
C11 C1 1_555 1_555
H6 C11 1_555 1_555
C12 C2 1_555 1_555
H7 C12 1_555 1_555
C13 C6 1_555 1_555
Zn1A N1 1_555 1_555
Zn1A_2 O4 1_555 1_555
Zn1B O2 1_555 1_555
Zn1C O3 1_555 1_555
N1A Zn1 1_555 1_555
O2B Zn1 1_555 1_555
O3C Zn1 1_555 1_555
O4A Zn1 1_555 1_555
N1 C11 1_555 1_555
C7 C8 1_555 1_555
C9 C12 1_555 1_555

#END
