
#######################################################################
#
#                 Cambridge Crystallographic Data Centre
#                                CCDC 
#
#######################################################################
#
# If this CIF has been generated from an entry in the Cambridge 
# Structural Database, then it will include bibliographic, chemical, 
# crystal, experimental, refinement or atomic coordinate data resulting 
# from the CCDC's data processing and validation procedures.
#
#######################################################################

data_WUFJUE
_symmetry_cell_setting           triclinic
_symmetry_space_group_name_H-M   'P -1'
_symmetry_Int_Tables_number      2
_space_group_name_Hall           '-P 1'
loop_
_symmetry_equiv_pos_site_id
_symmetry_equiv_pos_as_xyz
1 x,y,z
2 -x,-y,-z
_cell_length_a                   6.8779(7)
_cell_length_b                   9.2233(9)
_cell_length_c                   14.0067(17)
_cell_angle_alpha                93.438(9)
_cell_angle_beta                 103.297(10)
_cell_angle_gamma                101.849(9)
_cell_volume                     840.919
loop_
_atom_site_label
_atom_site_type_symbol
_atom_site_fract_x
_atom_site_fract_y
_atom_site_fract_z
Zn1 Zn 0.40555(6) 0.68999(4) 0.20652(3)
O1 O 0.6026(4) 0.9275(2) 0.22429(19)
O2 O 0.7107(4) 0.7351(2) 0.28407(18)
O3 O 1.0879(4) 0.8124(3) 0.19054(18)
O4 O 1.2854(4) 0.7392(3) 0.31735(19)
O5 O 0.8404(5) 1.4067(3) 0.3887(2)
N1 N 1.0889(5) 1.3322(3) 0.5002(2)
H1 H 1.1665 1.3559 0.5590
N2 N 0.3318(4) 0.6774(3) 0.0545(2)
N3 N 0.3280(4) 0.4618(3) 0.16947(19)
C1 C 0.7379(5) 0.8733(3) 0.2764(2)
C2 C 0.9347(5) 0.9741(3) 0.3362(2)
C3 C 1.1217(5) 0.9344(3) 0.3491(2)
C4 C 1.2938(5) 1.0246(3) 0.4141(2)
H2 H 1.4193 0.9975 0.4237
C5 C 1.2806(5) 1.1547(3) 0.4649(2)
H3 H 1.3960 1.2135 0.5092
C6 C 1.0950(5) 1.1965(3) 0.4494(2)
C7 C 0.9210(5) 1.1055(3) 0.3856(2)
H4 H 0.7955 1.1326 0.3761
C8 C 1.1609(5) 0.8166(3) 0.2806(3)
C9 C 0.9735(6) 1.4273(4) 0.4651(2)
C10 C 0.3397(6) 0.7931(4) 0.0015(3)
H5 H 0.3852 0.8889 0.0347
C11 C 0.2838(6) 0.7771(4) -0.0995(3)
H6 H 0.2912 0.8602 -0.1341
C12 C 0.2162(6) 0.6350(5) -0.1488(3)
H7 H 0.1777 0.6210 -0.2175
C13 C 0.2065(6) 0.5144(4) -0.0954(3)
H8 H 0.1613 0.4179 -0.1275
C14 C 0.2651(5) 0.5381(3) 0.0071(2)
C15 C 0.2626(5) 0.4180(3) 0.0717(2)
C16 C 0.1961(6) 0.2668(3) 0.0363(3)
H9 H 0.1478 0.2367 -0.0311
C17 C 0.2034(7) 0.1634(4) 0.1029(3)
H10 H 0.1591 0.0622 0.0808
C18 C 0.2759(7) 0.2094(4) 0.2015(3)
H11 H 0.2842 0.1401 0.2469
C19 C 0.3358(7) 0.3582(4) 0.2326(3)
H12 H 0.3839 0.3889 0.2999
O1A O 1.3974(4) 2.0725(2) 0.77571(19)
O2A O 1.2893(4) 2.2649(2) 0.71593(18)
O3A O 0.9121(4) 2.1876(3) 0.80946(18)
O4A O 0.7146(4) 2.2608(3) 0.68265(19)
O5A O 1.1596(5) 1.5933(3) 0.6113(2)
N1A N 0.9111(5) 1.6678(3) 0.4998(2)
H1A H 0.8335 1.6441 0.4410
C1A C 1.2621(5) 2.1267(3) 0.7236(2)
C2A C 1.0653(5) 2.0259(3) 0.6638(2)
C3A C 0.8783(5) 2.0656(3) 0.6509(2)
C4A C 0.7062(5) 1.9754(3) 0.5859(2)
H2A H 0.5807 2.0025 0.5763
C5A C 0.7194(5) 1.8453(3) 0.5351(2)
H3A H 0.6040 1.7865 0.4908
C6A C 0.9050(5) 1.8035(3) 0.5506(2)
C7A C 1.0790(5) 1.8945(3) 0.6144(2)
H4A H 1.2045 1.8674 0.6239
C8A C 0.8391(5) 2.1834(3) 0.7194(3)
C9A C 1.0265(6) 1.5727(4) 0.5349(2)
Zn1A Zn 0.59445(6) 2.31001(4) 0.79348(3)
N2A N 0.6682(4) 2.3226(3) 0.9455(2)
N3A N 0.6720(4) 2.5382(3) 0.83053(19)
C10A C 0.6603(6) 2.2069(4) 0.9985(3)
H5A H 0.6148 2.1111 0.9653
C11A C 0.7162(6) 2.2229(4) 1.0995(3)
H6A H 0.7088 2.1398 1.1341
C12A C 0.7838(6) 2.3650(5) 1.1488(3)
H7A H 0.8223 2.3790 1.2175
C13A C 0.7935(6) 2.4856(4) 1.0954(3)
H8A H 0.8387 2.5821 1.1275
C14A C 0.7349(5) 2.4619(3) 0.9929(2)
C15A C 0.7374(5) 2.5820(3) 0.9283(2)
C16A C 0.8039(6) 2.7332(3) 0.9637(3)
H9A H 0.8522 2.7633 1.0311
C17A C 0.7966(7) 2.8366(4) 0.8971(3)
H10A H 0.8409 2.9378 0.9192
C18A C 0.7241(7) 2.7906(4) 0.7985(3)
H11A H 0.7158 2.8599 0.7531
C19A C 0.6642(7) 2.6418(4) 0.7674(3)
H12A H 0.6161 2.6111 0.7001
Zn1_2 Zn 1.40555(6) 0.68999(4) 0.20652(3)
Zn1A_2 Zn 1.59445(6) 2.31001(4) 0.79348(3)
O1A_2 O 0.3974(4) 2.0725(2) 0.77571(19)
O2A_2 O 0.2893(4) 2.2649(2) 0.71593(18)
O4_2 O 0.2854(4) 0.7392(3) 0.31735(19)
loop_
_geom_bond_atom_site_label_1
_geom_bond_atom_site_label_2
_geom_bond_site_symmetry_1
_geom_bond_site_symmetry_2
Zn1 O1 1_555 1_555
O1 C1 1_555 1_555
O2 Zn1 1_555 1_555
O3 C8 1_555 1_555
O4 C8 1_555 1_555
O5 C9 1_555 1_555
N1 H1 1_555 1_555
N2 Zn1 1_555 1_555
N3 Zn1 1_555 1_555
C1 O2 1_555 1_555
C2 C1 1_555 1_555
C3 C2 1_555 1_555
C4 C3 1_555 1_555
H2 C4 1_555 1_555
C5 C4 1_555 1_555
H3 C5 1_555 1_555
C6 N1 1_555 1_555
C7 C2 1_555 1_555
H4 C7 1_555 1_555
C8 C3 1_555 1_555
C9 N1 1_555 1_555
C10 N2 1_555 1_555
H5 C10 1_555 1_555
C11 C10 1_555 1_555
H6 C11 1_555 1_555
C12 C11 1_555 1_555
H7 C12 1_555 1_555
C13 C12 1_555 1_555
H8 C13 1_555 1_555
C14 N2 1_555 1_555
C15 N3 1_555 1_555
C16 C15 1_555 1_555
H9 C16 1_555 1_555
C17 C16 1_555 1_555
H10 C17 1_555 1_555
C18 C17 1_555 1_555
H11 C18 1_555 1_555
C19 N3 1_555 1_555
H12 C19 1_555 1_555
O1A C1A 1_555 1_555
O2A C1A 1_555 1_555
O3A C8A 1_555 1_555
O4A C8A 1_555 1_555
O5A C9A 1_555 1_555
N1A H1A 1_555 1_555
C1A C2A 1_555 1_555
C2A C3A 1_555 1_555
C3A C4A 1_555 1_555
C4A H2A 1_555 1_555
C5A C4A 1_555 1_555
H3A C5A 1_555 1_555
C6A N1A 1_555 1_555
C7A C2A 1_555 1_555
H4A C7A 1_555 1_555
C8A C3A 1_555 1_555
C9A C9 1_555 1_555
Zn1A O4A 1_555 1_555
N2A Zn1A 1_555 1_555
N3A Zn1A 1_555 1_555
C10A N2A 1_555 1_555
H5A C10A 1_555 1_555
C11A C10A 1_555 1_555
H6A C11A 1_555 1_555
C12A C11A 1_555 1_555
H7A C12A 1_555 1_555
C13A C12A 1_555 1_555
H8A C13A 1_555 1_555
C14A N2A 1_555 1_555
C15A N3A 1_555 1_555
C16A C15A 1_555 1_555
H9A C16A 1_555 1_555
C17A C16A 1_555 1_555
H10A C17A 1_555 1_555
C18A C17A 1_555 1_555
H11A C18A 1_555 1_555
C19A N3A 1_555 1_555
H12A C19A 1_555 1_555
Zn1_2 O4 1_555 1_555
Zn1A_2 O1A 1_555 1_555
O1A_2 Zn1A 1_555 1_555
O2A_2 Zn1A 1_555 1_555
O4_2 Zn1 1_555 1_555
C5 C6 1_555 1_555
C6 C7 1_555 1_555
C13 C14 1_555 1_555
C14 C15 1_555 1_555
C18 C19 1_555 1_555
O2A Zn1A_2 1_555 1_555
N1A C9A 1_555 1_555
C5A C6A 1_555 1_555
C6A C7A 1_555 1_555
C13A C14A 1_555 1_555
C14A C15A 1_555 1_555
C18A C19A 1_555 1_555

#END
