
#######################################################################
#
#                 Cambridge Crystallographic Data Centre
#                                CCDC 
#
#######################################################################
#
# If this CIF has been generated from an entry in the Cambridge 
# Structural Database, then it will include bibliographic, chemical, 
# crystal, experimental, refinement or atomic coordinate data resulting 
# from the CCDC's data processing and validation procedures.
#
#######################################################################

data_WUFJIS
_symmetry_cell_setting           triclinic
_symmetry_space_group_name_H-M   'P -1'
_symmetry_Int_Tables_number      2
_space_group_name_Hall           '-P 1'
loop_
_symmetry_equiv_pos_site_id
_symmetry_equiv_pos_as_xyz
1 x,y,z
2 -x,-y,-z
_cell_length_a                   8.1860(10)
_cell_length_b                   8.4100(10)
_cell_length_c                   10.0800(10)
_cell_angle_alpha                80.738(2)
_cell_angle_beta                 71.156(2)
_cell_angle_gamma                81.416(2)
_cell_volume                     644.669
loop_
_atom_site_label
_atom_site_type_symbol
_atom_site_fract_x
_atom_site_fract_y
_atom_site_fract_z
Ni1 Ni 0.75637(4) 0.35316(4) 0.56665(3)
O1 O 0.7206(2) 0.3321(2) 1.36965(18)
O2 O 0.9759(2) 0.2827(2) 1.40066(18)
O3 O 0.7937(3) 0.5973(3) 0.4935(3)
O4 O 0.8869(2) 0.3609(2) 0.70733(18)
C1 C 0.9628(3) 0.2723(3) 1.1677(2)
O5 O 0.6598(3) 0.4010(3) 0.8978(2)
O6 O 0.5158(3) 0.4216(3) 0.6951(2)
C2 C 0.8158(3) 0.3648(3) 0.8405(3)
C3 C 1.4010(4) 0.1732(3) 1.1971(3)
H1 H 1.4396 0.2676 1.1410
C4 C 0.9330(3) 0.3167(3) 0.9318(3)
C5 C 1.2454(3) 0.1227(3) 1.2020(3)
C6 C 1.1963(3) -0.0209(3) 1.2844(3)
H2 H 1.0904 -0.0534 1.2900
C7 C 1.2057(4) 0.2049(4) 0.9678(3)
H3 H 1.3218 0.1669 0.9301
C8 C 1.4978(4) 0.0804(4) 1.2773(3)
H4 H 1.6001 0.1143 1.2790
C9 C 1.1357(3) 0.2059(3) 1.1126(3)
N1 N 1.2934(3) -0.1155(3) 1.3566(2)
C10 C 1.4411(4) -0.0632(3) 1.3548(3)
H5 H 1.5077 -0.1255 1.4075
C11 C 0.8825(3) 0.2952(3) 1.3205(3)
C12 C 0.8642(3) 0.3257(3) 1.0765(3)
C13 C 1.1064(4) 0.2592(4) 0.8781(3)
H6 H 1.1563 0.2572 0.7813
H7 H 0.537(4) 0.430(4) 0.752(4)
H8 H 0.453(5) 0.504(5) 0.677(4)
H9 H 0.870(5) 0.602(4) 0.428(4)
H10 H 0.808(5) 0.640(5) 0.546(5)
H11 H 0.757(3) 0.367(3) 1.115(3)
Ni1_2 Ni 0.75637(4) 0.35316(4) 1.56665(3)
Ni1A Ni 1.24363(4) -0.35316(4) 1.43335(3)
O1_2 O 0.7206(2) 0.3321(2) 0.36965(18)
O2_2 O 0.9759(2) 0.2827(2) 0.40066(18)
N1A N 0.7066(3) 0.1155(3) 0.6434(2)
loop_
_geom_bond_atom_site_label_1
_geom_bond_atom_site_label_2
_geom_bond_site_symmetry_1
_geom_bond_site_symmetry_2
Ni1 O3 1_555 1_555
O1 C11 1_555 1_555
O2 C11 1_555 1_555
O3 H9 1_555 1_555
O4 Ni1 1_555 1_555
C1 C9 1_555 1_555
O5 C2 1_555 1_555
O6 Ni1 1_555 1_555
C2 O4 1_555 1_555
C3 H1 1_555 1_555
C4 C2 1_555 1_555
C5 C3 1_555 1_555
C6 C5 1_555 1_555
H2 C6 1_555 1_555
C7 H3 1_555 1_555
C8 C3 1_555 1_555
H4 C8 1_555 1_555
C9 C5 1_555 1_555
N1 C6 1_555 1_555
C10 C8 1_555 1_555
H5 C10 1_555 1_555
C11 C1 1_555 1_555
C12 C1 1_555 1_555
C13 C4 1_555 1_555
H6 C13 1_555 1_555
H7 O6 1_555 1_555
H8 O6 1_555 1_555
H10 O3 1_555 1_555
H11 C12 1_555 1_555
Ni1_2 O1 1_555 1_555
Ni1A N1 1_555 1_555
O1_2 Ni1 1_555 1_555
O2_2 Ni1 1_555 1_555
N1A Ni1 1_555 1_555
O2 Ni1_2 1_555 1_555
C4 C12 1_555 1_555
C7 C9 1_555 1_555
C7 C13 1_555 1_555
N1 C10 1_555 1_555

#END
