
#######################################################################
#
#                 Cambridge Crystallographic Data Centre
#                                CCDC 
#
#######################################################################
#
# If this CIF has been generated from an entry in the Cambridge 
# Structural Database, then it will include bibliographic, chemical, 
# crystal, experimental, refinement or atomic coordinate data resulting 
# from the CCDC's data processing and validation procedures.
#
#######################################################################

data_WUFLOZ
_symmetry_cell_setting           orthorhombic
_symmetry_space_group_name_H-M   'P 21 21 21'
_symmetry_Int_Tables_number      19
_space_group_name_Hall           'P 2ac 2ab'
loop_
_symmetry_equiv_pos_site_id
_symmetry_equiv_pos_as_xyz
1 x,y,z
2 1/2-x,-y,1/2+z
3 1/2+x,1/2-y,-z
4 -x,1/2+y,1/2-z
_cell_length_a                   11.395(2)
_cell_length_b                   19.395(4)
_cell_length_c                   30.675(6)
_cell_angle_alpha                90
_cell_angle_beta                 90
_cell_angle_gamma                90
_cell_volume                     6779.36
loop_
_atom_site_label
_atom_site_type_symbol
_atom_site_fract_x
_atom_site_fract_y
_atom_site_fract_z
Co1 Co 0.18449(4) 0.20643(2) 1.577922(13)
Co2 Co 0.09845(3) 0.07018(2) 1.229330(13)
Co3 Co 0.32918(3) 0.21065(2) 1.942200(12)
S1 S 0.11895(9) 0.37002(5) 1.37068(3)
S2 S 0.37045(9) 0.39534(5) 1.18220(3)
O1 O -0.0052(3) 0.38329(16) 1.36423(12)
O2 O 0.1851(4) 0.3812(2) 1.33264(15)
O3 O 0.1600(4) 0.40690(18) 1.40866(14)
O4 O 0.2435(4) 0.11316(18) 1.48787(9)
O5 O 0.1590(2) 0.20987(13) 1.51069(7)
O6 O 0.1695(3) 0.04939(14) 1.33239(9)
O7 O 0.1000(2) 0.12866(12) 1.28679(7)
O8 O 0.4656(4) 0.4299(2) 1.16022(13)
O9 O 0.2677(4) 0.4356(2) 1.18556(16)
O10 O 0.4083(4) 0.3659(2) 1.22250(10)
O11 O 0.11799(19) 0.16007(12) 1.19197(7)
O12 O 0.0867(3) 0.12930(17) 1.12327(9)
O13 O 0.3317(2) 0.22219(12) 1.00850(7)
O14 O 0.4733(2) 0.29727(18) 1.02314(8)
O15 O 0.3483(2) 0.15863(16) 1.56758(8)
H1 H 0.388(3) 0.177(2) 1.5475(10)
H2 H 0.393(3) 0.136(2) 1.5848(10)
O16 O 0.0205(3) 0.25817(13) 1.58370(10)
H3 H 0.005(4) 0.2722(18) 1.6093(5)
H4 H -0.002(4) 0.2896(16) 1.5658(9)
O17 O 0.1031(2) -0.02315(13) 1.26242(8)
H5 H 0.043(2) -0.0491(18) 1.2622(11)
H6 H 0.114(3) -0.006(2) 1.2876(6)
O18 O 0.1063(2) 0.00938(14) 1.16933(9)
H7 H 0.077(3) -0.0305(10) 1.1651(15)
H8 H 0.1807(9) 0.0077(18) 1.1684(15)
O19 O 0.1793(2) 0.14735(13) 1.95105(9)
H9 H 0.1147(19) 0.1666(16) 1.9565(14)
H10 H 0.180(3) 0.1057(8) 1.9586(14)
O20 O 0.4812(2) 0.27602(14) 1.93829(8)
H11 H 0.512(3) 0.3086(15) 1.9244(9)
H12 H 0.491(4) 0.2802(19) 1.9655(4)
N1 N 0.2147(3) 0.20533(16) 1.64684(8)
N2 N 0.3201(3) 0.19791(16) 1.87326(8)
N3 N 0.2654(3) 0.30537(15) 1.57339(10)
N4 N 0.5565(3) 0.62544(14) 1.55420(10)
N5 N -0.0919(2) 0.07227(14) 1.22822(9)
N6 N -0.7116(2) 0.06919(15) 1.22954(10)
N7 N -0.2158(3) -0.20237(15) 1.56553(10)
N8 N 0.0990(3) 0.10879(14) 1.58412(9)
C1 C 0.1329(3) 0.28118(18) 1.38308(11)
C2 C 0.1533(3) 0.26043(19) 1.42563(11)
H13 H 0.1561 0.2930 1.4479
C3 C 0.1696(3) 0.19121(18) 1.43501(10)
C4 C 0.1656(3) 0.14284(19) 1.40211(10)
H14 H 0.1782 0.0966 1.4087
C5 C 0.1429(3) 0.16221(18) 1.35907(10)
C6 C 0.1265(3) 0.23250(18) 1.34959(10)
H15 H 0.1115 0.2465 1.3211
C7 C 0.1922(3) 0.1688(2) 1.48155(10)
C8 C 0.1368(3) 0.10905(18) 1.32347(10)
C9 C 0.3310(3) 0.32410(17) 1.14848(10)
C10 C 0.2524(3) 0.27434(18) 1.16377(10)
H16 H 0.2239 0.2769 1.1921
C11 C 0.2174(3) 0.22151(18) 1.13674(9)
C12 C 0.2614(3) 0.21853(18) 1.09407(10)
H17 H 0.2370 0.1835 1.0755
C13 C 0.3405(3) 0.26715(18) 1.07946(9)
C14 C 0.3770(3) 0.32007(18) 1.10669(10)
H18 H 0.4315 0.3524 1.0971
C15 C 0.1355(3) 0.16531(19) 1.15176(10)
C16 C 0.3876(3) 0.26178(18) 1.03369(9)
C17 C 0.3192(3) 0.2235(2) 1.66298(11)
H19 H 0.3770 0.2387 1.6438
C18 C 0.3447(3) 0.2207(2) 1.70706(11)
H20 H 0.4183 0.2342 1.7170
C19 C 0.1343(3) 0.18247(19) 1.67517(10)
H21 H 0.0619 0.1683 1.6644
C20 C 0.1534(3) 0.1788(2) 1.71936(11)
H22 H 0.0943 0.1636 1.7379
C21 C 0.3577(4) 0.2438(2) 1.80243(12)
H23 H 0.3970 0.2760 1.7854
C22 C 0.3712(4) 0.2437(2) 1.84710(12)
H24 H 0.4184 0.2774 1.8596
C23 C 0.2313(4) 0.1479(2) 1.81027(12)
H25 H 0.1821 0.1146 1.7984
C24 C 0.2508(4) 0.1500(2) 1.85470(12)
H26 H 0.2149 0.1173 1.8724
C25 C 0.2617(3) 0.1982(2) 1.73598(10)
C26 C 0.2856(3) 0.1959(2) 1.78338(10)
C27 C 0.3427(4) 0.3176(2) 1.54157(12)
H27 H 0.3600 0.2824 1.5220
C28 C 0.3973(4) 0.37987(19) 1.53659(13)
H28 H 0.4509 0.3861 1.5141
C29 C 0.2411(4) 0.3575(2) 1.60051(14)
H29 H 0.1866 0.3500 1.6226
C30 C 0.2921(4) 0.4213(2) 1.59759(13)
H30 H 0.2725 0.4558 1.6173
C31 C 0.5283(4) 0.5086(2) 1.53238(13)
H31 H 0.5521 0.4718 1.5151
C32 C 0.5862(3) 0.5703(2) 1.52991(12)
H32 H 0.6488 0.5744 1.5106
C33 C 0.4017(4) 0.5587(2) 1.58447(17)
H33 H 0.3387 0.5567 1.6037
C34 C 0.4634(4) 0.6188(2) 1.57945(17)
H34 H 0.4380 0.6574 1.5948
C35 C 0.3734(3) 0.43376(18) 1.56488(11)
C36 C 0.4337(3) 0.50072(18) 1.56079(12)
C37 C -0.1534(3) 0.0949(3) 1.26173(13)
H35 H -0.1126 0.1099 1.2862
C38 C -0.2743(3) 0.0976(3) 1.26273(13)
H36 H -0.3128 0.1171 1.2864
C39 C -0.1538(3) 0.0469(3) 1.19517(14)
H37 H -0.1133 0.0293 1.1713
C40 C -0.2745(3) 0.0452(3) 1.19430(16)
H38 H -0.3131 0.0262 1.1704
C41 C -0.5309(3) 0.1291(2) 1.23815(13)
H39 H -0.4921 0.1702 1.2442
C42 C -0.6521(3) 0.12685(19) 1.23860(12)
H40 H -0.6936 0.1667 1.2454
C43 C -0.5301(3) 0.0111(2) 1.21888(15)
H41 H -0.4915 -0.0293 1.2112
C44 C -0.6509(3) 0.0131(2) 1.22076(14)
H42 H -0.6919 -0.0275 1.2155
C45 C -0.3377(3) 0.07107(19) 1.22819(12)
C46 C -0.4672(3) 0.0702(2) 1.22866(12)
C47 C -0.2400(4) -0.1443(2) 1.54284(14)
H43 H -0.3020 -0.1452 1.5231
C48 C -0.1779(5) -0.0844(2) 1.54741(16)
H44 H -0.1976 -0.0457 1.5311
C49 C -0.1263(3) -0.19999(18) 1.59305(13)
H45 H -0.1073 -0.2396 1.6086
C50 C -0.0598(3) -0.1412(2) 1.59973(14)
H46 H 0.0015 -0.1418 1.6197
C51 C -0.0788(3) 0.0453(2) 1.57883(16)
H47 H -0.1601 0.0459 1.5760
C52 C -0.0175(3) 0.10574(19) 1.58009(14)
H48 H -0.0590 0.1469 1.5780
C53 C 0.1003(4) -0.0146(2) 1.58784(15)
H49 H 0.1434 -0.0551 1.5908
C54 C 0.1548(4) 0.0496(2) 1.58924(15)
H50 H 0.2353 0.0509 1.5941
C55 C -0.0841(3) -0.08212(18) 1.57701(13)
C56 C -0.0204(3) -0.01632(18) 1.58180(12)
N6_2 N 0.2884(2) 0.06919(15) 1.22954(10)
O13_2 O 0.3317(2) 0.22219(12) 2.00850(7)
N4C N 0.4435(3) 0.12544(14) 1.94580(10)
N7C N 0.2158(3) 0.29763(15) 1.93447(10)
Co3_2 Co 0.32918(3) 0.21065(2) 0.942200(12)
Co3C Co 0.67082(3) 0.71065(2) 1.557800(12)
Co2_2 Co -0.90155(3) 0.07018(2) 1.229330(13)
Co3C_2 Co -0.32918(3) -0.28935(2) 1.557800(12)
O21 O 0.5939(4) 0.5460(2) 1.14290(13)
H51 H 0.632(4) 0.533(3) 1.1209(9)
H52 H 0.622(4) 0.527(3) 1.1658(9)
O22 O -0.0264(3) 0.3158(2) 1.65984(13)
H53 H -0.060(4) 0.3536(12) 1.6528(9)
H54 H -0.076(3) 0.2904(14) 1.6733(9)
O23 O 0.3545(4) 0.2860(2) 1.29413(14)
H55 H 0.346(5) 0.291(3) 1.2667(4)
H56 H 0.361(6) 0.3258(13) 1.3059(15)
O24 O -0.0832(4) 0.8901(2) 1.25704(14)
H57 H -0.1408(14) 0.9184(12) 1.2592(17)
H58 H -0.085(5) 0.872(3) 1.2318(10)
O25 O 0.1516(8) 0.0042(4) 0.9431(3)
O26 O -0.0348(8) 0.3954(4) 1.5550(3)
O27 O 0.1374(10) 0.0705(6) 1.0340(4)
O28? O -0.0071(11) 0.3425(7) 1.5120(4)
O29? O 0.0701(14) 0.4849(8) 1.4859(5)
loop_
_geom_bond_atom_site_label_1
_geom_bond_atom_site_label_2
_geom_bond_site_symmetry_1
_geom_bond_site_symmetry_2
Co1 O5 1_555 1_555
Co2 O7 1_555 1_555
Co3 O19 1_555 1_555
S1 O1 1_555 1_555
S2 O8 1_555 1_555
O2 S1 1_555 1_555
O3 S1 1_555 1_555
O4 C7 1_555 1_555
O5 C7 1_555 1_555
O6 C8 1_555 1_555
O7 C8 1_555 1_555
O9 S2 1_555 1_555
O10 S2 1_555 1_555
O11 Co2 1_555 1_555
O12 C15 1_555 1_555
O13 C16 1_555 1_555
O14 C16 1_555 1_555
O15 Co1 1_555 1_555
H1 O15 1_555 1_555
H2 O15 1_555 1_555
O16 Co1 1_555 1_555
H3 O16 1_555 1_555
H4 O16 1_555 1_555
O17 Co2 1_555 1_555
H5 O17 1_555 1_555
H6 O17 1_555 1_555
O18 Co2 1_555 1_555
H7 O18 1_555 1_555
H8 O18 1_555 1_555
O19 H9 1_555 1_555
H10 O19 1_555 1_555
O20 Co3 1_555 1_555
H11 O20 1_555 1_555
H12 O20 1_555 1_555
N1 Co1 1_555 1_555
N2 Co3 1_555 1_555
N3 Co1 1_555 1_555
N4 C32 1_555 1_555
N5 Co2 1_555 1_555
N6 C42 1_555 1_555
N7 C47 1_555 1_555
N8 Co1 1_555 1_555
C1 S1 1_555 1_555
C2 C1 1_555 1_555
H13 C2 1_555 1_555
C3 C2 1_555 1_555
C4 C3 1_555 1_555
H14 C4 1_555 1_555
C5 C4 1_555 1_555
C6 C1 1_555 1_555
H15 C6 1_555 1_555
C7 C3 1_555 1_555
C8 C5 1_555 1_555
C9 S2 1_555 1_555
C10 C9 1_555 1_555
H16 C10 1_555 1_555
C11 C10 1_555 1_555
C12 C11 1_555 1_555
H17 C12 1_555 1_555
C13 C12 1_555 1_555
C14 C9 1_555 1_555
H18 C14 1_555 1_555
C15 O11 1_555 1_555
C16 C13 1_555 1_555
C17 N1 1_555 1_555
H19 C17 1_555 1_555
C18 C17 1_555 1_555
H20 C18 1_555 1_555
C19 N1 1_555 1_555
H21 C19 1_555 1_555
C20 C19 1_555 1_555
H22 C20 1_555 1_555
C21 H23 1_555 1_555
C22 N2 1_555 1_555
H24 C22 1_555 1_555
C23 H25 1_555 1_555
C24 N2 1_555 1_555
H26 C24 1_555 1_555
C25 C18 1_555 1_555
C26 C21 1_555 1_555
C27 N3 1_555 1_555
H27 C27 1_555 1_555
C28 C27 1_555 1_555
H28 C28 1_555 1_555
C29 N3 1_555 1_555
H29 C29 1_555 1_555
C30 C29 1_555 1_555
H30 C30 1_555 1_555
C31 H31 1_555 1_555
C32 C31 1_555 1_555
H32 C32 1_555 1_555
C33 H33 1_555 1_555
C34 N4 1_555 1_555
H34 C34 1_555 1_555
C35 C28 1_555 1_555
C36 C31 1_555 1_555
C37 N5 1_555 1_555
H35 C37 1_555 1_555
C38 C37 1_555 1_555
H36 C38 1_555 1_555
C39 N5 1_555 1_555
H37 C39 1_555 1_555
C40 C39 1_555 1_555
H38 C40 1_555 1_555
C41 H39 1_555 1_555
C42 C41 1_555 1_555
H40 C42 1_555 1_555
C43 H41 1_555 1_555
C44 N6 1_555 1_555
H42 C44 1_555 1_555
C45 C38 1_555 1_555
C46 C41 1_555 1_555
C47 H43 1_555 1_555
C48 C47 1_555 1_555
H44 C48 1_555 1_555
C49 N7 1_555 1_555
H45 C49 1_555 1_555
C50 C49 1_555 1_555
H46 C50 1_555 1_555
C51 H47 1_555 1_555
C52 N8 1_555 1_555
H48 C52 1_555 1_555
C53 H49 1_555 1_555
C54 N8 1_555 1_555
H50 C54 1_555 1_555
C55 C48 1_555 1_555
C56 C51 1_555 1_555
O21 H51 1_555 1_555
H52 O21 1_555 1_555
O22 H53 1_555 1_555
H54 O22 1_555 1_555
O23 H55 1_555 1_555
H56 O23 1_555 1_555
O24 H57 1_555 1_555
H58 O24 1_555 1_555
N6_2 Co2 1_555 1_555
O13_2 Co3 1_555 1_555
N4C Co3 1_555 1_555
N7C Co3 1_555 1_555
Co3_2 O13 1_555 1_555
Co3C N4 1_555 1_555
Co2_2 N6 1_555 1_555
Co3C_2 N7 1_555 1_555
C5 C6 1_555 1_555
C11 C15 1_555 1_555
C13 C14 1_555 1_555
C20 C25 1_555 1_555
C21 C22 1_555 1_555
C23 C24 1_555 1_555
C23 C26 1_555 1_555
C25 C26 1_555 1_555
C30 C35 1_555 1_555
C33 C34 1_555 1_555
C33 C36 1_555 1_555
C35 C36 1_555 1_555
C40 C45 1_555 1_555
C43 C44 1_555 1_555
C43 C46 1_555 1_555
C45 C46 1_555 1_555
C50 C55 1_555 1_555
C51 C52 1_555 1_555
C53 C54 1_555 1_555
C53 C56 1_555 1_555
C55 C56 1_555 1_555

#END
