
#######################################################################
#
#                 Cambridge Crystallographic Data Centre
#                                CCDC 
#
#######################################################################
#
# If this CIF has been generated from an entry in the Cambridge 
# Structural Database, then it will include bibliographic, chemical, 
# crystal, experimental, refinement or atomic coordinate data resulting 
# from the CCDC's data processing and validation procedures.
#
#######################################################################

data_WUFMUG
_symmetry_cell_setting           triclinic
_symmetry_space_group_name_H-M   'P -1'
_symmetry_Int_Tables_number      2
_space_group_name_Hall           '-P 1'
loop_
_symmetry_equiv_pos_site_id
_symmetry_equiv_pos_as_xyz
1 x,y,z
2 -x,-y,-z
_cell_length_a                   7.36(3)
_cell_length_b                   9.76(3)
_cell_length_c                   16.65(6)
_cell_angle_alpha                93.30(7)
_cell_angle_beta                 102.00(5)
_cell_angle_gamma                100.42(5)
_cell_volume                     1144.96
loop_
_atom_site_label
_atom_site_type_symbol
_atom_site_fract_x
_atom_site_fract_y
_atom_site_fract_z
C1 C 0.133(2) 0.9177(13) 0.3687(8)
N1 N -0.0187(15) 0.8843(11) 0.3557(7)
Zn1 Zn -0.2668(2) 0.75564(16) 0.31244(10)
O1 O -0.0945(13) 0.6175(9) 0.2436(5)
O2 O -0.4816(17) 0.2075(11) 0.2612(7)
O3 O -0.599(2) 0.7115(16) 0.1016(9)
O4 O -0.3499(19) 0.8122(13) 0.1942(7)
O5 O -0.5298(19) 0.6265(12) 0.2225(8)
N2 N -0.2537(15) 0.3819(12) 0.4249(7)
N3 N -0.2688(15) 0.5945(10) 0.3842(6)
N4 N -0.1794(15) 0.4914(11) 0.2270(7)
N5 N -0.3703(18) 0.2927(12) 0.2319(7)
N6 N 0.5713(15) 0.8710(11) 0.3611(7)
N7 N 0.3145(17) 0.9743(12) 0.3937(9)
N8 N -0.502(2) 0.712(2) 0.1722(11)
C2 C -0.2658(18) 0.5958(12) 0.4696(8)
C3 C -0.2478(16) 0.4675(13) 0.4959(7)
C4 C -0.228(2) 0.2361(14) 0.4257(11)
C5 C -0.2715(18) 0.7107(16) 0.5237(9)
C6 C -0.2681(17) 0.4638(13) 0.3600(8)
C7 C -0.2406(19) 0.4306(14) 0.5765(10)
C8 C -0.2003(19) 0.4127(13) 0.1459(8)
C9 C -0.352(3) 0.2894(17) 0.1475(12)
C10 C -0.2689(19) 0.4169(14) 0.2767(9)
C11 C 0.004(3) 0.365(2) 0.1515(12)
C12 C -0.251(2) 0.5394(19) 0.6292(9)
C13 C -0.2647(18) 0.6822(17) 0.6054(10)
C14 C -0.233(3) 0.502(2) 0.0769(10)
C15 C -0.343(3) 0.1414(19) 0.1173(12)
C16 C -0.553(3) 0.319(2) 0.1029(14)
C17 C 0.451(2) 0.9094(14) 0.3707(8)
Zn1_2 Zn 0.7332(2) 0.75564(16) 0.31244(10)
N6_2 N -0.4287(15) 0.8710(11) 0.3611(7)
O6 O 0.220(4) 0.7543(14) 0.3154(9)
loop_
_geom_bond_atom_site_label_1
_geom_bond_atom_site_label_2
_geom_bond_site_symmetry_1
_geom_bond_site_symmetry_2
C1 N1 1_555 1_555
N1 Zn1 1_555 1_555
Zn1 O1 1_555 1_555
O1 N4 1_555 1_555
O2 N5 1_555 1_555
O3 N8 1_555 1_555
O4 Zn1 1_555 1_555
O5 Zn1 1_555 1_555
N2 C3 1_555 1_555
N3 Zn1 1_555 1_555
N4 C8 1_555 1_555
N5 C9 1_555 1_555
N6 C17 1_555 1_555
N7 C1 1_555 1_555
N8 O4 1_555 1_555
C2 N3 1_555 1_555
C3 C2 1_555 1_555
C4 N2 1_555 1_555
C5 C2 1_555 1_555
C6 N2 1_555 1_555
C7 C3 1_555 1_555
C8 C9 1_555 1_555
C9 C15 1_555 1_555
C10 N4 1_555 1_555
C11 C8 1_555 1_555
C12 C7 1_555 1_555
C13 C5 1_555 1_555
C14 C8 1_555 1_555
C16 C9 1_555 1_555
C17 N7 1_555 1_555
Zn1_2 N6 1_555 1_555
N6_2 Zn1 1_555 1_555
O5 N8 1_555 1_555
N3 C6 1_555 1_555
N5 C10 1_555 1_555
C6 C10 1_555 1_555
C12 C13 1_555 1_555

#END
