
#######################################################################
#
#                 Cambridge Crystallographic Data Centre
#                                CCDC 
#
#######################################################################
#
# If this CIF has been generated from an entry in the Cambridge 
# Structural Database, then it will include bibliographic, chemical, 
# crystal, experimental, refinement or atomic coordinate data resulting 
# from the CCDC's data processing and validation procedures.
#
#######################################################################

data_WUFPIX
_symmetry_cell_setting           triclinic
_symmetry_space_group_name_H-M   'P -1'
_symmetry_Int_Tables_number      2
_space_group_name_Hall           '-P 1'
loop_
_symmetry_equiv_pos_site_id
_symmetry_equiv_pos_as_xyz
1 x,y,z
2 -x,-y,-z
_cell_length_a                   8.5642(19)
_cell_length_b                   10.076(3)
_cell_length_c                   12.114(3)
_cell_angle_alpha                81.623(7)
_cell_angle_beta                 77.149(8)
_cell_angle_gamma                82.787(7)
_cell_volume                     1003.58
loop_
_atom_site_label
_atom_site_type_symbol
_atom_site_fract_x
_atom_site_fract_y
_atom_site_fract_z
Cd1 Cd 0.0000 0.0000 0.0000
S1 S -0.08638(5) 0.17955(4) 0.25180(3)
O1 O -0.03048(17) 0.06792(14) 0.18338(10)
O2 O -0.21714(18) -0.12412(15) 0.07695(13)
H1 H -0.205(3) -0.179(3) 0.127(2)
H2 H -0.246(4) -0.160(3) 0.040(3)
O3 O 0.03367(18) 0.27380(15) 0.23597(12)
O6 O -0.24224(18) 0.24403(16) 0.23694(12)
N1 N -0.16956(17) 0.17306(14) -0.05972(11)
N2 N -0.1930(2) 0.70757(19) -0.72751(15)
C1 C -0.2818(2) 0.14922(18) -0.11349(16)
H7 H -0.2912 0.0605 -0.1221
C2 C -0.3840(2) 0.2495(2) -0.15656(16)
H8 H -0.4603 0.2281 -0.1934
C3 C -0.3731(2) 0.38258(18) -0.14502(14)
C4 C -0.2588(3) 0.40675(19) -0.08793(16)
H9 H -0.2487 0.4944 -0.0767
C5 C -0.1596(2) 0.30061(18) -0.04744(16)
H10 H -0.0825 0.3192 -0.0100
C6 C -0.4803(3) 0.4951(2) -0.19402(17)
H11 H -0.4716 0.5776 -0.1642
H12 H -0.5912 0.4740 -0.1698
C7 C -0.4365(3) 0.5179(2) -0.32531(18)
H13 H -0.4553 0.4382 -0.3549
H14 H -0.5071 0.5926 -0.3522
C8 C -0.2651(3) 0.5473(3) -0.3721(2)
H15 H -0.1947 0.4653 -0.3614
H16 H -0.2384 0.6129 -0.3298
C9 C -0.1588(3) 0.5773(2) -0.69643(19)
H17 H -0.1200 0.5213 -0.7531
C10 C -0.1781(3) 0.5207(2) -0.58335(19)
H18 H -0.1520 0.4288 -0.5656
C11 C -0.2360(3) 0.6009(2) -0.49736(18)
C12 C -0.2729(3) 0.7370(3) -0.5305(2)
H19 H -0.3130 0.7955 -0.4759
C13 C -0.2495(3) 0.7848(2) -0.6447(2)
H20 H -0.2748 0.8763 -0.6650
C14 C -0.1136(2) 0.10480(18) 0.39687(13)
C15 C -0.2629(2) 0.1241(2) 0.46442(15)
H21 H -0.3452 0.1754 0.4343
C16 C -0.2929(2) 0.0671(2) 0.57904(16)
H22 H -0.3955 0.0800 0.6241
C17 C -0.1731(2) -0.0070(2) 0.62500(15)
H23 H -0.1950 -0.0439 0.7011
C18 C 0.0161(2) 0.02848(18) 0.44138(13)
Cd1_2 Cd 0.0000 0.0000 1.0000
S1A S 0.08638(5) -0.17955(4) 0.74820(3)
O1A O 0.03048(17) -0.06792(14) 0.81662(10)
O1A_2 O 0.03048(17) -0.06792(14) -0.18338(10)
O2A O 0.21714(18) 0.12412(15) -0.07695(13)
H1A H 0.205(3) 0.179(3) -0.127(2)
H2A H 0.246(4) 0.160(3) -0.040(3)
O3A O -0.03367(18) -0.27380(15) 0.76403(12)
O6A O 0.24224(18) -0.24403(16) 0.76306(12)
N1A N 0.16956(17) -0.17306(14) 0.05972(11)
N2A N 0.1930(2) -0.70757(19) 0.72751(15)
C1A C 0.2818(2) -0.14922(18) 0.11349(16)
H7A H 0.2912 -0.0605 0.1221
C2A C 0.3840(2) -0.2495(2) 0.15656(16)
H8A H 0.4603 -0.2281 0.1934
C3A C 0.3731(2) -0.38258(18) 0.14502(14)
C4A C 0.2588(3) -0.40675(19) 0.08793(16)
H9A H 0.2487 -0.4944 0.0767
C5A C 0.1596(2) -0.30061(18) 0.04744(16)
H10A H 0.0825 -0.3192 0.0100
C6A C 0.4803(3) -0.4951(2) 0.19402(17)
H11A H 0.4716 -0.5776 0.1642
H12A H 0.5912 -0.4740 0.1698
C7A C 0.4365(3) -0.5179(2) 0.32531(18)
H13A H 0.4553 -0.4382 0.3549
H14A H 0.5071 -0.5926 0.3522
C8A C 0.2651(3) -0.5473(3) 0.3721(2)
H15A H 0.1947 -0.4653 0.3614
H16A H 0.2384 -0.6129 0.3298
C9A C 0.1588(3) -0.5773(2) 0.69643(19)
H17A H 0.1200 -0.5213 0.7531
C10A C 0.1781(3) -0.5207(2) 0.58335(19)
H18A H 0.1520 -0.4288 0.5656
C11A C 0.2360(3) -0.6009(2) 0.49736(18)
C12A C 0.2729(3) -0.7370(3) 0.5305(2)
H19A H 0.3130 -0.7955 0.4759
C13A C 0.2495(3) -0.7848(2) 0.6447(2)
H20A H 0.2748 -0.8763 0.6650
C14A C 0.1136(2) -0.10480(18) 0.60313(13)
C15A C 0.2629(2) -0.1241(2) 0.53558(15)
H21A H 0.3452 -0.1754 0.5657
C16A C 0.2929(2) -0.0671(2) 0.42096(16)
H22A H 0.3955 -0.0800 0.3759
C17A C 0.1731(2) 0.0070(2) 0.37500(15)
H23A H 0.1950 0.0439 0.2989
C18A C -0.0161(2) -0.02848(18) 0.55862(13)
O4 O -0.3194(3) -0.2355(2) -0.07885(17)
H3 H -0.233(4) -0.252(3) -0.137(3)
H4 H -0.362(4) -0.193(4) -0.106(3)
O5 O -0.4505(2) 0.0765(2) 0.18168(18)
H5 H -0.401(4) 0.123(3) 0.196(3)
H6 H -0.391(5) 0.012(5) 0.138(4)
loop_
_geom_bond_atom_site_label_1
_geom_bond_atom_site_label_2
_geom_bond_site_symmetry_1
_geom_bond_site_symmetry_2
Cd1 O1 1_555 1_555
S1 O1 1_555 1_555
O2 Cd1 1_555 1_555
H1 O2 1_555 1_555
H2 O2 1_555 1_555
O3 S1 1_555 1_555
O4 H3 1_555 1_555
H4 O4 1_555 1_555
O5 H5 1_555 1_555
H6 O5 1_555 1_555
O6 S1 1_555 1_555
N1 Cd1 1_555 1_555
N2 C9 1_555 1_555
C1 N1 1_555 1_555
H7 C1 1_555 1_555
C2 C1 1_555 1_555
H8 C2 1_555 1_555
C3 C2 1_555 1_555
C4 C3 1_555 1_555
H9 C4 1_555 1_555
C5 N1 1_555 1_555
H10 C5 1_555 1_555
C6 C3 1_555 1_555
H11 C6 1_555 1_555
H12 C6 1_555 1_555
C7 C6 1_555 1_555
H13 C7 1_555 1_555
H14 C7 1_555 1_555
C8 C7 1_555 1_555
H15 C8 1_555 1_555
H16 C8 1_555 1_555
C9 H17 1_555 1_555
C10 C9 1_555 1_555
H18 C10 1_555 1_555
C11 C8 1_555 1_555
C12 C11 1_555 1_555
H19 C12 1_555 1_555
C13 N2 1_555 1_555
H20 C13 1_555 1_555
C14 S1 1_555 1_555
C15 C14 1_555 1_555
H21 C15 1_555 1_555
C16 C15 1_555 1_555
H22 C16 1_555 1_555
C17 C16 1_555 1_555
H23 C17 1_555 1_555
C18 C14 1_555 1_555
Cd1_2 O1A 1_555 1_555
S1A O1A 1_555 1_555
O1A_2 Cd1 1_555 1_555
O2A Cd1 1_555 1_555
H1A O2A 1_555 1_555
H2A O2A 1_555 1_555
O3A S1A 1_555 1_555
O6A S1A 1_555 1_555
N1A Cd1 1_555 1_555
N2A C9A 1_555 1_555
C1A N1A 1_555 1_555
H7A C1A 1_555 1_555
C2A C1A 1_555 1_555
H8A C2A 1_555 1_555
C3A C2A 1_555 1_555
C4A C3A 1_555 1_555
H9A C4A 1_555 1_555
C5A N1A 1_555 1_555
H10A C5A 1_555 1_555
C6A C3A 1_555 1_555
H11A C6A 1_555 1_555
H12A C6A 1_555 1_555
C7A C6A 1_555 1_555
H13A C7A 1_555 1_555
H14A C7A 1_555 1_555
C8A C7A 1_555 1_555
H15A C8A 1_555 1_555
H16A C8A 1_555 1_555
C9A H17A 1_555 1_555
C10A C9A 1_555 1_555
H18A C10A 1_555 1_555
C11A C8A 1_555 1_555
C12A C11A 1_555 1_555
H19A C12A 1_555 1_555
C13A N2A 1_555 1_555
H20A C13A 1_555 1_555
C14A S1A 1_555 1_555
C15A C14A 1_555 1_555
H21A C15A 1_555 1_555
C16A C15A 1_555 1_555
H22A C16A 1_555 1_555
C17A C18 1_555 1_555
H23A C17A 1_555 1_555
C18A C17 1_555 1_555
C4 C5 1_555 1_555
C10 C11 1_555 1_555
C12 C13 1_555 1_555
C18 C18A 1_555 1_555
C4A C5A 1_555 1_555
C10A C11A 1_555 1_555
C12A C13A 1_555 1_555
C14A C18A 1_555 1_555
C16A C17A 1_555 1_555

#END
