
#######################################################################
#
#                 Cambridge Crystallographic Data Centre
#                                CCDC 
#
#######################################################################
#
# If this CIF has been generated from an entry in the Cambridge 
# Structural Database, then it will include bibliographic, chemical, 
# crystal, experimental, refinement or atomic coordinate data resulting 
# from the CCDC's data processing and validation procedures.
#
#######################################################################

data_WUFPAP
_symmetry_cell_setting           monoclinic
_symmetry_space_group_name_H-M   'P 21/n'
_symmetry_Int_Tables_number      14
_space_group_name_Hall           '-P 2yn'
loop_
_symmetry_equiv_pos_site_id
_symmetry_equiv_pos_as_xyz
1 x,y,z
2 1/2-x,1/2+y,1/2-z
3 -x,-y,-z
4 1/2+x,1/2-y,1/2+z
_cell_length_a                   10.559(3)
_cell_length_b                   13.138(4)
_cell_length_c                   17.623(5)
_cell_angle_alpha                90
_cell_angle_beta                 100.852(3)
_cell_angle_gamma                90
_cell_volume                     2401.02
loop_
_atom_site_label
_atom_site_type_symbol
_atom_site_fract_x
_atom_site_fract_y
_atom_site_fract_z
Zn1 Zn 0.0000 0.5000 0.0000
S1 S 0.30919(4) 0.54456(4) 0.10692(3)
O1 O 0.35969(16) 0.58423(12) 0.04263(10)
O2 O 0.32410(15) 0.61237(11) 0.17252(9)
O3 O 0.17524(13) 0.50949(10) 0.08502(9)
N1 N -0.00848(16) 0.33484(13) 0.03366(10)
N2 N -0.39706(16) 0.04074(14) 0.40969(10)
C1 C -0.0968(3) 0.27092(18) -0.00396(15)
H1 H -0.1464 0.2925 -0.0505
C2 C -0.1189(3) 0.17482(18) 0.02207(16)
H2 H -0.1824 0.1342 -0.0068
C3 C -0.04802(19) 0.13825(16) 0.09024(12)
C4 C 0.0454(2) 0.20209(18) 0.12799(13)
H3 H 0.0977 0.1812 0.1738
C5 C 0.0622(2) 0.29722(17) 0.09844(13)
H4 H 0.1274 0.3381 0.1255
C6 C -0.0727(2) 0.03379(18) 0.11998(15)
H5 H 0.0063 0.0094 0.1522
H6 H -0.0936 -0.0121 0.0763
C7 C -0.1817(2) 0.0287(2) 0.16696(15)
H7 H -0.2612 0.0521 0.1348
H8 H -0.1940 -0.0416 0.1808
C8 C -0.1550(2) 0.0920(2) 0.23962(13)
H9 H -0.1618 0.1633 0.2249
H10 H -0.0666 0.0799 0.2652
C9 C -0.2860(2) 0.09313(18) 0.42584(13)
C10 C -0.2086(2) 0.11017(19) 0.37216(13)
H11 H -0.1327 0.1471 0.3863
C11 C -0.2423(2) 0.07322(17) 0.29764(12)
C12 C -0.3576(2) 0.02032(19) 0.28057(13)
H12 H -0.3853 -0.0062 0.2313
C13 C -0.4315(2) 0.00687(19) 0.33691(14)
H13 H -0.5094 -0.0276 0.3235
C14 C 0.39835(17) 0.43175(14) 0.13775(11)
C15 C 0.4873(2) 0.39897(17) 0.09425(13)
H14 H 0.4997 0.4364 0.0515
C16 C 0.5573(2) 0.31127(19) 0.11412(15)
H15 H 0.6179 0.2901 0.0854
C17 C 0.5370(3) 0.2554(2) 0.17642(16)
H16 H 0.5830 0.1955 0.1893
C18 C 0.4489(2) 0.28719(18) 0.22037(14)
H17 H 0.4369 0.2484 0.2626
C19 C 0.37747(18) 0.37650(15) 0.20250(11)
C20 C 0.29037(19) 0.41364(15) 0.25214(11)
H18 H 0.2741 0.4832 0.2510
C21 C 0.23233(19) 0.35802(16) 0.29854(11)
H19 H 0.2392 0.2876 0.2963
C22 C 0.15810(19) 0.40145(15) 0.35303(11)
C23 C 0.0785(2) 0.34103(16) 0.38772(13)
H20 H 0.0665 0.2732 0.3731
C24 C 0.0161(2) 0.37958(17) 0.44371(14)
H21 H -0.0378 0.3370 0.4654
C25 C 0.0313(2) 0.47969(15) 0.46872(12)
C26 C 0.1106(3) 0.54037(18) 0.43295(15)
H22 H 0.1228 0.6082 0.4476
C27 C 0.1715(3) 0.50253(17) 0.37627(16)
H23 H 0.2227 0.5457 0.3530
Zn1A Zn -0.5000 0.0000 0.5000
Zn1_2 Zn 0.0000 0.5000 1.0000
Zn1A_2 Zn -0.5000 1.0000 0.5000
S1B S -0.30919(4) 0.45544(4) 0.89308(3)
O1B O -0.35969(16) 0.41577(12) 0.95737(10)
O2B O -0.32410(15) 0.38763(11) 0.82748(9)
O3B O -0.17524(13) 0.49051(10) 0.91498(9)
O3B_2 O -0.17524(13) 0.49051(10) -0.08502(9)
N1A N -0.49152(16) 0.83484(13) 0.46634(10)
N1B N 0.00848(16) 0.66516(13) -0.03366(10)
N2A N -0.10294(16) 0.54074(14) 0.09031(10)
N2C N 0.10294(16) 0.45926(14) -0.09031(10)
C1A C -0.4032(3) 0.77092(18) 0.50396(15)
H1A H -0.3536 0.7925 0.5505
C2A C -0.3811(3) 0.67482(18) 0.47793(16)
H2A H -0.3176 0.6342 0.5068
C3A C -0.45198(19) 0.63825(16) 0.40976(12)
C4A C -0.5454(2) 0.70209(18) 0.37201(13)
H3A H -0.5977 0.6812 0.3262
C5A C -0.5622(2) 0.79722(17) 0.40156(13)
H4A H -0.6274 0.8381 0.3745
C6A C -0.4273(2) 0.53379(18) 0.38002(15)
H5A H -0.5063 0.5094 0.3478
H6A H -0.4064 0.4879 0.4237
C7A C -0.3183(2) 0.5287(2) 0.33304(15)
H7A H -0.2388 0.5521 0.3652
H8A H -0.3060 0.4584 0.3192
C8A C -0.3450(2) 0.5920(2) 0.26038(13)
H9A H -0.3382 0.6633 0.2751
H10A H -0.4334 0.5799 0.2348
C9A C -0.2140(2) 0.59313(18) 0.07416(13)
C10A C -0.2914(2) 0.61017(19) 0.12784(13)
H11A H -0.3673 0.6471 0.1137
C11A C -0.2577(2) 0.57322(17) 0.20236(12)
C12A C -0.1424(2) 0.52032(19) 0.21943(13)
H12A H -0.1147 0.4938 0.2687
C13A C -0.0685(2) 0.50687(19) 0.16309(14)
H13A H 0.0094 0.4724 0.1765
C14B C -0.39835(17) 0.56825(14) 0.86225(11)
C15B C -0.4873(2) 0.60103(17) 0.90575(13)
H14B H -0.4997 0.5636 0.9485
C16B C -0.5573(2) 0.68873(19) 0.88588(15)
H15B H -0.6179 0.7099 0.9146
C17B C -0.5370(3) 0.7446(2) 0.82358(16)
H16B H -0.5830 0.8045 0.8107
C18B C -0.4489(2) 0.71281(18) 0.77963(14)
H17B H -0.4369 0.7516 0.7374
C19B C -0.37747(18) 0.62350(15) 0.79750(11)
C20B C -0.29037(19) 0.58636(15) 0.74786(11)
H18B H -0.2741 0.5168 0.7490
C21B C -0.23233(19) 0.64198(16) 0.70146(11)
H19B H -0.2392 0.7124 0.7037
C22B C -0.15810(19) 0.59855(15) 0.64697(11)
C23B C -0.0785(2) 0.65897(16) 0.61228(13)
H20B H -0.0665 0.7268 0.6269
C24B C -0.0161(2) 0.62042(17) 0.55629(14)
H21B H 0.0378 0.6630 0.5346
C25B C -0.0313(2) 0.52031(15) 0.53128(12)
C26B C -0.1106(3) 0.45963(18) 0.56705(15)
H22B H -0.1228 0.3918 0.5524
C27B C -0.1715(3) 0.49747(17) 0.62373(16)
H23B H -0.2227 0.4543 0.6470
loop_
_geom_bond_atom_site_label_1
_geom_bond_atom_site_label_2
_geom_bond_site_symmetry_1
_geom_bond_site_symmetry_2
Zn1 O3 1_555 1_555
S1 O1 1_555 1_555
O2 S1 1_555 1_555
O3 S1 1_555 1_555
N1 Zn1 1_555 1_555
N2 C9 1_555 1_555
C1 N1 1_555 1_555
H1 C1 1_555 1_555
C2 C1 1_555 1_555
H2 C2 1_555 1_555
C3 C2 1_555 1_555
C4 C3 1_555 1_555
H3 C4 1_555 1_555
C5 N1 1_555 1_555
H4 C5 1_555 1_555
C6 C3 1_555 1_555
H5 C6 1_555 1_555
H6 C6 1_555 1_555
C7 C6 1_555 1_555
H7 C7 1_555 1_555
H8 C7 1_555 1_555
C8 C7 1_555 1_555
H9 C8 1_555 1_555
H10 C8 1_555 1_555
C9 C10 1_555 1_555
C10 H11 1_555 1_555
C11 C8 1_555 1_555
C12 C11 1_555 1_555
H12 C12 1_555 1_555
C13 N2 1_555 1_555
H13 C13 1_555 1_555
C14 S1 1_555 1_555
C15 C14 1_555 1_555
H14 C15 1_555 1_555
C16 C15 1_555 1_555
H15 C16 1_555 1_555
C17 C16 1_555 1_555
H16 C17 1_555 1_555
C18 C17 1_555 1_555
H17 C18 1_555 1_555
C19 C14 1_555 1_555
C20 C19 1_555 1_555
H18 C20 1_555 1_555
C21 C20 1_555 1_555
H19 C21 1_555 1_555
C22 C21 1_555 1_555
C23 C22 1_555 1_555
H20 C23 1_555 1_555
C24 C23 1_555 1_555
H21 C24 1_555 1_555
C25 C24 1_555 1_555
C26 C25 1_555 1_555
H22 C26 1_555 1_555
C27 C22 1_555 1_555
H23 C27 1_555 1_555
Zn1A N2 1_555 1_555
Zn1_2 O3B 1_555 1_555
Zn1A_2 N1A 1_555 1_555
S1B O1B 1_555 1_555
O2B S1B 1_555 1_555
O3B S1B 1_555 1_555
O3B_2 Zn1 1_555 1_555
N1A C1A 1_555 1_555
N1B Zn1 1_555 1_555
N2A Zn1 1_555 1_555
N2C Zn1 1_555 1_555
C1A H1A 1_555 1_555
C2A C1A 1_555 1_555
H2A C2A 1_555 1_555
C3A C2A 1_555 1_555
C4A C3A 1_555 1_555
H3A C4A 1_555 1_555
C5A N1A 1_555 1_555
H4A C5A 1_555 1_555
C6A C3A 1_555 1_555
H5A C6A 1_555 1_555
H6A C6A 1_555 1_555
C7A C6A 1_555 1_555
H7A C7A 1_555 1_555
H8A C7A 1_555 1_555
C8A C7A 1_555 1_555
H9A C8A 1_555 1_555
H10A C8A 1_555 1_555
C9A N2A 1_555 1_555
C10A C9A 1_555 1_555
H11A C10A 1_555 1_555
C11A C8A 1_555 1_555
C12A C11A 1_555 1_555
H12A C12A 1_555 1_555
C13A N2A 1_555 1_555
H13A C13A 1_555 1_555
C14B S1B 1_555 1_555
C15B C14B 1_555 1_555
H14B C15B 1_555 1_555
C16B C15B 1_555 1_555
H15B C16B 1_555 1_555
C17B C16B 1_555 1_555
H16B C17B 1_555 1_555
C18B C17B 1_555 1_555
H17B C18B 1_555 1_555
C19B C14B 1_555 1_555
C20B C19B 1_555 1_555
H18B C20B 1_555 1_555
C21B C20B 1_555 1_555
H19B C21B 1_555 1_555
C22B C21B 1_555 1_555
C23B C22B 1_555 1_555
H20B C23B 1_555 1_555
C24B C23B 1_555 1_555
H21B C24B 1_555 1_555
C25B C25 1_555 1_555
C26B C25B 1_555 1_555
H22B C26B 1_555 1_555
C27B C22B 1_555 1_555
H23B C27B 1_555 1_555
C4 C5 1_555 1_555
C10 C11 1_555 1_555
C12 C13 1_555 1_555
C18 C19 1_555 1_555
C26 C27 1_555 1_555
C4A C5A 1_555 1_555
C10A C11A 1_555 1_555
C12A C13A 1_555 1_555
C18B C19B 1_555 1_555
C24B C25B 1_555 1_555
C26B C27B 1_555 1_555

#END
