
#######################################################################
#
#                 Cambridge Crystallographic Data Centre
#                                CCDC 
#
#######################################################################
#
# If this CIF has been generated from an entry in the Cambridge 
# Structural Database, then it will include bibliographic, chemical, 
# crystal, experimental, refinement or atomic coordinate data resulting 
# from the CCDC's data processing and validation procedures.
#
#######################################################################

data_WUFQUL
_symmetry_cell_setting           triclinic
_symmetry_space_group_name_H-M   'P -1'
_symmetry_Int_Tables_number      2
_space_group_name_Hall           '-P 1'
loop_
_symmetry_equiv_pos_site_id
_symmetry_equiv_pos_as_xyz
1 x,y,z
2 -x,-y,-z
_cell_length_a                   10.1896(12)
_cell_length_b                   11.2966(14)
_cell_length_c                   11.5602(14)
_cell_angle_alpha                108.555(2)
_cell_angle_beta                 94.654(2)
_cell_angle_gamma                90.885(2)
_cell_volume                     1256.14
loop_
_atom_site_label
_atom_site_type_symbol
_atom_site_fract_x
_atom_site_fract_y
_atom_site_fract_z
Ni1 Ni 0.5000 0.5000 0.0000
O1 O 0.50122(19) 0.49270(18) 0.18282(17)
N1 N 0.2993(2) 0.5259(2) -0.0123(2)
N2 N 0.4474(2) 0.3113(2) -0.0887(2)
C1 C 0.4130(3) 0.5094(3) 0.2562(2)
H1 H 0.2709 0.5266 0.0624
C2 C 0.2392(3) 0.4105(3) -0.1045(3)
C3 C 0.2560(3) 0.6437(3) -0.0308(3)
H2 H 0.4543 0.3006 -0.1712
C4 C 0.3035(3) 0.2992(3) -0.0798(3)
C5 C 0.5282(3) 0.2112(3) -0.0643(3)
O2 O 0.2924(2) 0.5174(2) 0.23035(19)
C6 C 0.4572(3) 0.5100(3) 0.3850(2)
H3 H 0.2538 0.4106 -0.1881
H4 H 0.1431 0.4056 -0.0983
H5 H 0.2808 0.6455 -0.1122
C7 C 0.1071(3) 0.6546(4) -0.0275(4)
C8 C 0.3252(3) 0.7552(3) 0.0699(3)
H6 H 0.2869 0.2978 0.0030
H7 H 0.2661 0.2204 -0.1407
C9 C 0.5050(4) 0.1958(3) 0.0592(3)
C10 C 0.4916(3) 0.0859(3) -0.1654(3)
C11 C 0.3981(3) 0.4237(3) 0.4292(2)
C12 C 0.5612(3) 0.5882(2) 0.4572(2)
H8 H 0.0622 0.5853 -0.0938
H9 H 0.0818 0.7341 -0.0380
H10 H 0.0819 0.6513 0.0515
H11 H 0.2747 0.8299 0.0720
H12 H 0.3177 0.7403 0.1490
H13 H 0.5170 0.2772 0.1234
H14 H 0.5682 0.1382 0.0774
H15 H 0.4151 0.1621 0.0558
H16 H 0.4008 0.0596 -0.1601
H17 H 0.5515 0.0224 -0.1546
H18 H 0.4993 0.0958 -0.2458
H19 H 0.3272 0.3709 0.3803
C13 C 0.6240(3) 0.6906(3) 0.4187(2)
O3 O 0.7493(2) 0.70863(19) 0.44563(19)
O4 O 0.5540(2) 0.75093(19) 0.36810(19)
N1A N 0.7007(2) 0.4741(2) 0.0123(2)
N2A N 0.5526(2) 0.6887(2) 0.0887(2)
O1A O 0.49878(19) 0.50730(18) -0.18282(17)
H1A H 0.7291 0.4734 -0.0624
C2A C 0.7608(3) 0.5895(3) 0.1045(3)
C3A C 0.7440(3) 0.3563(3) 0.0308(3)
H2A H 0.5457 0.6994 0.1712
C4A C 0.6965(3) 0.7008(3) 0.0798(3)
C5A C 0.4718(3) 0.7888(3) 0.0643(3)
C8A C 0.6748(3) 0.2448(3) -0.0699(3)
H3A H 0.7462 0.5894 0.1881
H4A H 0.8569 0.5944 0.0983
H5A H 0.7192 0.3545 0.1122
C7A C 0.8929(3) 0.3454(4) 0.0275(4)
H6A H 0.7131 0.7022 -0.0030
H7A H 0.7339 0.7796 0.1407
C9A C 0.4950(4) 0.8042(3) -0.0592(3)
C10A C 0.5084(3) 0.9141(3) 0.1654(3)
H11A H 0.7253 0.1701 -0.0720
H12A H 0.6823 0.2597 -0.1490
H8A H 0.9378 0.4147 0.0938
H9A H 0.9182 0.2659 0.0380
H10A H 0.9181 0.3487 -0.0515
H13A H 0.4830 0.7228 -0.1234
H14A H 0.4318 0.8618 -0.0774
H15A H 0.5849 0.8379 -0.0558
H16A H 0.5992 0.9404 0.1601
H17A H 0.4485 0.9776 0.1546
H18A H 0.5007 0.9042 0.2458
C12A C 0.4388(3) 0.4118(2) 0.5428(2)
C11A C 0.6019(3) 0.5763(3) 0.5708(2)
C13A C 0.3760(3) 0.3094(3) 0.5813(2)
C6A C 0.5428(3) 0.4900(3) 0.6150(2)
H19A H 0.6728 0.6291 0.6197
O3A O 0.2507(2) 0.29137(19) 0.55437(19)
O4A O 0.4460(2) 0.24907(19) 0.63190(19)
C1A C 0.5870(3) 0.4906(3) 0.7438(2)
O1A_2 O 0.49878(19) 0.50730(18) 0.81718(17)
O2A O 0.7076(2) 0.4826(2) 0.76965(19)
Ni1_2 Ni 0.5000 0.5000 1.0000
Ni2 Ni 0.0000 0.0000 0.5000
O5 O 0.0950(2) 0.15915(19) 0.64524(18)
H20 H 0.0408 0.2155 0.6670
N3 N 0.1644(2) -0.1049(2) 0.5045(2)
H21 H 0.1433 -0.1844 0.4495
N4 N 0.0973(2) 0.0652(2) 0.3774(2)
H22 H 0.1401 0.1393 0.4274
C14 C 0.0232(3) 0.1032(3) 0.2772(3)
C15 C 0.2062(3) -0.0198(3) 0.3404(3)
H23 H 0.2732 0.0200 0.3057
H24 H 0.1720 -0.0982 0.2768
C16 C -0.0917(3) 0.1810(3) 0.3327(3)
H25 H -0.0537 0.2512 0.4040
H26 H -0.1299 0.2181 0.2713
C17 C 0.2061(3) -0.1213(3) 0.6246(3)
H27 H 0.2290 -0.0370 0.6859
C18 C 0.2680(3) -0.0485(3) 0.4521(3)
H28 H 0.3395 -0.1074 0.4283
H29 H 0.3063 0.0293 0.5140
C19 C 0.3269(3) -0.2010(4) 0.6175(3)
H30 H 0.3057 -0.2844 0.5585
H31 H 0.3525 -0.2083 0.6984
H32 H 0.3999 -0.1614 0.5911
C20 C -0.0262(3) -0.0111(3) 0.1692(3)
H33 H 0.0487 -0.0498 0.1255
H34 H -0.0882 0.0147 0.1134
H35 H -0.0706 -0.0715 0.1994
C21 C 0.1142(4) 0.1864(4) 0.2327(3)
H36 H 0.1355 0.2655 0.2987
H37 H 0.0694 0.2032 0.1616
H38 H 0.1956 0.1435 0.2094
N3A N -0.1644(2) 0.1049(2) 0.4955(2)
H21A H -0.1433 0.1844 0.5505
N4A N -0.0973(2) -0.0652(2) 0.6226(2)
H22A H -0.1401 -0.1393 0.5726
C14A C -0.0232(3) -0.1032(3) 0.7228(3)
C15A C -0.2062(3) 0.0198(3) 0.6596(3)
H23A H -0.2732 -0.0200 0.6943
H24A H -0.1720 0.0982 0.7232
C16A C 0.0917(3) -0.1810(3) 0.6673(3)
H25A H 0.0537 -0.2512 0.5960
H26A H 0.1299 -0.2181 0.7287
C17A C -0.2061(3) 0.1213(3) 0.3754(3)
H27A H -0.2290 0.0370 0.3141
C18A C -0.2680(3) 0.0485(3) 0.5479(3)
H28A H -0.3395 0.1074 0.5717
H29A H -0.3063 -0.0293 0.4860
C19A C -0.3269(3) 0.2010(4) 0.3825(3)
H30A H -0.3057 0.2844 0.4415
H31A H -0.3525 0.2083 0.3016
H32A H -0.3999 0.1614 0.4089
C20A C 0.0262(3) 0.0111(3) 0.8308(3)
H33A H -0.0487 0.0498 0.8745
H34A H 0.0882 -0.0147 0.8866
H35A H 0.0706 0.0715 0.8006
C21A C -0.1142(4) -0.1864(4) 0.7673(3)
H36A H -0.1355 -0.2655 0.7013
H37A H -0.0694 -0.2032 0.8384
H38A H -0.1956 -0.1435 0.7906
O5A O -0.0950(2) -0.15915(19) 0.35476(18)
H20A H -0.0408 -0.2155 0.3330
O6 O 0.0805(3) 0.6456(2) 0.3121(3)
H39 H 0.032(3) 0.600(3) 0.340(4)
H40 H 0.1563(18) 0.613(3) 0.303(4)
O7 O 0.0916(3) 0.4873(3) 0.5962(4)
H41 H 0.127(3) 0.427(4) 0.544(3)
H42 H 0.150(3) 0.517(2) 0.657(3)
loop_
_geom_bond_atom_site_label_1
_geom_bond_atom_site_label_2
_geom_bond_site_symmetry_1
_geom_bond_site_symmetry_2
Ni1 O1 1_555 1_555
O1 C1 1_555 1_555
N1 Ni1 1_555 1_555
N2 Ni1 1_555 1_555
C1 O2 1_555 1_555
H1 N1 1_555 1_555
C2 N1 1_555 1_555
C3 N1 1_555 1_555
H2 N2 1_555 1_555
C4 N2 1_555 1_555
C5 N2 1_555 1_555
C6 C1 1_555 1_555
H3 C2 1_555 1_555
H4 C2 1_555 1_555
H5 C3 1_555 1_555
C7 C3 1_555 1_555
C8 C3 1_555 1_555
H6 C4 1_555 1_555
H7 C4 1_555 1_555
C9 C5 1_555 1_555
C10 C5 1_555 1_555
C11 C6 1_555 1_555
C12 C6 1_555 1_555
H8 C7 1_555 1_555
H9 C7 1_555 1_555
H10 C7 1_555 1_555
H11 C8 1_555 1_555
H12 C8 1_555 1_555
H13 C9 1_555 1_555
H14 C9 1_555 1_555
H15 C9 1_555 1_555
H16 C10 1_555 1_555
H17 C10 1_555 1_555
H18 C10 1_555 1_555
H19 C11 1_555 1_555
C13 C12 1_555 1_555
O3 C13 1_555 1_555
O4 C13 1_555 1_555
Ni2 O5 1_555 1_555
O5 H20 1_555 1_555
N3 Ni2 1_555 1_555
H21 N3 1_555 1_555
N4 Ni2 1_555 1_555
H22 N4 1_555 1_555
C14 N4 1_555 1_555
C15 N4 1_555 1_555
H23 C15 1_555 1_555
H24 C15 1_555 1_555
C16 C14 1_555 1_555
H25 C16 1_555 1_555
H26 C16 1_555 1_555
C17 N3 1_555 1_555
H27 C17 1_555 1_555
C18 N3 1_555 1_555
H28 C18 1_555 1_555
H29 C18 1_555 1_555
C19 C17 1_555 1_555
H30 C19 1_555 1_555
H31 C19 1_555 1_555
H32 C19 1_555 1_555
C20 C14 1_555 1_555
H33 C20 1_555 1_555
H34 C20 1_555 1_555
H35 C20 1_555 1_555
C21 C14 1_555 1_555
H36 C21 1_555 1_555
H37 C21 1_555 1_555
H38 C21 1_555 1_555
O6 H39 1_555 1_555
H40 O6 1_555 1_555
O7 H41 1_555 1_555
H42 O7 1_555 1_555
N1A Ni1 1_555 1_555
N2A Ni1 1_555 1_555
O1A Ni1 1_555 1_555
H1A N1A 1_555 1_555
C2A N1A 1_555 1_555
C3A N1A 1_555 1_555
H2A N2A 1_555 1_555
C4A N2A 1_555 1_555
C5A C8 1_555 1_555
C8A C5 1_555 1_555
H3A C2A 1_555 1_555
H4A C2A 1_555 1_555
H5A C3A 1_555 1_555
C7A C3A 1_555 1_555
H6A C4A 1_555 1_555
H7A C4A 1_555 1_555
C9A C5A 1_555 1_555
C10A C5A 1_555 1_555
H11A C8A 1_555 1_555
H12A C8A 1_555 1_555
H8A C7A 1_555 1_555
H9A C7A 1_555 1_555
H10A C7A 1_555 1_555
H13A C9A 1_555 1_555
H14A C9A 1_555 1_555
H15A C9A 1_555 1_555
H16A C10A 1_555 1_555
H17A C10A 1_555 1_555
H18A C10A 1_555 1_555
C12A C11 1_555 1_555
C11A C12 1_555 1_555
C13A C12A 1_555 1_555
C6A C12A 1_555 1_555
H19A C11A 1_555 1_555
O3A C13A 1_555 1_555
O4A C13A 1_555 1_555
C1A C6A 1_555 1_555
O1A_2 C1A 1_555 1_555
O2A C1A 1_555 1_555
Ni1_2 O1A_2 1_555 1_555
N3A Ni2 1_555 1_555
H21A N3A 1_555 1_555
N4A Ni2 1_555 1_555
H22A N4A 1_555 1_555
C14A N4A 1_555 1_555
C15A N4A 1_555 1_555
H23A C15A 1_555 1_555
H24A C15A 1_555 1_555
C16A C17 1_555 1_555
H25A C16A 1_555 1_555
H26A C16A 1_555 1_555
C17A C16 1_555 1_555
H27A C17A 1_555 1_555
C18A N3A 1_555 1_555
H28A C18A 1_555 1_555
H29A C18A 1_555 1_555
C19A C17A 1_555 1_555
H30A C19A 1_555 1_555
H31A C19A 1_555 1_555
H32A C19A 1_555 1_555
C20A C14A 1_555 1_555
H33A C20A 1_555 1_555
H34A C20A 1_555 1_555
H35A C20A 1_555 1_555
C21A C14A 1_555 1_555
H36A C21A 1_555 1_555
H37A C21A 1_555 1_555
H38A C21A 1_555 1_555
O5A Ni2 1_555 1_555
H20A O5A 1_555 1_555
C2 C4 1_555 1_555
C15 C18 1_555 1_555
N2A C5A 1_555 1_555
C2A C4A 1_555 1_555
C3A C8A 1_555 1_555
C11A C6A 1_555 1_555
N3A C17A 1_555 1_555
C14A C16A 1_555 1_555
C15A C18A 1_555 1_555

#END
