
#######################################################################
#
#                 Cambridge Crystallographic Data Centre
#                                CCDC 
#
#######################################################################
#
# If this CIF has been generated from an entry in the Cambridge 
# Structural Database, then it will include bibliographic, chemical, 
# crystal, experimental, refinement or atomic coordinate data resulting 
# from the CCDC's data processing and validation procedures.
#
#######################################################################

data_WUFQIZ
_symmetry_cell_setting           triclinic
_symmetry_space_group_name_H-M   'P -1'
_symmetry_Int_Tables_number      2
_space_group_name_Hall           '-P 1'
loop_
_symmetry_equiv_pos_site_id
_symmetry_equiv_pos_as_xyz
1 x,y,z
2 -x,-y,-z
_cell_length_a                   10.1915(18)
_cell_length_b                   11.415(2)
_cell_length_c                   12.314(2)
_cell_angle_alpha                74.263(3)
_cell_angle_beta                 84.545(2)
_cell_angle_gamma                74.369(3)
_cell_volume                     1327.5
loop_
_atom_site_label
_atom_site_type_symbol
_atom_site_fract_x
_atom_site_fract_y
_atom_site_fract_z
Ni1 Ni 0.16733(2) 0.52698(2) 0.20190(2)
O1 O 0.54600(16) -0.20789(13) 0.16934(12)
O2 O 0.68244(14) -0.49164(13) 0.67994(11)
O3 O 0.09568(16) 0.31474(14) 0.08090(14)
O4 O 0.88305(14) -0.46277(14) 0.62129(12)
O5 O -0.01159(14) 0.53335(14) 0.13093(13)
H1 H 0.0069 0.5155 0.0676
H2 H -0.0503 0.4803 0.1745
O6 O 0.23305(16) 0.34004(13) 0.19826(13)
N1 N 0.27645(16) 0.57844(15) 0.05755(14)
N2 N 0.35304(17) 0.62445(16) -0.11708(14)
C1 C 0.3772(2) 0.6388(2) 0.05153(19)
H3 H 0.4080 0.6571 0.1122
C2 C 0.6014(2) -0.27507(18) 0.27456(16)
C3 C 0.7611(2) -0.45370(18) 0.60097(16)
C4 C 0.7387(2) -0.2972(2) 0.28818(19)
H4 H 0.7951 -0.2715 0.2275
C5 C 0.4750(2) -0.02070(19) 0.23849(18)
H5 H 0.5412 -0.0536 0.2934
C6 C 0.3639(3) 0.6393(2) -0.23874(19)
H6 H 0.3182 0.5834 -0.2578
H7 H 0.4592 0.6150 -0.2608
C7 C 0.3019(2) 0.7732(2) -0.30441(17)
C8 C 0.4614(2) -0.08968(18) 0.16580(16)
C9 C 0.1684(2) 0.8343(2) -0.28309(18)
H8 H 0.1173 0.7933 -0.2262
C10 C 0.3891(2) 0.09777(19) 0.22853(18)
H9 H 0.3979 0.1442 0.2777
C11 C 0.29054(19) 0.14914(17) 0.14763(16)
C12 C 0.7085(2) -0.39685(18) 0.48443(16)
C13 C 0.2662(2) 0.57133(19) -0.04561(17)
H10 H 0.2056 0.5337 -0.0665
C14 C 0.1101(2) 0.9556(2) -0.34520(17)
C15 C 0.4250(2) 0.6675(2) -0.0554(2)
H11 H 0.4935 0.7085 -0.0820
C16 C 0.5717(2) -0.37811(19) 0.46659(17)
H12 H 0.5154 -0.4068 0.5261
C17 C 0.3767(2) 0.8354(2) -0.38842(18)
H13 H 0.4664 0.7956 -0.4034
C18 C 0.2806(2) 0.0789(2) 0.07455(18)
H14 H 0.2155 0.1122 0.0188
C19 C 0.1871(3) 1.0159(2) -0.42869(19)
H15 H 0.1493 1.0975 -0.4705
C20 C 0.3656(2) -0.0398(2) 0.08295(18)
H16 H 0.3582 -0.0857 0.0330
C21 C 0.5179(2) -0.3174(2) 0.36155(18)
H17 H 0.4258 -0.3054 0.3499
C22 C 0.7920(2) -0.3586(2) 0.39437(18)
H18 H 0.8849 -0.3740 0.4049
C23 C 0.1996(2) 0.27788(18) 0.14119(17)
C24 C 0.3195(3) 0.9562(3) -0.4504(2)
H19 H 0.3707 0.9974 -0.5071
N3 N -0.04465(17) 1.10989(16) -0.25461(14)
C25 C -0.0039(2) 1.0817(2) -0.14638(18)
H20 H 0.0381 1.0026 -0.1022
C26 C -0.0353(2) 1.0208(2) -0.3229(2)
H21 H -0.0792 1.0654 -0.3942
H22 H -0.0836 0.9583 -0.2839
C27 C -0.0995(2) 1.23446(19) -0.28595(17)
H23 H -0.1353 1.2779 -0.3566
C28 C -0.0363(2) 1.1909(2) -0.11587(18)
H24 H -0.0206 1.1997 -0.0457
N4 N -0.09608(17) 1.28722(15) -0.20423(14)
Ni1A Ni -0.16733(2) 1.47302(2) -0.20190(2)
Ni1A_2 Ni 0.83267(2) -0.52698(2) 0.79810(2)
O2A O 0.31756(14) 0.49164(13) 0.32006(11)
O4A O 0.11695(14) 0.46277(14) 0.37871(12)
N4A N 0.09608(17) 0.71278(15) 0.20423(14)
O7 O 1.0560(3) -0.3050(2) 0.55568(19)
H25 H 1.1349 -0.3269 0.5266
H26 H 1.0630 -0.2866 0.6169
loop_
_geom_bond_atom_site_label_1
_geom_bond_atom_site_label_2
_geom_bond_site_symmetry_1
_geom_bond_site_symmetry_2
Ni1 O5 1_555 1_555
O1 C2 1_555 1_555
O2 C3 1_555 1_555
O3 C23 1_555 1_555
O4 C3 1_555 1_555
O5 H1 1_555 1_555
H2 O5 1_555 1_555
O6 Ni1 1_555 1_555
N1 Ni1 1_555 1_555
N2 C6 1_555 1_555
C1 N1 1_555 1_555
H3 C1 1_555 1_555
C2 C4 1_555 1_555
C3 C12 1_555 1_555
C4 H4 1_555 1_555
C5 H5 1_555 1_555
C6 H6 1_555 1_555
H7 C6 1_555 1_555
C7 C6 1_555 1_555
C8 O1 1_555 1_555
C9 C7 1_555 1_555
H8 C9 1_555 1_555
C10 C5 1_555 1_555
H9 C10 1_555 1_555
C11 C10 1_555 1_555
C12 C16 1_555 1_555
C13 N1 1_555 1_555
H10 C13 1_555 1_555
C14 C9 1_555 1_555
C15 N2 1_555 1_555
H11 C15 1_555 1_555
C16 H12 1_555 1_555
C17 C7 1_555 1_555
H13 C17 1_555 1_555
C18 C11 1_555 1_555
H14 C18 1_555 1_555
C19 C14 1_555 1_555
H15 C19 1_555 1_555
C20 C8 1_555 1_555
H16 C20 1_555 1_555
C21 C2 1_555 1_555
H17 C21 1_555 1_555
C22 C4 1_555 1_555
H18 C22 1_555 1_555
C23 O6 1_555 1_555
C24 C17 1_555 1_555
H19 C24 1_555 1_555
N3 C25 1_555 1_555
C25 H20 1_555 1_555
C26 C14 1_555 1_555
H21 C26 1_555 1_555
H22 C26 1_555 1_555
C27 N3 1_555 1_555
H23 C27 1_555 1_555
C28 C25 1_555 1_555
H24 C28 1_555 1_555
N4 C27 1_555 1_555
O7 H25 1_555 1_555
H26 O7 1_555 1_555
Ni1A N4 1_555 1_555
Ni1A_2 O2 1_555 1_555
O2A Ni1 1_555 1_555
O4A Ni1 1_555 1_555
N4A Ni1 1_555 1_555
O4 Ni1A_2 1_555 1_555
N2 C13 1_555 1_555
C1 C15 1_555 1_555
C5 C8 1_555 1_555
C11 C23 1_555 1_555
C12 C22 1_555 1_555
C16 C21 1_555 1_555
C18 C20 1_555 1_555
C19 C24 1_555 1_555
N3 C26 1_555 1_555
C28 N4 1_555 1_555

#END
