
#######################################################################
#
#                 Cambridge Crystallographic Data Centre
#                                CCDC 
#
#######################################################################
#
# If this CIF has been generated from an entry in the Cambridge 
# Structural Database, then it will include bibliographic, chemical, 
# crystal, experimental, refinement or atomic coordinate data resulting 
# from the CCDC's data processing and validation procedures.
#
#######################################################################

data_WUFQOE
_symmetry_cell_setting           monoclinic
_symmetry_space_group_name_H-M   'P 21/c'
_symmetry_Int_Tables_number      14
_space_group_name_Hall           '-P 2ybc'
loop_
_symmetry_equiv_pos_site_id
_symmetry_equiv_pos_as_xyz
1 x,y,z
2 -x,1/2+y,1/2-z
3 -x,-y,-z
4 x,1/2-y,1/2+z
_cell_length_a                   28.204(4)
_cell_length_b                   14.694(2)
_cell_length_c                   25.550(4)
_cell_angle_alpha                90
_cell_angle_beta                 112.081(3)
_cell_angle_gamma                90
_cell_volume                     9812.03
loop_
_atom_site_label
_atom_site_type_symbol
_atom_site_fract_x
_atom_site_fract_y
_atom_site_fract_z
Ag1 Ag 0.40287(2) 0.34210(4) 0.43954(3)
Ag2 Ag 0.45852(2) 0.58158(4) 0.46241(3)
Ag3 Ag 0.66422(2) 0.39338(4) 0.68936(3)
Ag4 Ag 0.28304(2) 0.41019(4) 0.30764(3)
Ag5 Ag 0.78566(2) 0.41257(4) 0.80956(3)
Ag6 Ag 0.15820(2) 0.38324(4) 0.19414(3)
Ag7 Ag 0.04224(3) 0.41468(4) 0.04413(3)
Ag8 Ag -0.10228(3) 0.36956(4) -0.05083(3)
S1 S 0.37492(7) 0.50393(12) 0.44368(7)
S2 S 0.49430(7) 0.28495(12) 0.47677(8)
S3 S 0.62857(7) 0.56349(12) 0.68384(7)
S4 S 0.20257(8) 0.34115(13) 0.30156(8)
S5 S 0.87381(7) 0.44443(12) 0.82018(8)
S6 S 0.70404(8) 0.34029(15) 0.79480(10)
S7 S 0.12879(7) 0.46798(12) 0.05467(8)
S8 S -0.01634(7) 0.28641(13) -0.01449(8)
P1 P 0.36179(7) 0.51682(13) 0.51495(8)
P2 P 0.48955(7) 0.20286(12) 0.53731(8)
P3 P 0.62697(7) 0.60936(13) 0.75690(8)
P4 P 0.21726(8) 0.21208(14) 0.28840(9)
P5 P 0.87758(7) 0.38683(13) 0.75128(8)
P6 P 0.72319(9) 0.21099(16) 0.78978(10)
P7 P 0.13601(7) 0.43950(13) -0.01888(8)
P8 P -0.02821(7) 0.21428(13) 0.04579(8)
O1 O 0.3196(2) 0.4492(4) 0.5158(2)
O2 O 0.3370(2) 0.6110(4) 0.5159(3)
O3 O 0.44564(19) 0.2452(3) 0.55330(19)
O4 O 0.47395(18) 0.1025(3) 0.5170(2)
O5 O 0.61490(19) 0.7133(3) 0.75344(19)
O6 O 0.58019(18) 0.5687(3) 0.7678(2)
O7 O 0.1687(2) 0.1511(4) 0.2740(2)
O8 O 0.2267(2) 0.2098(4) 0.2315(2)
O9 O 0.92678(18) 0.4183(3) 0.7420(2)
O10 O 0.88641(17) 0.2815(3) 0.75999(19)
O11 O 0.7364(4) 0.2000(6) 0.7371(4)
O12 O 0.6761(2) 0.1462(4) 0.7763(2)
O13 O 0.15267(18) 0.3375(3) -0.0190(2)
O14 O 0.18212(19) 0.4912(4) -0.0245(2)
O15 O -0.0741(2) 0.2660(4) 0.0540(2)
O16 O -0.0458(2) 0.1145(4) 0.0272(2)
N1 N 0.4089(3) 0.5007(5) 0.5727(3)
N2 N 0.4973(3) 0.4821(5) 0.5835(3)
N3 N 0.5407(2) 0.1852(4) 0.5898(3)
N4 N 0.6056(3) 0.3011(4) 0.6355(3)
N5 N 0.6757(2) 0.5924(4) 0.8132(2)
N6 N 0.7645(2) 0.5788(4) 0.8194(3)
N7 N 0.3396(3) 0.2428(5) 0.4005(3)
N8 N 0.2616(3) 0.1643(4) 0.3396(3)
N9 N 0.7410(3) 0.4274(4) 0.6777(3)
N10 N 0.8315(2) 0.4015(4) 0.6925(3)
N11 N 0.7664(3) 0.1740(5) 0.8449(4)
N12 N 0.8342(3) 0.2687(5) 0.9105(3)
N13 N 0.0888(3) 0.4611(5) -0.0748(3)
N14 N 0.0037(3) 0.5056(5) -0.0806(3)
N15 N 0.0193(3) 0.1978(4) 0.1029(3)
N16 N 0.0927(2) 0.2987(5) 0.1446(3)
C1 C 0.4549(3) 0.4906(5) 0.5768(3)
C2 C 0.5742(3) 0.2474(5) 0.6132(3)
C3 C 0.7220(3) 0.5861(5) 0.8144(3)
C4 C 0.3023(3) 0.2077(5) 0.3710(3)
C5 C 0.7844(3) 0.4142(5) 0.6861(3)
C6 C 0.8017(3) 0.2255(5) 0.8783(4)
C7 C 0.0445(3) 0.4847(5) -0.0764(3)
C8 C 0.0568(3) 0.2537(5) 0.1240(3)
C9 C 0.2720(4) 0.4300(7) 0.4675(5)
H1 H 0.2779 0.4406 0.4317
C10 C 0.3573(4) 0.6956(6) 0.5071(4)
H2 H 0.3887 0.6835 0.4989
C11 C 0.4314(3) 0.2068(6) 0.5988(3)
H3 H 0.4412 0.1411 0.6043
C12 C 0.4236(3) 0.0776(5) 0.4747(3)
H4 H 0.3984 0.1270 0.4719
C13 C 0.5819(3) 0.7638(5) 0.7026(3)
H5 H 0.5956 0.7560 0.6721
C14 C 0.5775(3) 0.4710(5) 0.7792(3)
H6 H 0.6088 0.4399 0.7787
C15 C 0.1420(4) 0.1381(6) 0.3117(4)
H7 H 0.1586 0.1746 0.3469
C16 C 0.2430(4) 0.1335(6) 0.2083(4)
H8 H 0.2692 0.0988 0.2396
C17 C 0.9322(3) 0.5115(5) 0.7240(4)
H9 H 0.9004 0.5464 0.7188
C18 C 0.9165(3) 0.2375(5) 0.8137(3)
H10 H 0.9042 0.2587 0.8436
C19 C 0.7369(5) 0.1494(9) 0.7003(5)
H11 H 0.7594 0.1030 0.7267
C20 C 0.6474(4) 0.1392(7) 0.8119(5)
H12 H 0.6577 0.1881 0.8412
C21 C 0.1176(3) 0.2643(5) -0.0162(4)
H13 H 0.0845 0.2918 -0.0182
C22 C 0.2352(3) 0.4774(6) 0.0161(4)
H14 H 0.2361 0.4271 0.0428
C23 C -0.0952(4) 0.2414(7) 0.0954(4)
H15 H -0.0917 0.1741 0.1016
C24 C -0.0853(3) 0.0914(6) -0.0281(4)
H16 H -0.0949 0.1465 -0.0528
C25 C 0.2595(4) 0.3342(7) 0.4706(5)
H17 H 0.2865 0.2960 0.4667
H18 H 0.2269 0.3201 0.4400
H19 H 0.2568 0.3221 0.5071
C26 C 0.2320(5) 0.4918(9) 0.4692(8)
H20 H 0.2008 0.4823 0.4357
H21 H 0.2435 0.5549 0.4700
H22 H 0.2248 0.4796 0.5032
C27 C 0.3206(5) 0.7449(8) 0.4596(5)
H23 H 0.3148 0.7113 0.4246
H24 H 0.3342 0.8054 0.4571
H25 H 0.2883 0.7510 0.4652
C28 C 0.3726(5) 0.7496(8) 0.5617(4)
H26 H 0.3429 0.7562 0.5725
H27 H 0.3847 0.8100 0.5561
H28 H 0.4000 0.7175 0.5917
C29 C 0.3746(4) 0.2158(7) 0.5787(4)
H29 H 0.3653 0.2804 0.5754
H30 H 0.3624 0.1864 0.6057
H31 H 0.3588 0.1865 0.5417
C30 C 0.4598(4) 0.2583(7) 0.6519(3)
H32 H 0.4967 0.2482 0.6630
H33 H 0.4491 0.2370 0.6821
H34 H 0.4524 0.3234 0.6455
C31 C 0.4079(3) -0.0082(5) 0.4962(4)
H35 H 0.4331 -0.0562 0.4997
H36 H 0.3742 -0.0278 0.4696
H37 H 0.4061 0.0034 0.5332
C32 C 0.4283(3) 0.0656(5) 0.4184(3)
H38 H 0.4416 0.1217 0.4083
H39 H 0.3946 0.0518 0.3896
H40 H 0.4519 0.0153 0.4207
C33 C 0.5871(4) 0.8616(5) 0.7206(4)
H41 H 0.5786 0.8681 0.7542
H42 H 0.5639 0.8990 0.6899
H43 H 0.6225 0.8816 0.7294
C34 C 0.5285(3) 0.7284(6) 0.6823(3)
H44 H 0.5283 0.6640 0.6722
H45 H 0.5070 0.7631 0.6492
H46 H 0.5150 0.7346 0.7124
C35 C 0.5324(5) 0.4332(7) 0.7346(4)
H47 H 0.5016 0.4635 0.7350
H48 H 0.5303 0.3678 0.7410
H49 H 0.5351 0.4429 0.6979
C36 C 0.5760(4) 0.4632(6) 0.8370(4)
H50 H 0.5461 0.4960 0.8381
H51 H 0.6072 0.4896 0.8648
H52 H 0.5737 0.3989 0.8459
C37 C 0.1446(5) 0.0402(7) 0.3253(5)
H53 H 0.1805 0.0217 0.3436
H54 H 0.1267 0.0287 0.3509
H55 H 0.1284 0.0051 0.2905
C38 C 0.0878(4) 0.1686(9) 0.2814(6)
H56 H 0.0721 0.1332 0.2467
H57 H 0.0685 0.1593 0.3058
H58 H 0.0873 0.2334 0.2720
C39 C 0.1991(4) 0.0715(6) 0.1776(4)
H59 H 0.1731 0.1052 0.1471
H60 H 0.2113 0.0202 0.1617
H61 H 0.1841 0.0487 0.2040
C40 C 0.2677(4) 0.1714(7) 0.1696(4)
H62 H 0.2964 0.2109 0.1913
H63 H 0.2804 0.1211 0.1532
H64 H 0.2425 0.2065 0.1393
C41 C 0.9381(5) 0.5051(7) 0.6679(4)
H65 H 0.9656 0.4622 0.6708
H66 H 0.9465 0.5652 0.6572
H67 H 0.9060 0.4837 0.6391
C42 C 0.9757(4) 0.5552(7) 0.7688(4)
H68 H 0.9708 0.5511 0.8047
H69 H 0.9776 0.6193 0.7593
H70 H 1.0075 0.5242 0.7722
C43 C 0.9058(4) 0.1379(6) 0.8033(4)
H71 H 0.8691 0.1269 0.7926
H72 H 0.9249 0.1039 0.8378
H73 H 0.9163 0.1177 0.7728
C44 C 0.9718(3) 0.2604(6) 0.8307(4)
H74 H 0.9826 0.2478 0.7992
H75 H 0.9920 0.2234 0.8634
H76 H 0.9770 0.3250 0.8406
C45 C 0.7728(4) 0.1697(6) 0.6725(4)
H77 H 0.7552 0.2044 0.6379
H78 H 0.7858 0.1126 0.6631
H79 H 0.8015 0.2055 0.6980
C46 C 0.6952(4) 0.0839(6) 0.6701(4)
H80 H 0.6766 0.0680 0.6944
H81 H 0.7100 0.0287 0.6609
H82 H 0.6716 0.1119 0.6353
C47 C 0.6579(6) 0.0490(8) 0.8385(5)
H83 H 0.6471 0.0019 0.8093
H84 H 0.6390 0.0419 0.8636
H85 H 0.6947 0.0430 0.8606
C48 C 0.5926(5) 0.1503(10) 0.7737(8)
H86 H 0.5872 0.2118 0.7577
H87 H 0.5707 0.1408 0.7953
H88 H 0.5840 0.1055 0.7431
C49 C 0.1419(4) 0.2161(6) 0.0386(4)
H89 H 0.1479 0.2593 0.0697
H90 H 0.1192 0.1674 0.0414
H91 H 0.1745 0.1900 0.0409
C50 C 0.1081(3) 0.2042(6) -0.0671(4)
H92 H 0.0836 0.1564 -0.0679
H93 H 0.0941 0.2409 -0.1016
H94 H 0.1403 0.1763 -0.0649
C51 C 0.2649(4) 0.4507(9) -0.0187(6)
H95 H 0.2623 0.4988 -0.0462
H96 H 0.3008 0.4418 0.0058
H97 H 0.2510 0.3939 -0.0387
C52 C 0.2533(4) 0.5642(8) 0.0482(5)
H98 H 0.2376 0.5709 0.0763
H99 H 0.2906 0.5627 0.0673
H100 H 0.2434 0.6158 0.0219
C53 C -0.1504(4) 0.2649(7) 0.0701(4)
H101 H -0.1543 0.3312 0.0681
H102 H -0.1679 0.2398 0.0935
H103 H -0.1654 0.2392 0.0320
C54 C -0.0671(4) 0.2884(7) 0.1501(4)
H104 H -0.0305 0.2744 0.1627
H105 H -0.0801 0.2674 0.1786
H106 H -0.0721 0.3543 0.1450
C55 C -0.1310(4) 0.0560(7) -0.0172(4)
H107 H -0.1204 0.0048 0.0093
H108 H -0.1572 0.0356 -0.0528
H109 H -0.1449 0.1046 -0.0009
C56 C -0.0633(4) 0.0203(7) -0.0539(4)
H110 H -0.0326 0.0443 -0.0585
H111 H -0.0886 0.0032 -0.0910
H112 H -0.0541 -0.0334 -0.0294
Ag2B Ag 0.54148(2) 0.41842(4) 0.53759(3)
Ag4B Ag 0.71696(2) 0.58981(4) 0.69236(3)
Ag6B Ag 0.84180(2) 0.61676(4) 0.80586(3)
Ag7B Ag -0.04224(3) 0.58532(4) -0.04413(3)
Ag8B Ag 0.10228(3) 0.63044(4) 0.05083(3)
Ag8_2 Ag 0.89772(3) 0.36956(4) 0.94917(3)
S2B S 0.50570(7) 0.71505(12) 0.52323(8)
S3B S 0.37143(7) 0.43651(12) 0.31616(7)
S5B S 0.12619(7) 0.55557(12) 0.17982(8)
S7B S -0.12879(7) 0.53202(12) -0.05467(8)
N2B N 0.5027(3) 0.5179(5) 0.4165(3)
N6B N 0.2355(2) 0.4212(4) 0.1806(3)
N9B N 0.2590(3) 0.5726(4) 0.3223(3)
N12_2 N -0.1658(3) 0.2687(5) -0.0895(3)
N14B N -0.0037(3) 0.4944(5) 0.0806(3)
loop_
_geom_bond_atom_site_label_1
_geom_bond_atom_site_label_2
_geom_bond_site_symmetry_1
_geom_bond_site_symmetry_2
Ag1 S1 1_555 1_555
Ag2 S1 1_555 1_555
Ag3 S3 1_555 1_555
Ag4 S4 1_555 1_555
Ag5 S5 1_555 1_555
Ag6 S4 1_555 1_555
Ag7 S7 1_555 1_555
Ag8 S8 1_555 1_555
S1 P1 1_555 1_555
S2 Ag1 1_555 1_555
S3 P3 1_555 1_555
S4 P4 1_555 1_555
S5 P5 1_555 1_555
S6 Ag3 1_555 1_555
S7 P7 1_555 1_555
S8 Ag7 1_555 1_555
P1 O1 1_555 1_555
P2 S2 1_555 1_555
P3 O5 1_555 1_555
P4 O7 1_555 1_555
P5 O9 1_555 1_555
P6 S6 1_555 1_555
P7 O13 1_555 1_555
P8 S8 1_555 1_555
O1 C9 1_555 1_555
O2 P1 1_555 1_555
O3 P2 1_555 1_555
O4 P2 1_555 1_555
O5 C13 1_555 1_555
O6 P3 1_555 1_555
O7 C15 1_555 1_555
O8 P4 1_555 1_555
O9 C17 1_555 1_555
O10 P5 1_555 1_555
O11 P6 1_555 1_555
O12 P6 1_555 1_555
O13 C21 1_555 1_555
O14 P7 1_555 1_555
O15 P8 1_555 1_555
O16 P8 1_555 1_555
N1 P1 1_555 1_555
N2 C1 1_555 1_555
N3 P2 1_555 1_555
N4 Ag3 1_555 1_555
N5 P3 1_555 1_555
N6 Ag5 1_555 1_555
N7 Ag1 1_555 1_555
N8 P4 1_555 1_555
N9 Ag3 1_555 1_555
N10 P5 1_555 1_555
N11 P6 1_555 1_555
N12 C6 1_555 1_555
N13 P7 1_555 1_555
N14 C7 1_555 1_555
N15 P8 1_555 1_555
N16 Ag6 1_555 1_555
C1 N1 1_555 1_555
C2 N3 1_555 1_555
C3 N5 1_555 1_555
C4 N7 1_555 1_555
C5 N9 1_555 1_555
C6 N11 1_555 1_555
C7 N13 1_555 1_555
C8 N15 1_555 1_555
C9 H1 1_555 1_555
C10 O2 1_555 1_555
H2 C10 1_555 1_555
C11 O3 1_555 1_555
H3 C11 1_555 1_555
C12 O4 1_555 1_555
H4 C12 1_555 1_555
C13 H5 1_555 1_555
C14 O6 1_555 1_555
H6 C14 1_555 1_555
C15 H7 1_555 1_555
C16 O8 1_555 1_555
H8 C16 1_555 1_555
C17 H9 1_555 1_555
C18 O10 1_555 1_555
H10 C18 1_555 1_555
C19 O11 1_555 1_555
H11 C19 1_555 1_555
C20 O12 1_555 1_555
H12 C20 1_555 1_555
C21 H13 1_555 1_555
C22 O14 1_555 1_555
H14 C22 1_555 1_555
C23 O15 1_555 1_555
H15 C23 1_555 1_555
C24 O16 1_555 1_555
H16 C24 1_555 1_555
C25 C9 1_555 1_555
H17 C25 1_555 1_555
H18 C25 1_555 1_555
H19 C25 1_555 1_555
C26 C9 1_555 1_555
H20 C26 1_555 1_555
H21 C26 1_555 1_555
H22 C26 1_555 1_555
C27 C10 1_555 1_555
H23 C27 1_555 1_555
H24 C27 1_555 1_555
H25 C27 1_555 1_555
C28 C10 1_555 1_555
H26 C28 1_555 1_555
H27 C28 1_555 1_555
H28 C28 1_555 1_555
C29 C11 1_555 1_555
H29 C29 1_555 1_555
H30 C29 1_555 1_555
H31 C29 1_555 1_555
C30 C11 1_555 1_555
H32 C30 1_555 1_555
H33 C30 1_555 1_555
H34 C30 1_555 1_555
C31 C12 1_555 1_555
H35 C31 1_555 1_555
H36 C31 1_555 1_555
H37 C31 1_555 1_555
C32 C12 1_555 1_555
H38 C32 1_555 1_555
H39 C32 1_555 1_555
H40 C32 1_555 1_555
C33 C13 1_555 1_555
H41 C33 1_555 1_555
H42 C33 1_555 1_555
H43 C33 1_555 1_555
C34 C13 1_555 1_555
H44 C34 1_555 1_555
H45 C34 1_555 1_555
H46 C34 1_555 1_555
C35 C14 1_555 1_555
H47 C35 1_555 1_555
H48 C35 1_555 1_555
H49 C35 1_555 1_555
C36 C14 1_555 1_555
H50 C36 1_555 1_555
H51 C36 1_555 1_555
H52 C36 1_555 1_555
C37 C15 1_555 1_555
H53 C37 1_555 1_555
H54 C37 1_555 1_555
H55 C37 1_555 1_555
C38 C15 1_555 1_555
H56 C38 1_555 1_555
H57 C38 1_555 1_555
H58 C38 1_555 1_555
C39 C16 1_555 1_555
H59 C39 1_555 1_555
H60 C39 1_555 1_555
H61 C39 1_555 1_555
C40 C16 1_555 1_555
H62 C40 1_555 1_555
H63 C40 1_555 1_555
H64 C40 1_555 1_555
C41 C17 1_555 1_555
H65 C41 1_555 1_555
H66 C41 1_555 1_555
H67 C41 1_555 1_555
C42 C17 1_555 1_555
H68 C42 1_555 1_555
H69 C42 1_555 1_555
H70 C42 1_555 1_555
C43 C18 1_555 1_555
H71 C43 1_555 1_555
H72 C43 1_555 1_555
H73 C43 1_555 1_555
C44 C18 1_555 1_555
H74 C44 1_555 1_555
H75 C44 1_555 1_555
H76 C44 1_555 1_555
C45 C19 1_555 1_555
H77 C45 1_555 1_555
H78 C45 1_555 1_555
H79 C45 1_555 1_555
C46 C19 1_555 1_555
H80 C46 1_555 1_555
H81 C46 1_555 1_555
H82 C46 1_555 1_555
C47 C20 1_555 1_555
H83 C47 1_555 1_555
H84 C47 1_555 1_555
H85 C47 1_555 1_555
C48 C20 1_555 1_555
H86 C48 1_555 1_555
H87 C48 1_555 1_555
H88 C48 1_555 1_555
C49 C21 1_555 1_555
H89 C49 1_555 1_555
H90 C49 1_555 1_555
H91 C49 1_555 1_555
C50 C21 1_555 1_555
H92 C50 1_555 1_555
H93 C50 1_555 1_555
H94 C50 1_555 1_555
C51 C22 1_555 1_555
H95 C51 1_555 1_555
H96 C51 1_555 1_555
H97 C51 1_555 1_555
C52 C22 1_555 1_555
H98 C52 1_555 1_555
H99 C52 1_555 1_555
H100 C52 1_555 1_555
C53 C23 1_555 1_555
H101 C53 1_555 1_555
H102 C53 1_555 1_555
H103 C53 1_555 1_555
C54 C23 1_555 1_555
H104 C54 1_555 1_555
H105 C54 1_555 1_555
H106 C54 1_555 1_555
C55 C24 1_555 1_555
H107 C55 1_555 1_555
H108 C55 1_555 1_555
H109 C55 1_555 1_555
C56 C24 1_555 1_555
H110 C56 1_555 1_555
H111 C56 1_555 1_555
H112 C56 1_555 1_555
Ag2B S2 1_555 1_555
Ag4B S3 1_555 1_555
Ag6B S5 1_555 1_555
Ag7B N14 1_555 1_555
Ag8B S7 1_555 1_555
Ag8_2 N12 1_555 1_555
S2B Ag2 1_555 1_555
S3B Ag4 1_555 1_555
S5B Ag6 1_555 1_555
S7B Ag8 1_555 1_555
N2B Ag2 1_555 1_555
N6B Ag6 1_555 1_555
N9B Ag4 1_555 1_555
N12_2 Ag8 1_555 1_555
N14B Ag7 1_555 1_555
Ag5 S6 1_555 1_555
N2 Ag2B 1_555 1_555
N4 C2 1_555 1_555
N6 C3 1_555 1_555
N6 Ag6B 1_555 1_555
N8 C4 1_555 1_555
N9 Ag4B 1_555 1_555
N10 C5 1_555 1_555
N16 C8 1_555 1_555
Ag7B S7B 1_555 1_555

#END
