
#######################################################################
#
#                 Cambridge Crystallographic Data Centre
#                                CCDC 
#
#######################################################################
#
# If this CIF has been generated from an entry in the Cambridge 
# Structural Database, then it will include bibliographic, chemical, 
# crystal, experimental, refinement or atomic coordinate data resulting 
# from the CCDC's data processing and validation procedures.
#
#######################################################################

data_WUFREW
_symmetry_cell_setting           monoclinic
_symmetry_space_group_name_H-M   'C 2/c'
_symmetry_Int_Tables_number      15
_space_group_name_Hall           '-C 2yn'
loop_
_symmetry_equiv_pos_site_id
_symmetry_equiv_pos_as_xyz
1 x,y,z
2 -x,y,1/2-z
3 1/2+x,1/2+y,z
4 1/2-x,1/2+y,1/2-z
5 -x,-y,-z
6 x,-y,1/2+z
7 1/2-x,1/2-y,-z
8 1/2+x,1/2-y,1/2+z
_cell_length_a                   17.251(6)
_cell_length_b                   16.965(6)
_cell_length_c                   14.668(5)
_cell_angle_alpha                90
_cell_angle_beta                 118.565(5)
_cell_angle_gamma                90
_cell_volume                     3770.25
loop_
_atom_site_label
_atom_site_type_symbol
_atom_site_fract_x
_atom_site_fract_y
_atom_site_fract_z
Sm1 Sm 0.0000 0.22038(3) 0.2500
Co1 Co 0.29010(6) 0.47374(6) 0.35040(7)
O1 O 0.1389(4) 0.1643(3) 0.3582(5)
O2 O 0.0978(4) 0.3271(3) 0.3418(5)
O3 O 0.4529(5) 0.7813(3) 0.3638(6)
O4 O 0.4069(3) 0.5136(3) 0.3574(5)
O5 O 0.1716(3) 0.4322(3) 0.3404(4)
O6 O 0.3703(4) 0.8454(3) 0.4184(5)
O7 O 0.3488(4) 0.4796(4) 0.5179(4)
H1 H 0.3118 0.4614 0.5391
H2 H 0.3622 0.5288 0.5408
N1 N 0.3112(4) 0.3528(3) 0.3639(5)
O8 O 0.4813(3) 0.6181(3) 0.3527(4)
N2 N 0.2733(4) 0.5959(4) 0.3477(5)
N3 N 0.3495(4) 0.2285(3) 0.3968(5)
O9 O 0.2656(4) 0.1008(3) 0.4222(4)
N4 N 0.2561(4) 0.7215(3) 0.3671(5)
O10 O 0.2302(5) 0.4726(4) 0.1882(5)
H3 H 0.2386 0.5178 0.1627
H4 H 0.1718 0.4654 0.1594
C1 C 0.3456(4) 0.6358(4) 0.3562(5)
C2 C 0.1647(4) 0.3588(4) 0.3480(5)
C3 C 0.3355(5) 0.7152(4) 0.3683(6)
C4 C 0.2425(4) 0.3121(4) 0.3641(5)
C5 C 0.2205(5) 0.6495(5) 0.3544(6)
C6 C 0.3908(5) 0.7866(4) 0.3843(6)
C7 C 0.4166(5) 0.5863(4) 0.3551(5)
C8 C 0.2207(5) 0.1606(4) 0.3888(5)
C9 C 0.2652(5) 0.2338(5) 0.3832(5)
C10 C 0.3753(5) 0.3004(4) 0.3839(6)
C11 C 0.4607(5) 0.3167(6) 0.3884(7)
H5 H 0.4517 0.3277 0.3198
H6 H 0.4985 0.2716 0.4159
H7 H 0.4878 0.3614 0.4324
C12 C 0.1336(6) 0.6330(6) 0.3490(8)
H8 H 0.1065 0.5885 0.3045
H9 H 0.0960 0.6782 0.3217
H10 H 0.1422 0.6215 0.4173
Co1A Co -0.29010(6) 0.47374(6) 0.14960(7)
O1A O -0.1389(4) 0.1643(3) 0.1418(5)
O2A O -0.0978(4) 0.3271(3) 0.1582(5)
O3A O -0.4529(5) 0.7813(3) 0.1362(6)
O4A O -0.4069(3) 0.5136(3) 0.1426(5)
O5A O -0.1716(3) 0.4322(3) 0.1596(4)
O6A O -0.3703(4) 0.8454(3) 0.0816(5)
O7A O -0.3488(4) 0.4796(4) -0.0179(4)
H1A H -0.3118 0.4614 -0.0391
H2A H -0.3622 0.5288 -0.0408
N1A N -0.3112(4) 0.3528(3) 0.1361(5)
O8A O -0.4813(3) 0.6181(3) 0.1473(4)
N2A N -0.2733(4) 0.5959(4) 0.1523(5)
N3A N -0.3495(4) 0.2285(3) 0.1032(5)
O9A O -0.2656(4) 0.1008(3) 0.0778(4)
N4A N -0.2561(4) 0.7215(3) 0.1329(5)
O10A O -0.2302(5) 0.4726(4) 0.3118(5)
H3A H -0.2386 0.5178 0.3373
H4A H -0.1718 0.4654 0.3406
C1A C -0.3456(4) 0.6358(4) 0.1438(5)
C2A C -0.1647(4) 0.3588(4) 0.1520(5)
C3A C -0.3355(5) 0.7152(4) 0.1317(6)
C4A C -0.2425(4) 0.3121(4) 0.1359(5)
C5A C -0.2205(5) 0.6495(5) 0.1456(6)
C6A C -0.3908(5) 0.7866(4) 0.1157(6)
C7A C -0.4166(5) 0.5863(4) 0.1449(5)
C8A C -0.2207(5) 0.1606(4) 0.1112(5)
C9A C -0.2652(5) 0.2338(5) 0.1168(5)
C10A C -0.3753(5) 0.3004(4) 0.1161(6)
C11A C -0.4607(5) 0.3167(6) 0.1116(7)
H5A H -0.4517 0.3277 0.1802
H6A H -0.4985 0.2716 0.0841
H7A H -0.4878 0.3614 0.0676
C12A C -0.1336(6) 0.6330(6) 0.1510(8)
H8A H -0.1065 0.5885 0.1955
H9A H -0.0960 0.6782 0.1783
H10A H -0.1422 0.6215 0.0827
Sm1B Sm -0.5000 0.72038(3) 0.2500
Sm1B_2 Sm 0.5000 0.72038(3) 0.2500
O3B O -0.0471(5) 0.2813(3) 0.3638(6)
O3C O 0.0471(5) 0.2813(3) 0.1362(6)
O8B O -0.0187(3) 0.1181(3) 0.3527(4)
O8C O 0.0187(3) 0.1181(3) 0.1473(4)
loop_
_geom_bond_atom_site_label_1
_geom_bond_atom_site_label_2
_geom_bond_site_symmetry_1
_geom_bond_site_symmetry_2
Sm1 O1 1_555 1_555
Co1 O4 1_555 1_555
O1 C8 1_555 1_555
O2 Sm1 1_555 1_555
O3 C6 1_555 1_555
O4 C7 1_555 1_555
O5 Co1 1_555 1_555
O6 C6 1_555 1_555
O7 Co1 1_555 1_555
H1 O7 1_555 1_555
H2 O7 1_555 1_555
N1 Co1 1_555 1_555
O8 C7 1_555 1_555
N2 Co1 1_555 1_555
N3 C9 1_555 1_555
O9 C8 1_555 1_555
N4 C3 1_555 1_555
O10 Co1 1_555 1_555
H3 O10 1_555 1_555
H4 O10 1_555 1_555
C1 N2 1_555 1_555
C2 O2 1_555 1_555
C3 C1 1_555 1_555
C4 N1 1_555 1_555
C5 N2 1_555 1_555
C6 C3 1_555 1_555
C7 C1 1_555 1_555
C8 C9 1_555 1_555
C9 C4 1_555 1_555
C10 N1 1_555 1_555
C11 C10 1_555 1_555
H5 C11 1_555 1_555
H6 C11 1_555 1_555
H7 C11 1_555 1_555
C12 C5 1_555 1_555
H8 C12 1_555 1_555
H9 C12 1_555 1_555
H10 C12 1_555 1_555
Co1A O4A 1_555 1_555
O1A Sm1 1_555 1_555
O2A Sm1 1_555 1_555
O3A C6A 1_555 1_555
O4A C7A 1_555 1_555
O5A Co1A 1_555 1_555
O6A C6A 1_555 1_555
O7A Co1A 1_555 1_555
H1A O7A 1_555 1_555
H2A O7A 1_555 1_555
N1A Co1A 1_555 1_555
O8A C7A 1_555 1_555
N2A Co1A 1_555 1_555
N3A C9A 1_555 1_555
O9A C8A 1_555 1_555
N4A C3A 1_555 1_555
O10A Co1A 1_555 1_555
H3A O10A 1_555 1_555
H4A O10A 1_555 1_555
C1A N2A 1_555 1_555
C2A O2A 1_555 1_555
C3A C1A 1_555 1_555
C4A N1A 1_555 1_555
C5A N2A 1_555 1_555
C6A C3A 1_555 1_555
C7A C1A 1_555 1_555
C8A O1A 1_555 1_555
C9A C4A 1_555 1_555
C10A N1A 1_555 1_555
C11A C10A 1_555 1_555
H5A C11A 1_555 1_555
H6A C11A 1_555 1_555
H7A C11A 1_555 1_555
C12A C5A 1_555 1_555
H8A C12A 1_555 1_555
H9A C12A 1_555 1_555
H10A C12A 1_555 1_555
Sm1B O3A 1_555 1_555
Sm1B_2 O3 1_555 1_555
O3B Sm1 1_555 1_555
O3C Sm1 1_555 1_555
O8B Sm1 1_555 1_555
O8C Sm1 1_555 1_555
O5 C2 1_555 1_555
O8 Sm1B_2 1_555 1_555
N3 C10 1_555 1_555
N4 C5 1_555 1_555
C2 C4 1_555 1_555
O5A C2A 1_555 1_555
O8A Sm1B 1_555 1_555
N3A C10A 1_555 1_555
N4A C5A 1_555 1_555
C2A C4A 1_555 1_555
C8A C9A 1_555 1_555

#END
