
#######################################################################
#
#                 Cambridge Crystallographic Data Centre
#                                CCDC 
#
#######################################################################
#
# If this CIF has been generated from an entry in the Cambridge 
# Structural Database, then it will include bibliographic, chemical, 
# crystal, experimental, refinement or atomic coordinate data resulting 
# from the CCDC's data processing and validation procedures.
#
#######################################################################

data_WUFYUS
_symmetry_cell_setting           orthorhombic
_symmetry_space_group_name_H-M   'P 21 21 21'
_symmetry_Int_Tables_number      19
_space_group_name_Hall           'P 2ac 2ab'
loop_
_symmetry_equiv_pos_site_id
_symmetry_equiv_pos_as_xyz
1 x,y,z
2 1/2-x,-y,1/2+z
3 -x,1/2+y,1/2-z
4 1/2+x,1/2-y,-z
_cell_length_a                   7.9638(18)
_cell_length_b                   10.000(2)
_cell_length_c                   25.767(6)
_cell_angle_alpha                90
_cell_angle_beta                 90
_cell_angle_gamma                90
_cell_volume                     2052.03
loop_
_atom_site_label
_atom_site_type_symbol
_atom_site_fract_x
_atom_site_fract_y
_atom_site_fract_z
K1 K 0.51175(6) -0.31055(5) 1.01885(2)
S1 S 0.65500(7) 0.05983(6) 0.97820(2)
O1 O 0.4632(3) -0.1075(2) 0.77732(7)
O2 O 0.6991(2) -0.08111(17) 0.99260(7)
O3 O 0.4474(3) 0.53279(18) 1.18662(7)
N1 N 0.6313(3) 0.0865(2) 1.08298(8)
N2 N 0.5738(3) 0.27783(19) 1.03656(7)
N3 N 0.5096(3) 0.42436(18) 1.10938(7)
N4 N 0.3540(2) -0.1667(2) 0.93217(7)
C1 C 0.6173(3) 0.1481(2) 1.03763(8)
C2 C 0.5558(3) 0.3053(2) 1.08851(8)
C3 C 0.5911(3) 0.1886(2) 1.11705(9)
C4 C 0.5795(4) 0.1934(3) 1.17081(9)
H1 H 0.6032 0.1191 1.1913
C5 C 0.5318(4) 0.3121(3) 1.19213(9)
H2 H 0.5219 0.3199 1.228
C6 C 0.4979(3) 0.4219(2) 1.16053(9)
C7 C 0.3996(4) 0.6465(3) 1.15663(11)
H3 H 0.4972 0.6844 1.1404
H4 H 0.3485 0.712 1.1788
H5 H 0.3209 0.6198 1.1304
C8 C 0.4349(3) 0.0537(2) 0.95736(8)
H6 H 0.3641 0.0309 0.9867
H7 H 0.4009 0.141 0.9447
C9 C 0.4125(3) -0.0483(2) 0.91519(8)
C10 C 0.4506(3) -0.0229(2) 0.86349(9)
C11 C 0.5184(4) 0.1096(3) 0.84559(11)
H8 H 0.4309 0.1756 0.847
H9 H 0.5581 0.1016 0.8106
H10 H 0.6093 0.1363 0.8677
C12 C 0.4219(3) -0.1273(3) 0.82846(8)
C13 C 0.3260(5) -0.0864(4) 0.74391(12)
H11 H 0.2308 -0.1361 0.7562
H12 H 0.3546 -0.1159 0.7096
H13 H 0.2988 0.0071 0.7431
C14 C 0.3625(3) -0.2494(3) 0.84478(9)
C15 C 0.3335(5) -0.3672(3) 0.80911(12)
H14 H 0.2251 -0.3591 0.7931
H15 H 0.3382 -0.4486 0.8288
H16 H 0.4188 -0.3686 0.7828
C16 C 0.3302(3) -0.2625(3) 0.89746(9)
H17 H 0.2889 -0.3441 0.9092
C17 C 0.6657(4) -0.5595(3) 0.91630(10)
H18 H 0.5825 -0.596 0.8927
H19 H 0.7488 -0.6283 0.923
O4 O 0.8837(3) -0.38710(17) 0.92103(7)
H20 H 0.9564 -0.4443 0.9248
O5 O 0.5880(3) -0.52235(18) 0.96294(7)
H21 H 0.5429 -0.5879 0.976
C18 C 0.7487(4) -0.4409(3) 0.89188(10)
H22 H 0.7902 -0.4666 0.8579
H23 H 0.6651 -0.3716 0.8868
K1C K 1.01175(6) -0.18945(5) 0.98115(2)
K1C_2 K 0.01175(6) -0.18945(5) 0.98115(2)
O2C O 0.1991(2) -0.41889(17) 1.00740(7)
N4C N 0.8540(2) -0.3333(2) 1.06783(7)
O4C O 0.3837(3) -0.11290(17) 1.07897(7)
H20C H 0.4564 -0.0557 1.0752
loop_
_geom_bond_atom_site_label_1
_geom_bond_atom_site_label_2
_geom_bond_site_symmetry_1
_geom_bond_site_symmetry_2
K1 O2 1_555 1_555
S1 O2 1_555 1_555
O1 C12 1_555 1_555
O2 K1C 1_555 1_555
O3 C6 1_555 1_555
N1 C1 1_555 1_555
N2 C1 1_555 1_555
N3 C2 1_555 1_555
N4 K1 1_555 1_555
C1 S1 1_555 1_555
C2 N2 1_555 1_555
C3 N1 1_555 1_555
C4 C3 1_555 1_555
H1 C4 1_555 1_555
C5 C4 1_555 1_555
H2 C5 1_555 1_555
C6 N3 1_555 1_555
C7 O3 1_555 1_555
H3 C7 1_555 1_555
H4 C7 1_555 1_555
H5 C7 1_555 1_555
C8 S1 1_555 1_555
H6 C8 1_555 1_555
H7 C8 1_555 1_555
C9 N4 1_555 1_555
C10 C9 1_555 1_555
C11 C10 1_555 1_555
H8 C11 1_555 1_555
H9 C11 1_555 1_555
H10 C11 1_555 1_555
C12 C10 1_555 1_555
C13 O1 1_555 1_555
H11 C13 1_555 1_555
H12 C13 1_555 1_555
H13 C13 1_555 1_555
C14 C12 1_555 1_555
C15 C14 1_555 1_555
H14 C15 1_555 1_555
H15 C15 1_555 1_555
H16 C15 1_555 1_555
C16 N4 1_555 1_555
H17 C16 1_555 1_555
C17 H18 1_555 1_555
H19 C17 1_555 1_555
O4 H20 1_555 1_555
O5 K1 1_555 1_555
H21 O5 1_555 1_555
C18 C17 1_555 1_555
H22 C18 1_555 1_555
H23 C18 1_555 1_555
K1C O4 1_555 1_555
K1C_2 N4 1_555 1_555
O2C K1 1_555 1_555
N4C K1 1_555 1_555
O4C K1 1_555 1_555
H20C O4C 1_555 1_555
C2 C3 1_555 1_555
C5 C6 1_555 1_555
C8 C9 1_555 1_555
C14 C16 1_555 1_555
C17 O5 1_555 1_555
O4 C18 1_555 1_555
K1C N4C 1_555 1_555
K1C_2 O2C 1_555 1_555

#END
