
#######################################################################
#
#                 Cambridge Crystallographic Data Centre
#                                CCDC 
#
#######################################################################
#
# If this CIF has been generated from an entry in the Cambridge 
# Structural Database, then it will include bibliographic, chemical, 
# crystal, experimental, refinement or atomic coordinate data resulting 
# from the CCDC's data processing and validation procedures.
#
#######################################################################

data_WUGCOS
_symmetry_cell_setting           triclinic
_symmetry_space_group_name_H-M   'P -1'
_symmetry_Int_Tables_number      2
_space_group_name_Hall           '-P 1'
loop_
_symmetry_equiv_pos_site_id
_symmetry_equiv_pos_as_xyz
1 x,y,z
2 -x,-y,-z
_cell_length_a                   8.907(5)
_cell_length_b                   15.814(8)
_cell_length_c                   18.114(9)
_cell_angle_alpha                109.786(6)
_cell_angle_beta                 96.732(7)
_cell_angle_gamma                99.446(6)
_cell_volume                     2326.88
loop_
_atom_site_label
_atom_site_type_symbol
_atom_site_fract_x
_atom_site_fract_y
_atom_site_fract_z
C1 C -0.3647(8) -0.9337(4) -0.3026(4)
H1 H -0.2875 -0.8774 -0.2841
H2 H -0.3182 -0.9823 -0.2968
H3 H -0.4454 -0.9261 -0.2718
C2 C -0.4291(7) -0.9567(4) -0.3854(4)
H4 H -0.5176 -1.0081 -0.4019
H5 H -0.3523 -0.9753 -0.4177
C3 C -0.6261(5) -0.8851(3) -0.4174(2)
C4 C -0.6685(5) -0.8001(2) -0.4247(2)
H6 H -0.7319 -0.8169 -0.4770
H7 H -0.7314 -0.7773 -0.3853
C5 C -0.4727(4) -0.6704(2) -0.33972(19)
C6 C -0.4997(4) -0.6839(2) -0.27092(19)
H8 H -0.5692 -0.7356 -0.2726
C7 C -0.4193(4) -0.6173(2) -0.19879(18)
C8 C -0.3134(3) -0.5397(2) -0.19329(18)
C9 C -0.2883(4) -0.5292(2) -0.26460(19)
H9 H -0.2185 -0.4778 -0.2632
C10 C -0.3649(4) -0.5934(2) -0.3362(2)
H10 H -0.3455 -0.5860 -0.3832
C11 C -0.3786(4) -0.5687(2) -0.06031(19)
H11 H -0.4011 -0.5802 -0.0153
C12 C -0.2778(4) -0.4909(2) -0.04780(18)
C13 C -0.2349(4) -0.4708(2) -0.11619(19)
C14 C -0.2040(4) -0.4278(2) 0.03523(19)
C15 C -0.1168(4) -0.4570(2) 0.08591(19)
H12 H -0.1021 -0.5170 0.0676
C16 C -0.0509(4) -0.3995(2) 0.16298(19)
H13 H 0.0091 -0.4204 0.1957
C17 C -0.0739(4) -0.3101(2) 0.19202(18)
C18 C -0.1585(4) -0.2783(2) 0.14137(18)
C19 C -0.2231(4) -0.3374(2) 0.06395(18)
H14 H -0.2805 -0.3162 0.0304
C20 C 0.0700(4) -0.2814(2) 0.31996(19)
H15 H 0.1695 -0.2874 0.3045
H16 H 0.0152 -0.3414 0.3163
C21 C 0.0935(4) -0.2144(2) 0.4035(2)
C22 C 0.1901(6) -0.1908(3) 0.5373(2)
H17 H 0.2482 -0.1289 0.5487
H18 H 0.0900 -0.1869 0.5528
C23 C 0.2730(8) -0.2351(4) 0.5815(3)
H19 H 0.2216 -0.2987 0.5648
H20 H 0.2756 -0.2050 0.6375
H21 H 0.3769 -0.2311 0.5715
C24 C 0.4152(8) 0.9322(5) 0.8098(4)
H22 H 0.4631 0.9043 0.7656
H23 H 0.3925 0.9887 0.8078
H24 H 0.3208 0.8910 0.8071
C25 C 0.5182(7) 0.9508(3) 0.8830(4)
H25 H 0.4705 0.9805 0.9275
H26 H 0.6128 0.9931 0.8858
C26 C 0.6987(5) 0.8715(2) 0.9211(2)
C27 C 0.7308(4) 0.7796(2) 0.9139(2)
H27 H 0.7790 0.7577 0.8677
H28 H 0.8046 0.7870 0.9607
C28 C 0.5194(4) 0.6548(2) 0.83199(17)
C29 C 0.5355(4) 0.6694(2) 0.76258(18)
H29 H 0.6023 0.7214 0.7629
C30 C 0.4480(3) 0.6037(2) 0.69204(17)
C31 C 0.3450(3) 0.5254(2) 0.68823(17)
C32 C 0.3312(4) 0.5143(2) 0.76065(18)
H30 H 0.2634 0.4630 0.7608
C33 C 0.4154(4) 0.5775(2) 0.83109(18)
H31 H 0.4038 0.5692 0.8787
C34 C 0.3826(4) 0.5599(2) 0.55381(18)
H32 H 0.3950 0.5735 0.5085
C35 C 0.2818(4) 0.4823(2) 0.54312(17)
C36 C 0.2578(3) 0.4580(2) 0.61248(18)
C37 C 0.1924(4) 0.4238(2) 0.46194(17)
C38 C 0.1044(4) 0.4602(2) 0.41789(17)
H33 H 0.0979 0.5216 0.4400
C39 C 0.0252(4) 0.4071(2) 0.34107(18)
H34 H -0.0358 0.4325 0.3128
C40 C 0.0366(4) 0.3165(2) 0.30634(17)
C41 C 0.1215(4) 0.2773(2) 0.35130(17)
C42 C 0.1976(4) 0.3312(2) 0.42820(17)
H35 H 0.2534 0.3052 0.4581
C43 C -0.1175(4) 0.2998(2) 0.18440(18)
H36 H -0.0544 0.3559 0.1843
H37 H -0.2070 0.3149 0.2075
C44 C -0.1686(4) 0.2314(2) 0.1010(2)
C45 C -0.3144(6) 0.2131(3) -0.0249(2)
H38 H -0.3416 0.1485 -0.0319
H39 H -0.4076 0.2316 -0.0409
C46 C -0.2007(7) 0.2271(5) -0.0730(3)
H40 H -0.1534 0.2914 -0.0550
H41 H -0.2506 0.2060 -0.1279
H42 H -0.1227 0.1931 -0.0679
K1 K -0.02657(11) -0.02138(5) 0.36005(5)
K2 K -0.04551(10) 0.02200(5) 0.12232(4)
O1 O -0.4768(4) -0.87849(19) -0.39785(19)
O2 O -0.7260(4) -0.95240(19) -0.43089(19)
O3 O -0.5418(3) -0.72733(16) -0.41488(13)
O4 O -0.4514(3) -0.63268(15) -0.13181(13)
O5 O -0.1372(3) -0.40214(16) -0.10936(14)
O6 O -0.2677(4) -0.15295(17) 0.10468(15)
O7 O -0.2637(3) -0.15014(16) 0.24010(14)
O8 O -0.0275(3) -0.10530(15) 0.19786(15)
O9 O -0.0162(3) -0.24983(15) 0.26870(13)
O10 O 0.0504(3) -0.14348(18) 0.42384(15)
O11 O 0.1696(3) -0.24524(17) 0.45271(14)
O12 O 0.5563(4) 0.86714(17) 0.88983(18)
O13 O 0.7980(3) 0.94101(17) 0.95104(15)
O14 O 0.5980(3) 0.71130(15) 0.90612(12)
O15 O 0.4685(3) 0.62069(14) 0.62415(12)
O16 O 0.1686(3) 0.38708(16) 0.60710(14)
O17 O 0.2106(3) 0.14092(16) 0.37654(14)
O18 O -0.0310(3) 0.10846(15) 0.28805(13)
O19 O 0.2063(3) 0.14761(15) 0.24401(13)
O20 O -0.0308(3) 0.26108(15) 0.22977(12)
O21 O -0.1444(4) 0.15618(19) 0.07709(16)
O22 O -0.2471(3) 0.26844(17) 0.05832(14)
S1 S -0.18312(11) -0.16253(5) 0.17365(5)
S2 S 0.12877(10) 0.15921(5) 0.31155(4)
K1A K -0.97343(11) -0.97862(5) -0.36005(5)
K2_2 K 0.95449(10) 1.02200(5) 1.12232(4)
K2A K 1.04551(10) 0.97800(5) 0.87768(4)
O2A O -0.2740(4) -0.04760(19) 0.43089(19)
O13_2 O -0.2020(3) -0.05899(17) -0.04896(15)
O13A O 0.2020(3) 0.05899(17) 0.04896(15)
loop_
_geom_bond_atom_site_label_1
_geom_bond_atom_site_label_2
_geom_bond_site_symmetry_1
_geom_bond_site_symmetry_2
C1 H1 1_555 1_555
H2 C1 1_555 1_555
H3 C1 1_555 1_555
C2 C1 1_555 1_555
H4 C2 1_555 1_555
H5 C2 1_555 1_555
C3 C4 1_555 1_555
C4 H6 1_555 1_555
H7 C4 1_555 1_555
C5 C6 1_555 1_555
C6 H8 1_555 1_555
C7 C6 1_555 1_555
C8 C7 1_555 1_555
C9 C8 1_555 1_555
H9 C9 1_555 1_555
C10 C5 1_555 1_555
H10 C10 1_555 1_555
C11 H11 1_555 1_555
C12 C11 1_555 1_555
C13 C8 1_555 1_555
C14 C12 1_555 1_555
C15 C14 1_555 1_555
H12 C15 1_555 1_555
C16 C15 1_555 1_555
H13 C16 1_555 1_555
C17 C16 1_555 1_555
C18 C17 1_555 1_555
C19 C14 1_555 1_555
H14 C19 1_555 1_555
C20 H15 1_555 1_555
H16 C20 1_555 1_555
C21 C20 1_555 1_555
C22 H17 1_555 1_555
H18 C22 1_555 1_555
C23 C22 1_555 1_555
H19 C23 1_555 1_555
H20 C23 1_555 1_555
H21 C23 1_555 1_555
C24 H22 1_555 1_555
H23 C24 1_555 1_555
H24 C24 1_555 1_555
C25 C24 1_555 1_555
H25 C25 1_555 1_555
H26 C25 1_555 1_555
C26 C27 1_555 1_555
C27 H27 1_555 1_555
H28 C27 1_555 1_555
C28 C29 1_555 1_555
C29 H29 1_555 1_555
C30 C29 1_555 1_555
C31 C30 1_555 1_555
C32 C31 1_555 1_555
H30 C32 1_555 1_555
C33 C28 1_555 1_555
H31 C33 1_555 1_555
C34 H32 1_555 1_555
C35 C34 1_555 1_555
C36 C31 1_555 1_555
C37 C35 1_555 1_555
C38 C37 1_555 1_555
H33 C38 1_555 1_555
C39 C38 1_555 1_555
H34 C39 1_555 1_555
C40 C39 1_555 1_555
C41 C40 1_555 1_555
C42 C37 1_555 1_555
H35 C42 1_555 1_555
C43 H36 1_555 1_555
H37 C43 1_555 1_555
C44 C43 1_555 1_555
C45 H38 1_555 1_555
H39 C45 1_555 1_555
C46 C45 1_555 1_555
H40 C46 1_555 1_555
H41 C46 1_555 1_555
H42 C46 1_555 1_555
K1 O7 1_555 1_555
K2 O6 1_555 1_555
O1 C2 1_555 1_555
O2 C3 1_555 1_555
O3 C4 1_555 1_555
O4 C7 1_555 1_555
O5 C13 1_555 1_555
O6 S1 1_555 1_555
O7 S1 1_555 1_555
O8 K1 1_555 1_555
O9 C17 1_555 1_555
O10 C21 1_555 1_555
O11 C21 1_555 1_555
O12 C25 1_555 1_555
O13 C26 1_555 1_555
O14 C27 1_555 1_555
O15 C30 1_555 1_555
O16 C36 1_555 1_555
O17 K1 1_555 1_555
O18 K1 1_555 1_555
O19 K2 1_555 1_555
O20 C40 1_555 1_555
O21 C44 1_555 1_555
O22 C44 1_555 1_555
S1 C18 1_555 1_555
S2 C41 1_555 1_555
K1A O2 1_555 1_555
K2_2 O13 1_555 1_555
K2A O13 1_555 1_555
O2A K1 1_555 1_555
O13_2 K2 1_555 1_555
O13A K2 1_555 1_555
C3 O1 1_555 1_555
C5 O3 1_555 1_555
C9 C10 1_555 1_555
C11 O4 1_555 1_555
C12 C13 1_555 1_555
C18 C19 1_555 1_555
C20 O9 1_555 1_555
C22 O11 1_555 1_555
C26 O12 1_555 1_555
C28 O14 1_555 1_555
C32 C33 1_555 1_555
C34 O15 1_555 1_555
C35 C36 1_555 1_555
C41 C42 1_555 1_555
C43 O20 1_555 1_555
C45 O22 1_555 1_555
K1 O10 1_555 1_555
K2 O8 1_555 1_555
K2 O18 1_555 1_555
K2 O21 1_555 1_555
O8 S1 1_555 1_555
O17 S2 1_555 1_555
O18 S2 1_555 1_555
O19 S2 1_555 1_555

#END
