
#######################################################################
#
#                 Cambridge Crystallographic Data Centre
#                                CCDC 
#
#######################################################################
#
# If this CIF has been generated from an entry in the Cambridge 
# Structural Database, then it will include bibliographic, chemical, 
# crystal, experimental, refinement or atomic coordinate data resulting 
# from the CCDC's data processing and validation procedures.
#
#######################################################################

data_WUGFAF
_symmetry_cell_setting           monoclinic
_symmetry_space_group_name_H-M   'P 21/c'
_symmetry_Int_Tables_number      14
_space_group_name_Hall           '-P 2ybc'
loop_
_symmetry_equiv_pos_site_id
_symmetry_equiv_pos_as_xyz
1 x,y,z
2 -x,1/2+y,1/2-z
3 -x,-y,-z
4 x,1/2-y,1/2+z
_cell_length_a                   8.788(2)
_cell_length_b                   7.297(2)
_cell_length_c                   18.790(3)
_cell_angle_alpha                90
_cell_angle_beta                 96.47(2)
_cell_angle_gamma                90
_cell_volume                     1197.25
loop_
_atom_site_label
_atom_site_type_symbol
_atom_site_fract_x
_atom_site_fract_y
_atom_site_fract_z
Cu1 Cu -0.15522(6) -0.38455(9) -0.35207(3)
S1 S -0.2014(1) -0.2757(2) -0.46673(5)
O1 O -0.0651(3) -0.5094(5) -0.2632(2)
O2 O 0.1618(3) -0.5811(5) -0.2045(2)
O3 O 0.6362(3) -0.3959(4) -0.3297(2)
O4 O 0.6410(3) -0.6704(4) -0.3791(2)
N1 N 0.0268(4) -0.2063(6) -0.5433(2)
N2 N 0.1002(4) -0.3219(5) -0.4325(2)
N3 N 0.0600(3) -0.3854(5) -0.3688(2)
C1 C -0.0139(5) -0.2662(6) -0.4818(2)
C2 C 0.1581(4) -0.4280(5) -0.3166(2)
C3 C 0.0807(4) -0.5131(6) -0.2552(2)
C4 C 0.3274(4) -0.4056(6) -0.3118(2)
C5 C 0.4068(4) -0.5754(6) -0.3386(2)
C6 C 0.5719(4) -0.5468(6) -0.3502(2)
H1 H -0.05210 -0.15970 -0.58350
H2 H 0.14030 -0.19180 -0.54480
H3 H 0.20940 -0.31120 -0.44360
H4 H 0.35130 -0.29070 -0.33730
H5 H 0.37160 -0.37870 -0.26220
H6 H 0.35260 -0.61600 -0.37930
H7 H 0.39950 -0.68710 -0.31220
O2A O -0.1618(3) -0.0811(5) -0.2955(2)
Cu1A Cu 0.15522(6) -0.88455(9) -0.14793(3)
Cu1_2 Cu 0.84478(6) -0.38455(9) -0.35207(3)
O3_2 O -0.3638(3) -0.3959(4) -0.3297(2)
O5 O 0.1968(4) 0.0427(5) -0.3609(2)
H8 H 0.31160 0.03400 -0.35450
H9 H 0.17780 0.02460 -0.32450
O6 O -0.5189(3) -0.5180(4) -0.1262(2)
H10 H -0.59890 -0.56200 -0.14550
H11 H -0.56080 -0.40040 -0.12830
O7 O -0.3817(4) 0.2373(6) -0.0263(2)
H12 H -0.44630 0.32790 -0.03870
H13 H -0.39210 0.21060 0.01750
O8? O 0.1618(3) 0.4189(5) -0.2045(2)
O9? O 0.3638(3) 0.1041(4) -0.1703(2)
loop_
_geom_bond_atom_site_label_1
_geom_bond_atom_site_label_2
_geom_bond_site_symmetry_1
_geom_bond_site_symmetry_2
Cu1 S1 1_555 1_555
S1 C1 1_555 1_555
O1 Cu1 1_555 1_555
O2 C3 1_555 1_555
O3 C6 1_555 1_555
O4 C6 1_555 1_555
N1 C1 1_555 1_555
N2 N3 1_555 1_555
N3 Cu1 1_555 1_555
C1 N2 1_555 1_555
C2 N3 1_555 1_555
C3 O1 1_555 1_555
C4 C2 1_555 1_555
C5 C4 1_555 1_555
C6 C5 1_555 1_555
H1 N1 1_555 1_555
H2 N1 1_555 1_555
H3 N2 1_555 1_555
H4 C4 1_555 1_555
H5 C4 1_555 1_555
H6 C5 1_555 1_555
H7 C5 1_555 1_555
O5 H8 1_555 1_555
H9 O5 1_555 1_555
O6 H10 1_555 1_555
H11 O6 1_555 1_555
O7 H12 1_555 1_555
H13 O7 1_555 1_555
O2A Cu1 1_555 1_555
Cu1A O2 1_555 1_555
Cu1_2 O3 1_555 1_555
O3_2 Cu1 1_555 1_555
C2 C3 1_555 1_555

#END
