
#######################################################################
#
#                 Cambridge Crystallographic Data Centre
#                                CCDC 
#
#######################################################################
#
# If this CIF has been generated from an entry in the Cambridge 
# Structural Database, then it will include bibliographic, chemical, 
# crystal, experimental, refinement or atomic coordinate data resulting 
# from the CCDC's data processing and validation procedures.
#
#######################################################################

data_WUGGUB
_symmetry_cell_setting           triclinic
_symmetry_space_group_name_H-M   'P -1'
_symmetry_Int_Tables_number      2
_space_group_name_Hall           '-P 1'
loop_
_symmetry_equiv_pos_site_id
_symmetry_equiv_pos_as_xyz
1 x,y,z
2 -x,-y,-z
_cell_length_a                   11.635(2)
_cell_length_b                   11.673(2)
_cell_length_c                   15.624(3)
_cell_angle_alpha                90.322(7)
_cell_angle_beta                 91.196(7)
_cell_angle_gamma                91.947(7)
_cell_volume                     2120.25
loop_
_atom_site_label
_atom_site_type_symbol
_atom_site_fract_x
_atom_site_fract_y
_atom_site_fract_z
I1 I 0.91665(8) 0.91526(7) 0.37125(6)
I2 I 0.56093(8) 0.89333(8) 0.23621(6)
I3 I 0.66880(8) 0.60562(8) 0.40034(6)
I4 I 0.85648(9) 0.67289(9) 0.15570(7)
Cu1 Cu 0.65556(16) 0.68558(15) 0.24280(12)
Cu2 Cu 0.85841(15) 0.70114(14) 0.32955(13)
Cu3 Cu 0.79041(16) 0.87137(15) 0.22207(12)
Cu4 Cu 0.69672(15) 0.85291(17) 0.37128(12)
N1 N 0.3971(10) 0.1126(10) 0.5251(7)
N2 N 0.5311(10) 0.1960(10) 0.4446(8)
N3 N 1.0399(9) 0.4169(9) 0.3964(7)
N4 N 0.9799(9) 0.5901(9) 0.3659(7)
N5 N 0.5519(11) 0.5777(10) 0.1740(8)
N6 N 0.3995(10) 0.5146(9) 0.0947(7)
N7 N -0.0391(10) 0.1274(10) 0.0837(8)
N8 N -0.1543(10) -0.0096(9) 0.1412(7)
C1 C 0.3563(12) 0.1141(11) 0.4397(10)
C2 C 0.2537(13) 0.0735(14) 0.4027(10)
H1 H 0.1964 0.0382 0.4348
C3 C 0.2412(16) 0.0879(15) 0.3165(12)
H2 H 0.1749 0.0577 0.2894
C4 C 0.3220(17) 0.1450(19) 0.2670(12)
H3 H 0.3070 0.1558 0.2090
C5 C 0.4246(15) 0.1859(15) 0.3033(11)
H4 H 0.4808 0.2225 0.2708
C6 C 0.4400(13) 0.1697(12) 0.3906(10)
C7 C 0.4999(13) 0.1623(13) 0.5232(10)
H5 H 0.5468 0.1731 0.5718
C8 C 0.6408(12) 0.2537(13) 0.4239(11)
H6 H 0.6262 0.3179 0.3866
H7 H 0.6773 0.2836 0.4762
C9 C 0.7197(12) 0.1759(12) 0.3815(11)
H8 H 0.7332 0.1113 0.4188
H9 H 0.6828 0.1463 0.3293
C10 C 0.8369(11) 0.2331(12) 0.3590(9)
H10 H 0.8243 0.3070 0.3329
H11 H 0.8747 0.1858 0.3177
C11 C 0.9158(12) 0.2501(12) 0.4391(10)
H12 H 0.9210 0.1770 0.4680
H13 H 0.8798 0.3025 0.4779
C12 C 1.0348(11) 0.2952(11) 0.4223(10)
H14 H 1.0674 0.2493 0.3776
H15 H 1.0819 0.2867 0.4737
C13 C 1.1347(10) 0.4805(11) 0.3714(8)
C14 C 1.2484(13) 0.4523(13) 0.3653(9)
H16 H 1.2737 0.3797 0.3787
C15 C 1.3238(13) 0.5409(17) 0.3373(10)
H17 H 1.4015 0.5266 0.3317
C16 C 1.2861(14) 0.6455(16) 0.3186(10)
H18 H 1.3394 0.7013 0.3011
C17 C 1.1732(13) 0.6745(12) 0.3239(9)
H19 H 1.1488 0.7474 0.3108
C18 C 1.0972(11) 0.5866(11) 0.3505(9)
C19 C 0.9517(12) 0.4879(12) 0.3930(11)
H20 H 0.8774 0.4662 0.4086
C20 C 0.5694(14) 0.4615(12) 0.1511(10)
C21 C 0.6586(14) 0.3913(14) 0.1696(11)
H21 H 0.7204 0.4159 0.2045
C22 C 0.6531(16) 0.2859(15) 0.1353(12)
H22 H 0.7137 0.2377 0.1460
C23 C 0.5621(19) 0.2458(15) 0.0852(13)
H23 H 0.5625 0.1715 0.0634
C24 C 0.4723(16) 0.3117(15) 0.0669(11)
H24 H 0.4108 0.2844 0.0328
C25 C 0.4747(13) 0.4262(12) 0.1021(9)
C26 C 0.4517(12) 0.6013(12) 0.1390(9)
H25 H 0.4194 0.6727 0.1444
C27 C 0.2834(12) 0.5146(14) 0.0611(11)
H26 H 0.2823 0.4909 0.0015
H27 H 0.2548 0.5915 0.0642
C28 C 0.2011(13) 0.429(2) 0.1145(12)
H28 H 0.2274 0.3512 0.1094
H29 H 0.2046 0.4503 0.1746
C29 C 0.0890(16) 0.4332(16) 0.0841(14)
H30 H 0.0891 0.4357 0.0220
H31 H 0.0560 0.5033 0.1043
C30 C 0.0134(15) 0.3309(15) 0.1120(12)
H32 H 0.0126 0.3300 0.1741
H33 H -0.0647 0.3424 0.0917
C31 C 0.0494(13) 0.2160(14) 0.0811(11)
H34 H 0.0749 0.2234 0.0227
H35 H 0.1144 0.1927 0.1159
C32 C -0.1237(12) 0.1039(11) 0.0259(9)
C33 C -0.1470(15) 0.1467(15) -0.0577(11)
H36 H -0.0997 0.2032 -0.0817
C34 C -0.2386(17) 0.1031(14) -0.1002(11)
H37 H -0.2557 0.1316 -0.1543
C35 C -0.3116(15) 0.0151(15) -0.0667(12)
H38 H -0.3742 -0.0133 -0.0992
C36 C -0.2907(14) -0.0280(13) 0.0128(10)
H39 H -0.3372 -0.0863 0.0353
C37 C -0.1973(12) 0.0187(11) 0.0585(8)
C38 C -0.0630(13) 0.0602(14) 0.1512(10)
H40 H -0.0184 0.0627 0.2013
Cu3_2 Cu -0.20959(16) -0.12863(15) 0.22207(12)
Cu4A Cu 0.30328(15) 0.14709(17) 0.62872(12)
N1A N 0.6029(10) 0.8874(10) 0.4749(7)
N8_2 N 0.8457(10) 0.9904(9) 0.1412(7)
loop_
_geom_bond_atom_site_label_1
_geom_bond_atom_site_label_2
_geom_bond_site_symmetry_1
_geom_bond_site_symmetry_2
I1 Cu2 1_555 1_555
I2 Cu1 1_555 1_555
I3 Cu1 1_555 1_555
I4 Cu1 1_555 1_555
Cu1 N5 1_555 1_555
Cu2 I3 1_555 1_555
Cu3 I1 1_555 1_555
Cu4 I1 1_555 1_555
N1 C1 1_555 1_555
N2 C6 1_555 1_555
N3 C12 1_555 1_555
N4 Cu2 1_555 1_555
N5 C20 1_555 1_555
N6 C25 1_555 1_555
N7 C31 1_555 1_555
N8 C37 1_555 1_555
C1 C2 1_555 1_555
C2 H1 1_555 1_555
C3 C2 1_555 1_555
H2 C3 1_555 1_555
C4 C3 1_555 1_555
H3 C4 1_555 1_555
C5 C4 1_555 1_555
H4 C5 1_555 1_555
C6 C1 1_555 1_555
C7 N1 1_555 1_555
H5 C7 1_555 1_555
C8 N2 1_555 1_555
H6 C8 1_555 1_555
H7 C8 1_555 1_555
C9 C8 1_555 1_555
H8 C9 1_555 1_555
H9 C9 1_555 1_555
C10 C9 1_555 1_555
H10 C10 1_555 1_555
H11 C10 1_555 1_555
C11 C10 1_555 1_555
H12 C11 1_555 1_555
H13 C11 1_555 1_555
C12 C11 1_555 1_555
H14 C12 1_555 1_555
H15 C12 1_555 1_555
C13 N3 1_555 1_555
C14 C13 1_555 1_555
H16 C14 1_555 1_555
C15 C14 1_555 1_555
H17 C15 1_555 1_555
C16 C15 1_555 1_555
H18 C16 1_555 1_555
C17 C16 1_555 1_555
H19 C17 1_555 1_555
C18 N4 1_555 1_555
C19 N3 1_555 1_555
H20 C19 1_555 1_555
C20 C21 1_555 1_555
C21 H21 1_555 1_555
C22 C21 1_555 1_555
H22 C22 1_555 1_555
C23 C22 1_555 1_555
H23 C23 1_555 1_555
C24 C23 1_555 1_555
H24 C24 1_555 1_555
C25 C20 1_555 1_555
C26 N5 1_555 1_555
H25 C26 1_555 1_555
C27 N6 1_555 1_555
H26 C27 1_555 1_555
H27 C27 1_555 1_555
C28 C27 1_555 1_555
H28 C28 1_555 1_555
H29 C28 1_555 1_555
C29 C28 1_555 1_555
H30 C29 1_555 1_555
H31 C29 1_555 1_555
C30 C29 1_555 1_555
H32 C30 1_555 1_555
H33 C30 1_555 1_555
C31 C30 1_555 1_555
H34 C31 1_555 1_555
H35 C31 1_555 1_555
C32 N7 1_555 1_555
C33 C32 1_555 1_555
H36 C33 1_555 1_555
C34 C33 1_555 1_555
H37 C34 1_555 1_555
C35 C34 1_555 1_555
H38 C35 1_555 1_555
C36 C35 1_555 1_555
H39 C36 1_555 1_555
C37 C32 1_555 1_555
C38 N7 1_555 1_555
H40 C38 1_555 1_555
Cu3_2 N8 1_555 1_555
Cu4A N1 1_555 1_555
N1A Cu4 1_555 1_555
N8_2 Cu3 1_555 1_555
I2 Cu3 1_555 1_555
I2 Cu4 1_555 1_555
I3 Cu4 1_555 1_555
I4 Cu2 1_555 1_555
I4 Cu3 1_555 1_555
N2 C7 1_555 1_555
N4 C19 1_555 1_555
N6 C26 1_555 1_555
N8 C38 1_555 1_555
C5 C6 1_555 1_555
C13 C18 1_555 1_555
C17 C18 1_555 1_555
C24 C25 1_555 1_555
C36 C37 1_555 1_555

#END
