
#######################################################################
#
#                 Cambridge Crystallographic Data Centre
#                                CCDC 
#
#######################################################################
#
# If this CIF has been generated from an entry in the Cambridge 
# Structural Database, then it will include bibliographic, chemical, 
# crystal, experimental, refinement or atomic coordinate data resulting 
# from the CCDC's data processing and validation procedures.
#
#######################################################################

data_WUGGIP
_symmetry_cell_setting           trigonal
_symmetry_space_group_name_H-M   'P -3 c 1'
_symmetry_Int_Tables_number      165
_space_group_name_Hall           '-P 3 2"c'
loop_
_symmetry_equiv_pos_site_id
_symmetry_equiv_pos_as_xyz
1 x,y,z
2 -y,x-y,z
3 -x+y,-x,z
4 y,x,1/2-z
5 -x,-x+y,1/2-z
6 x-y,-y,1/2-z
7 -x,-y,-z
8 y,-x+y,-z
9 x-y,x,-z
10 -y,-x,1/2+z
11 x,x-y,1/2+z
12 -x+y,y,1/2+z
_cell_length_a                   13.989(2)
_cell_length_b                   13.989(2)
_cell_length_c                   16.395(3)
_cell_angle_alpha                90
_cell_angle_beta                 90
_cell_angle_gamma                120
_cell_volume                     2778.53
loop_
_atom_site_label
_atom_site_type_symbol
_atom_site_fract_x
_atom_site_fract_y
_atom_site_fract_z
Cu1 Cu 0.6667 0.3333 -0.57407(10)
I1 I 0.6667 0.3333 -0.73449(6)
N2 N 0.5452(9) 0.3587(6) -0.5208(4)
N3 N 0.4553(7) 0.3883(7) -0.4215(4)
C3 C 0.4425(8) 0.3317(8) -0.5484(5)
C4 C 0.3928(10) 0.2917(10) -0.6244(6)
H1 H 0.4309 0.2811 -0.6666
C5 C 0.2862(12) 0.2689(14) -0.6346(8)
H2 H 0.2502 0.2393 -0.6838
C6 C 0.2309(13) 0.2896(16) -0.5718(8)
H3 H 0.1597 0.2762 -0.5811
C7 C 0.2776(12) 0.3282(13) -0.4981(7)
H4 H 0.2391 0.3397 -0.4566
C8 C 0.3845(9) 0.3502(9) -0.4863(5)
C9 C 0.5494(8) 0.3933(7) -0.4457(5)
H5 H 0.6113 0.4187 -0.4125
C10 C 0.4336(9) 0.4220(9) -0.3413(5)
H6 H 0.4005 0.4678 -0.3494
H7 H 0.5029 0.4655 -0.3127
C11 C 0.3572(9) 0.3227(8) -0.2896(5)
H8 H 0.3941 0.2818 -0.2758
H9 H 0.2917 0.2743 -0.3210
Cu1C Cu 0.3333 0.6667 0.07407(10)
Cu1D Cu 0.3333 -0.3334 0.07407(10)
Cu1E Cu 1.3334 0.6667 0.07407(10)
I1C I 0.3333 0.6667 0.23449(6)
N2C N 0.3587(6) 0.5452(9) 0.0208(4)
N2A N 0.6413(6) 0.1865(11) -0.5208(4)
N2D N 0.4548(9) -0.1865(11) 0.0208(4)
N2B N 0.8135(11) 0.4548(9) -0.5208(4)
N2E N 1.1865(11) 0.6413(6) 0.0208(4)
N2E_2 N 0.1865(11) 0.6413(6) 0.0208(4)
N2D_2 N 0.4548(9) 0.8135(11) 0.0208(4)
N3C N 0.3883(7) 0.4553(7) -0.0785(4)
N3A N 0.6117(7) 0.0670(10) -0.4215(4)
N3D N 0.5447(7) -0.0670(10) -0.0785(4)
N3B N 0.9330(10) 0.5447(7) -0.4215(4)
N3E N 1.0670(10) 0.6117(7) -0.0785(4)
C3C C 0.3317(8) 0.4425(8) 0.0484(5)
C3A C 0.6683(8) 0.1108(11) -0.5484(5)
C3D C 0.5575(8) -0.1108(11) 0.0484(5)
C3B C 0.8892(11) 0.5575(8) -0.5484(5)
C3E C 1.1108(11) 0.6683(8) 0.0484(5)
C4C C 0.2917(10) 0.3928(10) 0.1244(6)
C4A C 0.7083(10) 0.1011(14) -0.6244(6)
C4D C 0.6072(10) -0.1011(14) 0.1244(6)
C4B C 0.8989(14) 0.6072(10) -0.6244(6)
C4E C 1.1011(14) 0.7083(10) 0.1244(6)
H1C H 0.2811 0.4309 0.1666
H1A H 0.7189 0.1498 -0.6666
H1D H 0.5691 -0.1498 0.1666
H1B H 0.8502 0.5691 -0.6666
H1E H 1.1498 0.7189 0.1666
C5C C 0.2689(14) 0.2862(12) 0.1346(8)
C5A C 0.7311(14) 0.0173(18) -0.6346(8)
C5D C 0.7138(12) -0.0173(18) 0.1346(8)
C5B C 0.9827(18) 0.7138(12) -0.6346(8)
C5E C 1.0173(18) 0.7311(14) 0.1346(8)
H2C H 0.2393 0.2502 0.1838
H2A H 0.7607 0.0109 -0.6838
H2D H 0.7498 -0.0109 0.1838
H2B H 0.9891 0.7498 -0.6838
H2E H 1.0109 0.7607 0.1838
C6C C 0.2896(16) 0.2309(13) 0.0718(8)
C6A C 0.7104(16) -0.0587(21) -0.5718(8)
C6D C 0.7691(13) 0.0587(21) 0.0718(8)
C6B C 1.0587(21) 0.7691(13) -0.5718(8)
C6E C 0.9413(21) 0.7104(16) 0.0718(8)
H3C H 0.2762 0.1597 0.0811
H3A H 0.7238 -0.1165 -0.5811
H3D H 0.8403 0.1165 0.0811
H3B H 1.1165 0.8403 -0.5811
H3E H 0.8835 0.7238 0.0811
C7C C 0.3282(13) 0.2776(12) -0.0019(7)
C7A C 0.6718(13) -0.0506(18) -0.4981(7)
C7D C 0.7224(12) 0.0506(18) -0.0019(7)
C7B C 1.0506(18) 0.7224(12) -0.4981(7)
C7E C 0.9494(18) 0.6718(13) -0.0019(7)
H4C H 0.3397 0.2391 -0.0434
H4A H 0.6603 -0.1006 -0.4566
H4D H 0.7609 0.1006 -0.0434
H4B H 1.1006 0.7609 -0.4566
H4E H 0.8994 0.6603 -0.0434
C8C C 0.3502(9) 0.3845(9) -0.0137(5)
C8A C 0.6498(9) 0.0343(13) -0.4863(5)
C8D C 0.6155(9) -0.0343(13) -0.0137(5)
C8B C 0.9657(13) 0.6155(9) -0.4863(5)
C8E C 1.0343(13) 0.6498(9) -0.0137(5)
C9C C 0.3933(7) 0.5494(8) -0.0543(5)
C9A C 0.6067(7) 0.1561(11) -0.4457(5)
C9D C 0.4506(8) -0.1561(11) -0.0543(5)
C9B C 0.8439(11) 0.4506(8) -0.4457(5)
C9E C 1.1561(11) 0.6067(7) -0.0543(5)
H5C H 0.4187 0.6113 -0.0875
H5A H 0.5813 0.1926 -0.4125
H5D H 0.3887 -0.1926 -0.0875
H5B H 0.8074 0.3887 -0.4125
H5E H 1.1926 0.5813 -0.0875
C10C C 0.4220(9) 0.4336(9) -0.1587(5)
C10A C 0.5780(9) 0.0116(13) -0.3413(5)
C10D C 0.5664(9) -0.0116(13) -0.1587(5)
C10B C 0.9884(13) 0.5664(9) -0.3413(5)
C10E C 1.0116(13) 0.5780(9) -0.1587(5)
H6C H 0.4678 0.4005 -0.1506
H6A H 0.5322 -0.0673 -0.3494
H6D H 0.5995 0.0673 -0.1506
H6B H 1.0673 0.5995 -0.3494
H6E H 0.9327 0.5322 -0.1506
H7C H 0.4655 0.5029 -0.1873
H7A H 0.5345 0.0374 -0.3127
H7D H 0.4971 -0.0374 -0.1873
H7B H 0.9626 0.4971 -0.3127
H7E H 1.0374 0.5345 -0.1873
C11C C 0.3227(8) 0.3572(9) -0.2104(5)
C11A C 0.6773(8) 0.0345(12) -0.2896(5)
C11D C 0.6428(9) -0.0345(12) -0.2104(5)
C11B C 0.9655(12) 0.6428(9) -0.2896(5)
C11E C 1.0345(12) 0.6773(8) -0.2104(5)
H8C H 0.2818 0.3941 -0.2242
H8A H 0.7182 0.1123 -0.2758
H8D H 0.6059 -0.1123 -0.2242
H8B H 0.8877 0.6059 -0.2758
H8E H 1.1123 0.7182 -0.2242
H9C H 0.2743 0.2917 -0.1790
H9A H 0.7257 0.0174 -0.3210
H9D H 0.7083 -0.0174 -0.1790
H9B H 0.9826 0.7083 -0.3210
H9E H 1.0174 0.7257 -0.1790
N1 N 0.0000 0.0000 0.210(5)
C1 C 0.0000 0.0000 0.141(4)
C2 C 0.0000 0.0000 0.048(4)
N1F N 0.0000 0.0000 -0.210(5)
C1F C 0.0000 0.0000 -0.141(4)
C2F C 0.0000 0.0000 -0.048(4)
loop_
_geom_bond_atom_site_label_1
_geom_bond_atom_site_label_2
_geom_bond_site_symmetry_1
_geom_bond_site_symmetry_2
N1 C1 1_555 1_555
C1 C2 1_555 1_555
C2 C2F 1_555 1_555
Cu1 I1 1_555 1_555
N2 Cu1 1_555 1_555
N3 C8 1_555 1_555
C3 N2 1_555 1_555
C4 C3 1_555 1_555
H1 C4 1_555 1_555
C5 C4 1_555 1_555
H2 C5 1_555 1_555
C6 C5 1_555 1_555
H3 C6 1_555 1_555
C7 C6 1_555 1_555
H4 C7 1_555 1_555
C8 C3 1_555 1_555
C9 N2 1_555 1_555
H5 C9 1_555 1_555
C10 N3 1_555 1_555
H6 C10 1_555 1_555
H7 C10 1_555 1_555
C11 C10 1_555 1_555
H8 C11 1_555 1_555
H9 C11 1_555 1_555
N1F C1F 1_555 1_555
C1F C2F 1_555 1_555
Cu1C I1C 1_555 1_555
Cu1D N2D 1_555 1_555
Cu1E N2E 1_555 1_555
N2C Cu1C 1_555 1_555
N2A Cu1 1_555 1_555
N2D C3D 1_555 1_555
N2B Cu1 1_555 1_555
N2E C3E 1_555 1_555
N2E_2 Cu1C 1_555 1_555
N2D_2 Cu1C 1_555 1_555
N3C C8C 1_555 1_555
N3A C8A 1_555 1_555
N3D C8D 1_555 1_555
N3B C8B 1_555 1_555
N3E C8E 1_555 1_555
C3C N2C 1_555 1_555
C3A N2A 1_555 1_555
C3D C4D 1_555 1_555
C3B N2B 1_555 1_555
C3E C4E 1_555 1_555
C4C C3C 1_555 1_555
C4A C3A 1_555 1_555
C4D H1D 1_555 1_555
C4B C3B 1_555 1_555
C4E H1E 1_555 1_555
H1C C4C 1_555 1_555
H1A C4A 1_555 1_555
H1B C4B 1_555 1_555
C5C C4C 1_555 1_555
C5A C4A 1_555 1_555
C5D C4D 1_555 1_555
C5B C4B 1_555 1_555
C5E C4E 1_555 1_555
H2C C5C 1_555 1_555
H2A C5A 1_555 1_555
H2D C5D 1_555 1_555
H2B C5B 1_555 1_555
H2E C5E 1_555 1_555
C6C C5C 1_555 1_555
C6A C5A 1_555 1_555
C6D C5D 1_555 1_555
C6B C5B 1_555 1_555
C6E C5E 1_555 1_555
H3C C6C 1_555 1_555
H3A C6A 1_555 1_555
H3D C6D 1_555 1_555
H3B C6B 1_555 1_555
H3E C6E 1_555 1_555
C7C C6C 1_555 1_555
C7A C6A 1_555 1_555
C7D C6D 1_555 1_555
C7B C6B 1_555 1_555
C7E C6E 1_555 1_555
H4C C7C 1_555 1_555
H4A C7A 1_555 1_555
H4D C7D 1_555 1_555
H4B C7B 1_555 1_555
H4E C7E 1_555 1_555
C8C C3C 1_555 1_555
C8A C3A 1_555 1_555
C8D C3D 1_555 1_555
C8B C3B 1_555 1_555
C8E C3E 1_555 1_555
C9C N2C 1_555 1_555
C9A N2A 1_555 1_555
C9D N2D 1_555 1_555
C9B N2B 1_555 1_555
C9E N2E 1_555 1_555
H5C C9C 1_555 1_555
H5A C9A 1_555 1_555
H5D C9D 1_555 1_555
H5B C9B 1_555 1_555
H5E C9E 1_555 1_555
C10C N3C 1_555 1_555
C10A N3A 1_555 1_555
C10D N3D 1_555 1_555
C10B N3B 1_555 1_555
C10E N3E 1_555 1_555
H6C C10C 1_555 1_555
H6A C10A 1_555 1_555
H6D C10D 1_555 1_555
H6B C10B 1_555 1_555
H6E C10E 1_555 1_555
H7C C10C 1_555 1_555
H7A C10A 1_555 1_555
H7D C10D 1_555 1_555
H7B C10B 1_555 1_555
H7E C10E 1_555 1_555
C11C C11 1_555 1_555
C11A C10A 1_555 1_555
C11D C10D 1_555 1_555
C11B C10B 1_555 1_555
C11E C10E 1_555 1_555
H8C C11C 1_555 1_555
H8A C11A 1_555 1_555
H8D C11D 1_555 1_555
H8B C11B 1_555 1_555
H8E C11E 1_555 1_555
H9C C11C 1_555 1_555
H9A C11A 1_555 1_555
H9D C11D 1_555 1_555
H9B C11B 1_555 1_555
H9E C11E 1_555 1_555
N3 C9 1_555 1_555
C7 C8 1_555 1_555
N3C C9C 1_555 1_555
N3A C9A 1_555 1_555
N3D C9D 1_555 1_555
N3B C9B 1_555 1_555
N3E C9E 1_555 1_555
C7C C8C 1_555 1_555
C7A C8A 1_555 1_555
C7D C8D 1_555 1_555
C7B C8B 1_555 1_555
C7E C8E 1_555 1_555
C10C C11C 1_555 1_555
C11A C11D 1_555 1_555
C11B C11E 1_555 1_555

#END
