
#######################################################################
#
#                 Cambridge Crystallographic Data Centre
#                                CCDC 
#
#######################################################################
#
# If this CIF has been generated from an entry in the Cambridge 
# Structural Database, then it will include bibliographic, chemical, 
# crystal, experimental, refinement or atomic coordinate data resulting 
# from the CCDC's data processing and validation procedures.
#
#######################################################################

data_WUGHUC
_symmetry_cell_setting           monoclinic
_symmetry_space_group_name_H-M   'P 2/c'
_symmetry_Int_Tables_number      13
_space_group_name_Hall           '-P 2yc'
loop_
_symmetry_equiv_pos_site_id
_symmetry_equiv_pos_as_xyz
1 x,y,z
2 -x,y,1/2-z
3 -x,-y,-z
4 x,-y,1/2+z
_cell_length_a                   10.864(6)
_cell_length_b                   10.262(5)
_cell_length_c                   16.263(6)
_cell_angle_alpha                90
_cell_angle_beta                 131.91(2)
_cell_angle_gamma                90
_cell_volume                     1349.3
loop_
_atom_site_label
_atom_site_type_symbol
_atom_site_fract_x
_atom_site_fract_y
_atom_site_fract_z
Zn1 Zn 1.0000 0.02816(6) 0.7500
S1 S 0.37606(13) 0.69262(10) 0.19939(9)
C1 C 0.7138(4) 0.3372(4) 0.5107(3)
H1 H 0.7369 0.4029 0.4833
C2 C 0.8369(4) 0.2593(4) 0.5947(3)
H2 H 0.9441 0.2751 0.6243
C3 C 0.6583(5) 0.1436(4) 0.5983(3)
H3 H 0.6400 0.0796 0.6295
C4 C 0.5269(5) 0.2186(4) 0.5130(3)
H4 H 0.4215 0.2033 0.4868
C5 C 0.5511(4) 0.3168(4) 0.4661(3)
C6 C 0.4128(4) 0.3952(4) 0.3694(3)
C7 C 0.2502(5) 0.3696(5) 0.3135(4)
H5 H 0.2187 0.3026 0.3346
C8 C 0.1344(5) 0.4491(5) 0.2232(4)
H6 H 0.0230 0.4328 0.1835
C9 C 0.3348(5) 0.5622(4) 0.2516(3)
C10 C 1.0188(6) -0.1815(6) 0.5455(4)
H7 H 0.9480 -0.2561 0.5091
H8 H 1.1321 -0.2083 0.5910
H9 H 0.9930 -0.1202 0.4912
C11 C 0.9928(5) -0.1181(4) 0.6166(3)
N1 N 0.8134(3) 0.1609(3) 0.6376(2)
N2 N 0.1725(4) 0.5464(4) 0.1904(3)
N3 N 0.4565(4) 0.4928(3) 0.3379(3)
O1 O 0.8757(4) -0.1455(4) 0.6088(3)
O2 O 1.0961(4) -0.0299(3) 0.6842(3)
Zn1_2 Zn 0.0000 0.02816(6) -0.2500
S1A S 0.62394(13) 0.69262(10) 0.30061(9)
C1A C 0.2862(4) 0.3372(4) -0.0107(3)
H1A H 0.2631 0.4029 0.0167
C2A C 0.1631(4) 0.2593(4) -0.0947(3)
H2A H 0.0559 0.2751 -0.1243
C3A C 0.3417(5) 0.1436(4) -0.0983(3)
H3A H 0.3600 0.0796 -0.1295
C4A C 0.4731(5) 0.2186(4) -0.0130(3)
H4A H 0.5785 0.2033 0.0132
C5A C 0.4489(4) 0.3168(4) 0.0339(3)
C6A C 0.5872(4) 0.3952(4) 0.1306(3)
C7A C 0.7498(5) 0.3696(5) 0.1865(4)
H5A H 0.7813 0.3026 0.1654
C8A C 0.8656(5) 0.4491(5) 0.2768(4)
H6A H 0.9770 0.4328 0.3165
C9A C 0.6652(5) 0.5622(4) 0.2484(3)
C10A C 0.9812(6) -0.1815(6) 0.9545(4)
H7A H 1.0520 -0.2561 0.9909
H8A H 0.8679 -0.2083 0.9090
H9A H 1.0070 -0.1202 1.0088
C11A C 1.0072(5) -0.1181(4) 0.8834(3)
N1A N 0.1866(3) 0.1609(3) -0.1376(2)
N1A_2 N 1.1866(3) 0.1609(3) 0.8624(2)
N2A N 0.8275(4) 0.5464(4) 0.3096(3)
N3A N 0.5435(4) 0.4928(3) 0.1621(3)
O1A O 1.1243(4) -0.1455(4) 0.8912(3)
O2A O 0.9039(4) -0.0299(3) 0.8158(3)
O3 O 0.3884(5) 0.0087(4) 0.1248(4)
H10 H 0.3874 -0.0712 0.1237
C12 C 0.5000 0.0583(13) 0.2500
O4 O 0.5000 0.1837(17) 0.2500
O3A O 0.6116(5) 0.0087(4) 0.3752(4)
H10A H 0.6126 -0.0712 0.3763
loop_
_geom_bond_atom_site_label_1
_geom_bond_atom_site_label_2
_geom_bond_site_symmetry_1
_geom_bond_site_symmetry_2
Zn1 N1 1_555 1_555
S1 C9 1_555 1_555
C1 H1 1_555 1_555
C2 C1 1_555 1_555
H2 C2 1_555 1_555
C3 H3 1_555 1_555
C4 C3 1_555 1_555
H4 C4 1_555 1_555
C5 C1 1_555 1_555
C6 C5 1_555 1_555
C7 C6 1_555 1_555
H5 C7 1_555 1_555
C8 C7 1_555 1_555
H6 C8 1_555 1_555
C9 N2 1_555 1_555
C10 H7 1_555 1_555
H8 C10 1_555 1_555
H9 C10 1_555 1_555
C11 C10 1_555 1_555
N1 C2 1_555 1_555
N2 C8 1_555 1_555
N3 C6 1_555 1_555
O1 Zn1 1_555 1_555
O2 Zn1 1_555 1_555
O3 H10 1_555 1_555
C12 O3 1_555 1_555
O4 C12 1_555 1_555
Zn1_2 N1A 1_555 1_555
S1A S1 1_555 1_555
C1A H1A 1_555 1_555
C2A C1A 1_555 1_555
H2A C2A 1_555 1_555
C3A H3A 1_555 1_555
C4A C3A 1_555 1_555
H4A C4A 1_555 1_555
C5A C1A 1_555 1_555
C6A C5A 1_555 1_555
C7A C6A 1_555 1_555
H5A C7A 1_555 1_555
C8A C7A 1_555 1_555
H6A C8A 1_555 1_555
C9A S1A 1_555 1_555
C10A H7A 1_555 1_555
H8A C10A 1_555 1_555
H9A C10A 1_555 1_555
C11A C10A 1_555 1_555
N1A C2A 1_555 1_555
N1A_2 Zn1 1_555 1_555
N2A C8A 1_555 1_555
N3A C6A 1_555 1_555
O1A Zn1 1_555 1_555
O2A Zn1 1_555 1_555
O3A C12 1_555 1_555
H10A O3A 1_555 1_555
C3 N1 1_555 1_555
C4 C5 1_555 1_555
C9 N3 1_555 1_555
C11 O1 1_555 1_555
C11 O2 1_555 1_555
C3A N1A 1_555 1_555
C4A C5A 1_555 1_555
C9A N2A 1_555 1_555
C9A N3A 1_555 1_555
C11A O1A 1_555 1_555
C11A O2A 1_555 1_555

#END
