
#######################################################################
#
#                 Cambridge Crystallographic Data Centre
#                                CCDC 
#
#######################################################################
#
# If this CIF has been generated from an entry in the Cambridge 
# Structural Database, then it will include bibliographic, chemical, 
# crystal, experimental, refinement or atomic coordinate data resulting 
# from the CCDC's data processing and validation procedures.
#
#######################################################################

data_WUGHIR
_symmetry_cell_setting           orthorhombic
_symmetry_space_group_name_H-M   'P b c a'
_symmetry_Int_Tables_number      61
_space_group_name_Hall           '-P 2ac 2ab'
loop_
_symmetry_equiv_pos_site_id
_symmetry_equiv_pos_as_xyz
1 x,y,z
2 1/2-x,-y,1/2+z
3 -x,1/2+y,1/2-z
4 1/2+x,1/2-y,-z
5 -x,-y,-z
6 1/2+x,y,1/2-z
7 x,1/2-y,1/2+z
8 1/2-x,1/2+y,z
_cell_length_a                   8.1318(9)
_cell_length_b                   20.711(2)
_cell_length_c                   25.827(3)
_cell_angle_alpha                90
_cell_angle_beta                 90
_cell_angle_gamma                90
_cell_volume                     4349.72
loop_
_atom_site_label
_atom_site_type_symbol
_atom_site_fract_x
_atom_site_fract_y
_atom_site_fract_z
Ni1 Ni 0.04141(3) 0.540623(12) 0.403327(9)
N1 N -0.0346(2) 0.63570(8) 0.39347(6)
N2 N -0.0463(2) 0.73712(8) 0.36707(6)
N3 N 0.0461(3) 0.95552(8) 0.24135(7)
N4 N 0.0369(2) 1.01389(9) 0.17016(7)
N5 N 0.5356(3) 0.67967(13) 0.34410(8)
O1 O 0.14447(19) 0.56234(7) 0.47692(5)
O2 O 0.1461(2) 0.63521(7) 0.54005(6)
O3 O 0.28140(19) 0.55036(7) 0.37636(6)
O4 O 0.4999(2) 0.54742(9) 0.42886(8)
O5 O 0.5594(3) 0.62374(13) 0.33441(10)
O6 O 0.6027(3) 0.72267(11) 0.32007(8)
O7 O -0.17216(19) 0.52264(8) 0.44160(6)
H1 H 0.1885 0.4387 0.4348
H2 H 0.0360 0.4198 0.4356
O8 O 0.0993(2) 0.44366(7) 0.41787(6)
H3 H -0.2717 0.5282 0.4321
H4 H -0.1746 0.4984 0.4681
C1 C 0.1780(3) 0.61811(10) 0.49530(8)
C2 C 0.2611(3) 0.66638(10) 0.46000(8)
C3 C 0.2296(3) 0.73168(11) 0.46823(9)
H5 H 0.1617 0.7439 0.4955
C4 C 0.2971(4) 0.77882(12) 0.43670(10)
H6 H 0.2730 0.8221 0.4424
C5 C 0.3997(4) 0.76102(13) 0.39701(10)
H7 H 0.4486 0.7922 0.3762
C6 C 0.4296(3) 0.69622(12) 0.38834(9)
C7 C 0.3609(3) 0.64711(11) 0.41861(8)
C8 C 0.3843(3) 0.57563(11) 0.40661(8)
C9 C -0.1376(3) 0.67010(10) 0.42589(8)
H8 H -0.1928 0.6530 0.4543
C10 C -0.1460(3) 0.73224(11) 0.41017(8)
H9 H -0.2068 0.7652 0.4254
C11 C 0.0174(3) 0.67746(10) 0.35897(8)
H10 H 0.0893 0.6674 0.3322
C12 C -0.0211(3) 0.79334(11) 0.33604(8)
C13 C 0.0311(4) 0.78635(12) 0.28578(10)
H11 H 0.0488 0.7453 0.2723
C14 C 0.0571(4) 0.84011(12) 0.25532(10)
H12 H 0.0962 0.8354 0.2217
C15 C 0.0255(3) 0.90057(11) 0.27466(8)
C16 C -0.0262(4) 0.90782(12) 0.32497(9)
H13 H -0.0460 0.9488 0.3382
C17 C -0.0488(4) 0.85381(12) 0.35594(9)
H14 H -0.0826 0.8586 0.3901
C18 C -0.0028(3) 0.95835(11) 0.19134(9)
H15 H -0.0575 0.9252 0.1742
C19 C 0.1151(3) 1.04806(11) 0.20851(9)
H16 H 0.1579 1.0894 0.2047
C20 C 0.1209(4) 1.01315(11) 0.25255(9)
H17 H 0.1664 1.0256 0.2840
Ni1B Ni -0.04141(3) 1.040623(12) 0.096673(9)
N4B N -0.0369(2) 0.51389(9) 0.32984(7)
O9 O 0.4093(2) 0.42366(9) 0.46382(7)
H18 H 0.4344 0.4239 0.4958
H19 H 0.4457 0.4593 0.4523
loop_
_geom_bond_atom_site_label_1
_geom_bond_atom_site_label_2
_geom_bond_site_symmetry_1
_geom_bond_site_symmetry_2
Ni1 N1 1_555 1_555
N1 C9 1_555 1_555
N2 C10 1_555 1_555
N3 C15 1_555 1_555
N4 C18 1_555 1_555
N5 O5 1_555 1_555
O1 Ni1 1_555 1_555
O2 C1 1_555 1_555
O3 Ni1 1_555 1_555
O4 C8 1_555 1_555
O6 N5 1_555 1_555
O7 Ni1 1_555 1_555
H1 O8 1_555 1_555
H2 O8 1_555 1_555
O8 Ni1 1_555 1_555
H3 O7 1_555 1_555
H4 O7 1_555 1_555
C1 O1 1_555 1_555
C2 C1 1_555 1_555
C3 C2 1_555 1_555
H5 C3 1_555 1_555
C4 C3 1_555 1_555
H6 C4 1_555 1_555
C5 C4 1_555 1_555
H7 C5 1_555 1_555
C6 N5 1_555 1_555
C7 C2 1_555 1_555
C8 O3 1_555 1_555
C9 H8 1_555 1_555
C10 C9 1_555 1_555
H9 C10 1_555 1_555
C11 N1 1_555 1_555
H10 C11 1_555 1_555
C12 N2 1_555 1_555
C13 C12 1_555 1_555
H11 C13 1_555 1_555
C14 C13 1_555 1_555
H12 C14 1_555 1_555
C15 C14 1_555 1_555
C16 C15 1_555 1_555
H13 C16 1_555 1_555
C17 C12 1_555 1_555
H14 C17 1_555 1_555
C18 N3 1_555 1_555
H15 C18 1_555 1_555
C19 N4 1_555 1_555
H16 C19 1_555 1_555
C20 N3 1_555 1_555
H17 C20 1_555 1_555
O9 H18 1_555 1_555
H19 O9 1_555 1_555
Ni1B N4 1_555 1_555
N4B Ni1 1_555 1_555
N2 C11 1_555 1_555
C5 C6 1_555 1_555
C6 C7 1_555 1_555
C7 C8 1_555 1_555
C16 C17 1_555 1_555
C19 C20 1_555 1_555

#END
