
#######################################################################
#
#                 Cambridge Crystallographic Data Centre
#                                CCDC 
#
#######################################################################
#
# If this CIF has been generated from an entry in the Cambridge 
# Structural Database, then it will include bibliographic, chemical, 
# crystal, experimental, refinement or atomic coordinate data resulting 
# from the CCDC's data processing and validation procedures.
#
#######################################################################

data_WUGJOY
_symmetry_cell_setting           rhombohedral
_symmetry_space_group_name_H-M   'R -3'
_symmetry_Int_Tables_number      148
_space_group_name_Hall           '-R 3'
loop_
_symmetry_equiv_pos_site_id
_symmetry_equiv_pos_as_xyz
1 x,y,z
2 -y,x-y,z
3 -x+y,-x,z
4 2/3+x,1/3+y,1/3+z
5 2/3-y,1/3+x-y,1/3+z
6 2/3-x+y,1/3-x,1/3+z
7 1/3+x,2/3+y,2/3+z
8 1/3-y,2/3+x-y,2/3+z
9 1/3-x+y,2/3-x,2/3+z
10 -x,-y,-z
11 y,-x+y,-z
12 x-y,x,-z
13 1/3-x,2/3-y,2/3-z
14 1/3+y,2/3-x+y,2/3-z
15 1/3+x-y,2/3+x,2/3-z
16 2/3-x,1/3-y,1/3-z
17 2/3+y,1/3-x+y,1/3-z
18 2/3+x-y,1/3+x,1/3-z
_cell_length_a                   23.5125(11)
_cell_length_b                   23.5125(11)
_cell_length_c                   12.2911(8)
_cell_angle_alpha                90
_cell_angle_beta                 90
_cell_angle_gamma                120
_cell_volume                     5884.63
loop_
_atom_site_label
_atom_site_type_symbol
_atom_site_fract_x
_atom_site_fract_y
_atom_site_fract_z
Co1 Co 0.0000 0.0000 0.24455(5)
Na1 Na 0.0000 0.0000 0.5000
Na2 Na 0.0000 0.0000 0.0000
O1 O 0.14522(9) 0.18744(8) 0.28416(14)
O2 O 0.15927(8) 0.06492(8) 0.25694(13)
O3 O 0.07977(7) 0.04935(8) 0.14071(11)
O4 O 0.02811(10) 0.08074(9) 0.35384(14)
H1 H 0.0000(10) 0.0930(11) 0.3349(19)
H2 H 0.0655(10) 0.1157(9) 0.3412(19)
N1 N 0.24849(9) 0.20226(9) 0.24640(16)
C1 C 0.20012(14) 0.19777(12) 0.3142(2)
C2 C 0.30487(13) 0.20993(15) 0.3046(2)
H3 H 0.3444 0.2497 0.2827
H4 H 0.3111 0.1725 0.2932
C3 C 0.28744(13) 0.21405(13) 0.4225(2)
C4 C 0.32235(15) 0.22339(15) 0.5182(2)
H5 H 0.3644 0.2290 0.5169
C5 C 0.29376(16) 0.22418(14) 0.6142(2)
H6 H 0.3165 0.2297 0.6789
C6 C 0.23175(15) 0.21693(13) 0.6175(2)
H7 H 0.2134 0.2180 0.6840
C7 C 0.19691(13) 0.20806(12) 0.5231(2)
H8 H 0.1550 0.2028 0.5248
C8 C 0.22562(12) 0.20718(12) 0.4260(2)
C9 C 0.24015(12) 0.18764(13) 0.1342(2)
C10 C 0.18819(11) 0.12831(11) 0.09488(19)
C11 C 0.18218(12) 0.11673(13) -0.01668(19)
H9 H 0.1473 0.0779 -0.0434
C12 C 0.22691(13) 0.16176(13) -0.0875(2)
H10 H 0.2228 0.1527 -0.1616
C13 C 0.27782(14) 0.22023(15) -0.0502(2)
H11 H 0.3079 0.2509 -0.0986
C14 C 0.28372(13) 0.23304(13) 0.0616(2)
H12 H 0.3176 0.2729 0.0872
C15 C 0.13895(12) 0.07701(12) 0.17051(19)
Co1I Co 0.0000 0.0000 0.75545(5)
Na2_2 Na 0.0000 0.0000 1.0000
O1A O -0.18744(8) -0.04222(12) 0.28416(14)
O1B O 0.04222(12) -0.14522(9) 0.28416(14)
O1I O -0.14522(9) -0.18744(8) 0.71584(14)
O1J O 0.18744(8) 0.04222(12) 0.71584(14)
O1K O -0.04222(12) 0.14522(9) 0.71584(14)
O2A O -0.06492(8) 0.09435(11) 0.25694(13)
O2B O -0.09435(11) -0.15927(8) 0.25694(13)
O2I O -0.15927(8) -0.06492(8) 0.74306(13)
O2J O 0.06492(8) -0.09435(11) 0.74306(13)
O2K O 0.09435(11) 0.15927(8) 0.74306(13)
O3A O -0.04935(8) 0.03042(11) 0.14071(11)
O3B O -0.03042(11) -0.07977(7) 0.14071(11)
O3I O -0.07977(7) -0.04935(8) 0.85929(11)
O3J O 0.04935(8) -0.03042(11) 0.85929(11)
O3K O 0.03042(11) 0.07977(7) 0.85929(11)
O3I_2 O -0.07977(7) -0.04935(8) -0.14071(11)
O3J_2 O 0.04935(8) -0.03042(11) -0.14071(11)
O3K_2 O 0.03042(11) 0.07977(7) -0.14071(11)
O4A O -0.08074(9) -0.05263(13) 0.35384(14)
O4B O 0.05263(13) -0.02811(10) 0.35384(14)
O4I O -0.02811(10) -0.08074(9) 0.64616(14)
O4J O 0.08074(9) 0.05263(13) 0.64616(14)
O4K O -0.05263(13) 0.02811(10) 0.64616(14)
H1A H -0.0930(11) -0.0930(15) 0.3349(19)
H1B H 0.0930(15) 0.0000(10) 0.3349(19)
H1I H 0.0000(10) -0.0930(11) 0.6651(19)
H1J H 0.0930(11) 0.0930(15) 0.6651(19)
H1K H -0.0930(15) 0.0000(10) 0.6651(19)
H2A H -0.1157(9) -0.0502(13) 0.3412(19)
H2B H 0.0502(13) -0.0655(10) 0.3412(19)
H2I H -0.0655(10) -0.1157(9) 0.6588(19)
H2J H 0.1157(9) 0.0502(13) 0.6588(19)
H2K H -0.0502(13) 0.0655(10) 0.6588(19)
N1A N -0.20226(9) 0.04623(13) 0.24640(16)
N1B N -0.04623(13) -0.24849(9) 0.24640(16)
N1I N -0.24849(9) -0.20226(9) 0.75360(16)
N1J N 0.20226(9) -0.04623(13) 0.75360(16)
N1K N 0.04623(13) 0.24849(9) 0.75360(16)
C1A C -0.19777(12) 0.00235(18) 0.3142(2)
C1B C -0.00235(18) -0.20012(14) 0.3142(2)
C1I C -0.20012(14) -0.19777(12) 0.6858(2)
C1J C 0.19777(12) -0.00235(18) 0.6858(2)
C1K C 0.00235(18) 0.20012(14) 0.6858(2)
C2A C -0.20993(15) 0.09494(20) 0.3046(2)
C2B C -0.09494(20) -0.30487(13) 0.3046(2)
C2I C -0.30487(13) -0.20993(15) 0.6954(2)
C2J C 0.20993(15) -0.09494(20) 0.6954(2)
C2K C 0.09494(20) 0.30487(13) 0.6954(2)
H3A H -0.2497 0.0947 0.2827
H3B H -0.0947 -0.3444 0.2827
H3I H -0.3444 -0.2497 0.7173
H3J H 0.2497 -0.0947 0.7173
H3K H 0.0947 0.3444 0.7173
H4A H -0.1725 0.1386 0.2932
H4B H -0.1386 -0.3111 0.2932
H4I H -0.3111 -0.1725 0.7068
H4J H 0.1725 -0.1386 0.7068
H4K H 0.1386 0.3111 0.7068
C3A C -0.21405(13) 0.07339(18) 0.4225(2)
C3B C -0.07339(18) -0.28744(13) 0.4225(2)
C3I C -0.28744(13) -0.21405(13) 0.5775(2)
C3J C 0.21405(13) -0.07339(18) 0.5775(2)
C3K C 0.07339(18) 0.28744(13) 0.5775(2)
C4A C -0.22339(15) 0.09896(21) 0.5182(2)
C4B C -0.09896(21) -0.32235(15) 0.5182(2)
C4I C -0.32235(15) -0.22339(15) 0.4818(2)
C4J C 0.22339(15) -0.09896(21) 0.4818(2)
C4K C 0.09896(21) 0.32235(15) 0.4818(2)
H5A H -0.2290 0.1354 0.5169
H5B H -0.1354 -0.3644 0.5169
H5I H -0.3644 -0.2290 0.4831
H5J H 0.2290 -0.1354 0.4831
H5K H 0.1354 0.3644 0.4831
C5A C -0.22418(14) 0.06958(21) 0.6142(2)
C5B C -0.06958(21) -0.29376(16) 0.6142(2)
C5I C -0.29376(16) -0.22418(14) 0.3858(2)
C5J C 0.22418(14) -0.06958(21) 0.3858(2)
C5K C 0.06958(21) 0.29376(16) 0.3858(2)
H6A H -0.2297 0.0868 0.6789
H6B H -0.0868 -0.3165 0.6789
H6I H -0.3165 -0.2297 0.3211
H6J H 0.2297 -0.0868 0.3211
H6K H 0.0868 0.3165 0.3211
C6A C -0.21693(13) 0.01482(20) 0.6175(2)
C6B C -0.01482(20) -0.23175(15) 0.6175(2)
C6I C -0.23175(15) -0.21693(13) 0.3825(2)
C6J C 0.21693(13) -0.01482(20) 0.3825(2)
C6K C 0.01482(20) 0.23175(15) 0.3825(2)
H7A H -0.2180 -0.0046 0.6840
H7B H 0.0046 -0.2134 0.6840
H7I H -0.2134 -0.2180 0.3160
H7J H 0.2180 0.0046 0.3160
H7K H -0.0046 0.2134 0.3160
C7A C -0.20806(12) -0.01115(18) 0.5231(2)
C7B C 0.01115(18) -0.19691(13) 0.5231(2)
C7I C -0.19691(13) -0.20806(12) 0.4769(2)
C7J C 0.20806(12) 0.01115(18) 0.4769(2)
C7K C -0.01115(18) 0.19691(13) 0.4769(2)
H8A H -0.2028 -0.0478 0.5248
H8B H 0.0478 -0.1550 0.5248
H8I H -0.1550 -0.2028 0.4752
H8J H 0.2028 0.0478 0.4752
H8K H -0.0478 0.1550 0.4752
C8A C -0.20718(12) 0.01844(17) 0.4260(2)
C8B C -0.01844(17) -0.22562(12) 0.4260(2)
C8I C -0.22562(12) -0.20718(12) 0.5740(2)
C8J C 0.20718(12) -0.01844(17) 0.5740(2)
C8K C 0.01844(17) 0.22562(12) 0.5740(2)
C9A C -0.18764(13) 0.05251(18) 0.1342(2)
C9B C -0.05251(18) -0.24015(12) 0.1342(2)
C9I C -0.24015(12) -0.18764(13) 0.8658(2)
C9J C 0.18764(13) -0.05251(18) 0.8658(2)
C9K C 0.05251(18) 0.24015(12) 0.8658(2)
C10A C -0.12831(11) 0.05988(16) 0.09488(19)
C10B C -0.05988(16) -0.18819(11) 0.09488(19)
C10I C -0.18819(11) -0.12831(11) 0.90512(19)
C10J C 0.12831(11) -0.05988(16) 0.90512(19)
C10K C 0.05988(16) 0.18819(11) 0.90512(19)
C11A C -0.11673(13) 0.06545(18) -0.01668(19)
C11B C -0.06545(18) -0.18218(12) -0.01668(19)
C11I C -0.18218(12) -0.11673(13) 1.01668(19)
C11J C 0.11673(13) -0.06545(18) 1.01668(19)
C11K C 0.06545(18) 0.18218(12) 1.01668(19)
H9A H -0.0779 0.0694 -0.0434
H9B H -0.0694 -0.1473 -0.0434
H9I H -0.1473 -0.0779 1.0434
H9J H 0.0779 -0.0694 1.0434
H9K H 0.0694 0.1473 1.0434
C12A C -0.16176(13) 0.06515(18) -0.0875(2)
C12B C -0.06515(18) -0.22691(13) -0.0875(2)
C12I C -0.22691(13) -0.16176(13) 1.0875(2)
C12J C 0.16176(13) -0.06515(18) 1.0875(2)
C12K C 0.06515(18) 0.22691(13) 1.0875(2)
H10A H -0.1527 0.0701 -0.1616
H10B H -0.0701 -0.2228 -0.1616
H10I H -0.2228 -0.1527 1.1616
H10J H 0.1527 -0.0701 1.1616
H10K H 0.0701 0.2228 1.1616
C13A C -0.22023(15) 0.05759(21) -0.0502(2)
C13B C -0.05759(21) -0.27782(14) -0.0502(2)
C13I C -0.27782(14) -0.22023(15) 1.0502(2)
C13J C 0.22023(15) -0.05759(21) 1.0502(2)
C13K C 0.05759(21) 0.27782(14) 1.0502(2)
H11A H -0.2509 0.0570 -0.0986
H11B H -0.0570 -0.3079 -0.0986
H11I H -0.3079 -0.2509 1.0986
H11J H 0.2509 -0.0570 1.0986
H11K H 0.0570 0.3079 1.0986
C14A C -0.23304(13) 0.05068(18) 0.0616(2)
C14B C -0.05068(18) -0.28372(13) 0.0616(2)
C14I C -0.28372(13) -0.23304(13) 0.9384(2)
C14J C 0.23304(13) -0.05068(18) 0.9384(2)
C14K C 0.05068(18) 0.28372(13) 0.9384(2)
H12A H -0.2729 0.0447 0.0872
H12B H -0.0447 -0.3176 0.0872
H12I H -0.3176 -0.2729 0.9128
H12J H 0.2729 -0.0447 0.9128
H12K H 0.0447 0.3176 0.9128
C15A C -0.07701(12) 0.06194(17) 0.17051(19)
C15B C -0.06194(17) -0.13895(12) 0.17051(19)
C15I C -0.13895(12) -0.07701(12) 0.82949(19)
C15J C 0.07701(12) -0.06194(17) 0.82949(19)
C15K C 0.06194(17) 0.13895(12) 0.82949(19)
loop_
_geom_bond_atom_site_label_1
_geom_bond_atom_site_label_2
_geom_bond_site_symmetry_1
_geom_bond_site_symmetry_2
Co1 O3 1_555 1_555
Na1 O4 1_555 1_555
Na2 O3 1_555 1_555
O1 C1 1_555 1_555
O2 C15 1_555 1_555
O3 C15 1_555 1_555
O4 Co1 1_555 1_555
H1 O4 1_555 1_555
H2 O4 1_555 1_555
N1 C1 1_555 1_555
C1 C8 1_555 1_555
C2 N1 1_555 1_555
H3 C2 1_555 1_555
H4 C2 1_555 1_555
C3 C2 1_555 1_555
C4 C3 1_555 1_555
H5 C4 1_555 1_555
C5 C4 1_555 1_555
H6 C5 1_555 1_555
C6 C5 1_555 1_555
H7 C6 1_555 1_555
C7 C6 1_555 1_555
H8 C7 1_555 1_555
C8 C3 1_555 1_555
C9 N1 1_555 1_555
C10 C9 1_555 1_555
C11 C10 1_555 1_555
H9 C11 1_555 1_555
C12 C11 1_555 1_555
H10 C12 1_555 1_555
C13 C12 1_555 1_555
H11 C13 1_555 1_555
C14 C9 1_555 1_555
H12 C14 1_555 1_555
C15 C10 1_555 1_555
Co1I O3I 1_555 1_555
Na2_2 O3I 1_555 1_555
O1A C1A 1_555 1_555
O1B C1B 1_555 1_555
O1I C1I 1_555 1_555
O1J C1J 1_555 1_555
O1K C1K 1_555 1_555
O2A C15A 1_555 1_555
O2B C15B 1_555 1_555
O2I C15I 1_555 1_555
O2J C15J 1_555 1_555
O2K C15K 1_555 1_555
O3A Co1 1_555 1_555
O3B Co1 1_555 1_555
O3I C15I 1_555 1_555
O3J Co1I 1_555 1_555
O3K Co1I 1_555 1_555
O3I_2 Na2 1_555 1_555
O3J_2 Na2 1_555 1_555
O3K_2 Na2 1_555 1_555
O4A Co1 1_555 1_555
O4B Co1 1_555 1_555
O4I Na1 1_555 1_555
O4J Na1 1_555 1_555
O4K Na1 1_555 1_555
H1A O4A 1_555 1_555
H1B O4B 1_555 1_555
H1I O4I 1_555 1_555
H1J O4J 1_555 1_555
H1K O4K 1_555 1_555
H2A O4A 1_555 1_555
H2B O4B 1_555 1_555
H2I O4I 1_555 1_555
H2J O4J 1_555 1_555
H2K O4K 1_555 1_555
N1A C1A 1_555 1_555
N1B C1B 1_555 1_555
N1I C1I 1_555 1_555
N1J C1J 1_555 1_555
N1K C1K 1_555 1_555
C1A C8A 1_555 1_555
C1B C8B 1_555 1_555
C1I C8I 1_555 1_555
C1J C8J 1_555 1_555
C1K C8K 1_555 1_555
C2A N1A 1_555 1_555
C2B N1B 1_555 1_555
C2I N1I 1_555 1_555
C2J N1J 1_555 1_555
C2K N1K 1_555 1_555
H3A C2A 1_555 1_555
H3B C2B 1_555 1_555
H3I C2I 1_555 1_555
H3J C2J 1_555 1_555
H3K C2K 1_555 1_555
H4A C2A 1_555 1_555
H4B C2B 1_555 1_555
H4I C2I 1_555 1_555
H4J C2J 1_555 1_555
H4K C2K 1_555 1_555
C3A C2A 1_555 1_555
C3B C2B 1_555 1_555
C3I C2I 1_555 1_555
C3J C2J 1_555 1_555
C3K C2K 1_555 1_555
C4A C3A 1_555 1_555
C4B C3B 1_555 1_555
C4I C3I 1_555 1_555
C4J C3J 1_555 1_555
C4K C3K 1_555 1_555
H5A C4A 1_555 1_555
H5B C4B 1_555 1_555
H5I C4I 1_555 1_555
H5J C4J 1_555 1_555
H5K C4K 1_555 1_555
C5A C4A 1_555 1_555
C5B C4B 1_555 1_555
C5I C4I 1_555 1_555
C5J C4J 1_555 1_555
C5K C4K 1_555 1_555
H6A C5A 1_555 1_555
H6B C5B 1_555 1_555
H6I C5I 1_555 1_555
H6J C5J 1_555 1_555
H6K C5K 1_555 1_555
C6A C5A 1_555 1_555
C6B C5B 1_555 1_555
C6I C5I 1_555 1_555
C6J C5J 1_555 1_555
C6K C5K 1_555 1_555
H7A C6A 1_555 1_555
H7B C6B 1_555 1_555
H7I C6I 1_555 1_555
H7J C6J 1_555 1_555
H7K C6K 1_555 1_555
C7A C6A 1_555 1_555
C7B C6B 1_555 1_555
C7I C6I 1_555 1_555
C7J C6J 1_555 1_555
C7K C6K 1_555 1_555
H8A C7A 1_555 1_555
H8B C7B 1_555 1_555
H8I C7I 1_555 1_555
H8J C7J 1_555 1_555
H8K C7K 1_555 1_555
C8A C3A 1_555 1_555
C8B C3B 1_555 1_555
C8I C3I 1_555 1_555
C8J C3J 1_555 1_555
C8K C3K 1_555 1_555
C9A N1A 1_555 1_555
C9B N1B 1_555 1_555
C9I N1I 1_555 1_555
C9J N1J 1_555 1_555
C9K N1K 1_555 1_555
C10A C9A 1_555 1_555
C10B C9B 1_555 1_555
C10I C9I 1_555 1_555
C10J C9J 1_555 1_555
C10K C9K 1_555 1_555
C11A C10A 1_555 1_555
C11B C10B 1_555 1_555
C11I C10I 1_555 1_555
C11J C10J 1_555 1_555
C11K C10K 1_555 1_555
H9A C11A 1_555 1_555
H9B C11B 1_555 1_555
H9I C11I 1_555 1_555
H9J C11J 1_555 1_555
H9K C11K 1_555 1_555
C12A C11A 1_555 1_555
C12B C11B 1_555 1_555
C12I C11I 1_555 1_555
C12J C11J 1_555 1_555
C12K C11K 1_555 1_555
H10A C12A 1_555 1_555
H10B C12B 1_555 1_555
H10I C12I 1_555 1_555
H10J C12J 1_555 1_555
H10K C12K 1_555 1_555
C13A C12A 1_555 1_555
C13B C12B 1_555 1_555
C13I C12I 1_555 1_555
C13J C12J 1_555 1_555
C13K C12K 1_555 1_555
H11A C13A 1_555 1_555
H11B C13B 1_555 1_555
H11I C13I 1_555 1_555
H11J C13J 1_555 1_555
H11K C13K 1_555 1_555
C14A C9A 1_555 1_555
C14B C9B 1_555 1_555
C14I C9I 1_555 1_555
C14J C9J 1_555 1_555
C14K C9K 1_555 1_555
H12A C14A 1_555 1_555
H12B C14B 1_555 1_555
H12I C14I 1_555 1_555
H12J C14J 1_555 1_555
H12K C14K 1_555 1_555
C15A O3A 1_555 1_555
C15B O3B 1_555 1_555
C15I C10I 1_555 1_555
C15J O3J 1_555 1_555
C15K O3K 1_555 1_555
Na1 O4A 1_555 1_555
Na1 O4B 1_555 1_555
Na2 O3A 1_555 1_555
Na2 O3B 1_555 1_555
C7 C8 1_555 1_555
C13 C14 1_555 1_555
Co1I O4I 1_555 1_555
Co1I O4J 1_555 1_555
Co1I O4K 1_555 1_555
Na2_2 O3J 1_555 1_555
Na2_2 O3K 1_555 1_555
C7A C8A 1_555 1_555
C7B C8B 1_555 1_555
C7I C8I 1_555 1_555
C7J C8J 1_555 1_555
C7K C8K 1_555 1_555
C10A C15A 1_555 1_555
C10B C15B 1_555 1_555
C10J C15J 1_555 1_555
C10K C15K 1_555 1_555
C13A C14A 1_555 1_555
C13B C14B 1_555 1_555
C13I C14I 1_555 1_555
C13J C14J 1_555 1_555
C13K C14K 1_555 1_555

#END
