
#######################################################################
#
#                 Cambridge Crystallographic Data Centre
#                                CCDC 
#
#######################################################################
#
# If this CIF has been generated from an entry in the Cambridge 
# Structural Database, then it will include bibliographic, chemical, 
# crystal, experimental, refinement or atomic coordinate data resulting 
# from the CCDC's data processing and validation procedures.
#
#######################################################################

data_WUGLOZ
_symmetry_cell_setting           monoclinic
_symmetry_space_group_name_H-M   'P 21/n'
_symmetry_Int_Tables_number      14
_space_group_name_Hall           '-P 2yn'
loop_
_symmetry_equiv_pos_site_id
_symmetry_equiv_pos_as_xyz
1 x,y,z
2 1/2+x,1/2-y,1/2+z
3 -x,-y,-z
4 1/2-x,1/2+y,1/2-z
_cell_length_a                   6.9178(12)
_cell_length_b                   7.9633(15)
_cell_length_c                   15.994(3)
_cell_angle_alpha                90
_cell_angle_beta                 90.122(4)
_cell_angle_gamma                90
_cell_volume                     881.084
loop_
_atom_site_label
_atom_site_type_symbol
_atom_site_fract_x
_atom_site_fract_y
_atom_site_fract_z
Ag1 Ag 0.28514(5) 0.51319(4) -0.00331(2)
S1 S 0.28863(17) 0.44291(17) -0.15196(7)
C1 C 0.5211(8) 0.4882(6) -0.1966(3)
H1 H 0.5214 0.4500 -0.2542
H2 H 0.5393 0.6090 -0.1972
S2 S 0.72398(16) 0.39304(16) -0.14258(7)
C2 C 0.6555(9) 0.1750(7) -0.1435(4)
H3 H 0.7522 0.1113 -0.1131
H4 H 0.6562 0.1355 -0.2009
C3 C 0.4598(9) 0.1382(6) -0.1062(4)
H5 H 0.4583 0.1788 -0.0491
H6 H 0.4418 0.0174 -0.1045
C4 C 0.2920(8) 0.2151(7) -0.1526(4)
H7 H 0.2955 0.1769 -0.2102
H8 H 0.1728 0.1746 -0.1281
N1 N 0.0321(6) 0.2194(5) 0.0827(3)
O1 O 0.0170(5) 0.2933(5) 0.0130(2)
O2 O -0.1137(8) 0.1597(7) 0.1149(3)
O3 O 0.1893(7) 0.2149(5) 0.1185(3)
Ag1B Ag 0.71486(5) 0.48681(4) 0.00331(2)
S2B S 0.27602(16) 0.60696(16) 0.14258(7)
O1B O -0.0170(5) 0.7067(5) -0.0130(2)
Ag1B_2 Ag -0.28514(5) 0.48681(4) 0.00331(2)
loop_
_geom_bond_atom_site_label_1
_geom_bond_atom_site_label_2
_geom_bond_site_symmetry_1
_geom_bond_site_symmetry_2
Ag1 S1 1_555 1_555
S1 C1 1_555 1_555
C1 H1 1_555 1_555
H2 C1 1_555 1_555
S2 C1 1_555 1_555
C2 S2 1_555 1_555
H3 C2 1_555 1_555
H4 C2 1_555 1_555
C3 C2 1_555 1_555
H5 C3 1_555 1_555
H6 C3 1_555 1_555
C4 S1 1_555 1_555
H7 C4 1_555 1_555
H8 C4 1_555 1_555
N1 O1 1_555 1_555
O1 Ag1 1_555 1_555
O2 N1 1_555 1_555
O3 N1 1_555 1_555
Ag1B S2 1_555 1_555
S2B Ag1 1_555 1_555
O1B Ag1 1_555 1_555
Ag1B_2 O1 1_555 1_555
C3 C4 1_555 1_555
O1B Ag1B_2 1_555 1_555

#END
