
#######################################################################
#
#                 Cambridge Crystallographic Data Centre
#                                CCDC 
#
#######################################################################
#
# If this CIF has been generated from an entry in the Cambridge 
# Structural Database, then it will include bibliographic, chemical, 
# crystal, experimental, refinement or atomic coordinate data resulting 
# from the CCDC's data processing and validation procedures.
#
#######################################################################

data_WUGLOZ01
_symmetry_cell_setting           monoclinic
_symmetry_space_group_name_H-M   'P 21/n'
_symmetry_Int_Tables_number      14
_space_group_name_Hall           '-P 2yn'
loop_
_symmetry_equiv_pos_site_id
_symmetry_equiv_pos_as_xyz
1 x,y,z
2 1/2+x,1/2-y,1/2+z
3 -x,-y,-z
4 1/2-x,1/2+y,1/2-z
_cell_length_a                   6.8622(4)
_cell_length_b                   7.9021(5)
_cell_length_c                   15.9619(9)
_cell_angle_alpha                90
_cell_angle_beta                 90.1210(10)
_cell_angle_gamma                90
_cell_volume                     865.545
loop_
_atom_site_label
_atom_site_type_symbol
_atom_site_fract_x
_atom_site_fract_y
_atom_site_fract_z
Ag1 Ag 0.21563(4) -0.01404(4) -0.003086(16)
S1 S 0.21293(13) 0.05481(13) -0.15231(5)
C1 C -0.0231(6) 0.0111(5) -0.1967(2)
H1 H -0.0426 -0.1130 -0.1974
H2 H -0.0238 0.0505 -0.2556
S2 S -0.22678(13) 0.10681(13) -0.14320(6)
C2 C -0.1551(6) 0.3277(6) -0.1444(3)
H3 H -0.1538 0.3673 -0.2033
H4 H -0.2551 0.3942 -0.1143
C3 C 0.0421(7) 0.3649(5) -0.1055(3)
H5 H 0.0437 0.3220 -0.0472
H6 H 0.0616 0.4890 -0.1034
C4 C 0.2099(6) 0.2851(6) -0.1537(3)
H7 H 0.3342 0.3269 -0.1299
H8 H 0.2031 0.3235 -0.2127
N1 N 0.4693(5) 0.2802(4) 0.0847(2)
O1 O 0.4813(4) 0.2096(4) 0.01294(17)
O2 O 0.3085(5) 0.2833(4) 0.1213(2)
O3 O 0.6172(6) 0.3420(6) 0.1170(2)
Ag1B Ag -0.21563(4) 0.01404(4) 0.003086(16)
S2B S 0.22678(13) -0.10681(13) 0.14320(6)
O1B O 0.5187(4) -0.2096(4) -0.01294(17)
Ag1B_2 Ag 0.78437(4) 0.01404(4) 0.003086(16)
loop_
_geom_bond_atom_site_label_1
_geom_bond_atom_site_label_2
_geom_bond_site_symmetry_1
_geom_bond_site_symmetry_2
Ag1 S1 1_555 1_555
S1 C1 1_555 1_555
C1 H1 1_555 1_555
H2 C1 1_555 1_555
S2 C1 1_555 1_555
C2 S2 1_555 1_555
H3 C2 1_555 1_555
H4 C2 1_555 1_555
C3 C2 1_555 1_555
H5 C3 1_555 1_555
H6 C3 1_555 1_555
C4 S1 1_555 1_555
H7 C4 1_555 1_555
H8 C4 1_555 1_555
N1 O1 1_555 1_555
O1 Ag1 1_555 1_555
O2 N1 1_555 1_555
O3 N1 1_555 1_555
Ag1B S2 1_555 1_555
S2B Ag1 1_555 1_555
O1B Ag1 1_555 1_555
Ag1B_2 O1 1_555 1_555
C3 C4 1_555 1_555
O1B Ag1B_2 1_555 1_555

#END
