
#######################################################################
#
#                 Cambridge Crystallographic Data Centre
#                                CCDC 
#
#######################################################################
#
# If this CIF has been generated from an entry in the Cambridge 
# Structural Database, then it will include bibliographic, chemical, 
# crystal, experimental, refinement or atomic coordinate data resulting 
# from the CCDC's data processing and validation procedures.
#
#######################################################################

data_WUGLIU
_symmetry_cell_setting           triclinic
_symmetry_space_group_name_H-M   'P -1'
_symmetry_Int_Tables_number      2
_space_group_name_Hall           '-P 1'
loop_
_symmetry_equiv_pos_site_id
_symmetry_equiv_pos_as_xyz
1 x,y,z
2 -x,-y,-z
_cell_length_a                   7.055(2)
_cell_length_b                   9.736(3)
_cell_length_c                   11.608(1)
_cell_angle_alpha                114.560(5)
_cell_angle_beta                 104.960(8)
_cell_angle_gamma                93.070(7)
_cell_volume                     688.769
loop_
_atom_site_label
_atom_site_type_symbol
_atom_site_fract_x
_atom_site_fract_y
_atom_site_fract_z
Ba1 Ba -0.95736(10) 0.27920(8) 0.61032(6)
O1 O -0.6332(15) 1.1335(12) 1.2882(8)
O2 O -0.8191(11) 0.9316(8) 0.8368(7)
O3 O -0.9654(13) 0.0200(10) 0.3733(8)
H1 H -0.8812 -0.0305 0.3412
H2 H -1.0538 0.0317 0.3134
O4 O -1.3502(15) 0.1278(12) 0.5138(11)
H3 H -1.4233 0.0995 0.4353
H4 H -1.4107 0.1617 0.5705
O5 O -1.1550(17) 0.3365(12) 0.4027(10)
H5 H -1.2242 0.3994 0.4401
H6 H -1.2135 0.2874 0.3194
O6 O -0.6599(14) 0.3824(11) 0.5288(9)
H7 H -0.6948 0.3220 0.4471
H8 H -0.5654 0.4539 0.5510
N1 N -0.695(2) 0.5589(14) 0.8288(12)
N2 N -0.429(2) 0.7841(15) 1.2701(11)
N3 N -0.971(2) 1.3050(15) 0.8625(11)
N4 N -0.7818(18) 1.5019(13) 1.2979(11)
C1 C -0.7670(15) 0.9882(12) 0.9588(11)
C2 C -0.6782(16) 0.9322(13) 1.0591(10)
C3 C -0.6813(17) 1.0795(14) 1.1656(11)
C4 C -0.7700(16) 1.1325(12) 1.0664(10)
C5 C -0.6173(16) 0.7954(12) 1.0535(11)
C6 C -0.6553(18) 0.6654(13) 0.9296(12)
C7 C -0.5149(18) 0.7879(14) 1.1732(12)
C8 C -0.8289(16) 1.2711(13) 1.0737(11)
C9 C -0.9082(19) 1.2912(14) 0.9567(12)
C10 C -0.8006(19) 1.3981(14) 1.1980(12)
Ba1A Ba -1.04264(10) -0.27920(8) 0.38968(6)
Ba1A_2 Ba -0.04264(10) 0.72080(8) 1.38968(6)
Ba1_2 Ba -0.95736(10) 1.27920(8) 0.61032(6)
Ba1A_3 Ba -1.04264(10) 1.72080(8) 1.38968(6)
O3A O -1.0346(13) -0.0200(10) 0.6267(8)
H1A H -1.1188 0.0305 0.6588
H2A H -0.9462 -0.0317 0.6866
N2A N -0.571(2) 0.2159(15) 0.7299(11)
N3_2 N -0.971(2) 0.3050(15) 0.8625(11)
N4A N -1.2182(18) 0.4981(13) 0.7021(11)
loop_
_geom_bond_atom_site_label_1
_geom_bond_atom_site_label_2
_geom_bond_site_symmetry_1
_geom_bond_site_symmetry_2
Ba1 O3 1_555 1_555
O1 C3 1_555 1_555
O2 C1 1_555 1_555
O3 H1 1_555 1_555
H2 O3 1_555 1_555
O4 Ba1 1_555 1_555
H3 O4 1_555 1_555
H4 O4 1_555 1_555
O5 Ba1 1_555 1_555
H5 O5 1_555 1_555
H6 O5 1_555 1_555
O6 Ba1 1_555 1_555
H7 O6 1_555 1_555
H8 O6 1_555 1_555
N1 Ba1 1_555 1_555
N2 C7 1_555 1_555
N3 C9 1_555 1_555
N4 C10 1_555 1_555
C1 C2 1_555 1_555
C2 C3 1_555 1_555
C3 C4 1_555 1_555
C4 C1 1_555 1_555
C5 C2 1_555 1_555
C6 N1 1_555 1_555
C7 C5 1_555 1_555
C8 C4 1_555 1_555
C9 C8 1_555 1_555
C10 C8 1_555 1_555
Ba1A O3 1_555 1_555
Ba1A_2 N2 1_555 1_555
Ba1_2 N3 1_555 1_555
Ba1A_3 N4 1_555 1_555
O3A Ba1 1_555 1_555
H1A O3A 1_555 1_555
H2A O3A 1_555 1_555
N2A Ba1 1_555 1_555
N3_2 Ba1 1_555 1_555
N4A Ba1 1_555 1_555
C5 C6 1_555 1_555
Ba1A O3A 1_555 1_555

#END
