
#######################################################################
#
#                 Cambridge Crystallographic Data Centre
#                                CCDC 
#
#######################################################################
#
# If this CIF has been generated from an entry in the Cambridge 
# Structural Database, then it will include bibliographic, chemical, 
# crystal, experimental, refinement or atomic coordinate data resulting 
# from the CCDC's data processing and validation procedures.
#
#######################################################################

data_WUGMIU
_symmetry_cell_setting           orthorhombic
_symmetry_space_group_name_H-M   'P 21 21 21'
_symmetry_Int_Tables_number      19
_space_group_name_Hall           'P 2ac 2ab'
loop_
_symmetry_equiv_pos_site_id
_symmetry_equiv_pos_as_xyz
1 x,y,z
2 1/2-x,-y,1/2+z
3 -x,1/2+y,1/2-z
4 1/2+x,1/2-y,-z
_cell_length_a                   6.5119(10)
_cell_length_b                   13.1352(19)
_cell_length_c                   18.463(3)
_cell_angle_alpha                90
_cell_angle_beta                 90
_cell_angle_gamma                90
_cell_volume                     1579.23
loop_
_atom_site_label
_atom_site_type_symbol
_atom_site_fract_x
_atom_site_fract_y
_atom_site_fract_z
Ag1 Ag 0.61381(7) -0.00628(4) 0.13724(2)
Ag2 Ag 0.42371(8) 0.14917(3) 0.04368(3)
S1 S 0.4666(3) 0.08250(12) 0.24651(9)
C1 C 0.2301(9) 0.1469(4) 0.2225(3)
H1 H 0.1262 0.0950 0.2097
H2 H 0.1791 0.1839 0.2656
S2 S 0.2511(2) 0.23535(11) 0.14899(8)
C2 C 0.4445(10) 0.3199(4) 0.1861(3)
H3 H 0.4708 0.3749 0.1507
H4 H 0.3888 0.3518 0.2305
C3 C 0.6464(10) 0.2696(5) 0.2046(3)
H5 H 0.7466 0.3227 0.2187
H6 H 0.7002 0.2350 0.1609
C4 C 0.6290(11) 0.1923(5) 0.2655(4)
H7 H 0.5745 0.2274 0.3089
H8 H 0.7685 0.1676 0.2775
S3 S 0.4440(2) -0.13019(10) 0.05033(9)
C5 C 0.2277(10) -0.0833(5) -0.0009(4)
H9 H 0.1842 -0.1370 -0.0353
H10 H 0.1122 -0.0714 0.0329
S4 S 0.2738(2) 0.03181(11) -0.05088(9)
C6 C 0.4803(10) -0.0117(5) -0.1088(3)
H11 H 0.4284 -0.0676 -0.1397
H12 H 0.5216 0.0449 -0.1411
C7 C 0.6685(10) -0.0490(5) -0.0682(3)
H13 H 0.7168 0.0055 -0.0354
H14 H 0.7795 -0.0630 -0.1035
C8 C 0.6280(10) -0.1461(5) -0.0234(3)
H15 H 0.7599 -0.1700 -0.0028
H16 H 0.5769 -0.2000 -0.0564
N1 N 0.9226(8) 0.1480(4) 0.0385(3)
O1 O 0.7632(7) 0.1943(3) 0.0198(2)
O2 O 0.8986(7) 0.0744(3) 0.0793(2)
N2 N 0.9789(9) -0.1392(5) 0.1807(3)
O3 O 0.9258(9) -0.0586(3) 0.2108(3)
O4 O 0.8520(8) -0.1700(4) 0.1342(3)
O1C O 0.2632(7) 0.3057(3) -0.0198(2)
Ag2C Ag 0.92371(8) 0.35083(3) -0.04368(3)
loop_
_geom_bond_atom_site_label_1
_geom_bond_atom_site_label_2
_geom_bond_site_symmetry_1
_geom_bond_site_symmetry_2
Ag1 S1 1_555 1_555
Ag2 S2 1_555 1_555
S1 C1 1_555 1_555
C1 H1 1_555 1_555
H2 C1 1_555 1_555
S2 C1 1_555 1_555
C2 S2 1_555 1_555
H3 C2 1_555 1_555
H4 C2 1_555 1_555
C3 C2 1_555 1_555
H5 C3 1_555 1_555
H6 C3 1_555 1_555
C4 S1 1_555 1_555
H7 C4 1_555 1_555
H8 C4 1_555 1_555
S3 Ag1 1_555 1_555
C5 S3 1_555 1_555
H9 C5 1_555 1_555
H10 C5 1_555 1_555
S4 Ag2 1_555 1_555
C6 S4 1_555 1_555
H11 C6 1_555 1_555
H12 C6 1_555 1_555
C7 C6 1_555 1_555
H13 C7 1_555 1_555
H14 C7 1_555 1_555
C8 S3 1_555 1_555
H15 C8 1_555 1_555
H16 C8 1_555 1_555
N1 O1 1_555 1_555
O1 Ag2 1_555 1_555
O2 Ag1 1_555 1_555
N2 O3 1_555 1_555
O3 Ag1 1_555 1_555
O4 Ag1 1_555 1_555
O1C Ag2 1_555 1_555
Ag2C O1 1_555 1_555
C3 C4 1_555 1_555
C5 S4 1_555 1_555
C7 C8 1_555 1_555
N1 O2 1_555 1_555
N2 O4 1_555 1_555

#END
