
#######################################################################
#
#                 Cambridge Crystallographic Data Centre
#                                CCDC 
#
#######################################################################
#
# If this CIF has been generated from an entry in the Cambridge 
# Structural Database, then it will include bibliographic, chemical, 
# crystal, experimental, refinement or atomic coordinate data resulting 
# from the CCDC's data processing and validation procedures.
#
#######################################################################

data_WUGMEQ
_symmetry_cell_setting           orthorhombic
_symmetry_space_group_name_H-M   'P n m a'
_symmetry_Int_Tables_number      62
_space_group_name_Hall           '-P 2ac 2n'
loop_
_symmetry_equiv_pos_site_id
_symmetry_equiv_pos_as_xyz
1 x,y,z
2 1/2+x,y,1/2-z
3 x,1/2-y,z
4 1/2-x,1/2+y,1/2+z
5 -x,-y,-z
6 1/2-x,-y,1/2+z
7 -x,1/2+y,-z
8 1/2+x,1/2-y,1/2-z
_cell_length_a                   14.290(2)
_cell_length_b                   6.919(2)
_cell_length_c                   16.189(2)
_cell_angle_alpha                90
_cell_angle_beta                 90
_cell_angle_gamma                90
_cell_volume                     1600.65
loop_
_atom_site_label
_atom_site_type_symbol
_atom_site_fract_x
_atom_site_fract_y
_atom_site_fract_z
Ag1 Ag 0.131091(12) 0.03567(3) 0.457525(11)
Cl1 Cl -0.00395(5) 0.2500 0.54188(5)
C1 C 0.2239(3) 0.2500 0.6351(2)
H1 H 0.1597 0.2500 0.6580
H2 H 0.2680 0.2500 0.6823
S1 S 0.24033(5) 0.03132(10) 0.57790(4)
C2 C 0.3591(2) 0.0684(5) 0.5432(2)
H3 H 0.4007 0.0716 0.5920
H4 H 0.3779 -0.0435 0.5089
C3 C 0.3739(3) 0.2500 0.4941(3)
H5 H 0.3304 0.2500 0.4465
H6 H 0.4385 0.2500 0.4720
C4 C 0.1818(2) 0.2500 0.2646(2)
H7 H 0.1763 0.2500 0.2036
H8 H 0.2493 0.2500 0.2783
S2 S 0.13113(4) 0.03097(9) 0.30316(4)
C5 C 0.01058(18) 0.0672(4) 0.27333(16)
H9 H 0.0070 0.0691 0.2123
H10 H -0.0266 -0.0446 0.2928
C6 C -0.0335(2) 0.2500 0.3061(2)
H11 H -0.1008 0.2500 0.2916
H12 H -0.0287 0.2500 0.3671
C2B C 0.3591(2) 0.4316(5) 0.5432(2)
S1B S 0.24033(5) 0.46868(10) 0.57790(4)
H3B H 0.4007 0.4284 0.5920
H4B H 0.3779 0.5435 0.5089
C5B C 0.01058(18) 0.4328(4) 0.27333(16)
S2B S 0.13113(4) 0.46903(9) 0.30316(4)
H9B H 0.0070 0.4309 0.2123
H10B H -0.0266 0.5446 0.2928
Ag1B Ag 0.131091(12) 0.46433(3) 0.457525(11)
Cl1D Cl 0.00395(5) -0.2500 0.45812(5)
Ag1D Ag -0.131091(12) -0.03567(3) 0.542475(11)
Ag1F Ag -0.131091(12) 0.53567(3) 0.542475(11)
Cl1D_2 Cl 0.00395(5) 0.7500 0.45812(5)
B1 B 0.3492(3) 0.7500 0.3582(2)
F1 F 0.28165(14) 0.7500 0.42107(13)
F2 F 0.43764(16) 0.7500 0.39401(16)
F3 F 0.33810(12) 0.5865(3) 0.31051(12)
F3B F 0.33810(12) 0.9135(3) 0.31051(12)
loop_
_geom_bond_atom_site_label_1
_geom_bond_atom_site_label_2
_geom_bond_site_symmetry_1
_geom_bond_site_symmetry_2
Ag1 Cl1 1_555 1_555
Cl1 Ag1B 1_555 1_555
C1 H1 1_555 1_555
H2 C1 1_555 1_555
S1 Ag1 1_555 1_555
C2 S1 1_555 1_555
H3 C2 1_555 1_555
H4 C2 1_555 1_555
C3 C2 1_555 1_555
H5 C3 1_555 1_555
H6 C3 1_555 1_555
C4 H7 1_555 1_555
H8 C4 1_555 1_555
S2 Ag1 1_555 1_555
C5 S2 1_555 1_555
H9 C5 1_555 1_555
H10 C5 1_555 1_555
C6 C5 1_555 1_555
H11 C6 1_555 1_555
H12 C6 1_555 1_555
B1 F1 1_555 1_555
F2 B1 1_555 1_555
F3 B1 1_555 1_555
C2B C3 1_555 1_555
S1B C1 1_555 1_555
H3B C2B 1_555 1_555
H4B C2B 1_555 1_555
C5B C6 1_555 1_555
S2B C4 1_555 1_555
H9B C5B 1_555 1_555
H10B C5B 1_555 1_555
F3B B1 1_555 1_555
Ag1B S1B 1_555 1_555
Cl1D Ag1 1_555 1_555
Ag1D Cl1 1_555 1_555
Ag1F Cl1 1_555 1_555
Cl1D_2 Ag1B 1_555 1_555
C1 S1 1_555 1_555
C4 S2 1_555 1_555
C2B S1B 1_555 1_555
C5B S2B 1_555 1_555
S2B Ag1B 1_555 1_555
Cl1D Ag1D 1_555 1_555
Ag1F Cl1D_2 1_555 1_555

#END
