
#######################################################################
#
#                 Cambridge Crystallographic Data Centre
#                                CCDC 
#
#######################################################################
#
# If this CIF has been generated from an entry in the Cambridge 
# Structural Database, then it will include bibliographic, chemical, 
# crystal, experimental, refinement or atomic coordinate data resulting 
# from the CCDC's data processing and validation procedures.
#
#######################################################################

data_WUGMOB
_symmetry_cell_setting           orthorhombic
_symmetry_space_group_name_H-M   'F d d 2'
_symmetry_Int_Tables_number      43
_space_group_name_Hall           'F 2 -2d'
loop_
_symmetry_equiv_pos_site_id
_symmetry_equiv_pos_as_xyz
1 x,y,z
2 -x,-y,z
3 1/4+x,1/4-y,1/4+z
4 1/4-x,1/4+y,1/4+z
5 x,1/2+y,1/2+z
6 -x,1/2-y,1/2+z
7 1/4+x,3/4-y,3/4+z
8 1/4-x,3/4+y,3/4+z
9 1/2+x,y,1/2+z
10 1/2-x,-y,1/2+z
11 3/4+x,1/4-y,3/4+z
12 3/4-x,1/4+y,3/4+z
13 1/2+x,1/2+y,z
14 1/2-x,1/2-y,z
15 3/4+x,3/4-y,1/4+z
16 3/4-x,3/4+y,1/4+z
_cell_length_a                   23.597(5)
_cell_length_b                   26.869(5)
_cell_length_c                   11.428(2)
_cell_angle_alpha                90
_cell_angle_beta                 90
_cell_angle_gamma                90
_cell_volume                     7245.67
loop_
_atom_site_label
_atom_site_type_symbol
_atom_site_fract_x
_atom_site_fract_y
_atom_site_fract_z
Cu1 Cu 0.173109(12) 0.006706(10) 0.50633(4)
O1 O 0.18210(9) 0.06486(7) 0.6089(2)
O2 O 0.27205(9) 0.04120(7) 0.6149(2)
O3 O 0.23980(10) 0.04199(7) 0.9027(2)
O4 O 0.33292(9) 0.05194(7) 0.9049(2)
O5 O 0.2500 0.2500 0.6487(3)
N1 N 0.15387(12) -0.03879(9) 0.6425(2)
N2 N 0.08832(12) -0.19649(9) 1.1194(2)
C1 C 0.17270(17) -0.02967(13) 0.7498(4)
H1 H 0.1950 -0.0016 0.7614
C2 C 0.1610(2) -0.05942(14) 0.8447(4)
H2 H 0.1761 -0.0520 0.9178
C3 C 0.12626(14) -0.10090(11) 0.8299(3)
C4 C 0.10670(14) -0.11046(11) 0.7190(3)
H3 H 0.0834 -0.1377 0.7054
C5 C 0.12185(13) -0.07928(10) 0.6272(3)
H4 H 0.1092 -0.0869 0.5522
C6 C 0.10674(13) -0.14984(10) 1.1370(3)
H5 H 0.1116 -0.1385 1.2132
C7 C 0.11863(14) -0.11815(11) 1.0449(3)
H6 H 0.1312 -0.0860 1.0602
C8 C 0.11203(14) -0.13377(11) 0.9304(3)
C9 C 0.0922(2) -0.18139(13) 0.9135(3)
H7 H 0.0862 -0.1933 0.8381
C10 C 0.08144(18) -0.21137(12) 1.0088(4)
H8 H 0.0687 -0.2436 0.9954
C11 C 0.23873(12) 0.16339(9) 0.6543(3)
H9 H 0.2191 0.1657 0.5839
C12 C 0.24873(11) 0.11715(9) 0.7060(3)
C13 C 0.27696(12) 0.11433(9) 0.8137(3)
C14 C 0.29648(12) 0.15773(9) 0.8658(3)
H10 H 0.3158 0.1560 0.9366
C15 C 0.28759(13) 0.20362(10) 0.8138(3)
H11 H 0.3011 0.2325 0.8488
C16 C 0.25858(13) 0.20585(9) 0.7099(3)
C17 C 0.23387(13) 0.07069(8) 0.6388(2)
C18 C 0.28260(13) 0.06559(9) 0.8775(3)
Cu1M Cu 0.326891(12) 0.493294(10) 0.50633(4)
Cu1I Cu 0.326891(12) -0.006706(10) 1.00633(4)
Cu1G Cu 0.076891(12) -0.243294(10) 1.25633(4)
Cu1D Cu 0.173109(12) 0.506706(10) 1.00633(4)
Cu1C Cu 0.076891(12) 0.256706(10) -0.24367(4)
O1M O 0.31790(9) 0.43514(7) 0.6089(2)
O2M O 0.22795(9) 0.45880(7) 0.6149(2)
O3M O 0.26020(10) 0.45801(7) 0.9027(2)
O4M O 0.16708(9) 0.44806(7) 0.9049(2)
O4I O 0.16708(9) -0.05194(7) 0.4049(2)
O4D O 0.33292(9) 0.55194(7) 0.4049(2)
N1C N 0.09613(12) 0.21121(9) -0.1075(2)
N1M N 0.34613(12) 0.53879(9) 0.6425(2)
N2C N 0.16168(12) 0.05351(9) 0.3694(2)
N2B N 0.33832(12) 0.44649(9) 0.3694(2)
C1C C 0.07730(17) 0.22033(13) -0.0002(4)
H1C H 0.0550 0.2484 0.0114
C2C C 0.0890(2) 0.19058(14) 0.0947(4)
H2C H 0.0739 0.1980 0.1678
C3C C 0.12374(14) 0.14910(11) 0.0799(3)
C4C C 0.14330(14) 0.13954(11) -0.0310(3)
H3C H 0.1666 0.1123 -0.0446
C5C C 0.12815(13) 0.17072(10) -0.1228(3)
H4C H 0.1408 0.1631 -0.1978
C6C C 0.14326(13) 0.10016(10) 0.3870(3)
H5C H 0.1384 0.1115 0.4632
C7C C 0.13137(14) 0.13185(11) 0.2949(3)
H6C H 0.1188 0.1640 0.3102
C8C C 0.13797(14) 0.11623(11) 0.1804(3)
C9C C 0.1578(2) 0.06861(13) 0.1635(3)
H7C H 0.1638 0.0567 0.0881
C10C C 0.16856(18) 0.03863(12) 0.2588(4)
H8C H 0.1813 0.0064 0.2454
C11M C 0.26127(12) 0.33661(9) 0.6543(3)
H9M H 0.2809 0.3343 0.5839
C12M C 0.25127(11) 0.38285(9) 0.7060(3)
C13M C 0.22304(12) 0.38567(9) 0.8137(3)
C14M C 0.20352(12) 0.34227(9) 0.8658(3)
H10M H 0.1842 0.3440 0.9366
C15M C 0.21241(13) 0.29638(10) 0.8138(3)
H11M H 0.1989 0.2675 0.8488
C16M C 0.24142(13) 0.29415(9) 0.7099(3)
C17M C 0.26613(13) 0.42931(8) 0.6388(2)
C18M C 0.21740(13) 0.43441(9) 0.8775(3)
loop_
_geom_bond_atom_site_label_1
_geom_bond_atom_site_label_2
_geom_bond_site_symmetry_1
_geom_bond_site_symmetry_2
Cu1 O1 1_555 1_555
O1 C17 1_555 1_555
O2 C17 1_555 1_555
O3 C18 1_555 1_555
O4 C18 1_555 1_555
O5 C16 1_555 1_555
N1 Cu1 1_555 1_555
N2 C6 1_555 1_555
C1 N1 1_555 1_555
H1 C1 1_555 1_555
C2 C1 1_555 1_555
H2 C2 1_555 1_555
C3 C2 1_555 1_555
C4 C3 1_555 1_555
H3 C4 1_555 1_555
C5 N1 1_555 1_555
H4 C5 1_555 1_555
C6 H5 1_555 1_555
C7 C6 1_555 1_555
H6 C7 1_555 1_555
C8 C3 1_555 1_555
C9 C8 1_555 1_555
H7 C9 1_555 1_555
C10 N2 1_555 1_555
H8 C10 1_555 1_555
C11 H9 1_555 1_555
C12 C11 1_555 1_555
C13 C12 1_555 1_555
C14 C13 1_555 1_555
H10 C14 1_555 1_555
C15 C14 1_555 1_555
H11 C15 1_555 1_555
C16 C11 1_555 1_555
C17 C12 1_555 1_555
C18 C13 1_555 1_555
Cu1M O1M 1_555 1_555
Cu1I O4 1_555 1_555
Cu1G N2 1_555 1_555
Cu1D O4M 1_555 1_555
Cu1C N1C 1_555 1_555
O1M C17M 1_555 1_555
O2M C17M 1_555 1_555
O3M C18M 1_555 1_555
O4M C18M 1_555 1_555
O4I Cu1 1_555 1_555
O4D Cu1M 1_555 1_555
N1C C1C 1_555 1_555
N1M Cu1M 1_555 1_555
N2C Cu1 1_555 1_555
N2B Cu1M 1_555 1_555
C1C H1C 1_555 1_555
C2C C1C 1_555 1_555
H2C C2C 1_555 1_555
C3C C2C 1_555 1_555
C4C C3C 1_555 1_555
H3C C4C 1_555 1_555
C5C N1C 1_555 1_555
H4C C5C 1_555 1_555
C6C N2C 1_555 1_555
H5C C6C 1_555 1_555
C7C C6C 1_555 1_555
H6C C7C 1_555 1_555
C8C C3C 1_555 1_555
C9C C8C 1_555 1_555
H7C C9C 1_555 1_555
C10C N2C 1_555 1_555
H8C C10C 1_555 1_555
C11M H9M 1_555 1_555
C12M C11M 1_555 1_555
C13M C12M 1_555 1_555
C14M C13M 1_555 1_555
H10M C14M 1_555 1_555
C15M C14M 1_555 1_555
H11M C15M 1_555 1_555
C16M O5 1_555 1_555
C17M C12M 1_555 1_555
C18M C13M 1_555 1_555
C4 C5 1_555 1_555
C7 C8 1_555 1_555
C9 C10 1_555 1_555
C15 C16 1_555 1_555
C4C C5C 1_555 1_555
C7C C8C 1_555 1_555
C9C C10C 1_555 1_555
C11M C16M 1_555 1_555
C15M C16M 1_555 1_555

#END
