
#######################################################################
#
#                 Cambridge Crystallographic Data Centre
#                                CCDC 
#
#######################################################################
#
# If this CIF has been generated from an entry in the Cambridge 
# Structural Database, then it will include bibliographic, chemical, 
# crystal, experimental, refinement or atomic coordinate data resulting 
# from the CCDC's data processing and validation procedures.
#
#######################################################################

data_WUGMOA
_symmetry_cell_setting           monoclinic
_symmetry_space_group_name_H-M   'C 2/c'
_symmetry_Int_Tables_number      15
_space_group_name_Hall           '-C 2yn'
loop_
_symmetry_equiv_pos_site_id
_symmetry_equiv_pos_as_xyz
1 x,y,z
2 1/2+x,1/2+y,z
3 x,-y,1/2+z
4 1/2+x,1/2-y,1/2+z
5 -x,-y,-z
6 1/2-x,1/2-y,-z
7 -x,y,1/2-z
8 1/2-x,1/2+y,1/2-z
_cell_length_a                   22.876(2)
_cell_length_b                   7.0102(5)
_cell_length_c                   16.8656(13)
_cell_angle_alpha                90
_cell_angle_beta                 116.449(2)
_cell_angle_gamma                90
_cell_volume                     2421.56
loop_
_atom_site_label
_atom_site_type_symbol
_atom_site_fract_x
_atom_site_fract_y
_atom_site_fract_z
Ag1 Ag 0.0000 0.92082(5) 0.2500
Ag2 Ag 0.0000 1.36279(4) 0.2500
Ag3 Ag 0.071198(12) 0.64237(3) 0.497737(16)
S1 S 0.08055(3) 0.92489(10) 0.40672(4)
C1 C 0.07620(15) 1.1378(4) 0.4630(2)
H1 H 0.0347 1.1380 0.4682
H2 H 0.1126 1.1380 0.5237
S2 S 0.08054(3) 1.35014(9) 0.40644(5)
C2 C 0.16106(15) 1.3199(5) 0.4126(2)
H3 H 0.1707 1.4300 0.3836
H4 H 0.1938 1.3193 0.4755
C3 C 0.16772(15) 1.1362(4) 0.3687(2)
H5 H 0.1340 1.1363 0.3062
H6 H 0.2109 1.1364 0.3683
C4 C 0.16119(14) 0.9532(4) 0.41227(19)
H7 H 0.1942 0.9531 0.4751
H8 H 0.1704 0.8431 0.3828
S3 S -0.09865(3) 0.63866(9) 0.31582(5)
O1 O -0.06565(12) 0.6442(3) 0.25791(15)
O2 O -0.05092(11) 0.5994(3) 0.40805(14)
O3 O -0.14758(10) 0.4826(3) 0.28525(13)
O4 O -0.13147(12) 0.8215(3) 0.31047(16)
O5 O 0.07277(13) 0.8344(4) 0.62687(18)
H9 H 0.100(2) 0.742(7) 0.665(3)
H10 H 0.086(3) 0.930(8) 0.639(4)
O7 O 0.19664(12) 0.6321(3) 0.59505(18)
S1F S -0.08055(3) 0.92489(10) 0.09328(4)
C1F C -0.07620(15) 1.1378(4) 0.0370(2)
H1F H -0.0347 1.1380 0.0318
H2F H -0.1126 1.1380 -0.0237
S2F S -0.08054(3) 1.35014(9) 0.09356(5)
C2F C -0.16106(15) 1.3199(5) 0.0874(2)
H3F H -0.1707 1.4300 0.1164
H4F H -0.1938 1.3193 0.0245
C3F C -0.16772(15) 1.1362(4) 0.1313(2)
H5F H -0.1340 1.1363 0.1938
H6F H -0.2109 1.1364 0.1317
C4F C -0.16119(14) 0.9532(4) 0.08773(19)
H7F H -0.1942 0.9531 0.0249
H8F H -0.1704 0.8431 0.1172
S3F S 0.09865(3) 0.63866(9) 0.18418(5)
O1F O 0.06565(12) 0.6442(3) 0.24209(15)
O2F O 0.05092(11) 0.5994(3) 0.09195(14)
O3F O 0.14758(10) 0.4826(3) 0.21475(13)
O4F O 0.13147(12) 0.8215(3) 0.18953(16)
Ag3F Ag -0.071198(12) 0.64237(3) 0.002263(16)
O5F O -0.07277(13) 0.8344(4) -0.12687(18)
H9F H -0.100(2) 0.742(7) -0.165(3)
H10F H -0.086(3) 0.930(8) -0.139(4)
O7F O -0.19664(12) 0.6321(3) -0.09505(18)
O1_2 O -0.06565(12) 1.6442(3) 0.25791(15)
O1F_2 O 0.06565(12) 1.6442(3) 0.24209(15)
S2_2 S 0.08054(3) 0.35014(9) 0.40644(5)
O2D O 0.05092(11) 0.4006(3) 0.59195(14)
Ag3_2 Ag 0.071198(12) 1.64237(3) 0.497737(16)
Ag2_2 Ag 0.0000 0.36279(4) 0.2500
Ag3D Ag -0.071198(12) 0.35763(3) 0.502263(16)
Ag3F_2 Ag -0.071198(12) 1.64237(3) 0.002263(16)
Ag3B Ag 0.071198(12) 0.35763(3) -0.002263(16)
S2F_2 S -0.08054(3) 0.35014(9) 0.09356(5)
O2B O -0.05092(11) 0.4006(3) -0.09195(14)
O6 O -0.22625(11) 0.9849(4) 0.35133(16)
loop_
_geom_bond_atom_site_label_1
_geom_bond_atom_site_label_2
_geom_bond_site_symmetry_1
_geom_bond_site_symmetry_2
Ag1 S1 1_555 1_555
Ag2 S2 1_555 1_555
Ag3 S1 1_555 1_555
S1 C1 1_555 1_555
C1 H1 1_555 1_555
H2 C1 1_555 1_555
S2 C1 1_555 1_555
C2 S2 1_555 1_555
H3 C2 1_555 1_555
H4 C2 1_555 1_555
C3 C2 1_555 1_555
H5 C3 1_555 1_555
H6 C3 1_555 1_555
C4 S1 1_555 1_555
H7 C4 1_555 1_555
H8 C4 1_555 1_555
S3 O1 1_555 1_555
O1 Ag1 1_555 1_555
O2 Ag3 1_555 1_555
O3 S3 1_555 1_555
O4 S3 1_555 1_555
O5 Ag3 1_555 1_555
H9 O5 1_555 1_555
H10 O5 1_555 1_555
O7 Ag3 1_555 1_555
S1F Ag1 1_555 1_555
C1F S1F 1_555 1_555
H1F C1F 1_555 1_555
H2F C1F 1_555 1_555
S2F Ag2 1_555 1_555
C2F S2F 1_555 1_555
H3F C2F 1_555 1_555
H4F C2F 1_555 1_555
C3F C2F 1_555 1_555
H5F C3F 1_555 1_555
H6F C3F 1_555 1_555
C4F S1F 1_555 1_555
H7F C4F 1_555 1_555
H8F C4F 1_555 1_555
S3F O1F 1_555 1_555
O1F Ag1 1_555 1_555
O2F S3F 1_555 1_555
O3F S3F 1_555 1_555
O4F S3F 1_555 1_555
Ag3F S1F 1_555 1_555
O5F Ag3F 1_555 1_555
H9F O5F 1_555 1_555
H10F O5F 1_555 1_555
O7F Ag3F 1_555 1_555
O1_2 Ag2 1_555 1_555
O1F_2 Ag2 1_555 1_555
S2_2 Ag3 1_555 1_555
O2D Ag3 1_555 1_555
Ag3_2 S2 1_555 1_555
Ag2_2 O1 1_555 1_555
Ag3D O2 1_555 1_555
Ag3F_2 S2F 1_555 1_555
Ag3B O2F 1_555 1_555
S2F_2 Ag3F 1_555 1_555
O2B Ag3F 1_555 1_555
C3 C4 1_555 1_555
S3 O2 1_555 1_555
C1F S2F 1_555 1_555
C3F C4F 1_555 1_555
O1F Ag2_2 1_555 1_555
O2F Ag3F 1_555 1_555
S2_2 Ag2_2 1_555 1_555
O2D Ag3D 1_555 1_555
Ag2_2 S2F_2 1_555 1_555
Ag3B O2B 1_555 1_555

#END
