
#######################################################################
#
#                 Cambridge Crystallographic Data Centre
#                                CCDC 
#
#######################################################################
#
# If this CIF has been generated from an entry in the Cambridge 
# Structural Database, then it will include bibliographic, chemical, 
# crystal, experimental, refinement or atomic coordinate data resulting 
# from the CCDC's data processing and validation procedures.
#
#######################################################################

data_WUGSUM01
_symmetry_cell_setting           tetragonal
_symmetry_space_group_name_H-M   'P -4 21 c'
_symmetry_Int_Tables_number      114
_space_group_name_Hall           'P -4 2n'
loop_
_symmetry_equiv_pos_site_id
_symmetry_equiv_pos_as_xyz
1 x,y,z
2 -x,-y,z
3 y,-x,-z
4 -y,x,-z
5 1/2-x,1/2+y,1/2-z
6 1/2+x,1/2-y,1/2-z
7 1/2-y,1/2-x,1/2+z
8 1/2+y,1/2+x,1/2+z
_cell_length_a                   12.6075(4)
_cell_length_b                   12.6075(4)
_cell_length_c                   9.1944(4)
_cell_angle_alpha                90
_cell_angle_beta                 90
_cell_angle_gamma                90
_cell_volume                     1461.44
loop_
_atom_site_label
_atom_site_type_symbol
_atom_site_fract_x
_atom_site_fract_y
_atom_site_fract_z
Cu1 Cu 0.10489(3) 0.24928(4) 0.02723(5)
C1 C -0.0567(6) 0.4184(5) 0.0249(15)
H1 H -0.1041 0.3619 0.0247
C2 C -0.0972(5) 0.5202(5) 0.0262(17)
H2 H -0.1705 0.5286 0.0289
C3 C -0.0508(3) 0.1684(3) -0.1545(4)
C4 C -0.0970(4) 0.1306(3) -0.2973(5)
H3 H -0.0535 0.1579 -0.3759
H4 H -0.0925 0.0538 -0.3003
C5 C -0.2106(3) 0.1626(3) -0.3247(5)
N1 N 0.0406(3) 0.3982(3) 0.0239(4)
O1 O 0.0383(2) 0.2130(2) -0.1583(3)
O2 O -0.2349(2) 0.1979(2) -0.4469(3)
O3 O -0.1020(2) 0.1559(2) -0.0374(3)
O4 O -0.2780(2) 0.1503(2) -0.2235(3)
N1A N -0.0406(3) 0.6018(3) 0.0239(4)
C1A C 0.0567(6) 0.5816(5) 0.0249(15)
H1A H 0.1041 0.6381 0.0247
C2A C 0.0972(5) 0.4798(5) 0.0262(17)
H2A H 0.1705 0.4714 0.0289
C3E C 0.4492(3) 0.3316(3) -0.3455(4)
C4E C 0.4030(4) 0.3694(3) -0.2027(5)
H3E H 0.4465 0.3421 -0.1241
H4E H 0.4075 0.4462 -0.1997
C5E C 0.2894(3) 0.3374(3) -0.1753(5)
O1E O 0.5383(2) 0.2870(2) -0.3417(3)
O2E O 0.2651(2) 0.3021(2) -0.0531(3)
O3E O 0.3980(2) 0.3441(2) -0.4626(3)
O4E O 0.2220(2) 0.3497(2) -0.2765(3)
Cu1A Cu -0.10489(3) 0.75072(4) 0.02723(5)
O3B O 0.1559(2) 0.1020(2) 0.0374(3)
O4B O 0.1503(2) 0.2780(2) 0.2235(3)
Cu1E Cu -0.39511(3) 0.25072(4) -0.52723(5)
Cu1C Cu -0.24928(4) 0.10489(3) -0.02723(5)
Cu1E_2 Cu 0.60489(3) 0.25072(4) -0.52723(5)
Cu1F Cu 0.25072(4) 0.39511(3) -0.47277(5)
O1A O -0.0383(2) 0.7870(2) -0.1583(3)
O2D O -0.2651(2) 0.6979(2) -0.0531(3)
O3C O -0.1559(2) 0.8980(2) 0.0374(3)
O4C O -0.1503(2) 0.7220(2) 0.2235(3)
O5 O -0.0989(3) 0.2231(4) 0.3106(5)
loop_
_geom_bond_atom_site_label_1
_geom_bond_atom_site_label_2
_geom_bond_site_symmetry_1
_geom_bond_site_symmetry_2
Cu1 N1 1_555 1_555
C1 H1 1_555 1_555
C2 C1 1_555 1_555
H2 C2 1_555 1_555
C3 C4 1_555 1_555
C4 H3 1_555 1_555
H4 C4 1_555 1_555
C5 C4 1_555 1_555
N1 C1 1_555 1_555
O1 Cu1 1_555 1_555
O2 C5 1_555 1_555
O3 C3 1_555 1_555
O4 C5 1_555 1_555
N1A C2 1_555 1_555
C1A N1A 1_555 1_555
H1A C1A 1_555 1_555
C2A N1 1_555 1_555
H2A C2A 1_555 1_555
C3E C4E 1_555 1_555
C4E H3E 1_555 1_555
H4E C4E 1_555 1_555
C5E C4E 1_555 1_555
O1E C3E 1_555 1_555
O2E Cu1 1_555 1_555
O3E C3E 1_555 1_555
O4E C5E 1_555 1_555
Cu1A N1A 1_555 1_555
O3B Cu1 1_555 1_555
O4B Cu1 1_555 1_555
Cu1E O2 1_555 1_555
Cu1C O3 1_555 1_555
Cu1E_2 O1E 1_555 1_555
Cu1F O3E 1_555 1_555
O1A Cu1A 1_555 1_555
O2D Cu1A 1_555 1_555
O3C Cu1A 1_555 1_555
O4C Cu1A 1_555 1_555
C3 O1 1_555 1_555
O4 Cu1C 1_555 1_555
C1A C2A 1_555 1_555
C5E O2E 1_555 1_555
O4E Cu1F 1_555 1_555

#END
