
#######################################################################
#
#                 Cambridge Crystallographic Data Centre
#                                CCDC 
#
#######################################################################
#
# If this CIF has been generated from an entry in the Cambridge 
# Structural Database, then it will include bibliographic, chemical, 
# crystal, experimental, refinement or atomic coordinate data resulting 
# from the CCDC's data processing and validation procedures.
#
#######################################################################

data_WUGSUM
_symmetry_cell_setting           tetragonal
_symmetry_space_group_name_H-M   'P -4 21 c'
_symmetry_Int_Tables_number      114
_space_group_name_Hall           'P -4 2n'
loop_
_symmetry_equiv_pos_site_id
_symmetry_equiv_pos_as_xyz
1 x,y,z
2 -x,-y,z
3 y,-x,-z
4 -y,x,-z
5 1/2-x,1/2+y,1/2-z
6 1/2+x,1/2-y,1/2-z
7 1/2-y,1/2-x,1/2+z
8 1/2+y,1/2+x,1/2+z
_cell_length_a                   12.590(2)
_cell_length_b                   12.590(2)
_cell_length_c                   9.188(2)
_cell_angle_alpha                90
_cell_angle_beta                 90
_cell_angle_gamma                90
_cell_volume                     1456.37
loop_
_atom_site_label
_atom_site_type_symbol
_atom_site_fract_x
_atom_site_fract_y
_atom_site_fract_z
Cu1 Cu 0.60493(3) 0.25070(3) 0.02721(5)
C1 C 0.6688(3) 0.4482(3) 0.1551(4)
C2 C 0.6305(4) 0.4037(3) 0.2978(5)
C3 C 0.6629(3) 0.2888(3) 0.3242(4)
C4 C 0.5967(5) 0.0210(5) 0.032(2)
H1 H 0.6694 0.0295 0.0460
C5 C 0.5561(5) -0.0824(5) 0.0221(19)
H2 H 0.6036 -0.1386 0.0135
N1 N 0.5405(3) 0.1022(3) 0.0239(4)
O1 O 0.6559(2) 0.3980(2) 0.0372(3)
O2 O 0.7125(2) 0.5382(2) 0.1582(3)
O3 O 0.6510(2) 0.2221(2) 0.2237(3)
O4 O 0.6978(3) 0.2653(2) 0.4471(3)
H3 H 0.545(5) 0.395(5) 0.293(7)
H6 H 0.646(5) 0.437(5) 0.356(8)
N1A N 0.4595(3) -0.1022(3) 0.0239(4)
C4A C 0.4033(5) -0.0210(5) 0.032(2)
H1A H 0.3306 -0.0295 0.0460
C5A C 0.4439(5) 0.0824(5) 0.0221(19)
H2A H 0.3964 0.1386 0.0135
C1B C 0.4482(3) 0.3312(3) -0.1551(4)
C2B C 0.4037(3) 0.3695(4) -0.2978(5)
C3B C 0.2888(3) 0.3371(3) -0.3242(4)
O1B O 0.3980(2) 0.3441(2) -0.0372(3)
O2B O 0.5382(2) 0.2875(2) -0.1582(3)
O3B O 0.2221(2) 0.3490(2) -0.2237(3)
O4B O 0.2653(2) 0.3022(3) -0.4471(3)
H3B H 0.395(5) 0.455(5) -0.293(7)
H6B H 0.437(5) 0.354(5) -0.356(8)
Cu1A Cu 0.39507(3) -0.25070(3) 0.02721(5)
O4G O 0.7653(2) 0.1978(3) -0.0529(3)
Cu1C Cu 0.74930(3) 0.60493(3) -0.02721(5)
Cu1G Cu 0.75070(3) 0.10493(3) 0.52721(5)
Cu1B Cu 0.25070(3) 0.39507(3) -0.02721(5)
Cu1E Cu 0.10493(3) 0.24930(3) -0.52721(5)
O1A O 0.3441(2) -0.3980(2) 0.0372(3)
O2C O 0.4618(2) -0.2875(2) -0.1582(3)
O3A O 0.3490(2) -0.2221(2) 0.2237(3)
O4F O 0.2347(2) -0.1978(3) -0.0529(3)
O5 O 0.7221(5) 0.4014(4) 0.6892(6)
H4 H 0.721(14) 0.342(11) 0.615(17)
H5 H 0.794(5) 0.380(9) 0.722(16)
loop_
_geom_bond_atom_site_label_1
_geom_bond_atom_site_label_2
_geom_bond_site_symmetry_1
_geom_bond_site_symmetry_2
Cu1 N1 1_555 1_555
C1 C2 1_555 1_555
C2 C3 1_555 1_555
C3 O3 1_555 1_555
C4 H1 1_555 1_555
C5 C4 1_555 1_555
H2 C5 1_555 1_555
N1 C4 1_555 1_555
O1 Cu1 1_555 1_555
O2 C1 1_555 1_555
O3 Cu1 1_555 1_555
O4 C3 1_555 1_555
O5 H4 1_555 1_555
H3 C2 1_555 1_555
H5 O5 1_555 1_555
H6 C2 1_555 1_555
N1A C5 1_555 1_555
C4A N1A 1_555 1_555
H1A C4A 1_555 1_555
C5A N1 1_555 1_555
H2A C5A 1_555 1_555
C1B C2B 1_555 1_555
C2B C3B 1_555 1_555
C3B O3B 1_555 1_555
O1B C1B 1_555 1_555
O2B Cu1 1_555 1_555
O3B Cu1B 1_555 1_555
O4B C3B 1_555 1_555
H3B C2B 1_555 1_555
H6B C2B 1_555 1_555
Cu1A N1A 1_555 1_555
O4G Cu1 1_555 1_555
Cu1C O2 1_555 1_555
Cu1G O4 1_555 1_555
Cu1B O1B 1_555 1_555
Cu1E O4B 1_555 1_555
O1A Cu1A 1_555 1_555
O2C Cu1A 1_555 1_555
O3A Cu1A 1_555 1_555
O4F Cu1A 1_555 1_555
C1 O1 1_555 1_555
C4A C5A 1_555 1_555
C1B O2B 1_555 1_555

#END
