
#######################################################################
#
#                 Cambridge Crystallographic Data Centre
#                                CCDC 
#
#######################################################################
#
# If this CIF has been generated from an entry in the Cambridge 
# Structural Database, then it will include bibliographic, chemical, 
# crystal, experimental, refinement or atomic coordinate data resulting 
# from the CCDC's data processing and validation procedures.
#
#######################################################################

data_WUGSUM02
_symmetry_cell_setting           tetragonal
_symmetry_space_group_name_H-M   'P -4 21 c'
_symmetry_Int_Tables_number      114
_space_group_name_Hall           'P -4 2n'
loop_
_symmetry_equiv_pos_site_id
_symmetry_equiv_pos_as_xyz
1 x,y,z
2 -x,-y,z
3 y,-x,-z
4 -y,x,-z
5 1/2-x,1/2+y,1/2-z
6 1/2+x,1/2-y,1/2-z
7 1/2-y,1/2-x,1/2+z
8 1/2+y,1/2+x,1/2+z
_cell_length_a                   12.5982(18)
_cell_length_b                   12.5982(18)
_cell_length_c                   9.1950(18)
_cell_angle_alpha                90
_cell_angle_beta                 90
_cell_angle_gamma                90
_cell_volume                     1459.38
loop_
_atom_site_label
_atom_site_type_symbol
_atom_site_fract_x
_atom_site_fract_y
_atom_site_fract_z
Cu1 Cu 0.24938(4) 0.10497(5) -1.02737(7)
O1 O 0.3445(3) 0.3986(3) -0.5375(4)
O2 O 0.2880(3) 0.5378(3) -0.6580(4)
O3 O 0.3018(3) 0.2653(3) -0.9468(4)
O4 O 0.2782(3) 0.1519(3) -1.2240(4)
N1 N 0.6025(3) -0.0421(4) -1.0240(5)
C1 C 0.3320(4) 0.4487(4) -0.6557(6)
C2 C 0.3701(5) 0.4030(4) -0.7962(6)
H1 H 0.4470 0.4067 -0.7982
H2 H 0.3437 0.4467 -0.8752
C3 C 0.3367(4) 0.2894(4) -0.8230(6)
C4 C 0.5801(6) 0.0533(5) -1.019(2)
H3 H 0.6355 0.1011 -1.0052
C5 C 0.4784(6) 0.0947(5) -1.0334(18)
H4 H 0.5284 -0.1670 -1.0512
Cu1D Cu 0.25062(4) 0.60497(5) -0.47263(7)
Cu1F Cu 0.39503(5) 0.25062(4) -0.52737(7)
Cu1C Cu -0.10497(5) 0.24938(4) -0.97263(7)
O2F O -0.0378(3) 0.2120(3) -1.1580(4)
O1F O 0.1014(3) 0.1555(3) -1.0375(4)
O2D O 0.2120(3) 0.0378(3) -0.8420(4)
C3F C 0.2106(4) 0.1633(4) -1.3230(6)
O3F O 0.2347(3) 0.1982(3) -1.4468(4)
Cu1F_2 Cu 0.39503(5) 0.25062(4) -1.52737(7)
O4A O 0.7218(3) -0.1519(3) -1.2240(4)
Cu1A Cu 0.75062(4) -0.10497(5) -1.02737(7)
O1G O 0.8986(3) -0.1555(3) -1.0375(4)
O2E O 0.7880(3) -0.0378(3) -0.8420(4)
O3A O 0.6982(3) -0.2653(3) -0.9468(4)
N1A N 0.3975(3) 0.0421(4) -1.0240(5)
C4A C 0.4199(6) -0.0533(5) -1.019(2)
H3A H 0.3645 -0.1011 -1.0052
C5A C 0.5216(6) -0.0947(5) -1.0334(18)
H4A H 0.4716 0.1670 -1.0512
C2F C 0.0970(4) 0.1299(5) -1.2962(6)
C1F C 0.0513(4) 0.1680(4) -1.1557(6)
H1F H 0.0933 0.0530 -1.2982
H2F H 0.0533 0.1563 -1.3752
O4F O 0.3481(3) 0.2218(3) -0.7240(4)
O5 O 0.4025(4) 0.7220(6) 0.1895(7)
H5 H 0.361(7) 0.692(7) 0.241(10)
H6 H 0.370(6) 0.746(8) 0.158(10)
loop_
_geom_bond_atom_site_label_1
_geom_bond_atom_site_label_2
_geom_bond_site_symmetry_1
_geom_bond_site_symmetry_2
Cu1 O3 1_555 1_555
O1 C1 1_555 1_555
O2 C1 1_555 1_555
O3 C3 1_555 1_555
O4 Cu1 1_555 1_555
N1 C4 1_555 1_555
C1 C2 1_555 1_555
C2 H1 1_555 1_555
H2 C2 1_555 1_555
C3 C2 1_555 1_555
C4 H3 1_555 1_555
C5 C4 1_555 1_555
H4 C5A 1_555 1_555
O5 H5 1_555 1_555
H6 O5 1_555 1_555
Cu1D O2 1_555 1_555
Cu1F O1 1_555 1_555
Cu1C O2F 1_555 1_555
O2F C1F 1_555 1_555
O1F Cu1 1_555 1_555
O2D Cu1 1_555 1_555
C3F O4 1_555 1_555
O3F C3F 1_555 1_555
Cu1F_2 O3F 1_555 1_555
O4A Cu1A 1_555 1_555
Cu1A N1 1_555 1_555
O1G Cu1A 1_555 1_555
O2E Cu1A 1_555 1_555
O3A Cu1A 1_555 1_555
N1A Cu1 1_555 1_555
C4A N1A 1_555 1_555
H3A C4A 1_555 1_555
C5A N1 1_555 1_555
H4A C5 1_555 1_555
C2F C3F 1_555 1_555
C1F O1F 1_555 1_555
H1F C2F 1_555 1_555
H2F C2F 1_555 1_555
O4F C3 1_555 1_555
C5 N1A 1_555 1_555
Cu1F O4F 1_555 1_555
C4A C5A 1_555 1_555
C2F C1F 1_555 1_555

#END
