
#######################################################################
#
#                 Cambridge Crystallographic Data Centre
#                                CCDC 
#
#######################################################################
#
# If this CIF has been generated from an entry in the Cambridge 
# Structural Database, then it will include bibliographic, chemical, 
# crystal, experimental, refinement or atomic coordinate data resulting 
# from the CCDC's data processing and validation procedures.
#
#######################################################################

data_WUGYUT
_symmetry_cell_setting           orthorhombic
_symmetry_space_group_name_H-M   'P c c n'
_symmetry_Int_Tables_number      56
_space_group_name_Hall           '-P 2ab 2ac'
loop_
_symmetry_equiv_pos_site_id
_symmetry_equiv_pos_as_xyz
1 x,y,z
2 1/2-x,1/2-y,z
3 -x,1/2+y,1/2-z
4 1/2+x,-y,1/2-z
5 -x,-y,-z
6 1/2+x,1/2+y,-z
7 x,1/2-y,1/2+z
8 1/2-x,y,1/2+z
_cell_length_a                   18.0985(6)
_cell_length_b                   8.5739(3)
_cell_length_c                   8.8648(3)
_cell_angle_alpha                90
_cell_angle_beta                 90
_cell_angle_gamma                90
_cell_volume                     1375.59
loop_
_atom_site_label
_atom_site_type_symbol
_atom_site_fract_x
_atom_site_fract_y
_atom_site_fract_z
Pb1 Pb 0.2500 0.2500 0.04458(2)
O1 O 0.2861(2) 0.3972(4) -0.1821(3)
O2 O 0.3748(2) 0.1229(4) -0.0326(4)
O3 O 0.30291(16) 0.5595(3) 0.0073(3)
O4 O 0.4377(3) 0.3334(7) 0.0162(8)
O5 O 0.4815(2) 0.1556(4) -0.1243(4)
C1 C 0.3095(2) 0.5248(4) -0.1294(4)
C2 C 0.3767(3) 0.7800(5) -0.1635(6)
H1 H 0.3368 0.8352 -0.1137
H2 H 0.4128 0.7508 -0.0876
C3 C 0.3464(2) 0.6337(4) -0.2387(5)
H3 H 0.3111 0.6639 -0.3155
H4 H 0.3866 0.5792 -0.2883
N1 N 0.41214(19) 0.8845(3) -0.2766(3)
H5 H 0.4285 0.9702 -0.2309
H6 H 0.3792 0.9106 -0.3467
H7 H 0.4499 0.8351 -0.3198
N2 N 0.4310(3) 0.2074(7) -0.0444(5)
Pb1F Pb 0.2500 0.2500 -0.45542(2)
O1A O 0.2139(2) 0.1028(4) -0.1821(3)
O1F O 0.2861(2) 0.1028(4) 0.3179(3)
O1G O 0.2139(2) 0.3972(4) 0.3179(3)
O2A O 0.1252(2) 0.3771(4) -0.0326(4)
O3A O 0.19709(16) -0.0595(3) 0.0073(3)
O4A O 0.0623(3) 0.1666(7) 0.0162(8)
O5A O 0.0185(2) 0.3444(4) -0.1243(4)
C1A C 0.1905(2) -0.0248(4) -0.1294(4)
C2A C 0.1233(3) -0.2800(5) -0.1635(6)
H1A H 0.1632 -0.3352 -0.1137
H2A H 0.0872 -0.2508 -0.0876
C3A C 0.1536(2) -0.1337(4) -0.2387(5)
H3A H 0.1889 -0.1639 -0.3155
H4A H 0.1134 -0.0792 -0.2883
N1A N 0.08786(19) -0.3845(3) -0.2766(3)
H5A H 0.0715 -0.4702 -0.2309
H6A H 0.1208 -0.4106 -0.3467
H7A H 0.0501 -0.3351 -0.3198
N2A N 0.0690(3) 0.2926(7) -0.0444(5)
loop_
_geom_bond_atom_site_label_1
_geom_bond_atom_site_label_2
_geom_bond_site_symmetry_1
_geom_bond_site_symmetry_2
Pb1 O1 1_555 1_555
O1 C1 1_555 1_555
O2 Pb1 1_555 1_555
O3 Pb1 1_555 1_555
O4 N2 1_555 1_555
O5 N2 1_555 1_555
C1 O3 1_555 1_555
C2 H1 1_555 1_555
H2 C2 1_555 1_555
C3 C1 1_555 1_555
H3 C3 1_555 1_555
H4 C3 1_555 1_555
N1 C2 1_555 1_555
H5 N1 1_555 1_555
H6 N1 1_555 1_555
H7 N1 1_555 1_555
N2 O2 1_555 1_555
Pb1F O1 1_555 1_555
O1A Pb1 1_555 1_555
O1F Pb1 1_555 1_555
O1G Pb1 1_555 1_555
O2A Pb1 1_555 1_555
O3A Pb1 1_555 1_555
O4A N2A 1_555 1_555
O5A N2A 1_555 1_555
C1A O1A 1_555 1_555
C2A H1A 1_555 1_555
H2A C2A 1_555 1_555
C3A C1A 1_555 1_555
H3A C3A 1_555 1_555
H4A C3A 1_555 1_555
N1A C2A 1_555 1_555
H5A N1A 1_555 1_555
H6A N1A 1_555 1_555
H7A N1A 1_555 1_555
N2A O2A 1_555 1_555
C2 C3 1_555 1_555
Pb1F O1A 1_555 1_555
O3A C1A 1_555 1_555
C2A C3A 1_555 1_555

#END
