
#######################################################################
#
#                 Cambridge Crystallographic Data Centre
#                                CCDC 
#
#######################################################################
#
# If this CIF has been generated from an entry in the Cambridge 
# Structural Database, then it will include bibliographic, chemical, 
# crystal, experimental, refinement or atomic coordinate data resulting 
# from the CCDC's data processing and validation procedures.
#
#######################################################################

data_WUGZUV
_symmetry_cell_setting           triclinic
_symmetry_space_group_name_H-M   'P -1'
_symmetry_Int_Tables_number      2
_space_group_name_Hall           '-P 1'
loop_
_symmetry_equiv_pos_site_id
_symmetry_equiv_pos_as_xyz
1 x,y,z
2 -x,-y,-z
_cell_length_a                   11.1182(8)
_cell_length_b                   11.2423(9)
_cell_length_c                   11.6976(9)
_cell_angle_alpha                65.310(2)
_cell_angle_beta                 74.889(2)
_cell_angle_gamma                72.067(2)
_cell_volume                     1249.08
loop_
_atom_site_label
_atom_site_type_symbol
_atom_site_fract_x
_atom_site_fract_y
_atom_site_fract_z
Zn1 Zn 0.76391(6) 0.97346(6) 0.45231(5)
S1 S 0.68466(13) 0.27267(14) 0.83280(13)
S2 S 0.57017(13) 0.40151(14) 0.70093(15)
O1 O 0.6733(3) 1.0392(4) 0.5899(3)
O2 O 0.8384(3) 0.8893(4) 0.6758(3)
C1 C 0.7276(5) 0.9065(5) 0.9200(5)
H1 H 0.8156 0.8633 0.9101
C2 C 0.6626(5) 0.9702(5) 0.8134(5)
C3 C 0.6645(5) 0.9064(6) 1.0377(5)
H2 H 0.7092 0.8649 1.1087
C4 C 0.7326(5) 0.9643(5) 0.6865(5)
C5 C 0.5325(5) 0.9684(5) 1.0528(5)
C6 C 0.5369(5) 1.0328(6) 0.8259(5)
H3 H 0.4948 1.0779 0.7531
N1 N 1.0538(4) 0.0879(4) 0.6277(4)
C7 C 0.9548(5) 0.1622(5) 0.5642(5)
H4 H 0.9642 0.1736 0.4774
C8 C 0.8409(5) 0.2223(5) 0.6182(5)
H5 H 0.7739 0.2752 0.5692
C9 C 1.0365(5) 0.0704(5) 0.7510(5)
H6 H 1.1053 0.0175 0.7977
C10 C 0.6282(5) 0.5507(5) 0.6355(5)
C11 C 0.5956(5) 0.7834(6) 0.5084(5)
H7 H 0.5433 0.8625 0.4575
C12 C 0.7787(5) 0.6767(5) 0.5989(5)
H8 H 0.8582 0.6797 0.6125
C13 C 0.5531(5) 0.6672(5) 0.5612(5)
H9 H 0.4731 0.6662 0.5471
C14 C 0.7427(5) 0.5572(5) 0.6548(5)
H10 H 0.7957 0.4795 0.7064
N2 N 0.7078(4) 0.7914(4) 0.5250(4)
O3 O 0.6592(3) 1.0765(4) 0.3124(3)
O4 O 0.7712(4) 1.2133(4) 0.3035(3)
C15 C 0.6125(7) 1.3009(6) 0.1654(5)
C16 C 0.6878(6) 1.1914(6) 0.2649(5)
C17 C 0.5529(6) 1.5217(6) 0.0003(6)
C18 C 0.6462(9) 1.4165(7) 0.0956(6)
H11 H 0.7215 1.4345 0.1027
C19 C 0.5000(7) 1.2763(8) 0.1497(6)
H12 H 0.4815 1.1909 0.2014
C20 C 0.8245(5) 0.2051(5) 0.7450(5)
C21 C 0.9253(5) 0.1247(6) 0.8132(5)
H13 H 0.9168 0.1081 0.9012
C22 C 0.5834(8) 1.6356(8) -0.0671(7)
H14 H 0.6571 1.6566 -0.0602
O1A O 0.3267(3) 0.9608(4) 1.4101(3)
O2A O 0.1616(3) 1.1107(4) 1.3242(3)
C1A C 0.2724(5) 1.0935(5) 1.0800(5)
H1A H 0.1844 1.1367 1.0899
C2A C 0.3374(5) 1.0298(5) 1.1866(5)
C3A C 0.3355(5) 1.0936(6) 0.9623(5)
H2A H 0.2908 1.1351 0.8913
C4A C 0.2674(5) 1.0357(5) 1.3135(5)
C5A C 0.4675(5) 1.0316(5) 0.9472(5)
C6A C 0.4631(5) 0.9672(6) 1.1741(5)
H3A H 0.5052 0.9221 1.2469
O3A O 0.3408(3) 1.9235(4) -0.3124(3)
O4A O 0.2288(4) 1.7867(4) -0.3035(3)
C15A C 0.3875(7) 1.6991(6) -0.1654(5)
C16A C 0.3122(6) 1.8086(6) -0.2649(5)
C17A C 0.4471(6) 1.4783(6) -0.0003(6)
C18A C 0.3538(9) 1.5835(7) -0.0956(6)
H11A H 0.2785 1.5655 -0.1027
C19A C 0.5000(7) 1.7237(8) -0.1497(6)
H12A H 0.5185 1.8091 -0.2014
C22A C 0.4166(8) 1.3644(8) 0.0671(7)
H14A H 0.3429 1.3434 0.0602
Zn1A Zn 0.23609(6) 1.02654(6) 1.54769(5)
S1A S 0.31534(13) 1.72733(14) 1.16720(13)
S2A S 0.42983(13) 1.59849(14) 1.29907(15)
N1A N -0.0538(4) 1.9121(4) 1.3723(4)
C7A C 0.0452(5) 1.8378(5) 1.4358(5)
H4A H 0.0358 1.8264 1.5226
C8A C 0.1591(5) 1.7777(5) 1.3818(5)
H5A H 0.2261 1.7248 1.4308
C9A C -0.0365(5) 1.9296(5) 1.2490(5)
H6A H -0.1053 1.9825 1.2023
C10A C 0.3718(5) 1.4493(5) 1.3645(5)
C11A C 0.4044(5) 1.2166(6) 1.4916(5)
H7A H 0.4567 1.1375 1.5425
C12A C 0.2213(5) 1.3233(5) 1.4011(5)
H8A H 0.1418 1.3203 1.3875
C13A C 0.4469(5) 1.3328(5) 1.4388(5)
H9A H 0.5269 1.3338 1.4529
C14A C 0.2573(5) 1.4428(5) 1.3452(5)
H10A H 0.2043 1.5205 1.2936
N2A N 0.2922(4) 1.2086(4) 1.4750(4)
C20A C 0.1755(5) 1.7949(5) 1.2550(5)
C21A C 0.0747(5) 1.8753(6) 1.1868(5)
H13A H 0.0832 1.8919 1.0988
Zn1_2 Zn -0.23609(6) 1.97346(6) 1.45231(5)
Zn1A_2 Zn 0.23609(6) 2.02654(6) -0.45231(5)
Zn1A_3 Zn 1.23609(6) 0.02654(6) 0.54769(5)
N1_2 N 0.0538(4) 1.0879(4) 1.6277(4)
N1A_2 N 0.9462(4) 0.9121(4) 0.3723(4)
O3A_2 O 0.3408(3) 0.9235(4) 1.6876(3)
O4A_2 O 0.2288(4) 0.7867(4) 1.6965(3)
loop_
_geom_bond_atom_site_label_1
_geom_bond_atom_site_label_2
_geom_bond_site_symmetry_1
_geom_bond_site_symmetry_2
Zn1 O1 1_555 1_555
S1 S2 1_555 1_555
S2 C10 1_555 1_555
O1 C4 1_555 1_555
O2 Zn1 1_555 1_555
C1 H1 1_555 1_555
C2 C1 1_555 1_555
C3 C1 1_555 1_555
H2 C3 1_555 1_555
C4 O2 1_555 1_555
C5 C3 1_555 1_555
C6 C2 1_555 1_555
H3 C6 1_555 1_555
N1 C7 1_555 1_555
C7 H4 1_555 1_555
C8 C7 1_555 1_555
H5 C8 1_555 1_555
C9 N1 1_555 1_555
H6 C9 1_555 1_555
C10 C13 1_555 1_555
C11 H7 1_555 1_555
C12 H8 1_555 1_555
C13 C11 1_555 1_555
H9 C13 1_555 1_555
C14 C10 1_555 1_555
H10 C14 1_555 1_555
N2 Zn1 1_555 1_555
O3 Zn1 1_555 1_555
O4 Zn1 1_555 1_555
C15 C16 1_555 1_555
C16 O3 1_555 1_555
C17 C18 1_555 1_555
C18 C15 1_555 1_555
H11 C18 1_555 1_555
C19 C15 1_555 1_555
H12 C19 1_555 1_555
C20 S1 1_555 1_555
C21 C9 1_555 1_555
H13 C21 1_555 1_555
C22 C17 1_555 1_555
H14 C22 1_555 1_555
O1A C4A 1_555 1_555
O2A C4A 1_555 1_555
C1A H1A 1_555 1_555
C2A C1A 1_555 1_555
C3A C1A 1_555 1_555
H2A C3A 1_555 1_555
C4A C2A 1_555 1_555
C5A C5 1_555 1_555
C6A C5 1_555 1_555
H3A C6A 1_555 1_555
O3A C16A 1_555 1_555
O4A C16A 1_555 1_555
C15A C16A 1_555 1_555
C17A C17 1_555 1_555
C18A C15A 1_555 1_555
H11A C18A 1_555 1_555
C19A C22 1_555 1_555
H12A C19A 1_555 1_555
C22A C19 1_555 1_555
H14A C22A 1_555 1_555
Zn1A O1A 1_555 1_555
S1A S2A 1_555 1_555
S2A C10A 1_555 1_555
N1A C7A 1_555 1_555
C7A H4A 1_555 1_555
C8A C7A 1_555 1_555
H5A C8A 1_555 1_555
C9A N1A 1_555 1_555
H6A C9A 1_555 1_555
C10A C13A 1_555 1_555
C11A H7A 1_555 1_555
C12A H8A 1_555 1_555
C13A C11A 1_555 1_555
H9A C13A 1_555 1_555
C14A C10A 1_555 1_555
H10A C14A 1_555 1_555
N2A Zn1A 1_555 1_555
C20A S1A 1_555 1_555
C21A C9A 1_555 1_555
H13A C21A 1_555 1_555
Zn1_2 N1A 1_555 1_555
Zn1A_2 O3A 1_555 1_555
Zn1A_3 N1 1_555 1_555
N1_2 Zn1A 1_555 1_555
N1A_2 Zn1 1_555 1_555
O3A_2 Zn1A 1_555 1_555
O4A_2 Zn1A 1_555 1_555
C2 C4 1_555 1_555
C6 C5A 1_555 1_555
C8 C20 1_555 1_555
C11 N2 1_555 1_555
C12 C14 1_555 1_555
C12 N2 1_555 1_555
O4 C16 1_555 1_555
C20 C21 1_555 1_555
O2A Zn1A 1_555 1_555
C2A C6A 1_555 1_555
C3A C5A 1_555 1_555
O4A Zn1A_2 1_555 1_555
C15A C19A 1_555 1_555
C17A C18A 1_555 1_555
C17A C22A 1_555 1_555
C8A C20A 1_555 1_555
C11A N2A 1_555 1_555
C12A C14A 1_555 1_555
C12A N2A 1_555 1_555
C20A C21A 1_555 1_555

#END
