
#######################################################################
#
#                 Cambridge Crystallographic Data Centre
#                                CCDC 
#
#######################################################################
#
# If this CIF has been generated from an entry in the Cambridge 
# Structural Database, then it will include bibliographic, chemical, 
# crystal, experimental, refinement or atomic coordinate data resulting 
# from the CCDC's data processing and validation procedures.
#
#######################################################################

data_WUHBAE
_symmetry_cell_setting           monoclinic
_symmetry_space_group_name_H-M   'C 2/m'
_symmetry_Int_Tables_number      12
_space_group_name_Hall           '-C 2y'
loop_
_symmetry_equiv_pos_site_id
_symmetry_equiv_pos_as_xyz
1 x,y,z
2 -x,y,-z
3 1/2+x,1/2+y,z
4 1/2-x,1/2+y,-z
5 -x,-y,-z
6 x,-y,z
7 1/2-x,1/2-y,-z
8 1/2+x,1/2-y,z
_cell_length_a                   10.4806(14)
_cell_length_b                   21.312(4)
_cell_length_c                   11.3293(17)
_cell_angle_alpha                90
_cell_angle_beta                 94.497(4)
_cell_angle_gamma                90
_cell_volume                     2522.75
loop_
_atom_site_label
_atom_site_type_symbol
_atom_site_fract_x
_atom_site_fract_y
_atom_site_fract_z
Co1 Co 0.08125(3) 1.0000 0.21301(2)
S1 S 0.49519(4) 1.22555(2) 0.41029(4)
O1 O 0.14812(16) 1.0000 0.04218(14)
H1 H 0.1133 1.0284 0.0028
O2 O -0.04672(12) 0.92777(6) 0.14545(10)
O3 O -0.00483(18) 1.0000 0.36918(14)
H2 H -0.0610 0.9732 0.3666
O4 O -0.12877(16) 0.89741(7) 0.31271(11)
N1 N 0.21658(15) 1.07184(7) 0.27831(12)
C1 C -0.21025(15) 0.77016(8) -0.03143(14)
C2 C -0.17701(16) 0.83676(7) 0.14154(14)
C3 C -0.25615(17) 0.79659(9) 0.20330(15)
H3 H -0.2704 0.8054 0.2816
C4 C 0.39754(19) 1.13793(10) 0.25616(17)
H4 H 0.4619 1.1508 0.2096
C5 C -0.15701(16) 0.82391(8) 0.02571(14)
H5 H -0.1075 0.8511 -0.0158
C6 C 0.38735(16) 1.16400(8) 0.36662(15)
C7 C -0.31167(18) 0.74516(9) 0.14962(15)
H6 H -0.3647 0.7198 0.1912
C8 C 0.31110(19) 1.09258(10) 0.21592(16)
H7 H 0.3189 1.0755 0.1413
C9 C -0.11354(17) 0.89145(8) 0.20554(14)
C10 C 0.2089(2) 1.09736(11) 0.38578(17)
H8 H 0.1445 1.0835 0.4314
C11 C 0.2910(2) 1.14288(12) 0.43202(17)
H9 H 0.2815 1.1593 0.5069
S1A S 0.50481(4) 1.22555(2) 0.58971(4)
N1A N 0.78342(15) 1.07184(7) 0.72169(12)
C4A C 0.60246(19) 1.13793(10) 0.74384(17)
H4A H 0.5381 1.1508 0.7904
C6A C 0.61265(16) 1.16400(8) 0.63338(15)
C8A C 0.68890(19) 1.09258(10) 0.78408(16)
H7A H 0.6811 1.0755 0.8587
C10A C 0.7911(2) 1.09736(11) 0.61422(17)
H8A H 0.8555 1.0835 0.5686
C11A C 0.7090(2) 1.14288(12) 0.56798(17)
H9A H 0.7185 1.1593 0.4931
H1E H 0.1133 0.9716 0.0028
O2F O -0.45328(12) 0.57223(6) -0.14545(10)
O4F O -0.37123(16) 0.60259(7) -0.31271(11)
C1F C -0.28975(15) 0.72984(8) 0.03143(14)
C2F C -0.32299(16) 0.66324(7) -0.14154(14)
C3F C -0.24385(17) 0.70341(9) -0.20330(15)
H3F H -0.2296 0.6946 -0.2816
C5F C -0.34299(16) 0.67609(8) -0.02571(14)
H5F H -0.3925 0.6489 0.0158
C7F C -0.18833(18) 0.75484(9) -0.14962(15)
H6F H -0.1353 0.7802 -0.1912
C9F C -0.38646(17) 0.60855(8) -0.20554(14)
H2E H -0.0610 1.0268 0.3666
Co1A Co 0.91875(3) 1.0000 0.78699(2)
Co1C Co -0.58125(3) 0.5000 -0.21301(2)
O2E O -0.04672(12) 1.07223(6) 0.14545(10)
N1E N 0.21658(15) 0.92816(7) 0.27831(12)
loop_
_geom_bond_atom_site_label_1
_geom_bond_atom_site_label_2
_geom_bond_site_symmetry_1
_geom_bond_site_symmetry_2
Co1 O1 1_555 1_555
S1 C6 1_555 1_555
O1 H1 1_555 1_555
O2 Co1 1_555 1_555
O3 Co1 1_555 1_555
H2 O3 1_555 1_555
O4 C9 1_555 1_555
N1 Co1 1_555 1_555
C1 C5 1_555 1_555
C2 C3 1_555 1_555
C3 H3 1_555 1_555
C4 H4 1_555 1_555
C5 C2 1_555 1_555
H5 C5 1_555 1_555
C6 C4 1_555 1_555
C7 C3 1_555 1_555
H6 C7 1_555 1_555
C8 N1 1_555 1_555
H7 C8 1_555 1_555
C9 O2 1_555 1_555
C10 N1 1_555 1_555
H8 C10 1_555 1_555
C11 C6 1_555 1_555
H9 C11 1_555 1_555
S1A S1 1_555 1_555
N1A C8A 1_555 1_555
C4A H4A 1_555 1_555
C6A S1A 1_555 1_555
C8A C4A 1_555 1_555
H7A C8A 1_555 1_555
C10A N1A 1_555 1_555
H8A C10A 1_555 1_555
C11A C6A 1_555 1_555
H9A C11A 1_555 1_555
H1E O1 1_555 1_555
O2F C9F 1_555 1_555
O4F C9F 1_555 1_555
C1F C1 1_555 1_555
C2F C3F 1_555 1_555
C3F H3F 1_555 1_555
C5F C1F 1_555 1_555
H5F C5F 1_555 1_555
C7F C1 1_555 1_555
H6F C7F 1_555 1_555
C9F C2F 1_555 1_555
H2E O3 1_555 1_555
Co1A N1A 1_555 1_555
Co1C O2F 1_555 1_555
O2E Co1 1_555 1_555
N1E Co1 1_555 1_555
C2 C9 1_555 1_555
C4 C8 1_555 1_555
C7 C1F 1_555 1_555
C10 C11 1_555 1_555
C4A C6A 1_555 1_555
C10A C11A 1_555 1_555
C2F C5F 1_555 1_555
C3F C7F 1_555 1_555

#END
