
#######################################################################
#
#                 Cambridge Crystallographic Data Centre
#                                CCDC 
#
#######################################################################
#
# If this CIF has been generated from an entry in the Cambridge 
# Structural Database, then it will include bibliographic, chemical, 
# crystal, experimental, refinement or atomic coordinate data resulting 
# from the CCDC's data processing and validation procedures.
#
#######################################################################

data_WUHDIM
_symmetry_cell_setting           triclinic
_symmetry_space_group_name_H-M   'P -1'
_symmetry_Int_Tables_number      2
_space_group_name_Hall           '-P 1'
loop_
_symmetry_equiv_pos_site_id
_symmetry_equiv_pos_as_xyz
1 x,y,z
2 -x,-y,-z
_cell_length_a                   11.613(2)
_cell_length_b                   14.042(3)
_cell_length_c                   14.724(3)
_cell_angle_alpha                114.64(3)
_cell_angle_beta                 105.23(3)
_cell_angle_gamma                99.57(3)
_cell_volume                     1998.95
loop_
_atom_site_label
_atom_site_type_symbol
_atom_site_fract_x
_atom_site_fract_y
_atom_site_fract_z
C1 C 0.0376(3) 0.8651(3) 0.3931(3)
H1 H 0.0061 0.9117 0.3638
H2 H 0.0470 0.8974 0.4696
C2 C 0.4742(3) 0.1420(3) 0.4957(3)
H3 H 0.4403 0.0649 0.4775
H4 H 0.5362 0.1835 0.5695
H5 H 0.5148 0.1453 0.4460
C3 C 0.1591(3) 0.8550(3) 0.3810(3)
H6 H 0.2314 0.9164 0.4429
H7 H 0.1617 0.8536 0.3138
C4 C -0.6490(3) 0.0493(3) 0.1689(3)
H8 H -0.6901 0.0479 0.2188
H9 H -0.6541 -0.0260 0.1204
H10 H -0.6913 0.0807 0.1268
C5 C -0.0503(3) 0.7468(2) 0.3285(2)
H11 H -0.1092 0.7349 0.3634
H12 H -0.0996 0.7302 0.2548
C6 C 0.6953(3) 0.8926(2) 0.3164(3)
H13 H 0.7355 0.8828 0.3780
H14 H 0.6815 0.9647 0.3423
H15 H 0.7497 0.8886 0.2750
C7 C -0.4765(3) 0.2298(3) 0.3082(3)
H16 H -0.5394 0.2622 0.3234
C8 C -0.3844(3) 0.2704(2) 0.0742(3)
H17 H -0.4209 0.2521 -0.0021
H18 H -0.4235 0.2080 0.0826
C9 C -0.4021(3) 0.3766(3) 0.1477(3)
H19 H -0.4810 0.3860 0.1118
H20 H -0.4029 0.3782 0.2154
C10 C -0.2931(3) 0.1393(2) 0.2712(2)
H21 H -0.2303 0.1059 0.2581
C11 C 0.0922(3) -0.0780(2) -0.1169(2)
H22 H 0.0613 -0.1291 -0.1943
H23 H 0.0356 -0.1015 -0.0858
H24 H 0.1768 -0.0781 -0.0824
C12 C 0.2511(3) 0.1326(2) 0.4065(2)
H25 H 0.2354 0.0575 0.3569
C13 C 0.2433(3) 0.3229(2) 0.2371(3)
H26 H 0.2414 0.2594 0.2507
H27 H 0.2646 0.3075 0.1726
C14 C 0.3358(3) 0.4293(2) 0.3344(3)
H28 H 0.3372 0.4304 0.4024
H29 H 0.4218 0.4397 0.3335
C15 C -0.2889(3) 0.4636(2) 0.1684(2)
H30 H -0.3036 0.4815 0.1089
H31 H -0.2689 0.5318 0.2365
C16 C 0.2838(3) 0.5160(2) 0.3208(2)
H32 H 0.3066 0.5819 0.3915
H33 H 0.3173 0.5387 0.2751
C17 C 0.3682(3) 0.1919(3) 0.4864(2)
C18 C -0.3515(3) 0.2935(2) 0.3626(2)
H34 H -0.3304 0.3693 0.4129
C19 C -0.4158(3) 0.0767(2) 0.2163(2)
H35 H -0.4361 0.0012 0.1654
C20 C -0.2424(3) 0.2971(2) 0.1121(2)
H36 H -0.2140 0.2622 0.1564
H37 H -0.2161 0.2689 0.0496
C21 C 0.1591(3) 0.7463(2) 0.3774(2)
H38 H 0.2094 0.7121 0.3359
H39 H 0.1953 0.7569 0.4510
C22 C 0.3873(3) 0.2999(3) 0.5567(2)
H40 H 0.4668 0.3428 0.6133
C23 C 0.2929(3) 0.3475(2) 0.5469(2)
H41 H 0.3100 0.4229 0.5963
C24 C -0.5122(3) 0.1195(3) 0.2320(2)
C25 C 0.2061(3) 0.1131(2) -0.0772(2)
H42 H 0.2797 0.0918 -0.0761
C26 C 0.1554(3) 0.1791(2) 0.3962(2)
H43 H 0.0759 0.1354 0.3397
C27 C 0.5711(3) 0.8029(2) 0.2458(2)
C28 C 0.4565(3) 0.8235(2) 0.2417(2)
H44 H 0.4567 0.8970 0.2815
C29 C 0.5641(3) 0.6941(2) 0.1831(2)
H45 H 0.6399 0.6772 0.1825
C30 C 0.1735(3) 0.2885(2) 0.4668(2)
C31 C 0.2117(3) 0.2200(2) -0.0572(2)
H46 H 0.2878 0.2693 -0.0450
C32 C -0.0094(3) 0.0697(2) -0.1035(2)
H47 H -0.0869 0.0179 -0.1219
C33 C -0.2565(3) 0.2495(2) 0.3453(2)
C34 C 0.1186(3) 0.3468(2) 0.2239(2)
H48 H 0.0639 0.3095 0.1468
H49 H 0.0744 0.3203 0.2621
C35 C -0.0057(3) 0.1759(2) -0.0825(2)
H50 H -0.0808 0.1952 -0.0869
C36 C 0.0968(3) 0.0368(2) -0.0985(2)
C37 C 0.4515(3) 0.6100(2) 0.1218(2)
H51 H 0.4516 0.5373 0.0792
C38 C 0.3422(3) 0.7388(2) 0.1807(2)
H52 H 0.2663 0.7559 0.1796
C39 C 0.2105(3) 0.4449(2) 0.0338(2)
H53 H 0.2842 0.4283 0.0600
C40 C -0.0388(3) 0.2795(2) 0.4152(2)
H54 H -0.0587 0.2029 0.3930
C41 C 0.3365(2) 0.6294(2) 0.12107(19)
N1 N -0.1313(2) 0.32294(18) 0.40121(18)
C42 C 0.1053(3) 0.2558(2) -0.05503(19)
N2 N 0.0807(2) 0.34170(18) 0.45972(18)
N3 N 0.1030(2) 0.36313(18) -0.02909(17)
N4 N 0.2177(2) 0.54916(18) 0.06115(17)
O1 O 0.02937(18) 0.67718(14) 0.32563(14)
O2 O -0.18833(17) 0.41560(15) 0.17507(14)
O3 O 0.14838(16) 0.46537(14) 0.26970(14)
K1 K -0.01052(5) 0.50391(4) 0.38290(4)
K2 K -0.00059(5) 0.51229(4) 0.12125(4)
K1A K 0.01052(5) 0.49609(4) 0.61710(4)
K2A K 0.00059(5) 0.48771(4) -0.12125(4)
N1A N 0.1313(2) 0.67706(18) 0.59879(18)
N2A N -0.0807(2) 0.65830(18) 0.54028(18)
N3A N -0.1030(2) 0.63687(18) 0.02909(17)
N4A N -0.2177(2) 0.45084(18) -0.06115(17)
loop_
_geom_bond_atom_site_label_1
_geom_bond_atom_site_label_2
_geom_bond_site_symmetry_1
_geom_bond_site_symmetry_2
C1 H1 1_555 1_555
H2 C1 1_555 1_555
C2 H3 1_555 1_555
H4 C2 1_555 1_555
H5 C2 1_555 1_555
C3 C1 1_555 1_555
H6 C3 1_555 1_555
H7 C3 1_555 1_555
C4 H8 1_555 1_555
H9 C4 1_555 1_555
H10 C4 1_555 1_555
C5 C1 1_555 1_555
H11 C5 1_555 1_555
H12 C5 1_555 1_555
C6 H13 1_555 1_555
H14 C6 1_555 1_555
H15 C6 1_555 1_555
C7 H16 1_555 1_555
C8 H17 1_555 1_555
H18 C8 1_555 1_555
C9 C8 1_555 1_555
H19 C9 1_555 1_555
H20 C9 1_555 1_555
C10 H21 1_555 1_555
C11 H22 1_555 1_555
H23 C11 1_555 1_555
H24 C11 1_555 1_555
C12 H25 1_555 1_555
C13 H26 1_555 1_555
H27 C13 1_555 1_555
C14 C13 1_555 1_555
H28 C14 1_555 1_555
H29 C14 1_555 1_555
C15 C9 1_555 1_555
H30 C15 1_555 1_555
H31 C15 1_555 1_555
C16 C14 1_555 1_555
H32 C16 1_555 1_555
H33 C16 1_555 1_555
C17 C2 1_555 1_555
C18 C7 1_555 1_555
H34 C18 1_555 1_555
C19 C10 1_555 1_555
H35 C19 1_555 1_555
C20 C8 1_555 1_555
H36 C20 1_555 1_555
H37 C20 1_555 1_555
C21 C3 1_555 1_555
H38 C21 1_555 1_555
H39 C21 1_555 1_555
C22 C17 1_555 1_555
H40 C22 1_555 1_555
C23 C22 1_555 1_555
H41 C23 1_555 1_555
C24 C4 1_555 1_555
C25 H42 1_555 1_555
C26 C12 1_555 1_555
H43 C26 1_555 1_555
C27 C6 1_555 1_555
C28 C27 1_555 1_555
H44 C28 1_555 1_555
C29 C27 1_555 1_555
H45 C29 1_555 1_555
C30 C23 1_555 1_555
C31 C25 1_555 1_555
H46 C31 1_555 1_555
C32 H47 1_555 1_555
C33 C10 1_555 1_555
C34 C13 1_555 1_555
H48 C34 1_555 1_555
H49 C34 1_555 1_555
C35 C32 1_555 1_555
H50 C35 1_555 1_555
C36 C11 1_555 1_555
C37 C29 1_555 1_555
H51 C37 1_555 1_555
C38 C28 1_555 1_555
H52 C38 1_555 1_555
C39 H53 1_555 1_555
C40 H54 1_555 1_555
C41 C37 1_555 1_555
N1 C33 1_555 1_555
C42 C31 1_555 1_555
N2 C30 1_555 1_555
N3 C39 1_555 1_555
N4 C39 1_555 1_555
O1 C5 1_555 1_555
O2 C15 1_555 1_555
O3 C16 1_555 1_555
K1 N1 1_555 1_555
K2 N3 1_555 1_555
K1A N1 1_555 1_555
K2A N3 1_555 1_555
N1A K1 1_555 1_555
N2A K1 1_555 1_555
N3A K2 1_555 1_555
N4A K2 1_555 1_555
C7 C24 1_555 1_555
C12 C17 1_555 1_555
C18 C33 1_555 1_555
C19 C24 1_555 1_555
C20 O2 1_555 1_555
C21 O1 1_555 1_555
C25 C36 1_555 1_555
C26 C30 1_555 1_555
C32 C36 1_555 1_555
C34 O3 1_555 1_555
C35 C42 1_555 1_555
C38 C41 1_555 1_555
C40 N2 1_555 1_555
C40 N1 1_555 1_555
C41 N4 1_555 1_555
C42 N3 1_555 1_555
N2 K1 1_555 1_555
N2 K1A 1_555 1_555
N4 K2 1_555 1_555
N4 K2A 1_555 1_555
O1 K2 1_555 1_555
O1 K1 1_555 1_555
O2 K1 1_555 1_555
O2 K2 1_555 1_555
O3 K1 1_555 1_555
O3 K2 1_555 1_555
K1A N1A 1_555 1_555
K1A N2A 1_555 1_555
K2A N3A 1_555 1_555
K2A N4A 1_555 1_555

#END
