
#######################################################################
#
#                 Cambridge Crystallographic Data Centre
#                                CCDC 
#
#######################################################################
#
# If this CIF has been generated from an entry in the Cambridge 
# Structural Database, then it will include bibliographic, chemical, 
# crystal, experimental, refinement or atomic coordinate data resulting 
# from the CCDC's data processing and validation procedures.
#
#######################################################################

data_WUHDOS
_symmetry_cell_setting           triclinic
_symmetry_space_group_name_H-M   'P -1'
_symmetry_Int_Tables_number      2
_space_group_name_Hall           '-P 1'
loop_
_symmetry_equiv_pos_site_id
_symmetry_equiv_pos_as_xyz
1 x,y,z
2 -x,-y,-z
_cell_length_a                   13.325(5)
_cell_length_b                   13.843(5)
_cell_length_c                   14.742(5)
_cell_angle_alpha                66.345(5)
_cell_angle_beta                 73.400(5)
_cell_angle_gamma                63.731(5)
_cell_volume                     2214.13
loop_
_atom_site_label
_atom_site_type_symbol
_atom_site_fract_x
_atom_site_fract_y
_atom_site_fract_z
K1 K 0.47547(3) 0.00084(3) 0.12443(3)
K2 K 0.48481(3) -0.00743(3) 0.39049(3)
O1 O 0.33892(11) 0.14100(11) 0.23940(10)
O2 O 0.62983(11) 0.00788(11) 0.21174(10)
O3 O 0.45903(11) -0.16035(11) 0.32783(10)
N1 N 0.38340(13) 0.17577(12) -0.04662(11)
N2 N 0.56929(13) 0.15558(13) -0.07178(12)
N3 N 0.39728(13) 0.18671(12) 0.45560(11)
N4 N 0.29485(13) 0.07212(12) 0.52931(11)
C1 C 0.26960(15) 0.24701(15) -0.04795(13)
C2 C 0.19049(16) 0.19735(16) 0.01052(14)
H1 H 0.2172 0.1183 0.0466
C3 C 0.07516(17) 0.25887(18) 0.01777(15)
C4 C 0.03638(17) 0.37460(18) -0.03587(16)
H2 H -0.0422 0.4190 -0.0312
C5 C 0.11219(18) 0.42436(17) -0.09561(16)
H3 H 0.0848 0.5031 -0.1326
C6 C 0.22752(16) 0.36253(15) -0.10321(14)
H4 H 0.2780 0.3986 -0.1460
C7 C -0.0054(2) 0.2006(2) 0.08402(18)
H5 H -0.0183 0.1617 0.0482
H6 H -0.0773 0.2574 0.1018
H7 H 0.0273 0.1450 0.1449
C8 C 0.64538(16) 0.20469(16) -0.08081(14)
C9 C 0.61953(17) 0.29445(16) -0.04586(14)
H8 H 0.5455 0.3256 -0.0138
C10 C 0.69917(19) 0.33994(19) -0.05652(16)
C11 C 0.8071(2) 0.2939(2) -0.10121(16)
H9 H 0.8619 0.3242 -0.1094
C12 C 0.83570(19) 0.2027(2) -0.13433(17)
H10 H 0.9106 0.1705 -0.1642
C13 C 0.75686(17) 0.1581(2) -0.12447(16)
H11 H 0.7783 0.0957 -0.1474
C14 C 0.6642(2) 0.4389(2) -0.0198(2)
H12 H 0.7311 0.4420 -0.0078
H13 H 0.6123 0.4293 0.0425
H14 H 0.6263 0.5097 -0.0703
C15 C 0.46026(15) 0.22041(15) -0.06812(13)
H15 H 0.4371 0.2997 -0.0811
C16 C 0.40392(16) 0.29354(15) 0.40106(13)
C17 C 0.51268(17) 0.29390(16) 0.36149(14)
H16 H 0.5751 0.2235 0.3748
C18 C 0.53375(19) 0.39226(18) 0.30377(15)
C19 C 0.4416(2) 0.49568(19) 0.28546(17)
H17 H 0.4533 0.5644 0.2463
C20 C 0.3343(2) 0.49780(17) 0.32405(18)
H18 H 0.2725 0.5688 0.3110
C21 C 0.31311(19) 0.39961(16) 0.38150(16)
H19 H 0.2379 0.4038 0.4075
C22 C 0.6534(2) 0.3863(2) 0.26453(19)
H20 H 0.6807 0.4030 0.3095
H21 H 0.6554 0.4421 0.1977
H22 H 0.7018 0.3098 0.2609
C23 C 0.18974(15) 0.06172(15) 0.56417(13)
C24 C 0.18141(16) -0.03770(16) 0.56958(14)
H23 H 0.2466 -0.0932 0.5471
C25 C 0.08276(17) -0.05934(17) 0.60611(15)
C26 C -0.01279(18) 0.02200(18) 0.63907(16)
H24 H -0.0813 0.0090 0.6646
C27 C -0.00802(17) 0.12180(18) 0.63461(16)
H25 H -0.0738 0.1772 0.6565
C28 C 0.09184(16) 0.14195(16) 0.59856(14)
H26 H 0.0940 0.2102 0.5971
C29 C 0.0773(2) -0.16710(19) 0.61044(18)
H27 H 0.1427 -0.2041 0.5682
H28 H 0.0078 -0.1493 0.5864
H29 H 0.0778 -0.2183 0.6796
C30 C 0.29875(16) 0.17473(15) 0.48463(13)
H30 H 0.2308 0.2398 0.4734
C31 C 0.22354(17) 0.14965(17) 0.27110(15)
H31 H 0.2134 0.1043 0.3423
H32 H 0.2016 0.1212 0.2309
C32 C 0.15257(19) 0.27381(18) 0.25598(19)
H33 H 0.0800 0.2952 0.2337
H34 H 0.1368 0.2918 0.3184
C33 C 0.2231(2) 0.33374(18) 0.17714(19)
H35 H 0.2079 0.4068 0.1852
H36 H 0.2082 0.3487 0.1098
C34 C 0.34242(17) 0.25340(16) 0.19245(15)
H37 H 0.3919 0.2586 0.1276
H38 H 0.3716 0.2716 0.2358
C35 C 0.7300(2) -0.0895(2) 0.2077(2)
H39 H 0.7180 -0.1373 0.1798
H40 H 0.7518 -0.1358 0.2755
C36 C 0.8177(2) -0.0476(2) 0.1435(2)
H41 H 0.8170 -0.0348 0.0726
H42 H 0.8932 -0.1022 0.1625
C37 C 0.78836(19) 0.0627(2) 0.16050(16)
H43 H 0.7987 0.1218 0.0967
H44 H 0.8359 0.0524 0.2070
C38 C 0.66598(19) 0.09464(18) 0.20527(17)
H45 H 0.6571 0.0994 0.2726
H46 H 0.6200 0.1695 0.1627
C39 C 0.36356(18) -0.19017(19) 0.34426(17)
H47 H 0.3577 -0.2016 0.2841
H48 H 0.2928 -0.1298 0.3607
C40 C 0.38499(18) -0.29974(17) 0.43126(17)
H49 H 0.3454 -0.3449 0.4297
H50 H 0.3604 -0.2845 0.4958
C41 C 0.51210(18) -0.36030(17) 0.41473(16)
H51 H 0.5325 -0.4180 0.3823
H52 H 0.5437 -0.3981 0.4788
C42 C 0.55546(17) -0.26584(16) 0.34655(16)
H53 H 0.6084 -0.2620 0.3792
H54 H 0.5957 -0.2808 0.2829
K1A K 0.52453(3) -0.00084(3) -0.12443(3)
N1A N 0.61660(13) -0.17577(12) 0.04662(11)
N2A N 0.43071(13) -0.15558(13) 0.07178(12)
K2A K 0.51519(3) 0.00743(3) 0.60951(3)
N3A N 0.60272(13) -0.18671(12) 0.54440(11)
N4A N 0.70515(13) -0.07212(12) 0.47069(11)
O4 O 1.02747(13) 0.44377(14) 0.40590(14)
C43 C 0.9983(2) 0.5501(2) 0.3275(2)
H55 H 1.0289 0.5383 0.2615
H56 H 1.0295 0.6001 0.3333
C44 C 0.8706(2) 0.60300(19) 0.33864(19)
H57 H 0.8403 0.6490 0.3842
H58 H 0.8429 0.6511 0.2732
C45 C 0.8399(2) 0.49958(19) 0.3827(2)
H59 H 0.8430 0.4705 0.3302
H60 H 0.7636 0.5159 0.4216
C46 C 0.9299(2) 0.41712(19) 0.44924(19)
H61 H 0.9045 0.4242 0.5171
H62 H 0.9461 0.3381 0.4545
loop_
_geom_bond_atom_site_label_1
_geom_bond_atom_site_label_2
_geom_bond_site_symmetry_1
_geom_bond_site_symmetry_2
K1 O1 1_555 1_555
K2 O1 1_555 1_555
O1 C31 1_555 1_555
O2 K1 1_555 1_555
O3 K1 1_555 1_555
O4 C43 1_555 1_555
N1 K1 1_555 1_555
N2 K1 1_555 1_555
N3 K2 1_555 1_555
N4 K2 1_555 1_555
C1 N1 1_555 1_555
C2 C1 1_555 1_555
H1 C2 1_555 1_555
C3 C2 1_555 1_555
C4 C3 1_555 1_555
H2 C4 1_555 1_555
C5 C4 1_555 1_555
H3 C5 1_555 1_555
C6 C1 1_555 1_555
H4 C6 1_555 1_555
C7 C3 1_555 1_555
H5 C7 1_555 1_555
H6 C7 1_555 1_555
H7 C7 1_555 1_555
C8 N2 1_555 1_555
C9 C8 1_555 1_555
H8 C9 1_555 1_555
C10 C9 1_555 1_555
C11 C10 1_555 1_555
H9 C11 1_555 1_555
C12 C11 1_555 1_555
H10 C12 1_555 1_555
C13 C8 1_555 1_555
H11 C13 1_555 1_555
C14 C10 1_555 1_555
H12 C14 1_555 1_555
H13 C14 1_555 1_555
H14 C14 1_555 1_555
C15 N1 1_555 1_555
H15 C15 1_555 1_555
C16 N3 1_555 1_555
C17 C16 1_555 1_555
H16 C17 1_555 1_555
C18 C17 1_555 1_555
C19 C18 1_555 1_555
H17 C19 1_555 1_555
C20 C19 1_555 1_555
H18 C20 1_555 1_555
C21 C16 1_555 1_555
H19 C21 1_555 1_555
C22 C18 1_555 1_555
H20 C22 1_555 1_555
H21 C22 1_555 1_555
H22 C22 1_555 1_555
C23 N4 1_555 1_555
C24 C23 1_555 1_555
H23 C24 1_555 1_555
C25 C24 1_555 1_555
C26 C25 1_555 1_555
H24 C26 1_555 1_555
C27 C26 1_555 1_555
H25 C27 1_555 1_555
C28 C23 1_555 1_555
H26 C28 1_555 1_555
C29 C25 1_555 1_555
H27 C29 1_555 1_555
H28 C29 1_555 1_555
H29 C29 1_555 1_555
C30 N3 1_555 1_555
H30 C30 1_555 1_555
C31 H31 1_555 1_555
H32 C31 1_555 1_555
C32 C31 1_555 1_555
H33 C32 1_555 1_555
H34 C32 1_555 1_555
C33 C32 1_555 1_555
H35 C33 1_555 1_555
H36 C33 1_555 1_555
C34 O1 1_555 1_555
H37 C34 1_555 1_555
H38 C34 1_555 1_555
C35 O2 1_555 1_555
H39 C35 1_555 1_555
H40 C35 1_555 1_555
C36 C35 1_555 1_555
H41 C36 1_555 1_555
H42 C36 1_555 1_555
C37 C36 1_555 1_555
H43 C37 1_555 1_555
H44 C37 1_555 1_555
C38 O2 1_555 1_555
H45 C38 1_555 1_555
H46 C38 1_555 1_555
C39 O3 1_555 1_555
H47 C39 1_555 1_555
H48 C39 1_555 1_555
C40 C39 1_555 1_555
H49 C40 1_555 1_555
H50 C40 1_555 1_555
C41 C40 1_555 1_555
H51 C41 1_555 1_555
H52 C41 1_555 1_555
C42 O3 1_555 1_555
H53 C42 1_555 1_555
H54 C42 1_555 1_555
C43 H55 1_555 1_555
H56 C43 1_555 1_555
C44 C43 1_555 1_555
H57 C44 1_555 1_555
H58 C44 1_555 1_555
C45 C44 1_555 1_555
H59 C45 1_555 1_555
H60 C45 1_555 1_555
C46 O4 1_555 1_555
H61 C46 1_555 1_555
H62 C46 1_555 1_555
K1A N1 1_555 1_555
N1A K1 1_555 1_555
N2A K1 1_555 1_555
K2A N3 1_555 1_555
N3A K2 1_555 1_555
N4A K2 1_555 1_555
K2 O2 1_555 1_555
K2 O3 1_555 1_555
N2 C15 1_555 1_555
N2 K1A 1_555 1_555
N4 C30 1_555 1_555
N4 K2A 1_555 1_555
C5 C6 1_555 1_555
C12 C13 1_555 1_555
C20 C21 1_555 1_555
C27 C28 1_555 1_555
C33 C34 1_555 1_555
C37 C38 1_555 1_555
C41 C42 1_555 1_555
C45 C46 1_555 1_555
K1A N1A 1_555 1_555
K1A N2A 1_555 1_555
K2A N3A 1_555 1_555
K2A N4A 1_555 1_555

#END
