
#######################################################################
#
#                 Cambridge Crystallographic Data Centre
#                                CCDC 
#
#######################################################################
#
# If this CIF has been generated from an entry in the Cambridge 
# Structural Database, then it will include bibliographic, chemical, 
# crystal, experimental, refinement or atomic coordinate data resulting 
# from the CCDC's data processing and validation procedures.
#
#######################################################################

data_WUHDUY
_symmetry_cell_setting           triclinic
_symmetry_space_group_name_H-M   'P -1'
_symmetry_Int_Tables_number      2
_space_group_name_Hall           '-P 1'
loop_
_symmetry_equiv_pos_site_id
_symmetry_equiv_pos_as_xyz
1 x,y,z
2 -x,-y,-z
_cell_length_a                   7.7331(11)
_cell_length_b                   10.4662(14)
_cell_length_c                   13.3689(19)
_cell_angle_alpha                107.764(3)
_cell_angle_beta                 90.529(3)
_cell_angle_gamma                108.107(3)
_cell_volume                     972.915
loop_
_atom_site_label
_atom_site_type_symbol
_atom_site_fract_x
_atom_site_fract_y
_atom_site_fract_z
K1 K 0.29724(8) 0.02898(6) 0.52961(5)
O1 O 0.1873(3) 0.1713(2) 0.71466(19)
N1 N 0.3338(3) -0.2524(2) 0.40793(19)
C1 C 0.2273(4) -0.3697(3) 0.3244(2)
O2 O -0.0525(3) -0.0962(2) 0.58753(16)
N2 N 0.4400(3) -0.1613(2) 0.58396(19)
C2 C 0.0844(4) -0.4841(3) 0.3363(3)
C3 C -0.0188(4) -0.5957(3) 0.2498(3)
C4 C 0.0120(4) -0.5987(3) 0.1473(3)
C5 C 0.1503(4) -0.4853(3) 0.1348(3)
C6 C 0.2538(4) -0.3728(3) 0.2204(3)
C7 C -0.1029(6) -0.7218(5) 0.0551(4)
C8 C 0.4862(4) -0.1822(3) 0.6776(2)
C9 C 0.5092(4) -0.3062(3) 0.6876(3)
C10 C 0.5616(4) -0.3117(3) 0.7847(3)
C11 C 0.5969(4) -0.1968(4) 0.8771(3)
C12 C 0.5768(4) -0.0731(3) 0.8668(3)
C13 C 0.5224(4) -0.0667(3) 0.7708(2)
C14 C 0.6513(8) -0.2055(7) 0.9824(4)
C15 C 0.3616(4) -0.2698(3) 0.4993(2)
C16 C 0.0235(5) 0.0982(4) 0.7479(3)
C17 C -0.0145(5) -0.0587(3) 0.6993(3)
C18 C 0.2416(6) 0.3212(4) 0.7649(4)
C19 C -0.0923(6) -0.2447(4) 0.5359(3)
H1 H -0.099(6) -0.269(4) 0.454(4)
H2 H -0.211(5) -0.299(4) 0.553(3)
H3 H 0.004(6) -0.278(4) 0.551(3)
H4 H 0.601(4) 0.012(3) 0.930(3)
H5 H 0.169(4) -0.485(3) 0.063(2)
H6 H 0.342(4) -0.298(3) 0.208(2)
H7 H 0.324(4) -0.364(3) 0.500(2)
H8 H 0.291(5) 0.344(4) 0.837(4)
H9 H -0.122(5) -0.110(3) 0.730(3)
H10 H -0.239(7) -0.732(5) 0.054(4)
H11 H -0.112(8) -0.821(7) 0.050(5)
H12 H -0.075(4) 0.121(3) 0.727(2)
H13 H 0.484(4) -0.394(3) 0.621(3)
H14 H -0.069(7) -0.710(5) -0.008(4)
H15 H 0.580(5) -0.388(4) 0.788(3)
H16 H 0.038(5) 0.132(4) 0.830(3)
H17 H 0.511(4) 0.016(4) 0.767(3)
H18 H 0.101(4) -0.082(3) 0.709(2)
H19 H 0.048(4) -0.488(3) 0.404(3)
H20 H 0.742(11) -0.134(8) 1.023(6)
H21 H 0.725(8) -0.257(6) 0.978(4)
H22 H 0.567(7) -0.220(5) 1.025(4)
H23 H -0.127(5) -0.674(4) 0.261(3)
H24 H 0.147(6) 0.358(5) 0.753(3)
H25 H 0.356(5) 0.357(4) 0.735(3)
K1A K 0.70276(8) -0.02898(6) 0.47039(5)
N1A N 0.6662(3) 0.2524(2) 0.59207(19)
O2A O 0.0525(3) 0.0962(2) 0.41247(16)
N2A N 0.5600(3) 0.1613(2) 0.41604(19)
K1A_2 K -0.29724(8) -0.02898(6) 0.47039(5)
loop_
_geom_bond_atom_site_label_1
_geom_bond_atom_site_label_2
_geom_bond_site_symmetry_1
_geom_bond_site_symmetry_2
K1 O1 1_555 1_555
O1 C16 1_555 1_555
N1 K1 1_555 1_555
C1 N1 1_555 1_555
O2 K1 1_555 1_555
N2 K1 1_555 1_555
C2 C1 1_555 1_555
C3 C2 1_555 1_555
C4 C3 1_555 1_555
C5 C4 1_555 1_555
C6 C1 1_555 1_555
C7 C4 1_555 1_555
C8 N2 1_555 1_555
C9 C8 1_555 1_555
C10 C9 1_555 1_555
C11 C10 1_555 1_555
C12 C11 1_555 1_555
C13 C8 1_555 1_555
C14 C11 1_555 1_555
C15 N1 1_555 1_555
C16 C17 1_555 1_555
C17 O2 1_555 1_555
C18 O1 1_555 1_555
C19 O2 1_555 1_555
H1 C19 1_555 1_555
H2 C19 1_555 1_555
H3 C19 1_555 1_555
H4 C12 1_555 1_555
H5 C5 1_555 1_555
H6 C6 1_555 1_555
H7 C15 1_555 1_555
H8 C18 1_555 1_555
H9 C17 1_555 1_555
H10 C7 1_555 1_555
H11 C7 1_555 1_555
H12 C16 1_555 1_555
H13 C9 1_555 1_555
H14 C7 1_555 1_555
H15 C10 1_555 1_555
H16 C16 1_555 1_555
H17 C13 1_555 1_555
H18 C17 1_555 1_555
H19 C2 1_555 1_555
H20 C14 1_555 1_555
H21 C14 1_555 1_555
H22 C14 1_555 1_555
H23 C3 1_555 1_555
H24 C18 1_555 1_555
H25 C18 1_555 1_555
K1A N1 1_555 1_555
N1A K1 1_555 1_555
O2A K1 1_555 1_555
N2A K1 1_555 1_555
K1A_2 O2 1_555 1_555
N2 C15 1_555 1_555
N2 K1A 1_555 1_555
C5 C6 1_555 1_555
C12 C13 1_555 1_555
K1A N1A 1_555 1_555
K1A N2A 1_555 1_555
O2A K1A_2 1_555 1_555

#END
