
#######################################################################
#
#                 Cambridge Crystallographic Data Centre
#                                CCDC 
#
#######################################################################
#
# If this CIF has been generated from an entry in the Cambridge 
# Structural Database, then it will include bibliographic, chemical, 
# crystal, experimental, refinement or atomic coordinate data resulting 
# from the CCDC's data processing and validation procedures.
#
#######################################################################

data_WUHJIT
_symmetry_cell_setting           rhombohedral
_symmetry_space_group_name_H-M   'R -3'
_symmetry_Int_Tables_number      148
_space_group_name_Hall           '-R 3'
loop_
_symmetry_equiv_pos_site_id
_symmetry_equiv_pos_as_xyz
1 x,y,z
2 -y,x-y,z
3 -x+y,-x,z
4 2/3+x,1/3+y,1/3+z
5 2/3-y,1/3+x-y,1/3+z
6 2/3-x+y,1/3-x,1/3+z
7 1/3+x,2/3+y,2/3+z
8 1/3-y,2/3+x-y,2/3+z
9 1/3-x+y,2/3-x,2/3+z
10 -x,-y,-z
11 y,-x+y,-z
12 x-y,x,-z
13 1/3-x,2/3-y,2/3-z
14 1/3+y,2/3-x+y,2/3-z
15 1/3+x-y,2/3+x,2/3-z
16 2/3-x,1/3-y,1/3-z
17 2/3+y,1/3-x+y,1/3-z
18 2/3+x-y,1/3+x,1/3-z
_cell_length_a                   31.642(5)
_cell_length_b                   31.642(5)
_cell_length_c                   14.873(3)
_cell_angle_alpha                90
_cell_angle_beta                 90
_cell_angle_gamma                120
_cell_volume                     12896.1
loop_
_atom_site_label
_atom_site_type_symbol
_atom_site_fract_x
_atom_site_fract_y
_atom_site_fract_z
Mg1 Mg 0.5000 0.5000 1.0000
Mg2 Mg 0.54448(2) 0.41473(2) 1.03098(4)
O1 O 0.56267(4) 0.49149(4) 1.01819(7)
O2 O 0.60781(5) 0.46280(5) 0.96320(10)
O3 O 0.77839(4) 0.64168(4) 0.76348(8)
O4 O 0.73345(6) 0.56035(5) 0.74988(11)
O5 O 0.68052(5) 0.79802(4) 1.22992(8)
O6 O 0.75904(6) 0.82035(7) 1.22642(13)
O7 O 0.58534(9) 0.42845(9) 1.14515(12)
O8 O 0.54557(10) 0.35121(8) 1.01447(16)
C1 C 0.63977(6) 0.54776(6) 0.95052(11)
C2 C 0.67296(6) 0.55214(6) 0.88524(12)
C3 C 0.71072(6) 0.59762(6) 0.86008(11)
C4 C 0.71626(6) 0.63874(6) 0.90391(12)
C5 C 0.68340(6) 0.63478(6) 0.97061(12)
C6 C 0.64405(6) 0.58907(6) 0.99133(12)
C7 C 0.60057(6) 0.49791(6) 0.97755(11)
C8 C 0.74388(6) 0.60067(7) 0.78486(12)
C9 C 0.69127(7) 0.67822(6) 1.02269(13)
C10 C 0.73747(8) 0.71161(9) 1.0512(2)
C11 C 0.74500(8) 0.74911(9) 1.1084(2)
C12 C 0.70653(7) 0.75439(7) 1.13766(13)
C13 C 0.66066(7) 0.72220(7) 1.10635(13)
C14 C 0.65292(7) 0.68448(7) 1.04895(13)
C15 C 0.71549(7) 0.79410(7) 1.20337(13)
H1 H 0.6668(11) 0.5239(11) 0.859(2)
H2 H 0.7447(10) 0.6718(11) 0.8840(18)
H3 H 0.6193(11) 0.5834(10) 1.0318(19)
H4 H 0.5841(10) 0.4424(10) 1.208(2)
H5 H 0.6064(10) 0.4133(10) 1.186(2)
H6 H 0.5506(11) 0.3297(11) 0.967(2)
H7 H 0.5061(11) 0.3196(11) 1.004(2)
H8 H 0.7605(11) 0.7109(11) 1.0218(19)
H9 H 0.7709(11) 0.7644(11) 1.134(2)
H10 H 0.6324(11) 0.7244(10) 1.1285(19)
H11 H 0.6311(11) 0.6698(11) 1.029(2)
Mg1G Mg 0.8333 0.6667 0.6667
Mg1E Mg 0.6667 0.8333 1.3333
Mg1D Mg 0.1667 0.3333 1.3333
Mg1H Mg 0.3333 0.1667 0.6667
Mg2I Mg 0.45552(2) 0.58527(2) 0.96902(4)
Mg2M Mg 0.74806(2) 0.53692(3) 0.63569(4)
Mg2Q Mg 0.79642(3) 0.87781(2) 1.30235(4)
Mg2D Mg 0.25194(2) 0.46308(3) 1.36431(4)
Mg2H Mg 0.20358(3) 0.12219(2) 0.69765(4)
O1I O 0.43733(4) 0.50851(4) 0.98181(7)
O2I O 0.39219(5) 0.53720(5) 1.03680(10)
O3I O 0.22161(4) 0.35832(4) 1.23652(8)
O3E O 0.52996(6) 0.55494(4) 1.09681(8)
O3N O 0.47004(6) 0.44506(4) 0.90319(8)
O4I O 0.26655(6) 0.43965(5) 1.25012(11)
O4N O 0.50643(8) 0.40012(6) 0.91679(11)
O4E O 0.49357(8) 0.59988(6) 1.08321(11)
O5I O 0.31948(5) 0.20198(4) 0.77008(8)
O5G O 0.53531(4) 0.54917(6) 0.89659(8)
O5P O 0.46469(4) 0.45083(6) 1.10341(8)
O6I O 0.24096(6) 0.17965(7) 0.77358(13)
O6P O 0.48702(7) 0.39464(9) 1.10691(13)
O6G O 0.51298(7) 0.60536(9) 0.89309(13)
O7I O 0.41466(9) 0.57155(9) 0.85485(12)
O8I O 0.45443(10) 0.64879(8) 0.98553(16)
C1I C 0.36023(6) 0.45224(6) 1.04948(11)
C2I C 0.32704(6) 0.44786(6) 1.11476(12)
C3I C 0.28928(6) 0.40238(6) 1.13992(11)
C4I C 0.28374(6) 0.36126(6) 1.09609(12)
C5I C 0.31660(6) 0.36522(6) 1.02939(12)
C6I C 0.35595(6) 0.41093(6) 1.00867(12)
C7I C 0.39943(6) 0.50209(6) 1.02245(11)
C8I C 0.25612(6) 0.39933(7) 1.21514(12)
C9I C 0.30873(7) 0.32178(6) 0.97731(13)
C10I C 0.26253(8) 0.28839(9) 0.9488(2)
C11I C 0.25500(8) 0.25089(9) 0.8916(2)
C12I C 0.29347(7) 0.24561(7) 0.86234(13)
C13I C 0.33934(7) 0.27780(7) 0.89365(13)
C14I C 0.34708(7) 0.31552(7) 0.95105(13)
C15I C 0.28451(7) 0.20590(7) 0.79663(13)
H1I H 0.3332(11) 0.4761(11) 1.141(2)
H2I H 0.2553(10) 0.3282(11) 1.1160(18)
H3I H 0.3807(11) 0.4166(10) 0.9682(19)
H4I H 0.4159(10) 0.5576(10) 0.792(2)
H5I H 0.3936(10) 0.5867(10) 0.814(2)
H6I H 0.4494(11) 0.6703(11) 1.033(2)
H7I H 0.4939(11) 0.6804(11) 0.996(2)
H8I H 0.2395(11) 0.2891(11) 0.9782(19)
H9I H 0.2291(11) 0.2356(11) 0.866(2)
H10I H 0.3676(11) 0.2756(10) 0.8715(19)
H11I H 0.3689(11) 0.3302(11) 0.971(2)
loop_
_geom_bond_atom_site_label_1
_geom_bond_atom_site_label_2
_geom_bond_site_symmetry_1
_geom_bond_site_symmetry_2
Mg1 O1 1_555 1_555
Mg2 O1 1_555 1_555
O1 C7 1_555 1_555
O2 Mg2 1_555 1_555
O3 C8 1_555 1_555
O4 C8 1_555 1_555
O5 C15 1_555 1_555
O6 C15 1_555 1_555
O7 Mg2 1_555 1_555
O8 Mg2 1_555 1_555
C1 C2 1_555 1_555
C2 C3 1_555 1_555
C3 C4 1_555 1_555
C4 C5 1_555 1_555
C5 C6 1_555 1_555
C6 C1 1_555 1_555
C7 O2 1_555 1_555
C8 C3 1_555 1_555
C9 C5 1_555 1_555
C10 C9 1_555 1_555
C11 C10 1_555 1_555
C12 C11 1_555 1_555
C13 C12 1_555 1_555
C14 C9 1_555 1_555
C15 C12 1_555 1_555
H1 C2 1_555 1_555
H2 C4 1_555 1_555
H3 C6 1_555 1_555
H4 O7 1_555 1_555
H5 O7 1_555 1_555
H6 O8 1_555 1_555
H7 O8 1_555 1_555
H8 C10 1_555 1_555
H9 C11 1_555 1_555
H10 C13 1_555 1_555
H11 C14 1_555 1_555
Mg1G O3 1_555 1_555
Mg1E O5 1_555 1_555
Mg1D O3I 1_555 1_555
Mg1H O5I 1_555 1_555
Mg2I O1I 1_555 1_555
Mg2M O4 1_555 1_555
Mg2Q O6 1_555 1_555
Mg2D O4I 1_555 1_555
Mg2H O6I 1_555 1_555
O1I Mg1 1_555 1_555
O2I Mg2I 1_555 1_555
O3I C8I 1_555 1_555
O3E Mg1 1_555 1_555
O3N Mg1 1_555 1_555
O4I C8I 1_555 1_555
O4N Mg2 1_555 1_555
O4E Mg2I 1_555 1_555
O5I C15I 1_555 1_555
O5G Mg1 1_555 1_555
O5P Mg1 1_555 1_555
O6I C15I 1_555 1_555
O6P Mg2 1_555 1_555
O6G Mg2I 1_555 1_555
O7I Mg2I 1_555 1_555
O8I Mg2I 1_555 1_555
C1I C2I 1_555 1_555
C2I C3I 1_555 1_555
C3I C4I 1_555 1_555
C4I C5I 1_555 1_555
C5I C6I 1_555 1_555
C6I C1I 1_555 1_555
C7I O1I 1_555 1_555
C8I C3I 1_555 1_555
C9I C5I 1_555 1_555
C10I C9I 1_555 1_555
C11I C10I 1_555 1_555
C12I C11I 1_555 1_555
C13I C12I 1_555 1_555
C14I C9I 1_555 1_555
C15I C12I 1_555 1_555
H1I C2I 1_555 1_555
H2I C4I 1_555 1_555
H3I C6I 1_555 1_555
H4I O7I 1_555 1_555
H5I O7I 1_555 1_555
H6I O8I 1_555 1_555
H7I O8I 1_555 1_555
H8I C10I 1_555 1_555
H9I C11I 1_555 1_555
H10I C13I 1_555 1_555
H11I C14I 1_555 1_555
C1 C7 1_555 1_555
C13 C14 1_555 1_555
O2I C7I 1_555 1_555
C1I C7I 1_555 1_555
C13I C14I 1_555 1_555

#END
