
#######################################################################
#
#                 Cambridge Crystallographic Data Centre
#                                CCDC 
#
#######################################################################
#
# If this CIF has been generated from an entry in the Cambridge 
# Structural Database, then it will include bibliographic, chemical, 
# crystal, experimental, refinement or atomic coordinate data resulting 
# from the CCDC's data processing and validation procedures.
#
#######################################################################

data_WUHJOY
_symmetry_cell_setting           triclinic
_symmetry_space_group_name_H-M   'P -1'
_symmetry_Int_Tables_number      2
_space_group_name_Hall           '-P 1'
loop_
_symmetry_equiv_pos_site_id
_symmetry_equiv_pos_as_xyz
1 x,y,z
2 -x,-y,-z
_cell_length_a                   9.609(2)
_cell_length_b                   10.801(3)
_cell_length_c                   13.566(3)
_cell_angle_alpha                78.380(5)
_cell_angle_beta                 82.011(5)
_cell_angle_gamma                89.895(5)
_cell_volume                     1365.23
loop_
_atom_site_label
_atom_site_type_symbol
_atom_site_fract_x
_atom_site_fract_y
_atom_site_fract_z
La1 La 0.55170(5) 0.49046(4) 0.33634(4)
O1 O 0.4201(5) 0.3972(4) 0.5130(4)
O2 O 0.3830(6) 0.3488(5) 0.2914(5)
O3 O 0.5786(8) 0.5667(6) 0.1378(5)
O4 O 0.6993(7) 0.4042(6) 0.1909(5)
O5 O 0.7217(11) 0.4877(10) 0.0307(6)
O6 O 0.4693(7) 0.7275(6) 0.2840(6)
O7 O 0.3027(7) 0.5848(6) 0.3268(6)
O8 O 0.2537(9) 0.7780(8) 0.2605(8)
O9 O 0.6164(7) 0.2496(6) 0.3942(5)
O10 O 0.7538(6) 0.3841(6) 0.4343(6)
O11 O 0.7437(9) 0.1871(7) 0.5122(8)
N1 N 0.3205(6) 0.3041(5) 0.5234(5)
N2 N 0.4049(7) 0.2607(7) 0.2340(6)
N3 N 0.6678(10) 0.4865(9) 0.1176(6)
N4 N 0.3396(9) 0.7005(7) 0.2896(6)
N5 N 0.7084(8) 0.2715(8) 0.4482(7)
C1 C 0.1910(8) 0.3351(7) 0.5042(7)
H1 H 0.1701 0.4197 0.4838
C2 C 0.0876(9) 0.2425(8) 0.5145(7)
H2 H -0.0029 0.2649 0.5025
C3 C 0.1198(9) 0.1161(7) 0.5428(6)
C4 C 0.2537(9) 0.0886(7) 0.5630(6)
H3 H 0.2772 0.0050 0.5846
C5 C 0.3546(8) 0.1842(7) 0.5514(6)
H4 H 0.4458 0.1644 0.5633
C6 C 0.0098(9) 0.0124(8) 0.5512(3)
H5 H 0.0380 -0.0647 0.5930
H6 H -0.0791 0.0368 0.5844
C7 C 0.4138(11) 0.1396(9) 0.2770(8)
H7 H 0.4045 0.1153 0.3474
C8 C 0.4361(13) 0.0514(9) 0.2190(8)
H8 H 0.4410 -0.0331 0.2502
C9 C 0.4519(11) 0.0843(8) 0.1140(8)
C10 C 0.4410(12) 0.2088(9) 0.0716(7)
H9 H 0.4503 0.2341 0.0012
C11 C 0.4163(10) 0.2981(9) 0.1313(7)
H10 H 0.4076 0.3827 0.1016
C12 C 0.4878(16) -0.0209(9) 0.0564(2)
H11 H 0.5717 -0.0614 0.0782
H12 H 0.4118 -0.0838 0.0746
C13 C 0.8017(15) 0.7445(12) 0.2125(10)
H13 H 0.8981 0.7701 0.2096
H14 H 0.7414 0.8073 0.2350
H15 H 0.7847 0.7356 0.1462
O12 O 0.7741(7) 0.6282(6) 0.2810(5)
H16 H 0.8445 0.5831 0.2920
C6A C -0.0098(9) -0.0124(8) 0.4488(3)
C3A C -0.1198(9) -0.1161(7) 0.4572(6)
C2A C -0.0876(9) -0.2425(8) 0.4855(7)
C1A C -0.1910(8) -0.3351(7) 0.4958(7)
N1A N -0.3205(6) -0.3041(5) 0.4766(5)
O1A O -0.4201(5) -0.3972(4) 0.4870(4)
C5A C -0.3546(8) -0.1842(7) 0.4486(6)
C4A C -0.2537(9) -0.0886(7) 0.4370(6)
H3A H -0.2772 -0.0050 0.4154
H4A H -0.4458 -0.1644 0.4367
H1A H -0.1701 -0.4197 0.5162
H2A H 0.0029 -0.2649 0.4975
H5A H -0.0380 0.0647 0.4070
H6A H 0.0791 -0.0368 0.4156
C12A C 0.5122(16) 0.0209(9) -0.0564(2)
C9A C 0.5481(11) -0.0843(8) -0.1140(8)
C8A C 0.5639(13) -0.0514(9) -0.2190(8)
C7A C 0.5862(11) -0.1396(9) -0.2770(8)
N2A N 0.5951(7) -0.2607(7) -0.2340(6)
O2A O 0.6170(6) -0.3488(5) -0.2914(5)
C11A C 0.5837(10) -0.2981(9) -0.1313(7)
C10A C 0.5590(12) -0.2088(9) -0.0716(7)
H9A H 0.5497 -0.2341 -0.0012
H10A H 0.5924 -0.3827 -0.1016
H7A H 0.5955 -0.1153 -0.3474
H8A H 0.5590 0.0331 -0.2502
H11A H 0.4283 0.0614 -0.0782
H12A H 0.5882 0.0838 -0.0746
La1A La -0.55170(5) -0.49046(4) 0.66366(4)
O3A O -0.5786(8) -0.5667(6) 0.8622(5)
O4A O -0.6993(7) -0.4042(6) 0.8091(5)
O5A O -0.7217(11) -0.4877(10) 0.9693(6)
N3A N -0.6678(10) -0.4865(9) 0.8824(6)
O6A O -0.4693(7) -0.7275(6) 0.7160(6)
O7A O -0.3027(7) -0.5848(6) 0.6732(6)
O8A O -0.2537(9) -0.7780(8) 0.7395(8)
N4A N -0.3396(9) -0.7005(7) 0.7104(6)
O9A O -0.6164(7) -0.2496(6) 0.6058(5)
O10A O -0.7538(6) -0.3841(6) 0.5657(6)
O11A O -0.7437(9) -0.1871(7) 0.4878(8)
N5A N -0.7084(8) -0.2715(8) 0.5518(7)
C13A C -0.8017(15) -0.7445(12) 0.7875(10)
H13A H -0.8981 -0.7701 0.7904
H14A H -0.7414 -0.8073 0.7650
H15A H -0.7847 -0.7356 0.8538
O12A O -0.7741(7) -0.6282(6) 0.7190(5)
H16A H -0.8445 -0.5831 0.7080
O1A_2 O 0.5799(5) 0.6028(4) 0.4870(4)
La1A_2 La 0.44830(5) 0.50954(4) 0.66366(4)
La1_2 La -0.44830(5) -0.50954(4) 0.33634(4)
La1A_3 La 0.44830(5) -0.49046(4) -0.33634(4)
O1_2 O -0.5799(5) -0.6028(4) 0.5130(4)
O2A_2 O -0.3830(6) -0.3488(5) 0.7086(5)
C14 C 1.0530(18) 0.440(2) 0.2396(15)
H17 H 1.1010 0.4812 0.1743
H18 H 0.9661 0.4027 0.2313
H19 H 1.1110 0.3759 0.2710
O13 O 1.0252(9) 0.5302(11) 0.3016(10)
H20 H 1.0878 0.5297 0.3371
C15 C 0.1012(11) 0.7960(14) -0.0818(8)
Cl1 Cl 0.1685(9) 0.9105(6) -0.1838(5)
Cl3 Cl -0.0831(10) 0.7981(16) -0.0719(11)
Cl2? Cl 0.1676(11) 0.8113(18) 0.0262(7)
Cl4? Cl 0.1219(12) 0.832(2) 0.0315(8)
Cl5? Cl -0.0658(14) 0.750(2) -0.0804(15)
loop_
_geom_bond_atom_site_label_1
_geom_bond_atom_site_label_2
_geom_bond_site_symmetry_1
_geom_bond_site_symmetry_2
La1 O1 1_555 1_555
O1 N1 1_555 1_555
O2 La1 1_555 1_555
O3 La1 1_555 1_555
O4 La1 1_555 1_555
O5 N3 1_555 1_555
O6 La1 1_555 1_555
O7 La1 1_555 1_555
O8 N4 1_555 1_555
O9 La1 1_555 1_555
O10 La1 1_555 1_555
O11 N5 1_555 1_555
N1 C1 1_555 1_555
N2 O2 1_555 1_555
N3 O3 1_555 1_555
N4 O6 1_555 1_555
N5 O9 1_555 1_555
C1 H1 1_555 1_555
C2 C1 1_555 1_555
H2 C2 1_555 1_555
C3 C2 1_555 1_555
C4 C3 1_555 1_555
H3 C4 1_555 1_555
C5 N1 1_555 1_555
H4 C5 1_555 1_555
C6 C3 1_555 1_555
H5 C6 1_555 1_555
H6 C6 1_555 1_555
C7 N2 1_555 1_555
H7 C7 1_555 1_555
C8 C7 1_555 1_555
H8 C8 1_555 1_555
C9 C8 1_555 1_555
C10 C9 1_555 1_555
H9 C10 1_555 1_555
C11 N2 1_555 1_555
H10 C11 1_555 1_555
C12 C9 1_555 1_555
H11 C12 1_555 1_555
H12 C12 1_555 1_555
C13 H13 1_555 1_555
H14 C13 1_555 1_555
H15 C13 1_555 1_555
O12 La1 1_555 1_555
H16 O12 1_555 1_555
C14 H17 1_555 1_555
H18 C14 1_555 1_555
H19 C14 1_555 1_555
O13 C14 1_555 1_555
H20 O13 1_555 1_555
C15 Cl1 1_555 1_555
Cl3 C15 1_555 1_555
C6A C6 1_555 1_555
C3A C6A 1_555 1_555
C2A C3A 1_555 1_555
C1A C2A 1_555 1_555
N1A C1A 1_555 1_555
O1A N1A 1_555 1_555
C5A N1A 1_555 1_555
C4A C3A 1_555 1_555
H3A C4A 1_555 1_555
H4A C5A 1_555 1_555
H1A C1A 1_555 1_555
H2A C2A 1_555 1_555
H5A C6A 1_555 1_555
H6A C6A 1_555 1_555
C12A C12 1_555 1_555
C9A C12A 1_555 1_555
C8A C9A 1_555 1_555
C7A C8A 1_555 1_555
N2A C7A 1_555 1_555
O2A N2A 1_555 1_555
C11A N2A 1_555 1_555
C10A C9A 1_555 1_555
H9A C10A 1_555 1_555
H10A C11A 1_555 1_555
H7A C7A 1_555 1_555
H8A C8A 1_555 1_555
H11A C12A 1_555 1_555
H12A C12A 1_555 1_555
La1A O1A 1_555 1_555
O3A La1A 1_555 1_555
O4A La1A 1_555 1_555
O5A N3A 1_555 1_555
N3A O3A 1_555 1_555
O6A La1A 1_555 1_555
O7A La1A 1_555 1_555
O8A N4A 1_555 1_555
N4A O6A 1_555 1_555
O9A La1A 1_555 1_555
O10A La1A 1_555 1_555
O11A N5A 1_555 1_555
N5A O9A 1_555 1_555
C13A H13A 1_555 1_555
H14A C13A 1_555 1_555
H15A C13A 1_555 1_555
O12A La1A 1_555 1_555
H16A O12A 1_555 1_555
O1A_2 La1 1_555 1_555
La1A_2 O1 1_555 1_555
La1_2 O1A 1_555 1_555
La1A_3 O2A 1_555 1_555
O1_2 La1A 1_555 1_555
O2A_2 La1A 1_555 1_555
O4 N3 1_555 1_555
O7 N4 1_555 1_555
O10 N5 1_555 1_555
C4 C5 1_555 1_555
C10 C11 1_555 1_555
C13 O12 1_555 1_555
C5A C4A 1_555 1_555
C11A C10A 1_555 1_555
O4A N3A 1_555 1_555
O7A N4A 1_555 1_555
O10A N5A 1_555 1_555
C13A O12A 1_555 1_555
O1A_2 La1A_2 1_555 1_555
La1_2 O1_2 1_555 1_555

#END
