
#######################################################################
#
#                 Cambridge Crystallographic Data Centre
#                                CCDC 
#
#######################################################################
#
# If this CIF has been generated from an entry in the Cambridge 
# Structural Database, then it will include bibliographic, chemical, 
# crystal, experimental, refinement or atomic coordinate data resulting 
# from the CCDC's data processing and validation procedures.
#
#######################################################################

data_WUHJIS
_symmetry_cell_setting           monoclinic
_symmetry_space_group_name_H-M   'P 21/n'
_symmetry_Int_Tables_number      14
_space_group_name_Hall           '-P 2yn'
loop_
_symmetry_equiv_pos_site_id
_symmetry_equiv_pos_as_xyz
1 x,y,z
2 1/2+x,1/2-y,1/2+z
3 -x,-y,-z
4 1/2-x,1/2+y,1/2-z
_cell_length_a                   8.3329(15)
_cell_length_b                   15.215(3)
_cell_length_c                   19.602(4)
_cell_angle_alpha                90
_cell_angle_beta                 94.882(4)
_cell_angle_gamma                90
_cell_volume                     2476.22
loop_
_atom_site_label
_atom_site_type_symbol
_atom_site_fract_x
_atom_site_fract_y
_atom_site_fract_z
Yb1 Yb 0.42992(4) 0.62437(2) 0.761364(14)
O1 O 0.3376(6) 0.4905(4) 0.7906(3)
N1 N 0.4128(7) 0.4304(4) 0.8325(3)
O2 O 0.8345(8) -0.0896(4) 1.1544(3)
N2 N 0.7676(8) -0.0251(5) 1.1163(3)
O3 O 0.3798(7) 0.7636(4) 0.7278(3)
N3 N 0.4371(7) 0.8122(4) 0.6776(3)
C1 C 0.4192(9) 0.4413(6) 0.9006(4)
H1 H 0.3723 0.4907 0.9185
C2 C 0.4939(11) 0.3805(6) 0.9444(4)
H2 H 0.4956 0.3892 0.9915
C3 C 0.5665(10) 0.3067(6) 0.9198(4)
C4 C 0.5544(11) 0.2963(6) 0.8477(4)
H3 H 0.5981 0.2466 0.8288
C5 C 0.4795(10) 0.3583(6) 0.8052(4)
H4 H 0.4744 0.3510 0.7579
C6 C 0.6539(11) 0.2402(7) 0.9661(5)
H5 H 0.7416 0.2146 0.9434
H6 H 0.6989 0.2687 1.0077
C7 C 0.5382(11) 0.1691(7) 0.9837(5)
H7 H 0.4492 0.1953 1.0052
H8 H 0.4949 0.1402 0.9420
C8 C 0.6760(10) 0.0356(6) 1.1414(4)
H9 H 0.6612 0.0353 1.1879
C9 C 0.6026(11) 0.0988(6) 1.1005(4)
H10 H 0.5385 0.1409 1.1194
C10 C 0.6221(11) 0.1010(6) 1.0321(4)
C11 C 0.7198(12) 0.0362(7) 1.0081(5)
H11 H 0.7342 0.0343 0.9616
C12 C 0.7940(11) -0.0235(6) 1.0495(4)
H12 H 0.8637 -0.0639 1.0323
C13 C 0.4096(10) 0.7857(5) 0.6118(4)
H13 H 0.3565 0.7329 0.6018
C14 C 0.4601(10) 0.8365(6) 0.5598(4)
H14 H 0.4446 0.8170 0.5147
C15 C 0.5340(8) 0.9168(6) 0.5742(4)
C16 C 0.5648(10) 0.9397(6) 0.6428(4)
H15 H 0.6193 0.9917 0.6541
C17 C 0.5165(10) 0.8870(6) 0.6938(4)
H16 H 0.5386 0.9030 0.7394
C18 C 0.5757(9) 0.9762(6) 0.5159(4)
H17 H 0.6220 0.9413 0.4810
H18 H 0.6552 1.0192 0.5329
N4 N 0.1493(11) 0.6561(6) 0.8297(5)
O4 O 0.2911(8) 0.6649(5) 0.8592(3)
O5 O 0.1409(7) 0.6395(5) 0.7692(4)
O6 O 0.0300(10) 0.6644(7) 0.8620(5)
N5 N 0.6498(8) 0.6664(6) 0.8778(3)
O7 O 0.6093(7) 0.7236(4) 0.8322(3)
O8 O 0.6030(8) 0.5897(5) 0.8648(3)
O9 O 0.7222(8) 0.6870(6) 0.9319(3)
N6 N 0.7123(9) 0.5789(6) 0.6967(3)
O10 O 0.6392(8) 0.5230(5) 0.7322(3)
O11 O 0.6569(7) 0.6557(4) 0.6936(3)
O12 O 0.8289(8) 0.5571(6) 0.6677(3)
C18B C 0.4243(9) 1.0238(6) 0.4841(4)
C15B C 0.4660(8) 1.0832(6) 0.4258(4)
C14B C 0.5399(10) 1.1635(6) 0.4402(4)
C13B C 0.5904(10) 1.2143(5) 0.3882(4)
N3B N 0.5629(7) 1.1878(4) 0.3224(3)
O3B O 0.6202(7) 1.2364(4) 0.2722(3)
C17B C 0.4835(10) 1.1130(6) 0.3062(4)
C16B C 0.4352(10) 1.0603(6) 0.3572(4)
H15B H 0.3807 1.0083 0.3459
H16B H 0.4614 1.0970 0.2606
H13B H 0.6435 1.2671 0.3982
H14B H 0.5554 1.1830 0.4853
H17B H 0.3780 1.0587 0.5190
H18B H 0.3448 0.9808 0.4671
O1A O -0.1624(6) 0.0095(4) 0.2906(3)
N1A N -0.0872(7) 0.0696(4) 0.3325(3)
O2A O 0.3345(8) 0.5896(4) 0.6544(3)
N2A N 0.2676(8) 0.5251(5) 0.6163(3)
C1A C -0.0808(9) 0.0587(6) 0.4006(4)
H1A H -0.1277 0.0093 0.4185
C2A C -0.0061(11) 0.1195(6) 0.4444(4)
H2A H -0.0044 0.1108 0.4915
C3A C 0.0665(10) 0.1933(6) 0.4198(4)
C4A C 0.0544(11) 0.2037(6) 0.3477(4)
H3A H 0.0981 0.2534 0.3288
C5A C -0.0205(10) 0.1417(6) 0.3052(4)
H4A H -0.0256 0.1490 0.2579
C6A C 0.1539(11) 0.2598(7) 0.4661(5)
H5A H 0.2416 0.2854 0.4434
H6A H 0.1989 0.2313 0.5077
C7A C 0.0382(11) 0.3309(7) 0.4837(5)
H7A H -0.0508 0.3047 0.5052
H8A H -0.0051 0.3598 0.4420
C8A C 0.1760(10) 0.4644(6) 0.6414(4)
H9A H 0.1612 0.4647 0.6879
C9A C 0.1026(11) 0.4012(6) 0.6005(4)
H10A H 0.0385 0.3591 0.6194
C10A C 0.1221(11) 0.3990(6) 0.5321(4)
C11A C 0.2198(12) 0.4638(7) 0.5081(5)
H11A H 0.2342 0.4657 0.4616
C12A C 0.2940(11) 0.5235(6) 0.5495(4)
H12A H 0.3637 0.5639 0.5323
Yb1A Yb -0.07008(4) -0.12437(2) 0.261364(14)
N4A N -0.3507(11) -0.1561(6) 0.3297(5)
O4A O -0.2089(8) -0.1649(5) 0.3592(3)
O5A O -0.3591(7) -0.1395(5) 0.2692(4)
O6A O -0.4700(10) -0.1644(7) 0.3620(5)
N5A N 0.1498(8) -0.1664(6) 0.3778(3)
O7A O 0.1093(7) -0.2236(4) 0.3322(3)
O8A O 0.1030(8) -0.0897(5) 0.3648(3)
O9A O 0.2222(8) -0.1870(6) 0.4319(3)
N6A N 0.2123(9) -0.0789(6) 0.1967(3)
O10A O 0.1392(8) -0.0230(5) 0.2322(3)
O11A O 0.1569(7) -0.1557(4) 0.1936(3)
O12A O 0.3289(8) -0.0571(6) 0.1677(3)
Yb1A_2 Yb 0.92992(4) -0.12437(2) 1.261364(14)
Yb1B Yb 0.57008(4) 1.37563(2) 0.238636(14)
O2_2 O -0.1655(8) -0.0896(4) 0.1544(3)
O3A O -0.1202(7) -0.2636(4) 0.2278(3)
O13 O 0.407(2) 0.6267(11) 0.3867(8)
O14? O 0.400(2) 0.6597(10) 0.4401(8)
loop_
_geom_bond_atom_site_label_1
_geom_bond_atom_site_label_2
_geom_bond_site_symmetry_1
_geom_bond_site_symmetry_2
Yb1 O1 1_555 1_555
O1 N1 1_555 1_555
N1 C1 1_555 1_555
O2 N2 1_555 1_555
N2 C8 1_555 1_555
O3 Yb1 1_555 1_555
N3 O3 1_555 1_555
C1 H1 1_555 1_555
C2 C1 1_555 1_555
H2 C2 1_555 1_555
C3 C2 1_555 1_555
C4 C3 1_555 1_555
H3 C4 1_555 1_555
C5 N1 1_555 1_555
H4 C5 1_555 1_555
C6 C3 1_555 1_555
H5 C6 1_555 1_555
H6 C6 1_555 1_555
C7 C6 1_555 1_555
H7 C7 1_555 1_555
H8 C7 1_555 1_555
C8 H9 1_555 1_555
C9 C8 1_555 1_555
H10 C9 1_555 1_555
C10 C7 1_555 1_555
C11 C10 1_555 1_555
H11 C11 1_555 1_555
C12 N2 1_555 1_555
H12 C12 1_555 1_555
C13 N3 1_555 1_555
H13 C13 1_555 1_555
C14 C13 1_555 1_555
H14 C14 1_555 1_555
C15 C14 1_555 1_555
C16 C15 1_555 1_555
H15 C16 1_555 1_555
C17 N3 1_555 1_555
H16 C17 1_555 1_555
C18 C15 1_555 1_555
H17 C18 1_555 1_555
H18 C18 1_555 1_555
N4 O4 1_555 1_555
O4 Yb1 1_555 1_555
O5 Yb1 1_555 1_555
O6 N4 1_555 1_555
N5 O7 1_555 1_555
O7 Yb1 1_555 1_555
O8 Yb1 1_555 1_555
O9 N5 1_555 1_555
N6 O10 1_555 1_555
O10 Yb1 1_555 1_555
O11 Yb1 1_555 1_555
O12 N6 1_555 1_555
C18B C18 1_555 1_555
C15B C18B 1_555 1_555
C14B C15B 1_555 1_555
C13B C14B 1_555 1_555
N3B C13B 1_555 1_555
O3B N3B 1_555 1_555
C17B N3B 1_555 1_555
C16B C15B 1_555 1_555
H15B C16B 1_555 1_555
H16B C17B 1_555 1_555
H13B C13B 1_555 1_555
H14B C14B 1_555 1_555
H17B C18B 1_555 1_555
H18B C18B 1_555 1_555
O1A N1A 1_555 1_555
N1A C1A 1_555 1_555
O2A Yb1 1_555 1_555
N2A O2A 1_555 1_555
C1A H1A 1_555 1_555
C2A C1A 1_555 1_555
H2A C2A 1_555 1_555
C3A C2A 1_555 1_555
C4A C3A 1_555 1_555
H3A C4A 1_555 1_555
C5A N1A 1_555 1_555
H4A C5A 1_555 1_555
C6A C3A 1_555 1_555
H5A C6A 1_555 1_555
H6A C6A 1_555 1_555
C7A C6A 1_555 1_555
H7A C7A 1_555 1_555
H8A C7A 1_555 1_555
C8A N2A 1_555 1_555
H9A C8A 1_555 1_555
C9A C8A 1_555 1_555
H10A C9A 1_555 1_555
C10A C7A 1_555 1_555
C11A C10A 1_555 1_555
H11A C11A 1_555 1_555
C12A N2A 1_555 1_555
H12A C12A 1_555 1_555
Yb1A O1A 1_555 1_555
N4A O4A 1_555 1_555
O4A Yb1A 1_555 1_555
O5A Yb1A 1_555 1_555
O6A N4A 1_555 1_555
N5A O7A 1_555 1_555
O7A Yb1A 1_555 1_555
O8A Yb1A 1_555 1_555
O9A N5A 1_555 1_555
N6A O10A 1_555 1_555
O10A Yb1A 1_555 1_555
O11A Yb1A 1_555 1_555
O12A N6A 1_555 1_555
Yb1A_2 O2 1_555 1_555
Yb1B O3B 1_555 1_555
O2_2 Yb1A 1_555 1_555
O3A Yb1A 1_555 1_555
C4 C5 1_555 1_555
C9 C10 1_555 1_555
C11 C12 1_555 1_555
C16 C17 1_555 1_555
N4 O5 1_555 1_555
N5 O8 1_555 1_555
N6 O11 1_555 1_555
C17B C16B 1_555 1_555
C4A C5A 1_555 1_555
C9A C10A 1_555 1_555
C11A C12A 1_555 1_555
N4A O5A 1_555 1_555
N5A O8A 1_555 1_555
N6A O11A 1_555 1_555

#END
