
#######################################################################
#
#                 Cambridge Crystallographic Data Centre
#                                CCDC 
#
#######################################################################
#
# If this CIF has been generated from an entry in the Cambridge 
# Structural Database, then it will include bibliographic, chemical, 
# crystal, experimental, refinement or atomic coordinate data resulting 
# from the CCDC's data processing and validation procedures.
#
#######################################################################

data_WUHJEO
_symmetry_cell_setting           monoclinic
_symmetry_space_group_name_H-M   'P 21/n'
_symmetry_Int_Tables_number      14
_space_group_name_Hall           '-P 2yn'
loop_
_symmetry_equiv_pos_site_id
_symmetry_equiv_pos_as_xyz
1 x,y,z
2 1/2+x,1/2-y,1/2+z
3 -x,-y,-z
4 1/2-x,1/2+y,1/2-z
_cell_length_a                   8.3115(17)
_cell_length_b                   15.243(3)
_cell_length_c                   19.580(4)
_cell_angle_alpha                90
_cell_angle_beta                 94.797(4)
_cell_angle_gamma                90
_cell_volume                     2471.94
loop_
_atom_site_label
_atom_site_type_symbol
_atom_site_fract_x
_atom_site_fract_y
_atom_site_fract_z
Er1 Er 0.43118(5) 0.62442(3) 0.762118(19)
O1 O 0.3371(8) 0.4888(4) 0.7917(3)
N1 N 0.4139(9) 0.4305(5) 0.8330(4)
O2 O 0.8349(10) -0.0890(5) 1.1546(3)
N2 N 0.7679(9) -0.0256(5) 1.1163(4)
O3 O 0.3806(8) 0.7651(4) 0.7272(3)
N3 N 0.4377(9) 0.8122(5) 0.6773(4)
C1 C 0.4199(12) 0.4407(6) 0.9005(5)
H1 H 0.3717 0.4892 0.9192
C2 C 0.4995(13) 0.3779(7) 0.9436(5)
H2 H 0.5060 0.3869 0.9908
C3 C 0.5672(13) 0.3044(7) 0.9191(5)
C4 C 0.5541(13) 0.2959(6) 0.8475(5)
H3 H 0.5985 0.2472 0.8275
C5 C 0.4766(12) 0.3588(6) 0.8065(5)
H4 H 0.4676 0.3511 0.7592
C6 C 0.6540(13) 0.2378(7) 0.9664(6)
H5 H 0.6976 0.2664 1.0082
H6 H 0.7430 0.2121 0.9443
C7 C 0.5383(13) 0.1676(7) 0.9832(6)
H7 H 0.4489 0.1933 1.0049
H8 H 0.4955 0.1386 0.9414
C8 C 0.6786(13) 0.0357(7) 1.1420(5)
H9 H 0.6656 0.0362 1.1888
C9 C 0.6050(13) 0.0985(7) 1.1006(5)
H10 H 0.5401 0.1404 1.1192
C10 C 0.6256(14) 0.1005(7) 1.0315(5)
C11 C 0.7236(16) 0.0365(8) 1.0084(5)
H11 H 0.7428 0.0362 0.9622
C12 C 0.7924(13) -0.0252(7) 1.0492(5)
H12 H 0.8571 -0.0679 1.0314
C13 C 0.4142(12) 0.7862(6) 0.6124(5)
H13 H 0.3641 0.7326 0.6023
C14 C 0.4619(12) 0.8365(7) 0.5604(5)
H14 H 0.4458 0.8166 0.5154
C15 C 0.5349(10) 0.9179(6) 0.5741(5)
C16 C 0.5642(12) 0.9399(7) 0.6424(5)
H15 H 0.6177 0.9921 0.6541
C17 C 0.5164(12) 0.8871(6) 0.6930(5)
H16 H 0.5386 0.9032 0.7386
C18 C 0.5751(11) 0.9762(6) 0.5157(5)
H17 H 0.6206 0.9410 0.4809
H18 H 0.6555 1.0189 0.5324
N4 N 0.1500(14) 0.6549(6) 0.8303(5)
O4 O 0.2902(10) 0.6653(5) 0.8606(4)
O5 O 0.1407(8) 0.6405(5) 0.7706(4)
O6 O 0.0306(12) 0.6647(7) 0.8630(6)
N5 N 0.6497(10) 0.6681(7) 0.8789(5)
O7 O 0.6084(9) 0.7246(5) 0.8324(4)
O8 O 0.6048(9) 0.5911(5) 0.8661(4)
O9 O 0.7233(10) 0.6904(6) 0.9327(4)
N6 N 0.7149(12) 0.5763(6) 0.6966(4)
O10 O 0.6419(10) 0.5236(5) 0.7334(4)
O11 O 0.6576(8) 0.6557(4) 0.6938(4)
O12 O 0.8320(10) 0.5560(6) 0.6678(4)
C18B C 0.4249(11) 1.0238(6) 0.4843(5)
C15B C 0.4651(10) 1.0821(6) 0.4259(5)
C14B C 0.5381(12) 1.1635(7) 0.4396(5)
C13B C 0.5858(12) 1.2138(6) 0.3876(5)
N3B N 0.5623(9) 1.1878(5) 0.3227(4)
O3B O 0.6194(8) 1.2349(4) 0.2728(3)
C17B C 0.4836(12) 1.1129(6) 0.3070(5)
C16B C 0.4358(12) 1.0601(7) 0.3576(5)
H15B H 0.3823 1.0079 0.3459
H16B H 0.4614 1.0968 0.2614
H13B H 0.6359 1.2674 0.3977
H14B H 0.5542 1.1834 0.4846
H17B H 0.3794 1.0590 0.5191
H18B H 0.3445 0.9811 0.4676
O1A O -0.1629(8) 0.0112(4) 0.2917(3)
N1A N -0.0861(9) 0.0695(5) 0.3330(4)
O2A O 0.3349(10) 0.5890(5) 0.6546(3)
N2A N 0.2679(9) 0.5256(5) 0.6163(4)
C1A C -0.0801(12) 0.0593(6) 0.4005(5)
H1A H -0.1283 0.0108 0.4192
C2A C -0.0005(13) 0.1221(7) 0.4436(5)
H2A H 0.0060 0.1131 0.4908
C3A C 0.0672(13) 0.1956(7) 0.4191(5)
C4A C 0.0541(13) 0.2041(6) 0.3475(5)
H3A H 0.0985 0.2528 0.3275
C5A C -0.0234(12) 0.1412(6) 0.3065(5)
H4A H -0.0324 0.1489 0.2592
C6A C 0.1540(13) 0.2622(7) 0.4664(6)
H5A H 0.1976 0.2336 0.5082
H6A H 0.2430 0.2879 0.4443
C7A C 0.0383(13) 0.3324(7) 0.4832(6)
H7A H -0.0511 0.3067 0.5049
H8A H -0.0045 0.3614 0.4414
C8A C 0.1786(13) 0.4643(7) 0.6420(5)
H9A H 0.1656 0.4638 0.6888
C9A C 0.1050(13) 0.4015(7) 0.6006(5)
H10A H 0.0401 0.3596 0.6192
C10A C 0.1256(14) 0.3995(7) 0.5315(5)
C11A C 0.2236(16) 0.4635(8) 0.5084(5)
H11A H 0.2428 0.4638 0.4622
C12A C 0.2924(13) 0.5252(7) 0.5492(5)
H12A H 0.3571 0.5679 0.5314
Er1A Er -0.06882(5) -0.12442(3) 0.262118(19)
N4A N -0.3500(14) -0.1549(6) 0.3303(5)
O4A O -0.2098(10) -0.1653(5) 0.3606(4)
O5A O -0.3593(8) -0.1405(5) 0.2706(4)
O6A O -0.4694(12) -0.1647(7) 0.3630(6)
N5A N 0.1497(10) -0.1681(7) 0.3789(5)
O7A O 0.1084(9) -0.2246(5) 0.3324(4)
O8A O 0.1048(9) -0.0911(5) 0.3661(4)
O9A O 0.2233(10) -0.1904(6) 0.4327(4)
N6A N 0.2149(12) -0.0763(6) 0.1966(4)
O10A O 0.1419(10) -0.0236(5) 0.2334(4)
O11A O 0.1576(8) -0.1557(4) 0.1938(4)
O12A O 0.3320(10) -0.0560(6) 0.1678(4)
Er1A_2 Er 0.93118(5) -0.12442(3) 1.262118(19)
Er1B Er 0.56882(5) 1.37558(3) 0.237882(19)
O2_2 O -0.1651(10) -0.0890(5) 0.1546(3)
O3A O -0.1194(8) -0.2651(4) 0.2272(3)
O13 O 0.408(2) 0.6264(11) 0.3850(8)
O14? O 0.395(3) 0.6575(11) 0.4381(9)
loop_
_geom_bond_atom_site_label_1
_geom_bond_atom_site_label_2
_geom_bond_site_symmetry_1
_geom_bond_site_symmetry_2
Er1 O1 1_555 1_555
O1 N1 1_555 1_555
N1 C1 1_555 1_555
O2 N2 1_555 1_555
N2 C8 1_555 1_555
O3 Er1 1_555 1_555
N3 O3 1_555 1_555
C1 H1 1_555 1_555
C2 C1 1_555 1_555
H2 C2 1_555 1_555
C3 C2 1_555 1_555
C4 C3 1_555 1_555
H3 C4 1_555 1_555
C5 N1 1_555 1_555
H4 C5 1_555 1_555
C6 C3 1_555 1_555
H5 C6 1_555 1_555
H6 C6 1_555 1_555
C7 C6 1_555 1_555
H7 C7 1_555 1_555
H8 C7 1_555 1_555
C8 H9 1_555 1_555
C9 C8 1_555 1_555
H10 C9 1_555 1_555
C10 C7 1_555 1_555
C11 C10 1_555 1_555
H11 C11 1_555 1_555
C12 N2 1_555 1_555
H12 C12 1_555 1_555
C13 N3 1_555 1_555
H13 C13 1_555 1_555
C14 C13 1_555 1_555
H14 C14 1_555 1_555
C15 C14 1_555 1_555
C16 C15 1_555 1_555
H15 C16 1_555 1_555
C17 N3 1_555 1_555
H16 C17 1_555 1_555
C18 C15 1_555 1_555
H17 C18 1_555 1_555
H18 C18 1_555 1_555
N4 O4 1_555 1_555
O4 Er1 1_555 1_555
O5 Er1 1_555 1_555
O6 N4 1_555 1_555
N5 O7 1_555 1_555
O7 Er1 1_555 1_555
O8 Er1 1_555 1_555
O9 N5 1_555 1_555
N6 O10 1_555 1_555
O10 Er1 1_555 1_555
O11 Er1 1_555 1_555
O12 N6 1_555 1_555
C18B C18 1_555 1_555
C15B C18B 1_555 1_555
C14B C15B 1_555 1_555
C13B C14B 1_555 1_555
N3B C13B 1_555 1_555
O3B N3B 1_555 1_555
C17B N3B 1_555 1_555
C16B C15B 1_555 1_555
H15B C16B 1_555 1_555
H16B C17B 1_555 1_555
H13B C13B 1_555 1_555
H14B C14B 1_555 1_555
H17B C18B 1_555 1_555
H18B C18B 1_555 1_555
O1A N1A 1_555 1_555
N1A C1A 1_555 1_555
O2A Er1 1_555 1_555
N2A O2A 1_555 1_555
C1A H1A 1_555 1_555
C2A C1A 1_555 1_555
H2A C2A 1_555 1_555
C3A C2A 1_555 1_555
C4A C3A 1_555 1_555
H3A C4A 1_555 1_555
C5A N1A 1_555 1_555
H4A C5A 1_555 1_555
C6A C3A 1_555 1_555
H5A C6A 1_555 1_555
H6A C6A 1_555 1_555
C7A C6A 1_555 1_555
H7A C7A 1_555 1_555
H8A C7A 1_555 1_555
C8A N2A 1_555 1_555
H9A C8A 1_555 1_555
C9A C8A 1_555 1_555
H10A C9A 1_555 1_555
C10A C7A 1_555 1_555
C11A C10A 1_555 1_555
H11A C11A 1_555 1_555
C12A N2A 1_555 1_555
H12A C12A 1_555 1_555
Er1A O1A 1_555 1_555
N4A O4A 1_555 1_555
O4A Er1A 1_555 1_555
O5A Er1A 1_555 1_555
O6A N4A 1_555 1_555
N5A O7A 1_555 1_555
O7A Er1A 1_555 1_555
O8A Er1A 1_555 1_555
O9A N5A 1_555 1_555
N6A O10A 1_555 1_555
O10A Er1A 1_555 1_555
O11A Er1A 1_555 1_555
O12A N6A 1_555 1_555
Er1A_2 O2 1_555 1_555
Er1B O3B 1_555 1_555
O2_2 Er1A 1_555 1_555
O3A Er1A 1_555 1_555
C4 C5 1_555 1_555
C9 C10 1_555 1_555
C11 C12 1_555 1_555
C16 C17 1_555 1_555
N4 O5 1_555 1_555
N5 O8 1_555 1_555
N6 O11 1_555 1_555
C17B C16B 1_555 1_555
C4A C5A 1_555 1_555
C9A C10A 1_555 1_555
C11A C12A 1_555 1_555
N4A O5A 1_555 1_555
N5A O8A 1_555 1_555
N6A O11A 1_555 1_555

#END
