
#######################################################################
#
#                 Cambridge Crystallographic Data Centre
#                                CCDC 
#
#######################################################################
#
# If this CIF has been generated from an entry in the Cambridge 
# Structural Database, then it will include bibliographic, chemical, 
# crystal, experimental, refinement or atomic coordinate data resulting 
# from the CCDC's data processing and validation procedures.
#
#######################################################################

data_WUHJEP
_symmetry_cell_setting           monoclinic
_symmetry_space_group_name_H-M   'C 2/c'
_symmetry_Int_Tables_number      15
_space_group_name_Hall           '-C 2yn'
loop_
_symmetry_equiv_pos_site_id
_symmetry_equiv_pos_as_xyz
1 x,y,z
2 -x,y,1/2-z
3 1/2+x,1/2+y,z
4 1/2-x,1/2+y,1/2-z
5 -x,-y,-z
6 x,-y,1/2+z
7 1/2-x,1/2-y,-z
8 1/2+x,1/2-y,1/2+z
_cell_length_a                   19.9721(8)
_cell_length_b                   22.1174(10)
_cell_length_c                   24.3182(10)
_cell_angle_alpha                90
_cell_angle_beta                 95.552(2)
_cell_angle_gamma                90
_cell_volume                     10691.7
loop_
_atom_site_label
_atom_site_type_symbol
_atom_site_fract_x
_atom_site_fract_y
_atom_site_fract_z
C1 C 0.47736(11) 0.58624(11) 0.55784(9)
H1 H 0.5103 0.5574 0.5448
H2 H 0.4996 0.6261 0.5633
C2 C 0.45463(12) 0.56414(10) 0.61249(10)
C3 C 0.39380(11) 0.53183(10) 0.49613(10)
H3 H 0.4191 0.5184 0.4653
H4 H 0.4010 0.5017 0.5263
C4 C 0.31880(12) 0.53572(10) 0.47663(9)
C5 C 0.43312(11) 0.63007(10) 0.46886(9)
H5 H 0.4814 0.6271 0.4630
H6 H 0.4064 0.6157 0.4349
C6 C 0.06322(11) 0.64472(10) 0.32054(9)
H7 H 0.0851 0.6073 0.3358
H8 H 0.0531 0.6394 0.2802
C7 C 0.08585(11) 0.74967(10) 0.29854(9)
H9 H 0.0361 0.7509 0.2942
H10 H 0.1018 0.7466 0.2613
C8 C 0.11306(11) 0.80732(10) 0.32662(9)
C9 C 0.17986(11) 0.68267(10) 0.32281(9)
H11 H 0.2013 0.7190 0.3085
H12 H 0.1809 0.6501 0.2949
C10 C 0.34875(12) 0.99022(10) 0.43375(9)
H13 H 0.3061 0.9882 0.4094
H14 H 0.3820 1.0128 0.4141
C11 C 0.33715(12) 1.02303(11) 0.48755(10)
C12 C 0.44470(11) 0.92938(10) 0.47100(9)
H15 H 0.4529 0.9656 0.4946
H16 H 0.4751 0.9313 0.4412
C13 C 0.45921(11) 0.87240(10) 0.50532(9)
C14 C 0.32890(12) 0.63355(10) 0.10175(9)
H17 H 0.3188 0.6011 0.0735
C15 C 0.31875(12) 0.69393(10) 0.07046(9)
H18 H 0.2726 0.6905 0.0507
C16 C 0.31467(12) 0.75062(10) 0.10745(10)
H19 H 0.2961 0.7835 0.0821
C17 C 0.26054(12) 0.73911(11) 0.14766(9)
H20 H 0.2187 0.7310 0.1227
C18 C 0.27063(11) 0.68064(10) 0.18263(9)
H21 H 0.2278 0.6747 0.2001
C19 C 0.27625(11) 0.62635(10) 0.14398(9)
H22 H 0.2323 0.6263 0.1205
C20 C 0.40237(12) 0.62531(11) 0.12344(10)
C21 C 0.36521(13) 0.69814(11) 0.02346(10)
C22 C 0.37923(13) 0.77659(11) 0.13816(11)
C23 C 0.24443(12) 0.79703(11) 0.17819(10)
C24 C 0.27589(11) 0.56594(10) 0.17563(10)
C25 C 0.32685(12) 0.68010(10) 0.23015(9)
C26 C -0.00175(12) 0.65579(11) 0.34715(10)
C27 C 0.36702(11) 0.88729(10) 0.39832(9)
H23 H 0.4056 0.8590 0.4007
H24 H 0.3678 0.9110 0.3639
Co1 Co 0.098630(15) 0.724680(13) 0.416940(12)
Co2 Co 0.337845(15) 0.628016(13) 0.560945(12)
Co3 Co 0.362000(15) 0.724370(13) 0.352670(12)
Co4 Co 0.553775(15) 0.775020(14) 0.550979(13)
Co5 Co 0.318180(15) 0.896520(13) 0.513900(12)
Co6 Co 0.328188(15) 0.566305(14) 0.680376(12)
Co7 Co 0.204524(16) 0.504564(14) 0.392545(13)
Co8 Co 0.2500 0.7500 0.5000
N1 N 0.41897(10) 0.59149(9) 0.51625(8)
N2 N 0.10878(9) 0.69658(8) 0.33179(8)
N3 N 0.37391(10) 0.92866(9) 0.44659(8)
O1 O 0.39095(8) 0.56439(7) 0.61508(7)
O2 O 0.49678(9) 0.54878(8) 0.65079(7)
O3 O 0.28436(8) 0.57266(7) 0.50322(7)
O4 O 0.29729(9) 0.50238(8) 0.43793(7)
O5 O 0.46165(8) 0.73161(7) 0.52924(7)
O6 O 0.34326(8) 0.70333(7) 0.50694(7)
O7 O -0.05194(9) 0.62346(9) 0.33471(8)
O8 O 0.00122(8) 0.69857(8) 0.38272(7)
O9 O 0.12704(9) 0.85045(7) 0.29697(7)
O10 O 0.11762(8) 0.80708(7) 0.37956(7)
O11 O 0.30025(8) 0.65875(7) 0.38022(7)
O12 O 0.20330(8) 0.70349(7) 0.43075(6)
O13 O 0.33908(9) 0.98961(7) 0.53043(7)
O14 O 0.32599(10) 1.07847(8) 0.48670(8)
O15 O 0.51558(8) 0.84906(8) 0.50534(7)
O16 O 0.41098(8) 0.85462(7) 0.53272(7)
O17 O 0.29219(8) 0.79305(7) 0.35668(6)
O18 O 0.28254(8) 0.82710(7) 0.45724(6)
O19 O 0.23107(8) 0.88930(7) 0.38152(6)
O20 O 0.19887(8) 0.59705(7) 0.40270(7)
O21 O 0.41122(8) 0.74320(7) 0.42928(7)
O22 O 0.42708(8) 0.65049(8) 0.33582(7)
H25 H 0.4639 0.6393 0.3533
H26 H 0.4016 0.6197 0.3317
O23 O 0.43771(10) 0.78217(8) 0.32495(8)
H27 H 0.4779 0.7772 0.3391
H28 H 0.4393 0.7950 0.2921
O24 O 0.62767(8) 0.83675(8) 0.58258(7)
H29 H 0.6240 0.8516 0.6144
H30 H 0.6511 0.8611 0.5654
O25 O 0.59564(9) 0.70601(8) 0.59743(7)
H31 H 0.5792 0.6728 0.5848
H32 H 0.6347 0.6987 0.6132
O26 O 0.25904(9) 0.58218(8) 0.73710(7)
H33 H 0.2396 0.5913 0.7656
H34 H 0.2392 0.6011 0.7098
O27 O 0.40552(9) 0.53123(9) 0.73499(8)
H35 H 0.4181 0.5309 0.7694
H36 H 0.4400 0.5250 0.7179
O28 O 0.11665(9) 0.50379(8) 0.34037(8)
H37 H 0.0957 0.5229 0.3137
H38 H 0.0894 0.4980 0.3646
O29 O 0.26174(9) 0.50621(8) 0.32220(7)
H39 H 0.2545 0.5124 0.2876
H40 H 0.2842 0.4736 0.3268
O30 O 0.19473(10) 0.41230(8) 0.40278(8)
H41 H 0.1926 0.3930 0.4328
H42 H 0.2023 0.3868 0.3779
O31 O 0.44328(9) 0.66656(8) 0.12359(8)
O32 O 0.42202(9) 0.57017(8) 0.13792(8)
H43 H 0.3881 0.5482 0.1403
O33 O 0.37266(12) 0.65226(9) -0.00390(8)
O34 O 0.39071(9) 0.75045(8) 0.01428(7)
O35 O 0.42641(9) 0.79658(8) 0.10775(8)
H44 H 0.4178 0.7848 0.0750
O36 O 0.38469(10) 0.78427(9) 0.18749(8)
O37 O 0.22948(10) 0.84285(8) 0.15218(8)
O38 O 0.24150(9) 0.79570(8) 0.23175(7)
H45 H 0.2672 0.7685 0.2457
O39 O 0.37482(9) 0.64528(8) 0.22964(7)
O40 O 0.31718(9) 0.71565(8) 0.27076(7)
O41 O 0.24445(9) 0.56319(8) 0.21709(8)
O42 O 0.30490(9) 0.52129(8) 0.15410(7)
P1 P 0.22649(3) 0.65901(3) 0.38680(2)
P2 P 0.41199(3) 0.70782(3) 0.48188(2)
P3 P 0.28937(3) 0.84480(2) 0.39620(2)
C1F C 0.02264(11) 0.91376(11) 0.44216(9)
H1F H -0.0103 0.9426 0.4552
H2F H 0.0004 0.8739 0.4367
C2F C 0.04537(12) 0.93586(10) 0.38751(10)
C3F C 0.10620(11) 0.96817(10) 0.50387(10)
H3F H 0.0809 0.9816 0.5347
H4F H 0.0990 0.9983 0.4737
C4F C 0.18120(12) 0.96428(10) 0.52337(9)
C5F C 0.06688(11) 0.86993(10) 0.53114(9)
H5F H 0.0186 0.8729 0.5370
H6F H 0.0936 0.8843 0.5651
C6F C 0.43678(11) 0.85528(10) 0.67946(9)
H7F H 0.4149 0.8927 0.6642
H8F H 0.4469 0.8606 0.7198
C7F C 0.41415(11) 0.75033(10) 0.70146(9)
H9F H 0.4639 0.7491 0.7058
H10F H 0.3982 0.7534 0.7387
C8F C 0.38694(11) 0.69268(10) 0.67338(9)
C9F C 0.32014(11) 0.81733(10) 0.67719(9)
H11F H 0.2987 0.7810 0.6915
H12F H 0.3191 0.8499 0.7051
C10F C 0.15125(12) 0.50978(10) 0.56625(9)
H13F H 0.1939 0.5118 0.5906
H14F H 0.1180 0.4872 0.5859
C11F C 0.16285(12) 0.47697(11) 0.51245(10)
C12F C 0.05530(11) 0.57062(10) 0.52900(9)
H15F H 0.0471 0.5344 0.5054
H16F H 0.0249 0.5687 0.5588
C13F C 0.04079(11) 0.62760(10) 0.49468(9)
C14A C 0.67110(12) 0.63355(10) 0.39825(9)
H17A H 0.6812 0.6011 0.4265
C15A C 0.68125(12) 0.69393(10) 0.42954(9)
H18A H 0.7274 0.6905 0.4493
C16A C 0.68533(12) 0.75062(10) 0.39255(10)
H19A H 0.7039 0.7835 0.4179
C17A C 0.73946(12) 0.73911(11) 0.35234(9)
H20A H 0.7813 0.7310 0.3773
C18A C 0.72937(11) 0.68064(10) 0.31737(9)
H21A H 0.7722 0.6747 0.2999
C19A C 0.72375(11) 0.62635(10) 0.35602(9)
H22A H 0.7677 0.6263 0.3795
C20A C 0.59763(12) 0.62531(11) 0.37656(10)
C21A C 0.63479(13) 0.69814(11) 0.47654(10)
C22A C 0.62077(13) 0.77659(11) 0.36184(11)
C23A C 0.75557(12) 0.79703(11) 0.32181(10)
C24A C 0.72411(11) 0.56594(10) 0.32437(10)
C25A C 0.67315(12) 0.68010(10) 0.26985(9)
C26F C 0.50175(12) 0.84421(11) 0.65285(10)
C27F C 0.13298(11) 0.61271(10) 0.60168(9)
H23F H 0.0944 0.6410 0.5993
H24F H 0.1322 0.5890 0.6361
Co1F Co 0.401370(15) 0.775320(13) 0.583060(12)
Co2F Co 0.162155(15) 0.871984(13) 0.439055(12)
Co3F Co 0.138000(15) 0.775630(13) 0.647330(12)
Co3A Co 0.638000(15) 0.724370(13) 0.147330(12)
Co4F Co -0.053775(15) 0.724980(14) 0.449021(13)
Co4A Co 0.446225(15) 0.775020(14) -0.050979(13)
Co5F Co 0.181820(15) 0.603480(13) 0.486100(12)
Co6F Co 0.171812(15) 0.933695(14) 0.319624(12)
Co6E Co 0.328188(15) 0.433695(14) 0.180376(12)
Co6D Co 0.671812(15) 0.433695(14) 0.319624(12)
Co7F Co 0.295476(16) 0.995436(14) 0.607455(13)
N1F N 0.08103(10) 0.90851(9) 0.48375(8)
N2F N 0.39122(9) 0.80342(8) 0.66821(8)
N3F N 0.12609(10) 0.57134(9) 0.55341(8)
O1F O 0.10905(8) 0.93561(7) 0.38492(7)
O2F O 0.00322(9) 0.95122(8) 0.34921(7)
O3F O 0.21564(8) 0.92734(7) 0.49678(7)
O4F O 0.20271(9) 0.99762(8) 0.56207(7)
O5F O 0.03835(8) 0.76839(7) 0.47076(7)
O6F O 0.15674(8) 0.79667(7) 0.49306(7)
O7F O 0.55194(9) 0.87654(9) 0.66529(8)
O8F O 0.49878(8) 0.80143(8) 0.61728(7)
O9F O 0.37296(9) 0.64955(7) 0.70303(7)
O10F O 0.38238(8) 0.69292(7) 0.62044(7)
O11F O 0.19975(8) 0.84125(7) 0.61978(7)
O12F O 0.29670(8) 0.79651(7) 0.56925(6)
O13F O 0.16092(9) 0.51039(7) 0.46957(7)
O14F O 0.17401(10) 0.42153(8) 0.51330(8)
O15F O -0.01558(8) 0.65094(8) 0.49466(7)
O16F O 0.08902(8) 0.64538(7) 0.46728(7)
O17F O 0.20781(8) 0.70695(7) 0.64332(6)
O18F O 0.21746(8) 0.67290(7) 0.54276(6)
O19F O 0.26893(8) 0.61070(7) 0.61848(6)
O20F O 0.30113(8) 0.90295(7) 0.59730(7)
O21F O 0.08878(8) 0.75680(7) 0.57072(7)
O22F O 0.07292(8) 0.84951(8) 0.66418(7)
H25F H 0.0361 0.8607 0.6467
H26F H 0.0984 0.8803 0.6683
O23F O 0.06229(10) 0.71783(8) 0.67505(8)
H27F H 0.0221 0.7228 0.6609
H28F H 0.0607 0.7050 0.7079
O24F O -0.12767(8) 0.66325(8) 0.41742(7)
H29F H -0.1240 0.6484 0.3856
H30F H -0.1511 0.6389 0.4346
O25F O -0.09564(9) 0.79399(8) 0.40257(7)
H31F H -0.0792 0.8272 0.4152
H32F H -0.1347 0.8013 0.3868
O26F O 0.24096(9) 0.91782(8) 0.26290(7)
H33F H 0.2604 0.9087 0.2344
H34F H 0.2608 0.8989 0.2902
O27F O 0.09448(9) 0.96877(9) 0.26501(8)
H35F H 0.0819 0.9691 0.2306
H36F H 0.0600 0.9750 0.2821
O28F O 0.38335(9) 0.99621(8) 0.65963(8)
H37F H 0.4043 0.9771 0.6863
H38F H 0.4106 1.0020 0.6354
O29F O 0.23826(9) 0.99379(8) 0.67780(7)
H39F H 0.2455 0.9876 0.7124
H40F H 0.2158 1.0264 0.6732
O30F O 0.30527(10) 1.08770(8) 0.59722(8)
H41F H 0.3074 1.1070 0.5672
H42F H 0.2977 1.1132 0.6221
O31A O 0.55672(9) 0.66656(8) 0.37641(8)
O32A O 0.57798(9) 0.57017(8) 0.36208(8)
H43A H 0.6119 0.5482 0.3597
O33A O 0.62734(12) 0.65226(9) 0.50390(8)
O34A O 0.60929(9) 0.75045(8) 0.48572(7)
O34G O -0.10929(9) 0.74955(8) 0.51428(7)
O35A O 0.57359(9) 0.79658(8) 0.39225(8)
H44A H 0.5822 0.7848 0.4250
O36A O 0.61531(10) 0.78427(9) 0.31251(8)
O37A O 0.77052(10) 0.84285(8) 0.34782(8)
O38A O 0.75850(9) 0.79570(8) 0.26825(7)
H45A H 0.7328 0.7685 0.2543
O39A O 0.62518(9) 0.64528(8) 0.27036(7)
O40A O 0.68282(9) 0.71565(8) 0.22924(7)
O40F O 0.18282(9) 0.78435(8) 0.72924(7)
O41A O 0.75555(9) 0.56319(8) 0.28291(8)
O42A O 0.69510(9) 0.52129(8) 0.34590(7)
O42E O 0.30490(9) 0.47871(8) 0.65410(7)
O42C O 0.19510(9) 1.02129(8) 0.34590(7)
P1F P 0.27351(3) 0.84099(3) 0.61320(2)
P2F P 0.08801(3) 0.79218(3) 0.51812(2)
P3F P 0.21063(3) 0.65520(2) 0.60380(2)
O43 O 0.0000 0.21769(19) 0.2500
O44 O 0.97168(15) 0.58430(13) 0.64704(13)
H47 H 0.9509 0.6167 0.6374
H48 H 1.0103 0.5861 0.6352
O45 O 0.88513(13) 0.52062(14) 0.27429(11)
H49 H 0.8986 0.5566 0.2811
H50 H 0.8512 0.5225 0.2504
O46 O 0.9223(3) 0.3918(2) 0.26426(16)
H51 H 0.9105 0.3852 0.2302
H52 H 0.8932 0.4152 0.2762
O47 O 1.0000 0.4493(4) 0.2500
O48 O 0.44284(10) 0.34155(8) 0.30911(8)
H55 H 0.4574 0.3769 0.3034
H56 H 0.4151 0.3322 0.2817
O49 O 0.39487(9) 0.52776(9) 0.33522(9)
H57 H 0.4164 0.5038 0.3578
H58 H 0.3958 0.5131 0.3030
O50 O 0.5000 0.5663(3) 0.2500
H59 H 0.5280 0.5827 0.2305
H59A H 0.4720 0.5827 0.2695
H46? H 0.0044 0.2179 0.2156
H53? H 1.0124 0.4227 0.2741
H54? H 1.0324 0.4689 0.2384
H60? H -0.0386 0.2115 0.2330
H61? H 0.4612 0.5800 0.2392
loop_
_geom_bond_atom_site_label_1
_geom_bond_atom_site_label_2
_geom_bond_site_symmetry_1
_geom_bond_site_symmetry_2
C1 H1 1_555 1_555
H2 C1 1_555 1_555
C2 C1 1_555 1_555
C3 H3 1_555 1_555
H4 C3 1_555 1_555
C4 C3 1_555 1_555
C5 H5 1_555 1_555
H6 C5 1_555 1_555
C6 H7 1_555 1_555
H8 C6 1_555 1_555
C7 H9 1_555 1_555
H10 C7 1_555 1_555
C8 C7 1_555 1_555
C9 H11 1_555 1_555
H12 C9 1_555 1_555
C10 H13 1_555 1_555
H14 C10 1_555 1_555
C11 C10 1_555 1_555
C12 H15 1_555 1_555
H16 C12 1_555 1_555
C13 C12 1_555 1_555
C14 H17 1_555 1_555
C15 C14 1_555 1_555
H18 C15 1_555 1_555
C16 C15 1_555 1_555
H19 C16 1_555 1_555
C17 C16 1_555 1_555
H20 C17 1_555 1_555
C18 C17 1_555 1_555
H21 C18 1_555 1_555
C19 C14 1_555 1_555
H22 C19 1_555 1_555
C20 C14 1_555 1_555
C21 C15 1_555 1_555
C22 C16 1_555 1_555
C23 C17 1_555 1_555
C24 C19 1_555 1_555
C25 C18 1_555 1_555
C26 C6 1_555 1_555
C27 H23 1_555 1_555
H24 C27 1_555 1_555
Co1 N2 1_555 1_555
Co2 N1 1_555 1_555
Co3 O11 1_555 1_555
Co4 O5 1_555 1_555
Co5 N3 1_555 1_555
Co6 O1 1_555 1_555
Co7 O4 1_555 1_555
Co8 O6 1_555 1_555
N1 C1 1_555 1_555
N2 C6 1_555 1_555
N3 C10 1_555 1_555
O1 C2 1_555 1_555
O2 C2 1_555 1_555
O3 C4 1_555 1_555
O4 C4 1_555 1_555
O5 P2 1_555 1_555
O6 Co2 1_555 1_555
O7 C26 1_555 1_555
O8 C26 1_555 1_555
O9 C8 1_555 1_555
O10 C8 1_555 1_555
O11 P1 1_555 1_555
O12 Co1 1_555 1_555
O13 C11 1_555 1_555
O14 C11 1_555 1_555
O15 C13 1_555 1_555
O16 C13 1_555 1_555
O17 Co3 1_555 1_555
O18 Co5 1_555 1_555
O19 P3 1_555 1_555
O20 Co7 1_555 1_555
O21 Co3 1_555 1_555
O22 Co3 1_555 1_555
H25 O22 1_555 1_555
H26 O22 1_555 1_555
O23 Co3 1_555 1_555
H27 O23 1_555 1_555
H28 O23 1_555 1_555
O24 Co4 1_555 1_555
H29 O24 1_555 1_555
H30 O24 1_555 1_555
O25 Co4 1_555 1_555
H31 O25 1_555 1_555
H32 O25 1_555 1_555
O26 Co6 1_555 1_555
H33 O26 1_555 1_555
H34 O26 1_555 1_555
O27 Co6 1_555 1_555
H35 O27 1_555 1_555
H36 O27 1_555 1_555
O28 Co7 1_555 1_555
H37 O28 1_555 1_555
H38 O28 1_555 1_555
O29 Co7 1_555 1_555
H39 O29 1_555 1_555
H40 O29 1_555 1_555
O30 Co7 1_555 1_555
H41 O30 1_555 1_555
H42 O30 1_555 1_555
O31 C20 1_555 1_555
O32 C20 1_555 1_555
H43 O32 1_555 1_555
O33 C21 1_555 1_555
O34 C21 1_555 1_555
O35 C22 1_555 1_555
H44 O35 1_555 1_555
O36 C22 1_555 1_555
O37 C23 1_555 1_555
O38 C23 1_555 1_555
H45 O38 1_555 1_555
O39 C25 1_555 1_555
O40 C25 1_555 1_555
O41 C24 1_555 1_555
O42 C24 1_555 1_555
O44 H47 1_555 1_555
H48 O44 1_555 1_555
O45 H49 1_555 1_555
H50 O45 1_555 1_555
O46 H51 1_555 1_555
H52 O46 1_555 1_555
O48 H55 1_555 1_555
H56 O48 1_555 1_555
O49 H57 1_555 1_555
H58 O49 1_555 1_555
O50 H59 1_555 1_555
P1 C9 1_555 1_555
P2 C5 1_555 1_555
P3 C27 1_555 1_555
C1F H1F 1_555 1_555
H2F C1F 1_555 1_555
C2F C1F 1_555 1_555
C3F H3F 1_555 1_555
H4F C3F 1_555 1_555
C4F C3F 1_555 1_555
C5F H5F 1_555 1_555
H6F C5F 1_555 1_555
C6F H7F 1_555 1_555
H8F C6F 1_555 1_555
C7F H9F 1_555 1_555
H10F C7F 1_555 1_555
C8F C7F 1_555 1_555
C9F H11F 1_555 1_555
H12F C9F 1_555 1_555
C10F H13F 1_555 1_555
H14F C10F 1_555 1_555
C11F C10F 1_555 1_555
C12F H15F 1_555 1_555
H16F C12F 1_555 1_555
C13F C12F 1_555 1_555
C14A H17A 1_555 1_555
C15A C14A 1_555 1_555
H18A C15A 1_555 1_555
C16A C15A 1_555 1_555
H19A C16A 1_555 1_555
C17A C16A 1_555 1_555
H20A C17A 1_555 1_555
C18A C17A 1_555 1_555
H21A C18A 1_555 1_555
C19A C14A 1_555 1_555
H22A C19A 1_555 1_555
C20A C14A 1_555 1_555
C21A C15A 1_555 1_555
C22A C16A 1_555 1_555
C23A C17A 1_555 1_555
C24A C19A 1_555 1_555
C25A C18A 1_555 1_555
C26F C6F 1_555 1_555
C27F H23F 1_555 1_555
H24F C27F 1_555 1_555
Co1F O5 1_555 1_555
Co2F O10 1_555 1_555
Co3F O11F 1_555 1_555
Co3A O40A 1_555 1_555
Co4F O8 1_555 1_555
Co4A O34 1_555 1_555
Co5F O3 1_555 1_555
Co6F O9 1_555 1_555
Co6E O42 1_555 1_555
Co6D O42A 1_555 1_555
Co7F O13 1_555 1_555
N1F C1F 1_555 1_555
N2F C6F 1_555 1_555
N3F C10F 1_555 1_555
O1F C2F 1_555 1_555
O2F C2F 1_555 1_555
O3F Co5 1_555 1_555
O4F C4F 1_555 1_555
O5F Co1 1_555 1_555
O6F Co8 1_555 1_555
O7F C26F 1_555 1_555
O8F Co4 1_555 1_555
O9F Co6 1_555 1_555
O10F Co2 1_555 1_555
O11F P1F 1_555 1_555
O12F Co8 1_555 1_555
O13F Co7 1_555 1_555
O14F C11F 1_555 1_555
O15F C13F 1_555 1_555
O16F Co1 1_555 1_555
O17F Co3F 1_555 1_555
O18F Co8 1_555 1_555
O19F Co2 1_555 1_555
O20F Co5 1_555 1_555
O21F Co3F 1_555 1_555
O22F Co3F 1_555 1_555
H25F O22F 1_555 1_555
H26F O22F 1_555 1_555
O23F Co3F 1_555 1_555
H27F O23F 1_555 1_555
H28F O23F 1_555 1_555
O24F Co4F 1_555 1_555
H29F O24F 1_555 1_555
H30F O24F 1_555 1_555
O25F Co4F 1_555 1_555
H31F O25F 1_555 1_555
H32F O25F 1_555 1_555
O26F Co6F 1_555 1_555
H33F O26F 1_555 1_555
H34F O26F 1_555 1_555
O27F Co6F 1_555 1_555
H35F O27F 1_555 1_555
H36F O27F 1_555 1_555
O28F Co7F 1_555 1_555
H37F O28F 1_555 1_555
H38F O28F 1_555 1_555
O29F Co7F 1_555 1_555
H39F O29F 1_555 1_555
H40F O29F 1_555 1_555
O30F Co7F 1_555 1_555
H41F O30F 1_555 1_555
H42F O30F 1_555 1_555
O31A C20A 1_555 1_555
O32A C20A 1_555 1_555
H43A O32A 1_555 1_555
O33A C21A 1_555 1_555
O34A Co4 1_555 1_555
O34G Co4F 1_555 1_555
O35A C22A 1_555 1_555
H44A O35A 1_555 1_555
O36A C22A 1_555 1_555
O37A C23A 1_555 1_555
O38A C23A 1_555 1_555
H45A O38A 1_555 1_555
O39A C25A 1_555 1_555
O40A C25A 1_555 1_555
O40F Co3F 1_555 1_555
O41A C24A 1_555 1_555
O42A C24A 1_555 1_555
O42E Co6 1_555 1_555
O42C Co6F 1_555 1_555
H59A O50 1_555 1_555
P1F C9F 1_555 1_555
P2F C5F 1_555 1_555
P3F C27F 1_555 1_555
C3 N1 1_555 1_555
C5 N1 1_555 1_555
C7 N2 1_555 1_555
C9 N2 1_555 1_555
C12 N3 1_555 1_555
C18 C19 1_555 1_555
C27 N3 1_555 1_555
Co1 O8 1_555 1_555
Co1 O10 1_555 1_555
Co2 O1 1_555 1_555
Co2 O3 1_555 1_555
Co3 O40 1_555 1_555
Co4 O15 1_555 1_555
Co5 O13 1_555 1_555
Co5 O16 1_555 1_555
Co6 O19F 1_555 1_555
Co8 O12 1_555 1_555
Co8 O18 1_555 1_555
O6 P2 1_555 1_555
O12 P1 1_555 1_555
O16 Co1F 1_555 1_555
O17 P3 1_555 1_555
O18 P3 1_555 1_555
O19 Co2F 1_555 1_555
O19 Co6F 1_555 1_555
O20 P1 1_555 1_555
O20 Co5F 1_555 1_555
O21 P2 1_555 1_555
C3F N1F 1_555 1_555
C4F O3F 1_555 1_555
C5F N1F 1_555 1_555
C7F N2F 1_555 1_555
C8F O9F 1_555 1_555
C8F O10F 1_555 1_555
C9F N2F 1_555 1_555
C11F O13F 1_555 1_555
C12F N3F 1_555 1_555
C13F O16F 1_555 1_555
C18A C19A 1_555 1_555
C21A O34A 1_555 1_555
C26F O8F 1_555 1_555
C27F N3F 1_555 1_555
Co1F N2F 1_555 1_555
Co1F O8F 1_555 1_555
Co1F O10F 1_555 1_555
Co1F O12F 1_555 1_555
Co2F N1F 1_555 1_555
Co2F O1F 1_555 1_555
Co2F O3F 1_555 1_555
Co2F O6F 1_555 1_555
Co4F O5F 1_555 1_555
Co4F O15F 1_555 1_555
Co5F N3F 1_555 1_555
Co5F O13F 1_555 1_555
Co5F O16F 1_555 1_555
Co5F O18F 1_555 1_555
Co6F O1F 1_555 1_555
Co7F O4F 1_555 1_555
Co7F O20F 1_555 1_555
O5F P2F 1_555 1_555
O6F P2F 1_555 1_555
O12F P1F 1_555 1_555
O17F P3F 1_555 1_555
O18F P3F 1_555 1_555
O19F P3F 1_555 1_555
O20F P1F 1_555 1_555
O21F P2F 1_555 1_555

#END
