
#######################################################################
#
#                 Cambridge Crystallographic Data Centre
#                                CCDC 
#
#######################################################################
#
# If this CIF has been generated from an entry in the Cambridge 
# Structural Database, then it will include bibliographic, chemical, 
# crystal, experimental, refinement or atomic coordinate data resulting 
# from the CCDC's data processing and validation procedures.
#
#######################################################################

data_WUHNOE
_symmetry_cell_setting           orthorhombic
_symmetry_space_group_name_H-M   'P c c n'
_symmetry_Int_Tables_number      56
_space_group_name_Hall           '-P 2ab 2ac'
loop_
_symmetry_equiv_pos_site_id
_symmetry_equiv_pos_as_xyz
1 x,y,z
2 1/2-x,1/2-y,z
3 1/2+x,-y,1/2-z
4 -x,1/2+y,1/2-z
5 -x,-y,-z
6 1/2+x,1/2+y,-z
7 1/2-x,y,1/2+z
8 x,1/2-y,1/2+z
_cell_length_a                   5.83670(16)
_cell_length_b                   22.1190(6)
_cell_length_c                   20.4593(5)
_cell_angle_alpha                90
_cell_angle_beta                 90
_cell_angle_gamma                90
_cell_volume                     2641.34
loop_
_atom_site_label
_atom_site_type_symbol
_atom_site_fract_x
_atom_site_fract_y
_atom_site_fract_z
Ni1 Ni 0.7500 0.7500 0.38126(2)
N1 N 0.9354(3) 0.71475(7) 0.45680(8)
O1 O 0.9076(3) 0.69903(7) 0.31079(7)
O2 O 0.5885(2) 0.66589(6) 0.35307(6)
O3 O 0.6962(3) 0.49360(8) 0.10369(8)
C1 C 0.7433(3) 0.66178(9) 0.31061(9)
C2 C 0.7354(3) 0.61502(9) 0.25791(9)
C3 C 0.9148(3) 0.61139(9) 0.21343(9)
H1 H 1.0421 0.6362 0.2187
C4 C 0.9067(4) 0.57153(9) 0.16159(10)
H2 H 1.0276 0.5695 0.1321
C5 C 0.7180(3) 0.53476(9) 0.15395(10)
C6 C 0.5395(4) 0.53693(9) 0.19845(10)
H3 H 0.4143 0.5113 0.1937
C7 C 0.5479(3) 0.57729(9) 0.24988(9)
H4 H 0.4268 0.5792 0.2794
C8 C 0.8531(4) 0.49771(9) 0.05190(10)
C9 C 0.8000(4) 0.53333(11) -0.00123(12)
H5 H 0.6649 0.5556 -0.0019
C10 C 1.0504(4) 0.46442(11) 0.05367(10)
H6 H 1.0837 0.4405 0.0898
C11 C 1.1205(4) 0.67973(11) 0.45599(14)
H7 H 1.1831 0.6685 0.4160
C12 C 1.2237(5) 0.65938(13) 0.5136(2)
H8 H 1.3530 0.6349 0.5114
C13 C 1.1364(6) 0.67509(13) 0.57229(17)
H9 H 1.2054 0.6615 0.6106
C14 C 0.9419(4) 0.71185(10) 0.57525(11)
C15 C 0.8481(3) 0.73066(9) 0.51554(9)
C16 C 0.8403(6) 0.73203(15) 0.63475(11)
H10 H 0.9025 0.7196 0.6744
N1A N 0.5646(3) 0.78525(7) 0.45680(8)
C11A C 0.3795(4) 0.82027(11) 0.45599(14)
H7A H 0.3169 0.8315 0.4160
C12A C 0.2763(5) 0.84062(13) 0.5136(2)
H8A H 0.1470 0.8651 0.5114
C13A C 0.3636(6) 0.82491(13) 0.57229(17)
H9A H 0.2946 0.8385 0.6106
C14A C 0.5581(4) 0.78815(10) 0.57525(11)
C15A C 0.6519(3) 0.76934(9) 0.51554(9)
C16A C 0.6597(6) 0.76797(15) 0.63475(11)
H10A H 0.5975 0.7804 0.6744
O1D O 1.0924(3) 0.30097(7) -0.31079(7)
O2D O 1.4115(2) 0.33411(6) -0.35307(6)
O3D O 1.3038(3) 0.50640(8) -0.10369(8)
C1D C 1.2567(3) 0.33822(9) -0.31061(9)
C2D C 1.2646(3) 0.38498(9) -0.25791(9)
C3D C 1.0852(3) 0.38861(9) -0.21343(9)
H1D H 0.9579 0.3638 -0.2187
C4D C 1.0933(4) 0.42847(9) -0.16159(10)
H2D H 0.9724 0.4305 -0.1321
C5D C 1.2820(3) 0.46524(9) -0.15395(10)
C6D C 1.4605(4) 0.46307(9) -0.19845(10)
H3D H 1.5857 0.4887 -0.1937
C7D C 1.4521(3) 0.42271(9) -0.24988(9)
H4D H 1.5732 0.4208 -0.2794
C8D C 1.1469(4) 0.50229(9) -0.05190(10)
C9D C 1.2000(4) 0.46667(11) 0.00123(12)
H5D H 1.3351 0.4444 0.0019
C10D C 0.9496(4) 0.53558(11) -0.05367(10)
H6D H 0.9163 0.5595 -0.0898
Ni1D Ni 1.2500 0.2500 -0.38126(2)
O1A O 0.5924(3) 0.80097(7) 0.31079(7)
O2A O 0.9115(2) 0.83411(6) 0.35307(6)
O4 O 0.7500 0.2500 0.26615(12)
H11 H 0.6471 0.2653 0.2419
H11A H 0.8529 0.2347 0.2419
H12? H 0.6471 0.2653 0.2419
loop_
_geom_bond_atom_site_label_1
_geom_bond_atom_site_label_2
_geom_bond_site_symmetry_1
_geom_bond_site_symmetry_2
Ni1 N1 1_555 1_555
N1 C11 1_555 1_555
O1 Ni1 1_555 1_555
O2 Ni1 1_555 1_555
O3 C5 1_555 1_555
C1 O1 1_555 1_555
C2 C1 1_555 1_555
C3 C2 1_555 1_555
H1 C3 1_555 1_555
C4 C3 1_555 1_555
H2 C4 1_555 1_555
C5 C4 1_555 1_555
C6 C5 1_555 1_555
H3 C6 1_555 1_555
C7 C2 1_555 1_555
H4 C7 1_555 1_555
C8 O3 1_555 1_555
C9 C8 1_555 1_555
H5 C9 1_555 1_555
C10 C8 1_555 1_555
H6 C10 1_555 1_555
C11 H7 1_555 1_555
C12 C11 1_555 1_555
H8 C12 1_555 1_555
C13 C12 1_555 1_555
H9 C13 1_555 1_555
C14 C13 1_555 1_555
C15 N1 1_555 1_555
C16 C14 1_555 1_555
H10 C16 1_555 1_555
O4 H11 1_555 1_555
N1A Ni1 1_555 1_555
C11A N1A 1_555 1_555
H7A C11A 1_555 1_555
C12A C11A 1_555 1_555
H8A C12A 1_555 1_555
C13A C12A 1_555 1_555
H9A C13A 1_555 1_555
C14A C13A 1_555 1_555
C15A C15 1_555 1_555
C16A C16 1_555 1_555
H10A C16A 1_555 1_555
O1D C1D 1_555 1_555
O2D C1D 1_555 1_555
O3D C5D 1_555 1_555
C1D C2D 1_555 1_555
C2D C3D 1_555 1_555
C3D H1D 1_555 1_555
C4D C3D 1_555 1_555
H2D C4D 1_555 1_555
C5D C4D 1_555 1_555
C6D C5D 1_555 1_555
H3D C6D 1_555 1_555
C7D C2D 1_555 1_555
H4D C7D 1_555 1_555
C8D O3D 1_555 1_555
C9D C10 1_555 1_555
H5D C9D 1_555 1_555
C10D C9 1_555 1_555
H6D C10D 1_555 1_555
Ni1D O1D 1_555 1_555
O1A Ni1 1_555 1_555
O2A Ni1 1_555 1_555
H11A O4 1_555 1_555
O2 C1 1_555 1_555
C6 C7 1_555 1_555
C14 C15 1_555 1_555
N1A C15A 1_555 1_555
C14A C15A 1_555 1_555
C14A C16A 1_555 1_555
O2D Ni1D 1_555 1_555
C6D C7D 1_555 1_555
C8D C9D 1_555 1_555
C8D C10D 1_555 1_555

#END
