
#######################################################################
#
#                 Cambridge Crystallographic Data Centre
#                                CCDC 
#
#######################################################################
#
# If this CIF has been generated from an entry in the Cambridge 
# Structural Database, then it will include bibliographic, chemical, 
# crystal, experimental, refinement or atomic coordinate data resulting 
# from the CCDC's data processing and validation procedures.
#
#######################################################################

data_WUHNIY
_symmetry_cell_setting           monoclinic
_symmetry_space_group_name_H-M   'P 21'
_symmetry_Int_Tables_number      4
_space_group_name_Hall           'P 2yb'
loop_
_symmetry_equiv_pos_site_id
_symmetry_equiv_pos_as_xyz
1 x,y,z
2 -x,1/2+y,-z
_cell_length_a                   6.3847(12)
_cell_length_b                   21.746(4)
_cell_length_c                   10.1336(19)
_cell_angle_alpha                90
_cell_angle_beta                 105.085(4)
_cell_angle_gamma                90
_cell_volume                     1358.48
loop_
_atom_site_label
_atom_site_type_symbol
_atom_site_fract_x
_atom_site_fract_y
_atom_site_fract_z
Mn1 Mn 0.50289(11) 0.19777(4) 0.78975(6)
C1 C 0.8931(8) 0.0644(3) 1.0071(5)
O1 O 0.5648(7) 0.1087(2) 0.8789(4)
C2 C 0.7680(8) 0.1109(3) 0.9086(5)
C3 C 2.2971(9) -0.1361(3) 1.9588(5)
O2 O 0.8608(6) 0.1516(2) 0.8595(4)
C4 C 0.2906(8) 0.1927(3) 0.4738(4)
N1 N 0.2560(7) 0.1688(2) 0.5906(4)
C5 C 2.0486(10) -0.0511(3) 1.7845(5)
C6 C 1.1181(9) 0.0660(3) 1.0499(5)
H1 H 1.1951 0.0950 1.0140
C7 C 0.4782(10) 0.2315(3) 0.4878(5)
C8 C 2.2701(10) -0.0438(3) 1.8258(6)
H2 H 2.3376 -0.0108 1.7956
C9 C 2.0772(10) -0.1424(3) 1.9187(6)
H3 H 2.0116 -0.1750 1.9519
O3 O 2.3457(7) -0.2292(2) 2.0841(5)
O4 O 0.2328(7) 0.2136(2) 0.8734(5)
H4 H 0.1645 0.1815 0.8715
C10 C 1.2269(9) 0.0240(3) 1.1467(6)
H5 H 1.3772 0.0254 1.1787
N2 N 0.6065(7) 0.2417(2) 0.6163(4)
C11 C 2.3887(9) -0.0872(3) 1.9136(6)
H6 H 2.5384 -0.0825 1.9429
C12 C 0.7818(9) 0.0203(3) 1.0568(6)
H7 H 0.6312 0.0191 1.0267
C13 C 0.8905(11) -0.0234(3) 1.1523(7)
H8 H 0.8146 -0.0537 1.1852
C14 C 1.1096(10) -0.0199(3) 1.1949(6)
C15 C 2.4396(9) -0.1826(3) 2.0524(6)
C16 C -0.0305(13) 0.1459(4) 0.3381(7)
H9 H -0.1282 0.1382 0.2541
C17 C 0.1513(11) 0.1819(3) 0.3447(5)
C18 C 1.9491(10) -0.1003(4) 1.8282(8)
H10 H 1.7996 -0.1055 1.7983
C19 C 0.0819(10) 0.1348(3) 0.5803(6)
H11 H 0.0553 0.1186 0.6593
C20 C 0.8397(15) 0.3013(5) 0.5175(11)
H12 H 0.9648 0.3249 0.5302
C21 C -0.0659(12) 0.1221(4) 0.4530(7)
H13 H -0.1867 0.0975 0.4486
C22 C 0.5263(13) 0.2560(4) 0.3695(7)
C23 C 0.3789(17) 0.2441(5) 0.2405(6)
H14 H 0.4058 0.2610 0.1623
C24 C 0.2010(16) 0.2088(5) 0.2285(6)
H15 H 0.1087 0.2019 0.1423
C25 C 0.7831(10) 0.2762(4) 0.6299(7)
H16 H 0.8712 0.2839 0.7170
C26 C 0.7133(17) 0.2914(5) 0.3905(9)
H17 H 0.7515 0.3085 0.3159
O5 O 1.9320(8) -0.0055(2) 1.7028(5)
O6 O 2.6378(8) -0.1735(2) 2.0881(6)
C27 C 1.7495(11) -0.0225(3) 1.5985(6)
C28 C 1.3957(10) -0.0484(3) 1.3892(5)
O7 O 1.2105(9) -0.0660(2) 1.2865(5)
C29 C 1.5668(11) 0.0120(3) 1.5825(6)
H18 H 1.5630 0.0442 1.6422
C30 C 1.3847(11) -0.0014(4) 1.4752(7)
H19 H 1.2581 0.0215 1.4632
C31 C 1.5757(13) -0.0824(4) 1.4038(7)
H20 H 1.5791 -0.1145 1.3437
C32 C 1.7586(12) -0.0690(4) 1.5110(8)
H21 H 1.8852 -0.0918 1.5219
H22 H 0.096(14) 0.211(5) 0.880(9)
Mn1A Mn 2.49711(11) -0.30223(4) 2.21025(6)
O3A O 0.6543(7) 0.2708(2) 0.9159(5)
loop_
_geom_bond_atom_site_label_1
_geom_bond_atom_site_label_2
_geom_bond_site_symmetry_1
_geom_bond_site_symmetry_2
Mn1 O1 1_555 1_555
C1 C2 1_555 1_555
O1 C2 1_555 1_555
C2 O2 1_555 1_555
C3 C9 1_555 1_555
O2 Mn1 1_555 1_555
C4 N1 1_555 1_555
N1 Mn1 1_555 1_555
C5 C8 1_555 1_555
C6 C1 1_555 1_555
H1 C6 1_555 1_555
C7 C4 1_555 1_555
C8 H2 1_555 1_555
C9 H3 1_555 1_555
O3 C15 1_555 1_555
O4 Mn1 1_555 1_555
H4 O4 1_555 1_555
C10 C6 1_555 1_555
H5 C10 1_555 1_555
N2 Mn1 1_555 1_555
C11 C3 1_555 1_555
H6 C11 1_555 1_555
C12 C1 1_555 1_555
H7 C12 1_555 1_555
C13 C12 1_555 1_555
H8 C13 1_555 1_555
C14 C10 1_555 1_555
C15 C3 1_555 1_555
C16 H9 1_555 1_555
C17 C4 1_555 1_555
C18 C5 1_555 1_555
H10 C18 1_555 1_555
C19 N1 1_555 1_555
H11 C19 1_555 1_555
C20 H12 1_555 1_555
C21 C16 1_555 1_555
H13 C21 1_555 1_555
C22 C7 1_555 1_555
C23 C22 1_555 1_555
H14 C23 1_555 1_555
C24 C17 1_555 1_555
H15 C24 1_555 1_555
C25 N2 1_555 1_555
H16 C25 1_555 1_555
C26 C20 1_555 1_555
H17 C26 1_555 1_555
O5 C5 1_555 1_555
O6 C15 1_555 1_555
C27 O5 1_555 1_555
C28 O7 1_555 1_555
O7 C14 1_555 1_555
C29 C27 1_555 1_555
H18 C29 1_555 1_555
C30 C28 1_555 1_555
H19 C30 1_555 1_555
C31 C28 1_555 1_555
H20 C31 1_555 1_555
C32 C27 1_555 1_555
H21 C32 1_555 1_555
H22 O4 1_555 1_555
Mn1A O3 1_555 1_555
O3A Mn1 1_555 1_555
C7 N2 1_555 1_555
C8 C11 1_555 1_555
C9 C18 1_555 1_555
C13 C14 1_555 1_555
C16 C17 1_555 1_555
C19 C21 1_555 1_555
C20 C25 1_555 1_555
C22 C26 1_555 1_555
C23 C24 1_555 1_555
C29 C30 1_555 1_555
C31 C32 1_555 1_555

#END
