
#######################################################################
#
#                 Cambridge Crystallographic Data Centre
#                                CCDC 
#
#######################################################################
#
# If this CIF has been generated from an entry in the Cambridge 
# Structural Database, then it will include bibliographic, chemical, 
# crystal, experimental, refinement or atomic coordinate data resulting 
# from the CCDC's data processing and validation procedures.
#
#######################################################################

data_WUHNAQ
_symmetry_cell_setting           triclinic
_symmetry_space_group_name_H-M   'P -1'
_symmetry_Int_Tables_number      2
_space_group_name_Hall           '-P 1'
loop_
_symmetry_equiv_pos_site_id
_symmetry_equiv_pos_as_xyz
1 x,y,z
2 -x,-y,-z
_cell_length_a                   10.6053(8)
_cell_length_b                   11.1058(13)
_cell_length_c                   12.1321(17)
_cell_angle_alpha                114.559(13)
_cell_angle_beta                 111.070(10)
_cell_angle_gamma                96.515(8)
_cell_volume                     1153.12
loop_
_atom_site_label
_atom_site_type_symbol
_atom_site_fract_x
_atom_site_fract_y
_atom_site_fract_z
Cu1 Cu 1.10227(5) 0.44337(5) 0.49679(6)
N1 N 1.2450(3) 0.3167(3) 0.4950(3)
O1 O 0.9358(3) 0.2807(3) 0.3576(3)
O2 O 0.7594(3) 0.3728(2) 0.3643(3)
O3 O 0.4166(3) -0.2696(3) 0.0156(3)
O4 O 1.0676(3) 0.4149(3) 0.6344(3)
O5 O 0.8912(3) 0.5069(3) 0.6393(3)
O6 O 0.8843(3) 0.2046(3) 0.9797(3)
C1 C 0.8067(4) 0.2715(4) 0.3253(4)
C2 C 0.7030(4) 0.1280(4) 0.2372(4)
C3 C 0.7509(4) 0.0141(4) 0.1960(5)
H1 H 0.8468 0.0280 0.2178
C4 C 0.6589(4) -0.1197(4) 0.1232(5)
H2 H 0.6926 -0.1955 0.0971
C5 C 0.5160(4) -0.1403(4) 0.0893(4)
C6 C 0.4654(4) -0.0283(4) 0.1259(4)
H3 H 0.3690 -0.0422 0.1013
C7 C 0.5592(4) 0.1049(4) 0.1995(4)
H4 H 0.5251 0.1806 0.2241
C8 C 0.4627(4) -0.3839(4) 0.0093(4)
C9 C 0.5301(5) -0.3927(4) 0.1240(5)
H5 H 0.5494 -0.3198 0.2081
C10 C 0.4301(5) -0.4901(5) -0.1154(5)
H6 H 0.3822 -0.4844 -0.1932
C11 C 0.9727(4) 0.4412(4) 0.6717(4)
C12 C 0.9543(4) 0.3835(4) 0.7582(4)
C13 C 1.0341(5) 0.3014(5) 0.7877(5)
H7 H 1.1035 0.2876 0.7581
C14 C 1.0132(5) 0.2390(5) 0.8605(5)
H8 H 1.0670 0.1829 0.8784
C15 C 0.9120(4) 0.2612(4) 0.9058(4)
C16 C 0.8329(4) 0.3462(4) 0.8812(4)
H9 H 0.7658 0.3622 0.9138
C17 C 0.8544(4) 0.4070(4) 0.8079(4)
H10 H 0.8016 0.4644 0.7915
C18 C 0.9447(4) 0.1015(4) 0.9889(4)
C19 C 1.0544(5) 0.1345(5) 1.1095(5)
H11 H 1.0904 0.2243 1.1830
C20 C 0.8890(5) -0.0308(5) 0.8801(5)
H12 H 0.8134 -0.0511 0.7994
C21 C 1.2036(4) 0.1960(4) 0.4898(5)
H13 H 1.1151 0.1695 0.4859
C22 C 1.2861(5) 0.1083(5) 0.4899(5)
H14 H 1.2524 0.0241 0.4847
C23 C 1.4200(5) 0.1468(5) 0.4979(6)
C24 C 1.4612(5) 0.2714(5) 0.5032(6)
H15 H 1.5494 0.3017 0.5079
C25 C 1.3719(5) 0.3509(4) 0.5016(5)
H16 H 1.4027 0.4351 0.5055
C26 C 1.5177(7) 0.0572(7) 0.5000(10)
H17 H 1.6044 0.0854 0.5012
N1A N 1.7550(3) -0.3167(3) 0.5050(3)
C21A C 1.7964(4) -0.1960(4) 0.5102(5)
H13A H 1.8849 -0.1695 0.5141
C22A C 1.7139(5) -0.1083(5) 0.5101(5)
H14A H 1.7476 -0.0241 0.5153
C23A C 1.5800(5) -0.1468(5) 0.5021(6)
C24A C 1.5388(5) -0.2714(5) 0.4968(6)
H15A H 1.4506 -0.3017 0.4921
C25A C 1.6281(5) -0.3509(4) 0.4984(5)
H16A H 1.5973 -0.4351 0.4945
C26A C 1.4823(7) -0.0572(7) 0.5000(10)
H17A H 1.3956 -0.0854 0.4988
O1A O 0.0642(3) -1.2807(3) -0.3576(3)
O2A O 0.2406(3) -1.3728(2) -0.3643(3)
O3A O 0.5834(3) -0.7304(3) -0.0156(3)
C1A C 0.1933(4) -1.2715(4) -0.3253(4)
C2A C 0.2970(4) -1.1280(4) -0.2372(4)
C3A C 0.2491(4) -1.0141(4) -0.1960(5)
H1A H 0.1532 -1.0280 -0.2178
C4A C 0.3411(4) -0.8803(4) -0.1232(5)
H2A H 0.3074 -0.8045 -0.0971
C5A C 0.4840(4) -0.8597(4) -0.0893(4)
C6A C 0.5346(4) -0.9717(4) -0.1259(4)
H3A H 0.6310 -0.9578 -0.1013
C7A C 0.4408(4) -1.1049(4) -0.1995(4)
H4A H 0.4749 -1.1806 -0.2241
C8A C 0.5373(4) -0.6161(4) -0.0093(4)
C9A C 0.4699(5) -0.6073(4) -0.1240(5)
H5A H 0.4506 -0.6802 -0.2081
C10A C 0.5699(5) -0.5099(5) 0.1154(5)
H6A H 0.6178 -0.5156 0.1932
O4A O 0.9324(3) -0.4149(3) 1.3656(3)
O5A O 1.1088(3) -0.5069(3) 1.3607(3)
O6A O 1.1157(3) -0.2046(3) 1.0203(3)
C11A C 1.0273(4) -0.4412(4) 1.3283(4)
C12A C 1.0457(4) -0.3835(4) 1.2418(4)
C13A C 0.9659(5) -0.3014(5) 1.2123(5)
H7A H 0.8965 -0.2876 1.2419
C14A C 0.9868(5) -0.2390(5) 1.1395(5)
H8A H 0.9330 -0.1829 1.1216
C15A C 1.0880(4) -0.2612(4) 1.0942(4)
C16A C 1.1671(4) -0.3462(4) 1.1188(4)
H9A H 1.2342 -0.3622 1.0862
C17A C 1.1456(4) -0.4070(4) 1.1921(4)
H10A H 1.1984 -0.4644 1.2085
C18A C 1.0553(4) -0.1015(4) 1.0111(4)
C19A C 0.9456(5) -0.1345(5) 0.8905(5)
H11A H 0.9096 -0.2243 0.8170
C20A C 1.1110(5) 0.0308(5) 1.1199(5)
H12A H 1.1866 0.0511 1.2006
Cu1A Cu -0.10227(5) -1.44337(5) -0.49679(6)
Cu1_2 Cu 0.10227(5) -1.55663(5) -0.50321(6)
Cu1_3 Cu 1.10227(5) -0.55663(5) 1.49679(6)
Cu1A_2 Cu 0.89773(5) -0.44337(5) 1.50321(6)
Cu1A_3 Cu 0.89773(5) 0.55663(5) 0.50321(6)
Cu1A_4 Cu 1.89773(5) -0.44337(5) 0.50321(6)
N1A_2 N -0.2450(3) -1.3167(3) -0.4950(3)
O2_2 O -0.2406(3) -1.6272(2) -0.6357(3)
O2A_2 O 1.2406(3) 0.6272(2) 0.6357(3)
O4A_2 O -0.0676(3) -1.4149(3) -0.6344(3)
O5_2 O -0.1088(3) -1.4931(3) -0.3607(3)
O5A_2 O 1.1088(3) 0.4931(3) 0.3607(3)
loop_
_geom_bond_atom_site_label_1
_geom_bond_atom_site_label_2
_geom_bond_site_symmetry_1
_geom_bond_site_symmetry_2
Cu1 N1 1_555 1_555
N1 C21 1_555 1_555
O1 Cu1 1_555 1_555
O2 C1 1_555 1_555
O3 C5 1_555 1_555
O4 Cu1 1_555 1_555
O5 C11 1_555 1_555
O6 C15 1_555 1_555
C1 O1 1_555 1_555
C2 C1 1_555 1_555
C3 C2 1_555 1_555
H1 C3 1_555 1_555
C4 C3 1_555 1_555
H2 C4 1_555 1_555
C5 C4 1_555 1_555
C6 C5 1_555 1_555
H3 C6 1_555 1_555
C7 C2 1_555 1_555
H4 C7 1_555 1_555
C8 O3 1_555 1_555
C9 C8 1_555 1_555
H5 C9 1_555 1_555
C10 C8 1_555 1_555
H6 C10 1_555 1_555
C11 O4 1_555 1_555
C12 C11 1_555 1_555
C13 C12 1_555 1_555
H7 C13 1_555 1_555
C14 C13 1_555 1_555
H8 C14 1_555 1_555
C15 C14 1_555 1_555
C16 C15 1_555 1_555
H9 C16 1_555 1_555
C17 C12 1_555 1_555
H10 C17 1_555 1_555
C18 O6 1_555 1_555
C19 C18 1_555 1_555
H11 C19 1_555 1_555
C20 C18 1_555 1_555
H12 C20 1_555 1_555
C21 H13 1_555 1_555
C22 C21 1_555 1_555
H14 C22 1_555 1_555
C23 C22 1_555 1_555
C24 C23 1_555 1_555
H15 C24 1_555 1_555
C25 N1 1_555 1_555
H16 C25 1_555 1_555
C26 C23 1_555 1_555
H17 C26 1_555 1_555
N1A C21A 1_555 1_555
C21A H13A 1_555 1_555
C22A C21A 1_555 1_555
H14A C22A 1_555 1_555
C23A C22A 1_555 1_555
C24A C23A 1_555 1_555
H15A C24A 1_555 1_555
C25A N1A 1_555 1_555
H16A C25A 1_555 1_555
C26A C26 1_555 1_555
H17A C26A 1_555 1_555
O1A C1A 1_555 1_555
O2A C1A 1_555 1_555
O3A C5A 1_555 1_555
C1A C2A 1_555 1_555
C2A C3A 1_555 1_555
C3A H1A 1_555 1_555
C4A C3A 1_555 1_555
H2A C4A 1_555 1_555
C5A C4A 1_555 1_555
C6A C5A 1_555 1_555
H3A C6A 1_555 1_555
C7A C2A 1_555 1_555
H4A C7A 1_555 1_555
C8A O3A 1_555 1_555
C9A C10 1_555 1_555
H5A C9A 1_555 1_555
C10A C9 1_555 1_555
H6A C10A 1_555 1_555
O4A C11A 1_555 1_555
O5A C11A 1_555 1_555
O6A C15A 1_555 1_555
C11A C12A 1_555 1_555
C12A C13A 1_555 1_555
C13A H7A 1_555 1_555
C14A C13A 1_555 1_555
H8A C14A 1_555 1_555
C15A C14A 1_555 1_555
C16A C15A 1_555 1_555
H9A C16A 1_555 1_555
C17A C12A 1_555 1_555
H10A C17A 1_555 1_555
C18A O6A 1_555 1_555
C19A C20 1_555 1_555
H11A C19A 1_555 1_555
C20A C19 1_555 1_555
H12A C20A 1_555 1_555
Cu1A O1A 1_555 1_555
Cu1_2 O2A 1_555 1_555
Cu1_3 O5A 1_555 1_555
Cu1A_2 O4A 1_555 1_555
Cu1A_3 Cu1 1_555 1_555
Cu1A_4 N1A 1_555 1_555
N1A_2 Cu1A 1_555 1_555
O2_2 Cu1A 1_555 1_555
O2A_2 Cu1 1_555 1_555
O4A_2 Cu1A 1_555 1_555
O5_2 Cu1A 1_555 1_555
O5A_2 Cu1 1_555 1_555
O2 Cu1A_3 1_555 1_555
O5 Cu1A_3 1_555 1_555
C6 C7 1_555 1_555
C16 C17 1_555 1_555
C24 C25 1_555 1_555
C23A C26A 1_555 1_555
C24A C25A 1_555 1_555
C6A C7A 1_555 1_555
C8A C9A 1_555 1_555
C8A C10A 1_555 1_555
C16A C17A 1_555 1_555
C18A C19A 1_555 1_555
C18A C20A 1_555 1_555
Cu1A Cu1_2 1_555 1_555
Cu1_3 Cu1A_2 1_555 1_555

#END
