
#######################################################################
#
#                 Cambridge Crystallographic Data Centre
#                                CCDC 
#
#######################################################################
#
# If this CIF has been generated from an entry in the Cambridge 
# Structural Database, then it will include bibliographic, chemical, 
# crystal, experimental, refinement or atomic coordinate data resulting 
# from the CCDC's data processing and validation procedures.
#
#######################################################################

data_WUHNUK
_symmetry_cell_setting           monoclinic
_symmetry_space_group_name_H-M   'P 21/c'
_symmetry_Int_Tables_number      14
_space_group_name_Hall           '-P 2ybc'
loop_
_symmetry_equiv_pos_site_id
_symmetry_equiv_pos_as_xyz
1 x,y,z
2 -x,1/2+y,1/2-z
3 -x,-y,-z
4 x,1/2-y,1/2+z
_cell_length_a                   36.745(3)
_cell_length_b                   5.5792(8)
_cell_length_c                   8.6871(8)
_cell_angle_alpha                90
_cell_angle_beta                 92.931(8)
_cell_angle_gamma                90
_cell_volume                     1778.59
loop_
_atom_site_label
_atom_site_type_symbol
_atom_site_fract_x
_atom_site_fract_y
_atom_site_fract_z
Zn1 Zn 0.74176(4) 0.1752(2) 0.67355(14)
O1 O 0.7722(2) 0.5785(18) 0.5637(9)
O2 O 0.7292(2) 0.3992(16) 0.9533(8)
O3 O 0.9336(2) 0.584(3) 0.3507(11)
O4 O 0.5669(2) 0.604(2) 1.1399(10)
C1 C 0.7000(3) 0.396(2) 0.8801(12)
C2 C 0.5979(3) 0.552(2) 1.0674(12)
C3 C 0.6646(3) 0.4544(18) 0.9474(11)
C4 C 0.8339(3) 0.478(2) 0.5379(12)
C5 C 0.6339(3) 0.323(2) 0.9005(12)
H1 H 0.6358 0.2006 0.8283
C6 C 0.7978(3) 0.433(2) 0.5954(12)
C7 C 0.5336(3) 0.548(3) 1.0632(14)
C8 C 0.8627(3) 0.323(2) 0.5734(14)
H2 H 0.8589 0.1897 0.6347
C9 C 0.9020(3) 0.550(3) 0.4233(14)
C10 C 0.9664(3) 0.536(3) 0.4313(15)
C11 C 0.6617(3) 0.645(2) 1.0527(13)
H3 H 0.6819 0.7387 1.0823
C12 C 0.8746(3) 0.707(3) 0.3856(16)
H4 H 0.8788 0.8369 0.3215
C13 C 0.8969(4) 0.362(3) 0.5197(16)
H5 H 0.9162 0.2612 0.5490
C14 C 0.6279(3) 0.688(2) 1.1107(13)
H6 H 0.6254 0.8127 1.1807
C15 C 0.6005(3) 0.372(2) 0.9604(14)
H7 H 0.5800 0.2837 0.9285
C16 C 0.8402(3) 0.674(2) 0.4432(14)
H8 H 0.8215 0.7819 0.4186
C17 C 0.9894(4) 0.367(3) 0.3741(18)
H9 H 0.9822 0.2793 0.2866
C18 C 0.5134(4) 0.365(3) 1.1241(16)
H10 H 0.5225 0.2758 1.2080
C19 C 1.0228(4) 0.328(3) 0.4465(15)
H11 H 1.0379 0.2079 0.4117
C20 C 0.4795(4) 0.318(3) 1.0570(15)
H12 H 0.4655 0.1935 1.0943
O5 O 0.6978(2) 0.3285(16) 0.7372(9)
O6 O 0.7425(2) -0.1391(16) 0.7772(9)
O7 O 0.7934(2) 0.2517(18) 0.6725(11)
H13 H 0.7212(12) -0.17(2) 0.743(13)
H14 H 0.758(2) -0.196(19) 0.718(12)
O8 O 0.7583(6) 0.173(4) 0.837(2)
O1B O 1.2278(2) 0.4215(18) 0.4363(9)
O3B O 1.0664(2) 0.416(3) 0.6493(11)
C4B C 1.1661(3) 0.522(2) 0.4621(12)
C6B C 1.2022(3) 0.567(2) 0.4046(12)
C8B C 1.1373(3) 0.677(2) 0.4266(14)
H2B H 1.1411 0.8103 0.3653
C9B C 1.0980(3) 0.450(3) 0.5767(14)
C10B C 1.0336(3) 0.464(3) 0.5687(15)
C12B C 1.1254(3) 0.293(3) 0.6144(16)
H4B H 1.1212 0.1631 0.6785
C13B C 1.1031(4) 0.638(3) 0.4803(16)
H5B H 1.0838 0.7388 0.4510
C16B C 1.1598(3) 0.326(2) 0.5568(14)
H8B H 1.1785 0.2181 0.5814
C17B C 1.0106(4) 0.633(3) 0.6259(18)
H9B H 1.0178 0.7207 0.7134
C19B C 0.9772(4) 0.672(3) 0.5535(15)
H11B H 0.9621 0.7921 0.5883
O7B O 1.2066(2) 0.7483(18) 0.3275(11)
O2B O 0.2708(2) 0.6008(16) 1.0467(8)
O4B O 0.4331(2) 0.396(2) 0.8601(10)
C1B C 0.3000(3) 0.604(2) 1.1199(12)
C2B C 0.4021(3) 0.448(2) 0.9326(12)
C3B C 0.3354(3) 0.5456(18) 1.0526(11)
C5B C 0.3661(3) 0.677(2) 1.0995(12)
H1B H 0.3642 0.7994 1.1717
C7B C 0.4664(3) 0.452(3) 0.9368(14)
C11B C 0.3383(3) 0.355(2) 0.9473(13)
H3B H 0.3181 0.2613 0.9177
C14B C 0.3721(3) 0.312(2) 0.8893(13)
H6B H 0.3746 0.1873 0.8193
C15B C 0.3995(3) 0.628(2) 1.0396(14)
H7B H 0.4200 0.7163 1.0715
C18B C 0.4866(4) 0.635(3) 0.8759(16)
H10B H 0.4775 0.7242 0.7920
C20B C 0.5205(4) 0.682(3) 0.9430(15)
H12B H 0.5345 0.8065 0.9057
O5B O 0.3022(2) 0.6715(16) 1.2628(9)
Zn1B Zn 0.25824(4) 0.8248(2) 1.32645(14)
O6B O 0.2575(2) 1.1391(16) 1.2228(9)
H13B H 0.2788(12) 1.17(2) 1.257(13)
H14B H 0.242(2) 1.196(19) 1.282(12)
O8B O 0.2417(6) 0.827(4) 1.163(2)
Zn1A Zn 0.25824(4) 0.6752(2) 0.82645(14)
Zn1B_2 Zn 1.25824(4) 0.8248(2) 0.32645(14)
Zn1C Zn 0.74176(4) 0.3248(2) 1.17355(14)
O2A O 0.2708(2) 0.8992(16) 1.5467(8)
O2C O 0.7292(2) 0.1008(16) 0.4533(8)
O7B_2 O 0.2066(2) 0.7483(18) 1.3275(11)
loop_
_geom_bond_atom_site_label_1
_geom_bond_atom_site_label_2
_geom_bond_site_symmetry_1
_geom_bond_site_symmetry_2
Zn1 O5 1_555 1_555
O1 C6 1_555 1_555
O2 C1 1_555 1_555
O3 C9 1_555 1_555
O4 C2 1_555 1_555
C1 C3 1_555 1_555
C2 C14 1_555 1_555
C3 C5 1_555 1_555
C4 C6 1_555 1_555
C5 H1 1_555 1_555
C6 O7 1_555 1_555
C7 O4 1_555 1_555
C8 C4 1_555 1_555
H2 C8 1_555 1_555
C9 C12 1_555 1_555
C10 O3 1_555 1_555
C11 C3 1_555 1_555
H3 C11 1_555 1_555
C12 H4 1_555 1_555
C13 C8 1_555 1_555
H5 C13 1_555 1_555
C14 C11 1_555 1_555
H6 C14 1_555 1_555
C15 C2 1_555 1_555
H7 C15 1_555 1_555
C16 C4 1_555 1_555
H8 C16 1_555 1_555
C17 C10 1_555 1_555
H9 C17 1_555 1_555
C18 C7 1_555 1_555
H10 C18 1_555 1_555
C19 C17 1_555 1_555
H11 C19 1_555 1_555
C20 C18 1_555 1_555
H12 C20 1_555 1_555
O5 C1 1_555 1_555
O6 Zn1 1_555 1_555
O7 Zn1 1_555 1_555
H13 O6 1_555 1_555
H14 O6 1_555 1_555
O8 Zn1 1_555 1_555
O1B C6B 1_555 1_555
O3B C9B 1_555 1_555
C4B C6B 1_555 1_555
C6B O7B 1_555 1_555
C8B C4B 1_555 1_555
H2B C8B 1_555 1_555
C9B C12B 1_555 1_555
C10B C19 1_555 1_555
C12B H4B 1_555 1_555
C13B C8B 1_555 1_555
H5B C13B 1_555 1_555
C16B C4B 1_555 1_555
H8B C16B 1_555 1_555
C17B C10B 1_555 1_555
H9B C17B 1_555 1_555
C19B C10 1_555 1_555
H11B C19B 1_555 1_555
O7B Zn1B_2 1_555 1_555
O2B C1B 1_555 1_555
O4B C2B 1_555 1_555
C1B C3B 1_555 1_555
C2B C14B 1_555 1_555
C3B C5B 1_555 1_555
C5B H1B 1_555 1_555
C7B C20 1_555 1_555
C11B C3B 1_555 1_555
H3B C11B 1_555 1_555
C14B C11B 1_555 1_555
H6B C14B 1_555 1_555
C15B C2B 1_555 1_555
H7B C15B 1_555 1_555
C18B C7B 1_555 1_555
H10B C18B 1_555 1_555
C20B C7 1_555 1_555
H12B C20B 1_555 1_555
O5B C1B 1_555 1_555
Zn1B O5B 1_555 1_555
O6B Zn1B 1_555 1_555
H13B O6B 1_555 1_555
H14B O6B 1_555 1_555
O8B Zn1B 1_555 1_555
Zn1A O2B 1_555 1_555
Zn1C O2 1_555 1_555
O2A Zn1B 1_555 1_555
O2C Zn1 1_555 1_555
O7B_2 Zn1B 1_555 1_555
C5 C15 1_555 1_555
C9 C13 1_555 1_555
C12 C16 1_555 1_555
O3B C10B 1_555 1_555
C9B C13B 1_555 1_555
C12B C16B 1_555 1_555
C17B C19B 1_555 1_555
O4B C7B 1_555 1_555
C5B C15B 1_555 1_555
C18B C20B 1_555 1_555

#END
