
#######################################################################
#
#                 Cambridge Crystallographic Data Centre
#                                CCDC 
#
#######################################################################
#
# If this CIF has been generated from an entry in the Cambridge 
# Structural Database, then it will include bibliographic, chemical, 
# crystal, experimental, refinement or atomic coordinate data resulting 
# from the CCDC's data processing and validation procedures.
#
#######################################################################

data_WUHWIG
_symmetry_cell_setting           monoclinic
_symmetry_space_group_name_H-M   'P 21/c'
_symmetry_Int_Tables_number      14
_space_group_name_Hall           '-P 2ybc'
loop_
_symmetry_equiv_pos_site_id
_symmetry_equiv_pos_as_xyz
1 x,y,z
2 -x,1/2+y,1/2-z
3 -x,-y,-z
4 x,1/2-y,1/2+z
_cell_length_a                   14.248(3)
_cell_length_b                   16.735(3)
_cell_length_c                   25.463(5)
_cell_angle_alpha                90
_cell_angle_beta                 100.13(3)
_cell_angle_gamma                90
_cell_volume                     5976.76
loop_
_atom_site_label
_atom_site_type_symbol
_atom_site_fract_x
_atom_site_fract_y
_atom_site_fract_z
Cu1 Cu 0.64728(11) 0.07371(12) -0.36386(7)
Cu2 Cu 1.0000 0.5000 -0.5000
C1 C 0.4440(9) 0.0875(11) -0.3405(5)
C2 C 0.3574(10) 0.0511(12) -0.3310(6)
H1 H 0.3141 0.0814 -0.3160
C3 C 0.3380(11) -0.0239(12) -0.3429(6)
H2 H 0.2802 -0.0454 -0.3376
C4 C 0.4028(8) -0.0721(9) -0.3636(6)
C5 C 0.3873(11) -0.1537(12) -0.3795(6)
H3 H 0.3301 -0.1781 -0.3757
C6 C 0.4514(13) -0.1955(13) -0.3992(7)
H4 H 0.4394 -0.2488 -0.4085
C7 C 0.5368(12) -0.1606(10) -0.4063(6)
C8 C 0.6052(14) -0.2043(13) -0.4245(8)
H5 H 0.5951 -0.2579 -0.4335
C9 C 0.6945(12) -0.1652(12) -0.4295(8)
H6 H 0.7414 -0.1930 -0.4431
C10 C 0.7089(11) -0.0860(10) -0.4138(5)
C11 C 0.5568(9) -0.0800(10) -0.3913(5)
C12 C 0.4871(9) -0.0338(10) -0.3714(5)
C13 C 0.4639(9) 0.1727(10) -0.3318(6)
C14 C 0.4363(10) 0.2302(11) -0.3722(7)
C15 C 0.4531(11) 0.3057(12) -0.3635(8)
H7 H 0.4336 0.3417 -0.3911
C16 C 0.5015(14) 0.3361(14) -0.3121(11)
C17 C 0.5296(12) 0.2822(12) -0.2728(9)
H8 H 0.5615 0.3004 -0.2400
C18 C 0.5132(9) 0.2031(13) -0.2795(6)
C19 C 0.3875(12) 0.2012(12) -0.4266(6)
H9 H 0.3727 0.2461 -0.4501
H10 H 0.3297 0.1737 -0.4232
H11 H 0.4292 0.1654 -0.4410
C20 C 0.5238(15) 0.4285(14) -0.3028(11)
H12 H 0.5558 0.4369 -0.2668
H13 H 0.4652 0.4581 -0.3090
H14 H 0.5639 0.4463 -0.3271
C21 C 0.5398(11) 0.1434(13) -0.2331(7)
H15 H 0.5707 0.1714 -0.2019
H16 H 0.5823 0.1037 -0.2428
H17 H 0.4831 0.1180 -0.2258
C22 C 0.8029(9) -0.0488(12) -0.4165(6)
C23 C 0.8168(10) 0.0035(12) -0.4584(6)
C24 C 0.9019(11) 0.0389(15) -0.4597(7)
H18 H 0.9107 0.0739 -0.4868
C25 C 0.9796(11) 0.019(2) -0.4155(10)
C26 C 0.9692(13) -0.0266(17) -0.3760(9)
H19 H 1.0204 -0.0344 -0.3483
C27 C 0.8802(12) -0.0650(13) -0.3741(7)
C28 C 0.7333(11) 0.0222(15) -0.5031(6)
H20 H 0.7541 0.0581 -0.5281
H21 H 0.6829 0.0467 -0.4883
H22 H 0.7106 -0.0263 -0.5209
C29 C 1.0768(12) 0.0617(18) -0.4188(10)
H23 H 1.1243 0.0459 -0.3890
H24 H 1.0681 0.1186 -0.4180
H25 H 1.0974 0.0470 -0.4514
C30 C 0.8713(12) -0.1211(14) -0.3285(7)
H26 H 0.8076 -0.1419 -0.3332
H27 H 0.8850 -0.0925 -0.2953
H28 H 0.9157 -0.1643 -0.3280
C31 C 0.6663(10) 0.2313(11) -0.4140(7)
H29 H 0.6001 0.2322 -0.4186
C32 C 0.7111(10) 0.2981(13) -0.4308(7)
H30 H 0.6770 0.3443 -0.4418
C33 C 0.8083(9) 0.2934(11) -0.4305(6)
C34 C 0.8543(9) 0.2225(10) -0.4095(6)
H31 H 0.9198 0.2170 -0.4075
C35 C 0.8049(9) 0.1642(11) -0.3928(6)
H32 H 0.8374 0.1177 -0.3805
C36 C 0.8637(9) 0.3573(10) -0.4514(5)
C37 C 0.8448(9) 0.3724(10) -0.5066(5)
C38 C 0.7803(10) 0.3285(11) -0.5463(6)
H33 H 0.7454 0.2836 -0.5399
C39 C 0.7788(11) 0.3622(11) -0.5929(6)
H34 H 0.7376 0.3499 -0.6243
C40 C 0.8526(9) 0.4219(10) -0.5864(5)
C41 C 0.8771(8) 0.4671(9) -0.6248(4)
C42 C 0.9510(9) 0.5227(10) -0.6206(5)
C43 C 0.9824(9) 0.5674(10) -0.6621(5)
H35 H 0.9557 0.5642 -0.6980
C44 C 1.0556(9) 0.6142(10) -0.6417(5)
H36 H 1.0899 0.6486 -0.6599
C45 C 1.0695(9) 0.5994(9) -0.5851(5)
C46 C 0.8226(9) 0.4570(10) -0.6827(5)
C47 C 0.7613(10) 0.5174(10) -0.7052(5)
H37 H 0.7507 0.5627 -0.6859
C48 C 0.7157(10) 0.5067(10) -0.7588(5)
H38 H 0.6791 0.5486 -0.7753
C49 C 0.8311(10) 0.3892(11) -0.7114(5)
H39 H 0.8719 0.3492 -0.6957
C50 C 0.7814(11) 0.3770(12) -0.7636(6)
H40 H 0.7869 0.3297 -0.7819
N1 N 0.5094(7) 0.0446(8) -0.3588(4)
N2 N 0.6396(8) -0.0442(8) -0.3952(4)
N3 N 0.7095(8) 0.1673(8) -0.3924(5)
N4 N 0.7218(7) 0.4410(8) -0.7869(5)
N5 N 0.8923(7) 0.4278(8) -0.5320(4)
N6 N 1.0068(7) 0.5449(8) -0.5709(4)
Cu1B Cu 1.35272(11) 0.92629(12) -0.63614(7)
Cu1A Cu 1.35272(11) 0.57371(12) -0.13614(7)
Cu1C Cu 0.64728(11) 0.42629(12) -0.86386(7)
C1B C 1.5560(9) 0.9125(11) -0.6595(5)
C2B C 1.6426(10) 0.9489(12) -0.6690(6)
H1B H 1.6859 0.9186 -0.6840
C3B C 1.6620(11) 1.0239(12) -0.6571(6)
H2B H 1.7198 1.0454 -0.6624
C4B C 1.5972(8) 1.0721(9) -0.6364(6)
C5B C 1.6127(11) 1.1537(12) -0.6205(6)
H3B H 1.6699 1.1781 -0.6243
C6B C 1.5486(13) 1.1955(13) -0.6008(7)
H4B H 1.5606 1.2488 -0.5915
C7B C 1.4632(12) 1.1606(10) -0.5937(6)
C8B C 1.3948(14) 1.2043(13) -0.5755(8)
H5B H 1.4049 1.2579 -0.5665
C9B C 1.3055(12) 1.1652(12) -0.5705(8)
H6B H 1.2586 1.1930 -0.5569
C10B C 1.2911(11) 1.0860(10) -0.5862(5)
C11B C 1.4432(9) 1.0800(10) -0.6087(5)
C12B C 1.5129(9) 1.0338(10) -0.6286(5)
C13B C 1.5361(9) 0.8273(10) -0.6682(6)
C14B C 1.5637(10) 0.7698(11) -0.6278(7)
C15B C 1.5469(11) 0.6943(12) -0.6365(8)
H7B H 1.5664 0.6583 -0.6089
C16B C 1.4985(14) 0.6639(14) -0.6879(11)
C17B C 1.4704(12) 0.7178(12) -0.7272(9)
H8B H 1.4385 0.6996 -0.7600
C18B C 1.4868(9) 0.7969(13) -0.7205(6)
C19B C 1.6125(12) 0.7988(12) -0.5734(6)
H9B H 1.6273 0.7539 -0.5499
H10B H 1.6703 0.8263 -0.5768
H11B H 1.5708 0.8346 -0.5590
C20B C 1.4762(15) 0.5715(14) -0.6972(11)
H12B H 1.4442 0.5631 -0.7332
H13B H 1.5348 0.5419 -0.6910
H14B H 1.4361 0.5537 -0.6729
C21B C 1.4602(11) 0.8566(13) -0.7669(7)
H15B H 1.4293 0.8286 -0.7981
H16B H 1.4177 0.8963 -0.7572
H17B H 1.5169 0.8820 -0.7742
C22B C 1.1971(9) 1.0488(12) -0.5835(6)
C23B C 1.1832(10) 0.9965(12) -0.5416(6)
C24B C 1.0981(11) 0.9611(15) -0.5403(7)
H18B H 1.0893 0.9261 -0.5132
C25B C 1.0204(11) 0.981(2) -0.5845(10)
C26B C 1.0308(13) 1.0266(17) -0.6240(9)
H19B H 0.9796 1.0344 -0.6517
C27B C 1.1198(12) 1.0650(13) -0.6259(7)
C28B C 1.2667(11) 0.9778(15) -0.4969(6)
H20B H 1.2459 0.9419 -0.4719
H21B H 1.3171 0.9533 -0.5117
H22B H 1.2894 1.0263 -0.4791
C29B C 0.9232(12) 0.9383(18) -0.5812(10)
H23B H 0.8757 0.9541 -0.6110
H24B H 0.9319 0.8814 -0.5820
H25B H 0.9026 0.9530 -0.5486
C30B C 1.1287(12) 1.1211(14) -0.6715(7)
H26B H 1.1924 1.1419 -0.6668
H27B H 1.1150 1.0925 -0.7047
H28B H 1.0843 1.1643 -0.6720
C31B C 1.3337(10) 0.7687(11) -0.5860(7)
H29B H 1.3999 0.7678 -0.5814
C32B C 1.2889(10) 0.7019(13) -0.5692(7)
H30B H 1.3230 0.6557 -0.5582
C33B C 1.1917(9) 0.7066(11) -0.5695(6)
C34B C 1.1457(9) 0.7775(10) -0.5905(6)
H31B H 1.0802 0.7830 -0.5925
C35B C 1.1951(9) 0.8358(11) -0.6072(6)
H32B H 1.1626 0.8823 -0.6195
C36B C 1.1363(9) 0.6427(10) -0.5486(5)
C37B C 1.1552(9) 0.6276(10) -0.4934(5)
C38B C 1.2197(10) 0.6715(11) -0.4537(6)
H33B H 1.2546 0.7164 -0.4601
C39B C 1.2212(11) 0.6378(11) -0.4071(6)
H34B H 1.2624 0.6501 -0.3757
C40B C 1.1474(9) 0.5781(10) -0.4136(5)
C41B C 1.1229(8) 0.5329(9) -0.3752(4)
C42B C 1.0490(9) 0.4773(10) -0.3794(5)
C43B C 1.0176(9) 0.4326(10) -0.3379(5)
H35B H 1.0443 0.4358 -0.3020
C44B C 0.9444(9) 0.3858(10) -0.3583(5)
H36B H 0.9101 0.3514 -0.3401
C45B C 0.9305(9) 0.4006(9) -0.4149(5)
C46B C 1.1774(9) 0.5430(10) -0.3173(5)
C47B C 1.2387(10) 0.4826(10) -0.2948(5)
H37B H 1.2493 0.4373 -0.3141
C48B C 1.2843(10) 0.4933(10) -0.2412(5)
H38B H 1.3209 0.4514 -0.2247
C49B C 1.1689(10) 0.6108(11) -0.2886(5)
H39B H 1.1281 0.6508 -0.3043
C50B C 1.2186(11) 0.6230(12) -0.2364(6)
H40B H 1.2131 0.6703 -0.2181
N1B N 1.4906(7) 0.9554(8) -0.6412(4)
N2B N 1.3604(8) 1.0442(8) -0.6048(4)
N3B N 1.2905(8) 0.8327(8) -0.6076(5)
N4B N 1.2782(7) 0.5590(8) -0.2131(5)
N4A N 1.2782(7) 0.9410(8) -0.7131(5)
N4C N 0.7218(7) 0.0590(8) -0.2869(5)
N5B N 1.1077(7) 0.5722(8) -0.4680(4)
N6B N 0.9932(7) 0.4551(8) -0.4291(4)
C51 C 1.2092(17) 0.131(2) -0.2203(9)
C52 C 1.2092(15) 0.2072(18) -0.2428(11)
C53 C 1.130(2) 0.2337(15) -0.2783(10)
H41 H 1.1300 0.2844 -0.2934
C54 C 1.0506(16) 0.185(2) -0.2914(9)
H42 H 0.9976 0.2024 -0.3151
C55 C 1.0505(18) 0.109(2) -0.2689(13)
H43 H 0.9975 0.0761 -0.2776
C56 C 1.130(3) 0.0824(14) -0.2334(12)
H44 H 1.1298 0.0317 -0.2183
Cl1 Cl 1.3129(8) 0.1000(10) -0.1820(6)
Cl2 Cl 1.3061(8) 0.2688(9) -0.2334(7)
C57 C 0.108(2) 0.295(2) -0.4943(9)
C58 C 0.1495(15) 0.3486(15) -0.5254(12)
C59 C 0.120(2) 0.3496(16) -0.5804(12)
H45 H 0.1479 0.3853 -0.6012
C60 C 0.050(2) 0.297(2) -0.6044(10)
H46 H 0.0301 0.2981 -0.6412
C61 C 0.0084(16) 0.2440(17) -0.5733(19)
H47 H -0.0388 0.2091 -0.5893
C62 C 0.038(2) 0.2430(16) -0.5183(18)
H48 H 0.0100 0.2073 -0.4975
Cl3 Cl 0.1395(8) 0.2831(9) -0.4258(5)
Cl4 Cl 0.2447(11) 0.4052(12) -0.4795(11)
P1 P 0.1642(13) -0.135(2) -0.2750(8)
F1 F 0.107(2) -0.075(3) -0.2498(17)
F2 F 0.239(2) -0.072(3) -0.2767(15)
F3 F 0.215(2) -0.160(3) -0.2202(12)
F4 F 0.220(2) -0.194(3) -0.3003(17)
F5 F 0.088(2) -0.197(3) -0.2724(15)
F6 F 0.114(2) -0.109(3) -0.3297(12)
loop_
_geom_bond_atom_site_label_1
_geom_bond_atom_site_label_2
_geom_bond_site_symmetry_1
_geom_bond_site_symmetry_2
Cu1 N1 1_555 1_555
Cu2 N5 1_555 1_555
C1 C2 1_555 1_555
C2 H1 1_555 1_555
C3 C2 1_555 1_555
H2 C3 1_555 1_555
C4 C3 1_555 1_555
C5 C4 1_555 1_555
H3 C5 1_555 1_555
C6 C5 1_555 1_555
H4 C6 1_555 1_555
C7 C6 1_555 1_555
C8 C7 1_555 1_555
H5 C8 1_555 1_555
C9 C8 1_555 1_555
H6 C9 1_555 1_555
C10 C9 1_555 1_555
C11 C7 1_555 1_555
C12 C4 1_555 1_555
C13 C1 1_555 1_555
C14 C13 1_555 1_555
C15 C14 1_555 1_555
H7 C15 1_555 1_555
C16 C15 1_555 1_555
C17 C16 1_555 1_555
H8 C17 1_555 1_555
C18 C13 1_555 1_555
C19 C14 1_555 1_555
H9 C19 1_555 1_555
H10 C19 1_555 1_555
H11 C19 1_555 1_555
C20 C16 1_555 1_555
H12 C20 1_555 1_555
H13 C20 1_555 1_555
H14 C20 1_555 1_555
C21 C18 1_555 1_555
H15 C21 1_555 1_555
H16 C21 1_555 1_555
H17 C21 1_555 1_555
C22 C10 1_555 1_555
C23 C22 1_555 1_555
C24 C23 1_555 1_555
H18 C24 1_555 1_555
C25 C24 1_555 1_555
C26 C25 1_555 1_555
H19 C26 1_555 1_555
C27 C22 1_555 1_555
C28 C23 1_555 1_555
H20 C28 1_555 1_555
H21 C28 1_555 1_555
H22 C28 1_555 1_555
C29 C25 1_555 1_555
H23 C29 1_555 1_555
H24 C29 1_555 1_555
H25 C29 1_555 1_555
C30 C27 1_555 1_555
H26 C30 1_555 1_555
H27 C30 1_555 1_555
H28 C30 1_555 1_555
C31 H29 1_555 1_555
C32 C31 1_555 1_555
H30 C32 1_555 1_555
C33 C32 1_555 1_555
C34 C33 1_555 1_555
H31 C34 1_555 1_555
C35 C34 1_555 1_555
H32 C35 1_555 1_555
C36 C33 1_555 1_555
C37 C36 1_555 1_555
C38 C37 1_555 1_555
H33 C38 1_555 1_555
C39 C38 1_555 1_555
H34 C39 1_555 1_555
C40 C39 1_555 1_555
C41 C40 1_555 1_555
C42 C41 1_555 1_555
C43 C42 1_555 1_555
H35 C43 1_555 1_555
C44 C43 1_555 1_555
H36 C44 1_555 1_555
C45 C44 1_555 1_555
C46 C41 1_555 1_555
C47 C46 1_555 1_555
H37 C47 1_555 1_555
C48 C47 1_555 1_555
H38 C48 1_555 1_555
C49 C46 1_555 1_555
H39 C49 1_555 1_555
C50 C49 1_555 1_555
H40 C50 1_555 1_555
C51 C52 1_555 1_555
C52 C53 1_555 1_555
C53 H41 1_555 1_555
C54 C53 1_555 1_555
H42 C54 1_555 1_555
C55 C54 1_555 1_555
H43 C55 1_555 1_555
C56 C51 1_555 1_555
H44 C56 1_555 1_555
C57 C58 1_555 1_555
C58 C59 1_555 1_555
C59 H45 1_555 1_555
C60 C59 1_555 1_555
H46 C60 1_555 1_555
C61 C60 1_555 1_555
H47 C61 1_555 1_555
C62 C57 1_555 1_555
H48 C62 1_555 1_555
N1 C1 1_555 1_555
N2 Cu1 1_555 1_555
N3 Cu1 1_555 1_555
N4 C48 1_555 1_555
N5 C37 1_555 1_555
N6 Cu2 1_555 1_555
P1 F1 1_555 1_555
F2 P1 1_555 1_555
F3 P1 1_555 1_555
F4 P1 1_555 1_555
F5 P1 1_555 1_555
F6 P1 1_555 1_555
Cl1 C51 1_555 1_555
Cl2 C52 1_555 1_555
Cl3 C57 1_555 1_555
Cl4 C58 1_555 1_555
Cu1B N1B 1_555 1_555
Cu1A N4B 1_555 1_555
Cu1C N4 1_555 1_555
C1B C2B 1_555 1_555
C2B H1B 1_555 1_555
C3B C2B 1_555 1_555
H2B C3B 1_555 1_555
C4B C3B 1_555 1_555
C5B C4B 1_555 1_555
H3B C5B 1_555 1_555
C6B C5B 1_555 1_555
H4B C6B 1_555 1_555
C7B C6B 1_555 1_555
C8B C7B 1_555 1_555
H5B C8B 1_555 1_555
C9B C8B 1_555 1_555
H6B C9B 1_555 1_555
C10B C9B 1_555 1_555
C11B C7B 1_555 1_555
C12B C4B 1_555 1_555
C13B C1B 1_555 1_555
C14B C13B 1_555 1_555
C15B C14B 1_555 1_555
H7B C15B 1_555 1_555
C16B C15B 1_555 1_555
C17B C16B 1_555 1_555
H8B C17B 1_555 1_555
C18B C13B 1_555 1_555
C19B C14B 1_555 1_555
H9B C19B 1_555 1_555
H10B C19B 1_555 1_555
H11B C19B 1_555 1_555
C20B C16B 1_555 1_555
H12B C20B 1_555 1_555
H13B C20B 1_555 1_555
H14B C20B 1_555 1_555
C21B C18B 1_555 1_555
H15B C21B 1_555 1_555
H16B C21B 1_555 1_555
H17B C21B 1_555 1_555
C22B C10B 1_555 1_555
C23B C22B 1_555 1_555
C24B C23B 1_555 1_555
H18B C24B 1_555 1_555
C25B C24B 1_555 1_555
C26B C25B 1_555 1_555
H19B C26B 1_555 1_555
C27B C22B 1_555 1_555
C28B C23B 1_555 1_555
H20B C28B 1_555 1_555
H21B C28B 1_555 1_555
H22B C28B 1_555 1_555
C29B C25B 1_555 1_555
H23B C29B 1_555 1_555
H24B C29B 1_555 1_555
H25B C29B 1_555 1_555
C30B C27B 1_555 1_555
H26B C30B 1_555 1_555
H27B C30B 1_555 1_555
H28B C30B 1_555 1_555
C31B H29B 1_555 1_555
C32B C31B 1_555 1_555
H30B C32B 1_555 1_555
C33B C32B 1_555 1_555
C34B C33B 1_555 1_555
H31B C34B 1_555 1_555
C35B C34B 1_555 1_555
H32B C35B 1_555 1_555
C36B C45 1_555 1_555
C37B C36B 1_555 1_555
C38B C37B 1_555 1_555
H33B C38B 1_555 1_555
C39B C38B 1_555 1_555
H34B C39B 1_555 1_555
C40B C39B 1_555 1_555
C41B C40B 1_555 1_555
C42B C41B 1_555 1_555
C43B C42B 1_555 1_555
H35B C43B 1_555 1_555
C44B C43B 1_555 1_555
H36B C44B 1_555 1_555
C45B C36 1_555 1_555
C46B C41B 1_555 1_555
C47B C46B 1_555 1_555
H37B C47B 1_555 1_555
C48B C47B 1_555 1_555
H38B C48B 1_555 1_555
C49B C46B 1_555 1_555
H39B C49B 1_555 1_555
C50B C49B 1_555 1_555
H40B C50B 1_555 1_555
N1B C1B 1_555 1_555
N2B Cu1B 1_555 1_555
N3B Cu1B 1_555 1_555
N4B C48B 1_555 1_555
N4A Cu1B 1_555 1_555
N4C Cu1 1_555 1_555
N5B Cu2 1_555 1_555
N6B Cu2 1_555 1_555
C10 N2 1_555 1_555
C11 C12 1_555 1_555
C11 N2 1_555 1_555
C12 N1 1_555 1_555
C17 C18 1_555 1_555
C26 C27 1_555 1_555
C31 N3 1_555 1_555
C35 N3 1_555 1_555
C40 N5 1_555 1_555
C42 N6 1_555 1_555
C45 N6 1_555 1_555
C50 N4 1_555 1_555
C55 C56 1_555 1_555
C61 C62 1_555 1_555
C10B N2B 1_555 1_555
C11B C12B 1_555 1_555
C11B N2B 1_555 1_555
C12B N1B 1_555 1_555
C17B C18B 1_555 1_555
C26B C27B 1_555 1_555
C31B N3B 1_555 1_555
C33B C36B 1_555 1_555
C35B N3B 1_555 1_555
C37B N5B 1_555 1_555
C40B N5B 1_555 1_555
C42B N6B 1_555 1_555
C44B C45B 1_555 1_555
C45B N6B 1_555 1_555
C50B N4B 1_555 1_555

#END
