
#######################################################################
#
#                 Cambridge Crystallographic Data Centre
#                                CCDC 
#
#######################################################################
#
# If this CIF has been generated from an entry in the Cambridge 
# Structural Database, then it will include bibliographic, chemical, 
# crystal, experimental, refinement or atomic coordinate data resulting 
# from the CCDC's data processing and validation procedures.
#
#######################################################################

data_WUHWOM
_symmetry_cell_setting           rhombohedral
_symmetry_space_group_name_H-M   'R -3'
_symmetry_Int_Tables_number      148
_space_group_name_Hall           '-R 3'
loop_
_symmetry_equiv_pos_site_id
_symmetry_equiv_pos_as_xyz
1 x,y,z
2 -y,x-y,z
3 -x+y,-x,z
4 1/3+x,2/3+y,2/3+z
5 1/3-y,2/3+x-y,2/3+z
6 1/3-x+y,2/3-x,2/3+z
7 2/3+x,1/3+y,1/3+z
8 2/3-y,1/3+x-y,1/3+z
9 2/3-x+y,1/3-x,1/3+z
10 -x,-y,-z
11 y,-x+y,-z
12 x-y,x,-z
13 2/3-x,1/3-y,1/3-z
14 2/3+y,1/3-x+y,1/3-z
15 2/3+x-y,1/3+x,1/3-z
16 1/3-x,2/3-y,2/3-z
17 1/3+y,2/3-x+y,2/3-z
18 1/3+x-y,2/3+x,2/3-z
_cell_length_a                   26.457(11)
_cell_length_b                   26.457(11)
_cell_length_c                   102.846(8)
_cell_angle_alpha                90
_cell_angle_beta                 90
_cell_angle_gamma                120
_cell_volume                     62344.7
loop_
_atom_site_label
_atom_site_type_symbol
_atom_site_fract_x
_atom_site_fract_y
_atom_site_fract_z
Cu1 Cu 0.22456(3) -0.16681(3) 0.124378(7)
C1 C 0.1101(3) -0.1668(3) 0.12911(7)
C2 C 0.0671(3) -0.1506(4) 0.12647(8)
H1 H 0.0350 -0.1632 0.1319
C3 C 0.0731(4) -0.1172(4) 0.11603(8)
H2 H 0.0455 -0.1062 0.1142
C4 C 0.1211(3) -0.0996(3) 0.10811(7)
C5 C 0.1306(3) -0.0647(3) 0.09636(7)
H3 H 0.1037 -0.0536 0.0940
C6 C 0.1764(4) -0.0494(3) 0.08927(7)
H4 H 0.1817 -0.0268 0.0819
C7 C 0.2197(3) -0.0656(3) 0.09220(7)
C8 C 0.2691(4) -0.0502(3) 0.08508(7)
H5 H 0.2756 -0.0283 0.0776
C9 C 0.3094(3) -0.0660(3) 0.08867(8)
H6 H 0.3428 -0.0549 0.0837
C10 C 0.2986(3) -0.0989(3) 0.09981(6)
C11 C 0.1615(3) -0.1172(3) 0.11129(6)
C12 C 0.2117(3) -0.0997(2) 0.10362(6)
C13 C 0.0996(3) -0.2085(4) 0.14073(8)
C14 C 0.0682(3) -0.2670(4) 0.13930(7)
C15 C 0.0620(3) -0.3022(3) 0.15011(8)
C16 C 0.0871(3) -0.2779(4) 0.16190(7)
C17 C 0.1172(3) -0.2188(4) 0.16324(8)
C18 C 0.1237(3) -0.1830(3) 0.15268(9)
C19 C 0.0392(4) -0.2928(3) 0.12649(7)
H7 H 0.0484 -0.2619 0.1204
H8 H -0.0023 -0.3151 0.1277
H9 H 0.0531 -0.3177 0.1232
C20 C 0.0247(4) -0.3705(4) 0.14852(8)
H10 H 0.0244 -0.3889 0.1566
H11 H 0.0414 -0.3828 0.1418
H12 H -0.0146 -0.3813 0.1462
C21 C 0.1467(4) -0.1923(4) 0.17612(9)
H13 H 0.1375 -0.2229 0.1823
H14 H 0.1329 -0.1672 0.1793
H15 H 0.1882 -0.1701 0.1749
C22 C 0.1565(4) -0.1168(4) 0.15440(8)
H16 H 0.1703 -0.1073 0.1632
H17 H 0.1308 -0.1020 0.1525
H18 H 0.1892 -0.0996 0.1486
C23 C 0.0793(3) -0.3164(4) 0.17275(8)
C24 C 0.0383(3) -0.3325(3) 0.18194(7)
H19 H 0.0126 -0.3182 0.1816
C25 C 0.0331(3) -0.3704(3) 0.19192(7)
H20 H 0.0014 -0.3827 0.1975
C26 C 0.1080(3) -0.3756(4) 0.18475(8)
H21 H 0.1342 -0.3893 0.1854
C27 C 0.1125(3) -0.3408(4) 0.17394(8)
H22 H 0.1395 -0.3347 0.1675
C28 C 0.3411(3) -0.1166(4) 0.10396(7)
C29 C 0.3903(4) -0.0788(3) 0.11133(7)
C30 C 0.4318(3) -0.0940(4) 0.11482(7)
C31 C 0.4262(4) -0.1448(5) 0.11115(9)
C32 C 0.3822(4) -0.1811(4) 0.10293(10)
C33 C 0.3373(3) -0.1662(4) 0.09977(8)
C34 C 0.3977(3) -0.0201(4) 0.11505(8)
H23 H 0.4327 0.0014 0.1201
H24 H 0.3647 -0.0258 0.1201
H25 H 0.4003 0.0015 0.1073
C35 C 0.4860(4) -0.0510(4) 0.12285(9)
H26 H 0.5101 -0.0680 0.1244
H27 H 0.4736 -0.0432 0.1310
H28 H 0.5079 -0.0152 0.1181
C36 C 0.3730(4) -0.2394(5) 0.09852(13)
H29 H 0.4055 -0.2435 0.1012
H30 H 0.3699 -0.2418 0.0892
H31 H 0.3378 -0.2700 0.1023
C37 C 0.2852(4) -0.2082(4) 0.09063(11)
H32 H 0.2595 -0.1929 0.0894
H33 H 0.2642 -0.2462 0.0945
H34 H 0.3004 -0.2112 0.0824
C38 C 0.4684(3) -0.1648(4) 0.11458(8)
C39 C 0.5177(3) -0.1482(3) 0.10763(7)
H35 H 0.5257 -0.1244 0.1004
C40 C 0.5555(3) -0.1662(3) 0.11123(7)
H36 H 0.5888 -0.1530 0.1061
C41 C 0.5036(3) -0.2130(4) 0.12751(8)
H37 H 0.4961 -0.2369 0.1347
C42 C 0.4631(3) -0.1952(4) 0.12488(8)
H38 H 0.4321 -0.2053 0.1305
N1 N 0.1557(2) -0.1513(2) 0.12215(5)
N2 N 0.2522(2) -0.11607(19) 0.10730(5)
N3 N 0.0684(2) -0.3899(3) 0.19419(5)
N4 N 0.5505(2) -0.1999(3) 0.12101(5)
Cu1M Cu 0.49986(3) -0.05804(4) 0.208955(7)
Cu1A Cu 0.16681(3) -0.60863(4) 0.124378(7)
Cu1N Cu 0.05804(4) -0.44211(3) 0.208955(7)
Cu1B Cu 0.60863(4) -0.22456(3) 0.124378(7)
Cu1L Cu 0.44211(3) -0.49986(3) 0.208955(7)
C1M C 0.4999(3) 0.0564(4) 0.20422(7)
C1A C 0.1668(3) -0.7231(4) 0.12911(7)
C2M C 0.5161(4) 0.1156(5) 0.20686(8)
C2A C 0.1506(4) -0.7823(5) 0.12647(8)
H1M H 0.5035 0.1351 0.2014
H1A H 0.1632 -0.8018 0.1319
C3M C 0.5495(4) 0.1430(6) 0.21730(8)
C3A C 0.1172(4) -0.8097(6) 0.11603(8)
H2M H 0.5605 0.1816 0.2191
H2A H 0.1062 -0.8483 0.1142
C4M C 0.5671(3) 0.1126(4) 0.22522(7)
C4A C 0.0996(3) -0.7793(4) 0.10811(7)
C5M C 0.6020(3) 0.1380(4) 0.23697(7)
C5A C 0.0647(3) -0.8047(4) 0.09636(7)
H3M H 0.6131 0.1760 0.2393
H3A H 0.0536 -0.8427 0.0940
C6M C 0.6173(3) 0.1075(5) 0.24406(7)
C6A C 0.0494(3) -0.7742(5) 0.08927(7)
H4M H 0.6399 0.1248 0.2514
H4A H 0.0268 -0.7915 0.0819
C7M C 0.6011(3) 0.0480(4) 0.24113(7)
C7A C 0.0656(3) -0.7147(4) 0.09220(7)
C8M C 0.6165(3) 0.0140(5) 0.24825(7)
C8A C 0.0502(3) -0.6807(5) 0.08508(7)
H5M H 0.6384 0.0294 0.2557
H5A H 0.0283 -0.6961 0.0776
C9M C 0.6007(3) -0.0421(4) 0.24466(8)
C9A C 0.0660(3) -0.6246(4) 0.08867(8)
H6M H 0.6118 -0.0644 0.2496
H6A H 0.0549 -0.6023 0.0837
C10M C 0.5678(3) -0.0642(4) 0.23352(6)
C10A C 0.0989(3) -0.6025(4) 0.09981(6)
C11M C 0.5495(3) 0.0546(4) 0.22204(6)
C11A C 0.1172(3) -0.7213(4) 0.11129(6)
C12M C 0.5670(2) 0.0219(4) 0.22971(6)
C12A C 0.0997(2) -0.6886(4) 0.10362(6)
C13M C 0.4582(4) 0.0252(5) 0.19260(8)
C13A C 0.2085(4) -0.6919(5) 0.14073(8)
C14M C 0.3997(4) -0.0019(5) 0.19403(7)
C14A C 0.2670(4) -0.6648(5) 0.13930(7)
C15M C 0.3645(3) -0.0309(4) 0.18322(8)
C15A C 0.3022(3) -0.6358(4) 0.15011(8)
C16M C 0.3888(4) -0.0317(5) 0.17143(7)
C16A C 0.2779(4) -0.6350(5) 0.16190(7)
C17M C 0.4479(4) -0.0027(5) 0.17009(8)
C17A C 0.2188(4) -0.6640(5) 0.16324(8)
C18M C 0.4837(3) 0.0266(4) 0.18065(9)
C18A C 0.1830(3) -0.6933(4) 0.15268(9)
C19M C 0.3739(3) 0.0013(5) 0.20684(7)
C19A C 0.2928(3) -0.6680(5) 0.12649(7)
H7M H 0.4048 0.0230 0.2129
H7A H 0.2619 -0.6897 0.1204
H8M H 0.3516 0.0205 0.2056
H8A H 0.3151 -0.6872 0.1277
H9M H 0.3490 -0.0375 0.2101
H9A H 0.3177 -0.6292 0.1232
C20M C 0.2962(4) -0.0619(6) 0.18481(8)
C20A C 0.3705(4) -0.6048(6) 0.14852(8)
H10M H 0.2778 -0.0800 0.1767
H10A H 0.3889 -0.5867 0.1566
H11M H 0.2839 -0.0909 0.1915
H11A H 0.3828 -0.5758 0.1418
H12M H 0.2854 -0.0334 0.1871
H12A H 0.3813 -0.6333 0.1462
C21M C 0.4744(4) -0.0057(6) 0.15721(9)
C21A C 0.1923(4) -0.6610(6) 0.17612(9)
H13M H 0.4438 -0.0271 0.1510
H13A H 0.2229 -0.6396 0.1823
H14M H 0.4995 0.0332 0.1540
H14A H 0.1672 -0.6999 0.1793
H15M H 0.4966 -0.0250 0.1584
H15A H 0.1701 -0.6417 0.1749
C22M C 0.5499(4) 0.0600(6) 0.17893(8)
C22A C 0.1168(4) -0.7267(6) 0.15440(8)
H16M H 0.5594 0.0557 0.1701
H16A H 0.1073 -0.7224 0.1632
H17M H 0.5647 0.1005 0.1808
H17A H 0.1020 -0.7672 0.1525
H18M H 0.5671 0.0445 0.1847
H18A H 0.0996 -0.7112 0.1486
C23M C 0.3503(4) -0.0624(5) 0.16058(8)
C23A C 0.3164(4) -0.6043(5) 0.17275(8)
C24M C 0.3342(3) -0.0375(4) 0.15139(7)
C24A C 0.3325(3) -0.6292(4) 0.18194(7)
H19M H 0.3485 0.0025 0.1517
H19A H 0.3182 -0.6692 0.1816
C25M C 0.2963(3) -0.0702(4) 0.14141(7)
C25A C 0.3704(3) -0.5965(4) 0.19192(7)
H20M H 0.2840 -0.0508 0.1358
H20A H 0.3827 -0.6159 0.1975
C26M C 0.2911(4) -0.1503(5) 0.14858(8)
C26A C 0.3756(4) -0.5164(5) 0.18475(8)
H21M H 0.2774 -0.1902 0.1479
H21A H 0.3893 -0.4765 0.1854
C27M C 0.3259(4) -0.1200(5) 0.15939(8)
C27A C 0.3408(4) -0.5467(5) 0.17394(8)
H22M H 0.3320 -0.1409 0.1658
H22A H 0.3347 -0.5258 0.1675
C28M C 0.5501(4) -0.1244(5) 0.22937(7)
C28A C 0.1166(4) -0.5423(5) 0.10396(7)
C29M C 0.5879(3) -0.1358(5) 0.22200(7)
C29A C 0.0788(3) -0.5309(5) 0.11133(7)
C30M C 0.5727(4) -0.1925(5) 0.21851(7)
C30A C 0.0940(4) -0.4742(5) 0.11482(7)
C31M C 0.5219(5) -0.2377(6) 0.22218(9)
C31A C 0.1448(5) -0.4290(6) 0.11115(9)
C32M C 0.4856(4) -0.2300(6) 0.23040(10)
C32A C 0.1811(4) -0.4367(6) 0.10293(10)
C33M C 0.5005(4) -0.1702(5) 0.23356(8)
C33A C 0.1662(4) -0.4965(5) 0.09977(8)
C34M C 0.6466(4) -0.0845(5) 0.21828(8)
C34A C 0.0201(4) -0.5822(5) 0.11505(8)
H23M H 0.6681 -0.0980 0.2132
H23A H -0.0014 -0.5687 0.1201
H24M H 0.6409 -0.0572 0.2132
H24A H 0.0258 -0.6095 0.1201
H25M H 0.6682 -0.0655 0.2260
H25A H -0.0015 -0.6012 0.1073
C35M C 0.6157(4) -0.2037(6) 0.21048(9)
C35A C 0.0510(4) -0.4630(6) 0.12285(9)
H26M H 0.5987 -0.2448 0.2089
H26A H 0.0680 -0.4219 0.1244
H27M H 0.6235 -0.1835 0.2023
H27A H 0.0432 -0.4832 0.1310
H28M H 0.6515 -0.1898 0.2152
H28A H 0.0152 -0.4769 0.1181
C36M C 0.4273(5) -0.2791(6) 0.23481(13)
C36A C 0.2394(5) -0.3876(6) 0.09852(13)
H29M H 0.4232 -0.3157 0.2321
H29A H 0.2435 -0.3510 0.1012
H30M H 0.4249 -0.2784 0.2441
H30A H 0.2418 -0.3883 0.0892
H31M H 0.3967 -0.2745 0.2310
H31A H 0.2700 -0.3922 0.1023
C37M C 0.4585(4) -0.1601(6) 0.24270(11)
C37A C 0.2082(4) -0.5066(6) 0.09063(11)
H32M H 0.4738 -0.1191 0.2439
H32A H 0.1929 -0.5476 0.0894
H33M H 0.4205 -0.1771 0.2388
H33A H 0.2462 -0.4896 0.0945
H34M H 0.4555 -0.1783 0.2509
H34A H 0.2112 -0.4884 0.0824
C38M C 0.5019(4) -0.2999(5) 0.21875(8)
C38A C 0.1648(4) -0.3668(5) 0.11458(8)
C39M C 0.5185(3) -0.3326(4) 0.22570(7)
C39A C 0.1482(3) -0.3341(4) 0.10763(7)
H35M H 0.5423 -0.3168 0.2329
H35A H 0.1244 -0.3499 0.1004
C40M C 0.5005(3) -0.3884(4) 0.22210(7)
C40A C 0.1662(3) -0.2783(4) 0.11123(7)
H36M H 0.5137 -0.4085 0.2272
H36A H 0.1530 -0.2582 0.1061
C41M C 0.4537(4) -0.3833(5) 0.20582(8)
C41A C 0.2130(4) -0.2834(5) 0.12751(8)
H37M H 0.4298 -0.3997 0.1986
H37A H 0.2369 -0.2670 0.1347
C42M C 0.4715(4) -0.3250(5) 0.20845(8)
C42A C 0.1952(4) -0.3417(5) 0.12488(8)
H38M H 0.4614 -0.3041 0.2028
H38A H 0.2053 -0.3626 0.1305
N1M N 0.5154(2) 0.0263(3) 0.21118(5)
N1A N 0.1513(2) -0.6930(3) 0.12215(5)
N2M N 0.55060(19) -0.03494(28) 0.22603(5)
N2A N 0.11607(19) -0.63173(28) 0.10730(5)
N3M N 0.2768(3) -0.1250(4) 0.13914(5)
N3A N 0.3899(3) -0.5417(4) 0.19419(5)
N3B N 0.5417(4) -0.0684(2) 0.19419(5)
N3N N 0.1250(4) -0.5983(2) 0.13914(5)
N4M N 0.4668(3) -0.4171(4) 0.21232(5)
N4A N 0.1999(3) -0.2496(4) 0.12101(5)
N4N N 0.4171(4) -0.1162(2) 0.21232(5)
N4B N 0.2496(4) -0.5505(2) 0.12101(5)
Cu2 Cu 0.08200(3) 0.27086(3) -0.042177(6)
C43 C 0.0339(3) 0.3553(2) -0.03787(6)
C44 C 0.0280(3) 0.4027(3) -0.04061(7)
H39 H 0.0030 0.4099 -0.0356
C45 C 0.0594(3) 0.4403(3) -0.05080(8)
H40 H 0.0566 0.4732 -0.0526
C46 C 0.0946(3) 0.4261(3) -0.05802(6)
C47 C 0.1296(4) 0.4612(3) -0.06905(8)
H41 H 0.1269 0.4936 -0.0715
C48 C 0.1650(4) 0.4488(3) -0.07569(7)
H42 H 0.1871 0.4731 -0.0825
C49 C 0.1699(3) 0.3967(3) -0.07244(6)
C50 C 0.2055(3) 0.3817(3) -0.07886(7)
H43 H 0.2298 0.4052 -0.0855
C51 C 0.2053(3) 0.3316(3) -0.07547(7)
H44 H 0.2285 0.3203 -0.0800
C52 C 0.1698(3) 0.2972(2) -0.06512(6)
C53 C 0.1348(2) 0.3608(2) -0.06222(5)
C54 C 0.0976(3) 0.3766(2) -0.05504(5)
C55 C 0.0002(3) 0.3160(3) -0.02668(7)
C56 C 0.0287(3) 0.3251(3) -0.01484(7)
C57 C -0.0005(3) 0.2875(3) -0.00431(6)
C58 C -0.0581(3) 0.2449(3) -0.00581(6)
C59 C -0.0875(3) 0.2401(3) -0.01708(7)
C60 C -0.0567(3) 0.2759(3) -0.02792(6)
C61 C 0.0897(3) 0.3729(3) -0.01313(7)
H45 H 0.1034 0.3946 -0.0211
H46 H 0.1139 0.3567 -0.0109
H47 H 0.0913 0.3983 -0.0063
C62 C 0.0301(3) 0.2935(4) 0.00843(7)
H48 H 0.0037 0.2642 0.0144
H49 H 0.0428 0.3315 0.0120
H50 H 0.0632 0.2886 0.0070
C63 C -0.1518(4) 0.1938(3) -0.01826(7)
H51 H -0.1654 0.1738 -0.0101
H52 H -0.1564 0.1662 -0.0249
H53 H -0.1741 0.2121 -0.0205
C64 C -0.0874(3) 0.2694(3) -0.04040(6)
H54 H -0.0606 0.2966 -0.0466
H55 H -0.1189 0.2771 -0.0390
H56 H -0.1028 0.2304 -0.0436
C65 C -0.0907(3) 0.2056(3) 0.00543(7)
C66 C -0.0953(4) 0.1521(4) 0.00675(8)
H57 H -0.0798 0.1383 0.0005
C67 C -0.1227(4) 0.1194(4) 0.01740(8)
H58 H -0.1251 0.0832 0.0178
C68 C -0.1414(3) 0.1851(3) 0.02559(6)
H59 H -0.1573 0.1981 0.0319
C69 C -0.1143(3) 0.2208(3) 0.01513(7)
H60 H -0.1122 0.2569 0.0148
C70 C 0.1729(3) 0.2451(3) -0.06120(6)
C71 C 0.1295(3) 0.1908(3) -0.06535(5)
C72 C 0.1317(3) 0.1407(2) -0.06166(6)
C73 C 0.1766(3) 0.1455(3) -0.05460(6)
C74 C 0.2200(3) 0.1989(3) -0.05063(6)
C75 C 0.2184(3) 0.2505(3) -0.05424(6)
C76 C 0.0824(3) 0.1858(3) -0.07455(7)
H61 H 0.0872 0.2238 -0.0760
H62 H 0.0448 0.1607 -0.0708
H63 H 0.0855 0.1696 -0.0827
C77 C 0.0839(3) 0.0804(3) -0.06637(7)
H64 H 0.0916 0.0510 -0.0631
H65 H 0.0836 0.0794 -0.0757
H66 H 0.0466 0.0730 -0.0633
C78 C 0.2709(4) 0.2044(3) -0.04235(7)
H67 H 0.2655 0.1662 -0.0407
H68 H 0.2722 0.2229 -0.0342
H69 H 0.3070 0.2274 -0.0469
C79 C 0.2684(3) 0.3111(3) -0.04997(7)
H70 H 0.2611 0.3409 -0.0532
H71 H 0.3047 0.3170 -0.0534
H72 H 0.2706 0.3129 -0.0407
C80 C 0.1798(3) 0.0922(3) -0.05142(6)
C81 C 0.1467(4) 0.0529(4) -0.04148(8)
H73 H 0.1210 0.0597 -0.0366
C82 C 0.1516(4) 0.0063(3) -0.03888(8)
H74 H 0.1294 -0.0171 -0.0320
C83 C 0.2144(3) 0.0261(3) -0.05497(6)
H75 H 0.2384 0.0175 -0.0600
C84 C 0.2123(2) 0.0744(3) -0.05827(5)
H76 H 0.2335 0.0961 -0.0654
N5 N 0.06720(19) 0.34093(17) -0.04453(4)
N6 N 0.13572(19) 0.31082(18) -0.05847(4)
N7 N -0.1463(2) 0.1322(2) 0.02716(5)
N8 N 0.1855(2) -0.0106(2) -0.04526(5)
Cu2J Cu 0.27086(3) 0.18886(4) 0.042177(6)
Cu2A Cu -0.27086(3) -0.18886(4) -0.042177(6)
Cu2K Cu -0.18886(4) 0.08200(3) 0.042177(6)
Cu2B Cu 0.18886(4) -0.08200(3) -0.042177(6)
Cu2I Cu -0.08200(3) -0.27086(3) 0.042177(6)
C43J C 0.3553(2) 0.3214(4) 0.03787(6)
C43A C -0.3553(2) -0.3214(4) -0.03787(6)
C44J C 0.4027(3) 0.3747(4) 0.04061(7)
C44A C -0.4027(3) -0.3747(4) -0.04061(7)
H39J H 0.4099 0.4069 0.0356
H39A H -0.4099 -0.4069 -0.0356
C45J C 0.4403(3) 0.3809(4) 0.05080(8)
C45A C -0.4403(3) -0.3809(4) -0.05080(8)
H40J H 0.4732 0.4166 0.0526
H40A H -0.4732 -0.4166 -0.0526
C46J C 0.4261(3) 0.3315(4) 0.05802(6)
C46A C -0.4261(3) -0.3315(4) -0.05802(6)
C47J C 0.4612(3) 0.3316(5) 0.06905(8)
C47A C -0.4612(3) -0.3316(5) -0.06905(8)
H41J H 0.4936 0.3667 0.0715
H41A H -0.4936 -0.3667 -0.0715
C48J C 0.4488(3) 0.2838(5) 0.07569(7)
C48A C -0.4488(3) -0.2838(5) -0.07569(7)
H42J H 0.4731 0.2860 0.0825
H42A H -0.4731 -0.2860 -0.0825
C49J C 0.3967(3) 0.2268(4) 0.07244(6)
C49A C -0.3967(3) -0.2268(4) -0.07244(6)
C50J C 0.3817(3) 0.1762(4) 0.07886(7)
C50A C -0.3817(3) -0.1762(4) -0.07886(7)
H43J H 0.4052 0.1754 0.0855
H43A H -0.4052 -0.1754 -0.0855
C51J C 0.3316(3) 0.1263(4) 0.07547(7)
C51A C -0.3316(3) -0.1263(4) -0.07547(7)
H44J H 0.3203 0.0918 0.0800
H44A H -0.3203 -0.0918 -0.0800
C52J C 0.2972(2) 0.1274(4) 0.06512(6)
C52A C -0.2972(2) -0.1274(4) -0.06512(6)
C53J C 0.3608(2) 0.2260(3) 0.06222(5)
C53A C -0.3608(2) -0.2260(3) -0.06222(5)
C54J C 0.3766(2) 0.2790(4) 0.05504(5)
C54A C -0.3766(2) -0.2790(4) -0.05504(5)
C55J C 0.3160(3) 0.3158(4) 0.02668(7)
C55A C -0.3160(3) -0.3158(4) -0.02668(7)
C56J C 0.3251(3) 0.2964(4) 0.01484(7)
C56A C -0.3251(3) -0.2964(4) -0.01484(7)
C57J C 0.2875(3) 0.2880(4) 0.00431(6)
C57A C -0.2875(3) -0.2880(4) -0.00431(6)
C58J C 0.2449(3) 0.3030(4) 0.00581(6)
C58A C -0.2449(3) -0.3030(4) -0.00581(6)
C59J C 0.2401(3) 0.3276(4) 0.01708(7)
C59A C -0.2401(3) -0.3276(4) -0.01708(7)
C60J C 0.2759(3) 0.3326(4) 0.02792(6)
C60A C -0.2759(3) -0.3326(4) -0.02792(6)
C61J C 0.3729(3) 0.2832(4) 0.01313(7)
C61A C -0.3729(3) -0.2832(4) -0.01313(7)
H45J H 0.3946 0.2912 0.0211
H45A H -0.3946 -0.2912 -0.0211
H46J H 0.3567 0.2428 0.0109
H46A H -0.3567 -0.2428 -0.0109
H47J H 0.3983 0.3070 0.0063
H47A H -0.3983 -0.3070 -0.0063
C62J C 0.2935(4) 0.2634(5) -0.00843(7)
C62A C -0.2935(4) -0.2634(5) 0.00843(7)
H48J H 0.2642 0.2605 -0.0144
H48A H -0.2642 -0.2605 0.0144
H49J H 0.3315 0.2887 -0.0120
H49A H -0.3315 -0.2887 0.0120
H50J H 0.2886 0.2254 -0.0070
H50A H -0.2886 -0.2254 0.0070
C63J C 0.1938(3) 0.3456(5) 0.01826(7)
C63A C -0.1938(3) -0.3456(5) -0.01826(7)
H51J H 0.1738 0.3392 0.0101
H51A H -0.1738 -0.3392 -0.0101
H52J H 0.1662 0.3226 0.0249
H52A H -0.1662 -0.3226 -0.0249
H53J H 0.2121 0.3862 0.0205
H53A H -0.2121 -0.3862 -0.0205
C64J C 0.2694(3) 0.3568(4) 0.04040(6)
C64A C -0.2694(3) -0.3568(4) -0.04040(6)
H54J H 0.2966 0.3572 0.0466
H54A H -0.2966 -0.3572 -0.0466
H55J H 0.2771 0.3960 0.0390
H55A H -0.2771 -0.3960 -0.0390
H56J H 0.2304 0.3332 0.0436
H56A H -0.2304 -0.3332 -0.0436
C65J C 0.2056(3) 0.2963(4) -0.00543(7)
C65A C -0.2056(3) -0.2963(4) 0.00543(7)
C66J C 0.1521(4) 0.2474(6) -0.00675(8)
C66A C -0.1521(4) -0.2474(6) 0.00675(8)
H57J H 0.1383 0.2181 -0.0005
H57A H -0.1383 -0.2181 0.0005
C67J C 0.1194(4) 0.2421(6) -0.01740(8)
C67A C -0.1194(4) -0.2421(6) 0.01740(8)
H58J H 0.0832 0.2083 -0.0178
H58A H -0.0832 -0.2083 0.0178
C68J C 0.1851(3) 0.3265(4) -0.02559(6)
C68A C -0.1851(3) -0.3265(4) 0.02559(6)
H59J H 0.1981 0.3554 -0.0319
H59A H -0.1981 -0.3554 0.0319
C69J C 0.2208(3) 0.3351(4) -0.01513(7)
C69A C -0.2208(3) -0.3351(4) 0.01513(7)
H60J H 0.2569 0.3691 -0.0148
H60A H -0.2569 -0.3691 0.0148
C70J C 0.2451(3) 0.0722(4) 0.06120(6)
C70A C -0.2451(3) -0.0722(4) -0.06120(6)
C71J C 0.1908(3) 0.0613(4) 0.06535(5)
C71A C -0.1908(3) -0.0613(4) -0.06535(5)
C72J C 0.1407(2) 0.0090(4) 0.06166(6)
C72A C -0.1407(2) -0.0090(4) -0.06166(6)
C73J C 0.1455(3) -0.0311(4) 0.05460(6)
C73A C -0.1455(3) 0.0311(4) -0.05460(6)
C74J C 0.1989(3) -0.0211(4) 0.05063(6)
C74A C -0.1989(3) 0.0211(4) -0.05063(6)
C75J C 0.2505(3) 0.0321(4) 0.05424(6)
C75A C -0.2505(3) -0.0321(4) -0.05424(6)
C76J C 0.1858(3) 0.1034(4) 0.07455(7)
C76A C -0.1858(3) -0.1034(4) -0.07455(7)
H61J H 0.2238 0.1366 0.0760
H61A H -0.2238 -0.1366 -0.0760
H62J H 0.1607 0.1159 0.0708
H62A H -0.1607 -0.1159 -0.0708
H63J H 0.1696 0.0841 0.0827
H63A H -0.1696 -0.0841 -0.0827
C77J C 0.0804(3) -0.0035(4) 0.06637(7)
C77A C -0.0804(3) 0.0035(4) -0.06637(7)
H64J H 0.0510 -0.0406 0.0631
H64A H -0.0510 0.0406 -0.0631
H65J H 0.0794 -0.0042 0.0757
H65A H -0.0794 0.0042 -0.0757
H66J H 0.0730 0.0264 0.0633
H66A H -0.0730 -0.0264 -0.0633
C78J C 0.2044(3) -0.0665(5) 0.04235(7)
C78A C -0.2044(3) 0.0665(5) -0.04235(7)
H67J H 0.1662 -0.0993 0.0407
H67A H -0.1662 0.0993 -0.0407
H68J H 0.2229 -0.0493 0.0342
H68A H -0.2229 0.0493 -0.0342
H69J H 0.2274 -0.0796 0.0469
H69A H -0.2274 0.0796 -0.0469
C79J C 0.3111(3) 0.0427(4) 0.04997(7)
C79A C -0.3111(3) -0.0427(4) -0.04997(7)
H70J H 0.3409 0.0798 0.0532
H70A H -0.3409 -0.0798 -0.0532
H71J H 0.3170 0.0123 0.0534
H71A H -0.3170 -0.0123 -0.0534
H72J H 0.3129 0.0423 0.0407
H72A H -0.3129 -0.0423 -0.0407
C80J C 0.0922(3) -0.0876(4) 0.05142(6)
C80A C -0.0922(3) 0.0876(4) -0.05142(6)
C81J C 0.0529(4) -0.0938(6) 0.04148(8)
C81A C -0.0529(4) 0.0938(6) -0.04148(8)
H73J H 0.0597 -0.0613 0.0366
H73A H -0.0597 0.0613 -0.0366
C82J C 0.0063(3) -0.1453(5) 0.03888(8)
C82A C -0.0063(3) 0.1453(5) -0.03888(8)
H74J H -0.0171 -0.1465 0.0320
H74A H 0.0171 0.1465 -0.0320
C83J C 0.0261(3) -0.1883(4) 0.05497(6)
C83A C -0.0261(3) 0.1883(4) -0.05497(6)
H75J H 0.0175 -0.2209 0.0600
H75A H -0.0175 0.2209 -0.0600
C84J C 0.0744(3) -0.1379(4) 0.05827(5)
C84A C -0.0744(3) 0.1379(4) -0.05827(5)
H76J H 0.0961 -0.1374 0.0654
H76A H -0.0961 0.1374 -0.0654
N5J N 0.34093(17) 0.27373(25) 0.04453(4)
N5A N -0.34093(17) -0.27373(25) -0.04453(4)
N6J N 0.31082(18) 0.17510(26) 0.05847(4)
N6A N -0.31082(18) -0.17510(26) -0.05847(4)
N7J N 0.1322(2) 0.2785(3) -0.02716(5)
N7A N -0.1322(2) -0.2785(3) 0.02716(5)
N7B N 0.2785(3) 0.1463(2) 0.02716(5)
N7K N -0.2785(3) -0.1463(2) -0.02716(5)
N8J N -0.0106(2) -0.1961(3) 0.04526(5)
N8A N 0.0106(2) 0.1961(3) -0.04526(5)
N8K N 0.1961(3) 0.1855(2) 0.04526(5)
N8B N -0.1961(3) -0.1855(2) -0.04526(5)
C85 C 0.0926(8) -0.2925(7) 0.07758(16)
C86 C 0.0470(13) -0.2957(8) 0.0841(2)
C87 C 0.0056(9) -0.3491(13) 0.0875(2)
H77 H -0.0248 -0.3537 0.0928
C88 C 0.0069(10) -0.3965(9) 0.0835(4)
H78 H -0.0249 -0.4337 0.0847
C89 C 0.0547(12) -0.3886(9) 0.0776(2)
H79 H 0.0599 -0.4205 0.0763
C90 C 0.0956(8) -0.3367(11) 0.07350(13)
H80 H 0.1251 -0.3324 0.0679
Cl1 Cl 0.1446(2) -0.2157(2) 0.07577(4)
Cl2 Cl 0.0415(3) -0.2373(3) 0.08965(5)
P1 P 0.0000 0.0000 0.10565(4)
F1 F 0.0029(4) -0.0447(3) 0.09723(8)
F2 F 0.0100(4) 0.0509(3) 0.11358(8)
F1A F 0.0447(3) 0.0476(5) 0.09723(8)
F1B F -0.0476(5) -0.0029(4) 0.09723(8)
F2A F -0.0509(3) -0.0409(5) 0.11358(8)
F2B F 0.0409(5) -0.0100(4) 0.11358(8)
P2 P -0.0681(4) 0.4046(3) 0.07445(8)
F3 F -0.0305(6) 0.3809(6) 0.06773(12)
F4 F -0.0162(6) 0.4467(5) 0.08210(14)
F5 F -0.0613(9) 0.4396(7) 0.06219(16)
F6 F -0.0786(7) 0.3624(6) 0.08579(14)
F7 F -0.1224(6) 0.3498(7) 0.06795(19)
F8 F -0.1065(8) 0.4247(9) 0.08002(19)
loop_
_geom_bond_atom_site_label_1
_geom_bond_atom_site_label_2
_geom_bond_site_symmetry_1
_geom_bond_site_symmetry_2
Cu1 N1 1_555 1_555
Cu2 N5 1_555 1_555
C1 C2 1_555 1_555
C2 H1 1_555 1_555
C3 C2 1_555 1_555
H2 C3 1_555 1_555
C4 C3 1_555 1_555
C5 C4 1_555 1_555
H3 C5 1_555 1_555
C6 C5 1_555 1_555
H4 C6 1_555 1_555
C7 C6 1_555 1_555
C8 C7 1_555 1_555
H5 C8 1_555 1_555
C9 C8 1_555 1_555
H6 C9 1_555 1_555
C10 C9 1_555 1_555
C11 C4 1_555 1_555
C12 C7 1_555 1_555
C13 C1 1_555 1_555
C14 C13 1_555 1_555
C15 C14 1_555 1_555
C16 C15 1_555 1_555
C17 C16 1_555 1_555
C18 C13 1_555 1_555
C19 C14 1_555 1_555
H7 C19 1_555 1_555
H8 C19 1_555 1_555
H9 C19 1_555 1_555
C20 C15 1_555 1_555
H10 C20 1_555 1_555
H11 C20 1_555 1_555
H12 C20 1_555 1_555
C21 C17 1_555 1_555
H13 C21 1_555 1_555
H14 C21 1_555 1_555
H15 C21 1_555 1_555
C22 C18 1_555 1_555
H16 C22 1_555 1_555
H17 C22 1_555 1_555
H18 C22 1_555 1_555
C23 C16 1_555 1_555
C24 C23 1_555 1_555
H19 C24 1_555 1_555
C25 C24 1_555 1_555
H20 C25 1_555 1_555
C26 H21 1_555 1_555
C27 C23 1_555 1_555
H22 C27 1_555 1_555
C28 C10 1_555 1_555
C29 C28 1_555 1_555
C30 C29 1_555 1_555
C31 C30 1_555 1_555
C32 C31 1_555 1_555
C33 C28 1_555 1_555
C34 C29 1_555 1_555
H23 C34 1_555 1_555
H24 C34 1_555 1_555
H25 C34 1_555 1_555
C35 C30 1_555 1_555
H26 C35 1_555 1_555
H27 C35 1_555 1_555
H28 C35 1_555 1_555
C36 C32 1_555 1_555
H29 C36 1_555 1_555
H30 C36 1_555 1_555
H31 C36 1_555 1_555
C37 C33 1_555 1_555
H32 C37 1_555 1_555
H33 C37 1_555 1_555
H34 C37 1_555 1_555
C38 C31 1_555 1_555
C39 C38 1_555 1_555
H35 C39 1_555 1_555
C40 C39 1_555 1_555
H36 C40 1_555 1_555
C41 H37 1_555 1_555
C42 C38 1_555 1_555
H38 C42 1_555 1_555
C43 C44 1_555 1_555
C44 H39 1_555 1_555
C45 C44 1_555 1_555
H40 C45 1_555 1_555
C46 C45 1_555 1_555
C47 C46 1_555 1_555
H41 C47 1_555 1_555
C48 C47 1_555 1_555
H42 C48 1_555 1_555
C49 C48 1_555 1_555
C50 C49 1_555 1_555
H43 C50 1_555 1_555
C51 C50 1_555 1_555
H44 C51 1_555 1_555
C52 C51 1_555 1_555
C53 C49 1_555 1_555
C54 C46 1_555 1_555
C55 C43 1_555 1_555
C56 C55 1_555 1_555
C57 C56 1_555 1_555
C58 C57 1_555 1_555
C59 C58 1_555 1_555
C60 C55 1_555 1_555
C61 C56 1_555 1_555
H45 C61 1_555 1_555
H46 C61 1_555 1_555
H47 C61 1_555 1_555
C62 C57 1_555 1_555
H48 C62 1_555 1_555
H49 C62 1_555 1_555
H50 C62 1_555 1_555
C63 C59 1_555 1_555
H51 C63 1_555 1_555
H52 C63 1_555 1_555
H53 C63 1_555 1_555
C64 C60 1_555 1_555
H54 C64 1_555 1_555
H55 C64 1_555 1_555
H56 C64 1_555 1_555
C65 C58 1_555 1_555
C66 C65 1_555 1_555
H57 C66 1_555 1_555
C67 C66 1_555 1_555
H58 C67 1_555 1_555
C68 H59 1_555 1_555
C69 C65 1_555 1_555
H60 C69 1_555 1_555
C70 C52 1_555 1_555
C71 C70 1_555 1_555
C72 C71 1_555 1_555
C73 C72 1_555 1_555
C74 C73 1_555 1_555
C75 C70 1_555 1_555
C76 C71 1_555 1_555
H61 C76 1_555 1_555
H62 C76 1_555 1_555
H63 C76 1_555 1_555
C77 C72 1_555 1_555
H64 C77 1_555 1_555
H65 C77 1_555 1_555
H66 C77 1_555 1_555
C78 C74 1_555 1_555
H67 C78 1_555 1_555
H68 C78 1_555 1_555
H69 C78 1_555 1_555
C79 C75 1_555 1_555
H70 C79 1_555 1_555
H71 C79 1_555 1_555
H72 C79 1_555 1_555
C80 C73 1_555 1_555
C81 C80 1_555 1_555
H73 C81 1_555 1_555
C82 C81 1_555 1_555
H74 C82 1_555 1_555
C83 H75 1_555 1_555
C84 C80 1_555 1_555
H76 C84 1_555 1_555
C85 C86 1_555 1_555
C86 C87 1_555 1_555
C87 H77 1_555 1_555
C88 C87 1_555 1_555
H78 C88 1_555 1_555
C89 C88 1_555 1_555
H79 C89 1_555 1_555
C90 C85 1_555 1_555
H80 C90 1_555 1_555
N1 C1 1_555 1_555
N2 Cu1 1_555 1_555
N3 C25 1_555 1_555
N4 C40 1_555 1_555
N5 C43 1_555 1_555
N6 Cu2 1_555 1_555
N7 C67 1_555 1_555
N8 C82 1_555 1_555
Cl1 C85 1_555 1_555
Cl2 C86 1_555 1_555
P1 F1 1_555 1_555
P2 F3 1_555 1_555
F2 P1 1_555 1_555
F4 P2 1_555 1_555
F5 P2 1_555 1_555
F6 P2 1_555 1_555
F7 P2 1_555 1_555
F8 P2 1_555 1_555
Cu1M N1M 1_555 1_555
Cu1A N1A 1_555 1_555
Cu1N N3 1_555 1_555
Cu1B N4 1_555 1_555
Cu1L N3A 1_555 1_555
Cu2J N5J 1_555 1_555
Cu2A N5A 1_555 1_555
Cu2K N7 1_555 1_555
Cu2B N8 1_555 1_555
Cu2I N7A 1_555 1_555
C1M C2M 1_555 1_555
C1A C2A 1_555 1_555
C2M H1M 1_555 1_555
C2A H1A 1_555 1_555
C3M C2M 1_555 1_555
C3A C2A 1_555 1_555
H2M C3M 1_555 1_555
H2A C3A 1_555 1_555
C4M C3M 1_555 1_555
C4A C3A 1_555 1_555
C5M C4M 1_555 1_555
C5A C4A 1_555 1_555
H3M C5M 1_555 1_555
H3A C5A 1_555 1_555
C6M C5M 1_555 1_555
C6A C5A 1_555 1_555
H4M C6M 1_555 1_555
H4A C6A 1_555 1_555
C7M C6M 1_555 1_555
C7A C6A 1_555 1_555
C8M C7M 1_555 1_555
C8A C7A 1_555 1_555
H5M C8M 1_555 1_555
H5A C8A 1_555 1_555
C9M C8M 1_555 1_555
C9A C8A 1_555 1_555
H6M C9M 1_555 1_555
H6A C9A 1_555 1_555
C10M C9M 1_555 1_555
C10A C9A 1_555 1_555
C11M C4M 1_555 1_555
C11A C4A 1_555 1_555
C12M C7M 1_555 1_555
C12A C7A 1_555 1_555
C13M C1M 1_555 1_555
C13A C1A 1_555 1_555
C14M C13M 1_555 1_555
C14A C13A 1_555 1_555
C15M C14M 1_555 1_555
C15A C14A 1_555 1_555
C16M C15M 1_555 1_555
C16A C15A 1_555 1_555
C17M C16M 1_555 1_555
C17A C16A 1_555 1_555
C18M C13M 1_555 1_555
C18A C13A 1_555 1_555
C19M C14M 1_555 1_555
C19A C14A 1_555 1_555
H7M C19M 1_555 1_555
H7A C19A 1_555 1_555
H8M C19M 1_555 1_555
H8A C19A 1_555 1_555
H9M C19M 1_555 1_555
H9A C19A 1_555 1_555
C20M C15M 1_555 1_555
C20A C15A 1_555 1_555
H10M C20M 1_555 1_555
H10A C20A 1_555 1_555
H11M C20M 1_555 1_555
H11A C20A 1_555 1_555
H12M C20M 1_555 1_555
H12A C20A 1_555 1_555
C21M C17M 1_555 1_555
C21A C17A 1_555 1_555
H13M C21M 1_555 1_555
H13A C21A 1_555 1_555
H14M C21M 1_555 1_555
H14A C21A 1_555 1_555
H15M C21M 1_555 1_555
H15A C21A 1_555 1_555
C22M C18M 1_555 1_555
C22A C18A 1_555 1_555
H16M C22M 1_555 1_555
H16A C22A 1_555 1_555
H17M C22M 1_555 1_555
H17A C22A 1_555 1_555
H18M C22M 1_555 1_555
H18A C22A 1_555 1_555
C23M C16M 1_555 1_555
C23A C16A 1_555 1_555
C24M C23M 1_555 1_555
C24A C23A 1_555 1_555
H19M C24M 1_555 1_555
H19A C24A 1_555 1_555
C25M C24M 1_555 1_555
C25A C24A 1_555 1_555
H20M C25M 1_555 1_555
H20A C25A 1_555 1_555
C26M H21M 1_555 1_555
C26A H21A 1_555 1_555
C27M C23M 1_555 1_555
C27A C23A 1_555 1_555
H22M C27M 1_555 1_555
H22A C27A 1_555 1_555
C28M C10M 1_555 1_555
C28A C10A 1_555 1_555
C29M C28M 1_555 1_555
C29A C28A 1_555 1_555
C30M C29M 1_555 1_555
C30A C29A 1_555 1_555
C31M C30M 1_555 1_555
C31A C30A 1_555 1_555
C32M C31M 1_555 1_555
C32A C31A 1_555 1_555
C33M C28M 1_555 1_555
C33A C28A 1_555 1_555
C34M C29M 1_555 1_555
C34A C29A 1_555 1_555
H23M C34M 1_555 1_555
H23A C34A 1_555 1_555
H24M C34M 1_555 1_555
H24A C34A 1_555 1_555
H25M C34M 1_555 1_555
H25A C34A 1_555 1_555
C35M C30M 1_555 1_555
C35A C30A 1_555 1_555
H26M C35M 1_555 1_555
H26A C35A 1_555 1_555
H27M C35M 1_555 1_555
H27A C35A 1_555 1_555
H28M C35M 1_555 1_555
H28A C35A 1_555 1_555
C36M C32M 1_555 1_555
C36A C32A 1_555 1_555
H29M C36M 1_555 1_555
H29A C36A 1_555 1_555
H30M C36M 1_555 1_555
H30A C36A 1_555 1_555
H31M C36M 1_555 1_555
H31A C36A 1_555 1_555
C37M C33M 1_555 1_555
C37A C33A 1_555 1_555
H32M C37M 1_555 1_555
H32A C37A 1_555 1_555
H33M C37M 1_555 1_555
H33A C37A 1_555 1_555
H34M C37M 1_555 1_555
H34A C37A 1_555 1_555
C38M C31M 1_555 1_555
C38A C31A 1_555 1_555
C39M C38M 1_555 1_555
C39A C38A 1_555 1_555
H35M C39M 1_555 1_555
H35A C39A 1_555 1_555
C40M C39M 1_555 1_555
C40A C39A 1_555 1_555
H36M C40M 1_555 1_555
H36A C40A 1_555 1_555
C41M H37M 1_555 1_555
C41A H37A 1_555 1_555
C42M C38M 1_555 1_555
C42A C38A 1_555 1_555
H38M C42M 1_555 1_555
H38A C42A 1_555 1_555
C43J C44J 1_555 1_555
C43A C44A 1_555 1_555
C44J H39J 1_555 1_555
C44A H39A 1_555 1_555
C45J C44J 1_555 1_555
C45A C44A 1_555 1_555
H40J C45J 1_555 1_555
H40A C45A 1_555 1_555
C46J C45J 1_555 1_555
C46A C45A 1_555 1_555
C47J C46J 1_555 1_555
C47A C46A 1_555 1_555
H41J C47J 1_555 1_555
H41A C47A 1_555 1_555
C48J C47J 1_555 1_555
C48A C47A 1_555 1_555
H42J C48J 1_555 1_555
H42A C48A 1_555 1_555
C49J C48J 1_555 1_555
C49A C48A 1_555 1_555
C50J C49J 1_555 1_555
C50A C49A 1_555 1_555
H43J C50J 1_555 1_555
H43A C50A 1_555 1_555
C51J C50J 1_555 1_555
C51A C50A 1_555 1_555
H44J C51J 1_555 1_555
H44A C51A 1_555 1_555
C52J C51J 1_555 1_555
C52A C51A 1_555 1_555
C53J C49J 1_555 1_555
C53A C49A 1_555 1_555
C54J C46J 1_555 1_555
C54A C46A 1_555 1_555
C55J C43J 1_555 1_555
C55A C43A 1_555 1_555
C56J C55J 1_555 1_555
C56A C55A 1_555 1_555
C57J C56J 1_555 1_555
C57A C56A 1_555 1_555
C58J C57J 1_555 1_555
C58A C57A 1_555 1_555
C59J C58J 1_555 1_555
C59A C58A 1_555 1_555
C60J C55J 1_555 1_555
C60A C55A 1_555 1_555
C61J C56J 1_555 1_555
C61A C56A 1_555 1_555
H45J C61J 1_555 1_555
H45A C61A 1_555 1_555
H46J C61J 1_555 1_555
H46A C61A 1_555 1_555
H47J C61J 1_555 1_555
H47A C61A 1_555 1_555
C62J C57J 1_555 1_555
C62A C57A 1_555 1_555
H48J C62J 1_555 1_555
H48A C62A 1_555 1_555
H49J C62J 1_555 1_555
H49A C62A 1_555 1_555
H50J C62J 1_555 1_555
H50A C62A 1_555 1_555
C63J C59J 1_555 1_555
C63A C59A 1_555 1_555
H51J C63J 1_555 1_555
H51A C63A 1_555 1_555
H52J C63J 1_555 1_555
H52A C63A 1_555 1_555
H53J C63J 1_555 1_555
H53A C63A 1_555 1_555
C64J C60J 1_555 1_555
C64A C60A 1_555 1_555
H54J C64J 1_555 1_555
H54A C64A 1_555 1_555
H55J C64J 1_555 1_555
H55A C64A 1_555 1_555
H56J C64J 1_555 1_555
H56A C64A 1_555 1_555
C65J C58J 1_555 1_555
C65A C58A 1_555 1_555
C66J C65J 1_555 1_555
C66A C65A 1_555 1_555
H57J C66J 1_555 1_555
H57A C66A 1_555 1_555
C67J C66J 1_555 1_555
C67A C66A 1_555 1_555
H58J C67J 1_555 1_555
H58A C67A 1_555 1_555
C68J H59J 1_555 1_555
C68A H59A 1_555 1_555
C69J C65J 1_555 1_555
C69A C65A 1_555 1_555
H60J C69J 1_555 1_555
H60A C69A 1_555 1_555
C70J C52J 1_555 1_555
C70A C52A 1_555 1_555
C71J C70J 1_555 1_555
C71A C70A 1_555 1_555
C72J C71J 1_555 1_555
C72A C71A 1_555 1_555
C73J C72J 1_555 1_555
C73A C72A 1_555 1_555
C74J C73J 1_555 1_555
C74A C73A 1_555 1_555
C75J C70J 1_555 1_555
C75A C70A 1_555 1_555
C76J C71J 1_555 1_555
C76A C71A 1_555 1_555
H61J C76J 1_555 1_555
H61A C76A 1_555 1_555
H62J C76J 1_555 1_555
H62A C76A 1_555 1_555
H63J C76J 1_555 1_555
H63A C76A 1_555 1_555
C77J C72J 1_555 1_555
C77A C72A 1_555 1_555
H64J C77J 1_555 1_555
H64A C77A 1_555 1_555
H65J C77J 1_555 1_555
H65A C77A 1_555 1_555
H66J C77J 1_555 1_555
H66A C77A 1_555 1_555
C78J C74J 1_555 1_555
C78A C74A 1_555 1_555
H67J C78J 1_555 1_555
H67A C78A 1_555 1_555
H68J C78J 1_555 1_555
H68A C78A 1_555 1_555
H69J C78J 1_555 1_555
H69A C78A 1_555 1_555
C79J C75J 1_555 1_555
C79A C75A 1_555 1_555
H70J C79J 1_555 1_555
H70A C79A 1_555 1_555
H71J C79J 1_555 1_555
H71A C79A 1_555 1_555
H72J C79J 1_555 1_555
H72A C79A 1_555 1_555
C80J C73J 1_555 1_555
C80A C73A 1_555 1_555
C81J C80J 1_555 1_555
C81A C80A 1_555 1_555
H73J C81J 1_555 1_555
H73A C81A 1_555 1_555
C82J C81J 1_555 1_555
C82A C81A 1_555 1_555
H74J C82J 1_555 1_555
H74A C82A 1_555 1_555
C83J H75J 1_555 1_555
C83A H75A 1_555 1_555
C84J C80J 1_555 1_555
C84A C80A 1_555 1_555
H76J C84J 1_555 1_555
H76A C84A 1_555 1_555
N1M C1M 1_555 1_555
N1A C1A 1_555 1_555
N2M Cu1M 1_555 1_555
N2A Cu1A 1_555 1_555
N3M Cu1 1_555 1_555
N3A C25A 1_555 1_555
N3B Cu1M 1_555 1_555
N3N Cu1A 1_555 1_555
N4M Cu1L 1_555 1_555
N4A Cu1 1_555 1_555
N4N Cu1M 1_555 1_555
N4B Cu1A 1_555 1_555
N5J C43J 1_555 1_555
N5A C43A 1_555 1_555
N6J Cu2J 1_555 1_555
N6A Cu2A 1_555 1_555
N7J Cu2 1_555 1_555
N7A C67A 1_555 1_555
N7B Cu2J 1_555 1_555
N7K Cu2A 1_555 1_555
N8J Cu2I 1_555 1_555
N8A Cu2 1_555 1_555
N8K Cu2J 1_555 1_555
N8B Cu2A 1_555 1_555
F1A P1 1_555 1_555
F1B P1 1_555 1_555
F2A P1 1_555 1_555
F2B P1 1_555 1_555
C10 N2 1_555 1_555
C11 C12 1_555 1_555
C11 N1 1_555 1_555
C12 N2 1_555 1_555
C17 C18 1_555 1_555
C26 C27 1_555 1_555
C26 N3 1_555 1_555
C32 C33 1_555 1_555
C41 C42 1_555 1_555
C41 N4 1_555 1_555
C52 N6 1_555 1_555
C53 C54 1_555 1_555
C53 N6 1_555 1_555
C54 N5 1_555 1_555
C59 C60 1_555 1_555
C68 C69 1_555 1_555
C68 N7 1_555 1_555
C74 C75 1_555 1_555
C83 C84 1_555 1_555
C83 N8 1_555 1_555
C89 C90 1_555 1_555
C10M N2M 1_555 1_555
C10A N2A 1_555 1_555
C11M C12M 1_555 1_555
C11M N1M 1_555 1_555
C11A C12A 1_555 1_555
C11A N1A 1_555 1_555
C12M N2M 1_555 1_555
C12A N2A 1_555 1_555
C17M C18M 1_555 1_555
C17A C18A 1_555 1_555
C25M N3M 1_555 1_555
C26M C27M 1_555 1_555
C26M N3M 1_555 1_555
C26A C27A 1_555 1_555
C26A N3A 1_555 1_555
C32M C33M 1_555 1_555
C32A C33A 1_555 1_555
C40M N4M 1_555 1_555
C40A N4A 1_555 1_555
C41M C42M 1_555 1_555
C41M N4M 1_555 1_555
C41A C42A 1_555 1_555
C41A N4A 1_555 1_555
C52J N6J 1_555 1_555
C52A N6A 1_555 1_555
C53J C54J 1_555 1_555
C53J N6J 1_555 1_555
C53A C54A 1_555 1_555
C53A N6A 1_555 1_555
C54J N5J 1_555 1_555
C54A N5A 1_555 1_555
C59J C60J 1_555 1_555
C59A C60A 1_555 1_555
C67J N7J 1_555 1_555
C68J C69J 1_555 1_555
C68J N7J 1_555 1_555
C68A C69A 1_555 1_555
C68A N7A 1_555 1_555
C74J C75J 1_555 1_555
C74A C75A 1_555 1_555
C82J N8J 1_555 1_555
C82A N8A 1_555 1_555
C83J C84J 1_555 1_555
C83J N8J 1_555 1_555
C83A C84A 1_555 1_555
C83A N8A 1_555 1_555

#END
