
#######################################################################
#
#                 Cambridge Crystallographic Data Centre
#                                CCDC 
#
#######################################################################
#
# If this CIF has been generated from an entry in the Cambridge 
# Structural Database, then it will include bibliographic, chemical, 
# crystal, experimental, refinement or atomic coordinate data resulting 
# from the CCDC's data processing and validation procedures.
#
#######################################################################

data_WUHWAY
_symmetry_cell_setting           tetragonal
_symmetry_space_group_name_H-M   'I 41/a c d'
_symmetry_Int_Tables_number      142
_space_group_name_Hall           '-I 4bd 2c'
loop_
_symmetry_equiv_pos_site_id
_symmetry_equiv_pos_as_xyz
1 x,y,z
2 -x,1/2-y,z
3 x,-y,1/2-z
4 1/2-x,y,-z
5 1/4-y,1/4-x,1/4-z
6 3/4+y,1/4+x,1/4-z
7 1/4+y,1/4-x,3/4+z
8 1/4-y,3/4+x,1/4+z
9 1/2+x,1/2+y,1/2+z
10 1/2-x,-y,1/2+z
11 1/2+x,1/2-y,-z
12 -x,1/2+y,1/2-z
13 3/4-y,3/4-x,3/4-z
14 1/4+y,3/4+x,3/4-z
15 3/4+y,3/4-x,1/4+z
16 3/4-y,1/4+x,3/4+z
17 -x,-y,-z
18 x,1/2+y,-z
19 -x,y,1/2+z
20 1/2+x,-y,z
21 3/4+y,3/4+x,3/4+z
22 1/4-y,3/4-x,3/4+z
23 3/4-y,3/4+x,1/4-z
24 3/4+y,1/4-x,3/4-z
25 1/2-x,1/2-y,1/2-z
26 1/2+x,y,1/2-z
27 1/2-x,1/2+y,z
28 x,1/2-y,1/2+z
29 1/4+y,1/4+x,1/4+z
30 3/4-y,1/4-x,1/4+z
31 1/4-y,1/4+x,3/4-z
32 1/4+y,3/4-x,1/4-z
_cell_length_a                   24.789(4)
_cell_length_b                   24.789(4)
_cell_length_c                   27.611(6)
_cell_angle_alpha                90
_cell_angle_beta                 90
_cell_angle_gamma                90
_cell_volume                     16966.8
loop_
_atom_site_label
_atom_site_type_symbol
_atom_site_fract_x
_atom_site_fract_y
_atom_site_fract_z
Cu1 Cu 1.49841(2) 1.0000 0.7500
C1 C 1.45644(16) 1.03932(15) 0.84628(14)
H1 H 1.4868 1.0226 0.8590
C2 C 1.42470(15) 1.06916(16) 0.87697(14)
H2 H 1.4337 1.0719 0.9096
C3 C 1.37906(14) 1.09537(14) 0.85926(13)
C4 C 1.36812(15) 1.08893(15) 0.81046(13)
H3 H 1.3381 1.1055 0.7968
C5 C 1.40189(15) 1.05790(15) 0.78197(14)
H4 H 1.3935 1.0541 0.7493
C6 C 1.56053(18) 0.89266(17) 0.76793(17)
C7 C 1.50764(19) 0.86512(16) 0.7694(2)
C8 C 1.4760(2) 0.8675(2) 0.8117(2)
C9 C 1.4273(3) 0.8400(3) 0.8120(4)
H5 H 1.4056 0.8415 0.8394
C10 C 1.4110(4) 0.8112(3) 0.7735(5)
H6 H 1.3780 0.7933 0.7748
C11 C 1.4413(4) 0.8076(2) 0.7330(4)
H7 H 1.4292 0.7868 0.7071
C12 C 1.4916(2) 0.83513(18) 0.7293(2)
C13 C 1.5246(3) 0.8333(2) 0.6842(2)
H8 H 1.5569 0.8540 0.6888
H9 H 1.5042 0.8480 0.6578
H10 H 1.5340 0.7965 0.6771
C14 C 1.4939(3) 0.8984(3) 0.8562(2)
H11 H 1.5284 0.9146 0.8502
H12 H 1.4966 0.8741 0.8832
H13 H 1.4680 0.9261 0.8634
C15 C 1.61020(16) 0.97167(17) 0.75511(14)
C16 C 1.65956(18) 0.9442(2) 0.76056(19)
C17 C 1.6565(3) 0.8886(3) 0.7707(2)
H14 H 1.6880 0.8688 0.7752
C18 C 1.6079(2) 0.8636(2) 0.7740(2)
H15 H 1.6063 0.8268 0.7805
C19 C 1.70859(19) 0.9737(2) 0.7547(2)
H16 H 1.7413 0.9557 0.7575
N1 N 1.44609(11) 1.03295(12) 0.79891(11)
N2 N 1.56157(12) 0.94629(12) 0.75982(11)
Cu1G Cu 1.2500 1.24841(2) 1.0000
C1M C 1.28932(15) 1.20644(16) 0.90372(14)
H1M H 1.2726 1.2368 0.8910
C2M C 1.31916(16) 1.17470(15) 0.87303(14)
H2M H 1.3219 1.1837 0.8404
C3M C 1.34537(14) 1.12906(14) 0.89074(13)
C4M C 1.33893(15) 1.11812(15) 0.93954(13)
H3M H 1.3555 1.0881 0.9532
C5M C 1.30790(15) 1.15189(15) 0.96803(14)
H4M H 1.3041 1.1435 1.0007
C6B C 1.56053(18) 1.10734(17) 0.73207(17)
C7B C 1.50764(19) 1.13488(16) 0.7306(2)
C8B C 1.4760(2) 1.1325(2) 0.6883(2)
C9B C 1.4273(3) 1.1600(3) 0.6880(4)
H5B H 1.4056 1.1585 0.6606
C10B C 1.4110(4) 1.1888(3) 0.7265(5)
H6B H 1.3780 1.2067 0.7252
C11B C 1.4413(4) 1.1924(2) 0.7670(4)
H7B H 1.4292 1.2132 0.7929
C12B C 1.4916(2) 1.16487(18) 0.7707(2)
C13B C 1.5246(3) 1.1667(2) 0.8158(2)
H8B H 1.5569 1.1460 0.8112
H9B H 1.5042 1.1520 0.8422
H10B H 1.5340 1.2035 0.8229
C14B C 1.4939(3) 1.1016(3) 0.6438(2)
H11B H 1.5284 1.0854 0.6498
H12B H 1.4966 1.1259 0.6168
H13B H 1.4680 1.0739 0.6366
C15B C 1.61020(16) 1.02833(17) 0.74489(14)
C16B C 1.65956(18) 1.0558(2) 0.73944(19)
C17B C 1.6565(3) 1.1114(3) 0.7293(2)
H14B H 1.6880 1.1312 0.7248
C18B C 1.6079(2) 1.1364(2) 0.7260(2)
H15B H 1.6063 1.1732 0.7195
C19B C 1.70859(19) 1.0263(2) 0.7453(2)
H16B H 1.7413 1.0443 0.7425
N1M N 1.28295(12) 1.19609(11) 0.95109(11)
N1B N 1.44609(11) 0.96705(12) 0.70109(11)
N2B N 1.56157(12) 1.05371(12) 0.74018(11)
C20 C 1.1724(4) 0.8839(4) 0.86718(19)
H17 H 1.1608 0.8487 0.8623
C21 C 1.2245(5) 0.8950(6) 0.8590(4)
H18 H 1.2493 0.8693 0.8488
C22 C 1.2382(4) 0.9503(4) 0.86739(19)
Cl1 Cl 1.30239(14) 0.9666(2) 0.85782(15)
C20M C 1.1339(4) 0.9224(4) 0.88282(19)
H17M H 1.0987 0.9108 0.8877
C21M C 1.1450(6) 0.9745(5) 0.8910(4)
H18M H 1.1193 0.9993 0.9012
C22M C 1.2003(4) 0.9882(4) 0.88261(19)
Cl1M Cl 1.2166(2) 1.05239(14) 0.89218(15)
P1 P 1.2500 0.7500 0.7500
F1 F 1.27053(15) 0.81048(13) 0.74612(13)
F2 F 1.19957(16) 0.76838(15) 0.78038(16)
F3 F 1.2173(2) 0.76036(19) 0.70327(15)
F1X F 1.22947(15) 0.68952(13) 0.75388(13)
F2X F 1.30043(16) 0.73162(15) 0.71962(16)
F3X F 1.2827(2) 0.73964(19) 0.79673(15)
loop_
_geom_bond_atom_site_label_1
_geom_bond_atom_site_label_2
_geom_bond_site_symmetry_1
_geom_bond_site_symmetry_2
Cu1 N1 1_555 1_555
C1 H1 1_555 1_555
C2 C1 1_555 1_555
H2 C2 1_555 1_555
C3 C2 1_555 1_555
C4 C3 1_555 1_555
H3 C4 1_555 1_555
C5 C4 1_555 1_555
H4 C5 1_555 1_555
C6 C7 1_555 1_555
C7 C8 1_555 1_555
C8 C9 1_555 1_555
C9 H5 1_555 1_555
C10 C9 1_555 1_555
H6 C10 1_555 1_555
C11 C10 1_555 1_555
H7 C11 1_555 1_555
C12 C7 1_555 1_555
C13 C12 1_555 1_555
H8 C13 1_555 1_555
H9 C13 1_555 1_555
H10 C13 1_555 1_555
C14 C8 1_555 1_555
H11 C14 1_555 1_555
H12 C14 1_555 1_555
H13 C14 1_555 1_555
C15 C16 1_555 1_555
C16 C17 1_555 1_555
C17 H14 1_555 1_555
C18 C6 1_555 1_555
H15 C18 1_555 1_555
C19 C16 1_555 1_555
H16 C19 1_555 1_555
C20 H17 1_555 1_555
C21 C20 1_555 1_555
H18 C21 1_555 1_555
C22 C21 1_555 1_555
N1 C1 1_555 1_555
N2 Cu1 1_555 1_555
P1 F1 1_555 1_555
F2 P1 1_555 1_555
F3 P1 1_555 1_555
Cl1 C22 1_555 1_555
Cu1G N1M 1_555 1_555
C1M H1M 1_555 1_555
C2M C1M 1_555 1_555
H2M C2M 1_555 1_555
C3M C3 1_555 1_555
C4M C3M 1_555 1_555
H3M C4M 1_555 1_555
C5M C4M 1_555 1_555
H4M C5M 1_555 1_555
C6B C7B 1_555 1_555
C7B C8B 1_555 1_555
C8B C9B 1_555 1_555
C9B H5B 1_555 1_555
C10B C9B 1_555 1_555
H6B C10B 1_555 1_555
C11B C10B 1_555 1_555
H7B C11B 1_555 1_555
C12B C7B 1_555 1_555
C13B C12B 1_555 1_555
H8B C13B 1_555 1_555
H9B C13B 1_555 1_555
H10B C13B 1_555 1_555
C14B C8B 1_555 1_555
H11B C14B 1_555 1_555
H12B C14B 1_555 1_555
H13B C14B 1_555 1_555
C15B C15 1_555 1_555
C16B C15B 1_555 1_555
C17B C16B 1_555 1_555
H14B C17B 1_555 1_555
C18B C6B 1_555 1_555
H15B C18B 1_555 1_555
C19B C19 1_555 1_555
H16B C19B 1_555 1_555
C20M C20 1_555 1_555
H17M C20M 1_555 1_555
C21M C20M 1_555 1_555
H18M C21M 1_555 1_555
C22M C22 1_555 1_555
N1M C1M 1_555 1_555
N1B Cu1 1_555 1_555
N2B Cu1 1_555 1_555
F1X P1 1_555 1_555
F2X P1 1_555 1_555
F3X P1 1_555 1_555
Cl1M C22M 1_555 1_555
C5 N1 1_555 1_555
C6 N2 1_555 1_555
C11 C12 1_555 1_555
C15 N2 1_555 1_555
C17 C18 1_555 1_555
C2M C3M 1_555 1_555
C5M N1M 1_555 1_555
C6B N2B 1_555 1_555
C11B C12B 1_555 1_555
C15B N2B 1_555 1_555
C16B C19B 1_555 1_555
C17B C18B 1_555 1_555
C21M C22M 1_555 1_555

#END
