
#######################################################################
#
#                 Cambridge Crystallographic Data Centre
#                                CCDC 
#
#######################################################################
#
# If this CIF has been generated from an entry in the Cambridge 
# Structural Database, then it will include bibliographic, chemical, 
# crystal, experimental, refinement or atomic coordinate data resulting 
# from the CCDC's data processing and validation procedures.
#
#######################################################################

data_WUHXOM
_symmetry_cell_setting           orthorhombic
_symmetry_space_group_name_H-M   'P 21 21 2'
_symmetry_Int_Tables_number      18
_space_group_name_Hall           'P 2 2ab'
loop_
_symmetry_equiv_pos_site_id
_symmetry_equiv_pos_as_xyz
1 x,y,z
2 -x,-y,z
3 1/2+x,1/2-y,-z
4 1/2-x,1/2+y,-z
_cell_length_a                   9.0140(1)
_cell_length_b                   27.0940(1)
_cell_length_c                   5.5410(4)
_cell_angle_alpha                90
_cell_angle_beta                 90
_cell_angle_gamma                90
_cell_volume                     1353.25
loop_
_atom_site_label
_atom_site_type_symbol
_atom_site_fract_x
_atom_site_fract_y
_atom_site_fract_z
Cu1 Cu 0.76172(8) 0.29867(2) 0.55012(12)
O1 O 0.5827(4) 0.25485(13) 0.5184(7)
O2 O 0.3701(5) 0.23776(13) 0.7015(7)
O3 O 0.7065(5) 0.35088(13) 1.2216(7)
O4 O 0.2214(7) 0.47813(17) 0.3712(11)
H1 H 0.253(8) 0.5058(13) 0.400(16)
N1 N 0.9137(6) 0.34792(19) 0.6584(10)
H2 H 1.0050 0.3353 0.6354
H3 H 0.9058 0.3754 0.5680
N2 N 0.6692(5) 0.31658(16) 0.8458(9)
C1 C 0.8952(7) 0.36115(19) 0.9183(11)
H4 H 0.9713 0.3429 1.0079
C2 C 0.7450(7) 0.34231(17) 1.0069(10)
C3 C 0.5326(6) 0.29014(18) 0.9108(10)
H5 H 0.5571 0.2677 1.0438
C4 C 0.4930(7) 0.25848(17) 0.6942(10)
C5 C 0.9230(6) 0.41588(14) 0.9645(14)
H6 H 0.9047 0.4232 1.1315
H7 H 0.8576 0.4352 0.8656
H8 H 1.0240 0.4237 0.9257
C6 C 0.4038(6) 0.32259(14) 0.9953(11)
H9 H 0.3177 0.3017 1.0191
H10 H 0.4297 0.3365 1.1510
C7 C 0.3598(7) 0.36479(19) 0.8278(11)
C8 C 0.2863(7) 0.3559(2) 0.6161(12)
H11 H 0.2654 0.3234 0.5727
C9 C 0.2416(7) 0.3942(2) 0.4631(11)
H12 H 0.1941 0.3872 0.3181
C10 C 0.2685(8) 0.4417(2) 0.5288(11)
C11 C 0.3380(8) 0.4515(2) 0.7436(13)
H13 H 0.3530 0.4841 0.7905
C12 C 0.3857(8) 0.41385(19) 0.8905(12)
H14 H 0.4356 0.4212 1.0329
O2B O 0.8701(5) 0.26224(13) 0.2985(7)
O3_2 O 0.7065(5) 0.35088(13) 0.2216(7)
Cu1B Cu 0.26172(8) 0.20133(2) 0.44988(12)
Cu1_2 Cu 0.76172(8) 0.29867(2) 1.55012(12)
O5 O 0.6577(6) 0.43247(15) 0.4700(10)
loop_
_geom_bond_atom_site_label_1
_geom_bond_atom_site_label_2
_geom_bond_site_symmetry_1
_geom_bond_site_symmetry_2
Cu1 O1 1_555 1_555
O1 C4 1_555 1_555
O2 C4 1_555 1_555
O3 C2 1_555 1_555
O4 H1 1_555 1_555
N1 Cu1 1_555 1_555
H2 N1 1_555 1_555
H3 N1 1_555 1_555
N2 Cu1 1_555 1_555
C1 N1 1_555 1_555
H4 C1 1_555 1_555
C2 N2 1_555 1_555
C3 N2 1_555 1_555
H5 C3 1_555 1_555
C4 C3 1_555 1_555
C5 C1 1_555 1_555
H6 C5 1_555 1_555
H7 C5 1_555 1_555
H8 C5 1_555 1_555
C6 C3 1_555 1_555
H9 C6 1_555 1_555
H10 C6 1_555 1_555
C7 C6 1_555 1_555
C8 C7 1_555 1_555
H11 C8 1_555 1_555
C9 C8 1_555 1_555
H12 C9 1_555 1_555
C10 O4 1_555 1_555
C11 C10 1_555 1_555
H13 C11 1_555 1_555
C12 C7 1_555 1_555
H14 C12 1_555 1_555
O2B Cu1 1_555 1_555
O3_2 Cu1 1_555 1_555
Cu1B O2 1_555 1_555
Cu1_2 O3 1_555 1_555
C1 C2 1_555 1_555
C9 C10 1_555 1_555
C11 C12 1_555 1_555

#END
