
#######################################################################
#
#                 Cambridge Crystallographic Data Centre
#                                CCDC 
#
#######################################################################
#
# If this CIF has been generated from an entry in the Cambridge 
# Structural Database, then it will include bibliographic, chemical, 
# crystal, experimental, refinement or atomic coordinate data resulting 
# from the CCDC's data processing and validation procedures.
#
#######################################################################

data_WUHXIG
_symmetry_cell_setting           orthorhombic
_symmetry_space_group_name_H-M   'P 21 21 2'
_symmetry_Int_Tables_number      18
_space_group_name_Hall           'P 2 2ab'
loop_
_symmetry_equiv_pos_site_id
_symmetry_equiv_pos_as_xyz
1 x,y,z
2 1/2+x,1/2-y,-z
3 -x,-y,z
4 1/2-x,1/2+y,-z
_cell_length_a                   8.7940(1)
_cell_length_b                   20.8410(3)
_cell_length_c                   5.3580(8)
_cell_angle_alpha                90
_cell_angle_beta                 90
_cell_angle_gamma                90
_cell_volume                     981.991
loop_
_atom_site_label
_atom_site_type_symbol
_atom_site_fract_x
_atom_site_fract_y
_atom_site_fract_z
Cu1 Cu 0.95457(4) 0.183592(17) 0.04510(6)
O1 O 1.1365(3) 0.24239(11) 0.0170(5)
O2 O 1.3536(3) 0.26538(11) 0.2102(4)
O3 O 1.0241(2) 0.11253(10) 0.7276(4)
O4 O 1.4751(3) 0.16219(14) 0.4618(6)
H1 H 1.4636 0.1979 0.4713
N1 N 0.7901(3) 0.12401(15) 0.1678(5)
H2 H 0.6986 0.1427 0.1486
H3 H 0.7910 0.0876 0.0773
N2 N 1.0576(3) 0.15409(12) 0.3342(5)
C1 C 0.8151(3) 0.10863(14) 0.4346(6)
H4 H 0.7486 0.1371 0.5313
C2 C 0.9796(3) 0.12484(13) 0.5091(5)
C3 C 1.2045(3) 0.18254(16) 0.3866(6)
H5 H 1.2017 0.2025 0.5522
C4 C 1.2307(3) 0.23440(14) 0.1909(6)
C5 C 0.7689(5) 0.03970(18) 0.4982(8)
H6 H 0.7781 0.0330 0.6749
H7 H 0.8341 0.0103 0.4116
H8 H 0.6654 0.0326 0.4481
C6 C 1.3367(4) 0.13371(16) 0.3776(7)
H9 H 1.3117 0.0988 0.4930
C7 C 1.3584(4) 0.1043(2) 0.1201(9)
H10 H 1.2658 0.0839 0.0684
H11 H 1.4386 0.0731 0.1264
H12 H 1.3847 0.1374 0.0031
O2A O 0.8536(3) 0.23462(11) -0.2102(4)
O3_2 O 1.0241(2) 0.11253(10) -0.2724(4)
Cu1A Cu 1.45457(4) 0.316408(17) -0.04510(6)
Cu1_2 Cu 0.95457(4) 0.183592(17) 1.04510(6)
O5 O 1.0000 0.0000 0.0092(8)
H13 H 1.0203 0.0289 -0.0769
H13B H 0.9797 -0.0289 -0.0769
loop_
_geom_bond_atom_site_label_1
_geom_bond_atom_site_label_2
_geom_bond_site_symmetry_1
_geom_bond_site_symmetry_2
Cu1 O1 1_555 1_555
O1 C4 1_555 1_555
O2 C4 1_555 1_555
O3 C2 1_555 1_555
O4 H1 1_555 1_555
N1 Cu1 1_555 1_555
H2 N1 1_555 1_555
H3 N1 1_555 1_555
N2 Cu1 1_555 1_555
C1 N1 1_555 1_555
H4 C1 1_555 1_555
C2 N2 1_555 1_555
C3 N2 1_555 1_555
H5 C3 1_555 1_555
C4 C3 1_555 1_555
C5 C1 1_555 1_555
H6 C5 1_555 1_555
H7 C5 1_555 1_555
H8 C5 1_555 1_555
C6 O4 1_555 1_555
H9 C6 1_555 1_555
C7 C6 1_555 1_555
H10 C7 1_555 1_555
H11 C7 1_555 1_555
H12 C7 1_555 1_555
O5 H13 1_555 1_555
H13B O5 1_555 1_555
O2A Cu1 1_555 1_555
O3_2 Cu1 1_555 1_555
Cu1A O2 1_555 1_555
Cu1_2 O3 1_555 1_555
C1 C2 1_555 1_555
C3 C6 1_555 1_555

#END
