
#######################################################################
#
#                 Cambridge Crystallographic Data Centre
#                                CCDC 
#
#######################################################################
#
# If this CIF has been generated from an entry in the Cambridge 
# Structural Database, then it will include bibliographic, chemical, 
# crystal, experimental, refinement or atomic coordinate data resulting 
# from the CCDC's data processing and validation procedures.
#
#######################################################################

data_WUHXEC
_symmetry_cell_setting           orthorhombic
_symmetry_space_group_name_H-M   'P 21 21 21'
_symmetry_Int_Tables_number      19
_space_group_name_Hall           'P 2ac 2ab'
loop_
_symmetry_equiv_pos_site_id
_symmetry_equiv_pos_as_xyz
1 x,y,z
2 1/2-x,-y,1/2+z
3 -x,1/2+y,1/2-z
4 1/2+x,1/2-y,-z
_cell_length_a                   9.000(2)
_cell_length_b                   10.842(3)
_cell_length_c                   11.281(3)
_cell_angle_alpha                90
_cell_angle_beta                 90
_cell_angle_gamma                90
_cell_volume                     1100.78
loop_
_atom_site_label
_atom_site_type_symbol
_atom_site_fract_x
_atom_site_fract_y
_atom_site_fract_z
Cu1 Cu 0.49743(5) 0.75998(4) 0.39256(4)
O1 O 0.3012(3) 0.7505(3) 0.4696(3)
O2 O 0.0786(3) 0.8378(3) 0.4748(3)
O3 O 0.4548(3) 1.0853(3) 0.2387(3)
N1 N 0.6793(4) 0.8173(3) 0.3083(3)
H1 H 0.7563 0.8191 0.3591
H2 H 0.7016 0.7643 0.2495
N2 N 0.4030(4) 0.8871(3) 0.3012(3)
C1 C 0.6551(5) 0.9416(4) 0.2585(4)
H3 H 0.7106 1.0002 0.3077
C2 C 0.4909(6) 0.9773(3) 0.2650(3)
C3 C 0.2462(4) 0.9084(4) 0.3263(3)
H4 H 0.2322 0.9951 0.3484
C4 C 0.2062(4) 0.8275(3) 0.4312(4)
C5 C 0.7142(6) 0.9524(5) 0.1325(5)
H5 H 0.8201 0.9424 0.1330
H6 H 0.6895 1.0321 0.1011
H7 H 0.6701 0.8895 0.0840
C6 C 0.1404(5) 0.8766(4) 0.2222(4)
H8 H 0.0387 0.8901 0.2505
C7 C 0.1638(6) 0.9611(5) 0.1171(5)
H9 H 0.1478 1.0450 0.1410
H10 H 0.0949 0.9399 0.0554
H11 H 0.2635 0.9519 0.0883
C8 C 0.1519(6) 0.7406(4) 0.1861(4)
H12 H 0.2402 0.7296 0.1379
H13 H 0.1637 0.6908 0.2570
C9 C 0.0186(6) 0.6946(6) 0.1179(6)
H14 H -0.0688 0.7027 0.1660
H15 H 0.0329 0.6095 0.0974
H16 H 0.0070 0.7425 0.0469
O2C O 0.5786(3) 0.6622(3) 0.5252(3)
O3B O 0.5452(3) 0.5853(3) 0.2613(3)
Cu1C Cu -0.00257(5) 0.74002(4) 0.60744(4)
Cu1B Cu 0.50257(5) 1.25998(4) 0.10744(4)
loop_
_geom_bond_atom_site_label_1
_geom_bond_atom_site_label_2
_geom_bond_site_symmetry_1
_geom_bond_site_symmetry_2
Cu1 O1 1_555 1_555
O1 C4 1_555 1_555
O2 C4 1_555 1_555
O3 C2 1_555 1_555
N1 Cu1 1_555 1_555
H1 N1 1_555 1_555
H2 N1 1_555 1_555
N2 Cu1 1_555 1_555
C1 N1 1_555 1_555
H3 C1 1_555 1_555
C2 N2 1_555 1_555
C3 N2 1_555 1_555
H4 C3 1_555 1_555
C4 C3 1_555 1_555
C5 C1 1_555 1_555
H5 C5 1_555 1_555
H6 C5 1_555 1_555
H7 C5 1_555 1_555
C6 C3 1_555 1_555
H8 C6 1_555 1_555
C7 C6 1_555 1_555
H9 C7 1_555 1_555
H10 C7 1_555 1_555
H11 C7 1_555 1_555
C8 C6 1_555 1_555
H12 C8 1_555 1_555
H13 C8 1_555 1_555
C9 C8 1_555 1_555
H14 C9 1_555 1_555
H15 C9 1_555 1_555
H16 C9 1_555 1_555
O2C Cu1 1_555 1_555
O3B Cu1 1_555 1_555
Cu1C O2 1_555 1_555
Cu1B O3 1_555 1_555
C1 C2 1_555 1_555

#END
