
#######################################################################
#
#                 Cambridge Crystallographic Data Centre
#                                CCDC 
#
#######################################################################
#
# If this CIF has been generated from an entry in the Cambridge 
# Structural Database, then it will include bibliographic, chemical, 
# crystal, experimental, refinement or atomic coordinate data resulting 
# from the CCDC's data processing and validation procedures.
#
#######################################################################

data_WUHYIJ
_symmetry_cell_setting           monoclinic
_symmetry_space_group_name_H-M   'P 21/c'
_symmetry_Int_Tables_number      14
_space_group_name_Hall           '-P 2ybc'
loop_
_symmetry_equiv_pos_site_id
_symmetry_equiv_pos_as_xyz
1 x,y,z
2 -x,1/2+y,1/2-z
3 -x,-y,-z
4 x,1/2-y,1/2+z
_cell_length_a                   9.5050(19)
_cell_length_b                   18.014(4)
_cell_length_c                   11.178(2)
_cell_angle_alpha                90
_cell_angle_beta                 106.04(3)
_cell_angle_gamma                90
_cell_volume                     1839.42
loop_
_atom_site_label
_atom_site_type_symbol
_atom_site_fract_x
_atom_site_fract_y
_atom_site_fract_z
Cu1 Cu 0.17389(3) 0.594206(17) 0.45839(3)
O1 O 0.1402(2) 0.58535(11) -0.37524(17)
O2 O 0.3529(2) 0.52567(13) -0.30312(19)
O3 O 0.9593(2) 0.89121(10) 0.87160(17)
O4 O 1.0325(2) 0.77778(11) 0.9383(2)
O5 O 0.1632(2) 0.46515(12) 0.44863(19)
H1 H 0.188(4) 0.454(2) 0.5257(19)
H2 H 0.078(3) 0.445(2) 0.415(3)
N1 N 0.2257(2) 0.59508(13) 0.2956(2)
H3 H 0.194(4) 0.6417(12) 0.267(3)
N2 N 0.3783(2) 0.63829(13) 0.5273(2)
H4 H 0.412(4) 0.6011(15) 0.580(3)
C1 C 0.2405(3) 0.55455(14) -0.2883(2)
C2 C 0.2183(3) 0.55461(14) -0.1607(2)
C3 C 0.3109(3) 0.51188(15) -0.0683(2)
H5 H 0.3898 0.4858 -0.0859
C4 C 0.2896(3) 0.50675(16) 0.0493(2)
H6 H 0.3523 0.4763 0.1108
C5 C 0.1768(3) 0.54597(15) 0.0779(2)
C6 C 0.0880(3) 0.59114(16) -0.0131(3)
H7 H 0.0132 0.6197 0.0062
C7 C 0.1069(3) 0.59512(15) -0.1316(2)
H8 H 0.0439 0.6255 -0.1931
C8 C 0.1500(3) 0.53857(16) 0.2042(2)
H9 H 0.0434 0.5421 0.1941
H10 H 0.1824 0.4887 0.2378
C9 C 0.3873(3) 0.58840(18) 0.3287(3)
H11 H 0.4225 0.5966 0.2542
H12 H 0.4180 0.5382 0.3618
C10 C 0.4501(3) 0.64641(19) 0.4261(3)
H13 H 0.5572 0.6394 0.4593
H14 H 0.4318 0.6967 0.3892
C11 C 0.3737(3) 0.70795(16) 0.5966(3)
H15 H 0.3154 0.6993 0.6563
H16 H 0.3228 0.7465 0.5370
C12 C 0.5225(3) 0.73690(15) 0.6669(3)
C13 C 0.6073(3) 0.69786(17) 0.7692(3)
H17 H 0.5723 0.6522 0.7925
C14 C 0.7421(3) 0.72500(16) 0.8374(3)
H18 H 0.8002 0.6974 0.9057
C15 C 0.7921(3) 0.79275(15) 0.8056(2)
C16 C 0.7080(3) 0.83219(16) 0.7049(3)
H19 H 0.7417 0.8786 0.6833
C17 C 0.5741(3) 0.80400(16) 0.6352(3)
H20 H 0.5175 0.8309 0.5654
C18 C 0.9385(3) 0.82187(15) 0.8783(2)
Cu1_2 Cu 0.17389(3) 0.594206(17) -0.54161(3)
Cu1C Cu 1.17389(3) 0.905794(17) 0.95839(3)
O1_2 O 0.1402(2) 0.58535(11) 0.62476(17)
O3C O -0.0407(2) 0.60879(10) 0.37160(17)
O4C O 0.0325(2) 0.72222(11) 0.4383(2)
O6 O 1.0914(3) 0.73112(14) 1.1853(3)
H21 H 1.093(5) 0.751(2) 1.257(2)
H22 H 1.068(6) 0.755(2) 1.117(2)
loop_
_geom_bond_atom_site_label_1
_geom_bond_atom_site_label_2
_geom_bond_site_symmetry_1
_geom_bond_site_symmetry_2
Cu1 O5 1_555 1_555
O1 C1 1_555 1_555
O2 C1 1_555 1_555
O3 C18 1_555 1_555
O4 C18 1_555 1_555
O5 H1 1_555 1_555
H2 O5 1_555 1_555
N1 Cu1 1_555 1_555
H3 N1 1_555 1_555
N2 Cu1 1_555 1_555
H4 N2 1_555 1_555
C1 C2 1_555 1_555
C2 C3 1_555 1_555
C3 H5 1_555 1_555
C4 C3 1_555 1_555
H6 C4 1_555 1_555
C5 C4 1_555 1_555
C6 C5 1_555 1_555
H7 C6 1_555 1_555
C7 C2 1_555 1_555
H8 C7 1_555 1_555
C8 N1 1_555 1_555
H9 C8 1_555 1_555
H10 C8 1_555 1_555
C9 N1 1_555 1_555
H11 C9 1_555 1_555
H12 C9 1_555 1_555
C10 N2 1_555 1_555
H13 C10 1_555 1_555
H14 C10 1_555 1_555
C11 N2 1_555 1_555
H15 C11 1_555 1_555
H16 C11 1_555 1_555
C12 C11 1_555 1_555
C13 C12 1_555 1_555
H17 C13 1_555 1_555
C14 C13 1_555 1_555
H18 C14 1_555 1_555
C15 C14 1_555 1_555
C16 C15 1_555 1_555
H19 C16 1_555 1_555
C17 C12 1_555 1_555
H20 C17 1_555 1_555
C18 C15 1_555 1_555
O6 H21 1_555 1_555
H22 O6 1_555 1_555
Cu1_2 O1 1_555 1_555
Cu1C O3 1_555 1_555
O1_2 Cu1 1_555 1_555
O3C Cu1 1_555 1_555
O4C Cu1 1_555 1_555
O4 Cu1C 1_555 1_555
C5 C8 1_555 1_555
C6 C7 1_555 1_555
C9 C10 1_555 1_555
C16 C17 1_555 1_555

#END
