
#######################################################################
#
#                 Cambridge Crystallographic Data Centre
#                                CCDC 
#
#######################################################################
#
# If this CIF has been generated from an entry in the Cambridge 
# Structural Database, then it will include bibliographic, chemical, 
# crystal, experimental, refinement or atomic coordinate data resulting 
# from the CCDC's data processing and validation procedures.
#
#######################################################################

data_WUHYUV
_symmetry_cell_setting           triclinic
_symmetry_space_group_name_H-M   'P -1'
_symmetry_Int_Tables_number      2
_space_group_name_Hall           '-P 1'
loop_
_symmetry_equiv_pos_site_id
_symmetry_equiv_pos_as_xyz
1 x,y,z
2 -x,-y,-z
_cell_length_a                   11.057(5)
_cell_length_b                   12.600(5)
_cell_length_c                   13.982(5)
_cell_angle_alpha                82.660(5)
_cell_angle_beta                 84.841(5)
_cell_angle_gamma                82.541(5)
_cell_volume                     1910.3
loop_
_atom_site_label
_atom_site_type_symbol
_atom_site_fract_x
_atom_site_fract_y
_atom_site_fract_z
Cd1 Cd 0.63337(3) 0.10447(3) -0.03086(2)
Cd2 Cd -0.12045(3) 0.39748(3) 0.46986(2)
N1 N -0.3053(3) 0.3625(4) 0.4169(3)
N2 N -0.2656(3) 0.3793(3) 0.6013(3)
N3 N 0.7769(3) 0.1041(3) -0.1615(3)
N4 N 0.8184(3) 0.1447(3) 0.0162(3)
O1 O 0.5452(3) 0.1719(3) 0.1113(2)
O2 O 0.4825(3) 0.2600(3) -0.0232(2)
O3 O -0.0110(3) 0.2784(3) 0.3634(3)
O4 O -0.0122(3) 0.4509(3) 0.3209(2)
O5 O 0.1678(3) 0.4244(3) 0.5221(2)
O6 O 0.0146(3) 0.3267(3) 0.5745(3)
O7 O 0.5047(3) 0.0690(3) 0.8656(2)
O8 O 0.3256(3) 0.0603(3) 0.9525(2)
C1 C 0.3907(4) 0.0912(4) 0.8775(3)
C2 C 0.3254(3) 0.1575(4) 0.7975(3)
C3 C 0.2643(4) 0.2569(4) 0.8123(3)
H1 H 0.2644 0.2821 0.8720
C4 C 0.2020(4) 0.3207(4) 0.7384(3)
H2 H 0.1635 0.3887 0.7493
C5 C 0.1965(4) 0.2854(4) 0.6509(3)
C6 C 0.1194(4) 0.3508(4) 0.5761(3)
C7 C 0.2597(4) 0.1827(4) 0.6326(3)
C8 C 0.3256(4) 0.1185(3) 0.7059(3)
C9 C 0.3837(4) 0.0147(4) 0.6876(4)
H3 H 0.4234 -0.0301 0.7362
C10 C 0.3813(5) -0.0193(5) 0.5995(4)
H4 H 0.4208 -0.0867 0.5879
C11 C 0.3200(5) 0.0462(5) 0.5259(4)
H5 H 0.3204 0.0223 0.4657
C12 C 0.2605(4) 0.1435(4) 0.5415(3)
H6 H 0.2194 0.1855 0.4921
C13 C 0.0289(4) 0.3561(4) 0.3112(4)
C14 C 0.1358(4) 0.3315(4) 0.2390(3)
C15 C 0.2095(4) 0.2366(4) 0.2597(3)
H7 H 0.1875 0.1892 0.3131
C16 C 0.3167(4) 0.2090(4) 0.2030(3)
H8 H 0.3644 0.1439 0.2193
C17 C 0.3527(4) 0.2765(4) 0.1237(3)
C18 C 0.4687(4) 0.2354(4) 0.0666(3)
C19 C 0.2782(4) 0.3759(3) 0.0963(3)
C20 C 0.1673(4) 0.4024(3) 0.1548(3)
C21 C 0.0921(5) 0.4992(4) 0.1245(4)
H9 H 0.0195 0.5182 0.1607
C22 C 0.1246(5) 0.5647(5) 0.0434(4)
H10 H 0.0730 0.6266 0.0239
C23 C 0.2344(5) 0.5395(4) -0.0105(4)
H11 H 0.2565 0.5858 -0.0648
C24 C 0.3092(5) 0.4489(4) 0.0151(4)
H12 H 0.3826 0.4342 -0.0214
C25 C 0.8350(5) 0.1593(4) 0.1052(4)
H13 H 0.7668 0.1655 0.1491
C26 C 0.9477(5) 0.1658(4) 0.1371(4)
H14 H 0.9558 0.1768 0.2006
C27 C 1.0478(5) 0.1554(4) 0.0717(5)
H15 H 1.1255 0.1590 0.0907
C28 C 1.0329(4) 0.1397(4) -0.0211(4)
H16 H 1.1000 0.1321 -0.0658
C29 C 0.9159(4) 0.1354(3) -0.0475(4)
C30 C 0.8920(4) 0.1184(4) -0.1475(4)
C31 C 0.9816(5) 0.1171(5) -0.2229(4)
H17 H 1.0612 0.1264 -0.2123
C32 C 0.9539(6) 0.1023(6) -0.3129(5)
H18 H 1.0138 0.1021 -0.3641
C33 C 0.8358(6) 0.0877(5) -0.3270(4)
H19 H 0.8147 0.0769 -0.3876
C34 C 0.7508(5) 0.0893(5) -0.2506(4)
H20 H 0.6710 0.0797 -0.2603
C35 C -0.2408(5) 0.3871(4) 0.6921(3)
H21 H -0.1628 0.4006 0.7033
C36 C -0.3265(5) 0.3758(5) 0.7693(4)
H22 H -0.3063 0.3804 0.8317
C37 C -0.4404(5) 0.3579(5) 0.7533(4)
H23 H -0.4997 0.3511 0.8045
C38 C -0.4682(5) 0.3499(5) 0.6596(4)
H24 H -0.5455 0.3355 0.6477
C39 C -0.3790(4) 0.3636(4) 0.5845(3)
C40 C -0.4028(4) 0.3604(4) 0.4819(3)
C41 C -0.5181(4) 0.3559(5) 0.4522(4)
H25 H -0.5858 0.3562 0.4969
C42 C -0.5317(5) 0.3508(5) 0.3561(4)
H26 H -0.6087 0.3481 0.3352
C43 C -0.4326(5) 0.3498(6) 0.2923(4)
H27 H -0.4401 0.3442 0.2275
C44 C -0.3207(5) 0.3573(6) 0.3241(4)
H28 H -0.2531 0.3588 0.2795
Cd1_2 Cd 0.63337(3) 0.10447(3) 0.96914(2)
Cd1A Cd 0.36663(3) -0.10447(3) 1.03086(2)
Cd2A Cd 0.12045(3) 0.60252(3) 0.53014(2)
O5A O -0.1678(3) 0.5756(3) 0.4779(2)
O7_2 O 0.5047(3) 0.0690(3) -0.1344(2)
O8A O 0.6744(3) -0.0603(3) 0.0475(2)
O9 O 0.9216(12) 0.0893(10) -0.5580(9)
loop_
_geom_bond_atom_site_label_1
_geom_bond_atom_site_label_2
_geom_bond_site_symmetry_1
_geom_bond_site_symmetry_2
Cd1 N3 1_555 1_555
Cd2 N1 1_555 1_555
N1 C40 1_555 1_555
N2 Cd2 1_555 1_555
N3 C30 1_555 1_555
N4 Cd1 1_555 1_555
O1 Cd1 1_555 1_555
O2 Cd1 1_555 1_555
O3 Cd2 1_555 1_555
O4 Cd2 1_555 1_555
O5 C6 1_555 1_555
O6 Cd2 1_555 1_555
O7 C1 1_555 1_555
O8 C1 1_555 1_555
C1 C2 1_555 1_555
C2 C3 1_555 1_555
C3 H1 1_555 1_555
C4 C3 1_555 1_555
H2 C4 1_555 1_555
C5 C4 1_555 1_555
C6 O6 1_555 1_555
C7 C5 1_555 1_555
C8 C2 1_555 1_555
C9 C8 1_555 1_555
H3 C9 1_555 1_555
C10 C9 1_555 1_555
H4 C10 1_555 1_555
C11 C10 1_555 1_555
H5 C11 1_555 1_555
C12 C7 1_555 1_555
H6 C12 1_555 1_555
C13 O3 1_555 1_555
C14 C13 1_555 1_555
C15 C14 1_555 1_555
H7 C15 1_555 1_555
C16 C15 1_555 1_555
H8 C16 1_555 1_555
C17 C16 1_555 1_555
C18 O1 1_555 1_555
C19 C17 1_555 1_555
C20 C14 1_555 1_555
C21 C20 1_555 1_555
H9 C21 1_555 1_555
C22 C21 1_555 1_555
H10 C22 1_555 1_555
C23 C22 1_555 1_555
H11 C23 1_555 1_555
C24 C19 1_555 1_555
H12 C24 1_555 1_555
C25 N4 1_555 1_555
H13 C25 1_555 1_555
C26 C25 1_555 1_555
H14 C26 1_555 1_555
C27 C26 1_555 1_555
H15 C27 1_555 1_555
C28 C27 1_555 1_555
H16 C28 1_555 1_555
C29 N4 1_555 1_555
C30 C29 1_555 1_555
C31 C30 1_555 1_555
H17 C31 1_555 1_555
C32 C31 1_555 1_555
H18 C32 1_555 1_555
C33 C32 1_555 1_555
H19 C33 1_555 1_555
C34 N3 1_555 1_555
H20 C34 1_555 1_555
C35 N2 1_555 1_555
H21 C35 1_555 1_555
C36 C35 1_555 1_555
H22 C36 1_555 1_555
C37 C36 1_555 1_555
H23 C37 1_555 1_555
C38 C37 1_555 1_555
H24 C38 1_555 1_555
C39 N2 1_555 1_555
C40 C39 1_555 1_555
C41 C40 1_555 1_555
H25 C41 1_555 1_555
C42 C41 1_555 1_555
H26 C42 1_555 1_555
C43 C42 1_555 1_555
H27 C43 1_555 1_555
C44 N1 1_555 1_555
H28 C44 1_555 1_555
Cd1_2 O7 1_555 1_555
Cd1A O8 1_555 1_555
Cd2A O5 1_555 1_555
O5A Cd2 1_555 1_555
O7_2 Cd1 1_555 1_555
O8A Cd1 1_555 1_555
O2 C18 1_555 1_555
O4 C13 1_555 1_555
C5 C6 1_555 1_555
C7 C8 1_555 1_555
C11 C12 1_555 1_555
C17 C18 1_555 1_555
C19 C20 1_555 1_555
C23 C24 1_555 1_555
C28 C29 1_555 1_555
C33 C34 1_555 1_555
C38 C39 1_555 1_555
C43 C44 1_555 1_555

#END
