
#######################################################################
#
#                 Cambridge Crystallographic Data Centre
#                                CCDC 
#
#######################################################################
#
# If this CIF has been generated from an entry in the Cambridge 
# Structural Database, then it will include bibliographic, chemical, 
# crystal, experimental, refinement or atomic coordinate data resulting 
# from the CCDC's data processing and validation procedures.
#
#######################################################################

data_WUHZOQ
_symmetry_cell_setting           monoclinic
_symmetry_space_group_name_H-M   'P 21/c'
_symmetry_Int_Tables_number      14
_space_group_name_Hall           '-P 2ybc'
loop_
_symmetry_equiv_pos_site_id
_symmetry_equiv_pos_as_xyz
1 x,y,z
2 -x,1/2+y,1/2-z
3 -x,-y,-z
4 x,1/2-y,1/2+z
_cell_length_a                   9.7473(19)
_cell_length_b                   15.238(3)
_cell_length_c                   30.160(6)
_cell_angle_alpha                90
_cell_angle_beta                 93.463(3)
_cell_angle_gamma                90
_cell_volume                     4471.47
loop_
_atom_site_label
_atom_site_type_symbol
_atom_site_fract_x
_atom_site_fract_y
_atom_site_fract_z
Cd1 Cd 0.03171(5) 0.34414(3) 0.446007(16)
Cd2 Cd 0.00624(5) 0.37773(3) 0.301340(15)
C1 C 0.0309(5) 0.2338(4) 0.57492(18)
C2 C 0.0652(6) 0.2872(4) 0.6104(2)
H1 H 0.0891 0.3452 0.6052
C3 C 0.0654(6) 0.2569(4) 0.65460(19)
H2 H 0.0959 0.2942 0.6775
C4 C 0.0227(5) 0.1756(4) 0.66451(18)
C5 C -0.0208(5) 0.1165(3) 0.62859(18)
C6 C -0.0159(5) 0.1470(3) 0.58325(17)
C7 C -0.0570(5) 0.0878(4) 0.5481(2)
H3 H -0.0527 0.1059 0.5187
C8 C -0.1013(6) 0.0072(4) 0.5567(2)
H4 H -0.1309 -0.0292 0.5333
C9 C -0.1042(6) -0.0241(4) 0.6014(2)
H5 H -0.1341 -0.0808 0.6069
C10 C -0.0635(6) 0.0287(4) 0.6356(2)
H6 H -0.0634 0.0072 0.6644
C11 C 0.0197(6) 0.1529(4) 0.7126(2)
C12 C 0.0420(5) 0.2733(4) 0.52982(19)
C13 C 0.5494(3) 0.90587(19) 0.43917(11)
C14 C 0.6781(3) 0.9215(2) 0.42464(16)
H7 H 0.7338 0.8748 0.4173
C15 C 0.7245(4) 1.0062(3) 0.4209(2)
H8 H 0.8116 1.0168 0.4111
C16 C 0.6421(4) 1.0753(3) 0.43169(18)
C17 C 0.5135(4) 1.0596(3) 0.44622(17)
H9 H 0.4577 1.1064 0.4535
C18 C 0.4671(3) 0.9749(2) 0.44996(16)
H10 H 0.3800 0.9644 0.4598
C19 C 0.2312(6) 0.5140(4) 0.4439(2)
H11 H 0.1555 0.5512 0.4434
N1 N 0.6881(5) 1.1653(3) 0.42871(16)
C20 C 0.8212(6) 1.1892(4) 0.4389(2)
H12 H 0.8916 1.1522 0.4497
N2 N 0.8330(8) 1.2769(5) 0.4307(3)
C21 C 0.7072(8) 1.3072(5) 0.4153(3)
H13 H 0.6862 1.3647 0.4072
C22 C 0.6176(6) 1.2383(4) 0.4141(2)
H14 H 0.5248 1.2406 0.4050
C23 C 0.2045(6) 0.5462(4) 0.3121(2)
H15 H 0.1288 0.5834 0.3104
C24 C 0.3851(5) 0.6606(3) 0.31590(17)
C25 C 0.5212(6) 0.6785(4) 0.3261(3)
H16 H 0.5822 0.6329 0.3331
C26 C 0.5674(7) 0.7634(5) 0.3258(3)
H17 H 0.6598 0.7755 0.3326
C27 C 0.4775(8) 0.8305(5) 0.3153(3)
C28 C 0.3414(7) 0.8127(5) 0.3052(3)
H18 H 0.2804 0.8582 0.2981
C29 C 0.2951(6) 0.7277(4) 0.3055(2)
H19 H 0.2028 0.7156 0.2986
C30 C 0.5284(5) 0.9275(3) 0.31276(18)
C31 C 0.6639(6) 0.9440(4) 0.3097(3)
H20 H 0.7254 0.8979 0.3072
C32 C 0.7106(6) 1.0297(4) 0.3104(3)
H21 H 0.8045 1.0404 0.3105
C33 C 0.6236(6) 1.0976(3) 0.31082(18)
C34 C 0.4889(7) 1.0816(5) 0.3112(3)
H22 H 0.4267 1.1279 0.3113
C35 C 0.4431(7) 0.9970(4) 0.3115(3)
H23 H 0.3489 0.9869 0.3108
N3 N 0.6719(5) 1.1847(3) 0.30871(17)
C36 C 0.8088(6) 1.2088(4) 0.3149(3)
H24 H 0.8813 1.1718 0.3237
N4 N 0.8186(8) 1.2975(5) 0.3057(3)
C37 C 0.6878(8) 1.3284(5) 0.2938(3)
H25 H 0.6649 1.3858 0.2860
C38 C 0.5972(6) 1.2586(4) 0.2957(2)
H26 H 0.5027 1.2610 0.2893
N5 N 0.3604(5) 0.5415(3) 0.44334(17)
N6 N 0.2227(5) 0.4271(3) 0.44525(16)
N7 N 0.1999(5) 0.4585(3) 0.31189(16)
N8 N 0.3379(4) 0.5719(3) 0.31517(16)
N9 N 0.1794(6) 0.2511(3) 0.36999(15)
N10 N -0.1556(3) 0.48329(15) 0.40986(16)
O1 O 0.0092(5) 0.3514(3) 0.52374(17)
O2 O 0.0815(5) 0.2259(3) 0.49893(16)
O3 O 0.0780(5) 0.2034(3) 0.73992(16)
O4 O -0.0426(5) 0.0872(3) 0.72527(16)
O5 O 0.0793(6) 0.2996(3) 0.36929(16)
O6 O 0.2283(5) 0.2294(3) 0.40684(16)
O7 O 0.2315(5) 0.2330(3) 0.33629(17)
O8 O -0.0692(7) 0.4454(4) 0.3875(3)
O9 O -0.1321(8) 0.4757(4) 0.45043(19)
O10 O -0.2478(7) 0.5210(4) 0.3862(3)
C39 C 0.4098(3) 0.6398(2) 0.44120(12)
C40 C 0.5436(3) 0.6584(2) 0.45359(17)
H27 H 0.6039 0.6133 0.4621
C41 C 0.5889(4) 0.7431(3) 0.4535(2)
H28 H 0.6801 0.7558 0.4619
C42 C 0.5005(4) 0.8092(3) 0.44099(19)
C43 C 0.3667(4) 0.7907(3) 0.42860(18)
H29 H 0.3064 0.8357 0.4201
C44 C 0.3213(3) 0.7059(2) 0.42872(17)
H30 H 0.2301 0.6933 0.4203
C45 C 0.4364(11) 0.4631(7) 0.4549(3)
H31 H 0.5311 0.4603 0.4607
C46 C 0.3484(13) 0.3934(8) 0.4560(4)
H32 H 0.3704 0.3353 0.4627
C47 C 0.3182(13) 0.4319(7) 0.3259(4)
H33 H 0.3398 0.3736 0.3324
C48 C 0.4060(14) 0.4972(8) 0.3301(4)
H34 H 0.4971 0.4937 0.3411
Cd1_2 Cd 1.03171(5) 1.34414(3) 0.446007(16)
Cd2_2 Cd 1.00624(5) 1.37773(3) 0.301340(15)
Cd2C Cd 0.00624(5) 0.12227(3) 0.801340(15)
N2_2 N -0.1670(8) 0.2769(5) 0.4307(3)
N4_2 N -0.1814(8) 0.2975(5) 0.3057(3)
O3C O 0.0780(5) 0.2966(3) 0.23992(16)
O4C O -0.0426(5) 0.4128(3) 0.22527(16)
O11 O 0.9448(5) 0.6192(3) 0.23624(17)
C49? C 0.5430(3) 0.8912(2) 0.43733(11)
C50? C 0.6808(3) 0.9103(2) 0.44730(16)
H35? H 0.7423 0.8653 0.4548
C51? C 0.7266(4) 0.9964(3) 0.4460(2)
H36? H 0.8188 1.0092 0.4527
C52? C 0.6347(4) 1.0636(3) 0.43476(17)
C53? C 0.4970(4) 1.0446(3) 0.42479(17)
H37? H 0.4354 1.0895 0.4173
C54? C 0.4511(3) 0.9584(2) 0.42607(16)
H38? H 0.3589 0.9456 0.4194
N11? N 0.6877(6) 1.1529(3) 0.4338(2)
C55? C 0.8127(7) 1.1806(4) 0.4252(3)
H39? H 0.8827 1.1462 0.4147
N12? N 0.8201(8) 1.2660(5) 0.4340(3)
C56? C 0.6995(9) 1.2912(5) 0.4482(3)
H40? H 0.6765 1.3477 0.4567
C57? C 0.6177(7) 1.2213(4) 0.4480(3)
H41? H 0.5274 1.2204 0.4564
C58? C 0.3845(6) 0.6627(4) 0.31602(19)
C59? C 0.5139(6) 0.6806(4) 0.3013(2)
H42? H 0.5692 0.6349 0.2924
C60? C 0.5606(7) 0.7666(5) 0.2998(3)
H43? H 0.6471 0.7785 0.2899
C61? C 0.4779(8) 0.8348(5) 0.3131(3)
H44? H 0.5091 0.8924 0.3122
C62? C 0.3485(7) 0.8170(5) 0.3279(3)
H45? H 0.2932 0.8626 0.3368
C63? C 0.3019(6) 0.7309(4) 0.3293(2)
H46? H 0.2152 0.7190 0.3392
N13? N 0.6707(6) 1.1894(4) 0.3124(2)
C64? C 0.7956(8) 1.2164(5) 0.3031(3)
H47? H 0.8661 1.1810 0.2938
N14? N 0.8019(9) 1.3027(6) 0.3095(3)
C65? C 0.6809(9) 1.3292(6) 0.3227(3)
H48? H 0.6571 1.3865 0.3295
C66? C 0.5998(8) 1.2591(5) 0.3246(3)
H49? H 0.5094 1.2590 0.3329
N15? N -0.1802(3) 0.50776(14) 0.33894(15)
O12? O -0.0735(6) 0.4719(4) 0.3534(3)
O13? O -0.1791(9) 0.5160(4) 0.29931(19)
O14? O -0.2653(7) 0.5279(4) 0.3660(2)
C67? C 0.4032(3) 0.6245(2) 0.44313(12)
C68? C 0.5287(4) 0.6438(2) 0.42460(17)
H50? H 0.5811 0.5988 0.4134
C69? C 0.5749(4) 0.7310(3) 0.4229(2)
H51? H 0.6579 0.7438 0.4107
C70? C 0.4957(4) 0.7991(3) 0.43978(18)
C71? C 0.3702(4) 0.7798(3) 0.45829(18)
H52? H 0.3178 0.8248 0.4694
C72? C 0.3240(4) 0.6926(2) 0.45998(17)
H53? H 0.2410 0.6798 0.4722
C73? C 0.4153(11) 0.4995(8) 0.3062(4)
H54? H 0.5095 0.4984 0.3028
C74? C 0.4376(12) 0.4757(8) 0.4318(4)
H55? H 0.5277 0.4771 0.4232
C75? C 0.3552(12) 0.4060(7) 0.4352(5)
H56? H 0.3845 0.3486 0.4311
C76? C 0.3326(15) 0.4333(10) 0.3033(5)
H57? H 0.3584 0.3763 0.2965
loop_
_geom_bond_atom_site_label_1
_geom_bond_atom_site_label_2
_geom_bond_site_symmetry_1
_geom_bond_site_symmetry_2
Cd1 N6 1_555 1_555
Cd2 N7 1_555 1_555
C1 C2 1_555 1_555
C2 H1 1_555 1_555
C3 C2 1_555 1_555
H2 C3 1_555 1_555
C4 C3 1_555 1_555
C5 C4 1_555 1_555
C6 C1 1_555 1_555
C7 C6 1_555 1_555
H3 C7 1_555 1_555
C8 C7 1_555 1_555
H4 C8 1_555 1_555
C9 C8 1_555 1_555
H5 C9 1_555 1_555
C10 C5 1_555 1_555
H6 C10 1_555 1_555
C11 C4 1_555 1_555
C12 C1 1_555 1_555
C13 C14 1_555 1_555
C14 H7 1_555 1_555
C15 C14 1_555 1_555
H8 C15 1_555 1_555
C16 C15 1_555 1_555
C17 C16 1_555 1_555
H9 C17 1_555 1_555
C18 C13 1_555 1_555
H10 C18 1_555 1_555
C19 H11 1_555 1_555
N1 C16 1_555 1_555
C20 N1 1_555 1_555
H12 C20 1_555 1_555
N2 C20 1_555 1_555
C21 N2 1_555 1_555
H13 C21 1_555 1_555
C22 N1 1_555 1_555
H14 C22 1_555 1_555
C23 H15 1_555 1_555
C24 C25 1_555 1_555
C25 H16 1_555 1_555
C26 C25 1_555 1_555
H17 C26 1_555 1_555
C27 C26 1_555 1_555
C28 C27 1_555 1_555
H18 C28 1_555 1_555
C29 C24 1_555 1_555
H19 C29 1_555 1_555
C30 C27 1_555 1_555
C31 C30 1_555 1_555
H20 C31 1_555 1_555
C32 C31 1_555 1_555
H21 C32 1_555 1_555
C33 C32 1_555 1_555
C34 C33 1_555 1_555
H22 C34 1_555 1_555
C35 C30 1_555 1_555
H23 C35 1_555 1_555
N3 C33 1_555 1_555
C36 N3 1_555 1_555
H24 C36 1_555 1_555
N4 C36 1_555 1_555
C37 N4 1_555 1_555
H25 C37 1_555 1_555
C38 N3 1_555 1_555
H26 C38 1_555 1_555
N5 C19 1_555 1_555
N6 C19 1_555 1_555
N7 C23 1_555 1_555
N8 C23 1_555 1_555
N9 O5 1_555 1_555
N10 O8 1_555 1_555
O1 Cd1 1_555 1_555
O2 Cd1 1_555 1_555
O3 C11 1_555 1_555
O4 C11 1_555 1_555
O5 Cd1 1_555 1_555
O6 N9 1_555 1_555
O7 N9 1_555 1_555
O8 Cd1 1_555 1_555
O9 Cd1 1_555 1_555
O10 N10 1_555 1_555
C39 N5 1_555 1_555
C40 C39 1_555 1_555
H27 C40 1_555 1_555
C41 C40 1_555 1_555
H28 C41 1_555 1_555
C42 C13 1_555 1_555
C43 C42 1_555 1_555
H29 C43 1_555 1_555
C44 C39 1_555 1_555
H30 C44 1_555 1_555
C45 N5 1_555 1_555
H31 C45 1_555 1_555
C46 N6 1_555 1_555
H32 C46 1_555 1_555
C47 N7 1_555 1_555
H33 C47 1_555 1_555
C48 N8 1_555 1_555
H34 C48 1_555 1_555
Cd1_2 N2 1_555 1_555
Cd2_2 N4 1_555 1_555
Cd2C O3 1_555 1_555
N2_2 Cd1 1_555 1_555
N4_2 Cd2 1_555 1_555
O3C Cd2 1_555 1_555
O4C Cd2 1_555 1_555
Cd2 O5 1_555 1_555
C5 C6 1_555 1_555
C9 C10 1_555 1_555
C12 O1 1_555 1_555
C12 O2 1_555 1_555
C17 C18 1_555 1_555
C21 C22 1_555 1_555
C24 N8 1_555 1_555
C28 C29 1_555 1_555
C34 C35 1_555 1_555
C37 C38 1_555 1_555
N10 O9 1_555 1_555
O4 Cd2C 1_555 1_555
C41 C42 1_555 1_555
C43 C44 1_555 1_555
C45 C46 1_555 1_555
C47 C48 1_555 1_555

#END
