
#######################################################################
#
#                 Cambridge Crystallographic Data Centre
#                                CCDC 
#
#######################################################################
#
# If this CIF has been generated from an entry in the Cambridge 
# Structural Database, then it will include bibliographic, chemical, 
# crystal, experimental, refinement or atomic coordinate data resulting 
# from the CCDC's data processing and validation procedures.
#
#######################################################################

data_WUHZAC
_symmetry_cell_setting           monoclinic
_symmetry_space_group_name_H-M   'P 21/n'
_symmetry_Int_Tables_number      14
_space_group_name_Hall           '-P 2yn'
loop_
_symmetry_equiv_pos_site_id
_symmetry_equiv_pos_as_xyz
1 x,y,z
2 1/2-x,1/2+y,1/2-z
3 -x,-y,-z
4 1/2+x,1/2-y,1/2+z
_cell_length_a                   11.561(5)
_cell_length_b                   14.705(5)
_cell_length_c                   11.867(5)
_cell_angle_alpha                90
_cell_angle_beta                 95.169(5)
_cell_angle_gamma                90
_cell_volume                     2009.24
loop_
_atom_site_label
_atom_site_type_symbol
_atom_site_fract_x
_atom_site_fract_y
_atom_site_fract_z
Cd1 Cd -0.10467(2) 0.449433(18) 0.09349(2)
N1 N -0.1300(3) 0.3685(2) 0.2598(3)
N2 N -0.1022(3) 0.5520(2) 0.2445(2)
O1 O 0.2345(3) 0.43689(19) -0.0064(2)
O2 O 0.0915(2) 0.47785(18) 0.0920(2)
O3 O 0.4467(2) 0.18684(19) 0.4943(2)
O4 O 0.2634(2) 0.1468(2) 0.4896(2)
C1 C -0.1393(4) 0.2788(3) 0.2673(4)
H1 H -0.1323 0.2442 0.2028
C2 C -0.1586(4) 0.2348(3) 0.3658(4)
H2 H -0.1643 0.1717 0.3677
C3 C -0.1693(4) 0.2853(4) 0.4613(4)
H3 H -0.1832 0.2565 0.5286
C4 C -0.1595(3) 0.3802(3) 0.4581(3)
C5 C -0.1391(3) 0.4196(3) 0.3534(3)
C6 C -0.1245(3) 0.5167(3) 0.3452(3)
C7 C -0.1317(3) 0.5708(3) 0.4427(3)
C8 C -0.1551(4) 0.5276(4) 0.5464(4)
H4 H -0.1617 0.5632 0.6104
C9 C -0.1676(4) 0.4384(4) 0.5535(4)
H5 H -0.1820 0.4129 0.6225
C10 C -0.1137(4) 0.6638(4) 0.4311(4)
H6 H -0.1190 0.7022 0.4928
C11 C -0.0885(4) 0.6990(3) 0.3300(4)
H7 H -0.0744 0.7609 0.3227
C12 C -0.0841(3) 0.6406(3) 0.2374(3)
H8 H -0.0679 0.6650 0.1683
C13 C 0.1828(3) 0.4324(2) 0.0810(3)
C14 C 0.2287(3) 0.3722(3) 0.1768(3)
C15 C 0.1682(3) 0.2970(3) 0.2032(3)
H9 H 0.0987 0.2829 0.1611
C16 C 0.2092(3) 0.2411(3) 0.2922(3)
H10 H 0.1673 0.1892 0.3071
C17 C 0.3095(3) 0.2600(3) 0.3590(3)
C18 C 0.3756(3) 0.3382(3) 0.3342(3)
C19 C 0.3343(3) 0.3951(3) 0.2421(3)
C20 C 0.3966(4) 0.4745(3) 0.2190(4)
H11 H 0.3700 0.5113 0.1583
C21 C 0.4939(4) 0.4977(4) 0.2835(4)
H12 H 0.5339 0.5503 0.2673
C22 C 0.5350(4) 0.4430(3) 0.3747(5)
H13 H 0.6023 0.4597 0.4187
C23 C 0.4782(3) 0.3658(3) 0.4000(3)
H14 H 0.5070 0.3306 0.4614
C24 C 0.3437(4) 0.1948(3) 0.4539(3)
Cd1B Cd 0.10467(2) 0.550567(18) -0.09349(2)
Cd1C Cd 0.39533(2) 0.050567(18) 0.59349(2)
O1B O -0.2345(3) 0.56311(19) 0.0064(2)
O2B O -0.0915(2) 0.52215(18) -0.0920(2)
O3C O -0.0533(2) 0.31316(19) -0.0057(2)
O4C O -0.2366(2) 0.3532(2) -0.0104(2)
O5 O 0.0279(8) 0.1101(7) 0.5016(8)
loop_
_geom_bond_atom_site_label_1
_geom_bond_atom_site_label_2
_geom_bond_site_symmetry_1
_geom_bond_site_symmetry_2
Cd1 N1 1_555 1_555
N1 C1 1_555 1_555
N2 Cd1 1_555 1_555
O1 C13 1_555 1_555
O2 Cd1 1_555 1_555
O3 C24 1_555 1_555
O4 C24 1_555 1_555
C1 H1 1_555 1_555
C2 C1 1_555 1_555
H2 C2 1_555 1_555
C3 C2 1_555 1_555
H3 C3 1_555 1_555
C4 C3 1_555 1_555
C5 N1 1_555 1_555
C6 N2 1_555 1_555
C7 C6 1_555 1_555
C8 C7 1_555 1_555
H4 C8 1_555 1_555
C9 C4 1_555 1_555
H5 C9 1_555 1_555
C10 C7 1_555 1_555
H6 C10 1_555 1_555
C11 C10 1_555 1_555
H7 C11 1_555 1_555
C12 N2 1_555 1_555
H8 C12 1_555 1_555
C13 O2 1_555 1_555
C14 C13 1_555 1_555
C15 C14 1_555 1_555
H9 C15 1_555 1_555
C16 C15 1_555 1_555
H10 C16 1_555 1_555
C17 C16 1_555 1_555
C18 C17 1_555 1_555
C19 C14 1_555 1_555
C20 C19 1_555 1_555
H11 C20 1_555 1_555
C21 C20 1_555 1_555
H12 C21 1_555 1_555
C22 C21 1_555 1_555
H13 C22 1_555 1_555
C23 C18 1_555 1_555
H14 C23 1_555 1_555
C24 C17 1_555 1_555
Cd1B O1 1_555 1_555
Cd1C O3 1_555 1_555
O1B Cd1 1_555 1_555
O2B Cd1 1_555 1_555
O3C Cd1 1_555 1_555
O4C Cd1 1_555 1_555
O2 Cd1B 1_555 1_555
O4 Cd1C 1_555 1_555
C4 C5 1_555 1_555
C5 C6 1_555 1_555
C8 C9 1_555 1_555
C11 C12 1_555 1_555
C18 C19 1_555 1_555
C22 C23 1_555 1_555
Cd1B O2B 1_555 1_555

#END
