
#######################################################################
#
#                 Cambridge Crystallographic Data Centre
#                                CCDC 
#
#######################################################################
#
# If this CIF has been generated from an entry in the Cambridge 
# Structural Database, then it will include bibliographic, chemical, 
# crystal, experimental, refinement or atomic coordinate data resulting 
# from the CCDC's data processing and validation procedures.
#
#######################################################################

data_WUHZEG
_symmetry_cell_setting           monoclinic
_symmetry_space_group_name_H-M   'P 21/n'
_symmetry_Int_Tables_number      14
_space_group_name_Hall           '-P 2yn'
loop_
_symmetry_equiv_pos_site_id
_symmetry_equiv_pos_as_xyz
1 x,y,z
2 1/2-x,1/2+y,1/2-z
3 -x,-y,-z
4 1/2+x,1/2-y,1/2+z
_cell_length_a                   15.0315(14)
_cell_length_b                   10.8209(10)
_cell_length_c                   20.3310(19)
_cell_angle_alpha                90
_cell_angle_beta                 106.002(2)
_cell_angle_gamma                90
_cell_volume                     3178.79
loop_
_atom_site_label
_atom_site_type_symbol
_atom_site_fract_x
_atom_site_fract_y
_atom_site_fract_z
Cu1 Cu 0.12717(2) 0.23860(3) 0.498872(17)
Cu2 Cu 0.26700(2) 0.23969(3) 0.438514(17)
C1 C 0.1945(2) 0.6091(3) 0.45701(16)
C2 C 0.1788(2) 0.6782(3) 0.50910(18)
H1 H 0.1639 0.6394 0.5455
C3 C 0.1852(2) 0.8073(3) 0.50775(17)
H2 H 0.1742 0.8529 0.5435
C4 C 0.2071(2) 0.8680(3) 0.45573(16)
C5 C 0.2213(2) 0.7989(3) 0.39927(16)
C6 C 0.2145(2) 0.6680(3) 0.39965(17)
C7 C 0.2245(3) 0.6010(3) 0.34174(18)
H3 H 0.2192 0.5154 0.3412
C8 C 0.2414(3) 0.6587(3) 0.28788(19)
H4 H 0.2476 0.6128 0.2507
C9 C 0.2498(3) 0.7871(3) 0.28743(19)
H5 H 0.2627 0.8262 0.2504
C10 C 0.2392(3) 0.8556(3) 0.34102(18)
H6 H 0.2437 0.9412 0.3395
C11 C 0.1924(3) 0.4710(3) 0.46271(16)
C12 C 0.2119(2) 1.0068(3) 0.46108(16)
C13 C 0.3741(2) 0.2446(3) 0.65901(14)
C14 C 0.4504(2) 0.3177(3) 0.67207(17)
H7 H 0.4611 0.3662 0.6372
C15 C 0.5130(2) 0.3211(3) 0.73702(17)
H8 H 0.5655 0.3704 0.7447
C16 C 0.4981(2) 0.2526(3) 0.78967(14)
C17 C 0.4188(2) 0.1746(3) 0.77868(15)
C18 C 0.3545(2) 0.1695(3) 0.71142(15)
C19 C 0.2782(2) 0.0894(3) 0.69965(17)
H9 H 0.2369 0.0849 0.6562
C20 C 0.2641(2) 0.0183(3) 0.75099(19)
H10 H 0.2135 -0.0347 0.7422
C21 C 0.3250(3) 0.0242(3) 0.81695(18)
H11 H 0.3138 -0.0234 0.8519
C22 C 0.3996(2) 0.0984(3) 0.82996(16)
H12 H 0.4398 0.0998 0.8739
C23 C 0.3089(2) 0.2444(3) 0.58779(15)
C24 C 0.5685(2) 0.2613(3) 0.85831(15)
C25 C 0.4384(3) 0.1900(4) 0.38222(17)
H13 H 0.4267 0.1059 0.3756
C26 C 0.4297(3) 0.3744(4) 0.4026(2)
H14 H 0.4078 0.4490 0.4147
C27 C 0.5881(3) 0.1971(5) 0.3498(2)
H15 H 0.5804 0.1085 0.3433
H16 H 0.6458 0.2114 0.3847
C28 C 0.5930(3) 0.2559(5) 0.28403(19)
H17 H 0.6454 0.2218 0.2709
H18 H 0.6035 0.3440 0.2913
C29 C 0.5057(3) 0.2362(4) 0.22604(18)
H19 H 0.4930 0.1484 0.2202
H20 H 0.4538 0.2751 0.2375
C30 C 0.5315(2) 0.4192(3) 0.09206(18)
H21 H 0.5358 0.4942 0.0709
C31 C 0.5288(2) 0.2299(3) 0.10915(17)
H22 H 0.5299 0.1444 0.1048
N1 N 0.38411(19) 0.2682(3) 0.40186(14)
N2 N 0.5113(2) 0.2465(3) 0.37318(15)
N3 N 0.5059(3) 0.3670(4) 0.3854(2)
N4 N 0.54018(19) 0.3091(3) 0.06276(13)
N5 N 0.5156(2) 0.2881(3) 0.16223(15)
N6 N 0.5165(2) 0.4120(3) 0.15251(16)
O1 O 0.12805(16) 0.42257(19) 0.48201(11)
O2 O 0.25874(15) 0.41504(19) 0.44979(12)
O3 O 0.16396(15) 1.05792(18) 0.49403(11)
O4 O 0.26585(16) 1.06200(18) 0.43214(11)
O5 O 0.34326(14) 0.2267(2) 0.53911(10)
O6 O 0.22417(14) 0.2634(2) 0.58299(10)
O7 O 0.65145(15) 0.2529(2) 0.85855(10)
O8 O 0.53878(15) 0.2764(2) 0.91002(10)
Cu1_2 Cu 0.12717(2) 1.23860(3) 0.498872(17)
Cu1C Cu 0.62717(2) 0.26140(3) -0.001128(17)
Cu1C_2 Cu 0.62717(2) 0.26140(3) 0.998872(17)
Cu2_2 Cu 0.26700(2) 1.23969(3) 0.438514(17)
Cu2C Cu 0.76700(2) 0.26031(3) 0.938514(17)
N4C N 0.04018(19) 0.1909(3) 0.56276(13)
O3_2 O 0.16396(15) 0.05792(18) 0.49403(11)
O4_2 O 0.26585(16) 0.06200(18) 0.43214(11)
O7C O 0.15145(15) 0.2471(2) 0.35855(10)
O8C O 0.03878(15) 0.2236(2) 0.41002(10)
loop_
_geom_bond_atom_site_label_1
_geom_bond_atom_site_label_2
_geom_bond_site_symmetry_1
_geom_bond_site_symmetry_2
Cu1 Cu2 1_555 1_555
Cu2 N1 1_555 1_555
C1 C2 1_555 1_555
C2 H1 1_555 1_555
C3 C2 1_555 1_555
H2 C3 1_555 1_555
C4 C3 1_555 1_555
C5 C4 1_555 1_555
C6 C1 1_555 1_555
C7 C6 1_555 1_555
H3 C7 1_555 1_555
C8 C7 1_555 1_555
H4 C8 1_555 1_555
C9 C8 1_555 1_555
H5 C9 1_555 1_555
C10 C5 1_555 1_555
H6 C10 1_555 1_555
C11 C1 1_555 1_555
C12 C4 1_555 1_555
C13 C14 1_555 1_555
C14 H7 1_555 1_555
C15 C14 1_555 1_555
H8 C15 1_555 1_555
C16 C15 1_555 1_555
C17 C16 1_555 1_555
C18 C13 1_555 1_555
C19 C18 1_555 1_555
H9 C19 1_555 1_555
C20 C19 1_555 1_555
H10 C20 1_555 1_555
C21 C20 1_555 1_555
H11 C21 1_555 1_555
C22 C17 1_555 1_555
H12 C22 1_555 1_555
C23 C13 1_555 1_555
C24 C16 1_555 1_555
C25 H13 1_555 1_555
C26 H14 1_555 1_555
C27 H15 1_555 1_555
H16 C27 1_555 1_555
C28 C27 1_555 1_555
H17 C28 1_555 1_555
H18 C28 1_555 1_555
C29 C28 1_555 1_555
H19 C29 1_555 1_555
H20 C29 1_555 1_555
C30 H21 1_555 1_555
C31 H22 1_555 1_555
N1 C25 1_555 1_555
N2 C25 1_555 1_555
N3 C26 1_555 1_555
N4 C30 1_555 1_555
N5 C29 1_555 1_555
N6 C30 1_555 1_555
O1 Cu1 1_555 1_555
O2 Cu2 1_555 1_555
O3 C12 1_555 1_555
O4 C12 1_555 1_555
O5 Cu2 1_555 1_555
O6 Cu1 1_555 1_555
O7 C24 1_555 1_555
O8 C24 1_555 1_555
Cu1_2 O3 1_555 1_555
Cu1C N4 1_555 1_555
Cu1C_2 O8 1_555 1_555
Cu2_2 O4 1_555 1_555
Cu2C O7 1_555 1_555
N4C Cu1 1_555 1_555
O3_2 Cu1 1_555 1_555
O4_2 Cu2 1_555 1_555
O7C Cu2 1_555 1_555
O8C Cu1 1_555 1_555
C5 C6 1_555 1_555
C9 C10 1_555 1_555
C11 O1 1_555 1_555
C11 O2 1_555 1_555
C17 C18 1_555 1_555
C21 C22 1_555 1_555
C23 O5 1_555 1_555
C23 O6 1_555 1_555
C26 N1 1_555 1_555
C27 N2 1_555 1_555
C31 N4 1_555 1_555
C31 N5 1_555 1_555
N2 N3 1_555 1_555
N5 N6 1_555 1_555
Cu1_2 Cu2_2 1_555 1_555
Cu1C_2 Cu2C 1_555 1_555

#END
