
#######################################################################
#
#                 Cambridge Crystallographic Data Centre
#                                CCDC 
#
#######################################################################
#
# If this CIF has been generated from an entry in the Cambridge 
# Structural Database, then it will include bibliographic, chemical, 
# crystal, experimental, refinement or atomic coordinate data resulting 
# from the CCDC's data processing and validation procedures.
#
#######################################################################

data_WUJFOX
_symmetry_cell_setting           orthorhombic
_symmetry_space_group_name_H-M   'I 21 21 21'
_symmetry_Int_Tables_number      24
_space_group_name_Hall           'I 2b 2c'
loop_
_symmetry_equiv_pos_site_id
_symmetry_equiv_pos_as_xyz
1 x,y,z
2 -x,1/2-y,z
3 x,-y,1/2-z
4 1/2-x,y,-z
5 1/2+x,1/2+y,1/2+z
6 1/2-x,-y,1/2+z
7 1/2+x,1/2-y,-z
8 -x,1/2+y,1/2-z
_cell_length_a                   8.207(5)
_cell_length_b                   27.618(5)
_cell_length_c                   28.692(5)
_cell_angle_alpha                90
_cell_angle_beta                 90
_cell_angle_gamma                90
_cell_volume                     6503.36
loop_
_atom_site_label
_atom_site_type_symbol
_atom_site_fract_x
_atom_site_fract_y
_atom_site_fract_z
Cd1 Cd 0.08596(3) 0.969817(8) 0.690605(9)
O1 O 0.1720(4) 0.97881(18) 0.61223(12)
O2 O 0.3526(4) 0.96309(12) 0.66565(10)
O3 O -0.1602(4) 0.93214(10) 0.69610(12)
O4 O 0.0382(4) 0.88428(12) 0.67256(15)
O5 O 0.1427(4) 1.04740(10) 0.73001(11)
O6 O -0.0639(6) 1.04437(11) 0.67991(13)
C1 C 0.3150(5) 0.9712(2) 0.62453(14)
C2 C 0.4479(3) 0.97252(19) 0.58818(8)
C3 C 0.6102(3) 0.96512(17) 0.60006(7)
H1 H 0.6395 0.9614 0.6312
C4 C 0.7286(2) 0.96334(17) 0.56546(10)
H2 H 0.8372 0.9584 0.5734
C5 C 0.6847(3) 0.96897(19) 0.51898(8)
C6 C 0.5224(4) 0.9764(2) 0.50710(7)
H3 H 0.4930 0.9801 0.4760
C7 C 0.4040(3) 0.9781(2) 0.54170(10)
H4 H 0.2954 0.9831 0.5338
C8 C 0.0322(6) 1.06752(14) 0.70498(17)
C9 C 0.0211(4) 1.12206(6) 0.70657(13)
C10 C -0.1191(3) 1.14519(9) 0.69099(14)
H5 H -0.2070 1.1270 0.6803
C11 C -0.1280(4) 1.19545(9) 0.69134(14)
H6 H -0.2218 1.2109 0.6809
C12 C 0.0033(4) 1.22257(6) 0.70727(14)
C13 C 0.1435(4) 1.19944(9) 0.72285(14)
H7 H 0.2314 1.2176 0.7335
C14 C 0.1524(3) 1.14919(9) 0.72251(13)
H8 H 0.2462 1.1337 0.7329
C15 C -0.1069(5) 0.89073(14) 0.68297(15)
C16 C -0.2274(3) 0.84951(8) 0.68085(11)
C17 C -0.3935(3) 0.85714(7) 0.68670(12)
H9 H -0.4332 0.8884 0.6909
C18 C -0.5004(2) 0.81809(9) 0.68622(13)
H10 H -0.6116 0.8232 0.6901
C19 C -0.4411(3) 0.77141(7) 0.67988(12)
C20 C -0.2749(3) 0.76378(7) 0.67403(13)
H11 H -0.2353 0.7325 0.6698
C21 C -0.1681(2) 0.80282(9) 0.67452(14)
H12 H -0.0569 0.7977 0.6706
Cd1A Cd -1.08596(3) 0.530183(8) 0.690605(9)
Cd1A_2 Cd -0.08596(3) 1.530183(8) 0.690605(9)
Cd1B Cd 0.08596(3) 1.030183(8) 0.809395(9)
Cd1C Cd 1.41404(3) 0.969817(8) 0.309395(9)
Cd1G Cd -0.08596(3) 1.469817(8) 0.809395(9)
O1C O 1.3280(4) 0.97881(18) 0.38777(12)
O1A O -1.1720(4) 0.52119(18) 0.61223(12)
O2C O 1.1474(4) 0.96309(12) 0.33435(10)
O2A O -1.3526(4) 0.53691(12) 0.66565(10)
O3A O -0.8398(4) 0.56786(10) 0.69610(12)
O4A O -1.0382(4) 0.61572(12) 0.67256(15)
O5A O -0.1427(4) 1.45260(10) 0.73001(11)
O5B O 0.1427(4) 0.95260(10) 0.76999(11)
O5G O -1.1427(4) 0.54740(10) 0.76999(11)
O5A_2 O -1.1427(4) 0.45260(10) 0.73001(11)
O6A O 0.0639(6) 1.45563(11) 0.67991(13)
O6A_2 O -0.9361(6) 0.45563(11) 0.67991(13)
C1C C 1.1850(5) 0.9712(2) 0.37547(14)
C1A C -1.3150(5) 0.5288(2) 0.62453(14)
C2C C 1.0521(3) 0.97252(19) 0.41182(8)
C3C C 0.8898(3) 0.96512(17) 0.39994(7)
H1C H 0.8605 0.9614 0.3688
C4C C 0.7714(2) 0.96334(17) 0.43454(10)
H2C H 0.6628 0.9584 0.4266
C5C C 0.8153(3) 0.96897(19) 0.48102(8)
C6C C 0.9776(4) 0.9764(2) 0.49290(7)
H3C H 1.0070 0.9801 0.5240
C7C C 1.0960(3) 0.9781(2) 0.45830(10)
H4C H 1.2046 0.9831 0.4662
C8A C -0.0322(6) 1.43248(14) 0.70498(17)
C8A_2 C -1.0322(6) 0.43248(14) 0.70498(17)
C9A C -0.0211(4) 1.37794(6) 0.70657(13)
C10A C 0.1191(3) 1.35481(9) 0.69099(14)
H5A H 0.2070 1.3730 0.6803
C11A C 0.1280(4) 1.30455(9) 0.69134(14)
H6A H 0.2218 1.2891 0.6809
C12A C -0.0033(4) 1.27743(6) 0.70727(14)
C13A C -0.1435(4) 1.30056(9) 0.72285(14)
H7A H -0.2314 1.2824 0.7335
C14A C -0.1524(3) 1.35081(9) 0.72251(13)
H8A H -0.2462 1.3663 0.7329
C15A C -0.8931(5) 0.60927(14) 0.68297(15)
C16A C -0.7726(3) 0.65049(8) 0.68085(11)
C17A C -0.6065(3) 0.64286(7) 0.68670(12)
H9A H -0.5668 0.6116 0.6909
C18A C -0.4996(2) 0.68191(9) 0.68622(13)
H10A H -0.3884 0.6768 0.6901
C19A C -0.5589(3) 0.72859(7) 0.67988(12)
C20A C -0.7251(3) 0.73622(7) 0.67403(13)
H11A H -0.7647 0.7675 0.6698
C21A C -0.8319(2) 0.69718(9) 0.67452(14)
H12A H -0.9431 0.7023 0.6706
loop_
_geom_bond_atom_site_label_1
_geom_bond_atom_site_label_2
_geom_bond_site_symmetry_1
_geom_bond_site_symmetry_2
Cd1 O1 1_555 1_555
O1 C1 1_555 1_555
O2 Cd1 1_555 1_555
O3 Cd1 1_555 1_555
O4 Cd1 1_555 1_555
O5 Cd1 1_555 1_555
O6 Cd1 1_555 1_555
C1 O2 1_555 1_555
C2 C1 1_555 1_555
C3 C2 1_555 1_555
H1 C3 1_555 1_555
C4 C3 1_555 1_555
H2 C4 1_555 1_555
C5 C4 1_555 1_555
C6 C5 1_555 1_555
H3 C6 1_555 1_555
C7 C2 1_555 1_555
H4 C7 1_555 1_555
C8 O5 1_555 1_555
C9 C8 1_555 1_555
C10 C9 1_555 1_555
H5 C10 1_555 1_555
C11 C10 1_555 1_555
H6 C11 1_555 1_555
C12 C11 1_555 1_555
C13 C12 1_555 1_555
H7 C13 1_555 1_555
C14 C9 1_555 1_555
H8 C14 1_555 1_555
C15 O3 1_555 1_555
C16 C15 1_555 1_555
C17 C16 1_555 1_555
H9 C17 1_555 1_555
C18 C17 1_555 1_555
H10 C18 1_555 1_555
C19 C18 1_555 1_555
C20 C19 1_555 1_555
H11 C20 1_555 1_555
C21 C16 1_555 1_555
H12 C21 1_555 1_555
Cd1A O1A 1_555 1_555
Cd1A_2 O5A 1_555 1_555
Cd1B O5 1_555 1_555
Cd1C O1C 1_555 1_555
Cd1G O5A 1_555 1_555
O1C C1C 1_555 1_555
O1A C1A 1_555 1_555
O2C Cd1C 1_555 1_555
O2A Cd1A 1_555 1_555
O3A Cd1A 1_555 1_555
O4A Cd1A 1_555 1_555
O5A C8A 1_555 1_555
O5B Cd1 1_555 1_555
O5G Cd1A 1_555 1_555
O5A_2 Cd1A 1_555 1_555
O6A Cd1A_2 1_555 1_555
O6A_2 Cd1A 1_555 1_555
C1C O2C 1_555 1_555
C1A O2A 1_555 1_555
C2C C1C 1_555 1_555
C3C C2C 1_555 1_555
H1C C3C 1_555 1_555
C4C C3C 1_555 1_555
H2C C4C 1_555 1_555
C5C C5 1_555 1_555
C6C C5C 1_555 1_555
H3C C6C 1_555 1_555
C7C C2C 1_555 1_555
H4C C7C 1_555 1_555
C8A O6A 1_555 1_555
C8A_2 O5A_2 1_555 1_555
C9A C8A 1_555 1_555
C10A C9A 1_555 1_555
H5A C10A 1_555 1_555
C11A C10A 1_555 1_555
H6A C11A 1_555 1_555
C12A C12 1_555 1_555
C13A C12A 1_555 1_555
H7A C13A 1_555 1_555
C14A C9A 1_555 1_555
H8A C14A 1_555 1_555
C15A O3A 1_555 1_555
C16A C15A 1_555 1_555
C17A C16A 1_555 1_555
H9A C17A 1_555 1_555
C18A C17A 1_555 1_555
H10A C18A 1_555 1_555
C19A C19 1_555 1_555
C20A C19A 1_555 1_555
H11A C20A 1_555 1_555
C21A C16A 1_555 1_555
H12A C21A 1_555 1_555
O4 C15 1_555 1_555
O6 C8 1_555 1_555
C6 C7 1_555 1_555
C13 C14 1_555 1_555
C20 C21 1_555 1_555
Cd1B O5B 1_555 1_555
O4A C15A 1_555 1_555
O6A_2 C8A_2 1_555 1_555
C4C C5C 1_555 1_555
C6C C7C 1_555 1_555
C11A C12A 1_555 1_555
C13A C14A 1_555 1_555
C18A C19A 1_555 1_555
C20A C21A 1_555 1_555

#END
