
#######################################################################
#
#                 Cambridge Crystallographic Data Centre
#                                CCDC 
#
#######################################################################
#
# If this CIF has been generated from an entry in the Cambridge 
# Structural Database, then it will include bibliographic, chemical, 
# crystal, experimental, refinement or atomic coordinate data resulting 
# from the CCDC's data processing and validation procedures.
#
#######################################################################

data_WUJFIR
_symmetry_cell_setting           triclinic
_symmetry_space_group_name_H-M   'P -1'
_symmetry_Int_Tables_number      2
_space_group_name_Hall           '-P 1'
loop_
_symmetry_equiv_pos_site_id
_symmetry_equiv_pos_as_xyz
1 x,y,z
2 -x,-y,-z
_cell_length_a                   4.7153(9)
_cell_length_b                   14.432(3)
_cell_length_c                   17.623(3)
_cell_angle_alpha                70.972(4)
_cell_angle_beta                 88.635(5)
_cell_angle_gamma                85.609(4)
_cell_volume                     1130.41
loop_
_atom_site_label
_atom_site_type_symbol
_atom_site_fract_x
_atom_site_fract_y
_atom_site_fract_z
Br1 Br 0.96537(15) 0.72626(5) 0.21943(4)
Br2 Br -0.43431(16) 0.14418(5) 0.32323(4)
C1 C 0.6384(15) 0.7049(5) 0.0897(4)
C2 C 0.4475(15) 0.7569(5) 0.0294(4)
H1 H 0.3638 0.7290 -0.0045
C3 C 0.6058(15) 0.8643(5) 0.1007(4)
H2 H 0.6463 0.9145 0.1202
C4 C 0.7156(14) 0.7703(5) 0.1292(4)
C5 C -0.0908(13) 0.1975(4) 0.1776(4)
C6 C -0.1901(14) 0.1230(5) 0.2410(4)
C7 C -0.1125(15) 0.0314(5) 0.2405(4)
H3 H -0.1692 -0.0254 0.2788
C8 C 0.0692(14) 0.1554(5) 0.1305(4)
H4 H 0.1568 0.1924 0.0837
C9 C 0.3197(14) 0.5200(5) 0.3423(4)
H5 H 0.4535 0.5574 0.3088
C10 C 0.2352(14) 0.5432(5) 0.4113(4)
H6 H 0.3074 0.5963 0.4212
C11 C 0.0480(15) 0.4882(5) 0.4636(4)
C12 C -0.0566(15) 0.4127(5) 0.4428(4)
H7 H -0.1882 0.3732 0.4755
C13 C 0.0376(16) 0.3967(5) 0.3726(4)
H8 H -0.0344 0.3452 0.3600
Cu1 Cu 0.33625(16) 0.42073(6) 0.22284(5)
Cu2 Cu 1.24906(16) 0.47526(5) 0.05274(4)
N1 N 0.2216(11) 0.4492(4) 0.3226(3)
O1 O 1.0381(10) 0.5517(3) 0.1105(2)
O2 O 0.5757(9) 0.5550(3) 0.0407(2)
O3 O 0.5864(10) 0.5278(3) 0.1921(3)
O4 O -0.0082(10) 0.3726(4) 0.0786(3)
O5 O 0.0121(10) 0.3442(3) 0.2287(3)
O6 O -0.4572(10) 0.3530(3) 0.1597(3)
P1 P 0.7168(3) 0.57642(12) 0.11116(9)
P2 P -0.1353(3) 0.32584(12) 0.16033(10)
S1 S 0.3822(3) 0.87627(12) 0.02362(9)
S2 S 0.0966(3) 0.03191(11) 0.16297(10)
Br1_2 Br 1.96537(15) 0.72626(5) 0.21943(4)
Br2_2 Br 0.56569(16) 0.14418(5) 0.32323(4)
C1_2 C 1.6384(15) 0.7049(5) 0.0897(4)
C2_2 C 1.4475(15) 0.7569(5) 0.0294(4)
H1_2 H 1.3638 0.7290 -0.0045
C3_2 C 1.6058(15) 0.8643(5) 0.1007(4)
H2_2 H 1.6463 0.9145 0.1202
C4_2 C 1.7156(14) 0.7703(5) 0.1292(4)
C5_2 C 0.9092(13) 0.1975(4) 0.1776(4)
C6_2 C 0.8099(14) 0.1230(5) 0.2410(4)
C7_2 C 0.8875(15) 0.0314(5) 0.2405(4)
H3_2 H 0.8308 -0.0254 0.2788
C8_2 C 1.0692(14) 0.1554(5) 0.1305(4)
H4_2 H 1.1568 0.1924 0.0837
C9A C -0.3197(14) 0.4800(5) 0.6577(4)
H5A H -0.4535 0.4426 0.6912
C10A C -0.2352(14) 0.4568(5) 0.5887(4)
H6A H -0.3074 0.4037 0.5788
C11A C -0.0480(15) 0.5118(5) 0.5364(4)
C12A C 0.0566(15) 0.5873(5) 0.5572(4)
H7A H 0.1882 0.6268 0.5245
C13A C -0.0376(16) 0.6033(5) 0.6274(4)
H8A H 0.0344 0.6548 0.6400
Cu1A Cu -0.33625(16) 0.57927(6) 0.77716(5)
Cu1_2 Cu -0.66375(16) 0.42073(6) 0.22284(5)
Cu1_3 Cu 1.33625(16) 0.42073(6) 0.22284(5)
Cu2_2 Cu 0.24906(16) 0.47526(5) 0.05274(4)
Cu2A Cu 0.75094(16) 0.52474(5) -0.05274(4)
Cu2_3 Cu 2.24906(16) 0.47526(5) 0.05274(4)
Cu2A_2 Cu 1.75094(16) 0.52474(5) -0.05274(4)
N1A N -0.2216(11) 0.5508(4) 0.6774(3)
O1_2 O 2.0381(10) 0.5517(3) 0.1105(2)
O1_3 O 0.0381(10) 0.5517(3) 0.1105(2)
O2_2 O 1.5757(9) 0.5550(3) 0.0407(2)
O2A O 1.4243(9) 0.4450(3) -0.0407(2)
O2A_2 O 0.4243(9) 0.4450(3) -0.0407(2)
O3_2 O 1.5864(10) 0.5278(3) 0.1921(3)
O3A O -0.5864(10) 0.4722(3) 0.8079(3)
O4_2 O 0.9918(10) 0.3726(4) 0.0786(3)
O5_2 O 1.0121(10) 0.3442(3) 0.2287(3)
O5A O -0.0121(10) 0.6558(3) 0.7713(3)
O6_2 O 0.5428(10) 0.3530(3) 0.1597(3)
O6A O -0.5428(10) 0.6470(3) 0.8403(3)
P1_2 P 1.7168(3) 0.57642(12) 0.11116(9)
P2_2 P 0.8647(3) 0.32584(12) 0.16033(10)
S1_2 S 1.3822(3) 0.87627(12) 0.02362(9)
S2_2 S 1.0966(3) 0.03191(11) 0.16297(10)
O7 O 0.473(3) 0.7830(10) 0.4041(8)
H9 H 0.3900 0.8375 0.4189
H10 H 0.5771 0.8071 0.3550
O8 O 0.996(4) 0.8588(13) 0.4649(11)
H11 H 0.8423 0.8327 0.4629
H12 H 1.1194 0.8426 0.4346
O9 O 0.5000 1.0000 0.5000
H13 H 0.6252 0.9614 0.4881
H13A H 0.3748 1.0386 0.5119
H14? H 0.3829 1.0236 0.4614
loop_
_geom_bond_atom_site_label_1
_geom_bond_atom_site_label_2
_geom_bond_site_symmetry_1
_geom_bond_site_symmetry_2
Br1 C4 1_555 1_555
Br2 C6 1_555 1_555
C1 C2 1_555 1_555
C2 H1 1_555 1_555
C3 H2 1_555 1_555
C4 C1 1_555 1_555
C5 C6 1_555 1_555
C6 C7 1_555 1_555
C7 H3 1_555 1_555
C8 C5 1_555 1_555
H4 C8 1_555 1_555
C9 H5 1_555 1_555
C10 C9 1_555 1_555
H6 C10 1_555 1_555
C11 C10 1_555 1_555
C12 C11 1_555 1_555
H7 C12 1_555 1_555
C13 C12 1_555 1_555
H8 C13 1_555 1_555
Cu1 N1 1_555 1_555
Cu2 O1 1_555 1_555
N1 C9 1_555 1_555
O1 P1 1_555 1_555
O2 P1 1_555 1_555
O3 Cu1 1_555 1_555
O4 P2 1_555 1_555
O5 Cu1 1_555 1_555
O6 P2 1_555 1_555
P1 C1 1_555 1_555
P2 C5 1_555 1_555
S1 C2 1_555 1_555
S2 C7 1_555 1_555
O7 H9 1_555 1_555
H10 O7 1_555 1_555
O8 H11 1_555 1_555
H12 O8 1_555 1_555
O9 H13 1_555 1_555
Br1_2 C4_2 1_555 1_555
Br2_2 C6_2 1_555 1_555
C1_2 C2_2 1_555 1_555
C2_2 H1_2 1_555 1_555
C3_2 H2_2 1_555 1_555
C4_2 C1_2 1_555 1_555
C5_2 C6_2 1_555 1_555
C6_2 C7_2 1_555 1_555
C7_2 H3_2 1_555 1_555
C8_2 C5_2 1_555 1_555
H4_2 C8_2 1_555 1_555
C9A H5A 1_555 1_555
C10A C9A 1_555 1_555
H6A C10A 1_555 1_555
C11A C11 1_555 1_555
C12A C11A 1_555 1_555
H7A C12A 1_555 1_555
C13A C12A 1_555 1_555
H8A C13A 1_555 1_555
Cu1A N1A 1_555 1_555
Cu1_2 O6 1_555 1_555
Cu1_3 O3_2 1_555 1_555
Cu2_2 O2 1_555 1_555
Cu2A O2 1_555 1_555
Cu2_3 O1_2 1_555 1_555
Cu2A_2 O2_2 1_555 1_555
N1A C9A 1_555 1_555
O1_2 P1_2 1_555 1_555
O1_3 Cu2_2 1_555 1_555
O2_2 Cu2 1_555 1_555
O2A Cu2 1_555 1_555
O2A_2 Cu2_2 1_555 1_555
O3_2 P1_2 1_555 1_555
O3A Cu1A 1_555 1_555
O4_2 Cu2 1_555 1_555
O5_2 Cu1_3 1_555 1_555
O5A Cu1A 1_555 1_555
O6_2 Cu1 1_555 1_555
O6A Cu1A 1_555 1_555
P1_2 C1_2 1_555 1_555
P2_2 C5_2 1_555 1_555
S1_2 C2_2 1_555 1_555
S2_2 C7_2 1_555 1_555
H13A O9 1_555 1_555
C3 C4 1_555 1_555
C3 S1 1_555 1_555
C8 S2 1_555 1_555
C13 N1 1_555 1_555
O3 P1 1_555 1_555
O4 Cu2_2 1_555 1_555
O5 P2 1_555 1_555
C3_2 C4_2 1_555 1_555
C3_2 S1_2 1_555 1_555
C8_2 S2_2 1_555 1_555
C10A C11A 1_555 1_555
C13A N1A 1_555 1_555
Cu2A O2A_2 1_555 1_555
Cu2A_2 O2A 1_555 1_555
O2_2 P1_2 1_555 1_555
O4_2 P2_2 1_555 1_555
O5_2 P2_2 1_555 1_555
O6_2 P2_2 1_555 1_555

#END
