
#######################################################################
#
#                 Cambridge Crystallographic Data Centre
#                                CCDC 
#
#######################################################################
#
# If this CIF has been generated from an entry in the Cambridge 
# Structural Database, then it will include bibliographic, chemical, 
# crystal, experimental, refinement or atomic coordinate data resulting 
# from the CCDC's data processing and validation procedures.
#
#######################################################################

data_WUJFOW
_symmetry_cell_setting           hexagonal
_symmetry_space_group_name_H-M   'P 61'
_symmetry_Int_Tables_number      169
_space_group_name_Hall           'P 61'
loop_
_symmetry_equiv_pos_site_id
_symmetry_equiv_pos_as_xyz
1 x,y,z
2 -y,x-y,1/3+z
3 -x+y,-x,2/3+z
4 -x,-y,1/2+z
5 y,-x+y,5/6+z
6 x-y,x,1/6+z
_cell_length_a                   8.0677(12)
_cell_length_b                   8.0677(12)
_cell_length_c                   27.283(6)
_cell_angle_alpha                90
_cell_angle_beta                 90
_cell_angle_gamma                120
_cell_volume                     1537.88
loop_
_atom_site_label
_atom_site_type_symbol
_atom_site_fract_x
_atom_site_fract_y
_atom_site_fract_z
Zn1 Zn 0.79044(15) 0.98467(15) 0.08961(3)
Zn2 Zn 0.14419(15) 0.46793(14) 0.17831(3)
P1 P 0.5297(3) 0.8515(3) 0.19047(8)
P2 P 0.2247(3) 1.1742(3) 0.11122(8)
O1 O 0.6950(10) 0.9331(10) 0.1557(3)
O2 O 0.3395(9) 0.7274(9) 0.1653(2)
O3 O 0.5605(8) 0.7500(8) 0.2338(2)
O4 O 0.0373(9) 1.0070(8) 0.0920(3)
O5 O 0.2060(9) 1.3443(8) 0.1264(2)
O6 O 0.3906(10) 1.2252(9) 0.0775(2)
O7 O 0.8743(9) 1.4047(9) 0.1692(2)
O8 O 0.8861(9) 1.6398(9) 0.2147(2)
N1 N 0.4947(10) 1.1722(10) 0.1761(3)
H1 H 0.5562 1.1696 0.1484
C1 C 0.5259(12) 1.0594(12) 0.2151(3)
H2 H 0.4247 1.0173 0.2393
H3 H 0.6464 1.1416 0.2315
C2 C 0.2831(13) 1.0823(12) 0.1648(3)
H4 H 0.2202 1.1003 0.1929
H5 H 0.2306 0.9457 0.1606
C3 C 0.5752(13) 1.3758(12) 0.1915(3)
H6 H 0.5281 1.3798 0.2239
H7 H 0.5316 1.4392 0.1690
C4 C 0.7978(12) 1.4849(13) 0.1922(3)
O3D O 0.7500(8) 1.1895(11) 0.0671(2)
O4_2 O 1.0373(9) 1.0070(8) 0.0920(3)
O8D O 0.6398(9) 0.7537(13) 0.0480(2)
O5_2 O 0.2060(9) 0.3443(8) 0.1264(2)
O6E O 0.1654(13) 0.3906(10) 0.2442(2)
O7_2 O -0.1257(9) 0.4047(9) 0.1692(2)
Zn1E Zn 0.80577(21) 0.79044(15) 0.25628(3)
Zn1_2 Zn -0.20956(15) 0.98467(15) 0.08961(3)
Zn2_2 Zn 0.14419(15) 1.46793(14) 0.17831(3)
Zn2D Zn 0.46793(14) 1.32374(21) 0.01164(3)
Zn2_3 Zn 1.14419(15) 1.46793(14) 0.17831(3)
Zn1E_2 Zn 0.80577(21) 1.79044(15) 0.25628(3)
loop_
_geom_bond_atom_site_label_1
_geom_bond_atom_site_label_2
_geom_bond_site_symmetry_1
_geom_bond_site_symmetry_2
Zn1 O1 1_555 1_555
Zn2 O2 1_555 1_555
P1 O1 1_555 1_555
P2 O4 1_555 1_555
O2 P1 1_555 1_555
O3 P1 1_555 1_555
O4 Zn1_2 1_555 1_555
O5 P2 1_555 1_555
O6 P2 1_555 1_555
O7 C4 1_555 1_555
O8 C4 1_555 1_555
N1 H1 1_555 1_555
C1 P1 1_555 1_555
H2 C1 1_555 1_555
H3 C1 1_555 1_555
C2 P2 1_555 1_555
H4 C2 1_555 1_555
H5 C2 1_555 1_555
C3 N1 1_555 1_555
H6 C3 1_555 1_555
H7 C3 1_555 1_555
C4 C3 1_555 1_555
O3D Zn1 1_555 1_555
O4_2 Zn1 1_555 1_555
O8D Zn1 1_555 1_555
O5_2 Zn2 1_555 1_555
O6E Zn2 1_555 1_555
O7_2 Zn2 1_555 1_555
Zn1E O3 1_555 1_555
Zn2_2 O5 1_555 1_555
Zn2D O6 1_555 1_555
Zn2_3 O7 1_555 1_555
Zn1E_2 O8 1_555 1_555
N1 C1 1_555 1_555
N1 C2 1_555 1_555

#END
