
#######################################################################
#
#                 Cambridge Crystallographic Data Centre
#                                CCDC 
#
#######################################################################
#
# If this CIF has been generated from an entry in the Cambridge 
# Structural Database, then it will include bibliographic, chemical, 
# crystal, experimental, refinement or atomic coordinate data resulting 
# from the CCDC's data processing and validation procedures.
#
#######################################################################

data_WUJGEN
_symmetry_cell_setting           orthorhombic
_symmetry_space_group_name_H-M   'P c a 21'
_symmetry_Int_Tables_number      29
_space_group_name_Hall           'P 2c -2ac'
loop_
_symmetry_equiv_pos_site_id
_symmetry_equiv_pos_as_xyz
1 x,y,z
2 -x,-y,1/2+z
3 1/2-x,y,1/2+z
4 1/2+x,-y,z
_cell_length_a                   10.9390(3)
_cell_length_b                   12.9470(2)
_cell_length_c                   11.1140(4)
_cell_angle_alpha                90
_cell_angle_beta                 90
_cell_angle_gamma                90
_cell_volume                     1574.05
loop_
_atom_site_label
_atom_site_type_symbol
_atom_site_fract_x
_atom_site_fract_y
_atom_site_fract_z
Mn1 Mn 0.24675(3) 0.176910(19) 0.0560
O1 O 0.17102(13) 0.07537(11) 0.15048(14)
O2 O 0.12634(15) 0.27792(11) 0.08698(15)
N1 N 0.38794(15) 0.08478(13) 0.02164(15)
N2 N 0.33847(17) 0.27187(14) -0.05024(16)
C1 C 0.2061(2) -0.02063(15) 0.17453(19)
C2 C 0.1328(2) -0.08046(17) 0.2505(2)
C3 C 0.1632(2) -0.18071(18) 0.2797(2)
C4 C 0.2684(2) -0.2249(2) 0.2323(3)
C5 C 0.3429(2) -0.16872(17) 0.1566(2)
C6 C 0.31317(18) -0.06593(16) 0.12698(19)
C7 C 0.39956(17) -0.01048(14) 0.0539(2)
C8 C 0.4900(2) 0.13712(19) -0.0403(2)
C9 C 0.4346(2) 0.2200(2) -0.12043(19)
C10 C 0.3171(2) 0.36872(19) -0.0635(2)
C11 C 0.2238(2) 0.42527(19) -0.0035(3)
C12 C 0.2242(3) 0.5343(2) -0.0180(4)
C13 C 0.1386(4) 0.5945(2) 0.0385(4)
C14 C 0.0508(4) 0.5492(2) 0.1101(3)
C15 C 0.0451(3) 0.4423(2) 0.1247(3)
C16 C 0.1336(2) 0.37919(16) 0.0691(2)
H1 H 0.064(2) -0.0523(16) 0.278(2)
H2 H 0.103(3) -0.226(2) 0.342(3)
H3 H 0.289(3) -0.289(3) 0.253(3)
H4 H 0.416(3) -0.2004(19) 0.118(2)
H5 H 0.474(2) -0.0533(17) 0.029(2)
H6 H 0.548(3) 0.1666(19) 0.018(3)
H7 H 0.539(3) 0.090(2) -0.084(3)
H8 H 0.387(2) 0.1877(18) -0.199(3)
H9 H 0.499(3) 0.265(3) -0.147(3)
H10 H 0.372(3) 0.415(2) -0.120(3)
H11 H 0.295(3) 0.570(2) -0.076(3)
H12 H 0.152(5) 0.665(4) 0.036(5)
H13 H -0.012(3) 0.583(3) 0.148(3)
H14 H -0.022(2) 0.412(2) 0.171(2)
N3 N 0.14218(18) 0.12573(17) -0.11115(18)
N4 N 0.14125(14) 0.18096(14) -0.1955(2)
N5 N 0.14071(19) 0.23643(16) -0.27962(19)
N5B N 0.35929(19) 0.23643(16) 0.22038(19)
Mn1B Mn 0.25325(3) 0.176910(19) -0.4440
loop_
_geom_bond_atom_site_label_1
_geom_bond_atom_site_label_2
_geom_bond_site_symmetry_1
_geom_bond_site_symmetry_2
Mn1 O1 1_555 1_555
O1 C1 1_555 1_555
O2 Mn1 1_555 1_555
N1 Mn1 1_555 1_555
N2 Mn1 1_555 1_555
C1 C2 1_555 1_555
C2 C3 1_555 1_555
C3 C4 1_555 1_555
C4 C5 1_555 1_555
C5 C6 1_555 1_555
C6 C1 1_555 1_555
C7 N1 1_555 1_555
C8 N1 1_555 1_555
C9 N2 1_555 1_555
C10 N2 1_555 1_555
C11 C10 1_555 1_555
C12 C11 1_555 1_555
C13 C12 1_555 1_555
C14 C13 1_555 1_555
C15 C14 1_555 1_555
C16 O2 1_555 1_555
H1 C2 1_555 1_555
H2 C3 1_555 1_555
H3 C4 1_555 1_555
H4 C5 1_555 1_555
H5 C7 1_555 1_555
H6 C8 1_555 1_555
H7 C8 1_555 1_555
H8 C9 1_555 1_555
H9 C9 1_555 1_555
H10 C10 1_555 1_555
H11 C12 1_555 1_555
H12 C13 1_555 1_555
H13 C14 1_555 1_555
H14 C15 1_555 1_555
N3 Mn1 1_555 1_555
N4 N3 1_555 1_555
N5 N4 1_555 1_555
N5B Mn1 1_555 1_555
Mn1B N5 1_555 1_555
C6 C7 1_555 1_555
C8 C9 1_555 1_555
C11 C16 1_555 1_555
C15 C16 1_555 1_555

#END
