
#######################################################################
#
#                 Cambridge Crystallographic Data Centre
#                                CCDC 
#
#######################################################################
#
# If this CIF has been generated from an entry in the Cambridge 
# Structural Database, then it will include bibliographic, chemical, 
# crystal, experimental, refinement or atomic coordinate data resulting 
# from the CCDC's data processing and validation procedures.
#
#######################################################################

data_WUJGUE
_symmetry_cell_setting           triclinic
_symmetry_space_group_name_H-M   'P -1'
_symmetry_Int_Tables_number      2
_space_group_name_Hall           '-P 1'
loop_
_symmetry_equiv_pos_site_id
_symmetry_equiv_pos_as_xyz
1 x,y,z
2 -x,-y,-z
_cell_length_a                   14.117(3)
_cell_length_b                   20.191(3)
_cell_length_c                   21.811(4)
_cell_angle_alpha                85.828(5)
_cell_angle_beta                 82.536(5)
_cell_angle_gamma                78.003(4)
_cell_volume                     6022.9
loop_
_atom_site_label
_atom_site_type_symbol
_atom_site_fract_x
_atom_site_fract_y
_atom_site_fract_z
P1 P 1.0111(3) -0.50411(17) -0.74959(15)
W1 W 1.15514(5) -0.44244(3) -0.87920(3)
W2 W 1.24449(5) -0.47088(3) -0.73534(3)
W3 W 1.05778(6) -0.33523(3) -0.75921(3)
W4 W 1.20361(5) -0.64570(3) -0.72438(3)
W5 W 0.97751(5) -0.67510(3) -0.74359(3)
W6 W 1.11721(5) -0.61590(3) -0.86920(3)
W7 W 0.87123(5) -0.56095(3) -0.61691(3)
W8 W 0.90756(5) -0.39754(3) -0.62577(3)
W9 W 1.09480(6) -0.53016(4) -0.60126(4)
W10 W 0.81665(5) -0.36684(3) -0.77996(3)
W11 W 0.77778(5) -0.53109(3) -0.77040(3)
W12 W 0.91726(7) -0.47472(5) -0.89504(4)
O1 O 1.1525(9) -0.6088(6) -0.6493(5)
O2 O 1.0560(8) -0.5785(5) -0.7640(5)
O3 O 1.1175(9) -0.3553(6) -0.8420(5)
O4 O 1.1050(10) -0.7010(7) -0.7160(6)
O5 O 0.8381(9) -0.4677(6) -0.5953(5)
O6 O 1.0429(9) -0.6802(7) -0.8264(5)
O7 O 0.8411(8) -0.3898(5) -0.8627(5)
O8 O 0.7942(9) -0.5358(6) -0.6843(5)
O9 O 1.0856(8) -0.4588(6) -0.7694(5)
O10 O 1.1817(9) -0.4829(6) -0.6567(5)
O11 O 0.7333(9) -0.4335(6) -0.7641(5)
O12 O 0.8116(8) -0.5178(6) -0.8548(5)
O13 O 0.9193(9) -0.4807(6) -0.7816(6)
O14 O 0.8682(9) -0.6163(6) -0.7725(5)
O15 O 0.9846(9) -0.5002(5) -0.6797(5)
O16 O 1.2589(9) -0.4586(6) -0.8229(6)
O17 O 1.2581(9) -0.5655(6) -0.7443(5)
O18 O 0.7951(8) -0.5954(6) -0.5617(5)
O19 O 1.0054(8) -0.5636(5) -0.8928(5)
O20 O 0.7308(10) -0.2949(7) -0.7839(6)
O21 O 1.3600(9) -0.4652(7) -0.7238(6)
O22 O 0.6684(9) -0.5544(6) -0.7682(5)
O23 O 0.8484(9) -0.3377(6) -0.5760(5)
O24 O 1.1712(9) -0.6588(6) -0.9336(6)
O25 O 0.8315(9) -0.3797(6) -0.6931(5)
O26 O 0.9426(10) -0.7513(6) -0.7347(6)
O27 O 1.1825(10) -0.3764(6) -0.7329(5)
O28 O 1.3014(10) -0.7049(6) -0.7054(5)
O29 O 1.2136(10) -0.6551(7) -0.8117(5)
O30 O 0.9345(9) -0.3334(7) -0.7862(5)
O31 O 0.9337(10) -0.6370(7) -0.6656(5)
O32 O 1.0131(9) -0.4432(6) -0.5829(6)
O33 O 1.2223(9) -0.4204(6) -0.9462(5)
O34 O 1.0340(9) -0.4371(6) -0.9028(5)
O35 O 1.0629(10) -0.2522(6) -0.7604(6)
O36 O 1.1754(8) -0.5386(6) -0.8780(6)
O37 O 0.9983(10) -0.3552(7) -0.6780(6)
O38 O 0.9804(8) -0.5705(6) -0.5754(5)
O39 O 0.8800(13) -0.4651(8) -0.9759(7)
O40 O 1.1644(11) -0.5500(8) -0.5340(6)
Cu1 Cu 0.5064(2) -0.58562(13) -0.75635(10)
Cu2 Cu 0.4500(2) -0.58769(13) -0.25166(10)
C1 C 0.3787(7) -0.5953(7) -1.1205(4)
H1 H 0.3190 -0.5969 -1.1334
C2 C 0.3865(7) -0.5931(7) -1.0573(4)
H2 H 0.3320 -0.5932 -1.0283
C3 C 0.4764(7) -0.5907(6) -1.0378(4)
C4 C 0.5584(7) -0.5905(7) -1.0814(4)
H3 H 0.6181 -0.5889 -1.0685
C5 C 0.5506(7) -0.5928(7) -1.1446(4)
H4 H 0.6051 -0.5927 -1.1735
N1 N 0.4607(7) -0.5952(6) -1.1641(4)
C6 C 0.4079(7) -0.5877(7) -0.8652(4)
H5 H 0.3528 -0.5877 -0.8367
C7 C 0.4015(7) -0.5894(6) -0.9287(4)
H6 H 0.3421 -0.5906 -0.9424
C8 C 0.4847(7) -0.5893(6) -0.9717(4)
C9 C 0.5744(7) -0.5875(7) -0.9511(4)
H7 H 0.6295 -0.5875 -0.9795
C10 C 0.5807(7) -0.5858(6) -0.8875(4)
H8 H 0.6401 -0.5846 -0.8738
N2 N 0.4975(8) -0.5858(6) -0.8445(4)
C11 C 0.4089(8) -0.5962(7) -0.6320(4)
H9 H 0.3542 -0.5981 -0.6508
C12 C 0.4017(7) -0.5937(7) -0.5683(5)
H10 H 0.3423 -0.5940 -0.5444
C13 C 0.4830(7) -0.5907(6) -0.5402(4)
C14 C 0.5714(7) -0.5903(7) -0.5758(4)
H11 H 0.6261 -0.5883 -0.5569
C15 C 0.5786(8) -0.5929(7) -0.6394(4)
H12 H 0.6380 -0.5926 -0.6633
N3 N 0.4973(8) -0.5958(6) -0.6675(4)
C16 C 0.3768(7) -0.5820(6) -0.3700(4)
H13 H 0.3161 -0.5781 -0.3466
C17 C 0.3843(7) -0.5832(6) -0.4344(4)
H14 H 0.3286 -0.5800 -0.4539
C18 C 0.4755(7) -0.5892(6) -0.4696(4)
C19 C 0.5592(7) -0.5940(6) -0.4402(4)
H15 H 0.6199 -0.5980 -0.4636
C20 C 0.5516(7) -0.5929(6) -0.3758(4)
H16 H 0.6073 -0.5961 -0.3563
N4 N 0.4604(7) -0.5869(6) -0.3407(4)
Cu2_2 Cu 0.4500(2) -0.58769(13) -1.25166(10)
N1_2 N 0.4607(7) -0.5952(6) -0.1641(4)
Cu3 Cu 1.01032(19) -0.94270(11) -0.51176(10)
O41 O 1.0391(12) -0.9595(7) -0.5960(6)
C21 C 1.0409(11) -1.0178(5) -0.6165(5)
C22 C 1.0610(12) -1.0306(6) -0.6781(5)
H17 H 1.0740 -0.9964 -0.7069
C23 C 1.0618(12) -1.0939(6) -0.6974(5)
H18 H 1.0755 -1.1026 -0.7393
C24 C 1.0426(11) -1.1443(6) -0.6550(5)
H19 H 1.0431 -1.1873 -0.6681
C25 C 1.0225(10) -1.1315(5) -0.5933(5)
N5 N 0.9784(9) -0.9318(5) -0.4260(4)
C26 C 1.0046(9) -1.1822(5) -0.5432(4)
C27 C 1.0078(9) -1.2494(5) -0.5498(5)
H20 H 1.0245 -1.2673 -0.5888
C28 C 0.9866(9) -1.2901(5) -0.4994(5)
H21 H 0.9888 -1.3359 -0.5039
C29 C 0.9622(10) -1.2638(6) -0.4422(5)
C30 C 0.9590(10) -1.1966(5) -0.4355(5)
H22 H 0.9423 -1.1786 -0.3966
N6 N 1.0198(9) -0.8442(5) -0.5140(5)
Cu3A Cu 0.98968(19) -1.05730(11) -0.48824(10)
O41A O 0.9609(12) -1.0405(7) -0.4040(6)
C21A C 0.9591(11) -0.9822(5) -0.3835(5)
C22A C 0.9390(12) -0.9694(6) -0.3219(5)
H17A H 0.9260 -1.0036 -0.2931
C23A C 0.9382(12) -0.9061(6) -0.3026(5)
H18A H 0.9245 -0.8974 -0.2607
C24A C 0.9574(11) -0.8557(6) -0.3450(5)
H19A H 0.9569 -0.8127 -0.3319
C25A C 0.9775(10) -0.8685(5) -0.4067(5)
N5A N 1.0216(9) -1.0682(5) -0.5740(4)
C26A C 0.9954(9) -0.8178(5) -0.4568(4)
C27A C 0.9922(9) -0.7506(5) -0.4502(5)
H20A H 0.9755 -0.7327 -0.4112
C28A C 1.0134(9) -0.7099(5) -0.5006(5)
H21A H 1.0112 -0.6641 -0.4961
C29A C 1.0378(10) -0.7362(6) -0.5578(5)
C30A C 1.0410(10) -0.8034(5) -0.5645(5)
H22A H 1.0577 -0.8214 -0.6034
N6A N 0.9802(9) -1.1558(5) -0.4860(5)
Cu4 Cu 1.2438(2) -0.99731(12) -0.44199(14)
Cu5 Cu 1.2690(2) -1.05778(13) -0.53562(15)
O42 O 1.2941(12) -0.9817(8) -0.5821(8)
O43 O 1.2142(13) -1.0723(7) -0.3954(8)
C31 C 1.2837(11) -0.9213(6) -0.5572(6)
C32 C 1.2942(13) -0.8628(8) -0.5914(7)
H23 H 1.3097 -0.8637 -0.6341
C33 C 1.2820(12) -0.8028(7) -0.5624(8)
H24 H 1.2891 -0.7632 -0.5855
C34 C 1.2591(11) -0.8014(6) -0.4992(7)
H25 H 1.2508 -0.7609 -0.4795
C35 C 1.2486(10) -0.8600(6) -0.4650(6)
N7 N 1.2609(10) -0.9199(6) -0.4940(6)
C36 C 1.2237(11) -0.8657(6) -0.3968(6)
C37 C 1.2055(11) -0.8129(6) -0.3572(7)
H26 H 1.2086 -0.7692 -0.3729
C38 C 1.1825(12) -0.8250(7) -0.2944(7)
H27 H 1.1703 -0.7894 -0.2678
C39 C 1.1778(13) -0.8899(8) -0.2712(7)
H28 H 1.1623 -0.8980 -0.2290
C40 C 1.1960(12) -0.9426(7) -0.3108(6)
H29 H 1.1929 -0.9863 -0.2952
N8 N 1.2190(10) -0.9306(6) -0.3735(6)
C41 C 1.2122(11) -1.1291(6) -0.4211(6)
C42 C 1.1928(13) -1.1854(7) -0.3873(7)
H30 H 1.1770 -1.1840 -0.3446
C43 C 1.1965(12) -1.2438(7) -0.4163(7)
H31 H 1.1832 -1.2821 -0.3933
C44 C 1.2197(12) -1.2458(7) -0.4790(7)
H32 H 1.2222 -1.2856 -0.4987
C45 C 1.2392(11) -1.1895(7) -0.5127(6)
N9 N 1.2354(11) -1.1312(6) -0.4838(6)
C46 C 1.2653(11) -1.1866(7) -0.5786(7)
C47 C 1.2693(12) -1.2376(8) -0.6166(8)
H33 H 1.2570 -1.2792 -0.6002
C48 C 1.2912(14) -1.2279(9) -0.6786(8)
H34 H 1.2939 -1.2629 -0.7047
C49 C 1.3091(14) -1.1672(9) -0.7026(7)
H35 H 1.3241 -1.1606 -0.7451
C50 C 1.3051(13) -1.1162(8) -0.6646(7)
H36 H 1.3174 -1.0746 -0.6811
N10 N 1.2832(10) -1.1259(7) -0.6026(7)
Cu6 Cu 1.5167(2) -1.03519(13) -0.54901(16)
O44 O 1.5531(15) -0.9572(9) -0.5927(9)
C51 C 1.5422(12) -0.8981(7) -0.5691(7)
C52 C 1.5551(14) -0.8428(8) -0.6064(7)
H37 H 1.5727 -0.8473 -0.6487
C53 C 1.5422(14) -0.7812(8) -0.5818(8)
H38 H 1.5510 -0.7434 -0.6073
C54 C 1.5164(14) -0.7746(7) -0.5199(8)
H39 H 1.5076 -0.7325 -0.5031
C55 C 1.5035(12) -0.8299(7) -0.4826(7)
N11 N 1.4836(10) -1.1084(6) -0.4928(7)
C56 C 1.4754(13) -0.8259(8) -0.4157(8)
C57 C 1.4620(15) -0.7690(9) -0.3837(9)
H40 H 1.4696 -0.7281 -0.4044
C58 C 1.4376(16) -0.7715(10) -0.3215(9)
H41 H 1.4285 -0.7324 -0.2995
C59 C 1.4265(15) -0.8310(11) -0.2913(9)
H42 H 1.4098 -0.8327 -0.2486
C60 C 1.4398(14) -0.8880(9) -0.3232(8)
H43 H 1.4322 -0.9288 -0.3025
N12 N 1.5357(12) -1.1146(7) -0.6145(8)
Cu6A Cu 1.4833(2) -0.96481(13) -0.45099(16)
O44A O 1.4469(15) -1.0428(9) -0.4073(9)
C51A C 1.4578(12) -1.1019(7) -0.4309(7)
C52A C 1.4449(14) -1.1572(8) -0.3936(7)
H37A H 1.4273 -1.1527 -0.3513
C53A C 1.4578(14) -1.2188(8) -0.4182(8)
H38A H 1.4490 -1.2566 -0.3927
C54A C 1.4836(14) -1.2254(7) -0.4801(8)
H39A H 1.4924 -1.2675 -0.4969
C55A C 1.4965(12) -1.1701(7) -0.5174(7)
N11A N 1.5164(10) -0.8916(6) -0.5072(7)
C56A C 1.5246(13) -1.1741(8) -0.5843(8)
C57A C 1.5380(15) -1.2310(9) -0.6163(9)
H40A H 1.5304 -1.2719 -0.5956
C58A C 1.5624(16) -1.2285(10) -0.6785(9)
H41A H 1.5715 -1.2676 -0.7005
C59A C 1.5735(15) -1.1690(11) -0.7087(9)
H42A H 1.5902 -1.1673 -0.7514
C60A C 1.5602(14) -1.1120(9) -0.6768(8)
H43A H 1.5678 -1.0712 -0.6975
N12A N 1.4643(12) -0.8854(7) -0.3855(8)
Cu7 Cu 1.00903(19) -0.94250(11) -1.01413(10)
O45 O 1.0225(13) -0.9602(7) -1.0971(6)
C61 C 1.0197(11) -1.0200(5) -1.1165(5)
C62 C 1.0296(12) -1.0339(6) -1.1777(5)
H44 H 1.0385 -1.0002 -1.2081
C63 C 1.0264(11) -1.0974(6) -1.1943(5)
H45 H 1.0331 -1.1068 -1.2360
C64 C 1.0133(11) -1.1469(6) -1.1497(5)
H46 H 1.0111 -1.1901 -1.1610
C65 C 1.0034(10) -1.1330(5) -1.0885(5)
N13 N 0.9934(10) -0.9304(5) -0.9281(4)
C66 C 0.9930(10) -1.1826(5) -1.0364(5)
C67 C 0.9928(11) -1.2493(6) -1.0416(5)
H47 H 1.0012 -1.2670 -1.0806
C68 C 0.9804(11) -1.2900(6) -0.9900(6)
H48 H 0.9803 -1.3356 -0.9936
C69 C 0.9681(11) -1.2640(6) -0.9330(6)
H49 H 0.9595 -1.2918 -0.8977
C70 C 0.9683(10) -1.1973(6) -0.9277(5)
H50 H 0.9600 -1.1796 -0.8887
N14 N 1.0193(9) -0.8434(5) -1.0206(5)
Cu7A Cu 0.99097(19) -1.05750(11) -0.98587(10)
O45A O 0.9775(13) -1.0398(7) -0.9029(6)
C61A C 0.9803(11) -0.9800(5) -0.8835(5)
C62A C 0.9704(12) -0.9661(6) -0.8223(5)
H44A H 0.9615 -0.9998 -0.7919
C63A C 0.9736(11) -0.9026(6) -0.8057(5)
H45A H 0.9669 -0.8932 -0.7640
C64A C 0.9867(11) -0.8531(6) -0.8503(5)
H46A H 0.9889 -0.8099 -0.8390
C65A C 0.9966(10) -0.8670(5) -0.9115(5)
N13A N 1.0066(10) -1.0696(5) -1.0719(4)
C66A C 1.0070(10) -0.8174(5) -0.9636(5)
C67A C 1.0072(11) -0.7507(6) -0.9584(5)
H47A H 0.9988 -0.7330 -0.9194
C68A C 1.0196(11) -0.7100(6) -1.0100(6)
H48A H 1.0197 -0.6644 -1.0064
C69A C 1.0319(11) -0.7360(6) -1.0670(6)
H49A H 1.0405 -0.7082 -1.1023
C70A C 1.0317(10) -0.8027(6) -1.0723(5)
H50A H 1.0400 -0.8204 -1.1113
N14A N 0.9807(9) -1.1566(5) -0.9794(5)
Cu8 Cu 0.7348(2) -0.94450(15) -0.94836(17)
Cu9 Cu 0.7448(2) -1.00225(13) -1.04195(16)
O46 O 0.7657(14) -0.9261(8) -1.0899(8)
O47 O 0.7179(15) -1.0223(9) -0.8998(9)
C71 C 0.7727(12) -0.8702(7) -1.0647(7)
C72 C 0.7867(13) -0.8130(8) -1.0988(7)
H51 H 0.7959 -0.8132 -1.1418
C73 C 0.7870(12) -0.7554(7) -1.0700(7)
H52 H 0.7965 -0.7164 -1.0933
C74 C 0.7735(12) -0.7550(7) -1.0070(7)
H53 H 0.7738 -0.7157 -0.9873
C75 C 0.7596(11) -0.8121(7) -0.9728(7)
N15 N 0.7592(11) -0.8697(6) -1.0017(7)
C76 C 0.7454(13) -0.8175(8) -0.9053(8)
C77 C 0.7457(14) -0.7677(9) -0.8681(10)
H54 H 0.7546 -0.7254 -0.8850
C78 C 0.7332(16) -0.7786(11) -0.8066(10)
H55 H 0.7333 -0.7440 -0.7807
C79 C 0.7204(18) -0.8394(11) -0.7822(9)
H56 H 0.7118 -0.8470 -0.7395
C80 C 0.7201(15) -0.8892(10) -0.8195(9)
H57 H 0.7112 -0.9315 -0.8026
N16 N 0.7326(12) -0.8783(8) -0.8810(8)
C81 C 0.7220(12) -1.0821(8) -0.9254(7)
C82 C 0.7169(13) -1.1421(10) -0.8921(8)
H58 H 0.7089 -1.1431 -0.8491
C83 C 0.7235(13) -1.2006(8) -0.9225(10)
H59 H 0.7200 -1.2412 -0.9000
C84 C 0.7353(13) -1.1991(7) -0.9863(9)
H60 H 0.7398 -1.2387 -1.0068
C85 C 0.7405(12) -1.1392(7) -1.0196(7)
N17 N 0.7338(11) -1.0806(6) -0.9891(7)
C86 C 0.7536(12) -1.1307(7) -1.0871(7)
C87 C 0.7648(13) -1.1825(7) -1.1264(9)
H61 H 0.7638 -1.2263 -1.1104
C88 C 0.7775(13) -1.1696(8) -1.1891(9)
H62 H 0.7851 -1.2047 -1.2157
C89 C 0.7790(14) -1.1050(9) -1.2125(8)
H63 H 0.7876 -1.0963 -1.2551
C90 C 0.7678(13) -1.0533(8) -1.1733(7)
H64 H 0.7688 -1.0094 -1.1892
N18 N 0.7551(11) -1.0662(7) -1.1106(7)
Cu10 Cu 0.4957(3) -0.96693(17) -0.9515(3)
O48 O 0.4684(18) -1.0464(12) -0.9055(16)
C91 C 0.4717(19) -1.1051(10) -0.9311(11)
C92 C 0.463(2) -1.1606(12) -0.8939(11)
H65 H 0.4524 -1.1572 -0.8511
C93 C 0.4689(19) -1.2209(12) -0.9188(12)
H66 H 0.4628 -1.2590 -0.8932
C94 C 0.4840(19) -1.2258(11) -0.9810(11)
H67 H 0.4882 -1.2673 -0.9981
C95 C 0.4930(18) -1.1703(12) -1.0181(9)
N19 N 0.5132(16) -0.8900(10) -1.0068(10)
C96 C 0.5078(18) -1.1691(14) -1.0844(11)
C97 C 0.520(2) -1.2258(13) -1.1152(14)
H68 H 0.5174 -1.2670 -1.0935
C98 C 0.534(2) -1.2232(15) -1.1771(15)
H69 H 0.5425 -1.2626 -1.1985
C99 C 0.537(2) -1.1639(18) -1.2083(13)
H70 H 0.5477 -1.1622 -1.2513
C100 C 0.526(2) -1.1072(14) -1.1775(15)
H71 H 0.5278 -1.0660 -1.1992
N20 N 0.4892(15) -0.8902(11) -0.8844(15)
Cu10A Cu 0.5043(3) -1.03307(17) -1.0485(3)
O48A O 0.5316(18) -0.9536(12) -1.0945(16)
C91A C 0.5283(19) -0.8949(10) -1.0689(11)
C92A C 0.537(2) -0.8394(12) -1.1061(11)
H65A H 0.5476 -0.8428 -1.1489
C93A C 0.5311(19) -0.7791(12) -1.0812(12)
H66A H 0.5372 -0.7410 -1.1068
C94A C 0.5160(19) -0.7742(11) -1.0190(11)
H67A H 0.5118 -0.7327 -1.0019
C95A C 0.5070(18) -0.8297(12) -0.9819(9)
N19A N 0.4868(16) -1.1100(10) -0.9932(10)
C96A C 0.4922(18) -0.8309(14) -0.9156(11)
C97A C 0.480(2) -0.7742(13) -0.8848(14)
H68A H 0.4826 -0.7330 -0.9065
C98A C 0.466(2) -0.7768(15) -0.8229(15)
H69A H 0.4575 -0.7374 -0.8015
C99A C 0.463(2) -0.8361(18) -0.7917(13)
H70A H 0.4523 -0.8378 -0.7487
C100A C 0.474(2) -0.8928(14) -0.8225(15)
H71A H 0.4722 -0.9340 -0.8008
N20A N 0.5108(15) -1.1098(11) -1.1156(15)
O49 O 0.7910(12) -0.6177(8) -0.4261(8)
O50 O 0.8168(13) -0.6276(8) -0.9297(8)
loop_
_geom_bond_atom_site_label_1
_geom_bond_atom_site_label_2
_geom_bond_site_symmetry_1
_geom_bond_site_symmetry_2
P1 O2 1_555 1_555
W1 O3 1_555 1_555
W2 O9 1_555 1_555
W3 O3 1_555 1_555
W4 O1 1_555 1_555
W5 O2 1_555 1_555
W6 O2 1_555 1_555
W7 O5 1_555 1_555
W8 O5 1_555 1_555
W9 O1 1_555 1_555
W10 O7 1_555 1_555
W11 O8 1_555 1_555
W12 O7 1_555 1_555
Cu1 N2 1_555 1_555
Cu2 N4 1_555 1_555
Cu3 O41 1_555 1_555
Cu4 Cu5 1_555 1_555
Cu5 O42 1_555 1_555
Cu6 O44 1_555 1_555
Cu7 O45 1_555 1_555
Cu8 Cu9 1_555 1_555
Cu9 O46 1_555 1_555
Cu10 O48 1_555 1_555
O2 W4 1_555 1_555
O4 W4 1_555 1_555
O6 W5 1_555 1_555
O8 W7 1_555 1_555
O9 P1 1_555 1_555
O10 W2 1_555 1_555
O11 W10 1_555 1_555
O12 W11 1_555 1_555
O13 P1 1_555 1_555
O14 W5 1_555 1_555
O15 P1 1_555 1_555
O16 W1 1_555 1_555
O17 W2 1_555 1_555
O18 W7 1_555 1_555
O19 W6 1_555 1_555
O20 W10 1_555 1_555
O21 W2 1_555 1_555
O22 W11 1_555 1_555
O23 W8 1_555 1_555
O24 W6 1_555 1_555
O25 W8 1_555 1_555
O26 W5 1_555 1_555
O27 W2 1_555 1_555
O28 W4 1_555 1_555
O29 W4 1_555 1_555
O30 W3 1_555 1_555
O31 W5 1_555 1_555
O32 W8 1_555 1_555
O33 W1 1_555 1_555
O34 W1 1_555 1_555
O35 W3 1_555 1_555
O36 W1 1_555 1_555
O37 W3 1_555 1_555
O38 W7 1_555 1_555
O39 W12 1_555 1_555
O40 W9 1_555 1_555
O41 C21 1_555 1_555
O42 C31 1_555 1_555
O43 Cu4 1_555 1_555
O44 C51 1_555 1_555
O45 C61 1_555 1_555
O46 C71 1_555 1_555
O47 Cu8 1_555 1_555
O48 C91 1_555 1_555
C1 H1 1_555 1_555
C2 C1 1_555 1_555
H2 C2 1_555 1_555
C3 C2 1_555 1_555
C4 C3 1_555 1_555
H3 C4 1_555 1_555
C5 C4 1_555 1_555
H4 C5 1_555 1_555
N1 C1 1_555 1_555
C6 H5 1_555 1_555
C7 C6 1_555 1_555
H6 C7 1_555 1_555
C8 C3 1_555 1_555
C9 C8 1_555 1_555
H7 C9 1_555 1_555
C10 C9 1_555 1_555
H8 C10 1_555 1_555
N2 C6 1_555 1_555
C11 H9 1_555 1_555
C12 C11 1_555 1_555
H10 C12 1_555 1_555
C13 C12 1_555 1_555
C14 C13 1_555 1_555
H11 C14 1_555 1_555
C15 C14 1_555 1_555
H12 C15 1_555 1_555
N3 Cu1 1_555 1_555
C16 H13 1_555 1_555
C17 C16 1_555 1_555
H14 C17 1_555 1_555
C18 C13 1_555 1_555
C19 C18 1_555 1_555
H15 C19 1_555 1_555
C20 C19 1_555 1_555
H16 C20 1_555 1_555
N4 C16 1_555 1_555
C21 C22 1_555 1_555
C22 H17 1_555 1_555
C23 C22 1_555 1_555
H18 C23 1_555 1_555
C24 C23 1_555 1_555
H19 C24 1_555 1_555
C25 C24 1_555 1_555
N5 Cu3 1_555 1_555
C26 C25 1_555 1_555
C27 C26 1_555 1_555
H20 C27 1_555 1_555
C28 C27 1_555 1_555
H21 C28 1_555 1_555
C29 C28 1_555 1_555
C30 C29 1_555 1_555
H22 C30 1_555 1_555
N6 Cu3 1_555 1_555
C31 C32 1_555 1_555
C32 H23 1_555 1_555
C33 C32 1_555 1_555
H24 C33 1_555 1_555
C34 C33 1_555 1_555
H25 C34 1_555 1_555
C35 C34 1_555 1_555
N7 Cu4 1_555 1_555
C36 C35 1_555 1_555
C37 C36 1_555 1_555
H26 C37 1_555 1_555
C38 C37 1_555 1_555
H27 C38 1_555 1_555
C39 C38 1_555 1_555
H28 C39 1_555 1_555
C40 C39 1_555 1_555
H29 C40 1_555 1_555
N8 Cu4 1_555 1_555
C41 O43 1_555 1_555
C42 C41 1_555 1_555
H30 C42 1_555 1_555
C43 C42 1_555 1_555
H31 C43 1_555 1_555
C44 C43 1_555 1_555
H32 C44 1_555 1_555
C45 C44 1_555 1_555
N9 Cu5 1_555 1_555
C46 C45 1_555 1_555
C47 C46 1_555 1_555
H33 C47 1_555 1_555
C48 C47 1_555 1_555
H34 C48 1_555 1_555
C49 C48 1_555 1_555
H35 C49 1_555 1_555
C50 C49 1_555 1_555
H36 C50 1_555 1_555
N10 Cu5 1_555 1_555
C51 C52 1_555 1_555
C52 H37 1_555 1_555
C53 C52 1_555 1_555
H38 C53 1_555 1_555
C54 C53 1_555 1_555
H39 C54 1_555 1_555
C55 C54 1_555 1_555
N11 Cu6 1_555 1_555
C56 C55 1_555 1_555
C57 C56 1_555 1_555
H40 C57 1_555 1_555
C58 C57 1_555 1_555
H41 C58 1_555 1_555
C59 C58 1_555 1_555
H42 C59 1_555 1_555
C60 C59 1_555 1_555
H43 C60 1_555 1_555
N12 Cu6 1_555 1_555
C61 C62 1_555 1_555
C62 H44 1_555 1_555
C63 C62 1_555 1_555
H45 C63 1_555 1_555
C64 C63 1_555 1_555
H46 C64 1_555 1_555
C65 C64 1_555 1_555
N13 Cu7 1_555 1_555
C66 C65 1_555 1_555
C67 C66 1_555 1_555
H47 C67 1_555 1_555
C68 C67 1_555 1_555
H48 C68 1_555 1_555
C69 C68 1_555 1_555
H49 C69 1_555 1_555
C70 C69 1_555 1_555
H50 C70 1_555 1_555
N14 Cu7 1_555 1_555
C71 C72 1_555 1_555
C72 H51 1_555 1_555
C73 C72 1_555 1_555
H52 C73 1_555 1_555
C74 C73 1_555 1_555
H53 C74 1_555 1_555
C75 C74 1_555 1_555
N15 Cu8 1_555 1_555
C76 C75 1_555 1_555
C77 C76 1_555 1_555
H54 C77 1_555 1_555
C78 C77 1_555 1_555
H55 C78 1_555 1_555
C79 C78 1_555 1_555
H56 C79 1_555 1_555
C80 C79 1_555 1_555
H57 C80 1_555 1_555
N16 Cu8 1_555 1_555
C81 O47 1_555 1_555
C82 C81 1_555 1_555
H58 C82 1_555 1_555
C83 C82 1_555 1_555
H59 C83 1_555 1_555
C84 C83 1_555 1_555
H60 C84 1_555 1_555
C85 C84 1_555 1_555
N17 Cu9 1_555 1_555
C86 C85 1_555 1_555
C87 C86 1_555 1_555
H61 C87 1_555 1_555
C88 C87 1_555 1_555
H62 C88 1_555 1_555
C89 C88 1_555 1_555
H63 C89 1_555 1_555
C90 C89 1_555 1_555
H64 C90 1_555 1_555
N18 Cu9 1_555 1_555
C91 C92 1_555 1_555
C92 H65 1_555 1_555
C93 C92 1_555 1_555
H66 C93 1_555 1_555
C94 C93 1_555 1_555
H67 C94 1_555 1_555
C95 C94 1_555 1_555
N19 Cu10 1_555 1_555
C96 C95 1_555 1_555
C97 C96 1_555 1_555
H68 C97 1_555 1_555
C98 C97 1_555 1_555
H69 C98 1_555 1_555
C99 C98 1_555 1_555
H70 C99 1_555 1_555
C100 C99 1_555 1_555
H71 C100 1_555 1_555
N20 Cu10 1_555 1_555
Cu2_2 N1 1_555 1_555
Cu3A Cu3 1_555 1_555
Cu6A Cu6 1_555 1_555
Cu7A Cu7 1_555 1_555
Cu10A Cu10 1_555 1_555
O41A Cu3A 1_555 1_555
O44A Cu6A 1_555 1_555
O45A Cu7A 1_555 1_555
O48A Cu10A 1_555 1_555
N1_2 Cu2 1_555 1_555
C21A N5 1_555 1_555
C22A C21A 1_555 1_555
H17A C22A 1_555 1_555
C23A C22A 1_555 1_555
H18A C23A 1_555 1_555
C24A C23A 1_555 1_555
H19A C24A 1_555 1_555
C25A N5 1_555 1_555
N5A C21 1_555 1_555
C26A N6 1_555 1_555
C27A C26A 1_555 1_555
H20A C27A 1_555 1_555
C28A C27A 1_555 1_555
H21A C28A 1_555 1_555
C29A C28A 1_555 1_555
C30A N6 1_555 1_555
H22A C30A 1_555 1_555
N6A C26 1_555 1_555
C51A N11 1_555 1_555
C52A C51A 1_555 1_555
H37A C52A 1_555 1_555
C53A C52A 1_555 1_555
H38A C53A 1_555 1_555
C54A C53A 1_555 1_555
H39A C54A 1_555 1_555
C55A N11 1_555 1_555
N11A C51 1_555 1_555
C56A N12 1_555 1_555
C57A C56A 1_555 1_555
H40A C57A 1_555 1_555
C58A C57A 1_555 1_555
H41A C58A 1_555 1_555
C59A C58A 1_555 1_555
H42A C59A 1_555 1_555
C60A N12 1_555 1_555
H43A C60A 1_555 1_555
N12A C56 1_555 1_555
C61A N13 1_555 1_555
C62A C61A 1_555 1_555
H44A C62A 1_555 1_555
C63A C62A 1_555 1_555
H45A C63A 1_555 1_555
C64A C63A 1_555 1_555
H46A C64A 1_555 1_555
C65A N13 1_555 1_555
N13A C61 1_555 1_555
C66A N14 1_555 1_555
C67A C66A 1_555 1_555
H47A C67A 1_555 1_555
C68A C67A 1_555 1_555
H48A C68A 1_555 1_555
C69A C68A 1_555 1_555
H49A C69A 1_555 1_555
C70A N14 1_555 1_555
H50A C70A 1_555 1_555
N14A C66 1_555 1_555
C91A N19 1_555 1_555
C92A C91A 1_555 1_555
H65A C92A 1_555 1_555
C93A C92A 1_555 1_555
H66A C93A 1_555 1_555
C94A C93A 1_555 1_555
H67A C94A 1_555 1_555
C95A N19 1_555 1_555
N19A C91 1_555 1_555
C96A N20 1_555 1_555
C97A C96A 1_555 1_555
H68A C97A 1_555 1_555
C98A C97A 1_555 1_555
H69A C98A 1_555 1_555
C99A C98A 1_555 1_555
H70A C99A 1_555 1_555
C100A N20 1_555 1_555
H71A C100A 1_555 1_555
N20A C96 1_555 1_555
W1 O9 1_555 1_555
W2 O16 1_555 1_555
W3 O9 1_555 1_555
W3 O27 1_555 1_555
W4 O17 1_555 1_555
W5 O4 1_555 1_555
W6 O6 1_555 1_555
W6 O29 1_555 1_555
W6 O36 1_555 1_555
W7 O15 1_555 1_555
W7 O31 1_555 1_555
W8 O15 1_555 1_555
W8 O37 1_555 1_555
W9 O10 1_555 1_555
W9 O15 1_555 1_555
W9 O32 1_555 1_555
W9 O38 1_555 1_555
W10 O13 1_555 1_555
W10 O25 1_555 1_555
W10 O30 1_555 1_555
W11 O11 1_555 1_555
W11 O13 1_555 1_555
W11 O14 1_555 1_555
W12 O12 1_555 1_555
W12 O13 1_555 1_555
W12 O19 1_555 1_555
W12 O34 1_555 1_555
C5 N1 1_555 1_555
C7 C8 1_555 1_555
C10 N2 1_555 1_555
C11 N3 1_555 1_555
C15 N3 1_555 1_555
C17 C18 1_555 1_555
C20 N4 1_555 1_555
C25 N5A 1_555 1_555
C30 N6A 1_555 1_555
C31 N7 1_555 1_555
C35 N7 1_555 1_555
C36 N8 1_555 1_555
C40 N8 1_555 1_555
C41 N9 1_555 1_555
C45 N9 1_555 1_555
C46 N10 1_555 1_555
C50 N10 1_555 1_555
C55 N11A 1_555 1_555
C60 N12A 1_555 1_555
C65 N13A 1_555 1_555
C70 N14A 1_555 1_555
C71 N15 1_555 1_555
C75 N15 1_555 1_555
C76 N16 1_555 1_555
C80 N16 1_555 1_555
C81 N17 1_555 1_555
C85 N17 1_555 1_555
C86 N18 1_555 1_555
C90 N18 1_555 1_555
C95 N19A 1_555 1_555
C100 N20A 1_555 1_555
Cu3A N5A 1_555 1_555
Cu3A N6A 1_555 1_555
Cu6A N11A 1_555 1_555
Cu6A N12A 1_555 1_555
Cu7A N13A 1_555 1_555
Cu7A N14A 1_555 1_555
Cu10A N19A 1_555 1_555
Cu10A N20A 1_555 1_555
O41A C21A 1_555 1_555
O44A C51A 1_555 1_555
O45A C61A 1_555 1_555
O48A C91A 1_555 1_555
C24A C25A 1_555 1_555
C25A C26A 1_555 1_555
C29A C30A 1_555 1_555
C54A C55A 1_555 1_555
C55A C56A 1_555 1_555
C59A C60A 1_555 1_555
C64A C65A 1_555 1_555
C65A C66A 1_555 1_555
C69A C70A 1_555 1_555
C94A C95A 1_555 1_555
C95A C96A 1_555 1_555
C99A C100A 1_555 1_555

#END
