
#######################################################################
#
#                 Cambridge Crystallographic Data Centre
#                                CCDC 
#
#######################################################################
#
# If this CIF has been generated from an entry in the Cambridge 
# Structural Database, then it will include bibliographic, chemical, 
# crystal, experimental, refinement or atomic coordinate data resulting 
# from the CCDC's data processing and validation procedures.
#
#######################################################################

data_WUJJUH
_symmetry_cell_setting           triclinic
_symmetry_space_group_name_H-M   'P -1'
_symmetry_Int_Tables_number      2
_space_group_name_Hall           '-P 1'
loop_
_symmetry_equiv_pos_site_id
_symmetry_equiv_pos_as_xyz
1 x,y,z
2 -x,-y,-z
_cell_length_a                   4.0410(19)
_cell_length_b                   15.523(7)
_cell_length_c                   20.032(8)
_cell_angle_alpha                73.949(10)
_cell_angle_beta                 86.989(10)
_cell_angle_gamma                86.287(9)
_cell_volume                     1204.27
loop_
_atom_site_label
_atom_site_type_symbol
_atom_site_fract_x
_atom_site_fract_y
_atom_site_fract_z
I1 I 0.77825(8) 0.83536(2) 0.060465(18)
I2 I 1.38231(8) 0.67710(2) -0.066190(18)
Cu1 Cu 0.84739(17) 0.78313(4) -0.05559(4)
Cu2 Cu 0.31584(17) 0.73166(4) 0.04884(4)
N1 N 0.8938(10) 0.8966(3) -0.1360(2)
N2 N 0.2809(11) 0.6153(3) 0.1269(2)
C1 C 0.7669(13) 0.9766(4) -0.1315(3)
H1 H 0.6336 0.9786 -0.0926
C2 C 0.8222(13) 1.0563(3) -0.1810(3)
H2 H 0.7269 1.1098 -0.1748
C3 C 1.0177(12) 1.0572(3) -0.2397(3)
C4 C 1.1405(14) 0.9736(3) -0.2456(3)
H3 H 1.2680 0.9694 -0.2847
C5 C 1.0736(14) 0.8975(4) -0.1938(3)
H4 H 1.1595 0.8428 -0.1995
C6 C 1.1043(13) 1.1425(3) -0.2912(3)
C7 C 1.0712(15) 1.2232(4) -0.2742(3)
H5 H 0.9891 1.2237 -0.2301
C8 C 1.1564(16) 1.3031(4) -0.3208(3)
H6 H 1.1294 1.3566 -0.3082
C9 C 1.2834(14) 1.3028(3) -0.3868(3)
C10 C 1.3235(16) 1.2229(4) -0.4043(3)
H7 H 1.4121 1.2222 -0.4480
C11 C 1.2328(16) 1.1438(4) -0.3573(3)
H8 H 1.2582 1.0905 -0.3701
C12 C 1.3782(16) 1.3889(4) -0.4365(3)
C13 C 0.3737(14) 0.6063(3) 0.1920(3)
H9 H 0.4615 0.6553 0.2016
C14 C 0.3465(14) 0.5282(4) 0.2457(3)
H10 H 0.4160 0.5252 0.2898
C15 C 0.2140(12) 0.4546(3) 0.2325(3)
C16 C 0.1154(13) 0.4643(3) 0.1656(3)
H11 H 0.0258 0.4165 0.1545
C17 C 0.1492(13) 0.5439(3) 0.1157(3)
H12 H 0.0765 0.5487 0.0715
C18 C 0.1838(14) 0.3676(3) 0.2863(3)
C19 C 0.2699(15) 0.2879(4) 0.2698(3)
H13 H 0.3518 0.2899 0.2252
C20 C 0.2375(16) 0.2064(4) 0.3176(3)
H14 H 0.2987 0.1537 0.3056
C21 C 0.1129(15) 0.2027(4) 0.3842(3)
C22 C 0.0223(16) 0.2821(4) 0.4015(3)
H15 H -0.0666 0.2800 0.4456
C23 C 0.0638(15) 0.3638(4) 0.3533(3)
H16 H 0.0113 0.4167 0.3658
C24 C 0.0658(16) 0.1139(4) 0.4351(3)
O1 O 1.5025(14) 1.3857(3) -0.4955(2)
O2 O 1.3387(14) 1.4593(3) -0.4186(2)
H17 H 1.3990 1.5015 -0.4507
O3 O -0.0871(14) 0.1127(3) 0.4921(2)
H18 H -0.1003 0.0606 0.5158
O4 O 0.1713(14) 0.0441(3) 0.4190(2)
I1_2 I -0.22175(8) 0.83536(2) 0.060465(18)
I2_2 I 0.38231(8) 0.67710(2) -0.066190(18)
Cu1_2 Cu 1.84739(17) 0.78313(4) -0.05559(4)
Cu2_2 Cu 1.31584(17) 0.73166(4) 0.04884(4)
loop_
_geom_bond_atom_site_label_1
_geom_bond_atom_site_label_2
_geom_bond_site_symmetry_1
_geom_bond_site_symmetry_2
I1 Cu1 1_555 1_555
I2 Cu1 1_555 1_555
Cu1 N1 1_555 1_555
Cu2 I1 1_555 1_555
N1 C1 1_555 1_555
N2 Cu2 1_555 1_555
C1 H1 1_555 1_555
C2 C1 1_555 1_555
H2 C2 1_555 1_555
C3 C2 1_555 1_555
C4 C3 1_555 1_555
H3 C4 1_555 1_555
C5 N1 1_555 1_555
H4 C5 1_555 1_555
C6 C3 1_555 1_555
C7 C6 1_555 1_555
H5 C7 1_555 1_555
C8 C7 1_555 1_555
H6 C8 1_555 1_555
C9 C8 1_555 1_555
C10 C9 1_555 1_555
H7 C10 1_555 1_555
C11 C6 1_555 1_555
H8 C11 1_555 1_555
C12 C9 1_555 1_555
C13 N2 1_555 1_555
H9 C13 1_555 1_555
C14 C13 1_555 1_555
H10 C14 1_555 1_555
C15 C14 1_555 1_555
C16 C15 1_555 1_555
H11 C16 1_555 1_555
C17 N2 1_555 1_555
H12 C17 1_555 1_555
C18 C15 1_555 1_555
C19 C18 1_555 1_555
H13 C19 1_555 1_555
C20 C19 1_555 1_555
H14 C20 1_555 1_555
C21 C20 1_555 1_555
C22 C21 1_555 1_555
H15 C22 1_555 1_555
C23 C18 1_555 1_555
H16 C23 1_555 1_555
C24 C21 1_555 1_555
O1 C12 1_555 1_555
O2 C12 1_555 1_555
H17 O2 1_555 1_555
O3 C24 1_555 1_555
H18 O3 1_555 1_555
O4 C24 1_555 1_555
I1_2 Cu2 1_555 1_555
I2_2 Cu1 1_555 1_555
Cu1_2 I2 1_555 1_555
Cu2_2 I1 1_555 1_555
I2 Cu2_2 1_555 1_555
Cu2 I2_2 1_555 1_555
C4 C5 1_555 1_555
C10 C11 1_555 1_555
C16 C17 1_555 1_555
C22 C23 1_555 1_555

#END
