
#######################################################################
#
#                 Cambridge Crystallographic Data Centre
#                                CCDC 
#
#######################################################################
#
# If this CIF has been generated from an entry in the Cambridge 
# Structural Database, then it will include bibliographic, chemical, 
# crystal, experimental, refinement or atomic coordinate data resulting 
# from the CCDC's data processing and validation procedures.
#
#######################################################################

data_WUJKOC01
_symmetry_cell_setting           monoclinic
_symmetry_space_group_name_H-M   'P 21/c'
_symmetry_Int_Tables_number      14
_space_group_name_Hall           '-P 2ybc'
loop_
_symmetry_equiv_pos_site_id
_symmetry_equiv_pos_as_xyz
1 x,y,z
2 -x,1/2+y,1/2-z
3 -x,-y,-z
4 x,1/2-y,1/2+z
_cell_length_a                   17.604(6)
_cell_length_b                   14.926(5)
_cell_length_c                   16.292(6)
_cell_angle_alpha                90
_cell_angle_beta                 105.311(5)
_cell_angle_gamma                90
_cell_volume                     4128.9
loop_
_atom_site_label
_atom_site_type_symbol
_atom_site_fract_x
_atom_site_fract_y
_atom_site_fract_z
Pb1 Pb 0.240692(17) 0.233584(19) 0.226104(17)
Pb2 Pb 0.238470(17) 0.244362(18) 0.477074(18)
I1 I 0.31648(4) 0.09521(4) 0.10967(4)
I2 I 0.32834(3) 0.38259(3) 0.13617(3)
I3 I 0.09065(3) 0.24928(4) 0.06161(4)
I4 I 0.16689(3) 0.08819(4) 0.33723(4)
I5 I 0.16276(3) 0.37781(3) 0.31776(3)
I6 I 0.38572(3) 0.23693(3) 0.39637(3)
Pb2C Pb 0.238470(17) 0.255638(18) -0.022926(18)
I1C I 0.31648(4) 0.40479(4) 0.60967(4)
I2C I 0.32834(3) 0.11741(3) 0.63617(3)
I3C I 0.09065(3) 0.25072(4) 0.56161(4)
Cu1 Cu 0.75060(5) 0.26115(5) 0.55573(6)
C1 C 0.6775(5) 0.4379(5) 0.5943(5)
H1 H 0.7255 0.4648 0.5959
C2 C 0.6171(5) 0.4904(5) 0.6032(6)
H2 H 0.6245 0.5517 0.6120
C3 C 0.5444(5) 0.4526(5) 0.5994(5)
H3 H 0.5029 0.4882 0.6054
C4 C 0.5341(4) 0.3599(5) 0.5862(4)
H4 H 0.4854 0.3331 0.5814
C5 C 0.5999(4) 0.3085(5) 0.5805(4)
C6 C 0.5998(4) 0.2094(5) 0.5761(4)
C7 C 0.5405(4) 0.1565(5) 0.5882(5)
H5 H 0.4949 0.1830 0.5955
C8 C 0.5467(5) 0.0652(5) 0.5897(5)
H6 H 0.5088 0.0286 0.6030
C9 C 0.6147(5) 0.0295(5) 0.5697(6)
H7 H 0.6210 -0.0322 0.5671
C10 C 0.6708(5) 0.0855(5) 0.5544(6)
H8 H 0.7147 0.0610 0.5412
C11 C 0.6165(6) 0.3347(6) 0.3670(6)
H9 H 0.6151 0.3936 0.3853
C12 C 0.5502(5) 0.3020(6) 0.3113(5)
H10 H 0.5055 0.3371 0.2915
C13 C 0.5532(6) 0.2153(7) 0.2862(6)
H11 H 0.5083 0.1889 0.2514
C14 C 0.6218(5) 0.1661(7) 0.3115(5)
H12 H 0.6249 0.1089 0.2900
C15 C 0.6875(4) 0.2047(5) 0.3712(5)
C16 C 0.7635(4) 0.1568(5) 0.4039(5)
C17 C 0.7924(5) 0.0949(5) 0.3564(6)
H13 H 0.7639 0.0817 0.3011
C18 C 0.8630(6) 0.0533(6) 0.3911(7)
H14 H 0.8825 0.0105 0.3604
C19 C 0.9046(6) 0.0767(6) 0.4730(7)
H15 H 0.9537 0.0518 0.4978
C20 C 0.8716(5) 0.1373(6) 0.5164(6)
H16 H 0.8990 0.1515 0.5719
C21 C 0.8361(5) 0.4130(5) 0.5098(6)
H17 H 0.7954 0.4115 0.4601
C22 C 0.8924(5) 0.4782(6) 0.5195(7)
H18 H 0.8887 0.5228 0.4788
C23 C 0.9569(6) 0.4759(6) 0.5939(7)
H19 H 0.9968 0.5185 0.6024
C24 C 0.9588(5) 0.4089(7) 0.6531(7)
H20 H 1.0019 0.4040 0.7003
C25 C 0.8973(4) 0.3492(6) 0.6426(6)
C26 C 0.8904(5) 0.2780(6) 0.7060(6)
C27 C 0.9472(8) 0.2682(7) 0.7822(8)
H21 H 0.9893 0.3079 0.7966
C28 C 0.9422(7) 0.2078(10) 0.8300(9)
H22 H 0.9838 0.1970 0.8776
C29 C 0.8728(7) 0.1525(8) 0.8146(6)
H23 H 0.8654 0.1109 0.8542
C30 C 0.8177(7) 0.1649(7) 0.7372(6)
H24 H 0.7737 0.1279 0.7222
N1 N 0.6707(3) 0.3488(3) 0.5831(4)
N2 N 0.6645(4) 0.1742(3) 0.5577(4)
N3 N 0.6834(4) 0.2886(4) 0.3975(5)
N4 N 0.8019(3) 0.1776(4) 0.4833(4)
N5 N 0.8380(4) 0.3510(4) 0.5701(4)
N6 N 0.8269(4) 0.2287(5) 0.6843(5)
loop_
_geom_bond_atom_site_label_1
_geom_bond_atom_site_label_2
_geom_bond_site_symmetry_1
_geom_bond_site_symmetry_2
Pb1 I1 1_555 1_555
Pb2 I4 1_555 1_555
I1 Pb2C 1_555 1_555
I2 Pb1 1_555 1_555
I3 Pb1 1_555 1_555
I4 Pb1 1_555 1_555
I5 Pb1 1_555 1_555
I6 Pb1 1_555 1_555
Cu1 N1 1_555 1_555
C1 H1 1_555 1_555
C2 C1 1_555 1_555
H2 C2 1_555 1_555
C3 C2 1_555 1_555
H3 C3 1_555 1_555
C4 C3 1_555 1_555
H4 C4 1_555 1_555
C5 C4 1_555 1_555
C6 C5 1_555 1_555
C7 C6 1_555 1_555
H5 C7 1_555 1_555
C8 C7 1_555 1_555
H6 C8 1_555 1_555
C9 C8 1_555 1_555
H7 C9 1_555 1_555
C10 C9 1_555 1_555
H8 C10 1_555 1_555
C11 H9 1_555 1_555
C12 C11 1_555 1_555
H10 C12 1_555 1_555
C13 C12 1_555 1_555
H11 C13 1_555 1_555
C14 C13 1_555 1_555
H12 C14 1_555 1_555
C15 C14 1_555 1_555
C16 C15 1_555 1_555
C17 C16 1_555 1_555
H13 C17 1_555 1_555
C18 C17 1_555 1_555
H14 C18 1_555 1_555
C19 C18 1_555 1_555
H15 C19 1_555 1_555
C20 C19 1_555 1_555
H16 C20 1_555 1_555
C21 H17 1_555 1_555
C22 C21 1_555 1_555
H18 C22 1_555 1_555
C23 C22 1_555 1_555
H19 C23 1_555 1_555
C24 C23 1_555 1_555
H20 C24 1_555 1_555
C25 C24 1_555 1_555
C26 C25 1_555 1_555
C27 C26 1_555 1_555
H21 C27 1_555 1_555
C28 C27 1_555 1_555
H22 C28 1_555 1_555
C29 C28 1_555 1_555
H23 C29 1_555 1_555
C30 C29 1_555 1_555
H24 C30 1_555 1_555
N1 C1 1_555 1_555
N2 Cu1 1_555 1_555
N3 Cu1 1_555 1_555
N4 Cu1 1_555 1_555
N5 Cu1 1_555 1_555
N6 Cu1 1_555 1_555
Pb2C I2 1_555 1_555
I1C Pb2 1_555 1_555
I2C Pb2 1_555 1_555
I3C Pb2 1_555 1_555
Pb2 I5 1_555 1_555
Pb2 I6 1_555 1_555
I3 Pb2C 1_555 1_555
C5 N1 1_555 1_555
C6 N2 1_555 1_555
C10 N2 1_555 1_555
C11 N3 1_555 1_555
C15 N3 1_555 1_555
C16 N4 1_555 1_555
C20 N4 1_555 1_555
C21 N5 1_555 1_555
C25 N5 1_555 1_555
C26 N6 1_555 1_555
C30 N6 1_555 1_555

#END
