
#######################################################################
#
#                 Cambridge Crystallographic Data Centre
#                                CCDC 
#
#######################################################################
#
# If this CIF has been generated from an entry in the Cambridge 
# Structural Database, then it will include bibliographic, chemical, 
# crystal, experimental, refinement or atomic coordinate data resulting 
# from the CCDC's data processing and validation procedures.
#
#######################################################################

data_WUJKUI
_symmetry_cell_setting           trigonal
_symmetry_space_group_name_H-M   'P 32 2 1'
_symmetry_Int_Tables_number      154
_space_group_name_Hall           'P 32 2"'
loop_
_symmetry_equiv_pos_site_id
_symmetry_equiv_pos_as_xyz
1 x,y,z
2 -y,x-y,2/3+z
3 -x+y,-x,1/3+z
4 x-y,-y,1/3-z
5 -x,-x+y,2/3-z
6 y,x,-z
_cell_length_a                   13.4931(19)
_cell_length_b                   13.4931(19)
_cell_length_c                   14.135(3)
_cell_angle_alpha                90
_cell_angle_beta                 90
_cell_angle_gamma                120
_cell_volume                     2228.69
loop_
_atom_site_label
_atom_site_type_symbol
_atom_site_fract_x
_atom_site_fract_y
_atom_site_fract_z
Eu1 Eu 0.41229(3) 0.11931(3) 0.39722(2)
Eu2 Eu 0.45950(4) 0.45950(4) 0.5000
N1 N 0.2525(6) 0.1623(6) 0.4765(5)
N2 N 0.5306(6) 0.2369(6) 0.5460(4)
N3 N 0.2629(7) 0.2629(7) 0.5000
N4 N 0.6066(6) 0.3783(5) 0.6483(4)
N5 N 0.5140(6) 0.4793(6) 0.2575(4)
N6 N 0.4731(6) 0.4012(5) 0.3260(4)
N7 N 0.5402(6) 0.3358(6) 0.5724(4)
N8 N 0.7222(9) 0.7031(7) 0.5735(6)
N9 N 0.4365(6) 0.2963(5) 0.2922(4)
N10 N 0.6580(7) 0.6580 0.5000
N11 N 0.1586(14) -0.1797(12) 0.4743(9)
H1 H 0.1244 -0.2179 0.4226
C1 C 0.5936(8) 0.2153(7) 0.6073(6)
H2 H 0.6036 0.1504 0.6067
C2 C 0.4555(8) 0.3087(7) 0.1974(5)
H3 H 0.4380 0.2487 0.1536
C3 C 0.6410(8) 0.3042(7) 0.6712(6)
H4 H 0.6897 0.3115 0.7226
C4 C 0.5038(8) 0.4218(8) 0.1762(5)
H5 H 0.5265 0.4547 0.1150
C5 C 0.1286(11) -0.2182(8) 0.5651(8)
H6 H 0.0676 -0.2897 0.5861
C6 C 0.8110(9) 0.7990(10) 0.5468(6)
H7 H 0.8726 0.8508 0.5858
C7 C 0.2048(9) -0.1320(7) 0.6168(9)
H8 H 0.2076 -0.1332 0.6839
C8 C 0.1408(8) 0.0859(8) 0.4846(9)
H9 H 0.1058 0.0065 0.4710
N12 N 0.2480(13) -0.0749(11) 0.4778(13)
N13 N 0.2759(10) -0.0450(10) 0.5650(16)
Eu1E Eu 0.11931(3) 0.41229(3) 0.60278(2)
Eu1B Eu 0.70702(4) 0.58771(3) 0.73055(2)
Eu1D Eu 0.58771(3) 0.70702(4) 0.26945(2)
N1E N 0.1623(6) 0.2525(6) 0.5235(5)
N2E N 0.2369(6) 0.5306(6) 0.4540(4)
N4E N 0.3783(5) 0.6066(6) 0.3517(4)
N4A N 0.6217(5) 0.2283(8) 0.3150(4)
N4C N 0.2283(8) 0.6217(5) 0.6850(4)
N5E N 0.4793(6) 0.5140(6) 0.7425(4)
N5D N 0.4860(6) -0.0347(8) 0.4092(4)
N5B N -0.0347(8) 0.4860(6) 0.5908(4)
N6E N 0.4012(5) 0.4731(6) 0.6740(4)
N7E N 0.3358(6) 0.5402(6) 0.4276(4)
N8E N 0.7031(7) 0.7222(9) 0.4265(6)
N8A N 0.2969(7) 0.0191(11) 0.2402(6)
N8C N 0.0191(11) 0.2969(7) 0.7598(6)
N9E N 0.2963(5) 0.4365(6) 0.7078(4)
N11E N -0.1797(12) 0.1586(14) 0.5257(9)
H1E H -0.2179 0.1244 0.5774
C1E C 0.2153(7) 0.5936(8) 0.3927(6)
H2E H 0.1504 0.6036 0.3933
C2E C 0.3087(7) 0.4555(8) 0.8026(5)
H3E H 0.2487 0.4380 0.8464
C3E C 0.3042(7) 0.6410(8) 0.3288(6)
H4E H 0.3115 0.6897 0.2774
C4E C 0.4218(8) 0.5038(8) 0.8238(5)
H5E H 0.4547 0.5265 0.8850
C5E C -0.2182(8) 0.1286(11) 0.4349(8)
H6E H -0.2897 0.0676 0.4139
C6E C 0.7990(10) 0.8110(9) 0.4532(6)
H7E H 0.8508 0.8726 0.4142
C7E C -0.1320(7) 0.2048(9) 0.3832(9)
H8E H -0.1332 0.2076 0.3161
C8E C 0.0859(8) 0.1408(8) 0.5154(9)
H9E H 0.0065 0.1058 0.5290
N12E N -0.0749(11) 0.2480(13) 0.5222(13)
N13E N -0.0450(10) 0.2759(10) 0.4350(16)
loop_
_geom_bond_atom_site_label_1
_geom_bond_atom_site_label_2
_geom_bond_site_symmetry_1
_geom_bond_site_symmetry_2
Eu1 N1 1_555 1_555
Eu2 N3 1_555 1_555
N1 N3 1_555 1_555
N2 Eu1 1_555 1_555
N3 N1E 1_555 1_555
N4 N7 1_555 1_555
N5 N6 1_555 1_555
N6 Eu2 1_555 1_555
N7 Eu2 1_555 1_555
N8 N10 1_555 1_555
N9 Eu1 1_555 1_555
N10 Eu2 1_555 1_555
N11 H1 1_555 1_555
C1 N2 1_555 1_555
H2 C1 1_555 1_555
C2 N9 1_555 1_555
H3 C2 1_555 1_555
C3 N4 1_555 1_555
H4 C3 1_555 1_555
C4 N5 1_555 1_555
H5 C4 1_555 1_555
C5 N11 1_555 1_555
H6 C5 1_555 1_555
C6 N8 1_555 1_555
H7 C6 1_555 1_555
C7 C5 1_555 1_555
H8 C7 1_555 1_555
C8 N1 1_555 1_555
H9 C8 1_555 1_555
N12 Eu1 1_555 1_555
N13 C7 1_555 1_555
Eu1E N1E 1_555 1_555
Eu1B N4 1_555 1_555
Eu1D N5 1_555 1_555
N1E C8E 1_555 1_555
N2E Eu1E 1_555 1_555
N4E Eu1D 1_555 1_555
N4A Eu1 1_555 1_555
N4C Eu1E 1_555 1_555
N5E Eu1B 1_555 1_555
N5D Eu1 1_555 1_555
N5B Eu1E 1_555 1_555
N6E Eu2 1_555 1_555
N7E Eu2 1_555 1_555
N8E N10 1_555 1_555
N8A Eu1 1_555 1_555
N8C Eu1E 1_555 1_555
N9E Eu1E 1_555 1_555
N11E H1E 1_555 1_555
C1E N2E 1_555 1_555
H2E C1E 1_555 1_555
C2E N9E 1_555 1_555
H3E C2E 1_555 1_555
C3E N4E 1_555 1_555
H4E C3E 1_555 1_555
C4E N5E 1_555 1_555
H5E C4E 1_555 1_555
C5E N11E 1_555 1_555
H6E C5E 1_555 1_555
C6E C6 1_555 1_555
H7E C6E 1_555 1_555
C7E C5E 1_555 1_555
H8E C7E 1_555 1_555
C8E C8 1_555 1_555
H9E C8E 1_555 1_555
N12E Eu1E 1_555 1_555
N13E C7E 1_555 1_555
N2 N7 1_555 1_555
N6 N9 1_555 1_555
N8 Eu1B 1_555 1_555
N11 N12 1_555 1_555
C1 C3 1_555 1_555
C2 C4 1_555 1_555
N12 N13 1_555 1_555
Eu1D N8E 1_555 1_555
N2E N7E 1_555 1_555
N4E N7E 1_555 1_555
N5E N6E 1_555 1_555
N6E N9E 1_555 1_555
N8E C6E 1_555 1_555
N11E N12E 1_555 1_555
C1E C3E 1_555 1_555
C2E C4E 1_555 1_555
N12E N13E 1_555 1_555

#END
