
#######################################################################
#
#                 Cambridge Crystallographic Data Centre
#                                CCDC 
#
#######################################################################
#
# If this CIF has been generated from an entry in the Cambridge 
# Structural Database, then it will include bibliographic, chemical, 
# crystal, experimental, refinement or atomic coordinate data resulting 
# from the CCDC's data processing and validation procedures.
#
#######################################################################

data_WUJKOC
_symmetry_cell_setting           monoclinic
_symmetry_space_group_name_H-M   'P 21/c'
_symmetry_Int_Tables_number      14
_space_group_name_Hall           '-P 2ybc'
loop_
_symmetry_equiv_pos_site_id
_symmetry_equiv_pos_as_xyz
1 x,y,z
2 -x,1/2+y,1/2-z
3 -x,-y,-z
4 x,1/2-y,1/2+z
_cell_length_a                   17.515(6)
_cell_length_b                   14.863(3)
_cell_length_c                   16.226(4)
_cell_angle_alpha                90
_cell_angle_beta                 105.302(11)
_cell_angle_gamma                90
_cell_volume                     4074.29
loop_
_atom_site_label
_atom_site_type_symbol
_atom_site_fract_x
_atom_site_fract_y
_atom_site_fract_z
Pb1 Pb 0.24093(3) 0.26654(3) 0.22628(3)
Pb2 Pb 0.23872(3) 0.25614(3) 0.47732(3)
I1 I 0.38587(5) 0.26360(5) 0.39658(5)
I2 I 0.16322(6) 0.12247(6) 0.31787(6)
I3 I 0.16689(6) 0.41178(6) 0.33687(7)
I4 I 0.09096(6) 0.25087(7) 0.06215(6)
I5 I 0.32849(6) 0.11725(6) 0.13632(6)
I6 I 0.31704(7) 0.40428(6) 0.10934(6)
Pb2C Pb 0.23872(3) 0.24386(3) -0.02268(3)
I4C I 0.09096(6) 0.24913(7) 0.56215(6)
I5C I 0.32849(6) 0.38275(6) 0.63632(6)
I6C I 0.31704(7) 0.09572(6) 0.60934(6)
Cu1 Cu -0.24918(9) 0.26162(9) 0.05479(10)
N1 N -0.3355(6) 0.1750(6) 0.0578(6)
N2 N -0.3297(6) 0.3476(6) 0.0829(6)
N3 N -0.1734(7) 0.2303(8) 0.1832(7)
N4 N -0.1633(7) 0.3540(7) 0.0665(8)
N5 N -0.1980(6) 0.1784(6) -0.0181(6)
N6 N -0.3155(7) 0.2879(7) -0.1027(8)
C1 C -0.3294(9) 0.0843(8) 0.0530(9)
H1 H -0.2858 0.0595 0.0388
C2 C -0.3853(10) 0.0295(9) 0.0684(10)
H2 H -0.3801 -0.0324 0.0638
C3 C -0.4483(10) 0.0627(9) 0.0903(9)
H3 H -0.4844 0.0244 0.1054
C4 C -0.4589(8) 0.1571(8) 0.0902(8)
H4 H -0.5048 0.1824 0.0986
C5 C -0.3979(7) 0.2107(7) 0.0770(7)
C6 C -0.3978(7) 0.3084(7) 0.0820(7)
C7 C -0.4647(8) 0.3595(9) 0.0856(8)
H5 H -0.5137 0.3327 0.0801
C8 C -0.4541(9) 0.4516(10) 0.0976(9)
H6 H -0.4964 0.4864 0.1036
C9 C -0.3839(10) 0.4926(9) 0.1010(10)
H7 H -0.3775 0.5545 0.1075
C10 C -0.3240(9) 0.4384(9) 0.0943(9)
H8 H -0.2752 0.4650 0.0977
C11 C -0.1827(11) 0.1685(12) 0.2368(10)
H9 H -0.2285 0.1338 0.2248
C12 C -0.1229(15) 0.1549(14) 0.3130(11)
H10 H -0.1280 0.1092 0.3504
C13 C -0.0577(15) 0.2087(16) 0.3320(15)
H11 H -0.0182 0.2006 0.3825
C14 C -0.0518(12) 0.2689(12) 0.2806(14)
H12 H -0.0077 0.3063 0.2945
C15 C -0.1078(8) 0.2826(11) 0.2041(10)
C16 C -0.1045(9) 0.3519(9) 0.1384(10)
C17 C -0.0420(9) 0.4131(12) 0.1481(13)
H13 H 0.0010 0.4098 0.1960
C18 C -0.0438(11) 0.4757(12) 0.0895(15)
H14 H -0.0025 0.5168 0.0969
C19 C -0.1063(12) 0.4799(11) 0.0180(13)
H15 H -0.1095 0.5244 -0.0231
C20 C -0.1650(10) 0.4144(9) 0.0095(11)
H16 H -0.2070 0.4145 -0.0395
C21 C -0.1296(9) 0.1378(10) 0.0151(10)
H17 H -0.1025 0.1516 0.0710
C22 C -0.0961(10) 0.0765(11) -0.0280(12)
H18 H -0.0475 0.0502 -0.0024
C23 C -0.1366(10) 0.0552(10) -0.1101(11)
H19 H -0.1155 0.0145 -0.1417
C24 C -0.2092(9) 0.0949(10) -0.1453(10)
H20 H -0.2383 0.0797 -0.2002
C25 C -0.2385(9) 0.1583(9) -0.0974(9)
C26 C -0.3119(8) 0.2043(8) -0.1318(7)
C27 C -0.3787(9) 0.1648(10) -0.1882(9)
H21 H -0.3767 0.1059 -0.2067
C28 C -0.4468(11) 0.2145(12) -0.2154(10)
H22 H -0.4917 0.1889 -0.2517
C29 C -0.4487(9) 0.3014(11) -0.1892(10)
H23 H -0.4937 0.3366 -0.2094
C30 C -0.3836(10) 0.3358(10) -0.1331(10)
H24 H -0.3854 0.3947 -0.1144
loop_
_geom_bond_atom_site_label_1
_geom_bond_atom_site_label_2
_geom_bond_site_symmetry_1
_geom_bond_site_symmetry_2
Pb1 I1 1_555 1_555
Pb2 I1 1_555 1_555
I2 Pb1 1_555 1_555
I3 Pb1 1_555 1_555
I4 Pb1 1_555 1_555
I5 Pb1 1_555 1_555
I6 Pb1 1_555 1_555
Cu1 N1 1_555 1_555
N1 C1 1_555 1_555
N2 Cu1 1_555 1_555
N3 Cu1 1_555 1_555
N4 Cu1 1_555 1_555
N5 Cu1 1_555 1_555
N6 Cu1 1_555 1_555
C1 H1 1_555 1_555
C2 C1 1_555 1_555
H2 C2 1_555 1_555
C3 C2 1_555 1_555
H3 C3 1_555 1_555
C4 C3 1_555 1_555
H4 C4 1_555 1_555
C5 N1 1_555 1_555
C6 N2 1_555 1_555
C7 C6 1_555 1_555
H5 C7 1_555 1_555
C8 C7 1_555 1_555
H6 C8 1_555 1_555
C9 C8 1_555 1_555
H7 C9 1_555 1_555
C10 N2 1_555 1_555
H8 C10 1_555 1_555
C11 N3 1_555 1_555
H9 C11 1_555 1_555
C12 C11 1_555 1_555
H10 C12 1_555 1_555
C13 C12 1_555 1_555
H11 C13 1_555 1_555
C14 C13 1_555 1_555
H12 C14 1_555 1_555
C15 N3 1_555 1_555
C16 N4 1_555 1_555
C17 C16 1_555 1_555
H13 C17 1_555 1_555
C18 C17 1_555 1_555
H14 C18 1_555 1_555
C19 C18 1_555 1_555
H15 C19 1_555 1_555
C20 N4 1_555 1_555
H16 C20 1_555 1_555
C21 N5 1_555 1_555
H17 C21 1_555 1_555
C22 C21 1_555 1_555
H18 C22 1_555 1_555
C23 C22 1_555 1_555
H19 C23 1_555 1_555
C24 C23 1_555 1_555
H20 C24 1_555 1_555
C25 N5 1_555 1_555
C26 N6 1_555 1_555
C27 C26 1_555 1_555
H21 C27 1_555 1_555
C28 C27 1_555 1_555
H22 C28 1_555 1_555
C29 C28 1_555 1_555
H23 C29 1_555 1_555
C30 N6 1_555 1_555
H24 C30 1_555 1_555
Pb2C I4 1_555 1_555
I4C Pb2 1_555 1_555
I5C Pb2 1_555 1_555
I6C Pb2 1_555 1_555
Pb2 I2 1_555 1_555
Pb2 I3 1_555 1_555
I5 Pb2C 1_555 1_555
I6 Pb2C 1_555 1_555
C4 C5 1_555 1_555
C5 C6 1_555 1_555
C9 C10 1_555 1_555
C14 C15 1_555 1_555
C15 C16 1_555 1_555
C19 C20 1_555 1_555
C24 C25 1_555 1_555
C25 C26 1_555 1_555
C29 C30 1_555 1_555

#END
