
#######################################################################
#
#                 Cambridge Crystallographic Data Centre
#                                CCDC 
#
#######################################################################
#
# If this CIF has been generated from an entry in the Cambridge 
# Structural Database, then it will include bibliographic, chemical, 
# crystal, experimental, refinement or atomic coordinate data resulting 
# from the CCDC's data processing and validation procedures.
#
#######################################################################

data_WUJLUI01
_symmetry_cell_setting           monoclinic
_symmetry_space_group_name_H-M   'C 2/c'
_symmetry_Int_Tables_number      15
_space_group_name_Hall           '-C 2yn'
loop_
_symmetry_equiv_pos_site_id
_symmetry_equiv_pos_as_xyz
1 x,y,z
2 -x,y,1/2-z
3 1/2+x,1/2+y,z
4 1/2-x,1/2+y,1/2-z
5 -x,-y,-z
6 x,-y,1/2+z
7 1/2-x,1/2-y,-z
8 1/2+x,1/2-y,1/2+z
_cell_length_a                   16.757(6)
_cell_length_b                   9.692(3)
_cell_length_c                   13.073(4)
_cell_angle_alpha                90
_cell_angle_beta                 123.02(2)
_cell_angle_gamma                90
_cell_volume                     1780.24
loop_
_atom_site_label
_atom_site_type_symbol
_atom_site_fract_x
_atom_site_fract_y
_atom_site_fract_z
Mn1 Mn -0.2500 0.2500 0.5000
N1 N -0.19880(15) 0.03154(19) 0.56327(19)
N2 N -0.31864(16) 0.1851(2) 0.3066(2)
N3 N -0.45026(15) 0.1371(3) 0.09911(18)
N4 N -0.61579(16) 0.2008(2) 0.0104(2)
C1 C -0.1537(2) -0.0390(3) 0.5230(3)
H1 H -0.154(3) -0.001(3) 0.461(3)
C2 C -0.1081(2) -0.1619(3) 0.5728(3)
H2 H -0.075(3) -0.202(4) 0.542(3)
C3 C -0.10618(19) -0.2178(2) 0.6708(2)
C4 C -0.1560(2) -0.1478(3) 0.7097(3)
H3 H -0.160(2) -0.187(3) 0.778(3)
C5 C -0.2008(2) -0.0258(3) 0.6546(3)
H4 H -0.237(3) 0.020(3) 0.676(3)
C6 C -0.0511(2) -0.3476(2) 0.7342(3)
H5 H -0.084(2) -0.425(4) 0.681(3)
H6 H -0.050(2) -0.361(3) 0.811(3)
C7 C -0.38332(15) 0.1673(2) 0.2099(2)
C8 C -0.53744(16) 0.1739(2) 0.05728(18)
Mn1A Mn -0.7500 0.2500 0.0000
Mn1A_2 Mn 0.2500 0.2500 1.0000
N1A N 0.19880(15) 0.03154(19) 0.93673(19)
N1F N -0.30120(15) 0.46846(19) 0.43673(19)
N2A N -0.68136(16) 0.1851(2) 0.1934(2)
N2F N -0.18136(16) 0.3149(2) 0.6934(2)
N3A N -0.54974(15) 0.1371(3) 0.40089(18)
N4A N -0.38421(16) 0.2008(2) 0.4896(2)
N4G N -0.11579(16) 0.2992(2) 0.5104(2)
C1A C 0.1537(2) -0.0390(3) 0.9770(3)
H1A H 0.154(3) -0.001(3) 1.039(3)
C2A C 0.1081(2) -0.1619(3) 0.9272(3)
H2A H 0.075(3) -0.202(4) 0.958(3)
C3A C 0.10618(19) -0.2178(2) 0.8292(2)
C4A C 0.1560(2) -0.1478(3) 0.7903(3)
H3A H 0.160(2) -0.187(3) 0.722(3)
C5A C 0.2008(2) -0.0258(3) 0.8454(3)
H4A H 0.237(3) 0.020(3) 0.824(3)
C6A C 0.0511(2) -0.3476(2) 0.7658(3)
H5A H 0.084(2) -0.425(4) 0.819(3)
H6A H 0.050(2) -0.361(3) 0.689(3)
C7A C -0.61668(15) 0.1673(2) 0.2901(2)
C8A C -0.46256(16) 0.1739(2) 0.44272(18)
loop_
_geom_bond_atom_site_label_1
_geom_bond_atom_site_label_2
_geom_bond_site_symmetry_1
_geom_bond_site_symmetry_2
Mn1 N1 1_555 1_555
N1 C1 1_555 1_555
N2 Mn1 1_555 1_555
N3 C7 1_555 1_555
N4 C8 1_555 1_555
C1 H1 1_555 1_555
C2 C1 1_555 1_555
H2 C2 1_555 1_555
C3 C2 1_555 1_555
C4 C3 1_555 1_555
H3 C4 1_555 1_555
C5 N1 1_555 1_555
H4 C5 1_555 1_555
C6 C3 1_555 1_555
H5 C6 1_555 1_555
H6 C6 1_555 1_555
C7 N2 1_555 1_555
C8 N3 1_555 1_555
Mn1A N4 1_555 1_555
Mn1A_2 N1A 1_555 1_555
N1A C1A 1_555 1_555
N1F Mn1 1_555 1_555
N2A Mn1A 1_555 1_555
N2F Mn1 1_555 1_555
N3A C7A 1_555 1_555
N4A Mn1 1_555 1_555
N4G Mn1 1_555 1_555
C1A H1A 1_555 1_555
C2A C1A 1_555 1_555
H2A C2A 1_555 1_555
C3A C2A 1_555 1_555
C4A C3A 1_555 1_555
H3A C4A 1_555 1_555
C5A N1A 1_555 1_555
H4A C5A 1_555 1_555
C6A C6 1_555 1_555
H5A C6A 1_555 1_555
H6A C6A 1_555 1_555
C7A N2A 1_555 1_555
C8A N3A 1_555 1_555
C4 C5 1_555 1_555
N4A C8A 1_555 1_555
C3A C6A 1_555 1_555
C4A C5A 1_555 1_555

#END
