
#######################################################################
#
#                 Cambridge Crystallographic Data Centre
#                                CCDC 
#
#######################################################################
#
# If this CIF has been generated from an entry in the Cambridge 
# Structural Database, then it will include bibliographic, chemical, 
# crystal, experimental, refinement or atomic coordinate data resulting 
# from the CCDC's data processing and validation procedures.
#
#######################################################################

data_WUJLOC
_symmetry_cell_setting           orthorhombic
_symmetry_space_group_name_H-M   'P c c n'
_symmetry_Int_Tables_number      56
_space_group_name_Hall           '-P 2ab 2ac'
loop_
_symmetry_equiv_pos_site_id
_symmetry_equiv_pos_as_xyz
1 x,y,z
2 1/2+x,1/2+y,-z
3 1/2-x,y,1/2+z
4 x,1/2-y,1/2+z
5 -x,-y,-z
6 1/2-x,1/2-y,z
7 1/2+x,-y,1/2-z
8 -x,1/2+y,1/2-z
_cell_length_a                   9.479(4)
_cell_length_b                   12.308(5)
_cell_length_c                   14.402(5)
_cell_angle_alpha                90
_cell_angle_beta                 90
_cell_angle_gamma                90
_cell_volume                     1680.25
loop_
_atom_site_label
_atom_site_type_symbol
_atom_site_fract_x
_atom_site_fract_y
_atom_site_fract_z
Mn1 Mn 0.7500 -0.2500 -0.14980(2)
N1 N 0.60343(15) -0.16964(11) -0.03808(10)
C1 C 0.65825(18) -0.13273(14) 0.04155(12)
H1 H 0.7555 -0.1234 0.0449
C2 C 0.57885(19) -0.10770(16) 0.11895(14)
H2 H 0.6214 -0.0839 0.1734
C3 C 0.43387(19) -0.11914(14) 0.11299(13)
C4 C 0.37440(19) -0.14809(16) 0.02878(14)
H3 H 0.2770 -0.1499 0.0214
C5 C 0.4628(2) -0.17428(16) -0.04415(14)
H4 H 0.4226 -0.1962 -0.1000
N2 N 0.2805(2) -0.10118(18) 0.26095(15)
C6 C 0.34739(19) -0.10659(16) 0.19539(15)
N3 N 0.49771(19) -0.07373(14) -0.38039(11)
N4 N 0.61221(17) -0.17464(12) -0.25485(10)
N5 N 0.38266(17) 0.10458(13) -0.36888(12)
C7 C 0.55625(17) -0.12275(14) -0.31052(12)
C8 C 0.43898(18) 0.02153(14) -0.37053(12)
N1E N 0.89657(15) -0.33036(11) -0.03808(10)
C1E C 0.84175(18) -0.36727(14) 0.04155(12)
H1E H 0.7445 -0.3766 0.0449
C2E C 0.92115(19) -0.39230(16) 0.11895(14)
H2E H 0.8786 -0.4161 0.1734
C3E C 1.06613(19) -0.38086(14) 0.11299(13)
C4E C 1.12560(19) -0.35191(16) 0.02878(14)
H3E H 1.2230 -0.3501 0.0214
C5E C 1.0372(2) -0.32572(16) -0.04415(14)
H4E H 1.0774 -0.3038 -0.1000
N2E N 1.2195(2) -0.39882(18) 0.26095(15)
C6E C 1.15261(19) -0.39341(16) 0.19539(15)
N3E N 1.00229(19) -0.42627(14) -0.38039(11)
N4E N 0.88779(17) -0.32536(12) -0.25485(10)
N5E N 1.11734(17) -0.60458(13) -0.36888(12)
C7E C 0.94375(17) -0.37725(14) -0.31052(12)
C8E C 1.06102(18) -0.52153(14) -0.37053(12)
N5F N 0.88266(17) -0.10458(13) -0.13112(12)
N5G N 0.61734(17) -0.39542(13) -0.13112(12)
Mn1F Mn 0.2500 0.2500 -0.35020(2)
Mn1F_2 Mn 1.2500 -0.7500 -0.35020(2)
loop_
_geom_bond_atom_site_label_1
_geom_bond_atom_site_label_2
_geom_bond_site_symmetry_1
_geom_bond_site_symmetry_2
Mn1 N1 1_555 1_555
N1 C1 1_555 1_555
C1 H1 1_555 1_555
C2 C1 1_555 1_555
H2 C2 1_555 1_555
C3 C2 1_555 1_555
C4 C3 1_555 1_555
H3 C4 1_555 1_555
C5 N1 1_555 1_555
H4 C5 1_555 1_555
N2 C6 1_555 1_555
C6 C3 1_555 1_555
N3 C7 1_555 1_555
N4 Mn1 1_555 1_555
N5 C8 1_555 1_555
C7 N4 1_555 1_555
C8 N3 1_555 1_555
N1E Mn1 1_555 1_555
C1E N1E 1_555 1_555
H1E C1E 1_555 1_555
C2E C1E 1_555 1_555
H2E C2E 1_555 1_555
C3E C2E 1_555 1_555
C4E C3E 1_555 1_555
H3E C4E 1_555 1_555
C5E N1E 1_555 1_555
H4E C5E 1_555 1_555
N2E C6E 1_555 1_555
C6E C3E 1_555 1_555
N3E C7E 1_555 1_555
N4E Mn1 1_555 1_555
N5E C8E 1_555 1_555
C7E N4E 1_555 1_555
C8E N3E 1_555 1_555
N5F Mn1 1_555 1_555
N5G Mn1 1_555 1_555
Mn1F N5 1_555 1_555
Mn1F_2 N5E 1_555 1_555
C4 C5 1_555 1_555
C4E C5E 1_555 1_555

#END
