
#######################################################################
#
#                 Cambridge Crystallographic Data Centre
#                                CCDC 
#
#######################################################################
#
# If this CIF has been generated from an entry in the Cambridge 
# Structural Database, then it will include bibliographic, chemical, 
# crystal, experimental, refinement or atomic coordinate data resulting 
# from the CCDC's data processing and validation procedures.
#
#######################################################################

data_WUJPIA
_symmetry_cell_setting           orthorhombic
_symmetry_space_group_name_H-M   'C 2 2 21'
_symmetry_Int_Tables_number      20
_space_group_name_Hall           'C 2n 2'
loop_
_symmetry_equiv_pos_site_id
_symmetry_equiv_pos_as_xyz
1 x,y,z
2 x,-y,-z
3 -x,-y,1/2+z
4 -x,y,1/2-z
5 1/2+x,1/2+y,z
6 1/2+x,1/2-y,-z
7 1/2-x,1/2-y,1/2+z
8 1/2-x,1/2+y,1/2-z
_cell_length_a                   17.6000(8)
_cell_length_b                   23.0061(11)
_cell_length_c                   14.9033(6)
_cell_angle_alpha                90
_cell_angle_beta                 90
_cell_angle_gamma                90
_cell_volume                     6034.46
loop_
_atom_site_label
_atom_site_type_symbol
_atom_site_fract_x
_atom_site_fract_y
_atom_site_fract_z
Zn1 Zn -0.32142(4) -0.79559(3) -1.06586(4)
O7 O -0.2568(2) -0.86516(16) -1.0535(3)
O8 O -0.1783(3) -0.81083(19) -1.1360(3)
O9 O -0.3986(4) -0.8108(3) -0.9712(6)
O11 O -0.4589(4) -0.8831(3) -1.0535(6)
N1 N -0.3689(3) -0.7556(3) -1.3275(4)
N2 N -0.3539(3) -0.7861(3) -1.1937(3)
N3 N -0.7417(3) -0.3481(2) -1.4214(4)
N4 N -0.7187(3) -0.27919(18) -1.5157(3)
C1 C -0.5287(3) -0.5750(3) -1.3829(3)
C2 C -0.4545(4) -0.5693(2) -1.3567(4)
H1 H -0.4378 -0.5332 -1.3329
C3 C -0.4018(4) -0.6158(3) -1.3640(4)
H2 H -0.3514 -0.6110 -1.3426
C4 C -0.4234(4) -0.6682(3) -1.4023(4)
C5 C -0.4979(4) -0.6743(2) -1.4272(4)
H3 H -0.5147 -0.7101 -1.4519
C6 C -0.5483(3) -0.6298(3) -1.4172(4)
H4 H -0.5996 -0.6363 -1.4345
C7 C -0.3658(3) -0.7182(2) -1.4061(4)
H5 H -0.3757 -0.7418 -1.4604
H6 H -0.3140 -0.7018 -1.4115
C8 C -0.5820(3) -0.5285(3) -1.3731(3)
C9 C -0.5579(3) -0.4717(3) -1.3748(4)
H7 H -0.5057 -0.4630 -1.3836
C10 C -0.6091(5) -0.4277(2) -1.3637(4)
H8 H -0.5914 -0.3887 -1.3639
C11 C -0.6821(4) -0.4376(3) -1.3528(3)
C12 C -0.7069(3) -0.4943(3) -1.3515(4)
H9 H -0.7595 -0.5022 -1.3448
C13 C -0.6573(3) -0.5391(2) -1.3594(4)
H10 H -0.6751 -0.5780 -1.3554
C14 C -0.7382(4) -0.3852(3) -1.3408(4)
H11 H -0.7896 -0.4003 -1.3275
H12 H -0.7216 -0.3614 -1.2890
C15 C -0.1941(4) -0.8561(3) -1.0998(4)
C16 C -0.1418(4) -0.9124(2) -1.1076(4)
H13 H -0.1068 -0.9078 -1.1582
H14 H -0.1738 -0.9466 -1.1173
H15 H -0.1127 -0.9172 -1.0520
C17 C -0.4491(7) -0.8497(7) -0.9861(10)
C19 C -0.4999(4) -0.8530(3) -0.9026(4)
H16 H -0.4681 -0.8521 -0.8485
H17 H -0.5292 -0.8892 -0.9038
H18 H -0.5347 -0.8198 -0.9020
C20 C -0.3368(4) -0.7461(3) -1.2490(5)
H19 H -0.3051 -0.7138 -1.2356
C21 C -0.4009(4) -0.8220(3) -1.2383(5)
H20 H -0.4236 -0.8560 -1.2141
C22 C -0.4106(4) -0.8028(4) -1.3206(5)
H21 H -0.4415 -0.8196 -1.3659
C23 C -0.7036(3) -0.3005(3) -1.4341(5)
H22 H -0.6700 -0.2834 -1.3918
C24 C -0.7694(3) -0.3179(3) -1.5574(4)
H23 H -0.7895 -0.3149 -1.6163
C25 C -0.7841(3) -0.3606(3) -1.4967(5)
H24 H -0.8171 -0.3929 -1.5047
N4B N -0.2813(3) -0.72081(18) -1.0157(3)
Zn1B Zn -0.67858(4) -0.20441(3) -1.56586(4)
O1 O -0.0815(3) -0.7666(2) -1.2576(3)
O2 O -0.2848(4) -0.9346(3) -0.9056(7)
O3 O -0.3607(6) -0.9678(2) -1.1076(7)
O4 O -0.3264(4) -0.8550(4) -0.7623(4)
O5 O -0.5795(3) -1.03589(18) -0.9240(3)
O6 O -0.5818(4) -0.9739(3) -0.7674(3)
O10? O -0.4172(7) -0.8154(5) -1.0200(8)
O12? O -0.3698(8) -0.8095(5) -0.8764(9)
C18? C -0.4190(14) -0.8222(9) -0.927(2)
loop_
_geom_bond_atom_site_label_1
_geom_bond_atom_site_label_2
_geom_bond_site_symmetry_1
_geom_bond_site_symmetry_2
Zn1 O7 1_555 1_555
O7 C15 1_555 1_555
O8 C15 1_555 1_555
O9 Zn1 1_555 1_555
O11 C17 1_555 1_555
N1 C7 1_555 1_555
N2 Zn1 1_555 1_555
N3 C14 1_555 1_555
N4 C23 1_555 1_555
C1 C2 1_555 1_555
C2 H1 1_555 1_555
C3 C2 1_555 1_555
H2 C3 1_555 1_555
C4 C3 1_555 1_555
C5 C4 1_555 1_555
H3 C5 1_555 1_555
C6 C1 1_555 1_555
H4 C6 1_555 1_555
C7 C4 1_555 1_555
H5 C7 1_555 1_555
H6 C7 1_555 1_555
C8 C1 1_555 1_555
C9 C8 1_555 1_555
H7 C9 1_555 1_555
C10 C9 1_555 1_555
H8 C10 1_555 1_555
C11 C10 1_555 1_555
C12 C11 1_555 1_555
H9 C12 1_555 1_555
C13 C8 1_555 1_555
H10 C13 1_555 1_555
C14 C11 1_555 1_555
H11 C14 1_555 1_555
H12 C14 1_555 1_555
C15 C16 1_555 1_555
C16 H13 1_555 1_555
H14 C16 1_555 1_555
H15 C16 1_555 1_555
C17 O9 1_555 1_555
C19 C17 1_555 1_555
H16 C19 1_555 1_555
H17 C19 1_555 1_555
H18 C19 1_555 1_555
C20 N1 1_555 1_555
H19 C20 1_555 1_555
C21 N2 1_555 1_555
H20 C21 1_555 1_555
C22 N1 1_555 1_555
H21 C22 1_555 1_555
C23 N3 1_555 1_555
H22 C23 1_555 1_555
C24 N4 1_555 1_555
H23 C24 1_555 1_555
C25 N3 1_555 1_555
H24 C25 1_555 1_555
N4B Zn1 1_555 1_555
Zn1B N4 1_555 1_555
N2 C20 1_555 1_555
C5 C6 1_555 1_555
C12 C13 1_555 1_555
C21 C22 1_555 1_555
C24 C25 1_555 1_555

#END
