
#######################################################################
#
#                 Cambridge Crystallographic Data Centre
#                                CCDC 
#
#######################################################################
#
# If this CIF has been generated from an entry in the Cambridge 
# Structural Database, then it will include bibliographic, chemical, 
# crystal, experimental, refinement or atomic coordinate data resulting 
# from the CCDC's data processing and validation procedures.
#
#######################################################################

data_WUJQEX
_symmetry_cell_setting           triclinic
_symmetry_space_group_name_H-M   'P -1'
_symmetry_Int_Tables_number      2
_space_group_name_Hall           '-P 1'
loop_
_symmetry_equiv_pos_site_id
_symmetry_equiv_pos_as_xyz
1 x,y,z
2 -x,-y,-z
_cell_length_a                   11.0102(2)
_cell_length_b                   11.3676(2)
_cell_length_c                   13.6847(3)
_cell_angle_alpha                76.117(5)
_cell_angle_beta                 82.625(5)
_cell_angle_gamma                65.319(5)
_cell_volume                     1510.07
loop_
_atom_site_label
_atom_site_type_symbol
_atom_site_fract_x
_atom_site_fract_y
_atom_site_fract_z
Cu1 Cu 0.0000 0.0000 0.0000
N1 N 0.1051(2) -0.1962(2) 0.0153(1)
C1 C 0.1136(2) -0.2752(2) -0.0497(2)
C2 C 0.2086(3) -0.4086(3) -0.0150(2)
C3 C 0.2554(3) -0.4107(2) 0.0718(2)
C4 C 0.1916(2) -0.2799(2) 0.0913(2)
C5 C 0.2192(2) -0.2424(2) 0.1736(2)
C6 C 0.1684(2) -0.1129(2) 0.1878(2)
N2 N 0.0766(2) -0.0043(2) 0.1271(1)
C7 C 0.0539(2) 0.1025(2) 0.1693(2)
C8 C 0.1368(2) 0.0589(2) 0.2560(2)
C9 C 0.2039(2) -0.0721(2) 0.2679(2)
C10 C 0.3002(2) -0.3508(2) 0.2556(2)
C11 C 0.2422(2) -0.4329(3) 0.3139(2)
C12 C 0.3063(3) -0.5329(3) 0.3941(2)
C13 C 0.4341(3) -0.5520(3) 0.4154(2)
C14 C 0.4940(2) -0.4734(3) 0.3582(2)
C15 C 0.4286(2) -0.3718(2) 0.2789(2)
N3 N 0.4946(2) -0.2907(2) 0.2220(2)
C16 C 0.5481(2) -0.2300(3) 0.2674(2)
O1 O 0.5353(2) -0.2311(2) 0.3572(1)
C17 C 0.6306(2) -0.1617(3) 0.2023(2)
C18 C 0.6278(3) -0.1239(3) 0.0988(2)
C19 C 0.7138(3) -0.0658(3) 0.0489(2)
N4 N 0.8000(2) -0.0455(2) 0.0940(2)
C20 C 0.7986(3) -0.0796(3) 0.1931(2)
C21 C 0.7169(3) -0.1354(3) 0.2492(2)
C22 C 0.0375(2) -0.2319(2) -0.1368(2)
C23 C 0.0579(2) -0.3325(2) -0.1981(2)
C24 C 0.0225(3) -0.4389(3) -0.1565(2)
C25 C 0.0435(3) -0.5364(3) -0.2089(2)
C26 C 0.0989(3) -0.5261(3) -0.3059(2)
C27 C 0.1337(3) -0.4218(3) -0.3492(2)
C28 C 0.1144(2) -0.3245(2) -0.2966(2)
N5 N 0.1458(2) -0.2142(2) -0.3392(2)
C29 C 0.2015(3) -0.1829(3) -0.4315(2)
O2 O 0.2477(2) -0.2563(2) -0.4913(1)
C30 C 0.2005(3) -0.0467(3) -0.4561(2)
C31 C 0.3102(3) -0.0276(3) -0.5079(2)
C32 C 0.3046(3) 0.1003(3) -0.5322(2)
N6 N 0.1996(3) 0.2065(2) -0.5137(2)
C33 C 0.0946(3) 0.1866(3) -0.4654(2)
C34 C 0.0918(3) 0.0633(3) -0.4351(2)
H1 H 0.2334 -0.4811 -0.0472
H2 H 0.3191 -0.4855 0.1128
H3 H 0.1423 0.1133 0.2967
H4 H 0.2642 -0.1282 0.3198
H5 H 0.1554 -0.4203 0.2982
H6 H 0.2639 -0.5869 0.4336
H7 H 0.4800 -0.6199 0.4699
H8 H 0.5819 -0.4885 0.3730
H9 H 0.5685 -0.1372 0.0622
H10 H 0.7100 -0.0389 -0.0223
H11 H 0.8583 -0.0643 0.2278
H12 H 0.7198 -0.1561 0.3206
H13 H -0.0171 -0.4447 -0.0906
H14 H 0.0203 -0.6091 -0.1789
H15 H 0.1130 -0.5919 -0.3427
H16 H 0.1713 -0.4160 -0.4158
H17 H 0.3861 -0.0995 -0.5261
H18 H 0.3814 0.1127 -0.5643
H19 H 0.0181 0.2609 -0.4513
H20 H 0.0153 0.0536 -0.3997
H21 H 0.5012 -0.2791 0.1507
H22 H 0.1252 -0.1524 -0.2972
N1A N -0.1051(2) 0.1962(2) -0.0153(1)
C1A C -0.1136(2) 0.2752(2) 0.0497(2)
C2A C -0.2086(3) 0.4086(3) 0.0150(2)
C3A C -0.2554(3) 0.4107(2) -0.0718(2)
C4A C -0.1916(2) 0.2799(2) -0.0913(2)
C5A C -0.2192(2) 0.2424(2) -0.1736(2)
C6A C -0.1684(2) 0.1129(2) -0.1878(2)
N2A N -0.0766(2) 0.0043(2) -0.1271(1)
N4A N 0.2000(2) 0.0455(2) -0.0940(2)
C7A C -0.0539(2) -0.1025(2) -0.1693(2)
C8A C -0.1368(2) -0.0589(2) -0.2560(2)
C9A C -0.2039(2) 0.0721(2) -0.2679(2)
H4A H -0.2642 0.1282 -0.3198
H3A H -0.1423 -0.1133 -0.2967
C10A C -0.3002(2) 0.3508(2) -0.2556(2)
H2A H -0.3191 0.4855 -0.1128
H1A H -0.2334 0.4811 0.0472
C22A C -0.0375(2) 0.2319(2) 0.1368(2)
C23A C -0.0579(2) 0.3325(2) 0.1981(2)
C24A C -0.0225(3) 0.4389(3) 0.1565(2)
C25A C -0.0435(3) 0.5364(3) 0.2089(2)
C26A C -0.0989(3) 0.5261(3) 0.3059(2)
C27A C -0.1337(3) 0.4218(3) 0.3492(2)
C28A C -0.1144(2) 0.3245(2) 0.2966(2)
N5A N -0.1458(2) 0.2142(2) 0.3392(2)
C29A C -0.2015(3) 0.1829(3) 0.4315(2)
O2A O -0.2477(2) 0.2563(2) 0.4913(1)
C30A C -0.2005(3) 0.0467(3) 0.4561(2)
C31A C -0.3102(3) 0.0276(3) 0.5079(2)
C32A C -0.3046(3) -0.1003(3) 0.5322(2)
N6A N -0.1996(3) -0.2065(2) 0.5137(2)
C33A C -0.0946(3) -0.1866(3) 0.4654(2)
C34A C -0.0918(3) -0.0633(3) 0.4351(2)
H20A H -0.0153 -0.0536 0.3997
H19A H -0.0181 -0.2609 0.4513
H18A H -0.3814 -0.1127 0.5643
H17A H -0.3861 0.0995 0.5261
H22A H -0.1252 0.1524 0.2972
H16A H -0.1713 0.4160 0.4158
H15A H -0.1130 0.5919 0.3427
H14A H -0.0203 0.6091 0.1789
H13A H 0.0171 0.4447 0.0906
N4_2 N -0.2000(2) -0.0455(2) 0.0940(2)
Cu1_2 Cu 1.0000 0.0000 0.0000
C11A C -0.2422(2) 0.4329(3) -0.3139(2)
C15A C -0.4286(2) 0.3718(2) -0.2789(2)
Cu1_3 Cu -1.0000 0.0000 0.0000
C12A C -0.3063(3) 0.5329(3) -0.3941(2)
H5A H -0.1554 0.4203 -0.2982
C14A C -0.4940(2) 0.4734(3) -0.3582(2)
N3A N -0.4946(2) 0.2907(2) -0.2220(2)
C13A C -0.4341(3) 0.5520(3) -0.4154(2)
H6A H -0.2639 0.5869 -0.4336
H8A H -0.5819 0.4885 -0.3730
C16A C -0.5481(2) 0.2300(3) -0.2674(2)
H21A H -0.5012 0.2791 -0.1507
H7A H -0.4800 0.6199 -0.4699
O1A O -0.5353(2) 0.2311(2) -0.3572(1)
C17A C -0.6306(2) 0.1617(3) -0.2023(2)
C18A C -0.6278(3) 0.1239(3) -0.0988(2)
C21A C -0.7169(3) 0.1354(3) -0.2492(2)
C19A C -0.7138(3) 0.0658(3) -0.0489(2)
H9A H -0.5685 0.1372 -0.0622
C20A C -0.7986(3) 0.0796(3) -0.1931(2)
H12A H -0.7198 0.1561 -0.3206
N4A_2 N -0.8000(2) 0.0455(2) -0.0940(2)
H10A H -0.7100 0.0389 0.0223
H11A H -0.8583 0.0643 -0.2278
N7 N 0.4858(2) 0.2431(2) 0.1584(2)
C35 C 0.5603(4) 0.2241(4) 0.2437(3)
C36 C 0.3610(3) 0.2267(4) 0.1799(3)
C37 C 0.5299(3) 0.2715(3) 0.0654(2)
O3 O 0.4722(2) 0.2919(2) -0.0108(2)
H23 H 0.5126 0.2046 0.3040
H24 H 0.6450 0.1527 0.2416
H25 H 0.5725 0.3024 0.2422
H26 H 0.3462 0.2067 0.2508
H27 H 0.2897 0.3062 0.1514
H28 H 0.3652 0.1564 0.1518
H29 H 0.6148 0.2765 0.0571
loop_
_geom_bond_atom_site_label_1
_geom_bond_atom_site_label_2
_geom_bond_site_symmetry_1
_geom_bond_site_symmetry_2
Cu1 N1 1_555 1_555
N1 C1 1_555 1_555
C1 C2 1_555 1_555
C2 C3 1_555 1_555
C3 C4 1_555 1_555
C4 N1 1_555 1_555
C5 C4 1_555 1_555
C6 C5 1_555 1_555
N2 Cu1 1_555 1_555
C7 N2 1_555 1_555
C8 C7 1_555 1_555
C9 C6 1_555 1_555
C10 C5 1_555 1_555
C11 C10 1_555 1_555
C12 C11 1_555 1_555
C13 C12 1_555 1_555
C14 C13 1_555 1_555
C15 C10 1_555 1_555
N3 C15 1_555 1_555
C16 N3 1_555 1_555
O1 C16 1_555 1_555
C17 C16 1_555 1_555
C18 C17 1_555 1_555
C19 C18 1_555 1_555
N4 C19 1_555 1_555
C20 N4 1_555 1_555
C21 C17 1_555 1_555
C22 C1 1_555 1_555
C23 C22 1_555 1_555
C24 C23 1_555 1_555
C25 C24 1_555 1_555
C26 C25 1_555 1_555
C27 C26 1_555 1_555
C28 C23 1_555 1_555
N5 C28 1_555 1_555
C29 N5 1_555 1_555
O2 C29 1_555 1_555
C30 C29 1_555 1_555
C31 C30 1_555 1_555
C32 C31 1_555 1_555
N6 C32 1_555 1_555
C33 N6 1_555 1_555
C34 C30 1_555 1_555
H1 C2 1_555 1_555
H2 C3 1_555 1_555
H3 C8 1_555 1_555
H4 C9 1_555 1_555
H5 C11 1_555 1_555
H6 C12 1_555 1_555
H7 C13 1_555 1_555
H8 C14 1_555 1_555
H9 C18 1_555 1_555
H10 C19 1_555 1_555
H11 C20 1_555 1_555
H12 C21 1_555 1_555
H13 C24 1_555 1_555
H14 C25 1_555 1_555
H15 C26 1_555 1_555
H16 C27 1_555 1_555
H17 C31 1_555 1_555
H18 C32 1_555 1_555
H19 C33 1_555 1_555
H20 C34 1_555 1_555
H21 N3 1_555 1_555
H22 N5 1_555 1_555
N7 C35 1_555 1_555
C35 H23 1_555 1_555
C36 N7 1_555 1_555
C37 N7 1_555 1_555
O3 C37 1_555 1_555
H24 C35 1_555 1_555
H25 C35 1_555 1_555
H26 C36 1_555 1_555
H27 C36 1_555 1_555
H28 C36 1_555 1_555
H29 C37 1_555 1_555
N1A Cu1 1_555 1_555
C1A N1A 1_555 1_555
C2A C1A 1_555 1_555
C3A C2A 1_555 1_555
C4A N1A 1_555 1_555
C5A C4A 1_555 1_555
C6A C5A 1_555 1_555
N2A Cu1 1_555 1_555
N4A Cu1 1_555 1_555
C7A C22 1_555 1_555
C8A C7A 1_555 1_555
C9A C6A 1_555 1_555
H4A C9A 1_555 1_555
H3A C8A 1_555 1_555
C10A C5A 1_555 1_555
H2A C3A 1_555 1_555
H1A C2A 1_555 1_555
C22A C7 1_555 1_555
C23A C22A 1_555 1_555
C24A C23A 1_555 1_555
C25A C24A 1_555 1_555
C26A C25A 1_555 1_555
C27A C26A 1_555 1_555
C28A C23A 1_555 1_555
N5A C28A 1_555 1_555
C29A N5A 1_555 1_555
O2A C29A 1_555 1_555
C30A C29A 1_555 1_555
C31A C30A 1_555 1_555
C32A C31A 1_555 1_555
N6A C32A 1_555 1_555
C33A N6A 1_555 1_555
C34A C30A 1_555 1_555
H20A C34A 1_555 1_555
H19A C33A 1_555 1_555
H18A C32A 1_555 1_555
H17A C31A 1_555 1_555
H22A N5A 1_555 1_555
H16A C27A 1_555 1_555
H15A C26A 1_555 1_555
H14A C25A 1_555 1_555
H13A C24A 1_555 1_555
N4_2 Cu1 1_555 1_555
Cu1_2 N4 1_555 1_555
C11A C10A 1_555 1_555
C15A C10A 1_555 1_555
Cu1_3 N4A_2 1_555 1_555
C12A C11A 1_555 1_555
H5A C11A 1_555 1_555
C14A C15A 1_555 1_555
N3A C15A 1_555 1_555
C13A C12A 1_555 1_555
H6A C12A 1_555 1_555
H8A C14A 1_555 1_555
C16A N3A 1_555 1_555
H21A N3A 1_555 1_555
H7A C13A 1_555 1_555
O1A C16A 1_555 1_555
C17A C16A 1_555 1_555
C18A C17A 1_555 1_555
C21A C17A 1_555 1_555
C19A C18A 1_555 1_555
H9A C18A 1_555 1_555
C20A C21A 1_555 1_555
H12A C21A 1_555 1_555
N4A_2 C19A 1_555 1_555
H10A C19A 1_555 1_555
H11A C20A 1_555 1_555
C6 N2 1_555 1_555
C8 C9 1_555 1_555
C14 C15 1_555 1_555
C20 C21 1_555 1_555
C27 C28 1_555 1_555
C33 C34 1_555 1_555
C1A C22A 1_555 1_555
C3A C4A 1_555 1_555
C6A N2A 1_555 1_555
N2A C7A 1_555 1_555
C8A C9A 1_555 1_555
C27A C28A 1_555 1_555
C33A C34A 1_555 1_555
C14A C13A 1_555 1_555
C20A N4A_2 1_555 1_555

#END
