
#######################################################################
#
#                 Cambridge Crystallographic Data Centre
#                                CCDC 
#
#######################################################################
#
# If this CIF has been generated from an entry in the Cambridge 
# Structural Database, then it will include bibliographic, chemical, 
# crystal, experimental, refinement or atomic coordinate data resulting 
# from the CCDC's data processing and validation procedures.
#
#######################################################################

data_WUJQAT
_symmetry_cell_setting           triclinic
_symmetry_space_group_name_H-M   'P -1'
_symmetry_Int_Tables_number      2
_space_group_name_Hall           '-P 1'
loop_
_symmetry_equiv_pos_site_id
_symmetry_equiv_pos_as_xyz
1 x,y,z
2 -x,-y,-z
_cell_length_a                   9.9533(2)
_cell_length_b                   13.2375(4)
_cell_length_c                   13.3971(3)
_cell_angle_alpha                88.813(5)
_cell_angle_beta                 69.005(5)
_cell_angle_gamma                88.363(4)
_cell_volume                     1647.2
loop_
_atom_site_label
_atom_site_type_symbol
_atom_site_fract_x
_atom_site_fract_y
_atom_site_fract_z
Cu1 Cu 0.0000 0.0000 0.0000
N1 N 0.1715(3) 0.0324(2) -0.1322(2)
C1 C 0.2232(3) 0.1267(2) -0.1698(2)
C2 C 0.3439(3) 0.1169(3) -0.2687(2)
C3 C 0.3661(3) 0.0174(3) -0.2908(2)
C4 C 0.2572(3) -0.0356(2) -0.2060(2)
C5 C 0.2403(3) -0.1397(2) -0.2021(2)
C6 C 0.1323(3) -0.1912(2) -0.1222(2)
C7 C 0.1183(4) -0.2995(3) -0.1174(3)
C8 C 0.0069(4) -0.3211(3) -0.0275(3)
C9 C -0.0491(3) -0.2263(2) 0.0241(3)
N2 N 0.0267(3) -0.1476(2) -0.0361(2)
C10 C 0.1651(3) 0.2184(2) -0.1212(2)
C11 C 0.3482(3) -0.2009(2) -0.2888(2)
C12 C 0.3341(4) -0.2134(2) -0.3876(3)
C13 C 0.4358(4) -0.2686(3) -0.4675(3)
C14 C 0.5525(4) -0.3125(3) -0.4499(3)
C15 C 0.5681(4) -0.3012(3) -0.3519(3)
C16 C 0.4666(4) -0.2459(3) -0.2723(3)
N3 N 0.2123(3) -0.1676(2) -0.4066(2)
C17 C 0.1012(4) -0.2213(3) -0.4085(3)
O1 O 0.0930(3) -0.3138(2) -0.3934(2)
C18 C -0.0171(4) -0.1617(3) -0.4299(3)
C19 C -0.0739(4) -0.0732(3) -0.3772(3)
C20 C -0.1792(4) -0.0202(3) -0.4034(3)
N4 N -0.2266(3) -0.0486(3) -0.4801(3)
C21 C -0.1725(4) -0.1362(3) -0.5281(3)
C22 C -0.0718(4) -0.1959(3) -0.5045(3)
C23 C 0.2201(3) 0.3146(2) -0.1812(2)
C24 C 0.3556(4) 0.3516(2) -0.1966(2)
C25 C 0.4007(4) 0.4413(3) -0.2540(3)
C26 C 0.3121(4) 0.4931(3) -0.2971(3)
C27 C 0.1773(4) 0.4571(3) -0.2823(3)
C28 C 0.1311(4) 0.3688(3) -0.2239(3)
N5 N 0.4484(3) 0.2958(2) -0.1543(2)
C29 C 0.5819(4) 0.2653(3) -0.2164(3)
O2 O 0.6379(3) 0.2888(2) -0.3109(2)
C30 C 0.6622(3) 0.1941(3) -0.1674(2)
C31 C 0.5994(4) 0.1351(3) -0.0776(3)
C32 C 0.6853(4) 0.0669(3) -0.0461(3)
N6 N 0.8263(3) 0.0537(2) -0.0982(2)
C33 C 0.8848(4) 0.1131(3) -0.1827(3)
C34 C 0.8091(4) 0.1836(3) -0.2197(3)
H1 H 0.3982 0.1707 -0.3107
H2 H 0.4392 -0.0121 -0.3506
H3 H 0.1767 -0.3467 -0.1680
H4 H -0.0282 -0.3864 -0.0026
H5 H 0.4250 -0.2762 -0.5346
H6 H 0.6221 -0.3505 -0.5046
H7 H 0.6486 -0.3313 -0.3395
H8 H 0.4778 -0.2387 -0.2053
H9 H 0.2107 -0.0967 -0.4182
H10 H -0.0414 -0.0489 -0.3237
H11 H -0.2198 0.0395 -0.3648
H12 H -0.2056 -0.1586 -0.5820
H13 H -0.0405 -0.2591 -0.5385
H14 H 0.4928 0.4666 -0.2634
H15 H 0.3437 0.5536 -0.3370
H16 H 0.1162 0.4928 -0.3121
H17 H 0.0377 0.3451 -0.2129
H18 H 0.4149 0.2798 -0.0801
H19 H 0.4990 0.1411 -0.0380
H20 H 0.6409 0.0272 0.0164
H21 H 0.9857 0.1066 -0.2201
H22 H 0.8573 0.2245 -0.2805
N1A N -0.1715(3) -0.0324(2) 0.1322(2)
C1A C -0.2232(3) -0.1267(2) 0.1698(2)
C2A C -0.3439(3) -0.1169(3) 0.2687(2)
C3A C -0.3661(3) -0.0174(3) 0.2908(2)
C4A C -0.2572(3) 0.0356(2) 0.2060(2)
C5A C -0.2403(3) 0.1397(2) 0.2021(2)
C6A C -0.1323(3) 0.1912(2) 0.1222(2)
C7A C -0.1183(4) 0.2995(3) 0.1174(3)
C8A C -0.0069(4) 0.3211(3) 0.0275(3)
C9A C 0.0491(3) 0.2263(2) -0.0241(3)
N2A N -0.0267(3) 0.1476(2) 0.0361(2)
N6A N 0.1737(3) -0.0537(2) 0.0982(2)
H4A H 0.0282 0.3864 0.0026
H3A H -0.1767 0.3467 0.1680
C11A C -0.3482(3) 0.2009(2) 0.2888(2)
C12A C -0.3341(4) 0.2134(2) 0.3876(3)
C13A C -0.4358(4) 0.2686(3) 0.4675(3)
C14A C -0.5525(4) 0.3125(3) 0.4499(3)
C15A C -0.5681(4) 0.3012(3) 0.3519(3)
C16A C -0.4666(4) 0.2459(3) 0.2723(3)
H8A H -0.4778 0.2387 0.2053
H7A H -0.6486 0.3313 0.3395
H6A H -0.6221 0.3505 0.5046
H5A H -0.4250 0.2762 0.5346
N3A N -0.2123(3) 0.1676(2) 0.4066(2)
C17A C -0.1012(4) 0.2213(3) 0.4085(3)
O1A O -0.0930(3) 0.3138(2) 0.3934(2)
C18A C 0.0171(4) 0.1617(3) 0.4299(3)
C19A C 0.0739(4) 0.0732(3) 0.3772(3)
C20A C 0.1792(4) 0.0202(3) 0.4034(3)
N4A N 0.2266(3) 0.0486(3) 0.4801(3)
C21A C 0.1725(4) 0.1362(3) 0.5281(3)
C22A C 0.0718(4) 0.1959(3) 0.5045(3)
H13A H 0.0405 0.2591 0.5385
H12A H 0.2056 0.1586 0.5820
H11A H 0.2198 -0.0395 0.3648
H10A H 0.0414 0.0489 0.3237
H9A H -0.2107 0.0967 0.4182
H2A H -0.4392 0.0121 0.3506
H1A H -0.3982 -0.1707 0.3107
C10A C -0.1651(3) -0.2184(2) 0.1212(2)
N6_2 N -0.1737(3) 0.0537(2) -0.0982(2)
Cu1_2 Cu 1.0000 0.0000 0.0000
Cu1_3 Cu -1.0000 0.0000 0.0000
C23A C -0.2201(3) -0.3146(2) 0.1812(2)
C24A C -0.3556(4) -0.3516(2) 0.1966(2)
C28A C -0.1311(4) -0.3688(3) 0.2239(3)
C25A C -0.4007(4) -0.4413(3) 0.2540(3)
N5A N -0.4484(3) -0.2958(2) 0.1543(2)
C27A C -0.1773(4) -0.4571(3) 0.2823(3)
H17A H -0.0377 -0.3451 0.2129
C26A C -0.3121(4) -0.4931(3) 0.2971(3)
H14A H -0.4928 -0.4666 0.2634
C29A C -0.5819(4) -0.2653(3) 0.2164(3)
H18A H -0.4149 -0.2798 0.0801
H16A H -0.1162 -0.4928 0.3121
H15A H -0.3437 -0.5536 0.3370
O2A O -0.6379(3) -0.2888(2) 0.3109(2)
C30A C -0.6622(3) -0.1941(3) 0.1674(2)
C31A C -0.5994(4) -0.1351(3) 0.0776(3)
C34A C -0.8091(4) -0.1836(3) 0.2197(3)
C32A C -0.6853(4) -0.0669(3) 0.0461(3)
H19A H -0.4990 -0.1411 0.0380
C33A C -0.8848(4) -0.1131(3) 0.1827(3)
H22A H -0.8573 -0.2245 0.2805
N6A_2 N -0.8263(3) -0.0537(2) 0.0982(2)
H20A H -0.6409 -0.0272 -0.0164
H21A H -0.9857 -0.1066 0.2201
C35 C -0.7604(5) 0.2201(4) -0.8484(4)
O3 O -0.6582(4) 0.2792(3) -0.9294(2)
C36 C -0.7120(7) 0.5409(5) -0.9438(5)
O4 O -0.6757(5) 0.4738(3) -0.8714(3)
O5 O -0.8644(5) 0.4489(4) -0.6749(3)
O6 O -0.7504(8) 0.5446(6) -0.5515(6)
O7? O -0.865(1) 0.511(1) -0.599(1)
loop_
_geom_bond_atom_site_label_1
_geom_bond_atom_site_label_2
_geom_bond_site_symmetry_1
_geom_bond_site_symmetry_2
Cu1 N1 1_555 1_555
N1 C1 1_555 1_555
C1 C2 1_555 1_555
C2 C3 1_555 1_555
C3 C4 1_555 1_555
C4 N1 1_555 1_555
C5 C4 1_555 1_555
C6 C5 1_555 1_555
C7 C6 1_555 1_555
C8 C7 1_555 1_555
C9 C8 1_555 1_555
N2 Cu1 1_555 1_555
C10 C1 1_555 1_555
C11 C5 1_555 1_555
C12 C11 1_555 1_555
C13 C12 1_555 1_555
C14 C13 1_555 1_555
C15 C14 1_555 1_555
C16 C11 1_555 1_555
N3 C12 1_555 1_555
C17 N3 1_555 1_555
O1 C17 1_555 1_555
C18 C17 1_555 1_555
C19 C18 1_555 1_555
C20 C19 1_555 1_555
N4 C20 1_555 1_555
C21 N4 1_555 1_555
C22 C18 1_555 1_555
C23 C10 1_555 1_555
C24 C23 1_555 1_555
C25 C24 1_555 1_555
C26 C25 1_555 1_555
C27 C26 1_555 1_555
C28 C23 1_555 1_555
N5 C24 1_555 1_555
C29 N5 1_555 1_555
O2 C29 1_555 1_555
C30 C29 1_555 1_555
C31 C30 1_555 1_555
C32 C31 1_555 1_555
N6 C32 1_555 1_555
C33 N6 1_555 1_555
C34 C30 1_555 1_555
H1 C2 1_555 1_555
H2 C3 1_555 1_555
H3 C7 1_555 1_555
H4 C8 1_555 1_555
H5 C13 1_555 1_555
H6 C14 1_555 1_555
H7 C15 1_555 1_555
H8 C16 1_555 1_555
H9 N3 1_555 1_555
H10 C19 1_555 1_555
H11 C20 1_555 1_555
H12 C21 1_555 1_555
H13 C22 1_555 1_555
H14 C25 1_555 1_555
H15 C26 1_555 1_555
H16 C27 1_555 1_555
H17 C28 1_555 1_555
H18 N5 1_555 1_555
H19 C31 1_555 1_555
H20 C32 1_555 1_555
H21 C33 1_555 1_555
H22 C34 1_555 1_555
C35 O3 1_555 1_555
C36 O4 1_555 1_555
N1A Cu1 1_555 1_555
C1A N1A 1_555 1_555
C2A C1A 1_555 1_555
C3A C2A 1_555 1_555
C4A N1A 1_555 1_555
C5A C4A 1_555 1_555
C6A C5A 1_555 1_555
C7A C6A 1_555 1_555
C8A C7A 1_555 1_555
C9A C10 1_555 1_555
N2A Cu1 1_555 1_555
N6A Cu1 1_555 1_555
H4A C8A 1_555 1_555
H3A C7A 1_555 1_555
C11A C5A 1_555 1_555
C12A C11A 1_555 1_555
C13A C12A 1_555 1_555
C14A C13A 1_555 1_555
C15A C14A 1_555 1_555
C16A C11A 1_555 1_555
H8A C16A 1_555 1_555
H7A C15A 1_555 1_555
H6A C14A 1_555 1_555
H5A C13A 1_555 1_555
N3A C12A 1_555 1_555
C17A N3A 1_555 1_555
O1A C17A 1_555 1_555
C18A C17A 1_555 1_555
C19A C18A 1_555 1_555
C20A C19A 1_555 1_555
N4A C20A 1_555 1_555
C21A N4A 1_555 1_555
C22A C18A 1_555 1_555
H13A C22A 1_555 1_555
H12A C21A 1_555 1_555
H11A C20A 1_555 1_555
H10A C19A 1_555 1_555
H9A N3A 1_555 1_555
H2A C3A 1_555 1_555
H1A C2A 1_555 1_555
C10A C9 1_555 1_555
N6_2 Cu1 1_555 1_555
Cu1_2 N6 1_555 1_555
Cu1_3 N6A_2 1_555 1_555
C23A C10A 1_555 1_555
C24A C23A 1_555 1_555
C28A C23A 1_555 1_555
C25A C24A 1_555 1_555
N5A C24A 1_555 1_555
C27A C28A 1_555 1_555
H17A C28A 1_555 1_555
C26A C25A 1_555 1_555
H14A C25A 1_555 1_555
C29A N5A 1_555 1_555
H18A N5A 1_555 1_555
H16A C27A 1_555 1_555
H15A C26A 1_555 1_555
O2A C29A 1_555 1_555
C30A C29A 1_555 1_555
C31A C30A 1_555 1_555
C34A C30A 1_555 1_555
C32A C31A 1_555 1_555
H19A C31A 1_555 1_555
C33A C34A 1_555 1_555
H22A C34A 1_555 1_555
N6A_2 C32A 1_555 1_555
H20A C32A 1_555 1_555
H21A C33A 1_555 1_555
C6 N2 1_555 1_555
C9 N2 1_555 1_555
C15 C16 1_555 1_555
C21 C22 1_555 1_555
C27 C28 1_555 1_555
C33 C34 1_555 1_555
C1A C10A 1_555 1_555
C3A C4A 1_555 1_555
C6A N2A 1_555 1_555
C8A C9A 1_555 1_555
C9A N2A 1_555 1_555
C15A C16A 1_555 1_555
C21A C22A 1_555 1_555
C27A C26A 1_555 1_555
C33A N6A_2 1_555 1_555

#END
