
#######################################################################
#
#                 Cambridge Crystallographic Data Centre
#                                CCDC 
#
#######################################################################
#
# If this CIF has been generated from an entry in the Cambridge 
# Structural Database, then it will include bibliographic, chemical, 
# crystal, experimental, refinement or atomic coordinate data resulting 
# from the CCDC's data processing and validation procedures.
#
#######################################################################

data_WUJREA
_symmetry_cell_setting           monoclinic
_symmetry_space_group_name_H-M   'P 21/c'
_symmetry_Int_Tables_number      14
_space_group_name_Hall           '-P 2ybc'
loop_
_symmetry_equiv_pos_site_id
_symmetry_equiv_pos_as_xyz
1 x,y,z
2 -x,1/2+y,1/2-z
3 -x,-y,-z
4 x,1/2-y,1/2+z
_cell_length_a                   12.459(3)
_cell_length_b                   13.192(3)
_cell_length_c                   17.662(6)
_cell_angle_alpha                90
_cell_angle_beta                 127.91(2)
_cell_angle_gamma                90
_cell_volume                     2290.33
loop_
_atom_site_label
_atom_site_type_symbol
_atom_site_fract_x
_atom_site_fract_y
_atom_site_fract_z
Zn1 Zn 0.20700(5) 0.05437(4) 0.22311(4)
O1 O 0.1047(4) -0.0718(3) 0.1729(3)
O2 O 0.2893(4) -0.1603(4) 0.2776(3)
N1 N 0.3981(4) 0.1166(3) 0.3197(3)
N2 N 0.2755(4) 0.0818(3) 0.1375(3)
N3 N 0.2394(4) 0.0564(3) 0.3617(3)
N4 N 1.0323(4) 0.3540(3) 0.6384(3)
C1 C 0.1667(5) -0.1545(4) 0.2150(3)
C2 C 0.0759(7) -0.2462(5) 0.1812(5)
H1 H 0.0155 -0.2479 0.1123
H2 H 0.0236 -0.2426 0.2043
H3 H 0.1306 -0.3065 0.2053
C3 C 0.4665(5) 0.1470(4) 0.2878(3)
C4 C 0.3971(4) 0.1279(4) 0.1843(3)
C5 C 0.2050(6) 0.0638(5) 0.0430(4)
H4 H 0.1201 0.0332 0.0099
C6 C 0.2533(6) 0.0889(5) -0.0061(4)
H5 H 0.2027 0.0742 -0.0711
C7 C 0.3769(6) 0.1358(5) 0.0414(4)
H6 H 0.4108 0.1540 0.0088
C8 C 0.4510(5) 0.1559(4) 0.1385(4)
H7 H 0.5354 0.1876 0.1722
C9 C 0.5923(5) 0.1936(4) 0.3493(3)
H8 H 0.6398 0.2142 0.3270
C10 C 0.6469(4) 0.2091(4) 0.4444(3)
C11 C 0.5727(5) 0.1782(4) 0.4754(3)
H9 H 0.6065 0.1886 0.5386
C12 C 0.4484(4) 0.1320(3) 0.4110(3)
C13 C 0.3600(4) 0.0956(4) 0.4356(3)
C14 C 0.1559(5) 0.0232(5) 0.3799(4)
H10 H 0.0737 -0.0061 0.3301
C15 C 0.1854(6) 0.0302(5) 0.4688(4)
H11 H 0.1224 0.0092 0.4776
C16 C 0.3079(6) 0.0684(4) 0.5435(4)
H12 H 0.3308 0.0724 0.6045
C17 C 0.3988(5) 0.1014(4) 0.5274(4)
H13 H 0.4838 0.1269 0.5775
C18 C 0.7811(5) 0.2590(4) 0.5122(3)
C19 C 0.8028(5) 0.3304(4) 0.5786(4)
H14 H 0.7330 0.3480 0.5814
C20 C 0.8898(5) 0.2375(4) 0.5119(4)
H15 H 0.8801 0.1907 0.4687
C21 C 0.9293(5) 0.3743(4) 0.6400(4)
H16 H 0.9434 0.4206 0.6849
C22 C 1.0113(5) 0.2856(4) 0.5757(4)
H17 H 1.0833 0.2694 0.5750
Zn1C Zn 1.20700(5) 0.44563(4) 0.72311(4)
N4C N 0.0323(4) 0.1460(3) 0.1384(3)
P1 P 0.26714(18) 0.42614(13) 0.25979(12)
F1 F 0.2825(6) 0.3347(4) 0.2085(4)
F2 F 0.2458(9) 0.5119(5) 0.3082(5)
F3 F 0.3294(10) 0.5018(6) 0.2306(6)
F4 F 0.1340(7) 0.4463(7) 0.1578(5)
F5 F 0.4011(9) 0.4049(8) 0.3610(5)
F6 F 0.1885(16) 0.3486(9) 0.2810(9)
F7? F 0.407(4) 0.438(2) 0.285(2)
F8? F 0.318(3) 0.344(3) 0.3327(15)
F9? F 0.140(5) 0.410(3) 0.241(3)
loop_
_geom_bond_atom_site_label_1
_geom_bond_atom_site_label_2
_geom_bond_site_symmetry_1
_geom_bond_site_symmetry_2
Zn1 O1 1_555 1_555
O1 C1 1_555 1_555
O2 C1 1_555 1_555
N1 Zn1 1_555 1_555
N2 Zn1 1_555 1_555
N3 Zn1 1_555 1_555
N4 C21 1_555 1_555
C1 C2 1_555 1_555
C2 H1 1_555 1_555
H2 C2 1_555 1_555
H3 C2 1_555 1_555
C3 N1 1_555 1_555
C4 N2 1_555 1_555
C5 N2 1_555 1_555
H4 C5 1_555 1_555
C6 C5 1_555 1_555
H5 C6 1_555 1_555
C7 C6 1_555 1_555
H6 C7 1_555 1_555
C8 C4 1_555 1_555
H7 C8 1_555 1_555
C9 C3 1_555 1_555
H8 C9 1_555 1_555
C10 C9 1_555 1_555
C11 C10 1_555 1_555
H9 C11 1_555 1_555
C12 N1 1_555 1_555
C13 N3 1_555 1_555
C14 N3 1_555 1_555
H10 C14 1_555 1_555
C15 C14 1_555 1_555
H11 C15 1_555 1_555
C16 C15 1_555 1_555
H12 C16 1_555 1_555
C17 C13 1_555 1_555
H13 C17 1_555 1_555
C18 C10 1_555 1_555
C19 C18 1_555 1_555
H14 C19 1_555 1_555
C20 C18 1_555 1_555
H15 C20 1_555 1_555
C21 C19 1_555 1_555
H16 C21 1_555 1_555
C22 N4 1_555 1_555
H17 C22 1_555 1_555
P1 F1 1_555 1_555
F2 P1 1_555 1_555
F3 P1 1_555 1_555
F4 P1 1_555 1_555
F5 P1 1_555 1_555
F6 P1 1_555 1_555
Zn1C N4 1_555 1_555
N4C Zn1 1_555 1_555
C3 C4 1_555 1_555
C7 C8 1_555 1_555
C11 C12 1_555 1_555
C12 C13 1_555 1_555
C16 C17 1_555 1_555
C20 C22 1_555 1_555

#END
