
#######################################################################
#
#                 Cambridge Crystallographic Data Centre
#                                CCDC 
#
#######################################################################
#
# If this CIF has been generated from an entry in the Cambridge 
# Structural Database, then it will include bibliographic, chemical, 
# crystal, experimental, refinement or atomic coordinate data resulting 
# from the CCDC's data processing and validation procedures.
#
#######################################################################

data_WUJSIF
_symmetry_cell_setting           orthorhombic
_symmetry_space_group_name_H-M   'P n m a'
_symmetry_Int_Tables_number      62
_space_group_name_Hall           '-P 2ac 2n'
loop_
_symmetry_equiv_pos_site_id
_symmetry_equiv_pos_as_xyz
1 x,y,z
2 1/2-x,-y,1/2+z
3 -x,1/2+y,-z
4 1/2+x,1/2-y,1/2-z
5 -x,-y,-z
6 1/2+x,y,1/2-z
7 x,1/2-y,z
8 1/2-x,1/2+y,1/2+z
_cell_length_a                   29.508(19)
_cell_length_b                   23.454(15)
_cell_length_c                   15.429(10)
_cell_angle_alpha                90
_cell_angle_beta                 90
_cell_angle_gamma                90
_cell_volume                     10678.1
loop_
_atom_site_label
_atom_site_type_symbol
_atom_site_fract_x
_atom_site_fract_y
_atom_site_fract_z
O44 O 0.4311(3) 0.7154(4) 0.9124(6)
O45 O 0.4693(4) 0.7168(5) 0.7664(7)
O46 O 0.3889(3) 0.7500 0.7708(6)
O47 O 0.4424(4) 0.6896(5) 0.8348(8)
P7 P 0.43423(9) 0.7500 0.82264(18)
O44F O 0.4311(3) 0.7846(4) 0.9124(6)
O45F O 0.4693(4) 0.7832(5) 0.7664(7)
O47F O 0.4424(4) 0.8104(5) 0.8348(8)
C8 C 0.1447(3) 0.5791(3) 0.5594(5)
H12 H 0.1427 0.5750 0.4995
C9 C 0.1442(3) 0.6326(3) 0.5944(5)
H13 H 0.1416 0.6643 0.5585
C10 C 0.1476(2) 0.6398(3) 0.6830(4)
C11 C 0.1528(4) 0.5903(4) 0.7319(5)
H14 H 0.1567 0.5932 0.7916
C12 C 0.1525(4) 0.5382(4) 0.6944(5)
H15 H 0.1554 0.5056 0.7284
C13 C 0.1469(3) 0.6966(3) 0.7281(5)
H16 H 0.1735 0.6988 0.7649
H17 H 0.1206 0.6975 0.7657
C14 C 0.1458(4) 0.7500 0.6717(6)
H18 H 0.1717 0.7500 0.6330
H19 H 0.1185 0.7500 0.6367
N2 N 0.1479(2) 0.5333(3) 0.6082(4)
H20 H 0.1470 0.5000 0.5848
C8F C 0.1447(3) 0.9209(3) 0.5594(5)
H12F H 0.1427 0.9250 0.4995
C9F C 0.1442(3) 0.8674(3) 0.5944(5)
H13F H 0.1416 0.8357 0.5585
C10F C 0.1476(2) 0.8602(3) 0.6830(4)
C11F C 0.1528(4) 0.9097(4) 0.7319(5)
H14F H 0.1567 0.9068 0.7916
C12F C 0.1525(4) 0.9618(4) 0.6944(5)
H15F H 0.1554 0.9944 0.7284
C13F C 0.1469(3) 0.8034(3) 0.7281(5)
H16F H 0.1735 0.8012 0.7649
H17F H 0.1206 0.8025 0.7657
N2F N 0.1479(2) 0.9667(3) 0.6082(4)
H20F H 0.1470 1.0000 0.5848
O48 O 0.0305(7) 0.4398(10) 0.5624(13)
C15 C 0.9299(3) 0.6512(3) -0.0979(7)
H21 H 0.9383 0.6887 -0.0870
N3 N 0.9304(3) 0.6303(3) -0.1822(6)
H22 H 0.9384 0.6522 -0.2243
C16 C 0.9178(3) 0.5742(4) -0.1985(4)
H23 H 0.9181 0.5603 -0.2549
C17 C 0.9049(3) 0.5389(3) -0.1304(5)
H24 H 0.8965 0.5014 -0.1413
C18 C 0.9045(3) 0.5598(4) -0.0461(4)
C19 C 0.9170(3) 0.6159(4) -0.0298(5)
H25 H 0.9167 0.6299 0.0266
C20 C 0.8848(6) 0.5229(8) 0.0262(9)
H26 H 0.8555 0.5386 0.0419
H27 H 0.8795 0.4851 0.0028
C21 C 0.9103(8) 0.5169(11) 0.1025(13)
H28 H 0.8928 0.4959 0.1448
H29 H 0.9165 0.5544 0.1263
C22 C 0.9562(7) 0.4854(13) 0.0865(15)
H30 H 0.9793 0.5115 0.0661
H31 H 0.9526 0.4549 0.0446
C23 C 0.9903(5) 0.4709(6) 0.3277(8)
H32 H 1.0004 0.4934 0.3733
C24 C 0.9837(5) 0.4948(5) 0.2463(11)
H33 H 0.9895 0.5334 0.2374
C25 C 0.9684(5) 0.4612(7) 0.1780(8)
C26 C 0.9598(5) 0.4036(6) 0.1912(8)
H34 H 0.9496 0.3811 0.1456
C27 C 0.9664(4) 0.3796(4) 0.2727(10)
H35 H 0.9606 0.3411 0.2815
N4 N 0.9816(4) 0.4132(6) 0.3409(7)
H36 H 0.9857 0.3984 0.3913
Mo1 Mo 0.195388(13) 0.379064(17) 0.62289(3)
Mo2 Mo 0.178572(13) 0.324970(17) 0.76631(3)
O1 O 0.22925(11) 0.31820(14) 0.6827(2)
O2 O 0.14044(11) 0.37039(14) 0.6901(2)
O3 O 0.24028(11) 0.36759(14) 0.5179(2)
O4 O 0.21996(12) 0.43877(15) 0.6620(2)
O5 O 0.16905(11) 0.30371(14) 0.5454(2)
O6 O 0.15535(12) 0.42287(15) 0.5335(2)
O7 O 0.20408(15) 0.2500 0.8220(3)
O8 O 0.15111(15) 0.2500 0.6826(3)
O9 O 0.19911(12) 0.37160(16) 0.8387(2)
O10 O 0.12017(11) 0.30421(15) 0.8325(2)
Mn1 Mn 0.27496(3) 0.2500 0.63864(6)
Mo3 Mo 0.218003(14) 0.305755(18) 0.42906(3)
P1 P 0.14498(5) 0.2500 0.58279(11)
P2 P 0.14159(5) 0.41225(6) 0.43809(9)
P3 P 0.09275(6) 0.2500 0.85005(11)
O11 O 0.29772(15) 0.2500 0.7759(3)
O12 O 0.25069(15) 0.2500 0.5020(3)
O13 O 0.31887(11) 0.31867(14) 0.5923(2)
O14 O 0.17668(17) 0.2500 0.3797(3)
O15 O 0.17200(12) 0.36821(16) 0.3938(2)
O16 O 0.25555(13) 0.31983(16) 0.3501(2)
O17 O 0.09511(16) 0.2500 0.5588(3)
O18 O 0.14097(17) 0.4681(2) 0.3900(3)
O19 O 0.09242(15) 0.3878(2) 0.4393(4)
O20 O 0.04809(16) 0.2500 0.8018(3)
O21 O 0.08270(17) 0.2500 0.9510(3)
Mo4 Mo 0.331394(13) 0.305526(17) 0.84790(3)
Mo5 Mo 0.352655(14) 0.380144(17) 0.65256(3)
Mo6 Mo 0.370008(14) 0.325040(18) 0.50971(3)
H1 H 0.0925 0.2500 0.5059
Na1 Na 0.2142(2) 0.5258(2) 0.3270(4)
H2 H 0.0755 0.4104 0.4637
Mn2 Mn 0.00102(3) 0.18257(3) 0.74954(6)
O22 O 0.37345(16) 0.2500 0.8958(3)
O23 O 0.30796(11) 0.36718(14) 0.7584(2)
O24 O 0.37813(12) 0.36685(15) 0.8818(2)
O25 O 0.37837(11) 0.30357(13) 0.7291(2)
O26 O 0.29471(13) 0.32023(17) 0.9281(2)
O27 O 0.40755(11) 0.37162(15) 0.5855(2)
O28 O 0.39245(13) 0.42075(15) 0.7422(2)
O29 O 0.32734(13) 0.43894(16) 0.6132(3)
O30 O 0.34458(16) 0.2500 0.4536(3)
O31 O 0.39627(15) 0.2500 0.5934(3)
O32 O 0.34976(13) 0.37117(17) 0.4359(2)
O33 O 0.42872(12) 0.30424(16) 0.4460(2)
N1 N 0.2244(2) 0.4575(2) 0.1706(3)
O34 O 0.2870(4) 0.4723(4) 0.3992(6)
Na2 Na 0.4506(3) 0.2500 0.9892(6)
P4 P 0.41310(4) 0.40116(6) 0.82898(9)
P5 P 0.40269(5) 0.2500 0.69331(11)
P6 P 0.45719(6) 0.2500 0.43318(13)
C1 C 0.2319(2) 0.4543(3) 0.0847(4)
C2 C 0.2087(3) 0.4130(3) 0.2150(4)
O35 O 0.51292(19) 0.2500 0.8600(4)
O36 O 0.4880(8) 0.3560(10) 1.0141(19)
O37 O 0.45754(12) 0.37088(17) 0.8200(3)
O38 O 0.42368(13) 0.45700(16) 0.8829(3)
O39 O 0.45216(15) 0.2500 0.7193(3)
O40 O 0.4983(2) 0.2500 0.4905(5)
O41 O 0.4701(3) 0.2500 0.3343(5)
H3 H 0.2433 0.4857 0.0550
C3 C 0.2228(2) 0.4051(3) 0.0412(4)
C4 C 0.1999(3) 0.3628(3) 0.1739(4)
H4 H 0.2038 0.4163 0.2743
H5 H 0.4003 0.4753 0.8896
H6 H 0.2277 0.4033 -0.0183
C5 C 0.2063(2) 0.3575(2) 0.0843(4)
H7 H 0.1895 0.3317 0.2057
O42 O 0.49459(14) 0.3480(2) 0.6153(3)
O43 O 0.55130(16) 0.3755(2) 0.7950(5)
C6 C 0.1956(2) 0.3040(3) 0.0359(4)
H8 H 0.2135 0.3032 -0.0168
H9 H 0.1639 0.3048 0.0192
C7 C 0.2044(5) 0.2500 0.0855(7)
H10 H 0.2357 0.2500 0.1045
H11 H 0.1855 0.2500 0.1370
Mo2F Mo 0.178572(13) 0.175030(17) 0.76631(3)
O1F O 0.22925(11) 0.18180(14) 0.6827(2)
O13F O 0.31887(11) 0.18133(14) 0.5923(2)
Mo3F Mo 0.218003(14) 0.194245(18) 0.42906(3)
O5F O 0.16905(11) 0.19629(14) 0.5454(2)
O10F O 0.12017(11) 0.19579(15) 0.8325(2)
Mo1F Mo 0.195388(13) 0.120936(17) 0.62289(3)
O2F O 0.14044(11) 0.12961(14) 0.6901(2)
O9F O 0.19911(12) 0.12840(16) 0.8387(2)
Mo4F Mo 0.331394(13) 0.194474(17) 0.84790(3)
Mo5F Mo 0.352655(14) 0.119856(17) 0.65256(3)
Mo6F Mo 0.370008(14) 0.174960(18) 0.50971(3)
O3F O 0.24028(11) 0.13241(14) 0.5179(2)
O15F O 0.17200(12) 0.13179(16) 0.3938(2)
O16F O 0.25555(13) 0.18017(16) 0.3501(2)
O4F O 0.21996(12) 0.06123(15) 0.6620(2)
O6F O 0.15535(12) 0.07713(15) 0.5335(2)
Mn2F Mn 0.00102(3) 0.31743(3) 0.74954(6)
O25F O 0.37837(11) 0.19643(13) 0.7291(2)
O23F O 0.30796(11) 0.13282(14) 0.7584(2)
O24F O 0.37813(12) 0.13315(15) 0.8818(2)
O26F O 0.29471(13) 0.17977(17) 0.9281(2)
O27F O 0.40755(11) 0.12838(15) 0.5855(2)
O28F O 0.39245(13) 0.07925(15) 0.7422(2)
O29F O 0.32734(13) 0.06106(16) 0.6132(3)
O33F O 0.42872(12) 0.19576(16) 0.4460(2)
O32F O 0.34976(13) 0.12883(17) 0.4359(2)
P2F P 0.14159(5) 0.08775(6) 0.43809(9)
O23A O 0.19204(11) 0.63282(14) 0.2584(2)
Na1A Na 0.2858(2) 0.4742(2) 0.8270(4)
Na1G Na 0.2858(2) 0.0258(2) 0.8270(4)
P4F P 0.41310(4) 0.09884(6) 0.82898(9)
O18F O 0.14097(17) 0.0319(2) 0.3900(3)
O19F O 0.09242(15) 0.1122(2) 0.4393(4)
O36F O 0.4880(8) 0.1440(10) 1.0141(19)
O37F O 0.45754(12) 0.12912(17) 0.8200(3)
O38F O 0.42368(13) 0.04300(16) 0.8829(3)
Na1F Na 0.2142(2) -0.0258(2) 0.3270(4)
H2F H 0.0755 0.0896 0.4637
Mn2C Mn 0.50102(3) 0.31743(3) 0.75046(6)
Mn2E Mn 0.50102(3) 0.18257(3) 0.75046(6)
H5F H 0.4003 0.0247 0.8896
N1F N 0.2244(2) 0.0425(2) 0.1706(3)
O34F O 0.2870(4) 0.0277(4) 0.3992(6)
O23G O 0.19204(11) -0.13282(14) 0.2584(2)
O20C O 0.54809(16) 0.2500 0.6982(3)
O42F O 0.49459(14) 0.1520(2) 0.6153(3)
O43F O 0.55130(16) 0.1245(2) 0.7950(5)
C1F C 0.2319(2) 0.0457(3) 0.0847(4)
C2F C 0.2087(3) 0.0870(3) 0.2150(4)
H3F H 0.2433 0.0143 0.0550
C3F C 0.2228(2) 0.0949(3) 0.0412(4)
C4F C 0.1999(3) 0.1372(3) 0.1739(4)
H4F H 0.2038 0.0837 0.2743
H6F H 0.2277 0.0967 -0.0183
C5F C 0.2063(2) 0.1425(2) 0.0843(4)
H7F H 0.1895 0.1683 0.2057
C6F C 0.1956(2) 0.1960(3) 0.0359(4)
H8F H 0.2135 0.1968 -0.0168
H9F H 0.1639 0.1952 0.0192
H37? H 0.3691 0.7656 0.7996
H38? H 0.4850 0.2215 0.3232
H39? H 0.0681 0.2785 0.9637
loop_
_geom_bond_atom_site_label_1
_geom_bond_atom_site_label_2
_geom_bond_site_symmetry_1
_geom_bond_site_symmetry_2
Mo1 Mo2 1_555 1_555
Mo2 O1 1_555 1_555
O1 Mo1 1_555 1_555
O2 Mo1 1_555 1_555
O3 Mo1 1_555 1_555
O4 Mo1 1_555 1_555
O5 Mo1 1_555 1_555
O6 Mo1 1_555 1_555
O7 Mo2 1_555 1_555
O8 Mo2 1_555 1_555
O9 Mo2 1_555 1_555
O10 Mo2 1_555 1_555
Mn1 O1 1_555 1_555
Mo3 O3 1_555 1_555
P1 O5 1_555 1_555
P2 O6 1_555 1_555
P3 O10 1_555 1_555
O11 Mn1 1_555 1_555
O12 Mn1 1_555 1_555
O13 Mn1 1_555 1_555
O14 Mo3 1_555 1_555
O15 Mo3 1_555 1_555
O16 Mo3 1_555 1_555
O17 P1 1_555 1_555
O18 P2 1_555 1_555
O19 P2 1_555 1_555
O20 P3 1_555 1_555
O21 P3 1_555 1_555
Mo4 O11 1_555 1_555
Mo5 O13 1_555 1_555
Mo6 O13 1_555 1_555
H1 O17 1_555 1_555
Na1 O18 1_555 1_555
H2 O19 1_555 1_555
Mn2 O20 1_555 1_555
O22 Mo4 1_555 1_555
O23 Mo4 1_555 1_555
O24 Mo4 1_555 1_555
O25 Mo4 1_555 1_555
O26 Mo4 1_555 1_555
O27 Mo5 1_555 1_555
O28 Mo5 1_555 1_555
O29 Mo5 1_555 1_555
O30 Mo6 1_555 1_555
O31 Mo6 1_555 1_555
O32 Mo6 1_555 1_555
O33 Mo6 1_555 1_555
N1 Na1 1_555 1_555
O34 Na1 1_555 1_555
Na2 O22 1_555 1_555
P4 O24 1_555 1_555
P5 O25 1_555 1_555
P6 O33 1_555 1_555
C1 N1 1_555 1_555
C2 N1 1_555 1_555
O35 Na2 1_555 1_555
O36 Na2 1_555 1_555
O37 P4 1_555 1_555
O38 P4 1_555 1_555
O39 P5 1_555 1_555
O40 P6 1_555 1_555
O41 P6 1_555 1_555
H3 C1 1_555 1_555
C3 C1 1_555 1_555
C4 C2 1_555 1_555
H4 C2 1_555 1_555
H5 O38 1_555 1_555
H6 C3 1_555 1_555
C5 C3 1_555 1_555
H7 C4 1_555 1_555
O42 Mn2C 1_555 1_555
O43 Mn2C 1_555 1_555
C6 C5 1_555 1_555
H8 C6 1_555 1_555
H9 C6 1_555 1_555
C7 C6 1_555 1_555
H10 C7 1_555 1_555
H11 C7 1_555 1_555
O44 P7 1_555 1_555
O45 P7 1_555 1_555
O46 P7 1_555 1_555
O47 P7 1_555 1_555
P7 O44F 1_555 1_555
C8 H12 1_555 1_555
C9 C8 1_555 1_555
H13 C9 1_555 1_555
C10 C9 1_555 1_555
C11 C10 1_555 1_555
H14 C11 1_555 1_555
C12 C11 1_555 1_555
H15 C12 1_555 1_555
C13 C10 1_555 1_555
H16 C13 1_555 1_555
H17 C13 1_555 1_555
C14 C13 1_555 1_555
H18 C14 1_555 1_555
H19 C14 1_555 1_555
N2 C8 1_555 1_555
H20 N2 1_555 1_555
C15 H21 1_555 1_555
N3 C15 1_555 1_555
H22 N3 1_555 1_555
C16 N3 1_555 1_555
H23 C16 1_555 1_555
C17 C16 1_555 1_555
H24 C17 1_555 1_555
C18 C17 1_555 1_555
C19 C15 1_555 1_555
H25 C19 1_555 1_555
C20 C18 1_555 1_555
H26 C20 1_555 1_555
H27 C20 1_555 1_555
C21 C20 1_555 1_555
H28 C21 1_555 1_555
H29 C21 1_555 1_555
C22 C21 1_555 1_555
H30 C22 1_555 1_555
H31 C22 1_555 1_555
C23 H32 1_555 1_555
C24 C23 1_555 1_555
H33 C24 1_555 1_555
C25 C22 1_555 1_555
C26 C25 1_555 1_555
H34 C26 1_555 1_555
C27 C26 1_555 1_555
H35 C27 1_555 1_555
N4 C23 1_555 1_555
H36 N4 1_555 1_555
Mo2F O7 1_555 1_555
O1F Mn1 1_555 1_555
O13F Mn1 1_555 1_555
Mo3F Mo3 1_555 1_555
O5F P1 1_555 1_555
O10F P3 1_555 1_555
Mo1F Mo2F 1_555 1_555
O2F Mo2F 1_555 1_555
O9F Mo2F 1_555 1_555
Mo4F O11 1_555 1_555
Mo5F O13F 1_555 1_555
Mo6F O30 1_555 1_555
O3F Mo3F 1_555 1_555
O15F Mo3F 1_555 1_555
O16F Mo3F 1_555 1_555
O4F Mo1F 1_555 1_555
O6F Mo1F 1_555 1_555
Mn2F O20 1_555 1_555
O25F P5 1_555 1_555
O23F Mo4F 1_555 1_555
O24F Mo4F 1_555 1_555
O26F Mo4F 1_555 1_555
O27F Mo5F 1_555 1_555
O28F Mo5F 1_555 1_555
O29F Mo5F 1_555 1_555
O33F P6 1_555 1_555
O32F Mo6F 1_555 1_555
P2F O15F 1_555 1_555
O23A Na1 1_555 1_555
Na1A O23 1_555 1_555
Na1G O23F 1_555 1_555
P4F O24F 1_555 1_555
O18F P2F 1_555 1_555
O19F P2F 1_555 1_555
O36F Na2 1_555 1_555
O37F P4F 1_555 1_555
O38F P4F 1_555 1_555
Na1F O18F 1_555 1_555
H2F O19F 1_555 1_555
Mn2C O35 1_555 1_555
Mn2E O35 1_555 1_555
H5F O38F 1_555 1_555
N1F Na1F 1_555 1_555
O34F Na1F 1_555 1_555
O23G Na1F 1_555 1_555
O20C Mn2C 1_555 1_555
O42F Mn2E 1_555 1_555
O43F Mn2E 1_555 1_555
C1F N1F 1_555 1_555
C2F N1F 1_555 1_555
H3F C1F 1_555 1_555
C3F C1F 1_555 1_555
C4F C2F 1_555 1_555
H4F C2F 1_555 1_555
H6F C3F 1_555 1_555
C5F C3F 1_555 1_555
H7F C4F 1_555 1_555
C6F C7 1_555 1_555
H8F C6F 1_555 1_555
H9F C6F 1_555 1_555
O45F P7 1_555 1_555
O47F P7 1_555 1_555
C8F H12F 1_555 1_555
C9F C8F 1_555 1_555
H13F C9F 1_555 1_555
C10F C9F 1_555 1_555
C11F C10F 1_555 1_555
H14F C11F 1_555 1_555
C12F C11F 1_555 1_555
H15F C12F 1_555 1_555
C13F C14 1_555 1_555
H16F C13F 1_555 1_555
H17F C13F 1_555 1_555
N2F C8F 1_555 1_555
H20F N2F 1_555 1_555
Mo2 O2 1_555 1_555
O5 Mo3 1_555 1_555
O8 P1 1_555 1_555
O8 Mo2F 1_555 1_555
Mo3 O12 1_555 1_555
P2 O15 1_555 1_555
O12 Mo3F 1_555 1_555
O14 Mo3F 1_555 1_555
Mo4 Mo4F 1_555 1_555
Mo5 Mo6 1_555 1_555
Mo5 O23 1_555 1_555
Mo5 O25 1_555 1_555
Mo6 O27 1_555 1_555
O22 Mo4F 1_555 1_555
O28 P4 1_555 1_555
O31 P5 1_555 1_555
O31 Mo6F 1_555 1_555
O37 Mn2C 1_555 1_555
O39 Mn2C 1_555 1_555
O39 Mn2E 1_555 1_555
C4 C5 1_555 1_555
C12 N2 1_555 1_555
C18 C19 1_555 1_555
C24 C25 1_555 1_555
C27 N4 1_555 1_555
Mo2F O1F 1_555 1_555
Mo2F O10F 1_555 1_555
O1F Mo1F 1_555 1_555
O13F Mo6F 1_555 1_555
Mo3F O5F 1_555 1_555
O5F Mo1F 1_555 1_555
Mo1F O2F 1_555 1_555
Mo1F O3F 1_555 1_555
Mo4F O25F 1_555 1_555
Mo5F Mo6F 1_555 1_555
Mo5F O25F 1_555 1_555
Mo5F O23F 1_555 1_555
Mo6F O27F 1_555 1_555
Mo6F O33F 1_555 1_555
O6F P2F 1_555 1_555
O28F P4F 1_555 1_555
O37F Mn2E 1_555 1_555
Mn2E O20C 1_555 1_555
C4F C5F 1_555 1_555
C5F C6F 1_555 1_555
C10F C13F 1_555 1_555
C12F N2F 1_555 1_555

#END
