
#######################################################################
#
#                 Cambridge Crystallographic Data Centre
#                                CCDC 
#
#######################################################################
#
# If this CIF has been generated from an entry in the Cambridge 
# Structural Database, then it will include bibliographic, chemical, 
# crystal, experimental, refinement or atomic coordinate data resulting 
# from the CCDC's data processing and validation procedures.
#
#######################################################################

data_WUJSID
_symmetry_cell_setting           triclinic
_symmetry_space_group_name_H-M   'P -1'
_symmetry_Int_Tables_number      2
_space_group_name_Hall           '-P 1'
loop_
_symmetry_equiv_pos_site_id
_symmetry_equiv_pos_as_xyz
1 x,y,z
2 -x,-y,-z
_cell_length_a                   8.638(3)
_cell_length_b                   10.625(3)
_cell_length_c                   14.376(4)
_cell_angle_alpha                96.975(5)
_cell_angle_beta                 102.110(4)
_cell_angle_gamma                104.372(4)
_cell_volume                     1228.53
loop_
_atom_site_label
_atom_site_type_symbol
_atom_site_fract_x
_atom_site_fract_y
_atom_site_fract_z
La1 La 1.19609(3) 0.84651(2) 0.497145(19)
La2 La 1.66931(3) 0.72478(2) 0.510570(19)
O1 O 1.5018(4) 0.6760(4) 0.6293(3)
O2 O 1.2405(4) 0.6788(4) 0.5913(3)
O3 O 0.9307(4) 0.3772(3) 0.6149(3)
O4 O 1.1546(5) 0.3819(4) 0.5633(3)
O5 O 1.2160(4) 1.0878(3) 0.5803(3)
O6 O 1.0210(4) 1.1422(3) 0.6409(3)
O7 O 0.9807(4) 0.8449(3) 0.5880(3)
O8 O 0.8572(5) 0.7604(4) 0.6926(3)
O9 O 1.4519(4) 0.9425(3) 0.6307(3)
O10 O 1.6874(4) 0.9584(3) 0.5876(2)
O11 O 1.5851(4) 1.2094(3) 0.5792(2)
O12 O 1.4908(4) 1.3321(4) 0.6745(3)
O13 O 1.6624(5) 0.4998(4) 0.5658(3)
C1 C 1.3621(6) 0.6545(4) 0.6443(4)
C2 C 1.3318(6) 0.5943(5) 0.7294(4)
C3 C 1.4408(8) 0.6460(6) 0.8194(5)
H1 H 1.5353 0.7144 0.8248
C4 C 1.4122(10) 0.5985(8) 0.9003(5)
H2 H 1.4863 0.6355 0.9601
C5 C 1.2732(10) 0.4954(7) 0.8938(5)
H3 H 1.2543 0.4622 0.9486
C6 C 1.1628(8) 0.4425(6) 0.8042(5)
H4 H 1.0678 0.3748 0.7992
C7 C 1.1930(6) 0.4898(5) 0.7221(4)
C8 C 1.0840(6) 0.4136(4) 0.6258(4)
C9 C 1.1406(5) 1.0957(4) 0.6461(3)
C10 C 1.1971(6) 1.0482(5) 0.7388(4)
C11 C 1.3221(7) 1.1337(6) 0.8135(4)
H5 H 1.3725 1.2187 0.8059
C12 C 1.3697(8) 1.0914(7) 0.8980(4)
H6 H 1.4553 1.1480 0.9472
C13 C 1.2957(9) 0.9690(8) 0.9126(5)
H7 H 1.3314 0.9427 0.9708
C14 C 1.1666(7) 0.8833(7) 0.8402(5)
H8 H 1.1136 0.8004 0.8502
C15 C 1.1178(6) 0.9231(5) 0.7528(4)
C16 C 0.9765(6) 0.8341(5) 0.6746(4)
C17 C 1.5780(6) 1.2553(4) 0.6640(4)
C18 C 1.6717(6) 1.2133(5) 0.7474(4)
C19 C 1.7451(7) 1.3007(6) 0.8349(4)
H9 H 1.7279 1.3839 0.8430
C20 C 1.8436(8) 1.2642(7) 0.9097(5)
H10 H 1.8934 1.3229 0.9681
C21 C 1.8674(8) 1.1400(7) 0.8972(4)
H11 H 1.9352 1.1159 0.9471
C22 C 1.7920(7) 1.0511(6) 0.8117(4)
H12 H 1.8073 0.9672 0.8047
C23 C 1.6932(6) 1.0870(5) 0.7360(4)
C24 C 1.6020(6) 0.9883(4) 0.6453(3)
H13 H 1.747(6) 0.464(6) 0.569(5)
H14 H 1.671(10) 0.487(8) 0.627(2)
O3A O 1.0693(4) 0.6228(3) 0.3851(3)
O6A O 0.9790(4) 0.8578(3) 0.3591(3)
O10A O 1.3126(4) 1.0416(3) 0.4124(2)
O11A O 1.4149(4) 0.7906(3) 0.4208(2)
O4A O 1.8454(5) 0.6181(4) 0.4367(3)
O5A O 1.7840(4) 0.9122(3) 0.4197(3)
O7_2 O 1.9807(4) 0.8449(3) 0.5880(3)
O8_2 O 1.8572(5) 0.7604(4) 0.6926(3)
O12A O 1.5092(4) 0.6679(4) 0.3255(3)
La1A La 0.80391(3) 0.15349(2) 0.502855(19)
La2A La 1.33069(3) 0.27522(2) 0.489430(19)
La2A_2 La 1.33069(3) 1.27522(2) 0.489430(19)
La1A_2 La 0.80391(3) 1.15349(2) 0.502855(19)
La2_2 La 0.66931(3) 0.72478(2) 0.510570(19)
La1A_3 La 1.80391(3) 1.15349(2) 0.502855(19)
loop_
_geom_bond_atom_site_label_1
_geom_bond_atom_site_label_2
_geom_bond_site_symmetry_1
_geom_bond_site_symmetry_2
La1 O2 1_555 1_555
La2 O1 1_555 1_555
O1 C1 1_555 1_555
O2 C1 1_555 1_555
O3 C8 1_555 1_555
O4 C8 1_555 1_555
O5 La1 1_555 1_555
O6 C9 1_555 1_555
O7 La1 1_555 1_555
O8 C16 1_555 1_555
O9 La1 1_555 1_555
O10 La2 1_555 1_555
O11 C17 1_555 1_555
O12 C17 1_555 1_555
O13 La2 1_555 1_555
C1 C2 1_555 1_555
C2 C3 1_555 1_555
C3 H1 1_555 1_555
C4 C3 1_555 1_555
H2 C4 1_555 1_555
C5 C4 1_555 1_555
H3 C5 1_555 1_555
C6 C5 1_555 1_555
H4 C6 1_555 1_555
C7 C2 1_555 1_555
C8 C7 1_555 1_555
C9 O5 1_555 1_555
C10 C9 1_555 1_555
C11 C10 1_555 1_555
H5 C11 1_555 1_555
C12 C11 1_555 1_555
H6 C12 1_555 1_555
C13 C12 1_555 1_555
H7 C13 1_555 1_555
C14 C13 1_555 1_555
H8 C14 1_555 1_555
C15 C10 1_555 1_555
C16 O7 1_555 1_555
C17 C18 1_555 1_555
C18 C19 1_555 1_555
C19 H9 1_555 1_555
C20 C19 1_555 1_555
H10 C20 1_555 1_555
C21 C20 1_555 1_555
H11 C21 1_555 1_555
C22 C21 1_555 1_555
H12 C22 1_555 1_555
C23 C18 1_555 1_555
C24 O9 1_555 1_555
H13 O13 1_555 1_555
H14 O13 1_555 1_555
O3A La1 1_555 1_555
O6A La1 1_555 1_555
O10A La1 1_555 1_555
O11A La1 1_555 1_555
O4A La2 1_555 1_555
O5A La2 1_555 1_555
O7_2 La2 1_555 1_555
O8_2 La2 1_555 1_555
O12A La2 1_555 1_555
La1A O3 1_555 1_555
La2A O4 1_555 1_555
La2A_2 O5 1_555 1_555
La1A_2 O6 1_555 1_555
La2_2 O7 1_555 1_555
La1A_3 O10 1_555 1_555
La2 O11A 1_555 1_555
O8 La2_2 1_555 1_555
O10 C24 1_555 1_555
O11 La1A_3 1_555 1_555
O11 La2A_2 1_555 1_555
O12 La2A_2 1_555 1_555
C6 C7 1_555 1_555
C14 C15 1_555 1_555
C15 C16 1_555 1_555
C22 C23 1_555 1_555
C23 C24 1_555 1_555
O10A La2A_2 1_555 1_555
O5A La1A_3 1_555 1_555

#END
