
#######################################################################
#
#                 Cambridge Crystallographic Data Centre
#                                CCDC 
#
#######################################################################
#
# If this CIF has been generated from an entry in the Cambridge 
# Structural Database, then it will include bibliographic, chemical, 
# crystal, experimental, refinement or atomic coordinate data resulting 
# from the CCDC's data processing and validation procedures.
#
#######################################################################

data_WUJSOJ01
_symmetry_cell_setting           monoclinic
_symmetry_space_group_name_H-M   'P 21/c'
_symmetry_Int_Tables_number      14
_space_group_name_Hall           '-P 2ybc'
loop_
_symmetry_equiv_pos_site_id
_symmetry_equiv_pos_as_xyz
1 x,y,z
2 -x,1/2+y,1/2-z
3 -x,-y,-z
4 x,1/2-y,1/2+z
_cell_length_a                   7.9976(4)
_cell_length_b                   26.4012(14)
_cell_length_c                   11.6727(6)
_cell_angle_alpha                90
_cell_angle_beta                 107.1986(9)
_cell_angle_gamma                90
_cell_volume                     2354.44
loop_
_atom_site_label
_atom_site_type_symbol
_atom_site_fract_x
_atom_site_fract_y
_atom_site_fract_z
Eu1 Eu 0.08340(3) 0.274323(8) 0.662545(19)
Eu2 Eu 0.40283(3) 0.305027(8) 0.489423(19)
C1 C -0.2722(6) 0.21613(17) 0.4888(4)
C2 C -0.3271(6) 0.16240(17) 0.4620(4)
C3 C -0.2669(7) 0.1263(2) 0.5524(5)
H1 H -0.1857 0.1355 0.6244
C4 C -0.3262(9) 0.0775(2) 0.5360(6)
H2 H -0.2860 0.0538 0.5969
C5 C -0.4463(8) 0.0633(2) 0.4289(6)
H3 H -0.4871 0.0301 0.4180
C6 C -0.5053(7) 0.09825(19) 0.3382(5)
H4 H -0.5839 0.0884 0.2657
C7 C -0.4485(6) 0.14793(17) 0.3543(4)
C8 C -0.5104(5) 0.18407(17) 0.2530(4)
C9 C 0.0927(6) 0.36962(17) 0.4585(4)
C10 C -0.0459(6) 0.40945(17) 0.4434(4)
C11 C -0.0353(7) 0.4501(2) 0.3711(5)
H5 H 0.0556 0.4512 0.3367
C12 C -0.1562(8) 0.4890(2) 0.3489(5)
H6 H -0.1450 0.5161 0.3008
C13 C -0.2919(8) 0.4876(2) 0.3971(6)
H7 H -0.3733 0.5138 0.3824
C14 C -0.3073(7) 0.4472(2) 0.4679(5)
H8 H -0.4013 0.4463 0.4995
C15 C -0.1865(6) 0.40765(18) 0.4937(4)
C16 C -0.2136(6) 0.36724(17) 0.5770(4)
C17 C 0.2161(6) 0.30432(16) 0.9741(4)
C18 C 0.2016(6) 0.35579(17) 1.0208(4)
C19 C 0.1317(7) 0.3938(2) 0.9381(5)
H9 H 0.0862 0.3858 0.8572
C20 C 0.1295(9) 0.4435(2) 0.9754(6)
H10 H 0.0804 0.4687 0.9199
C21 C 0.1996(9) 0.4555(2) 1.0941(6)
H11 H 0.2003 0.4891 1.1185
C22 C 0.2692(7) 0.4185(2) 1.1777(5)
H12 H 0.3174 0.4272 1.2579
C23 C 0.2674(6) 0.36800(17) 1.1424(4)
C24 C 0.3371(6) 0.33207(17) 1.2458(4)
O1 O -0.3884(5) 0.24788(13) 0.4844(3)
O2 O -0.1121(4) 0.22642(13) 0.5172(3)
O3 O -0.4205(4) 0.21959(13) 0.2358(3)
O4 O -0.6619(4) 0.17497(12) 0.1762(3)
O5 O 0.0650(4) 0.32270(12) 0.4724(3)
O6 O 0.2395(4) 0.38409(12) 0.4521(3)
O7 O -0.3694(4) 0.35907(13) 0.5743(3)
O8 O -0.0842(4) 0.34632(12) 0.6486(3)
O9 O 0.1954(5) 0.29890(13) 0.8651(3)
O10 O 0.2594(4) 0.26732(11) 1.0479(3)
O11 O 0.2356(4) 0.29850(12) 1.2689(3)
O12 O 0.4827(4) 0.34027(14) 1.3174(3)
O13 O -0.1108(4) 0.23595(14) 0.7613(3)
H13 H -0.1240 0.2040 0.7594
H14 H -0.1660 0.2543 0.7984
Eu1C Eu -0.91660(3) 0.225677(8) 0.162545(19)
Eu1C_2 Eu 0.08340(3) 0.225677(8) 1.162545(19)
Eu2_2 Eu -0.59717(3) 0.305027(8) 0.489423(19)
Eu2_3 Eu 0.40283(3) 0.305027(8) 1.489423(19)
Eu2C Eu -0.59717(3) 0.194973(8) -0.010577(19)
Eu2C_2 Eu 0.40283(3) 0.194973(8) 0.989423(19)
O1_2 O 0.6116(5) 0.24788(13) 0.4844(3)
O3C O 0.5795(4) 0.28041(13) 0.7358(3)
O4C O 0.3381(4) 0.32503(12) 0.6762(3)
O7_2 O 0.6306(4) 0.35907(13) 0.5743(3)
O10C O 0.2594(4) 0.23268(11) 0.5479(3)
O11_2 O 0.2356(4) 0.29850(12) 0.2689(3)
O11C O 0.2356(4) 0.20150(12) 0.7689(3)
O12_2 O 0.4827(4) 0.34027(14) 0.3174(3)
loop_
_geom_bond_atom_site_label_1
_geom_bond_atom_site_label_2
_geom_bond_site_symmetry_1
_geom_bond_site_symmetry_2
Eu1 O2 1_555 1_555
Eu2 O5 1_555 1_555
C1 C2 1_555 1_555
C2 C3 1_555 1_555
C3 H1 1_555 1_555
C4 C3 1_555 1_555
H2 C4 1_555 1_555
C5 C4 1_555 1_555
H3 C5 1_555 1_555
C6 C5 1_555 1_555
H4 C6 1_555 1_555
C7 C2 1_555 1_555
C8 C7 1_555 1_555
C9 C10 1_555 1_555
C10 C11 1_555 1_555
C11 H5 1_555 1_555
C12 C11 1_555 1_555
H6 C12 1_555 1_555
C13 C12 1_555 1_555
H7 C13 1_555 1_555
C14 C13 1_555 1_555
H8 C14 1_555 1_555
C15 C10 1_555 1_555
C16 C15 1_555 1_555
C17 C18 1_555 1_555
C18 C19 1_555 1_555
C19 H9 1_555 1_555
C20 C19 1_555 1_555
H10 C20 1_555 1_555
C21 C20 1_555 1_555
H11 C21 1_555 1_555
C22 C21 1_555 1_555
H12 C22 1_555 1_555
C23 C18 1_555 1_555
C24 C23 1_555 1_555
O1 C1 1_555 1_555
O2 C1 1_555 1_555
O3 C8 1_555 1_555
O4 C8 1_555 1_555
O5 Eu1 1_555 1_555
O6 Eu2 1_555 1_555
O7 C16 1_555 1_555
O8 Eu1 1_555 1_555
O9 Eu1 1_555 1_555
O10 C17 1_555 1_555
O11 C24 1_555 1_555
O12 C24 1_555 1_555
O13 Eu1 1_555 1_555
H13 O13 1_555 1_555
H14 O13 1_555 1_555
Eu1C O4 1_555 1_555
Eu1C_2 O10 1_555 1_555
Eu2_2 O1 1_555 1_555
Eu2_3 O11 1_555 1_555
Eu2C O3 1_555 1_555
Eu2C_2 O10 1_555 1_555
O1_2 Eu2 1_555 1_555
O3C Eu2 1_555 1_555
O4C Eu1 1_555 1_555
O7_2 Eu2 1_555 1_555
O10C Eu1 1_555 1_555
O11_2 Eu2 1_555 1_555
O11C Eu1 1_555 1_555
O12_2 Eu2 1_555 1_555
Eu2 O4C 1_555 1_555
Eu2 O10C 1_555 1_555
C6 C7 1_555 1_555
C9 O5 1_555 1_555
C9 O6 1_555 1_555
C14 C15 1_555 1_555
C16 O8 1_555 1_555
C17 O9 1_555 1_555
C22 C23 1_555 1_555
O4 Eu2C 1_555 1_555
O7 Eu2_2 1_555 1_555
O11 Eu1C_2 1_555 1_555
O12 Eu2_3 1_555 1_555
Eu2C_2 O11C 1_555 1_555

#END
