
#######################################################################
#
#                 Cambridge Crystallographic Data Centre
#                                CCDC 
#
#######################################################################
#
# If this CIF has been generated from an entry in the Cambridge 
# Structural Database, then it will include bibliographic, chemical, 
# crystal, experimental, refinement or atomic coordinate data resulting 
# from the CCDC's data processing and validation procedures.
#
#######################################################################

data_WUJSUP
_symmetry_cell_setting           monoclinic
_symmetry_space_group_name_H-M   'P 21/c'
_symmetry_Int_Tables_number      14
_space_group_name_Hall           '-P 2ybc'
loop_
_symmetry_equiv_pos_site_id
_symmetry_equiv_pos_as_xyz
1 x,y,z
2 x,1/2-y,1/2+z
3 -x,-y,-z
4 -x,1/2+y,1/2-z
_cell_length_a                   8.024(5)
_cell_length_b                   26.656(16)
_cell_length_c                   11.743(7)
_cell_angle_alpha                90
_cell_angle_beta                 107.018(9)
_cell_angle_gamma                90
_cell_volume                     2401.7
loop_
_atom_site_label
_atom_site_type_symbol
_atom_site_fract_x
_atom_site_fract_y
_atom_site_fract_z
Tb1 Tb -0.58434(11) 0.22599(3) -0.15960(7)
Tb2 Tb -0.90239(11) 0.19513(3) 0.01304(7)
O1 O -0.5687(15) 0.1772(5) 0.0288(11)
O2 O -0.7421(18) 0.1173(5) 0.0505(12)
O3 O -0.4157(15) 0.1563(4) -0.1465(11)
O4 O -0.1278(16) 0.1420(5) -0.0727(11)
O5 O -0.692(2) 0.2013(5) -0.3591(11)
O6 O -0.7589(17) 0.2334(4) -0.5408(11)
O7 O -0.7351(16) 0.2026(5) -0.7668(10)
O8 O -0.9858(17) 0.1603(5) -0.8167(11)
O9 O -0.3893(18) 0.2726(5) -0.0161(12)
O10 O -0.1108(18) 0.2508(5) 0.0168(12)
O11 O -0.080(2) 0.2789(5) 0.2659(12)
O12 O 0.1630(15) 0.3249(5) 0.3266(10)
O13 O -0.3947(18) 0.2642(6) -0.2583(12)
C1 C -0.593(2) 0.1305(6) 0.0436(14)
C2 C -0.456(2) 0.0916(6) 0.0587(15)
C3 C -0.467(3) 0.0491(7) 0.1294(18)
H1 H -0.5599 0.0472 0.1614
C4 C -0.346(3) 0.0100(8) 0.154(2)
H2 H -0.3567 -0.0168 0.2015
C5 C -0.207(3) 0.0127(8) 0.102(2)
H3 H -0.1271 -0.0134 0.1154
C6 C -0.188(3) 0.0524(7) 0.034(2)
H4 H -0.0925 0.0536 0.0046
C7 C -0.314(3) 0.0926(6) 0.0082(17)
C8 C -0.285(2) 0.1338(7) -0.0749(16)
C9 C -0.713(2) 0.1955(6) -0.4684(15)
C10 C -0.701(2) 0.1441(7) -0.5206(16)
C11 C -0.626(3) 0.1065(6) -0.4338(17)
H5 H -0.5806 0.1145 -0.3535
C12 C -0.623(4) 0.0565(10) -0.475(2)
H6 H -0.5668 0.0315 -0.4222
C13 C -0.704(3) 0.0449(8) -0.593(2)
H7 H -0.7133 0.0115 -0.6173
C14 C -0.771(3) 0.0821(8) -0.6773(17)
H8 H -0.8232 0.0737 -0.7567
C15 C -0.760(3) 0.1323(7) -0.6409(17)
C16 C -0.839(3) 0.1693(7) -0.7444(16)
C17 C -0.224(2) 0.2850(6) 0.0175(13)
C18 C -0.174(2) 0.3369(7) 0.0418(16)
C19 C -0.236(3) 0.3732(7) -0.0484(19)
H9 H -0.3234 0.3644 -0.1172
C20 C -0.170(3) 0.4220(9) -0.036(2)
H10 H -0.2035 0.4448 -0.0986
C21 C -0.050(3) 0.4357(8) 0.075(2)
H11 H -0.0095 0.4686 0.0868
C22 C 0.007(2) 0.4017(7) 0.1640(17)
H12 H 0.0846 0.4116 0.2361
C23 C -0.050(3) 0.3519(7) 0.1478(16)
C24 C 0.010(2) 0.3152(7) 0.2485(15)
H13 H -0.280(7) 0.253(6) -0.244(15)
H14 H -0.474(15) 0.270(6) -0.333(7)
O6A O -0.7589(17) 0.2666(4) -0.0408(11)
Tb1A Tb -0.58434(11) 0.27401(3) -0.65960(7)
Tb2A Tb -0.90239(11) 0.30487(3) -0.48696(7)
Tb2_2 Tb -0.90239(11) 0.19513(3) -0.98696(7)
O7A O -0.7351(16) 0.2974(5) -0.2668(10)
O4_2 O -1.1278(16) 0.1420(5) -0.0727(11)
O7_2 O -0.7351(16) 0.2026(5) 0.2332(10)
O10_2 O -1.1108(18) 0.2508(5) 0.0168(12)
O8_2 O -0.9858(17) 0.1603(5) 0.1833(11)
Tb2_3 Tb 0.09761(11) 0.19513(3) 0.01304(7)
O11A O -1.080(2) 0.2211(5) -0.2341(12)
O12A O -0.8370(15) 0.1751(5) -0.1734(10)
Tb2A_2 Tb 0.09761(11) 0.30487(3) 0.51304(7)
Tb1A_2 Tb 0.41566(11) 0.27401(3) 0.34040(7)
loop_
_geom_bond_atom_site_label_1
_geom_bond_atom_site_label_2
_geom_bond_site_symmetry_1
_geom_bond_site_symmetry_2
Tb1 O1 1_555 1_555
Tb2 O1 1_555 1_555
O1 C1 1_555 1_555
O2 Tb2 1_555 1_555
O3 Tb1 1_555 1_555
O4 C8 1_555 1_555
O5 Tb1 1_555 1_555
O6 C9 1_555 1_555
O7 C16 1_555 1_555
O8 C16 1_555 1_555
O9 Tb1 1_555 1_555
O10 C17 1_555 1_555
O11 C24 1_555 1_555
O12 C24 1_555 1_555
O13 Tb1 1_555 1_555
C1 O2 1_555 1_555
C2 C1 1_555 1_555
C3 C2 1_555 1_555
H1 C3 1_555 1_555
C4 C3 1_555 1_555
H2 C4 1_555 1_555
C5 C4 1_555 1_555
H3 C5 1_555 1_555
C6 C5 1_555 1_555
H4 C6 1_555 1_555
C7 C2 1_555 1_555
C8 O3 1_555 1_555
C9 O5 1_555 1_555
C10 C9 1_555 1_555
C11 C10 1_555 1_555
H5 C11 1_555 1_555
C12 C11 1_555 1_555
H6 C12 1_555 1_555
C13 C12 1_555 1_555
H7 C13 1_555 1_555
C14 C13 1_555 1_555
H8 C14 1_555 1_555
C15 C10 1_555 1_555
C16 C15 1_555 1_555
C17 O9 1_555 1_555
C18 C17 1_555 1_555
C19 C18 1_555 1_555
H9 C19 1_555 1_555
C20 C19 1_555 1_555
H10 C20 1_555 1_555
C21 C20 1_555 1_555
H11 C21 1_555 1_555
C22 C21 1_555 1_555
H12 C22 1_555 1_555
C23 C18 1_555 1_555
C24 C23 1_555 1_555
H13 O13 1_555 1_555
H14 O13 1_555 1_555
O6A Tb1 1_555 1_555
Tb1A O6 1_555 1_555
Tb2A O6 1_555 1_555
Tb2_2 O7 1_555 1_555
O7A Tb1 1_555 1_555
O4_2 Tb2 1_555 1_555
O7_2 Tb2 1_555 1_555
O10_2 Tb2 1_555 1_555
O8_2 Tb2 1_555 1_555
Tb2_3 O4 1_555 1_555
O11A Tb2 1_555 1_555
O12A Tb1 1_555 1_555
Tb2A_2 O11 1_555 1_555
Tb1A_2 O12 1_555 1_555
Tb2 O6A 1_555 1_555
Tb2 O12A 1_555 1_555
O7 Tb1A 1_555 1_555
O8 Tb2_2 1_555 1_555
O10 Tb2_3 1_555 1_555
O12 Tb2A_2 1_555 1_555
C6 C7 1_555 1_555
C7 C8 1_555 1_555
C14 C15 1_555 1_555
C22 C23 1_555 1_555
Tb2A O7A 1_555 1_555

#END
