
#######################################################################
#
#                 Cambridge Crystallographic Data Centre
#                                CCDC 
#
#######################################################################
#
# If this CIF has been generated from an entry in the Cambridge 
# Structural Database, then it will include bibliographic, chemical, 
# crystal, experimental, refinement or atomic coordinate data resulting 
# from the CCDC's data processing and validation procedures.
#
#######################################################################

data_WUJTAW
_symmetry_cell_setting           triclinic
_symmetry_space_group_name_H-M   'P -1'
_symmetry_Int_Tables_number      2
_space_group_name_Hall           '-P 1'
loop_
_symmetry_equiv_pos_site_id
_symmetry_equiv_pos_as_xyz
1 x,y,z
2 -x,-y,-z
_cell_length_a                   12.570(4)
_cell_length_b                   13.780(4)
_cell_length_c                   15.869(5)
_cell_angle_alpha                75.363(4)
_cell_angle_beta                 69.196(5)
_cell_angle_gamma                65.697(4)
_cell_volume                     2323.44
loop_
_atom_site_label
_atom_site_type_symbol
_atom_site_fract_x
_atom_site_fract_y
_atom_site_fract_z
Yb1 Yb 0.68190(3) 0.12053(3) 0.463347(19)
Yb2 Yb 1.00172(2) -0.00354(3) 0.75851(2)
Yb3 Yb 0.69357(3) 0.11185(3) 0.99656(2)
Yb4 Yb 0.51489(3) 0.04948(3) 0.741624(19)
O1 O 0.6206(5) 0.2550(4) 0.5469(3)
O2 O 0.6039(5) 0.1758(4) 0.6896(3)
O3 O 0.8497(5) 0.1489(5) 0.7328(4)
O4 O 0.6841(5) 0.1855(5) 0.8513(3)
O5 O 0.8555(5) -0.0424(5) 0.3570(4)
O6 O 0.6693(5) -0.0306(5) 0.4389(4)
O7 O 0.4977(4) -0.1007(4) 0.4033(3)
O8 O 0.5259(4) -0.1917(5) 0.5335(3)
O9 O 0.8434(5) 0.1692(5) 0.4127(4)
O10 O 1.0293(5) 0.0751(5) 0.3376(4)
O11 O 1.2955(5) 0.0627(5) 0.3019(4)
O12 O 1.2177(5) -0.0034(4) 0.4426(4)
O13 O 0.6782(5) 0.1916(5) 0.3210(4)
O14 O 0.8525(5) 0.1581(5) 0.2112(4)
O15 O 0.6461(5) 0.1884(4) 0.1296(3)
O16 O 0.6395(5) 0.2997(4) 0.0050(3)
O17 O 1.3151(4) 0.1188(5) 0.7884(4)
O18 O 1.2295(5) 0.0268(4) 0.9121(4)
O19 O 1.0329(5) 0.0864(5) 0.8387(4)
O20 O 0.8697(5) 0.1338(5) 0.9558(4)
O21 O 0.5125(5) -0.0684(5) 0.8684(4)
O22 O 0.5122(4) -0.1877(5) 0.9895(3)
O23 O 0.6714(5) -0.0332(5) 0.9559(4)
O24 O 0.8585(5) -0.0442(5) 0.8770(4)
O25 O 0.4745(5) 0.1465(5) 0.8565(4)
O26 O 0.4769(5) -0.0879(5) 0.7095(4)
C1 C 0.6225(6) 0.2505(6) 0.6270(5)
C2 C 0.6477(6) 0.3346(6) 0.6500(5)
C3 C 0.6136(7) 0.4379(7) 0.6034(6)
H1 H 0.5862 0.4498 0.5531
C4 C 0.6196(9) 0.5231(7) 0.6303(7)
H2 H 0.5917 0.5923 0.6010
C5 C 0.6677(9) 0.5039(8) 0.7013(7)
H3 H 0.6745 0.5603 0.7186
C6 C 0.7056(8) 0.4028(7) 0.7467(6)
H4 H 0.7378 0.3912 0.7944
C7 C 0.6963(7) 0.3176(6) 0.7220(5)
C8 C 0.7467(7) 0.2075(7) 0.7723(5)
C9 C 0.7714(7) -0.0822(6) 0.3907(5)
C10 C 0.7931(6) -0.1899(7) 0.3744(5)
C11 C 0.9100(7) -0.2575(7) 0.3341(5)
H5 H 0.9751 -0.2341 0.3176
C12 C 0.9304(8) -0.3584(8) 0.3183(6)
H6 H 1.0090 -0.4026 0.2915
C13 C 0.8350(8) -0.3941(7) 0.3421(6)
H7 H 0.8485 -0.4603 0.3277
C14 C 0.7187(8) -0.3316(7) 0.3874(5)
H8 H 0.6550 -0.3573 0.4065
C15 C 0.6988(7) -0.2308(7) 0.4038(5)
C16 C 0.5688(6) -0.1676(6) 0.4502(5)
C17 C 0.9545(7) 0.1457(6) 0.3897(5)
C18 C 1.0045(7) 0.2115(6) 0.4162(5)
C19 C 0.9283(8) 0.3060(8) 0.4496(6)
H9 H 0.8446 0.3257 0.4617
C20 C 0.9741(10) 0.3728(7) 0.4658(7)
H10 H 0.9210 0.4365 0.4897
C21 C 1.0979(9) 0.3459(8) 0.4467(7)
H11 H 1.1286 0.3922 0.4555
C22 C 1.1765(8) 0.2488(7) 0.4141(6)
H12 H 1.2602 0.2305 0.4005
C23 C 1.1310(7) 0.1795(7) 0.4017(5)
C24 C 1.2204(6) 0.0707(7) 0.3783(5)
C25 C 0.7469(7) 0.2170(7) 0.2466(5)
C26 C 0.6997(7) 0.3314(7) 0.2018(5)
C27 C 0.7026(7) 0.4105(7) 0.2401(6)
H13 H 0.7321 0.3919 0.2903
C28 C 0.6612(8) 0.5177(9) 0.2028(6)
H14 H 0.6658 0.5702 0.2271
C29 C 0.6136(9) 0.5464(8) 0.1302(7)
H15 H 0.5842 0.6182 0.1068
C30 C 0.6096(8) 0.4688(7) 0.0925(6)
H16 H 0.5790 0.4884 0.0428
C31 C 0.6510(7) 0.3608(7) 0.1283(5)
C32 C 0.6435(6) 0.2797(6) 0.0849(5)
C33 C 1.2308(6) 0.1119(6) 0.8605(5)
C34 C 1.1293(6) 0.2145(6) 0.8872(5)
C35 C 1.1592(7) 0.2981(7) 0.8932(6)
H17 H 1.2405 0.2916 0.8754
C36 C 1.0693(8) 0.3910(8) 0.9255(7)
H18 H 1.0903 0.4465 0.9299
C37 C 0.9483(9) 0.4016(9) 0.9513(7)
H19 H 0.8877 0.4643 0.9727
C38 C 0.9178(7) 0.3189(7) 0.9451(6)
H20 H 0.8362 0.3266 0.9619
C39 C 1.0068(7) 0.2247(7) 0.9144(5)
C40 C 0.9672(7) 0.1403(6) 0.9036(5)
C41 C 0.5692(6) -0.1506(6) 0.9142(5)
C42 C 0.7008(7) -0.2146(6) 0.8785(5)
C43 C 0.7260(8) -0.3091(7) 0.8475(6)
H21 H 0.6624 -0.3293 0.8508
C44 C 0.8454(8) -0.3739(7) 0.8116(6)
H22 H 0.8622 -0.4362 0.7888
C45 C 0.9399(8) -0.3448(7) 0.8099(6)
H23 H 1.0202 -0.3885 0.7868
C46 C 0.9153(7) -0.2529(7) 0.8420(6)
H24 H 0.9793 -0.2354 0.8419
C47 C 0.7967(6) -0.1851(7) 0.8746(5)
C48 C 0.7730(7) -0.0824(6) 0.9051(5)
O7A O 0.5023(4) 0.1007(4) 0.5967(3)
O8A O 0.4741(4) 0.1917(5) 0.4665(3)
O12A O 0.7823(5) 0.0034(4) 0.5574(4)
O5A O 1.1445(5) 0.0424(5) 0.6430(4)
O10A O 0.9707(5) -0.0751(5) 0.6624(4)
O14A O 1.1475(5) -0.1581(5) 0.7888(4)
O15_2 O 0.6461(5) 0.1884(4) 1.1296(3)
O16_2 O 0.6395(5) 0.2997(4) 1.0050(3)
O18A O 0.7705(5) -0.0268(4) 1.0879(4)
O21A O 0.4875(5) 0.0684(5) 1.1316(4)
O22A O 0.4878(4) 0.1877(5) 1.0105(3)
O11A O 0.7045(5) -0.0627(5) 0.6981(4)
O17_2 O 0.3151(4) 0.1188(5) 0.7884(4)
Yb2A Yb 0.99828(2) 0.00354(3) 0.24149(2)
Yb1A Yb 0.31810(3) -0.12053(3) 0.536653(19)
Yb4A Yb 0.48511(3) -0.04948(3) 0.258376(19)
Yb4A_2 Yb 1.48511(3) -0.04948(3) 0.258376(19)
Yb1A_2 Yb 1.31810(3) -0.12053(3) 0.536653(19)
Yb3_2 Yb 0.69357(3) 0.11185(3) -0.00344(2)
Yb4_2 Yb 1.51489(3) 0.04948(3) 0.741624(19)
Yb3A Yb 1.30643(3) -0.11185(3) 1.00344(2)
Yb3A_2 Yb 0.30643(3) -0.11185(3) 1.00344(2)
loop_
_geom_bond_atom_site_label_1
_geom_bond_atom_site_label_2
_geom_bond_site_symmetry_1
_geom_bond_site_symmetry_2
Yb1 O1 1_555 1_555
Yb2 O3 1_555 1_555
Yb3 O4 1_555 1_555
Yb4 O2 1_555 1_555
O1 C1 1_555 1_555
O2 C1 1_555 1_555
O3 C8 1_555 1_555
O4 C8 1_555 1_555
O5 Yb1 1_555 1_555
O6 Yb1 1_555 1_555
O7 C16 1_555 1_555
O8 C16 1_555 1_555
O9 Yb1 1_555 1_555
O10 C17 1_555 1_555
O11 C24 1_555 1_555
O12 C24 1_555 1_555
O13 Yb1 1_555 1_555
O14 C25 1_555 1_555
O15 C32 1_555 1_555
O16 C32 1_555 1_555
O17 C33 1_555 1_555
O18 C33 1_555 1_555
O19 Yb2 1_555 1_555
O20 Yb3 1_555 1_555
O21 Yb4 1_555 1_555
O22 C41 1_555 1_555
O23 Yb3 1_555 1_555
O24 Yb2 1_555 1_555
O25 Yb4 1_555 1_555
O26 Yb4 1_555 1_555
C1 C2 1_555 1_555
C2 C3 1_555 1_555
C3 H1 1_555 1_555
C4 C3 1_555 1_555
H2 C4 1_555 1_555
C5 C4 1_555 1_555
H3 C5 1_555 1_555
C6 C5 1_555 1_555
H4 C6 1_555 1_555
C7 C2 1_555 1_555
C8 C7 1_555 1_555
C9 O5 1_555 1_555
C10 C9 1_555 1_555
C11 C10 1_555 1_555
H5 C11 1_555 1_555
C12 C11 1_555 1_555
H6 C12 1_555 1_555
C13 C12 1_555 1_555
H7 C13 1_555 1_555
C14 C13 1_555 1_555
H8 C14 1_555 1_555
C15 C10 1_555 1_555
C16 C15 1_555 1_555
C17 O9 1_555 1_555
C18 C17 1_555 1_555
C19 C18 1_555 1_555
H9 C19 1_555 1_555
C20 C19 1_555 1_555
H10 C20 1_555 1_555
C21 C20 1_555 1_555
H11 C21 1_555 1_555
C22 C21 1_555 1_555
H12 C22 1_555 1_555
C23 C18 1_555 1_555
C24 C23 1_555 1_555
C25 O13 1_555 1_555
C26 C25 1_555 1_555
C27 C26 1_555 1_555
H13 C27 1_555 1_555
C28 C27 1_555 1_555
H14 C28 1_555 1_555
C29 C28 1_555 1_555
H15 C29 1_555 1_555
C30 C29 1_555 1_555
H16 C30 1_555 1_555
C31 C26 1_555 1_555
C32 C31 1_555 1_555
C33 C34 1_555 1_555
C34 C35 1_555 1_555
C35 H17 1_555 1_555
C36 C35 1_555 1_555
H18 C36 1_555 1_555
C37 C36 1_555 1_555
H19 C37 1_555 1_555
C38 C37 1_555 1_555
H20 C38 1_555 1_555
C39 C34 1_555 1_555
C40 O19 1_555 1_555
C41 O21 1_555 1_555
C42 C41 1_555 1_555
C43 C42 1_555 1_555
H21 C43 1_555 1_555
C44 C43 1_555 1_555
H22 C44 1_555 1_555
C45 C44 1_555 1_555
H23 C45 1_555 1_555
C46 C45 1_555 1_555
H24 C46 1_555 1_555
C47 C42 1_555 1_555
C48 O23 1_555 1_555
O7A Yb1 1_555 1_555
O8A Yb1 1_555 1_555
O12A Yb1 1_555 1_555
O5A Yb2 1_555 1_555
O10A Yb2 1_555 1_555
O14A Yb2 1_555 1_555
O15_2 Yb3 1_555 1_555
O16_2 Yb3 1_555 1_555
O18A Yb3 1_555 1_555
O21A Yb3 1_555 1_555
O22A Yb3 1_555 1_555
O11A Yb4 1_555 1_555
O17_2 Yb4 1_555 1_555
Yb2A O5 1_555 1_555
Yb1A O7 1_555 1_555
Yb4A O7 1_555 1_555
Yb4A_2 O11 1_555 1_555
Yb1A_2 O12 1_555 1_555
Yb3_2 O15 1_555 1_555
Yb4_2 O17 1_555 1_555
Yb3A O18 1_555 1_555
Yb3A_2 O21 1_555 1_555
Yb3 O24 1_555 1_555
Yb4 O7A 1_555 1_555
O6 C9 1_555 1_555
O8 Yb1A 1_555 1_555
O10 Yb2A 1_555 1_555
O14 Yb2A 1_555 1_555
O16 Yb3_2 1_555 1_555
O20 C40 1_555 1_555
O22 Yb3A_2 1_555 1_555
O24 C48 1_555 1_555
C6 C7 1_555 1_555
C14 C15 1_555 1_555
C22 C23 1_555 1_555
C30 C31 1_555 1_555
C38 C39 1_555 1_555
C39 C40 1_555 1_555
C46 C47 1_555 1_555
C47 C48 1_555 1_555
O5A Yb1A_2 1_555 1_555

#END
