
#######################################################################
#
#                 Cambridge Crystallographic Data Centre
#                                CCDC 
#
#######################################################################
#
# If this CIF has been generated from an entry in the Cambridge 
# Structural Database, then it will include bibliographic, chemical, 
# crystal, experimental, refinement or atomic coordinate data resulting 
# from the CCDC's data processing and validation procedures.
#
#######################################################################

data_WUKBEJ04
_symmetry_cell_setting           monoclinic
_symmetry_space_group_name_H-M   'C c'
_symmetry_Int_Tables_number      9
_space_group_name_Hall           'C -2yc'
loop_
_symmetry_equiv_pos_site_id
_symmetry_equiv_pos_as_xyz
1 x,y,z
2 x,-y,1/2+z
3 1/2+x,1/2+y,z
4 1/2+x,1/2-y,1/2+z
_cell_length_a                   3.7358(7)
_cell_length_b                   38.823(8)
_cell_length_c                   16.826(4)
_cell_angle_alpha                90
_cell_angle_beta                 95.27(3)
_cell_angle_gamma                90
_cell_volume                     2430.04
loop_
_atom_site_label
_atom_site_type_symbol
_atom_site_fract_x
_atom_site_fract_y
_atom_site_fract_z
Cu1 Cu -0.2428(12) 0.68780(12) 0.4336(2)
Cu2 Cu 0.2882(15) 0.74871(14) 0.4762(3)
Cl1 Cl 0.800(3) 0.7819(2) 0.4581(6)
Cl2 Cl 0.375(2) 0.6965(2) 0.5257(5)
N1 N -0.123(8) 0.6398(7) 0.3911(16)
N2 N -0.182(7) 0.7010(7) 0.3177(15)
C1 C -0.072(11) 0.6088(11) 0.427(2)
H1 H -0.1122 0.6080 0.4805
C2 C 0.024(8) 0.5803(8) 0.397(2)
H2 H 0.0283 0.5600 0.4265
C3 C 0.122(10) 0.5803(9) 0.319(3)
H3 H 0.2067 0.5602 0.2973
C4 C 0.093(9) 0.6109(9) 0.275(2)
C5 C 0.176(9) 0.6150(6) 0.198(2)
H4 H 0.2702 0.5962 0.1728
C6 C 0.129(11) 0.6458(9) 0.155(2)
H5 H 0.1816 0.6470 0.1025
C7 C -0.001(7) 0.6754(7) 0.1945(18)
C8 C -0.015(8) 0.7073(10) 0.1622(19)
H6 H 0.0631 0.7117 0.1123
C9 C -0.154(10) 0.7332(8) 0.2080(19)
H7 H -0.1978 0.7543 0.1831
C10 C -0.222(10) 0.7310(8) 0.2746(18)
H8 H -0.3066 0.7505 0.2992
C11 C -0.046(9) 0.6720(9) 0.2774(19)
C12 C -0.009(7) 0.6400(8) 0.3171(19)
Cu1_2 Cu 0.7572(12) 0.68780(12) 0.4336(2)
Cu2_2 Cu 1.2882(15) 0.74871(14) 0.4762(3)
Cl1_2 Cl -0.200(3) 0.7819(2) 0.4581(6)
Cl2_2 Cl -0.625(2) 0.6965(2) 0.5257(5)
Cu3 Cu 0.6840(11) 0.56245(12) 0.6770(2)
Cu4 Cu 1.1406(14) 0.50052(15) 0.6337(3)
Cl3 Cl 1.638(3) 0.4680(3) 0.6517(6)
Cl4 Cl 1.064(2) 0.5539(2) 0.5850(5)
N3 N 0.521(8) 0.6115(7) 0.7151(18)
N4 N 0.595(7) 0.5499(8) 0.7907(18)
C13 C 0.489(8) 0.6412(8) 0.677(2)
H9 H 0.5544 0.6429 0.6247
C14 C 0.343(9) 0.6729(8) 0.717(2)
H10 H 0.2929 0.6934 0.6896
C15 C 0.293(10) 0.6695(9) 0.794(2)
H11 H 0.2226 0.6887 0.8215
C16 C 0.342(8) 0.6372(9) 0.837(2)
C17 C 0.266(7) 0.6343(8) 0.9201(16)
H12 H 0.2032 0.6536 0.9486
C18 C 0.287(9) 0.6042(10) 0.9532(19)
H13 H 0.2274 0.6021 1.0054
C19 C 0.401(8) 0.5733(10) 0.9122(19)
C20 C 0.472(10) 0.5400(10) 0.951(2)
H14 H 0.4503 0.5381 1.0059
C21 C 0.565(11) 0.5127(8) 0.912(2)
H15 H 0.5862 0.4909 0.9350
C22 C 0.638(9) 0.5195(6) 0.8232(14)
H16 H 0.7145 0.5014 0.7929
C23 C 0.508(8) 0.5755(8) 0.8358(19)
C24 C 0.474(7) 0.6095(6) 0.7951(17)
Cu3_2 Cu 1.6840(11) 0.56245(12) 0.6770(2)
Cu4_2 Cu 2.1406(14) 0.50052(15) 0.6337(3)
Cl3_2 Cl 0.638(3) 0.4680(3) 0.6517(6)
Cl4_2 Cl 0.064(2) 0.5539(2) 0.5850(5)
loop_
_geom_bond_atom_site_label_1
_geom_bond_atom_site_label_2
_geom_bond_site_symmetry_1
_geom_bond_site_symmetry_2
Cu1 Cl2 1_555 1_555
Cu2 Cl1 1_555 1_555
Cl1 Cu2_2 1_555 1_555
Cl2 Cu2 1_555 1_555
N1 Cu1 1_555 1_555
N2 Cu1 1_555 1_555
C1 N1 1_555 1_555
H1 C1 1_555 1_555
C2 C1 1_555 1_555
H2 C2 1_555 1_555
C3 C2 1_555 1_555
H3 C3 1_555 1_555
C4 C3 1_555 1_555
C5 C4 1_555 1_555
H4 C5 1_555 1_555
C6 C5 1_555 1_555
H5 C6 1_555 1_555
C7 C6 1_555 1_555
C8 C7 1_555 1_555
H6 C8 1_555 1_555
C9 C8 1_555 1_555
H7 C9 1_555 1_555
C10 N2 1_555 1_555
H8 C10 1_555 1_555
C11 N2 1_555 1_555
C12 N1 1_555 1_555
Cu3 Cl4 1_555 1_555
Cu4 Cl3 1_555 1_555
Cl3 Cu4_2 1_555 1_555
Cl4 Cu4 1_555 1_555
N3 Cu3 1_555 1_555
N4 Cu3 1_555 1_555
C13 N3 1_555 1_555
H9 C13 1_555 1_555
C14 C13 1_555 1_555
H10 C14 1_555 1_555
C15 C14 1_555 1_555
H11 C15 1_555 1_555
C16 C15 1_555 1_555
C17 C16 1_555 1_555
H12 C17 1_555 1_555
C18 C17 1_555 1_555
H13 C18 1_555 1_555
C19 C18 1_555 1_555
C20 C19 1_555 1_555
H14 C20 1_555 1_555
C21 C20 1_555 1_555
H15 C21 1_555 1_555
C22 N4 1_555 1_555
H16 C22 1_555 1_555
C23 N4 1_555 1_555
C24 N3 1_555 1_555
Cu1_2 Cl2 1_555 1_555
Cl1_2 Cu2 1_555 1_555
Cl2_2 Cu1 1_555 1_555
Cu3_2 Cl4 1_555 1_555
Cl3_2 Cu4 1_555 1_555
Cl4_2 Cu3 1_555 1_555
C4 C12 1_555 1_555
C7 C11 1_555 1_555
C9 C10 1_555 1_555
C11 C12 1_555 1_555
C16 C24 1_555 1_555
C19 C23 1_555 1_555
C21 C22 1_555 1_555
C23 C24 1_555 1_555

#END
