
#######################################################################
#
#                 Cambridge Crystallographic Data Centre
#                                CCDC 
#
#######################################################################
#
# If this CIF has been generated from an entry in the Cambridge 
# Structural Database, then it will include bibliographic, chemical, 
# crystal, experimental, refinement or atomic coordinate data resulting 
# from the CCDC's data processing and validation procedures.
#
#######################################################################

data_WUKBAH
_symmetry_cell_setting           monoclinic
_symmetry_space_group_name_H-M   'P 21/c'
_symmetry_Int_Tables_number      14
_space_group_name_Hall           '-P 2ybc'
loop_
_symmetry_equiv_pos_site_id
_symmetry_equiv_pos_as_xyz
1 x,y,z
2 -x,1/2+y,1/2-z
3 -x,-y,-z
4 x,1/2-y,1/2+z
_cell_length_a                   7.3677(15)
_cell_length_b                   14.399(3)
_cell_length_c                   14.464(3)
_cell_angle_alpha                90
_cell_angle_beta                 93.01(3)
_cell_angle_gamma                90
_cell_volume                     1532.33
loop_
_atom_site_label
_atom_site_type_symbol
_atom_site_fract_x
_atom_site_fract_y
_atom_site_fract_z
Zn1 Zn 0.23470(7) 0.36492(5) 0.33972(4)
O1 O 0.0547(6) 0.3682(4) 0.2288(3)
O2 O 1.0575(5) 0.3595(3) 0.4396(3)
O3 O 0.3180(7) 0.3682(4) 0.1690(4)
N1 N 0.3060(6) 0.2171(3) 0.3418(3)
N2 N 0.3086(6) 0.5117(4) 0.3523(3)
N3 N 0.5071(6) 0.3627(3) 0.3803(3)
C1 C 0.5989(7) 0.4426(4) 0.3935(4)
C2 C 0.2574(10) 0.6750(5) 0.3433(5)
H1 H 0.1776 0.7237 0.3298
C3 C 0.5969(7) 0.2815(4) 0.3865(4)
C4 C 0.2007(8) 0.5837(5) 0.3363(4)
H2 H 0.0793 0.5723 0.3192
C5 C 0.8836(7) 0.3607(5) 0.4213(4)
C6 C 0.4796(7) 0.1983(4) 0.3690(4)
C7 C 0.7822(7) 0.2767(4) 0.4057(4)
H3 H 0.8407 0.2194 0.4085
C8 C 0.4854(7) 0.5269(4) 0.3801(4)
C9 C 0.7846(7) 0.4442(5) 0.4164(4)
H4 H 0.8432 0.5004 0.4286
C10 C 0.5512(9) 0.6171(4) 0.3907(4)
H5 H 0.6715 0.6273 0.4107
C11 C 0.2453(9) 0.0549(5) 0.3266(5)
H6 H 0.1641 0.0075 0.3103
C12 C 0.5392(9) 0.1077(5) 0.3778(5)
H7 H 0.6586 0.0953 0.3981
C13 C 0.1925(8) 0.1469(4) 0.3214(4)
H8 H 0.0726 0.1606 0.3028
C14 C 0.4212(10) 0.0354(5) 0.3564(5)
H9 H 0.4604 -0.0258 0.3621
C15 C 0.1494(9) 0.3668(5) 0.1621(4)
C16 C 0.4365(10) 0.6912(5) 0.3713(5)
H10 H 0.4797 0.7517 0.3770
C17 C 0.0594(13) 0.3676(7) 0.0652(5)
H11 H -0.0702 0.3672 0.0691
H12 H 0.0964 0.3137 0.0321
H13 H 0.0952 0.4225 0.0332
Zn1_2 Zn 1.23470(7) 0.36492(5) 0.33972(4)
O2_2 O 0.0575(5) 0.3595(3) 0.4396(3)
loop_
_geom_bond_atom_site_label_1
_geom_bond_atom_site_label_2
_geom_bond_site_symmetry_1
_geom_bond_site_symmetry_2
Zn1 O1 1_555 1_555
O1 C15 1_555 1_555
O2 C5 1_555 1_555
O3 Zn1 1_555 1_555
N1 Zn1 1_555 1_555
N2 Zn1 1_555 1_555
N3 Zn1 1_555 1_555
C1 N3 1_555 1_555
C2 H1 1_555 1_555
C3 N3 1_555 1_555
C4 N2 1_555 1_555
H2 C4 1_555 1_555
C5 C7 1_555 1_555
C6 N1 1_555 1_555
C7 C3 1_555 1_555
H3 C7 1_555 1_555
C8 N2 1_555 1_555
C9 C1 1_555 1_555
H4 C9 1_555 1_555
C10 C8 1_555 1_555
H5 C10 1_555 1_555
C11 H6 1_555 1_555
C12 C6 1_555 1_555
H7 C12 1_555 1_555
C13 N1 1_555 1_555
H8 C13 1_555 1_555
C14 C11 1_555 1_555
H9 C14 1_555 1_555
C15 O3 1_555 1_555
C16 C2 1_555 1_555
H10 C16 1_555 1_555
C17 C15 1_555 1_555
H11 C17 1_555 1_555
H12 C17 1_555 1_555
H13 C17 1_555 1_555
Zn1_2 O2 1_555 1_555
O2_2 Zn1 1_555 1_555
C1 C8 1_555 1_555
C2 C4 1_555 1_555
C3 C6 1_555 1_555
C5 C9 1_555 1_555
C10 C16 1_555 1_555
C11 C13 1_555 1_555
C12 C14 1_555 1_555

#END
