
#######################################################################
#
#                 Cambridge Crystallographic Data Centre
#                                CCDC 
#
#######################################################################
#
# If this CIF has been generated from an entry in the Cambridge 
# Structural Database, then it will include bibliographic, chemical, 
# crystal, experimental, refinement or atomic coordinate data resulting 
# from the CCDC's data processing and validation procedures.
#
#######################################################################

data_WUKBEJ
_symmetry_cell_setting           monoclinic
_symmetry_space_group_name_H-M   'P 21/n'
_symmetry_Int_Tables_number      14
_space_group_name_Hall           '-P 2yn'
loop_
_symmetry_equiv_pos_site_id
_symmetry_equiv_pos_as_xyz
1 x,y,z
2 1/2-x,1/2+y,1/2-z
3 -x,-y,-z
4 1/2+x,1/2-y,1/2+z
_cell_length_a                   3.7285(7)
_cell_length_b                   19.603(4)
_cell_length_c                   16.757(3)
_cell_angle_alpha                90
_cell_angle_beta                 95.83(3)
_cell_angle_gamma                90
_cell_volume                     1218.43
loop_
_atom_site_label
_atom_site_type_symbol
_atom_site_fract_x
_atom_site_fract_y
_atom_site_fract_z
Cu1 Cu 0.2060(4) 0.12599(7) -0.37617(7)
Cu2 Cu -0.3512(5) 0.24766(8) -0.42194(8)
Cl1 Cl -0.4219(6) 0.14294(12) -0.46954(13)
Cl2 Cl -0.8596(6) 0.31257(13) -0.40372(15)
N1 N 0.071(2) 0.0282(4) -0.3377(4)
N2 N 0.125(2) 0.1490(4) -0.2620(4)
C1 C 0.047(3) -0.0318(5) -0.3741(6)
H1 H 0.1051 -0.0341 -0.4267
C2 C -0.059(3) -0.0907(5) -0.3390(7)
H2 H -0.0728 -0.1314 -0.3677
C3 C -0.142(2) -0.0891(5) -0.2622(6)
H3 H -0.2183 -0.1286 -0.2382
C4 C -0.113(2) -0.0289(5) -0.2201(6)
C5 C -0.003(2) 0.0308(4) -0.2610(5)
C6 C 0.019(2) 0.0950(4) -0.2204(5)
C7 C -0.070(2) 0.0992(5) -0.1408(5)
C8 C -0.039(3) 0.1629(7) -0.1045(6)
H4 H -0.0905 0.1678 -0.0516
C9 C 0.066(3) 0.2186(6) -0.1459(6)
H5 H 0.0839 0.2613 -0.1217
C10 C 0.145(3) 0.2101(5) -0.2247(6)
H6 H 0.2144 0.2480 -0.2527
C11 C -0.195(3) -0.0209(7) -0.1379(6)
H7 H -0.2633 -0.0589 -0.1099
C12 C -0.175(2) 0.0398(6) -0.1015(6)
H8 H -0.2314 0.0430 -0.0488
Cl1_2 Cl 0.5781(6) 0.14294(12) -0.46954(13)
Cu1_2 Cu -0.7940(4) 0.12599(7) -0.37617(7)
Cl2_2 Cl 0.1404(6) 0.31257(13) -0.40372(15)
Cu2_2 Cu -1.3512(5) 0.24766(8) -0.42194(8)
loop_
_geom_bond_atom_site_label_1
_geom_bond_atom_site_label_2
_geom_bond_site_symmetry_1
_geom_bond_site_symmetry_2
Cu1 Cl1 1_555 1_555
Cu2 Cl1 1_555 1_555
Cl1 Cu1_2 1_555 1_555
Cl2 Cu2 1_555 1_555
N1 Cu1 1_555 1_555
N2 Cu1 1_555 1_555
C1 N1 1_555 1_555
H1 C1 1_555 1_555
C2 C1 1_555 1_555
H2 C2 1_555 1_555
C3 C2 1_555 1_555
H3 C3 1_555 1_555
C4 C3 1_555 1_555
C5 N1 1_555 1_555
C6 N2 1_555 1_555
C7 C6 1_555 1_555
C8 C7 1_555 1_555
H4 C8 1_555 1_555
C9 C8 1_555 1_555
H5 C9 1_555 1_555
C10 N2 1_555 1_555
H6 C10 1_555 1_555
C11 C4 1_555 1_555
H7 C11 1_555 1_555
C12 C7 1_555 1_555
H8 C12 1_555 1_555
Cl1_2 Cu1 1_555 1_555
Cl2_2 Cu2 1_555 1_555
Cu2_2 Cl2 1_555 1_555
C4 C5 1_555 1_555
C5 C6 1_555 1_555
C9 C10 1_555 1_555
C11 C12 1_555 1_555

#END
