
#######################################################################
#
#                 Cambridge Crystallographic Data Centre
#                                CCDC 
#
#######################################################################
#
# If this CIF has been generated from an entry in the Cambridge 
# Structural Database, then it will include bibliographic, chemical, 
# crystal, experimental, refinement or atomic coordinate data resulting 
# from the CCDC's data processing and validation procedures.
#
#######################################################################

data_WUKFAL
_symmetry_cell_setting           triclinic
_symmetry_space_group_name_H-M   'P -1'
_symmetry_Int_Tables_number      2
_space_group_name_Hall           '-P 1'
loop_
_symmetry_equiv_pos_site_id
_symmetry_equiv_pos_as_xyz
1 x,y,z
2 -x,-y,-z
_cell_length_a                   8.6075(5)
_cell_length_b                   14.8478(7)
_cell_length_c                   15.9164(9)
_cell_angle_alpha                86.277(4)
_cell_angle_beta                 80.196(5)
_cell_angle_gamma                81.785(4)
_cell_volume                     1982.16
loop_
_atom_site_label
_atom_site_type_symbol
_atom_site_fract_x
_atom_site_fract_y
_atom_site_fract_z
Yb1 Yb 0.06252(4) 0.29092(2) 0.358246(19)
Yb2 Yb 0.14959(4) 0.19550(2) 0.135095(19)
Yb3 Yb 0.39035(4) 0.10461(2) 0.29513(2)
Yb4 Yb 0.42499(4) 0.34149(2) 0.203042(19)
O1 O 0.1536(5) 0.3263(3) 0.2133(3)
O2 O 0.3951(5) 0.1961(3) 0.1723(3)
O3 O 0.1333(5) 0.1623(3) 0.2821(3)
O4 O 0.3445(5) 0.2620(3) 0.3257(2)
N1 N 0.6039(6) 0.4636(4) 0.1600(3)
O5 O 0.6448(6) 0.1422(4) 0.2829(4)
O6 O 0.5672(6) -0.1248(3) 0.1260(3)
O7 O 0.8424(6) -0.2271(3) 0.5193(3)
O8 O 0.7855(6) 0.7012(3) -0.0278(3)
O9 O -0.1078(5) 0.2623(3) 0.1476(3)
O10 O -0.3503(5) 0.2819(3) 0.1127(3)
O11 O 0.6309(6) 0.6095(3) -0.0695(3)
O12 O 0.8520(5) 0.3814(3) 0.3110(3)
O13 O 0.3441(6) 0.0996(3) 0.0433(3)
O14 O -0.0719(6) -0.0559(3) -0.1713(3)
O15 O 0.4688(6) 0.0109(3) 0.1795(3)
O16 O 0.6190(6) 0.3427(3) 0.2903(3)
N2 N 0.0079(7) 0.1591(4) 0.0155(3)
O17 O -0.1231(7) 0.1932(4) 0.4042(3)
O18 O -0.3091(6) 0.5304(3) 0.7264(3)
O19 O -0.1324(6) 0.5716(3) 0.6166(3)
O20 O 0.6713(7) -0.1050(3) 0.5631(3)
O21 O 0.2378(7) -0.0216(4) 0.3299(4)
C1 C 0.7321(8) 0.3888(5) 0.2742(4)
C2 C -0.2068(8) 0.2519(5) 0.1009(4)
C3 C 0.7017(9) -0.1402(5) 0.4194(4)
N3 N -0.1311(7) 0.3385(4) 0.4911(4)
C4 C 0.7119(8) 0.5795(5) 0.0649(4)
N4 N 0.5644(7) -0.0362(4) 0.3258(3)
C5 C -0.1477(8) 0.1942(4) 0.0233(4)
C6 C 0.5410(8) -0.0703(5) 0.1840(4)
C7 C 0.7435(9) -0.1599(5) 0.5071(4)
O22 O 0.1733(7) -0.0243(4) -0.1766(4)
C8 C -0.0354(8) 0.0711(5) -0.0979(4)
C9 C -0.2218(8) 0.5183(5) 0.6552(4)
C10 C 0.6895(10) -0.1827(5) 0.2784(4)
H1 H 0.7138 -0.2246 0.2355
C11 C 0.0605(8) 0.0988(5) -0.0457(4)
H2 H 0.1674 0.0743 -0.0535
C12 C 0.6002(8) 0.5208(4) 0.0921(4)
H3 H 0.5177 0.5213 0.0612
C13 C 0.6150(9) -0.0581(5) 0.4004(4)
H4 H 0.5900 -0.0151 0.4423
C14 C 0.7242(8) 0.4625(4) 0.2035(4)
C15 C 0.7088(8) 0.6356(4) -0.0169(4)
C16 C 0.8379(9) 0.5215(5) 0.1836(5)
H5 H 0.9164 0.5211 0.2172
C17 C 0.7406(10) -0.2031(5) 0.3563(5)
H6 H 0.8007 -0.2588 0.3661
C18 C -0.1348(9) 0.4134(5) 0.5345(4)
H7 H -0.0698 0.4564 0.5104
C19 C 0.6018(8) -0.0991(5) 0.2658(4)
C20 C -0.1925(9) 0.1099(5) -0.0898(5)
H8 H -0.2596 0.0932 -0.1244
C21 C -0.2475(8) 0.1742(5) -0.0290(5)
H9 H -0.3514 0.2035 -0.0236
C22 C -0.2283(9) 0.4309(5) 0.6124(5)
C23 C 0.0292(9) -0.0078(5) -0.1539(4)
C24 C 0.8327(10) 0.5811(5) 0.1128(5)
H10 H 0.9078 0.6211 0.0977
O23 O -0.2657(16) 0.1245(7) 0.5116(6)
C25 C -0.2184(13) 0.2762(7) 0.5277(7)
C26 C -0.2060(17) 0.1934(9) 0.4765(7)
C27 C -0.3182(18) 0.3665(9) 0.6494(8)
H11 H -0.3814 0.3749 0.7026
C28 C -0.314(2) 0.2878(11) 0.6060(9)
H12 H -0.3748 0.2429 0.6298
H13 H 0.391(5) 0.270(3) 0.3751(19)
H14 H 0.094(5) 0.379(2) 0.191(3)
H15 H 0.481(4) 0.172(3) 0.128(2)
H16 H 0.061(4) 0.117(2) 0.299(3)
H17 H 0.734(6) 0.114(4) 0.247(4)
H18 H 0.648(12) 0.2062(17) 0.286(9)
H19 H 0.441(12) 0.116(13) 0.012(12)
H20 H 0.36(2) 0.038(5) 0.064(14)
H21 H 0.133(7) -0.013(16) 0.363(9)
H22 H 0.225(18) -0.034(15) 0.273(5)
Yb1_2 Yb 1.06252(4) 0.29092(2) 0.358246(19)
Yb1A Yb -0.06252(4) 0.70908(2) 0.641754(19)
Yb1A_2 Yb 0.93748(4) -0.29092(2) 0.641754(19)
Yb2A Yb -0.14959(4) -0.19550(2) -0.135095(19)
Yb2A_2 Yb 0.85041(4) 0.80450(2) -0.135095(19)
Yb3A Yb 0.60965(4) -0.10461(2) 0.70487(2)
Yb4_2 Yb -0.57501(4) 0.34149(2) 0.203042(19)
Yb4A Yb -0.42499(4) 0.65851(2) 0.796958(19)
Yb4A_2 Yb 0.57501(4) 0.65851(2) -0.203042(19)
O7A O 0.1576(6) 0.2271(3) 0.4807(3)
O8A O 0.2145(6) 0.2988(3) 0.0278(3)
O10_2 O 0.6497(5) 0.2819(3) 0.1127(3)
O11A O 0.3691(6) 0.3905(3) 0.0695(3)
O12_2 O -0.1480(5) 0.3814(3) 0.3110(3)
O14A O 0.0719(6) 0.0559(3) 0.1713(3)
O18A O 0.3091(6) 0.4696(3) 0.2736(3)
O19A O 0.1324(6) 0.4284(3) 0.3834(3)
O20A O 0.3287(7) 0.1050(3) 0.4369(3)
O24 O -0.042(3) -0.0053(14) 0.401(2)
H23 H 0.00(3) -0.043(12) 0.353(9)
H24 H -0.11(2) 0.047(10) 0.384(12)
loop_
_geom_bond_atom_site_label_1
_geom_bond_atom_site_label_2
_geom_bond_site_symmetry_1
_geom_bond_site_symmetry_2
Yb1 O1 1_555 1_555
Yb2 O1 1_555 1_555
Yb3 O2 1_555 1_555
Yb4 O1 1_555 1_555
O1 H14 1_555 1_555
O2 Yb2 1_555 1_555
O3 Yb1 1_555 1_555
O4 Yb1 1_555 1_555
N1 Yb4 1_555 1_555
O5 Yb3 1_555 1_555
O6 C6 1_555 1_555
O7 C7 1_555 1_555
O8 C15 1_555 1_555
O9 Yb2 1_555 1_555
O10 C2 1_555 1_555
O11 C15 1_555 1_555
O12 C1 1_555 1_555
O13 Yb2 1_555 1_555
O14 C23 1_555 1_555
O15 Yb3 1_555 1_555
O16 Yb4 1_555 1_555
N2 Yb2 1_555 1_555
O17 Yb1 1_555 1_555
O18 C9 1_555 1_555
O19 C9 1_555 1_555
O20 C7 1_555 1_555
O21 Yb3 1_555 1_555
C1 O16 1_555 1_555
C2 O9 1_555 1_555
C3 C7 1_555 1_555
N3 Yb1 1_555 1_555
C4 C12 1_555 1_555
N4 Yb3 1_555 1_555
C5 N2 1_555 1_555
C6 O15 1_555 1_555
O22 C23 1_555 1_555
C8 C11 1_555 1_555
C9 C22 1_555 1_555
C10 H1 1_555 1_555
C11 N2 1_555 1_555
H2 C11 1_555 1_555
C12 N1 1_555 1_555
H3 C12 1_555 1_555
C13 C3 1_555 1_555
H4 C13 1_555 1_555
C14 N1 1_555 1_555
C15 C4 1_555 1_555
C16 C14 1_555 1_555
H5 C16 1_555 1_555
C17 C3 1_555 1_555
H6 C17 1_555 1_555
C18 N3 1_555 1_555
H7 C18 1_555 1_555
C19 N4 1_555 1_555
C20 C8 1_555 1_555
H8 C20 1_555 1_555
C21 C5 1_555 1_555
H9 C21 1_555 1_555
C22 C18 1_555 1_555
C23 C8 1_555 1_555
C24 C4 1_555 1_555
H10 C24 1_555 1_555
O23 C26 1_555 1_555
C25 N3 1_555 1_555
C26 O17 1_555 1_555
C27 C22 1_555 1_555
H11 C27 1_555 1_555
C28 C25 1_555 1_555
H12 C28 1_555 1_555
H13 O4 1_555 1_555
H15 O2 1_555 1_555
H16 O3 1_555 1_555
H17 O5 1_555 1_555
H18 O5 1_555 1_555
H19 O13 1_555 1_555
H20 O13 1_555 1_555
H21 O21 1_555 1_555
H22 O21 1_555 1_555
O24 H23 1_555 1_555
H24 O24 1_555 1_555
Yb1_2 O12 1_555 1_555
Yb1A O19 1_555 1_555
Yb1A_2 O7 1_555 1_555
Yb2A O14 1_555 1_555
Yb2A_2 O8 1_555 1_555
Yb3A O20 1_555 1_555
Yb4_2 O10 1_555 1_555
Yb4A O18 1_555 1_555
Yb4A_2 O11 1_555 1_555
O7A Yb1 1_555 1_555
O8A Yb2 1_555 1_555
O10_2 Yb4 1_555 1_555
O11A Yb4 1_555 1_555
O12_2 Yb1 1_555 1_555
O14A Yb2 1_555 1_555
O18A Yb4 1_555 1_555
O19A Yb1 1_555 1_555
O20A Yb3 1_555 1_555
Yb2 O3 1_555 1_555
Yb3 O3 1_555 1_555
Yb3 O4 1_555 1_555
Yb4 O2 1_555 1_555
Yb4 O4 1_555 1_555
C1 C14 1_555 1_555
C2 C5 1_555 1_555
N4 C13 1_555 1_555
C6 C19 1_555 1_555
C10 C17 1_555 1_555
C10 C19 1_555 1_555
C16 C24 1_555 1_555
C20 C21 1_555 1_555
C25 C26 1_555 1_555
C27 C28 1_555 1_555

#END
