
#######################################################################
#
#                 Cambridge Crystallographic Data Centre
#                                CCDC 
#
#######################################################################
#
# If this CIF has been generated from an entry in the Cambridge 
# Structural Database, then it will include bibliographic, chemical, 
# crystal, experimental, refinement or atomic coordinate data resulting 
# from the CCDC's data processing and validation procedures.
#
#######################################################################

data_WUKFEP
_symmetry_cell_setting           monoclinic
_symmetry_space_group_name_H-M   'P 21/c'
_symmetry_Int_Tables_number      14
_space_group_name_Hall           '-P 2ybc'
loop_
_symmetry_equiv_pos_site_id
_symmetry_equiv_pos_as_xyz
1 x,y,z
2 -x,1/2+y,1/2-z
3 -x,-y,-z
4 x,1/2-y,1/2+z
_cell_length_a                   24.9117(17)
_cell_length_b                   13.7340(8)
_cell_length_c                   14.3385(10)
_cell_angle_alpha                90
_cell_angle_beta                 100.551(7)
_cell_angle_gamma                90
_cell_volume                     4822.79
loop_
_atom_site_label
_atom_site_type_symbol
_atom_site_fract_x
_atom_site_fract_y
_atom_site_fract_z
Y1 Y 0.77450(3) 0.00069(5) 0.67747(5)
Y2 Y 0.71975(3) 0.01319(5) 0.31791(5)
Y3 Y 0.74271(3) 0.20821(5) 0.50763(5)
Y4 Y 0.86402(3) 0.10784(5) 0.39953(5)
Y5 Y 0.63549(3) 0.12062(5) 0.63727(5)
Y6 Y 0.77085(3) 0.23178(5) 0.77013(5)
O1 O 0.7147(2) 0.0962(4) 0.7511(3)
O2 O 0.7046(2) 0.0659(4) 0.5633(3)
O3 O 0.7979(2) 0.1576(4) 0.6423(3)
O4 O 0.8697(2) 0.2262(4) 0.2851(4)
O5 O 0.7854(2) 0.0580(4) 0.4482(3)
O6 O 0.7090(2) -0.1037(4) 0.7066(4)
O7 O 0.7882(2) 0.1034(4) 0.2678(3)
O8 O 0.7084(2) 0.1809(4) 0.3481(4)
O9 O 1.0920(2) -0.0434(4) 0.4616(4)
O10 O 0.8227(2) 0.0751(4) 0.8194(4)
O11 O 0.6679(3) -0.5708(4) 0.6762(4)
O12 O 0.8720(2) -0.4434(4) 0.8655(4)
O13 O 0.8118(2) 0.2423(4) 0.4267(4)
O14 O 0.8913(3) 0.0728(5) 0.9425(5)
O15 O 0.7850(2) -0.6263(4) 0.5701(4)
O16 O 0.7019(2) 0.2482(4) 0.6357(4)
O17 O 0.9280(3) 0.2284(4) 0.4848(4)
O18 O 0.7154(3) -0.6297(4) 0.4525(4)
O19 O 0.3596(2) -0.0141(4) 0.6186(4)
O20 O 0.7168(3) -0.1259(4) 0.4234(4)
O21 O 0.7874(2) -0.3998(4) 0.7965(4)
O22 O 0.7748(3) -0.1205(4) 0.5635(4)
O23 O 1.1371(2) 0.0138(4) 0.3525(4)
N1 N 0.6694(3) -0.3846(4) 0.7063(4)
O24 O 0.5945(4) -0.5630(5) 0.5617(6)
O25 O 0.4106(2) -0.0538(4) 0.5091(4)
N2 N 0.9524(3) 0.1035(5) 0.3345(4)
C1 C 0.6291(5) -0.5260(7) 0.6224(7)
O26 O 0.9091(3) 0.2924(5) 0.1716(4)
C2 C 0.8591(3) -0.0771(6) 0.8709(5)
N3 N 0.8214(3) -0.1128(5) 0.8003(4)
C3 C 0.7477(4) -0.4731(5) 0.5090(6)
O27 O 0.6162(3) 0.2294(6) 0.7472(6)
C4 C 0.8495(3) -0.2744(6) 0.8490(5)
O28 O 0.6235(2) -0.0515(4) 0.6546(5)
C5 C 0.8591(3) 0.0326(6) 0.8812(6)
N4 N 0.5384(3) 0.1088(6) 0.6634(5)
O29 O 0.5587(3) 0.3001(7) 0.8310(7)
C6 C 0.7504(4) -0.5831(6) 0.5104(6)
C7 C 0.7456(4) -0.2745(6) 0.5015(6)
C8 C 0.7450(4) -0.1654(6) 0.4953(6)
C9 C 0.6298(4) -0.4187(6) 0.6358(6)
C10 C 0.9959(3) 0.0484(6) 0.3670(5)
H1 H 0.9913 -0.0051 0.4046
C11 C 0.7886(4) -0.4216(6) 0.5606(6)
H2 H 0.8177 -0.4536 0.5980
C12 C 0.7055(4) -0.4269(6) 0.4551(6)
H3 H 0.6768 -0.4636 0.4220
C13 C 1.0964(3) 0.0073(5) 0.3900(5)
C14 C 0.5697(5) 0.2453(9) 0.7649(9)
C15 C 0.4995(4) 0.0471(7) 0.6242(6)
H4 H 0.5095 -0.0087 0.5948
C16 C 0.7874(4) -0.3215(6) 0.5580(6)
H5 H 0.8153 -0.2859 0.5948
C17 C 1.0474(3) 0.0663(6) 0.3479(6)
C18 C 0.9088(3) 0.2380(6) 0.2390(5)
C19 C 0.8946(4) -0.1375(6) 0.9295(6)
H6 H 0.9216 -0.1114 0.9764
C20 C 0.6760(3) -0.2899(6) 0.7168(6)
H7 H 0.7044 -0.2672 0.7630
C21 C 0.6585(3) -0.1151(6) 0.6759(5)
C22 C 0.4691(5) 0.2075(9) 0.7120(10)
H8 H 0.4600 0.2632 0.7424
N5 N 0.7032(4) -0.3273(6) 0.4474(7)
C23 C 1.0545(4) 0.1429(7) 0.2894(7)
H9 H 1.0888 0.1565 0.2757
C24 C 0.8361(3) -0.3808(5) 0.8368(5)
C25 C 0.4449(4) 0.0626(7) 0.6256(6)
C26 C 0.5937(4) -0.3536(7) 0.5808(7)
H10 H 0.5656 -0.3770 0.5345
C27 C 0.4014(4) -0.0086(6) 0.5819(6)
C28 C 0.6002(4) -0.2545(6) 0.5957(6)
H11 H 0.5760 -0.2104 0.5612
C29 C 0.6430(3) -0.2230(5) 0.6625(6)
C30 C 0.9599(4) 0.1761(6) 0.2762(6)
C31 C 0.8161(3) -0.2089(6) 0.7922(6)
H12 H 0.7885 -0.2335 0.7458
O30 O 0.5966(7) 0.2404(8) 0.5261(8)
C32 C 0.5237(5) 0.1843(9) 0.7119(9)
C33 C 0.4297(4) 0.1469(8) 0.6667(8)
H13 H 0.3930 0.1619 0.6635
C34 C 1.0093(4) 0.2000(8) 0.2509(7)
H14 H 1.0123 0.2516 0.2102
C35 C 0.8898(4) -0.2383(7) 0.9177(6)
H15 H 0.9136 -0.2801 0.9561
H16 H 0.8367(12) 0.166(7) 0.641(7)
H17 H 0.6830(15) 0.3152(18) 0.632(3)
H18 H 0.6903(16) 0.020(3) 0.507(2)
H19 H 0.718(4) 0.103(7) 0.8211(18)
H20 H 0.6713(18) 0.209(7) 0.343(7)
H21 H 0.828(2) 0.3094(18) 0.428(6)
H22 H 0.7903(17) 0.012(2) 0.505(2)
H23 H 0.7968(19) 0.098(5) 0.2027(17)
H24 H 0.625(3) 0.235(9) 0.482(7)
H25 H 0.5659(19) 0.202(4) 0.496(4)
H26 H 0.929(4) 0.193(5) 0.545(4)
H27 H 0.914(4) 0.293(3) 0.494(6)
Y1B Y 1.22550(3) -0.00069(5) 0.32253(5)
Y2B Y 0.28025(3) -0.01319(5) 0.68209(5)
Y2C Y 0.71975(3) -0.51319(5) 0.81791(5)
Y3_2 Y 0.74271(3) -0.79179(5) 0.50763(5)
Y4B Y 1.13598(3) -0.10784(5) 0.60047(5)
Y4C Y 0.86402(3) -0.60784(5) 0.89953(5)
Y5B Y 0.36451(3) -0.12062(5) 0.36273(5)
Y6C Y 0.77085(3) 0.26822(5) 0.27013(5)
O4C O 0.8697(2) 0.2738(4) 0.7851(4)
O7C O 0.7882(2) 0.3966(4) 0.7678(3)
O8C O 0.7084(2) 0.3191(4) 0.8481(4)
O9B O 0.9080(2) 0.0434(4) 0.5384(4)
O11C O 0.6679(3) 0.0708(4) 0.1762(4)
O12C O 0.8720(2) -0.0566(4) 0.3655(4)
O13C O 0.8118(2) 0.2577(4) 0.9267(4)
O15_2 O 0.7850(2) 0.3737(4) 0.5701(4)
O18_2 O 0.7154(3) 0.3703(4) 0.4525(4)
O19B O 0.6404(2) 0.0141(4) 0.3814(4)
O21C O 0.7874(2) -0.1002(4) 0.2965(4)
O23B O 0.8629(2) -0.0138(4) 0.6475(4)
N1C N 0.6694(3) -0.1154(4) 0.2063(4)
O25B O 0.5894(2) 0.0538(4) 0.4909(4)
loop_
_geom_bond_atom_site_label_1
_geom_bond_atom_site_label_2
_geom_bond_site_symmetry_1
_geom_bond_site_symmetry_2
Y1 O1 1_555 1_555
Y2 O5 1_555 1_555
Y3 O2 1_555 1_555
Y4 O4 1_555 1_555
Y5 O1 1_555 1_555
Y6 O1 1_555 1_555
O1 H19 1_555 1_555
O2 Y1 1_555 1_555
O3 Y1 1_555 1_555
O4 C18 1_555 1_555
O5 Y3 1_555 1_555
O6 Y1 1_555 1_555
O7 Y2 1_555 1_555
O8 Y2 1_555 1_555
O9 C13 1_555 1_555
O10 Y1 1_555 1_555
O11 C1 1_555 1_555
O12 C24 1_555 1_555
O13 Y3 1_555 1_555
O14 C5 1_555 1_555
O15 C6 1_555 1_555
O16 Y3 1_555 1_555
O17 Y4 1_555 1_555
O18 C6 1_555 1_555
O19 C27 1_555 1_555
O20 Y2 1_555 1_555
O21 C24 1_555 1_555
O22 Y1 1_555 1_555
O23 C13 1_555 1_555
N1 C9 1_555 1_555
O24 C1 1_555 1_555
O25 C27 1_555 1_555
N2 Y4 1_555 1_555
C1 C9 1_555 1_555
O26 C18 1_555 1_555
C2 N3 1_555 1_555
N3 Y1 1_555 1_555
C3 C6 1_555 1_555
O27 Y5 1_555 1_555
C4 C24 1_555 1_555
O28 Y5 1_555 1_555
C5 O10 1_555 1_555
N4 Y5 1_555 1_555
O29 C14 1_555 1_555
C7 C8 1_555 1_555
C8 O20 1_555 1_555
C9 C26 1_555 1_555
C10 N2 1_555 1_555
H1 C10 1_555 1_555
C11 C3 1_555 1_555
H2 C11 1_555 1_555
C12 C3 1_555 1_555
H3 C12 1_555 1_555
C13 C17 1_555 1_555
C14 O27 1_555 1_555
C15 N4 1_555 1_555
H4 C15 1_555 1_555
C16 C7 1_555 1_555
H5 C16 1_555 1_555
C17 C10 1_555 1_555
C18 C30 1_555 1_555
C19 C2 1_555 1_555
H6 C19 1_555 1_555
C20 N1 1_555 1_555
H7 C20 1_555 1_555
C21 O6 1_555 1_555
C22 H8 1_555 1_555
N5 C7 1_555 1_555
C23 C17 1_555 1_555
H9 C23 1_555 1_555
C25 C15 1_555 1_555
C26 H10 1_555 1_555
C27 C25 1_555 1_555
C28 C26 1_555 1_555
H11 C28 1_555 1_555
C29 C20 1_555 1_555
C30 N2 1_555 1_555
C31 N3 1_555 1_555
H12 C31 1_555 1_555
O30 Y5 1_555 1_555
C32 N4 1_555 1_555
C33 C22 1_555 1_555
H13 C33 1_555 1_555
C34 C23 1_555 1_555
H14 C34 1_555 1_555
C35 C4 1_555 1_555
H15 C35 1_555 1_555
H16 O3 1_555 1_555
H17 O16 1_555 1_555
H18 O2 1_555 1_555
H20 O8 1_555 1_555
H21 O13 1_555 1_555
H22 O5 1_555 1_555
H23 O7 1_555 1_555
H24 O30 1_555 1_555
H25 O30 1_555 1_555
H26 O17 1_555 1_555
H27 O17 1_555 1_555
Y1B O23 1_555 1_555
Y2B O19 1_555 1_555
Y2C O11 1_555 1_555
Y3_2 O15 1_555 1_555
Y4B O9 1_555 1_555
Y4C O12 1_555 1_555
Y5B O25 1_555 1_555
Y6C O4 1_555 1_555
O4C Y6 1_555 1_555
O7C Y6 1_555 1_555
O8C Y6 1_555 1_555
O9B Y4 1_555 1_555
O11C Y2 1_555 1_555
O12C Y4 1_555 1_555
O13C Y6 1_555 1_555
O15_2 Y3 1_555 1_555
O18_2 Y3 1_555 1_555
O19B Y2 1_555 1_555
O21C Y2 1_555 1_555
O23B Y1 1_555 1_555
N1C Y2 1_555 1_555
O25B Y5 1_555 1_555
Y3 O3 1_555 1_555
Y3 O8 1_555 1_555
Y4 O5 1_555 1_555
Y4 O7 1_555 1_555
Y4 O13 1_555 1_555
Y5 O2 1_555 1_555
Y5 O16 1_555 1_555
Y6 O3 1_555 1_555
Y6 O10 1_555 1_555
Y6 O16 1_555 1_555
O7 Y6C 1_555 1_555
O8 Y6C 1_555 1_555
O13 Y6C 1_555 1_555
O18 Y3_2 1_555 1_555
O21 Y2C 1_555 1_555
O22 C8 1_555 1_555
N1 Y2C 1_555 1_555
C2 C5 1_555 1_555
C4 C31 1_555 1_555
O28 C21 1_555 1_555
C11 C16 1_555 1_555
C12 N5 1_555 1_555
C14 C32 1_555 1_555
C19 C35 1_555 1_555
C21 C29 1_555 1_555
C22 C32 1_555 1_555
C25 C33 1_555 1_555
C28 C29 1_555 1_555
C30 C34 1_555 1_555

#END
