
#######################################################################
#
#                 Cambridge Crystallographic Data Centre
#                                CCDC 
#
#######################################################################
#
# If this CIF has been generated from an entry in the Cambridge 
# Structural Database, then it will include bibliographic, chemical, 
# crystal, experimental, refinement or atomic coordinate data resulting 
# from the CCDC's data processing and validation procedures.
#
#######################################################################

data_WUKNIZ
_symmetry_cell_setting           monoclinic
_symmetry_space_group_name_H-M   'C 2/c'
_symmetry_Int_Tables_number      15
_space_group_name_Hall           '-C 2yn'
loop_
_symmetry_equiv_pos_site_id
_symmetry_equiv_pos_as_xyz
1 x,y,z
2 x,-y,1/2+z
3 1/2+x,1/2+y,z
4 1/2+x,1/2-y,1/2+z
5 -x,-y,-z
6 -x,y,1/2-z
7 1/2-x,1/2-y,-z
8 1/2-x,1/2+y,1/2-z
_cell_length_a                   10.0661(8)
_cell_length_b                   12.1689(10)
_cell_length_c                   7.3692(7)
_cell_angle_alpha                90
_cell_angle_beta                 106.094(3)
_cell_angle_gamma                90
_cell_volume                     867.301
loop_
_atom_site_label
_atom_site_type_symbol
_atom_site_fract_x
_atom_site_fract_y
_atom_site_fract_z
Mn1 Mn 0.5000 0.34104(2) 0.2500
O1 O 0.24748(10) 0.32119(8) 0.21329(15)
O2 O 0.35538(9) 0.47992(7) 0.25070(14)
O3 O 0.45336(10) 0.32990(8) -0.05212(14)
H1 H 0.431(3) 0.383(2) -0.107(4)
H2 H 0.401(3) 0.285(3) -0.100(4)
N1 N 0.0000 0.65207(12) 0.2500
C1 C 0.24763(12) 0.42332(10) 0.23336(17)
C2 C 0.11652(12) 0.48078(10) 0.23886(17)
C3 C 0.0000 0.42294(14) 0.2500
H3 H 0.0000 0.3465 0.2500
C4 C 0.11046(12) 0.59483(10) 0.23440(18)
H4 H 0.1866 0.6335 0.2199
C2E C -0.11652(12) 0.48078(10) 0.26114(17)
C1E C -0.24763(12) 0.42332(10) 0.26664(17)
O1E O -0.24748(10) 0.32119(8) 0.28671(15)
O2E O -0.35538(9) 0.47992(7) 0.24930(14)
C4E C -0.11046(12) 0.59483(10) 0.26560(18)
H4E H -0.1866 0.6335 0.2801
O3E O 0.54664(10) 0.32990(8) 0.55212(14)
H1E H 0.569(3) 0.383(2) 0.607(4)
H2E H 0.599(3) 0.285(3) 0.600(4)
O1E_2 O 0.75252(10) 0.32119(8) 0.28671(15)
O2E_2 O 0.64462(9) 0.47992(7) 0.24930(14)
N1B N 0.5000 0.15207(12) 0.2500
Mn1B Mn 0.0000 0.84104(2) 0.2500
Mn1_2 Mn -0.5000 0.34104(2) 0.2500
loop_
_geom_bond_atom_site_label_1
_geom_bond_atom_site_label_2
_geom_bond_site_symmetry_1
_geom_bond_site_symmetry_2
Mn1 O1 1_555 1_555
O1 C1 1_555 1_555
O2 Mn1 1_555 1_555
O3 Mn1 1_555 1_555
H1 O3 1_555 1_555
H2 O3 1_555 1_555
N1 C4 1_555 1_555
C1 O2 1_555 1_555
C2 C1 1_555 1_555
C3 C2 1_555 1_555
H3 C3 1_555 1_555
C4 C2 1_555 1_555
H4 C4 1_555 1_555
C2E C3 1_555 1_555
C1E C2E 1_555 1_555
O1E C1E 1_555 1_555
O2E C1E 1_555 1_555
C4E N1 1_555 1_555
H4E C4E 1_555 1_555
O3E Mn1 1_555 1_555
H1E O3E 1_555 1_555
H2E O3E 1_555 1_555
O1E_2 Mn1 1_555 1_555
O2E_2 Mn1 1_555 1_555
N1B Mn1 1_555 1_555
Mn1B N1 1_555 1_555
Mn1_2 O1E 1_555 1_555
C2E C4E 1_555 1_555
O2E Mn1_2 1_555 1_555

#END
