
#######################################################################
#
#                 Cambridge Crystallographic Data Centre
#                                CCDC 
#
#######################################################################
#
# If this CIF has been generated from an entry in the Cambridge 
# Structural Database, then it will include bibliographic, chemical, 
# crystal, experimental, refinement or atomic coordinate data resulting 
# from the CCDC's data processing and validation procedures.
#
#######################################################################

data_WUKNIZ01
_symmetry_cell_setting           monoclinic
_symmetry_space_group_name_H-M   'C 2/c'
_symmetry_Int_Tables_number      15
_space_group_name_Hall           '-C 2yn'
loop_
_symmetry_equiv_pos_site_id
_symmetry_equiv_pos_as_xyz
1 x,y,z
2 -x,y,1/2-z
3 1/2+x,1/2+y,z
4 1/2-x,1/2+y,1/2-z
5 -x,-y,-z
6 x,-y,1/2+z
7 1/2-x,1/2-y,-z
8 1/2+x,1/2-y,1/2+z
_cell_length_a                   10.0632(7)
_cell_length_b                   12.2013(9)
_cell_length_c                   7.4125(6)
_cell_angle_alpha                90
_cell_angle_beta                 106.0510(10)
_cell_angle_gamma                90
_cell_volume                     874.656
loop_
_atom_site_label
_atom_site_type_symbol
_atom_site_fract_x
_atom_site_fract_y
_atom_site_fract_z
Mn1 Mn 0.5000 0.34114(2) 0.2500
O1 O 0.64468(11) 0.47953(9) 0.2483(2)
O2 O 0.75294(12) 0.32156(9) 0.2871(2)
O3 O 0.45381(14) 0.32965(11) -0.0508(2)
H1 H 0.429(3) 0.383(2) -0.111(4)
H2 H 0.397(3) 0.283(2) -0.105(4)
N1 N 1.0000 0.65231(13) 0.2500
C1 C 0.88939(14) 0.59509(12) 0.2650(3)
H3 H 0.8131 0.6336 0.2788
C2 C 0.88335(14) 0.48108(12) 0.2608(2)
C3 C 1.0000 0.42315(16) 0.2500
H4 H 1.0000 0.3469 0.2500
C4 C 0.75240(15) 0.42354(12) 0.2661(2)
Mn1B Mn 1.0000 0.84114(2) 0.2500
Mn1_2 Mn 1.5000 0.34114(2) 0.2500
O1A O 1.35532(11) 0.47953(9) 0.2517(2)
O1A_2 O 0.35532(11) 0.47953(9) 0.2517(2)
O2A O 1.24706(12) 0.32156(9) 0.2129(2)
O2A_2 O 0.24706(12) 0.32156(9) 0.2129(2)
O3A O 0.54619(14) 0.32965(11) 0.5508(2)
H1A H 0.571(3) 0.383(2) 0.611(4)
H2A H 0.603(3) 0.283(2) 0.605(4)
N1B N 0.5000 0.15231(13) 0.2500
C1A C 1.11061(14) 0.59509(12) 0.2350(3)
H3A H 1.1869 0.6336 0.2212
C2A C 1.11665(14) 0.48108(12) 0.2392(2)
C4A C 1.24760(15) 0.42354(12) 0.2339(2)
loop_
_geom_bond_atom_site_label_1
_geom_bond_atom_site_label_2
_geom_bond_site_symmetry_1
_geom_bond_site_symmetry_2
Mn1 O1 1_555 1_555
O1 C4 1_555 1_555
O2 Mn1 1_555 1_555
O3 Mn1 1_555 1_555
H1 O3 1_555 1_555
H2 O3 1_555 1_555
N1 C1 1_555 1_555
C1 H3 1_555 1_555
C2 C1 1_555 1_555
C3 C2 1_555 1_555
H4 C3 1_555 1_555
C4 O2 1_555 1_555
Mn1B N1 1_555 1_555
Mn1_2 O1A 1_555 1_555
O1A C4A 1_555 1_555
O1A_2 Mn1 1_555 1_555
O2A Mn1_2 1_555 1_555
O2A_2 Mn1 1_555 1_555
O3A Mn1 1_555 1_555
H1A O3A 1_555 1_555
H2A O3A 1_555 1_555
N1B Mn1 1_555 1_555
C1A N1 1_555 1_555
H3A C1A 1_555 1_555
C2A C3 1_555 1_555
C4A O2A 1_555 1_555
C2 C4 1_555 1_555
C1A C2A 1_555 1_555
C2A C4A 1_555 1_555

#END
