
#######################################################################
#
#                 Cambridge Crystallographic Data Centre
#                                CCDC 
#
#######################################################################
#
# If this CIF has been generated from an entry in the Cambridge 
# Structural Database, then it will include bibliographic, chemical, 
# crystal, experimental, refinement or atomic coordinate data resulting 
# from the CCDC's data processing and validation procedures.
#
#######################################################################

data_WUKNEV
_symmetry_cell_setting           triclinic
_symmetry_space_group_name_H-M   'P -1'
_symmetry_Int_Tables_number      2
_space_group_name_Hall           '-P 1'
loop_
_symmetry_equiv_pos_site_id
_symmetry_equiv_pos_as_xyz
1 x,y,z
2 -x,-y,-z
_cell_length_a                   9.4522(19)
_cell_length_b                   10.126(2)
_cell_length_c                   10.319(2)
_cell_angle_alpha                110.66(3)
_cell_angle_beta                 95.66(3)
_cell_angle_gamma                109.74(3)
_cell_volume                     842.822
loop_
_atom_site_label
_atom_site_type_symbol
_atom_site_fract_x
_atom_site_fract_y
_atom_site_fract_z
O3 O 0.620(5) 0.601(5) 0.194(5)
O4 O 0.670(3) 0.471(3) -0.354(3)
Er1 Er 0.73115(4) 0.94626(4) -0.01294(4)
O1 O 0.4971(9) 0.7138(9) -0.1462(9)
O2 O 0.7760(9) 0.8118(10) -0.2360(8)
O5 O 0.9127(10) 1.1117(9) 0.2265(9)
O6 O 0.7517(9) 1.1971(9) 0.1505(8)
O7 O 0.8073(9) 0.7668(8) 0.0280(9)
O8 O 1.0581(10) 0.8936(8) 0.0511(10)
O9 O 0.5986(9) 0.8994(10) 0.1521(8)
O10 O 0.4199(9) 0.9946(9) 0.1444(8)
N1 N 1.039(4) 1.245(3) 0.523(3)
N2 N 0.691(4) 0.468(4) -0.071(4)
N3 N 0.733(3) 0.916(4) 0.396(3)
C1 C 0.8629(12) 1.2169(12) 0.2448(12)
C2 C 0.9340(13) 1.3622(13) 0.3764(13)
C3 C 1.0128(16) 1.3660(14) 0.5023(15)
C4 C 0.9192(17) 1.4969(14) 0.3761(14)
C5 C 0.9450(13) 0.7726(12) 0.0343(11)
C6 C 0.9708(12) 0.6318(12) 0.0174(13)
C7 C 0.8495(13) 0.4860(14) -0.0340(17)
C8 C 1.1199(13) 0.6420(12) 0.0512(17)
C9 C 0.5059(11) 0.9558(11) 0.2083(11)
C10 C 0.5064(13) 0.9750(13) 0.3573(13)
C11 C 0.6166(15) 0.9595(18) 0.4455(13)
C12 C 0.3904(14) 1.0175(17) 0.4157(14)
C4A C 1.0808(17) 1.5031(14) 0.6239(14)
C2A C 1.0660(13) 1.6378(13) 0.6236(13)
C1A C 1.1371(12) 1.7831(12) 0.7552(12)
O5A O 1.0873(10) 1.8883(9) 0.7735(9)
O6A O 1.2483(9) 1.8029(9) 0.8495(8)
C3A C 0.9872(16) 1.6340(14) 0.4977(15)
N1A N 0.961(4) 1.755(3) 0.477(3)
C8A C 0.8801(13) 0.3580(12) -0.0512(17)
C6A C 1.0292(12) 0.3682(12) -0.0174(13)
C5A C 1.0550(13) 0.2274(12) -0.0343(11)
O7A O 1.1927(9) 0.2332(8) -0.0280(9)
O8A O 0.9419(10) 0.1064(8) -0.0511(10)
C7A C 1.1505(13) 0.5140(14) 0.0340(17)
N2A N 1.309(4) 0.532(4) 0.071(4)
C12A C 0.6096(14) 0.9825(17) 0.5843(14)
C10A C 0.4936(13) 1.0250(13) 0.6427(13)
C9A C 0.4941(11) 1.0442(11) 0.7917(11)
O9A O 0.4014(9) 1.1006(10) 0.8479(8)
O10A O 0.5801(9) 1.0054(9) 0.8556(8)
C11A C 0.3834(15) 1.0405(18) 0.5545(13)
N3A N 0.267(3) 1.084(4) 0.604(3)
Er1A Er 1.26885(4) 2.05374(4) 1.01294(4)
O1A O 1.5029(9) 2.2862(9) 1.1462(9)
O2A O 1.2240(9) 2.1882(10) 1.2360(8)
O8A_2 O 0.9419(10) 1.1064(8) -0.0511(10)
O10A_2 O 0.5801(9) 1.0054(9) -0.1444(8)
Er1A_2 Er 1.26885(4) 1.05374(4) 0.01294(4)
Er1A_3 Er 0.26885(4) 1.05374(4) 0.01294(4)
Er1A_4 Er 1.26885(4) 0.05374(4) 0.01294(4)
Er1_2 Er 0.73115(4) -0.05374(4) -0.01294(4)
Er1A_5 Er 0.26885(4) 1.05374(4) 1.01294(4)
Er1_3 Er 0.73115(4) 0.94626(4) 0.98706(4)
O7A_2 O 1.1927(9) 2.2332(8) 0.9720(9)
O8_2 O 1.0581(10) 1.8936(8) 1.0511(10)
O9A_2 O 1.4014(9) 2.1006(10) 0.8479(8)
O10_2 O 1.4199(9) 1.9946(9) 1.1444(8)
loop_
_geom_bond_atom_site_label_1
_geom_bond_atom_site_label_2
_geom_bond_site_symmetry_1
_geom_bond_site_symmetry_2
Er1 O1 1_555 1_555
O2 Er1 1_555 1_555
O5 Er1 1_555 1_555
O6 Er1 1_555 1_555
O7 Er1 1_555 1_555
O8 C5 1_555 1_555
O9 Er1 1_555 1_555
O10 C9 1_555 1_555
N1 C3 1_555 1_555
N2 C7 1_555 1_555
N3 C11 1_555 1_555
C1 O5 1_555 1_555
C2 C1 1_555 1_555
C3 C2 1_555 1_555
C4 C2 1_555 1_555
C5 O7 1_555 1_555
C6 C5 1_555 1_555
C7 C6 1_555 1_555
C8 C6 1_555 1_555
C9 O9 1_555 1_555
C10 C9 1_555 1_555
C11 C10 1_555 1_555
C12 C10 1_555 1_555
C4A C3 1_555 1_555
C2A C4A 1_555 1_555
C1A C2A 1_555 1_555
O5A C1A 1_555 1_555
O6A C1A 1_555 1_555
C3A C4 1_555 1_555
N1A C3A 1_555 1_555
C8A C7 1_555 1_555
C6A C8A 1_555 1_555
C5A C6A 1_555 1_555
O7A C5A 1_555 1_555
O8A C5A 1_555 1_555
C7A C8 1_555 1_555
N2A C7A 1_555 1_555
C12A C11 1_555 1_555
C10A C12A 1_555 1_555
C9A C10A 1_555 1_555
O9A C9A 1_555 1_555
O10A C9A 1_555 1_555
C11A C12 1_555 1_555
N3A C11A 1_555 1_555
Er1A O5A 1_555 1_555
O1A Er1A 1_555 1_555
O2A Er1A 1_555 1_555
O8A_2 Er1 1_555 1_555
O10A_2 Er1 1_555 1_555
Er1A_2 O8 1_555 1_555
Er1A_3 O10 1_555 1_555
Er1A_4 O7A 1_555 1_555
Er1_2 O8A 1_555 1_555
Er1A_5 O9A 1_555 1_555
Er1_3 O10A 1_555 1_555
O7A_2 Er1A 1_555 1_555
O8_2 Er1A 1_555 1_555
O9A_2 Er1A 1_555 1_555
O10_2 Er1A 1_555 1_555
O6 C1 1_555 1_555
C2A C3A 1_555 1_555
O6A Er1A 1_555 1_555
C6A C7A 1_555 1_555
C10A C11A 1_555 1_555

#END
