
#######################################################################
#
#                 Cambridge Crystallographic Data Centre
#                                CCDC 
#
#######################################################################
#
# If this CIF has been generated from an entry in the Cambridge 
# Structural Database, then it will include bibliographic, chemical, 
# crystal, experimental, refinement or atomic coordinate data resulting 
# from the CCDC's data processing and validation procedures.
#
#######################################################################

data_WUKQEA
_symmetry_cell_setting           triclinic
_symmetry_space_group_name_H-M   'P -1'
_symmetry_Int_Tables_number      2
_space_group_name_Hall           '-P 1'
loop_
_symmetry_equiv_pos_site_id
_symmetry_equiv_pos_as_xyz
1 x,y,z
2 -x,-y,-z
_cell_length_a                   8.838(5)
_cell_length_b                   10.947(6)
_cell_length_c                   12.608(7)
_cell_angle_alpha                99.094(7)
_cell_angle_beta                 105.843(7)
_cell_angle_gamma                94.354(7)
_cell_volume                     1149.59
loop_
_atom_site_label
_atom_site_type_symbol
_atom_site_fract_x
_atom_site_fract_y
_atom_site_fract_z
Dy1 Dy 0.75617(5) 0.53744(4) 0.47004(4)
O1 O 0.9897(8) 0.4848(6) 0.6002(5)
O2 O 0.6194(9) 0.4255(6) 0.5648(6)
O3 O 0.7325(9) 0.6721(7) 0.6415(6)
O4 O 0.9268(8) 0.7415(6) 0.5171(6)
O5 O 0.4219(8) 0.3204(7) 0.5995(7)
O6 O 1.1981(8) 0.4398(6) 0.7178(6)
O7 O 0.5490(8) 0.3830(6) 0.3129(6)
O8 O 0.7727(8) 0.3165(6) 0.3922(6)
O9 O 0.1934(13) 0.0962(10) -0.0230(9)
O10 O 0.2130(13) -0.0973(9) -0.0472(9)
O11 O 0.6479(11) -0.2599(7) 0.1902(7)
H1 H 0.6853 -0.3157 0.2214
O12 O 0.8028(10) -0.1352(7) 0.3472(7)
C1 C 1.0620(11) 0.4690(8) 0.6973(8)
C2 C 0.9808(11) 0.4991(9) 0.7880(8)
C3 C 1.0237(13) 0.6173(10) 0.8524(8)
H2 H 1.1076 0.6696 0.8462
C4 C 0.9381(16) 0.6570(11) 0.9275(10)
H3 H 0.9673 0.7355 0.9731
C5 C 0.8132(15) 0.5819(12) 0.9340(10)
H4 H 0.7555 0.6102 0.9826
C6 C 0.7708(13) 0.4637(11) 0.8691(9)
H5 H 0.6849 0.4130 0.8745
C7 C 0.8555(12) 0.4198(9) 0.7958(8)
C8 C 0.8149(12) 0.2884(9) 0.7318(8)
C9 C 0.9145(12) 0.2024(10) 0.7655(10)
H6 H 1.0086 0.2277 0.8228
C10 C 0.8746(14) 0.0772(11) 0.7137(11)
H7 H 0.9411 0.0184 0.7363
C11 C 0.7362(16) 0.0424(11) 0.6291(13)
H8 H 0.7123 -0.0401 0.5917
C12 C 0.6347(14) 0.1228(10) 0.5987(11)
H9 H 0.5374 0.0941 0.5455
C13 C 0.6717(11) 0.2497(9) 0.6454(8)
C14 C 0.5639(11) 0.3398(9) 0.6013(7)
C15 C 0.6351(11) 0.2968(9) 0.3240(8)
C16 C 0.5767(12) 0.1687(9) 0.2564(8)
C17 C 0.6559(13) 0.0699(9) 0.2854(9)
H10 H 0.7456 0.0835 0.3471
C18 C 0.6032(13) -0.0509(9) 0.2232(9)
C19 C 0.4697(13) -0.0733(10) 0.1317(9)
H11 H 0.4329 -0.1533 0.0902
C20 C 0.3922(12) 0.0290(10) 0.1040(8)
C21 C 0.4413(12) 0.1478(9) 0.1631(9)
H12 H 0.3864 0.2134 0.1420
N1 N 0.2519(12) 0.0066(9) 0.0034(8)
C22 C 0.6945(14) -0.1516(10) 0.2605(10)
Dy1A Dy 0.24383(5) 0.46256(4) 0.52996(4)
Dy1A_2 Dy 1.24383(5) 0.46256(4) 0.52996(4)
O1A O 1.0103(8) 0.5152(6) 0.3998(5)
O5A O 0.5781(8) 0.6796(7) 0.4005(7)
O6A O 0.8019(8) 0.5602(6) 0.2822(6)
loop_
_geom_bond_atom_site_label_1
_geom_bond_atom_site_label_2
_geom_bond_site_symmetry_1
_geom_bond_site_symmetry_2
Dy1 O1 1_555 1_555
O1 C1 1_555 1_555
O2 Dy1 1_555 1_555
O3 Dy1 1_555 1_555
O4 Dy1 1_555 1_555
O5 C14 1_555 1_555
O6 C1 1_555 1_555
O7 Dy1 1_555 1_555
O8 Dy1 1_555 1_555
O9 N1 1_555 1_555
O10 N1 1_555 1_555
O11 H1 1_555 1_555
O12 C22 1_555 1_555
C1 C2 1_555 1_555
C2 C3 1_555 1_555
C3 H2 1_555 1_555
C4 C3 1_555 1_555
H3 C4 1_555 1_555
C5 C4 1_555 1_555
H4 C5 1_555 1_555
C6 C5 1_555 1_555
H5 C6 1_555 1_555
C7 C2 1_555 1_555
C8 C7 1_555 1_555
C9 C8 1_555 1_555
H6 C9 1_555 1_555
C10 C9 1_555 1_555
H7 C10 1_555 1_555
C11 C10 1_555 1_555
H8 C11 1_555 1_555
C12 C11 1_555 1_555
H9 C12 1_555 1_555
C13 C8 1_555 1_555
C14 O2 1_555 1_555
C15 O7 1_555 1_555
C16 C15 1_555 1_555
C17 C16 1_555 1_555
H10 C17 1_555 1_555
C18 C17 1_555 1_555
C19 C18 1_555 1_555
H11 C19 1_555 1_555
C20 C19 1_555 1_555
C21 C16 1_555 1_555
H12 C21 1_555 1_555
N1 C20 1_555 1_555
C22 O11 1_555 1_555
Dy1A O5 1_555 1_555
Dy1A_2 O1 1_555 1_555
O1A Dy1 1_555 1_555
O5A Dy1 1_555 1_555
O6A Dy1 1_555 1_555
O6 Dy1A_2 1_555 1_555
O8 C15 1_555 1_555
C6 C7 1_555 1_555
C12 C13 1_555 1_555
C13 C14 1_555 1_555
C18 C22 1_555 1_555
C20 C21 1_555 1_555
Dy1A_2 O1A 1_555 1_555

#END
