
#######################################################################
#
#                 Cambridge Crystallographic Data Centre
#                                CCDC 
#
#######################################################################
#
# If this CIF has been generated from an entry in the Cambridge 
# Structural Database, then it will include bibliographic, chemical, 
# crystal, experimental, refinement or atomic coordinate data resulting 
# from the CCDC's data processing and validation procedures.
#
#######################################################################

data_WUKQAW
_symmetry_cell_setting           triclinic
_symmetry_space_group_name_H-M   'P -1'
_symmetry_Int_Tables_number      2
_space_group_name_Hall           '-P 1'
loop_
_symmetry_equiv_pos_site_id
_symmetry_equiv_pos_as_xyz
1 x,y,z
2 -x,-y,-z
_cell_length_a                   7.422(3)
_cell_length_b                   9.221(4)
_cell_length_c                   11.545(5)
_cell_angle_alpha                73.991(4)
_cell_angle_beta                 71.882(4)
_cell_angle_gamma                79.923(4)
_cell_volume                     718.372
loop_
_atom_site_label
_atom_site_type_symbol
_atom_site_fract_x
_atom_site_fract_y
_atom_site_fract_z
Y1 Y 0.10623(5) 0.55392(4) 0.72078(3)
N1 N 0.3227(6) -0.0969(5) 1.2315(4)
O1 O 0.1665(5) 0.3712(3) 0.9041(3)
O2 O 0.1183(5) 0.2814(3) 0.7606(3)
O3 O 0.3032(7) 0.0114(5) 1.2766(4)
O4 O 0.3742(8) -0.2244(5) 1.2819(4)
O5 O 0.4550(5) -0.3852(4) 0.8671(3)
O6 O 0.1821(4) -0.2900(3) 0.8204(3)
O7 O 0.2225(4) 0.5139(4) 0.5146(3)
O8 O 0.4341(4) 0.5359(4) 0.6631(3)
H1 H 0.4937 0.5572 0.5855
H2 H 0.4702 0.5652 0.7123
O9 O 0.0610(5) 0.8004(4) 0.6014(3)
H3 H 0.0615 0.8140 0.5255
H4 H 0.1124 0.8583 0.6210
O10 O -0.1780(4) 0.5780(4) 0.8758(3)
H5 H -0.2751 0.6246 0.8528
H6 H -0.1566 0.5976 0.9351
O11 O 0.1438(4) 0.4685(4) 0.3568(3)
C1 C 0.1607(6) 0.2597(5) 0.8628(4)
C2 C 0.2096(6) 0.1013(5) 0.9316(4)
C3 C 0.2361(6) 0.0755(5) 1.0497(4)
H7 H 0.2180 0.1546 1.0890
C4 C 0.2901(6) -0.0707(5) 1.1071(4)
C5 C 0.3213(6) -0.1928(5) 1.0527(4)
H8 H 0.3630 -0.2892 1.0927
C6 C 0.2881(6) -0.1658(5) 0.9363(4)
C7 C 0.2296(6) -0.0197(5) 0.8777(4)
H9 H 0.2035 -0.0029 0.8011
C8 C 0.3131(6) -0.2920(5) 0.8706(4)
C9 C 0.1061(6) 0.4942(5) 0.4624(4)
O7A O -0.2225(4) 0.4861(4) 0.4854(3)
C9A C -0.1061(6) 0.5058(5) 0.5376(4)
O11A O -0.1438(4) 0.5315(4) 0.6432(3)
Y1A Y -0.10623(5) 0.44608(4) 0.27922(3)
N1A N -0.3227(6) 1.0969(5) -0.2315(4)
O1A O -0.1665(5) 0.6288(3) 0.0959(3)
O2A O -0.1183(5) 0.7186(3) 0.2394(3)
O3A O -0.3032(7) 0.9886(5) -0.2766(4)
O4A O -0.3742(8) 1.2244(5) -0.2819(4)
O5A O -0.4550(5) 1.3852(4) 0.1329(3)
O6A O -0.1821(4) 1.2900(3) 0.1796(3)
O8A O -0.4341(4) 0.4641(4) 0.3369(3)
H1A H -0.4937 0.4428 0.4145
H2A H -0.4702 0.4348 0.2877
O9A O -0.0610(5) 0.1996(4) 0.3986(3)
H3A H -0.0615 0.1860 0.4745
H4A H -0.1124 0.1417 0.3790
O10A O 0.1780(4) 0.4220(4) 0.1242(3)
H5A H 0.2751 0.3754 0.1472
H6A H 0.1566 0.4024 0.0649
C1A C -0.1607(6) 0.7403(5) 0.1372(4)
C2A C -0.2096(6) 0.8987(5) 0.0684(4)
C3A C -0.2361(6) 0.9245(5) -0.0497(4)
H7A H -0.2180 0.8454 -0.0890
C4A C -0.2901(6) 1.0707(5) -0.1071(4)
C5A C -0.3213(6) 1.1928(5) -0.0527(4)
H8A H -0.3630 1.2892 -0.0927
C6A C -0.2881(6) 1.1658(5) 0.0637(4)
C7A C -0.2296(6) 1.0197(5) 0.1223(4)
H9A H -0.2035 1.0029 0.1989
C8A C -0.3131(6) 1.2920(5) 0.1294(4)
Y1_2 Y 0.10623(5) -0.44608(4) 0.72078(3)
Y1A_2 Y -0.10623(5) 1.44608(4) 0.27922(3)
O6_2 O 0.1821(4) 0.7100(3) 0.8204(3)
O6A_2 O -0.1821(4) 0.2900(3) 0.1796(3)
O12 O 0.8771(7) 0.8855(5) 0.4153(4)
H10 H 0.8999 0.8374 0.3583
H11 H 0.7585 0.8877 0.4523
O13 O 0.5022(14) 0.8666(12) 0.5032(11)
H12 H 0.4511 0.8508 0.4519
H13 H 0.4658 0.8092 0.5759
loop_
_geom_bond_atom_site_label_1
_geom_bond_atom_site_label_2
_geom_bond_site_symmetry_1
_geom_bond_site_symmetry_2
Y1 O1 1_555 1_555
N1 O3 1_555 1_555
O1 C1 1_555 1_555
O2 Y1 1_555 1_555
O4 N1 1_555 1_555
O5 C8 1_555 1_555
O6 C8 1_555 1_555
O7 Y1 1_555 1_555
O8 Y1 1_555 1_555
H1 O8 1_555 1_555
H2 O8 1_555 1_555
O9 Y1 1_555 1_555
H3 O9 1_555 1_555
H4 O9 1_555 1_555
O10 Y1 1_555 1_555
H5 O10 1_555 1_555
H6 O10 1_555 1_555
O11 C9 1_555 1_555
C1 O2 1_555 1_555
C2 C1 1_555 1_555
C3 C2 1_555 1_555
H7 C3 1_555 1_555
C4 N1 1_555 1_555
C5 C4 1_555 1_555
H8 C5 1_555 1_555
C6 C5 1_555 1_555
C7 C2 1_555 1_555
H9 C7 1_555 1_555
C8 C6 1_555 1_555
C9 O7 1_555 1_555
O12 H10 1_555 1_555
H11 O12 1_555 1_555
O13 H12 1_555 1_555
H13 O13 1_555 1_555
O7A C9A 1_555 1_555
C9A C9 1_555 1_555
O11A Y1 1_555 1_555
Y1A O11 1_555 1_555
N1A O3A 1_555 1_555
O1A Y1A 1_555 1_555
O2A Y1A 1_555 1_555
O4A N1A 1_555 1_555
O5A C8A 1_555 1_555
O6A C8A 1_555 1_555
O8A Y1A 1_555 1_555
H1A O8A 1_555 1_555
H2A O8A 1_555 1_555
O9A Y1A 1_555 1_555
H3A O9A 1_555 1_555
H4A O9A 1_555 1_555
O10A Y1A 1_555 1_555
H5A O10A 1_555 1_555
H6A O10A 1_555 1_555
C1A O1A 1_555 1_555
C2A C1A 1_555 1_555
C3A C2A 1_555 1_555
H7A C3A 1_555 1_555
C4A N1A 1_555 1_555
C5A C4A 1_555 1_555
H8A C5A 1_555 1_555
C6A C5A 1_555 1_555
C7A C2A 1_555 1_555
H9A C7A 1_555 1_555
C8A C6A 1_555 1_555
Y1_2 O6 1_555 1_555
Y1A_2 O6A 1_555 1_555
O6_2 Y1 1_555 1_555
O6A_2 Y1A 1_555 1_555
C3 C4 1_555 1_555
C6 C7 1_555 1_555
O7A Y1A 1_555 1_555
C9A O11A 1_555 1_555
O2A C1A 1_555 1_555
C3A C4A 1_555 1_555
C6A C7A 1_555 1_555

#END
