
#######################################################################
#
#                 Cambridge Crystallographic Data Centre
#                                CCDC 
#
#######################################################################
#
# If this CIF has been generated from an entry in the Cambridge 
# Structural Database, then it will include bibliographic, chemical, 
# crystal, experimental, refinement or atomic coordinate data resulting 
# from the CCDC's data processing and validation procedures.
#
#######################################################################

data_WUKSIG
_symmetry_cell_setting           monoclinic
_symmetry_space_group_name_H-M   'P 21/n'
_symmetry_Int_Tables_number      14
_space_group_name_Hall           '-P 2yn'
loop_
_symmetry_equiv_pos_site_id
_symmetry_equiv_pos_as_xyz
1 x,y,z
2 1/2-x,1/2+y,1/2-z
3 -x,-y,-z
4 1/2+x,1/2-y,1/2+z
_cell_length_a                   7.7577(3)
_cell_length_b                   7.2598(3)
_cell_length_c                   9.8914(4)
_cell_angle_alpha                90
_cell_angle_beta                 93.941(2)
_cell_angle_gamma                90
_cell_volume                     555.76
loop_
_atom_site_label
_atom_site_type_symbol
_atom_site_fract_x
_atom_site_fract_y
_atom_site_fract_z
Mn1 Mn 0.70468(2) 0.21708(2) 1.23238(2)
Mn2 Mn 0.5000 0.5000 1.0000
C1 C 0.85359(10) 0.40071(10) 0.84972(8)
H1 H 0.8260 0.4706 0.7700
C2 C 0.98585(10) 0.23470(11) 0.99723(8)
H2 H 1.0721 0.1619 1.0445
C3 C 0.44928(9) 0.08776(9) 0.97776(7)
N1 N 0.74752(9) 0.37995(9) 0.94736(7)
N2 N 0.83355(9) 0.27081(9) 1.04425(7)
N3 N 1.00573(9) 0.31209(10) 0.87506(7)
O1 O 0.45274(8) 0.21755(7) 1.06203(6)
O2 O 0.37273(8) 0.08493(8) 0.86209(6)
F1 F 0.88537(6) 0.01368(7) 1.30265(5)
C3B C 0.55072(9) -0.08776(9) 1.02224(7)
O1B O 0.54726(8) -0.21755(7) 0.93797(6)
O2B O 0.62727(8) -0.08493(8) 1.13791(6)
Mn1B Mn 0.29532(2) -0.21708(2) 0.76762(2)
C1B C 0.14641(10) -0.40071(10) 1.15028(8)
H1B H 0.1740 -0.4706 1.2300
C2B C 0.01415(10) -0.23470(11) 1.00277(8)
H2B H -0.0721 -0.1619 0.9555
N1B N 0.25248(9) -0.37995(9) 1.05264(7)
N2B N 0.16645(9) -0.27081(9) 0.95575(7)
N3B N -0.00573(9) -0.31209(10) 1.12494(7)
F1B F 0.11463(6) -0.01368(7) 0.69735(5)
Mn1A Mn -0.20468(2) -0.28292(2) 1.26762(2)
Mn1A_2 Mn 0.79532(2) -0.28292(2) 1.26762(2)
Mn1C Mn 0.20468(2) 0.28292(2) 0.73238(2)
Mn1C_2 Mn 1.20468(2) 0.28292(2) 0.73238(2)
Mn2_2 Mn 0.5000 -0.5000 1.0000
Mn2A Mn 0.0000 0.0000 0.5000
Mn2A_2 Mn 1.0000 0.0000 1.5000
N1B_2 N 0.25248(9) 0.62005(9) 1.05264(7)
N3A N 0.49427(9) -0.18791(10) 0.62494(7)
N3C N 0.50573(9) 0.18791(10) 1.37506(7)
O1B_2 O 0.54726(8) 0.78245(7) 0.93797(6)
O2A O 0.12727(8) -0.41507(8) 0.63791(6)
O2C O 0.87273(8) 0.41507(8) 1.36209(6)
F1A F 0.61463(6) 0.51368(7) 1.19735(5)
F1C F 0.38537(6) -0.51368(7) 0.80265(5)
F1C_2 F 0.38537(6) 0.48632(7) 0.80265(5)
loop_
_geom_bond_atom_site_label_1
_geom_bond_atom_site_label_2
_geom_bond_site_symmetry_1
_geom_bond_site_symmetry_2
Mn1 N2 1_555 1_555
Mn2 N1 1_555 1_555
C1 H1 1_555 1_555
C2 H2 1_555 1_555
C3 O1 1_555 1_555
N1 C1 1_555 1_555
N2 C2 1_555 1_555
N3 C1 1_555 1_555
O1 Mn2 1_555 1_555
O2 C3 1_555 1_555
F1 Mn1 1_555 1_555
C3B C3 1_555 1_555
O1B C3B 1_555 1_555
O2B Mn1 1_555 1_555
Mn1B O2 1_555 1_555
C1B H1B 1_555 1_555
C2B H2B 1_555 1_555
N1B C1B 1_555 1_555
N2B Mn1B 1_555 1_555
N3B C1B 1_555 1_555
F1B Mn1B 1_555 1_555
Mn1A N3B 1_555 1_555
Mn1A_2 F1 1_555 1_555
Mn1C O2 1_555 1_555
Mn1C_2 N3 1_555 1_555
Mn2_2 O1B 1_555 1_555
Mn2A F1B 1_555 1_555
Mn2A_2 F1 1_555 1_555
N1B_2 Mn2 1_555 1_555
N3A Mn1B 1_555 1_555
N3C Mn1 1_555 1_555
O1B_2 Mn2 1_555 1_555
O2A Mn1B 1_555 1_555
O2C Mn1 1_555 1_555
F1A Mn1 1_555 1_555
F1C Mn1B 1_555 1_555
F1C_2 Mn2 1_555 1_555
Mn2 F1A 1_555 1_555
C2 N3 1_555 1_555
N1 N2 1_555 1_555
C3B O2B 1_555 1_555
O2B Mn1A_2 1_555 1_555
C2B N2B 1_555 1_555
C2B N3B 1_555 1_555
N1B N2B 1_555 1_555
N1B Mn2_2 1_555 1_555
F1B Mn1C 1_555 1_555
Mn1C F1C_2 1_555 1_555
Mn2_2 F1C 1_555 1_555

#END
