
#######################################################################
#
#                 Cambridge Crystallographic Data Centre
#                                CCDC 
#
#######################################################################
#
# If this CIF has been generated from an entry in the Cambridge 
# Structural Database, then it will include bibliographic, chemical, 
# crystal, experimental, refinement or atomic coordinate data resulting 
# from the CCDC's data processing and validation procedures.
#
#######################################################################

data_WUKSEC
_symmetry_cell_setting           monoclinic
_symmetry_space_group_name_H-M   'P 21/c'
_symmetry_Int_Tables_number      14
_space_group_name_Hall           '-P 2ybc'
loop_
_symmetry_equiv_pos_site_id
_symmetry_equiv_pos_as_xyz
1 x,y,z
2 -x,1/2+y,1/2-z
3 -x,-y,-z
4 x,1/2-y,1/2+z
_cell_length_a                   7.4835(16)
_cell_length_b                   8.8171(19)
_cell_length_c                   10.058(2)
_cell_angle_alpha                90
_cell_angle_beta                 100.450(6)
_cell_angle_gamma                90
_cell_volume                     652.647
loop_
_atom_site_label
_atom_site_type_symbol
_atom_site_fract_x
_atom_site_fract_y
_atom_site_fract_z
C1 C 0.0174(3) 0.8226(2) 0.2368(2)
H1 H -0.0451 0.8444 0.1479
C2 C 0.1919(3) 0.7219(2) 0.4015(2)
H2 H 0.2785 0.6571 0.4541
C3 C 0.5460(3) 0.5755(2) 0.0294(2)
N1 N 0.1424(3) 0.71119(19) 0.26601(18)
N2 N -0.0083(3) 0.8980(2) 0.34531(18)
N3 N 0.1063(3) 0.8332(2) 0.45345(18)
O1 O 0.6856(2) 0.61644(18) -0.01259(18)
O2 O 0.4725(2) 0.64458(17) 0.11439(16)
O3 O 0.3934(2) 0.44238(18) 0.31548(18)
H3 H 0.5112 0.4831 0.3322
H4 H 0.4244 0.3484 0.3334
Zn1 Zn 0.21291(4) 0.54976(3) 0.13762(2)
C3B C 0.4540(3) 0.4245(2) -0.0294(2)
O2B O 0.5275(2) 0.35542(17) -0.11439(16)
O1B O 0.3144(2) 0.38356(18) 0.01259(18)
C1B C 0.9826(3) 0.1774(2) -0.2368(2)
H1B H 1.0451 0.1556 -0.1479
C2B C 0.8081(3) 0.2781(2) -0.4015(2)
H2B H 0.7215 0.3429 -0.4541
N1B N 0.8576(3) 0.28881(19) -0.26601(18)
N2B N 1.0083(3) 0.1020(2) -0.34531(18)
N3B N 0.8937(3) 0.1668(2) -0.45345(18)
O3B O 0.6066(2) 0.55762(18) -0.31548(18)
H3B H 0.4888 0.5169 -0.3322
H4B H 0.5756 0.6516 -0.3334
Zn1B Zn 0.78709(4) 0.45024(3) -0.13762(2)
N2A N 0.0083(3) 0.3980(2) 0.15469(18)
N2C N 0.9917(3) 0.6020(2) -0.15469(18)
N3A N 0.8937(3) 0.3332(2) 0.04655(18)
N3C N 0.1063(3) 0.6668(2) -0.04655(18)
Zn1A Zn -0.21291(4) 1.04976(3) 0.36238(2)
Zn1A_2 Zn 0.78709(4) 0.04976(3) -0.63762(2)
Zn1C Zn 0.21291(4) 0.95024(3) 0.63762(2)
Zn1C_2 Zn 1.21291(4) -0.04976(3) -0.36238(2)
H5 H 0.7207 0.6665 0.4302
O4 O 0.7338(3) 0.5846(2) 0.3922(2)
H6 H 0.7672 0.6150 0.3159
loop_
_geom_bond_atom_site_label_1
_geom_bond_atom_site_label_2
_geom_bond_site_symmetry_1
_geom_bond_site_symmetry_2
C1 H1 1_555 1_555
C2 H2 1_555 1_555
C3 O1 1_555 1_555
N1 C1 1_555 1_555
N2 C1 1_555 1_555
N3 C2 1_555 1_555
O1 Zn1B 1_555 1_555
O2 C3 1_555 1_555
O3 H3 1_555 1_555
H4 O3 1_555 1_555
Zn1 N1 1_555 1_555
H5 O4 1_555 1_555
O4 H6 1_555 1_555
C3B C3 1_555 1_555
O2B C3B 1_555 1_555
O1B Zn1 1_555 1_555
C1B H1B 1_555 1_555
C2B H2B 1_555 1_555
N1B C1B 1_555 1_555
N2B C1B 1_555 1_555
N3B C2B 1_555 1_555
O3B H3B 1_555 1_555
H4B O3B 1_555 1_555
Zn1B O2B 1_555 1_555
N2A Zn1 1_555 1_555
N2C Zn1B 1_555 1_555
N3A Zn1B 1_555 1_555
N3C Zn1 1_555 1_555
Zn1A N2 1_555 1_555
Zn1A_2 N3B 1_555 1_555
Zn1C N3 1_555 1_555
Zn1C_2 N2B 1_555 1_555
C2 N1 1_555 1_555
N2 N3 1_555 1_555
O2 Zn1 1_555 1_555
O3 Zn1 1_555 1_555
C3B O1B 1_555 1_555
C2B N1B 1_555 1_555
N1B Zn1B 1_555 1_555
N2B N3B 1_555 1_555
O3B Zn1B 1_555 1_555

#END
