
#######################################################################
#
#                 Cambridge Crystallographic Data Centre
#                                CCDC 
#
#######################################################################
#
# If this CIF has been generated from an entry in the Cambridge 
# Structural Database, then it will include bibliographic, chemical, 
# crystal, experimental, refinement or atomic coordinate data resulting 
# from the CCDC's data processing and validation procedures.
#
#######################################################################

data_WUKVUV
_symmetry_cell_setting           triclinic
_symmetry_space_group_name_H-M   'P -1'
_symmetry_Int_Tables_number      2
_space_group_name_Hall           '-P 1'
loop_
_symmetry_equiv_pos_site_id
_symmetry_equiv_pos_as_xyz
1 x,y,z
2 -x,-y,-z
_cell_length_a                   9.9024(4)
_cell_length_b                   10.5868(4)
_cell_length_c                   11.7275(8)
_cell_angle_alpha                114.5550(10)
_cell_angle_beta                 91.5720(10)
_cell_angle_gamma                116.52
_cell_volume                     965.724
loop_
_atom_site_label
_atom_site_type_symbol
_atom_site_fract_x
_atom_site_fract_y
_atom_site_fract_z
U1 U 0.46433(2) 0.79220(2) 0.19492(2)
O1 O 0.4047(3) 0.5949(3) 0.0768(2)
O2 O 0.5272(2) 0.9918(3) 0.3129(2)
O3 O 0.6085(2) 0.8981(3) 0.0573(2)
O4 O 0.7359(2) 0.8691(3) 0.1903(2)
O5 O 0.3486(2) 0.6397(3) 0.3172(2)
O6 O 0.6036(2) 0.7738(3) 0.3611(2)
N1 N 0.2619(3) 0.7434(3) 0.0065(2)
N2 N 0.2028(3) 0.7755(3) 0.2342(2)
C1 C 0.2940(4) 0.7250(4) -0.1076(3)
H1 H 0.3973 0.7580 -0.1108
C2 C 0.1850(4) 0.6605(4) -0.2210(3)
C3 C 0.2337(4) 0.6404(5) -0.3451(3)
H2 H 0.1443 0.5943 -0.4139
H3 H 0.2766 0.5706 -0.3667
H4 H 0.3111 0.7434 -0.3337
C4 C 0.0326(4) 0.6145(4) -0.2137(3)
H5 H -0.0451 0.5707 -0.2873
C5 C -0.0043(3) 0.6333(4) -0.0978(3)
H6 H -0.1067 0.6032 -0.0926
C6 C 0.1124(3) 0.6976(3) 0.0121(3)
C7 C 0.0805(3) 0.7208(3) 0.1388(3)
C8 C -0.0627(3) 0.6967(4) 0.1634(3)
H7 H -0.1474 0.6560 0.0965
C9 C -0.0788(4) 0.7333(4) 0.2874(3)
H8 H -0.1751 0.7161 0.3042
C10 C 0.0389(4) 0.8434(5) 0.5251(3)
H9 H 0.1384 0.8826 0.5786
H10 H -0.0396 0.7519 0.5300
H11 H 0.0123 0.9265 0.5552
C11 C 0.0475(4) 0.7956(4) 0.3874(3)
C12 C 0.1857(3) 0.8131(4) 0.3543(3)
H12 H 0.2717 0.8535 0.4198
C13 C 0.4806(3) 0.6726(4) 0.3698(3)
C14 C 0.4906(3) 0.5842(4) 0.4386(3)
C15 C 0.3734(4) 0.4266(4) 0.3970(3)
H13 H 0.2879 0.3770 0.3275
C16 C 0.6167(4) 0.6566(4) 0.5416(3)
H14 H 0.6955 0.7620 0.5698
C17 C 0.7311(3) 0.9058(4) 0.1013(3)
C18 C 0.8698(3) 0.9570(3) 0.0493(3)
C19 C 1.0165(3) 1.0111(4) 0.1220(3)
H15 H 1.0275 1.0182 0.2038
C20 C 0.8540(3) 0.9458(3) -0.0726(3)
H16 H 0.7563 0.9092 -0.1216
O3A O 1.3915(2) 1.1019(3) -0.0573(2)
O4A O 1.2641(2) 1.1309(3) -0.1903(2)
C17A C 1.2689(3) 1.0942(4) -0.1013(3)
C18A C 1.1302(3) 1.0430(3) -0.0493(3)
C19A C 0.9835(3) 0.9889(4) -0.1220(3)
H15A H 0.9725 0.9818 -0.2038
C20A C 1.1460(3) 1.0542(3) 0.0726(3)
H16A H 1.2437 1.0908 0.1216
O5A O 0.6514(2) 0.3603(3) 0.6828(2)
O6A O 0.3964(2) 0.2262(3) 0.6389(2)
C13A C 0.5194(3) 0.3274(4) 0.6302(3)
C14A C 0.5094(3) 0.4158(4) 0.5614(3)
C15A C 0.6266(4) 0.5734(4) 0.6030(3)
H13A H 0.7121 0.6230 0.6725
C16A C 0.3833(4) 0.3434(4) 0.4584(3)
H14A H 0.3045 0.2380 0.4302
U1A U 0.53567(2) 0.20780(2) 0.80508(2)
O1A O 0.5953(3) 0.4051(3) 0.9232(2)
O2A O 0.4728(2) 0.0082(3) 0.6871(2)
N1A N 0.7381(3) 0.2566(3) 0.9935(2)
N2A N 0.7972(3) 0.2245(3) 0.7658(2)
C1A C 0.7060(4) 0.2750(4) 1.1076(3)
H1A H 0.6027 0.2420 1.1108
C2A C 0.8150(4) 0.3395(4) 1.2210(3)
C3A C 0.7663(4) 0.3596(5) 1.3451(3)
H2A H 0.8557 0.4057 1.4139
H3A H 0.7234 0.4294 1.3667
H4A H 0.6889 0.2566 1.3337
C4A C 0.9674(4) 0.3855(4) 1.2137(3)
H5A H 1.0451 0.4293 1.2873
C5A C 1.0043(3) 0.3667(4) 1.0978(3)
H6A H 1.1067 0.3968 1.0926
C6A C 0.8876(3) 0.3024(3) 0.9879(3)
C7A C 0.9195(3) 0.2792(3) 0.8612(3)
C8A C 1.0627(3) 0.3033(4) 0.8366(3)
H7A H 1.1474 0.3440 0.9035
C9A C 1.0788(4) 0.2667(4) 0.7126(3)
H8A H 1.1751 0.2839 0.6958
C10A C 0.9611(4) 0.1566(5) 0.4749(3)
H9A H 0.8616 0.1174 0.4214
H10A H 1.0396 0.2481 0.4700
H11A H 0.9877 0.0735 0.4448
C11A C 0.9525(4) 0.2044(4) 0.6126(3)
C12A C 0.8143(3) 0.1869(4) 0.6457(3)
H12A H 0.7283 0.1465 0.5802
U1A_2 U 1.53567(2) 1.20780(2) -0.19492(2)
O3A_2 O 0.3915(2) 0.1019(3) 0.9427(2)
O4A_2 O 0.2641(2) 0.1309(3) 0.8097(2)
loop_
_geom_bond_atom_site_label_1
_geom_bond_atom_site_label_2
_geom_bond_site_symmetry_1
_geom_bond_site_symmetry_2
U1 O1 1_555 1_555
O2 U1 1_555 1_555
O3 U1 1_555 1_555
O4 U1 1_555 1_555
O5 U1 1_555 1_555
O6 U1 1_555 1_555
N1 U1 1_555 1_555
N2 U1 1_555 1_555
C1 N1 1_555 1_555
H1 C1 1_555 1_555
C2 C1 1_555 1_555
C3 C2 1_555 1_555
H2 C3 1_555 1_555
H3 C3 1_555 1_555
H4 C3 1_555 1_555
C4 C2 1_555 1_555
H5 C4 1_555 1_555
C5 C4 1_555 1_555
H6 C5 1_555 1_555
C6 N1 1_555 1_555
C7 N2 1_555 1_555
C8 C7 1_555 1_555
H7 C8 1_555 1_555
C9 C8 1_555 1_555
H8 C9 1_555 1_555
C10 H9 1_555 1_555
H10 C10 1_555 1_555
H11 C10 1_555 1_555
C11 C9 1_555 1_555
C12 N2 1_555 1_555
H12 C12 1_555 1_555
C13 O5 1_555 1_555
C14 C13 1_555 1_555
C15 C14 1_555 1_555
H13 C15 1_555 1_555
C16 C14 1_555 1_555
H14 C16 1_555 1_555
C17 O3 1_555 1_555
C18 C17 1_555 1_555
C19 C18 1_555 1_555
H15 C19 1_555 1_555
C20 C18 1_555 1_555
H16 C20 1_555 1_555
O3A C17A 1_555 1_555
O4A C17A 1_555 1_555
C17A C18A 1_555 1_555
C18A C19A 1_555 1_555
C19A C20 1_555 1_555
H15A C19A 1_555 1_555
C20A C19 1_555 1_555
H16A C20A 1_555 1_555
O5A C13A 1_555 1_555
O6A C13A 1_555 1_555
C13A C14A 1_555 1_555
C14A C15A 1_555 1_555
C15A C16 1_555 1_555
H13A C15A 1_555 1_555
C16A C15 1_555 1_555
H14A C16A 1_555 1_555
U1A O5A 1_555 1_555
O1A U1A 1_555 1_555
O2A U1A 1_555 1_555
N1A U1A 1_555 1_555
N2A U1A 1_555 1_555
C1A N1A 1_555 1_555
H1A C1A 1_555 1_555
C2A C1A 1_555 1_555
C3A C2A 1_555 1_555
H2A C3A 1_555 1_555
H3A C3A 1_555 1_555
H4A C3A 1_555 1_555
C4A C2A 1_555 1_555
H5A C4A 1_555 1_555
C5A C4A 1_555 1_555
H6A C5A 1_555 1_555
C6A N1A 1_555 1_555
C7A N2A 1_555 1_555
C8A C7A 1_555 1_555
H7A C8A 1_555 1_555
C9A C8A 1_555 1_555
H8A C9A 1_555 1_555
C10A H9A 1_555 1_555
H10A C10A 1_555 1_555
H11A C10A 1_555 1_555
C11A C9A 1_555 1_555
C12A N2A 1_555 1_555
H12A C12A 1_555 1_555
U1A_2 O3A 1_555 1_555
O3A_2 U1A 1_555 1_555
O4A_2 U1A 1_555 1_555
O4 C17 1_555 1_555
O6 C13 1_555 1_555
C5 C6 1_555 1_555
C6 C7 1_555 1_555
C10 C11 1_555 1_555
C11 C12 1_555 1_555
O4A U1A_2 1_555 1_555
C18A C20A 1_555 1_555
O6A U1A 1_555 1_555
C14A C16A 1_555 1_555
C5A C6A 1_555 1_555
C6A C7A 1_555 1_555
C10A C11A 1_555 1_555
C11A C12A 1_555 1_555

#END
