
#######################################################################
#
#                 Cambridge Crystallographic Data Centre
#                                CCDC 
#
#######################################################################
#
# If this CIF has been generated from an entry in the Cambridge 
# Structural Database, then it will include bibliographic, chemical, 
# crystal, experimental, refinement or atomic coordinate data resulting 
# from the CCDC's data processing and validation procedures.
#
#######################################################################

data_WUKVAB
_symmetry_cell_setting           triclinic
_symmetry_space_group_name_H-M   'P -1'
_symmetry_Int_Tables_number      2
_space_group_name_Hall           '-P 1'
loop_
_symmetry_equiv_pos_site_id
_symmetry_equiv_pos_as_xyz
1 x,y,z
2 -x,-y,-z
_cell_length_a                   7.1132(14)
_cell_length_b                   10.908(2)
_cell_length_c                   14.581(3)
_cell_angle_alpha                77.66(3)
_cell_angle_beta                 87.18(3)
_cell_angle_gamma                87.40(3)
_cell_volume                     1103.17
loop_
_atom_site_label
_atom_site_type_symbol
_atom_site_fract_x
_atom_site_fract_y
_atom_site_fract_z
Ba1 Ba 0.28677(2) 0.476372(14) 0.409703(9)
Cu1 Cu 0.63581(4) 0.08894(3) 0.812171(19)
O1 O 0.6025(2) 0.24695(15) 0.71819(11)
O2 O 0.6507(2) -0.06297(16) 0.91427(11)
O3 O 0.1813(2) -0.19169(16) 0.50290(11)
O4 O 0.1721(2) 0.00911(16) 0.42832(11)
O5 O 0.4610(2) 0.32666(16) 0.58429(11)
O6 O 0.9069(2) 0.03120(16) 0.73971(11)
H1 H 0.9303 -0.0355 0.7641
H2 H 0.8771 0.0338 0.6927
O7 O 0.4405(3) 0.46568(18) 0.23666(12)
H3 H 0.5151 0.5142 0.2047
H4 H 0.4177 0.4178 0.2022
O8 O -0.0235(2) 0.51565(16) 0.28800(11)
H5 H -0.0368 0.4771 0.2392
H6 H -0.0465 0.5854 0.2680
O9 O 0.0278(2) 0.35180(16) 0.55633(11)
H7 H -0.0243 0.2950 0.5400
H8 H 0.0834 0.3227 0.6023
O10 O 0.1979(2) 0.26293(16) 0.35828(11)
H9 H 0.1873 0.1937 0.3854
H10 H 0.1433 0.2581 0.3167
O11 O 0.7311(2) -0.12931(16) 1.06328(11)
O12 O 1.0148(3) 0.21789(16) 1.20562(11)
O13 O 0.9364(3) 0.41397(17) 1.13512(11)
O14 O 0.3160(2) 0.57610(16) 0.57643(11)
H11 H 0.2868 0.6457 0.5611
H12 H 0.2628 0.5463 0.6204
N1 N 0.7388(3) 0.16721(19) 0.90724(13)
N2 N 0.4800(3) 0.02133(19) 0.72680(13)
C1 C 0.7146(3) -0.0461(2) 0.99096(16)
C2 C 0.5020(3) 0.2385(2) 0.64947(17)
C3 C 0.3449(3) 0.0811(2) 0.57617(16)
H13 H 0.3157 0.1438 0.5243
C4 C 0.2979(3) -0.0422(2) 0.58001(15)
C5 C 0.2083(3) -0.0778(2) 0.49732(16)
C6 C 0.8762(3) 0.2503(2) 1.05781(16)
C7 C 0.4322(3) -0.0968(2) 0.73108(16)
C8 C 0.3418(3) -0.1318(2) 0.65963(16)
H14 H 0.3105 -0.2149 0.6648
C9 C 0.9486(3) 0.2985(2) 1.13946(17)
C10 C 0.4353(3) 0.1094(2) 0.64988(16)
C11 C 0.7683(3) 0.0860(2) 0.99022(16)
C12 C 0.7768(3) 0.2881(2) 0.89950(16)
H15 H 0.7577 0.3439 0.8426
H16 H 0.4611 -0.1575 0.7841
C13 C 0.8432(3) 0.3332(2) 0.97272(16)
H17 H 0.8657 0.4181 0.9654
C14 C 0.8382(3) 0.1245(2) 1.06519(16)
H18 H 0.8600 0.0666 1.1208
Ba1A Ba -0.28677(2) 0.523628(14) 0.590297(9)
Ba1A_2 Ba 0.71323(2) 0.523628(14) 0.590297(9)
O5A O 0.5390(2) 0.67334(16) 0.41571(11)
O9A O -0.0278(2) 0.64820(16) 0.44367(11)
O14A O 0.6840(2) 0.42390(16) 0.42357(11)
H19 H 0.760(2) 0.5515(19) 0.0991(16)
H20 H 0.688(2) 0.6813(9) 0.0837(11)
O15 O 0.6653(2) 0.60457(14) 0.09092(9)
O16 O 0.4049(2) 0.32303(14) 0.10185(9)
H21 H 0.3966 0.3645 0.0522
H22 H 0.3456 0.2431 0.1032
O17 O 0.1207(3) 0.22879(17) 0.75613(13)
H23 H 0.0638 0.1676 0.7471
H24 H 0.166(4) 0.208(3) 0.7981(19)
loop_
_geom_bond_atom_site_label_1
_geom_bond_atom_site_label_2
_geom_bond_site_symmetry_1
_geom_bond_site_symmetry_2
Ba1 O5 1_555 1_555
Cu1 O1 1_555 1_555
O1 C2 1_555 1_555
O2 Cu1 1_555 1_555
O3 C5 1_555 1_555
O4 C5 1_555 1_555
O5 C2 1_555 1_555
O6 Cu1 1_555 1_555
H1 O6 1_555 1_555
H2 O6 1_555 1_555
O7 Ba1 1_555 1_555
H3 O7 1_555 1_555
H4 O7 1_555 1_555
O8 Ba1 1_555 1_555
H5 O8 1_555 1_555
H6 O8 1_555 1_555
O9 Ba1 1_555 1_555
H7 O9 1_555 1_555
H8 O9 1_555 1_555
O10 Ba1 1_555 1_555
H9 O10 1_555 1_555
H10 O10 1_555 1_555
O11 C1 1_555 1_555
O12 C9 1_555 1_555
O13 C9 1_555 1_555
O14 Ba1 1_555 1_555
H11 O14 1_555 1_555
H12 O14 1_555 1_555
N1 Cu1 1_555 1_555
N2 Cu1 1_555 1_555
C1 O2 1_555 1_555
C2 C10 1_555 1_555
C3 H13 1_555 1_555
C4 C3 1_555 1_555
C5 C4 1_555 1_555
C6 C9 1_555 1_555
C7 N2 1_555 1_555
C8 C4 1_555 1_555
H14 C8 1_555 1_555
C10 N2 1_555 1_555
C11 N1 1_555 1_555
C12 N1 1_555 1_555
H15 C12 1_555 1_555
H16 C7 1_555 1_555
C13 C6 1_555 1_555
H17 C13 1_555 1_555
C14 C6 1_555 1_555
H18 C14 1_555 1_555
H19 O15 1_555 1_555
H20 O15 1_555 1_555
O16 H21 1_555 1_555
H22 O16 1_555 1_555
O17 H23 1_555 1_555
H24 O17 1_555 1_555
Ba1A O9 1_555 1_555
Ba1A_2 O5 1_555 1_555
O5A Ba1 1_555 1_555
O9A Ba1 1_555 1_555
O14A Ba1 1_555 1_555
O14 Ba1A_2 1_555 1_555
C1 C11 1_555 1_555
C3 C10 1_555 1_555
C7 C8 1_555 1_555
C11 C14 1_555 1_555
C12 C13 1_555 1_555
Ba1A O9A 1_555 1_555
Ba1A_2 O5A 1_555 1_555
Ba1A_2 O14A 1_555 1_555

#END
