
#######################################################################
#
#                 Cambridge Crystallographic Data Centre
#                                CCDC 
#
#######################################################################
#
# If this CIF has been generated from an entry in the Cambridge 
# Structural Database, then it will include bibliographic, chemical, 
# crystal, experimental, refinement or atomic coordinate data resulting 
# from the CCDC's data processing and validation procedures.
#
#######################################################################

data_WULBEM
_symmetry_cell_setting           monoclinic
_symmetry_space_group_name_H-M   'P 21/c'
_symmetry_Int_Tables_number      14
_space_group_name_Hall           '-P 2ybc'
loop_
_symmetry_equiv_pos_site_id
_symmetry_equiv_pos_as_xyz
1 x,y,z
2 -x,1/2+y,1/2-z
3 -x,-y,-z
4 x,1/2-y,1/2+z
_cell_length_a                   5.8217(4)
_cell_length_b                   6.9692(5)
_cell_length_c                   23.8602(16)
_cell_angle_alpha                90
_cell_angle_beta                 97.299(6)
_cell_angle_gamma                90
_cell_volume                     960.226
loop_
_atom_site_label
_atom_site_type_symbol
_atom_site_fract_x
_atom_site_fract_y
_atom_site_fract_z
K1 K 0.77670(6) 0.69041(6) 1.02388(1)
O1 O 0.7292(2) 0.9884(2) 0.94571(5)
O2 O 0.7330(2) 0.30012(19) 1.01672(5)
O3 O 1.0168(3) 0.6385(2) 0.63127(5)
O4 O 0.7106(2) 0.4571(3) 0.60516(6)
O5 O 0.4839(3) 0.4220(3) 0.88176(6)
O6 O 0.8214(3) 0.5415(2) 0.90923(6)
N1 N 0.6699(3) 0.4893(2) 0.87230(6)
C1 C 0.7928(3) 0.5361(2) 0.70211(7)
C2 C 0.5842(3) 0.4621(2) 0.71540(7)
C3 C 0.5418(3) 0.4481(2) 0.77096(8)
C4 C 0.7122(3) 0.5086(2) 0.81307(7)
C5 C 0.9195(3) 0.5860(2) 0.80152(7)
C6 C 0.9576(3) 0.6003(2) 0.74560(7)
C7 C 0.8449(3) 0.5455(3) 0.64141(7)
H1 H 0.46970 0.42070 0.68590
H2 H 0.39930 0.39810 0.78000
H3 H 1.03270 0.62830 0.83110
H4 H 1.09820 0.65460 0.73670
H5 H 0.59450 0.98250 0.92560
H6 H 0.81490 1.01440 0.92060
H7 H 0.74160 0.24130 1.04820
H8 H 0.72240 0.21050 0.99140
K1B K 0.22330(6) 0.30959(6) 0.97612(1)
K1B_2 K 1.22330(6) 0.30959(6) 0.97612(1)
K1C K 0.77670(6) 0.80959(6) 0.52388(1)
O2B O 0.2670(2) 0.69988(19) 0.98328(5)
O2B_2 O 1.2670(2) 0.69988(19) 0.98328(5)
O3C O 1.0168(3) 0.8615(2) 1.13127(5)
O4C O 0.7106(2) 1.0429(3) 1.10516(6)
O5B O 0.5161(3) 0.5780(3) 1.11824(6)
O6B O 1.1786(3) 0.4585(2) 1.09077(6)
loop_
_geom_bond_atom_site_label_1
_geom_bond_atom_site_label_2
_geom_bond_site_symmetry_1
_geom_bond_site_symmetry_2
K1 O1 1_555 1_555
O1 H5 1_555 1_555
O2 K1 1_555 1_555
O3 C7 1_555 1_555
O4 C7 1_555 1_555
O5 N1 1_555 1_555
O6 K1 1_555 1_555
N1 O6 1_555 1_555
C1 C2 1_555 1_555
C2 C3 1_555 1_555
C3 C4 1_555 1_555
C4 N1 1_555 1_555
C5 C4 1_555 1_555
C6 C1 1_555 1_555
C7 C1 1_555 1_555
H1 C2 1_555 1_555
H2 C3 1_555 1_555
H3 C5 1_555 1_555
H4 C6 1_555 1_555
H6 O1 1_555 1_555
H7 O2 1_555 1_555
H8 O2 1_555 1_555
K1B O2 1_555 1_555
K1B_2 O2 1_555 1_555
K1C O3 1_555 1_555
O2B K1 1_555 1_555
O2B_2 K1 1_555 1_555
O3C K1 1_555 1_555
O4C K1 1_555 1_555
O5B K1 1_555 1_555
O6B K1 1_555 1_555
O4 K1C 1_555 1_555
O5 K1B 1_555 1_555
O6 K1B_2 1_555 1_555
C5 C6 1_555 1_555
K1B O2B 1_555 1_555
K1B_2 O2B_2 1_555 1_555
K1B_2 O6B 1_555 1_555

#END
