
#######################################################################
#
#                 Cambridge Crystallographic Data Centre
#                                CCDC 
#
#######################################################################
#
# If this CIF has been generated from an entry in the Cambridge 
# Structural Database, then it will include bibliographic, chemical, 
# crystal, experimental, refinement or atomic coordinate data resulting 
# from the CCDC's data processing and validation procedures.
#
#######################################################################

data_WULBOW
_symmetry_cell_setting           monoclinic
_symmetry_space_group_name_H-M   'C 2/c'
_symmetry_Int_Tables_number      15
_space_group_name_Hall           '-C 2yn'
loop_
_symmetry_equiv_pos_site_id
_symmetry_equiv_pos_as_xyz
1 x,y,z
2 -x,y,1/2-z
3 1/2+x,1/2+y,z
4 1/2-x,1/2+y,1/2-z
5 -x,-y,-z
6 x,-y,1/2+z
7 1/2-x,1/2-y,-z
8 1/2+x,1/2-y,1/2+z
_cell_length_a                   10.3202(13)
_cell_length_b                   14.3929(13)
_cell_length_c                   23.679(3)
_cell_angle_alpha                90
_cell_angle_beta                 99.157(4)
_cell_angle_gamma                90
_cell_volume                     3472.4
loop_
_atom_site_label
_atom_site_type_symbol
_atom_site_fract_x
_atom_site_fract_y
_atom_site_fract_z
C1 C 0.1939(5) 1.0154(3) 0.3952(2)
C2 C 0.3347(5) 1.0336(3) 0.3865(2)
C3 C 0.3665(5) 1.0334(4) 0.3320(2)
H1 H 0.3016 1.0256 0.3003
C4 C 0.4974(5) 1.0450(4) 0.3252(2)
C5 C 0.5952(6) 1.0565(5) 0.3718(3)
H2 H 0.6824 1.0614 0.3667
C6 C 0.5626(6) 1.0605(6) 0.4256(3)
H3 H 0.6272 1.0713 0.4570
C7 C 0.4331(5) 1.0484(5) 0.4331(2)
H4 H 0.4117 1.0502 0.4698
C8 C -0.1158(6) 0.8827(4) 0.3836(2)
H5 H -0.0579 0.9129 0.3634
C9 C -0.2662(7) 0.7895(5) 0.4035(3)
H6 H -0.3306 0.7438 0.4011
C10 C -0.2243(6) 0.8438(5) 0.4487(3)
H7 H -0.2560 0.8419 0.4833
C11 C -0.2070(11) 0.7727(5) 0.3035(3)
H8 H -0.1351 0.7294 0.3034
H9 H -0.2882 0.7377 0.2954
C12 C -0.2041(11) 0.8373(7) 0.2596(3)
H10 H -0.1205 0.8696 0.2659
H11 H -0.2728 0.8830 0.2607
C13 C -0.4162(5) 0.6507(4) 0.1034(2)
H12 H -0.4339 0.6064 0.1298
C14 C -0.3925(8) 0.7167(5) 0.0256(3)
H13 H -0.3904 0.7267 -0.0130
C15 C -0.3641(10) 0.7814(5) 0.0670(3)
H14 H -0.3396 0.8427 0.0624
C16 C -0.3609(8) 0.7787(5) 0.1751(3)
H15 H -0.4022 0.7388 0.2000
H16 H -0.4043 0.8386 0.1734
C17 C -0.2234(9) 0.7907(8) 0.1992(3)
H17 H -0.1807 0.7304 0.2023
H18 H -0.1813 0.8286 0.1736
Cd1 Cd 0.0000 1.0000 0.5000
N1 N 0.5437(5) 1.0453(4) 0.2710(2)
N2 N -0.1285(4) 0.9020(3) 0.43653(17)
N3 N -0.1972(6) 0.8139(4) 0.3622(2)
N4 N -0.4247(4) 0.6350(3) 0.04834(18)
N5 N -0.3789(6) 0.7378(3) 0.1171(2)
O1 O 0.1763(4) 1.0003(3) 0.44551(16)
O2 O 0.1087(4) 1.0132(3) 0.35170(17)
C1A C 0.8061(5) 1.0154(3) 0.1048(2)
C2A C 0.6653(5) 1.0336(3) 0.1135(2)
C3A C 0.6335(5) 1.0334(4) 0.1680(2)
H1A H 0.6984 1.0256 0.1997
C4A C 0.5026(5) 1.0450(4) 0.1748(2)
C5A C 0.4048(6) 1.0565(5) 0.1282(3)
H2A H 0.3176 1.0614 0.1333
C6A C 0.4374(6) 1.0605(6) 0.0744(3)
H3A H 0.3728 1.0713 0.0430
C7A C 0.5669(5) 1.0484(5) 0.0669(2)
H4A H 0.5883 1.0502 0.0302
N1A N 0.4563(5) 1.0453(4) 0.2290(2)
O1A O 0.8237(4) 1.0003(3) 0.05449(16)
O2A O 0.8913(4) 1.0132(3) 0.14830(17)
C8D C 0.1158(6) 1.1173(4) 0.6164(2)
H5D H 0.0579 1.0871 0.6366
C9D C 0.2662(7) 1.2105(5) 0.5965(3)
H6D H 0.3306 1.2562 0.5989
C10D C 0.2243(6) 1.1562(5) 0.5513(3)
H7D H 0.2560 1.1581 0.5167
C11D C 0.2070(11) 1.2273(5) 0.6965(3)
H8D H 0.1351 1.2706 0.6966
H9D H 0.2882 1.2623 0.7046
C12D C 0.2041(11) 1.1627(7) 0.7404(3)
H10D H 0.1205 1.1304 0.7341
H11D H 0.2728 1.1170 0.7393
C13D C 0.4162(5) 1.3493(4) 0.8966(2)
H12D H 0.4339 1.3936 0.8702
C14D C 0.3925(8) 1.2833(5) 0.9744(3)
H13D H 0.3904 1.2733 1.0130
C15D C 0.3641(10) 1.2186(5) 0.9330(3)
H14D H 0.3396 1.1573 0.9376
C16D C 0.3609(8) 1.2213(5) 0.8249(3)
H15D H 0.4022 1.2612 0.8000
H16D H 0.4043 1.1614 0.8266
C17D C 0.2234(9) 1.2093(8) 0.8008(3)
H17D H 0.1807 1.2696 0.7977
H18D H 0.1813 1.1714 0.8264
N2D N 0.1285(4) 1.0980(3) 0.56347(17)
N3D N 0.1972(6) 1.1861(4) 0.6378(2)
N4D N 0.4247(4) 1.3650(3) 0.95166(18)
N5D N 0.3789(6) 1.2622(3) 0.8829(2)
Cd1A Cd 1.0000 1.0000 0.0000
Cd1C Cd -0.5000 0.5000 0.0000
Cd1C_2 Cd 0.5000 1.5000 1.0000
N4C N -0.0753(4) 1.1350(3) 0.45166(18)
N4G N 0.0753(4) 0.8650(3) 0.54834(18)
O1D O -0.1763(4) 0.9997(3) 0.55449(16)
O3 O 0.0000 0.8945(6) 0.7500
H19 H 0.0363 0.9262 0.7785
H19A H -0.0363 0.9262 0.7215
H20? H -0.0282 0.9307 0.7224
loop_
_geom_bond_atom_site_label_1
_geom_bond_atom_site_label_2
_geom_bond_site_symmetry_1
_geom_bond_site_symmetry_2
C1 C2 1_555 1_555
C2 C3 1_555 1_555
C3 H1 1_555 1_555
C4 C3 1_555 1_555
C5 C4 1_555 1_555
H2 C5 1_555 1_555
C6 C5 1_555 1_555
H3 C6 1_555 1_555
C7 C2 1_555 1_555
H4 C7 1_555 1_555
C8 H5 1_555 1_555
C9 H6 1_555 1_555
C10 C9 1_555 1_555
H7 C10 1_555 1_555
C11 H8 1_555 1_555
H9 C11 1_555 1_555
C12 C11 1_555 1_555
H10 C12 1_555 1_555
H11 C12 1_555 1_555
C13 H12 1_555 1_555
C14 H13 1_555 1_555
C15 C14 1_555 1_555
H14 C15 1_555 1_555
C16 H15 1_555 1_555
H16 C16 1_555 1_555
C17 C12 1_555 1_555
H17 C17 1_555 1_555
H18 C17 1_555 1_555
Cd1 N2 1_555 1_555
N1 C4 1_555 1_555
N2 C8 1_555 1_555
N3 C8 1_555 1_555
N4 C13 1_555 1_555
N5 C13 1_555 1_555
O1 C1 1_555 1_555
O2 C1 1_555 1_555
O3 H19 1_555 1_555
C1A C2A 1_555 1_555
C2A C3A 1_555 1_555
C3A H1A 1_555 1_555
C4A C3A 1_555 1_555
C5A C4A 1_555 1_555
H2A C5A 1_555 1_555
C6A C5A 1_555 1_555
H3A C6A 1_555 1_555
C7A C2A 1_555 1_555
H4A C7A 1_555 1_555
N1A N1 1_555 1_555
O1A C1A 1_555 1_555
O2A C1A 1_555 1_555
C8D H5D 1_555 1_555
C9D H6D 1_555 1_555
C10D C9D 1_555 1_555
H7D C10D 1_555 1_555
C11D H8D 1_555 1_555
H9D C11D 1_555 1_555
C12D C11D 1_555 1_555
H10D C12D 1_555 1_555
H11D C12D 1_555 1_555
C13D H12D 1_555 1_555
C14D H13D 1_555 1_555
C15D C14D 1_555 1_555
H14D C15D 1_555 1_555
C16D H15D 1_555 1_555
H16D C16D 1_555 1_555
C17D C12D 1_555 1_555
H17D C17D 1_555 1_555
H18D C17D 1_555 1_555
N2D Cd1 1_555 1_555
N3D C8D 1_555 1_555
N4D C13D 1_555 1_555
N5D C13D 1_555 1_555
Cd1A O1A 1_555 1_555
Cd1C N4 1_555 1_555
Cd1C_2 N4D 1_555 1_555
N4C Cd1 1_555 1_555
N4G Cd1 1_555 1_555
O1D Cd1 1_555 1_555
H19A O3 1_555 1_555
C6 C7 1_555 1_555
C9 N3 1_555 1_555
C10 N2 1_555 1_555
C11 N3 1_555 1_555
C14 N4 1_555 1_555
C15 N5 1_555 1_555
C16 C17 1_555 1_555
C16 N5 1_555 1_555
Cd1 O1 1_555 1_555
C4A N1A 1_555 1_555
C6A C7A 1_555 1_555
C8D N2D 1_555 1_555
C9D N3D 1_555 1_555
C10D N2D 1_555 1_555
C11D N3D 1_555 1_555
C14D N4D 1_555 1_555
C15D N5D 1_555 1_555
C16D C17D 1_555 1_555
C16D N5D 1_555 1_555

#END
