
#######################################################################
#
#                 Cambridge Crystallographic Data Centre
#                                CCDC 
#
#######################################################################
#
# If this CIF has been generated from an entry in the Cambridge 
# Structural Database, then it will include bibliographic, chemical, 
# crystal, experimental, refinement or atomic coordinate data resulting 
# from the CCDC's data processing and validation procedures.
#
#######################################################################

data_WULKEV
_symmetry_cell_setting           monoclinic
_symmetry_space_group_name_H-M   'P 21/n'
_symmetry_Int_Tables_number      14
_space_group_name_Hall           '-P 2yn'
loop_
_symmetry_equiv_pos_site_id
_symmetry_equiv_pos_as_xyz
1 x,y,z
2 1/2-x,1/2+y,1/2-z
3 -x,-y,-z
4 1/2+x,1/2-y,1/2+z
_cell_length_a                   7.7591(10)
_cell_length_b                   13.2476(18)
_cell_length_c                   17.294(2)
_cell_angle_alpha                90
_cell_angle_beta                 95.363(2)
_cell_angle_gamma                90
_cell_volume                     1769.86
loop_
_atom_site_label
_atom_site_type_symbol
_atom_site_fract_x
_atom_site_fract_y
_atom_site_fract_z
Co1 Co 0.86340(5) 0.39162(3) 0.19026(2)
N1 N 1.2316(4) 0.4992(2) 0.04797(16)
H1 H 1.2918 0.5448 0.0275
N2 N 0.3984(3) 0.51636(19) 0.24338(15)
H2 H 0.2945 0.5109 0.2564
N3 N 1.0415(3) 0.42940(19) 0.11716(14)
N4 N 0.6549(3) 0.47541(18) 0.21169(15)
O1 O 0.7886(3) 0.26202(15) 0.13971(12)
O2 O 0.6532(3) 0.34530(15) 0.03963(12)
O3 O 0.5437(3) -0.00315(15) -0.21420(11)
O4 O 0.4686(3) 0.15662(15) -0.20577(12)
Br1 Br 0.85528(5) -0.12787(2) 0.06041(2)
C1 C 1.1084(4) 0.5160(2) 0.09581(17)
C2 C 1.2458(5) 0.3979(3) 0.0371(2)
H3 H 1.3208 0.3650 0.0065
C3 C 1.1286(4) 0.3549(3) 0.07969(19)
H4 H 1.1091 0.2859 0.0835
C4 C 1.0593(5) 0.6186(2) 0.1215(2)
H5 H 0.9399 0.6312 0.1044
H6 H 1.1305 0.6682 0.0994
H7 H 1.0758 0.6225 0.1771
C5 C 0.5043(4) 0.4393(2) 0.22983(17)
C6 C 0.4838(5) 0.6047(2) 0.2330(2)
H8 H 0.4413 0.6698 0.2381
C7 C 0.6406(5) 0.5788(2) 0.2140(2)
H9 H 0.7274 0.6240 0.2039
C8 C 0.4568(5) 0.3312(2) 0.2361(2)
H10 H 0.4292 0.3038 0.1851
H11 H 0.3580 0.3253 0.2654
H12 H 0.5524 0.2947 0.2620
C9 C 0.7124(4) 0.2667(2) 0.07134(18)
C10 C 0.6999(4) 0.1693(2) 0.02548(17)
C11 C 0.6247(4) 0.1685(2) -0.05036(16)
H13 H 0.5782 0.2277 -0.0725
C12 C 0.6182(4) 0.0798(2) -0.09375(17)
C13 C 0.6879(4) -0.0084(2) -0.06010(17)
H14 H 0.6852 -0.0681 -0.0885
C14 C 0.7609(4) -0.0067(2) 0.01547(17)
C15 C 0.7675(4) 0.0803(2) 0.05942(17)
H15 H 0.8159 0.0797 0.1107
C16 C 0.5381(4) 0.0770(2) -0.17628(17)
Co1C Co 0.36340(5) 0.10838(3) -0.30974(2)
O4C O 0.9686(3) 0.34338(15) 0.29423(12)
loop_
_geom_bond_atom_site_label_1
_geom_bond_atom_site_label_2
_geom_bond_site_symmetry_1
_geom_bond_site_symmetry_2
Co1 N3 1_555 1_555
N1 H1 1_555 1_555
N2 H2 1_555 1_555
N3 C1 1_555 1_555
N4 Co1 1_555 1_555
O1 Co1 1_555 1_555
O2 C9 1_555 1_555
O3 C16 1_555 1_555
O4 C16 1_555 1_555
Br1 C14 1_555 1_555
C1 N1 1_555 1_555
C2 N1 1_555 1_555
H3 C2 1_555 1_555
C3 N3 1_555 1_555
H4 C3 1_555 1_555
C4 C1 1_555 1_555
H5 C4 1_555 1_555
H6 C4 1_555 1_555
H7 C4 1_555 1_555
C5 N2 1_555 1_555
C6 N2 1_555 1_555
H8 C6 1_555 1_555
C7 N4 1_555 1_555
H9 C7 1_555 1_555
C8 C5 1_555 1_555
H10 C8 1_555 1_555
H11 C8 1_555 1_555
H12 C8 1_555 1_555
C9 O1 1_555 1_555
C10 C9 1_555 1_555
C11 C10 1_555 1_555
H13 C11 1_555 1_555
C12 C11 1_555 1_555
C13 C12 1_555 1_555
H14 C13 1_555 1_555
C14 C13 1_555 1_555
C15 C10 1_555 1_555
H15 C15 1_555 1_555
C16 C12 1_555 1_555
Co1C O4 1_555 1_555
O4C Co1 1_555 1_555
N4 C5 1_555 1_555
C2 C3 1_555 1_555
C6 C7 1_555 1_555
C14 C15 1_555 1_555

#END
