
#######################################################################
#
#                 Cambridge Crystallographic Data Centre
#                                CCDC 
#
#######################################################################
#
# If this CIF has been generated from an entry in the Cambridge 
# Structural Database, then it will include bibliographic, chemical, 
# crystal, experimental, refinement or atomic coordinate data resulting 
# from the CCDC's data processing and validation procedures.
#
#######################################################################

data_WULMEX
_symmetry_cell_setting           triclinic
_symmetry_space_group_name_H-M   'P -1'
_symmetry_Int_Tables_number      2
_space_group_name_Hall           '-P 1'
loop_
_symmetry_equiv_pos_site_id
_symmetry_equiv_pos_as_xyz
1 x,y,z
2 -x,-y,-z
_cell_length_a                   11.3895(2)
_cell_length_b                   13.0668(2)
_cell_length_c                   14.0320(4)
_cell_angle_alpha                108.4540(10)
_cell_angle_beta                 107.8960(10)
_cell_angle_gamma                101.9880(10)
_cell_volume                     1774.23
loop_
_atom_site_label
_atom_site_type_symbol
_atom_site_fract_x
_atom_site_fract_y
_atom_site_fract_z
Cd1 Cd 0.90883(2) 0.812626(19) 0.317895(17)
S1 S 0.24107(7) 0.55790(7) 0.03252(6)
O1 O 0.2059(2) 0.5719(2) -0.06869(18)
O2 O 0.2139(2) 0.4451(2) 0.0302(2)
N1 N 0.6805(2) 0.7197(2) 0.2206(2)
N2 N 0.0270(2) 0.7292(2) 0.2216(2)
C1 C 0.6249(3) 0.6848(3) 0.1124(3)
H1 H 0.6789 0.6914 0.0751
C2 C 0.4911(3) 0.6393(3) 0.0526(3)
H2 H 0.4553 0.6156 -0.0231
C3 C 0.4125(3) 0.6302(3) 0.1092(2)
C4 C 0.4676(3) 0.6671(3) 0.2208(3)
H3 H 0.4155 0.6627 0.2601
C5 C 0.6029(3) 0.7112(3) 0.2736(3)
H4 H 0.6411 0.7358 0.3494
C6 C 0.1631(3) 0.6303(3) 0.1107(2)
C7 C 0.1230(3) 0.7162(3) 0.0909(3)
H5 H 0.1421 0.7427 0.0413
C8 C 0.0531(3) 0.7620(3) 0.1475(3)
H6 H 0.0227 0.8185 0.1330
C9 C 0.0702(3) 0.6479(3) 0.2416(3)
H7 H 0.0538 0.6257 0.2943
C10 C 0.1381(3) 0.5953(3) 0.1875(3)
H8 H 0.1662 0.5379 0.2024
C11 C 0.9175(3) 0.7503(3) 0.4919(3)
C12 C 0.9474(3) 0.7215(3) 0.5894(3)
C13 C 1.0021(4) 0.6366(3) 0.5914(3)
H9 H 1.0196 0.5983 0.5320
C14 C 1.0310(5) 0.6081(4) 0.6808(4)
H10 H 1.0671 0.5505 0.6808
C15 C 1.0070(4) 0.6638(4) 0.7682(4)
H11 H 1.0260 0.6445 0.8283
C16 C 0.9540(3) 0.7496(4) 0.7670(3)
C17 C 0.9232(3) 0.7789(3) 0.6789(3)
H12 H 0.8867 0.8364 0.6794
C18 C 0.8282(3) 0.9751(3) 0.2402(3)
C19 C 0.7637(3) 1.0247(3) 0.1644(3)
C20 C 0.7109(4) 1.1079(3) 0.1978(4)
H13 H 0.7161 1.1352 0.2693
C21 C 0.6491(5) 1.1521(4) 0.1251(5)
H14 H 0.6137 1.2087 0.1482
C22 C 0.6414(5) 1.1119(4) 0.0213(5)
H15 H 0.6001 1.1406 -0.0273
C23 C 0.6931(5) 1.0304(4) -0.0124(3)
C24 C 0.7549(4) 0.9854(3) 0.0584(3)
H16 H 0.7899 0.9291 0.0340
O3 O 0.8658(2) 0.82595(19) 0.48890(19)
O4 O 0.9462(3) 0.6985(2) 0.4146(2)
O5 O 0.8224(3) 1.0006(3) 0.3313(2)
O6 O 0.8832(3) 0.9056(2) 0.2055(2)
Cl1 Cl 0.92878(13) 0.82489(15) 0.88183(10)
Cl2 Cl 0.6829(2) 0.98233(17) -0.14384(12)
O7 O 1.1033(2) 0.95004(19) 0.44928(17)
H17 H 1.1205 0.9516 0.5161
H18 H 1.1029 1.0192 0.4530
Cd1_2 Cd -0.09117(2) 0.812626(19) 0.317895(17)
N2_2 N 1.0270(2) 0.7292(2) 0.2216(2)
N3 N 0.4694(4) 0.5763(3) 0.7881(3)
N4 N 0.5606(4) 1.0588(3) 0.6462(3)
C25 C 0.5752(5) 0.6293(4) 0.7799(4)
H19 H 0.6561 0.6472 0.8355
C26 C 0.5737(4) 0.6599(4) 0.6942(3)
H20 H 0.6511 0.6968 0.6917
C27 C 0.4549(4) 0.6342(3) 0.6131(3)
C28 C 0.3438(4) 0.5772(4) 0.6174(4)
H21 H 0.2620 0.5574 0.5623
C29 C 0.3565(5) 0.5496(4) 0.7068(4)
H22 H 0.2807 0.5097 0.7095
C30 C 0.4913(4) 0.8224(3) 0.5571(3)
C31 C 0.4020(4) 0.8732(4) 0.5775(3)
H23 H 0.3171 0.8294 0.5612
C32 C 0.4425(4) 0.9911(4) 0.6229(4)
H24 H 0.3829 1.0255 0.6383
C33 C 0.6442(4) 1.0073(4) 0.6237(3)
H25 H 0.7272 1.0532 0.6382
C34 C 0.6153(4) 0.8906(4) 0.5804(3)
H26 H 0.6774 0.8586 0.5673
S2 S 0.44809(12) 0.67135(10) 0.50071(8)
O8 O 0.3151(4) 0.6232(3) 0.4236(3)
O9 O 0.5495(4) 0.6447(3) 0.4682(3)
loop_
_geom_bond_atom_site_label_1
_geom_bond_atom_site_label_2
_geom_bond_site_symmetry_1
_geom_bond_site_symmetry_2
Cd1 N1 1_555 1_555
S1 O1 1_555 1_555
O2 S1 1_555 1_555
N1 C1 1_555 1_555
N2 C8 1_555 1_555
C1 H1 1_555 1_555
C2 C1 1_555 1_555
H2 C2 1_555 1_555
C3 S1 1_555 1_555
C4 C3 1_555 1_555
H3 C4 1_555 1_555
C5 N1 1_555 1_555
H4 C5 1_555 1_555
C6 S1 1_555 1_555
C7 C6 1_555 1_555
H5 C7 1_555 1_555
C8 C7 1_555 1_555
H6 C8 1_555 1_555
C9 N2 1_555 1_555
H7 C9 1_555 1_555
C10 C6 1_555 1_555
H8 C10 1_555 1_555
C11 C12 1_555 1_555
C12 C13 1_555 1_555
C13 H9 1_555 1_555
C14 C13 1_555 1_555
H10 C14 1_555 1_555
C15 C14 1_555 1_555
H11 C15 1_555 1_555
C16 C15 1_555 1_555
C17 C12 1_555 1_555
H12 C17 1_555 1_555
C18 C19 1_555 1_555
C19 C20 1_555 1_555
C20 H13 1_555 1_555
C21 C20 1_555 1_555
H14 C21 1_555 1_555
C22 C21 1_555 1_555
H15 C22 1_555 1_555
C23 C22 1_555 1_555
C24 C19 1_555 1_555
H16 C24 1_555 1_555
O3 Cd1 1_555 1_555
O4 Cd1 1_555 1_555
O5 Cd1 1_555 1_555
O6 Cd1 1_555 1_555
Cl1 C16 1_555 1_555
Cl2 C23 1_555 1_555
O7 Cd1 1_555 1_555
H17 O7 1_555 1_555
H18 O7 1_555 1_555
N3 C25 1_555 1_555
N4 C32 1_555 1_555
C25 H19 1_555 1_555
C26 C25 1_555 1_555
H20 C26 1_555 1_555
C27 C26 1_555 1_555
C28 C27 1_555 1_555
H21 C28 1_555 1_555
C29 N3 1_555 1_555
H22 C29 1_555 1_555
C30 C31 1_555 1_555
C31 H23 1_555 1_555
C32 C31 1_555 1_555
H24 C32 1_555 1_555
C33 N4 1_555 1_555
H25 C33 1_555 1_555
C34 C30 1_555 1_555
H26 C34 1_555 1_555
S2 C27 1_555 1_555
O8 S2 1_555 1_555
O9 S2 1_555 1_555
Cd1_2 N2 1_555 1_555
N2_2 Cd1 1_555 1_555
C2 C3 1_555 1_555
C4 C5 1_555 1_555
C9 C10 1_555 1_555
C11 O3 1_555 1_555
C11 O4 1_555 1_555
C16 C17 1_555 1_555
C18 O5 1_555 1_555
C18 O6 1_555 1_555
C23 C24 1_555 1_555
C28 C29 1_555 1_555
C30 S2 1_555 1_555
C33 C34 1_555 1_555

#END
