
#######################################################################
#
#                 Cambridge Crystallographic Data Centre
#                                CCDC 
#
#######################################################################
#
# If this CIF has been generated from an entry in the Cambridge 
# Structural Database, then it will include bibliographic, chemical, 
# crystal, experimental, refinement or atomic coordinate data resulting 
# from the CCDC's data processing and validation procedures.
#
#######################################################################

data_WULPIE
_symmetry_cell_setting           monoclinic
_symmetry_space_group_name_H-M   'P 21/n'
_symmetry_Int_Tables_number      14
_space_group_name_Hall           '-P 2yn'
loop_
_symmetry_equiv_pos_site_id
_symmetry_equiv_pos_as_xyz
1 x,y,z
2 1/2-x,1/2+y,1/2-z
3 -x,-y,-z
4 1/2+x,1/2-y,1/2+z
_cell_length_a                   9.966(4)
_cell_length_b                   22.8187(10)
_cell_length_c                   17.504(7)
_cell_angle_alpha                90
_cell_angle_beta                 98.616(7)
_cell_angle_gamma                90
_cell_volume                     3935.68
loop_
_atom_site_label
_atom_site_type_symbol
_atom_site_fract_x
_atom_site_fract_y
_atom_site_fract_z
C1 C 0.1667(6) 0.4552(3) 0.7794(3)
C2 C 0.2055(6) 0.5033(3) 0.8258(3)
C3 C 0.2841(7) 0.4927(3) 0.8981(3)
H1 H 0.3125 0.5242 0.9321
C4 C 0.3194(7) 0.4359(3) 0.9189(3)
C5 C 0.2821(6) 0.3893(3) 0.8713(3)
H2 H 0.3113 0.3509 0.8869
C6 C 0.2012(6) 0.3979(3) 0.7999(3)
C7 C 0.1574(6) 0.3451(3) 0.7496(3)
H3 H 0.1018 0.3594 0.7009
C8 C 0.0698(8) 0.3032(3) 0.7891(4)
H4 H 0.0426 0.2699 0.7549
H5 H -0.0112 0.3238 0.8003
H6 H 0.1220 0.2889 0.8374
C9 C 0.2797(8) 0.3125(3) 0.7281(4)
H7 H 0.3367 0.2987 0.7751
H8 H 0.3324 0.3389 0.6999
H9 H 0.2486 0.2788 0.6953
C10 C 0.1698(8) 0.5652(3) 0.8004(4)
C11 C 0.2942(9) 0.5967(3) 0.7801(5)
H10 H 0.2694 0.6367 0.7632
H11 H 0.3289 0.5756 0.7383
H12 H 0.3645 0.5980 0.8256
C12 C 0.5469(6) 0.6870(2) 0.5839(3)
C13 C 0.6581(7) 0.6812(3) 0.6415(4)
C14 C 0.7576(7) 0.7254(3) 0.6454(4)
H13 H 0.8355 0.7237 0.6840
C15 C 0.7420(8) 0.7704(3) 0.5939(5)
C16 C 0.6306(8) 0.7754(3) 0.5374(4)
H14 H 0.6231 0.8077 0.5028
C17 C 0.5291(6) 0.7332(3) 0.5313(4)
C18 C 0.4064(7) 0.7379(3) 0.4694(4)
H15 H 0.3403 0.7070 0.4796
C19 C 0.3363(9) 0.7976(4) 0.4722(4)
H16 H 0.2563 0.7991 0.4322
H17 H 0.3995 0.8289 0.4632
H18 H 0.3083 0.8030 0.5231
C20 C 0.4428(9) 0.7271(3) 0.3892(4)
H19 H 0.3608 0.7298 0.3507
H20 H 0.4826 0.6879 0.3873
H21 H 0.5086 0.7566 0.3779
C21 C 0.6735(7) 0.6302(3) 0.6967(4)
H22 H 0.5871 0.6074 0.6872
C22 C 0.6939(12) 0.6486(4) 0.7806(5)
H23 H 0.7034 0.6137 0.8136
H24 H 0.6154 0.6715 0.7910
H25 H 0.7761 0.6726 0.7917
C23 C 0.7861(9) 0.5899(4) 0.6784(5)
H26 H 0.7948 0.5566 0.7140
H27 H 0.8719 0.6116 0.6841
H28 H 0.7639 0.5757 0.6252
C24 C 0.8721(8) 0.4398(4) 0.8961(4)
C25 C 0.1109(8) 0.6913(4) 0.6023(5)
H29 H 0.0631 0.7290 0.5995
H30 H 0.2083 0.6982 0.6033
H31 H 0.0963 0.6706 0.6494
C26 C 0.6349(7) 0.4616(3) 0.8354(4)
H32 H 0.6125 0.4741 0.8837
C27 C 0.6915(7) 0.4266(3) 0.6958(4)
H33 H 0.7113 0.4155 0.6464
C28 C 0.5401(7) 0.4615(3) 0.7711(3)
H34 H 0.4516 0.4751 0.7756
C29 C 0.7936(7) 0.4247(3) 0.7568(4)
H35 H 0.8814 0.4113 0.7503
C30 C 0.7666(7) 0.4429(3) 0.8289(4)
Cl1 Cl 0.41633(19) 0.42302(8) 1.00959(9)
Cl2 Cl 0.8716(2) 0.82224(9) 0.59817(19)
N1 N 0.5638(5) 0.4433(2) 0.7015(3)
N2 N 0.9549(8) 0.4360(4) 0.9473(4)
O1 O 0.0748(4) 0.46485(18) 0.7110(2)
O2 O 0.2504(4) 0.44035(18) 0.6273(2)
O3 O 0.1142(4) 0.53390(18) 0.6065(2)
O4 O 0.0036(4) 0.43640(19) 0.5774(2)
O5 O 0.4433(4) 0.64594(16) 0.5803(2)
O6 O 0.4679(5) 0.53858(18) 0.5889(2)
O7 O 0.2973(4) 0.5840(2) 0.4864(2)
O8 O 0.5422(4) 0.59327(17) 0.4772(2)
O9 O 0.0615(5) 0.6576(2) 0.5381(3)
P1 P 0.11402(15) 0.46995(6) 0.62547(8)
P2 P 0.43774(16) 0.58683(7) 0.53076(9)
Zn1 Zn 0.42703(7) 0.45896(3) 0.60461(4)
Zn2 Zn 0.12010(7) 0.57714(3) 0.51417(4)
C31 C 0.1061(12) 0.5982(4) 0.8615(5)
H36 H 0.0847 0.6383 0.8437
H37 H 0.1699 0.5992 0.9098
H38 H 0.0225 0.5782 0.8701
H39 H -0.0230(16) 0.661(2) 0.529(3)
H40 H 0.104(6) 0.564(3) 0.755(3)
O4B O -0.0036(4) 0.56360(19) 0.4226(2)
O8B O 0.4578(4) 0.40673(17) 0.5228(2)
Zn1B Zn 0.57297(7) 0.54104(3) 0.39539(4)
Zn2B Zn -0.12010(7) 0.42286(3) 0.48583(4)
O10 O -0.1933(4) 0.6634(2) 0.4714(3)
H41 H -0.1990 0.6333 0.4410
H42 H -0.2693 0.6545 0.4970
loop_
_geom_bond_atom_site_label_1
_geom_bond_atom_site_label_2
_geom_bond_site_symmetry_1
_geom_bond_site_symmetry_2
C1 C2 1_555 1_555
C2 C3 1_555 1_555
C3 H1 1_555 1_555
C4 C3 1_555 1_555
C5 C4 1_555 1_555
H2 C5 1_555 1_555
C6 C1 1_555 1_555
C7 C6 1_555 1_555
H3 C7 1_555 1_555
C8 C7 1_555 1_555
H4 C8 1_555 1_555
H5 C8 1_555 1_555
H6 C8 1_555 1_555
C9 C7 1_555 1_555
H7 C9 1_555 1_555
H8 C9 1_555 1_555
H9 C9 1_555 1_555
C10 C2 1_555 1_555
C11 C10 1_555 1_555
H10 C11 1_555 1_555
H11 C11 1_555 1_555
H12 C11 1_555 1_555
C12 C13 1_555 1_555
C13 C14 1_555 1_555
C14 H13 1_555 1_555
C15 C14 1_555 1_555
C16 C15 1_555 1_555
H14 C16 1_555 1_555
C17 C12 1_555 1_555
C18 C17 1_555 1_555
H15 C18 1_555 1_555
C19 C18 1_555 1_555
H16 C19 1_555 1_555
H17 C19 1_555 1_555
H18 C19 1_555 1_555
C20 C18 1_555 1_555
H19 C20 1_555 1_555
H20 C20 1_555 1_555
H21 C20 1_555 1_555
C21 C13 1_555 1_555
H22 C21 1_555 1_555
C22 C21 1_555 1_555
H23 C22 1_555 1_555
H24 C22 1_555 1_555
H25 C22 1_555 1_555
C23 C21 1_555 1_555
H26 C23 1_555 1_555
H27 C23 1_555 1_555
H28 C23 1_555 1_555
C24 C30 1_555 1_555
C25 H29 1_555 1_555
H30 C25 1_555 1_555
H31 C25 1_555 1_555
C26 H32 1_555 1_555
C27 H33 1_555 1_555
C28 C26 1_555 1_555
H34 C28 1_555 1_555
C29 C27 1_555 1_555
H35 C29 1_555 1_555
C30 C26 1_555 1_555
Cl1 C4 1_555 1_555
Cl2 C15 1_555 1_555
N1 C27 1_555 1_555
N2 C24 1_555 1_555
O1 C1 1_555 1_555
O2 P1 1_555 1_555
O3 P1 1_555 1_555
O4 P1 1_555 1_555
O5 C12 1_555 1_555
O6 P2 1_555 1_555
O7 P2 1_555 1_555
O8 P2 1_555 1_555
O9 C25 1_555 1_555
P1 O1 1_555 1_555
P2 O5 1_555 1_555
Zn1 N1 1_555 1_555
Zn2 O3 1_555 1_555
C31 C10 1_555 1_555
H36 C31 1_555 1_555
H37 C31 1_555 1_555
H38 C31 1_555 1_555
H39 O9 1_555 1_555
H40 C10 1_555 1_555
O10 H41 1_555 1_555
H42 O10 1_555 1_555
O4B Zn2 1_555 1_555
O8B Zn1 1_555 1_555
Zn1B O8 1_555 1_555
Zn2B O4 1_555 1_555
C5 C6 1_555 1_555
C16 C17 1_555 1_555
C28 N1 1_555 1_555
C29 C30 1_555 1_555
O2 Zn1 1_555 1_555
O6 Zn1 1_555 1_555
O7 Zn2 1_555 1_555
O9 Zn2 1_555 1_555

#END
