
#######################################################################
#
#                 Cambridge Crystallographic Data Centre
#                                CCDC 
#
#######################################################################
#
# If this CIF has been generated from an entry in the Cambridge 
# Structural Database, then it will include bibliographic, chemical, 
# crystal, experimental, refinement or atomic coordinate data resulting 
# from the CCDC's data processing and validation procedures.
#
#######################################################################

data_WULPOK
_symmetry_cell_setting           monoclinic
_symmetry_space_group_name_H-M   'P 21/n'
_symmetry_Int_Tables_number      14
_space_group_name_Hall           '-P 2yn'
loop_
_symmetry_equiv_pos_site_id
_symmetry_equiv_pos_as_xyz
1 x,y,z
2 1/2-x,1/2+y,1/2-z
3 -x,-y,-z
4 1/2+x,1/2-y,1/2+z
_cell_length_a                   10.009(4)
_cell_length_b                   23.2864(10)
_cell_length_c                   17.488(8)
_cell_angle_alpha                90
_cell_angle_beta                 97.900(7)
_cell_angle_gamma                90
_cell_volume                     4037.31
loop_
_atom_site_label
_atom_site_type_symbol
_atom_site_fract_x
_atom_site_fract_y
_atom_site_fract_z
Zn1 Zn 0.42238(8) 0.03963(4) 0.60590(5)
Br1 Br 0.39615(11) 0.07480(4) 1.02062(5)
Zn2 Zn 0.12304(10) -0.07441(4) 0.51109(5)
Br2 Br 0.87676(15) -0.32194(5) 0.57143(12)
P1 P 0.10968(19) 0.02848(8) 0.62645(11)
P2 P 0.4405(2) -0.08443(9) 0.53003(12)
O1 O 0.4426(5) -0.1439(2) 0.5780(3)
O2 O 0.0667(5) 0.0311(2) 0.7114(3)
O3 O 0.3022(6) -0.0804(3) 0.4842(3)
O4 O 0.2452(5) 0.0577(2) 0.6306(3)
O5 O 0.4679(6) -0.0390(2) 0.5905(3)
O6 O 0.1097(5) -0.0338(2) 0.6050(3)
O7 O 0.0009(6) 0.0630(2) 0.5790(3)
O8 O 0.5481(6) -0.0900(2) 0.4776(3)
O9 O 0.0679(7) -0.1548(3) 0.5340(4)
C1 C 0.1536(8) 0.0413(3) 0.7807(4)
N1 N 0.5535(6) 0.0552(3) 0.7019(4)
C2 C 0.5436(8) -0.1850(3) 0.5765(5)
C3 C 0.2560(9) 0.1065(4) 0.8753(5)
H1 H 0.2780 0.1436 0.8925
C4 C 0.1953(8) -0.0062(4) 0.8267(4)
C5 C 0.5243(9) 0.0448(4) 0.7727(5)
H2 H 0.4352 0.0362 0.7779
C6 C 0.4017(10) -0.2298(4) 0.4608(5)
H3 H 0.3430 -0.1979 0.4711
C7 C 0.1817(8) 0.0983(4) 0.8023(5)
C8 C 0.5242(9) -0.2282(3) 0.5213(5)
C9 C 0.6554(9) -0.1822(3) 0.6335(5)
C10 C 0.7502(11) 0.0568(5) 0.8322(6)
C11 C 0.1659(10) -0.0671(4) 0.7999(5)
H4 H 0.1025 -0.0654 0.7520
C12 C 0.2971(9) 0.0603(4) 0.9222(5)
C13 C 0.2686(8) 0.0047(4) 0.8988(4)
H5 H 0.2985 -0.0257 0.9312
C14 C 0.6248(11) -0.2696(4) 0.5227(6)
H6 H 0.6160 -0.2990 0.4864
C15 C 0.4375(12) -0.2217(5) 0.3786(6)
H7 H 0.3566 -0.2230 0.3421
H8 H 0.4974 -0.2518 0.3674
H9 H 0.4807 -0.1852 0.3751
C16 C 0.6725(10) -0.1342(4) 0.6929(5)
H10 H 0.5915 -0.1102 0.6828
C17 C 0.1353(10) 0.1499(4) 0.7529(5)
H11 H 0.0845 0.1358 0.7046
C18 C 0.2554(12) 0.1843(4) 0.7328(6)
H12 H 0.2235 0.2167 0.7015
H13 H 0.3101 0.1604 0.7050
H14 H 0.3082 0.1976 0.7795
C19 C 0.3202(13) -0.2861(6) 0.4646(6)
H15 H 0.2430 -0.2856 0.4254
H16 H 0.2908 -0.2893 0.5144
H17 H 0.3762 -0.3184 0.4564
C20 C 0.0416(13) 0.1888(5) 0.7927(6)
H18 H 0.0140 0.2210 0.7601
H19 H 0.0887 0.2022 0.8409
H20 H -0.0366 0.1674 0.8021
C21 C 0.7850(10) 0.0667(6) 0.7586(6)
H21 H 0.8741 0.0742 0.7525
C22 C 0.6159(9) 0.0457(4) 0.8381(5)
H22 H 0.5886 0.0390 0.8860
C23 C 0.8509(13) 0.0604(6) 0.8981(6)
C24 C 0.7366(11) -0.2675(4) 0.5773(7)
N2 N 0.9311(12) 0.0638(6) 0.9505(6)
C25 C 0.6882(10) 0.0652(5) 0.6960(5)
H23 H 0.7133 0.0712 0.6473
C26 C 0.7524(10) -0.2255(4) 0.6329(6)
H24 H 0.8279 -0.2258 0.6704
C27 C 0.677(2) -0.1560(6) 0.7727(7)
H25 H 0.5996 -0.1797 0.7759
H26 H 0.6768 -0.1242 0.8076
H27 H 0.7577 -0.1782 0.7862
C28 C 0.1136(11) -0.1853(5) 0.6018(6)
H28 H 0.0722 -0.2226 0.5996
H29 H 0.0900 -0.1647 0.6456
H30 H 0.2098 -0.1895 0.6068
C29 C 0.2954(15) -0.0955(5) 0.7810(8)
H31 H 0.2763 -0.1343 0.7641
H32 H 0.3617 -0.0958 0.8262
H33 H 0.3295 -0.0744 0.7406
C30 C 0.0997(19) -0.1011(6) 0.8575(7)
H34 H 0.0833 -0.1395 0.8389
H35 H 0.0157 -0.0833 0.8645
H36 H 0.1579 -0.1020 0.9060
C31 C 0.7889(17) -0.0964(7) 0.6818(11)
H37 H 0.7796 -0.0835 0.6292
H38 H 0.8715 -0.1175 0.6937
H39 H 0.7903 -0.0637 0.7155
H40 H -0.016(2) -0.158(4) 0.525(5)
Zn1B Zn 0.57762(8) -0.03963(4) 0.39410(5)
Zn2B Zn -0.12304(10) 0.07441(4) 0.48891(5)
O7B O -0.0009(6) -0.0630(2) 0.4210(3)
O8B O 0.4519(6) 0.0900(2) 0.5224(3)
O10 O -0.1853(7) -0.1608(3) 0.4679(4)
H41 H -0.183(11) -0.138(4) 0.431(5)
H42 H -0.254(9) -0.163(7) 0.491(8)
loop_
_geom_bond_atom_site_label_1
_geom_bond_atom_site_label_2
_geom_bond_site_symmetry_1
_geom_bond_site_symmetry_2
Zn1 O4 1_555 1_555
Br1 C12 1_555 1_555
Zn2 O3 1_555 1_555
Br2 C24 1_555 1_555
P1 O2 1_555 1_555
P2 O1 1_555 1_555
O1 C2 1_555 1_555
O2 C1 1_555 1_555
O3 P2 1_555 1_555
O4 P1 1_555 1_555
O5 Zn1 1_555 1_555
O6 Zn2 1_555 1_555
O7 P1 1_555 1_555
O8 P2 1_555 1_555
O9 Zn2 1_555 1_555
C1 C4 1_555 1_555
N1 Zn1 1_555 1_555
C2 C8 1_555 1_555
C3 H1 1_555 1_555
C4 C11 1_555 1_555
C5 N1 1_555 1_555
H2 C5 1_555 1_555
C6 H3 1_555 1_555
C7 C1 1_555 1_555
C8 C6 1_555 1_555
C9 C2 1_555 1_555
C10 C21 1_555 1_555
C11 H4 1_555 1_555
C12 C3 1_555 1_555
C13 C4 1_555 1_555
H5 C13 1_555 1_555
C14 C8 1_555 1_555
H6 C14 1_555 1_555
C15 C6 1_555 1_555
H7 C15 1_555 1_555
H8 C15 1_555 1_555
H9 C15 1_555 1_555
C16 C9 1_555 1_555
H10 C16 1_555 1_555
C17 C7 1_555 1_555
H11 C17 1_555 1_555
C18 C17 1_555 1_555
H12 C18 1_555 1_555
H13 C18 1_555 1_555
H14 C18 1_555 1_555
C19 C6 1_555 1_555
H15 C19 1_555 1_555
H16 C19 1_555 1_555
H17 C19 1_555 1_555
C20 C17 1_555 1_555
H18 C20 1_555 1_555
H19 C20 1_555 1_555
H20 C20 1_555 1_555
C21 H21 1_555 1_555
C22 C5 1_555 1_555
H22 C22 1_555 1_555
C23 C10 1_555 1_555
C24 C14 1_555 1_555
N2 C23 1_555 1_555
C25 N1 1_555 1_555
H23 C25 1_555 1_555
C26 C9 1_555 1_555
H24 C26 1_555 1_555
C27 C16 1_555 1_555
H25 C27 1_555 1_555
H26 C27 1_555 1_555
H27 C27 1_555 1_555
C28 O9 1_555 1_555
H28 C28 1_555 1_555
H29 C28 1_555 1_555
H30 C28 1_555 1_555
C29 C11 1_555 1_555
H31 C29 1_555 1_555
H32 C29 1_555 1_555
H33 C29 1_555 1_555
C30 C11 1_555 1_555
H34 C30 1_555 1_555
H35 C30 1_555 1_555
H36 C30 1_555 1_555
C31 C16 1_555 1_555
H37 C31 1_555 1_555
H38 C31 1_555 1_555
H39 C31 1_555 1_555
H40 O9 1_555 1_555
O10 H41 1_555 1_555
H42 O10 1_555 1_555
Zn1B O8 1_555 1_555
Zn2B O7 1_555 1_555
O7B Zn2 1_555 1_555
O8B Zn1 1_555 1_555
P1 O6 1_555 1_555
P2 O5 1_555 1_555
C3 C7 1_555 1_555
C10 C22 1_555 1_555
C12 C13 1_555 1_555
C21 C25 1_555 1_555
C24 C26 1_555 1_555

#END
