
#######################################################################
#
#                 Cambridge Crystallographic Data Centre
#                                CCDC 
#
#######################################################################
#
# If this CIF has been generated from an entry in the Cambridge 
# Structural Database, then it will include bibliographic, chemical, 
# crystal, experimental, refinement or atomic coordinate data resulting 
# from the CCDC's data processing and validation procedures.
#
#######################################################################

data_WULQUR
_symmetry_cell_setting           monoclinic
_symmetry_space_group_name_H-M   'P 21/n'
_symmetry_Int_Tables_number      14
_space_group_name_Hall           '-P 2yn'
loop_
_symmetry_equiv_pos_site_id
_symmetry_equiv_pos_as_xyz
1 x,y,z
2 1/2-x,1/2+y,1/2-z
3 -x,-y,-z
4 1/2+x,1/2-y,1/2+z
_cell_length_a                   9.437(7)
_cell_length_b                   15.378(11)
_cell_length_c                   13.319(10)
_cell_angle_alpha                90
_cell_angle_beta                 106.383(15)
_cell_angle_gamma                90
_cell_volume                     1854.4
loop_
_atom_site_label
_atom_site_type_symbol
_atom_site_fract_x
_atom_site_fract_y
_atom_site_fract_z
C1 C 0.0636(6) 0.1891(4) 0.1357(4)
C2 C 0.0624(5) 0.2559(3) 0.2182(4)
C3 C -0.0641(5) 0.2649(3) 0.2516(4)
H1 H -0.1451 0.2291 0.2240
C4 C -0.0696(5) 0.3275(3) 0.3262(4)
C5 C -0.2078(5) 0.3344(4) 0.3635(4)
C6 C 0.0518(5) 0.3801(3) 0.3676(4)
H2 H 0.0475 0.4228 0.4162
C7 C 0.1800(5) 0.3695(3) 0.3373(4)
C8 C 0.1839(5) 0.3081(3) 0.2625(4)
H3 H 0.2693 0.3016 0.2415
C9 C 0.3128(5) 0.4239(3) 0.3882(4)
O1 O -0.0354(4) 0.1336(3) 0.1118(3)
O2 O 0.1682(4) 0.1922(2) 0.0936(3)
O3 O 0.4363(3) 0.3965(2) 0.3822(2)
O4 O 0.2914(3) 0.4904(2) 0.4356(3)
O5 O -0.2145(3) 0.3994(2) 0.4200(3)
O6 O -0.3048(4) 0.2784(2) 0.3365(3)
Zn1 Zn 0.12617(6) 0.09632(4) -0.01132(4)
O3C O -0.0637(3) 0.1035(2) -0.1178(2)
O4A O 0.2086(3) -0.0096(2) 0.0644(3)
O5C O 0.2855(3) 0.1006(2) -0.0800(3)
Zn1A Zn 0.37383(6) 0.59632(4) 0.51132(4)
Zn1C Zn -0.37383(6) 0.40368(4) 0.48868(4)
Zn1C_2 Zn 0.62617(6) 0.40368(4) 0.48868(4)
O7 O -0.2505(14) -0.0198(8) 0.4096(15)
C10 C -0.1356(17) -0.0552(10) 0.3912(16)
C11 C -0.0458(19) -0.0091(9) 0.3319(15)
H4 H 0.0568 -0.0223 0.3623
H5 H -0.0608 0.0524 0.3350
H6 H -0.0756 -0.0279 0.2603
N1 N -0.097(2) -0.1324(9) 0.4273(16)
C12 C -0.187(2) -0.1789(10) 0.4874(16)
H7 H -0.1341 -0.1785 0.5606
H8 H -0.2028 -0.2379 0.4633
H9 H -0.2798 -0.1501 0.4770
C13 C 0.033(2) -0.1766(11) 0.412(2)
H10 H 0.0350 -0.2356 0.4361
H11 H 0.1205 -0.1470 0.4513
H12 H 0.0279 -0.1762 0.3392
N3 N -0.4232(8) 0.1173(5) 0.3453(7)
H22 H -0.3763 0.1687 0.3269
H23 H -0.3528 0.0698 0.3562
C18 C -0.5506(10) 0.0958(10) 0.2606(10)
H24 H -0.5991 0.0461 0.2795
H25 H -0.5204 0.0826 0.1993
H26 H -0.6175 0.1442 0.2465
C19 C -0.4620(12) 0.1336(8) 0.4420(9)
H27 H -0.3765 0.1538 0.4947
H28 H -0.4969 0.0807 0.4652
H29 H -0.5382 0.1769 0.4299
O9 O -0.3079(8) 0.0868(5) 0.1423(6)
H30 H -0.345(11) 0.042(4) 0.111(8)
H31 H -0.223(5) 0.105(7) 0.153(9)
O8? O -0.201(4) -0.004(2) 0.414(4)
C14? C -0.100(6) -0.060(2) 0.403(5)
C15? C -0.005(5) -0.042(3) 0.334(4)
H13? H -0.0579 -0.0549 0.2630
H14? H 0.0821 -0.0781 0.3549
H15? H 0.0241 0.0179 0.3402
N2? N -0.107(4) -0.1382(19) 0.439(3)
C16? C -0.208(6) -0.154(3) 0.506(5)
H16? H -0.1503 -0.1655 0.5760
H17? H -0.2706 -0.2024 0.4788
H18? H -0.2673 -0.1028 0.5048
C17? C -0.001(6) -0.206(3) 0.430(6)
H19? H 0.0016 -0.2093 0.3584
H20? H -0.0309 -0.2606 0.4512
H21? H 0.0953 -0.1908 0.4738
N4? N -0.389(3) 0.1161(16) 0.281(2)
H32? H -0.3468 0.1738 0.2958
H33? H -0.3156 0.0742 0.3181
C20? C -0.428(4) 0.100(2) 0.172(2)
H34? H -0.3415 0.0815 0.1525
H35? H -0.4668 0.1516 0.1343
H36? H -0.5008 0.0544 0.1544
C21? C -0.521(4) 0.109(4) 0.319(4)
H37? H -0.5977 0.1461 0.2773
H38? H -0.4972 0.1277 0.3908
H39? H -0.5549 0.0503 0.3135
loop_
_geom_bond_atom_site_label_1
_geom_bond_atom_site_label_2
_geom_bond_site_symmetry_1
_geom_bond_site_symmetry_2
C1 C2 1_555 1_555
C2 C3 1_555 1_555
C3 H1 1_555 1_555
C4 C3 1_555 1_555
C5 C4 1_555 1_555
C6 C4 1_555 1_555
H2 C6 1_555 1_555
C7 C6 1_555 1_555
C8 C2 1_555 1_555
H3 C8 1_555 1_555
C9 C7 1_555 1_555
O1 C1 1_555 1_555
O2 C1 1_555 1_555
O3 C9 1_555 1_555
O4 C9 1_555 1_555
O5 C5 1_555 1_555
O6 C5 1_555 1_555
Zn1 O2 1_555 1_555
O7 C10 1_555 1_555
C10 C11 1_555 1_555
C11 H4 1_555 1_555
H5 C11 1_555 1_555
H6 C11 1_555 1_555
N1 C10 1_555 1_555
C12 N1 1_555 1_555
H7 C12 1_555 1_555
H8 C12 1_555 1_555
H9 C12 1_555 1_555
C13 N1 1_555 1_555
H10 C13 1_555 1_555
H11 C13 1_555 1_555
H12 C13 1_555 1_555
N3 H22 1_555 1_555
H23 N3 1_555 1_555
C18 N3 1_555 1_555
H24 C18 1_555 1_555
H25 C18 1_555 1_555
H26 C18 1_555 1_555
C19 N3 1_555 1_555
H27 C19 1_555 1_555
H28 C19 1_555 1_555
H29 C19 1_555 1_555
O9 H30 1_555 1_555
H31 O9 1_555 1_555
O3C Zn1 1_555 1_555
O4A Zn1 1_555 1_555
O5C Zn1 1_555 1_555
Zn1A O4 1_555 1_555
Zn1C O5 1_555 1_555
Zn1C_2 O3 1_555 1_555
C7 C8 1_555 1_555

#END
