
#######################################################################
#
#                 Cambridge Crystallographic Data Centre
#                                CCDC 
#
#######################################################################
#
# If this CIF has been generated from an entry in the Cambridge 
# Structural Database, then it will include bibliographic, chemical, 
# crystal, experimental, refinement or atomic coordinate data resulting 
# from the CCDC's data processing and validation procedures.
#
#######################################################################

data_WULWOR
_symmetry_cell_setting           monoclinic
_symmetry_space_group_name_H-M   'P 21/c'
_symmetry_Int_Tables_number      14
_space_group_name_Hall           '-P 2ybc'
loop_
_symmetry_equiv_pos_site_id
_symmetry_equiv_pos_as_xyz
1 x,y,z
2 -x,1/2+y,1/2-z
3 -x,-y,-z
4 x,1/2-y,1/2+z
_cell_length_a                   7.9194(16)
_cell_length_b                   27.481(6)
_cell_length_c                   15.292(3)
_cell_angle_alpha                90
_cell_angle_beta                 104.90(3)
_cell_angle_gamma                90
_cell_volume                     3216.14
loop_
_atom_site_label
_atom_site_type_symbol
_atom_site_fract_x
_atom_site_fract_y
_atom_site_fract_z
Cu1 Cu -0.75530(12) 0.12235(3) 0.02881(6)
Cu2 Cu -1.28849(11) 0.10609(3) -0.46969(5)
C1 C -0.0427(9) -0.0628(2) 0.6930(4)
O1 O 0.0409(7) -0.08902(18) 0.7689(3)
C2 C -0.7821(9) 0.0116(2) 0.0525(5)
H1 H -0.8472 0.0100 -0.0075
C3 C -1.2565(11) 0.1901(3) 0.0124(5)
H2 H -1.3162 0.2032 0.0519
C4 C -1.8429(9) 0.2239(2) -0.5962(5)
N1 N -1.4525(7) 0.18661(17) -0.2851(3)
O2 O -1.9795(6) 0.23961(19) -0.6650(4)
N2 N -0.7183(7) 0.05433(19) 0.0860(3)
N3 N -1.2961(7) 0.15045(17) -0.3754(3)
C5 C -0.5803(8) 0.0138(2) 0.2269(4)
C6 C -0.9100(9) 0.1134(2) -0.2978(5)
H3 H -0.9455 0.1114 -0.3605
N4 N -0.9988(7) 0.15237(18) -0.0062(3)
C7 C -1.2986(8) 0.1693(2) -0.2321(4)
N5 N -0.3089(6) 0.05816(17) 0.4376(3)
C8 C -1.6765(9) 0.2155(2) -0.6042(5)
H4 H -1.6499 0.2208 -0.6592
N6 N -0.4113(7) -0.01583(18) 0.3808(3)
C9 C -0.7456(9) 0.0995(2) -0.2520(5)
H5 H -0.6688 0.0875 -0.2836
C10 C -0.4306(8) 0.1072(2) 0.2943(4)
C11 C -1.3313(9) 0.1908(2) -0.0788(5)
H6 H -1.4422 0.2039 -0.1018
C12 C -0.4034(8) 0.0644(2) 0.3484(4)
C13 C -0.4691(8) 0.0192(2) 0.3155(4)
C14 C -0.3488(9) 0.1520(2) 0.3163(4)
H7 H -0.2643 0.1558 0.3707
C15 C -0.7552(9) -0.0310(3) 0.1035(5)
H8 H -0.8043 -0.0601 0.0777
C16 C -0.6166(7) 0.0556(2) 0.1725(4)
C17 C -1.5494(8) 0.1992(2) -0.5307(5)
H9 H -1.4369 0.1940 -0.5368
C18 C -1.4437(8) 0.1752(2) -0.3688(4)
C19 C -1.7518(8) 0.1996(3) -0.4410(5)
H10 H -1.7779 0.1945 -0.3857
C20 C -0.5447(8) 0.1021(2) 0.2064(4)
C21 C -1.0682(9) 0.1534(2) -0.0968(4)
N7 N -0.5861(7) 0.14090(17) 0.1464(3)
C22 C -0.2467(10) -0.0648(3) 0.5473(5)
H11 H -0.3237 -0.0826 0.5026
C23 C -1.5841(8) 0.1904(2) -0.4488(4)
N8 N -0.7945(7) 0.12090(19) -0.1085(4)
C24 C -0.3926(9) 0.1907(2) 0.2576(5)
H12 H -0.3416 0.2210 0.2727
C25 C -1.0261(8) 0.1310(2) -0.2479(4)
C26 C -1.2010(8) 0.1482(2) -0.2867(4)
C27 C -1.2374(7) 0.1715(2) -0.1366(4)
C28 C -1.0932(10) 0.1702(3) 0.0459(5)
H13 H -1.0472 0.1692 0.1083
C29 C -0.3168(8) 0.0088(2) 0.4522(4)
C30 C -1.8806(9) 0.2160(3) -0.5139(5)
H14 H -1.9926 0.2218 -0.5077
C31 C -0.2240(8) -0.0153(2) 0.5346(4)
C32 C -0.6580(8) -0.0303(2) 0.1903(5)
H15 H -0.6428 -0.0585 0.2252
C33 C -0.9622(8) 0.1343(2) -0.1532(4)
C34 C -0.6927(9) 0.1034(2) -0.1585(5)
H16 H -0.5803 0.0933 -0.1290
C35 C -0.5140(9) 0.1833(2) 0.1760(5)
H17 H -0.5478 0.2103 0.1388
C36 C -0.1555(11) -0.0879(2) 0.6263(5)
H18 H -0.1719 -0.1210 0.6335
C37 C -1.9443(13) 0.2454(3) -0.7494(5)
H19 H -2.0481 0.2562 -0.7927
H20 H -1.9073 0.2148 -0.7687
H21 H -1.8534 0.2691 -0.7449
C38 C -0.1065(12) 0.0079(3) 0.6028(5)
H22 H -0.0869 0.0409 0.5960
C39 C -0.0143(11) -0.0150(3) 0.6822(5)
H23 H 0.0651 0.0024 0.7267
C40 C 0.1474(11) -0.0629(3) 0.8403(5)
H24 H 0.1995 -0.0847 0.8886
H25 H 0.0784 -0.0391 0.8616
H26 H 0.2376 -0.0467 0.8197
Cu2_2 Cu -0.28849(11) 0.10609(3) 0.53031(5)
N5_2 N -1.3089(6) 0.05816(17) -0.5624(3)
loop_
_geom_bond_atom_site_label_1
_geom_bond_atom_site_label_2
_geom_bond_site_symmetry_1
_geom_bond_site_symmetry_2
Cu1 N2 1_555 1_555
Cu2 N3 1_555 1_555
C1 O1 1_555 1_555
O1 C40 1_555 1_555
C2 H1 1_555 1_555
C3 H2 1_555 1_555
C4 O2 1_555 1_555
N1 C7 1_555 1_555
O2 C37 1_555 1_555
N2 C2 1_555 1_555
N3 C18 1_555 1_555
C5 C13 1_555 1_555
C6 H3 1_555 1_555
N4 Cu1 1_555 1_555
C7 C26 1_555 1_555
N5 C12 1_555 1_555
C8 C4 1_555 1_555
H4 C8 1_555 1_555
N6 C13 1_555 1_555
C9 C6 1_555 1_555
H5 C9 1_555 1_555
C10 C12 1_555 1_555
C11 C3 1_555 1_555
H6 C11 1_555 1_555
C12 C13 1_555 1_555
C14 C10 1_555 1_555
H7 C14 1_555 1_555
C15 C2 1_555 1_555
H8 C15 1_555 1_555
C16 N2 1_555 1_555
C17 C8 1_555 1_555
H9 C17 1_555 1_555
C18 N1 1_555 1_555
C19 H10 1_555 1_555
C20 C10 1_555 1_555
C21 N4 1_555 1_555
N7 Cu1 1_555 1_555
C22 H11 1_555 1_555
C23 C17 1_555 1_555
N8 Cu1 1_555 1_555
C24 C14 1_555 1_555
H12 C24 1_555 1_555
C25 C6 1_555 1_555
C26 N3 1_555 1_555
C27 C7 1_555 1_555
C28 C3 1_555 1_555
H13 C28 1_555 1_555
C29 N5 1_555 1_555
C30 C4 1_555 1_555
H14 C30 1_555 1_555
C31 C22 1_555 1_555
C32 C5 1_555 1_555
H15 C32 1_555 1_555
C33 C21 1_555 1_555
C34 C9 1_555 1_555
H16 C34 1_555 1_555
C35 N7 1_555 1_555
H17 C35 1_555 1_555
C36 C1 1_555 1_555
H18 C36 1_555 1_555
C37 H19 1_555 1_555
H20 C37 1_555 1_555
H21 C37 1_555 1_555
C38 C31 1_555 1_555
H22 C38 1_555 1_555
C39 C1 1_555 1_555
H23 C39 1_555 1_555
C40 H24 1_555 1_555
H25 C40 1_555 1_555
H26 C40 1_555 1_555
Cu2_2 N5 1_555 1_555
N5_2 Cu2 1_555 1_555
C5 C16 1_555 1_555
N4 C28 1_555 1_555
N6 C29 1_555 1_555
C11 C27 1_555 1_555
C15 C32 1_555 1_555
C16 C20 1_555 1_555
C18 C23 1_555 1_555
C19 C23 1_555 1_555
C19 C30 1_555 1_555
C20 N7 1_555 1_555
C21 C27 1_555 1_555
C22 C36 1_555 1_555
N8 C33 1_555 1_555
N8 C34 1_555 1_555
C24 C35 1_555 1_555
C25 C26 1_555 1_555
C25 C33 1_555 1_555
C29 C31 1_555 1_555
C38 C39 1_555 1_555

#END
