
#######################################################################
#
#                 Cambridge Crystallographic Data Centre
#                                CCDC 
#
#######################################################################
#
# If this CIF has been generated from an entry in the Cambridge 
# Structural Database, then it will include bibliographic, chemical, 
# crystal, experimental, refinement or atomic coordinate data resulting 
# from the CCDC's data processing and validation procedures.
#
#######################################################################

data_WULYOR
_symmetry_cell_setting           orthorhombic
_symmetry_space_group_name_H-M   'P 21 21 21'
_symmetry_Int_Tables_number      19
_space_group_name_Hall           'P 2ac 2ab'
loop_
_symmetry_equiv_pos_site_id
_symmetry_equiv_pos_as_xyz
1 x,y,z
2 1/2-x,-y,1/2+z
3 -x,1/2+y,1/2-z
4 1/2+x,1/2-y,-z
_cell_length_a                   7.382(5)
_cell_length_b                   7.440(6)
_cell_length_c                   30.75(2)
_cell_angle_alpha                90
_cell_angle_beta                 90
_cell_angle_gamma                90
_cell_volume                     1688.85
loop_
_atom_site_label
_atom_site_type_symbol
_atom_site_fract_x
_atom_site_fract_y
_atom_site_fract_z
Pb1 Pb 0.37612(4) -0.48729(4) 0.173892(10)
Pb2 Pb 1.40746(4) -0.87674(4) 0.076050(10)
P1 P 0.8918(3) -0.8151(3) 0.05792(6)
P2 P 0.4437(3) -0.3610(3) 0.06488(6)
P3 P -0.1326(3) -0.5342(3) 0.18724(6)
P4 P -0.5605(3) -0.9933(3) 0.18735(7)
N1 N 0.8106(9) -0.4520(9) 0.0725(2)
H1 H 0.7683 -0.4898 0.0988
N2 N -0.1954(9) -0.8990(10) 0.1769(2)
H2 H -0.2298 -0.8510 0.1510
C1 C 0.9565(11) -0.5806(11) 0.0579(3)
H3 H 1.0608 -0.5660 0.0768
H4 H 0.9937 -0.5477 0.0287
C2 C 0.6565(10) -0.4421(11) 0.0422(3)
H5 H 0.6362 -0.5611 0.0303
H6 H 0.6901 -0.3641 0.0182
C3 C 0.8952(13) -0.2735(10) 0.0785(3)
H7 H 0.8053 -0.1891 0.0881
H8 H 0.9456 -0.2336 0.0514
H9 H 0.9896 -0.2819 0.0999
C4 C -0.1952(13) -0.7491(12) 0.2100(3)
H10 H -0.1112 -0.7792 0.2331
H11 H -0.3151 -0.7396 0.2227
C5 C -0.3212(12) -1.0479(12) 0.1869(3)
H12 H -0.2894 -1.0964 0.2151
H13 H -0.3019 -1.1425 0.1656
C6 C -0.0097(11) -0.9710(13) 0.1714(3)
H14 H -0.0107 -1.0648 0.1500
H15 H 0.0324 -1.0185 0.1986
H16 H 0.0696 -0.8763 0.1621
O1 O 0.8052(9) -0.8495(8) 0.01251(19)
H17 H 0.8231 -0.9541 0.0053
O2 O 1.0617(7) -0.9177(8) 0.06613(18)
O3 O 0.7422(8) -0.8342(9) 0.0918(2)
O4 O 0.3859(8) -0.4985(8) 0.09958(17)
O5 O 0.3159(8) -0.3615(8) 0.02607(17)
O6 O 0.4725(9) -0.1776(8) 0.0839(2)
O7 O 0.0457(8) -0.5423(9) 0.16418(19)
O8 O -0.1198(8) -0.4110(7) 0.22793(17)
H18 H -0.2173 -0.4110 0.2407
O9 O -0.2899(8) -0.4791(9) 0.15816(18)
O10 O -0.5985(9) -0.8967(8) 0.23003(19)
O11 O -0.6559(8) -1.1721(8) 0.1823(2)
O12 O -0.5887(8) -0.8621(7) 0.15024(17)
O9_2 O 0.7101(8) -0.4791(9) 0.15816(18)
O11_2 O 0.3441(8) -0.1721(8) 0.1823(2)
O3_2 O 1.7422(8) -0.8342(9) 0.0918(2)
O6_2 O 1.4725(9) -1.1776(8) 0.0839(2)
O12_2 O 1.4113(8) -0.8621(7) 0.15024(17)
Pb2_2 Pb 0.40746(4) -0.87674(4) 0.076050(10)
Pb2_3 Pb 0.40746(4) 0.12326(4) 0.076050(10)
Pb1_2 Pb -0.62388(4) -0.48729(4) 0.173892(10)
Pb1_3 Pb -0.62388(4) -1.48729(4) 0.173892(10)
Pb2_4 Pb -0.59254(4) -0.87674(4) 0.076050(10)
loop_
_geom_bond_atom_site_label_1
_geom_bond_atom_site_label_2
_geom_bond_site_symmetry_1
_geom_bond_site_symmetry_2
Pb1 O4 1_555 1_555
Pb2 O2 1_555 1_555
P1 C1 1_555 1_555
P2 C2 1_555 1_555
P3 C4 1_555 1_555
P4 C5 1_555 1_555
N1 H1 1_555 1_555
N2 H2 1_555 1_555
C1 N1 1_555 1_555
H3 C1 1_555 1_555
H4 C1 1_555 1_555
C2 N1 1_555 1_555
H5 C2 1_555 1_555
H6 C2 1_555 1_555
C3 N1 1_555 1_555
H7 C3 1_555 1_555
H8 C3 1_555 1_555
H9 C3 1_555 1_555
C4 N2 1_555 1_555
H10 C4 1_555 1_555
H11 C4 1_555 1_555
C5 N2 1_555 1_555
H12 C5 1_555 1_555
H13 C5 1_555 1_555
C6 N2 1_555 1_555
H14 C6 1_555 1_555
H15 C6 1_555 1_555
H16 C6 1_555 1_555
O1 P1 1_555 1_555
H17 O1 1_555 1_555
O2 P1 1_555 1_555
O3 P1 1_555 1_555
O4 P2 1_555 1_555
O5 P2 1_555 1_555
O6 P2 1_555 1_555
O7 Pb1 1_555 1_555
O8 P3 1_555 1_555
H18 O8 1_555 1_555
O9 P3 1_555 1_555
O10 P4 1_555 1_555
O11 P4 1_555 1_555
O12 P4 1_555 1_555
O9_2 Pb1 1_555 1_555
O11_2 Pb1 1_555 1_555
O3_2 Pb2 1_555 1_555
O6_2 Pb2 1_555 1_555
O12_2 Pb2 1_555 1_555
Pb2_2 O3 1_555 1_555
Pb2_3 O6 1_555 1_555
Pb1_2 O9 1_555 1_555
Pb1_3 O11 1_555 1_555
Pb2_4 O12 1_555 1_555
P3 O7 1_555 1_555

#END
