
#######################################################################
#
#                 Cambridge Crystallographic Data Centre
#                                CCDC 
#
#######################################################################
#
# If this CIF has been generated from an entry in the Cambridge 
# Structural Database, then it will include bibliographic, chemical, 
# crystal, experimental, refinement or atomic coordinate data resulting 
# from the CCDC's data processing and validation procedures.
#
#######################################################################

data_WUMCIS
_symmetry_cell_setting           triclinic
_symmetry_space_group_name_H-M   'P -1'
_symmetry_Int_Tables_number      2
_space_group_name_Hall           '-P 1'
loop_
_symmetry_equiv_pos_site_id
_symmetry_equiv_pos_as_xyz
1 x,y,z
2 -x,-y,-z
_cell_length_a                   10.012(2)
_cell_length_b                   10.144(3)
_cell_length_c                   14.114(4)
_cell_angle_alpha                75.158(5)
_cell_angle_beta                 72.217(5)
_cell_angle_gamma                74.429(5)
_cell_volume                     1290.94
loop_
_atom_site_label
_atom_site_type_symbol
_atom_site_fract_x
_atom_site_fract_y
_atom_site_fract_z
C1 C 0.8158(4) 0.3101(5) 0.4150(3)
C2 C 0.9513(4) 0.3538(4) 0.4082(3)
C3 C 1.0654(4) 0.2588(4) 0.4407(3)
H1 H 1.0591 0.1659 0.4658
C4 C 1.1896(4) 0.3023(4) 0.4357(3)
C5 C 1.1999(4) 0.4402(4) 0.3966(3)
H2 H 1.2818 0.4702 0.3926
C6 C 1.0872(4) 0.5319(4) 0.3637(3)
C7 C 0.9631(4) 0.4915(4) 0.3687(3)
H3 H 0.8887 0.5559 0.3457
C8 C 1.3148(4) 0.2000(4) 0.4695(3)
C9 C 0.7442(5) 0.0377(5) 0.2691(3)
H4 H 0.8038 -0.0402 0.2969
C10 C 0.5967(6) 0.2249(5) 0.2470(4)
H5 H 0.5298 0.3062 0.2596
C11 C 0.7957(5) -0.0136(5) 0.0942(4)
C12 C 0.8529(5) -0.1522(6) 0.1149(4)
H6 H 0.8543 -0.1965 0.1810
C13 C 0.9091(6) -0.2271(7) 0.0372(5)
H7 H 0.9507 -0.3214 0.0499
C14 C 0.9015(6) -0.1573(7) -0.0603(5)
C15 C 0.8505(6) -0.0187(8) -0.0822(5)
H8 H 0.8512 0.0265 -0.1485
C16 C 0.7964(6) 0.0556(6) -0.0025(4)
H9 H 0.7613 0.1513 -0.0156
C17 C 0.4964(5) 0.2609(5) 0.6598(3)
H10 H 0.4503 0.3484 0.6323
C18 C 0.6192(6) 0.0579(5) 0.6801(4)
H11 H 0.6789 -0.0256 0.6648
C19 C 0.4410(5) 0.2872(5) 0.8410(3)
C20 C 0.4662(6) 0.2158(7) 0.9339(4)
H12 H 0.5176 0.1242 0.9410
C21 C 0.4139(6) 0.2828(7) 1.0157(4)
H13 H 0.4312 0.2370 1.0782
C22 C 0.3371(5) 0.4158(6) 1.0043(4)
C23 C 0.3068(7) 0.4844(6) 0.9153(4)
H14 H 0.2518 0.5745 0.9100
C24 C 0.3585(6) 0.4192(6) 0.8308(4)
H15 H 0.3374 0.4646 0.7693
Cu1 Cu 0.61869(5) 0.15856(6) 0.46173(4)
N1 N 0.6591(4) 0.1371(4) 0.3185(3)
N2 N 0.6369(5) 0.1875(5) 0.1590(3)
N3 N 0.7324(4) 0.0649(4) 0.1745(3)
N4 N 0.9536(7) -0.2362(9) -0.1402(5)
N5 N 0.5711(4) 0.1614(4) 0.6087(3)
N6 N 0.5762(5) 0.0835(4) 0.7720(3)
N7 N 0.4974(4) 0.2165(4) 0.7573(3)
N8 N 0.2843(6) 0.4890(7) 1.0908(4)
N9 N 1.0998(4) 0.6778(4) 0.3210(3)
O1 O 0.8141(3) 0.1821(3) 0.4461(2)
O2 O 0.7128(3) 0.4018(3) 0.3929(3)
O3 O 1.3056(3) 0.0778(3) 0.5044(3)
O4 O 1.4216(3) 0.2498(3) 0.4579(2)
O5 O 1.2118(4) 0.7097(4) 0.3103(3)
O6 O 0.9963(4) 0.7613(3) 0.2984(3)
O7 O 0.9563(10) -0.1750(8) -0.2239(6)
O8 O 0.9949(7) -0.3614(7) -0.1228(5)
O9 O 0.2060(7) 0.5992(6) 1.0849(4)
O10 O 0.3209(6) 0.4289(7) 1.1670(4)
Cu1_2 Cu 1.61869(5) 0.15856(6) 0.46173(4)
Cu1A Cu 1.38131(5) -0.15856(6) 0.53827(4)
O3A O 0.6944(3) -0.0778(3) 0.4956(3)
O4_2 O 0.4216(3) 0.2498(3) 0.4579(2)
loop_
_geom_bond_atom_site_label_1
_geom_bond_atom_site_label_2
_geom_bond_site_symmetry_1
_geom_bond_site_symmetry_2
C1 C2 1_555 1_555
C2 C3 1_555 1_555
C3 H1 1_555 1_555
C4 C3 1_555 1_555
C5 C4 1_555 1_555
H2 C5 1_555 1_555
C6 C5 1_555 1_555
C7 C2 1_555 1_555
H3 C7 1_555 1_555
C8 C4 1_555 1_555
C9 H4 1_555 1_555
C10 H5 1_555 1_555
C11 C12 1_555 1_555
C12 H6 1_555 1_555
C13 C12 1_555 1_555
H7 C13 1_555 1_555
C14 C13 1_555 1_555
C15 C14 1_555 1_555
H8 C15 1_555 1_555
C16 C11 1_555 1_555
H9 C16 1_555 1_555
C17 H10 1_555 1_555
C18 H11 1_555 1_555
C19 C20 1_555 1_555
C20 H12 1_555 1_555
C21 C20 1_555 1_555
H13 C21 1_555 1_555
C22 C21 1_555 1_555
C23 C22 1_555 1_555
H14 C23 1_555 1_555
C24 C19 1_555 1_555
H15 C24 1_555 1_555
Cu1 N1 1_555 1_555
N1 C9 1_555 1_555
N2 C10 1_555 1_555
N3 C9 1_555 1_555
N4 C14 1_555 1_555
N5 C17 1_555 1_555
N6 C18 1_555 1_555
N7 C17 1_555 1_555
N8 C22 1_555 1_555
N9 C6 1_555 1_555
O1 C1 1_555 1_555
O2 C1 1_555 1_555
O3 C8 1_555 1_555
O4 C8 1_555 1_555
O5 N9 1_555 1_555
O6 N9 1_555 1_555
O7 N4 1_555 1_555
O8 N4 1_555 1_555
O9 N8 1_555 1_555
O10 N8 1_555 1_555
Cu1_2 O4 1_555 1_555
Cu1A O3 1_555 1_555
O3A Cu1 1_555 1_555
O4_2 Cu1 1_555 1_555
C6 C7 1_555 1_555
C10 N1 1_555 1_555
C11 N3 1_555 1_555
C15 C16 1_555 1_555
C18 N5 1_555 1_555
C19 N7 1_555 1_555
C23 C24 1_555 1_555
Cu1 N5 1_555 1_555
Cu1 O1 1_555 1_555
Cu1 O2 1_555 1_555
N2 N3 1_555 1_555
N6 N7 1_555 1_555

#END
