
#######################################################################
#
#                 Cambridge Crystallographic Data Centre
#                                CCDC 
#
#######################################################################
#
# If this CIF has been generated from an entry in the Cambridge 
# Structural Database, then it will include bibliographic, chemical, 
# crystal, experimental, refinement or atomic coordinate data resulting 
# from the CCDC's data processing and validation procedures.
#
#######################################################################

data_WUMDOZ
_symmetry_cell_setting           cubic
_symmetry_space_group_name_H-M   'I a -3'
_symmetry_Int_Tables_number      206
_space_group_name_Hall           '-I 2b 2c 3'
loop_
_symmetry_equiv_pos_site_id
_symmetry_equiv_pos_as_xyz
1 x,y,z
2 z,x,y
3 y,z,x
4 -y,1/2-z,x
5 z,-x,1/2-y
6 1/2-y,z,-x
7 -z,1/2-x,y
8 1/2-z,x,-y
9 y,-z,1/2-x
10 -x,1/2-y,z
11 x,-y,1/2-z
12 1/2-x,y,-z
13 1/2+x,1/2+y,1/2+z
14 1/2+z,1/2+x,1/2+y
15 1/2+y,1/2+z,1/2+x
16 1/2-y,-z,1/2+x
17 1/2+z,1/2-x,-y
18 -y,1/2+z,1/2-x
19 1/2-z,-x,1/2+y
20 -z,1/2+x,1/2-y
21 1/2+y,1/2-z,-x
22 1/2-x,-y,1/2+z
23 1/2+x,1/2-y,-z
24 -x,1/2+y,1/2-z
25 -x,-y,-z
26 -z,-x,-y
27 -y,-z,-x
28 y,1/2+z,-x
29 -z,x,1/2+y
30 1/2+y,-z,x
31 z,1/2+x,-y
32 1/2+z,-x,y
33 -y,z,1/2+x
34 x,1/2+y,-z
35 -x,y,1/2+z
36 1/2+x,-y,z
37 1/2-x,1/2-y,1/2-z
38 1/2-z,1/2-x,1/2-y
39 1/2-y,1/2-z,1/2-x
40 1/2+y,z,1/2-x
41 1/2-z,1/2+x,y
42 y,1/2-z,1/2+x
43 1/2+z,x,1/2-y
44 z,1/2-x,1/2+y
45 1/2-y,1/2+z,x
46 1/2+x,y,1/2-z
47 1/2-x,1/2+y,z
48 x,1/2-y,1/2+z
_cell_length_a                   23.7697(4)
_cell_length_b                   23.7697(4)
_cell_length_c                   23.7697(4)
_cell_angle_alpha                90
_cell_angle_beta                 90
_cell_angle_gamma                90
_cell_volume                     13429.8
loop_
_atom_site_label
_atom_site_type_symbol
_atom_site_fract_x
_atom_site_fract_y
_atom_site_fract_z
Cd1 Cd 0.5000 0.5000 1.0000
P1 P 0.17035(11) 0.32965(11) 0.67035(11)
O1 O 0.4318(6) 0.5627(5) 0.9752(6)
C1 C 0.3736(9) 0.5529(15) 0.9834(12)
Cd2 Cd 0.41605(3) 0.58395(3) 1.08395(3)
O2 O 0.3465(4) 0.5728(5) 1.0185(5)
C2 C 0.3465(4) 0.5330(4) 0.9283(4)
C3 C 0.2894(4) 0.5211(5) 0.9329(4)
H1 H 0.2690 0.5333 0.9650
C4 C 0.2622(3) 0.4912(4) 0.8906(4)
H2 H 0.2232 0.4830 0.8938
C5 C 0.2921(2) 0.4733(2) 0.8437(3)
C6 C 0.3492(3) 0.4852(3) 0.8390(3)
H3 H 0.3696 0.4730 0.8069
C7 C 0.3764(3) 0.5151(4) 0.8813(4)
H4 H 0.4153 0.5233 0.8782
O3 O 0.1343(6) 0.3657(5) 0.6343(6)
C8 C 0.2625(2) 0.4349(2) 0.8028(3)
C9 C 0.2905(3) 0.3956(3) 0.7731(3)
H5 H 0.3295 0.3898 0.7800
C10 C 0.2643(5) 0.3645(5) 0.7337(5)
H6 H 0.2856 0.3374 0.7135
C11 C 0.2093(6) 0.3701(5) 0.7217(6)
C12 C 0.1769(3) 0.4104(4) 0.7506(5)
H7 H 0.1385 0.4168 0.7419
C13 C 0.2036(8) 0.4394(8) 0.7914(8)
H8 H 0.1820 0.4643 0.8140
O1O O -0.0627(5) 0.0248(6) 0.9318(6)
C1O C -0.0529(15) 0.0166(12) 0.8736(9)
O2O O -0.0728(5) -0.0185(5) 0.8465(4)
C2O C -0.0330(4) 0.0717(4) 0.8465(4)
C3O C -0.0211(5) 0.0671(4) 0.7894(4)
H1O H -0.0333 0.0350 0.7690
C4O C 0.0088(4) 0.1094(4) 0.7622(3)
H2O H 0.0170 0.1062 0.7232
C5O C 0.0267(2) 0.1563(3) 0.7921(2)
C6O C 0.0148(3) 0.1610(3) 0.8492(3)
H3O H 0.0270 0.1931 0.8696
C7O C -0.0151(4) 0.1187(4) 0.8764(3)
H4O H -0.0233 0.1218 0.9153
C8O C 0.0651(2) 0.1972(3) 0.7625(2)
C9O C 0.1044(3) 0.2269(3) 0.7905(3)
H5O H 0.1102 0.2200 0.8295
C10O C 0.1355(5) 0.2663(5) 0.7643(5)
H6O H 0.1626 0.2865 0.7856
C11O C 0.1299(5) 0.2783(6) 0.7093(6)
C12O C 0.0896(4) 0.2494(5) 0.6769(3)
H7O H 0.0832 0.2581 0.6385
C13O C 0.0606(8) 0.2086(8) 0.7036(8)
H8O H 0.0357 0.1860 0.6820
O1P O 0.4752(6) 0.0682(6) 0.4373(5)
C1P C 0.4834(12) 0.1264(9) 0.4471(15)
O2P O 0.5185(5) 0.1535(4) 0.4272(5)
C2P C 0.4283(4) 0.1535(4) 0.4670(4)
C3P C 0.4329(4) 0.2106(4) 0.4789(5)
H1P H 0.4650 0.2310 0.4667
C4P C 0.3906(4) 0.2378(3) 0.5088(4)
H2P H 0.3938 0.2768 0.5170
C5P C 0.3437(3) 0.2079(2) 0.5267(2)
C6P C 0.3390(3) 0.1508(3) 0.5148(3)
H3P H 0.3069 0.1304 0.5270
C7P C 0.3813(4) 0.1236(3) 0.4849(4)
H4P H 0.3782 0.0847 0.4767
C8P C 0.3028(3) 0.2375(2) 0.5651(2)
C9P C 0.2731(3) 0.2095(3) 0.6044(3)
H5P H 0.2800 0.1705 0.6102
C10P C 0.2337(5) 0.2357(5) 0.6355(5)
H6P H 0.2135 0.2144 0.6626
C11P C 0.2217(6) 0.2907(6) 0.6299(5)
C12P C 0.2506(5) 0.3231(3) 0.5896(4)
H7P H 0.2419 0.3615 0.5832
C13P C 0.2914(8) 0.2964(8) 0.5606(8)
H8P H 0.3140 0.3180 0.5357
P1X P 0.82965(11) 0.67035(11) 1.32965(11)
O1X O 0.5682(6) 0.4373(5) 1.0248(6)
C1X C 0.6264(9) 0.4471(15) 1.0166(12)
Cd2X Cd 0.58395(3) 0.41605(3) 0.91605(3)
O2X O 0.6535(4) 0.4272(5) 0.9815(5)
C2X C 0.6535(4) 0.4670(4) 1.0717(4)
C3X C 0.7106(4) 0.4789(5) 1.0671(4)
H1X H 0.7310 0.4667 1.0350
C4X C 0.7378(3) 0.5088(4) 1.1094(4)
H2X H 0.7768 0.5170 1.1062
C5X C 0.7079(2) 0.5267(2) 1.1563(3)
C6X C 0.6508(3) 0.5148(3) 1.1610(3)
H3X H 0.6304 0.5270 1.1931
C7X C 0.6236(3) 0.4849(4) 1.1187(4)
H4X H 0.5847 0.4767 1.1218
O3X O 0.8657(6) 0.6343(5) 1.3657(6)
C8X C 0.7375(2) 0.5651(2) 1.1972(3)
C9X C 0.7095(3) 0.6044(3) 1.2269(3)
H5X H 0.6705 0.6102 1.2200
C10X C 0.7357(5) 0.6355(5) 1.2663(5)
H6X H 0.7144 0.6626 1.2865
C11X C 0.7907(6) 0.6299(5) 1.2783(6)
C12X C 0.8231(3) 0.5896(4) 1.2494(5)
H7X H 0.8615 0.5832 1.2581
C13X C 0.7964(8) 0.5606(8) 1.2086(8)
H8X H 0.8180 0.5357 1.1860
O1MA O 1.0627(5) 0.9752(6) 1.0682(6)
C1MA C 1.0529(15) 0.9834(12) 1.1264(9)
O2MA O 1.0728(5) 1.0185(5) 1.1535(4)
C2MA C 1.0330(4) 0.9283(4) 1.1535(4)
C3MA C 1.0211(5) 0.9329(4) 1.2106(4)
H1MA H 1.0333 0.9650 1.2310
C4MA C 0.9912(4) 0.8906(4) 1.2378(3)
H2MA H 0.9830 0.8938 1.2768
C5MA C 0.9733(2) 0.8437(3) 1.2079(2)
C6MA C 0.9852(3) 0.8390(3) 1.1508(3)
H3MA H 0.9730 0.8069 1.1304
C7MA C 1.0151(4) 0.8813(4) 1.1236(3)
H4MA H 1.0233 0.8782 1.0847
C8MA C 0.9349(2) 0.8028(3) 1.2375(2)
C9MA C 0.8956(3) 0.7731(3) 1.2095(3)
H5MA H 0.8898 0.7800 1.1705
C10MA C 0.8645(5) 0.7337(5) 1.2357(5)
H6MA H 0.8374 0.7135 1.2144
C11MA C 0.8701(5) 0.7217(6) 1.2907(6)
C12MA C 0.9104(4) 0.7506(5) 1.3231(3)
H7MA H 0.9168 0.7419 1.3615
C13MA C 0.9394(8) 0.7914(8) 1.2964(8)
H8MA H 0.9643 0.8140 1.3180
O1NA O 0.5248(6) 0.9318(6) 1.5627(5)
C1NA C 0.5166(12) 0.8736(9) 1.5529(15)
O2NA O 0.4815(5) 0.8465(4) 1.5728(5)
C2NA C 0.5717(4) 0.8465(4) 1.5330(4)
C3NA C 0.5671(4) 0.7894(4) 1.5211(5)
H1NA H 0.5350 0.7690 1.5333
C4NA C 0.6094(4) 0.7622(3) 1.4912(4)
H2NA H 0.6062 0.7232 1.4830
C5NA C 0.6563(3) 0.7921(2) 1.4733(2)
C6NA C 0.6610(3) 0.8492(3) 1.4852(3)
H3NA H 0.6931 0.8696 1.4730
C7NA C 0.6187(4) 0.8764(3) 1.5151(4)
H4NA H 0.6218 0.9153 1.5233
C8NA C 0.6972(3) 0.7625(2) 1.4349(2)
C9NA C 0.7269(3) 0.7905(3) 1.3956(3)
H5NA H 0.7200 0.8295 1.3898
C10NA C 0.7663(5) 0.7643(5) 1.3645(5)
H6NA H 0.7865 0.7856 1.3374
C11NA C 0.7783(6) 0.7093(6) 1.3701(5)
C12NA C 0.7494(5) 0.6769(3) 1.4104(4)
H7NA H 0.7581 0.6385 1.4168
C13NA C 0.7086(8) 0.7036(8) 1.4394(8)
H8NA H 0.6860 0.6820 1.4643
Cd1B Cd 0.5000 0.0000 0.5000
Cd1B_2 Cd 0.5000 1.0000 1.5000
Cd1O Cd 0.0000 0.0000 1.0000
Cd1O_2 Cd 1.0000 1.0000 1.0000
O1Q O 0.4373(5) 0.4752(6) 1.0682(6)
O1R O 0.5248(6) 0.5682(6) 1.0627(5)
O1OA O 0.5627(5) 0.5248(6) 0.9318(6)
O1PA O 0.4752(6) 0.4318(6) 0.9373(5)
Cd2A Cd 0.08395(3) 0.41605(3) 0.58395(3)
Cd2B Cd 0.58395(3) 0.08395(3) 0.41605(3)
Cd2O Cd -0.08395(3) -0.08395(3) 0.91605(3)
Cd2Y Cd 0.91605(3) 0.58395(3) 1.41605(3)
Cd2Z Cd 0.41605(3) 0.91605(3) 1.58395(3)
Cd2MA Cd 1.08395(3) 1.08395(3) 1.08395(3)
O2Q O 0.4272(5) 0.5185(5) 1.1535(4)
O2R O 0.4815(5) 0.6535(4) 1.0728(5)
O2OA O 0.5728(5) 0.4815(5) 0.8465(4)
O2PA O 0.5185(5) 0.3465(4) 0.9272(5)
O3B O 0.3657(5) 0.6343(6) 1.1343(6)
O3Z O 0.6343(5) 0.3657(6) 0.8657(6)
loop_
_geom_bond_atom_site_label_1
_geom_bond_atom_site_label_2
_geom_bond_site_symmetry_1
_geom_bond_site_symmetry_2
Cd1 O1 1_555 1_555
P1 O3 1_555 1_555
O1 C1 1_555 1_555
C1 O2 1_555 1_555
Cd2 O1 1_555 1_555
O2 Cd2 1_555 1_555
C2 C1 1_555 1_555
C3 C2 1_555 1_555
H1 C3 1_555 1_555
C4 C3 1_555 1_555
H2 C4 1_555 1_555
C5 C4 1_555 1_555
C6 C5 1_555 1_555
H3 C6 1_555 1_555
C7 C2 1_555 1_555
H4 C7 1_555 1_555
O3 Cd2A 1_555 1_555
C8 C5 1_555 1_555
C9 C8 1_555 1_555
H5 C9 1_555 1_555
C10 C9 1_555 1_555
H6 C10 1_555 1_555
C11 P1 1_555 1_555
C12 C11 1_555 1_555
H7 C12 1_555 1_555
C13 C8 1_555 1_555
H8 C13 1_555 1_555
O1O C1O 1_555 1_555
C1O O2O 1_555 1_555
O2O Cd2O 1_555 1_555
C2O C1O 1_555 1_555
C3O C2O 1_555 1_555
H1O C3O 1_555 1_555
C4O C3O 1_555 1_555
H2O C4O 1_555 1_555
C5O C4O 1_555 1_555
C6O C5O 1_555 1_555
H3O C6O 1_555 1_555
C7O C2O 1_555 1_555
H4O C7O 1_555 1_555
C8O C5O 1_555 1_555
C9O C8O 1_555 1_555
H5O C9O 1_555 1_555
C10O C9O 1_555 1_555
H6O C10O 1_555 1_555
C11O P1 1_555 1_555
C12O C11O 1_555 1_555
H7O C12O 1_555 1_555
C13O C8O 1_555 1_555
H8O C13O 1_555 1_555
O1P C1P 1_555 1_555
C1P O2P 1_555 1_555
O2P Cd2B 1_555 1_555
C2P C1P 1_555 1_555
C3P C2P 1_555 1_555
H1P C3P 1_555 1_555
C4P C3P 1_555 1_555
H2P C4P 1_555 1_555
C5P C4P 1_555 1_555
C6P C5P 1_555 1_555
H3P C6P 1_555 1_555
C7P C2P 1_555 1_555
H4P C7P 1_555 1_555
C8P C5P 1_555 1_555
C9P C8P 1_555 1_555
H5P C9P 1_555 1_555
C10P C9P 1_555 1_555
H6P C10P 1_555 1_555
C11P P1 1_555 1_555
C12P C11P 1_555 1_555
H7P C12P 1_555 1_555
C13P C8P 1_555 1_555
H8P C13P 1_555 1_555
P1X O3X 1_555 1_555
O1X Cd1 1_555 1_555
C1X O1X 1_555 1_555
Cd2X O1X 1_555 1_555
O2X C1X 1_555 1_555
C2X C1X 1_555 1_555
C3X C2X 1_555 1_555
H1X C3X 1_555 1_555
C4X C3X 1_555 1_555
H2X C4X 1_555 1_555
C5X C4X 1_555 1_555
C6X C5X 1_555 1_555
H3X C6X 1_555 1_555
C7X C2X 1_555 1_555
H4X C7X 1_555 1_555
O3X Cd2Y 1_555 1_555
C8X C5X 1_555 1_555
C9X C8X 1_555 1_555
H5X C9X 1_555 1_555
C10X C9X 1_555 1_555
H6X C10X 1_555 1_555
C11X P1X 1_555 1_555
C12X C11X 1_555 1_555
H7X C12X 1_555 1_555
C13X C8X 1_555 1_555
H8X C13X 1_555 1_555
O1MA C1MA 1_555 1_555
C1MA O2MA 1_555 1_555
O2MA Cd2MA 1_555 1_555
C2MA C1MA 1_555 1_555
C3MA C2MA 1_555 1_555
H1MA C3MA 1_555 1_555
C4MA C3MA 1_555 1_555
H2MA C4MA 1_555 1_555
C5MA C4MA 1_555 1_555
C6MA C5MA 1_555 1_555
H3MA C6MA 1_555 1_555
C7MA C2MA 1_555 1_555
H4MA C7MA 1_555 1_555
C8MA C5MA 1_555 1_555
C9MA C8MA 1_555 1_555
H5MA C9MA 1_555 1_555
C10MA C9MA 1_555 1_555
H6MA C10MA 1_555 1_555
C11MA P1X 1_555 1_555
C12MA C11MA 1_555 1_555
H7MA C12MA 1_555 1_555
C13MA C8MA 1_555 1_555
H8MA C13MA 1_555 1_555
O1NA C1NA 1_555 1_555
C1NA O2NA 1_555 1_555
O2NA Cd2Z 1_555 1_555
C2NA C1NA 1_555 1_555
C3NA C2NA 1_555 1_555
H1NA C3NA 1_555 1_555
C4NA C3NA 1_555 1_555
H2NA C4NA 1_555 1_555
C5NA C4NA 1_555 1_555
C6NA C5NA 1_555 1_555
H3NA C6NA 1_555 1_555
C7NA C2NA 1_555 1_555
H4NA C7NA 1_555 1_555
C8NA C5NA 1_555 1_555
C9NA C8NA 1_555 1_555
H5NA C9NA 1_555 1_555
C10NA C9NA 1_555 1_555
H6NA C10NA 1_555 1_555
C11NA P1X 1_555 1_555
C12NA C11NA 1_555 1_555
H7NA C12NA 1_555 1_555
C13NA C8NA 1_555 1_555
H8NA C13NA 1_555 1_555
Cd1B O1P 1_555 1_555
Cd1B_2 O1NA 1_555 1_555
Cd1O O1O 1_555 1_555
Cd1O_2 O1MA 1_555 1_555
O1Q Cd1 1_555 1_555
O1R Cd1 1_555 1_555
O1OA Cd1 1_555 1_555
O1PA Cd1 1_555 1_555
Cd2B O1P 1_555 1_555
Cd2O O1O 1_555 1_555
Cd2Z O1NA 1_555 1_555
Cd2MA O1MA 1_555 1_555
O2Q Cd2 1_555 1_555
O2R Cd2 1_555 1_555
O2OA Cd2X 1_555 1_555
O2PA Cd2X 1_555 1_555
O3B Cd2 1_555 1_555
O3Z Cd2X 1_555 1_555
Cd2 O1Q 1_555 1_555
Cd2 O1R 1_555 1_555
C6 C7 1_555 1_555
C10 C11 1_555 1_555
C12 C13 1_555 1_555
C6O C7O 1_555 1_555
C10O C11O 1_555 1_555
C12O C13O 1_555 1_555
C6P C7P 1_555 1_555
C10P C11P 1_555 1_555
C12P C13P 1_555 1_555
Cd2X O2X 1_555 1_555
Cd2X O1OA 1_555 1_555
Cd2X O1PA 1_555 1_555
C6X C7X 1_555 1_555
C10X C11X 1_555 1_555
C12X C13X 1_555 1_555
C6MA C7MA 1_555 1_555
C10MA C11MA 1_555 1_555
C12MA C13MA 1_555 1_555
C6NA C7NA 1_555 1_555
C10NA C11NA 1_555 1_555
C12NA C13NA 1_555 1_555

#END
