
#######################################################################
#
#                 Cambridge Crystallographic Data Centre
#                                CCDC 
#
#######################################################################
#
# If this CIF has been generated from an entry in the Cambridge 
# Structural Database, then it will include bibliographic, chemical, 
# crystal, experimental, refinement or atomic coordinate data resulting 
# from the CCDC's data processing and validation procedures.
#
#######################################################################

data_WUMFAN
_symmetry_cell_setting           cubic
_symmetry_space_group_name_H-M   'I -4 3 d'
_symmetry_Int_Tables_number      220
_space_group_name_Hall           'I -4bd 2c 3'
loop_
_symmetry_equiv_pos_site_id
_symmetry_equiv_pos_as_xyz
1 x,y,z
2 1/4+y,3/4-x,1/4-z
3 -x,1/2-y,z
4 1/4-y,1/4+x,3/4-z
5 1/4-x,1/4+z,3/4-y
6 x,-y,1/2-z
7 3/4-x,1/4-z,1/4+y
8 3/4-z,1/4-y,1/4+x
9 1/2-x,y,-z
10 1/4+z,3/4-y,1/4-x
11 z,x,y
12 y,z,x
13 -y,1/2-z,x
14 z,-x,1/2-y
15 1/2-y,z,-x
16 -z,1/2-x,y
17 1/2-z,x,-y
18 y,-z,1/2-x
19 3/4-y,1/4-x,1/4+z
20 1/4+y,1/4+x,1/4+z
21 1/4+x,3/4-z,1/4-y
22 1/4+x,1/4+z,1/4+y
23 1/4-z,1/4+y,3/4-x
24 1/4+z,1/4+y,1/4+x
25 1/2+x,1/2+y,1/2+z
26 3/4+y,1/4-x,3/4-z
27 1/2-x,-y,1/2+z
28 3/4-y,3/4+x,1/4-z
29 3/4-x,3/4+z,1/4-y
30 1/2+x,1/2-y,-z
31 1/4-x,3/4-z,3/4+y
32 1/4-z,3/4-y,3/4+x
33 -x,1/2+y,1/2-z
34 3/4+z,1/4-y,3/4-x
35 1/2+z,1/2+x,1/2+y
36 1/2+y,1/2+z,1/2+x
37 1/2-y,-z,1/2+x
38 1/2+z,1/2-x,-y
39 -y,1/2+z,1/2-x
40 1/2-z,-x,1/2+y
41 -z,1/2+x,1/2-y
42 1/2+y,1/2-z,-x
43 1/4-y,3/4-x,3/4+z
44 3/4+y,3/4+x,3/4+z
45 3/4+x,1/4-z,3/4-y
46 3/4+x,3/4+z,3/4+y
47 3/4-z,3/4+y,1/4-x
48 3/4+z,3/4+y,3/4+x
_cell_length_a                   23.5428(2)
_cell_length_b                   23.5428(2)
_cell_length_c                   23.5428(2)
_cell_angle_alpha                90
_cell_angle_beta                 90
_cell_angle_gamma                90
_cell_volume                     13048.9
loop_
_atom_site_label
_atom_site_type_symbol
_atom_site_fract_x
_atom_site_fract_y
_atom_site_fract_z
In1 In 0.66715(2) 0.66715(2) 0.66715(2)
P1 P 0.57938(7) 0.57938(7) 0.57938(7)
O1 O 0.8291(3) 0.4068(3) 0.2244(3)
O2 O 0.61599(19) 0.61599(19) 0.61599(19)
C1 C 0.6619(4) 0.5705(4) 0.5008(4)
H1 H 0.6737 0.6065 0.5148
C2 C 0.7527(4) 0.4207(4) 0.2882(5)
C3 C 0.6191(4) 0.5439(4) 0.5254(4)
C4 C 0.6898(5) 0.5468(4) 0.4552(5)
H2 H 0.7199 0.5670 0.4375
C5 C 0.6956(4) 0.4097(6) 0.3009(5)
H3 H 0.6739 0.3859 0.2765
C6 C 0.6710(4) 0.4325(5) 0.3477(5)
H4 H 0.6325 0.4238 0.3561
C7 C 0.7017(4) 0.4690(4) 0.3843(4)
C8 C 0.6041(5) 0.4881(4) 0.5080(5)
H5 H 0.5756 0.4676 0.5280
O3 O 0.7530(3) 0.3550(4) 0.2133(4)
C9 C 0.7562(5) 0.4798(6) 0.3710(6)
H6 H 0.7777 0.5051 0.3940
C10 C 0.6308(5) 0.4637(4) 0.4623(4)
H7 H 0.6198 0.4271 0.4496
C11 C 0.7780(4) 0.3938(4) 0.2395(5)
C12 C 0.6741(3) 0.4929(3) 0.4346(4)
C13 C 0.7822(5) 0.4538(6) 0.3226(6)
H8 H 0.8213 0.4604 0.3151
C1J C 0.5008(4) 0.6619(4) 0.5705(4)
H1J H 0.5148 0.6737 0.6065
C2J C 0.2882(5) 0.7527(4) 0.4207(4)
C3J C 0.5254(4) 0.6191(4) 0.5439(4)
C4J C 0.4552(5) 0.6898(5) 0.5468(4)
H2J H 0.4375 0.7199 0.5670
C5J C 0.3009(5) 0.6956(4) 0.4097(6)
H3J H 0.2765 0.6739 0.3859
C6J C 0.3477(5) 0.6710(4) 0.4325(5)
H4J H 0.3561 0.6325 0.4238
C7J C 0.3843(4) 0.7017(4) 0.4690(4)
C8J C 0.5080(5) 0.6041(5) 0.4881(4)
H5J H 0.5280 0.5756 0.4676
C9J C 0.3710(6) 0.7562(5) 0.4798(6)
H6J H 0.3940 0.7777 0.5051
C10J C 0.4623(4) 0.6308(5) 0.4637(4)
H7J H 0.4496 0.6198 0.4271
C12J C 0.4346(4) 0.6741(3) 0.4929(3)
C13J C 0.3226(6) 0.7822(5) 0.4538(6)
H8J H 0.3151 0.8213 0.4604
O1J O 0.2244(3) 0.8291(3) 0.4068(3)
O3J O 0.2133(4) 0.7530(3) 0.3550(4)
C11J C 0.2395(5) 0.7780(4) 0.3938(4)
C1K C 0.5705(4) 0.5008(4) 0.6619(4)
H1K H 0.6065 0.5148 0.6737
C2K C 0.4207(4) 0.2882(5) 0.7527(4)
C3K C 0.5439(4) 0.5254(4) 0.6191(4)
C4K C 0.5468(4) 0.4552(5) 0.6898(5)
H2K H 0.5670 0.4375 0.7199
C5K C 0.4097(6) 0.3009(5) 0.6956(4)
H3K H 0.3859 0.2765 0.6739
C6K C 0.4325(5) 0.3477(5) 0.6710(4)
H4K H 0.4238 0.3561 0.6325
C7K C 0.4690(4) 0.3843(4) 0.7017(4)
C8K C 0.4881(4) 0.5080(5) 0.6041(5)
H5K H 0.4676 0.5280 0.5756
C9K C 0.4798(6) 0.3710(6) 0.7562(5)
H6K H 0.5051 0.3940 0.7777
C10K C 0.4637(4) 0.4623(4) 0.6308(5)
H7K H 0.4271 0.4496 0.6198
C12K C 0.4929(3) 0.4346(4) 0.6741(3)
C13K C 0.4538(6) 0.3226(6) 0.7822(5)
H8K H 0.4604 0.3151 0.8213
O1K O 0.4068(3) 0.2244(3) 0.8291(3)
O3K O 0.3550(4) 0.2133(4) 0.7530(3)
C11K C 0.3938(4) 0.2395(5) 0.7780(4)
In1Z In 0.83285(2) 0.33285(2) 0.16715(2)
In1CA In 0.16715(2) 0.83285(2) 0.33285(2)
In1FA In 0.33285(2) 0.16715(2) 0.83285(2)
O1Z O 0.6709(3) 0.5932(3) 0.7244(3)
O1KA O 0.7244(3) 0.6709(3) 0.5932(3)
O1LA O 0.5932(3) 0.7244(3) 0.6709(3)
O3Z O 0.7470(3) 0.6450(4) 0.7133(4)
O3KA O 0.7133(4) 0.7470(3) 0.6450(4)
O3LA O 0.6450(4) 0.7133(4) 0.7470(3)
loop_
_geom_bond_atom_site_label_1
_geom_bond_atom_site_label_2
_geom_bond_site_symmetry_1
_geom_bond_site_symmetry_2
In1 O2 1_555 1_555
P1 O2 1_555 1_555
O1 C11 1_555 1_555
C1 H1 1_555 1_555
C2 C5 1_555 1_555
C3 P1 1_555 1_555
C4 C1 1_555 1_555
H2 C4 1_555 1_555
C5 H3 1_555 1_555
C6 C5 1_555 1_555
H4 C6 1_555 1_555
C7 C6 1_555 1_555
C8 C3 1_555 1_555
H5 C8 1_555 1_555
O3 C11 1_555 1_555
C9 C7 1_555 1_555
H6 C9 1_555 1_555
C10 C8 1_555 1_555
H7 C10 1_555 1_555
C11 C2 1_555 1_555
C12 C4 1_555 1_555
C13 C2 1_555 1_555
H8 C13 1_555 1_555
C1J H1J 1_555 1_555
C2J C5J 1_555 1_555
C3J P1 1_555 1_555
C4J C1J 1_555 1_555
H2J C4J 1_555 1_555
C5J H3J 1_555 1_555
C6J C5J 1_555 1_555
H4J C6J 1_555 1_555
C7J C6J 1_555 1_555
C8J C3J 1_555 1_555
H5J C8J 1_555 1_555
C9J C7J 1_555 1_555
H6J C9J 1_555 1_555
C10J C8J 1_555 1_555
H7J C10J 1_555 1_555
C12J C4J 1_555 1_555
C13J C2J 1_555 1_555
H8J C13J 1_555 1_555
O1J C11J 1_555 1_555
O3J C11J 1_555 1_555
C11J C2J 1_555 1_555
C1K H1K 1_555 1_555
C2K C5K 1_555 1_555
C3K P1 1_555 1_555
C4K C1K 1_555 1_555
H2K C4K 1_555 1_555
C5K H3K 1_555 1_555
C6K C5K 1_555 1_555
H4K C6K 1_555 1_555
C7K C6K 1_555 1_555
C8K C3K 1_555 1_555
H5K C8K 1_555 1_555
C9K C7K 1_555 1_555
H6K C9K 1_555 1_555
C10K C8K 1_555 1_555
H7K C10K 1_555 1_555
C12K C4K 1_555 1_555
C13K C2K 1_555 1_555
H8K C13K 1_555 1_555
O1K C11K 1_555 1_555
O3K C11K 1_555 1_555
C11K C2K 1_555 1_555
In1Z O1 1_555 1_555
In1CA O1J 1_555 1_555
In1FA O1K 1_555 1_555
O1Z In1 1_555 1_555
O1KA In1 1_555 1_555
O1LA In1 1_555 1_555
O3Z In1 1_555 1_555
O3KA In1 1_555 1_555
O3LA In1 1_555 1_555
C1 C3 1_555 1_555
C7 C12 1_555 1_555
O3 In1Z 1_555 1_555
C9 C13 1_555 1_555
C10 C12 1_555 1_555
C1J C3J 1_555 1_555
C7J C12J 1_555 1_555
C9J C13J 1_555 1_555
C10J C12J 1_555 1_555
O3J In1CA 1_555 1_555
C1K C3K 1_555 1_555
C7K C12K 1_555 1_555
C9K C13K 1_555 1_555
C10K C12K 1_555 1_555
O3K In1FA 1_555 1_555

#END
