
#######################################################################
#
#                 Cambridge Crystallographic Data Centre
#                                CCDC 
#
#######################################################################
#
# If this CIF has been generated from an entry in the Cambridge 
# Structural Database, then it will include bibliographic, chemical, 
# crystal, experimental, refinement or atomic coordinate data resulting 
# from the CCDC's data processing and validation procedures.
#
#######################################################################

data_WUMLAS
_symmetry_cell_setting           monoclinic
_symmetry_space_group_name_H-M   'C 2/c'
_symmetry_Int_Tables_number      15
_space_group_name_Hall           '-C 2yn'
loop_
_symmetry_equiv_pos_site_id
_symmetry_equiv_pos_as_xyz
1 x,y,z
2 -x,y,1/2-z
3 1/2+x,1/2+y,z
4 1/2-x,1/2+y,1/2-z
5 -x,-y,-z
6 x,-y,1/2+z
7 1/2-x,1/2-y,-z
8 1/2+x,1/2-y,1/2+z
_cell_length_a                   16.1223(10)
_cell_length_b                   12.5847(8)
_cell_length_c                   16.0559(10)
_cell_angle_alpha                90
_cell_angle_beta                 118.3930(10)
_cell_angle_gamma                90
_cell_volume                     2865.78
loop_
_atom_site_label
_atom_site_type_symbol
_atom_site_fract_x
_atom_site_fract_y
_atom_site_fract_z
Cu1 Cu 0.66572(4) 0.71594(5) 0.45387(4)
I1 I 0.78537(2) 0.67651(2) 0.39102(2)
N1 N 0.6042(3) 0.5706(3) 0.4511(3)
N2 N 0.4705(3) 0.4757(3) 0.3795(2)
N3 N 0.5248(3) 0.7468(3) 0.3480(3)
C1 C 0.6235(3) 0.4672(4) 0.4838(3)
C2 C 0.7084(3) 0.4209(4) 0.5484(3)
H1 H 0.7650 0.4612 0.5782
C3 C 0.7071(4) 0.3146(4) 0.5675(4)
H2 H 0.7639 0.2812 0.6119
C4 C 0.6238(4) 0.2539(4) 0.5229(4)
H3 H 0.6260 0.1804 0.5375
C5 C 0.5390(4) 0.2986(4) 0.4584(3)
H4 H 0.4826 0.2580 0.4287
C6 C 0.5404(3) 0.4070(4) 0.4393(3)
C7 C 0.3728(3) 0.4477(4) 0.3144(3)
H5 H 0.3325 0.5114 0.3017
H6 H 0.3509 0.3935 0.3443
C8 C 0.3622(4) 0.4049(5) 0.2220(4)
H7 H 0.3830 0.4588 0.1919
H8 H 0.2959 0.3873 0.1800
H9 H 0.4008 0.3408 0.2342
C9 C 0.5130(3) 0.5720(3) 0.3886(3)
C10 C 0.4697(3) 0.6680(3) 0.3351(3)
H10 H 0.4040 0.6721 0.2927
C11 C 0.4836(3) 0.8411(3) 0.2884(3)
H11 H 0.4133 0.8371 0.2574
C12 C 0.5178(4) 0.9416(4) 0.3491(3)
H12 H 0.4933 0.9423 0.3951
H13 H 0.5875 0.9411 0.3851
C13 C 0.4849(4) 1.0419(4) 0.2880(4)
H14 H 0.4153 1.0467 0.2578
H15 H 0.5115 1.1052 0.3288
Cu1A Cu 0.33428(4) 0.71594(5) 0.04613(4)
Cu1F Cu 0.83428(4) 0.78406(5) 0.54613(4)
Cu1G Cu 0.16572(4) 0.78406(5) -0.04613(4)
I1A I 0.21463(2) 0.67651(2) 0.10898(2)
I1F I 0.71463(2) 0.82349(2) 0.60898(2)
I1G I 0.28537(2) 0.82349(2) -0.10898(2)
N1A N 0.3958(3) 0.5706(3) 0.0489(3)
N2A N 0.5295(3) 0.4757(3) 0.1205(2)
N3A N 0.4752(3) 0.7468(3) 0.1520(3)
C1A C 0.3765(3) 0.4672(4) 0.0162(3)
C2A C 0.2916(3) 0.4209(4) -0.0484(3)
H1A H 0.2350 0.4612 -0.0782
C3A C 0.2929(4) 0.3146(4) -0.0675(4)
H2A H 0.2361 0.2812 -0.1119
C4A C 0.3762(4) 0.2539(4) -0.0229(4)
H3A H 0.3740 0.1804 -0.0375
C5A C 0.4610(4) 0.2986(4) 0.0416(3)
H4A H 0.5174 0.2580 0.0713
C6A C 0.4596(3) 0.4070(4) 0.0607(3)
C7A C 0.6272(3) 0.4477(4) 0.1856(3)
H5A H 0.6675 0.5114 0.1983
H6A H 0.6491 0.3935 0.1557
C8A C 0.6378(4) 0.4049(5) 0.2780(4)
H7A H 0.6170 0.4588 0.3081
H8A H 0.7041 0.3873 0.3200
H9A H 0.5992 0.3408 0.2658
C9A C 0.4870(3) 0.5720(3) 0.1114(3)
C10A C 0.5303(3) 0.6680(3) 0.1649(3)
H10A H 0.5960 0.6721 0.2073
C11A C 0.5164(3) 0.8411(3) 0.2116(3)
H11A H 0.5867 0.8371 0.2426
C12A C 0.4822(4) 0.9416(4) 0.1509(3)
H12A H 0.5067 0.9423 0.1049
H13A H 0.4125 0.9411 0.1149
C13A C 0.5151(4) 1.0419(4) 0.2120(4)
H14A H 0.5847 1.0467 0.2422
H15A H 0.4885 1.1052 0.1712
loop_
_geom_bond_atom_site_label_1
_geom_bond_atom_site_label_2
_geom_bond_site_symmetry_1
_geom_bond_site_symmetry_2
Cu1 I1 1_555 1_555
I1 Cu1F 1_555 1_555
N1 Cu1 1_555 1_555
N2 C6 1_555 1_555
N3 Cu1 1_555 1_555
C1 N1 1_555 1_555
C2 C1 1_555 1_555
H1 C2 1_555 1_555
C3 C2 1_555 1_555
H2 C3 1_555 1_555
C4 C3 1_555 1_555
H3 C4 1_555 1_555
C5 C4 1_555 1_555
H4 C5 1_555 1_555
C6 C1 1_555 1_555
C7 N2 1_555 1_555
H5 C7 1_555 1_555
H6 C7 1_555 1_555
C8 C7 1_555 1_555
H7 C8 1_555 1_555
H8 C8 1_555 1_555
H9 C8 1_555 1_555
C9 N1 1_555 1_555
C10 N3 1_555 1_555
H10 C10 1_555 1_555
C11 N3 1_555 1_555
H11 C11 1_555 1_555
C12 C11 1_555 1_555
H12 C12 1_555 1_555
H13 C12 1_555 1_555
C13 C12 1_555 1_555
H14 C13 1_555 1_555
H15 C13 1_555 1_555
Cu1A Cu1G 1_555 1_555
Cu1F Cu1 1_555 1_555
Cu1G I1A 1_555 1_555
I1A Cu1A 1_555 1_555
I1F Cu1 1_555 1_555
I1G Cu1A 1_555 1_555
N1A Cu1A 1_555 1_555
N2A C6A 1_555 1_555
N3A Cu1A 1_555 1_555
C1A N1A 1_555 1_555
C2A C1A 1_555 1_555
H1A C2A 1_555 1_555
C3A C2A 1_555 1_555
H2A C3A 1_555 1_555
C4A C3A 1_555 1_555
H3A C4A 1_555 1_555
C5A C4A 1_555 1_555
H4A C5A 1_555 1_555
C6A C1A 1_555 1_555
C7A N2A 1_555 1_555
H5A C7A 1_555 1_555
H6A C7A 1_555 1_555
C8A C7A 1_555 1_555
H7A C8A 1_555 1_555
H8A C8A 1_555 1_555
H9A C8A 1_555 1_555
C9A N1A 1_555 1_555
C10A N3A 1_555 1_555
H10A C10A 1_555 1_555
C11A C11 1_555 1_555
H11A C11A 1_555 1_555
C12A C11A 1_555 1_555
H12A C12A 1_555 1_555
H13A C12A 1_555 1_555
C13A C13 1_555 1_555
H14A C13A 1_555 1_555
H15A C13A 1_555 1_555
N2 C9 1_555 1_555
C5 C6 1_555 1_555
C9 C10 1_555 1_555
Cu1F I1F 1_555 1_555
Cu1G I1G 1_555 1_555
N2A C9A 1_555 1_555
N3A C11A 1_555 1_555
C5A C6A 1_555 1_555
C9A C10A 1_555 1_555
C12A C13A 1_555 1_555

#END
