
#######################################################################
#
#                 Cambridge Crystallographic Data Centre
#                                CCDC 
#
#######################################################################
#
# If this CIF has been generated from an entry in the Cambridge 
# Structural Database, then it will include bibliographic, chemical, 
# crystal, experimental, refinement or atomic coordinate data resulting 
# from the CCDC's data processing and validation procedures.
#
#######################################################################

data_WUMRED
_symmetry_cell_setting           monoclinic
_symmetry_space_group_name_H-M   'P 21/c'
_symmetry_Int_Tables_number      14
_space_group_name_Hall           '-P 2ybc'
loop_
_symmetry_equiv_pos_site_id
_symmetry_equiv_pos_as_xyz
1 x,y,z
2 -x,1/2+y,1/2-z
3 -x,-y,-z
4 x,1/2-y,1/2+z
_cell_length_a                   9.4897(7)
_cell_length_b                   28.513(2)
_cell_length_c                   12.5522(10)
_cell_angle_alpha                90
_cell_angle_beta                 105.7570(10)
_cell_angle_gamma                90
_cell_volume                     3268.74
loop_
_atom_site_label
_atom_site_type_symbol
_atom_site_fract_x
_atom_site_fract_y
_atom_site_fract_z
Cd1 Cd 0.50633(3) 0.908884(7) 0.697061(18)
Cd2 Cd 0.92065(3) 0.928658(7) 0.749181(18)
O1 O 0.5657(3) 0.86739(8) 0.5313(2)
O2 O 0.6795(2) 0.93167(7) 0.60867(17)
O3 O 1.0431(3) 0.99556(8) 0.28297(19)
O4 O 0.9095(2) 1.03237(7) 0.37522(19)
O5 O 0.3729(3) 0.94618(8) 0.82804(19)
O6 O 0.5110(3) 0.98641(8) 0.7466(2)
O7 O 0.1391(3) 1.03590(8) 1.09215(19)
O8 O 0.2544(2) 1.10092(7) 1.16182(17)
O9 O 0.8002(4) 0.79064(10) 0.2646(3)
O10 O 0.9394(4) 0.82947(10) 0.1916(3)
O11 O 0.5025(4) 1.18872(9) 0.9295(2)
O12 O 0.5978(4) 1.15129(9) 0.8178(3)
O13 O 0.3022(2) 0.92560(7) 0.55354(18)
H1 H 0.3221 0.9329 0.4936
H2 H 0.2438 0.9440 0.5737
O14 O 1.1372(3) 0.91226(8) 0.88141(19)
H3 H 1.2060 0.9276 0.8661
H4 H 1.1239 0.9169 0.9449
N1 N 0.9606(3) 0.86054(8) 0.6699(2)
N2 N 1.0469(3) 0.80859(8) 0.5739(2)
N3 N 1.1092(4) 0.74364(10) 0.4871(3)
N4 N 1.1823(4) 0.72186(10) 0.4224(3)
N5 N 1.3455(3) 0.72012(8) 0.3169(2)
N6 N 1.4342(3) 0.66091(8) 0.2433(2)
N7 N 0.8614(4) 0.82622(10) 0.2527(2)
N8 N 0.5229(3) 1.15300(10) 0.8828(2)
C1 C 0.6526(3) 0.89988(10) 0.5336(2)
C2 C 0.7354(3) 0.90343(10) 0.4473(2)
C3 C 0.7996(3) 0.94556(10) 0.4313(2)
H5 H 0.7858 0.9719 0.4711
C4 C 0.8842(3) 0.94925(10) 0.3567(2)
C5 C 0.9490(3) 0.99563(11) 0.3383(2)
C6 C 0.9058(3) 0.90957(10) 0.2982(2)
H6 H 0.9639 0.9109 0.2494
C7 C 0.8393(3) 0.86836(10) 0.3145(2)
C8 C 0.7532(3) 0.86425(10) 0.3874(2)
H7 H 0.7087 0.8359 0.3957
C9 C 0.4285(3) 0.98408(11) 0.8103(2)
C10 C 0.4041(3) 1.02831(10) 0.8679(2)
C11 C 0.3200(3) 1.02856(10) 0.9436(2)
H8 H 0.2732 1.0012 0.9557
C12 C 0.3055(3) 1.06908(10) 1.0013(2)
C13 C 0.2263(4) 1.06806(11) 1.0901(2)
C14 C 0.3731(3) 1.11038(11) 0.9822(2)
H9 H 0.3644 1.1378 1.0200
C15 C 0.4537(3) 1.10945(10) 0.9054(2)
C16 C 0.4714(3) 1.06943(11) 0.8489(2)
H10 H 0.5277 1.0700 0.7987
C17 C 1.0437(3) 0.85419(10) 0.6028(2)
H11 H 1.0940 0.8780 0.5783
C18 C 0.9092(4) 0.81654(11) 0.6858(3)
H12 H 0.8480 0.8100 0.7305
C19 C 0.9602(4) 0.78459(11) 0.6275(3)
H13 H 0.9408 0.7526 0.6239
C20 C 1.1286(4) 0.78891(11) 0.5036(3)
C21 C 1.2194(4) 0.81574(12) 0.4611(3)
H14 H 1.2301 0.8477 0.4756
C22 C 1.2937(4) 0.79384(12) 0.3964(3)
H15 H 1.3567 0.8101 0.3643
C23 C 1.2709(4) 0.74626(11) 0.3808(3)
C24 C 1.4354(5) 0.73826(12) 0.2571(4)
H16 H 1.4558 0.7698 0.2493
C25 C 1.4870(5) 0.70200(12) 0.2128(3)
H17 H 1.5498 0.7042 0.1676
C26 C 1.3488(3) 0.67325(10) 0.3061(3)
H18 H 1.2977 0.6523 0.3385
Cd1B Cd 0.49367(3) 1.091116(7) 1.302939(18)
Cd1C Cd 1.50633(3) 0.591116(7) 0.197061(18)
Cd2B Cd 0.07935(3) 1.071342(7) 1.250819(18)
Cd2B_2 Cd 1.07935(3) 1.071342(7) 0.250819(18)
O3B O 0.9569(3) 1.00444(8) 0.71703(19)
O4B O 1.0905(2) 0.96763(7) 0.62478(19)
O7B O 0.8609(3) 0.96410(8) 0.90785(19)
O8B O 0.7456(2) 0.89908(7) 0.83818(17)
N6C N 0.4342(3) 0.83909(8) 0.7433(2)
O15 O 0.1335(4) 0.93145(10) 0.0939(2)
H19 H 0.1999 0.9242 0.1521
H20 H 0.1231 0.9610 0.0972
O16 O 0.6833(3) 0.04874(9) 0.6541(2)
H21 H 0.6208 0.0277 0.6568
H22 H 0.7660 0.0353 0.6773
loop_
_geom_bond_atom_site_label_1
_geom_bond_atom_site_label_2
_geom_bond_site_symmetry_1
_geom_bond_site_symmetry_2
Cd1 O1 1_555 1_555
Cd2 O2 1_555 1_555
O1 C1 1_555 1_555
O2 Cd1 1_555 1_555
O3 C5 1_555 1_555
O4 C5 1_555 1_555
O5 Cd1 1_555 1_555
O6 Cd1 1_555 1_555
O7 C13 1_555 1_555
O8 C13 1_555 1_555
O9 N7 1_555 1_555
O10 N7 1_555 1_555
O11 N8 1_555 1_555
O12 N8 1_555 1_555
O13 Cd1 1_555 1_555
H1 O13 1_555 1_555
H2 O13 1_555 1_555
O14 Cd2 1_555 1_555
H3 O14 1_555 1_555
H4 O14 1_555 1_555
N1 Cd2 1_555 1_555
N2 C17 1_555 1_555
N3 N4 1_555 1_555
N4 C23 1_555 1_555
N5 C23 1_555 1_555
N6 C25 1_555 1_555
N7 C7 1_555 1_555
N8 C15 1_555 1_555
C1 O2 1_555 1_555
C2 C1 1_555 1_555
C3 C2 1_555 1_555
H5 C3 1_555 1_555
C4 C3 1_555 1_555
C5 C4 1_555 1_555
C6 C4 1_555 1_555
H6 C6 1_555 1_555
C7 C6 1_555 1_555
C8 C2 1_555 1_555
H7 C8 1_555 1_555
C9 O5 1_555 1_555
C10 C9 1_555 1_555
C11 C10 1_555 1_555
H8 C11 1_555 1_555
C12 C11 1_555 1_555
C13 C12 1_555 1_555
C14 C12 1_555 1_555
H9 C14 1_555 1_555
C15 C14 1_555 1_555
C16 C10 1_555 1_555
H10 C16 1_555 1_555
C17 N1 1_555 1_555
H11 C17 1_555 1_555
C18 N1 1_555 1_555
H12 C18 1_555 1_555
C19 N2 1_555 1_555
H13 C19 1_555 1_555
C20 N2 1_555 1_555
C21 C20 1_555 1_555
H14 C21 1_555 1_555
C22 C21 1_555 1_555
H15 C22 1_555 1_555
C23 C22 1_555 1_555
C24 N5 1_555 1_555
H16 C24 1_555 1_555
C25 C24 1_555 1_555
H17 C25 1_555 1_555
C26 N5 1_555 1_555
H18 C26 1_555 1_555
O15 H19 1_555 1_555
H20 O15 1_555 1_555
O16 H21 1_555 1_555
H22 O16 1_555 1_555
Cd1B O8 1_555 1_555
Cd1C N6 1_555 1_555
Cd2B O7 1_555 1_555
Cd2B_2 O3 1_555 1_555
O3B Cd2 1_555 1_555
O4B Cd2 1_555 1_555
O7B Cd2 1_555 1_555
O8B Cd1 1_555 1_555
N6C Cd1 1_555 1_555
Cd2 O8B 1_555 1_555
O4 Cd2B_2 1_555 1_555
O6 C9 1_555 1_555
O8 Cd2B 1_555 1_555
N3 C20 1_555 1_555
N6 C26 1_555 1_555
C7 C8 1_555 1_555
C15 C16 1_555 1_555
C18 C19 1_555 1_555

#END
