
#######################################################################
#
#                 Cambridge Crystallographic Data Centre
#                                CCDC 
#
#######################################################################
#
# If this CIF has been generated from an entry in the Cambridge 
# Structural Database, then it will include bibliographic, chemical, 
# crystal, experimental, refinement or atomic coordinate data resulting 
# from the CCDC's data processing and validation procedures.
#
#######################################################################

data_WUMSAA
_symmetry_cell_setting           triclinic
_symmetry_space_group_name_H-M   'P -1'
_symmetry_Int_Tables_number      2
_space_group_name_Hall           '-P 1'
loop_
_symmetry_equiv_pos_site_id
_symmetry_equiv_pos_as_xyz
1 x,y,z
2 -x,-y,-z
_cell_length_a                   7.4671(11)
_cell_length_b                   11.6830(17)
_cell_length_c                   12.4412(18)
_cell_angle_alpha                102.294(2)
_cell_angle_beta                 95.818(2)
_cell_angle_gamma                101.236(2)
_cell_volume                     1028.51
loop_
_atom_site_label
_atom_site_type_symbol
_atom_site_fract_x
_atom_site_fract_y
_atom_site_fract_z
Ni1 Ni 0.0000 1.0000 1.0000
Cl1 Cl 0.31318(8) 1.07426(6) 1.11655(5)
N1 N 0.1163(3) 1.05214(18) 0.86579(16)
N2 N 0.3150(3) 1.11107(19) 0.75846(16)
N3 N 0.0551(3) 0.82916(18) 0.95457(16)
N4 N 0.1967(3) 0.68477(18) 0.89336(17)
C1 C 0.2904(3) 1.0744(2) 0.85168(19)
H1 H 0.3861 1.0655 0.9011
C2 C 0.0246(4) 1.0780(3) 0.7770(2)
H2 H -0.1023 1.0714 0.7640
C3 C 0.1454(4) 1.1148(3) 0.7105(3)
H3 H 0.1175 1.1380 0.6449
C4 C 0.4914(4) 1.1450(3) 0.7190(2)
H4 H 0.5903 1.1358 0.7712
H5 H 0.5128 1.2289 0.7166
C5 C 0.4964(3) 1.0697(2) 0.6049(2)
C6 C 0.4433(4) 1.1059(2) 0.5110(2)
H6 H 0.4039 1.1776 0.5179
C7 C 0.4475(4) 1.0371(3) 0.4061(2)
H7 H 0.4124 1.0632 0.3431
C8 C 0.2086(3) 0.8036(2) 0.92217(19)
H8 H 0.3125 0.8611 0.9196
C9 C -0.0594(4) 0.7199(2) 0.9474(2)
H9 H -0.1784 0.7089 0.9655
C10 C 0.0261(4) 0.6304(2) 0.9103(2)
H10 H -0.0216 0.5483 0.8986
C11 C 0.3421(4) 0.6274(2) 0.8511(2)
H11 H 0.4415 0.6885 0.8395
H12 H 0.2924 0.5720 0.7797
C12 C 0.4377(4) 0.5996(3) 1.0424(2)
H13 H 0.3959 0.6676 1.0727
C13 C 0.4189(3) 0.5601(2) 0.9292(2)
C14 C 0.4825(4) 0.4596(3) 0.8873(2)
H14 H 0.4718 0.4309 0.8107
N1A N 0.8837(3) 0.94786(18) 0.13421(16)
N2A N 0.6850(3) 0.88893(19) 0.24154(16)
C1A C 0.7096(3) 0.9256(2) 0.14832(19)
H1A H 0.6139 0.9345 0.0989
C2A C 0.9754(4) 0.9220(3) 0.2230(2)
H2A H 1.1023 0.9286 0.2360
C3A C 0.8546(4) 0.8852(3) 0.2895(3)
H3A H 0.8825 0.8620 0.3551
C4A C 0.5086(4) 0.8550(3) 0.2810(2)
H4A H 0.4097 0.8642 0.2288
H5A H 0.4872 0.7711 0.2834
C5A C 0.5036(3) 0.9303(2) 0.3951(2)
C6A C 0.5567(4) 0.8941(2) 0.4890(2)
H6A H 0.5961 0.8224 0.4821
C7A C 0.5525(4) 0.9629(3) 0.5939(2)
H7A H 0.5876 0.9368 0.6569
N3A N 0.9449(3) 0.17084(18) 1.04543(16)
N4A N 0.8033(3) 0.31523(18) 1.10664(17)
C8A C 0.7914(3) 0.1964(2) 1.07783(19)
H8A H 0.6875 0.1389 1.0804
C9A C 1.0594(4) 0.2801(2) 1.0526(2)
H9A H 1.1784 0.2911 1.0345
C10A C 0.9739(4) 0.3696(2) 1.0897(2)
H10A H 1.0216 0.4517 1.1014
C11A C 0.6579(4) 0.3726(2) 1.1489(2)
H11A H 0.5585 0.3115 1.1605
H12A H 0.7076 0.4280 1.2203
C12A C 0.5623(4) 0.4004(3) 0.9576(2)
H13A H 0.6041 0.3324 0.9273
C13A C 0.5811(3) 0.4399(2) 1.0708(2)
C14A C 0.5175(4) 0.5404(3) 1.1127(2)
H14A H 0.5282 0.5691 1.1893
Cl1A Cl -0.31318(8) 0.92574(6) 0.88345(5)
Ni1_2 Ni 1.0000 0.0000 1.0000
Ni1_3 Ni 1.0000 1.0000 0.0000
N1A_2 N -0.1163(3) 0.94786(18) 1.13421(16)
N3A_2 N -0.0551(3) 1.17084(18) 1.04543(16)
O1 O 0.2885(4) 0.4091(3) 0.6042(2)
N5 N 0.1904(4) 0.3238(3) 0.4202(2)
N6 N -0.0096(5) 0.3187(3) 0.5345(3)
C15 C 0.1675(5) 0.3577(3) 0.5266(3)
C16 C 0.0270(6) 0.2605(5) 0.3507(4)
H15 H 0.0364 0.1799 0.3153
H16 H -0.0035 0.3017 0.2937
C17 C -0.1142(6) 0.2576(6) 0.4286(4)
H17 H -0.2090 0.2987 0.4085
H18 H -0.1721 0.1755 0.4281
C18 C 0.3581(5) 0.3554(3) 0.3771(3)
H19 H 0.3505 0.4182 0.3391
H20 H 0.3773 0.2863 0.3259
H21 H 0.4593 0.3830 0.4371
C19 C -0.0884(7) 0.3470(4) 0.6333(4)
H22 H -0.1588 0.2747 0.6466
H23 H -0.1679 0.4010 0.6252
H24 H 0.0081 0.3845 0.6950
loop_
_geom_bond_atom_site_label_1
_geom_bond_atom_site_label_2
_geom_bond_site_symmetry_1
_geom_bond_site_symmetry_2
Ni1 Cl1 1_555 1_555
N1 Ni1 1_555 1_555
N2 C1 1_555 1_555
N3 Ni1 1_555 1_555
N4 C8 1_555 1_555
C1 N1 1_555 1_555
H1 C1 1_555 1_555
C2 N1 1_555 1_555
H2 C2 1_555 1_555
C3 N2 1_555 1_555
H3 C3 1_555 1_555
C4 N2 1_555 1_555
H4 C4 1_555 1_555
H5 C4 1_555 1_555
C5 C4 1_555 1_555
C6 C5 1_555 1_555
H6 C6 1_555 1_555
C7 C6 1_555 1_555
H7 C7 1_555 1_555
C8 N3 1_555 1_555
H8 C8 1_555 1_555
C9 N3 1_555 1_555
H9 C9 1_555 1_555
C10 N4 1_555 1_555
H10 C10 1_555 1_555
C11 N4 1_555 1_555
H11 C11 1_555 1_555
H12 C11 1_555 1_555
C12 H13 1_555 1_555
C13 C11 1_555 1_555
C14 C13 1_555 1_555
H14 C14 1_555 1_555
O1 C15 1_555 1_555
N5 C15 1_555 1_555
N6 C15 1_555 1_555
C16 N5 1_555 1_555
H15 C16 1_555 1_555
H16 C16 1_555 1_555
C17 N6 1_555 1_555
H17 C17 1_555 1_555
H18 C17 1_555 1_555
C18 N5 1_555 1_555
H19 C18 1_555 1_555
H20 C18 1_555 1_555
H21 C18 1_555 1_555
C19 N6 1_555 1_555
H22 C19 1_555 1_555
H23 C19 1_555 1_555
H24 C19 1_555 1_555
N1A C1A 1_555 1_555
N2A C1A 1_555 1_555
C1A H1A 1_555 1_555
C2A N1A 1_555 1_555
H2A C2A 1_555 1_555
C3A N2A 1_555 1_555
H3A C3A 1_555 1_555
C4A N2A 1_555 1_555
H4A C4A 1_555 1_555
H5A C4A 1_555 1_555
C5A C7 1_555 1_555
C6A C5A 1_555 1_555
H6A C6A 1_555 1_555
C7A C5 1_555 1_555
H7A C7A 1_555 1_555
N3A C8A 1_555 1_555
N4A C8A 1_555 1_555
C8A H8A 1_555 1_555
C9A N3A 1_555 1_555
H9A C9A 1_555 1_555
C10A N4A 1_555 1_555
H10A C10A 1_555 1_555
C11A N4A 1_555 1_555
H11A C11A 1_555 1_555
H12A C11A 1_555 1_555
C12A C14 1_555 1_555
H13A C12A 1_555 1_555
C13A C11A 1_555 1_555
C14A C12 1_555 1_555
H14A C14A 1_555 1_555
Cl1A Ni1 1_555 1_555
Ni1_2 N3A 1_555 1_555
Ni1_3 N1A 1_555 1_555
N1A_2 Ni1 1_555 1_555
N3A_2 Ni1 1_555 1_555
C2 C3 1_555 1_555
C9 C10 1_555 1_555
C12 C13 1_555 1_555
C16 C17 1_555 1_555
C2A C3A 1_555 1_555
C4A C5A 1_555 1_555
C6A C7A 1_555 1_555
C9A C10A 1_555 1_555
C12A C13A 1_555 1_555
C13A C14A 1_555 1_555

#END
