
#######################################################################
#
#                 Cambridge Crystallographic Data Centre
#                                CCDC 
#
#######################################################################
#
# If this CIF has been generated from an entry in the Cambridge 
# Structural Database, then it will include bibliographic, chemical, 
# crystal, experimental, refinement or atomic coordinate data resulting 
# from the CCDC's data processing and validation procedures.
#
#######################################################################

data_WUNPIE
_symmetry_cell_setting           triclinic
_symmetry_space_group_name_H-M   'P -1'
_symmetry_Int_Tables_number      2
_space_group_name_Hall           '-P 1'
loop_
_symmetry_equiv_pos_site_id
_symmetry_equiv_pos_as_xyz
1 x,y,z
2 -x,-y,-z
_cell_length_a                   9.6668(11)
_cell_length_b                   11.7737(11)
_cell_length_c                   12.7155(10)
_cell_angle_alpha                61.447(12)
_cell_angle_beta                 71.340(10)
_cell_angle_gamma                78.96(2)
_cell_volume                     1203.07
loop_
_atom_site_label
_atom_site_type_symbol
_atom_site_fract_x
_atom_site_fract_y
_atom_site_fract_z
Cd1 Cd 1.0000 0.0000 1.0000
O1 O 0.98093(17) 0.05511(14) 0.80684(13)
N1 N 0.81302(18) -0.14848(16) 1.09256(15)
N2 N 0.5175(2) -0.44794(19) 1.30483(17)
N3 N 0.4099(2) -0.43044(19) 1.37900(18)
N4 N 0.1230(2) -0.73384(17) 1.60858(16)
N5 N 1.17872(17) -0.16230(15) 0.97880(15)
N6 N 1.46313(18) -0.47504(16) 0.96153(16)
C1 C 0.6948(2) -0.1381(2) 1.1791(2)
H1 H 0.6819 -0.0647 1.1916
C2 C 0.5914(2) -0.2306(2) 1.2504(2)
H2 H 0.5104 -0.2198 1.3090
C3 C 0.6117(2) -0.3404(2) 1.23214(19)
C4 C 0.7298(3) -0.3511(2) 1.1423(2)
H3 H 0.7437 -0.4227 1.1268
C5 C 0.8283(3) -0.2534(2) 1.0747(2)
H4 H 0.9087 -0.2614 1.0142
C6 C 0.3157(2) -0.5371(2) 1.45291(19)
C7 C 0.1974(3) -0.5227(2) 1.5416(2)
H5 H 0.1806 -0.4468 1.5503
C8 C 0.1040(2) -0.6234(2) 1.6177(2)
H6 H 0.0244 -0.6137 1.6779
C9 C 0.2367(3) -0.7452(2) 1.5204(2)
H7 H 0.2496 -0.8213 1.5124
C10 C 0.3365(3) -0.6504(2) 1.4403(2)
H8 H 0.4146 -0.6621 1.3803
C11 C 1.2562(3) -0.2283(2) 1.0631(2)
H9 H 1.2448 -0.2031 1.1246
C12 C 1.3514(3) -0.3311(2) 1.0629(2)
H10 H 1.4028 -0.3745 1.1230
C13 C 1.3692(2) -0.36875(18) 0.97119(18)
C14 C 1.2905(2) -0.30256(18) 0.88411(19)
H11 H 1.3000 -0.3264 0.8221
C15 C 1.1971(2) -0.19987(18) 0.89076(19)
H12 H 1.1447 -0.1549 0.8315
H17 H 1.021(3) 0.118(3) 0.749(3)
H18 H 0.916(3) 0.036(3) 0.791(3)
N6A N 1.53687(18) -0.52496(16) 1.03847(16)
C13A C 1.6308(2) -0.63125(18) 1.02881(18)
C12A C 1.6486(3) -0.6689(2) 0.9371(2)
C11A C 1.7438(3) -0.7717(2) 0.9369(2)
N5A N 1.82128(17) -0.83770(15) 1.02120(15)
C15A C 1.8029(2) -0.80013(18) 1.10924(19)
C14A C 1.7095(2) -0.69744(18) 1.11589(19)
H11A H 1.7000 -0.6736 1.1779
H12A H 1.8553 -0.8451 1.1685
H9A H 1.7552 -0.7969 0.8754
H10A H 1.5972 -0.6255 0.8770
O1A O 1.01907(17) -0.05511(14) 1.19316(13)
H17A H 0.979(3) -0.118(3) 1.251(3)
H18A H 1.084(3) -0.036(3) 1.209(3)
N1A N 1.18698(18) 0.14848(16) 0.90744(15)
N2A N 1.4825(2) 0.44794(19) 0.69517(17)
N3A N 1.5901(2) 0.43044(19) 0.62100(18)
N4A N 1.8770(2) 0.73384(17) 0.39142(16)
C1A C 1.3052(2) 0.1381(2) 0.8209(2)
H1A H 1.3181 0.0647 0.8084
C2A C 1.4086(2) 0.2306(2) 0.7496(2)
H2A H 1.4896 0.2198 0.6910
C3A C 1.3883(2) 0.3404(2) 0.76786(19)
C4A C 1.2702(3) 0.3511(2) 0.8577(2)
H3A H 1.2563 0.4227 0.8732
C5A C 1.1717(3) 0.2534(2) 0.9253(2)
H4A H 1.0913 0.2614 0.9858
C6A C 1.6843(2) 0.5371(2) 0.54709(19)
C7A C 1.8026(3) 0.5227(2) 0.4584(2)
H5A H 1.8194 0.4468 0.4497
C8A C 1.8960(2) 0.6234(2) 0.3823(2)
H6A H 1.9756 0.6137 0.3221
C9A C 1.7633(3) 0.7452(2) 0.4796(2)
H7A H 1.7504 0.8213 0.4876
C10A C 1.6635(3) 0.6504(2) 0.5597(2)
H8A H 1.5854 0.6621 0.6197
N5A_2 N 0.82128(17) 0.16230(15) 1.02120(15)
Cd1_2 Cd 2.0000 -1.0000 1.0000
N7 N 1.4523(2) -1.0390(2) 1.52328(19)
N8 N 1.2318(2) -1.03520(18) 1.28408(18)
C16 C 1.3820(2) -1.0321(2) 1.4356(2)
C17 C 1.4143(2) -0.9464(2) 1.3108(2)
H13 H 1.4865 -0.8870 1.2760
C18 C 1.3361(3) -0.9514(2) 1.2389(2)
H14 H 1.3573 -0.8935 1.1549
C19 C 1.2025(3) -1.1160(2) 1.4045(2)
H15 H 1.1296 -1.1743 1.4372
C20 C 1.2737(3) -1.1185(3) 1.4841(2)
H16 H 1.2493 -1.1768 1.5679
N7A N 1.5477(2) -0.9610(2) 1.47672(19)
C16A C 1.6180(2) -0.9679(2) 1.5644(2)
C17A C 1.5857(2) -1.0536(2) 1.6892(2)
H13A H 1.5135 -1.1130 1.7240
C18A C 1.6639(3) -1.0486(2) 1.7611(2)
N8A N 1.7682(2) -0.96480(18) 1.71592(18)
C19A C 1.7975(3) -0.8840(2) 1.5955(2)
H15A H 1.8704 -0.8257 1.5628
C20A C 1.7263(3) -0.8815(3) 1.5159(2)
H16A H 1.7507 -0.8232 1.4321
H14A H 1.6427 -1.1065 1.8451
P1 P 1.06799(8) -0.64828(7) 1.22968(7)
F1 F 1.2390(2) -0.6632(2) 1.1921(3)
F2 F 0.8928(2) -0.6338(2) 1.2694(2)
F3 F 1.0615(10) -0.7415(10) 1.1793(8)
F5 F 1.0902(7) -0.5682(8) 1.2925(11)
F8 F 1.0844(5) -0.7812(4) 1.3551(4)
F9 F 1.0693(6) -0.5295(7) 1.1103(7)
F4? F 1.0403(9) -0.7817(7) 1.2467(14)
F6? F 1.0685(6) -0.4970(6) 1.1887(9)
F7? F 1.0423(6) -0.6850(13) 1.3629(4)
F10? F 1.0657(12) -0.5987(11) 1.0891(7)
loop_
_geom_bond_atom_site_label_1
_geom_bond_atom_site_label_2
_geom_bond_site_symmetry_1
_geom_bond_site_symmetry_2
Cd1 O1 1_555 1_555
O1 H17 1_555 1_555
N1 Cd1 1_555 1_555
N2 N3 1_555 1_555
N3 C6 1_555 1_555
N4 C8 1_555 1_555
N5 Cd1 1_555 1_555
N6 C13 1_555 1_555
N7 C16 1_555 1_555
N8 C18 1_555 1_555
C1 N1 1_555 1_555
H1 C1 1_555 1_555
C2 C1 1_555 1_555
H2 C2 1_555 1_555
C3 N2 1_555 1_555
C4 C3 1_555 1_555
H3 C4 1_555 1_555
C5 N1 1_555 1_555
H4 C5 1_555 1_555
C6 C7 1_555 1_555
C7 H5 1_555 1_555
C8 C7 1_555 1_555
H6 C8 1_555 1_555
C9 N4 1_555 1_555
H7 C9 1_555 1_555
C10 C6 1_555 1_555
H8 C10 1_555 1_555
C11 N5 1_555 1_555
H9 C11 1_555 1_555
C12 C11 1_555 1_555
H10 C12 1_555 1_555
C13 C12 1_555 1_555
C14 C13 1_555 1_555
H11 C14 1_555 1_555
C15 N5 1_555 1_555
H12 C15 1_555 1_555
C16 C17 1_555 1_555
C17 H13 1_555 1_555
C18 C17 1_555 1_555
H14 C18 1_555 1_555
C19 N8 1_555 1_555
H15 C19 1_555 1_555
C20 C16 1_555 1_555
H16 C20 1_555 1_555
H18 O1 1_555 1_555
P1 F1 1_555 1_555
F2 P1 1_555 1_555
F3 P1 1_555 1_555
F5 P1 1_555 1_555
F8 P1 1_555 1_555
F9 P1 1_555 1_555
N6A N6 1_555 1_555
C13A N6A 1_555 1_555
C12A C13A 1_555 1_555
C11A C12A 1_555 1_555
N5A C11A 1_555 1_555
C15A N5A 1_555 1_555
C14A C13A 1_555 1_555
H11A C14A 1_555 1_555
H12A C15A 1_555 1_555
H9A C11A 1_555 1_555
H10A C12A 1_555 1_555
N7A N7 1_555 1_555
C16A N7A 1_555 1_555
C17A C16A 1_555 1_555
H13A C17A 1_555 1_555
C18A C17A 1_555 1_555
N8A C18A 1_555 1_555
C19A N8A 1_555 1_555
H15A C19A 1_555 1_555
C20A C16A 1_555 1_555
H16A C20A 1_555 1_555
H14A C18A 1_555 1_555
O1A Cd1 1_555 1_555
H17A O1A 1_555 1_555
H18A O1A 1_555 1_555
N1A Cd1 1_555 1_555
N2A N3A 1_555 1_555
N3A C6A 1_555 1_555
N4A C8A 1_555 1_555
C1A N1A 1_555 1_555
H1A C1A 1_555 1_555
C2A C1A 1_555 1_555
H2A C2A 1_555 1_555
C3A N2A 1_555 1_555
C4A C3A 1_555 1_555
H3A C4A 1_555 1_555
C5A N1A 1_555 1_555
H4A C5A 1_555 1_555
C6A C7A 1_555 1_555
C7A H5A 1_555 1_555
C8A C7A 1_555 1_555
H6A C8A 1_555 1_555
C9A N4A 1_555 1_555
H7A C9A 1_555 1_555
C10A C6A 1_555 1_555
H8A C10A 1_555 1_555
N5A_2 Cd1 1_555 1_555
Cd1_2 N5A 1_555 1_555
C2 C3 1_555 1_555
C4 C5 1_555 1_555
C9 C10 1_555 1_555
C14 C15 1_555 1_555
C19 C20 1_555 1_555
C15A C14A 1_555 1_555
C19A C20A 1_555 1_555
C2A C3A 1_555 1_555
C4A C5A 1_555 1_555
C9A C10A 1_555 1_555

#END
