
#######################################################################
#
#                 Cambridge Crystallographic Data Centre
#                                CCDC 
#
#######################################################################
#
# If this CIF has been generated from an entry in the Cambridge 
# Structural Database, then it will include bibliographic, chemical, 
# crystal, experimental, refinement or atomic coordinate data resulting 
# from the CCDC's data processing and validation procedures.
#
#######################################################################

data_WUNSII
_symmetry_cell_setting           tetragonal
_symmetry_space_group_name_H-M   'P 41 21 2'
_symmetry_Int_Tables_number      92
_space_group_name_Hall           'P 4abw 2nw'
loop_
_symmetry_equiv_pos_site_id
_symmetry_equiv_pos_as_xyz
1 x,y,z
2 -x,-y,1/2+z
3 1/2-y,1/2+x,1/4+z
4 1/2+y,1/2-x,3/4+z
5 1/2-x,1/2+y,1/4-z
6 1/2+x,1/2-y,3/4-z
7 y,x,-z
8 -y,-x,1/2-z
_cell_length_a                   15.916(3)
_cell_length_b                   15.916(3)
_cell_length_c                   21.495(7)
_cell_angle_alpha                90
_cell_angle_beta                 90
_cell_angle_gamma                90
_cell_volume                     5445.09
loop_
_atom_site_label
_atom_site_type_symbol
_atom_site_fract_x
_atom_site_fract_y
_atom_site_fract_z
C1 C 0.2551(5) 0.5362(5) 0.5347(4)
H1 H 0.2579 0.5029 0.5713
C2 C 0.1900(5) 0.5936(5) 0.5293(4)
H2 H 0.1500 0.5989 0.5619
C3 C 0.1832(5) 0.6428(5) 0.4770(3)
C4 C 0.2416(5) 0.6281(5) 0.4307(3)
H3 H 0.2384 0.6578 0.3924
C5 C 0.3051(4) 0.5695(5) 0.4404(3)
H4 H 0.3450 0.5609 0.4081
C6 C 0.1177(5) 0.7086(4) 0.4710(3)
C7 C 0.0440(5) 0.7076(5) 0.5081(4)
H5 H 0.0356 0.6638 0.5374
C8 C -0.0161(5) 0.7708(5) 0.5017(5)
H6 H -0.0662 0.7683 0.5256
C9 C -0.0041(5) 0.8364(5) 0.4614(4)
H7 H -0.0453 0.8793 0.4579
C10 C 0.0692(4) 0.8399(4) 0.4254(3)
C11 C 0.1282(4) 0.7760(4) 0.4301(3)
H8 H 0.1771 0.7781 0.4048
C12 C 0.0767(4) 0.9087(4) 0.3817(3)
C13 C 0.1278(4) 1.0051(4) 0.3194(3)
C14 C 0.1899(4) 1.0591(5) 0.2886(3)
C15 C 0.2211(5) 1.0415(5) 0.2298(3)
H9 H 0.2026 0.9934 0.2074
C16 C 0.2816(5) 1.0974(5) 0.2038(4)
H10 H 0.3014 1.0877 0.1628
C17 C 0.3117(5) 1.1645(5) 0.2364(3)
H11 H 0.3542 1.1991 0.2190
C18 C 0.2793(4) 1.1821(5) 0.2961(3)
C19 C 0.2181(4) 1.1292(5) 0.3207(3)
H12 H 0.1951 1.1414 0.3604
C20 C 0.3097(4) 1.2548(4) 0.3334(3)
C21 C 0.3850(4) 1.2972(5) 0.3201(3)
H13 H 0.4159 1.2839 0.2836
C22 C 0.4141(5) 1.3586(5) 0.3607(3)
H14 H 0.4648 1.3867 0.3503
C23 C 0.3005(5) 1.3442(5) 0.4234(4)
H15 H 0.2695 1.3617 0.4589
C24 C 0.2661(5) 1.2832(5) 0.3856(3)
H16 H 0.2125 1.2604 0.3952
Cd1 Cd -0.05908(3) 1.05908(3) 0.2500
N1 N 0.0130(3) 0.9459(4) 0.3552(2)
N2 N 0.0449(3) 1.0075(3) 0.3162(3)
N3 N 0.1498(3) 0.9447(4) 0.3601(2)
N4 N 0.2308(4) 0.9257(5) 0.3811(3)
H17 H 0.2622 0.9078 0.3483
H18 H 0.2547 0.9725 0.3978
N5 N 0.3760(4) 1.3803(4) 0.4125(3)
N6 N 0.3132(4) 0.5252(3) 0.4918(3)
C1G C 0.4638(5) 0.7449(5) -0.0347(4)
H1G H 0.4971 0.7421 -0.0713
C2G C 0.4064(5) 0.8100(5) -0.0293(4)
H2G H 0.4011 0.8500 -0.0619
C3G C 0.3572(5) 0.8168(5) 0.0230(3)
C4G C 0.3719(5) 0.7584(5) 0.0693(3)
H3G H 0.3422 0.7616 0.1076
C5G C 0.4305(5) 0.6949(4) 0.0596(3)
H4G H 0.4391 0.6550 0.0919
C6G C 0.2914(4) 0.8823(5) 0.0290(3)
C7G C 0.2924(5) 0.9560(5) -0.0081(4)
H5G H 0.3362 0.9644 -0.0374
C8G C 0.2292(5) 1.0161(5) -0.0017(5)
H6G H 0.2317 1.0662 -0.0256
C9G C 0.1636(5) 1.0041(5) 0.0386(4)
H7G H 0.1207 1.0453 0.0421
C10G C 0.1601(4) 0.9308(4) 0.0746(3)
C11G C 0.2240(4) 0.8718(4) 0.0699(3)
H8G H 0.2219 0.8229 0.0952
C12G C 0.0913(4) 0.9233(4) 0.1183(3)
C13G C -0.0051(4) 0.8722(4) 0.1806(3)
C14G C -0.0591(5) 0.8101(4) 0.2114(3)
C15G C -0.0415(5) 0.7789(5) 0.2702(3)
H9G H 0.0066 0.7974 0.2926
C16G C -0.0974(5) 0.7184(5) 0.2962(4)
H10G H -0.0877 0.6986 0.3372
C17G C -0.1645(5) 0.6883(5) 0.2636(3)
H11G H -0.1991 0.6458 0.2810
C18G C -0.1821(5) 0.7207(4) 0.2039(3)
C19G C -0.1292(5) 0.7819(4) 0.1793(3)
H12G H -0.1414 0.8049 0.1396
C20G C -0.2548(4) 0.6903(4) 0.1666(3)
C21G C -0.2972(5) 0.6150(4) 0.1799(3)
H13G H -0.2839 0.5841 0.2164
C22G C -0.3586(5) 0.5859(5) 0.1393(3)
H14G H -0.3867 0.5352 0.1497
C23G C -0.3442(5) 0.6995(5) 0.0766(4)
H15G H -0.3617 0.7305 0.0411
C24G C -0.2832(5) 0.7339(5) 0.1144(3)
H16G H -0.2604 0.7875 0.1048
Cd1B Cd 0.44092(3) 1.44092(3) 0.5000
Cd1B_2 Cd 0.44092(3) 0.44092(3) 0.5000
Cd1C Cd -0.44092(3) 0.55908(3) 0.0000
Cd1C_2 Cd 0.55908(3) 0.55908(3) 0.0000
N1G N 0.0541(4) 0.9870(3) 0.1448(2)
N2G N -0.0075(3) 0.9551(3) 0.1838(3)
N3G N 0.0553(4) 0.8502(3) 0.1399(2)
N4G N 0.0743(5) 0.7692(4) 0.1189(3)
H17G H 0.0922 0.7378 0.1517
H18G H 0.0275 0.7453 0.1022
N5G N -0.3803(4) 0.6240(4) 0.0875(3)
N5C N -0.1197(4) 1.1240(4) 0.1625(3)
N5E N -0.1240(4) 1.1197(4) 0.3375(3)
N6G N 0.4748(3) 0.6868(4) 0.0082(3)
N6C N 0.0252(3) 1.1868(4) 0.2418(3)
N6E N -0.1868(4) 0.9748(3) 0.2582(3)
Cl1 Cl 0.26780(15) 0.26780(15) 0.0000
O2 O 0.2213(15) 0.3450(11) 0.0199(9)
O3 O 0.2244(6) 0.2451(7) -0.0525(3)
O2F O 0.3450(11) 0.2213(15) -0.0199(9)
O3F O 0.2451(7) 0.2244(6) 0.0525(3)
Cl2 Cl 0.87736(16) 0.87736(16) 0.0000
O5 O 0.9022(9) 0.8206(10) -0.0511(7)
O8 O 0.8929(15) 0.9542(9) -0.0264(8)
O5F O 0.8206(10) 0.9022(9) 0.0511(7)
O8F O 0.9542(9) 0.8929(15) 0.0264(8)
H19 H 0.9391 0.5987 0.1321
H20 H 1.0053 0.5508 0.1050
O6 O 0.9726(17) 0.5927(15) 0.1016(13)
H21 H 0.1247 0.4032 0.0812
H22 H 0.0619 0.4645 0.0967
O7 O 0.0861(16) 0.4358(17) 0.0691(11)
O1? O 0.3294(6) 0.3294(6) 0.0000
O4? O 0.7922(10) 0.8659(15) 0.0041(11)
O9? O 0.9202(14) 0.8581(14) 0.0478(7)
loop_
_geom_bond_atom_site_label_1
_geom_bond_atom_site_label_2
_geom_bond_site_symmetry_1
_geom_bond_site_symmetry_2
C1 H1 1_555 1_555
C2 C1 1_555 1_555
H2 C2 1_555 1_555
C3 C2 1_555 1_555
C4 C3 1_555 1_555
H3 C4 1_555 1_555
C5 C4 1_555 1_555
H4 C5 1_555 1_555
C6 C3 1_555 1_555
C7 C6 1_555 1_555
H5 C7 1_555 1_555
C8 C7 1_555 1_555
H6 C8 1_555 1_555
C9 C8 1_555 1_555
H7 C9 1_555 1_555
C10 C9 1_555 1_555
C11 C6 1_555 1_555
H8 C11 1_555 1_555
C12 C10 1_555 1_555
C13 C14 1_555 1_555
C14 C15 1_555 1_555
C15 H9 1_555 1_555
C16 C15 1_555 1_555
H10 C16 1_555 1_555
C17 C16 1_555 1_555
H11 C17 1_555 1_555
C18 C17 1_555 1_555
C19 C14 1_555 1_555
H12 C19 1_555 1_555
C20 C18 1_555 1_555
C21 C20 1_555 1_555
H13 C21 1_555 1_555
C22 C21 1_555 1_555
H14 C22 1_555 1_555
C23 H15 1_555 1_555
C24 C20 1_555 1_555
H16 C24 1_555 1_555
Cd1 N2 1_555 1_555
Cl1 O2 1_555 1_555
Cl2 O5 1_555 1_555
N1 C12 1_555 1_555
N2 C13 1_555 1_555
N3 C12 1_555 1_555
N4 N3 1_555 1_555
H17 N4 1_555 1_555
H18 N4 1_555 1_555
N5 C22 1_555 1_555
N6 C1 1_555 1_555
H19 O6 1_555 1_555
H20 O6 1_555 1_555
H21 O7 1_555 1_555
H22 O7 1_555 1_555
O3 Cl1 1_555 1_555
O8 Cl2 1_555 1_555
C1G H1G 1_555 1_555
C2G C1G 1_555 1_555
H2G C2G 1_555 1_555
C3G C2G 1_555 1_555
C4G C3G 1_555 1_555
H3G C4G 1_555 1_555
C5G C4G 1_555 1_555
H4G C5G 1_555 1_555
C6G C3G 1_555 1_555
C7G C6G 1_555 1_555
H5G C7G 1_555 1_555
C8G C7G 1_555 1_555
H6G C8G 1_555 1_555
C9G C8G 1_555 1_555
H7G C9G 1_555 1_555
C10G C9G 1_555 1_555
C11G C6G 1_555 1_555
H8G C11G 1_555 1_555
C12G C10G 1_555 1_555
C13G C14G 1_555 1_555
C14G C15G 1_555 1_555
C15G H9G 1_555 1_555
C16G C15G 1_555 1_555
H10G C16G 1_555 1_555
C17G C16G 1_555 1_555
H11G C17G 1_555 1_555
C18G C17G 1_555 1_555
C19G C14G 1_555 1_555
H12G C19G 1_555 1_555
C20G C18G 1_555 1_555
C21G C20G 1_555 1_555
H13G C21G 1_555 1_555
C22G C21G 1_555 1_555
H14G C22G 1_555 1_555
C23G H15G 1_555 1_555
C24G C20G 1_555 1_555
H16G C24G 1_555 1_555
Cd1B N5 1_555 1_555
Cd1B_2 N6 1_555 1_555
Cd1C N5G 1_555 1_555
Cd1C_2 N6G 1_555 1_555
N1G C12G 1_555 1_555
N2G Cd1 1_555 1_555
N3G C12G 1_555 1_555
N4G N3G 1_555 1_555
H17G N4G 1_555 1_555
H18G N4G 1_555 1_555
N5G C22G 1_555 1_555
N5C Cd1 1_555 1_555
N5E Cd1 1_555 1_555
N6G C1G 1_555 1_555
N6C Cd1 1_555 1_555
N6E Cd1 1_555 1_555
O2F Cl1 1_555 1_555
O3F Cl1 1_555 1_555
O5F Cl2 1_555 1_555
O8F Cl2 1_555 1_555
C5 N6 1_555 1_555
C10 C11 1_555 1_555
C13 N3 1_555 1_555
C18 C19 1_555 1_555
C23 C24 1_555 1_555
C23 N5 1_555 1_555
N1 N2 1_555 1_555
C5G N6G 1_555 1_555
C10G C11G 1_555 1_555
C13G N2G 1_555 1_555
C13G N3G 1_555 1_555
C18G C19G 1_555 1_555
C23G C24G 1_555 1_555
C23G N5G 1_555 1_555
N1G N2G 1_555 1_555

#END
