
#######################################################################
#
#                 Cambridge Crystallographic Data Centre
#                                CCDC 
#
#######################################################################
#
# If this CIF has been generated from an entry in the Cambridge 
# Structural Database, then it will include bibliographic, chemical, 
# crystal, experimental, refinement or atomic coordinate data resulting 
# from the CCDC's data processing and validation procedures.
#
#######################################################################

data_WUNSAA
_symmetry_cell_setting           triclinic
_symmetry_space_group_name_H-M   'P -1'
_symmetry_Int_Tables_number      2
_space_group_name_Hall           '-P 1'
loop_
_symmetry_equiv_pos_site_id
_symmetry_equiv_pos_as_xyz
1 x,y,z
2 -x,-y,-z
_cell_length_a                   13.723(2)
_cell_length_b                   16.146(3)
_cell_length_c                   16.324(3)
_cell_angle_alpha                90.020(2)
_cell_angle_beta                 94.366(2)
_cell_angle_gamma                102.215(2)
_cell_volume                     3524.29
loop_
_atom_site_label
_atom_site_type_symbol
_atom_site_fract_x
_atom_site_fract_y
_atom_site_fract_z
C1 C 0.8400(6) 0.4797(6) 0.2118(5)
C2 C 0.8074(6) 0.5532(5) 0.1699(5)
C3 C 0.8725(7) 0.6318(6) 0.1672(7)
H1 H 0.9385 0.6392 0.1888
C4 C 0.8370(8) 0.6985(7) 0.1319(8)
H2 H 0.8794 0.7516 0.1305
C5 C 0.7391(8) 0.6874(6) 0.0985(7)
H3 H 0.7174 0.7325 0.0732
C6 C 0.6734(6) 0.6100(6) 0.1022(6)
C7 C 0.7099(6) 0.5429(5) 0.1375(5)
H4 H 0.6674 0.4898 0.1391
C8 C 0.5704(6) 0.6001(5) 0.0679(5)
C9 C 0.4072(6) 0.5715(5) 0.0507(5)
C10 C 0.3009(6) 0.5465(5) 0.0664(5)
C11 C 0.2399(7) 0.6009(6) 0.0416(7)
H5 H 0.2660 0.6505 0.0147
C12 C 0.1404(8) 0.5818(8) 0.0567(8)
H6 H 0.0998 0.6192 0.0404
C13 C 0.1002(8) 0.5086(8) 0.0954(8)
H7 H 0.0335 0.4970 0.1073
C14 C 0.1612(7) 0.4523(6) 0.1164(6)
C15 C 0.2606(6) 0.4716(5) 0.1015(5)
H8 H 0.3009 0.4333 0.1154
C16 C 0.1170(8) 0.3713(7) 0.1592(6)
C17 C 1.8373(6) 0.3869(6) 0.4272(5)
C18 C 1.8037(6) 0.4146(5) 0.5068(5)
C19 C 1.8743(6) 0.4386(6) 0.5740(6)
H9 H 1.9417 0.4402 0.5691
C20 C 1.8417(6) 0.4594(6) 0.6465(6)
H10 H 1.8877 0.4751 0.6916
C21 C 1.7410(6) 0.4574(6) 0.6544(5)
H11 H 1.7203 0.4711 0.7047
C22 C 1.6714(6) 0.4353(5) 0.5877(5)
C23 C 1.7042(6) 0.4124(5) 0.5143(5)
H12 H 1.6582 0.3954 0.4695
C24 C 1.5680(6) 0.4418(5) 0.5942(5)
C25 C 1.4047(6) 0.4209(5) 0.5822(5)
C26 C 1.2989(6) 0.3840(5) 0.5609(5)
C27 C 1.2294(7) 0.3879(7) 0.6164(6)
H13 H 1.2501 0.4093 0.6692
C28 C 1.1290(7) 0.3602(8) 0.5935(6)
H14 H 1.0821 0.3617 0.6314
C29 C 1.0976(7) 0.3300(7) 0.5138(6)
H15 H 1.0298 0.3126 0.4981
C30 C 1.1667(6) 0.3261(6) 0.4587(5)
C31 C 1.2672(6) 0.3528(5) 0.4828(5)
H16 H 1.3143 0.3496 0.4455
C32 C 1.1331(7) 0.2926(6) 0.3737(6)
C33 C 0.8693(6) 0.1208(6) 0.3340(6)
C34 C 0.8214(6) 0.0428(6) 0.3766(6)
C35 C 0.8778(7) -0.0166(7) 0.3958(8)
H17 H 0.9447 -0.0063 0.3843
C36 C 0.8356(8) -0.0907(7) 0.4317(9)
H18 H 0.8751 -0.1295 0.4462
C37 C 0.7361(7) -0.1094(7) 0.4470(7)
H19 H 0.7082 -0.1607 0.4703
C38 C 0.6777(6) -0.0504(5) 0.4269(5)
C39 C 0.7218(6) 0.0263(5) 0.3936(5)
H20 H 0.6841 0.0670 0.3826
C40 C 0.5724(6) -0.0747(5) 0.4444(5)
C41 C 0.4084(6) -0.1028(5) 0.4310(5)
C42 C 0.3064(6) -0.1097(5) 0.3965(5)
C43 C 0.2379(7) -0.1881(6) 0.3988(7)
H21 H 0.2579 -0.2348 0.4226
C44 C 0.1406(8) -0.1949(7) 0.3653(8)
H22 H 0.0942 -0.2456 0.3692
C45 C 0.1117(7) -0.1270(6) 0.3261(7)
H23 H 0.0479 -0.1339 0.2997
C46 C 0.1770(6) -0.0491(6) 0.3259(6)
C47 C 0.2745(6) -0.0411(5) 0.3605(5)
H24 H 0.3190 0.0110 0.3596
C48 C 0.1458(6) 0.0256(5) 0.2874(5)
C49 C 0.8456(6) 0.2143(6) 0.1273(5)
C50 C 0.8138(6) 0.1790(5) 0.0409(5)
C51 C 0.8822(6) 0.1760(6) -0.0143(6)
H25 H 0.9499 0.1947 0.0012
C52 C 0.8522(7) 0.1452(7) -0.0940(6)
H26 H 0.8993 0.1444 -0.1319
C53 C 0.7509(7) 0.1157(6) -0.1161(6)
H27 H 0.7301 0.0948 -0.1691
C54 C 0.6809(6) 0.1172(5) -0.0601(6)
C55 C 0.7124(6) 0.1497(5) 0.0188(5)
H28 H 0.6657 0.1518 0.0567
C56 C 0.5751(6) 0.0791(5) -0.0837(5)
C57 C 0.4124(6) 0.0521(5) -0.0950(5)
C58 C 0.3091(6) 0.0586(5) -0.0882(5)
C59 C 0.2398(6) 0.0359(6) -0.1546(5)
H29 H 0.2592 0.0184 -0.2040
C60 C 0.1410(6) 0.0397(6) -0.1467(6)
H30 H 0.0942 0.0256 -0.1915
C61 C 0.1110(6) 0.0644(6) -0.0719(6)
H31 H 0.0439 0.0642 -0.0666
C62 C 0.1806(6) 0.0890(5) -0.0060(6)
C63 C 0.2797(6) 0.0864(5) -0.0152(5)
H32 H 0.3275 0.1037 0.0284
C64 C 0.1505(6) 0.1192(5) 0.0724(5)
H33 H 0.5040 0.5674 0.2137
H34 H 1.5032 0.2764 0.5565
H35 H 0.5209 -0.0637 0.2928
H44 H 0.5119 0.4845 0.1841
H45 H 1.5095 0.3236 0.4808
H46 H 0.5346 0.0222 0.3244
H55 H 0.5211 0.2306 -0.0564
H56 H 0.5169 0.1946 0.0250
N1 N 0.545403(15) 0.632887(16) -0.002564(15)
N2 N 0.441590(15) 0.615233(16) -0.013518(15)
N3 N 0.485774(15) 0.559267(16) 0.100587(15)
N4 N 0.475250(15) 0.524218(16) 0.179327(15)
N5 N 1.541990(15) 0.504030(16) 0.634900(15)
N6 N 1.438060(15) 0.490250(16) 0.627400(15)
N7 N 1.483640(15) 0.389820(16) 0.559890(15)
N8 N 1.472690(15) 0.309460(16) 0.523790(15)
N9 N 0.540560(15) -0.117601(16) 0.507639(15)
N10 N 0.437007(15) -0.135015(16) 0.500048(15)
N11 N 0.491919(15) -0.062531(16) 0.394838(15)
N12 N 0.489995(15) -0.027095(16) 0.316205(15)
N13 N 0.544947(15) 0.008951(16) -0.126496(15)
N14 N 0.441663(15) -0.008630(16) -0.133803(15)
N15 N 0.495142(15) 0.107512(16) -0.061314(15)
N16 N 0.491592(15) 0.186725(16) -0.027341(15)
Nd2 Nd 0.901763(15) 0.328015(16) 0.277024(15)
Nd3 Nd 0.083045(15) 0.175445(16) 0.221535(15)
O1 O 0.925197(15) 0.488290(16) 0.246976(15)
O2 O 0.781017(15) 0.409527(16) 0.210507(15)
O3 O 0.157535(15) 0.308917(16) 0.157606(15)
O4 O 0.037401(15) 0.370315(16) 0.194887(15)
O5 O 1.043260(15) 0.285100(16) 0.345840(15)
O6 O 1.194430(15) 0.271270(16) 0.329570(15)
O7 O 1.926340(15) 0.401430(16) 0.414230(15)
O8 O 0.953347(15) 0.120746(16) 0.306884(15)
O9 O 0.825842(15) 0.182474(16) 0.325974(15)
O10 O 0.193441(15) 0.099926(16) 0.308153(15)
O11 O 0.073905(15) 0.015343(16) 0.233682(15)
O12 O 0.929190(15) 0.211443(16) 0.159900(15)
O13 O 0.785622(15) 0.247569(16) 0.162776(15)
O14 O 0.215746(15) 0.143640(16) 0.132287(15)
O15 O 0.060389(15) 0.121140(16) 0.078550(15)
O28 O 1.773660(15) 0.346570(16) 0.374830(15)
Nd2_2 Nd -0.098237(15) 0.328015(16) 0.277024(15)
Nd2_3 Nd 1.901763(15) 0.328015(16) 0.277024(15)
Nd3_2 Nd 1.083045(15) 0.175445(16) 0.221535(15)
O4_2 O 1.037401(15) 0.370315(16) 0.194887(15)
O5_2 O 0.043260(15) 0.285100(16) 0.345840(15)
O6_2 O 0.194430(15) 0.271270(16) 0.329570(15)
O7_2 O 0.926340(15) 0.401430(16) 0.414230(15)
O8_2 O -0.046653(15) 0.120746(16) 0.306884(15)
O12_2 O -0.070810(15) 0.211443(16) 0.159900(15)
O28_2 O 0.773660(15) 0.346570(16) 0.374830(15)
Cl1 Cl 0.501068(15) 0.749228(16) 0.251351(15)
O24 O 0.437872(15) 0.719899(16) 0.180652(15)
O25 O 0.444694(15) 0.755253(16) 0.318561(15)
O26 O 0.562084(15) 0.829253(16) 0.236793(15)
O27 O 0.562366(15) 0.689025(16) 0.270240(15)
H36 H 0.6524 0.3904 0.2486
H37 H 0.6503 0.2883 0.3796
H38 H 0.6572 0.2690 0.1412
H39 H 0.6626 0.1627 0.2741
H40 H 0.4125 0.0790 0.1678
H41 H 0.3239 0.1545 0.3415
H42 H 0.3222 0.2853 0.1447
H43 H 0.3332 0.3174 0.3236
H47 H 0.5942 0.4187 0.3083
H48 H 0.5976 0.2078 0.4057
H49 H 0.5897 0.3144 0.0987
H50 H 0.6070 0.1070 0.2102
H51 H 0.3365 0.1276 0.1690
H52 H 0.4119 0.1444 0.3894
H53 H 0.4034 0.3160 0.0945
H54 H 0.3994 0.3722 0.2717
Nd1 Nd 0.491686(15) 0.247960(16) 0.250728(15)
O16 O 0.594923(15) 0.392091(16) 0.263492(15)
O17 O 0.594072(15) 0.254114(16) 0.381483(15)
O18 O 0.597714(15) 0.276603(16) 0.133287(15)
O19 O 0.606536(15) 0.143220(16) 0.247894(15)
O20 O 0.397678(15) 0.126173(16) 0.178910(15)
O21 O 0.387611(15) 0.166857(16) 0.347346(15)
O22 O 0.384857(15) 0.296285(16) 0.140428(15)
O23 O 0.393022(15) 0.336550(16) 0.311493(15)
loop_
_geom_bond_atom_site_label_1
_geom_bond_atom_site_label_2
_geom_bond_site_symmetry_1
_geom_bond_site_symmetry_2
C1 C2 1_555 1_555
C2 C3 1_555 1_555
C3 H1 1_555 1_555
C4 C3 1_555 1_555
H2 C4 1_555 1_555
C5 C4 1_555 1_555
H3 C5 1_555 1_555
C6 C5 1_555 1_555
C7 C2 1_555 1_555
H4 C7 1_555 1_555
C8 C6 1_555 1_555
C9 C10 1_555 1_555
C10 C11 1_555 1_555
C11 H5 1_555 1_555
C12 C11 1_555 1_555
H6 C12 1_555 1_555
C13 C12 1_555 1_555
H7 C13 1_555 1_555
C14 C13 1_555 1_555
C15 C10 1_555 1_555
H8 C15 1_555 1_555
C16 C14 1_555 1_555
C17 C18 1_555 1_555
C18 C19 1_555 1_555
C19 H9 1_555 1_555
C20 C19 1_555 1_555
H10 C20 1_555 1_555
C21 C20 1_555 1_555
H11 C21 1_555 1_555
C22 C21 1_555 1_555
C23 C18 1_555 1_555
H12 C23 1_555 1_555
C24 C22 1_555 1_555
C25 C26 1_555 1_555
C26 C27 1_555 1_555
C27 H13 1_555 1_555
C28 C27 1_555 1_555
H14 C28 1_555 1_555
C29 C28 1_555 1_555
H15 C29 1_555 1_555
C30 C29 1_555 1_555
C31 C26 1_555 1_555
H16 C31 1_555 1_555
C32 C30 1_555 1_555
C33 C34 1_555 1_555
C34 C35 1_555 1_555
C35 H17 1_555 1_555
C36 C35 1_555 1_555
H18 C36 1_555 1_555
C37 C36 1_555 1_555
H19 C37 1_555 1_555
C38 C37 1_555 1_555
C39 C34 1_555 1_555
H20 C39 1_555 1_555
C40 C38 1_555 1_555
C41 C42 1_555 1_555
C42 C43 1_555 1_555
C43 H21 1_555 1_555
C44 C43 1_555 1_555
H22 C44 1_555 1_555
C45 C44 1_555 1_555
H23 C45 1_555 1_555
C46 C45 1_555 1_555
C47 C42 1_555 1_555
H24 C47 1_555 1_555
C48 C46 1_555 1_555
C49 C50 1_555 1_555
C50 C51 1_555 1_555
C51 H25 1_555 1_555
C52 C51 1_555 1_555
H26 C52 1_555 1_555
C53 C52 1_555 1_555
H27 C53 1_555 1_555
C54 C53 1_555 1_555
C55 C50 1_555 1_555
H28 C55 1_555 1_555
C56 C54 1_555 1_555
C57 C58 1_555 1_555
C58 C59 1_555 1_555
C59 H29 1_555 1_555
C60 C59 1_555 1_555
H30 C60 1_555 1_555
C61 C60 1_555 1_555
H31 C61 1_555 1_555
C62 C61 1_555 1_555
C63 C58 1_555 1_555
H32 C63 1_555 1_555
C64 C62 1_555 1_555
Cl1 O24 1_555 1_555
H33 N4 1_555 1_555
H34 N8 1_555 1_555
H35 N12 1_555 1_555
H36 O16 1_555 1_555
H37 O17 1_555 1_555
H38 O18 1_555 1_555
H39 O19 1_555 1_555
H40 O20 1_555 1_555
H41 O21 1_555 1_555
H42 O22 1_555 1_555
H43 O23 1_555 1_555
H44 N4 1_555 1_555
H45 N8 1_555 1_555
H46 N12 1_555 1_555
H47 O16 1_555 1_555
H48 O17 1_555 1_555
H49 O18 1_555 1_555
H50 O19 1_555 1_555
H51 O20 1_555 1_555
H52 O21 1_555 1_555
H53 O22 1_555 1_555
H54 O23 1_555 1_555
H55 N16 1_555 1_555
H56 N16 1_555 1_555
N1 C8 1_555 1_555
N2 C9 1_555 1_555
N3 C8 1_555 1_555
N4 N3 1_555 1_555
N5 C24 1_555 1_555
N6 C25 1_555 1_555
N7 C24 1_555 1_555
N8 N7 1_555 1_555
N9 C40 1_555 1_555
N10 C41 1_555 1_555
N11 C40 1_555 1_555
N12 N11 1_555 1_555
N13 C56 1_555 1_555
N14 C57 1_555 1_555
N15 C56 1_555 1_555
N16 N15 1_555 1_555
Nd1 O16 1_555 1_555
Nd2 O1 1_555 1_555
Nd3 O3 1_555 1_555
O1 C1 1_555 1_555
O2 C1 1_555 1_555
O3 C16 1_555 1_555
O4 C16 1_555 1_555
O5 C32 1_555 1_555
O6 C32 1_555 1_555
O7 C17 1_555 1_555
O8 C33 1_555 1_555
O9 C33 1_555 1_555
O10 C48 1_555 1_555
O11 C48 1_555 1_555
O12 C49 1_555 1_555
O13 C49 1_555 1_555
O14 C64 1_555 1_555
O15 C64 1_555 1_555
O17 Nd1 1_555 1_555
O18 Nd1 1_555 1_555
O19 Nd1 1_555 1_555
O20 Nd1 1_555 1_555
O21 Nd1 1_555 1_555
O22 Nd1 1_555 1_555
O23 Nd1 1_555 1_555
O25 Cl1 1_555 1_555
O26 Cl1 1_555 1_555
O27 Cl1 1_555 1_555
O28 C17 1_555 1_555
Nd2_2 O4 1_555 1_555
Nd2_3 O7 1_555 1_555
Nd3_2 O5 1_555 1_555
O4_2 Nd2 1_555 1_555
O5_2 Nd3 1_555 1_555
O6_2 Nd3 1_555 1_555
O7_2 Nd2 1_555 1_555
O8_2 Nd3 1_555 1_555
O12_2 Nd3 1_555 1_555
O28_2 Nd2 1_555 1_555
C6 C7 1_555 1_555
C9 N3 1_555 1_555
C14 C15 1_555 1_555
C22 C23 1_555 1_555
C25 N7 1_555 1_555
C30 C31 1_555 1_555
C38 C39 1_555 1_555
C41 N11 1_555 1_555
C46 C47 1_555 1_555
C54 C55 1_555 1_555
C57 N15 1_555 1_555
C62 C63 1_555 1_555
N1 N2 1_555 1_555
N5 N6 1_555 1_555
N9 N10 1_555 1_555
N13 N14 1_555 1_555
Nd2 O2 1_555 1_555
Nd2 O5 1_555 1_555
Nd2 O9 1_555 1_555
Nd2 O12 1_555 1_555
Nd2 O13 1_555 1_555
Nd3 O10 1_555 1_555
Nd3 O11 1_555 1_555
Nd3 O14 1_555 1_555
Nd3 O15 1_555 1_555
O6 Nd3_2 1_555 1_555
O8 Nd3_2 1_555 1_555
O12 Nd3_2 1_555 1_555
O28 Nd2_3 1_555 1_555
Nd2_2 O5_2 1_555 1_555
Nd2_2 O12_2 1_555 1_555

#END
