
#######################################################################
#
#                 Cambridge Crystallographic Data Centre
#                                CCDC 
#
#######################################################################
#
# If this CIF has been generated from an entry in the Cambridge 
# Structural Database, then it will include bibliographic, chemical, 
# crystal, experimental, refinement or atomic coordinate data resulting 
# from the CCDC's data processing and validation procedures.
#
#######################################################################

data_WUNVOR
_symmetry_cell_setting           tetragonal
_symmetry_space_group_name_H-M   'P 43 21 2'
_symmetry_Int_Tables_number      96
_space_group_name_Hall           'P 4nw 2abw'
loop_
_symmetry_equiv_pos_site_id
_symmetry_equiv_pos_as_xyz
1 x,y,z
2 -x,-y,1/2+z
3 1/2-y,1/2+x,3/4+z
4 1/2+y,1/2-x,1/4+z
5 1/2-x,1/2+y,3/4-z
6 1/2+x,1/2-y,1/4-z
7 y,x,-z
8 -y,-x,1/2-z
_cell_length_a                   15.9030(12)
_cell_length_b                   15.9030(12)
_cell_length_c                   21.615(2)
_cell_angle_alpha                90
_cell_angle_beta                 90
_cell_angle_gamma                90
_cell_volume                     5466.55
loop_
_atom_site_label
_atom_site_type_symbol
_atom_site_fract_x
_atom_site_fract_y
_atom_site_fract_z
C1 C -0.0376(3) 1.2447(3) 0.0351(2)
H1 H -0.0066 1.2405 0.0715
C2 C -0.0943(3) 1.3106(3) 0.0297(2)
H2 H -0.1001 1.3493 0.0617
C3 C -0.1421(2) 1.3187(3) -0.02328(18)
C4 C -0.1262(3) 1.2600(3) -0.07002(19)
H3 H -0.1546 1.2636 -0.1075
C5 C -0.0686(3) 1.1970(2) -0.06050(19)
H4 H -0.0596 1.1589 -0.0924
C6 C -0.2084(2) 1.3842(2) -0.02934(19)
C7 C -0.2086(3) 1.4557(3) 0.0077(2)
H5 H -0.1657 1.4636 0.0364
C8 C -0.2711(3) 1.5149(3) 0.0026(3)
H6 H -0.2691 1.5631 0.0269
C9 C -0.3369(3) 1.5035(3) -0.0382(2)
H7 H -0.3793 1.5436 -0.0413
C10 C -0.3391(2) 1.4317(2) -0.07460(17)
C11 C -0.2749(2) 1.3721(2) -0.07072(18)
H8 H -0.2763 1.3244 -0.0956
C12 C -0.4091(2) 1.4237(2) -0.11904(16)
C13 C -0.5052(2) 1.3727(2) -0.18089(16)
C14 C -0.5608(2) 1.3107(2) -0.21113(16)
C15 C -0.5437(3) 1.2805(3) -0.26983(18)
H9 H -0.4965 1.2986 -0.2914
C16 C -0.5993(3) 1.2220(3) -0.2960(2)
H10 H -0.5900 1.2026 -0.3360
C17 C -0.6674(3) 1.1931(3) -0.26310(18)
H11 H -0.7031 1.1536 -0.2810
C18 C -0.6837(2) 1.2219(2) -0.20355(18)
C19 C -0.6298(2) 1.2818(2) -0.17856(18)
H12 H -0.6403 1.3028 -0.1392
C20 C -0.7554(2) 1.1912(2) -0.16644(17)
C21 C -0.7983(2) 1.1162(2) -0.17997(18)
H13 H -0.7863 1.0868 -0.2161
C22 C -0.8580(2) 1.0867(2) -0.13973(19)
H14 H -0.8850 1.0366 -0.1496
C23 C -0.8430(2) 1.1995(3) -0.07667(19)
H15 H -0.8590 1.2293 -0.0416
C24 C -0.7834(3) 1.2340(2) -0.11439(18)
H16 H -0.7614 1.2867 -0.1051
Cd1 Cd -0.558968(14) 1.558968(14) -0.2500
N1 N -0.4462(2) 1.48733(18) -0.14531(14)
N2 N -0.50729(19) 1.45517(18) -0.18423(15)
N3 N -0.4443(2) 1.35061(17) -0.14007(14)
N4 N -0.4248(2) 1.2688(2) -0.11927(18)
N5 N -0.02475(19) 1.1871(2) -0.00857(16)
N6 N -0.8797(2) 1.1251(2) -0.08745(15)
H25 H -0.4004 1.2440 -0.1523
H26 H -0.4761 1.2444 -0.1133
C1G C -0.2447(3) 1.0376(3) -0.5351(2)
H1G H -0.2405 1.0066 -0.5715
C2G C -0.3106(3) 1.0943(3) -0.5297(2)
H2G H -0.3493 1.1001 -0.5617
C3G C -0.3187(3) 1.1421(2) -0.47672(18)
C4G C -0.2600(3) 1.1262(3) -0.42998(19)
H3G H -0.2636 1.1546 -0.3925
C5G C -0.1970(2) 1.0686(3) -0.43950(19)
H4G H -0.1589 1.0596 -0.4076
C6G C -0.3842(2) 1.2084(2) -0.47066(19)
C7G C -0.4557(3) 1.2086(3) -0.5077(2)
H5G H -0.4636 1.1657 -0.5364
C8G C -0.5149(3) 1.2711(3) -0.5026(3)
H6G H -0.5631 1.2691 -0.5269
C9G C -0.5035(3) 1.3369(3) -0.4618(2)
H7G H -0.5436 1.3793 -0.4587
C10G C -0.4317(2) 1.3391(2) -0.42540(17)
C11G C -0.3721(2) 1.2749(2) -0.42928(18)
H8G H -0.3244 1.2763 -0.4044
C12G C -0.4237(2) 1.4091(2) -0.38096(16)
C13G C -0.3727(2) 1.5052(2) -0.31911(16)
C14G C -0.3107(2) 1.5608(2) -0.28887(16)
C15G C -0.2805(3) 1.5437(3) -0.23017(18)
H9G H -0.2986 1.4965 -0.2086
C16G C -0.2220(3) 1.5993(3) -0.2040(2)
H10G H -0.2026 1.5900 -0.1640
C17G C -0.1931(3) 1.6674(3) -0.23690(18)
H11G H -0.1536 1.7031 -0.2190
C18G C -0.2219(2) 1.6837(2) -0.29645(18)
C19G C -0.2818(2) 1.6298(2) -0.32144(18)
H12G H -0.3028 1.6403 -0.3608
C20G C -0.1912(2) 1.7554(2) -0.33356(17)
C21G C -0.1162(2) 1.7983(2) -0.32003(18)
H13G H -0.0868 1.7863 -0.2839
C22G C -0.0867(2) 1.8580(2) -0.36027(19)
H14G H -0.0366 1.8850 -0.3504
C23G C -0.1995(3) 1.8430(2) -0.42333(19)
H15G H -0.2293 1.8590 -0.4584
C24G C -0.2340(2) 1.7834(3) -0.38561(18)
H16G H -0.2867 1.7614 -0.3949
Cd1C Cd 0.058968(14) 1.058968(14) 0.0000
Cd1C_2 Cd -0.941032(14) 1.058968(14) 0.0000
Cd1B Cd -0.058968(14) 0.941032(14) -0.5000
Cd1B_2 Cd -0.058968(14) 1.941032(14) -0.5000
N1G N -0.48733(18) 1.4462(2) -0.35469(14)
N2G N -0.45517(18) 1.50729(19) -0.31577(15)
N3G N -0.35061(17) 1.4443(2) -0.35993(14)
N4G N -0.2688(2) 1.4248(2) -0.38073(18)
N5G N -0.1871(2) 1.02475(19) -0.49143(16)
N5B N -0.6871(2) 1.47525(19) -0.25857(16)
N5D N -0.47525(19) 1.6871(2) -0.24143(16)
N6G N -0.1251(2) 1.8797(2) -0.41255(15)
N6B N -0.6251(2) 1.6203(2) -0.33745(15)
N6D N -0.6203(2) 1.6251(2) -0.16255(15)
H25G H -0.2440 1.4004 -0.3477
H26G H -0.2444 1.4761 -0.3867
C25 C 0.4328(11) 0.1012(11) 0.9290(8)
H17 H 0.3919 0.1427 0.9324
C26 C 0.4510(14) 0.0682(14) 0.8723(9)
H18 H 0.4238 0.0883 0.8373
C27 C 0.5097(15) 0.0051(14) 0.8670(9)
H19 H 0.5224 -0.0174 0.8285
C28 C 0.5493(17) -0.0242(16) 0.9188(11)
H20 H 0.5889 -0.0670 0.9156
C29 C 0.531(2) 0.0095(19) 0.9755(10)
H21 H 0.5571 -0.0113 1.0107
C30 C 0.4734(11) 0.0742(11) 0.9807(8)
C31 C 0.4466(11) 0.1071(10) 1.0424(8)
H22 H 0.4289 0.1645 1.0383
H23 H 0.4930 0.1041 1.0708
H24 H 0.4008 0.0739 1.0579
Cl1 Cl 0.76826(8) 0.76826(8) 0.0000
O1 O 0.7423(5) 0.7277(4) -0.0529(2)
O3 O 0.7183(6) 0.8446(4) -0.0121(5)
O1F O 0.7277(4) 0.7423(5) 0.0529(2)
O3F O 0.8446(4) 0.7183(6) 0.0121(5)
Cl2 Cl 0.37918(9) 0.37918(9) 0.0000
O4 O 0.3291(7) 0.4014(5) -0.0540(4)
O5 O 0.3548(11) 0.4294(8) 0.0459(5)
O4F O 0.4014(5) 0.3291(7) 0.0540(4)
O5F O 0.4294(8) 0.3548(11) -0.0459(5)
O2? O 0.8298(3) 0.8298(3) 0.0000
O6? O 0.4595(6) 0.4019(12) -0.0218(6)
O7? O 0.3708(12) 0.2953(6) 0.0084(8)
C32? C 0.4685(11) 0.0878(10) 1.0107(8)
C33? C 0.4302(11) 0.1337(10) 0.9649(8)
C34? C 0.429(5) 0.102(4) 0.9058(15)
C35? C 0.479(3) 0.036(3) 0.8905(14)
C36? C 0.534(5) 0.005(5) 0.9337(12)
C37? C 0.521(6) 0.023(5) 0.9953(11)
C38? C 0.566(2) -0.0280(17) 1.0441(15)
H27? H 0.4588 0.1008 1.0520
H28? H 0.4055 0.1853 0.9738
H29? H 0.3936 0.1263 0.8763
H30? H 0.4768 0.0126 0.8511
H31? H 0.5790 -0.0286 0.9216
H32? H 0.5437 -0.0840 1.0450
H33? H 0.5581 -0.0020 1.0837
H34? H 0.6250 -0.0302 1.0347
loop_
_geom_bond_atom_site_label_1
_geom_bond_atom_site_label_2
_geom_bond_site_symmetry_1
_geom_bond_site_symmetry_2
C1 H1 1_555 1_555
C2 C1 1_555 1_555
H2 C2 1_555 1_555
C3 C2 1_555 1_555
C4 C3 1_555 1_555
H3 C4 1_555 1_555
C5 C4 1_555 1_555
H4 C5 1_555 1_555
C6 C3 1_555 1_555
C7 C6 1_555 1_555
H5 C7 1_555 1_555
C8 C7 1_555 1_555
H6 C8 1_555 1_555
C9 C8 1_555 1_555
H7 C9 1_555 1_555
C10 C9 1_555 1_555
C11 C6 1_555 1_555
H8 C11 1_555 1_555
C12 C10 1_555 1_555
C13 C14 1_555 1_555
C14 C15 1_555 1_555
C15 H9 1_555 1_555
C16 C15 1_555 1_555
H10 C16 1_555 1_555
C17 C16 1_555 1_555
H11 C17 1_555 1_555
C18 C17 1_555 1_555
C19 C14 1_555 1_555
H12 C19 1_555 1_555
C20 C18 1_555 1_555
C21 C20 1_555 1_555
H13 C21 1_555 1_555
C22 C21 1_555 1_555
H14 C22 1_555 1_555
C23 H15 1_555 1_555
C24 C20 1_555 1_555
H16 C24 1_555 1_555
C25 H17 1_555 1_555
C26 C25 1_555 1_555
H18 C26 1_555 1_555
C27 C26 1_555 1_555
H19 C27 1_555 1_555
C28 C27 1_555 1_555
H20 C28 1_555 1_555
C29 C28 1_555 1_555
H21 C29 1_555 1_555
C30 C25 1_555 1_555
C31 C30 1_555 1_555
H22 C31 1_555 1_555
H23 C31 1_555 1_555
H24 C31 1_555 1_555
Cd1 N2 1_555 1_555
Cl1 O1 1_555 1_555
Cl2 O4 1_555 1_555
N1 C12 1_555 1_555
N2 C13 1_555 1_555
N3 C12 1_555 1_555
N4 N3 1_555 1_555
N5 C1 1_555 1_555
N6 C22 1_555 1_555
O3 Cl1 1_555 1_555
H25 N4 1_555 1_555
H26 N4 1_555 1_555
O5 Cl2 1_555 1_555
C1G H1G 1_555 1_555
C2G C1G 1_555 1_555
H2G C2G 1_555 1_555
C3G C2G 1_555 1_555
C4G C3G 1_555 1_555
H3G C4G 1_555 1_555
C5G C4G 1_555 1_555
H4G C5G 1_555 1_555
C6G C3G 1_555 1_555
C7G C6G 1_555 1_555
H5G C7G 1_555 1_555
C8G C7G 1_555 1_555
H6G C8G 1_555 1_555
C9G C8G 1_555 1_555
H7G C9G 1_555 1_555
C10G C9G 1_555 1_555
C11G C6G 1_555 1_555
H8G C11G 1_555 1_555
C12G C10G 1_555 1_555
C13G C14G 1_555 1_555
C14G C15G 1_555 1_555
C15G H9G 1_555 1_555
C16G C15G 1_555 1_555
H10G C16G 1_555 1_555
C17G C16G 1_555 1_555
H11G C17G 1_555 1_555
C18G C17G 1_555 1_555
C19G C14G 1_555 1_555
H12G C19G 1_555 1_555
C20G C18G 1_555 1_555
C21G C20G 1_555 1_555
H13G C21G 1_555 1_555
C22G C21G 1_555 1_555
H14G C22G 1_555 1_555
C23G H15G 1_555 1_555
C24G C20G 1_555 1_555
H16G C24G 1_555 1_555
Cd1C N5 1_555 1_555
Cd1C_2 N6 1_555 1_555
Cd1B N5G 1_555 1_555
Cd1B_2 N6G 1_555 1_555
N1G C12G 1_555 1_555
N2G Cd1 1_555 1_555
N3G C12G 1_555 1_555
N4G N3G 1_555 1_555
N5G C1G 1_555 1_555
N5B Cd1 1_555 1_555
N5D Cd1 1_555 1_555
N6G C22G 1_555 1_555
N6B Cd1 1_555 1_555
N6D Cd1 1_555 1_555
O1F Cl1 1_555 1_555
O3F Cl1 1_555 1_555
H25G N4G 1_555 1_555
H26G N4G 1_555 1_555
O4F Cl2 1_555 1_555
O5F Cl2 1_555 1_555
C5 N5 1_555 1_555
C10 C11 1_555 1_555
C13 N3 1_555 1_555
C18 C19 1_555 1_555
C23 C24 1_555 1_555
C23 N6 1_555 1_555
C29 C30 1_555 1_555
N1 N2 1_555 1_555
C5G N5G 1_555 1_555
C10G C11G 1_555 1_555
C13G N2G 1_555 1_555
C13G N3G 1_555 1_555
C18G C19G 1_555 1_555
C23G C24G 1_555 1_555
C23G N6G 1_555 1_555
N1G N2G 1_555 1_555

#END
