
#######################################################################
#
#                 Cambridge Crystallographic Data Centre
#                                CCDC 
#
#######################################################################
#
# If this CIF has been generated from an entry in the Cambridge 
# Structural Database, then it will include bibliographic, chemical, 
# crystal, experimental, refinement or atomic coordinate data resulting 
# from the CCDC's data processing and validation procedures.
#
#######################################################################

data_WUNYIP
_symmetry_cell_setting           monoclinic
_symmetry_space_group_name_H-M   'P 21/c'
_symmetry_Int_Tables_number      14
_space_group_name_Hall           '-P 2ybc'
loop_
_symmetry_equiv_pos_site_id
_symmetry_equiv_pos_as_xyz
1 x,y,z
2 -x,1/2+y,1/2-z
3 -x,-y,-z
4 x,1/2-y,1/2+z
_cell_length_a                   16.3872(7)
_cell_length_b                   7.3898(3)
_cell_length_c                   7.5875(3)
_cell_angle_alpha                90
_cell_angle_beta                 90.627(4)
_cell_angle_gamma                90
_cell_volume                     918.777
loop_
_atom_site_label
_atom_site_type_symbol
_atom_site_fract_x
_atom_site_fract_y
_atom_site_fract_z
Cu1 Cu 0.0000 0.0000 1.0000
O1 O 0.0883(2) -0.0773(5) 1.1593(5)
O2 O 0.32980(19) -0.1142(4) 0.7140(4)
O3 O 0.08417(16) 0.0317(4) 0.8161(4)
O4 O 0.01547(17) 0.1938(4) 0.6140(4)
N1 N 0.2287(2) 0.0708(5) 0.6377(5)
O5 O 0.2210(2) -0.2336(5) 0.5668(5)
C1 C 0.2900(3) 0.1768(6) 0.7135(6)
C2 C 0.2545(3) -0.1047(7) 0.6341(7)
C3 C 0.0779(3) 0.1184(6) 0.6736(6)
C4 C 0.3721(3) 0.4174(8) 0.8101(7)
H1 H 0.3808 0.5408 0.8254
C5 C 0.4231(3) 0.1142(8) 0.8374(7)
H2 H 0.4635 0.0323 0.8707
C6 C 0.3516(3) 0.0595(6) 0.7619(6)
C7 C 0.1531(2) 0.1318(7) 0.5590(6)
H3 H 0.1432 0.0620 0.4526
H4 H 0.1597 0.2572 0.5240
C8 C 0.2989(3) 0.3608(7) 0.7361(6)
H5 H 0.2581 0.4421 0.7035
C9 C 0.4323(3) 0.2994(9) 0.8620(7)
H6 H 0.4799 0.3439 0.9141
H7 H 0.060(3) -0.125(7) 1.238(6)
H8 H 0.120(3) -0.135(6) 1.120(6)
O1B O -0.0883(2) 0.0773(5) 0.8407(5)
O2B O -0.32980(19) 0.1142(4) 1.2860(4)
O3B O -0.08417(16) -0.0317(4) 1.1839(4)
O4B O -0.01547(17) -0.1938(4) 1.3860(4)
N1B N -0.2287(2) -0.0708(5) 1.3623(5)
O5B O -0.2210(2) 0.2336(5) 1.4332(5)
C1B C -0.2900(3) -0.1768(6) 1.2865(6)
C2B C -0.2545(3) 0.1047(7) 1.3659(7)
C3B C -0.0779(3) -0.1184(6) 1.3264(6)
C4B C -0.3721(3) -0.4174(8) 1.1899(7)
H1B H -0.3808 -0.5408 1.1746
C5B C -0.4231(3) -0.1142(8) 1.1626(7)
H2B H -0.4635 -0.0323 1.1293
C6B C -0.3516(3) -0.0595(6) 1.2381(6)
C7B C -0.1531(2) -0.1318(7) 1.4410(6)
H3B H -0.1432 -0.0620 1.5474
H4B H -0.1597 -0.2572 1.4760
C8B C -0.2989(3) -0.3608(7) 1.2639(6)
H5B H -0.2581 -0.4421 1.2965
C9B C -0.4323(3) -0.2994(9) 1.1380(7)
H6B H -0.4799 -0.3439 1.0859
H7B H -0.060(3) 0.125(7) 0.762(6)
H8B H -0.120(3) 0.135(6) 0.880(6)
Cu1A Cu 0.0000 -0.5000 1.5000
Cu1A_2 Cu 0.0000 0.5000 0.5000
O4A O -0.01547(17) -0.3062(4) 0.8860(4)
O4C O 0.01547(17) 0.3062(4) 1.1140(4)
loop_
_geom_bond_atom_site_label_1
_geom_bond_atom_site_label_2
_geom_bond_site_symmetry_1
_geom_bond_site_symmetry_2
Cu1 O1 1_555 1_555
O1 H7 1_555 1_555
O2 C2 1_555 1_555
O3 Cu1 1_555 1_555
O4 C3 1_555 1_555
N1 C1 1_555 1_555
O5 C2 1_555 1_555
C1 C6 1_555 1_555
C2 N1 1_555 1_555
C3 O3 1_555 1_555
C4 H1 1_555 1_555
C5 H2 1_555 1_555
C6 O2 1_555 1_555
C7 N1 1_555 1_555
H3 C7 1_555 1_555
H4 C7 1_555 1_555
C8 C1 1_555 1_555
H5 C8 1_555 1_555
C9 C4 1_555 1_555
H6 C9 1_555 1_555
H8 O1 1_555 1_555
O1B Cu1 1_555 1_555
O2B C2B 1_555 1_555
O3B Cu1 1_555 1_555
O4B C3B 1_555 1_555
N1B C1B 1_555 1_555
O5B C2B 1_555 1_555
C1B C6B 1_555 1_555
C2B N1B 1_555 1_555
C3B O3B 1_555 1_555
C4B H1B 1_555 1_555
C5B H2B 1_555 1_555
C6B O2B 1_555 1_555
C7B N1B 1_555 1_555
H3B C7B 1_555 1_555
H4B C7B 1_555 1_555
C8B C1B 1_555 1_555
H5B C8B 1_555 1_555
C9B C4B 1_555 1_555
H6B C9B 1_555 1_555
H7B O1B 1_555 1_555
H8B O1B 1_555 1_555
Cu1A O4B 1_555 1_555
Cu1A_2 O4 1_555 1_555
O4A Cu1 1_555 1_555
O4C Cu1 1_555 1_555
C3 C7 1_555 1_555
C4 C8 1_555 1_555
C5 C6 1_555 1_555
C5 C9 1_555 1_555
C3B C7B 1_555 1_555
C4B C8B 1_555 1_555
C5B C6B 1_555 1_555
C5B C9B 1_555 1_555

#END
