
#######################################################################
#
#                 Cambridge Crystallographic Data Centre
#                                CCDC 
#
#######################################################################
#
# If this CIF has been generated from an entry in the Cambridge 
# Structural Database, then it will include bibliographic, chemical, 
# crystal, experimental, refinement or atomic coordinate data resulting 
# from the CCDC's data processing and validation procedures.
#
#######################################################################

data_WUNZIQ
_symmetry_cell_setting           monoclinic
_symmetry_space_group_name_H-M   'C 2/c'
_symmetry_Int_Tables_number      15
_space_group_name_Hall           '-C 2yn'
loop_
_symmetry_equiv_pos_site_id
_symmetry_equiv_pos_as_xyz
1 x,y,z
2 -x,y,1/2-z
3 1/2+x,1/2+y,z
4 1/2-x,1/2+y,1/2-z
5 -x,-y,-z
6 x,-y,1/2+z
7 1/2-x,1/2-y,-z
8 1/2+x,1/2-y,1/2+z
_cell_length_a                   10.5833(18)
_cell_length_b                   13.4832(18)
_cell_length_c                   15.740(2)
_cell_angle_alpha                90
_cell_angle_beta                 95.644(4)
_cell_angle_gamma                90
_cell_volume                     2235.16
loop_
_atom_site_label
_atom_site_type_symbol
_atom_site_fract_x
_atom_site_fract_y
_atom_site_fract_z
Co1 Co 0.5000 0.45906(10) 0.2500
Co2 Co 0.0000 0.5000 0.0000
N1 N 0.1589(5) 0.5384(4) 0.0776(4)
N2 N 0.5000 0.6097(6) 0.2500
N3 N 0.3270(5) 0.4944(4) 0.1644(3)
N4 N 0.0736(5) 0.3578(4) 0.0409(3)
N5 N 0.2148(5) 0.6244(4) 0.1060(4)
C1 C 0.2269(6) 0.4635(5) 0.1132(4)
C2 C 0.1838(6) 0.3631(5) 0.0926(4)
C3 C 0.3147(6) 0.5948(5) 0.1576(4)
C4 C 0.4065(6) 0.6601(5) 0.2047(4)
C5 C 0.4042(6) 0.7636(5) 0.2028(4)
H1 H 0.3398 0.7976 0.1704
C6 C 0.5000 0.8137(8) 0.2500
H2 H 0.5000 0.8827 0.2500
N6 N 0.2024(6) 0.1866(5) 0.0981(4)
C7 C 0.2464(6) 0.2766(5) 0.1201(4)
H3 H 0.3220 0.2817 0.1552
C8 C 0.0933(7) 0.1843(5) 0.0486(4)
H4 H 0.0585 0.1230 0.0327
C9 C 0.0293(6) 0.2684(5) 0.0198(4)
H5 H -0.0464 0.2624 -0.0151
Cl1 Cl 0.5982(3) 0.3786(3) 0.1502(3)
O1 O -0.1106(5) 0.5105(4) 0.1101(3)
H6 H -0.0829 0.5585 0.1363
H7 H -0.1887 0.4949 0.1154
N1A N 0.8411(5) 0.5384(4) 0.4224(4)
N3A N 0.6730(5) 0.4944(4) 0.3356(3)
N4A N 0.9264(5) 0.3578(4) 0.4591(3)
N5A N 0.7852(5) 0.6244(4) 0.3940(4)
C1A C 0.7731(6) 0.4635(5) 0.3868(4)
C2A C 0.8162(6) 0.3631(5) 0.4074(4)
C3A C 0.6853(6) 0.5948(5) 0.3424(4)
C4A C 0.5935(6) 0.6601(5) 0.2953(4)
C5A C 0.5958(6) 0.7636(5) 0.2972(4)
H1A H 0.6602 0.7976 0.3296
N6A N 0.7976(6) 0.1866(5) 0.4019(4)
C7A C 0.7536(6) 0.2766(5) 0.3799(4)
H3A H 0.6780 0.2817 0.3448
C8A C 0.9067(7) 0.1843(5) 0.4514(4)
H4A H 0.9415 0.1230 0.4673
C9A C 0.9707(6) 0.2684(5) 0.4802(4)
H5A H 1.0464 0.2624 0.5151
Cl1A Cl 0.4018(3) 0.3786(3) 0.3498(3)
O1D O 0.1106(5) 0.4895(4) -0.1101(3)
H6D H 0.0829 0.4415 -0.1363
H7D H 0.1887 0.5051 -0.1154
Co2A Co 1.0000 0.5000 0.5000
N1D N -0.1589(5) 0.4616(4) -0.0776(4)
N4D N -0.0736(5) 0.6422(4) -0.0409(3)
O2 O 0.5000 0.1356(8) 0.2500
H8 H 0.5535 0.1680 0.2241
H8A H 0.4465 0.1680 0.2759
loop_
_geom_bond_atom_site_label_1
_geom_bond_atom_site_label_2
_geom_bond_site_symmetry_1
_geom_bond_site_symmetry_2
Co1 N2 1_555 1_555
Co2 N1 1_555 1_555
N1 N5 1_555 1_555
N2 C4 1_555 1_555
N3 Co1 1_555 1_555
N4 Co2 1_555 1_555
N5 C3 1_555 1_555
C1 N1 1_555 1_555
C2 N4 1_555 1_555
C3 N3 1_555 1_555
C4 C3 1_555 1_555
C5 C4 1_555 1_555
H1 C5 1_555 1_555
C6 C5 1_555 1_555
H2 C6 1_555 1_555
N6 C7 1_555 1_555
C7 C2 1_555 1_555
H3 C7 1_555 1_555
C8 N6 1_555 1_555
H4 C8 1_555 1_555
C9 N4 1_555 1_555
H5 C9 1_555 1_555
Cl1 Co1 1_555 1_555
O1 Co2 1_555 1_555
H6 O1 1_555 1_555
H7 O1 1_555 1_555
O2 H8 1_555 1_555
N1A N5A 1_555 1_555
N3A Co1 1_555 1_555
N4A C2A 1_555 1_555
N5A C3A 1_555 1_555
C1A N1A 1_555 1_555
C2A C1A 1_555 1_555
C3A N3A 1_555 1_555
C4A N2 1_555 1_555
C5A C6 1_555 1_555
H1A C5A 1_555 1_555
N6A C7A 1_555 1_555
C7A C2A 1_555 1_555
H3A C7A 1_555 1_555
C8A N6A 1_555 1_555
H4A C8A 1_555 1_555
C9A N4A 1_555 1_555
H5A C9A 1_555 1_555
Cl1A Co1 1_555 1_555
O1D Co2 1_555 1_555
H6D O1D 1_555 1_555
H7D O1D 1_555 1_555
Co2A N1A 1_555 1_555
N1D Co2 1_555 1_555
N4D Co2 1_555 1_555
H8A O2 1_555 1_555
N3 C1 1_555 1_555
C1 C2 1_555 1_555
C8 C9 1_555 1_555
N3A C1A 1_555 1_555
N4A Co2A 1_555 1_555
C3A C4A 1_555 1_555
C4A C5A 1_555 1_555
C8A C9A 1_555 1_555

#END
