
#######################################################################
#
#                 Cambridge Crystallographic Data Centre
#                                CCDC 
#
#######################################################################
#
# If this CIF has been generated from an entry in the Cambridge 
# Structural Database, then it will include bibliographic, chemical, 
# crystal, experimental, refinement or atomic coordinate data resulting 
# from the CCDC's data processing and validation procedures.
#
#######################################################################

data_WUPDIW
_symmetry_cell_setting           orthorhombic
_symmetry_space_group_name_H-M   'P c a 21'
_symmetry_Int_Tables_number      29
_space_group_name_Hall           'P 2c -2ac'
loop_
_symmetry_equiv_pos_site_id
_symmetry_equiv_pos_as_xyz
1 x,y,z
2 -x,-y,1/2+z
3 1/2+x,-y,z
4 1/2-x,y,1/2+z
_cell_length_a                   38.1763(6)
_cell_length_b                   31.3516(5)
_cell_length_c                   29.1087(6)
_cell_angle_alpha                90
_cell_angle_beta                 90
_cell_angle_gamma                90
_cell_volume                     34839.9
loop_
_atom_site_label
_atom_site_type_symbol
_atom_site_fract_x
_atom_site_fract_y
_atom_site_fract_z
Cu1 Cu 0.48748(4) 0.91721(5) 0.67038(7)
Cu2 Cu 0.47967(4) 0.58352(5) 0.69080(7)
Cu3 Cu 0.53705(4) 0.58657(5) 0.30978(6)
Cu4 Cu 0.50395(4) 0.91738(5) 0.31443(6)
Cu5 Cu 0.30176(5) 0.74644(5) 0.47583(6)
Cu6 Cu 0.70021(4) 0.76705(5) 0.52099(6)
Cr1 Cr 0.31246(5) 0.76200(6) 0.77709(7)
Cr2 Cr 0.36418(4) 0.73040(6) 0.18667(7)
Cr3 Cr 0.69153(4) 0.77906(5) 0.22172(7)
Cr4 Cr 0.63751(4) 0.75101(6) 0.81477(7)
Cr5 Cr 0.36095(4) 0.47239(6) 0.46356(7)
Cr6 Cr 0.33304(4) 1.02471(6) 0.47888(7)
Cr7 Cr 0.65176(4) 1.04031(5) 0.50758(6)
Cr8 Cr 0.66433(5) 0.49050(6) 0.54051(7)
O1 O 0.35063(18) 0.8014(2) 0.7602(3)
O2 O 0.28124(17) 0.8113(2) 0.7872(3)
O3 O 0.34516(19) 0.7139(2) 0.7633(3)
O4 O 0.3244(2) 0.7608(2) 0.8399(3)
O5 O 0.29888(16) 0.7613(2) 0.7108(3)
O6 O 0.27383(18) 0.7218(2) 0.7880(3)
O7 O 0.40294(18) 0.6954(2) 0.2069(3)
O8 O 0.33654(17) 0.6807(2) 0.1677(3)
O9 O 0.39195(17) 0.7798(2) 0.2032(2)
O10 O 0.38622(17) 0.7317(2) 0.1236(3)
O11 O 0.34432(17) 0.7299(2) 0.2460(2)
O12 O 0.32564(17) 0.7665(2) 0.1642(3)
O13 O 0.66286(16) 0.7291(2) 0.2332(3)
O14 O 0.67711(18) 0.7756(2) 0.1532(3)
O15 O 0.65049(15) 0.8138(2) 0.2323(3)
O16 O 0.71814(17) 0.8307(2) 0.2069(3)
O17 O 0.70237(18) 0.7814(2) 0.2833(3)
O18 O 0.73203(17) 0.7424(2) 0.2072(3)
O19 O 0.60631(19) 0.7955(2) 0.7908(3)
O20 O 0.6144(2) 0.7524(2) 0.8734(3)
O21 O 0.60238(17) 0.7097(2) 0.7926(3)
O22 O 0.66793(16) 0.7041(2) 0.8353(2)
O23 O 0.65815(17) 0.7512(2) 0.7508(2)
O24 O 0.6738(2) 0.7917(3) 0.8341(3)
O25 O 0.38660(17) 0.4846(2) 0.5188(3)
O26 O 0.32167(18) 0.4535(2) 0.4975(3)
O27 O 0.40055(16) 0.4916(2) 0.4276(3)
O28 O 0.37921(19) 0.4135(2) 0.4572(3)
O29 O 0.34298(17) 0.5314(2) 0.4640(3)
O30 O 0.33586(18) 0.4639(2) 0.4026(3)
O31 O 0.36376(17) 1.0080(2) 0.5294(3)
O32 O 0.35083(19) 1.0837(2) 0.4807(3)
O33 O 0.37001(18) 1.0109(2) 0.4358(3)
O34 O 0.30221(19) 1.0395(2) 0.4253(3)
O35 O 0.31750(17) 0.9659(2) 0.4746(3)
O36 O 0.29543(17) 1.0379(2) 0.5203(3)
O37 O 0.61508(17) 1.0231(2) 0.5481(3)
O38 O 0.68138(17) 1.0581(2) 0.5585(2)
O39 O 0.62208(17) 1.0213(2) 0.4550(3)
O40 O 0.63218(17) 1.0978(2) 0.4995(2)
O41 O 0.66945(15) 0.98280(19) 0.5107(2)
O42 O 0.68991(16) 1.0552(2) 0.4644(2)
O43 O 0.62332(19) 0.5054(2) 0.5749(3)
O44 O 0.65034(19) 0.4299(2) 0.5418(3)
O45 O 0.63758(17) 0.4987(2) 0.4835(3)
O46 O 0.70550(19) 0.4755(2) 0.5009(3)
O47 O 0.67747(18) 0.5504(2) 0.5372(3)
O48 O 0.69152(19) 0.4834(3) 0.5967(3)
O49 O 0.47510(19) 0.5254(2) 0.7426(3)
O50 O 0.4479(2) 0.4659(3) 0.7503(3)
O51 O 0.4226(2) 0.5236(3) 0.7723(4)
O52 O 0.5007(2) 0.9670(3) 0.2522(3)
O53 O 0.4761(2) 1.0253(3) 0.2742(3)
O54 O 0.5202(2) 1.0269(3) 0.2281(4)
O55 O 0.49110(18) 0.8619(3) 0.6140(3)
H1 H 0.490(3) 0.8657(5) 0.5854(5)
H2 H 0.493(3) 0.8356(5) 0.6196(3)
O56 O 0.4884(2) 0.6404(3) 0.6290(3)
H3 H 0.485(3) 0.6379(11) 0.6004(6)
H4 H 0.495(3) 0.6655(11) 0.6349(5)
O57 O 0.5246(2) 0.6423(3) 0.3634(3)
H5 H 0.515(3) 0.6659(16) 0.3567(8)
H6 H 0.528(3) 0.6413(15) 0.3919(8)
O58 O 0.50618(18) 0.8624(3) 0.3737(3)
H7 H 0.499(3) 0.8369(11) 0.3710(13)
H8 H 0.514(3) 0.8662(10) 0.4006(13)
O59 O 0.3685(2) 0.7482(3) 0.4895(3)
H9 H 0.3837(3) 0.738(3) 0.4720(19)
H10 H 0.3784(3) 0.760(3) 0.5121(19)
O60 O 0.6348(2) 0.7631(3) 0.5085(3)
H11 H 0.6249(2) 0.756(3) 0.4840(12)
H12 H 0.6195(3) 0.769(3) 0.5283(12)
O61 O 0.24233(19) 0.7410(3) 0.4619(3)
H13 H 0.2305(6) 0.7183(7) 0.463(4)
H14 H 0.2289(6) 0.7616(6) 0.456(4)
O62 O 0.76054(19) 0.7671(3) 0.5346(3)
H15 H 0.7709(5) 0.784(3) 0.553(3)
H16 H 0.7752(5) 0.750(2) 0.523(3)
N1 N 0.4426(2) 0.8946(3) 0.6948(4)
N2 N 0.4426(2) 0.6186(3) 0.7220(4)
N3 N 0.2946(2) 0.7396(3) 0.5429(3)
N4 N 0.4976(2) 0.6071(3) 0.2682(3)
N5 N 0.4780(2) 0.8761(3) 0.2743(4)
N6 N 0.3111(2) 0.7558(3) 0.4091(3)
N7 N 0.5708(2) 0.6254(3) 0.2780(3)
N8 N 0.54882(19) 0.8980(3) 0.2877(3)
N9 N 0.7066(2) 0.7592(3) 0.4523(3)
N10 N 0.5149(2) 0.8807(3) 0.7134(4)
N11 N 0.5159(2) 0.6090(3) 0.7302(4)
N12 N 0.6894(2) 0.7749(3) 0.5880(3)
N13 N 0.4433(2) 0.5585(3) 0.6473(3)
N14 N 0.5021(2) 0.5471(3) 0.3408(4)
N15 N 0.3085(3) 0.6830(3) 0.4655(3)
N16 N 0.4580(2) 0.9542(3) 0.6257(4)
N17 N 0.4585(2) 0.9383(3) 0.3391(3)
N18 N 0.2975(2) 0.8110(3) 0.4836(3)
N19 N 0.5310(2) 0.9451(3) 0.6463(3)
N20 N 0.5320(2) 0.9574(3) 0.3560(3)
N21 N 0.6996(2) 0.8321(3) 0.5106(3)
N22 N 0.5169(2) 0.5496(3) 0.6584(4)
N23 N 0.5751(2) 0.5646(3) 0.3514(4)
N24 N 0.7020(3) 0.7044(3) 0.5307(3)
N25 N 0.4481(2) 0.5035(3) 0.7539(3)
N26 N 0.5005(3) 1.0053(4) 0.2498(4)
C1 C 0.4165(3) 0.9177(4) 0.7088(4)
H17 H 0.4193 0.9478 0.7068
C2 C 0.3856(3) 0.9035(4) 0.7258(5)
H18 H 0.3681 0.9229 0.7356
C3 C 0.3803(2) 0.8597(4) 0.7285(4)
C4 C 0.4058(3) 0.8333(4) 0.7134(5)
H19 H 0.4023 0.8033 0.7133
C5 C 0.4380(3) 0.8509(4) 0.6976(5)
H20 H 0.4566 0.8324 0.6889
C6 C 0.3488(3) 0.8406(4) 0.7511(5)
C7 C 0.3175(3) 0.8658(4) 0.7566(5)
H21 H 0.3183 0.8946 0.7467
C8 C 0.2855(3) 0.8506(4) 0.7757(5)
C9 C 0.2593(4) 0.8788(4) 0.7881(7)
H22 H 0.2383 0.8732 0.7696
H23 H 0.2672 0.9081 0.7827
H24 H 0.2537 0.8751 0.8207
C10 C 0.4212(3) 0.6417(4) 0.6963(5)
H25 H 0.4218 0.6398 0.6637
C11 C 0.3963(3) 0.6710(4) 0.7199(5)
H26 H 0.3820 0.6898 0.7025
C12 C 0.3940(3) 0.6706(4) 0.7658(4)
C13 C 0.4174(3) 0.6439(4) 0.7893(5)
H27 H 0.4170 0.6438 0.8219
C14 C 0.4398(3) 0.6193(4) 0.7683(4)
H28 H 0.4545 0.6013 0.7860
C15 C 0.3691(2) 0.7013(4) 0.7890(4)
C16 C 0.3719(3) 0.7127(4) 0.8323(4)
H29 H 0.3914 0.7010 0.8482
C17 C 0.3508(3) 0.7392(4) 0.8581(4)
C18 C 0.3583(4) 0.7501(5) 0.9101(5)
H30 H 0.3604 0.7236 0.9277
H31 H 0.3390 0.7672 0.9224
H32 H 0.3803 0.7663 0.9124
C19 C 0.2695(3) 0.7163(4) 0.5613(4)
H33 H 0.2543 0.7012 0.5411
C20 C 0.2635(4) 0.7123(4) 0.6093(4)
H34 H 0.2448 0.6958 0.6214
C21 C 0.2860(3) 0.7332(3) 0.6363(4)
C22 C 0.3120(4) 0.7575(4) 0.6184(5)
H35 H 0.3276 0.7725 0.6381
C23 C 0.3156(3) 0.7600(4) 0.5720(4)
H36 H 0.3339 0.7772 0.5598
C24 C 0.2820(3) 0.7316(4) 0.6911(4)
C25 C 0.2610(3) 0.7030(4) 0.7115(5)
H37 H 0.2478 0.6842 0.6926
C26 C 0.2575(3) 0.6993(4) 0.7584(5)
C27 C 0.2323(3) 0.6684(4) 0.7761(4)
H38 H 0.2266 0.6477 0.7520
H39 H 0.2110 0.6833 0.7857
H40 H 0.2425 0.6535 0.8025
C28 C 0.4888(3) 0.6482(4) 0.2664(5)
H41 H 0.5041 0.6678 0.2812
C29 C 0.4599(3) 0.6646(4) 0.2453(5)
H42 H 0.4557 0.6945 0.2456
C30 C 0.4373(3) 0.6376(3) 0.2239(4)
C31 C 0.4459(2) 0.5941(3) 0.2259(4)
H43 H 0.4300 0.5741 0.2128
C32 C 0.4744(3) 0.5799(4) 0.2448(4)
H44 H 0.4798 0.5504 0.2427
C33 C 0.4043(3) 0.6527(3) 0.2036(3)
C34 C 0.3795(3) 0.6257(4) 0.1874(5)
H45 H 0.3846 0.5961 0.1855
C35 C 0.3445(3) 0.6415(4) 0.1722(5)
C36 C 0.3198(3) 0.6105(4) 0.1562(5)
H46 H 0.3171 0.5880 0.1794
H47 H 0.3283 0.5978 0.1275
H48 H 0.2972 0.6242 0.1508
C37 C 0.4835(3) 0.8761(4) 0.2255(4)
H49 H 0.4992 0.8965 0.2130
C38 C 0.4668(3) 0.8475(3) 0.1950(5)
H50 H 0.4723 0.8467 0.1632
C39 C 0.4422(2) 0.8208(3) 0.2140(4)
C40 C 0.4355(3) 0.8245(4) 0.2617(5)
H51 H 0.4180 0.8071 0.2752
C41 C 0.4534(2) 0.8520(4) 0.2885(4)
H52 H 0.4473 0.8535 0.3201
C42 C 0.4206(3) 0.7918(3) 0.1841(4)
C43 C 0.4342(3) 0.7767(3) 0.1436(4)
H53 H 0.4574 0.7846 0.1355
C44 C 0.4152(3) 0.7499(4) 0.1132(5)
C45 C 0.4295(4) 0.7419(4) 0.0673(5)
H54 H 0.4102 0.7365 0.0459
H55 H 0.4449 0.7169 0.0684
H56 H 0.4428 0.7668 0.0571
C46 C 0.2878(3) 0.7752(3) 0.3814(4)
H57 H 0.2680 0.7880 0.3958
C47 C 0.2897(3) 0.7783(3) 0.3348(4)
H58 H 0.2723 0.7933 0.3178
C48 C 0.3177(2) 0.7590(3) 0.3132(4)
C49 C 0.3435(3) 0.7393(4) 0.3410(4)
H59 H 0.3635 0.7264 0.3273
C50 C 0.3396(3) 0.7389(4) 0.3856(4)
H60 H 0.3577 0.7261 0.4033
C51 C 0.3230(3) 0.7581(3) 0.2614(4)
C52 C 0.3040(3) 0.7844(4) 0.2341(4)
H61 H 0.2881 0.8030 0.2492
C53 C 0.3050(3) 0.7870(4) 0.1869(4)
C54 C 0.2796(3) 0.8183(4) 0.1620(5)
H62 H 0.2591 0.8236 0.1815
H63 H 0.2719 0.8057 0.1329
H64 H 0.2916 0.8453 0.1559
C55 C 0.5731(3) 0.6256(4) 0.2301(4)
H65 H 0.5593 0.6062 0.2127
C56 C 0.5959(3) 0.6546(4) 0.2070(4)
H66 H 0.5971 0.6541 0.1744
C57 C 0.6160(2) 0.6831(3) 0.2309(4)
C58 C 0.6148(3) 0.6813(4) 0.2777(4)
H67 H 0.6291 0.6993 0.2961
C59 C 0.5924(3) 0.6526(4) 0.2968(4)
H68 H 0.5926 0.6522 0.3295
C60 C 0.6384(3) 0.7146(4) 0.2067(4)
C61 C 0.6322(3) 0.7260(4) 0.1639(5)
H69 H 0.6122 0.7139 0.1492
C62 C 0.6533(3) 0.7553(4) 0.1373(5)
C63 C 0.6468(4) 0.7588(5) 0.0880(5)
H70 H 0.6231 0.7697 0.0828
H71 H 0.6491 0.7306 0.0738
H72 H 0.6639 0.7783 0.0743
C64 C 0.5723(3) 0.9264(4) 0.2662(6)
H73 H 0.5654 0.9553 0.2617
C65 C 0.6045(3) 0.9137(4) 0.2516(5)
H74 H 0.6205 0.9341 0.2397
C66 C 0.6139(3) 0.8707(3) 0.2543(4)
C67 C 0.5893(3) 0.8431(4) 0.2706(5)
H75 H 0.5935 0.8133 0.2690
C68 C 0.5594(2) 0.8572(4) 0.2887(4)
H76 H 0.5446 0.8370 0.3033
C69 C 0.6484(3) 0.8530(4) 0.2380(4)
C70 C 0.6772(3) 0.8838(4) 0.2267(6)
H77 H 0.6728 0.9135 0.2289
C71 C 0.7092(3) 0.8704(4) 0.2134(5)
C72 C 0.7367(3) 0.9028(4) 0.2037(6)
H78 H 0.7446 0.9157 0.2326
H79 H 0.7271 0.9250 0.1836
H80 H 0.7567 0.8891 0.1884
C73 C 0.6842(3) 0.7742(4) 0.4223(4)
H81 H 0.6637 0.7873 0.4341
C74 C 0.6878(3) 0.7728(4) 0.3750(4)
H82 H 0.6700 0.7839 0.3557
C75 C 0.7175(3) 0.7552(3) 0.3563(4)
C76 C 0.7424(3) 0.7406(4) 0.3866(4)
H83 H 0.7642 0.7305 0.3753
C77 C 0.7362(3) 0.7404(4) 0.4336(4)
H84 H 0.7526 0.7270 0.4534
C78 C 0.7221(2) 0.7535(3) 0.3053(4)
C79 C 0.7421(3) 0.7244(3) 0.2839(4)
H85 H 0.7540 0.7043 0.3027
C80 C 0.7470(3) 0.7210(4) 0.2373(4)
C81 C 0.7729(3) 0.6876(4) 0.2196(5)
H86 H 0.7943 0.6886 0.2382
H87 H 0.7786 0.6936 0.1875
H88 H 0.7623 0.6592 0.2220
C82 C 0.5439(3) 0.8581(4) 0.6996(5)
H89 H 0.5516 0.8597 0.6686
C83 C 0.5619(3) 0.8334(3) 0.7303(5)
H90 H 0.5812 0.8174 0.7189
C84 C 0.5544(3) 0.8298(4) 0.7764(4)
C85 C 0.5260(3) 0.8539(4) 0.7904(5)
H91 H 0.5195 0.8528 0.8219
C86 C 0.5059(3) 0.8801(4) 0.7607(5)
H92 H 0.4870 0.8968 0.7721
C87 C 0.5749(3) 0.8039(3) 0.8069(4)
C88 C 0.5656(3) 0.7923(4) 0.8504(4)
H93 H 0.5430 0.8012 0.8601
C89 C 0.5845(4) 0.7694(4) 0.8819(5)
C90 C 0.5713(4) 0.7616(5) 0.9299(5)
H94 H 0.5900 0.7486 0.9483
H95 H 0.5511 0.7425 0.9289
H96 H 0.5644 0.7888 0.9438
C91 C 0.5208(3) 0.6503(4) 0.7333(5)
H97 H 0.5036 0.6679 0.7193
C92 C 0.5479(3) 0.6709(3) 0.7543(5)
H98 H 0.5499 0.7011 0.7526
C93 C 0.5714(3) 0.6478(3) 0.7772(5)
C94 C 0.5656(3) 0.6050(4) 0.7786(5)
H99 H 0.5808 0.5876 0.7963
C95 C 0.5386(3) 0.5865(4) 0.7557(5)
H100 H 0.5356 0.5565 0.7578
C96 C 0.6039(3) 0.6693(3) 0.7990(4)
C97 C 0.6290(3) 0.6474(3) 0.8214(4)
H101 H 0.6255 0.6177 0.8254
C98 C 0.6606(3) 0.6654(4) 0.8397(4)
C99 C 0.6859(4) 0.6381(4) 0.8603(5)
H102 H 0.6971 0.6207 0.8365
H103 H 0.6744 0.6194 0.8827
H104 H 0.7037 0.6554 0.8759
C100 C 0.7113(3) 0.7988(4) 0.6131(4)
H105 H 0.7300 0.8134 0.5985
C101 C 0.7068(3) 0.8025(4) 0.6614(4)
H106 H 0.7218 0.8209 0.6784
C102 C 0.6813(2) 0.7803(3) 0.6837(4)
C103 C 0.6596(3) 0.7569(4) 0.6577(4)
H107 H 0.6406 0.7419 0.6711
C104 C 0.6659(3) 0.7552(4) 0.6084(4)
H108 H 0.6509 0.7377 0.5905
C105 C 0.6790(3) 0.7818(3) 0.7340(4)
C106 C 0.6942(3) 0.8113(3) 0.7593(4)
H109 H 0.7069 0.8329 0.7437
C107 C 0.6933(3) 0.8134(4) 0.8076(4)
C108 C 0.7179(3) 0.8421(4) 0.8332(4)
H110 H 0.7419 0.8376 0.8221
H111 H 0.7168 0.8355 0.8661
H112 H 0.7111 0.8719 0.8282
C109 C 0.4126(3) 0.5439(4) 0.6623(4)
H113 H 0.4070 0.5486 0.6937
C110 C 0.3890(3) 0.5230(4) 0.6363(5)
H114 H 0.3677 0.5131 0.6493
C111 C 0.3965(3) 0.5164(4) 0.5903(5)
C112 C 0.4283(3) 0.5306(4) 0.5735(5)
H115 H 0.4345 0.5259 0.5423
C113 C 0.4510(3) 0.5517(4) 0.6029(4)
H116 H 0.4727 0.5618 0.5912
C114 C 0.3718(3) 0.4945(4) 0.5564(4)
C115 C 0.3412(3) 0.4846(5) 0.5687(5)
H117 H 0.3339 0.4920 0.5989
C116 C 0.3150(3) 0.4610(6) 0.5372(6)
C117 C 0.2783(4) 0.4485(8) 0.5569(5)
H118 H 0.2749 0.4625 0.5867
H119 H 0.2771 0.4175 0.5608
H120 H 0.2600 0.4578 0.5355
C118 C 0.5083(3) 0.5050(3) 0.3478(4)
H121 H 0.5300 0.4932 0.3380
C119 C 0.4849(3) 0.4799(4) 0.3678(5)
H122 H 0.4899 0.4505 0.3724
C120 C 0.4513(3) 0.4975(3) 0.3827(4)
C121 C 0.4460(3) 0.5390(3) 0.3744(4)
H123 H 0.4243 0.5519 0.3827
C122 C 0.4704(3) 0.5618(4) 0.3549(5)
H124 H 0.4657 0.5912 0.3503
C123 C 0.4239(3) 0.4702(3) 0.4070(3)
C124 C 0.4263(3) 0.4263(4) 0.4113(5)
H125 H 0.4451 0.4124 0.3962
C125 C 0.4033(3) 0.4015(4) 0.4359(4)
C126 C 0.4110(4) 0.3519(4) 0.4379(5)
H126 H 0.3889 0.3363 0.4406
H127 H 0.4258 0.3457 0.4645
H128 H 0.4231 0.3431 0.4097
C127 C 0.3301(3) 0.6600(3) 0.4902(4)
H129 H 0.3423 0.6729 0.5150
C128 C 0.3357(4) 0.6166(4) 0.4808(5)
H130 H 0.3489 0.6005 0.5023
C129 C 0.3232(3) 0.5956(4) 0.4424(4)
C130 C 0.2999(3) 0.6207(4) 0.4167(5)
H131 H 0.2883 0.6085 0.3910
C131 C 0.2934(4) 0.6622(4) 0.4279(4)
H132 H 0.2777 0.6779 0.4090
C132 C 0.3297(3) 0.5520(4) 0.4319(4)
C133 C 0.3251(3) 0.5362(4) 0.3884(4)
H133 H 0.3206 0.5557 0.3640
C134 C 0.3267(3) 0.4918(4) 0.3781(5)
C135 C 0.3151(5) 0.4762(4) 0.3327(5)
H134 H 0.2932 0.4602 0.3362
H135 H 0.3332 0.4576 0.3197
H136 H 0.3112 0.5005 0.3122
C136 C 0.4347(3) 0.9378(4) 0.5994(6)
H137 H 0.4324 0.9077 0.6005
C137 C 0.4126(3) 0.9591(4) 0.5698(5)
H138 H 0.3963 0.9446 0.5506
C138 C 0.4157(3) 1.0024(4) 0.5700(4)
C139 C 0.4401(4) 1.0212(4) 0.6001(5)
H139 H 0.4426 1.0513 0.6009
C140 C 0.4596(3) 0.9969(4) 0.6273(5)
H140 H 0.4751 1.0101 0.6484
C141 C 0.3906(3) 1.0277(3) 0.5384(4)
C142 C 0.4008(3) 1.0700(4) 0.5263(6)
H141 H 0.4216 1.0819 0.5388
C143 C 0.3805(4) 1.0937(4) 0.4964(5)
C144 C 0.3900(5) 1.1417(4) 0.4905(7)
H142 H 0.3727 1.1592 0.5068
H143 H 0.3898 1.1491 0.4578
H144 H 0.4133 1.1469 0.5033
C145 C 0.4326(3) 0.9527(3) 0.3087(4)
H145 H 0.4361 0.9504 0.2765
C146 C 0.4015(3) 0.9704(4) 0.3259(4)
H146 H 0.3835 0.9784 0.3051
C147 C 0.3965(3) 0.9765(4) 0.3727(4)
C148 C 0.4231(3) 0.9619(4) 0.4012(4)
H147 H 0.4202 0.9640 0.4336
C149 C 0.4540(3) 0.9442(4) 0.3837(4)
H148 H 0.4722 0.9362 0.4043
C150 C 0.3659(3) 0.9985(3) 0.3926(4)
C151 C 0.3369(3) 1.0048(3) 0.3675(4)
H149 H 0.3363 0.9927 0.3376
C152 C 0.3075(3) 1.0278(4) 0.3821(4)
C153 C 0.2786(3) 1.0385(4) 0.3509(5)
H150 H 0.2871 1.0575 0.3266
H151 H 0.2599 1.0529 0.3682
H152 H 0.2693 1.0124 0.3371
C154 C 0.2699(3) 0.8294(4) 0.5042(4)
H153 H 0.2511 0.8117 0.5139
C155 C 0.2673(3) 0.8724(3) 0.5121(4)
H154 H 0.2474 0.8841 0.5272
C156 C 0.2960(3) 0.8997(4) 0.4966(4)
C157 C 0.3241(3) 0.8802(4) 0.4736(5)
H155 H 0.3422 0.8971 0.4606
C158 C 0.3253(3) 0.8357(3) 0.4700(5)
H156 H 0.3457 0.8224 0.4580
C159 C 0.2974(3) 0.9474(3) 0.5006(4)
C160 C 0.2763(3) 0.9671(3) 0.5339(4)
H157 H 0.2615 0.9497 0.5522
C161 C 0.2762(3) 1.0122(4) 0.5414(4)
C162 C 0.2517(3) 1.0303(4) 0.5769(4)
H158 H 0.2612 1.0249 0.6077
H159 H 0.2287 1.0166 0.5741
H160 H 0.2493 1.0611 0.5722
C163 C 0.5363(3) 0.9479(5) 0.6017(5)
H161 H 0.5199 0.9345 0.5820
C164 C 0.5649(3) 0.9696(4) 0.5809(4)
H162 H 0.5674 0.9710 0.5485
C165 C 0.5899(3) 0.9893(3) 0.6113(4)
C166 C 0.5839(3) 0.9846(3) 0.6564(4)
H163 H 0.5996 0.9974 0.6777
C167 C 0.5558(2) 0.9619(3) 0.6728(4)
H164 H 0.5539 0.9580 0.7051
C168 C 0.6200(3) 1.0130(4) 0.5910(4)
C169 C 0.6480(2) 1.0232(4) 0.6159(4)
H165 H 0.6490 1.0122 0.6463
C170 C 0.6767(3) 1.0489(4) 0.6014(4)
C171 C 0.7045(3) 1.0630(4) 0.6312(4)
H166 H 0.6946 1.0716 0.6609
H167 H 0.7165 1.0874 0.6172
H168 H 0.7212 1.0397 0.6358
C172 C 0.5248(3) 0.9986(4) 0.3586(4)
H169 H 0.5052 1.0093 0.3423
C173 C 0.5448(3) 1.0265(4) 0.3840(4)
H170 H 0.5397 1.0561 0.3838
C174 C 0.5724(3) 1.0108(3) 0.4096(4)
C175 C 0.5787(3) 0.9685(4) 0.4068(5)
H171 H 0.5979 0.9563 0.4228
C176 C 0.5577(3) 0.9438(4) 0.3810(5)
H172 H 0.5620 0.9139 0.3811
C177 C 0.5948(3) 1.0387(4) 0.4417(4)
C178 C 0.5832(3) 1.0801(4) 0.4541(5)
H173 H 0.5606 1.0893 0.4448
C179 C 0.6044(3) 1.1081(4) 0.4798(4)
C180 C 0.5926(4) 1.1546(4) 0.4843(6)
H174 H 0.6084 1.1730 0.4667
H175 H 0.5932 1.1630 0.5168
H176 H 0.5687 1.1576 0.4725
C181 C 0.6733(2) 0.8551(3) 0.5239(4)
H177 H 0.6550 0.8413 0.5402
C182 C 0.6700(3) 0.8985(3) 0.5162(4)
H178 H 0.6500 0.9140 0.5263
C183 C 0.6966(3) 0.9177(3) 0.4936(3)
C184 C 0.7248(3) 0.8952(4) 0.4785(4)
H179 H 0.7431 0.9085 0.4616
C185 C 0.7257(3) 0.8531(4) 0.4885(4)
H180 H 0.7458 0.8373 0.4796
C186 C 0.6936(2) 0.9659(3) 0.4845(3)
C187 C 0.7151(3) 0.9854(3) 0.4558(4)
H181 H 0.7332 0.9695 0.4414
C188 C 0.7116(3) 1.0309(3) 0.4457(4)
C189 C 0.7372(3) 1.0503(4) 0.4112(4)
H182 H 0.7243 1.0608 0.3844
H183 H 0.7540 1.0284 0.4013
H184 H 0.7499 1.0740 0.4256
C190 C 0.5464(3) 0.5677(4) 0.6429(5)
H185 H 0.5493 0.5974 0.6481
C191 C 0.5732(3) 0.5463(4) 0.6196(5)
H186 H 0.5927 0.5611 0.6071
C192 C 0.5700(3) 0.5035(4) 0.6157(4)
C193 C 0.5417(3) 0.4823(4) 0.6317(4)
H187 H 0.5396 0.4523 0.6283
C194 C 0.5150(3) 0.5069(4) 0.6539(5)
H188 H 0.4952 0.4925 0.6660
C195 C 0.5997(3) 0.4805(3) 0.5873(4)
C196 C 0.5968(3) 0.4378(4) 0.5802(5)
H189 H 0.5764 0.4235 0.5907
C197 C 0.6232(3) 0.4139(3) 0.5576(4)
C198 C 0.6210(3) 0.3673(4) 0.5554(5)
H190 H 0.6402 0.3549 0.5731
H191 H 0.6226 0.3581 0.5234
H192 H 0.5985 0.3580 0.5683
C199 C 0.6059(3) 0.5485(4) 0.3365(5)
H193 H 0.6106 0.5497 0.3044
C200 C 0.6295(3) 0.5316(4) 0.3628(4)
H194 H 0.6507 0.5212 0.3498
C201 C 0.6237(3) 0.5285(3) 0.4130(4)
C202 C 0.5936(3) 0.5423(4) 0.4244(4)
H195 H 0.5876 0.5393 0.4559
C203 C 0.5692(3) 0.5605(4) 0.3974(4)
H196 H 0.5479 0.5705 0.4104
C204 C 0.6500(3) 0.5089(3) 0.4441(4)
C205 C 0.6844(3) 0.5030(5) 0.4318(4)
H197 H 0.6906 0.5112 0.4014
C206 C 0.7113(3) 0.4865(4) 0.4588(4)
C207 C 0.7460(3) 0.4785(4) 0.4430(5)
H198 H 0.7483 0.4887 0.4113
H199 H 0.7507 0.4478 0.4441
H200 H 0.7627 0.4936 0.4627
C208 C 0.7200(3) 0.6873(4) 0.5666(5)
H201 H 0.7351 0.7053 0.5839
C209 C 0.7172(3) 0.6437(4) 0.5793(4)
H202 H 0.7300 0.6331 0.6048
C210 C 0.6968(3) 0.6177(4) 0.5554(4)
C211 C 0.6768(3) 0.6359(3) 0.5204(4)
H203 H 0.6603 0.6188 0.5042
C212 C 0.6805(3) 0.6770(3) 0.5093(4)
H204 H 0.6669 0.6876 0.4845
C213 C 0.6922(2) 0.5720(4) 0.5693(4)
C214 C 0.7037(3) 0.5576(4) 0.6104(5)
H205 H 0.7127 0.5773 0.6322
C215 C 0.7026(3) 0.5122(4) 0.6218(4)
C216 C 0.7200(3) 0.4973(4) 0.6666(5)
H206 H 0.7332 0.4710 0.6609
H207 H 0.7019 0.4918 0.6897
H208 H 0.7359 0.5195 0.6778
Cu1A Cu 0.51252(4) 1.08279(5) 0.17038(7)
Cu3A Cu 0.46295(4) 0.41343(5) 0.80978(6)
O50A O 0.5521(2) 0.5341(3) 0.2503(3)
O54A O 0.4798(2) 0.9731(3) 0.7281(4)
O63 O 0.7502(4) 0.6402(4) 0.4482(5)
H209 H 0.7300 0.6502 0.4441
C217 C 0.7498(4) 0.5980(4) 0.4409(6)
H210 H 0.7336 0.5845 0.4626
H211 H 0.7734 0.5865 0.4454
H212 H 0.7420 0.5923 0.4094
O64 O 0.1657(3) 0.8409(4) 0.5587(4)
H213 H 0.1568 0.8498 0.5341
C218 C 0.1408(4) 0.8434(5) 0.5941(5)
H214 H 0.1274 0.8698 0.5910
H215 H 0.1528 0.8430 0.6239
H216 H 0.1249 0.8189 0.5921
O65 O 0.8023(4) 0.8534(5) 0.4566(6)
H217 H 0.8181 0.8718 0.4596
C219 C 0.8185(8) 0.8107(7) 0.4476(8)
H218 H 0.8438 0.8123 0.4529
H219 H 0.8141 0.8023 0.4157
H220 H 0.8082 0.7894 0.4683
O66 O 0.4700(4) 0.6244(5) 0.1086(5)
H221 H 0.4779 0.5994 0.1076
C220 C 0.4934(7) 0.6500(9) 0.1291(10)
H222 H 0.5002 0.6376 0.1588
H223 H 0.4829 0.6781 0.1341
H224 H 0.5141 0.6528 0.1096
O67 O 0.6774(4) 0.5372(6) 0.1863(6)
H225 H 0.6885 0.5155 0.1949
C221 C 0.6510(5) 0.5479(9) 0.2203(9)
H226 H 0.6619 0.5636 0.2456
H227 H 0.6403 0.5217 0.2320
H228 H 0.6329 0.5657 0.2060
O68 O 0.1971(3) 0.7673(3) 0.5259(5)
H229 H 0.2003 0.7668 0.4974
C222 C 0.1742(5) 0.7333(6) 0.5386(8)
H230 H 0.1838 0.7184 0.5654
H231 H 0.1720 0.7132 0.5130
H232 H 0.1511 0.7448 0.5463
O69 O 0.7789(3) 0.6058(4) 0.6651(7)
H233 H 0.7681 0.6047 0.6400
C223 C 0.8015(4) 0.6390(5) 0.6645(8)
H234 H 0.8047 0.6488 0.6328
H235 H 0.8242 0.6298 0.6770
H236 H 0.7921 0.6623 0.6833
O70 O 0.3289(4) 0.8995(6) 0.2383(5)
H237 H 0.3156 0.8799 0.2293
C224 C 0.3636(4) 0.8935(7) 0.2188(7)
H238 H 0.3808 0.8906 0.2436
H239 H 0.3697 0.9181 0.1997
H240 H 0.3638 0.8676 0.1999
O71 O 0.4939(5) 0.6261(5) 0.8612(8)
H241 H 0.4813 0.6182 0.8833
C225 C 0.5019(5) 0.6696(6) 0.8658(7)
H242 H 0.5229 0.6728 0.8849
H243 H 0.4822 0.6843 0.8804
H244 H 0.5062 0.6819 0.8354
O72 O 0.2107(4) 0.8314(6) 0.3990(8)
H245 H 0.2141 0.8055 0.4051
C226 C 0.1866(6) 0.8479(7) 0.4290(10)
H246 H 0.1974 0.8710 0.4467
H247 H 0.1786 0.8254 0.4499
H248 H 0.1666 0.8591 0.4117
Cl1 Cl 0.63327(14) 0.88868(18) 0.8636(2)
Cl2 Cl 0.59426(14) 0.92781(16) 0.7893(2)
C227 C 0.6294(5) 0.8974(6) 0.8032(5)
H249 H 0.6509 0.9116 0.7919
H250 H 0.6274 0.8695 0.7874
Cl3 Cl 0.29186(13) 0.8859(2) 0.6356(2)
Cl4 Cl 0.36100(11) 0.86648(14) 0.6014(2)
C228 C 0.3311(4) 0.9062(5) 0.6165(9)
H251 H 0.3415 0.9242 0.6409
H252 H 0.3268 0.9246 0.5894
Cl5 Cl 0.6981(2) 0.8994(5) 0.3544(5)
Cl6 Cl 0.63323(19) 0.8734(3) 0.3970(3)
C229 C 0.6563(5) 0.9150(8) 0.3673(8)
H253 H 0.6437 0.9222 0.3386
H254 H 0.6571 0.9408 0.3868
Cl7 Cl 0.68422(14) 0.91931(18) 0.63452(19)
Cl8 Cl 0.62193(13) 0.86875(19) 0.6366(2)
C230 C 0.6525(4) 0.8974(5) 0.6682(5)
H255 H 0.6404 0.9205 0.6852
H256 H 0.6636 0.8783 0.6910
Cl9 Cl 0.6756(2) 0.5859(3) 0.7266(3)
Cl10 Cl 0.6288(2) 0.6328(3) 0.6683(4)
C231 C 0.6319(7) 0.5906(15) 0.7077(19)
H257 H 0.6244 0.5637 0.6929
H258 H 0.6163 0.5961 0.7342
O73 O 0.6933(4) 0.9579(7) 0.7400(6)
O74 O 0.6994(5) 1.0270(7) 0.7527(8)
O75 O 0.6494(3) 0.9985(6) 0.7288(5)
N27 N 0.6806(4) 0.9951(6) 0.7424(5)
loop_
_geom_bond_atom_site_label_1
_geom_bond_atom_site_label_2
_geom_bond_site_symmetry_1
_geom_bond_site_symmetry_2
Cu1 O55 1_555 1_555
Cu2 O49 1_555 1_555
Cu3 O57 1_555 1_555
Cu4 O52 1_555 1_555
Cu5 O59 1_555 1_555
Cu6 O60 1_555 1_555
Cr1 O1 1_555 1_555
Cr2 O7 1_555 1_555
Cr3 O13 1_555 1_555
Cr4 O19 1_555 1_555
Cr5 O25 1_555 1_555
Cr6 O31 1_555 1_555
Cr7 O37 1_555 1_555
Cr8 O43 1_555 1_555
O1 C6 1_555 1_555
O2 Cr1 1_555 1_555
O3 Cr1 1_555 1_555
O4 Cr1 1_555 1_555
O5 Cr1 1_555 1_555
O6 Cr1 1_555 1_555
O7 C33 1_555 1_555
O8 Cr2 1_555 1_555
O9 Cr2 1_555 1_555
O10 Cr2 1_555 1_555
O11 Cr2 1_555 1_555
O12 Cr2 1_555 1_555
O13 C60 1_555 1_555
O14 Cr3 1_555 1_555
O15 Cr3 1_555 1_555
O16 Cr3 1_555 1_555
O17 Cr3 1_555 1_555
O18 Cr3 1_555 1_555
O19 C87 1_555 1_555
O20 Cr4 1_555 1_555
O21 Cr4 1_555 1_555
O22 Cr4 1_555 1_555
O23 Cr4 1_555 1_555
O24 Cr4 1_555 1_555
O25 C114 1_555 1_555
O26 Cr5 1_555 1_555
O27 Cr5 1_555 1_555
O28 Cr5 1_555 1_555
O29 Cr5 1_555 1_555
O30 Cr5 1_555 1_555
O31 C141 1_555 1_555
O32 Cr6 1_555 1_555
O33 Cr6 1_555 1_555
O34 Cr6 1_555 1_555
O35 Cr6 1_555 1_555
O36 Cr6 1_555 1_555
O37 C168 1_555 1_555
O38 Cr7 1_555 1_555
O39 Cr7 1_555 1_555
O40 Cr7 1_555 1_555
O41 Cr7 1_555 1_555
O42 Cr7 1_555 1_555
O43 C195 1_555 1_555
O44 Cr8 1_555 1_555
O45 Cr8 1_555 1_555
O46 Cr8 1_555 1_555
O47 Cr8 1_555 1_555
O48 Cr8 1_555 1_555
O49 N25 1_555 1_555
O50 N25 1_555 1_555
O51 N25 1_555 1_555
O52 N26 1_555 1_555
O53 N26 1_555 1_555
O54 N26 1_555 1_555
O55 H1 1_555 1_555
H2 O55 1_555 1_555
O56 Cu2 1_555 1_555
H3 O56 1_555 1_555
H4 O56 1_555 1_555
O57 H5 1_555 1_555
H6 O57 1_555 1_555
O58 Cu4 1_555 1_555
H7 O58 1_555 1_555
H8 O58 1_555 1_555
O59 H9 1_555 1_555
H10 O59 1_555 1_555
O60 H11 1_555 1_555
H12 O60 1_555 1_555
O61 Cu5 1_555 1_555
H13 O61 1_555 1_555
H14 O61 1_555 1_555
O62 Cu6 1_555 1_555
H15 O62 1_555 1_555
H16 O62 1_555 1_555
N1 Cu1 1_555 1_555
N2 Cu2 1_555 1_555
N3 Cu5 1_555 1_555
N4 Cu3 1_555 1_555
N5 Cu4 1_555 1_555
N6 Cu5 1_555 1_555
N7 Cu3 1_555 1_555
N8 Cu4 1_555 1_555
N9 Cu6 1_555 1_555
N10 Cu1 1_555 1_555
N11 Cu2 1_555 1_555
N12 Cu6 1_555 1_555
N13 Cu2 1_555 1_555
N14 Cu3 1_555 1_555
N15 Cu5 1_555 1_555
N16 Cu1 1_555 1_555
N17 Cu4 1_555 1_555
N18 Cu5 1_555 1_555
N19 Cu1 1_555 1_555
N20 Cu4 1_555 1_555
N21 Cu6 1_555 1_555
N22 Cu2 1_555 1_555
N23 Cu3 1_555 1_555
N24 Cu6 1_555 1_555
C1 N1 1_555 1_555
H17 C1 1_555 1_555
C2 C1 1_555 1_555
H18 C2 1_555 1_555
C3 C2 1_555 1_555
C4 C3 1_555 1_555
H19 C4 1_555 1_555
C5 N1 1_555 1_555
H20 C5 1_555 1_555
C6 C3 1_555 1_555
C7 C6 1_555 1_555
H21 C7 1_555 1_555
C8 O2 1_555 1_555
C9 C8 1_555 1_555
H22 C9 1_555 1_555
H23 C9 1_555 1_555
H24 C9 1_555 1_555
C10 N2 1_555 1_555
H25 C10 1_555 1_555
C11 C10 1_555 1_555
H26 C11 1_555 1_555
C12 C11 1_555 1_555
C13 C12 1_555 1_555
H27 C13 1_555 1_555
C14 N2 1_555 1_555
H28 C14 1_555 1_555
C15 O3 1_555 1_555
C16 C15 1_555 1_555
H29 C16 1_555 1_555
C17 O4 1_555 1_555
C18 C17 1_555 1_555
H30 C18 1_555 1_555
H31 C18 1_555 1_555
H32 C18 1_555 1_555
C19 N3 1_555 1_555
H33 C19 1_555 1_555
C20 C19 1_555 1_555
H34 C20 1_555 1_555
C21 C20 1_555 1_555
C22 C21 1_555 1_555
H35 C22 1_555 1_555
C23 N3 1_555 1_555
H36 C23 1_555 1_555
C24 O5 1_555 1_555
C25 C24 1_555 1_555
H37 C25 1_555 1_555
C26 O6 1_555 1_555
C27 C26 1_555 1_555
H38 C27 1_555 1_555
H39 C27 1_555 1_555
H40 C27 1_555 1_555
C28 N4 1_555 1_555
H41 C28 1_555 1_555
C29 C28 1_555 1_555
H42 C29 1_555 1_555
C30 C29 1_555 1_555
C31 C30 1_555 1_555
H43 C31 1_555 1_555
C32 N4 1_555 1_555
H44 C32 1_555 1_555
C33 C30 1_555 1_555
C34 C33 1_555 1_555
H45 C34 1_555 1_555
C35 O8 1_555 1_555
C36 C35 1_555 1_555
H46 C36 1_555 1_555
H47 C36 1_555 1_555
H48 C36 1_555 1_555
C37 N5 1_555 1_555
H49 C37 1_555 1_555
C38 C37 1_555 1_555
H50 C38 1_555 1_555
C39 C38 1_555 1_555
C40 C39 1_555 1_555
H51 C40 1_555 1_555
C41 N5 1_555 1_555
H52 C41 1_555 1_555
C42 O9 1_555 1_555
C43 C42 1_555 1_555
H53 C43 1_555 1_555
C44 O10 1_555 1_555
C45 C44 1_555 1_555
H54 C45 1_555 1_555
H55 C45 1_555 1_555
H56 C45 1_555 1_555
C46 N6 1_555 1_555
H57 C46 1_555 1_555
C47 C46 1_555 1_555
H58 C47 1_555 1_555
C48 C47 1_555 1_555
C49 C48 1_555 1_555
H59 C49 1_555 1_555
C50 N6 1_555 1_555
H60 C50 1_555 1_555
C51 O11 1_555 1_555
C52 C51 1_555 1_555
H61 C52 1_555 1_555
C53 O12 1_555 1_555
C54 C53 1_555 1_555
H62 C54 1_555 1_555
H63 C54 1_555 1_555
H64 C54 1_555 1_555
C55 N7 1_555 1_555
H65 C55 1_555 1_555
C56 C55 1_555 1_555
H66 C56 1_555 1_555
C57 C56 1_555 1_555
C58 C57 1_555 1_555
H67 C58 1_555 1_555
C59 N7 1_555 1_555
H68 C59 1_555 1_555
C60 C57 1_555 1_555
C61 C60 1_555 1_555
H69 C61 1_555 1_555
C62 O14 1_555 1_555
C63 C62 1_555 1_555
H70 C63 1_555 1_555
H71 C63 1_555 1_555
H72 C63 1_555 1_555
C64 N8 1_555 1_555
H73 C64 1_555 1_555
C65 C64 1_555 1_555
H74 C65 1_555 1_555
C66 C65 1_555 1_555
C67 C66 1_555 1_555
H75 C67 1_555 1_555
C68 N8 1_555 1_555
H76 C68 1_555 1_555
C69 O15 1_555 1_555
C70 C69 1_555 1_555
H77 C70 1_555 1_555
C71 O16 1_555 1_555
C72 C71 1_555 1_555
H78 C72 1_555 1_555
H79 C72 1_555 1_555
H80 C72 1_555 1_555
C73 N9 1_555 1_555
H81 C73 1_555 1_555
C74 C73 1_555 1_555
H82 C74 1_555 1_555
C75 C74 1_555 1_555
C76 C75 1_555 1_555
H83 C76 1_555 1_555
C77 N9 1_555 1_555
H84 C77 1_555 1_555
C78 O17 1_555 1_555
C79 C78 1_555 1_555
H85 C79 1_555 1_555
C80 O18 1_555 1_555
C81 C80 1_555 1_555
H86 C81 1_555 1_555
H87 C81 1_555 1_555
H88 C81 1_555 1_555
C82 N10 1_555 1_555
H89 C82 1_555 1_555
C83 C82 1_555 1_555
H90 C83 1_555 1_555
C84 C83 1_555 1_555
C85 C84 1_555 1_555
H91 C85 1_555 1_555
C86 N10 1_555 1_555
H92 C86 1_555 1_555
C87 C84 1_555 1_555
C88 C87 1_555 1_555
H93 C88 1_555 1_555
C89 O20 1_555 1_555
C90 C89 1_555 1_555
H94 C90 1_555 1_555
H95 C90 1_555 1_555
H96 C90 1_555 1_555
C91 N11 1_555 1_555
H97 C91 1_555 1_555
C92 C91 1_555 1_555
H98 C92 1_555 1_555
C93 C92 1_555 1_555
C94 C93 1_555 1_555
H99 C94 1_555 1_555
C95 N11 1_555 1_555
H100 C95 1_555 1_555
C96 O21 1_555 1_555
C97 C96 1_555 1_555
H101 C97 1_555 1_555
C98 O22 1_555 1_555
C99 C98 1_555 1_555
H102 C99 1_555 1_555
H103 C99 1_555 1_555
H104 C99 1_555 1_555
C100 N12 1_555 1_555
H105 C100 1_555 1_555
C101 C100 1_555 1_555
H106 C101 1_555 1_555
C102 C101 1_555 1_555
C103 C102 1_555 1_555
H107 C103 1_555 1_555
C104 N12 1_555 1_555
H108 C104 1_555 1_555
C105 O23 1_555 1_555
C106 C105 1_555 1_555
H109 C106 1_555 1_555
C107 O24 1_555 1_555
C108 C107 1_555 1_555
H110 C108 1_555 1_555
H111 C108 1_555 1_555
H112 C108 1_555 1_555
C109 N13 1_555 1_555
H113 C109 1_555 1_555
C110 C109 1_555 1_555
H114 C110 1_555 1_555
C111 C110 1_555 1_555
C112 C111 1_555 1_555
H115 C112 1_555 1_555
C113 N13 1_555 1_555
H116 C113 1_555 1_555
C114 C111 1_555 1_555
C115 C114 1_555 1_555
H117 C115 1_555 1_555
C116 O26 1_555 1_555
C117 C116 1_555 1_555
H118 C117 1_555 1_555
H119 C117 1_555 1_555
H120 C117 1_555 1_555
C118 N14 1_555 1_555
H121 C118 1_555 1_555
C119 C118 1_555 1_555
H122 C119 1_555 1_555
C120 C119 1_555 1_555
C121 C120 1_555 1_555
H123 C121 1_555 1_555
C122 N14 1_555 1_555
H124 C122 1_555 1_555
C123 O27 1_555 1_555
C124 C123 1_555 1_555
H125 C124 1_555 1_555
C125 O28 1_555 1_555
C126 C125 1_555 1_555
H126 C126 1_555 1_555
H127 C126 1_555 1_555
H128 C126 1_555 1_555
C127 N15 1_555 1_555
H129 C127 1_555 1_555
C128 C127 1_555 1_555
H130 C128 1_555 1_555
C129 C128 1_555 1_555
C130 C129 1_555 1_555
H131 C130 1_555 1_555
C131 N15 1_555 1_555
H132 C131 1_555 1_555
C132 O29 1_555 1_555
C133 C132 1_555 1_555
H133 C133 1_555 1_555
C134 O30 1_555 1_555
C135 C134 1_555 1_555
H134 C135 1_555 1_555
H135 C135 1_555 1_555
H136 C135 1_555 1_555
C136 N16 1_555 1_555
H137 C136 1_555 1_555
C137 C136 1_555 1_555
H138 C137 1_555 1_555
C138 C137 1_555 1_555
C139 C138 1_555 1_555
H139 C139 1_555 1_555
C140 N16 1_555 1_555
H140 C140 1_555 1_555
C141 C138 1_555 1_555
C142 C141 1_555 1_555
H141 C142 1_555 1_555
C143 O32 1_555 1_555
C144 C143 1_555 1_555
H142 C144 1_555 1_555
H143 C144 1_555 1_555
H144 C144 1_555 1_555
C145 N17 1_555 1_555
H145 C145 1_555 1_555
C146 C145 1_555 1_555
H146 C146 1_555 1_555
C147 C146 1_555 1_555
C148 C147 1_555 1_555
H147 C148 1_555 1_555
C149 N17 1_555 1_555
H148 C149 1_555 1_555
C150 O33 1_555 1_555
C151 C150 1_555 1_555
H149 C151 1_555 1_555
C152 O34 1_555 1_555
C153 C152 1_555 1_555
H150 C153 1_555 1_555
H151 C153 1_555 1_555
H152 C153 1_555 1_555
C154 N18 1_555 1_555
H153 C154 1_555 1_555
C155 C154 1_555 1_555
H154 C155 1_555 1_555
C156 C155 1_555 1_555
C157 C156 1_555 1_555
H155 C157 1_555 1_555
C158 N18 1_555 1_555
H156 C158 1_555 1_555
C159 O35 1_555 1_555
C160 C159 1_555 1_555
H157 C160 1_555 1_555
C161 O36 1_555 1_555
C162 C161 1_555 1_555
H158 C162 1_555 1_555
H159 C162 1_555 1_555
H160 C162 1_555 1_555
C163 N19 1_555 1_555
H161 C163 1_555 1_555
C164 C163 1_555 1_555
H162 C164 1_555 1_555
C165 C164 1_555 1_555
C166 C165 1_555 1_555
H163 C166 1_555 1_555
C167 N19 1_555 1_555
H164 C167 1_555 1_555
C168 C165 1_555 1_555
C169 C168 1_555 1_555
H165 C169 1_555 1_555
C170 O38 1_555 1_555
C171 C170 1_555 1_555
H166 C171 1_555 1_555
H167 C171 1_555 1_555
H168 C171 1_555 1_555
C172 N20 1_555 1_555
H169 C172 1_555 1_555
C173 C172 1_555 1_555
H170 C173 1_555 1_555
C174 C173 1_555 1_555
C175 C174 1_555 1_555
H171 C175 1_555 1_555
C176 N20 1_555 1_555
H172 C176 1_555 1_555
C177 O39 1_555 1_555
C178 C177 1_555 1_555
H173 C178 1_555 1_555
C179 O40 1_555 1_555
C180 C179 1_555 1_555
H174 C180 1_555 1_555
H175 C180 1_555 1_555
H176 C180 1_555 1_555
C181 N21 1_555 1_555
H177 C181 1_555 1_555
C182 C181 1_555 1_555
H178 C182 1_555 1_555
C183 C182 1_555 1_555
C184 C183 1_555 1_555
H179 C184 1_555 1_555
C185 N21 1_555 1_555
H180 C185 1_555 1_555
C186 O41 1_555 1_555
C187 C186 1_555 1_555
H181 C187 1_555 1_555
C188 O42 1_555 1_555
C189 C188 1_555 1_555
H182 C189 1_555 1_555
H183 C189 1_555 1_555
H184 C189 1_555 1_555
C190 N22 1_555 1_555
H185 C190 1_555 1_555
C191 C190 1_555 1_555
H186 C191 1_555 1_555
C192 C191 1_555 1_555
C193 C192 1_555 1_555
H187 C193 1_555 1_555
C194 N22 1_555 1_555
H188 C194 1_555 1_555
C195 C192 1_555 1_555
C196 C195 1_555 1_555
H189 C196 1_555 1_555
C197 O44 1_555 1_555
C198 C197 1_555 1_555
H190 C198 1_555 1_555
H191 C198 1_555 1_555
H192 C198 1_555 1_555
C199 N23 1_555 1_555
H193 C199 1_555 1_555
C200 C199 1_555 1_555
H194 C200 1_555 1_555
C201 C200 1_555 1_555
C202 C201 1_555 1_555
H195 C202 1_555 1_555
C203 N23 1_555 1_555
H196 C203 1_555 1_555
C204 O45 1_555 1_555
C205 C204 1_555 1_555
H197 C205 1_555 1_555
C206 O46 1_555 1_555
C207 C206 1_555 1_555
H198 C207 1_555 1_555
H199 C207 1_555 1_555
H200 C207 1_555 1_555
C208 N24 1_555 1_555
H201 C208 1_555 1_555
C209 C208 1_555 1_555
H202 C209 1_555 1_555
C210 C209 1_555 1_555
C211 C210 1_555 1_555
H203 C211 1_555 1_555
C212 N24 1_555 1_555
H204 C212 1_555 1_555
C213 O47 1_555 1_555
C214 C213 1_555 1_555
H205 C214 1_555 1_555
C215 O48 1_555 1_555
C216 C215 1_555 1_555
H206 C216 1_555 1_555
H207 C216 1_555 1_555
H208 C216 1_555 1_555
O63 H209 1_555 1_555
C217 O63 1_555 1_555
H210 C217 1_555 1_555
H211 C217 1_555 1_555
H212 C217 1_555 1_555
O64 H213 1_555 1_555
C218 O64 1_555 1_555
H214 C218 1_555 1_555
H215 C218 1_555 1_555
H216 C218 1_555 1_555
O65 H217 1_555 1_555
C219 O65 1_555 1_555
H218 C219 1_555 1_555
H219 C219 1_555 1_555
H220 C219 1_555 1_555
O66 H221 1_555 1_555
C220 O66 1_555 1_555
H222 C220 1_555 1_555
H223 C220 1_555 1_555
H224 C220 1_555 1_555
O67 H225 1_555 1_555
C221 O67 1_555 1_555
H226 C221 1_555 1_555
H227 C221 1_555 1_555
H228 C221 1_555 1_555
O68 H229 1_555 1_555
C222 O68 1_555 1_555
H230 C222 1_555 1_555
H231 C222 1_555 1_555
H232 C222 1_555 1_555
O69 H233 1_555 1_555
C223 O69 1_555 1_555
H234 C223 1_555 1_555
H235 C223 1_555 1_555
H236 C223 1_555 1_555
O70 H237 1_555 1_555
C224 O70 1_555 1_555
H238 C224 1_555 1_555
H239 C224 1_555 1_555
H240 C224 1_555 1_555
O71 H241 1_555 1_555
C225 O71 1_555 1_555
H242 C225 1_555 1_555
H243 C225 1_555 1_555
H244 C225 1_555 1_555
O72 H245 1_555 1_555
C226 O72 1_555 1_555
H246 C226 1_555 1_555
H247 C226 1_555 1_555
H248 C226 1_555 1_555
Cl1 C227 1_555 1_555
Cl2 C227 1_555 1_555
C227 H249 1_555 1_555
H250 C227 1_555 1_555
Cl3 C228 1_555 1_555
Cl4 C228 1_555 1_555
C228 H251 1_555 1_555
H252 C228 1_555 1_555
Cl5 C229 1_555 1_555
Cl6 C229 1_555 1_555
C229 H253 1_555 1_555
H254 C229 1_555 1_555
Cl7 C230 1_555 1_555
Cl8 C230 1_555 1_555
C230 H255 1_555 1_555
H256 C230 1_555 1_555
Cl9 C231 1_555 1_555
Cl10 C231 1_555 1_555
C231 H257 1_555 1_555
H258 C231 1_555 1_555
O73 N27 1_555 1_555
O74 N27 1_555 1_555
O75 N27 1_555 1_555
Cu1A O54 1_555 1_555
Cu3A O50 1_555 1_555
O50A Cu3 1_555 1_555
O54A Cu1 1_555 1_555
C4 C5 1_555 1_555
C7 C8 1_555 1_555
C12 C15 1_555 1_555
C13 C14 1_555 1_555
C16 C17 1_555 1_555
C21 C24 1_555 1_555
C22 C23 1_555 1_555
C25 C26 1_555 1_555
C31 C32 1_555 1_555
C34 C35 1_555 1_555
C39 C42 1_555 1_555
C40 C41 1_555 1_555
C43 C44 1_555 1_555
C48 C51 1_555 1_555
C49 C50 1_555 1_555
C52 C53 1_555 1_555
C58 C59 1_555 1_555
C61 C62 1_555 1_555
C66 C69 1_555 1_555
C67 C68 1_555 1_555
C70 C71 1_555 1_555
C75 C78 1_555 1_555
C76 C77 1_555 1_555
C79 C80 1_555 1_555
C85 C86 1_555 1_555
C88 C89 1_555 1_555
C93 C96 1_555 1_555
C94 C95 1_555 1_555
C97 C98 1_555 1_555
C102 C105 1_555 1_555
C103 C104 1_555 1_555
C106 C107 1_555 1_555
C112 C113 1_555 1_555
C115 C116 1_555 1_555
C120 C123 1_555 1_555
C121 C122 1_555 1_555
C124 C125 1_555 1_555
C129 C132 1_555 1_555
C130 C131 1_555 1_555
C133 C134 1_555 1_555
C139 C140 1_555 1_555
C142 C143 1_555 1_555
C147 C150 1_555 1_555
C148 C149 1_555 1_555
C151 C152 1_555 1_555
C156 C159 1_555 1_555
C157 C158 1_555 1_555
C160 C161 1_555 1_555
C166 C167 1_555 1_555
C169 C170 1_555 1_555
C174 C177 1_555 1_555
C175 C176 1_555 1_555
C178 C179 1_555 1_555
C183 C186 1_555 1_555
C184 C185 1_555 1_555
C187 C188 1_555 1_555
C193 C194 1_555 1_555
C196 C197 1_555 1_555
C201 C204 1_555 1_555
C202 C203 1_555 1_555
C205 C206 1_555 1_555
C210 C213 1_555 1_555
C211 C212 1_555 1_555
C214 C215 1_555 1_555

#END
