
#######################################################################
#
#                 Cambridge Crystallographic Data Centre
#                                CCDC 
#
#######################################################################
#
# If this CIF has been generated from an entry in the Cambridge 
# Structural Database, then it will include bibliographic, chemical, 
# crystal, experimental, refinement or atomic coordinate data resulting 
# from the CCDC's data processing and validation procedures.
#
#######################################################################

data_WUPNIF
_symmetry_cell_setting           monoclinic
_symmetry_space_group_name_H-M   'C 2/c'
_symmetry_Int_Tables_number      15
_space_group_name_Hall           '-C 2yn'
loop_
_symmetry_equiv_pos_site_id
_symmetry_equiv_pos_as_xyz
1 x,y,z
2 -x,y,1/2-z
3 1/2+x,1/2+y,z
4 1/2-x,1/2+y,1/2-z
5 -x,-y,-z
6 x,-y,1/2+z
7 1/2-x,1/2-y,-z
8 1/2+x,1/2-y,1/2+z
_cell_length_a                   20.4960(6)
_cell_length_b                   16.7496(5)
_cell_length_c                   11.2622(4)
_cell_angle_alpha                90
_cell_angle_beta                 111.842(2)
_cell_angle_gamma                90
_cell_volume                     3588.76
loop_
_atom_site_label
_atom_site_type_symbol
_atom_site_fract_x
_atom_site_fract_y
_atom_site_fract_z
Cu1 Cu 0.5000 0.5000 1.5000
Zn1 Zn 0.34657(3) 0.51436(3) 1.53954(6)
Zn2 Zn 0.5000 0.38753(5) 1.7500
Zn3 Zn 0.5000 0.57555(5) 1.7500
C1 C 0.2252(3) 0.3348(3) 1.6117(5)
C2 C 0.2502(3) 0.3189(3) 1.7422(5)
C3 C 0.2207(3) 0.2562(3) 1.7865(5)
H1 H 0.2367 0.2461 1.8739
C4 C 0.1685(3) 0.2089(3) 1.7045(5)
C5 C 0.1461(3) 0.2223(3) 1.5720(5)
C6 C 0.1736(3) 0.2851(3) 1.5277(5)
H2 H 0.1577 0.2949 1.4402
C7 C 0.2527(3) 0.4023(3) 1.5560(5)
C8 C 0.3063(3) 0.3663(3) 1.8413(5)
C9 C 0.1331(3) 0.1488(3) 1.7602(5)
C10 C 0.0961(3) 0.1651(3) 1.4801(5)
O1 O 0.2171(3) 0.4270(3) 1.4484(5)
O2 O 0.0595(5) 0.4302(5) 1.3887(9)
O3 O 0.3124(2) 0.4309(2) 1.6233(4)
O4 O 0.0913(3) 0.3107(3) 1.1697(6)
O5 O 0.2885(2) 0.4330(2) 1.8748(4)
O6 O 0.1314(8) 0.6005(10) 1.4007(13)
O7 O 0.3649(2) 0.3344(3) 1.8903(4)
O8 O 0.0584(7) 0.5514(8) 1.1243(13)
O9 O 0.17110(19) 0.0996(2) 1.8392(4)
O10 O 0.1895(3) 0.4320(4) 1.1625(8)
O11 O 0.06777(18) 0.1565(2) 1.7249(3)
O12 O 0.0975(2) 0.0931(2) 1.5111(4)
O13 O 0.0555(2) 0.1931(2) 1.3738(3)
O14 O 0.44037(17) 0.5623(2) 1.5622(3)
O15 O 0.54693(18) 0.4688(2) 1.6836(3)
Na1 Na 0.0000 0.3205(2) 1.2500
Na2 Na 0.1676(4) 0.5185(4) 1.2881(7)
Zn1D Zn 0.65343(3) 0.48564(3) 1.46046(6)
Zn1E Zn 0.34657(3) 0.48564(3) 2.03954(6)
Zn1C Zn 0.15343(3) 0.01436(3) 1.96046(6)
Zn1F Zn 0.15343(3) -0.01436(3) 1.46046(6)
Zn1E_2 Zn 0.34657(3) 0.48564(3) 1.03954(6)
Zn1F_2 Zn 0.15343(3) 0.98564(3) 1.46046(6)
Zn1C_2 Zn 0.15343(3) 1.01436(3) 0.96046(6)
Zn2F Zn 0.0000 0.11247(5) 1.2500
Zn2D Zn 0.5000 0.61247(5) 1.2500
Zn2B Zn 0.0000 0.88753(5) 0.7500
Zn3B Zn 0.0000 0.07555(5) 1.7500
Zn3D Zn 0.5000 0.42445(5) 1.2500
Zn3F Zn 0.0000 0.92445(5) 1.2500
C1E C 0.2252(3) 0.6652(3) 1.1117(5)
C2E C 0.2502(3) 0.6811(3) 1.2422(5)
C3E C 0.2207(3) 0.7438(3) 1.2865(5)
H1E H 0.2367 0.7539 1.3739
C4E C 0.1685(3) 0.7911(3) 1.2045(5)
C5E C 0.1461(3) 0.7777(3) 1.0720(5)
C6E C 0.1736(3) 0.7149(3) 1.0277(5)
H2E H 0.1577 0.7051 0.9402
C7E C 0.2527(3) 0.5977(3) 1.0560(5)
C8E C 0.3063(3) 0.6337(3) 1.3413(5)
C9E C 0.1331(3) 0.8512(3) 1.2602(5)
C10E C 0.0961(3) 0.8349(3) 0.9801(5)
O1E O 0.2171(3) 0.5730(3) 0.9484(5)
O2A O -0.0595(5) 0.4302(5) 1.1113(9)
O3E O 0.3124(2) 0.5691(2) 1.1233(4)
O3D O 0.6876(2) 0.5691(2) 1.3767(4)
O4A O -0.0913(3) 0.3107(3) 1.3303(6)
O5E O 0.2885(2) 0.5670(2) 1.3748(4)
O5A O 0.7115(2) 0.4330(2) 1.6252(4)
O5_2 O 0.2885(2) 0.4330(2) 0.8748(4)
O7E O 0.3649(2) 0.6656(3) 1.3903(4)
O9E O 0.17110(19) 0.9004(2) 1.3392(4)
O9C O 0.32890(19) 0.5996(2) 1.6608(4)
O9G O 0.67110(19) 0.4004(2) 1.3392(4)
O11E O 0.06777(18) 0.8435(2) 1.2249(3)
O11B O 0.56777(18) 0.6565(2) 1.7249(3)
O11C O 0.43223(18) 0.6565(2) 1.7751(3)
O12E O 0.0975(2) 0.9069(2) 1.0111(4)
O12F O 0.4025(2) 0.4069(2) 1.4889(4)
O12B O 0.5975(2) 0.5931(2) 1.5111(4)
O13E O 0.0555(2) 0.8069(2) 0.8738(3)
O13F O 0.4445(2) 0.3069(2) 1.6262(3)
O13G O 0.5555(2) 0.3069(2) 1.8738(3)
O13A O -0.0555(2) 0.1931(2) 1.1262(3)
O14D O 0.55963(17) 0.4377(2) 1.4378(3)
O14A O 0.55963(17) 0.5623(2) 1.9378(3)
O15D O 0.45307(18) 0.5312(2) 1.3164(3)
O15A O 0.45307(18) 0.4688(2) 1.8164(3)
Na1D Na 0.0000 0.6795(2) 0.7500
Na2E Na 0.1676(4) 0.4815(4) 0.7881(7)
Na2E_2 Na 0.1676(4) 0.4815(4) 1.7881(7)
O16 O 0.0043(6) 0.3052(5) 0.8909(9)
loop_
_geom_bond_atom_site_label_1
_geom_bond_atom_site_label_2
_geom_bond_site_symmetry_1
_geom_bond_site_symmetry_2
Cu1 O14 1_555 1_555
Zn1 O3 1_555 1_555
Zn2 O15 1_555 1_555
Zn3 O14 1_555 1_555
C1 C2 1_555 1_555
C2 C3 1_555 1_555
C3 H1 1_555 1_555
C4 C3 1_555 1_555
C5 C4 1_555 1_555
C6 C1 1_555 1_555
H2 C6 1_555 1_555
C7 C1 1_555 1_555
C8 C2 1_555 1_555
C9 C4 1_555 1_555
C10 C5 1_555 1_555
O1 C7 1_555 1_555
O2 Na1 1_555 1_555
O3 C7 1_555 1_555
O4 Na1 1_555 1_555
O5 C8 1_555 1_555
O6 Na2 1_555 1_555
O7 C8 1_555 1_555
O8 Na2 1_555 1_555
O9 C9 1_555 1_555
O10 Na2 1_555 1_555
O11 C9 1_555 1_555
O12 C10 1_555 1_555
O13 C10 1_555 1_555
O14 Zn1 1_555 1_555
O15 Cu1 1_555 1_555
Na1 O13 1_555 1_555
Na2 O1 1_555 1_555
Zn1D O3D 1_555 1_555
Zn1E O5 1_555 1_555
Zn1C O9 1_555 1_555
Zn1F O12 1_555 1_555
Zn1E_2 O3E 1_555 1_555
Zn1F_2 O9E 1_555 1_555
Zn1C_2 O12E 1_555 1_555
Zn2F O13 1_555 1_555
Zn2D O15D 1_555 1_555
Zn2B O13E 1_555 1_555
Zn3B O11 1_555 1_555
Zn3D O14D 1_555 1_555
Zn3F O11E 1_555 1_555
C1E C2E 1_555 1_555
C2E C3E 1_555 1_555
C3E H1E 1_555 1_555
C4E C3E 1_555 1_555
C5E C4E 1_555 1_555
C6E C1E 1_555 1_555
H2E C6E 1_555 1_555
C7E C1E 1_555 1_555
C8E C2E 1_555 1_555
C9E C4E 1_555 1_555
C10E C5E 1_555 1_555
O1E C7E 1_555 1_555
O2A Na1 1_555 1_555
O3E C7E 1_555 1_555
O4A Na1 1_555 1_555
O5E Zn1 1_555 1_555
O5A Zn1D 1_555 1_555
O5_2 Zn1E_2 1_555 1_555
O7E C8E 1_555 1_555
O9E C9E 1_555 1_555
O9C Zn1 1_555 1_555
O9G Zn1D 1_555 1_555
O11E C9E 1_555 1_555
O11B Zn3 1_555 1_555
O11C Zn3 1_555 1_555
O12E C10E 1_555 1_555
O12F Zn1 1_555 1_555
O12B Zn1D 1_555 1_555
O13E C10E 1_555 1_555
O13F Zn2 1_555 1_555
O13G Zn2 1_555 1_555
O13A Na1 1_555 1_555
O14D Cu1 1_555 1_555
O14A Zn3 1_555 1_555
O15D Cu1 1_555 1_555
O15A Zn2 1_555 1_555
Na1D O13E 1_555 1_555
Na2E O1E 1_555 1_555
Na2E_2 O5 1_555 1_555
Zn3 O15 1_555 1_555
Zn3 O15A 1_555 1_555
C5 C6 1_555 1_555
Na2 O5E 1_555 1_555
Zn1D O14D 1_555 1_555
Zn2F O13A 1_555 1_555
Zn3D O15D 1_555 1_555
C5E C6E 1_555 1_555
C8E O5E 1_555 1_555
O5_2 Na2E 1_555 1_555

#END
