
#######################################################################
#
#                 Cambridge Crystallographic Data Centre
#                                CCDC 
#
#######################################################################
#
# If this CIF has been generated from an entry in the Cambridge 
# Structural Database, then it will include bibliographic, chemical, 
# crystal, experimental, refinement or atomic coordinate data resulting 
# from the CCDC's data processing and validation procedures.
#
#######################################################################

data_WUPZEM
_symmetry_cell_setting           monoclinic
_symmetry_space_group_name_H-M   'P 21/c'
_symmetry_Int_Tables_number      14
_space_group_name_Hall           '-P 2ybc'
loop_
_symmetry_equiv_pos_site_id
_symmetry_equiv_pos_as_xyz
1 x,y,z
2 x,1/2-y,1/2+z
3 -x,-y,-z
4 -x,1/2+y,1/2-z
_cell_length_a                   18.7156(12)
_cell_length_b                   11.5444(8)
_cell_length_c                   8.1738(5)
_cell_angle_alpha                90
_cell_angle_beta                 90.536(7)
_cell_angle_gamma                90
_cell_volume                     1765.96
loop_
_atom_site_label
_atom_site_type_symbol
_atom_site_fract_x
_atom_site_fract_y
_atom_site_fract_z
Mn1 Mn 0.5000 1.0000 0.5000
O1 O 0.45493(5) 0.96761(9) 0.74207(13)
C1 C 0.48024(7) 0.98554(11) 0.88266(18)
C2 C 0.53285(7) 1.06545(11) 0.95589(17)
O2 O 0.57158(6) 1.14562(9) 0.90344(13)
O3 O 0.55004(6) 1.15872(9) 0.58138(15)
H1 H 0.5660(15) 1.219(2) 0.529(3)
H2 H 0.5626(13) 1.165(2) 0.682(4)
Mn2 Mn 1.0000 0.5000 1.0000
O4 O 1.03731(6) 0.54620(9) 0.75958(13)
C3 C 1.01624(8) 0.51998(12) 0.61806(18)
C4 C 1.03109(7) 0.56741(12) 0.45600(17)
O5 O 1.06808(6) 0.65017(9) 0.40434(13)
O6 O 1.04762(6) 0.65836(9) 1.08483(14)
H3 H 1.0651(13) 0.718(2) 1.032(3)
H4 H 1.0594(14) 0.671(2) 1.184(4)
N1 N 0.59884(7) 0.90567(11) 0.59970(16)
C5 C 0.71565(7) 0.78515(12) 0.73507(18)
C6 C 0.64898(8) 0.73238(13) 0.7168(2)
H5 H 0.6422 0.6542 0.7496
C7 C 0.59274(8) 0.79516(13) 0.6504(2)
H6 H 0.5475 0.7584 0.6400
C8 C 0.66260(8) 0.95658(12) 0.6189(2)
H7 H 0.6678 1.0348 0.5849
C9 C 0.72177(8) 0.90032(13) 0.6862(2)
H8 H 0.7659 0.9401 0.6988
N2 N 0.89557(6) 0.59699(11) 0.92993(16)
C10 C 0.77776(7) 0.72087(12) 0.80327(18)
C11 C 0.83283(8) 0.77667(13) 0.8883(2)
H9 H 0.8314 0.8581 0.9044
C12 C 0.88961(8) 0.71247(13) 0.9491(2)
H10 H 0.9264 0.7520 1.0076
C13 C 0.84224(8) 0.54346(13) 0.8492(2)
H11 H 0.8450 0.4619 0.8357
C14 C 0.78322(8) 0.60105(13) 0.7845(2)
H12 H 0.7469 0.5592 0.7279
C1B C 0.51976(7) 1.01446(11) 1.11734(18)
O1B O 0.54507(5) 1.03239(9) 1.25793(13)
C2B C 0.46715(7) 0.93455(11) 1.04411(17)
O2B O 0.42842(6) 0.85438(9) 1.09656(13)
C3B C 0.98376(8) 0.48002(12) 0.38194(18)
O4B O 0.96269(6) 0.45380(9) 0.24042(13)
C4B C 0.96891(7) 0.43259(12) 0.54400(17)
O5B O 0.93192(6) 0.34983(9) 0.59566(13)
O3B O 0.44996(6) 0.84128(9) 0.41862(15)
H1B H 0.4340(15) 0.781(2) 0.471(3)
H2B H 0.4374(13) 0.835(2) 0.318(4)
N1B N 0.40116(7) 1.09433(11) 0.40030(16)
C5B C 0.28435(7) 1.21485(12) 0.26493(18)
C6B C 0.35102(8) 1.26762(13) 0.2832(2)
H5B H 0.3578 1.3458 0.2504
C7B C 0.40726(8) 1.20484(13) 0.3496(2)
H6B H 0.4525 1.2416 0.3600
C8B C 0.33740(8) 1.04342(12) 0.3811(2)
H7B H 0.3322 0.9652 0.4151
C9B C 0.27823(8) 1.09968(13) 0.3138(2)
H8B H 0.2341 1.0599 0.3012
N2B N 0.10443(6) 1.40301(11) 0.07007(16)
C10B C 0.22224(7) 1.27913(12) 0.19673(18)
C11B C 0.16717(8) 1.22333(13) 0.1117(2)
H9B H 0.1686 1.1419 0.0956
C12B C 0.11039(8) 1.28753(13) 0.0509(2)
H10B H 0.0736 1.2480 -0.0076
C13B C 0.15776(8) 1.45654(13) 0.1508(2)
H11B H 0.1550 1.5381 0.1643
C14B C 0.21678(8) 1.39895(13) 0.2155(2)
H12B H 0.2531 1.4408 0.2721
O6B O 0.95238(6) 0.34164(9) 0.91517(14)
H3B H 0.9349(13) 0.282(2) 0.968(3)
H4B H 0.9406(14) 0.329(2) 0.816(4)
O1B_2 O 0.54507(5) 1.03239(9) 0.25793(13)
O4B_2 O 0.96269(6) 0.45380(9) 1.24042(13)
N2B_2 N 1.10443(6) 0.40301(11) 1.07007(16)
Mn1_2 Mn 0.5000 1.0000 1.5000
Mn2_2 Mn 1.0000 0.5000 0.0000
Mn2_3 Mn 0.0000 1.5000 0.0000
O7 O 0.68427(7) 0.36861(12) 0.73740(18)
H13 H 0.6427(17) 0.381(3) 0.743(4)
H14 H 0.706(3) 0.332(4) 0.815(6)
O8 O 0.75185(7) 0.25064(13) 0.48861(16)
H15 H 0.783(4) 0.285(6) 0.409(8)
H16 H 0.723(3) 0.291(5) 0.580(7)
O9 O 0.82028(7) 0.13145(13) 0.74035(18)
H17 H 0.8639(17) 0.120(2) 0.740(3)
H18 H 0.803(3) 0.168(5) 0.676(6)
loop_
_geom_bond_atom_site_label_1
_geom_bond_atom_site_label_2
_geom_bond_site_symmetry_1
_geom_bond_site_symmetry_2
Mn1 O1 1_555 1_555
O1 C1 1_555 1_555
C1 C2 1_555 1_555
C2 O2 1_555 1_555
O3 Mn1 1_555 1_555
H1 O3 1_555 1_555
H2 O3 1_555 1_555
Mn2 O4 1_555 1_555
O4 C3 1_555 1_555
C3 C4 1_555 1_555
C4 O5 1_555 1_555
O6 Mn2 1_555 1_555
H3 O6 1_555 1_555
H4 O6 1_555 1_555
N1 Mn1 1_555 1_555
C5 C6 1_555 1_555
C6 H5 1_555 1_555
C7 N1 1_555 1_555
H6 C7 1_555 1_555
C8 N1 1_555 1_555
H7 C8 1_555 1_555
C9 C5 1_555 1_555
H8 C9 1_555 1_555
N2 Mn2 1_555 1_555
C10 C5 1_555 1_555
C11 C10 1_555 1_555
H9 C11 1_555 1_555
C12 N2 1_555 1_555
H10 C12 1_555 1_555
C13 N2 1_555 1_555
H11 C13 1_555 1_555
C14 C10 1_555 1_555
H12 C14 1_555 1_555
O7 H13 1_555 1_555
H14 O7 1_555 1_555
O8 H15 1_555 1_555
H16 O8 1_555 1_555
O9 H17 1_555 1_555
H18 O9 1_555 1_555
C1B C2 1_555 1_555
O1B C1B 1_555 1_555
C2B C1 1_555 1_555
O2B C2B 1_555 1_555
C3B C4 1_555 1_555
O4B C3B 1_555 1_555
C4B C3 1_555 1_555
O5B C4B 1_555 1_555
O3B Mn1 1_555 1_555
H1B O3B 1_555 1_555
H2B O3B 1_555 1_555
N1B Mn1 1_555 1_555
C5B C6B 1_555 1_555
C6B H5B 1_555 1_555
C7B N1B 1_555 1_555
H6B C7B 1_555 1_555
C8B N1B 1_555 1_555
H7B C8B 1_555 1_555
C9B C5B 1_555 1_555
H8B C9B 1_555 1_555
N2B C12B 1_555 1_555
C10B C5B 1_555 1_555
C11B C10B 1_555 1_555
H9B C11B 1_555 1_555
C12B C11B 1_555 1_555
H10B C12B 1_555 1_555
C13B N2B 1_555 1_555
H11B C13B 1_555 1_555
C14B C10B 1_555 1_555
H12B C14B 1_555 1_555
O6B Mn2 1_555 1_555
H3B O6B 1_555 1_555
H4B O6B 1_555 1_555
O1B_2 Mn1 1_555 1_555
O4B_2 Mn2 1_555 1_555
N2B_2 Mn2 1_555 1_555
Mn1_2 O1B 1_555 1_555
Mn2_2 O4B 1_555 1_555
Mn2_3 N2B 1_555 1_555
C6 C7 1_555 1_555
C8 C9 1_555 1_555
C11 C12 1_555 1_555
C13 C14 1_555 1_555
C1B C2B 1_555 1_555
C3B C4B 1_555 1_555
C6B C7B 1_555 1_555
C8B C9B 1_555 1_555
C13B C14B 1_555 1_555

#END
