
#######################################################################
#
#                 Cambridge Crystallographic Data Centre
#                                CCDC 
#
#######################################################################
#
# If this CIF has been generated from an entry in the Cambridge 
# Structural Database, then it will include bibliographic, chemical, 
# crystal, experimental, refinement or atomic coordinate data resulting 
# from the CCDC's data processing and validation procedures.
#
#######################################################################

data_WUQHEV
_symmetry_cell_setting           monoclinic
_symmetry_space_group_name_H-M   'P 21/c'
_symmetry_Int_Tables_number      14
_space_group_name_Hall           '-P 2ybc'
loop_
_symmetry_equiv_pos_site_id
_symmetry_equiv_pos_as_xyz
1 x,y,z
2 x,1/2-y,1/2+z
3 -x,-y,-z
4 -x,1/2+y,1/2-z
_cell_length_a                   11.5381(10)
_cell_length_b                   7.7374(6)
_cell_length_c                   12.4261(11)
_cell_angle_alpha                90
_cell_angle_beta                 90.979(2)
_cell_angle_gamma                90
_cell_volume                     1109.18
loop_
_atom_site_label
_atom_site_type_symbol
_atom_site_fract_x
_atom_site_fract_y
_atom_site_fract_z
Cd1 Cd 0.0000 0.0000 0.5000
O2 O 0.3772(2) 0.8159(3) 0.5239(2)
O3 O 0.4235(3) 0.6930(3) 0.3692(2)
N1 N -0.0886(3) 0.1958(4) 0.6160(3)
N2 N -0.0917(3) 0.4913(3) 0.6858(3)
N3 N -0.0199(3) 0.7598(4) 0.6090(3)
N4 N 0.1817(2) 0.0474(4) 0.5882(2)
H1 H 0.1711 0.0438 0.6597
H2 H 0.2296 -0.0400 0.5713
C1 C 0.3784(3) 0.6886(4) 0.4666(3)
C2 C 0.2979(3) 0.2171(4) 0.4670(3)
H3 H 0.3076 0.1193 0.4246
C3 C 0.2365(3) 0.2050(4) 0.5626(3)
C4 C -0.0870(3) 0.3377(4) 0.6441(2)
C5 C 0.3320(3) 0.5184(4) 0.4990(3)
C6 C 0.2251(3) 0.3501(4) 0.6269(3)
H4 H 0.1854 0.3426 0.6912
C7 C 0.3438(3) 0.3716(4) 0.4353(3)
H5 H 0.3831 0.3787 0.3708
C8 C -0.0516(3) 0.6283(4) 0.6390(3)
C9 C 0.2725(3) 0.5058(4) 0.5959(3)
H6 H 0.2648 0.6027 0.6395
N1B N 0.0886(3) -0.1958(4) 0.3840(3)
N2B N 0.0917(3) -0.4913(3) 0.3142(3)
N3B N 0.0199(3) -0.7598(4) 0.3910(3)
C4B C 0.0870(3) -0.3377(4) 0.3559(2)
C8B C 0.0516(3) -0.6283(4) 0.3610(3)
O2B O -0.3772(2) -0.8159(3) 0.4761(2)
O3B O -0.4235(3) -0.6930(3) 0.6308(2)
N4B N -0.1817(2) -0.0474(4) 0.4118(2)
H1B H -0.1711 -0.0438 0.3403
H2B H -0.2296 0.0400 0.4287
C1B C -0.3784(3) -0.6886(4) 0.5334(3)
C2B C -0.2979(3) -0.2171(4) 0.5330(3)
H3B H -0.3076 -0.1193 0.5754
C3B C -0.2365(3) -0.2050(4) 0.4374(3)
C5B C -0.3320(3) -0.5184(4) 0.5010(3)
C6B C -0.2251(3) -0.3501(4) 0.3731(3)
H4B H -0.1854 -0.3426 0.3088
C7B C -0.3438(3) -0.3716(4) 0.5647(3)
H5B H -0.3831 -0.3787 0.6292
C9B C -0.2725(3) -0.5058(4) 0.4041(3)
H6B H -0.2648 -0.6027 0.3605
N3_2 N -0.0199(3) -0.2402(4) 0.6090(3)
N3B_2 N 0.0199(3) 0.2402(4) 0.3910(3)
Cd1_2 Cd 0.0000 1.0000 0.5000
Cd1_3 Cd 0.0000 -1.0000 0.5000
O1 O 0.5016(3) 0.9983(3) 0.3189(3)
loop_
_geom_bond_atom_site_label_1
_geom_bond_atom_site_label_2
_geom_bond_site_symmetry_1
_geom_bond_site_symmetry_2
Cd1 N1 1_555 1_555
O2 C1 1_555 1_555
O3 C1 1_555 1_555
N1 C4 1_555 1_555
N2 C4 1_555 1_555
N3 C8 1_555 1_555
N4 Cd1 1_555 1_555
H1 N4 1_555 1_555
H2 N4 1_555 1_555
C1 C5 1_555 1_555
C2 H3 1_555 1_555
C3 N4 1_555 1_555
C5 C7 1_555 1_555
C6 C3 1_555 1_555
H4 C6 1_555 1_555
C7 C2 1_555 1_555
H5 C7 1_555 1_555
C8 N2 1_555 1_555
C9 C5 1_555 1_555
H6 C9 1_555 1_555
N1B Cd1 1_555 1_555
N2B C4B 1_555 1_555
N3B C8B 1_555 1_555
C4B N1B 1_555 1_555
C8B N2B 1_555 1_555
O2B C1B 1_555 1_555
O3B C1B 1_555 1_555
N4B Cd1 1_555 1_555
H1B N4B 1_555 1_555
H2B N4B 1_555 1_555
C1B C5B 1_555 1_555
C2B H3B 1_555 1_555
C3B N4B 1_555 1_555
C5B C7B 1_555 1_555
C6B C3B 1_555 1_555
H4B C6B 1_555 1_555
C7B C2B 1_555 1_555
H5B C7B 1_555 1_555
C9B C5B 1_555 1_555
H6B C9B 1_555 1_555
N3_2 Cd1 1_555 1_555
N3B_2 Cd1 1_555 1_555
Cd1_2 N3 1_555 1_555
Cd1_3 N3B 1_555 1_555
C2 C3 1_555 1_555
C6 C9 1_555 1_555
C2B C3B 1_555 1_555
C6B C9B 1_555 1_555

#END
