
#######################################################################
#
#                 Cambridge Crystallographic Data Centre
#                                CCDC 
#
#######################################################################
#
# If this CIF has been generated from an entry in the Cambridge 
# Structural Database, then it will include bibliographic, chemical, 
# crystal, experimental, refinement or atomic coordinate data resulting 
# from the CCDC's data processing and validation procedures.
#
#######################################################################

data_WUQJUO
_symmetry_cell_setting           triclinic
_symmetry_space_group_name_H-M   'P -1'
_symmetry_Int_Tables_number      2
_space_group_name_Hall           '-P 1'
loop_
_symmetry_equiv_pos_site_id
_symmetry_equiv_pos_as_xyz
1 x,y,z
2 -x,-y,-z
_cell_length_a                   10.546(3)
_cell_length_b                   12.287(3)
_cell_length_c                   20.953(6)
_cell_angle_alpha                86.763(5)
_cell_angle_beta                 80.229(5)
_cell_angle_gamma                71.551(5)
_cell_volume                     2538.15
loop_
_atom_site_label
_atom_site_type_symbol
_atom_site_fract_x
_atom_site_fract_y
_atom_site_fract_z
Ru1 Ru 0.5000 0.0000 0.0000
Mn1 Mn 1.0000 0.0000 0.0000
O1 O 0.4516(4) 0.1658(3) 0.0224(2)
O2 O 0.4482(3) -0.0386(3) 0.09146(19)
N1 N 0.7984(4) -0.0311(4) 0.0270(2)
N2 N 1.0359(4) -0.0122(4) 0.0913(2)
N3 N 0.9036(4) 0.1693(4) 0.0133(2)
C1 C 0.6909(5) -0.0222(4) 0.0180(3)
C2 C 1.1098(5) -0.1092(5) 0.1207(3)
C3 C 1.1693(5) -0.2173(5) 0.0932(3)
C4 C 1.2519(6) -0.3097(5) 0.1328(3)
C5 C 1.1965(7) -0.3831(6) 0.1705(3)
H2 H 1.1062 -0.3774 0.1712
C6 C 1.2752(9) -0.4658(6) 0.2074(4)
H3 H 1.2376 -0.5162 0.2325
C7 C 1.4051(9) -0.4740(7) 0.2074(4)
H4 H 1.4565 -0.5293 0.2330
C8 C 1.4617(8) -0.4022(7) 0.1705(4)
H5 H 1.5520 -0.4087 0.1703
C9 C 1.3849(6) -0.3192(6) 0.1329(4)
H6 H 1.4237 -0.2697 0.1077
C10 C 1.1194(5) -0.0816(5) 0.1842(3)
H7 H 1.1643 -0.1320 0.2138
C11 C 1.0519(6) 0.0306(5) 0.1937(3)
H8 H 1.0396 0.0718 0.2313
C12 C 1.0031(5) 0.0740(5) 0.1356(3)
C13 C 0.9310(6) 0.1889(5) 0.1256(3)
C14 C 0.8998(7) 0.2696(5) 0.1814(3)
C15 C 1.0036(10) 0.3073(8) 0.1962(4)
H9 H 1.0894 0.2853 0.1714
C16 C 0.9734(14) 0.3793(10) 0.2498(6)
H10 H 1.0404 0.4051 0.2612
C17 C 0.8479(15) 0.4118(8) 0.2852(6)
H11 H 0.8288 0.4634 0.3190
C18 C 0.7492(11) 0.3713(9) 0.2727(5)
H12 H 0.6652 0.3898 0.2992
C19 C 0.7776(8) 0.3012(7) 0.2192(4)
H13 H 0.7097 0.2751 0.2091
C20 C 0.8850(5) 0.2315(5) 0.0681(3)
C21 C 0.8094(6) 0.3475(5) 0.0565(4)
H14 H 0.7836 0.4076 0.0859
C22 C 0.7826(6) 0.3550(5) -0.0026(3)
H15 H 0.7350 0.4212 -0.0226
C23 C 1.1606(5) -0.2438(5) 0.0307(3)
C24 C 0.4453(9) 0.3238(6) 0.0819(4)
H16 H 0.5125 0.3372 0.0480
H17 H 0.4637 0.3399 0.1231
H18 H 0.3573 0.3731 0.0756
C25 C 0.4490(6) 0.1988(6) 0.0802(4)
C26 C 0.4497(7) 0.1321(8) 0.1351(4)
H19 H 0.4552 0.1646 0.1732
C27 C 0.4427(6) 0.0200(7) 0.1392(3)
C28 C 0.4208(7) -0.0303(7) 0.2057(3)
H20 H 0.3327 0.0112 0.2281
H21 H 0.4887 -0.0249 0.2296
H22 H 0.4270 -0.1095 0.2021
Mn1_2 Mn 0.0000 0.0000 0.0000
O1A O 0.5484(4) -0.1658(3) -0.0224(2)
O2A O 0.5518(3) 0.0386(3) -0.09146(19)
N1A N 0.2016(4) 0.0311(4) -0.0270(2)
N1A_2 N 1.2016(4) 0.0311(4) -0.0270(2)
N2A N 0.9641(4) 0.0122(4) -0.0913(2)
N3A N 1.0964(4) -0.1693(4) -0.0133(2)
C1A C 0.3091(5) 0.0222(4) -0.0180(3)
C2A C 0.8902(5) 0.1092(5) -0.1207(3)
C3A C 0.8307(5) 0.2173(5) -0.0932(3)
C4A C 0.7481(6) 0.3097(5) -0.1328(3)
C5A C 0.8035(7) 0.3831(6) -0.1705(3)
H2A H 0.8938 0.3774 -0.1712
C6A C 0.7248(9) 0.4658(6) -0.2074(4)
H3A H 0.7624 0.5162 -0.2325
C7A C 0.5949(9) 0.4740(7) -0.2074(4)
H4A H 0.5435 0.5293 -0.2330
C8A C 0.5383(8) 0.4022(7) -0.1705(4)
H5A H 0.4480 0.4087 -0.1703
C9A C 0.6151(6) 0.3192(6) -0.1329(4)
H6A H 0.5763 0.2697 -0.1077
C10A C 0.8806(5) 0.0816(5) -0.1842(3)
H7A H 0.8357 0.1320 -0.2138
C11A C 0.9481(6) -0.0306(5) -0.1937(3)
H8A H 0.9604 -0.0718 -0.2313
C12A C 0.9969(5) -0.0740(5) -0.1356(3)
C13A C 1.0690(6) -0.1889(5) -0.1256(3)
C14A C 1.1002(7) -0.2696(5) -0.1814(3)
C15A C 0.9964(10) -0.3073(8) -0.1962(4)
H9A H 0.9106 -0.2853 -0.1714
C16A C 1.0266(14) -0.3793(10) -0.2498(6)
H10A H 0.9596 -0.4051 -0.2612
C17A C 1.1521(15) -0.4118(8) -0.2852(6)
H11A H 1.1712 -0.4634 -0.3190
C18A C 1.2508(11) -0.3713(9) -0.2727(5)
H12A H 1.3348 -0.3898 -0.2992
C19A C 1.2224(8) -0.3012(7) -0.2192(4)
H13A H 1.2903 -0.2751 -0.2091
C20A C 1.1150(5) -0.2315(5) -0.0681(3)
C21A C 1.1906(6) -0.3475(5) -0.0565(4)
H14A H 1.2164 -0.4076 -0.0859
C22A C 1.2174(6) -0.3550(5) 0.0026(3)
H15A H 1.2650 -0.4212 0.0226
C23A C 0.8394(5) 0.2438(5) -0.0307(3)
C24A C 0.5547(9) -0.3238(6) -0.0819(4)
H16A H 0.4875 -0.3372 -0.0480
H17A H 0.5363 -0.3399 -0.1231
H18A H 0.6427 -0.3731 -0.0756
C25A C 0.5510(6) -0.1988(6) -0.0802(4)
C26A C 0.5503(7) -0.1321(8) -0.1351(4)
H19A H 0.5448 -0.1646 -0.1732
C27A C 0.5573(6) -0.0200(7) -0.1392(3)
C28A C 0.5792(7) 0.0303(7) -0.2057(3)
H20A H 0.6673 -0.0112 -0.2281
H21A H 0.5113 0.0249 -0.2296
H22A H 0.5730 0.1095 -0.2021
P1 P 0.3811(3) 0.2231(2) 0.35439(11)
F1 F 0.5127(6) 0.1452(6) 0.3196(3)
F2 F 0.4270(11) 0.3148(9) 0.3716(6)
F3 F 0.2384(7) 0.2901(6) 0.3910(3)
F4 F 0.4056(11) 0.1585(9) 0.4160(3)
F5 F 0.3166(9) 0.1388(8) 0.3350(5)
F6 F 0.3508(9) 0.2861(7) 0.2936(3)
P2 P 0.8027(2) 0.85677(16) 0.37813(9)
C29 C 0.6386(7) 0.8745(6) 0.4267(3)
H23 H 0.6474 0.8718 0.4721
H24 H 0.5777 0.9494 0.4179
C30 C 0.5782(8) 0.7851(8) 0.4139(4)
C31 C 0.6138(8) 0.6787(9) 0.4429(4)
H25 H 0.6737 0.6633 0.4726
C32 C 0.4873(10) 0.8058(10) 0.3697(5)
H26 H 0.4597 0.8777 0.3505
C33 C 0.4376(12) 0.7196(17) 0.3544(6)
H27 H 0.3791 0.7327 0.3242
C34 C 0.4771(14) 0.6144(14) 0.3848(8)
H28 H 0.4447 0.5562 0.3751
C35 C 0.7923(6) 0.8425(6) 0.2958(3)
C36 C 0.7871(7) 0.7396(6) 0.2730(4)
H29 H 0.7897 0.6778 0.3011
C37 C 0.7781(7) 0.7302(7) 0.2093(4)
H30 H 0.7764 0.6612 0.1940
C38 C 0.7717(7) 0.8218(8) 0.1678(4)
H31 H 0.7663 0.8145 0.1245
C39 C 0.7731(6) 0.9228(7) 0.1899(4)
H32 H 0.7668 0.9850 0.1618
C40 C 0.7839(6) 0.9343(6) 0.2533(4)
H33 H 0.7856 1.0039 0.2679
C41 C 0.8607(13) 0.9759(8) 0.3883(5)
C42 C 0.9931(15) 0.9616(10) 0.3750(5)
H34 H 1.0522 0.8902 0.3611
C43 C 1.0477(18) 1.0545(15) 0.3815(6)
H35 H 1.1402 1.0443 0.3757
C44 C 0.954(3) 1.1554(15) 0.3964(11)
H36 H 0.9846 1.2181 0.3982
C45 C 0.821(2) 1.1747(16) 0.4091(14)
H37 H 0.7603 1.2470 0.4203
C46 C 0.9277(7) 0.7337(6) 0.4035(4)
C47 C 1.0311(9) 0.6640(8) 0.3591(4)
H38 H 1.0303 0.6759 0.3149
C48 C 1.1343(9) 0.5776(8) 0.3805(5)
H39 H 1.2032 0.5310 0.3509
C49 C 1.0377(11) 0.6278(9) 0.4892(4)
H40 H 1.0418 0.6148 0.5331
C50 C 0.9310(8) 0.7162(6) 0.4690(4)
H41 H 0.8633 0.7626 0.4992
C51 C 1.1354(10) 0.5610(8) 0.4438(5)
H42 H 1.2053 0.5017 0.4575
C52 C 0.7766(15) 1.0767(11) 0.4043(7)
H43 H 0.6844 1.0858 0.4130
C53 C 0.5623(12) 0.5954(10) 0.4287(6)
H44 H 0.5863 0.5247 0.4496
O3 O 0.2740(6) 0.3405(5) 0.9467(3)
H1 H 0.3309 0.2889 0.9623
C54 C 0.1444(9) 0.3539(8) 0.9836(6)
H45 H 0.1448 0.3720 1.0275
H46 H 0.1228 0.2838 0.9827
H47 H 0.0780 0.4149 0.9656
loop_
_geom_bond_atom_site_label_1
_geom_bond_atom_site_label_2
_geom_bond_site_symmetry_1
_geom_bond_site_symmetry_2
Ru1 O1 1_555 1_555
Mn1 N1 1_555 1_555
P1 F1 1_555 1_555
P2 C29 1_555 1_555
O1 C25 1_555 1_555
O2 Ru1 1_555 1_555
O3 H1 1_555 1_555
N1 C1 1_555 1_555
N2 Mn1 1_555 1_555
N3 Mn1 1_555 1_555
F2 P1 1_555 1_555
F3 P1 1_555 1_555
F4 P1 1_555 1_555
F5 P1 1_555 1_555
F6 P1 1_555 1_555
C1 Ru1 1_555 1_555
C2 N2 1_555 1_555
C3 C2 1_555 1_555
C4 C3 1_555 1_555
C5 C4 1_555 1_555
H2 C5 1_555 1_555
C6 C5 1_555 1_555
H3 C6 1_555 1_555
C7 C6 1_555 1_555
H4 C7 1_555 1_555
C8 C7 1_555 1_555
H5 C8 1_555 1_555
C9 C4 1_555 1_555
H6 C9 1_555 1_555
C10 C2 1_555 1_555
H7 C10 1_555 1_555
C11 C10 1_555 1_555
H8 C11 1_555 1_555
C12 N2 1_555 1_555
C13 C12 1_555 1_555
C14 C13 1_555 1_555
C15 C14 1_555 1_555
H9 C15 1_555 1_555
C16 C15 1_555 1_555
H10 C16 1_555 1_555
C17 C16 1_555 1_555
H11 C17 1_555 1_555
C18 C17 1_555 1_555
H12 C18 1_555 1_555
C19 C14 1_555 1_555
H13 C19 1_555 1_555
C20 N3 1_555 1_555
C21 C20 1_555 1_555
H14 C21 1_555 1_555
C22 C21 1_555 1_555
H15 C22 1_555 1_555
C23 C3 1_555 1_555
C24 H16 1_555 1_555
H17 C24 1_555 1_555
H18 C24 1_555 1_555
C25 C24 1_555 1_555
C26 C25 1_555 1_555
H19 C26 1_555 1_555
C27 O2 1_555 1_555
C28 C27 1_555 1_555
H20 C28 1_555 1_555
H21 C28 1_555 1_555
H22 C28 1_555 1_555
C29 H23 1_555 1_555
H24 C29 1_555 1_555
C30 C29 1_555 1_555
C31 C30 1_555 1_555
H25 C31 1_555 1_555
C32 C30 1_555 1_555
H26 C32 1_555 1_555
C33 C32 1_555 1_555
H27 C33 1_555 1_555
C34 C33 1_555 1_555
H28 C34 1_555 1_555
C35 P2 1_555 1_555
C36 C35 1_555 1_555
H29 C36 1_555 1_555
C37 C36 1_555 1_555
H30 C37 1_555 1_555
C38 C37 1_555 1_555
H31 C38 1_555 1_555
C39 C38 1_555 1_555
H32 C39 1_555 1_555
C40 C35 1_555 1_555
H33 C40 1_555 1_555
C41 P2 1_555 1_555
C42 C41 1_555 1_555
H34 C42 1_555 1_555
C43 C42 1_555 1_555
H35 C43 1_555 1_555
C44 C43 1_555 1_555
H36 C44 1_555 1_555
C45 C44 1_555 1_555
H37 C45 1_555 1_555
C46 P2 1_555 1_555
C47 C46 1_555 1_555
H38 C47 1_555 1_555
C48 C47 1_555 1_555
H39 C48 1_555 1_555
C49 H40 1_555 1_555
C50 C46 1_555 1_555
H41 C50 1_555 1_555
C51 C48 1_555 1_555
H42 C51 1_555 1_555
C52 C41 1_555 1_555
H43 C52 1_555 1_555
C53 C31 1_555 1_555
H44 C53 1_555 1_555
C54 O3 1_555 1_555
H45 C54 1_555 1_555
H46 C54 1_555 1_555
H47 C54 1_555 1_555
Mn1_2 N1A 1_555 1_555
O1A Ru1 1_555 1_555
O2A Ru1 1_555 1_555
N1A C1A 1_555 1_555
N1A_2 Mn1 1_555 1_555
N2A Mn1 1_555 1_555
N3A Mn1 1_555 1_555
C1A Ru1 1_555 1_555
C2A N2A 1_555 1_555
C3A C2A 1_555 1_555
C4A C3A 1_555 1_555
C5A C4A 1_555 1_555
H2A C5A 1_555 1_555
C6A C5A 1_555 1_555
H3A C6A 1_555 1_555
C7A C6A 1_555 1_555
H4A C7A 1_555 1_555
C8A C7A 1_555 1_555
H5A C8A 1_555 1_555
C9A C4A 1_555 1_555
H6A C9A 1_555 1_555
C10A C2A 1_555 1_555
H7A C10A 1_555 1_555
C11A C10A 1_555 1_555
H8A C11A 1_555 1_555
C12A N2A 1_555 1_555
C13A C12A 1_555 1_555
C14A C13A 1_555 1_555
C15A C14A 1_555 1_555
H9A C15A 1_555 1_555
C16A C15A 1_555 1_555
H10A C16A 1_555 1_555
C17A C16A 1_555 1_555
H11A C17A 1_555 1_555
C18A C17A 1_555 1_555
H12A C18A 1_555 1_555
C19A C14A 1_555 1_555
H13A C19A 1_555 1_555
C20A N3A 1_555 1_555
C21A C20A 1_555 1_555
H14A C21A 1_555 1_555
C22A C23 1_555 1_555
H15A C22A 1_555 1_555
C23A N3 1_555 1_555
C24A H16A 1_555 1_555
H17A C24A 1_555 1_555
H18A C24A 1_555 1_555
C25A O1A 1_555 1_555
C26A C25A 1_555 1_555
H19A C26A 1_555 1_555
C27A O2A 1_555 1_555
C28A C27A 1_555 1_555
H20A C28A 1_555 1_555
H21A C28A 1_555 1_555
H22A C28A 1_555 1_555
C8 C9 1_555 1_555
C11 C12 1_555 1_555
C13 C20 1_555 1_555
C18 C19 1_555 1_555
C22 C23A 1_555 1_555
C23 N3A 1_555 1_555
C26 C27 1_555 1_555
C34 C53 1_555 1_555
C39 C40 1_555 1_555
C45 C52 1_555 1_555
C49 C50 1_555 1_555
C49 C51 1_555 1_555
C3A C23A 1_555 1_555
C8A C9A 1_555 1_555
C11A C12A 1_555 1_555
C13A C20A 1_555 1_555
C18A C19A 1_555 1_555
C21A C22A 1_555 1_555
C24A C25A 1_555 1_555
C26A C27A 1_555 1_555

#END
