
#######################################################################
#
#                 Cambridge Crystallographic Data Centre
#                                CCDC 
#
#######################################################################
#
# If this CIF has been generated from an entry in the Cambridge 
# Structural Database, then it will include bibliographic, chemical, 
# crystal, experimental, refinement or atomic coordinate data resulting 
# from the CCDC's data processing and validation procedures.
#
#######################################################################

data_WUQKAV
_symmetry_cell_setting           triclinic
_symmetry_space_group_name_H-M   'P -1'
_symmetry_Int_Tables_number      2
_space_group_name_Hall           '-P 1'
loop_
_symmetry_equiv_pos_site_id
_symmetry_equiv_pos_as_xyz
1 x,y,z
2 -x,-y,-z
_cell_length_a                   10.5763(11)
_cell_length_b                   12.3936(12)
_cell_length_c                   20.440(2)
_cell_angle_alpha                85.583(2)
_cell_angle_beta                 77.824(2)
_cell_angle_gamma                69.901(2)
_cell_volume                     2459.45
loop_
_atom_site_label
_atom_site_type_symbol
_atom_site_fract_x
_atom_site_fract_y
_atom_site_fract_z
Ru1 Ru 0.0000 0.0000 0.0000
Mn1 Mn 0.5000 0.0000 0.0000
O1 O -0.0508(2) 0.16850(19) 0.01478(12)
O2 O -0.0658(2) -0.0251(2) 0.09771(11)
N1 N 0.2953(3) -0.0265(2) 0.02793(14)
N2 N 0.4025(3) 0.1706(2) 0.01207(14)
N3 N 0.5308(3) -0.0126(2) 0.09471(13)
C1 C 0.1901(3) -0.0193(3) 0.01822(15)
C2 C -0.0586(6) 0.3327(4) 0.0680(3)
H2 H -0.0365 0.3542 0.0220
H3 H 0.0079 0.3393 0.0915
H4 H -0.1483 0.3825 0.0880
C3 C -0.0567(4) 0.2098(3) 0.0718(2)
C4 C -0.0656(4) 0.1539(4) 0.1319(2)
H5 H -0.0640 0.1922 0.1689
C5 C -0.0771(4) 0.0444(4) 0.14301(18)
C6 C -0.1073(5) 0.0026(5) 0.21388(18)
H6 H -0.2011 0.0429 0.2339
H7 H -0.0476 0.0166 0.2392
H8 H -0.0923 -0.0783 0.2137
C7 C 0.3415(3) 0.2463(3) -0.03424(18)
C8 C 0.2820(4) 0.3591(3) -0.0058(2)
H9 H 0.2347 0.4254 -0.0269
C9 C 0.3066(4) 0.3522(3) 0.0566(2)
H10 H 0.2806 0.4126 0.0864
C10 C 0.3807(3) 0.2339(3) 0.06832(18)
C11 C 0.4234(3) 0.1910(3) 0.12774(18)
C12 C 0.3913(4) 0.2740(3) 0.18415(19)
C13 C 0.2639(5) 0.3096(4) 0.2245(2)
H11 H 0.1964 0.2831 0.2163
C14 C 0.2329(6) 0.3837(5) 0.2770(3)
H12 H 0.1455 0.4067 0.3038
C15 C 0.3293(9) 0.4226(5) 0.2893(3)
H13 H 0.3077 0.4747 0.3237
C16 C 0.4593(9) 0.3859(6) 0.2515(3)
H14 H 0.5265 0.4107 0.2616
C17 C 0.4922(6) 0.3110(5) 0.1976(3)
H15 H 0.5802 0.2867 0.1715
C18 C 0.4931(3) 0.0764(3) 0.13918(17)
C19 C 0.5396(4) 0.0318(3) 0.19995(19)
H16 H 0.5265 0.0737 0.2381
C20 C 0.6056(4) -0.0817(3) 0.19154(18)
H17 H 0.6464 -0.1328 0.2229
C21 C 0.6016(3) -0.1096(3) 0.12578(17)
C22 C 0.6632(3) -0.2190(3) 0.09827(18)
C23 C 0.7428(4) -0.3123(3) 0.13970(17)
C24 C 0.6878(4) -0.3908(3) 0.1744(2)
H18 H 0.5993 -0.3867 0.1723
C25 C 0.7639(5) -0.4759(4) 0.2124(2)
H19 H 0.7265 -0.5290 0.2356
C26 C 0.8942(5) -0.4820(4) 0.2160(2)
H20 H 0.9447 -0.5386 0.2420
C27 C 0.9498(5) -0.4056(4) 0.1815(2)
H21 H 1.0384 -0.4103 0.1838
C28 C 0.8749(4) -0.3204(4) 0.1430(2)
H22 H 0.9136 -0.2686 0.1194
Mn1_2 Mn -0.5000 0.0000 0.0000
O1A O 0.0508(2) -0.16850(19) -0.01478(12)
O2A O 0.0658(2) 0.0251(2) -0.09771(11)
N1A N -0.2953(3) 0.0265(2) -0.02793(14)
N1A_2 N 0.7047(3) 0.0265(2) -0.02793(14)
N2A N 0.5975(3) -0.1706(2) -0.01207(14)
N3A N 0.4692(3) 0.0126(2) -0.09471(13)
C1A C -0.1901(3) 0.0193(3) -0.01822(15)
C2A C 0.0586(6) -0.3327(4) -0.0680(3)
H2A H 0.0365 -0.3542 -0.0220
H3A H -0.0079 -0.3393 -0.0915
H4A H 0.1483 -0.3825 -0.0880
C3A C 0.0567(4) -0.2098(3) -0.0718(2)
C4A C 0.0656(4) -0.1539(4) -0.1319(2)
H5A H 0.0640 -0.1922 -0.1689
C5A C 0.0771(4) -0.0444(4) -0.14301(18)
C6A C 0.1073(5) -0.0026(5) -0.21388(18)
H6A H 0.2011 -0.0429 -0.2339
H7A H 0.0476 -0.0166 -0.2392
H8A H 0.0923 0.0783 -0.2137
C7A C 0.6585(3) -0.2463(3) 0.03424(18)
C8A C 0.7180(4) -0.3591(3) 0.0058(2)
H9A H 0.7653 -0.4254 0.0269
C9A C 0.6934(4) -0.3522(3) -0.0566(2)
H10A H 0.7194 -0.4126 -0.0864
C10A C 0.6193(3) -0.2339(3) -0.06832(18)
C11A C 0.5766(3) -0.1910(3) -0.12774(18)
C12A C 0.6087(4) -0.2740(3) -0.18415(19)
C13A C 0.7361(5) -0.3096(4) -0.2245(2)
H11A H 0.8036 -0.2831 -0.2163
C14A C 0.7671(6) -0.3837(5) -0.2770(3)
H12A H 0.8545 -0.4067 -0.3038
C15A C 0.6707(9) -0.4226(5) -0.2893(3)
H13A H 0.6923 -0.4747 -0.3237
C16A C 0.5407(9) -0.3859(6) -0.2515(3)
H14A H 0.4735 -0.4107 -0.2616
C17A C 0.5078(6) -0.3110(5) -0.1976(3)
H15A H 0.4198 -0.2867 -0.1715
C18A C 0.5069(3) -0.0764(3) -0.13918(17)
C19A C 0.4604(4) -0.0318(3) -0.19995(19)
H16A H 0.4735 -0.0737 -0.2381
C20A C 0.3944(4) 0.0817(3) -0.19154(18)
H17A H 0.3536 0.1328 -0.2229
C21A C 0.3984(3) 0.1096(3) -0.12578(17)
C22A C 0.3368(3) 0.2190(3) -0.09827(18)
C23A C 0.2572(4) 0.3123(3) -0.13970(17)
C24A C 0.3122(4) 0.3908(3) -0.1744(2)
H18A H 0.4007 0.3867 -0.1723
C25A C 0.2361(5) 0.4759(4) -0.2124(2)
H19A H 0.2735 0.5290 -0.2356
C26A C 0.1058(5) 0.4820(4) -0.2160(2)
H20A H 0.0553 0.5386 -0.2420
C27A C 0.0502(5) 0.4056(4) -0.1815(2)
H21A H -0.0384 0.4103 -0.1838
C28A C 0.1251(4) 0.3204(4) -0.1430(2)
H22A H 0.0864 0.2686 -0.1194
Cl1 Cl 0.88044(15) 0.24066(11) 0.35110(6)
O3 O 0.8874(6) 0.1440(4) 0.3909(2)
O4 O 0.8984(6) 0.3258(4) 0.3853(2)
O5 O 0.9777(6) 0.2146(5) 0.2936(2)
O6 O 0.7513(6) 0.2825(5) 0.3352(3)
P1 P 0.28852(13) 0.86466(9) 0.38796(5)
C29 C 0.2798(4) 0.8512(3) 0.30268(18)
C30 C 0.2799(4) 0.7477(4) 0.2809(2)
H23 H 0.2879 0.6850 0.3098
C31 C 0.2680(5) 0.7394(4) 0.2157(2)
H24 H 0.2696 0.6703 0.2002
C32 C 0.2538(5) 0.8329(4) 0.1735(2)
H25 H 0.2454 0.8267 0.1297
C33 C 0.2520(4) 0.9355(4) 0.1956(2)
H26 H 0.2425 0.9982 0.1667
C34 C 0.2641(4) 0.9459(4) 0.26061(19)
H27 H 0.2617 1.0155 0.2759
C35 C 0.3409(7) 0.9849(4) 0.3968(3)
C36 C 0.2426(10) 1.0940(5) 0.4073(4)
H28 H 0.1491 1.1068 0.4126
C37 C 0.2958(19) 1.1848(8) 0.4094(7)
H29 H 0.2353 1.2599 0.4147
C38 C 0.429(2) 1.1653(12) 0.4040(8)
H30 H 0.4560 1.2271 0.4102
C39 C 0.5325(13) 1.0579(10) 0.3895(4)
H31 H 0.6254 1.0492 0.3803
C40 C 0.4852(9) 0.9640(6) 0.3897(3)
H32 H 0.5471 0.8893 0.3853
C41 C 0.4156(5) 0.7406(4) 0.4140(2)
C42 C 0.5232(5) 0.6735(4) 0.3675(3)
H33 H 0.5254 0.6870 0.3219
C43 C 0.6283(6) 0.5856(5) 0.3895(3)
H34 H 0.7006 0.5392 0.3586
C44 C 0.6260(6) 0.5671(5) 0.4553(4)
H35 H 0.6980 0.5087 0.4692
C45 C 0.5211(7) 0.6317(5) 0.5020(3)
H36 H 0.5214 0.6165 0.5473
C46 C 0.4124(5) 0.7213(4) 0.4823(2)
H37 H 0.3404 0.7665 0.5139
C47 C 0.0583(5) 0.7988(5) 0.4238(2)
C48 C 0.0943(6) 0.6891(6) 0.4504(3)
H38 H 0.1532 0.6693 0.4807
C49 C 0.0445(9) 0.6083(7) 0.4330(4)
H39 H 0.0695 0.5348 0.4515
C50 C -0.0423(9) 0.6368(10) 0.3881(5)
H40 H -0.0748 0.5821 0.3757
C51 C -0.0814(8) 0.7462(11) 0.3615(4)
H41 H -0.1419 0.7655 0.3320
C52 C -0.0313(6) 0.8277(7) 0.3784(3)
H42 H -0.0567 0.9010 0.3598
C53 C 0.1204(5) 0.8836(4) 0.4393(2)
H43 H 0.1279 0.8759 0.4860
H44 H 0.0596 0.9608 0.4325
O7 O 0.7777(4) 0.3410(3) 0.93455(19)
H1 H 0.8343 0.2871 0.9497
C54 C 0.6453(6) 0.3559(5) 0.9730(4)
H45 H 0.6321 0.3981 1.0128
H46 H 0.6364 0.2821 0.9852
H47 H 0.5775 0.3975 0.9473
loop_
_geom_bond_atom_site_label_1
_geom_bond_atom_site_label_2
_geom_bond_site_symmetry_1
_geom_bond_site_symmetry_2
Ru1 O1 1_555 1_555
Mn1 N1 1_555 1_555
Cl1 O3 1_555 1_555
P1 C29 1_555 1_555
O1 C3 1_555 1_555
O2 Ru1 1_555 1_555
O4 Cl1 1_555 1_555
O5 Cl1 1_555 1_555
O6 Cl1 1_555 1_555
O7 H1 1_555 1_555
N1 C1 1_555 1_555
N2 Mn1 1_555 1_555
N3 Mn1 1_555 1_555
C1 Ru1 1_555 1_555
C2 H2 1_555 1_555
H3 C2 1_555 1_555
H4 C2 1_555 1_555
C3 C2 1_555 1_555
C4 C3 1_555 1_555
H5 C4 1_555 1_555
C5 O2 1_555 1_555
C6 C5 1_555 1_555
H6 C6 1_555 1_555
H7 C6 1_555 1_555
H8 C6 1_555 1_555
C7 N2 1_555 1_555
C8 C7 1_555 1_555
H9 C8 1_555 1_555
C9 C8 1_555 1_555
H10 C9 1_555 1_555
C10 N2 1_555 1_555
C11 C10 1_555 1_555
C12 C11 1_555 1_555
C13 C12 1_555 1_555
H11 C13 1_555 1_555
C14 C13 1_555 1_555
H12 C14 1_555 1_555
C15 C14 1_555 1_555
H13 C15 1_555 1_555
C16 C15 1_555 1_555
H14 C16 1_555 1_555
C17 C12 1_555 1_555
H15 C17 1_555 1_555
C18 N3 1_555 1_555
C19 C18 1_555 1_555
H16 C19 1_555 1_555
C20 C19 1_555 1_555
H17 C20 1_555 1_555
C21 N3 1_555 1_555
C22 C21 1_555 1_555
C23 C22 1_555 1_555
C24 C23 1_555 1_555
H18 C24 1_555 1_555
C25 C24 1_555 1_555
H19 C25 1_555 1_555
C26 C25 1_555 1_555
H20 C26 1_555 1_555
C27 C26 1_555 1_555
H21 C27 1_555 1_555
C28 C23 1_555 1_555
H22 C28 1_555 1_555
C29 C30 1_555 1_555
C30 H23 1_555 1_555
C31 C30 1_555 1_555
H24 C31 1_555 1_555
C32 C31 1_555 1_555
H25 C32 1_555 1_555
C33 C32 1_555 1_555
H26 C33 1_555 1_555
C34 C29 1_555 1_555
H27 C34 1_555 1_555
C35 P1 1_555 1_555
C36 C35 1_555 1_555
H28 C36 1_555 1_555
C37 C36 1_555 1_555
H29 C37 1_555 1_555
C38 C37 1_555 1_555
H30 C38 1_555 1_555
C39 C38 1_555 1_555
H31 C39 1_555 1_555
C40 C35 1_555 1_555
H32 C40 1_555 1_555
C41 P1 1_555 1_555
C42 C41 1_555 1_555
H33 C42 1_555 1_555
C43 C42 1_555 1_555
H34 C43 1_555 1_555
C44 C43 1_555 1_555
H35 C44 1_555 1_555
C45 C44 1_555 1_555
H36 C45 1_555 1_555
C46 C41 1_555 1_555
H37 C46 1_555 1_555
C47 C48 1_555 1_555
C48 H38 1_555 1_555
C49 C48 1_555 1_555
H39 C49 1_555 1_555
C50 C49 1_555 1_555
H40 C50 1_555 1_555
C51 C50 1_555 1_555
H41 C51 1_555 1_555
C52 C47 1_555 1_555
H42 C52 1_555 1_555
C53 P1 1_555 1_555
H43 C53 1_555 1_555
H44 C53 1_555 1_555
C54 O7 1_555 1_555
H45 C54 1_555 1_555
H46 C54 1_555 1_555
H47 C54 1_555 1_555
Mn1_2 N1A 1_555 1_555
O1A Ru1 1_555 1_555
O2A Ru1 1_555 1_555
N1A C1A 1_555 1_555
N1A_2 Mn1 1_555 1_555
N2A Mn1 1_555 1_555
N3A Mn1 1_555 1_555
C1A Ru1 1_555 1_555
C2A H2A 1_555 1_555
H3A C2A 1_555 1_555
H4A C2A 1_555 1_555
C3A O1A 1_555 1_555
C4A C3A 1_555 1_555
H5A C4A 1_555 1_555
C5A O2A 1_555 1_555
C6A C5A 1_555 1_555
H6A C6A 1_555 1_555
H7A C6A 1_555 1_555
H8A C6A 1_555 1_555
C7A C22 1_555 1_555
C8A C7A 1_555 1_555
H9A C8A 1_555 1_555
C9A C8A 1_555 1_555
H10A C9A 1_555 1_555
C10A N2A 1_555 1_555
C11A C10A 1_555 1_555
C12A C11A 1_555 1_555
C13A C12A 1_555 1_555
H11A C13A 1_555 1_555
C14A C13A 1_555 1_555
H12A C14A 1_555 1_555
C15A C14A 1_555 1_555
H13A C15A 1_555 1_555
C16A C15A 1_555 1_555
H14A C16A 1_555 1_555
C17A C12A 1_555 1_555
H15A C17A 1_555 1_555
C18A N3A 1_555 1_555
C19A C18A 1_555 1_555
H16A C19A 1_555 1_555
C20A C19A 1_555 1_555
H17A C20A 1_555 1_555
C21A N3A 1_555 1_555
C22A C7 1_555 1_555
C23A C22A 1_555 1_555
C24A C23A 1_555 1_555
H18A C24A 1_555 1_555
C25A C24A 1_555 1_555
H19A C25A 1_555 1_555
C26A C25A 1_555 1_555
H20A C26A 1_555 1_555
C27A C26A 1_555 1_555
H21A C27A 1_555 1_555
C28A C23A 1_555 1_555
H22A C28A 1_555 1_555
C4 C5 1_555 1_555
C9 C10 1_555 1_555
C11 C18 1_555 1_555
C16 C17 1_555 1_555
C20 C21 1_555 1_555
C27 C28 1_555 1_555
C33 C34 1_555 1_555
C39 C40 1_555 1_555
C45 C46 1_555 1_555
C47 C53 1_555 1_555
C51 C52 1_555 1_555
N2A C7A 1_555 1_555
C2A C3A 1_555 1_555
C4A C5A 1_555 1_555
C9A C10A 1_555 1_555
C11A C18A 1_555 1_555
C16A C17A 1_555 1_555
C20A C21A 1_555 1_555
C21A C22A 1_555 1_555
C27A C28A 1_555 1_555

#END
