
#######################################################################
#
#                 Cambridge Crystallographic Data Centre
#                                CCDC 
#
#######################################################################
#
# If this CIF has been generated from an entry in the Cambridge 
# Structural Database, then it will include bibliographic, chemical, 
# crystal, experimental, refinement or atomic coordinate data resulting 
# from the CCDC's data processing and validation procedures.
#
#######################################################################

data_WUQLEA
_symmetry_cell_setting           triclinic
_symmetry_space_group_name_H-M   'P -1'
_symmetry_Int_Tables_number      2
_space_group_name_Hall           '-P 1'
loop_
_symmetry_equiv_pos_site_id
_symmetry_equiv_pos_as_xyz
1 x,y,z
2 -x,-y,-z
_cell_length_a                   3.7754(2)
_cell_length_b                   8.6500(5)
_cell_length_c                   12.9601(7)
_cell_angle_alpha                94.210(2)
_cell_angle_beta                 92.222(2)
_cell_angle_gamma                98.569(2)
_cell_volume                     416.856
loop_
_atom_site_label
_atom_site_type_symbol
_atom_site_fract_x
_atom_site_fract_y
_atom_site_fract_z
Cl1 Cl 0.9468(3) 0.71267(13) 0.55034(9)
Hg1 Hg 0.5000 0.5000 0.5000
O1 O 0.9013(11) 0.3561(4) 0.0886(3)
N1 N 0.5544(12) 0.5687(5) 0.2980(3)
N2 N 0.7790(11) 0.6073(5) 0.0986(3)
H1 H 0.8459 0.6199 0.0350
C1 C 0.6565(13) 0.4544(6) 0.2419(4)
H2 H 0.6459 0.3560 0.2706
C2 C 0.7874(13) 0.4667(6) 0.1372(4)
C3 C 0.6684(13) 0.7328(6) 0.1555(3)
C4 C 0.6713(14) 0.8781(6) 0.1130(4)
H3 H 0.7434 0.8919 0.0444
C5 C 0.5676(15) 0.9993(6) 0.1729(4)
H4 H 0.5686 1.0980 0.1450
C6 C 0.4602(15) 0.9812(6) 0.2742(4)
H5 H 0.3921 1.0673 0.3143
C7 C 0.4533(13) 0.8394(6) 0.3154(4)
H6 H 0.3766 0.8266 0.3836
C8 C 0.5602(12) 0.7133(5) 0.2564(4)
Cl1_2 Cl -0.0532(3) 0.71267(13) 0.55034(9)
Cl1A Cl 0.0532(3) 0.28733(13) 0.44966(9)
Cl1A_2 Cl 1.0532(3) 0.28733(13) 0.44966(9)
Hg1_2 Hg 1.5000 0.5000 0.5000
Hg1_3 Hg -0.5000 0.5000 0.5000
O1A O 0.0987(11) 0.6439(4) 0.9114(3)
N1A N 0.4456(12) 0.4313(5) 0.7020(3)
N2A N 0.2210(11) 0.3927(5) 0.9014(3)
H1A H 0.1541 0.3801 0.9650
C1A C 0.3435(13) 0.5456(6) 0.7581(4)
H2A H 0.3541 0.6440 0.7294
C2A C 0.2126(13) 0.5333(6) 0.8628(4)
C3A C 0.3316(13) 0.2672(6) 0.8445(3)
C4A C 0.3287(14) 0.1219(6) 0.8870(4)
H3A H 0.2566 0.1081 0.9556
C5A C 0.4324(15) 0.0007(6) 0.8271(4)
H4A H 0.4314 -0.0980 0.8550
C6A C 0.5398(15) 0.0188(6) 0.7258(4)
H5A H 0.6079 -0.0673 0.6857
C7A C 0.5467(13) 0.1606(6) 0.6846(4)
H6A H 0.6234 0.1734 0.6164
C8A C 0.4398(12) 0.2867(5) 0.7436(4)
loop_
_geom_bond_atom_site_label_1
_geom_bond_atom_site_label_2
_geom_bond_site_symmetry_1
_geom_bond_site_symmetry_2
Cl1 Hg1 1_555 1_555
Hg1 N1 1_555 1_555
O1 C2 1_555 1_555
N1 C1 1_555 1_555
N2 H1 1_555 1_555
C1 H2 1_555 1_555
C2 N2 1_555 1_555
C3 N2 1_555 1_555
C4 C3 1_555 1_555
H3 C4 1_555 1_555
C5 C4 1_555 1_555
H4 C5 1_555 1_555
C6 C5 1_555 1_555
H5 C6 1_555 1_555
C7 C6 1_555 1_555
H6 C7 1_555 1_555
C8 N1 1_555 1_555
Cl1_2 Hg1 1_555 1_555
Cl1A Hg1 1_555 1_555
Cl1A_2 Hg1 1_555 1_555
Hg1_2 Cl1 1_555 1_555
Hg1_3 Cl1_2 1_555 1_555
O1A C2A 1_555 1_555
N1A Hg1 1_555 1_555
N2A H1A 1_555 1_555
C1A N1A 1_555 1_555
H2A C1A 1_555 1_555
C2A N2A 1_555 1_555
C3A N2A 1_555 1_555
C4A C3A 1_555 1_555
H3A C4A 1_555 1_555
C5A C4A 1_555 1_555
H4A C5A 1_555 1_555
C6A C5A 1_555 1_555
H5A C6A 1_555 1_555
C7A C6A 1_555 1_555
H6A C7A 1_555 1_555
C8A N1A 1_555 1_555
C1 C2 1_555 1_555
C3 C8 1_555 1_555
C7 C8 1_555 1_555
Cl1A Hg1_3 1_555 1_555
Cl1A_2 Hg1_2 1_555 1_555
C1A C2A 1_555 1_555
C3A C8A 1_555 1_555
C7A C8A 1_555 1_555

#END
