
#######################################################################
#
#                 Cambridge Crystallographic Data Centre
#                                CCDC 
#
#######################################################################
#
# If this CIF has been generated from an entry in the Cambridge 
# Structural Database, then it will include bibliographic, chemical, 
# crystal, experimental, refinement or atomic coordinate data resulting 
# from the CCDC's data processing and validation procedures.
#
#######################################################################

data_WUQRUV
_symmetry_cell_setting           monoclinic
_symmetry_space_group_name_H-M   'P 21/c'
_symmetry_Int_Tables_number      14
_space_group_name_Hall           '-P 2ybc'
loop_
_symmetry_equiv_pos_site_id
_symmetry_equiv_pos_as_xyz
1 x,y,z
2 x,1/2-y,1/2+z
3 -x,-y,-z
4 -x,1/2+y,1/2-z
_cell_length_a                   4.572(2)
_cell_length_b                   18.450(9)
_cell_length_c                   25.441(12)
_cell_angle_alpha                90
_cell_angle_beta                 91.154(8)
_cell_angle_gamma                90
_cell_volume                     2145.6
loop_
_atom_site_label
_atom_site_type_symbol
_atom_site_fract_x
_atom_site_fract_y
_atom_site_fract_z
I1 I -0.19818(10) 0.53323(3) 0.427522(17)
Ag1 Ag 0.29828(15) 0.44574(3) 0.45690(3)
N1 N 0.2310(11) 0.2910(3) 0.3986(2)
N2 N 0.5254(12) 0.2837(3) 0.4646(2)
C1 C 0.0337(15) 0.2444(4) 0.2741(3)
C2 C -0.1665(16) 0.1922(5) 0.2942(3)
H1 H -0.2388 0.1983 0.3278
C3 C -0.2537(18) 0.1338(5) 0.2652(4)
H2 H -0.3828 0.1005 0.2794
C4 C -0.151(2) 0.1229(5) 0.2140(4)
H3 H -0.2133 0.0828 0.1946
C5 C 0.0366(19) 0.1706(5) 0.1930(3)
H4 H 0.1037 0.1627 0.1592
C6 C 0.1351(16) 0.2332(4) 0.2215(3)
C7 C 0.3355(16) 0.2812(5) 0.2003(3)
H5 H 0.4071 0.2718 0.1670
C8 C 0.4320(16) 0.3422(4) 0.2269(3)
C9 C 0.6352(17) 0.3913(5) 0.2048(3)
H6 H 0.7009 0.3833 0.1709
C10 C 0.7337(19) 0.4488(5) 0.2319(4)
H7 H 0.8669 0.4802 0.2168
C11 C 0.6370(18) 0.4619(4) 0.2831(3)
H8 H 0.7046 0.5025 0.3014
C12 C 0.4487(15) 0.4169(4) 0.3058(3)
H9 H 0.3896 0.4269 0.3398
C13 C 0.3352(13) 0.3542(4) 0.2802(2)
C14 C 0.1368(14) 0.3054(4) 0.3025(2)
C15 C 0.0308(14) 0.3193(4) 0.3578(3)
H10 H 0.0079 0.3711 0.3629
H11 H -0.1596 0.2970 0.3617
C16 C 0.3177(17) 0.2201(4) 0.4021(3)
H12 H 0.2609 0.1825 0.3798
C17 C 0.5011(17) 0.2153(4) 0.4440(3)
H13 H 0.5932 0.1736 0.4566
C18 C 0.3588(14) 0.3316(4) 0.4374(3)
C19 C 0.7104(16) 0.3021(5) 0.5100(3)
H14 H 0.7248 0.3544 0.5127
H15 H 0.9056 0.2832 0.5046
C20 C 0.597(2) 0.2723(7) 0.5606(3)
H16 H 0.7254 0.2862 0.5891
H17 H 0.5877 0.2204 0.5586
H18 H 0.4046 0.2913 0.5665
Ag1_2 Ag -0.70172(15) 0.44574(3) 0.45690(3)
Ag1B Ag -0.29828(15) 0.55426(3) 0.54310(3)
I1_2 I 0.80182(10) 0.53323(3) 0.427522(17)
I1B I 0.19818(10) 0.46677(3) 0.572478(17)
C21 C 0.781(7) 0.5458(9) 0.8927(9)
Cl1 Cl 0.908(5) 0.4588(7) 0.9006(6)
Cl2 Cl 0.900(3) 0.5994(6) 0.9437(5)
O1 O 0.699(8) 0.477(2) 0.9073(16)
loop_
_geom_bond_atom_site_label_1
_geom_bond_atom_site_label_2
_geom_bond_site_symmetry_1
_geom_bond_site_symmetry_2
I1 Ag1 1_555 1_555
Ag1 C18 1_555 1_555
N1 C15 1_555 1_555
N2 C17 1_555 1_555
C1 C2 1_555 1_555
C2 H1 1_555 1_555
C3 C2 1_555 1_555
H2 C3 1_555 1_555
C4 C3 1_555 1_555
H3 C4 1_555 1_555
C5 C4 1_555 1_555
H4 C5 1_555 1_555
C6 C1 1_555 1_555
C7 C6 1_555 1_555
H5 C7 1_555 1_555
C8 C7 1_555 1_555
C9 C8 1_555 1_555
H6 C9 1_555 1_555
C10 C9 1_555 1_555
H7 C10 1_555 1_555
C11 C10 1_555 1_555
H8 C11 1_555 1_555
C12 C11 1_555 1_555
H9 C12 1_555 1_555
C13 C8 1_555 1_555
C14 C1 1_555 1_555
C15 C14 1_555 1_555
H10 C15 1_555 1_555
H11 C15 1_555 1_555
C16 N1 1_555 1_555
H12 C16 1_555 1_555
C17 C16 1_555 1_555
H13 C17 1_555 1_555
C18 N1 1_555 1_555
C19 N2 1_555 1_555
H14 C19 1_555 1_555
H15 C19 1_555 1_555
C20 C19 1_555 1_555
H16 C20 1_555 1_555
H17 C20 1_555 1_555
H18 C20 1_555 1_555
C21 Cl1 1_555 1_555
Cl2 C21 1_555 1_555
Ag1_2 I1 1_555 1_555
Ag1B I1 1_555 1_555
I1_2 Ag1 1_555 1_555
I1B Ag1 1_555 1_555
N2 C18 1_555 1_555
C5 C6 1_555 1_555
C12 C13 1_555 1_555
C13 C14 1_555 1_555
Ag1B I1B 1_555 1_555

#END
