
#######################################################################
#
#                 Cambridge Crystallographic Data Centre
#                                CCDC 
#
#######################################################################
#
# If this CIF has been generated from an entry in the Cambridge 
# Structural Database, then it will include bibliographic, chemical, 
# crystal, experimental, refinement or atomic coordinate data resulting 
# from the CCDC's data processing and validation procedures.
#
#######################################################################

data_WUQZOY
_symmetry_cell_setting           triclinic
_symmetry_space_group_name_H-M   'P -1'
_symmetry_Int_Tables_number      2
_space_group_name_Hall           '-P 1'
loop_
_symmetry_equiv_pos_site_id
_symmetry_equiv_pos_as_xyz
1 x,y,z
2 -x,-y,-z
_cell_length_a                   7.0435(8)
_cell_length_b                   8.2860(9)
_cell_length_c                   8.5121(10)
_cell_angle_alpha                91.350(2)
_cell_angle_beta                 91.457(2)
_cell_angle_gamma                105.267(2)
_cell_volume                     478.864
loop_
_atom_site_label
_atom_site_type_symbol
_atom_site_fract_x
_atom_site_fract_y
_atom_site_fract_z
Na1 Na 0.36223(8) 0.91628(6) -0.16959(6)
O1 O 0.39170(17) 0.81175(15) -0.41861(12)
H1 H 0.497(4) 0.822(3) -0.467(3)
H2 H 0.307(4) 0.825(3) -0.483(3)
O2 O 0.69566(15) 0.95284(13) -0.07514(11)
H3 H 0.795(3) 0.998(3) -0.123(2)
H4 H 0.711(3) 0.862(3) -0.057(3)
N1 N 0.26190(18) 0.64854(14) -0.04044(14)
N2 N 0.26371(18) 0.38845(14) 0.03240(13)
N3 N 0.28388(16) 0.49373(13) 0.16029(13)
N4 N 0.26072(17) 0.19505(15) 0.57623(13)
N5 N 0.19671(17) 0.11302(14) 0.70815(13)
N6 N 0.01268(17) 0.11166(14) 0.72726(13)
N7 N -0.04970(16) 0.19249(14) 0.60892(13)
C1 C 0.2818(2) 0.64587(16) 0.11480(16)
H5 H 0.294(2) 0.736(2) 0.188(2)
C2 C 0.2513(2) 0.48779(17) -0.08488(16)
H6 H 0.233(2) 0.445(2) -0.192(2)
C3 C 0.2971(2) 0.43282(17) 0.31908(16)
H7 H 0.395(3) 0.371(2) 0.318(2)
H8 H 0.344(3) 0.528(2) 0.386(2)
C4 C 0.0985(2) 0.32583(19) 0.36582(16)
H9 H 0.052(3) 0.238(2) 0.283(2)
H10 H 0.005(3) 0.390(2) 0.369(2)
C5 C 0.10591(19) 0.24092(15) 0.51867(15)
Na1A Na 0.63777(8) 1.08372(6) 0.16959(6)
Na1_2 Na 0.36223(8) -0.08372(6) 0.83041(6)
O2A O 0.30434(15) 1.04716(13) 0.07514(11)
H3A H 0.205(3) 1.002(3) 0.123(2)
H4A H 0.289(3) 1.138(3) 0.057(3)
N5_2 N 0.19671(17) 1.11302(14) -0.29185(13)
loop_
_geom_bond_atom_site_label_1
_geom_bond_atom_site_label_2
_geom_bond_site_symmetry_1
_geom_bond_site_symmetry_2
Na1 O1 1_555 1_555
O1 H1 1_555 1_555
H2 O1 1_555 1_555
O2 Na1 1_555 1_555
H3 O2 1_555 1_555
H4 O2 1_555 1_555
N1 Na1 1_555 1_555
N2 N3 1_555 1_555
N3 C1 1_555 1_555
N4 N5 1_555 1_555
N5 N6 1_555 1_555
N6 N7 1_555 1_555
N7 C5 1_555 1_555
C1 N1 1_555 1_555
H5 C1 1_555 1_555
C2 N1 1_555 1_555
H6 C2 1_555 1_555
C3 N3 1_555 1_555
H7 C3 1_555 1_555
H8 C3 1_555 1_555
C4 C3 1_555 1_555
H9 C4 1_555 1_555
H10 C4 1_555 1_555
C5 N4 1_555 1_555
Na1A O2 1_555 1_555
Na1_2 N5 1_555 1_555
O2A Na1 1_555 1_555
H3A O2A 1_555 1_555
H4A O2A 1_555 1_555
N5_2 Na1 1_555 1_555
N2 C2 1_555 1_555
C4 C5 1_555 1_555
Na1A O2A 1_555 1_555

#END
