
#######################################################################
#
#                 Cambridge Crystallographic Data Centre
#                                CCDC 
#
#######################################################################
#
# If this CIF has been generated from an entry in the Cambridge 
# Structural Database, then it will include bibliographic, chemical, 
# crystal, experimental, refinement or atomic coordinate data resulting 
# from the CCDC's data processing and validation procedures.
#
#######################################################################

data_WURCAN
_symmetry_cell_setting           orthorhombic
_symmetry_space_group_name_H-M   'C 2 2 21'
_symmetry_Int_Tables_number      20
_space_group_name_Hall           'C 2n 2'
loop_
_symmetry_equiv_pos_site_id
_symmetry_equiv_pos_as_xyz
1 x,y,z
2 x,-y,-z
3 -x,-y,1/2+z
4 -x,y,1/2-z
5 1/2+x,1/2+y,z
6 1/2+x,1/2-y,-z
7 1/2-x,1/2-y,1/2+z
8 1/2-x,1/2+y,1/2-z
_cell_length_a                   13.636(3)
_cell_length_b                   22.586(4)
_cell_length_c                   15.486(3)
_cell_angle_alpha                90
_cell_angle_beta                 90
_cell_angle_gamma                90
_cell_volume                     4769.42
loop_
_atom_site_label
_atom_site_type_symbol
_atom_site_fract_x
_atom_site_fract_y
_atom_site_fract_z
Re1 Re 0.18319(3) 0.11020(2) 0.65083(2)
Ag1 Ag 0.09239(7) 0.17291(5) 0.86715(7)
S1 S 0.1328(2) 0.0806(1) 0.7885(2)
S2 S 0.0869(2) 0.1944(1) 0.6491(2)
O1 O 0.1317(7) 0.0605(4) 0.5860(6)
O2 O 0.2934(5) 0.1598(4) 0.7197(5)
O3 O 0.4060(6) 0.1557(4) 0.8232(6)
O4 O 0.3322(7) 0.3066(4) 0.5003(6)
O5 O 0.3155(8) 0.2296(5) 0.4142(6)
N1 N 0.3058(7) 0.0524(4) 0.6809(5)
N2 N 0.2627(6) 0.1581(4) 0.5526(5)
C1 C 0.2461(8) 0.0449(5) 0.8315(6)
C2 C 0.2644(9) 0.0660(6) 0.9228(7)
C3 C 0.2337(10) -0.0207(5) 0.8319(8)
C4 C 0.3334(8) 0.0642(5) 0.7726(6)
C5 C 0.3474(8) 0.1316(5) 0.7737(7)
C6 C 0.1347(8) 0.2346(5) 0.5526(7)
C7 C 0.0878(9) 0.2122(6) 0.4703(7)
C8 C 0.111(1) 0.3004(6) 0.566(1)
C9 C 0.2471(8) 0.2238(6) 0.5557(8)
C10 C 0.3033(7) 0.2556(5) 0.4840(7)
H1 H 0.2870 0.0122 0.6740
H2 H 0.3595 0.0609 0.6439
H3 H 0.3307 0.1504 0.5598
H4 H 0.2420 0.1441 0.4977
H5 H 0.3225 0.0480 0.9444
H6 H 0.2719 0.1078 0.9230
H7 H 0.2104 0.0553 0.9583
H8 H 0.1797 -0.0310 0.8676
H9 H 0.2219 -0.0342 0.7747
H10 H 0.2916 -0.0387 0.8536
H11 H 0.3921 0.0441 0.7879
H12 H 0.0187 0.2167 0.4740
H13 H 0.1119 0.2343 0.4226
H14 H 0.1034 0.1715 0.4628
H15 H 0.1412 0.3137 0.6183
H16 H 0.1359 0.3228 0.5192
H17 H 0.0423 0.3056 0.5703
H18 H 0.2708 0.2379 0.6096
Ag1C Ag -0.09239(7) 0.17291(5) 0.63285(7)
S2C S -0.0869(2) 0.1944(1) 0.8509(2)
O4C O -0.3322(7) 0.3066(4) 0.9997(6)
O5C O -0.3155(8) 0.2296(5) 1.0858(6)
N2C N -0.2627(6) 0.1581(4) 0.9474(5)
C6C C -0.1347(8) 0.2346(5) 0.9474(7)
C7C C -0.0878(9) 0.2122(6) 1.0297(7)
C8C C -0.111(1) 0.3004(6) 0.934(1)
C9C C -0.2471(8) 0.2238(6) 0.9443(8)
C10C C -0.3033(7) 0.2556(5) 1.0160(7)
H3C H -0.3307 0.1504 0.9402
H4C H -0.2420 0.1441 1.0023
H12C H -0.0187 0.2167 1.0260
H13C H -0.1119 0.2343 1.0774
H14C H -0.1034 0.1715 1.0372
H15C H -0.1412 0.3137 0.8817
H16C H -0.1359 0.3228 0.9808
H17C H -0.0423 0.3056 0.9297
H18C H -0.2708 0.2379 0.8904
S1C S -0.1328(2) 0.0806(1) 0.7115(2)
O2C O -0.2934(5) 0.1598(4) 0.7803(5)
O3C O -0.4060(6) 0.1557(4) 0.6768(6)
N1C N -0.3058(7) 0.0524(4) 0.8191(5)
C1C C -0.2461(8) 0.0449(5) 0.6685(6)
C2C C -0.2644(9) 0.0660(6) 0.5772(7)
C3C C -0.2337(10) -0.0207(5) 0.6681(8)
C4C C -0.3334(8) 0.0642(5) 0.7274(6)
C5C C -0.3474(8) 0.1316(5) 0.7263(7)
H1C H -0.2870 0.0122 0.8260
H2C H -0.3595 0.0609 0.8561
H5C H -0.3225 0.0480 0.5556
H6C H -0.2719 0.1078 0.5770
H7C H -0.2104 0.0553 0.5417
H8C H -0.1797 -0.0310 0.6324
H9C H -0.2219 -0.0342 0.7253
H10C H -0.2916 -0.0387 0.6464
H11C H -0.3921 0.0441 0.7121
Re1C Re -0.18319(3) 0.11020(2) 0.84917(2)
O1C O -0.1317(7) 0.0605(4) 0.9140(6)
O4F O 0.1678(7) 0.1934(4) 1.0003(6)
O5F O 0.1845(8) 0.2704(5) 0.9142(6)
Ag1F Ag 0.40761(7) 0.32709(5) 0.36715(7)
O4E O -0.1678(7) 0.1934(4) 0.4997(6)
O5E O -0.1845(8) 0.2704(5) 0.5858(6)
Ag1E Ag -0.40761(7) 0.32709(5) 1.13285(7)
O6 O 0.0420(6) 0.3964(4) 0.0745(6)
O7 O 0.7982(10) 0.3444(5) 0.7238(7)
O8 O 0.5228(10) 0.4360(6) 0.651(1)
O9 O 0.3765(10) 0.3394(5) 0.6692(8)
O10 O 0.7764(9) 0.0752(5) 0.1090(7)
O11 O 0.008(1) 0.4515(7) 0.5821(9)
O12 O 0.827(1) 0.5000 0.5000
O13 O 1.0000 0.2452(6) 0.2500
O14 O 0.0000 0.396(1) 0.7500
O15 O 0.959(1) 0.0000 0.5000
loop_
_geom_bond_atom_site_label_1
_geom_bond_atom_site_label_2
_geom_bond_site_symmetry_1
_geom_bond_site_symmetry_2
Re1 S1 1_555 1_555
Ag1 S1 1_555 1_555
S1 C1 1_555 1_555
S2 Re1 1_555 1_555
O1 Re1 1_555 1_555
O2 Re1 1_555 1_555
O3 C5 1_555 1_555
O4 C10 1_555 1_555
O5 C10 1_555 1_555
N1 Re1 1_555 1_555
N2 Re1 1_555 1_555
C1 C2 1_555 1_555
C2 H5 1_555 1_555
C3 C1 1_555 1_555
C4 N1 1_555 1_555
C5 O2 1_555 1_555
C6 S2 1_555 1_555
C7 C6 1_555 1_555
C8 C6 1_555 1_555
C9 N2 1_555 1_555
C10 C9 1_555 1_555
H1 N1 1_555 1_555
H2 N1 1_555 1_555
H3 N2 1_555 1_555
H4 N2 1_555 1_555
H6 C2 1_555 1_555
H7 C2 1_555 1_555
H8 C3 1_555 1_555
H9 C3 1_555 1_555
H10 C3 1_555 1_555
H11 C4 1_555 1_555
H12 C7 1_555 1_555
H13 C7 1_555 1_555
H14 C7 1_555 1_555
H15 C8 1_555 1_555
H16 C8 1_555 1_555
H17 C8 1_555 1_555
H18 C9 1_555 1_555
Ag1C S2 1_555 1_555
S2C Ag1 1_555 1_555
O4C C10C 1_555 1_555
O5C C10C 1_555 1_555
N2C C9C 1_555 1_555
C6C S2C 1_555 1_555
C7C C6C 1_555 1_555
C8C C6C 1_555 1_555
C9C C6C 1_555 1_555
C10C C9C 1_555 1_555
H3C N2C 1_555 1_555
H4C N2C 1_555 1_555
H12C C7C 1_555 1_555
H13C C7C 1_555 1_555
H14C C7C 1_555 1_555
H15C C8C 1_555 1_555
H16C C8C 1_555 1_555
H17C C8C 1_555 1_555
H18C C9C 1_555 1_555
S1C Ag1C 1_555 1_555
O2C C5C 1_555 1_555
O3C C5C 1_555 1_555
N1C C4C 1_555 1_555
C1C S1C 1_555 1_555
C2C C1C 1_555 1_555
C3C C1C 1_555 1_555
C4C C1C 1_555 1_555
C5C C4C 1_555 1_555
H1C N1C 1_555 1_555
H2C N1C 1_555 1_555
H5C C2C 1_555 1_555
H6C C2C 1_555 1_555
H7C C2C 1_555 1_555
H8C C3C 1_555 1_555
H9C C3C 1_555 1_555
H10C C3C 1_555 1_555
H11C C4C 1_555 1_555
Re1C S2C 1_555 1_555
O1C Re1C 1_555 1_555
O4F Ag1 1_555 1_555
O5F Ag1 1_555 1_555
Ag1F O4 1_555 1_555
O4E Ag1C 1_555 1_555
O5E Ag1C 1_555 1_555
Ag1E O4C 1_555 1_555
O5 Ag1F 1_555 1_555
C1 C4 1_555 1_555
C4 C5 1_555 1_555
C6 C9 1_555 1_555
O5C Ag1E 1_555 1_555
N2C Re1C 1_555 1_555
S1C Re1C 1_555 1_555
O2C Re1C 1_555 1_555
N1C Re1C 1_555 1_555

#END
