
#######################################################################
#
#                 Cambridge Crystallographic Data Centre
#                                CCDC 
#
#######################################################################
#
# If this CIF has been generated from an entry in the Cambridge 
# Structural Database, then it will include bibliographic, chemical, 
# crystal, experimental, refinement or atomic coordinate data resulting 
# from the CCDC's data processing and validation procedures.
#
#######################################################################

data_WURGIZ
_symmetry_cell_setting           monoclinic
_symmetry_space_group_name_H-M   'P 21/c'
_symmetry_Int_Tables_number      14
_space_group_name_Hall           '-P 2ybc'
loop_
_symmetry_equiv_pos_site_id
_symmetry_equiv_pos_as_xyz
1 x,y,z
2 x,1/2-y,1/2+z
3 -x,-y,-z
4 -x,1/2+y,1/2-z
_cell_length_a                   14.2776(1)
_cell_length_b                   11.8122(2)
_cell_length_c                   20.6360(2)
_cell_angle_alpha                90
_cell_angle_beta                 104.084(1)
_cell_angle_gamma                90
_cell_volume                     3375.64
loop_
_atom_site_label
_atom_site_type_symbol
_atom_site_fract_x
_atom_site_fract_y
_atom_site_fract_z
Zn1 Zn 0.5000 1.5000 0.0000
O1 O 0.4881(7) 1.3249(9) 0.0079(4)
N1 N 0.3805(12) 1.5169(13) 0.0472(7)
N3 N 0.6008(7) 1.5061(8) 0.0959(5)
C1 C 0.6865(12) 1.5414(13) 0.1051(8)
H1 H 0.7050 1.5728 0.0688
C2 C 0.7569(11) 1.5366(12) 0.1671(7)
H2 H 0.8197 1.5601 0.1691
C3 C 0.7336(10) 1.4975(11) 0.2242(7)
C4 C 0.6405(13) 1.4661(14) 0.2113(9)
H3 H 0.6185 1.4365 0.2467
C5 C 0.5733(12) 1.4742(13) 0.1491(7)
H4 H 0.5088 1.4566 0.1458
C6 C 0.8034(10) 1.4861(11) 0.2886(6)
C7 C 0.8979(11) 1.5107(12) 0.2983(7)
H5 H 0.9205 1.5373 0.2625
C8 C 0.9626(11) 1.4979(12) 0.3597(7)
H6 H 1.0278 1.5124 0.3637
N4 N 0.9331(8) 1.4649(8) 0.4134(6)
C9 C 0.8380(11) 1.4415(13) 0.4051(7)
H7 H 0.8159 1.4150 0.4411
C10 C 0.7736(10) 1.4564(12) 0.3442(7)
H8 H 0.7080 1.4460 0.3408
C11 C 1.0033(11) 1.4517(14) 0.4793(7)
H9 H 0.9891 1.3831 0.5010
H10 H 1.0683 1.4456 0.4731
C12 C 0.3157(15) 1.5365(17) 0.0685(9)
C13 C 0.2316(14) 1.5554(18) 0.0965(10)
H11 H 0.2448 1.5259 0.1412
H12 H 0.1763 1.5174 0.0694
H13 H 0.2187 1.6350 0.0973
C11B C 0.9967(11) 1.5483(14) 0.5207(7)
N4B N 1.0669(8) 1.5351(8) 0.5866(6)
C8B C 1.0374(11) 1.5021(12) 0.6403(7)
C7B C 1.1021(11) 1.4893(12) 0.7017(7)
C6B C 1.1966(10) 1.5139(11) 0.7114(6)
C3B C 1.2664(10) 1.5025(11) 0.7758(7)
C2B C 1.2431(11) 1.4634(12) 0.8329(7)
C1B C 1.3135(12) 1.4586(13) 0.8949(8)
N3B N 1.3992(7) 1.4939(8) 0.9041(5)
C5B C 1.4267(12) 1.5258(13) 0.8509(7)
C4B C 1.3595(13) 1.5339(14) 0.7887(9)
H3B H 1.3815 1.5635 0.7533
H4B H 1.4912 1.5434 0.8542
H1B H 1.2950 1.4272 0.9312
H2B H 1.1803 1.4399 0.8309
C10B C 1.2264(10) 1.5436(12) 0.6558(7)
C9B C 1.1620(11) 1.5585(13) 0.5949(7)
H7B H 1.1841 1.5850 0.5589
H8B H 1.2920 1.5540 0.6592
H5B H 1.0795 1.4627 0.7375
H6B H 0.9722 1.4876 0.6363
H9B H 1.0109 1.6169 0.4990
H10B H 0.9317 1.5544 0.5269
O1B O 0.5119(7) 1.6751(9) -0.0079(4)
N1B N 0.6195(12) 1.4831(13) -0.0472(7)
C12B C 0.6843(15) 1.4635(17) -0.0685(9)
C13B C 0.7684(14) 1.4446(18) -0.0965(10)
H11B H 0.7552 1.4741 -0.1412
H12B H 0.8237 1.4826 -0.0694
H13B H 0.7813 1.3650 -0.0973
N3B_2 N 0.3992(7) 1.4939(8) -0.0959(5)
Zn1_2 Zn 1.5000 1.5000 1.0000
N2 N 0.5529(15) 1.1996(17) 0.1270(11)
C26 C 0.5807(19) 1.152(2) 0.1727(13)
C27 C 0.623(2) 1.098(2) 0.2352(10)
H30 H 0.6775 1.1411 0.2588
H31 H 0.6430 1.0230 0.2272
H32 H 0.5758 1.0943 0.2615
O2 O 1.1997(7) 1.3046(9) 0.5427(5)
O3 O 1.1985(9) 1.4615(14) 0.4294(6)
O4 O 1.1491(9) 1.6823(12) 0.4460(7)
O5 O 1.0565(9) 1.2409(9) 0.5913(6)
C14 C 1.1437(7) 1.2313(9) 0.6320(6)
C15 C 1.1619(10) 1.1937(10) 0.6977(6)
H14 H 1.1111 1.1706 0.7155
C16 C 1.2561(13) 1.1907(11) 0.7369(5)
H15 H 1.2682 1.1655 0.7808
C17 C 1.3320(9) 1.2252(12) 0.7103(7)
H16 H 1.3950 1.2231 0.7365
C18 C 1.3138(8) 1.2627(11) 0.6446(7)
H17 H 1.3646 1.2858 0.6268
C19 C 1.2197(9) 1.2658(9) 0.6054(5)
C20 C 1.2772(15) 1.3220(18) 0.5102(9)
H18 H 1.3155 1.2535 0.5135
H19 H 1.3188 1.3824 0.5326
C21 C 1.2381(14) 1.3523(19) 0.4376(8)
H20 H 1.2897 1.3474 0.4147
H21 H 1.1887 1.2980 0.4172
C22 C 1.2596(15) 1.548(2) 0.4308(12)
H22 H 1.3039 1.5275 0.4038
H23 H 1.2972 1.5573 0.4764
C23 C 1.2153(15) 1.654(2) 0.4075(9)
H24 H 1.2643 1.7125 0.4121
H25 H 1.1819 1.6484 0.3606
C24 C 1.113(2) 1.787(2) 0.4355(16)
H26 H 1.1616 1.8327 0.4224
H27 H 1.1073 1.8153 0.4785
C25 C 0.9758(17) 1.1899(19) 0.6106(13)
H28 H 0.9732 1.2180 0.6543
H29 H 0.9853 1.1086 0.6141
C24B C 0.887(2) 1.213(2) 0.5645(16)
O4B O 0.8509(9) 1.3177(12) 0.5540(7)
C23B C 0.7847(15) 1.346(2) 0.5925(9)
C22B C 0.7404(15) 1.452(2) 0.5692(12)
O3B O 0.8015(9) 1.5385(14) 0.5706(6)
C21B C 0.7619(14) 1.6477(19) 0.5624(8)
C20B C 0.7228(15) 1.6780(18) 0.4898(9)
O2B O 0.8003(7) 1.6954(9) 0.4573(5)
C19B C 0.7803(9) 1.7342(9) 0.3946(5)
C14B C 0.8563(7) 1.7687(9) 0.3680(6)
O5B O 0.9435(9) 1.7591(9) 0.4087(6)
C25B C 1.0242(17) 1.8101(19) 0.3894(13)
H28B H 1.0268 1.7820 0.3457
H29B H 1.0147 1.8914 0.3859
C15B C 0.8381(10) 1.8063(10) 0.3023(6)
H14B H 0.8889 1.8294 0.2845
C16B C 0.7439(13) 1.8093(11) 0.2631(5)
H15B H 0.7318 1.8345 0.2192
C17B C 0.6680(9) 1.7748(12) 0.2897(7)
H16B H 0.6050 1.7769 0.2635
C18B C 0.6862(8) 1.7373(11) 0.3554(7)
H17B H 0.6354 1.7142 0.3732
H18B H 0.6845 1.7465 0.4865
H19B H 0.6812 1.6176 0.4674
H20B H 0.7103 1.6526 0.5853
H21B H 0.8113 1.7020 0.5828
H22B H 0.6961 1.4725 0.5962
H23B H 0.7028 1.4427 0.5236
H24B H 0.7357 1.2875 0.5879
H25B H 0.8181 1.3516 0.6394
H26B H 0.8384 1.1673 0.5776
H27B H 0.8927 1.1847 0.5215
B1 B 0.9487(12) 1.1785(14) 0.3171(8)
F1 F 0.8654(14) 1.1838(19) 0.2741(9)
F2 F 1.0093(13) 1.2429(14) 0.2970(9)
F3 F 0.9808(15) 1.0768(13) 0.3219(9)
F4 F 0.9375(11) 1.2135(12) 0.3745(6)
B2 B 0.463(2) 0.837(3) 0.1233(13)
F5 F 0.457(2) 0.938(2) 0.141(2)
F6 F 0.3832(15) 0.813(2) 0.0787(10)
F7 F 0.5343(12) 0.8003(17) 0.1091(8)
F8 F 0.4449(16) 0.802(4) 0.1777(10)
O6 O 0.1092(15) 1.4076(17) -0.0306(9)
loop_
_geom_bond_atom_site_label_1
_geom_bond_atom_site_label_2
_geom_bond_site_symmetry_1
_geom_bond_site_symmetry_2
Zn1 O1 1_555 1_555
N1 Zn1 1_555 1_555
N2 C26 1_555 1_555
N3 Zn1 1_555 1_555
C1 N3 1_555 1_555
H1 C1 1_555 1_555
C2 C1 1_555 1_555
H2 C2 1_555 1_555
C3 C2 1_555 1_555
C4 C3 1_555 1_555
H3 C4 1_555 1_555
C5 N3 1_555 1_555
H4 C5 1_555 1_555
C6 C3 1_555 1_555
C7 C6 1_555 1_555
H5 C7 1_555 1_555
C8 C7 1_555 1_555
H6 C8 1_555 1_555
N4 C8 1_555 1_555
C9 N4 1_555 1_555
H7 C9 1_555 1_555
C10 C6 1_555 1_555
H8 C10 1_555 1_555
C11 N4 1_555 1_555
H9 C11 1_555 1_555
H10 C11 1_555 1_555
C12 N1 1_555 1_555
C13 C12 1_555 1_555
H11 C13 1_555 1_555
H12 C13 1_555 1_555
H13 C13 1_555 1_555
O2 C19 1_555 1_555
O3 C21 1_555 1_555
O4 C23 1_555 1_555
O5 C14 1_555 1_555
C14 C15 1_555 1_555
C15 H14 1_555 1_555
C16 C15 1_555 1_555
H15 C16 1_555 1_555
C17 C16 1_555 1_555
H16 C17 1_555 1_555
C18 C17 1_555 1_555
H17 C18 1_555 1_555
C19 C14 1_555 1_555
C20 O2 1_555 1_555
H18 C20 1_555 1_555
H19 C20 1_555 1_555
C21 C20 1_555 1_555
H20 C21 1_555 1_555
H21 C21 1_555 1_555
C22 O3 1_555 1_555
H22 C22 1_555 1_555
H23 C22 1_555 1_555
C23 C22 1_555 1_555
H24 C23 1_555 1_555
H25 C23 1_555 1_555
C24 O4 1_555 1_555
H26 C24 1_555 1_555
H27 C24 1_555 1_555
C25 O5 1_555 1_555
H28 C25 1_555 1_555
H29 C25 1_555 1_555
C26 C27 1_555 1_555
C27 H30 1_555 1_555
H31 C27 1_555 1_555
H32 C27 1_555 1_555
B1 F1 1_555 1_555
F2 B1 1_555 1_555
F3 B1 1_555 1_555
F4 B1 1_555 1_555
B2 F5 1_555 1_555
F6 B2 1_555 1_555
F7 B2 1_555 1_555
F8 B2 1_555 1_555
C11B C11 1_555 1_555
N4B C11B 1_555 1_555
C8B N4B 1_555 1_555
C7B C8B 1_555 1_555
C6B C7B 1_555 1_555
C3B C6B 1_555 1_555
C2B C3B 1_555 1_555
C1B C2B 1_555 1_555
N3B C1B 1_555 1_555
C5B N3B 1_555 1_555
C4B C3B 1_555 1_555
H3B C4B 1_555 1_555
H4B C5B 1_555 1_555
H1B C1B 1_555 1_555
H2B C2B 1_555 1_555
C10B C6B 1_555 1_555
C9B N4B 1_555 1_555
H7B C9B 1_555 1_555
H8B C10B 1_555 1_555
H5B C7B 1_555 1_555
H6B C8B 1_555 1_555
H9B C11B 1_555 1_555
H10B C11B 1_555 1_555
C24B C25 1_555 1_555
O4B C24B 1_555 1_555
C23B O4B 1_555 1_555
C22B C23B 1_555 1_555
O3B C22B 1_555 1_555
C21B O3B 1_555 1_555
C20B C21B 1_555 1_555
O2B C20B 1_555 1_555
C19B O2B 1_555 1_555
C14B C19B 1_555 1_555
O5B C14B 1_555 1_555
C25B C24 1_555 1_555
H28B C25B 1_555 1_555
H29B C25B 1_555 1_555
C15B C14B 1_555 1_555
H14B C15B 1_555 1_555
C16B C15B 1_555 1_555
H15B C16B 1_555 1_555
C17B C16B 1_555 1_555
H16B C17B 1_555 1_555
C18B C19B 1_555 1_555
H17B C18B 1_555 1_555
H18B C20B 1_555 1_555
H19B C20B 1_555 1_555
H20B C21B 1_555 1_555
H21B C21B 1_555 1_555
H22B C22B 1_555 1_555
H23B C22B 1_555 1_555
H24B C23B 1_555 1_555
H25B C23B 1_555 1_555
H26B C24B 1_555 1_555
H27B C24B 1_555 1_555
O1B Zn1 1_555 1_555
N1B Zn1 1_555 1_555
C12B N1B 1_555 1_555
C13B C12B 1_555 1_555
H11B C13B 1_555 1_555
H12B C13B 1_555 1_555
H13B C13B 1_555 1_555
N3B_2 Zn1 1_555 1_555
Zn1_2 N3B 1_555 1_555
C4 C5 1_555 1_555
C9 C10 1_555 1_555
C18 C19 1_555 1_555
C5B C4B 1_555 1_555
C10B C9B 1_555 1_555
O5B C25B 1_555 1_555
C17B C18B 1_555 1_555

#END
