
#######################################################################
#
#                 Cambridge Crystallographic Data Centre
#                                CCDC 
#
#######################################################################
#
# If this CIF has been generated from an entry in the Cambridge 
# Structural Database, then it will include bibliographic, chemical, 
# crystal, experimental, refinement or atomic coordinate data resulting 
# from the CCDC's data processing and validation procedures.
#
#######################################################################

data_WURGEV
_symmetry_cell_setting           monoclinic
_symmetry_space_group_name_H-M   'P 21/c'
_symmetry_Int_Tables_number      14
_space_group_name_Hall           '-P 2ybc'
loop_
_symmetry_equiv_pos_site_id
_symmetry_equiv_pos_as_xyz
1 x,y,z
2 x,1/2-y,1/2+z
3 -x,-y,-z
4 -x,1/2+y,1/2-z
_cell_length_a                   14.2776(1)
_cell_length_b                   11.8122(2)
_cell_length_c                   20.6360(2)
_cell_angle_alpha                90
_cell_angle_beta                 104.084(1)
_cell_angle_gamma                90
_cell_volume                     3375.64
loop_
_atom_site_label
_atom_site_type_symbol
_atom_site_fract_x
_atom_site_fract_y
_atom_site_fract_z
Co1 Co 0.5000 0.0000 0.5000
O1 O 0.50955(18) -0.1731(2) 0.49337(12)
H1 H 0.4875 -0.2113 0.5213
H2 H 0.5068 -0.2115 0.4581
N1 N 0.3989(2) 0.0076(2) 0.40210(13)
N2 N 0.06699(19) -0.0352(2) 0.08780(12)
N3 N 0.6178(2) 0.0167(3) 0.45258(15)
C1 C 0.3080(3) 0.0418(4) 0.39330(17)
H3 H 0.2887 0.0698 0.4302
C2 C 0.2404(3) 0.0384(4) 0.33292(17)
H4 H 0.1777 0.0635 0.3300
C3 C 0.2656(2) -0.0022(3) 0.27687(15)
C4 C 0.3604(3) -0.0370(5) 0.28585(18)
H5 H 0.3818 -0.0644 0.2497
C5 C 0.4231(3) -0.0312(5) 0.34798(19)
H6 H 0.4861 -0.0559 0.3524
C6 C 0.1959(2) -0.0111(2) 0.21112(15)
C7 C 0.0985(3) 0.0109(3) 0.20236(17)
H7 H 0.0753 0.0343 0.2386
C8 C 0.0357(3) -0.0012(3) 0.14084(17)
H8 H -0.0295 0.0143 0.1359
C9 C 0.1609(2) -0.0567(3) 0.09450(15)
H9 H 0.1821 -0.0801 0.0574
C10 C 0.2264(2) -0.0449(3) 0.15461(16)
H10 H 0.2914 -0.0594 0.1579
C11 C -0.0017(3) -0.0505(3) 0.02204(17)
H11 H -0.056(4) -0.068(4) 0.023(2)
H12 H 0.019(3) -0.102(4) 0.001(2)
C12 C 0.6812(3) 0.0328(3) 0.43024(17)
C13 C 0.7629(3) 0.0528(5) 0.4012(2)
H13 H 0.7521 0.0153 0.3587
H14 H 0.8206 0.0236 0.4305
H15 H 0.7700 0.1326 0.3952
C11B C 0.0017(3) 0.0505(3) -0.02204(17)
N2B N -0.06699(19) 0.0352(2) -0.08780(12)
C8B C -0.0357(3) 0.0012(3) -0.14084(17)
C7B C -0.0985(3) -0.0109(3) -0.20236(17)
C6B C -0.1959(2) 0.0111(2) -0.21112(15)
C3B C -0.2656(2) 0.0022(3) -0.27687(15)
C2B C -0.2404(3) -0.0384(4) -0.33292(17)
C1B C -0.3080(3) -0.0418(4) -0.39330(17)
N1B N -0.3989(2) -0.0076(2) -0.40210(13)
C5B C -0.4231(3) 0.0312(5) -0.34798(19)
C4B C -0.3604(3) 0.0370(5) -0.28585(18)
H5B H -0.3818 0.0644 -0.2497
H6B H -0.4861 0.0559 -0.3524
H3B H -0.2887 -0.0698 -0.4302
H4B H -0.1777 -0.0635 -0.3300
C10B C -0.2264(2) 0.0449(3) -0.15461(16)
C9B C -0.1609(2) 0.0567(3) -0.09450(15)
H9B H -0.1821 0.0801 -0.0574
H10B H -0.2914 0.0594 -0.1579
H7B H -0.0753 -0.0343 -0.2386
H8B H 0.0295 -0.0143 -0.1359
H11B H 0.056(4) 0.068(4) -0.023(2)
H12B H -0.019(3) 0.102(4) -0.001(2)
O1B O 0.49045(18) 0.1731(2) 0.50663(12)
H1B H 0.5125 0.2113 0.4787
H2B H 0.4932 0.2115 0.5419
N3B N 0.3822(2) -0.0167(3) 0.54742(15)
C12B C 0.3188(3) -0.0328(3) 0.56976(17)
C13B C 0.2371(3) -0.0528(5) 0.5988(2)
H13B H 0.2479 -0.0153 0.6413
H14B H 0.1794 -0.0236 0.5695
H15B H 0.2300 -0.1326 0.6048
N1B_2 N 0.6011(2) -0.0076(2) 0.59790(13)
Co1_2 Co -0.5000 0.0000 -0.5000
O2 O -0.19828(17) -0.1959(2) -0.04183(13)
O3 O -0.1990(2) -0.0410(3) 0.07199(17)
O4 O -0.1514(2) 0.1829(3) 0.05159(18)
O5 O -0.05279(19) -0.2571(2) -0.09000(14)
C14 C -0.1427(3) -0.2667(3) -0.13243(19)
C15 C -0.1591(4) -0.3042(4) -0.1981(2)
H16 H -0.1078 -0.3260 -0.2158
C16 C -0.2536(5) -0.3084(5) -0.2370(2)
H17 H -0.2653 -0.3337 -0.2809
C17 C -0.3280(5) -0.2765(5) -0.2122(3)
H18 H -0.3905 -0.2798 -0.2391
C18 C -0.3134(3) -0.2392(4) -0.1476(2)
H19 H -0.3656 -0.2174 -0.1310
C19 C -0.2200(3) -0.2341(3) -0.10714(18)
C20 C -0.2787(3) -0.1793(4) -0.0118(2)
H20 H -0.3174 -0.2476 -0.0162
H21 H -0.3193 -0.1181 -0.0342
C21 C -0.2399(4) -0.1510(4) 0.0606(2)
H22 H -0.2919 -0.1572 0.0832
H23 H -0.1910 -0.2063 0.0804
C22 C -0.2661(3) 0.0469(5) 0.0678(3)
H24 H -0.3103 0.0285 0.0953
H25 H -0.3034 0.0543 0.0220
C23 C -0.2183(4) 0.1543(4) 0.0901(3)
H26 H -0.2663 0.2137 0.0858
H27 H -0.1845 0.1486 0.1368
C24 C -0.1149(4) 0.2938(5) 0.0595(4)
H28 H -0.1642 0.3432 0.0689
H29 H -0.1023 0.3182 0.0175
C25 C 0.0269(4) -0.3080(4) -0.1121(3)
H30 H 0.0340 -0.2716 -0.1528
H31 H 0.0144 -0.3879 -0.1213
C24B C 0.1149(4) -0.2938(5) -0.0595(4)
O4B O 0.1514(2) -0.1829(3) -0.05159(18)
C23B C 0.2183(4) -0.1543(4) -0.0901(3)
C22B C 0.2661(3) -0.0469(5) -0.0678(3)
O3B O 0.1990(2) 0.0410(3) -0.07199(17)
C21B C 0.2399(4) 0.1510(4) -0.0606(2)
C20B C 0.2787(3) 0.1793(4) 0.0118(2)
O2B O 0.19828(17) 0.1959(2) 0.04183(13)
C19B C 0.2200(3) 0.2341(3) 0.10714(18)
C14B C 0.1427(3) 0.2667(3) 0.13243(19)
O5B O 0.05279(19) 0.2571(2) 0.09000(14)
C25B C -0.0269(4) 0.3080(4) 0.1121(3)
H30B H -0.0340 0.2716 0.1528
H31B H -0.0144 0.3879 0.1213
C15B C 0.1591(4) 0.3042(4) 0.1981(2)
H16B H 0.1078 0.3260 0.2158
C16B C 0.2536(5) 0.3084(5) 0.2370(2)
H17B H 0.2653 0.3337 0.2809
C17B C 0.3280(5) 0.2765(5) 0.2122(3)
H18B H 0.3905 0.2798 0.2391
C18B C 0.3134(3) 0.2392(4) 0.1476(2)
H19B H 0.3656 0.2174 0.1310
H20B H 0.3174 0.2476 0.0162
H21B H 0.3193 0.1181 0.0342
H22B H 0.2919 0.1572 -0.0832
H23B H 0.1910 0.2063 -0.0804
H24B H 0.3103 -0.0285 -0.0953
H25B H 0.3034 -0.0543 -0.0220
H26B H 0.2663 -0.2137 -0.0858
H27B H 0.1845 -0.1486 -0.1368
H28B H 0.1642 -0.3432 -0.0689
H29B H 0.1023 -0.3182 -0.0175
N4 N 0.4498(4) 0.7019(4) 0.3754(2)
C26 C 0.4194(4) 0.6577(5) 0.3274(3)
C27 C 0.3797(7) 0.5974(7) 0.2656(3)
H32 H 0.3742 0.5185 0.2750
H33 H 0.4217 0.6066 0.2360
H34 H 0.3171 0.6273 0.2449
B1 B 0.0539(4) 0.6803(5) 0.1841(3)
F1 F 0.1392(6) 0.6928(9) 0.2221(4)
F2 F -0.0057(6) 0.7441(6) 0.2050(4)
F3 F 0.0176(5) 0.5784(4) 0.1769(3)
F4 F 0.0667(4) 0.7158(4) 0.1263(3)
B2 B 0.4568(4) 0.8362(6) 0.1227(3)
F5 F 0.4520(6) 0.9381(6) 0.1398(7)
F6 F 0.3813(4) 0.8070(6) 0.0759(3)
F7 F 0.5375(3) 0.8012(5) 0.1105(2)
F8 F 0.4424(5) 0.7925(10) 0.1769(3)
O6 O 0.8872(4) -0.0886(4) 0.5329(2)
H35 H 0.9382 -0.0731 0.5204
H36 H 0.8869 -0.1590 0.5413
loop_
_geom_bond_atom_site_label_1
_geom_bond_atom_site_label_2
_geom_bond_site_symmetry_1
_geom_bond_site_symmetry_2
Co1 O1 1_555 1_555
O1 H1 1_555 1_555
H2 O1 1_555 1_555
O2 C19 1_555 1_555
O3 C21 1_555 1_555
O4 C23 1_555 1_555
O5 C14 1_555 1_555
N1 Co1 1_555 1_555
N2 C8 1_555 1_555
N3 Co1 1_555 1_555
N4 C26 1_555 1_555
C1 N1 1_555 1_555
H3 C1 1_555 1_555
C2 C1 1_555 1_555
H4 C2 1_555 1_555
C3 C2 1_555 1_555
C4 C3 1_555 1_555
H5 C4 1_555 1_555
C5 N1 1_555 1_555
H6 C5 1_555 1_555
C6 C3 1_555 1_555
C7 C6 1_555 1_555
H7 C7 1_555 1_555
C8 C7 1_555 1_555
H8 C8 1_555 1_555
C9 N2 1_555 1_555
H9 C9 1_555 1_555
C10 C6 1_555 1_555
H10 C10 1_555 1_555
C11 N2 1_555 1_555
H11 C11 1_555 1_555
H12 C11 1_555 1_555
C12 N3 1_555 1_555
C13 C12 1_555 1_555
H13 C13 1_555 1_555
H14 C13 1_555 1_555
H15 C13 1_555 1_555
C14 C15 1_555 1_555
C15 H16 1_555 1_555
C16 C15 1_555 1_555
H17 C16 1_555 1_555
C17 C16 1_555 1_555
H18 C17 1_555 1_555
C18 C17 1_555 1_555
H19 C18 1_555 1_555
C19 C14 1_555 1_555
C20 O2 1_555 1_555
H20 C20 1_555 1_555
H21 C20 1_555 1_555
C21 C20 1_555 1_555
H22 C21 1_555 1_555
H23 C21 1_555 1_555
C22 O3 1_555 1_555
H24 C22 1_555 1_555
H25 C22 1_555 1_555
C23 C22 1_555 1_555
H26 C23 1_555 1_555
H27 C23 1_555 1_555
C24 O4 1_555 1_555
H28 C24 1_555 1_555
H29 C24 1_555 1_555
C25 O5 1_555 1_555
H30 C25 1_555 1_555
H31 C25 1_555 1_555
C26 C27 1_555 1_555
C27 H32 1_555 1_555
H33 C27 1_555 1_555
H34 C27 1_555 1_555
B1 F1 1_555 1_555
F2 B1 1_555 1_555
F3 B1 1_555 1_555
F4 B1 1_555 1_555
B2 F5 1_555 1_555
F6 B2 1_555 1_555
F7 B2 1_555 1_555
F8 B2 1_555 1_555
O6 H35 1_555 1_555
H36 O6 1_555 1_555
C24B C25 1_555 1_555
O4B C24B 1_555 1_555
C23B O4B 1_555 1_555
C22B C23B 1_555 1_555
O3B C22B 1_555 1_555
C21B O3B 1_555 1_555
C20B C21B 1_555 1_555
O2B C20B 1_555 1_555
C19B O2B 1_555 1_555
C14B C19B 1_555 1_555
O5B C14B 1_555 1_555
C25B C24 1_555 1_555
H30B C25B 1_555 1_555
H31B C25B 1_555 1_555
C15B C14B 1_555 1_555
H16B C15B 1_555 1_555
C16B C15B 1_555 1_555
H17B C16B 1_555 1_555
C17B C16B 1_555 1_555
H18B C17B 1_555 1_555
C18B C19B 1_555 1_555
H19B C18B 1_555 1_555
H20B C20B 1_555 1_555
H21B C20B 1_555 1_555
H22B C21B 1_555 1_555
H23B C21B 1_555 1_555
H24B C22B 1_555 1_555
H25B C22B 1_555 1_555
H26B C23B 1_555 1_555
H27B C23B 1_555 1_555
H28B C24B 1_555 1_555
H29B C24B 1_555 1_555
C11B C11 1_555 1_555
N2B C11B 1_555 1_555
C8B N2B 1_555 1_555
C7B C8B 1_555 1_555
C6B C7B 1_555 1_555
C3B C6B 1_555 1_555
C2B C3B 1_555 1_555
C1B C2B 1_555 1_555
N1B C1B 1_555 1_555
C5B N1B 1_555 1_555
C4B C3B 1_555 1_555
H5B C4B 1_555 1_555
H6B C5B 1_555 1_555
H3B C1B 1_555 1_555
H4B C2B 1_555 1_555
C10B C6B 1_555 1_555
C9B N2B 1_555 1_555
H9B C9B 1_555 1_555
H10B C10B 1_555 1_555
H7B C7B 1_555 1_555
H8B C8B 1_555 1_555
H11B C11B 1_555 1_555
H12B C11B 1_555 1_555
O1B Co1 1_555 1_555
H1B O1B 1_555 1_555
H2B O1B 1_555 1_555
N3B Co1 1_555 1_555
C12B N3B 1_555 1_555
C13B C12B 1_555 1_555
H13B C13B 1_555 1_555
H14B C13B 1_555 1_555
H15B C13B 1_555 1_555
N1B_2 Co1 1_555 1_555
Co1_2 N1B 1_555 1_555
C4 C5 1_555 1_555
C9 C10 1_555 1_555
C18 C19 1_555 1_555
O5B C25B 1_555 1_555
C17B C18B 1_555 1_555
C5B C4B 1_555 1_555
C10B C9B 1_555 1_555

#END
