
#######################################################################
#
#                 Cambridge Crystallographic Data Centre
#                                CCDC 
#
#######################################################################
#
# If this CIF has been generated from an entry in the Cambridge 
# Structural Database, then it will include bibliographic, chemical, 
# crystal, experimental, refinement or atomic coordinate data resulting 
# from the CCDC's data processing and validation procedures.
#
#######################################################################

data_WURGOF
_symmetry_cell_setting           triclinic
_symmetry_space_group_name_H-M   'P -1'
_symmetry_Int_Tables_number      2
_space_group_name_Hall           '-P 1'
loop_
_symmetry_equiv_pos_site_id
_symmetry_equiv_pos_as_xyz
1 x,y,z
2 -x,-y,-z
_cell_length_a                   17.3313(18)
_cell_length_b                   20.345(2)
_cell_length_c                   22.006(2)
_cell_angle_alpha                83.692(2)
_cell_angle_beta                 80.080(2)
_cell_angle_gamma                72.306(2)
_cell_volume                     7268.15
loop_
_atom_site_label
_atom_site_type_symbol
_atom_site_fract_x
_atom_site_fract_y
_atom_site_fract_z
O2 O 0.0134(3) 1.0985(3) 0.6212(2)
O3 O -0.1045(3) 1.0134(3) 0.6376(2)
O4 O -0.1002(11) 0.8895(5) 0.6064(3)
O5 O 0.0933(3) 1.1398(3) 0.5204(2)
C45 C 0.1242(5) 1.1397(4) 0.5743(4)
C46 C 0.1921(6) 1.1585(4) 0.5779(5)
H43 H 0.2221 1.1723 0.5422
C47 C 0.2169(7) 1.1570(5) 0.6365(6)
H44 H 0.2637 1.1693 0.6390
C48 C 0.1742(7) 1.1384(5) 0.6873(6)
H45 H 0.1892 1.1403 0.7255
C49 C 0.1083(6) 1.1164(5) 0.6842(4)
H46 H 0.0814 1.1002 0.7203
C50 C 0.0804(5) 1.1176(4) 0.6284(3)
C51 C -0.0391(6) 1.0871(5) 0.6769(3)
H47 H -0.0514 1.1253 0.7032
H48 H -0.0122 1.0450 0.6994
C52 C -0.1170(5) 1.0813(5) 0.6594(4)
H49 H -0.1596 1.0891 0.6949
H50 H -0.1348 1.1165 0.6271
C53 C -0.1269(6) 0.9663(5) 0.6828(4)
H51 H -0.0985 0.9632 0.7178
H52 H -0.1852 0.9830 0.6970
C54 C -0.1082(6) 0.8978(5) 0.6604(4)
H53 H -0.1511 0.8781 0.6808
H54 H -0.0579 0.8700 0.6751
C55 C -0.0821(10) 0.8223(5) 0.5833(4)
H55 H -0.0237 0.8050 0.5695
H56 H -0.0969 0.7907 0.6164
C56 C 0.1250(6) 1.1758(5) 0.4666(4)
H57 H 0.1827 1.1527 0.4548
H58 H 0.1195 1.2226 0.4761
C55A C 0.0821(10) 1.1777(5) 0.4167(4)
O4A O 0.1002(11) 1.1105(5) 0.3936(3)
C54A C 0.1082(6) 1.1022(5) 0.3396(4)
C53A C 0.1269(6) 1.0337(5) 0.3172(4)
O3A O 0.1045(3) 0.9866(3) 0.3624(2)
C52A C 0.1170(5) 0.9187(5) 0.3406(4)
C51A C 0.0391(6) 0.9129(5) 0.3231(3)
O2A O -0.0134(3) 0.9015(3) 0.3788(2)
C50A C -0.0804(5) 0.8824(4) 0.3716(3)
C45A C -0.1242(5) 0.8603(4) 0.4257(4)
O5A O -0.0933(3) 0.8602(3) 0.4796(2)
C56A C -0.1250(6) 0.8242(5) 0.5334(4)
H57A H -0.1827 0.8473 0.5452
H58A H -0.1195 0.7774 0.5239
C46A C -0.1921(6) 0.8415(4) 0.4221(5)
H43A H -0.2221 0.8277 0.4578
C47A C -0.2169(7) 0.8430(5) 0.3635(6)
H44A H -0.2637 0.8307 0.3610
C48A C -0.1742(7) 0.8616(5) 0.3127(6)
H45A H -0.1892 0.8597 0.2745
C49A C -0.1083(6) 0.8836(5) 0.3158(4)
H46A H -0.0814 0.8998 0.2797
H47A H 0.0514 0.8747 0.2968
H48A H 0.0122 0.9550 0.3006
H49A H 0.1596 0.9109 0.3051
H50A H 0.1348 0.8835 0.3729
H51A H 0.0985 1.0368 0.2822
H52A H 0.1852 1.0170 0.3030
H53A H 0.1511 1.1219 0.3192
H54A H 0.0579 1.1300 0.3249
H55A H 0.0237 1.1950 0.4305
H56A H 0.0969 1.2093 0.3836
O6 O 0.3100(5) 1.4450(9) 0.0226(4)
O7 O 0.3042(6) 1.5631(13) 0.0864(9)
O8 O 0.4329(4) 1.5814(3) 0.1258(3)
O9 O 0.4205(4) 1.3828(3) -0.0637(3)
C57 C 0.3760(5) 1.3446(5) -0.0294(4)
C58 C 0.3879(5) 1.2753(5) -0.0378(4)
H59 H 0.4269 1.2535 -0.0695
C59 C 0.3414(7) 1.2385(6) 0.0012(6)
H60 H 0.3494 1.1922 -0.0044
C60 C 0.2831(7) 1.2711(8) 0.0487(5)
H61 H 0.2520 1.2465 0.0748
C61 C 0.2712(6) 1.3404(9) 0.0571(4)
H62 H 0.2321 1.3621 0.0888
C62 C 0.3176(6) 1.3771(6) 0.0180(4)
C63 C 0.2378(7) 1.5073(10) 0.0674(8)
H63 H 0.1833 1.5113 0.0592
H64 H 0.2401 1.4940 0.1109
C64 C 0.2576(18) 1.5832(10) 0.0503(9)
H65 H 0.2119 1.6231 0.0624
H66 H 0.2830 1.5895 0.0080
C65 C 0.2901(6) 1.5918(5) 0.1317(5)
H67 H 0.2686 1.5632 0.1643
H68 H 0.2461 1.6339 0.1264
C66 C 0.3526(6) 1.6107(5) 0.1542(5)
H69 H 0.3497 1.5979 0.1981
H70 H 0.3406 1.6606 0.1492
C67 C 0.4951(6) 1.5923(5) 0.1527(4)
H71 H 0.4733 1.6061 0.1945
H72 H 0.5384 1.5491 0.1551
C68 C 0.4698(6) 1.3540(5) -0.1178(4)
H73 H 0.4372 1.3400 -0.1427
H74 H 0.5134 1.3136 -0.1071
C67A C 0.5049(6) 1.4077(5) -0.1527(4)
O8A O 0.5671(4) 1.4186(3) -0.1258(3)
C66A C 0.6474(6) 1.3893(5) -0.1542(5)
C65A C 0.7099(6) 1.4082(5) -0.1317(5)
O7A O 0.6958(6) 1.4369(13) -0.0864(9)
C64A C 0.7424(18) 1.4168(10) -0.0503(9)
C63A C 0.7622(7) 1.4927(10) -0.0674(8)
O6A O 0.6900(5) 1.5550(9) -0.0226(4)
C62A C 0.6824(6) 1.6229(6) -0.0180(4)
C57A C 0.6240(5) 1.6554(5) 0.0294(4)
O9A O 0.5795(4) 1.6172(3) 0.0637(3)
C68A C 0.5302(6) 1.6460(5) 0.1178(4)
H73A H 0.5628 1.6600 0.1427
H74A H 0.4866 1.6864 0.1071
C58A C 0.6121(5) 1.7247(5) 0.0378(4)
H59A H 0.5731 1.7465 0.0695
C59A C 0.6586(7) 1.7615(6) -0.0012(6)
H60A H 0.6506 1.8078 0.0044
C60A C 0.7169(7) 1.7289(8) -0.0487(5)
H61A H 0.7480 1.7535 -0.0748
C61A C 0.7288(6) 1.6596(9) -0.0571(4)
H62A H 0.7679 1.6379 -0.0888
H63A H 0.8167 1.4887 -0.0592
H64A H 0.7599 1.5060 -0.1109
H65A H 0.7881 1.3769 -0.0624
H66A H 0.7170 1.4105 -0.0080
H67A H 0.7314 1.4368 -0.1643
H68A H 0.7539 1.3661 -0.1264
H69A H 0.6503 1.4021 -0.1981
H70A H 0.6594 1.3394 -0.1492
H71A H 0.5267 1.3939 -0.1945
H72A H 0.4616 1.4509 -0.1551
O10 O 0.3907(3) 1.5847(2) 0.3631(2)
O11 O 0.3100(3) 1.5260(3) 0.4737(2)
O12 O 0.3082(3) 1.4982(3) 0.5994(3)
O13 O 0.5467(3) 1.5732(2) 0.3387(2)
C69 C 0.4955(4) 1.6312(3) 0.3134(3)
C70 C 0.5202(5) 1.6825(4) 0.2778(3)
H75 H 0.5757 1.6791 0.2691
C71 C 0.4630(6) 1.7405(4) 0.2542(3)
H76 H 0.4807 1.7750 0.2300
C72 C 0.3814(6) 1.7460(4) 0.2668(4)
H77 H 0.3433 1.7844 0.2514
C73 C 0.3551(5) 1.6932(4) 0.3032(3)
H78 H 0.2996 1.6966 0.3111
C74 C 0.4106(4) 1.6369(3) 0.3272(3)
C75 C 0.3073(4) 1.5866(4) 0.3729(3)
H79 H 0.2744 1.6271 0.3946
H80 H 0.2882 1.5888 0.3336
C76 C 0.2992(5) 1.5220(4) 0.4107(3)
H81 H 0.2455 1.5169 0.4100
H82 H 0.3401 1.4820 0.3930
C77 C 0.2370(5) 1.5399(4) 0.5148(4)
H83 H 0.2147 1.5011 0.5179
H84 H 0.1976 1.5803 0.4990
C78 C 0.2491(6) 1.5524(6) 0.5779(4)
H85 H 0.2649 1.5945 0.5760
H86 H 0.1981 1.5583 0.6060
C79 C 0.3199(5) 1.5059(5) 0.6615(4)
H87 H 0.3479 1.5407 0.6609
H88 H 0.2672 1.5207 0.6875
C80 C 0.6321(4) 1.5597(4) 0.3144(4)
H89 H 0.6517 1.5962 0.3248
H90 H 0.6389 1.5599 0.2697
C79A C 0.6801(5) 1.4941(5) 0.3385(4)
O12A O 0.6918(3) 1.5018(3) 0.4006(3)
C78A C 0.7509(6) 1.4476(6) 0.4221(4)
C77A C 0.7630(5) 1.4601(4) 0.4852(4)
O11A O 0.6900(3) 1.4740(3) 0.5263(2)
C76A C 0.7008(5) 1.4780(4) 0.5893(3)
C75A C 0.6927(4) 1.4134(4) 0.6271(3)
O10A O 0.6093(3) 1.4153(2) 0.6369(2)
C74A C 0.5894(4) 1.3631(3) 0.6728(3)
C69A C 0.5045(4) 1.3688(3) 0.6866(3)
O13A O 0.4533(3) 1.4268(2) 0.6613(2)
C80A C 0.3679(4) 1.4403(4) 0.6856(4)
H89A H 0.3483 1.4038 0.6752
H90A H 0.3611 1.4401 0.7303
C70A C 0.4798(5) 1.3175(4) 0.7222(3)
H75A H 0.4243 1.3209 0.7309
C71A C 0.5370(6) 1.2595(4) 0.7458(3)
H76A H 0.5193 1.2250 0.7700
C72A C 0.6186(6) 1.2540(4) 0.7332(4)
H77A H 0.6567 1.2156 0.7486
C73A C 0.6449(5) 1.3068(4) 0.6968(3)
H78A H 0.7004 1.3034 0.6889
H79A H 0.7256 1.3729 0.6054
H80A H 0.7118 1.4112 0.6664
H81A H 0.7545 1.4831 0.5900
H82A H 0.6599 1.5180 0.6070
H83A H 0.7853 1.4989 0.4821
H84A H 0.8024 1.4197 0.5010
H85A H 0.7351 1.4055 0.4240
H86A H 0.8019 1.4417 0.3940
H87A H 0.6521 1.4593 0.3391
H88A H 0.7328 1.4793 0.3125
O14 O 0.7722(3) 1.0427(3) 0.0503(3)
O15 O 0.8640(4) 0.9037(4) 0.0942(3)
O16 O 1.0197(4) 0.8378(3) 0.0423(3)
O17 O 0.8142(3) 1.1458(3) -0.0063(2)
C81 C 0.7427(5) 1.1368(5) -0.0182(4)
C82 C 0.6949(6) 1.1820(6) -0.0606(4)
H91 H 0.7097 1.2198 -0.0811
C83 C 0.6252(6) 1.1671(7) -0.0698(5)
H92 H 0.5931 1.1957 -0.0976
C84 C 0.6009(6) 1.1117(8) -0.0396(5)
H93 H 0.5536 1.1031 -0.0467
C85 C 0.6496(5) 1.0695(7) 0.0015(5)
H94 H 0.6343 1.0321 0.0225
C86 C 0.7205(5) 1.0818(5) 0.0121(4)
C87 C 0.7401(6) 0.9935(6) 0.0892(5)
H95 H 0.7297 0.9616 0.0641
H96 H 0.6887 1.0170 0.1135
C88 C 0.7991(6) 0.9556(6) 0.1301(5)
H97 H 0.8222 0.9871 0.1458
H98 H 0.7724 0.9331 0.1650
C89 C 0.9177(7) 0.8536(6) 0.1279(5)
H99 H 0.9440 0.8764 0.1510
H100 H 0.8865 0.8288 0.1574
C90 C 0.9798(6) 0.8047(5) 0.0902(4)
H101 H 0.9549 0.7754 0.0732
H102 H 1.0192 0.7755 0.1154
C91 C 1.0900(6) 0.7908(4) 0.0075(4)
H103 H 1.0844 0.7445 0.0134
H104 H 1.0916 0.8048 -0.0362
C92 C 0.8298(6) 1.2093(5) -0.0283(4)
H105 H 0.7852 1.2477 -0.0115
H106 H 0.8347 1.2143 -0.0730
C91A C 0.9100(6) 1.2092(4) -0.0075(4)
O16A O 0.9803(4) 1.1622(3) -0.0423(3)
C90A C 1.0202(6) 1.1953(5) -0.0902(4)
C89A C 1.0823(7) 1.1464(6) -0.1279(5)
O15A O 1.1360(4) 1.0963(4) -0.0942(3)
C88A C 1.2009(6) 1.0444(6) -0.1301(5)
C87A C 1.2599(6) 1.0065(6) -0.0892(5)
O14A O 1.2278(3) 0.9573(3) -0.0503(3)
C86A C 1.2795(5) 0.9182(5) -0.0121(4)
C81A C 1.2573(5) 0.8632(5) 0.0182(4)
O17A O 1.1858(3) 0.8542(3) 0.0063(2)
C92A C 1.1702(6) 0.7907(5) 0.0283(4)
H105A H 1.2148 0.7523 0.0115
H106A H 1.1653 0.7857 0.0730
C82A C 1.3051(6) 0.8180(6) 0.0606(4)
H91A H 1.2903 0.7802 0.0811
C83A C 1.3748(6) 0.8329(7) 0.0698(5)
H92A H 1.4069 0.8043 0.0976
C84A C 1.3991(6) 0.8883(8) 0.0396(5)
H93A H 1.4464 0.8969 0.0467
C85A C 1.3504(5) 0.9305(7) -0.0015(5)
H94A H 1.3657 0.9679 -0.0225
H95A H 1.2703 1.0384 -0.0641
H96A H 1.3113 0.9830 -0.1135
H97A H 1.1778 1.0129 -0.1458
H98A H 1.2276 1.0669 -0.1650
H99A H 1.0560 1.1236 -0.1510
H100A H 1.1135 1.1712 -0.1574
H101A H 1.0451 1.2246 -0.0732
H102A H 0.9808 1.2245 -0.1154
H103A H 0.9156 1.2555 -0.0134
H104A H 0.9084 1.1952 0.0362
B2 B 0.8432(5) 1.2243(4) 0.7844(4)
F5 F 0.8138(7) 1.2739(4) 0.8242(3)
F6 F 0.7882(4) 1.1882(4) 0.7847(4)
F7 F 0.8570(4) 1.2523(3) 0.7262(2)
F8 F 0.9127(3) 1.1786(2) 0.8018(2)
B3 B 0.5813(6) 0.8614(5) 0.5245(5)
F9 F 0.5438(5) 0.8419(4) 0.5821(3)
F10 F 0.6306(5) 0.8999(4) 0.5359(3)
F11 F 0.5225(4) 0.9012(3) 0.4911(3)
F12 F 0.6285(4) 0.8046(3) 0.4927(3)
B4 B 0.2643(7) 1.4438(5) 0.2637(5)
F13 F 0.3217(6) 1.3823(5) 0.2560(4)
F14 F 0.2234(5) 1.4385(4) 0.3208(3)
F15 F 0.2969(8) 1.4963(5) 0.2605(4)
F16 F 0.2142(8) 1.4535(4) 0.2207(4)
B5 B 0.7977(5) 1.2166(4) 0.4952(4)
F17 F 0.7488(4) 1.1938(4) 0.4660(5)
F18 F 0.7811(4) 1.1888(5) 0.5532(4)
F19 F 0.8784(3) 1.1897(3) 0.4745(3)
F20 F 0.7749(4) 1.2849(3) 0.4958(4)
B6 B 0.0758(6) 0.9148(5) 0.7997(4)
F21 F 0.0152(10) 0.9097(9) 0.7734(8)
F22 F 0.1411(8) 0.8809(7) 0.7646(4)
F23 F 0.0693(6) 0.9821(4) 0.7962(4)
F24 F 0.0713(4) 0.8839(3) 0.8552(2)
N9 N 0.7657(6) 0.7520(5) 0.7430(5)
O18 O 0.7239(9) 0.7574(7) 0.7967(5)
O19 O 0.7460(5) 0.7949(4) 0.7027(3)
C93 C 0.8355(8) 0.6965(7) 0.7303(10)
H107 H 0.8723 0.7101 0.6969
H108 H 0.8203 0.6585 0.7187
H109 H 0.8622 0.6826 0.7664
N10 N 0.7276(10) 0.6729(7) 0.5588(8)
O20 O 0.7905(10) 0.6917(9) 0.5489(13)
O21 O 0.7173(7) 0.6313(5) 0.5269(6)
C94 C 0.6674(16) 0.6964(12) 0.6093(8)
H110 H 0.6820 0.6681 0.6458
H111 H 0.6156 0.6938 0.6015
H112 H 0.6633 0.7435 0.6152
N11 N 0.0508(7) 1.6675(5) 0.4281(6)
O22 O -0.0114(12) 1.6707(8) 0.4636(13)
O23 O 0.0929(8) 1.6149(5) 0.4049(6)
C95 C 0.0725(7) 1.7284(5) 0.4169(6)
H113 H 0.0719 1.7465 0.4555
H114 H 0.0340 1.7615 0.3939
H115 H 0.1264 1.7195 0.3936
N12 N 0.9441(8) 0.7675(6) 0.8761(8)
O24 O 0.9282(9) 0.7764(6) 0.9320(8)
O25 O 0.8930(8) 0.7854(5) 0.8439(9)
C96 C 1.0276(7) 0.7394(7) 0.8531(7)
H116 H 1.0327 0.7162 0.8163
H117 H 1.0540 0.7071 0.8837
H118 H 1.0531 0.7759 0.8437
N13 N 0.4380(9) 1.5963(8) 0.7597(7)
O26 O 0.4327(12) 1.6569(6) 0.7645(13)
O27 O 0.3838(10) 1.5668(8) 0.7806(9)
C97 C 0.5083(8) 1.5571(7) 0.7216(7)
H119 H 0.5187 1.5841 0.6842
H120 H 0.4987 1.5157 0.7117
H121 H 0.5548 1.5450 0.7432
N14 N 0.1018(14) 1.6873(16) 0.6945(13)
O28 O 0.1447(14) 1.6463(13) 0.7280(10)
O29 O 0.0273(14) 1.707(2) 0.7047(15)
C98 C 0.140(2) 1.735(2) 0.661(2)
H122 H 0.1063 1.7815 0.6696
H123 H 0.1474 1.7292 0.6179
H124 H 0.1924 1.7281 0.6742
N15 N 0.9716(12) 1.4115(10) 0.9911(12)
O30 O 0.9296(10) 1.3750(8) 1.0119(9)
O31 O 0.9421(17) 1.4705(11) 0.972(2)
C99 C 1.0565(12) 1.3827(9) 0.9807(9)
H125 H 1.0787 1.4033 0.9431
H126 H 1.0694 1.3338 0.9774
H127 H 1.0797 1.3913 1.0146
N16 N 0.7977(9) 1.6422(8) 0.3363(10)
O32 O 0.8273(12) 1.6033(11) 0.2945(9)
O33 O 0.7324(8) 1.6835(7) 0.3362(10)
C100 C 0.8444(14) 1.6484(12) 0.3804(10)
H128 H 0.8111 1.6534 0.4203
H129 H 0.8635 1.6883 0.3692
H130 H 0.8904 1.6078 0.3819
N17 N 0.3024(10) 1.8099(10) 0.8178(10)
O34 O 0.3255(10) 1.8521(12) 0.8396(11)
O35 O 0.3157(18) 1.8013(17) 0.7630(10)
C101 C 0.2621(18) 1.7668(18) 0.8560(14)
H131 H 0.2820 1.7210 0.8416
H132 H 0.2043 1.7844 0.8549
H133 H 0.2725 1.7655 0.8977
N18 N 0.2409(10) 1.3543(9) 0.8456(8)
O36 O 0.2949(9) 1.3780(10) 0.8228(7)
O37 O 0.1812(14) 1.3968(14) 0.8712(15)
C102 C 0.2462(17) 1.2856(9) 0.8323(18)
H134 H 0.2636 1.2542 0.8665
H135 H 0.2851 1.2726 0.7958
H136 H 0.1935 1.2840 0.8257
N19 N 0.2536(12) 1.5907(10) 0.9006(11)
O38 O 0.2039(13) 1.6471(12) 0.8893(17)
O39 O 0.3216(14) 1.5933(9) 0.9058(15)
C103 C 0.2437(14) 1.5321(11) 0.8771(12)
H137 H 0.2964 1.4997 0.8658
H138 H 0.2163 1.5462 0.8414
H139 H 0.2115 1.5106 0.9082
N20 N 0.9922(11) 1.5436(17) 0.5983(14)
O40 O 1.0553(11) 1.5106(16) 0.5689(12)
O41 O 0.9299(10) 1.5479(9) 0.5748(8)
C104 C 0.981(2) 1.606(2) 0.6240(16)
H140 H 1.0332 1.6152 0.6199
H141 H 0.9594 1.6027 0.6670
H142 H 0.9442 1.6425 0.6030
N21 N 0.371(2) 1.7263(11) 0.6356(10)
O42 O 0.3085(15) 1.742(2) 0.6723(11)
O43 O 0.400(3) 1.6681(11) 0.6193(10)
C105 C 0.3992(11) 1.7804(8) 0.6099(9)
H143 H 0.3629 1.8084 0.5825
H144 H 0.4529 1.7630 0.5871
H145 H 0.4016 1.8078 0.6420
N22 N 0.9970(15) 1.5577(12) 0.8461(10)
O44 O 0.9416(11) 1.6106(11) 0.8524(12)
O45 O 1.051(2) 1.547(2) 0.8775(17)
C106 C 1.0186(18) 1.5218(11) 0.7915(10)
H146 H 0.9717 1.5320 0.7705
H147 H 1.0372 1.4730 0.8017
H148 H 1.0616 1.5361 0.7650
N23 N 0.9802(10) 1.3538(7) 0.7934(8)
O46 O 0.9551(13) 1.3663(10) 0.8460(7)
O47 O 1.0444(10) 1.3125(10) 0.7806(10)
C107 C 0.9287(11) 1.3832(10) 0.7477(6)
H149 H 0.8801 1.4163 0.7658
H150 H 0.9141 1.3474 0.7315
H151 H 0.9573 1.4058 0.7148
Cd1 Cd 0.52753(3) 0.98643(2) 0.72471(2)
N1 N 0.4197(3) 0.9814(3) 0.6778(2)
N2 N 0.0976(3) 0.9617(3) 0.5329(2)
N3 N 0.5273(3) 1.0873(3) 0.6665(2)
N4 N 0.5134(3) 1.4049(2) 0.5033(2)
N5 N 0.6312(3) 0.9924(3) 0.7762(2)
N6 N 0.9470(3) 0.9913(3) 0.9357(2)
N7 N 0.5179(3) 0.8883(3) 0.7858(2)
N8 N 0.4805(3) 0.5840(3) 0.9524(2)
O1 O 0.6336(4) 0.9188(3) 0.6557(2)
H1 H 0.6484 0.9200 0.6168
H2 H 0.6756 0.8836 0.6549
C1 C 0.4227(4) 0.9914(4) 0.6167(3)
H3 H 0.4681 1.0020 0.5936
C2 C 0.3622(4) 0.9869(4) 0.5868(3)
H4 H 0.3667 0.9947 0.5441
C3 C 0.2944(3) 0.9707(3) 0.6196(3)
C4 C 0.2921(4) 0.9603(4) 0.6831(3)
H5 H 0.2479 0.9489 0.7075
C5 C 0.3545(4) 0.9667(4) 0.7098(3)
H6 H 0.3512 0.9604 0.7526
C6 C 0.2268(3) 0.9650(3) 0.5891(3)
C7 C 0.2251(4) 0.9823(4) 0.5265(3)
H7 H 0.2689 0.9945 0.5025
C8 C 0.1595(4) 0.9815(4) 0.4995(3)
H8 H 0.1583 0.9948 0.4578
C9 C 0.0984(4) 0.9431(4) 0.5927(3)
H9 H 0.0549 0.9292 0.6155
C10 C 0.1619(4) 0.9439(3) 0.6212(3)
H10 H 0.1614 0.9301 0.6629
C11 C 0.0266(4) 0.9627(3) 0.5039(3)
H11 H 0.0452 0.9430 0.4639
H12 H -0.0051 0.9353 0.5296
C12 C 0.5936(4) 1.0973(3) 0.6307(3)
H13 H 0.6423 1.0616 0.6297
C13 C 0.5940(4) 1.1570(3) 0.5955(3)
H14 H 0.6420 1.1615 0.5715
C14 C 0.5212(4) 1.2110(3) 0.5961(3)
C15 C 0.4527(4) 1.2004(3) 0.6329(3)
H15 H 0.4029 1.2349 0.6342
C16 C 0.4575(4) 1.1397(4) 0.6673(3)
H16 H 0.4105 1.1342 0.6923
C17 C 0.5184(4) 1.2783(3) 0.5615(3)
C18 C 0.5895(4) 1.2988(3) 0.5477(3)
H17 H 0.6389 1.2697 0.5580
C19 C 0.5849(4) 1.3636(3) 0.5181(3)
H18 H 0.6317 1.3782 0.5086
C20 C 0.4450(4) 1.3858(3) 0.5151(3)
H19 H 0.3964 1.4153 0.5038
C21 C 0.4469(4) 1.3221(3) 0.5440(3)
H20 H 0.3994 1.3084 0.5518
C22 C 0.5103(5) 1.4752(3) 0.4746(3)
H21 H 0.4689 1.4896 0.4473
H22 H 0.5628 1.4747 0.4503
C23 C 0.6424(4) 1.0514(3) 0.7868(3)
H23 H 0.6074 1.0926 0.7727
C24 C 0.7038(4) 1.0544(3) 0.8178(3)
H24 H 0.7108 1.0968 0.8233
C25 C 0.7547(3) 0.9941(3) 0.8405(2)
C26 C 0.7426(4) 0.9321(3) 0.8291(3)
H25 H 0.7757 0.8900 0.8433
C27 C 0.6810(4) 0.9344(3) 0.7967(3)
H26 H 0.6740 0.8928 0.7886
C28 C 0.8210(3) 0.9931(3) 0.8751(3)
C29 C 0.8581(4) 1.0458(3) 0.8634(3)
H27 H 0.8404 1.0823 0.8349
C30 C 0.9213(4) 1.0433(3) 0.8944(3)
H28 H 0.9466 1.0783 0.8865
C31 C 0.9102(4) 0.9412(3) 0.9491(3)
H29 H 0.9272 0.9063 0.9791
C32 C 0.8480(4) 0.9414(3) 0.9187(3)
H30 H 0.8236 0.9059 0.9276
C33 C 1.0162(4) 0.9889(3) 0.9675(3)
H31 H 1.0531 0.9423 0.9686
H32 H 1.0463 1.0194 0.9453
C34 C 0.5084(4) 0.8859(3) 0.8480(3)
H33 H 0.5038 0.9255 0.8675
C35 C 0.5054(4) 0.8257(3) 0.8835(3)
H34 H 0.4980 0.8255 0.9264
C36 C 0.5134(4) 0.7661(3) 0.8552(3)
C37 C 0.5240(4) 0.7691(3) 0.7911(3)
H35 H 0.5292 0.7304 0.7701
C38 C 0.5265(4) 0.8307(4) 0.7592(3)
H36 H 0.5347 0.8319 0.7162
C39 C 0.5054(4) 0.7019(3) 0.8909(3)
C40 C 0.4524(4) 0.7046(3) 0.9461(3)
H37 H 0.4243 0.7469 0.9627
C41 C 0.4414(4) 0.6452(3) 0.9759(3)
H38 H 0.4062 0.6472 1.0131
C42 C 0.5341(5) 0.5797(3) 0.9008(3)
H39 H 0.5627 0.5367 0.8858
C43 C 0.5476(4) 0.6380(3) 0.8697(3)
H40 H 0.5857 0.6344 0.8339
C44 C 0.4643(4) 0.5200(3) 0.9835(3)
H41 H 0.4143 0.5317 1.0129
H42 H 0.4573 0.4919 0.9531
B1 B 0.4214(6) 1.0938(5) 0.8486(5)
F1 F 0.4283(3) 1.0517(3) 0.8034(2)
F2 F 0.4520(7) 1.0517(4) 0.8985(3)
F3 F 0.4630(4) 1.1404(3) 0.8311(3)
F4 F 0.3416(4) 1.1264(5) 0.8667(6)
C11A C -0.0266(4) 1.0373(3) 0.4961(3)
N2A N -0.0976(3) 1.0383(3) 0.4671(2)
C8A C -0.1595(4) 1.0185(4) 0.5005(3)
C7A C -0.2251(4) 1.0177(4) 0.4735(3)
C6A C -0.2268(3) 1.0350(3) 0.4109(3)
C3A C -0.2944(3) 1.0293(3) 0.3804(3)
C2A C -0.3622(4) 1.0131(4) 0.4132(3)
C1A C -0.4227(4) 1.0086(4) 0.3833(3)
N1A N -0.4197(3) 1.0186(3) 0.3222(2)
C5A C -0.3545(4) 1.0333(4) 0.2902(3)
C4A C -0.2921(4) 1.0397(4) 0.3169(3)
H5A H -0.2479 1.0511 0.2925
H6A H -0.3512 1.0396 0.2474
H3A H -0.4681 0.9980 0.4064
H4A H -0.3667 1.0053 0.4559
C10A C -0.1619(4) 1.0561(3) 0.3788(3)
C9A C -0.0984(4) 1.0569(4) 0.4073(3)
H9A H -0.0549 1.0708 0.3845
H10A H -0.1614 1.0699 0.3371
H7A H -0.2689 1.0055 0.4975
H8A H -0.1583 1.0052 0.5422
H11A H -0.0452 1.0570 0.5361
H12A H 0.0051 1.0647 0.4704
C22A C 0.4897(5) 1.5248(3) 0.5254(3)
N4A N 0.4866(3) 1.5951(2) 0.4967(2)
C19A C 0.4151(4) 1.6364(3) 0.4819(3)
C18A C 0.4105(4) 1.7012(3) 0.4523(3)
C17A C 0.4816(4) 1.7217(3) 0.4385(3)
C14A C 0.4788(4) 1.7890(3) 0.4039(3)
C13A C 0.4060(4) 1.8430(3) 0.4045(3)
C12A C 0.4064(4) 1.9027(3) 0.3693(3)
N3A N 0.4727(3) 1.9127(3) 0.3335(2)
C16A C 0.5425(4) 1.8603(4) 0.3327(3)
C15A C 0.5473(4) 1.7996(3) 0.3671(3)
H15A H 0.5971 1.7651 0.3658
H16A H 0.5895 1.8658 0.3077
H13A H 0.3577 1.9384 0.3703
H14A H 0.3580 1.8385 0.4285
C21A C 0.5531(4) 1.6779(3) 0.4560(3)
C20A C 0.5550(4) 1.6142(3) 0.4849(3)
H19A H 0.6036 1.5847 0.4962
H20A H 0.6006 1.6916 0.4482
H17A H 0.3611 1.7303 0.4420
H18A H 0.3683 1.6218 0.4914
H21A H 0.5311 1.5104 0.5527
H22A H 0.4372 1.5253 0.5497
C33A C 0.9838(4) 1.0111(3) 1.0325(3)
N6A N 1.0530(3) 1.0087(3) 1.0643(2)
C30A C 1.0787(4) 0.9567(3) 1.1056(3)
C29A C 1.1419(4) 0.9542(3) 1.1366(3)
C28A C 1.1790(3) 1.0069(3) 1.1249(3)
C25A C 1.2453(3) 1.0059(3) 1.1595(2)
C24A C 1.2962(4) 0.9456(3) 1.1822(3)
C23A C 1.3576(4) 0.9486(3) 1.2132(3)
N5A N 1.3688(3) 1.0076(3) 1.2238(2)
C27A C 1.3190(4) 1.0656(3) 1.2033(3)
C26A C 1.2574(4) 1.0679(3) 1.1709(3)
H25A H 1.2243 1.1100 1.1567
H26A H 1.3260 1.1072 1.2114
H23A H 1.3926 0.9074 1.2273
H24A H 1.2892 0.9032 1.1767
C32A C 1.1520(4) 1.0586(3) 1.0813(3)
C31A C 1.0898(4) 1.0588(3) 1.0509(3)
H29A H 1.0728 1.0937 1.0209
H30A H 1.1764 1.0941 1.0724
H27A H 1.1596 0.9177 1.1651
H28A H 1.0534 0.9217 1.1135
H31A H 0.9469 1.0577 1.0314
H32A H 0.9537 0.9806 1.0547
C44A C 0.5357(4) 0.4800(3) 1.0165(3)
N8A N 0.5195(3) 0.4160(3) 1.0476(2)
C41A C 0.5586(4) 0.3548(3) 1.0241(3)
C40A C 0.5476(4) 0.2954(3) 1.0539(3)
C39A C 0.4946(4) 0.2981(3) 1.1091(3)
C36A C 0.4866(4) 0.2339(3) 1.1448(3)
C35A C 0.4946(4) 0.1743(3) 1.1165(3)
C34A C 0.4916(4) 0.1141(3) 1.1520(3)
N7A N 0.4821(3) 0.1117(3) 1.2142(2)
C38A C 0.4735(4) 0.1693(4) 1.2408(3)
C37A C 0.4760(4) 0.2309(3) 1.2089(3)
H35A H 0.4708 0.2696 1.2299
H36A H 0.4653 0.1681 1.2838
H33A H 0.4962 0.0745 1.1325
H34A H 0.5020 0.1745 1.0736
C43A C 0.4524(4) 0.3620(3) 1.1303(3)
C42A C 0.4659(5) 0.4203(3) 1.0992(3)
H39A H 0.4373 0.4633 1.1142
H40A H 0.4143 0.3656 1.1661
H37A H 0.5757 0.2531 1.0373
H38A H 0.5938 0.3528 0.9869
H41A H 0.5857 0.4683 0.9871
H42A H 0.5427 0.5081 1.0469
Cd1A Cd -0.52753(3) 1.01357(2) 0.27529(2)
O1A O -0.6336(4) 1.0812(3) 0.3443(2)
H1A H -0.6484 1.0800 0.3832
H2A H -0.6756 1.1164 0.3451
B1A B -0.4214(6) 0.9062(5) 0.1514(5)
F1A F -0.4283(3) 0.9483(3) 0.1966(2)
F2A F -0.4520(7) 0.9483(4) 0.1015(3)
F3A F -0.4630(4) 0.8596(3) 0.1689(3)
F4A F -0.3416(4) 0.8736(5) 0.1333(6)
Cd1A_2 Cd 0.47247(3) 2.01357(2) 0.27529(2)
Cd1A_3 Cd 1.47247(3) 1.01357(2) 1.27529(2)
Cd1A_4 Cd 0.47247(3) 0.01357(2) 1.27529(2)
N3A_2 N -0.5273(3) 0.9127(3) 0.3335(2)
N5A_2 N -0.6312(3) 1.0076(3) 0.2238(2)
N7A_2 N -0.5179(3) 1.1117(3) 0.2142(2)
loop_
_geom_bond_atom_site_label_1
_geom_bond_atom_site_label_2
_geom_bond_site_symmetry_1
_geom_bond_site_symmetry_2
Cd1 N1 1_555 1_555
N1 C1 1_555 1_555
N2 C8 1_555 1_555
N3 Cd1 1_555 1_555
N4 C19 1_555 1_555
N5 Cd1 1_555 1_555
N6 C30 1_555 1_555
N7 Cd1 1_555 1_555
N8 C41 1_555 1_555
O1 Cd1 1_555 1_555
H1 O1 1_555 1_555
H2 O1 1_555 1_555
O2 C50 1_555 1_555
O3 C52 1_555 1_555
O4 C54 1_555 1_555
O5 C45 1_555 1_555
O6 C62 1_555 1_555
O7 C64 1_555 1_555
O8 C66 1_555 1_555
O9 C57 1_555 1_555
O10 C74 1_555 1_555
O11 C76 1_555 1_555
O12 C78 1_555 1_555
O13 C69 1_555 1_555
O14 C86 1_555 1_555
O15 C88 1_555 1_555
O16 C90 1_555 1_555
O17 C81 1_555 1_555
C1 H3 1_555 1_555
C2 C1 1_555 1_555
H4 C2 1_555 1_555
C3 C2 1_555 1_555
C4 C3 1_555 1_555
H5 C4 1_555 1_555
C5 N1 1_555 1_555
H6 C5 1_555 1_555
C6 C3 1_555 1_555
C7 C6 1_555 1_555
H7 C7 1_555 1_555
C8 C7 1_555 1_555
H8 C8 1_555 1_555
C9 N2 1_555 1_555
H9 C9 1_555 1_555
C10 C6 1_555 1_555
H10 C10 1_555 1_555
C11 N2 1_555 1_555
H11 C11 1_555 1_555
H12 C11 1_555 1_555
C12 N3 1_555 1_555
H13 C12 1_555 1_555
C13 C12 1_555 1_555
H14 C13 1_555 1_555
C14 C13 1_555 1_555
C15 C14 1_555 1_555
H15 C15 1_555 1_555
C16 N3 1_555 1_555
H16 C16 1_555 1_555
C17 C14 1_555 1_555
C18 C17 1_555 1_555
H17 C18 1_555 1_555
C19 C18 1_555 1_555
H18 C19 1_555 1_555
C20 N4 1_555 1_555
H19 C20 1_555 1_555
C21 C17 1_555 1_555
H20 C21 1_555 1_555
C22 N4 1_555 1_555
H21 C22 1_555 1_555
H22 C22 1_555 1_555
C23 N5 1_555 1_555
H23 C23 1_555 1_555
C24 C23 1_555 1_555
H24 C24 1_555 1_555
C25 C24 1_555 1_555
C26 C25 1_555 1_555
H25 C26 1_555 1_555
C27 N5 1_555 1_555
H26 C27 1_555 1_555
C28 C25 1_555 1_555
C29 C28 1_555 1_555
H27 C29 1_555 1_555
C30 C29 1_555 1_555
H28 C30 1_555 1_555
C31 N6 1_555 1_555
H29 C31 1_555 1_555
C32 C28 1_555 1_555
H30 C32 1_555 1_555
C33 N6 1_555 1_555
H31 C33 1_555 1_555
H32 C33 1_555 1_555
C34 N7 1_555 1_555
H33 C34 1_555 1_555
C35 C34 1_555 1_555
H34 C35 1_555 1_555
C36 C35 1_555 1_555
C37 C36 1_555 1_555
H35 C37 1_555 1_555
C38 N7 1_555 1_555
H36 C38 1_555 1_555
C39 C36 1_555 1_555
C40 C39 1_555 1_555
H37 C40 1_555 1_555
C41 C40 1_555 1_555
H38 C41 1_555 1_555
C42 N8 1_555 1_555
H39 C42 1_555 1_555
C43 C39 1_555 1_555
H40 C43 1_555 1_555
C44 N8 1_555 1_555
H41 C44 1_555 1_555
H42 C44 1_555 1_555
C45 C46 1_555 1_555
C46 H43 1_555 1_555
C47 C46 1_555 1_555
H44 C47 1_555 1_555
C48 C47 1_555 1_555
H45 C48 1_555 1_555
C49 C48 1_555 1_555
H46 C49 1_555 1_555
C50 C45 1_555 1_555
C51 O2 1_555 1_555
H47 C51 1_555 1_555
H48 C51 1_555 1_555
C52 C51 1_555 1_555
H49 C52 1_555 1_555
H50 C52 1_555 1_555
C53 O3 1_555 1_555
H51 C53 1_555 1_555
H52 C53 1_555 1_555
C54 C53 1_555 1_555
H53 C54 1_555 1_555
H54 C54 1_555 1_555
C55 O4 1_555 1_555
H55 C55 1_555 1_555
H56 C55 1_555 1_555
C56 O5 1_555 1_555
H57 C56 1_555 1_555
H58 C56 1_555 1_555
C57 C58 1_555 1_555
C58 H59 1_555 1_555
C59 C58 1_555 1_555
H60 C59 1_555 1_555
C60 C59 1_555 1_555
H61 C60 1_555 1_555
C61 C60 1_555 1_555
H62 C61 1_555 1_555
C62 C57 1_555 1_555
C63 O6 1_555 1_555
H63 C63 1_555 1_555
H64 C63 1_555 1_555
C64 C63 1_555 1_555
H65 C64 1_555 1_555
H66 C64 1_555 1_555
C65 O7 1_555 1_555
H67 C65 1_555 1_555
H68 C65 1_555 1_555
C66 C65 1_555 1_555
H69 C66 1_555 1_555
H70 C66 1_555 1_555
C67 O8 1_555 1_555
H71 C67 1_555 1_555
H72 C67 1_555 1_555
C68 O9 1_555 1_555
H73 C68 1_555 1_555
H74 C68 1_555 1_555
C69 C70 1_555 1_555
C70 H75 1_555 1_555
C71 C70 1_555 1_555
H76 C71 1_555 1_555
C72 C71 1_555 1_555
H77 C72 1_555 1_555
C73 C72 1_555 1_555
H78 C73 1_555 1_555
C74 C69 1_555 1_555
C75 O10 1_555 1_555
H79 C75 1_555 1_555
H80 C75 1_555 1_555
C76 C75 1_555 1_555
H81 C76 1_555 1_555
H82 C76 1_555 1_555
C77 O11 1_555 1_555
H83 C77 1_555 1_555
H84 C77 1_555 1_555
C78 C77 1_555 1_555
H85 C78 1_555 1_555
H86 C78 1_555 1_555
C79 O12 1_555 1_555
H87 C79 1_555 1_555
H88 C79 1_555 1_555
C80 O13 1_555 1_555
H89 C80 1_555 1_555
H90 C80 1_555 1_555
C81 C82 1_555 1_555
C82 H91 1_555 1_555
C83 C82 1_555 1_555
H92 C83 1_555 1_555
C84 C83 1_555 1_555
H93 C84 1_555 1_555
C85 C84 1_555 1_555
H94 C85 1_555 1_555
C86 C81 1_555 1_555
C87 O14 1_555 1_555
H95 C87 1_555 1_555
H96 C87 1_555 1_555
C88 C87 1_555 1_555
H97 C88 1_555 1_555
H98 C88 1_555 1_555
C89 O15 1_555 1_555
H99 C89 1_555 1_555
H100 C89 1_555 1_555
C90 C89 1_555 1_555
H101 C90 1_555 1_555
H102 C90 1_555 1_555
C91 O16 1_555 1_555
H103 C91 1_555 1_555
H104 C91 1_555 1_555
C92 O17 1_555 1_555
H105 C92 1_555 1_555
H106 C92 1_555 1_555
B1 F1 1_555 1_555
F1 Cd1 1_555 1_555
F2 B1 1_555 1_555
F3 B1 1_555 1_555
F4 B1 1_555 1_555
B2 F5 1_555 1_555
F6 B2 1_555 1_555
F7 B2 1_555 1_555
F8 B2 1_555 1_555
B3 F9 1_555 1_555
F10 B3 1_555 1_555
F11 B3 1_555 1_555
F12 B3 1_555 1_555
B4 F13 1_555 1_555
F14 B4 1_555 1_555
F15 B4 1_555 1_555
F16 B4 1_555 1_555
B5 F17 1_555 1_555
F18 B5 1_555 1_555
F19 B5 1_555 1_555
F20 B5 1_555 1_555
B6 F21 1_555 1_555
F22 B6 1_555 1_555
F23 B6 1_555 1_555
F24 B6 1_555 1_555
N9 O18 1_555 1_555
O19 N9 1_555 1_555
C93 N9 1_555 1_555
H107 C93 1_555 1_555
H108 C93 1_555 1_555
H109 C93 1_555 1_555
N10 O20 1_555 1_555
O21 N10 1_555 1_555
C94 N10 1_555 1_555
H110 C94 1_555 1_555
H111 C94 1_555 1_555
H112 C94 1_555 1_555
N11 O22 1_555 1_555
O23 N11 1_555 1_555
C95 N11 1_555 1_555
H113 C95 1_555 1_555
H114 C95 1_555 1_555
H115 C95 1_555 1_555
N12 O24 1_555 1_555
O25 N12 1_555 1_555
C96 N12 1_555 1_555
H116 C96 1_555 1_555
H117 C96 1_555 1_555
H118 C96 1_555 1_555
N13 O26 1_555 1_555
O27 N13 1_555 1_555
C97 N13 1_555 1_555
H119 C97 1_555 1_555
H120 C97 1_555 1_555
H121 C97 1_555 1_555
N14 O28 1_555 1_555
O29 N14 1_555 1_555
C98 N14 1_555 1_555
H122 C98 1_555 1_555
H123 C98 1_555 1_555
H124 C98 1_555 1_555
N15 O30 1_555 1_555
O31 N15 1_555 1_555
C99 N15 1_555 1_555
H125 C99 1_555 1_555
H126 C99 1_555 1_555
H127 C99 1_555 1_555
N16 O32 1_555 1_555
O33 N16 1_555 1_555
C100 N16 1_555 1_555
H128 C100 1_555 1_555
H129 C100 1_555 1_555
H130 C100 1_555 1_555
N17 O34 1_555 1_555
O35 N17 1_555 1_555
C101 N17 1_555 1_555
H131 C101 1_555 1_555
H132 C101 1_555 1_555
H133 C101 1_555 1_555
N18 O36 1_555 1_555
O37 N18 1_555 1_555
C102 N18 1_555 1_555
H134 C102 1_555 1_555
H135 C102 1_555 1_555
H136 C102 1_555 1_555
N19 O38 1_555 1_555
O39 N19 1_555 1_555
C103 N19 1_555 1_555
H137 C103 1_555 1_555
H138 C103 1_555 1_555
H139 C103 1_555 1_555
N20 O40 1_555 1_555
O41 N20 1_555 1_555
C104 N20 1_555 1_555
H140 C104 1_555 1_555
H141 C104 1_555 1_555
H142 C104 1_555 1_555
N21 O42 1_555 1_555
O43 N21 1_555 1_555
C105 N21 1_555 1_555
H143 C105 1_555 1_555
H144 C105 1_555 1_555
H145 C105 1_555 1_555
N22 O44 1_555 1_555
O45 N22 1_555 1_555
C106 N22 1_555 1_555
H146 C106 1_555 1_555
H147 C106 1_555 1_555
H148 C106 1_555 1_555
N23 O46 1_555 1_555
O47 N23 1_555 1_555
C107 N23 1_555 1_555
H149 C107 1_555 1_555
H150 C107 1_555 1_555
H151 C107 1_555 1_555
C11A C11 1_555 1_555
N2A C11A 1_555 1_555
C8A N2A 1_555 1_555
C7A C8A 1_555 1_555
C6A C7A 1_555 1_555
C3A C6A 1_555 1_555
C2A C3A 1_555 1_555
C1A C2A 1_555 1_555
N1A C1A 1_555 1_555
C5A N1A 1_555 1_555
C4A C3A 1_555 1_555
H5A C4A 1_555 1_555
H6A C5A 1_555 1_555
H3A C1A 1_555 1_555
H4A C2A 1_555 1_555
C10A C6A 1_555 1_555
C9A N2A 1_555 1_555
H9A C9A 1_555 1_555
H10A C10A 1_555 1_555
H7A C7A 1_555 1_555
H8A C8A 1_555 1_555
H11A C11A 1_555 1_555
H12A C11A 1_555 1_555
C22A C22 1_555 1_555
N4A C22A 1_555 1_555
C19A N4A 1_555 1_555
C18A C19A 1_555 1_555
C17A C18A 1_555 1_555
C14A C17A 1_555 1_555
C13A C14A 1_555 1_555
C12A C13A 1_555 1_555
N3A C12A 1_555 1_555
C16A N3A 1_555 1_555
C15A C14A 1_555 1_555
H15A C15A 1_555 1_555
H16A C16A 1_555 1_555
H13A C12A 1_555 1_555
H14A C13A 1_555 1_555
C21A C17A 1_555 1_555
C20A N4A 1_555 1_555
H19A C20A 1_555 1_555
H20A C21A 1_555 1_555
H17A C18A 1_555 1_555
H18A C19A 1_555 1_555
H21A C22A 1_555 1_555
H22A C22A 1_555 1_555
C33A C33 1_555 1_555
N6A C33A 1_555 1_555
C30A N6A 1_555 1_555
C29A C30A 1_555 1_555
C28A C29A 1_555 1_555
C25A C28A 1_555 1_555
C24A C25A 1_555 1_555
C23A C24A 1_555 1_555
N5A C23A 1_555 1_555
C27A N5A 1_555 1_555
C26A C25A 1_555 1_555
H25A C26A 1_555 1_555
H26A C27A 1_555 1_555
H23A C23A 1_555 1_555
H24A C24A 1_555 1_555
C32A C28A 1_555 1_555
C31A N6A 1_555 1_555
H29A C31A 1_555 1_555
H30A C32A 1_555 1_555
H27A C29A 1_555 1_555
H28A C30A 1_555 1_555
H31A C33A 1_555 1_555
H32A C33A 1_555 1_555
C44A C44 1_555 1_555
N8A C44A 1_555 1_555
C41A N8A 1_555 1_555
C40A C41A 1_555 1_555
C39A C40A 1_555 1_555
C36A C39A 1_555 1_555
C35A C36A 1_555 1_555
C34A C35A 1_555 1_555
N7A C34A 1_555 1_555
C38A N7A 1_555 1_555
C37A C36A 1_555 1_555
H35A C37A 1_555 1_555
H36A C38A 1_555 1_555
H33A C34A 1_555 1_555
H34A C35A 1_555 1_555
C43A C39A 1_555 1_555
C42A N8A 1_555 1_555
H39A C42A 1_555 1_555
H40A C43A 1_555 1_555
H37A C40A 1_555 1_555
H38A C41A 1_555 1_555
H41A C44A 1_555 1_555
H42A C44A 1_555 1_555
C55A C56 1_555 1_555
O4A C55A 1_555 1_555
C54A O4A 1_555 1_555
C53A C54A 1_555 1_555
O3A C53A 1_555 1_555
C52A O3A 1_555 1_555
C51A C52A 1_555 1_555
O2A C51A 1_555 1_555
C50A O2A 1_555 1_555
C45A C50A 1_555 1_555
O5A C45A 1_555 1_555
C56A C55 1_555 1_555
H57A C56A 1_555 1_555
H58A C56A 1_555 1_555
C46A C45A 1_555 1_555
H43A C46A 1_555 1_555
C47A C46A 1_555 1_555
H44A C47A 1_555 1_555
C48A C47A 1_555 1_555
H45A C48A 1_555 1_555
C49A C50A 1_555 1_555
H46A C49A 1_555 1_555
H47A C51A 1_555 1_555
H48A C51A 1_555 1_555
H49A C52A 1_555 1_555
H50A C52A 1_555 1_555
H51A C53A 1_555 1_555
H52A C53A 1_555 1_555
H53A C54A 1_555 1_555
H54A C54A 1_555 1_555
H55A C55A 1_555 1_555
H56A C55A 1_555 1_555
C67A C68 1_555 1_555
O8A C67A 1_555 1_555
C66A O8A 1_555 1_555
C65A C66A 1_555 1_555
O7A C65A 1_555 1_555
C64A O7A 1_555 1_555
C63A C64A 1_555 1_555
O6A C63A 1_555 1_555
C62A O6A 1_555 1_555
C57A C62A 1_555 1_555
O9A C57A 1_555 1_555
C68A C67 1_555 1_555
H73A C68A 1_555 1_555
H74A C68A 1_555 1_555
C58A C57A 1_555 1_555
H59A C58A 1_555 1_555
C59A C58A 1_555 1_555
H60A C59A 1_555 1_555
C60A C59A 1_555 1_555
H61A C60A 1_555 1_555
C61A C62A 1_555 1_555
H62A C61A 1_555 1_555
H63A C63A 1_555 1_555
H64A C63A 1_555 1_555
H65A C64A 1_555 1_555
H66A C64A 1_555 1_555
H67A C65A 1_555 1_555
H68A C65A 1_555 1_555
H69A C66A 1_555 1_555
H70A C66A 1_555 1_555
H71A C67A 1_555 1_555
H72A C67A 1_555 1_555
C79A C80 1_555 1_555
O12A C79A 1_555 1_555
C78A O12A 1_555 1_555
C77A C78A 1_555 1_555
O11A C77A 1_555 1_555
C76A O11A 1_555 1_555
C75A C76A 1_555 1_555
O10A C75A 1_555 1_555
C74A O10A 1_555 1_555
C69A C74A 1_555 1_555
O13A C69A 1_555 1_555
C80A C79 1_555 1_555
H89A C80A 1_555 1_555
H90A C80A 1_555 1_555
C70A C69A 1_555 1_555
H75A C70A 1_555 1_555
C71A C70A 1_555 1_555
H76A C71A 1_555 1_555
C72A C71A 1_555 1_555
H77A C72A 1_555 1_555
C73A C74A 1_555 1_555
H78A C73A 1_555 1_555
H79A C75A 1_555 1_555
H80A C75A 1_555 1_555
H81A C76A 1_555 1_555
H82A C76A 1_555 1_555
H83A C77A 1_555 1_555
H84A C77A 1_555 1_555
H85A C78A 1_555 1_555
H86A C78A 1_555 1_555
H87A C79A 1_555 1_555
H88A C79A 1_555 1_555
C91A C92 1_555 1_555
O16A C91A 1_555 1_555
C90A O16A 1_555 1_555
C89A C90A 1_555 1_555
O15A C89A 1_555 1_555
C88A O15A 1_555 1_555
C87A C88A 1_555 1_555
O14A C87A 1_555 1_555
C86A O14A 1_555 1_555
C81A C86A 1_555 1_555
O17A C81A 1_555 1_555
C92A C91 1_555 1_555
H105A C92A 1_555 1_555
H106A C92A 1_555 1_555
C82A C81A 1_555 1_555
H91A C82A 1_555 1_555
C83A C82A 1_555 1_555
H92A C83A 1_555 1_555
C84A C83A 1_555 1_555
H93A C84A 1_555 1_555
C85A C86A 1_555 1_555
H94A C85A 1_555 1_555
H95A C87A 1_555 1_555
H96A C87A 1_555 1_555
H97A C88A 1_555 1_555
H98A C88A 1_555 1_555
H99A C89A 1_555 1_555
H100A C89A 1_555 1_555
H101A C90A 1_555 1_555
H102A C90A 1_555 1_555
H103A C91A 1_555 1_555
H104A C91A 1_555 1_555
Cd1A N1A 1_555 1_555
O1A Cd1A 1_555 1_555
H1A O1A 1_555 1_555
H2A O1A 1_555 1_555
B1A F1A 1_555 1_555
F1A Cd1A 1_555 1_555
F2A B1A 1_555 1_555
F3A B1A 1_555 1_555
F4A B1A 1_555 1_555
Cd1A_2 N3A 1_555 1_555
Cd1A_3 N5A 1_555 1_555
Cd1A_4 N7A 1_555 1_555
N3A_2 Cd1A 1_555 1_555
N5A_2 Cd1A 1_555 1_555
N7A_2 Cd1A 1_555 1_555
C4 C5 1_555 1_555
C9 C10 1_555 1_555
C15 C16 1_555 1_555
C20 C21 1_555 1_555
C26 C27 1_555 1_555
C31 C32 1_555 1_555
C37 C38 1_555 1_555
C42 C43 1_555 1_555
C49 C50 1_555 1_555
C61 C62 1_555 1_555
C73 C74 1_555 1_555
C85 C86 1_555 1_555
C5A C4A 1_555 1_555
C10A C9A 1_555 1_555
C16A C15A 1_555 1_555
C21A C20A 1_555 1_555
C27A C26A 1_555 1_555
C32A C31A 1_555 1_555
C38A C37A 1_555 1_555
C43A C42A 1_555 1_555
O5A C56A 1_555 1_555
C48A C49A 1_555 1_555
O9A C68A 1_555 1_555
C60A C61A 1_555 1_555
O13A C80A 1_555 1_555
C72A C73A 1_555 1_555
O17A C92A 1_555 1_555
C84A C85A 1_555 1_555

#END
