
#######################################################################
#
#                 Cambridge Crystallographic Data Centre
#                                CCDC 
#
#######################################################################
#
# If this CIF has been generated from an entry in the Cambridge 
# Structural Database, then it will include bibliographic, chemical, 
# crystal, experimental, refinement or atomic coordinate data resulting 
# from the CCDC's data processing and validation procedures.
#
#######################################################################

data_WURNIG
_symmetry_cell_setting           orthorhombic
_symmetry_space_group_name_H-M   'P 21 21 21'
_symmetry_Int_Tables_number      19
_space_group_name_Hall           'P 2ac 2ab'
loop_
_symmetry_equiv_pos_site_id
_symmetry_equiv_pos_as_xyz
1 x,y,z
2 1/2-x,-y,1/2+z
3 1/2+x,1/2-y,-z
4 -x,1/2+y,1/2-z
_cell_length_a                   4.121(4)
_cell_length_b                   8.376(4)
_cell_length_c                   26.321(10)
_cell_angle_alpha                90
_cell_angle_beta                 90
_cell_angle_gamma                90
_cell_volume                     908.535
loop_
_atom_site_label
_atom_site_type_symbol
_atom_site_fract_x
_atom_site_fract_y
_atom_site_fract_z
I1 I 0.94126(13) 0.92103(5) 0.94850(2)
Cu1 Cu 1.4468(3) 0.72600(11) 0.96225(4)
N1 N 1.4106(19) 0.5514(7) 0.9082(3)
C1 C 1.511(2) 0.4010(9) 0.9167(3)
H1 H 1.6083 0.3780 0.9477
C2 C 1.478(2) 0.2816(9) 0.8827(3)
H2 H 1.5570 0.1802 0.8901
C3 C 1.326(2) 0.3109(9) 0.8364(3)
C4 C 1.226(3) 0.4655(9) 0.8268(3)
H3 H 1.1290 0.4919 0.7960
C5 C 1.272(2) 0.5791(9) 0.8636(4)
H4 H 1.2010 0.6824 0.8569
C6 C 1.263(3) 0.1837(10) 0.7975(3)
C7 C 1.374(3) 0.0191(10) 0.8071(4)
H5 H 1.3530 -0.0048 0.8427
H6 H 1.5977 0.0090 0.7973
H7 H 1.2447 -0.0541 0.7878
O1 O 1.123(3) 0.2187(8) 0.7588(3)
Cu1_2 Cu 0.4468(3) 0.72600(11) 0.96225(4)
Cu1B Cu 0.9468(3) 0.77400(11) 1.03775(4)
I1_2 I 1.94126(13) 0.92103(5) 0.94850(2)
I1B I 1.44126(13) 0.57897(5) 1.05150(2)
loop_
_geom_bond_atom_site_label_1
_geom_bond_atom_site_label_2
_geom_bond_site_symmetry_1
_geom_bond_site_symmetry_2
I1 Cu1 1_555 1_555
Cu1 N1 1_555 1_555
N1 C1 1_555 1_555
C1 H1 1_555 1_555
C2 C1 1_555 1_555
H2 C2 1_555 1_555
C3 C2 1_555 1_555
C4 C3 1_555 1_555
H3 C4 1_555 1_555
C5 N1 1_555 1_555
H4 C5 1_555 1_555
C6 C3 1_555 1_555
C7 C6 1_555 1_555
H5 C7 1_555 1_555
H6 C7 1_555 1_555
H7 C7 1_555 1_555
O1 C6 1_555 1_555
Cu1_2 I1 1_555 1_555
Cu1B I1 1_555 1_555
I1_2 Cu1 1_555 1_555
I1B Cu1 1_555 1_555
C4 C5 1_555 1_555
Cu1B I1B 1_555 1_555

#END
