
#######################################################################
#
#                 Cambridge Crystallographic Data Centre
#                                CCDC 
#
#######################################################################
#
# If this CIF has been generated from an entry in the Cambridge 
# Structural Database, then it will include bibliographic, chemical, 
# crystal, experimental, refinement or atomic coordinate data resulting 
# from the CCDC's data processing and validation procedures.
#
#######################################################################

data_WURNOM
_symmetry_cell_setting           monoclinic
_symmetry_space_group_name_H-M   'P c'
_symmetry_Int_Tables_number      7
_space_group_name_Hall           'P -2yc'
loop_
_symmetry_equiv_pos_site_id
_symmetry_equiv_pos_as_xyz
1 x,y,z
2 x,-y,1/2+z
_cell_length_a                   12.3740(10)
_cell_length_b                   4.251(4)
_cell_length_c                   15.0810(10)
_cell_angle_alpha                90.00
_cell_angle_beta                 106.670(10)
_cell_angle_gamma                90.00
_cell_volume                     759.949
loop_
_atom_site_label
_atom_site_type_symbol
_atom_site_fract_x
_atom_site_fract_y
_atom_site_fract_z
I1 I 0.723861(9) 0.49310(5) 1.041398(8)
Cu1 Cu 0.72479(3) 0.99149(10) 0.93932(2)
N1 N 0.8611(2) 1.0286(7) 0.88512(19)
C1 C 0.8558(3) 0.9013(8) 0.8024(3)
H1 H 0.7966 0.7572 0.7760
C2 C 0.9323(3) 0.9697(8) 0.7538(2)
H2 H 0.9238 0.8798 0.6945
C3 C 1.0216(3) 1.1709(8) 0.7926(2)
C4 C 1.0314(3) 1.2911(9) 0.8804(2)
H3 H 1.0932 1.4221 0.9106
C5 C 0.9490(3) 1.2159(8) 0.9232(2)
H4 H 0.9556 1.3022 0.9826
C6 C 1.1050(3) 1.2714(8) 0.7420(2)
C7 C 1.0897(4) 1.1534(10) 0.6457(3)
H5 H 1.1494 1.2390 0.6219
H6 H 1.0160 1.2208 0.6059
H7 H 1.0937 0.9231 0.6464
O1 O 1.1806(2) 1.4514(7) 0.77904(18)
N2 N 0.5882(2) 0.9703(7) 0.81992(18)
C8 C 0.5941(3) 1.1054(9) 0.7423(3)
H8 H 0.6544 1.2479 0.7460
C9 C 0.5190(3) 1.0534(7) 0.6568(2)
H9 H 0.5296 1.1484 0.6029
C10 C 0.4269(3) 0.8583(8) 0.6511(2)
C11 C 0.4153(3) 0.7294(9) 0.7322(2)
H10 H 0.3514 0.6047 0.7316
C12 C 0.4989(3) 0.7857(9) 0.8146(2)
H11 H 0.4924 0.6887 0.8696
C13 C 0.3434(3) 0.7701(9) 0.5598(2)
C14 C 0.3633(4) 0.8937(10) 0.4721(3)
H12 H 0.3028 0.8207 0.4187
H13 H 0.4360 0.8166 0.4673
H14 H 0.3639 1.1242 0.4735
O2 O 0.2656(2) 0.5970(7) 0.55843(18)
Cu1_2 Cu 0.72479(3) -0.00851(10) 0.93932(2)
I1_2 I 0.723861(9) 1.49310(5) 1.041398(8)
loop_
_geom_bond_atom_site_label_1
_geom_bond_atom_site_label_2
_geom_bond_site_symmetry_1
_geom_bond_site_symmetry_2
I1 Cu1 1_555 1_555
Cu1 N1 1_555 1_555
N1 C1 1_555 1_555
C1 H1 1_555 1_555
C2 C1 1_555 1_555
H2 C2 1_555 1_555
C3 C2 1_555 1_555
C4 C3 1_555 1_555
H3 C4 1_555 1_555
C5 N1 1_555 1_555
H4 C5 1_555 1_555
C6 C3 1_555 1_555
C7 C6 1_555 1_555
H5 C7 1_555 1_555
H6 C7 1_555 1_555
H7 C7 1_555 1_555
O1 C6 1_555 1_555
N2 Cu1 1_555 1_555
C8 N2 1_555 1_555
H8 C8 1_555 1_555
C9 C8 1_555 1_555
H9 C9 1_555 1_555
C10 C9 1_555 1_555
C11 C10 1_555 1_555
H10 C11 1_555 1_555
C12 N2 1_555 1_555
H11 C12 1_555 1_555
C13 C10 1_555 1_555
C14 C13 1_555 1_555
H12 C14 1_555 1_555
H13 C14 1_555 1_555
H14 C14 1_555 1_555
O2 C13 1_555 1_555
Cu1_2 I1 1_555 1_555
I1_2 Cu1 1_555 1_555
C4 C5 1_555 1_555
C11 C12 1_555 1_555

#END
