
#######################################################################
#
#                 Cambridge Crystallographic Data Centre
#                                CCDC 
#
#######################################################################
#
# If this CIF has been generated from an entry in the Cambridge 
# Structural Database, then it will include bibliographic, chemical, 
# crystal, experimental, refinement or atomic coordinate data resulting 
# from the CCDC's data processing and validation procedures.
#
#######################################################################

data_WURRUX
_symmetry_cell_setting           triclinic
_symmetry_space_group_name_H-M   'P -1'
_symmetry_Int_Tables_number      2
_space_group_name_Hall           '-P 1'
loop_
_symmetry_equiv_pos_site_id
_symmetry_equiv_pos_as_xyz
1 x,y,z
2 -x,-y,-z
_cell_length_a                   8.748(3)
_cell_length_b                   11.086(4)
_cell_length_c                   12.472(4)
_cell_angle_alpha                85.145(8)
_cell_angle_beta                 82.720(8)
_cell_angle_gamma                68.676(7)
_cell_volume                     1116.68
loop_
_atom_site_label
_atom_site_type_symbol
_atom_site_fract_x
_atom_site_fract_y
_atom_site_fract_z
Cu1 Cu 0.42762(10) 0.82769(8) 0.24540(7)
N1 N 0.3070(6) 0.7005(5) 0.2898(4)
H1 H 0.2885 0.7013 0.3632
N2 N 0.2092(7) 0.9445(6) 0.1959(5)
H2 H 0.2099 0.9347 0.1241
N3 N 0.4822(7) 0.9890(5) 0.2256(4)
H3 H 0.5786 0.9726 0.1821
N4 N 0.5741(7) 0.7859(6) 0.3740(4)
H4 H 0.5026 0.7912 0.4347
C1 C 0.1418(9) 0.7576(7) 0.2504(7)
H5 H 0.0654 0.7238 0.2942
H6 H 0.1480 0.7350 0.1761
C2 C 0.0829(9) 0.9005(9) 0.2571(7)
H7 H -0.0214 0.9405 0.2265
H8 H 0.0672 0.9240 0.3320
C3 C 0.1877(10) 1.0786(8) 0.2131(7)
H9 H 0.1583 1.0969 0.2892
H10 H 0.1009 1.1377 0.1725
C4 C 0.3502(10) 1.0942(8) 0.1743(7)
H11 H 0.3705 1.0896 0.0962
H12 H 0.3478 1.1778 0.1937
C5 C 0.5067(10) 1.0175(7) 0.3343(6)
H13 H 0.4036 1.0416 0.3808
H14 H 0.5481 1.0881 0.3298
C6 C 0.6304(10) 0.8952(8) 0.3777(6)
H15 H 0.7362 0.8773 0.3348
H16 H 0.6445 0.9062 0.4517
C7 C 0.3831(9) 0.5609(7) 0.2635(6)
H17 H 0.4976 0.5282 0.2783
H18 H 0.3808 0.5528 0.1869
C8 C 0.2958(8) 0.4804(7) 0.3270(6)
C9 C 0.1813(9) 0.4436(7) 0.2868(6)
H19 H 0.1613 0.4634 0.2148
C10 C 0.0947(9) 0.3772(7) 0.3522(6)
H20 H 0.0137 0.3564 0.3248
C11 C 0.1289(8) 0.3418(7) 0.4582(7)
H21 H 0.0728 0.2952 0.5011
C12 C 0.2461(8) 0.3753(7) 0.5008(6)
C13 C 0.3264(8) 0.4451(7) 0.4323(6)
H22 H 0.4049 0.4688 0.4598
C14 C 0.7078(9) 0.6598(7) 0.3859(6)
H23 H 0.6744 0.5930 0.3618
H24 H 0.8046 0.6610 0.3389
C15 C 0.7453(9) 0.7233(7) 0.1008(5)
C16 C 0.8787(8) 0.6061(7) 0.0471(5)
C17 C 0.8601(8) 0.4875(7) 0.0550(5)
H25 H 0.7658 0.4787 0.0928
C18 C 1.0211(8) 0.6169(7) -0.0078(6)
H26 H 1.0358 0.6962 -0.0126
O1 O 0.7833(6) 0.8168(5) 0.1150(5)
O2 O 0.6057(6) 0.7148(5) 0.1264(4)
Cu1A Cu 0.57238(10) 0.17231(8) 0.75460(7)
Cu1A_2 Cu 1.57238(10) 0.17231(8) -0.24540(7)
N1A N 0.6930(6) 0.2995(5) 0.7102(4)
H1A H 0.7115 0.2987 0.6368
N2A N 0.7908(7) 0.0555(6) 0.8041(5)
H2A H 0.7901 0.0653 0.8759
N3A N 0.5178(7) 0.0110(5) 0.7744(4)
H3A H 0.4214 0.0274 0.8179
N4A N 0.4259(7) 0.2141(6) 0.6260(4)
H4A H 0.4974 0.2088 0.5653
C1A C 0.8582(9) 0.2424(7) 0.7496(7)
H5A H 0.9346 0.2762 0.7058
H6A H 0.8520 0.2650 0.8239
C2A C 0.9171(9) 0.0995(9) 0.7429(7)
H7A H 1.0214 0.0595 0.7735
H8A H 0.9328 0.0760 0.6680
C3A C 0.8123(10) -0.0786(8) 0.7869(7)
H9A H 0.8417 -0.0969 0.7108
H10A H 0.8991 -0.1377 0.8275
C4A C 0.6498(10) -0.0942(8) 0.8257(7)
H11A H 0.6295 -0.0896 0.9038
H12A H 0.6522 -0.1778 0.8063
C5A C 0.4933(10) -0.0175(7) 0.6657(6)
H13A H 0.5964 -0.0416 0.6192
H14A H 0.4519 -0.0881 0.6702
C6A C 0.3696(10) 0.1048(8) 0.6223(6)
H15A H 0.2638 0.1227 0.6652
H16A H 0.3555 0.0938 0.5483
C7A C 0.6169(9) 0.4391(7) 0.7365(6)
H17A H 0.5024 0.4718 0.7217
H18A H 0.6192 0.4472 0.8131
C8A C 0.7042(8) 0.5196(7) 0.6730(6)
C9A C 0.8187(9) 0.5564(7) 0.7132(6)
H19A H 0.8387 0.5366 0.7852
C10A C 0.9053(9) 0.6228(7) 0.6478(6)
H20A H 0.9863 0.6436 0.6752
C11A C 0.8711(8) 0.6582(7) 0.5418(7)
H21A H 0.9272 0.7048 0.4989
C12A C 0.7539(8) 0.6247(7) 0.4992(6)
C13A C 0.6736(8) 0.5549(7) 0.5677(6)
H22A H 0.5951 0.5312 0.5402
C14A C 0.2922(9) 0.3402(7) 0.6141(6)
H23A H 0.3256 0.4070 0.6382
H24A H 0.1954 0.3390 0.6611
C15A C 1.2547(9) 0.2767(7) -0.1008(5)
C16A C 1.1213(8) 0.3939(7) -0.0471(5)
C17A C 1.1399(8) 0.5125(7) -0.0550(5)
H25A H 1.2342 0.5213 -0.0928
C18A C 0.9789(8) 0.3831(7) 0.0078(6)
H26A H 0.9642 0.3038 0.0126
O1A O 1.2167(6) 0.1832(5) -0.1150(5)
O2A O 1.3943(6) 0.2852(5) -0.1264(4)
O2A_2 O 0.3943(6) 0.2852(5) 0.8736(4)
Br1 Br 0.23821(12) 0.79198(13) 0.55742(8)
O3 O 0.8377(8) 1.0292(6) 0.0358(5)
O4 O 0.7178(10) 0.2176(8) 0.1838(6)
O5 O 0.4594(9) 0.6283(6) 0.9779(5)
loop_
_geom_bond_atom_site_label_1
_geom_bond_atom_site_label_2
_geom_bond_site_symmetry_1
_geom_bond_site_symmetry_2
Cu1 N1 1_555 1_555
N1 H1 1_555 1_555
N2 Cu1 1_555 1_555
H2 N2 1_555 1_555
N3 Cu1 1_555 1_555
H3 N3 1_555 1_555
N4 Cu1 1_555 1_555
H4 N4 1_555 1_555
C1 N1 1_555 1_555
H5 C1 1_555 1_555
H6 C1 1_555 1_555
C2 N2 1_555 1_555
H7 C2 1_555 1_555
H8 C2 1_555 1_555
C3 N2 1_555 1_555
H9 C3 1_555 1_555
H10 C3 1_555 1_555
C4 N3 1_555 1_555
H11 C4 1_555 1_555
H12 C4 1_555 1_555
C5 N3 1_555 1_555
H13 C5 1_555 1_555
H14 C5 1_555 1_555
C6 N4 1_555 1_555
H15 C6 1_555 1_555
H16 C6 1_555 1_555
C7 N1 1_555 1_555
H17 C7 1_555 1_555
H18 C7 1_555 1_555
C8 C7 1_555 1_555
C9 C8 1_555 1_555
H19 C9 1_555 1_555
C10 C9 1_555 1_555
H20 C10 1_555 1_555
C11 C10 1_555 1_555
H21 C11 1_555 1_555
C12 C11 1_555 1_555
C13 C8 1_555 1_555
H22 C13 1_555 1_555
C14 N4 1_555 1_555
H23 C14 1_555 1_555
H24 C14 1_555 1_555
C15 C16 1_555 1_555
C16 C17 1_555 1_555
C17 H25 1_555 1_555
C18 C16 1_555 1_555
H26 C18 1_555 1_555
O1 C15 1_555 1_555
O2 Cu1 1_555 1_555
Cu1A N1A 1_555 1_555
Cu1A_2 O2A 1_555 1_555
N1A H1A 1_555 1_555
N2A Cu1A 1_555 1_555
H2A N2A 1_555 1_555
N3A Cu1A 1_555 1_555
H3A N3A 1_555 1_555
N4A Cu1A 1_555 1_555
H4A N4A 1_555 1_555
C1A N1A 1_555 1_555
H5A C1A 1_555 1_555
H6A C1A 1_555 1_555
C2A N2A 1_555 1_555
H7A C2A 1_555 1_555
H8A C2A 1_555 1_555
C3A N2A 1_555 1_555
H9A C3A 1_555 1_555
H10A C3A 1_555 1_555
C4A N3A 1_555 1_555
H11A C4A 1_555 1_555
H12A C4A 1_555 1_555
C5A N3A 1_555 1_555
H13A C5A 1_555 1_555
H14A C5A 1_555 1_555
C6A N4A 1_555 1_555
H15A C6A 1_555 1_555
H16A C6A 1_555 1_555
C7A N1A 1_555 1_555
H17A C7A 1_555 1_555
H18A C7A 1_555 1_555
C8A C7A 1_555 1_555
C9A C8A 1_555 1_555
H19A C9A 1_555 1_555
C10A C9A 1_555 1_555
H20A C10A 1_555 1_555
C11A C10A 1_555 1_555
H21A C11A 1_555 1_555
C12A C14 1_555 1_555
C13A C8A 1_555 1_555
H22A C13A 1_555 1_555
C14A C12 1_555 1_555
H23A C14A 1_555 1_555
H24A C14A 1_555 1_555
C15A C16A 1_555 1_555
C16A C17A 1_555 1_555
C17A C18 1_555 1_555
H25A C17A 1_555 1_555
C18A C17 1_555 1_555
H26A C18A 1_555 1_555
O1A C15A 1_555 1_555
O2A C15A 1_555 1_555
O2A_2 Cu1A 1_555 1_555
C1 C2 1_555 1_555
C3 C4 1_555 1_555
C5 C6 1_555 1_555
C12 C13 1_555 1_555
C15 O2 1_555 1_555
N4A C14A 1_555 1_555
C1A C2A 1_555 1_555
C3A C4A 1_555 1_555
C5A C6A 1_555 1_555
C11A C12A 1_555 1_555
C12A C13A 1_555 1_555
C16A C18A 1_555 1_555

#END
