
#######################################################################
#
#                 Cambridge Crystallographic Data Centre
#                                CCDC 
#
#######################################################################
#
# If this CIF has been generated from an entry in the Cambridge 
# Structural Database, then it will include bibliographic, chemical, 
# crystal, experimental, refinement or atomic coordinate data resulting 
# from the CCDC's data processing and validation procedures.
#
#######################################################################

data_WURSUY
_symmetry_cell_setting           monoclinic
_symmetry_space_group_name_H-M   'C 2/c'
_symmetry_Int_Tables_number      15
_space_group_name_Hall           '-C 2yn'
loop_
_symmetry_equiv_pos_site_id
_symmetry_equiv_pos_as_xyz
1 x,y,z
2 -x,y,1/2-z
3 1/2+x,1/2+y,z
4 1/2-x,1/2+y,1/2-z
5 -x,-y,-z
6 x,-y,1/2+z
7 1/2-x,1/2-y,-z
8 1/2+x,1/2-y,1/2+z
_cell_length_a                   21.466(3)
_cell_length_b                   7.6170(6)
_cell_length_c                   20.433(3)
_cell_angle_alpha                90
_cell_angle_beta                 103.930(11)
_cell_angle_gamma                90
_cell_volume                     3242.67
loop_
_atom_site_label
_atom_site_type_symbol
_atom_site_fract_x
_atom_site_fract_y
_atom_site_fract_z
Pb1 Pb 0.672794(13) 0.10205(4) 0.177425(12)
C1 C 0.5785(4) 0.1221(11) 0.0192(5)
H1 H 0.5493 0.1529 0.0443
C2 C 0.5571(4) 0.1143(11) -0.0500(4)
H2 H 0.5147 0.1421 -0.0705
C3 C 0.5987(4) 0.0653(11) -0.0885(4)
C4 C 0.6618(4) 0.0315(11) -0.0546(3)
H3 H 0.6916 0.0006 -0.0790
C5 C 0.6811(3) 0.0431(9) 0.0154(3)
C6 C 0.7480(3) 0.0108(9) 0.0534(3)
C7 C 0.8216(4) 0.0115(14) 0.1563(4)
H4 H 0.8309 0.0287 0.2027
C8 C 0.8716(4) -0.0337(13) 0.1274(4)
H5 H 0.9131 -0.0469 0.1539
C9 C 0.8585(4) -0.0589(10) 0.0581(5)
C10 C 0.7967(4) -0.0349(11) 0.0224(4)
H6 H 0.7869 -0.0496 -0.0242
C11 C 0.5553(5) 0.4083(14) 0.1752(5)
C12 C 0.5819(5) 0.6946(13) 0.1697(4)
C13 C 0.5782(5) 0.0509(15) -0.1639(4)
H7 H 0.6141 0.0159 -0.1811
H8 H 0.5626 0.1627 -0.1827
H9 H 0.5446 -0.0349 -0.1761
C14 C 0.9111(5) -0.1049(12) 0.0237(6)
H10 H 0.9511 -0.1158 0.0568
H11 H 0.9146 -0.0139 -0.0078
H12 H 0.9011 -0.2141 0.0001
N1 N 0.7330(3) 0.4766(10) 0.1732(3)
N2 N 0.6391(3) 0.0878(8) 0.0522(3)
N3 N 0.5498(6) 0.5725(13) 0.1881(8)
N4 N 0.7605(3) 0.0320(9) 0.1214(3)
N5 N 0.5569(5) 0.2619(12) 0.1678(5)
N6 N 0.6086(5) 0.8146(13) 0.1574(5)
O1 O 0.7486(5) 0.3937(9) 0.2272(4)
O2 O 0.7596(5) 0.6190(9) 0.1674(4)
O3 O 0.6915(4) 0.4128(9) 0.1267(3)
Pb1_2 Pb 0.672794(13) 1.10205(4) 0.177425(12)
Pb1C Pb 0.827206(13) 0.60205(4) 0.322575(12)
N6_2 N 0.6086(5) -0.1854(13) 0.1574(5)
O1C O 0.7514(5) -0.1063(9) 0.2728(4)
loop_
_geom_bond_atom_site_label_1
_geom_bond_atom_site_label_2
_geom_bond_site_symmetry_1
_geom_bond_site_symmetry_2
Pb1 N2 1_555 1_555
C1 H1 1_555 1_555
C2 C1 1_555 1_555
H2 C2 1_555 1_555
C3 C2 1_555 1_555
C4 C3 1_555 1_555
H3 C4 1_555 1_555
C5 C4 1_555 1_555
C6 C5 1_555 1_555
C7 H4 1_555 1_555
C8 C7 1_555 1_555
H5 C8 1_555 1_555
C9 C8 1_555 1_555
C10 C6 1_555 1_555
H6 C10 1_555 1_555
C11 N3 1_555 1_555
C12 N3 1_555 1_555
C13 C3 1_555 1_555
H7 C13 1_555 1_555
H8 C13 1_555 1_555
H9 C13 1_555 1_555
C14 C9 1_555 1_555
H10 C14 1_555 1_555
H11 C14 1_555 1_555
H12 C14 1_555 1_555
N1 O1 1_555 1_555
N2 C1 1_555 1_555
N4 Pb1 1_555 1_555
N5 Pb1 1_555 1_555
N6 C12 1_555 1_555
O1 Pb1 1_555 1_555
O2 N1 1_555 1_555
O3 Pb1 1_555 1_555
Pb1_2 N6 1_555 1_555
Pb1C O1 1_555 1_555
N6_2 Pb1 1_555 1_555
O1C Pb1 1_555 1_555
C5 N2 1_555 1_555
C6 N4 1_555 1_555
C7 N4 1_555 1_555
C9 C10 1_555 1_555
C11 N5 1_555 1_555
N1 O3 1_555 1_555

#END
