
#######################################################################
#
#                 Cambridge Crystallographic Data Centre
#                                CCDC 
#
#######################################################################
#
# If this CIF has been generated from an entry in the Cambridge 
# Structural Database, then it will include bibliographic, chemical, 
# crystal, experimental, refinement or atomic coordinate data resulting 
# from the CCDC's data processing and validation procedures.
#
#######################################################################

data_WURTAF
_symmetry_cell_setting           monoclinic
_symmetry_space_group_name_H-M   'C 2/c'
_symmetry_Int_Tables_number      15
_space_group_name_Hall           '-C 2yn'
loop_
_symmetry_equiv_pos_site_id
_symmetry_equiv_pos_as_xyz
1 x,y,z
2 -x,y,1/2-z
3 1/2+x,1/2+y,z
4 1/2-x,1/2+y,1/2-z
5 -x,-y,-z
6 x,-y,1/2+z
7 1/2-x,1/2-y,-z
8 1/2+x,1/2-y,1/2+z
_cell_length_a                   22.0410(19)
_cell_length_b                   7.5368(9)
_cell_length_c                   20.576(2)
_cell_angle_alpha                90
_cell_angle_beta                 101.575(7)
_cell_angle_gamma                90
_cell_volume                     3348.54
loop_
_atom_site_label
_atom_site_type_symbol
_atom_site_fract_x
_atom_site_fract_y
_atom_site_fract_z
Pb1 Pb 0.678383(10) 0.15857(3) 0.680785(11)
C1 C 0.8278(3) 0.0867(10) 0.6691(3)
H1 H 0.8331 0.1242 0.7130
C2 C 0.8786(3) 0.0329(10) 0.6469(3)
H2 H 0.9174 0.0315 0.6750
C3 C 0.8717(3) -0.0203(9) 0.5813(3)
C4 C 0.8130(3) -0.0149(8) 0.5408(3)
H3 H 0.8071 -0.0471 0.4964
C5 C 0.7636(2) 0.0396(7) 0.5683(3)
C6 C 0.6995(3) 0.0489(7) 0.5273(3)
C7 C 0.6870(3) 0.0039(8) 0.4612(3)
H4 H 0.7186 -0.0362 0.4411
C8 C 0.6265(3) 0.0184(8) 0.4241(3)
C9 C 0.5809(3) 0.0767(9) 0.4563(3)
H5 H 0.5402 0.0888 0.4335
C10 C 0.5971(3) 0.1168(9) 0.5229(3)
H6 H 0.5660 0.1547 0.5443
C11 C 0.5784(3) -0.2464(10) 0.6693(3)
C12 C 0.5567(3) -0.5385(11) 0.6662(4)
C13 C 0.9198(4) -0.1166(11) 0.4930(4)
H7 H 0.9599 -0.1514 0.4861
H8 H 0.9057 -0.0151 0.4659
H9 H 0.8912 -0.2128 0.4810
C14 C 0.5578(3) -0.0249(12) 0.3207(3)
H10 H 0.5591 -0.0613 0.2763
H11 H 0.5415 0.0933 0.3200
H12 H 0.5317 -0.1044 0.3391
N1 N 0.7299(3) 0.5438(8) 0.6700(3)
N2 N 0.7701(2) 0.0896(7) 0.6319(2)
N3 N 0.5436(4) -0.3759(10) 0.6772(5)
N4 N 0.6545(2) 0.1045(7) 0.5587(3)
N5 N 0.6060(5) -0.1218(10) 0.6658(5)
N6 N 0.5639(3) -0.6854(8) 0.6583(4)
O1 O 0.6962(2) 0.4634(7) 0.6228(2)
O2 O 0.7473(3) 0.4582(8) 0.7236(3)
O3 O 0.7490(3) 0.6928(8) 0.6639(4)
O4 O 0.9236(2) -0.0726(8) 0.5613(3)
O5 O 0.6188(2) -0.0286(7) 0.3603(2)
Pb1_2 Pb 0.678383(10) -0.84143(3) 0.680785(11)
Pb1C Pb 0.821617(10) 0.65857(3) 0.819215(11)
N6_2 N 0.5639(3) 0.3146(8) 0.6583(4)
O2C O 0.7527(3) -0.0418(8) 0.7764(3)
loop_
_geom_bond_atom_site_label_1
_geom_bond_atom_site_label_2
_geom_bond_site_symmetry_1
_geom_bond_site_symmetry_2
Pb1 N2 1_555 1_555
C1 H1 1_555 1_555
C2 C1 1_555 1_555
H2 C2 1_555 1_555
C3 C2 1_555 1_555
C4 C3 1_555 1_555
H3 C4 1_555 1_555
C5 C4 1_555 1_555
C6 C5 1_555 1_555
C7 C6 1_555 1_555
H4 C7 1_555 1_555
C8 C7 1_555 1_555
C9 C8 1_555 1_555
H5 C9 1_555 1_555
C10 C9 1_555 1_555
H6 C10 1_555 1_555
C11 N3 1_555 1_555
C12 N3 1_555 1_555
C13 H7 1_555 1_555
H8 C13 1_555 1_555
H9 C13 1_555 1_555
C14 H10 1_555 1_555
H11 C14 1_555 1_555
H12 C14 1_555 1_555
N1 O1 1_555 1_555
N2 C1 1_555 1_555
N4 Pb1 1_555 1_555
N5 Pb1 1_555 1_555
N6 C12 1_555 1_555
O1 Pb1 1_555 1_555
O2 Pb1 1_555 1_555
O3 N1 1_555 1_555
O4 C3 1_555 1_555
O5 C8 1_555 1_555
Pb1_2 N6 1_555 1_555
Pb1C O2 1_555 1_555
N6_2 Pb1 1_555 1_555
O2C Pb1 1_555 1_555
C5 N2 1_555 1_555
C6 N4 1_555 1_555
C10 N4 1_555 1_555
C11 N5 1_555 1_555
C13 O4 1_555 1_555
C14 O5 1_555 1_555
N1 O2 1_555 1_555

#END
