
#######################################################################
#
#                 Cambridge Crystallographic Data Centre
#                                CCDC 
#
#######################################################################
#
# If this CIF has been generated from an entry in the Cambridge 
# Structural Database, then it will include bibliographic, chemical, 
# crystal, experimental, refinement or atomic coordinate data resulting 
# from the CCDC's data processing and validation procedures.
#
#######################################################################

data_WURYOY
_symmetry_cell_setting           monoclinic
_symmetry_space_group_name_H-M   'P 21/n'
_symmetry_Int_Tables_number      14
_space_group_name_Hall           '-P 2yn'
loop_
_symmetry_equiv_pos_site_id
_symmetry_equiv_pos_as_xyz
1 x,y,z
2 1/2-x,1/2+y,1/2-z
3 -x,-y,-z
4 1/2+x,1/2-y,1/2+z
_cell_length_a                   6.0112(12)
_cell_length_b                   9.5047(19)
_cell_length_c                   12.665(3)
_cell_angle_alpha                90
_cell_angle_beta                 93.49(3)
_cell_angle_gamma                90
_cell_volume                     722.268
loop_
_atom_site_label
_atom_site_type_symbol
_atom_site_fract_x
_atom_site_fract_y
_atom_site_fract_z
P1 P -0.57599(9) -0.27719(6) 0.35065(4)
C1 C -0.2075(3) -0.2507(2) 0.48905(17)
C2 C -0.2739(3) -0.3137(2) 0.38177(16)
O1 O -0.6262(3) -0.31556(16) 0.23673(12)
O2 O -0.6276(2) -0.13093(16) 0.38658(12)
O3 O -0.1518(3) -0.23740(17) 0.30693(13)
C3 C -0.2235(4) -0.4715(2) 0.37962(18)
O4 O -0.2840(3) -0.32124(17) 0.56933(13)
O5 O -0.0967(3) -0.14443(16) 0.50001(12)
Na1 Na 0.03022(14) -0.01492(9) 0.35945(6)
O6 O -0.3413(3) 0.09499(18) 0.37385(13)
H1 H -0.675(3) -0.370(2) 0.4083(16)
H2 H -0.323(5) -0.521(3) 0.429(2)
H3 H -0.251(4) -0.509(3) 0.311(2)
H4 H -0.158(4) -0.282(3) 0.254(2)
H5 H -0.069(5) -0.490(3) 0.401(2)
H6 H -0.238(5) -0.277(3) 0.628(2)
H7 H -0.432(5) 0.028(4) 0.369(2)
H8 H -0.320(6) 0.126(4) 0.439(3)
O1A O 0.1262(3) 0.18444(16) 0.26327(12)
O2_2 O 0.3724(2) -0.13093(16) 0.38658(12)
O5B O 0.0967(3) 0.14443(16) 0.49999(12)
Na1A Na -0.53022(14) -0.51492(9) 0.14055(6)
Na1_2 Na -0.96978(14) -0.01492(9) 0.35945(6)
Na1B Na -0.03022(14) 0.01492(9) 0.64055(6)
loop_
_geom_bond_atom_site_label_1
_geom_bond_atom_site_label_2
_geom_bond_site_symmetry_1
_geom_bond_site_symmetry_2
P1 C2 1_555 1_555
C1 C2 1_555 1_555
C2 O3 1_555 1_555
O1 P1 1_555 1_555
O2 P1 1_555 1_555
O3 Na1 1_555 1_555
C3 C2 1_555 1_555
O4 C1 1_555 1_555
O5 C1 1_555 1_555
Na1 O5 1_555 1_555
O6 Na1 1_555 1_555
H1 P1 1_555 1_555
H2 C3 1_555 1_555
H3 C3 1_555 1_555
H4 O3 1_555 1_555
H5 C3 1_555 1_555
H6 O4 1_555 1_555
H7 O6 1_555 1_555
H8 O6 1_555 1_555
O1A Na1 1_555 1_555
O2_2 Na1 1_555 1_555
O5B Na1 1_555 1_555
Na1A O1 1_555 1_555
Na1_2 O2 1_555 1_555
Na1B O5 1_555 1_555
O5B Na1B 1_555 1_555

#END
