
#######################################################################
#
#                 Cambridge Crystallographic Data Centre
#                                CCDC 
#
#######################################################################
#
# If this CIF has been generated from an entry in the Cambridge 
# Structural Database, then it will include bibliographic, chemical, 
# crystal, experimental, refinement or atomic coordinate data resulting 
# from the CCDC's data processing and validation procedures.
#
#######################################################################

data_WUSLEB
_symmetry_cell_setting           monoclinic
_symmetry_space_group_name_H-M   'P 21/n'
_symmetry_Int_Tables_number      14
_space_group_name_Hall           '-P 2yn'
loop_
_symmetry_equiv_pos_site_id
_symmetry_equiv_pos_as_xyz
1 x,y,z
2 1/2+x,1/2-y,1/2+z
3 -x,-y,-z
4 1/2-x,1/2+y,1/2-z
_cell_length_a                   7.1731(15)
_cell_length_b                   18.809(4)
_cell_length_c                   13.389(5)
_cell_angle_alpha                90.00(2)
_cell_angle_beta                 105.072(15)
_cell_angle_gamma                90.00(2)
_cell_volume                     1744.29
loop_
_atom_site_label
_atom_site_type_symbol
_atom_site_fract_x
_atom_site_fract_y
_atom_site_fract_z
Ce1 Ce 0.10252(4) 0.234185(13) 0.291921(18)
O1 O 0.1413(6) 0.2354(2) 0.4811(3)
O2 O 0.4577(7) 0.2169(3) 0.3875(3)
O3 O 0.2486(6) 0.35197(19) 0.3202(3)
O4 O 0.3094(6) 0.61069(19) 0.2128(3)
O5 O 0.3042(7) 0.2186(3) 0.0165(3)
O6 O 0.1000(7) 0.1942(2) 0.1030(3)
O7 O 0.3344(8) 0.2649(2) 0.1675(4)
O8 O -0.1023(6) 0.3222(2) 0.1607(3)
O9 O -0.1664(7) 0.3226(3) 0.3080(3)
O10 O -0.2938(9) 0.4022(3) 0.1954(5)
O11 O -0.1702(7) 0.1624(2) 0.3472(3)
O12 O -0.2093(7) 0.1691(3) 0.1848(3)
O13 O -0.4038(9) 0.1065(4) 0.2467(5)
N1 N 0.2746(7) 0.5393(2) 0.3734(3)
N2 N 0.2628(7) 0.4243(2) 0.1570(3)
N3 N 0.2475(8) 0.2262(2) 0.0956(3)
N4 N -0.1908(8) 0.3508(3) 0.2215(4)
N5 N -0.2631(8) 0.1441(3) 0.2586(4)
C1 C 0.2500(8) 0.4127(3) 0.3681(4)
C2 C 0.2369(9) 0.4162(3) 0.4700(4)
H1 H 0.2243 0.3743 0.5047
C3 C 0.2420(9) 0.4796(3) 0.5202(4)
H2 H 0.2311 0.4807 0.5879
C4 C 0.2633(9) 0.5417(3) 0.4707(4)
H3 H 0.2697 0.5850 0.5049
C5 C 0.2678(8) 0.4779(3) 0.3193(4)
C6 C 0.2749(8) 0.4852(3) 0.2120(4)
C7 C 0.2591(10) 0.4224(3) 0.0576(4)
H4 H 0.2528 0.3790 0.0234
C8 C 0.2646(10) 0.4844(3) 0.0058(4)
H5 H 0.2584 0.4835 -0.0644
C9 C 0.2790(9) 0.5475(3) 0.0566(4)
H6 H 0.2819 0.5894 0.0201
C10 C 0.2897(8) 0.5510(3) 0.1623(4)
O4C O 0.1906(6) 0.11069(19) 0.2872(3)
Ce1C Ce 0.39748(4) 0.734185(13) 0.208079(18)
loop_
_geom_bond_atom_site_label_1
_geom_bond_atom_site_label_2
_geom_bond_site_symmetry_1
_geom_bond_site_symmetry_2
Ce1 O1 1_555 1_555
O2 Ce1 1_555 1_555
O3 Ce1 1_555 1_555
O4 C10 1_555 1_555
O5 N3 1_555 1_555
O6 Ce1 1_555 1_555
O7 Ce1 1_555 1_555
O8 Ce1 1_555 1_555
O9 Ce1 1_555 1_555
O10 N4 1_555 1_555
O11 Ce1 1_555 1_555
O12 Ce1 1_555 1_555
O13 N5 1_555 1_555
N1 C4 1_555 1_555
N2 C6 1_555 1_555
N3 O6 1_555 1_555
N4 O8 1_555 1_555
N5 O11 1_555 1_555
C1 O3 1_555 1_555
C2 C1 1_555 1_555
H1 C2 1_555 1_555
C3 C2 1_555 1_555
H2 C3 1_555 1_555
C4 C3 1_555 1_555
H3 C4 1_555 1_555
C5 N1 1_555 1_555
C6 C5 1_555 1_555
C7 N2 1_555 1_555
H4 C7 1_555 1_555
C8 C7 1_555 1_555
H5 C8 1_555 1_555
C9 C8 1_555 1_555
H6 C9 1_555 1_555
C10 C6 1_555 1_555
O4C Ce1 1_555 1_555
Ce1C O4 1_555 1_555
O7 N3 1_555 1_555
O9 N4 1_555 1_555
O12 N5 1_555 1_555
C1 C5 1_555 1_555
C9 C10 1_555 1_555

#END
