
#######################################################################
#
#                 Cambridge Crystallographic Data Centre
#                                CCDC 
#
#######################################################################
#
# If this CIF has been generated from an entry in the Cambridge 
# Structural Database, then it will include bibliographic, chemical, 
# crystal, experimental, refinement or atomic coordinate data resulting 
# from the CCDC's data processing and validation procedures.
#
#######################################################################

data_WUSXIR
_symmetry_cell_setting           monoclinic
_symmetry_space_group_name_H-M   'P 2/c'
_symmetry_Int_Tables_number      13
_space_group_name_Hall           '-P 2yc'
loop_
_symmetry_equiv_pos_site_id
_symmetry_equiv_pos_as_xyz
1 x,y,z
2 x,-y,1/2+z
3 -x,-y,-z
4 -x,y,1/2-z
_cell_length_a                   8.167(4)
_cell_length_b                   11.094(8)
_cell_length_c                   15.863(2)
_cell_angle_alpha                90
_cell_angle_beta                 99.703(4)
_cell_angle_gamma                90
_cell_volume                     1416.7
loop_
_atom_site_label
_atom_site_type_symbol
_atom_site_fract_x
_atom_site_fract_y
_atom_site_fract_z
Cu1 Cu 1.0000 0.09793(7) 0.2500
O1 O 0.7794(4) 0.0961(3) 0.1792(2)
O2 O 0.8536(5) 0.1494(4) 0.0554(3)
O3 O 0.6372(5) 0.1975(4) -0.0752(3)
O4 O 0.1583(4) 0.0980(4) 0.1219(3)
N1 N 1.0000 -0.0822(4) 0.2500
N2 N 1.0000 -0.7223(4) 0.2500
C1 C 0.8815(6) -0.1443(4) 0.2803(3)
C2 C 0.8777(6) -0.2695(4) 0.2819(4)
C3 C 1.0000 -0.3349(5) 0.2500
C4 C 0.8606(6) -0.6586(4) 0.2535(4)
C5 C 0.8566(6) -0.5343(4) 0.2531(4)
C6 C 1.0000 -0.4684(6) 0.2500
C7 C 0.7450(6) 0.1267(4) 0.1013(4)
C8 C 0.5676(5) 0.1381(4) 0.0622(3)
C9 C 0.5227(6) 0.1719(5) -0.0239(3)
C10 C 0.3572(7) 0.1810(6) -0.0597(3)
C11 C 0.2349(6) 0.1572(5) -0.0123(3)
C12 C 0.2771(5) 0.1234(4) 0.0734(3)
C13 C 0.4417(5) 0.1150(4) 0.1096(3)
H1 H 0.7967 -0.1010 0.3014
H2 H 0.7926 -0.3103 0.3046
H3 H 0.7607 -0.7013 0.2563
H4 H 0.7550 -0.4935 0.2549
H5 H 0.7371 0.1681 -0.0443
H6 H 0.3273 0.2041 -0.1180
H7 H 0.1213 0.1637 -0.0379
H8 H 0.0710 0.1167 0.0973
H9 H 0.4705 0.0930 0.1681
C2C C 1.1223(6) -0.2695(4) 0.2181(4)
C1C C 1.1185(6) -0.1443(4) 0.2197(3)
H1C H 1.2033 -0.1010 0.1986
H2C H 1.2074 -0.3103 0.1954
C4C C 1.1394(6) -0.6586(4) 0.2465(4)
C5C C 1.1434(6) -0.5343(4) 0.2469(4)
H4C H 1.2450 -0.4935 0.2451
H3C H 1.2393 -0.7013 0.2437
O1C O 1.2206(4) 0.0961(3) 0.3208(2)
O2C O 1.1464(5) 0.1494(4) 0.4446(3)
O3C O 1.3628(5) 0.1975(4) 0.5752(3)
O4C O 1.8417(4) 0.0980(4) 0.3781(3)
C7C C 1.2550(6) 0.1267(4) 0.3987(4)
C8C C 1.4324(5) 0.1381(4) 0.4378(3)
C9C C 1.4773(6) 0.1719(5) 0.5239(3)
C10C C 1.6428(7) 0.1810(6) 0.5597(3)
C11C C 1.7651(6) 0.1572(5) 0.5123(3)
C12C C 1.7229(5) 0.1234(4) 0.4266(3)
C13C C 1.5583(5) 0.1150(4) 0.3904(3)
H5C H 1.2629 0.1681 0.5443
H6C H 1.6727 0.2041 0.6180
H7C H 1.8787 0.1637 0.5379
H8C H 1.9290 0.1167 0.4027
H9C H 1.5295 0.0930 0.3319
O4_2 O 1.1583(4) 0.0980(4) 0.1219(3)
O4C_2 O 0.8417(4) 0.0980(4) 0.3781(3)
N2_2 N 1.0000 0.2777(4) 0.2500
Cu1_2 Cu 0.0000 0.09793(7) 0.2500
Cu1_3 Cu 1.0000 -0.90207(7) 0.2500
Cu1_4 Cu 2.0000 0.09793(7) 0.2500
H8_2 H 1.0710 0.1167 0.0973
H8C_2 H 0.9290 0.1167 0.4027
O5 O 0.461(3) 0.566(2) 0.153(2)
loop_
_geom_bond_atom_site_label_1
_geom_bond_atom_site_label_2
_geom_bond_site_symmetry_1
_geom_bond_site_symmetry_2
Cu1 O1 1_555 1_555
O1 C7 1_555 1_555
O2 C7 1_555 1_555
O3 C9 1_555 1_555
O4 C12 1_555 1_555
N1 Cu1 1_555 1_555
N2 C4 1_555 1_555
C1 N1 1_555 1_555
C2 C1 1_555 1_555
C3 C2 1_555 1_555
C4 C5 1_555 1_555
C5 C6 1_555 1_555
C6 C3 1_555 1_555
C7 C8 1_555 1_555
C8 C9 1_555 1_555
C9 C10 1_555 1_555
C10 C11 1_555 1_555
C11 C12 1_555 1_555
C12 C13 1_555 1_555
C13 C8 1_555 1_555
H1 C1 1_555 1_555
H2 C2 1_555 1_555
H3 C4 1_555 1_555
H4 C5 1_555 1_555
H5 O3 1_555 1_555
H6 C10 1_555 1_555
H7 C11 1_555 1_555
H8 O4 1_555 1_555
H9 C13 1_555 1_555
C2C C3 1_555 1_555
C1C N1 1_555 1_555
H1C C1C 1_555 1_555
H2C C2C 1_555 1_555
C4C N2 1_555 1_555
C5C C6 1_555 1_555
H4C C5C 1_555 1_555
H3C C4C 1_555 1_555
O1C Cu1 1_555 1_555
O2C C7C 1_555 1_555
O3C C9C 1_555 1_555
O4C C12C 1_555 1_555
C7C O1C 1_555 1_555
C8C C7C 1_555 1_555
C9C C8C 1_555 1_555
C10C C9C 1_555 1_555
C11C C10C 1_555 1_555
C12C C11C 1_555 1_555
C13C C8C 1_555 1_555
H5C O3C 1_555 1_555
H6C C10C 1_555 1_555
H7C C11C 1_555 1_555
H8C O4C 1_555 1_555
H9C C13C 1_555 1_555
O4_2 Cu1 1_555 1_555
O4C_2 Cu1 1_555 1_555
N2_2 Cu1 1_555 1_555
Cu1_2 O4 1_555 1_555
Cu1_3 N2 1_555 1_555
Cu1_4 O4C 1_555 1_555
H8_2 O4_2 1_555 1_555
H8C_2 O4C_2 1_555 1_555
C2C C1C 1_555 1_555
C4C C5C 1_555 1_555
C12C C13C 1_555 1_555

#END
