
#######################################################################
#
#                 Cambridge Crystallographic Data Centre
#                                CCDC 
#
#######################################################################
#
# If this CIF has been generated from an entry in the Cambridge 
# Structural Database, then it will include bibliographic, chemical, 
# crystal, experimental, refinement or atomic coordinate data resulting 
# from the CCDC's data processing and validation procedures.
#
#######################################################################

data_WUTHAV
_symmetry_cell_setting           monoclinic
_symmetry_space_group_name_H-M   'P 21/n'
_symmetry_Int_Tables_number      14
_space_group_name_Hall           '-P 2yn'
loop_
_symmetry_equiv_pos_site_id
_symmetry_equiv_pos_as_xyz
1 x,y,z
2 1/2-x,1/2+y,1/2-z
3 -x,-y,-z
4 1/2+x,1/2-y,1/2+z
_cell_length_a                   14.1301(2)
_cell_length_b                   12.2524(2)
_cell_length_c                   17.0920(3)
_cell_angle_alpha                90
_cell_angle_beta                 105.285(2)
_cell_angle_gamma                90
_cell_volume                     2854.42
loop_
_atom_site_label
_atom_site_type_symbol
_atom_site_fract_x
_atom_site_fract_y
_atom_site_fract_z
O1 O 0.80716(11) 0.75509(11) 0.23694(10)
O3 O 0.49309(11) 0.22028(12) 0.22628(10)
H3 H 0.5549(12) 0.2301(17) 0.2350(15)
H4 H 0.4737(16) 0.1591(14) 0.2024(14)
O4 O 0.28792(12) 0.29954(13) 0.24710(11)
H5 H 0.2492(16) 0.3380(17) 0.2697(15)
H6 H 0.2647(18) 0.2408(15) 0.2221(14)
Co1 Co 0.41678(2) 0.36088(2) 0.231693(18)
N1 N 0.47360(12) 0.36725(13) 0.35866(10)
N2 N 0.14045(13) -0.14318(13) 0.39624(11)
O5 O 0.39533(10) 0.53383(10) 0.22172(9)
O6 O 0.76734(11) 0.93302(11) 0.23530(10)
H7 H 0.8281 0.9413 0.2432
O7 O 0.42050(11) 1.04008(11) 0.14764(9)
O8 O 0.54327(10) 0.47477(10) 0.22573(9)
N3 N 0.48862(13) 0.36081(13) 0.49023(10)
C1 C 0.64025(15) 0.80341(16) 0.21961(12)
O9 O 0.30764(11) 0.92630(11) 0.17107(9)
C2 C 0.51435(15) 0.66886(15) 0.21447(13)
N4 N 0.19449(14) -0.09315(14) 0.52414(11)
C3 C 0.47011(15) 0.85912(16) 0.18784(12)
C4 C 0.74623(16) 0.82733(17) 0.23206(13)
C5 C 0.54478(16) 0.13739(18) 0.60208(13)
H8 H 0.5853 0.1984 0.5995
C6 C 0.48356(16) 0.55312(16) 0.22129(13)
C7 C 0.57149(16) 0.35962(16) 0.39963(13)
H9 H 0.6241 0.3575 0.3746
C8 C 0.58189(16) 0.35556(16) 0.48019(14)
H10 H 0.6416 0.3502 0.5217
C9 C 0.42599(16) 0.36706(16) 0.41557(13)
H11 H 0.3566 0.3708 0.4053
C10 C 0.28065(17) 0.07463(17) 0.58560(13)
C11 C 0.46240(16) 0.35492(17) 0.56831(13)
H12 H 0.4277 0.4227 0.5759
H13 H 0.5232 0.3502 0.6131
C12 C 0.44362(16) 0.75110(16) 0.19543(12)
H14 H 0.3764 0.733 0.1875
C13 C 0.16248(17) -0.06000(17) 0.44656(14)
H15 H 0.1565 0.0143 0.4301
C14 C 0.39371(16) 0.94909(16) 0.16758(13)
C15 C 0.22036(17) -0.02365(17) 0.59695(14)
H16 H 0.2581 -0.0672 0.6436
H17 H 0.1595 0.0016 0.6096
C16 C 0.15989(16) -0.23537(18) 0.44424(14)
H18 H 0.1516 -0.3084 0.425
C17 C 0.44169(16) 0.15383(17) 0.58938(13)
C18 C 0.42955(18) -0.04310(17) 0.61179(14)
H19 H 0.3913 -0.1057 0.6155
C19 C 0.23606(16) 0.17741(18) 0.56812(13)
C20 C 0.29596(16) 0.27102(17) 0.56087(13)
C21 C 0.38201(17) 0.06083(17) 0.59525(13)
C22 C 0.24734(17) 0.37494(18) 0.54184(14)
H20 H 0.2851 0.4371 0.536
C23 C 0.19269(17) -0.20526(17) 0.52302(14)
H21 H 0.2109 -0.2525 0.5686
C24 C 0.61298(16) 0.69561(16) 0.22697(13)
H22 H 0.6616 0.6403 0.2405
C25 C 0.39768(16) 0.25766(17) 0.57274(13)
C26 C 0.09196(18) 0.2960(2) 0.53974(15)
H23 H 0.0235 0.3051 0.5332
C27 C 0.52739(19) -0.05468(18) 0.62224(15)
H24 H 0.5564 -0.1249 0.6327
C28 C 0.56880(16) 0.88486(16) 0.20009(13)
H25 H 0.5877 0.9584 0.1951
C29 C 0.58673(18) 0.03664(18) 0.61773(14)
H26 H 0.6554 0.028 0.6255
C30 C 0.15001(18) 0.3869(2) 0.53203(15)
H27 H 0.1205 0.4567 0.5199
C31 C 0.13263(18) 0.1959(2) 0.55640(15)
H28 H 0.0916 0.1359 0.5605
Co1A Co 0.08322(2) -0.13912(2) 0.268307(18)
N2A N 0.35955(13) 0.35682(13) 0.10376(11)
O2 O 0.70615(11) 0.38251(11) 0.67376(9)
H1 H 0.7462(15) 0.4362(15) 0.6705(14)
H2 H 0.6739(16) 0.4047(17) 0.7089(13)
loop_
_geom_bond_atom_site_label_1
_geom_bond_atom_site_label_2
_geom_bond_site_symmetry_1
_geom_bond_site_symmetry_2
O1 C4 1_555 1_555
O2 H1 1_555 1_555
H2 O2 1_555 1_555
O3 H3 1_555 1_555
H4 O3 1_555 1_555
O4 H5 1_555 1_555
H6 O4 1_555 1_555
Co1 O3 1_555 1_555
N1 Co1 1_555 1_555
N2 C13 1_555 1_555
O5 Co1 1_555 1_555
O6 H7 1_555 1_555
O7 C14 1_555 1_555
O8 Co1 1_555 1_555
N3 C8 1_555 1_555
C1 C4 1_555 1_555
O9 C14 1_555 1_555
C2 C6 1_555 1_555
N4 C13 1_555 1_555
C3 C12 1_555 1_555
C4 O6 1_555 1_555
C5 H8 1_555 1_555
C6 O5 1_555 1_555
C7 N1 1_555 1_555
H9 C7 1_555 1_555
C8 C7 1_555 1_555
H10 C8 1_555 1_555
C9 N1 1_555 1_555
H11 C9 1_555 1_555
C10 C15 1_555 1_555
C11 N3 1_555 1_555
H12 C11 1_555 1_555
H13 C11 1_555 1_555
C12 C2 1_555 1_555
H14 C12 1_555 1_555
C13 H15 1_555 1_555
C14 C3 1_555 1_555
C15 N4 1_555 1_555
H16 C15 1_555 1_555
H17 C15 1_555 1_555
C16 N2 1_555 1_555
H18 C16 1_555 1_555
C17 C5 1_555 1_555
C18 H19 1_555 1_555
C19 C10 1_555 1_555
C20 C19 1_555 1_555
C21 C10 1_555 1_555
C22 C20 1_555 1_555
H20 C22 1_555 1_555
C23 N4 1_555 1_555
H21 C23 1_555 1_555
C24 C1 1_555 1_555
H22 C24 1_555 1_555
C25 C11 1_555 1_555
C26 H23 1_555 1_555
C27 C18 1_555 1_555
H24 C27 1_555 1_555
C28 C1 1_555 1_555
H25 C28 1_555 1_555
C29 C5 1_555 1_555
H26 C29 1_555 1_555
C30 C22 1_555 1_555
H27 C30 1_555 1_555
C31 C19 1_555 1_555
H28 C31 1_555 1_555
Co1A N2 1_555 1_555
N2A Co1 1_555 1_555
O4 Co1 1_555 1_555
O8 C6 1_555 1_555
N3 C9 1_555 1_555
C2 C24 1_555 1_555
C3 C28 1_555 1_555
C16 C23 1_555 1_555
C17 C21 1_555 1_555
C17 C25 1_555 1_555
C18 C21 1_555 1_555
C20 C25 1_555 1_555
C26 C30 1_555 1_555
C26 C31 1_555 1_555
C27 C29 1_555 1_555

#END
