
#######################################################################
#
#                 Cambridge Crystallographic Data Centre
#                                CCDC 
#
#######################################################################
#
# If this CIF has been generated from an entry in the Cambridge 
# Structural Database, then it will include bibliographic, chemical, 
# crystal, experimental, refinement or atomic coordinate data resulting 
# from the CCDC's data processing and validation procedures.
#
#######################################################################

data_WUTHEZ
_symmetry_cell_setting           monoclinic
_symmetry_space_group_name_H-M   'P 21/n'
_symmetry_Int_Tables_number      14
_space_group_name_Hall           '-P 2yn'
loop_
_symmetry_equiv_pos_site_id
_symmetry_equiv_pos_as_xyz
1 x,y,z
2 1/2-x,1/2+y,1/2-z
3 -x,-y,-z
4 1/2+x,1/2-y,1/2+z
_cell_length_a                   14.223(4)
_cell_length_b                   12.201(3)
_cell_length_c                   17.077(4)
_cell_angle_alpha                90
_cell_angle_beta                 105.72(3)
_cell_angle_gamma                90
_cell_volume                     2852.61
loop_
_atom_site_label
_atom_site_type_symbol
_atom_site_fract_x
_atom_site_fract_y
_atom_site_fract_z
C1 C 0.01554(15) 0.83038(17) 0.21503(12)
C2 C 0.11341(16) 0.80242(18) 0.22683(12)
H1 H 0.1623 0.8576 0.2402
C3 C 0.13949(16) 0.69459(18) 0.21913(13)
C4 C 0.06796(15) 0.61315(17) 0.19929(12)
H2 H 0.086 0.5393 0.1933
C5 C -0.02986(15) 0.64025(18) 0.18829(12)
C6 C -0.05534(17) 0.74826(18) 0.19618(13)
H3 H -0.1221 0.7668 0.1887
C7 C -0.01306(16) 0.94753(18) 0.22229(12)
C8 C 0.24447(16) 0.66870(18) 0.23080(13)
C9 C -0.10675(16) 0.54963(19) 0.16816(13)
C10 C -0.39663(16) 0.74052(19) -0.07253(13)
C11 C -0.27923(17) 0.92388(19) -0.08570(13)
C12 C -0.43988(16) 0.84470(19) -0.08919(13)
C13 C -0.38005(17) 0.93784(19) -0.09512(13)
C14 C -0.29545(17) 0.72654(18) -0.06079(13)
C15 C -0.23537(17) 0.82022(19) -0.06803(13)
C16 C -0.54240(17) 0.8625(2) -0.10175(13)
H4 H -0.5834 0.8018 -0.0993
C17 C -0.42676(18) 1.04241(19) -0.11137(14)
H5 H -0.3884 1.1049 -0.115
C18 C -0.24752(17) 0.62230(19) -0.04223(13)
H6 H -0.2853 0.5601 -0.0365
C19 C -0.13261(18) 0.8009(2) -0.05689(15)
H7 H -0.0918 0.8609 -0.0615
C20 C -0.58259(18) 0.9638(2) -0.11702(14)
H8 H -0.6508 0.9731 -0.1246
C21 C -0.52394(18) 1.0551(2) -0.12168(14)
H9 H -0.5526 1.1258 -0.1321
C22 C -0.15045(18) 0.6095(2) -0.03259(14)
H10 H -0.1213 0.5393 -0.0207
C23 C -0.09282(18) 0.7010(2) -0.04023(15)
H11 H -0.0248 0.6917 -0.0335
C24 C -0.46096(15) 0.64339(19) -0.06756(12)
H12 H -0.5218 0.6478 -0.1125
H13 H -0.4267 0.575 -0.0746
C25 C -0.21977(18) 1.02257(19) -0.09748(13)
H14 H -0.1594 0.9973 -0.1102
H15 H -0.2579 1.066 -0.1443
C26 C -0.42303(16) 0.63326(18) 0.08517(13)
H16 H -0.3541 0.6281 0.0953
C27 C -0.56757(16) 0.64451(18) 0.10239(13)
H17 H -0.6191 0.6486 0.1279
C28 C -0.57863(16) 0.64648(18) 0.02099(13)
H18 H -0.6383 0.6519 -0.0206
C29 C -0.16321(17) 1.06010(19) 0.05325(13)
H19 H -0.1581 0.9856 0.0701
C30 C -0.15995(17) 1.23675(19) 0.05473(14)
H20 H -0.1517 1.3104 0.0734
C31 C -0.19202(17) 1.20469(19) -0.02451(14)
H21 H -0.2099 1.2513 -0.0708
N1 N -0.14139(13) 1.14439(16) 0.10351(10)
N2 N -0.19347(14) 1.09274(16) -0.02466(11)
N3 N -0.46955(12) 0.63561(15) 0.14241(10)
N4 N -0.48615(13) 0.63916(15) 0.01068(10)
O1 O 0.04743(11) 1.02432(12) 0.22624(9)
O2 O -0.10049(10) 0.96784(11) 0.22285(9)
O3 O -0.19213(11) 0.57328(12) 0.17137(9)
O4 O -0.08067(11) 0.45794(12) 0.14892(9)
O5 O 0.26517(11) 0.56312(12) 0.23322(10)
H22 H 0.326 0.5547 0.2458
O6 O 0.30552(11) 0.74112(12) 0.23643(9)
O7 O -0.00461(11) 1.27753(13) 0.22741(10)
H23 H 0.0575(12) 1.2701(19) 0.2337(15)
H24 H -0.0221(16) 1.3412(15) 0.2064(14)
O8 O -0.21764(12) 1.19876(15) 0.24478(11)
H25 H -0.2412(18) 1.2605(15) 0.2215(15)
H26 H -0.2568(16) 1.1650(19) 0.2693(14)
Zn1 Zn -0.089973(19) 1.14275(2) 0.230451(15)
N3A N -0.03045(12) 1.13561(15) 0.35759(10)
Zn1A Zn -0.410027(19) 0.64275(2) 0.269549(15)
O9 O 0.70390(12) 0.38392(12) 0.17500(10)
H27 H 0.7439(15) 0.4365(16) 0.1706(14)
H28 H 0.6684(15) 0.4063(19) 0.2085(12)
loop_
_geom_bond_atom_site_label_1
_geom_bond_atom_site_label_2
_geom_bond_site_symmetry_1
_geom_bond_site_symmetry_2
C1 C2 1_555 1_555
C2 H1 1_555 1_555
C3 C2 1_555 1_555
C4 C3 1_555 1_555
H2 C4 1_555 1_555
C5 C4 1_555 1_555
C6 C1 1_555 1_555
H3 C6 1_555 1_555
C7 C1 1_555 1_555
C8 C3 1_555 1_555
C9 C5 1_555 1_555
C10 C12 1_555 1_555
C11 C13 1_555 1_555
C12 C13 1_555 1_555
C13 C17 1_555 1_555
C14 C10 1_555 1_555
C15 C11 1_555 1_555
C16 C12 1_555 1_555
H4 C16 1_555 1_555
C17 H5 1_555 1_555
C18 C14 1_555 1_555
H6 C18 1_555 1_555
C19 C15 1_555 1_555
H7 C19 1_555 1_555
C20 C16 1_555 1_555
H8 C20 1_555 1_555
C21 C17 1_555 1_555
H9 C21 1_555 1_555
C22 C18 1_555 1_555
H10 C22 1_555 1_555
C23 C19 1_555 1_555
H11 C23 1_555 1_555
C24 C10 1_555 1_555
H12 C24 1_555 1_555
H13 C24 1_555 1_555
C25 C11 1_555 1_555
H14 C25 1_555 1_555
H15 C25 1_555 1_555
C26 H16 1_555 1_555
C27 H17 1_555 1_555
C28 C27 1_555 1_555
H18 C28 1_555 1_555
C29 H19 1_555 1_555
C30 H20 1_555 1_555
C31 C30 1_555 1_555
H21 C31 1_555 1_555
N1 C29 1_555 1_555
N2 C25 1_555 1_555
N3 C26 1_555 1_555
N4 C24 1_555 1_555
O1 C7 1_555 1_555
O2 C7 1_555 1_555
O3 C9 1_555 1_555
O4 C9 1_555 1_555
O5 C8 1_555 1_555
H22 O5 1_555 1_555
O6 C8 1_555 1_555
O7 H23 1_555 1_555
H24 O7 1_555 1_555
O8 H25 1_555 1_555
H26 O8 1_555 1_555
O9 H27 1_555 1_555
H28 O9 1_555 1_555
Zn1 N1 1_555 1_555
N3A Zn1 1_555 1_555
Zn1A N3 1_555 1_555
C5 C6 1_555 1_555
C14 C15 1_555 1_555
C20 C21 1_555 1_555
C22 C23 1_555 1_555
C26 N4 1_555 1_555
C27 N3 1_555 1_555
C28 N4 1_555 1_555
C29 N2 1_555 1_555
C30 N1 1_555 1_555
C31 N2 1_555 1_555
O1 Zn1 1_555 1_555
O2 Zn1 1_555 1_555
O7 Zn1 1_555 1_555
O8 Zn1 1_555 1_555

#END
