
#######################################################################
#
#                 Cambridge Crystallographic Data Centre
#                                CCDC 
#
#######################################################################
#
# If this CIF has been generated from an entry in the Cambridge 
# Structural Database, then it will include bibliographic, chemical, 
# crystal, experimental, refinement or atomic coordinate data resulting 
# from the CCDC's data processing and validation procedures.
#
#######################################################################

data_WUTHUO
_symmetry_cell_setting           monoclinic
_symmetry_space_group_name_H-M   'P 21/n'
_symmetry_Int_Tables_number      14
_space_group_name_Hall           '-P 2yn'
loop_
_symmetry_equiv_pos_site_id
_symmetry_equiv_pos_as_xyz
1 x,y,z
2 1/2+x,1/2-y,1/2+z
3 -x,-y,-z
4 1/2-x,1/2+y,1/2-z
_cell_length_a                   9.473(2)
_cell_length_b                   14.949(3)
_cell_length_c                   21.796(7)
_cell_angle_alpha                90
_cell_angle_beta                 99.99(3)
_cell_angle_gamma                90
_cell_volume                     3039.77
loop_
_atom_site_label
_atom_site_type_symbol
_atom_site_fract_x
_atom_site_fract_y
_atom_site_fract_z
Au1 Au 0.66032(7) 1.20935(4) 0.01500(2)
Au2 Au 0.92712(7) 1.25224(4) 0.10769(2)
Se1 Se 0.8101(2) 1.11176(10) 0.08542(6)
P1 P 0.5127(4) 1.2983(2) -0.05157(14)
P2 P 1.0414(4) 1.3840(2) 0.12634(14)
C1 C 0.3293(15) 1.2592(8) -0.0649(5)
C2 C 0.306(2) 1.1775(12) -0.0905(11)
H1 H 0.3803 1.1460 -0.1031
C3 C 0.166(2) 1.1395(13) -0.0981(10)
H2 H 0.1481 1.0847 -0.1181
C4 C 0.061(2) 1.1829(13) -0.0762(10)
H3 H -0.0308 1.1583 -0.0806
C5 C 0.089(2) 1.2609(14) -0.0484(9)
H4 H 0.0177 1.2889 -0.0309
C6 C 0.221(2) 1.3028(12) -0.0442(8)
H5 H 0.2353 1.3600 -0.0276
C7 C 0.5643(16) 1.3042(8) -0.1292(6)
C8 C 0.6980(18) 1.2830(12) -0.1371(7)
H6 H 0.7652 1.2643 -0.1033
C9 C 0.736(3) 1.2891(15) -0.1952(8)
H7 H 0.8267 1.2705 -0.2002
C10 C 0.646(3) 1.3210(12) -0.2449(7)
H8 H 0.6755 1.3278 -0.2831
C11 C 0.509(2) 1.3431(12) -0.2377(6)
H9 H 0.4458 1.3633 -0.2723
C12 C 0.4603(18) 1.3368(11) -0.1801(6)
H10 H 0.3677 1.3525 -0.1756
C13 C 1.2342(17) 1.3717(9) 0.1544(6)
C14 C 1.3099(19) 1.4284(11) 0.1979(7)
H11 H 1.2636 1.4756 0.2140
C15 C 1.458(2) 1.4144(14) 0.2179(8)
H12 H 1.5126 1.4557 0.2438
C16 C 1.521(2) 1.3389(14) 0.1987(9)
H13 H 1.6153 1.3261 0.2157
C17 C 1.447(2) 1.2816(15) 0.1548(8)
H14 H 1.4925 1.2339 0.1390
C18 C 1.2977(19) 1.2987(11) 0.1347(6)
H15 H 1.2432 1.2588 0.1075
C19 C 0.9766(18) 1.4589(10) 0.1808(6)
C20 C 0.969(2) 1.5495(11) 0.1748(7)
H16 H 0.9969 1.5755 0.1400
C21 C 0.921(2) 1.6042(13) 0.2173(8)
H17 H 0.9180 1.6659 0.2115
C22 C 0.880(2) 1.5676(14) 0.2678(7)
H18 H 0.8495 1.6038 0.2978
C23 C 0.882(3) 1.4773(15) 0.2744(10)
H19 H 0.8479 1.4522 0.3080
C24 C 0.933(2) 1.4221(13) 0.2333(7)
H20 H 0.9387 1.3607 0.2402
C25 C 1.0250(15) 1.4509(8) 0.0540(5)
C26 C 1.1282(16) 1.5045(9) 0.0419(5)
H21 H 1.2139 1.5081 0.0700
C27 C 0.8904(16) 1.4433(10) 0.0136(6)
H22 H 0.8182 1.4062 0.0230
C28 C 0.5053(14) 1.4137(8) -0.0246(5)
C29 C 0.4678(17) 1.4843(9) -0.0639(5)
H23 H 0.4457 1.4746 -0.1067
C30 C 0.5374(16) 1.4287(9) 0.0404(5)
H24 H 0.5620 1.3810 0.0675
C30B C 0.4626(16) 1.5713(9) -0.0404(5)
C28B C 0.4947(14) 1.5863(8) 0.0246(5)
P1B P 0.4873(4) 1.7017(2) 0.05157(14)
C1B C 0.6707(15) 1.7408(8) 0.0649(5)
C2B C 0.694(2) 1.8225(12) 0.0905(11)
H1B H 0.6197 1.8540 0.1031
C3B C 0.834(2) 1.8605(13) 0.0981(10)
H2B H 0.8519 1.9153 0.1181
C4B C 0.939(2) 1.8171(13) 0.0762(10)
H3B H 1.0308 1.8417 0.0806
C5B C 0.911(2) 1.7391(14) 0.0484(9)
H4B H 0.9823 1.7111 0.0309
C6B C 0.779(2) 1.6972(12) 0.0442(8)
H5B H 0.7647 1.6400 0.0276
C7B C 0.4357(16) 1.6958(8) 0.1292(6)
C8B C 0.3020(18) 1.7170(12) 0.1371(7)
H6B H 0.2348 1.7357 0.1033
C9B C 0.264(3) 1.7109(15) 0.1952(8)
H7B H 0.1733 1.7295 0.2002
C10B C 0.354(3) 1.6790(12) 0.2449(7)
H8B H 0.3245 1.6722 0.2831
C11B C 0.491(2) 1.6569(12) 0.2377(6)
H9B H 0.5542 1.6367 0.2723
C12B C 0.5397(18) 1.6632(11) 0.1801(6)
H10B H 0.6323 1.6475 0.1756
C29B C 0.5322(17) 1.5157(9) 0.0639(5)
H23B H 0.5543 1.5254 0.1067
H24B H 0.4380 1.6190 -0.0675
C27B C 1.1096(16) 1.5567(10) -0.0136(6)
C25B C 0.9750(15) 1.5491(8) -0.0540(5)
P2B P 0.9586(4) 1.6160(2) -0.12634(14)
C13B C 0.7658(17) 1.6283(9) -0.1544(6)
C14B C 0.6901(19) 1.5716(11) -0.1979(7)
H11B H 0.7364 1.5244 -0.2140
C15B C 0.542(2) 1.5856(14) -0.2179(8)
H12B H 0.4874 1.5443 -0.2438
C16B C 0.479(2) 1.6611(14) -0.1987(9)
H13B H 0.3847 1.6739 -0.2157
C17B C 0.553(2) 1.7184(15) -0.1548(8)
H14B H 0.5075 1.7661 -0.1390
C18B C 0.7023(19) 1.7013(11) -0.1347(6)
H15B H 0.7568 1.7412 -0.1075
C19B C 1.0234(18) 1.5411(10) -0.1808(6)
C20B C 1.031(2) 1.4505(11) -0.1748(7)
H16B H 1.0031 1.4245 -0.1400
C21B C 1.079(2) 1.3958(13) -0.2173(8)
H17B H 1.0820 1.3341 -0.2115
C22B C 1.120(2) 1.4324(14) -0.2678(7)
H18B H 1.1505 1.3962 -0.2978
C23B C 1.118(3) 1.5227(15) -0.2744(10)
H19B H 1.1521 1.5478 -0.3080
C24B C 1.067(2) 1.5779(13) -0.2333(7)
H20B H 1.0613 1.6393 -0.2402
C26B C 0.8718(16) 1.4955(9) -0.0419(5)
H21B H 0.7861 1.4919 -0.0700
H22B H 1.1818 1.5938 -0.0230
Au1B Au 0.33968(7) 1.79065(4) -0.01500(2)
Se1B Se 0.1899(2) 1.88824(10) -0.08542(6)
Au2B Au 0.07288(7) 1.74776(4) -0.10769(2)
Au2B_2 Au 1.07288(7) 1.74776(4) -0.10769(2)
P2B_2 P -0.0414(4) 1.6160(2) -0.12634(14)
Cl1 Cl 1.2847(10) 1.4828(6) 0.3582(3)
Cl2 Cl 1.1133(11) 1.5667(6) 0.4378(3)
C31 C 1.287(3) 1.5283(17) 0.4308(9)
H25 H 1.3540 1.5777 0.4371
H26 H 1.3182 1.4835 0.4625
loop_
_geom_bond_atom_site_label_1
_geom_bond_atom_site_label_2
_geom_bond_site_symmetry_1
_geom_bond_site_symmetry_2
Au1 Au2 1_555 1_555
Au2 Se1 1_555 1_555
Se1 Au1 1_555 1_555
P1 Au1 1_555 1_555
P2 Au2 1_555 1_555
C1 P1 1_555 1_555
C2 C1 1_555 1_555
H1 C2 1_555 1_555
C3 C2 1_555 1_555
H2 C3 1_555 1_555
C4 C3 1_555 1_555
H3 C4 1_555 1_555
C5 C4 1_555 1_555
H4 C5 1_555 1_555
C6 C1 1_555 1_555
H5 C6 1_555 1_555
C7 P1 1_555 1_555
C8 C7 1_555 1_555
H6 C8 1_555 1_555
C9 C8 1_555 1_555
H7 C9 1_555 1_555
C10 C9 1_555 1_555
H8 C10 1_555 1_555
C11 C10 1_555 1_555
H9 C11 1_555 1_555
C12 C7 1_555 1_555
H10 C12 1_555 1_555
C13 P2 1_555 1_555
C14 C13 1_555 1_555
H11 C14 1_555 1_555
C15 C14 1_555 1_555
H12 C15 1_555 1_555
C16 C15 1_555 1_555
H13 C16 1_555 1_555
C17 C16 1_555 1_555
H14 C17 1_555 1_555
C18 C13 1_555 1_555
H15 C18 1_555 1_555
C19 P2 1_555 1_555
C20 C19 1_555 1_555
H16 C20 1_555 1_555
C21 C20 1_555 1_555
H17 C21 1_555 1_555
C22 C21 1_555 1_555
H18 C22 1_555 1_555
C23 C22 1_555 1_555
H19 C23 1_555 1_555
C24 C19 1_555 1_555
H20 C24 1_555 1_555
C25 P2 1_555 1_555
C26 C25 1_555 1_555
H21 C26 1_555 1_555
C27 C25 1_555 1_555
H22 C27 1_555 1_555
C28 P1 1_555 1_555
C29 C28 1_555 1_555
H23 C29 1_555 1_555
C30 C28 1_555 1_555
H24 C30 1_555 1_555
Cl1 C31 1_555 1_555
Cl2 C31 1_555 1_555
C31 H25 1_555 1_555
H26 C31 1_555 1_555
C30B C29 1_555 1_555
C28B C30B 1_555 1_555
P1B C28B 1_555 1_555
C1B P1B 1_555 1_555
C2B C1B 1_555 1_555
H1B C2B 1_555 1_555
C3B C2B 1_555 1_555
H2B C3B 1_555 1_555
C4B C3B 1_555 1_555
H3B C4B 1_555 1_555
C5B C4B 1_555 1_555
H4B C5B 1_555 1_555
C6B C1B 1_555 1_555
H5B C6B 1_555 1_555
C7B P1B 1_555 1_555
C8B C7B 1_555 1_555
H6B C8B 1_555 1_555
C9B C8B 1_555 1_555
H7B C9B 1_555 1_555
C10B C9B 1_555 1_555
H8B C10B 1_555 1_555
C11B C10B 1_555 1_555
H9B C11B 1_555 1_555
C12B C7B 1_555 1_555
H10B C12B 1_555 1_555
C29B C30 1_555 1_555
H23B C29B 1_555 1_555
H24B C30B 1_555 1_555
C27B C26 1_555 1_555
C25B C27B 1_555 1_555
P2B C25B 1_555 1_555
C13B P2B 1_555 1_555
C14B C13B 1_555 1_555
H11B C14B 1_555 1_555
C15B C14B 1_555 1_555
H12B C15B 1_555 1_555
C16B C15B 1_555 1_555
H13B C16B 1_555 1_555
C17B C16B 1_555 1_555
H14B C17B 1_555 1_555
C18B C13B 1_555 1_555
H15B C18B 1_555 1_555
C19B P2B 1_555 1_555
C20B C19B 1_555 1_555
H16B C20B 1_555 1_555
C21B C20B 1_555 1_555
H17B C21B 1_555 1_555
C22B C21B 1_555 1_555
H18B C22B 1_555 1_555
C23B C22B 1_555 1_555
H19B C23B 1_555 1_555
C24B C19B 1_555 1_555
H20B C24B 1_555 1_555
C26B C27 1_555 1_555
H21B C26B 1_555 1_555
H22B C27B 1_555 1_555
Au1B P1B 1_555 1_555
Se1B Au1B 1_555 1_555
Au2B Au1B 1_555 1_555
Au2B_2 P2B 1_555 1_555
P2B_2 Au2B 1_555 1_555
C5 C6 1_555 1_555
C11 C12 1_555 1_555
C17 C18 1_555 1_555
C23 C24 1_555 1_555
C28B C29B 1_555 1_555
C5B C6B 1_555 1_555
C11B C12B 1_555 1_555
C25B C26B 1_555 1_555
C17B C18B 1_555 1_555
C23B C24B 1_555 1_555
Se1B Au2B 1_555 1_555

#END
