
#######################################################################
#
#                 Cambridge Crystallographic Data Centre
#                                CCDC 
#
#######################################################################
#
# If this CIF has been generated from an entry in the Cambridge 
# Structural Database, then it will include bibliographic, chemical, 
# crystal, experimental, refinement or atomic coordinate data resulting 
# from the CCDC's data processing and validation procedures.
#
#######################################################################

data_WUTTUA
_symmetry_cell_setting           triclinic
_symmetry_space_group_name_H-M   'P 1'
_symmetry_Int_Tables_number      1
_space_group_name_Hall           'P 1'
loop_
_symmetry_equiv_pos_site_id
_symmetry_equiv_pos_as_xyz
1 x,y,z
_cell_length_a                   7.6529(4)
_cell_length_b                   9.5057(4)
_cell_length_c                   20.0980(8)
_cell_angle_alpha                86.213(3)
_cell_angle_beta                 81.831(3)
_cell_angle_gamma                88.887(3)
_cell_volume                     1443.98
loop_
_atom_site_label
_atom_site_type_symbol
_atom_site_fract_x
_atom_site_fract_y
_atom_site_fract_z
Co1 Co 0.87394(10) 0.69865(7) 1.33104(4)
Co2 Co -0.08949(10) 0.64509(7) 0.84371(4)
F1 F 0.4872(9) 0.5129(8) 1.5181(3)
F2 F 0.3822(10) 0.4501(11) 1.4340(4)
F3 F 0.5247(14) 0.3042(8) 1.4939(5)
F4 F 1.129(2) 0.2776(8) 1.2736(6)
F5 F 1.0070(15) 0.1504(7) 1.3482(5)
F6 F 1.204(2) 0.2607(19) 1.3628(13)
F7 F 0.5784(18) 1.1591(12) 1.2360(8)
F8 F 0.5617(14) 1.1316(10) 1.3377(6)
F9 F 0.4195(12) 1.0070(8) 1.2881(5)
F10 F 1.0719(12) 0.9945(8) 1.1010(3)
F11 F 1.2820(13) 0.9291(14) 1.1559(4)
F12 F 1.1385(14) 0.7800(9) 1.1122(4)
F13 F 0.2791(9) 0.5187(7) 0.6494(3)
F14 F 0.2470(13) 0.2988(7) 0.6691(4)
F15 F 0.3973(12) 0.4200(12) 0.7271(4)
F16 F -0.4643(17) 0.2582(9) 0.8335(8)
F17 F -0.239(2) 0.1162(9) 0.8080(6)
F18 F -0.3082(16) 0.1957(9) 0.8994(5)
F19 F 0.2265(14) 1.0660(8) 0.8186(5)
F20 F 0.1822(17) 1.1055(12) 0.9182(7)
F21 F 0.3575(12) 0.9414(9) 0.8805(5)
F22 F -0.5024(17) 0.805(3) 1.0142(7)
F23 F -0.368(2) 0.9598(10) 1.0364(6)
F24 F -0.3223(19) 0.7697(14) 1.0686(4)
O1 O 0.6987(7) 0.6057(5) 1.4076(2)
O2 O 1.0234(7) 0.5152(5) 1.3305(2)
O3 O 0.7190(7) 0.8763(5) 1.3266(2)
O4 O 1.0426(7) 0.7821(5) 1.2504(2)
O5 O -0.2316(7) 0.4644(5) 0.8444(2)
O6 O 0.0891(7) 0.5702(5) 0.7678(2)
O7 O 0.0665(7) 0.8173(5) 0.8426(2)
O8 O -0.2559(7) 0.7170(5) 0.9229(2)
N1 N 0.7283(9) 0.6106(6) 1.2604(3)
N2 N 0.0583(8) 0.5372(6) 0.9157(3)
N3 N 1.7664(8) 0.7488(6) 1.7713(3)
N4 N 1.0125(8) 0.7880(6) 1.4014(3)
C1 C 0.6900(11) 0.4762(8) 1.4205(3)
C2 C 0.8037(14) 0.3711(8) 1.3992(4)
H1 H 0.7756 0.2764 1.4144
C3 C 0.9648(13) 0.3990(7) 1.3544(4)
C4 C 0.5194(14) 0.4321(10) 1.4673(5)
C5 C 1.0773(16) 0.2743(10) 1.3332(5)
C6 C 0.7236(12) 0.9609(7) 1.2762(4)
C7 C 0.8499(15) 0.9680(8) 1.2195(4)
H2 H 0.8348 1.0379 1.1847
C8 C 0.9949(12) 0.8813(8) 1.2100(4)
C9 C 0.5730(16) 1.0678(10) 1.2820(6)
C10 C 1.1217(17) 0.8994(11) 1.1456(5)
C11 C 0.5507(11) 0.6245(9) 1.2673(4)
H3 H 0.4945 0.6767 1.3033
C12 C 0.4460(12) 0.5683(9) 1.2260(4)
H4 H 0.3215 0.5809 1.2336
C13 C 0.5247(11) 0.4934(8) 1.1735(3)
C14 C 0.7045(12) 0.4803(9) 1.1641(4)
H5 H 0.7627 0.4311 1.1275
C15 C 0.8016(10) 0.5391(7) 1.2082(3)
H6 H 0.9264 0.5282 1.2009
C16 C 0.4076(12) 0.4288(9) 1.1286(4)
H7 H 0.3214 0.3667 1.1573
H8 H 0.3401 0.5058 1.1080
C17 C 0.5021(13) 0.3440(9) 1.0725(4)
H9 H 0.5795 0.2724 1.0919
H10 H 0.5777 0.4075 1.0400
C18 C 0.3711(14) 0.2698(9) 1.0352(4)
H11 H 0.4378 0.2057 1.0037
H12 H 0.2906 0.2116 1.0684
C19 C 0.2627(12) 0.3701(7) 0.9964(4)
C20 C 0.0830(12) 0.3607(8) 1.0040(4)
H13 H 0.0237 0.2964 1.0375
C21 C -0.0124(12) 0.4444(9) 0.9632(4)
H14 H -0.1371 0.4346 0.9697
C22 C 0.2333(12) 0.5512(9) 0.9102(4)
H15 H 0.2881 0.6216 0.8787
C23 C 0.3378(12) 0.4691(9) 0.9477(4)
H16 H 0.4622 0.4803 0.9401
C24 C 0.0909(12) 0.4480(7) 0.7484(3)
C25 C -0.0311(15) 0.3439(8) 0.7672(4)
H17 H -0.0120 0.2566 0.7467
C26 C -0.1804(12) 0.3577(7) 0.8141(4)
C27 C 0.2511(14) 0.4163(10) 0.6978(4)
C28 C -0.2963(18) 0.2283(11) 0.8343(7)
C29 C 0.0537(11) 0.8996(7) 0.8887(4)
C30 C -0.0768(14) 0.9046(9) 0.9453(4)
H18 H -0.0665 0.9718 0.9775
C31 C -0.2212(12) 0.8141(8) 0.9558(3)
C32 C 0.2049(17) 1.0057(10) 0.8800(6)
C33 C 1.8421(11) 0.8446(7) 1.7257(3)
H19 H 1.9642 0.8630 1.7242
C34 C -0.3514(13) 0.8392(9) 1.0187(4)
C35 C 1.7491(14) 0.9185(8) 1.6802(4)
H20 H 1.8090 0.9842 1.6475
C36 C 1.5710(13) 0.8981(8) 1.6816(4)
C37 C 1.4964(13) 0.7957(9) 1.7271(5)
H21 H 1.3764 0.7713 1.7276
C38 C 1.5939(10) 0.7276(8) 1.7724(4)
H22 H 1.5358 0.6626 1.8058
C39 C 1.4676(17) 0.9819(9) 1.6350(5)
H23 H 1.5464 1.0533 1.6088
H24 H 1.3722 1.0331 1.6623
C40 C 1.3859(13) 0.8983(7) 1.5862(4)
H25 H 1.2974 0.8331 1.6117
H26 H 1.4786 0.8409 1.5608
C41 C 1.2969(17) 0.9945(9) 1.5367(5)
H27 H 1.2128 1.0578 1.5626
H28 H 1.3882 1.0542 1.5091
C42 C 1.2000(13) 0.9190(7) 1.4904(4)
C43 C 1.0214(13) 0.9375(8) 1.4912(4)
H29 H 0.9580 0.9948 1.5236
C44 C 0.9312(12) 0.8750(8) 1.4463(3)
H30 H 0.8086 0.8940 1.4472
C45 C 1.1817(12) 0.7656(10) 1.4012(4)
H31 H 1.2406 0.7028 1.3704
C46 C 1.2793(13) 0.8290(10) 1.4437(5)
H32 H 1.4025 0.8102 1.4406
N3_2 N -0.2336(8) 0.7488(6) 0.7713(3)
Co2_2 Co 1.91051(10) 0.64509(7) 1.84371(4)
O9 O 0.8793(13) 0.2089(5) 0.5849(4)
N5 N 0.8841(10) 0.4470(6) 0.5833(4)
C47 C 0.8115(18) 0.3250(14) 0.5997(6)
H33 H 0.6970 0.3242 0.6251
C48 C 0.837(5) 0.5793(14) 0.5973(13)
H34 H 0.9268 0.6445 0.5744
H35 H 0.8248 0.5880 0.6460
H36 H 0.7233 0.6022 0.5815
C49 C 1.039(2) 0.4579(19) 0.5279(8)
H37 H 1.0772 0.5562 0.5203
H38 H 1.0041 0.4259 0.4864
H39 H 1.1365 0.3988 0.5409
loop_
_geom_bond_atom_site_label_1
_geom_bond_atom_site_label_2
_geom_bond_site_symmetry_1
_geom_bond_site_symmetry_2
Co1 O1 1_555 1_555
Co2 O5 1_555 1_555
F1 C4 1_555 1_555
F2 C4 1_555 1_555
F3 C4 1_555 1_555
F4 C5 1_555 1_555
F5 C5 1_555 1_555
F6 C5 1_555 1_555
F7 C9 1_555 1_555
F8 C9 1_555 1_555
F9 C9 1_555 1_555
F10 C10 1_555 1_555
F11 C10 1_555 1_555
F12 C10 1_555 1_555
F13 C27 1_555 1_555
F14 C27 1_555 1_555
F15 C27 1_555 1_555
F16 C28 1_555 1_555
F17 C28 1_555 1_555
F18 C28 1_555 1_555
F19 C32 1_555 1_555
F20 C32 1_555 1_555
F21 C32 1_555 1_555
F22 C34 1_555 1_555
F23 C34 1_555 1_555
F24 C34 1_555 1_555
O1 C1 1_555 1_555
O2 Co1 1_555 1_555
O3 Co1 1_555 1_555
O4 Co1 1_555 1_555
O5 C26 1_555 1_555
O6 Co2 1_555 1_555
O7 Co2 1_555 1_555
O8 Co2 1_555 1_555
N1 Co1 1_555 1_555
N2 Co2 1_555 1_555
N3 C33 1_555 1_555
N4 Co1 1_555 1_555
C1 C2 1_555 1_555
C2 H1 1_555 1_555
C3 O2 1_555 1_555
C4 C1 1_555 1_555
C5 C3 1_555 1_555
C6 O3 1_555 1_555
C7 C6 1_555 1_555
H2 C7 1_555 1_555
C8 O4 1_555 1_555
C9 C6 1_555 1_555
C10 C8 1_555 1_555
C11 N1 1_555 1_555
H3 C11 1_555 1_555
C12 C11 1_555 1_555
H4 C12 1_555 1_555
C13 C12 1_555 1_555
C14 C13 1_555 1_555
H5 C14 1_555 1_555
C15 N1 1_555 1_555
H6 C15 1_555 1_555
C16 C13 1_555 1_555
H7 C16 1_555 1_555
H8 C16 1_555 1_555
C17 C16 1_555 1_555
H9 C17 1_555 1_555
H10 C17 1_555 1_555
C18 C17 1_555 1_555
H11 C18 1_555 1_555
H12 C18 1_555 1_555
C19 C18 1_555 1_555
C20 C19 1_555 1_555
H13 C20 1_555 1_555
C21 N2 1_555 1_555
H14 C21 1_555 1_555
C22 N2 1_555 1_555
H15 C22 1_555 1_555
C23 C19 1_555 1_555
H16 C23 1_555 1_555
C24 O6 1_555 1_555
C25 C24 1_555 1_555
H17 C25 1_555 1_555
C26 C25 1_555 1_555
C27 C24 1_555 1_555
C28 C26 1_555 1_555
C29 O7 1_555 1_555
C30 C29 1_555 1_555
H18 C30 1_555 1_555
C31 O8 1_555 1_555
C32 C29 1_555 1_555
C33 H19 1_555 1_555
C34 C31 1_555 1_555
C35 C33 1_555 1_555
H20 C35 1_555 1_555
C36 C35 1_555 1_555
C37 C36 1_555 1_555
H21 C37 1_555 1_555
C38 N3 1_555 1_555
H22 C38 1_555 1_555
C39 C36 1_555 1_555
H23 C39 1_555 1_555
H24 C39 1_555 1_555
C40 C39 1_555 1_555
H25 C40 1_555 1_555
H26 C40 1_555 1_555
C41 C40 1_555 1_555
H27 C41 1_555 1_555
H28 C41 1_555 1_555
C42 C41 1_555 1_555
C43 C42 1_555 1_555
H29 C43 1_555 1_555
C44 N4 1_555 1_555
H30 C44 1_555 1_555
C45 N4 1_555 1_555
H31 C45 1_555 1_555
C46 C42 1_555 1_555
H32 C46 1_555 1_555
O9 C47 1_555 1_555
N5 C47 1_555 1_555
C47 H33 1_555 1_555
C48 N5 1_555 1_555
H34 C48 1_555 1_555
H35 C48 1_555 1_555
H36 C48 1_555 1_555
C49 N5 1_555 1_555
H37 C49 1_555 1_555
H38 C49 1_555 1_555
H39 C49 1_555 1_555
N3_2 Co2 1_555 1_555
Co2_2 N3 1_555 1_555
C2 C3 1_555 1_555
C7 C8 1_555 1_555
C14 C15 1_555 1_555
C20 C21 1_555 1_555
C22 C23 1_555 1_555
C30 C31 1_555 1_555
C37 C38 1_555 1_555
C43 C44 1_555 1_555
C45 C46 1_555 1_555

#END
