
#######################################################################
#
#                 Cambridge Crystallographic Data Centre
#                                CCDC 
#
#######################################################################
#
# If this CIF has been generated from an entry in the Cambridge 
# Structural Database, then it will include bibliographic, chemical, 
# crystal, experimental, refinement or atomic coordinate data resulting 
# from the CCDC's data processing and validation procedures.
#
#######################################################################

data_WUTTEL
_symmetry_cell_setting           tetragonal
_symmetry_space_group_name_H-M   'P 42'
_symmetry_Int_Tables_number      77
_space_group_name_Hall           'P 4c'
loop_
_symmetry_equiv_pos_site_id
_symmetry_equiv_pos_as_xyz
1 x,y,z
2 -x,-y,z
3 -y,x,1/2+z
4 y,-x,1/2+z
_cell_length_a                   22.0635(15)
_cell_length_b                   22.0635(15)
_cell_length_c                   19.9558(17)
_cell_angle_alpha                90
_cell_angle_beta                 90
_cell_angle_gamma                90
_cell_volume                     9714.44
loop_
_atom_site_label
_atom_site_type_symbol
_atom_site_fract_x
_atom_site_fract_y
_atom_site_fract_z
Ni1 Ni 0.26500(2) 0.25100(2) 0.16822(4)
N1 N 0.24582(18) 0.17382(19) 0.1118(2)
C1 C 0.2848(2) 0.1363(3) 0.0808(3)
H1 H 0.3268 0.1453 0.0827
C2 C 0.2665(3) 0.0855(3) 0.0467(4)
H2 H 0.2956 0.0595 0.0265
C3 C 0.2057(3) 0.0727(3) 0.0419(3)
H3 H 0.1921 0.0383 0.0176
C4 C 0.1648(2) 0.1107(2) 0.0729(3)
H4 H 0.1226 0.1022 0.0707
C5 C 0.1853(2) 0.1607(2) 0.1067(3)
N2 N 0.17550(16) 0.25080(16) 0.1702(2)
C6 C 0.14570(19) 0.2044(2) 0.1429(3)
C7 C 0.0836(2) 0.1993(2) 0.1491(3)
H5 H 0.0628 0.1655 0.1307
C8 C 0.05202(18) 0.2449(2) 0.1831(3)
C9 C 0.0837(2) 0.2927(2) 0.2110(3)
H6 H 0.0630 0.3239 0.2344
C10 C 0.14631(18) 0.2944(2) 0.2043(3)
N3 N 0.24653(17) 0.32963(19) 0.2268(2)
C11 C 0.1869(2) 0.3405(2) 0.2353(3)
C12 C 0.1654(2) 0.3903(3) 0.2693(3)
H7 H 0.1231 0.3967 0.2747
C13 C 0.2073(3) 0.4310(3) 0.2953(4)
H8 H 0.1940 0.4661 0.3187
C14 C 0.2678(3) 0.4202(3) 0.2872(3)
H9 H 0.2970 0.4474 0.3049
C15 C 0.2856(2) 0.3692(2) 0.2527(3)
H10 H 0.3277 0.3619 0.2471
C16 C -0.01515(19) 0.2438(2) 0.1883(3)
C17 C -0.0469(2) 0.1898(2) 0.1930(4)
H11 H -0.0263 0.1520 0.1936
C18 C -0.0470(2) 0.2974(2) 0.1873(3)
H12 H -0.0262 0.3350 0.1851
C19 C -0.1094(2) 0.2961(2) 0.1896(4)
H13 H -0.1311 0.3332 0.1877
C20 C -0.1097(2) 0.1925(2) 0.1967(4)
H14 H -0.1316 0.1556 0.2010
N4 N -0.14050(16) 0.24430(19) 0.1945(3)
N5 N 0.27900(17) 0.19733(19) 0.2553(2)
N6 N 0.35439(15) 0.24809(16) 0.1745(2)
N7 N 0.28939(17) 0.30524(19) 0.0858(2)
C21 C 0.2364(2) 0.1758(3) 0.2974(3)
H15 H 0.1950 0.1853 0.2894
C22 C 0.2513(3) 0.1404(3) 0.3516(4)
H16 H 0.2206 0.1264 0.3811
C23 C 0.3119(3) 0.1248(3) 0.3633(4)
H17 H 0.3230 0.0993 0.3996
C24 C 0.3551(2) 0.1480(3) 0.3199(3)
H18 H 0.3967 0.1387 0.3264
C25 C 0.3377(2) 0.1843(2) 0.2677(3)
C26 C 0.38060(19) 0.21424(19) 0.2212(2)
C27 C 0.44363(19) 0.2117(2) 0.2272(3)
H19 H 0.4624 0.1859 0.2592
C28 C 0.47842(18) 0.2483(2) 0.1847(2)
C29 C 0.4493(2) 0.2840(2) 0.1368(2)
H20 H 0.4722 0.3096 0.1080
C30 C 0.38692(18) 0.2817(2) 0.1314(2)
C31 C 0.3501(2) 0.3143(2) 0.0812(3)
C32 C 0.3749(2) 0.3512(3) 0.0326(3)
H21 H 0.4174 0.3574 0.0303
C33 C 0.3361(3) 0.3793(3) -0.0133(4)
H22 H 0.3518 0.4046 -0.0476
C34 C 0.2749(3) 0.3694(3) -0.0076(4)
H23 H 0.2475 0.3880 -0.0380
C35 C 0.2535(2) 0.3322(3) 0.0426(3)
H24 H 0.2111 0.3259 0.0461
C36 C 0.54470(18) 0.2484(2) 0.1909(3)
C37 C 0.57637(19) 0.1947(2) 0.2013(3)
H25 H 0.5554 0.1573 0.2056
C38 C 0.6388(2) 0.1968(2) 0.2052(3)
H26 H 0.6603 0.1600 0.2121
C39 C 0.63969(19) 0.2998(2) 0.1907(3)
H27 H 0.6619 0.3366 0.1877
C40 C 0.57714(19) 0.3021(2) 0.1855(3)
H28 H 0.5569 0.3396 0.1784
Co1 Co -0.23516(3) 0.24639(3) 0.19609(4)
O1 O -0.23299(16) 0.19266(18) 0.2816(2)
O2 O -0.23310(17) 0.32204(18) 0.2584(2)
C41 C -0.2178(3) 0.1607(3) 0.3915(4)
C42 C -0.2236(2) 0.2109(3) 0.3392(3)
C43 C -0.2205(4) 0.2711(3) 0.3618(4)
H29 H -0.2147 0.2782 0.4083
C44 C -0.2254(3) 0.3201(3) 0.3202(4)
C45 C -0.2220(6) 0.3835(4) 0.3510(6)
F1 F -0.2633(3) 0.1260(4) 0.3934(4)
F2 F -0.2104(4) 0.1797(3) 0.4526(3)
F3 F -0.1727(4) 0.1272(4) 0.3790(5)
F4 F -0.2150(5) 0.3829(3) 0.4169(4)
F5 F -0.2690(4) 0.4167(3) 0.3367(5)
F6 F -0.1757(4) 0.4147(3) 0.3265(4)
O3 O -0.23784(17) 0.30150(18) 0.1130(2)
O4 O -0.23766(17) 0.17207(18) 0.1339(2)
C46 C -0.2518(3) 0.3347(4) 0.0037(4)
C47 C -0.2462(2) 0.2837(3) 0.0538(3)
C48 C -0.2500(4) 0.2251(3) 0.0301(4)
H30 H -0.2569 0.2188 -0.0164
C49 C -0.2440(3) 0.1742(3) 0.0723(4)
C50 C -0.2428(7) 0.1122(4) 0.0382(5)
F7 F -0.1987(2) 0.3634(2) -0.0040(3)
F8 F -0.2924(2) 0.3759(2) 0.0233(3)
F9 F -0.2685(2) 0.3161(2) -0.0580(2)
F10 F -0.2885(5) 0.0797(3) 0.0583(5)
F11 F -0.1935(5) 0.0814(3) 0.0541(5)
F12 F -0.2453(6) 0.1134(3) -0.0265(4)
N8 N 0.67032(16) 0.24807(18) 0.1997(3)
Co1_2 Co 0.76484(3) 0.24639(3) 0.19609(4)
N8_2 N -0.32968(16) 0.24807(18) 0.1997(3)
Co2 Co 0.5000 0.5000 0.48728(7)
O5 O 0.4064(2) 0.48729(19) 0.4893(3)
O6 O 0.5068(2) 0.4338(2) 0.4157(3)
O7 O 0.5073(2) 0.43514(18) 0.5619(3)
C51 C 0.3120(4) 0.4433(3) 0.4737(3)
C52 C 0.3788(3) 0.4465(3) 0.4574(3)
C53 C 0.4020(3) 0.4063(3) 0.4107(3)
H31 H 0.3749 0.3789 0.3894
C54 C 0.4629(4) 0.4039(3) 0.3935(3)
C55 C 0.4823(5) 0.3595(5) 0.3389(5)
F13 F 0.2814(2) 0.4009(3) 0.4396(3)
F14 F 0.2846(2) 0.4958(2) 0.4645(4)
F15 F 0.3039(2) 0.4298(2) 0.5373(2)
F16 F 0.4462(6) 0.3496(7) 0.2952(6)
F17 F 0.4598(15) 0.3043(8) 0.3542(12)
F18 F 0.5255(4) 0.3268(4) 0.3514(4)
C56 C 0.5045(4) 0.3877(4) 0.6642(5)
C57 C 0.5041(3) 0.4442(3) 0.6222(4)
C58 C 0.5000 0.5000 0.6559(6)
H32 H 0.5000 0.5000 0.7035
F19 F 0.4533(3) 0.3616(3) 0.6655(6)
F20 F 0.5423(3) 0.3468(3) 0.6436(4)
F21 F 0.5186(6) 0.3960(3) 0.7270(4)
O5A O 0.5936(2) 0.51271(19) 0.4893(3)
O6A O 0.4932(2) 0.5662(2) 0.4157(3)
O7A O 0.4927(2) 0.56486(18) 0.5619(3)
C51A C 0.6880(4) 0.5567(3) 0.4737(3)
C52A C 0.6212(3) 0.5535(3) 0.4574(3)
C53A C 0.5980(3) 0.5937(3) 0.4107(3)
H31A H 0.6251 0.6211 0.3894
C54A C 0.5371(4) 0.5961(3) 0.3935(3)
C55A C 0.5177(5) 0.6405(5) 0.3389(5)
F13A F 0.7186(2) 0.5991(3) 0.4396(3)
F14A F 0.7154(2) 0.5042(2) 0.4645(4)
F15A F 0.6961(2) 0.5702(2) 0.5373(2)
F16A F 0.5538(6) 0.6504(7) 0.2952(6)
F17A F 0.5402(15) 0.6957(8) 0.3542(12)
F18A F 0.4745(4) 0.6732(4) 0.3514(4)
C56A C 0.4955(4) 0.6123(4) 0.6642(5)
C57A C 0.4959(3) 0.5558(3) 0.6222(4)
F19A F 0.5467(3) 0.6384(3) 0.6655(6)
F20A F 0.4577(3) 0.6532(3) 0.6436(4)
F21A F 0.4814(6) 0.6040(3) 0.7270(4)
Co3 Co 0.0000 0.5000 0.19233(6)
O8 O 0.0035(2) 0.4345(2) 0.2674(2)
O9 O -0.0056(2) 0.56682(18) 0.1216(2)
O10 O 0.0932(2) 0.50382(19) 0.1840(2)
C59 C 0.0134(5) 0.6153(5) 0.0205(5)
C60 C 0.0338(4) 0.5759(3) 0.0797(4)
F22 F -0.0340(4) 0.6476(4) 0.0342(4)
F23 F 0.0541(4) 0.6567(4) 0.0088(5)
F24 F 0.0042(6) 0.5853(4) -0.0317(4)
C61 C 0.1865(4) 0.5026(5) 0.1255(5)
C62 C 0.1185(3) 0.5210(3) 0.1300(4)
C63 C 0.0930(3) 0.5551(3) 0.0786(4)
H33 H 0.1175 0.5645 0.0409
F25 F 0.2163(2) 0.5261(3) 0.1774(4)
F26 F 0.2101(3) 0.5192(3) 0.0681(4)
F27 F 0.1923(3) 0.4432(3) 0.1300(3)
C64 C -0.0011(6) 0.3883(4) 0.3713(5)
C65 C 0.0005(3) 0.4450(3) 0.3278(3)
C66 C 0.0000 0.5000 0.3591(5)
H34 H 0.0000 0.5000 0.4067
F28 F 0.0419(5) 0.3540(4) 0.3633(5)
F29 F -0.0422(7) 0.3482(4) 0.3469(5)
F30 F -0.0175(5) 0.3935(3) 0.4300(3)
O8A O -0.0035(2) 0.5655(2) 0.2674(2)
O9A O 0.0056(2) 0.43318(18) 0.1216(2)
O10A O -0.0932(2) 0.49618(19) 0.1840(2)
C59A C -0.0134(5) 0.3847(5) 0.0205(5)
C60A C -0.0338(4) 0.4241(3) 0.0797(4)
F22A F 0.0340(4) 0.3524(4) 0.0342(4)
F23A F -0.0541(4) 0.3433(4) 0.0088(5)
F24A F -0.0042(6) 0.4147(4) -0.0317(4)
C61A C -0.1865(4) 0.4974(5) 0.1255(5)
C62A C -0.1185(3) 0.4790(3) 0.1300(4)
C63A C -0.0930(3) 0.4449(3) 0.0786(4)
H33A H -0.1175 0.4355 0.0409
F25A F -0.2163(2) 0.4739(3) 0.1774(4)
F26A F -0.2101(3) 0.4808(3) 0.0681(4)
F27A F -0.1923(3) 0.5568(3) 0.1300(3)
C64A C 0.0011(6) 0.6117(4) 0.3713(5)
C65A C -0.0005(3) 0.5550(3) 0.3278(3)
F28A F -0.0419(5) 0.6460(4) 0.3633(5)
F29A F 0.0422(7) 0.6518(4) 0.3469(5)
F30A F 0.0175(5) 0.6065(3) 0.4300(3)
Co4 Co 0.0000 0.0000 0.04271(5)
O11 O -0.06729(19) -0.00386(19) -0.0280(2)
O12 O -0.00337(19) 0.09395(17) 0.0375(2)
O13 O 0.06420(17) 0.00666(19) 0.1182(2)
C67 C -0.1240(3) 0.0201(4) -0.1229(3)
C68 C -0.0799(3) 0.0387(3) -0.0668(3)
C69 C -0.0596(3) 0.0978(3) -0.0643(3)
H35 H -0.0703 0.1242 -0.1000
C70 C -0.0244(3) 0.1207(3) -0.0124(3)
C71 C -0.0118(4) 0.1888(3) -0.0127(4)
F31 F -0.1749(2) 0.0002(3) -0.0995(2)
F32 F -0.1009(3) -0.0215(4) -0.1608(3)
F33 F -0.1371(3) 0.0645(3) -0.1647(3)
F34 F 0.0450(3) 0.2010(2) 0.0061(3)
F35 F -0.0468(5) 0.2157(2) 0.0306(4)
F36 F -0.0195(2) 0.21497(19) -0.0704(2)
C72 C 0.1128(3) 0.0087(3) 0.2215(4)
C73 C 0.0549(2) 0.0045(2) 0.1792(3)
C74 C 0.0000 0.0000 0.2133(4)
H36 H 0.0000 0.0000 0.2609
F37 F 0.1054(2) -0.0062(3) 0.2842(3)
F38 F 0.1557(2) -0.0252(3) 0.1965(4)
F39 F 0.1336(2) 0.0640(2) 0.2219(3)
O11A O 0.06729(19) 0.00386(19) -0.0280(2)
O12A O 0.00337(19) -0.09395(17) 0.0375(2)
O13A O -0.06420(17) -0.00666(19) 0.1182(2)
C67A C 0.1240(3) -0.0201(4) -0.1229(3)
C68A C 0.0799(3) -0.0387(3) -0.0668(3)
C69A C 0.0596(3) -0.0978(3) -0.0643(3)
H35A H 0.0703 -0.1242 -0.1000
C70A C 0.0244(3) -0.1207(3) -0.0124(3)
C71A C 0.0118(4) -0.1888(3) -0.0127(4)
F31A F 0.1749(2) -0.0002(3) -0.0995(2)
F32A F 0.1009(3) 0.0215(4) -0.1608(3)
F33A F 0.1371(3) -0.0645(3) -0.1647(3)
F34A F -0.0450(3) -0.2010(2) 0.0061(3)
F35A F 0.0468(5) -0.2157(2) 0.0306(4)
F36A F 0.0195(2) -0.21497(19) -0.0704(2)
C72A C -0.1128(3) -0.0087(3) 0.2215(4)
C73A C -0.0549(2) -0.0045(2) 0.1792(3)
F37A F -0.1054(2) 0.0062(3) 0.2842(3)
F38A F -0.1557(2) 0.0252(3) 0.1965(4)
F39A F -0.1336(2) -0.0640(2) 0.2219(3)
Co5 Co 0.5000 0.0000 0.22573(5)
O14 O 0.50820(18) 0.0665(2) 0.2990(2)
O15 O 0.4985(2) -0.06560(19) 0.1526(2)
O16 O 0.59265(18) -0.0080(2) 0.2248(2)
C75 C 0.5042(5) -0.1134(3) 0.0488(4)
C76 C 0.5009(3) -0.0556(3) 0.0927(3)
C77 C 0.5000 0.0000 0.0595(5)
H37 H 0.5000 0.0000 0.0119
F40 F 0.4612(4) -0.1504(3) 0.0622(3)
F41 F 0.5032(5) -0.1039(2) -0.0148(3)
F42 F 0.5529(4) -0.1456(3) 0.0654(5)
C78 C 0.6282(2) 0.0186(2) 0.2631(3)
C79 C 0.6957(3) 0.0080(3) 0.2466(4)
F43 F 0.7308(2) 0.0080(2) 0.2999(3)
F44 F 0.71486(19) 0.0518(2) 0.2070(3)
F45 F 0.70523(19) -0.0440(2) 0.2157(3)
C80 C 0.5486(3) 0.1258(3) 0.3840(3)
C81 C 0.5571(2) 0.0798(3) 0.3287(3)
C82 C 0.6142(3) 0.0588(3) 0.3150(3)
H38 H 0.6464 0.0725 0.3426
F46 F 0.5035(3) 0.1108(3) 0.4244(3)
F47 F 0.5962(2) 0.1350(2) 0.4215(3)
F48 F 0.5317(3) 0.1781(2) 0.3600(3)
O14A O 0.49180(18) -0.0665(2) 0.2990(2)
O15A O 0.5015(2) 0.06560(19) 0.1526(2)
O16A O 0.40735(18) 0.0080(2) 0.2248(2)
C75A C 0.4958(5) 0.1134(3) 0.0488(4)
C76A C 0.4991(3) 0.0556(3) 0.0927(3)
F40A F 0.5388(4) 0.1504(3) 0.0622(3)
F41A F 0.4968(5) 0.1039(2) -0.0148(3)
F42A F 0.4471(4) 0.1456(3) 0.0654(5)
C78A C 0.3718(2) -0.0186(2) 0.2631(3)
C79A C 0.3043(3) -0.0080(3) 0.2466(4)
F43A F 0.2692(2) -0.0080(2) 0.2999(3)
F44A F 0.28514(19) -0.0518(2) 0.2070(3)
F45A F 0.29477(19) 0.0440(2) 0.2157(3)
C80A C 0.4514(3) -0.1258(3) 0.3840(3)
C81A C 0.4429(2) -0.0798(3) 0.3287(3)
C82A C 0.3858(3) -0.0588(3) 0.3150(3)
H38A H 0.3536 -0.0725 0.3426
F46A F 0.4965(3) -0.1108(3) 0.4244(3)
F47A F 0.4038(2) -0.1350(2) 0.4215(3)
F48A F 0.4683(3) -0.1781(2) 0.3600(3)
F49? F 0.4908(10) 0.6088(6) 0.2906(6)
loop_
_geom_bond_atom_site_label_1
_geom_bond_atom_site_label_2
_geom_bond_site_symmetry_1
_geom_bond_site_symmetry_2
Ni1 N1 1_555 1_555
N1 C1 1_555 1_555
C1 H1 1_555 1_555
C2 C1 1_555 1_555
H2 C2 1_555 1_555
C3 C2 1_555 1_555
H3 C3 1_555 1_555
C4 C3 1_555 1_555
H4 C4 1_555 1_555
C5 N1 1_555 1_555
N2 Ni1 1_555 1_555
C6 C5 1_555 1_555
C7 C6 1_555 1_555
H5 C7 1_555 1_555
C8 C7 1_555 1_555
C9 C8 1_555 1_555
H6 C9 1_555 1_555
C10 N2 1_555 1_555
N3 Ni1 1_555 1_555
C11 C10 1_555 1_555
C12 C11 1_555 1_555
H7 C12 1_555 1_555
C13 C12 1_555 1_555
H8 C13 1_555 1_555
C14 C13 1_555 1_555
H9 C14 1_555 1_555
C15 N3 1_555 1_555
H10 C15 1_555 1_555
C16 C8 1_555 1_555
C17 C16 1_555 1_555
H11 C17 1_555 1_555
C18 C16 1_555 1_555
H12 C18 1_555 1_555
C19 C18 1_555 1_555
H13 C19 1_555 1_555
C20 C17 1_555 1_555
H14 C20 1_555 1_555
N4 C19 1_555 1_555
N5 Ni1 1_555 1_555
N6 Ni1 1_555 1_555
N7 Ni1 1_555 1_555
C21 N5 1_555 1_555
H15 C21 1_555 1_555
C22 C21 1_555 1_555
H16 C22 1_555 1_555
C23 C22 1_555 1_555
H17 C23 1_555 1_555
C24 C23 1_555 1_555
H18 C24 1_555 1_555
C25 N5 1_555 1_555
C26 N6 1_555 1_555
C27 C26 1_555 1_555
H19 C27 1_555 1_555
C28 C27 1_555 1_555
C29 C28 1_555 1_555
H20 C29 1_555 1_555
C30 N6 1_555 1_555
C31 N7 1_555 1_555
C32 C31 1_555 1_555
H21 C32 1_555 1_555
C33 C32 1_555 1_555
H22 C33 1_555 1_555
C34 C33 1_555 1_555
H23 C34 1_555 1_555
C35 N7 1_555 1_555
H24 C35 1_555 1_555
C36 C28 1_555 1_555
C37 C36 1_555 1_555
H25 C37 1_555 1_555
C38 C37 1_555 1_555
H26 C38 1_555 1_555
C39 H27 1_555 1_555
C40 C36 1_555 1_555
H28 C40 1_555 1_555
Co1 N4 1_555 1_555
O1 Co1 1_555 1_555
O2 Co1 1_555 1_555
C41 C42 1_555 1_555
C42 O1 1_555 1_555
C43 C42 1_555 1_555
H29 C43 1_555 1_555
C44 O2 1_555 1_555
C45 C44 1_555 1_555
F1 C41 1_555 1_555
F2 C41 1_555 1_555
F3 C41 1_555 1_555
F4 C45 1_555 1_555
F5 C45 1_555 1_555
F6 C45 1_555 1_555
O3 Co1 1_555 1_555
O4 Co1 1_555 1_555
C46 C47 1_555 1_555
C47 O3 1_555 1_555
C48 C47 1_555 1_555
H30 C48 1_555 1_555
C49 O4 1_555 1_555
C50 C49 1_555 1_555
F7 C46 1_555 1_555
F8 C46 1_555 1_555
F9 C46 1_555 1_555
F10 C50 1_555 1_555
F11 C50 1_555 1_555
F12 C50 1_555 1_555
Co2 O5 1_555 1_555
O5 C52 1_555 1_555
O6 Co2 1_555 1_555
O7 Co2 1_555 1_555
C51 C52 1_555 1_555
C52 C53 1_555 1_555
C53 H31 1_555 1_555
C54 O6 1_555 1_555
C55 C54 1_555 1_555
F13 C51 1_555 1_555
F14 C51 1_555 1_555
F15 C51 1_555 1_555
F16 C55 1_555 1_555
F17 C55 1_555 1_555
F18 C55 1_555 1_555
C56 C57 1_555 1_555
C57 O7 1_555 1_555
C58 C57 1_555 1_555
H32 C58 1_555 1_555
F19 C56 1_555 1_555
F20 C56 1_555 1_555
F21 C56 1_555 1_555
Co3 O8 1_555 1_555
O8 C65 1_555 1_555
O9 Co3 1_555 1_555
O10 Co3 1_555 1_555
C59 C60 1_555 1_555
C60 O9 1_555 1_555
F22 C59 1_555 1_555
F23 C59 1_555 1_555
F24 C59 1_555 1_555
C61 C62 1_555 1_555
C62 O10 1_555 1_555
C63 C60 1_555 1_555
H33 C63 1_555 1_555
F25 C61 1_555 1_555
F26 C61 1_555 1_555
F27 C61 1_555 1_555
C64 C65 1_555 1_555
C65 C66 1_555 1_555
C66 H34 1_555 1_555
F28 C64 1_555 1_555
F29 C64 1_555 1_555
F30 C64 1_555 1_555
Co4 O11 1_555 1_555
O11 C68 1_555 1_555
O12 Co4 1_555 1_555
O13 Co4 1_555 1_555
C67 C68 1_555 1_555
C68 C69 1_555 1_555
C69 H35 1_555 1_555
C70 O12 1_555 1_555
C71 C70 1_555 1_555
F31 C67 1_555 1_555
F32 C67 1_555 1_555
F33 C67 1_555 1_555
F34 C71 1_555 1_555
F35 C71 1_555 1_555
F36 C71 1_555 1_555
C72 C73 1_555 1_555
C73 O13 1_555 1_555
C74 C73 1_555 1_555
H36 C74 1_555 1_555
F37 C72 1_555 1_555
F38 C72 1_555 1_555
F39 C72 1_555 1_555
Co5 O14 1_555 1_555
O14 C81 1_555 1_555
O15 Co5 1_555 1_555
O16 Co5 1_555 1_555
C75 C76 1_555 1_555
C76 O15 1_555 1_555
C77 C76 1_555 1_555
H37 C77 1_555 1_555
F40 C75 1_555 1_555
F41 C75 1_555 1_555
F42 C75 1_555 1_555
C78 O16 1_555 1_555
C79 C78 1_555 1_555
F43 C79 1_555 1_555
F44 C79 1_555 1_555
F45 C79 1_555 1_555
C80 C81 1_555 1_555
C81 C82 1_555 1_555
C82 C78 1_555 1_555
H38 C82 1_555 1_555
F46 C80 1_555 1_555
F47 C80 1_555 1_555
F48 C80 1_555 1_555
N8 C38 1_555 1_555
Co1_2 N8 1_555 1_555
O5A Co2 1_555 1_555
O6A Co2 1_555 1_555
O7A Co2 1_555 1_555
C51A C52A 1_555 1_555
C52A O5A 1_555 1_555
C53A C52A 1_555 1_555
H31A C53A 1_555 1_555
C54A O6A 1_555 1_555
C55A C54A 1_555 1_555
F13A C51A 1_555 1_555
F14A C51A 1_555 1_555
F15A C51A 1_555 1_555
F16A C55A 1_555 1_555
F17A C55A 1_555 1_555
F18A C55A 1_555 1_555
C56A C57A 1_555 1_555
C57A C58 1_555 1_555
F19A C56A 1_555 1_555
F20A C56A 1_555 1_555
F21A C56A 1_555 1_555
O8A Co3 1_555 1_555
O9A Co3 1_555 1_555
O10A Co3 1_555 1_555
C59A C60A 1_555 1_555
C60A O9A 1_555 1_555
F22A C59A 1_555 1_555
F23A C59A 1_555 1_555
F24A C59A 1_555 1_555
C61A C62A 1_555 1_555
C62A O10A 1_555 1_555
C63A C60A 1_555 1_555
H33A C63A 1_555 1_555
F25A C61A 1_555 1_555
F26A C61A 1_555 1_555
F27A C61A 1_555 1_555
C64A C65A 1_555 1_555
C65A C66 1_555 1_555
F28A C64A 1_555 1_555
F29A C64A 1_555 1_555
F30A C64A 1_555 1_555
O11A Co4 1_555 1_555
O12A Co4 1_555 1_555
O13A Co4 1_555 1_555
C67A C68A 1_555 1_555
C68A O11A 1_555 1_555
C69A C68A 1_555 1_555
H35A C69A 1_555 1_555
C70A O12A 1_555 1_555
C71A C70A 1_555 1_555
F31A C67A 1_555 1_555
F32A C67A 1_555 1_555
F33A C67A 1_555 1_555
F34A C71A 1_555 1_555
F35A C71A 1_555 1_555
F36A C71A 1_555 1_555
C72A C73A 1_555 1_555
C73A C74 1_555 1_555
F37A C72A 1_555 1_555
F38A C72A 1_555 1_555
F39A C72A 1_555 1_555
O14A Co5 1_555 1_555
O15A Co5 1_555 1_555
O16A Co5 1_555 1_555
C75A C76A 1_555 1_555
C76A C77 1_555 1_555
F40A C75A 1_555 1_555
F41A C75A 1_555 1_555
F42A C75A 1_555 1_555
C78A O16A 1_555 1_555
C79A C78A 1_555 1_555
F43A C79A 1_555 1_555
F44A C79A 1_555 1_555
F45A C79A 1_555 1_555
C80A C81A 1_555 1_555
C81A O14A 1_555 1_555
C82A C78A 1_555 1_555
H38A C82A 1_555 1_555
F46A C80A 1_555 1_555
F47A C80A 1_555 1_555
F48A C80A 1_555 1_555
N8_2 Co1 1_555 1_555
C4 C5 1_555 1_555
N2 C6 1_555 1_555
C9 C10 1_555 1_555
N3 C11 1_555 1_555
C14 C15 1_555 1_555
C20 N4 1_555 1_555
C24 C25 1_555 1_555
C25 C26 1_555 1_555
C29 C30 1_555 1_555
C30 C31 1_555 1_555
C34 C35 1_555 1_555
C39 C40 1_555 1_555
C39 N8 1_555 1_555
C43 C44 1_555 1_555
C48 C49 1_555 1_555
C53 C54 1_555 1_555
C62 C63 1_555 1_555
C69 C70 1_555 1_555
O7A C57A 1_555 1_555
C53A C54A 1_555 1_555
O8A C65A 1_555 1_555
C62A C63A 1_555 1_555
O13A C73A 1_555 1_555
C69A C70A 1_555 1_555
O15A C76A 1_555 1_555
C81A C82A 1_555 1_555

#END
