
#######################################################################
#
#                 Cambridge Crystallographic Data Centre
#                                CCDC 
#
#######################################################################
#
# If this CIF has been generated from an entry in the Cambridge 
# Structural Database, then it will include bibliographic, chemical, 
# crystal, experimental, refinement or atomic coordinate data resulting 
# from the CCDC's data processing and validation procedures.
#
#######################################################################

data_WUTTOV
_symmetry_cell_setting           orthorhombic
_symmetry_space_group_name_H-M   'P n n a'
_symmetry_Int_Tables_number      52
_space_group_name_Hall           '-P 2a 2bc'
loop_
_symmetry_equiv_pos_site_id
_symmetry_equiv_pos_as_xyz
1 x,y,z
2 1/2-x,-y,z
3 x,1/2-y,1/2-z
4 1/2-x,1/2+y,1/2-z
5 -x,-y,-z
6 1/2+x,y,-z
7 -x,1/2+y,1/2+z
8 1/2+x,1/2-y,1/2+z
_cell_length_a                   17.54540(10)
_cell_length_b                   16.4751(2)
_cell_length_c                   22.1790(3)
_cell_angle_alpha                90
_cell_angle_beta                 90
_cell_angle_gamma                90
_cell_volume                     6411.11
loop_
_atom_site_label
_atom_site_type_symbol
_atom_site_fract_x
_atom_site_fract_y
_atom_site_fract_z
S1 S 0.09404(17) 0.7500 0.7500
O3 O 0.0537(5) 0.8188(5) 0.7393(6)
O4 O 0.1420(7) 0.7264(5) 0.7048(3)
O3B O 0.0537(5) 0.6812(5) 0.7607(6)
O4B O 0.1420(7) 0.7736(5) 0.7952(3)
O5 O 0.4293(8) 0.9079(5) 0.8657(4)
C29 C 0.5158(9) 0.8591(12) 0.8580(8)
O6 O 0.4375(4) 0.0242(5) 0.7806(3)
C30 C 0.4654(8) -0.0112(9) 0.7282(4)
O7 O 0.9086(8) 0.8472(10) 0.7009(5)
C31 C 0.8703(9) 0.8085(8) 0.6512(8)
N1 N 0.2500 0.0000 0.4349(2)
C1 C 0.1924(3) -0.0298(3) 0.4036(2)
H1 H 0.1501 -0.0512 0.4252
C2 C 0.1899(3) -0.0316(3) 0.3413(2)
H2 H 0.1473 -0.0544 0.3209
C3 C 0.2500 0.0000 0.3095(3)
C4 C 0.2500 0.0000 0.2429(3)
Co1 Co 0.2500 0.0000 -0.46821(4)
C5 C 0.3124(3) -0.0311(3) 0.2114(2)
H3 H 0.3552 -0.0529 0.2322
C6 C 0.3100(3) -0.0293(3) 0.1488(2)
N2 N 0.2500 0.0000 0.1180(2)
C7 C 0.3731(3) -0.0616(3) 0.1105(2)
C8 C 0.4366(3) -0.0994(4) 0.1332(3)
H4 H 0.4424 -0.1072 0.1754
C9 C 0.4919(4) -0.1257(4) 0.0935(3)
H5 H 0.5366 -0.1516 0.1081
C10 C 0.4814(3) -0.1138(4) 0.0320(3)
H6 H 0.5189 -0.1314 0.0040
C11 C 0.4154(3) -0.0757(3) 0.0123(2)
H7 H 0.4081 -0.0677 -0.0297
N3 N 0.3620(2) -0.0501(2) 0.05041(17)
Co2 Co 0.2500 0.0000 0.03106(4)
N4 N 0.2905(2) 0.1111(2) 0.01815(16)
C12 C 0.3096(3) 0.1660(3) 0.0594(2)
H8 H 0.3044 0.1519 0.1008
C13 C 0.3368(4) 0.2432(3) 0.0452(3)
H9 H 0.3491 0.2814 0.0758
C14 C 0.3451(3) 0.2618(3) -0.0153(3)
H10 H 0.3643 0.3134 -0.0268
C15 C 0.3256(3) 0.2060(3) -0.0590(2)
H11 H 0.3304 0.2190 -0.1005
C16 C 0.2994(3) 0.1314(3) -0.0414(2)
C17 C 0.2762(3) 0.0662(3) -0.08269(19)
N5 N 0.2500 0.0000 -0.0526(2)
C18 C 0.2759(3) 0.0666(3) -0.1451(2)
H12 H 0.2936 0.1129 -0.1663
C19 C 0.2500 0.0000 -0.1764(3)
C20 C 0.2500 0.0000 -0.2447(3)
C21 C 0.2273(3) -0.0676(3) -0.2776(2)
H13 H 0.2107 -0.1153 -0.2574
C22 C 0.2290(3) -0.0649(3) -0.3393(2)
H14 H 0.2143 -0.1123 -0.3609
O1 O 0.2045(2) 0.1139(2) -0.46882(15)
O2 O 0.1399(2) -0.04150(19) -0.46431(14)
C23 C 0.1254(4) 0.2239(3) -0.4443(4)
H15 H 0.1641 0.2539 -0.4671
H16 H 0.1271 0.2406 -0.4019
H17 H 0.0748 0.2357 -0.4610
C24 C 0.1409(3) 0.1350(3) -0.4488(2)
C25 C 0.0831(3) 0.0790(3) -0.4300(2)
C26 C 0.0849(3) -0.0058(3) -0.4399(2)
C27 C 0.0189(3) -0.0571(3) -0.4210(3)
H18 H 0.0114 -0.1009 -0.4503
H19 H -0.0272 -0.0236 -0.4190
H20 H 0.0293 -0.0806 -0.3812
C28 C 0.0173(4) 0.1143(3) -0.4023(3)
N6 N -0.0353(3) 0.1424(3) -0.3801(3)
N7 N 0.2500 0.0000 -0.3708(2)
N1_2 N 0.2500 0.0000 -0.5651(2)
C1A C 0.3076(3) 0.0298(3) 0.4036(2)
H1A H 0.3499 0.0512 0.4252
C2A C 0.3101(3) 0.0316(3) 0.3413(2)
H2A H 0.3527 0.0544 0.3209
Co1_2 Co 0.2500 0.0000 0.53179(4)
C5A C 0.1876(3) 0.0311(3) 0.2114(2)
H3A H 0.1448 0.0529 0.2322
C6A C 0.1900(3) 0.0293(3) 0.1488(2)
C7A C 0.1269(3) 0.0616(3) 0.1105(2)
C8A C 0.0634(3) 0.0994(4) 0.1332(3)
H4A H 0.0576 0.1072 0.1754
C9A C 0.0081(4) 0.1257(4) 0.0935(3)
H5A H -0.0366 0.1516 0.1081
C10A C 0.0186(3) 0.1138(4) 0.0320(3)
H6A H -0.0189 0.1314 0.0040
C11A C 0.0846(3) 0.0757(3) 0.0123(2)
H7A H 0.0919 0.0677 -0.0297
N3A N 0.1380(2) 0.0501(2) 0.05041(17)
N4A N 0.2095(2) -0.1111(2) 0.01815(16)
C12A C 0.1904(3) -0.1660(3) 0.0594(2)
H8A H 0.1956 -0.1519 0.1008
C13A C 0.1632(4) -0.2432(3) 0.0452(3)
H9A H 0.1509 -0.2814 0.0758
C14A C 0.1549(3) -0.2618(3) -0.0153(3)
H10A H 0.1357 -0.3134 -0.0268
C15A C 0.1744(3) -0.2060(3) -0.0590(2)
H11A H 0.1696 -0.2190 -0.1005
C16A C 0.2006(3) -0.1314(3) -0.0414(2)
C17A C 0.2238(3) -0.0662(3) -0.08269(19)
C18A C 0.2241(3) -0.0666(3) -0.1451(2)
H12A H 0.2064 -0.1129 -0.1663
C21A C 0.2727(3) 0.0676(3) -0.2776(2)
H13A H 0.2893 0.1153 -0.2574
C22A C 0.2710(3) 0.0649(3) -0.3393(2)
H14A H 0.2857 0.1123 -0.3609
O1A O 0.2955(2) -0.1139(2) -0.46882(15)
O2A O 0.3601(2) 0.04150(19) -0.46431(14)
C23A C 0.3746(4) -0.2239(3) -0.4443(4)
H15A H 0.3359 -0.2539 -0.4671
H16A H 0.3729 -0.2406 -0.4019
H17A H 0.4252 -0.2357 -0.4610
C24A C 0.3591(3) -0.1350(3) -0.4488(2)
C25A C 0.4169(3) -0.0790(3) -0.4300(2)
C26A C 0.4151(3) 0.0058(3) -0.4399(2)
C27A C 0.4811(3) 0.0571(3) -0.4210(3)
H18A H 0.4886 0.1009 -0.4503
H19A H 0.5272 0.0236 -0.4190
H20A H 0.4707 0.0806 -0.3812
C28A C 0.4827(4) -0.1143(3) -0.4023(3)
N6A N 0.5353(3) -0.1424(3) -0.3801(3)
loop_
_geom_bond_atom_site_label_1
_geom_bond_atom_site_label_2
_geom_bond_site_symmetry_1
_geom_bond_site_symmetry_2
N1 C1 1_555 1_555
C1 H1 1_555 1_555
C2 C1 1_555 1_555
H2 C2 1_555 1_555
C3 C2 1_555 1_555
C4 C3 1_555 1_555
Co1 O1 1_555 1_555
C5 C4 1_555 1_555
H3 C5 1_555 1_555
C6 C5 1_555 1_555
N2 C6 1_555 1_555
C7 C6 1_555 1_555
C8 C7 1_555 1_555
H4 C8 1_555 1_555
C9 C8 1_555 1_555
H5 C9 1_555 1_555
C10 C9 1_555 1_555
H6 C10 1_555 1_555
C11 C10 1_555 1_555
H7 C11 1_555 1_555
N3 C7 1_555 1_555
Co2 N2 1_555 1_555
N4 Co2 1_555 1_555
C12 N4 1_555 1_555
H8 C12 1_555 1_555
C13 C12 1_555 1_555
H9 C13 1_555 1_555
C14 C13 1_555 1_555
H10 C14 1_555 1_555
C15 C14 1_555 1_555
H11 C15 1_555 1_555
C16 N4 1_555 1_555
C17 C16 1_555 1_555
N5 Co2 1_555 1_555
C18 C17 1_555 1_555
H12 C18 1_555 1_555
C19 C18 1_555 1_555
C20 C19 1_555 1_555
C21 C20 1_555 1_555
H13 C21 1_555 1_555
C22 C21 1_555 1_555
H14 C22 1_555 1_555
O1 C24 1_555 1_555
O2 Co1 1_555 1_555
C23 H15 1_555 1_555
H16 C23 1_555 1_555
H17 C23 1_555 1_555
C24 C23 1_555 1_555
C25 C24 1_555 1_555
C26 O2 1_555 1_555
C27 C26 1_555 1_555
H18 C27 1_555 1_555
H19 C27 1_555 1_555
H20 C27 1_555 1_555
C28 C25 1_555 1_555
N6 C28 1_555 1_555
S1 O3 1_555 1_555
O4 S1 1_555 1_555
O5 C29 1_555 1_555
O6 C30 1_555 1_555
O7 C31 1_555 1_555
N7 Co1 1_555 1_555
N1_2 Co1 1_555 1_555
C1A N1 1_555 1_555
H1A C1A 1_555 1_555
C2A C3 1_555 1_555
H2A C2A 1_555 1_555
Co1_2 N1 1_555 1_555
C5A C4 1_555 1_555
H3A C5A 1_555 1_555
C6A N2 1_555 1_555
C7A C6A 1_555 1_555
C8A C7A 1_555 1_555
H4A C8A 1_555 1_555
C9A C8A 1_555 1_555
H5A C9A 1_555 1_555
C10A C9A 1_555 1_555
H6A C10A 1_555 1_555
C11A C10A 1_555 1_555
H7A C11A 1_555 1_555
N3A Co2 1_555 1_555
N4A Co2 1_555 1_555
C12A N4A 1_555 1_555
H8A C12A 1_555 1_555
C13A C12A 1_555 1_555
H9A C13A 1_555 1_555
C14A C13A 1_555 1_555
H10A C14A 1_555 1_555
C15A C14A 1_555 1_555
H11A C15A 1_555 1_555
C16A N4A 1_555 1_555
C17A N5 1_555 1_555
C18A C19 1_555 1_555
H12A C18A 1_555 1_555
C21A C20 1_555 1_555
H13A C21A 1_555 1_555
C22A N7 1_555 1_555
H14A C22A 1_555 1_555
O1A Co1 1_555 1_555
O2A Co1 1_555 1_555
C23A H15A 1_555 1_555
H16A C23A 1_555 1_555
H17A C23A 1_555 1_555
C24A O1A 1_555 1_555
C25A C24A 1_555 1_555
C26A O2A 1_555 1_555
C27A C26A 1_555 1_555
H18A C27A 1_555 1_555
H19A C27A 1_555 1_555
H20A C27A 1_555 1_555
C28A C25A 1_555 1_555
N6A C28A 1_555 1_555
O3B S1 1_555 1_555
O4B S1 1_555 1_555
C11 N3 1_555 1_555
N3 Co2 1_555 1_555
C15 C16 1_555 1_555
C17 N5 1_555 1_555
C22 N7 1_555 1_555
C25 C26 1_555 1_555
C1A C2A 1_555 1_555
C5A C6A 1_555 1_555
C7A N3A 1_555 1_555
C11A N3A 1_555 1_555
C15A C16A 1_555 1_555
C16A C17A 1_555 1_555
C17A C18A 1_555 1_555
C21A C22A 1_555 1_555
C23A C24A 1_555 1_555
C25A C26A 1_555 1_555

#END
