
#######################################################################
#
#                 Cambridge Crystallographic Data Centre
#                                CCDC 
#
#######################################################################
#
# If this CIF has been generated from an entry in the Cambridge 
# Structural Database, then it will include bibliographic, chemical, 
# crystal, experimental, refinement or atomic coordinate data resulting 
# from the CCDC's data processing and validation procedures.
#
#######################################################################

data_WUVBUK
_symmetry_cell_setting           monoclinic
_symmetry_space_group_name_H-M   'C 2/c'
_symmetry_Int_Tables_number      15
_space_group_name_Hall           '-C 2yn'
loop_
_symmetry_equiv_pos_site_id
_symmetry_equiv_pos_as_xyz
1 x,y,z
2 1/2+x,1/2+y,z
3 x,-y,1/2+z
4 1/2+x,1/2-y,1/2+z
5 -x,-y,-z
6 1/2-x,1/2-y,-z
7 -x,y,1/2-z
8 1/2-x,1/2+y,1/2-z
_cell_length_a                   8.058(5)
_cell_length_b                   24.640(15)
_cell_length_c                   19.203(14)
_cell_angle_alpha                90
_cell_angle_beta                 95.75(2)
_cell_angle_gamma                90
_cell_volume                     3793.56
loop_
_atom_site_label
_atom_site_type_symbol
_atom_site_fract_x
_atom_site_fract_y
_atom_site_fract_z
Cu1 Cu 0.06865(12) 0.19875(4) 0.47582(4)
Cu2 Cu 1.0000 0.0000 0.5000
O1 O 0.1918(8) 0.0792(3) 0.5615(3)
O2 O 0.2704(8) 0.1463(3) 0.4908(3)
O3 O 0.9589(7) 0.0398(2) 0.4111(3)
O4 O 0.7632(8) 0.0900(3) 0.3494(3)
N1 N 0.7901(8) 0.0341(2) 0.5223(3)
N2 N -0.0502(7) 0.2121(3) 0.5568(3)
N3 N -0.3813(7) 0.2812(3) 0.8811(3)
C1 C 0.2945(11) 0.1033(3) 0.5268(4)
C2 C 0.4702(9) 0.0793(3) 0.5268(4)
C3 C 0.5468(10) 0.0501(3) 0.5830(4)
H1 H 0.4846 0.0434 0.6223
C4 C 0.7080(10) 0.0288(3) 0.5791(4)
H2 H 0.7640 0.0100 0.6186
C5 C 0.7165(10) 0.0622(3) 0.4653(4)
C6 C 0.5589(10) 0.0857(3) 0.4669(4)
H3 H 0.5070 0.1064 0.4283
C7 C 0.8199(11) 0.0646(3) 0.4040(4)
C8 C -0.0849(11) 0.2634(3) 0.5741(4)
H4 H -0.0643 0.2916 0.5416
C9 C -0.1545(10) 0.2782(3) 0.6357(4)
H5 H -0.1718 0.3158 0.6455
C10 C -0.1904(8) 0.2381(3) 0.6832(3)
C11 C -0.1552(10) 0.1842(3) 0.6656(4)
H6 H -0.1758 0.1554 0.6973
C12 C -0.0864(11) 0.1730(3) 0.6037(4)
H7 H -0.0723 0.1355 0.5921
C13 C -0.2586(8) 0.2531(3) 0.7512(3)
C14 C -0.2769(11) 0.3067(3) 0.7717(4)
H8 H -0.2392 0.3351 0.7430
C15 C -0.3367(10) 0.3197(3) 0.8355(4)
H9 H -0.3594 0.3569 0.8455
C16 C -0.3668(10) 0.2293(4) 0.8614(4)
H10 H -0.4034 0.2019 0.8920
C17 C -0.3060(9) 0.2134(3) 0.7977(4)
H11 H -0.2923 0.1757 0.7872
O1D O 1.8082(8) -0.0792(3) 0.4385(3)
O2D O 1.7296(8) -0.1463(3) 0.5092(3)
O3D O 1.0411(7) -0.0398(2) 0.5889(3)
O4D O 1.2368(8) -0.0900(3) 0.6506(3)
N1D N 1.2099(8) -0.0341(2) 0.4777(3)
C1D C 1.7055(11) -0.1033(3) 0.4732(4)
C2D C 1.5298(9) -0.0793(3) 0.4732(4)
C3D C 1.4532(10) -0.0501(3) 0.4170(4)
H1D H 1.5154 -0.0434 0.3777
C4D C 1.2920(10) -0.0288(3) 0.4209(4)
H2D H 1.2360 -0.0100 0.3814
C5D C 1.2835(10) -0.0622(3) 0.5347(4)
C6D C 1.4411(10) -0.0857(3) 0.5331(4)
H3D H 1.4930 -0.1064 0.5717
C7D C 1.1801(11) -0.0646(3) 0.5960(4)
Cu1D Cu 1.93135(12) -0.19875(4) 0.52418(4)
N2C N 0.4498(7) 0.2879(3) 0.0568(3)
N3C N 0.1187(7) 0.2188(3) 0.3811(3)
C8C C 0.4151(11) 0.2366(3) 0.0741(4)
H4C H 0.4357 0.2084 0.0416
C9C C 0.3455(10) 0.2218(3) 0.1357(4)
H5C H 0.3282 0.1842 0.1455
C10C C 0.3096(8) 0.2619(3) 0.1832(3)
C11C C 0.3448(10) 0.3158(3) 0.1656(4)
H6C H 0.3242 0.3446 0.1973
C12C C 0.4136(11) 0.3270(3) 0.1037(4)
H7C H 0.4277 0.3645 0.0921
C13C C 0.2414(8) 0.2469(3) 0.2512(3)
C14C C 0.2231(11) 0.1933(3) 0.2717(4)
H8C H 0.2608 0.1649 0.2430
C15C C 0.1633(10) 0.1803(3) 0.3355(4)
H9C H 0.1406 0.1431 0.3455
C16C C 0.1332(10) 0.2707(4) 0.3614(4)
H10C H 0.0966 0.2981 0.3920
C17C C 0.1940(9) 0.2866(3) 0.2977(4)
H11C H 0.2077 0.3243 0.2872
Cu1C Cu -0.43135(12) 0.30125(4) 0.97582(4)
N2D N 2.0502(7) -0.2121(3) 0.4432(3)
N3G N 1.8813(7) -0.2188(3) 0.6189(3)
Cu1C_2 Cu 0.56865(12) 0.30125(4) -0.02418(4)
O5 O 0.1849(18) 0.0720(4) 0.7128(6)
O6 O 0.0000 -0.0359(14) 0.7500
O7 O 0.5000 0.0949(18) 0.7500
loop_
_geom_bond_atom_site_label_1
_geom_bond_atom_site_label_2
_geom_bond_site_symmetry_1
_geom_bond_site_symmetry_2
Cu1 O2 1_555 1_555
Cu2 O3 1_555 1_555
O1 C1 1_555 1_555
O2 C1 1_555 1_555
O3 C7 1_555 1_555
O4 C7 1_555 1_555
N1 Cu2 1_555 1_555
N2 Cu1 1_555 1_555
N3 C15 1_555 1_555
C1 C2 1_555 1_555
C2 C3 1_555 1_555
C3 H1 1_555 1_555
C4 N1 1_555 1_555
H2 C4 1_555 1_555
C5 N1 1_555 1_555
C6 C2 1_555 1_555
H3 C6 1_555 1_555
C7 C5 1_555 1_555
C8 N2 1_555 1_555
H4 C8 1_555 1_555
C9 C8 1_555 1_555
H5 C9 1_555 1_555
C10 C9 1_555 1_555
C11 C10 1_555 1_555
H6 C11 1_555 1_555
C12 N2 1_555 1_555
H7 C12 1_555 1_555
C13 C10 1_555 1_555
C14 C13 1_555 1_555
H8 C14 1_555 1_555
C15 C14 1_555 1_555
H9 C15 1_555 1_555
C16 N3 1_555 1_555
H10 C16 1_555 1_555
C17 C13 1_555 1_555
H11 C17 1_555 1_555
O1D C1D 1_555 1_555
O2D C1D 1_555 1_555
O3D Cu2 1_555 1_555
O4D C7D 1_555 1_555
N1D Cu2 1_555 1_555
C1D C2D 1_555 1_555
C2D C3D 1_555 1_555
C3D H1D 1_555 1_555
C4D N1D 1_555 1_555
H2D C4D 1_555 1_555
C5D N1D 1_555 1_555
C6D C2D 1_555 1_555
H3D C6D 1_555 1_555
C7D O3D 1_555 1_555
Cu1D O2D 1_555 1_555
N2C C8C 1_555 1_555
N3C Cu1 1_555 1_555
C8C H4C 1_555 1_555
C9C C8C 1_555 1_555
H5C C9C 1_555 1_555
C10C C9C 1_555 1_555
C11C C10C 1_555 1_555
H6C C11C 1_555 1_555
C12C N2C 1_555 1_555
H7C C12C 1_555 1_555
C13C C10C 1_555 1_555
C14C C13C 1_555 1_555
H8C C14C 1_555 1_555
C15C N3C 1_555 1_555
H9C C15C 1_555 1_555
C16C N3C 1_555 1_555
H10C C16C 1_555 1_555
C17C C13C 1_555 1_555
H11C C17C 1_555 1_555
Cu1C N3 1_555 1_555
N2D Cu1D 1_555 1_555
N3G Cu1D 1_555 1_555
Cu1C_2 N2C 1_555 1_555
C3 C4 1_555 1_555
C5 C6 1_555 1_555
C11 C12 1_555 1_555
C16 C17 1_555 1_555
C3D C4D 1_555 1_555
C5D C6D 1_555 1_555
C5D C7D 1_555 1_555
C11C C12C 1_555 1_555
C14C C15C 1_555 1_555
C16C C17C 1_555 1_555

#END
