
#######################################################################
#
#                 Cambridge Crystallographic Data Centre
#                                CCDC 
#
#######################################################################
#
# If this CIF has been generated from an entry in the Cambridge 
# Structural Database, then it will include bibliographic, chemical, 
# crystal, experimental, refinement or atomic coordinate data resulting 
# from the CCDC's data processing and validation procedures.
#
#######################################################################

data_WUVBOE
_symmetry_cell_setting           triclinic
_symmetry_space_group_name_H-M   'P -1'
_symmetry_Int_Tables_number      2
_space_group_name_Hall           '-P 1'
loop_
_symmetry_equiv_pos_site_id
_symmetry_equiv_pos_as_xyz
1 x,y,z
2 -x,-y,-z
_cell_length_a                   8.011(3)
_cell_length_b                   12.672(5)
_cell_length_c                   12.792(5)
_cell_angle_alpha                97.402(10)
_cell_angle_beta                 99.304(18)
_cell_angle_gamma                104.756(14)
_cell_volume                     1219.41
loop_
_atom_site_label
_atom_site_type_symbol
_atom_site_fract_x
_atom_site_fract_y
_atom_site_fract_z
Ag1 Ag -0.20872(3) -0.008869(16) -0.305633(15)
O1 O -0.4231(3) -0.11619(16) -0.09498(14)
N1 N -0.2765(3) -0.03679(18) -0.11591(16)
C1 C -0.1959(3) 0.0415(2) -0.03794(19)
O2 O -0.2331(3) 0.05281(15) 0.06146(14)
N2 N -0.3399(3) -0.04581(17) 0.08995(17)
C2 C -0.4286(3) -0.1193(2) 0.00951(19)
N3 N -0.5868(3) -0.21857(18) 0.12627(17)
C3 C -0.5551(3) -0.2201(2) 0.0265(2)
C4 C -0.6341(3) -0.3082(2) -0.0577(2)
H1 H -0.6087 -0.3051 -0.1275
C5 C -0.7497(4) -0.4001(2) -0.0380(2)
H2 H -0.8061 -0.4622 -0.0939
C6 C -0.7825(4) -0.4006(2) 0.0646(2)
H3 H -0.8617 -0.4633 0.0807
C7 C -0.6990(4) -0.3089(2) 0.1434(2)
H4 H -0.7228 -0.3102 0.2137
N4 N -0.0237(3) 0.13379(17) -0.15342(16)
C8 C -0.0506(3) 0.1333(2) -0.05219(19)
C9 C 0.0480(3) 0.2138(2) 0.0343(2)
H5 H 0.0254 0.2101 0.1046
C10 C 0.1801(4) 0.2997(2) 0.0169(2)
H6 H 0.2497 0.3564 0.0749
C11 C 0.2093(3) 0.3018(2) -0.0863(2)
H7 H 0.2989 0.3600 -0.1009
C12 C 0.1047(3) 0.2170(2) -0.1684(2)
H8 H 0.1259 0.2184 -0.2392
O3 O 0.3033(2) -0.11371(14) -0.29913(14)
N5 N 0.4385(3) -0.04172(17) -0.34155(16)
C13 C 0.4065(3) 0.0481(2) -0.35781(18)
O4 O 0.2577(2) 0.07727(15) -0.34617(15)
N6 N 0.1042(3) -0.01494(18) -0.35441(17)
C14 C 0.1396(3) -0.1002(2) -0.32611(18)
N7 N 0.6973(3) 0.12061(17) -0.39084(15)
C15 C 0.5341(3) 0.1342(2) -0.39441(18)
C16 C 0.4879(3) 0.2236(2) -0.42857(19)
H9 H 0.3714 0.2294 -0.4315
C17 C 0.6127(4) 0.3046(2) -0.4585(2)
H10 H 0.5842 0.3675 -0.4811
C18 C 0.7793(4) 0.2925(2) -0.45490(19)
H11 H 0.8681 0.3469 -0.4749
C19 C 0.8147(3) 0.1999(2) -0.42170(19)
H12 H 0.9296 0.1919 -0.4206
N8 N -0.1624(3) -0.18105(17) -0.31943(15)
C20 C -0.0032(3) -0.1981(2) -0.32137(18)
C21 C 0.0275(4) -0.2997(2) -0.3167(2)
H13 H 0.1420 -0.3082 -0.3168
C22 C -0.1095(4) -0.3888(2) -0.3117(2)
H14 H -0.0915 -0.4598 -0.3090
C23 C -0.2729(4) -0.3733(2) -0.3108(2)
H15 H -0.3702 -0.4334 -0.3079
C24 C -0.2930(3) -0.2687(2) -0.3142(2)
H16 H -0.4061 -0.2586 -0.3127
N7_2 N -0.3027(3) 0.12061(17) -0.39084(15)
Ag1_2 Ag 0.79128(3) -0.008869(16) -0.305633(15)
B1 B -0.2561(5) 0.5505(3) 0.3255(3)
F1 F -0.2130(3) 0.6287(2) 0.41835(19)
F2 F -0.2999(3) 0.44453(19) 0.3459(2)
F3 F -0.3982(2) 0.56661(18) 0.25999(17)
F4 F -0.1123(2) 0.56605(14) 0.27620(13)
loop_
_geom_bond_atom_site_label_1
_geom_bond_atom_site_label_2
_geom_bond_site_symmetry_1
_geom_bond_site_symmetry_2
Ag1 N1 1_555 1_555
O1 N1 1_555 1_555
N1 C1 1_555 1_555
C1 O2 1_555 1_555
O2 N2 1_555 1_555
N2 C2 1_555 1_555
C2 O1 1_555 1_555
N3 C3 1_555 1_555
C3 C2 1_555 1_555
C4 C3 1_555 1_555
H1 C4 1_555 1_555
C5 C4 1_555 1_555
H2 C5 1_555 1_555
C6 C5 1_555 1_555
H3 C6 1_555 1_555
C7 N3 1_555 1_555
H4 C7 1_555 1_555
N4 Ag1 1_555 1_555
C8 C1 1_555 1_555
C9 C8 1_555 1_555
H5 C9 1_555 1_555
C10 C9 1_555 1_555
H6 C10 1_555 1_555
C11 C10 1_555 1_555
H7 C11 1_555 1_555
C12 N4 1_555 1_555
H8 C12 1_555 1_555
O3 N5 1_555 1_555
N5 C13 1_555 1_555
C13 O4 1_555 1_555
O4 N6 1_555 1_555
N6 Ag1 1_555 1_555
C14 O3 1_555 1_555
N7 C15 1_555 1_555
C15 C13 1_555 1_555
C16 C15 1_555 1_555
H9 C16 1_555 1_555
C17 C16 1_555 1_555
H10 C17 1_555 1_555
C18 C17 1_555 1_555
H11 C18 1_555 1_555
C19 N7 1_555 1_555
H12 C19 1_555 1_555
N8 Ag1 1_555 1_555
C20 C14 1_555 1_555
C21 C20 1_555 1_555
H13 C21 1_555 1_555
C22 C21 1_555 1_555
H14 C22 1_555 1_555
C23 C22 1_555 1_555
H15 C23 1_555 1_555
C24 N8 1_555 1_555
H16 C24 1_555 1_555
B1 F1 1_555 1_555
F2 B1 1_555 1_555
F3 B1 1_555 1_555
F4 B1 1_555 1_555
N7_2 Ag1 1_555 1_555
Ag1_2 N7 1_555 1_555
C6 C7 1_555 1_555
N4 C8 1_555 1_555
C11 C12 1_555 1_555
N6 C14 1_555 1_555
C18 C19 1_555 1_555
N8 C20 1_555 1_555
C23 C24 1_555 1_555

#END
