
#######################################################################
#
#                 Cambridge Crystallographic Data Centre
#                                CCDC 
#
#######################################################################
#
# If this CIF has been generated from an entry in the Cambridge 
# Structural Database, then it will include bibliographic, chemical, 
# crystal, experimental, refinement or atomic coordinate data resulting 
# from the CCDC's data processing and validation procedures.
#
#######################################################################

data_WUVBIZ
_symmetry_cell_setting           triclinic
_symmetry_space_group_name_H-M   'P -1'
_symmetry_Int_Tables_number      2
_space_group_name_Hall           '-P 1'
loop_
_symmetry_equiv_pos_site_id
_symmetry_equiv_pos_as_xyz
1 x,y,z
2 -x,-y,-z
_cell_length_a                   11.426(7)
_cell_length_b                   12.307(8)
_cell_length_c                   7.775(5)
_cell_angle_alpha                83.06(2)
_cell_angle_beta                 76.90(2)
_cell_angle_gamma                74.89(2)
_cell_volume                     1025.83
loop_
_atom_site_label
_atom_site_type_symbol
_atom_site_fract_x
_atom_site_fract_y
_atom_site_fract_z
Cu1 Cu 0.11090(4) 0.24117(3) 0.19172(5)
N1 N -0.0566(3) 0.3429(3) 0.1650(4)
N2 N 0.1276(3) 0.3826(3) 0.2575(4)
N3 N 0.2887(3) 0.1942(3) 0.2259(4)
O1 O 0.0276(3) 0.1852(3) 0.4680(4)
O2 O 0.1072(3) 0.1082(2) 1.0874(3)
C1 C -0.1503(4) 0.3128(4) 0.1231(6)
C2 C -0.2623(5) 0.3876(5) 0.1149(7)
C3 C -0.2775(5) 0.4971(4) 0.1491(7)
C4 C -0.1821(4) 0.5304(4) 0.1923(6)
C5 C -0.0729(4) 0.4508(3) 0.2012(5)
C6 C 0.0349(4) 0.4738(3) 0.2535(5)
C7 C 0.0449(5) 0.5757(3) 0.2993(5)
C8 C 0.1526(5) 0.5790(4) 0.3475(6)
C9 C 0.2485(5) 0.4835(4) 0.3494(6)
C10 C 0.2326(4) 0.3844(3) 0.3020(5)
C11 C 0.3234(4) 0.2731(3) 0.2942(5)
C12 C 0.4325(5) 0.2509(5) 0.3534(7)
C13 C 0.5093(5) 0.1423(5) 0.3414(8)
C14 C 0.4756(5) 0.0632(5) 0.2669(7)
C15 C 0.3648(4) 0.0911(4) 0.2120(6)
C16 C 0.1399(3) 0.1192(3) 0.9190(5)
O3 O 0.1581(3) 0.2069(2) 0.8388(4)
C17 C 0.1562(4) 0.0144(3) 0.8229(5)
C18 C 0.1535(4) 0.0400(4) 0.6283(5)
C19 C 0.0318(4) 0.1124(3) 0.5904(4)
N4 N -0.0708(4) 0.0949(3) 0.6951(5)
H1 H -0.128(5) 0.245(5) 0.088(7)
H2 H -0.323(5) 0.364(5) 0.082(7)
H3 H -0.353(5) 0.545(5) 0.139(7)
H4 H -0.190(4) 0.596(4) 0.208(6)
H5 H -0.019(4) 0.633(4) 0.300(6)
H6 H 0.159(5) 0.647(5) 0.386(7)
H7 H 0.321(5) 0.487(4) 0.394(6)
H8 H 0.454(6) 0.298(5) 0.409(8)
H9 H 0.593(5) 0.126(5) 0.384(7)
H10 H 0.523(5) -0.001(5) 0.250(7)
H11 H 0.341(4) 0.041(4) 0.162(6)
H12 H 0.228(4) -0.029(4) 0.835(5)
H13 H 0.097(4) -0.028(4) 0.886(6)
H14 H 0.221(4) 0.076(4) 0.572(6)
H15 H 0.167(4) -0.016(4) 0.586(6)
H16 H -0.142(5) 0.130(4) 0.682(6)
H17 H -0.074(4) 0.043(4) 0.777(7)
Cu1_2 Cu 0.11090(4) 0.24117(3) 1.19172(5)
O2_2 O 0.1072(3) 0.1082(2) 0.0874(3)
Cl1 Cl 0.41143(12) -0.24565(11) 0.2253(2)
O4 O 0.3319(5) -0.2132(7) 0.3839(7)
O5 O 0.5253(5) -0.2181(5) 0.2108(8)
O6 O 0.3430(6) -0.1796(7) 0.0940(9)
O7 O 0.4313(5) -0.3553(5) 0.1898(14)
loop_
_geom_bond_atom_site_label_1
_geom_bond_atom_site_label_2
_geom_bond_site_symmetry_1
_geom_bond_site_symmetry_2
Cu1 N1 1_555 1_555
N1 C1 1_555 1_555
N2 Cu1 1_555 1_555
N3 Cu1 1_555 1_555
O1 Cu1 1_555 1_555
O2 C16 1_555 1_555
C1 C2 1_555 1_555
C2 C3 1_555 1_555
C3 C4 1_555 1_555
C4 C5 1_555 1_555
C5 N1 1_555 1_555
C6 N2 1_555 1_555
C7 C6 1_555 1_555
C8 C7 1_555 1_555
C9 C8 1_555 1_555
C10 N2 1_555 1_555
C11 N3 1_555 1_555
C12 C11 1_555 1_555
C13 C12 1_555 1_555
C14 C13 1_555 1_555
C15 N3 1_555 1_555
C16 O3 1_555 1_555
C17 C16 1_555 1_555
C18 C17 1_555 1_555
C19 O1 1_555 1_555
N4 C19 1_555 1_555
Cl1 O4 1_555 1_555
O5 Cl1 1_555 1_555
O6 Cl1 1_555 1_555
O7 Cl1 1_555 1_555
H1 C1 1_555 1_555
H2 C2 1_555 1_555
H3 C3 1_555 1_555
H4 C4 1_555 1_555
H5 C7 1_555 1_555
H6 C8 1_555 1_555
H7 C9 1_555 1_555
H8 C12 1_555 1_555
H9 C13 1_555 1_555
H10 C14 1_555 1_555
H11 C15 1_555 1_555
H12 C17 1_555 1_555
H13 C17 1_555 1_555
H14 C18 1_555 1_555
H15 C18 1_555 1_555
H16 N4 1_555 1_555
H17 N4 1_555 1_555
Cu1_2 O2 1_555 1_555
O2_2 Cu1 1_555 1_555
C5 C6 1_555 1_555
C9 C10 1_555 1_555
C10 C11 1_555 1_555
C14 C15 1_555 1_555
C18 C19 1_555 1_555

#END
