
#######################################################################
#
#                 Cambridge Crystallographic Data Centre
#                                CCDC 
#
#######################################################################
#
# If this CIF has been generated from an entry in the Cambridge 
# Structural Database, then it will include bibliographic, chemical, 
# crystal, experimental, refinement or atomic coordinate data resulting 
# from the CCDC's data processing and validation procedures.
#
#######################################################################

data_WUVCAR
_symmetry_cell_setting           triclinic
_symmetry_space_group_name_H-M   'P -1'
_symmetry_Int_Tables_number      2
_space_group_name_Hall           '-P 1'
loop_
_symmetry_equiv_pos_site_id
_symmetry_equiv_pos_as_xyz
1 x,y,z
2 -x,-y,-z
_cell_length_a                   8.616(6)
_cell_length_b                   8.952(9)
_cell_length_c                   17.575(14)
_cell_angle_alpha                83.46(7)
_cell_angle_beta                 87.55(6)
_cell_angle_gamma                76.83(7)
_cell_volume                     1311.13
loop_
_atom_site_label
_atom_site_type_symbol
_atom_site_fract_x
_atom_site_fract_y
_atom_site_fract_z
Co1 Co 1.0000 0.0000 0.0000
Cl1 Cl 1.21187(5) 0.11969(5) -0.05774(3)
N1 N 0.9361(2) 0.1819(2) 0.08231(9)
C1 C 0.8399(2) 0.1679(2) 0.14356(12)
H1 H 0.8083(2) 0.0741(2) 0.15593(12)
C2 C 0.7850(2) 0.2866(2) 0.18957(12)
C3 C 0.8339(3) 0.4240(3) 0.17320(13)
H2 H 0.7990(3) 0.5059(3) 0.20338(13)
C4 C 0.9357(4) 0.4368(3) 0.1110(2)
H3 H 0.9725(4) 0.5279(3) 0.0986(2)
C5 C 0.9833(3) 0.3145(3) 0.06703(13)
H4 H 1.0517(3) 0.3254(3) 0.02467(13)
O1 O 0.6873(2) 0.2713(3) 0.25163(11)
Si1 Si 0.52992(6) 0.19598(6) 0.27097(3)
O2 O 0.3976(2) 0.3343(2) 0.30397(9)
Si2 Si 0.24176(6) 0.46238(6) 0.32637(3)
O3 O 0.1681(2) 0.5756(2) 0.24936(9)
C6 C 0.2341(2) 0.6551(2) 0.19048(11)
C7 C 0.1279(2) 0.7606(2) 0.14176(10)
H5 H 0.0183(2) 0.7766(2) 0.15337(10)
N2 N 0.1753(2) 0.8402(2) 0.07916(9)
C8 C 0.3336(2) 0.8168(2) 0.06403(12)
H6 H 0.3688(2) 0.8711(2) 0.02020(12)
C9 C 0.4462(3) 0.7162(3) 0.11043(15)
H7 H 0.5553(3) 0.7038(3) 0.09814(15)
C10 C 0.3971(2) 0.6337(2) 0.17511(13)
H8 H 0.4717(2) 0.5654(2) 0.20754(13)
C11 C 0.4502(3) 0.1327(3) 0.1862(2)
H9 H 0.5319(3) 0.0463(3) 0.1684(2)
C12 C 0.4119(4) 0.2593(4) 0.1187(2)
H10 H 0.5068(4) 0.2971(4) 0.1036(2)
H11 H 0.3285(4) 0.3436(4) 0.1340(2)
H12 H 0.3761(4) 0.2173(4) 0.0759(2)
C13 C 0.3010(4) 0.0714(4) 0.2110(2)
H13 H 0.3267(4) -0.0084(4) 0.2536(2)
H14 H 0.2649(4) 0.0288(4) 0.1684(2)
H15 H 0.2173(4) 0.1552(4) 0.2266(2)
C14 C 0.5907(4) 0.0386(3) 0.3504(2)
H16 H 0.4968(4) -0.0056(3) 0.3647(2)
C15 C 0.7234(6) -0.0919(4) 0.3231(3)
H17 H 0.6889(6) -0.1274(4) 0.2779(3)
H18 H 0.7459(6) -0.1769(4) 0.3635(3)
H19 H 0.8191(6) -0.0535(4) 0.3108(3)
C16 C 0.6390(6) 0.0992(5) 0.4219(2)
H20 H 0.5530(6) 0.1810(5) 0.4374(2)
H21 H 0.7340(6) 0.1392(5) 0.4104(2)
H22 H 0.6607(6) 0.0158(5) 0.4630(2)
C17 C 0.0774(2) 0.3628(2) 0.35885(12)
H23 H 0.0508(2) 0.3153(2) 0.31438(12)
C18 C 0.1339(4) 0.2299(3) 0.4226(2)
H24 H 0.2312(4) 0.1627(3) 0.4059(2)
H25 H 0.0520(4) 0.1714(3) 0.4331(2)
H26 H 0.1538(4) 0.2722(3) 0.4687(2)
C19 C -0.0762(3) 0.4710(3) 0.3835(2)
H27 H -0.1097(3) 0.5536(3) 0.3428(2)
H28 H -0.0572(3) 0.5144(3) 0.4294(2)
H29 H -0.1590(3) 0.4137(3) 0.3939(2)
C20 C 0.2979(3) 0.5793(3) 0.39799(14)
H30 H 0.2872(3) 0.5238(3) 0.44929(14)
C21 C 0.1844(4) 0.7399(4) 0.3970(2)
H31 H 0.0751(4) 0.7283(4) 0.4027(2)
H32 H 0.1972(4) 0.8007(4) 0.3488(2)
H33 H 0.2095(4) 0.7916(4) 0.4390(2)
C22 C 0.4707(4) 0.5963(5) 0.3890(3)
H34 H 0.5414(4) 0.4950(5) 0.3897(3)
H35 H 0.4962(4) 0.6478(5) 0.4309(3)
H36 H 0.4839(4) 0.6569(5) 0.3408(3)
Cl1A Cl 0.78813(5) -0.11969(5) 0.05774(3)
N1A N 1.0639(2) -0.1819(2) -0.08231(9)
C1A C 1.1601(2) -0.1679(2) -0.14356(12)
H1A H 1.1917(2) -0.0741(2) -0.15593(12)
C2A C 1.2150(2) -0.2866(2) -0.18957(12)
C3A C 1.1661(3) -0.4240(3) -0.17320(13)
H2A H 1.2010(3) -0.5059(3) -0.20338(13)
C4A C 1.0643(4) -0.4368(3) -0.1110(2)
H3A H 1.0275(4) -0.5279(3) -0.0986(2)
C5A C 1.0167(3) -0.3145(3) -0.06703(13)
H4A H 0.9483(3) -0.3254(3) -0.02467(13)
O1A O 1.3127(2) -0.2713(3) -0.25163(11)
Si1A Si 1.47008(6) -0.19598(6) -0.27097(3)
O2A O 1.6024(2) -0.3343(2) -0.30397(9)
Si2A Si 1.75824(6) -0.46238(6) -0.32637(3)
O3A O 1.8319(2) -0.5756(2) -0.24936(9)
C6A C 1.7659(2) -0.6551(2) -0.19048(11)
C7A C 1.8721(2) -0.7606(2) -0.14176(10)
H5A H 1.9817(2) -0.7766(2) -0.15337(10)
N2A N 1.8247(2) -0.8402(2) -0.07916(9)
C8A C 1.6664(2) -0.8168(2) -0.06403(12)
H6A H 1.6312(2) -0.8711(2) -0.02020(12)
C9A C 1.5538(3) -0.7162(3) -0.11043(15)
H7A H 1.4447(3) -0.7038(3) -0.09814(15)
C10A C 1.6029(2) -0.6337(2) -0.17511(13)
H8A H 1.5283(2) -0.5654(2) -0.20754(13)
C11A C 1.5498(3) -0.1327(3) -0.1862(2)
H9A H 1.4681(3) -0.0463(3) -0.1684(2)
C12A C 1.5881(4) -0.2593(4) -0.1187(2)
H10A H 1.4932(4) -0.2971(4) -0.1036(2)
H11A H 1.6715(4) -0.3436(4) -0.1340(2)
H12A H 1.6239(4) -0.2173(4) -0.0759(2)
C13A C 1.6990(4) -0.0714(4) -0.2110(2)
H13A H 1.6733(4) 0.0084(4) -0.2536(2)
H14A H 1.7351(4) -0.0288(4) -0.1684(2)
H15A H 1.7827(4) -0.1552(4) -0.2266(2)
C14A C 1.4093(4) -0.0386(3) -0.3504(2)
H16A H 1.5032(4) 0.0056(3) -0.3647(2)
C15A C 1.2766(6) 0.0919(4) -0.3231(3)
H17A H 1.3111(6) 0.1274(4) -0.2779(3)
H18A H 1.2541(6) 0.1769(4) -0.3635(3)
H19A H 1.1809(6) 0.0535(4) -0.3108(3)
C16A C 1.3610(6) -0.0992(5) -0.4219(2)
H20A H 1.4470(6) -0.1810(5) -0.4374(2)
H21A H 1.2660(6) -0.1392(5) -0.4104(2)
H22A H 1.3393(6) -0.0158(5) -0.4630(2)
C17A C 1.9226(2) -0.3628(2) -0.35885(12)
H23A H 1.9492(2) -0.3153(2) -0.31438(12)
C18A C 1.8661(4) -0.2299(3) -0.4226(2)
H24A H 1.7688(4) -0.1627(3) -0.4059(2)
H25A H 1.9480(4) -0.1714(3) -0.4331(2)
H26A H 1.8462(4) -0.2722(3) -0.4687(2)
C19A C 2.0762(3) -0.4710(3) -0.3835(2)
H27A H 2.1097(3) -0.5536(3) -0.3428(2)
H28A H 2.0572(3) -0.5144(3) -0.4294(2)
H29A H 2.1590(3) -0.4137(3) -0.3939(2)
C20A C 1.7021(3) -0.5793(3) -0.39799(14)
H30A H 1.7128(3) -0.5238(3) -0.44929(14)
C21A C 1.8156(4) -0.7399(4) -0.3970(2)
H31A H 1.9249(4) -0.7283(4) -0.4027(2)
H32A H 1.8028(4) -0.8007(4) -0.3488(2)
H33A H 1.7905(4) -0.7916(4) -0.4390(2)
C22A C 1.5293(4) -0.5963(5) -0.3890(3)
H34A H 1.4586(4) -0.4950(5) -0.3897(3)
H35A H 1.5038(4) -0.6478(5) -0.4309(3)
H36A H 1.5161(4) -0.6569(5) -0.3408(3)
N2_2 N 1.1753(2) -0.1598(2) 0.07916(9)
N2A_2 N 0.8247(2) 0.1598(2) -0.07916(9)
Co1_2 Co 0.0000 1.0000 0.0000
Co1_3 Co 2.0000 -1.0000 0.0000
loop_
_geom_bond_atom_site_label_1
_geom_bond_atom_site_label_2
_geom_bond_site_symmetry_1
_geom_bond_site_symmetry_2
Co1 Cl1 1_555 1_555
N1 Co1 1_555 1_555
C1 N1 1_555 1_555
H1 C1 1_555 1_555
C2 C1 1_555 1_555
C3 C2 1_555 1_555
H2 C3 1_555 1_555
C4 C3 1_555 1_555
H3 C4 1_555 1_555
C5 N1 1_555 1_555
H4 C5 1_555 1_555
O1 C2 1_555 1_555
Si1 O1 1_555 1_555
O2 Si1 1_555 1_555
Si2 O2 1_555 1_555
O3 Si2 1_555 1_555
C6 O3 1_555 1_555
C7 C6 1_555 1_555
H5 C7 1_555 1_555
N2 C7 1_555 1_555
C8 N2 1_555 1_555
H6 C8 1_555 1_555
C9 C8 1_555 1_555
H7 C9 1_555 1_555
C10 C6 1_555 1_555
H8 C10 1_555 1_555
C11 Si1 1_555 1_555
H9 C11 1_555 1_555
C12 C11 1_555 1_555
H10 C12 1_555 1_555
H11 C12 1_555 1_555
H12 C12 1_555 1_555
C13 C11 1_555 1_555
H13 C13 1_555 1_555
H14 C13 1_555 1_555
H15 C13 1_555 1_555
C14 Si1 1_555 1_555
H16 C14 1_555 1_555
C15 C14 1_555 1_555
H17 C15 1_555 1_555
H18 C15 1_555 1_555
H19 C15 1_555 1_555
C16 C14 1_555 1_555
H20 C16 1_555 1_555
H21 C16 1_555 1_555
H22 C16 1_555 1_555
C17 Si2 1_555 1_555
H23 C17 1_555 1_555
C18 C17 1_555 1_555
H24 C18 1_555 1_555
H25 C18 1_555 1_555
H26 C18 1_555 1_555
C19 C17 1_555 1_555
H27 C19 1_555 1_555
H28 C19 1_555 1_555
H29 C19 1_555 1_555
C20 Si2 1_555 1_555
H30 C20 1_555 1_555
C21 C20 1_555 1_555
H31 C21 1_555 1_555
H32 C21 1_555 1_555
H33 C21 1_555 1_555
C22 C20 1_555 1_555
H34 C22 1_555 1_555
H35 C22 1_555 1_555
H36 C22 1_555 1_555
Cl1A Co1 1_555 1_555
N1A Co1 1_555 1_555
C1A N1A 1_555 1_555
H1A C1A 1_555 1_555
C2A C1A 1_555 1_555
C3A C2A 1_555 1_555
H2A C3A 1_555 1_555
C4A C3A 1_555 1_555
H3A C4A 1_555 1_555
C5A N1A 1_555 1_555
H4A C5A 1_555 1_555
O1A C2A 1_555 1_555
Si1A O1A 1_555 1_555
O2A Si1A 1_555 1_555
Si2A O2A 1_555 1_555
O3A Si2A 1_555 1_555
C6A O3A 1_555 1_555
C7A C6A 1_555 1_555
H5A C7A 1_555 1_555
N2A C7A 1_555 1_555
C8A N2A 1_555 1_555
H6A C8A 1_555 1_555
C9A C8A 1_555 1_555
H7A C9A 1_555 1_555
C10A C6A 1_555 1_555
H8A C10A 1_555 1_555
C11A Si1A 1_555 1_555
H9A C11A 1_555 1_555
C12A C11A 1_555 1_555
H10A C12A 1_555 1_555
H11A C12A 1_555 1_555
H12A C12A 1_555 1_555
C13A C11A 1_555 1_555
H13A C13A 1_555 1_555
H14A C13A 1_555 1_555
H15A C13A 1_555 1_555
C14A Si1A 1_555 1_555
H16A C14A 1_555 1_555
C15A C14A 1_555 1_555
H17A C15A 1_555 1_555
H18A C15A 1_555 1_555
H19A C15A 1_555 1_555
C16A C14A 1_555 1_555
H20A C16A 1_555 1_555
H21A C16A 1_555 1_555
H22A C16A 1_555 1_555
C17A Si2A 1_555 1_555
H23A C17A 1_555 1_555
C18A C17A 1_555 1_555
H24A C18A 1_555 1_555
H25A C18A 1_555 1_555
H26A C18A 1_555 1_555
C19A C17A 1_555 1_555
H27A C19A 1_555 1_555
H28A C19A 1_555 1_555
H29A C19A 1_555 1_555
C20A Si2A 1_555 1_555
H30A C20A 1_555 1_555
C21A C20A 1_555 1_555
H31A C21A 1_555 1_555
H32A C21A 1_555 1_555
H33A C21A 1_555 1_555
C22A C20A 1_555 1_555
H34A C22A 1_555 1_555
H35A C22A 1_555 1_555
H36A C22A 1_555 1_555
N2_2 Co1 1_555 1_555
N2A_2 Co1 1_555 1_555
Co1_2 N2 1_555 1_555
Co1_3 N2A 1_555 1_555
C4 C5 1_555 1_555
C9 C10 1_555 1_555
C4A C5A 1_555 1_555
C9A C10A 1_555 1_555

#END
