
#######################################################################
#
#                 Cambridge Crystallographic Data Centre
#                                CCDC 
#
#######################################################################
#
# If this CIF has been generated from an entry in the Cambridge 
# Structural Database, then it will include bibliographic, chemical, 
# crystal, experimental, refinement or atomic coordinate data resulting 
# from the CCDC's data processing and validation procedures.
#
#######################################################################

data_WUVCUL
_symmetry_cell_setting           monoclinic
_symmetry_space_group_name_H-M   'P 21/n'
_symmetry_Int_Tables_number      14
_space_group_name_Hall           '-P 2yn'
loop_
_symmetry_equiv_pos_site_id
_symmetry_equiv_pos_as_xyz
1 x,y,z
2 1/2+x,1/2-y,1/2+z
3 -x,-y,-z
4 1/2-x,1/2+y,1/2-z
_cell_length_a                   8.570(2)
_cell_length_b                   16.946(3)
_cell_length_c                   19.057(5)
_cell_angle_alpha                90
_cell_angle_beta                 90.00(3)
_cell_angle_gamma                90
_cell_volume                     2767.6
loop_
_atom_site_label
_atom_site_type_symbol
_atom_site_fract_x
_atom_site_fract_y
_atom_site_fract_z
Cu1 Cu 0.46746(7) 0.90382(3) 0.02583(3)
Cl1 Cl 0.61819(12) 1.00288(5) 0.07789(5)
Cl2 Cl 0.33841(12) 0.79319(6) -0.00675(6)
N1 N 0.2948(4) 0.9335(2) 0.0929(2)
C1 C 0.3238(5) 0.9372(2) 0.1620(2)
H1 H 0.4267(5) 0.9277(2) 0.1785(2)
C2 C 0.2056(5) 0.9547(2) 0.2103(2)
C3 C 0.0570(5) 0.9713(2) 0.1855(2)
H2 H -0.0246(5) 0.9847(2) 0.2170(2)
C4 C 0.0294(6) 0.9680(3) 0.1137(2)
H3 H -0.0717(6) 0.9789(3) 0.0957(2)
C5 C 0.1508(5) 0.9486(2) 0.0685(2)
H4 H 0.1316(5) 0.9461(2) 0.0194(2)
O1 O 0.2399(4) 0.9599(2) 0.27993(15)
Si1 Si 0.31357(14) 0.89570(6) 0.33658(5)
O2 O 0.3815(4) 0.8221(2) 0.29157(14)
Si2 Si 0.43179(13) 0.73534(6) 0.26309(5)
O3 O 0.3425(4) 0.6679(2) 0.31209(14)
C6 C 0.3279(5) 0.6675(2) 0.3835(2)
C7 C 0.1891(5) 0.6395(2) 0.4114(2)
H5 H 0.1097(5) 0.6219(2) 0.3804(2)
N2 N 0.1632(4) 0.6367(2) 0.4805(2)
C8 C 0.2776(5) 0.6624(2) 0.5240(2)
H6 H 0.2596(5) 0.6614(2) 0.5732(2)
C9 C 0.4181(5) 0.6899(2) 0.5000(2)
H7 H 0.4958(5) 0.7076(2) 0.5319(2)
C10 C 0.4447(5) 0.6915(2) 0.4282(2)
H8 H 0.5422(5) 0.7089(2) 0.4102(2)
C11 C 0.1519(6) 0.8626(2) 0.3946(2)
H9 H 0.1939(6) 0.8200(2) 0.4257(2)
C12 C 0.0194(6) 0.8266(3) 0.3507(3)
H10 H 0.0615(6) 0.7847(3) 0.3207(3)
H11 H -0.0277(6) 0.8677(3) 0.3213(3)
H12 H -0.0600(6) 0.8044(3) 0.3820(3)
C13 C 0.0894(9) 0.9281(3) 0.4419(3)
H13 H 0.1753(9) 0.9503(3) 0.4695(3)
H14 H 0.0103(9) 0.9063(3) 0.4736(3)
H15 H 0.0426(9) 0.9696(3) 0.4130(3)
C14 C 0.4714(7) 0.9502(3) 0.3824(3)
H16 H 0.4232(7) 0.9987(3) 0.4030(3)
C15 C 0.5998(9) 0.9779(5) 0.3311(4)
H17 H 0.5520(9) 1.0073(5) 0.2924(4)
H18 H 0.6552(9) 0.9319(5) 0.3124(4)
H19 H 0.6736(9) 1.0121(5) 0.3559(4)
C16 C 0.5458(9) 0.9040(4) 0.4432(3)
H20 H 0.4641(9) 0.8865(4) 0.4756(3)
H21 H 0.6196(9) 0.9381(4) 0.4681(3)
H22 H 0.6011(9) 0.8579(4) 0.4245(3)
C17 C 0.6505(5) 0.7304(3) 0.2710(2)
H23 H 0.6798(5) 0.7608(3) 0.3141(2)
C18 C 0.7188(7) 0.6477(3) 0.2791(3)
H24 H 0.6707(7) 0.6215(3) 0.3195(3)
H25 H 0.8318(7) 0.6514(3) 0.2864(3)
H26 H 0.6979(7) 0.6170(3) 0.2365(3)
C19 C 0.7230(6) 0.7736(3) 0.2082(3)
H27 H 0.6773(6) 0.8264(3) 0.2042(3)
H28 H 0.7021(6) 0.7437(3) 0.1652(3)
H29 H 0.8360(6) 0.7781(3) 0.2151(3)
C20 C 0.3517(5) 0.7181(2) 0.1736(2)
H30 H 0.3950(5) 0.7605(2) 0.1428(2)
C21 C 0.4037(8) 0.6389(3) 0.1418(3)
H31 H 0.5177(8) 0.6347(3) 0.1440(3)
H32 H 0.3698(8) 0.6360(3) 0.0928(3)
H33 H 0.3567(8) 0.5954(3) 0.1684(3)
C22 C 0.1749(7) 0.7254(4) 0.1706(3)
H34 H 0.1430(7) 0.7760(4) 0.1909(3)
H35 H 0.1273(7) 0.6822(4) 0.1972(3)
H36 H 0.1404(7) 0.7228(4) 0.1216(3)
Cl1B Cl 0.38181(12) 0.99712(5) -0.07789(5)
N2A N 0.6632(4) 0.8633(2) -0.0195(2)
Cu1B Cu 0.53254(7) 1.09618(3) -0.02583(3)
Cu1A Cu -0.03254(7) 0.59618(3) 0.52583(3)
loop_
_geom_bond_atom_site_label_1
_geom_bond_atom_site_label_2
_geom_bond_site_symmetry_1
_geom_bond_site_symmetry_2
Cu1 Cl1 1_555 1_555
Cl1 Cu1B 1_555 1_555
Cl2 Cu1 1_555 1_555
N1 Cu1 1_555 1_555
C1 N1 1_555 1_555
H1 C1 1_555 1_555
C2 C1 1_555 1_555
C3 C2 1_555 1_555
H2 C3 1_555 1_555
C4 C3 1_555 1_555
H3 C4 1_555 1_555
C5 N1 1_555 1_555
H4 C5 1_555 1_555
O1 C2 1_555 1_555
Si1 O1 1_555 1_555
O2 Si1 1_555 1_555
Si2 O2 1_555 1_555
O3 Si2 1_555 1_555
C6 O3 1_555 1_555
C7 C6 1_555 1_555
H5 C7 1_555 1_555
N2 C7 1_555 1_555
C8 N2 1_555 1_555
H6 C8 1_555 1_555
C9 C8 1_555 1_555
H7 C9 1_555 1_555
C10 C6 1_555 1_555
H8 C10 1_555 1_555
C11 Si1 1_555 1_555
H9 C11 1_555 1_555
C12 C11 1_555 1_555
H10 C12 1_555 1_555
H11 C12 1_555 1_555
H12 C12 1_555 1_555
C13 C11 1_555 1_555
H13 C13 1_555 1_555
H14 C13 1_555 1_555
H15 C13 1_555 1_555
C14 Si1 1_555 1_555
H16 C14 1_555 1_555
C15 C14 1_555 1_555
H17 C15 1_555 1_555
H18 C15 1_555 1_555
H19 C15 1_555 1_555
C16 C14 1_555 1_555
H20 C16 1_555 1_555
H21 C16 1_555 1_555
H22 C16 1_555 1_555
C17 Si2 1_555 1_555
H23 C17 1_555 1_555
C18 C17 1_555 1_555
H24 C18 1_555 1_555
H25 C18 1_555 1_555
H26 C18 1_555 1_555
C19 C17 1_555 1_555
H27 C19 1_555 1_555
H28 C19 1_555 1_555
H29 C19 1_555 1_555
C20 Si2 1_555 1_555
H30 C20 1_555 1_555
C21 C20 1_555 1_555
H31 C21 1_555 1_555
H32 C21 1_555 1_555
H33 C21 1_555 1_555
C22 C20 1_555 1_555
H34 C22 1_555 1_555
H35 C22 1_555 1_555
H36 C22 1_555 1_555
Cl1B Cu1 1_555 1_555
N2A Cu1 1_555 1_555
Cu1B Cl1B 1_555 1_555
Cu1A N2 1_555 1_555
C4 C5 1_555 1_555
C9 C10 1_555 1_555

#END
