
#######################################################################
#
#                 Cambridge Crystallographic Data Centre
#                                CCDC 
#
#######################################################################
#
# If this CIF has been generated from an entry in the Cambridge 
# Structural Database, then it will include bibliographic, chemical, 
# crystal, experimental, refinement or atomic coordinate data resulting 
# from the CCDC's data processing and validation procedures.
#
#######################################################################

data_WUVCEW
_symmetry_cell_setting           orthorhombic
_symmetry_space_group_name_H-M   'P 21 c n'
_symmetry_Int_Tables_number      33
_space_group_name_Hall           'P -2n 2a'
loop_
_symmetry_equiv_pos_site_id
_symmetry_equiv_pos_as_xyz
1 x,y,z
2 1/2+x,1/2+y,1/2-z
3 1/2+x,-y,-z
4 x,1/2-y,1/2+z
_cell_length_a                   7.614(4)
_cell_length_b                   20.703(8)
_cell_length_c                   15.326(7)
_cell_angle_alpha                90
_cell_angle_beta                 90
_cell_angle_gamma                90
_cell_volume                     2415.88
loop_
_atom_site_label
_atom_site_type_symbol
_atom_site_fract_x
_atom_site_fract_y
_atom_site_fract_z
Cu1 Cu 0.25781(6) 0.663467(11) 0.009380(16)
N1 N 0.1592(3) 0.69793(10) 0.12348(14)
N2 N 0.2912(3) 0.75628(10) -0.00563(12)
N3 N 0.3887(3) 0.66618(9) -0.10507(14)
O1 O 0.2683(4) 0.57160(7) 0.03015(11)
O2 O 0.4965(3) 0.34593(9) 0.05829(12)
C1 C 0.0890(4) 0.67892(15) 0.19843(19)
C2 C 0.0408(4) 0.73172(16) 0.2476(2)
C3 C 0.0809(4) 0.78616(14) 0.20197(18)
N4 N 0.1552(3) 0.76475(10) 0.12548(13)
C4 C 0.2307(4) 0.79723(11) 0.05469(16)
C5 C 0.2464(6) 0.86302(12) 0.04523(19)
C6 C 0.3293(5) 0.88506(14) -0.0289(2)
C7 C 0.3943(5) 0.84357(13) -0.0912(2)
C8 C 0.3722(4) 0.77846(12) -0.07700(17)
N5 N 0.4295(3) 0.72811(10) -0.13096(13)
C9 C 0.5170(4) 0.72774(15) -0.20947(18)
C10 C 0.5313(4) 0.66476(15) -0.2327(2)
C11 C 0.4500(4) 0.62813(13) -0.16794(18)
C12 C 0.0663(7) 0.60933(18) 0.2197(3)
C13 C 0.0474(6) 0.85513(18) 0.2234(3)
C14 C 0.5795(5) 0.78631(17) -0.2563(2)
C15 C 0.4250(5) 0.55660(14) -0.1650(2)
H1 H 0.3431 0.5459 -0.1196
H2 H 0.5355 0.5360 -0.1534
H3 H 0.3802 0.5419 -0.2200
C16 C 0.3909(3) 0.55079(12) 0.08024(17)
O3 O 0.4934(3) 0.58669(9) 0.11981(13)
C17 C 0.4068(4) 0.47842(13) 0.09000(19)
C18 C 0.3302(5) 0.43948(14) 0.01648(19)
H4 H 0.2041 0.4460 0.0158
H5 H 0.3763 0.4560 -0.0381
C19 C 0.3660(4) 0.36846(13) 0.02055(16)
N6 N 0.2541(7) 0.33144(11) -0.02212(17)
H6 H -0.010(5) 0.7364(15) 0.295(2)
H7 H 0.212(5) 0.8899(17) 0.090(2)
H8 H 0.342(5) 0.9294(17) -0.042(2)
H9 H 0.460(4) 0.8567(16) -0.134(2)
H10 H 0.588(5) 0.6509(16) -0.280(2)
H11 H 0.060(4) 0.5874(18) 0.174(3)
H12 H -0.016(8) 0.600(3) 0.258(4)
H13 H 0.169(10) 0.596(3) 0.236(4)
H14 H 0.153(6) 0.8799(19) 0.225(2)
H15 H -0.039(5) 0.8738(19) 0.186(3)
H16 H -0.002(5) 0.8545(18) 0.277(3)
H17 H 0.655(5) 0.8097(17) -0.220(2)
H18 H 0.478(5) 0.8159(18) -0.282(2)
H19 H 0.649(6) 0.7716(19) -0.309(3)
H20 H 0.520(4) 0.4685(14) 0.0984(19)
H21 H 0.331(5) 0.4644(16) 0.148(3)
H22 H 0.264(6) 0.2894(17) -0.0213(18)
H23 H 0.152(5) 0.3530(17) -0.047(2)
Cu1B Cu 0.75781(6) 0.336533(11) -0.009380(16)
O2B O -0.0035(3) 0.65407(9) -0.05829(12)
N7 N 0.2871(6) 0.34256(12) 0.49595(16)
O4 O 0.2337(5) 0.31014(11) 0.43493(17)
O5 O 0.3041(4) 0.40201(11) 0.48671(16)
O6 O 0.3243(5) 0.31749(14) 0.56586(19)
O7 O 0.2026(5) 0.47489(17) 0.3413(3)
H24 H 0.224(6) 0.4552(19) 0.374(3)
H25 H 0.292(8) 0.487(2) 0.324(3)
O8 O -0.1524(5) 0.51051(15) 0.3759(2)
H26 H -0.039(6) 0.501(2) 0.365(3)
H27 H -0.154(6) 0.5354(18) 0.407(3)
O9 O -0.4716(5) 0.53321(16) 0.2906(2)
H28 H -0.375(6) 0.525(2) 0.307(3)
H29 H -0.451(7) 0.547(3) 0.245(4)
loop_
_geom_bond_atom_site_label_1
_geom_bond_atom_site_label_2
_geom_bond_site_symmetry_1
_geom_bond_site_symmetry_2
Cu1 N1 1_555 1_555
N1 C1 1_555 1_555
N2 Cu1 1_555 1_555
N3 Cu1 1_555 1_555
O1 Cu1 1_555 1_555
O2 C19 1_555 1_555
C1 C2 1_555 1_555
C2 C3 1_555 1_555
C3 N4 1_555 1_555
N4 N1 1_555 1_555
C4 N2 1_555 1_555
C5 C4 1_555 1_555
C6 C5 1_555 1_555
C7 C6 1_555 1_555
C8 N2 1_555 1_555
N5 N3 1_555 1_555
C9 N5 1_555 1_555
C10 C9 1_555 1_555
C11 N3 1_555 1_555
C12 C1 1_555 1_555
C13 C3 1_555 1_555
C14 C9 1_555 1_555
C15 C11 1_555 1_555
H1 C15 1_555 1_555
H2 C15 1_555 1_555
H3 C15 1_555 1_555
C16 O1 1_555 1_555
O3 C16 1_555 1_555
C17 C16 1_555 1_555
C18 C17 1_555 1_555
H4 C18 1_555 1_555
H5 C18 1_555 1_555
C19 C18 1_555 1_555
N6 C19 1_555 1_555
N7 O4 1_555 1_555
O5 N7 1_555 1_555
O6 N7 1_555 1_555
O7 H24 1_555 1_555
O8 H26 1_555 1_555
O9 H28 1_555 1_555
H6 C2 1_555 1_555
H7 C5 1_555 1_555
H8 C6 1_555 1_555
H9 C7 1_555 1_555
H10 C10 1_555 1_555
H11 C12 1_555 1_555
H12 C12 1_555 1_555
H13 C12 1_555 1_555
H14 C13 1_555 1_555
H15 C13 1_555 1_555
H16 C13 1_555 1_555
H17 C14 1_555 1_555
H18 C14 1_555 1_555
H19 C14 1_555 1_555
H20 C17 1_555 1_555
H21 C17 1_555 1_555
H22 N6 1_555 1_555
H23 N6 1_555 1_555
H25 O7 1_555 1_555
H27 O8 1_555 1_555
H29 O9 1_555 1_555
Cu1B O2 1_555 1_555
O2B Cu1 1_555 1_555
N4 C4 1_555 1_555
C7 C8 1_555 1_555
C8 N5 1_555 1_555
C10 C11 1_555 1_555

#END
