
#######################################################################
#
#                 Cambridge Crystallographic Data Centre
#                                CCDC 
#
#######################################################################
#
# If this CIF has been generated from an entry in the Cambridge 
# Structural Database, then it will include bibliographic, chemical, 
# crystal, experimental, refinement or atomic coordinate data resulting 
# from the CCDC's data processing and validation procedures.
#
#######################################################################

data_WUVGOJ
_symmetry_cell_setting           triclinic
_symmetry_space_group_name_H-M   'P -1'
_symmetry_Int_Tables_number      2
_space_group_name_Hall           '-P 1'
loop_
_symmetry_equiv_pos_site_id
_symmetry_equiv_pos_as_xyz
1 x,y,z
2 -x,-y,-z
_cell_length_a                   6.2250(12)
_cell_length_b                   7.0090(14)
_cell_length_c                   15.469(3)
_cell_angle_alpha                90.73(3)
_cell_angle_beta                 97.41(3)
_cell_angle_gamma                98.39(3)
_cell_volume                     661.786
loop_
_atom_site_label
_atom_site_type_symbol
_atom_site_fract_x
_atom_site_fract_y
_atom_site_fract_z
Cu1 Cu 0.5000 0.5000 0.0000
Cu2 Cu 0.08596(9) 0.53415(8) 0.23740(4)
P1 P 0.57449(19) 0.57947(18) 0.19932(8)
P2 P 0.28412(19) 0.80233(18) 0.09133(8)
O1 O 0.5317(7) 0.4411(6) 0.1216(2)
O2 O 0.0167(7) 0.2982(6) 0.1388(3)
H1 H 0.1213 0.2482 0.1139
H2 H -0.0759 0.3601 0.1032
O3 O 0.4020(5) 0.5397(5) 0.2612(2)
O4 O 0.8009(5) 0.5934(5) 0.2505(2)
O5 O 0.2803(6) 0.6700(5) 0.0139(2)
O6 O 0.1152(5) 0.7477(5) 0.1529(2)
O7 O 0.2505(6) 1.0080(5) 0.0598(2)
H3 H 0.2749 1.0185 0.0005
O8 O 0.7123(6) 0.8493(6) 0.0924(2)
H4 H 0.8556 0.8458 0.1216
C1 C 0.5549(7) 0.8167(7) 0.1544(3)
C2 C 0.5974(10) 0.9798(7) 0.2248(4)
H5 H 0.7411 0.9825 0.2565
H6 H 0.4900 0.9575 0.2642
H7 H 0.5878 1.1012 0.1976
N1 N 0.0593(14) 0.3466(10) 0.3352(5)
C3 C -0.0581(13) 0.3693(9) 0.3999(5)
H8 H -0.1266 0.4832 0.4015
C4 C -0.0862(13) 0.2387(12) 0.4645(5)
H9 H -0.1732 0.2620 0.5093
C5 C 0.0123(15) 0.0717(11) 0.4646(5)
C6 C 0.1356(13) 0.0492(10) 0.3967(5)
H10 H 0.2075 -0.0623 0.3934
C7 C 0.1534(12) 0.1874(11) 0.3348(4)
H11 H 0.2382 0.1683 0.2886
C5A C -0.0123(15) -0.0717(11) 0.5354(5)
C4A C 0.0862(13) -0.2387(12) 0.5355(5)
C3A C 0.0581(13) -0.3693(9) 0.6001(5)
N1A N -0.0593(14) -0.3466(10) 0.6648(5)
C7A C -0.1534(12) -0.1874(11) 0.6652(4)
C6A C -0.1356(13) -0.0492(10) 0.6033(5)
H10A H -0.2075 0.0623 0.6066
H11A H -0.2382 -0.1683 0.7114
H8A H 0.1266 -0.4832 0.5985
H9A H 0.1732 -0.2620 0.4907
P1A P 0.42551(19) 0.42053(18) -0.19932(8)
P2A P 0.71588(19) 0.19767(18) -0.09133(8)
O1A O 0.4683(7) 0.5589(6) -0.1216(2)
O3A O 0.5980(5) 0.4603(5) -0.2612(2)
O4A O 0.1991(5) 0.4066(5) -0.2505(2)
O5A O 0.7197(6) 0.3300(5) -0.0139(2)
O6A O 0.8848(5) 0.2523(5) -0.1529(2)
O7A O 0.7495(6) -0.0080(5) -0.0598(2)
H3A H 0.7251 -0.0185 -0.0005
O8A O 0.2877(6) 0.1507(6) -0.0924(2)
H4A H 0.1444 0.1542 -0.1216
C1A C 0.4451(7) 0.1833(7) -0.1544(3)
C2A C 0.4026(10) 0.0202(7) -0.2248(4)
H5A H 0.2589 0.0175 -0.2565
H6A H 0.5100 0.0425 -0.2642
H7A H 0.4122 -0.1012 -0.1976
Cu2A Cu 0.91404(9) 0.46585(8) -0.23740(4)
O2A O 0.9833(7) 0.7018(6) -0.1388(3)
H1A H 0.8787 0.7518 -0.1139
H2A H 1.0759 0.6399 -0.1032
O4_2 O -0.1991(5) 0.5934(5) 0.2505(2)
Cu2_2 Cu 1.08596(9) 0.53415(8) 0.23740(4)
Cu2A_2 Cu -0.08596(9) -0.53415(8) 0.76260(4)
Cu2A_3 Cu -0.08596(9) 0.46585(8) -0.23740(4)
O4A_2 O 1.1991(5) 0.4066(5) -0.2505(2)
N1A_2 N 0.9407(14) 0.6534(10) -0.3352(5)
O9 O 0.5095(19) 0.696(2) 0.4300(8)
N2? N -0.0556(13) -0.3465(11) 0.6639(5)
C8? C 0.1063(11) -0.3375(10) 0.6147(5)
H12? H 0.2083 -0.4277 0.6248
C9? C 0.1350(11) -0.2064(12) 0.5504(5)
H13? H 0.2540 -0.2069 0.5167
C10? C -0.0098(14) -0.0720(11) 0.5343(5)
C11? C -0.1786(12) -0.0821(10) 0.5863(5)
H14? H -0.2830 0.0066 0.5785
C12? C -0.1948(11) -0.2192(12) 0.6488(5)
H15? H -0.3126 -0.2237 0.6834
O10? O 0.504(2) 0.626(2) 0.4424(8)
loop_
_geom_bond_atom_site_label_1
_geom_bond_atom_site_label_2
_geom_bond_site_symmetry_1
_geom_bond_site_symmetry_2
Cu1 O1 1_555 1_555
Cu2 O2 1_555 1_555
P1 O1 1_555 1_555
P2 O5 1_555 1_555
O2 H1 1_555 1_555
H2 O2 1_555 1_555
O3 Cu2 1_555 1_555
O4 P1 1_555 1_555
O5 Cu1 1_555 1_555
O6 Cu2 1_555 1_555
O7 P2 1_555 1_555
H3 O7 1_555 1_555
O8 H4 1_555 1_555
C1 P1 1_555 1_555
C2 C1 1_555 1_555
H5 C2 1_555 1_555
H6 C2 1_555 1_555
H7 C2 1_555 1_555
N1 Cu2 1_555 1_555
C3 N1 1_555 1_555
H8 C3 1_555 1_555
C4 C3 1_555 1_555
H9 C4 1_555 1_555
C5 C4 1_555 1_555
C6 C5 1_555 1_555
H10 C6 1_555 1_555
C7 N1 1_555 1_555
H11 C7 1_555 1_555
C5A C5 1_555 1_555
C4A C5A 1_555 1_555
C3A C4A 1_555 1_555
N1A C3A 1_555 1_555
C7A N1A 1_555 1_555
C6A C5A 1_555 1_555
H10A C6A 1_555 1_555
H11A C7A 1_555 1_555
H8A C3A 1_555 1_555
H9A C4A 1_555 1_555
P1A O1A 1_555 1_555
P2A O5A 1_555 1_555
O1A Cu1 1_555 1_555
O3A P1A 1_555 1_555
O4A P1A 1_555 1_555
O5A Cu1 1_555 1_555
O6A P2A 1_555 1_555
O7A P2A 1_555 1_555
H3A O7A 1_555 1_555
O8A H4A 1_555 1_555
C1A P1A 1_555 1_555
C2A C1A 1_555 1_555
H5A C2A 1_555 1_555
H6A C2A 1_555 1_555
H7A C2A 1_555 1_555
Cu2A O3A 1_555 1_555
O2A Cu2A 1_555 1_555
H1A O2A 1_555 1_555
H2A O2A 1_555 1_555
O4_2 Cu2 1_555 1_555
Cu2_2 O4 1_555 1_555
Cu2A_2 N1A 1_555 1_555
Cu2A_3 O4A 1_555 1_555
O4A_2 Cu2A 1_555 1_555
N1A_2 Cu2A 1_555 1_555
P1 O3 1_555 1_555
P2 C1 1_555 1_555
P2 O6 1_555 1_555
O8 C1 1_555 1_555
C6 C7 1_555 1_555
C7A C6A 1_555 1_555
P2A C1A 1_555 1_555
O6A Cu2A 1_555 1_555
O8A C1A 1_555 1_555

#END
