
#######################################################################
#
#                 Cambridge Crystallographic Data Centre
#                                CCDC 
#
#######################################################################
#
# If this CIF has been generated from an entry in the Cambridge 
# Structural Database, then it will include bibliographic, chemical, 
# crystal, experimental, refinement or atomic coordinate data resulting 
# from the CCDC's data processing and validation procedures.
#
#######################################################################

data_WUVGUP
_symmetry_cell_setting           triclinic
_symmetry_space_group_name_H-M   'P -1'
_symmetry_Int_Tables_number      2
_space_group_name_Hall           '-P 1'
loop_
_symmetry_equiv_pos_site_id
_symmetry_equiv_pos_as_xyz
1 x,y,z
2 -x,-y,-z
_cell_length_a                   6.2097(9)
_cell_length_b                   7.0149(10)
_cell_length_c                   16.081(3)
_cell_angle_alpha                99.085(3)
_cell_angle_beta                 94.852(3)
_cell_angle_gamma                97.937(3)
_cell_volume                     681.016
loop_
_atom_site_label
_atom_site_type_symbol
_atom_site_fract_x
_atom_site_fract_y
_atom_site_fract_z
Cu1 Cu 0.5000 0.5000 0.5000
Cu2 Cu 0.07574(8) 0.61069(8) 0.73167(3)
P1 P 0.27910(19) 0.83113(18) 0.58921(7)
P2 P 0.56558(19) 0.64245(18) 0.69394(7)
O1 O 0.2777(6) 0.6728(5) 0.5143(2)
O2 O 0.0101(6) 0.3457(6) 0.6348(2)
H1 H 0.1427 0.3103 0.6163
H2 H -0.0876 0.3702 0.5904
O3 O 0.1091(5) 0.7996(5) 0.6491(2)
O4 O 0.2454(6) 1.0277(5) 0.5587(2)
H3 H 0.2905 1.0274 0.5070
O5 O 0.5301(6) 0.4793(5) 0.6186(2)
O6 O 0.3893(5) 0.6248(5) 0.75401(19)
O7 O 0.7878(5) 0.6725(5) 0.7439(2)
O8 O 0.7049(5) 0.8718(5) 0.5879(2)
H4 H 0.840(4) 0.882(8) 0.613(3)
N1 N -0.073(2) 0.0513(18) 0.9936(8)
C1 C 0.5480(7) 0.8661(7) 0.6500(3)
C2 C 0.5894(9) 1.0500(8) 0.7162(3)
H5 H 0.5784 1.1614 0.6892
H6 H 0.7332 1.0629 0.7455
H7 H 0.4827 1.0422 0.7559
N3 N 0.0484(12) 0.4585(10) 0.8307(4)
C3 C 0.1837(10) 0.3278(11) 0.8396(5)
H8 H 0.3064 0.3281 0.8071
C4 C 0.1556(12) 0.1941(10) 0.8927(5)
H9 H 0.2556 0.1024 0.8969
C5 C -0.0210(13) 0.1938(11) 0.9404(5)
C6 C -0.1617(11) 0.3277(13) 0.9314(5)
H10 H -0.2871 0.3294 0.9624
C7 C -0.1191(11) 0.4577(11) 0.8776(5)
H11 H -0.2144 0.5532 0.8734
N1A N 0.073(2) -0.0513(18) 1.0064(8)
C5A C 0.0210(13) -0.1938(11) 1.0596(5)
C4A C -0.1556(12) -0.1941(10) 1.1073(5)
C3A C -0.1837(10) -0.3278(11) 1.1604(5)
N3A N -0.0484(12) -0.4585(10) 1.1693(4)
C7A C 0.1191(11) -0.4577(11) 1.1224(5)
C6A C 0.1617(11) -0.3277(13) 1.0686(5)
H10A H 0.2871 -0.3294 1.0376
H11A H 0.2144 -0.5532 1.1266
H8A H -0.3064 -0.3281 1.1929
H9A H -0.2556 -0.1024 1.1031
P1A P 0.72090(19) 0.16887(18) 0.41079(7)
P2A P 0.43442(19) 0.35755(18) 0.30606(7)
O1A O 0.7223(6) 0.3272(5) 0.4857(2)
O3A O 0.8909(5) 0.2004(5) 0.3509(2)
O4A O 0.7546(6) -0.0277(5) 0.4413(2)
H3A H 0.7095 -0.0274 0.4930
O5A O 0.4699(6) 0.5207(5) 0.3814(2)
O6A O 0.6107(5) 0.3752(5) 0.24599(19)
O7A O 0.2122(5) 0.3275(5) 0.2561(2)
O8A O 0.2951(5) 0.1282(5) 0.4121(2)
H4A H 0.160(4) 0.118(8) 0.387(3)
C1A C 0.4520(7) 0.1339(7) 0.3500(3)
C2A C 0.4106(9) -0.0500(8) 0.2838(3)
H5A H 0.4216 -0.1614 0.3108
H6A H 0.2668 -0.0629 0.2545
H7A H 0.5173 -0.0422 0.2441
Cu2A Cu 0.92426(8) 0.38931(8) 0.26833(3)
O2A O 0.9899(6) 0.6543(6) 0.3652(2)
H1A H 0.8573 0.6897 0.3837
H2A H 1.0876 0.6298 0.4096
O7_2 O -0.2122(5) 0.6725(5) 0.7439(2)
Cu2_2 Cu 1.07574(8) 0.61069(8) 0.73167(3)
Cu2A_2 Cu -0.07574(8) -0.61069(8) 1.26833(3)
Cu2A_3 Cu -0.07574(8) 0.38931(8) 0.26833(3)
O7A_2 O 1.2122(5) 0.3275(5) 0.2561(2)
N3A_2 N 0.9516(12) 0.5415(10) 0.1693(4)
O10 O -0.4595(18) 0.1865(17) 1.0770(7)
N2? N -0.0844(18) 0.0081(17) 0.9746(7)
N4? N 0.0301(13) 0.4231(10) 0.8177(5)
C8? C 0.1602(11) 0.2862(11) 0.8209(5)
H12? H 0.2771 0.2850 0.7855
C9? C 0.1346(12) 0.1484(10) 0.8721(5)
H13? H 0.2308 0.0523 0.8723
C10? C -0.0334(13) 0.1502(12) 0.9241(5)
C11? C -0.1688(12) 0.2905(13) 0.9209(5)
H14? H -0.2885 0.2939 0.9549
C12? C -0.1292(13) 0.4242(11) 0.8685(6)
H15? H -0.2205 0.5240 0.8683
O9? O -0.498(3) 0.252(2) 1.0704(10)
loop_
_geom_bond_atom_site_label_1
_geom_bond_atom_site_label_2
_geom_bond_site_symmetry_1
_geom_bond_site_symmetry_2
Cu1 O1 1_555 1_555
Cu2 O2 1_555 1_555
P1 O1 1_555 1_555
P2 O5 1_555 1_555
O2 H1 1_555 1_555
H2 O2 1_555 1_555
O3 Cu2 1_555 1_555
O4 P1 1_555 1_555
H3 O4 1_555 1_555
O5 Cu1 1_555 1_555
O6 Cu2 1_555 1_555
O7 P2 1_555 1_555
O8 H4 1_555 1_555
N1 C5 1_555 1_555
C1 P1 1_555 1_555
C2 C1 1_555 1_555
H5 C2 1_555 1_555
H6 C2 1_555 1_555
H7 C2 1_555 1_555
N3 Cu2 1_555 1_555
C3 N3 1_555 1_555
H8 C3 1_555 1_555
C4 C3 1_555 1_555
H9 C4 1_555 1_555
C5 C4 1_555 1_555
C6 C5 1_555 1_555
H10 C6 1_555 1_555
C7 N3 1_555 1_555
H11 C7 1_555 1_555
N1A N1 1_555 1_555
C5A N1A 1_555 1_555
C4A C5A 1_555 1_555
C3A C4A 1_555 1_555
N3A C3A 1_555 1_555
C7A N3A 1_555 1_555
C6A C5A 1_555 1_555
H10A C6A 1_555 1_555
H11A C7A 1_555 1_555
H8A C3A 1_555 1_555
H9A C4A 1_555 1_555
P1A O1A 1_555 1_555
P2A O5A 1_555 1_555
O1A Cu1 1_555 1_555
O3A P1A 1_555 1_555
O4A P1A 1_555 1_555
H3A O4A 1_555 1_555
O5A Cu1 1_555 1_555
O6A P2A 1_555 1_555
O7A P2A 1_555 1_555
O8A H4A 1_555 1_555
C1A P1A 1_555 1_555
C2A C1A 1_555 1_555
H5A C2A 1_555 1_555
H6A C2A 1_555 1_555
H7A C2A 1_555 1_555
Cu2A O3A 1_555 1_555
O2A Cu2A 1_555 1_555
H1A O2A 1_555 1_555
H2A O2A 1_555 1_555
O7_2 Cu2 1_555 1_555
Cu2_2 O7 1_555 1_555
Cu2A_2 N3A 1_555 1_555
Cu2A_3 O7A 1_555 1_555
O7A_2 Cu2A 1_555 1_555
N3A_2 Cu2A 1_555 1_555
P1 O3 1_555 1_555
P2 C1 1_555 1_555
P2 O6 1_555 1_555
O8 C1 1_555 1_555
C6 C7 1_555 1_555
C7A C6A 1_555 1_555
P2A C1A 1_555 1_555
O6A Cu2A 1_555 1_555
O8A C1A 1_555 1_555

#END
