
#######################################################################
#
#                 Cambridge Crystallographic Data Centre
#                                CCDC 
#
#######################################################################
#
# If this CIF has been generated from an entry in the Cambridge 
# Structural Database, then it will include bibliographic, chemical, 
# crystal, experimental, refinement or atomic coordinate data resulting 
# from the CCDC's data processing and validation procedures.
#
#######################################################################

data_WUVMAB
_symmetry_cell_setting           monoclinic
_symmetry_space_group_name_H-M   'P 21/c'
_symmetry_Int_Tables_number      14
_space_group_name_Hall           '-P 2ybc'
loop_
_symmetry_equiv_pos_site_id
_symmetry_equiv_pos_as_xyz
1 x,y,z
2 -x,1/2+y,1/2-z
3 -x,-y,-z
4 x,1/2-y,1/2+z
_cell_length_a                   9.5896(6)
_cell_length_b                   9.6349(6)
_cell_length_c                   12.5517(10)
_cell_angle_alpha                90
_cell_angle_beta                 97.013(5)
_cell_angle_gamma                90
_cell_volume                     1151.04
loop_
_atom_site_label
_atom_site_type_symbol
_atom_site_fract_x
_atom_site_fract_y
_atom_site_fract_z
Mn1 Mn 0.87633(4) 0.20801(4) 0.16679(3)
Mn2 Mn 1.17513(4) 0.18107(4) -0.15375(3)
Mn3 Mn 1.0000 0.0000 0.0000
O1 O 0.8690(2) 0.1951(2) -0.01240(13)
O2 O 0.9467(2) 0.2723(2) -0.16059(13)
O3 O 1.1345(2) 0.2566(2) 0.17538(13)
O4 O 0.9490(2) 0.0038(2) 0.16013(13)
O5 O 1.1690(2) 0.1459(2) 0.02601(13)
O6 O 1.6351(2) -0.0741(2) 0.1544(2)
O7 O 1.6602(2) 0.1559(2) 0.1615(2)
O8 O 0.8459(2) 0.4259(2) 0.16348(14)
O9 O 0.7414(2) 0.6234(2) 0.1106(2)
C1 C 0.7629(2) 0.4971(2) 0.0993(2)
C2 C 0.8716(3) 0.2843(2) -0.0852(2)
C3 C 1.2147(2) 0.2043(2) 0.1144(2)
C4 C 1.5880(3) 0.0470(3) 0.1539(2)
C5 C 1.3720(3) 0.2059(3) 0.1415(2)
H1 H 1.3967(3) 0.2498(3) 0.2108(2)
H2 H 1.4138(3) 0.2594(3) 0.0882(2)
C6 C 0.6865(3) 0.4281(3) 0.0012(2)
H3 H 0.6049(3) 0.4831(3) -0.0255(2)
H4 H 0.6540(3) 0.3372(3) 0.0205(2)
C7 C 1.4294(3) 0.0590(3) 0.1447(2)
H5 H 1.3973(3) 0.0111(3) 0.2052(2)
H6 H 1.3897(3) 0.0114(3) 0.0800(2)
C8 C 0.7821(4) 0.4127(3) -0.0870(2)
H7 H 0.7236(4) 0.4161(3) -0.1557(2)
H8 H 0.8439(4) 0.4926(3) -0.0836(2)
H9 H 1.0192(4) -0.0064(3) 0.2126(2)
O1B O 1.1310(2) -0.1951(2) 0.01240(13)
O2B O 1.0533(2) -0.2723(2) 0.16059(13)
O8B O 1.1541(2) -0.4259(2) -0.16348(14)
O9B O 1.2586(2) -0.6234(2) -0.1106(2)
C1B C 1.2371(2) -0.4971(2) -0.0993(2)
C2B C 1.1284(3) -0.2843(2) 0.0852(2)
C6B C 1.3135(3) -0.4281(3) -0.0012(2)
H3B H 1.3951(3) -0.4831(3) 0.0255(2)
H4B H 1.3460(3) -0.3372(3) -0.0205(2)
C8B C 1.2179(4) -0.4127(3) 0.0870(2)
H7B H 1.2764(4) -0.4161(3) 0.1557(2)
H8B H 1.1561(4) -0.4926(3) 0.0836(2)
O4B O 1.0510(2) -0.0038(2) -0.16013(13)
H9B H 0.9808(4) 0.0064(3) -0.2126(2)
O3B O 0.8655(2) -0.2566(2) -0.17538(13)
O5B O 0.8310(2) -0.1459(2) -0.02601(13)
O6B O 0.3649(2) 0.0741(2) -0.1544(2)
O7B O 0.3398(2) -0.1559(2) -0.1615(2)
C3B C 0.7853(2) -0.2043(2) -0.1144(2)
C4B C 0.4120(3) -0.0470(3) -0.1539(2)
C5B C 0.6280(3) -0.2059(3) -0.1415(2)
H1B H 0.6033(3) -0.2498(3) -0.2108(2)
H2B H 0.5862(3) -0.2594(3) -0.0882(2)
C7B C 0.5706(3) -0.0590(3) -0.1447(2)
H5B H 0.6027(3) -0.0111(3) -0.2052(2)
H6B H 0.6103(3) -0.0114(3) -0.0800(2)
Mn1B Mn 1.12367(4) -0.20801(4) -0.16679(3)
Mn2B Mn 0.82487(4) -0.18107(4) 0.15375(3)
O2C O 0.9467(2) 0.2277(2) 0.33941(13)
O7_2 O 0.6602(2) 0.1559(2) 0.1615(2)
O3C O 1.1345(2) 0.2434(2) -0.32462(13)
O6B_2 O 1.3649(2) 0.0741(2) -0.1544(2)
O9B_2 O 1.2586(2) 0.3766(2) -0.1106(2)
Mn1C Mn 0.87633(4) 0.29199(4) -0.33321(3)
Mn2C Mn 1.17513(4) 0.31893(4) 0.34625(3)
Mn2B_2 Mn 1.82487(4) -0.18107(4) 0.15375(3)
Mn1_2 Mn 1.87633(4) 0.20801(4) 0.16679(3)
Mn2B_3 Mn 0.82487(4) 0.81893(4) 0.15375(3)
Mn1A Mn 1.12367(4) -0.29199(4) 0.33321(3)
Mn2_2 Mn 1.17513(4) -0.81893(4) -0.15375(3)
Mn2A Mn 0.82487(4) -0.31893(4) -0.34625(3)
Mn2_3 Mn 0.17513(4) 0.18107(4) -0.15375(3)
Mn1B_2 Mn 0.12367(4) -0.20801(4) -0.16679(3)
O2A O 1.0533(2) -0.2277(2) -0.33941(13)
O7B_2 O 1.3398(2) -0.1559(2) -0.1615(2)
O3A O 0.8655(2) -0.2434(2) 0.32462(13)
O6_2 O 0.6351(2) -0.0741(2) 0.1544(2)
O9_2 O 0.7414(2) -0.3766(2) 0.1106(2)
loop_
_geom_bond_atom_site_label_1
_geom_bond_atom_site_label_2
_geom_bond_site_symmetry_1
_geom_bond_site_symmetry_2
Mn1 O1 1_555 1_555
Mn2 O2 1_555 1_555
Mn3 O1 1_555 1_555
O1 C2 1_555 1_555
O2 C2 1_555 1_555
O3 Mn1 1_555 1_555
O4 Mn1 1_555 1_555
O5 Mn2 1_555 1_555
O6 C4 1_555 1_555
O7 C4 1_555 1_555
O8 Mn1 1_555 1_555
O9 C1 1_555 1_555
C1 O8 1_555 1_555
C2 C8 1_555 1_555
C3 O3 1_555 1_555
C4 C7 1_555 1_555
C5 C3 1_555 1_555
H1 C5 1_555 1_555
H2 C5 1_555 1_555
C6 C1 1_555 1_555
H3 C6 1_555 1_555
H4 C6 1_555 1_555
C7 C5 1_555 1_555
H5 C7 1_555 1_555
H6 C7 1_555 1_555
C8 C6 1_555 1_555
H7 C8 1_555 1_555
H8 C8 1_555 1_555
H9 O4 1_555 1_555
O1B Mn3 1_555 1_555
O2B C2B 1_555 1_555
O8B C1B 1_555 1_555
O9B C1B 1_555 1_555
C1B C6B 1_555 1_555
C2B O1B 1_555 1_555
C6B H3B 1_555 1_555
H4B C6B 1_555 1_555
C8B C2B 1_555 1_555
H7B C8B 1_555 1_555
H8B C8B 1_555 1_555
O4B Mn2 1_555 1_555
H9B O4B 1_555 1_555
O3B C3B 1_555 1_555
O5B Mn3 1_555 1_555
O6B C4B 1_555 1_555
O7B C4B 1_555 1_555
C3B O5B 1_555 1_555
C4B C7B 1_555 1_555
C5B C3B 1_555 1_555
H1B C5B 1_555 1_555
H2B C5B 1_555 1_555
C7B C5B 1_555 1_555
H5B C7B 1_555 1_555
H6B C7B 1_555 1_555
Mn1B O1B 1_555 1_555
Mn2B O4 1_555 1_555
O2C Mn1 1_555 1_555
O7_2 Mn1 1_555 1_555
O3C Mn2 1_555 1_555
O6B_2 Mn2 1_555 1_555
O9B_2 Mn2 1_555 1_555
Mn1C O2 1_555 1_555
Mn2C O3 1_555 1_555
Mn2B_2 O6 1_555 1_555
Mn1_2 O7 1_555 1_555
Mn2B_3 O9 1_555 1_555
Mn1A O2B 1_555 1_555
Mn2_2 O9B 1_555 1_555
Mn2A O3B 1_555 1_555
Mn2_3 O6B 1_555 1_555
Mn1B_2 O7B 1_555 1_555
O2A Mn1B 1_555 1_555
O7B_2 Mn1B 1_555 1_555
O3A Mn2B 1_555 1_555
O6_2 Mn2B 1_555 1_555
O9_2 Mn2B 1_555 1_555
Mn3 O4 1_555 1_555
Mn3 O5 1_555 1_555
Mn3 O4B 1_555 1_555
O5 C3 1_555 1_555
O2B Mn2B 1_555 1_555
O8B Mn1B 1_555 1_555
C6B C8B 1_555 1_555
O4B Mn1B 1_555 1_555
O3B Mn1B 1_555 1_555
O5B Mn2B 1_555 1_555
O2C Mn2C 1_555 1_555
O3C Mn1C 1_555 1_555
Mn1A O3A 1_555 1_555
Mn2A O2A 1_555 1_555

#END
