
#######################################################################
#
#                 Cambridge Crystallographic Data Centre
#                                CCDC 
#
#######################################################################
#
# If this CIF has been generated from an entry in the Cambridge 
# Structural Database, then it will include bibliographic, chemical, 
# crystal, experimental, refinement or atomic coordinate data resulting 
# from the CCDC's data processing and validation procedures.
#
#######################################################################

data_WUVMAB04
_symmetry_cell_setting           monoclinic
_symmetry_space_group_name_H-M   'P 21/c'
_symmetry_Int_Tables_number      14
_space_group_name_Hall           '-P 2ybc'
loop_
_symmetry_equiv_pos_site_id
_symmetry_equiv_pos_as_xyz
1 x,y,z
2 -x,1/2+y,1/2-z
3 -x,-y,-z
4 x,1/2-y,1/2+z
_cell_length_a                   9.57980(5)
_cell_length_b                   9.62500(5)
_cell_length_c                   12.53670(6)
_cell_angle_alpha                90
_cell_angle_beta                 97.0154(5)
_cell_angle_gamma                90
_cell_volume                     1147.3
loop_
_atom_site_label
_atom_site_type_symbol
_atom_site_fract_x
_atom_site_fract_y
_atom_site_fract_z
O1 O 0.66812 0.07568 0.33446
O2 O 0.76246 -0.12452 0.39397
O3 O 0.54795 0.23673 0.65063
O4 O 0.63883 0.31178 0.50606
C1 C 0.74475 0.00320 0.40242
C2 C 0.71809 0.09426 0.58596
H1 H 0.77358 0.09348 0.65606
H2 H 0.65556 0.01470 0.58313
C3 C 0.62912 0.22280 0.57878
C4 C 0.81805 0.07285 0.50174
H3 H 0.89681 0.01604 0.53182
H4 H 0.85466 0.16207 0.48227
Mn1 Mn 0.50000 0.50000 0.50000
Mn2 Mn 0.6253(5) 0.2936(6) 0.3326(4)
Mn3 Mn 0.6808(5) 0.6803(6) 0.3471(4)
O5 O 0.5540(20) 0.493(2) 0.3382(15)
O6 O 0.63675 0.76222 0.67391
O7 O 1.16250 0.64665 0.66471
O8 O 0.67188 0.65156 0.52398
O9 O 1.12900 0.41684 0.65379
C5 C 0.71730 0.70856 0.61284
C6 C 0.87510 0.70583 0.64208
H5 H 0.91971 0.75897 0.58985
H6 H 0.89963 0.74804 0.71213
C7 C 0.92767 0.55680 0.64413
H7 H 0.88746 0.51120 0.57847
H8 H 0.89287 0.50902 0.70371
C8 C 1.08622 0.54009 0.65476
O1B O 0.33188 0.92432 0.66554
O2B O 0.23754 1.12452 0.60603
O3B O 0.45205 0.76327 0.34937
O4B O 0.36117 0.68822 0.49394
C1B C 0.25525 0.99680 0.59758
C2B C 0.28191 0.90574 0.41404
H1B H 0.22642 0.90652 0.34394
H2B H 0.34444 0.98530 0.41687
C3B C 0.37088 0.77720 0.42122
C4B C 0.18195 0.92715 0.49826
H3B H 0.10319 0.98396 0.46818
H4B H 0.14534 0.83793 0.51773
Mn2B Mn 0.3747(5) 0.7064(6) 0.6674(4)
Mn3B Mn 0.3192(5) 0.3197(6) 0.6529(4)
O5B O 0.4460(20) 0.507(2) 0.6618(15)
O6B O 0.36325 0.23778 0.32609
O7B O -0.16250 0.35335 0.33529
O8B O 0.32812 0.34844 0.47602
O9B O -0.12900 0.58316 0.34621
C5B C 0.28270 0.29144 0.38716
C6B C 0.12490 0.29417 0.35792
H5B H 0.08029 0.24103 0.41015
H6B H 0.10037 0.25196 0.28787
C7B C 0.07233 0.44320 0.35587
H7B H 0.11254 0.48880 0.42153
H8B H 0.10713 0.49098 0.29629
C8B C -0.08622 0.45991 0.34524
O2_2 O 0.76246 0.87548 0.39397
O2B_2 O 0.23754 0.12452 0.60603
O3A O 0.45205 0.73673 0.84937
O3C O 0.54795 0.26327 0.15063
Mn2_2 Mn -0.3747(5) 0.2936(6) 0.3326(4)
Mn2A Mn 0.3747(5) 0.7936(6) 0.1674(4)
Mn2B_2 Mn 1.3747(5) 0.7064(6) 0.6674(4)
Mn2C Mn 0.6253(5) 0.2064(6) 0.8326(4)
Mn3_2 Mn -0.3192(5) 0.6803(6) 0.3471(4)
Mn3_3 Mn 0.6808(5) -0.3197(6) 0.3471(4)
Mn3A Mn 0.3192(5) 0.1803(6) 0.1529(4)
Mn3B_2 Mn 0.3192(5) 1.3197(6) 0.6529(4)
Mn3B_3 Mn 1.3192(5) 0.3197(6) 0.6529(4)
Mn3C Mn 0.6808(5) 0.8197(6) 0.8471(4)
O6A O 0.36325 0.26222 0.82609
O6C O 0.63675 0.73778 0.17391
O7_2 O 0.16250 0.64665 0.66471
O7B_2 O 0.83750 0.35335 0.33529
O9_2 O 0.12900 0.41684 0.65379
O9B_2 O 0.87100 0.58316 0.34621
loop_
_geom_bond_atom_site_label_1
_geom_bond_atom_site_label_2
_geom_bond_site_symmetry_1
_geom_bond_site_symmetry_2
O1 C1 1_555 1_555
O2 C1 1_555 1_555
O3 C3 1_555 1_555
O4 C3 1_555 1_555
C1 C4 1_555 1_555
C2 H1 1_555 1_555
H2 C2 1_555 1_555
C3 C2 1_555 1_555
C4 C2 1_555 1_555
H3 C4 1_555 1_555
H4 C4 1_555 1_555
Mn1 O4 1_555 1_555
Mn2 O1 1_555 1_555
Mn3 O5 1_555 1_555
O5 Mn1 1_555 1_555
O6 C5 1_555 1_555
O7 C8 1_555 1_555
O8 Mn1 1_555 1_555
O9 C8 1_555 1_555
C5 O8 1_555 1_555
C6 C5 1_555 1_555
H5 C6 1_555 1_555
H6 C6 1_555 1_555
C7 C6 1_555 1_555
H7 C7 1_555 1_555
H8 C7 1_555 1_555
C8 C7 1_555 1_555
O1B C1B 1_555 1_555
O2B C1B 1_555 1_555
O3B Mn3 1_555 1_555
O4B Mn1 1_555 1_555
C1B C4B 1_555 1_555
C2B H1B 1_555 1_555
H2B C2B 1_555 1_555
C3B O3B 1_555 1_555
C4B C2B 1_555 1_555
H3B C4B 1_555 1_555
H4B C4B 1_555 1_555
Mn2B O1B 1_555 1_555
Mn3B O3 1_555 1_555
O5B Mn1 1_555 1_555
O6B C5B 1_555 1_555
O7B C8B 1_555 1_555
O8B Mn1 1_555 1_555
O9B C8B 1_555 1_555
C5B O8B 1_555 1_555
C6B C5B 1_555 1_555
H5B C6B 1_555 1_555
H6B C6B 1_555 1_555
C7B C6B 1_555 1_555
H7B C7B 1_555 1_555
H8B C7B 1_555 1_555
C8B C7B 1_555 1_555
O2_2 Mn3 1_555 1_555
O2B_2 Mn3B 1_555 1_555
O3A Mn2B 1_555 1_555
O3C Mn2 1_555 1_555
Mn2_2 O7B 1_555 1_555
Mn2A O3B 1_555 1_555
Mn2B_2 O7 1_555 1_555
Mn2C O3 1_555 1_555
Mn3_2 O9B 1_555 1_555
Mn3_3 O2 1_555 1_555
Mn3A O6B 1_555 1_555
Mn3B_2 O2B 1_555 1_555
Mn3B_3 O9 1_555 1_555
Mn3C O6 1_555 1_555
O6A Mn3B 1_555 1_555
O6C Mn3 1_555 1_555
O7_2 Mn2B 1_555 1_555
O7B_2 Mn2 1_555 1_555
O9_2 Mn3B 1_555 1_555
O9B_2 Mn3 1_555 1_555
O4 Mn2 1_555 1_555
Mn2 O5 1_555 1_555
Mn3 O8 1_555 1_555
O4B C3B 1_555 1_555
O4B Mn2B 1_555 1_555
C2B C3B 1_555 1_555
Mn2B O5B 1_555 1_555
Mn3B O5B 1_555 1_555
Mn3B O8B 1_555 1_555
O3A Mn3C 1_555 1_555
O3C Mn3A 1_555 1_555

#END
