
#######################################################################
#
#                 Cambridge Crystallographic Data Centre
#                                CCDC 
#
#######################################################################
#
# If this CIF has been generated from an entry in the Cambridge 
# Structural Database, then it will include bibliographic, chemical, 
# crystal, experimental, refinement or atomic coordinate data resulting 
# from the CCDC's data processing and validation procedures.
#
#######################################################################

data_WUVMAB02
_symmetry_cell_setting           monoclinic
_symmetry_space_group_name_H-M   'P 21/c'
_symmetry_Int_Tables_number      14
_space_group_name_Hall           '-P 2ybc'
loop_
_symmetry_equiv_pos_site_id
_symmetry_equiv_pos_as_xyz
1 x,y,z
2 -x,1/2+y,1/2-z
3 -x,-y,-z
4 x,1/2-y,1/2+z
_cell_length_a                   9.5942(19)
_cell_length_b                   9.6329(19)
_cell_length_c                   12.541(3)
_cell_angle_alpha                90
_cell_angle_beta                 97.07(3)
_cell_angle_gamma                90
_cell_volume                     1150.23
loop_
_atom_site_label
_atom_site_type_symbol
_atom_site_fract_x
_atom_site_fract_y
_atom_site_fract_z
Mn1 Mn 0.62357(4) 0.29185(4) 0.33324(3)
Mn2 Mn 0.5000 0.5000 0.5000
O1 O 0.55102(17) 0.49620(16) 0.33999(14)
O2 O 0.6311(2) 0.30541(18) 0.51214(15)
O3 O 0.66854(19) 0.64512(19) 0.52595(14)
O4 O 0.6548(2) 0.0744(2) 0.33629(15)
C1 C 0.6287(3) 0.2156(2) 0.58500(19)
C2 C 0.7373(2) 0.0025(2) 0.4005(2)
C3 C 0.7150(3) 0.7044(2) 0.61434(19)
C4 C 0.8730(3) 0.7059(3) 0.6417(2)
H1 H 0.8977 0.7496 0.7112
H2 H 0.9148 0.7595 0.5884
C5 C 0.8133(3) 0.0722(3) 0.4992(2)
H3 H 0.8456 0.1632 0.4799
H4 H 0.8949 0.0175 0.5264
C6 C 0.7175(4) 0.0875(4) 0.5867(2)
H5 H 0.6554 0.0077 0.5827
H6 H 0.7754 0.0835 0.6556
C7 C 0.9300(3) 0.5587(3) 0.6447(2)
H7 H 0.8976 0.5106 0.7050
H8 H 0.8905 0.5113 0.5797
Mn3 Mn 0.67507(4) 0.68102(4) 0.34625(3)
C8 C 1.0888(3) 0.5471(3) 0.6544(2)
O5 O 1.1606(2) 0.6561(2) 0.66165(17)
O6 O 1.1353(2) 0.4258(2) 0.65437(17)
O7 O 0.63465(18) 0.75631(19) 0.67552(14)
O8 O 0.5532(2) 0.22781(19) 0.66090(14)
O9 O 0.7591(2) -0.12374(18) 0.38948(18)
Mn1B Mn 0.37643(4) 0.70815(4) 0.66676(3)
Mn1B_2 Mn 1.37643(4) 0.70815(4) 0.66676(3)
Mn1C Mn 0.62357(4) 0.20815(4) 0.83324(3)
Mn1A Mn 0.37643(4) 0.79185(4) 0.16676(3)
Mn1_2 Mn -0.37643(4) 0.29185(4) 0.33324(3)
O1B O 0.44898(17) 0.50380(16) 0.66001(14)
O2B O 0.3689(2) 0.69459(18) 0.48786(15)
O3B O 0.33146(19) 0.35488(19) 0.47405(14)
O4B O 0.3452(2) 0.9256(2) 0.66371(15)
C1B C 0.3713(3) 0.7844(2) 0.41500(19)
C2B C 0.2627(2) 0.9975(2) 0.5995(2)
C3B C 0.2850(3) 0.2956(2) 0.38566(19)
C4B C 0.1270(3) 0.2941(3) 0.3583(2)
H1B H 0.1023 0.2504 0.2888
H2B H 0.0852 0.2405 0.4116
C5B C 0.1867(3) 0.9278(3) 0.5008(2)
H3B H 0.1544 0.8368 0.5201
H4B H 0.1051 0.9825 0.4736
C6B C 0.2825(4) 0.9125(4) 0.4133(2)
H5B H 0.3446 0.9923 0.4173
H6B H 0.2246 0.9165 0.3444
C7B C 0.0700(3) 0.4413(3) 0.3553(2)
H7B H 0.1024 0.4894 0.2950
H8B H 0.1095 0.4887 0.4203
Mn3B Mn 0.32493(4) 0.31898(4) 0.65375(3)
Mn3B_2 Mn 1.32493(4) 0.31898(4) 0.65375(3)
Mn3C Mn 0.67507(4) 0.81898(4) 0.84625(3)
Mn3_2 Mn 0.67507(4) -0.31898(4) 0.34625(3)
Mn3B_3 Mn 0.32493(4) 1.31898(4) 0.65375(3)
Mn3_3 Mn -0.32493(4) 0.68102(4) 0.34625(3)
Mn3A Mn 0.32493(4) 0.18102(4) 0.15375(3)
C8B C -0.0888(3) 0.4529(3) 0.3456(2)
O5B O -0.1606(2) 0.3439(2) 0.33835(17)
O5B_2 O 0.8394(2) 0.3439(2) 0.33835(17)
O5_2 O 0.1606(2) 0.6561(2) 0.66165(17)
O6B O -0.1353(2) 0.5742(2) 0.34563(17)
O6B_2 O 0.8647(2) 0.5742(2) 0.34563(17)
O6_2 O 0.1353(2) 0.4258(2) 0.65437(17)
O7B O 0.36535(18) 0.24369(19) 0.32448(14)
O7C O 0.63465(18) 0.74369(19) 0.17552(14)
O7A O 0.36535(18) 0.25631(19) 0.82448(14)
O8B O 0.4468(2) 0.77219(19) 0.33910(14)
O8C O 0.5532(2) 0.27219(19) 0.16090(14)
O8A O 0.4468(2) 0.72781(19) 0.83910(14)
O9B O 0.2409(2) 1.12374(18) 0.61052(18)
O9_2 O 0.7591(2) 0.87626(18) 0.38948(18)
O9B_2 O 0.2409(2) 0.12374(18) 0.61052(18)
loop_
_geom_bond_atom_site_label_1
_geom_bond_atom_site_label_2
_geom_bond_site_symmetry_1
_geom_bond_site_symmetry_2
Mn1 O1 1_555 1_555
Mn2 O1 1_555 1_555
O1 Mn3 1_555 1_555
O2 Mn1 1_555 1_555
O3 Mn2 1_555 1_555
O4 Mn1 1_555 1_555
C1 O2 1_555 1_555
C2 O4 1_555 1_555
C3 O3 1_555 1_555
C4 C3 1_555 1_555
H1 C4 1_555 1_555
H2 C4 1_555 1_555
C5 C2 1_555 1_555
H3 C5 1_555 1_555
H4 C5 1_555 1_555
C6 C1 1_555 1_555
H5 C6 1_555 1_555
H6 C6 1_555 1_555
C7 C4 1_555 1_555
H7 C7 1_555 1_555
H8 C7 1_555 1_555
Mn3 O3 1_555 1_555
C8 C7 1_555 1_555
O5 C8 1_555 1_555
O6 C8 1_555 1_555
O7 C3 1_555 1_555
O8 C1 1_555 1_555
O9 C2 1_555 1_555
Mn1B O7 1_555 1_555
Mn1B_2 O5 1_555 1_555
Mn1C O8 1_555 1_555
Mn1A O7C 1_555 1_555
Mn1_2 O5B 1_555 1_555
O1B Mn2 1_555 1_555
O2B Mn2 1_555 1_555
O3B Mn2 1_555 1_555
O4B Mn1B 1_555 1_555
C1B O2B 1_555 1_555
C2B O4B 1_555 1_555
C3B O3B 1_555 1_555
C4B C3B 1_555 1_555
H1B C4B 1_555 1_555
H2B C4B 1_555 1_555
C5B C2B 1_555 1_555
H3B C5B 1_555 1_555
H4B C5B 1_555 1_555
C6B C1B 1_555 1_555
H5B C6B 1_555 1_555
H6B C6B 1_555 1_555
C7B C4B 1_555 1_555
H7B C7B 1_555 1_555
H8B C7B 1_555 1_555
Mn3B O8 1_555 1_555
Mn3B_2 O6 1_555 1_555
Mn3C O7 1_555 1_555
Mn3_2 O9 1_555 1_555
Mn3B_3 O9B 1_555 1_555
Mn3_3 O6B 1_555 1_555
Mn3A O7B 1_555 1_555
C8B C7B 1_555 1_555
O5B C8B 1_555 1_555
O5B_2 Mn1 1_555 1_555
O5_2 Mn1B 1_555 1_555
O6B C8B 1_555 1_555
O6B_2 Mn3 1_555 1_555
O6_2 Mn3B 1_555 1_555
O7B Mn1 1_555 1_555
O7C Mn3 1_555 1_555
O7A Mn1C 1_555 1_555
O8B Mn3 1_555 1_555
O8C Mn1 1_555 1_555
O8A Mn1B 1_555 1_555
O9B C2B 1_555 1_555
O9_2 Mn3 1_555 1_555
O9B_2 Mn3B 1_555 1_555
Mn2 O2 1_555 1_555
C5 C6 1_555 1_555
Mn1B O1B 1_555 1_555
Mn1B O2B 1_555 1_555
Mn1A O8B 1_555 1_555
O1B Mn3B 1_555 1_555
O3B Mn3B 1_555 1_555
C1B O8B 1_555 1_555
C3B O7B 1_555 1_555
C5B C6B 1_555 1_555
Mn3B O7A 1_555 1_555
Mn3C O8A 1_555 1_555
Mn3A O8C 1_555 1_555

#END
