
#######################################################################
#
#                 Cambridge Crystallographic Data Centre
#                                CCDC 
#
#######################################################################
#
# If this CIF has been generated from an entry in the Cambridge 
# Structural Database, then it will include bibliographic, chemical, 
# crystal, experimental, refinement or atomic coordinate data resulting 
# from the CCDC's data processing and validation procedures.
#
#######################################################################

data_WUVMAB01
_symmetry_cell_setting           monoclinic
_symmetry_space_group_name_H-M   'P 21/c'
_symmetry_Int_Tables_number      14
_space_group_name_Hall           '-P 2ybc'
loop_
_symmetry_equiv_pos_site_id
_symmetry_equiv_pos_as_xyz
1 x,y,z
2 -x,1/2+y,1/2-z
3 -x,-y,-z
4 x,1/2-y,1/2+z
_cell_length_a                   9.575(2)
_cell_length_b                   9.611(2)
_cell_length_c                   12.526(3)
_cell_angle_alpha                90
_cell_angle_beta                 97.04(2)
_cell_angle_gamma                90
_cell_volume                     1144.02
loop_
_atom_site_label
_atom_site_type_symbol
_atom_site_fract_x
_atom_site_fract_y
_atom_site_fract_z
Mn1 Mn -0.62360(3) 0.20803(3) 0.16674(2)
Mn2 Mn -0.5000 0.0000 0.0000
Mn3 Mn -0.32496(3) 0.18105(3) -0.15378(2)
O1 O 0.16052(17) 0.15582(17) 0.16147(14)
O2 O 0.13534(17) -0.07424(18) 0.15477(14)
C1 C 0.0883(2) 0.0465(2) 0.15420(16)
C2 C -0.0708(2) 0.0584(3) 0.1443(2)
H1 H -0.102(4) 0.007(3) 0.078(3)
H2 H -0.102(4) 0.012(4) 0.213(4)
C3 C -0.1274(2) 0.2057(2) 0.1417(2)
H3 H -0.101(4) 0.246(4) 0.206(3)
H4 H -0.082(4) 0.271(4) 0.087(3)
C4 C -0.2852(2) 0.2042(2) 0.11410(16)
O3 O -0.33120(16) 0.14603(16) 0.02603(11)
O4 O -0.36566(16) 0.25642(16) 0.17537(11)
O5 O -0.65431(18) 0.42586(17) 0.16364(12)
O6 O -0.7591(2) 0.62360(16) 0.11066(15)
C5 C -0.7372(2) 0.4972(2) 0.09923(17)
C6 C -0.8134(2) 0.4279(2) 0.00115(17)
H5 H -0.894(3) 0.491(2) -0.026(2)
H6 H -0.851(4) 0.341(3) 0.016(2)
C7 C -0.7176(4) 0.4122(3) -0.0868(2)
H7 H -0.765(5) 0.414(5) -0.152(3)
H8 H -0.665(6) 0.484(5) -0.096(4)
C8 C -0.6280(2) 0.2847(2) -0.08477(15)
O7 O -0.63081(17) 0.19495(15) -0.01204(12)
O8 O -0.55339(17) 0.27186(17) -0.16093(12)
O9 O -0.44875(15) -0.00373(14) -0.15988(12)
H9 H -0.513(4) 0.009(3) -0.208(3)
O1B O -1.16052(17) -0.15582(17) -0.16147(14)
O2B O -1.13534(17) 0.07424(18) -0.15477(14)
C1B C -1.0883(2) -0.0465(2) -0.15420(16)
C2B C -0.9292(2) -0.0584(3) -0.1443(2)
H1B H -0.898(4) -0.007(3) -0.078(3)
H2B H -0.898(4) -0.012(4) -0.213(4)
C3B C -0.8726(2) -0.2057(2) -0.1417(2)
H3B H -0.899(4) -0.246(4) -0.206(3)
H4B H -0.918(4) -0.271(4) -0.087(3)
C4B C -0.7148(2) -0.2042(2) -0.11410(16)
O3B O -0.66880(16) -0.14603(16) -0.02603(11)
O4B O -0.63434(16) -0.25642(16) -0.17537(11)
O5B O -0.34569(18) -0.42586(17) -0.16364(12)
O6B O -0.2409(2) -0.62360(16) -0.11066(15)
C5B C -0.2628(2) -0.4972(2) -0.09923(17)
C6B C -0.1866(2) -0.4279(2) -0.00115(17)
H5B H -0.106(3) -0.491(2) 0.026(2)
H6B H -0.149(4) -0.341(3) -0.016(2)
C7B C -0.2824(4) -0.4122(3) 0.0868(2)
H7B H -0.235(5) -0.414(5) 0.152(3)
H8B H -0.335(6) -0.484(5) 0.096(4)
C8B C -0.3720(2) -0.2847(2) 0.08477(15)
O7B O -0.36919(17) -0.19495(15) 0.01204(12)
O8B O -0.44661(17) -0.27186(17) 0.16093(12)
O9B O -0.55125(15) 0.00373(14) 0.15988(12)
H9B H -0.487(4) -0.009(3) 0.208(3)
Mn1B Mn -1.37640(3) -0.20803(3) -0.16674(2)
Mn3_2 Mn -1.32496(3) 0.18105(3) -0.15378(2)
Mn3B Mn 0.32496(3) -0.18105(3) 0.15378(2)
Mn1_2 Mn 0.37640(3) 0.20803(3) 0.16674(2)
Mn3C Mn -0.32496(3) 0.31895(3) 0.34622(2)
Mn3B_2 Mn -0.67504(3) 0.81895(3) 0.15378(2)
Mn1C Mn -0.62360(3) 0.29197(3) -0.33326(2)
Mn1B_2 Mn -0.37640(3) -0.20803(3) -0.16674(2)
Mn3B_3 Mn -0.67504(3) -0.18105(3) 0.15378(2)
Mn3A Mn -0.67504(3) -0.31895(3) -0.34622(2)
Mn3_3 Mn -0.32496(3) -0.81895(3) -0.15378(2)
Mn1A Mn -0.37640(3) -0.29197(3) 0.33326(2)
O2B_2 O -0.13534(17) 0.07424(18) -0.15477(14)
O4C O -0.36566(16) 0.24358(16) -0.32463(11)
O6B_2 O -0.2409(2) 0.37640(16) -0.11066(15)
O1_2 O -0.83948(17) 0.15582(17) 0.16147(14)
O8C O -0.55339(17) 0.22814(17) 0.33907(12)
O1B_2 O -0.16052(17) -0.15582(17) -0.16147(14)
O8A O -0.44661(17) -0.22814(17) -0.33907(12)
O2_2 O -0.86466(17) -0.07424(18) 0.15477(14)
O4A O -0.63434(16) -0.24358(16) 0.32463(11)
O6_2 O -0.7591(2) -0.37640(16) 0.11066(15)
loop_
_geom_bond_atom_site_label_1
_geom_bond_atom_site_label_2
_geom_bond_site_symmetry_1
_geom_bond_site_symmetry_2
Mn1 O4 1_555 1_555
Mn2 O3 1_555 1_555
Mn3 O3 1_555 1_555
O1 C1 1_555 1_555
O2 C1 1_555 1_555
C1 C2 1_555 1_555
C2 H1 1_555 1_555
H2 C2 1_555 1_555
C3 C2 1_555 1_555
H3 C3 1_555 1_555
H4 C3 1_555 1_555
C4 C3 1_555 1_555
O3 C4 1_555 1_555
O4 C4 1_555 1_555
O5 Mn1 1_555 1_555
O6 C5 1_555 1_555
C5 O5 1_555 1_555
C6 C5 1_555 1_555
H5 C6 1_555 1_555
H6 C6 1_555 1_555
C7 C6 1_555 1_555
H7 C7 1_555 1_555
H8 C7 1_555 1_555
C8 C7 1_555 1_555
O7 Mn1 1_555 1_555
O8 Mn3 1_555 1_555
O9 Mn2 1_555 1_555
H9 O9 1_555 1_555
O1B C1B 1_555 1_555
O2B C1B 1_555 1_555
C1B C2B 1_555 1_555
C2B H1B 1_555 1_555
H2B C2B 1_555 1_555
C3B C2B 1_555 1_555
H3B C3B 1_555 1_555
H4B C3B 1_555 1_555
C4B C3B 1_555 1_555
O3B Mn2 1_555 1_555
O4B C4B 1_555 1_555
O5B C5B 1_555 1_555
O6B C5B 1_555 1_555
C5B C6B 1_555 1_555
C6B H5B 1_555 1_555
H6B C6B 1_555 1_555
C7B C6B 1_555 1_555
H7B C7B 1_555 1_555
H8B C7B 1_555 1_555
C8B C7B 1_555 1_555
O7B Mn2 1_555 1_555
O8B C8B 1_555 1_555
O9B Mn1 1_555 1_555
H9B O9B 1_555 1_555
Mn1B O1B 1_555 1_555
Mn3_2 O2B 1_555 1_555
Mn3B O2 1_555 1_555
Mn1_2 O1 1_555 1_555
Mn3C O4 1_555 1_555
Mn3B_2 O6 1_555 1_555
Mn1C O8 1_555 1_555
Mn1B_2 O9 1_555 1_555
Mn3B_3 O3B 1_555 1_555
Mn3A O4B 1_555 1_555
Mn3_3 O6B 1_555 1_555
Mn1A O8B 1_555 1_555
O2B_2 Mn3 1_555 1_555
O4C Mn3 1_555 1_555
O6B_2 Mn3 1_555 1_555
O1_2 Mn1 1_555 1_555
O8C Mn1 1_555 1_555
O1B_2 Mn1B_2 1_555 1_555
O8A Mn1B_2 1_555 1_555
O2_2 Mn3B_3 1_555 1_555
O4A Mn3B_3 1_555 1_555
O6_2 Mn3B_3 1_555 1_555
Mn2 O7 1_555 1_555
Mn2 O9B 1_555 1_555
Mn3 O9 1_555 1_555
C8 O7 1_555 1_555
C8 O8 1_555 1_555
C4B O3B 1_555 1_555
O4B Mn1B_2 1_555 1_555
O5B Mn1B_2 1_555 1_555
C8B O7B 1_555 1_555
O7B Mn1B_2 1_555 1_555
O8B Mn3B_3 1_555 1_555
O9B Mn3B_3 1_555 1_555
Mn3C O8C 1_555 1_555
Mn1C O4C 1_555 1_555
Mn3A O8A 1_555 1_555
Mn1A O4A 1_555 1_555

#END
