
#######################################################################
#
#                 Cambridge Crystallographic Data Centre
#                                CCDC 
#
#######################################################################
#
# If this CIF has been generated from an entry in the Cambridge 
# Structural Database, then it will include bibliographic, chemical, 
# crystal, experimental, refinement or atomic coordinate data resulting 
# from the CCDC's data processing and validation procedures.
#
#######################################################################

data_WUVMAB03
_symmetry_cell_setting           monoclinic
_symmetry_space_group_name_H-M   'P 21/c'
_symmetry_Int_Tables_number      14
_space_group_name_Hall           '-P 2ybc'
loop_
_symmetry_equiv_pos_site_id
_symmetry_equiv_pos_as_xyz
1 x,y,z
2 -x,1/2+y,1/2-z
3 -x,-y,-z
4 x,1/2-y,1/2+z
_cell_length_a                   9.5718(19)
_cell_length_b                   9.6466(19)
_cell_length_c                   12.526(3)
_cell_angle_alpha                90
_cell_angle_beta                 97.016(4)
_cell_angle_gamma                90
_cell_volume                     1147.93
loop_
_atom_site_label
_atom_site_type_symbol
_atom_site_fract_x
_atom_site_fract_y
_atom_site_fract_z
Mn1 Mn 0.5000 0.5000 0.5000
Mn2 Mn 0.62254(4) 0.29176(4) 0.33318(3)
Mn3 Mn 0.67485(4) 0.68115(4) 0.34631(3)
O1 O 0.5503(2) 0.49612(19) 0.33968(15)
H1 H 0.489(3) 0.506(4) 0.289(2)
O2 O 0.6316(2) 0.30609(19) 0.51242(14)
O3 O 0.5511(2) 0.2271(2) 0.66046(15)
O4 O 0.6533(2) 0.0739(2) 0.33632(15)
O5 O 0.7616(2) -0.1236(2) 0.38810(17)
O6 O 0.6679(2) 0.64743(19) 0.52529(15)
O7 O 0.63274(19) 0.7579(2) 0.67505(15)
O8 O 1.1354(2) 0.4259(2) 0.65426(17)
O9 O 1.1603(2) 0.6570(2) 0.66198(17)
C1 C 0.6277(3) 0.2155(3) 0.5848(2)
C2 C 0.7166(4) 0.0878(4) 0.5868(3)
H2 H 0.6531 0.0065 0.5827
H3 H 0.7756 0.0839 0.6573
C3 C 0.8136(3) 0.0721(3) 0.4990(2)
H4 H 0.8470 0.1647 0.4792
H5 H 0.8969 0.0162 0.5270
C4 C 0.7380(3) 0.0026(3) 0.4002(2)
C5 C 0.7141(3) 0.7057(3) 0.6134(2)
C6 C 0.8716(3) 0.7077(3) 0.6408(2)
H6 H 0.8967 0.7524 0.7117
H7 H 0.9145 0.7622 0.5863
C7 C 0.9288(3) 0.5593(3) 0.6440(3)
H8 H 0.8952 0.5102 0.7054
H9 H 0.8889 0.5110 0.5774
C8 C 1.0876(3) 0.5478(3) 0.6542(2)
Mn2B Mn 0.37746(4) 0.70824(4) 0.66682(3)
Mn2_2 Mn -0.37746(4) 0.29176(4) 0.33318(3)
Mn2A Mn 0.37746(4) 0.79176(4) 0.16682(3)
Mn2B_2 Mn 1.37746(4) 0.70824(4) 0.66682(3)
Mn2C Mn 0.62254(4) 0.20824(4) 0.83318(3)
Mn3B Mn 0.32515(4) 0.31885(4) 0.65369(3)
Mn3_2 Mn -0.32515(4) 0.68115(4) 0.34631(3)
Mn3_3 Mn 0.67485(4) -0.31885(4) 0.34631(3)
Mn3A Mn 0.32515(4) 0.18115(4) 0.15369(3)
Mn3B_2 Mn 0.32515(4) 1.31885(4) 0.65369(3)
Mn3B_3 Mn 1.32515(4) 0.31885(4) 0.65369(3)
Mn3C Mn 0.67485(4) 0.81885(4) 0.84631(3)
O1B O 0.4497(2) 0.50388(19) 0.66032(15)
H1B H 0.511(3) 0.494(4) 0.711(2)
O2B O 0.3684(2) 0.69391(19) 0.48758(14)
O3B O 0.4489(2) 0.7729(2) 0.33954(15)
O3A O 0.4489(2) 0.7271(2) 0.83954(15)
O3C O 0.5511(2) 0.2729(2) 0.16046(15)
O4B O 0.3467(2) 0.9261(2) 0.66368(15)
O5B O 0.2384(2) 1.1236(2) 0.61190(17)
O5_2 O 0.7616(2) 0.8764(2) 0.38810(17)
O5B_2 O 0.2384(2) 0.1236(2) 0.61190(17)
O6B O 0.3321(2) 0.35257(19) 0.47471(15)
O7B O 0.36726(19) 0.2421(2) 0.32495(15)
O7A O 0.36726(19) 0.2579(2) 0.82495(15)
O7C O 0.63274(19) 0.7421(2) 0.17505(15)
O8B O -0.1354(2) 0.5741(2) 0.34574(17)
O8_2 O 0.1354(2) 0.4259(2) 0.65426(17)
O8B_2 O 0.8646(2) 0.5741(2) 0.34574(17)
O9B O -0.1603(2) 0.3430(2) 0.33802(17)
O9_2 O 0.1603(2) 0.6570(2) 0.66198(17)
O9B_2 O 0.8397(2) 0.3430(2) 0.33802(17)
C1B C 0.3723(3) 0.7845(3) 0.4152(2)
C2B C 0.2834(4) 0.9122(4) 0.4132(3)
H2B H 0.3469 0.9935 0.4173
H3B H 0.2244 0.9161 0.3427
C3B C 0.1864(3) 0.9279(3) 0.5010(2)
H4B H 0.1530 0.8353 0.5208
H5B H 0.1031 0.9838 0.4730
C4B C 0.2620(3) 0.9974(3) 0.5998(2)
C5B C 0.2859(3) 0.2943(3) 0.3866(2)
C6B C 0.1284(3) 0.2923(3) 0.3592(2)
H6B H 0.1033 0.2476 0.2883
H7B H 0.0855 0.2378 0.4137
C7B C 0.0712(3) 0.4407(3) 0.3560(3)
H8B H 0.1048 0.4898 0.2946
H9B H 0.1111 0.4890 0.4226
C8B C -0.0876(3) 0.4522(3) 0.3458(2)
loop_
_geom_bond_atom_site_label_1
_geom_bond_atom_site_label_2
_geom_bond_site_symmetry_1
_geom_bond_site_symmetry_2
Mn1 O1 1_555 1_555
Mn2 O1 1_555 1_555
Mn3 O1 1_555 1_555
O1 H1 1_555 1_555
O2 Mn1 1_555 1_555
O3 C1 1_555 1_555
O4 Mn2 1_555 1_555
O5 C4 1_555 1_555
O6 Mn1 1_555 1_555
O7 C5 1_555 1_555
O8 C8 1_555 1_555
O9 C8 1_555 1_555
C1 O2 1_555 1_555
C2 C1 1_555 1_555
H2 C2 1_555 1_555
H3 C2 1_555 1_555
C3 C2 1_555 1_555
H4 C3 1_555 1_555
H5 C3 1_555 1_555
C4 O4 1_555 1_555
C5 O6 1_555 1_555
C6 C5 1_555 1_555
H6 C6 1_555 1_555
H7 C6 1_555 1_555
C7 C6 1_555 1_555
H8 C7 1_555 1_555
H9 C7 1_555 1_555
C8 C7 1_555 1_555
Mn2B O7 1_555 1_555
Mn2_2 O9B 1_555 1_555
Mn2A O3B 1_555 1_555
Mn2B_2 O9 1_555 1_555
Mn2C O3 1_555 1_555
Mn3B O3 1_555 1_555
Mn3_2 O8B 1_555 1_555
Mn3_3 O5 1_555 1_555
Mn3A O3C 1_555 1_555
Mn3B_2 O5B 1_555 1_555
Mn3B_3 O8 1_555 1_555
Mn3C O7 1_555 1_555
O1B Mn1 1_555 1_555
H1B O1B 1_555 1_555
O2B Mn1 1_555 1_555
O3B Mn3 1_555 1_555
O3A Mn2B 1_555 1_555
O3C Mn2 1_555 1_555
O4B Mn2B 1_555 1_555
O5B C4B 1_555 1_555
O5_2 Mn3 1_555 1_555
O5B_2 Mn3B 1_555 1_555
O6B Mn1 1_555 1_555
O7B Mn2 1_555 1_555
O7A Mn2C 1_555 1_555
O7C Mn3 1_555 1_555
O8B C8B 1_555 1_555
O8_2 Mn3B 1_555 1_555
O8B_2 Mn3 1_555 1_555
O9B C8B 1_555 1_555
O9_2 Mn2B 1_555 1_555
O9B_2 Mn2 1_555 1_555
C1B O2B 1_555 1_555
C2B C1B 1_555 1_555
H2B C2B 1_555 1_555
H3B C2B 1_555 1_555
C3B C2B 1_555 1_555
H4B C3B 1_555 1_555
H5B C3B 1_555 1_555
C4B O4B 1_555 1_555
C5B O6B 1_555 1_555
C6B C5B 1_555 1_555
H6B C6B 1_555 1_555
H7B C6B 1_555 1_555
C7B C6B 1_555 1_555
H8B C7B 1_555 1_555
H9B C7B 1_555 1_555
C8B C7B 1_555 1_555
Mn2 O2 1_555 1_555
Mn3 O6 1_555 1_555
C3 C4 1_555 1_555
Mn2B O1B 1_555 1_555
Mn2B O2B 1_555 1_555
Mn2A O7C 1_555 1_555
Mn3B O1B 1_555 1_555
Mn3B O6B 1_555 1_555
Mn3B O7A 1_555 1_555
Mn3A O7B 1_555 1_555
Mn3C O3A 1_555 1_555
O3B C1B 1_555 1_555
O7B C5B 1_555 1_555
C3B C4B 1_555 1_555

#END
