
#######################################################################
#
#                 Cambridge Crystallographic Data Centre
#                                CCDC 
#
#######################################################################
#
# If this CIF has been generated from an entry in the Cambridge 
# Structural Database, then it will include bibliographic, chemical, 
# crystal, experimental, refinement or atomic coordinate data resulting 
# from the CCDC's data processing and validation procedures.
#
#######################################################################

data_WUVYOC
_symmetry_cell_setting           triclinic
_symmetry_space_group_name_H-M   'P -1'
_symmetry_Int_Tables_number      2
_space_group_name_Hall           '-P 1'
loop_
_symmetry_equiv_pos_site_id
_symmetry_equiv_pos_as_xyz
1 x,y,z
2 -x,-y,-z
_cell_length_a                   10.207(2)
_cell_length_b                   10.465(2)
_cell_length_c                   11.200(2)
_cell_angle_alpha                116.35(3)
_cell_angle_beta                 96.43(3)
_cell_angle_gamma                112.60(3)
_cell_volume                     930.202
loop_
_atom_site_label
_atom_site_type_symbol
_atom_site_fract_x
_atom_site_fract_y
_atom_site_fract_z
Mn1 Mn 0.33403(13) 0.60225(13) 0.28721(11)
Mn2 Mn 0.5000 0.5000 0.0000
Mn3 Mn 0.5000 1.0000 0.5000
O1 O 0.3034(5) 0.4535(6) 0.0670(5)
O2 O 0.5081(6) 0.8262(6) 0.3021(5)
O3 O 0.5124(6) 0.5611(7) 0.3450(6)
N1 N 0.1719(6) 0.3159(7) -0.0211(6)
N2 N 0.3914(7) 0.7785(8) 0.5161(6)
O4 O 0.6380(6) 0.5511(8) 0.1942(6)
C1 C -0.0661(8) 0.1846(10) -0.1880(8)
N3 N 0.4621(8) 0.7857(8) 0.6140(7)
C2 C 0.7575(9) 0.6060(10) 0.4151(8)
C3 C 0.6228(9) 0.5694(9) 0.3088(8)
O5 O 0.5685(7) 0.7540(7) 0.1065(6)
C4 C 0.0668(8) 0.3258(9) -0.0913(8)
H1 H 0.0821 0.4263 -0.0757
C5 C -0.0866(9) 0.0377(10) -0.2083(9)
H2 H -0.1748 -0.0587 -0.2742
C6 C 0.0237(9) 0.0349(10) -0.1307(9)
H3 H 0.0097 -0.0636 -0.1421
C7 C 0.1546(9) 0.1753(10) -0.0365(8)
H4 H 0.2303 0.1735 0.0161
C8 C 0.8967(10) 0.6504(12) 0.3994(9)
H5 H 0.9092 0.6539 0.3197
C9 C 0.5764(11) 0.8563(11) 0.2239(10)
C10 C 1.0174(11) 0.6895(14) 0.5025(10)
H6 H 1.1129 0.7242 0.4948
N4 N 0.5261(11) 0.7939(12) 0.7105(10)
C11 C 0.9970(9) 0.6776(11) 0.6153(9)
H7 H 1.0789 0.7057 0.6856
C12 C -0.1848(8) 0.1954(10) -0.2702(8)
O6 O -0.1719(6) 0.3331(7) -0.2271(6)
O7 O -0.2872(6) 0.0638(6) -0.3768(6)
C13 C 0.7421(9) 0.5935(9) 0.5309(7)
H8 H 0.6484 0.5622 0.5427
N5 N 0.8598(7) 0.6256(7) 0.6259(6)
O8 O 0.8423(6) 0.6122(7) 0.7365(5)
H9 H 0.639(11) 0.961(12) 0.254(10)
Mn1A Mn 0.66597(13) 0.39775(13) -0.28721(11)
Mn1A_2 Mn -0.33403(13) 0.39775(13) -0.28721(11)
Mn1A_3 Mn 0.66597(13) 0.39775(13) 0.71279(11)
Mn1_2 Mn 1.33403(13) 0.60225(13) 0.28721(11)
Mn1_3 Mn 0.33403(13) 0.60225(13) -0.71279(11)
Mn1A_4 Mn 0.66597(13) 1.39775(13) 0.71279(11)
Mn3_2 Mn -0.5000 0.0000 -0.5000
Mn3_3 Mn 1.5000 1.0000 0.5000
Mn3_4 Mn 0.5000 0.0000 -0.5000
O1A O 0.6966(5) 0.5465(6) -0.0670(5)
O2A O 0.4919(6) 0.1738(6) -0.3021(5)
O2A_2 O 0.4919(6) 1.1738(6) 0.6979(5)
O3A O 0.4876(6) 0.4389(7) -0.3450(6)
N1A N 0.8281(6) 0.6841(7) 0.0211(6)
N2A N 0.6086(7) 1.2215(8) 0.4839(6)
N2A_2 N 0.6086(7) 0.2215(8) -0.5161(6)
O4A O 0.3620(6) 0.4489(8) -0.1942(6)
C1A C 1.0661(8) 0.8154(10) 0.1880(8)
N3A N 0.5379(8) 1.2143(8) 0.3860(7)
C2A C 0.2425(9) 0.3940(10) -0.4151(8)
C3A C 0.3772(9) 0.4306(9) -0.3088(8)
O5A O 0.4315(7) 0.2460(7) -0.1065(6)
C4A C 0.9332(8) 0.6742(9) 0.0913(8)
H1A H 0.9179 0.5737 0.0757
C5A C 1.0866(9) 0.9623(10) 0.2083(9)
H2A H 1.1748 1.0587 0.2742
C6A C 0.9763(9) 0.9651(10) 0.1307(9)
H3A H 0.9903 1.0636 0.1421
C7A C 0.8454(9) 0.8247(10) 0.0365(8)
H4A H 0.7697 0.8265 -0.0161
C8A C 0.1033(10) 0.3496(12) -0.3994(9)
H5A H 0.0908 0.3461 -0.3197
C9A C 0.4236(11) 0.1437(11) -0.2239(10)
C10A C -0.0174(11) 0.3105(14) -0.5025(10)
H6A H -0.1129 0.2758 -0.4948
N4A N 0.4739(11) 1.2061(12) 0.2895(10)
C11A C 0.0030(9) 0.3224(11) -0.6153(9)
H7A H -0.0789 0.2943 -0.6856
C12A C 1.1848(8) 0.8046(10) 0.2702(8)
O6A O 1.1719(6) 0.6669(7) 0.2271(6)
O6A_2 O 0.1719(6) 0.6669(7) 0.2271(6)
O6_2 O 0.8281(6) 0.3331(7) -0.2271(6)
O7A O 1.2872(6) 0.9362(6) 0.3768(6)
O7_2 O 0.7128(6) 1.0638(6) 0.6232(6)
O7A_2 O 0.2872(6) 0.9362(6) 0.3768(6)
C13A C 0.2579(9) 0.4065(9) -0.5309(7)
H8A H 0.3516 0.4378 -0.5427
N5A N 0.1402(7) 0.3744(7) -0.6259(6)
O8A O 0.1577(6) 0.3878(7) -0.7365(5)
O8A_2 O 0.1577(6) 0.3878(7) 0.2635(5)
O8_2 O 0.8423(6) 0.6122(7) -0.2635(5)
H9A H 0.361(11) 0.039(12) -0.254(10)
O9 O 0.2711(19) 0.778(3) 0.941(2)
C14 C 0.288(3) 0.881(4) 0.911(4)
loop_
_geom_bond_atom_site_label_1
_geom_bond_atom_site_label_2
_geom_bond_site_symmetry_1
_geom_bond_site_symmetry_2
Mn1 O1 1_555 1_555
Mn2 O1 1_555 1_555
Mn3 O2 1_555 1_555
O1 N1 1_555 1_555
O2 Mn1 1_555 1_555
O3 Mn1 1_555 1_555
N1 C4 1_555 1_555
N2 Mn1 1_555 1_555
O4 Mn2 1_555 1_555
C1 C4 1_555 1_555
N3 N2 1_555 1_555
C2 C3 1_555 1_555
C3 O3 1_555 1_555
O5 Mn2 1_555 1_555
C4 H1 1_555 1_555
C5 C1 1_555 1_555
H2 C5 1_555 1_555
C6 C5 1_555 1_555
H3 C6 1_555 1_555
C7 N1 1_555 1_555
H4 C7 1_555 1_555
C8 C2 1_555 1_555
H5 C8 1_555 1_555
C9 O2 1_555 1_555
C10 C8 1_555 1_555
H6 C10 1_555 1_555
N4 N3 1_555 1_555
C11 C10 1_555 1_555
H7 C11 1_555 1_555
C12 C1 1_555 1_555
O6 C12 1_555 1_555
O7 C12 1_555 1_555
C13 C2 1_555 1_555
H8 C13 1_555 1_555
N5 C11 1_555 1_555
O8 N5 1_555 1_555
H9 C9 1_555 1_555
O9 C14 1_555 1_555
Mn1A O1A 1_555 1_555
Mn1A_2 O6 1_555 1_555
Mn1A_3 O8 1_555 1_555
Mn1_2 O6A 1_555 1_555
Mn1_3 O8A 1_555 1_555
Mn1A_4 O2A_2 1_555 1_555
Mn3_2 O7 1_555 1_555
Mn3_3 O7A 1_555 1_555
Mn3_4 O2A 1_555 1_555
O1A Mn2 1_555 1_555
O2A Mn1A 1_555 1_555
O2A_2 Mn3 1_555 1_555
O3A Mn1A 1_555 1_555
N1A O1A 1_555 1_555
N2A Mn3 1_555 1_555
N2A_2 Mn1A 1_555 1_555
O4A Mn2 1_555 1_555
C1A C4A 1_555 1_555
N3A N2A 1_555 1_555
C2A C3A 1_555 1_555
C3A O3A 1_555 1_555
O5A Mn2 1_555 1_555
C4A N1A 1_555 1_555
H1A C4A 1_555 1_555
C5A C1A 1_555 1_555
H2A C5A 1_555 1_555
C6A C5A 1_555 1_555
H3A C6A 1_555 1_555
C7A N1A 1_555 1_555
H4A C7A 1_555 1_555
C8A C2A 1_555 1_555
H5A C8A 1_555 1_555
C9A O2A 1_555 1_555
C10A C8A 1_555 1_555
H6A C10A 1_555 1_555
N4A N3A 1_555 1_555
C11A C10A 1_555 1_555
H7A C11A 1_555 1_555
C12A C1A 1_555 1_555
O6A C12A 1_555 1_555
O6A_2 Mn1 1_555 1_555
O6_2 Mn1A 1_555 1_555
O7A C12A 1_555 1_555
O7_2 Mn3 1_555 1_555
O7A_2 Mn3 1_555 1_555
C13A C2A 1_555 1_555
H8A C13A 1_555 1_555
N5A C11A 1_555 1_555
O8A N5A 1_555 1_555
O8A_2 Mn1 1_555 1_555
O8_2 Mn1A 1_555 1_555
H9A C9A 1_555 1_555
Mn3 N2 1_555 1_555
O4 C3 1_555 1_555
O5 C9 1_555 1_555
C6 C7 1_555 1_555
C13 N5 1_555 1_555
Mn1A_4 N2A 1_555 1_555
Mn3_4 N2A_2 1_555 1_555
O4A C3A 1_555 1_555
O5A C9A 1_555 1_555
C6A C7A 1_555 1_555
C13A N5A 1_555 1_555

#END
