
#######################################################################
#
#                 Cambridge Crystallographic Data Centre
#                                CCDC 
#
#######################################################################
#
# If this CIF has been generated from an entry in the Cambridge 
# Structural Database, then it will include bibliographic, chemical, 
# crystal, experimental, refinement or atomic coordinate data resulting 
# from the CCDC's data processing and validation procedures.
#
#######################################################################

data_WUWDAU
_symmetry_cell_setting           monoclinic
_symmetry_space_group_name_H-M   'P 21/c'
_symmetry_Int_Tables_number      14
_space_group_name_Hall           '-P 2ybc'
loop_
_symmetry_equiv_pos_site_id
_symmetry_equiv_pos_as_xyz
1 x,y,z
2 -x,1/2+y,1/2-z
3 -x,-y,-z
4 x,1/2-y,1/2+z
_cell_length_a                   13.7862(8)
_cell_length_b                   7.0810(4)
_cell_length_c                   6.1738(4)
_cell_angle_alpha                90
_cell_angle_beta                 96.219(1)
_cell_angle_gamma                90
_cell_volume                     599.14
loop_
_atom_site_label
_atom_site_type_symbol
_atom_site_fract_x
_atom_site_fract_y
_atom_site_fract_z
Cu1 Cu 0.060546(15) 0.88256(3) 0.21592(3)
S1 S -0.07980(3) 1.08371(5) 0.15283(6)
N1 N -0.13920(11) 0.9104(2) 0.5722(2)
C1 C -0.20070(11) 1.0373(2) 0.2147(2)
C2 C -0.28017(12) 1.0867(2) 0.0652(3)
H1 H -0.2691 1.1402 -0.0711
C3 C -0.21838(11) 0.9559(2) 0.4135(3)
C4 C -0.31357(13) 0.9244(2) 0.4595(3)
H2 H -0.3252 0.8672 0.5935
C5 C -0.37494(12) 1.0586(3) 0.1137(3)
H3 H -0.4283 1.0957 0.0123
C6 C -0.39199(12) 0.9763(3) 0.3098(3)
H4 H -0.4570 0.9554 0.3421
H5 H -0.1564(16) 0.827(3) 0.656(3)
H6 H -0.0893(15) 0.871(3) 0.518(4)
Cu1B Cu -0.060546(15) 1.11744(3) -0.21592(3)
Cu1A Cu -0.060546(15) 1.38256(3) 0.28408(3)
Cu1B_2 Cu -0.060546(15) 1.11744(3) 0.78408(3)
S1B S 0.07980(3) 0.91629(5) -0.15283(6)
S1A S 0.07980(3) 0.58371(5) 0.34717(6)
N1B N 0.13920(11) 1.0896(2) 0.4278(2)
H5B H 0.1564(16) 1.173(3) 0.344(3)
H6B H 0.0893(15) 1.129(3) 0.482(4)
loop_
_geom_bond_atom_site_label_1
_geom_bond_atom_site_label_2
_geom_bond_site_symmetry_1
_geom_bond_site_symmetry_2
Cu1 S1 1_555 1_555
S1 C1 1_555 1_555
N1 C3 1_555 1_555
C1 C2 1_555 1_555
C2 H1 1_555 1_555
C3 C1 1_555 1_555
C4 C3 1_555 1_555
H2 C4 1_555 1_555
C5 C2 1_555 1_555
H3 C5 1_555 1_555
C6 C4 1_555 1_555
H4 C6 1_555 1_555
H5 N1 1_555 1_555
H6 N1 1_555 1_555
Cu1B S1 1_555 1_555
Cu1A S1 1_555 1_555
Cu1B_2 N1 1_555 1_555
S1B Cu1 1_555 1_555
S1A Cu1 1_555 1_555
N1B Cu1 1_555 1_555
H5B N1B 1_555 1_555
H6B N1B 1_555 1_555
C5 C6 1_555 1_555
Cu1B S1B 1_555 1_555

#END
