
#######################################################################
#
#                 Cambridge Crystallographic Data Centre
#                                CCDC 
#
#######################################################################
#
# If this CIF has been generated from an entry in the Cambridge 
# Structural Database, then it will include bibliographic, chemical, 
# crystal, experimental, refinement or atomic coordinate data resulting 
# from the CCDC's data processing and validation procedures.
#
#######################################################################

data_WUWNIM
_symmetry_cell_setting           monoclinic
_symmetry_space_group_name_H-M   'P 21/c'
_symmetry_Int_Tables_number      14
_space_group_name_Hall           '-P 2ybc'
loop_
_symmetry_equiv_pos_site_id
_symmetry_equiv_pos_as_xyz
1 x,y,z
2 -x,1/2+y,1/2-z
3 -x,-y,-z
4 x,1/2-y,1/2+z
_cell_length_a                   14.415(3)
_cell_length_b                   7.0767(15)
_cell_length_c                   10.874(2)
_cell_angle_alpha                90
_cell_angle_beta                 102.272(4)
_cell_angle_gamma                90
_cell_volume                     1083.92
loop_
_atom_site_label
_atom_site_type_symbol
_atom_site_fract_x
_atom_site_fract_y
_atom_site_fract_z
C1 C 0.6432(6) 0.6396(10) 0.9386(6)
C2 C 0.7292(7) 0.6059(13) 1.0409(10)
H1 H 0.7265 0.6932 1.1101
C3 C 0.8195(9) 0.649(2) 0.9932(15)
H2 H 0.8239 0.5654 0.9241
H3 H 0.8178 0.7784 0.9631
C4 C 0.9065(11) 0.621(3) 1.103(2)
H4 H 0.9018 0.7030 1.1725
H5 H 0.9645 0.6514 1.0753
C5 C 0.9089(12) 0.412(4) 1.145(3)
H6 H 0.9653 0.3896 1.2100
H7 H 0.9111 0.3303 1.0744
C6 C 0.8202(9) 0.368(2) 1.1966(16)
H8 H 0.8218 0.2373 1.2239
H9 H 0.8185 0.4481 1.2684
C7 C 0.7315(7) 0.4023(13) 1.0928(11)
H10 H 0.7328 0.3143 1.0236
C8 C 0.6440(6) 0.3608(10) 1.1444(6)
In1 In 0.50098(4) 0.10721(5) 1.23345(4)
O1 O 0.4996(5) -0.1586(6) 1.1480(4)
H11 H 0.531(7) -0.146(12) 1.107(9)
O2 O 0.6129(7) 0.7989(11) 0.9136(7)
O3 O 0.6061(8) 0.5062(11) 0.8856(9)
O4 O 0.6028(8) 0.4896(11) 1.1734(12)
O5 O 0.6155(6) 0.2022(11) 1.1512(9)
In1A In 0.49902(4) -0.39279(5) 1.26655(4)
In1B In 0.49902(4) 0.89279(5) 0.76655(4)
In1C In 0.50098(4) 0.39279(5) 0.73345(4)
In1A_2 In 0.49902(4) 0.60721(5) 1.26655(4)
O1A O 0.5004(5) 0.3414(6) 1.3520(4)
H11A H 0.469(7) 0.354(12) 1.393(9)
O2B O 0.3871(7) 0.2011(11) 1.0864(7)
O3C O 0.6061(8) -0.0062(11) 1.3856(9)
O4A O 0.3972(8) -0.0104(11) 1.3266(12)
loop_
_geom_bond_atom_site_label_1
_geom_bond_atom_site_label_2
_geom_bond_site_symmetry_1
_geom_bond_site_symmetry_2
C1 C2 1_555 1_555
C2 H1 1_555 1_555
C3 C2 1_555 1_555
H2 C3 1_555 1_555
H3 C3 1_555 1_555
C4 C3 1_555 1_555
H4 C4 1_555 1_555
H5 C4 1_555 1_555
C5 C4 1_555 1_555
H6 C5 1_555 1_555
H7 C5 1_555 1_555
C6 C5 1_555 1_555
H8 C6 1_555 1_555
H9 C6 1_555 1_555
C7 C2 1_555 1_555
H10 C7 1_555 1_555
C8 C7 1_555 1_555
In1 O1 1_555 1_555
O1 H11 1_555 1_555
O2 C1 1_555 1_555
O3 C1 1_555 1_555
O4 C8 1_555 1_555
O5 C8 1_555 1_555
In1A O1 1_555 1_555
In1B O2 1_555 1_555
In1C O3 1_555 1_555
In1A_2 O4 1_555 1_555
O1A In1 1_555 1_555
H11A O1A 1_555 1_555
O2B In1 1_555 1_555
O3C In1 1_555 1_555
O4A In1 1_555 1_555
C6 C7 1_555 1_555
In1 O5 1_555 1_555
In1A_2 O1A 1_555 1_555

#END
