
#######################################################################
#
#                 Cambridge Crystallographic Data Centre
#                                CCDC 
#
#######################################################################
#
# If this CIF has been generated from an entry in the Cambridge 
# Structural Database, then it will include bibliographic, chemical, 
# crystal, experimental, refinement or atomic coordinate data resulting 
# from the CCDC's data processing and validation procedures.
#
#######################################################################

data_WUWQUB
_symmetry_cell_setting           cubic
_symmetry_space_group_name_H-M   'I a -3 d'
_symmetry_Int_Tables_number      230
_space_group_name_Hall           '-I 4bd 2c 3'
loop_
_symmetry_equiv_pos_site_id
_symmetry_equiv_pos_as_xyz
1 x,y,z
2 1/2-x,-y,1/2+z
3 -x,1/2+y,1/2-z
4 1/2+x,1/2-y,-z
5 z,x,y
6 1/2+z,1/2-x,-y
7 1/2-z,-x,1/2+y
8 -z,1/2+x,1/2-y
9 y,z,x
10 -y,1/2+z,1/2-x
11 1/2+y,1/2-z,-x
12 1/2-y,-z,1/2+x
13 3/4+y,1/4+x,1/4-z
14 3/4-y,3/4-x,3/4-z
15 1/4+y,1/4-x,3/4+z
16 1/4-y,3/4+x,1/4+z
17 3/4+x,1/4+z,1/4-y
18 1/4-x,3/4+z,1/4+y
19 3/4-x,3/4-z,3/4-y
20 1/4+x,1/4-z,3/4+y
21 3/4+z,1/4+y,1/4-x
22 1/4+z,1/4-y,3/4+x
23 1/4-z,3/4+y,1/4+x
24 3/4-z,3/4-y,3/4-x
25 1/2+x,1/2+y,1/2+z
26 -x,1/2-y,z
27 1/2-x,y,-z
28 x,-y,1/2-z
29 1/2+z,1/2+x,1/2+y
30 z,-x,1/2-y
31 -z,1/2-x,y
32 1/2-z,x,-y
33 1/2+y,1/2+z,1/2+x
34 1/2-y,z,-x
35 y,-z,1/2-x
36 -y,1/2-z,x
37 1/4+y,3/4+x,3/4-z
38 1/4-y,1/4-x,1/4-z
39 3/4+y,3/4-x,1/4+z
40 3/4-y,1/4+x,3/4+z
41 1/4+x,3/4+z,3/4-y
42 3/4-x,1/4+z,3/4+y
43 1/4-x,1/4-z,1/4-y
44 3/4+x,3/4-z,1/4+y
45 1/4+z,3/4+y,3/4-x
46 3/4+z,3/4-y,1/4+x
47 3/4-z,1/4+y,3/4+x
48 1/4-z,1/4-y,1/4-x
49 -x,-y,-z
50 1/2+x,y,1/2-z
51 x,1/2-y,1/2+z
52 1/2-x,1/2+y,z
53 -z,-x,-y
54 1/2-z,1/2+x,y
55 1/2+z,x,1/2-y
56 z,1/2-x,1/2+y
57 -y,-z,-x
58 y,1/2-z,1/2+x
59 1/2-y,1/2+z,x
60 1/2+y,z,1/2-x
61 1/4-y,3/4-x,3/4+z
62 1/4+y,1/4+x,1/4+z
63 3/4-y,3/4+x,1/4-z
64 3/4+y,1/4-x,3/4-z
65 1/4-x,3/4-z,3/4+y
66 3/4+x,1/4-z,3/4-y
67 1/4+x,1/4+z,1/4+y
68 3/4-x,3/4+z,1/4-y
69 1/4-z,3/4-y,3/4+x
70 3/4-z,3/4+y,1/4-x
71 3/4+z,1/4-y,3/4-x
72 1/4+z,1/4+y,1/4+x
73 1/2-x,1/2-y,1/2-z
74 x,1/2+y,-z
75 1/2+x,-y,z
76 -x,y,1/2+z
77 1/2-z,1/2-x,1/2-y
78 -z,x,1/2+y
79 z,1/2+x,-y
80 1/2+z,-x,y
81 1/2-y,1/2-z,1/2-x
82 1/2+y,-z,x
83 -y,z,1/2+x
84 y,1/2+z,-x
85 3/4-y,1/4-x,1/4+z
86 3/4+y,3/4+x,3/4+z
87 1/4-y,1/4+x,3/4-z
88 1/4+y,3/4-x,1/4-z
89 3/4-x,1/4-z,1/4+y
90 1/4+x,3/4-z,1/4-y
91 3/4+x,3/4+z,3/4+y
92 1/4-x,1/4+z,3/4-y
93 3/4-z,1/4-y,1/4+x
94 1/4-z,1/4+y,3/4-x
95 1/4+z,3/4-y,1/4-x
96 3/4+z,3/4+y,3/4+x
_cell_length_a                   31.3268(8)
_cell_length_b                   31.3268(8)
_cell_length_c                   31.3268(8)
_cell_angle_alpha                90
_cell_angle_beta                 90
_cell_angle_gamma                90
_cell_volume                     30743.1
loop_
_atom_site_label
_atom_site_type_symbol
_atom_site_fract_x
_atom_site_fract_y
_atom_site_fract_z
Zn1 Zn 0.0000 0.7500 0.1250
N1 N 0.04239(9) 0.78305(8) 0.02503(9)
N2 N 0.00914(9) 0.79965(9) 0.04052(9)
N3 N 0.05757(9) 0.75093(9) 0.09543(9)
C1 C 0.12272(12) 0.72684(12) 0.07902(12)
H1 H 0.1500 0.7138 0.0811
C2 C -0.01821(11) 0.81814(11) 0.00929(11)
C3 C -0.01426(12) 0.81017(12) -0.03450(12)
H2 H 0.0083 0.7928 -0.0451
N4 N 0.10572(9) 0.74729(9) 0.04395(9)
C4 C 0.09255(11) 0.72915(12) 0.11006(12)
H3 H 0.0953 0.7174 0.1379
C5 C 0.06663(10) 0.76189(10) 0.05554(11)
C6 C 0.1250 0.75220(11) 0.00220(11)
H4 H 0.1471 0.7299 -0.0018
C7 C -0.05130(12) 0.84305(12) 0.02503(13)
H5 H -0.0538 0.8482 0.0548
C8 C -0.08079(14) 0.86031(14) -0.00329(15)
H6 H -0.1037 0.8773 0.0071
C9 C -0.07674(13) 0.85261(14) -0.04666(14)
H7 H -0.0969 0.8644 -0.0660
C10 C -0.04368(14) 0.82799(14) -0.06198(14)
H8 H -0.0411 0.8232 -0.0918
Zn1Q Zn 0.2500 0.8750 0.0000
Zn1R Zn -0.2500 0.6250 0.0000
Zn1T Zn -0.1250 1.0000 0.2500
Zn1V Zn 0.1250 0.5000 0.2500
Zn1C Zn 0.5000 0.7500 -0.1250
Zn1F Zn 0.3750 1.0000 0.2500
N1Q N 0.20761(9) 0.77503(9) 0.03305(8)
N1Y N -0.04239(9) 0.71695(8) 0.02503(9)
N1QA N -0.20761(9) 0.72497(9) 0.03305(8)
N1JB N -0.03305(8) 0.79239(9) 0.22497(9)
N1ZA N -0.02503(9) 0.95761(9) 0.21695(8)
N1IC N 0.03305(8) 0.70761(9) 0.22497(9)
N1ZB N 0.02503(9) 0.54239(9) 0.21695(8)
N1NA N 0.29239(9) 0.77503(9) -0.03305(8)
N1Z N 0.45761(9) 0.78305(8) -0.02503(9)
N1CC N 0.28305(8) 0.97497(9) 0.04239(9)
N1PC N 0.27503(9) 0.96695(8) 0.20761(9)
N2Q N 0.24086(9) 0.79052(9) 0.04965(9)
N2Y N -0.00914(9) 0.70035(9) 0.04052(9)
N2QA N -0.24086(9) 0.70948(9) 0.04965(9)
N2JB N -0.04965(9) 0.75914(9) 0.20948(9)
N2ZA N -0.04052(9) 0.99086(9) 0.20035(9)
N2IC N 0.04965(9) 0.74086(9) 0.20948(9)
N2ZB N 0.04052(9) 0.50914(9) 0.20035(9)
N2NA N 0.25914(9) 0.79052(9) -0.04965(9)
N2Z N 0.49086(9) 0.79965(9) -0.04052(9)
N2CC N 0.29965(9) 0.95948(9) 0.00914(9)
N2PC N 0.29052(9) 0.95035(9) 0.24086(9)
N3Q N 0.19243(9) 0.84543(9) 0.00093(9)
N3Y N -0.05757(9) 0.74907(9) 0.09543(9)
N3QA N -0.19243(9) 0.65457(9) 0.00093(9)
N3JB N -0.00093(9) 0.80757(9) 0.15457(9)
N3ZA N -0.09543(9) 0.94243(9) 0.24907(9)
N3IC N 0.00093(9) 0.69243(9) 0.15457(9)
N3ZB N 0.09543(9) 0.55757(9) 0.24907(9)
N3NA N 0.30757(9) 0.84543(9) -0.00093(9)
N3Z N 0.44243(9) 0.75093(9) -0.09543(9)
N3CC N 0.25093(9) 0.90457(9) 0.05757(9)
N3PC N 0.34543(9) 0.99907(9) 0.19243(9)
N3DB N 0.24907(9) 0.90457(9) -0.05757(9)
N3R N -0.30757(9) 0.65457(9) -0.00093(9)
N3FB N -0.25093(9) 0.59543(9) 0.05757(9)
N3EC N -0.24907(9) 0.59543(9) -0.05757(9)
C1Q C 0.12728(12) 0.82902(12) -0.02316(12)
C1Y C -0.12272(12) 0.77316(12) 0.07902(12)
C1QA C -0.12728(12) 0.67098(12) -0.02316(12)
C1JB C 0.02316(12) 0.87272(12) 0.17098(12)
C1ZA C -0.07902(12) 0.87728(12) 0.27316(12)
C1IC C -0.02316(12) 0.62728(12) 0.17098(12)
C1ZB C 0.07902(12) 0.62272(12) 0.27316(12)
C1NA C 0.37272(12) 0.82902(12) 0.02316(12)
C1Z C 0.37728(12) 0.72684(12) -0.07902(12)
C1CC C 0.22684(12) 0.92098(12) 0.12272(12)
C1PC C 0.32902(12) 1.02316(12) 0.12728(12)
H1Q H 0.1000 0.8311 -0.0362
H1Y H -0.1500 0.7862 0.0811
H1QA H -0.1000 0.6689 -0.0362
H1JB H 0.0362 0.9000 0.1689
H1ZA H -0.0811 0.8500 0.2862
H1IC H -0.0362 0.6000 0.1689
H1ZB H 0.0811 0.6500 0.2862
H1NA H 0.4000 0.8311 0.0362
H1Z H 0.3500 0.7138 -0.0811
H1CC H 0.2138 0.9189 0.1500
H1PC H 0.3311 1.0362 0.1000
C2Q C 0.26821(11) 0.75929(11) 0.06814(11)
C2Y C 0.01821(11) 0.68186(11) 0.00929(11)
C2QA C -0.26821(11) 0.74071(11) 0.06814(11)
C2JB C -0.06814(11) 0.73179(11) 0.24071(11)
C2ZA C -0.00929(11) 1.01821(11) 0.18186(11)
C2IC C 0.06814(11) 0.76821(11) 0.24071(11)
C2ZB C 0.00929(11) 0.48179(11) 0.18186(11)
C2NA C 0.23179(11) 0.75929(11) -0.06814(11)
C2Z C 0.51821(11) 0.81814(11) -0.00929(11)
C2CC C 0.31814(11) 0.99071(11) -0.01821(11)
C2PC C 0.25929(11) 0.93186(11) 0.26821(11)
C3Q C 0.26426(12) 0.71550(12) 0.06017(12)
C3Y C 0.01426(12) 0.68983(12) -0.03450(12)
C3QA C -0.26426(12) 0.78450(12) 0.06017(12)
C3JB C -0.06017(12) 0.73574(12) 0.28450(12)
C3ZA C 0.03450(12) 1.01426(12) 0.18983(12)
C3IC C 0.06017(12) 0.76426(12) 0.28450(12)
C3ZB C -0.03450(12) 0.48574(12) 0.18983(12)
C3NA C 0.23574(12) 0.71550(12) -0.06017(12)
C3Z C 0.51426(12) 0.81017(12) 0.03450(12)
C3CC C 0.31017(12) 1.03450(12) -0.01426(12)
C3PC C 0.21550(12) 0.93983(12) 0.26426(12)
H2Q H 0.2417 0.7049 0.0428
H2Y H -0.0083 0.7072 -0.0451
H2QA H -0.2417 0.7951 0.0428
H2JB H -0.0428 0.7583 0.2951
H2ZA H 0.0451 0.9917 0.2072
H2IC H 0.0428 0.7417 0.2951
H2ZB H -0.0451 0.5083 0.2072
H2NA H 0.2583 0.7049 -0.0428
H2Z H 0.4917 0.7928 0.0451
H2CC H 0.2928 1.0451 0.0083
H2PC H 0.2049 0.9572 0.2417
N4Q N 0.14428(9) 0.79395(9) -0.00271(9)
N4Y N -0.10572(9) 0.75271(9) 0.04395(9)
N4QA N -0.14428(9) 0.70605(9) -0.00271(9)
N4JB N 0.00271(9) 0.85572(9) 0.20605(9)
N4ZA N -0.04395(9) 0.89428(9) 0.25271(9)
N4IC N -0.00271(9) 0.64428(9) 0.20605(9)
N4ZB N 0.04395(9) 0.60572(9) 0.25271(9)
N4NA N 0.35572(9) 0.79395(9) 0.00271(9)
N4Z N 0.39428(9) 0.74729(9) -0.04395(9)
N4CC N 0.24729(9) 0.95605(9) 0.10572(9)
N4PC N 0.29395(9) 1.00271(9) 0.14428(9)
C4Q C 0.15745(11) 0.86006(12) -0.02085(12)
C4Y C -0.09255(11) 0.77085(12) 0.11006(12)
C4QA C -0.15745(11) 0.63994(12) -0.02085(12)
C4JB C 0.02085(12) 0.84255(11) 0.13994(12)
C4ZA C -0.11006(12) 0.90745(11) 0.27085(12)
C4IC C -0.02085(12) 0.65745(11) 0.13994(12)
C4ZB C 0.11006(12) 0.59255(11) 0.27085(12)
C4NA C 0.34255(11) 0.86006(12) 0.02085(12)
C4Z C 0.40745(11) 0.72915(12) -0.11006(12)
C4CC C 0.22915(12) 0.88994(12) 0.09255(11)
C4PC C 0.36006(12) 1.02085(12) 0.15745(11)
H3Q H 0.1547 0.8879 -0.0326
H3Y H -0.0953 0.7826 0.1379
H3QA H -0.1547 0.6121 -0.0326
H3JB H 0.0326 0.8453 0.1121
H3ZA H -0.1379 0.9047 0.2826
H3IC H -0.0326 0.6547 0.1121
H3ZB H 0.1379 0.5953 0.2826
H3NA H 0.3453 0.8879 0.0326
H3Z H 0.4047 0.7174 -0.1379
H3CC H 0.2174 0.8621 0.0953
H3PC H 0.3879 1.0326 0.1547
C5Q C 0.18337(10) 0.80554(11) 0.01189(10)
C5Y C -0.06663(10) 0.73811(10) 0.05554(11)
C5QA C -0.18337(10) 0.69446(11) 0.01189(10)
C5JB C -0.01189(10) 0.81663(10) 0.19446(11)
C5ZA C -0.05554(11) 0.93337(10) 0.23811(10)
C5IC C 0.01189(10) 0.68337(10) 0.19446(11)
C5ZB C 0.05554(11) 0.56663(10) 0.23811(10)
C5NA C 0.31663(10) 0.80554(11) -0.01189(10)
C5Z C 0.43337(10) 0.76189(10) -0.05554(11)
C5CC C 0.26189(10) 0.94446(11) 0.06663(10)
C5PC C 0.30554(11) 0.98811(10) 0.18337(10)
C6Y C -0.1250 0.74780(11) 0.00220(11)
C6ZA C -0.00220(11) 0.8750 0.24780(11)
C6ZB C 0.00220(11) 0.6250 0.24780(11)
C6Z C 0.3750 0.75220(11) -0.00220(11)
C6CC C 0.25220(11) 0.99780(11) 0.1250
H4Q H 0.1029 0.7482 -0.0201
H4Y H -0.1471 0.7701 -0.0018
H4QA H -0.1029 0.7518 -0.0201
H4JB H 0.0201 0.8971 0.2518
H4ZA H 0.0018 0.8529 0.2701
H4IC H -0.0201 0.6029 0.2518
H4ZB H -0.0018 0.6471 0.2701
H4NA H 0.3971 0.7482 0.0201
H4Z H 0.3529 0.7299 0.0018
H4CC H 0.2299 1.0018 0.1471
H4PC H 0.2482 1.0201 0.1029
C7Q C 0.30130(12) 0.77503(13) 0.09305(12)
C7Y C 0.05130(12) 0.65695(12) 0.02503(13)
C7QA C -0.30130(12) 0.72497(13) 0.09305(12)
C7JB C -0.09305(12) 0.69870(12) 0.22497(13)
C7ZA C -0.02503(13) 1.05130(12) 0.15695(12)
C7IC C 0.09305(12) 0.80130(12) 0.22497(13)
C7ZB C 0.02503(13) 0.44870(12) 0.15695(12)
C7NA C 0.19870(12) 0.77503(13) -0.09305(12)
C7Z C 0.55130(12) 0.84305(12) -0.02503(13)
C7CC C 0.34305(12) 0.97497(13) -0.05130(12)
C7PC C 0.27503(13) 0.90695(12) 0.30130(12)
H5Q H 0.3038 0.8048 0.0982
H5Y H 0.0538 0.6518 0.0548
H5QA H -0.3038 0.6952 0.0982
H5JB H -0.0982 0.6962 0.1952
H5ZA H -0.0548 1.0538 0.1518
H5IC H 0.0982 0.8038 0.1952
H5ZB H 0.0548 0.4462 0.1518
H5NA H 0.1962 0.8048 -0.0982
H5Z H 0.5538 0.8482 -0.0548
H5CC H 0.3482 0.9452 -0.0538
H5PC H 0.3048 0.9018 0.3038
C8Q C 0.33079(14) 0.74671(15) 0.11031(14)
C8Y C 0.08079(14) 0.63969(14) -0.00329(15)
C8QA C -0.33079(14) 0.75329(15) 0.11031(14)
C8JB C -0.11031(14) 0.66921(14) 0.25329(15)
C8ZA C 0.00329(15) 1.08079(14) 0.13969(14)
C8IC C 0.11031(14) 0.83079(14) 0.25329(15)
C8ZB C -0.00329(15) 0.41921(14) 0.13969(14)
C8NA C 0.16921(14) 0.74671(15) -0.11031(14)
C8Z C 0.58079(14) 0.86031(14) 0.00329(15)
C8CC C 0.36031(14) 1.00329(15) -0.08079(14)
C8PC C 0.24671(15) 0.88969(14) 0.33079(14)
H6Q H 0.3537 0.7571 0.1273
H6Y H 0.1037 0.6227 0.0071
H6QA H -0.3537 0.7429 0.1273
H6JB H -0.1273 0.6463 0.2429
H6ZA H -0.0071 1.1037 0.1227
H6IC H 0.1273 0.8537 0.2429
H6ZB H 0.0071 0.3963 0.1227
H6NA H 0.1463 0.7571 -0.1273
H6Z H 0.6037 0.8773 -0.0071
H6CC H 0.3773 0.9929 -0.1037
H6PC H 0.2571 0.8727 0.3537
C9Q C 0.32674(13) 0.70334(14) 0.10261(14)
C9Y C 0.07674(13) 0.64739(14) -0.04666(14)
C9QA C -0.32674(13) 0.79666(14) 0.10261(14)
C9JB C -0.10261(14) 0.67326(13) 0.29666(14)
C9ZA C 0.04666(14) 1.07674(13) 0.14739(14)
C9IC C 0.10261(14) 0.82674(13) 0.29666(14)
C9ZB C -0.04666(14) 0.42326(13) 0.14739(14)
C9NA C 0.17326(13) 0.70334(14) -0.10261(14)
C9Z C 0.57674(13) 0.85261(14) 0.04666(14)
C9CC C 0.35261(14) 1.04666(14) -0.07674(13)
C9PC C 0.20334(14) 0.89739(14) 0.32674(13)
H7Q H 0.3469 0.6840 0.1144
H7Y H 0.0969 0.6356 -0.0660
H7QA H -0.3469 0.8160 0.1144
H7JB H -0.1144 0.6531 0.3160
H7ZA H 0.0660 1.0969 0.1356
H7IC H 0.1144 0.8469 0.3160
H7ZB H -0.0660 0.4031 0.1356
H7NA H 0.1531 0.6840 -0.1144
H7Z H 0.5969 0.8644 0.0660
H7CC H 0.3644 1.0660 -0.0969
H7PC H 0.1840 0.8856 0.3469
C10Q C 0.29368(14) 0.68802(14) 0.07799(14)
C10Y C 0.04368(14) 0.67201(14) -0.06198(14)
C10QA C -0.29368(14) 0.81198(14) 0.07799(14)
C10JB C -0.07799(14) 0.70632(14) 0.31198(14)
C10ZA C 0.06198(14) 1.04368(14) 0.17201(14)
C10IC C 0.07799(14) 0.79368(14) 0.31198(14)
C10ZB C -0.06198(14) 0.45632(14) 0.17201(14)
C10NA C 0.20632(14) 0.68802(14) -0.07799(14)
C10Z C 0.54368(14) 0.82799(14) 0.06198(14)
C10CC C 0.32799(14) 1.06198(14) -0.04368(14)
C10PC C 0.18802(14) 0.92201(14) 0.29368(14)
H8Q H 0.2911 0.6582 0.0732
H8Y H 0.0411 0.6768 -0.0918
H8QA H -0.2911 0.8418 0.0732
H8JB H -0.0732 0.7089 0.3418
H8ZA H 0.0918 1.0411 0.1768
H8IC H 0.0732 0.7911 0.3418
H8ZB H -0.0918 0.4589 0.1768
H8NA H 0.2089 0.6582 -0.0732
H8Z H 0.5411 0.8232 0.0918
H8CC H 0.3232 1.0918 -0.0411
H8PC H 0.1582 0.9268 0.2911
F1 F 0.15010(9) 0.59869(9) 0.06437(10)
F2 F 0.22184(9) 0.59963(9) 0.06530(10)
B1 B 0.18643(18) 0.6250 0.06357(18)
F1UA F 0.18563(10) 0.65131(9) 0.09990(9)
F2UA F 0.18470(10) 0.65037(9) 0.02816(9)
O1 O 0.09754(17) 0.6250 0.15246(17)
H9 H 0.0750(10) 0.615(3) 0.1433(13)
H9UA H 0.1067(13) 0.635(3) 0.1750(10)
O2 O 0.09110(16) 0.53196(17) 0.03659(15)
H10 H 0.073(2) 0.526(3) 0.017(2)
O3 O 0.0614(2) 0.89312(19) 0.04846(18)
H11 H 0.051(3) 0.897(3) 0.0207(9)
H12 H 0.046(3) 0.9181(13) 0.058(3)
O4 O -0.02624(14) 0.97376(14) -0.02624(14)
H13? H 0.1160(3) 0.6250 0.1340(3)
loop_
_geom_bond_atom_site_label_1
_geom_bond_atom_site_label_2
_geom_bond_site_symmetry_1
_geom_bond_site_symmetry_2
Zn1 N3 1_555 1_555
N1 N2 1_555 1_555
N2 C2 1_555 1_555
N3 C4 1_555 1_555
C1 H1 1_555 1_555
C2 C3 1_555 1_555
C3 H2 1_555 1_555
N4 C1 1_555 1_555
C4 C1 1_555 1_555
H3 C4 1_555 1_555
C5 N1 1_555 1_555
C6 N4 1_555 1_555
H4 C6 1_555 1_555
C7 C2 1_555 1_555
H5 C7 1_555 1_555
C8 C7 1_555 1_555
H6 C8 1_555 1_555
C9 C8 1_555 1_555
H7 C9 1_555 1_555
C10 C3 1_555 1_555
H8 C10 1_555 1_555
F1 B1 1_555 1_555
F2 B1 1_555 1_555
B1 F1UA 1_555 1_555
O1 H9 1_555 1_555
O2 H10 1_555 1_555
O3 H11 1_555 1_555
H12 O3 1_555 1_555
Zn1Q N3Q 1_555 1_555
Zn1R N3QA 1_555 1_555
Zn1T N3ZA 1_555 1_555
Zn1V N3ZB 1_555 1_555
Zn1C N3Z 1_555 1_555
Zn1F N3PC 1_555 1_555
N1Q N2Q 1_555 1_555
N1Y N2Y 1_555 1_555
N1QA N2QA 1_555 1_555
N1JB N2JB 1_555 1_555
N1ZA N2ZA 1_555 1_555
N1IC N2IC 1_555 1_555
N1ZB N2ZB 1_555 1_555
N1NA N2NA 1_555 1_555
N1Z N2Z 1_555 1_555
N1CC N2CC 1_555 1_555
N1PC N2PC 1_555 1_555
N2Q C2Q 1_555 1_555
N2Y C2Y 1_555 1_555
N2QA C2QA 1_555 1_555
N2JB C2JB 1_555 1_555
N2ZA C2ZA 1_555 1_555
N2IC C2IC 1_555 1_555
N2ZB C2ZB 1_555 1_555
N2NA C2NA 1_555 1_555
N2Z C2Z 1_555 1_555
N2CC C2CC 1_555 1_555
N2PC C2PC 1_555 1_555
N3Q C4Q 1_555 1_555
N3Y Zn1 1_555 1_555
N3QA C4QA 1_555 1_555
N3JB Zn1 1_555 1_555
N3ZA C4ZA 1_555 1_555
N3IC Zn1 1_555 1_555
N3ZB C4ZB 1_555 1_555
N3NA Zn1Q 1_555 1_555
N3Z C4Z 1_555 1_555
N3CC Zn1Q 1_555 1_555
N3PC C4PC 1_555 1_555
N3DB Zn1Q 1_555 1_555
N3R Zn1R 1_555 1_555
N3FB Zn1R 1_555 1_555
N3EC Zn1R 1_555 1_555
C1Q H1Q 1_555 1_555
C1Y H1Y 1_555 1_555
C1QA H1QA 1_555 1_555
C1JB H1JB 1_555 1_555
C1ZA H1ZA 1_555 1_555
C1IC H1IC 1_555 1_555
C1ZB H1ZB 1_555 1_555
C1NA H1NA 1_555 1_555
C1Z H1Z 1_555 1_555
C1CC H1CC 1_555 1_555
C1PC H1PC 1_555 1_555
C2Q C3Q 1_555 1_555
C2Y C3Y 1_555 1_555
C2QA C3QA 1_555 1_555
C2JB C3JB 1_555 1_555
C2ZA C3ZA 1_555 1_555
C2IC C3IC 1_555 1_555
C2ZB C3ZB 1_555 1_555
C2NA C3NA 1_555 1_555
C2Z C3Z 1_555 1_555
C2CC C3CC 1_555 1_555
C2PC C3PC 1_555 1_555
C3Q H2Q 1_555 1_555
C3Y H2Y 1_555 1_555
C3QA H2QA 1_555 1_555
C3JB H2JB 1_555 1_555
C3ZA H2ZA 1_555 1_555
C3IC H2IC 1_555 1_555
C3ZB H2ZB 1_555 1_555
C3NA H2NA 1_555 1_555
C3Z H2Z 1_555 1_555
C3CC H2CC 1_555 1_555
C3PC H2PC 1_555 1_555
N4Q C6 1_555 1_555
N4Y C1Y 1_555 1_555
N4QA C1QA 1_555 1_555
N4JB C1JB 1_555 1_555
N4ZA C1ZA 1_555 1_555
N4IC C1IC 1_555 1_555
N4ZB C1ZB 1_555 1_555
N4NA C1NA 1_555 1_555
N4Z C1Z 1_555 1_555
N4CC C1CC 1_555 1_555
N4PC C1PC 1_555 1_555
C4Q C1Q 1_555 1_555
C4Y N3Y 1_555 1_555
C4QA C1QA 1_555 1_555
C4JB N3JB 1_555 1_555
C4ZA C1ZA 1_555 1_555
C4IC N3IC 1_555 1_555
C4ZB C1ZB 1_555 1_555
C4NA N3NA 1_555 1_555
C4Z C1Z 1_555 1_555
C4CC N3CC 1_555 1_555
C4PC C1PC 1_555 1_555
H3Q C4Q 1_555 1_555
H3Y C4Y 1_555 1_555
H3QA C4QA 1_555 1_555
H3JB C4JB 1_555 1_555
H3ZA C4ZA 1_555 1_555
H3IC C4IC 1_555 1_555
H3ZB C4ZB 1_555 1_555
H3NA C4NA 1_555 1_555
H3Z C4Z 1_555 1_555
H3CC C4CC 1_555 1_555
H3PC C4PC 1_555 1_555
C5Q N1Q 1_555 1_555
C5Y N1Y 1_555 1_555
C5QA N1QA 1_555 1_555
C5JB N1JB 1_555 1_555
C5ZA N1ZA 1_555 1_555
C5IC N1IC 1_555 1_555
C5ZB N1ZB 1_555 1_555
C5NA N1NA 1_555 1_555
C5Z N1Z 1_555 1_555
C5CC N1CC 1_555 1_555
C5PC N1PC 1_555 1_555
C6Y N4Y 1_555 1_555
C6ZA N4JB 1_555 1_555
C6ZB N4IC 1_555 1_555
C6Z N4NA 1_555 1_555
C6CC N4CC 1_555 1_555
H4Q C6 1_555 1_555
H4Y C6Y 1_555 1_555
H4QA C6Y 1_555 1_555
H4JB C6ZA 1_555 1_555
H4ZA C6ZA 1_555 1_555
H4IC C6ZB 1_555 1_555
H4ZB C6ZB 1_555 1_555
H4NA C6Z 1_555 1_555
H4Z C6Z 1_555 1_555
H4CC C6CC 1_555 1_555
H4PC C6CC 1_555 1_555
C7Q C2Q 1_555 1_555
C7Y C2Y 1_555 1_555
C7QA C2QA 1_555 1_555
C7JB C2JB 1_555 1_555
C7ZA C2ZA 1_555 1_555
C7IC C2IC 1_555 1_555
C7ZB C2ZB 1_555 1_555
C7NA C2NA 1_555 1_555
C7Z C2Z 1_555 1_555
C7CC C2CC 1_555 1_555
C7PC C2PC 1_555 1_555
H5Q C7Q 1_555 1_555
H5Y C7Y 1_555 1_555
H5QA C7QA 1_555 1_555
H5JB C7JB 1_555 1_555
H5ZA C7ZA 1_555 1_555
H5IC C7IC 1_555 1_555
H5ZB C7ZB 1_555 1_555
H5NA C7NA 1_555 1_555
H5Z C7Z 1_555 1_555
H5CC C7CC 1_555 1_555
H5PC C7PC 1_555 1_555
C8Q C7Q 1_555 1_555
C8Y C7Y 1_555 1_555
C8QA C7QA 1_555 1_555
C8JB C7JB 1_555 1_555
C8ZA C7ZA 1_555 1_555
C8IC C7IC 1_555 1_555
C8ZB C7ZB 1_555 1_555
C8NA C7NA 1_555 1_555
C8Z C7Z 1_555 1_555
C8CC C7CC 1_555 1_555
C8PC C7PC 1_555 1_555
H6Q C8Q 1_555 1_555
H6Y C8Y 1_555 1_555
H6QA C8QA 1_555 1_555
H6JB C8JB 1_555 1_555
H6ZA C8ZA 1_555 1_555
H6IC C8IC 1_555 1_555
H6ZB C8ZB 1_555 1_555
H6NA C8NA 1_555 1_555
H6Z C8Z 1_555 1_555
H6CC C8CC 1_555 1_555
H6PC C8PC 1_555 1_555
C9Q C8Q 1_555 1_555
C9Y C8Y 1_555 1_555
C9QA C8QA 1_555 1_555
C9JB C8JB 1_555 1_555
C9ZA C8ZA 1_555 1_555
C9IC C8IC 1_555 1_555
C9ZB C8ZB 1_555 1_555
C9NA C8NA 1_555 1_555
C9Z C8Z 1_555 1_555
C9CC C8CC 1_555 1_555
C9PC C8PC 1_555 1_555
H7Q C9Q 1_555 1_555
H7Y C9Y 1_555 1_555
H7QA C9QA 1_555 1_555
H7JB C9JB 1_555 1_555
H7ZA C9ZA 1_555 1_555
H7IC C9IC 1_555 1_555
H7ZB C9ZB 1_555 1_555
H7NA C9NA 1_555 1_555
H7Z C9Z 1_555 1_555
H7CC C9CC 1_555 1_555
H7PC C9PC 1_555 1_555
C10Q C3Q 1_555 1_555
C10Y C3Y 1_555 1_555
C10QA C3QA 1_555 1_555
C10JB C3JB 1_555 1_555
C10ZA C3ZA 1_555 1_555
C10IC C3IC 1_555 1_555
C10ZB C3ZB 1_555 1_555
C10NA C3NA 1_555 1_555
C10Z C3Z 1_555 1_555
C10CC C3CC 1_555 1_555
C10PC C3PC 1_555 1_555
H8Q C10Q 1_555 1_555
H8Y C10Y 1_555 1_555
H8QA C10QA 1_555 1_555
H8JB C10JB 1_555 1_555
H8ZA C10ZA 1_555 1_555
H8IC C10IC 1_555 1_555
H8ZB C10ZB 1_555 1_555
H8NA C10NA 1_555 1_555
H8Z C10Z 1_555 1_555
H8CC C10CC 1_555 1_555
H8PC C10PC 1_555 1_555
F2UA B1 1_555 1_555
H9UA O1 1_555 1_555
N3 C5 1_555 1_555
N4 C5 1_555 1_555
C9 C10 1_555 1_555
N3Q C5Q 1_555 1_555
N3Y C5Y 1_555 1_555
N3QA C5QA 1_555 1_555
N3JB C5JB 1_555 1_555
N3ZA C5ZA 1_555 1_555
N3IC C5IC 1_555 1_555
N3ZB C5ZB 1_555 1_555
N3NA C5NA 1_555 1_555
N3Z C5Z 1_555 1_555
N3CC C5CC 1_555 1_555
N3PC C5PC 1_555 1_555
C1Q N4Q 1_555 1_555
C1Y C4Y 1_555 1_555
C1JB C4JB 1_555 1_555
C1IC C4IC 1_555 1_555
C1NA C4NA 1_555 1_555
C1CC C4CC 1_555 1_555
N4Q C5Q 1_555 1_555
N4Y C5Y 1_555 1_555
N4QA C5QA 1_555 1_555
N4QA C6Y 1_555 1_555
N4JB C5JB 1_555 1_555
N4ZA C5ZA 1_555 1_555
N4ZA C6ZA 1_555 1_555
N4IC C5IC 1_555 1_555
N4ZB C5ZB 1_555 1_555
N4ZB C6ZB 1_555 1_555
N4NA C5NA 1_555 1_555
N4Z C5Z 1_555 1_555
N4Z C6Z 1_555 1_555
N4CC C5CC 1_555 1_555
N4PC C5PC 1_555 1_555
N4PC C6CC 1_555 1_555
C9Q C10Q 1_555 1_555
C9Y C10Y 1_555 1_555
C9QA C10QA 1_555 1_555
C9JB C10JB 1_555 1_555
C9ZA C10ZA 1_555 1_555
C9IC C10IC 1_555 1_555
C9ZB C10ZB 1_555 1_555
C9NA C10NA 1_555 1_555
C9Z C10Z 1_555 1_555
C9CC C10CC 1_555 1_555
C9PC C10PC 1_555 1_555

#END
