
#######################################################################
#
#                 Cambridge Crystallographic Data Centre
#                                CCDC 
#
#######################################################################
#
# If this CIF has been generated from an entry in the Cambridge 
# Structural Database, then it will include bibliographic, chemical, 
# crystal, experimental, refinement or atomic coordinate data resulting 
# from the CCDC's data processing and validation procedures.
#
#######################################################################

data_WUWQAH
_symmetry_cell_setting           orthorhombic
_symmetry_space_group_name_H-M   'P c a 21'
_symmetry_Int_Tables_number      29
_space_group_name_Hall           'P 2c -2ac'
loop_
_symmetry_equiv_pos_site_id
_symmetry_equiv_pos_as_xyz
1 x,y,z
2 -x,-y,1/2+z
3 1/2+x,-y,z
4 1/2-x,y,1/2+z
_cell_length_a                   15.541(3)
_cell_length_b                   10.139(2)
_cell_length_c                   19.705(4)
_cell_angle_alpha                90
_cell_angle_beta                 90
_cell_angle_gamma                90
_cell_volume                     3104.92
loop_
_atom_site_label
_atom_site_type_symbol
_atom_site_fract_x
_atom_site_fract_y
_atom_site_fract_z
Cd1 Cd 0.70047(3) -0.77202(5) 0.84998(2)
O1 O 0.7988(4) -0.9303(7) 0.8508(4)
C1 C 0.7028(5) -0.8874(10) 0.6843(4)
C2 C 0.8423(4) -0.8959(8) 0.9004(3)
C3 C 0.9231(5) -0.9678(9) 0.9196(4)
N1 N 0.6574(5) -0.6124(11) 0.9284(5)
O2 O 0.6469(4) -0.9148(6) 0.6415(4)
O3 O 0.8239(4) -0.8002(8) 0.9363(4)
O4 O 0.6888(4) -0.8058(7) 0.7320(3)
C4 C 0.7854(6) -0.9602(12) 0.6867(5)
C5 C 0.9589(6) -0.9534(12) 0.9880(4)
H1 H 1.0102 -1.0057 0.9919
H2 H 0.9174 -0.9828 1.0208
H3 H 0.9725 -0.8625 0.9962
C6 C 0.8288(5) -1.0241(7) 0.6387(4)
N2 N 0.7315(4) -0.5630(7) 0.8031(5)
C7 C 0.9556(7) -1.0569(12) 0.8690(5)
C8 C 0.7917(7) -1.0394(15) 0.5677(5)
H4 H 0.8306 -1.0898 0.5402
H5 H 0.7836 -0.9539 0.5478
H6 H 0.7373 -1.0842 0.5703
C9 C 0.7074(6) -0.4547(10) 0.8442(9)
C10 C 0.7014(9) -0.2176(13) 0.8450(12)
H7 H 0.7096 -0.1341 0.8265
C11 C 0.7676(6) -0.5338(15) 0.7451(7)
H8 H 0.7838 -0.6054 0.7185
C12 C 0.7844(9) -0.4143(17) 0.7185(10)
H9 H 0.8107 -0.4062 0.6763
C13 C 0.7244(9) -0.3211(13) 0.8164(7)
C14 C 0.6674(6) -0.4859(11) 0.9076(7)
C15 C 0.6613(9) -0.2398(11) 0.9087(8)
H10 H 0.6434 -0.1653 0.9323
C16 C 0.6142(8) -0.3902(18) 1.0000(9)
H11 H 0.5996 -0.3182 1.0269
C17 C 0.5989(8) -0.5230(15) 1.0302(8)
H12 H 0.5738 -0.5340 1.0727
C18 C 0.6251(5) -0.6310(13) 0.9898(6)
H13 H 0.6196 -0.7163 1.0067
C19 C 0.7632(9) -0.3125(18) 0.7526(8)
H14 H 0.7741 -0.2296 0.7344
C20 C 0.6456(8) -0.3631(11) 0.9403(7)
H15 H 0.802(5) -0.957(11) 0.7338(13)
H16 H 0.921(2) -1.063(4) 0.8286(12)
C21 C 1.0412(6) -1.1136(12) 0.8690(5)
C22 C 0.9020(5) -1.0993(10) 0.6572(5)
O5 O 0.9235(4) -1.2042(7) 0.6242(4)
O6 O 0.9471(3) -1.0700(6) 0.7077(3)
O7 O 1.1010(4) -1.0824(7) 0.9087(4)
O8 O 1.0529(4) -1.2037(9) 0.8248(4)
Cd2 Cd 0.54557(3) -0.76374(5) 0.70300(3)
N3 N 0.5154(4) -0.5499(9) 0.7454(4)
N4 N 0.5914(3) -0.6034(6) 0.6247(3)
C23 C 0.4774(5) -0.5315(13) 0.8077(5)
H17 H 0.4620 -0.6001 0.8366
C24 C 0.4633(7) -0.3860(16) 0.8242(7)
H18 H 0.4367 -0.3650 0.8651
C25 C 0.4861(8) -0.2901(14) 0.7849(8)
H19 H 0.4747 -0.2037 0.7979
C26 C 0.5248(6) -0.3126(13) 0.7272(7)
C27 C 0.5515(8) -0.2105(15) 0.6814(8)
H20 H 0.5416 -0.1230 0.6933
C28 C 0.5391(5) -0.4515(9) 0.7077(7)
C29 C 0.5787(5) -0.4734(9) 0.6428(5)
C30 C 0.6272(5) -0.6289(9) 0.5681(4)
H21 H 0.6381 -0.7167 0.5576
C31 C 0.6057(5) -0.3742(9) 0.5972(6)
C32 C 0.6414(6) -0.4033(11) 0.5343(7)
H22 H 0.6571 -0.3372 0.5041
C33 C 0.5900(8) -0.2362(10) 0.6220(8)
H23 H 0.6078 -0.1659 0.5952
C34 C 0.6520(5) -0.5301(10) 0.5194(6)
H24 H 0.6753 -0.5548 0.4779
Cd1B Cd 1.20047(3) -1.22798(5) 0.84998(2)
O5B O 0.4235(4) -0.7958(7) 0.6242(4)
O6B O 0.4471(3) -0.9300(6) 0.7077(3)
O7B O 0.6010(4) -0.9176(7) 0.9087(4)
O8B O 0.5529(4) -0.7963(9) 0.8248(4)
Cd2B Cd 1.04557(3) -1.23626(5) 0.70300(3)
loop_
_geom_bond_atom_site_label_1
_geom_bond_atom_site_label_2
_geom_bond_site_symmetry_1
_geom_bond_site_symmetry_2
Cd1 O1 1_555 1_555
O1 C2 1_555 1_555
C1 O2 1_555 1_555
C2 C3 1_555 1_555
C3 C5 1_555 1_555
N1 Cd1 1_555 1_555
O2 Cd2 1_555 1_555
O3 Cd1 1_555 1_555
O4 Cd1 1_555 1_555
C4 C1 1_555 1_555
C5 H1 1_555 1_555
H2 C5 1_555 1_555
H3 C5 1_555 1_555
C6 C4 1_555 1_555
N2 Cd1 1_555 1_555
C7 C3 1_555 1_555
C8 C6 1_555 1_555
H4 C8 1_555 1_555
H5 C8 1_555 1_555
H6 C8 1_555 1_555
C9 N2 1_555 1_555
C10 H7 1_555 1_555
C11 N2 1_555 1_555
H8 C11 1_555 1_555
C12 C11 1_555 1_555
H9 C12 1_555 1_555
C13 C9 1_555 1_555
C14 N1 1_555 1_555
C15 C10 1_555 1_555
H10 C15 1_555 1_555
C16 H11 1_555 1_555
C17 C16 1_555 1_555
H12 C17 1_555 1_555
C18 N1 1_555 1_555
H13 C18 1_555 1_555
C19 C12 1_555 1_555
H14 C19 1_555 1_555
C20 C14 1_555 1_555
H15 C4 1_555 1_555
H16 C7 1_555 1_555
C21 C7 1_555 1_555
C22 C6 1_555 1_555
O5 C22 1_555 1_555
O6 C22 1_555 1_555
O7 C21 1_555 1_555
O8 C21 1_555 1_555
Cd2 O4 1_555 1_555
N3 Cd2 1_555 1_555
N4 Cd2 1_555 1_555
C23 N3 1_555 1_555
H17 C23 1_555 1_555
C24 C23 1_555 1_555
H18 C24 1_555 1_555
C25 C24 1_555 1_555
H19 C25 1_555 1_555
C26 C25 1_555 1_555
C27 C26 1_555 1_555
H20 C27 1_555 1_555
C28 N3 1_555 1_555
C29 N4 1_555 1_555
C30 N4 1_555 1_555
H21 C30 1_555 1_555
C31 C29 1_555 1_555
C32 C31 1_555 1_555
H22 C32 1_555 1_555
C33 C27 1_555 1_555
H23 C33 1_555 1_555
C34 C30 1_555 1_555
H24 C34 1_555 1_555
Cd1B O7 1_555 1_555
O5B Cd2 1_555 1_555
O6B Cd2 1_555 1_555
O7B Cd1 1_555 1_555
O8B Cd1 1_555 1_555
Cd2B O5 1_555 1_555
C1 O4 1_555 1_555
C2 O3 1_555 1_555
C9 C14 1_555 1_555
C10 C13 1_555 1_555
C13 C19 1_555 1_555
C15 C20 1_555 1_555
C16 C20 1_555 1_555
C17 C18 1_555 1_555
O6 Cd2B 1_555 1_555
O8 Cd1B 1_555 1_555
O8 Cd2B 1_555 1_555
Cd2 O8B 1_555 1_555
C26 C28 1_555 1_555
C28 C29 1_555 1_555
C31 C33 1_555 1_555
C32 C34 1_555 1_555

#END
