
#######################################################################
#
#                 Cambridge Crystallographic Data Centre
#                                CCDC 
#
#######################################################################
#
# If this CIF has been generated from an entry in the Cambridge 
# Structural Database, then it will include bibliographic, chemical, 
# crystal, experimental, refinement or atomic coordinate data resulting 
# from the CCDC's data processing and validation procedures.
#
#######################################################################

data_WUWRAI
_symmetry_cell_setting           cubic
_symmetry_space_group_name_H-M   'I a -3 d'
_symmetry_Int_Tables_number      230
_space_group_name_Hall           '-I 4bd 2c 3'
loop_
_symmetry_equiv_pos_site_id
_symmetry_equiv_pos_as_xyz
1 x,y,z
2 1/2-x,-y,1/2+z
3 -x,1/2+y,1/2-z
4 1/2+x,1/2-y,-z
5 z,x,y
6 1/2+z,1/2-x,-y
7 1/2-z,-x,1/2+y
8 -z,1/2+x,1/2-y
9 y,z,x
10 -y,1/2+z,1/2-x
11 1/2+y,1/2-z,-x
12 1/2-y,-z,1/2+x
13 3/4+y,1/4+x,1/4-z
14 3/4-y,3/4-x,3/4-z
15 1/4+y,1/4-x,3/4+z
16 1/4-y,3/4+x,1/4+z
17 3/4+x,1/4+z,1/4-y
18 1/4-x,3/4+z,1/4+y
19 3/4-x,3/4-z,3/4-y
20 1/4+x,1/4-z,3/4+y
21 3/4+z,1/4+y,1/4-x
22 1/4+z,1/4-y,3/4+x
23 1/4-z,3/4+y,1/4+x
24 3/4-z,3/4-y,3/4-x
25 1/2+x,1/2+y,1/2+z
26 -x,1/2-y,z
27 1/2-x,y,-z
28 x,-y,1/2-z
29 1/2+z,1/2+x,1/2+y
30 z,-x,1/2-y
31 -z,1/2-x,y
32 1/2-z,x,-y
33 1/2+y,1/2+z,1/2+x
34 1/2-y,z,-x
35 y,-z,1/2-x
36 -y,1/2-z,x
37 1/4+y,3/4+x,3/4-z
38 1/4-y,1/4-x,1/4-z
39 3/4+y,3/4-x,1/4+z
40 3/4-y,1/4+x,3/4+z
41 1/4+x,3/4+z,3/4-y
42 3/4-x,1/4+z,3/4+y
43 1/4-x,1/4-z,1/4-y
44 3/4+x,3/4-z,1/4+y
45 1/4+z,3/4+y,3/4-x
46 3/4+z,3/4-y,1/4+x
47 3/4-z,1/4+y,3/4+x
48 1/4-z,1/4-y,1/4-x
49 -x,-y,-z
50 1/2+x,y,1/2-z
51 x,1/2-y,1/2+z
52 1/2-x,1/2+y,z
53 -z,-x,-y
54 1/2-z,1/2+x,y
55 1/2+z,x,1/2-y
56 z,1/2-x,1/2+y
57 -y,-z,-x
58 y,1/2-z,1/2+x
59 1/2-y,1/2+z,x
60 1/2+y,z,1/2-x
61 1/4-y,3/4-x,3/4+z
62 1/4+y,1/4+x,1/4+z
63 3/4-y,3/4+x,1/4-z
64 3/4+y,1/4-x,3/4-z
65 1/4-x,3/4-z,3/4+y
66 3/4+x,1/4-z,3/4-y
67 1/4+x,1/4+z,1/4+y
68 3/4-x,3/4+z,1/4-y
69 1/4-z,3/4-y,3/4+x
70 3/4-z,3/4+y,1/4-x
71 3/4+z,1/4-y,3/4-x
72 1/4+z,1/4+y,1/4+x
73 1/2-x,1/2-y,1/2-z
74 x,1/2+y,-z
75 1/2+x,-y,z
76 -x,y,1/2+z
77 1/2-z,1/2-x,1/2-y
78 -z,x,1/2+y
79 z,1/2+x,-y
80 1/2+z,-x,y
81 1/2-y,1/2-z,1/2-x
82 1/2+y,-z,x
83 -y,z,1/2+x
84 y,1/2+z,-x
85 3/4-y,1/4-x,1/4+z
86 3/4+y,3/4+x,3/4+z
87 1/4-y,1/4+x,3/4-z
88 1/4+y,3/4-x,1/4-z
89 3/4-x,1/4-z,1/4+y
90 1/4+x,3/4-z,1/4-y
91 3/4+x,3/4+z,3/4+y
92 1/4-x,1/4+z,3/4-y
93 3/4-z,1/4-y,1/4+x
94 1/4-z,1/4+y,3/4-x
95 1/4+z,3/4-y,1/4-x
96 3/4+z,3/4+y,3/4+x
_cell_length_a                   31.5108(6)
_cell_length_b                   31.5108(6)
_cell_length_c                   31.5108(6)
_cell_angle_alpha                90
_cell_angle_beta                 90
_cell_angle_gamma                90
_cell_volume                     31288
loop_
_atom_site_label
_atom_site_type_symbol
_atom_site_fract_x
_atom_site_fract_y
_atom_site_fract_z
Zn1 Zn 0.0000 0.7500 0.1250
C1 C 0.12215(11) 0.72800(11) 0.07898(11)
H1 H 0.1493 0.7151 0.0810
C2 C 0.09212(11) 0.73009(11) 0.10970(12)
H2 H 0.0950 0.7187 0.1375
C3 C 0.06649(10) 0.76227(10) 0.05550(11)
C4 C -0.01856(11) 0.81763(11) 0.00942(11)
C5 C -0.01497(12) 0.80960(12) -0.03364(11)
H3 H 0.0073 0.7922 -0.0441
C6 C -0.04404(13) 0.82717(13) -0.06106(13)
H4 H -0.0420 0.8217 -0.0906
C7 C -0.07658(14) 0.85295(14) -0.04555(15)
H5 H -0.0963 0.8653 -0.0647
C8 C -0.08020(13) 0.86059(13) -0.00281(14)
H6 H -0.1025 0.8780 0.0076
C9 C -0.05116(12) 0.84279(12) 0.02509(13)
H7 H -0.0536 0.8478 0.0547
C10 C 0.1250 0.75303(10) 0.00303(10)
H8 H 0.1467 0.7307 -0.0007
N1 N 0.10534(8) 0.74834(8) 0.04428(8)
N2 N 0.05694(8) 0.75105(9) 0.09496(8)
N3 N 0.04203(9) 0.78287(8) 0.02491(9)
N4 N 0.00884(9) 0.79972(8) 0.04050(9)
Zn1Q Zn 0.2500 0.8750 0.0000
Zn1V Zn 0.1250 0.5000 0.2500
Zn1T Zn -0.1250 1.0000 0.2500
Zn1R Zn -0.2500 0.6250 0.0000
Zn1D Zn 0.1250 1.0000 -0.2500
Zn1F Zn 0.3750 1.0000 0.2500
C1Q C 0.12785(11) 0.82898(11) -0.02200(11)
C1IC C -0.02200(11) 0.62785(11) 0.17102(11)
C1ZB C 0.07898(11) 0.62215(11) 0.27200(11)
C1JB C 0.02200(11) 0.87215(11) 0.17102(11)
C1ZA C -0.07898(11) 0.87785(11) 0.27200(11)
C1Y C -0.12215(11) 0.77200(11) 0.07898(11)
C1QA C -0.12785(11) 0.67102(11) -0.02200(11)
C1DB C 0.27200(11) 0.92102(11) -0.12215(11)
C1PB C 0.17102(11) 1.02200(11) -0.12785(11)
C1CC C 0.22800(11) 0.92102(11) 0.12215(11)
C1PC C 0.32898(11) 1.02200(11) 0.12785(11)
H1Q H 0.1007 0.8310 -0.0349
H1IC H -0.0349 0.6007 0.1690
H1ZB H 0.0810 0.6493 0.2849
H1JB H 0.0349 0.8993 0.1690
H1ZA H -0.0810 0.8507 0.2849
H1Y H -0.1493 0.7849 0.0810
H1QA H -0.1007 0.6690 -0.0349
H1DB H 0.2849 0.9190 -0.1493
H1PB H 0.1690 1.0349 -0.1007
H1CC H 0.2151 0.9190 0.1493
H1PC H 0.3310 1.0349 0.1007
C2Q C 0.15788(11) 0.85970(12) -0.01991(11)
C2IC C -0.01991(11) 0.65788(11) 0.14030(12)
C2ZB C 0.10970(12) 0.59212(11) 0.26991(11)
C2JB C 0.01991(11) 0.84212(11) 0.14030(12)
C2ZA C -0.10970(12) 0.90788(11) 0.26991(11)
C2Y C -0.09212(11) 0.76991(11) 0.10970(12)
C2QA C -0.15788(11) 0.64030(12) -0.01991(11)
C2DB C 0.26991(11) 0.89030(12) -0.09212(11)
C2PB C 0.14030(12) 1.01991(11) -0.15788(11)
C2CC C 0.23009(11) 0.89030(12) 0.09212(11)
C2PC C 0.35970(12) 1.01991(11) 0.15788(11)
H2Q H 0.1550 0.8875 -0.0313
H2IC H -0.0313 0.6550 0.1125
H2ZB H 0.1375 0.5950 0.2813
H2JB H 0.0313 0.8450 0.1125
H2ZA H -0.1375 0.9050 0.2813
H2Y H -0.0950 0.7813 0.1375
H2QA H -0.1550 0.6125 -0.0313
H2DB H 0.2813 0.8625 -0.0950
H2PB H 0.1125 1.0313 -0.1550
H2CC H 0.2187 0.8625 0.0950
H2PC H 0.3875 1.0313 0.1550
C3Q C 0.18351(10) 0.80550(11) 0.01227(10)
C3IC C 0.01227(10) 0.68351(10) 0.19450(11)
C3ZB C 0.05550(11) 0.56649(10) 0.23773(10)
C3JB C -0.01227(10) 0.81649(10) 0.19450(11)
C3ZA C -0.05550(11) 0.93351(10) 0.23773(10)
C3Y C -0.06649(10) 0.73773(10) 0.05550(11)
C3QA C -0.18351(10) 0.69450(11) 0.01227(10)
C3DB C 0.23773(10) 0.94450(11) -0.06649(10)
C3PB C 0.19450(11) 0.98773(10) -0.18351(10)
C3CC C 0.26227(10) 0.94450(11) 0.06649(10)
C3PC C 0.30550(11) 0.98773(10) 0.18351(10)
C4Q C 0.26856(11) 0.75942(11) 0.06763(11)
C4IC C 0.06763(11) 0.76856(11) 0.24058(11)
C4ZB C 0.00942(11) 0.48144(11) 0.18237(11)
C4JB C -0.06763(11) 0.73144(11) 0.24058(11)
C4ZA C -0.00942(11) 1.01856(11) 0.18237(11)
C4Y C 0.01856(11) 0.68237(11) 0.00942(11)
C4QA C -0.26856(11) 0.74058(11) 0.06763(11)
C4DB C 0.18237(11) 0.99058(11) 0.01856(11)
C4PB C 0.24058(11) 0.93237(11) -0.26856(11)
C4CC C 0.31763(11) 0.99058(11) -0.01856(11)
C4PC C 0.25942(11) 0.93237(11) 0.26856(11)
C5Q C 0.26497(12) 0.71636(11) 0.05960(12)
C5IC C 0.05960(12) 0.76497(12) 0.28364(11)
C5ZB C -0.03364(11) 0.48503(12) 0.19040(12)
C5JB C -0.05960(12) 0.73503(12) 0.28364(11)
C5ZA C 0.03364(11) 1.01497(12) 0.19040(12)
C5Y C 0.01497(12) 0.69040(12) -0.03364(11)
C5QA C -0.26497(12) 0.78364(11) 0.05960(12)
C5DB C 0.19040(12) 1.03364(11) 0.01497(12)
C5PB C 0.28364(11) 0.94040(12) -0.26497(12)
C5CC C 0.30960(12) 1.03364(11) -0.01497(12)
C5PC C 0.21636(11) 0.94040(12) 0.26497(12)
H3Q H 0.2427 0.7059 0.0422
H3IC H 0.0422 0.7427 0.2941
H3ZB H -0.0441 0.5073 0.2078
H3JB H -0.0422 0.7573 0.2941
H3ZA H 0.0441 0.9927 0.2078
H3Y H -0.0073 0.7078 -0.0441
H3QA H -0.2427 0.7941 0.0422
H3DB H 0.2078 1.0441 -0.0073
H3PB H 0.2941 0.9578 -0.2427
H3CC H 0.2922 1.0441 0.0073
H3PC H 0.2059 0.9578 0.2427
C6Q C 0.29404(13) 0.68894(13) 0.07717(13)
C6IC C 0.07717(13) 0.79404(13) 0.31106(13)
C6ZB C -0.06106(13) 0.45596(13) 0.17283(13)
C6JB C -0.07717(13) 0.70596(13) 0.31106(13)
C6ZA C 0.06106(13) 1.04404(13) 0.17283(13)
C6Y C 0.04404(13) 0.67283(13) -0.06106(13)
C6QA C -0.29404(13) 0.81106(13) 0.07717(13)
C6DB C 0.17283(13) 1.06106(13) 0.04404(13)
C6PB C 0.31106(13) 0.92283(13) -0.29404(13)
C6CC C 0.32717(13) 1.06106(13) -0.04404(13)
C6PC C 0.18894(13) 0.92283(13) 0.29404(13)
H4Q H 0.2920 0.6594 0.0717
H4IC H 0.0717 0.7920 0.3406
H4ZB H -0.0906 0.4580 0.1783
H4JB H -0.0717 0.7080 0.3406
H4ZA H 0.0906 1.0420 0.1783
H4Y H 0.0420 0.6783 -0.0906
H4QA H -0.2920 0.8406 0.0717
H4DB H 0.1783 1.0906 0.0420
H4PB H 0.3406 0.9283 -0.2920
H4CC H 0.3217 1.0906 -0.0420
H4PC H 0.1594 0.9283 0.2920
C7Q C 0.32658(14) 0.70445(15) 0.10295(14)
C7IC C 0.10295(14) 0.82658(14) 0.29555(15)
C7ZB C -0.04555(15) 0.42342(14) 0.14705(14)
C7JB C -0.10295(14) 0.67342(14) 0.29555(15)
C7ZA C 0.04555(15) 1.07658(14) 0.14705(14)
C7Y C 0.07658(14) 0.64705(14) -0.04555(15)
C7QA C -0.32658(14) 0.79555(15) 0.10295(14)
C7DB C 0.14705(14) 1.04555(15) 0.07658(14)
C7PB C 0.29555(15) 0.89705(14) -0.32658(14)
C7CC C 0.35295(14) 1.04555(15) -0.07658(14)
C7PC C 0.20445(15) 0.89705(14) 0.32658(14)
H5Q H 0.3463 0.6853 0.1153
H5IC H 0.1153 0.8463 0.3147
H5ZB H -0.0647 0.4037 0.1347
H5JB H -0.1153 0.6537 0.3147
H5ZA H 0.0647 1.0963 0.1347
H5Y H 0.0963 0.6347 -0.0647
H5QA H -0.3463 0.8147 0.1153
H5DB H 0.1347 1.0647 0.0963
H5PB H 0.3147 0.8847 -0.3463
H5CC H 0.3653 1.0647 -0.0963
H5PC H 0.1853 0.8847 0.3463
C8Q C 0.33020(13) 0.74719(14) 0.11059(13)
C8IC C 0.11059(13) 0.83020(13) 0.25281(14)
C8ZB C -0.00281(14) 0.41980(13) 0.13941(13)
C8JB C -0.11059(13) 0.66980(13) 0.25281(14)
C8ZA C 0.00281(14) 1.08020(13) 0.13941(13)
C8Y C 0.08020(13) 0.63941(13) -0.00281(14)
C8QA C -0.33020(13) 0.75281(14) 0.11059(13)
C8DB C 0.13941(13) 1.00281(14) 0.08020(13)
C8PB C 0.25281(14) 0.88941(13) -0.33020(13)
C8CC C 0.36059(13) 1.00281(14) -0.08020(13)
C8PC C 0.24719(14) 0.88941(13) 0.33020(13)
H6Q H 0.3525 0.7576 0.1280
H6IC H 0.1280 0.8525 0.2424
H6ZB H 0.0076 0.3975 0.1220
H6JB H -0.1280 0.6475 0.2424
H6ZA H -0.0076 1.1025 0.1220
H6Y H 0.1025 0.6220 0.0076
H6QA H -0.3525 0.7424 0.1280
H6DB H 0.1220 0.9924 0.1025
H6PB H 0.2424 0.8720 -0.3525
H6CC H 0.3780 0.9924 -0.1025
H6PC H 0.2576 0.8720 0.3525
C9Q C 0.30116(12) 0.77509(13) 0.09279(12)
C9IC C 0.09279(12) 0.80116(12) 0.22491(13)
C9ZB C 0.02509(13) 0.44884(12) 0.15721(12)
C9JB C -0.09279(12) 0.69884(12) 0.22491(13)
C9ZA C -0.02509(13) 1.05116(12) 0.15721(12)
C9Y C 0.05116(12) 0.65721(12) 0.02509(13)
C9QA C -0.30116(12) 0.72491(13) 0.09279(12)
C9DB C 0.15721(12) 0.97491(13) 0.05116(12)
C9PB C 0.22491(13) 0.90721(12) -0.30116(12)
C9CC C 0.34279(12) 0.97491(13) -0.05116(12)
C9PC C 0.27509(13) 0.90721(12) 0.30116(12)
H7Q H 0.3036 0.8047 0.0978
H7IC H 0.0978 0.8036 0.1953
H7ZB H 0.0547 0.4464 0.1522
H7JB H -0.0978 0.6964 0.1953
H7ZA H -0.0547 1.0536 0.1522
H7Y H 0.0536 0.6522 0.0547
H7QA H -0.3036 0.6953 0.0978
H7DB H 0.1522 0.9453 0.0536
H7PB H 0.1953 0.9022 -0.3036
H7CC H 0.3478 0.9453 -0.0536
H7PC H 0.3047 0.9022 0.3036
C10ZB C 0.00303(10) 0.6250 0.24697(10)
C10ZA C -0.00303(10) 0.8750 0.24697(10)
C10Y C -0.1250 0.74697(10) 0.00303(10)
C10DB C 0.24697(10) 0.99697(10) -0.1250
C10CC C 0.25303(10) 0.99697(10) 0.1250
H8Q H 0.1033 0.7493 -0.0193
H8IC H -0.0193 0.6033 0.2507
H8ZB H -0.0007 0.6467 0.2693
H8JB H 0.0193 0.8967 0.2507
H8ZA H 0.0007 0.8533 0.2693
H8Y H -0.1467 0.7693 -0.0007
H8QA H -0.1033 0.7507 -0.0193
H8DB H 0.2693 1.0007 -0.1467
H8PB H 0.2507 1.0193 -0.1033
H8CC H 0.2307 1.0007 0.1467
H8PC H 0.2493 1.0193 0.1033
N1Q N 0.14466(8) 0.79428(8) -0.00166(8)
N1IC N -0.00166(8) 0.64466(8) 0.20572(8)
N1ZB N 0.04428(8) 0.60534(8) 0.25166(8)
N1JB N 0.00166(8) 0.85534(8) 0.20572(8)
N1ZA N -0.04428(8) 0.89466(8) 0.25166(8)
N1Y N -0.10534(8) 0.75166(8) 0.04428(8)
N1QA N -0.14466(8) 0.70572(8) -0.00166(8)
N1DB N 0.25166(8) 0.95572(8) -0.10534(8)
N1PB N 0.20572(8) 1.00166(8) -0.14466(8)
N1CC N 0.24834(8) 0.95572(8) 0.10534(8)
N1PC N 0.29428(8) 1.00166(8) 0.14466(8)
N2Q N 0.19306(8) 0.84496(8) 0.00105(9)
N2IC N 0.00105(9) 0.69306(8) 0.15504(8)
N2ZB N 0.09496(8) 0.55694(8) 0.24895(9)
N2JB N -0.00105(9) 0.80694(8) 0.15504(8)
N2ZA N -0.09496(8) 0.94306(8) 0.24895(9)
N2Y N -0.05694(8) 0.74895(9) 0.09496(8)
N2QA N -0.19306(8) 0.65504(8) 0.00105(9)
N2DB N 0.24895(9) 0.90504(8) -0.05694(8)
N2PB N 0.15504(8) 0.99895(9) -0.19306(8)
N2CC N 0.25105(9) 0.90504(8) 0.05694(8)
N2PC N 0.34496(8) 0.99895(9) 0.19306(8)
N2NA N 0.30694(8) 0.84496(8) -0.00105(9)
N2V N 0.15504(8) 0.50105(9) 0.30694(8)
N2UA N 0.15504(8) 0.49895(9) 0.19306(8)
N2CB N 0.09496(8) 0.44306(8) 0.25105(9)
N3Q N 0.20797(9) 0.77491(9) 0.03287(8)
N3IC N 0.03287(8) 0.70797(9) 0.22509(9)
N3ZB N 0.02491(9) 0.54203(9) 0.21713(8)
N3JB N -0.03287(8) 0.79203(9) 0.22509(9)
N3ZA N -0.02491(9) 0.95797(9) 0.21713(8)
N3Y N -0.04203(9) 0.71713(8) 0.02491(9)
N3QA N -0.20797(9) 0.72509(9) 0.03287(8)
N3DB N 0.21713(8) 0.97509(9) -0.04203(9)
N3PB N 0.22509(9) 0.96713(8) -0.20797(9)
N3CC N 0.28287(8) 0.97509(9) 0.04203(9)
N3PC N 0.27491(9) 0.96713(8) 0.20797(9)
N4Q N 0.24116(9) 0.79050(9) 0.04972(8)
N4IC N 0.04972(8) 0.74116(9) 0.20950(9)
N4ZB N 0.04050(9) 0.50884(9) 0.20028(8)
N4JB N -0.04972(8) 0.75884(9) 0.20950(9)
N4ZA N -0.04050(9) 0.99116(9) 0.20028(8)
N4Y N -0.00884(9) 0.70028(8) 0.04050(9)
N4QA N -0.24116(9) 0.70950(9) 0.04972(8)
N4DB N 0.20028(8) 0.95950(9) -0.00884(9)
N4PB N 0.20950(9) 0.95028(8) -0.24116(9)
N4CC N 0.29972(8) 0.95950(9) 0.00884(9)
N4PC N 0.29050(9) 0.95028(8) 0.24116(9)
Cl1 Cl 0.18597(4) 0.6250 0.06403(4)
O1 O 0.22313(10) 0.59913(9) 0.06520(10)
O2 O 0.14939(10) 0.59810(10) 0.06483(11)
O1UA O 0.18480(10) 0.65087(9) 0.02687(10)
O2UA O 0.18517(11) 0.65190(10) 0.10061(10)
O3 O 0.0281(3) 1.0281(3) 0.0281(3)
O4 O 0.0589(3) 0.8998(3) 0.0464(3)
O5 O 0.0116(7) 0.9546(4) 0.0872(3)
O6 O 0.1250 0.84709(17) 0.09709(17)
loop_
_geom_bond_atom_site_label_1
_geom_bond_atom_site_label_2
_geom_bond_site_symmetry_1
_geom_bond_site_symmetry_2
Zn1 N2 1_555 1_555
C1 H1 1_555 1_555
C2 C1 1_555 1_555
H2 C2 1_555 1_555
C3 N1 1_555 1_555
C4 C5 1_555 1_555
C5 H3 1_555 1_555
C6 C5 1_555 1_555
H4 C6 1_555 1_555
C7 C6 1_555 1_555
H5 C7 1_555 1_555
C8 C7 1_555 1_555
H6 C8 1_555 1_555
C9 C4 1_555 1_555
H7 C9 1_555 1_555
C10 H8 1_555 1_555
N1 C1 1_555 1_555
N2 C2 1_555 1_555
N3 C3 1_555 1_555
N4 C4 1_555 1_555
Cl1 O1 1_555 1_555
O2 Cl1 1_555 1_555
Zn1Q N2Q 1_555 1_555
Zn1V N2ZB 1_555 1_555
Zn1T N2ZA 1_555 1_555
Zn1R N2QA 1_555 1_555
Zn1D N2PB 1_555 1_555
Zn1F N2PC 1_555 1_555
C1Q H1Q 1_555 1_555
C1IC H1IC 1_555 1_555
C1ZB H1ZB 1_555 1_555
C1JB H1JB 1_555 1_555
C1ZA H1ZA 1_555 1_555
C1Y H1Y 1_555 1_555
C1QA H1QA 1_555 1_555
C1DB H1DB 1_555 1_555
C1PB H1PB 1_555 1_555
C1CC H1CC 1_555 1_555
C1PC H1PC 1_555 1_555
C2Q C1Q 1_555 1_555
C2IC C1IC 1_555 1_555
C2ZB C1ZB 1_555 1_555
C2JB C1JB 1_555 1_555
C2ZA C1ZA 1_555 1_555
C2Y C1Y 1_555 1_555
C2QA C1QA 1_555 1_555
C2DB C1DB 1_555 1_555
C2PB C1PB 1_555 1_555
C2CC C1CC 1_555 1_555
C2PC C1PC 1_555 1_555
H2Q C2Q 1_555 1_555
H2IC C2IC 1_555 1_555
H2ZB C2ZB 1_555 1_555
H2JB C2JB 1_555 1_555
H2ZA C2ZA 1_555 1_555
H2Y C2Y 1_555 1_555
H2QA C2QA 1_555 1_555
H2DB C2DB 1_555 1_555
H2PB C2PB 1_555 1_555
H2CC C2CC 1_555 1_555
H2PC C2PC 1_555 1_555
C3Q N1Q 1_555 1_555
C3IC N1IC 1_555 1_555
C3ZB N1ZB 1_555 1_555
C3JB N1JB 1_555 1_555
C3ZA N1ZA 1_555 1_555
C3Y N1Y 1_555 1_555
C3QA N1QA 1_555 1_555
C3DB N1DB 1_555 1_555
C3PB N1PB 1_555 1_555
C3CC N1CC 1_555 1_555
C3PC N1PC 1_555 1_555
C4Q C5Q 1_555 1_555
C4IC C5IC 1_555 1_555
C4ZB C5ZB 1_555 1_555
C4JB C5JB 1_555 1_555
C4ZA C5ZA 1_555 1_555
C4Y C5Y 1_555 1_555
C4QA C5QA 1_555 1_555
C4DB C5DB 1_555 1_555
C4PB C5PB 1_555 1_555
C4CC C5CC 1_555 1_555
C4PC C5PC 1_555 1_555
C5Q H3Q 1_555 1_555
C5IC H3IC 1_555 1_555
C5ZB H3ZB 1_555 1_555
C5JB H3JB 1_555 1_555
C5ZA H3ZA 1_555 1_555
C5Y H3Y 1_555 1_555
C5QA H3QA 1_555 1_555
C5DB H3DB 1_555 1_555
C5PB H3PB 1_555 1_555
C5CC H3CC 1_555 1_555
C5PC H3PC 1_555 1_555
C6Q C5Q 1_555 1_555
C6IC C5IC 1_555 1_555
C6ZB C5ZB 1_555 1_555
C6JB C5JB 1_555 1_555
C6ZA C5ZA 1_555 1_555
C6Y C5Y 1_555 1_555
C6QA C5QA 1_555 1_555
C6DB C5DB 1_555 1_555
C6PB C5PB 1_555 1_555
C6CC C5CC 1_555 1_555
C6PC C5PC 1_555 1_555
H4Q C6Q 1_555 1_555
H4IC C6IC 1_555 1_555
H4ZB C6ZB 1_555 1_555
H4JB C6JB 1_555 1_555
H4ZA C6ZA 1_555 1_555
H4Y C6Y 1_555 1_555
H4QA C6QA 1_555 1_555
H4DB C6DB 1_555 1_555
H4PB C6PB 1_555 1_555
H4CC C6CC 1_555 1_555
H4PC C6PC 1_555 1_555
C7Q C6Q 1_555 1_555
C7IC C6IC 1_555 1_555
C7ZB C6ZB 1_555 1_555
C7JB C6JB 1_555 1_555
C7ZA C6ZA 1_555 1_555
C7Y C6Y 1_555 1_555
C7QA C6QA 1_555 1_555
C7DB C6DB 1_555 1_555
C7PB C6PB 1_555 1_555
C7CC C6CC 1_555 1_555
C7PC C6PC 1_555 1_555
H5Q C7Q 1_555 1_555
H5IC C7IC 1_555 1_555
H5ZB C7ZB 1_555 1_555
H5JB C7JB 1_555 1_555
H5ZA C7ZA 1_555 1_555
H5Y C7Y 1_555 1_555
H5QA C7QA 1_555 1_555
H5DB C7DB 1_555 1_555
H5PB C7PB 1_555 1_555
H5CC C7CC 1_555 1_555
H5PC C7PC 1_555 1_555
C8Q C7Q 1_555 1_555
C8IC C7IC 1_555 1_555
C8ZB C7ZB 1_555 1_555
C8JB C7JB 1_555 1_555
C8ZA C7ZA 1_555 1_555
C8Y C7Y 1_555 1_555
C8QA C7QA 1_555 1_555
C8DB C7DB 1_555 1_555
C8PB C7PB 1_555 1_555
C8CC C7CC 1_555 1_555
C8PC C7PC 1_555 1_555
H6Q C8Q 1_555 1_555
H6IC C8IC 1_555 1_555
H6ZB C8ZB 1_555 1_555
H6JB C8JB 1_555 1_555
H6ZA C8ZA 1_555 1_555
H6Y C8Y 1_555 1_555
H6QA C8QA 1_555 1_555
H6DB C8DB 1_555 1_555
H6PB C8PB 1_555 1_555
H6CC C8CC 1_555 1_555
H6PC C8PC 1_555 1_555
C9Q C4Q 1_555 1_555
C9IC C4IC 1_555 1_555
C9ZB C4ZB 1_555 1_555
C9JB C4JB 1_555 1_555
C9ZA C4ZA 1_555 1_555
C9Y C4Y 1_555 1_555
C9QA C4QA 1_555 1_555
C9DB C4DB 1_555 1_555
C9PB C4PB 1_555 1_555
C9CC C4CC 1_555 1_555
C9PC C4PC 1_555 1_555
H7Q C9Q 1_555 1_555
H7IC C9IC 1_555 1_555
H7ZB C9ZB 1_555 1_555
H7JB C9JB 1_555 1_555
H7ZA C9ZA 1_555 1_555
H7Y C9Y 1_555 1_555
H7QA C9QA 1_555 1_555
H7DB C9DB 1_555 1_555
H7PB C9PB 1_555 1_555
H7CC C9CC 1_555 1_555
H7PC C9PC 1_555 1_555
C10ZB H8IC 1_555 1_555
C10ZA H8JB 1_555 1_555
C10Y H8Y 1_555 1_555
C10DB H8DB 1_555 1_555
C10CC H8CC 1_555 1_555
H8Q C10 1_555 1_555
H8ZB C10ZB 1_555 1_555
H8ZA C10ZA 1_555 1_555
H8QA C10Y 1_555 1_555
H8PB C10DB 1_555 1_555
H8PC C10CC 1_555 1_555
N1Q C10 1_555 1_555
N1IC C1IC 1_555 1_555
N1ZB C1ZB 1_555 1_555
N1JB C1JB 1_555 1_555
N1ZA C1ZA 1_555 1_555
N1Y C1Y 1_555 1_555
N1QA C1QA 1_555 1_555
N1DB C1DB 1_555 1_555
N1PB C1PB 1_555 1_555
N1CC C1CC 1_555 1_555
N1PC C1PC 1_555 1_555
N2Q C2Q 1_555 1_555
N2IC Zn1 1_555 1_555
N2ZB C2ZB 1_555 1_555
N2JB Zn1 1_555 1_555
N2ZA C2ZA 1_555 1_555
N2Y Zn1 1_555 1_555
N2QA C2QA 1_555 1_555
N2DB Zn1Q 1_555 1_555
N2PB C2PB 1_555 1_555
N2CC Zn1Q 1_555 1_555
N2PC C2PC 1_555 1_555
N2NA Zn1Q 1_555 1_555
N2V Zn1V 1_555 1_555
N2UA Zn1V 1_555 1_555
N2CB Zn1V 1_555 1_555
N3Q C3Q 1_555 1_555
N3IC C3IC 1_555 1_555
N3ZB C3ZB 1_555 1_555
N3JB C3JB 1_555 1_555
N3ZA C3ZA 1_555 1_555
N3Y C3Y 1_555 1_555
N3QA C3QA 1_555 1_555
N3DB C3DB 1_555 1_555
N3PB C3PB 1_555 1_555
N3CC C3CC 1_555 1_555
N3PC C3PC 1_555 1_555
N4Q C4Q 1_555 1_555
N4IC C4IC 1_555 1_555
N4ZB C4ZB 1_555 1_555
N4JB C4JB 1_555 1_555
N4ZA C4ZA 1_555 1_555
N4Y C4Y 1_555 1_555
N4QA C4QA 1_555 1_555
N4DB C4DB 1_555 1_555
N4PB C4PB 1_555 1_555
N4CC C4CC 1_555 1_555
N4PC C4PC 1_555 1_555
O1UA Cl1 1_555 1_555
O2UA Cl1 1_555 1_555
C3 N2 1_555 1_555
C8 C9 1_555 1_555
C10 N1 1_555 1_555
N3 N4 1_555 1_555
C1Q N1Q 1_555 1_555
C2IC N2IC 1_555 1_555
C2JB N2JB 1_555 1_555
C2Y N2Y 1_555 1_555
C2DB N2DB 1_555 1_555
C2CC N2CC 1_555 1_555
C3Q N2Q 1_555 1_555
C3IC N2IC 1_555 1_555
C3ZB N2ZB 1_555 1_555
C3JB N2JB 1_555 1_555
C3ZA N2ZA 1_555 1_555
C3Y N2Y 1_555 1_555
C3QA N2QA 1_555 1_555
C3DB N2DB 1_555 1_555
C3PB N2PB 1_555 1_555
C3CC N2CC 1_555 1_555
C3PC N2PC 1_555 1_555
C8Q C9Q 1_555 1_555
C8IC C9IC 1_555 1_555
C8ZB C9ZB 1_555 1_555
C8JB C9JB 1_555 1_555
C8ZA C9ZA 1_555 1_555
C8Y C9Y 1_555 1_555
C8QA C9QA 1_555 1_555
C8DB C9DB 1_555 1_555
C8PB C9PB 1_555 1_555
C8CC C9CC 1_555 1_555
C8PC C9PC 1_555 1_555
C10ZB N1IC 1_555 1_555
C10ZB N1ZB 1_555 1_555
C10ZA N1JB 1_555 1_555
C10ZA N1ZA 1_555 1_555
C10Y N1Y 1_555 1_555
C10Y N1QA 1_555 1_555
C10DB N1DB 1_555 1_555
C10DB N1PB 1_555 1_555
C10CC N1CC 1_555 1_555
C10CC N1PC 1_555 1_555
N3Q N4Q 1_555 1_555
N3IC N4IC 1_555 1_555
N3ZB N4ZB 1_555 1_555
N3JB N4JB 1_555 1_555
N3ZA N4ZA 1_555 1_555
N3Y N4Y 1_555 1_555
N3QA N4QA 1_555 1_555
N3DB N4DB 1_555 1_555
N3PB N4PB 1_555 1_555
N3CC N4CC 1_555 1_555
N3PC N4PC 1_555 1_555

#END
