
#######################################################################
#
#                 Cambridge Crystallographic Data Centre
#                                CCDC 
#
#######################################################################
#
# If this CIF has been generated from an entry in the Cambridge 
# Structural Database, then it will include bibliographic, chemical, 
# crystal, experimental, refinement or atomic coordinate data resulting 
# from the CCDC's data processing and validation procedures.
#
#######################################################################

data_WUWRUC
_symmetry_cell_setting           triclinic
_symmetry_space_group_name_H-M   'P -1'
_symmetry_Int_Tables_number      2
_space_group_name_Hall           '-P 1'
loop_
_symmetry_equiv_pos_site_id
_symmetry_equiv_pos_as_xyz
1 x,y,z
2 -x,-y,-z
_cell_length_a                   7.535(3)
_cell_length_b                   9.586(4)
_cell_length_c                   17.444(7)
_cell_angle_alpha                99.266(8)
_cell_angle_beta                 96.911(7)
_cell_angle_gamma                99.438(3)
_cell_volume                     1212.7
loop_
_atom_site_label
_atom_site_type_symbol
_atom_site_fract_x
_atom_site_fract_y
_atom_site_fract_z
Ca1 Ca 0.77611(6) 0.38846(5) -0.07108(3)
S1 S 0.44384(9) 0.34253(8) 0.20899(4)
S2 S 0.83208(9) 0.42063(8) 0.27580(3)
S3 S 0.34023(10) 0.22944(9) 0.36248(4)
S4 S 0.72307(10) 0.31161(8) 0.43929(4)
S5 S 0.20377(11) 0.11328(9) 0.49625(4)
S6 S 0.64422(11) 0.19934(9) 0.58535(4)
O1 O 0.5617(2) 0.29791(18) 0.00385(8)
O2 O 0.3558(2) 0.40924(19) 0.05700(9)
O3 O 0.9159(2) 0.46059(19) 0.06203(8)
O4 O 1.0752(2) 0.5274(2) 0.18019(9)
O5 O 0.5514(3) 0.2580(2) -0.17619(10)
O6 O 0.9152(3) 0.1869(2) -0.08468(10)
N1 N 0.2846(3) 0.1407(3) -0.24838(12)
N2 N 1.0936(3) 0.0180(2) -0.08820(12)
C1 C 0.5975(3) 0.3719(3) 0.14346(12)
C2 C 0.7744(3) 0.4106(3) 0.17321(12)
C3 C 0.6104(3) 0.3494(3) 0.28956(13)
C4 C 0.5654(3) 0.3047(3) 0.35501(13)
C5 C 0.3917(4) 0.1903(3) 0.45643(14)
C6 C 0.5643(4) 0.2273(3) 0.49141(13)
C7 C 0.1472(4) 0.2760(4) 0.54551(18)
H1 H 0.2412 0.3199 0.5898
H2 H 0.0315 0.2537 0.5642
H3 H 0.1384 0.3422 0.5092
C8 C 0.6856(5) 0.3784(4) 0.64034(16)
H4 H 0.7779 0.4384 0.6197
H5 H 0.7273 0.3776 0.6951
H6 H 0.5740 0.4165 0.6362
C9 C 0.5000(3) 0.3599(3) 0.06015(13)
C10 C 0.9320(3) 0.4682(3) 0.13528(13)
C11 C 0.3885(4) 0.2479(3) -0.19914(15)
H7 H 0.3337 0.3246 -0.1793
C12 C 0.0913(4) 0.1419(4) -0.27115(18)
H8 H 0.0643 0.2337 -0.2483
H9 H 0.0181 0.0652 -0.2523
H10 H 0.0635 0.1274 -0.3279
C13 C 0.3500(5) 0.0168(3) -0.28177(17)
H11 H 0.4757 0.0236 -0.2589
H12 H 0.3423 0.0113 -0.3381
H13 H 0.2766 -0.0689 -0.2710
C14 C 1.0646(4) 0.1510(3) -0.07202(14)
H14 H 1.1651 0.2238 -0.0492
C15 C 1.2733(4) -0.0179(3) -0.07087(16)
H15 H 1.3614 0.0694 -0.0489
H16 H 1.3081 -0.0646 -0.1189
H17 H 1.2698 -0.0824 -0.0333
C16 C 0.9451(4) -0.1000(3) -0.12478(15)
H18 H 0.8321 -0.0641 -0.1306
H19 H 0.9352 -0.1729 -0.0920
H20 H 0.9690 -0.1418 -0.1761
Ca1A Ca 0.22389(6) 0.61154(5) 0.07108(3)
Ca1A_2 Ca 1.22389(6) 0.61154(5) 0.07108(3)
O2A O 0.6442(2) 0.59076(19) -0.05700(9)
O3A O 1.0841(2) 0.53941(19) -0.06203(8)
O4A O 0.9248(2) 0.4726(2) -0.18019(9)
loop_
_geom_bond_atom_site_label_1
_geom_bond_atom_site_label_2
_geom_bond_site_symmetry_1
_geom_bond_site_symmetry_2
Ca1 O1 1_555 1_555
S1 C1 1_555 1_555
S2 C2 1_555 1_555
S3 C4 1_555 1_555
S4 C4 1_555 1_555
S5 C5 1_555 1_555
S6 C6 1_555 1_555
O1 C9 1_555 1_555
O2 C9 1_555 1_555
O3 Ca1 1_555 1_555
O4 C10 1_555 1_555
O5 Ca1 1_555 1_555
O6 Ca1 1_555 1_555
N1 C11 1_555 1_555
N2 C14 1_555 1_555
C1 C2 1_555 1_555
C2 C10 1_555 1_555
C3 S1 1_555 1_555
C4 C3 1_555 1_555
C5 S3 1_555 1_555
C6 S4 1_555 1_555
C7 S5 1_555 1_555
H1 C7 1_555 1_555
H2 C7 1_555 1_555
H3 C7 1_555 1_555
C8 S6 1_555 1_555
H4 C8 1_555 1_555
H5 C8 1_555 1_555
H6 C8 1_555 1_555
C9 C1 1_555 1_555
C10 O3 1_555 1_555
C11 O5 1_555 1_555
H7 C11 1_555 1_555
C12 N1 1_555 1_555
H8 C12 1_555 1_555
H9 C12 1_555 1_555
H10 C12 1_555 1_555
C13 N1 1_555 1_555
H11 C13 1_555 1_555
H12 C13 1_555 1_555
H13 C13 1_555 1_555
C14 O6 1_555 1_555
H14 C14 1_555 1_555
C15 N2 1_555 1_555
H15 C15 1_555 1_555
H16 C15 1_555 1_555
H17 C15 1_555 1_555
C16 N2 1_555 1_555
H18 C16 1_555 1_555
H19 C16 1_555 1_555
H20 C16 1_555 1_555
Ca1A O2 1_555 1_555
Ca1A_2 O3 1_555 1_555
O2A Ca1 1_555 1_555
O3A Ca1 1_555 1_555
O4A Ca1 1_555 1_555
S2 C3 1_555 1_555
O4 Ca1A_2 1_555 1_555
C5 C6 1_555 1_555
Ca1A_2 O3A 1_555 1_555

#END
