
#######################################################################
#
#                 Cambridge Crystallographic Data Centre
#                                CCDC 
#
#######################################################################
#
# If this CIF has been generated from an entry in the Cambridge 
# Structural Database, then it will include bibliographic, chemical, 
# crystal, experimental, refinement or atomic coordinate data resulting 
# from the CCDC's data processing and validation procedures.
#
#######################################################################

data_WUWTIS
_symmetry_cell_setting           monoclinic
_symmetry_space_group_name_H-M   'C 2/c'
_symmetry_Int_Tables_number      15
_space_group_name_Hall           '-C 2yn'
loop_
_symmetry_equiv_pos_site_id
_symmetry_equiv_pos_as_xyz
1 x,y,z
2 -x,y,1/2-z
3 1/2+x,1/2+y,z
4 1/2-x,1/2+y,1/2-z
5 -x,-y,-z
6 x,-y,1/2+z
7 1/2-x,1/2-y,-z
8 1/2+x,1/2-y,1/2+z
_cell_length_a                   17.897(4)
_cell_length_b                   4.1251(9)
_cell_length_c                   15.379(4)
_cell_angle_alpha                90
_cell_angle_beta                 95.766(3)
_cell_angle_gamma                90
_cell_volume                     1129.64
loop_
_atom_site_label
_atom_site_type_symbol
_atom_site_fract_x
_atom_site_fract_y
_atom_site_fract_z
Cu1 Cu 0.615060(15) 0.21257(9) 0.945918(19)
N1 N 0.52663(11) 0.0492(6) 0.98574(14)
N2 N 0.71848(14) 0.2435(7) 0.98836(16)
N3 N 0.61017(9) 0.4209(5) 0.82180(12)
N4 N 0.56716(9) 0.3387(4) 0.74725(12)
C1 C 0.47337(11) -0.0492(6) 1.01426(14)
C2 C 0.78152(14) 0.2565(7) 1.01164(16)
C3 C 0.66437(12) 0.6048(6) 0.79528(16)
H1 H 0.7024 0.6991 0.8326
C4 C 0.65740(13) 0.6392(6) 0.70500(17)
H2 H 0.6887 0.7548 0.6715
C5 C 0.59478(13) 0.4669(6) 0.67602(15)
H3 H 0.5748 0.4421 0.6182
C6 C 0.5000 0.1419(8) 0.7500
H4 H 0.4920(11) 0.009(4) 0.6987(9)
Cu1A Cu 0.384940(15) 0.21257(9) 0.554082(19)
Cu1D Cu 0.384940(15) -0.21257(9) 1.054082(19)
Cu1F Cu 0.884940(15) 0.28743(9) 1.054082(19)
N1A N 0.47337(11) 0.0492(6) 0.51426(14)
N2A N 0.28152(14) 0.2435(7) 0.51164(16)
N3A N 0.38983(9) 0.4209(5) 0.67820(12)
N4A N 0.43284(9) 0.3387(4) 0.75275(12)
C3A C 0.33563(12) 0.6048(6) 0.70472(16)
H1A H 0.2976 0.6991 0.6674
C4A C 0.34260(13) 0.6392(6) 0.79500(17)
H2A H 0.3113 0.7548 0.8285
C5A C 0.40522(13) 0.4669(6) 0.82398(15)
H3A H 0.4252 0.4421 0.8818
H4A H 0.5080(11) 0.009(4) 0.8013(9)
loop_
_geom_bond_atom_site_label_1
_geom_bond_atom_site_label_2
_geom_bond_site_symmetry_1
_geom_bond_site_symmetry_2
Cu1 N1 1_555 1_555
N1 C1 1_555 1_555
N2 Cu1 1_555 1_555
N3 Cu1 1_555 1_555
N4 N3 1_555 1_555
C1 Cu1D 1_555 1_555
C2 N2 1_555 1_555
C3 N3 1_555 1_555
H1 C3 1_555 1_555
C4 C3 1_555 1_555
H2 C4 1_555 1_555
C5 N4 1_555 1_555
H3 C5 1_555 1_555
C6 N4 1_555 1_555
H4 C6 1_555 1_555
Cu1A N1A 1_555 1_555
Cu1F C2 1_555 1_555
N2A Cu1A 1_555 1_555
N3A Cu1A 1_555 1_555
N4A C6 1_555 1_555
C3A N3A 1_555 1_555
H1A C3A 1_555 1_555
C4A C3A 1_555 1_555
H2A C4A 1_555 1_555
C5A N4A 1_555 1_555
H3A C5A 1_555 1_555
H4A C6 1_555 1_555
C4 C5 1_555 1_555
N3A N4A 1_555 1_555
C4A C5A 1_555 1_555

#END
