
#######################################################################
#
#                 Cambridge Crystallographic Data Centre
#                                CCDC 
#
#######################################################################
#
# If this CIF has been generated from an entry in the Cambridge 
# Structural Database, then it will include bibliographic, chemical, 
# crystal, experimental, refinement or atomic coordinate data resulting 
# from the CCDC's data processing and validation procedures.
#
#######################################################################

data_WUWTOY
_symmetry_cell_setting           monoclinic
_symmetry_space_group_name_H-M   'P 21/n'
_symmetry_Int_Tables_number      14
_space_group_name_Hall           '-P 2yn'
loop_
_symmetry_equiv_pos_site_id
_symmetry_equiv_pos_as_xyz
1 x,y,z
2 1/2-x,1/2+y,1/2-z
3 -x,-y,-z
4 1/2+x,1/2-y,1/2+z
_cell_length_a                   13.675(3)
_cell_length_b                   7.0096(14)
_cell_length_c                   14.084(3)
_cell_angle_alpha                90
_cell_angle_beta                 107.502(3)
_cell_angle_gamma                90
_cell_volume                     1287.54
loop_
_atom_site_label
_atom_site_type_symbol
_atom_site_fract_x
_atom_site_fract_y
_atom_site_fract_z
Cu1 Cu 0.96895(4) 0.34671(8) 0.45583(4)
Cu2 Cu 0.68535(4) 0.52861(9) 0.58253(4)
N1 N 0.8082(3) 0.5255(6) 0.5427(3)
N2 N 0.9927(3) 0.0797(6) 0.4906(3)
C1 C 1.0073(3) -0.0797(6) 0.5094(3)
N3 N 0.5436(3) 0.5098(7) 0.5173(3)
C2 C 0.4564(3) 0.4902(7) 0.4827(3)
N4 N 1.2358(3) -0.0442(5) 0.2340(3)
N5 N 1.1822(3) -0.0787(5) 0.2990(3)
N6 N 0.8713(3) 0.3028(5) 0.2243(2)
N7 N 0.8929(3) 0.4142(5) 0.3068(2)
C3 C 0.8827(3) 0.5070(6) 0.5242(3)
C4 C 1.3326(3) -0.0204(6) 0.2909(3)
H1 H 1.3874 0.0051 0.2666
C5 C 1.3406(4) -0.0387(8) 0.3911(4)
H2 H 1.3996 -0.0284 0.4451
C6 C 1.2433(4) -0.0749(8) 0.3934(4)
H3 H 1.2230 -0.0936 0.4501
C7 C 1.0709(3) -0.0902(7) 0.2656(3)
H4 H 1.0485 -0.1590 0.2030
H5 H 1.0474 -0.1596 0.3142
C8 C 1.0249(3) 0.1077(6) 0.2520(3)
H6 H 1.0557 0.1815 0.3118
H7 H 1.0416 0.1700 0.1974
C9 C 0.9091(3) 0.1075(6) 0.2309(3)
H8 H 0.8913 0.0407 0.2837
H9 H 0.8772 0.0414 0.1688
C10 C 0.8210(4) 0.4014(7) 0.1433(3)
H10 H 0.7981 0.3541 0.0786
C11 C 0.8092(4) 0.5832(8) 0.1717(3)
H11 H 0.7775 0.6844 0.1314
C12 C 0.8547(3) 0.5841(7) 0.2742(3)
H12 H 0.8581 0.6902 0.3146
Cu1B Cu 1.03105(4) -0.34671(8) 0.54417(4)
Cu2B Cu 0.31465(4) 0.47139(9) 0.41747(4)
Cu2C Cu 1.18535(4) -0.02861(9) 0.08253(4)
Cu2B_2 Cu 1.31465(4) -0.52861(9) 0.41747(4)
Cu2A Cu 0.81465(4) 0.02861(9) 0.91747(4)
N1B N 1.1918(3) -0.5255(6) 0.4573(3)
N3B N 1.4564(3) -0.5098(7) 0.4827(3)
N4C N 0.7358(3) 0.5442(5) 0.7340(3)
N4B N 0.7642(3) 0.0442(5) 0.7660(3)
N4A N 1.2642(3) -0.5442(5) 0.2660(3)
N5B N 0.8178(3) 0.0787(5) 0.7010(3)
N6B N 1.1287(3) -0.3028(5) 0.7757(2)
N7B N 1.1071(3) -0.4142(5) 0.6932(2)
C3B C 1.1173(3) -0.5070(6) 0.4758(3)
C4B C 0.6674(3) 0.0204(6) 0.7091(3)
H1B H 0.6126 -0.0051 0.7334
C5B C 0.6594(4) 0.0387(8) 0.6089(4)
H2B H 0.6004 0.0284 0.5549
C6B C 0.7567(4) 0.0749(8) 0.6066(4)
H3B H 0.7770 0.0936 0.5499
C7B C 0.9291(3) 0.0902(7) 0.7344(3)
H4B H 0.9515 0.1590 0.7970
H5B H 0.9526 0.1596 0.6858
C8B C 0.9751(3) -0.1077(6) 0.7480(3)
H6B H 0.9443 -0.1815 0.6882
H7B H 0.9584 -0.1700 0.8026
C9B C 1.0909(3) -0.1075(6) 0.7691(3)
H8B H 1.1087 -0.0407 0.7163
H9B H 1.1228 -0.0414 0.8312
C10B C 1.1790(4) -0.4014(7) 0.8567(3)
H10B H 1.2019 -0.3541 0.9214
C11B C 1.1908(4) -0.5832(8) 0.8283(3)
H11B H 1.2225 -0.6844 0.8686
C12B C 1.1453(3) -0.5841(7) 0.7258(3)
H12B H 1.1419 -0.6902 0.6854
loop_
_geom_bond_atom_site_label_1
_geom_bond_atom_site_label_2
_geom_bond_site_symmetry_1
_geom_bond_site_symmetry_2
Cu1 N2 1_555 1_555
Cu2 N1 1_555 1_555
N1 C3 1_555 1_555
N2 C1 1_555 1_555
C1 Cu1B 1_555 1_555
N3 Cu2 1_555 1_555
C2 N3 1_555 1_555
N4 N5 1_555 1_555
N5 C6 1_555 1_555
N6 N7 1_555 1_555
N7 Cu1 1_555 1_555
C3 Cu1 1_555 1_555
C4 N4 1_555 1_555
H1 C4 1_555 1_555
C5 C4 1_555 1_555
H2 C5 1_555 1_555
C6 C5 1_555 1_555
H3 C6 1_555 1_555
C7 N5 1_555 1_555
H4 C7 1_555 1_555
H5 C7 1_555 1_555
C8 C7 1_555 1_555
H6 C8 1_555 1_555
H7 C8 1_555 1_555
C9 N6 1_555 1_555
H8 C9 1_555 1_555
H9 C9 1_555 1_555
C10 N6 1_555 1_555
H10 C10 1_555 1_555
C11 C10 1_555 1_555
H11 C11 1_555 1_555
C12 N7 1_555 1_555
H12 C12 1_555 1_555
Cu1B N7B 1_555 1_555
Cu2B C2 1_555 1_555
Cu2C N4 1_555 1_555
Cu2B_2 N1B 1_555 1_555
Cu2A N4B 1_555 1_555
N1B C3B 1_555 1_555
N3B Cu2B_2 1_555 1_555
N4C Cu2 1_555 1_555
N4B N5B 1_555 1_555
N4A Cu2B_2 1_555 1_555
N5B C6B 1_555 1_555
N6B N7B 1_555 1_555
N7B C12B 1_555 1_555
C3B Cu1B 1_555 1_555
C4B N4B 1_555 1_555
H1B C4B 1_555 1_555
C5B C4B 1_555 1_555
H2B C5B 1_555 1_555
C6B C5B 1_555 1_555
H3B C6B 1_555 1_555
C7B N5B 1_555 1_555
H4B C7B 1_555 1_555
H5B C7B 1_555 1_555
C8B C7B 1_555 1_555
H6B C8B 1_555 1_555
H7B C8B 1_555 1_555
C9B N6B 1_555 1_555
H8B C9B 1_555 1_555
H9B C9B 1_555 1_555
C10B N6B 1_555 1_555
H10B C10B 1_555 1_555
C11B C10B 1_555 1_555
H11B C11B 1_555 1_555
C12B C11B 1_555 1_555
H12B C12B 1_555 1_555
C8 C9 1_555 1_555
C11 C12 1_555 1_555
C8B C9B 1_555 1_555

#END
