
#######################################################################
#
#                 Cambridge Crystallographic Data Centre
#                                CCDC 
#
#######################################################################
#
# If this CIF has been generated from an entry in the Cambridge 
# Structural Database, then it will include bibliographic, chemical, 
# crystal, experimental, refinement or atomic coordinate data resulting 
# from the CCDC's data processing and validation procedures.
#
#######################################################################

data_WUWVAM
_symmetry_cell_setting           triclinic
_symmetry_space_group_name_H-M   'P -1'
_symmetry_Int_Tables_number      2
_space_group_name_Hall           '-P 1'
loop_
_symmetry_equiv_pos_site_id
_symmetry_equiv_pos_as_xyz
1 x,y,z
2 -x,-y,-z
_cell_length_a                   8.1924(16)
_cell_length_b                   8.3120(17)
_cell_length_c                   8.9434(18)
_cell_angle_alpha                85.22(3)
_cell_angle_beta                 86.68(3)
_cell_angle_gamma                77.72(3)
_cell_volume                     592.494
loop_
_atom_site_label
_atom_site_type_symbol
_atom_site_fract_x
_atom_site_fract_y
_atom_site_fract_z
Cu1 Cu 0.12102(3) 0.39967(4) 0.25133(3)
N1 N 0.0301(3) 0.4800(3) 0.4435(2)
N2 N 0.0273(3) 0.4741(3) 0.0578(3)
C1 C -0.0301(3) 0.5200(3) 0.5565(2)
C2 C -0.0273(3) 0.5259(3) -0.0578(3)
N3 N 0.1449(3) 0.1344(3) 0.2779(2)
N4 N 0.1898(3) 0.0292(3) 0.3995(3)
C3 C 0.0933(4) 0.0444(4) 0.1815(3)
H1 H 0.0552 0.0845 0.0868
C4 C 0.1649(4) -0.1212(4) 0.3789(4)
H2 H 0.1859 -0.2127 0.4477
C5 C 0.1038(4) -0.1174(4) 0.2404(4)
H3 H 0.0752 -0.2038 0.1951
C6 C 0.4437(3) 0.0844(3) 0.5058(3)
H4 H 0.4779 0.1355 0.5890
H5 H 0.4598 0.1523 0.4149
C7 C 0.2594(3) 0.0831(4) 0.5284(3)
H6 H 0.2433 0.0102 0.6160
H7 H 0.1987 0.1934 0.5480
N5 N 0.3810(2) 0.4091(2) 0.2279(2)
N6 N 0.5003(3) 0.3355(3) 0.1315(2)
C8 C 0.4597(3) 0.4849(3) 0.3171(3)
H8 H 0.4079 0.5467 0.3952
C9 C 0.6507(4) 0.3648(4) 0.1600(4)
H9 H 0.7509 0.3264 0.1076
C10 C 0.6304(4) 0.4597(4) 0.2783(4)
H10 H 0.7118 0.4993 0.3236
C11 C 0.4638(3) 0.2345(3) 0.0181(3)
H11 H 0.5205 0.2610 -0.0761
H12 H 0.3446 0.2605 0.0028
C12 C 0.5182(4) 0.0517(3) 0.0615(3)
H13 H 0.4594 0.0241 0.1543
H14 H 0.6370 0.0255 0.0788
Cu1A Cu 0.87898(3) -0.39967(4) 0.74867(3)
Cu1A_2 Cu -0.12102(3) 0.60033(4) 0.74867(3)
Cu1A_3 Cu -0.12102(3) 0.60033(4) -0.25133(3)
Cu1A_4 Cu 0.87898(3) -0.39967(4) -0.25133(3)
N1A N 0.9699(3) -0.4800(3) 0.5565(2)
N2A N 0.9727(3) -0.4741(3) 0.9422(3)
N3A N 0.8551(3) -0.1344(3) 0.7221(2)
N4A N 0.8102(3) -0.0292(3) 0.6005(3)
C3A C 0.9067(4) -0.0444(4) 0.8185(3)
H1A H 0.9448 -0.0845 0.9132
C4A C 0.8351(4) 0.1212(4) 0.6211(4)
H2A H 0.8141 0.2127 0.5523
C5A C 0.8962(4) 0.1174(4) 0.7596(4)
H3A H 0.9248 0.2038 0.8049
C6A C 0.5563(3) -0.0844(3) 0.4942(3)
H4A H 0.5221 -0.1355 0.4110
H5A H 0.5402 -0.1523 0.5851
C7A C 0.7406(3) -0.0831(4) 0.4716(3)
H6A H 0.7567 -0.0102 0.3840
H7A H 0.8013 -0.1934 0.4520
N5A N 0.6190(2) -0.4091(2) -0.2279(2)
N5A_2 N 0.6190(2) -0.4091(2) 0.7721(2)
N6A N 0.4997(3) -0.3355(3) -0.1315(2)
C8A C 0.5403(3) -0.4849(3) -0.3171(3)
H8A H 0.5921 -0.5467 -0.3952
C9A C 0.3493(4) -0.3648(4) -0.1600(4)
H9A H 0.2491 -0.3264 -0.1076
C10A C 0.3696(4) -0.4597(4) -0.2783(4)
H10A H 0.2882 -0.4993 -0.3236
C11A C 0.5362(3) -0.2345(3) -0.0181(3)
H11A H 0.4795 -0.2610 0.0761
H12A H 0.6554 -0.2605 -0.0028
C12A C 0.4818(4) -0.0517(3) -0.0615(3)
H13A H 0.5406 -0.0241 -0.1543
H14A H 0.3630 -0.0255 -0.0788
loop_
_geom_bond_atom_site_label_1
_geom_bond_atom_site_label_2
_geom_bond_site_symmetry_1
_geom_bond_site_symmetry_2
Cu1 N1 1_555 1_555
N1 C1 1_555 1_555
N2 Cu1 1_555 1_555
C1 Cu1A_2 1_555 1_555
C2 N2 1_555 1_555
N3 Cu1 1_555 1_555
N4 N3 1_555 1_555
C3 N3 1_555 1_555
H1 C3 1_555 1_555
C4 N4 1_555 1_555
H2 C4 1_555 1_555
C5 C3 1_555 1_555
H3 C5 1_555 1_555
C6 H4 1_555 1_555
H5 C6 1_555 1_555
C7 N4 1_555 1_555
H6 C7 1_555 1_555
H7 C7 1_555 1_555
N5 Cu1 1_555 1_555
N6 N5 1_555 1_555
C8 N5 1_555 1_555
H8 C8 1_555 1_555
C9 N6 1_555 1_555
H9 C9 1_555 1_555
C10 C8 1_555 1_555
H10 C10 1_555 1_555
C11 N6 1_555 1_555
H11 C11 1_555 1_555
H12 C11 1_555 1_555
C12 C11 1_555 1_555
H13 C12 1_555 1_555
H14 C12 1_555 1_555
Cu1A N1A 1_555 1_555
Cu1A_3 C2 1_555 1_555
Cu1A_4 N5A 1_555 1_555
N2A Cu1A 1_555 1_555
N3A Cu1A 1_555 1_555
N4A N3A 1_555 1_555
C3A N3A 1_555 1_555
H1A C3A 1_555 1_555
C4A N4A 1_555 1_555
H2A C4A 1_555 1_555
C5A C3A 1_555 1_555
H3A C5A 1_555 1_555
C6A C6 1_555 1_555
H4A C6A 1_555 1_555
H5A C6A 1_555 1_555
C7A N4A 1_555 1_555
H6A C7A 1_555 1_555
H7A C7A 1_555 1_555
N5A N6A 1_555 1_555
N5A_2 Cu1A 1_555 1_555
N6A C9A 1_555 1_555
C8A N5A 1_555 1_555
H8A C8A 1_555 1_555
C9A H9A 1_555 1_555
C10A C8A 1_555 1_555
H10A C10A 1_555 1_555
C11A N6A 1_555 1_555
H11A C11A 1_555 1_555
H12A C11A 1_555 1_555
C12A C12 1_555 1_555
H13A C12A 1_555 1_555
H14A C12A 1_555 1_555
C4 C5 1_555 1_555
C6 C7 1_555 1_555
C9 C10 1_555 1_555
C4A C5A 1_555 1_555
C6A C7A 1_555 1_555
C9A C10A 1_555 1_555
C11A C12A 1_555 1_555

#END
