
#######################################################################
#
#                 Cambridge Crystallographic Data Centre
#                                CCDC 
#
#######################################################################
#
# If this CIF has been generated from an entry in the Cambridge 
# Structural Database, then it will include bibliographic, chemical, 
# crystal, experimental, refinement or atomic coordinate data resulting 
# from the CCDC's data processing and validation procedures.
#
#######################################################################

data_WUWVEQ
_symmetry_cell_setting           orthorhombic
_symmetry_space_group_name_H-M   'P 21 21 21'
_symmetry_Int_Tables_number      19
_space_group_name_Hall           'P 2ac 2ab'
loop_
_symmetry_equiv_pos_site_id
_symmetry_equiv_pos_as_xyz
1 x,y,z
2 1/2-x,-y,1/2+z
3 -x,1/2+y,1/2-z
4 1/2+x,1/2-y,-z
_cell_length_a                   8.3992(10)
_cell_length_b                   12.6546(16)
_cell_length_c                   13.3111(16)
_cell_angle_alpha                90
_cell_angle_beta                 90
_cell_angle_gamma                90
_cell_volume                     1414.82
loop_
_atom_site_label
_atom_site_type_symbol
_atom_site_fract_x
_atom_site_fract_y
_atom_site_fract_z
Co1 Co 0.88371(5) 0.03603(3) 0.26827(3)
N1 N 0.2341(3) 0.4038(2) 0.2695(2)
N2 N 0.4095(3) 0.2918(2) 0.32881(19)
N3 N 1.0252(3) -0.0214(2) 0.37917(18)
N4 N 1.2091(3) -0.0914(2) 0.47562(19)
O1 O 0.7683(3) 0.1371(2) 0.35237(17)
O2 O 0.5867(3) 0.1412(2) 0.23454(19)
O3 O 1.5287(3) -0.1095(2) 0.65308(17)
O4 O 1.3359(3) 0.0075(2) 0.64060(19)
C1 C 0.1745(4) 0.3040(3) 0.2621(3)
H1 H 0.0750 0.2867 0.2362
C2 C 0.2812(4) 0.2340(3) 0.2979(3)
H2 H 0.2698 0.1609 0.3010
C3 C 0.3768(4) 0.3929(3) 0.3101(2)
H3 H 0.4455 0.4487 0.3239
C4 C 0.5536(4) 0.2523(3) 0.3792(2)
H4 H 0.6262 0.3124 0.3873
C5 C 0.5159(5) 0.2110(4) 0.4828(3)
H5 H 0.4636 0.2651 0.5211
H6 H 0.6128 0.1909 0.5159
H7 H 0.4473 0.1506 0.4774
C6 C 0.6387(4) 0.1702(3) 0.3149(2)
C7 C 0.9581(4) -0.0484(3) 0.4707(2)
H8 H 0.8520 -0.0386 0.4884
C8 C 1.1757(4) -0.0487(3) 0.3853(2)
H9 H 1.2496 -0.0398 0.3340
C9 C 1.0705(4) -0.0909(3) 0.5296(3)
H10 H 1.0569 -0.1154 0.5949
C10 C 1.3625(4) -0.1301(3) 0.5142(2)
H11 H 1.3469 -0.2040 0.5337
C11 C 1.4895(4) -0.1283(4) 0.4385(3)
H12 H 1.4560 -0.1672 0.3803
H13 H 1.5839 -0.1601 0.4658
H14 H 1.5118 -0.0565 0.4198
C12 C 1.4088(4) -0.0692(3) 0.6100(2)
Co1A Co 1.61629(5) -0.03603(3) 0.76827(3)
Co1B Co 0.11629(5) 0.53603(3) 0.23173(3)
N1B N 0.7659(3) -0.0962(2) 0.2305(2)
O3A O 0.9713(3) 0.1095(2) 0.15308(17)
loop_
_geom_bond_atom_site_label_1
_geom_bond_atom_site_label_2
_geom_bond_site_symmetry_1
_geom_bond_site_symmetry_2
Co1 N3 1_555 1_555
N1 C1 1_555 1_555
N2 C2 1_555 1_555
N3 C7 1_555 1_555
N4 C8 1_555 1_555
O1 Co1 1_555 1_555
O2 C6 1_555 1_555
O3 C12 1_555 1_555
O4 C12 1_555 1_555
C1 H1 1_555 1_555
C2 C1 1_555 1_555
H2 C2 1_555 1_555
C3 N1 1_555 1_555
H3 C3 1_555 1_555
C4 N2 1_555 1_555
H4 C4 1_555 1_555
C5 C4 1_555 1_555
H5 C5 1_555 1_555
H6 C5 1_555 1_555
H7 C5 1_555 1_555
C6 O1 1_555 1_555
C7 H8 1_555 1_555
C8 N3 1_555 1_555
H9 C8 1_555 1_555
C9 N4 1_555 1_555
H10 C9 1_555 1_555
C10 N4 1_555 1_555
H11 C10 1_555 1_555
C11 C10 1_555 1_555
H12 C11 1_555 1_555
H13 C11 1_555 1_555
H14 C11 1_555 1_555
C12 C10 1_555 1_555
Co1A O3 1_555 1_555
Co1B N1 1_555 1_555
N1B Co1 1_555 1_555
O3A Co1 1_555 1_555
N2 C3 1_555 1_555
C4 C6 1_555 1_555
C7 C9 1_555 1_555

#END
