
#######################################################################
#
#                 Cambridge Crystallographic Data Centre
#                                CCDC 
#
#######################################################################
#
# If this CIF has been generated from an entry in the Cambridge 
# Structural Database, then it will include bibliographic, chemical, 
# crystal, experimental, refinement or atomic coordinate data resulting 
# from the CCDC's data processing and validation procedures.
#
#######################################################################

data_WUWVOA
_symmetry_cell_setting           orthorhombic
_symmetry_space_group_name_H-M   'P n a 21'
_symmetry_Int_Tables_number      33
_space_group_name_Hall           'P 2c -2n'
loop_
_symmetry_equiv_pos_site_id
_symmetry_equiv_pos_as_xyz
1 x,y,z
2 -x,-y,1/2+z
3 1/2+x,1/2-y,z
4 1/2-x,1/2+y,1/2+z
_cell_length_a                   15.215(2)
_cell_length_b                   5.0455(7)
_cell_length_c                   16.937(2)
_cell_angle_alpha                90
_cell_angle_beta                 90
_cell_angle_gamma                90
_cell_volume                     1300.21
loop_
_atom_site_label
_atom_site_type_symbol
_atom_site_fract_x
_atom_site_fract_y
_atom_site_fract_z
Mn1 Mn 0.62682(2) 1.50213(10) 0.52970(8)
O1 O 0.61351(12) 1.1560(5) 0.45338(14)
O2 O 0.54722(14) 0.7622(4) 0.45006(19)
O3 O 0.20791(14) 1.2613(4) 0.61015(18)
O4 O 0.13971(12) 1.6551(5) 0.60735(14)
N1 N 0.38615(16) 1.0048(4) 0.41767(16)
N2 N 0.25506(15) 0.9154(5) 0.46860(16)
N3 N 0.49770(15) 1.4260(5) 0.59043(17)
N4 N 0.36746(15) 1.5115(4) 0.64286(17)
C1 C 0.54975(18) 1.0084(6) 0.44026(19)
C2 C 0.4855(2) 1.1890(9) 0.3165(2)
H1 H 0.4359 1.2754 0.2928
H2 H 0.4946 1.0202 0.2917
H3 H 0.5369 1.2969 0.3098
C3 C 0.46828(17) 1.1486(7) 0.40378(17)
H4 H 0.4629 1.3237 0.4284
C4 C 0.3571(2) 0.7747(6) 0.3829(3)
H5 H 0.3865 0.6745 0.3452
C5 C 0.2770(3) 0.7227(7) 0.4145(3)
H6 H 0.2420 0.5780 0.4016
C6 C 0.32289(17) 1.0801(6) 0.46863(19)
H7 H 0.3264 1.2305 0.5002
C7 C 0.4784(3) 1.2369(6) 0.6467(3)
H8 H 0.5149 1.0966 0.6607
C8 C 0.42953(18) 1.5862(6) 0.59034(19)
H9 H 0.4246 1.7340 0.5578
C9 C 0.3990(2) 1.2857(7) 0.6785(3)
H10 H 0.3708 1.1860 0.7172
C10 C 0.28394(17) 1.6480(7) 0.65627(18)
H11 H 0.2883 1.8220 0.6308
C11 C 0.2677(2) 1.6967(8) 0.7440(2)
H12 H 0.3175 1.7857 0.7664
H13 H 0.2591 1.5301 0.7703
H14 H 0.2162 1.8047 0.7503
C12 C 0.20460(18) 1.5061(5) 0.6200(2)
Mn1_2 Mn 0.62682(2) 0.50213(10) 0.52970(8)
Mn1B Mn 0.12682(2) 0.99787(10) 0.52970(8)
Mn1B_2 Mn 0.12682(2) 1.99787(10) 0.52970(8)
O2_2 O 0.54722(14) 1.7622(4) 0.45006(19)
O3B O 0.70791(14) 1.2387(4) 0.61015(18)
O4B O 0.63971(12) 1.8449(5) 0.60735(14)
N2B N 0.75506(15) 1.5846(5) 0.46860(16)
loop_
_geom_bond_atom_site_label_1
_geom_bond_atom_site_label_2
_geom_bond_site_symmetry_1
_geom_bond_site_symmetry_2
Mn1 O1 1_555 1_555
O1 C1 1_555 1_555
O2 C1 1_555 1_555
O3 C12 1_555 1_555
O4 C12 1_555 1_555
N1 C3 1_555 1_555
N2 C5 1_555 1_555
N3 Mn1 1_555 1_555
N4 C8 1_555 1_555
C1 C3 1_555 1_555
C2 H1 1_555 1_555
H2 C2 1_555 1_555
H3 C2 1_555 1_555
C3 C2 1_555 1_555
H4 C3 1_555 1_555
C4 N1 1_555 1_555
H5 C4 1_555 1_555
C5 C4 1_555 1_555
H6 C5 1_555 1_555
C6 N1 1_555 1_555
H7 C6 1_555 1_555
C7 N3 1_555 1_555
H8 C7 1_555 1_555
C8 N3 1_555 1_555
H9 C8 1_555 1_555
C9 N4 1_555 1_555
H10 C9 1_555 1_555
C10 N4 1_555 1_555
H11 C10 1_555 1_555
C11 C10 1_555 1_555
H12 C11 1_555 1_555
H13 C11 1_555 1_555
H14 C11 1_555 1_555
C12 C10 1_555 1_555
Mn1_2 O2 1_555 1_555
Mn1B O3 1_555 1_555
Mn1B_2 O4 1_555 1_555
O2_2 Mn1 1_555 1_555
O3B Mn1 1_555 1_555
O4B Mn1 1_555 1_555
N2B Mn1 1_555 1_555
N2 C6 1_555 1_555
N2 Mn1B 1_555 1_555
C7 C9 1_555 1_555

#END
