
#######################################################################
#
#                 Cambridge Crystallographic Data Centre
#                                CCDC 
#
#######################################################################
#
# If this CIF has been generated from an entry in the Cambridge 
# Structural Database, then it will include bibliographic, chemical, 
# crystal, experimental, refinement or atomic coordinate data resulting 
# from the CCDC's data processing and validation procedures.
#
#######################################################################

data_WUWWUH
_symmetry_cell_setting           triclinic
_symmetry_space_group_name_H-M   'P -1'
_symmetry_Int_Tables_number      2
_space_group_name_Hall           '-P 1'
loop_
_symmetry_equiv_pos_site_id
_symmetry_equiv_pos_as_xyz
1 x,y,z
2 -x,-y,-z
_cell_length_a                   8.6483(3)
_cell_length_b                   8.8062(3)
_cell_length_c                   13.9356(4)
_cell_angle_alpha                80.8320(10)
_cell_angle_beta                 73.2140(10)
_cell_angle_gamma                89.5940(10)
_cell_volume                     1002.26
loop_
_atom_site_label
_atom_site_type_symbol
_atom_site_fract_x
_atom_site_fract_y
_atom_site_fract_z
C1 C 0.8653(2) 0.60549(19) 0.32858(13)
C2 C 0.9040(2) 0.65735(18) 0.41816(12)
C3 C 0.8278(2) 0.6037(2) 0.51958(13)
H1 H 0.7417 0.5318 0.5390
C4 C 0.8834(2) 0.6601(2) 0.59173(13)
H2 H 0.8332 0.6269 0.6605
C5 C 1.0138(2) 0.7659(2) 0.56161(13)
H3 H 1.0542 0.8015 0.6093
C6 C 1.08187(19) 0.81692(18) 0.45860(12)
C7 C 1.2195(2) 0.93596(19) 0.41159(13)
C8 C 1.3597(2) 0.79061(19) 0.07511(13)
C9 C 1.27259(19) 0.92937(18) 0.03939(12)
C10 C 1.3090(2) 1.0049(2) -0.06014(13)
H4 H 1.3900 0.9709 -0.1112
C11 C 1.2223(2) 1.1321(2) -0.08201(13)
H5 H 1.2451 1.1847 -0.1482
C12 C 1.1015(2) 1.18093(19) -0.00487(13)
H6 H 1.0430 1.2666 -0.0184
C13 C 1.06989(19) 1.09966(18) 0.09236(12)
C14 C 0.9365(2) 1.13429(19) 0.18332(13)
Ca1 Ca 0.63278(4) 0.38210(3) 0.25076(2)
Cu1 Cu 1.09952(2) 0.86156(2) 0.249980(14)
H7 H 0.449(4) 0.262(3) 0.1385(14)
H8 H 0.732(3) 0.509(3) 0.0288(15)
H9 H 0.416(3) 0.637(3) 0.2513(17)
H10 H 0.603(4) 0.170(4) 0.442(2)
H11 H 0.365(3) 0.162(3) 0.242(2)
H12 H 0.595(3) 0.574(3) 0.064(2)
H13 H 0.520(3) 0.669(2) 0.312(2)
H14 H 0.452(3) 0.136(3) 0.424(2)
N1 N 1.02526(16) 0.76305(15) 0.38993(10)
N2 N 1.15493(16) 0.97649(15) 0.11298(10)
O1 O 0.93853(17) 0.68024(15) 0.24270(9)
O2 O 0.76971(17) 0.49306(16) 0.34590(12)
O3 O 1.24570(16) 0.98406(15) 0.31789(9)
O4 O 1.29571(17) 0.97632(16) 0.46698(11)
O5 O 1.30623(17) 0.73815(15) 0.16937(10)
O6 O 1.47271(15) 0.74155(15) 0.01272(10)
O7 O 0.91096(16) 1.03762(15) 0.26318(9)
O8 O 0.86202(16) 1.25498(15) 0.17144(10)
O9 O 0.43652(18) 0.24369(17) 0.20701(11)
O10 O 0.66158(17) 0.51372(15) 0.08680(10)
O11 O 0.47038(17) 0.59308(15) 0.29332(10)
O12 O 0.54261(19) 0.20012(18) 0.39993(12)
Ca1_2 Ca 0.63278(4) 1.38210(3) 0.25076(2)
O8_2 O 0.86202(16) 0.25498(15) 0.17144(10)
H15 H 0.536(4) 0.910(4) 0.372(3)
H16 H 0.708(3) 0.895(4) 0.330(3)
O13 O 0.6106(2) 0.8511(2) 0.34028(17)
H17 H 0.828(3) 0.546(3) 0.8699(18)
H18 H 0.976(4) 0.574(4) 0.878(3)
O14 O 0.8923(3) 0.4951(3) 0.90787(17)
loop_
_geom_bond_atom_site_label_1
_geom_bond_atom_site_label_2
_geom_bond_site_symmetry_1
_geom_bond_site_symmetry_2
C1 C2 1_555 1_555
C2 C3 1_555 1_555
C3 H1 1_555 1_555
C4 C3 1_555 1_555
H2 C4 1_555 1_555
C5 C4 1_555 1_555
H3 C5 1_555 1_555
C6 C5 1_555 1_555
C7 C6 1_555 1_555
C8 C9 1_555 1_555
C9 C10 1_555 1_555
C10 H4 1_555 1_555
C11 C10 1_555 1_555
H5 C11 1_555 1_555
C12 C11 1_555 1_555
H6 C12 1_555 1_555
C13 C12 1_555 1_555
C14 C13 1_555 1_555
Ca1 O2 1_555 1_555
Cu1 N1 1_555 1_555
H7 O9 1_555 1_555
H8 O10 1_555 1_555
H9 O11 1_555 1_555
H10 O12 1_555 1_555
H11 O9 1_555 1_555
H12 O10 1_555 1_555
H13 O11 1_555 1_555
H14 O12 1_555 1_555
N1 C2 1_555 1_555
N2 C9 1_555 1_555
O1 C1 1_555 1_555
O2 C1 1_555 1_555
O3 C7 1_555 1_555
O4 C7 1_555 1_555
O5 C8 1_555 1_555
O6 C8 1_555 1_555
O7 C14 1_555 1_555
O8 C14 1_555 1_555
O9 Ca1 1_555 1_555
O10 Ca1 1_555 1_555
O11 Ca1 1_555 1_555
O12 Ca1 1_555 1_555
H15 O13 1_555 1_555
H16 O13 1_555 1_555
H17 O14 1_555 1_555
H18 O14 1_555 1_555
Ca1_2 O8 1_555 1_555
O8_2 Ca1 1_555 1_555
C6 N1 1_555 1_555
C13 N2 1_555 1_555
Cu1 N2 1_555 1_555
Cu1 O1 1_555 1_555
Cu1 O3 1_555 1_555
Cu1 O5 1_555 1_555
Cu1 O7 1_555 1_555

#END
