
#######################################################################
#
#                 Cambridge Crystallographic Data Centre
#                                CCDC 
#
#######################################################################
#
# If this CIF has been generated from an entry in the Cambridge 
# Structural Database, then it will include bibliographic, chemical, 
# crystal, experimental, refinement or atomic coordinate data resulting 
# from the CCDC's data processing and validation procedures.
#
#######################################################################

data_WUWZUJ
_symmetry_cell_setting           monoclinic
_symmetry_space_group_name_H-M   'P 21/c'
_symmetry_Int_Tables_number      14
_space_group_name_Hall           '-P 2ybc'
loop_
_symmetry_equiv_pos_site_id
_symmetry_equiv_pos_as_xyz
1 x,y,z
2 x,1/2-y,1/2+z
3 -x,-y,-z
4 -x,1/2+y,1/2-z
_cell_length_a                   9.7204(14)
_cell_length_b                   23.495(2)
_cell_length_c                   14.541(3)
_cell_angle_alpha                90
_cell_angle_beta                 107.578(14)
_cell_angle_gamma                90
_cell_volume                     3165.82
loop_
_atom_site_label
_atom_site_type_symbol
_atom_site_fract_x
_atom_site_fract_y
_atom_site_fract_z
Cu1 Cu 0.59362(4) 0.089029(15) 0.74915(3)
Cu2 Cu 0.91325(4) 0.169620(15) 0.72721(3)
Cu3 Cu 0.25229(3) 0.130488(14) 0.73356(3)
Cl1 Cl 0.47668(8) 0.09672(3) 0.86343(5)
Cl2 Cl 0.43069(8) 0.15234(3) 0.65199(6)
Cl3 Cl 0.71926(9) 0.08241(4) 0.64265(5)
Cl4 Cl 1.02576(8) 0.16361(3) 0.60900(6)
Cl5 Cl 1.07723(7) 0.10545(3) 0.81877(6)
Cl6 Cl 0.79360(9) 0.17535(3) 0.83792(6)
N1 N 0.1344(3) -0.02557(13) 0.5992(3)
N2 N 0.2767(3) -0.02529(11) 0.62630(19)
N3 N 0.3355(3) 0.02146(11) 0.66951(19)
N4 N 0.2252(2) 0.05413(10) 0.67148(18)
C1 C 0.1058(4) 0.02475(15) 0.6285(3)
H1 H 0.0129 0.0383 0.6201
C2 C 0.3639(5) -0.07421(16) 0.6128(3)
H2 H 0.3396 -0.0831 0.5447
H3 H 0.4654 -0.0642 0.6356
C3 C 0.3386(6) -0.1241(2) 0.6650(4)
H4 H 0.3644 -0.1198 0.7317
C4 C 0.2895(7) -0.1701(2) 0.6355(6)
H5 H 0.2611 -0.1777 0.5697
H6 H 0.2800 -0.1980 0.6787
N5 N 0.3796(3) 0.28023(13) 0.8868(2)
N6 N 0.2374(3) 0.27955(11) 0.8650(2)
N7 N 0.1753(3) 0.23598(11) 0.81332(19)
N8 N 0.2818(2) 0.20564(10) 0.79990(18)
C5 C 0.4041(3) 0.23329(14) 0.8444(3)
H7 H 0.4954 0.2209 0.8454
C6 C 0.1559(4) 0.32428(16) 0.8964(3)
H8 H 0.1913 0.3279 0.9661
H9 H 0.0548 0.3137 0.8788
C7 C 0.1707(6) 0.38009(19) 0.8510(4)
H10 H 0.1359 0.3822 0.7841
C8 C 0.2249(8) 0.4237(2) 0.8945(5)
H11 H 0.2610 0.4235 0.9614
H12 H 0.2296 0.4567 0.8602
N9 N 0.6583(3) 0.30261(15) 0.5769(3)
N10 N 0.7920(3) 0.32113(10) 0.59997(19)
N11 N 0.8863(3) 0.28579(11) 0.6500(2)
N12 N 0.8135(3) 0.24002(11) 0.66037(19)
C9 C 0.6772(4) 0.25111(17) 0.6159(3)
H13 H 0.6023 0.2257 0.6122
C10 C 0.8289(4) 0.37777(12) 0.5699(2)
H14 H 0.9299 0.3781 0.5728
H15 H 0.7721 0.3846 0.5035
C11 C 0.8020(5) 0.42393(16) 0.6313(3)
H16 H 0.8518 0.4224 0.6969
C12 C 0.7173(5) 0.46523(16) 0.6023(3)
H17 H 0.6655 0.4684 0.5373
H18 H 0.7066 0.4926 0.6458
N13 N 0.8491(3) -0.04190(13) 0.9089(3)
N14 N 0.7145(3) -0.05841(10) 0.89316(18)
N15 N 0.6188(3) -0.02350(11) 0.84140(19)
N16 N 0.6934(3) 0.01907(11) 0.82051(19)
C13 C 0.8311(4) 0.00703(15) 0.8615(3)
H19 H 0.9066 0.0302 0.8575
C14 C 0.6749(4) -0.11080(13) 0.9350(2)
H20 H 0.5711 -0.1117 0.9227
H21 H 0.7196 -0.1103 1.0044
C15 C 0.7208(6) -0.16282(17) 0.8945(4)
H22 H 0.6765 -0.1676 0.8287
C16 C 0.8027(7) -0.1990(2) 0.9301(5)
H23 H 0.8521 -0.1976 0.9957
H24 H 0.8183 -0.2290 0.8927
Cl4_2 Cl 0.02576(8) 0.16361(3) 0.60900(6)
Cl5_2 Cl 0.07723(7) 0.10545(3) 0.81877(6)
Cu3_2 Cu 1.25229(3) 0.130488(14) 0.73356(3)
loop_
_geom_bond_atom_site_label_1
_geom_bond_atom_site_label_2
_geom_bond_site_symmetry_1
_geom_bond_site_symmetry_2
Cu1 Cl1 1_555 1_555
Cu2 Cl3 1_555 1_555
Cu3 Cl1 1_555 1_555
Cl2 Cu1 1_555 1_555
Cl3 Cu1 1_555 1_555
Cl4 Cu2 1_555 1_555
Cl5 Cu2 1_555 1_555
Cl6 Cu1 1_555 1_555
N1 N2 1_555 1_555
N2 N3 1_555 1_555
N3 N4 1_555 1_555
N4 Cu3 1_555 1_555
C1 N1 1_555 1_555
H1 C1 1_555 1_555
C2 N2 1_555 1_555
H2 C2 1_555 1_555
H3 C2 1_555 1_555
C3 C2 1_555 1_555
H4 C3 1_555 1_555
C4 C3 1_555 1_555
H5 C4 1_555 1_555
H6 C4 1_555 1_555
N5 N6 1_555 1_555
N6 N7 1_555 1_555
N7 N8 1_555 1_555
N8 Cu3 1_555 1_555
C5 N5 1_555 1_555
H7 C5 1_555 1_555
C6 N6 1_555 1_555
H8 C6 1_555 1_555
H9 C6 1_555 1_555
C7 C6 1_555 1_555
H10 C7 1_555 1_555
C8 C7 1_555 1_555
H11 C8 1_555 1_555
H12 C8 1_555 1_555
N9 N10 1_555 1_555
N10 N11 1_555 1_555
N11 N12 1_555 1_555
N12 Cu2 1_555 1_555
C9 N9 1_555 1_555
H13 C9 1_555 1_555
C10 N10 1_555 1_555
H14 C10 1_555 1_555
H15 C10 1_555 1_555
C11 C10 1_555 1_555
H16 C11 1_555 1_555
C12 C11 1_555 1_555
H17 C12 1_555 1_555
H18 C12 1_555 1_555
N13 N14 1_555 1_555
N14 N15 1_555 1_555
N15 N16 1_555 1_555
N16 Cu1 1_555 1_555
C13 N13 1_555 1_555
H19 C13 1_555 1_555
C14 N14 1_555 1_555
H20 C14 1_555 1_555
H21 C14 1_555 1_555
C15 C14 1_555 1_555
H22 C15 1_555 1_555
C16 C15 1_555 1_555
H23 C16 1_555 1_555
H24 C16 1_555 1_555
Cl4_2 Cu3 1_555 1_555
Cl5_2 Cu3 1_555 1_555
Cu3_2 Cl4 1_555 1_555
Cu2 Cl6 1_555 1_555
Cu3 Cl2 1_555 1_555
Cl5 Cu3_2 1_555 1_555
N4 C1 1_555 1_555
N8 C5 1_555 1_555
N12 C9 1_555 1_555
N16 C13 1_555 1_555

#END
