
#######################################################################
#
#                 Cambridge Crystallographic Data Centre
#                                CCDC 
#
#######################################################################
#
# If this CIF has been generated from an entry in the Cambridge 
# Structural Database, then it will include bibliographic, chemical, 
# crystal, experimental, refinement or atomic coordinate data resulting 
# from the CCDC's data processing and validation procedures.
#
#######################################################################

data_WUXBIA
_symmetry_cell_setting           triclinic
_symmetry_space_group_name_H-M   'P -1'
_symmetry_Int_Tables_number      2
_space_group_name_Hall           '-P 1'
loop_
_symmetry_equiv_pos_site_id
_symmetry_equiv_pos_as_xyz
1 x,y,z
2 -x,-y,-z
_cell_length_a                   7.1816(4)
_cell_length_b                   9.6857(5)
_cell_length_c                   10.1259(5)
_cell_angle_alpha                67.8250(10)
_cell_angle_beta                 72.0470(10)
_cell_angle_gamma                83.0780(10)
_cell_volume                     620.484
loop_
_atom_site_label
_atom_site_type_symbol
_atom_site_fract_x
_atom_site_fract_y
_atom_site_fract_z
O1 O 1.0173(3) 0.79324(19) 0.1878(2)
O2 O 0.9479(3) 0.5942(2) 0.15512(18)
O3 O 0.6816(4) 0.1587(2) 0.5923(3)
O4 O 0.5037(3) 0.1868(3) 0.7928(2)
N1 N 0.6161(3) 0.2351(2) 0.6678(2)
C1 C 0.8313(3) 0.6013(2) 0.3973(2)
C2 C 0.7702(3) 0.4546(2) 0.4563(2)
H1 H 0.7928 0.3987 0.3957
C3 C 0.6751(3) 0.3922(2) 0.6068(2)
C4 C 0.6355(3) 0.4710(3) 0.7008(2)
H2 H 0.5694 0.4272 0.8013
C5 C 0.6974(4) 0.6174(3) 0.6410(3)
H3 H 0.6732 0.6733 0.7018
C6 C 0.7954(4) 0.6817(3) 0.4907(3)
H4 H 0.8375 0.7799 0.4521
C7 C 0.9406(3) 0.6694(2) 0.2335(2)
Ag1 Ag 1.62372(2) 0.852457(19) -0.113660(19)
N2 N 1.3384(3) 0.8053(2) -0.1105(2)
N3 N 0.9152(3) 0.8944(2) -0.1251(2)
C8 C 1.2769(3) 0.8924(3) -0.2444(3)
H5 H 1.3707 0.8760 -0.3295
H6 H 1.2803 0.9975 -0.2605
C9 C 1.0733(3) 0.8553(3) -0.2378(3)
H7 H 1.0520 0.9078 -0.3346
H8 H 1.0674 0.7493 -0.2166
H9 H 1.258(4) 0.812(3) -0.035(3)
H10 H 1.328(4) 0.712(4) -0.097(3)
H11 H 0.928(4) 0.846(3) -0.046(3)
H12 H 0.928(4) 0.982(3) -0.138(3)
N3_2 N 1.9152(3) 0.8944(2) -0.1251(2)
Ag1_2 Ag 0.62372(2) 0.852457(19) -0.113660(19)
H11_2 H 1.928(4) 0.846(3) -0.046(3)
H12_2 H 1.928(4) 0.982(3) -0.138(3)
O5 O 1.2671(3) 0.4702(2) -0.0027(3)
H13 H 1.212(5) 0.454(4) -0.057(4)
H14 H 1.176(5) 0.487(3) 0.056(4)
loop_
_geom_bond_atom_site_label_1
_geom_bond_atom_site_label_2
_geom_bond_site_symmetry_1
_geom_bond_site_symmetry_2
O1 C7 1_555 1_555
O2 C7 1_555 1_555
O3 N1 1_555 1_555
O4 N1 1_555 1_555
N1 C3 1_555 1_555
C1 C2 1_555 1_555
C2 H1 1_555 1_555
C3 C2 1_555 1_555
C4 C3 1_555 1_555
H2 C4 1_555 1_555
C5 C4 1_555 1_555
H3 C5 1_555 1_555
C6 C1 1_555 1_555
H4 C6 1_555 1_555
C7 C1 1_555 1_555
Ag1 N2 1_555 1_555
N2 C8 1_555 1_555
N3 C9 1_555 1_555
C8 H5 1_555 1_555
H6 C8 1_555 1_555
C9 C8 1_555 1_555
H7 C9 1_555 1_555
H8 C9 1_555 1_555
H9 N2 1_555 1_555
H10 N2 1_555 1_555
H11 N3 1_555 1_555
H12 N3 1_555 1_555
O5 H13 1_555 1_555
H14 O5 1_555 1_555
N3_2 Ag1 1_555 1_555
Ag1_2 N3 1_555 1_555
H11_2 N3_2 1_555 1_555
H12_2 N3_2 1_555 1_555
C5 C6 1_555 1_555

#END
