
#######################################################################
#
#                 Cambridge Crystallographic Data Centre
#                                CCDC 
#
#######################################################################
#
# If this CIF has been generated from an entry in the Cambridge 
# Structural Database, then it will include bibliographic, chemical, 
# crystal, experimental, refinement or atomic coordinate data resulting 
# from the CCDC's data processing and validation procedures.
#
#######################################################################

data_WUXCIC
_symmetry_cell_setting           triclinic
_symmetry_space_group_name_H-M   'P -1'
_symmetry_Int_Tables_number      2
_space_group_name_Hall           '-P 1'
loop_
_symmetry_equiv_pos_site_id
_symmetry_equiv_pos_as_xyz
1 x,y,z
2 -x,-y,-z
_cell_length_a                   6.343(9)
_cell_length_b                   8.856(13)
_cell_length_c                   9.599(14)
_cell_angle_alpha                81.49(2)
_cell_angle_beta                 79.87(2)
_cell_angle_gamma                81.30(2)
_cell_volume                     520.599
loop_
_atom_site_label
_atom_site_type_symbol
_atom_site_fract_x
_atom_site_fract_y
_atom_site_fract_z
C1 C -0.1561(9) -0.1808(7) 0.8250(6)
N1 N 0.4788(8) 0.2471(6) 0.6142(5)
C2 C 0.1892(10) -0.0960(7) 0.8352(6)
H1 H 0.3066 -0.0423 0.7896
C3 C 0.6001(11) 0.4412(8) 0.7220(6)
H2 H 0.7072 0.4746 0.7639
C4 C 0.2476(10) 0.4885(7) 0.6468(6)
H3 H 0.1163 0.5536 0.6368
C5 C 0.4031(11) 0.5382(8) 0.7075(6)
H4 H 0.3782 0.6369 0.7394
C6 C 0.1852(11) -0.1668(8) 0.9731(7)
H5 H 0.2985 -0.1606 1.0240
C7 C 0.6355(10) 0.2961(8) 0.6743(6)
H6 H 0.7673 0.2311 0.6833
C8 C 0.0093(11) -0.2499(8) 1.0397(6)
H7 H 0.0078 -0.3012 1.1340
C9 C -0.1600(11) -0.2555(8) 0.9657(7)
H8 H -0.2775 -0.3096 1.0101
N2 N 0.0186(8) -0.1038(6) 0.7626(5)
C10 C 0.2826(9) 0.3406(6) 0.5991(6)
O1 O 0.5065(7) 0.1121(5) 0.5614(5)
O2 O 0.1361(7) 0.2892(5) 0.5430(5)
O3 O -0.3110(7) -0.1811(5) 0.7503(4)
O4 O 0.0211(7) -0.0380(5) 0.6261(4)
Zn1 Zn 0.24344(10) 0.08110(7) 0.46241(7)
C1A C 0.1561(9) 0.1808(7) 0.1750(6)
N1A N -0.4788(8) -0.2471(6) 0.3858(5)
C2A C -0.1892(10) 0.0960(7) 0.1648(6)
H1A H -0.3066 0.0423 0.2104
C3A C -0.6001(11) -0.4412(8) 0.2780(6)
H2A H -0.7072 -0.4746 0.2361
C4A C -0.2476(10) -0.4885(7) 0.3532(6)
H3A H -0.1163 -0.5536 0.3632
C5A C -0.4031(11) -0.5382(8) 0.2925(6)
H4A H -0.3782 -0.6369 0.2606
C6A C -0.1852(11) 0.1668(8) 0.0269(7)
H5A H -0.2985 0.1606 -0.0240
C7A C -0.6355(10) -0.2961(8) 0.3257(6)
H6A H -0.7673 -0.2311 0.3167
C8A C -0.0093(11) 0.2499(8) -0.0397(6)
H7A H -0.0078 0.3012 -0.1340
C9A C 0.1600(11) 0.2555(8) 0.0343(7)
H8A H 0.2775 0.3096 -0.0101
N2A N -0.0186(8) 0.1038(6) 0.2374(5)
C10A C -0.2826(9) -0.3406(6) 0.4009(6)
O1A O -0.5065(7) -0.1121(5) 0.4386(5)
O1_2 O -0.4935(7) 0.1121(5) 0.5614(5)
O1A_2 O 0.4935(7) -0.1121(5) 0.4386(5)
O2A O -0.1361(7) -0.2892(5) 0.4570(5)
O3A O 0.3110(7) 0.1811(5) 0.2497(4)
O4A O -0.0211(7) 0.0380(5) 0.3739(4)
Zn1A Zn -0.24344(10) -0.08110(7) 0.53759(7)
Zn1_2 Zn -0.75656(10) 0.08110(7) 0.46241(7)
Zn1A_2 Zn 0.75656(10) -0.08110(7) 0.53759(7)
loop_
_geom_bond_atom_site_label_1
_geom_bond_atom_site_label_2
_geom_bond_site_symmetry_1
_geom_bond_site_symmetry_2
C1 C9 1_555 1_555
N1 C7 1_555 1_555
C2 H1 1_555 1_555
C3 H2 1_555 1_555
C4 H3 1_555 1_555
C5 C3 1_555 1_555
H4 C5 1_555 1_555
C6 C2 1_555 1_555
H5 C6 1_555 1_555
C7 C3 1_555 1_555
H6 C7 1_555 1_555
C8 C6 1_555 1_555
H7 C8 1_555 1_555
C9 C8 1_555 1_555
H8 C9 1_555 1_555
N2 C1 1_555 1_555
C10 N1 1_555 1_555
O1 N1 1_555 1_555
O2 C10 1_555 1_555
O3 C1 1_555 1_555
O4 N2 1_555 1_555
Zn1 O1 1_555 1_555
C1A C9A 1_555 1_555
N1A C7A 1_555 1_555
C2A H1A 1_555 1_555
C3A H2A 1_555 1_555
C4A H3A 1_555 1_555
C5A C3A 1_555 1_555
H4A C5A 1_555 1_555
C6A C2A 1_555 1_555
H5A C6A 1_555 1_555
C7A C3A 1_555 1_555
H6A C7A 1_555 1_555
C8A C6A 1_555 1_555
H7A C8A 1_555 1_555
C9A C8A 1_555 1_555
H8A C9A 1_555 1_555
N2A C1A 1_555 1_555
C10A N1A 1_555 1_555
O1A N1A 1_555 1_555
O1_2 Zn1A 1_555 1_555
O1A_2 Zn1 1_555 1_555
O2A C10A 1_555 1_555
O3A Zn1 1_555 1_555
O4A Zn1 1_555 1_555
Zn1A O3 1_555 1_555
Zn1_2 O1A 1_555 1_555
Zn1A_2 O1 1_555 1_555
C2 N2 1_555 1_555
C4 C5 1_555 1_555
C4 C10 1_555 1_555
O2 Zn1 1_555 1_555
O4 Zn1 1_555 1_555
O4 Zn1A 1_555 1_555
C1A O3A 1_555 1_555
C2A N2A 1_555 1_555
C4A C5A 1_555 1_555
C4A C10A 1_555 1_555
N2A O4A 1_555 1_555
O1A Zn1A 1_555 1_555
O1_2 Zn1_2 1_555 1_555
O1A_2 Zn1A_2 1_555 1_555
O2A Zn1A 1_555 1_555
O4A Zn1A 1_555 1_555

#END
