
#######################################################################
#
#                 Cambridge Crystallographic Data Centre
#                                CCDC 
#
#######################################################################
#
# If this CIF has been generated from an entry in the Cambridge 
# Structural Database, then it will include bibliographic, chemical, 
# crystal, experimental, refinement or atomic coordinate data resulting 
# from the CCDC's data processing and validation procedures.
#
#######################################################################

data_WUXDAV
_symmetry_cell_setting           triclinic
_symmetry_space_group_name_H-M   'P -1'
_symmetry_Int_Tables_number      2
_space_group_name_Hall           '-P 1'
loop_
_symmetry_equiv_pos_site_id
_symmetry_equiv_pos_as_xyz
1 x,y,z
2 -x,-y,-z
_cell_length_a                   12.935(6)
_cell_length_b                   13.469(6)
_cell_length_c                   20.226(9)
_cell_angle_alpha                81.551(8)
_cell_angle_beta                 74.579(8)
_cell_angle_gamma                67.685(8)
_cell_volume                     3138.37
loop_
_atom_site_label
_atom_site_type_symbol
_atom_site_fract_x
_atom_site_fract_y
_atom_site_fract_z
Cd1 Cd 0.71609(4) -0.22476(4) 0.78799(3)
Cd2 Cd 0.21650(4) 0.44013(5) 0.65137(3)
O1 O 0.5582(4) -0.0681(4) 0.7894(3)
O2 O 0.6513(4) -0.0688(4) 0.8655(3)
O3 O 0.3556(4) 0.3287(4) 0.7079(2)
O4 O 0.1813(4) 0.3796(4) 0.7732(3)
O5 O 0.7234(5) -0.4841(4) 0.4604(2)
O6 O 0.8946(5) -0.6029(5) 0.4647(3)
O7 O 0.8100(4) -0.3974(4) 0.7384(2)
O8 O 0.6532(4) -0.2945(4) 0.7071(3)
N1 N 0.8612(4) -0.2941(5) 0.8515(3)
N2 N 0.8306(5) -0.1393(5) 0.7074(3)
N3 N 1.5921(5) -0.3045(5) 0.8716(3)
N4 N 0.2440(4) 0.5902(5) 0.6777(3)
N5 N 1.2087(5) 0.2939(5) 0.6078(3)
O9 O 0.0282(4) 0.5331(5) 0.6594(3)
H1 H 0.0195 0.5645 0.6205
H2 H -0.0086 0.4902 0.6701
C1 C 1.2268(6) 0.1240(7) 0.5324(4)
C2 C 0.4301(6) 0.1505(6) 0.8000(3)
H3 H 0.3973 0.1099 0.7814
H4 H 0.4903 0.1642 0.7639
C3 C 1.2794(6) 0.1918(7) 0.6171(4)
H5 H 1.3232 0.1782 0.6494
C4 C 1.0295(5) -0.3730(7) 0.9285(4)
C5 C 0.8051(6) -0.5869(6) 0.7054(4)
H6 H 0.8840 -0.5900 0.6910
H7 H 0.7849 -0.5929 0.7552
C6 C 0.1974(7) 0.6302(7) 0.7388(4)
H8 H 0.1518 0.5975 0.7704
C7 C 0.9658(6) -0.2641(7) 0.9226(4)
H9 H 0.9778 -0.2149 0.9447
C8 C 0.4806(6) 0.0856(6) 0.8596(4)
C9 C 0.7248(6) -0.4787(6) 0.6795(3)
C10 C 0.3859(6) 0.0627(6) 0.9176(4)
H10 H 0.3532 0.0201 0.9008
H11 H 0.4186 0.0222 0.9556
C11 C 0.3110(6) 0.6407(7) 0.6359(4)
H12 H 0.3447 0.6168 0.5917
C12 C 1.6018(6) -0.4077(7) 0.8729(4)
H13 H 1.6703 -0.4558 0.8490
C13 C 0.3353(6) 0.2592(6) 0.8252(4)
C14 C 0.5726(6) -0.0241(7) 0.8364(4)
C15 C 1.2232(5) -0.3789(6) 0.9365(4)
H14 H 1.2570 -0.4086 0.8915
H15 H 1.1982 -0.3013 0.9300
C16 C 0.9263(6) -0.3996(7) 0.8559(4)
H16 H 0.9155 -0.4474 0.8320
C17 C 1.4150(6) -0.3823(7) 0.9427(4)
C18 C 0.5924(6) -0.5723(6) 0.6700(3)
H17 H 0.5130 -0.5700 0.6832
C19 C 0.9353(7) -0.1907(7) 0.6757(4)
H18 H 0.9633 -0.2651 0.6827
C20 C 0.9717(6) -0.0347(7) 0.6183(4)
C21 C 0.2876(7) 0.3256(6) 0.7639(4)
C22 C 0.7616(6) -0.4718(6) 0.6009(3)
H19 H 0.8400 -0.4737 0.5870
H20 H 0.7129 -0.4041 0.5834
C23 C 0.2851(7) 0.7634(7) 0.7173(4)
C24 C 1.5159(6) -0.4470(6) 0.9076(4)
H21 H 1.5287 -0.5195 0.9064
C25 C 0.7931(6) -0.6821(6) 0.6756(4)
H22 H 0.8433 -0.7503 0.6929
C26 C 0.5310(6) 0.1516(6) 0.8888(4)
H23 H 0.5910 0.1669 0.8533
H24 H 0.5649 0.1103 0.9262
C27 C 0.8323(6) -0.6725(6) 0.5984(3)
H25 H 0.9110 -0.6748 0.5860
H26 H 0.8298 -0.7323 0.5783
C28 C 1.0068(6) -0.4384(6) 0.8941(4)
H27 H 1.0474 -0.5120 0.8966
C29 C 0.8598(6) 0.0199(7) 0.6515(4)
H28 H 0.8289 0.0943 0.6451
C30 C 1.0087(7) -0.1439(7) 0.6323(4)
H29 H 1.0834 -0.1866 0.6126
C31 C 1.1691(6) -0.0386(6) 0.5423(4)
H30 H 1.2079 -0.0725 0.5791
H31 H 1.1738 -0.0949 0.5155
C32 C 1.4938(6) -0.2421(7) 0.9083(4)
H32 H 1.4840 -0.1703 0.9098
C33 C 1.2295(6) 0.0320(6) 0.4970(4)
H33 H 1.3089 -0.0120 0.4791
H34 H 1.1942 0.0609 0.4582
C34 C 0.5986(6) -0.4774(6) 0.6995(4)
H35 H 0.5483 -0.4108 0.6820
H36 H 0.5726 -0.4812 0.7491
C35 C 0.6289(6) -0.5625(6) 0.5921(3)
H37 H 0.6236 -0.6214 0.5726
H38 H 0.5780 -0.4957 0.5751
C36 C 0.8834(6) -0.2293(7) 0.8834(4)
H39 H 0.8420 -0.1560 0.8796
C37 C 0.2108(7) 0.7156(7) 0.7595(4)
H40 H 0.1697 0.7423 0.8023
C38 C 0.6698(6) -0.6790(6) 0.6968(4)
H41 H 0.6640 -0.7382 0.6778
H42 H 0.6461 -0.6858 0.7465
C39 C 1.1529(6) 0.2298(7) 0.5245(4)
H43 H 1.1061 0.2461 0.4936
C40 C 0.7946(7) -0.5503(7) 0.4916(4)
C41 C 1.0436(6) 0.0247(6) 0.5728(4)
H44 H 1.0410 0.0808 0.5990
H45 H 1.0074 0.0600 0.5351
C42 C 1.1189(5) -0.4105(6) 0.9699(4)
H46 H 1.1439 -0.4881 0.9767
H47 H 1.0847 -0.3804 1.0148
C43 C 0.4363(6) 0.2584(6) 0.9153(4)
H48 H 0.4690 0.2995 0.9343
C44 C 1.1475(6) 0.3092(7) 0.5608(4)
H49 H 1.0984 0.3786 0.5525
C45 C 0.7530(6) -0.5647(6) 0.5701(4)
C46 C 1.3140(5) -0.4175(6) 0.9783(4)
H50 H 1.3408 -0.4952 0.9842
H51 H 1.2808 -0.3883 1.0235
C47 C 0.2425(6) 0.2327(6) 0.8819(3)
H52 H 0.1812 0.2989 0.8980
H53 H 0.2102 0.1917 0.8634
C48 C 1.2912(6) 0.1072(7) 0.5825(4)
H54 H 1.3413 0.0387 0.5916
C49 C 1.4030(6) -0.2749(7) 0.9450(4)
H55 H 1.3364 -0.2266 0.9703
C50 C 0.3860(6) 0.3232(6) 0.8547(4)
H56 H 0.3267 0.3908 0.8701
H57 H 0.4458 0.3389 0.8193
C51 C 0.3434(6) 0.2325(6) 0.9703(4)
H58 H 0.3756 0.1917 1.0084
H59 H 0.2833 0.2987 0.9874
C52 C 0.7936(7) -0.0335(7) 0.6937(4)
H60 H 0.7181 0.0066 0.7140
C53 C 0.3338(7) 0.7238(7) 0.6525(4)
H61 H 0.3819 0.7535 0.6204
C54 C 0.2928(6) 0.1682(6) 0.9419(4)
H62 H 0.2319 0.1536 0.9779
C55 C 0.3132(7) 0.8508(7) 0.7377(5)
H63 H 0.3400 0.8890 0.6963
H64 H 0.3763 0.8177 0.7606
C56 C 0.2152(7) 0.9329(7) 0.7849(5)
H65 H 0.1846 0.8957 0.8255
H66 H 0.2447 0.9804 0.7994
C57 C 0.1199(8) 0.9989(8) 0.7489(5)
H67 H 0.1525 1.0318 0.7067
H68 H 0.0886 0.9511 0.7365
C58 C 0.7302(6) -0.3854(7) 0.7094(4)
C59 C 0.0272(8) 1.0825(9) 0.7894(5)
C60 C 0.0330(9) 1.1842(8) 0.7965(5)
H77 H 0.0982 1.1969 0.7705
C61 C -0.0474(9) 1.2667(10) 0.8378(5)
H78 H -0.0370 1.3309 0.8395
C62 C -0.0741(9) 1.0648(9) 0.8291(5)
H79 H -0.0863 1.0016 0.8273
C63 C -0.1575(10) 1.1511(10) 0.8727(6)
H80 H -0.2237 1.1414 0.8997
N6 N -0.1423(9) 1.2463(9) 0.8755(6)
Cd1_2 Cd 1.71609(4) -0.22476(4) 0.78799(3)
Cd2A Cd 0.78350(4) -0.44013(5) 0.34863(3)
Cd2_2 Cd 1.21650(4) 0.44013(5) 0.65137(3)
O5A O 0.2766(5) 0.4841(4) 0.5396(2)
N3_2 N 0.5921(5) -0.3045(5) 0.8716(3)
N5_2 N 0.2087(5) 0.2939(5) 0.6078(3)
O10 O 0.5538(4) 0.1946(4) 0.6134(3)
H69 H 0.4978 0.2331 0.6400
H70 H 0.5424 0.1382 0.6264
O11 O 0.4715(4) 0.2923(5) 0.4955(3)
H71 H 0.4161 0.3468 0.5077
H72 H 0.4950 0.2632 0.5299
O12 O 0.5123(5) 1.0053(4) 0.6582(3)
H73 H 0.5254 0.9848 0.6963
H74 H 0.5273 0.9504 0.6388
O13 O 0.4374(5) 0.1765(5) 0.4057(3)
H75 H 0.4111 0.2103 0.3731
H76 H 0.4470 0.2104 0.4327
loop_
_geom_bond_atom_site_label_1
_geom_bond_atom_site_label_2
_geom_bond_site_symmetry_1
_geom_bond_site_symmetry_2
Cd1 O1 1_555 1_555
Cd2 O3 1_555 1_555
O1 C14 1_555 1_555
O2 Cd1 1_555 1_555
O3 C21 1_555 1_555
O4 Cd2 1_555 1_555
O5 C40 1_555 1_555
O6 C40 1_555 1_555
O7 Cd1 1_555 1_555
O8 Cd1 1_555 1_555
N1 Cd1 1_555 1_555
N2 Cd1 1_555 1_555
N3 C12 1_555 1_555
N4 Cd2 1_555 1_555
N5 C3 1_555 1_555
O9 Cd2 1_555 1_555
H1 O9 1_555 1_555
H2 O9 1_555 1_555
C1 C33 1_555 1_555
C2 H3 1_555 1_555
H4 C2 1_555 1_555
C3 H5 1_555 1_555
C4 C7 1_555 1_555
C5 H6 1_555 1_555
H7 C5 1_555 1_555
C6 N4 1_555 1_555
H8 C6 1_555 1_555
C7 H9 1_555 1_555
C8 C2 1_555 1_555
C9 C5 1_555 1_555
C10 C8 1_555 1_555
H10 C10 1_555 1_555
H11 C10 1_555 1_555
C11 N4 1_555 1_555
H12 C11 1_555 1_555
C12 H13 1_555 1_555
C13 C2 1_555 1_555
C14 O2 1_555 1_555
C15 H14 1_555 1_555
H15 C15 1_555 1_555
C16 N1 1_555 1_555
H16 C16 1_555 1_555
C17 C24 1_555 1_555
C18 H17 1_555 1_555
C19 N2 1_555 1_555
H18 C19 1_555 1_555
C20 C29 1_555 1_555
C21 O4 1_555 1_555
C22 C9 1_555 1_555
H19 C22 1_555 1_555
H20 C22 1_555 1_555
C23 C37 1_555 1_555
C24 C12 1_555 1_555
H21 C24 1_555 1_555
C25 C5 1_555 1_555
H22 C25 1_555 1_555
C26 C8 1_555 1_555
H23 C26 1_555 1_555
H24 C26 1_555 1_555
C27 C25 1_555 1_555
H25 C27 1_555 1_555
H26 C27 1_555 1_555
C28 C4 1_555 1_555
H27 C28 1_555 1_555
C29 H28 1_555 1_555
C30 C19 1_555 1_555
H29 C30 1_555 1_555
C31 H30 1_555 1_555
H31 C31 1_555 1_555
C32 N3 1_555 1_555
H32 C32 1_555 1_555
C33 C31 1_555 1_555
H33 C33 1_555 1_555
H34 C33 1_555 1_555
C34 C9 1_555 1_555
H35 C34 1_555 1_555
H36 C34 1_555 1_555
C35 C18 1_555 1_555
H37 C35 1_555 1_555
H38 C35 1_555 1_555
C36 N1 1_555 1_555
H39 C36 1_555 1_555
C37 C6 1_555 1_555
H40 C37 1_555 1_555
C38 C18 1_555 1_555
H41 C38 1_555 1_555
H42 C38 1_555 1_555
C39 C1 1_555 1_555
H43 C39 1_555 1_555
C40 C45 1_555 1_555
C41 C20 1_555 1_555
H44 C41 1_555 1_555
H45 C41 1_555 1_555
C42 C4 1_555 1_555
H46 C42 1_555 1_555
H47 C42 1_555 1_555
C43 C26 1_555 1_555
H48 C43 1_555 1_555
C44 N5 1_555 1_555
H49 C44 1_555 1_555
C45 C22 1_555 1_555
C46 C15 1_555 1_555
H50 C46 1_555 1_555
H51 C46 1_555 1_555
C47 C13 1_555 1_555
H52 C47 1_555 1_555
H53 C47 1_555 1_555
C48 C1 1_555 1_555
H54 C48 1_555 1_555
C49 C17 1_555 1_555
H55 C49 1_555 1_555
C50 C13 1_555 1_555
H56 C50 1_555 1_555
H57 C50 1_555 1_555
C51 C43 1_555 1_555
H58 C51 1_555 1_555
H59 C51 1_555 1_555
C52 N2 1_555 1_555
H60 C52 1_555 1_555
C53 C11 1_555 1_555
H61 C53 1_555 1_555
C54 C10 1_555 1_555
H62 C54 1_555 1_555
C55 C23 1_555 1_555
H63 C55 1_555 1_555
H64 C55 1_555 1_555
C56 C55 1_555 1_555
H65 C56 1_555 1_555
H66 C56 1_555 1_555
C57 C56 1_555 1_555
H67 C57 1_555 1_555
H68 C57 1_555 1_555
C58 O7 1_555 1_555
O10 H69 1_555 1_555
H70 O10 1_555 1_555
O11 H71 1_555 1_555
H72 O11 1_555 1_555
O12 H73 1_555 1_555
H74 O12 1_555 1_555
O13 H75 1_555 1_555
H76 O13 1_555 1_555
C59 C57 1_555 1_555
C60 C59 1_555 1_555
H77 C60 1_555 1_555
C61 C60 1_555 1_555
H78 C61 1_555 1_555
C62 C59 1_555 1_555
H79 C62 1_555 1_555
C63 C62 1_555 1_555
H80 C63 1_555 1_555
N6 C61 1_555 1_555
Cd1_2 N3 1_555 1_555
Cd2A O5 1_555 1_555
Cd2_2 N5 1_555 1_555
O5A Cd2 1_555 1_555
N3_2 Cd1 1_555 1_555
N5_2 Cd2 1_555 1_555
O8 C58 1_555 1_555
C3 C48 1_555 1_555
C7 C36 1_555 1_555
C8 C14 1_555 1_555
C9 C58 1_555 1_555
C13 C21 1_555 1_555
C15 C42 1_555 1_555
C16 C28 1_555 1_555
C17 C46 1_555 1_555
C18 C34 1_555 1_555
C20 C30 1_555 1_555
C23 C53 1_555 1_555
C25 C38 1_555 1_555
C27 C45 1_555 1_555
C29 C52 1_555 1_555
C31 C41 1_555 1_555
C32 C49 1_555 1_555
C35 C45 1_555 1_555
C39 C44 1_555 1_555
C43 C50 1_555 1_555
C47 C54 1_555 1_555
C51 C54 1_555 1_555
C63 N6 1_555 1_555

#END
