
#######################################################################
#
#                 Cambridge Crystallographic Data Centre
#                                CCDC 
#
#######################################################################
#
# If this CIF has been generated from an entry in the Cambridge 
# Structural Database, then it will include bibliographic, chemical, 
# crystal, experimental, refinement or atomic coordinate data resulting 
# from the CCDC's data processing and validation procedures.
#
#######################################################################

data_WUXFUR
_symmetry_cell_setting           orthorhombic
_symmetry_space_group_name_H-M   'P n n a'
_symmetry_Int_Tables_number      52
_space_group_name_Hall           '-P 2a 2bc'
loop_
_symmetry_equiv_pos_site_id
_symmetry_equiv_pos_as_xyz
1 x,y,z
2 1/2-x,-y,z
3 x,1/2-y,1/2-z
4 1/2-x,1/2+y,1/2-z
5 -x,-y,-z
6 1/2+x,y,-z
7 -x,1/2+y,1/2+z
8 1/2+x,1/2-y,1/2+z
_cell_length_a                   8.5980(7)
_cell_length_b                   31.731(3)
_cell_length_c                   15.4683(13)
_cell_angle_alpha                90
_cell_angle_beta                 90
_cell_angle_gamma                90
_cell_volume                     4220.11
loop_
_atom_site_label
_atom_site_type_symbol
_atom_site_fract_x
_atom_site_fract_y
_atom_site_fract_z
Pb1 Pb -0.35671(6) -0.2500 0.2500
O1 O -0.2016(13) -0.1990(2) 0.1452(5)
O2 O -0.2289(11) -0.1625(2) 0.2613(3)
N1 N -0.4670(9) -0.2353(2) 0.4082(5)
N2 N -0.5879(10) -0.1968(2) 0.2655(4)
N3 N -0.8525(9) -0.0983(2) 0.4629(5)
N4 N -0.7601(10) -0.1310(2) 0.5790(5)
H1 H -0.7437 -0.1370 0.6324
N5 N -1.0205(14) -0.0463(4) 0.7423(7)
C1 C -0.4093(13) -0.2545(3) 0.4782(6)
H2 H -0.3417 -0.2771 0.4704
C2 C -0.4462(13) -0.2423(3) 0.5619(6)
H3 H -0.4070 -0.2572 0.6088
C3 C -0.5399(11) -0.2084(3) 0.5750(6)
H4 H -0.5602 -0.1989 0.6307
C4 C -0.6055(11) -0.1879(3) 0.5037(5)
C5 C -0.7037(12) -0.1522(3) 0.5086(6)
C6 C -0.7660(13) -0.1325(3) 0.4376(6)
C7 C -0.7319(12) -0.1468(3) 0.3529(6)
C8 C -0.7910(13) -0.1290(3) 0.2771(6)
H5 H -0.8602 -0.1065 0.2802
C9 C -0.7472(13) -0.1446(3) 0.1980(6)
H6 H -0.7843 -0.1327 0.1471
C10 C -0.6483(11) -0.1779(3) 0.1960(7)
H7 H -0.6204 -0.1884 0.1420
C11 C -0.6307(11) -0.1815(3) 0.3442(6)
C12 C -0.5654(12) -0.2024(3) 0.4203(5)
C13 C -0.8480(14) -0.0980(3) 0.5478(7)
C14 C -0.9190(17) -0.0681(4) 0.6049(8)
C15 C -0.9512(17) -0.0743(4) 0.6879(9)
H8 H -0.9236 -0.1002 0.7111
C16 C -1.053(2) -0.0129(5) 0.7145(10)
H9 H -1.0924 0.0068 0.7532
C17 C -1.0393(19) -0.0015(5) 0.6354(9)
H10 H -1.0814 0.0238 0.6161
C18 C -0.9534(19) -0.0300(5) 0.5749(9)
H11 H -0.9257 -0.0215 0.5194
C19 C -0.1964(13) -0.1656(3) 0.1828(7)
C20 C -0.1455(12) -0.1275(3) 0.1332(6)
C21 C -0.1000(14) -0.1308(3) 0.0484(6)
H12 H -0.0984 -0.1573 0.0227
C22 C -0.0560(14) -0.0959(3) -0.0005(6)
H13 H -0.0276 -0.0992 -0.0581
C23 C -0.0548(14) -0.0561(3) 0.0376(6)
C24 C -0.0989(13) -0.0537(3) 0.1237(6)
H14 H -0.0967 -0.0275 0.1508
C25 C -0.1455(12) -0.0878(3) 0.1703(6)
H15 H -0.1774 -0.0845 0.2274
C26 C -0.0069(14) -0.0192(3) -0.0143(7)
H16 H 0.0155 -0.0239 -0.0723
Pb1D Pb 0.35671(6) 0.2500 -0.2500
O1D O 0.2016(13) 0.1990(2) -0.1452(5)
O1B O -0.2016(13) -0.3010(2) 0.3548(5)
O2D O 0.2289(11) 0.1625(2) -0.2613(3)
N1B N -0.4670(9) -0.2647(2) 0.0918(5)
N2B N -0.5879(10) -0.3032(2) 0.2345(4)
N3B N -0.8525(9) -0.4017(2) 0.0371(5)
N4B N -0.7601(10) -0.3690(2) -0.0790(5)
H1B H -0.7437 -0.3630 -0.1324
N5B N -1.0205(14) -0.4537(4) -0.2423(7)
C1B C -0.4093(13) -0.2455(3) 0.0218(6)
H2B H -0.3417 -0.2229 0.0296
C2B C -0.4462(13) -0.2577(3) -0.0619(6)
H3B H -0.4070 -0.2428 -0.1088
C3B C -0.5399(11) -0.2916(3) -0.0750(6)
H4B H -0.5602 -0.3011 -0.1307
C4B C -0.6055(11) -0.3121(3) -0.0037(5)
C5B C -0.7037(12) -0.3478(3) -0.0086(6)
C6B C -0.7660(13) -0.3675(3) 0.0624(6)
C7B C -0.7319(12) -0.3532(3) 0.1471(6)
C8B C -0.7910(13) -0.3710(3) 0.2229(6)
H5B H -0.8602 -0.3935 0.2198
C9B C -0.7472(13) -0.3554(3) 0.3020(6)
H6B H -0.7843 -0.3673 0.3529
C10B C -0.6483(11) -0.3221(3) 0.3040(7)
H7B H -0.6204 -0.3116 0.3580
C11B C -0.6307(11) -0.3185(3) 0.1558(6)
C12B C -0.5654(12) -0.2976(3) 0.0797(5)
C13B C -0.8480(14) -0.4020(3) -0.0478(7)
C14B C -0.9190(17) -0.4319(4) -0.1049(8)
C15B C -0.9512(17) -0.4257(4) -0.1879(9)
H8B H -0.9236 -0.3998 -0.2111
C16B C -1.053(2) -0.4871(5) -0.2145(10)
H9B H -1.0924 -0.5068 -0.2532
C17B C -1.0393(19) -0.4985(5) -0.1354(9)
H10B H -1.0814 -0.5238 -0.1161
C18B C -0.9534(19) -0.4700(5) -0.0749(9)
H11B H -0.9257 -0.4785 -0.0194
C19D C 0.1964(13) 0.1656(3) -0.1828(7)
C20D C 0.1455(12) 0.1275(3) -0.1332(6)
C21D C 0.1000(14) 0.1308(3) -0.0484(6)
H12D H 0.0984 0.1573 -0.0227
C22D C 0.0560(14) 0.0959(3) 0.0005(6)
H13D H 0.0276 0.0992 0.0581
C23D C 0.0548(14) 0.0561(3) -0.0376(6)
C24D C 0.0989(13) 0.0537(3) -0.1237(6)
H14D H 0.0967 0.0275 -0.1508
C25D C 0.1455(12) 0.0878(3) -0.1703(6)
H15D H 0.1774 0.0845 -0.2274
C26D C 0.0069(14) 0.0192(3) 0.0143(7)
H16D H -0.0155 0.0239 0.0723
loop_
_geom_bond_atom_site_label_1
_geom_bond_atom_site_label_2
_geom_bond_site_symmetry_1
_geom_bond_site_symmetry_2
Pb1 O1 1_555 1_555
O1 C19 1_555 1_555
O2 C19 1_555 1_555
N1 Pb1 1_555 1_555
N2 Pb1 1_555 1_555
N3 C6 1_555 1_555
N4 H1 1_555 1_555
N5 C15 1_555 1_555
C1 N1 1_555 1_555
H2 C1 1_555 1_555
C2 C1 1_555 1_555
H3 C2 1_555 1_555
C3 C2 1_555 1_555
H4 C3 1_555 1_555
C4 C3 1_555 1_555
C5 N4 1_555 1_555
C6 C5 1_555 1_555
C7 C6 1_555 1_555
C8 C7 1_555 1_555
H5 C8 1_555 1_555
C9 C8 1_555 1_555
H6 C9 1_555 1_555
C10 N2 1_555 1_555
H7 C10 1_555 1_555
C11 N2 1_555 1_555
C12 N1 1_555 1_555
C13 N3 1_555 1_555
C14 C13 1_555 1_555
C15 C14 1_555 1_555
H8 C15 1_555 1_555
C16 N5 1_555 1_555
H9 C16 1_555 1_555
C17 C16 1_555 1_555
H10 C17 1_555 1_555
C18 C14 1_555 1_555
H11 C18 1_555 1_555
C19 C20 1_555 1_555
C20 C21 1_555 1_555
C21 H12 1_555 1_555
C22 C21 1_555 1_555
H13 C22 1_555 1_555
C23 C22 1_555 1_555
C24 C23 1_555 1_555
H14 C24 1_555 1_555
C25 C20 1_555 1_555
H15 C25 1_555 1_555
C26 C23 1_555 1_555
H16 C26 1_555 1_555
Pb1D O1D 1_555 1_555
O1D C19D 1_555 1_555
O1B Pb1 1_555 1_555
O2D C19D 1_555 1_555
N1B Pb1 1_555 1_555
N2B Pb1 1_555 1_555
N3B C6B 1_555 1_555
N4B H1B 1_555 1_555
N5B C15B 1_555 1_555
C1B N1B 1_555 1_555
H2B C1B 1_555 1_555
C2B C1B 1_555 1_555
H3B C2B 1_555 1_555
C3B C2B 1_555 1_555
H4B C3B 1_555 1_555
C4B C3B 1_555 1_555
C5B N4B 1_555 1_555
C6B C5B 1_555 1_555
C7B C6B 1_555 1_555
C8B C7B 1_555 1_555
H5B C8B 1_555 1_555
C9B C8B 1_555 1_555
H6B C9B 1_555 1_555
C10B N2B 1_555 1_555
H7B C10B 1_555 1_555
C11B N2B 1_555 1_555
C12B N1B 1_555 1_555
C13B N3B 1_555 1_555
C14B C13B 1_555 1_555
C15B C14B 1_555 1_555
H8B C15B 1_555 1_555
C16B N5B 1_555 1_555
H9B C16B 1_555 1_555
C17B C16B 1_555 1_555
H10B C17B 1_555 1_555
C18B C14B 1_555 1_555
H11B C18B 1_555 1_555
C19D C20D 1_555 1_555
C20D C21D 1_555 1_555
C21D H12D 1_555 1_555
C22D C21D 1_555 1_555
H13D C22D 1_555 1_555
C23D C22D 1_555 1_555
C24D C23D 1_555 1_555
H14D C24D 1_555 1_555
C25D C20D 1_555 1_555
H15D C25D 1_555 1_555
C26D C26 1_555 1_555
H16D C26D 1_555 1_555
N4 C13 1_555 1_555
C4 C5 1_555 1_555
C4 C12 1_555 1_555
C7 C11 1_555 1_555
C9 C10 1_555 1_555
C11 C12 1_555 1_555
C17 C18 1_555 1_555
C24 C25 1_555 1_555
N4B C13B 1_555 1_555
C4B C5B 1_555 1_555
C4B C12B 1_555 1_555
C7B C11B 1_555 1_555
C9B C10B 1_555 1_555
C11B C12B 1_555 1_555
C17B C18B 1_555 1_555
C23D C26D 1_555 1_555
C24D C25D 1_555 1_555

#END
