
#######################################################################
#
#                 Cambridge Crystallographic Data Centre
#                                CCDC 
#
#######################################################################
#
# If this CIF has been generated from an entry in the Cambridge 
# Structural Database, then it will include bibliographic, chemical, 
# crystal, experimental, refinement or atomic coordinate data resulting 
# from the CCDC's data processing and validation procedures.
#
#######################################################################

data_WUXGOM
_symmetry_cell_setting           monoclinic
_symmetry_space_group_name_H-M   'P 21/c'
_symmetry_Int_Tables_number      14
_space_group_name_Hall           '-P 2ybc'
loop_
_symmetry_equiv_pos_site_id
_symmetry_equiv_pos_as_xyz
1 x,y,z
2 -x,1/2+y,1/2-z
3 -x,-y,-z
4 x,1/2-y,1/2+z
_cell_length_a                   10.2350(12)
_cell_length_b                   13.7970(16)
_cell_length_c                   19.4061(17)
_cell_angle_alpha                90
_cell_angle_beta                 117.958(5)
_cell_angle_gamma                90
_cell_volume                     2420.55
loop_
_atom_site_label
_atom_site_type_symbol
_atom_site_fract_x
_atom_site_fract_y
_atom_site_fract_z
Pb1 Pb 0.60597(4) -0.39514(3) 0.106931(19)
O1 O -0.5798(10) -0.7767(5) -0.1121(4)
O2 O -0.4949(9) -0.7344(5) 0.0088(4)
O3 O 0.3701(7) -0.4912(6) 0.0154(4)
O4 O 0.3697(6) -0.3931(4) 0.1031(4)
N1 N 0.6868(8) -0.3514(6) 0.2553(4)
N2 N 0.6294(8) -0.5392(6) 0.2051(5)
N3 N 0.8498(8) -0.4764(9) 0.5218(5)
H1 H 0.8766 -0.4278 0.5533
N4 N 0.8047(9) -0.6336(8) 0.4780(6)
N5 N 0.9749(16) -0.6628(14) 0.7638(8)
C1 C 0.7165(11) -0.2596(9) 0.2797(6)
H2 H 0.7025 -0.2115 0.2433
C2 C 0.7669(12) -0.2329(9) 0.3564(6)
H3 H 0.7805 -0.1678 0.3703
C3 C 0.7961(11) -0.3006(9) 0.4107(6)
H4 H 0.8333 -0.2828 0.4628
C4 C 0.7709(11) -0.3990(9) 0.3896(6)
C5 C 0.7954(11) -0.4779(10) 0.4410(6)
C6 C 0.7702(11) -0.5705(9) 0.4157(6)
C7 C 0.7108(11) -0.6014(9) 0.3368(6)
C8 C 0.6722(11) -0.6951(9) 0.3058(6)
H5 H 0.6851 -0.7475 0.3385
C9 C 0.6171(12) -0.7089(9) 0.2292(7)
H6 H 0.5916 -0.7713 0.2091
C10 C 0.5970(12) -0.6326(9) 0.1791(7)
H7 H 0.5604 -0.6452 0.1262
C11 C 0.6852(11) -0.5223(9) 0.2834(6)
C12 C 0.7152(11) -0.4238(8) 0.3103(6)
C13 C 0.8490(14) -0.5695(12) 0.5369(8)
C14 C 0.8963(15) -0.6053(13) 0.6184(9)
C15 C 0.8854(14) -0.7065(13) 0.6304(8)
H8 H 0.8521 -0.7545 0.5923
C16 C 0.9340(18) -0.7197(15) 0.7099(9)
H9 H 0.9353 -0.7841 0.7243
C17 C 0.9844(18) -0.5667(14) 0.7568(11)
H10 H 1.0175 -0.5242 0.7988
C18 C 0.9368(13) -0.5347(13) 0.6752(8)
H11 H 0.9345 -0.4694 0.6628
C19 C -0.5306(11) -0.7980(7) -0.0400(6)
C20 C -0.5166(10) -0.9023(7) -0.0199(5)
C21 C -0.5464(10) -0.9743(7) -0.0767(5)
H12 H -0.5758 -0.9564 -0.1281
C22 C -0.5327(10) -1.0683(7) -0.0575(5)
H13 H -0.4436 -0.8851 0.0962
C23 C 0.3043(10) -0.4516(7) 0.0477(5)
C24 C 0.1484(9) -0.4757(6) 0.0237(5)
C25 C 0.0639(10) -0.4231(6) 0.0500(5)
H14 H 0.1066 -0.3714 0.0840
C26 C 0.0804(9) -0.5535(7) -0.0264(5)
H15 H 0.1347 -0.5903 -0.0441
Pb1B Pb -0.60597(4) -0.60486(3) -0.106931(19)
Pb1_2 Pb -0.39403(4) -1.39514(3) 0.106931(19)
O1B O 0.5798(10) -0.2233(5) 0.1121(4)
O1B_2 O -0.4202(10) -1.2233(5) 0.1121(4)
O2B O 0.4949(9) -0.2656(5) -0.0088(4)
O2B_2 O -0.5051(9) -1.2656(5) -0.0088(4)
O3B O -0.3701(7) -0.5088(6) -0.0154(4)
O4B O -0.3697(6) -0.6069(4) -0.1031(4)
N1B N -0.6868(8) -0.6486(6) -0.2553(4)
N2B N -0.6294(8) -0.4608(6) -0.2051(5)
N3B N -0.8498(8) -0.5236(9) -0.5218(5)
H1B H -0.8766 -0.5722 -0.5533
N4B N -0.8047(9) -0.3664(8) -0.4780(6)
N5B N -0.9749(16) -0.3372(14) -0.7638(8)
C1B C -0.7165(11) -0.7404(9) -0.2797(6)
H2B H -0.7025 -0.7885 -0.2433
C2B C -0.7669(12) -0.7671(9) -0.3564(6)
H3B H -0.7805 -0.8322 -0.3703
C3B C -0.7961(11) -0.6994(9) -0.4107(6)
H4B H -0.8333 -0.7172 -0.4628
C4B C -0.7709(11) -0.6010(9) -0.3896(6)
C5B C -0.7954(11) -0.5221(10) -0.4410(6)
C6B C -0.7702(11) -0.4295(9) -0.4157(6)
C7B C -0.7108(11) -0.3986(9) -0.3368(6)
C8B C -0.6722(11) -0.3049(9) -0.3058(6)
H5B H -0.6851 -0.2525 -0.3385
C9B C -0.6171(12) -0.2911(9) -0.2292(7)
H6B H -0.5916 -0.2287 -0.2091
C10B C -0.5970(12) -0.3674(9) -0.1791(7)
H7B H -0.5604 -0.3548 -0.1262
C11B C -0.6852(11) -0.4777(9) -0.2834(6)
C12B C -0.7152(11) -0.5762(8) -0.3103(6)
C13B C -0.8490(14) -0.4305(12) -0.5369(8)
C14B C -0.8963(15) -0.3947(13) -0.6184(9)
C15B C -0.8854(14) -0.2935(13) -0.6304(8)
H8B H -0.8521 -0.2455 -0.5923
C16B C -0.9340(18) -0.2803(15) -0.7099(9)
H9B H -0.9353 -0.2159 -0.7243
C17B C -0.9844(18) -0.4333(14) -0.7568(11)
H10B H -1.0175 -0.4758 -0.7988
C18B C -0.9368(13) -0.4653(13) -0.6752(8)
H11B H -0.9345 -0.5306 -0.6628
C19B C -0.4694(11) -1.2020(7) 0.0400(6)
C20B C -0.4834(10) -1.0977(7) 0.0199(5)
C21B C -0.4536(10) -1.0257(7) 0.0767(5)
H12B H -0.4242 -1.0436 0.1281
C22B C -0.4673(10) -0.9317(7) 0.0575(5)
H13B H -0.5564 -1.1149 -0.0962
C23B C -0.3043(10) -0.5484(7) -0.0477(5)
C24B C -0.1484(9) -0.5243(6) -0.0237(5)
C25B C -0.0639(10) -0.5769(6) -0.0500(5)
H14B H -0.1066 -0.6286 -0.0840
C26B C -0.0804(9) -0.4465(7) 0.0264(5)
H15B H -0.1347 -0.4097 0.0441
O5 O 0.899(2) -0.2884(13) 0.6025(13)
O6 O 0.673(2) 0.0393(17) 0.2654(12)
loop_
_geom_bond_atom_site_label_1
_geom_bond_atom_site_label_2
_geom_bond_site_symmetry_1
_geom_bond_site_symmetry_2
Pb1 O3 1_555 1_555
O1 C19 1_555 1_555
O2 C19 1_555 1_555
O3 C23 1_555 1_555
O4 Pb1 1_555 1_555
N1 Pb1 1_555 1_555
N2 Pb1 1_555 1_555
N3 H1 1_555 1_555
N4 C6 1_555 1_555
N5 C16 1_555 1_555
C1 N1 1_555 1_555
H2 C1 1_555 1_555
C2 C1 1_555 1_555
H3 C2 1_555 1_555
C3 C2 1_555 1_555
H4 C3 1_555 1_555
C4 C3 1_555 1_555
C5 N3 1_555 1_555
C6 C5 1_555 1_555
C7 C6 1_555 1_555
C8 C7 1_555 1_555
H5 C8 1_555 1_555
C9 C8 1_555 1_555
H6 C9 1_555 1_555
C10 N2 1_555 1_555
H7 C10 1_555 1_555
C11 N2 1_555 1_555
C12 N1 1_555 1_555
C13 N3 1_555 1_555
C14 C13 1_555 1_555
C15 C14 1_555 1_555
H8 C15 1_555 1_555
C16 C15 1_555 1_555
H9 C16 1_555 1_555
C17 N5 1_555 1_555
H10 C17 1_555 1_555
C18 C14 1_555 1_555
H11 C18 1_555 1_555
C19 C20 1_555 1_555
C20 C21 1_555 1_555
C21 H12 1_555 1_555
C22 C21 1_555 1_555
H13 C22B 1_555 1_555
C23 O4 1_555 1_555
C24 C23 1_555 1_555
C25 C24 1_555 1_555
H14 C25 1_555 1_555
C26 C24 1_555 1_555
H15 C26 1_555 1_555
Pb1B O1 1_555 1_555
Pb1_2 O1B_2 1_555 1_555
O1B Pb1 1_555 1_555
O1B_2 C19B 1_555 1_555
O2B Pb1 1_555 1_555
O2B_2 Pb1_2 1_555 1_555
O3B Pb1B 1_555 1_555
O4B Pb1B 1_555 1_555
N1B Pb1B 1_555 1_555
N2B Pb1B 1_555 1_555
N3B H1B 1_555 1_555
N4B C6B 1_555 1_555
N5B C16B 1_555 1_555
C1B N1B 1_555 1_555
H2B C1B 1_555 1_555
C2B C1B 1_555 1_555
H3B C2B 1_555 1_555
C3B C2B 1_555 1_555
H4B C3B 1_555 1_555
C4B C3B 1_555 1_555
C5B N3B 1_555 1_555
C6B C5B 1_555 1_555
C7B C6B 1_555 1_555
C8B C7B 1_555 1_555
H5B C8B 1_555 1_555
C9B C8B 1_555 1_555
H6B C9B 1_555 1_555
C10B N2B 1_555 1_555
H7B C10B 1_555 1_555
C11B N2B 1_555 1_555
C12B N1B 1_555 1_555
C13B N3B 1_555 1_555
C14B C13B 1_555 1_555
C15B C14B 1_555 1_555
H8B C15B 1_555 1_555
C16B C15B 1_555 1_555
H9B C16B 1_555 1_555
C17B N5B 1_555 1_555
H10B C17B 1_555 1_555
C18B C14B 1_555 1_555
H11B C18B 1_555 1_555
C19B O2B_2 1_555 1_555
C20B C22 1_555 1_555
C21B C20B 1_555 1_555
H12B C21B 1_555 1_555
C22B C20 1_555 1_555
H13B C22 1_555 1_555
C23B O3B 1_555 1_555
C24B C23B 1_555 1_555
C25B C26 1_555 1_555
H14B C25B 1_555 1_555
C26B C25 1_555 1_555
H15B C26B 1_555 1_555
O2 Pb1B 1_555 1_555
N4 C13 1_555 1_555
C4 C5 1_555 1_555
C4 C12 1_555 1_555
C7 C11 1_555 1_555
C9 C10 1_555 1_555
C11 C12 1_555 1_555
C17 C18 1_555 1_555
O4B C23B 1_555 1_555
N4B C13B 1_555 1_555
C4B C5B 1_555 1_555
C4B C12B 1_555 1_555
C7B C11B 1_555 1_555
C9B C10B 1_555 1_555
C11B C12B 1_555 1_555
C17B C18B 1_555 1_555
C19B C20B 1_555 1_555
C21B C22B 1_555 1_555
C24B C25B 1_555 1_555
C24B C26B 1_555 1_555

#END
