
#######################################################################
#
#                 Cambridge Crystallographic Data Centre
#                                CCDC 
#
#######################################################################
#
# If this CIF has been generated from an entry in the Cambridge 
# Structural Database, then it will include bibliographic, chemical, 
# crystal, experimental, refinement or atomic coordinate data resulting 
# from the CCDC's data processing and validation procedures.
#
#######################################################################

data_WUXGUS
_symmetry_cell_setting           monoclinic
_symmetry_space_group_name_H-M   'C 2/c'
_symmetry_Int_Tables_number      15
_space_group_name_Hall           '-C 2yn'
loop_
_symmetry_equiv_pos_site_id
_symmetry_equiv_pos_as_xyz
1 x,y,z
2 -x,y,1/2-z
3 1/2+x,1/2+y,z
4 1/2-x,1/2+y,1/2-z
5 -x,-y,-z
6 x,-y,1/2+z
7 1/2-x,1/2-y,-z
8 1/2+x,1/2-y,1/2+z
_cell_length_a                   15.2410(10)
_cell_length_b                   15.0400(10)
_cell_length_c                   19.7935(13)
_cell_angle_alpha                90
_cell_angle_beta                 108.8300(10)
_cell_angle_gamma                90
_cell_volume                     4294.33
loop_
_atom_site_label
_atom_site_type_symbol
_atom_site_fract_x
_atom_site_fract_y
_atom_site_fract_z
Pb1 Pb 0.416531(10) 0.108756(10) 0.303577(8)
O1 O 0.4242(2) 0.0722(2) 0.43215(16)
O2 O 0.29891(19) 0.1366(2) 0.36015(16)
O3 O 0.3996(2) -0.0886(2) 0.64563(17)
N1 N 0.3640(2) 0.2674(2) 0.24184(17)
N2 N 0.4892(2) 0.2580(2) 0.37643(17)
N3 N 0.3923(2) 0.58938(18) 0.26278(16)
N4 N 0.4870(2) 0.5870(2) 0.37553(18)
H1 H 0.5199 0.6050 0.4173
N5 N 0.4147(3) 0.9184(3) 0.3142(2)
C1 C 0.3055(3) 0.2719(3) 0.1757(2)
H2 H 0.2810 0.2190 0.1530
C2 C 0.2787(3) 0.3507(3) 0.1383(2)
H3 H 0.2390 0.3501 0.0914
C3 C 0.3114(3) 0.4292(3) 0.1714(2)
H4 H 0.2938 0.4831 0.1479
C4 C 0.3717(3) 0.4268(3) 0.2413(2)
C5 C 0.4097(3) 0.5037(3) 0.2829(2)
C6 C 0.4689(3) 0.5012(3) 0.3511(2)
C7 C 0.4995(3) 0.4183(3) 0.3867(2)
C8 C 0.5624(3) 0.4094(3) 0.4559(2)
H5 H 0.5872 0.4596 0.4828
C9 C 0.5867(3) 0.3269(3) 0.4835(2)
H6 H 0.6280 0.3199 0.5295
C10 C 0.5492(3) 0.2530(3) 0.4422(2)
H7 H 0.5671 0.1969 0.4616
C11 C 0.4642(3) 0.3398(3) 0.3479(2)
C12 C 0.3987(2) 0.3442(3) 0.2757(2)
C13 C 0.4400(3) 0.6367(3) 0.3218(2)
C14 C 0.4332(3) 0.7336(3) 0.3192(2)
C15 C 0.4773(3) 0.7851(3) 0.3780(2)
H8 H 0.5148 0.7588 0.4199
C16 C 0.4652(3) 0.8762(3) 0.3739(3)
H9 H 0.4933 0.9099 0.4145
C17 C 0.3729(4) 0.8664(3) 0.2581(3)
H10 H 0.3373 0.8942 0.2163
C18 C 0.3785(3) 0.7757(3) 0.2574(2)
H11 H 0.3467 0.7433 0.2170
C19 C 0.3431(3) 0.0999(3) 0.4189(2)
C20 C 0.2959(3) 0.0887(3) 0.4744(2)
C21 C 0.2201(3) 0.1413(3) 0.4727(2)
H12 H 0.1960 0.1815 0.4357
C22 C 0.1810(3) 0.1335(3) 0.5259(2)
H13 H 0.1312 0.1696 0.5254
C23 C 0.2146(3) 0.0728(3) 0.5800(2)
H14 H 0.1876 0.0683 0.6159
C24 C 0.2888(3) 0.0179(3) 0.5816(2)
C25 C 0.3296(2) 0.0265(3) 0.5288(2)
H15 H 0.3796 -0.0093 0.5296
C26 C 0.3264(3) -0.0471(3) 0.6420(2)
O4 O 0.28325(19) -0.05641(19) 0.68628(15)
Pb1D Pb 0.583469(10) -0.108756(10) 0.696423(8)
Pb1_2 Pb 0.416531(10) 1.108756(10) 0.303577(8)
Pb1E Pb 0.416531(10) -0.108756(10) 0.803577(8)
O3D O 0.6004(2) 0.0886(2) 0.35437(17)
N5_2 N 0.4147(3) -0.0816(3) 0.3142(2)
O4E O 0.28325(19) 0.05641(19) 0.18628(15)
loop_
_geom_bond_atom_site_label_1
_geom_bond_atom_site_label_2
_geom_bond_site_symmetry_1
_geom_bond_site_symmetry_2
Pb1 O1 1_555 1_555
O1 C19 1_555 1_555
O2 Pb1 1_555 1_555
O3 C26 1_555 1_555
N1 Pb1 1_555 1_555
N2 Pb1 1_555 1_555
N3 C5 1_555 1_555
N4 H1 1_555 1_555
N5 C16 1_555 1_555
C1 N1 1_555 1_555
H2 C1 1_555 1_555
C2 C1 1_555 1_555
H3 C2 1_555 1_555
C3 C2 1_555 1_555
H4 C3 1_555 1_555
C4 C3 1_555 1_555
C5 C4 1_555 1_555
C6 N4 1_555 1_555
C7 C6 1_555 1_555
C8 C7 1_555 1_555
H5 C8 1_555 1_555
C9 C8 1_555 1_555
H6 C9 1_555 1_555
C10 N2 1_555 1_555
H7 C10 1_555 1_555
C11 N2 1_555 1_555
C12 N1 1_555 1_555
C13 N3 1_555 1_555
C14 C13 1_555 1_555
C15 C14 1_555 1_555
H8 C15 1_555 1_555
C16 C15 1_555 1_555
H9 C16 1_555 1_555
C17 N5 1_555 1_555
H10 C17 1_555 1_555
C18 C14 1_555 1_555
H11 C18 1_555 1_555
C19 O2 1_555 1_555
C20 C19 1_555 1_555
C21 C20 1_555 1_555
H12 C21 1_555 1_555
C22 C21 1_555 1_555
H13 C22 1_555 1_555
C23 C22 1_555 1_555
H14 C23 1_555 1_555
C24 C23 1_555 1_555
C25 C20 1_555 1_555
H15 C25 1_555 1_555
C26 C24 1_555 1_555
O4 C26 1_555 1_555
Pb1D O3 1_555 1_555
Pb1_2 N5 1_555 1_555
Pb1E O4 1_555 1_555
O3D Pb1 1_555 1_555
N5_2 Pb1 1_555 1_555
O4E Pb1 1_555 1_555
N4 C13 1_555 1_555
C4 C12 1_555 1_555
C5 C6 1_555 1_555
C7 C11 1_555 1_555
C9 C10 1_555 1_555
C11 C12 1_555 1_555
C17 C18 1_555 1_555
C24 C25 1_555 1_555

#END
