
#######################################################################
#
#                 Cambridge Crystallographic Data Centre
#                                CCDC 
#
#######################################################################
#
# If this CIF has been generated from an entry in the Cambridge 
# Structural Database, then it will include bibliographic, chemical, 
# crystal, experimental, refinement or atomic coordinate data resulting 
# from the CCDC's data processing and validation procedures.
#
#######################################################################

data_WUXHUT
_symmetry_cell_setting           monoclinic
_symmetry_space_group_name_H-M   'P 21/c'
_symmetry_Int_Tables_number      14
_space_group_name_Hall           '-P 2ybc'
loop_
_symmetry_equiv_pos_site_id
_symmetry_equiv_pos_as_xyz
1 x,y,z
2 -x,1/2+y,1/2-z
3 -x,-y,-z
4 x,1/2-y,1/2+z
_cell_length_a                   9.7746(5)
_cell_length_b                   6.6812(2)
_cell_length_c                   9.8524(4)
_cell_angle_alpha                90
_cell_angle_beta                 92.3110(10)
_cell_angle_gamma                90
_cell_volume                     642.898
loop_
_atom_site_label
_atom_site_type_symbol
_atom_site_fract_x
_atom_site_fract_y
_atom_site_fract_z
Cu1 Cu 0.5000 0.5000 -0.5000
N1 N 0.41610(13) 0.69197(19) -0.37567(13)
N2 N 0.45662(14) 0.85303(19) -0.30384(13)
N3 N 0.27345(14) 0.7329(2) -0.20972(14)
C1 C 0.30480(15) 0.6228(2) -0.31567(15)
N4 N 0.37114(14) 0.8768(2) -0.20502(14)
N5 N 0.33000(13) 0.33897(19) -0.45181(13)
C2 C 0.29102(16) 0.1594(2) -0.49814(16)
H1 H 0.3467 0.0896 -0.5592
C3 C 0.24824(15) 0.4323(2) -0.36465(15)
N6 N 0.08674(14) 0.1650(2) -0.37271(15)
C4 C 0.16981(17) 0.0737(3) -0.45793(17)
H2 H 0.1449 -0.0547 -0.4922
C5 C 0.12627(16) 0.3463(3) -0.32683(17)
H3 H 0.0695 0.4171 -0.2672
Cu1A Cu 0.5000 1.0000 0.0000
Cu1A_2 Cu 0.5000 0.0000 -1.0000
N1B N 0.58390(13) 0.30803(19) -0.62433(13)
N2B N 0.54338(14) 0.14697(19) -0.69616(13)
N3B N 0.72655(14) 0.2671(2) -0.79028(14)
C1B C 0.69520(15) 0.3772(2) -0.68433(15)
N4A N 0.62886(14) 0.3768(2) -0.29498(14)
N4C N 0.37114(14) 0.6232(2) -0.70502(14)
N4B N 0.62886(14) 0.1232(2) -0.79498(14)
N5B N 0.67000(13) 0.66103(19) -0.54819(13)
C2B C 0.70898(16) 0.8406(2) -0.50186(16)
H1B H 0.6533 0.9104 -0.4408
C3B C 0.75176(15) 0.5677(2) -0.63535(15)
N6B N 0.91326(14) 0.8350(2) -0.62729(15)
C4B C 0.83019(17) 0.9263(3) -0.54207(17)
H2B H 0.8551 1.0547 -0.5078
C5B C 0.87373(16) 0.6537(3) -0.67317(17)
H3B H 0.9305 0.5829 -0.7328
loop_
_geom_bond_atom_site_label_1
_geom_bond_atom_site_label_2
_geom_bond_site_symmetry_1
_geom_bond_site_symmetry_2
Cu1 N1 1_555 1_555
N1 N2 1_555 1_555
N2 N4 1_555 1_555
N3 C1 1_555 1_555
C1 N1 1_555 1_555
N4 N3 1_555 1_555
N5 Cu1 1_555 1_555
C2 N5 1_555 1_555
H1 C2 1_555 1_555
C3 C1 1_555 1_555
N6 C4 1_555 1_555
C4 C2 1_555 1_555
H2 C4 1_555 1_555
C5 C3 1_555 1_555
H3 C5 1_555 1_555
Cu1A N4 1_555 1_555
Cu1A_2 N4B 1_555 1_555
N1B Cu1 1_555 1_555
N2B N1B 1_555 1_555
N3B C1B 1_555 1_555
C1B N1B 1_555 1_555
N4A Cu1 1_555 1_555
N4C Cu1 1_555 1_555
N4B N2B 1_555 1_555
N5B Cu1 1_555 1_555
C2B N5B 1_555 1_555
H1B C2B 1_555 1_555
C3B C1B 1_555 1_555
N6B C4B 1_555 1_555
C4B C2B 1_555 1_555
H2B C4B 1_555 1_555
C5B C3B 1_555 1_555
H3B C5B 1_555 1_555
N5 C3 1_555 1_555
N6 C5 1_555 1_555
N3B N4B 1_555 1_555
N5B C3B 1_555 1_555
N6B C5B 1_555 1_555

#END
