
#######################################################################
#
#                 Cambridge Crystallographic Data Centre
#                                CCDC 
#
#######################################################################
#
# If this CIF has been generated from an entry in the Cambridge 
# Structural Database, then it will include bibliographic, chemical, 
# crystal, experimental, refinement or atomic coordinate data resulting 
# from the CCDC's data processing and validation procedures.
#
#######################################################################

data_WUXJEF
_symmetry_cell_setting           triclinic
_symmetry_space_group_name_H-M   'P -1'
_symmetry_Int_Tables_number      2
_space_group_name_Hall           '-P 1'
loop_
_symmetry_equiv_pos_site_id
_symmetry_equiv_pos_as_xyz
1 x,y,z
2 -x,-y,-z
_cell_length_a                   6.959(4)
_cell_length_b                   8.524(5)
_cell_length_c                   11.012(7)
_cell_angle_alpha                68.269(10)
_cell_angle_beta                 76.299(10)
_cell_angle_gamma                69.283(10)
_cell_volume                     563.328
loop_
_atom_site_label
_atom_site_type_symbol
_atom_site_fract_x
_atom_site_fract_y
_atom_site_fract_z
Ag1 Ag 1.49383(5) -0.06302(5) 0.39975(4)
C1 C 1.6045(8) -0.2274(6) 0.1539(5)
C2 C 1.2664(8) -0.0786(6) 0.1933(5)
H1 H 1.1590 -0.0083 0.2393
C3 C 1.2177(8) -0.1249(7) 0.1010(5)
H2 H 1.0779 -0.0934 0.0863
C4 C 1.3747(9) -0.2178(7) 0.0301(5)
C5 C 1.3375(10) -0.2609(8) -0.0805(6)
H3 H 1.4365 -0.3742 -0.0854
H4 H 1.3556 -0.1678 -0.1636
H5 H 1.1962 -0.2688 -0.0652
C6 C 1.0879(7) 0.1984(6) 0.4907(5)
C7 C 0.8632(8) 0.3021(6) 0.4814(5)
C8 C 0.7536(8) 0.2762(7) 0.3984(5)
H6 H 0.8235 0.1964 0.3495
C9 C 0.5499(8) 0.3659(7) 0.3899(5)
H7 H 0.4768 0.3466 0.3366
C10 C 0.4476(8) 0.4862(6) 0.4590(5)
C11 C 0.7655(8) 0.4161(7) 0.5496(5)
H8 H 0.8393 0.4320 0.6044
N1 N 1.4593(6) -0.1286(5) 0.2213(4)
N2 N 1.7974(7) -0.2856(6) 0.1846(4)
H9 H 1.8248 -0.2585 0.2471
H10 H 1.8971 -0.3510 0.1424
N3 N 1.5721(7) -0.2714(5) 0.0567(4)
O1 O 1.1859(5) 0.1468(5) 0.3933(3)
O3 O 1.1631(5) 0.1672(5) 0.5930(3)
Ag1A Ag -0.49383(5) 1.06302(5) 0.60025(4)
Ag1A_2 Ag 1.50617(5) 0.06302(5) 0.60025(4)
Ag1_2 Ag -0.50617(5) 0.93698(5) 0.39975(4)
C1A C -0.6045(8) 1.2274(6) 0.8461(5)
C2A C -0.2664(8) 1.0786(6) 0.8067(5)
H1A H -0.1590 1.0083 0.7607
C3A C -0.2177(8) 1.1249(7) 0.8990(5)
H2A H -0.0779 1.0934 0.9137
C4A C -0.3747(9) 1.2178(7) 0.9699(5)
C5A C -0.3375(10) 1.2609(8) 1.0805(6)
H3A H -0.4365 1.3742 1.0854
H4A H -0.3556 1.1678 1.1636
H5A H -0.1962 1.2688 1.0652
C6A C -0.0879(7) 0.8016(6) 0.5093(5)
C7A C 0.1368(8) 0.6979(6) 0.5186(5)
C8A C 0.2464(8) 0.7238(7) 0.6016(5)
H6A H 0.1765 0.8036 0.6505
C9A C 0.4501(8) 0.6341(7) 0.6101(5)
H7A H 0.5232 0.6534 0.6634
C10A C 0.5524(8) 0.5138(6) 0.5410(5)
C11A C 0.2345(8) 0.5839(7) 0.4504(5)
H8A H 0.1607 0.5680 0.3956
N1A N -0.4593(6) 1.1286(5) 0.7787(4)
N2A N -0.7974(7) 1.2856(6) 0.8154(4)
H9A H -0.8248 1.2585 0.7529
H10A H -0.8971 1.3510 0.8576
N3A N -0.5721(7) 1.2714(5) 0.9433(4)
O1A O -0.1859(5) 0.8532(5) 0.6067(3)
O3A O -0.1631(5) 0.8328(5) 0.4070(3)
O3A_2 O 1.8369(5) -0.1672(5) 0.4070(3)
O3_2 O -0.8369(5) 1.1672(5) 0.5930(3)
O2 O 1.8868(7) -0.4066(5) -0.1389(4)
H11 H 1.8540 -0.3204 -0.2082
H12 H 1.8074 -0.3860 -0.0714
loop_
_geom_bond_atom_site_label_1
_geom_bond_atom_site_label_2
_geom_bond_site_symmetry_1
_geom_bond_site_symmetry_2
Ag1 N1 1_555 1_555
C1 N1 1_555 1_555
C2 H1 1_555 1_555
C3 C2 1_555 1_555
H2 C3 1_555 1_555
C4 C3 1_555 1_555
C5 C4 1_555 1_555
H3 C5 1_555 1_555
H4 C5 1_555 1_555
H5 C5 1_555 1_555
C6 C7 1_555 1_555
C7 C8 1_555 1_555
C8 H6 1_555 1_555
C9 C8 1_555 1_555
H7 C9 1_555 1_555
C10 C9 1_555 1_555
C11 C7 1_555 1_555
H8 C11 1_555 1_555
N1 C2 1_555 1_555
N2 C1 1_555 1_555
H9 N2 1_555 1_555
H10 N2 1_555 1_555
N3 C1 1_555 1_555
O1 Ag1 1_555 1_555
O2 H11 1_555 1_555
H12 O2 1_555 1_555
O3 C6 1_555 1_555
Ag1A N1A 1_555 1_555
Ag1A_2 O3 1_555 1_555
Ag1_2 O3A 1_555 1_555
C1A N1A 1_555 1_555
C2A H1A 1_555 1_555
C3A C2A 1_555 1_555
H2A C3A 1_555 1_555
C4A C3A 1_555 1_555
C5A C4A 1_555 1_555
H3A C5A 1_555 1_555
H4A C5A 1_555 1_555
H5A C5A 1_555 1_555
C6A C7A 1_555 1_555
C7A C8A 1_555 1_555
C8A H6A 1_555 1_555
C9A C8A 1_555 1_555
H7A C9A 1_555 1_555
C10A C10 1_555 1_555
C11A C10 1_555 1_555
H8A C11A 1_555 1_555
N1A C2A 1_555 1_555
N2A C1A 1_555 1_555
H9A N2A 1_555 1_555
H10A N2A 1_555 1_555
N3A C1A 1_555 1_555
O1A Ag1A 1_555 1_555
O3A C6A 1_555 1_555
O3A_2 Ag1 1_555 1_555
O3_2 Ag1A 1_555 1_555
C4 N3 1_555 1_555
C6 O1 1_555 1_555
C11 C10A 1_555 1_555
C4A N3A 1_555 1_555
C6A O1A 1_555 1_555
C7A C11A 1_555 1_555
C9A C10A 1_555 1_555

#END
