
#######################################################################
#
#                 Cambridge Crystallographic Data Centre
#                                CCDC 
#
#######################################################################
#
# If this CIF has been generated from an entry in the Cambridge 
# Structural Database, then it will include bibliographic, chemical, 
# crystal, experimental, refinement or atomic coordinate data resulting 
# from the CCDC's data processing and validation procedures.
#
#######################################################################

data_WUXMOR03
_symmetry_cell_setting           orthorhombic
_symmetry_space_group_name_H-M   'P 21 21 21'
_symmetry_Int_Tables_number      19
_space_group_name_Hall           'P 2ac 2ab'
loop_
_symmetry_equiv_pos_site_id
_symmetry_equiv_pos_as_xyz
1 x,y,z
2 1/2-x,-y,1/2+z
3 1/2+x,1/2-y,-z
4 -x,1/2+y,1/2-z
_cell_length_a                   10.6234(15)
_cell_length_b                   11.3703(19)
_cell_length_c                   7.8181(10)
_cell_angle_alpha                90
_cell_angle_beta                 90
_cell_angle_gamma                90
_cell_volume                     944.358
loop_
_atom_site_label
_atom_site_type_symbol
_atom_site_fract_x
_atom_site_fract_y
_atom_site_fract_z
Mn1 Mn 0.24710(3) -0.00291(3) 0.37515(12)
F1 F 0.41432(13) -0.00401(18) 0.3353(2)
F2 F 0.07976(13) -0.00350(18) 0.4133(2)
F3 F 0.28837(17) 0.00240(16) 0.6239(2)
N1 N 0.2454(4) 0.18537(19) 0.3760(5)
N2 N 0.2457(4) 0.8084(2) 0.3800(5)
C1 C 0.3481(3) 0.2464(3) 0.4212(6)
H1 H 0.4215 0.2042 0.4540
C2 C 0.1425(3) 0.2471(3) 0.3214(6)
H2 H 0.0713 0.2046 0.2815
C3 C 0.3521(4) 0.3689(3) 0.4222(6)
H3 H 0.4266 0.4092 0.4551
C4 C 0.1375(4) 0.3680(3) 0.3215(6)
H4 H 0.0633 0.4080 0.2869
C5 C 0.2447(5) 0.4312(2) 0.3741(7)
C6 C 0.2433(4) 0.5621(2) 0.3757(6)
C7 C 0.1388(4) 0.6258(3) 0.4325(6)
H5 H 0.0650 0.5861 0.4699
C8 C 0.3490(4) 0.6250(3) 0.3176(6)
H6 H 0.4218 0.5846 0.2786
C9 C 0.1443(3) 0.7487(3) 0.4335(6)
H7 H 0.0734 0.7915 0.4735
C10 C 0.3454(3) 0.7459(3) 0.3181(5)
H8 H 0.4154 0.7877 0.2734
F3A F 0.21163(17) -0.00240(16) 0.1239(2)
N2_2 N 0.2457(4) -0.1916(2) 0.3800(5)
Mn1A Mn 0.25290(3) 0.00291(3) 0.87515(12)
Mn1_2 Mn 0.24710(3) 0.99709(3) 0.37515(12)
loop_
_geom_bond_atom_site_label_1
_geom_bond_atom_site_label_2
_geom_bond_site_symmetry_1
_geom_bond_site_symmetry_2
Mn1 F1 1_555 1_555
F2 Mn1 1_555 1_555
F3 Mn1 1_555 1_555
N1 Mn1 1_555 1_555
N2 C9 1_555 1_555
C1 N1 1_555 1_555
H1 C1 1_555 1_555
C2 N1 1_555 1_555
H2 C2 1_555 1_555
C3 C1 1_555 1_555
H3 C3 1_555 1_555
C4 C2 1_555 1_555
H4 C4 1_555 1_555
C5 C3 1_555 1_555
C6 C5 1_555 1_555
C7 C6 1_555 1_555
H5 C7 1_555 1_555
C8 C6 1_555 1_555
H6 C8 1_555 1_555
C9 C7 1_555 1_555
H7 C9 1_555 1_555
C10 N2 1_555 1_555
H8 C10 1_555 1_555
F3A Mn1 1_555 1_555
N2_2 Mn1 1_555 1_555
Mn1A F3 1_555 1_555
Mn1_2 N2 1_555 1_555
C4 C5 1_555 1_555
C8 C10 1_555 1_555

#END
