
#######################################################################
#
#                 Cambridge Crystallographic Data Centre
#                                CCDC 
#
#######################################################################
#
# If this CIF has been generated from an entry in the Cambridge 
# Structural Database, then it will include bibliographic, chemical, 
# crystal, experimental, refinement or atomic coordinate data resulting 
# from the CCDC's data processing and validation procedures.
#
#######################################################################

data_WUXMOR02
_symmetry_cell_setting           orthorhombic
_symmetry_space_group_name_H-M   'I 2 2 2'
_symmetry_Int_Tables_number      23
_space_group_name_Hall           'I 2 2'
loop_
_symmetry_equiv_pos_site_id
_symmetry_equiv_pos_as_xyz
1 x,y,z
2 -x,-y,z
3 x,-y,-z
4 -x,y,-z
5 1/2+x,1/2+y,1/2+z
6 1/2-x,1/2-y,1/2+z
7 1/2+x,1/2-y,1/2-z
8 1/2-x,1/2+y,1/2-z
_cell_length_a                   10.6463(12)
_cell_length_b                   11.3735(16)
_cell_length_c                   3.9228(4)
_cell_angle_alpha                90
_cell_angle_beta                 90
_cell_angle_gamma                90
_cell_volume                     474.995
loop_
_atom_site_label
_atom_site_type_symbol
_atom_site_fract_x
_atom_site_fract_y
_atom_site_fract_z
Mn1 Mn 0.00000 0.00000 0.0000
F1 F 0.16737(12) 0.00000 0.0000
F2 F 0.00000 0.00000 -0.5000
N1 N 0.00000 0.18924(13) 0.0000
C1 C 0.10123(16) 0.25019(17) -0.1064(5)
C2 C 0.10562(16) 0.37207(16) -0.1064(5)
C3 C 0.00000 0.43495(15) 0.0000
H1 H 0.180(2) 0.203(2) -0.178(6)
H2 H 0.187(3) 0.415(2) -0.185(8)
C2C C -0.10562(16) 0.37207(16) 0.1064(5)
C1C C -0.10123(16) 0.25019(17) 0.1064(5)
H1C H -0.180(2) 0.203(2) 0.178(6)
H2C H -0.187(3) 0.415(2) 0.185(8)
C3A C 0.00000 0.56505(15) 0.0000
C2A C -0.10562(16) 0.62793(16) -0.1064(5)
C1A C -0.10123(16) 0.74981(17) -0.1064(5)
N1A N 0.00000 0.81076(13) 0.0000
C1B C 0.10123(16) 0.74981(17) 0.1064(5)
C2B C 0.10562(16) 0.62793(16) 0.1064(5)
H2B H 0.187(3) 0.585(2) 0.185(8)
H1B H 0.180(2) 0.797(2) 0.178(6)
H1A H -0.180(2) 0.797(2) -0.178(6)
H2A H -0.187(3) 0.585(2) -0.185(8)
F1A F -0.16737(12) 0.00000 0.0000
F2_2 F 0.00000 0.00000 0.5000
N1A_2 N 0.00000 -0.18924(13) 0.0000
Mn1_2 Mn 0.00000 0.00000 -1.0000
Mn1_3 Mn 0.00000 1.00000 0.0000
loop_
_geom_bond_atom_site_label_1
_geom_bond_atom_site_label_2
_geom_bond_site_symmetry_1
_geom_bond_site_symmetry_2
Mn1 F1 1_555 1_555
F2 Mn1 1_555 1_555
N1 Mn1 1_555 1_555
C1 N1 1_555 1_555
C2 C1 1_555 1_555
C3 C2 1_555 1_555
H1 C1 1_555 1_555
H2 C2 1_555 1_555
C2C C3 1_555 1_555
C1C N1 1_555 1_555
H1C C1C 1_555 1_555
H2C C2C 1_555 1_555
C3A C3 1_555 1_555
C2A C3A 1_555 1_555
C1A C2A 1_555 1_555
N1A C1A 1_555 1_555
C1B N1A 1_555 1_555
C2B C3A 1_555 1_555
H2B C2B 1_555 1_555
H1B C1B 1_555 1_555
H1A C1A 1_555 1_555
H2A C2A 1_555 1_555
F1A Mn1 1_555 1_555
F2_2 Mn1 1_555 1_555
N1A_2 Mn1 1_555 1_555
Mn1_2 F2 1_555 1_555
Mn1_3 N1A 1_555 1_555
C2C C1C 1_555 1_555
C1B C2B 1_555 1_555

#END
