
#######################################################################
#
#                 Cambridge Crystallographic Data Centre
#                                CCDC 
#
#######################################################################
#
# If this CIF has been generated from an entry in the Cambridge 
# Structural Database, then it will include bibliographic, chemical, 
# crystal, experimental, refinement or atomic coordinate data resulting 
# from the CCDC's data processing and validation procedures.
#
#######################################################################

data_WUXPIO
_symmetry_cell_setting           monoclinic
_symmetry_space_group_name_H-M   'P 21'
_symmetry_Int_Tables_number      4
_space_group_name_Hall           'P 2yb'
loop_
_symmetry_equiv_pos_site_id
_symmetry_equiv_pos_as_xyz
1 x,y,z
2 -x,1/2+y,-z
_cell_length_a                   5.5066(3)
_cell_length_b                   7.5761(4)
_cell_length_c                   16.6443(10)
_cell_angle_alpha                90.00
_cell_angle_beta                 94.3350(10)
_cell_angle_gamma                90.00
_cell_volume                     692.39
loop_
_atom_site_label
_atom_site_type_symbol
_atom_site_fract_x
_atom_site_fract_y
_atom_site_fract_z
Ag1 Ag 0.29527(6) 0.38559(3) 0.796352(16)
Ag2 Ag -0.29149(6) -0.58024(3) 0.709240(16)
S1 S 0.94907(15) 1.17607(12) 0.91270(5)
S2 S 0.06031(16) -0.36463(12) 0.59480(5)
O1 O 0.1825(5) -0.3840(4) 0.52046(15)
O2 O -0.1898(4) -0.2992(3) 0.58015(14)
O3 O 0.4273(5) 0.6309(4) 0.85316(18)
O4 O 0.8508(6) 1.2959(4) 0.85108(18)
O5 O 0.8291(5) 1.1858(5) 0.98747(17)
O6 O 0.0758(5) -0.5230(4) 0.64446(17)
O7 O 0.2742(5) 0.1331(4) 0.72745(15)
O8 O 0.7267(5) 0.6860(4) 0.77165(15)
O9 O 1.2153(4) 1.1954(3) 0.92693(14)
O10 O 0.5334(5) 0.2059(4) 0.63371(17)
N1 N 0.4005(5) -0.0555(4) 0.53525(17)
H1 H 0.4137 0.0485 0.5086
H2 H 0.3258 -0.1367 0.5015
H3 H 0.5515 -0.0949 0.5526
N2 N 0.5332(5) 0.8959(4) 0.94857(15)
H4 H 0.3739 0.8631 0.9422
H5 H 0.5450 1.0041 0.9723
H6 H 0.6179 0.8157 0.9803
C1 C 0.3647(7) 0.1174(5) 0.6612(2)
C2 C 0.5970(6) 0.7210(5) 0.8277(2)
C3 C 0.9029(5) 0.9577(4) 0.87550(18)
H7 H 0.9677 0.9488 0.8218
H8 H 0.9956 0.8744 0.9120
C4 C 0.6355(5) 0.9036(4) 0.86857(16)
H9 H 0.5418 0.9934 0.8349
C5 C 0.2274(6) -0.2004(4) 0.65186(17)
H10 H 0.1452 -0.1764 0.7016
H11 H 0.3920 -0.2466 0.6681
C6 C 0.2526(6) -0.0281(4) 0.60630(18)
H12 H 0.0859 0.0110 0.5857
Ag2_2 Ag 0.70851(6) 0.41976(3) 0.709240(16)
Ag1_2 Ag -0.70473(6) -0.61441(3) 0.796352(16)
O8_2 O -0.2733(5) -0.3140(4) 0.77165(15)
O10_2 O -0.4666(5) -0.7941(4) 0.63371(17)
loop_
_geom_bond_atom_site_label_1
_geom_bond_atom_site_label_2
_geom_bond_site_symmetry_1
_geom_bond_site_symmetry_2
Ag1 O3 1_555 1_555
Ag2 O6 1_555 1_555
S1 O4 1_555 1_555
S2 O1 1_555 1_555
O2 S2 1_555 1_555
O3 C2 1_555 1_555
O5 S1 1_555 1_555
O6 S2 1_555 1_555
O7 Ag1 1_555 1_555
O8 C2 1_555 1_555
O9 S1 1_555 1_555
O10 C1 1_555 1_555
N1 H1 1_555 1_555
H2 N1 1_555 1_555
H3 N1 1_555 1_555
N2 H4 1_555 1_555
H5 N2 1_555 1_555
H6 N2 1_555 1_555
C1 O7 1_555 1_555
C2 C4 1_555 1_555
C3 S1 1_555 1_555
H7 C3 1_555 1_555
H8 C3 1_555 1_555
C4 N2 1_555 1_555
H9 C4 1_555 1_555
C5 S2 1_555 1_555
H10 C5 1_555 1_555
H11 C5 1_555 1_555
C6 N1 1_555 1_555
H12 C6 1_555 1_555
Ag2_2 Ag1 1_555 1_555
Ag1_2 Ag2 1_555 1_555
O8_2 Ag2 1_555 1_555
O10_2 Ag2 1_555 1_555
O8 Ag2_2 1_555 1_555
O10 Ag2_2 1_555 1_555
C1 C6 1_555 1_555
C3 C4 1_555 1_555
C5 C6 1_555 1_555

#END
