
#######################################################################
#
#                 Cambridge Crystallographic Data Centre
#                                CCDC 
#
#######################################################################
#
# If this CIF has been generated from an entry in the Cambridge 
# Structural Database, then it will include bibliographic, chemical, 
# crystal, experimental, refinement or atomic coordinate data resulting 
# from the CCDC's data processing and validation procedures.
#
#######################################################################

data_WUXPEK
_symmetry_cell_setting           monoclinic
_symmetry_space_group_name_H-M   'P 21'
_symmetry_Int_Tables_number      4
_space_group_name_Hall           'P 2yb'
loop_
_symmetry_equiv_pos_site_id
_symmetry_equiv_pos_as_xyz
1 x,y,z
2 -x,1/2+y,-z
_cell_length_a                   8.1198(16)
_cell_length_b                   9.805(2)
_cell_length_c                   9.2036(18)
_cell_angle_alpha                90.00
_cell_angle_beta                 98.45(3)
_cell_angle_gamma                90.00
_cell_volume                     724.787
loop_
_atom_site_label
_atom_site_type_symbol
_atom_site_fract_x
_atom_site_fract_y
_atom_site_fract_z
Ag1 Ag 0.21822(4) 0.91864(3) 0.17266(3)
Ag2 Ag 0.61661(4) 0.23574(3) -0.38790(3)
S1 S 0.34998(12) 0.50797(10) -0.35155(10)
S2 S -0.09654(12) 0.61548(10) 0.09560(10)
N1 N 0.3217(4) 0.4114(4) -0.0085(3)
H1 H 0.3835 0.3488 -0.0452
H2 H 0.2145 0.3957 -0.0404
H3 H 0.3398 0.4072 0.0892
N2 N -0.0747(5) 0.6867(3) 0.4474(4)
H4 H -0.0571 0.7489 0.3810
H5 H 0.0225 0.6549 0.4917
H6 H -0.1299 0.7245 0.5138
O1 O 0.5150(4) 0.5662(3) -0.3531(4)
O2 O 0.3560(4) 0.3619(3) -0.3202(3)
O3 O 0.2346(4) 0.5408(3) -0.4856(3)
O4 O 0.3522(4) 0.7761(3) 0.0308(3)
O5 O 0.3621(4) 0.6022(3) 0.1925(3)
O6 O -0.0322(3) 0.7485(3) 0.1501(3)
O7 O 0.0055(4) 0.5472(3) 0.0001(3)
O8 O -0.2707(3) 0.6234(3) 0.0291(3)
O9 O -0.3023(5) 0.3703(3) 0.4411(4)
O10 O -0.1273(4) 0.4809(4) 0.6158(3)
C1 C 0.2687(5) 0.5874(4) -0.2050(4)
H9 H 0.2711 0.6855 -0.2176
H10 H 0.1536 0.5600 -0.2071
C2 C 0.3676(5) 0.5498(4) -0.0570(4)
H11 H 0.4849 0.5455 -0.0707
C3 C 0.3559(5) 0.6527(4) 0.0652(5)
C4 C -0.0888(6) 0.5098(4) 0.2537(4)
H12 H -0.1414 0.4232 0.2248
H13 H 0.0267 0.4918 0.2927
C5 C -0.1742(5) 0.5727(4) 0.3735(4)
H14 H -0.2825 0.6086 0.3286
C6 C -0.2037(6) 0.4645(4) 0.4876(5)
Ag2A Ag 0.38339(4) 0.73574(3) 0.38790(3)
O7A O -0.0055(4) 1.0472(3) -0.0001(3)
O10A O 0.1273(4) 0.9809(4) 0.3842(3)
Ag1A Ag 0.78178(4) 0.41864(3) -0.17266(3)
O3A O 0.7654(4) 0.0408(3) -0.5144(3)
O5A O 0.6379(4) 0.1022(3) -0.1925(3)
O9_2 O 0.6977(5) 0.3703(3) -0.5589(4)
Ag2A_2 Ag 0.38339(4) 0.73574(3) -0.61210(3)
Ag1A_2 Ag -0.21822(4) 0.41864(3) -0.17266(3)
Ag2_2 Ag -0.38339(4) 0.23574(3) 0.61210(3)
Ag1A_3 Ag -0.21822(4) 0.41864(3) 0.82734(3)
O11 O 0.7336(5) 0.7951(4) 0.6798(4)
H7 H 0.858(5) 0.763(4) 0.707(3)
H8? H 0.599(12) 0.637(9) 0.741(9)
loop_
_geom_bond_atom_site_label_1
_geom_bond_atom_site_label_2
_geom_bond_site_symmetry_1
_geom_bond_site_symmetry_2
Ag1 O4 1_555 1_555
Ag2 O2 1_555 1_555
S1 O1 1_555 1_555
S2 O6 1_555 1_555
N1 H1 1_555 1_555
H2 N1 1_555 1_555
H3 N1 1_555 1_555
N2 H4 1_555 1_555
H5 N2 1_555 1_555
H6 N2 1_555 1_555
O2 S1 1_555 1_555
O3 S1 1_555 1_555
O4 C3 1_555 1_555
O5 C3 1_555 1_555
O6 Ag1 1_555 1_555
O7 S2 1_555 1_555
O8 S2 1_555 1_555
O9 C6 1_555 1_555
O10 C6 1_555 1_555
O11 H7 1_555 1_555
C1 S1 1_555 1_555
H9 C1 1_555 1_555
H10 C1 1_555 1_555
C2 N1 1_555 1_555
H11 C2 1_555 1_555
C3 C2 1_555 1_555
C4 S2 1_555 1_555
H12 C4 1_555 1_555
H13 C4 1_555 1_555
C5 N2 1_555 1_555
H14 C5 1_555 1_555
C6 C5 1_555 1_555
Ag2A Ag1 1_555 1_555
O7A Ag1 1_555 1_555
O10A Ag1 1_555 1_555
Ag1A Ag2 1_555 1_555
O3A Ag2 1_555 1_555
O5A Ag2 1_555 1_555
O9_2 Ag2 1_555 1_555
Ag2A_2 O3 1_555 1_555
Ag1A_2 O7 1_555 1_555
Ag2_2 O9 1_555 1_555
Ag1A_3 O10 1_555 1_555
O5 Ag2A 1_555 1_555
C1 C2 1_555 1_555
C4 C5 1_555 1_555
Ag2_2 Ag1A_3 1_555 1_555

#END
