
#######################################################################
#
#                 Cambridge Crystallographic Data Centre
#                                CCDC 
#
#######################################################################
#
# If this CIF has been generated from an entry in the Cambridge 
# Structural Database, then it will include bibliographic, chemical, 
# crystal, experimental, refinement or atomic coordinate data resulting 
# from the CCDC's data processing and validation procedures.
#
#######################################################################

data_WUXSEO
_symmetry_cell_setting           monoclinic
_symmetry_space_group_name_H-M   'C 2/c'
_symmetry_Int_Tables_number      15
_space_group_name_Hall           '-C 2yn'
loop_
_symmetry_equiv_pos_site_id
_symmetry_equiv_pos_as_xyz
1 x,y,z
2 -x,y,1/2-z
3 1/2+x,1/2+y,z
4 1/2-x,1/2+y,1/2-z
5 -x,-y,-z
6 x,-y,1/2+z
7 1/2-x,1/2-y,-z
8 1/2+x,1/2-y,1/2+z
_cell_length_a                   9.2313(7)
_cell_length_b                   19.8909(14)
_cell_length_c                   10.1588(7)
_cell_angle_alpha                90
_cell_angle_beta                 108.9650(10)
_cell_angle_gamma                90
_cell_volume                     1764.09
loop_
_atom_site_label
_atom_site_type_symbol
_atom_site_fract_x
_atom_site_fract_y
_atom_site_fract_z
Nd1 Nd 1.0000 1.012992(6) 0.7500
O1 O 0.89773(18) 0.93432(7) 0.87133(15)
O2 O 0.94025(19) 0.89618(7) 1.08548(15)
O5 O 1.2473(2) 1.05850(9) 0.72616(17)
H1 H 1.268(3) 1.0969(17) 0.753(3)
H2 H 1.314(3) 1.0365(16) 0.760(3)
O6 O 0.7815(2) 0.95811(10) 0.56183(18)
H3 H 0.779(3) 0.9551(15) 0.486(3)
H4 H 0.697(4) 0.9551(18) 0.569(3)
N1 N 0.8387(2) 0.68551(9) 0.8042(2)
C1 C 0.9000(3) 0.69818(11) 0.9395(3)
H5 H 0.925(3) 0.6611(13) 0.999(2)
C2 C 0.9240(2) 0.76264(10) 0.9936(2)
H6 H 0.966(3) 0.7702(11) 1.088(2)
C3 C 0.8854(2) 0.81670(9) 0.90341(19)
C4 C 0.8246(2) 0.80397(11) 0.7620(2)
H7 H 0.798(3) 0.8383(13) 0.702(3)
C5 C 0.8028(3) 0.73789(11) 0.7180(2)
H8 H 0.760(3) 0.7253(13) 0.627(3)
C6 C 0.9100(2) 0.88800(9) 0.9578(2)
Nd1D Nd 1.0000 0.987008(6) 0.2500
Nd1D_2 Nd 1.0000 0.987008(6) 1.2500
O1A O 1.10227(18) 0.93432(7) 0.62867(15)
O2A O 1.05975(19) 0.89618(7) 0.41452(15)
O2D O 1.05975(19) 1.10382(7) 0.91452(15)
O2E O 0.94025(19) 1.10382(7) 0.58548(15)
O5A O 0.7527(2) 1.05850(9) 0.77384(17)
H1A H 0.732(3) 1.0969(17) 0.747(3)
H2A H 0.686(3) 1.0365(16) 0.740(3)
O6A O 1.2185(2) 0.95811(10) 0.93817(18)
H3A H 1.221(3) 0.9551(15) 1.014(3)
H4A H 1.303(4) 0.9551(18) 0.931(3)
N1A N 1.1613(2) 0.68551(9) 0.6958(2)
C1A C 1.1000(3) 0.69818(11) 0.5605(3)
H5A H 1.075(3) 0.6611(13) 0.501(2)
C2A C 1.0760(2) 0.76264(10) 0.5064(2)
H6A H 1.034(3) 0.7702(11) 0.412(2)
C3A C 1.1146(2) 0.81670(9) 0.59659(19)
C4A C 1.1754(2) 0.80397(11) 0.7380(2)
H7A H 1.202(3) 0.8383(13) 0.798(3)
C5A C 1.1972(3) 0.73789(11) 0.7820(2)
H8A H 1.240(3) 0.7253(13) 0.873(3)
C6A C 1.0900(2) 0.88800(9) 0.5422(2)
O3 O 1.0000 0.62762(14) 1.2500
O4 O 0.9839(2) 0.53422(11) 1.35088(19)
N2 N 1.0000 0.56639(14) 1.2500
O4A O 1.0161(2) 0.53422(11) 1.14912(19)
loop_
_geom_bond_atom_site_label_1
_geom_bond_atom_site_label_2
_geom_bond_site_symmetry_1
_geom_bond_site_symmetry_2
Nd1 O1 1_555 1_555
O1 C6 1_555 1_555
O2 C6 1_555 1_555
O3 N2 1_555 1_555
O4 N2 1_555 1_555
O5 Nd1 1_555 1_555
H1 O5 1_555 1_555
H2 O5 1_555 1_555
O6 Nd1 1_555 1_555
H3 O6 1_555 1_555
H4 O6 1_555 1_555
N1 C1 1_555 1_555
N2 O4A 1_555 1_555
C1 H5 1_555 1_555
C2 C1 1_555 1_555
H6 C2 1_555 1_555
C3 C2 1_555 1_555
C4 C3 1_555 1_555
H7 C4 1_555 1_555
C5 N1 1_555 1_555
H8 C5 1_555 1_555
C6 C3 1_555 1_555
Nd1D O2A 1_555 1_555
Nd1D_2 O2 1_555 1_555
O1A Nd1 1_555 1_555
O2A C6A 1_555 1_555
O2D Nd1 1_555 1_555
O2E Nd1 1_555 1_555
O5A Nd1 1_555 1_555
H1A O5A 1_555 1_555
H2A O5A 1_555 1_555
O6A Nd1 1_555 1_555
H3A O6A 1_555 1_555
H4A O6A 1_555 1_555
N1A C1A 1_555 1_555
C1A H5A 1_555 1_555
C2A C1A 1_555 1_555
H6A C2A 1_555 1_555
C3A C2A 1_555 1_555
C4A C3A 1_555 1_555
H7A C4A 1_555 1_555
C5A N1A 1_555 1_555
H8A C5A 1_555 1_555
C6A O1A 1_555 1_555
C4 C5 1_555 1_555
C3A C6A 1_555 1_555
C4A C5A 1_555 1_555

#END
