
#######################################################################
#
#                 Cambridge Crystallographic Data Centre
#                                CCDC 
#
#######################################################################
#
# If this CIF has been generated from an entry in the Cambridge 
# Structural Database, then it will include bibliographic, chemical, 
# crystal, experimental, refinement or atomic coordinate data resulting 
# from the CCDC's data processing and validation procedures.
#
#######################################################################

data_WUXSUE
_symmetry_cell_setting           monoclinic
_symmetry_space_group_name_H-M   'C 2/c'
_symmetry_Int_Tables_number      15
_space_group_name_Hall           '-C 2yn'
loop_
_symmetry_equiv_pos_site_id
_symmetry_equiv_pos_as_xyz
1 x,y,z
2 -x,y,1/2-z
3 1/2+x,1/2+y,z
4 1/2-x,1/2+y,1/2-z
5 -x,-y,-z
6 x,-y,1/2+z
7 1/2-x,1/2-y,-z
8 1/2+x,1/2-y,1/2+z
_cell_length_a                   9.0870(6)
_cell_length_b                   19.7511(13)
_cell_length_c                   9.9530(6)
_cell_angle_alpha                90
_cell_angle_beta                 108.6090(10)
_cell_angle_gamma                90
_cell_volume                     1692.95
loop_
_atom_site_label
_atom_site_type_symbol
_atom_site_fract_x
_atom_site_fract_y
_atom_site_fract_z
Er1 Er 0.0000 0.486994(7) 0.7500
O1 O -0.1029(2) 0.56221(10) 0.8673(2)
O2 O -0.0577(2) 0.59977(10) 1.0877(2)
O5 O 0.2402(2) 0.44151(11) 0.7283(2)
H1 H 0.265(5) 0.401(3) 0.754(5)
H2 H 0.310(6) 0.462(3) 0.760(5)
O6 O -0.2098(2) 0.54011(11) 0.5647(2)
H3 H -0.215(5) 0.542(2) 0.485(5)
H4 H -0.303(6) 0.539(3) 0.570(5)
N1 N -0.1629(3) 0.81330(12) 0.8041(3)
C1 C -0.1995(3) 0.76069(15) 0.7151(3)
H5 H -0.244(4) 0.772(2) 0.621(4)
C2 C -0.1765(3) 0.69379(15) 0.7587(3)
H6 H -0.204(4) 0.6606(17) 0.695(3)
C3 C -0.1144(3) 0.68051(13) 0.9032(3)
C4 C -0.0748(3) 0.73480(14) 0.9962(3)
H7 H -0.028(4) 0.7275(19) 1.095(4)
C5 C -0.0992(3) 0.80017(15) 0.9426(3)
H8 H -0.071(4) 0.836(2) 1.003(4)
C6 C -0.0897(3) 0.60842(13) 0.9571(3)
Er1D Er 0.0000 0.513006(7) 0.2500
Er1D_2 Er 0.0000 0.513006(7) 1.2500
O1A O 0.1029(2) 0.56221(10) 0.6327(2)
O2A O 0.0577(2) 0.59977(10) 0.4123(2)
O2D O 0.0577(2) 0.40023(10) 0.9123(2)
O2E O -0.0577(2) 0.40023(10) 0.5877(2)
O5A O -0.2402(2) 0.44151(11) 0.7717(2)
H1A H -0.265(5) 0.401(3) 0.746(5)
H2A H -0.310(6) 0.462(3) 0.740(5)
O6A O 0.2098(2) 0.54011(11) 0.9353(2)
H3A H 0.215(5) 0.542(2) 1.015(5)
H4A H 0.303(6) 0.539(3) 0.930(5)
N1A N 0.1629(3) 0.81330(12) 0.6959(3)
C1A C 0.1995(3) 0.76069(15) 0.7849(3)
H5A H 0.244(4) 0.772(2) 0.879(4)
C2A C 0.1765(3) 0.69379(15) 0.7413(3)
H6A H 0.204(4) 0.6606(17) 0.805(3)
C3A C 0.1144(3) 0.68051(13) 0.5968(3)
C4A C 0.0748(3) 0.73480(14) 0.5038(3)
H7A H 0.028(4) 0.7275(19) 0.405(4)
C5A C 0.0992(3) 0.80017(15) 0.5574(3)
H8A H 0.071(4) 0.836(2) 0.497(4)
C6A C 0.0897(3) 0.60842(13) 0.5429(3)
O3 O -0.5000 0.62616(17) 0.7500
O4 O -0.4835(3) 0.53140(14) 0.6465(3)
N2 N -0.5000 0.56410(18) 0.7500
O4A O -0.5165(3) 0.53140(14) 0.8535(3)
loop_
_geom_bond_atom_site_label_1
_geom_bond_atom_site_label_2
_geom_bond_site_symmetry_1
_geom_bond_site_symmetry_2
Er1 O1 1_555 1_555
O1 C6 1_555 1_555
O2 C6 1_555 1_555
O3 N2 1_555 1_555
O4 N2 1_555 1_555
O5 Er1 1_555 1_555
H1 O5 1_555 1_555
H2 O5 1_555 1_555
O6 Er1 1_555 1_555
H3 O6 1_555 1_555
H4 O6 1_555 1_555
N1 C1 1_555 1_555
N2 O4A 1_555 1_555
C1 H5 1_555 1_555
C2 C1 1_555 1_555
H6 C2 1_555 1_555
C3 C2 1_555 1_555
C4 C3 1_555 1_555
H7 C4 1_555 1_555
C5 N1 1_555 1_555
H8 C5 1_555 1_555
C6 C3 1_555 1_555
Er1D O2A 1_555 1_555
Er1D_2 O2 1_555 1_555
O1A Er1 1_555 1_555
O2A C6A 1_555 1_555
O2D Er1 1_555 1_555
O2E Er1 1_555 1_555
O5A Er1 1_555 1_555
H1A O5A 1_555 1_555
H2A O5A 1_555 1_555
O6A Er1 1_555 1_555
H3A O6A 1_555 1_555
H4A O6A 1_555 1_555
N1A C1A 1_555 1_555
C1A H5A 1_555 1_555
C2A C1A 1_555 1_555
H6A C2A 1_555 1_555
C3A C2A 1_555 1_555
C4A C3A 1_555 1_555
H7A C4A 1_555 1_555
C5A N1A 1_555 1_555
H8A C5A 1_555 1_555
C6A O1A 1_555 1_555
C4 C5 1_555 1_555
C3A C6A 1_555 1_555
C4A C5A 1_555 1_555

#END
