
#######################################################################
#
#                 Cambridge Crystallographic Data Centre
#                                CCDC 
#
#######################################################################
#
# If this CIF has been generated from an entry in the Cambridge 
# Structural Database, then it will include bibliographic, chemical, 
# crystal, experimental, refinement or atomic coordinate data resulting 
# from the CCDC's data processing and validation procedures.
#
#######################################################################

data_WUXVUH
_symmetry_cell_setting           triclinic
_symmetry_space_group_name_H-M   'P -1'
_symmetry_Int_Tables_number      2
_space_group_name_Hall           '-P 1'
loop_
_symmetry_equiv_pos_site_id
_symmetry_equiv_pos_as_xyz
1 x,y,z
2 -x,-y,-z
_cell_length_a                   11.1869(12)
_cell_length_b                   11.3689(11)
_cell_length_c                   18.3793(19)
_cell_angle_alpha                83.302(8)
_cell_angle_beta                 72.225(8)
_cell_angle_gamma                66.953(8)
_cell_volume                     2048.27
loop_
_atom_site_label
_atom_site_type_symbol
_atom_site_fract_x
_atom_site_fract_y
_atom_site_fract_z
C1 C 0.8398(10) 0.7339(10) 0.2124(7)
H1 H 0.9069 0.7521 0.1710
H2 H 0.7542 0.7683 0.2011
H3 H 0.8666 0.6430 0.2189
C2 C 0.6904(7) 0.8911(8) 0.3078(4)
H4 H 0.6256 0.8508 0.3226
H5 H 0.6746 0.9474 0.2656
H6 H 0.6813 0.9393 0.3501
C3 C 0.8551(12) 0.6985(11) 0.3402(8)
H7 H 0.9245 0.6219 0.3134
H8 H 0.7741 0.6797 0.3630
C4 C 0.8982(8) 0.7197(8) 0.4006(4)
H9 H 0.9509 0.6382 0.4190
H10 H 0.8195 0.7620 0.4426
C5 C 1.0434(6) 0.8084(5) 0.4208(3)
H11 H 1.0340 0.7638 0.4666
C6 C 1.1278(5) 0.8820(4) 0.4076(2)
C7 C 1.1995(6) 0.8681(5) 0.4615(3)
H12 H 1.1885 0.8142 0.5029
C8 C 1.2849(7) 0.9314(5) 0.4550(3)
C9 C 1.3618(10) 0.9116(7) 0.5138(5)
H13 H 1.4382 0.8319 0.5039
H14 H 1.3029 0.9102 0.5641
H15 H 1.3927 0.9803 0.5105
C10 C 1.2937(6) 1.0156(5) 0.3959(3)
H16 H 1.3487 1.0612 0.3918
C11 C 1.2232(5) 1.0361(4) 0.3412(3)
C12 C 1.1395(5) 0.9675(4) 0.3467(2)
C13 C 1.2454(5) 1.1242(4) 0.2807(3)
H17 H 1.3139 1.1534 0.2772
C14 C 1.2169(7) 1.2527(7) 0.1724(4)
H18 H 1.1869 1.3360 0.1952
H19 H 1.3148 1.2210 0.1526
C15 C 1.1639(14) 1.2653(14) 0.1152(5)
H20 H 1.2385 1.2183 0.0727
H21 H 1.1384 1.3548 0.1010
C16 C 0.9369(9) 1.3469(8) 0.1106(5)
H22 H 0.9142 1.4050 0.1510
H23 H 0.8612 1.3236 0.1150
H24 H 0.9582 1.3876 0.0622
C17 C 1.0859(11) 1.1523(9) 0.0524(3)
H25 H 1.1085 1.1962 0.0055
H26 H 1.0091 1.1320 0.0550
H27 H 1.1617 1.0749 0.0544
C18 C 1.1464(6) 0.7687(5) 0.1145(3)
H28 H 1.0886 0.8467 0.1008
C19 C 1.2396(6) 0.6865(5) 0.0582(3)
H29 H 1.2439 0.7090 0.0075
C20 C 1.3287(5) 0.5696(5) 0.0752(3)
C21 C 1.4379(6) 0.4825(5) 0.0135(3)
H30 H 1.4032 0.4861 -0.0294
H31 H 1.4636 0.3954 0.0323
C22 C 1.3153(5) 0.5422(4) 0.1522(3)
H32 H 1.3722 0.4648 0.1669
C23 C 1.2190(5) 0.6286(4) 0.2063(2)
H33 H 1.2120 0.6076 0.2575
C24 C 0.7266(5) 1.3029(5) 0.3015(3)
H34 H 0.7096 1.2625 0.2668
C25 C 0.6181(5) 1.3881(5) 0.3529(3)
H35 H 0.5301 1.4065 0.3517
C26 C 0.6413(6) 1.4455(4) 0.4059(3)
C27 C 0.7733(6) 1.4177(4) 0.4037(2)
H36 H 0.7923 1.4557 0.4387
C28 C 0.8770(5) 1.3342(4) 0.3503(2)
H37 H 0.9658 1.3175 0.3493
C29 C 0.5241(6) 1.5365(5) 0.4652(3)
H38 H 0.5527 1.5979 0.4803
H39 H 0.4500 1.5832 0.4433
N1 N 0.8266(6) 0.7939(5) 0.2852(3)
N2 N 0.9803(4) 0.7985(4) 0.3761(2)
N3 N 1.1790(4) 1.1661(4) 0.2310(2)
N4 N 1.0538(5) 1.2325(5) 0.1158(2)
N5 N 1.1334(4) 0.7427(3) 0.18929(19)
N6 N 0.8550(4) 1.2756(3) 0.29932(19)
O1 O 1.0741(3) 0.9828(3) 0.29618(16)
O2 O 0.9277(3) 1.0262(3) 0.20794(18)
H48 H 0.8718 1.0432 0.1764
Zn1 Zn 0.98203(6) 0.87320(5) 0.26880(3)
Zn2 Zn 1.01158(5) 1.13706(4) 0.22515(3)
C1A C 2.1602(10) 0.2661(10) -0.2124(7)
H1A H 2.0931 0.2479 -0.1710
H2A H 2.2458 0.2317 -0.2011
H3A H 2.1334 0.3570 -0.2189
C2A C 2.3096(7) 0.1089(8) -0.3078(4)
H4A H 2.3744 0.1492 -0.3226
H5A H 2.3254 0.0526 -0.2656
H6A H 2.3187 0.0607 -0.3501
C3A C 2.1449(12) 0.3015(11) -0.3402(8)
H7A H 2.0755 0.3781 -0.3134
H8A H 2.2259 0.3203 -0.3630
C4A C 2.1018(8) 0.2803(8) -0.4006(4)
H9A H 2.0491 0.3618 -0.4190
H10A H 2.1805 0.2380 -0.4426
C5A C 1.9566(6) 0.1916(5) -0.4208(3)
H11A H 1.9660 0.2362 -0.4666
C6A C 1.8722(5) 0.1180(4) -0.4076(2)
C7A C 1.8005(6) 0.1319(5) -0.4615(3)
H12A H 1.8115 0.1858 -0.5029
C8A C 1.7151(7) 0.0686(5) -0.4550(3)
C9A C 1.6382(10) 0.0884(7) -0.5138(5)
H13A H 1.5618 0.1681 -0.5039
H14A H 1.6971 0.0898 -0.5641
H15A H 1.6073 0.0197 -0.5105
C10A C 1.7063(6) -0.0156(5) -0.3959(3)
H16A H 1.6513 -0.0612 -0.3918
C11A C 1.7768(5) -0.0361(4) -0.3412(3)
C12A C 1.8605(5) 0.0325(4) -0.3467(2)
C13A C 1.7546(5) -0.1242(4) -0.2807(3)
H17A H 1.6861 -0.1534 -0.2772
C14A C 1.7831(7) -0.2527(7) -0.1724(4)
H18A H 1.8131 -0.3360 -0.1952
H19A H 1.6852 -0.2210 -0.1526
C15A C 1.8361(14) -0.2653(14) -0.1152(5)
H20A H 1.7615 -0.2183 -0.0727
H21A H 1.8616 -0.3548 -0.1010
C16A C 2.0631(9) -0.3469(8) -0.1106(5)
H22A H 2.0858 -0.4050 -0.1510
H23A H 2.1388 -0.3236 -0.1150
H24A H 2.0418 -0.3876 -0.0622
C17A C 1.9141(11) -0.1523(9) -0.0524(3)
H25A H 1.8915 -0.1962 -0.0055
H26A H 1.9909 -0.1320 -0.0550
H27A H 1.8383 -0.0749 -0.0544
C18A C 1.8536(6) 0.2313(5) -0.1145(3)
H28A H 1.9114 0.1533 -0.1008
C19A C 1.7604(6) 0.3135(5) -0.0582(3)
H29A H 1.7561 0.2910 -0.0075
C20A C 1.6713(5) 0.4304(5) -0.0752(3)
C21A C 1.5621(6) 0.5175(5) -0.0135(3)
H30A H 1.5968 0.5139 0.0294
H31A H 1.5364 0.6046 -0.0323
C22A C 1.6847(5) 0.4578(4) -0.1522(3)
H32A H 1.6278 0.5352 -0.1669
C23A C 1.7810(5) 0.3714(4) -0.2063(2)
H33A H 1.7880 0.3924 -0.2575
C24A C 0.2734(5) 1.6971(5) 0.6985(3)
H34A H 0.2904 1.7375 0.7332
C25A C 0.3819(5) 1.6119(5) 0.6471(3)
H35A H 0.4699 1.5935 0.6483
C26A C 0.3587(6) 1.5545(4) 0.5941(3)
C27A C 0.2267(6) 1.5823(4) 0.5963(2)
H36A H 0.2077 1.5443 0.5613
C28A C 0.1230(5) 1.6658(4) 0.6497(2)
H37A H 0.0342 1.6825 0.6507
C29A C 0.4759(6) 1.4635(5) 0.5348(3)
H38A H 0.4473 1.4021 0.5197
H39A H 0.5500 1.4168 0.5567
N1A N 2.1734(6) 0.2061(5) -0.2852(3)
N2A N 2.0197(4) 0.2015(4) -0.3761(2)
N3A N 1.8210(4) -0.1661(4) -0.2310(2)
N4A N 1.9462(5) -0.2325(5) -0.1158(2)
N5A N 1.8666(4) 0.2573(3) -0.18929(19)
N6A N 0.1450(4) 1.7244(3) 0.70068(19)
N6A_2 N 2.1450(4) -0.2756(3) -0.29932(19)
O1A O 1.9259(3) 0.0172(3) -0.29618(16)
O2A O 2.0723(3) -0.0262(3) -0.20794(18)
H48A H 2.1282 -0.0432 -0.1764
Zn1A Zn 2.01797(6) 0.12680(5) -0.26880(3)
Zn2A Zn 1.98842(5) -0.13706(4) -0.22515(3)
Zn2A_2 Zn -0.01158(5) 1.86294(4) 0.77485(3)
C30 C 0.5834(14) 0.6220(11) 0.1893(8)
H40 H 0.6447 0.5804 0.2203
H41 H 0.5484 0.5613 0.1800
C31 C 0.4751(13) 0.7299(16) 0.2287(7)
H42 H 0.5020 0.7629 0.2647
H43 H 0.3973 0.7083 0.2560
C32 C 0.4445(13) 0.8213(12) 0.1695(11)
H44 H 0.4276 0.9062 0.1854
H45 H 0.3651 0.8233 0.1575
C33 C 0.5622(15) 0.7795(12) 0.1041(6)
H46 H 0.5356 0.7727 0.0597
H47 H 0.6061 0.8408 0.0930
O11 O 0.6524(8) 0.6589(9) 0.1210(6)
Cl1 Cl 1.24534(18) 0.39691(15) 0.39007(8)
O3 O 1.1282(7) 0.3801(7) 0.3959(5)
O4 O 1.3217(9) 0.3760(7) 0.3156(3)
O5 O 1.2281(8) 0.5168(5) 0.4074(5)
O6 O 1.3200(6) 0.3056(6) 0.4330(3)
Cl2 Cl 0.6357(2) 0.13087(19) 0.11859(10)
O7 O 0.6330(9) 0.2502(7) 0.1339(4)
O8 O 0.7704(6) 0.0518(7) 0.0999(4)
O9 O 0.5631(8) 0.0839(9) 0.1818(5)
O10 O 0.5855(8) 0.1421(7) 0.0566(4)
loop_
_geom_bond_atom_site_label_1
_geom_bond_atom_site_label_2
_geom_bond_site_symmetry_1
_geom_bond_site_symmetry_2
C1 H1 1_555 1_555
H2 C1 1_555 1_555
H3 C1 1_555 1_555
C2 H4 1_555 1_555
H5 C2 1_555 1_555
H6 C2 1_555 1_555
C3 H7 1_555 1_555
H8 C3 1_555 1_555
C4 C3 1_555 1_555
H9 C4 1_555 1_555
H10 C4 1_555 1_555
C5 H11 1_555 1_555
C6 C5 1_555 1_555
C7 C6 1_555 1_555
H12 C7 1_555 1_555
C8 C7 1_555 1_555
C9 C8 1_555 1_555
H13 C9 1_555 1_555
H14 C9 1_555 1_555
H15 C9 1_555 1_555
C10 C8 1_555 1_555
H16 C10 1_555 1_555
C11 C10 1_555 1_555
C12 C6 1_555 1_555
C13 C11 1_555 1_555
H17 C13 1_555 1_555
C14 H18 1_555 1_555
H19 C14 1_555 1_555
C15 C14 1_555 1_555
H20 C15 1_555 1_555
H21 C15 1_555 1_555
C16 H22 1_555 1_555
H23 C16 1_555 1_555
H24 C16 1_555 1_555
C17 H25 1_555 1_555
H26 C17 1_555 1_555
H27 C17 1_555 1_555
C18 H28 1_555 1_555
C19 C18 1_555 1_555
H29 C19 1_555 1_555
C20 C19 1_555 1_555
C21 C20 1_555 1_555
H30 C21 1_555 1_555
H31 C21 1_555 1_555
C22 C20 1_555 1_555
H32 C22 1_555 1_555
C23 C22 1_555 1_555
H33 C23 1_555 1_555
C24 H34 1_555 1_555
C25 C24 1_555 1_555
H35 C25 1_555 1_555
C26 C25 1_555 1_555
C27 C26 1_555 1_555
H36 C27 1_555 1_555
C28 C27 1_555 1_555
H37 C28 1_555 1_555
C29 C26 1_555 1_555
H38 C29 1_555 1_555
H39 C29 1_555 1_555
C30 H40 1_555 1_555
H41 C30 1_555 1_555
C31 C30 1_555 1_555
H42 C31 1_555 1_555
H43 C31 1_555 1_555
C32 C31 1_555 1_555
H44 C32 1_555 1_555
H45 C32 1_555 1_555
C33 C32 1_555 1_555
H46 C33 1_555 1_555
H47 C33 1_555 1_555
Cl1 O3 1_555 1_555
Cl2 O7 1_555 1_555
N1 C1 1_555 1_555
N2 C4 1_555 1_555
N3 C13 1_555 1_555
N4 C15 1_555 1_555
N5 C18 1_555 1_555
N6 C24 1_555 1_555
O1 C12 1_555 1_555
O2 H48 1_555 1_555
O4 Cl1 1_555 1_555
O5 Cl1 1_555 1_555
O6 Cl1 1_555 1_555
O8 Cl2 1_555 1_555
O9 Cl2 1_555 1_555
O10 Cl2 1_555 1_555
O11 C30 1_555 1_555
Zn1 N1 1_555 1_555
Zn2 N3 1_555 1_555
C1A H1A 1_555 1_555
H2A C1A 1_555 1_555
H3A C1A 1_555 1_555
C2A H4A 1_555 1_555
H5A C2A 1_555 1_555
H6A C2A 1_555 1_555
C3A H7A 1_555 1_555
H8A C3A 1_555 1_555
C4A C3A 1_555 1_555
H9A C4A 1_555 1_555
H10A C4A 1_555 1_555
C5A H11A 1_555 1_555
C6A C5A 1_555 1_555
C7A C6A 1_555 1_555
H12A C7A 1_555 1_555
C8A C7A 1_555 1_555
C9A C8A 1_555 1_555
H13A C9A 1_555 1_555
H14A C9A 1_555 1_555
H15A C9A 1_555 1_555
C10A C8A 1_555 1_555
H16A C10A 1_555 1_555
C11A C10A 1_555 1_555
C12A C6A 1_555 1_555
C13A C11A 1_555 1_555
H17A C13A 1_555 1_555
C14A H18A 1_555 1_555
H19A C14A 1_555 1_555
C15A C14A 1_555 1_555
H20A C15A 1_555 1_555
H21A C15A 1_555 1_555
C16A H22A 1_555 1_555
H23A C16A 1_555 1_555
H24A C16A 1_555 1_555
C17A H25A 1_555 1_555
H26A C17A 1_555 1_555
H27A C17A 1_555 1_555
C18A H28A 1_555 1_555
C19A C18A 1_555 1_555
H29A C19A 1_555 1_555
C20A C19A 1_555 1_555
C21A C21 1_555 1_555
H30A C21A 1_555 1_555
H31A C21A 1_555 1_555
C22A C20A 1_555 1_555
H32A C22A 1_555 1_555
C23A C22A 1_555 1_555
H33A C23A 1_555 1_555
C24A H34A 1_555 1_555
C25A C24A 1_555 1_555
H35A C25A 1_555 1_555
C26A C25A 1_555 1_555
C27A C26A 1_555 1_555
H36A C27A 1_555 1_555
C28A C27A 1_555 1_555
H37A C28A 1_555 1_555
C29A C29 1_555 1_555
H38A C29A 1_555 1_555
H39A C29A 1_555 1_555
N1A C1A 1_555 1_555
N2A C4A 1_555 1_555
N3A C13A 1_555 1_555
N4A C15A 1_555 1_555
N5A C18A 1_555 1_555
N6A C24A 1_555 1_555
N6A_2 Zn2A 1_555 1_555
O1A C12A 1_555 1_555
O2A H48A 1_555 1_555
Zn1A N1A 1_555 1_555
Zn2A N3A 1_555 1_555
Zn2A_2 N6A 1_555 1_555
C2 N1 1_555 1_555
C3 N1 1_555 1_555
C5 N2 1_555 1_555
C11 C12 1_555 1_555
C14 N3 1_555 1_555
C16 N4 1_555 1_555
C17 N4 1_555 1_555
C23 N5 1_555 1_555
C28 N6 1_555 1_555
C33 O11 1_555 1_555
N2 Zn1 1_555 1_555
N4 Zn2 1_555 1_555
N5 Zn1 1_555 1_555
N6 Zn2 1_555 1_555
O1 Zn1 1_555 1_555
O1 Zn2 1_555 1_555
O2 Zn1 1_555 1_555
O2 Zn2 1_555 1_555
C2A N1A 1_555 1_555
C3A N1A 1_555 1_555
C5A N2A 1_555 1_555
C11A C12A 1_555 1_555
C14A N3A 1_555 1_555
C16A N4A 1_555 1_555
C17A N4A 1_555 1_555
C20A C21A 1_555 1_555
C23A N5A 1_555 1_555
C26A C29A 1_555 1_555
C28A N6A 1_555 1_555
N2A Zn1A 1_555 1_555
N4A Zn2A 1_555 1_555
N5A Zn1A 1_555 1_555
O1A Zn1A 1_555 1_555
O1A Zn2A 1_555 1_555
O2A Zn1A 1_555 1_555
O2A Zn2A 1_555 1_555

#END
