
#######################################################################
#
#                 Cambridge Crystallographic Data Centre
#                                CCDC 
#
#######################################################################
#
# If this CIF has been generated from an entry in the Cambridge 
# Structural Database, then it will include bibliographic, chemical, 
# crystal, experimental, refinement or atomic coordinate data resulting 
# from the CCDC's data processing and validation procedures.
#
#######################################################################

data_WUXVER
_symmetry_cell_setting           monoclinic
_symmetry_space_group_name_H-M   'P 21/c'
_symmetry_Int_Tables_number      14
_space_group_name_Hall           '-P 2ybc'
loop_
_symmetry_equiv_pos_site_id
_symmetry_equiv_pos_as_xyz
1 x,y,z
2 -x,1/2+y,1/2-z
3 -x,-y,-z
4 x,1/2-y,1/2+z
_cell_length_a                   10.8633(10)
_cell_length_b                   15.3513(10)
_cell_length_c                   21.4333(17)
_cell_angle_alpha                90
_cell_angle_beta                 93.062(9)
_cell_angle_gamma                90
_cell_volume                     3569.24
loop_
_atom_site_label
_atom_site_type_symbol
_atom_site_fract_x
_atom_site_fract_y
_atom_site_fract_z
C1 C 0.3489(8) 0.7025(7) 0.3008(4)
H1 H 0.2917 0.6733 0.3264
H2 H 0.3769 0.7551 0.3212
H3 H 0.4180 0.6651 0.2947
C2 C 0.2268(8) 0.6481(5) 0.2149(4)
H4 H 0.2846 0.6011 0.2125
H5 H 0.1929 0.6616 0.1737
H6 H 0.1616 0.6313 0.2409
C3 C 0.1942(8) 0.7879(6) 0.2515(4)
H7 H 0.1207 0.7685 0.2278
H8 H 0.1763 0.7832 0.2953
C4 C 0.2053(6) 0.8736(5) 0.2396(3)
H9 H 0.2207 0.9049 0.2786
H10 H 0.1290 0.8953 0.2198
C5 C 0.3231(5) 0.9661(4) 0.1778(3)
H11 H 0.2685 1.0087 0.1900
C6 C 0.4174(5) 0.9935(4) 0.1373(2)
C7 C 0.4091(5) 1.0777(4) 0.1122(3)
H12 H 0.3432 1.1126 0.1225
C8 C 0.4946(6) 1.1115(4) 0.0728(3)
C9 C 0.4827(6) 1.2030(4) 0.0471(3)
H13 H 0.5590 1.2336 0.0552
H14 H 0.4178 1.2329 0.0669
H15 H 0.4639 1.2005 0.0029
C10 C 0.5933(5) 1.0589(4) 0.0594(3)
H16 H 0.6522 1.0804 0.0334
C11 C 0.6077(5) 0.9743(4) 0.0836(2)
C12 C 0.5193(5) 0.9400(4) 0.1232(2)
C13 C 0.7134(5) 0.9258(4) 0.0647(3)
H17 H 0.7639 0.9532 0.0370
C14 C 0.8528(5) 0.8066(4) 0.0560(3)
H18 H 0.9194 0.8483 0.0532
H19 H 0.8313 0.7845 0.0145
C15 C 0.8923(5) 0.7326(4) 0.0993(3)
H20 H 0.9492 0.6951 0.0786
H21 H 0.9349 0.7560 0.1365
C16 C 0.8205(6) 0.6212(4) 0.1680(3)
H22 H 0.7501 0.5889 0.1802
H23 H 0.8541 0.6540 0.2031
H24 H 0.8818 0.5817 0.1542
C17 C 0.7306(6) 0.6307(4) 0.0634(3)
H25 H 0.7922 0.5924 0.0484
H26 H 0.7036 0.6702 0.0308
H27 H 0.6617 0.5971 0.0761
C18 C 0.2268(5) 0.7968(4) 0.0570(3)
H28 H 0.2095 0.8518 0.0723
C19 C 0.1641(5) 0.7698(4) 0.0031(3)
H29 H 0.1073 0.8067 -0.0174
C20 C 0.1853(5) 0.6877(5) -0.0207(3)
C21 C 0.2746(5) 0.6388(4) 0.0118(3)
H30 H 0.2941 0.5834 -0.0022
C22 C 0.3337(6) 0.6717(4) 0.0642(3)
H31 H 0.3944 0.6376 0.0844
C23 C 0.1096(5) 0.6507(5) -0.0751(3)
H32 H 0.1549 0.6041 -0.0941
H33 H 0.0935 0.6956 -0.1063
C24 C -0.0120(5) 0.6157(4) -0.0530(3)
H34 H -0.0628 0.6646 -0.0418
H35 H 0.0052 0.5815 -0.0155
C25 C -0.0847(6) 0.5604(4) -0.0997(3)
H36 H -0.0344 0.5108 -0.1100
H37 H -0.1565 0.5381 -0.0798
C26 C -0.1277(5) 0.6046(4) -0.1596(3)
C27 C -0.1117(5) 0.5682(4) -0.2168(3)
H38 H -0.0670 0.5168 -0.2194
C28 C -0.1607(5) 0.6064(4) -0.2703(3)
H39 H -0.1474 0.5794 -0.3082
C29 C -0.2390(5) 0.7152(4) -0.2161(3)
H40 H -0.2840 0.7667 -0.2150
C30 C -0.1919(6) 0.6825(4) -0.1604(3)
H41 H -0.2029 0.7125 -0.1234
N1 N 0.3069(4) 0.8893(3) 0.1985(2)
N2 N 0.2885(4) 0.7234(3) 0.2410(2)
N3 N 0.7442(4) 0.8491(3) 0.0823(2)
N4 N 0.7834(4) 0.6807(3) 0.1173(2)
N5 N 0.3102(4) 0.7491(3) 0.0883(2)
N6 N -0.2256(4) 0.6792(3) -0.2713(2)
O1 O 0.5293(3) 0.8602(2) 0.14574(16)
O2 O 0.5432(3) 0.7088(2) 0.18387(16)
H42 H 0.5500 0.6525 0.1997
Cu1 Cu 0.40522(6) 0.78708(4) 0.18479(3)
Cu2 Cu 0.66326(6) 0.77533(4) 0.14218(3)
N6C N 0.7744(4) 0.8208(3) 0.2287(2)
Cu2C Cu -0.33674(6) 0.72467(4) -0.35782(3)
O3 O 0.0867(5) 0.1199(4) 0.0867(3)
O4 O 0.0559(5) 0.0822(4) 0.1891(2)
O5 O 0.0418(5) -0.0229(4) 0.1133(3)
O6 O -0.1104(4) 0.0819(4) 0.1148(3)
Cl1 Cl 0.01777(15) 0.06625(12) 0.12490(9)
O7 O 0.5104(8) 0.5239(4) 0.1832(4)
O8 O 0.6166(6) 0.4370(4) 0.1218(3)
O9 O 0.4778(5) 0.3776(3) 0.1857(3)
O10 O 0.4079(7) 0.4601(6) 0.1012(5)
Cl2 Cl 0.50132(19) 0.44978(13) 0.14676(12)
loop_
_geom_bond_atom_site_label_1
_geom_bond_atom_site_label_2
_geom_bond_site_symmetry_1
_geom_bond_site_symmetry_2
C1 H1 1_555 1_555
H2 C1 1_555 1_555
H3 C1 1_555 1_555
C2 H4 1_555 1_555
H5 C2 1_555 1_555
H6 C2 1_555 1_555
C3 H7 1_555 1_555
H8 C3 1_555 1_555
C4 C3 1_555 1_555
H9 C4 1_555 1_555
H10 C4 1_555 1_555
C5 H11 1_555 1_555
C6 C5 1_555 1_555
C7 C6 1_555 1_555
H12 C7 1_555 1_555
C8 C7 1_555 1_555
C9 C8 1_555 1_555
H13 C9 1_555 1_555
H14 C9 1_555 1_555
H15 C9 1_555 1_555
C10 C8 1_555 1_555
H16 C10 1_555 1_555
C11 C10 1_555 1_555
C12 C6 1_555 1_555
C13 C11 1_555 1_555
H17 C13 1_555 1_555
C14 H18 1_555 1_555
H19 C14 1_555 1_555
C15 C14 1_555 1_555
H20 C15 1_555 1_555
H21 C15 1_555 1_555
C16 H22 1_555 1_555
H23 C16 1_555 1_555
H24 C16 1_555 1_555
C17 H25 1_555 1_555
H26 C17 1_555 1_555
H27 C17 1_555 1_555
C18 H28 1_555 1_555
C19 C18 1_555 1_555
H29 C19 1_555 1_555
C20 C19 1_555 1_555
C21 C20 1_555 1_555
H30 C21 1_555 1_555
C22 C21 1_555 1_555
H31 C22 1_555 1_555
C23 C20 1_555 1_555
H32 C23 1_555 1_555
H33 C23 1_555 1_555
C24 C23 1_555 1_555
H34 C24 1_555 1_555
H35 C24 1_555 1_555
C25 C24 1_555 1_555
H36 C25 1_555 1_555
H37 C25 1_555 1_555
C26 C25 1_555 1_555
C27 C26 1_555 1_555
H38 C27 1_555 1_555
C28 C27 1_555 1_555
H39 C28 1_555 1_555
C29 H40 1_555 1_555
C30 C26 1_555 1_555
H41 C30 1_555 1_555
N1 C4 1_555 1_555
N2 C1 1_555 1_555
N3 C13 1_555 1_555
N4 C15 1_555 1_555
N5 C18 1_555 1_555
N6 C28 1_555 1_555
O1 C12 1_555 1_555
O2 H42 1_555 1_555
Cu1 N1 1_555 1_555
Cu2 N3 1_555 1_555
O3 Cl1 1_555 1_555
O4 Cl1 1_555 1_555
O5 Cl1 1_555 1_555
O6 Cl1 1_555 1_555
O7 Cl2 1_555 1_555
O8 Cl2 1_555 1_555
O9 Cl2 1_555 1_555
O10 Cl2 1_555 1_555
N6C Cu2 1_555 1_555
Cu2C N6 1_555 1_555
C2 N2 1_555 1_555
C3 N2 1_555 1_555
C5 N1 1_555 1_555
C11 C12 1_555 1_555
C14 N3 1_555 1_555
C16 N4 1_555 1_555
C17 N4 1_555 1_555
C22 N5 1_555 1_555
C29 C30 1_555 1_555
C29 N6 1_555 1_555
N2 Cu1 1_555 1_555
N4 Cu2 1_555 1_555
N5 Cu1 1_555 1_555
O1 Cu1 1_555 1_555
O1 Cu2 1_555 1_555
O2 Cu1 1_555 1_555
O2 Cu2 1_555 1_555

#END
