
#######################################################################
#
#                 Cambridge Crystallographic Data Centre
#                                CCDC 
#
#######################################################################
#
# If this CIF has been generated from an entry in the Cambridge 
# Structural Database, then it will include bibliographic, chemical, 
# crystal, experimental, refinement or atomic coordinate data resulting 
# from the CCDC's data processing and validation procedures.
#
#######################################################################

data_WUXZUL
_symmetry_cell_setting           monoclinic
_symmetry_space_group_name_H-M   'P 21/c'
_symmetry_Int_Tables_number      14
_space_group_name_Hall           '-P 2ybc'
loop_
_symmetry_equiv_pos_site_id
_symmetry_equiv_pos_as_xyz
1 x,y,z
2 -x,1/2+y,1/2-z
3 -x,-y,-z
4 x,1/2-y,1/2+z
_cell_length_a                   9.0134(5)
_cell_length_b                   10.8785(5)
_cell_length_c                   6.4702(3)
_cell_angle_alpha                90
_cell_angle_beta                 91.679(1)
_cell_angle_gamma                90
_cell_volume                     634.145
loop_
_atom_site_label
_atom_site_type_symbol
_atom_site_fract_x
_atom_site_fract_y
_atom_site_fract_z
Cu1 Cu 0.0000 0.5000 0.0000
O1 O 0.19323(12) 0.46168(11) 0.13076(17)
O2 O 0.12257(11) 0.59968(10) 0.35743(17)
N1 N -0.09887(18) 0.37707(14) 0.1773(2)
C1 C 0.36344(17) 0.51158(12) 0.4012(2)
C2 C 0.48326(15) 0.57974(12) 0.3305(2)
C3 C 0.37857(14) 0.43159(12) 0.5685(2)
C4 C 0.21533(16) 0.52645(14) 0.2921(2)
C5 C 0.46365(18) 0.66625(16) 0.1507(3)
C6 C 0.24936(16) 0.35525(14) 0.6361(2)
H1 H 0.368(3) 0.676(2) 0.110(3)
H2 H 0.264(2) 0.274(2) 0.615(3)
H3 H 0.234(2) 0.3667(19) 0.783(3)
H4 H 0.163(2) 0.375(2) 0.564(3)
H5 H -0.085(3) 0.389(2) 0.311(4)
H6 H 0.510(2) 0.745(2) 0.176(4)
H7 H -0.081(3) 0.306(3) 0.152(4)
H8 H 0.507(3) 0.633(3) 0.049(5)
H9 H -0.193(4) 0.374(3) 0.160(5)
Cu1_2 Cu 1.0000 0.5000 1.0000
O1B O -0.19323(12) 0.53832(11) -0.13076(17)
O1B_2 O 0.80677(12) 0.53832(11) 0.86924(17)
O2B O 0.87743(11) 0.40032(10) 0.64257(17)
N1B N 0.09887(18) 0.62293(14) -0.1773(2)
C1B C 0.63656(17) 0.48842(12) 0.5988(2)
C2B C 0.51674(15) 0.42026(12) 0.6695(2)
C3B C 0.62143(14) 0.56841(12) 0.4315(2)
C4B C 0.78467(16) 0.47355(14) 0.7079(2)
C5B C 0.53635(18) 0.33375(16) 0.8493(3)
C6B C 0.75064(16) 0.64475(14) 0.3639(2)
H1B H 0.632(3) 0.324(2) 0.890(3)
H2B H 0.736(2) 0.726(2) 0.385(3)
H3B H 0.766(2) 0.6333(19) 0.217(3)
H4B H 0.837(2) 0.625(2) 0.436(3)
H5B H 0.085(3) 0.611(2) -0.311(4)
H6B H 0.490(2) 0.255(2) 0.824(4)
H7B H 0.081(3) 0.694(3) -0.152(4)
H8B H 0.493(3) 0.367(3) 0.951(5)
H9B H 0.193(4) 0.626(3) -0.160(5)
loop_
_geom_bond_atom_site_label_1
_geom_bond_atom_site_label_2
_geom_bond_site_symmetry_1
_geom_bond_site_symmetry_2
Cu1 O1 1_555 1_555
O1 C4 1_555 1_555
O2 C4 1_555 1_555
N1 Cu1 1_555 1_555
C1 C2 1_555 1_555
C2 C5 1_555 1_555
C3 C1 1_555 1_555
C4 C1 1_555 1_555
C5 H1 1_555 1_555
C6 C3 1_555 1_555
H2 C6 1_555 1_555
H3 C6 1_555 1_555
H4 C6 1_555 1_555
H5 N1 1_555 1_555
H6 C5 1_555 1_555
H7 N1 1_555 1_555
H8 C5 1_555 1_555
H9 N1 1_555 1_555
Cu1_2 O1B_2 1_555 1_555
O1B Cu1 1_555 1_555
O1B_2 C4B 1_555 1_555
O2B C4B 1_555 1_555
N1B Cu1 1_555 1_555
C1B C2B 1_555 1_555
C2B C3 1_555 1_555
C3B C2 1_555 1_555
C4B C1B 1_555 1_555
C5B C2B 1_555 1_555
C6B C3B 1_555 1_555
H1B C5B 1_555 1_555
H2B C6B 1_555 1_555
H3B C6B 1_555 1_555
H4B C6B 1_555 1_555
H5B N1B 1_555 1_555
H6B C5B 1_555 1_555
H7B N1B 1_555 1_555
H8B C5B 1_555 1_555
H9B N1B 1_555 1_555
C1B C3B 1_555 1_555

#END
