
#######################################################################
#
#                 Cambridge Crystallographic Data Centre
#                                CCDC 
#
#######################################################################
#
# If this CIF has been generated from an entry in the Cambridge 
# Structural Database, then it will include bibliographic, chemical, 
# crystal, experimental, refinement or atomic coordinate data resulting 
# from the CCDC's data processing and validation procedures.
#
#######################################################################

data_WUYBIB
_symmetry_cell_setting           triclinic
_symmetry_space_group_name_H-M   'P -1'
_symmetry_Int_Tables_number      2
_space_group_name_Hall           '-P 1'
loop_
_symmetry_equiv_pos_site_id
_symmetry_equiv_pos_as_xyz
1 x,y,z
2 -x,-y,-z
_cell_length_a                   10.759(2)
_cell_length_b                   11.012(2)
_cell_length_c                   23.207(4)
_cell_angle_alpha                85.330(10)
_cell_angle_beta                 83.470(10)
_cell_angle_gamma                69.770(10)
_cell_volume                     2560.56
loop_
_atom_site_label
_atom_site_type_symbol
_atom_site_fract_x
_atom_site_fract_y
_atom_site_fract_z
Co1 Co 0.60186(4) -0.10850(4) -0.250425(16)
O1 O 0.7719(3) -0.2646(3) -0.24656(10)
O2 O 0.7057(3) 0.0106(3) -0.22891(11)
O3 O 0.4941(3) -0.2233(3) -0.27311(10)
O4 O 0.4318(3) 0.0494(2) -0.24945(10)
N1 N 0.6507(2) -0.0677(2) -0.34127(9)
N2 N 0.4888(3) -0.0135(3) -0.47458(10)
N3 N 0.5534(3) -0.1515(2) -0.15989(9)
N4 N 0.5044(3) 0.0132(3) -0.02592(9)
C1 C 0.7667(3) -0.0539(3) -0.36021(13)
H1 H 0.8275 -0.0625 -0.3334
C2 C 0.8011(4) -0.0273(4) -0.41787(14)
H2 H 0.8836 -0.0189 -0.4292
C3 C 0.7126(3) -0.0134(4) -0.45830(13)
H3 H 0.7333 0.0050 -0.4973
C4 C 0.5929(3) -0.0275(3) -0.43926(12)
C5 C 0.5656(3) -0.0539(3) -0.38107(12)
H4 H 0.4837 -0.0626 -0.3688
C6 C 0.5440(4) -0.2653(3) -0.14072(13)
H5 H 0.5543 -0.3267 -0.1678
C7 C 0.5196(4) -0.2976(3) -0.08263(14)
H6 H 0.5129 -0.3782 -0.0712
C8 C 0.5054(4) -0.2077(3) -0.04196(13)
H7 H 0.4891 -0.2262 -0.0026
C9 C 0.5160(3) -0.0904(3) -0.06131(12)
C10 C 0.5389(3) -0.0651(3) -0.12032(12)
H8 H 0.5445 0.0154 -0.1328
H33 H 0.816(3) -0.309(3) -0.2728(11)
H34 H 0.802(3) -0.288(3) -0.2152(7)
H35 H 0.765(3) -0.015(4) -0.2073(14)
H36 H 0.673(4) 0.0895(11) -0.2302(16)
H37 H 0.535(3) -0.278(3) -0.2967(13)
H38 H 0.4193(19) -0.179(3) -0.2809(17)
H39 H 0.381(3) 0.076(3) -0.2207(10)
H40 H 0.410(4) 0.114(2) -0.2713(12)
N2A N 0.5112(3) 0.0135(3) -0.52542(10)
C4A C 0.4071(3) 0.0275(3) -0.56074(12)
C3A C 0.2874(3) 0.0134(4) -0.54170(13)
C2A C 0.1989(4) 0.0273(4) -0.58213(14)
C1A C 0.2333(3) 0.0539(3) -0.63979(13)
N1A N 0.3493(2) 0.0677(2) -0.65873(9)
C5A C 0.4344(3) 0.0539(3) -0.61893(12)
H4A H 0.5163 0.0626 -0.6312
H1A H 0.1725 0.0625 -0.6666
H2A H 0.1164 0.0189 -0.5708
H3A H 0.2667 -0.0050 -0.5027
N4A N 0.4956(3) -0.0132(3) 0.02592(9)
C9A C 0.4840(3) 0.0904(3) 0.06131(12)
C8A C 0.4946(4) 0.2077(3) 0.04196(13)
C7A C 0.4804(4) 0.2976(3) 0.08263(14)
C6A C 0.4560(4) 0.2653(3) 0.14072(13)
N3A N 0.4466(3) 0.1515(2) 0.15989(9)
C10A C 0.4611(3) 0.0651(3) 0.12032(12)
H8A H 0.4555 -0.0154 0.1328
H5A H 0.4457 0.3267 0.1678
H6A H 0.4871 0.3782 0.0712
H7A H 0.5109 0.2262 0.0026
Co1A Co 0.39814(4) 0.10850(4) -0.749575(16)
O1A O 0.2281(3) 0.2646(3) -0.75344(10)
H33A H 0.184(3) 0.309(3) -0.7272(11)
H34A H 0.198(3) 0.288(3) -0.7848(7)
O2A O 0.2943(3) -0.0106(3) -0.77109(11)
H35A H 0.235(3) 0.015(4) -0.7927(14)
H36A H 0.327(4) -0.0895(11) -0.7698(16)
O3A O 0.5059(3) 0.2233(3) -0.72689(10)
H37A H 0.465(3) 0.278(3) -0.7033(13)
H38A H 0.5807(19) 0.179(3) -0.7191(17)
O4A O 0.5682(3) -0.0494(2) -0.75055(10)
H39A H 0.619(3) -0.076(3) -0.7793(10)
H40A H 0.590(4) -0.114(2) -0.7287(12)
Co1A_2 Co 0.39814(4) 0.10850(4) 0.250425(16)
N3A_2 N 0.4466(3) 0.1515(2) -0.84011(9)
N5 N 0.2291(3) 0.1573(3) -0.16189(11)
N6 N 0.0949(3) 0.2845(3) -0.01736(13)
N7 N -0.0142(4) 0.3449(3) 0.00258(14)
N8 N 0.0802(3) 0.3725(3) 0.15056(12)
C11 C 0.1204(4) 0.1766(4) -0.18804(14)
H9 H 0.1301 0.1500 -0.2258
C12 C -0.0069(4) 0.2343(4) -0.16220(16)
H10 H -0.0807 0.2470 -0.1823
C13 C -0.0220(4) 0.2726(4) -0.10568(16)
H11 H -0.1062 0.3114 -0.0869
C14 C 0.0895(4) 0.2521(3) -0.07824(14)
C15 C 0.2118(4) 0.1944(3) -0.10740(14)
H12 H 0.2870 0.1804 -0.0880
C16 C 0.0930(4) 0.3434(3) 0.09495(15)
H13 H 0.1771 0.2991 0.0775
C17 C -0.0167(4) 0.3777(3) 0.06221(14)
C18 C -0.1400(4) 0.4435(4) 0.08756(18)
H14 H -0.2143 0.4668 0.0667
C19 C -0.1521(4) 0.4742(4) 0.14350(18)
H15 H -0.2348 0.5209 0.1615
C20 C -0.0418(4) 0.4361(4) 0.17332(16)
H16 H -0.0528 0.4561 0.2122
N9 N 0.5931(3) -0.4139(3) -0.35235(13)
N10 N 0.6640(4) -0.5122(4) -0.50605(16)
N11 N 0.6482(3) -0.4049(3) -0.52715(13)
N12 N 0.6350(3) -0.2662(3) -0.67645(12)
C21 C 0.6310(5) -0.5324(5) -0.32726(18)
H17 H 0.6266 -0.5403 -0.2869
C22 C 0.6757(5) -0.6428(5) -0.3573(2)
H18 H 0.6995 -0.7234 -0.3377
C23 C 0.6851(5) -0.6342(4) -0.4160(2)
H19 H 0.7149 -0.7085 -0.4373
C24 C 0.6499(4) -0.5142(4) -0.44340(15)
C25 C 0.6022(4) -0.4048(4) -0.41014(16)
H20 H 0.5759 -0.3232 -0.4288
C26 C 0.6335(4) -0.2867(4) -0.61909(15)
H21 H 0.6117 -0.2153 -0.5963
C27 C 0.6620(4) -0.4069(4) -0.59164(16)
C28 C 0.6984(4) -0.5125(4) -0.62431(18)
H22 H 0.7204 -0.5954 -0.6068
C29 C 0.7023(4) -0.4947(4) -0.68429(18)
H23 H 0.7274 -0.5650 -0.7080
C30 C 0.6676(4) -0.3694(4) -0.70781(16)
H24 H 0.6673 -0.3570 -0.7479
N13 N 0.9077(4) -0.0604(3) -0.15849(14)
N14 N 0.9528(3) 0.0039(3) -0.01347(13)
C31 C 1.0317(5) -0.1154(4) -0.18148(17)
H25 H 1.0453 -0.1395 -0.2198
C32 C 1.1415(5) -0.1384(4) -0.15097(18)
H26 H 1.2269 -0.1786 -0.1682
C33 C 1.1220(5) -0.1010(4) -0.09503(17)
H27 H 1.1940 -0.1145 -0.0736
C34 C 0.9939(4) -0.0431(4) -0.07088(15)
C35 C 0.8904(4) -0.0260(4) -0.10429(16)
H28 H 0.8039 0.0118 -0.0877
N14A N 1.0472(3) -0.0039(3) 0.01347(13)
C34A C 1.0061(4) 0.0431(4) 0.07088(15)
C33A C 0.8780(5) 0.1010(4) 0.09503(17)
C32A C 0.8585(5) 0.1384(4) 0.15097(18)
C31A C 0.9683(5) 0.1154(4) 0.18148(17)
N13A N 1.0923(4) 0.0604(3) 0.15849(14)
C35A C 1.1096(4) 0.0260(4) 0.10429(16)
H28A H 1.1961 -0.0118 0.0877
H25A H 0.9547 0.1395 0.2198
H26A H 0.7731 0.1786 0.1682
H27A H 0.8060 0.1145 0.0736
N15 N 0.9183(4) -0.4391(4) -0.32642(14)
N16 N 0.9824(4) -0.4570(3) -0.48282(14)
C36 C 0.9593(5) -0.5620(5) -0.30865(18)
H29 H 0.9503 -0.5819 -0.2690
C37 C 1.0150(5) -0.6633(4) -0.34575(19)
H30 H 1.0449 -0.7488 -0.3314
C38 C 1.0247(5) -0.6339(4) -0.40407(19)
H31 H 1.0600 -0.6995 -0.4303
C39 C 0.9818(4) -0.5065(4) -0.42345(16)
C40 C 0.9310(4) -0.4132(4) -0.38285(18)
H32 H 0.9040 -0.3268 -0.3960
N16A N 1.0176(4) -0.5430(3) -0.51718(14)
C39A C 1.0182(4) -0.4935(4) -0.57655(16)
C38A C 0.9753(5) -0.3661(4) -0.59593(19)
C37A C 0.9850(5) -0.3367(4) -0.65425(19)
C36A C 1.0407(5) -0.4380(5) -0.69135(18)
N15A N 1.0817(4) -0.5609(4) -0.67358(14)
C40A C 1.0690(4) -0.5868(4) -0.61715(18)
H32A H 1.0960 -0.6732 -0.6040
H29A H 1.0497 -0.4181 -0.7310
H30A H 0.9551 -0.2512 -0.6686
H31A H 0.9400 -0.3005 -0.5697
P1 P 0.56725(11) 0.34417(10) -0.14789(4)
F1 F 0.4814(3) 0.4646(3) -0.18320(13)
F2 F 0.6532(3) 0.2246(3) -0.11320(15)
F3 F 0.6535(4) 0.2835(3) -0.20370(14)
F4 F 0.4817(4) 0.4036(3) -0.09250(13)
F5 F 0.6647(3) 0.4169(3) -0.1429(2)
F6 F 0.4726(3) 0.2703(3) -0.15539(17)
P2 P 0.16422(10) -0.07300(11) -0.35610(5)
F7 F 0.2979(3) -0.1643(3) -0.38586(14)
F8 F 0.0328(3) 0.0157(3) -0.32319(15)
F9 F 0.2232(9) -0.1592(15) -0.3005(5)
F10 F 0.1025(8) 0.0129(12) -0.4075(5)
F11 F 0.0957(10) -0.1772(12) -0.3626(8)
F12 F 0.2336(8) 0.0250(11) -0.3449(7)
F13? F 0.2126(14) -0.066(3) -0.2973(6)
F14? F 0.1202(12) -0.080(3) -0.4180(4)
F15? F 0.1039(19) -0.1736(18) -0.3331(7)
F16? F 0.2209(17) 0.0370(12) -0.3833(9)
loop_
_geom_bond_atom_site_label_1
_geom_bond_atom_site_label_2
_geom_bond_site_symmetry_1
_geom_bond_site_symmetry_2
Co1 O1 1_555 1_555
O1 H33 1_555 1_555
O2 Co1 1_555 1_555
O3 Co1 1_555 1_555
O4 Co1 1_555 1_555
N1 Co1 1_555 1_555
N2 C4 1_555 1_555
N3 Co1 1_555 1_555
N4 C9 1_555 1_555
N5 C11 1_555 1_555
N6 N7 1_555 1_555
N7 C17 1_555 1_555
N8 C16 1_555 1_555
N9 C21 1_555 1_555
N10 N11 1_555 1_555
N11 C27 1_555 1_555
N12 C26 1_555 1_555
N13 C31 1_555 1_555
N14 C34 1_555 1_555
N15 C36 1_555 1_555
N16 C39 1_555 1_555
C1 N1 1_555 1_555
H1 C1 1_555 1_555
C2 C1 1_555 1_555
H2 C2 1_555 1_555
C3 C2 1_555 1_555
H3 C3 1_555 1_555
C4 C3 1_555 1_555
C5 N1 1_555 1_555
H4 C5 1_555 1_555
C6 N3 1_555 1_555
H5 C6 1_555 1_555
C7 C6 1_555 1_555
H6 C7 1_555 1_555
C8 C7 1_555 1_555
H7 C8 1_555 1_555
C9 C8 1_555 1_555
C10 N3 1_555 1_555
H8 C10 1_555 1_555
C11 H9 1_555 1_555
C12 C11 1_555 1_555
H10 C12 1_555 1_555
C13 C12 1_555 1_555
H11 C13 1_555 1_555
C14 N6 1_555 1_555
C15 N5 1_555 1_555
H12 C15 1_555 1_555
C16 H13 1_555 1_555
C17 C16 1_555 1_555
C18 C17 1_555 1_555
H14 C18 1_555 1_555
C19 C18 1_555 1_555
H15 C19 1_555 1_555
C20 N8 1_555 1_555
H16 C20 1_555 1_555
C21 H17 1_555 1_555
C22 C21 1_555 1_555
H18 C22 1_555 1_555
C23 C22 1_555 1_555
H19 C23 1_555 1_555
C24 N10 1_555 1_555
C25 N9 1_555 1_555
H20 C25 1_555 1_555
C26 H21 1_555 1_555
C27 C26 1_555 1_555
C28 C27 1_555 1_555
H22 C28 1_555 1_555
C29 C28 1_555 1_555
H23 C29 1_555 1_555
C30 N12 1_555 1_555
H24 C30 1_555 1_555
C31 H25 1_555 1_555
C32 C31 1_555 1_555
H26 C32 1_555 1_555
C33 C32 1_555 1_555
H27 C33 1_555 1_555
C34 C33 1_555 1_555
C35 N13 1_555 1_555
H28 C35 1_555 1_555
C36 H29 1_555 1_555
C37 C36 1_555 1_555
H30 C37 1_555 1_555
C38 C37 1_555 1_555
H31 C38 1_555 1_555
C39 C38 1_555 1_555
C40 N15 1_555 1_555
H32 C40 1_555 1_555
P1 F1 1_555 1_555
P2 F7 1_555 1_555
F2 P1 1_555 1_555
F3 P1 1_555 1_555
F4 P1 1_555 1_555
F5 P1 1_555 1_555
F6 P1 1_555 1_555
F8 P2 1_555 1_555
F9 P2 1_555 1_555
F10 P2 1_555 1_555
F11 P2 1_555 1_555
F12 P2 1_555 1_555
H34 O1 1_555 1_555
H35 O2 1_555 1_555
H36 O2 1_555 1_555
H37 O3 1_555 1_555
H38 O3 1_555 1_555
H39 O4 1_555 1_555
H40 O4 1_555 1_555
N2A N2 1_555 1_555
C4A N2A 1_555 1_555
C3A C4A 1_555 1_555
C2A C3A 1_555 1_555
C1A C2A 1_555 1_555
N1A C1A 1_555 1_555
C5A C4A 1_555 1_555
H4A C5A 1_555 1_555
H1A C1A 1_555 1_555
H2A C2A 1_555 1_555
H3A C3A 1_555 1_555
N4A N4 1_555 1_555
C9A N4A 1_555 1_555
C8A C9A 1_555 1_555
C7A C8A 1_555 1_555
C6A C7A 1_555 1_555
N3A C6A 1_555 1_555
C10A C9A 1_555 1_555
H8A C10A 1_555 1_555
H5A C6A 1_555 1_555
H6A C7A 1_555 1_555
H7A C8A 1_555 1_555
N14A N14 1_555 1_555
C34A N14A 1_555 1_555
C33A C34A 1_555 1_555
C32A C33A 1_555 1_555
C31A C32A 1_555 1_555
N13A C31A 1_555 1_555
C35A C34A 1_555 1_555
H28A C35A 1_555 1_555
H25A C31A 1_555 1_555
H26A C32A 1_555 1_555
H27A C33A 1_555 1_555
N16A N16 1_555 1_555
C39A N16A 1_555 1_555
C38A C39A 1_555 1_555
C37A C38A 1_555 1_555
C36A C37A 1_555 1_555
N15A C36A 1_555 1_555
C40A C39A 1_555 1_555
H32A C40A 1_555 1_555
H29A C36A 1_555 1_555
H30A C37A 1_555 1_555
H31A C38A 1_555 1_555
Co1A N1A 1_555 1_555
O1A Co1A 1_555 1_555
H33A O1A 1_555 1_555
H34A O1A 1_555 1_555
O2A Co1A 1_555 1_555
H35A O2A 1_555 1_555
H36A O2A 1_555 1_555
O3A Co1A 1_555 1_555
H37A O3A 1_555 1_555
H38A O3A 1_555 1_555
O4A Co1A 1_555 1_555
H39A O4A 1_555 1_555
H40A O4A 1_555 1_555
Co1A_2 N3A 1_555 1_555
N3A_2 Co1A 1_555 1_555
C4 C5 1_555 1_555
C9 C10 1_555 1_555
C13 C14 1_555 1_555
C14 C15 1_555 1_555
C19 C20 1_555 1_555
C23 C24 1_555 1_555
C24 C25 1_555 1_555
C29 C30 1_555 1_555
C34 C35 1_555 1_555
C39 C40 1_555 1_555
N1A C5A 1_555 1_555
N3A C10A 1_555 1_555
N13A C35A 1_555 1_555
N15A C40A 1_555 1_555

#END
