
#######################################################################
#
#                 Cambridge Crystallographic Data Centre
#                                CCDC 
#
#######################################################################
#
# If this CIF has been generated from an entry in the Cambridge 
# Structural Database, then it will include bibliographic, chemical, 
# crystal, experimental, refinement or atomic coordinate data resulting 
# from the CCDC's data processing and validation procedures.
#
#######################################################################

data_WUYDUP
_symmetry_cell_setting           monoclinic
_symmetry_space_group_name_H-M   'C 2/c'
_symmetry_Int_Tables_number      15
_space_group_name_Hall           '-C 2yn'
loop_
_symmetry_equiv_pos_site_id
_symmetry_equiv_pos_as_xyz
1 x,y,z
2 x,-y,1/2+z
3 1/2+x,1/2+y,z
4 1/2+x,1/2-y,1/2+z
5 -x,-y,-z
6 -x,y,1/2-z
7 1/2-x,1/2-y,-z
8 1/2-x,1/2+y,1/2-z
_cell_length_a                   21.303(9)
_cell_length_b                   10.199(1)
_cell_length_c                   13.2531(8)
_cell_angle_alpha                90
_cell_angle_beta                 103.578(1)
_cell_angle_gamma                90
_cell_volume                     2799.01
loop_
_atom_site_label
_atom_site_type_symbol
_atom_site_fract_x
_atom_site_fract_y
_atom_site_fract_z
Ag1 Ag 0.04905(6) 0.44141(9) 0.13375(9)
S1 S 0.0580(2) 0.2087(2) 0.0747(2)
S2 S 0.1198(2) 0.4956(4) 0.3989(3)
F1 F 0.190(1) 0.467(3) 0.582(2)
F2 F 0.2415(5) 0.447(1) 0.472(1)
F3 F 0.1799(6) 0.297(1) 0.492(2)
O1 O 0.107(2) 0.425(2) 0.313(1)
O2 O 0.0695(8) 0.465(2) 0.443(2)
O3 O 0.1327(8) 0.628(1) 0.400(1)
N1 N 0.0519(6) -0.3372(10) 0.1563(9)
C1 C 0.0088(5) 0.0977(9) 0.1188(7)
C2 C 0.0479(6) 0.0031(9) 0.1770(8)
C3 C 0.1159(5) 0.0229(10) 0.1892(9)
C4 C 0.1296(6) 0.135(1) 0.1426(8)
C5 C 0.0206(5) -0.1140(9) 0.2192(7)
C6 C 0.0404(6) -0.241(1) 0.1865(9)
C7 C -0.0611(6) 0.108(1) 0.0859(10)
C8 C 0.1670(7) -0.066(1) 0.251(1)
C9 C 0.1919(7) 0.194(1) 0.136(1)
C10 C 0.187(1) 0.410(3) 0.461(3)
H1 H -0.0788 0.1127 0.1452
H2 H -0.0722 0.1856 0.0455
H3 H -0.0779 0.0340 0.0454
H4 H 0.1470 -0.1387 0.2761
H5 H 0.1939 -0.0971 0.2083
H6 H 0.1924 -0.0193 0.3083
H7 H 0.2166 0.2122 0.2044
H8 H 0.2148 0.1343 0.1032
H9 H 0.1843 0.2731 0.0976
C5E C -0.0206(5) -0.1140(9) 0.2808(7)
C2E C -0.0479(6) 0.0031(9) 0.3230(8)
C1E C -0.0088(5) 0.0977(9) 0.3812(7)
S1E S -0.0580(2) 0.2087(2) 0.4253(2)
C4E C -0.1296(6) 0.135(1) 0.3574(8)
C3E C -0.1159(5) 0.0229(10) 0.3108(9)
C8E C -0.1670(7) -0.066(1) 0.249(1)
H4E H -0.1470 -0.1387 0.2239
H5E H -0.1939 -0.0971 0.2917
H6E H -0.1924 -0.0193 0.1917
C9E C -0.1919(7) 0.194(1) 0.364(1)
H7E H -0.2166 0.2122 0.2956
H8E H -0.2148 0.1343 0.3968
H9E H -0.1843 0.2731 0.4024
C7E C 0.0611(6) 0.108(1) 0.4141(10)
H1E H 0.0788 0.1127 0.3548
H2E H 0.0722 0.1856 0.4545
H3E H 0.0779 0.0340 0.4546
C6E C -0.0404(6) -0.241(1) 0.3135(9)
N1E N -0.0519(6) -0.3372(10) 0.3437(9)
S2E S -0.1198(2) 0.4956(4) 0.1011(3)
F1E F -0.190(1) 0.467(3) -0.082(2)
F2E F -0.2415(5) 0.447(1) 0.028(1)
F3E F -0.1799(6) 0.297(1) 0.008(2)
O1E O -0.107(2) 0.425(2) 0.187(1)
O2E O -0.0695(8) 0.465(2) 0.057(2)
O3E O -0.1327(8) 0.628(1) 0.100(1)
C10E C -0.187(1) 0.410(3) 0.039(3)
Ag1E Ag -0.04905(6) 0.44141(9) 0.36625(9)
N1_2 N 0.0519(6) 0.6628(10) 0.1563(9)
Ag1_2 Ag 0.04905(6) -0.55859(9) 0.13375(9)
Ag1E_2 Ag -0.04905(6) -0.55859(9) 0.36625(9)
N1E_2 N -0.0519(6) 0.6628(10) 0.3437(9)
loop_
_geom_bond_atom_site_label_1
_geom_bond_atom_site_label_2
_geom_bond_site_symmetry_1
_geom_bond_site_symmetry_2
Ag1 S1 1_555 1_555
S1 C1 1_555 1_555
S2 O1 1_555 1_555
F1 C10 1_555 1_555
F2 C10 1_555 1_555
F3 C10 1_555 1_555
O1 Ag1 1_555 1_555
O2 S2 1_555 1_555
O3 S2 1_555 1_555
N1 C6 1_555 1_555
C1 C2 1_555 1_555
C2 C3 1_555 1_555
C3 C4 1_555 1_555
C4 S1 1_555 1_555
C5 C2 1_555 1_555
C6 C5 1_555 1_555
C7 C1 1_555 1_555
C8 C3 1_555 1_555
C9 C4 1_555 1_555
C10 S2 1_555 1_555
H1 C7 1_555 1_555
H2 C7 1_555 1_555
H3 C7 1_555 1_555
H4 C8 1_555 1_555
H5 C8 1_555 1_555
H6 C8 1_555 1_555
H7 C9 1_555 1_555
H8 C9 1_555 1_555
H9 C9 1_555 1_555
C5E C5 1_555 1_555
C2E C5E 1_555 1_555
C1E C2E 1_555 1_555
S1E C1E 1_555 1_555
C4E S1E 1_555 1_555
C3E C2E 1_555 1_555
C8E C3E 1_555 1_555
H4E C8E 1_555 1_555
H5E C8E 1_555 1_555
H6E C8E 1_555 1_555
C9E C4E 1_555 1_555
H7E C9E 1_555 1_555
H8E C9E 1_555 1_555
H9E C9E 1_555 1_555
C7E C1E 1_555 1_555
H1E C7E 1_555 1_555
H2E C7E 1_555 1_555
H3E C7E 1_555 1_555
C6E C5E 1_555 1_555
N1E C6E 1_555 1_555
S2E O1E 1_555 1_555
F1E C10E 1_555 1_555
F2E C10E 1_555 1_555
F3E C10E 1_555 1_555
O1E Ag1E 1_555 1_555
O2E Ag1 1_555 1_555
O3E S2E 1_555 1_555
C10E S2E 1_555 1_555
Ag1E O2 1_555 1_555
N1_2 Ag1 1_555 1_555
Ag1_2 N1 1_555 1_555
Ag1E_2 N1E 1_555 1_555
N1E_2 Ag1E 1_555 1_555
S1E Ag1E 1_555 1_555
C4E C3E 1_555 1_555
S2E O2E 1_555 1_555

#END
