
#######################################################################
#
#                 Cambridge Crystallographic Data Centre
#                                CCDC 
#
#######################################################################
#
# If this CIF has been generated from an entry in the Cambridge 
# Structural Database, then it will include bibliographic, chemical, 
# crystal, experimental, refinement or atomic coordinate data resulting 
# from the CCDC's data processing and validation procedures.
#
#######################################################################

data_WUYDOJ
_symmetry_cell_setting           monoclinic
_symmetry_space_group_name_H-M   'P 21/c'
_symmetry_Int_Tables_number      14
_space_group_name_Hall           '-P 2ybc'
loop_
_symmetry_equiv_pos_site_id
_symmetry_equiv_pos_as_xyz
1 x,y,z
2 x,1/2-y,1/2+z
3 -x,-y,-z
4 -x,1/2+y,1/2-z
_cell_length_a                   13.4928(9)
_cell_length_b                   10.9203(7)
_cell_length_c                   18.1866(13)
_cell_angle_alpha                90
_cell_angle_beta                 93.282(2)
_cell_angle_gamma                90
_cell_volume                     2675.32
loop_
_atom_site_label
_atom_site_type_symbol
_atom_site_fract_x
_atom_site_fract_y
_atom_site_fract_z
Ga1 Ga 0.32356(6) 0.36042(7) 0.28198(5)
Ga2 Ga 0.55969(6) 0.15287(7) 0.28204(5)
Ga3 Ga 0.18219(6) 0.64529(7) 0.27844(5)
Ga4 Ga 0.05416(6) 0.35220(8) 0.22025(5)
Se1 Se 0.43799(6) 0.23439(7) 0.35717(5)
Se2 Se 0.26088(6) 0.50592(7) 0.36650(5)
Se3 Se 0.41077(6) 0.44652(7) 0.18234(5)
Se4 Se 0.19624(6) 0.22404(7) 0.23368(5)
Se5 Se 0.69925(6) 0.28079(7) 0.27339(5)
Se6 Se 0.08033(6) 0.76988(8) 0.35386(5)
Se7 Se 0.09109(6) 0.55132(7) 0.17726(5)
N1 N 0.5068(5) 0.1437(6) 0.1755(4)
H1 H 0.4901 0.2201 0.1609
H2 H 0.5570 0.1195 0.1483
N2 N 0.3870(7) 0.1484(8) 0.0310(5)
N3 N 0.0124(5) 0.3732(6) 0.3236(4)
H3 H -0.0061 0.2997 0.3405
H4 H 0.0655 0.3980 0.3520
N4 N -0.1213(9) 0.3556(9) 0.4411(6)
C1 C 0.4212(6) 0.0636(8) 0.1567(5)
H5 H 0.3621 0.1014 0.1744
H6 H 0.4311 -0.0135 0.1826
C2 C 0.4039(7) 0.0377(8) 0.0771(5)
H7 H 0.3466 -0.0156 0.0703
H8 H 0.4608 -0.0061 0.0602
C3 C -0.0688(7) 0.4602(7) 0.3326(6)
H9 H -0.1257 0.4350 0.3012
H10 H -0.0484 0.5403 0.3161
C4 C -0.1001(9) 0.4709(10) 0.4103(7)
H11 H -0.0475 0.5101 0.4403
H12 H -0.1586 0.5224 0.4109
Se3C Se 0.58923(6) -0.05348(7) 0.31766(5)
Se5C Se 0.30075(6) 0.78079(7) 0.22661(5)
Se6C Se -0.08033(6) 0.26988(8) 0.14614(5)
Ga2C Ga 0.44031(6) 0.65287(7) 0.21796(5)
Ga3C Ga 0.81781(6) 0.14529(7) 0.22156(5)
Ga4C Ga -0.05416(6) 0.85220(8) 0.27975(5)
N5 N 1.1450(7) 0.0958(10) 0.4082(5)
N6 N 1.2379(6) 0.1623(8) 0.5581(5)
C5 C 1.0918(10) 0.1371(13) 0.4728(8)
H13 H 1.0313 0.1786 0.4555
H14 H 1.0729 0.0658 0.5005
C6 C 1.1482(9) 0.2173(11) 0.5209(7)
H15 H 1.1056 0.2469 0.5582
H16 H 1.1682 0.2876 0.4927
N7 N 0.3207(7) -0.0347(7) 0.3832(5)
N8 N 0.2466(7) -0.1046(8) 0.5272(5)
C7 C 0.3817(9) -0.0842(11) 0.4450(8)
H17 H 0.4081 -0.0169 0.4749
H18 H 0.4375 -0.1279 0.4261
C8 C 0.3269(9) -0.1682(10) 0.4923(7)
H19 H 0.2994 -0.2352 0.4626
H20 H 0.3725 -0.2025 0.5300
loop_
_geom_bond_atom_site_label_1
_geom_bond_atom_site_label_2
_geom_bond_site_symmetry_1
_geom_bond_site_symmetry_2
Ga1 Se1 1_555 1_555
Ga2 Se1 1_555 1_555
Ga3 Se2 1_555 1_555
Ga4 Se4 1_555 1_555
Se2 Ga1 1_555 1_555
Se3 Ga1 1_555 1_555
Se4 Ga1 1_555 1_555
Se5 Ga2 1_555 1_555
Se6 Ga3 1_555 1_555
Se7 Ga3 1_555 1_555
N1 Ga2 1_555 1_555
H1 N1 1_555 1_555
H2 N1 1_555 1_555
N2 C2 1_555 1_555
N3 Ga4 1_555 1_555
H3 N3 1_555 1_555
H4 N3 1_555 1_555
N4 C4 1_555 1_555
N5 C5 1_555 1_555
N6 C6 1_555 1_555
N7 C7 1_555 1_555
N8 C8 1_555 1_555
C1 N1 1_555 1_555
H5 C1 1_555 1_555
H6 C1 1_555 1_555
C2 C1 1_555 1_555
H7 C2 1_555 1_555
H8 C2 1_555 1_555
C3 N3 1_555 1_555
H9 C3 1_555 1_555
H10 C3 1_555 1_555
C4 C3 1_555 1_555
H11 C4 1_555 1_555
H12 C4 1_555 1_555
C5 H13 1_555 1_555
H14 C5 1_555 1_555
C6 C5 1_555 1_555
H15 C6 1_555 1_555
H16 C6 1_555 1_555
C7 H17 1_555 1_555
H18 C7 1_555 1_555
C8 C7 1_555 1_555
H19 C8 1_555 1_555
H20 C8 1_555 1_555
Se3C Ga2 1_555 1_555
Se5C Ga3 1_555 1_555
Se6C Ga4 1_555 1_555
Ga2C Se3 1_555 1_555
Ga3C Se5 1_555 1_555
Ga4C Se6 1_555 1_555
Ga4 Se7 1_555 1_555
Se5C Ga2C 1_555 1_555

#END
