
#######################################################################
#
#                 Cambridge Crystallographic Data Centre
#                                CCDC 
#
#######################################################################
#
# If this CIF has been generated from an entry in the Cambridge 
# Structural Database, then it will include bibliographic, chemical, 
# crystal, experimental, refinement or atomic coordinate data resulting 
# from the CCDC's data processing and validation procedures.
#
#######################################################################

data_WUYDUQ
_symmetry_cell_setting           monoclinic
_symmetry_space_group_name_H-M   'C 2/c'
_symmetry_Int_Tables_number      15
_space_group_name_Hall           '-C 2yn'
loop_
_symmetry_equiv_pos_site_id
_symmetry_equiv_pos_as_xyz
1 x,y,z
2 -x,y,1/2-z
3 1/2+x,1/2+y,z
4 1/2-x,1/2+y,1/2-z
5 -x,-y,-z
6 x,-y,1/2+z
7 1/2-x,1/2-y,-z
8 1/2+x,1/2-y,1/2+z
_cell_length_a                   24.174(2)
_cell_length_b                   9.8552(8)
_cell_length_c                   19.165(2)
_cell_angle_alpha                90
_cell_angle_beta                 127.893(1)
_cell_angle_gamma                90
_cell_volume                     3603.19
loop_
_atom_site_label
_atom_site_type_symbol
_atom_site_fract_x
_atom_site_fract_y
_atom_site_fract_z
Co1 Co 0.23482(2) 0.46737(4) 0.17383(3)
N1 N 0.20005(13) 0.6110(3) 0.06641(17)
N2 N 0.13285(17) 0.8154(3) -0.0600(2)
N3 N 0.13101(14) 0.4591(3) 0.13667(17)
N4 N -0.00262(16) 0.4024(3) 0.0825(2)
N5 N 0.33463(14) 0.4494(3) 0.20522(18)
O1 O 0.25264(12) 0.6580(2) 0.23295(14)
O2 O 0.22971(12) 0.8798(2) 0.20682(14)
O3 O 0.19173(12) 0.3075(2) 0.08700(14)
O4 O 0.10729(13) 0.1501(2) 0.02852(17)
C1 C 0.19436(16) 0.7374(3) 0.0876(2)
C2 C 0.1603(2) 0.8370(3) 0.0246(2)
H1 H 0.1561 0.9227 0.0412
C3 C 0.14175(18) 0.6920(4) -0.0801(2)
C4 C 0.17441(17) 0.5901(3) -0.0169(2)
H2 H 0.1785 0.5043 -0.0335
C5 C 0.22822(16) 0.7599(3) 0.1835(2)
C6 C 0.1131(2) 0.6684(4) -0.1737(2)
H3 H 0.0643 0.6915 -0.2123
H4 H 0.1188 0.5746 -0.1815
H5 H 0.1380 0.7240 -0.1873
C7 C 0.09733(17) 0.3464(3) 0.0904(2)
C8 C 0.03133(19) 0.3183(4) 0.0647(2)
H6 H 0.0094 0.2384 0.0339
C9 C 0.03146(19) 0.5142(4) 0.1278(2)
C10 C 0.09845(18) 0.5406(3) 0.1553(2)
H7 H 0.1213 0.6187 0.1881
C11 C 0.13444(18) 0.2576(3) 0.0664(2)
C12 C -0.0042(2) 0.6114(4) 0.1487(3)
H8 H -0.0185 0.6907 0.1123
H9 H 0.0276 0.6371 0.2098
H10 H -0.0447 0.5686 0.1374
C13 C 0.34178(18) 0.4092(3) 0.1442(2)
H11 H 0.3018 0.3822 0.0892
C14 C 0.40487(18) 0.4059(3) 0.1587(2)
H12 H 0.4070 0.3792 0.1138
C15 C 0.46543(17) 0.4429(3) 0.2409(2)
C16 C 0.45844(19) 0.4817(4) 0.3048(2)
H13 H 0.4978 0.5064 0.3609
C17 C 0.39325(18) 0.4836(4) 0.2849(2)
H14 H 0.3897 0.5097 0.3287
Co1C Co 0.26518(2) 0.96737(4) 0.32617(3)
Co1A Co 0.76518(2) 0.46737(4) 0.32617(3)
Co1B Co 0.73482(2) 0.96737(4) 0.17383(3)
N1A N 0.79995(13) 0.6110(3) 0.43359(17)
N2A N 0.86715(17) 0.8154(3) 0.5600(2)
N3A N 0.86899(14) 0.4591(3) 0.36333(17)
N4A N 1.00262(16) 0.4024(3) 0.4175(2)
N5A N 0.66537(14) 0.4494(3) 0.29478(18)
O1A O 0.74736(12) 0.6580(2) 0.26705(14)
O2C O 0.27029(12) 0.3798(2) 0.29318(14)
O2B O 0.72971(12) 0.3798(2) 0.20682(14)
O2A O 0.77029(12) 0.8798(2) 0.29318(14)
O3A O 0.80827(12) 0.3075(2) 0.41300(14)
O4A O 0.89271(13) 0.1501(2) 0.47148(17)
C1A C 0.80564(16) 0.7374(3) 0.4124(2)
C2A C 0.8397(2) 0.8370(3) 0.4754(2)
H1A H 0.8439 0.9227 0.4588
C3A C 0.85825(18) 0.6920(4) 0.5801(2)
C4A C 0.82559(17) 0.5901(3) 0.5169(2)
H2A H 0.8215 0.5043 0.5335
C5A C 0.77178(16) 0.7599(3) 0.3165(2)
C6A C 0.8869(2) 0.6684(4) 0.6737(2)
H3A H 0.9357 0.6915 0.7123
H4A H 0.8812 0.5746 0.6815
H5A H 0.8620 0.7240 0.6873
C7A C 0.90267(17) 0.3464(3) 0.4096(2)
C8A C 0.96867(19) 0.3183(4) 0.4353(2)
H6A H 0.9906 0.2384 0.4661
C9A C 0.96854(19) 0.5142(4) 0.3722(2)
C10A C 0.90155(18) 0.5406(3) 0.3447(2)
H7A H 0.8787 0.6187 0.3119
C11A C 0.86556(18) 0.2576(3) 0.4336(2)
C12A C 1.0042(2) 0.6114(4) 0.3513(3)
H8A H 1.0185 0.6907 0.3877
H9A H 0.9724 0.6371 0.2902
H10A H 1.0447 0.5686 0.3626
C13A C 0.65822(18) 0.4092(3) 0.3558(2)
H11A H 0.6982 0.3822 0.4108
C14A C 0.59513(18) 0.4059(3) 0.3413(2)
H12A H 0.5930 0.3792 0.3862
C15A C 0.53457(17) 0.4429(3) 0.2591(2)
C16A C 0.54156(19) 0.4817(4) 0.1952(2)
H13A H 0.5022 0.5064 0.1391
C17A C 0.60675(18) 0.4836(4) 0.2151(2)
H14A H 0.6103 0.5097 0.1713
O5 O 0.28137(19) 0.0863(4) 0.1282(3)
H15 H 0.254(3) 0.158(4) 0.107(4)
H16 H 0.276(4) 0.044(7) 0.164(4)
loop_
_geom_bond_atom_site_label_1
_geom_bond_atom_site_label_2
_geom_bond_site_symmetry_1
_geom_bond_site_symmetry_2
Co1 N1 1_555 1_555
N1 C1 1_555 1_555
N2 C2 1_555 1_555
N3 Co1 1_555 1_555
N4 C8 1_555 1_555
N5 Co1 1_555 1_555
O1 Co1 1_555 1_555
O2 C5 1_555 1_555
O3 Co1 1_555 1_555
O4 C11 1_555 1_555
O5 H15 1_555 1_555
C1 C2 1_555 1_555
C2 H1 1_555 1_555
C3 N2 1_555 1_555
C4 N1 1_555 1_555
H2 C4 1_555 1_555
C5 O1 1_555 1_555
C6 C3 1_555 1_555
H3 C6 1_555 1_555
H4 C6 1_555 1_555
H5 C6 1_555 1_555
C7 N3 1_555 1_555
C8 C7 1_555 1_555
H6 C8 1_555 1_555
C9 N4 1_555 1_555
C10 N3 1_555 1_555
H7 C10 1_555 1_555
C11 O3 1_555 1_555
C12 C9 1_555 1_555
H8 C12 1_555 1_555
H9 C12 1_555 1_555
H10 C12 1_555 1_555
C13 N5 1_555 1_555
H11 C13 1_555 1_555
C14 C13 1_555 1_555
H12 C14 1_555 1_555
C15 C14 1_555 1_555
C16 C15 1_555 1_555
H13 C16 1_555 1_555
C17 N5 1_555 1_555
H14 C17 1_555 1_555
H16 O5 1_555 1_555
Co1C O2 1_555 1_555
Co1A N1A 1_555 1_555
Co1B O2A 1_555 1_555
N1A C1A 1_555 1_555
N2A C2A 1_555 1_555
N3A Co1A 1_555 1_555
N4A C8A 1_555 1_555
N5A Co1A 1_555 1_555
O1A Co1A 1_555 1_555
O2C Co1 1_555 1_555
O2B Co1A 1_555 1_555
O2A C5A 1_555 1_555
O3A Co1A 1_555 1_555
O4A C11A 1_555 1_555
C1A C2A 1_555 1_555
C2A H1A 1_555 1_555
C3A N2A 1_555 1_555
C4A N1A 1_555 1_555
H2A C4A 1_555 1_555
C5A O1A 1_555 1_555
C6A C3A 1_555 1_555
H3A C6A 1_555 1_555
H4A C6A 1_555 1_555
H5A C6A 1_555 1_555
C7A N3A 1_555 1_555
C8A C7A 1_555 1_555
H6A C8A 1_555 1_555
C9A N4A 1_555 1_555
C10A N3A 1_555 1_555
H7A C10A 1_555 1_555
C11A O3A 1_555 1_555
C12A C9A 1_555 1_555
H8A C12A 1_555 1_555
H9A C12A 1_555 1_555
H10A C12A 1_555 1_555
C13A N5A 1_555 1_555
H11A C13A 1_555 1_555
C14A C13A 1_555 1_555
H12A C14A 1_555 1_555
C15A C15 1_555 1_555
C16A C15A 1_555 1_555
H13A C16A 1_555 1_555
C17A N5A 1_555 1_555
H14A C17A 1_555 1_555
C1 C5 1_555 1_555
C3 C4 1_555 1_555
C7 C11 1_555 1_555
C9 C10 1_555 1_555
C16 C17 1_555 1_555
C1A C5A 1_555 1_555
C3A C4A 1_555 1_555
C7A C11A 1_555 1_555
C9A C10A 1_555 1_555
C14A C15A 1_555 1_555
C16A C17A 1_555 1_555

#END
