
#######################################################################
#
#                 Cambridge Crystallographic Data Centre
#                                CCDC 
#
#######################################################################
#
# If this CIF has been generated from an entry in the Cambridge 
# Structural Database, then it will include bibliographic, chemical, 
# crystal, experimental, refinement or atomic coordinate data resulting 
# from the CCDC's data processing and validation procedures.
#
#######################################################################

data_WUYFAX
_symmetry_cell_setting           monoclinic
_symmetry_space_group_name_H-M   'C 2/c'
_symmetry_Int_Tables_number      15
_space_group_name_Hall           '-C 2yn'
loop_
_symmetry_equiv_pos_site_id
_symmetry_equiv_pos_as_xyz
1 x,y,z
2 x,-y,1/2+z
3 1/2+x,1/2+y,z
4 1/2+x,1/2-y,1/2+z
5 -x,-y,-z
6 -x,y,1/2-z
7 1/2-x,1/2-y,-z
8 1/2-x,1/2+y,1/2-z
_cell_length_a                   21.233(2)
_cell_length_b                   10.647(4)
_cell_length_c                   12.212(2)
_cell_angle_alpha                90
_cell_angle_beta                 102.240(9)
_cell_angle_gamma                90
_cell_volume                     2697.98
loop_
_atom_site_label
_atom_site_type_symbol
_atom_site_fract_x
_atom_site_fract_y
_atom_site_fract_z
Ag1 Ag 0.03951(2) 0.96928(4) 0.15290(3)
S1 S 0.06325(7) 0.7203(1) 0.0700(1)
F1 F 0.2214(2) 0.9606(9) 0.4582(6)
F2 F 0.1742(2) 0.9736(7) 0.5901(5)
F3 F 0.1838(3) 0.8057(6) 0.5183(7)
O1 O 0.1098(2) 0.9125(5) 0.3122(3)
O2 O 0.0634(2) 0.9765(4) 0.4498(3)
N1 N 0.0674(3) 0.1908(4) 0.1855(4)
C1 C 0.0146(2) 0.6105(4) 0.1140(3)
C2 C 0.0524(2) 0.5203(4) 0.1773(3)
C3 C 0.1207(2) 0.5419(4) 0.1906(4)
C4 C 0.1336(3) 0.6479(5) 0.1392(5)
C5 C 0.0245(2) 0.4105(4) 0.2225(3)
C6 C 0.0496(2) 0.2887(4) 0.2018(4)
C7 C -0.0564(3) 0.6219(5) 0.0805(4)
C8 C 0.1716(3) 0.4581(8) 0.2575(8)
C9 C 0.1980(5) 0.7067(10) 0.140(1)
C10 C 0.1081(3) 0.9408(4) 0.4087(4)
C11 C 0.1732(3) 0.9232(7) 0.4901(6)
H1 H -0.070(2) 0.671(5) 0.016(4)
H2 H -0.076(3) 0.681(6) 0.135(5)
H3 H -0.072(3) 0.558(6) 0.071(5)
H4 H 0.213(4) 0.473(6) 0.240(6)
H5 H 0.170(4) 0.379(10) 0.210(7)
H6 H 0.161(3) 0.421(7) 0.312(6)
H7 H 0.198(4) 0.775(9) 0.166(8)
H8 H 0.207(5) 0.71(1) 0.079(8)
H9 H 0.230(5) 0.64(1) 0.136(10)
C5E C -0.0245(2) 0.4105(4) 0.2775(3)
C2E C -0.0524(2) 0.5203(4) 0.3227(3)
C1E C -0.0146(2) 0.6105(4) 0.3860(3)
S1E S -0.06325(7) 0.7203(1) 0.4300(1)
C4E C -0.1336(3) 0.6479(5) 0.3608(5)
C3E C -0.1207(2) 0.5419(4) 0.3094(4)
C8E C -0.1716(3) 0.4581(8) 0.2425(8)
H4E H -0.213(4) 0.473(6) 0.260(6)
H5E H -0.170(4) 0.379(10) 0.290(7)
H6E H -0.161(3) 0.421(7) 0.188(6)
C9E C -0.1980(5) 0.7067(10) 0.360(1)
H7E H -0.198(4) 0.775(9) 0.334(8)
H8E H -0.207(5) 0.71(1) 0.421(8)
H9E H -0.230(5) 0.64(1) 0.364(10)
C7E C 0.0564(3) 0.6219(5) 0.4195(4)
H1E H 0.070(2) 0.671(5) 0.484(4)
H2E H 0.076(3) 0.681(6) 0.365(5)
H3E H 0.072(3) 0.558(6) 0.429(5)
C6E C -0.0496(2) 0.2887(4) 0.2982(4)
N1E N -0.0674(3) 0.1908(4) 0.3145(4)
F1E F -0.2214(2) 0.9606(9) 0.0418(6)
F2E F -0.1742(2) 0.9736(7) -0.0901(5)
F3E F -0.1838(3) 0.8057(6) -0.0183(7)
O1E O -0.1098(2) 0.9125(5) 0.1878(3)
O2E O -0.0634(2) 0.9765(4) 0.0502(3)
C10E C -0.1081(3) 0.9408(4) 0.0913(4)
C11E C -0.1732(3) 0.9232(7) 0.0099(6)
Ag1E Ag -0.03951(2) 0.96928(4) 0.34710(3)
N1_2 N 0.0674(3) 1.1908(4) 0.1855(4)
Ag1_2 Ag 0.03951(2) -0.03072(4) 0.15290(3)
Ag1E_2 Ag -0.03951(2) -0.03072(4) 0.34710(3)
N1E_2 N -0.0674(3) 1.1908(4) 0.3145(4)
loop_
_geom_bond_atom_site_label_1
_geom_bond_atom_site_label_2
_geom_bond_site_symmetry_1
_geom_bond_site_symmetry_2
Ag1 S1 1_555 1_555
S1 C1 1_555 1_555
F1 C11 1_555 1_555
F2 C11 1_555 1_555
F3 C11 1_555 1_555
O1 Ag1 1_555 1_555
O2 C10 1_555 1_555
N1 C6 1_555 1_555
C1 C2 1_555 1_555
C2 C3 1_555 1_555
C3 C4 1_555 1_555
C4 S1 1_555 1_555
C5 C2 1_555 1_555
C6 C5 1_555 1_555
C7 C1 1_555 1_555
C8 C3 1_555 1_555
C9 C4 1_555 1_555
C10 O1 1_555 1_555
C11 C10 1_555 1_555
H1 C7 1_555 1_555
H2 C7 1_555 1_555
H3 C7 1_555 1_555
H4 C8 1_555 1_555
H5 C8 1_555 1_555
H6 C8 1_555 1_555
H7 C9 1_555 1_555
H8 C9 1_555 1_555
H9 C9 1_555 1_555
C5E C5 1_555 1_555
C2E C5E 1_555 1_555
C1E C2E 1_555 1_555
S1E C1E 1_555 1_555
C4E S1E 1_555 1_555
C3E C2E 1_555 1_555
C8E C3E 1_555 1_555
H4E C8E 1_555 1_555
H5E C8E 1_555 1_555
H6E C8E 1_555 1_555
C9E C4E 1_555 1_555
H7E C9E 1_555 1_555
H8E C9E 1_555 1_555
H9E C9E 1_555 1_555
C7E C1E 1_555 1_555
H1E C7E 1_555 1_555
H2E C7E 1_555 1_555
H3E C7E 1_555 1_555
C6E C5E 1_555 1_555
N1E C6E 1_555 1_555
F1E C11E 1_555 1_555
F2E C11E 1_555 1_555
F3E C11E 1_555 1_555
O1E C10E 1_555 1_555
O2E Ag1 1_555 1_555
C10E O2E 1_555 1_555
C11E C10E 1_555 1_555
Ag1E O2 1_555 1_555
N1_2 Ag1 1_555 1_555
Ag1_2 N1 1_555 1_555
Ag1E_2 N1E 1_555 1_555
N1E_2 Ag1E 1_555 1_555
S1E Ag1E 1_555 1_555
C4E C3E 1_555 1_555
O1E Ag1E 1_555 1_555

#END
