
#######################################################################
#
#                 Cambridge Crystallographic Data Centre
#                                CCDC 
#
#######################################################################
#
# If this CIF has been generated from an entry in the Cambridge 
# Structural Database, then it will include bibliographic, chemical, 
# crystal, experimental, refinement or atomic coordinate data resulting 
# from the CCDC's data processing and validation procedures.
#
#######################################################################

data_WUYGON
_symmetry_cell_setting           triclinic
_symmetry_space_group_name_H-M   'P -1'
_symmetry_Int_Tables_number      2
_space_group_name_Hall           '-P 1'
loop_
_symmetry_equiv_pos_site_id
_symmetry_equiv_pos_as_xyz
1 x,y,z
2 -x,-y,-z
_cell_length_a                   5.0281(10)
_cell_length_b                   8.8165(17)
_cell_length_c                   12.780(3)
_cell_angle_alpha                102.241(4)
_cell_angle_beta                 99.953(4)
_cell_angle_gamma                105.858(4)
_cell_volume                     516.291
loop_
_atom_site_label
_atom_site_type_symbol
_atom_site_fract_x
_atom_site_fract_y
_atom_site_fract_z
Cu1 Cu 1.0000 0.5000 0.0000
N1 N 0.9526(11) 0.6544(6) 0.1332(4)
C1 C 1.1468(12) 0.8029(7) 0.1806(5)
H1 H 1.2912 0.8390 0.1462
C2 C 1.1426(14) 0.9034(8) 0.2767(5)
H2 H 1.2817 1.0057 0.3065
C3 C 0.9309(13) 0.8530(7) 0.3298(5)
H3 H 0.9250 0.9202 0.3955
C4 C 0.7286(13) 0.7004(7) 0.2829(5)
C5 C 0.7464(13) 0.6058(7) 0.1843(5)
H4 H 0.6084 0.5036 0.1522
N2 N 0.5050(11) 0.6292(6) 0.3293(4)
H5 H 0.3870 0.5348 0.2913
C6 C 0.4593(12) 0.6955(7) 0.4278(5)
O1 O 0.6023(9) 0.8326(5) 0.4877(3)
C7 C 0.2188(12) 0.5905(7) 0.4615(5)
C8 C 0.1138(13) 0.6665(8) 0.5423(5)
H6 H 0.1905 0.7796 0.5717
C9 C 0.1027(13) 0.4202(7) 0.4189(5)
H7 H 0.1711 0.3654 0.3645
O2 O 0.7584(9) 0.3137(5) 0.0322(3)
C10 C 0.8915(13) 0.2717(8) 0.1110(5)
O3 O 1.1462(9) 0.3408(5) 0.1569(4)
C11 C 0.7149(15) 0.1320(8) 0.1444(5)
H8 H 0.6885 0.0306 0.0915
H9 H 0.5325 0.1450 0.1471
H10 H 0.8104 0.1310 0.2160
Cu1_2 Cu -1.0000 0.5000 1.0000
N1A N -0.9526(11) 0.3456(6) 0.8668(4)
N1A_2 N 1.0474(11) 0.3456(6) -0.1332(4)
C1A C -1.1468(12) 0.1971(7) 0.8194(5)
H1A H -1.2912 0.1610 0.8538
C2A C -1.1426(14) 0.0966(8) 0.7233(5)
H2A H -1.2817 -0.0057 0.6935
C3A C -0.9309(13) 0.1470(7) 0.6702(5)
H3A H -0.9250 0.0798 0.6045
C4A C -0.7286(13) 0.2996(7) 0.7171(5)
C5A C -0.7464(13) 0.3942(7) 0.8157(5)
H4A H -0.6084 0.4964 0.8478
N2A N -0.5050(11) 0.3708(6) 0.6707(4)
H5A H -0.3870 0.4652 0.7087
C6A C -0.4593(12) 0.3045(7) 0.5722(5)
O1A O -0.6023(9) 0.1674(5) 0.5123(3)
C7A C -0.2188(12) 0.4095(7) 0.5385(5)
C8A C -0.1138(13) 0.3335(8) 0.4577(5)
H6A H -0.1905 0.2204 0.4283
C9A C -0.1027(13) 0.5798(7) 0.5811(5)
H7A H -0.1711 0.6346 0.6355
O2A O 1.2416(9) 0.6863(5) -0.0322(3)
C10A C 1.1085(13) 0.7283(8) -0.1110(5)
O3A O 0.8538(9) 0.6592(5) -0.1569(4)
C11A C 1.2851(15) 0.8680(8) -0.1444(5)
H8A H 1.3115 0.9694 -0.0915
H9A H 1.4675 0.8550 -0.1471
H10A H 1.1896 0.8690 -0.2160
loop_
_geom_bond_atom_site_label_1
_geom_bond_atom_site_label_2
_geom_bond_site_symmetry_1
_geom_bond_site_symmetry_2
Cu1 N1 1_555 1_555
N1 C1 1_555 1_555
C1 H1 1_555 1_555
C2 C1 1_555 1_555
H2 C2 1_555 1_555
C3 C2 1_555 1_555
H3 C3 1_555 1_555
C4 C3 1_555 1_555
C5 N1 1_555 1_555
H4 C5 1_555 1_555
N2 C4 1_555 1_555
H5 N2 1_555 1_555
C6 N2 1_555 1_555
O1 C6 1_555 1_555
C7 C6 1_555 1_555
C8 C7 1_555 1_555
H6 C8 1_555 1_555
C9 C7 1_555 1_555
H7 C9 1_555 1_555
O2 Cu1 1_555 1_555
C10 O2 1_555 1_555
O3 Cu1 1_555 1_555
C11 C10 1_555 1_555
H8 C11 1_555 1_555
H9 C11 1_555 1_555
H10 C11 1_555 1_555
Cu1_2 N1A 1_555 1_555
N1A C1A 1_555 1_555
N1A_2 Cu1 1_555 1_555
C1A H1A 1_555 1_555
C2A C1A 1_555 1_555
H2A C2A 1_555 1_555
C3A C2A 1_555 1_555
H3A C3A 1_555 1_555
C4A C3A 1_555 1_555
C5A N1A 1_555 1_555
H4A C5A 1_555 1_555
N2A C4A 1_555 1_555
H5A N2A 1_555 1_555
C6A N2A 1_555 1_555
O1A C6A 1_555 1_555
C7A C6A 1_555 1_555
C8A C9 1_555 1_555
H6A C8A 1_555 1_555
C9A C8 1_555 1_555
H7A C9A 1_555 1_555
O2A Cu1 1_555 1_555
C10A O2A 1_555 1_555
O3A Cu1 1_555 1_555
C11A C10A 1_555 1_555
H8A C11A 1_555 1_555
H9A C11A 1_555 1_555
H10A C11A 1_555 1_555
C4 C5 1_555 1_555
C10 O3 1_555 1_555
C4A C5A 1_555 1_555
C7A C8A 1_555 1_555
C7A C9A 1_555 1_555
C10A O3A 1_555 1_555

#END
