
#######################################################################
#
#                 Cambridge Crystallographic Data Centre
#                                CCDC 
#
#######################################################################
#
# If this CIF has been generated from an entry in the Cambridge 
# Structural Database, then it will include bibliographic, chemical, 
# crystal, experimental, refinement or atomic coordinate data resulting 
# from the CCDC's data processing and validation procedures.
#
#######################################################################

data_WUYGUT
_symmetry_cell_setting           monoclinic
_symmetry_space_group_name_H-M   'C 2/c'
_symmetry_Int_Tables_number      15
_space_group_name_Hall           '-C 2yn'
loop_
_symmetry_equiv_pos_site_id
_symmetry_equiv_pos_as_xyz
1 x,y,z
2 -x,y,1/2-z
3 1/2+x,1/2+y,z
4 1/2-x,1/2+y,1/2-z
5 -x,-y,-z
6 x,-y,1/2+z
7 1/2-x,1/2-y,-z
8 1/2+x,1/2-y,1/2+z
_cell_length_a                   22.086(3)
_cell_length_b                   8.2577(11)
_cell_length_c                   19.413(2)
_cell_angle_alpha                90
_cell_angle_beta                 98.078(2)
_cell_angle_gamma                90
_cell_volume                     3505.4
loop_
_atom_site_label
_atom_site_type_symbol
_atom_site_fract_x
_atom_site_fract_y
_atom_site_fract_z
O1 O 0.9436(2) 0.1599(6) 0.3138(2)
N5 N 0.9226(2) 0.0389(5) 0.3400(2)
O4 O 0.94220(19) 0.0021(5) 0.4024(2)
O5 O 0.88371(19) -0.0467(5) 0.3050(2)
Cu1 Cu 1.0000 -0.5000 0.0000
N1 N 0.96624(18) -0.4257(5) 0.0881(2)
C1 C 0.9470(2) -0.2736(6) 0.0957(2)
H1 H 0.9540 -0.1965 0.0628
C2 C 0.9170(2) -0.2266(6) 0.1509(3)
C3 C 0.9123(2) -0.3369(7) 0.2035(3)
H2 H 0.8942 -0.3080 0.2422
C4 C 0.9349(2) -0.4890(7) 0.1973(3)
H3 H 0.9334 -0.5635 0.2330
C5 C 0.9598(2) -0.5338(6) 0.1391(3)
H4 H 0.9725 -0.6403 0.1347
N2 N 0.89330(19) -0.0664(5) 0.1535(2)
H5 H 0.8981 -0.0172 0.1930
C6 C 0.8639(2) 0.0125(7) 0.0979(3)
O2 O 0.86008(18) -0.0420(5) 0.03842(19)
C7 C 0.8352(2) 0.1718(6) 0.1109(3)
C8 C 0.8197(2) 0.2730(7) 0.0547(3)
H6 H 0.8290 0.2422 0.0113
C9 C 0.7904(2) 0.4206(7) 0.0615(3)
H7 H 0.7793 0.4867 0.0230
C10 C 0.7781(2) 0.4671(6) 0.1275(3)
C11 C 0.7946(2) 0.3659(6) 0.1842(3)
H8 H 0.7864 0.3975 0.2279
C12 C 0.8226(2) 0.2199(6) 0.1766(3)
H9 H 0.8333 0.1531 0.2150
C13 C 0.7502(2) 0.6267(6) 0.1412(3)
O3 O 0.76452(17) 0.6974(4) 0.19614(18)
N3 N 0.70799(18) 0.6874(5) 0.0893(2)
H10 H 0.7004 0.6328 0.0513
C14 C 0.6761(2) 0.8349(6) 0.0942(2)
C15 C 0.6175(2) 0.8478(6) 0.0584(2)
H11 H 0.6012 0.7587 0.0330
N4 N 0.58352(19) 0.9798(5) 0.0581(2)
C16 C 0.6070(2) 1.1081(6) 0.0966(2)
H12 H 0.5834 1.2011 0.0978
C17 C 0.6648(2) 1.1041(6) 0.1341(3)
H13 H 0.6798 1.1936 0.1602
C18 C 0.7006(2) 0.9662(6) 0.1328(3)
H14 H 0.7400 0.9623 0.1571
O6 O 0.9758(2) -0.7864(5) 0.0262(2)
H15 H 0.996(3) -0.839(7) 0.054(3)
H16 H 0.951(3) -0.837(7) -0.003(3)
Cu1B Cu 0.5000 1.0000 0.0000
Cu1B_2 Cu 1.5000 -2.0000 0.0000
N1D N 1.03376(18) -0.5743(5) -0.0881(2)
C1D C 1.0530(2) -0.7264(6) -0.0957(2)
H1D H 1.0460 -0.8035 -0.0628
C2D C 1.0830(2) -0.7734(6) -0.1509(3)
C3D C 1.0877(2) -0.6631(7) -0.2035(3)
H2D H 1.1058 -0.6920 -0.2422
C4D C 1.0651(2) -0.5110(7) -0.1973(3)
H3D H 1.0666 -0.4365 -0.2330
C5D C 1.0402(2) -0.4662(6) -0.1391(3)
H4D H 1.0275 -0.3597 -0.1347
N2D N 1.10670(19) -0.9336(5) -0.1535(2)
H5D H 1.1019 -0.9828 -0.1930
C6D C 1.1361(2) -1.0125(7) -0.0979(3)
O2D O 1.13992(18) -0.9580(5) -0.03842(19)
C7D C 1.1648(2) -1.1718(6) -0.1109(3)
C8D C 1.1803(2) -1.2730(7) -0.0547(3)
H6D H 1.1710 -1.2422 -0.0113
C9D C 1.2096(2) -1.4206(7) -0.0615(3)
H7D H 1.2207 -1.4867 -0.0230
C10D C 1.2219(2) -1.4671(6) -0.1275(3)
C11D C 1.2054(2) -1.3659(6) -0.1842(3)
H8D H 1.2136 -1.3975 -0.2279
C12D C 1.1774(2) -1.2199(6) -0.1766(3)
H9D H 1.1667 -1.1531 -0.2150
C13D C 1.2498(2) -1.6267(6) -0.1412(3)
O3D O 1.23548(17) -1.6974(4) -0.19614(18)
N3D N 1.29201(18) -1.6874(5) -0.0893(2)
H10D H 1.2996 -1.6328 -0.0513
C14D C 1.3239(2) -1.8349(6) -0.0942(2)
C15D C 1.3825(2) -1.8478(6) -0.0584(2)
H11D H 1.3988 -1.7587 -0.0330
N4D N 1.41648(19) -1.9798(5) -0.0581(2)
N4B N 1.08352(19) -0.5202(5) 0.0581(2)
N4F N 0.91648(19) -0.4798(5) -0.0581(2)
C16D C 1.3930(2) -2.1081(6) -0.0966(2)
H12D H 1.4166 -2.2011 -0.0978
C17D C 1.3352(2) -2.1041(6) -0.1341(3)
H13D H 1.3202 -2.1936 -0.1602
C18D C 1.2994(2) -1.9662(6) -0.1328(3)
H14D H 1.2600 -1.9623 -0.1571
O6D O 1.0242(2) -0.2136(5) -0.0262(2)
H15D H 1.004(3) -0.161(7) -0.054(3)
H16D H 1.049(3) -0.163(7) 0.003(3)
loop_
_geom_bond_atom_site_label_1
_geom_bond_atom_site_label_2
_geom_bond_site_symmetry_1
_geom_bond_site_symmetry_2
O1 N5 1_555 1_555
Cu1 N1 1_555 1_555
N1 C1 1_555 1_555
C1 H1 1_555 1_555
C2 C1 1_555 1_555
C3 C2 1_555 1_555
H2 C3 1_555 1_555
C4 C3 1_555 1_555
H3 C4 1_555 1_555
C5 N1 1_555 1_555
H4 C5 1_555 1_555
N2 C2 1_555 1_555
H5 N2 1_555 1_555
C6 N2 1_555 1_555
O2 C6 1_555 1_555
C7 C6 1_555 1_555
C8 C7 1_555 1_555
H6 C8 1_555 1_555
C9 C8 1_555 1_555
H7 C9 1_555 1_555
C10 C9 1_555 1_555
C11 C10 1_555 1_555
H8 C11 1_555 1_555
C12 C7 1_555 1_555
H9 C12 1_555 1_555
C13 C10 1_555 1_555
O3 C13 1_555 1_555
N3 C13 1_555 1_555
H10 N3 1_555 1_555
C14 N3 1_555 1_555
C15 C14 1_555 1_555
H11 C15 1_555 1_555
N4 C15 1_555 1_555
C16 N4 1_555 1_555
H12 C16 1_555 1_555
C17 C16 1_555 1_555
H13 C17 1_555 1_555
C18 C14 1_555 1_555
H14 C18 1_555 1_555
N5 O4 1_555 1_555
O5 N5 1_555 1_555
O6 Cu1 1_555 1_555
H15 O6 1_555 1_555
H16 O6 1_555 1_555
Cu1B N4 1_555 1_555
Cu1B_2 N4D 1_555 1_555
N1D Cu1 1_555 1_555
C1D N1D 1_555 1_555
H1D C1D 1_555 1_555
C2D C1D 1_555 1_555
C3D C2D 1_555 1_555
H2D C3D 1_555 1_555
C4D C3D 1_555 1_555
H3D C4D 1_555 1_555
C5D N1D 1_555 1_555
H4D C5D 1_555 1_555
N2D C2D 1_555 1_555
H5D N2D 1_555 1_555
C6D N2D 1_555 1_555
O2D C6D 1_555 1_555
C7D C6D 1_555 1_555
C8D C7D 1_555 1_555
H6D C8D 1_555 1_555
C9D C8D 1_555 1_555
H7D C9D 1_555 1_555
C10D C9D 1_555 1_555
C11D C10D 1_555 1_555
H8D C11D 1_555 1_555
C12D C7D 1_555 1_555
H9D C12D 1_555 1_555
C13D C10D 1_555 1_555
O3D C13D 1_555 1_555
N3D C13D 1_555 1_555
H10D N3D 1_555 1_555
C14D N3D 1_555 1_555
C15D C14D 1_555 1_555
H11D C15D 1_555 1_555
N4D C15D 1_555 1_555
N4B Cu1 1_555 1_555
N4F Cu1 1_555 1_555
C16D N4D 1_555 1_555
H12D C16D 1_555 1_555
C17D C16D 1_555 1_555
H13D C17D 1_555 1_555
C18D C14D 1_555 1_555
H14D C18D 1_555 1_555
O6D Cu1 1_555 1_555
H15D O6D 1_555 1_555
H16D O6D 1_555 1_555
C4 C5 1_555 1_555
C11 C12 1_555 1_555
C17 C18 1_555 1_555
C4D C5D 1_555 1_555
C11D C12D 1_555 1_555
C17D C18D 1_555 1_555

#END
