
#######################################################################
#
#                 Cambridge Crystallographic Data Centre
#                                CCDC 
#
#######################################################################
#
# If this CIF has been generated from an entry in the Cambridge 
# Structural Database, then it will include bibliographic, chemical, 
# crystal, experimental, refinement or atomic coordinate data resulting 
# from the CCDC's data processing and validation procedures.
#
#######################################################################

data_WUYHII
_symmetry_cell_setting           tetragonal
_symmetry_space_group_name_H-M   'P 4/n c c'
_symmetry_Int_Tables_number      130
_space_group_name_Hall           '-P 4a 2ac'
loop_
_symmetry_equiv_pos_site_id
_symmetry_equiv_pos_as_xyz
1 x,y,z
2 1/2-x,1/2-y,z
3 1/2-y,x,z
4 y,1/2-x,z
5 -x,1/2+y,1/2-z
6 1/2+x,-y,1/2-z
7 1/2+y,1/2+x,1/2-z
8 -y,-x,1/2-z
9 -x,-y,-z
10 1/2+x,1/2+y,-z
11 1/2+y,-x,-z
12 -y,1/2+x,-z
13 x,1/2-y,1/2+z
14 1/2-x,y,1/2+z
15 1/2-y,1/2-x,1/2+z
16 y,x,1/2+z
_cell_length_a                   15.828(4)
_cell_length_b                   15.828(4)
_cell_length_c                   16.261(7)
_cell_angle_alpha                90
_cell_angle_beta                 90
_cell_angle_gamma                90
_cell_volume                     4073.8
loop_
_atom_site_label
_atom_site_type_symbol
_atom_site_fract_x
_atom_site_fract_y
_atom_site_fract_z
O4 O 0.6788(11) 0.9664(11) 0.3923(10)
Cu1 Cu 0.2500 0.2500 0.3590(3)
S1 S 0.2500 0.2500 0.1406(11)
N1 N 0.3664(9) 0.2018(8) 0.3713(8)
C1 C 0.4124(12) 0.1829(12) 0.3065(12)
C2 C 0.4964(18) 0.1483(18) 0.3132(17)
C3 C 0.5298(14) 0.1335(14) 0.3924(14)
C4 C 0.4809(12) 0.1554(12) 0.4573(11)
C5 C 0.3998(11) 0.1898(11) 0.4476(11)
N2 N 0.5037(11) 0.1475(11) 0.5436(11)
C6 C 0.5634(12) 0.0892(13) 0.5728(12)
O1 O 0.6042(9) 0.0420(9) 0.5300(9)
C7 C 0.5707(13) 0.0842(13) 0.6646(13)
C8 C 0.6276(17) 0.0307(17) 0.7000(16)
C9 C 0.5223(16) 0.1372(16) 0.7136(15)
O2 O 0.2500 0.2500 0.233(2)
O3 O 0.2999(19) 0.1563(19) 0.1339(16)
Cu1D Cu -0.2500 -0.2500 1.1410(3)
Cu1D_2 Cu 0.7500 -0.2500 1.1410(3)
N1F N 0.7018(8) -0.1336(9) 1.1287(8)
N1C N 0.2018(8) 0.1336(9) 0.3713(8)
N1E N -0.1336(9) -0.2018(8) 1.1287(8)
N1B N 0.2982(8) 0.3664(9) 0.3713(8)
N1A N 0.1336(9) 0.2982(8) 0.3713(8)
C1F C 0.6829(12) -0.0876(12) 1.1935(12)
C1C C 0.1829(12) 0.0876(12) 0.3065(12)
C1E C -0.0876(12) -0.1829(12) 1.1935(12)
C2F C 0.6483(18) -0.0036(18) 1.1868(17)
C2C C 0.1483(18) 0.0036(18) 0.3132(17)
C2E C -0.0036(18) -0.1483(18) 1.1868(17)
C3F C 0.6335(14) 0.0298(14) 1.1076(14)
C3C C 0.1335(14) -0.0298(14) 0.3924(14)
C3E C 0.0298(14) -0.1335(14) 1.1076(14)
C4F C 0.6554(12) -0.0191(12) 1.0427(11)
C4C C 0.1554(12) 0.0191(12) 0.4573(11)
C4E C -0.0191(12) -0.1554(12) 1.0427(11)
C5F C 0.6898(11) -0.1002(11) 1.0524(11)
C5C C 0.1898(11) 0.1002(11) 0.4476(11)
C5E C -0.1002(11) -0.1898(11) 1.0524(11)
N2F N 0.6475(11) 0.0037(11) 0.9564(11)
N2C N 0.1475(11) -0.0037(11) 0.5436(11)
N2E N 0.0037(11) -0.1475(11) 0.9564(11)
C6F C 0.5892(13) 0.0634(12) 0.9272(12)
C6C C 0.0892(13) -0.0634(12) 0.5728(12)
C6E C 0.0634(12) -0.0892(13) 0.9272(12)
O1F O 0.5420(9) 0.1042(9) 0.9700(9)
O1C O 0.0420(9) -0.1042(9) 0.5300(9)
O1E O 0.1042(9) -0.0420(9) 0.9700(9)
C7F C 0.5842(13) 0.0707(13) 0.8354(13)
C7C C 0.0842(13) -0.0707(13) 0.6646(13)
C7E C 0.0707(13) -0.0842(13) 0.8354(13)
C8F C 0.5307(17) 0.1276(17) 0.8000(16)
C8C C 0.0307(17) -0.1276(17) 0.7000(16)
C8E C 0.1276(17) -0.0307(17) 0.8000(16)
C9F C 0.6372(16) 0.0223(16) 0.7864(15)
C9C C 0.1372(16) -0.0223(16) 0.7136(15)
C9E C 0.0223(16) -0.1372(16) 0.7864(15)
O3A O 0.2001(19) 0.3437(19) 0.1339(16)
O3B O 0.3437(19) 0.2999(19) 0.1339(16)
O3C O 0.1563(19) 0.2001(19) 0.1339(16)
loop_
_geom_bond_atom_site_label_1
_geom_bond_atom_site_label_2
_geom_bond_site_symmetry_1
_geom_bond_site_symmetry_2
Cu1 N1 1_555 1_555
S1 O2 1_555 1_555
N1 C1 1_555 1_555
C1 C2 1_555 1_555
C2 C3 1_555 1_555
C3 C4 1_555 1_555
C4 C5 1_555 1_555
C5 N1 1_555 1_555
N2 C4 1_555 1_555
C6 N2 1_555 1_555
O1 C6 1_555 1_555
C7 C6 1_555 1_555
C8 C7 1_555 1_555
C9 C7 1_555 1_555
O2 Cu1 1_555 1_555
O3 S1 1_555 1_555
Cu1D N1E 1_555 1_555
Cu1D_2 N1F 1_555 1_555
N1F C1F 1_555 1_555
N1C Cu1 1_555 1_555
N1E C1E 1_555 1_555
N1B Cu1 1_555 1_555
N1A Cu1 1_555 1_555
C1F C2F 1_555 1_555
C1C N1C 1_555 1_555
C1E C2E 1_555 1_555
C2F C3F 1_555 1_555
C2C C1C 1_555 1_555
C2E C3E 1_555 1_555
C3F C4F 1_555 1_555
C3C C2C 1_555 1_555
C3E C4E 1_555 1_555
C4F C5F 1_555 1_555
C4C C3C 1_555 1_555
C4E C5E 1_555 1_555
C5F N1F 1_555 1_555
C5C N1C 1_555 1_555
C5E N1E 1_555 1_555
N2F C4F 1_555 1_555
N2C C4C 1_555 1_555
N2E C4E 1_555 1_555
C6F N2F 1_555 1_555
C6C N2C 1_555 1_555
C6E N2E 1_555 1_555
O1F C6F 1_555 1_555
O1C C6C 1_555 1_555
O1E C6E 1_555 1_555
C7F C6F 1_555 1_555
C7C C6C 1_555 1_555
C7E C6E 1_555 1_555
C8F C9 1_555 1_555
C8C C7C 1_555 1_555
C8E C7E 1_555 1_555
C9F C8 1_555 1_555
C9C C7C 1_555 1_555
C9E C7E 1_555 1_555
O3A S1 1_555 1_555
O3B S1 1_555 1_555
O3C S1 1_555 1_555
C4C C5C 1_555 1_555
C7F C8F 1_555 1_555
C7F C9F 1_555 1_555
C8C C9E 1_555 1_555
C8E C9C 1_555 1_555

#END
