
#######################################################################
#
#                 Cambridge Crystallographic Data Centre
#                                CCDC 
#
#######################################################################
#
# If this CIF has been generated from an entry in the Cambridge 
# Structural Database, then it will include bibliographic, chemical, 
# crystal, experimental, refinement or atomic coordinate data resulting 
# from the CCDC's data processing and validation procedures.
#
#######################################################################

data_WUYJEF
_symmetry_cell_setting           monoclinic
_symmetry_space_group_name_H-M   'P 21/c'
_symmetry_Int_Tables_number      14
_space_group_name_Hall           '-P 2ybc'
loop_
_symmetry_equiv_pos_site_id
_symmetry_equiv_pos_as_xyz
1 x,y,z
2 x,1/2-y,1/2+z
3 -x,-y,-z
4 -x,1/2+y,1/2-z
_cell_length_a                   9.0029(16)
_cell_length_b                   11.805(2)
_cell_length_c                   22.969(4)
_cell_angle_alpha                90
_cell_angle_beta                 92.904(4)
_cell_angle_gamma                90
_cell_volume                     2437.99
loop_
_atom_site_label
_atom_site_type_symbol
_atom_site_fract_x
_atom_site_fract_y
_atom_site_fract_z
Zn1 Zn -0.14284(4) 0.25313(2) 0.583875(11)
Cl1 Cl 0.09447(8) 0.24397(5) 0.62217(3)
Cl2 Cl -0.31012(9) 0.30865(6) 0.65307(2)
O1 O -0.1768(2) 0.10285(14) 0.54629(6)
O2 O -0.3531(2) 0.16085(17) 0.48025(8)
O3 O -0.00401(17) 0.10295(14) 0.32364(6)
O4 O 0.54585(18) 0.30568(16) 0.30795(7)
O5 O 0.83594(18) 0.38371(13) 0.52958(6)
O6 O 0.9576(2) 0.29285(16) 0.46227(7)
N1 N -0.2953(2) -0.01208(15) 0.40698(7)
N2 N 0.87053(19) 0.43815(14) 0.37641(6)
C1 C -0.2583(3) 0.0940(2) 0.50024(10)
C2 C -0.2305(3) -0.01597(19) 0.46747(9)
H1 H -0.1242 -0.0290 0.4667
H2 H -0.2738 -0.0787 0.4880
C3 C -0.2197(2) 0.03553(17) 0.36343(9)
C4 C -0.2883(2) 0.04508(19) 0.30821(9)
H3 H -0.2378 0.0783 0.2783
C5 C -0.4298(3) 0.0057(2) 0.29773(11)
H4 H -0.4755 0.0114 0.2606
C6 C -0.5053(3) -0.0429(2) 0.34280(12)
H5 H -0.6015 -0.0701 0.3360
C7 C -0.4363(3) -0.0505(2) 0.39756(11)
H6 H -0.4864 -0.0819 0.4281
C8 C -0.0636(2) 0.0757(2) 0.37656(9)
H7 H -0.0635 0.1417 0.4017
H8 H -0.0051 0.0166 0.3961
C9 C 0.1365(2) 0.15191(18) 0.32474(9)
C10 C 0.2134(3) 0.1886(2) 0.37464(9)
H9 H 0.1730 0.1792 0.4108
C11 C 0.3502(3) 0.2391(2) 0.37070(10)
H10 H 0.4032 0.2619 0.4045
C12 C 0.4094(3) 0.25622(19) 0.31741(10)
C13 C 0.3305(3) 0.22044(19) 0.26665(10)
H11 H 0.3689 0.2323 0.2303
C14 C 0.1970(3) 0.16813(18) 0.27101(9)
H12 H 0.1454 0.1428 0.2374
C15 C 0.6253(2) 0.3505(2) 0.35783(9)
H13 H 0.6359 0.2937 0.3882
H14 H 0.5733 0.4153 0.3729
C16 C 0.7760(2) 0.38550(18) 0.33789(8)
C17 C 0.8215(3) 0.3604(2) 0.28285(9)
H15 H 0.7563 0.3246 0.2560
C18 C 0.9625(3) 0.3880(2) 0.26749(9)
H16 H 0.9934 0.3723 0.2303
C19 C 1.0600(3) 0.44118(19) 0.30954(9)
H17 H 1.1567 0.4597 0.3007
C20 C 1.0101(3) 0.46452(18) 0.36277(9)
H18 H 1.0734 0.4995 0.3905
C21 C 0.8291(3) 0.46318(18) 0.43657(8)
H19 H 0.7219 0.4710 0.4372
H20 H 0.8735 0.5345 0.4491
C22 C 0.8809(2) 0.36968(18) 0.47868(9)
O5_2 O -0.16406(18) 0.38371(13) 0.52958(6)
Zn1_2 Zn 0.85716(4) 0.25313(2) 0.583875(11)
O7 O 0.6530(8) 0.7148(5) 0.4807(3)
H21 H 0.5505 0.6669 0.4766
H22 H 0.7385 0.7218 0.4937
O8 O 0.4740(11) 0.5364(8) 0.4559(4)
H23 H 0.4250 0.4736 0.4458
H24 H 0.5015 0.5757 0.4117
loop_
_geom_bond_atom_site_label_1
_geom_bond_atom_site_label_2
_geom_bond_site_symmetry_1
_geom_bond_site_symmetry_2
Zn1 Cl1 1_555 1_555
Cl2 Zn1 1_555 1_555
O1 Zn1 1_555 1_555
O2 C1 1_555 1_555
O3 C8 1_555 1_555
O4 C12 1_555 1_555
O5 C22 1_555 1_555
O6 C22 1_555 1_555
N1 C2 1_555 1_555
N2 C16 1_555 1_555
C1 O1 1_555 1_555
C2 C1 1_555 1_555
H1 C2 1_555 1_555
H2 C2 1_555 1_555
C3 N1 1_555 1_555
C4 C3 1_555 1_555
H3 C4 1_555 1_555
C5 C4 1_555 1_555
H4 C5 1_555 1_555
C6 C5 1_555 1_555
H5 C6 1_555 1_555
C7 N1 1_555 1_555
H6 C7 1_555 1_555
C8 C3 1_555 1_555
H7 C8 1_555 1_555
H8 C8 1_555 1_555
C9 O3 1_555 1_555
C10 C9 1_555 1_555
H9 C10 1_555 1_555
C11 C10 1_555 1_555
H10 C11 1_555 1_555
C12 C11 1_555 1_555
C13 C12 1_555 1_555
H11 C13 1_555 1_555
C14 C9 1_555 1_555
H12 C14 1_555 1_555
C15 O4 1_555 1_555
H13 C15 1_555 1_555
H14 C15 1_555 1_555
C16 C15 1_555 1_555
C17 C16 1_555 1_555
H15 C17 1_555 1_555
C18 C17 1_555 1_555
H16 C18 1_555 1_555
C19 C18 1_555 1_555
H17 C19 1_555 1_555
C20 N2 1_555 1_555
H18 C20 1_555 1_555
C21 N2 1_555 1_555
H19 C21 1_555 1_555
H20 C21 1_555 1_555
C22 C21 1_555 1_555
O7 H21 1_555 1_555
H22 O7 1_555 1_555
O8 H23 1_555 1_555
H24 O8 1_555 1_555
O5_2 Zn1 1_555 1_555
Zn1_2 O5 1_555 1_555
C6 C7 1_555 1_555
C13 C14 1_555 1_555
C19 C20 1_555 1_555

#END
