
#######################################################################
#
#                 Cambridge Crystallographic Data Centre
#                                CCDC 
#
#######################################################################
#
# If this CIF has been generated from an entry in the Cambridge 
# Structural Database, then it will include bibliographic, chemical, 
# crystal, experimental, refinement or atomic coordinate data resulting 
# from the CCDC's data processing and validation procedures.
#
#######################################################################

data_WUYJIJ
_symmetry_cell_setting           monoclinic
_symmetry_space_group_name_H-M   'P 21/n'
_symmetry_Int_Tables_number      14
_space_group_name_Hall           '-P 2yn'
loop_
_symmetry_equiv_pos_site_id
_symmetry_equiv_pos_as_xyz
1 x,y,z
2 1/2+x,1/2-y,1/2+z
3 -x,-y,-z
4 1/2-x,1/2+y,1/2-z
_cell_length_a                   13.682(7)
_cell_length_b                   8.873(5)
_cell_length_c                   13.826(7)
_cell_angle_alpha                90
_cell_angle_beta                 117.200(10)
_cell_angle_gamma                90
_cell_volume                     1492.87
loop_
_atom_site_label
_atom_site_type_symbol
_atom_site_fract_x
_atom_site_fract_y
_atom_site_fract_z
Cd1 Cd 0.627561(12) 0.11378(2) 0.534206(13)
Cl1 Cl 0.53647(4) 0.01508(6) 0.64847(4)
Cl2 Cl 0.77537(4) -0.06935(6) 0.55634(4)
O1 O 0.64376(14) 0.3121(2) 0.41479(14)
O2 O 0.51375(14) 0.3258(2) 0.46482(13)
O3 O 0.55786(13) 0.2851(2) 0.08638(13)
N1 N 0.56154(14) 0.5616(2) 0.27713(14)
C1 C 0.5591(2) 0.3678(3) 0.40938(17)
C2 C 0.49870(17) 0.4941(3) 0.32882(16)
H1 H 0.4303 0.4544 0.2724
H2 H 0.4805 0.5727 0.3666
C3 C 0.57176(16) 0.4919(2) 0.19474(15)
C4 C 0.62845(18) 0.5622(3) 0.14844(18)
H3 H 0.6349 0.5163 0.0911
C5 C 0.6771(2) 0.7028(3) 0.1865(2)
H4 H 0.7164 0.7506 0.1554
C6 C 0.6658(2) 0.7689(3) 0.2703(2)
H5 H 0.6974 0.8624 0.2969
C7 C 0.6081(2) 0.6970(3) 0.3142(2)
H6 H 0.6004 0.7422 0.3711
C8 C 0.51916(17) 0.3384(3) 0.15793(16)
H7 H 0.5405 0.2711 0.2195
H8 H 0.4397 0.3469 0.1213
C9 C 0.52566(19) 0.1411(3) 0.04564(17)
C10 C 0.45167(18) 0.0546(3) 0.06156(18)
H9 H 0.4191 0.0908 0.1031
C11 C 0.57469(19) 0.0887(3) -0.0149(2)
H10 H 0.6253 0.1483 -0.0248
O4 O 0.74869(19) 0.2797(3) 0.66970(19)
H11 H 0.762(4) 0.207(6) 0.724(3)
H12 H 0.6921(14) 0.304(2) 0.6706(14)
C11B C 0.42531(19) -0.0887(3) 0.0149(2)
C9B C 0.47434(19) -0.1411(3) -0.04564(17)
O3B O 0.44214(13) -0.2851(2) -0.08638(13)
C8B C 0.48084(17) -0.3384(3) -0.15793(16)
C3B C 0.42824(16) -0.4919(2) -0.19474(15)
N1B N 0.43846(14) -0.5616(2) -0.27713(14)
C2B C 0.50130(17) -0.4941(3) -0.32882(16)
C1B C 0.4409(2) -0.3678(3) -0.40938(17)
O1B O 0.35624(14) -0.3121(2) -0.41479(14)
O2B O 0.48625(14) -0.3258(2) -0.46482(13)
H1B H 0.5697 -0.4544 -0.2724
H2B H 0.5195 -0.5727 -0.3666
C7B C 0.3919(2) -0.6970(3) -0.3142(2)
C6B C 0.3342(2) -0.7689(3) -0.2703(2)
C5B C 0.3229(2) -0.7028(3) -0.1865(2)
C4B C 0.37155(18) -0.5622(3) -0.14844(18)
H3B H 0.3651 -0.5163 -0.0911
H4B H 0.2836 -0.7506 -0.1554
H5B H 0.3026 -0.8624 -0.2969
H6B H 0.3996 -0.7422 -0.3711
H7B H 0.4595 -0.2711 -0.2195
H8B H 0.5603 -0.3469 -0.1213
C10B C 0.54833(18) -0.0546(3) -0.06156(18)
H9B H 0.5809 -0.0908 -0.1031
H10B H 0.3747 -0.1483 0.0248
Cl1B Cl 0.46353(4) -0.01508(6) 0.35153(4)
Cd1B Cd 0.372439(12) -0.11378(2) 0.465794(13)
Cl2B Cl 0.22463(4) 0.06935(6) 0.44366(4)
O4B O 0.25131(19) -0.2797(3) 0.33030(19)
H11B H 0.238(4) -0.207(6) 0.276(3)
H12B H 0.3079(14) -0.304(2) 0.3294(14)
Cd1B_2 Cd 0.372439(12) -0.11378(2) -0.534206(13)
O1B_2 O 0.35624(14) -0.3121(2) 0.58521(14)
O2B_2 O 0.48625(14) -0.3258(2) 0.53518(13)
O5 O 0.2932(2) 0.3950(4) 0.3768(2)
H13 H 0.251(3) 0.391(4) 0.398(3)
H14 H 0.346(2) 0.368(4) 0.435(2)
loop_
_geom_bond_atom_site_label_1
_geom_bond_atom_site_label_2
_geom_bond_site_symmetry_1
_geom_bond_site_symmetry_2
Cd1 Cl1 1_555 1_555
Cl1 Cd1B 1_555 1_555
Cl2 Cd1 1_555 1_555
O1 Cd1 1_555 1_555
O2 Cd1 1_555 1_555
O3 C8 1_555 1_555
N1 C2 1_555 1_555
C1 O1 1_555 1_555
C2 C1 1_555 1_555
H1 C2 1_555 1_555
H2 C2 1_555 1_555
C3 N1 1_555 1_555
C4 C3 1_555 1_555
H3 C4 1_555 1_555
C5 C4 1_555 1_555
H4 C5 1_555 1_555
C6 C5 1_555 1_555
H5 C6 1_555 1_555
C7 N1 1_555 1_555
H6 C7 1_555 1_555
C8 C3 1_555 1_555
H7 C8 1_555 1_555
H8 C8 1_555 1_555
C9 O3 1_555 1_555
C10 C9 1_555 1_555
H9 C10 1_555 1_555
C11 C9 1_555 1_555
H10 C11 1_555 1_555
O4 Cd1 1_555 1_555
H11 O4 1_555 1_555
H12 O4 1_555 1_555
O5 H13 1_555 1_555
H14 O5 1_555 1_555
C11B C10 1_555 1_555
C9B C11B 1_555 1_555
O3B C9B 1_555 1_555
C8B O3B 1_555 1_555
C3B C8B 1_555 1_555
N1B C3B 1_555 1_555
C2B N1B 1_555 1_555
C1B C2B 1_555 1_555
O1B C1B 1_555 1_555
O2B C1B 1_555 1_555
H1B C2B 1_555 1_555
H2B C2B 1_555 1_555
C7B N1B 1_555 1_555
C6B C7B 1_555 1_555
C5B C6B 1_555 1_555
C4B C3B 1_555 1_555
H3B C4B 1_555 1_555
H4B C5B 1_555 1_555
H5B C6B 1_555 1_555
H6B C7B 1_555 1_555
H7B C8B 1_555 1_555
H8B C8B 1_555 1_555
C10B C11 1_555 1_555
H9B C10B 1_555 1_555
H10B C11B 1_555 1_555
Cl1B Cd1 1_555 1_555
Cd1B Cl1B 1_555 1_555
Cl2B Cd1B 1_555 1_555
O4B Cd1B 1_555 1_555
H11B O4B 1_555 1_555
H12B O4B 1_555 1_555
Cd1B_2 O1B 1_555 1_555
O1B_2 Cd1B 1_555 1_555
O2B_2 Cd1B 1_555 1_555
O2 C1 1_555 1_555
C6 C7 1_555 1_555
C9B C10B 1_555 1_555
O2B Cd1B_2 1_555 1_555
C5B C4B 1_555 1_555

#END
