
#######################################################################
#
#                 Cambridge Crystallographic Data Centre
#                                CCDC 
#
#######################################################################
#
# If this CIF has been generated from an entry in the Cambridge 
# Structural Database, then it will include bibliographic, chemical, 
# crystal, experimental, refinement or atomic coordinate data resulting 
# from the CCDC's data processing and validation procedures.
#
#######################################################################

data_WUYKEG
_symmetry_cell_setting           triclinic
_symmetry_space_group_name_H-M   'P -1'
_symmetry_Int_Tables_number      2
_space_group_name_Hall           '-P 1'
loop_
_symmetry_equiv_pos_site_id
_symmetry_equiv_pos_as_xyz
1 x,y,z
2 -x,-y,-z
_cell_length_a                   8.1650(10)
_cell_length_b                   9.9370(10)
_cell_length_c                   10.5940(10)
_cell_angle_alpha                73.000(10)
_cell_angle_beta                 77.530(10)
_cell_angle_gamma                81.030(10)
_cell_volume                     798.628
loop_
_atom_site_label
_atom_site_type_symbol
_atom_site_fract_x
_atom_site_fract_y
_atom_site_fract_z
Pb1 Pb 0.95793(3) 0.76830(2) 0.09354(2)
O1 O 0.9171(6) 0.5008(5) 0.1579(5)
H1 H 1.0114 0.4550 0.1376
H2 H 0.8469 0.4880 0.1148
N1 N 1.1119(8) 0.6548(6) 0.2926(6)
N2 N 0.8786(8) 0.8782(7) 0.2927(6)
N3 N 0.6450(7) 0.7366(7) 0.1937(7)
N4 N 0.3863(8) 0.8994(7) 0.1962(7)
N5 N 0.1893(8) 0.9652(7) 0.0393(7)
N6 N 0.8184(9) 0.7209(8) -0.1249(7)
N7 N 0.5274(9) 0.7538(8) -0.1657(8)
N8 N 0.2797(9) 0.6396(9) -0.0429(8)
C1 C 0.7680(10) 0.9913(9) 0.2889(8)
H3 H 0.7328 1.0382 0.2080
C2 C 0.7023(10) 1.0431(9) 0.3987(8)
H4 H 0.6223 1.1212 0.3924
C3 C 0.7574(10) 0.9772(9) 0.5176(8)
H5 H 0.7156 1.0094 0.5936
C4 C 0.8750(11) 0.8630(9) 0.5210(8)
H6 H 0.9155 0.8168 0.5998
C5 C 0.9339(9) 0.8165(8) 0.4074(7)
C6 C 1.0688(9) 0.6951(9) 0.4084(7)
C7 C 1.1446(10) 0.6281(9) 0.5176(8)
H7 H 1.1151 0.6574 0.5960
C8 C 1.2669(10) 0.5149(9) 0.5073(8)
H8 H 1.3190 0.4666 0.5799
C9 C 1.3089(10) 0.4763(9) 0.3935(9)
H9 H 1.3906 0.4012 0.3864
C10 C 1.2303(9) 0.5485(8) 0.2854(8)
H10 H 1.2617 0.5215 0.2059
C11 C 0.6813(11) 0.7324(9) -0.1350(9)
C12 C 0.4059(11) 0.6862(10) -0.0912(9)
C13 C 0.5198(9) 0.8121(8) 0.1878(8)
C14 C 0.2885(9) 0.9315(8) 0.1065(8)
N5_2 N 1.1893(8) 0.9652(7) 0.0393(7)
N5A N 0.8107(8) 1.0348(7) -0.0393(7)
Pb1_2 Pb -0.04207(3) 0.76830(2) 0.09354(2)
Pb1A Pb 0.04207(3) 1.23170(2) -0.09354(2)
loop_
_geom_bond_atom_site_label_1
_geom_bond_atom_site_label_2
_geom_bond_site_symmetry_1
_geom_bond_site_symmetry_2
Pb1 O1 1_555 1_555
O1 H1 1_555 1_555
H2 O1 1_555 1_555
N1 Pb1 1_555 1_555
N2 Pb1 1_555 1_555
N3 Pb1 1_555 1_555
N4 C13 1_555 1_555
N5 C14 1_555 1_555
N6 Pb1 1_555 1_555
N7 C11 1_555 1_555
N8 C12 1_555 1_555
C1 N2 1_555 1_555
H3 C1 1_555 1_555
C2 C1 1_555 1_555
H4 C2 1_555 1_555
C3 C2 1_555 1_555
H5 C3 1_555 1_555
C4 C3 1_555 1_555
H6 C4 1_555 1_555
C5 N2 1_555 1_555
C6 N1 1_555 1_555
C7 C6 1_555 1_555
H7 C7 1_555 1_555
C8 C7 1_555 1_555
H8 C8 1_555 1_555
C9 C8 1_555 1_555
H9 C9 1_555 1_555
C10 N1 1_555 1_555
H10 C10 1_555 1_555
C11 N6 1_555 1_555
C12 N7 1_555 1_555
C13 N3 1_555 1_555
C14 N4 1_555 1_555
N5_2 Pb1 1_555 1_555
N5A Pb1 1_555 1_555
Pb1_2 N5 1_555 1_555
Pb1A N5 1_555 1_555
C4 C5 1_555 1_555
C5 C6 1_555 1_555
C9 C10 1_555 1_555

#END
