
#######################################################################
#
#                 Cambridge Crystallographic Data Centre
#                                CCDC 
#
#######################################################################
#
# If this CIF has been generated from an entry in the Cambridge 
# Structural Database, then it will include bibliographic, chemical, 
# crystal, experimental, refinement or atomic coordinate data resulting 
# from the CCDC's data processing and validation procedures.
#
#######################################################################

data_WUYKAC
_symmetry_cell_setting           triclinic
_symmetry_space_group_name_H-M   'P -1'
_symmetry_Int_Tables_number      2
_space_group_name_Hall           '-P 1'
loop_
_symmetry_equiv_pos_site_id
_symmetry_equiv_pos_as_xyz
1 x,y,z
2 -x,-y,-z
_cell_length_a                   8.702(1)
_cell_length_b                   9.337(1)
_cell_length_c                   10.255(1)
_cell_angle_alpha                67.88(1)
_cell_angle_beta                 87.60(1)
_cell_angle_gamma                74.53(1)
_cell_volume                     742.329
loop_
_atom_site_label
_atom_site_type_symbol
_atom_site_fract_x
_atom_site_fract_y
_atom_site_fract_z
Pb1 Pb 0.27683(3) 0.91929(3) 0.58277(3)
C1 C 0.0539(11) 1.1927(11) 0.7119(10)
H1 H 0.0083 1.2367 0.6202
C2 C -0.0085(13) 1.2720(13) 0.8034(11)
H2 H -0.0941 1.3639 0.7747
C3 C 0.0642(11) 1.2061(12) 0.9377(9)
H3 H 0.0306 1.2558 1.0012
C4 C 0.2623(12) 0.9940(13) 1.1173(9)
H4 H 0.2228 1.0384 1.1834
C5 C 0.3900(14) 0.8624(14) 1.1533(9)
H5 H 0.4372 0.8178 1.2445
C6 C 0.5865(11) 0.6633(11) 1.0818(11)
H6 H 0.6384 0.6170 1.1712
C7 C 0.6430(12) 0.6042(12) 0.9827(11)
H7 H 0.7334 0.5176 1.0021
C8 C 0.5591(12) 0.6793(11) 0.8463(12)
H8 H 0.5945 0.6379 0.7775
C9 C 0.1896(11) 1.0633(11) 0.9784(9)
C10 C 0.4552(11) 0.7889(10) 1.0524(9)
C11 C 0.3776(10) 0.8562(9) 0.9133(8)
C12 C 0.2399(9) 0.9976(8) 0.8810(8)
C13 C 0.3488(8) 1.2900(9) 0.5020(9)
C14 C 0.3091(10) 1.5310(8) 0.5224(9)
N1 N 0.1719(7) 1.0612(8) 0.7476(6)
N2 N 0.4328(7) 0.8059(8) 0.8149(7)
N3 N 0.4140(9) 1.1642(9) 0.5161(9)
N4 N 0.0100(9) 0.7457(9) 0.7127(8)
N5 N 0.2707(9) 1.4399(9) 0.4705(9)
N6 N 0.3329(12) 1.6255(10) 0.5518(11)
O1 O 0.1348(8) 0.7270(8) 0.7862(7)
O2 O -0.0164(5) 0.8462(9) 0.5956(7)
O3 O -0.0804(11) 0.6620(11) 0.7740(9)
N3A N 0.5860(9) 0.8358(9) 0.4839(9)
N6_2 N 0.3329(12) 0.6255(10) 0.5518(11)
Pb1A Pb 0.72317(3) 1.08071(3) 0.41723(3)
Pb1_2 Pb 0.27683(3) 1.91929(3) 0.58277(3)
loop_
_geom_bond_atom_site_label_1
_geom_bond_atom_site_label_2
_geom_bond_site_symmetry_1
_geom_bond_site_symmetry_2
Pb1 N1 1_555 1_555
C1 H1 1_555 1_555
C2 C1 1_555 1_555
H2 C2 1_555 1_555
C3 C2 1_555 1_555
H3 C3 1_555 1_555
C4 H4 1_555 1_555
C5 C4 1_555 1_555
H5 C5 1_555 1_555
C6 H6 1_555 1_555
C7 C6 1_555 1_555
H7 C7 1_555 1_555
C8 C7 1_555 1_555
H8 C8 1_555 1_555
C9 C3 1_555 1_555
C10 C5 1_555 1_555
C11 C10 1_555 1_555
C12 C9 1_555 1_555
C13 N3 1_555 1_555
C14 N5 1_555 1_555
N1 C1 1_555 1_555
N2 Pb1 1_555 1_555
N3 Pb1 1_555 1_555
N4 O1 1_555 1_555
N5 C13 1_555 1_555
N6 C14 1_555 1_555
O1 Pb1 1_555 1_555
O2 Pb1 1_555 1_555
O3 N4 1_555 1_555
N3A Pb1 1_555 1_555
N6_2 Pb1 1_555 1_555
Pb1A N3 1_555 1_555
Pb1_2 N6 1_555 1_555
C4 C9 1_555 1_555
C6 C10 1_555 1_555
C8 N2 1_555 1_555
C11 N2 1_555 1_555
C11 C12 1_555 1_555
C12 N1 1_555 1_555
N4 O2 1_555 1_555
N3A Pb1A 1_555 1_555

#END
