
#######################################################################
#
#                 Cambridge Crystallographic Data Centre
#                                CCDC 
#
#######################################################################
#
# If this CIF has been generated from an entry in the Cambridge 
# Structural Database, then it will include bibliographic, chemical, 
# crystal, experimental, refinement or atomic coordinate data resulting 
# from the CCDC's data processing and validation procedures.
#
#######################################################################

data_WUYLOS
_symmetry_cell_setting           monoclinic
_symmetry_space_group_name_H-M   'C 2/c'
_symmetry_Int_Tables_number      15
_space_group_name_Hall           '-C 2yn'
loop_
_symmetry_equiv_pos_site_id
_symmetry_equiv_pos_as_xyz
1 x,y,z
2 -x,y,1/2-z
3 1/2+x,1/2+y,z
4 1/2-x,1/2+y,1/2-z
5 -x,-y,-z
6 x,-y,1/2+z
7 1/2-x,1/2-y,-z
8 1/2+x,1/2-y,1/2+z
_cell_length_a                   31.283(4)
_cell_length_b                   14.5442(18)
_cell_length_c                   8.6817(10)
_cell_angle_alpha                90
_cell_angle_beta                 96.033(7)
_cell_angle_gamma                90
_cell_volume                     3928.18
loop_
_atom_site_label
_atom_site_type_symbol
_atom_site_fract_x
_atom_site_fract_y
_atom_site_fract_z
Cl1 Cl 0.56061(10) 0.6989(2) 0.7481(4)
O8 O 0.9251(2) 0.8227(6) 0.7568(10)
O9 O 0.5766(3) 0.7892(8) 0.5174(11)
O10 O 0.8119(4) 0.6168(9) 0.1462(15)
O11 O 0.8458(11) 0.4623(15) 0.378(3)
O12 O 0.6062(7) 0.9546(15) 0.384(3)
O13 O 0.5000 0.7858(16) 0.7500
O14 O 0.9396(11) 0.705(2) 0.987(3)
Ce1 Ce 0.672963(11) 0.56042(2) 0.77390(4)
O1 O 0.64602(16) 0.7264(4) 0.7367(6)
H1 H 0.652(3) 0.785(2) 0.780(9)
H2 H 0.625(2) 0.730(5) 0.650(7)
O2 O 0.69944(14) 0.5371(3) 0.5162(5)
O3 O 0.74689(14) 0.5357(3) 0.3460(5)
O4 O 0.80668(15) 0.8435(3) 0.9940(5)
O5 O 0.84134(14) 0.8985(3) 0.7998(5)
N1 N 0.74311(16) 0.6543(4) 0.7019(5)
C1 C 0.73467(19) 0.5628(4) 0.4702(7)
C2 C 0.76051(19) 0.6313(4) 0.5712(6)
C3 C 0.79742(19) 0.6712(5) 0.5295(7)
H3 H 0.8095 0.6516 0.4390
C4 C 0.8167(2) 0.7406(5) 0.6216(8)
H4 H 0.8416 0.7709 0.5927
C5 C 0.79953(19) 0.7650(4) 0.7557(7)
C6 C 0.7625(2) 0.7183(5) 0.7920(7)
H5 H 0.7510 0.7334 0.8856
C7 C 0.81748(19) 0.8406(5) 0.8578(7)
O6 O 0.61158(16) 0.5714(4) 0.5711(6)
O7 O 0.60683(16) 0.4577(4) 0.3982(6)
C8 C 0.5913(2) 0.5125(6) 0.4871(8)
C9 C 0.5437(2) 0.5059(5) 0.4934(7)
C10 C 0.5217(2) 0.5750(5) 0.5571(9)
H6 H 0.5369 0.6275 0.5986
N2 N 0.5213(2) 0.4303(5) 0.4380(9)
Ce1E Ce 0.672963(11) 0.43958(2) 1.27390(4)
Ce1E_2 Ce 0.672963(11) 0.43958(2) 0.27390(4)
Ce1F Ce 0.827037(11) 0.93958(2) 1.22610(4)
Ce1C Ce 0.827037(11) 1.06042(2) 0.72610(4)
Ce1D Ce 0.327037(11) 0.43958(2) 0.22610(4)
Ce1A Ce 0.327037(11) 0.56042(2) 0.72610(4)
Ce1C_2 Ce 0.827037(11) 0.06042(2) 1.72610(4)
Ce1F_2 Ce 0.827037(11) -0.06042(2) 1.22610(4)
O1E O 0.64602(16) 0.2736(4) 1.2367(6)
H1E H 0.652(3) 0.215(2) 1.280(9)
H2E H 0.625(2) 0.270(5) 1.150(7)
O2E O 0.69944(14) 0.4629(3) 1.0162(5)
O2_2 O 0.69944(14) 0.5371(3) 1.5162(5)
O3E O 0.74689(14) 0.4643(3) 0.8460(5)
O3_2 O 0.74689(14) 0.5357(3) 1.3460(5)
O4E O 0.80668(15) 0.1565(3) 1.4940(5)
O4F O 0.69332(15) 0.6565(3) 1.0060(5)
O4C O 0.69332(15) 0.3435(3) 1.5060(5)
O5E O 0.84134(14) 0.1015(3) 1.2998(5)
O5C O 0.65866(14) 0.3985(3) 0.7002(5)
O5F O 0.65866(14) 0.6015(3) 1.2002(5)
N1E N 0.74311(16) 0.3457(4) 1.2019(5)
C1E C 0.73467(19) 0.4372(4) 0.9702(7)
C2E C 0.76051(19) 0.3687(4) 1.0712(6)
C3E C 0.79742(19) 0.3288(5) 1.0295(7)
H3E H 0.8095 0.3484 0.9390
C4E C 0.8167(2) 0.2594(5) 1.1216(8)
H4E H 0.8416 0.2291 1.0927
C5E C 0.79953(19) 0.2350(4) 1.2557(7)
C6E C 0.7625(2) 0.2817(5) 1.2920(7)
H5E H 0.7510 0.2666 1.3856
C7E C 0.81748(19) 0.1594(5) 1.3578(7)
O6D O 0.38842(16) 0.4286(4) 0.4289(6)
O6E O 0.61158(16) 0.4286(4) 1.0711(6)
O7D O 0.39317(16) 0.5423(4) 0.6018(6)
O7E O 0.60683(16) 0.5423(4) 0.8982(6)
O7_2 O 0.60683(16) 0.4577(4) 1.3982(6)
C8D C 0.4087(2) 0.4875(6) 0.5129(8)
C9D C 0.4563(2) 0.4941(5) 0.5066(7)
C10D C 0.4783(2) 0.4250(5) 0.4429(9)
H6D H 0.4631 0.3725 0.4014
N2D N 0.4787(2) 0.5697(5) 0.5620(9)
N3? N 0.4783(2) 0.4250(5) 0.4429(9)
C11? C 0.4787(2) 0.5697(5) 0.5620(9)
H7? H 0.5360 0.3808 0.3955
H8? H 0.4642 0.3764 0.4045
H9? H 0.4651 0.6155 0.6014
loop_
_geom_bond_atom_site_label_1
_geom_bond_atom_site_label_2
_geom_bond_site_symmetry_1
_geom_bond_site_symmetry_2
Ce1 O1 1_555 1_555
O1 H1 1_555 1_555
H2 O1 1_555 1_555
O2 Ce1 1_555 1_555
O3 C1 1_555 1_555
O4 C7 1_555 1_555
O5 C7 1_555 1_555
N1 Ce1 1_555 1_555
C1 O2 1_555 1_555
C2 N1 1_555 1_555
C3 C2 1_555 1_555
H3 C3 1_555 1_555
C4 C3 1_555 1_555
H4 C4 1_555 1_555
C5 C4 1_555 1_555
C6 N1 1_555 1_555
H5 C6 1_555 1_555
C7 C5 1_555 1_555
O6 Ce1 1_555 1_555
O7 C8 1_555 1_555
C8 O6 1_555 1_555
C9 C8 1_555 1_555
C10 C9 1_555 1_555
H6 C10 1_555 1_555
N2 C9 1_555 1_555
Ce1E O1E 1_555 1_555
Ce1E_2 O2 1_555 1_555
Ce1F O4 1_555 1_555
Ce1C O5 1_555 1_555
Ce1D O6D 1_555 1_555
Ce1A O7D 1_555 1_555
Ce1C_2 O4E 1_555 1_555
Ce1F_2 O5E 1_555 1_555
O1E H1E 1_555 1_555
H2E O1E 1_555 1_555
O2E Ce1 1_555 1_555
O2_2 Ce1E 1_555 1_555
O3E Ce1 1_555 1_555
O3_2 Ce1E 1_555 1_555
O4E C7E 1_555 1_555
O4F Ce1 1_555 1_555
O4C Ce1E 1_555 1_555
O5E C7E 1_555 1_555
O5C Ce1 1_555 1_555
O5F Ce1E 1_555 1_555
N1E Ce1E 1_555 1_555
C1E O2E 1_555 1_555
C2E N1E 1_555 1_555
C3E C2E 1_555 1_555
H3E C3E 1_555 1_555
C4E C3E 1_555 1_555
H4E C4E 1_555 1_555
C5E C4E 1_555 1_555
C6E N1E 1_555 1_555
H5E C6E 1_555 1_555
C7E C5E 1_555 1_555
O6D C8D 1_555 1_555
O6E Ce1E 1_555 1_555
O7D C8D 1_555 1_555
O7E Ce1 1_555 1_555
O7_2 Ce1E 1_555 1_555
C8D C9D 1_555 1_555
C9D C10D 1_555 1_555
C10D N2 1_555 1_555
H6D C10D 1_555 1_555
N2D C10 1_555 1_555
O3 Ce1E_2 1_555 1_555
C1 C2 1_555 1_555
C5 C6 1_555 1_555
O7 Ce1E_2 1_555 1_555
Ce1E O2E 1_555 1_555
O3E C1E 1_555 1_555
C1E C2E 1_555 1_555
C5E C6E 1_555 1_555
C9D N2D 1_555 1_555

#END
