
#######################################################################
#
#                 Cambridge Crystallographic Data Centre
#                                CCDC 
#
#######################################################################
#
# If this CIF has been generated from an entry in the Cambridge 
# Structural Database, then it will include bibliographic, chemical, 
# crystal, experimental, refinement or atomic coordinate data resulting 
# from the CCDC's data processing and validation procedures.
#
#######################################################################

data_WUYLAD
_symmetry_cell_setting           monoclinic
_symmetry_space_group_name_H-M   'C 2/c'
_symmetry_Int_Tables_number      15
_space_group_name_Hall           '-C 2yn'
loop_
_symmetry_equiv_pos_site_id
_symmetry_equiv_pos_as_xyz
1 x,y,z
2 1/2+x,1/2+y,z
3 x,-y,1/2+z
4 1/2+x,1/2-y,1/2+z
5 -x,-y,-z
6 1/2-x,1/2-y,-z
7 -x,y,1/2-z
8 1/2-x,1/2+y,1/2-z
_cell_length_a                   16.9524(8)
_cell_length_b                   25.8785(12)
_cell_length_c                   19.3290(9)
_cell_angle_alpha                90
_cell_angle_beta                 106.507(2)
_cell_angle_gamma                90
_cell_volume                     8130.19
loop_
_atom_site_label
_atom_site_type_symbol
_atom_site_fract_x
_atom_site_fract_y
_atom_site_fract_z
Mg1 Mg 0.0000 0.15891(6) 0.7500
F1 F -0.14589(12) 0.02397(8) 1.02260(12)
F2 F -0.07239(13) -0.06074(8) 1.07833(12)
O1 O -0.31805(15) -0.05583(10) 0.81317(14)
O2 O -0.40992(15) -0.07838(9) 0.68170(15)
O3 O -0.37959(15) -0.03739(10) 0.56387(14)
O4 O -0.33282(16) 0.37720(9) 0.78255(14)
O5 O -0.41133(15) 0.39702(9) 0.64441(15)
O6 O -0.36876(15) 0.34955(10) 0.53679(14)
N1 N -0.02541(19) 0.15477(12) 0.85934(17)
N2 N -0.2229(3) 0.12399(19) 0.9453(3)
N3 N 0.0000 0.07850(14) 0.7500
N4 N -0.12637(15) 0.15834(10) 0.71104(14)
N5 N 0.0000 0.23868(13) 0.7500
C1 C -0.0496(2) 0.12685(14) 0.8952(2)
C2 C -0.0823(2) 0.09266(14) 0.9373(2)
C3 C -0.1607(3) 0.10881(17) 0.9432(3)
C4 C -0.0419(2) 0.04732(13) 0.96819(19)
C5 C -0.0729(2) 0.01242(13) 1.0109(2)
C6 C -0.0350(2) -0.03114(13) 1.03942(19)
C7 C -0.0412(2) -0.00648(12) 0.7423(2)
H1 H -0.0758 -0.0360 0.7361
C8 C -0.0670(2) 0.04679(12) 0.73668(18)
C9 C -0.1495(2) 0.06417(12) 0.71649(18)
C10 C -0.1766(2) 0.11617(12) 0.70438(18)
C11 C -0.2615(2) 0.13237(14) 0.6875(2)
H2 H -0.3083 0.1106 0.6800
C12 C -0.2616(2) 0.18452(14) 0.6846(2)
H3 H -0.3087 0.2063 0.6739
C13 C -0.1767(2) 0.20098(12) 0.70072(18)
C14 C -0.1500(2) 0.25310(12) 0.70959(18)
C15 C -0.06825(19) 0.27023(12) 0.73236(18)
C16 C -0.0415(2) 0.32353(12) 0.73954(19)
H4 H -0.0761 0.3531 0.7311
C17 C -0.21649(19) 0.02455(12) 0.70669(19)
C18 C -0.2308(2) 0.00153(12) 0.7670(2)
H5 H -0.1958 0.0086 0.8139
C19 C -0.2973(2) -0.03211(13) 0.7577(2)
C20 C -0.3470(2) -0.04339(13) 0.6888(2)
C21 C -0.3297(2) -0.02172(13) 0.6290(2)
C22 C -0.2651(2) 0.01282(12) 0.6380(2)
H6 H -0.2543 0.0284 0.5971
C23 C -0.2168(2) 0.29264(12) 0.69342(19)
C24 C -0.2381(2) 0.31742(13) 0.7489(2)
H7 H -0.2077 0.3116 0.7978
C25 C -0.3057(2) 0.35137(13) 0.7318(2)
C26 C -0.3482(2) 0.36107(13) 0.6607(2)
C27 C -0.3245(2) 0.33650(13) 0.6054(2)
C28 C -0.2594(2) 0.30164(13) 0.6225(2)
H8 H -0.2444 0.2840 0.5851
C29 C -0.2694(3) -0.04401(15) 0.8846(2)
H9 H -0.2907 -0.0629 0.9194
H10 H -0.2718 -0.0068 0.8931
H11 H -0.2122 -0.0542 0.8903
C30 C -0.4906(2) -0.05804(17) 0.6522(3)
H12 H -0.5311 -0.0857 0.6480
H13 H -0.4954 -0.0435 0.6043
H14 H -0.5007 -0.0308 0.6839
C31 C -0.3611(3) -0.01842(17) 0.5014(2)
H15 H -0.4001 -0.0329 0.4582
H16 H -0.3050 -0.0286 0.5026
H17 H -0.3654 0.0194 0.5001
C32 C -0.2926(3) 0.36780(16) 0.8562(2)
H18 H -0.3189 0.3881 0.8863
H19 H -0.2346 0.3778 0.8669
H20 H -0.2964 0.3310 0.8667
C33 C -0.4898(2) 0.37560(18) 0.6379(3)
H21 H -0.5315 0.4030 0.6257
H22 H -0.4902 0.3596 0.6838
H23 H -0.5022 0.3494 0.5997
C34 C -0.3407(3) 0.32799(19) 0.4796(2)
H24 H -0.3752 0.3408 0.4331
H25 H -0.3444 0.2902 0.4807
H26 H -0.2835 0.3382 0.4858
C6D C 0.0350(2) 0.03114(13) 0.96058(19)
F2D F 0.07239(13) 0.06074(8) 0.92167(12)
C5D C 0.0729(2) -0.01242(13) 0.9891(2)
F1D F 0.14589(12) -0.02397(8) 0.97740(12)
C4D C 0.0419(2) -0.04732(13) 1.03181(19)
C2D C 0.0823(2) -0.09266(14) 1.0627(2)
C1D C 0.0496(2) -0.12685(14) 1.1048(2)
N1D N 0.02541(19) -0.15477(12) 1.14066(17)
C3D C 0.1607(3) -0.10881(17) 1.0568(3)
N2D N 0.2229(3) -0.12399(19) 1.0547(3)
C8F C 0.0670(2) 0.04679(12) 0.76332(18)
C7F C 0.0412(2) -0.00648(12) 0.7577(2)
H1F H 0.0758 -0.0360 0.7639
C9F C 0.1495(2) 0.06417(12) 0.78351(18)
C10F C 0.1766(2) 0.11617(12) 0.79562(18)
N4F N 0.12637(15) 0.15834(10) 0.78896(14)
C13F C 0.1767(2) 0.20098(12) 0.79928(18)
C12F C 0.2616(2) 0.18452(14) 0.8154(2)
C11F C 0.2615(2) 0.13237(14) 0.8125(2)
H2F H 0.3083 0.1106 0.8200
H3F H 0.3087 0.2063 0.8261
C14F C 0.1500(2) 0.25310(12) 0.79041(18)
C15F C 0.06825(19) 0.27023(12) 0.76764(18)
C16F C 0.0415(2) 0.32353(12) 0.76046(19)
H4F H 0.0761 0.3531 0.7689
C23F C 0.2168(2) 0.29264(12) 0.80658(19)
C24F C 0.2381(2) 0.31742(13) 0.7511(2)
H7F H 0.2077 0.3116 0.7022
C25F C 0.3057(2) 0.35137(13) 0.7682(2)
O4F O 0.33282(16) 0.37720(9) 0.71745(14)
C32F C 0.2926(3) 0.36780(16) 0.6438(2)
H18F H 0.3189 0.3881 0.6137
H19F H 0.2346 0.3778 0.6331
H20F H 0.2964 0.3310 0.6333
C26F C 0.3482(2) 0.36107(13) 0.8393(2)
O5F O 0.41133(15) 0.39702(9) 0.85559(15)
C33F C 0.4898(2) 0.37560(18) 0.8621(3)
H21F H 0.5315 0.4030 0.8743
H22F H 0.4902 0.3596 0.8162
H23F H 0.5022 0.3494 0.9003
C27F C 0.3245(2) 0.33650(13) 0.8946(2)
O6F O 0.36876(15) 0.34955(10) 0.96321(14)
C34F C 0.3407(3) 0.32799(19) 1.0204(2)
H24F H 0.3752 0.3408 1.0669
H25F H 0.3444 0.2902 1.0193
H26F H 0.2835 0.3382 1.0142
C28F C 0.2594(2) 0.30164(13) 0.8775(2)
H8F H 0.2444 0.2840 0.9149
C17F C 0.21649(19) 0.02455(12) 0.79331(19)
C18F C 0.2308(2) 0.00153(12) 0.7330(2)
H5F H 0.1958 0.0086 0.6861
C19F C 0.2973(2) -0.03211(13) 0.7423(2)
O1F O 0.31805(15) -0.05583(10) 0.68683(14)
C29F C 0.2694(3) -0.04401(15) 0.6154(2)
H9F H 0.2907 -0.0629 0.5806
H10F H 0.2718 -0.0068 0.6069
H11F H 0.2122 -0.0542 0.6097
C20F C 0.3470(2) -0.04339(13) 0.8112(2)
O2F O 0.40992(15) -0.07838(9) 0.81830(15)
C30F C 0.4906(2) -0.05804(17) 0.8478(3)
H12F H 0.5311 -0.0857 0.8520
H13F H 0.4954 -0.0435 0.8957
H14F H 0.5007 -0.0308 0.8161
C21F C 0.3297(2) -0.02172(13) 0.8710(2)
O3F O 0.37959(15) -0.03739(10) 0.93613(14)
C31F C 0.3611(3) -0.01842(17) 0.9986(2)
H15F H 0.4001 -0.0329 1.0418
H16F H 0.3050 -0.0286 0.9974
H17F H 0.3654 0.0194 0.9999
C22F C 0.2651(2) 0.01282(12) 0.8620(2)
H6F H 0.2543 0.0284 0.9029
N1F N 0.02541(19) 0.15477(12) 0.64066(17)
Mg1B Mg 0.0000 -0.15891(6) 1.2500
Cl1 Cl -0.39334(8) 0.17148(6) 0.46237(9)
Cl2 Cl -0.46461(8) 0.10521(6) 0.56685(8)
C35 C -0.4892(3) 0.18498(19) 0.4722(3)
C36 C -0.5205(3) 0.15579(18) 0.5184(2)
C37 C -0.5978(3) 0.1661(2) 0.5253(3)
H27 H -0.6201 0.1457 0.5560
C38 C -0.6416(3) 0.2064(2) 0.4872(4)
H28 H -0.6943 0.2145 0.4924
C39 C -0.6097(4) 0.2364(2) 0.4399(4)
H29 H -0.6406 0.2643 0.4136
C40 C -0.5346(3) 0.2247(2) 0.4330(3)
H30 H -0.5130 0.2441 0.4007
Cl3 Cl 0.9008(4) 0.2653(2) 0.2097(4)
C41 C 0.9636(11) 0.3205(8) 0.2378(9)
C42 C 0.920(2) 0.3579(11) 0.2218(14)
H31 H 0.8623 0.3556 0.2017
C43 C 0.9659(6) 0.4100(6) 0.2363(7)
H32 H 0.9371 0.4416 0.2223
C41F C 1.0364(11) 0.3205(8) 0.2622(9)
Cl3F Cl 1.0992(4) 0.2653(2) 0.2903(4)
C42F C 1.080(2) 0.3579(11) 0.2782(14)
H31F H 1.1377 0.3556 0.2983
C43F C 1.0341(6) 0.4100(6) 0.2637(7)
H32F H 1.0629 0.4416 0.2777
Cl4? Cl 0.9073(3) 0.42173(15) 0.2145(2)
C44? C 0.9430(19) 0.3711(7) 0.2258(15)
C45? C 0.9206(11) 0.3189(6) 0.2180(9)
H33? H 0.8640 0.3167 0.1922
C46? C 0.9506(10) 0.2697(5) 0.2341(11)
H34? H 0.9173 0.2395 0.2273
loop_
_geom_bond_atom_site_label_1
_geom_bond_atom_site_label_2
_geom_bond_site_symmetry_1
_geom_bond_site_symmetry_2
Mg1 N1 1_555 1_555
Cl1 C35 1_555 1_555
Cl2 C36 1_555 1_555
F1 C5 1_555 1_555
F2 C6 1_555 1_555
O1 C19 1_555 1_555
O2 C20 1_555 1_555
O3 C21 1_555 1_555
O4 C25 1_555 1_555
O5 C26 1_555 1_555
O6 C27 1_555 1_555
N1 C1 1_555 1_555
N2 C3 1_555 1_555
N3 Mg1 1_555 1_555
N4 Mg1 1_555 1_555
N5 Mg1 1_555 1_555
C1 C2 1_555 1_555
C2 C3 1_555 1_555
C4 C2 1_555 1_555
C5 C4 1_555 1_555
C6 C5 1_555 1_555
C7 H1 1_555 1_555
C8 N3 1_555 1_555
C9 C8 1_555 1_555
C10 N4 1_555 1_555
C11 C10 1_555 1_555
H2 C11 1_555 1_555
C12 C11 1_555 1_555
H3 C12 1_555 1_555
C13 N4 1_555 1_555
C14 C13 1_555 1_555
C15 N5 1_555 1_555
C16 C15 1_555 1_555
H4 C16 1_555 1_555
C17 C9 1_555 1_555
C18 C17 1_555 1_555
H5 C18 1_555 1_555
C19 C18 1_555 1_555
C20 C19 1_555 1_555
C21 C20 1_555 1_555
C22 C17 1_555 1_555
H6 C22 1_555 1_555
C23 C14 1_555 1_555
C24 C23 1_555 1_555
H7 C24 1_555 1_555
C25 C24 1_555 1_555
C26 C25 1_555 1_555
C27 C26 1_555 1_555
C28 C23 1_555 1_555
H8 C28 1_555 1_555
C29 O1 1_555 1_555
H9 C29 1_555 1_555
H10 C29 1_555 1_555
H11 C29 1_555 1_555
C30 O2 1_555 1_555
H12 C30 1_555 1_555
H13 C30 1_555 1_555
H14 C30 1_555 1_555
C31 O3 1_555 1_555
H15 C31 1_555 1_555
H16 C31 1_555 1_555
H17 C31 1_555 1_555
C32 O4 1_555 1_555
H18 C32 1_555 1_555
H19 C32 1_555 1_555
H20 C32 1_555 1_555
C33 O5 1_555 1_555
H21 C33 1_555 1_555
H22 C33 1_555 1_555
H23 C33 1_555 1_555
C34 O6 1_555 1_555
H24 C34 1_555 1_555
H25 C34 1_555 1_555
H26 C34 1_555 1_555
C35 C36 1_555 1_555
C36 C37 1_555 1_555
C37 H27 1_555 1_555
C38 C37 1_555 1_555
H28 C38 1_555 1_555
C39 C38 1_555 1_555
H29 C39 1_555 1_555
C40 C35 1_555 1_555
H30 C40 1_555 1_555
Cl3 C41 1_555 1_555
C41 C42 1_555 1_555
C42 H31 1_555 1_555
C43 C42 1_555 1_555
H32 C43 1_555 1_555
C6D C4 1_555 1_555
F2D C6D 1_555 1_555
C5D C6D 1_555 1_555
F1D C5D 1_555 1_555
C4D C6 1_555 1_555
C2D C4D 1_555 1_555
C1D C2D 1_555 1_555
N1D C1D 1_555 1_555
C3D C2D 1_555 1_555
N2D C3D 1_555 1_555
C8F N3 1_555 1_555
C7F C7 1_555 1_555
H1F C7F 1_555 1_555
C9F C8F 1_555 1_555
C10F C9F 1_555 1_555
N4F Mg1 1_555 1_555
C13F N4F 1_555 1_555
C12F C13F 1_555 1_555
C11F C10F 1_555 1_555
H2F C11F 1_555 1_555
H3F C12F 1_555 1_555
C14F C13F 1_555 1_555
C15F N5 1_555 1_555
C16F C16 1_555 1_555
H4F C16F 1_555 1_555
C23F C14F 1_555 1_555
C24F C23F 1_555 1_555
H7F C24F 1_555 1_555
C25F C24F 1_555 1_555
O4F C25F 1_555 1_555
C32F O4F 1_555 1_555
H18F C32F 1_555 1_555
H19F C32F 1_555 1_555
H20F C32F 1_555 1_555
C26F C25F 1_555 1_555
O5F C26F 1_555 1_555
C33F O5F 1_555 1_555
H21F C33F 1_555 1_555
H22F C33F 1_555 1_555
H23F C33F 1_555 1_555
C27F C26F 1_555 1_555
O6F C27F 1_555 1_555
C34F O6F 1_555 1_555
H24F C34F 1_555 1_555
H25F C34F 1_555 1_555
H26F C34F 1_555 1_555
C28F C23F 1_555 1_555
H8F C28F 1_555 1_555
C17F C9F 1_555 1_555
C18F C17F 1_555 1_555
H5F C18F 1_555 1_555
C19F C18F 1_555 1_555
O1F C19F 1_555 1_555
C29F O1F 1_555 1_555
H9F C29F 1_555 1_555
H10F C29F 1_555 1_555
H11F C29F 1_555 1_555
C20F C19F 1_555 1_555
O2F C20F 1_555 1_555
C30F O2F 1_555 1_555
H12F C30F 1_555 1_555
H13F C30F 1_555 1_555
H14F C30F 1_555 1_555
C21F C20F 1_555 1_555
O3F C21F 1_555 1_555
C31F O3F 1_555 1_555
H15F C31F 1_555 1_555
H16F C31F 1_555 1_555
H17F C31F 1_555 1_555
C22F C17F 1_555 1_555
H6F C22F 1_555 1_555
C41F C41 1_555 1_555
Cl3F C41F 1_555 1_555
C42F C41F 1_555 1_555
H31F C42F 1_555 1_555
C43F C43 1_555 1_555
H32F C43F 1_555 1_555
N1F Mg1 1_555 1_555
Mg1B N1D 1_555 1_555
C7 C8 1_555 1_555
C9 C10 1_555 1_555
C12 C13 1_555 1_555
C14 C15 1_555 1_555
C21 C22 1_555 1_555
C27 C28 1_555 1_555
C39 C40 1_555 1_555
C5D C4D 1_555 1_555
C8F C7F 1_555 1_555
C10F N4F 1_555 1_555
C12F C11F 1_555 1_555
C14F C15F 1_555 1_555
C15F C16F 1_555 1_555
C27F C28F 1_555 1_555
C21F C22F 1_555 1_555
C42F C43F 1_555 1_555

#END
