
#######################################################################
#
#                 Cambridge Crystallographic Data Centre
#                                CCDC 
#
#######################################################################
#
# If this CIF has been generated from an entry in the Cambridge 
# Structural Database, then it will include bibliographic, chemical, 
# crystal, experimental, refinement or atomic coordinate data resulting 
# from the CCDC's data processing and validation procedures.
#
#######################################################################

data_WUYQOX
_symmetry_cell_setting           monoclinic
_symmetry_space_group_name_H-M   'P 21/n'
_symmetry_Int_Tables_number      14
_space_group_name_Hall           '-P 2yn'
loop_
_symmetry_equiv_pos_site_id
_symmetry_equiv_pos_as_xyz
1 x,y,z
2 1/2-x,1/2+y,1/2-z
3 -x,-y,-z
4 1/2+x,1/2-y,1/2+z
_cell_length_a                   8.6489(11)
_cell_length_b                   15.1579(19)
_cell_length_c                   13.8741(17)
_cell_angle_alpha                90
_cell_angle_beta                 100.356(2)
_cell_angle_gamma                90
_cell_volume                     1789.25
loop_
_atom_site_label
_atom_site_type_symbol
_atom_site_fract_x
_atom_site_fract_y
_atom_site_fract_z
Ag1 Ag 0.57325(2) 0.095659(14) 0.454951(15)
S1 S 0.17036(7) 0.04859(4) 0.34282(4)
S2 S 0.75238(8) 0.29439(5) 0.55233(5)
C1 C -0.0335(3) 0.06285(17) 0.30050(18)
C2 C -0.2532(3) 0.09216(18) 0.1750(2)
H1 H -0.2984 0.1032 0.1085
C3 C 0.3250(5) 0.2896(2) 0.3631(3)
H2 H 0.3508 0.3016 0.4336
H3 H 0.2939 0.3446 0.3278
H4 H 0.4172 0.2649 0.3409
C4 C -0.0919(3) 0.08027(18) 0.20238(19)
H5 H -0.0241 0.0839 0.1557
C5 C 0.1812(4) 0.1751(2) 0.6566(2)
H6 H 0.1054 0.1941 0.6939
C6 C -0.3465(3) 0.08774(17) 0.2455(2)
H7 H -0.4567 0.0954 0.2259
C7 C 0.1435(3) 0.17197(18) 0.5547(2)
H8 H 0.0420 0.1887 0.5213
C8 C 0.2573(3) 0.14392(17) 0.50347(19)
C9 C 0.4369(3) 0.12341(18) 0.6462(2)
H9 H 0.5389 0.1062 0.6782
C10 C -0.1340(3) 0.06065(17) 0.36705(19)
H10 H -0.0919 0.0499 0.4341
C11 C 0.1916(4) 0.22463(19) 0.3433(2)
H11 H 0.0971 0.2508 0.3629
H12 H 0.1667 0.2119 0.2722
C12 C 0.3290(4) 0.1506(2) 0.7025(2)
H13 H 0.3568 0.1524 0.7719
C13 C 0.7662(5) 0.3978(2) 0.4894(3)
O1 O 0.1899(2) -0.01820(12) 0.41730(13)
O2 O 0.2434(2) 0.03814(13) 0.25938(14)
O3 O 0.8830(3) 0.29713(15) 0.63249(16)
O4 O 0.7668(2) 0.23007(14) 0.47720(15)
O5 O 0.5996(2) 0.29818(14) 0.57969(15)
N1 N 0.2322(3) 0.14079(15) 0.39812(16)
F1 F 0.6578(3) 0.40263(14) 0.40733(16)
F2 F 0.9064(3) 0.40488(15) 0.46013(17)
F3 F 0.7499(4) 0.46743(13) 0.54384(16)
N2 N -0.2890(3) 0.07310(14) 0.34050(16)
N3 N 0.4026(3) 0.12041(15) 0.54795(16)
Ag1_2 Ag -0.42675(2) 0.095659(14) 0.454951(15)
N2_2 N 0.7110(3) 0.07310(14) 0.34050(16)
loop_
_geom_bond_atom_site_label_1
_geom_bond_atom_site_label_2
_geom_bond_site_symmetry_1
_geom_bond_site_symmetry_2
Ag1 O4 1_555 1_555
S1 C1 1_555 1_555
S2 C13 1_555 1_555
C1 C4 1_555 1_555
C2 H1 1_555 1_555
C3 H2 1_555 1_555
H3 C3 1_555 1_555
H4 C3 1_555 1_555
C4 C2 1_555 1_555
H5 C4 1_555 1_555
C5 H6 1_555 1_555
C6 C2 1_555 1_555
H7 C6 1_555 1_555
C7 C5 1_555 1_555
H8 C7 1_555 1_555
C8 C7 1_555 1_555
C9 H9 1_555 1_555
C10 C1 1_555 1_555
H10 C10 1_555 1_555
C11 C3 1_555 1_555
H11 C11 1_555 1_555
H12 C11 1_555 1_555
C12 C5 1_555 1_555
H13 C12 1_555 1_555
C13 F1 1_555 1_555
O1 S1 1_555 1_555
O2 S1 1_555 1_555
O3 S2 1_555 1_555
O4 S2 1_555 1_555
O5 S2 1_555 1_555
N1 S1 1_555 1_555
F2 C13 1_555 1_555
F3 C13 1_555 1_555
N2 C6 1_555 1_555
N3 Ag1 1_555 1_555
Ag1_2 N2 1_555 1_555
N2_2 Ag1 1_555 1_555
C8 N1 1_555 1_555
C8 N3 1_555 1_555
C9 C12 1_555 1_555
C9 N3 1_555 1_555
C10 N2 1_555 1_555
C11 N1 1_555 1_555

#END
