
#######################################################################
#
#                 Cambridge Crystallographic Data Centre
#                                CCDC 
#
#######################################################################
#
# If this CIF has been generated from an entry in the Cambridge 
# Structural Database, then it will include bibliographic, chemical, 
# crystal, experimental, refinement or atomic coordinate data resulting 
# from the CCDC's data processing and validation procedures.
#
#######################################################################

data_WUYRIS
_symmetry_cell_setting           monoclinic
_symmetry_space_group_name_H-M   'P 21'
_symmetry_Int_Tables_number      4
_space_group_name_Hall           'P 2yb'
loop_
_symmetry_equiv_pos_site_id
_symmetry_equiv_pos_as_xyz
1 x,y,z
2 -x,1/2+y,-z
_cell_length_a                   8.4190(16)
_cell_length_b                   14.489(3)
_cell_length_c                   9.1076(18)
_cell_angle_alpha                90
_cell_angle_beta                 112.637(2)
_cell_angle_gamma                90
_cell_volume                     1025.38
loop_
_atom_site_label
_atom_site_type_symbol
_atom_site_fract_x
_atom_site_fract_y
_atom_site_fract_z
S1 S -0.9263(2) -0.21441(13) -0.1511(2)
S2 S -0.4975(2) -0.07999(11) 0.5025(2)
N1 N -0.3540(7) -0.1834(3) 0.0874(6)
N2 N -0.4072(7) 0.1705(3) 0.3635(6)
O1 O -0.8474(6) -0.2371(6) 0.0153(5)
N3 N -0.3565(7) -0.1514(3) 0.4907(6)
H1 H -0.3126 -0.1929 0.5659
O2 O -1.0836(7) -0.1598(4) -0.1982(6)
C1 C -0.4687(9) 0.0849(5) 0.3711(8)
H2 H -0.5556 0.0600 0.2784
O3 O -0.8094(6) -0.1842(3) -0.2234(6)
C2 C -0.2834(8) 0.2048(4) 0.4975(7)
H3 H -0.2389 0.2648 0.4946
C3 C -0.4101(8) 0.0324(4) 0.5081(7)
C4 C -0.2189(9) 0.1546(5) 0.6404(8)
H4 H -0.1328 0.1805 0.7326
C5 C -0.3006(8) -0.1488(4) 0.3602(7)
C6 C -0.0806(8) -0.1206(5) 0.2592(8)
H5 H 0.0312 -0.0997 0.2728
C7 C -0.1938(8) -0.1532(4) 0.1118(7)
H6 H -0.1569 -0.1542 0.0255
C8 C -0.4063(8) -0.1808(4) 0.2094(7)
H7 H -0.5191 -0.2014 0.1925
C9 C -0.1339(9) -0.1191(4) 0.3843(8)
H8 H -0.0583 -0.0981 0.4861
C10 C -0.2818(9) 0.0676(5) 0.6452(8)
H9 H -0.2387 0.0320 0.7401
C11 C -1.0030(10) -0.3255(6) -0.2488(11)
F1 F -0.8778(6) -0.3864(3) -0.2226(7)
F2 F -1.1244(8) -0.3599(5) -0.2108(10)
F3 F -1.0747(7) -0.3117(3) -0.4071(6)
O4 O -0.6490(5) -0.0870(3) 0.3587(5)
O5 O -0.5069(6) -0.0978(4) 0.6556(6)
Ag1 Ag -0.49816(6) -0.24839(3) -0.14252(5)
N2A N -0.5928(7) -0.3295(3) -0.3635(6)
Ag1A Ag -0.50184(6) 0.25161(3) 0.14252(5)
Cl1 Cl -0.4562(2) 0.06083(14) -0.0382(2)
Cl2 Cl -0.7611(3) 0.07967(17) -0.3278(2)
Cl3 Cl -0.7948(3) 0.0330(2) -0.0348(3)
C12 C -0.6662(10) 0.0196(5) -0.1473(8)
H10 H -0.6599 -0.0474 -0.1706
loop_
_geom_bond_atom_site_label_1
_geom_bond_atom_site_label_2
_geom_bond_site_symmetry_1
_geom_bond_site_symmetry_2
S1 O1 1_555 1_555
S2 N3 1_555 1_555
N1 C7 1_555 1_555
N2 C1 1_555 1_555
N3 H1 1_555 1_555
O2 S1 1_555 1_555
C1 H2 1_555 1_555
O3 S1 1_555 1_555
C2 N2 1_555 1_555
H3 C2 1_555 1_555
C3 S2 1_555 1_555
C4 C2 1_555 1_555
H4 C4 1_555 1_555
C5 N3 1_555 1_555
C6 H5 1_555 1_555
C7 C6 1_555 1_555
H6 C7 1_555 1_555
C8 N1 1_555 1_555
H7 C8 1_555 1_555
C9 C5 1_555 1_555
H8 C9 1_555 1_555
C10 C3 1_555 1_555
H9 C10 1_555 1_555
C11 S1 1_555 1_555
F1 C11 1_555 1_555
F2 C11 1_555 1_555
F3 C11 1_555 1_555
O4 S2 1_555 1_555
O5 S2 1_555 1_555
Ag1 N1 1_555 1_555
Cl1 C12 1_555 1_555
Cl2 C12 1_555 1_555
Cl3 C12 1_555 1_555
C12 H10 1_555 1_555
N2A Ag1 1_555 1_555
Ag1A N2 1_555 1_555
C1 C3 1_555 1_555
O3 Ag1 1_555 1_555
C4 C10 1_555 1_555
C5 C8 1_555 1_555
C6 C9 1_555 1_555

#END
