
#######################################################################
#
#                 Cambridge Crystallographic Data Centre
#                                CCDC 
#
#######################################################################
#
# If this CIF has been generated from an entry in the Cambridge 
# Structural Database, then it will include bibliographic, chemical, 
# crystal, experimental, refinement or atomic coordinate data resulting 
# from the CCDC's data processing and validation procedures.
#
#######################################################################

data_WUYXUK
_symmetry_cell_setting           triclinic
_symmetry_space_group_name_H-M   'P -1'
_symmetry_Int_Tables_number      2
_space_group_name_Hall           '-P 1'
loop_
_symmetry_equiv_pos_site_id
_symmetry_equiv_pos_as_xyz
1 x,y,z
2 -x,-y,-z
_cell_length_a                   9.5276(14)
_cell_length_b                   11.3497(17)
_cell_length_c                   11.9147(18)
_cell_angle_alpha                101.551(2)
_cell_angle_beta                 92.166(2)
_cell_angle_gamma                93.645(2)
_cell_volume                     1258.07
loop_
_atom_site_label
_atom_site_type_symbol
_atom_site_fract_x
_atom_site_fract_y
_atom_site_fract_z
Zn1 Zn 0.10814(4) 0.03894(4) 0.19847(3)
C1 C 0.4261(4) 0.1203(3) 0.1553(3)
H1 H 0.4089 0.0756 0.0810
C2 C 0.5608(4) 0.1731(3) 0.1869(3)
H2 H 0.6320 0.1632 0.1353
C3 C 0.5869(4) 0.2402(3) 0.2957(3)
H3 H 0.6766 0.2760 0.3187
C4 C 0.4785(4) 0.2549(3) 0.3719(3)
C5 C 0.4978(4) 0.3273(3) 0.4888(3)
C6 C 0.6384(4) 0.4471(3) 0.6314(3)
C7 C 0.7708(4) 0.5075(3) 0.6732(4)
H4 H 0.8479 0.5005 0.6274
C8 C 0.7833(5) 0.5759(3) 0.7815(4)
H5 H 0.8696 0.6162 0.8088
C9 C 0.6689(5) 0.5869(3) 0.8525(4)
H6 H 0.6808 0.6348 0.9258
C10 C 0.5401(4) 0.5288(3) 0.8163(3)
H7 H 0.4652 0.5358 0.8645
C11 C 0.5230(5) 0.4572(3) 0.7033(3)
C12 C 0.3822(4) 0.3381(3) 0.5601(3)
C13 C 0.2458(4) 0.2768(3) 0.5188(3)
C14 C 0.1295(4) 0.2834(3) 0.5849(3)
H8 H 0.1361 0.3311 0.6583
C15 C 0.0049(4) 0.2206(4) 0.5436(3)
H9 H -0.0735 0.2245 0.5881
C16 C -0.0011(4) 0.1503(3) 0.4328(3)
H10 H -0.0852 0.1067 0.4043
C17 C 0.2307(4) 0.2064(3) 0.4082(3)
C18 C 0.3470(4) 0.1967(3) 0.3329(3)
C19 C 0.2252(4) -0.1612(3) 0.1171(4)
C20 C 0.2974(4) -0.2785(3) 0.0973(3)
H11 H 0.3979 -0.2603 0.0939
H12 H 0.2832 -0.3167 0.1623
C21 C 0.1223(4) -0.4268(3) 0.0018(3)
C22 C 0.0220(4) -0.3937(3) 0.0795(3)
H13 H 0.0363 -0.3217 0.1331
C23 C 0.0999(4) -0.5334(3) -0.0786(3)
H14 H 0.1669 -0.5560 -0.1320
C24 C -0.1922(4) -0.1007(3) 0.1645(3)
C25 C -0.3183(3) -0.1100(3) 0.2373(3)
H15 H -0.3990 -0.0795 0.2033
H16 H -0.3417 -0.1938 0.2399
C26 C -0.3971(4) -0.0245(3) 0.4224(3)
C27 C -0.3647(4) 0.0466(3) 0.5286(3)
H17 H -0.2725 0.0782 0.5481
C28 C -0.4664(4) 0.0718(3) 0.6063(3)
H18 H -0.4435 0.1205 0.6781
N1 N 0.1083(3) 0.1432(2) 0.3663(2)
N2 N 0.3207(3) 0.1300(2) 0.2249(2)
N3 N 0.3940(3) 0.4022(2) 0.6675(2)
N4 N 0.6251(3) 0.3804(2) 0.5221(3)
O1 O 0.1949(3) -0.1193(2) 0.2177(2)
O2 O 0.2042(3) -0.1102(2) 0.0365(2)
O3 O 0.2485(3) -0.3608(2) -0.0042(2)
O4 O -0.0908(2) -0.0299(2) 0.2081(2)
O5 O -0.2064(3) -0.1652(2) 0.0673(2)
O6 O -0.2873(2) -0.0425(2) 0.34976(19)
O7 O 0.0439(4) 0.1455(2) 0.0966(2)
H19 H 0.092(3) 0.147(3) 0.044(3)
H20 H -0.035(4) 0.132(4) 0.071(4)
Zn1A Zn -1.10814(4) -0.03894(4) 0.80153(3)
Zn1A_2 Zn -0.10814(4) -1.03894(4) -0.19847(3)
C1A C -1.4261(4) -0.1203(3) 0.8447(3)
H1A H -1.4089 -0.0756 0.9190
C2A C -1.5608(4) -0.1731(3) 0.8131(3)
H2A H -1.6320 -0.1632 0.8647
C3A C -1.5869(4) -0.2402(3) 0.7043(3)
H3A H -1.6766 -0.2760 0.6813
C4A C -1.4785(4) -0.2549(3) 0.6281(3)
C5A C -1.4978(4) -0.3273(3) 0.5112(3)
C6A C -1.6384(4) -0.4471(3) 0.3686(3)
C7A C -1.7708(4) -0.5075(3) 0.3268(4)
H4A H -1.8479 -0.5005 0.3726
C8A C -1.7833(5) -0.5759(3) 0.2185(4)
H5A H -1.8696 -0.6162 0.1912
C9A C -1.6689(5) -0.5869(3) 0.1475(4)
H6A H -1.6808 -0.6348 0.0742
C10A C -1.5401(4) -0.5288(3) 0.1837(3)
H7A H -1.4652 -0.5358 0.1355
C11A C -1.5230(5) -0.4572(3) 0.2967(3)
C12A C -1.3822(4) -0.3381(3) 0.4399(3)
C13A C -1.2458(4) -0.2768(3) 0.4812(3)
C14A C -1.1295(4) -0.2834(3) 0.4151(3)
H8A H -1.1361 -0.3311 0.3417
C15A C -1.0049(4) -0.2206(4) 0.4564(3)
H9A H -0.9265 -0.2245 0.4119
C16A C -0.9989(4) -0.1503(3) 0.5672(3)
H10A H -0.9148 -0.1067 0.5957
C17A C -1.2307(4) -0.2064(3) 0.5918(3)
C18A C -1.3470(4) -0.1967(3) 0.6671(3)
C19A C -0.2252(4) -0.8388(3) -0.1171(4)
C20A C -0.2974(4) -0.7215(3) -0.0973(3)
H11A H -0.3979 -0.7397 -0.0939
H12A H -0.2832 -0.6833 -0.1623
C21A C -0.1223(4) -0.5732(3) -0.0018(3)
C22A C -0.0220(4) -0.6063(3) -0.0795(3)
H13A H -0.0363 -0.6783 -0.1331
C23A C -0.0999(4) -0.4666(3) 0.0786(3)
H14A H -0.1669 -0.4440 0.1320
C24A C -0.8078(4) 0.1007(3) 0.8355(3)
C25A C -0.6817(3) 0.1100(3) 0.7627(3)
H15A H -0.6010 0.0795 0.7967
H16A H -0.6583 0.1938 0.7601
C26A C -0.6029(4) 0.0245(3) 0.5776(3)
C27A C -0.6353(4) -0.0466(3) 0.4714(3)
H17A H -0.7275 -0.0782 0.4519
C28A C -0.5336(4) -0.0718(3) 0.3937(3)
H18A H -0.5565 -0.1205 0.3219
N1A N -1.1083(3) -0.1432(2) 0.6337(2)
N2A N -1.3207(3) -0.1300(2) 0.7751(2)
N3A N -1.3940(3) -0.4022(2) 0.3325(2)
N4A N -1.6251(3) -0.3804(2) 0.4779(3)
O1A O -0.1949(3) -0.8807(2) -0.2177(2)
O1A_2 O -1.1949(3) 0.1193(2) 0.7823(2)
O2A O -0.2042(3) -0.8898(2) -0.0365(2)
O2A_2 O -1.2042(3) 0.1102(2) 0.9635(2)
O3A O -0.2485(3) -0.6392(2) 0.0042(2)
O4A O -0.9092(2) 0.0299(2) 0.7919(2)
O5A O -0.7936(3) 0.1652(2) 0.9327(2)
O6A O -0.7127(2) 0.0425(2) 0.65024(19)
O7A O -1.0439(4) -0.1455(2) 0.9034(2)
H19A H -1.092(3) -0.147(3) 0.956(3)
H20A H -0.965(4) -0.132(4) 0.929(4)
loop_
_geom_bond_atom_site_label_1
_geom_bond_atom_site_label_2
_geom_bond_site_symmetry_1
_geom_bond_site_symmetry_2
Zn1 N1 1_555 1_555
C1 H1 1_555 1_555
C2 C1 1_555 1_555
H2 C2 1_555 1_555
C3 C2 1_555 1_555
H3 C3 1_555 1_555
C4 C3 1_555 1_555
C5 C4 1_555 1_555
C6 C7 1_555 1_555
C7 H4 1_555 1_555
C8 C7 1_555 1_555
H5 C8 1_555 1_555
C9 C8 1_555 1_555
H6 C9 1_555 1_555
C10 C9 1_555 1_555
H7 C10 1_555 1_555
C11 C6 1_555 1_555
C12 C5 1_555 1_555
C13 C12 1_555 1_555
C14 C13 1_555 1_555
H8 C14 1_555 1_555
C15 C14 1_555 1_555
H9 C15 1_555 1_555
C16 C15 1_555 1_555
H10 C16 1_555 1_555
C17 C13 1_555 1_555
C18 C4 1_555 1_555
C19 C20 1_555 1_555
C20 H11 1_555 1_555
H12 C20 1_555 1_555
C21 C22 1_555 1_555
C22 H13 1_555 1_555
C23 C21 1_555 1_555
H14 C23 1_555 1_555
C24 C25 1_555 1_555
C25 H15 1_555 1_555
H16 C25 1_555 1_555
C26 C27 1_555 1_555
C27 H17 1_555 1_555
C28 C27 1_555 1_555
H18 C28 1_555 1_555
N1 C16 1_555 1_555
N2 Zn1 1_555 1_555
N3 C11 1_555 1_555
N4 C5 1_555 1_555
O1 Zn1 1_555 1_555
O2 Zn1 1_555 1_555
O3 C20 1_555 1_555
O4 Zn1 1_555 1_555
O5 C24 1_555 1_555
O6 C25 1_555 1_555
O7 Zn1 1_555 1_555
H19 O7 1_555 1_555
H20 O7 1_555 1_555
Zn1A N1A 1_555 1_555
Zn1A_2 O1A 1_555 1_555
C1A H1A 1_555 1_555
C2A C1A 1_555 1_555
H2A C2A 1_555 1_555
C3A C2A 1_555 1_555
H3A C3A 1_555 1_555
C4A C3A 1_555 1_555
C5A C4A 1_555 1_555
C6A C7A 1_555 1_555
C7A H4A 1_555 1_555
C8A C7A 1_555 1_555
H5A C8A 1_555 1_555
C9A C8A 1_555 1_555
H6A C9A 1_555 1_555
C10A C9A 1_555 1_555
H7A C10A 1_555 1_555
C11A C6A 1_555 1_555
C12A C5A 1_555 1_555
C13A C12A 1_555 1_555
C14A C13A 1_555 1_555
H8A C14A 1_555 1_555
C15A C14A 1_555 1_555
H9A C15A 1_555 1_555
C16A C15A 1_555 1_555
H10A C16A 1_555 1_555
C17A C13A 1_555 1_555
C18A C4A 1_555 1_555
C19A C20A 1_555 1_555
C20A H11A 1_555 1_555
H12A C20A 1_555 1_555
C21A C22A 1_555 1_555
C22A C23 1_555 1_555
H13A C22A 1_555 1_555
C23A C22 1_555 1_555
H14A C23A 1_555 1_555
C24A C25A 1_555 1_555
C25A H15A 1_555 1_555
H16A C25A 1_555 1_555
C26A C28 1_555 1_555
C27A C26A 1_555 1_555
H17A C27A 1_555 1_555
C28A C26 1_555 1_555
H18A C28A 1_555 1_555
N1A C16A 1_555 1_555
N2A Zn1A 1_555 1_555
N3A C11A 1_555 1_555
N4A C5A 1_555 1_555
O1A C19A 1_555 1_555
O1A_2 Zn1A 1_555 1_555
O2A Zn1A_2 1_555 1_555
O2A_2 Zn1A 1_555 1_555
O3A C20A 1_555 1_555
O4A Zn1A 1_555 1_555
O5A C24A 1_555 1_555
O6A C25A 1_555 1_555
O7A Zn1A 1_555 1_555
H19A O7A 1_555 1_555
H20A O7A 1_555 1_555
C1 N2 1_555 1_555
C6 N4 1_555 1_555
C10 C11 1_555 1_555
C12 N3 1_555 1_555
C17 C18 1_555 1_555
C17 N1 1_555 1_555
C18 N2 1_555 1_555
C19 O1 1_555 1_555
C19 O2 1_555 1_555
C21 O3 1_555 1_555
C24 O4 1_555 1_555
C26 O6 1_555 1_555
C1A N2A 1_555 1_555
C6A N4A 1_555 1_555
C10A C11A 1_555 1_555
C12A N3A 1_555 1_555
C17A C18A 1_555 1_555
C17A N1A 1_555 1_555
C18A N2A 1_555 1_555
C19A O2A 1_555 1_555
C21A C23A 1_555 1_555
C21A O3A 1_555 1_555
C24A O4A 1_555 1_555
C26A O6A 1_555 1_555
C27A C28A 1_555 1_555

#END
