
#######################################################################
#
#                 Cambridge Crystallographic Data Centre
#                                CCDC 
#
#######################################################################
#
# If this CIF has been generated from an entry in the Cambridge 
# Structural Database, then it will include bibliographic, chemical, 
# crystal, experimental, refinement or atomic coordinate data resulting 
# from the CCDC's data processing and validation procedures.
#
#######################################################################

data_WUYXOD
_symmetry_cell_setting           orthorhombic
_symmetry_space_group_name_H-M   'P 21 21 2'
_symmetry_Int_Tables_number      18
_space_group_name_Hall           'P 2 2ab'
loop_
_symmetry_equiv_pos_site_id
_symmetry_equiv_pos_as_xyz
1 x,y,z
2 -x,-y,z
3 1/2-x,1/2+y,-z
4 1/2+x,1/2-y,-z
_cell_length_a                   18.3845(8)
_cell_length_b                   5.7884(3)
_cell_length_c                   7.2598(4)
_cell_angle_alpha                90
_cell_angle_beta                 90
_cell_angle_gamma                90
_cell_volume                     772.565
loop_
_atom_site_label
_atom_site_type_symbol
_atom_site_fract_x
_atom_site_fract_y
_atom_site_fract_z
Co1 Co 0.08505(4) -0.39630(12) 1.2428(2)
O1 O 0.0842(3) -0.3889(13) 1.5259(6)
O2 O 0.0848(3) -0.3938(12) 1.9559(5)
O3 O -0.0261(2) -0.2907(6) 1.2408(10)
O4 O -0.0950(2) 0.0297(6) 1.2392(11)
N1 N 0.1947(2) -0.4607(7) 1.2433(11)
N2 N 0.3012(3) -0.6151(12) 1.1944(9)
H1 H 0.3335(3) -0.7110(12) 1.1557(9)
C1 C 0.0370(5) -0.4522(19) 1.6402(11)
C2 C 0.0355(5) -0.4530(20) 1.8403(11)
C3 C -0.0357(3) -0.0736(11) 1.2400(14)
C4 C 0.2295(4) -0.6321(13) 1.1675(9)
H2 H 0.2072(4) -0.7514(13) 1.1029(9)
C5 C 0.2474(4) -0.3285(12) 1.3220(9)
H3 H 0.2392(4) -0.1927(12) 1.3872(9)
C6 C 0.3138(4) -0.4247(14) 1.2910(12)
H4 H 0.3587(4) -0.3687(14) 1.3296(12)
C1A C -0.0370(5) -0.5478(19) 1.6402(11)
O1A O -0.0842(3) -0.6111(13) 1.5259(6)
C2A C -0.0355(5) -0.5470(20) 1.8403(11)
O2A O -0.0848(3) -0.6062(12) 1.9559(5)
C3A C 0.0357(3) 0.0736(11) 1.2400(14)
O3A O 0.0261(2) 0.2907(6) 1.2408(10)
O4A O 0.0950(2) -0.0297(6) 1.2392(11)
Co1A Co -0.08505(4) -0.60370(12) 1.2428(2)
N1A N -0.1947(2) -0.5393(7) 1.2433(11)
N2A N -0.3012(3) -0.3849(12) 1.1944(9)
H1A H -0.3335(3) -0.2890(12) 1.1557(9)
C4A C -0.2295(4) -0.3679(13) 1.1675(9)
H2A H -0.2072(4) -0.2486(13) 1.1029(9)
C5A C -0.2474(4) -0.6715(12) 1.3220(9)
H3A H -0.2392(4) -0.8073(12) 1.3872(9)
C6A C -0.3138(4) -0.5753(14) 1.2910(12)
H4A H -0.3587(4) -0.6313(14) 1.3296(12)
O2_2 O 0.0848(3) -0.3938(12) 0.9559(5)
O3A_2 O 0.0261(2) -0.7093(6) 1.2408(10)
Co1_2 Co 0.08505(4) -0.39630(12) 2.2428(2)
Co1A_2 Co -0.08505(4) 0.39630(12) 1.2428(2)
Co1A_3 Co -0.08505(4) -0.60370(12) 2.2428(2)
Co1_3 Co 0.08505(4) 0.60370(12) 1.2428(2)
O2A_2 O -0.0848(3) -0.6062(12) 0.9559(5)
O4_2 O -0.0950(2) -0.9703(6) 1.2392(11)
loop_
_geom_bond_atom_site_label_1
_geom_bond_atom_site_label_2
_geom_bond_site_symmetry_1
_geom_bond_site_symmetry_2
Co1 O1 1_555 1_555
O1 C1 1_555 1_555
O2 C2 1_555 1_555
O3 Co1 1_555 1_555
O4 C3 1_555 1_555
N1 Co1 1_555 1_555
N2 H1 1_555 1_555
C1 C2 1_555 1_555
C2 C2A 1_555 1_555
C3 O3 1_555 1_555
C4 N1 1_555 1_555
H2 C4 1_555 1_555
C5 N1 1_555 1_555
H3 C5 1_555 1_555
C6 N2 1_555 1_555
H4 C6 1_555 1_555
C1A C1 1_555 1_555
O1A C1A 1_555 1_555
C2A C1A 1_555 1_555
O2A C2A 1_555 1_555
C3A C3 1_555 1_555
O3A C3A 1_555 1_555
O4A Co1 1_555 1_555
Co1A O3 1_555 1_555
N1A Co1A 1_555 1_555
N2A H1A 1_555 1_555
C4A N1A 1_555 1_555
H2A C4A 1_555 1_555
C5A N1A 1_555 1_555
H3A C5A 1_555 1_555
C6A N2A 1_555 1_555
H4A C6A 1_555 1_555
O2_2 Co1 1_555 1_555
O3A_2 Co1 1_555 1_555
Co1_2 O2 1_555 1_555
Co1A_2 O4 1_555 1_555
Co1A_3 O2A 1_555 1_555
Co1_3 O3A 1_555 1_555
O2A_2 Co1A 1_555 1_555
O4_2 Co1A 1_555 1_555
N2 C4 1_555 1_555
C5 C6 1_555 1_555
O1A Co1A 1_555 1_555
C3A O4A 1_555 1_555
O3A Co1A_2 1_555 1_555
Co1A O3A_2 1_555 1_555
N2A C4A 1_555 1_555
C5A C6A 1_555 1_555

#END
