
#######################################################################
#
#                 Cambridge Crystallographic Data Centre
#                                CCDC 
#
#######################################################################
#
# If this CIF has been generated from an entry in the Cambridge 
# Structural Database, then it will include bibliographic, chemical, 
# crystal, experimental, refinement or atomic coordinate data resulting 
# from the CCDC's data processing and validation procedures.
#
#######################################################################

data_WUYYAR
_symmetry_cell_setting           triclinic
_symmetry_space_group_name_H-M   'P -1'
_symmetry_Int_Tables_number      2
_space_group_name_Hall           '-P 1'
loop_
_symmetry_equiv_pos_site_id
_symmetry_equiv_pos_as_xyz
1 x,y,z
2 -x,-y,-z
_cell_length_a                   8.1485(16)
_cell_length_b                   9.9529(19)
_cell_length_c                   12.467(2)
_cell_angle_alpha                110.590(2)
_cell_angle_beta                 96.225(4)
_cell_angle_gamma                95.175(2)
_cell_volume                     931.931
loop_
_atom_site_label
_atom_site_type_symbol
_atom_site_fract_x
_atom_site_fract_y
_atom_site_fract_z
Fe1 Fe 1.0000 1.0000 0.0000
C1 C 0.9150(4) 0.9335(4) 0.2270(3)
H1 H 0.9364 0.8400 0.1872
C2 C 0.8573(5) 0.9610(4) 0.3317(3)
H2 H 0.8442 0.8883 0.3620
C3 C 0.8194(4) 1.0968(4) 0.3908(3)
H3 H 0.7755 1.1163 0.4597
C4 C 0.8486(4) 1.2056(3) 0.3449(3)
C5 C 0.8146(4) 1.3537(4) 0.4033(3)
C6 C 0.7104(4) 1.5210(4) 0.5478(3)
C7 C 0.6365(4) 1.5596(4) 0.6510(3)
H4 H 0.6113 1.4912 0.6841
C8 C 0.6031(4) 1.6979(4) 0.7006(3)
H5 H 0.5555 1.7234 0.7683
C9 C 0.6389(5) 1.8025(4) 0.6520(3)
H6 H 0.6138 1.8958 0.6875
C10 C 0.7098(4) 1.7695(4) 0.5535(3)
H7 H 0.7324 1.8399 0.5221
C11 C 0.7491(4) 1.6280(4) 0.4991(3)
C12 C 0.8571(4) 1.4613(4) 0.3559(3)
C13 C 0.9432(4) 1.4247(3) 0.2543(3)
C14 C 1.0129(4) 1.5305(4) 0.2163(3)
H8 H 1.0017 1.6274 0.2534
C15 C 1.0977(4) 1.4895(4) 0.1238(3)
H9 H 1.1485 1.5584 0.0990
C16 C 1.1067(4) 1.3438(4) 0.0677(3)
H10 H 1.1610 1.3170 0.0030
C17 C 0.9642(3) 1.2809(3) 0.1963(3)
C18 C 0.9120(4) 1.1686(3) 0.2405(3)
C19 C 1.2987(4) 0.8931(3) 0.0877(3)
C20 C 1.4866(4) 0.8938(3) 0.0969(3)
H11 H 1.5185 0.8748 0.0207
H12 H 1.5412 0.9895 0.1472
C21 C 1.5169(4) 0.6471(4) 0.0673(3)
C22 C 1.4317(4) 0.5948(4) -0.0446(3)
H13 H 1.3846 0.6581 -0.0748
C23 C 1.5837(4) 0.5505(4) 0.1116(3)
H14 H 1.6395 0.5842 0.1873
N1 N 0.9417(3) 1.0326(3) 0.1800(2)
N2 N 1.0426(3) 1.2407(3) 0.1008(2)
N3 N 0.7451(3) 1.3835(3) 0.4990(2)
N4 N 0.8242(3) 1.5964(3) 0.4035(2)
O1 O 1.2453(3) 0.9801(2) 0.04123(19)
O2 O 1.2147(3) 0.8138(2) 0.1238(2)
O3 O 1.5438(3) 0.7898(2) 0.1407(2)
Fe1_2 Fe 2.0000 0.0000 0.0000
C1A C 1.0850(4) 1.0665(4) -0.2270(3)
H1A H 1.0636 1.1600 -0.1872
C2A C 1.1427(5) 1.0390(4) -0.3317(3)
H2A H 1.1558 1.1117 -0.3620
C3A C 1.1806(4) 0.9032(4) -0.3908(3)
H3A H 1.2245 0.8837 -0.4597
C4A C 1.1514(4) 0.7944(3) -0.3449(3)
C5A C 1.1854(4) 0.6463(4) -0.4033(3)
C6A C 1.2896(4) 0.4790(4) -0.5478(3)
C7A C 1.3635(4) 0.4404(4) -0.6510(3)
H4A H 1.3887 0.5088 -0.6841
C8A C 1.3969(4) 0.3021(4) -0.7006(3)
H5A H 1.4445 0.2766 -0.7683
C9A C 1.3611(5) 0.1975(4) -0.6520(3)
H6A H 1.3862 0.1042 -0.6875
C10A C 1.2902(4) 0.2305(4) -0.5535(3)
H7A H 1.2676 0.1601 -0.5221
C11A C 1.2509(4) 0.3720(4) -0.4991(3)
C12A C 1.1429(4) 0.5387(4) -0.3559(3)
C13A C 1.0568(4) 0.5753(3) -0.2543(3)
C14A C 0.9871(4) 0.4695(4) -0.2163(3)
H8A H 0.9983 0.3726 -0.2534
C15A C 0.9023(4) 0.5105(4) -0.1238(3)
H9A H 0.8515 0.4416 -0.0990
C16A C 0.8933(4) 0.6562(4) -0.0677(3)
H10A H 0.8390 0.6830 -0.0030
C17A C 1.0358(3) 0.7191(3) -0.1963(3)
C18A C 1.0880(4) 0.8314(3) -0.2405(3)
C19A C 1.7013(4) 0.1069(3) -0.0877(3)
C20A C 1.5134(4) 0.1062(3) -0.0969(3)
H11A H 1.4815 0.1252 -0.0207
H12A H 1.4588 0.0105 -0.1472
C21A C 1.4831(4) 0.3529(4) -0.0673(3)
C22A C 1.5683(4) 0.4052(4) 0.0446(3)
H13A H 1.6154 0.3419 0.0748
C23A C 1.4163(4) 0.4495(4) -0.1116(3)
H14A H 1.3605 0.4158 -0.1873
N1A N 1.0583(3) 0.9674(3) -0.1800(2)
N2A N 0.9574(3) 0.7593(3) -0.1008(2)
N3A N 1.2549(3) 0.6165(3) -0.4990(2)
N4A N 1.1758(3) 0.4036(3) -0.4035(2)
O1A O 1.7547(3) 0.0199(2) -0.04123(19)
O1A_2 O 0.7547(3) 1.0199(2) -0.04123(19)
O2A O 1.7853(3) 0.1862(2) -0.1238(2)
O3A O 1.4562(3) 0.2102(2) -0.1407(2)
O4 O 1.3320(9) 0.8484(6) 0.3615(4)
H15 H 1.312(11) 0.829(9) 0.283(2)
H16 H 1.419(9) 0.800(10) 0.370(7)
loop_
_geom_bond_atom_site_label_1
_geom_bond_atom_site_label_2
_geom_bond_site_symmetry_1
_geom_bond_site_symmetry_2
Fe1 N1 1_555 1_555
C1 H1 1_555 1_555
C2 C1 1_555 1_555
H2 C2 1_555 1_555
C3 C2 1_555 1_555
H3 C3 1_555 1_555
C4 C3 1_555 1_555
C5 C4 1_555 1_555
C6 C7 1_555 1_555
C7 H4 1_555 1_555
C8 C7 1_555 1_555
H5 C8 1_555 1_555
C9 C8 1_555 1_555
H6 C9 1_555 1_555
C10 C9 1_555 1_555
H7 C10 1_555 1_555
C11 C6 1_555 1_555
C12 C5 1_555 1_555
C13 C12 1_555 1_555
C14 C13 1_555 1_555
H8 C14 1_555 1_555
C15 C14 1_555 1_555
H9 C15 1_555 1_555
C16 C15 1_555 1_555
H10 C16 1_555 1_555
C17 C13 1_555 1_555
C18 C4 1_555 1_555
C19 C20 1_555 1_555
C20 H11 1_555 1_555
H12 C20 1_555 1_555
C21 C22 1_555 1_555
C22 H13 1_555 1_555
C23 C21 1_555 1_555
H14 C23 1_555 1_555
N1 C1 1_555 1_555
N2 Fe1 1_555 1_555
N3 C5 1_555 1_555
N4 C11 1_555 1_555
O1 Fe1 1_555 1_555
O2 C19 1_555 1_555
O3 C20 1_555 1_555
O4 H15 1_555 1_555
H16 O4 1_555 1_555
Fe1_2 O1A 1_555 1_555
C1A H1A 1_555 1_555
C2A C1A 1_555 1_555
H2A C2A 1_555 1_555
C3A C2A 1_555 1_555
H3A C3A 1_555 1_555
C4A C3A 1_555 1_555
C5A C4A 1_555 1_555
C6A C7A 1_555 1_555
C7A H4A 1_555 1_555
C8A C7A 1_555 1_555
H5A C8A 1_555 1_555
C9A C8A 1_555 1_555
H6A C9A 1_555 1_555
C10A C9A 1_555 1_555
H7A C10A 1_555 1_555
C11A C6A 1_555 1_555
C12A C5A 1_555 1_555
C13A C12A 1_555 1_555
C14A C13A 1_555 1_555
H8A C14A 1_555 1_555
C15A C14A 1_555 1_555
H9A C15A 1_555 1_555
C16A C15A 1_555 1_555
H10A C16A 1_555 1_555
C17A C13A 1_555 1_555
C18A C4A 1_555 1_555
C19A C20A 1_555 1_555
C20A H11A 1_555 1_555
H12A C20A 1_555 1_555
C21A C22A 1_555 1_555
C22A C23 1_555 1_555
H13A C22A 1_555 1_555
C23A C22 1_555 1_555
H14A C23A 1_555 1_555
N1A Fe1 1_555 1_555
N2A Fe1 1_555 1_555
N3A C5A 1_555 1_555
N4A C11A 1_555 1_555
O1A C19A 1_555 1_555
O1A_2 Fe1 1_555 1_555
O2A C19A 1_555 1_555
O3A C20A 1_555 1_555
C6 N3 1_555 1_555
C10 C11 1_555 1_555
C12 N4 1_555 1_555
C16 N2 1_555 1_555
C17 C18 1_555 1_555
C17 N2 1_555 1_555
C18 N1 1_555 1_555
C19 O1 1_555 1_555
C21 O3 1_555 1_555
C1A N1A 1_555 1_555
C6A N3A 1_555 1_555
C10A C11A 1_555 1_555
C12A N4A 1_555 1_555
C16A N2A 1_555 1_555
C17A C18A 1_555 1_555
C17A N2A 1_555 1_555
C18A N1A 1_555 1_555
C21A C23A 1_555 1_555
C21A O3A 1_555 1_555

#END
