
#######################################################################
#
#                 Cambridge Crystallographic Data Centre
#                                CCDC 
#
#######################################################################
#
# If this CIF has been generated from an entry in the Cambridge 
# Structural Database, then it will include bibliographic, chemical, 
# crystal, experimental, refinement or atomic coordinate data resulting 
# from the CCDC's data processing and validation procedures.
#
#######################################################################

data_WUYYEU
_symmetry_cell_setting           monoclinic
_symmetry_space_group_name_H-M   'P 21/n'
_symmetry_Int_Tables_number      14
_space_group_name_Hall           '-P 2yn'
loop_
_symmetry_equiv_pos_site_id
_symmetry_equiv_pos_as_xyz
1 x,y,z
2 1/2-x,1/2+y,1/2-z
3 -x,-y,-z
4 1/2+x,1/2-y,1/2+z
_cell_length_a                   12.096(3)
_cell_length_b                   8.242(3)
_cell_length_c                   15.771(3)
_cell_angle_alpha                90
_cell_angle_beta                 107.32(4)
_cell_angle_gamma                90
_cell_volume                     1501
loop_
_atom_site_label
_atom_site_type_symbol
_atom_site_fract_x
_atom_site_fract_y
_atom_site_fract_z
Cu1 Cu 0.17140(4) 0.14249(6) 0.23471(3)
N1 N 0.2211(3) 0.0840(4) 0.3641(2)
N2 N 0.0236(3) 0.0414(4) 0.2404(2)
C1 C 0.1429(3) -0.0097(4) 0.3876(2)
N3 N -0.1175(3) -0.2916(4) 0.4374(3)
C2 C 0.0344(3) -0.0345(4) 0.3189(3)
N4 N 0.0917(3) -0.2364(4) 0.5715(2)
C3 C -0.0534(3) -0.1255(4) 0.3357(3)
C4 C 0.1624(3) -0.0743(5) 0.4716(3)
C5 C -0.0326(3) -0.2002(5) 0.4222(3)
C6 C 0.3205(3) 0.1183(5) 0.4255(3)
H1 H 0.3744 0.1835 0.4103
C7 C 0.2686(3) -0.0376(5) 0.5356(3)
H2 H 0.2858 -0.0788 0.5930
C8 C 0.0722(3) -0.1737(4) 0.4896(3)
C9 C -0.0763(4) 0.0290(5) 0.1767(3)
H3 H -0.0848 0.0805 0.1227
C10 C 0.0073(4) -0.3247(5) 0.5846(3)
H4 H 0.0173 -0.3699 0.6404
C11 C -0.0963(4) -0.3529(5) 0.5179(4)
H5 H -0.1525 -0.4172 0.5307
C12 C 0.3459(3) 0.0595(5) 0.5117(3)
H6 H 0.4158 0.0864 0.5533
C13 C -0.1574(3) -0.1377(5) 0.2666(3)
H7 H -0.2183 -0.1993 0.2742
C14 C -0.1690(4) -0.0592(6) 0.1886(3)
H8 H -0.2387 -0.0642 0.1432
O1 O 0.3351(2) 0.1834(3) 0.2382(2)
O2 O 0.1010(3) 0.2221(4) 0.11448(19)
N5 N 0.1155(3) 0.1452(4) 0.0471(2)
O3 O 0.0584(3) 0.1871(4) -0.0269(2)
O4 O 0.4905(3) 0.0415(5) 0.2560(2)
N6 N 0.3860(3) 0.0456(4) 0.2420(2)
O5 O 0.1821(4) 0.0346(6) 0.0597(3)
O6 O 0.3242(3) -0.0761(3) 0.2298(2)
O6A O 0.1758(3) 0.4239(3) 0.2702(2)
Cu1A Cu 0.32860(4) -0.35751(6) 0.26529(3)
loop_
_geom_bond_atom_site_label_1
_geom_bond_atom_site_label_2
_geom_bond_site_symmetry_1
_geom_bond_site_symmetry_2
Cu1 N1 1_555 1_555
N1 C1 1_555 1_555
N2 Cu1 1_555 1_555
C1 C2 1_555 1_555
N3 C5 1_555 1_555
C2 N2 1_555 1_555
N4 C8 1_555 1_555
C3 C2 1_555 1_555
C4 C1 1_555 1_555
C5 C3 1_555 1_555
C6 N1 1_555 1_555
H1 C6 1_555 1_555
C7 C4 1_555 1_555
H2 C7 1_555 1_555
C8 C4 1_555 1_555
C9 N2 1_555 1_555
H3 C9 1_555 1_555
C10 N4 1_555 1_555
H4 C10 1_555 1_555
C11 N3 1_555 1_555
H5 C11 1_555 1_555
C12 C6 1_555 1_555
H6 C12 1_555 1_555
C13 C3 1_555 1_555
H7 C13 1_555 1_555
C14 C9 1_555 1_555
H8 C14 1_555 1_555
O1 Cu1 1_555 1_555
O2 Cu1 1_555 1_555
N5 O2 1_555 1_555
O3 N5 1_555 1_555
O4 N6 1_555 1_555
N6 O1 1_555 1_555
O5 N5 1_555 1_555
O6 Cu1 1_555 1_555
O6A Cu1 1_555 1_555
Cu1A O6 1_555 1_555
C5 C8 1_555 1_555
C7 C12 1_555 1_555
C10 C11 1_555 1_555
C13 C14 1_555 1_555
N6 O6 1_555 1_555

#END
