
#######################################################################
#
#                 Cambridge Crystallographic Data Centre
#                                CCDC 
#
#######################################################################
#
# If this CIF has been generated from an entry in the Cambridge 
# Structural Database, then it will include bibliographic, chemical, 
# crystal, experimental, refinement or atomic coordinate data resulting 
# from the CCDC's data processing and validation procedures.
#
#######################################################################

data_WUYZOG
_symmetry_cell_setting           orthorhombic
_symmetry_space_group_name_H-M   'P 21 21 21'
_symmetry_Int_Tables_number      19
_space_group_name_Hall           'P 2ac 2ab'
loop_
_symmetry_equiv_pos_site_id
_symmetry_equiv_pos_as_xyz
1 x,y,z
2 1/2-x,-y,1/2+z
3 -x,1/2+y,1/2-z
4 1/2+x,1/2-y,-z
_cell_length_a                   13.6845(12)
_cell_length_b                   14.8567(13)
_cell_length_c                   17.6043(15)
_cell_angle_alpha                90
_cell_angle_beta                 90
_cell_angle_gamma                90
_cell_volume                     3579.07
loop_
_atom_site_label
_atom_site_type_symbol
_atom_site_fract_x
_atom_site_fract_y
_atom_site_fract_z
Mo1 Mo 0.55630(4) 0.04623(5) 0.41067(3)
Mo2 Mo 0.61524(5) 0.08029(5) 0.60450(4)
Mo3 Mo 0.42329(5) -0.04902(5) 0.57312(3)
Mo4 Mo 0.36917(5) -0.08694(5) 0.37636(4)
Cu1 Cu 0.75549(8) 0.01802(6) 0.27322(6)
O1 O 0.6775(4) 0.0410(5) 0.3862(3)
O2 O 0.5063(5) 0.1259(4) 0.3513(3)
O3 O 0.5118(4) -0.0630(4) 0.3716(3)
O4 O 0.6149(5) 0.1821(5) 0.6475(4)
O5 O 0.6452(5) 0.0002(5) 0.6714(3)
O6 O 0.4719(4) 0.0595(4) 0.6110(3)
O7 O 0.4728(4) -0.1284(4) 0.6335(3)
O8 O 0.3023(4) -0.0414(4) 0.5981(3)
O9 O 0.3702(6) -0.1916(4) 0.3348(4)
O10 O 0.3369(4) -0.0123(4) 0.3069(3)
O11 O 0.5665(4) 0.1397(4) 0.4958(3)
O12 O 0.4013(4) 0.0224(3) 0.4643(3)
O13 O 0.5789(4) -0.0261(3) 0.5185(3)
O14 O 0.7408(4) 0.0845(5) 0.5580(4)
O15 O 0.4155(4) -0.1443(4) 0.4892(3)
O16 O 0.2429(4) -0.0911(4) 0.4237(4)
O17 O 0.7676(6) 0.1499(5) 0.2685(5)
O18 O 0.8763(5) 0.0087(4) 0.3372(3)
N1 N 0.6338(5) 0.0151(5) 0.2121(4)
N2 N 0.7283(5) -0.1129(4) 0.2800(3)
N3 N 0.8412(8) 0.2834(6) 0.2572(6)
N4 N 1.0312(6) 0.0515(5) 0.3581(5)
C1 C 0.5857(8) 0.0868(7) 0.1820(5)
H1 H 0.6147 0.1447 0.1858
C2 C 0.4961(7) 0.0787(7) 0.1460(5)
H2 H 0.4649 0.1301 0.1249
C3 C 0.4522(8) -0.0060(8) 0.1411(5)
H3 H 0.3903 -0.0133 0.1175
C4 C 0.5014(7) -0.0787(7) 0.1717(4)
H4 H 0.4735 -0.1372 0.1692
C5 C 0.5903(6) -0.0662(6) 0.2056(4)
C6 C 0.6486(6) -0.1407(6) 0.2407(5)
C7 C 0.6235(7) -0.2302(6) 0.2335(5)
H5 H 0.5665 -0.2482 0.2067
C8 C 0.6859(8) -0.2938(6) 0.2675(6)
H6 H 0.6726 -0.3562 0.2621
C9 C 0.7648(8) -0.2665(6) 0.3080(6)
H7 H 0.8055 -0.3093 0.3326
C10 C 0.7850(6) -0.1760(6) 0.3130(5)
H8 H 0.8411 -0.1573 0.3407
C11 C 0.5413(7) 0.2330(6) 0.4907(5)
H9 H 0.6011 0.2692 0.4877
H10 H 0.5039 0.2507 0.5357
H11 H 0.5017 0.2432 0.4451
C12 C 0.3356(6) 0.0976(6) 0.4684(5)
H12 H 0.2696 0.0760 0.4799
H13 H 0.3352 0.1292 0.4195
H14 H 0.3572 0.1388 0.5085
C13 C 0.6475(6) -0.1007(5) 0.5128(5)
H15 H 0.6232 -0.1447 0.4759
H16 H 0.6544 -0.1296 0.5626
H17 H 0.7112 -0.0780 0.4962
C14 C 0.7840(7) 0.1579(7) 0.5190(6)
H18 H 0.7641 0.1565 0.4655
H19 H 0.8553 0.1534 0.5223
H20 H 0.7625 0.2145 0.5421
C15 C 0.4442(8) -0.2349(7) 0.4943(6)
H21 H 0.4617 -0.2489 0.5470
H22 H 0.5009 -0.2453 0.4614
H23 H 0.3902 -0.2737 0.4782
C16 C 0.2040(8) -0.1655(7) 0.4644(7)
H24 H 0.2162 -0.2210 0.4358
H25 H 0.1335 -0.1574 0.4711
H26 H 0.2356 -0.1695 0.5142
C17 C 0.8276(9) 0.1978(8) 0.2418(7)
H27 H 0.8705 0.1716 0.2056
C18 C 0.9152(8) 0.3346(8) 0.2166(6)
H28 H 0.9553 0.2936 0.1861
H29 H 0.9569 0.3662 0.2532
H30 H 0.8834 0.3785 0.1832
C19 C 0.7806(8) 0.3322(8) 0.3109(6)
H31 H 0.7386 0.2897 0.3383
H32 H 0.7398 0.3756 0.2835
H33 H 0.8223 0.3642 0.3471
C20 C 0.9557(6) 0.0397(6) 0.3148(5)
H34 H 0.9612 0.0558 0.2627
C21 C 1.1224(8) 0.0882(8) 0.3271(7)
H35 H 1.1128 0.1043 0.2736
H36 H 1.1742 0.0428 0.3310
H37 H 1.1412 0.1419 0.3559
C22 C 1.0290(8) 0.0247(7) 0.4388(5)
H38 H 1.0221 0.0784 0.4707
H39 H 1.0899 -0.0065 0.4517
H40 H 0.9735 -0.0157 0.4476
Cu1A Cu 0.74451(8) -0.01802(6) 0.77322(6)
O5A O 0.8548(5) -0.0002(5) 0.1714(3)
loop_
_geom_bond_atom_site_label_1
_geom_bond_atom_site_label_2
_geom_bond_site_symmetry_1
_geom_bond_site_symmetry_2
Mo1 O1 1_555 1_555
Mo2 O4 1_555 1_555
Mo3 O6 1_555 1_555
Mo4 O3 1_555 1_555
Cu1 O1 1_555 1_555
O2 Mo1 1_555 1_555
O3 Mo1 1_555 1_555
O5 Mo2 1_555 1_555
O6 Mo2 1_555 1_555
O7 Mo3 1_555 1_555
O8 Mo3 1_555 1_555
O9 Mo4 1_555 1_555
O10 Mo4 1_555 1_555
O11 Mo1 1_555 1_555
O12 Mo1 1_555 1_555
O13 Mo1 1_555 1_555
O14 Mo2 1_555 1_555
O15 Mo3 1_555 1_555
O16 Mo4 1_555 1_555
O17 Cu1 1_555 1_555
O18 Cu1 1_555 1_555
N1 Cu1 1_555 1_555
N2 Cu1 1_555 1_555
N3 C17 1_555 1_555
N4 C20 1_555 1_555
C1 N1 1_555 1_555
H1 C1 1_555 1_555
C2 C1 1_555 1_555
H2 C2 1_555 1_555
C3 C2 1_555 1_555
H3 C3 1_555 1_555
C4 C3 1_555 1_555
H4 C4 1_555 1_555
C5 N1 1_555 1_555
C6 N2 1_555 1_555
C7 C6 1_555 1_555
H5 C7 1_555 1_555
C8 C7 1_555 1_555
H6 C8 1_555 1_555
C9 C8 1_555 1_555
H7 C9 1_555 1_555
C10 N2 1_555 1_555
H8 C10 1_555 1_555
C11 O11 1_555 1_555
H9 C11 1_555 1_555
H10 C11 1_555 1_555
H11 C11 1_555 1_555
C12 O12 1_555 1_555
H12 C12 1_555 1_555
H13 C12 1_555 1_555
H14 C12 1_555 1_555
C13 O13 1_555 1_555
H15 C13 1_555 1_555
H16 C13 1_555 1_555
H17 C13 1_555 1_555
C14 O14 1_555 1_555
H18 C14 1_555 1_555
H19 C14 1_555 1_555
H20 C14 1_555 1_555
C15 O15 1_555 1_555
H21 C15 1_555 1_555
H22 C15 1_555 1_555
H23 C15 1_555 1_555
C16 O16 1_555 1_555
H24 C16 1_555 1_555
H25 C16 1_555 1_555
H26 C16 1_555 1_555
C17 O17 1_555 1_555
H27 C17 1_555 1_555
C18 N3 1_555 1_555
H28 C18 1_555 1_555
H29 C18 1_555 1_555
H30 C18 1_555 1_555
C19 N3 1_555 1_555
H31 C19 1_555 1_555
H32 C19 1_555 1_555
H33 C19 1_555 1_555
C20 O18 1_555 1_555
H34 C20 1_555 1_555
C21 N4 1_555 1_555
H35 C21 1_555 1_555
H36 C21 1_555 1_555
H37 C21 1_555 1_555
C22 N4 1_555 1_555
H38 C22 1_555 1_555
H39 C22 1_555 1_555
H40 C22 1_555 1_555
Cu1A O5 1_555 1_555
O5A Cu1 1_555 1_555
Mo2 O11 1_555 1_555
Mo2 O13 1_555 1_555
Mo3 O12 1_555 1_555
Mo3 O13 1_555 1_555
Mo4 O12 1_555 1_555
Mo4 O15 1_555 1_555
C4 C5 1_555 1_555
C5 C6 1_555 1_555
C9 C10 1_555 1_555

#END
