
#######################################################################
#
#                 Cambridge Crystallographic Data Centre
#                                CCDC 
#
#######################################################################
#
# If this CIF has been generated from an entry in the Cambridge 
# Structural Database, then it will include bibliographic, chemical, 
# crystal, experimental, refinement or atomic coordinate data resulting 
# from the CCDC's data processing and validation procedures.
#
#######################################################################

data_WUYZUM
_symmetry_cell_setting           triclinic
_symmetry_space_group_name_H-M   'P -1'
_symmetry_Int_Tables_number      2
_space_group_name_Hall           '-P 1'
loop_
_symmetry_equiv_pos_site_id
_symmetry_equiv_pos_as_xyz
1 x,y,z
2 -x,-y,-z
_cell_length_a                   10.7235(11)
_cell_length_b                   11.7956(12)
_cell_length_c                   15.5066(16)
_cell_angle_alpha                87.054(2)
_cell_angle_beta                 89.849(2)
_cell_angle_gamma                72.684(2)
_cell_volume                     1869.9
loop_
_atom_site_label
_atom_site_type_symbol
_atom_site_fract_x
_atom_site_fract_y
_atom_site_fract_z
Mo1 Mo -0.14526(3) 0.00079(2) 0.433890(18)
Mo2 Mo -0.01923(3) -0.22115(2) 0.575420(18)
Mo3 Mo -0.35426(3) -0.48503(3) 0.942780(19)
Mo4 Mo -0.53857(3) -0.25638(3) 1.04764(2)
Cu1 Cu -0.22211(4) -0.33008(4) 0.76112(3)
O1 O -0.1369(2) -0.1026(2) 0.35945(16)
O2 O -0.2972(2) 0.1000(2) 0.42075(16)
O3 O -0.1647(2) -0.0801(2) 0.53817(15)
O4 O -0.0414(2) -0.3131(2) 0.49847(16)
O5 O -0.0932(2) -0.2531(2) 0.66728(16)
O6 O -0.1951(2) -0.5674(2) 0.95394(17)
O7 O -0.3609(2) -0.3929(2) 0.85190(16)
O8 O -0.3695(2) -0.3831(2) 1.03165(15)
O9 O -0.5224(2) -0.1680(2) 0.96048(17)
O10 O -0.4885(3) -0.2015(2) 1.13658(18)
O11 O -0.0677(2) 0.11499(19) 0.51601(14)
O12 O -0.0390(2) 0.0815(2) 0.35779(15)
O13 O 0.1571(2) -0.3114(2) 0.60353(15)
O14 O -0.4263(2) -0.5939(2) 0.87214(15)
O15 O -0.5813(2) -0.3940(2) 0.96666(15)
O16 O -0.7236(2) -0.1898(2) 1.05833(16)
O17 O -0.1510(2) -0.2649(2) 0.85753(16)
O18 O -0.3610(2) -0.1759(2) 0.75055(16)
N1 N -0.2906(3) -0.3878(2) 0.65766(18)
N2 N -0.0851(3) -0.5204(3) 0.6242(2)
N3 N -0.0680(3) -0.4767(2) 0.77040(18)
N4 N -0.1703(3) -0.1552(3) 0.9740(2)
N5 N -0.4839(3) -0.0032(3) 0.6889(2)
C1 C -0.4176(3) -0.3376(3) 0.6335(2)
H1 H -0.4736 -0.2917 0.6729
C2 C -0.4685(4) -0.3504(3) 0.5551(3)
H2 H -0.5561 -0.3140 0.5413
C3 C -0.3843(4) -0.4199(3) 0.4964(3)
H3 H -0.4148 -0.4291 0.4419
C4 C -0.2571(4) -0.4743(3) 0.5194(2)
H4 H -0.2004 -0.5215 0.4810
C5 C -0.2122(3) -0.4585(3) 0.6019(2)
C6 C -0.0186(3) -0.5395(3) 0.7021(2)
C7 C 0.1034(3) -0.6281(3) 0.7055(3)
H5 H 0.1355 -0.6706 0.6573
C8 C 0.1736(4) -0.6502(3) 0.7814(3)
H6 H 0.2551 -0.7071 0.7848
C9 C 0.1231(4) -0.5876(3) 0.8528(3)
H7 H 0.1691 -0.6027 0.9050
C10 C 0.0031(3) -0.5025(3) 0.8452(2)
H8 H -0.0309 -0.4607 0.8935
C11 C -0.1586(3) 0.1785(3) 0.5785(2)
H9 H -0.1135 0.2131 0.6181
H10 H -0.1959 0.1245 0.6098
H11 H -0.2268 0.2403 0.5493
C12 C 0.0020(4) 0.0504(4) 0.2716(2)
H12 H -0.0106 -0.0248 0.2605
H13 H 0.0927 0.0448 0.2658
H14 H -0.0489 0.1104 0.2310
C13 C 0.2196(4) -0.3255(3) 0.6852(2)
H15 H 0.1606 -0.3365 0.7293
H16 H 0.2958 -0.3937 0.6864
H17 H 0.2451 -0.2558 0.6955
C14 C -0.4593(4) -0.5773(4) 0.7821(2)
H18 H -0.4638 -0.4977 0.7623
H19 H -0.3937 -0.6329 0.7504
H20 H -0.5425 -0.5901 0.7731
C15 C -0.6664(3) -0.3500(3) 0.8921(2)
H21 H -0.7449 -0.2923 0.9094
H22 H -0.6226 -0.3137 0.8499
H23 H -0.6880 -0.4150 0.8675
C16 C -0.7914(4) -0.1789(4) 1.1373(3)
H24 H -0.7393 -0.1600 1.1814
H25 H -0.8727 -0.1166 1.1307
H26 H -0.8083 -0.2526 1.1534
C17 C -0.2200(3) -0.2010(3) 0.9122(2)
H27 H -0.3101 -0.1853 0.9089
C18 C -0.0300(4) -0.1777(4) 0.9826(3)
H28 H 0.0120 -0.2128 0.9316
H29 H -0.0113 -0.1041 0.9901
H30 H 0.0020 -0.2310 1.0319
C19 C -0.2524(4) -0.0825(4) 1.0382(3)
H31 H -0.3424 -0.0759 1.0269
H32 H -0.2279 -0.1192 1.0949
H33 H -0.2411 -0.0047 1.0352
C20 C -0.3784(3) -0.0948(3) 0.6931(2)
H34 H -0.3144 -0.0995 0.6517
C21 C -0.5030(4) 0.0908(4) 0.6209(3)
H35 H -0.4291 0.0728 0.5833
H36 H -0.5807 0.0962 0.5882
H37 H -0.5117 0.1652 0.6463
C22 C -0.5867(4) 0.0056(4) 0.7524(3)
H38 H -0.5865 0.0663 0.7913
H39 H -0.6699 0.0254 0.7233
H40 H -0.5713 -0.0692 0.7845
H41 H -0.047(5) -0.559(4) 0.587(3)
Mo1A Mo 0.14526(3) -0.00079(2) 0.566110(18)
Mo2A Mo 0.01923(3) 0.22115(2) 0.424580(18)
Mo3A Mo -0.64574(3) -0.51497(3) 1.057220(19)
Mo4A Mo -0.46143(3) -0.74362(3) 0.95236(2)
O11A O 0.0677(2) -0.11499(19) 0.48399(14)
O12A O 0.0390(2) -0.0815(2) 0.64221(15)
O14A O -0.5737(2) -0.4061(2) 1.12786(15)
O15A O -0.4187(2) -0.6060(2) 1.03334(15)
loop_
_geom_bond_atom_site_label_1
_geom_bond_atom_site_label_2
_geom_bond_site_symmetry_1
_geom_bond_site_symmetry_2
Mo1 O1 1_555 1_555
Mo2 O3 1_555 1_555
Mo3 O6 1_555 1_555
Mo4 O8 1_555 1_555
Cu1 O5 1_555 1_555
O2 Mo1 1_555 1_555
O3 Mo1 1_555 1_555
O4 Mo2 1_555 1_555
O5 Mo2 1_555 1_555
O7 Mo3 1_555 1_555
O8 Mo3 1_555 1_555
O9 Mo4 1_555 1_555
O10 Mo4 1_555 1_555
O11 Mo1 1_555 1_555
O12 Mo1 1_555 1_555
O13 Mo2 1_555 1_555
O14 Mo3 1_555 1_555
O15 Mo3 1_555 1_555
O16 Mo4 1_555 1_555
O17 Cu1 1_555 1_555
O18 Cu1 1_555 1_555
N1 Cu1 1_555 1_555
N2 C5 1_555 1_555
N3 Cu1 1_555 1_555
N4 C17 1_555 1_555
N5 C20 1_555 1_555
C1 N1 1_555 1_555
H1 C1 1_555 1_555
C2 C1 1_555 1_555
H2 C2 1_555 1_555
C3 C2 1_555 1_555
H3 C3 1_555 1_555
C4 C3 1_555 1_555
H4 C4 1_555 1_555
C5 N1 1_555 1_555
C6 N2 1_555 1_555
C7 C6 1_555 1_555
H5 C7 1_555 1_555
C8 C7 1_555 1_555
H6 C8 1_555 1_555
C9 C8 1_555 1_555
H7 C9 1_555 1_555
C10 N3 1_555 1_555
H8 C10 1_555 1_555
C11 O11 1_555 1_555
H9 C11 1_555 1_555
H10 C11 1_555 1_555
H11 C11 1_555 1_555
C12 O12 1_555 1_555
H12 C12 1_555 1_555
H13 C12 1_555 1_555
H14 C12 1_555 1_555
C13 O13 1_555 1_555
H15 C13 1_555 1_555
H16 C13 1_555 1_555
H17 C13 1_555 1_555
C14 O14 1_555 1_555
H18 C14 1_555 1_555
H19 C14 1_555 1_555
H20 C14 1_555 1_555
C15 O15 1_555 1_555
H21 C15 1_555 1_555
H22 C15 1_555 1_555
H23 C15 1_555 1_555
C16 O16 1_555 1_555
H24 C16 1_555 1_555
H25 C16 1_555 1_555
H26 C16 1_555 1_555
C17 O17 1_555 1_555
H27 C17 1_555 1_555
C18 N4 1_555 1_555
H28 C18 1_555 1_555
H29 C18 1_555 1_555
H30 C18 1_555 1_555
C19 N4 1_555 1_555
H31 C19 1_555 1_555
H32 C19 1_555 1_555
H33 C19 1_555 1_555
C20 O18 1_555 1_555
H34 C20 1_555 1_555
C21 N5 1_555 1_555
H35 C21 1_555 1_555
H36 C21 1_555 1_555
H37 C21 1_555 1_555
C22 N5 1_555 1_555
H38 C22 1_555 1_555
H39 C22 1_555 1_555
H40 C22 1_555 1_555
H41 N2 1_555 1_555
Mo1A O11 1_555 1_555
Mo2A O11 1_555 1_555
Mo3A O15 1_555 1_555
Mo4A O14 1_555 1_555
O11A Mo1 1_555 1_555
O12A Mo2 1_555 1_555
O14A Mo4 1_555 1_555
O15A Mo3 1_555 1_555
Mo2 O11A 1_555 1_555
Mo4 O15 1_555 1_555
Cu1 O7 1_555 1_555
O12 Mo2A 1_555 1_555
N3 C6 1_555 1_555
C4 C5 1_555 1_555
C9 C10 1_555 1_555
Mo1A O11A 1_555 1_555
Mo1A O12A 1_555 1_555
Mo3A O14A 1_555 1_555
Mo3A O15A 1_555 1_555
Mo4A O15A 1_555 1_555

#END
