
#######################################################################
#
#                 Cambridge Crystallographic Data Centre
#                                CCDC 
#
#######################################################################
#
# If this CIF has been generated from an entry in the Cambridge 
# Structural Database, then it will include bibliographic, chemical, 
# crystal, experimental, refinement or atomic coordinate data resulting 
# from the CCDC's data processing and validation procedures.
#
#######################################################################

data_WUZBAV
_symmetry_cell_setting           monoclinic
_symmetry_space_group_name_H-M   'C 2/c'
_symmetry_Int_Tables_number      15
_space_group_name_Hall           '-C 2yn'
loop_
_symmetry_equiv_pos_site_id
_symmetry_equiv_pos_as_xyz
1 x,y,z
2 -x,y,1/2-z
3 1/2+x,1/2+y,z
4 1/2-x,1/2+y,1/2-z
5 -x,-y,-z
6 x,-y,1/2+z
7 1/2-x,1/2-y,-z
8 1/2+x,1/2-y,1/2+z
_cell_length_a                   16.9793(17)
_cell_length_b                   22.0209(17)
_cell_length_c                   10.0614(8)
_cell_angle_alpha                90
_cell_angle_beta                 104.483(2)
_cell_angle_gamma                90
_cell_volume                     3642.4
loop_
_atom_site_label
_atom_site_type_symbol
_atom_site_fract_x
_atom_site_fract_y
_atom_site_fract_z
Mo1 Mo 0.301149(17) 0.255883(13) 0.36011(3)
Mo2 Mo 0.273180(18) 0.118850(13) 0.48243(3)
Cu1 Cu 0.5000 0.24523(3) 0.2500
O1 O 0.40270(15) 0.23987(11) 0.3783(3)
O2 O 0.26842(16) 0.28640(12) 0.2003(3)
O3 O 0.36993(16) 0.10079(12) 0.4735(3)
O4 O 0.25283(15) 0.17946(11) 0.3308(2)
O5 O 0.21042(17) 0.06369(12) 0.3935(3)
O6 O 0.19266(14) 0.28830(11) 0.4222(2)
O7 O 0.33334(15) 0.33124(11) 0.4784(3)
O8 O 0.28367(17) 0.09170(12) 0.6660(3)
O9 O 0.44122(17) 0.18295(12) 0.1235(3)
N1 N 0.44107(18) 0.31368(14) 0.1359(3)
N2 N 0.3957(2) 0.08661(14) 0.0980(3)
C1 C 0.3822(2) 0.31162(18) 0.0204(4)
H1 H 0.3613 0.2733 -0.0149
C2 C 0.3502(2) 0.3644(2) -0.0508(4)
H2 H 0.3093 0.3615 -0.1345
C3 C 0.3777(2) 0.42025(19) 0.0004(4)
H3 H 0.3564 0.4561 -0.0477
C4 C 0.4383(2) 0.42404(17) 0.1256(4)
C5 C 0.4703(2) 0.47953(17) 0.1904(4)
H4 H 0.4497 0.5171 0.1496
C6 C 0.4682(2) 0.36900(15) 0.1878(3)
C7 C 0.1175(2) 0.28508(18) 0.3161(4)
H5 H 0.1192 0.3143 0.2434
H6 H 0.0717 0.2947 0.3555
H7 H 0.1107 0.2440 0.2774
C8 C 0.4137(2) 0.34864(18) 0.5508(4)
H8 H 0.4518 0.3157 0.5458
H9 H 0.4149 0.3567 0.6471
H10 H 0.4296 0.3854 0.5092
C9 C 0.2207(3) 0.07229(18) 0.7261(4)
H11 H 0.1755 0.0559 0.6546
H12 H 0.2416 0.0407 0.7945
H13 H 0.2015 0.1069 0.7706
C10 C 0.4083(2) 0.13822(18) 0.1648(4)
H14 H 0.3917 0.1419 0.2479
C11 C 0.4228(3) 0.0774(2) -0.0277(4)
H15 H 0.3801 0.0909 -0.1070
H16 H 0.4340 0.0343 -0.0377
H17 H 0.4724 0.1010 -0.0225
C12 C 0.3529(3) 0.03658(18) 0.1443(5)
H18 H 0.3405 0.0476 0.2312
H19 H 0.3873 0.0002 0.1576
H20 H 0.3021 0.0283 0.0751
Mo1A Mo 0.698851(17) 0.255883(13) 0.13989(3)
Mo1F Mo 0.198851(17) 0.244117(13) 0.63989(3)
Mo2A Mo 0.726820(18) 0.118850(13) 0.01757(3)
Mo2F Mo 0.226820(18) 0.381150(13) 0.51757(3)
Mo2G Mo 0.773180(18) 0.381150(13) -0.01757(3)
O1A O 0.59730(15) 0.23987(11) 0.1217(3)
O2A O 0.73158(16) 0.28640(12) 0.2997(3)
O3A O 0.63007(16) 0.10079(12) 0.0265(3)
O4A O 0.74717(15) 0.17946(11) 0.1692(2)
O5A O 0.78958(17) 0.06369(12) 0.1065(3)
O6F O 0.30734(14) 0.21170(11) 0.5778(2)
O6A O 0.80734(14) 0.28830(11) 0.0778(2)
O6G O 0.69266(14) 0.21170(11) -0.0778(2)
O7A O 0.66666(15) 0.33124(11) 0.0216(3)
O7F O 0.16666(15) 0.16876(11) 0.5216(3)
O7G O 0.83334(15) 0.16876(11) -0.0216(3)
O8A O 0.71633(17) 0.09170(12) -0.1660(3)
O9A O 0.55878(17) 0.18295(12) 0.3765(3)
N1A N 0.55893(18) 0.31368(14) 0.3641(3)
N2A N 0.6043(2) 0.08661(14) 0.4020(3)
C1A C 0.6178(2) 0.31162(18) 0.4796(4)
H1A H 0.6387 0.2733 0.5149
C2A C 0.6498(2) 0.3644(2) 0.5508(4)
H2A H 0.6907 0.3615 0.6345
C3A C 0.6223(2) 0.42025(19) 0.4996(4)
H3A H 0.6436 0.4561 0.5477
C4A C 0.5617(2) 0.42404(17) 0.3744(4)
C5A C 0.5297(2) 0.47953(17) 0.3096(4)
H4A H 0.5503 0.5171 0.3504
C6A C 0.5318(2) 0.36900(15) 0.3122(3)
C7F C 0.3825(2) 0.21492(18) 0.6839(4)
H5F H 0.3808 0.1857 0.7566
H6F H 0.4283 0.2053 0.6445
H7F H 0.3893 0.2560 0.7226
C8A C 0.5863(2) 0.34864(18) -0.0508(4)
H8A H 0.5482 0.3157 -0.0458
H9A H 0.5851 0.3567 -0.1471
H10A H 0.5704 0.3854 -0.0092
C9A C 0.7793(3) 0.07229(18) -0.2261(4)
H11A H 0.8245 0.0559 -0.1546
H12A H 0.7584 0.0407 -0.2945
H13A H 0.7985 0.1069 -0.2706
C10A C 0.5917(2) 0.13822(18) 0.3352(4)
H14A H 0.6083 0.1419 0.2521
C11A C 0.5772(3) 0.0774(2) 0.5277(4)
H15A H 0.6199 0.0909 0.6070
H16A H 0.5660 0.0343 0.5377
H17A H 0.5276 0.1010 0.5225
C12A C 0.6471(3) 0.03658(18) 0.3557(5)
H18A H 0.6595 0.0476 0.2688
H19A H 0.6127 0.0002 0.3424
H20A H 0.6979 0.0283 0.4249
loop_
_geom_bond_atom_site_label_1
_geom_bond_atom_site_label_2
_geom_bond_site_symmetry_1
_geom_bond_site_symmetry_2
Mo1 O1 1_555 1_555
Mo2 O3 1_555 1_555
Cu1 O1 1_555 1_555
O2 Mo1 1_555 1_555
O4 Mo1 1_555 1_555
O5 Mo2 1_555 1_555
O6 Mo1 1_555 1_555
O7 Mo1 1_555 1_555
O8 Mo2 1_555 1_555
O9 Cu1 1_555 1_555
N1 Cu1 1_555 1_555
N2 C10 1_555 1_555
C1 N1 1_555 1_555
H1 C1 1_555 1_555
C2 C1 1_555 1_555
H2 C2 1_555 1_555
C3 C2 1_555 1_555
H3 C3 1_555 1_555
C4 C3 1_555 1_555
C5 C4 1_555 1_555
H4 C5 1_555 1_555
C6 N1 1_555 1_555
C7 O6 1_555 1_555
H5 C7 1_555 1_555
H6 C7 1_555 1_555
H7 C7 1_555 1_555
C8 O7 1_555 1_555
H8 C8 1_555 1_555
H9 C8 1_555 1_555
H10 C8 1_555 1_555
C9 O8 1_555 1_555
H11 C9 1_555 1_555
H12 C9 1_555 1_555
H13 C9 1_555 1_555
C10 O9 1_555 1_555
H14 C10 1_555 1_555
C11 N2 1_555 1_555
H15 C11 1_555 1_555
H16 C11 1_555 1_555
H17 C11 1_555 1_555
C12 N2 1_555 1_555
H18 C12 1_555 1_555
H19 C12 1_555 1_555
H20 C12 1_555 1_555
Mo1A O1A 1_555 1_555
Mo1F O6 1_555 1_555
Mo2A O3A 1_555 1_555
Mo2F O6 1_555 1_555
Mo2G O6A 1_555 1_555
O1A Cu1 1_555 1_555
O2A Mo1A 1_555 1_555
O4A Mo1A 1_555 1_555
O5A Mo2A 1_555 1_555
O6F Mo1 1_555 1_555
O6A Mo1A 1_555 1_555
O6G Mo1A 1_555 1_555
O7A Mo1A 1_555 1_555
O7F Mo2 1_555 1_555
O7G Mo2A 1_555 1_555
O8A Mo2A 1_555 1_555
O9A Cu1 1_555 1_555
N1A Cu1 1_555 1_555
N2A C10A 1_555 1_555
C1A N1A 1_555 1_555
H1A C1A 1_555 1_555
C2A C1A 1_555 1_555
H2A C2A 1_555 1_555
C3A C2A 1_555 1_555
H3A C3A 1_555 1_555
C4A C3A 1_555 1_555
C5A C5 1_555 1_555
H4A C5A 1_555 1_555
C6A C6 1_555 1_555
C7F O6F 1_555 1_555
H5F C7F 1_555 1_555
H6F C7F 1_555 1_555
H7F C7F 1_555 1_555
C8A O7A 1_555 1_555
H8A C8A 1_555 1_555
H9A C8A 1_555 1_555
H10A C8A 1_555 1_555
C9A O8A 1_555 1_555
H11A C9A 1_555 1_555
H12A C9A 1_555 1_555
H13A C9A 1_555 1_555
C10A O9A 1_555 1_555
H14A C10A 1_555 1_555
C11A N2A 1_555 1_555
H15A C11A 1_555 1_555
H16A C11A 1_555 1_555
H17A C11A 1_555 1_555
C12A N2A 1_555 1_555
H18A C12A 1_555 1_555
H19A C12A 1_555 1_555
H20A C12A 1_555 1_555
Mo2 O4 1_555 1_555
Mo2 O6F 1_555 1_555
O7 Mo2F 1_555 1_555
C4 C6 1_555 1_555
Mo1F O6F 1_555 1_555
Mo1F O7F 1_555 1_555
Mo2A O4A 1_555 1_555
Mo2A O6G 1_555 1_555
Mo2G O7A 1_555 1_555
N1A C6A 1_555 1_555
C4A C5A 1_555 1_555
C4A C6A 1_555 1_555

#END
