
#######################################################################
#
#                 Cambridge Crystallographic Data Centre
#                                CCDC 
#
#######################################################################
#
# If this CIF has been generated from an entry in the Cambridge 
# Structural Database, then it will include bibliographic, chemical, 
# crystal, experimental, refinement or atomic coordinate data resulting 
# from the CCDC's data processing and validation procedures.
#
#######################################################################

data_WUZCIE
_symmetry_cell_setting           triclinic
_symmetry_space_group_name_H-M   'P -1'
_symmetry_Int_Tables_number      2
_space_group_name_Hall           '-P 1'
loop_
_symmetry_equiv_pos_site_id
_symmetry_equiv_pos_as_xyz
1 x,y,z
2 -x,-y,-z
_cell_length_a                   13.265(3)
_cell_length_b                   13.715(3)
_cell_length_c                   16.173(3)
_cell_angle_alpha                89.40(3)
_cell_angle_beta                 69.20(3)
_cell_angle_gamma                76.26(3)
_cell_volume                     2663.01
loop_
_atom_site_label
_atom_site_type_symbol
_atom_site_fract_x
_atom_site_fract_y
_atom_site_fract_z
O1 O 0.5817(4) 0.6219(3) 0.5095(3)
O2 O 0.5475(3) 0.5609(3) 0.3635(3)
O3 O 0.9965(3) 0.6307(3) 0.0896(3)
O4 O 0.8198(3) 0.5517(3) 0.0953(3)
Cu1 Cu 0.97314(6) 0.49560(5) 0.08557(5)
Cu2 Cu 0.60411(6) 0.48924(5) 0.44935(4)
O5 O 1.0406(3) 0.6392(3) -0.0573(3)
O6 O 0.4038(3) 0.6395(3) 0.5963(3)
O7 O 0.8660(3) 0.5578(3) -0.0526(2)
O8 O 0.3689(3) 0.5816(3) 0.4516(3)
N1 N 0.7844(4) 0.4692(3) 0.3740(3)
C1 C 0.7965(5) 0.5687(4) 0.0264(4)
N2 N 0.9693(4) 0.3497(4) 0.3311(3)
N3 N 0.9308(4) 0.4764(4) 0.2310(3)
C2 C 0.6052(5) 0.5517(4) 0.0973(4)
H1 H 0.6324 0.5085 0.1335
C3 C 0.4107(5) 0.6749(4) 0.3230(4)
C4 C 0.4448(5) 0.6000(4) 0.3828(4)
C5 C 0.8096(4) 0.4887(4) 0.2789(3)
H2 H 0.7840 0.4423 0.2510
H3 H 0.7698 0.5566 0.2749
N4 N 0.9474(4) 0.5264(4) 0.3690(3)
C6 C 0.4888(5) 0.6727(4) 0.5641(4)
C7 C 0.3807(5) 0.8494(4) 0.5831(4)
H4 H 0.3274 0.8233 0.5725
C8 C 0.6743(4) 0.6004(4) 0.0386(4)
C9 C 1.1435(5) 0.8035(5) -0.0445(4)
C10 C 1.1628(5) 0.8991(5) -0.0328(4)
C11 C 0.4911(5) 0.7182(4) 0.2713(4)
H5 H 0.5627 0.6964 0.2720
C12 C 0.4486(5) 0.6350(5) 0.0537(4)
C13 C 0.2979(5) 0.7066(4) 0.3226(4)
C14 C 0.4747(6) 0.7837(5) 0.5870(4)
C15 C 0.5566(6) 0.8386(4) 0.1634(4)
H6 H 0.6278 0.8155 0.1647
C16 C 0.3610(5) 0.8307(4) 0.2152(4)
C17 C 0.5209(5) 0.6889(4) -0.0077(4)
C18 C 0.5407(5) 0.9252(4) 0.6208(4)
C19 C 0.4917(5) 0.5653(5) 0.1050(4)
C20 C 0.6621(5) 0.7907(5) -0.1276(4)
H7 H 0.7084 0.8251 -0.1673
C21 C 1.1014(5) 0.9608(5) 0.0497(5)
C22 C 1.0577(5) 0.7718(5) 0.0260(4)
C23 C 0.9978(5) 0.8329(4) 0.1023(4)
H8 H 0.9413 0.8122 0.1462
C24 C 0.3618(6) 0.9556(5) 0.5947(4)
C25 C 0.4698(5) 0.7958(4) 0.2160(4)
C26 C 0.5567(6) 0.8187(5) 0.6061(4)
C27 C 1.0298(4) 0.6738(5) 0.0186(4)
C28 C 0.8487(5) 0.3639(5) 0.3770(4)
H9 H 0.8337 0.3493 0.4384
H10 H 0.8235 0.3167 0.3497
C29 C 0.5506(6) 0.8038(5) -0.1221(5)
H11 H 0.5241 0.8453 -0.1596
C30 C 0.3355(5) 0.6455(6) 0.0651(4)
H12 H 0.3039 0.6912 0.0328
C31 C 0.5363(6) 0.9140(5) 0.1104(4)
H13 H 0.5931 0.9424 0.0760
C32 C 0.4433(5) 0.9946(5) 0.6139(4)
C33 C 0.6340(5) 0.6718(4) -0.0155(4)
C34 C 0.7010(5) 0.7271(4) -0.0741(4)
H14 H 0.7735 0.7202 -0.0766
C35 C 0.3435(6) 0.9070(5) 0.1590(4)
H15 H 0.2734 0.9304 0.1557
C36 C 0.2706(6) 1.0207(5) 0.5860(4)
H16 H 0.2184 0.9949 0.5734
C37 C 0.3166(5) 0.5217(6) 0.1707(5)
H17 H 0.2728 0.4842 0.2088
C38 C 0.4253(5) 0.5092(5) 0.1625(4)
H18 H 0.4552 0.4630 0.1954
C39 C 0.2738(5) 0.7852(5) 0.2696(4)
C40 C 0.8277(5) 0.5385(5) 0.4139(4)
H19 H 0.7890 0.6074 0.4113
H20 H 0.8122 0.5264 0.4759
C41 C 0.4833(5) 0.7561(5) -0.0627(4)
H21 H 0.4093 0.7680 -0.0579
C42 C 1.0187(5) 0.9279(5) 0.1174(4)
C43 C 1.3046(5) 0.8715(5) -0.1803(5)
H22 H 1.3551 0.8955 -0.2267
C44 C 0.9685(5) 0.5463(5) 0.2753(4)
H23 H 1.0476 0.5393 0.2443
H24 H 0.9298 0.6150 0.2722
C45 C 0.9894(5) 0.3717(5) 0.2379(4)
H25 H 0.9642 0.3248 0.2103
H26 H 1.0688 0.3620 0.2061
C46 C 1.2115(5) 0.7425(5) -0.1225(4)
H27 H 1.2026 0.6782 -0.1293
C47 C 0.2126(5) 0.6600(5) 0.3697(4)
H28 H 0.2270 0.6069 0.4035
C48 C 0.4294(6) 0.9470(5) 0.1091(5)
H29 H 0.4156 0.9980 0.0733
C49 C 0.6511(6) 0.7517(5) 0.6128(4)
H30 H 0.6623 0.6826 0.6032
C50 C 1.1226(6) 1.0524(5) 0.0687(6)
H31 H 1.1772 1.0763 0.0258
C51 C 0.6223(6) 0.9568(6) 0.6427(4)
H32 H 0.6128 1.0254 0.6536
C52 C 0.9787(6) 1.0748(6) 0.2149(5)
H33 H 0.9383 1.1131 0.2687
C53 C 0.4257(6) 1.0982(5) 0.6229(4)
H34 H 0.4772 1.1253 0.6354
C54 C 1.0049(5) 0.4222(6) 0.3715(4)
H35 H 1.0843 0.4139 0.3412
H36 H 0.9922 0.4084 0.4329
C55 C 0.2550(6) 1.1238(5) 0.5957(5)
H37 H 0.1924 1.1671 0.5902
C56 C 1.2448(5) 0.9300(5) -0.1045(4)
H38 H 1.2575 0.9930 -0.0987
C57 C 0.7141(6) 0.8924(6) 0.6487(5)
H39 H 0.7663 0.9169 0.6625
C58 C 0.1663(6) 0.8156(6) 0.2680(5)
H40 H 0.1502 0.8675 0.2336
C59 C 1.2914(5) 0.7753(5) -0.1896(5)
H41 H 1.3361 0.7333 -0.2407
C60 C 0.9553(6) 0.9871(5) 0.1991(5)
H42 H 0.8981 0.9658 0.2417
C61 C 0.1070(6) 0.6933(6) 0.3657(5)
H43 H 0.0511 0.6626 0.3974
C62 C 0.2722(6) 0.5914(6) 0.1213(5)
H44 H 0.1981 0.6006 0.1271
C63 C 0.7287(7) 0.7910(5) 0.6343(5)
H45 H 0.7914 0.7468 0.6388
C64 C 1.0638(6) 1.1074(6) 0.1498(6)
H46 H 1.0808 1.1666 0.1613
C65 C 0.0843(6) 0.7709(7) 0.3155(5)
H47 H 0.0131 0.7930 0.3139
C66 C 0.3340(7) 1.1620(5) 0.6136(5)
H48 H 0.3247 1.2313 0.6194
Cu1A Cu 1.02686(6) 0.50440(5) -0.08557(5)
Cu2A Cu 0.39589(6) 0.51076(5) 0.55065(4)
O5A O 0.9594(3) 0.3608(3) 0.0573(3)
O6A O 0.5962(3) 0.3605(3) 0.4037(3)
O7A O 1.1340(3) 0.4422(3) 0.0526(2)
O8A O 0.6311(3) 0.4184(3) 0.5484(3)
O10 O 0.8756(15) 0.1318(13) 0.4785(11)
O9? O 1.010(3) 0.032(6) 0.475(2)
loop_
_geom_bond_atom_site_label_1
_geom_bond_atom_site_label_2
_geom_bond_site_symmetry_1
_geom_bond_site_symmetry_2
O1 Cu2 1_555 1_555
O2 Cu2 1_555 1_555
O3 Cu1 1_555 1_555
O4 Cu1 1_555 1_555
Cu1 N3 1_555 1_555
Cu2 N1 1_555 1_555
O5 C27 1_555 1_555
O6 C6 1_555 1_555
O7 C1 1_555 1_555
O8 C4 1_555 1_555
N1 C5 1_555 1_555
C1 O4 1_555 1_555
N2 C28 1_555 1_555
N3 C5 1_555 1_555
C2 H1 1_555 1_555
C3 C4 1_555 1_555
C4 O2 1_555 1_555
C5 H2 1_555 1_555
H3 C5 1_555 1_555
N4 C40 1_555 1_555
C6 O1 1_555 1_555
C7 H4 1_555 1_555
C8 C1 1_555 1_555
C9 C10 1_555 1_555
C10 C21 1_555 1_555
C11 C3 1_555 1_555
H5 C11 1_555 1_555
C12 C17 1_555 1_555
C13 C3 1_555 1_555
C14 C6 1_555 1_555
C15 H6 1_555 1_555
C16 C25 1_555 1_555
C17 C33 1_555 1_555
C18 C26 1_555 1_555
C19 C2 1_555 1_555
C20 H7 1_555 1_555
C21 C42 1_555 1_555
C22 C9 1_555 1_555
C23 C22 1_555 1_555
H8 C23 1_555 1_555
C24 C7 1_555 1_555
C25 C11 1_555 1_555
C26 C14 1_555 1_555
C27 O3 1_555 1_555
C28 N1 1_555 1_555
H9 C28 1_555 1_555
H10 C28 1_555 1_555
C29 C20 1_555 1_555
H11 C29 1_555 1_555
C30 C12 1_555 1_555
H12 C30 1_555 1_555
C31 C15 1_555 1_555
H13 C31 1_555 1_555
C32 C18 1_555 1_555
C33 C8 1_555 1_555
C34 C20 1_555 1_555
H14 C34 1_555 1_555
C35 C16 1_555 1_555
H15 C35 1_555 1_555
C36 C24 1_555 1_555
H16 C36 1_555 1_555
C37 H17 1_555 1_555
C38 C19 1_555 1_555
H18 C38 1_555 1_555
C39 C13 1_555 1_555
C40 N1 1_555 1_555
H19 C40 1_555 1_555
H20 C40 1_555 1_555
C41 C17 1_555 1_555
H21 C41 1_555 1_555
C42 C23 1_555 1_555
C43 H22 1_555 1_555
C44 N3 1_555 1_555
H23 C44 1_555 1_555
H24 C44 1_555 1_555
C45 N2 1_555 1_555
H25 C45 1_555 1_555
H26 C45 1_555 1_555
C46 C9 1_555 1_555
H27 C46 1_555 1_555
C47 C13 1_555 1_555
H28 C47 1_555 1_555
C48 C31 1_555 1_555
H29 C48 1_555 1_555
C49 C26 1_555 1_555
H30 C49 1_555 1_555
C50 C21 1_555 1_555
H31 C50 1_555 1_555
C51 C18 1_555 1_555
H32 C51 1_555 1_555
C52 H33 1_555 1_555
C53 C32 1_555 1_555
H34 C53 1_555 1_555
C54 N2 1_555 1_555
H35 C54 1_555 1_555
H36 C54 1_555 1_555
C55 C36 1_555 1_555
H37 C55 1_555 1_555
C56 C10 1_555 1_555
H38 C56 1_555 1_555
C57 C51 1_555 1_555
H39 C57 1_555 1_555
C58 C39 1_555 1_555
H40 C58 1_555 1_555
C59 C43 1_555 1_555
H41 C59 1_555 1_555
C60 C42 1_555 1_555
H42 C60 1_555 1_555
C61 C47 1_555 1_555
H43 C61 1_555 1_555
C62 C30 1_555 1_555
H44 C62 1_555 1_555
C63 C49 1_555 1_555
H45 C63 1_555 1_555
C64 C50 1_555 1_555
H46 C64 1_555 1_555
C65 C58 1_555 1_555
H47 C65 1_555 1_555
C66 C53 1_555 1_555
H48 C66 1_555 1_555
Cu1A Cu1 1_555 1_555
Cu2A Cu2 1_555 1_555
O5A Cu1 1_555 1_555
O6A Cu2 1_555 1_555
O7A Cu1 1_555 1_555
O8A Cu2 1_555 1_555
O5 Cu1A 1_555 1_555
O6 Cu2A 1_555 1_555
O7 Cu1A 1_555 1_555
O8 Cu2A 1_555 1_555
N3 C45 1_555 1_555
C2 C8 1_555 1_555
N4 C44 1_555 1_555
N4 C54 1_555 1_555
C7 C14 1_555 1_555
C12 C19 1_555 1_555
C15 C25 1_555 1_555
C16 C39 1_555 1_555
C22 C27 1_555 1_555
C24 C32 1_555 1_555
C29 C41 1_555 1_555
C33 C34 1_555 1_555
C35 C48 1_555 1_555
C37 C38 1_555 1_555
C37 C62 1_555 1_555
C43 C56 1_555 1_555
C46 C59 1_555 1_555
C52 C60 1_555 1_555
C52 C64 1_555 1_555
C55 C66 1_555 1_555
C57 C63 1_555 1_555
C61 C65 1_555 1_555

#END
