
#######################################################################
#
#                 Cambridge Crystallographic Data Centre
#                                CCDC 
#
#######################################################################
#
# If this CIF has been generated from an entry in the Cambridge 
# Structural Database, then it will include bibliographic, chemical, 
# crystal, experimental, refinement or atomic coordinate data resulting 
# from the CCDC's data processing and validation procedures.
#
#######################################################################

data_WUZDIF
_symmetry_cell_setting           triclinic
_symmetry_space_group_name_H-M   'P -1'
_symmetry_Int_Tables_number      2
_space_group_name_Hall           '-P 1'
loop_
_symmetry_equiv_pos_site_id
_symmetry_equiv_pos_as_xyz
1 x,y,z
2 -x,-y,-z
_cell_length_a                   9.5611(19)
_cell_length_b                   12.696(3)
_cell_length_c                   14.421(3)
_cell_angle_alpha                70.10(3)
_cell_angle_beta                 87.62(3)
_cell_angle_gamma                87.07(3)
_cell_volume                     1643.31
loop_
_atom_site_label
_atom_site_type_symbol
_atom_site_fract_x
_atom_site_fract_y
_atom_site_fract_z
Cu1 Cu 1.16024(3) 0.48673(3) 0.44067(2)
O1 O 1.05611(18) 0.50377(17) 0.32342(13)
N1 N 1.3014(2) 0.37921(17) 0.40888(15)
N2 N 1.2865(2) 0.45527(17) 0.55602(15)
O2 O 1.03968(17) 0.60615(14) 0.46513(13)
N3 N 0.7074(2) 0.93595(18) 0.39640(16)
C1 C 0.8631(3) 0.8062(2) 0.3499(2)
H1 H 0.8846 0.7685 0.3057
C2 C 1.4005(2) 0.3873(2) 0.55578(18)
C3 C 0.9469(2) 0.7899(2) 0.42877(19)
C4 C 1.4076(2) 0.3432(2) 0.47299(18)
C5 C 0.7889(3) 0.9191(2) 0.4767(2)
C6 C 0.9118(3) 0.8475(2) 0.49607(19)
C7 C 1.5000(3) 0.3626(2) 0.62830(19)
H2 H 1.5786 0.3172 0.6261
C8 C 1.5144(3) 0.2701(2) 0.4591(2)
H3 H 1.5861 0.2446 0.5040
O3 O 1.1914(2) 0.74292(18) 0.43308(19)
C9 C 0.7431(3) 0.8805(2) 0.33550(19)
C10 C 1.3636(3) 0.4735(2) 0.7049(2)
H4 H 1.3480 0.5028 0.7556
C11 C 0.6471(3) 0.8918(2) 0.2529(2)
C12 C 1.2689(3) 0.4971(2) 0.62957(19)
H5 H 1.1907 0.5435 0.6301
C13 C 0.6903(3) 0.8635(3) 0.1708(2)
H6 H 0.7840 0.8439 0.1631
C14 C 1.5118(3) 0.2366(3) 0.3783(2)
H7 H 1.5822 0.1882 0.3679
C15 C 0.7495(3) 0.9771(2) 0.5430(2)
H8 H 0.6694 1.0240 0.5316
C16 C 0.9344(3) 0.5016(3) 0.1551(2)
H9 H 0.9436 0.4347 0.2078
C17 C 1.0082(3) 0.5915(3) 0.1546(2)
C18 C 1.0729(3) 0.7086(2) 0.44311(19)
C19 C 0.8277(3) 0.9648(3) 0.6230(2)
H10 H 0.8009 1.0038 0.6653
C20 C 0.8440(3) 0.5074(3) 0.0774(2)
C21 C 0.9895(3) 0.8363(2) 0.5809(2)
H11 H 1.0693 0.7892 0.5947
C22 C 0.9485(3) 0.8938(3) 0.6424(2)
H12 H 1.0007 0.8860 0.6975
C23 C 1.4047(3) 0.2746(3) 0.3124(2)
H13 H 1.4025 0.2531 0.2569
C24 C 0.9957(3) 0.6925(3) 0.0716(2)
C25 C 0.7613(3) 0.4092(3) 0.0813(2)
O4 O 1.1977(2) 0.6371(2) 0.23745(17)
N4 N 0.8269(2) 0.6014(2) 0.00128(18)
C26 C 0.9001(3) 0.6926(3) -0.0025(2)
C27 C 1.4808(3) 0.4063(2) 0.7038(2)
H14 H 1.5462 0.3905 0.7532
C28 C 1.0966(3) 0.5799(3) 0.2437(2)
C29 C 1.3012(3) 0.3450(2) 0.3306(2)
H15 H 1.2282 0.3699 0.2868
C30 C 1.0699(3) 0.7909(3) 0.0576(2)
H16 H 1.1325 0.7923 0.1048
C31 C 0.5065(3) 0.9230(3) 0.2605(2)
H17 H 0.4752 0.9449 0.3134
C32 C 0.7763(4) 0.3052(3) 0.1543(2)
H18 H 0.8434 0.2947 0.2019
C33 C 0.5959(3) 0.8641(3) 0.1002(2)
H19 H 0.6271 0.8454 0.0457
C34 C 0.8802(4) 0.7921(3) -0.0847(2)
H20 H 0.8163 0.7939 -0.1321
C35 C 0.4127(3) 0.9219(3) 0.1905(3)
H21 H 0.3189 0.9415 0.1976
C36 C 0.6948(4) 0.2165(3) 0.1588(3)
H22 H 0.7070 0.1478 0.2090
C37 C 0.5958(4) 0.2301(4) 0.0889(3)
H23 H 0.5402 0.1710 0.0916
C38 C 1.0504(4) 0.8843(3) -0.0247(3)
H24 H 1.1020 0.9474 -0.0338
C39 C 0.4565(4) 0.8920(3) 0.1101(3)
H25 H 0.3929 0.8908 0.0635
C40 C 0.9529(4) 0.8849(3) -0.0952(3)
H26 H 0.9380 0.9494 -0.1496
C41 C 0.6614(4) 0.4212(3) 0.0100(3)
H27 H 0.6496 0.4893 -0.0410
C42 C 0.5796(4) 0.3320(4) 0.0148(3)
H28 H 0.5129 0.3414 -0.0328
Cu1A Cu 0.83976(3) 0.51327(3) 0.55933(2)
O2A O 0.96032(17) 0.39385(14) 0.53487(13)
loop_
_geom_bond_atom_site_label_1
_geom_bond_atom_site_label_2
_geom_bond_site_symmetry_1
_geom_bond_site_symmetry_2
Cu1 O1 1_555 1_555
O1 C28 1_555 1_555
N1 Cu1 1_555 1_555
N2 Cu1 1_555 1_555
O2 Cu1 1_555 1_555
N3 C5 1_555 1_555
C1 H1 1_555 1_555
C2 N2 1_555 1_555
C3 C1 1_555 1_555
C4 N1 1_555 1_555
C5 C6 1_555 1_555
C6 C3 1_555 1_555
C7 C2 1_555 1_555
H2 C7 1_555 1_555
C8 C4 1_555 1_555
H3 C8 1_555 1_555
O3 C18 1_555 1_555
C9 N3 1_555 1_555
C10 H4 1_555 1_555
C11 C9 1_555 1_555
C12 N2 1_555 1_555
H5 C12 1_555 1_555
C13 C11 1_555 1_555
H6 C13 1_555 1_555
C14 C8 1_555 1_555
H7 C14 1_555 1_555
C15 C5 1_555 1_555
H8 C15 1_555 1_555
C16 H9 1_555 1_555
C17 C16 1_555 1_555
C18 O2 1_555 1_555
C19 C15 1_555 1_555
H10 C19 1_555 1_555
C20 C16 1_555 1_555
C21 C6 1_555 1_555
H11 C21 1_555 1_555
C22 C19 1_555 1_555
H12 C22 1_555 1_555
C23 C14 1_555 1_555
H13 C23 1_555 1_555
C24 C17 1_555 1_555
C25 C20 1_555 1_555
O4 C28 1_555 1_555
N4 C20 1_555 1_555
C26 C24 1_555 1_555
C27 C7 1_555 1_555
H14 C27 1_555 1_555
C28 C17 1_555 1_555
C29 N1 1_555 1_555
H15 C29 1_555 1_555
C30 C24 1_555 1_555
H16 C30 1_555 1_555
C31 C11 1_555 1_555
H17 C31 1_555 1_555
C32 C25 1_555 1_555
H18 C32 1_555 1_555
C33 C13 1_555 1_555
H19 C33 1_555 1_555
C34 C26 1_555 1_555
H20 C34 1_555 1_555
C35 C31 1_555 1_555
H21 C35 1_555 1_555
C36 C32 1_555 1_555
H22 C36 1_555 1_555
C37 C36 1_555 1_555
H23 C37 1_555 1_555
C38 C30 1_555 1_555
H24 C38 1_555 1_555
C39 C33 1_555 1_555
H25 C39 1_555 1_555
C40 C34 1_555 1_555
H26 C40 1_555 1_555
C41 C25 1_555 1_555
H27 C41 1_555 1_555
C42 C37 1_555 1_555
H28 C42 1_555 1_555
Cu1A O2 1_555 1_555
O2A Cu1 1_555 1_555
C1 C9 1_555 1_555
C2 C4 1_555 1_555
C3 C18 1_555 1_555
C10 C12 1_555 1_555
C10 C27 1_555 1_555
C21 C22 1_555 1_555
C23 C29 1_555 1_555
N4 C26 1_555 1_555
C35 C39 1_555 1_555
C38 C40 1_555 1_555
C41 C42 1_555 1_555
Cu1A O2A 1_555 1_555

#END
