
#######################################################################
#
#                 Cambridge Crystallographic Data Centre
#                                CCDC 
#
#######################################################################
#
# If this CIF has been generated from an entry in the Cambridge 
# Structural Database, then it will include bibliographic, chemical, 
# crystal, experimental, refinement or atomic coordinate data resulting 
# from the CCDC's data processing and validation procedures.
#
#######################################################################

data_WUZFIH
_symmetry_cell_setting           orthorhombic
_symmetry_space_group_name_H-M   'P n a 21'
_symmetry_Int_Tables_number      33
_space_group_name_Hall           'P 2c -2n'
loop_
_symmetry_equiv_pos_site_id
_symmetry_equiv_pos_as_xyz
1 x,y,z
2 -x,-y,1/2+z
3 1/2+x,1/2-y,z
4 1/2-x,1/2+y,1/2+z
_cell_length_a                   15.003(3)
_cell_length_b                   31.085(6)
_cell_length_c                   13.095(3)
_cell_angle_alpha                90
_cell_angle_beta                 90
_cell_angle_gamma                90
_cell_volume                     6107.09
loop_
_atom_site_label
_atom_site_type_symbol
_atom_site_fract_x
_atom_site_fract_y
_atom_site_fract_z
Zn1 Zn 0.42935(5) 0.81612(2) 0.66752(8)
Zn2 Zn 0.49704(7) 0.48427(3) 0.97790(10)
Cl1 Cl 0.50616(15) 0.84498(7) 0.79614(17)
Cl2 Cl 0.50034(19) 0.76886(7) 0.5708(2)
Cl3 Cl 0.5202(2) 0.45372(7) 1.1297(2)
Cl4 Cl 0.37049(17) 0.47740(9) 0.8934(3)
N1 N 0.5213(5) 0.54889(19) 1.0024(6)
N2 N 0.3403(4) 0.76493(16) 0.7553(4)
N3 N 0.2993(4) 0.83602(18) 0.6536(5)
N4 N 0.4326(4) 0.87816(18) 0.5648(4)
N5 N 0.8983(4) 0.9660(2) 0.3864(5)
C1 C 0.4846(6) 0.5804(2) 0.9460(7)
H1 H 0.4455 0.5727 0.8939
C2 C 0.5022(6) 0.6241(2) 0.9617(7)
C3 C 0.5619(8) 0.6338(3) 1.0394(9)
H2 H 0.5757 0.6623 1.0537
C4 C 0.6020(8) 0.6004(3) 1.0972(9)
H3 H 0.6438 0.6064 1.1477
C5 C 0.5770(8) 0.5586(3) 1.0761(9)
H4 H 0.6006 0.5365 1.1155
C6 C 0.4578(6) 0.6588(2) 0.9058(7)
C7 C 0.4204(5) 0.6542(2) 0.8080(6)
H5 H 0.4244 0.6277 0.7753
C8 C 0.3782(5) 0.6876(2) 0.7593(6)
C9 C 0.3744(5) 0.7283(2) 0.8065(5)
C10 C 0.4067(6) 0.7336(2) 0.9063(5)
C11 C 0.4478(6) 0.6988(2) 0.9536(6)
H6 H 0.4696 0.7022 1.0195
C12 C 0.3346(6) 0.6797(2) 0.6532(6)
H7 H 0.3108 0.7069 0.6271
C13 C 0.2591(7) 0.6484(3) 0.6675(11)
H8 H 0.2336 0.6415 0.6023
H9 H 0.2143 0.6611 0.7103
H10 H 0.2811 0.6227 0.6991
C14 C 0.3991(8) 0.6616(3) 0.5768(7)
H11 H 0.4253 0.6357 0.6036
H12 H 0.4452 0.6823 0.5635
H13 H 0.3682 0.6551 0.5144
C15 C 0.3961(7) 0.7755(2) 0.9668(6)
H14 H 0.3852 0.7984 0.9170
C16 C 0.3164(9) 0.7736(3) 1.0352(8)
H15 H 0.2633 0.7715 0.9946
H16 H 0.3139 0.7992 1.0761
H17 H 0.3208 0.7489 1.0789
C17 C 0.4760(9) 0.7879(3) 1.0256(8)
H18 H 0.4851 0.7677 1.0801
H19 H 0.4678 0.8162 1.0534
H20 H 0.5271 0.7878 0.9814
C18 C 0.1846(6) 0.7461(3) 0.7957(8)
H21 H 0.2108 0.7218 0.8295
H22 H 0.1458 0.7363 0.7423
H23 H 0.1511 0.7627 0.8441
C19 C 0.2581(5) 0.7739(2) 0.7499(6)
C20 C 0.2316(5) 0.8142(2) 0.6975(6)
C21 C 0.1438(6) 0.8273(3) 0.6915(9)
H24 H 0.0982 0.8100 0.7165
C22 C 0.1254(7) 0.8666(3) 0.6477(11)
H25 H 0.0680 0.8779 0.6497
C23 C 0.1941(7) 0.8891(3) 0.6003(9)
H26 H 0.1820 0.9143 0.5649
C24 C 0.2797(5) 0.8737(2) 0.6061(7)
C25 C 0.3574(6) 0.8961(3) 0.5597(7)
C26 C 0.3375(7) 0.9383(3) 0.5053(10)
H27 H 0.3875 0.9462 0.4635
H28 H 0.3268 0.9605 0.5550
H29 H 0.2856 0.9349 0.4631
C27 C 0.5097(5) 0.8958(2) 0.5174(6)
C28 C 0.5610(5) 0.9281(2) 0.5655(6)
C29 C 0.6382(5) 0.9416(2) 0.5165(6)
H30 H 0.6739 0.9621 0.5481
C30 C 0.6641(6) 0.9256(2) 0.4221(6)
C31 C 0.6102(6) 0.8956(3) 0.3769(6)
H31 H 0.6259 0.8856 0.3125
C32 C 0.5353(6) 0.8797(3) 0.4206(6)
C33 C 0.5359(6) 0.9474(2) 0.6668(8)
H32 H 0.4865 0.9304 0.6946
C34 C 0.6090(8) 0.9471(3) 0.7437(7)
H33 H 0.6293 0.9182 0.7539
H34 H 0.5873 0.9585 0.8072
H35 H 0.6575 0.9645 0.7197
C35 C 0.5016(8) 0.9946(3) 0.6517(11)
H36 H 0.5515 1.0136 0.6435
H37 H 0.4675 1.0032 0.7104
H38 H 0.4646 0.9959 0.5919
C36 C 0.5299(11) 0.8116(4) 0.3121(8)
H39 H 0.4903 0.7892 0.2901
H40 H 0.5729 0.8000 0.3589
H41 H 0.5601 0.8235 0.2539
C37 C 0.4754(8) 0.8476(4) 0.3661(7)
H42 H 0.4369 0.8340 0.4172
C38 C 0.4163(10) 0.8702(5) 0.2886(11)
H43 H 0.3634 0.8805 0.3219
H44 H 0.4002 0.8504 0.2355
H45 H 0.4481 0.8941 0.2595
C39 C 0.7468(5) 0.9412(2) 0.3719(6)
C40 C 0.7542(7) 0.9480(3) 0.2664(7)
H46 H 0.7064 0.9415 0.2239
C41 C 0.8311(8) 0.9642(4) 0.2257(7)
H47 H 0.8348 0.9693 0.1558
C42 C 0.9010(7) 0.9726(3) 0.2853(8)
H48 H 0.9529 0.9834 0.2560
C43 C 0.8225(6) 0.9513(2) 0.4278(6)
H49 H 0.8206 0.9476 0.4983
Zn2C Zn 1.00296(7) 0.98427(3) 0.47790(10)
N5C N 0.6017(4) 0.4660(2) 0.8864(5)
C44 C 0.3442(10) 0.9107(4) 0.9231(13)
H50 H 0.3893 0.8901 0.9001
Cl5 Cl 0.3404(4) 0.9090(2) 1.0536(5)
Cl6 Cl 0.2433(5) 0.8944(4) 0.8768(6)
Cl7 Cl 0.3763(6) 0.96028(15) 0.8853(5)
C45 C 0.6700(7) 0.8849(3) -0.0188(8)
H51 H 0.6454 0.8755 -0.0844
Cl8 Cl 0.5840(2) 0.90366(10) 0.0562(3)
Cl9 Cl 0.7457(3) 0.92805(14) -0.0414(3)
Cl10 Cl 0.7219(4) 0.84232(15) 0.0373(5)
O1 O 0.0895(14) 0.7932(4) 0.2366(9)
H52 H 0.0606 0.7788 0.2774
C46 C 0.1759(11) 0.7845(6) 0.2477(9)
H53 H 0.2098 0.8015 0.2003
H54 H 0.1862 0.7545 0.2346
H55 H 0.1941 0.7912 0.3161
O2 O 0.7532(10) 0.7214(5) 0.4365(9)
O3 O 0.6330(14) 0.6466(5) 0.3843(11)
H56 H 0.6680 0.6264 0.3858
C47 C 0.5427(14) 0.6306(4) 0.3572(9)
H57 H 0.5149 0.6186 0.4167
H58 H 0.5477 0.6089 0.3053
H59 H 0.5073 0.6541 0.3320
O4 O 0.9024(18) 0.8186(8) 0.2659(11)
loop_
_geom_bond_atom_site_label_1
_geom_bond_atom_site_label_2
_geom_bond_site_symmetry_1
_geom_bond_site_symmetry_2
Zn1 Cl1 1_555 1_555
Zn2 Cl3 1_555 1_555
Cl2 Zn1 1_555 1_555
Cl4 Zn2 1_555 1_555
N1 Zn2 1_555 1_555
N2 Zn1 1_555 1_555
N3 Zn1 1_555 1_555
N4 Zn1 1_555 1_555
N5 C42 1_555 1_555
C1 N1 1_555 1_555
H1 C1 1_555 1_555
C2 C1 1_555 1_555
C3 C2 1_555 1_555
H2 C3 1_555 1_555
C4 C3 1_555 1_555
H3 C4 1_555 1_555
C5 N1 1_555 1_555
H4 C5 1_555 1_555
C6 C2 1_555 1_555
C7 C6 1_555 1_555
H5 C7 1_555 1_555
C8 C7 1_555 1_555
C9 N2 1_555 1_555
C10 C9 1_555 1_555
C11 C6 1_555 1_555
H6 C11 1_555 1_555
C12 C8 1_555 1_555
H7 C12 1_555 1_555
C13 C12 1_555 1_555
H8 C13 1_555 1_555
H9 C13 1_555 1_555
H10 C13 1_555 1_555
C14 C12 1_555 1_555
H11 C14 1_555 1_555
H12 C14 1_555 1_555
H13 C14 1_555 1_555
C15 C10 1_555 1_555
H14 C15 1_555 1_555
C16 C15 1_555 1_555
H15 C16 1_555 1_555
H16 C16 1_555 1_555
H17 C16 1_555 1_555
C17 C15 1_555 1_555
H18 C17 1_555 1_555
H19 C17 1_555 1_555
H20 C17 1_555 1_555
C18 H21 1_555 1_555
H22 C18 1_555 1_555
H23 C18 1_555 1_555
C19 N2 1_555 1_555
C20 N3 1_555 1_555
C21 C20 1_555 1_555
H24 C21 1_555 1_555
C22 C21 1_555 1_555
H25 C22 1_555 1_555
C23 C22 1_555 1_555
H26 C23 1_555 1_555
C24 N3 1_555 1_555
C25 N4 1_555 1_555
C26 C25 1_555 1_555
H27 C26 1_555 1_555
H28 C26 1_555 1_555
H29 C26 1_555 1_555
C27 N4 1_555 1_555
C28 C27 1_555 1_555
C29 C28 1_555 1_555
H30 C29 1_555 1_555
C30 C29 1_555 1_555
C31 C30 1_555 1_555
H31 C31 1_555 1_555
C32 C27 1_555 1_555
C33 C28 1_555 1_555
H32 C33 1_555 1_555
C34 C33 1_555 1_555
H33 C34 1_555 1_555
H34 C34 1_555 1_555
H35 C34 1_555 1_555
C35 C33 1_555 1_555
H36 C35 1_555 1_555
H37 C35 1_555 1_555
H38 C35 1_555 1_555
C36 H39 1_555 1_555
H40 C36 1_555 1_555
H41 C36 1_555 1_555
C37 C32 1_555 1_555
H42 C37 1_555 1_555
C38 C37 1_555 1_555
H43 C38 1_555 1_555
H44 C38 1_555 1_555
H45 C38 1_555 1_555
C39 C30 1_555 1_555
C40 C39 1_555 1_555
H46 C40 1_555 1_555
C41 C40 1_555 1_555
H47 C41 1_555 1_555
C42 C41 1_555 1_555
H48 C42 1_555 1_555
C43 N5 1_555 1_555
H49 C43 1_555 1_555
C44 H50 1_555 1_555
Cl5 C44 1_555 1_555
Cl6 C44 1_555 1_555
Cl7 C44 1_555 1_555
C45 H51 1_555 1_555
Cl8 C45 1_555 1_555
Cl9 C45 1_555 1_555
Cl10 C45 1_555 1_555
O1 H52 1_555 1_555
C46 O1 1_555 1_555
H53 C46 1_555 1_555
H54 C46 1_555 1_555
H55 C46 1_555 1_555
O3 H56 1_555 1_555
C47 O3 1_555 1_555
H57 C47 1_555 1_555
H58 C47 1_555 1_555
H59 C47 1_555 1_555
Zn2C N5 1_555 1_555
N5C Zn2 1_555 1_555
C4 C5 1_555 1_555
C8 C9 1_555 1_555
C10 C11 1_555 1_555
C18 C19 1_555 1_555
C19 C20 1_555 1_555
C23 C24 1_555 1_555
C24 C25 1_555 1_555
C31 C32 1_555 1_555
C36 C37 1_555 1_555
C39 C43 1_555 1_555

#END
