
#######################################################################
#
#                 Cambridge Crystallographic Data Centre
#                                CCDC 
#
#######################################################################
#
# If this CIF has been generated from an entry in the Cambridge 
# Structural Database, then it will include bibliographic, chemical, 
# crystal, experimental, refinement or atomic coordinate data resulting 
# from the CCDC's data processing and validation procedures.
#
#######################################################################

data_WUZFUT
_symmetry_cell_setting           triclinic
_symmetry_space_group_name_H-M   'P -1'
_symmetry_Int_Tables_number      2
_space_group_name_Hall           '-P 1'
loop_
_symmetry_equiv_pos_site_id
_symmetry_equiv_pos_as_xyz
1 x,y,z
2 -x,-y,-z
_cell_length_a                   8.8613(8)
_cell_length_b                   16.8356(15)
_cell_length_c                   17.2240(16)
_cell_angle_alpha                104.2870(10)
_cell_angle_beta                 93.0740(10)
_cell_angle_gamma                99.4770(10)
_cell_volume                     2444.14
loop_
_atom_site_label
_atom_site_type_symbol
_atom_site_fract_x
_atom_site_fract_y
_atom_site_fract_z
Zn1 Zn -0.03467(9) 1.07018(5) 1.23094(5)
Br1 Br -0.00394(11) 1.21306(5) 1.24490(6)
Br2 Br 0.17324(10) 1.00835(6) 1.26136(6)
N1 N -0.1196(6) 1.0043(3) 1.1148(3)
N2 N 0.0628(6) 0.5659(3) 0.9120(3)
N3 N 0.2529(5) 0.4365(3) 0.7724(3)
N4 N 0.4210(5) 0.2673(3) 0.6730(3)
N5 N 0.7828(6) 0.0344(3) 0.2918(3)
C1 C -0.0835(7) 0.9289(4) 1.0841(4)
H1 H -0.0209 0.9088 1.1169
C2 C -0.1324(7) 0.8796(4) 1.0077(4)
C3 C -0.2269(8) 0.9090(4) 0.9610(4)
H2 H -0.2618 0.8780 0.9087
C4 C -0.2710(8) 0.9846(4) 0.9912(5)
H3 H -0.3379 1.0044 0.9603
C5 C -0.2139(8) 1.0297(4) 1.0676(5)
H4 H -0.2428 1.0810 1.0875
C6 C -0.0825(7) 0.7969(4) 0.9805(4)
C7 C 0.0646(7) 0.7881(4) 1.0049(4)
H5 H 0.1302 0.8344 1.0378
C8 C 0.1179(7) 0.7141(4) 0.9827(4)
C9 C 0.0150(7) 0.6455(4) 0.9322(4)
C10 C -0.1345(8) 0.6506(4) 0.9085(4)
C11 C -0.1800(7) 0.7287(4) 0.9322(4)
H6 H -0.2781 0.7341 0.9148
C12 C 0.2776(8) 0.7065(4) 1.0131(5)
H7 H 0.3099 0.6622 0.9726
C13 C 0.3972(9) 0.7840(7) 1.0235(10)
H8 H 0.3919 0.8035 0.9757
H9 H 0.4975 0.7715 1.0327
H10 H 0.3786 0.8264 1.0687
C14 C 0.2793(12) 0.6824(11) 1.0858(8)
H11 H 0.3782 0.6697 1.0980
H12 H 0.2014 0.6339 1.0804
H13 H 0.2595 0.7271 1.1285
C15 C -0.2458(9) 0.5749(5) 0.8585(5)
H14 H -0.1933 0.5270 0.8477
C16 C -0.3832(15) 0.5545(9) 0.8983(8)
H15 H -0.4528 0.5914 0.8929
H16 H -0.3544 0.5609 0.9543
H17 H -0.4325 0.4980 0.8738
C17 C -0.3066(18) 0.5860(10) 0.7806(7)
H18 H -0.3936 0.6133 0.7886
H19 H -0.3374 0.5324 0.7428
H20 H -0.2280 0.6194 0.7601
C18 C 0.1317(7) 0.5438(4) 0.8495(4)
C19 C 0.1701(10) 0.5922(5) 0.7914(5)
H21 H 0.1203 0.6397 0.8020
H22 H 0.1360 0.5580 0.7379
H23 H 0.2795 0.6106 0.7961
C20 C 0.1809(6) 0.4605(4) 0.8383(4)
C21 C 0.1541(7) 0.4141(4) 0.8930(4)
H24 H 0.1044 0.4334 0.9382
C22 C 0.2022(8) 0.3383(4) 0.8800(4)
H25 H 0.1849 0.3051 0.9157
C23 C 0.2770(7) 0.3131(4) 0.8119(4)
H26 H 0.3119 0.2627 0.8017
C24 C 0.2994(6) 0.3625(4) 0.7601(4)
C25 C 0.3719(6) 0.3357(4) 0.6829(4)
C26 C 0.3751(9) 0.3881(4) 0.6260(4)
H27 H 0.4249 0.3642 0.5801
H28 H 0.4308 0.4431 0.6519
H29 H 0.2718 0.3913 0.6090
C27 C 0.4745(7) 0.2269(4) 0.5999(4)
C28 C 0.3656(6) 0.1786(4) 0.5369(4)
C29 C 0.4167(7) 0.1264(4) 0.4714(4)
H30 H 0.3451 0.0926 0.4301
C30 C 0.5711(7) 0.1235(4) 0.4662(4)
C31 C 0.6767(7) 0.1730(4) 0.5293(4)
H31 H 0.7807 0.1713 0.5265
C32 C 0.6308(7) 0.2249(4) 0.5965(4)
C33 C 0.1936(7) 0.1784(5) 0.5384(4)
H32 H 0.1784 0.2177 0.5885
C34 C 0.1077(9) 0.0954(6) 0.5378(8)
H33 H 0.1435 0.0535 0.4983
H34 H 0.0001 0.0930 0.5247
H35 H 0.1234 0.0856 0.5900
C35 C 0.1344(9) 0.2096(7) 0.4680(6)
H36 H 0.1949 0.2628 0.4694
H37 H 0.0288 0.2149 0.4725
H38 H 0.1425 0.1704 0.4180
C36 C 0.7487(8) 0.2752(5) 0.6687(5)
H39 H 0.6925 0.2926 0.7155
C37 C 0.8649(11) 0.2294(7) 0.6906(6)
H40 H 0.9364 0.2234 0.6505
H41 H 0.8153 0.1753 0.6937
H42 H 0.9189 0.2597 0.7419
C38 C 0.8293(15) 0.3532(7) 0.6473(9)
H43 H 0.9014 0.3862 0.6917
H44 H 0.7545 0.3852 0.6363
H45 H 0.8829 0.3372 0.6006
C39 C 0.6174(7) 0.0639(4) 0.3968(4)
C40 C 0.5331(8) -0.0166(4) 0.3664(4)
H46 H 0.4465 -0.0339 0.3904
C41 C 0.5757(9) -0.0701(4) 0.3020(4)
H47 H 0.5206 -0.1242 0.2828
C42 C 0.7001(9) -0.0433(4) 0.2660(5)
H48 H 0.7289 -0.0800 0.2219
C43 C 0.7408(7) 0.0860(4) 0.3555(4)
H49 H 0.7974 0.1399 0.3732
Zn1_2 Zn 0.96533(9) 0.07018(5) 0.23094(5)
N5_2 N -0.2172(6) 1.0344(3) 1.2918(3)
C44 C 0.5707(15) 0.7783(11) 0.7003(12)
H50 H 0.5809 0.8250 0.6761
H51 H 0.6729 0.7732 0.7191
Cl1 Cl 0.4638(6) 0.7978(5) 0.7805(5)
Cl2 Cl 0.4900(11) 0.6907(7) 0.6306(6)
loop_
_geom_bond_atom_site_label_1
_geom_bond_atom_site_label_2
_geom_bond_site_symmetry_1
_geom_bond_site_symmetry_2
Zn1 Br1 1_555 1_555
Br2 Zn1 1_555 1_555
N1 Zn1 1_555 1_555
N2 C9 1_555 1_555
N3 C20 1_555 1_555
N4 C25 1_555 1_555
N5 C42 1_555 1_555
C1 N1 1_555 1_555
H1 C1 1_555 1_555
C2 C1 1_555 1_555
C3 C2 1_555 1_555
H2 C3 1_555 1_555
C4 C3 1_555 1_555
H3 C4 1_555 1_555
C5 N1 1_555 1_555
H4 C5 1_555 1_555
C6 C2 1_555 1_555
C7 C6 1_555 1_555
H5 C7 1_555 1_555
C8 C7 1_555 1_555
C9 C8 1_555 1_555
C10 C9 1_555 1_555
C11 C6 1_555 1_555
H6 C11 1_555 1_555
C12 C8 1_555 1_555
H7 C12 1_555 1_555
C13 C12 1_555 1_555
H8 C13 1_555 1_555
H9 C13 1_555 1_555
H10 C13 1_555 1_555
C14 C12 1_555 1_555
H11 C14 1_555 1_555
H12 C14 1_555 1_555
H13 C14 1_555 1_555
C15 C10 1_555 1_555
H14 C15 1_555 1_555
C16 C15 1_555 1_555
H15 C16 1_555 1_555
H16 C16 1_555 1_555
H17 C16 1_555 1_555
C17 C15 1_555 1_555
H18 C17 1_555 1_555
H19 C17 1_555 1_555
H20 C17 1_555 1_555
C18 N2 1_555 1_555
C19 C18 1_555 1_555
H21 C19 1_555 1_555
H22 C19 1_555 1_555
H23 C19 1_555 1_555
C20 C18 1_555 1_555
C21 C20 1_555 1_555
H24 C21 1_555 1_555
C22 C21 1_555 1_555
H25 C22 1_555 1_555
C23 C22 1_555 1_555
H26 C23 1_555 1_555
C24 N3 1_555 1_555
C25 C24 1_555 1_555
C26 C25 1_555 1_555
H27 C26 1_555 1_555
H28 C26 1_555 1_555
H29 C26 1_555 1_555
C27 N4 1_555 1_555
C28 C27 1_555 1_555
C29 C28 1_555 1_555
H30 C29 1_555 1_555
C30 C29 1_555 1_555
C31 C30 1_555 1_555
H31 C31 1_555 1_555
C32 C27 1_555 1_555
C33 C28 1_555 1_555
H32 C33 1_555 1_555
C34 C33 1_555 1_555
H33 C34 1_555 1_555
H34 C34 1_555 1_555
H35 C34 1_555 1_555
C35 C33 1_555 1_555
H36 C35 1_555 1_555
H37 C35 1_555 1_555
H38 C35 1_555 1_555
C36 C32 1_555 1_555
H39 C36 1_555 1_555
C37 C36 1_555 1_555
H40 C37 1_555 1_555
H41 C37 1_555 1_555
H42 C37 1_555 1_555
C38 C36 1_555 1_555
H43 C38 1_555 1_555
H44 C38 1_555 1_555
H45 C38 1_555 1_555
C39 C30 1_555 1_555
C40 C39 1_555 1_555
H46 C40 1_555 1_555
C41 C40 1_555 1_555
H47 C41 1_555 1_555
C42 C41 1_555 1_555
H48 C42 1_555 1_555
C43 N5 1_555 1_555
H49 C43 1_555 1_555
C44 H50 1_555 1_555
H51 C44 1_555 1_555
Cl1 C44 1_555 1_555
Cl2 C44 1_555 1_555
Zn1_2 N5 1_555 1_555
N5_2 Zn1 1_555 1_555
C4 C5 1_555 1_555
C10 C11 1_555 1_555
C23 C24 1_555 1_555
C31 C32 1_555 1_555
C39 C43 1_555 1_555

#END
