
#######################################################################
#
#                 Cambridge Crystallographic Data Centre
#                                CCDC 
#
#######################################################################
#
# If this CIF has been generated from an entry in the Cambridge 
# Structural Database, then it will include bibliographic, chemical, 
# crystal, experimental, refinement or atomic coordinate data resulting 
# from the CCDC's data processing and validation procedures.
#
#######################################################################

data_WUZFON
_symmetry_cell_setting           triclinic
_symmetry_space_group_name_H-M   'P -1'
_symmetry_Int_Tables_number      2
_space_group_name_Hall           '-P 1'
loop_
_symmetry_equiv_pos_site_id
_symmetry_equiv_pos_as_xyz
1 x,y,z
2 -x,-y,-z
_cell_length_a                   8.753(11)
_cell_length_b                   16.52(2)
_cell_length_c                   16.82(2)
_cell_angle_alpha                103.068(15)
_cell_angle_beta                 94.392(17)
_cell_angle_gamma                98.362(16)
_cell_volume                     2328.82
loop_
_atom_site_label
_atom_site_type_symbol
_atom_site_fract_x
_atom_site_fract_y
_atom_site_fract_z
Zn1 Zn 0.96915(10) 0.57499(5) -0.26763(5)
N1 N 0.7889(7) 0.5363(3) -0.2083(3)
N2 N 0.4237(6) 0.7659(3) 0.1739(3)
N3 N 0.2567(6) 0.9372(3) 0.2718(3)
N4 N 0.0686(6) 1.0687(3) 0.4122(3)
N5 N -0.1188(7) 1.5085(3) 0.6150(3)
Cl1 Cl 0.9851(3) 0.71019(11) -0.25529(14)
Cl2 Cl 1.1709(3) 0.51842(14) -0.23721(15)
C1 C 0.7444(8) 0.5880(4) -0.1443(4)
H1 H 0.8013 0.6421 -0.1254
C2 C 0.6201(8) 0.5658(4) -0.1052(4)
C3 C 0.5343(9) 0.4856(4) -0.1342(4)
H2 H 0.4476 0.4683 -0.1097
C4 C 0.5808(10) 0.4314(4) -0.2009(5)
H3 H 0.5260 0.3771 -0.2216
C5 C 0.7058(10) 0.4591(4) -0.2345(5)
H4 H 0.7364 0.4224 -0.2786
C6 C 0.5728(8) 0.6244(4) -0.0346(4)
C7 C 0.6781(8) 0.6721(4) 0.0310(4)
H5 H 0.7834 0.6701 0.0288
C8 C 0.6328(7) 0.7222(4) 0.0990(4)
C9 C 0.4753(7) 0.7262(3) 0.1005(4)
C10 C 0.3668(7) 0.6808(4) 0.0350(4)
C11 C 0.4181(8) 0.6295(4) -0.0319(4)
H6 H 0.3462 0.5981 -0.0755
C12 C 0.1950(8) 0.6814(4) 0.0348(5)
H7 H 0.1777 0.7166 0.0875
C13 C 0.1058(9) 0.5967(5) 0.0255(7)
H8 H 0.1191 0.5615 -0.0265
H9 H -0.0023 0.6003 0.0279
H10 H 0.1423 0.5729 0.0690
C14 C 0.1364(10) 0.7212(6) -0.0349(7)
H11 H 0.2058 0.7722 -0.0336
H12 H 0.0341 0.7337 -0.0269
H13 H 0.1331 0.6822 -0.0871
C15 C 0.7480(9) 0.7702(5) 0.1723(5)
H14 H 0.6902 0.7873 0.2192
C16 C 0.8633(13) 0.7197(7) 0.1959(6)
H15 H 0.8129 0.6772 0.2201
H16 H 0.9445 0.7560 0.2349
H17 H 0.9068 0.6934 0.1479
C17 C 0.8323(16) 0.8491(7) 0.1525(9)
H18 H 0.8985 0.8335 0.1107
H19 H 0.8941 0.8841 0.2011
H20 H 0.7577 0.8796 0.1333
C18 C 0.3808(11) 0.8913(4) 0.1261(5)
H21 H 0.4367 0.8692 0.0814
H22 H 0.4328 0.9468 0.1543
H23 H 0.2772 0.8942 0.1050
C19 C 0.3741(7) 0.8358(4) 0.1836(4)
C20 C 0.3019(7) 0.8622(3) 0.2601(4)
C21 C 0.2778(8) 0.8108(4) 0.3120(4)
H24 H 0.3124 0.7592 0.3020
C22 C 0.2021(9) 0.8357(4) 0.3789(4)
H25 H 0.1826 0.8006 0.4144
C23 C 0.1554(8) 0.9122(4) 0.3933(4)
H26 H 0.1055 0.9308 0.4392
C24 C 0.1842(7) 0.9615(3) 0.3380(4)
C25 C 0.1770(12) 1.0962(5) 0.2897(5)
H27 H 0.1289 1.1456 0.3004
H28 H 0.1404 1.0630 0.2352
H29 H 0.2877 1.1126 0.2945
C26 C 0.1365(8) 1.0454(4) 0.3505(4)
C27 C 0.0195(8) 1.1482(4) 0.4319(4)
C28 C 0.1234(8) 1.2154(4) 0.4832(4)
C29 C 0.0705(8) 1.2922(4) 0.5058(4)
H30 H 0.1374 1.3381 0.5395
C30 C -0.0751(8) 1.3024(3) 0.4805(4)
C31 C -0.1736(8) 1.2337(4) 0.4309(4)
H31 H -0.2736 1.2401 0.4135
C32 C -0.1292(8) 1.1560(4) 0.4063(4)
C33 C 0.2856(8) 1.2054(4) 0.5138(5)
H32 H 0.3194 1.1629 0.4711
C34 C 0.4044(10) 1.2834(6) 0.5294(8)
H33 H 0.3883 1.3218 0.5790
H34 H 0.3948 1.3095 0.4842
H35 H 0.5064 1.2690 0.5352
C35 C 0.2838(13) 1.1740(9) 0.5863(8)
H36 H 0.3829 1.1588 0.5992
H37 H 0.2042 1.1252 0.5773
H38 H 0.2629 1.2168 0.6313
C36 C -0.2401(10) 1.0809(5) 0.3542(6)
H39 H -0.1875 1.0318 0.3484
C37 C -0.2832(18) 1.0903(9) 0.2744(9)
H40 H -0.3452 1.0389 0.2423
H41 H -0.1915 1.1030 0.2486
H42 H -0.3422 1.1354 0.2780
C38 C -0.3831(14) 1.0625(8) 0.3926(8)
H43 H -0.4545 1.0181 0.3553
H44 H -0.4301 1.1122 0.4054
H45 H -0.3578 1.0453 0.4422
C39 C -0.1300(8) 1.3834(3) 0.5084(4)
C40 C -0.2307(9) 1.4128(4) 0.4602(4)
H46 H -0.2663 1.3823 0.4068
C41 C -0.2790(9) 1.4881(4) 0.4917(5)
H47 H -0.3526 1.5073 0.4610
C42 C -0.2183(9) 1.5343(4) 0.5682(5)
H48 H -0.2487 1.5861 0.5880
C43 C -0.0757(8) 1.4336(4) 0.5852(4)
H49 H -0.0056 1.4148 0.6183
Zn1_2 Zn -0.03085(10) 1.57499(5) 0.73237(5)
N5_2 N 0.8812(7) 0.5085(3) -0.3850(3)
Cl3 Cl 0.4672(12) 0.2994(7) 0.2783(8)
Cl4 Cl 0.499(2) 0.1807(10) 0.1240(9)
C44 C 0.577(3) 0.2771(17) 0.208(2)
H50 H 0.6758 0.2696 0.2333
H51 H 0.5974 0.3249 0.1836
O1 O 0.022(3) 0.0608(12) 0.0474(12)
loop_
_geom_bond_atom_site_label_1
_geom_bond_atom_site_label_2
_geom_bond_site_symmetry_1
_geom_bond_site_symmetry_2
Zn1 N1 1_555 1_555
N1 C1 1_555 1_555
N2 C9 1_555 1_555
N3 C20 1_555 1_555
N4 C26 1_555 1_555
N5 C42 1_555 1_555
Cl1 Zn1 1_555 1_555
Cl2 Zn1 1_555 1_555
C1 H1 1_555 1_555
C2 C1 1_555 1_555
C3 C2 1_555 1_555
H2 C3 1_555 1_555
C4 C3 1_555 1_555
H3 C4 1_555 1_555
C5 N1 1_555 1_555
H4 C5 1_555 1_555
C6 C2 1_555 1_555
C7 C6 1_555 1_555
H5 C7 1_555 1_555
C8 C7 1_555 1_555
C9 C8 1_555 1_555
C10 C9 1_555 1_555
C11 C6 1_555 1_555
H6 C11 1_555 1_555
C12 C10 1_555 1_555
H7 C12 1_555 1_555
C13 C12 1_555 1_555
H8 C13 1_555 1_555
H9 C13 1_555 1_555
H10 C13 1_555 1_555
C14 C12 1_555 1_555
H11 C14 1_555 1_555
H12 C14 1_555 1_555
H13 C14 1_555 1_555
C15 C8 1_555 1_555
H14 C15 1_555 1_555
C16 C15 1_555 1_555
H15 C16 1_555 1_555
H16 C16 1_555 1_555
H17 C16 1_555 1_555
C17 C15 1_555 1_555
H18 C17 1_555 1_555
H19 C17 1_555 1_555
H20 C17 1_555 1_555
C18 H21 1_555 1_555
H22 C18 1_555 1_555
H23 C18 1_555 1_555
C19 N2 1_555 1_555
C20 C19 1_555 1_555
C21 C20 1_555 1_555
H24 C21 1_555 1_555
C22 C21 1_555 1_555
H25 C22 1_555 1_555
C23 C22 1_555 1_555
H26 C23 1_555 1_555
C24 N3 1_555 1_555
C25 H27 1_555 1_555
H28 C25 1_555 1_555
H29 C25 1_555 1_555
C26 C24 1_555 1_555
C27 N4 1_555 1_555
C28 C27 1_555 1_555
C29 C28 1_555 1_555
H30 C29 1_555 1_555
C30 C29 1_555 1_555
C31 C30 1_555 1_555
H31 C31 1_555 1_555
C32 C27 1_555 1_555
C33 C28 1_555 1_555
H32 C33 1_555 1_555
C34 C33 1_555 1_555
H33 C34 1_555 1_555
H34 C34 1_555 1_555
H35 C34 1_555 1_555
C35 C33 1_555 1_555
H36 C35 1_555 1_555
H37 C35 1_555 1_555
H38 C35 1_555 1_555
C36 C32 1_555 1_555
H39 C36 1_555 1_555
C37 C36 1_555 1_555
H40 C37 1_555 1_555
H41 C37 1_555 1_555
H42 C37 1_555 1_555
C38 C36 1_555 1_555
H43 C38 1_555 1_555
H44 C38 1_555 1_555
H45 C38 1_555 1_555
C39 C30 1_555 1_555
C40 C39 1_555 1_555
H46 C40 1_555 1_555
C41 C40 1_555 1_555
H47 C41 1_555 1_555
C42 C41 1_555 1_555
H48 C42 1_555 1_555
C43 N5 1_555 1_555
H49 C43 1_555 1_555
Cl3 C44 1_555 1_555
Cl4 C44 1_555 1_555
C44 H50 1_555 1_555
H51 C44 1_555 1_555
Zn1_2 N5 1_555 1_555
N5_2 Zn1 1_555 1_555
C4 C5 1_555 1_555
C10 C11 1_555 1_555
C18 C19 1_555 1_555
C23 C24 1_555 1_555
C25 C26 1_555 1_555
C31 C32 1_555 1_555
C39 C43 1_555 1_555

#END
