
#######################################################################
#
#                 Cambridge Crystallographic Data Centre
#                                CCDC 
#
#######################################################################
#
# If this CIF has been generated from an entry in the Cambridge 
# Structural Database, then it will include bibliographic, chemical, 
# crystal, experimental, refinement or atomic coordinate data resulting 
# from the CCDC's data processing and validation procedures.
#
#######################################################################

data_WUZGEE
_symmetry_cell_setting           triclinic
_symmetry_space_group_name_H-M   'P -1'
_symmetry_Int_Tables_number      2
_space_group_name_Hall           '-P 1'
loop_
_symmetry_equiv_pos_site_id
_symmetry_equiv_pos_as_xyz
1 x,y,z
2 -x,-y,-z
_cell_length_a                   9.3232(19)
_cell_length_b                   13.392(3)
_cell_length_c                   19.236(4)
_cell_angle_alpha                99.65(3)
_cell_angle_beta                 93.16(3)
_cell_angle_gamma                99.26(3)
_cell_volume                     2328.56
loop_
_atom_site_label
_atom_site_type_symbol
_atom_site_fract_x
_atom_site_fract_y
_atom_site_fract_z
Zn1 Zn 0.5000 0.0000 -0.5000
N1 N 0.7004(4) -0.0176(2) -0.44368(16)
N2 N 0.8975(4) 0.1176(3) -0.03314(17)
N3 N 0.7982(3) 0.2753(2) 0.11677(16)
N4 N 0.7194(4) 0.3736(2) 0.29010(17)
N5 N 0.4169(4) 0.8402(2) 0.49650(17)
N6 N 0.3449(5) 0.0570(4) -0.3453(2)
O1 O 0.4049(4) 0.0392(2) -0.40009(16)
O2 O 0.3252(6) -0.0029(5) -0.3076(3)
O3 O 0.2861(6) 0.1358(4) -0.3379(3)
C1 C 0.8030(5) -0.0633(3) -0.4754(2)
H1 H 0.7874 -0.0904 -0.5236
C2 C 0.9311(5) -0.0716(4) -0.4391(2)
H2 H 1.0013 -0.1026 -0.4628
C3 C 0.9546(5) -0.0335(3) -0.3672(2)
H3 H 1.0411 -0.0377 -0.3423
C4 C 0.8478(4) 0.0110(3) -0.3328(2)
C5 C 0.7235(5) 0.0177(3) -0.3739(2)
H4 H 0.6518 0.0487 -0.3515
C6 C 0.8614(4) 0.0443(3) -0.2554(2)
C7 C 0.7472(4) 0.0092(3) -0.2164(2)
H5 H 0.6629 -0.0314 -0.2404
C8 C 0.7554(4) 0.0329(3) -0.1435(2)
C9 C 0.8818(5) 0.0978(3) -0.1082(2)
C10 C 0.9982(4) 0.1341(3) -0.1458(2)
C11 C 0.9844(5) 0.1051(3) -0.2187(2)
H6 H 1.0617 0.1276 -0.2440
C12 C 0.6353(5) -0.0125(4) -0.1015(2)
H7 H 0.6196 0.0424 -0.0636
C13 C 0.6800(7) -0.0962(5) -0.0674(3)
H8 H 0.7701 -0.0705 -0.0387
H9 H 0.6929 -0.1524 -0.1033
H10 H 0.6058 -0.1196 -0.0383
C14 C 0.4898(6) -0.0522(5) -0.1460(3)
H11 H 0.4182 -0.0793 -0.1169
H12 H 0.5021 -0.1055 -0.1842
H13 H 0.4579 0.0032 -0.1649
C15 C 1.1352(5) 0.2027(4) -0.1074(2)
H14 H 1.1246 0.2103 -0.0565
C16 C 1.2694(6) 0.1564(5) -0.1218(3)
H15 H 1.2583 0.0902 -0.1078
H16 H 1.3528 0.2006 -0.0954
H17 H 1.2827 0.1486 -0.1714
C17 C 1.1517(7) 0.3092(5) -0.1270(4)
H18 H 1.0659 0.3381 -0.1167
H19 H 1.1646 0.3041 -0.1766
H20 H 1.2352 0.3527 -0.1000
C18 C 0.8429(5) 0.1900(3) 0.0019(2)
C19 C 0.7666(6) 0.2640(4) -0.0288(3)
H21 H 0.7647 0.2493 -0.0795
H22 H 0.8174 0.3328 -0.0117
H23 H 0.6686 0.2578 -0.0151
C20 C 0.8570(4) 0.2005(3) 0.0806(2)
C21 C 0.9256(4) 0.1340(3) 0.1132(2)
H24 H 0.9679 0.0833 0.0869
C22 C 0.9290(6) 0.1452(4) 0.1856(2)
H25 H 0.9740 0.1018 0.2092
C23 C 0.8659(5) 0.2205(3) 0.2230(2)
H26 H 0.8674 0.2285 0.2720
C24 C 0.8003(4) 0.2842(3) 0.1874(2)
C25 C 0.7283(5) 0.3677(3) 0.2237(2)
C26 C 0.6716(6) 0.4371(4) 0.1798(3)
H27 H 0.6278 0.4869 0.2093
H28 H 0.6000 0.3972 0.1438
H29 H 0.7506 0.4717 0.1580
C27 C 0.6483(4) 0.4480(3) 0.3288(2)
C28 C 0.7287(4) 0.5448(3) 0.3603(2)
C29 C 0.6568(4) 0.6127(3) 0.4021(2)
H30 H 0.7081 0.6775 0.4221
C30 C 0.5122(5) 0.5880(3) 0.4150(2)
C31 C 0.4366(5) 0.4905(3) 0.3843(2)
H31 H 0.3392 0.4727 0.3925
C32 C 0.5014(4) 0.4199(3) 0.3422(2)
C33 C 0.8895(5) 0.5741(3) 0.3485(3)
H32 H 0.8994 0.5488 0.2985
C34 C 0.9832(6) 0.5211(5) 0.3903(4)
H33 H 0.9478 0.4484 0.3802
H34 H 0.9805 0.5463 0.4398
H35 H 1.0818 0.5346 0.3776
C35 C 0.9431(6) 0.6900(4) 0.3618(4)
H36 H 1.0441 0.7036 0.3531
H37 H 0.9317 0.7183 0.4100
H38 H 0.8871 0.7209 0.3306
C36 C 0.4148(5) 0.3149(3) 0.3098(3)
H39 H 0.4834 0.2707 0.2916
C37 C 0.3280(7) 0.2636(4) 0.3621(3)
H40 H 0.2764 0.1975 0.3389
H41 H 0.2595 0.3056 0.3803
H42 H 0.3929 0.2552 0.4004
C38 C 0.3119(8) 0.3231(5) 0.2490(4)
H43 H 0.3660 0.3539 0.2146
H44 H 0.2423 0.3650 0.2659
H45 H 0.2617 0.2558 0.2275
C39 C 0.4385(4) 0.6631(3) 0.4591(2)
C40 C 0.3347(5) 0.6342(3) 0.5038(2)
H46 H 0.3067 0.5653 0.5066
C41 C 0.2729(5) 0.7085(3) 0.5440(2)
H47 H 0.2022 0.6901 0.5739
C42 C 0.3163(5) 0.8096(3) 0.5395(2)
H48 H 0.2745 0.8592 0.5674
C43 C 0.4736(4) 0.7656(3) 0.4566(2)
H49 H 0.5409 0.7852 0.4254
Zn1_2 Zn 0.5000 -1.0000 -1.5000
Zn1_3 Zn 0.5000 1.0000 0.5000
N1A N 0.2996(4) 0.0176(2) -0.55632(16)
N2A N 0.1025(4) -0.1176(3) -0.96686(17)
N3A N 0.2018(3) -0.2753(2) -1.11677(16)
N4A N 0.2806(4) -0.3736(2) -1.29010(17)
N5A N 0.5831(4) -0.8402(2) -1.49650(17)
N5_2 N 0.4169(4) -0.1598(2) -0.50350(17)
N5A_2 N 0.5831(4) 0.1598(2) -0.49650(17)
N6A N 0.6551(5) -0.0570(4) -0.6547(2)
O1A O 0.5951(4) -0.0392(2) -0.59991(16)
O2A O 0.6748(6) 0.0029(5) -0.6924(3)
O3A O 0.7139(6) -0.1358(4) -0.6621(3)
C1A C 0.1970(5) 0.0633(3) -0.5246(2)
H1A H 0.2126 0.0904 -0.4764
C2A C 0.0689(5) 0.0716(4) -0.5609(2)
H2A H -0.0013 0.1026 -0.5372
C3A C 0.0454(5) 0.0335(3) -0.6328(2)
H3A H -0.0411 0.0377 -0.6577
C4A C 0.1522(4) -0.0110(3) -0.6672(2)
C5A C 0.2765(5) -0.0177(3) -0.6261(2)
H4A H 0.3482 -0.0487 -0.6485
C6A C 0.1386(4) -0.0443(3) -0.7446(2)
C7A C 0.2528(4) -0.0092(3) -0.7836(2)
H5A H 0.3371 0.0314 -0.7596
C8A C 0.2446(4) -0.0329(3) -0.8565(2)
C9A C 0.1182(5) -0.0978(3) -0.8918(2)
C10A C 0.0018(4) -0.1341(3) -0.8542(2)
C11A C 0.0156(5) -0.1051(3) -0.7813(2)
H6A H -0.0617 -0.1276 -0.7560
C12A C 0.3647(5) 0.0125(4) -0.8985(2)
H7A H 0.3804 -0.0424 -0.9364
C13A C 0.3200(7) 0.0962(5) -0.9326(3)
H8A H 0.2299 0.0705 -0.9613
H9A H 0.3071 0.1524 -0.8967
H10A H 0.3942 0.1196 -0.9617
C14A C 0.5102(6) 0.0522(5) -0.8540(3)
H11A H 0.5818 0.0793 -0.8831
H12A H 0.4979 0.1055 -0.8158
H13A H 0.5421 -0.0032 -0.8351
C15A C -0.1352(5) -0.2027(4) -0.8926(2)
H14A H -0.1246 -0.2103 -0.9435
C16A C -0.2694(6) -0.1564(5) -0.8782(3)
H15A H -0.2583 -0.0902 -0.8922
H16A H -0.3528 -0.2006 -0.9046
H17A H -0.2827 -0.1486 -0.8286
C17A C -0.1517(7) -0.3092(5) -0.8730(4)
H18A H -0.0659 -0.3381 -0.8833
H19A H -0.1646 -0.3041 -0.8234
H20A H -0.2352 -0.3527 -0.9000
C18A C 0.1571(5) -0.1900(3) -1.0019(2)
C19A C 0.2334(6) -0.2640(4) -0.9712(3)
H21A H 0.2353 -0.2493 -0.9205
H22A H 0.1826 -0.3328 -0.9883
H23A H 0.3314 -0.2578 -0.9849
C20A C 0.1430(4) -0.2005(3) -1.0806(2)
C21A C 0.0744(4) -0.1340(3) -1.1132(2)
H24A H 0.0321 -0.0833 -1.0869
C22A C 0.0710(6) -0.1452(4) -1.1856(2)
H25A H 0.0260 -0.1018 -1.2092
C23A C 0.1341(5) -0.2205(3) -1.2230(2)
H26A H 0.1326 -0.2285 -1.2720
C24A C 0.1997(4) -0.2842(3) -1.1874(2)
C25A C 0.2717(5) -0.3677(3) -1.2237(2)
C26A C 0.3284(6) -0.4371(4) -1.1798(3)
H27A H 0.3722 -0.4869 -1.2093
H28A H 0.4000 -0.3972 -1.1438
H29A H 0.2494 -0.4717 -1.1580
C27A C 0.3517(4) -0.4480(3) -1.3288(2)
C28A C 0.2713(4) -0.5448(3) -1.3603(2)
C29A C 0.3432(4) -0.6127(3) -1.4021(2)
H30A H 0.2919 -0.6775 -1.4221
C30A C 0.4878(5) -0.5880(3) -1.4150(2)
C31A C 0.5634(5) -0.4905(3) -1.3843(2)
H31A H 0.6608 -0.4727 -1.3925
C32A C 0.4986(4) -0.4199(3) -1.3422(2)
C33A C 0.1105(5) -0.5741(3) -1.3485(3)
H32A H 0.1006 -0.5488 -1.2985
C34A C 0.0168(6) -0.5211(5) -1.3903(4)
H33A H 0.0522 -0.4484 -1.3802
H34A H 0.0195 -0.5463 -1.4398
H35A H -0.0818 -0.5346 -1.3776
C35A C 0.0569(6) -0.6900(4) -1.3618(4)
H36A H -0.0441 -0.7036 -1.3531
H37A H 0.0683 -0.7183 -1.4100
H38A H 0.1129 -0.7209 -1.3306
C36A C 0.5852(5) -0.3149(3) -1.3098(3)
H39A H 0.5166 -0.2707 -1.2916
C37A C 0.6720(7) -0.2636(4) -1.3621(3)
H40A H 0.7236 -0.1975 -1.3389
H41A H 0.7405 -0.3056 -1.3803
H42A H 0.6071 -0.2552 -1.4004
C38A C 0.6881(8) -0.3231(5) -1.2490(4)
H43A H 0.6340 -0.3539 -1.2146
H44A H 0.7577 -0.3650 -1.2659
H45A H 0.7383 -0.2558 -1.2275
C39A C 0.5615(4) -0.6631(3) -1.4591(2)
C40A C 0.6653(5) -0.6342(3) -1.5038(2)
H46A H 0.6933 -0.5653 -1.5066
C41A C 0.7271(5) -0.7085(3) -1.5440(2)
H47A H 0.7978 -0.6901 -1.5739
C42A C 0.6837(5) -0.8096(3) -1.5395(2)
H48A H 0.7255 -0.8592 -1.5674
C43A C 0.5264(4) -0.7656(3) -1.4566(2)
H49A H 0.4591 -0.7852 -1.4254
C44 C 0.3117(10) 0.6156(5) 0.1890(4)
C45 C 0.3974(6) 0.5833(8) 0.1356(6)
H50 H 0.4919 0.6181 0.1349
C46 C 0.3418(13) 0.4990(8) 0.0832(4)
H51 H 0.3991 0.4774 0.0475
C47 C 0.2006(14) 0.4470(5) 0.0842(5)
H52 H 0.1634 0.3905 0.0491
C48 C 0.1149(7) 0.4793(7) 0.1375(6)
H53 H 0.0204 0.4445 0.1382
C49 C 0.1705(9) 0.5636(8) 0.1899(4)
H54 H 0.1132 0.5852 0.2257
C50 C 0.3716(16) 0.6998(9) 0.2409(6)
H55 H 0.3020 0.7124 0.2748
H56 H 0.3963 0.7594 0.2194
H57 H 0.4579 0.6858 0.2643
loop_
_geom_bond_atom_site_label_1
_geom_bond_atom_site_label_2
_geom_bond_site_symmetry_1
_geom_bond_site_symmetry_2
Zn1 N1 1_555 1_555
N1 C1 1_555 1_555
N2 C9 1_555 1_555
N3 C20 1_555 1_555
N4 C25 1_555 1_555
N5 C42 1_555 1_555
N6 O1 1_555 1_555
O1 Zn1 1_555 1_555
O2 N6 1_555 1_555
O3 N6 1_555 1_555
C1 H1 1_555 1_555
C2 C1 1_555 1_555
H2 C2 1_555 1_555
C3 C2 1_555 1_555
H3 C3 1_555 1_555
C4 C3 1_555 1_555
C5 N1 1_555 1_555
H4 C5 1_555 1_555
C6 C4 1_555 1_555
C7 C6 1_555 1_555
H5 C7 1_555 1_555
C8 C7 1_555 1_555
C9 C8 1_555 1_555
C10 C9 1_555 1_555
C11 C6 1_555 1_555
H6 C11 1_555 1_555
C12 C8 1_555 1_555
H7 C12 1_555 1_555
C13 C12 1_555 1_555
H8 C13 1_555 1_555
H9 C13 1_555 1_555
H10 C13 1_555 1_555
C14 C12 1_555 1_555
H11 C14 1_555 1_555
H12 C14 1_555 1_555
H13 C14 1_555 1_555
C15 C10 1_555 1_555
H14 C15 1_555 1_555
C16 C15 1_555 1_555
H15 C16 1_555 1_555
H16 C16 1_555 1_555
H17 C16 1_555 1_555
C17 C15 1_555 1_555
H18 C17 1_555 1_555
H19 C17 1_555 1_555
H20 C17 1_555 1_555
C18 N2 1_555 1_555
C19 C18 1_555 1_555
H21 C19 1_555 1_555
H22 C19 1_555 1_555
H23 C19 1_555 1_555
C20 C18 1_555 1_555
C21 C20 1_555 1_555
H24 C21 1_555 1_555
C22 C21 1_555 1_555
H25 C22 1_555 1_555
C23 C22 1_555 1_555
H26 C23 1_555 1_555
C24 N3 1_555 1_555
C25 C24 1_555 1_555
C26 C25 1_555 1_555
H27 C26 1_555 1_555
H28 C26 1_555 1_555
H29 C26 1_555 1_555
C27 N4 1_555 1_555
C28 C27 1_555 1_555
C29 C28 1_555 1_555
H30 C29 1_555 1_555
C30 C29 1_555 1_555
C31 C30 1_555 1_555
H31 C31 1_555 1_555
C32 C27 1_555 1_555
C33 C28 1_555 1_555
H32 C33 1_555 1_555
C34 C33 1_555 1_555
H33 C34 1_555 1_555
H34 C34 1_555 1_555
H35 C34 1_555 1_555
C35 C33 1_555 1_555
H36 C35 1_555 1_555
H37 C35 1_555 1_555
H38 C35 1_555 1_555
C36 C32 1_555 1_555
H39 C36 1_555 1_555
C37 C36 1_555 1_555
H40 C37 1_555 1_555
H41 C37 1_555 1_555
H42 C37 1_555 1_555
C38 C36 1_555 1_555
H43 C38 1_555 1_555
H44 C38 1_555 1_555
H45 C38 1_555 1_555
C39 C30 1_555 1_555
C40 C39 1_555 1_555
H46 C40 1_555 1_555
C41 C40 1_555 1_555
H47 C41 1_555 1_555
C42 C41 1_555 1_555
H48 C42 1_555 1_555
C43 N5 1_555 1_555
H49 C43 1_555 1_555
C44 C45 1_555 1_555
C45 H50 1_555 1_555
C46 C45 1_555 1_555
H51 C46 1_555 1_555
C47 C46 1_555 1_555
H52 C47 1_555 1_555
C48 C47 1_555 1_555
H53 C48 1_555 1_555
C49 C44 1_555 1_555
H54 C49 1_555 1_555
C50 C44 1_555 1_555
H55 C50 1_555 1_555
H56 C50 1_555 1_555
H57 C50 1_555 1_555
Zn1_2 N5A 1_555 1_555
Zn1_3 N5 1_555 1_555
N1A Zn1 1_555 1_555
N2A C9A 1_555 1_555
N3A C20A 1_555 1_555
N4A C25A 1_555 1_555
N5A C42A 1_555 1_555
N5_2 Zn1 1_555 1_555
N5A_2 Zn1 1_555 1_555
N6A O1A 1_555 1_555
O1A Zn1 1_555 1_555
O2A N6A 1_555 1_555
O3A N6A 1_555 1_555
C1A N1A 1_555 1_555
H1A C1A 1_555 1_555
C2A C1A 1_555 1_555
H2A C2A 1_555 1_555
C3A C2A 1_555 1_555
H3A C3A 1_555 1_555
C4A C3A 1_555 1_555
C5A N1A 1_555 1_555
H4A C5A 1_555 1_555
C6A C4A 1_555 1_555
C7A C6A 1_555 1_555
H5A C7A 1_555 1_555
C8A C7A 1_555 1_555
C9A C8A 1_555 1_555
C10A C9A 1_555 1_555
C11A C6A 1_555 1_555
H6A C11A 1_555 1_555
C12A C8A 1_555 1_555
H7A C12A 1_555 1_555
C13A C12A 1_555 1_555
H8A C13A 1_555 1_555
H9A C13A 1_555 1_555
H10A C13A 1_555 1_555
C14A C12A 1_555 1_555
H11A C14A 1_555 1_555
H12A C14A 1_555 1_555
H13A C14A 1_555 1_555
C15A C10A 1_555 1_555
H14A C15A 1_555 1_555
C16A C15A 1_555 1_555
H15A C16A 1_555 1_555
H16A C16A 1_555 1_555
H17A C16A 1_555 1_555
C17A C15A 1_555 1_555
H18A C17A 1_555 1_555
H19A C17A 1_555 1_555
H20A C17A 1_555 1_555
C18A N2A 1_555 1_555
C19A C18A 1_555 1_555
H21A C19A 1_555 1_555
H22A C19A 1_555 1_555
H23A C19A 1_555 1_555
C20A C18A 1_555 1_555
C21A C20A 1_555 1_555
H24A C21A 1_555 1_555
C22A C21A 1_555 1_555
H25A C22A 1_555 1_555
C23A C22A 1_555 1_555
H26A C23A 1_555 1_555
C24A N3A 1_555 1_555
C25A C24A 1_555 1_555
C26A C25A 1_555 1_555
H27A C26A 1_555 1_555
H28A C26A 1_555 1_555
H29A C26A 1_555 1_555
C27A N4A 1_555 1_555
C28A C27A 1_555 1_555
C29A C28A 1_555 1_555
H30A C29A 1_555 1_555
C30A C29A 1_555 1_555
C31A C30A 1_555 1_555
H31A C31A 1_555 1_555
C32A C27A 1_555 1_555
C33A C28A 1_555 1_555
H32A C33A 1_555 1_555
C34A C33A 1_555 1_555
H33A C34A 1_555 1_555
H34A C34A 1_555 1_555
H35A C34A 1_555 1_555
C35A C33A 1_555 1_555
H36A C35A 1_555 1_555
H37A C35A 1_555 1_555
H38A C35A 1_555 1_555
C36A C32A 1_555 1_555
H39A C36A 1_555 1_555
C37A C36A 1_555 1_555
H40A C37A 1_555 1_555
H41A C37A 1_555 1_555
H42A C37A 1_555 1_555
C38A C36A 1_555 1_555
H43A C38A 1_555 1_555
H44A C38A 1_555 1_555
H45A C38A 1_555 1_555
C39A C30A 1_555 1_555
C40A C39A 1_555 1_555
H46A C40A 1_555 1_555
C41A C40A 1_555 1_555
H47A C41A 1_555 1_555
C42A C41A 1_555 1_555
H48A C42A 1_555 1_555
C43A N5A 1_555 1_555
H49A C43A 1_555 1_555
C4 C5 1_555 1_555
C10 C11 1_555 1_555
C23 C24 1_555 1_555
C31 C32 1_555 1_555
C39 C43 1_555 1_555
C48 C49 1_555 1_555
C4A C5A 1_555 1_555
C10A C11A 1_555 1_555
C23A C24A 1_555 1_555
C31A C32A 1_555 1_555
C39A C43A 1_555 1_555

#END
