
#######################################################################
#
#                 Cambridge Crystallographic Data Centre
#                                CCDC 
#
#######################################################################
#
# If this CIF has been generated from an entry in the Cambridge 
# Structural Database, then it will include bibliographic, chemical, 
# crystal, experimental, refinement or atomic coordinate data resulting 
# from the CCDC's data processing and validation procedures.
#
#######################################################################

data_WUZGOO
_symmetry_cell_setting           triclinic
_symmetry_space_group_name_H-M   'P -1'
_symmetry_Int_Tables_number      2
_space_group_name_Hall           '-P 1'
loop_
_symmetry_equiv_pos_site_id
_symmetry_equiv_pos_as_xyz
1 x,y,z
2 -x,-y,-z
_cell_length_a                   9.1844(18)
_cell_length_b                   13.608(3)
_cell_length_c                   19.550(4)
_cell_angle_alpha                99.927(3)
_cell_angle_beta                 92.104(3)
_cell_angle_gamma                98.862(3)
_cell_volume                     2373.04
loop_
_atom_site_label
_atom_site_type_symbol
_atom_site_fract_x
_atom_site_fract_y
_atom_site_fract_z
Cd1 Cd 1.0000 0.0000 0.0000
N1 N 1.0876(4) 0.1699(2) 0.00117(18)
N2 N 0.7809(4) 0.6270(3) 0.21444(18)
N3 N 0.7045(4) 0.7262(3) 0.38591(17)
N4 N 0.6060(4) 0.8835(3) 0.53476(18)
N5 N 0.7855(4) 1.0200(3) 0.93874(17)
N6 N 1.1494(5) -0.0654(4) -0.1578(2)
O1 O 1.1215(6) -0.0414(4) -0.1005(2)
O2 O 1.2006(11) -0.1457(6) -0.1676(5)
O3 O 1.1586(9) -0.0113(8) -0.1975(4)
C1 C 1.1836(5) 0.1991(3) -0.0446(3)
H1 H 1.2236 0.1502 -0.0739
C2 C 1.2248(6) 0.2996(4) -0.0496(3)
H2 H 1.2926 0.3179 -0.0812
C3 C 1.1641(5) 0.3726(3) -0.0072(2)
H3 H 1.1907 0.4405 -0.0099
C4 C 1.0627(5) 0.3435(3) 0.0397(2)
C5 C 1.0315(5) 0.2415(3) 0.0426(2)
H4 H 0.9678 0.2216 0.0753
C6 C 0.9899(5) 0.4176(3) 0.0857(2)
C7 C 1.0649(5) 0.5118(3) 0.1147(2)
H5 H 1.1625 0.5294 0.1044
C8 C 1.0000(5) 0.5813(3) 0.1587(2)
C9 C 0.8521(5) 0.5538(3) 0.1740(2)
C10 C 0.7704(5) 0.4583(3) 0.1438(2)
C11 C 0.8433(5) 0.3920(3) 0.1002(2)
H6 H 0.7920 0.3285 0.0802
C12 C 1.0877(6) 0.6842(4) 0.1907(3)
H7 H 1.0165 0.7283 0.2070
C13 C 1.1777(9) 0.7329(5) 0.1382(4)
H8 H 1.1140 0.7360 0.0989
H9 H 1.2526 0.6935 0.1232
H10 H 1.2233 0.8001 0.1595
C14 C 1.1820(12) 0.6786(7) 0.2511(5)
H11 H 1.1232 0.6483 0.2840
H12 H 1.2285 0.7454 0.2725
H13 H 1.2562 0.6383 0.2366
C15 C 0.6099(6) 0.4297(4) 0.1571(3)
H14 H 0.5994 0.4567 0.2062
C16 C 0.5123(8) 0.4791(8) 0.1150(5)
H15 H 0.5517 0.5496 0.1197
H16 H 0.4147 0.4715 0.1314
H17 H 0.5082 0.4476 0.0670
C17 C 0.5558(8) 0.3145(5) 0.1464(5)
H18 H 0.4579 0.3020 0.1620
H19 H 0.6211 0.2841 0.1726
H20 H 0.5548 0.2859 0.0979
C18 C 0.8253(8) 0.5612(5) 0.3224(3)
H21 H 0.8682 0.5107 0.2930
H22 H 0.7445 0.5290 0.3447
H23 H 0.8986 0.5995 0.3572
C19 C 0.7695(5) 0.6316(3) 0.2788(2)
C20 C 0.6980(5) 0.7153(3) 0.3166(2)
C21 C 0.6329(6) 0.7774(4) 0.2815(2)
H24 H 0.6307 0.7684 0.2332
C22 C 0.5701(6) 0.8541(4) 0.3194(2)
H25 H 0.5245 0.8971 0.2967
C23 C 0.5759(5) 0.8660(4) 0.3907(2)
H26 H 0.5340 0.9167 0.4171
C24 C 0.6450(5) 0.8013(3) 0.4220(2)
C25 C 0.7434(9) 0.7403(5) 0.5292(3)
H27 H 0.7253 0.7437 0.5776
H28 H 0.8473 0.7583 0.5245
H29 H 0.7097 0.6728 0.5045
C26 C 0.6615(5) 0.8127(4) 0.4995(2)
C27 C 0.6186(5) 0.9046(3) 0.6086(2)
C28 C 0.7438(5) 0.9708(4) 0.6426(2)
C29 C 0.7495(5) 0.9951(3) 0.7146(2)
H30 H 0.8325 1.0367 0.7381
C30 C 0.6338(5) 0.9587(3) 0.7528(2)
C31 C 0.5114(5) 0.8963(3) 0.7180(2)
H31 H 0.4334 0.8734 0.7433
C32 C 0.5017(5) 0.8667(3) 0.6459(2)
C33 C 0.8664(6) 1.0148(5) 0.6015(3)
H32 H 0.8857 0.9603 0.5649
C34 C 0.8219(9) 1.0954(7) 0.5669(4)
H33 H 0.7320 1.0694 0.5386
H34 H 0.8983 1.1176 0.5381
H35 H 0.8066 1.1514 0.6016
C35 C 1.0127(7) 1.0568(6) 0.6457(4)
H36 H 1.0849 1.0852 0.6172
H37 H 1.0480 1.0029 0.6638
H38 H 0.9962 1.1082 0.6835
C36 C 0.3674(6) 0.7954(4) 0.6091(3)
H39 H 0.3835 0.7828 0.5593
C37 C 0.2307(8) 0.8415(8) 0.6178(5)
H40 H 0.2420 0.9026 0.5989
H41 H 0.2139 0.8567 0.6664
H42 H 0.1482 0.7948 0.5937
C38 C 0.3497(13) 0.6951(7) 0.6332(6)
H43 H 0.2643 0.6516 0.6091
H44 H 0.3376 0.7055 0.6824
H45 H 0.4358 0.6644 0.6235
C39 C 0.6430(5) 0.9935(3) 0.8299(2)
C40 C 0.5331(5) 1.0370(4) 0.8637(2)
H46 H 0.4471 1.0422 0.8389
C41 C 0.5510(6) 1.0726(4) 0.9340(2)
H47 H 0.4773 1.1020 0.9571
C42 C 0.6791(5) 1.0646(4) 0.9700(2)
H48 H 0.6922 1.0910 1.0174
C43 C 0.7652(5) 0.9859(3) 0.8699(2)
H49 H 0.8389 0.9551 0.8479
Cd1_2 Cd 1.0000 -1.0000 -1.0000
Cd1_3 Cd 1.0000 1.0000 1.0000
N1A N 0.9124(4) -0.1699(2) -0.00117(18)
N2A N 1.2191(4) -0.6270(3) -0.21444(18)
N3A N 1.2955(4) -0.7262(3) -0.38591(17)
N4A N 1.3940(4) -0.8835(3) -0.53476(18)
N5A N 1.2145(4) -1.0200(3) -0.93874(17)
N5_2 N 0.7855(4) 0.0200(3) -0.06126(17)
N5A_2 N 1.2145(4) -0.0200(3) 0.06126(17)
N6A N 0.8506(5) 0.0654(4) 0.1578(2)
O1A O 0.8785(6) 0.0414(4) 0.1005(2)
O2A O 0.7994(11) 0.1457(6) 0.1676(5)
O3A O 0.8414(9) 0.0113(8) 0.1975(4)
C1A C 0.8164(5) -0.1991(3) 0.0446(3)
H1A H 0.7764 -0.1502 0.0739
C2A C 0.7752(6) -0.2996(4) 0.0496(3)
H2A H 0.7074 -0.3179 0.0812
C3A C 0.8359(5) -0.3726(3) 0.0072(2)
H3A H 0.8093 -0.4405 0.0099
C4A C 0.9373(5) -0.3435(3) -0.0397(2)
C5A C 0.9685(5) -0.2415(3) -0.0426(2)
H4A H 1.0322 -0.2216 -0.0753
C6A C 1.0101(5) -0.4176(3) -0.0857(2)
C7A C 0.9351(5) -0.5118(3) -0.1147(2)
H5A H 0.8375 -0.5294 -0.1044
C8A C 1.0000(5) -0.5813(3) -0.1587(2)
C9A C 1.1479(5) -0.5538(3) -0.1740(2)
C10A C 1.2296(5) -0.4583(3) -0.1438(2)
C11A C 1.1567(5) -0.3920(3) -0.1002(2)
H6A H 1.2080 -0.3285 -0.0802
C12A C 0.9123(6) -0.6842(4) -0.1907(3)
H7A H 0.9835 -0.7283 -0.2070
C13A C 0.8223(9) -0.7329(5) -0.1382(4)
H8A H 0.8860 -0.7360 -0.0989
H9A H 0.7474 -0.6935 -0.1232
H10A H 0.7767 -0.8001 -0.1595
C14A C 0.8180(12) -0.6786(7) -0.2511(5)
H11A H 0.8768 -0.6483 -0.2840
H12A H 0.7715 -0.7454 -0.2725
H13A H 0.7438 -0.6383 -0.2366
C15A C 1.3901(6) -0.4297(4) -0.1571(3)
H14A H 1.4006 -0.4567 -0.2062
C16A C 1.4877(8) -0.4791(8) -0.1150(5)
H15A H 1.4483 -0.5496 -0.1197
H16A H 1.5853 -0.4715 -0.1314
H17A H 1.4918 -0.4476 -0.0670
C17A C 1.4442(8) -0.3145(5) -0.1464(5)
H18A H 1.5421 -0.3020 -0.1620
H19A H 1.3789 -0.2841 -0.1726
H20A H 1.4452 -0.2859 -0.0979
C18A C 1.1747(8) -0.5612(5) -0.3224(3)
H21A H 1.1318 -0.5107 -0.2930
H22A H 1.2555 -0.5290 -0.3447
H23A H 1.1014 -0.5995 -0.3572
C19A C 1.2305(5) -0.6316(3) -0.2788(2)
C20A C 1.3020(5) -0.7153(3) -0.3166(2)
C21A C 1.3671(6) -0.7774(4) -0.2815(2)
H24A H 1.3693 -0.7684 -0.2332
C22A C 1.4299(6) -0.8541(4) -0.3194(2)
H25A H 1.4755 -0.8971 -0.2967
C23A C 1.4241(5) -0.8660(4) -0.3907(2)
H26A H 1.4660 -0.9167 -0.4171
C24A C 1.3550(5) -0.8013(3) -0.4220(2)
C25A C 1.2566(9) -0.7403(5) -0.5292(3)
H27A H 1.2747 -0.7437 -0.5776
H28A H 1.1527 -0.7583 -0.5245
H29A H 1.2903 -0.6728 -0.5045
C26A C 1.3385(5) -0.8127(4) -0.4995(2)
C27A C 1.3814(5) -0.9046(3) -0.6086(2)
C28A C 1.2562(5) -0.9708(4) -0.6426(2)
C29A C 1.2505(5) -0.9951(3) -0.7146(2)
H30A H 1.1675 -1.0367 -0.7381
C30A C 1.3662(5) -0.9587(3) -0.7528(2)
C31A C 1.4886(5) -0.8963(3) -0.7180(2)
H31A H 1.5666 -0.8734 -0.7433
C32A C 1.4983(5) -0.8667(3) -0.6459(2)
C33A C 1.1336(6) -1.0148(5) -0.6015(3)
H32A H 1.1143 -0.9603 -0.5649
C34A C 1.1781(9) -1.0954(7) -0.5669(4)
H33A H 1.2680 -1.0694 -0.5386
H34A H 1.1017 -1.1176 -0.5381
H35A H 1.1934 -1.1514 -0.6016
C35A C 0.9873(7) -1.0568(6) -0.6457(4)
H36A H 0.9151 -1.0852 -0.6172
H37A H 0.9520 -1.0029 -0.6638
H38A H 1.0038 -1.1082 -0.6835
C36A C 1.6326(6) -0.7954(4) -0.6091(3)
H39A H 1.6165 -0.7828 -0.5593
C37A C 1.7693(8) -0.8415(8) -0.6178(5)
H40A H 1.7580 -0.9026 -0.5989
H41A H 1.7861 -0.8567 -0.6664
H42A H 1.8518 -0.7948 -0.5937
C38A C 1.6503(13) -0.6951(7) -0.6332(6)
H43A H 1.7357 -0.6516 -0.6091
H44A H 1.6624 -0.7055 -0.6824
H45A H 1.5642 -0.6644 -0.6235
C39A C 1.3570(5) -0.9935(3) -0.8299(2)
C40A C 1.4669(5) -1.0370(4) -0.8637(2)
H46A H 1.5529 -1.0422 -0.8389
C41A C 1.4490(6) -1.0726(4) -0.9340(2)
H47A H 1.5227 -1.1020 -0.9571
C42A C 1.3209(5) -1.0646(4) -0.9700(2)
H48A H 1.3078 -1.0910 -1.0174
C43A C 1.2348(5) -0.9859(3) -0.8699(2)
H49A H 1.1611 -0.9551 -0.8479
C44 C 0.836(2) 0.5923(16) 0.6575(11)
H50 H 0.8573 0.6261 0.6184
H51 H 0.9144 0.5532 0.6626
Cl1 Cl 0.676(3) 0.5087(15) 0.6355(11)
Cl2 Cl 0.8485(19) 0.6860(13) 0.7322(9)
loop_
_geom_bond_atom_site_label_1
_geom_bond_atom_site_label_2
_geom_bond_site_symmetry_1
_geom_bond_site_symmetry_2
Cd1 N1 1_555 1_555
N1 C1 1_555 1_555
N2 C9 1_555 1_555
N3 C20 1_555 1_555
N4 C26 1_555 1_555
N5 C42 1_555 1_555
N6 O1 1_555 1_555
O1 Cd1 1_555 1_555
O2 N6 1_555 1_555
O3 N6 1_555 1_555
C1 H1 1_555 1_555
C2 C1 1_555 1_555
H2 C2 1_555 1_555
C3 C2 1_555 1_555
H3 C3 1_555 1_555
C4 C3 1_555 1_555
C5 N1 1_555 1_555
H4 C5 1_555 1_555
C6 C4 1_555 1_555
C7 C6 1_555 1_555
H5 C7 1_555 1_555
C8 C7 1_555 1_555
C9 C8 1_555 1_555
C10 C9 1_555 1_555
C11 C6 1_555 1_555
H6 C11 1_555 1_555
C12 C8 1_555 1_555
H7 C12 1_555 1_555
C13 C12 1_555 1_555
H8 C13 1_555 1_555
H9 C13 1_555 1_555
H10 C13 1_555 1_555
C14 C12 1_555 1_555
H11 C14 1_555 1_555
H12 C14 1_555 1_555
H13 C14 1_555 1_555
C15 C10 1_555 1_555
H14 C15 1_555 1_555
C16 C15 1_555 1_555
H15 C16 1_555 1_555
H16 C16 1_555 1_555
H17 C16 1_555 1_555
C17 C15 1_555 1_555
H18 C17 1_555 1_555
H19 C17 1_555 1_555
H20 C17 1_555 1_555
C18 H21 1_555 1_555
H22 C18 1_555 1_555
H23 C18 1_555 1_555
C19 N2 1_555 1_555
C20 C19 1_555 1_555
C21 C20 1_555 1_555
H24 C21 1_555 1_555
C22 C21 1_555 1_555
H25 C22 1_555 1_555
C23 C22 1_555 1_555
H26 C23 1_555 1_555
C24 N3 1_555 1_555
C25 H27 1_555 1_555
H28 C25 1_555 1_555
H29 C25 1_555 1_555
C26 C24 1_555 1_555
C27 N4 1_555 1_555
C28 C27 1_555 1_555
C29 C28 1_555 1_555
H30 C29 1_555 1_555
C30 C29 1_555 1_555
C31 C30 1_555 1_555
H31 C31 1_555 1_555
C32 C27 1_555 1_555
C33 C28 1_555 1_555
H32 C33 1_555 1_555
C34 C33 1_555 1_555
H33 C34 1_555 1_555
H34 C34 1_555 1_555
H35 C34 1_555 1_555
C35 C33 1_555 1_555
H36 C35 1_555 1_555
H37 C35 1_555 1_555
H38 C35 1_555 1_555
C36 C32 1_555 1_555
H39 C36 1_555 1_555
C37 C36 1_555 1_555
H40 C37 1_555 1_555
H41 C37 1_555 1_555
H42 C37 1_555 1_555
C38 C36 1_555 1_555
H43 C38 1_555 1_555
H44 C38 1_555 1_555
H45 C38 1_555 1_555
C39 C30 1_555 1_555
C40 C39 1_555 1_555
H46 C40 1_555 1_555
C41 C40 1_555 1_555
H47 C41 1_555 1_555
C42 C41 1_555 1_555
H48 C42 1_555 1_555
C43 N5 1_555 1_555
H49 C43 1_555 1_555
C44 H50 1_555 1_555
H51 C44 1_555 1_555
Cl1 C44 1_555 1_555
Cl2 C44 1_555 1_555
Cd1_2 N5A 1_555 1_555
Cd1_3 N5 1_555 1_555
N1A Cd1 1_555 1_555
N2A C9A 1_555 1_555
N3A C20A 1_555 1_555
N4A C26A 1_555 1_555
N5A C42A 1_555 1_555
N5_2 Cd1 1_555 1_555
N5A_2 Cd1 1_555 1_555
N6A O1A 1_555 1_555
O1A Cd1 1_555 1_555
O2A N6A 1_555 1_555
O3A N6A 1_555 1_555
C1A N1A 1_555 1_555
H1A C1A 1_555 1_555
C2A C1A 1_555 1_555
H2A C2A 1_555 1_555
C3A C2A 1_555 1_555
H3A C3A 1_555 1_555
C4A C3A 1_555 1_555
C5A N1A 1_555 1_555
H4A C5A 1_555 1_555
C6A C4A 1_555 1_555
C7A C6A 1_555 1_555
H5A C7A 1_555 1_555
C8A C7A 1_555 1_555
C9A C8A 1_555 1_555
C10A C9A 1_555 1_555
C11A C6A 1_555 1_555
H6A C11A 1_555 1_555
C12A C8A 1_555 1_555
H7A C12A 1_555 1_555
C13A C12A 1_555 1_555
H8A C13A 1_555 1_555
H9A C13A 1_555 1_555
H10A C13A 1_555 1_555
C14A C12A 1_555 1_555
H11A C14A 1_555 1_555
H12A C14A 1_555 1_555
H13A C14A 1_555 1_555
C15A C10A 1_555 1_555
H14A C15A 1_555 1_555
C16A C15A 1_555 1_555
H15A C16A 1_555 1_555
H16A C16A 1_555 1_555
H17A C16A 1_555 1_555
C17A C15A 1_555 1_555
H18A C17A 1_555 1_555
H19A C17A 1_555 1_555
H20A C17A 1_555 1_555
C18A H21A 1_555 1_555
H22A C18A 1_555 1_555
H23A C18A 1_555 1_555
C19A N2A 1_555 1_555
C20A C19A 1_555 1_555
C21A C20A 1_555 1_555
H24A C21A 1_555 1_555
C22A C21A 1_555 1_555
H25A C22A 1_555 1_555
C23A C22A 1_555 1_555
H26A C23A 1_555 1_555
C24A N3A 1_555 1_555
C25A H27A 1_555 1_555
H28A C25A 1_555 1_555
H29A C25A 1_555 1_555
C26A C24A 1_555 1_555
C27A N4A 1_555 1_555
C28A C27A 1_555 1_555
C29A C28A 1_555 1_555
H30A C29A 1_555 1_555
C30A C29A 1_555 1_555
C31A C30A 1_555 1_555
H31A C31A 1_555 1_555
C32A C27A 1_555 1_555
C33A C28A 1_555 1_555
H32A C33A 1_555 1_555
C34A C33A 1_555 1_555
H33A C34A 1_555 1_555
H34A C34A 1_555 1_555
H35A C34A 1_555 1_555
C35A C33A 1_555 1_555
H36A C35A 1_555 1_555
H37A C35A 1_555 1_555
H38A C35A 1_555 1_555
C36A C32A 1_555 1_555
H39A C36A 1_555 1_555
C37A C36A 1_555 1_555
H40A C37A 1_555 1_555
H41A C37A 1_555 1_555
H42A C37A 1_555 1_555
C38A C36A 1_555 1_555
H43A C38A 1_555 1_555
H44A C38A 1_555 1_555
H45A C38A 1_555 1_555
C39A C30A 1_555 1_555
C40A C39A 1_555 1_555
H46A C40A 1_555 1_555
C41A C40A 1_555 1_555
H47A C41A 1_555 1_555
C42A C41A 1_555 1_555
H48A C42A 1_555 1_555
C43A N5A 1_555 1_555
H49A C43A 1_555 1_555
C4 C5 1_555 1_555
C10 C11 1_555 1_555
C18 C19 1_555 1_555
C23 C24 1_555 1_555
C25 C26 1_555 1_555
C31 C32 1_555 1_555
C39 C43 1_555 1_555
C4A C5A 1_555 1_555
C10A C11A 1_555 1_555
C18A C19A 1_555 1_555
C23A C24A 1_555 1_555
C25A C26A 1_555 1_555
C31A C32A 1_555 1_555
C39A C43A 1_555 1_555

#END
