
#######################################################################
#
#                 Cambridge Crystallographic Data Centre
#                                CCDC 
#
#######################################################################
#
# If this CIF has been generated from an entry in the Cambridge 
# Structural Database, then it will include bibliographic, chemical, 
# crystal, experimental, refinement or atomic coordinate data resulting 
# from the CCDC's data processing and validation procedures.
#
#######################################################################

data_WUZGAA
_symmetry_cell_setting           triclinic
_symmetry_space_group_name_H-M   'P -1'
_symmetry_Int_Tables_number      2
_space_group_name_Hall           '-P 1'
loop_
_symmetry_equiv_pos_site_id
_symmetry_equiv_pos_as_xyz
1 x,y,z
2 -x,-y,-z
_cell_length_a                   8.799(2)
_cell_length_b                   17.294(4)
_cell_length_c                   17.334(4)
_cell_angle_alpha                106.025(3)
_cell_angle_beta                 92.531(3)
_cell_angle_gamma                99.213(3)
_cell_volume                     2491.63
loop_
_atom_site_label
_atom_site_type_symbol
_atom_site_fract_x
_atom_site_fract_y
_atom_site_fract_z
Zn1 Zn 0.54435(10) 0.43516(4) 0.27748(4)
I1 I 0.30555(8) 0.49422(4) 0.25145(3)
I2 I 0.53004(10) 0.28526(3) 0.26126(4)
N1 N 0.6351(6) 0.5046(3) 0.3926(3)
N2 N 0.4447(6) 0.9357(3) 0.5876(3)
N3 N 0.2551(6) 1.0678(3) 0.7286(3)
N4 N 0.0831(5) 1.2349(3) 0.8283(3)
N5 N -0.2837(7) 1.4702(3) 1.2114(3)
C1 C 0.7199(8) 0.4779(4) 0.4423(4)
H1 H 0.7424 0.4255 0.4242
C2 C 0.7748(9) 0.5244(4) 0.5185(4)
H2 H 0.8379 0.5048 0.5503
C3 C 0.7361(8) 0.6017(4) 0.5485(4)
H3 H 0.7692 0.6333 0.6011
C4 C 0.6472(7) 0.6301(3) 0.4980(4)
C5 C 0.6023(7) 0.5788(3) 0.4218(4)
H4 H 0.5436 0.5979 0.3874
C6 C 0.5965(7) 0.7105(3) 0.5244(3)
C7 C 0.6916(7) 0.7789(3) 0.5720(4)
H5 H 0.7909 0.7748 0.5891
C8 C 0.6454(8) 0.8541(4) 0.5958(4)
C9 C 0.4966(7) 0.8594(3) 0.5696(4)
C10 C 0.3938(7) 0.7906(4) 0.5198(4)
C11 C 0.4489(7) 0.7173(3) 0.4983(4)
H6 H 0.3844 0.6710 0.4652
C12 C 0.7531(10) 0.9290(5) 0.6483(6)
H7 H 0.6915 0.9723 0.6643
C13 C 0.8786(17) 0.9584(9) 0.5968(9)
H8 H 0.9467 1.0064 0.6298
H9 H 0.8294 0.9711 0.5524
H10 H 0.9370 0.9159 0.5766
C14 C 0.819(2) 0.9182(9) 0.7217(8)
H11 H 0.7378 0.9055 0.7537
H12 H 0.8871 0.9677 0.7515
H13 H 0.8764 0.8742 0.7085
C15 C 0.2346(8) 0.7958(5) 0.4899(5)
H14 H 0.2059 0.8442 0.5268
C16 C 0.2288(14) 0.8077(12) 0.4106(9)
H15 H 0.3061 0.8535 0.4103
H16 H 0.1285 0.8180 0.3970
H17 H 0.2480 0.7595 0.3718
C17 C 0.1123(11) 0.7235(8) 0.4898(11)
H18 H 0.0136 0.7313 0.4704
H19 H 0.1079 0.7190 0.5436
H20 H 0.1379 0.6744 0.4553
C18 C 0.3430(11) 0.9175(4) 0.7123(5)
H21 H 0.3809 0.8669 0.6978
H22 H 0.2335 0.9067 0.7159
H23 H 0.3936 0.9513 0.7634
C19 C 0.3756(8) 0.9607(4) 0.6496(4)
C20 C 0.3254(7) 1.0422(3) 0.6618(3)
C21 C 0.3479(8) 1.0855(4) 0.6053(4)
H24 H 0.3955 1.0652 0.5589
C22 C 0.2987(9) 1.1582(4) 0.6196(4)
H25 H 0.3151 1.1895 0.5839
C23 C 0.2245(8) 1.1849(4) 0.6871(4)
H26 H 0.1877 1.2338 0.6967
C24 C 0.2045(6) 1.1394(3) 0.7409(3)
C25 C 0.1300(10) 1.1182(4) 0.8752(4)
H27 H 0.0803 1.1433 0.9214
H28 H 0.2341 1.1155 0.8918
H29 H 0.0741 1.0639 0.8498
C26 C 0.1324(7) 1.1677(3) 0.8167(4)
C27 C 0.0301(7) 1.2760(3) 0.9020(3)
C28 C 0.1356(7) 1.3239(4) 0.9649(4)
C29 C 0.0817(7) 1.3756(4) 1.0301(4)
H30 H 0.1525 1.4085 1.0724
C30 C -0.0739(7) 1.3800(4) 1.0343(4)
C31 C -0.1773(7) 1.3295(4) 0.9720(4)
H31 H -0.2824 1.3297 0.9751
C32 C -0.1284(7) 1.2779(4) 0.9044(4)
C33 C -0.2443(9) 1.2253(5) 0.8344(5)
H32 H -0.1858 1.2085 0.7876
C34 C -0.3175(19) 1.1492(8) 0.8531(11)
H33 H -0.3902 1.1163 0.8088
H34 H -0.3703 1.1636 0.9009
H35 H -0.2391 1.1189 0.8616
C35 C -0.3625(12) 1.2694(7) 0.8111(6)
H36 H -0.4317 1.2330 0.7670
H37 H -0.3122 1.3152 0.7950
H38 H -0.4199 1.2884 0.8562
C36 C 0.3077(7) 1.3232(4) 0.9646(4)
H39 H 0.3259 1.2844 0.9142
C37 C 0.3629(11) 1.2933(7) 1.0370(6)
H40 H 0.3060 1.2397 1.0322
H41 H 0.3453 1.3305 1.0868
H42 H 0.4713 1.2913 1.0362
C38 C 0.3966(10) 1.4068(6) 0.9690(9)
H43 H 0.3610 1.4235 0.9240
H44 H 0.5048 1.4047 0.9674
H45 H 0.3805 1.4454 1.0183
C39 C -0.1198(7) 1.4400(3) 1.1047(4)
C40 C -0.0413(9) 1.5196(4) 1.1301(4)
H46 H 0.0402 1.5363 1.1026
C41 C -0.0833(10) 1.5744(4) 1.1961(4)
H47 H -0.0294 1.6278 1.2148
C42 C -0.2077(10) 1.5477(4) 1.2336(4)
H48 H -0.2403 1.5852 1.2763
C43 C -0.2381(7) 1.4184(4) 1.1491(4)
H49 H -0.2885 1.3642 1.1341
Zn1_2 Zn -0.45565(10) 1.43516(4) 1.27748(4)
N5_2 N 0.7163(7) 0.4702(3) 0.2114(3)
loop_
_geom_bond_atom_site_label_1
_geom_bond_atom_site_label_2
_geom_bond_site_symmetry_1
_geom_bond_site_symmetry_2
Zn1 I1 1_555 1_555
I2 Zn1 1_555 1_555
N1 Zn1 1_555 1_555
N2 C9 1_555 1_555
N3 C20 1_555 1_555
N4 C26 1_555 1_555
N5 C42 1_555 1_555
C1 N1 1_555 1_555
H1 C1 1_555 1_555
C2 C1 1_555 1_555
H2 C2 1_555 1_555
C3 C2 1_555 1_555
H3 C3 1_555 1_555
C4 C3 1_555 1_555
C5 N1 1_555 1_555
H4 C5 1_555 1_555
C6 C4 1_555 1_555
C7 C6 1_555 1_555
H5 C7 1_555 1_555
C8 C7 1_555 1_555
C9 C8 1_555 1_555
C10 C9 1_555 1_555
C11 C6 1_555 1_555
H6 C11 1_555 1_555
C12 C8 1_555 1_555
H7 C12 1_555 1_555
C13 C12 1_555 1_555
H8 C13 1_555 1_555
H9 C13 1_555 1_555
H10 C13 1_555 1_555
C14 C12 1_555 1_555
H11 C14 1_555 1_555
H12 C14 1_555 1_555
H13 C14 1_555 1_555
C15 C10 1_555 1_555
H14 C15 1_555 1_555
C16 C15 1_555 1_555
H15 C16 1_555 1_555
H16 C16 1_555 1_555
H17 C16 1_555 1_555
C17 C15 1_555 1_555
H18 C17 1_555 1_555
H19 C17 1_555 1_555
H20 C17 1_555 1_555
C18 H21 1_555 1_555
H22 C18 1_555 1_555
H23 C18 1_555 1_555
C19 N2 1_555 1_555
C20 C19 1_555 1_555
C21 C20 1_555 1_555
H24 C21 1_555 1_555
C22 C21 1_555 1_555
H25 C22 1_555 1_555
C23 C22 1_555 1_555
H26 C23 1_555 1_555
C24 N3 1_555 1_555
C25 H27 1_555 1_555
H28 C25 1_555 1_555
H29 C25 1_555 1_555
C26 C24 1_555 1_555
C27 N4 1_555 1_555
C28 C27 1_555 1_555
C29 C28 1_555 1_555
H30 C29 1_555 1_555
C30 C29 1_555 1_555
C31 C30 1_555 1_555
H31 C31 1_555 1_555
C32 C27 1_555 1_555
C33 C32 1_555 1_555
H32 C33 1_555 1_555
C34 C33 1_555 1_555
H33 C34 1_555 1_555
H34 C34 1_555 1_555
H35 C34 1_555 1_555
C35 C33 1_555 1_555
H36 C35 1_555 1_555
H37 C35 1_555 1_555
H38 C35 1_555 1_555
C36 C28 1_555 1_555
H39 C36 1_555 1_555
C37 C36 1_555 1_555
H40 C37 1_555 1_555
H41 C37 1_555 1_555
H42 C37 1_555 1_555
C38 C36 1_555 1_555
H43 C38 1_555 1_555
H44 C38 1_555 1_555
H45 C38 1_555 1_555
C39 C30 1_555 1_555
C40 C39 1_555 1_555
H46 C40 1_555 1_555
C41 C40 1_555 1_555
H47 C41 1_555 1_555
C42 C41 1_555 1_555
H48 C42 1_555 1_555
C43 N5 1_555 1_555
H49 C43 1_555 1_555
Zn1_2 N5 1_555 1_555
N5_2 Zn1 1_555 1_555
C4 C5 1_555 1_555
C10 C11 1_555 1_555
C18 C19 1_555 1_555
C23 C24 1_555 1_555
C25 C26 1_555 1_555
C31 C32 1_555 1_555
C39 C43 1_555 1_555

#END
