
#######################################################################
#
#                 Cambridge Crystallographic Data Centre
#                                CCDC 
#
#######################################################################
#
# If this CIF has been generated from an entry in the Cambridge 
# Structural Database, then it will include bibliographic, chemical, 
# crystal, experimental, refinement or atomic coordinate data resulting 
# from the CCDC's data processing and validation procedures.
#
#######################################################################

data_WUZHIJ
_symmetry_cell_setting           triclinic
_symmetry_space_group_name_H-M   'P -1'
_symmetry_Int_Tables_number      2
_space_group_name_Hall           '-P 1'
loop_
_symmetry_equiv_pos_site_id
_symmetry_equiv_pos_as_xyz
1 x,y,z
2 -x,-y,-z
_cell_length_a                   8.671(6)
_cell_length_b                   17.105(11)
_cell_length_c                   17.134(11)
_cell_angle_alpha                106.475(10)
_cell_angle_beta                 100.111(10)
_cell_angle_gamma                91.359(11)
_cell_volume                     2391.81
loop_
_atom_site_label
_atom_site_type_symbol
_atom_site_fract_x
_atom_site_fract_y
_atom_site_fract_z
Hg1 Hg 0.98101(4) -0.227250(18) 0.419142(17)
I1 I 0.76554(9) -0.23961(4) 0.50383(5)
I2 I 1.01470(12) -0.24656(5) 0.26958(4)
N1 N 1.1190(8) -0.1011(4) 0.5053(3)
N2 N 0.9478(7) 0.0891(4) 0.9397(3)
N3 N 0.7554(6) 0.2297(3) 1.0701(3)
N4 N 0.5850(6) 0.3294(3) 1.2352(3)
N5 N 0.1938(8) 0.7034(4) 1.4681(4)
C1 C 1.0847(8) -0.0733(4) 0.5799(4)
H1 H 1.0157 -0.1056 0.5959
C2 C 1.1446(8) -0.0002(4) 0.6345(4)
C3 C 1.2463(9) 0.0457(5) 0.6109(4)
H2 H 1.2903 0.0962 0.6461
C4 C 1.2823(11) 0.0159(5) 0.5343(5)
H3 H 1.3537 0.0458 0.5172
C5 C 1.2167(10) -0.0553(5) 0.4838(5)
H4 H 1.2410 -0.0734 0.4311
C6 C 1.0936(8) 0.0245(4) 0.7142(4)
C7 C 1.1936(8) 0.0700(4) 0.7852(4)
H5 H 1.2952 0.0857 0.7820
C8 C 1.1480(8) 0.0924(4) 0.8597(4)
C9 C 0.9954(8) 0.0708(4) 0.8621(4)
C10 C 0.8937(8) 0.0255(4) 0.7936(4)
C11 C 0.9459(8) 0.0031(4) 0.7199(4)
H6 H 0.8776 -0.0278 0.6724
C12 C 1.2592(10) 0.1397(7) 0.9364(5)
H7 H 1.2034 0.1477 0.9827
C13 C 1.3964(17) 0.0921(10) 0.9534(10)
H8 H 1.4019 0.0836 1.0068
H9 H 1.4912 0.1218 0.9527
H10 H 1.3844 0.0401 0.9116
C14 C 1.310(3) 0.2154(9) 0.9345(12)
H11 H 1.3553 0.2481 0.9897
H12 H 1.2221 0.2413 0.9128
H13 H 1.3868 0.2099 0.8998
C15 C 0.7319(9) -0.0023(6) 0.7976(5)
H14 H 0.7006 0.0383 0.8440
C16 C 0.7283(16) -0.0779(9) 0.8162(11)
H15 H 0.7532 -0.1203 0.7710
H16 H 0.6252 -0.0907 0.8247
H17 H 0.8039 -0.0739 0.8656
C17 C 0.6138(12) -0.0050(11) 0.7222(8)
H18 H 0.6257 -0.0520 0.6778
H19 H 0.6296 0.0437 0.7064
H20 H 0.5100 -0.0083 0.7340
C18 C 0.8405(13) 0.2135(6) 0.9220(5)
H21 H 0.8669 0.1958 0.8679
H22 H 0.8995 0.2643 0.9533
H23 H 0.7302 0.2210 0.9167
C19 C 0.8781(8) 0.1521(4) 0.9645(4)
C20 C 0.8277(7) 0.1631(4) 1.0447(4)
C21 C 0.8541(9) 0.1080(4) 1.0869(4)
H24 H 0.9069 0.0620 1.0670
C22 C 0.8021(11) 0.1210(5) 1.1590(5)
H25 H 0.8176 0.0837 1.1894
C23 C 0.7276(9) 0.1887(4) 1.1861(4)
H26 H 0.6904 0.1986 1.2354
C24 C 0.7074(7) 0.2422(4) 1.1410(4)
C25 C 0.6321(7) 0.3183(4) 1.1688(4)
C26 C 0.6265(11) 0.3760(5) 1.1192(5)
H27 H 0.5639 0.4198 1.1405
H28 H 0.5808 0.3480 1.0625
H29 H 0.7311 0.3978 1.1223
C27 C 0.5276(7) 0.4020(4) 1.2766(4)
C28 C 0.6312(7) 0.4651(4) 1.3257(4)
C29 C 0.5768(8) 0.5295(4) 1.3777(4)
H30 H 0.6473 0.5722 1.4122
C30 C 0.4208(8) 0.5326(4) 1.3799(4)
C31 C 0.3207(8) 0.4697(5) 1.3296(4)
H31 H 0.2139 0.4717 1.3305
C32 C 0.3707(8) 0.4031(4) 1.2774(4)
C33 C 0.8027(8) 0.4659(5) 1.3250(5)
H32 H 0.8230 0.4138 1.2875
C34 C 0.8529(12) 0.5340(7) 1.2925(8)
H33 H 0.8533 0.5857 1.3335
H34 H 0.7807 0.5331 1.2428
H35 H 0.9566 0.5265 1.2805
C35 C 0.8939(11) 0.4739(10) 1.4067(6)
H36 H 0.8859 0.5274 1.4429
H37 H 1.0020 0.4663 1.4029
H38 H 0.8542 0.4333 1.4285
C36 C 0.2578(9) 0.3344(6) 1.2243(6)
H39 H 0.3186 0.2876 1.2048
C37 C 0.173(3) 0.3523(13) 1.1529(10)
H40 H 0.0841 0.3815 1.1669
H41 H 0.1387 0.3023 1.1098
H42 H 0.2409 0.3854 1.1340
C38 C 0.1431(15) 0.3084(7) 1.2686(9)
H43 H 0.0840 0.3537 1.2903
H44 H 0.1981 0.2905 1.3134
H45 H 0.0728 0.2643 1.2309
C39 C 0.3692(8) 0.6021(4) 1.4404(4)
C40 C 0.4444(10) 0.6283(4) 1.5200(4)
H46 H 0.5306 0.6024 1.5383
C41 C 0.3924(11) 0.6934(5) 1.5736(4)
H47 H 0.4424 0.7127 1.6289
C42 C 0.2687(11) 0.7280(5) 1.5446(5)
H48 H 0.2337 0.7724 1.5809
C43 C 0.2443(9) 0.6421(4) 1.4166(4)
H49 H 0.1929 0.6251 1.3615
Hg1_2 Hg -0.01899(4) 0.772750(18) 1.419142(17)
N5_2 N 1.1938(8) -0.2966(4) 0.4681(4)
Cl1 Cl 0.515(2) 0.2308(16) 0.7377(16)
Cl2 Cl 0.560(5) 0.393(2) 0.835(2)
C44 C 0.524(9) 0.335(2) 0.755(4)
H50 H 0.5999 0.3479 0.7245
H51 H 0.4225 0.3473 0.7289
loop_
_geom_bond_atom_site_label_1
_geom_bond_atom_site_label_2
_geom_bond_site_symmetry_1
_geom_bond_site_symmetry_2
Hg1 I1 1_555 1_555
I2 Hg1 1_555 1_555
N1 Hg1 1_555 1_555
N2 C9 1_555 1_555
N3 C20 1_555 1_555
N4 C25 1_555 1_555
N5 C42 1_555 1_555
C1 N1 1_555 1_555
H1 C1 1_555 1_555
C2 C1 1_555 1_555
C3 C2 1_555 1_555
H2 C3 1_555 1_555
C4 C3 1_555 1_555
H3 C4 1_555 1_555
C5 N1 1_555 1_555
H4 C5 1_555 1_555
C6 C2 1_555 1_555
C7 C6 1_555 1_555
H5 C7 1_555 1_555
C8 C7 1_555 1_555
C9 C8 1_555 1_555
C10 C9 1_555 1_555
C11 C6 1_555 1_555
H6 C11 1_555 1_555
C12 C8 1_555 1_555
H7 C12 1_555 1_555
C13 C12 1_555 1_555
H8 C13 1_555 1_555
H9 C13 1_555 1_555
H10 C13 1_555 1_555
C14 C12 1_555 1_555
H11 C14 1_555 1_555
H12 C14 1_555 1_555
H13 C14 1_555 1_555
C15 C10 1_555 1_555
H14 C15 1_555 1_555
C16 C15 1_555 1_555
H15 C16 1_555 1_555
H16 C16 1_555 1_555
H17 C16 1_555 1_555
C17 C15 1_555 1_555
H18 C17 1_555 1_555
H19 C17 1_555 1_555
H20 C17 1_555 1_555
C18 H21 1_555 1_555
H22 C18 1_555 1_555
H23 C18 1_555 1_555
C19 N2 1_555 1_555
C20 C19 1_555 1_555
C21 C20 1_555 1_555
H24 C21 1_555 1_555
C22 C21 1_555 1_555
H25 C22 1_555 1_555
C23 C22 1_555 1_555
H26 C23 1_555 1_555
C24 N3 1_555 1_555
C25 C24 1_555 1_555
C26 C25 1_555 1_555
H27 C26 1_555 1_555
H28 C26 1_555 1_555
H29 C26 1_555 1_555
C27 N4 1_555 1_555
C28 C27 1_555 1_555
C29 C28 1_555 1_555
H30 C29 1_555 1_555
C30 C29 1_555 1_555
C31 C30 1_555 1_555
H31 C31 1_555 1_555
C32 C27 1_555 1_555
C33 C28 1_555 1_555
H32 C33 1_555 1_555
C34 C33 1_555 1_555
H33 C34 1_555 1_555
H34 C34 1_555 1_555
H35 C34 1_555 1_555
C35 C33 1_555 1_555
H36 C35 1_555 1_555
H37 C35 1_555 1_555
H38 C35 1_555 1_555
C36 C32 1_555 1_555
H39 C36 1_555 1_555
C37 C36 1_555 1_555
H40 C37 1_555 1_555
H41 C37 1_555 1_555
H42 C37 1_555 1_555
C38 C36 1_555 1_555
H43 C38 1_555 1_555
H44 C38 1_555 1_555
H45 C38 1_555 1_555
C39 C30 1_555 1_555
C40 C39 1_555 1_555
H46 C40 1_555 1_555
C41 C40 1_555 1_555
H47 C41 1_555 1_555
C42 C41 1_555 1_555
H48 C42 1_555 1_555
C43 N5 1_555 1_555
H49 C43 1_555 1_555
Cl1 C44 1_555 1_555
Cl2 C44 1_555 1_555
C44 H50 1_555 1_555
H51 C44 1_555 1_555
Hg1_2 N5 1_555 1_555
N5_2 Hg1 1_555 1_555
C4 C5 1_555 1_555
C10 C11 1_555 1_555
C18 C19 1_555 1_555
C23 C24 1_555 1_555
C31 C32 1_555 1_555
C39 C43 1_555 1_555

#END
