
#######################################################################
#
#                 Cambridge Crystallographic Data Centre
#                                CCDC 
#
#######################################################################
#
# If this CIF has been generated from an entry in the Cambridge 
# Structural Database, then it will include bibliographic, chemical, 
# crystal, experimental, refinement or atomic coordinate data resulting 
# from the CCDC's data processing and validation procedures.
#
#######################################################################

data_WUZHEF
_symmetry_cell_setting           triclinic
_symmetry_space_group_name_H-M   'P -1'
_symmetry_Int_Tables_number      2
_space_group_name_Hall           '-P 1'
loop_
_symmetry_equiv_pos_site_id
_symmetry_equiv_pos_as_xyz
1 x,y,z
2 -x,-y,-z
_cell_length_a                   9.253(13)
_cell_length_b                   15.35(2)
_cell_length_c                   20.68(4)
_cell_angle_alpha                107.41(3)
_cell_angle_beta                 91.73(3)
_cell_angle_gamma                105.227(19)
_cell_volume                     2685.36
loop_
_atom_site_label
_atom_site_type_symbol
_atom_site_fract_x
_atom_site_fract_y
_atom_site_fract_z
Hg1 Hg -0.54657(4) 0.34949(3) 1.197331(18)
Br1 Br -0.67929(13) 0.47254(9) 1.18734(5)
Br2 Br -0.5620(3) 0.17574(9) 1.17501(8)
N1 N -0.2994(8) 0.4110(5) 1.1582(3)
N2 N 0.0629(6) 0.2104(4) 0.8101(3)
N3 N 0.2198(6) 0.0322(4) 0.6980(3)
N4 N 0.4055(7) -0.0894(4) 0.5601(3)
N5 N 0.5599(8) -0.5699(5) 0.3189(3)
C1 C -0.2092(10) 0.4998(7) 1.1944(4)
H1 H -0.2373 0.5331 1.2351
C2 C -0.0724(10) 0.5433(6) 1.1712(4)
H2 H -0.0115 0.6036 1.1965
C3 C -0.0329(9) 0.4908(6) 1.1079(4)
H3 H 0.0543 0.5179 1.0914
C4 C -0.1249(8) 0.3975(6) 1.0695(4)
C5 C -0.2569(9) 0.3605(6) 1.0984(4)
H4 H -0.3172 0.2991 1.0755
C6 C -0.0809(8) 0.3402(5) 1.0028(4)
C7 C 0.0706(8) 0.3385(6) 0.9971(4)
H5 H 0.1413 0.3705 1.0355
C8 C 0.1192(8) 0.2911(6) 0.9364(4)
C9 C 0.0114(8) 0.2421(5) 0.8769(3)
C10 C -0.1458(8) 0.2403(6) 0.8794(4)
C11 C -0.1887(8) 0.2887(6) 0.9440(4)
H6 H -0.2896 0.2862 0.9473
C12 C 0.2902(9) 0.2978(8) 0.9341(5)
H7 H 0.3006 0.2491 0.8927
C13 C 0.3856(12) 0.3951(9) 0.9325(8)
H8 H 0.3451 0.4095 0.8949
H9 H 0.4877 0.3936 0.9271
H10 H 0.3837 0.4432 0.9745
C14 C 0.3550(13) 0.2794(12) 0.9953(7)
H11 H 0.4596 0.2828 0.9921
H12 H 0.3008 0.2172 0.9961
H13 H 0.3457 0.3265 1.0364
C15 C -0.2657(9) 0.1870(7) 0.8137(4)
H14 H -0.2087 0.1802 0.7742
C16 C -0.3761(12) 0.2402(8) 0.8037(5)
H15 H -0.4434 0.2038 0.7626
H16 H -0.3220 0.3009 0.8001
H17 H -0.4331 0.2497 0.8419
C17 C -0.3467(17) 0.0866(8) 0.8131(7)
H18 H -0.4180 0.0549 0.7728
H19 H -0.3988 0.0898 0.8528
H20 H -0.2745 0.0518 0.8133
C18 C 0.0925(10) 0.0555(6) 0.8252(4)
H21 H 0.0443 0.0725 0.8657
H22 H 0.1913 0.0520 0.8373
H23 H 0.0335 -0.0053 0.7950
C19 C 0.1059(8) 0.1322(6) 0.7889(4)
C20 C 0.1824(7) 0.1168(5) 0.7228(3)
C21 C 0.2155(9) 0.1890(6) 0.6916(4)
H24 H 0.1869 0.2445 0.7089
C22 C 0.2946(10) 0.1736(6) 0.6325(4)
H25 H 0.3199 0.2198 0.6109
C23 C 0.3329(10) 0.0890(6) 0.6080(4)
H26 H 0.3840 0.0785 0.5696
C24 C 0.2955(8) 0.0191(5) 0.6404(3)
C25 C 0.3320(8) -0.0774(6) 0.6129(4)
C26 C 0.2831(11) -0.1493(6) 0.6535(4)
H27 H 0.3115 -0.2061 0.6320
H28 H 0.1757 -0.1652 0.6540
H29 H 0.3320 -0.1209 0.6995
C27 C 0.4426(8) -0.1790(5) 0.5295(3)
C28 C 0.3448(8) -0.2525(5) 0.4727(4)
C29 C 0.3901(8) -0.3364(6) 0.4418(4)
H30 H 0.3257 -0.3848 0.4061
C30 C 0.5311(8) -0.3500(5) 0.4632(4)
C31 C 0.6268(9) -0.2743(6) 0.5189(4)
H31 H 0.7181 -0.2804 0.5341
C32 C 0.5849(9) -0.1890(6) 0.5518(4)
C33 C 0.6982(12) -0.1067(8) 0.6134(6)
H32 H 0.6383 -0.0702 0.6424
C34 C 0.7852(15) -0.1431(9) 0.6582(6)
H33 H 0.8503 -0.0901 0.6937
H34 H 0.8446 -0.1794 0.6309
H35 H 0.7155 -0.1829 0.6783
C35 C 0.8069(19) -0.0400(11) 0.5846(8)
H36 H 0.8747 0.0096 0.6211
H37 H 0.7517 -0.0124 0.5601
H38 H 0.8634 -0.0748 0.5541
C36 C 0.1962(9) -0.2387(7) 0.4457(5)
H39 H 0.1931 -0.1742 0.4711
C37 C 0.0546(12) -0.3102(10) 0.4576(7)
H40 H 0.0567 -0.3032 0.5053
H41 H 0.0540 -0.3740 0.4324
H42 H -0.0346 -0.2977 0.4423
C38 C 0.1902(15) -0.2478(13) 0.3684(7)
H43 H 0.0978 -0.2384 0.3536
H44 H 0.1951 -0.3101 0.3424
H45 H 0.2742 -0.2005 0.3615
C39 C 0.5776(8) -0.4378(5) 0.4263(4)
C40 C 0.6710(9) -0.4764(6) 0.4596(4)
H46 H 0.7070 -0.4472 0.5056
C41 C 0.7081(10) -0.5589(7) 0.4221(5)
H47 H 0.7712 -0.5836 0.4428
C42 C 0.6485(11) -0.6041(6) 0.3527(5)
H48 H 0.6710 -0.6599 0.3290
C43 C 0.5248(9) -0.4892(6) 0.3552(4)
H49 H 0.4629 -0.4660 0.3326
Hg1_2 Hg 0.45343(4) -0.65051(3) 0.197331(18)
N5_2 N -0.4401(8) 0.4301(5) 1.3189(3)
N6 N 1.0920(16) 0.3870(12) 0.3628(9)
C44 C 0.975(2) 0.2876(13) 0.2341(8)
H50 H 1.0281 0.2411 0.2161
H51 H 0.9828 0.3282 0.2062
H52 H 0.8711 0.2558 0.2343
C45 C 1.0464(17) 0.3484(17) 0.3081(12)
Cl1 Cl 0.006(2) 0.8968(13) 0.9446(10)
Cl2 Cl 0.305(2) 0.9259(11) 0.9529(11)
C46 C 0.165(3) 0.940(3) 1.0027(14)
H53 H 0.1805 1.0062 1.0286
H54 H 0.1593 0.9031 1.0340
loop_
_geom_bond_atom_site_label_1
_geom_bond_atom_site_label_2
_geom_bond_site_symmetry_1
_geom_bond_site_symmetry_2
Hg1 Br1 1_555 1_555
Br2 Hg1 1_555 1_555
N1 Hg1 1_555 1_555
N2 C9 1_555 1_555
N3 C20 1_555 1_555
N4 C25 1_555 1_555
N5 C42 1_555 1_555
C1 N1 1_555 1_555
H1 C1 1_555 1_555
C2 C1 1_555 1_555
H2 C2 1_555 1_555
C3 C2 1_555 1_555
H3 C3 1_555 1_555
C4 C3 1_555 1_555
C5 N1 1_555 1_555
H4 C5 1_555 1_555
C6 C4 1_555 1_555
C7 C6 1_555 1_555
H5 C7 1_555 1_555
C8 C7 1_555 1_555
C9 C8 1_555 1_555
C10 C9 1_555 1_555
C11 C6 1_555 1_555
H6 C11 1_555 1_555
C12 C8 1_555 1_555
H7 C12 1_555 1_555
C13 C12 1_555 1_555
H8 C13 1_555 1_555
H9 C13 1_555 1_555
H10 C13 1_555 1_555
C14 C12 1_555 1_555
H11 C14 1_555 1_555
H12 C14 1_555 1_555
H13 C14 1_555 1_555
C15 C10 1_555 1_555
H14 C15 1_555 1_555
C16 C15 1_555 1_555
H15 C16 1_555 1_555
H16 C16 1_555 1_555
H17 C16 1_555 1_555
C17 C15 1_555 1_555
H18 C17 1_555 1_555
H19 C17 1_555 1_555
H20 C17 1_555 1_555
C18 H21 1_555 1_555
H22 C18 1_555 1_555
H23 C18 1_555 1_555
C19 N2 1_555 1_555
C20 C19 1_555 1_555
C21 C20 1_555 1_555
H24 C21 1_555 1_555
C22 C21 1_555 1_555
H25 C22 1_555 1_555
C23 C22 1_555 1_555
H26 C23 1_555 1_555
C24 N3 1_555 1_555
C25 C24 1_555 1_555
C26 C25 1_555 1_555
H27 C26 1_555 1_555
H28 C26 1_555 1_555
H29 C26 1_555 1_555
C27 N4 1_555 1_555
C28 C27 1_555 1_555
C29 C28 1_555 1_555
H30 C29 1_555 1_555
C30 C29 1_555 1_555
C31 C30 1_555 1_555
H31 C31 1_555 1_555
C32 C27 1_555 1_555
C33 C32 1_555 1_555
H32 C33 1_555 1_555
C34 C33 1_555 1_555
H33 C34 1_555 1_555
H34 C34 1_555 1_555
H35 C34 1_555 1_555
C35 C33 1_555 1_555
H36 C35 1_555 1_555
H37 C35 1_555 1_555
H38 C35 1_555 1_555
C36 C28 1_555 1_555
H39 C36 1_555 1_555
C37 C36 1_555 1_555
H40 C37 1_555 1_555
H41 C37 1_555 1_555
H42 C37 1_555 1_555
C38 C36 1_555 1_555
H43 C38 1_555 1_555
H44 C38 1_555 1_555
H45 C38 1_555 1_555
C39 C30 1_555 1_555
C40 C39 1_555 1_555
H46 C40 1_555 1_555
C41 C40 1_555 1_555
H47 C41 1_555 1_555
C42 C41 1_555 1_555
H48 C42 1_555 1_555
C43 N5 1_555 1_555
H49 C43 1_555 1_555
N6 C45 1_555 1_555
C44 H50 1_555 1_555
H51 C44 1_555 1_555
H52 C44 1_555 1_555
C45 C44 1_555 1_555
Cl1 C46 1_555 1_555
Cl2 C46 1_555 1_555
C46 H53 1_555 1_555
H54 C46 1_555 1_555
Hg1_2 N5 1_555 1_555
N5_2 Hg1 1_555 1_555
C4 C5 1_555 1_555
C10 C11 1_555 1_555
C18 C19 1_555 1_555
C23 C24 1_555 1_555
C31 C32 1_555 1_555
C39 C43 1_555 1_555

#END
