
#######################################################################
#
#                 Cambridge Crystallographic Data Centre
#                                CCDC 
#
#######################################################################
#
# If this CIF has been generated from an entry in the Cambridge 
# Structural Database, then it will include bibliographic, chemical, 
# crystal, experimental, refinement or atomic coordinate data resulting 
# from the CCDC's data processing and validation procedures.
#
#######################################################################

data_WUZKUY
_symmetry_cell_setting           triclinic
_symmetry_space_group_name_H-M   'P -1'
_symmetry_Int_Tables_number      2
_space_group_name_Hall           '-P 1'
loop_
_symmetry_equiv_pos_site_id
_symmetry_equiv_pos_as_xyz
1 x,y,z
2 -x,-y,-z
_cell_length_a                   8.9441(13)
_cell_length_b                   9.3959(14)
_cell_length_c                   14.625(2)
_cell_angle_alpha                98.065(2)
_cell_angle_beta                 95.481(2)
_cell_angle_gamma                104.9130(10)
_cell_volume                     1164.73
loop_
_atom_site_label
_atom_site_type_symbol
_atom_site_fract_x
_atom_site_fract_y
_atom_site_fract_z
Pr1 Pr -0.35948(3) -0.23520(3) -0.22645(2)
Pr2 Pr -0.95694(3) -0.35443(3) -0.33732(2)
O1 O -0.5500(4) -0.4633(4) -0.3041(3)
O2 O -0.5421(4) -0.3139(5) -0.1114(3)
O3 O -0.5050(4) -0.1208(4) -0.3234(3)
O4 O -0.4004(5) 0.0022(5) -0.1329(3)
H1 H -0.3227 0.0777 -0.1123
H2 H -0.4916 0.0050 -0.1226
O5 O -1.1617(4) -0.9948(4) -0.2637(3)
O6 O -1.0342(4) -1.1574(4) -0.2303(3)
O7 O -0.9240(4) 0.2267(4) -0.5440(3)
O8 O -0.7407(4) 0.3323(4) -0.6247(2)
O9 O -0.7334(4) -0.5685(4) 0.1697(3)
O10 O -0.9229(5) -0.4927(4) 0.2329(3)
O11 O -0.2280(5) -0.1479(5) -0.0513(3)
H3 H -0.1290 -0.1199 -0.0383
H4 H -0.2846 -0.1477 -0.0078
O12 O -0.7481(5) -0.2874(5) -0.1985(3)
O13 O -1.1018(4) -0.5888(4) -0.4496(3)
H5 H -1.1812 -0.5891 -0.4866
H6 H -1.0714 -0.6675 -0.4506
O14 O -0.8025(4) -0.5244(4) -0.3612(3)
O15 O -0.7584(4) -0.1624(4) -0.3730(3)
N1 N -0.6094(5) -0.8324(5) -0.1748(4)
N2 N -0.9854(5) -0.2517(5) 0.0263(3)
C1 C -0.6643(6) 0.2154(6) -0.5004(3)
C2 C -0.7728(6) -0.3151(6) -0.0423(4)
C3 C -0.7439(6) -0.3915(6) 0.0293(4)
H7 H -0.6620 -0.4357 0.0311
C4 C -0.8420(6) -0.3999(5) 0.0985(3)
C5 C -0.9583(6) -0.3285(6) 0.0939(4)
H8 H -1.0221 -0.3339 0.1406
C6 C -0.8934(6) -0.2493(6) -0.0403(4)
H9 H -0.9122 -0.1994 -0.0889
C7 C -0.6811(6) -0.3051(6) -0.1237(4)
C8 C -0.7183(6) -0.6816(6) -0.2677(4)
C9 C -0.8656(6) -0.7844(6) -0.2786(4)
H10 H -0.9512 -0.7679 -0.3125
C10 C -0.8819(6) -0.9109(5) -0.2383(4)
C11 C -0.7524(6) -0.9316(6) -0.1885(4)
H11 H -0.7642 -1.0183 -0.1628
C12 C -0.5960(6) -0.7098(6) -0.2149(4)
H12 H -0.4987 -0.6401 -0.2065
C13 C -0.6859(6) -0.5452(6) -0.3137(4)
C14 C -0.8309(6) -0.4938(6) 0.1721(4)
C15 C -0.7847(6) 0.2604(6) -0.5604(4)
C16 C -1.0363(6) -1.0276(6) -0.2450(4)
C17 C -0.5856(6) 0.0517(5) -0.4052(4)
C18 C -0.4337(6) 0.1452(6) -0.3944(4)
H13 H -0.3560 0.1230 -0.3567
N3 N -0.3950(5) 0.2649(5) -0.4356(3)
C19 C -0.5090(6) 0.2972(6) -0.4888(4)
H14 H -0.4820 0.3787 -0.5193
C20 C -0.7030(5) 0.0905(5) -0.4574(3)
H15 H -0.8063 0.0335 -0.4633
C21 C -0.6181(6) -0.0863(6) -0.3626(4)
Pr1_2 Pr -1.35948(3) -1.23520(3) -0.22645(2)
Pr1A Pr -0.64052(3) 0.23520(3) -0.77355(2)
Pr1A_2 Pr -0.64052(3) -0.76480(3) 0.22645(2)
Pr2_2 Pr -0.95694(3) -1.35443(3) -0.33732(2)
Pr2A Pr -1.04306(3) 0.35443(3) -0.66268(2)
Pr2A_2 Pr -1.04306(3) -0.64557(3) 0.33732(2)
O5_2 O -0.1617(4) 0.0052(4) -0.2637(3)
O6_2 O -0.0342(4) -0.1574(4) -0.2303(3)
O6_3 O -1.0342(4) -0.1574(4) -0.2303(3)
O7A O -1.0760(4) -0.2267(4) -0.4560(3)
O8A O -0.2593(4) -0.3323(4) -0.3753(2)
O8A_2 O -1.2593(4) -0.3323(4) -0.3753(2)
O9A O -0.2666(4) -0.4315(4) -0.1697(3)
O10A O -1.0771(5) -0.5073(4) -0.2329(3)
loop_
_geom_bond_atom_site_label_1
_geom_bond_atom_site_label_2
_geom_bond_site_symmetry_1
_geom_bond_site_symmetry_2
Pr1 O1 1_555 1_555
Pr2 O12 1_555 1_555
O1 C13 1_555 1_555
O2 Pr1 1_555 1_555
O3 Pr1 1_555 1_555
O4 Pr1 1_555 1_555
H1 O4 1_555 1_555
H2 O4 1_555 1_555
O5 C16 1_555 1_555
O6 C16 1_555 1_555
O7 C15 1_555 1_555
O8 C15 1_555 1_555
O9 C14 1_555 1_555
O10 C14 1_555 1_555
O11 Pr1 1_555 1_555
H3 O11 1_555 1_555
H4 O11 1_555 1_555
O12 C7 1_555 1_555
O13 Pr2 1_555 1_555
H5 O13 1_555 1_555
H6 O13 1_555 1_555
O14 Pr2 1_555 1_555
O15 Pr2 1_555 1_555
N1 C11 1_555 1_555
N2 C5 1_555 1_555
C1 C15 1_555 1_555
C2 C3 1_555 1_555
C3 H7 1_555 1_555
C4 C3 1_555 1_555
C5 C4 1_555 1_555
H8 C5 1_555 1_555
C6 N2 1_555 1_555
H9 C6 1_555 1_555
C7 O2 1_555 1_555
C8 C9 1_555 1_555
C9 H10 1_555 1_555
C10 C9 1_555 1_555
C11 C10 1_555 1_555
H11 C11 1_555 1_555
C12 N1 1_555 1_555
H12 C12 1_555 1_555
C13 O14 1_555 1_555
C14 C4 1_555 1_555
C16 C10 1_555 1_555
C17 C18 1_555 1_555
C18 H13 1_555 1_555
N3 C18 1_555 1_555
C19 C1 1_555 1_555
H14 C19 1_555 1_555
C20 C1 1_555 1_555
H15 C20 1_555 1_555
C21 O3 1_555 1_555
Pr1_2 O5 1_555 1_555
Pr1A O8 1_555 1_555
Pr1A_2 O9 1_555 1_555
Pr2_2 O6 1_555 1_555
Pr2A O7 1_555 1_555
Pr2A_2 O10 1_555 1_555
O5_2 Pr1 1_555 1_555
O6_2 Pr1 1_555 1_555
O6_3 Pr2 1_555 1_555
O7A Pr2 1_555 1_555
O8A Pr1 1_555 1_555
O8A_2 Pr2 1_555 1_555
O9A Pr1 1_555 1_555
O10A Pr2 1_555 1_555
O6 Pr1_2 1_555 1_555
O8 Pr2A 1_555 1_555
O15 C21 1_555 1_555
C2 C6 1_555 1_555
C2 C7 1_555 1_555
C8 C12 1_555 1_555
C8 C13 1_555 1_555
C17 C20 1_555 1_555
C17 C21 1_555 1_555
N3 C19 1_555 1_555

#END
