
#######################################################################
#
#                 Cambridge Crystallographic Data Centre
#                                CCDC 
#
#######################################################################
#
# If this CIF has been generated from an entry in the Cambridge 
# Structural Database, then it will include bibliographic, chemical, 
# crystal, experimental, refinement or atomic coordinate data resulting 
# from the CCDC's data processing and validation procedures.
#
#######################################################################

data_WUZKOS
_symmetry_cell_setting           monoclinic
_symmetry_space_group_name_H-M   'C 2/c'
_symmetry_Int_Tables_number      15
_space_group_name_Hall           '-C 2yn'
loop_
_symmetry_equiv_pos_site_id
_symmetry_equiv_pos_as_xyz
1 x,y,z
2 -x,y,1/2-z
3 1/2+x,1/2+y,z
4 1/2-x,1/2+y,1/2-z
5 -x,-y,-z
6 x,-y,1/2+z
7 1/2-x,1/2-y,-z
8 1/2+x,1/2-y,1/2+z
_cell_length_a                   14.104(2)
_cell_length_b                   11.1129(16)
_cell_length_c                   15.086(2)
_cell_angle_alpha                90
_cell_angle_beta                 92.138(2)
_cell_angle_gamma                90
_cell_volume                     2362.88
loop_
_atom_site_label
_atom_site_type_symbol
_atom_site_fract_x
_atom_site_fract_y
_atom_site_fract_z
Dy1 Dy -0.13973(3) -0.32816(3) -0.03864(3)
O1 O -0.1265(4) -0.5287(5) -0.0327(4)
O2 O -0.1051(4) -0.2481(5) 0.1003(4)
O3 O -0.2336(4) -1.1435(5) -0.0578(4)
O4 O -0.0796(4) -1.1114(5) -0.0557(4)
O5 O -0.2183(4) -0.1112(5) 0.1256(4)
O6 O -0.0235(4) -0.6552(5) 0.0314(4)
O7 O -0.1052(5) -0.3044(6) -0.1874(4)
H1 H -0.1068 -0.2348 -0.2108
H2 H -0.0909 -0.3652 -0.2183
N1 N 0.0000 0.0954(9) 0.2500
C1 C -0.2156(7) -0.7110(8) -0.1288(6)
H3 H -0.2285 -0.6312 -0.1433
N2 N -0.2674(5) -0.7969(6) -0.1694(5)
C2 C -0.2510(7) -0.9092(8) -0.1445(6)
H4 H -0.2906 -0.9691 -0.1679
C3 C -0.1439(5) -0.7347(7) -0.0664(6)
C4 C -0.0934(6) -0.6303(7) -0.0190(6)
C5 C -0.0668(5) -0.0921(7) 0.1981(5)
C6 C -0.0654(6) 0.0324(8) 0.2012(6)
H5 H -0.1114 0.0746 0.1682
C7 C 0.0000 -0.1558(10) 0.2500
H6 H 0.0000 -0.2395 0.2500
C8 C -0.1365(6) -0.1567(8) 0.1372(5)
C9 C -0.1776(6) -0.9428(7) -0.0850(5)
C10 C -0.1224(6) -0.8524(8) -0.0459(5)
H7 H -0.0720 -0.8710 -0.0068
C11 C -0.1610(6) -1.0725(7) -0.0646(5)
Dy1A Dy 0.13973(3) -0.32816(3) 0.53864(3)
Dy1_2 Dy -0.13973(3) -1.32816(3) -0.03864(3)
Dy1A_2 Dy 0.13973(3) -1.32816(3) 0.53864(3)
Dy1D Dy 0.13973(3) -0.67184(3) 0.03864(3)
Dy1E Dy -0.13973(3) -0.67184(3) 0.46136(3)
Dy1F Dy -0.36027(3) -1.17184(3) 0.03864(3)
Dy1F_2 Dy -0.36027(3) -0.17184(3) 0.03864(3)
Dy1G Dy 0.36027(3) -1.17184(3) 0.46136(3)
Dy1G_2 Dy 0.36027(3) -0.17184(3) 0.46136(3)
O1A O 0.1265(4) -0.5287(5) 0.5327(4)
O2A O 0.1051(4) -0.2481(5) 0.3997(4)
O3A O 0.2336(4) -1.1435(5) 0.5578(4)
O3_2 O -0.2336(4) -0.1435(5) -0.0578(4)
O3A_2 O 0.2336(4) -0.1435(5) 0.5578(4)
O3F O -0.2664(4) -0.3565(5) 0.0578(4)
O3G O 0.2664(4) -0.3565(5) 0.4422(4)
O4A O 0.0796(4) -1.1114(5) 0.5557(4)
O4_2 O -0.0796(4) -0.1114(5) -0.0557(4)
O4A_2 O 0.0796(4) -0.1114(5) 0.5557(4)
O5A O 0.2183(4) -0.1112(5) 0.3744(4)
O5F O -0.2817(4) -0.3888(5) -0.1256(4)
O5G O 0.2817(4) -0.3888(5) 0.6256(4)
O6A O 0.0235(4) -0.6552(5) 0.4686(4)
O6D O 0.0235(4) -0.3448(5) -0.0314(4)
O6E O -0.0235(4) -0.3448(5) 0.5314(4)
O7A O 0.1052(5) -0.3044(6) 0.6874(4)
H1A H 0.1068 -0.2348 0.7108
H2A H 0.0909 -0.3652 0.7183
C1A C 0.2156(7) -0.7110(8) 0.6288(6)
H3A H 0.2285 -0.6312 0.6433
N2A N 0.2674(5) -0.7969(6) 0.6694(5)
C2A C 0.2510(7) -0.9092(8) 0.6445(6)
H4A H 0.2906 -0.9691 0.6679
C3A C 0.1439(5) -0.7347(7) 0.5664(6)
C4A C 0.0934(6) -0.6303(7) 0.5190(6)
C5A C 0.0668(5) -0.0921(7) 0.3019(5)
C6A C 0.0654(6) 0.0324(8) 0.2988(6)
H5A H 0.1114 0.0746 0.3318
C8A C 0.1365(6) -0.1567(8) 0.3628(5)
C9A C 0.1776(6) -0.9428(7) 0.5850(5)
C10A C 0.1224(6) -0.8524(8) 0.5459(5)
H7A H 0.0720 -0.8710 0.5068
C11A C 0.1610(6) -1.0725(7) 0.5646(5)
loop_
_geom_bond_atom_site_label_1
_geom_bond_atom_site_label_2
_geom_bond_site_symmetry_1
_geom_bond_site_symmetry_2
Dy1 O1 1_555 1_555
O1 C4 1_555 1_555
O2 Dy1 1_555 1_555
O3 C11 1_555 1_555
O4 C11 1_555 1_555
O5 C8 1_555 1_555
O6 C4 1_555 1_555
O7 Dy1 1_555 1_555
H1 O7 1_555 1_555
H2 O7 1_555 1_555
N1 C6 1_555 1_555
C1 H3 1_555 1_555
N2 C1 1_555 1_555
C2 N2 1_555 1_555
H4 C2 1_555 1_555
C3 C1 1_555 1_555
C4 C3 1_555 1_555
C5 C6 1_555 1_555
C6 H5 1_555 1_555
C7 C5 1_555 1_555
H6 C7 1_555 1_555
C8 O2 1_555 1_555
C9 C2 1_555 1_555
C10 C3 1_555 1_555
H7 C10 1_555 1_555
C11 C9 1_555 1_555
Dy1A O1A 1_555 1_555
Dy1_2 O3 1_555 1_555
Dy1A_2 O3A 1_555 1_555
Dy1D O6 1_555 1_555
Dy1E O6A 1_555 1_555
Dy1F O3 1_555 1_555
Dy1F_2 O5 1_555 1_555
Dy1G O3A 1_555 1_555
Dy1G_2 O3A_2 1_555 1_555
O1A C4A 1_555 1_555
O2A Dy1A 1_555 1_555
O3A C11A 1_555 1_555
O3_2 Dy1 1_555 1_555
O3A_2 Dy1A 1_555 1_555
O3F Dy1 1_555 1_555
O3G Dy1A 1_555 1_555
O4A Dy1A_2 1_555 1_555
O4_2 Dy1 1_555 1_555
O4A_2 Dy1A 1_555 1_555
O5A Dy1G_2 1_555 1_555
O5F Dy1 1_555 1_555
O5G Dy1A 1_555 1_555
O6A C4A 1_555 1_555
O6D Dy1 1_555 1_555
O6E Dy1A 1_555 1_555
O7A Dy1A 1_555 1_555
H1A O7A 1_555 1_555
H2A O7A 1_555 1_555
C1A H3A 1_555 1_555
N2A C1A 1_555 1_555
C2A N2A 1_555 1_555
H4A C2A 1_555 1_555
C3A C1A 1_555 1_555
C4A C3A 1_555 1_555
C5A C7 1_555 1_555
C6A N1 1_555 1_555
H5A C6A 1_555 1_555
C8A O2A 1_555 1_555
C9A C2A 1_555 1_555
C10A C3A 1_555 1_555
H7A C10A 1_555 1_555
C11A O4A 1_555 1_555
O4 Dy1_2 1_555 1_555
C5 C8 1_555 1_555
C9 C10 1_555 1_555
Dy1F_2 O3_2 1_555 1_555
Dy1F_2 O3F 1_555 1_555
Dy1G_2 O3G 1_555 1_555
O5A C8A 1_555 1_555
C5A C6A 1_555 1_555
C5A C8A 1_555 1_555
C9A C10A 1_555 1_555
C9A C11A 1_555 1_555

#END
