
#######################################################################
#
#                 Cambridge Crystallographic Data Centre
#                                CCDC 
#
#######################################################################
#
# If this CIF has been generated from an entry in the Cambridge 
# Structural Database, then it will include bibliographic, chemical, 
# crystal, experimental, refinement or atomic coordinate data resulting 
# from the CCDC's data processing and validation procedures.
#
#######################################################################

data_WUZLIN
_symmetry_cell_setting           monoclinic
_symmetry_space_group_name_H-M   'P 21/c'
_symmetry_Int_Tables_number      14
_space_group_name_Hall           '-P 2ybc'
loop_
_symmetry_equiv_pos_site_id
_symmetry_equiv_pos_as_xyz
1 x,y,z
2 -x,1/2+y,1/2-z
3 -x,-y,-z
4 x,1/2-y,1/2+z
_cell_length_a                   5.7038(11)
_cell_length_b                   22.397(4)
_cell_length_c                   15.602(4)
_cell_angle_alpha                90
_cell_angle_beta                 106.26(3)
_cell_angle_gamma                90
_cell_volume                     1913.4
loop_
_atom_site_label
_atom_site_type_symbol
_atom_site_fract_x
_atom_site_fract_y
_atom_site_fract_z
Ag1 Ag -1.04716(5) -0.249950(9) 0.082864(19)
P1 P -0.43752(13) -0.27355(3) 0.23585(5)
O1 O -0.7115(4) -0.26268(11) 0.23769(16)
H1 H -0.7656 -0.2872 0.2682
O2 O -0.3650(4) -0.33691(9) 0.26390(15)
O3 O -0.4169(5) -0.25320(10) 0.14715(16)
O4 O -0.5179(5) 0.05559(10) 0.28123(18)
H2 H -0.5506 0.0915 0.2649
O5 O -0.2812(5) 0.04875(10) 0.18979(18)
N1 N -1.0220(5) -0.34640(11) 0.05534(18)
N2 N -1.0178(5) -0.15486(11) 0.04943(18)
C1 C -0.2542(5) -0.22591(12) 0.32334(19)
H3 H -0.2952 -0.2343 0.3784
H4 H -0.0833 -0.2358 0.3327
C2 C -0.2883(5) -0.16033(12) 0.30353(18)
C3 C -0.4621(6) -0.12717(13) 0.3297(2)
H5 H -0.5609 -0.1458 0.3600
C4 C -0.1446(6) -0.13144(13) 0.2569(2)
H6 H -0.0281 -0.1530 0.2385
C5 C -0.4903(6) -0.06721(13) 0.3114(2)
H7 H -0.6072 -0.0458 0.3298
C6 C -0.1739(5) -0.07105(13) 0.2380(2)
H8 H -0.0779 -0.0524 0.2066
C7 C -0.3465(5) -0.03810(12) 0.26577(18)
C8 C -0.3764(5) 0.02654(12) 0.2430(2)
C9 C -0.8755(7) -0.36633(14) 0.0089(3)
H9 H -0.7777 -0.3389 -0.0099
C10 C -0.8610(7) -0.42551(14) -0.0129(3)
H10 H -0.7536 -0.4370 -0.0450
C11 C -1.0038(5) -0.46791(12) 0.01226(19)
C12 C -1.1568(8) -0.44699(14) 0.0602(3)
H11 H -1.2574 -0.4734 0.0793
C13 C -1.1613(8) -0.38691(15) 0.0799(3)
H12 H -1.2670 -0.3741 0.1120
C14 C -0.8126(6) -0.12297(13) 0.0779(2)
H13 H -0.6725 -0.1421 0.1118
C15 C -0.7983(6) -0.06309(13) 0.0596(2)
H14 H -0.6504 -0.0431 0.0806
C16 C -1.0035(5) -0.03229(12) 0.00998(19)
C17 C -1.2148(6) -0.06581(14) -0.0191(2)
H15 H -1.3583 -0.0477 -0.0523
C18 C -1.2139(6) -0.12587(14) 0.0008(3)
H16 H -1.3582 -0.1472 -0.0209
Ag1_2 Ag -2.04716(5) -0.249950(9) 0.082864(19)
Ag1_3 Ag -0.04716(5) -0.249950(9) 0.082864(19)
Ag1B Ag -0.95284(5) -0.750050(9) -0.082864(19)
Ag1B_2 Ag -0.95284(5) 0.249950(9) -0.082864(19)
P1_2 P -1.43752(13) -0.27355(3) 0.23585(5)
O1_2 O -1.7115(4) -0.26268(11) 0.23769(16)
H1_2 H -1.7656 -0.2872 0.2682
O2_2 O -1.3650(4) -0.33691(9) 0.26390(15)
O3_2 O -1.4169(5) -0.25320(10) 0.14715(16)
O3_3 O -2.4169(5) -0.25320(10) 0.14715(16)
O4_2 O -1.5179(5) 0.05559(10) 0.28123(18)
H2_2 H -1.5506 0.0915 0.2649
O5_2 O -1.2812(5) 0.04875(10) 0.18979(18)
N1B N -0.9780(5) -0.65360(11) -0.05534(18)
N1_2 N -2.0220(5) -0.34640(11) 0.05534(18)
N2B N -0.9822(5) 0.15486(11) -0.04943(18)
N2_2 N -2.0178(5) -0.15486(11) 0.04943(18)
C1_2 C -1.2542(5) -0.22591(12) 0.32334(19)
H3_2 H -1.2952 -0.2343 0.3784
H4_2 H -1.0833 -0.2358 0.3327
C2_2 C -1.2883(5) -0.16033(12) 0.30353(18)
C3_2 C -1.4621(6) -0.12717(13) 0.3297(2)
H5_2 H -1.5609 -0.1458 0.3600
C4_2 C -1.1446(6) -0.13144(13) 0.2569(2)
H6_2 H -1.0281 -0.1530 0.2385
C5_2 C -1.4903(6) -0.06721(13) 0.3114(2)
H7_2 H -1.6072 -0.0458 0.3298
C6_2 C -1.1739(5) -0.07105(13) 0.2380(2)
H8_2 H -1.0779 -0.0524 0.2066
C7_2 C -1.3465(5) -0.03810(12) 0.26577(18)
C8_2 C -1.3764(5) 0.02654(12) 0.2430(2)
C9B C -1.1245(7) -0.63367(14) -0.0089(3)
H9B H -1.2223 -0.6611 0.0099
C10B C -1.1390(7) -0.57449(14) 0.0129(3)
H10B H -1.2464 -0.5630 0.0450
C11B C -0.9962(5) -0.53209(12) -0.01226(19)
C12B C -0.8432(8) -0.55301(14) -0.0602(3)
H11B H -0.7426 -0.5266 -0.0793
C13B C -0.8387(8) -0.61309(15) -0.0799(3)
H12B H -0.7330 -0.6259 -0.1120
C14B C -1.1874(6) 0.12297(13) -0.0779(2)
H13B H -1.3275 0.1421 -0.1118
C15B C -1.2017(6) 0.06309(13) -0.0596(2)
H14B H -1.3496 0.0431 -0.0806
C16B C -0.9965(5) 0.03229(12) -0.00998(19)
C17B C -0.7852(6) 0.06581(14) 0.0191(2)
H15B H -0.6417 0.0477 0.0523
C18B C -0.7861(6) 0.12587(14) -0.0008(3)
H16B H -0.6418 0.1472 0.0209
O6 O 0.1332(4) -0.33968(10) 0.34028(16)
H17 H 0.1962 -0.3741 0.3364
H18 H -0.0100 -0.3383 0.3035
O7 O 0.3979(6) -0.25234(10) 0.46602(19)
H19 H 0.3162 -0.2827 0.4426
H20 H 0.4415 -0.2556 0.5233
loop_
_geom_bond_atom_site_label_1
_geom_bond_atom_site_label_2
_geom_bond_site_symmetry_1
_geom_bond_site_symmetry_2
Ag1 O1 1_555 1_555
P1 O1 1_555 1_555
O1 H1 1_555 1_555
O2 P1 1_555 1_555
O3 P1 1_555 1_555
O4 H2 1_555 1_555
O5 C8 1_555 1_555
N1 Ag1 1_555 1_555
N2 Ag1 1_555 1_555
C1 P1 1_555 1_555
H3 C1 1_555 1_555
H4 C1 1_555 1_555
C2 C1 1_555 1_555
C3 C2 1_555 1_555
H5 C3 1_555 1_555
C4 C2 1_555 1_555
H6 C4 1_555 1_555
C5 C3 1_555 1_555
H7 C5 1_555 1_555
C6 C4 1_555 1_555
H8 C6 1_555 1_555
C7 C5 1_555 1_555
C8 O4 1_555 1_555
C9 N1 1_555 1_555
H9 C9 1_555 1_555
C10 C9 1_555 1_555
H10 C10 1_555 1_555
C11 C10 1_555 1_555
C12 C11 1_555 1_555
H11 C12 1_555 1_555
C13 N1 1_555 1_555
H12 C13 1_555 1_555
C14 N2 1_555 1_555
H13 C14 1_555 1_555
C15 C14 1_555 1_555
H14 C15 1_555 1_555
C16 C15 1_555 1_555
C17 C16 1_555 1_555
H15 C17 1_555 1_555
C18 N2 1_555 1_555
H16 C18 1_555 1_555
O6 H17 1_555 1_555
H18 O6 1_555 1_555
O7 H19 1_555 1_555
H20 O7 1_555 1_555
Ag1_2 O1_2 1_555 1_555
Ag1_3 O3 1_555 1_555
Ag1B N1B 1_555 1_555
Ag1B_2 N2B 1_555 1_555
P1_2 O1_2 1_555 1_555
O1_2 H1_2 1_555 1_555
O2_2 P1_2 1_555 1_555
O3_2 Ag1 1_555 1_555
O3_3 Ag1_2 1_555 1_555
O4_2 H2_2 1_555 1_555
O5_2 C8_2 1_555 1_555
N1B C9B 1_555 1_555
N1_2 Ag1_2 1_555 1_555
N2B C14B 1_555 1_555
N2_2 Ag1_2 1_555 1_555
C1_2 P1_2 1_555 1_555
H3_2 C1_2 1_555 1_555
H4_2 C1_2 1_555 1_555
C2_2 C1_2 1_555 1_555
C3_2 C2_2 1_555 1_555
H5_2 C3_2 1_555 1_555
C4_2 C2_2 1_555 1_555
H6_2 C4_2 1_555 1_555
C5_2 C3_2 1_555 1_555
H7_2 C5_2 1_555 1_555
C6_2 C4_2 1_555 1_555
H8_2 C6_2 1_555 1_555
C7_2 C5_2 1_555 1_555
C8_2 O4_2 1_555 1_555
C9B H9B 1_555 1_555
C10B C9B 1_555 1_555
H10B C10B 1_555 1_555
C11B C11 1_555 1_555
C12B C11B 1_555 1_555
H11B C12B 1_555 1_555
C13B N1B 1_555 1_555
H12B C13B 1_555 1_555
C14B H13B 1_555 1_555
C15B C14B 1_555 1_555
H14B C15B 1_555 1_555
C16B C16 1_555 1_555
C17B C16B 1_555 1_555
H15B C17B 1_555 1_555
C18B N2B 1_555 1_555
H16B C18B 1_555 1_555
C6 C7 1_555 1_555
C7 C8 1_555 1_555
C12 C13 1_555 1_555
C17 C18 1_555 1_555
P1_2 O3_2 1_555 1_555
C6_2 C7_2 1_555 1_555
C7_2 C8_2 1_555 1_555
C10B C11B 1_555 1_555
C12B C13B 1_555 1_555
C15B C16B 1_555 1_555
C17B C18B 1_555 1_555

#END
