
#######################################################################
#
#                 Cambridge Crystallographic Data Centre
#                                CCDC 
#
#######################################################################
#
# If this CIF has been generated from an entry in the Cambridge 
# Structural Database, then it will include bibliographic, chemical, 
# crystal, experimental, refinement or atomic coordinate data resulting 
# from the CCDC's data processing and validation procedures.
#
#######################################################################

data_WUZMIO
_symmetry_cell_setting           triclinic
_symmetry_space_group_name_H-M   'P -1'
_symmetry_Int_Tables_number      2
_space_group_name_Hall           '-P 1'
loop_
_symmetry_equiv_pos_site_id
_symmetry_equiv_pos_as_xyz
1 x,y,z
2 -x,-y,-z
_cell_length_a                   9.471(6)
_cell_length_b                   12.597(8)
_cell_length_c                   12.899(8)
_cell_angle_alpha                84.660(7)
_cell_angle_beta                 70.548(7)
_cell_angle_gamma                81.965(7)
_cell_volume                     1435.06
loop_
_atom_site_label
_atom_site_type_symbol
_atom_site_fract_x
_atom_site_fract_y
_atom_site_fract_z
Co1 Co 1.0000 0.0000 0.0000
Co2 Co 0.9761(1) -0.1507 0.2064
O1 O 0.9559(4) 0.0303(3) 0.1611(3)
O2 O 0.8425(4) -0.0440(3) 0.3210(3)
O3 O 0.5277(5) 0.1963(4) 0.6138(3)
H1 H 0.4659 0.2102 0.6741
O4 O 0.4901(6) 0.3718(4) 0.5823(4)
O5 O 0.7901(3) 0.0680(3) 0.0155(3)
O6 O 0.7987(3) 0.1545(3) -0.1462(3)
O7 O 0.2809(4) 0.1921(3) -0.2074(3)
O8 O 0.0864(3) 0.1537(2) -0.0680(3)
N1 N 0.9886(5) -0.2860(3) 0.3055(3)
C1 C 0.7818(5) 0.1459(4) 0.2923(4)
C2 C 0.7037(5) 0.1617(4) 0.4030(4)
H2 H 0.6961 0.1048 0.4552
C3 C 0.6373(5) 0.2642(4) 0.4339(4)
C4 C 0.6455(6) 0.3480(4) 0.3545(4)
H3 H 0.6007 0.4163 0.3767
C5 C 0.7185(6) 0.3328(4) 0.2432(4)
C6 C 0.7878(5) 0.2300(4) 0.2142(4)
H4 H 0.8394 0.2174 0.1404
C7 C 0.8620(5) 0.0378(4) 0.2573(4)
C8 C 0.5461(6) 0.2845(5) 0.5502(4)
C9 C 0.7222(11) 0.4250(6) 0.1567(7)
C10 C 0.8077(10) 0.5098(6) 0.1757(7)
H5 H 0.9133 0.4843 0.1541
H6 H 0.7719 0.5249 0.2523
H7 H 0.7923 0.5741 0.1327
C11 C 0.5613(10) 0.4804(6) 0.1730(7)
H8 H 0.5649 0.5410 0.1215
H9 H 0.5175 0.5042 0.2467
H10 H 0.5011 0.4305 0.1609
C12 C 0.787(1) 0.3896(6) 0.0399(6)
H11 H 0.8880 0.3553 0.0273
H12 H 0.7883 0.4510 -0.0102
H13 H 0.7260 0.3400 0.0284
C13 C 0.5601(5) 0.1391(3) -0.0073(4)
C14 C 0.4751(5) 0.1539(4) -0.0771(4)
H14 H 0.5219 0.1563 -0.1530
C15 C 0.3177(5) 0.1651(3) -0.0324(4)
C16 C 0.2476(5) 0.1677(4) 0.0822(4)
H15 H 0.1429 0.1767 0.1113
C17 C 0.3340(5) 0.1567(4) 0.1531(4)
C18 C 0.4892(5) 0.1408(4) 0.1059(4)
H16 H 0.5483 0.1310 0.1517
C19 C 0.7286(5) 0.1196(4) -0.0498(4)
C20 C 0.2260(5) 0.1714(3) -0.1074(4)
C21 C 0.2571(8) 0.1607(7) 0.2788(5)
C22 C 0.1911(8) 0.0547(7) 0.3202(5)
H17 H 0.2715 -0.0027 0.3121
H18 H 0.1292 0.0416 0.2781
H19 H 0.1311 0.0587 0.3964
C23 C 0.1281(8) 0.2500(7) 0.3056(5)
H20 H 0.0832 0.2529 0.3840
H21 H 0.0539 0.2366 0.2742
H22 H 0.1653 0.3172 0.2755
C24 C 0.3662(8) 0.1756(7) 0.3370(5)
H23 H 0.3132 0.1816 0.4143
H24 H 0.4128 0.2397 0.3077
H25 H 0.4423 0.1150 0.3262
C25 C 1.1173(8) -0.3299(6) 0.3187(7)
H26 H 1.2061 -0.3032 0.2753
C26 C 1.1247(8) -0.4136(7) 0.3939(7)
H27 H 1.2176 -0.4417 0.4006
C27 C 0.9984(6) -0.4555(4) 0.4584(5)
C28 C 0.8657(7) -0.4079(5) 0.4461(5)
H28 H 0.7749 -0.4313 0.4902
C29 C 0.8669(7) -0.3254(5) 0.3685(5)
H29 H 0.7753 -0.2958 0.3604
Co1_2 Co 0.0000 0.0000 0.0000
Co1_3 Co 2.0000 0.0000 0.0000
Co2A Co 1.0239(1) 0.1507 -0.2064
Co2A_2 Co 0.0239(1) 0.1507 -0.2064
Co2A_3 Co 1.0239(1) -0.8493 0.7936
Co2_2 Co 1.9761(1) -0.1507 0.2064
O1A O 1.0441(4) -0.0303(3) -0.1611(3)
O2A O 1.1575(4) 0.0440(3) -0.3210(3)
O3A O 1.4723(5) -0.1963(4) -0.6138(3)
H1A H 1.5341 -0.2102 -0.6741
O4A O 1.5099(6) -0.3718(4) -0.5823(4)
O5A O 1.2099(3) -0.0680(3) -0.0155(3)
O6A O 1.2013(3) -0.1545(3) 0.1462(3)
O7A O 1.7191(4) -0.1921(3) 0.2074(3)
O8A O 1.9136(3) -0.1537(2) 0.0680(3)
O8_2 O 1.0864(3) 0.1537(2) -0.0680(3)
O8A_2 O 0.9136(3) -0.1537(2) 0.0680(3)
N1A N 1.0114(5) -0.7140(3) 0.6945(3)
N1A_2 N 1.0114(5) 0.2860(3) -0.3055(3)
C1A C 1.2182(5) -0.1459(4) -0.2923(4)
C2A C 1.2963(5) -0.1617(4) -0.4030(4)
H2A H 1.3039 -0.1048 -0.4552
C3A C 1.3627(5) -0.2642(4) -0.4339(4)
C4A C 1.3545(6) -0.3480(4) -0.3545(4)
H3A H 1.3993 -0.4163 -0.3767
C5A C 1.2815(6) -0.3328(4) -0.2432(4)
C6A C 1.2122(5) -0.2300(4) -0.2142(4)
H4A H 1.1606 -0.2174 -0.1404
C7A C 1.1380(5) -0.0378(4) -0.2573(4)
C8A C 1.4539(6) -0.2845(5) -0.5502(4)
C9A C 1.2778(11) -0.4250(6) -0.1567(7)
C10A C 1.1923(10) -0.5098(6) -0.1757(7)
H5A H 1.0867 -0.4843 -0.1541
H6A H 1.2281 -0.5249 -0.2523
H7A H 1.2077 -0.5741 -0.1327
C11A C 1.4387(10) -0.4804(6) -0.1730(7)
H8A H 1.4351 -0.5410 -0.1215
H9A H 1.4825 -0.5042 -0.2467
H10A H 1.4989 -0.4305 -0.1609
C12A C 1.213(1) -0.3896(6) -0.0399(6)
H11A H 1.1120 -0.3553 -0.0273
H12A H 1.2117 -0.4510 0.0102
H13A H 1.2740 -0.3400 -0.0284
C13A C 1.4399(5) -0.1391(3) 0.0073(4)
C14A C 1.5249(5) -0.1539(4) 0.0771(4)
H14A H 1.4781 -0.1563 0.1530
C15A C 1.6823(5) -0.1651(3) 0.0324(4)
C16A C 1.7524(5) -0.1677(4) -0.0822(4)
H15A H 1.8571 -0.1767 -0.1113
C17A C 1.6660(5) -0.1567(4) -0.1531(4)
C18A C 1.5108(5) -0.1408(4) -0.1059(4)
H16A H 1.4517 -0.1310 -0.1517
C19A C 1.2714(5) -0.1196(4) 0.0498(4)
C20A C 1.7740(5) -0.1714(3) 0.1074(4)
C21A C 1.7429(8) -0.1607(7) -0.2788(5)
C22A C 1.8089(8) -0.0547(7) -0.3202(5)
H17A H 1.7285 0.0027 -0.3121
H18A H 1.8708 -0.0416 -0.2781
H19A H 1.8689 -0.0587 -0.3964
C23A C 1.8719(8) -0.2500(7) -0.3056(5)
H20A H 1.9168 -0.2529 -0.3840
H21A H 1.9461 -0.2366 -0.2742
H22A H 1.8347 -0.3172 -0.2755
C24A C 1.6338(8) -0.1756(7) -0.3370(5)
H23A H 1.6868 -0.1816 -0.4143
H24A H 1.5872 -0.2397 -0.3077
H25A H 1.5577 -0.1150 -0.3262
C25A C 0.8827(8) -0.6701(6) 0.6813(7)
H26A H 0.7939 -0.6968 0.7247
C26A C 0.8753(8) -0.5864(7) 0.6061(7)
H27A H 0.7824 -0.5583 0.5994
C27A C 1.0016(6) -0.5445(4) 0.5416(5)
C28A C 1.1343(7) -0.5921(5) 0.5539(5)
H28A H 1.2251 -0.5687 0.5098
C29A C 1.1331(7) -0.6746(5) 0.6315(5)
H29A H 1.2247 -0.7042 0.6396
loop_
_geom_bond_atom_site_label_1
_geom_bond_atom_site_label_2
_geom_bond_site_symmetry_1
_geom_bond_site_symmetry_2
Co1 O1 1_555 1_555
Co2 O1 1_555 1_555
O1 C7 1_555 1_555
O2 Co2 1_555 1_555
O3 H1 1_555 1_555
O4 C8 1_555 1_555
O5 Co1 1_555 1_555
O6 C19 1_555 1_555
O7 C20 1_555 1_555
O8 C20 1_555 1_555
N1 Co2 1_555 1_555
C1 C2 1_555 1_555
C2 H2 1_555 1_555
C3 C2 1_555 1_555
C4 C3 1_555 1_555
H3 C4 1_555 1_555
C5 C4 1_555 1_555
C6 C1 1_555 1_555
H4 C6 1_555 1_555
C7 O2 1_555 1_555
C8 O3 1_555 1_555
C9 C5 1_555 1_555
C10 C9 1_555 1_555
H5 C10 1_555 1_555
H6 C10 1_555 1_555
H7 C10 1_555 1_555
C11 C9 1_555 1_555
H8 C11 1_555 1_555
H9 C11 1_555 1_555
H10 C11 1_555 1_555
C12 C9 1_555 1_555
H11 C12 1_555 1_555
H12 C12 1_555 1_555
H13 C12 1_555 1_555
C13 C14 1_555 1_555
C14 H14 1_555 1_555
C15 C14 1_555 1_555
C16 C15 1_555 1_555
H15 C16 1_555 1_555
C17 C16 1_555 1_555
C18 C13 1_555 1_555
H16 C18 1_555 1_555
C19 O5 1_555 1_555
C20 C15 1_555 1_555
C21 C17 1_555 1_555
C22 C21 1_555 1_555
H17 C22 1_555 1_555
H18 C22 1_555 1_555
H19 C22 1_555 1_555
C23 C21 1_555 1_555
H20 C23 1_555 1_555
H21 C23 1_555 1_555
H22 C23 1_555 1_555
C24 C21 1_555 1_555
H23 C24 1_555 1_555
H24 C24 1_555 1_555
H25 C24 1_555 1_555
C25 N1 1_555 1_555
H26 C25 1_555 1_555
C26 C25 1_555 1_555
H27 C26 1_555 1_555
C27 C26 1_555 1_555
C28 C27 1_555 1_555
H28 C28 1_555 1_555
C29 N1 1_555 1_555
H29 C29 1_555 1_555
Co1_2 O8 1_555 1_555
Co1_3 O8A 1_555 1_555
Co2A O6 1_555 1_555
Co2A_2 O8 1_555 1_555
Co2A_3 N1A 1_555 1_555
Co2_2 O8A 1_555 1_555
O1A Co1 1_555 1_555
O2A Co2A 1_555 1_555
O3A H1A 1_555 1_555
O4A C8A 1_555 1_555
O5A Co1 1_555 1_555
O6A Co2 1_555 1_555
O7A C20A 1_555 1_555
O8A C20A 1_555 1_555
O8_2 Co1 1_555 1_555
O8A_2 Co1 1_555 1_555
N1A C25A 1_555 1_555
N1A_2 Co2A 1_555 1_555
C1A C2A 1_555 1_555
C2A H2A 1_555 1_555
C3A C2A 1_555 1_555
C4A C3A 1_555 1_555
H3A C4A 1_555 1_555
C5A C4A 1_555 1_555
C6A C1A 1_555 1_555
H4A C6A 1_555 1_555
C7A O1A 1_555 1_555
C8A O3A 1_555 1_555
C9A C5A 1_555 1_555
C10A C9A 1_555 1_555
H5A C10A 1_555 1_555
H6A C10A 1_555 1_555
H7A C10A 1_555 1_555
C11A C9A 1_555 1_555
H8A C11A 1_555 1_555
H9A C11A 1_555 1_555
H10A C11A 1_555 1_555
C12A C9A 1_555 1_555
H11A C12A 1_555 1_555
H12A C12A 1_555 1_555
H13A C12A 1_555 1_555
C13A C14A 1_555 1_555
C14A H14A 1_555 1_555
C15A C14A 1_555 1_555
C16A C15A 1_555 1_555
H15A C16A 1_555 1_555
C17A C16A 1_555 1_555
C18A C13A 1_555 1_555
H16A C18A 1_555 1_555
C19A O5A 1_555 1_555
C20A C15A 1_555 1_555
C21A C17A 1_555 1_555
C22A C21A 1_555 1_555
H17A C22A 1_555 1_555
H18A C22A 1_555 1_555
H19A C22A 1_555 1_555
C23A C21A 1_555 1_555
H20A C23A 1_555 1_555
H21A C23A 1_555 1_555
H22A C23A 1_555 1_555
C24A C21A 1_555 1_555
H23A C24A 1_555 1_555
H24A C24A 1_555 1_555
H25A C24A 1_555 1_555
C25A H26A 1_555 1_555
C26A C25A 1_555 1_555
H27A C26A 1_555 1_555
C27A C27 1_555 1_555
C28A C27A 1_555 1_555
H28A C28A 1_555 1_555
C29A N1A 1_555 1_555
H29A C29A 1_555 1_555
Co2 O8A_2 1_555 1_555
C1 C7 1_555 1_555
C3 C8 1_555 1_555
C5 C6 1_555 1_555
C13 C19 1_555 1_555
C17 C18 1_555 1_555
C28 C29 1_555 1_555
Co2A O1A 1_555 1_555
Co2A O8_2 1_555 1_555
O2A C7A 1_555 1_555
O6A C19A 1_555 1_555
C1A C7A 1_555 1_555
C3A C8A 1_555 1_555
C5A C6A 1_555 1_555
C13A C19A 1_555 1_555
C17A C18A 1_555 1_555
C26A C27A 1_555 1_555
C28A C29A 1_555 1_555

#END
