
#######################################################################
#
#                 Cambridge Crystallographic Data Centre
#                                CCDC 
#
#######################################################################
#
# If this CIF has been generated from an entry in the Cambridge 
# Structural Database, then it will include bibliographic, chemical, 
# crystal, experimental, refinement or atomic coordinate data resulting 
# from the CCDC's data processing and validation procedures.
#
#######################################################################

data_WUZPIR
_symmetry_cell_setting           monoclinic
_symmetry_space_group_name_H-M   'P 21/c'
_symmetry_Int_Tables_number      14
_space_group_name_Hall           '-P 2ybc'
loop_
_symmetry_equiv_pos_site_id
_symmetry_equiv_pos_as_xyz
1 x,y,z
2 -x,1/2+y,1/2-z
3 -x,-y,-z
4 x,1/2-y,1/2+z
_cell_length_a                   8.5404(5)
_cell_length_b                   20.9490(13)
_cell_length_c                   8.3922(5)
_cell_angle_alpha                90
_cell_angle_beta                 106.7190(10)
_cell_angle_gamma                90
_cell_volume                     1438
loop_
_atom_site_label
_atom_site_type_symbol
_atom_site_fract_x
_atom_site_fract_y
_atom_site_fract_z
O1 O 0.6864(2) 0.49005(9) 1.1550(2)
N1 N 0.2153(3) 0.86445(12) 0.5540(4)
N2 N -0.0422(3) 0.80434(14) 0.3133(4)
C1 C 0.0946(4) 0.89650(16) 0.4507(5)
H1 H 0.0941 0.9408 0.4582
C2 C -0.0304(4) 0.86695(18) 0.3326(5)
H2 H -0.1107 0.8924 0.2629
C3 C 0.5936(3) 0.50632(12) 1.0163(3)
Cd1 Cd 0.43833(2) 0.548042(9) 0.66043(2)
Cl1 Cl 0.36280(9) 0.43675(3) 0.51312(9)
O2 O 0.6400(2) 0.53185(9) 0.9038(2)
N3 N 0.4498(3) 0.65886(10) 0.7321(3)
N4 N 0.2031(3) 0.60029(10) 0.4972(3)
C4 C 0.5685(3) 0.68653(15) 0.8482(3)
H3 H 0.6482 0.6608 0.9175
C5 C 0.5800(4) 0.75206(15) 0.8720(4)
H4 H 0.6659 0.7697 0.9550
C6 C 0.4640(3) 0.79008(13) 0.7720(4)
H5 H 0.4701 0.8342 0.7851
C7 C 0.2066(3) 0.80020(13) 0.5383(4)
C8 C 0.0788(3) 0.77033(14) 0.4195(4)
C9 C -0.0553(4) 0.66862(16) 0.2940(4)
H6 H -0.1422 0.6912 0.2248
C10 C -0.0524(4) 0.60357(16) 0.2863(4)
H7 H -0.1381 0.5814 0.2138
C11 C 0.0793(3) 0.57132(16) 0.3873(4)
H8 H 0.0821 0.5271 0.3785
C12 C 0.0725(3) 0.70106(13) 0.4059(3)
C13 C 0.3351(3) 0.76235(13) 0.6490(3)
C14 C 0.3323(3) 0.69583(12) 0.6332(3)
C15 C 0.1994(3) 0.66468(12) 0.5087(3)
O1B O 0.3136(2) 0.50995(9) 0.8450(2)
O1_2 O 0.6864(2) 0.49005(9) 0.1550(2)
N1B N 0.7847(3) 0.13555(12) 0.4460(4)
N2B N 1.0422(3) 0.19566(14) 0.6867(4)
C1B C 0.9054(4) 0.10350(16) 0.5493(5)
H1B H 0.9059 0.0592 0.5418
C2B C 1.0304(4) 0.13305(18) 0.6674(5)
H2B H 1.1107 0.1076 0.7371
C3B C 0.4064(3) 0.49368(12) 0.9837(3)
Cd1B Cd 0.56167(2) 0.451958(9) 0.33957(2)
Cd1B_2 Cd 0.56167(2) 0.451958(9) 1.33957(2)
Cl1B Cl 0.63720(9) 0.56325(3) 0.48688(9)
O2B O 0.3600(2) 0.46815(9) 1.0962(2)
O2B_2 O 0.3600(2) 0.46815(9) 0.0962(2)
N3B N 0.5502(3) 0.34114(10) 0.2679(3)
N4B N 0.7969(3) 0.39971(10) 0.5028(3)
C4B C 0.4315(3) 0.31347(15) 0.1518(3)
H3B H 0.3518 0.3392 0.0825
C5B C 0.4200(4) 0.24794(15) 0.1280(4)
H4B H 0.3341 0.2303 0.0450
C6B C 0.5360(3) 0.20992(13) 0.2280(4)
H5B H 0.5299 0.1658 0.2149
C7B C 0.7934(3) 0.19980(13) 0.4617(4)
C8B C 0.9212(3) 0.22967(14) 0.5805(4)
C9B C 1.0553(4) 0.33138(16) 0.7060(4)
H6B H 1.1422 0.3088 0.7752
C10B C 1.0524(4) 0.39643(16) 0.7137(4)
H7B H 1.1381 0.4186 0.7862
C11B C 0.9207(3) 0.42868(16) 0.6127(4)
H8B H 0.9179 0.4729 0.6215
C12B C 0.9275(3) 0.29894(13) 0.5941(3)
C13B C 0.6649(3) 0.23765(13) 0.3510(3)
C14B C 0.6677(3) 0.30417(12) 0.3668(3)
C15B C 0.8006(3) 0.33532(12) 0.4913(3)
loop_
_geom_bond_atom_site_label_1
_geom_bond_atom_site_label_2
_geom_bond_site_symmetry_1
_geom_bond_site_symmetry_2
O1 C3 1_555 1_555
N1 C1 1_555 1_555
N2 C2 1_555 1_555
C1 H1 1_555 1_555
C2 C1 1_555 1_555
H2 C2 1_555 1_555
C3 O2 1_555 1_555
Cd1 Cl1 1_555 1_555
Cl1 Cd1B 1_555 1_555
O2 Cd1 1_555 1_555
N3 Cd1 1_555 1_555
N4 Cd1 1_555 1_555
C4 N3 1_555 1_555
H3 C4 1_555 1_555
C5 C4 1_555 1_555
H4 C5 1_555 1_555
C6 C5 1_555 1_555
H5 C6 1_555 1_555
C7 N1 1_555 1_555
C8 N2 1_555 1_555
C9 H6 1_555 1_555
C10 C9 1_555 1_555
H7 C10 1_555 1_555
C11 N4 1_555 1_555
H8 C11 1_555 1_555
C12 C8 1_555 1_555
C13 C6 1_555 1_555
C14 N3 1_555 1_555
C15 N4 1_555 1_555
O1B Cd1 1_555 1_555
O1_2 Cd1B 1_555 1_555
N1B C1B 1_555 1_555
N2B C2B 1_555 1_555
C1B H1B 1_555 1_555
C2B C1B 1_555 1_555
H2B C2B 1_555 1_555
C3B C3 1_555 1_555
Cd1B Cl1B 1_555 1_555
Cd1B_2 O1 1_555 1_555
Cl1B Cd1 1_555 1_555
O2B C3B 1_555 1_555
O2B_2 Cd1B 1_555 1_555
N3B Cd1B 1_555 1_555
N4B Cd1B 1_555 1_555
C4B N3B 1_555 1_555
H3B C4B 1_555 1_555
C5B C4B 1_555 1_555
H4B C5B 1_555 1_555
C6B C5B 1_555 1_555
H5B C6B 1_555 1_555
C7B N1B 1_555 1_555
C8B N2B 1_555 1_555
C9B H6B 1_555 1_555
C10B C9B 1_555 1_555
H7B C10B 1_555 1_555
C11B N4B 1_555 1_555
H8B C11B 1_555 1_555
C12B C8B 1_555 1_555
C13B C6B 1_555 1_555
C14B N3B 1_555 1_555
C15B N4B 1_555 1_555
C7 C8 1_555 1_555
C7 C13 1_555 1_555
C9 C12 1_555 1_555
C10 C11 1_555 1_555
C12 C15 1_555 1_555
C13 C14 1_555 1_555
C14 C15 1_555 1_555
O1B C3B 1_555 1_555
Cd1B_2 O2B 1_555 1_555
C7B C8B 1_555 1_555
C7B C13B 1_555 1_555
C9B C12B 1_555 1_555
C10B C11B 1_555 1_555
C12B C15B 1_555 1_555
C13B C14B 1_555 1_555
C14B C15B 1_555 1_555

#END
