
#######################################################################
#
#                 Cambridge Crystallographic Data Centre
#                                CCDC 
#
#######################################################################
#
# If this CIF has been generated from an entry in the Cambridge 
# Structural Database, then it will include bibliographic, chemical, 
# crystal, experimental, refinement or atomic coordinate data resulting 
# from the CCDC's data processing and validation procedures.
#
#######################################################################

data_WUZSOA
_symmetry_cell_setting           monoclinic
_symmetry_space_group_name_H-M   'P 21/c'
_symmetry_Int_Tables_number      14
_space_group_name_Hall           '-P 2ybc'
loop_
_symmetry_equiv_pos_site_id
_symmetry_equiv_pos_as_xyz
1 x,y,z
2 -x,1/2+y,1/2-z
3 -x,-y,-z
4 x,1/2-y,1/2+z
_cell_length_a                   7.3240(8)
_cell_length_b                   12.1313(13)
_cell_length_c                   14.1802(15)
_cell_angle_alpha                90
_cell_angle_beta                 100.704(2)
_cell_angle_gamma                90
_cell_volume                     1237.98
loop_
_atom_site_label
_atom_site_type_symbol
_atom_site_fract_x
_atom_site_fract_y
_atom_site_fract_z
C1 C 0.7024(3) 0.61227(17) 0.34180(14)
H1 H 0.7649 0.6613 0.3869
C2 C 0.5906(3) 0.53538(16) 0.20304(13)
C3 C 0.5424(3) 0.47633(17) 0.27654(14)
H2 H 0.4721 0.4120 0.2690
C4 C 0.5462(3) 0.51810(15) 0.09923(14)
C5 C 0.5767(3) 0.59952(16) 0.03487(13)
H3 H 0.6284 0.6666 0.0576
C6 C 0.4694(3) 0.41891(16) 0.06262(13)
H4 H 0.4486 0.3636 0.1048
C7 C 0.2276(3) 0.66265(16) 0.35944(15)
H5 H 0.2459 0.6234 0.3056
C8 C 0.1345(3) 0.79075(15) 0.44854(14)
C9 C 0.2315(3) 0.71098(15) 0.50414(14)
H6 H 0.2541 0.7105 0.5709
C10 C 0.0609(3) 0.89682(15) 0.47356(14)
C11 C -0.0078(3) 0.97491(17) 0.40435(16)
H7 H -0.0133 0.9588 0.3398
C12 C 0.0679(3) 0.92363(16) 0.56931(15)
H8 H 0.1139 0.8724 0.6166
C13 C 0.1608(3) 0.36826(16) 0.37714(14)
H9 H 0.0769 0.4215 0.3893
Mn1 Mn 0.5000 0.5000 0.5000
N1 N 0.6124(3) 0.52515(14) 0.36355(12)
N2 N 0.6934(3) 0.62227(14) 0.24675(11)
H10 H 0.7431 0.6738 0.2183
N3 N 0.2911(2) 0.63150(13) 0.44833(12)
N4 N 0.1335(2) 0.75759(14) 0.35583(12)
H11 H 0.0817 0.7917 0.3047
O1 O 0.3183(2) 0.37154(11) 0.42634(10)
O2 O 0.1041(2) 0.30061(13) 0.31300(11)
C1B C 0.2976(3) 0.38773(17) -0.34180(14)
H1B H 0.2351 0.3387 -0.3869
C2B C 0.4094(3) 0.46462(16) -0.20304(13)
C3B C 0.4576(3) 0.52367(17) -0.27654(14)
H2B H 0.5279 0.5880 -0.2690
C4B C 0.4538(3) 0.48190(15) -0.09923(14)
C5B C 0.4233(3) 0.40048(16) -0.03487(13)
H3B H 0.3716 0.3334 -0.0576
C6B C 0.5306(3) 0.58109(16) -0.06262(13)
H4B H 0.5514 0.6364 -0.1048
C7B C -0.2276(3) 1.33735(16) 0.64056(15)
H5B H -0.2459 1.3766 0.6944
C8B C -0.1345(3) 1.20925(15) 0.55146(14)
C9B C -0.2315(3) 1.28902(15) 0.49586(14)
H6B H -0.2541 1.2895 0.4291
C10B C -0.0609(3) 1.10318(15) 0.52644(14)
C11B C 0.0078(3) 1.02509(17) 0.59565(16)
H7B H 0.0133 1.0412 0.6602
C12B C -0.0679(3) 1.07637(16) 0.43069(15)
H8B H -0.1139 1.1276 0.3834
C13B C 0.8392(3) 0.63174(16) 0.62286(14)
H9B H 0.9231 0.5785 0.6107
Mn1_2 Mn 0.5000 0.5000 -0.5000
Mn1_3 Mn -0.5000 1.5000 0.5000
N1B N 0.3876(3) 0.47485(14) -0.36355(12)
N1B_2 N 0.3876(3) 0.47485(14) 0.63645(12)
N2B N 0.3066(3) 0.37773(14) -0.24675(11)
H10B H 0.2569 0.3262 -0.2183
N3B N -0.2911(2) 1.36850(13) 0.55167(12)
N3B_2 N 0.7089(2) 0.36850(13) 0.55167(12)
N4B N -0.1335(2) 1.24241(14) 0.64417(12)
H11B H -0.0817 1.2083 0.6953
O1B O 0.6817(2) 0.62846(11) 0.57366(10)
O2B O 0.8959(2) 0.69939(13) 0.68700(11)
loop_
_geom_bond_atom_site_label_1
_geom_bond_atom_site_label_2
_geom_bond_site_symmetry_1
_geom_bond_site_symmetry_2
C1 H1 1_555 1_555
C2 C3 1_555 1_555
C3 H2 1_555 1_555
C4 C2 1_555 1_555
C5 C4 1_555 1_555
H3 C5 1_555 1_555
C6 C4 1_555 1_555
H4 C6 1_555 1_555
C7 H5 1_555 1_555
C8 C9 1_555 1_555
C9 H6 1_555 1_555
C10 C8 1_555 1_555
C11 C10 1_555 1_555
H7 C11 1_555 1_555
C12 C10 1_555 1_555
H8 C12 1_555 1_555
C13 H9 1_555 1_555
Mn1 N1 1_555 1_555
N1 C1 1_555 1_555
N2 C1 1_555 1_555
H10 N2 1_555 1_555
N3 C7 1_555 1_555
N4 C7 1_555 1_555
H11 N4 1_555 1_555
O1 C13 1_555 1_555
O2 C13 1_555 1_555
C1B H1B 1_555 1_555
C2B C3B 1_555 1_555
C3B H2B 1_555 1_555
C4B C2B 1_555 1_555
C5B C6 1_555 1_555
H3B C5B 1_555 1_555
C6B C5 1_555 1_555
H4B C6B 1_555 1_555
C7B H5B 1_555 1_555
C8B C9B 1_555 1_555
C9B H6B 1_555 1_555
C10B C8B 1_555 1_555
C11B C12 1_555 1_555
H7B C11B 1_555 1_555
C12B C11 1_555 1_555
H8B C12B 1_555 1_555
C13B H9B 1_555 1_555
Mn1_2 N1B 1_555 1_555
Mn1_3 N3B 1_555 1_555
N1B C1B 1_555 1_555
N1B_2 Mn1 1_555 1_555
N2B C1B 1_555 1_555
H10B N2B 1_555 1_555
N3B C7B 1_555 1_555
N3B_2 Mn1 1_555 1_555
N4B C7B 1_555 1_555
H11B N4B 1_555 1_555
O1B Mn1 1_555 1_555
O2B C13B 1_555 1_555
C2 N2 1_555 1_555
C3 N1 1_555 1_555
C8 N4 1_555 1_555
C9 N3 1_555 1_555
Mn1 N3 1_555 1_555
Mn1 O1 1_555 1_555
C2B N2B 1_555 1_555
C3B N1B 1_555 1_555
C4B C5B 1_555 1_555
C4B C6B 1_555 1_555
C8B N4B 1_555 1_555
C9B N3B 1_555 1_555
C10B C11B 1_555 1_555
C10B C12B 1_555 1_555
C13B O1B 1_555 1_555

#END
