
#######################################################################
#
#                 Cambridge Crystallographic Data Centre
#                                CCDC 
#
#######################################################################
#
# If this CIF has been generated from an entry in the Cambridge 
# Structural Database, then it will include bibliographic, chemical, 
# crystal, experimental, refinement or atomic coordinate data resulting 
# from the CCDC's data processing and validation procedures.
#
#######################################################################

data_WUZVAP
_symmetry_cell_setting           monoclinic
_symmetry_space_group_name_H-M   'C 2/c'
_symmetry_Int_Tables_number      15
_space_group_name_Hall           '-C 2yn'
loop_
_symmetry_equiv_pos_site_id
_symmetry_equiv_pos_as_xyz
1 x,y,z
2 -x,y,1/2-z
3 1/2+x,1/2+y,z
4 1/2-x,1/2+y,1/2-z
5 -x,-y,-z
6 x,-y,1/2+z
7 1/2-x,1/2-y,-z
8 1/2+x,1/2-y,1/2+z
_cell_length_a                   13.196(3)
_cell_length_b                   6.3780(13)
_cell_length_c                   16.431(3)
_cell_angle_alpha                90
_cell_angle_beta                 93.75(3)
_cell_angle_gamma                90
_cell_volume                     1379.94
loop_
_atom_site_label
_atom_site_type_symbol
_atom_site_fract_x
_atom_site_fract_y
_atom_site_fract_z
Zn1 Zn 0.5000 0.47523(6) 0.2500
Cl1 Cl 0.62428(6) 0.67534(12) 0.20142(4)
N1 N 0.45231(15) 0.2933(3) 0.15401(11)
N2 N 0.37084(14) 0.0812(3) 0.06614(11)
C1 C 0.38454(18) 0.1419(4) 0.14535(14)
H1 H 0.3506 0.0842 0.1878
C2 C 0.4850(2) 0.3299(4) 0.07706(15)
H2 H 0.5341 0.4274 0.0648
C3 C 0.4350(2) 0.2028(4) 0.02255(15)
H3 H 0.4422 0.1978 -0.0333
C4 C 0.30781(18) -0.0863(4) 0.03321(14)
C5 C 0.2728(2) -0.0807(4) -0.04871(15)
H4 H 0.2882 0.0330 -0.0811
C6 C 0.28494(19) -0.2555(4) 0.08161(15)
H5 H 0.3084 -0.2588 0.1362
Zn1F Zn 0.0000 -0.97523(6) -0.2500
Cl1A Cl 0.37572(6) 0.67534(12) 0.29858(4)
N1F N 0.04769(15) -0.7933(3) -0.15401(11)
N1A N 0.54769(15) 0.2933(3) 0.34599(11)
N2F N 0.12916(14) -0.5812(3) -0.06614(11)
C1F C 0.11546(18) -0.6419(4) -0.14535(14)
H1F H 0.1494 -0.5842 -0.1878
C2F C 0.0150(2) -0.8299(4) -0.07706(15)
H2F H -0.0341 -0.9274 -0.0648
C3F C 0.0650(2) -0.7028(4) -0.02255(15)
H3F H 0.0578 -0.6978 0.0333
C4F C 0.19219(18) -0.4137(4) -0.03321(14)
C5F C 0.2272(2) -0.4193(4) 0.04871(15)
H4F H 0.2118 -0.5330 0.0811
C6F C 0.21506(19) -0.2445(4) -0.08161(15)
H5F H 0.1916 -0.2412 -0.1362
loop_
_geom_bond_atom_site_label_1
_geom_bond_atom_site_label_2
_geom_bond_site_symmetry_1
_geom_bond_site_symmetry_2
Zn1 Cl1 1_555 1_555
N1 Zn1 1_555 1_555
N2 C1 1_555 1_555
C1 N1 1_555 1_555
H1 C1 1_555 1_555
C2 N1 1_555 1_555
H2 C2 1_555 1_555
C3 N2 1_555 1_555
H3 C3 1_555 1_555
C4 N2 1_555 1_555
C5 C4 1_555 1_555
H4 C5 1_555 1_555
C6 C4 1_555 1_555
H5 C6 1_555 1_555
Zn1F N1F 1_555 1_555
Cl1A Zn1 1_555 1_555
N1F C1F 1_555 1_555
N1A Zn1 1_555 1_555
N2F C1F 1_555 1_555
C1F H1F 1_555 1_555
C2F N1F 1_555 1_555
H2F C2F 1_555 1_555
C3F N2F 1_555 1_555
H3F C3F 1_555 1_555
C4F N2F 1_555 1_555
C5F C6 1_555 1_555
H4F C5F 1_555 1_555
C6F C5 1_555 1_555
H5F C6F 1_555 1_555
C2 C3 1_555 1_555
C2F C3F 1_555 1_555
C4F C5F 1_555 1_555
C4F C6F 1_555 1_555

#END
