
#######################################################################
#
#                 Cambridge Crystallographic Data Centre
#                                CCDC 
#
#######################################################################
#
# If this CIF has been generated from an entry in the Cambridge 
# Structural Database, then it will include bibliographic, chemical, 
# crystal, experimental, refinement or atomic coordinate data resulting 
# from the CCDC's data processing and validation procedures.
#
#######################################################################

data_WUZWAQ
_symmetry_cell_setting           triclinic
_symmetry_space_group_name_H-M   'P -1'
_symmetry_Int_Tables_number      2
_space_group_name_Hall           '-P 1'
loop_
_symmetry_equiv_pos_site_id
_symmetry_equiv_pos_as_xyz
1 x,y,z
2 -x,-y,-z
_cell_length_a                   6.397(3)
_cell_length_b                   9.384(5)
_cell_length_c                   16.409(8)
_cell_angle_alpha                98.067(5)
_cell_angle_beta                 100.859(5)
_cell_angle_gamma                101.274(5)
_cell_volume                     932.53
loop_
_atom_site_label
_atom_site_type_symbol
_atom_site_fract_x
_atom_site_fract_y
_atom_site_fract_z
Zn1 Zn 0.71632(5) 0.09770(4) 0.66833(2)
O1 O 0.4196(3) 0.1252(2) 0.59395(14)
H1 H 0.3260 0.0479 0.5847
O2 O 0.5203(3) -0.1236(2) 0.69454(14)
O3 O 0.6651(3) -0.1106(2) 0.58459(13)
N1 N 0.9708(4) 0.0659(3) 0.76912(15)
N2 N 0.6579(4) 0.2190(3) 0.77760(15)
N3 N 0.9142(5) 0.3624(3) 1.07957(17)
C1 C 1.1058(5) 0.1251(3) 0.92035(18)
N4 N 1.2336(5) 0.1937(3) 1.07170(17)
C2 C 0.9630(4) 0.1335(3) 0.84604(18)
C3 C 0.9326(5) 0.2869(3) 1.00470(19)
C4 C 0.7948(5) 0.2178(3) 0.85096(18)
C5 C 0.5054(5) 0.2965(3) 0.7799(2)
H2 H 0.4108 0.2974 0.7295
C6 C 0.7811(5) 0.2942(3) 0.92828(19)
C7 C 1.0920(5) 0.2042(3) 1.00158(18)
C8 C 0.1651(5) -0.5736(3) 0.59565(19)
H3 H 0.0786 -0.5716 0.5407
H4 H 0.2742 -0.6291 0.5865
C9 C 0.5487(5) -0.1836(3) 0.6267(2)
C10 C 0.0173(5) -0.6549(3) 0.6441(2)
C11 C 0.6172(5) 0.3738(3) 0.9281(2)
H5 H 0.6016 0.4249 0.9786
C12 C 1.2673(5) -0.0301(4) 0.8352(2)
H6 H 1.3682 -0.0879 0.8294
C13 C 0.2817(6) -0.4167(3) 0.6374(2)
H7 H 0.3581 -0.4168 0.6944
H8 H 0.1738 -0.3578 0.6414
C14 C 1.2606(5) 0.0399(3) 0.9126(2)
H9 H 1.3586 0.0314 0.9604
C15 C 0.4807(5) 0.3765(4) 0.8541(2)
H10 H 0.3733 0.4306 0.8532
C16 C 0.4442(5) -0.3449(3) 0.5904(2)
H11 H 0.5587 -0.3992 0.5907
H12 H 0.3701 -0.3532 0.5321
C17 C 1.1200(5) -0.0139(3) 0.7642(2)
H13 H 1.1268 -0.0610 0.7113
C18 C 1.0537(6) 0.3505(4) 1.1468(2)
H14 H 1.0475 0.3999 1.1992
C19 C 1.2114(6) 0.2665(4) 1.1429(2)
H15 H 1.3045 0.2621 1.1929
O4 O -0.1002(3) -0.7811(2) 0.60661(13)
O5 O 0.0269(5) -0.6048(3) 0.71797(17)
H16 H 0.432(6) 0.129(4) 0.534(2)
Zn1_2 Zn -0.28368(5) -0.90230(4) 0.66833(2)
O4_2 O 0.8998(3) 0.2189(2) 0.60661(13)
O6 O 0.9119(4) 0.1180(3) 0.44343(17)
H17 H 0.923(6) 0.152(4) 0.492(2)
H18 H 1.048(6) 0.128(4) 0.446(2)
loop_
_geom_bond_atom_site_label_1
_geom_bond_atom_site_label_2
_geom_bond_site_symmetry_1
_geom_bond_site_symmetry_2
Zn1 O1 1_555 1_555
O1 H1 1_555 1_555
O2 Zn1 1_555 1_555
O3 Zn1 1_555 1_555
N1 Zn1 1_555 1_555
N2 Zn1 1_555 1_555
N3 C3 1_555 1_555
C1 C2 1_555 1_555
N4 C7 1_555 1_555
C2 N1 1_555 1_555
C3 C6 1_555 1_555
C4 N2 1_555 1_555
C5 N2 1_555 1_555
H2 C5 1_555 1_555
C6 C4 1_555 1_555
C7 C1 1_555 1_555
C8 H3 1_555 1_555
H4 C8 1_555 1_555
C9 O2 1_555 1_555
C10 C8 1_555 1_555
C11 C6 1_555 1_555
H5 C11 1_555 1_555
C12 H6 1_555 1_555
C13 C8 1_555 1_555
H7 C13 1_555 1_555
H8 C13 1_555 1_555
C14 C1 1_555 1_555
H9 C14 1_555 1_555
C15 C5 1_555 1_555
H10 C15 1_555 1_555
C16 C9 1_555 1_555
H11 C16 1_555 1_555
H12 C16 1_555 1_555
C17 N1 1_555 1_555
H13 C17 1_555 1_555
C18 N3 1_555 1_555
H14 C18 1_555 1_555
C19 N4 1_555 1_555
H15 C19 1_555 1_555
O4 C10 1_555 1_555
O5 C10 1_555 1_555
H16 O1 1_555 1_555
O6 H17 1_555 1_555
H18 O6 1_555 1_555
Zn1_2 O4 1_555 1_555
O4_2 Zn1 1_555 1_555
O3 C9 1_555 1_555
C2 C4 1_555 1_555
C3 C7 1_555 1_555
C11 C15 1_555 1_555
C12 C14 1_555 1_555
C12 C17 1_555 1_555
C13 C16 1_555 1_555
C18 C19 1_555 1_555

#END
