
#######################################################################
#
#                 Cambridge Crystallographic Data Centre
#                                CCDC 
#
#######################################################################
#
# If this CIF has been generated from an entry in the Cambridge 
# Structural Database, then it will include bibliographic, chemical, 
# crystal, experimental, refinement or atomic coordinate data resulting 
# from the CCDC's data processing and validation procedures.
#
#######################################################################

data_WUZYEW
_symmetry_cell_setting           triclinic
_symmetry_space_group_name_H-M   'P -1'
_symmetry_Int_Tables_number      2
_space_group_name_Hall           '-P 1'
loop_
_symmetry_equiv_pos_site_id
_symmetry_equiv_pos_as_xyz
1 x,y,z
2 -x,-y,-z
_cell_length_a                   6.150(3)
_cell_length_b                   10.679(6)
_cell_length_c                   11.214(6)
_cell_angle_alpha                69.99(3)
_cell_angle_beta                 79.64(2)
_cell_angle_gamma                89.74(2)
_cell_volume                     679.452
loop_
_atom_site_label
_atom_site_type_symbol
_atom_site_fract_x
_atom_site_fract_y
_atom_site_fract_z
C1 C 0.6917(6) 1.1675(4) 0.0453(3)
C2 C 0.7911(7) 1.3067(4) 0.0028(4)
H1 H 0.7026 1.3681 0.0269
C3 C 0.9922(7) 1.3525(4) -0.0657(4)
H2 H 1.0311 1.4423 -0.0853
C4 C 1.1596(6) 1.2717(4) -0.1134(3)
C5 C 0.2343(6) 0.6379(4) 0.4136(3)
C6 C 0.0980(7) 0.5175(4) 0.5083(4)
H3 H 0.1523 0.4658 0.5807
O1 O 0.6917(5) 1.0926(3) 0.1584(3)
O2 O 0.6003(5) 1.1329(4) -0.0303(3)
O3 O 1.1332(4) 1.1467(3) -0.0770(3)
O4 O 1.3316(5) 1.3327(3) -0.1921(3)
O5 O 0.4186(5) 0.6652(3) 0.4363(3)
O6 O 0.1671(4) 0.7103(3) 0.3142(3)
O7 O 0.8126(4) 0.8515(3) 0.3427(3)
H4 H 0.8962 0.7909 0.3325
H5 H 0.8156 0.8534 0.4176
O8 O 0.3684(5) 0.9438(3) 0.4042(3)
H6 H 0.3148 1.0200 0.3882
H7 H 0.3346 0.9100 0.4861
O9 O 0.1952(4) 1.0193(3) 0.1778(3)
H8 H 0.0669 0.9933 0.2236
H9 H 0.1633 1.0477 0.1027
Sm1 Sm 0.50414(3) 0.869449(17) 0.223642(16)
C1A C 0.3083(6) 0.8325(4) -0.0453(3)
C2A C 0.2089(7) 0.6933(4) -0.0028(4)
H1A H 0.2974 0.6319 -0.0269
C3A C 0.0078(7) 0.6475(4) 0.0657(4)
H2A H -0.0311 0.5577 0.0853
C4A C -0.1596(6) 0.7283(4) 0.1134(3)
C5A C -0.2343(6) 0.3621(4) 0.5864(3)
C6A C -0.0980(7) 0.4825(4) 0.4917(4)
H3A H -0.1523 0.5342 0.4193
O1A O 0.3083(5) 0.9074(3) -0.1584(3)
O2A O 0.3997(5) 0.8671(4) 0.0303(3)
O3A O -0.1332(4) 0.8533(3) 0.0770(3)
O3A_2 O 0.8668(4) 0.8533(3) 0.0770(3)
O3_2 O 0.1332(4) 1.1467(3) -0.0770(3)
O4A O -0.3316(5) 0.6673(3) 0.1921(3)
O4A_2 O 0.6684(5) 0.6673(3) 0.1921(3)
O4_2 O 0.3316(5) 1.3327(3) -0.1921(3)
O5A O -0.4186(5) 0.3348(3) 0.5637(3)
O5A_2 O 0.5814(5) 1.3348(3) -0.4363(3)
O6A O -0.1671(4) 0.2897(3) 0.6858(3)
O6A_2 O 0.8329(4) 1.2897(3) -0.3142(3)
O7A O 0.1874(4) 1.1485(3) -0.3427(3)
H4A H 0.1038 1.2091 -0.3325
H5A H 0.1844 1.1466 -0.4176
O8A O 0.6316(5) 1.0562(3) -0.4042(3)
H6A H 0.6852 0.9800 -0.3882
H7A H 0.6654 1.0900 -0.4861
O9A O 0.8048(4) 0.9807(3) -0.1778(3)
H8A H 0.9331 1.0067 -0.2236
H9A H 0.8367 0.9523 -0.1027
Sm1A Sm 0.49586(3) 1.130551(17) -0.223642(16)
Sm1A_2 Sm 1.49586(3) 1.130551(17) -0.223642(16)
Sm1A_3 Sm -0.50414(3) 0.130551(17) 0.776358(16)
Sm1_2 Sm -0.49586(3) 0.869449(17) 0.223642(16)
O10 O 0.8053(6) 0.1975(3) 0.3360(3)
H10 H 0.7981 0.1545 0.2853
H11 H 0.7485 0.2727 0.3128
O11 O 0.2212(5) 0.1916(3) 0.3961(3)
H12 H 0.3085 0.2599 0.3771
H13 H 0.1137 0.2035 0.3560
O12 O 0.5308(6) 0.4066(3) 0.3112(3)
H14 H 0.5696 0.4872 0.2639
H15 H 0.5062 0.4142 0.3894
loop_
_geom_bond_atom_site_label_1
_geom_bond_atom_site_label_2
_geom_bond_site_symmetry_1
_geom_bond_site_symmetry_2
C1 C2 1_555 1_555
C2 H1 1_555 1_555
C3 C2 1_555 1_555
H2 C3 1_555 1_555
C4 C3 1_555 1_555
C5 C6 1_555 1_555
C6 H3 1_555 1_555
O1 C1 1_555 1_555
O2 C1 1_555 1_555
O3 C4 1_555 1_555
O4 C4 1_555 1_555
O5 C5 1_555 1_555
O6 C5 1_555 1_555
O7 H4 1_555 1_555
H5 O7 1_555 1_555
O8 H6 1_555 1_555
H7 O8 1_555 1_555
O9 H8 1_555 1_555
H9 O9 1_555 1_555
Sm1 O1 1_555 1_555
O10 H10 1_555 1_555
H11 O10 1_555 1_555
O11 H12 1_555 1_555
H13 O11 1_555 1_555
O12 H14 1_555 1_555
H15 O12 1_555 1_555
C1A C2A 1_555 1_555
C2A H1A 1_555 1_555
C3A C2A 1_555 1_555
H2A C3A 1_555 1_555
C4A C3A 1_555 1_555
C5A C6A 1_555 1_555
C6A C6 1_555 1_555
H3A C6A 1_555 1_555
O1A C1A 1_555 1_555
O2A Sm1 1_555 1_555
O3A C4A 1_555 1_555
O3A_2 Sm1 1_555 1_555
O3_2 Sm1A 1_555 1_555
O4A C4A 1_555 1_555
O4A_2 Sm1 1_555 1_555
O4_2 Sm1A 1_555 1_555
O5A C5A 1_555 1_555
O5A_2 Sm1A 1_555 1_555
O6A C5A 1_555 1_555
O6A_2 Sm1A 1_555 1_555
O7A H4A 1_555 1_555
H5A O7A 1_555 1_555
O8A H6A 1_555 1_555
H7A O8A 1_555 1_555
O9A H8A 1_555 1_555
H9A O9A 1_555 1_555
Sm1A O2 1_555 1_555
Sm1A_2 O3 1_555 1_555
Sm1A_3 O5A 1_555 1_555
Sm1_2 O3A 1_555 1_555
O4 Sm1A_2 1_555 1_555
O5 Sm1 1_555 1_555
O6 Sm1 1_555 1_555
O7 Sm1 1_555 1_555
O8 Sm1 1_555 1_555
O9 Sm1 1_555 1_555
C1A O2A 1_555 1_555
O1A Sm1A 1_555 1_555
O4A Sm1_2 1_555 1_555
O6A Sm1A_3 1_555 1_555
O7A Sm1A 1_555 1_555
O8A Sm1A 1_555 1_555
O9A Sm1A 1_555 1_555

#END
