
#######################################################################
#
#                 Cambridge Crystallographic Data Centre
#                                CCDC 
#
#######################################################################
#
# If this CIF has been generated from an entry in the Cambridge 
# Structural Database, then it will include bibliographic, chemical, 
# crystal, experimental, refinement or atomic coordinate data resulting 
# from the CCDC's data processing and validation procedures.
#
#######################################################################

data_XABGOY
_symmetry_cell_setting           orthorhombic
_symmetry_space_group_name_H-M   'P 21 21 21'
_symmetry_Int_Tables_number      19
_space_group_name_Hall           'P 2ac 2ab'
loop_
_symmetry_equiv_pos_site_id
_symmetry_equiv_pos_as_xyz
1 x,y,z
2 1/2-x,-y,1/2+z
3 1/2+x,1/2-y,-z
4 -x,1/2+y,1/2-z
_cell_length_a                   6.4192(6)
_cell_length_b                   9.8561(8)
_cell_length_c                   20.7058(6)
_cell_angle_alpha                90
_cell_angle_beta                 90
_cell_angle_gamma                90
_cell_volume                     1310.02
loop_
_atom_site_label
_atom_site_type_symbol
_atom_site_fract_x
_atom_site_fract_y
_atom_site_fract_z
Cu1 Cu 0.73150(7) 0.86731(3) 0.495749(16)
Cl1 Cl 0.77737(16) 0.65085(7) 0.52125(4)
N1 N 0.7280(4) 1.0598(2) 0.47500(12)
N2 N 0.7790(4) 0.8614(2) 0.39898(11)
C1 C 0.7816(6) 0.9796(3) 0.37313(14)
O1 O 0.7101(4) 0.9464(2) 0.58402(11)
C2 C 0.7456(6) 1.0986(3) 0.41352(15)
C3 C 0.7138(5) 1.1473(3) 0.52287(15)
O2 O 0.7004(5) 1.1442(3) 0.63695(12)
C4 C 0.7380(6) 1.2342(3) 0.39689(16)
H1 H 0.7463 1.2622 0.3541
C5 C 0.7060(6) 1.0760(3) 0.58797(16)
O3 O 0.8290(4) 0.9904(2) 0.31104(11)
C6 C 0.8958(6) 0.8536(4) 0.29163(17)
H2 H 1.0454 0.8500 0.2853
H3 H 0.8275 0.8260 0.2520
C7 C 0.7096(5) 1.2858(3) 0.51075(17)
H4 H 0.7041 1.3489 0.5441
C8 C 0.7114(10) 0.5530(4) 0.2914(2)
H5 H 0.6008 0.4875 0.2894
H6 H 0.8341 0.5109 0.3087
H7 H 0.7403 0.5865 0.2488
C9 C 0.7190(6) 1.3276(3) 0.44678(18)
H8 H 0.7115 1.4195 0.4368
C10 C 0.4545(7) 0.7412(4) 0.3074(2)
H9 H 0.3985 0.8032 0.3387
H10 H 0.3503 0.6756 0.2960
H11 H 0.4961 0.7904 0.2696
C11 C 0.6426(6) 0.6689(3) 0.33535(16)
H12 H 0.5994 0.6300 0.3768
C12 C 0.8285(6) 0.7619(3) 0.34819(15)
H13 H 0.9472 0.7064 0.3619
Cu1B Cu 1.23150(7) 0.63269(3) 0.504251(16)
Cl1B Cl 0.27737(16) 0.84915(7) 0.47875(4)
loop_
_geom_bond_atom_site_label_1
_geom_bond_atom_site_label_2
_geom_bond_site_symmetry_1
_geom_bond_site_symmetry_2
Cu1 Cl1 1_555 1_555
Cl1 Cu1B 1_555 1_555
N1 Cu1 1_555 1_555
N2 Cu1 1_555 1_555
C1 N2 1_555 1_555
O1 Cu1 1_555 1_555
C2 N1 1_555 1_555
C3 N1 1_555 1_555
O2 C5 1_555 1_555
C4 C2 1_555 1_555
H1 C4 1_555 1_555
C5 O1 1_555 1_555
O3 C1 1_555 1_555
C6 O3 1_555 1_555
H2 C6 1_555 1_555
H3 C6 1_555 1_555
C7 C3 1_555 1_555
H4 C7 1_555 1_555
C8 H5 1_555 1_555
H6 C8 1_555 1_555
H7 C8 1_555 1_555
C9 C4 1_555 1_555
H8 C9 1_555 1_555
C10 H9 1_555 1_555
H10 C10 1_555 1_555
H11 C10 1_555 1_555
C11 C8 1_555 1_555
H12 C11 1_555 1_555
C12 N2 1_555 1_555
H13 C12 1_555 1_555
Cl1B Cu1 1_555 1_555
C1 C2 1_555 1_555
C3 C5 1_555 1_555
C6 C12 1_555 1_555
C7 C9 1_555 1_555
C10 C11 1_555 1_555
C11 C12 1_555 1_555

#END
