
#######################################################################
#
#                 Cambridge Crystallographic Data Centre
#                                CCDC 
#
#######################################################################
#
# If this CIF has been generated from an entry in the Cambridge 
# Structural Database, then it will include bibliographic, chemical, 
# crystal, experimental, refinement or atomic coordinate data resulting 
# from the CCDC's data processing and validation procedures.
#
#######################################################################

data_XABKIW01
_symmetry_cell_setting           triclinic
_symmetry_space_group_name_H-M   'P -1'
_symmetry_Int_Tables_number      2
_space_group_name_Hall           '-P 1'
loop_
_symmetry_equiv_pos_site_id
_symmetry_equiv_pos_as_xyz
1 x,y,z
2 -x,-y,-z
_cell_length_a                   7.8756(6)
_cell_length_b                   10.7284(9)
_cell_length_c                   11.2127(8)
_cell_angle_alpha                116.097(2)
_cell_angle_beta                 93.149(2)
_cell_angle_gamma                110.295(3)
_cell_volume                     773.39
loop_
_atom_site_label
_atom_site_type_symbol
_atom_site_fract_x
_atom_site_fract_y
_atom_site_fract_z
Ag1 Ag 0.29148(3) 0.43357(2) 0.410970(16)
C1 C 0.2450(4) 0.0908(3) 0.2181(2)
H1 H 0.2451 0.0863 0.2990
C2 C 0.2304(4) -0.0389(3) 0.0993(2)
H2 H 0.2194 -0.1265 0.1024
C3 C 0.2325(3) -0.0355(3) -0.0258(2)
C4 C 0.2446(4) 0.1020(3) -0.0209(2)
H3 H 0.2440 0.1098 -0.1003
C5 C 0.2573(4) 0.2254(3) 0.1019(3)
H4 H 0.2649 0.3136 0.1014
C6 C 0.1833(3) -0.3038(3) -0.4018(2)
H5 H 0.1496 -0.3113 -0.4863
C7 C 0.1753(3) -0.1840(3) -0.2851(2)
H6 H 0.1371 -0.1145 -0.2929
C8 C 0.2256(3) -0.1692(3) -0.1552(2)
C9 C 0.2741(4) -0.2834(3) -0.1531(2)
H7 H 0.3031 -0.2812 -0.0705
C10 C 0.2786(4) -0.4000(3) -0.2748(2)
H8 H 0.3111 -0.4736 -0.2704
N1 N 0.2590(3) 0.2228(2) 0.22243(19)
N2 N 0.2376(3) -0.4104(2) -0.39910(18)
Ag1_2 Ag 0.29148(3) -0.56643(2) -0.589030(16)
N2_2 N 0.2376(3) 0.5896(2) 0.60090(18)
C11 C 0.4568(4) 0.6986(3) 0.3446(2)
C12 C 0.5280(4) 0.8446(3) 0.3303(3)
H9 H 0.659(4) 0.880(4) 0.342(3)
H10 H 0.469(4) 0.820(3) 0.242(3)
C13 C 0.4610(6) 0.9672(4) 0.4239(4)
H11 H 0.4982 1.0497 0.4024
H12 H 0.3256 0.9217 0.4036
O1 O 0.2932(3) 0.5984(2) 0.27842(19)
O3 O 0.5627(3) 0.6842(2) 0.4212(2)
C11A C 0.5432(4) 1.3014(3) 0.6554(2)
C12A C 0.4720(4) 1.1554(3) 0.6697(3)
H9A H 0.341(4) 1.120(4) 0.658(3)
H10A H 0.531(4) 1.180(3) 0.758(3)
C13A C 0.5390(6) 1.0328(4) 0.5761(4)
H11A H 0.5018 0.9503 0.5976
H12A H 0.6744 1.0783 0.5964
O1A O 0.7068(3) 1.4016(2) 0.72158(19)
O3A O 0.4373(3) 1.3158(2) 0.5788(2)
O2 O 0.3242(3) 0.5098(3) -0.0045(2)
H14 H 0.2190 0.4502 -0.0620
H15 H 0.3977 0.4653 -0.0216
O4 O -0.0166(3) 0.3102(3) -0.2071(2)
H17 H -0.0852 0.3527 -0.2173
H18 H -0.0191 0.2436 -0.2857
O5 O 0.0534(3) 0.1555(3) -0.4659(2)
H20 H 0.0361 0.0650 -0.4862
H21 H 0.1617 0.2043 -0.4704
H13? H 0.3090 0.5326 0.0758
H16? H 0.0926 0.3743 -0.1575
H19? H 0.0393 0.2004 -0.3856
C14? C 0.5828(16) 0.9949(11) 0.4705(11)
H22? H 0.6742 0.9995 0.5357
H23? H 0.6406 1.0821 0.4571
loop_
_geom_bond_atom_site_label_1
_geom_bond_atom_site_label_2
_geom_bond_site_symmetry_1
_geom_bond_site_symmetry_2
Ag1 N1 1_555 1_555
C1 H1 1_555 1_555
C2 C1 1_555 1_555
H2 C2 1_555 1_555
C3 C2 1_555 1_555
C4 C3 1_555 1_555
H3 C4 1_555 1_555
C5 C4 1_555 1_555
H4 C5 1_555 1_555
C6 H5 1_555 1_555
C7 C6 1_555 1_555
H6 C7 1_555 1_555
C8 C3 1_555 1_555
C9 C8 1_555 1_555
H7 C9 1_555 1_555
C10 C9 1_555 1_555
H8 C10 1_555 1_555
C11 C12 1_555 1_555
C12 H9 1_555 1_555
H10 C12 1_555 1_555
C13 C12 1_555 1_555
H11 C13 1_555 1_555
H12 C13 1_555 1_555
N1 C1 1_555 1_555
N2 C6 1_555 1_555
O1 C11 1_555 1_555
O2 H14 1_555 1_555
H15 O2 1_555 1_555
O3 C11 1_555 1_555
O4 H17 1_555 1_555
H18 O4 1_555 1_555
O5 H20 1_555 1_555
H21 O5 1_555 1_555
Ag1_2 N2 1_555 1_555
C11A C12A 1_555 1_555
C12A H9A 1_555 1_555
H10A C12A 1_555 1_555
C13A C13 1_555 1_555
H11A C13A 1_555 1_555
H12A C13A 1_555 1_555
N2_2 Ag1 1_555 1_555
O1A C11A 1_555 1_555
O3A C11A 1_555 1_555
C5 N1 1_555 1_555
C7 C8 1_555 1_555
C10 N2 1_555 1_555
C12A C13A 1_555 1_555

#END
