
#######################################################################
#
#                 Cambridge Crystallographic Data Centre
#                                CCDC 
#
#######################################################################
#
# If this CIF has been generated from an entry in the Cambridge 
# Structural Database, then it will include bibliographic, chemical, 
# crystal, experimental, refinement or atomic coordinate data resulting 
# from the CCDC's data processing and validation procedures.
#
#######################################################################

data_XABKUI
_symmetry_cell_setting           monoclinic
_symmetry_space_group_name_H-M   'P m'
_symmetry_Int_Tables_number      6
_space_group_name_Hall           'P -2y'
loop_
_symmetry_equiv_pos_site_id
_symmetry_equiv_pos_as_xyz
1 x,y,z
2 x,-y,z
_cell_length_a                   11.4429(11)
_cell_length_b                   9.3920(10)
_cell_length_c                   14.3331(15)
_cell_angle_alpha                90
_cell_angle_beta                 102.3990(10)
_cell_angle_gamma                90
_cell_volume                     1504.47
loop_
_atom_site_label
_atom_site_type_symbol
_atom_site_fract_x
_atom_site_fract_y
_atom_site_fract_z
Ag2 Ag 1.46665(11) 0.0000 0.98717(10)
N3 N 1.6556(14) 0.0000 0.9866(11)
N4 N 2.2766(14) 0.0000 0.9870(10)
C23 C 1.7196(11) 0.1232(12) 0.9954(8)
H30 H 1.6818 0.2083 1.0041
C24 C 1.8392(11) 0.1251(14) 0.9920(8)
H31 H 1.8795 0.2116 0.9951
C25 C 1.8995(16) 0.0000 0.9839(12)
C26 C 2.2161(11) -0.1223(13) 0.9928(8)
H32 H 2.2578 -0.2079 0.9978
C27 C 2.0960(10) -0.1258(14) 0.9917(8)
H33 H 2.0584 -0.2125 0.9963
C28 C 2.0303(16) 0.0000 0.9836(13)
Ag2_2 Ag 2.46665(11) 0.0000 0.98717(10)
N4_2 N 1.2766(14) 0.0000 0.9870(10)
C23A C 1.7196(11) -0.1232(12) 0.9954(8)
H30A H 1.6818 -0.2083 1.0041
C24A C 1.8392(11) -0.1251(14) 0.9920(8)
H31A H 1.8795 -0.2116 0.9951
C26A C 2.2161(11) 0.1223(13) 0.9928(8)
H32A H 2.2578 0.2079 0.9978
C27A C 2.0960(10) 0.1258(14) 0.9917(8)
H33A H 2.0584 0.2125 0.9963
Ag3 Ag -0.37643(10) 0.0000 0.23145(8)
N5 N -0.5648(13) 0.0000 0.2405(10)
N6 N -1.1871(13) 0.0000 0.2326(11)
C29 C -0.6222(10) 0.1217(12) 0.2475(7)
H34 H -0.5799 0.2069 0.2523
C30 C -0.7427(10) 0.1249(12) 0.2480(8)
H35 H -0.7800 0.2112 0.2546
C31 C -0.8080(17) 0.0000 0.2387(14)
C32 C -1.1219(10) -0.1197(12) 0.2431(8)
H36 H -1.1603 -0.2050 0.2504
C33 C -1.0021(10) -0.1242(13) 0.2435(8)
H37 H -0.9636 -0.2118 0.2461
C34 C -0.9375(14) 0.0000 0.2403(11)
Ag3_2 Ag -1.37643(10) 0.0000 0.23145(8)
N6_2 N -0.1871(13) 0.0000 0.2326(11)
C29A C -0.6222(10) -0.1217(12) 0.2475(7)
H34A H -0.5799 -0.2069 0.2523
C30A C -0.7427(10) -0.1249(12) 0.2480(8)
H35A H -0.7800 -0.2112 0.2546
C32A C -1.1219(10) 0.1197(12) 0.2431(8)
H36A H -1.1603 0.2050 0.2504
C33A C -1.0021(10) 0.1242(13) 0.2435(8)
H37A H -0.9636 0.2118 0.2461
Ag4 Ag -0.71710(9) 0.0000 0.74160(8)
N7 N -0.9086(13) 0.0000 0.7348(11)
N8 N -1.5323(14) 0.0000 0.7325(11)
C35 C -0.9679(12) -0.1210(14) 0.7465(10)
H38 H -0.9247 -0.2052 0.7595
C36 C -1.0899(11) -0.1247(16) 0.7399(9)
H39 H -1.1284 -0.2116 0.7412
C37 C -1.1552(15) 0.0000 0.7313(12)
C38 C -1.4674(12) -0.1217(14) 0.7380(10)
H40 H -1.5058 -0.2078 0.7425
C39 C -1.3472(11) -0.1239(15) 0.7372(9)
H41 H -1.3074 -0.2108 0.7423
C40 C -1.2841(18) 0.0000 0.7291(14)
Ag4_2 Ag -1.71710(9) 0.0000 0.74160(8)
N8_2 N -0.5323(14) 0.0000 0.7325(11)
C35A C -0.9679(12) 0.1210(14) 0.7465(10)
H38A H -0.9247 0.2052 0.7595
C36A C -1.0899(11) 0.1247(16) 0.7399(9)
H39A H -1.1284 0.2116 0.7412
C38A C -1.4674(12) 0.1217(14) 0.7380(10)
H40A H -1.5058 0.2078 0.7425
C39A C -1.3472(11) 0.1239(15) 0.7372(9)
H41A H -1.3074 0.2108 0.7423
O1 O -0.3157(7) 0.6164(9) 0.3608(6)
O2 O -0.2573(10) 0.4363(13) 0.5747(7)
O3 O -0.1032(8) 0.5000 0.6795(6)
O4 O -0.0132(8) 0.5000 0.0170(6)
O5 O 0.1579(7) 0.5000 -0.0210(5)
O6 O 0.4023(5) 0.6195(7) 0.0812(4)
C1 C -0.2717(13) 0.5000 0.3785(9)
C2 C -0.1528(12) 0.5000 0.5957(10)
C3 C 0.0948(10) 0.5000 0.0385(8)
C4 C 0.3683(11) 0.5000 0.1029(9)
C5 C 0.0624(11) 0.5000 0.3813(8)
C6 C -0.0634(12) 0.5000 0.3564(9)
H20 H -0.1002 0.5000 0.2919
C7 C -0.1346(12) 0.5000 0.4222(9)
C8 C -0.0822(11) 0.5000 0.5204(8)
C9 C 0.0418(11) 0.5000 0.5447(9)
H21 H 0.0784 0.5000 0.6093
C10 C 0.1131(10) 0.5000 0.4806(8)
H22 H 0.1958 0.5000 0.5018
C11 C 0.1391(10) 0.5000 0.3098(8)
C12 C 0.0898(9) 0.5000 0.2134(8)
H23 H 0.0068 0.5000 0.1939
C13 C 0.1569(10) 0.5000 0.1440(8)
C14 C 0.2838(10) 0.5000 0.1719(8)
C15 C 0.3338(10) 0.5000 0.2685(8)
H24 H 0.4166 0.5000 0.2886
C16 C 0.2646(11) 0.5000 0.3352(9)
H25 H 0.3019 0.5000 0.3996
O1A O -0.3157(7) 0.3836(9) 0.3608(6)
O2A O -0.2573(10) 0.5637(13) 0.5747(7)
O6A O 0.4023(5) 0.3805(7) 0.0812(4)
O7 O 0.4616(5) 0.2945(7) 0.9205(4)
H1 H 0.4428 0.3220 0.9718
H2 H 0.5060 0.3576 0.9034
O8 O 0.2841(6) 0.3031(8) 0.7551(5)
H3 H 0.3400 0.2992 0.8049
H4 H 0.2322 0.3627 0.7651
O9 O 0.1196(8) 0.5000 0.7945(6)
H5 H 0.0468 0.5000 0.7650
H6 H 0.1223 0.5000 0.8542
O10 O 0.3572(9) 0.5000 0.6309(8)
H7 H 0.3404 0.5732 0.6604
H7A H 0.3404 0.4268 0.6604
O11 O 0.6070(10) 0.5000 0.8652(9)
H8 H 0.5827 0.5000 0.8050
O12 O 0.5361(6) 0.2957(8) 0.4784(6)
H10 H 0.5618 0.3093 0.4277
H11 H 0.5866 0.3318 0.5246
O13 O 0.5892(10) 0.5000 0.6753(8)
H13 H 0.5148 0.5000 0.6510
O14 O 0.6218(7) 0.2836(9) 0.1772(6)
H14 H 0.6385 0.3166 0.2337
H15 H 0.5538 0.3156 0.1492
O15 O 0.7798(15) 0.5000 0.1015(11)
Ag1 Ag -0.44070(11) 0.0000 0.48365(10)
N1 N -0.6299(15) 0.0000 0.4904(11)
N2 N -1.2536(13) 0.0000 0.4779(11)
C17 C -0.6887(10) -0.1222(13) 0.5000(8)
H26 H -0.6465 -0.2075 0.5067
C18 C -0.8087(10) -0.1248(13) 0.5003(8)
H27 H -0.8462 -0.2115 0.5052
C19 C -0.8747(14) 0.0000 0.4932(10)
C20 C -1.1884(10) 0.1195(13) 0.4887(9)
H28 H -1.2271 0.2052 0.4942
C21 C -1.0674(11) 0.1230(13) 0.4921(9)
H29 H -1.0282 0.2104 0.4964
C22 C -1.0031(14) 0.0000 0.4893(13)
Ag1_2 Ag -1.44070(11) 0.0000 0.48365(10)
N2_2 N -0.2536(13) 0.0000 0.4779(11)
C17A C -0.6887(10) 0.1222(13) 0.5000(8)
H26A H -0.6465 0.2075 0.5067
C18A C -0.8087(10) 0.1248(13) 0.5003(8)
H27A H -0.8462 0.2115 0.5052
C20A C -1.1884(10) -0.1195(13) 0.4887(9)
H28A H -1.2271 -0.2052 0.4942
C21A C -1.0674(11) -0.1230(13) 0.4921(9)
H29A H -1.0282 -0.2104 0.4964
H9? H 0.6815 0.4817 0.8769
H12? H 0.6280 0.4752 0.6336
H16? H 0.8386 0.4762 0.0774
H17? H 0.7470 0.5749 0.1173
O16? O 0.8344(10) 0.4495(13) 0.8509(8)
H18? H 0.8603 0.4712 0.8014
H19? H 0.8874 0.5285 0.9001
loop_
_geom_bond_atom_site_label_1
_geom_bond_atom_site_label_2
_geom_bond_site_symmetry_1
_geom_bond_site_symmetry_2
Ag1 N1 1_555 1_555
Ag2 N3 1_555 1_555
Ag3 N5 1_555 1_555
Ag4 N7 1_555 1_555
N1 C17 1_555 1_555
N2 C20 1_555 1_555
N3 C23 1_555 1_555
N4 C26 1_555 1_555
N5 C29 1_555 1_555
N6 C32 1_555 1_555
N7 C35 1_555 1_555
N8 C38 1_555 1_555
O1 C1 1_555 1_555
O2 C2 1_555 1_555
O3 C2 1_555 1_555
O4 C3 1_555 1_555
O5 C3 1_555 1_555
O6 C4 1_555 1_555
O7 H1 1_555 1_555
H2 O7 1_555 1_555
O8 H3 1_555 1_555
H4 O8 1_555 1_555
O9 H5 1_555 1_555
H6 O9 1_555 1_555
O10 H7 1_555 1_555
O11 H8 1_555 1_555
O12 H10 1_555 1_555
H11 O12 1_555 1_555
O13 H13 1_555 1_555
O14 H14 1_555 1_555
H15 O14 1_555 1_555
C1 C7 1_555 1_555
C2 C8 1_555 1_555
C3 C13 1_555 1_555
C4 C14 1_555 1_555
C5 C6 1_555 1_555
C6 H20 1_555 1_555
C7 C6 1_555 1_555
C8 C7 1_555 1_555
C9 C8 1_555 1_555
H21 C9 1_555 1_555
C10 C5 1_555 1_555
H22 C10 1_555 1_555
C11 C5 1_555 1_555
C12 C11 1_555 1_555
H23 C12 1_555 1_555
C13 C12 1_555 1_555
C14 C13 1_555 1_555
C15 C14 1_555 1_555
H24 C15 1_555 1_555
C16 C11 1_555 1_555
H25 C16 1_555 1_555
C17 H26 1_555 1_555
C18 C17 1_555 1_555
H27 C18 1_555 1_555
C19 C18 1_555 1_555
C20 H28 1_555 1_555
C21 C20 1_555 1_555
H29 C21 1_555 1_555
C22 C19 1_555 1_555
C23 H30 1_555 1_555
C24 C23 1_555 1_555
H31 C24 1_555 1_555
C25 C24 1_555 1_555
C26 H32 1_555 1_555
C27 C26 1_555 1_555
H33 C27 1_555 1_555
C28 C25 1_555 1_555
C29 H34 1_555 1_555
C30 C29 1_555 1_555
H35 C30 1_555 1_555
C31 C30 1_555 1_555
C32 H36 1_555 1_555
C33 C32 1_555 1_555
H37 C33 1_555 1_555
C34 C31 1_555 1_555
C35 H38 1_555 1_555
C36 C35 1_555 1_555
H39 C36 1_555 1_555
C37 C36 1_555 1_555
C38 H40 1_555 1_555
C39 C38 1_555 1_555
H41 C39 1_555 1_555
C40 C37 1_555 1_555
Ag1_2 N2 1_555 1_555
Ag2_2 N4 1_555 1_555
Ag3_2 N6 1_555 1_555
Ag4_2 N8 1_555 1_555
N2_2 Ag1 1_555 1_555
N4_2 Ag2 1_555 1_555
N6_2 Ag3 1_555 1_555
N8_2 Ag4 1_555 1_555
O1A C1 1_555 1_555
O2A O2 1_555 1_555
O6A C4 1_555 1_555
H7A O10 1_555 1_555
C17A N1 1_555 1_555
H26A C17A 1_555 1_555
C18A C19 1_555 1_555
H27A C18A 1_555 1_555
C20A N2 1_555 1_555
H28A C20A 1_555 1_555
C21A C22 1_555 1_555
H29A C21A 1_555 1_555
C23A N3 1_555 1_555
H30A C23A 1_555 1_555
C24A C25 1_555 1_555
H31A C24A 1_555 1_555
C26A N4 1_555 1_555
H32A C26A 1_555 1_555
C27A C28 1_555 1_555
H33A C27A 1_555 1_555
C29A N5 1_555 1_555
H34A C29A 1_555 1_555
C30A C31 1_555 1_555
H35A C30A 1_555 1_555
C32A N6 1_555 1_555
H36A C32A 1_555 1_555
C33A C34 1_555 1_555
H37A C33A 1_555 1_555
C35A N7 1_555 1_555
H38A C35A 1_555 1_555
C36A C37 1_555 1_555
H39A C36A 1_555 1_555
C38A N8 1_555 1_555
H40A C38A 1_555 1_555
C39A C40 1_555 1_555
H41A C39A 1_555 1_555
C2 O2A 1_555 1_555
C9 C10 1_555 1_555
C15 C16 1_555 1_555
C21 C22 1_555 1_555
C27 C28 1_555 1_555
C33 C34 1_555 1_555
C39 C40 1_555 1_555
C17A C18A 1_555 1_555
C20A C21A 1_555 1_555
C23A C24A 1_555 1_555
C26A C27A 1_555 1_555
C29A C30A 1_555 1_555
C32A C33A 1_555 1_555
C35A C36A 1_555 1_555
C38A C39A 1_555 1_555

#END
