
#######################################################################
#
#                 Cambridge Crystallographic Data Centre
#                                CCDC 
#
#######################################################################
#
# If this CIF has been generated from an entry in the Cambridge 
# Structural Database, then it will include bibliographic, chemical, 
# crystal, experimental, refinement or atomic coordinate data resulting 
# from the CCDC's data processing and validation procedures.
#
#######################################################################

data_XABVUS
_symmetry_cell_setting           monoclinic
_symmetry_space_group_name_H-M   'C 2/c'
_symmetry_Int_Tables_number      15
_space_group_name_Hall           '-C 2yn'
loop_
_symmetry_equiv_pos_site_id
_symmetry_equiv_pos_as_xyz
1 x,y,z
2 1/2+x,1/2+y,z
3 x,-y,1/2+z
4 1/2+x,1/2-y,1/2+z
5 -x,-y,-z
6 1/2-x,1/2-y,-z
7 -x,y,1/2-z
8 1/2-x,1/2+y,1/2-z
_cell_length_a                   9.2790(3)
_cell_length_b                   21.3646(9)
_cell_length_c                   7.4461(2)
_cell_angle_alpha                90
_cell_angle_beta                 123.738(2)
_cell_angle_gamma                90
_cell_volume                     1227.53
loop_
_atom_site_label
_atom_site_type_symbol
_atom_site_fract_x
_atom_site_fract_y
_atom_site_fract_z
Co1 Co 0.0000 0.36181(4) 0.2500
O1 O 0.1470(4) 0.42122(13) 0.4873(4)
O2 O 0.3591(4) 0.44764(13) 0.8161(4)
O3 O 0.0897(4) 0.30066(13) 0.1384(5)
O4 O 0.2045(4) 0.38362(14) 0.0844(5)
C1 C 0.3002(5) 0.4130(2) 0.6575(6)
C2 C 0.4069(5) 0.3593(2) 0.6575(6)
C3 C 0.1786(5) 0.3265(2) 0.0751(6)
C4 C 0.2520(7) 0.2838(2) -0.0199(9)
K1 K 0.5000 0.44895(6) 1.2500
K2 K 0.0000 0.46594(6) 0.7500
H1 H 0.3542(62) 0.3218(24) 0.6668(76)
H2 H 0.3853(67) 0.3614(22) 0.5347(82)
H3 H 0.1767(65) 0.2891(22) -0.1740(84)
H4 H 0.3631(67) 0.2968(22) 0.0358(78)
C2F C 0.5931(5) 0.3593(2) 0.8425(6)
C1F C 0.6998(5) 0.4130(2) 0.8425(6)
O1F O 0.8530(4) 0.42122(13) 1.0127(4)
O2F O 0.6409(4) 0.44764(13) 0.6839(4)
H1F H 0.6458(62) 0.3218(24) 0.8332(76)
H2F H 0.6147(67) 0.3614(22) 0.9653(82)
C4E C 0.2480(7) 0.2162(2) 0.0199(9)
C3E C 0.3214(5) 0.1735(2) -0.0751(6)
O3E O 0.4103(4) 0.19934(13) -0.1384(5)
O4E O 0.2955(4) 0.11638(14) -0.0844(5)
H3E H 0.3233(65) 0.2109(22) 0.1740(84)
H4E H 0.1369(67) 0.2032(22) -0.0358(78)
O1F_2 O -0.1470(4) 0.42122(13) 0.0127(4)
O3F O -0.0897(4) 0.30066(13) 0.3616(5)
K2B K 0.0000 0.53406(6) 0.2500
K1B K 0.5000 0.55105(6) 0.7500
K1_2 K 0.5000 0.44895(6) 0.2500
K2_2 K 0.0000 0.46594(6) -0.2500
O2B O 0.3591(4) 0.55236(13) 1.3161(4)
O2D O 0.6409(4) 0.55236(13) 1.1839(4)
O2F_2 O 0.6409(4) 0.44764(13) 1.6839(4)
O4_2 O 0.2045(4) 0.38362(14) 1.0844(5)
O4F O 0.7955(4) 0.38362(14) 1.4156(5)
K1B_2 K 0.5000 0.55105(6) 1.7500
K2_3 K 1.0000 0.46594(6) 1.7500
Co1B Co 0.0000 0.63819(4) 0.7500
O1B O 0.1470(4) 0.57878(13) 0.9873(4)
O1D O -0.1470(4) 0.57878(13) 0.5127(4)
O1F_3 O -0.1470(4) 0.42122(13) 1.0127(4)
O2F_3 O -0.3591(4) 0.44764(13) 0.6839(4)
O4F_2 O -0.2045(4) 0.38362(14) 0.4156(5)
K1_3 K -0.5000 0.44895(6) 0.2500
K2B_2 K 0.0000 0.53406(6) 1.2500
Co1_2 Co 1.0000 0.36181(4) 1.2500
K2_4 K 1.0000 0.46594(6) 0.7500
K2B_3 K 1.0000 0.53406(6) 1.2500
Co1C Co 0.5000 0.13819(4) -0.2500
K1C K 0.0000 0.05105(6) -0.2500
K2C K 0.5000 0.03406(6) 0.2500
loop_
_geom_bond_atom_site_label_1
_geom_bond_atom_site_label_2
_geom_bond_site_symmetry_1
_geom_bond_site_symmetry_2
Co1 O1 1_555 1_555
O1 C1 1_555 1_555
O2 C1 1_555 1_555
O3 Co1 1_555 1_555
O4 C3 1_555 1_555
C1 C2 1_555 1_555
C2 H1 1_555 1_555
C3 O3 1_555 1_555
C4 C3 1_555 1_555
K1 O2 1_555 1_555
K2 O1 1_555 1_555
H2 C2 1_555 1_555
H3 C4 1_555 1_555
H4 C4 1_555 1_555
C2F C2 1_555 1_555
C1F C2F 1_555 1_555
O1F C1F 1_555 1_555
O2F C1F 1_555 1_555
H1F C2F 1_555 1_555
H2F C2F 1_555 1_555
C4E C4 1_555 1_555
C3E C4E 1_555 1_555
O3E C3E 1_555 1_555
O4E C3E 1_555 1_555
H3E C4E 1_555 1_555
H4E C4E 1_555 1_555
O1F_2 Co1 1_555 1_555
O3F Co1 1_555 1_555
K2B Co1 1_555 1_555
K1B O2 1_555 1_555
K1_2 O4 1_555 1_555
K2_2 O4 1_555 1_555
O2B K1 1_555 1_555
O2D K1 1_555 1_555
O2F_2 K1 1_555 1_555
O4_2 K1 1_555 1_555
O4F K1 1_555 1_555
K1B_2 K1 1_555 1_555
K2_3 K1 1_555 1_555
Co1B K2 1_555 1_555
O1B K2 1_555 1_555
O1D K2 1_555 1_555
O1F_3 K2 1_555 1_555
O2F_3 K2 1_555 1_555
O4F_2 K2 1_555 1_555
K1_3 K2 1_555 1_555
K2B_2 K2 1_555 1_555
Co1_2 O1F 1_555 1_555
K2_4 O1F 1_555 1_555
K2B_3 O1F 1_555 1_555
Co1C O3E 1_555 1_555
K1C O4E 1_555 1_555
K2C O4E 1_555 1_555
O1 K2B 1_555 1_555
O2 K2 1_555 1_555
K1 K2 1_555 1_555
K1 K1B 1_555 1_555
K2 O4_2 1_555 1_555
K2 K2B 1_555 1_555
O2F K1_2 1_555 1_555
O2F K1B 1_555 1_555
O2F K2_4 1_555 1_555
O1F_2 K2_2 1_555 1_555
O1F_2 K2B 1_555 1_555
K2B O1D 1_555 1_555
K2B K1B 1_555 1_555
K2B K2_2 1_555 1_555
K1B O2D 1_555 1_555
K1B K1_2 1_555 1_555
K1B K2B_3 1_555 1_555
K1_2 K2_2 1_555 1_555
K1_2 K2_4 1_555 1_555
O2B K1B_2 1_555 1_555
O2B K2B_2 1_555 1_555
O2D K2B_3 1_555 1_555
O2F_2 K1B_2 1_555 1_555
O2F_2 K2_3 1_555 1_555
O4F K2_3 1_555 1_555
K1B_2 K2B_2 1_555 1_555
K2_3 K2B_3 1_555 1_555
Co1B O1B 1_555 1_555
Co1B O1D 1_555 1_555
O1B K2B_2 1_555 1_555
O1F_3 K2B_2 1_555 1_555
O2F_3 K1_3 1_555 1_555
O4F_2 K1_3 1_555 1_555
Co1_2 K2B_3 1_555 1_555
K2_4 K2B_3 1_555 1_555
K1C K2C 1_555 1_555

#END
