
#######################################################################
#
#                 Cambridge Crystallographic Data Centre
#                                CCDC 
#
#######################################################################
#
# If this CIF has been generated from an entry in the Cambridge 
# Structural Database, then it will include bibliographic, chemical, 
# crystal, experimental, refinement or atomic coordinate data resulting 
# from the CCDC's data processing and validation procedures.
#
#######################################################################

data_XACFAJ
_symmetry_cell_setting           hexagonal
_symmetry_space_group_name_H-M   'P 63'
_symmetry_Int_Tables_number      173
_space_group_name_Hall           'P 6c'
loop_
_symmetry_equiv_pos_site_id
_symmetry_equiv_pos_as_xyz
1 x,y,z
2 -y,x-y,z
3 -x+y,-x,z
4 -x,-y,1/2+z
5 y,-x+y,1/2+z
6 x-y,x,1/2+z
_cell_length_a                   11.528(2)
_cell_length_b                   11.528(2)
_cell_length_c                   15.168(7)
_cell_angle_alpha                90
_cell_angle_beta                 90
_cell_angle_gamma                120
_cell_volume                     1745.69
loop_
_atom_site_label
_atom_site_type_symbol
_atom_site_fract_x
_atom_site_fract_y
_atom_site_fract_z
Zn1 Zn 0.3333 0.6667 0.13592(6)
P1 P 0.0000 0.0000 0.23164(12)
C1 C 0.0895(4) 0.1666(4) 0.1798(3)
H1 H 0.1849(4) 0.1986(4) 0.1816(3)
H2 H 0.0631(4) 0.1582(4) 0.1184(3)
C2 C 0.0631(5) 0.2699(4) 0.2237(3)
H3 H -0.0328(5) 0.2350(4) 0.2271(3)
H4 H 0.0982(5) 0.2861(4) 0.2833(3)
C3 C 0.1276(4) 0.4009(3) 0.1730(3)
O1 O 0.2457(3) 0.4892(3) 0.1952(2)
O2 O 0.0664(3) 0.4158(3) 0.1121(2)
Zn2 Zn 0.0000 0.0000 0.38890(6)
P2 P 0.3333 0.6667 -0.01948(11)
C4 C 0.4931(3) 0.7164(4) -0.0708(3)
H5 H 0.5224(3) 0.6543(4) -0.0529(3)
H6 H 0.4811(3) 0.7093(4) -0.1343(3)
C5 C 0.6022(3) 0.8574(3) -0.0483(3)
H7 H 0.5812(3) 0.9212(3) -0.0751(3)
H8 H 0.6054(3) 0.8699(3) 0.0151(3)
C6 C 0.7375(3) 0.8842(4) -0.0806(3)
O3 O 0.8396(2) 0.9906(3) -0.0518(2)
O4 O 0.7464(3) 0.8085(3) -0.1345(3)
C1A C -0.1666(4) -0.0771(6) 0.1798(3)
H1A H -0.1986(4) -0.0137(6) 0.1816(3)
H2A H -0.1582(4) -0.0951(6) 0.1184(3)
C2A C -0.2699(4) -0.2068(6) 0.2237(3)
H3A H -0.2350(4) -0.2678(6) 0.2271(3)
H4A H -0.2861(4) -0.1879(6) 0.2833(3)
C3A C -0.4009(3) -0.2733(5) 0.1730(3)
O1A O -0.4892(3) -0.2435(4) 0.1952(2)
O2A O -0.4158(3) -0.3494(4) 0.1121(2)
C1B C 0.0771(6) -0.0895(4) 0.1798(3)
H1B H 0.0137(6) -0.1849(4) 0.1816(3)
H2B H 0.0951(6) -0.0631(4) 0.1184(3)
C2B C 0.2068(6) -0.0631(5) 0.2237(3)
H3B H 0.2678(6) 0.0328(5) 0.2271(3)
H4B H 0.1879(6) -0.0982(5) 0.2833(3)
C3B C 0.2733(5) -0.1276(4) 0.1730(3)
O1B O 0.2435(4) -0.2457(3) 0.1952(2)
O2B O 0.3494(4) -0.0664(3) 0.1121(2)
C4A C 0.2836(4) 0.7767(5) -0.0708(3)
H5A H 0.3457(4) 0.8681(5) -0.0529(3)
H6A H 0.2907(4) 0.7718(5) -0.1343(3)
C5A C 0.1426(3) 0.7448(4) -0.0483(3)
H7A H 0.0788(3) 0.6600(4) -0.0751(3)
H8A H 0.1301(3) 0.7355(4) 0.0151(3)
C6A C 0.1158(4) 0.8533(5) -0.0806(3)
O3A O 0.0094(3) 0.8490(4) -0.0518(2)
O4A O 0.1915(3) 0.9379(4) -0.1345(3)
C4B C 0.2233(5) 0.5069(3) -0.0708(3)
H5B H 0.1319(5) 0.4776(3) -0.0529(3)
H6B H 0.2282(5) 0.5189(3) -0.1343(3)
C5B C 0.2552(4) 0.3978(3) -0.0483(3)
H7B H 0.3400(4) 0.4188(3) -0.0751(3)
H8B H 0.2645(4) 0.3946(3) 0.0151(3)
C6B C 0.1467(5) 0.2625(3) -0.0806(3)
O3B O 0.1510(4) 0.1604(2) -0.0518(2)
O4B O 0.0621(4) 0.2536(3) -0.1345(3)
O1A_2 O 0.5108(3) 0.7565(4) 0.1952(2)
O1B_2 O 0.2435(4) 0.7543(3) 0.1952(2)
O3C O 0.1604(2) 0.0094(3) 0.4482(2)
O3D O -0.0094(3) 0.1510(4) 0.4482(2)
O3E O -0.1510(4) -0.1604(2) 0.4482(2)
Zn2C Zn 1.0000 1.0000 -0.11110(6)
Zn1_2 Zn -0.6667 -0.3333 0.13592(6)
Zn1_3 Zn 0.3333 -0.3333 0.13592(6)
Zn2C_2 Zn 0.0000 1.0000 -0.11110(6)
Zn2C_3 Zn 0.0000 0.0000 -0.11110(6)
N1 N 0.2239(16) 0.3839(19) 0.5187(17)
H9 H 0.1546(16) 0.3069(19) 0.4985(17)
H10 H 0.2807(16) 0.3646(19) 0.5472(17)
H11 H 0.1941(16) 0.4243(19) 0.5556(17)
H12 H 0.2662(16) 0.4397(19) 0.4734(17)
O6 O 0.4741(17) 0.3589(15) 0.1611(12)
H15 H 0.5073(17) 0.4485(15) 0.1469(12)
H16 H 0.5478(17) 0.3464(15) 0.1591(12)
O8 O 0.4224(8) 0.4394(9) 0.2872(8)
H19 H 0.3626(8) 0.4561(9) 0.2563(8)
H20 H 0.3659(8) 0.3570(9) 0.3133(8)
O9 O 0.3997(20) 0.5916(19) 0.4195(13)
H21 H 0.4069(20) 0.5403(19) 0.3748(13)
H22 H 0.3350(20) 0.5245(19) 0.4549(13)
O5? O 0.1934(40) 0.3687(44) 0.5371(33)
H13? H 0.1270(40) 0.2950(44) 0.5070(33)
H14? H 0.2648(40) 0.3628(44) 0.5604(33)
O7? O 0.5732(34) 0.3560(36) 0.1478(25)
H17? H 0.5295(34) 0.3816(36) 0.1881(25)
H18? H 0.5055(34) 0.2986(36) 0.1097(25)
O10? O 0.3945(19) 0.5027(23) 0.3521(13)
H23? H 0.3358(19) 0.5305(23) 0.3716(13)
H24? H 0.3527(19) 0.4099(23) 0.3561(13)
loop_
_geom_bond_atom_site_label_1
_geom_bond_atom_site_label_2
_geom_bond_site_symmetry_1
_geom_bond_site_symmetry_2
Zn1 O1 1_555 1_555
P1 C1 1_555 1_555
C1 H1 1_555 1_555
H2 C1 1_555 1_555
C2 C1 1_555 1_555
H3 C2 1_555 1_555
H4 C2 1_555 1_555
C3 C2 1_555 1_555
O1 C3 1_555 1_555
O2 C3 1_555 1_555
Zn2 P1 1_555 1_555
P2 Zn1 1_555 1_555
C4 P2 1_555 1_555
H5 C4 1_555 1_555
H6 C4 1_555 1_555
C5 C4 1_555 1_555
H7 C5 1_555 1_555
H8 C5 1_555 1_555
C6 C5 1_555 1_555
O3 C6 1_555 1_555
O4 C6 1_555 1_555
N1 H9 1_555 1_555
H10 N1 1_555 1_555
H11 N1 1_555 1_555
H12 N1 1_555 1_555
O6 H15 1_555 1_555
H16 O6 1_555 1_555
O8 H19 1_555 1_555
H20 O8 1_555 1_555
O9 H21 1_555 1_555
H22 O9 1_555 1_555
C1A P1 1_555 1_555
H1A C1A 1_555 1_555
H2A C1A 1_555 1_555
C2A C1A 1_555 1_555
H3A C2A 1_555 1_555
H4A C2A 1_555 1_555
C3A C2A 1_555 1_555
O1A C3A 1_555 1_555
O2A C3A 1_555 1_555
C1B P1 1_555 1_555
H1B C1B 1_555 1_555
H2B C1B 1_555 1_555
C2B C1B 1_555 1_555
H3B C2B 1_555 1_555
H4B C2B 1_555 1_555
C3B C2B 1_555 1_555
O1B C3B 1_555 1_555
O2B C3B 1_555 1_555
C4A P2 1_555 1_555
H5A C4A 1_555 1_555
H6A C4A 1_555 1_555
C5A C4A 1_555 1_555
H7A C5A 1_555 1_555
H8A C5A 1_555 1_555
C6A C5A 1_555 1_555
O3A C6A 1_555 1_555
O4A C6A 1_555 1_555
C4B P2 1_555 1_555
H5B C4B 1_555 1_555
H6B C4B 1_555 1_555
C5B C4B 1_555 1_555
H7B C5B 1_555 1_555
H8B C5B 1_555 1_555
C6B C5B 1_555 1_555
O3B C6B 1_555 1_555
O4B C6B 1_555 1_555
O1A_2 Zn1 1_555 1_555
O1B_2 Zn1 1_555 1_555
O3C Zn2 1_555 1_555
O3D Zn2 1_555 1_555
O3E Zn2 1_555 1_555
Zn2C O3 1_555 1_555
Zn1_2 O1A 1_555 1_555
Zn1_3 O1B 1_555 1_555
Zn2C_2 O3A 1_555 1_555
Zn2C_3 O3B 1_555 1_555

#END
