
#######################################################################
#
#                 Cambridge Crystallographic Data Centre
#                                CCDC 
#
#######################################################################
#
# If this CIF has been generated from an entry in the Cambridge 
# Structural Database, then it will include bibliographic, chemical, 
# crystal, experimental, refinement or atomic coordinate data resulting 
# from the CCDC's data processing and validation procedures.
#
#######################################################################

data_XACFIQ
_symmetry_cell_setting           monoclinic
_symmetry_space_group_name_H-M   'P 21/n'
_symmetry_Int_Tables_number      14
_space_group_name_Hall           '-P 2yn'
loop_
_symmetry_equiv_pos_site_id
_symmetry_equiv_pos_as_xyz
1 x,y,z
2 1/2-x,1/2+y,1/2-z
3 -x,-y,-z
4 1/2+x,1/2-y,1/2+z
_cell_length_a                   6.408(1)
_cell_length_b                   8.218(1)
_cell_length_c                   12.626(1)
_cell_angle_alpha                90
_cell_angle_beta                 100.63(1)
_cell_angle_gamma                90
_cell_volume                     653.487
loop_
_atom_site_label
_atom_site_type_symbol
_atom_site_fract_x
_atom_site_fract_y
_atom_site_fract_z
K1 K 0.2476(1) 0.0052(1) -0.1213(1)
O1 O 0.3428(2) -0.4957(1) 0.2628(1)
O2 O 0.2218(2) -0.5913(2) -0.1406(1)
O3 O 0.1757(2) -0.3367(2) -0.1789(1)
O4 O 0.3546(2) 0.1313(2) 0.0779(1)
N1 N 0.2587(2) -0.2832(2) 0.1401(1)
N2 N 0.2184(2) -0.2622(2) 0.0311(1)
N3 N 0.2880(2) -0.5282(2) 0.0750(1)
N4 N 0.2106(2) -0.4492(2) -0.1141(1)
C1 C 0.2998(2) -0.4424(2) 0.1672(1)
C2 C 0.2398(2) -0.4117(2) -0.0001(1)
K1B K 0.7524(1) -0.0052(1) 0.1213(1)
O2A O 0.2782(2) -0.0913(2) -0.3594(1)
O3A O 0.3243(2) 0.1633(2) -0.3211(1)
O4B O 0.6454(2) -0.1313(2) -0.0779(1)
K1A K 0.2524(1) 0.5052(1) -0.3787(1)
K1A_2 K 0.2524(1) -0.4948(1) -0.3787(1)
O2_2 O 0.2218(2) 0.4087(2) -0.1406(1)
O1C O -0.1572(2) -0.0043(1) -0.2372(1)
K1_2 K 0.2476(1) -0.9948(1) -0.1213(1)
K1C K 0.7476(1) -0.5052(1) 0.3787(1)
loop_
_geom_bond_atom_site_label_1
_geom_bond_atom_site_label_2
_geom_bond_site_symmetry_1
_geom_bond_site_symmetry_2
K1 O3 1_555 1_555
O1 C1 1_555 1_555
O2 N4 1_555 1_555
O3 N4 1_555 1_555
O4 K1 1_555 1_555
N1 N2 1_555 1_555
N2 K1 1_555 1_555
N3 C1 1_555 1_555
N4 C2 1_555 1_555
C1 N1 1_555 1_555
C2 N2 1_555 1_555
K1B O4 1_555 1_555
O2A K1 1_555 1_555
O3A K1 1_555 1_555
O4B K1 1_555 1_555
K1A O3A 1_555 1_555
K1A_2 O2 1_555 1_555
O2_2 K1 1_555 1_555
O1C K1 1_555 1_555
K1_2 O2 1_555 1_555
K1C O1 1_555 1_555
O3 K1A_2 1_555 1_555
N3 C2 1_555 1_555
K1B O4B 1_555 1_555
O2A K1A_2 1_555 1_555
K1A O2_2 1_555 1_555

#END
