
#######################################################################
#
#                 Cambridge Crystallographic Data Centre
#                                CCDC 
#
#######################################################################
#
# If this CIF has been generated from an entry in the Cambridge 
# Structural Database, then it will include bibliographic, chemical, 
# crystal, experimental, refinement or atomic coordinate data resulting 
# from the CCDC's data processing and validation procedures.
#
#######################################################################

data_XACGIT
_symmetry_cell_setting           hexagonal
_symmetry_space_group_name_H-M   'P 63/m m c'
_symmetry_Int_Tables_number      194
_space_group_name_Hall           "-P 6c 2'c"
loop_
_symmetry_equiv_pos_site_id
_symmetry_equiv_pos_as_xyz
1 x,y,z
2 -y,x-y,z
3 -x+y,-x,z
4 -x,-y,1/2+z
5 y,-x+y,1/2+z
6 x-y,x,1/2+z
7 y,x,-z
8 x-y,-y,-z
9 -x,-x+y,-z
10 -y,-x,1/2-z
11 -x+y,y,1/2-z
12 x,x-y,1/2-z
13 -x,-y,-z
14 y,-x+y,-z
15 x-y,x,-z
16 x,y,1/2-z
17 -y,x-y,1/2-z
18 -x+y,-x,1/2-z
19 -y,-x,z
20 -x+y,y,z
21 x,x-y,z
22 y,x,1/2+z
23 x-y,-y,1/2+z
24 -x,-x+y,1/2+z
_cell_length_a                   13.0732(10)
_cell_length_b                   13.0732(10)
_cell_length_c                   13.435(2)
_cell_angle_alpha                90
_cell_angle_beta                 90
_cell_angle_gamma                120
_cell_volume                     1988.53
loop_
_atom_site_label
_atom_site_type_symbol
_atom_site_fract_x
_atom_site_fract_y
_atom_site_fract_z
N6 N 0.6667 0.3333 0.2500
O1 O 0.7216(10) 0.2785(4) 0.2500
O1A O 0.7215(4) 0.4431(11) 0.2500
O1B O 0.5569(11) 0.2784(10) 0.2500
O2 O 0.0000 0.0000 0.6017(18)
O3 O 0.8808(7) 0.7617(14) 0.6477(11)
Cd1 Cd 0.5000 1.0000 0.5000
Cd2 Cd 0.3333 0.6666 0.40339(12)
N1 N 0.2489(9) 0.7510(10) 0.5024(7)
N2 N 0.3036(7) 0.8618(10) 0.5344(6)
N3 N 0.4174(13) 0.5826(10) 0.2995(7)
N4 N 0.5266(5) 1.0531(11) 0.6687(8)
C1 C 0.4934(20) 0.9869(9) 0.7500
H1 H 0.4515 0.9032 0.7500
C2 C 0.2253(8) 0.8765(14) 0.5862(7)
H2 H 0.2385 0.9473 0.6184
N1A N 0.2490(10) 0.4979(13) 0.5024(7)
N1B N 0.5021(13) 0.7511(9) 0.5024(7)
N2G N 0.4418(12) 1.1382(10) 0.4656(6)
N2L N 0.6964(7) 1.1382(10) 0.4656(6)
N2S N 0.5582(12) 0.8618(10) 0.5344(6)
N2R N 0.1382(10) 0.6964(7) 0.5344(6)
N3B N 0.1652(16) 0.5826(13) 0.2995(7)
N3A N 0.4174(10) 0.8348(16) 0.2995(7)
N3I N 0.4174(10) 0.5826(13) 0.2005(7)
N3H N 0.5826(13) 1.1652(16) 0.7005(7)
N4G N 0.4735(12) 0.9469(11) 0.3313(8)
N4H N 0.4734(5) 0.5265(12) 0.3313(8)
N4J N 0.5265(12) 1.0531(11) 0.8313(8)
C2R C 0.1235(14) 0.7747(8) 0.5862(7)
N5? N 0.6512(8) 0.7747(14) 0.5862(7)
loop_
_geom_bond_atom_site_label_1
_geom_bond_atom_site_label_2
_geom_bond_site_symmetry_1
_geom_bond_site_symmetry_2
Cd1 N2 1_555 1_555
Cd2 N1 1_555 1_555
N1 N2 1_555 1_555
N2 C2 1_555 1_555
N3 Cd2 1_555 1_555
N4 Cd1 1_555 1_555
N6 O1 1_555 1_555
C1 N4 1_555 1_555
H1 C1 1_555 1_555
C2 H2 1_555 1_555
N1A Cd2 1_555 1_555
N1B Cd2 1_555 1_555
N2G Cd1 1_555 1_555
N2L Cd1 1_555 1_555
N2S Cd1 1_555 1_555
N2R N1 1_555 1_555
N3B Cd2 1_555 1_555
N3A Cd2 1_555 1_555
N3I N3 1_555 1_555
N3H N4 1_555 1_555
N4G Cd1 1_555 1_555
N4H N3 1_555 1_555
N4J C1 1_555 1_555
C2R C2 1_555 1_555
O1A N6 1_555 1_555
O1B N6 1_555 1_555
N1B N2S 1_555 1_555
N2R C2R 1_555 1_555
N3A N4G 1_555 1_555

#END
