
#######################################################################
#
#                 Cambridge Crystallographic Data Centre
#                                CCDC 
#
#######################################################################
#
# If this CIF has been generated from an entry in the Cambridge 
# Structural Database, then it will include bibliographic, chemical, 
# crystal, experimental, refinement or atomic coordinate data resulting 
# from the CCDC's data processing and validation procedures.
#
#######################################################################

data_XACHOA
_symmetry_cell_setting           triclinic
_symmetry_space_group_name_H-M   'P -1'
_symmetry_Int_Tables_number      2
_space_group_name_Hall           '-P 1'
loop_
_symmetry_equiv_pos_site_id
_symmetry_equiv_pos_as_xyz
1 x,y,z
2 -x,-y,-z
_cell_length_a                   11.8190(4)
_cell_length_b                   12.6741(4)
_cell_length_c                   13.7585(4)
_cell_angle_alpha                85.8653(13)
_cell_angle_beta                 81.6197(13)
_cell_angle_gamma                84.0945(14)
_cell_volume                     2024.71
loop_
_atom_site_label
_atom_site_type_symbol
_atom_site_fract_x
_atom_site_fract_y
_atom_site_fract_z
Cu1 Cu 0.73539(4) 0.72229(3) 0.98772(3)
Cu2 Cu 0.27163(4) 0.29616(4) 0.51878(3)
N1 N 0.6330(3) 0.6390(2) 0.9247(2)
N2 N 0.3579(3) 0.3710(2) 0.6035(2)
N3 N 0.6547(3) 0.8286(2) 1.0873(2)
N4 N 0.3775(3) 1.2115(3) 1.4154(2)
N5 N 0.8315(3) 0.8204(2) 0.8911(2)
N6 N 1.1753(3) 1.1809(2) 0.5947(2)
N7 N 0.8416(3) 0.6207(2) 1.0654(2)
N8 N 1.1586(3) 0.3910(2) 1.4434(2)
C1 C 0.5447(3) 0.6867(3) 0.8801(3)
C2 C 0.4916(3) 0.6371(3) 0.8166(3)
C3 C 0.5254(3) 0.5320(3) 0.7973(2)
C4 C 0.6135(4) 0.4798(3) 0.8461(3)
C5 C 0.6640(3) 0.5372(3) 0.9075(3)
C6 C 0.4719(3) 0.4761(3) 0.7272(3)
C7 C 0.4624(4) 0.3672(3) 0.7405(3)
C8 C 0.4052(4) 0.3192(3) 0.6785(3)
C9 C 0.3705(4) 0.4749(3) 0.5900(3)
C10 C 0.4265(4) 0.5295(3) 0.6480(3)
C11 C 0.7155(3) 0.8819(3) 1.1386(3)
C12 C 0.6681(3) 0.9559(3) 1.2056(2)
C13 C 0.5501(3) 0.9782(3) 1.2219(2)
C14 C 0.4846(3) 0.9220(3) 1.1691(3)
C15 C 0.5398(3) 0.8492(3) 1.1041(3)
C16 C 0.4919(3) 1.0590(3) 1.2892(2)
C17 C 0.3875(3) 1.1114(3) 1.2741(3)
C18 C 0.3337(3) 1.1858(3) 1.3369(3)
C19 C 0.4797(3) 1.1611(3) 1.4298(3)
C20 C 0.5389(3) 1.0863(3) 1.3692(3)
C21 C 0.9198(3) 0.7856(3) 0.8248(3)
C22 C 0.9852(3) 0.8518(3) 0.7621(3)
C23 C 0.9612(3) 0.9609(3) 0.7649(2)
C24 C 0.8678(3) 0.9985(3) 0.8322(3)
C25 C 0.8067(3) 0.9261(3) 0.8920(3)
C26 C 1.0343(3) 1.0371(3) 0.7041(3)
C27 C 1.0427(3) 1.1368(3) 0.7366(3)
C28 C 1.1125(3) 1.2053(3) 0.6810(3)
C29 C 1.1672(3) 1.0850(3) 0.5635(3)
C30 C 1.0989(3) 1.0112(3) 0.6147(3)
C31 C 0.8028(3) 0.5410(3) 1.1279(3)
C32 C 0.8604(3) 0.4948(3) 1.2014(3)
C33 C 0.9651(3) 0.5286(3) 1.2153(2)
C34 C 1.0082(3) 0.6072(3) 1.1486(3)
C35 C 0.9453(3) 0.6503(3) 1.0759(3)
C36 C 1.0292(3) 0.4841(3) 1.2968(2)
C37 C 1.1311(4) 0.5210(3) 1.3102(3)
C38 C 1.1929(4) 0.4724(4) 1.3817(3)
C39 C 1.0561(3) 0.3608(3) 1.4347(3)
C40 C 0.9896(3) 0.4038(3) 1.3638(3)
H1 H 0.518 0.759 0.894
H2 H 0.431 0.675 0.785
H3 H 0.638 0.406 0.838
H4 H 0.724 0.501 0.940
H5 H 0.495 0.326 0.793
H6 H 0.400 0.244 0.688
H7 H 0.339 0.514 0.536
H8 H 0.433 0.604 0.635
H9 H 0.798 0.868 1.128
H10 H 0.716 0.992 1.240
H11 H 0.402 0.934 1.179
H12 H 0.494 0.812 1.069
H13 H 0.352 1.095 1.219
H14 H 0.261 1.222 1.324
H15 H 0.513 1.179 1.485
H16 H 0.612 1.053 1.383
H17 H 0.938 0.710 0.821
H18 H 1.048 0.823 0.716
H19 H 0.846 1.073 0.836
H20 H 0.743 0.953 0.938
H21 H 0.999 1.158 0.798
H22 H 1.117 1.274 0.705
H23 H 1.211 1.066 0.502
H24 H 1.096 0.943 0.589
H25 H 0.731 0.516 1.120
H26 H 0.829 0.439 1.244
H27 H 1.082 0.631 1.152
H28 H 0.976 0.705 1.031
H29 H 1.160 0.579 1.269
H30 H 1.265 0.498 1.388
H31 H 1.027 0.306 1.480
H32 H 0.917 0.378 1.361
Cu2_2 Cu 0.27163(4) 1.29616(4) 1.51878(3)
Cu2_3 Cu 1.27163(4) 1.29616(4) 0.51878(3)
Cu2_4 Cu 1.27163(4) 0.29616(4) 1.51878(3)
N4_2 N 0.3775(3) 0.2115(3) 0.4154(2)
N6_2 N 0.1753(3) 0.1809(2) 0.5947(2)
N8_2 N 0.1586(3) 0.3910(2) 0.4434(2)
Re1 Re 0.222162(14) 0.800135(12) 0.948943(12)
O1 O 0.2335(4) 0.6707(3) 0.9913(3)
O2 O 0.0864(3) 0.8562(3) 0.9902(3)
O3 O 0.3222(3) 0.8666(3) 0.9916(3)
O4 O 0.2460(4) 0.8084(4) 0.8230(3)
Re2 Re 0.254095(14) 0.788027(12) 0.396841(12)
O5 O 0.2508(4) 0.7574(3) 0.2774(3)
O6 O 0.1164(3) 0.8078(3) 0.4562(3)
O7 O 0.3213(4) 0.9007(3) 0.4011(3)
O8 O 0.3286(4) 0.6857(4) 0.4583(3)
O9 O 0.7725(16) 0.2730(13) 0.3381(12)
H33 H 0.732 0.333 0.343
H34 H 0.726 0.226 0.336
loop_
_geom_bond_atom_site_label_1
_geom_bond_atom_site_label_2
_geom_bond_site_symmetry_1
_geom_bond_site_symmetry_2
Cu1 N1 1_555 1_555
Cu2 N2 1_555 1_555
N1 C1 1_555 1_555
N2 C8 1_555 1_555
N3 Cu1 1_555 1_555
N4 C18 1_555 1_555
N5 Cu1 1_555 1_555
N6 C28 1_555 1_555
N7 Cu1 1_555 1_555
N8 C38 1_555 1_555
C1 C2 1_555 1_555
C2 C3 1_555 1_555
C3 C4 1_555 1_555
C4 C5 1_555 1_555
C5 N1 1_555 1_555
C6 C3 1_555 1_555
C7 C6 1_555 1_555
C8 C7 1_555 1_555
C9 N2 1_555 1_555
C10 C6 1_555 1_555
C11 N3 1_555 1_555
C12 C11 1_555 1_555
C13 C12 1_555 1_555
C14 C13 1_555 1_555
C15 N3 1_555 1_555
C16 C13 1_555 1_555
C17 C16 1_555 1_555
C18 C17 1_555 1_555
C19 N4 1_555 1_555
C20 C16 1_555 1_555
C21 N5 1_555 1_555
C22 C21 1_555 1_555
C23 C22 1_555 1_555
C24 C23 1_555 1_555
C25 N5 1_555 1_555
C26 C23 1_555 1_555
C27 C26 1_555 1_555
C28 C27 1_555 1_555
C29 N6 1_555 1_555
C30 C26 1_555 1_555
C31 N7 1_555 1_555
C32 C31 1_555 1_555
C33 C32 1_555 1_555
C34 C33 1_555 1_555
C35 N7 1_555 1_555
C36 C33 1_555 1_555
C37 C36 1_555 1_555
C38 C37 1_555 1_555
C39 N8 1_555 1_555
C40 C36 1_555 1_555
H1 C1 1_555 1_555
H2 C2 1_555 1_555
H3 C4 1_555 1_555
H4 C5 1_555 1_555
H5 C7 1_555 1_555
H6 C8 1_555 1_555
H7 C9 1_555 1_555
H8 C10 1_555 1_555
H9 C11 1_555 1_555
H10 C12 1_555 1_555
H11 C14 1_555 1_555
H12 C15 1_555 1_555
H13 C17 1_555 1_555
H14 C18 1_555 1_555
H15 C19 1_555 1_555
H16 C20 1_555 1_555
H17 C21 1_555 1_555
H18 C22 1_555 1_555
H19 C24 1_555 1_555
H20 C25 1_555 1_555
H21 C27 1_555 1_555
H22 C28 1_555 1_555
H23 C29 1_555 1_555
H24 C30 1_555 1_555
H25 C31 1_555 1_555
H26 C32 1_555 1_555
H27 C34 1_555 1_555
H28 C35 1_555 1_555
H29 C37 1_555 1_555
H30 C38 1_555 1_555
H31 C39 1_555 1_555
H32 C40 1_555 1_555
Re1 O1 1_555 1_555
O2 Re1 1_555 1_555
O3 Re1 1_555 1_555
O4 Re1 1_555 1_555
Re2 O5 1_555 1_555
O6 Re2 1_555 1_555
O7 Re2 1_555 1_555
O8 Re2 1_555 1_555
O9 H33 1_555 1_555
H34 O9 1_555 1_555
Cu2_2 N4 1_555 1_555
Cu2_3 N6 1_555 1_555
Cu2_4 N8 1_555 1_555
N4_2 Cu2 1_555 1_555
N6_2 Cu2 1_555 1_555
N8_2 Cu2 1_555 1_555
C9 C10 1_555 1_555
C14 C15 1_555 1_555
C19 C20 1_555 1_555
C24 C25 1_555 1_555
C29 C30 1_555 1_555
C34 C35 1_555 1_555
C39 C40 1_555 1_555

#END
