
#######################################################################
#
#                 Cambridge Crystallographic Data Centre
#                                CCDC 
#
#######################################################################
#
# If this CIF has been generated from an entry in the Cambridge 
# Structural Database, then it will include bibliographic, chemical, 
# crystal, experimental, refinement or atomic coordinate data resulting 
# from the CCDC's data processing and validation procedures.
#
#######################################################################

data_XACHIU
_symmetry_cell_setting           orthorhombic
_symmetry_space_group_name_H-M   'P b c a'
_symmetry_Int_Tables_number      61
_space_group_name_Hall           '-P 2ac 2ab'
loop_
_symmetry_equiv_pos_site_id
_symmetry_equiv_pos_as_xyz
1 x,y,z
2 1/2+x,1/2-y,-z
3 -x,1/2+y,1/2-z
4 1/2-x,-y,1/2+z
5 -x,-y,-z
6 1/2-x,1/2+y,z
7 x,1/2-y,1/2+z
8 1/2+x,y,1/2-z
_cell_length_a                   10.8513(3)
_cell_length_b                   12.9419(4)
_cell_length_c                   15.6976(5)
_cell_angle_alpha                90
_cell_angle_beta                 90
_cell_angle_gamma                90
_cell_volume                     2204.52
loop_
_atom_site_label
_atom_site_type_symbol
_atom_site_fract_x
_atom_site_fract_y
_atom_site_fract_z
Cu1 Cu 0.75190(7) 0.37852(5) 0.06270(6)
N1 N 0.9258(4) 0.3743(3) 0.0586(3)
N2 N 1.5781(5) 0.3834(3) 0.0585(3)
C1 C 0.9892(5) 0.3793(4) -0.0142(4)
C2 C 1.1168(5) 0.3805(4) -0.0178(3)
C3 C 1.1849(5) 0.3762(4) 0.0582(3)
C4 C 1.1171(5) 0.3678(4) 0.1341(3)
C5 C 0.9899(6) 0.3673(4) 0.1315(4)
C6 C 1.5149(5) 0.3683(4) -0.0132(4)
C7 C 1.3880(5) 0.3654(4) -0.0160(3)
C8 C 1.3198(5) 0.3799(4) 0.0587(3)
C9 C 1.3871(5) 0.3992(5) 0.1326(3)
C10 C 1.5138(6) 0.4005(5) 0.1305(4)
Re1 Re 0.79921(2) 0.367750(17) -0.244230(14)
O1 O 0.7458(4) 0.3675(3) -0.1406(3)
O2 O 0.9599(5) 0.3702(4) -0.2444(3)
O3 O 0.7514(4) 0.2417(3) 0.2019(3)
O4 O 0.7528(4) 0.5223(3) 0.2029(3)
H1 H 0.944 0.382 -0.067
H2 H 1.159 0.384 -0.072
H3 H 1.160 0.362 0.187
H4 H 0.945 0.362 0.184
H5 H 1.560 0.360 -0.065
H6 H 1.346 0.354 -0.069
H7 H 1.344 0.412 0.185
H8 H 1.558 0.413 0.182
Cu1_2 Cu 1.75190(7) 0.37852(5) 0.06270(6)
N2_2 N 0.5781(5) 0.3834(3) 0.0585(3)
Re1F Re 0.79921(2) 0.132250(17) 0.255770(14)
Re1C Re 0.70079(2) 0.632250(17) 0.255770(14)
O3F O 0.7514(4) 0.2583(3) -0.2981(3)
O4C O 0.7472(4) 0.4777(3) -0.2971(3)
loop_
_geom_bond_atom_site_label_1
_geom_bond_atom_site_label_2
_geom_bond_site_symmetry_1
_geom_bond_site_symmetry_2
Cu1 N1 1_555 1_555
N1 C1 1_555 1_555
N2 C6 1_555 1_555
C1 C2 1_555 1_555
C2 C3 1_555 1_555
C3 C4 1_555 1_555
C4 C5 1_555 1_555
C5 N1 1_555 1_555
C6 C7 1_555 1_555
C7 C8 1_555 1_555
C8 C3 1_555 1_555
C9 C8 1_555 1_555
C10 N2 1_555 1_555
Re1 O1 1_555 1_555
O1 Cu1 1_555 1_555
O2 Re1 1_555 1_555
O3 Cu1 1_555 1_555
O4 Cu1 1_555 1_555
H1 C1 1_555 1_555
H2 C2 1_555 1_555
H3 C4 1_555 1_555
H4 C5 1_555 1_555
H5 C6 1_555 1_555
H6 C7 1_555 1_555
H7 C9 1_555 1_555
H8 C10 1_555 1_555
Cu1_2 N2 1_555 1_555
N2_2 Cu1 1_555 1_555
Re1F O3 1_555 1_555
Re1C O4 1_555 1_555
O3F Re1 1_555 1_555
O4C Re1 1_555 1_555
C9 C10 1_555 1_555

#END
