
#######################################################################
#
#                 Cambridge Crystallographic Data Centre
#                                CCDC 
#
#######################################################################
#
# If this CIF has been generated from an entry in the Cambridge 
# Structural Database, then it will include bibliographic, chemical, 
# crystal, experimental, refinement or atomic coordinate data resulting 
# from the CCDC's data processing and validation procedures.
#
#######################################################################

data_XACPEW
_symmetry_cell_setting           monoclinic
_symmetry_space_group_name_H-M   'P 21/c'
_symmetry_Int_Tables_number      14
_space_group_name_Hall           '-P 2ybc'
loop_
_symmetry_equiv_pos_site_id
_symmetry_equiv_pos_as_xyz
1 x,y,z
2 -x,1/2+y,1/2-z
3 -x,-y,-z
4 x,1/2-y,1/2+z
_cell_length_a                   7.569(2)
_cell_length_b                   7.821(2)
_cell_length_c                   18.033(4)
_cell_angle_alpha                90
_cell_angle_beta                 98.8(1)
_cell_angle_gamma                90
_cell_volume                     1054.94
loop_
_atom_site_label
_atom_site_type_symbol
_atom_site_fract_x
_atom_site_fract_y
_atom_site_fract_z
Fe1 Fe 0.3659(1) 0.0565(1) 0.6352(1)
Fe2 Fe 0.7122(1) -0.2020(1) 0.6901(1)
P1 P 0.5540(1) 0.4171(1) 0.6909(1)
O1 O 0.4220(3) 0.3065(2) 0.6399(1)
O2 O 0.1951(3) -0.1516(3) 0.6169(1)
O3 O 0.5847(3) -0.0535(2) 0.5926(1)
O4 O 0.5059(3) -0.0661(2) 0.7322(1)
O5 O 0.2982(3) 0.0977(3) 0.5124(1)
O6 O 0.1391(3) 0.1299(2) 0.6974(1)
O7 O 0.5788(3) 0.5888(2) 0.6560(1)
O8 O 0.9434(3) -0.2642(3) 0.6428(1)
O9 O 0.8818(3) 0.0119(3) 0.7212(1)
O10 O 0.7451(3) 0.3307(3) 0.7003(1)
C1 C 0.0577(4) -0.1475(4) 0.6469(2)
C2 C 0.0242(4) 0.0132(4) 0.6935(2)
C3 C 0.5838(4) -0.0444(3) 0.5222(2)
O7_2 O 0.5788(3) -0.4112(2) 0.6560(1)
O4A O 0.4941(3) 0.4339(2) 0.7678(1)
P1A P 0.4460(1) -0.0829(1) 0.8091(1)
C3B C 0.4162(4) 0.0444(3) 0.4778(2)
Fe2_2 Fe 0.7122(1) 0.7980(1) 0.6901(1)
C1_2 C 1.0577(4) -0.1475(4) 0.6469(2)
C2_2 C 1.0242(4) 0.0132(4) 0.6935(2)
O8_2 O -0.0566(3) -0.2642(3) 0.6428(1)
O9_2 O -0.1182(3) 0.0119(3) 0.7212(1)
O5B O 0.7018(3) -0.0977(3) 0.4876(1)
O3B O 0.4153(3) 0.0535(2) 0.4074(1)
Fe1B Fe 0.6341(1) -0.0565(1) 0.3648(1)
Fe2B Fe 0.2878(1) 0.2020(1) 0.3099(1)
O2_2 O 1.1951(3) -0.1516(3) 0.6169(1)
O6_2 O 1.1391(3) 0.1299(2) 0.6974(1)
Fe1_2 Fe 1.3659(1) 0.0565(1) 0.6352(1)
Fe2_3 Fe -0.2878(1) -0.2020(1) 0.6901(1)
O4B O 0.4941(3) 0.0661(2) 0.2678(1)
O7B O 0.4212(3) 0.4112(2) 0.3440(1)
O8B O 0.0566(3) 0.2642(3) 0.3572(1)
O9B O 0.1182(3) -0.0119(3) 0.2788(1)
O1B O 0.5780(3) -0.3065(2) 0.3601(1)
O2B O 0.8049(3) 0.1516(3) 0.3831(1)
O6B O 0.8609(3) -0.1299(2) 0.3026(1)
O1A O 0.5780(3) -0.1935(2) 0.8601(1)
O7A O 0.4212(3) 0.0888(2) 0.8440(1)
O10A O 0.2549(3) -0.1693(3) 0.7997(1)
Fe1A Fe 0.6341(1) -0.4435(1) 0.8648(1)
Fe2A Fe 0.2878(1) 0.2980(1) 0.8099(1)
Fe1A_2 Fe 0.6341(1) 0.5565(1) 0.8648(1)
N1 N 0.1138(4) 0.4682(4) 0.5684(2)
C4 C -0.0452(5) 0.3603(5) 0.5461(2)
C5 C 0.1873(5) 0.5383(5) 0.5031(2)
C5B C -0.1873(5) 0.4617(5) 0.4969(2)
C4B C 0.0452(5) 0.6397(5) 0.4539(2)
N1B N -0.1138(4) 0.5318(4) 0.4316(2)
loop_
_geom_bond_atom_site_label_1
_geom_bond_atom_site_label_2
_geom_bond_site_symmetry_1
_geom_bond_site_symmetry_2
Fe1 O1 1_555 1_555
Fe2 O3 1_555 1_555
P1 O1 1_555 1_555
O2 Fe1 1_555 1_555
O3 Fe1 1_555 1_555
O4 Fe1 1_555 1_555
O5 Fe1 1_555 1_555
O6 Fe1 1_555 1_555
O7 P1 1_555 1_555
O8 Fe2 1_555 1_555
O9 Fe2 1_555 1_555
O10 P1 1_555 1_555
C1 O2 1_555 1_555
C2 O6 1_555 1_555
C3 O3 1_555 1_555
N1 C4 1_555 1_555
C4 C5B 1_555 1_555
C5 N1 1_555 1_555
O7_2 Fe2 1_555 1_555
O4A P1 1_555 1_555
P1A O4 1_555 1_555
C3B O5 1_555 1_555
Fe2_2 O7 1_555 1_555
C1_2 O8 1_555 1_555
C2_2 O9 1_555 1_555
O8_2 C1 1_555 1_555
O9_2 C2 1_555 1_555
O5B C3 1_555 1_555
C5B N1B 1_555 1_555
C4B C5 1_555 1_555
O3B C3B 1_555 1_555
Fe1B O5B 1_555 1_555
Fe2B O3B 1_555 1_555
O2_2 C1_2 1_555 1_555
O6_2 C2_2 1_555 1_555
Fe1_2 O2_2 1_555 1_555
Fe2_3 O8_2 1_555 1_555
O4B Fe1B 1_555 1_555
O7B Fe2B 1_555 1_555
O8B Fe2B 1_555 1_555
O9B Fe2B 1_555 1_555
O1B Fe1B 1_555 1_555
O2B Fe1B 1_555 1_555
O6B Fe1B 1_555 1_555
O1A P1A 1_555 1_555
O7A P1A 1_555 1_555
O10A P1A 1_555 1_555
Fe1A O1A 1_555 1_555
Fe2A O4A 1_555 1_555
N1B C4B 1_555 1_555
Fe1A_2 O4A 1_555 1_555
Fe2 O4 1_555 1_555
C1 C2 1_555 1_555
C3 C3B 1_555 1_555
C1_2 C2_2 1_555 1_555
O9_2 Fe2_3 1_555 1_555
O3B Fe1B 1_555 1_555
Fe2B O4B 1_555 1_555
O6_2 Fe1_2 1_555 1_555
O7A Fe2A 1_555 1_555

#END
