
#######################################################################
#
#                 Cambridge Crystallographic Data Centre
#                                CCDC 
#
#######################################################################
#
# If this CIF has been generated from an entry in the Cambridge 
# Structural Database, then it will include bibliographic, chemical, 
# crystal, experimental, refinement or atomic coordinate data resulting 
# from the CCDC's data processing and validation procedures.
#
#######################################################################

data_XACPIA
_symmetry_cell_setting           monoclinic
_symmetry_space_group_name_H-M   'P 21/c'
_symmetry_Int_Tables_number      14
_space_group_name_Hall           '-P 2ybc'
loop_
_symmetry_equiv_pos_site_id
_symmetry_equiv_pos_as_xyz
1 x,y,z
2 -x,1/2+y,1/2-z
3 -x,-y,-z
4 x,1/2-y,1/2+z
_cell_length_a                   10.240(1)
_cell_length_b                   6.375(3)
_cell_length_c                   9.955(1)
_cell_angle_alpha                90
_cell_angle_beta                 117.3(1)
_cell_angle_gamma                90
_cell_volume                     577.479
loop_
_atom_site_label
_atom_site_type_symbol
_atom_site_fract_x
_atom_site_fract_y
_atom_site_fract_z
Fe1 Fe -0.3783(1) 0.1424(1) 0.4774(1)
Fe2 Fe -0.2667(1) -0.0194(1) 0.2366(1)
P1 P -0.6050(1) 0.1509(2) 0.1020(1)
O1 O -0.6601(4) -0.0388(5) -0.0096(4)
O2 O -0.4586(4) 0.0949(5) 0.2396(4)
O3 O -0.1720(4) 0.0939(6) 0.4639(4)
O4 O -0.2207(5) 0.1445(6) 0.7206(4)
O5 O -0.5810(4) 0.3291(5) 0.0100(4)
O6 O -0.7187(4) 0.2036(5) 0.1553(4)
O7 O 0.0344(4) 0.0799(6) 0.6824(4)
C1 C -0.0383(6) 0.0505(8) 0.5437(6)
O5C O -0.5810(4) 0.1709(5) 0.5100(4)
C1B C 0.0383(6) -0.0505(8) 0.4563(6)
O3B O 0.1720(4) -0.0939(6) 0.5361(4)
O7B O -0.0344(4) -0.0799(6) 0.3176(4)
Fe2B Fe 0.2667(1) 0.0194(1) 0.7634(1)
Fe1B Fe 0.3783(1) -0.1424(1) 0.5226(1)
O1B O -0.3399(4) 0.0388(5) 0.0096(4)
O6A O -0.2813(4) -0.2964(5) 0.3447(4)
O1_2 O 0.3399(4) -0.0388(5) 0.9904(4)
O2B O 0.4586(4) -0.0949(5) 0.7604(4)
O6C O 0.2813(4) 0.2964(5) 0.6553(4)
O1C O 0.3399(4) -0.4612(5) 0.4904(4)
O4B O 0.2207(5) -0.1445(6) 0.2794(4)
O5A O 0.5810(4) -0.1709(5) 0.4900(4)
O5C_2 O 0.4190(4) 0.1709(5) 0.5100(4)
O1A O -0.3399(4) 0.4612(5) 0.5096(4)
O5A_2 O -0.4190(4) -0.1709(5) 0.4900(4)
Fe2A Fe -0.7333(1) 0.4806(1) 0.2634(1)
Fe1A Fe -0.6217(1) 0.6424(1) 0.0226(1)
Fe1C Fe -0.3783(1) 0.3576(1) -0.0226(1)
Fe1A_2 Fe -0.6217(1) -0.3576(1) 0.0226(1)
Fe2B_2 Fe -0.7333(1) 0.0194(1) -0.2366(1)
Fe1A_3 Fe 0.3783(1) -0.3576(1) 1.0226(1)
P1B P 0.6050(1) -0.1509(2) 0.8980(1)
O5B O 0.5810(4) -0.3291(5) 0.9900(4)
O1B_2 O 0.6601(4) 0.0388(5) 1.0096(4)
O6B O 0.7187(4) -0.2036(5) 0.8447(4)
Fe1C_2 Fe 0.6217(1) -0.6424(1) 0.9774(1)
Fe2_2 Fe 0.7333(1) -0.0194(1) 1.2366(1)
Fe1C_3 Fe 0.6217(1) 0.3576(1) 0.9774(1)
Fe2C Fe 0.7333(1) -0.4806(1) 0.7366(1)
loop_
_geom_bond_atom_site_label_1
_geom_bond_atom_site_label_2
_geom_bond_site_symmetry_1
_geom_bond_site_symmetry_2
Fe1 O2 1_555 1_555
Fe2 O2 1_555 1_555
P1 O1 1_555 1_555
O1 Fe1A_2 1_555 1_555
O2 P1 1_555 1_555
O3 Fe1 1_555 1_555
O4 Fe1 1_555 1_555
O5 P1 1_555 1_555
O6 P1 1_555 1_555
O7 C1 1_555 1_555
C1 O3 1_555 1_555
O5C Fe1 1_555 1_555
C1B C1 1_555 1_555
O3B C1B 1_555 1_555
O7B Fe2 1_555 1_555
Fe2B O7 1_555 1_555
Fe1B O3B 1_555 1_555
O1B Fe2 1_555 1_555
O6A Fe2 1_555 1_555
O1_2 Fe2B 1_555 1_555
O2B Fe2B 1_555 1_555
O6C Fe2B 1_555 1_555
O1C Fe1B 1_555 1_555
O4B Fe1B 1_555 1_555
O5A Fe1B 1_555 1_555
O5C_2 Fe1B 1_555 1_555
O1A Fe1 1_555 1_555
O5A_2 Fe1 1_555 1_555
Fe2A O6 1_555 1_555
Fe1A O5 1_555 1_555
Fe1C O5 1_555 1_555
Fe2B_2 O1 1_555 1_555
Fe1A_3 O1_2 1_555 1_555
P1B O2B 1_555 1_555
O5B Fe1A_3 1_555 1_555
O1B_2 P1B 1_555 1_555
O6B P1B 1_555 1_555
Fe1C_2 O5B 1_555 1_555
Fe2_2 O1B_2 1_555 1_555
Fe1C_3 O1B_2 1_555 1_555
Fe2C O6B 1_555 1_555
Fe2 O3 1_555 1_555
C1B O7B 1_555 1_555
O3B Fe2B 1_555 1_555
Fe1B O2B 1_555 1_555
O1B Fe1C 1_555 1_555
P1B O5B 1_555 1_555

#END
