
#######################################################################
#
#                 Cambridge Crystallographic Data Centre
#                                CCDC 
#
#######################################################################
#
# If this CIF has been generated from an entry in the Cambridge 
# Structural Database, then it will include bibliographic, chemical, 
# crystal, experimental, refinement or atomic coordinate data resulting 
# from the CCDC's data processing and validation procedures.
#
#######################################################################

data_XACTAX
_symmetry_cell_setting           orthorhombic
_symmetry_space_group_name_H-M   'P c c n'
_symmetry_Int_Tables_number      56
_space_group_name_Hall           '-P 2ab 2ac'
loop_
_symmetry_equiv_pos_site_id
_symmetry_equiv_pos_as_xyz
1 x,y,z
2 1/2-x,1/2-y,z
3 -x,1/2+y,1/2-z
4 1/2+x,-y,1/2-z
5 -x,-y,-z
6 1/2+x,1/2+y,-z
7 x,1/2-y,1/2+z
8 1/2-x,y,1/2+z
_cell_length_a                   10.0756(4)
_cell_length_b                   12.7812(4)
_cell_length_c                   22.8212(12)
_cell_angle_alpha                90
_cell_angle_beta                 90
_cell_angle_gamma                90
_cell_volume                     2938.87
loop_
_atom_site_label
_atom_site_type_symbol
_atom_site_fract_x
_atom_site_fract_y
_atom_site_fract_z
Cu1 Cu 0.07757(4) 0.25411(3) 0.131730(17)
V1 V -0.2500 0.2500 0.18791(3)
P1 P -0.04198(8) 0.05579(6) 0.18820(4)
P2 P 0.2500 0.2500 0.24987(5)
O1 O -0.1370(2) 0.29697(19) 0.14336(11)
O2 O -0.1563(2) 0.12167(18) 0.21106(11)
O3 O -0.1244(3) 0.3067(2) 0.26531(12)
H1 H -0.127(6) 0.364(5) 0.265(3)
H2 H -0.045(5) 0.287(4) 0.260(2)
O4 O 0.0359(2) 0.10649(17) 0.13906(10)
O5 O 0.1257(2) 0.27120(18) 0.21288(10)
O6 O 0.0508(2) 0.02599(17) 0.24069(11)
H3 H 0.0863 0.0790 0.2536
O7 O -0.0932(2) -0.05063(17) 0.16577(10)
H4 H -0.1360 -0.0795 0.1917
O8 O 0.2205(2) 0.15356(17) 0.28839(10)
N1 N 0.0719(3) 0.2419(2) 0.04355(12)
N2 N 0.1372(3) 0.4008(2) 0.11130(12)
C1 C 0.0359(4) 0.1606(3) 0.01115(16)
H5 H 0.0093 0.0995 0.0298
C2 C 0.0364(4) 0.1635(3) -0.05011(17)
H6 H 0.0109 0.1049 -0.0715
C3 C 0.0745(4) 0.2531(4) -0.07846(16)
H7 H 0.0757 0.2554 -0.1192
C4 C 0.1118(3) 0.3415(3) -0.04572(16)
C5 C 0.1090(3) 0.3311(3) 0.01569(14)
C6 C 0.1442(3) 0.4171(2) 0.05249(15)
C7 C 0.1796(3) 0.5137(3) 0.02760(17)
C8 C 0.2076(4) 0.5951(3) 0.0668(2)
H8 H 0.2328 0.6603 0.0526
C9 C 0.1979(4) 0.5787(3) 0.1260(2)
H9 H 0.2141 0.6332 0.1521
C10 C 0.1634(4) 0.4793(3) 0.14718(17)
H10 H 0.1589 0.4684 0.1874
C11 C 0.1503(4) 0.4404(3) -0.07014(17)
H11 H 0.1532 0.4485 -0.1106
C12 C 0.1824(4) 0.5216(3) -0.03545(19)
H12 H 0.2071 0.5847 -0.0526
O5A O 0.3743(2) 0.22880(18) 0.21288(10)
O8A O 0.2795(2) 0.34644(17) 0.28839(10)
O1A O -0.3630(2) 0.20303(19) 0.14336(11)
P1A P -0.45802(8) 0.44421(6) 0.18820(4)
O2A O -0.3437(2) 0.37833(18) 0.21106(11)
O4A O -0.5359(2) 0.39351(17) 0.13906(10)
O6A O -0.5508(2) 0.47401(17) 0.24069(11)
H3A H -0.5863 0.4210 0.2536
O7A O -0.4068(2) 0.55063(17) 0.16577(10)
H4A H -0.3640 0.5795 0.1917
O3A O -0.3756(3) 0.1933(2) 0.26531(12)
H1A H -0.373(6) 0.136(5) 0.265(3)
H2A H -0.455(5) 0.213(4) 0.260(2)
Cu1A Cu -0.57757(4) 0.24589(3) 0.131730(17)
N1A N -0.5719(3) 0.2581(2) 0.04355(12)
N2A N -0.6372(3) 0.0992(2) 0.11130(12)
C1A C -0.5359(4) 0.3394(3) 0.01115(16)
H5A H -0.5093 0.4005 0.0298
C2A C -0.5364(4) 0.3365(3) -0.05011(17)
H6A H -0.5109 0.3951 -0.0715
C3A C -0.5745(4) 0.2469(4) -0.07846(16)
H7A H -0.5757 0.2446 -0.1192
C4A C -0.6118(3) 0.1585(3) -0.04572(16)
C5A C -0.6090(3) 0.1689(3) 0.01569(14)
C6A C -0.6442(3) 0.0829(2) 0.05249(15)
C7A C -0.6796(3) -0.0137(3) 0.02760(17)
C8A C -0.7076(4) -0.0951(3) 0.0668(2)
H8A H -0.7328 -0.1603 0.0526
C9A C -0.6979(4) -0.0787(3) 0.1260(2)
H9A H -0.7141 -0.1332 0.1521
C10A C -0.6634(4) 0.0207(3) 0.14718(17)
H10A H -0.6589 0.0316 0.1874
C11A C -0.6503(4) 0.0596(3) -0.07014(17)
H11A H -0.6532 0.0515 -0.1106
C12A C -0.6824(4) -0.0216(3) -0.03545(19)
H12A H -0.7071 -0.0847 -0.0526
Cu1A_2 Cu 0.42243(4) 0.24589(3) 0.131730(17)
O5A_2 O -0.6257(2) 0.22880(18) 0.21288(10)
loop_
_geom_bond_atom_site_label_1
_geom_bond_atom_site_label_2
_geom_bond_site_symmetry_1
_geom_bond_site_symmetry_2
Cu1 O1 1_555 1_555
V1 O1 1_555 1_555
P1 O2 1_555 1_555
P2 O5 1_555 1_555
O2 V1 1_555 1_555
O3 V1 1_555 1_555
H1 O3 1_555 1_555
H2 O3 1_555 1_555
O4 Cu1 1_555 1_555
O5 Cu1 1_555 1_555
O6 P1 1_555 1_555
H3 O6 1_555 1_555
O7 P1 1_555 1_555
H4 O7 1_555 1_555
O8 P2 1_555 1_555
N1 Cu1 1_555 1_555
N2 Cu1 1_555 1_555
C1 N1 1_555 1_555
H5 C1 1_555 1_555
C2 C1 1_555 1_555
H6 C2 1_555 1_555
C3 C2 1_555 1_555
H7 C3 1_555 1_555
C4 C3 1_555 1_555
C5 N1 1_555 1_555
C6 N2 1_555 1_555
C7 C6 1_555 1_555
C8 C7 1_555 1_555
H8 C8 1_555 1_555
C9 C8 1_555 1_555
H9 C9 1_555 1_555
C10 N2 1_555 1_555
H10 C10 1_555 1_555
C11 C4 1_555 1_555
H11 C11 1_555 1_555
C12 C7 1_555 1_555
H12 C12 1_555 1_555
O5A P2 1_555 1_555
O8A P2 1_555 1_555
O1A V1 1_555 1_555
P1A O2A 1_555 1_555
O2A V1 1_555 1_555
O4A P1A 1_555 1_555
O6A P1A 1_555 1_555
H3A O6A 1_555 1_555
O7A P1A 1_555 1_555
H4A O7A 1_555 1_555
O3A V1 1_555 1_555
H1A O3A 1_555 1_555
H2A O3A 1_555 1_555
Cu1A O1A 1_555 1_555
N1A Cu1A 1_555 1_555
N2A Cu1A 1_555 1_555
C1A N1A 1_555 1_555
H5A C1A 1_555 1_555
C2A C1A 1_555 1_555
H6A C2A 1_555 1_555
C3A C2A 1_555 1_555
H7A C3A 1_555 1_555
C4A C3A 1_555 1_555
C5A N1A 1_555 1_555
C6A N2A 1_555 1_555
C7A C6A 1_555 1_555
C8A C7A 1_555 1_555
H8A C8A 1_555 1_555
C9A C8A 1_555 1_555
H9A C9A 1_555 1_555
C10A N2A 1_555 1_555
H10A C10A 1_555 1_555
C11A C4A 1_555 1_555
H11A C11A 1_555 1_555
C12A C7A 1_555 1_555
H12A C12A 1_555 1_555
Cu1A_2 O5A 1_555 1_555
O5A_2 Cu1A 1_555 1_555
P1 O4 1_555 1_555
C4 C5 1_555 1_555
C5 C6 1_555 1_555
C9 C10 1_555 1_555
C11 C12 1_555 1_555
O4A Cu1A 1_555 1_555
C4A C5A 1_555 1_555
C5A C6A 1_555 1_555
C9A C10A 1_555 1_555
C11A C12A 1_555 1_555

#END
