
#######################################################################
#
#                 Cambridge Crystallographic Data Centre
#                                CCDC 
#
#######################################################################
#
# If this CIF has been generated from an entry in the Cambridge 
# Structural Database, then it will include bibliographic, chemical, 
# crystal, experimental, refinement or atomic coordinate data resulting 
# from the CCDC's data processing and validation procedures.
#
#######################################################################

data_XACTAX01
_symmetry_cell_setting           orthorhombic
_symmetry_space_group_name_H-M   'P c c n'
_symmetry_Int_Tables_number      56
_space_group_name_Hall           '-P 2ab 2ac'
loop_
_symmetry_equiv_pos_site_id
_symmetry_equiv_pos_as_xyz
1 x,y,z
2 1/2-x,1/2-y,z
3 -x,1/2+y,1/2-z
4 1/2+x,-y,1/2-z
5 -x,-y,-z
6 1/2+x,1/2+y,-z
7 x,1/2-y,1/2+z
8 1/2-x,y,1/2+z
_cell_length_a                   10.0539(10)
_cell_length_b                   12.7624(12)
_cell_length_c                   22.749(2)
_cell_angle_alpha                90
_cell_angle_beta                 90
_cell_angle_gamma                90
_cell_volume                     2918.97
loop_
_atom_site_label
_atom_site_type_symbol
_atom_site_fract_x
_atom_site_fract_y
_atom_site_fract_z
Cu1 Cu 0.07776(3) 0.246007(18) 0.131735(12)
N1 N 0.07241(19) 0.25786(13) 0.04360(9)
N2 N 0.13775(18) 0.09958(14) 0.11144(8)
C1 C 0.1506(3) 0.0589(2) -0.07006(11)
H1 H 0.1535 0.0508 -0.1107
C2 C 0.1446(2) 0.08273(16) 0.05259(10)
C3 C 0.1970(3) -0.0790(2) 0.12642(13)
H2 H 0.2124 -0.1337 0.1526
C4 C 0.1805(2) -0.01371(18) 0.02767(11)
C5 C 0.2070(3) -0.09526(19) 0.06715(13)
H3 H 0.2314 -0.1609 0.0530
C6 C 0.1635(2) 0.02038(18) 0.14722(11)
H4 H 0.1590 0.0313 0.1876
C7 C 0.1826(3) -0.0225(2) -0.03532(12)
H5 H 0.2065 -0.0859 -0.0524
C8 C 0.1094(2) 0.16829(17) 0.01555(10)
C9 C 0.0357(2) 0.33965(19) 0.01115(11)
H6 H 0.0089 0.4009 0.0299
C10 C 0.0362(3) 0.3362(2) -0.05013(11)
H7 H 0.0102 0.3947 -0.0716
C11 C 0.1120(2) 0.15808(19) -0.04573(10)
C12 C 0.0750(3) 0.2465(2) -0.07872(12)
H8 H 0.0767 0.2443 -0.1196
V1 V -0.2500 0.2500 0.18803(2)
P1 P -0.04178(5) 0.44426(4) 0.18801(2)
P2 P 0.2500 0.2500 0.25021(3)
O1 O -0.13703(15) 0.20310(12) 0.14338(7)
O2 O -0.15605(15) 0.37828(12) 0.21090(7)
O3 O -0.09350(16) 0.55101(12) 0.16590(7)
O4 O 0.05106(16) 0.47381(12) 0.24094(7)
H9 H 0.1033 0.4204 0.2588
O5 O 0.03630(15) 0.39373(11) 0.13889(7)
O6 O 0.12553(16) 0.22900(12) 0.21310(7)
O7 O 0.22103(15) 0.34657(12) 0.28878(7)
O8 O -0.12434(15) 0.19297(12) 0.26563(7)
H10 H -0.0444 0.2073 0.2540
H11 H -0.1193 0.1254 0.2636
O6A O 0.37447(16) 0.27100(12) 0.21310(7)
O7A O 0.27897(15) 0.15343(12) 0.28878(7)
Cu1A Cu -0.57776(3) 0.253993(18) 0.131735(12)
N1A N -0.57241(19) 0.24214(13) 0.04360(9)
N2A N -0.63775(18) 0.40042(14) 0.11144(8)
C1A C -0.6506(3) 0.4411(2) -0.07006(11)
H1A H -0.6535 0.4492 -0.1107
C2A C -0.6446(2) 0.41727(16) 0.05259(10)
C3A C -0.6970(3) 0.5790(2) 0.12642(13)
H2A H -0.7124 0.6337 0.1526
C4A C -0.6805(2) 0.51371(18) 0.02767(11)
C5A C -0.7070(3) 0.59526(19) 0.06715(13)
H3A H -0.7314 0.6609 0.0530
C6A C -0.6635(2) 0.47962(18) 0.14722(11)
H4A H -0.6590 0.4687 0.1876
C7A C -0.6826(3) 0.5225(2) -0.03532(12)
H5A H -0.7065 0.5859 -0.0524
C8A C -0.6094(2) 0.33171(17) 0.01555(10)
C9A C -0.5357(2) 0.16035(19) 0.01115(11)
H6A H -0.5089 0.0991 0.0299
C10A C -0.5362(3) 0.1638(2) -0.05013(11)
H7A H -0.5102 0.1053 -0.0716
C11A C -0.6120(2) 0.34192(19) -0.04573(10)
C12A C -0.5750(3) 0.2535(2) -0.07872(12)
H8A H -0.5767 0.2557 -0.1196
P1A P -0.45822(5) 0.05574(4) 0.18801(2)
O1A O -0.36297(15) 0.29690(12) 0.14338(7)
O2A O -0.34395(15) 0.12172(12) 0.21090(7)
O3A O -0.40650(16) -0.05101(12) 0.16590(7)
O4A O -0.55106(16) 0.02619(12) 0.24094(7)
H9A H -0.6033 0.0796 0.2588
O5A O -0.53630(15) 0.10627(11) 0.13889(7)
O8A O -0.37566(15) 0.30703(12) 0.26563(7)
H10A H -0.4556 0.2927 0.2540
H11A H -0.3807 0.3746 0.2636
Cu1A_2 Cu 0.42224(3) 0.253993(18) 0.131735(12)
O6A_2 O -0.62553(16) 0.27100(12) 0.21310(7)
loop_
_geom_bond_atom_site_label_1
_geom_bond_atom_site_label_2
_geom_bond_site_symmetry_1
_geom_bond_site_symmetry_2
Cu1 N1 1_555 1_555
N1 C8 1_555 1_555
N2 Cu1 1_555 1_555
C1 H1 1_555 1_555
C2 N2 1_555 1_555
C3 H2 1_555 1_555
C4 C2 1_555 1_555
C5 C3 1_555 1_555
H3 C5 1_555 1_555
C6 N2 1_555 1_555
H4 C6 1_555 1_555
C7 C1 1_555 1_555
H5 C7 1_555 1_555
C8 C2 1_555 1_555
C9 N1 1_555 1_555
H6 C9 1_555 1_555
C10 C9 1_555 1_555
H7 C10 1_555 1_555
C11 C1 1_555 1_555
C12 C10 1_555 1_555
H8 C12 1_555 1_555
V1 O1 1_555 1_555
P1 O2 1_555 1_555
P2 O6 1_555 1_555
O1 Cu1 1_555 1_555
O2 V1 1_555 1_555
O3 P1 1_555 1_555
O4 P1 1_555 1_555
H9 O4 1_555 1_555
O5 Cu1 1_555 1_555
O6 Cu1 1_555 1_555
O7 P2 1_555 1_555
O8 V1 1_555 1_555
H10 O8 1_555 1_555
H11 O8 1_555 1_555
O6A P2 1_555 1_555
O7A P2 1_555 1_555
Cu1A N1A 1_555 1_555
N1A C8A 1_555 1_555
N2A Cu1A 1_555 1_555
C1A H1A 1_555 1_555
C2A N2A 1_555 1_555
C3A H2A 1_555 1_555
C4A C2A 1_555 1_555
C5A C3A 1_555 1_555
H3A C5A 1_555 1_555
C6A N2A 1_555 1_555
H4A C6A 1_555 1_555
C7A C1A 1_555 1_555
H5A C7A 1_555 1_555
C8A C2A 1_555 1_555
C9A N1A 1_555 1_555
H6A C9A 1_555 1_555
C10A C9A 1_555 1_555
H7A C10A 1_555 1_555
C11A C1A 1_555 1_555
C12A C10A 1_555 1_555
H8A C12A 1_555 1_555
P1A O2A 1_555 1_555
O1A V1 1_555 1_555
O2A V1 1_555 1_555
O3A P1A 1_555 1_555
O4A P1A 1_555 1_555
H9A O4A 1_555 1_555
O5A Cu1A 1_555 1_555
O8A V1 1_555 1_555
H10A O8A 1_555 1_555
H11A O8A 1_555 1_555
Cu1A_2 O6A 1_555 1_555
O6A_2 Cu1A 1_555 1_555
C3 C6 1_555 1_555
C4 C5 1_555 1_555
C4 C7 1_555 1_555
C8 C11 1_555 1_555
C11 C12 1_555 1_555
P1 O5 1_555 1_555
Cu1A O1A 1_555 1_555
C3A C6A 1_555 1_555
C4A C5A 1_555 1_555
C4A C7A 1_555 1_555
C8A C11A 1_555 1_555
C11A C12A 1_555 1_555
P1A O5A 1_555 1_555

#END
