
#######################################################################
#
#                 Cambridge Crystallographic Data Centre
#                                CCDC 
#
#######################################################################
#
# If this CIF has been generated from an entry in the Cambridge 
# Structural Database, then it will include bibliographic, chemical, 
# crystal, experimental, refinement or atomic coordinate data resulting 
# from the CCDC's data processing and validation procedures.
#
#######################################################################

data_XACTUR
_symmetry_cell_setting           triclinic
_symmetry_space_group_name_H-M   'P -1'
_symmetry_Int_Tables_number      2
_space_group_name_Hall           '-P 1'
loop_
_symmetry_equiv_pos_site_id
_symmetry_equiv_pos_as_xyz
1 x,y,z
2 -x,-y,-z
_cell_length_a                   8.333(3)
_cell_length_b                   8.703(3)
_cell_length_c                   13.896(5)
_cell_angle_alpha                91.428(6)
_cell_angle_beta                 100.987(5)
_cell_angle_gamma                92.666(6)
_cell_volume                     987.638
loop_
_atom_site_label
_atom_site_type_symbol
_atom_site_fract_x
_atom_site_fract_y
_atom_site_fract_z
Cu1 Cu 0.5000 1.0000 1.5000
Cu2 Cu 0.5000 1.0000 1.0000
N1 N 0.2668(4) 0.9158(4) 1.4813(2)
N2 N 0.2069(4) 0.8350(4) 1.5485(3)
H1 H 0.2611 0.8182 1.6061
N3 N 0.5606(4) 0.7981(4) 1.4465(3)
N4 N 0.6403(5) 0.6906(5) 1.4998(3)
H2 H 0.6774 0.6997 1.5619
N5 N 0.4055(4) 0.7812(4) 1.0001(3)
N6 N 0.3323(4) 0.6906(4) 0.9241(3)
H3 H 0.3197 0.7166 0.8639
N7 N 0.2748(4) 1.0743(4) 0.9516(2)
N8 N 0.1944(4) 1.1507(4) 1.0108(3)
H4 H 0.2332 1.1743 1.0714
S1 S 0.46623(13) 1.14521(12) 1.24396(7)
O1 O 0.6311(4) 1.2234(4) 1.2619(2)
O2 O 0.3443(4) 1.2554(4) 1.2007(2)
O3 O 0.4320(4) 1.0936(4) 1.3372(2)
O4 O 0.4600(4) 1.0170(4) 1.1728(2)
C1 C 0.1456(5) 0.9159(6) 1.4040(3)
H5 H 0.1516 0.9648 1.3460
C2 C 0.0099(6) 0.8336(6) 1.4215(4)
H6 H -0.0900 0.8156 1.3787
C3 C 0.0523(6) 0.7838(6) 1.5146(4)
H7 H -0.0138 0.7253 1.5482
C4 C 0.5252(7) 0.7401(6) 1.3563(4)
H8 H 0.4699 0.7906 1.3027
C5 C 0.5817(8) 0.5937(7) 1.3521(5)
H9 H 0.5708 0.5283 1.2970
C6 C 0.6553(7) 0.5655(6) 1.4438(5)
H10 H 0.7069 0.4765 1.4648
C7 C 0.3963(6) 0.6995(5) 1.0781(3)
H11 H 0.4361 0.7348 1.1423
C8 C 0.3210(6) 0.5564(5) 1.0531(4)
H12 H 0.3017 0.4789 1.0949
C9 C 0.2806(6) 0.5536(5) 0.9527(4)
H13 H 0.2276 0.4726 0.9122
C10 C 0.1731(6) 1.0605(6) 0.8656(4)
H14 H 0.1953 1.0109 0.8100
C11 C 0.0283(6) 1.1309(7) 0.8708(4)
H15 H -0.0620 1.1388 0.8206
C12 C 0.0471(6) 1.1852(6) 0.9639(4)
H16 H -0.0296 1.2377 0.9907
N1A N 0.7332(4) 1.0842(4) 1.5187(2)
N2A N 0.7931(4) 1.1650(4) 1.4515(3)
H1A H 0.7389 1.1818 1.3939
C1A C 0.8544(5) 1.0841(6) 1.5960(3)
H5A H 0.8484 1.0352 1.6540
C2A C 0.9901(6) 1.1664(6) 1.5785(4)
H6A H 1.0900 1.1844 1.6213
C3A C 0.9477(6) 1.2162(6) 1.4854(4)
H7A H 1.0138 1.2747 1.4518
N3A N 0.4394(4) 1.2019(4) 1.5535(3)
N4A N 0.3597(5) 1.3094(5) 1.5002(3)
H2A H 0.3226 1.3003 1.4381
C4A C 0.4748(7) 1.2599(6) 1.6437(4)
H8A H 0.5301 1.2094 1.6973
C5A C 0.4183(8) 1.4063(7) 1.6479(5)
H9A H 0.4292 1.4717 1.7030
C6A C 0.3447(7) 1.4345(6) 1.5562(5)
H10A H 0.2931 1.5235 1.5352
S1A S 0.53377(13) 0.85479(12) 1.75604(7)
O1A O 0.3689(4) 0.7766(4) 1.7381(2)
O2A O 0.6557(4) 0.7446(4) 1.7993(2)
O3A O 0.5680(4) 0.9064(4) 1.6628(2)
O4A O 0.5400(4) 0.9830(4) 1.8272(2)
N5A N 0.5945(4) 1.2188(4) 0.9999(3)
N6A N 0.6677(4) 1.3094(4) 1.0759(3)
H3A H 0.6803 1.2834 1.1361
C7A C 0.6037(6) 1.3005(5) 0.9219(3)
H11A H 0.5639 1.2652 0.8577
C8A C 0.6790(6) 1.4436(5) 0.9469(4)
H12A H 0.6983 1.5211 0.9051
C9A C 0.7194(6) 1.4464(5) 1.0473(4)
H13A H 0.7724 1.5274 1.0878
N7A N 0.7252(4) 0.9257(4) 1.0484(2)
N8A N 0.8056(4) 0.8493(4) 0.9892(3)
H4A H 0.7668 0.8257 0.9286
C10A C 0.8269(6) 0.9395(6) 1.1344(4)
H14A H 0.8047 0.9891 1.1900
C11A C 0.9717(6) 0.8691(7) 1.1292(4)
H15A H 1.0620 0.8612 1.1794
C12A C 0.9529(6) 0.8148(6) 1.0361(4)
H16A H 1.0296 0.7623 1.0093
O4A_2 O 0.5400(4) 0.9830(4) 0.8272(2)
Cu2_2 Cu 0.5000 1.0000 2.0000
C13 C 0.9367(12) 0.5232(11) 0.7248(7)
H17 H 1.0158 0.5507 0.7831
H18 H 0.9903 0.4771 0.6769
H19 H 0.8554 0.4512 0.7404
O5 O 0.8535(7) 0.6501(7) 0.6860(4)
H20 H 0.9212 0.7229 0.6935
loop_
_geom_bond_atom_site_label_1
_geom_bond_atom_site_label_2
_geom_bond_site_symmetry_1
_geom_bond_site_symmetry_2
Cu1 N1 1_555 1_555
Cu2 N5 1_555 1_555
N1 N2 1_555 1_555
N2 H1 1_555 1_555
N3 Cu1 1_555 1_555
N4 N3 1_555 1_555
H2 N4 1_555 1_555
N5 N6 1_555 1_555
N6 H3 1_555 1_555
N7 Cu2 1_555 1_555
N8 N7 1_555 1_555
H4 N8 1_555 1_555
S1 O1 1_555 1_555
O2 S1 1_555 1_555
O3 Cu1 1_555 1_555
O4 Cu2 1_555 1_555
C1 N1 1_555 1_555
H5 C1 1_555 1_555
C2 C1 1_555 1_555
H6 C2 1_555 1_555
C3 N2 1_555 1_555
H7 C3 1_555 1_555
C4 N3 1_555 1_555
H8 C4 1_555 1_555
C5 C4 1_555 1_555
H9 C5 1_555 1_555
C6 N4 1_555 1_555
H10 C6 1_555 1_555
C7 N5 1_555 1_555
H11 C7 1_555 1_555
C8 C7 1_555 1_555
H12 C8 1_555 1_555
C9 N6 1_555 1_555
H13 C9 1_555 1_555
C10 N7 1_555 1_555
H14 C10 1_555 1_555
C11 C10 1_555 1_555
H15 C11 1_555 1_555
C12 N8 1_555 1_555
H16 C12 1_555 1_555
C13 H17 1_555 1_555
H18 C13 1_555 1_555
H19 C13 1_555 1_555
O5 C13 1_555 1_555
H20 O5 1_555 1_555
N1A Cu1 1_555 1_555
N2A N1A 1_555 1_555
H1A N2A 1_555 1_555
C1A N1A 1_555 1_555
H5A C1A 1_555 1_555
C2A C1A 1_555 1_555
H6A C2A 1_555 1_555
C3A N2A 1_555 1_555
H7A C3A 1_555 1_555
N3A Cu1 1_555 1_555
N4A N3A 1_555 1_555
H2A N4A 1_555 1_555
C4A N3A 1_555 1_555
H8A C4A 1_555 1_555
C5A C4A 1_555 1_555
H9A C5A 1_555 1_555
C6A N4A 1_555 1_555
H10A C6A 1_555 1_555
S1A O1A 1_555 1_555
O2A S1A 1_555 1_555
O3A Cu1 1_555 1_555
O4A S1A 1_555 1_555
N5A Cu2 1_555 1_555
N6A N5A 1_555 1_555
H3A N6A 1_555 1_555
C7A N5A 1_555 1_555
H11A C7A 1_555 1_555
C8A C7A 1_555 1_555
H12A C8A 1_555 1_555
C9A N6A 1_555 1_555
H13A C9A 1_555 1_555
N7A Cu2 1_555 1_555
N8A N7A 1_555 1_555
H4A N8A 1_555 1_555
C10A N7A 1_555 1_555
H14A C10A 1_555 1_555
C11A C10A 1_555 1_555
H15A C11A 1_555 1_555
C12A N8A 1_555 1_555
H16A C12A 1_555 1_555
O4A_2 Cu2 1_555 1_555
Cu2_2 O4A 1_555 1_555
S1 O3 1_555 1_555
S1 O4 1_555 1_555
C2 C3 1_555 1_555
C5 C6 1_555 1_555
C8 C9 1_555 1_555
C11 C12 1_555 1_555
C2A C3A 1_555 1_555
C5A C6A 1_555 1_555
S1A O3A 1_555 1_555
C8A C9A 1_555 1_555
C11A C12A 1_555 1_555

#END
