
#######################################################################
#
#                 Cambridge Crystallographic Data Centre
#                                CCDC 
#
#######################################################################
#
# If this CIF has been generated from an entry in the Cambridge 
# Structural Database, then it will include bibliographic, chemical, 
# crystal, experimental, refinement or atomic coordinate data resulting 
# from the CCDC's data processing and validation procedures.
#
#######################################################################

data_XACXOQ
_symmetry_cell_setting           monoclinic
_symmetry_space_group_name_H-M   'C 2/c'
_symmetry_Int_Tables_number      15
_space_group_name_Hall           '-C 2yn'
loop_
_symmetry_equiv_pos_site_id
_symmetry_equiv_pos_as_xyz
1 x,y,z
2 -x,y,1/2-z
3 1/2+x,1/2+y,z
4 1/2-x,1/2+y,1/2-z
5 -x,-y,-z
6 x,-y,1/2+z
7 1/2-x,1/2-y,-z
8 1/2+x,1/2-y,1/2+z
_cell_length_a                   18.8858(7)
_cell_length_b                   19.6906(8)
_cell_length_c                   22.5103(9)
_cell_angle_alpha                90
_cell_angle_beta                 108.9310(10)
_cell_angle_gamma                90
_cell_volume                     7918.18
loop_
_atom_site_label
_atom_site_type_symbol
_atom_site_fract_x
_atom_site_fract_y
_atom_site_fract_z
Co1 Co 0.686243(12) 0.542286(10) 0.824484(11)
N1 N 0.76772(8) 0.61478(7) 0.81524(7)
N2 N 1.10647(8) 0.96908(7) 0.83200(7)
O1 O 0.65283(7) 0.60921(6) 0.88190(6)
O2 O 0.55714(8) 0.66253(7) 0.81219(7)
O3 O 0.71947(7) 0.47646(6) 0.76731(6)
H1 H 0.7906(14) 0.4720(12) 0.8922(12)
O4 O 0.81272(8) 0.41838(7) 0.83543(7)
O5 O 0.60563(7) 0.58356(6) 0.74260(6)
H2 H 0.5869(13) 0.6131(11) 0.7607(11)
O6 O 0.76594(7) 0.50014(6) 0.90607(6)
C1 C 0.75414(10) 0.68195(8) 0.81272(9)
H4 H 0.7068 0.6966 0.8112
C2 C 0.80661(10) 0.73004(8) 0.81222(9)
H5 H 0.7943 0.7759 0.8100
C3 C 0.87861(10) 0.70995(9) 0.81503(8)
C4 C 0.89172(10) 0.64067(9) 0.81531(9)
H6 H 0.9380 0.6246 0.8153
C5 C 0.83591(10) 0.59554(9) 0.81561(9)
H7 H 0.8462 0.5493 0.8161
C6 C 0.93979(10) 0.75765(9) 0.81966(10)
H8 H 0.9850 0.7395 0.8191
C7 C 0.93582(10) 0.82426(9) 0.82461(9)
H9 H 0.8903 0.8421 0.8248
C8 C 1.03568(9) 0.98729(8) 0.82457(8)
H10 H 1.0236 1.0332 0.8201
C9 C 0.98007(10) 0.94181(9) 0.82320(9)
H11 H 0.9318 0.9570 0.8179
C10 C 0.99647(10) 0.87267(8) 0.82982(9)
C11 C 1.07086(10) 0.85374(8) 0.83958(9)
H12 H 1.0850 0.8084 0.8458
C12 C 1.12280(10) 0.90280(8) 0.83990(9)
H13 H 1.1718 0.8893 0.8459
C13 C 0.60106(10) 0.65310(8) 0.86631(9)
C14 C 0.59193(11) 0.69796(9) 0.91747(9)
C15 C 0.53168(11) 0.74215(9) 0.90484(11)
H14 H 0.4961 0.7429 0.8650
C16 C 0.52413(15) 0.78530(11) 0.95124(13)
H15 H 0.4834 0.8146 0.9427
C17 C 0.57708(19) 0.78438(14) 1.00978(14)
H16 H 0.5724 0.8132 1.0410
C18 C 0.6363(2) 0.74152(16) 1.02210(13)
H17 H 0.6721 0.7415 1.0618
C19 C 0.64433(15) 0.69753(13) 0.97625(11)
H18 H 0.6850 0.6681 0.9854
C20 C 0.77375(10) 0.43488(9) 0.78114(9)
C21 C 0.79280(10) 0.40490(9) 0.72651(10)
C22 C 0.85039(11) 0.35752(10) 0.73723(11)
H19 H 0.8766 0.3439 0.7780
C23 C 0.86860(14) 0.33065(11) 0.68698(13)
H20 H 0.9067 0.2986 0.6941
C24 C 0.83026(15) 0.35141(12) 0.62650(13)
H21 H 0.8429 0.3338 0.5929
C25 C 0.77332(15) 0.39810(13) 0.61589(12)
H22 H 0.7475 0.4119 0.5751
C26 C 0.75434(13) 0.42458(10) 0.66562(11)
H23 H 0.7155 0.4558 0.6580
C27 C 0.81570(12) 0.53894(11) 0.95542(10)
H24 H 0.8621 0.5454 0.9472
H25 H 0.8250 0.5153 0.9945
H26 H 0.7936 0.5823 0.9578
C28 C 0.61826(12) 0.60638(11) 0.68714(10)
H27 H 0.6329 0.6533 0.6918
H28 H 0.5731 0.6015 0.6521
H29 H 0.6574 0.5798 0.6800
Co1B Co 1.186243(12) 1.042286(10) 0.824484(11)
N2B N 0.60647(8) 0.46908(7) 0.83200(7)
Co2 Co 0.2500 0.2500 0.5000
N3 N 0.17765(8) 0.16678(7) 0.49995(7)
O7 O 0.33958(7) 0.18940(6) 0.55310(6)
O8 O 0.38011(8) 0.14272(7) 0.47931(7)
O9 O 0.26239(8) 0.21101(6) 0.41603(6)
H3 H 0.3031(16) 0.1889(14) 0.4292(13)
C29 C 0.19576(10) 0.10308(9) 0.49063(9)
H30 H 0.2421 0.0954 0.4856
C30 C 0.14969(11) 0.04808(9) 0.48805(10)
H31 H 0.1645 0.0048 0.4806
C31 C 0.08085(11) 0.05808(9) 0.49678(9)
C32 C 0.06151(11) 0.12475(9) 0.50604(10)
H32 H 0.0157 0.1340 0.5115
C33 C 0.11052(10) 0.17668(9) 0.50696(9)
H33 H 0.0965 0.2208 0.5127
C34 C 0.03219(11) -0.00076(9) 0.49435(10)
H34 H 0.0480 -0.0425 0.4840
C35 C 0.37683(10) 0.14605(9) 0.53381(9)
C36 C 0.41704(10) 0.09169(9) 0.57951(9)
C37 C 0.46883(11) 0.04997(10) 0.56548(11)
H35 H 0.4813 0.0579 0.5294
C38 C 0.50209(12) -0.00355(11) 0.60505(12)
H36 H 0.5373 -0.0308 0.5957
C39 C 0.48315(14) -0.01611(12) 0.65766(13)
H37 H 0.5047 -0.0525 0.6836
C40 C 0.43165(14) 0.02532(13) 0.67263(12)
H38 H 0.4193 0.0170 0.7088
C41 C 0.39858(12) 0.07927(11) 0.63332(10)
H39 H 0.3641 0.1070 0.6432
C42 C 0.25756(14) 0.24734(11) 0.36043(10)
H40 H 0.2178 0.2800 0.3521
H41 H 0.2476 0.2162 0.3258
H42 H 0.3040 0.2704 0.3658
Co2B Co -0.2500 -0.2500 0.5000
N3D N -0.17765(8) -0.16678(7) 0.50005(7)
N3F N 0.32235(8) 0.33322(7) 0.50005(7)
O7F O 0.16042(7) 0.31060(6) 0.44690(6)
O8F O 0.11989(8) 0.35728(7) 0.52069(7)
O9F O 0.23761(8) 0.28899(6) 0.58397(6)
H3F H 0.1969(16) 0.3111(14) 0.5708(13)
C29D C -0.19576(10) -0.10308(9) 0.50937(9)
H30D H -0.2421 -0.0954 0.5144
C30D C -0.14969(11) -0.04808(9) 0.51195(10)
H31D H -0.1645 -0.0048 0.5194
C31D C -0.08085(11) -0.05808(9) 0.50322(9)
C32D C -0.06151(11) -0.12475(9) 0.49396(10)
H32D H -0.0157 -0.1340 0.4885
C33D C -0.11052(10) -0.17668(9) 0.49304(9)
H33D H -0.0965 -0.2208 0.4873
C34D C -0.03219(11) 0.00076(9) 0.50565(10)
H34D H -0.0480 0.0425 0.5160
C35F C 0.12317(10) 0.35395(9) 0.46619(9)
C36F C 0.08296(10) 0.40831(9) 0.42049(9)
C37F C 0.03117(11) 0.45003(10) 0.43452(11)
H35F H 0.0187 0.4421 0.4706
C38F C -0.00209(12) 0.50355(11) 0.39495(12)
H36F H -0.0373 0.5308 0.4043
C39F C 0.01685(14) 0.51611(12) 0.34234(13)
H37F H -0.0047 0.5525 0.3164
C40F C 0.06835(14) 0.47468(13) 0.32737(12)
H38F H 0.0807 0.4830 0.2912
C41F C 0.10142(12) 0.42073(11) 0.36668(10)
H39F H 0.1359 0.3930 0.3568
C42F C 0.24244(14) 0.25266(11) 0.63957(10)
H40F H 0.2822 0.2200 0.6479
H41F H 0.2524 0.2838 0.6742
H42F H 0.1960 0.2296 0.6342
loop_
_geom_bond_atom_site_label_1
_geom_bond_atom_site_label_2
_geom_bond_site_symmetry_1
_geom_bond_site_symmetry_2
Co1 N1 1_555 1_555
Co2 N3 1_555 1_555
N1 C1 1_555 1_555
N2 C8 1_555 1_555
N3 C29 1_555 1_555
O1 Co1 1_555 1_555
O2 C13 1_555 1_555
O3 Co1 1_555 1_555
H1 O6 1_555 1_555
O4 C20 1_555 1_555
O5 Co1 1_555 1_555
H2 O5 1_555 1_555
O6 Co1 1_555 1_555
O7 Co2 1_555 1_555
O8 C35 1_555 1_555
O9 Co2 1_555 1_555
H3 O9 1_555 1_555
C1 H4 1_555 1_555
C2 C1 1_555 1_555
H5 C2 1_555 1_555
C3 C2 1_555 1_555
C4 C3 1_555 1_555
H6 C4 1_555 1_555
C5 N1 1_555 1_555
H7 C5 1_555 1_555
C6 C3 1_555 1_555
H8 C6 1_555 1_555
C7 C6 1_555 1_555
H9 C7 1_555 1_555
C8 H10 1_555 1_555
C9 C8 1_555 1_555
H11 C9 1_555 1_555
C10 C7 1_555 1_555
C11 C10 1_555 1_555
H12 C11 1_555 1_555
C12 N2 1_555 1_555
H13 C12 1_555 1_555
C13 O1 1_555 1_555
C14 C13 1_555 1_555
C15 C14 1_555 1_555
H14 C15 1_555 1_555
C16 C15 1_555 1_555
H15 C16 1_555 1_555
C17 C16 1_555 1_555
H16 C17 1_555 1_555
C18 C17 1_555 1_555
H17 C18 1_555 1_555
C19 C14 1_555 1_555
H18 C19 1_555 1_555
C20 O3 1_555 1_555
C21 C20 1_555 1_555
C22 C21 1_555 1_555
H19 C22 1_555 1_555
C23 C22 1_555 1_555
H20 C23 1_555 1_555
C24 C23 1_555 1_555
H21 C24 1_555 1_555
C25 C24 1_555 1_555
H22 C25 1_555 1_555
C26 C21 1_555 1_555
H23 C26 1_555 1_555
C27 O6 1_555 1_555
H24 C27 1_555 1_555
H25 C27 1_555 1_555
H26 C27 1_555 1_555
C28 O5 1_555 1_555
H27 C28 1_555 1_555
H28 C28 1_555 1_555
H29 C28 1_555 1_555
C29 H30 1_555 1_555
C30 C29 1_555 1_555
H31 C30 1_555 1_555
C31 C30 1_555 1_555
C32 C31 1_555 1_555
H32 C32 1_555 1_555
C33 N3 1_555 1_555
H33 C33 1_555 1_555
C34 C31 1_555 1_555
H34 C34 1_555 1_555
C35 O7 1_555 1_555
C36 C35 1_555 1_555
C37 C36 1_555 1_555
H35 C37 1_555 1_555
C38 C37 1_555 1_555
H36 C38 1_555 1_555
C39 C38 1_555 1_555
H37 C39 1_555 1_555
C40 C39 1_555 1_555
H38 C40 1_555 1_555
C41 C36 1_555 1_555
H39 C41 1_555 1_555
C42 O9 1_555 1_555
H40 C42 1_555 1_555
H41 C42 1_555 1_555
H42 C42 1_555 1_555
Co1B N2 1_555 1_555
Co2B N3D 1_555 1_555
N2B Co1 1_555 1_555
N3D C29D 1_555 1_555
N3F Co2 1_555 1_555
O7F Co2 1_555 1_555
O8F C35F 1_555 1_555
O9F Co2 1_555 1_555
H3F O9F 1_555 1_555
C29D H30D 1_555 1_555
C30D C29D 1_555 1_555
H31D C30D 1_555 1_555
C31D C30D 1_555 1_555
C32D C31D 1_555 1_555
H32D C32D 1_555 1_555
C33D N3D 1_555 1_555
H33D C33D 1_555 1_555
C34D C34 1_555 1_555
H34D C34D 1_555 1_555
C35F O7F 1_555 1_555
C36F C35F 1_555 1_555
C37F C36F 1_555 1_555
H35F C37F 1_555 1_555
C38F C37F 1_555 1_555
H36F C38F 1_555 1_555
C39F C38F 1_555 1_555
H37F C39F 1_555 1_555
C40F C39F 1_555 1_555
H38F C40F 1_555 1_555
C41F C36F 1_555 1_555
H39F C41F 1_555 1_555
C42F O9F 1_555 1_555
H40F C42F 1_555 1_555
H41F C42F 1_555 1_555
H42F C42F 1_555 1_555
C4 C5 1_555 1_555
C9 C10 1_555 1_555
C11 C12 1_555 1_555
C18 C19 1_555 1_555
C25 C26 1_555 1_555
C32 C33 1_555 1_555
C40 C41 1_555 1_555
C31D C34D 1_555 1_555
C32D C33D 1_555 1_555
C40F C41F 1_555 1_555

#END
