
#######################################################################
#
#                 Cambridge Crystallographic Data Centre
#                                CCDC 
#
#######################################################################
#
# If this CIF has been generated from an entry in the Cambridge 
# Structural Database, then it will include bibliographic, chemical, 
# crystal, experimental, refinement or atomic coordinate data resulting 
# from the CCDC's data processing and validation procedures.
#
#######################################################################

data_XACXAC
_symmetry_cell_setting           triclinic
_symmetry_space_group_name_H-M   'P -1'
_symmetry_Int_Tables_number      2
_space_group_name_Hall           '-P 1'
loop_
_symmetry_equiv_pos_site_id
_symmetry_equiv_pos_as_xyz
1 x,y,z
2 -x,-y,-z
_cell_length_a                   8.1077(5)
_cell_length_b                   9.3923(5)
_cell_length_c                   11.5147(7)
_cell_angle_alpha                98.9080(10)
_cell_angle_beta                 97.8870(10)
_cell_angle_gamma                102.7920(10)
_cell_volume                     831.274
loop_
_atom_site_label
_atom_site_type_symbol
_atom_site_fract_x
_atom_site_fract_y
_atom_site_fract_z
Co1 Co 0.65417(3) 0.95649(3) 1.13001(2)
N1 N 0.6788(2) 0.80788(19) 0.97494(15)
C1 C 0.5755(3) 0.6696(2) 0.9406(2)
H1 H 0.4989 0.6359 0.9905
C2 C 0.5755(3) 0.5746(2) 0.8369(2)
H2 H 0.4996 0.4796 0.8169
C3 C 0.6893(3) 0.6206(2) 0.76121(18)
C4 C 0.7985(3) 0.7626(2) 0.7978(2)
H3 H 0.8785 0.7983 0.7507
C5 C 0.7894(3) 0.8510(2) 0.90327(19)
H4 H 0.8646 0.9463 0.9259
N2 N 0.6286(2) 0.10810(19) 0.28251(16)
C6 C 0.5054(3) 0.0729(2) 0.3463(2)
H5 H 0.4238 -0.0189 0.3203
C7 C 0.4915(3) 0.1646(2) 0.4488(2)
H6 H 0.4022 0.1344 0.4905
C8 C 0.6096(3) 0.3013(2) 0.49018(18)
C9 C 0.7362(3) 0.3397(2) 0.4217(2)
H7 H 0.8176 0.4319 0.4446
C10 C 0.7415(3) 0.2424(3) 0.3209(2)
H8 H 0.8280 0.2705 0.2763
C11 C 0.6990(3) 0.5286(2) 0.64889(19)
H9 H 0.7838 0.5678 0.6065
C12 C 0.5982(3) 0.3942(2) 0.60168(19)
H10 H 0.5122 0.3556 0.6435
O1 O 0.6917(2) 0.7889(2) 1.24963(17)
O2 O 0.9135(2) 0.95217(19) 1.22290(16)
C13 C 0.8470(3) 0.8493(3) 1.2694(2)
C14 C 0.9632(4) 0.7938(4) 1.3587(3)
F1 F 0.9052(4) 0.7868(5) 1.4579(2)
F2 F 1.1206(3) 0.8664(4) 1.3792(3)
F3 F 0.9632(5) 0.6538(4) 1.3169(3)
O3 O 0.7583(2) 1.13647(17) 1.06615(14)
O4 O 0.5983(2) 1.13565(19) 0.89259(14)
C15 C 0.7292(3) 1.1848(2) 0.97221(18)
C16 C 0.8650(4) 1.3126(3) 0.9540(3)
H11 H 0.8230 1.3494 0.8843
H12 H 0.9676 1.2794 0.9419
H13 H 0.8923 1.3917 1.0238
Co1A Co 0.34583(3) 1.04351(3) 0.86999(2)
Co1_2 Co 0.65417(3) -0.04351(3) 0.13001(2)
Co1A_2 Co 0.34583(3) 2.04351(3) 1.86999(2)
N1A N 0.3212(2) 1.19212(19) 1.02506(15)
C1A C 0.4245(3) 1.3304(2) 1.0594(2)
H1A H 0.5011 1.3641 1.0095
C2A C 0.4245(3) 1.4254(2) 1.1631(2)
H2A H 0.5004 1.5204 1.1831
C3A C 0.3107(3) 1.3794(2) 1.23879(18)
C4A C 0.2015(3) 1.2374(2) 1.2022(2)
H3A H 0.1215 1.2017 1.2493
C5A C 0.2106(3) 1.1490(2) 1.09673(19)
H4A H 0.1354 1.0537 1.0741
N2A N 0.3714(2) 1.89190(19) 1.71749(16)
N2_2 N 0.6286(2) 1.10810(19) 1.28251(16)
N2A_2 N 0.3714(2) 0.89190(19) 0.71749(16)
C6A C 0.4946(3) 1.9271(2) 1.6537(2)
H5A H 0.5762 2.0189 1.6797
C7A C 0.5085(3) 1.8354(2) 1.5512(2)
H6A H 0.5978 1.8656 1.5095
C8A C 0.3904(3) 1.6987(2) 1.50982(18)
C9A C 0.2638(3) 1.6603(2) 1.5783(2)
H7A H 0.1824 1.5681 1.5554
C10A C 0.2585(3) 1.7576(3) 1.6791(2)
H8A H 0.1720 1.7295 1.7237
C11A C 0.3010(3) 1.4714(2) 1.35111(19)
H9A H 0.2162 1.4322 1.3935
C12A C 0.4018(3) 1.6058(2) 1.39832(19)
H10A H 0.4878 1.6444 1.3565
O1A O 0.3083(2) 1.2111(2) 0.75037(17)
O2A O 0.0865(2) 1.04783(19) 0.77710(16)
C13A C 0.1530(3) 1.1507(3) 0.7306(2)
C14A C 0.0368(4) 1.2062(4) 0.6413(3)
F1A F 0.0948(4) 1.2132(5) 0.5421(2)
F2A F -0.1206(3) 1.1336(4) 0.6208(3)
F3A F 0.0368(5) 1.3462(4) 0.6831(3)
O3A O 0.2417(2) 0.86353(17) 0.93385(14)
O4A O 0.4017(2) 0.86435(19) 1.10741(14)
C15A C 0.2708(3) 0.8152(2) 1.02779(18)
C16A C 0.1350(4) 0.6874(3) 1.0460(3)
H11A H 0.1770 0.6506 1.1157
H12A H 0.0324 0.7206 1.0581
H13A H 0.1077 0.6083 0.9762
loop_
_geom_bond_atom_site_label_1
_geom_bond_atom_site_label_2
_geom_bond_site_symmetry_1
_geom_bond_site_symmetry_2
Co1 N1 1_555 1_555
N1 C1 1_555 1_555
C1 H1 1_555 1_555
C2 C1 1_555 1_555
H2 C2 1_555 1_555
C3 C2 1_555 1_555
C4 C3 1_555 1_555
H3 C4 1_555 1_555
C5 N1 1_555 1_555
H4 C5 1_555 1_555
N2 C6 1_555 1_555
C6 H5 1_555 1_555
C7 C6 1_555 1_555
H6 C7 1_555 1_555
C8 C7 1_555 1_555
C9 C8 1_555 1_555
H7 C9 1_555 1_555
C10 N2 1_555 1_555
H8 C10 1_555 1_555
C11 C3 1_555 1_555
H9 C11 1_555 1_555
C12 C8 1_555 1_555
H10 C12 1_555 1_555
O1 Co1 1_555 1_555
O2 Co1 1_555 1_555
C13 O1 1_555 1_555
C14 C13 1_555 1_555
F1 C14 1_555 1_555
F2 C14 1_555 1_555
F3 C14 1_555 1_555
O3 Co1 1_555 1_555
O4 C15 1_555 1_555
C15 O3 1_555 1_555
C16 C15 1_555 1_555
H11 C16 1_555 1_555
H12 C16 1_555 1_555
H13 C16 1_555 1_555
Co1A O4 1_555 1_555
Co1_2 N2 1_555 1_555
Co1A_2 N2A 1_555 1_555
N1A Co1A 1_555 1_555
C1A N1A 1_555 1_555
H1A C1A 1_555 1_555
C2A C1A 1_555 1_555
H2A C2A 1_555 1_555
C3A C2A 1_555 1_555
C4A C3A 1_555 1_555
H3A C4A 1_555 1_555
C5A N1A 1_555 1_555
H4A C5A 1_555 1_555
N2A C6A 1_555 1_555
N2_2 Co1 1_555 1_555
N2A_2 Co1A 1_555 1_555
C6A H5A 1_555 1_555
C7A C6A 1_555 1_555
H6A C7A 1_555 1_555
C8A C7A 1_555 1_555
C9A C8A 1_555 1_555
H7A C9A 1_555 1_555
C10A N2A 1_555 1_555
H8A C10A 1_555 1_555
C11A C3A 1_555 1_555
H9A C11A 1_555 1_555
C12A C8A 1_555 1_555
H10A C12A 1_555 1_555
O1A Co1A 1_555 1_555
O2A Co1A 1_555 1_555
C13A O1A 1_555 1_555
C14A C13A 1_555 1_555
F1A C14A 1_555 1_555
F2A C14A 1_555 1_555
F3A C14A 1_555 1_555
O3A Co1A 1_555 1_555
O4A Co1 1_555 1_555
C15A O3A 1_555 1_555
C16A C15A 1_555 1_555
H11A C16A 1_555 1_555
H12A C16A 1_555 1_555
H13A C16A 1_555 1_555
C4 C5 1_555 1_555
C9 C10 1_555 1_555
C11 C12 1_555 1_555
O2 C13 1_555 1_555
C4A C5A 1_555 1_555
C9A C10A 1_555 1_555
C11A C12A 1_555 1_555
O2A C13A 1_555 1_555
O4A C15A 1_555 1_555

#END
