
#######################################################################
#
#                 Cambridge Crystallographic Data Centre
#                                CCDC 
#
#######################################################################
#
# If this CIF has been generated from an entry in the Cambridge 
# Structural Database, then it will include bibliographic, chemical, 
# crystal, experimental, refinement or atomic coordinate data resulting 
# from the CCDC's data processing and validation procedures.
#
#######################################################################

data_XACXIK
_symmetry_cell_setting           orthorhombic
_symmetry_space_group_name_H-M   'P n a 21'
_symmetry_Int_Tables_number      33
_space_group_name_Hall           'P 2c -2n'
loop_
_symmetry_equiv_pos_site_id
_symmetry_equiv_pos_as_xyz
1 x,y,z
2 -x,-y,1/2+z
3 1/2+x,1/2-y,z
4 1/2-x,1/2+y,1/2+z
_cell_length_a                   19.6520(16)
_cell_length_b                   16.7973(14)
_cell_length_c                   10.6280(9)
_cell_angle_alpha                90
_cell_angle_beta                 90
_cell_angle_gamma                90
_cell_volume                     3508.31
loop_
_atom_site_label
_atom_site_type_symbol
_atom_site_fract_x
_atom_site_fract_y
_atom_site_fract_z
Co1 Co 0.487877(15) 0.260812(18) 0.26895(5)
N1 N 0.41301(11) 0.33693(13) 0.3550(2)
C1 C 0.41154(13) 0.41551(16) 0.3373(3)
H1 H 0.4477 0.4394 0.2932
C2 C 0.35968(14) 0.46340(17) 0.3804(3)
H2 H 0.3609 0.5186 0.3657
C3 C 0.30550(14) 0.42989(17) 0.4459(3)
C4 C 0.30638(14) 0.34843(17) 0.4623(3)
H3 H 0.2705 0.3227 0.5044
C5 C 0.36084(14) 0.30489(17) 0.4161(3)
H4 H 0.3608 0.2495 0.4286
N2 N 0.09543(10) 0.69421(13) 0.6894(2)
C6 C 0.14546(14) 0.72752(17) 0.6214(3)
H5 H 0.1448 0.7829 0.6091
C7 C 0.19776(13) 0.68412(17) 0.5688(3)
H6 H 0.2319 0.7101 0.5224
C8 C 0.19999(13) 0.60240(17) 0.5844(3)
C9 C 0.14881(14) 0.56800(17) 0.6562(3)
H7 H 0.1483 0.5127 0.6701
C10 C 0.09861(13) 0.61603(17) 0.7071(3)
H8 H 0.0649 0.5920 0.7569
C11 C 0.25045(14) 0.47782(18) 0.5001(3)
H9 H 0.2096 0.4515 0.5198
C12 C 0.25355(14) 0.55530(18) 0.5234(3)
H10 H 0.2933 0.5823 0.4989
O1 O 0.55280(9) 0.18394(12) 0.1677(2)
O2 O 0.63990(11) 0.13851(15) 0.2819(3)
O3 O 0.48551(9) 0.33884(12) 0.11768(18)
O4 O 0.59026(9) 0.34827(12) 0.03626(19)
O5 O 0.56992(9) 0.31416(12) 0.36485(18)
O6 O 0.65562(10) 0.33675(14) 0.23154(19)
O7 O 0.48000(10) 0.18845(13) 0.42433(18)
O8 O 0.57519(12) 0.12562(14) 0.4771(2)
H11 H 0.607(2) 0.126(3) 0.356(4)
H12 H 0.619(2) 0.331(2) 0.141(4)
C13 C 0.65183(14) 0.14199(17) 0.0614(3)
C14 C 0.62447(18) 0.1568(2) -0.0551(3)
H13 H 0.5797 0.1760 -0.0615
C15 C 0.6621(2) 0.1439(3) -0.1630(4)
H14 H 0.6429 0.1535 -0.2426
C16 C 0.7281(2) 0.1166(3) -0.1526(4)
H15 H 0.7543 0.1082 -0.2254
C17 C 0.75506(19) 0.1020(3) -0.0383(5)
H16 H 0.8000 0.0834 -0.0323
C18 C 0.71781(16) 0.1140(2) 0.0703(4)
H17 H 0.7371 0.1033 0.1494
C19 C 0.61068(14) 0.15647(17) 0.1774(3)
C20 C 0.49755(14) 0.39024(18) -0.0871(3)
C21 C 0.52939(16) 0.37783(19) -0.2025(3)
H18 H 0.5697 0.3478 -0.2061
C22 C 0.50243(19) 0.4090(2) -0.3115(3)
H19 H 0.5235 0.3993 -0.3893
C23 C 0.44379(18) 0.4550(2) -0.3054(4)
H20 H 0.4256 0.4773 -0.3793
C24 C 0.41257(17) 0.4679(2) -0.1935(3)
H21 H 0.3729 0.4991 -0.1902
C25 C 0.43872(15) 0.43542(19) -0.0838(3)
H22 H 0.4164 0.4441 -0.0068
C26 C 0.52622(14) 0.35596(16) 0.0319(3)
C27 C 0.67936(14) 0.34150(18) 0.4478(3)
C28 C 0.66239(17) 0.3180(2) 0.5681(3)
H23 H 0.6204 0.2928 0.5830
C29 C 0.70686(19) 0.3314(2) 0.6675(3)
H24 H 0.6952 0.3154 0.7495
C30 C 0.76829(19) 0.3685(3) 0.6448(4)
H25 H 0.7983 0.3788 0.7118
C31 C 0.78557(18) 0.3902(2) 0.5249(4)
H26 H 0.8280 0.4142 0.5097
C32 C 0.74156(15) 0.3773(2) 0.4263(3)
H27 H 0.7538 0.3929 0.3445
C33 C 0.63022(14) 0.32881(18) 0.3428(3)
C34 C 0.48846(14) 0.13558(19) 0.6268(3)
C35 C 0.45542(18) 0.1959(2) 0.6910(3)
H28 H 0.4492 0.2458 0.6526
C36 C 0.4317(2) 0.1829(3) 0.8106(4)
H29 H 0.4104 0.2242 0.8555
C37 C 0.4392(2) 0.1092(4) 0.8640(4)
H30 H 0.4236 0.1007 0.9465
C38 C 0.4686(2) 0.0486(3) 0.8008(5)
H31 H 0.4712 -0.0023 0.8370
C39 C 0.4950(2) 0.0626(3) 0.6810(4)
H32 H 0.5174 0.0215 0.6376
C40 C 0.51635(14) 0.15127(17) 0.4989(3)
Co1C Co 0.012123(15) 0.760812(18) 0.76895(5)
N2C N 0.40457(10) 0.19421(13) 0.1894(2)
loop_
_geom_bond_atom_site_label_1
_geom_bond_atom_site_label_2
_geom_bond_site_symmetry_1
_geom_bond_site_symmetry_2
Co1 N1 1_555 1_555
N1 C1 1_555 1_555
C1 H1 1_555 1_555
C2 C1 1_555 1_555
H2 C2 1_555 1_555
C3 C2 1_555 1_555
C4 C3 1_555 1_555
H3 C4 1_555 1_555
C5 N1 1_555 1_555
H4 C5 1_555 1_555
N2 C6 1_555 1_555
C6 H5 1_555 1_555
C7 C6 1_555 1_555
H6 C7 1_555 1_555
C8 C7 1_555 1_555
C9 C8 1_555 1_555
H7 C9 1_555 1_555
C10 N2 1_555 1_555
H8 C10 1_555 1_555
C11 C3 1_555 1_555
H9 C11 1_555 1_555
C12 C8 1_555 1_555
H10 C12 1_555 1_555
O1 Co1 1_555 1_555
O2 H11 1_555 1_555
O3 Co1 1_555 1_555
O4 C26 1_555 1_555
O5 Co1 1_555 1_555
O6 H12 1_555 1_555
O7 Co1 1_555 1_555
O8 C40 1_555 1_555
C13 C14 1_555 1_555
C14 H13 1_555 1_555
C15 C14 1_555 1_555
H14 C15 1_555 1_555
C16 C15 1_555 1_555
H15 C16 1_555 1_555
C17 C16 1_555 1_555
H16 C17 1_555 1_555
C18 C13 1_555 1_555
H17 C18 1_555 1_555
C19 O1 1_555 1_555
C20 C21 1_555 1_555
C21 H18 1_555 1_555
C22 C21 1_555 1_555
H19 C22 1_555 1_555
C23 C22 1_555 1_555
H20 C23 1_555 1_555
C24 C23 1_555 1_555
H21 C24 1_555 1_555
C25 C20 1_555 1_555
H22 C25 1_555 1_555
C26 O3 1_555 1_555
C27 C28 1_555 1_555
C28 H23 1_555 1_555
C29 C28 1_555 1_555
H24 C29 1_555 1_555
C30 C29 1_555 1_555
H25 C30 1_555 1_555
C31 C30 1_555 1_555
H26 C31 1_555 1_555
C32 C27 1_555 1_555
H27 C32 1_555 1_555
C33 O5 1_555 1_555
C34 C35 1_555 1_555
C35 H28 1_555 1_555
C36 C35 1_555 1_555
H29 C36 1_555 1_555
C37 C36 1_555 1_555
H30 C37 1_555 1_555
C38 C37 1_555 1_555
H31 C38 1_555 1_555
C39 C34 1_555 1_555
H32 C39 1_555 1_555
C40 O7 1_555 1_555
Co1C N2 1_555 1_555
N2C Co1 1_555 1_555
C4 C5 1_555 1_555
C9 C10 1_555 1_555
C11 C12 1_555 1_555
O2 C19 1_555 1_555
O6 C33 1_555 1_555
C13 C19 1_555 1_555
C17 C18 1_555 1_555
C20 C26 1_555 1_555
C24 C25 1_555 1_555
C27 C33 1_555 1_555
C31 C32 1_555 1_555
C34 C40 1_555 1_555
C38 C39 1_555 1_555

#END
