
#######################################################################
#
#                 Cambridge Crystallographic Data Centre
#                                CCDC 
#
#######################################################################
#
# If this CIF has been generated from an entry in the Cambridge 
# Structural Database, then it will include bibliographic, chemical, 
# crystal, experimental, refinement or atomic coordinate data resulting 
# from the CCDC's data processing and validation procedures.
#
#######################################################################

data_XACYUV
_symmetry_cell_setting           monoclinic
_symmetry_space_group_name_H-M   'P 21/n'
_symmetry_Int_Tables_number      14
_space_group_name_Hall           '-P 2yn'
loop_
_symmetry_equiv_pos_site_id
_symmetry_equiv_pos_as_xyz
1 x,y,z
2 1/2-x,1/2+y,1/2-z
3 -x,-y,-z
4 1/2+x,1/2-y,1/2+z
_cell_length_a                   7.420(2)
_cell_length_b                   3.449(1)
_cell_length_c                   24.906(3)
_cell_angle_alpha                90
_cell_angle_beta                 94.89(1)
_cell_angle_gamma                90
_cell_volume                     635.064
loop_
_atom_site_label
_atom_site_type_symbol
_atom_site_fract_x
_atom_site_fract_y
_atom_site_fract_z
Li1 Li 0.389(1) -0.389(2) 0.6288(3)
O1 O 0.5072 -0.8896 0.6615
O2 O 0.4552(4) -0.327(1) 0.5571(1)
N1 N 0.1270(4) -0.592(1) 0.6079(1)
N2 N 0.0528(3) -0.7409(7) 0.55987(8)
N3 N -0.1613(5) -0.793(1) 0.6168(1)
N4 N 0.0153(5) -0.503(1) 0.6933(1)
O3 O -0.2215(4) -1.0189(9) 0.5278(1)
O4 O 0.1555(4) -0.328(1) 0.7079(1)
O5 O -0.1053(5) -0.565(1) 0.7226(1)
C1 C -0.1249(5) -0.863(1) 0.5668(2)
C2 C -0.0062(5) -0.629(1) 0.6378(1)
H1 H 0.1115 -0.7572 0.5275
H2 H 0.5391 -0.9161 0.6933
H3 H 0.6231 -0.7501 0.6523
H4 H 0.3750 -0.2581 0.5292
H5 H 0.5443 -0.2261 0.5515
O1_2 O 0.5072 0.1104 0.6615
Li1_2 Li 0.389(1) -1.389(2) 0.6288(3)
Li1_3 Li 0.389(1) 0.611(2) 0.6288(3)
H2_2 H 0.5391 0.0839 0.6933
H3_2 H 0.6231 0.2499 0.6523
O1_3 O 0.5072 1.1104 0.6615
O2_2 O 0.4552(4) 0.673(1) 0.5571(1)
N1_2 N 0.1270(4) 0.408(1) 0.6079(1)
H2_3 H 0.5391 1.0839 0.6933
H3_3 H 0.6231 1.2499 0.6523
H4_2 H 0.3750 0.7419 0.5292
H5_2 H 0.5443 0.7739 0.5515
N2_2 N 0.0528(3) 0.2591(7) 0.55987(8)
C2_2 C -0.0062(5) 0.371(1) 0.6378(1)
C1_2 C -0.1249(5) 0.137(1) 0.5668(2)
H1_2 H 0.1115 0.2428 0.5275
N3_2 N -0.1613(5) 0.207(1) 0.6168(1)
N4_2 N 0.0153(5) 0.497(1) 0.6933(1)
O3_2 O -0.2215(4) -0.0189(9) 0.5278(1)
O4_2 O 0.1555(4) 0.672(1) 0.7079(1)
O5_2 O -0.1053(5) 0.435(1) 0.7226(1)
loop_
_geom_bond_atom_site_label_1
_geom_bond_atom_site_label_2
_geom_bond_site_symmetry_1
_geom_bond_site_symmetry_2
Li1 O1 1_555 1_555
O1 H2 1_555 1_555
O2 Li1 1_555 1_555
N1 Li1 1_555 1_555
N2 N1 1_555 1_555
N3 C1 1_555 1_555
N4 O4 1_555 1_555
O3 C1 1_555 1_555
O5 N4 1_555 1_555
C1 N2 1_555 1_555
C2 N1 1_555 1_555
H1 N2 1_555 1_555
H3 O1 1_555 1_555
H4 O2 1_555 1_555
H5 O2 1_555 1_555
O1_2 Li1 1_555 1_555
Li1_2 O1 1_555 1_555
Li1_3 O1_2 1_555 1_555
H2_2 O1_2 1_555 1_555
H3_2 O1_2 1_555 1_555
O1_3 Li1_3 1_555 1_555
O2_2 Li1_3 1_555 1_555
N1_2 Li1_3 1_555 1_555
H2_3 O1_3 1_555 1_555
H3_3 O1_3 1_555 1_555
H4_2 O2_2 1_555 1_555
H5_2 O2_2 1_555 1_555
N2_2 N1_2 1_555 1_555
C2_2 N1_2 1_555 1_555
C1_2 N2_2 1_555 1_555
H1_2 N2_2 1_555 1_555
N3_2 C2_2 1_555 1_555
N4_2 C2_2 1_555 1_555
O3_2 C1_2 1_555 1_555
O4_2 N4_2 1_555 1_555
O5_2 N4_2 1_555 1_555
N3 C2 1_555 1_555
N4 C2 1_555 1_555
C1_2 N3_2 1_555 1_555

#END
