
#######################################################################
#
#                 Cambridge Crystallographic Data Centre
#                                CCDC 
#
#######################################################################
#
# If this CIF has been generated from an entry in the Cambridge 
# Structural Database, then it will include bibliographic, chemical, 
# crystal, experimental, refinement or atomic coordinate data resulting 
# from the CCDC's data processing and validation procedures.
#
#######################################################################

data_XACZEG
_symmetry_cell_setting           monoclinic
_symmetry_space_group_name_H-M   'P 21/n'
_symmetry_Int_Tables_number      14
_space_group_name_Hall           '-P 2yn'
loop_
_symmetry_equiv_pos_site_id
_symmetry_equiv_pos_as_xyz
1 x,y,z
2 1/2-x,1/2+y,1/2-z
3 -x,-y,-z
4 1/2+x,1/2-y,1/2+z
_cell_length_a                   6.7966(6)
_cell_length_b                   9.5184(9)
_cell_length_c                   12.2013(11)
_cell_angle_alpha                90
_cell_angle_beta                 99.091(2)
_cell_angle_gamma                90
_cell_volume                     779.421
loop_
_atom_site_label
_atom_site_type_symbol
_atom_site_fract_x
_atom_site_fract_y
_atom_site_fract_z
In1 In 0.6914(1) 0.2875(1) 0.6247(1)
C1 C 0.8191(24) 0.3198(16) 0.4792(11)
C2 C 0.3921(19) 0.2797(16) 0.6558(14)
C3 C 0.8776(18) 0.0904(13) 0.7213(11)
C4 C 0.8083(28) 0.0010(16) 0.6311(12)
C5 C 0.6461(25) -0.0664(15) 0.6507(11)
C6 C 0.6151(21) -0.0304(13) 0.7586(12)
C7 C 0.7525(23) 0.0690(14) 0.7982(11)
H1 H 0.9617(24) 0.3165(16) 0.4974(11)
H2 H 0.7791(24) 0.4099(16) 0.4481(11)
H3 H 0.7744(24) 0.2476(16) 0.4261(11)
H4 H 0.3917(19) 0.2632(16) 0.7334(14)
H5 H 0.3223(19) 0.2051(16) 0.6133(14)
H6 H 0.3273(19) 0.3675(16) 0.6348(14)
H7 H 1.0213(18) 0.0999(13) 0.7464(11)
H8 H 0.8671(28) -0.0091(16) 0.5676(12)
H9 H 0.5674(25) -0.1265(15) 0.6021(11)
H10 H 0.4774(21) -0.0144(13) 0.7700(12)
H11 H 0.7604(23) 0.1148(14) 0.8661(11)
C6A C 0.8849(21) 0.4696(13) 0.7414(12)
H10A H 1.0226(21) 0.4856(13) 0.7300(12)
In1A In 0.8086(1) -0.2125(1) 0.8753(1)
loop_
_geom_bond_atom_site_label_1
_geom_bond_atom_site_label_2
_geom_bond_site_symmetry_1
_geom_bond_site_symmetry_2
In1 C1 1_555 1_555
C1 H1 1_555 1_555
C2 In1 1_555 1_555
C3 In1 1_555 1_555
C4 C3 1_555 1_555
C5 C4 1_555 1_555
C6 C5 1_555 1_555
C7 C3 1_555 1_555
H2 C1 1_555 1_555
H3 C1 1_555 1_555
H4 C2 1_555 1_555
H5 C2 1_555 1_555
H6 C2 1_555 1_555
H7 C3 1_555 1_555
H8 C4 1_555 1_555
H9 C5 1_555 1_555
H10 C6 1_555 1_555
H11 C7 1_555 1_555
C6A In1 1_555 1_555
H10A C6A 1_555 1_555
In1A C6 1_555 1_555
C6 C7 1_555 1_555

#END
