
#######################################################################
#
#                 Cambridge Crystallographic Data Centre
#                                CCDC 
#
#######################################################################
#
# If this CIF has been generated from an entry in the Cambridge 
# Structural Database, then it will include bibliographic, chemical, 
# crystal, experimental, refinement or atomic coordinate data resulting 
# from the CCDC's data processing and validation procedures.
#
#######################################################################

data_XADCUC
_symmetry_cell_setting           orthorhombic
_symmetry_space_group_name_H-M   'I 21 21 21'
_symmetry_Int_Tables_number      24
_space_group_name_Hall           'I 2b 2c'
loop_
_symmetry_equiv_pos_site_id
_symmetry_equiv_pos_as_xyz
1 x,y,z
2 -x,1/2-y,z
3 x,-y,1/2-z
4 -x,1/2+y,1/2-z
5 1/2+x,1/2+y,1/2+z
6 1/2-x,-y,1/2+z
7 1/2+x,1/2-y,-z
8 1/2-x,y,-z
_cell_length_a                   15.525(3)
_cell_length_b                   18.764(4)
_cell_length_c                   34.496(7)
_cell_angle_alpha                90
_cell_angle_beta                 90
_cell_angle_gamma                90
_cell_volume                     10049.1
loop_
_atom_site_label
_atom_site_type_symbol
_atom_site_fract_x
_atom_site_fract_y
_atom_site_fract_z
C1 C 1.0707(13) 1.1736(10) 0.1703(8)
H1 H 1.054 1.1779 0.1446
C2 C 1.116(2) 1.2384(14) 0.2286(6)
H2 H 1.1395 1.2777 0.2411
C3 C 1.0917(13) 1.1702(6) 0.2489(5)
H3 H 1.0914 1.1698 0.2758
C4 C 1.0666(10) 1.0999(8) 0.2270(3)
H4 H 1.0553 1.06 0.2421
C5 C 1.0598(7) 1.0919(12) 0.1870(3)
C6 C 1.0120(11) 1.0513(5) 0.1677(3)
H5 H 1.049 1.0176 0.1543
H6 H 0.9845 1.0801 0.1479
C7 C 0.9559(5) 0.9313(3) 0.18014(13)
H7 H 1.0158 0.9203 0.1856
H8 H 0.9205 0.9027 0.1973
C8 C 0.9483(3) 0.83601(19) 0.13133(12)
H9 H 0.9196 0.8074 0.1509
H10 H 1.0091 0.8241 0.1314
C9 C 0.9098(3) 0.8213(2) 0.09171(11)
H11 H 0.9414 0.8472 0.0719
H12 H 0.9132 0.7708 0.0859
C10 C 0.7775(3) 0.8485(3) 0.05371(14)
H13 H 0.8114 0.8795 0.0372
H14 H 0.7779 0.8013 0.0422
C11 C 0.6754(3) 0.9457(4) 0.0607(2)
H15 H 0.6159 0.9568 0.0545
H16 H 0.7118 0.9731 0.0434
C12 C 0.6898(6) 1.0466(4) 0.1122(3)
H17 H 0.7216 1.0736 0.0929
H18 H 0.6304 1.0625 0.1117
C13 C 0.7250(8) 1.0587(4) 0.1489(2)
H19 H 0.6924 1.0326 0.1683
H20 H 0.7218 1.109 0.1551
C14 C 0.8539(9) 1.0341(3) 0.18830(17)
H21 H 0.854 1.0819 0.1989
H22 H 0.8194 1.0044 0.2053
C15 C 0.6272(6) 0.8188(8) 0.0705(4)
H23 H 0.645 0.8069 0.0967
H24 H 0.5704 0.8401 0.0722
C16 C 0.6205(11) 0.7531(10) 0.0483(10)
C17 C 0.604(2) 0.7246(19) -0.0002(10)
H25 H 0.5887 0.7542 -0.0207
C18 C 0.6149(17) 0.6574(14) -0.0025(8)
H26 H 0.6127 0.6294 -0.0247
C19 C 0.6334(12) 0.6319(8) 0.0396(9)
H27 H 0.6188 0.5841 0.0368
C20 C 0.657(2) 0.695(2) 0.087(2)
H28 H 0.6742 0.7099 0.1117
C21 C 0.7425(4) 0.8354(3) 0.18178(16)
C22 C 0.6967(4) 0.8290(3) 0.22016(14)
C23 C 0.6525(3) 0.8837(2) 0.23461(13)
H29 H 0.6504 0.9263 0.2209
C24 C 0.6091(3) 0.8784(2) 0.26999(13)
H30 H 0.5765 0.9164 0.2791
C25 C 0.6149(3) 0.8156(2) 0.29146(12)
C26 C 0.6662(5) 0.7602(3) 0.27780(19)
H31 H 0.6744 0.7197 0.2929
C27 C 0.7057(5) 0.7654(3) 0.2411(2)
H32 H 0.7372 0.7275 0.2311
C28 C 0.5806(3) 0.7536(2) 0.34965(9)
H33 H 0.6318 0.7589 0.3655
H34 H 0.5861 0.7105 0.3343
C29 C 0.50000 0.75000 0.37520(12)
C30 C 0.4897(3) 0.81601(17) 0.39969(9)
H35 H 0.4882 0.8581 0.3834
H36 H 0.4365 0.8137 0.4144
C31 C 0.5560(2) 0.86319(17) 0.45686(9)
C32 C 0.6279(2) 0.86298(19) 0.48136(11)
H37 H 0.6745 0.8335 0.4758
C33 C 0.6302(2) 0.90602(18) 0.51365(10)
H38 H 0.6787 0.9059 0.5295
C34 C 0.5611(2) 0.94946(18) 0.52286(10)
C35 C 0.4901(2) 0.9496(2) 0.49759(12)
H39 H 0.4429 0.9783 0.5032
C36 C 0.4889(2) 0.9078(2) 0.46452(11)
H40 H 0.4424 0.9101 0.4476
C37 C 0.5631(3) 0.9960(2) 0.55779(11)
N1 N 1.0983(9) 1.2357(8) 0.1855(5)
N2 N 0.9402(8) 1.0076(3) 0.18798(13)
N3 N 0.9364(2) 0.91275(15) 0.13976(9)
H41 H 0.9746 0.9369 0.1247
N4 N 0.8194(2) 0.84446(16) 0.09222(9)
H42 H 0.7893 0.8124 0.1067
N5 N 0.6896(3) 0.8744(3) 0.05445(17)
N6 N 0.6939(3) 0.9676(3) 0.10231(17)
H43 H 0.6554 0.9447 0.1178
N7 N 0.8132(6) 1.0358(2) 0.14943(13)
H44 H 0.8436 1.0673 0.1348
N8 N 0.654(3) 0.6311(16) 0.0749(12)
Ni1 Ni 0.81551(3) 0.93962(2) 0.120725(14)
O1 O 0.7546(3) 0.89515(18) 0.16944(11)
O2 O 0.7556(4) 0.7777(2) 0.16196(13)
O3 O 0.5695(2) 0.81483(15) 0.32485(8)
O4 O 0.56282(17) 0.81899(14) 0.42566(7)
O5 O 0.86275(17) 0.99397(14) 0.07247(8)
O6 O 0.4940(2) 1.0188(2) 0.57062(10)
C28A C 0.4194(3) 0.7464(2) 0.34965(9)
C30A C 0.5103(3) 0.68399(17) 0.39969(9)
C37E C 0.9369(3) 1.0040(2) 0.05779(11)
O5E O 0.63725(17) 1.00603(14) 0.57247(8)
loop_
_geom_bond_atom_site_label_1
_geom_bond_atom_site_label_2
_geom_bond_site_symmetry_1
_geom_bond_site_symmetry_2
C1 H1 1_555 1_555
C2 H2 1_555 1_555
C3 C2 1_555 1_555
H3 C3 1_555 1_555
C4 C3 1_555 1_555
H4 C4 1_555 1_555
C5 C1 1_555 1_555
C6 C5 1_555 1_555
H5 C6 1_555 1_555
H6 C6 1_555 1_555
C7 H7 1_555 1_555
H8 C7 1_555 1_555
C8 H9 1_555 1_555
H10 C8 1_555 1_555
C9 C8 1_555 1_555
H11 C9 1_555 1_555
H12 C9 1_555 1_555
C10 H13 1_555 1_555
H14 C10 1_555 1_555
C11 H15 1_555 1_555
H16 C11 1_555 1_555
C12 H17 1_555 1_555
H18 C12 1_555 1_555
C13 C12 1_555 1_555
H19 C13 1_555 1_555
H20 C13 1_555 1_555
C14 H21 1_555 1_555
H22 C14 1_555 1_555
C15 H23 1_555 1_555
H24 C15 1_555 1_555
C16 C15 1_555 1_555
C17 C16 1_555 1_555
H25 C17 1_555 1_555
C18 C17 1_555 1_555
H26 C18 1_555 1_555
C19 C18 1_555 1_555
H27 C19 1_555 1_555
C20 C16 1_555 1_555
H28 C20 1_555 1_555
C21 C22 1_555 1_555
C22 C23 1_555 1_555
C23 H29 1_555 1_555
C24 C23 1_555 1_555
H30 C24 1_555 1_555
C25 C24 1_555 1_555
C26 C25 1_555 1_555
H31 C26 1_555 1_555
C27 C22 1_555 1_555
H32 C27 1_555 1_555
C28 H33 1_555 1_555
H34 C28 1_555 1_555
C29 C28 1_555 1_555
C30 C29 1_555 1_555
H35 C30 1_555 1_555
H36 C30 1_555 1_555
C31 C32 1_555 1_555
C32 H37 1_555 1_555
C33 C32 1_555 1_555
H38 C33 1_555 1_555
C34 C33 1_555 1_555
C35 C34 1_555 1_555
H39 C35 1_555 1_555
C36 C31 1_555 1_555
H40 C36 1_555 1_555
C37 C34 1_555 1_555
N1 C1 1_555 1_555
N2 C6 1_555 1_555
N3 C7 1_555 1_555
H41 N3 1_555 1_555
N4 C9 1_555 1_555
H42 N4 1_555 1_555
N5 C10 1_555 1_555
N6 C11 1_555 1_555
H43 N6 1_555 1_555
N7 C13 1_555 1_555
H44 N7 1_555 1_555
N8 C19 1_555 1_555
Ni1 N3 1_555 1_555
O1 C21 1_555 1_555
O2 C21 1_555 1_555
O3 C25 1_555 1_555
O4 C30 1_555 1_555
O5 Ni1 1_555 1_555
O6 C37 1_555 1_555
C28A C29 1_555 1_555
C30A C29 1_555 1_555
C37E O5 1_555 1_555
O5E C37 1_555 1_555
C2 N1 1_555 1_555
C4 C5 1_555 1_555
C7 N2 1_555 1_555
C8 N3 1_555 1_555
C10 N4 1_555 1_555
C11 N5 1_555 1_555
C12 N6 1_555 1_555
C14 N2 1_555 1_555
C14 N7 1_555 1_555
C15 N5 1_555 1_555
C20 N8 1_555 1_555
C26 C27 1_555 1_555
C28 O3 1_555 1_555
C31 O4 1_555 1_555
C35 C36 1_555 1_555
N4 Ni1 1_555 1_555
N6 Ni1 1_555 1_555
N7 Ni1 1_555 1_555
Ni1 O1 1_555 1_555

#END
