
#######################################################################
#
#                 Cambridge Crystallographic Data Centre
#                                CCDC 
#
#######################################################################
#
# If this CIF has been generated from an entry in the Cambridge 
# Structural Database, then it will include bibliographic, chemical, 
# crystal, experimental, refinement or atomic coordinate data resulting 
# from the CCDC's data processing and validation procedures.
#
#######################################################################

data_XADDAJ01
_symmetry_cell_setting           triclinic
_symmetry_space_group_name_H-M   'P -1'
_symmetry_Int_Tables_number      2
_space_group_name_Hall           '-P 1'
loop_
_symmetry_equiv_pos_site_id
_symmetry_equiv_pos_as_xyz
1 x,y,z
2 -x,-y,-z
_cell_length_a                   12.903(3)
_cell_length_b                   13.782(3)
_cell_length_c                   27.912(6)
_cell_angle_alpha                75.64(3)
_cell_angle_beta                 79.46(3)
_cell_angle_gamma                85.71(3)
_cell_volume                     4725.1
loop_
_atom_site_label
_atom_site_type_symbol
_atom_site_fract_x
_atom_site_fract_y
_atom_site_fract_z
Tb1 Tb -0.11984(3) 2.02123(2) -0.446350(11)
Tb2 Tb -0.52995(3) 1.53812(3) -0.585110(12)
Tb3 Tb 0.03018(3) 1.87474(2) -0.939543(11)
Tb4 Tb -0.48348(3) 1.47940(3) -0.085777(12)
O1 O -0.0543(4) 1.9323(4) -0.52795(19)
O2 O -0.2007(4) 1.9002(4) -0.4746(2)
O3 O -0.4006(5) 1.5666(4) -0.5440(2)
O4 O -0.3755(4) 1.5896(4) -0.47133(19)
O5 O 0.0447(5) 1.8879(5) -0.8558(2)
O6 O -0.0716(5) 1.7860(5) -0.85963(19)
O7 O -0.3630(4) 1.5163(4) -0.64258(19)
O8 O -0.4073(4) 1.3920(4) -0.57709(19)
O9 O -0.1318(4) 1.1350(4) -0.52403(18)
O10 O 0.0196(4) 1.1260(4) -0.57731(19)
O11 O 0.2606(5) 1.6604(5) -0.8523(2)
O12 O 0.3264(5) 1.5090(4) -0.8588(2)
O13 O -0.1099(5) 1.9837(4) -0.9230(2)
O14 O -0.1236(4) 2.1273(4) -0.97911(19)
O15 O -0.4944(5) 2.3539(4) -0.8615(2)
O16 O -0.3866(4) 2.3894(4) -0.93293(19)
O17 O -0.5113(5) 1.6941(4) -0.6368(2)
O18 O -0.5551(6) 1.8149(5) -0.5969(2)
O19 O -0.4040(5) 1.5719(4) -0.0459(2)
O20 O -0.3895(5) 1.6084(4) 0.0249(2)
O21 O -0.0994(5) 1.9692(4) -0.0335(2)
O22 O -0.1063(4) 1.8276(4) 0.0247(2)
O23 O -0.2228(5) 1.9370(6) -0.3653(2)
O24 O -0.0876(5) 2.0175(4) -0.36254(19)
O25 O -0.3101(5) 2.0612(6) -0.4445(3)
O26 O -0.1441(6) 2.1866(4) -0.4321(2)
O27 O -0.5770(6) 1.4627(6) -0.6437(2)
O28 O -0.6106(5) 1.6430(4) -0.5279(2)
O29 O -0.7154(4) 1.5832(5) -0.5926(2)
O30 O 0.0576(5) 1.6997(4) -0.9363(2)
O31 O 0.2116(5) 1.8321(5) -0.9263(2)
O32 O -0.6239(7) 1.4711(6) -0.1326(3)
O33 O -0.4649(5) 1.3190(5) -0.1081(2)
O34 O -0.3787(5) 1.3630(4) -0.0301(2)
C1 C -0.1757(6) 1.8243(6) -0.5431(3)
C2 C -0.2507(6) 1.7524(6) -0.5193(3)
H1 H -0.2773 1.7446 -0.4853
C3 C -0.2852(6) 1.6936(5) -0.5452(3)
C4 C -0.2482(6) 1.7067(6) -0.5960(3)
H2 H -0.2746 1.6678 -0.6136
C5 C -0.1723(6) 1.7766(6) -0.6215(3)
C6 C -0.1354(6) 1.8348(6) -0.5936(3)
H3 H -0.0833 1.8809 -0.6092
C7 C -0.1353(6) 1.7884(6) -0.6762(3)
C8 C -0.0405(9) 1.8350(9) -0.6996(3)
H4 H 0.0006 1.8576 -0.6807
C9 C -0.0074(8) 1.8479(9) -0.7509(3)
H5 H 0.0558 1.8793 -0.7660
C10 C -0.0663(7) 1.8151(6) -0.7795(3)
C11 C -0.1551(7) 1.7635(8) -0.7562(3)
H6 H -0.1932 1.7366 -0.7748
C12 C -0.1888(8) 1.7509(7) -0.7054(3)
H7 H -0.2498 1.7159 -0.6904
C13 C -0.1403(6) 1.8889(6) -0.5143(3)
C14 C -0.3602(6) 1.6107(5) -0.5188(3)
C15 C -0.0290(7) 1.8299(6) -0.8352(3)
C16 C -0.2357(6) 1.3820(6) -0.6260(3)
C17 C -0.2064(6) 1.2987(5) -0.5918(3)
H8 H -0.2521 1.2729 -0.5622
C18 C -0.1068(6) 1.2534(6) -0.6023(3)
C19 C -0.0397(6) 1.2927(6) -0.6463(3)
H9 H 0.0253 1.2608 -0.6535
C20 C -0.0673(6) 1.3794(6) -0.6803(3)
C21 C -0.1662(6) 1.4231(6) -0.6691(3)
H10 H -0.1863 1.4812 -0.6910
C22 C 0.0105(6) 1.4277(6) -0.7251(3)
C23 C 0.0155(7) 1.5301(7) -0.7401(3)
H11 H -0.0335 1.5698 -0.7241
C24 C 0.0932(7) 1.5746(7) -0.7790(4)
H12 H 0.0953 1.6442 -0.7889
C25 C 0.1676(6) 1.5179(6) -0.8033(3)
C26 C 0.1602(7) 1.4148(6) -0.7892(3)
H13 H 0.2084 1.3755 -0.8059
C27 C 0.0828(7) 1.3692(7) -0.7508(3)
H14 H 0.0787 1.2997 -0.7421
C28 C -0.3423(6) 1.4339(6) -0.6145(3)
C29 C -0.0705(6) 1.1637(6) -0.5648(3)
C30 C 0.2581(7) 1.5665(6) -0.8412(3)
C31 C -0.2361(6) 2.1030(6) -0.9004(3)
C32 C -0.2838(6) 2.1987(6) -0.9123(3)
H15 H -0.2608 2.2423 -0.9431
C33 C -0.3647(6) 2.2290(5) -0.8787(3)
C34 C -0.4007(6) 2.1636(6) -0.8332(3)
H16 H -0.4557 2.1840 -0.8108
C35 C -0.3555(6) 2.0677(5) -0.8205(3)
C36 C -0.2727(6) 2.0395(6) -0.8541(3)
H17 H -0.2408 1.9763 -0.8455
C37 C -0.3979(7) 1.9964(6) -0.7718(3)
C38 C -0.4009(8) 1.8946(6) -0.7709(3)
H18 H -0.3762 1.8719 -0.7998
C39 C -0.4416(8) 1.8272(6) -0.7261(3)
H19 H -0.4436 1.7594 -0.7251
C40 C -0.4793(7) 1.8617(6) -0.6827(3)
C41 C -0.4772(8) 1.9615(7) -0.6845(3)
H20 H -0.5035 1.9849 -0.6560
C42 C -0.4363(8) 2.0275(7) -0.7286(4)
H21 H -0.4346 2.0951 -0.7291
C43 C -0.1493(6) 2.0697(6) -0.9370(3)
C44 C -0.4193(6) 2.3294(5) -0.8917(3)
C45 C -0.5186(7) 1.7859(6) -0.6354(3)
C46 C -0.3004(5) 1.7079(5) -0.0489(3)
C47 C -0.2479(6) 1.7540(5) -0.0217(3)
H22 H -0.2550 1.7303 0.0129
C48 C -0.1855(6) 1.8347(5) -0.0456(3)
C49 C -0.1759(6) 1.8686(6) -0.0970(3)
H23 H -0.1345 1.9235 -0.1132
C50 C -0.2256(6) 1.8238(6) -0.1251(3)
C51 C -0.2877(6) 1.7418(6) -0.1008(3)
H24 H -0.3208 1.7098 -0.1192
C52 C -0.2097(6) 1.8586(6) -0.1808(3)
C53 C -0.2880(7) 1.8508(8) -0.2073(3)
H25 H -0.3520 1.8238 -0.1900
C54 C -0.2729(8) 1.8825(8) -0.2591(3)
H26 H -0.3266 1.8767 -0.2763
C55 C -0.1774(7) 1.9230(6) -0.2856(3)
C56 C -0.1019(7) 1.9308(6) -0.2591(3)
H27 H -0.0381 1.9584 -0.2764
C57 C -0.1159(7) 1.8993(7) -0.2078(3)
H28 H -0.0617 1.9055 -0.1910
C58 C -0.3698(6) 1.6240(5) -0.0214(3)
C59 C -0.1273(6) 1.8812(5) -0.0161(3)
C60 C -0.1616(7) 1.9616(6) -0.3415(3)
N1 N -0.6195(10) 1.3759(9) -0.6946(5)
N2 N 0.1076(9) 1.5646(9) -0.9710(4)
C61 C -0.5608(15) 1.4354(14) -0.6772(7)
H29 H -0.4970 1.4550 -0.6979
C62 C -0.7066(19) 1.3222(18) -0.6632(9)
H30 H -0.7379 1.2863 -0.6821
H31 H -0.7580 1.3684 -0.6510
H32 H -0.6828 1.2757 -0.6353
C63 C -0.5673(19) 1.3451(19) -0.7457(9)
H33 H -0.6144 1.3034 -0.7540
H34 H -0.5018 1.3089 -0.7414
H35 H -0.5545 1.4044 -0.7723
C64 C 0.0767(12) 1.6592(12) -0.9743(6)
H36 H 0.0682 1.6989 -1.0056
C65 C 0.1379(14) 1.5275(13) -1.0186(6)
H37 H 0.1588 1.4578 -1.0102
H38 H 0.1956 1.5652 -1.0400
H39 H 0.0787 1.5359 -1.0358
C66 C 0.1113(14) 1.4979(13) -0.9223(6)
H40 H 0.1355 1.4323 -0.9264
H41 H 0.0421 1.4940 -0.9023
H42 H 0.1588 1.5230 -0.9058
H43 H -0.3707(17) 2.017(9) -0.424(8)
H44 H -0.345(3) 2.131(3) -0.447(10)
H45 H -0.210(4) 2.234(9) -0.431(11)
H46 H -0.088(3) 2.239(9) -0.434(11)
H47 H -0.631(17) 1.617(4) -0.4911(15)
H48 H -0.590(14) 1.714(6) -0.533(5)
H49 H -0.750(5) 1.59(2) -0.623(4)
H50 H -0.778(4) 1.58(2) -0.5651(16)
H51 H 0.273(6) 1.879(5) -0.932(10)
H52 H 0.242(6) 1.767(6) -0.906(10)
H53 H -0.694(7) 1.442(17) -0.116(2)
H54 H -0.641(13) 1.529(8) -0.160(6)
H55 H -0.406(12) 1.269(8) -0.100(8)
H56 H -0.479(19) 1.310(5) -0.141(4)
H57 H -0.306(10) 1.372(9) -0.023(8)
H58 H -0.387(12) 1.285(7) -0.017(9)
Tb1_2 Tb -0.11984(3) 1.02123(2) -0.446350(11)
Tb1A Tb 0.11984(3) 0.97877(2) -0.553650(11)
Tb1A_2 Tb 0.11984(3) 1.97877(2) -0.553650(11)
Tb2A Tb -0.47005(3) 1.46188(3) -0.414890(12)
Tb3_2 Tb 0.03018(3) 1.87474(2) 0.060457(11)
Tb3A Tb -0.03018(3) 2.12526(2) -1.060457(11)
Tb3A_2 Tb -0.03018(3) 2.12526(2) -0.060457(11)
Tb4A Tb -0.51652(3) 1.52060(3) 0.085777(12)
Tb4A_2 Tb -0.51652(3) 2.52060(3) -0.914223(12)
Tb4A_3 Tb 0.48348(3) 1.52060(3) -0.914223(12)
O1A O 0.0543(4) 2.0677(4) -0.47205(19)
O4A O -0.6245(4) 1.4104(4) -0.52867(19)
O9_2 O -0.1318(4) 2.1350(4) -0.52403(18)
O10A O -0.0196(4) 1.8740(4) -0.42269(19)
O12A O -0.3264(5) 1.4910(4) -0.1412(2)
O14A O 0.1236(4) 1.8727(4) -1.02089(19)
O15A O -0.5056(5) 1.6461(4) -0.1385(2)
O16A O -0.6134(4) 1.6106(4) -0.06707(19)
O20A O -0.6105(5) 1.3916(4) -0.0249(2)
O21A O 0.0994(5) 2.0308(4) -0.9665(2)
O22_2 O -0.1063(4) 1.8276(4) -0.9753(2)
O35 O 0.6009(6) 0.1529(6) -0.0040(3)
N3 N 0.5451(7) 0.0180(6) 0.0567(3)
C67 C 0.5391(10) 0.1133(10) 0.0336(5)
H59 H 0.4850 0.1531 0.0465
C68 C 0.4627(13) -0.0185(13) 0.1001(6)
H60 H 0.4751 -0.0887 0.1137
H61 H 0.3950 -0.0083 0.0898
H62 H 0.4642 0.0175 0.1253
C69 C 0.6260(12) -0.0492(11) 0.0429(6)
H63 H 0.6141 -0.1145 0.0648
H64 H 0.6928 -0.0263 0.0455
H65 H 0.6263 -0.0526 0.0089
O36 O 0.2152(6) 0.7484(6) 0.3451(3)
N4 N 0.2866(7) 0.7705(7) 0.2621(3)
C70 C 0.2401(10) 0.8016(10) 0.3014(5)
H66 H 0.2237 0.8699 0.2966
C71 C 0.3083(11) 0.8382(11) 0.2128(5)
H67 H 0.3426 0.8015 0.1889
H68 H 0.3534 0.8898 0.2137
H69 H 0.2432 0.8679 0.2032
C72 C 0.3199(11) 0.6695(10) 0.2687(5)
H70 H 0.3524 0.6571 0.2368
H71 H 0.2602 0.6277 0.2824
H72 H 0.3700 0.6545 0.2913
O37 O 0.8668(7) 0.3864(7) 0.5094(3)
N5 N 0.9864(7) 0.4531(6) 0.4427(3)
C73 C 0.8930(9) 0.4485(9) 0.4701(4)
H73 H 0.8423 0.4960 0.4589
C74 C 1.0107(12) 0.5315(11) 0.3974(5)
H74 H 1.0826 0.5231 0.3820
H75 H 1.0008 0.5956 0.4055
H76 H 0.9647 0.5277 0.3745
C75 C 1.0644(10) 0.3818(10) 0.4561(5)
H77 H 1.1278 0.3964 0.4319
H78 H 1.0414 0.3166 0.4570
H79 H 1.0778 0.3832 0.4886
O38 O 0.7067(13) 0.4141(13) 0.2120(6)
N6 N 0.805(2) 0.262(2) 0.2237(11)
C76 C 0.714(2) 0.317(2) 0.2472(11)
H80 H 0.6707 0.2936 0.2779
C77 C 0.874(3) 0.290(3) 0.1710(14)
H81 H 0.9240 0.2368 0.1668
H82 H 0.9100 0.3504 0.1676
H83 H 0.8295 0.3009 0.1458
C78 C 0.810(3) 0.159(3) 0.2686(12)
H84 H 0.8664 0.1157 0.2577
H85 H 0.7446 0.1261 0.2760
H86 H 0.8237 0.1767 0.2981
O39 O 0.6007(18) 0.2050(17) 0.3319(9)
N7 N 0.566(2) 0.119(2) 0.4245(11)
C79 C 0.544(3) 0.190(3) 0.3798(11)
H87 H 0.4836 0.2311 0.3839
C80 C 0.528(3) 0.149(3) 0.4718(13)
H88 H 0.4695 0.1961 0.4675
H89 H 0.5834 0.1795 0.4808
H90 H 0.5049 0.0911 0.4979
C81 C 0.657(2) 0.056(2) 0.4078(12)
H91 H 0.6579 0.0552 0.3735
H92 H 0.6506 -0.0109 0.4284
H93 H 0.7211 0.0835 0.4107
O40 O 0.6436(10) 0.5829(9) 0.2508(5)
O41 O 0.6031(11) 0.7263(10) 0.1650(5)
O42 O 0.7887(16) 0.6787(15) 0.1084(8)
loop_
_geom_bond_atom_site_label_1
_geom_bond_atom_site_label_2
_geom_bond_site_symmetry_1
_geom_bond_site_symmetry_2
Tb1 O1 1_555 1_555
Tb2 O3 1_555 1_555
Tb3 O5 1_555 1_555
Tb4 O19 1_555 1_555
O1 C13 1_555 1_555
O2 Tb1 1_555 1_555
O3 C14 1_555 1_555
O4 C14 1_555 1_555
O5 C15 1_555 1_555
O6 Tb3 1_555 1_555
O7 Tb2 1_555 1_555
O8 Tb2 1_555 1_555
O9 C29 1_555 1_555
O10 C29 1_555 1_555
O11 C30 1_555 1_555
O12 C30 1_555 1_555
O13 Tb3 1_555 1_555
O14 C43 1_555 1_555
O15 C44 1_555 1_555
O16 C44 1_555 1_555
O17 Tb2 1_555 1_555
O18 C45 1_555 1_555
O19 C58 1_555 1_555
O20 C58 1_555 1_555
O21 C59 1_555 1_555
O22 C59 1_555 1_555
O23 Tb1 1_555 1_555
O24 Tb1 1_555 1_555
O25 Tb1 1_555 1_555
O26 Tb1 1_555 1_555
O27 Tb2 1_555 1_555
O28 Tb2 1_555 1_555
O29 Tb2 1_555 1_555
O30 Tb3 1_555 1_555
O31 Tb3 1_555 1_555
O32 Tb4 1_555 1_555
O33 Tb4 1_555 1_555
O34 Tb4 1_555 1_555
C1 C2 1_555 1_555
C2 H1 1_555 1_555
C3 C2 1_555 1_555
C4 C3 1_555 1_555
H2 C4 1_555 1_555
C5 C4 1_555 1_555
C6 C1 1_555 1_555
H3 C6 1_555 1_555
C7 C5 1_555 1_555
C8 C7 1_555 1_555
H4 C8 1_555 1_555
C9 C8 1_555 1_555
H5 C9 1_555 1_555
C10 C9 1_555 1_555
C11 C10 1_555 1_555
H6 C11 1_555 1_555
C12 C7 1_555 1_555
H7 C12 1_555 1_555
C13 O2 1_555 1_555
C14 C3 1_555 1_555
C15 O6 1_555 1_555
C16 C17 1_555 1_555
C17 H8 1_555 1_555
C18 C17 1_555 1_555
C19 C18 1_555 1_555
H9 C19 1_555 1_555
C20 C19 1_555 1_555
C21 C16 1_555 1_555
H10 C21 1_555 1_555
C22 C20 1_555 1_555
C23 C22 1_555 1_555
H11 C23 1_555 1_555
C24 C23 1_555 1_555
H12 C24 1_555 1_555
C25 C24 1_555 1_555
C26 C25 1_555 1_555
H13 C26 1_555 1_555
C27 C22 1_555 1_555
H14 C27 1_555 1_555
C28 O7 1_555 1_555
C29 C18 1_555 1_555
C30 C25 1_555 1_555
C31 C32 1_555 1_555
C32 H15 1_555 1_555
C33 C32 1_555 1_555
C34 C33 1_555 1_555
H16 C34 1_555 1_555
C35 C34 1_555 1_555
C36 C31 1_555 1_555
H17 C36 1_555 1_555
C37 C35 1_555 1_555
C38 C37 1_555 1_555
H18 C38 1_555 1_555
C39 C38 1_555 1_555
H19 C39 1_555 1_555
C40 C39 1_555 1_555
C41 C40 1_555 1_555
H20 C41 1_555 1_555
C42 C37 1_555 1_555
H21 C42 1_555 1_555
C43 O13 1_555 1_555
C44 C33 1_555 1_555
C45 O17 1_555 1_555
C46 C47 1_555 1_555
C47 H22 1_555 1_555
C48 C47 1_555 1_555
C49 C48 1_555 1_555
H23 C49 1_555 1_555
C50 C49 1_555 1_555
C51 C46 1_555 1_555
H24 C51 1_555 1_555
C52 C50 1_555 1_555
C53 C52 1_555 1_555
H25 C53 1_555 1_555
C54 C53 1_555 1_555
H26 C54 1_555 1_555
C55 C54 1_555 1_555
C56 C55 1_555 1_555
H27 C56 1_555 1_555
C57 C52 1_555 1_555
H28 C57 1_555 1_555
C58 C46 1_555 1_555
C59 C48 1_555 1_555
C60 O23 1_555 1_555
N1 C61 1_555 1_555
N2 C64 1_555 1_555
C61 O27 1_555 1_555
H29 C61 1_555 1_555
C62 N1 1_555 1_555
H30 C62 1_555 1_555
H31 C62 1_555 1_555
H32 C62 1_555 1_555
C63 N1 1_555 1_555
H33 C63 1_555 1_555
H34 C63 1_555 1_555
H35 C63 1_555 1_555
C64 O30 1_555 1_555
H36 C64 1_555 1_555
C65 N2 1_555 1_555
H37 C65 1_555 1_555
H38 C65 1_555 1_555
H39 C65 1_555 1_555
C66 N2 1_555 1_555
H40 C66 1_555 1_555
H41 C66 1_555 1_555
H42 C66 1_555 1_555
H43 O25 1_555 1_555
H44 O25 1_555 1_555
H45 O26 1_555 1_555
H46 O26 1_555 1_555
H47 O28 1_555 1_555
H48 O28 1_555 1_555
H49 O29 1_555 1_555
H50 O29 1_555 1_555
H51 O31 1_555 1_555
H52 O31 1_555 1_555
H53 O32 1_555 1_555
H54 O32 1_555 1_555
H55 O33 1_555 1_555
H56 O33 1_555 1_555
H57 O34 1_555 1_555
H58 O34 1_555 1_555
O35 C67 1_555 1_555
N3 C67 1_555 1_555
C67 H59 1_555 1_555
C68 N3 1_555 1_555
H60 C68 1_555 1_555
H61 C68 1_555 1_555
H62 C68 1_555 1_555
C69 N3 1_555 1_555
H63 C69 1_555 1_555
H64 C69 1_555 1_555
H65 C69 1_555 1_555
O36 C70 1_555 1_555
N4 C70 1_555 1_555
C70 H66 1_555 1_555
C71 N4 1_555 1_555
H67 C71 1_555 1_555
H68 C71 1_555 1_555
H69 C71 1_555 1_555
C72 N4 1_555 1_555
H70 C72 1_555 1_555
H71 C72 1_555 1_555
H72 C72 1_555 1_555
O37 C73 1_555 1_555
N5 C73 1_555 1_555
C73 H73 1_555 1_555
C74 N5 1_555 1_555
H74 C74 1_555 1_555
H75 C74 1_555 1_555
H76 C74 1_555 1_555
C75 N5 1_555 1_555
H77 C75 1_555 1_555
H78 C75 1_555 1_555
H79 C75 1_555 1_555
O38 C76 1_555 1_555
N6 C76 1_555 1_555
C76 H80 1_555 1_555
C77 N6 1_555 1_555
H81 C77 1_555 1_555
H82 C77 1_555 1_555
H83 C77 1_555 1_555
C78 N6 1_555 1_555
H84 C78 1_555 1_555
H85 C78 1_555 1_555
H86 C78 1_555 1_555
O39 C79 1_555 1_555
N7 C79 1_555 1_555
C79 H87 1_555 1_555
C80 N7 1_555 1_555
H88 C80 1_555 1_555
H89 C80 1_555 1_555
H90 C80 1_555 1_555
C81 N7 1_555 1_555
H91 C81 1_555 1_555
H92 C81 1_555 1_555
H93 C81 1_555 1_555
Tb1_2 O9 1_555 1_555
Tb1A O10 1_555 1_555
Tb1A_2 O1 1_555 1_555
Tb2A O4 1_555 1_555
Tb3_2 O22 1_555 1_555
Tb3A O14 1_555 1_555
Tb3A_2 O21 1_555 1_555
Tb4A O20 1_555 1_555
Tb4A_2 O15 1_555 1_555
Tb4A_3 O12 1_555 1_555
O1A Tb1 1_555 1_555
O4A Tb2 1_555 1_555
O9_2 Tb1 1_555 1_555
O10A Tb1 1_555 1_555
O12A Tb4 1_555 1_555
O14A Tb3 1_555 1_555
O15A Tb4 1_555 1_555
O16A Tb4 1_555 1_555
O20A Tb4 1_555 1_555
O21A Tb3 1_555 1_555
O22_2 Tb3 1_555 1_555
O8 C28 1_555 1_555
O16 Tb4A_2 1_555 1_555
O24 C60 1_555 1_555
C1 C13 1_555 1_555
C5 C6 1_555 1_555
C10 C15 1_555 1_555
C11 C12 1_555 1_555
C16 C28 1_555 1_555
C20 C21 1_555 1_555
C26 C27 1_555 1_555
C31 C43 1_555 1_555
C35 C36 1_555 1_555
C40 C45 1_555 1_555
C41 C42 1_555 1_555
C50 C51 1_555 1_555
C55 C60 1_555 1_555
C56 C57 1_555 1_555
Tb1A_2 O1A 1_555 1_555

#END
