
#######################################################################
#
#                 Cambridge Crystallographic Data Centre
#                                CCDC 
#
#######################################################################
#
# If this CIF has been generated from an entry in the Cambridge 
# Structural Database, then it will include bibliographic, chemical, 
# crystal, experimental, refinement or atomic coordinate data resulting 
# from the CCDC's data processing and validation procedures.
#
#######################################################################

data_XADFIS
_symmetry_cell_setting           orthorhombic
_symmetry_space_group_name_H-M   'C m c a'
_symmetry_Int_Tables_number      64
_space_group_name_Hall           '-C 2bc 2'
loop_
_symmetry_equiv_pos_site_id
_symmetry_equiv_pos_as_xyz
1 x,y,z
2 1/2+x,1/2+y,z
3 -x,1/2+y,1/2-z
4 -x,1/2-y,1/2+z
5 1/2-x,y,1/2-z
6 1/2-x,-y,1/2+z
7 x,-y,-z
8 1/2+x,1/2-y,-z
9 -x,-y,-z
10 1/2-x,1/2-y,-z
11 x,1/2-y,1/2+z
12 x,1/2+y,1/2-z
13 1/2+x,-y,1/2+z
14 1/2+x,y,1/2-z
15 -x,y,z
16 1/2-x,1/2+y,z
_cell_length_a                   25.600(12)
_cell_length_b                   10.016(4)
_cell_length_c                   9.635(3)
_cell_angle_alpha                90
_cell_angle_beta                 90
_cell_angle_gamma                90
_cell_volume                     2470.51
loop_
_atom_site_label
_atom_site_type_symbol
_atom_site_fract_x
_atom_site_fract_y
_atom_site_fract_z
Mo1 Mo 0.100697(17) 0.37768(4) 0.14451(5)
P1 P 0.17286(5) 0.16339(13) 0.35357(14)
C1 C 0.2424(2) 0.1746(6) 0.3266(5)
O1 O 0.0799(2) 0.5000 0.0000
O2 O 0.06839(16) 0.2379(4) 0.0867(4)
O3 O 0.05803(16) 0.4328(4) 0.2684(4)
O4 O 0.14675(16) 0.2849(4) 0.2844(4)
O5 O 0.15338(16) 0.0346(4) 0.2886(4)
O6 O 0.16479(14) 0.1688(4) 0.5096(4)
H1 H 0.257(3) 0.255(4) 0.361(7)
H2 H 0.259(3) 0.097(4) 0.362(7)
C1D C 0.2576(2) 0.1746(6) 0.1734(5)
P1D P 0.32714(5) 0.16339(13) 0.14643(14)
O4D O 0.35325(16) 0.2849(4) 0.2156(4)
O5D O 0.34662(16) 0.0346(4) 0.2114(4)
O6D O 0.33521(14) 0.1688(4) -0.0096(4)
H1D H 0.243(3) 0.255(4) 0.139(7)
H2D H 0.241(3) 0.097(4) 0.138(7)
Mo1F Mo 0.100697(17) 0.62232(4) -0.14451(5)
O2F O 0.06839(16) 0.7621(4) -0.0867(4)
O3F O 0.05803(16) 0.5672(4) -0.2684(4)
O5K O 0.15338(16) 0.5346(4) 0.2114(4)
O6J O 0.16479(14) 0.3312(4) 0.0096(4)
Mo1K Mo 0.100697(17) -0.12232(4) 0.35549(5)
Mo1J Mo 0.100697(17) 0.12232(4) 0.64451(5)
Mo1D Mo 0.399303(17) 0.37768(4) 0.35549(5)
Mo1O Mo 0.399303(17) -0.12232(4) 0.14451(5)
Mo1I Mo 0.399303(17) 0.12232(4) -0.14451(5)
O4F O 0.14675(16) 0.7151(4) -0.2844(4)
O5J O 0.15338(16) 0.4654(4) -0.2114(4)
O6K O 0.16479(14) 0.6688(4) -0.0096(4)
N1 N 0.1278(3) 0.0000 0.0000
N2 N 0.5000 0.1755(8) 0.1659(8)
loop_
_geom_bond_atom_site_label_1
_geom_bond_atom_site_label_2
_geom_bond_site_symmetry_1
_geom_bond_site_symmetry_2
Mo1 O1 1_555 1_555
P1 C1 1_555 1_555
C1 H1 1_555 1_555
O1 Mo1F 1_555 1_555
O2 Mo1 1_555 1_555
O3 Mo1 1_555 1_555
O4 Mo1 1_555 1_555
O5 P1 1_555 1_555
O6 P1 1_555 1_555
H2 C1 1_555 1_555
C1D C1 1_555 1_555
P1D C1D 1_555 1_555
O4D P1D 1_555 1_555
O5D P1D 1_555 1_555
O6D P1D 1_555 1_555
H1D C1D 1_555 1_555
H2D C1D 1_555 1_555
Mo1F O2F 1_555 1_555
O3F Mo1F 1_555 1_555
O5K Mo1 1_555 1_555
O6J Mo1 1_555 1_555
Mo1K O5 1_555 1_555
Mo1J O6 1_555 1_555
Mo1D O4D 1_555 1_555
Mo1O O5D 1_555 1_555
Mo1I O6D 1_555 1_555
O4F Mo1F 1_555 1_555
O5J Mo1F 1_555 1_555
O6K Mo1F 1_555 1_555
P1 O4 1_555 1_555

#END
