
#######################################################################
#
#                 Cambridge Crystallographic Data Centre
#                                CCDC 
#
#######################################################################
#
# If this CIF has been generated from an entry in the Cambridge 
# Structural Database, then it will include bibliographic, chemical, 
# crystal, experimental, refinement or atomic coordinate data resulting 
# from the CCDC's data processing and validation procedures.
#
#######################################################################

data_XADFUF
_symmetry_cell_setting           orthorhombic
_symmetry_space_group_name_H-M   'P 2 2 21'
_symmetry_Int_Tables_number      17
_space_group_name_Hall           'P 2c 2'
loop_
_symmetry_equiv_pos_site_id
_symmetry_equiv_pos_as_xyz
1 x,y,z
2 -x,-y,1/2+z
3 x,-y,-z
4 -x,y,1/2-z
_cell_length_a                   16.3611(10)
_cell_length_b                   10.8518(7)
_cell_length_c                   13.9023(8)
_cell_angle_alpha                90
_cell_angle_beta                 90
_cell_angle_gamma                90
_cell_volume                     2468.32
loop_
_atom_site_label
_atom_site_type_symbol
_atom_site_fract_x
_atom_site_fract_y
_atom_site_fract_z
C25 C 1.016(2) 0.5000 0.5000
C26 C 1.062(2) 0.610(3) 0.369(3)
C27 C 1.1708(16) 0.5000 0.5000
N3 N 1.0771(18) 0.531(3) 0.453(2)
O5 O 0.9461(12) 0.5000 0.5000
C26B C 1.062(2) 0.390(3) 0.631(3)
N3B N 1.0771(18) 0.469(3) 0.547(2)
C1 C 0.4899(8) 0.7172(14) 0.0891(8)
H1 H 0.4494 0.7642 0.0598
C2 C 0.5483(8) 0.7767(14) 0.1377(9)
H2 H 0.5461 0.8621 0.1432
C3 C 0.6130(9) 0.7119(18) 0.1804(9)
C4 C 0.6091(9) 0.5871(17) 0.1711(12)
H3 H 0.6503 0.5384 0.1971
C5 C 0.5461(9) 0.5331(13) 0.1245(11)
H4 H 0.5444 0.4474 0.1233
C6 C 0.6784(11) 0.7762(17) 0.2393(13)
H5 H 0.6781 0.8633 0.2237
H6 H 0.6651 0.7681 0.3070
C7 C 0.7598(10) 0.7277(15) 0.2232(12)
H7 H 0.7746 0.7403 0.1563
H8 H 0.7595 0.6396 0.2351
C8 C 0.8226(8) 0.7862(14) 0.2854(10)
C9 C 0.8588(10) 0.9004(15) 0.2646(12)
H9 H 0.8447 0.9404 0.2078
C10 C 0.9156(8) 0.9563(13) 0.3268(10)
H10 H 0.9388 1.0313 0.3094
C11 C 0.9047(8) 0.7985(13) 0.4319(9)
H11 H 0.9203 0.7623 0.4897
C12 C 0.8473(10) 0.7356(13) 0.3725(10)
H12 H 0.8262 0.6601 0.3922
C13 C 0.1079(12) 0.166(2) 0.4068(16)
C14 C 0.1614(9) 0.2298(13) 0.3382(10)
C15 C 0.1279(8) 0.2931(13) 0.2674(11)
H13 H 0.0713 0.2973 0.2631
C16 C 0.1769(7) 0.3559(12) 0.1966(8)
H14 H 0.1527 0.4049 0.1497
C17 C 0.2586(7) 0.3420(10) 0.2000(7)
C18 C 0.3826(9) 0.2532(11) 0.2799(9)
H15 H 0.4167 0.2882 0.2339
C19 C 0.4140(10) 0.1873(14) 0.3528(11)
H16 H 0.4703 0.1771 0.3568
C20 C 0.3646(13) 0.1342(15) 0.4224(11)
H17 H 0.3885 0.0888 0.4717
C21 C 0.2815(11) 0.1473(13) 0.4201(10)
H18 H 0.2494 0.1124 0.4681
C22 C 0.2452(8) 0.2130(10) 0.3458(9)
C23 C 0.2982(7) 0.2684(9) 0.2742(8)
C24 C 0.3105(7) 0.4053(12) 0.1261(8)
N1 N 0.4857(6) 0.5942(11) 0.0797(7)
N2 N 0.9365(5) 0.9055(9) 0.4085(7)
O1 O 0.0352(12) 0.159(2) 0.3892(8)
O2 O 0.1253(9) 0.175(3) 0.4941(16)
O3 O 0.2979(4) 0.5171(8) 0.1093(4)
O4 O 0.3672(5) 0.3487(7) 0.0818(5)
Zn1 Zn 0.39960(9) 0.5000 0.0000
Zn2 Zn 1.01233(9) 1.0000 0.5000
C1B C 0.4899(8) 0.2828(14) -0.0891(8)
H1B H 0.4494 0.2358 -0.0598
C2B C 0.5483(8) 0.2233(14) -0.1377(9)
H2B H 0.5461 0.1379 -0.1432
C3B C 0.6130(9) 0.2881(18) -0.1804(9)
C4B C 0.6091(9) 0.4129(17) -0.1711(12)
H3B H 0.6503 0.4616 -0.1971
C5B C 0.5461(9) 0.4669(13) -0.1245(11)
H4B H 0.5444 0.5526 -0.1233
C6B C 0.6784(11) 0.2238(17) -0.2393(13)
H5B H 0.6781 0.1367 -0.2237
H6B H 0.6651 0.2319 -0.3070
C7B C 0.7598(10) 0.2723(15) -0.2232(12)
H7B H 0.7746 0.2597 -0.1563
H8B H 0.7595 0.3604 -0.2351
C8B C 0.8226(8) 0.2138(14) -0.2854(10)
C9B C 0.8588(10) 0.0996(15) -0.2646(12)
H9B H 0.8447 0.0596 -0.2078
C10B C 0.9156(8) 0.0437(13) -0.3268(10)
H10B H 0.9388 -0.0313 -0.3094
C11B C 0.9047(8) 0.2015(13) -0.4319(9)
H11B H 0.9203 0.2377 -0.4897
C12B C 0.8473(10) 0.2644(13) -0.3725(10)
H12B H 0.8262 0.3399 -0.3922
C13B C 0.1079(12) 0.834(2) -0.4068(16)
C14B C 0.1614(9) 0.7702(13) -0.3382(10)
C15B C 0.1279(8) 0.7069(13) -0.2674(11)
H13B H 0.0713 0.7027 -0.2631
C16B C 0.1769(7) 0.6441(12) -0.1966(8)
H14B H 0.1527 0.5951 -0.1497
C17B C 0.2586(7) 0.6580(10) -0.2000(7)
C18B C 0.3826(9) 0.7468(11) -0.2799(9)
H15B H 0.4167 0.7118 -0.2339
C19B C 0.4140(10) 0.8127(14) -0.3528(11)
H16B H 0.4703 0.8229 -0.3568
C20B C 0.3646(13) 0.8658(15) -0.4224(11)
H17B H 0.3885 0.9112 -0.4717
C21B C 0.2815(11) 0.8527(13) -0.4201(10)
H18B H 0.2494 0.8876 -0.4681
C22B C 0.2452(8) 0.7870(10) -0.3458(9)
C23B C 0.2982(7) 0.7316(9) -0.2742(8)
C24B C 0.3105(7) 0.5947(12) -0.1261(8)
N1B N 0.4857(6) 0.4058(11) -0.0797(7)
N2B N 0.9365(5) 0.0945(9) -0.4085(7)
N2B_2 N 0.9365(5) 1.0945(9) 0.5915(7)
O1B O 0.0352(12) 0.841(2) -0.3892(8)
O1_2 O 1.0352(12) 1.159(2) 0.3892(8)
O1B_2 O 1.0352(12) 0.841(2) 0.6108(8)
O2B O 0.1253(9) 0.825(3) -0.4941(16)
O2_2 O 1.1253(9) 1.175(3) 0.4941(16)
O2B_2 O 1.1253(9) 0.825(3) 0.5059(16)
O3B O 0.2979(4) 0.4829(8) -0.1093(4)
O4B O 0.3672(5) 0.6513(7) -0.0818(5)
Zn2_2 Zn 0.01233(9) 0.0000 0.5000
Zn2_3 Zn 1.01233(9) 0.0000 -0.5000
Zn2_4 Zn 0.01233(9) 1.0000 -0.5000
C28? C 1.410(2) 0.981(4) -0.071(3)
C29? C 1.3298(9) 1.0000 0.0000
C30? C 1.258(3) 0.920(4) -0.056(3)
N4? N 1.331(2) 0.955(3) -0.076(2)
O6? O 1.4714(13) 1.0000 0.0000
loop_
_geom_bond_atom_site_label_1
_geom_bond_atom_site_label_2
_geom_bond_site_symmetry_1
_geom_bond_site_symmetry_2
C1 H1 1_555 1_555
C2 C1 1_555 1_555
H2 C2 1_555 1_555
C3 C2 1_555 1_555
C4 C3 1_555 1_555
H3 C4 1_555 1_555
C5 C4 1_555 1_555
H4 C5 1_555 1_555
C6 C3 1_555 1_555
H5 C6 1_555 1_555
H6 C6 1_555 1_555
C7 C6 1_555 1_555
H7 C7 1_555 1_555
H8 C7 1_555 1_555
C8 C7 1_555 1_555
C9 C8 1_555 1_555
H9 C9 1_555 1_555
C10 C9 1_555 1_555
H10 C10 1_555 1_555
C11 H11 1_555 1_555
C12 C8 1_555 1_555
H12 C12 1_555 1_555
C13 C14 1_555 1_555
C14 C15 1_555 1_555
C15 H13 1_555 1_555
C16 C15 1_555 1_555
H14 C16 1_555 1_555
C17 C16 1_555 1_555
C18 H15 1_555 1_555
C19 C18 1_555 1_555
H16 C19 1_555 1_555
C20 C19 1_555 1_555
H17 C20 1_555 1_555
C21 C20 1_555 1_555
H18 C21 1_555 1_555
C22 C14 1_555 1_555
C23 C17 1_555 1_555
C24 C17 1_555 1_555
C25 N3 1_555 1_555
C26 N3 1_555 1_555
C27 N3 1_555 1_555
N1 C1 1_555 1_555
N2 C10 1_555 1_555
N3 N3B 1_555 1_555
O1 C13 1_555 1_555
O2 C13 1_555 1_555
O3 C24 1_555 1_555
O4 C24 1_555 1_555
O5 C25 1_555 1_555
Zn1 N1 1_555 1_555
Zn2 N2 1_555 1_555
C1B H1B 1_555 1_555
C2B C1B 1_555 1_555
H2B C2B 1_555 1_555
C3B C2B 1_555 1_555
C4B C3B 1_555 1_555
H3B C4B 1_555 1_555
C5B C4B 1_555 1_555
H4B C5B 1_555 1_555
C6B C3B 1_555 1_555
H5B C6B 1_555 1_555
H6B C6B 1_555 1_555
C7B C6B 1_555 1_555
H7B C7B 1_555 1_555
H8B C7B 1_555 1_555
C8B C7B 1_555 1_555
C9B C8B 1_555 1_555
H9B C9B 1_555 1_555
C10B C9B 1_555 1_555
H10B C10B 1_555 1_555
C11B H11B 1_555 1_555
C12B C8B 1_555 1_555
H12B C12B 1_555 1_555
C13B C14B 1_555 1_555
C14B C15B 1_555 1_555
C15B H13B 1_555 1_555
C16B C15B 1_555 1_555
H14B C16B 1_555 1_555
C17B C16B 1_555 1_555
C18B H15B 1_555 1_555
C19B C18B 1_555 1_555
H16B C19B 1_555 1_555
C20B C19B 1_555 1_555
H17B C20B 1_555 1_555
C21B C20B 1_555 1_555
H18B C21B 1_555 1_555
C22B C14B 1_555 1_555
C23B C17B 1_555 1_555
C24B C17B 1_555 1_555
C26B N3B 1_555 1_555
N1B Zn1 1_555 1_555
N2B C10B 1_555 1_555
N2B_2 Zn2 1_555 1_555
N3B C25 1_555 1_555
O1B C13B 1_555 1_555
O1_2 Zn2 1_555 1_555
O1B_2 Zn2 1_555 1_555
O2B C13B 1_555 1_555
O2_2 Zn2 1_555 1_555
O2B_2 Zn2 1_555 1_555
O3B Zn1 1_555 1_555
O4B Zn1 1_555 1_555
Zn2_2 O1 1_555 1_555
Zn2_3 N2B 1_555 1_555
Zn2_4 O1B 1_555 1_555
C5 N1 1_555 1_555
C11 C12 1_555 1_555
C11 N2 1_555 1_555
C18 C23 1_555 1_555
C21 C22 1_555 1_555
C22 C23 1_555 1_555
C27 N3B 1_555 1_555
O2 Zn2_2 1_555 1_555
O3 Zn1 1_555 1_555
O4 Zn1 1_555 1_555
C1B N1B 1_555 1_555
C5B N1B 1_555 1_555
C11B C12B 1_555 1_555
C11B N2B 1_555 1_555
C18B C23B 1_555 1_555
C21B C22B 1_555 1_555
C22B C23B 1_555 1_555
C24B O3B 1_555 1_555
C24B O4B 1_555 1_555
O2B Zn2_4 1_555 1_555

#END
