
#######################################################################
#
#                 Cambridge Crystallographic Data Centre
#                                CCDC 
#
#######################################################################
#
# If this CIF has been generated from an entry in the Cambridge 
# Structural Database, then it will include bibliographic, chemical, 
# crystal, experimental, refinement or atomic coordinate data resulting 
# from the CCDC's data processing and validation procedures.
#
#######################################################################

data_XADFOZ
_symmetry_cell_setting           monoclinic
_symmetry_space_group_name_H-M   'P 2/c'
_symmetry_Int_Tables_number      13
_space_group_name_Hall           '-P 2yc'
loop_
_symmetry_equiv_pos_site_id
_symmetry_equiv_pos_as_xyz
1 x,y,z
2 -x,y,1/2-z
3 -x,-y,-z
4 x,-y,1/2+z
_cell_length_a                   9.8849(2)
_cell_length_b                   11.5339(3)
_cell_length_c                   9.8248(2)
_cell_angle_alpha                90
_cell_angle_beta                 109.8970(10)
_cell_angle_gamma                90
_cell_volume                     1053.27
loop_
_atom_site_label
_atom_site_type_symbol
_atom_site_fract_x
_atom_site_fract_y
_atom_site_fract_z
Zn1 Zn 1.0000 0.07874(4) 0.7500
C1 C 0.8785(3) -0.1713(3) 0.7234(4)
H1 H 0.7927 -0.1307 0.7041
O1 O 1.1834(2) 0.07709(17) 0.9370(2)
O2 O 1.3320(2) 0.1765(2) 0.8540(2)
N1 N 1.0000 -0.1107(3) 0.7500
C2 C 1.4042(3) 0.1382(2) 1.1066(3)
C3 C 1.0000 -0.3537(4) 0.7500
C4 C 1.4096(4) 0.3546(3) 1.1062(4)
H2 H 1.3490 0.3561 1.0102
C5 C 1.4532(3) 0.2459(2) 1.1763(3)
C6 C 0.8735(4) -0.2909(3) 0.7231(4)
H3 H 0.7863 -0.3292 0.7051
C7 C 1.4512(3) 0.0360(3) 1.1785(3)
H4 H 1.4182 -0.0341 1.1324
C8 C 1.2997(3) 0.1316(2) 0.9537(3)
N2 N 1.0000 -0.7259(3) 0.7500
C9 C 1.0703(4) -0.6647(3) 0.6792(4)
H5 H 1.1180 -0.7049 0.6270
C10 C 1.4549(4) 0.4563(3) 1.1769(4)
H6 H 1.4262 0.5263 1.1287
C11 C 1.0756(4) -0.5452(3) 0.6797(4)
H7 H 1.1301 -0.5070 0.6327
C12 C 1.0000 -0.4819(3) 0.7500
O3 O 0.8720(3) 0.08269(19) 0.8817(2)
H8 H 0.854(4) 0.027(4) 0.930(4)
H9 H 0.797(6) 0.096(5) 0.838(6)
Zn1_2 Zn 1.0000 -0.92126(4) 0.7500
Zn1_3 Zn 2.0000 0.07874(4) 1.7500
C1A C 1.1215(3) -0.1713(3) 0.7766(4)
H1A H 1.2073 -0.1307 0.7959
O1A O 1.8166(2) 0.07709(17) 1.5630(2)
O1A_2 O 0.8166(2) 0.07709(17) 0.5630(2)
O2A O 1.6680(2) 0.1765(2) 1.6460(2)
C2A C 1.5958(3) 0.1382(2) 1.3934(3)
C4A C 1.5904(4) 0.3546(3) 1.3938(4)
H2A H 1.6510 0.3561 1.4898
C5A C 1.5468(3) 0.2459(2) 1.3237(3)
C6A C 1.1265(4) -0.2909(3) 0.7769(4)
H3A H 1.2137 -0.3292 0.7949
C7A C 1.5488(3) 0.0360(3) 1.3215(3)
H4A H 1.5818 -0.0341 1.3676
C8A C 1.7003(3) 0.1316(2) 1.5463(3)
N2_2 N 1.0000 0.2741(3) 0.7500
C9A C 0.9297(4) -0.6647(3) 0.8208(4)
H5A H 0.8820 -0.7049 0.8730
C10A C 1.5451(4) 0.4563(3) 1.3231(4)
H6A H 1.5738 0.5263 1.3713
C11A C 0.9244(4) -0.5452(3) 0.8203(4)
H7A H 0.8699 -0.5070 0.8673
O3A O 1.1280(3) 0.08269(19) 0.6183(2)
H8A H 1.146(4) 0.027(4) 0.570(4)
H9A H 1.203(6) 0.096(5) 0.662(6)
O4 O 1.3944(8) 0.7359(6) 1.1174(8)
loop_
_geom_bond_atom_site_label_1
_geom_bond_atom_site_label_2
_geom_bond_site_symmetry_1
_geom_bond_site_symmetry_2
Zn1 O1 1_555 1_555
C1 H1 1_555 1_555
O1 C8 1_555 1_555
O2 C8 1_555 1_555
N1 Zn1 1_555 1_555
C2 C5 1_555 1_555
C3 C6 1_555 1_555
C4 H2 1_555 1_555
C5 C4 1_555 1_555
C6 C1 1_555 1_555
H3 C6 1_555 1_555
C7 C2 1_555 1_555
H4 C7 1_555 1_555
C8 C2 1_555 1_555
N2 C9 1_555 1_555
C9 H5 1_555 1_555
C10 C4 1_555 1_555
H6 C10 1_555 1_555
C11 C9 1_555 1_555
H7 C11 1_555 1_555
C12 C3 1_555 1_555
O3 Zn1 1_555 1_555
H8 O3 1_555 1_555
H9 O3 1_555 1_555
Zn1_2 N2 1_555 1_555
Zn1_3 O1A 1_555 1_555
C1A N1 1_555 1_555
H1A C1A 1_555 1_555
O1A C8A 1_555 1_555
O1A_2 Zn1 1_555 1_555
O2A C8A 1_555 1_555
C2A C5A 1_555 1_555
C4A H2A 1_555 1_555
C5A C5 1_555 1_555
C6A C3 1_555 1_555
H3A C6A 1_555 1_555
C7A C7 1_555 1_555
H4A C7A 1_555 1_555
C8A C2A 1_555 1_555
N2_2 Zn1 1_555 1_555
C9A N2 1_555 1_555
H5A C9A 1_555 1_555
C10A C10 1_555 1_555
H6A C10A 1_555 1_555
C11A C12 1_555 1_555
H7A C11A 1_555 1_555
O3A Zn1 1_555 1_555
H8A O3A 1_555 1_555
H9A O3A 1_555 1_555
C1 N1 1_555 1_555
C11 C12 1_555 1_555
C1A C6A 1_555 1_555
C2A C7A 1_555 1_555
C4A C5A 1_555 1_555
C4A C10A 1_555 1_555
C9A C11A 1_555 1_555

#END
