
#######################################################################
#
#                 Cambridge Crystallographic Data Centre
#                                CCDC 
#
#######################################################################
#
# If this CIF has been generated from an entry in the Cambridge 
# Structural Database, then it will include bibliographic, chemical, 
# crystal, experimental, refinement or atomic coordinate data resulting 
# from the CCDC's data processing and validation procedures.
#
#######################################################################

data_XADGOA
_symmetry_cell_setting           monoclinic
_symmetry_space_group_name_H-M   'P 21/n'
_symmetry_Int_Tables_number      14
_space_group_name_Hall           '-P 2yn'
loop_
_symmetry_equiv_pos_site_id
_symmetry_equiv_pos_as_xyz
1 x,y,z
2 1/2-x,1/2+y,1/2-z
3 -x,-y,-z
4 1/2+x,1/2-y,1/2+z
_cell_length_a                   11.750(2)
_cell_length_b                   9.832(2)
_cell_length_c                   14.630(3)
_cell_angle_alpha                90
_cell_angle_beta                 97.73(3)
_cell_angle_gamma                90
_cell_volume                     1674.79
loop_
_atom_site_label
_atom_site_type_symbol
_atom_site_fract_x
_atom_site_fract_y
_atom_site_fract_z
C1 C 0.2750(5) 0.1406(7) 0.2187(5)
C2 C 0.1500(6) 0.1229(7) 0.2217(5)
C3 C 0.0929(6) 0.2086(8) 0.2760(5)
H1 H 0.1334 0.2745 0.3126
C4 C -0.0242(6) 0.1954(8) 0.2753(6)
H2 H -0.0622 0.2523 0.3120
C5 C -0.0857(5) 0.0985(7) 0.2205(5)
C6 C -0.0280(6) 0.0074(7) 0.1686(5)
C7 C 0.0889(5) 0.0196(7) 0.1693(5)
H3 H 0.1275 -0.0404 0.1351
C8 C -0.0853(5) -0.1075(8) 0.1089(5)
C9 C -0.2143(6) 0.0927(8) 0.2182(6)
O1 O 0.3148(4) -0.1420(5) 0.0154(4)
O2 O 0.3634(4) 0.2056(5) -0.0340(4)
O3 O 0.4885(4) -0.0327(5) -0.0888(3)
O4 O 0.4780(5) -0.3011(6) -0.1603(4)
O5 O 0.4686(5) 0.0009(5) -0.2906(4)
O6 O 0.3397(4) 0.2008(6) 0.2811(3)
O7 O 0.3193(4) 0.0887(5) 0.1513(3)
O8 O -0.0682(4) -0.2307(5) 0.1341(3)
O9 O -0.1409(4) -0.0743(5) 0.0310(3)
O10 O -0.2698(4) 0.0049(7) 0.1684(4)
O11 O -0.2637(5) 0.1745(7) 0.2637(6)
U1 U 0.345670(19) 0.03086(3) -0.008870(17)
U2 U 0.47242(2) -0.14517(3) -0.221070(17)
O3B O 0.5115(4) 0.0327(5) 0.0888(3)
O6B O 0.6603(4) -0.2008(6) -0.2811(3)
O7B O 0.6807(4) -0.0887(5) -0.1513(3)
O8C O 0.4318(4) -0.2693(5) -0.3659(3)
O9B O 0.1409(4) 0.0743(5) -0.0310(3)
O10B O 0.2698(4) -0.0049(7) -0.1684(4)
O11B O 0.2637(5) -0.1745(7) -0.2637(6)
U1B U 0.654330(19) -0.03086(3) 0.008870(17)
U1B_2 U -0.345670(19) -0.03086(3) 0.008870(17)
U2B U 0.52758(2) 0.14517(3) 0.221070(17)
U2C U -0.02758(2) -0.35483(3) 0.278930(17)
U2B_2 U -0.47242(2) 0.14517(3) 0.221070(17)
C10 C 0.7877(15) 0.5785(14) -0.0726(8)
H4 H 0.7970 0.4965 -0.1064
H5 H 0.8516 0.6380 -0.0770
H6 H 0.7178 0.6229 -0.0981
C11 C 0.682(2) 0.4657(16) 0.0416(16)
H7 H 0.6140 0.5200 0.0272
H8 H 0.6899 0.4390 0.1052
H9 H 0.6761 0.3861 0.0032
N1 N 0.7827(10) 0.5452(10) 0.0248(7)
H10 H 0.8463 0.4983 0.0466
H11 H 0.7834 0.6232 0.0570
O12 O 0.9226(14) 0.3161(16) 0.0213(10)
loop_
_geom_bond_atom_site_label_1
_geom_bond_atom_site_label_2
_geom_bond_site_symmetry_1
_geom_bond_site_symmetry_2
C1 C2 1_555 1_555
C2 C3 1_555 1_555
C3 H1 1_555 1_555
C4 C3 1_555 1_555
H2 C4 1_555 1_555
C5 C4 1_555 1_555
C6 C5 1_555 1_555
C7 C2 1_555 1_555
H3 C7 1_555 1_555
C8 C6 1_555 1_555
C9 C5 1_555 1_555
C10 H4 1_555 1_555
H5 C10 1_555 1_555
H6 C10 1_555 1_555
C11 H7 1_555 1_555
H8 C11 1_555 1_555
H9 C11 1_555 1_555
N1 C10 1_555 1_555
H10 N1 1_555 1_555
H11 N1 1_555 1_555
O1 U1 1_555 1_555
O2 U1 1_555 1_555
O3 U1 1_555 1_555
O4 U2 1_555 1_555
O5 U2 1_555 1_555
O6 C1 1_555 1_555
O7 C1 1_555 1_555
O8 C8 1_555 1_555
O9 C8 1_555 1_555
O10 C9 1_555 1_555
O11 C9 1_555 1_555
U1 O7 1_555 1_555
U2 O3 1_555 1_555
O3B U1 1_555 1_555
O6B U2 1_555 1_555
O7B U2 1_555 1_555
O8C U2 1_555 1_555
O9B U1 1_555 1_555
O10B U1 1_555 1_555
O11B U2 1_555 1_555
U1B O3 1_555 1_555
U1B_2 O9 1_555 1_555
U2B O6 1_555 1_555
U2C O8 1_555 1_555
U2B_2 O11 1_555 1_555
C6 C7 1_555 1_555
C11 N1 1_555 1_555
O7 U2B 1_555 1_555
O10 U1B_2 1_555 1_555
O3B U1B 1_555 1_555
O3B U2B 1_555 1_555
O7B U1B 1_555 1_555

#END
