
#######################################################################
#
#                 Cambridge Crystallographic Data Centre
#                                CCDC 
#
#######################################################################
#
# If this CIF has been generated from an entry in the Cambridge 
# Structural Database, then it will include bibliographic, chemical, 
# crystal, experimental, refinement or atomic coordinate data resulting 
# from the CCDC's data processing and validation procedures.
#
#######################################################################

data_XADKEU
_symmetry_cell_setting           monoclinic
_symmetry_space_group_name_H-M   'P 2/c'
_symmetry_Int_Tables_number      13
_space_group_name_Hall           '-P 2yc'
loop_
_symmetry_equiv_pos_site_id
_symmetry_equiv_pos_as_xyz
1 x,y,z
2 -x,y,1/2-z
3 -x,-y,-z
4 x,-y,1/2+z
_cell_length_a                   15.320(3)
_cell_length_b                   6.9028(1)
_cell_length_c                   19.930(4)
_cell_angle_alpha                90
_cell_angle_beta                 97.39(3)
_cell_angle_gamma                90
_cell_volume                     2090.11
loop_
_atom_site_label
_atom_site_type_symbol
_atom_site_fract_x
_atom_site_fract_y
_atom_site_fract_z
C1 C 0.5000 0.3890(8) 0.7500
H1 H 0.5000 0.2542 0.7500
C2 C 0.4601(2) 0.4928(5) 0.6946(2)
H2 H 0.4320 0.4287 0.6568
C3 C 0.4630(2) 0.6935(5) 0.69659(18)
N1 N 0.5000 0.7951(6) 0.7500
C4 C 0.4234(2) 0.8098(6) 0.63636(18)
O1 O 0.46488(17) 0.9732(4) 0.63069(13)
O2 O 0.3615(2) 0.7527(5) 0.59816(16)
H11 H 0.439(3) 1.035(6) 0.5985(16)
C2A C 0.5399(2) 0.4928(5) 0.8054(2)
H2A H 0.5680 0.4287 0.8432
C3A C 0.5370(2) 0.6935(5) 0.80341(18)
C4A C 0.5766(2) 0.8098(6) 0.86364(18)
O1A O 0.53512(17) 0.9732(4) 0.86931(13)
O2A O 0.6385(2) 0.7527(5) 0.90184(16)
H11A H 0.561(3) 1.035(6) 0.9015(16)
C5 C 0.7504(2) 0.1279(5) 0.70235(16)
C6 C 0.6672(2) 0.1386(5) 0.66725(18)
H3 H 0.6178 0.1413 0.6899
C7 C 0.6588(2) 0.1450(6) 0.59715(18)
H4 H 0.6036 0.1575 0.5719
C8 C 0.7334(2) 0.1327(5) 0.56534(16)
H5 H 0.7297 0.1397 0.5185
C9 C 0.8146(2) 0.1096(4) 0.60505(15)
C10 C 0.7653(2) 0.1495(5) 0.77849(16)
C11 C 0.8990(2) 0.0823(4) 0.57283(15)
C12 C 1.3278(2) 0.7500(5) 1.02834(18)
C13 C 1.2910(2) 0.6780(5) 0.95913(17)
C14 C 1.3435(2) 0.6671(6) 0.90743(19)
H6 H 1.4037 0.6896 0.9158
C15 C 1.3037(2) 0.6220(6) 0.84305(19)
H7 H 1.3366 0.6196 0.8070
C16 C 1.2153(2) 0.5807(5) 0.83282(16)
H8 H 1.1874 0.5496 0.7899
C17 C 1.1683(2) 0.5865(4) 0.88794(15)
C18 C 1.0714(2) 0.5319(4) 0.88085(16)
N2 N 0.82367(17) 0.1118(4) 0.67270(13)
N3 N 1.20482(17) 0.6373(4) 0.94992(13)
O3 O 1.0845(2) -0.2153(4) 0.71055(16)
O4 O 1.1740(2) 0.3445(5) 1.09082(16)
O5 O 0.83767(16) 0.1866(4) 0.80872(12)
O6 O 0.69356(17) 0.1342(5) 0.80604(13)
O7 O 0.96964(15) 0.0704(4) 0.61111(12)
O8 O 0.89135(17) 0.0737(4) 0.50915(12)
O9 O 1.27502(17) 0.7680(4) 1.07169(13)
O10 O 1.40753(17) 0.7932(4) 1.03770(14)
O11 O 1.03383(15) 0.5476(4) 0.93344(12)
O12 O 1.03576(16) 0.4710(4) 0.82517(12)
Ba1 Ba 1.0000 0.12551(4) 0.7500
Ba2 Ba 1.095250(12) 0.71676(3) 1.053640(9)
H9 H 1.2269(14) 0.332(8) 1.098(3)
H10 H 1.115(3) -0.220(9) 0.681(2)
H12 H 1.167(3) 0.275(6) 1.0588(18)
H13 H 1.066(4) -0.323(5) 0.711(4)
H14 H 0.708(4) 0.137(10) 0.8456(11)
C5A C 1.2496(2) 0.1279(5) 0.79765(16)
C6A C 1.3328(2) 0.1386(5) 0.83275(18)
H3A H 1.3822 0.1413 0.8101
C7A C 1.3412(2) 0.1450(6) 0.90285(18)
H4A H 1.3964 0.1575 0.9281
C8A C 1.2666(2) 0.1327(5) 0.93466(16)
H5A H 1.2703 0.1397 0.9815
C9A C 1.1854(2) 0.1096(4) 0.89495(15)
C10A C 1.2347(2) 0.1495(5) 0.72151(16)
C11A C 1.1010(2) 0.0823(4) 0.92717(15)
C12A C 0.6722(2) 0.7500(5) 0.47166(18)
C13A C 0.7090(2) 0.6780(5) 0.54087(17)
C14A C 0.6565(2) 0.6671(6) 0.59257(19)
H6A H 0.5963 0.6896 0.5842
C15A C 0.6963(2) 0.6220(6) 0.65695(19)
H7A H 0.6634 0.6196 0.6930
C16A C 0.7847(2) 0.5807(5) 0.66718(16)
H8A H 0.8126 0.5496 0.7101
C17A C 0.8317(2) 0.5865(4) 0.61206(15)
C18A C 0.9286(2) 0.5319(4) 0.61915(16)
N2A N 1.17633(17) 0.1118(4) 0.82730(13)
N3A N 0.79518(17) 0.6373(4) 0.55008(13)
O3A O 0.9155(2) -0.2153(4) 0.78945(16)
O4A O 0.8260(2) 0.3445(5) 0.40918(16)
O5A O 1.16233(16) 0.1866(4) 0.69128(12)
O5B O 1.16233(16) 0.8134(4) 1.19128(12)
O5C O 0.83767(16) 0.8134(4) 0.30872(12)
O6A O 1.30644(17) 0.1342(5) 0.69396(13)
O7A O 1.03036(15) 0.0704(4) 0.88889(12)
O7C O 0.96964(15) 0.9296(4) 1.11111(12)
O7B O 1.03036(15) 0.9296(4) 0.38889(12)
O8A O 1.10865(17) 0.0737(4) 0.99085(12)
O8A_2 O 1.10865(17) 1.0737(4) 0.99085(12)
O8_2 O 0.89135(17) 1.0737(4) 0.50915(12)
O9A O 0.72498(17) 0.7680(4) 0.42831(13)
O10A O 0.59247(17) 0.7932(4) 0.46230(14)
O11A O 0.96617(15) 0.5476(4) 0.56656(12)
O11B O 0.96617(15) 0.4524(4) 1.06656(12)
O11C O 1.03383(15) 0.4524(4) 0.43344(12)
O12A O 0.96424(16) 0.4710(4) 0.67483(12)
Ba2A Ba 0.904750(12) 0.71676(3) 0.446360(9)
Ba2B Ba 0.904750(12) 0.28324(3) 0.946360(9)
Ba2C Ba 1.095250(12) 0.28324(3) 0.553640(9)
Ba2A_2 Ba 0.904750(12) -0.28324(3) 0.446360(9)
Ba2_2 Ba 1.095250(12) -0.28324(3) 1.053640(9)
H9A H 0.7731(14) 0.332(8) 0.402(3)
H10A H 0.885(3) -0.220(9) 0.819(2)
H12A H 0.833(3) 0.275(6) 0.4412(18)
H13A H 0.934(4) -0.323(5) 0.789(4)
H14A H 1.292(4) 0.137(10) 0.6544(11)
loop_
_geom_bond_atom_site_label_1
_geom_bond_atom_site_label_2
_geom_bond_site_symmetry_1
_geom_bond_site_symmetry_2
C1 H1 1_555 1_555
C2 C1 1_555 1_555
H2 C2 1_555 1_555
C3 C2 1_555 1_555
N1 C3 1_555 1_555
C4 C3 1_555 1_555
C5 C6 1_555 1_555
C6 H3 1_555 1_555
C7 C6 1_555 1_555
H4 C7 1_555 1_555
C8 C7 1_555 1_555
H5 C8 1_555 1_555
C9 C8 1_555 1_555
C10 C5 1_555 1_555
C11 C9 1_555 1_555
C12 C13 1_555 1_555
C13 C14 1_555 1_555
C14 H6 1_555 1_555
C15 C14 1_555 1_555
H7 C15 1_555 1_555
C16 C15 1_555 1_555
H8 C16 1_555 1_555
C17 C16 1_555 1_555
C18 C17 1_555 1_555
N2 C5 1_555 1_555
N3 C13 1_555 1_555
O1 C4 1_555 1_555
O2 C4 1_555 1_555
O3 Ba1 1_555 1_555
O4 Ba2 1_555 1_555
O5 C10 1_555 1_555
O6 C10 1_555 1_555
O7 C11 1_555 1_555
O8 C11 1_555 1_555
O9 C12 1_555 1_555
O10 C12 1_555 1_555
O11 C18 1_555 1_555
O12 C18 1_555 1_555
Ba1 N2 1_555 1_555
Ba2 N3 1_555 1_555
H9 O4 1_555 1_555
H10 O3 1_555 1_555
H11 O1 1_555 1_555
H12 O4 1_555 1_555
H13 O3 1_555 1_555
H14 O6 1_555 1_555
C2A C1 1_555 1_555
H2A C2A 1_555 1_555
C3A N1 1_555 1_555
C4A C3A 1_555 1_555
C5A C6A 1_555 1_555
C6A H3A 1_555 1_555
C7A C6A 1_555 1_555
H4A C7A 1_555 1_555
C8A C7A 1_555 1_555
H5A C8A 1_555 1_555
C9A C8A 1_555 1_555
C10A C5A 1_555 1_555
C11A C9A 1_555 1_555
C12A C13A 1_555 1_555
C13A C14A 1_555 1_555
C14A H6A 1_555 1_555
C15A C14A 1_555 1_555
H7A C15A 1_555 1_555
C16A C15A 1_555 1_555
H8A C16A 1_555 1_555
C17A C16A 1_555 1_555
C18A C17A 1_555 1_555
N2A Ba1 1_555 1_555
N3A C13A 1_555 1_555
O1A C4A 1_555 1_555
O2A C4A 1_555 1_555
O3A Ba1 1_555 1_555
O4A Ba2A 1_555 1_555
O5A Ba1 1_555 1_555
O5B Ba2 1_555 1_555
O5C Ba2A 1_555 1_555
O6A C10A 1_555 1_555
O7A Ba1 1_555 1_555
O7C Ba2 1_555 1_555
O7B Ba2A 1_555 1_555
O8A C11A 1_555 1_555
O8A_2 Ba2 1_555 1_555
O8_2 Ba2A 1_555 1_555
O9A C12A 1_555 1_555
O10A C12A 1_555 1_555
O11A C18A 1_555 1_555
O11B Ba2 1_555 1_555
O11C Ba2A 1_555 1_555
O12A Ba1 1_555 1_555
Ba2A N3A 1_555 1_555
Ba2B O5 1_555 1_555
Ba2C O7 1_555 1_555
Ba2A_2 O8 1_555 1_555
Ba2_2 O8A 1_555 1_555
H9A O4A 1_555 1_555
H10A O3A 1_555 1_555
H11A O1A 1_555 1_555
H12A O4A 1_555 1_555
H13A O3A 1_555 1_555
H14A O6A 1_555 1_555
C9 N2 1_555 1_555
C17 N3 1_555 1_555
O5 Ba1 1_555 1_555
O7 Ba1 1_555 1_555
O9 Ba2 1_555 1_555
O11 Ba2 1_555 1_555
O11 Ba2B 1_555 1_555
O12 Ba1 1_555 1_555
C2A C3A 1_555 1_555
C5A N2A 1_555 1_555
C9A N2A 1_555 1_555
C10A O5A 1_555 1_555
C11A O7A 1_555 1_555
C17A N3A 1_555 1_555
C18A O12A 1_555 1_555
O5A Ba2C 1_555 1_555
O7A Ba2B 1_555 1_555
O9A Ba2A 1_555 1_555
O11A Ba2A 1_555 1_555
O11A Ba2C 1_555 1_555
O11B Ba2B 1_555 1_555
O11C Ba2C 1_555 1_555

#END
