
#######################################################################
#
#                 Cambridge Crystallographic Data Centre
#                                CCDC 
#
#######################################################################
#
# If this CIF has been generated from an entry in the Cambridge 
# Structural Database, then it will include bibliographic, chemical, 
# crystal, experimental, refinement or atomic coordinate data resulting 
# from the CCDC's data processing and validation procedures.
#
#######################################################################

data_XADLAR
_symmetry_cell_setting           triclinic
_symmetry_space_group_name_H-M   'P -1'
_symmetry_Int_Tables_number      2
_space_group_name_Hall           '-P 1'
loop_
_symmetry_equiv_pos_site_id
_symmetry_equiv_pos_as_xyz
1 x,y,z
2 -x,-y,-z
_cell_length_a                   11.0624(12)
_cell_length_b                   15.427(2)
_cell_length_c                   15.736(2)
_cell_angle_alpha                67.5980(10)
_cell_angle_beta                 88.270(2)
_cell_angle_gamma                79.304(2)
_cell_volume                     2437.26
loop_
_atom_site_label
_atom_site_type_symbol
_atom_site_fract_x
_atom_site_fract_y
_atom_site_fract_z
Sn1 Sn -0.45203(10) -0.28045(8) -0.38304(8)
O1 O -0.5977(11) -0.2909(9) -0.4701(9)
O2 O -0.7566(11) -0.2137(10) -0.4171(10)
O3 O -0.9179(14) -0.2260(11) -0.5302(11)
O4 O -0.2864(11) -0.2805(9) -0.2893(9)
O5 O -0.1556(11) -0.1989(10) -0.3841(10)
O6 O 0.0198(12) -0.2618(10) -0.2494(10)
O13 O -1.0979(15) -0.0184(10) -0.5462(11)
O14 O -1.2422(13) -0.1013(11) -0.5516(10)
O15 O -1.1400(17) 0.0905(12) -0.7210(13)
Na1 Na -0.9605(6) -0.1391(5) -0.4080(5)
C1 C -0.714(2) -0.2595(16) -0.4664(16)
C2 C -0.7946(18) -0.2698(17) -0.5368(17)
H1 H -0.7660 -0.2401 -0.5989
C3 C -0.797(2) -0.3749(17) -0.5141(17)
H2 H -0.7503 -0.3970 -0.5576
H3 H -0.7621 -0.4140 -0.4525
C4 C -0.932(2) -0.3784(18) -0.5213(18)
H4 H -0.9619 -0.4128 -0.4614
H5 H -0.9461 -0.4092 -0.5626
C5 C -0.996(2) -0.2741(19) -0.5591(18)
H6 H -1.0053 -0.2494 -0.6257
H7 H -1.0772 -0.2667 -0.5343
C6 C -0.1831(19) -0.2532(16) -0.3119(17)
C7 C -0.0934(18) -0.2956(16) -0.2294(15)
H8 H -0.1309 -0.2788 -0.1792
C8 C -0.062(2) -0.4048(17) -0.1969(16)
H9 H -0.0951 -0.4347 -0.1373
H10 H -0.0949 -0.4259 -0.2406
C9 C 0.078(2) -0.4293(19) -0.1909(18)
H11 H 0.1067 -0.4724 -0.1289
H12 H 0.1071 -0.4602 -0.2329
C10 C 0.124(2) -0.337(2) -0.2162(18)
H13 H 0.1630 -0.3347 -0.1628
H14 H 0.1841 -0.3312 -0.2634
C11 C -0.4946(16) -0.1326(13) -0.4302(14)
H15 H -0.4227 -0.1085 -0.4242
H16 H -0.5585 -0.1139 -0.3946
H17 H -0.5224 -0.1070 -0.4937
C12 C -0.3230(15) -0.3502(14) -0.4489(14)
H18 H -0.2760 -0.3057 -0.4888
H19 H -0.3657 -0.3749 -0.4843
H20 H -0.2687 -0.4018 -0.4034
C13 C -0.5151(17) -0.3716(15) -0.2580(13)
H21 H -0.4807 -0.4369 -0.2477
H22 H -0.6033 -0.3622 -0.2618
H23 H -0.4897 -0.3569 -0.2080
C27 C -1.173(3) -0.0370(19) -0.5856(19)
C28 C -1.224(3) 0.030(2) -0.680(2)
H47 H -1.3045 0.0677 -0.6765
C29 C -1.235(2) -0.0201(17) -0.7464(17)
H48 H -1.1880 -0.0847 -0.7221
H49 H -1.3205 -0.0227 -0.7557
C30 C -1.184(3) 0.0394(19) -0.8368(18)
H50 H -1.1245 -0.0013 -0.8586
H51 H -1.2497 0.0728 -0.8835
C31 C -1.122(3) 0.110(2) -0.8160(19)
H52 H -1.0355 0.1010 -0.8280
H53 H -1.1607 0.1753 -0.8534
O5_2 O -1.1556(11) -0.1989(10) -0.3841(10)
O6_2 O -0.9802(12) -0.2618(10) -0.2494(10)
O13A O -0.9021(15) 0.0184(10) -0.4538(11)
O15A O -0.8600(17) -0.0905(12) -0.2790(13)
Na1A Na -1.0395(6) 0.1391(5) -0.5920(5)
Na1_2 Na 0.0395(6) -0.1391(5) -0.4080(5)
Sn2 Sn -0.08691(10) -0.72041(8) -0.11463(8)
O7 O 0.0839(13) -0.7076(11) -0.2082(10)
O8 O 0.2490(13) -0.8081(11) -0.1154(11)
O9 O 0.4006(13) -0.7531(10) -0.2499(10)
O10 O -0.2495(10) -0.7191(9) -0.0297(9)
O11 O -0.3597(11) -0.7859(9) -0.0925(10)
O12 O -0.5468(13) -0.7695(10) 0.0200(10)
O16 O 0.1998(13) -0.9013(10) 0.0478(9)
O17 O 0.3878(14) -0.9786(10) 0.0446(11)
O18 O 0.3902(18) -1.0826(13) 0.2245(14)
Na2 Na 0.4686(6) -0.8631(5) -0.0926(6)
C14 C 0.197(2) -0.7454(18) -0.1917(17)
C15 C 0.275(2) -0.7081(18) -0.2729(16)
H24 H 0.2465 -0.7209 -0.3245
C16 C 0.278(2) -0.6020(18) -0.3044(17)
H25 H 0.2387 -0.5765 -0.2607
H26 H 0.2357 -0.5666 -0.3642
C17 C 0.415(2) -0.5956(19) -0.3096(18)
H27 H 0.4302 -0.5474 -0.3678
H28 H 0.4402 -0.5793 -0.2601
C18 C 0.484(2) -0.6935(18) -0.3008(16)
H29 H 0.4973 -0.6974 -0.3606
H30 H 0.5625 -0.7098 -0.2674
C19 C -0.3481(17) -0.7453(15) -0.0388(16)
C20 C -0.4451(18) -0.7253(16) 0.0246(17)
H31 H -0.4104 -0.7510 0.0879
C21 C -0.4951(19) -0.6179(16) -0.0061(17)
H32 H -0.4550 -0.5908 0.0293
H33 H -0.4823 -0.5848 -0.0709
C22 C -0.632(2) -0.6105(17) 0.0119(18)
H34 H -0.6515 -0.5899 0.0626
H35 H -0.6812 -0.5658 -0.0424
C23 C -0.655(2) -0.7113(17) 0.0358(17)
H36 H -0.6749 -0.7382 0.0998
H37 H -0.7235 -0.7096 -0.0019
C24 C 0.0012(16) -0.6735(13) -0.0238(12)
H38 H 0.0202 -0.7252 0.0349
H39 H -0.0532 -0.6210 -0.0161
H40 H 0.0758 -0.6534 -0.0498
C25 C -0.0613(17) -0.8653(13) -0.0953(14)
H41 H -0.0154 -0.9035 -0.0384
H42 H -0.0168 -0.8750 -0.1453
H43 H -0.1400 -0.8835 -0.0935
C26 C -0.1896(17) -0.6171(14) -0.2328(13)
H44 H -0.2184 -0.6485 -0.2683
H45 H -0.1381 -0.5743 -0.2695
H46 H -0.2587 -0.5817 -0.2143
C32 C 0.299(2) -0.9664(18) 0.0857(19)
C33 C 0.274(3) -1.027(2) 0.183(2)
H54 H 0.2168 -1.0681 0.1836
C34 C 0.230(2) -0.9725(19) 0.2455(19)
H55 H 0.2308 -0.9051 0.2138
H56 H 0.1462 -0.9797 0.2633
C35 C 0.318(3) -1.016(2) 0.330(2)
H57 H 0.3438 -0.9653 0.3439
H58 H 0.2776 -1.0538 0.3833
C36 C 0.429(3) -1.078(2) 0.308(2)
H59 H 0.5008 -1.0485 0.3001
H60 H 0.4467 -1.1406 0.3571
O11_2 O 0.6403(11) -0.7859(9) -0.0925(10)
O12_2 O 0.4532(13) -0.7695(10) 0.0200(10)
O17A O 0.6122(14) -1.0214(10) -0.0446(11)
O18A O 0.6098(18) -0.9174(13) -0.2245(14)
Na2A Na 0.5314(6) -1.1369(5) 0.0926(6)
Na2_2 Na -0.5314(6) -0.8631(5) -0.0926(6)
loop_
_geom_bond_atom_site_label_1
_geom_bond_atom_site_label_2
_geom_bond_site_symmetry_1
_geom_bond_site_symmetry_2
Sn1 O1 1_555 1_555
Sn2 O7 1_555 1_555
O1 C1 1_555 1_555
O2 Na1 1_555 1_555
O3 Na1 1_555 1_555
O4 Sn1 1_555 1_555
O5 C6 1_555 1_555
O6 C7 1_555 1_555
O7 C14 1_555 1_555
O8 Na2 1_555 1_555
O9 Na2 1_555 1_555
O10 Sn2 1_555 1_555
O11 C19 1_555 1_555
O12 C20 1_555 1_555
O13 Na1 1_555 1_555
O14 C27 1_555 1_555
O15 C28 1_555 1_555
O16 C32 1_555 1_555
O17 Na2 1_555 1_555
O18 C33 1_555 1_555
Na1 O5_2 1_555 1_555
Na2 O11_2 1_555 1_555
C1 O2 1_555 1_555
C2 O3 1_555 1_555
H1 C2 1_555 1_555
C3 C2 1_555 1_555
H2 C3 1_555 1_555
H3 C3 1_555 1_555
C4 C3 1_555 1_555
H4 C4 1_555 1_555
H5 C4 1_555 1_555
C5 O3 1_555 1_555
H6 C5 1_555 1_555
H7 C5 1_555 1_555
C6 O4 1_555 1_555
C7 C6 1_555 1_555
H8 C7 1_555 1_555
C8 C7 1_555 1_555
H9 C8 1_555 1_555
H10 C8 1_555 1_555
C9 C8 1_555 1_555
H11 C9 1_555 1_555
H12 C9 1_555 1_555
C10 O6 1_555 1_555
H13 C10 1_555 1_555
H14 C10 1_555 1_555
C11 Sn1 1_555 1_555
H15 C11 1_555 1_555
H16 C11 1_555 1_555
H17 C11 1_555 1_555
C12 Sn1 1_555 1_555
H18 C12 1_555 1_555
H19 C12 1_555 1_555
H20 C12 1_555 1_555
C13 Sn1 1_555 1_555
H21 C13 1_555 1_555
H22 C13 1_555 1_555
H23 C13 1_555 1_555
C14 O8 1_555 1_555
C15 O9 1_555 1_555
H24 C15 1_555 1_555
C16 C15 1_555 1_555
H25 C16 1_555 1_555
H26 C16 1_555 1_555
C17 C16 1_555 1_555
H27 C17 1_555 1_555
H28 C17 1_555 1_555
C18 O9 1_555 1_555
H29 C18 1_555 1_555
H30 C18 1_555 1_555
C19 O10 1_555 1_555
C20 C19 1_555 1_555
H31 C20 1_555 1_555
C21 C20 1_555 1_555
H32 C21 1_555 1_555
H33 C21 1_555 1_555
C22 C21 1_555 1_555
H34 C22 1_555 1_555
H35 C22 1_555 1_555
C23 O12 1_555 1_555
H36 C23 1_555 1_555
H37 C23 1_555 1_555
C24 Sn2 1_555 1_555
H38 C24 1_555 1_555
H39 C24 1_555 1_555
H40 C24 1_555 1_555
C25 Sn2 1_555 1_555
H41 C25 1_555 1_555
H42 C25 1_555 1_555
H43 C25 1_555 1_555
C26 Sn2 1_555 1_555
H44 C26 1_555 1_555
H45 C26 1_555 1_555
H46 C26 1_555 1_555
C27 O13 1_555 1_555
C28 C27 1_555 1_555
H47 C28 1_555 1_555
C29 C28 1_555 1_555
H48 C29 1_555 1_555
H49 C29 1_555 1_555
C30 C29 1_555 1_555
H50 C30 1_555 1_555
H51 C30 1_555 1_555
C31 O15 1_555 1_555
H52 C31 1_555 1_555
H53 C31 1_555 1_555
C32 O17 1_555 1_555
C33 C32 1_555 1_555
H54 C33 1_555 1_555
C34 C33 1_555 1_555
H55 C34 1_555 1_555
H56 C34 1_555 1_555
C35 C34 1_555 1_555
H57 C35 1_555 1_555
H58 C35 1_555 1_555
C36 O18 1_555 1_555
H59 C36 1_555 1_555
H60 C36 1_555 1_555
O6_2 Na1 1_555 1_555
O12_2 Na2 1_555 1_555
O13A Na1 1_555 1_555
O15A Na1 1_555 1_555
O17A Na2 1_555 1_555
O18A Na2 1_555 1_555
Na1A O13 1_555 1_555
Na1_2 O5 1_555 1_555
Na2A O17 1_555 1_555
Na2_2 O11 1_555 1_555
O6 Na1_2 1_555 1_555
O12 Na2_2 1_555 1_555
O15 Na1A 1_555 1_555
O18 Na2A 1_555 1_555
C1 C2 1_555 1_555
C4 C5 1_555 1_555
C9 C10 1_555 1_555
C14 C15 1_555 1_555
C17 C18 1_555 1_555
C22 C23 1_555 1_555
C30 C31 1_555 1_555
C35 C36 1_555 1_555
O13A Na1A 1_555 1_555
O17A Na2A 1_555 1_555

#END
