
#######################################################################
#
#                 Cambridge Crystallographic Data Centre
#                                CCDC 
#
#######################################################################
#
# If this CIF has been generated from an entry in the Cambridge 
# Structural Database, then it will include bibliographic, chemical, 
# crystal, experimental, refinement or atomic coordinate data resulting 
# from the CCDC's data processing and validation procedures.
#
#######################################################################

data_XADMAS
_symmetry_cell_setting           monoclinic
_symmetry_space_group_name_H-M   'P 21/c'
_symmetry_Int_Tables_number      14
_space_group_name_Hall           '-P 2ybc'
loop_
_symmetry_equiv_pos_site_id
_symmetry_equiv_pos_as_xyz
1 x,y,z
2 -x,1/2+y,1/2-z
3 -x,-y,-z
4 x,1/2-y,1/2+z
_cell_length_a                   9.5378(8)
_cell_length_b                   6.6828(5)
_cell_length_c                   16.1310(13)
_cell_angle_alpha                90
_cell_angle_beta                 96.7490(10)
_cell_angle_gamma                90
_cell_volume                     1021.05
loop_
_atom_site_label
_atom_site_type_symbol
_atom_site_fract_x
_atom_site_fract_y
_atom_site_fract_z
Eu1 Eu 0.59264(6) 0.41862(9) 0.39933(3)
S1 S 0.4090(6) 0.0747(9) 0.5230(3)
O1 O 0.7987(13) 0.3868(19) 0.4987(7)
O2 O 0.6248(10) 0.473(2) 0.5571(6)
O3 O 0.5690(9) 0.5348(17) 0.7119(5)
O4 O 0.6490(10) 0.3503(16) 0.8183(6)
O5 O 0.4878(19) 0.127(2) 0.4487(11)
O6 O 0.3923(12) 0.2258(18) 0.5835(6)
O7 O 0.262(2) 0.017(4) 0.4992(12)
N1 N 1.1795(10) 0.4445(17) 0.8310(6)
H3 H 1.1877 0.4409 0.8846
N2 N 1.2396(10) 0.4576(16) 0.7012(6)
C1 C 0.7497(12) 0.4354(19) 0.5630(7)
C2 C 0.8482(12) 0.4434(19) 0.6422(7)
C3 C 0.9897(12) 0.445(2) 0.6302(7)
H4 H 1.0151 0.4443 0.5763
C4 C 1.0933(12) 0.4488(18) 0.6976(7)
C5 C 1.0555(12) 0.4408(19) 0.7774(7)
C6 C 0.9161(13) 0.4348(19) 0.7921(7)
H5 H 0.8929 0.4283 0.8464
C7 C 0.8135(12) 0.4386(18) 0.7266(7)
C8 C 0.6649(12) 0.4387(19) 0.7515(7)
C9 C 1.2876(12) 0.4552(19) 0.7812(7)
H6 H 1.3828 0.4601 0.8017
Eu1B Eu 0.40736(6) 0.58138(9) 0.60067(3)
Eu1C Eu 0.59264(6) 0.08138(9) 0.89933(3)
Eu1B_2 Eu 1.40736(6) 0.58138(9) 0.60067(3)
Eu1B_3 Eu 0.40736(6) -0.41862(9) 0.60067(3)
Eu1_2 Eu 0.59264(6) -0.58138(9) 0.39933(3)
Eu1A Eu 0.40736(6) 0.91862(9) 0.10067(3)
Eu1_3 Eu -0.40736(6) 0.41862(9) 0.39933(3)
S1B S 0.5910(6) -0.0747(9) 0.4770(3)
O1B O 0.2013(13) 0.6132(19) 0.5013(7)
O2B O 0.3752(10) 0.527(2) 0.4429(6)
O3B O 0.4310(9) 0.4652(17) 0.2881(5)
O4B O 0.3510(10) 0.6497(16) 0.1817(6)
O4C O 0.6490(10) 0.1497(16) 0.3183(6)
O4A O 0.3510(10) 0.8503(16) 0.6817(6)
O5B O 0.5122(19) -0.127(2) 0.5513(11)
O5B_2 O 0.5122(19) 0.873(2) 0.5513(11)
O6B O 0.6077(12) -0.2258(18) 0.4165(6)
O6B_2 O 0.6077(12) 0.7742(18) 0.4165(6)
O7B O 0.738(2) -0.017(4) 0.5008(12)
N1B N -0.1795(10) 0.5555(17) 0.1690(6)
H3B H -0.1877 0.5591 0.1154
N2B N -0.2396(10) 0.5424(16) 0.2988(6)
N2B_2 N 0.7604(10) 0.5424(16) 0.2988(6)
N2_2 N 0.2396(10) 0.4576(16) 0.7012(6)
C1B C 0.2503(12) 0.5646(19) 0.4370(7)
C2B C 0.1518(12) 0.5566(19) 0.3578(7)
C3B C 0.0103(12) 0.555(2) 0.3698(7)
H4B H -0.0151 0.5557 0.4237
C4B C -0.0933(12) 0.5512(18) 0.3024(7)
C5B C -0.0555(12) 0.5592(19) 0.2226(7)
C6B C 0.0839(13) 0.5652(19) 0.2079(7)
H5B H 0.1071 0.5717 0.1536
C7B C 0.1865(12) 0.5614(18) 0.2734(7)
C8B C 0.3351(12) 0.5613(19) 0.2485(7)
C9B C -0.2876(12) 0.5448(19) 0.2188(7)
H6B H -0.3828 0.5399 0.1983
O8 O 0.053(3) 0.019(7) 0.4936(16)
O8B O -0.053(3) -0.019(7) 0.5064(16)
H1? H 0.0040 0.1072 0.4653
H2? H 0.0176 -0.0959 0.4825
loop_
_geom_bond_atom_site_label_1
_geom_bond_atom_site_label_2
_geom_bond_site_symmetry_1
_geom_bond_site_symmetry_2
Eu1 O1 1_555 1_555
S1 O5 1_555 1_555
O1 C1 1_555 1_555
O2 Eu1 1_555 1_555
O3 C8 1_555 1_555
O4 C8 1_555 1_555
O5 Eu1 1_555 1_555
O6 S1 1_555 1_555
O7 S1 1_555 1_555
O8 O8B 1_555 1_555
N1 H3 1_555 1_555
N2 C4 1_555 1_555
C1 O2 1_555 1_555
C2 C1 1_555 1_555
C3 C2 1_555 1_555
H4 C3 1_555 1_555
C4 C3 1_555 1_555
C5 N1 1_555 1_555
C6 C5 1_555 1_555
H5 C6 1_555 1_555
C7 C2 1_555 1_555
C8 C7 1_555 1_555
C9 N1 1_555 1_555
H6 C9 1_555 1_555
Eu1B O2 1_555 1_555
Eu1C O4 1_555 1_555
Eu1B_2 N2 1_555 1_555
Eu1B_3 O5B 1_555 1_555
Eu1_2 O6B 1_555 1_555
Eu1A O4B 1_555 1_555
Eu1_3 N2B 1_555 1_555
S1B O5 1_555 1_555
O1B Eu1B 1_555 1_555
O2B Eu1 1_555 1_555
O3B Eu1 1_555 1_555
O4B C8B 1_555 1_555
O4C Eu1 1_555 1_555
O4A Eu1B 1_555 1_555
O5B S1 1_555 1_555
O5B_2 Eu1B 1_555 1_555
O6B S1B 1_555 1_555
O6B_2 Eu1 1_555 1_555
O7B S1B 1_555 1_555
N1B H3B 1_555 1_555
N2B C4B 1_555 1_555
N2B_2 Eu1 1_555 1_555
N2_2 Eu1B 1_555 1_555
C1B O1B 1_555 1_555
C2B C1B 1_555 1_555
C3B C2B 1_555 1_555
H4B C3B 1_555 1_555
C4B C3B 1_555 1_555
C5B N1B 1_555 1_555
C6B C5B 1_555 1_555
H5B C6B 1_555 1_555
C7B C2B 1_555 1_555
C8B O3B 1_555 1_555
C9B N1B 1_555 1_555
H6B C9B 1_555 1_555
O3 Eu1B 1_555 1_555
O6 Eu1B 1_555 1_555
N2 C9 1_555 1_555
C4 C5 1_555 1_555
C6 C7 1_555 1_555
Eu1B O2B 1_555 1_555
S1B O5B 1_555 1_555
O2B C1B 1_555 1_555
N2B C9B 1_555 1_555
C4B C5B 1_555 1_555
C6B C7B 1_555 1_555
C7B C8B 1_555 1_555

#END
