
#######################################################################
#
#                 Cambridge Crystallographic Data Centre
#                                CCDC 
#
#######################################################################
#
# If this CIF has been generated from an entry in the Cambridge 
# Structural Database, then it will include bibliographic, chemical, 
# crystal, experimental, refinement or atomic coordinate data resulting 
# from the CCDC's data processing and validation procedures.
#
#######################################################################

data_XADRUR
_symmetry_cell_setting           triclinic
_symmetry_space_group_name_H-M   'P -1'
_symmetry_Int_Tables_number      2
_space_group_name_Hall           '-P 1'
loop_
_symmetry_equiv_pos_site_id
_symmetry_equiv_pos_as_xyz
1 x,y,z
2 -x,-y,-z
_cell_length_a                   6.525(3)
_cell_length_b                   7.487(3)
_cell_length_c                   10.005(4)
_cell_angle_alpha                88.645(7)
_cell_angle_beta                 78.272(5)
_cell_angle_gamma                70.516(7)
_cell_volume                     450.646
loop_
_atom_site_label
_atom_site_type_symbol
_atom_site_fract_x
_atom_site_fract_y
_atom_site_fract_z
Co1 Co 0.2643(2) 0.17119(17) 0.03806(13)
P1 P -0.2669(4) 0.2129(3) 0.1117(2)
N1 N 0.1034(13) 0.1407(10) 0.3379(8)
C1 C -0.1167(16) 0.1508(12) 0.3578(9)
C2 C -0.2566(16) 0.2500(13) 0.4771(9)
H1 H -0.4076 0.2684 0.4902
C3 C -0.1844(17) 0.3204(13) 0.5742(10)
H2 H -0.2819 0.3817 0.6537
C4 C 0.0428(18) 0.2982(13) 0.5515(10)
H3 H 0.0981 0.3428 0.6175
C5 C 0.1821(15) 0.2114(13) 0.4330(11)
H4 H 0.3313 0.2005 0.4171
C6 C -0.1797(14) 0.0672(11) 0.2496(8)
H5 H -0.2996 0.0219 0.2916
H6 H -0.0542 -0.0429 0.2101
O1 O -0.0617(9) 0.2295(7) 0.0200(6)
O2 O -0.3876(9) 0.1126(7) 0.0411(6)
O3 O -0.4279(9) 0.4028(8) 0.1769(6)
O4 O 0.2456(9) 0.0511(8) 0.2277(6)
O5 O 0.1788(9) 0.4419(7) 0.1313(6)
H7 H 0.3038 0.4344 0.1572
H8 H 0.1266 0.5333 0.0757
O6 O 0.3508(9) 0.2661(8) -0.1639(6)
H9 H 0.3610 0.3817 -0.1621
H10 H 0.4752 0.1690 -0.1909
Co1A Co -0.2643(2) -0.17119(17) -0.03806(13)
Co1_2 Co -0.7357(2) 0.17119(17) 0.03806(13)
O2A O 0.3876(9) -0.1126(7) -0.0411(6)
O2_2 O 0.6124(9) 0.1126(7) 0.0411(6)
loop_
_geom_bond_atom_site_label_1
_geom_bond_atom_site_label_2
_geom_bond_site_symmetry_1
_geom_bond_site_symmetry_2
Co1 O1 1_555 1_555
P1 C6 1_555 1_555
N1 C1 1_555 1_555
C1 C2 1_555 1_555
C2 H1 1_555 1_555
C3 C2 1_555 1_555
H2 C3 1_555 1_555
C4 C3 1_555 1_555
H3 C4 1_555 1_555
C5 N1 1_555 1_555
H4 C5 1_555 1_555
C6 C1 1_555 1_555
H5 C6 1_555 1_555
H6 C6 1_555 1_555
O1 P1 1_555 1_555
O2 P1 1_555 1_555
O3 P1 1_555 1_555
O4 Co1 1_555 1_555
O5 Co1 1_555 1_555
H7 O5 1_555 1_555
H8 O5 1_555 1_555
O6 Co1 1_555 1_555
H9 O6 1_555 1_555
H10 O6 1_555 1_555
Co1A O2 1_555 1_555
Co1_2 O2 1_555 1_555
O2A Co1 1_555 1_555
O2_2 Co1 1_555 1_555
N1 O4 1_555 1_555
C4 C5 1_555 1_555

#END
