
#######################################################################
#
#                 Cambridge Crystallographic Data Centre
#                                CCDC 
#
#######################################################################
#
# If this CIF has been generated from an entry in the Cambridge 
# Structural Database, then it will include bibliographic, chemical, 
# crystal, experimental, refinement or atomic coordinate data resulting 
# from the CCDC's data processing and validation procedures.
#
#######################################################################

data_XADSEC
_symmetry_cell_setting           triclinic
_symmetry_space_group_name_H-M   'P -1'
_symmetry_Int_Tables_number      2
_space_group_name_Hall           '-P 1'
loop_
_symmetry_equiv_pos_site_id
_symmetry_equiv_pos_as_xyz
1 x,y,z
2 -x,-y,-z
_cell_length_a                   6.480(3)
_cell_length_b                   7.4162(18)
_cell_length_c                   9.910(2)
_cell_angle_alpha                88.391(12)
_cell_angle_beta                 77.98(3)
_cell_angle_gamma                70.091(18)
_cell_volume                     437.489
loop_
_atom_site_label
_atom_site_type_symbol
_atom_site_fract_x
_atom_site_fract_y
_atom_site_fract_z
Ni1 Ni 0.26711(12) 0.17150(11) 0.03724(8)
P1 P -0.2652(3) 0.2113(2) 0.11004(15)
N1 N 0.1009(8) 0.1417(7) 0.3393(5)
C1 C -0.1161(9) 0.1547(8) 0.3571(6)
C2 C -0.2580(10) 0.2488(8) 0.4787(6)
H1 H -0.4095 0.2632 0.4942
C3 C -0.1835(9) 0.3190(8) 0.5739(6)
H2 H -0.2823 0.3799 0.6547
C4 C 0.0435(9) 0.3011(8) 0.5522(6)
H3 H 0.0984 0.3487 0.6175
C5 C 0.1799(9) 0.2119(8) 0.4328(6)
H4 H 0.3310 0.1990 0.4153
C6 C -0.1820(9) 0.0603(8) 0.2502(5)
H5 H -0.3057 0.0192 0.2946
H6 H -0.0566 -0.0536 0.2118
O1 O -0.0549(6) 0.2228(6) 0.0200(4)
O2 O -0.3869(6) 0.1149(6) 0.0397(4)
O3 O -0.4286(6) 0.4043(5) 0.1746(4)
O4 O 0.2486(6) 0.0488(6) 0.2250(4)
O5 O 0.1758(7) 0.4349(6) 0.1306(4)
H7 H 0.130(11) 0.525(10) 0.078(7)
H8 H 0.322(12) 0.419(9) 0.144(7)
O6 O 0.3488(7) 0.2655(6) -0.1614(4)
H9 H 0.269(11) 0.382(10) -0.168(6)
H10 H 0.504(11) 0.251(9) -0.169(6)
Ni1_2 Ni -0.73289(12) 0.17150(11) 0.03724(8)
Ni1A Ni -0.26711(12) -0.17150(11) -0.03724(8)
O2_2 O 0.6131(6) 0.1149(6) 0.0397(4)
O2A O 0.3869(6) -0.1149(6) -0.0397(4)
loop_
_geom_bond_atom_site_label_1
_geom_bond_atom_site_label_2
_geom_bond_site_symmetry_1
_geom_bond_site_symmetry_2
Ni1 O1 1_555 1_555
P1 C6 1_555 1_555
N1 C1 1_555 1_555
C1 C2 1_555 1_555
C2 H1 1_555 1_555
C3 C2 1_555 1_555
H2 C3 1_555 1_555
C4 C3 1_555 1_555
H3 C4 1_555 1_555
C5 N1 1_555 1_555
H4 C5 1_555 1_555
C6 C1 1_555 1_555
H5 C6 1_555 1_555
H6 C6 1_555 1_555
O1 P1 1_555 1_555
O2 P1 1_555 1_555
O3 P1 1_555 1_555
O4 Ni1 1_555 1_555
O5 Ni1 1_555 1_555
H7 O5 1_555 1_555
H8 O5 1_555 1_555
O6 Ni1 1_555 1_555
H9 O6 1_555 1_555
H10 O6 1_555 1_555
Ni1_2 O2 1_555 1_555
Ni1A O2 1_555 1_555
O2_2 Ni1 1_555 1_555
O2A Ni1 1_555 1_555
N1 O4 1_555 1_555
C4 C5 1_555 1_555

#END
