
#######################################################################
#
#                 Cambridge Crystallographic Data Centre
#                                CCDC 
#
#######################################################################
#
# If this CIF has been generated from an entry in the Cambridge 
# Structural Database, then it will include bibliographic, chemical, 
# crystal, experimental, refinement or atomic coordinate data resulting 
# from the CCDC's data processing and validation procedures.
#
#######################################################################

data_XADTON01
_symmetry_cell_setting           monoclinic
_symmetry_space_group_name_H-M   'P 21/n'
_symmetry_Int_Tables_number      14
_space_group_name_Hall           '-P 2yn'
loop_
_symmetry_equiv_pos_site_id
_symmetry_equiv_pos_as_xyz
1 x,y,z
2 1/2-x,1/2+y,1/2-z
3 -x,-y,-z
4 1/2+x,1/2-y,1/2+z
_cell_length_a                   8.233(7)
_cell_length_b                   10.745(9)
_cell_length_c                   11.210(9)
_cell_angle_alpha                90
_cell_angle_beta                 90.033(10)
_cell_angle_gamma                90
_cell_volume                     991.677
loop_
_atom_site_label
_atom_site_type_symbol
_atom_site_fract_x
_atom_site_fract_y
_atom_site_fract_z
Cd1 Cd 0.0000 1.0000 1.0000
O1 O 0.2383(3) 0.8823(2) 1.02774(18)
O2 O 0.4207(3) 0.7688(3) 0.9305(2)
N1 N 0.0462(3) 0.7839(3) 0.6660(2)
H1 H 0.0213 0.7582 0.5957
N2 N 0.0270(3) 0.8783(2) 0.8384(2)
C1 C 0.1902(4) 0.7629(3) 0.7233(2)
O3 O 0.3046(3) 0.6436(2) 0.5700(2)
O4 O 0.4486(3) 0.6688(3) 0.7349(2)
H2 H 0.4366 0.7029 0.7997
C2 C 0.2845(4) 0.8267(3) 0.9375(3)
C3 C 0.1760(3) 0.8217(3) 0.8314(2)
C4 C -0.0501(4) 0.8518(3) 0.7380(3)
C5 C 0.3217(4) 0.6864(3) 0.6706(3)
C6 C -0.2241(5) 0.8854(5) 0.7127(4)
H3 H -0.2794 0.8995 0.7879
H4 H -0.2765 0.8154 0.6739
C7 C -0.2445(9) 0.9995(5) 0.6351(10)
H5 H -0.2069 0.9837 0.5545
H6 H -0.1851 1.0697 0.6676
C8 C -0.4293(12) 1.0242(10) 0.6370(13)
H7 H -0.4831 0.9658 0.5856
H8 H -0.4504 1.1073 0.6095
H9 H -0.4693 1.0150 0.7169
Cd1A Cd 0.5000 0.5000 0.5000
Cd1A_2 Cd -0.5000 1.5000 1.5000
O1B O -0.2383(3) 1.1177(2) 0.97226(18)
O2B O -0.4207(3) 1.2312(3) 1.0695(2)
N1B N -0.0462(3) 1.2161(3) 1.3340(2)
H1B H -0.0213 1.2418 1.4043
N2B N -0.0270(3) 1.1217(2) 1.1616(2)
C1B C -0.1902(4) 1.2371(3) 1.2767(2)
O3B O -0.3046(3) 1.3564(2) 1.4300(2)
O3A O 0.1954(3) 1.1436(2) 0.9300(2)
O3C O -0.1954(3) 0.8564(2) 1.0700(2)
O4B O -0.4486(3) 1.3312(3) 1.2651(2)
H2B H -0.4366 1.2971 1.2003
C2B C -0.2845(4) 1.1733(3) 1.0625(3)
C3B C -0.1760(3) 1.1783(3) 1.1686(2)
C4B C 0.0501(4) 1.1482(3) 1.2620(3)
C5B C -0.3217(4) 1.3136(3) 1.3294(3)
C6B C 0.2241(5) 1.1146(5) 1.2873(4)
H3B H 0.2794 1.1005 1.2121
H4B H 0.2765 1.1846 1.3261
C7B C 0.2445(9) 1.0005(5) 1.3649(10)
H5B H 0.2069 1.0163 1.4455
H6B H 0.1851 0.9303 1.3324
C8B C 0.4293(12) 0.9758(10) 1.3630(13)
H7B H 0.4831 1.0342 1.4144
H8B H 0.4504 0.8927 1.3905
H9B H 0.4693 0.9850 1.2831
loop_
_geom_bond_atom_site_label_1
_geom_bond_atom_site_label_2
_geom_bond_site_symmetry_1
_geom_bond_site_symmetry_2
Cd1 O1 1_555 1_555
O1 C2 1_555 1_555
O2 C2 1_555 1_555
N1 H1 1_555 1_555
N2 Cd1 1_555 1_555
C1 N1 1_555 1_555
O3 C5 1_555 1_555
O4 H2 1_555 1_555
C2 C3 1_555 1_555
C3 N2 1_555 1_555
C4 N1 1_555 1_555
C5 C1 1_555 1_555
C6 C4 1_555 1_555
H3 C6 1_555 1_555
H4 C6 1_555 1_555
C7 C6 1_555 1_555
H5 C7 1_555 1_555
H6 C7 1_555 1_555
C8 C7 1_555 1_555
H7 C8 1_555 1_555
H8 C8 1_555 1_555
H9 C8 1_555 1_555
Cd1A O3 1_555 1_555
Cd1A_2 O3B 1_555 1_555
O1B Cd1 1_555 1_555
O2B C2B 1_555 1_555
N1B H1B 1_555 1_555
N2B Cd1 1_555 1_555
C1B N1B 1_555 1_555
O3B C5B 1_555 1_555
O3A Cd1 1_555 1_555
O3C Cd1 1_555 1_555
O4B H2B 1_555 1_555
C2B O1B 1_555 1_555
C3B N2B 1_555 1_555
C4B N1B 1_555 1_555
C5B C1B 1_555 1_555
C6B C4B 1_555 1_555
H3B C6B 1_555 1_555
H4B C6B 1_555 1_555
C7B C6B 1_555 1_555
H5B C7B 1_555 1_555
H6B C7B 1_555 1_555
C8B C7B 1_555 1_555
H7B C8B 1_555 1_555
H8B C8B 1_555 1_555
H9B C8B 1_555 1_555
N2 C4 1_555 1_555
C1 C3 1_555 1_555
O4 C5 1_555 1_555
N2B C4B 1_555 1_555
C1B C3B 1_555 1_555
O4B C5B 1_555 1_555
C2B C3B 1_555 1_555

#END
