
#######################################################################
#
#                 Cambridge Crystallographic Data Centre
#                                CCDC 
#
#######################################################################
#
# If this CIF has been generated from an entry in the Cambridge 
# Structural Database, then it will include bibliographic, chemical, 
# crystal, experimental, refinement or atomic coordinate data resulting 
# from the CCDC's data processing and validation procedures.
#
#######################################################################

data_XADTED
_symmetry_cell_setting           triclinic
_symmetry_space_group_name_H-M   'P -1'
_symmetry_Int_Tables_number      2
_space_group_name_Hall           '-P 1'
loop_
_symmetry_equiv_pos_site_id
_symmetry_equiv_pos_as_xyz
1 x,y,z
2 -x,-y,-z
_cell_length_a                   9.0774(13)
_cell_length_b                   9.8720(15)
_cell_length_c                   11.4898(16)
_cell_angle_alpha                93.378(3)
_cell_angle_beta                 95.471(3)
_cell_angle_gamma                101.101(3)
_cell_volume                     1002.6
loop_
_atom_site_label
_atom_site_type_symbol
_atom_site_fract_x
_atom_site_fract_y
_atom_site_fract_z
C1 C 0.3538(4) 0.1449(3) 0.5228(3)
H1 H 0.3759 0.0823 0.5760
C2 C 0.4570(3) 0.2429(3) 0.4824(3)
H2 H 0.5610 0.2601 0.5022
C3 C 0.2315(3) 0.2529(3) 0.4051(3)
H3 H 0.1536 0.2811 0.3604
C4 C 0.4417(3) 0.4265(3) 0.3385(2)
H4 H 0.5444 0.4657 0.3718
H5 H 0.3829 0.4985 0.3445
C5 C 0.4418(3) 0.3804(3) 0.2099(2)
C6 C 0.5704(3) 0.3530(3) 0.1669(3)
H6 H 0.6589 0.3631 0.2173
C7 C 0.5699(3) 0.3106(3) 0.0492(3)
C8 C 0.7167(4) 0.2864(4) 0.0066(3)
H7 H 0.7797 0.3755 -0.0028
H8 H 0.7695 0.2428 0.0665
C9 C 0.6331(4) 0.0639(4) -0.1241(3)
H9 H 0.5909 0.0050 -0.0706
C10 C 0.6422(4) 0.0319(4) -0.2368(4)
H10 H 0.6071 -0.0557 -0.2749
C11 C 0.7414(4) 0.2430(4) -0.2053(3)
H11 H 0.7888 0.3331 -0.2157
C12 C 0.4384(3) 0.2952(3) -0.0258(3)
H12 H 0.4376 0.2681 -0.1048
C13 C 0.3104(3) 0.3632(3) 0.1338(2)
H13 H 0.2228 0.3810 0.1620
C14 C 0.3071(3) 0.3204(3) 0.0174(3)
C15 C 0.1615(4) 0.3063(4) -0.0627(3)
H14 H 0.0787 0.3058 -0.0152
H15 H 0.1679 0.3862 -0.1086
C16 C 0.1199(4) 0.0470(4) -0.1140(3)
H16 H 0.1357 0.0179 -0.0391
C17 C 0.0837(4) -0.0343(4) -0.2148(3)
H17 H 0.0710 -0.1303 -0.2212
C18 C 0.0974(3) 0.1745(3) -0.2585(3)
H18 H 0.0962 0.2521 -0.3005
Mn1 Mn 0.0000 0.0000 0.5000
N1 N 0.2111(3) 0.1510(3) 0.4740(2)
N2 N 0.3786(3) 0.3121(2) 0.40662(19)
N3 N 0.6988(3) 0.2017(3) -0.1025(2)
N4 N 0.7094(3) 0.1440(3) -0.2890(3)
N5 N 0.1289(3) 0.1800(3) -0.1427(2)
N6 N 0.0682(3) 0.0467(3) -0.3070(2)
O1 O -0.1415(2) 0.1575(2) 0.51229(19)
H19 H -0.2326 0.1138 0.4995
H20 H -0.1265 0.2137 0.4594
C1A C -0.3538(4) -0.1449(3) -0.5228(3)
H1A H -0.3759 -0.0823 -0.5760
C2A C -0.4570(3) -0.2429(3) -0.4824(3)
H2A H -0.5610 -0.2601 -0.5022
C3A C -0.2315(3) -0.2529(3) -0.4051(3)
H3A H -0.1536 -0.2811 -0.3604
C4A C -0.4417(3) -0.4265(3) -0.3385(2)
H4A H -0.5444 -0.4657 -0.3718
H5A H -0.3829 -0.4985 -0.3445
C5A C -0.4418(3) -0.3804(3) -0.2099(2)
C6A C -0.5704(3) -0.3530(3) -0.1669(3)
H6A H -0.6589 -0.3631 -0.2173
C7A C -0.5699(3) -0.3106(3) -0.0492(3)
C8A C -0.7167(4) -0.2864(4) -0.0066(3)
H7A H -0.7797 -0.3755 0.0028
H8A H -0.7695 -0.2428 -0.0665
C9A C -0.6331(4) -0.0639(4) 0.1241(3)
H9A H -0.5909 -0.0050 0.0706
C10A C -0.6422(4) -0.0319(4) 0.2368(4)
H10A H -0.6071 0.0557 0.2749
C11A C -0.7414(4) -0.2430(4) 0.2053(3)
H11A H -0.7888 -0.3331 0.2157
C12A C -0.4384(3) -0.2952(3) 0.0258(3)
H12A H -0.4376 -0.2681 0.1048
C13A C -0.3104(3) -0.3632(3) -0.1338(2)
H13A H -0.2228 -0.3810 -0.1620
C14A C -0.3071(3) -0.3204(3) -0.0174(3)
C15A C -0.1615(4) -0.3063(4) 0.0627(3)
H14A H -0.0787 -0.3058 0.0152
H15A H -0.1679 -0.3862 0.1086
C16A C -0.1199(4) -0.0470(4) 0.1140(3)
H16A H -0.1357 -0.0179 0.0391
C17A C -0.0837(4) 0.0343(4) 0.2148(3)
H17A H -0.0710 0.1303 0.2212
C18A C -0.0974(3) -0.1745(3) 0.2585(3)
H18A H -0.0962 -0.2521 0.3005
Mn1_2 Mn 0.0000 0.0000 -0.5000
N1A N -0.2111(3) -0.1510(3) -0.4740(2)
N1A_2 N -0.2111(3) -0.1510(3) 0.5260(2)
N2A N -0.3786(3) -0.3121(2) -0.40662(19)
N3A N -0.6988(3) -0.2017(3) 0.1025(2)
N4A N -0.7094(3) -0.1440(3) 0.2890(3)
N5A N -0.1289(3) -0.1800(3) 0.1427(2)
N6A N -0.0682(3) -0.0467(3) 0.3070(2)
N6_2 N 0.0682(3) 0.0467(3) 0.6930(2)
O1A O 0.1415(2) -0.1575(2) 0.48771(19)
H19A H 0.2326 -0.1138 0.5005
H20A H 0.1265 -0.2137 0.5406
Cl1 Cl 0.98213(9) 0.45615(9) 0.26558(8)
O2 O 0.8102(3) 0.4268(3) 0.4866(2)
H21 H 0.8138 0.4954 0.4448
H22 H 0.8351 0.4585 0.5576
loop_
_geom_bond_atom_site_label_1
_geom_bond_atom_site_label_2
_geom_bond_site_symmetry_1
_geom_bond_site_symmetry_2
C1 H1 1_555 1_555
C2 C1 1_555 1_555
H2 C2 1_555 1_555
C3 H3 1_555 1_555
C4 H4 1_555 1_555
H5 C4 1_555 1_555
C5 C4 1_555 1_555
C6 C5 1_555 1_555
H6 C6 1_555 1_555
C7 C6 1_555 1_555
C8 C7 1_555 1_555
H7 C8 1_555 1_555
H8 C8 1_555 1_555
C9 H9 1_555 1_555
C10 C9 1_555 1_555
H10 C10 1_555 1_555
C11 H11 1_555 1_555
C12 C7 1_555 1_555
H12 C12 1_555 1_555
C13 C5 1_555 1_555
H13 C13 1_555 1_555
C14 C12 1_555 1_555
C15 C14 1_555 1_555
H14 C15 1_555 1_555
H15 C15 1_555 1_555
C16 H16 1_555 1_555
C17 C16 1_555 1_555
H17 C17 1_555 1_555
C18 H18 1_555 1_555
Mn1 N1 1_555 1_555
N1 C1 1_555 1_555
N2 C2 1_555 1_555
N3 C8 1_555 1_555
N4 C10 1_555 1_555
N5 C15 1_555 1_555
N6 C17 1_555 1_555
O1 Mn1 1_555 1_555
H19 O1 1_555 1_555
H20 O1 1_555 1_555
O2 H21 1_555 1_555
H22 O2 1_555 1_555
C1A H1A 1_555 1_555
C2A C1A 1_555 1_555
H2A C2A 1_555 1_555
C3A H3A 1_555 1_555
C4A H4A 1_555 1_555
H5A C4A 1_555 1_555
C5A C4A 1_555 1_555
C6A C5A 1_555 1_555
H6A C6A 1_555 1_555
C7A C6A 1_555 1_555
C8A C7A 1_555 1_555
H7A C8A 1_555 1_555
H8A C8A 1_555 1_555
C9A H9A 1_555 1_555
C10A C9A 1_555 1_555
H10A C10A 1_555 1_555
C11A H11A 1_555 1_555
C12A C7A 1_555 1_555
H12A C12A 1_555 1_555
C13A C5A 1_555 1_555
H13A C13A 1_555 1_555
C14A C12A 1_555 1_555
C15A C14A 1_555 1_555
H14A C15A 1_555 1_555
H15A C15A 1_555 1_555
C16A H16A 1_555 1_555
C17A C16A 1_555 1_555
H17A C17A 1_555 1_555
C18A H18A 1_555 1_555
Mn1_2 N6 1_555 1_555
N1A C1A 1_555 1_555
N1A_2 Mn1 1_555 1_555
N2A C2A 1_555 1_555
N3A C8A 1_555 1_555
N4A C10A 1_555 1_555
N5A C15A 1_555 1_555
N6A Mn1 1_555 1_555
N6_2 Mn1 1_555 1_555
O1A Mn1 1_555 1_555
H19A O1A 1_555 1_555
H20A O1A 1_555 1_555
C3 N1 1_555 1_555
C3 N2 1_555 1_555
C4 N2 1_555 1_555
C9 N3 1_555 1_555
C11 N3 1_555 1_555
C11 N4 1_555 1_555
C13 C14 1_555 1_555
C16 N5 1_555 1_555
C18 N5 1_555 1_555
C18 N6 1_555 1_555
C3A N1A 1_555 1_555
C3A N2A 1_555 1_555
C4A N2A 1_555 1_555
C9A N3A 1_555 1_555
C11A N3A 1_555 1_555
C11A N4A 1_555 1_555
C13A C14A 1_555 1_555
C16A N5A 1_555 1_555
C17A N6A 1_555 1_555
C18A N5A 1_555 1_555
C18A N6A 1_555 1_555
Mn1_2 N1A 1_555 1_555

#END
