
#######################################################################
#
#                 Cambridge Crystallographic Data Centre
#                                CCDC 
#
#######################################################################
#
# If this CIF has been generated from an entry in the Cambridge 
# Structural Database, then it will include bibliographic, chemical, 
# crystal, experimental, refinement or atomic coordinate data resulting 
# from the CCDC's data processing and validation procedures.
#
#######################################################################

data_XADTON02
_symmetry_cell_setting           monoclinic
_symmetry_space_group_name_H-M   'P 21/n'
_symmetry_Int_Tables_number      14
_space_group_name_Hall           '-P 2yn'
loop_
_symmetry_equiv_pos_site_id
_symmetry_equiv_pos_as_xyz
1 x,y,z
2 1/2-x,1/2+y,1/2-z
3 -x,-y,-z
4 1/2+x,1/2-y,1/2+z
_cell_length_a                   8.2303(2)
_cell_length_b                   10.7231(3)
_cell_length_c                   11.1975(3)
_cell_angle_alpha                90
_cell_angle_beta                 90.00(3)
_cell_angle_gamma                90
_cell_volume                     988.228
loop_
_atom_site_label
_atom_site_type_symbol
_atom_site_fract_x
_atom_site_fract_y
_atom_site_fract_z
Cd1 Cd 0.0000 0.5000 0.5000
C1 C -0.4301(12) 0.4758(8) 0.1341(14)
H1 H -0.4527 0.4030 0.0870
H2 H -0.4853 0.5464 0.1003
H3 H -0.4674 0.4627 0.2144
C2 C -0.2445(9) 0.5005(4) 0.1350(13)
H4 H -0.1865 0.4300 0.1685
H5 H -0.2049 0.5156 0.0547
C3 C -0.2227(4) 0.6145(4) 0.2117(4)
H6 H -0.2746 0.6846 0.1724
H7 H -0.2785 0.6009 0.2869
C4 C -0.0507(3) 0.6480(3) 0.2374(2)
C5 C 0.1899(3) 0.7369(2) 0.2232(2)
C6 C 0.1759(3) 0.6782(2) 0.3310(2)
C7 C 0.3211(3) 0.8136(3) 0.1703(2)
C8 C 0.2853(3) 0.6735(2) 0.4370(2)
O1 O 0.4474(2) 0.8310(2) 0.23423(19)
H8 H 0.4354 0.7968 0.2991
O2 O 0.3040(2) 0.8563(2) 0.06981(17)
O3 O 0.2389(2) 0.61823(18) 0.52745(15)
O4 O 0.4209(2) 0.7310(2) 0.42984(17)
N1 N 0.0457(3) 0.7158(2) 0.16579(19)
H9 H 0.0209 0.7418 0.0954
N2 N 0.0266(2) 0.62166(19) 0.33808(18)
C1B C 0.4301(12) 0.5242(8) 0.8659(14)
H1B H 0.4527 0.5970 0.9130
H2B H 0.4853 0.4536 0.8997
H3B H 0.4674 0.5373 0.7856
C2B C 0.2445(9) 0.4995(4) 0.8650(13)
H4B H 0.1865 0.5700 0.8315
H5B H 0.2049 0.4844 0.9453
C3B C 0.2227(4) 0.3855(4) 0.7883(4)
H6B H 0.2746 0.3154 0.8276
H7B H 0.2785 0.3991 0.7131
C4B C 0.0507(3) 0.3520(3) 0.7626(2)
C5B C -0.1899(3) 0.2631(2) 0.7768(2)
C6B C -0.1759(3) 0.3218(2) 0.6690(2)
C7B C -0.3211(3) 0.1864(3) 0.8297(2)
C8B C -0.2853(3) 0.3265(2) 0.5630(2)
O1B O -0.4474(2) 0.1690(2) 0.76577(19)
H8B H -0.4354 0.2032 0.7009
O2B O -0.3040(2) 0.1437(2) 0.93019(17)
O3B O -0.2389(2) 0.38177(18) 0.47255(15)
O4B O -0.4209(2) 0.2690(2) 0.57016(17)
N1B N -0.0457(3) 0.2842(2) 0.83421(19)
H9B H -0.0209 0.2582 0.9046
N2B N -0.0266(2) 0.37834(19) 0.66192(18)
Cd1A Cd -0.5000 0.0000 1.0000
Cd1A_2 Cd 0.5000 1.0000 0.0000
O2A O 0.1960(2) 0.3563(2) 0.43019(17)
O2C O -0.1960(2) 0.6437(2) 0.56981(17)
loop_
_geom_bond_atom_site_label_1
_geom_bond_atom_site_label_2
_geom_bond_site_symmetry_1
_geom_bond_site_symmetry_2
Cd1 O3 1_555 1_555
C1 H1 1_555 1_555
H2 C1 1_555 1_555
H3 C1 1_555 1_555
C2 C1 1_555 1_555
H4 C2 1_555 1_555
H5 C2 1_555 1_555
C3 C2 1_555 1_555
H6 C3 1_555 1_555
H7 C3 1_555 1_555
C4 C3 1_555 1_555
C5 C6 1_555 1_555
C6 C8 1_555 1_555
C7 C5 1_555 1_555
C8 O3 1_555 1_555
O1 C7 1_555 1_555
H8 O1 1_555 1_555
O2 C7 1_555 1_555
O4 C8 1_555 1_555
N1 C4 1_555 1_555
H9 N1 1_555 1_555
N2 Cd1 1_555 1_555
C1B H1B 1_555 1_555
H2B C1B 1_555 1_555
H3B C1B 1_555 1_555
C2B C1B 1_555 1_555
H4B C2B 1_555 1_555
H5B C2B 1_555 1_555
C3B C2B 1_555 1_555
H6B C3B 1_555 1_555
H7B C3B 1_555 1_555
C4B C3B 1_555 1_555
C5B C6B 1_555 1_555
C6B C8B 1_555 1_555
C7B C5B 1_555 1_555
C8B O3B 1_555 1_555
O1B C7B 1_555 1_555
H8B O1B 1_555 1_555
O2B C7B 1_555 1_555
O3B Cd1 1_555 1_555
O4B C8B 1_555 1_555
N1B C4B 1_555 1_555
H9B N1B 1_555 1_555
N2B Cd1 1_555 1_555
Cd1A O2B 1_555 1_555
Cd1A_2 O2 1_555 1_555
O2A Cd1 1_555 1_555
O2C Cd1 1_555 1_555
C4 N2 1_555 1_555
C5 N1 1_555 1_555
C6 N2 1_555 1_555
C4B N2B 1_555 1_555
C5B N1B 1_555 1_555
C6B N2B 1_555 1_555

#END
