
#######################################################################
#
#                 Cambridge Crystallographic Data Centre
#                                CCDC 
#
#######################################################################
#
# If this CIF has been generated from an entry in the Cambridge 
# Structural Database, then it will include bibliographic, chemical, 
# crystal, experimental, refinement or atomic coordinate data resulting 
# from the CCDC's data processing and validation procedures.
#
#######################################################################

data_XADVIJ
_symmetry_cell_setting           orthorhombic
_symmetry_space_group_name_H-M   'P b c n'
_symmetry_Int_Tables_number      60
_space_group_name_Hall           '-P 2n 2ab'
loop_
_symmetry_equiv_pos_site_id
_symmetry_equiv_pos_as_xyz
1 x,y,z
2 1/2-x,1/2-y,1/2+z
3 1/2+x,1/2-y,-z
4 -x,y,1/2-z
5 -x,-y,-z
6 1/2+x,1/2+y,1/2-z
7 1/2-x,1/2+y,z
8 x,-y,1/2+z
_cell_length_a                   12.7813(12)
_cell_length_b                   10.7544(10)
_cell_length_c                   20.1270(19)
_cell_angle_alpha                90
_cell_angle_beta                 90
_cell_angle_gamma                90
_cell_volume                     2766.56
loop_
_atom_site_label
_atom_site_type_symbol
_atom_site_fract_x
_atom_site_fract_y
_atom_site_fract_z
Mn1 Mn 1.0000 0.75389(4) 0.7500
S1 S 0.63411(5) 0.69448(8) 0.80414(4)
O1 O 0.97708(12) 0.88488(13) 0.82926(7)
N1 N 0.82361(13) 0.71747(15) 0.76790(8)
N2 N 0.95270(13) 0.59448(15) 0.68082(8)
O2 O 1.14076(12) 0.85717(15) 0.86164(8)
N3 N 0.83234(16) 0.45544(16) 0.65068(9)
C1 C 0.89798(18) 1.0231(2) 1.01733(10)
H1 H 0.8286 1.0381 1.0287
C2 C 0.92076(17) 0.4279(2) 0.61455(11)
C3 C 0.78331(16) 0.61686(19) 0.73398(10)
C4 C 1.02358(16) 0.95021(18) 0.93759(9)
C5 C 0.92141(17) 0.9745(2) 0.95558(10)
H2 H 0.8676 0.9580 0.9257
C6 C 0.75247(17) 0.7663(2) 0.80587(11)
H3 H 0.7654 0.8357 0.8322
C7 C 0.85569(16) 0.55585(18) 0.68879(10)
C8 C 1.09439(18) 0.5134(2) 0.60468(11)
H4 H 1.1454 0.5706 0.6169
C9 C 0.9411(2) 0.3372(2) 0.56679(12)
H5 H 0.8909 0.2788 0.5546
C10 C 0.99569(15) 0.51502(19) 0.63380(10)
C11 C 1.04981(19) 0.89368(18) 0.87120(10)
C12 C 0.68254(19) 0.5908(3) 0.74778(11)
H6 H 0.6447 0.5255 0.7292
C13 C 1.1141(2) 0.4243(2) 0.55725(12)
H7 H 1.1796 0.4215 0.5371
C14 C 1.0386(2) 0.3385(3) 0.53873(13)
H8 H 1.0547 0.2801 0.5062
H9 H 0.7660(16) 0.422(2) 0.6473(10)
Mn1D Mn 1.0000 1.24611(4) 1.2500
S1C S 1.36589(5) 0.69448(8) 0.69586(4)
O1D O 1.02292(12) 1.11512(13) 1.17074(7)
O1C O 1.02292(12) 0.88488(13) 0.67074(7)
N1C N 1.17639(13) 0.71747(15) 0.73210(8)
N2C N 1.04730(13) 0.59448(15) 0.81918(8)
O2D O 0.85924(12) 1.14283(15) 1.13836(8)
N3C N 1.16766(16) 0.45544(16) 0.84932(9)
C1D C 1.10202(18) 0.9769(2) 0.98267(10)
H1D H 1.1714 0.9619 0.9713
C2C C 1.07924(17) 0.4279(2) 0.88545(11)
C3C C 1.21669(16) 0.61686(19) 0.76602(10)
C4D C 0.97642(16) 1.04979(18) 1.06241(9)
C5D C 1.07859(17) 1.0255(2) 1.04442(10)
H2D H 1.1324 1.0420 1.0743
C6C C 1.24753(17) 0.7663(2) 0.69413(11)
H3C H 1.2346 0.8357 0.6678
C7C C 1.14431(16) 0.55585(18) 0.81121(10)
C8C C 0.90561(18) 0.5134(2) 0.89532(11)
H4C H 0.8546 0.5706 0.8831
C9C C 1.0589(2) 0.3372(2) 0.93321(12)
H5C H 1.1091 0.2788 0.9454
C10C C 1.00431(15) 0.51502(19) 0.86620(10)
C11D C 0.95019(19) 1.10632(18) 1.12880(10)
C12C C 1.31746(19) 0.5908(3) 0.75222(11)
H6C H 1.3553 0.5255 0.7708
C13C C 0.8859(2) 0.4243(2) 0.94275(12)
H7C H 0.8204 0.4215 0.9629
C14C C 0.9614(2) 0.3385(3) 0.96127(13)
H8C H 0.9453 0.2801 0.9938
H9C H 1.2340(16) 0.422(2) 0.8527(10)
loop_
_geom_bond_atom_site_label_1
_geom_bond_atom_site_label_2
_geom_bond_site_symmetry_1
_geom_bond_site_symmetry_2
Mn1 O1 1_555 1_555
S1 C6 1_555 1_555
O1 C11 1_555 1_555
N1 Mn1 1_555 1_555
N2 Mn1 1_555 1_555
O2 C11 1_555 1_555
N3 C2 1_555 1_555
C1 H1 1_555 1_555
C2 C9 1_555 1_555
C3 N1 1_555 1_555
C4 C5 1_555 1_555
C5 C1 1_555 1_555
H2 C5 1_555 1_555
C6 N1 1_555 1_555
H3 C6 1_555 1_555
C7 N2 1_555 1_555
C8 H4 1_555 1_555
C9 H5 1_555 1_555
C10 N2 1_555 1_555
C11 C4 1_555 1_555
C12 S1 1_555 1_555
H6 C12 1_555 1_555
C13 C8 1_555 1_555
H7 C13 1_555 1_555
C14 C9 1_555 1_555
H8 C14 1_555 1_555
H9 N3 1_555 1_555
Mn1D O1D 1_555 1_555
S1C C6C 1_555 1_555
O1D C11D 1_555 1_555
O1C Mn1 1_555 1_555
N1C Mn1 1_555 1_555
N2C Mn1 1_555 1_555
O2D C11D 1_555 1_555
N3C C2C 1_555 1_555
C1D C4 1_555 1_555
H1D C1D 1_555 1_555
C2C C9C 1_555 1_555
C3C N1C 1_555 1_555
C4D C1 1_555 1_555
C5D C1D 1_555 1_555
H2D C5D 1_555 1_555
C6C N1C 1_555 1_555
H3C C6C 1_555 1_555
C7C N2C 1_555 1_555
C8C H4C 1_555 1_555
C9C H5C 1_555 1_555
C10C N2C 1_555 1_555
C11D C4D 1_555 1_555
C12C S1C 1_555 1_555
H6C C12C 1_555 1_555
C13C C8C 1_555 1_555
H7C C13C 1_555 1_555
C14C C9C 1_555 1_555
H8C C14C 1_555 1_555
H9C N3C 1_555 1_555
N3 C7 1_555 1_555
C2 C10 1_555 1_555
C3 C7 1_555 1_555
C3 C12 1_555 1_555
C8 C10 1_555 1_555
C13 C14 1_555 1_555
N3C C7C 1_555 1_555
C2C C10C 1_555 1_555
C3C C7C 1_555 1_555
C3C C12C 1_555 1_555
C4D C5D 1_555 1_555
C8C C10C 1_555 1_555
C13C C14C 1_555 1_555

#END
