
#######################################################################
#
#                 Cambridge Crystallographic Data Centre
#                                CCDC 
#
#######################################################################
#
# If this CIF has been generated from an entry in the Cambridge 
# Structural Database, then it will include bibliographic, chemical, 
# crystal, experimental, refinement or atomic coordinate data resulting 
# from the CCDC's data processing and validation procedures.
#
#######################################################################

data_XADVUV
_symmetry_cell_setting           monoclinic
_symmetry_space_group_name_H-M   'P 21/n'
_symmetry_Int_Tables_number      14
_space_group_name_Hall           '-P 2yn'
loop_
_symmetry_equiv_pos_site_id
_symmetry_equiv_pos_as_xyz
1 x,y,z
2 1/2-x,1/2+y,1/2-z
3 -x,-y,-z
4 1/2+x,1/2-y,1/2+z
_cell_length_a                   10.9883(13)
_cell_length_b                   7.3603(10)
_cell_length_c                   31.165(3)
_cell_angle_alpha                90
_cell_angle_beta                 96.918(2)
_cell_angle_gamma                90
_cell_volume                     2502.19
loop_
_atom_site_label
_atom_site_type_symbol
_atom_site_fract_x
_atom_site_fract_y
_atom_site_fract_z
Pb1 Pb 0.32851(8) 0.65400(10) 0.22363(2)
Pb2 Pb 0.52642(7) 0.74976(10) 0.03979(2)
N1 N 0.6526(14) 0.1944(19) 0.1679(4)
H1 H 0.7279 0.1889 0.1792
N2 N 0.512(2) 0.670(2) 0.1509(6)
N3 N 0.556(2) 0.558(3) 0.2997(6)
N4 N 0.804(2) 0.732(3) 0.0433(6)
O1 O 0.2905(12) 0.3069(16) 0.2132(4)
O2 O 0.3279(15) 0.016(2) 0.2241(5)
O3 O 0.4967(11) 0.4032(14) 0.0400(4)
O4 O 0.4605(13) 0.1025(15) 0.0366(4)
O5 O 0.5463(17) 0.617(2) 0.1891(6)
O6 O 0.6050(17) 0.682(2) 0.1287(5)
O7 O 0.4155(15) 0.712(3) 0.1364(8)
O8 O 0.4527(16) 0.490(2) 0.2858(5)
O9 O 0.579(2) 0.709(3) 0.2876(5)
O10 O 0.6290(18) 0.466(3) 0.3233(7)
O11 O 0.7300(13) 0.6096(18) 0.0297(5)
O12 O 0.7604(17) 0.876(3) 0.0542(6)
O13 O 0.9128(17) 0.701(3) 0.0468(7)
O14 O 0.1261(16) 0.690(2) 0.1789(6)
H2 H 0.0879 0.7508 0.1949
O15 O 0.2956(12) 0.7224(19) 0.0099(4)
H3 H 0.2643 0.6330 -0.0027
C1 C 0.5641(18) 0.170(3) 0.1934(6)
C2 C 0.4429(17) 0.183(2) 0.1772(5)
C3 C 0.4152(16) 0.205(2) 0.1325(5)
C4 C 0.5123(17) 0.234(2) 0.1062(5)
C5 C 0.6270(17) 0.229(2) 0.1239(5)
C6 C 0.6090(19) 0.126(3) 0.2419(6)
H4 H 0.6969 0.1231 0.2462
H5 H 0.5775 0.0097 0.2492
H6 H 0.5799 0.2177 0.2600
C7 C 0.3460(14) 0.167(2) 0.2046(4)
C8 C 0.4840(16) 0.245(3) 0.0578(5)
C9 C 0.742(2) 0.263(3) 0.1022(6)
H7 H 0.7187 0.2856 0.0719
H8 H 0.7941 0.1586 0.1057
H9 H 0.7842 0.3670 0.1152
C10 C 0.2785(16) 0.205(2) 0.1124(5)
C11 C 0.2035(18) 0.068(3) 0.1213(6)
H10 H 0.2312 -0.0247 0.1404
C12 C 0.086(2) 0.069(3) 0.1012(7)
H11 H 0.0322 -0.0214 0.1081
C13 C 0.045(2) 0.195(3) 0.0720(7)
H12 H -0.0348 0.1875 0.0580
C14 C 0.117(2) 0.329(3) 0.0631(7)
H13 H 0.0866 0.4189 0.0436
C15 C 0.2404(18) 0.339(3) 0.0828(6)
H14 H 0.2929 0.4315 0.0760
C16 C 0.050(2) 0.567(3) 0.1556(8)
H15 H -0.0224 0.6279 0.1424
H16 H 0.0265 0.4735 0.1746
H17 H 0.0920 0.5125 0.1335
C17 C 0.205(2) 0.808(3) 0.0273(7)
H18 H 0.1278 0.7784 0.0111
H19 H 0.2181 0.9367 0.0265
H20 H 0.2051 0.7693 0.0567
Pb1A Pb 0.17149(8) 0.15400(10) 0.27637(2)
Pb1_2 Pb 0.32851(8) -0.34600(10) 0.22363(2)
Pb2B Pb 0.47358(7) 0.25024(10) -0.03979(2)
Pb2_2 Pb 0.52642(7) -0.25024(10) 0.03979(2)
O1A O 0.2095(12) 0.8069(16) 0.2868(4)
O2_2 O 0.3279(15) 1.016(2) 0.2241(5)
O2A O 0.1721(15) 0.516(2) 0.2759(5)
O3B O 0.5033(11) 0.5968(14) -0.0400(4)
O4_2 O 0.4605(13) 1.1025(15) 0.0366(4)
O4B O 0.5395(13) 0.8975(15) -0.0366(4)
loop_
_geom_bond_atom_site_label_1
_geom_bond_atom_site_label_2
_geom_bond_site_symmetry_1
_geom_bond_site_symmetry_2
Pb1 O1 1_555 1_555
Pb2 O3 1_555 1_555
N1 H1 1_555 1_555
N2 O5 1_555 1_555
N3 O8 1_555 1_555
N4 O11 1_555 1_555
O1 C7 1_555 1_555
O2 C7 1_555 1_555
O3 C8 1_555 1_555
O4 C8 1_555 1_555
O5 Pb1 1_555 1_555
O6 Pb2 1_555 1_555
O7 N2 1_555 1_555
O8 Pb1 1_555 1_555
O9 N3 1_555 1_555
O10 N3 1_555 1_555
O11 Pb2 1_555 1_555
O12 Pb2 1_555 1_555
O13 N4 1_555 1_555
O14 Pb1 1_555 1_555
H2 O14 1_555 1_555
O15 Pb2 1_555 1_555
H3 O15 1_555 1_555
C1 N1 1_555 1_555
C2 C1 1_555 1_555
C3 C2 1_555 1_555
C4 C3 1_555 1_555
C5 N1 1_555 1_555
C6 C1 1_555 1_555
H4 C6 1_555 1_555
H5 C6 1_555 1_555
H6 C6 1_555 1_555
C7 C2 1_555 1_555
C8 C4 1_555 1_555
C9 C5 1_555 1_555
H7 C9 1_555 1_555
H8 C9 1_555 1_555
H9 C9 1_555 1_555
C10 C3 1_555 1_555
C11 C10 1_555 1_555
H10 C11 1_555 1_555
C12 C11 1_555 1_555
H11 C12 1_555 1_555
C13 C12 1_555 1_555
H12 C13 1_555 1_555
C14 C13 1_555 1_555
H13 C14 1_555 1_555
C15 C10 1_555 1_555
H14 C15 1_555 1_555
C16 O14 1_555 1_555
H15 C16 1_555 1_555
H16 C16 1_555 1_555
H17 C16 1_555 1_555
C17 O15 1_555 1_555
H18 C17 1_555 1_555
H19 C17 1_555 1_555
H20 C17 1_555 1_555
Pb1A O1 1_555 1_555
Pb1_2 O2 1_555 1_555
Pb2B O3 1_555 1_555
Pb2_2 O4 1_555 1_555
O1A Pb1 1_555 1_555
O2_2 Pb1 1_555 1_555
O2A Pb1 1_555 1_555
O3B Pb2 1_555 1_555
O4_2 Pb2 1_555 1_555
O4B Pb2 1_555 1_555
N2 O6 1_555 1_555
N4 O12 1_555 1_555
O2 Pb1A 1_555 1_555
O4 Pb2B 1_555 1_555
C4 C5 1_555 1_555
C14 C15 1_555 1_555
Pb1A O2A 1_555 1_555
Pb2B O3B 1_555 1_555

#END
