
#######################################################################
#
#                 Cambridge Crystallographic Data Centre
#                                CCDC 
#
#######################################################################
#
# If this CIF has been generated from an entry in the Cambridge 
# Structural Database, then it will include bibliographic, chemical, 
# crystal, experimental, refinement or atomic coordinate data resulting 
# from the CCDC's data processing and validation procedures.
#
#######################################################################

data_XADWEG
_symmetry_cell_setting           monoclinic
_symmetry_space_group_name_H-M   'P 21/n'
_symmetry_Int_Tables_number      14
_space_group_name_Hall           '-P 2yn'
loop_
_symmetry_equiv_pos_site_id
_symmetry_equiv_pos_as_xyz
1 x,y,z
2 1/2-x,1/2+y,1/2-z
3 -x,-y,-z
4 1/2+x,1/2-y,1/2+z
_cell_length_a                   16.5068(13)
_cell_length_b                   7.6548(4)
_cell_length_c                   16.5521(13)
_cell_angle_alpha                90
_cell_angle_beta                 115.119(3)
_cell_angle_gamma                90
_cell_volume                     1893.67
loop_
_atom_site_label
_atom_site_type_symbol
_atom_site_fract_x
_atom_site_fract_y
_atom_site_fract_z
Ag1 Ag 0.333123(15) 0.12335(4) 0.012337(15)
S1 S 0.46040(5) 0.26894(10) 0.43973(5)
S2 S 0.25568(5) 0.27513(11) 0.65036(4)
S3 S 0.39068(5) 0.18077(10) 0.57588(5)
N1 N -0.05659(14) 0.3046(3) 0.47723(14)
N2 N 0.27171(15) 0.4134(3) 0.50791(15)
N3 N 0.31897(16) 0.4146(3) 0.45669(15)
N4 N 0.30470(16) 0.2791(4) 0.12020(15)
C1 C 0.01928(17) 0.2374(4) 0.53859(17)
H1 H 0.0257 0.2302 0.5983
C2 C -0.06560(19) 0.3150(4) 0.39298(18)
H2 H -0.1188 0.3639 0.3486
C3 C -0.0002(2) 0.2572(5) 0.36902(19)
H3 H -0.0084 0.2658 0.3088
C4 C 0.0775(2) 0.1862(4) 0.4329(2)
H4 H 0.1226 0.1437 0.4167
C5 C 0.08894(17) 0.1778(3) 0.52066(18)
C6 C 0.17158(18) 0.1063(4) 0.5945(2)
H5 H 0.1980 0.0164 0.5699
H6 H 0.1551 0.0490 0.6390
C7 C 0.30016(16) 0.2996(4) 0.57223(17)
C8 C 0.38350(17) 0.3005(4) 0.48497(17)
C9 C 0.42755(18) 0.4425(4) 0.35589(17)
H7 H 0.4103 0.5466 0.3805
H8 H 0.4802 0.4747 0.3452
C10 C 0.35122(18) 0.3971(4) 0.26733(17)
C11 C 0.2633(2) 0.4420(4) 0.24746(19)
H9 H 0.2487 0.4984 0.2907
C12 C 0.1975(2) 0.4034(4) 0.1638(2)
H10 H 0.1369 0.4319 0.1490
C13 C 0.2205(2) 0.3238(4) 0.10233(18)
H11 H 0.1747 0.2994 0.0447
C14 C 0.36800(19) 0.3161(4) 0.20148(19)
H12 H 0.4280 0.2848 0.2147
Ag1A Ag 0.166877(15) 0.62335(4) 0.487663(15)
Ag1C Ag -0.166877(15) 0.37665(4) 0.512337(15)
N1C N 0.44341(14) 0.1954(3) -0.02277(14)
N2A N 0.22829(15) -0.0866(3) -0.00791(15)
Cl1 Cl 0.62863(4) 0.25650(9) 0.31016(4)
O1 O 0.59041(16) 0.4175(3) 0.26823(18)
O2 O 0.6230(3) 0.2471(5) 0.39222(18)
O3 O 0.72003(18) 0.2547(5) 0.3273(3)
O4 O 0.5813(2) 0.1156(4) 0.2561(2)
loop_
_geom_bond_atom_site_label_1
_geom_bond_atom_site_label_2
_geom_bond_site_symmetry_1
_geom_bond_site_symmetry_2
Ag1 N4 1_555 1_555
Cl1 O1 1_555 1_555
S1 C8 1_555 1_555
S2 C6 1_555 1_555
S3 C7 1_555 1_555
O2 Cl1 1_555 1_555
O3 Cl1 1_555 1_555
O4 Cl1 1_555 1_555
N1 C1 1_555 1_555
N2 N3 1_555 1_555
N3 C8 1_555 1_555
N4 C13 1_555 1_555
C1 H1 1_555 1_555
C2 N1 1_555 1_555
H2 C2 1_555 1_555
C3 C2 1_555 1_555
H3 C3 1_555 1_555
C4 C3 1_555 1_555
H4 C4 1_555 1_555
C5 C1 1_555 1_555
C6 C5 1_555 1_555
H5 C6 1_555 1_555
H6 C6 1_555 1_555
C7 S2 1_555 1_555
C8 S3 1_555 1_555
C9 S1 1_555 1_555
H7 C9 1_555 1_555
H8 C9 1_555 1_555
C10 C9 1_555 1_555
C11 C10 1_555 1_555
H9 C11 1_555 1_555
C12 C11 1_555 1_555
H10 C12 1_555 1_555
C13 C12 1_555 1_555
H11 C13 1_555 1_555
C14 N4 1_555 1_555
H12 C14 1_555 1_555
Ag1A N2 1_555 1_555
Ag1C N1 1_555 1_555
N1C Ag1 1_555 1_555
N2A Ag1 1_555 1_555
N2 C7 1_555 1_555
C4 C5 1_555 1_555
C10 C14 1_555 1_555

#END
