
#######################################################################
#
#                 Cambridge Crystallographic Data Centre
#                                CCDC 
#
#######################################################################
#
# If this CIF has been generated from an entry in the Cambridge 
# Structural Database, then it will include bibliographic, chemical, 
# crystal, experimental, refinement or atomic coordinate data resulting 
# from the CCDC's data processing and validation procedures.
#
#######################################################################

data_XADWIK01
_symmetry_cell_setting           monoclinic
_symmetry_space_group_name_H-M   'C 2/c'
_symmetry_Int_Tables_number      15
_space_group_name_Hall           '-C 2yn'
loop_
_symmetry_equiv_pos_site_id
_symmetry_equiv_pos_as_xyz
1 x,y,z
2 -x,y,1/2-z
3 1/2+x,1/2+y,z
4 1/2-x,1/2+y,1/2-z
5 -x,-y,-z
6 x,-y,1/2+z
7 1/2-x,1/2-y,-z
8 1/2+x,1/2-y,1/2+z
_cell_length_a                   19.735(6)
_cell_length_b                   11.998(6)
_cell_length_c                   19.498(8)
_cell_angle_alpha                90
_cell_angle_beta                 103.473(8)
_cell_angle_gamma                90
_cell_volume                     4489.69
loop_
_atom_site_label
_atom_site_type_symbol
_atom_site_fract_x
_atom_site_fract_y
_atom_site_fract_z
Ni1 Ni 0.42221(3) 0.68625(4) 0.00335(3)
O1 O 0.33462(15) 0.5776(2) 0.00166(15)
O2 O 0.44669(16) 0.5991(3) -0.07970(17)
H1 H 0.4473 0.6421 -0.1122
O3 O 0.43836(14) 0.5399(2) 0.06660(15)
O4 O 0.4361(2) 0.7895(3) -0.1484(2)
O5 O 0.37391(18) 0.8009(2) -0.06660(17)
C1 C 0.3738(2) 0.5175(4) 0.0467(2)
C2 C 0.3448(2) 0.4216(4) 0.0788(2)
C3 C 0.3869(3) 0.3577(5) 0.1297(3)
H2 H 0.4346 0.3710 0.1423
C4 C 0.3581(3) 0.2731(6) 0.1623(4)
H3 H 0.3863 0.2302 0.1975
C5 C 0.2879(3) 0.2531(5) 0.1424(4)
H4 H 0.2692 0.1961 0.1645
C6 C 0.1404(3) 0.1998(4) 0.0939(4)
H5 H 0.1694 0.1496 0.1233
C7 C 0.0706(3) 0.1791(5) 0.0743(4)
H6 H 0.0545 0.1142 0.0913
C8 C 0.0505(3) 0.3352(5) 0.0130(4)
H7 H 0.0201 0.3857 -0.0146
C9 C 0.1197(3) 0.3604(6) 0.0300(4)
H8 H 0.1345 0.4263 0.0129
C10 C 0.1685(2) 0.2923(4) 0.0714(3)
C11 C 0.2443(2) 0.3142(4) 0.0911(3)
C12 C 0.2737(2) 0.3999(4) 0.0593(2)
H9 H 0.2453 0.4432 0.0246
C13 C 0.3857(3) 0.8245(4) -0.1266(3)
C14 C 0.3349(2) 0.9002(4) -0.1728(2)
C15 C 0.3574(2) 0.9695(4) -0.2199(2)
H10 H 0.4045 0.9713 -0.2200
C16 C 0.3995(3) 1.1617(5) -0.3006(3)
H11 H 0.4261 1.1600 -0.2545
C17 C 0.4226(3) 1.2200(5) -0.3518(3)
H12 H 0.4647 1.2580 -0.3384
C18 C 0.3272(2) 1.1723(4) -0.4358(3)
H13 H 0.3018 1.1748 -0.4824
C19 C 0.2999(2) 1.1142(4) -0.3876(2)
H14 H 0.2564 1.0805 -0.4018
C20 C 0.3365(2) 1.1058(4) -0.3185(2)
C21 C 0.3113(2) 1.0361(4) -0.2670(2)
C22 C 0.2401(3) 1.0312(4) -0.2672(3)
H15 H 0.2080 1.0739 -0.2990
C23 C 0.2183(3) 0.9632(5) -0.2202(3)
H16 H 0.1712 0.9602 -0.2204
C24 C 0.2645(3) 0.8999(4) -0.1731(3)
H17 H 0.2486 0.8560 -0.1408
N1 N 0.02411(19) 0.2432(3) 0.0333(2)
N2 N 0.38848(19) 1.2251(3) -0.4189(2)
H18 H 0.4847(12) 0.564(3) -0.0658(19)
Ni1B Ni -0.07779(3) 0.18625(4) 0.00335(3)
Ni1E Ni 0.42221(3) 1.31375(4) -0.49665(3)
N1B N 0.52411(19) 0.7432(3) 0.0333(2)
N2E N 0.38848(19) 0.7749(3) 0.0811(2)
loop_
_geom_bond_atom_site_label_1
_geom_bond_atom_site_label_2
_geom_bond_site_symmetry_1
_geom_bond_site_symmetry_2
Ni1 O1 1_555 1_555
O1 C1 1_555 1_555
O2 Ni1 1_555 1_555
H1 O2 1_555 1_555
O3 Ni1 1_555 1_555
O4 C13 1_555 1_555
O5 Ni1 1_555 1_555
C1 O3 1_555 1_555
C2 C1 1_555 1_555
C3 C2 1_555 1_555
H2 C3 1_555 1_555
C4 C3 1_555 1_555
H3 C4 1_555 1_555
C5 C4 1_555 1_555
H4 C5 1_555 1_555
C6 H5 1_555 1_555
C7 C6 1_555 1_555
H6 C7 1_555 1_555
C8 H7 1_555 1_555
C9 C8 1_555 1_555
H8 C9 1_555 1_555
C10 C6 1_555 1_555
C11 C5 1_555 1_555
C12 C2 1_555 1_555
H9 C12 1_555 1_555
C13 O5 1_555 1_555
C14 C13 1_555 1_555
C15 C14 1_555 1_555
H10 C15 1_555 1_555
C16 H11 1_555 1_555
C17 C16 1_555 1_555
H12 C17 1_555 1_555
C18 H13 1_555 1_555
C19 C18 1_555 1_555
H14 C19 1_555 1_555
C20 C16 1_555 1_555
C21 C15 1_555 1_555
C22 C21 1_555 1_555
H15 C22 1_555 1_555
C23 C22 1_555 1_555
H16 C23 1_555 1_555
C24 C14 1_555 1_555
H17 C24 1_555 1_555
N1 C7 1_555 1_555
N2 C17 1_555 1_555
H18 O2 1_555 1_555
Ni1B N1 1_555 1_555
Ni1E N2 1_555 1_555
N1B Ni1 1_555 1_555
N2E Ni1 1_555 1_555
C8 N1 1_555 1_555
C9 C10 1_555 1_555
C10 C11 1_555 1_555
C11 C12 1_555 1_555
C18 N2 1_555 1_555
C19 C20 1_555 1_555
C20 C21 1_555 1_555
C23 C24 1_555 1_555

#END
