
#######################################################################
#
#                 Cambridge Crystallographic Data Centre
#                                CCDC 
#
#######################################################################
#
# If this CIF has been generated from an entry in the Cambridge 
# Structural Database, then it will include bibliographic, chemical, 
# crystal, experimental, refinement or atomic coordinate data resulting 
# from the CCDC's data processing and validation procedures.
#
#######################################################################

data_XADWAC
_symmetry_cell_setting           tetragonal
_symmetry_space_group_name_H-M   'P 41 21 2'
_symmetry_Int_Tables_number      92
_space_group_name_Hall           'P 4abw 2nw'
loop_
_symmetry_equiv_pos_site_id
_symmetry_equiv_pos_as_xyz
1 x,y,z
2 -x,-y,1/2+z
3 1/2-y,1/2+x,1/4+z
4 1/2+y,1/2-x,3/4+z
5 1/2-x,1/2+y,1/4-z
6 1/2+x,1/2-y,3/4-z
7 y,x,-z
8 -y,-x,1/2-z
_cell_length_a                   15.7756(10)
_cell_length_b                   15.7756(10)
_cell_length_c                   21.438(3)
_cell_angle_alpha                90
_cell_angle_beta                 90
_cell_angle_gamma                90
_cell_volume                     5335.27
loop_
_atom_site_label
_atom_site_type_symbol
_atom_site_fract_x
_atom_site_fract_y
_atom_site_fract_z
Cu1 Cu -0.17560(4) -0.17560(4) 0.0000
Cu2 Cu 0.32385(4) 0.32385(4) 0.0000
O1 O -0.0690(2) -0.2654(2) 0.05997(18)
H1 H -0.0597 -0.3088 0.0392
H2 H -0.0250 -0.2377 0.0652
O2 O 0.4095(2) 0.2404(2) 0.02945(15)
H3 H 0.4205 0.2496 0.0662
H4 H 0.4039 0.1894 0.0219
O3 O -0.3194(3) -0.0519(3) 0.05688(18)
O4 O -0.2171(2) -0.1415(2) 0.08296(15)
O5 O -0.1616(3) -0.2323(3) 0.29734(18)
O6 O 0.2966(2) 0.3626(2) 0.10484(15)
O7 O 0.4101(3) 0.2964(3) 0.14319(17)
O8 O 0.1385(3) 0.5734(2) 0.22612(19)
N1 N -0.0845(2) -0.0845(2) 0.0000
N2 N 0.2334(2) 0.2334(2) 0.0000
N3 N -0.5837(2) -0.5837(2) 0.0000
N4 N -0.2664(2) -0.2664(2) 0.0000
N5 N -0.2068(3) -0.1924(3) 0.2003(2)
H5 H -0.1961 -0.2005 0.1614
N6 N 0.2142(3) 0.4679(3) 0.1790(2)
H6 H 0.2239 0.4462 0.1429
C1 C -0.0484(3) -0.0585(3) 0.0530(2)
H7 H -0.0659 -0.0830 0.0903
C2 C 0.0135(3) 0.0029(3) 0.0549(2)
H8 H 0.0370 0.0189 0.0929
C3 C 0.0409(3) 0.0409(3) 0.0000
C4 C 0.1076(3) 0.1076(3) 0.0000
C5 C 0.1457(3) 0.1357(3) 0.0541(2)
H9 H 0.1295 0.1127 0.0922
C6 C 0.2072(3) 0.1973(3) 0.0525(2)
H10 H 0.2316 0.2144 0.0899
C7 C -0.6015(3) -0.5047(3) 0.0177(2)
H11 H -0.6563 -0.4919 0.0307
C8 C -0.5418(3) -0.4417(3) 0.0175(2)
H12 H -0.5570 -0.3870 0.0292
C9 C -0.4588(3) -0.4588(3) 0.0000
C10 C -0.3923(3) -0.3923(3) 0.0000
C11 C -0.3091(3) -0.4097(3) 0.0174(2)
H13 H -0.2936 -0.4642 0.0292
C12 C -0.2497(3) -0.3459(3) 0.0171(2)
H14 H -0.1947 -0.3589 0.0295
C13 C -0.2801(4) -0.0927(3) 0.0957(3)
C14 C -0.3032(3) -0.0839(3) 0.1638(3)
C15 C -0.3677(4) -0.0259(4) 0.1768(3)
H15 H -0.3945 0.0021 0.1441
C16 C -0.3925(4) -0.0093(4) 0.2377(3)
H16 H -0.4360 0.0290 0.2459
C17 C -0.3523(4) -0.0496(4) 0.2853(3)
H17 H -0.3673 -0.0366 0.3262
C18 C -0.2904(4) -0.1088(4) 0.2748(3)
H18 H -0.2645 -0.1361 0.3082
C19 C -0.2663(4) -0.1281(4) 0.2131(2)
C20 C -0.1640(4) -0.2434(4) 0.2403(3)
C21 C -0.1187(4) -0.3171(4) 0.2092(3)
H19 H -0.0613 -0.3197 0.2239
H20 H -0.1189 -0.3090 0.1648
H21 H -0.1474 -0.3690 0.2192
C22 C 0.3444(4) 0.3415(3) 0.1498(2)
C23 C 0.3232(4) 0.3717(3) 0.2146(2)
C24 C 0.3680(3) 0.3369(4) 0.2644(2)
H22 H 0.4105 0.2976 0.2563
C25 C 0.3513(4) 0.3588(4) 0.3247(3)
H23 H 0.3816 0.3337 0.3570
C26 C 0.2903(4) 0.4177(4) 0.3376(3)
H24 H 0.2791 0.4327 0.3787
C27 C 0.2453(4) 0.4547(4) 0.2899(3)
H25 H 0.2039 0.4949 0.2990
C28 C 0.2610(4) 0.4331(3) 0.2289(2)
C29 C 0.1560(4) 0.5311(4) 0.1805(3)
C30 C 0.1131(4) 0.5467(4) 0.1186(3)
H26 H 0.0536 0.5560 0.1251
H27 H 0.1208 0.4982 0.0921
H28 H 0.1375 0.5957 0.0991
Cu2_2 Cu -0.67615(4) -0.67615(4) 0.0000
O1F O -0.2654(2) -0.0690(2) -0.05997(18)
H1F H -0.3088 -0.0597 -0.0392
H2F H -0.2377 -0.0250 -0.0652
O2F O 0.2404(2) 0.4095(2) -0.02945(15)
H3F H 0.2496 0.4205 -0.0662
H4F H 0.1894 0.4039 -0.0219
O3F O -0.0519(3) -0.3194(3) -0.05688(18)
O4F O -0.1415(2) -0.2171(2) -0.08296(15)
O5F O -0.2323(3) -0.1616(3) -0.29734(18)
O6F O 0.3626(2) 0.2966(2) -0.10484(15)
O7F O 0.2964(3) 0.4101(3) -0.14319(17)
O8F O 0.5734(2) 0.1385(3) -0.22612(19)
N3_2 N 0.4163(2) 0.4163(2) 0.0000
N5F N -0.1924(3) -0.2068(3) -0.2003(2)
H5F H -0.2005 -0.1961 -0.1614
N6F N 0.4679(3) 0.2142(3) -0.1790(2)
H6F H 0.4462 0.2239 -0.1429
C1F C -0.0585(3) -0.0484(3) -0.0530(2)
H7F H -0.0830 -0.0659 -0.0903
C2F C 0.0029(3) 0.0135(3) -0.0549(2)
H8F H 0.0189 0.0370 -0.0929
C5F C 0.1357(3) 0.1457(3) -0.0541(2)
H9F H 0.1127 0.1295 -0.0922
C6F C 0.1973(3) 0.2072(3) -0.0525(2)
H10F H 0.2144 0.2316 -0.0899
C7F C -0.5047(3) -0.6015(3) -0.0177(2)
H11F H -0.4919 -0.6563 -0.0307
C8F C -0.4417(3) -0.5418(3) -0.0175(2)
H12F H -0.3870 -0.5570 -0.0292
C11F C -0.4097(3) -0.3091(3) -0.0174(2)
H13F H -0.4642 -0.2936 -0.0292
C12F C -0.3459(3) -0.2497(3) -0.0171(2)
H14F H -0.3589 -0.1947 -0.0295
C13F C -0.0927(3) -0.2801(4) -0.0957(3)
C14F C -0.0839(3) -0.3032(3) -0.1638(3)
C15F C -0.0259(4) -0.3677(4) -0.1768(3)
H15F H 0.0021 -0.3945 -0.1441
C16F C -0.0093(4) -0.3925(4) -0.2377(3)
H16F H 0.0290 -0.4360 -0.2459
C17F C -0.0496(4) -0.3523(4) -0.2853(3)
H17F H -0.0366 -0.3673 -0.3262
C18F C -0.1088(4) -0.2904(4) -0.2748(3)
H18F H -0.1361 -0.2645 -0.3082
C19F C -0.1281(4) -0.2663(4) -0.2131(2)
C20F C -0.2434(4) -0.1640(4) -0.2403(3)
C21F C -0.3171(4) -0.1187(4) -0.2092(3)
H19F H -0.3197 -0.0613 -0.2239
H20F H -0.3090 -0.1189 -0.1648
H21F H -0.3690 -0.1474 -0.2192
C22F C 0.3415(3) 0.3444(4) -0.1498(2)
C23F C 0.3717(3) 0.3232(4) -0.2146(2)
C24F C 0.3369(4) 0.3680(3) -0.2644(2)
H22F H 0.2976 0.4105 -0.2563
C25F C 0.3588(4) 0.3513(4) -0.3247(3)
H23F H 0.3337 0.3816 -0.3570
C26F C 0.4177(4) 0.2903(4) -0.3376(3)
H24F H 0.4327 0.2791 -0.3787
C27F C 0.4547(4) 0.2453(4) -0.2899(3)
H25F H 0.4949 0.2039 -0.2990
C28F C 0.4331(3) 0.2610(4) -0.2289(2)
C29F C 0.5311(4) 0.1560(4) -0.1805(3)
C30F C 0.5467(4) 0.1131(4) -0.1186(3)
H26F H 0.5560 0.0536 -0.1251
H27F H 0.4982 0.1208 -0.0921
H28F H 0.5957 0.1375 -0.0991
loop_
_geom_bond_atom_site_label_1
_geom_bond_atom_site_label_2
_geom_bond_site_symmetry_1
_geom_bond_site_symmetry_2
Cu1 O1 1_555 1_555
Cu2 O2 1_555 1_555
O1 H1 1_555 1_555
H2 O1 1_555 1_555
O2 H3 1_555 1_555
H4 O2 1_555 1_555
O3 C13 1_555 1_555
O4 Cu1 1_555 1_555
O5 C20 1_555 1_555
O6 Cu2 1_555 1_555
O7 C22 1_555 1_555
O8 C29 1_555 1_555
N1 Cu1 1_555 1_555
N2 Cu2 1_555 1_555
N3 C7 1_555 1_555
N4 Cu1 1_555 1_555
N5 H5 1_555 1_555
N6 H6 1_555 1_555
C1 N1 1_555 1_555
H7 C1 1_555 1_555
C2 C1 1_555 1_555
H8 C2 1_555 1_555
C3 C2 1_555 1_555
C4 C3 1_555 1_555
C5 C4 1_555 1_555
H9 C5 1_555 1_555
C6 N2 1_555 1_555
H10 C6 1_555 1_555
C7 H11 1_555 1_555
C8 C7 1_555 1_555
H12 C8 1_555 1_555
C9 C8 1_555 1_555
C10 C9 1_555 1_555
C11 C10 1_555 1_555
H13 C11 1_555 1_555
C12 N4 1_555 1_555
H14 C12 1_555 1_555
C13 O4 1_555 1_555
C14 C13 1_555 1_555
C15 C14 1_555 1_555
H15 C15 1_555 1_555
C16 C15 1_555 1_555
H16 C16 1_555 1_555
C17 C16 1_555 1_555
H17 C17 1_555 1_555
C18 C17 1_555 1_555
H18 C18 1_555 1_555
C19 N5 1_555 1_555
C20 N5 1_555 1_555
C21 C20 1_555 1_555
H19 C21 1_555 1_555
H20 C21 1_555 1_555
H21 C21 1_555 1_555
C22 O6 1_555 1_555
C23 C22 1_555 1_555
C24 C23 1_555 1_555
H22 C24 1_555 1_555
C25 C24 1_555 1_555
H23 C25 1_555 1_555
C26 C25 1_555 1_555
H24 C26 1_555 1_555
C27 C26 1_555 1_555
H25 C27 1_555 1_555
C28 N6 1_555 1_555
C29 N6 1_555 1_555
C30 C29 1_555 1_555
H26 C30 1_555 1_555
H27 C30 1_555 1_555
H28 C30 1_555 1_555
Cu2_2 N3 1_555 1_555
O1F Cu1 1_555 1_555
H1F O1F 1_555 1_555
H2F O1F 1_555 1_555
O2F Cu2 1_555 1_555
H3F O2F 1_555 1_555
H4F O2F 1_555 1_555
O3F C13F 1_555 1_555
O4F Cu1 1_555 1_555
O5F C20F 1_555 1_555
O6F Cu2 1_555 1_555
O7F C22F 1_555 1_555
O8F C29F 1_555 1_555
N3_2 Cu2 1_555 1_555
N5F H5F 1_555 1_555
N6F H6F 1_555 1_555
C1F N1 1_555 1_555
H7F C1F 1_555 1_555
C2F C3 1_555 1_555
H8F C2F 1_555 1_555
C5F C4 1_555 1_555
H9F C5F 1_555 1_555
C6F N2 1_555 1_555
H10F C6F 1_555 1_555
C7F N3 1_555 1_555
H11F C7F 1_555 1_555
C8F C9 1_555 1_555
H12F C8F 1_555 1_555
C11F C10 1_555 1_555
H13F C11F 1_555 1_555
C12F N4 1_555 1_555
H14F C12F 1_555 1_555
C13F O4F 1_555 1_555
C14F C13F 1_555 1_555
C15F C14F 1_555 1_555
H15F C15F 1_555 1_555
C16F C15F 1_555 1_555
H16F C16F 1_555 1_555
C17F C16F 1_555 1_555
H17F C17F 1_555 1_555
C18F C17F 1_555 1_555
H18F C18F 1_555 1_555
C19F N5F 1_555 1_555
C20F N5F 1_555 1_555
C21F C20F 1_555 1_555
H19F C21F 1_555 1_555
H20F C21F 1_555 1_555
H21F C21F 1_555 1_555
C22F O6F 1_555 1_555
C23F C22F 1_555 1_555
C24F C23F 1_555 1_555
H22F C24F 1_555 1_555
C25F C24F 1_555 1_555
H23F C25F 1_555 1_555
C26F C25F 1_555 1_555
H24F C26F 1_555 1_555
C27F C26F 1_555 1_555
H25F C27F 1_555 1_555
C28F N6F 1_555 1_555
C29F N6F 1_555 1_555
C30F C29F 1_555 1_555
H26F C30F 1_555 1_555
H27F C30F 1_555 1_555
H28F C30F 1_555 1_555
C5 C6 1_555 1_555
C11 C12 1_555 1_555
C14 C19 1_555 1_555
C18 C19 1_555 1_555
C23 C28 1_555 1_555
C27 C28 1_555 1_555
C1F C2F 1_555 1_555
C5F C6F 1_555 1_555
C7F C8F 1_555 1_555
C11F C12F 1_555 1_555
C14F C19F 1_555 1_555
C18F C19F 1_555 1_555
C23F C28F 1_555 1_555
C27F C28F 1_555 1_555

#END
