
#######################################################################
#
#                 Cambridge Crystallographic Data Centre
#                                CCDC 
#
#######################################################################
#
# If this CIF has been generated from an entry in the Cambridge 
# Structural Database, then it will include bibliographic, chemical, 
# crystal, experimental, refinement or atomic coordinate data resulting 
# from the CCDC's data processing and validation procedures.
#
#######################################################################

data_XADWIK
_symmetry_cell_setting           monoclinic
_symmetry_space_group_name_H-M   'C 2/c'
_symmetry_Int_Tables_number      15
_space_group_name_Hall           '-C 2yn'
loop_
_symmetry_equiv_pos_site_id
_symmetry_equiv_pos_as_xyz
1 x,y,z
2 -x,y,1/2-z
3 1/2+x,1/2+y,z
4 1/2-x,1/2+y,1/2-z
5 -x,-y,-z
6 x,-y,1/2+z
7 1/2-x,1/2-y,-z
8 1/2+x,1/2-y,1/2+z
_cell_length_a                   19.624(5)
_cell_length_b                   12.029(5)
_cell_length_c                   19.452(5)
_cell_angle_alpha                90
_cell_angle_beta                 104.447(5)
_cell_angle_gamma                90
_cell_volume                     4446.59
loop_
_atom_site_label
_atom_site_type_symbol
_atom_site_fract_x
_atom_site_fract_y
_atom_site_fract_z
Ni1 Ni -0.076072(16) 0.18670(3) 0.502775(17)
O1 O 0.33633(9) 0.57825(15) 0.50227(9)
O2 O 0.44158(8) 0.54296(14) 0.56747(9)
O3 O -0.05397(10) 0.09939(16) 0.41864(10)
H1 H -0.0155 0.0573 0.4285
H2 H -0.0486 0.1657 0.3919
O4 O -0.12506(10) 0.69934(15) 0.93198(9)
O5 O -0.06246(12) 0.70989(19) 0.85152(11)
N1 N 0.02697(11) 0.24252(18) 0.53344(12)
C1 C -0.16092(14) 0.3949(2) 0.67991(13)
C2 C -0.18714(15) 0.4635(2) 0.73106(13)
C3 C 0.34802(13) 0.4245(2) 0.58074(14)
N2 N -0.10926(11) 0.27583(18) 0.58013(11)
C4 C -0.19873(15) 0.3851(2) 0.61050(14)
H3 H -0.2429 0.4179 0.5957
C5 C 0.27679(13) 0.4007(2) 0.56054(13)
H4 H 0.2477 0.4421 0.5245
C6 C 0.37653(13) 0.5199(2) 0.54783(13)
C7 C -0.14060(15) 0.5306(2) 0.77869(13)
H5 H -0.0931 0.5300 0.7790
C8 C 0.24803(14) 0.3166(2) 0.59276(15)
C9 C 0.17140(13) 0.2928(2) 0.57217(14)
C10 C 0.39153(15) 0.3638(3) 0.63441(16)
H6 H 0.4394 0.3797 0.6483
C11 C 0.29285(17) 0.2565(3) 0.64648(18)
H7 H 0.2746 0.1995 0.6688
C12 C -0.11257(15) 0.6753(2) 0.87293(14)
C13 C -0.23441(16) 0.5982(3) 0.82489(15)
H8 H -0.2504 0.6420 0.8571
C14 C -0.17129(14) 0.3268(2) 0.56310(14)
H9 H -0.1976 0.3228 0.5163
C15 C 0.12229(18) 0.3632(3) 0.5329(2)
H10 H 0.1366 0.4312 0.5186
C16 C -0.16361(15) 0.5984(2) 0.82567(13)
C17 C -0.25784(15) 0.4666(3) 0.72999(15)
H11 H -0.2898 0.4232 0.6976
C18 C -0.09764(17) 0.3393(3) 0.69840(16)
H12 H -0.0709 0.3408 0.7452
C19 C 0.14474(16) 0.1980(3) 0.5923(2)
H13 H 0.1750 0.1465 0.6199
C20 C -0.07386(17) 0.2816(3) 0.64809(16)
H14 H -0.0310 0.2448 0.6621
C21 C 0.07450(16) 0.1769(3) 0.5730(2)
H15 H 0.0589 0.1110 0.5889
C22 C -0.28110(17) 0.5339(3) 0.77687(16)
H16 H -0.3287 0.5357 0.7759
C23 C 0.36380(17) 0.2796(3) 0.6673(2)
H17 H 0.3929 0.2386 0.7035
C24 C 0.05196(17) 0.3354(3) 0.5141(2)
H18 H 0.0205 0.3852 0.4862
Ni1B Ni 0.423928(16) 0.68670(3) 0.502775(17)
Ni1E Ni -0.076072(16) 0.81330(3) 1.002775(17)
O1B O -0.16367(9) 0.07825(15) 0.50227(9)
O2B O -0.05842(8) 0.04296(14) 0.56747(9)
O4E O -0.12506(10) 0.30066(15) 0.43198(9)
C6B C -0.12347(13) 0.0199(2) 0.54783(13)
loop_
_geom_bond_atom_site_label_1
_geom_bond_atom_site_label_2
_geom_bond_site_symmetry_1
_geom_bond_site_symmetry_2
Ni1 O3 1_555 1_555
O1 C6 1_555 1_555
O2 C6 1_555 1_555
O3 H1 1_555 1_555
H2 O3 1_555 1_555
O4 C12 1_555 1_555
O5 C12 1_555 1_555
N1 Ni1 1_555 1_555
C1 C2 1_555 1_555
C2 C7 1_555 1_555
C3 C5 1_555 1_555
N2 Ni1 1_555 1_555
C4 C1 1_555 1_555
H3 C4 1_555 1_555
C5 H4 1_555 1_555
C6 C3 1_555 1_555
C7 H5 1_555 1_555
C8 C5 1_555 1_555
C9 C8 1_555 1_555
C10 C3 1_555 1_555
H6 C10 1_555 1_555
C11 C8 1_555 1_555
H7 C11 1_555 1_555
C12 C16 1_555 1_555
C13 H8 1_555 1_555
C14 N2 1_555 1_555
H9 C14 1_555 1_555
C15 C9 1_555 1_555
H10 C15 1_555 1_555
C16 C7 1_555 1_555
C17 C2 1_555 1_555
H11 C17 1_555 1_555
C18 C1 1_555 1_555
H12 C18 1_555 1_555
C19 C9 1_555 1_555
H13 C19 1_555 1_555
C20 N2 1_555 1_555
H14 C20 1_555 1_555
C21 N1 1_555 1_555
H15 C21 1_555 1_555
C22 C13 1_555 1_555
H16 C22 1_555 1_555
C23 C10 1_555 1_555
H17 C23 1_555 1_555
C24 N1 1_555 1_555
H18 C24 1_555 1_555
Ni1B O1 1_555 1_555
Ni1E O4 1_555 1_555
O1B Ni1 1_555 1_555
O2B Ni1 1_555 1_555
O4E Ni1 1_555 1_555
C6B O1B 1_555 1_555
O2 Ni1B 1_555 1_555
C4 C14 1_555 1_555
C11 C23 1_555 1_555
C13 C16 1_555 1_555
C15 C24 1_555 1_555
C17 C22 1_555 1_555
C18 C20 1_555 1_555
C19 C21 1_555 1_555
O2B C6B 1_555 1_555

#END
