
#######################################################################
#
#                 Cambridge Crystallographic Data Centre
#                                CCDC 
#
#######################################################################
#
# If this CIF has been generated from an entry in the Cambridge 
# Structural Database, then it will include bibliographic, chemical, 
# crystal, experimental, refinement or atomic coordinate data resulting 
# from the CCDC's data processing and validation procedures.
#
#######################################################################

data_XADZOT
_symmetry_cell_setting           monoclinic
_symmetry_space_group_name_H-M   'P 21/n'
_symmetry_Int_Tables_number      14
_space_group_name_Hall           '-P 2yn'
loop_
_symmetry_equiv_pos_site_id
_symmetry_equiv_pos_as_xyz
1 x,y,z
2 1/2-x,1/2+y,1/2-z
3 -x,-y,-z
4 1/2+x,1/2-y,1/2+z
_cell_length_a                   11.6033(9)
_cell_length_b                   7.0633(4)
_cell_length_c                   13.9717(10)
_cell_angle_alpha                90
_cell_angle_beta                 110.630(8)
_cell_angle_gamma                90
_cell_volume                     1071.66
loop_
_atom_site_label
_atom_site_type_symbol
_atom_site_fract_x
_atom_site_fract_y
_atom_site_fract_z
Cu1 Cu 0.25653(4) 0.50574(5) 0.75133(3)
Cu2 Cu 0.13388(4) 0.74702(5) 0.55630(4)
S1 S 0.42847(9) 0.77248(13) 0.65771(7)
P1 P 0.84406(10) 0.74567(11) 0.45858(8)
O1 O 0.4478(3) 0.6051(4) 0.7234(2)
O2 O 0.3128(3) 0.7642(4) 0.5704(2)
O3 O 0.4421(3) 0.9462(5) 0.7177(2)
O4 O 0.8209(2) 0.5672(4) 0.39200(17)
O5 O 0.9650(3) 0.7313(4) 0.5484(2)
O6 O 0.8383(2) 0.9250(4) 0.39574(18)
C1 C 0.5434(4) 0.7722(5) 0.6022(3)
C2 C 0.5118(4) 0.7400(5) 0.4986(3)
H1 H 0.4297 0.7241 0.4575
C3 C 0.6033(4) 0.7316(6) 0.4559(3)
H2 H 0.5819 0.7084 0.3863
C4 C 0.7265(4) 0.7574(4) 0.5162(3)
C5 C 0.7569(5) 0.7930(9) 0.6203(4)
H3 H 0.8387 0.8122 0.6613
C6 C 0.6653(5) 0.8002(10) 0.6633(4)
H4 H 0.6861 0.8237 0.7328
O7 O 0.1768(3) 0.7525(3) 0.7073(2)
H5 H 0.1100 0.7431 0.7147
O8 O 0.0975(3) 0.7198(5) 0.4079(3)
Cu1B Cu 0.74347(4) 0.49426(5) 0.24867(3)
Cu1C Cu 0.75653(4) 0.99426(5) 0.25133(3)
Cu1A Cu 0.24347(4) 1.00574(5) 0.74867(3)
Cu2B Cu 0.86612(4) 0.25298(5) 0.44370(4)
Cu2_2 Cu 1.13388(4) 0.74702(5) 0.55630(4)
Cu2B_2 Cu 0.86612(4) 1.25298(5) 0.44370(4)
O4B O 0.1791(2) 0.4328(4) 0.60800(17)
O5_2 O -0.0350(3) 0.7313(4) 0.5484(2)
O6C O 0.3383(2) 0.5750(4) 0.89574(18)
O6B O 0.1617(2) 1.0750(4) 0.60426(18)
O7A O 0.3232(3) 0.2525(3) 0.7927(2)
H5A H 0.3900 0.2431 0.7853
loop_
_geom_bond_atom_site_label_1
_geom_bond_atom_site_label_2
_geom_bond_site_symmetry_1
_geom_bond_site_symmetry_2
Cu1 O1 1_555 1_555
Cu2 O2 1_555 1_555
S1 O1 1_555 1_555
P1 O4 1_555 1_555
O2 S1 1_555 1_555
O3 S1 1_555 1_555
O4 Cu1B 1_555 1_555
O5 P1 1_555 1_555
O6 P1 1_555 1_555
C1 S1 1_555 1_555
C2 C1 1_555 1_555
H1 C2 1_555 1_555
C3 C2 1_555 1_555
H2 C3 1_555 1_555
C4 P1 1_555 1_555
C5 C4 1_555 1_555
H3 C5 1_555 1_555
C6 C1 1_555 1_555
H4 C6 1_555 1_555
O7 Cu1 1_555 1_555
H5 O7 1_555 1_555
O8 Cu2 1_555 1_555
Cu1C O6 1_555 1_555
Cu1A O7 1_555 1_555
Cu2B O4 1_555 1_555
Cu2_2 O5 1_555 1_555
Cu2B_2 O6 1_555 1_555
O4B Cu1 1_555 1_555
O5_2 Cu2 1_555 1_555
O6C Cu1 1_555 1_555
O6B Cu2 1_555 1_555
O7A Cu1 1_555 1_555
H5A O7A 1_555 1_555
Cu2 O7 1_555 1_555
Cu2 O4B 1_555 1_555
C3 C4 1_555 1_555
C5 C6 1_555 1_555
Cu1A O6B 1_555 1_555

#END
