
#######################################################################
#
#                 Cambridge Crystallographic Data Centre
#                                CCDC 
#
#######################################################################
#
# If this CIF has been generated from an entry in the Cambridge 
# Structural Database, then it will include bibliographic, chemical, 
# crystal, experimental, refinement or atomic coordinate data resulting 
# from the CCDC's data processing and validation procedures.
#
#######################################################################

data_XADZUZ
_symmetry_cell_setting           triclinic
_symmetry_space_group_name_H-M   'P -1'
_symmetry_Int_Tables_number      2
_space_group_name_Hall           '-P 1'
loop_
_symmetry_equiv_pos_site_id
_symmetry_equiv_pos_as_xyz
1 x,y,z
2 -x,-y,-z
_cell_length_a                   9.980(2)
_cell_length_b                   10.066(2)
_cell_length_c                   11.377(2)
_cell_angle_alpha                96.63(3)
_cell_angle_beta                 113.63(3)
_cell_angle_gamma                101.82(3)
_cell_volume                     999.703
loop_
_atom_site_label
_atom_site_type_symbol
_atom_site_fract_x
_atom_site_fract_y
_atom_site_fract_z
Cu1 Cu 0.24950(8) 0.00314(8) 0.49241(8)
Cu2 Cu 0.11616(8) -0.03389(7) 0.72680(7)
Cu3 Cu 0.38957(8) 0.03814(7) 0.26885(7)
S1 S 0.09139(16) -0.81984(15) 0.16085(14)
S2 S -0.41965(16) -0.81060(15) 0.14955(14)
P1 P -0.06599(16) -0.18053(15) 0.43330(14)
P2 P 0.42826(16) -0.18351(15) 0.43895(14)
O1 O 0.0657(5) -0.1418(4) 0.3979(4)
O2 O 0.3347(4) -0.0811(4) 0.3789(4)
O3 O -0.0235(5) -0.1793(4) 0.5777(4)
O4 O 0.5712(4) -0.1554(4) 0.4168(4)
O5 O -0.1692(5) -0.0808(4) 0.3881(4)
O6 O 0.4549(5) -0.1726(5) 0.5816(4)
O7 O -0.4456(5) -0.8256(5) 0.0119(4)
O8 O -0.0624(4) -0.8529(4) 0.1569(4)
O9 O -0.3269(5) -0.8937(5) 0.2213(5)
O10 O 0.0773(5) -0.8372(5) 0.0281(4)
O11 O -0.5683(5) -0.8389(4) 0.1549(4)
O12 O 0.1828(5) -0.8983(4) 0.2447(4)
O13 O 0.2763(5) -0.1158(5) 0.1140(4)
H1 H 0.3145 -0.1284 0.0614
H2 H 0.1840 -0.1303 0.0625
O14 O 0.2264(5) 0.1299(4) 0.8728(4)
H3 H 0.3194 0.1387 0.9176
H4 H 0.1874 0.1328 0.9258
C1 C -0.1735(7) -0.3550(6) 0.3433(6)
C2 C 0.3206(6) -0.3606(6) 0.3560(5)
C3 C -0.0919(7) -0.4543(6) 0.3499(7)
H5 H 0.0138 -0.4261 0.3940
C4 C 0.2366(8) -0.4020(7) 0.2199(6)
H6 H 0.2285 -0.3356 0.1688
C5 C -0.1658(7) -0.5933(6) 0.2920(6)
H7 H -0.1107 -0.6582 0.2959
C6 C 0.1644(7) -0.5423(6) 0.1595(6)
H8 H 0.1068 -0.5699 0.0688
C7 C -0.3251(6) -0.6348(6) 0.2274(5)
C8 C 0.1804(6) -0.6404(6) 0.2378(6)
C9 C -0.4078(7) -0.5356(6) 0.2178(6)
H9 H -0.5133 -0.5630 0.1716
C10 C 0.2625(7) -0.6022(7) 0.3734(6)
H10 H 0.2719 -0.6688 0.4242
C11 C -0.3314(7) -0.3967(7) 0.2776(6)
H11 H -0.3860 -0.3314 0.2737
C12 C 0.3305(7) -0.4617(6) 0.4313(6)
H12 H 0.3838 -0.4342 0.5224
Cu1A Cu 0.75050(8) -0.00314(8) 0.50759(8)
Cu1A_2 Cu -0.24950(8) -0.00314(8) 0.50759(8)
Cu2A Cu -0.11616(8) 0.03389(7) 0.27320(7)
Cu2A_2 Cu -0.11616(8) -0.96611(7) 0.27320(7)
Cu3A Cu 0.61043(8) -0.03814(7) 0.73115(7)
Cu3_2 Cu -0.61043(8) -0.96186(7) 0.26885(7)
Cu3_3 Cu 0.38957(8) -0.96186(7) 0.26885(7)
O4A O 0.4288(4) 0.1554(4) 0.5832(4)
O5A O 0.1692(5) 0.0808(4) 0.6119(4)
O6A O 0.5451(5) 0.1726(5) 0.4184(4)
O8A O 0.0624(4) -0.1471(4) 0.8431(4)
O9A O 0.3269(5) -0.1063(5) 0.7787(5)
O11_2 O 0.4317(5) 0.1611(4) 0.1549(4)
O12_2 O 0.1828(5) 0.1017(4) 0.2447(4)
loop_
_geom_bond_atom_site_label_1
_geom_bond_atom_site_label_2
_geom_bond_site_symmetry_1
_geom_bond_site_symmetry_2
Cu1 O1 1_555 1_555
Cu2 O3 1_555 1_555
Cu3 O2 1_555 1_555
S1 O8 1_555 1_555
S2 O7 1_555 1_555
P1 O1 1_555 1_555
P2 O2 1_555 1_555
O2 Cu1 1_555 1_555
O3 P1 1_555 1_555
O4 P2 1_555 1_555
O5 P1 1_555 1_555
O6 P2 1_555 1_555
O8 Cu2A_2 1_555 1_555
O9 S2 1_555 1_555
O10 S1 1_555 1_555
O11 S2 1_555 1_555
O12 S1 1_555 1_555
O13 Cu3 1_555 1_555
H1 O13 1_555 1_555
H2 O13 1_555 1_555
O14 Cu2 1_555 1_555
H3 O14 1_555 1_555
H4 O14 1_555 1_555
C1 P1 1_555 1_555
C2 P2 1_555 1_555
C3 C1 1_555 1_555
H5 C3 1_555 1_555
C4 C2 1_555 1_555
H6 C4 1_555 1_555
C5 C3 1_555 1_555
H7 C5 1_555 1_555
C6 C4 1_555 1_555
H8 C6 1_555 1_555
C7 S2 1_555 1_555
C8 S1 1_555 1_555
C9 C7 1_555 1_555
H9 C9 1_555 1_555
C10 C8 1_555 1_555
H10 C10 1_555 1_555
C11 C1 1_555 1_555
H11 C11 1_555 1_555
C12 C2 1_555 1_555
H12 C12 1_555 1_555
Cu1A O4 1_555 1_555
Cu1A_2 O5 1_555 1_555
Cu2A O5 1_555 1_555
Cu2A_2 O9 1_555 1_555
Cu3A O6 1_555 1_555
Cu3_2 O11 1_555 1_555
Cu3_3 O12 1_555 1_555
O4A Cu1 1_555 1_555
O5A Cu1 1_555 1_555
O6A Cu3 1_555 1_555
O8A Cu2 1_555 1_555
O9A Cu2 1_555 1_555
O11_2 Cu3 1_555 1_555
O12_2 Cu3 1_555 1_555
Cu2 O5A 1_555 1_555
C5 C7 1_555 1_555
C6 C8 1_555 1_555
C9 C11 1_555 1_555
C10 C12 1_555 1_555

#END
