
#######################################################################
#
#                 Cambridge Crystallographic Data Centre
#                                CCDC 
#
#######################################################################
#
# If this CIF has been generated from an entry in the Cambridge 
# Structural Database, then it will include bibliographic, chemical, 
# crystal, experimental, refinement or atomic coordinate data resulting 
# from the CCDC's data processing and validation procedures.
#
#######################################################################

data_XAFBEN
_symmetry_cell_setting           monoclinic
_symmetry_space_group_name_H-M   'C 2/c'
_symmetry_Int_Tables_number      15
_space_group_name_Hall           '-C 2yn'
loop_
_symmetry_equiv_pos_site_id
_symmetry_equiv_pos_as_xyz
1 x,y,z
2 -x,y,1/2-z
3 1/2+x,1/2+y,z
4 1/2-x,1/2+y,1/2-z
5 -x,-y,-z
6 x,-y,1/2+z
7 1/2-x,1/2-y,-z
8 1/2+x,1/2-y,1/2+z
_cell_length_a                   10.7068(2)
_cell_length_b                   17.7294(4)
_cell_length_c                   13.2435(2)
_cell_angle_alpha                90
_cell_angle_beta                 104.4460(10)
_cell_angle_gamma                90
_cell_volume                     2434.47
loop_
_atom_site_label
_atom_site_type_symbol
_atom_site_fract_x
_atom_site_fract_y
_atom_site_fract_z
C9 C 0.5640(15) -0.1297(8) 0.1885(11)
C10 C 0.7111(17) -0.0765(7) 0.1773(14)
N1 N 0.5958(9) -0.0643(4) 0.1648(9)
C1 C 0.7433(5) 0.0513(3) 0.3971(4)
C2 C 0.8765(4) 0.0261(3) 0.4513(4)
C3 C 0.9802(5) 0.0423(5) 0.4101(5)
H1 H 0.9676 0.0712 0.3499
C4 C 0.8976(5) -0.0159(4) 0.5423(5)
H2 H 0.8292 -0.0264 0.5717
C5 C 0.6029(4) 0.1517(3) 0.0997(4)
C6 C 0.6754(5) 0.2038(3) 0.0462(4)
C7 C 0.7018(6) 0.2769(3) 0.0811(4)
H3 H 0.6695 0.2948 0.1355
C8 C 0.7237(6) 0.1763(3) -0.0356(4)
H4 H 0.7061 0.1271 -0.0592
O1 O 0.7285(4) 0.0941(3) 0.3201(4)
O2 O 0.6504(4) 0.0281(3) 0.4289(3)
O3 O 0.5437(4) 0.1799(2) 0.1639(3)
O4 O 0.6019(5) 0.0823(2) 0.0822(4)
Bi1 Bi 0.5000 0.075561(11) 0.2500
C1D C 1.2567(5) -0.0513(3) 0.6029(4)
C2D C 1.1235(4) -0.0261(3) 0.5487(4)
C3D C 1.0198(5) -0.0423(5) 0.5899(5)
H1D H 1.0324 -0.0712 0.6501
C4D C 1.1024(5) 0.0159(4) 0.4577(5)
H2D H 1.1708 0.0264 0.4283
C5F C 0.8971(4) 0.3483(3) -0.0997(4)
C6F C 0.8246(5) 0.2962(3) -0.0462(4)
C7F C 0.7982(6) 0.2231(3) -0.0811(4)
H3F H 0.8305 0.2052 -0.1355
C8F C 0.7763(6) 0.3237(3) 0.0356(4)
H4F H 0.7939 0.3729 0.0592
O1D O 1.2715(4) -0.0941(3) 0.6799(4)
O1A O 0.2715(4) 0.0941(3) 0.1799(4)
O2D O 1.3496(4) -0.0281(3) 0.5711(3)
O2A O 0.3496(4) 0.0281(3) 0.0711(3)
O3F O 0.9563(4) 0.3201(2) -0.1639(3)
O3A O 0.4563(4) 0.1799(2) 0.3361(3)
O4F O 0.8981(5) 0.4177(2) -0.0822(4)
O4A O 0.3981(5) 0.0823(2) 0.4178(4)
Bi1D Bi 1.5000 -0.075561(11) 0.7500
Bi1F Bi 1.0000 0.424439(11) -0.2500
loop_
_geom_bond_atom_site_label_1
_geom_bond_atom_site_label_2
_geom_bond_site_symmetry_1
_geom_bond_site_symmetry_2
C1 C2 1_555 1_555
C2 C3 1_555 1_555
C3 H1 1_555 1_555
C4 C2 1_555 1_555
H2 C4 1_555 1_555
C5 C6 1_555 1_555
C6 C7 1_555 1_555
C7 H3 1_555 1_555
C8 C6 1_555 1_555
H4 C8 1_555 1_555
C9 N1 1_555 1_555
C10 N1 1_555 1_555
O1 C1 1_555 1_555
O2 C1 1_555 1_555
O3 C5 1_555 1_555
O4 C5 1_555 1_555
Bi1 O1 1_555 1_555
C1D C2D 1_555 1_555
C2D C3D 1_555 1_555
C3D C4 1_555 1_555
H1D C3D 1_555 1_555
C4D C3 1_555 1_555
H2D C4D 1_555 1_555
C5F C6F 1_555 1_555
C6F C7F 1_555 1_555
C7F C8 1_555 1_555
H3F C7F 1_555 1_555
C8F C7 1_555 1_555
H4F C8F 1_555 1_555
O1D C1D 1_555 1_555
O1A Bi1 1_555 1_555
O2D C1D 1_555 1_555
O2A Bi1 1_555 1_555
O3F C5F 1_555 1_555
O3A Bi1 1_555 1_555
O4F C5F 1_555 1_555
O4A Bi1 1_555 1_555
Bi1D O1D 1_555 1_555
Bi1F O3F 1_555 1_555
O2 Bi1 1_555 1_555
O3 Bi1 1_555 1_555
O4 Bi1 1_555 1_555
C2D C4D 1_555 1_555
C6F C8F 1_555 1_555
O2D Bi1D 1_555 1_555
O4F Bi1F 1_555 1_555

#END
