
#######################################################################
#
#                 Cambridge Crystallographic Data Centre
#                                CCDC 
#
#######################################################################
#
# If this CIF has been generated from an entry in the Cambridge 
# Structural Database, then it will include bibliographic, chemical, 
# crystal, experimental, refinement or atomic coordinate data resulting 
# from the CCDC's data processing and validation procedures.
#
#######################################################################

data_XAFBIR
_symmetry_cell_setting           triclinic
_symmetry_space_group_name_H-M   'P -1'
_symmetry_Int_Tables_number      2
_space_group_name_Hall           '-P 1'
loop_
_symmetry_equiv_pos_site_id
_symmetry_equiv_pos_as_xyz
1 x,y,z
2 -x,-y,-z
_cell_length_a                   13.6855(3)
_cell_length_b                   13.7530(3)
_cell_length_c                   15.3046(3)
_cell_angle_alpha                73.0350(10)
_cell_angle_beta                 75.0470(10)
_cell_angle_gamma                82.0480(10)
_cell_volume                     2655.73
loop_
_atom_site_label
_atom_site_type_symbol
_atom_site_fract_x
_atom_site_fract_y
_atom_site_fract_z
C3 C 0.8161(14) 0.8410(15) 0.1552(13)
H1 H 0.8755 0.8089 0.1770
H2 H 0.8176 0.9136 0.1405
H3 H 0.8146 0.8219 0.1001
C4 C 0.686(2) 0.867(2) 0.2830(18)
H4 H 0.6152 0.8798 0.2835
H5 H 0.7172 0.9312 0.2621
H6 H 0.6942 0.8328 0.3453
C5 C 0.6815(19) 0.7319(19) 0.2426(18)
H7 H 0.6311 0.7105 0.2966
N2 N 0.7302(12) 0.8098(12) 0.2249(11)
O1 O 0.709(3) 0.688(3) 0.180(3)
C6 C 0.651(3) 0.817(3) 0.695(3)
H8 H 0.6956 0.8198 0.6350
H9 H 0.6314 0.8857 0.7006
H10 H 0.5924 0.7830 0.7025
C7 C 0.771(3) 0.689(3) 0.744(3)
H11 H 0.8356 0.6922 0.7560
H12 H 0.7780 0.7000 0.6777
H13 H 0.7454 0.6236 0.7769
C8 C 0.729(2) 0.814(3) 0.822(2)
H14 H 0.7016 0.8810 0.8163
N3 N 0.707(3) 0.760(3) 0.772(2)
O2 O 0.776(2) 0.783(2) 0.868(2)
C9 C 0.0345(6) 0.7823(6) 0.3651(5)
C10 C -0.0279(6) 0.8434(6) 0.4280(5)
C11 C -0.1077(6) 0.9113(7) 0.3994(6)
H15 H -0.1233 0.9152 0.3428
C12 C -0.1622(7) 0.9717(8) 0.4545(7)
H16 H -0.2139 1.0172 0.4345
C13 C -0.0086(6) 0.8364(6) 0.5154(6)
H17 H 0.0427 0.7905 0.5360
C14 C -0.0642(6) 0.8963(6) 0.5706(6)
H18 H -0.0507 0.8908 0.6285
C15 C -0.1414(6) 0.9659(6) 0.5402(6)
C16 C -0.1958(6) 1.0371(6) 0.5968(6)
C17 C 0.3103(6) 0.5434(6) 0.3225(6)
C18 C 0.3899(6) 0.4785(6) 0.3692(6)
C19 C 0.4850(6) 0.5127(7) 0.3522(6)
H19 H 0.5019 0.5737 0.3073
C20 C 0.5549(6) 0.4572(7) 0.4011(6)
H20 H 0.6192 0.4802 0.3885
C21 C 0.3649(6) 0.3852(6) 0.4328(6)
H21 H 0.3026 0.3598 0.4411
C22 C 0.4350(6) 0.3302(6) 0.4837(6)
H22 H 0.4187 0.2686 0.5278
C23 C 0.5295(6) 0.3668(6) 0.4691(6)
C24 C 0.6011(6) 0.3118(6) 0.5307(6)
C25 C 0.5341(6) 1.0925(6) -0.1900(6)
C26 C 0.4587(6) 1.0247(7) -0.1192(5)
C27 C 0.3977(6) 1.0564(7) -0.0440(6)
H23 H 0.3993 1.1224 -0.0404
C28 C 0.3340(6) 0.9895(7) 0.0260(6)
H24 H 0.2942 1.0103 0.0774
C29 C 0.4535(8) 0.9284(8) -0.1264(7)
H25 H 0.4940 0.9079 -0.1777
C30 C 0.3880(8) 0.8611(8) -0.0573(7)
H26 H 0.3837 0.7964 -0.0630
C31 C 0.3295(6) 0.8917(7) 0.0199(6)
C32 C 0.2631(6) 0.8166(7) 0.0972(6)
C33 C 0.0736(6) 0.5834(6) 0.1207(6)
C34 C 0.0370(7) 0.5403(7) 0.0582(6)
C35 C 0.0862(8) 0.4534(8) 0.0328(8)
H27 H 0.1432 0.4223 0.0548
C36 C -0.0499(8) 0.5867(8) 0.0255(8)
H28 H -0.0831 0.6443 0.0429
C37 C 0.0058(6) 0.4645(6) 0.4056(5)
H29 H 0.0649 0.4254 0.4160
C38 C -0.0998(6) 0.5845(7) 0.3516(7)
H30 H -0.1258 0.6451 0.3165
C39 C -0.1561(7) 0.5114(7) 0.4166(7)
H31 H -0.2265 0.5124 0.4347
N4 N 0.0032(5) 0.5556(5) 0.3451(5)
N5 N -0.0886(5) 0.4358(5) 0.4501(5)
H32 H -0.1037 0.3797 0.4923
O3 O 0.0093(4) 0.7844(4) 0.2914(4)
O4 O 0.1130(4) 0.7290(4) 0.3888(4)
O5 O -0.2593(4) 1.1052(5) 0.5611(4)
O6 O 0.3296(4) 0.6322(4) 0.2725(4)
O7 O 0.2267(4) 0.5067(4) 0.3345(4)
O8 O 0.6885(4) 0.3375(4) 0.5166(4)
O9 O 0.5635(4) 0.2397(4) 0.6028(4)
O10 O 0.5368(4) 1.1823(4) -0.1898(4)
O11 O 0.5987(4) 1.0552(5) -0.2512(4)
O12 O 0.2282(4) 0.8376(5) 0.1749(4)
O13 O 0.2449(6) 0.7368(6) 0.0834(5)
O14 O 0.1476(5) 0.5351(5) 0.1554(4)
O15 O 0.0326(4) 0.6644(5) 0.1398(4)
O16 O -0.1782(4) 1.0326(5) 0.6741(4)
Bi1 Bi 0.14235(2) 0.65517(2) 0.241778(19)
Bi2 Bi 0.30676(2) 0.80978(2) 0.324470(19)
C9A C -0.0345(6) 1.2177(6) 0.6349(5)
C10A C 0.0279(6) 1.1566(6) 0.5720(5)
C11A C 0.1077(6) 1.0887(7) 0.6006(6)
H15A H 0.1233 1.0848 0.6572
C12A C 0.1622(7) 1.0283(8) 0.5455(7)
H16A H 0.2139 0.9828 0.5655
C13A C 0.0086(6) 1.1636(6) 0.4846(6)
H17A H -0.0427 1.2095 0.4640
C14A C 0.0642(6) 1.1037(6) 0.4294(6)
H18A H 0.0507 1.1092 0.3715
C15A C 0.1414(6) 1.0341(6) 0.4598(6)
C16A C 0.1958(6) 0.9629(6) 0.4032(6)
C17A C 0.6897(6) 0.4566(6) 0.6775(6)
C18A C 0.6101(6) 0.5215(6) 0.6308(6)
C19A C 0.5150(6) 0.4873(7) 0.6478(6)
H19A H 0.4981 0.4263 0.6927
C20A C 0.4451(6) 0.5428(7) 0.5989(6)
H20A H 0.3808 0.5198 0.6115
C21A C 0.6351(6) 0.6148(6) 0.5672(6)
H21A H 0.6974 0.6402 0.5589
C22A C 0.5650(6) 0.6698(6) 0.5163(6)
H22A H 0.5813 0.7314 0.4722
C23A C 0.4705(6) 0.6332(6) 0.5309(6)
C24A C 0.3989(6) 0.6882(6) 0.4693(6)
C25A C 0.4659(6) 0.9075(6) 0.1900(6)
C26A C 0.5413(6) 0.9753(7) 0.1192(5)
C27A C 0.6023(6) 0.9436(7) 0.0440(6)
H23A H 0.6007 0.8776 0.0404
C28A C 0.6660(6) 1.0105(7) -0.0260(6)
H24A H 0.7058 0.9897 -0.0774
C29A C 0.5465(8) 1.0716(8) 0.1264(7)
H25A H 0.5060 1.0921 0.1777
C30A C 0.6120(8) 1.1389(8) 0.0573(7)
H26A H 0.6163 1.2036 0.0630
C31A C 0.6705(6) 1.1083(7) -0.0199(6)
C32A C 0.7369(6) 1.1834(7) -0.0972(6)
C33A C -0.0736(6) 0.4166(6) -0.1207(6)
C34A C -0.0370(7) 0.4597(7) -0.0582(6)
C35A C -0.0862(8) 0.5466(8) -0.0328(8)
H27A H -0.1432 0.5777 -0.0548
C36A C 0.0499(8) 0.4133(8) -0.0255(8)
H28A H 0.0831 0.3557 -0.0429
C37A C -0.0058(6) 0.5355(6) -0.4056(5)
H29A H -0.0649 0.5746 -0.4160
C38A C 0.0998(6) 0.4155(7) -0.3516(7)
H30A H 0.1258 0.3549 -0.3165
C39A C 0.1561(7) 0.4886(7) -0.4166(7)
H31A H 0.2265 0.4876 -0.4347
N4A N -0.0032(5) 0.4444(5) -0.3451(5)
N5A N 0.0886(5) 0.5642(5) -0.4501(5)
H32A H 0.1037 0.6203 -0.4923
O3A O -0.0093(4) 1.2156(4) 0.7086(4)
O3A_2 O -0.0093(4) 0.2156(4) -0.2914(4)
O4A O -0.1130(4) 1.2710(4) 0.6112(4)
O4A_2 O -0.1130(4) 0.2710(4) -0.3888(4)
O5A O 0.2593(4) 0.8948(5) 0.4389(4)
O6A O 0.6704(4) 0.3678(4) 0.7275(4)
O6A_2 O -0.3296(4) 0.3678(4) -0.2725(4)
O6A_3 O -0.3296(4) 1.3678(4) 0.7275(4)
O7A O 0.7733(4) 0.4933(4) 0.6655(4)
O7A_2 O -0.2267(4) 0.4933(4) -0.3345(4)
O8A O 0.3115(4) 0.6625(4) 0.4834(4)
O8_2 O -0.3115(4) 1.3375(4) 0.5166(4)
O9A O 0.4365(4) 0.7603(4) 0.3972(4)
O9_2 O -0.4365(4) 1.2397(4) 0.6028(4)
O10A O 0.4632(4) 0.8177(4) 0.1898(4)
O10_2 O -0.4632(4) 1.1823(4) 0.8102(4)
O11A O 0.4013(4) 0.9448(5) 0.2512(4)
O11_2 O -0.4013(4) 1.0552(5) 0.7488(4)
O12A O 0.7718(4) 1.1624(5) -0.1749(4)
O12A_2 O -0.2282(4) 0.1624(5) -0.1749(4)
O12A_3 O -0.2282(4) 1.1624(5) 0.8251(4)
O13A O 0.7551(6) 1.2632(6) -0.0834(5)
O13A_2 O -0.2449(6) 0.2632(6) -0.0834(5)
O14A O -0.1476(5) 0.4649(5) -0.1554(4)
O15A O -0.0326(4) 0.3356(5) -0.1398(4)
O16A O 0.1782(4) 0.9674(5) 0.3259(4)
Bi1A Bi -0.14235(2) 0.34483(2) -0.241778(19)
Bi1A_2 Bi -0.14235(2) 1.34483(2) 0.758222(19)
Bi1A_3 Bi 0.85765(2) 0.34483(2) 0.758222(19)
Bi1A_4 Bi 0.85765(2) 1.34483(2) -0.241778(19)
Bi2A Bi -0.30676(2) 1.19022(2) 0.675530(19)
Bi2A_2 Bi 0.69324(2) 0.19022(2) 0.675530(19)
Bi2A_3 Bi 0.69324(2) 1.19022(2) -0.324470(19)
C1 C 0.0024(14) 0.9769(14) 0.9631(12)
C2 C 0.0382(18) 0.8711(18) 0.8569(17)
N1 N 0.063(2) 0.871(2) 0.947(2)
C1A C -0.0024(14) 1.0231(14) 1.0369(12)
C2A C -0.0382(18) 1.1289(18) 1.1431(17)
N1A N -0.063(2) 1.129(2) 1.053(2)
C40? C -0.0331(18) 0.9614(18) 0.8344(16)
N6? N -0.0465(18) 1.0091(18) 0.8829(17)
loop_
_geom_bond_atom_site_label_1
_geom_bond_atom_site_label_2
_geom_bond_site_symmetry_1
_geom_bond_site_symmetry_2
C1 N1 1_555 1_555
C2 N1 1_555 1_555
C3 H1 1_555 1_555
H2 C3 1_555 1_555
H3 C3 1_555 1_555
C4 H4 1_555 1_555
H5 C4 1_555 1_555
H6 C4 1_555 1_555
C5 H7 1_555 1_555
N2 C3 1_555 1_555
O1 C5 1_555 1_555
C6 H8 1_555 1_555
H9 C6 1_555 1_555
H10 C6 1_555 1_555
C7 H11 1_555 1_555
H12 C7 1_555 1_555
H13 C7 1_555 1_555
C8 H14 1_555 1_555
N3 C6 1_555 1_555
O2 C8 1_555 1_555
C9 C10 1_555 1_555
C10 C11 1_555 1_555
C11 H15 1_555 1_555
C12 C11 1_555 1_555
H16 C12 1_555 1_555
C13 C10 1_555 1_555
H17 C13 1_555 1_555
C14 C13 1_555 1_555
H18 C14 1_555 1_555
C15 C12 1_555 1_555
C16 C15 1_555 1_555
C17 C18 1_555 1_555
C18 C19 1_555 1_555
C19 H19 1_555 1_555
C20 C19 1_555 1_555
H20 C20 1_555 1_555
C21 C18 1_555 1_555
H21 C21 1_555 1_555
C22 C21 1_555 1_555
H22 C22 1_555 1_555
C23 C20 1_555 1_555
C24 C23 1_555 1_555
C25 C26 1_555 1_555
C26 C27 1_555 1_555
C27 H23 1_555 1_555
C28 C27 1_555 1_555
H24 C28 1_555 1_555
C29 C26 1_555 1_555
H25 C29 1_555 1_555
C30 C29 1_555 1_555
H26 C30 1_555 1_555
C31 C28 1_555 1_555
C32 C31 1_555 1_555
C33 C34 1_555 1_555
C34 C35 1_555 1_555
C35 H27 1_555 1_555
C36 C34 1_555 1_555
H28 C36 1_555 1_555
C37 H29 1_555 1_555
C38 H30 1_555 1_555
C39 C38 1_555 1_555
H31 C39 1_555 1_555
N4 C37 1_555 1_555
N5 C37 1_555 1_555
H32 N5 1_555 1_555
O3 C9 1_555 1_555
O4 C9 1_555 1_555
O5 C16 1_555 1_555
O6 C17 1_555 1_555
O7 C17 1_555 1_555
O8 C24 1_555 1_555
O9 C24 1_555 1_555
O10 C25 1_555 1_555
O11 C25 1_555 1_555
O12 C32 1_555 1_555
O13 C32 1_555 1_555
O14 C33 1_555 1_555
O15 C33 1_555 1_555
O16 C16 1_555 1_555
Bi1 N4 1_555 1_555
Bi2 O4 1_555 1_555
C1A C1 1_555 1_555
C2A N1A 1_555 1_555
N1A C1A 1_555 1_555
C9A C10A 1_555 1_555
C10A C11A 1_555 1_555
C11A H15A 1_555 1_555
C12A C11A 1_555 1_555
H16A C12A 1_555 1_555
C13A C10A 1_555 1_555
H17A C13A 1_555 1_555
C14A C13A 1_555 1_555
H18A C14A 1_555 1_555
C15A C12A 1_555 1_555
C16A C15A 1_555 1_555
C17A C18A 1_555 1_555
C18A C19A 1_555 1_555
C19A H19A 1_555 1_555
C20A C19A 1_555 1_555
H20A C20A 1_555 1_555
C21A C18A 1_555 1_555
H21A C21A 1_555 1_555
C22A C21A 1_555 1_555
H22A C22A 1_555 1_555
C23A C20A 1_555 1_555
C24A C23A 1_555 1_555
C25A C26A 1_555 1_555
C26A C27A 1_555 1_555
C27A H23A 1_555 1_555
C28A C27A 1_555 1_555
H24A C28A 1_555 1_555
C29A C26A 1_555 1_555
H25A C29A 1_555 1_555
C30A C29A 1_555 1_555
H26A C30A 1_555 1_555
C31A C28A 1_555 1_555
C32A C31A 1_555 1_555
C33A C34A 1_555 1_555
C34A C35A 1_555 1_555
C35A C36 1_555 1_555
H27A C35A 1_555 1_555
C36A C35 1_555 1_555
H28A C36A 1_555 1_555
C37A H29A 1_555 1_555
C38A H30A 1_555 1_555
C39A C38A 1_555 1_555
H31A C39A 1_555 1_555
N4A C37A 1_555 1_555
N5A C37A 1_555 1_555
H32A N5A 1_555 1_555
O3A C9A 1_555 1_555
O3A_2 Bi1A 1_555 1_555
O4A C9A 1_555 1_555
O4A_2 Bi1A 1_555 1_555
O5A Bi2 1_555 1_555
O6A C17A 1_555 1_555
O6A_2 Bi1A 1_555 1_555
O6A_3 Bi1A_2 1_555 1_555
O7A C17A 1_555 1_555
O7A_2 Bi1A 1_555 1_555
O8A Bi2 1_555 1_555
O8_2 Bi2A 1_555 1_555
O9A Bi2 1_555 1_555
O9_2 Bi2A 1_555 1_555
O10A Bi2 1_555 1_555
O10_2 Bi2A 1_555 1_555
O11A Bi2 1_555 1_555
O11_2 Bi2A 1_555 1_555
O12A C32A 1_555 1_555
O12A_2 Bi1A 1_555 1_555
O12A_3 Bi1A_2 1_555 1_555
O13A C32A 1_555 1_555
O13A_2 Bi1A 1_555 1_555
O14A C33A 1_555 1_555
O15A C33A 1_555 1_555
O16A Bi2 1_555 1_555
Bi1A N4A 1_555 1_555
Bi1A_2 O3A 1_555 1_555
Bi1A_3 O6A 1_555 1_555
Bi1A_4 O12A 1_555 1_555
Bi2A O5 1_555 1_555
Bi2A_2 O8 1_555 1_555
Bi2A_3 O10 1_555 1_555
C4 N2 1_555 1_555
C5 N2 1_555 1_555
C7 N3 1_555 1_555
C8 N3 1_555 1_555
C14 C15 1_555 1_555
C22 C23 1_555 1_555
C30 C31 1_555 1_555
C38 N4 1_555 1_555
C39 N5 1_555 1_555
O3 Bi1 1_555 1_555
O4 Bi1 1_555 1_555
O6 Bi1 1_555 1_555
O6 Bi2 1_555 1_555
O7 Bi1 1_555 1_555
O9 Bi2A_2 1_555 1_555
O11 Bi2A_3 1_555 1_555
O12 Bi1 1_555 1_555
O12 Bi2 1_555 1_555
O13 Bi1 1_555 1_555
O14 Bi1 1_555 1_555
O15 Bi1 1_555 1_555
O16 Bi2A 1_555 1_555
C14A C15A 1_555 1_555
C16A O5A 1_555 1_555
C16A O16A 1_555 1_555
C22A C23A 1_555 1_555
C24A O8A 1_555 1_555
C24A O9A 1_555 1_555
C25A O10A 1_555 1_555
C25A O11A 1_555 1_555
C30A C31A 1_555 1_555
C34A C36A 1_555 1_555
C38A N4A 1_555 1_555
C39A N5A 1_555 1_555
O4A Bi1A_2 1_555 1_555
O4A Bi2A 1_555 1_555
O6A Bi2A_2 1_555 1_555
O6A_3 Bi2A 1_555 1_555
O7A Bi1A_3 1_555 1_555
O12A Bi2A_3 1_555 1_555
O12A_3 Bi2A 1_555 1_555
O13A Bi1A_4 1_555 1_555
O14A Bi1A 1_555 1_555
O15A Bi1A 1_555 1_555

#END
