
#######################################################################
#
#                 Cambridge Crystallographic Data Centre
#                                CCDC 
#
#######################################################################
#
# If this CIF has been generated from an entry in the Cambridge 
# Structural Database, then it will include bibliographic, chemical, 
# crystal, experimental, refinement or atomic coordinate data resulting 
# from the CCDC's data processing and validation procedures.
#
#######################################################################

data_XAFBUD
_symmetry_cell_setting           monoclinic
_symmetry_space_group_name_H-M   'P 21/n'
_symmetry_Int_Tables_number      14
_space_group_name_Hall           '-P 2yn'
loop_
_symmetry_equiv_pos_site_id
_symmetry_equiv_pos_as_xyz
1 x,y,z
2 1/2-x,1/2+y,1/2-z
3 -x,-y,-z
4 1/2+x,1/2-y,1/2+z
_cell_length_a                   11.8205(17)
_cell_length_b                   6.9347(10)
_cell_length_c                   18.765(3)
_cell_angle_alpha                90
_cell_angle_beta                 90.962(3)
_cell_angle_gamma                90
_cell_volume                     1537.98
loop_
_atom_site_label
_atom_site_type_symbol
_atom_site_fract_x
_atom_site_fract_y
_atom_site_fract_z
Cd1 Cd 0.24303(2) 0.14351(3) 0.150836(13)
S1 S 0.31115(7) 0.12737(11) 0.33607(5)
N1 N 0.0604(3) 0.1168(4) 0.19316(17)
C1 C -0.0187(3) 0.0135(5) 0.15825(19)
H1 H -0.0039 -0.0266 0.1120
C2 C -0.1201(3) -0.0360(5) 0.1873(2)
H2 H -0.1737 -0.1044 0.1606
C3 C -0.1419(3) 0.0175(6) 0.2571(2)
H3 H -0.2102 -0.0147 0.2781
C4 C -0.0599(3) 0.1196(5) 0.2949(2)
C5 C 0.0379(3) 0.1707(5) 0.26055(19)
H4 H 0.0909 0.2459 0.2850
C6 C -0.0821(3) 0.1709(5) 0.3711(2)
O1 O -0.1793(2) 0.1924(4) 0.39178(14)
N2 N 0.0104(3) 0.1865(5) 0.41428(16)
H5 H 0.0749 0.1615 0.3958
C7 C 0.0107(3) 0.2404(5) 0.48710(18)
C8 C -0.0867(3) 0.2819(5) 0.52487(19)
H6 H -0.1566 0.2739 0.5016
N3 N -0.0829(3) 0.3334(4) 0.59418(16)
C9 C 0.0183(3) 0.3431(5) 0.6276(2)
H7 H 0.0212 0.3773 0.6755
C10 C 0.1175(3) 0.3044(5) 0.5935(2)
H8 H 0.1863 0.3136 0.6180
C11 C 0.1146(3) 0.2516(5) 0.52254(19)
H9 H 0.1811 0.2240 0.4989
O2 O 0.3342(3) 0.1311(4) 0.25963(15)
O3 O 0.2318(2) -0.0296(4) 0.35272(16)
O4 O 0.2556(2) 0.3063(4) 0.35940(14)
O5 O 0.4176(2) 0.1009(4) 0.37569(15)
O6 O 0.1577(3) 0.1268(4) 0.03419(17)
H10 H 0.0879(18) 0.167(7) 0.028(3)
H11 H 0.143(5) 0.013(4) 0.016(3)
Cd1C Cd -0.25697(2) 0.35649(3) 0.650836(13)
Cd1A Cd 0.25697(2) -0.35649(3) 0.349164(13)
Cd1A_2 Cd 0.25697(2) 0.64351(3) 0.349164(13)
N3C N 0.4171(3) 0.1666(4) 0.09418(16)
O3A O 0.2682(2) 0.4704(4) 0.14728(16)
O4A O 0.2444(2) -0.1937(4) 0.14060(14)
O7 O 0.4304(3) 0.2626(4) 0.50765(16)
H12 H 0.416(5) 0.181(6) 0.4728(19)
H13 H 0.404(4) 0.182(5) 0.5393(19)
O8 O 0.6309(3) 0.9451(5) 0.37458(19)
H14 H 0.568(2) 1.011(6) 0.370(3)
H15 H 0.683(3) 1.030(6) 0.384(3)
loop_
_geom_bond_atom_site_label_1
_geom_bond_atom_site_label_2
_geom_bond_site_symmetry_1
_geom_bond_site_symmetry_2
Cd1 N1 1_555 1_555
S1 O2 1_555 1_555
N1 C1 1_555 1_555
C1 H1 1_555 1_555
C2 C1 1_555 1_555
H2 C2 1_555 1_555
C3 C2 1_555 1_555
H3 C3 1_555 1_555
C4 C3 1_555 1_555
C5 N1 1_555 1_555
H4 C5 1_555 1_555
C6 C4 1_555 1_555
O1 C6 1_555 1_555
N2 C6 1_555 1_555
H5 N2 1_555 1_555
C7 N2 1_555 1_555
C8 C7 1_555 1_555
H6 C8 1_555 1_555
N3 C8 1_555 1_555
C9 N3 1_555 1_555
H7 C9 1_555 1_555
C10 C9 1_555 1_555
H8 C10 1_555 1_555
C11 C7 1_555 1_555
H9 C11 1_555 1_555
O2 Cd1 1_555 1_555
O3 S1 1_555 1_555
O4 S1 1_555 1_555
O5 S1 1_555 1_555
O6 Cd1 1_555 1_555
O7 H12 1_555 1_555
O8 H14 1_555 1_555
H10 O6 1_555 1_555
H11 O6 1_555 1_555
H13 O7 1_555 1_555
H15 O8 1_555 1_555
Cd1C N3 1_555 1_555
Cd1A O3 1_555 1_555
Cd1A_2 O4 1_555 1_555
N3C Cd1 1_555 1_555
O3A Cd1 1_555 1_555
O4A Cd1 1_555 1_555
C4 C5 1_555 1_555
C10 C11 1_555 1_555

#END
