
#######################################################################
#
#                 Cambridge Crystallographic Data Centre
#                                CCDC 
#
#######################################################################
#
# If this CIF has been generated from an entry in the Cambridge 
# Structural Database, then it will include bibliographic, chemical, 
# crystal, experimental, refinement or atomic coordinate data resulting 
# from the CCDC's data processing and validation procedures.
#
#######################################################################

data_XAFBOX
_symmetry_cell_setting           rhombohedral
_symmetry_space_group_name_H-M   'R -3 c'
_symmetry_Int_Tables_number      167
_space_group_name_Hall           '-R 3 2"c'
loop_
_symmetry_equiv_pos_site_id
_symmetry_equiv_pos_as_xyz
1 x,y,z
2 -y,x-y,z
3 -x+y,-x,z
4 y,x,1/2-z
5 -x,-x+y,1/2-z
6 x-y,-y,1/2-z
7 2/3+x,1/3+y,1/3+z
8 2/3-y,1/3+x-y,1/3+z
9 2/3-x+y,1/3-x,1/3+z
10 2/3+y,1/3+x,5/6-z
11 2/3-x,1/3-x+y,5/6-z
12 2/3+x-y,1/3-y,5/6-z
13 1/3+x,2/3+y,2/3+z
14 1/3-y,2/3+x-y,2/3+z
15 1/3-x+y,2/3-x,2/3+z
16 1/3+y,2/3+x,1/6-z
17 1/3-x,2/3-x+y,1/6-z
18 1/3+x-y,2/3-y,1/6-z
19 -x,-y,-z
20 y,-x+y,-z
21 x-y,x,-z
22 -y,-x,1/2+z
23 x,x-y,1/2+z
24 -x+y,y,1/2+z
25 1/3-x,2/3-y,2/3-z
26 1/3+y,2/3-x+y,2/3-z
27 1/3+x-y,2/3+x,2/3-z
28 1/3-y,2/3-x,1/6+z
29 1/3+x,2/3+x-y,1/6+z
30 1/3-x+y,2/3+y,1/6+z
31 2/3-x,1/3-y,1/3-z
32 2/3+y,1/3-x+y,1/3-z
33 2/3+x-y,1/3+x,1/3-z
34 2/3-y,1/3-x,5/6+z
35 2/3+x,1/3+x-y,5/6+z
36 2/3-x+y,1/3+y,5/6+z
_cell_length_a                   17.6932(7)
_cell_length_b                   17.6932(7)
_cell_length_c                   29.7350(9)
_cell_angle_alpha                90
_cell_angle_beta                 90
_cell_angle_gamma                120
_cell_volume                     8061.42
loop_
_atom_site_label
_atom_site_type_symbol
_atom_site_fract_x
_atom_site_fract_y
_atom_site_fract_z
C9 C 0.109(2) -0.182(2) 0.0449(8)
C10 C 0.142(2) -0.209(2) 0.0415(9)
N1 N 0.0988(19) -0.1691(19) 0.0849(10)
C9O C 0.151(2) -0.224(2) 0.1218(8)
C10O C 0.124(2) -0.191(2) 0.1252(9)
N1O N 0.1642(19) -0.2345(19) 0.0818(10)
C1 C 0.1032(15) 0.1608(10) -0.0636(5)
C2 C 0.1548(13) 0.2503(9) -0.0830(5)
C3 C 0.2113(13) 0.2677(9) -0.1180(5)
H1 H 0.2197 0.2224 -0.1295
C4 C 0.1447(12) 0.3189(9) -0.0658(4)
H2 H 0.1068 0.3084 -0.0410
C5 C 0.1888(12) 0.4006(8) -0.0844(4)
H3 H 0.1814 0.4462 -0.0723
C6 C 0.2570(14) 0.3509(10) -0.1372(5)
H4 H 0.2963 0.3620 -0.1614
C7 C 0.2442(12) 0.4173(8) -0.1206(4)
C8 C 0.2840(14) 0.5043(10) -0.1439(4)
Bi1 Bi 0.0000 0.0000 0.0000
Bi2 Bi 0.0000 0.0000 -0.14986(3)
O1 O 0.0598(11) 0.1514(7) -0.0287(4)
O2 O 0.1034(9) 0.0974(7) -0.0827(4)
O3 O 0.2563(6) 0.5557(8) -0.1325(3)
O4 O 0.3382(7) 0.5227(10) -0.1740(3)
C1A C -0.1608(10) -0.0576(18) -0.0636(5)
C1B C 0.0576(18) -0.1032(15) -0.0636(5)
C1R C -0.1032(15) -0.1608(10) 0.0636(5)
C1S C 0.1608(10) 0.0576(18) 0.0636(5)
C1T C -0.0576(18) 0.1032(15) 0.0636(5)
C2A C -0.2503(9) -0.0955(16) -0.0830(5)
C2B C 0.0955(16) -0.1548(13) -0.0830(5)
C2R C -0.1548(13) -0.2503(9) 0.0830(5)
C2S C 0.2503(9) 0.0955(16) 0.0830(5)
C2T C -0.0955(16) 0.1548(13) 0.0830(5)
C3A C -0.2677(9) -0.0564(16) -0.1180(5)
C3B C 0.0564(16) -0.2113(13) -0.1180(5)
C3R C -0.2113(13) -0.2677(9) 0.1180(5)
C3S C 0.2677(9) 0.0564(16) 0.1180(5)
C3T C -0.0564(16) 0.2113(13) 0.1180(5)
H1A H -0.2224 -0.0027 -0.1295
H1B H 0.0027 -0.2197 -0.1295
H1R H -0.2197 -0.2224 0.1295
H1S H 0.2224 0.0027 0.1295
H1T H -0.0027 0.2197 0.1295
C4A C -0.3189(9) -0.1742(15) -0.0658(4)
C4B C 0.1742(15) -0.1447(12) -0.0658(4)
C4R C -0.1447(12) -0.3189(9) 0.0658(4)
C4S C 0.3189(9) 0.1742(15) 0.0658(4)
C4T C -0.1742(15) 0.1447(12) 0.0658(4)
H2A H -0.3084 -0.2016 -0.0410
H2B H 0.2016 -0.1068 -0.0410
H2R H -0.1068 -0.3084 0.0410
H2S H 0.3084 0.2016 0.0410
H2T H -0.2016 0.1068 0.0410
C5A C -0.4006(8) -0.2118(14) -0.0844(4)
C5B C 0.2118(14) -0.1888(12) -0.0844(4)
C5R C -0.1888(12) -0.4006(8) 0.0844(4)
C5S C 0.4006(8) 0.2118(14) 0.0844(4)
C5T C -0.2118(14) 0.1888(12) 0.0844(4)
H3A H -0.4462 -0.2648 -0.0723
H3B H 0.2648 -0.1814 -0.0723
H3R H -0.1814 -0.4462 0.0723
H3S H 0.4462 0.2648 0.0723
H3T H -0.2648 0.1814 0.0723
C6A C -0.3509(10) -0.0939(17) -0.1372(5)
C6B C 0.0939(17) -0.2570(14) -0.1372(5)
C6R C -0.2570(14) -0.3509(10) 0.1372(5)
C6S C 0.3509(10) 0.0939(17) 0.1372(5)
C6T C -0.0939(17) 0.2570(14) 0.1372(5)
H4A H -0.3620 -0.0657 -0.1614
H4B H 0.0657 -0.2963 -0.1614
H4R H -0.2963 -0.3620 0.1614
H4S H 0.3620 0.0657 0.1614
H4T H -0.0657 0.2963 0.1614
C7A C -0.4173(8) -0.1731(14) -0.1206(4)
C7B C 0.1731(14) -0.2442(12) -0.1206(4)
C7R C -0.2442(12) -0.4173(8) 0.1206(4)
C7S C 0.4173(8) 0.1731(14) 0.1206(4)
C7T C -0.1731(14) 0.2442(12) 0.1206(4)
C8A C -0.5043(10) -0.2203(17) -0.1439(4)
C8B C 0.2203(17) -0.2840(14) -0.1439(4)
C8R C -0.2840(14) -0.5043(10) 0.1439(4)
C8S C 0.5043(10) 0.2203(17) 0.1439(4)
C8T C -0.2203(17) 0.2840(14) 0.1439(4)
Bi2R Bi 0.0000 0.0000 0.14986(3)
Bi2X Bi 0.3333 0.6667 -0.18347(3)
Bi2X_2 Bi -0.6667 -0.3333 -0.18347(3)
Bi2X_3 Bi 0.3333 -0.3333 -0.18347(3)
Bi2F Bi -0.3333 -0.6667 0.18347(3)
Bi2F_2 Bi 0.6667 0.3333 0.18347(3)
Bi2F_3 Bi -0.3333 0.3333 0.18347(3)
O1A O -0.1514(7) -0.0916(13) -0.0287(4)
O1B O 0.0916(13) -0.0598(11) -0.0287(4)
O1R O -0.0598(11) -0.1514(7) 0.0287(4)
O1S O 0.1514(7) 0.0916(13) 0.0287(4)
O1T O -0.0916(13) 0.0598(11) 0.0287(4)
O2A O -0.0974(7) 0.0060(11) -0.0827(4)
O2B O -0.0060(11) -0.1034(9) -0.0827(4)
O2R O -0.1034(9) -0.0974(7) 0.0827(4)
O2S O 0.0974(7) -0.0060(11) 0.0827(4)
O2T O 0.0060(11) 0.1034(9) 0.0827(4)
O3A O -0.5557(8) -0.2994(10) -0.1325(3)
O3B O 0.2994(10) -0.2563(6) -0.1325(3)
O3R O -0.2563(6) -0.5557(8) 0.1325(3)
O3S O 0.5557(8) 0.2994(10) 0.1325(3)
O3T O -0.2994(10) 0.2563(6) 0.1325(3)
O3X O 0.0770(6) 0.1110(8) -0.2008(3)
O3Y O -0.1110(8) -0.0339(10) -0.2008(3)
O3Z O 0.0339(10) -0.0770(6) -0.2008(3)
O3F O -0.0770(6) -0.1110(8) 0.2008(3)
O3G O 0.1110(8) 0.0339(10) 0.2008(3)
O3H O -0.0339(10) 0.0770(6) 0.2008(3)
O4A O -0.5227(10) -0.1845(12) -0.1740(3)
O4B O 0.1845(12) -0.3382(7) -0.1740(3)
O4R O -0.3382(7) -0.5227(10) 0.1740(3)
O4S O 0.5227(10) 0.1845(12) 0.1740(3)
O4T O -0.1845(12) 0.3382(7) 0.1740(3)
O4X O -0.0049(7) 0.1440(10) -0.1593(3)
O4Y O -0.1440(10) -0.1488(12) -0.1593(3)
O4Z O 0.1488(12) 0.0049(7) -0.1593(3)
O4F O 0.0049(7) -0.1440(10) 0.1593(3)
O4G O 0.1440(10) 0.1488(12) 0.1593(3)
O4H O -0.1488(12) -0.0049(7) 0.1593(3)
loop_
_geom_bond_atom_site_label_1
_geom_bond_atom_site_label_2
_geom_bond_site_symmetry_1
_geom_bond_site_symmetry_2
C1 C2 1_555 1_555
C2 C3 1_555 1_555
C3 H1 1_555 1_555
C4 C2 1_555 1_555
H2 C4 1_555 1_555
C5 C4 1_555 1_555
H3 C5 1_555 1_555
C6 C3 1_555 1_555
H4 C6 1_555 1_555
C7 C5 1_555 1_555
C8 C7 1_555 1_555
C9 C10 1_555 1_555
C10 N1O 1_555 1_555
Bi1 O1 1_555 1_555
Bi2 O2 1_555 1_555
O1 C1 1_555 1_555
O2 C1 1_555 1_555
O3 C8 1_555 1_555
O4 C8 1_555 1_555
N1 C9 1_555 1_555
C1A C2A 1_555 1_555
C1B C2B 1_555 1_555
C1R C2R 1_555 1_555
C1S C2S 1_555 1_555
C1T C2T 1_555 1_555
C2A C3A 1_555 1_555
C2B C3B 1_555 1_555
C2R C3R 1_555 1_555
C2S C3S 1_555 1_555
C2T C3T 1_555 1_555
C3A H1A 1_555 1_555
C3B H1B 1_555 1_555
C3R H1R 1_555 1_555
C3S H1S 1_555 1_555
C3T H1T 1_555 1_555
C4A C2A 1_555 1_555
C4B C2B 1_555 1_555
C4R C2R 1_555 1_555
C4S C2S 1_555 1_555
C4T C2T 1_555 1_555
H2A C4A 1_555 1_555
H2B C4B 1_555 1_555
H2R C4R 1_555 1_555
H2S C4S 1_555 1_555
H2T C4T 1_555 1_555
C5A C4A 1_555 1_555
C5B C4B 1_555 1_555
C5R C4R 1_555 1_555
C5S C4S 1_555 1_555
C5T C4T 1_555 1_555
H3A C5A 1_555 1_555
H3B C5B 1_555 1_555
H3R C5R 1_555 1_555
H3S C5S 1_555 1_555
H3T C5T 1_555 1_555
C6A C3A 1_555 1_555
C6B C3B 1_555 1_555
C6R C3R 1_555 1_555
C6S C3S 1_555 1_555
C6T C3T 1_555 1_555
H4A C6A 1_555 1_555
H4B C6B 1_555 1_555
H4R C6R 1_555 1_555
H4S C6S 1_555 1_555
H4T C6T 1_555 1_555
C7A C5A 1_555 1_555
C7B C5B 1_555 1_555
C7R C5R 1_555 1_555
C7S C5S 1_555 1_555
C7T C5T 1_555 1_555
C8A C7A 1_555 1_555
C8B C7B 1_555 1_555
C8R C7R 1_555 1_555
C8S C7S 1_555 1_555
C8T C7T 1_555 1_555
C9O C10O 1_555 1_555
C10O N1 1_555 1_555
Bi2R O2R 1_555 1_555
Bi2X O3 1_555 1_555
Bi2X_2 O3A 1_555 1_555
Bi2X_3 O3B 1_555 1_555
Bi2F O3R 1_555 1_555
Bi2F_2 O3S 1_555 1_555
Bi2F_3 O3T 1_555 1_555
O1A Bi1 1_555 1_555
O1B Bi1 1_555 1_555
O1R Bi1 1_555 1_555
O1S Bi1 1_555 1_555
O1T Bi1 1_555 1_555
O2A Bi1 1_555 1_555
O2B Bi1 1_555 1_555
O2R Bi1 1_555 1_555
O2S Bi1 1_555 1_555
O2T Bi1 1_555 1_555
O3A C8A 1_555 1_555
O3B C8B 1_555 1_555
O3R C8R 1_555 1_555
O3S C8S 1_555 1_555
O3T C8T 1_555 1_555
O3X Bi2 1_555 1_555
O3Y Bi2 1_555 1_555
O3Z Bi2 1_555 1_555
O3F Bi2R 1_555 1_555
O3G Bi2R 1_555 1_555
O3H Bi2R 1_555 1_555
O4A C8A 1_555 1_555
O4B C8B 1_555 1_555
O4R C8R 1_555 1_555
O4S C8S 1_555 1_555
O4T C8T 1_555 1_555
O4X Bi2 1_555 1_555
O4Y Bi2 1_555 1_555
O4Z Bi2 1_555 1_555
O4F Bi2R 1_555 1_555
O4G Bi2R 1_555 1_555
O4H Bi2R 1_555 1_555
N1O C9O 1_555 1_555
C6 C7 1_555 1_555
Bi1 O2 1_555 1_555
Bi2 O2A 1_555 1_555
Bi2 O2B 1_555 1_555
O4 Bi2X 1_555 1_555
C1A O1A 1_555 1_555
C1A O2A 1_555 1_555
C1B O1B 1_555 1_555
C1B O2B 1_555 1_555
C1R O1R 1_555 1_555
C1R O2R 1_555 1_555
C1S O1S 1_555 1_555
C1S O2S 1_555 1_555
C1T O1T 1_555 1_555
C1T O2T 1_555 1_555
C6A C7A 1_555 1_555
C6B C7B 1_555 1_555
C6R C7R 1_555 1_555
C6S C7S 1_555 1_555
C6T C7T 1_555 1_555
Bi2R O2S 1_555 1_555
Bi2R O2T 1_555 1_555
Bi2X_2 O4A 1_555 1_555
Bi2X_3 O4B 1_555 1_555
Bi2F O4R 1_555 1_555
Bi2F_2 O4S 1_555 1_555
Bi2F_3 O4T 1_555 1_555

#END
