
#######################################################################
#
#                 Cambridge Crystallographic Data Centre
#                                CCDC 
#
#######################################################################
#
# If this CIF has been generated from an entry in the Cambridge 
# Structural Database, then it will include bibliographic, chemical, 
# crystal, experimental, refinement or atomic coordinate data resulting 
# from the CCDC's data processing and validation procedures.
#
#######################################################################

data_XAFBAJ
_symmetry_cell_setting           triclinic
_symmetry_space_group_name_H-M   'P -1'
_symmetry_Int_Tables_number      2
_space_group_name_Hall           '-P 1'
loop_
_symmetry_equiv_pos_site_id
_symmetry_equiv_pos_as_xyz
1 x,y,z
2 -x,-y,-z
_cell_length_a                   9.1381(1)
_cell_length_b                   10.0961(2)
_cell_length_c                   18.7143(3)
_cell_angle_alpha                99.5467(11)
_cell_angle_beta                 101.9611(10)
_cell_angle_gamma                105.9549(11)
_cell_volume                     1577.79
loop_
_atom_site_label
_atom_site_type_symbol
_atom_site_fract_x
_atom_site_fract_y
_atom_site_fract_z
C1 C 0.5763(5) -0.0409(4) 0.8055(2)
C2 C 0.4417(5) -0.1676(4) 0.8036(2)
C3 C 0.3433(5) -0.1583(4) 0.8507(2)
H1 H 0.3602 -0.0726 0.8837
C4 C 0.4154(5) -0.2962(4) 0.7547(2)
H2 H 0.4796 -0.3028 0.7226
C5 C 0.2945(5) -0.4147(4) 0.7535(2)
H3 H 0.2792 -0.5010 0.7214
C6 C 0.2204(5) -0.2769(4) 0.8484(3)
H4 H 0.1540 -0.2701 0.8794
C7 C 0.1958(4) -0.4055(4) 0.8001(2)
C8 C 0.0691(5) -0.5386(4) 0.7999(2)
C9 C 0.6888(5) 0.1308(4) 0.6530(2)
C10 C 0.5903(4) 0.0646(4) 0.5737(2)
C11 C 0.4472(5) 0.0876(4) 0.5470(2)
H5 H 0.4120 0.1460 0.5784
C12 C 0.6425(5) -0.0235(4) 0.5263(2)
H6 H 0.7377 -0.0391 0.5440
C13 C 0.6764(5) 0.3862(4) 0.9091(2)
C14 C 0.5849(5) 0.4471(4) 0.9555(2)
C15 C 0.4345(5) 0.4498(4) 0.9228(2)
H7 H 0.3911 0.4164 0.8711
C16 C 0.6502(5) 0.4981(4) 1.0329(2)
H8 H 0.7509 0.4969 1.0547
C25 C 1.0456(5) 0.2191(5) 0.9833(3)
H29 H 0.9983 0.2826 1.0023
C26 C 1.2459(7) 0.1054(6) 1.0054(3)
H30 H 1.3217 0.0997 1.0478
H31 H 1.1746 0.0121 0.9803
H32 H 1.2996 0.1453 0.9712
C27 C 1.2057(6) 0.2632(5) 1.1113(2)
H33 H 1.2882 0.2324 1.1368
H34 H 1.2436 0.3642 1.1178
H35 H 1.1167 0.2380 1.1318
N4 N 1.1579(4) 0.1943(4) 1.0309(2)
O1 O 0.5855(3) 0.0786(3) 0.84558(17)
O2 O 0.6721(4) -0.0547(3) 0.76834(18)
O3 O -0.0505(3) -0.5249(3) 0.82029(19)
O4 O 0.0906(4) -0.6544(3) 0.78136(19)
O5 O 0.6293(3) 0.1966(3) 0.69810(15)
O6 O 0.8224(3) 0.1206(3) 0.67283(16)
O7 O 0.6284(3) 0.3587(3) 0.83730(15)
O8 O 0.7961(3) 0.3593(3) 0.94084(15)
O11 O 0.9992(4) 0.1636(4) 0.91501(18)
Bi1 Bi 0.796670(16) 0.233065(15) 0.815970(8)
C1_2 C 1.5763(5) 0.9591(4) 0.8055(2)
C2_2 C 1.4417(5) 0.8324(4) 0.8036(2)
C3_2 C 1.3433(5) 0.8417(4) 0.8507(2)
H1_2 H 1.3602 0.9274 0.8837
C4_2 C 1.4154(5) 0.7038(4) 0.7547(2)
H2_2 H 1.4796 0.6972 0.7226
C5_2 C 1.2945(5) 0.5853(4) 0.7535(2)
H3_2 H 1.2792 0.4990 0.7214
C6_2 C 1.2204(5) 0.7231(4) 0.8484(3)
H4_2 H 1.1540 0.7299 0.8794
C7_2 C 1.1958(4) 0.5945(4) 0.8001(2)
C8_2 C 1.0691(5) 0.4614(4) 0.7999(2)
C9A C 0.3112(5) -0.1308(4) 0.3470(2)
C10A C 0.4097(4) -0.0646(4) 0.4263(2)
C11A C 0.5528(5) -0.0876(4) 0.4530(2)
H5A H 0.5880 -0.1460 0.4216
C12A C 0.3575(5) 0.0235(4) 0.4737(2)
H6A H 0.2623 0.0391 0.4560
C13A C 0.3236(5) 0.6138(4) 1.0909(2)
C14A C 0.4151(5) 0.5529(4) 1.0445(2)
C15A C 0.5655(5) 0.5502(4) 1.0772(2)
H7A H 0.6089 0.5836 1.1289
C16A C 0.3498(5) 0.5019(4) 0.9671(2)
H8A H 0.2491 0.5031 0.9453
C25_2 C 2.0456(5) 1.2191(5) 0.9833(3)
H29_2 H 1.9983 1.2826 1.0023
C26_2 C 2.2459(7) 1.1054(6) 1.0054(3)
H30_2 H 2.3217 1.0997 1.0478
H31_2 H 2.1746 1.0121 0.9803
H32_2 H 2.2996 1.1453 0.9712
C27_2 C 2.2057(6) 1.2632(5) 1.1113(2)
H33_2 H 2.2882 1.2324 1.1368
H34_2 H 2.2436 1.3642 1.1178
H35_2 H 2.1167 1.2380 1.1318
N4_2 N 2.1579(4) 1.1943(4) 1.0309(2)
O1_2 O 1.5855(3) 1.0786(3) 0.84558(17)
O2_2 O 1.6721(4) 0.9453(3) 0.76834(18)
O3_2 O 0.9495(3) 0.4751(3) 0.82029(19)
O3_3 O 1.9495(3) 1.4751(3) 0.82029(19)
O4_2 O 1.0906(4) 0.3456(3) 0.78136(19)
O4_3 O 2.0906(4) 1.3456(3) 0.78136(19)
O5A O 0.3707(3) -0.1966(3) 0.30190(15)
O5_2 O 1.6293(3) 1.1966(3) 0.69810(15)
O6A O 0.1776(3) -0.1206(3) 0.32717(16)
O6_2 O 1.8224(3) 1.1206(3) 0.67283(16)
O7A O 0.3716(3) 0.6413(3) 1.16270(15)
O7_2 O 1.6284(3) 1.3587(3) 0.83730(15)
O8A O 0.2039(3) 0.6407(3) 1.05916(15)
O8_2 O 1.7961(3) 1.3593(3) 0.94084(15)
O11_2 O 1.9992(4) 1.1636(4) 0.91501(18)
Bi1_2 Bi 1.796670(16) 1.233065(15) 0.815970(8)
Bi1_3 Bi -0.203330(16) -0.766935(15) 0.815970(8)
Bi1A Bi 0.203330(16) -0.233065(15) 0.184030(8)
Bi1A_2 Bi 0.203330(16) 0.766935(15) 1.184030(8)
C17 C 0.2857(5) 0.1402(6) 0.7197(3)
H9 H 0.3096 0.2008 0.6863
H10 H 0.3201 0.0595 0.7078
H11 H 0.3393 0.1916 0.7706
C18 C 0.0648(6) -0.0025(6) 0.7599(3)
H12 H -0.0478 -0.0299 0.7516
H13 H 0.1149 0.0465 0.8116
H14 H 0.0955 -0.0856 0.7487
N1 N 0.1135(4) 0.0919(4) 0.7107(2)
H36 H 0.0819 0.1683 0.7208
H37 H 0.0641 0.0458 0.6625
C19 C -0.0068(6) -0.1907(6) 0.5161(3)
H15 H -0.0870 -0.1991 0.4742
C20 C 0.0629(10) -0.3652(6) 0.4365(4)
H16 H 0.1381 -0.4156 0.4420
H17 H 0.0797 -0.3097 0.4002
H18 H -0.0421 -0.4318 0.4198
C21 C 0.2133(7) -0.2603(7) 0.5713(4)
H19 H 0.2664 -0.3261 0.5568
H20 H 0.1736 -0.2813 0.6132
H21 H 0.2862 -0.1655 0.5854
N2 N 0.0826(5) -0.2723(5) 0.5085(3)
O9 O 0.0067(5) -0.1054(4) 0.5735(2)
C22 C 0.5048(7) -0.5473(5) 0.6375(3)
H22 H 0.5314 -0.5988 0.6721
C23 C 0.5905(7) -0.3458(6) 0.5837(3)
H23 H 0.6872 -0.2726 0.5885
H24 H 0.5148 -0.3035 0.5971
H25 H 0.5497 -0.4009 0.5327
C24 C 0.7760(6) -0.3910(6) 0.6855(3)
H26 H 0.8423 -0.3105 0.6737
H27 H 0.8208 -0.4665 0.6813
H28 H 0.7680 -0.3650 0.7359
N3 N 0.6203(5) -0.4375(4) 0.6337(2)
O10 O 0.3672(4) -0.5878(4) 0.6003(2)
loop_
_geom_bond_atom_site_label_1
_geom_bond_atom_site_label_2
_geom_bond_site_symmetry_1
_geom_bond_site_symmetry_2
C1 C2 1_555 1_555
C2 C3 1_555 1_555
C3 H1 1_555 1_555
C4 C2 1_555 1_555
H2 C4 1_555 1_555
C5 C4 1_555 1_555
H3 C5 1_555 1_555
C6 C3 1_555 1_555
H4 C6 1_555 1_555
C7 C5 1_555 1_555
C8 C7 1_555 1_555
C9 C10 1_555 1_555
C10 C11 1_555 1_555
C11 H5 1_555 1_555
C12 C10 1_555 1_555
H6 C12 1_555 1_555
C13 C14 1_555 1_555
C14 C15 1_555 1_555
C15 H7 1_555 1_555
C16 C14 1_555 1_555
H8 C16 1_555 1_555
C17 H9 1_555 1_555
H10 C17 1_555 1_555
H11 C17 1_555 1_555
C18 H12 1_555 1_555
H13 C18 1_555 1_555
H14 C18 1_555 1_555
C19 H15 1_555 1_555
C20 H16 1_555 1_555
H17 C20 1_555 1_555
H18 C20 1_555 1_555
C21 H19 1_555 1_555
H20 C21 1_555 1_555
H21 C21 1_555 1_555
C22 H22 1_555 1_555
C23 H23 1_555 1_555
H24 C23 1_555 1_555
H25 C23 1_555 1_555
C24 H26 1_555 1_555
H27 C24 1_555 1_555
H28 C24 1_555 1_555
C25 H29 1_555 1_555
C26 H30 1_555 1_555
H31 C26 1_555 1_555
H32 C26 1_555 1_555
C27 H33 1_555 1_555
H34 C27 1_555 1_555
H35 C27 1_555 1_555
N1 C17 1_555 1_555
H36 N1 1_555 1_555
H37 N1 1_555 1_555
N2 C19 1_555 1_555
N3 C22 1_555 1_555
N4 C25 1_555 1_555
O1 C1 1_555 1_555
O2 C1 1_555 1_555
O3 C8 1_555 1_555
O4 C8 1_555 1_555
O5 C9 1_555 1_555
O6 C9 1_555 1_555
O7 C13 1_555 1_555
O8 C13 1_555 1_555
O9 C19 1_555 1_555
O10 C22 1_555 1_555
O11 C25 1_555 1_555
Bi1 O1 1_555 1_555
C1_2 C2_2 1_555 1_555
C2_2 C3_2 1_555 1_555
C3_2 H1_2 1_555 1_555
C4_2 C2_2 1_555 1_555
H2_2 C4_2 1_555 1_555
C5_2 C4_2 1_555 1_555
H3_2 C5_2 1_555 1_555
C6_2 C3_2 1_555 1_555
H4_2 C6_2 1_555 1_555
C7_2 C5_2 1_555 1_555
C8_2 C7_2 1_555 1_555
C9A C10A 1_555 1_555
C10A C11A 1_555 1_555
C11A C12 1_555 1_555
H5A C11A 1_555 1_555
C12A C11 1_555 1_555
H6A C12A 1_555 1_555
C13A C14A 1_555 1_555
C14A C15A 1_555 1_555
C15A C16 1_555 1_555
H7A C15A 1_555 1_555
C16A C15 1_555 1_555
H8A C16A 1_555 1_555
C25_2 H29_2 1_555 1_555
C26_2 H30_2 1_555 1_555
H31_2 C26_2 1_555 1_555
H32_2 C26_2 1_555 1_555
C27_2 H33_2 1_555 1_555
H34_2 C27_2 1_555 1_555
H35_2 C27_2 1_555 1_555
N4_2 C25_2 1_555 1_555
O1_2 C1_2 1_555 1_555
O2_2 C1_2 1_555 1_555
O3_2 Bi1 1_555 1_555
O3_3 Bi1_2 1_555 1_555
O4_2 Bi1 1_555 1_555
O4_3 Bi1_2 1_555 1_555
O5A C9A 1_555 1_555
O5_2 Bi1_2 1_555 1_555
O6A C9A 1_555 1_555
O6_2 Bi1_2 1_555 1_555
O7A C13A 1_555 1_555
O7_2 Bi1_2 1_555 1_555
O8A C13A 1_555 1_555
O8_2 Bi1_2 1_555 1_555
O11_2 C25_2 1_555 1_555
Bi1_2 O1_2 1_555 1_555
Bi1_3 O3 1_555 1_555
Bi1A O5A 1_555 1_555
Bi1A_2 O7A 1_555 1_555
C6 C7 1_555 1_555
C18 N1 1_555 1_555
C20 N2 1_555 1_555
C21 N2 1_555 1_555
C23 N3 1_555 1_555
C24 N3 1_555 1_555
C26 N4 1_555 1_555
C27 N4 1_555 1_555
O2 Bi1 1_555 1_555
O4 Bi1_3 1_555 1_555
O5 Bi1 1_555 1_555
O6 Bi1 1_555 1_555
O7 Bi1 1_555 1_555
O8 Bi1 1_555 1_555
O11 Bi1 1_555 1_555
C6_2 C7_2 1_555 1_555
C8_2 O3_2 1_555 1_555
C8_2 O4_2 1_555 1_555
C10A C12A 1_555 1_555
C14A C16A 1_555 1_555
C26_2 N4_2 1_555 1_555
C27_2 N4_2 1_555 1_555
O2_2 Bi1_2 1_555 1_555
O6A Bi1A 1_555 1_555
O8A Bi1A_2 1_555 1_555
O11_2 Bi1_2 1_555 1_555

#END
