
#######################################################################
#
#                 Cambridge Crystallographic Data Centre
#                                CCDC 
#
#######################################################################
#
# If this CIF has been generated from an entry in the Cambridge 
# Structural Database, then it will include bibliographic, chemical, 
# crystal, experimental, refinement or atomic coordinate data resulting 
# from the CCDC's data processing and validation procedures.
#
#######################################################################

data_XAFCOW
_symmetry_cell_setting           monoclinic
_symmetry_space_group_name_H-M   'C 2/c'
_symmetry_Int_Tables_number      15
_space_group_name_Hall           '-C 2yn'
loop_
_symmetry_equiv_pos_site_id
_symmetry_equiv_pos_as_xyz
1 x,y,z
2 1/2+x,1/2+y,z
3 -x,y,1/2-z
4 1/2-x,1/2+y,1/2-z
5 -x,-y,-z
6 1/2-x,1/2-y,-z
7 x,-y,1/2+z
8 1/2+x,1/2-y,1/2+z
_cell_length_a                   13.124(3)
_cell_length_b                   10.028(2)
_cell_length_c                   8.2366(10)
_cell_angle_alpha                90
_cell_angle_beta                 90.765(15)
_cell_angle_gamma                90
_cell_volume                     1083.9
loop_
_atom_site_label
_atom_site_type_symbol
_atom_site_fract_x
_atom_site_fract_y
_atom_site_fract_z
Mn1 Mn 0.0000 0.14887(6) 0.2500
O1 O 0.10731(12) 0.1675(2) 0.4524(2)
O2 O 0.09020(12) 0.0060(2) 0.6351(2)
O3 O 0.08630(13) 0.3010(2) 1.1160(2)
N1 N 0.1258(2) 0.1881(3) 0.8835(2)
H1 H 0.1136(19) 0.1214(31) 0.9202(31)
C1 C 0.1150(2) 0.2968(3) 0.9721(3)
C2 C 0.1450(2) 0.4166(3) 0.8714(3)
H2 H 0.0942(2) 0.4866(3) 0.8783(3)
H3 H 0.2105(2) 0.4516(3) 0.9068(3)
C3 C 0.1505(2) 0.3610(3) 0.6987(3)
H4 H 0.2070(2) 0.4003(3) 0.6409(3)
H5 H 0.0878(2) 0.3791(3) 0.6389(3)
C4 C 0.1661(2) 0.2112(3) 0.7203(3)
H6 H 0.2394(2) 0.1925(3) 0.7222(3)
C5 C 0.1147(2) 0.1214(3) 0.5930(3)
O1B O -0.10731(12) 0.1675(2) 0.0476(2)
O2B O -0.09020(12) 0.0060(2) -0.1351(2)
O3B O -0.08630(13) 0.3010(2) -0.6160(2)
N1B N -0.1258(2) 0.1881(3) -0.3835(2)
H1B H -0.1136(19) 0.1214(31) -0.4202(31)
C1B C -0.1150(2) 0.2968(3) -0.4721(3)
C2B C -0.1450(2) 0.4166(3) -0.3714(3)
H2B H -0.0942(2) 0.4866(3) -0.3783(3)
H3B H -0.2105(2) 0.4516(3) -0.4068(3)
C3B C -0.1505(2) 0.3610(3) -0.1987(3)
H4B H -0.2070(2) 0.4003(3) -0.1409(3)
H5B H -0.0878(2) 0.3791(3) -0.1389(3)
C4B C -0.1661(2) 0.2112(3) -0.2203(3)
H6B H -0.2394(2) 0.1925(3) -0.2222(3)
C5B C -0.1147(2) 0.1214(3) -0.0930(3)
O2F O 0.09020(12) -0.0060(2) 0.1351(2)
O2D O -0.09020(12) -0.0060(2) 0.3649(2)
O3_2 O 0.08630(13) 0.3010(2) 0.1160(2)
O3B_2 O -0.08630(13) 0.3010(2) 0.3840(2)
Mn1F Mn 0.0000 -0.14887(6) -0.2500
Mn1D Mn 0.0000 -0.14887(6) 0.7500
Mn1_2 Mn 0.0000 0.14887(6) -0.7500
Mn1B Mn 0.0000 0.14887(6) 1.2500
loop_
_geom_bond_atom_site_label_1
_geom_bond_atom_site_label_2
_geom_bond_site_symmetry_1
_geom_bond_site_symmetry_2
Mn1 O1 1_555 1_555
O1 C5 1_555 1_555
O2 C5 1_555 1_555
O3 C1 1_555 1_555
N1 H1 1_555 1_555
C1 N1 1_555 1_555
C2 C1 1_555 1_555
H2 C2 1_555 1_555
H3 C2 1_555 1_555
C3 C2 1_555 1_555
H4 C3 1_555 1_555
H5 C3 1_555 1_555
C4 N1 1_555 1_555
H6 C4 1_555 1_555
C5 C4 1_555 1_555
O1B Mn1 1_555 1_555
O2B C5B 1_555 1_555
O3B C1B 1_555 1_555
N1B H1B 1_555 1_555
C1B N1B 1_555 1_555
C2B C1B 1_555 1_555
H2B C2B 1_555 1_555
H3B C2B 1_555 1_555
C3B C2B 1_555 1_555
H4B C3B 1_555 1_555
H5B C3B 1_555 1_555
C4B N1B 1_555 1_555
H6B C4B 1_555 1_555
C5B O1B 1_555 1_555
O2F Mn1 1_555 1_555
O2D Mn1 1_555 1_555
O3_2 Mn1 1_555 1_555
O3B_2 Mn1 1_555 1_555
Mn1F O2B 1_555 1_555
Mn1D O2 1_555 1_555
Mn1_2 O3B 1_555 1_555
Mn1B O3 1_555 1_555
C3 C4 1_555 1_555
C3B C4B 1_555 1_555
C4B C5B 1_555 1_555

#END
