
#######################################################################
#
#                 Cambridge Crystallographic Data Centre
#                                CCDC 
#
#######################################################################
#
# If this CIF has been generated from an entry in the Cambridge 
# Structural Database, then it will include bibliographic, chemical, 
# crystal, experimental, refinement or atomic coordinate data resulting 
# from the CCDC's data processing and validation procedures.
#
#######################################################################

data_XAFCUE
_symmetry_cell_setting           monoclinic
_symmetry_space_group_name_H-M   'C 2/c'
_symmetry_Int_Tables_number      15
_space_group_name_Hall           '-C 2yn'
loop_
_symmetry_equiv_pos_site_id
_symmetry_equiv_pos_as_xyz
1 x,y,z
2 -x,y,1/2-z
3 1/2+x,1/2+y,z
4 1/2-x,1/2+y,1/2-z
5 -x,-y,-z
6 x,-y,1/2+z
7 1/2-x,1/2-y,-z
8 1/2+x,1/2-y,1/2+z
_cell_length_a                   21.153(2)
_cell_length_b                   14.080(4)
_cell_length_c                   20.595(4)
_cell_angle_alpha                90
_cell_angle_beta                 98.143(5)
_cell_angle_gamma                90
_cell_volume                     6072.05
loop_
_atom_site_label
_atom_site_type_symbol
_atom_site_fract_x
_atom_site_fract_y
_atom_site_fract_z
Zn1 Zn 0.73901(3) 1.00036(4) 0.87411(3)
Zn2 Zn 0.69764(3) 1.21669(4) 0.85698(3)
O1 O 0.69537(18) 1.0309(3) 0.78288(19)
O2 O 0.67007(18) 1.1843(2) 0.76470(17)
O3 O 0.62707(18) 0.8315(3) 0.40158(19)
O4 O 0.67313(18) 0.9690(3) 0.43388(18)
O5 O 0.7743(2) 1.1525(3) 0.9042(3)
O6 O 0.8161(2) 1.2518(4) 0.8399(2)
O7 O 1.0710(2) 1.1293(4) 1.0188(3)
O8 O 1.18588(19) 1.0525(3) 1.0531(2)
O9 O 1.1696(2) 1.0313(3) 1.1541(2)
O10 O 0.56920(19) 1.0309(3) 0.48333(18)
N1 N 0.7060(2) 0.8595(3) 0.8653(2)
N2 N 0.6953(2) 0.3589(3) 0.8601(2)
C1 C 0.6730(2) 1.1002(4) 0.7463(3)
C2 C 0.6486(3) 1.0781(4) 0.6767(3)
C3 C 0.6302(3) 1.1523(4) 0.6328(3)
H1 H 0.6348 1.2149 0.6470
C4 C 0.6050(3) 1.1328(4) 0.5679(3)
H2 H 0.5929 1.1824 0.5390
C5 C 0.5981(3) 1.0406(4) 0.5465(3)
C6 C 0.6176(3) 0.9655(4) 0.5890(3)
H3 H 0.6143 0.9030 0.5745
C7 C 0.6416(3) 0.9864(4) 0.6530(3)
H4 H 0.6538 0.9364 0.6816
C8 C 0.5660(3) 0.9390(4) 0.4545(3)
H5 H 0.5309 0.9373 0.4187
H6 H 0.5573 0.8927 0.4869
C9 C 0.8218(3) 1.1957(4) 0.8902(4)
C10 C 0.8862(3) 1.1774(4) 0.9236(3)
C11 C 0.9411(4) 1.2078(5) 0.8971(4)
H7 H 0.9365 1.2382 0.8566
C12 C 1.0020(4) 1.1925(6) 0.9312(4)
H8 H 1.0378 1.2157 0.9148
C13 C 1.0088(3) 1.1433(5) 0.9886(3)
C14 C 0.9567(3) 1.1256(6) 1.0195(3)
H9 H 0.9622 1.1046 1.0627
C15 C 0.8961(3) 1.1392(6) 0.9860(3)
H10 H 0.8610 1.1222 1.0060
C16 C 1.0819(3) 1.0874(4) 1.0790(3)
H11 H 1.0541 1.0327 1.0796
H12 H 1.0716 1.1319 1.1119
C17 C 1.1504(3) 1.0563(4) 1.0959(3)
C18 C 0.7085(3) 0.8110(4) 0.8098(3)
H13 H 0.7152 0.8442 0.7724
C19 C 0.7017(3) 0.7127(4) 0.8061(3)
H14 H 0.7030 0.6811 0.7667
C20 C 0.6927(3) 0.6620(4) 0.8628(3)
C21 C 0.6891(3) 0.7123(4) 0.9188(3)
H15 H 0.6830 0.6807 0.9570
C22 C 0.6944(3) 0.8092(4) 0.9186(3)
H16 H 0.6898 0.8421 0.9568
C23 C 0.6934(3) 0.5563(4) 0.8621(3)
C24 C 0.6709(3) 0.5056(4) 0.8054(3)
H17 H 0.6552 0.5378 0.7671
C25 C 0.6718(3) 0.4077(4) 0.8061(3)
H18 H 0.6557 0.3746 0.7683
C26 C 0.7186(3) 0.4081(4) 0.9140(3)
H19 H 0.7353 0.3749 0.9515
C27 C 0.7189(3) 0.5043(4) 0.9159(3)
H20 H 0.7365 0.5354 0.9541
C28 C 0.6282(3) 0.9114(4) 0.4282(3)
Zn1E Zn 0.73901(3) 0.99964(4) 1.37411(3)
Zn1E_2 Zn 0.73901(3) 0.99964(4) 0.37411(3)
Zn1D Zn 1.26099(3) 0.99964(4) 1.12589(3)
Zn1_2 Zn 0.73901(3) 2.00036(4) 0.87411(3)
Zn2E Zn 0.69764(3) 0.78331(4) 1.35698(3)
Zn2E_2 Zn 0.69764(3) 0.78331(4) 0.35698(3)
Zn2_2 Zn 0.69764(3) 0.21669(4) 0.85698(3)
Zn2D Zn 1.30236(3) 0.78331(4) 1.14302(3)
O1E O 0.69537(18) 0.9691(3) 1.28288(19)
O2E O 0.67007(18) 0.8157(2) 1.26470(17)
O3E O 0.62707(18) 1.1685(3) 0.90158(19)
O3_2 O 0.62707(18) 0.8315(3) 1.40158(19)
O4E O 0.67313(18) 1.0310(3) 0.93388(18)
O4_2 O 0.67313(18) 0.9690(3) 1.43388(18)
O5D O 1.2257(2) 0.8475(3) 1.0958(3)
O5E O 0.7743(2) 0.8475(3) 1.4042(3)
O6D O 1.1839(2) 0.7482(4) 1.1601(2)
O7D O 0.9290(2) 0.8707(4) 0.9812(3)
O8D O 0.81412(19) 0.9475(3) 0.9469(2)
O8A O 0.81412(19) 1.0525(3) 1.4469(2)
O9D O 0.8304(2) 0.9687(3) 0.8459(2)
O9A O 0.8304(2) 1.0313(3) 1.3459(2)
O10E O 0.56920(19) 0.9691(3) 0.98333(18)
N1_2 N 0.7060(2) 1.8595(3) 0.8653(2)
N1E N 0.7060(2) 1.1405(3) 1.3653(2)
N2_2 N 0.6953(2) 1.3589(3) 0.8601(2)
N2E N 0.6953(2) 0.6411(3) 1.3601(2)
C1E C 0.6730(2) 0.8998(4) 1.2463(3)
C2E C 0.6486(3) 0.9219(4) 1.1767(3)
C3E C 0.6302(3) 0.8477(4) 1.1328(3)
H1E H 0.6348 0.7851 1.1470
C4E C 0.6050(3) 0.8672(4) 1.0679(3)
H2E H 0.5929 0.8176 1.0390
C5E C 0.5981(3) 0.9594(4) 1.0465(3)
C6E C 0.6176(3) 1.0345(4) 1.0890(3)
H3E H 0.6143 1.0970 1.0745
C7E C 0.6416(3) 1.0136(4) 1.1530(3)
H4E H 0.6538 1.0636 1.1816
C8E C 0.5660(3) 1.0610(4) 0.9545(3)
H5E H 0.5309 1.0627 0.9187
H6E H 0.5573 1.1073 0.9869
C9D C 1.1782(3) 0.8043(4) 1.1098(4)
C10D C 1.1138(3) 0.8226(4) 1.0764(3)
C11D C 1.0589(4) 0.7922(5) 1.1029(4)
H7D H 1.0635 0.7618 1.1434
C12D C 0.9980(4) 0.8075(6) 1.0688(4)
H8D H 0.9622 0.7843 1.0852
C13D C 0.9912(3) 0.8567(5) 1.0114(3)
C14D C 1.0433(3) 0.8744(6) 0.9805(3)
H9D H 1.0378 0.8954 0.9373
C15D C 1.1039(3) 0.8608(6) 1.0140(3)
H10D H 1.1390 0.8778 0.9940
C16D C 0.9181(3) 0.9126(4) 0.9210(3)
H11D H 0.9459 0.9673 0.9204
H12D H 0.9284 0.8681 0.8881
C17D C 0.8496(3) 0.9437(4) 0.9041(3)
C18_2 C 0.7085(3) 1.8110(4) 0.8098(3)
H13_2 H 0.7152 1.8442 0.7724
C19_2 C 0.7017(3) 1.7127(4) 0.8061(3)
H14_2 H 0.7030 1.6811 0.7667
C20_2 C 0.6927(3) 1.6620(4) 0.8628(3)
C21_2 C 0.6891(3) 1.7123(4) 0.9188(3)
H15_2 H 0.6830 1.6807 0.9570
C22_2 C 0.6944(3) 1.8092(4) 0.9186(3)
H16_2 H 0.6898 1.8421 0.9568
C23_2 C 0.6934(3) 1.5563(4) 0.8621(3)
C24_2 C 0.6709(3) 1.5056(4) 0.8054(3)
H17_2 H 0.6552 1.5378 0.7671
C25_2 C 0.6718(3) 1.4077(4) 0.8061(3)
H18_2 H 0.6557 1.3746 0.7683
C26_2 C 0.7186(3) 1.4081(4) 0.9140(3)
H19_2 H 0.7353 1.3749 0.9515
C27_2 C 0.7189(3) 1.5043(4) 0.9159(3)
H20_2 H 0.7365 1.5354 0.9541
C28E C 0.6282(3) 1.0886(4) 0.9282(3)
O11 O 0.5000 0.8912(14) 0.2500
O12 O 0.4873(6) 0.7326(10) 0.1539(12)
O13 O 0.5000 1.104(2) 0.2500
O14? O 0.5048(9) 0.512(3) 0.7233(6)
loop_
_geom_bond_atom_site_label_1
_geom_bond_atom_site_label_2
_geom_bond_site_symmetry_1
_geom_bond_site_symmetry_2
Zn1 O1 1_555 1_555
Zn2 O2 1_555 1_555
O1 C1 1_555 1_555
O2 C1 1_555 1_555
O3 C28 1_555 1_555
O4 C28 1_555 1_555
O5 Zn1 1_555 1_555
O6 C9 1_555 1_555
O7 C13 1_555 1_555
O8 C17 1_555 1_555
O9 C17 1_555 1_555
O10 C5 1_555 1_555
N1 Zn1 1_555 1_555
N2 C25 1_555 1_555
C1 C2 1_555 1_555
C2 C3 1_555 1_555
C3 H1 1_555 1_555
C4 C3 1_555 1_555
H2 C4 1_555 1_555
C5 C4 1_555 1_555
C6 C5 1_555 1_555
H3 C6 1_555 1_555
C7 C2 1_555 1_555
H4 C7 1_555 1_555
C8 O10 1_555 1_555
H5 C8 1_555 1_555
H6 C8 1_555 1_555
C9 O5 1_555 1_555
C10 C9 1_555 1_555
C11 C10 1_555 1_555
H7 C11 1_555 1_555
C12 C11 1_555 1_555
H8 C12 1_555 1_555
C13 C12 1_555 1_555
C14 C13 1_555 1_555
H9 C14 1_555 1_555
C15 C10 1_555 1_555
H10 C15 1_555 1_555
C16 O7 1_555 1_555
H11 C16 1_555 1_555
H12 C16 1_555 1_555
C17 C16 1_555 1_555
C18 N1 1_555 1_555
H13 C18 1_555 1_555
C19 C18 1_555 1_555
H14 C19 1_555 1_555
C20 C19 1_555 1_555
C21 C20 1_555 1_555
H15 C21 1_555 1_555
C22 N1 1_555 1_555
H16 C22 1_555 1_555
C23 C20 1_555 1_555
C24 C23 1_555 1_555
H17 C24 1_555 1_555
C25 C24 1_555 1_555
H18 C25 1_555 1_555
C26 N2 1_555 1_555
H19 C26 1_555 1_555
C27 C23 1_555 1_555
H20 C27 1_555 1_555
C28 C8 1_555 1_555
Zn1E O1E 1_555 1_555
Zn1E_2 O4 1_555 1_555
Zn1D O8 1_555 1_555
Zn1_2 N1_2 1_555 1_555
Zn2E O2E 1_555 1_555
Zn2E_2 O3 1_555 1_555
Zn2_2 N2 1_555 1_555
Zn2D O5D 1_555 1_555
O1E C1E 1_555 1_555
O2E C1E 1_555 1_555
O3E Zn2 1_555 1_555
O3_2 Zn2E 1_555 1_555
O4E Zn1 1_555 1_555
O4_2 Zn1E 1_555 1_555
O5D Zn1D 1_555 1_555
O5E Zn1E 1_555 1_555
O6D C9D 1_555 1_555
O7D C13D 1_555 1_555
O8D Zn1 1_555 1_555
O8A Zn1E 1_555 1_555
O9D Zn1 1_555 1_555
O9A Zn1E 1_555 1_555
O10E C5E 1_555 1_555
N1_2 C18_2 1_555 1_555
N1E Zn1E 1_555 1_555
N2_2 Zn2 1_555 1_555
N2E Zn2E 1_555 1_555
C1E C2E 1_555 1_555
C2E C3E 1_555 1_555
C3E H1E 1_555 1_555
C4E C3E 1_555 1_555
H2E C4E 1_555 1_555
C5E C4E 1_555 1_555
C6E C5E 1_555 1_555
H3E C6E 1_555 1_555
C7E C2E 1_555 1_555
H4E C7E 1_555 1_555
C8E O10E 1_555 1_555
H5E C8E 1_555 1_555
H6E C8E 1_555 1_555
C9D O5D 1_555 1_555
C10D C9D 1_555 1_555
C11D C10D 1_555 1_555
H7D C11D 1_555 1_555
C12D C11D 1_555 1_555
H8D C12D 1_555 1_555
C13D C12D 1_555 1_555
C14D C13D 1_555 1_555
H9D C14D 1_555 1_555
C15D C10D 1_555 1_555
H10D C15D 1_555 1_555
C16D O7D 1_555 1_555
H11D C16D 1_555 1_555
H12D C16D 1_555 1_555
C17D O8D 1_555 1_555
C18_2 H13_2 1_555 1_555
C19_2 C18_2 1_555 1_555
H14_2 C19_2 1_555 1_555
C20_2 C19_2 1_555 1_555
C21_2 C20_2 1_555 1_555
H15_2 C21_2 1_555 1_555
C22_2 N1_2 1_555 1_555
H16_2 C22_2 1_555 1_555
C23_2 C20_2 1_555 1_555
C24_2 C23_2 1_555 1_555
H17_2 C24_2 1_555 1_555
C25_2 N2_2 1_555 1_555
H18_2 C25_2 1_555 1_555
C26_2 N2_2 1_555 1_555
H19_2 C26_2 1_555 1_555
C27_2 C23_2 1_555 1_555
H20_2 C27_2 1_555 1_555
C28E O3E 1_555 1_555
Zn2 O5 1_555 1_555
O9 Zn1D 1_555 1_555
C6 C7 1_555 1_555
C14 C15 1_555 1_555
C21 C22 1_555 1_555
C26 C27 1_555 1_555
Zn2E O5E 1_555 1_555
O4E C28E 1_555 1_555
O9D C17D 1_555 1_555
C6E C7E 1_555 1_555
C8E C28E 1_555 1_555
C14D C15D 1_555 1_555
C16D C17D 1_555 1_555
C21_2 C22_2 1_555 1_555
C24_2 C25_2 1_555 1_555
C26_2 C27_2 1_555 1_555

#END
