
#######################################################################
#
#                 Cambridge Crystallographic Data Centre
#                                CCDC 
#
#######################################################################
#
# If this CIF has been generated from an entry in the Cambridge 
# Structural Database, then it will include bibliographic, chemical, 
# crystal, experimental, refinement or atomic coordinate data resulting 
# from the CCDC's data processing and validation procedures.
#
#######################################################################

data_XAFDIT
_symmetry_cell_setting           monoclinic
_symmetry_space_group_name_H-M   'C 2/c'
_symmetry_Int_Tables_number      15
_space_group_name_Hall           '-C 2yn'
loop_
_symmetry_equiv_pos_site_id
_symmetry_equiv_pos_as_xyz
1 x,y,z
2 -x,y,1/2-z
3 1/2+x,1/2+y,z
4 1/2-x,1/2+y,1/2-z
5 -x,-y,-z
6 x,-y,1/2+z
7 1/2-x,1/2-y,-z
8 1/2+x,1/2-y,1/2+z
_cell_length_a                   21.181(4)
_cell_length_b                   14.080(4)
_cell_length_c                   20.584(3)
_cell_angle_alpha                90
_cell_angle_beta                 98.298(5)
_cell_angle_gamma                90
_cell_volume                     6074.47
loop_
_atom_site_label
_atom_site_type_symbol
_atom_site_fract_x
_atom_site_fract_y
_atom_site_fract_z
Zn1 Zn 0.76108(3) -0.00053(4) 0.12593(3)
Zn2 Zn 0.80256(3) -0.21687(4) 0.14293(3)
O1 O 0.80468(18) -0.0315(3) 0.21745(18)
O2 O 0.82985(17) -0.1852(2) 0.23524(17)
O3 O 0.87330(18) 0.1689(3) 0.59918(19)
O4 O 0.82668(17) 0.0304(2) 0.56608(18)
O5 O 0.7259(2) -0.1535(3) 0.0958(3)
O6 O 0.6840(2) -0.2522(3) 0.1590(2)
O7 O 0.4294(2) -0.1293(4) -0.0189(3)
O8 O 0.31423(18) -0.0531(3) -0.05323(19)
O9 O 0.3307(2) -0.0300(3) -0.1537(2)
O10 O 0.93098(18) -0.0304(3) 0.51776(18)
N1 N 0.7942(2) 0.1415(3) 0.1352(2)
N2 N 0.8053(2) 0.6410(3) 0.1403(2)
C1 C 0.8114(3) 0.2868(3) 0.0812(3)
H1 H 0.8184 0.3180 0.0430
C2 C 0.8516(2) -0.0787(3) 0.3242(3)
C3 C 0.3504(2) -0.0563(3) -0.0960(3)
C4 C 0.9025(2) -0.0407(4) 0.4543(3)
C5 C 0.9339(3) 0.0603(4) 0.5474(3)
H2 H 0.9435 0.1072 0.5157
H3 H 0.9685 0.0611 0.5839
C6 C 0.8291(3) 0.4938(3) 0.1954(3)
H4 H 0.8445 0.4618 0.2340
C7 C 0.7986(2) 0.2875(3) 0.1938(3)
H5 H 0.7979 0.3191 0.2334
C8 C 0.8269(2) -0.0996(3) 0.2539(3)
C9 C 0.8697(3) -0.1522(4) 0.3681(3)
H6 H 0.8650 -0.2147 0.3537
C10 C 0.6784(3) -0.1958(4) 0.1101(4)
C11 C 0.8587(3) 0.0141(4) 0.3474(3)
H7 H 0.8464 0.0639 0.3186
C12 C 0.8945(3) -0.1340(4) 0.4323(3)
H8 H 0.9059 -0.1841 0.4611
C13 C 0.7818(3) 0.4949(4) 0.0832(3)
H9 H 0.7655 0.4637 0.0446
C14 C 0.8833(3) 0.0345(4) 0.4111(3)
H10 H 0.8872 0.0971 0.4255
C15 C 0.6141(3) -0.1771(4) 0.0753(3)
C16 C 0.8281(3) 0.5920(4) 0.1937(3)
H11 H 0.8440 0.6251 0.2316
C17 C 0.4916(3) -0.1447(5) 0.0105(3)
C18 C 0.4178(3) -0.0877(4) -0.0794(3)
H12 H 0.4277 -0.1325 -0.1123
H13 H 0.4457 -0.0332 -0.0803
C19 C 0.7814(3) 0.5923(4) 0.0861(3)
H14 H 0.7638 0.6260 0.0491
C20 C 0.8069(2) 0.4436(3) 0.1385(2)
C21 C 0.8069(2) 0.3383(4) 0.1378(2)
C22 C 0.8720(2) 0.0878(4) 0.5723(2)
C23 C 0.7916(2) 0.1893(4) 0.1905(3)
H15 H 0.7848 0.1561 0.2280
C24 C 0.5425(3) -0.1270(6) -0.0207(4)
H16 H 0.5368 -0.1069 -0.0641
C25 C 0.8055(3) 0.1895(4) 0.0818(3)
H17 H 0.8094 0.1558 0.0437
C26 C 0.4980(4) -0.1915(6) 0.0685(4)
H18 H 0.4622 -0.2126 0.0855
C27 C 0.5590(4) -0.2076(5) 0.1024(4)
H19 H 0.5638 -0.2383 0.1428
C28 C 0.6036(3) -0.1398(6) 0.0140(3)
H20 H 0.6386 -0.1221 -0.0059
Zn1E Zn 0.76108(3) 0.00053(4) -0.37407(3)
Zn1E_2 Zn 0.76108(3) 0.00053(4) 0.62593(3)
Zn1D Zn 0.23892(3) 0.00053(4) -0.12593(3)
Zn1_2 Zn 0.76108(3) -1.00053(4) 0.12593(3)
Zn2E Zn 0.80256(3) 0.21687(4) -0.35707(3)
Zn2E_2 Zn 0.80256(3) 0.21687(4) 0.64293(3)
Zn2_2 Zn 0.80256(3) 0.78313(4) 0.14293(3)
Zn2D Zn 0.19744(3) 0.21687(4) -0.14293(3)
O1E O 0.80468(18) 0.0315(3) -0.28255(18)
O2E O 0.82985(17) 0.1852(2) -0.26476(17)
O3E O 0.87330(18) -0.1689(3) 0.09918(19)
O3_2 O 0.87330(18) 0.1689(3) -0.40082(19)
O4E O 0.82668(17) -0.0304(2) 0.06608(18)
O4_2 O 0.82668(17) 0.0304(2) -0.43392(18)
O5D O 0.2741(2) 0.1535(3) -0.0958(3)
O5E O 0.7259(2) 0.1535(3) -0.4042(3)
O6D O 0.3160(2) 0.2522(3) -0.1590(2)
O7D O 0.5706(2) 0.1293(4) 0.0189(3)
O8D O 0.68577(18) 0.0531(3) 0.05323(19)
O8A O 0.68577(18) -0.0531(3) -0.44677(19)
O9D O 0.6693(2) 0.0300(3) 0.1537(2)
O9A O 0.6693(2) -0.0300(3) -0.3463(2)
O10E O 0.93098(18) 0.0304(3) 0.01776(18)
N1_2 N 0.7942(2) -0.8585(3) 0.1352(2)
N1E N 0.7942(2) -0.1415(3) -0.3648(2)
N2_2 N 0.8053(2) -0.3590(3) 0.1403(2)
N2E N 0.8053(2) 0.3590(3) -0.3597(2)
C1_2 C 0.8114(3) -0.7132(3) 0.0812(3)
H1_2 H 0.8184 -0.6820 0.0430
C2E C 0.8516(2) 0.0787(3) -0.1758(3)
C3D C 0.6496(2) 0.0563(3) 0.0960(3)
C4E C 0.9025(2) 0.0407(4) -0.0457(3)
C5E C 0.9339(3) -0.0603(4) 0.0474(3)
H2E H 0.9435 -0.1072 0.0157
H3E H 0.9685 -0.0611 0.0839
C6_2 C 0.8291(3) -0.5062(3) 0.1954(3)
H4_2 H 0.8445 -0.5382 0.2340
C7_2 C 0.7986(2) -0.7125(3) 0.1938(3)
H5_2 H 0.7979 -0.6809 0.2334
C8E C 0.8269(2) 0.0996(3) -0.2461(3)
C9E C 0.8697(3) 0.1522(4) -0.1319(3)
H6E H 0.8650 0.2147 -0.1463
C10D C 0.3216(3) 0.1958(4) -0.1101(4)
C11E C 0.8587(3) -0.0141(4) -0.1526(3)
H7E H 0.8464 -0.0639 -0.1814
C12E C 0.8945(3) 0.1340(4) -0.0677(3)
H8E H 0.9059 0.1841 -0.0389
C13_2 C 0.7818(3) -0.5051(4) 0.0832(3)
H9_2 H 0.7655 -0.5363 0.0446
C14E C 0.8833(3) -0.0345(4) -0.0889(3)
H10E H 0.8872 -0.0971 -0.0745
C15D C 0.3859(3) 0.1771(4) -0.0753(3)
C16_2 C 0.8281(3) -0.4080(4) 0.1937(3)
H11_2 H 0.8440 -0.3749 0.2316
C17D C 0.5084(3) 0.1447(5) -0.0105(3)
C18D C 0.5822(3) 0.0877(4) 0.0794(3)
H12D H 0.5723 0.1325 0.1123
H13D H 0.5543 0.0332 0.0803
C19_2 C 0.7814(3) -0.4077(4) 0.0861(3)
H14_2 H 0.7638 -0.3740 0.0491
C20_2 C 0.8069(2) -0.5564(3) 0.1385(2)
C21_2 C 0.8069(2) -0.6617(4) 0.1378(2)
C22E C 0.8720(2) -0.0878(4) 0.0723(2)
C23_2 C 0.7916(2) -0.8107(4) 0.1905(3)
H15_2 H 0.7848 -0.8439 0.2280
C24D C 0.4575(3) 0.1270(6) 0.0207(4)
H16D H 0.4632 0.1069 0.0641
C25_2 C 0.8055(3) -0.8105(4) 0.0818(3)
H17_2 H 0.8094 -0.8442 0.0437
C26D C 0.5020(4) 0.1915(6) -0.0685(4)
H18D H 0.5378 0.2126 -0.0855
C27D C 0.4410(4) 0.2076(5) -0.1024(4)
H19D H 0.4362 0.2383 -0.1428
C28D C 0.3964(3) 0.1398(6) -0.0140(3)
H20D H 0.3614 0.1221 0.0059
O11 O 1.0528(16) -0.274(5) 0.1969(19)
C29 C 0.9839(10) -0.2617(15) 0.1706(10)
H21 H 0.9782 -0.2047 0.1449
H22 H 0.9596 -0.2575 0.2064
H23 H 0.9695 -0.3153 0.1436
H24 H 1.0537(17) -0.276(3) 0.2406(18)
O12 O 1.0000 -0.147(3) 0.2500
O13 O 0.4695(12) -0.356(5) 0.214(5)
O14? O 0.9982(9) 0.475(3) 0.2783(9)
loop_
_geom_bond_atom_site_label_1
_geom_bond_atom_site_label_2
_geom_bond_site_symmetry_1
_geom_bond_site_symmetry_2
Zn1 O1 1_555 1_555
Zn2 O2 1_555 1_555
O1 C8 1_555 1_555
O2 C8 1_555 1_555
O3 C22 1_555 1_555
O4 C22 1_555 1_555
O5 Zn1 1_555 1_555
O6 C10 1_555 1_555
O7 C17 1_555 1_555
O8 C3 1_555 1_555
O9 C3 1_555 1_555
O10 C4 1_555 1_555
N1 Zn1 1_555 1_555
N2 C16 1_555 1_555
C1 H1 1_555 1_555
C2 C8 1_555 1_555
C3 C18 1_555 1_555
C4 C12 1_555 1_555
C5 O10 1_555 1_555
H2 C5 1_555 1_555
H3 C5 1_555 1_555
C6 H4 1_555 1_555
C7 H5 1_555 1_555
C9 C2 1_555 1_555
H6 C9 1_555 1_555
C10 O5 1_555 1_555
C11 C2 1_555 1_555
H7 C11 1_555 1_555
C12 C9 1_555 1_555
H8 C12 1_555 1_555
C13 H9 1_555 1_555
C14 C4 1_555 1_555
H10 C14 1_555 1_555
C15 C10 1_555 1_555
C16 C6 1_555 1_555
H11 C16 1_555 1_555
C17 C24 1_555 1_555
C18 O7 1_555 1_555
H12 C18 1_555 1_555
H13 C18 1_555 1_555
C19 N2 1_555 1_555
H14 C19 1_555 1_555
C20 C6 1_555 1_555
C21 C1 1_555 1_555
C22 C5 1_555 1_555
C23 N1 1_555 1_555
H15 C23 1_555 1_555
C24 H16 1_555 1_555
C25 N1 1_555 1_555
H17 C25 1_555 1_555
C26 C17 1_555 1_555
H18 C26 1_555 1_555
C27 C15 1_555 1_555
H19 C27 1_555 1_555
C28 C15 1_555 1_555
H20 C28 1_555 1_555
O11 C29 1_555 1_555
C29 H21 1_555 1_555
H22 C29 1_555 1_555
H23 C29 1_555 1_555
H24 O11 1_555 1_555
Zn1E O1E 1_555 1_555
Zn1E_2 O4 1_555 1_555
Zn1D O8 1_555 1_555
Zn1_2 N1_2 1_555 1_555
Zn2E O2E 1_555 1_555
Zn2E_2 O3 1_555 1_555
Zn2_2 N2 1_555 1_555
Zn2D O5D 1_555 1_555
O1E C8E 1_555 1_555
O2E C8E 1_555 1_555
O3E Zn2 1_555 1_555
O3_2 Zn2E 1_555 1_555
O4E Zn1 1_555 1_555
O4_2 Zn1E 1_555 1_555
O5D Zn1D 1_555 1_555
O5E Zn1E 1_555 1_555
O6D C10D 1_555 1_555
O7D C17D 1_555 1_555
O8D Zn1 1_555 1_555
O8A Zn1E 1_555 1_555
O9D Zn1 1_555 1_555
O9A Zn1E 1_555 1_555
O10E C4E 1_555 1_555
N1_2 C23_2 1_555 1_555
N1E Zn1E 1_555 1_555
N2_2 Zn2 1_555 1_555
N2E Zn2E 1_555 1_555
C1_2 H1_2 1_555 1_555
C2E C8E 1_555 1_555
C3D O8D 1_555 1_555
C4E C12E 1_555 1_555
C5E O10E 1_555 1_555
H2E C5E 1_555 1_555
H3E C5E 1_555 1_555
C6_2 H4_2 1_555 1_555
C7_2 H5_2 1_555 1_555
C9E C2E 1_555 1_555
H6E C9E 1_555 1_555
C10D O5D 1_555 1_555
C11E C2E 1_555 1_555
H7E C11E 1_555 1_555
C12E C9E 1_555 1_555
H8E C12E 1_555 1_555
C13_2 H9_2 1_555 1_555
C14E C4E 1_555 1_555
H10E C14E 1_555 1_555
C15D C10D 1_555 1_555
C16_2 N2_2 1_555 1_555
H11_2 C16_2 1_555 1_555
C17D C24D 1_555 1_555
C18D O7D 1_555 1_555
H12D C18D 1_555 1_555
H13D C18D 1_555 1_555
C19_2 N2_2 1_555 1_555
H14_2 C19_2 1_555 1_555
C20_2 C6_2 1_555 1_555
C21_2 C1_2 1_555 1_555
C22E O3E 1_555 1_555
C23_2 C7_2 1_555 1_555
H15_2 C23_2 1_555 1_555
C24D H16D 1_555 1_555
C25_2 N1_2 1_555 1_555
H17_2 C25_2 1_555 1_555
C26D C17D 1_555 1_555
H18D C26D 1_555 1_555
C27D C15D 1_555 1_555
H19D C27D 1_555 1_555
C28D C15D 1_555 1_555
H20D C28D 1_555 1_555
Zn2 O5 1_555 1_555
O9 Zn1D 1_555 1_555
C1 C25 1_555 1_555
C7 C21 1_555 1_555
C7 C23 1_555 1_555
C11 C14 1_555 1_555
C13 C19 1_555 1_555
C13 C20 1_555 1_555
C20 C21 1_555 1_555
C24 C28 1_555 1_555
C26 C27 1_555 1_555
Zn2E O5E 1_555 1_555
O4E C22E 1_555 1_555
O9D C3D 1_555 1_555
C1_2 C25_2 1_555 1_555
C3D C18D 1_555 1_555
C5E C22E 1_555 1_555
C6_2 C16_2 1_555 1_555
C7_2 C21_2 1_555 1_555
C11E C14E 1_555 1_555
C13_2 C19_2 1_555 1_555
C13_2 C20_2 1_555 1_555
C20_2 C21_2 1_555 1_555
C24D C28D 1_555 1_555
C26D C27D 1_555 1_555

#END
