
#######################################################################
#
#                 Cambridge Crystallographic Data Centre
#                                CCDC 
#
#######################################################################
#
# If this CIF has been generated from an entry in the Cambridge 
# Structural Database, then it will include bibliographic, chemical, 
# crystal, experimental, refinement or atomic coordinate data resulting 
# from the CCDC's data processing and validation procedures.
#
#######################################################################

data_XAFDAL
_symmetry_cell_setting           monoclinic
_symmetry_space_group_name_H-M   'C 2/c'
_symmetry_Int_Tables_number      15
_space_group_name_Hall           '-C 2yn'
loop_
_symmetry_equiv_pos_site_id
_symmetry_equiv_pos_as_xyz
1 x,y,z
2 -x,y,1/2-z
3 1/2+x,1/2+y,z
4 1/2-x,1/2+y,1/2-z
5 -x,-y,-z
6 x,-y,1/2+z
7 1/2-x,1/2-y,-z
8 1/2+x,1/2-y,1/2+z
_cell_length_a                   21.483(5)
_cell_length_b                   14.139(3)
_cell_length_c                   20.803(5)
_cell_angle_alpha                90
_cell_angle_beta                 99.816(6)
_cell_angle_gamma                90
_cell_volume                     6226.37
loop_
_atom_site_label
_atom_site_type_symbol
_atom_site_fract_x
_atom_site_fract_y
_atom_site_fract_z
Zn1 Zn 0.23534(4) 0.50995(5) 0.37296(4)
Zn2 Zn 0.19957(4) 0.28891(5) 0.35675(3)
O1 O 0.0711(2) 0.4712(4) -0.0184(2)
O2 O 0.1940(3) 0.4756(3) 0.2824(2)
O3 O 0.1713(2) 0.3233(3) 0.2652(2)
O4 O 0.1302(2) 0.6651(3) -0.1000(2)
O5 O 0.1717(2) 0.5234(3) -0.0695(2)
O6 O 0.2761(3) 0.3473(5) 0.4082(4)
O7 O 0.3145(3) 0.2565(5) 0.3409(3)
O8 O 0.5719(2) 0.3711(5) 0.5171(3)
O9 O 0.6872(2) 0.4401(4) 0.5536(2)
O10 O 0.6728(3) 0.4633(5) 0.6523(2)
N1 N 0.2030(3) 0.6512(4) 0.3634(2)
N2 N 0.1940(3) 1.1473(4) 0.3587(2)
C1 C 0.6526(3) 0.4385(4) 0.5954(3)
C2 C 0.5845(4) 0.4109(6) 0.5787(4)
H1 H 0.5745 0.3659 0.6105
H2 H 0.5582 0.4664 0.5801
C3 C 0.5090(3) 0.3571(6) 0.4886(4)
C4 C 0.5009(5) 0.3097(9) 0.4322(5)
H3 H 0.5352 0.2866 0.4151
C5 C 0.4372(5) 0.2957(8) 0.3987(5)
H4 H 0.4306 0.2657 0.3583
C6 C 0.3864(3) 0.3251(5) 0.4245(4)
C7 C 0.3995(4) 0.3555(9) 0.4865(4)
H5 H 0.3658 0.3651 0.5084
C8 C 0.4592(4) 0.3734(8) 0.5197(4)
H6 H 0.4654 0.3962 0.5622
C9 C 0.3223(4) 0.3087(5) 0.3917(4)
C10 C 0.1737(3) 0.4070(4) 0.2469(3)
C11 C 0.1486(3) 0.4264(4) 0.1757(3)
C12 C 0.1436(4) 0.5179(5) 0.1515(3)
H7 H 0.1568 0.5680 0.1795
C13 C 0.1201(4) 0.5360(5) 0.0879(3)
H8 H 0.1179 0.5979 0.0725
C14 C 0.0994(3) 0.4628(5) 0.0462(3)
C15 C 0.1046(4) 0.3713(5) 0.0692(3)
H9 H 0.0914 0.3212 0.0411
C16 C 0.1291(4) 0.3538(5) 0.1333(3)
H10 H 0.1327 0.2918 0.1483
C17 C 0.0698(3) 0.5617(5) -0.0490(4)
H11 H 0.0625 0.6099 -0.0179
H12 H 0.0346 0.5637 -0.0851
C18 C 0.1296(3) 0.5847(4) -0.0741(3)
C19 C 0.1911(4) 0.6992(4) 0.4156(3)
H13 H 0.1861 0.6655 0.4528
C20 C 0.1861(4) 0.7952(5) 0.4164(3)
H14 H 0.1792 0.8265 0.4538
C21 C 0.1916(3) 0.8455(4) 0.3607(3)
C22 C 0.1999(3) 0.7960(4) 0.3055(3)
H15 H 0.2011 0.8274 0.2664
C23 C 0.2062(3) 0.6995(5) 0.3095(3)
H16 H 0.2132 0.6664 0.2727
C24 C 0.1909(3) 0.9511(5) 0.3598(3)
C25 C 0.1723(4) 1.0012(5) 0.3039(3)
H17 H 0.1583 0.9694 0.2650
C26 C 0.1741(4) 1.0983(5) 0.3045(3)
H18 H 0.1610 1.1309 0.2658
C27 C 0.2148(4) 1.0990(4) 0.4124(3)
H19 H 0.2313 1.1326 0.4498
C28 C 0.2134(4) 1.0025(5) 0.4163(3)
H20 H 0.2272 0.9718 0.4557
Zn1E Zn 0.23534(4) 0.49005(5) -0.12704(4)
Zn1D Zn 0.76466(4) 0.49005(5) 0.62704(4)
Zn2E Zn 0.19957(4) 0.71109(5) -0.14325(3)
Zn2_2 Zn 0.19957(4) 1.28891(5) 0.35675(3)
O4E O 0.1302(2) 0.3349(3) 0.4000(2)
O5E O 0.1717(2) 0.4766(3) 0.4305(2)
O9D O 0.3128(2) 0.5599(4) 0.4464(2)
O10D O 0.3272(3) 0.5367(5) 0.3477(2)
N2_2 N 0.1940(3) 0.1473(4) 0.3587(2)
loop_
_geom_bond_atom_site_label_1
_geom_bond_atom_site_label_2
_geom_bond_site_symmetry_1
_geom_bond_site_symmetry_2
Zn1 O2 1_555 1_555
Zn2 O3 1_555 1_555
O1 C14 1_555 1_555
O2 C10 1_555 1_555
O3 C10 1_555 1_555
O4 C18 1_555 1_555
O5 C18 1_555 1_555
O6 Zn1 1_555 1_555
O7 C9 1_555 1_555
O8 C2 1_555 1_555
O9 C1 1_555 1_555
O10 C1 1_555 1_555
N1 Zn1 1_555 1_555
N2 C26 1_555 1_555
C1 C2 1_555 1_555
C2 H1 1_555 1_555
H2 C2 1_555 1_555
C3 O8 1_555 1_555
C4 C3 1_555 1_555
H3 C4 1_555 1_555
C5 C4 1_555 1_555
H4 C5 1_555 1_555
C6 C5 1_555 1_555
C7 C6 1_555 1_555
H5 C7 1_555 1_555
C8 C3 1_555 1_555
H6 C8 1_555 1_555
C9 O6 1_555 1_555
C10 C11 1_555 1_555
C11 C12 1_555 1_555
C12 H7 1_555 1_555
C13 C12 1_555 1_555
H8 C13 1_555 1_555
C14 C13 1_555 1_555
C15 C14 1_555 1_555
H9 C15 1_555 1_555
C16 C11 1_555 1_555
H10 C16 1_555 1_555
C17 O1 1_555 1_555
H11 C17 1_555 1_555
H12 C17 1_555 1_555
C18 C17 1_555 1_555
C19 N1 1_555 1_555
H13 C19 1_555 1_555
C20 C19 1_555 1_555
H14 C20 1_555 1_555
C21 C20 1_555 1_555
C22 C21 1_555 1_555
H15 C22 1_555 1_555
C23 N1 1_555 1_555
H16 C23 1_555 1_555
C24 C21 1_555 1_555
C25 C24 1_555 1_555
H17 C25 1_555 1_555
C26 C25 1_555 1_555
H18 C26 1_555 1_555
C27 N2 1_555 1_555
H19 C27 1_555 1_555
C28 C24 1_555 1_555
H20 C28 1_555 1_555
Zn1E O5 1_555 1_555
Zn1D O9 1_555 1_555
Zn2E O4 1_555 1_555
Zn2_2 N2 1_555 1_555
O4E Zn2 1_555 1_555
O5E Zn1 1_555 1_555
O9D Zn1 1_555 1_555
O10D Zn1 1_555 1_555
N2_2 Zn2 1_555 1_555
Zn2 O6 1_555 1_555
O10 Zn1D 1_555 1_555
C6 C9 1_555 1_555
C7 C8 1_555 1_555
C15 C16 1_555 1_555
C22 C23 1_555 1_555
C27 C28 1_555 1_555

#END
