
#######################################################################
#
#                 Cambridge Crystallographic Data Centre
#                                CCDC 
#
#######################################################################
#
# If this CIF has been generated from an entry in the Cambridge 
# Structural Database, then it will include bibliographic, chemical, 
# crystal, experimental, refinement or atomic coordinate data resulting 
# from the CCDC's data processing and validation procedures.
#
#######################################################################

data_XAFDEP
_symmetry_cell_setting           monoclinic
_symmetry_space_group_name_H-M   'C 2/c'
_symmetry_Int_Tables_number      15
_space_group_name_Hall           '-C 2yn'
loop_
_symmetry_equiv_pos_site_id
_symmetry_equiv_pos_as_xyz
1 x,y,z
2 -x,y,1/2-z
3 1/2+x,1/2+y,z
4 1/2-x,1/2+y,1/2-z
5 -x,-y,-z
6 x,-y,1/2+z
7 1/2-x,1/2-y,-z
8 1/2+x,1/2-y,1/2+z
_cell_length_a                   21.588(5)
_cell_length_b                   14.151(4)
_cell_length_c                   20.933(2)
_cell_angle_alpha                90
_cell_angle_beta                 100.129(5)
_cell_angle_gamma                90
_cell_volume                     6295.19
loop_
_atom_site_label
_atom_site_type_symbol
_atom_site_fract_x
_atom_site_fract_y
_atom_site_fract_z
Zn1 Zn 0.76351(3) 0.49029(5) 0.62660(3)
Zn2 Zn 0.80062(3) 0.71017(4) 0.64336(3)
O1 O 0.8040(2) 0.5236(3) 0.7175(2)
O2 O 0.8300(2) 0.6750(3) 0.73341(18)
O3 O 0.8686(2) 0.3349(3) 1.0982(2)
O4 O 0.8278(2) 0.4770(3) 1.0700(2)
O5 O 0.7250(3) 0.6501(4) 0.5941(3)
O6 O 0.6882(3) 0.7416(5) 0.6599(3)
O7 O 0.4292(2) 0.6259(5) 0.4869(3)
O8 O 0.3129(2) 0.5595(4) 0.4475(2)
O9 O 0.3270(2) 0.5396(4) 0.3490(2)
O10 O 0.9273(2) 0.5278(3) 1.01660(19)
N1 N 0.7945(2) 0.3492(3) 0.6359(2)
N2 N 0.8058(2) -0.1490(3) 0.6416(2)
C1 C 0.3474(3) 0.5622(4) 0.4062(3)
C2 C 0.4151(3) 0.5912(5) 0.4244(3)
H1 H 0.4418 0.5371 0.4204
H2 H 0.4243 0.6393 0.3944
C3 C 0.4911(3) 0.6423(6) 0.5144(4)
C4 C 0.5014(4) 0.6883(9) 0.5704(5)
H3 H 0.4675 0.7111 0.5877
C5 C 0.5628(5) 0.7030(8) 0.6038(5)
H4 H 0.5693 0.7326 0.6441
C6 C 0.6146(3) 0.6730(5) 0.5765(3)
C7 C 0.5995(4) 0.6465(10) 0.5155(4)
H5 H 0.6322 0.6417 0.4921
C8 C 0.5392(4) 0.6250(7) 0.4828(4)
H6 H 0.5325 0.6000 0.4411
C9 C 0.6795(4) 0.6899(5) 0.6081(5)
C10 C 0.8690(3) 0.4154(4) 1.0727(3)
C11 C 0.8272(3) 0.5907(4) 0.7532(3)
C12 C 0.8511(3) 0.5715(4) 0.8226(3)
C13 C 0.8719(3) 0.6452(4) 0.8653(3)
H7 H 0.8689 0.7071 0.8502
C14 C 0.8965(3) 0.6280(5) 0.9289(3)
H8 H 0.9110 0.6782 0.9560
C15 C 0.9002(3) 0.5365(4) 0.9537(3)
C16 C 0.8775(3) 0.4642(5) 0.9112(3)
H9 H 0.8783 0.4025 0.9265
C17 C 0.8542(4) 0.4813(4) 0.8480(3)
H10 H 0.8398 0.4309 0.8209
C18 C 0.9279(3) 0.4369(5) 1.0473(3)
H11 H 0.9633 0.4341 1.0828
H12 H 0.9341 0.3885 1.0161
C19 C 0.7912(3) 0.3008(4) 0.6904(3)
H13 H 0.7846 0.3339 0.7270
C20 C 0.7971(3) 0.2037(4) 0.6940(3)
H14 H 0.7948 0.1722 0.7325
C21 C 0.8066(3) 0.1534(4) 0.6393(3)
C22 C 0.8114(3) 0.2043(4) 0.5839(3)
H15 H 0.8178 0.1731 0.5465
C23 C 0.8067(3) 0.3002(4) 0.5845(3)
H16 H 0.8122 0.3334 0.5475
C24 C 0.8076(3) 0.0481(4) 0.6406(3)
C25 C 0.8250(3) -0.0017(4) 0.6976(3)
H17 H 0.8377 0.0301 0.7366
C26 C 0.8233(3) -0.0994(4) 0.6960(3)
H18 H 0.8350 -0.1321 0.7348
C27 C 0.7868(4) -0.1005(4) 0.5870(3)
H19 H 0.7726 -0.1342 0.5492
C28 C 0.7871(4) -0.0032(4) 0.5836(3)
H20 H 0.7739 0.0277 0.5444
Zn1E Zn 0.76351(3) 0.50971(5) 0.12660(3)
Zn1E_2 Zn 0.76351(3) 0.50971(5) 1.12660(3)
Zn1D Zn 0.23649(3) 0.50971(5) 0.37340(3)
Zn1_2 Zn 0.76351(3) 1.49029(5) 0.62660(3)
Zn2E Zn 0.80062(3) 0.28983(4) 0.14336(3)
Zn2E_2 Zn 0.80062(3) 0.28983(4) 1.14336(3)
Zn2_2 Zn 0.80062(3) -0.28983(4) 0.64336(3)
Zn2D Zn 0.19938(3) 0.28983(4) 0.35664(3)
O1E O 0.8040(2) 0.4764(3) 0.2175(2)
O2E O 0.8300(2) 0.3250(3) 0.23341(18)
O3E O 0.8686(2) 0.6651(3) 0.5982(2)
O3_2 O 0.8686(2) 0.3349(3) 0.0982(2)
O4E O 0.8278(2) 0.5230(3) 0.5700(2)
O4_2 O 0.8278(2) 0.4770(3) 0.0700(2)
O5D O 0.2750(3) 0.3499(4) 0.4059(3)
O5E O 0.7250(3) 0.3499(4) 0.0941(3)
O6D O 0.3118(3) 0.2584(5) 0.3401(3)
O6E O 0.6882(3) 0.2584(5) 0.1599(3)
O7D O 0.5708(2) 0.3741(5) 0.5131(3)
O8D O 0.6871(2) 0.4405(4) 0.5525(2)
O8A O 0.6871(2) 0.5595(4) 0.0525(2)
O9D O 0.6730(2) 0.4604(4) 0.6510(2)
O9A O 0.6730(2) 0.5396(4) 0.1510(2)
O10E O 0.9273(2) 0.4722(3) 0.51660(19)
N1_2 N 0.7945(2) 1.3492(3) 0.6359(2)
N1E N 0.7945(2) 0.6508(3) 0.1359(2)
N2_2 N 0.8058(2) 0.8510(3) 0.6416(2)
N2E N 0.8058(2) 0.1490(3) 0.1416(2)
C1D C 0.6526(3) 0.4378(4) 0.5938(3)
C2D C 0.5849(3) 0.4088(5) 0.5756(3)
H1D H 0.5582 0.4629 0.5796
H2D H 0.5757 0.3607 0.6056
C3D C 0.5089(3) 0.3577(6) 0.4856(4)
C4D C 0.4986(4) 0.3117(9) 0.4296(5)
H3D H 0.5325 0.2889 0.4123
C5D C 0.4372(5) 0.2970(8) 0.3962(5)
H4D H 0.4307 0.2674 0.3559
C6D C 0.3854(3) 0.3270(5) 0.4235(3)
C7D C 0.4005(4) 0.3535(10) 0.4845(4)
H5D H 0.3678 0.3583 0.5079
C8D C 0.4608(4) 0.3750(7) 0.5172(4)
H6D H 0.4675 0.4000 0.5589
C9D C 0.3205(4) 0.3101(5) 0.3919(5)
C10E C 0.8690(3) 0.5846(4) 0.5727(3)
C11E C 0.8272(3) 0.4093(4) 0.2532(3)
C12E C 0.8511(3) 0.4285(4) 0.3226(3)
C13E C 0.8719(3) 0.3548(4) 0.3653(3)
H7E H 0.8689 0.2929 0.3502
C14E C 0.8965(3) 0.3720(5) 0.4289(3)
H8E H 0.9110 0.3218 0.4560
C15E C 0.9002(3) 0.4635(4) 0.4537(3)
C16E C 0.8775(3) 0.5358(5) 0.4112(3)
H9E H 0.8783 0.5975 0.4265
C17E C 0.8542(4) 0.5187(4) 0.3480(3)
H10E H 0.8398 0.5691 0.3209
C18E C 0.9279(3) 0.5631(5) 0.5473(3)
H11E H 0.9633 0.5659 0.5828
H12E H 0.9341 0.6115 0.5161
C19_2 C 0.7912(3) 1.3008(4) 0.6904(3)
H13_2 H 0.7846 1.3339 0.7270
C20_2 C 0.7971(3) 1.2037(4) 0.6940(3)
H14_2 H 0.7948 1.1722 0.7325
C21_2 C 0.8066(3) 1.1534(4) 0.6393(3)
C22_2 C 0.8114(3) 1.2043(4) 0.5839(3)
H15_2 H 0.8178 1.1731 0.5465
C23_2 C 0.8067(3) 1.3002(4) 0.5845(3)
H16_2 H 0.8122 1.3334 0.5475
C24_2 C 0.8076(3) 1.0481(4) 0.6406(3)
C25_2 C 0.8250(3) 0.9983(4) 0.6976(3)
H17_2 H 0.8377 1.0301 0.7366
C26_2 C 0.8233(3) 0.9006(4) 0.6960(3)
H18_2 H 0.8350 0.8679 0.7348
C27_2 C 0.7868(4) 0.8995(4) 0.5870(3)
H19_2 H 0.7726 0.8658 0.5492
C28_2 C 0.7871(4) 0.9968(4) 0.5836(3)
H20_2 H 0.7739 1.0277 0.5444
O11 O 0.9636(6) 0.4003(16) 0.7041(8)
O12 O 0.5000 0.528(4) 0.2500
O13? O 0.5170(15) 0.725(4) 0.2880(15)
loop_
_geom_bond_atom_site_label_1
_geom_bond_atom_site_label_2
_geom_bond_site_symmetry_1
_geom_bond_site_symmetry_2
Zn1 O1 1_555 1_555
Zn2 O2 1_555 1_555
O1 C11 1_555 1_555
O2 C11 1_555 1_555
O3 C10 1_555 1_555
O4 C10 1_555 1_555
O5 Zn1 1_555 1_555
O6 Zn2 1_555 1_555
O7 C2 1_555 1_555
O8 C1 1_555 1_555
O9 C1 1_555 1_555
O10 C15 1_555 1_555
N1 Zn1 1_555 1_555
N2 C26 1_555 1_555
C1 C2 1_555 1_555
C2 H1 1_555 1_555
H2 C2 1_555 1_555
C3 O7 1_555 1_555
C4 C3 1_555 1_555
H3 C4 1_555 1_555
C5 C4 1_555 1_555
H4 C5 1_555 1_555
C6 C5 1_555 1_555
C7 C6 1_555 1_555
H5 C7 1_555 1_555
C8 C3 1_555 1_555
H6 C8 1_555 1_555
C9 O5 1_555 1_555
C10 C18 1_555 1_555
C11 C12 1_555 1_555
C12 C13 1_555 1_555
C13 H7 1_555 1_555
C14 C13 1_555 1_555
H8 C14 1_555 1_555
C15 C14 1_555 1_555
C16 C15 1_555 1_555
H9 C16 1_555 1_555
C17 C12 1_555 1_555
H10 C17 1_555 1_555
C18 O10 1_555 1_555
H11 C18 1_555 1_555
H12 C18 1_555 1_555
C19 N1 1_555 1_555
H13 C19 1_555 1_555
C20 C19 1_555 1_555
H14 C20 1_555 1_555
C21 C20 1_555 1_555
C22 C21 1_555 1_555
H15 C22 1_555 1_555
C23 N1 1_555 1_555
H16 C23 1_555 1_555
C24 C21 1_555 1_555
C25 C24 1_555 1_555
H17 C25 1_555 1_555
C26 C25 1_555 1_555
H18 C26 1_555 1_555
C27 N2 1_555 1_555
H19 C27 1_555 1_555
C28 C24 1_555 1_555
H20 C28 1_555 1_555
Zn1E O1E 1_555 1_555
Zn1E_2 O4 1_555 1_555
Zn1D O8 1_555 1_555
Zn1_2 N1_2 1_555 1_555
Zn2E O2E 1_555 1_555
Zn2E_2 O3 1_555 1_555
Zn2_2 N2 1_555 1_555
Zn2D O5D 1_555 1_555
O1E C11E 1_555 1_555
O2E C11E 1_555 1_555
O3E Zn2 1_555 1_555
O3_2 Zn2E 1_555 1_555
O4E Zn1 1_555 1_555
O4_2 Zn1E 1_555 1_555
O5D Zn1D 1_555 1_555
O5E Zn1E 1_555 1_555
O6D Zn2D 1_555 1_555
O6E Zn2E 1_555 1_555
O7D C2D 1_555 1_555
O8D Zn1 1_555 1_555
O8A Zn1E 1_555 1_555
O9D Zn1 1_555 1_555
O9A Zn1E 1_555 1_555
O10E C15E 1_555 1_555
N1_2 C19_2 1_555 1_555
N1E Zn1E 1_555 1_555
N2_2 Zn2 1_555 1_555
N2E Zn2E 1_555 1_555
C1D O8D 1_555 1_555
C2D C1D 1_555 1_555
H1D C2D 1_555 1_555
H2D C2D 1_555 1_555
C3D O7D 1_555 1_555
C4D C3D 1_555 1_555
H3D C4D 1_555 1_555
C5D C4D 1_555 1_555
H4D C5D 1_555 1_555
C6D C5D 1_555 1_555
C7D C6D 1_555 1_555
H5D C7D 1_555 1_555
C8D C3D 1_555 1_555
H6D C8D 1_555 1_555
C9D O5D 1_555 1_555
C10E O3E 1_555 1_555
C11E C12E 1_555 1_555
C12E C13E 1_555 1_555
C13E H7E 1_555 1_555
C14E C13E 1_555 1_555
H8E C14E 1_555 1_555
C15E C14E 1_555 1_555
C16E C15E 1_555 1_555
H9E C16E 1_555 1_555
C17E C12E 1_555 1_555
H10E C17E 1_555 1_555
C18E O10E 1_555 1_555
H11E C18E 1_555 1_555
H12E C18E 1_555 1_555
C19_2 H13_2 1_555 1_555
C20_2 C19_2 1_555 1_555
H14_2 C20_2 1_555 1_555
C21_2 C20_2 1_555 1_555
C22_2 C21_2 1_555 1_555
H15_2 C22_2 1_555 1_555
C23_2 N1_2 1_555 1_555
H16_2 C23_2 1_555 1_555
C24_2 C21_2 1_555 1_555
C25_2 C24_2 1_555 1_555
H17_2 C25_2 1_555 1_555
C26_2 N2_2 1_555 1_555
H18_2 C26_2 1_555 1_555
C27_2 N2_2 1_555 1_555
H19_2 C27_2 1_555 1_555
C28_2 C24_2 1_555 1_555
H20_2 C28_2 1_555 1_555
Zn2 O5 1_555 1_555
O6 C9 1_555 1_555
O9 Zn1D 1_555 1_555
C6 C9 1_555 1_555
C7 C8 1_555 1_555
C16 C17 1_555 1_555
C22 C23 1_555 1_555
C27 C28 1_555 1_555
Zn2E O5E 1_555 1_555
O4E C10E 1_555 1_555
O6D C9D 1_555 1_555
O9D C1D 1_555 1_555
C6D C9D 1_555 1_555
C7D C8D 1_555 1_555
C10E C18E 1_555 1_555
C16E C17E 1_555 1_555
C22_2 C23_2 1_555 1_555
C25_2 C26_2 1_555 1_555
C27_2 C28_2 1_555 1_555

#END
