
#######################################################################
#
#                 Cambridge Crystallographic Data Centre
#                                CCDC 
#
#######################################################################
#
# If this CIF has been generated from an entry in the Cambridge 
# Structural Database, then it will include bibliographic, chemical, 
# crystal, experimental, refinement or atomic coordinate data resulting 
# from the CCDC's data processing and validation procedures.
#
#######################################################################

data_XAFDUF
_symmetry_cell_setting           monoclinic
_symmetry_space_group_name_H-M   'C 2/c'
_symmetry_Int_Tables_number      15
_space_group_name_Hall           '-C 2yn'
loop_
_symmetry_equiv_pos_site_id
_symmetry_equiv_pos_as_xyz
1 x,y,z
2 -x,y,1/2-z
3 1/2+x,1/2+y,z
4 1/2-x,1/2+y,1/2-z
5 -x,-y,-z
6 x,-y,1/2+z
7 1/2-x,1/2-y,-z
8 1/2+x,1/2-y,1/2+z
_cell_length_a                   21.193(6)
_cell_length_b                   14.047(5)
_cell_length_c                   20.725(5)
_cell_angle_alpha                90
_cell_angle_beta                 100.205(4)
_cell_angle_gamma                90
_cell_volume                     6072.19
loop_
_atom_site_label
_atom_site_type_symbol
_atom_site_fract_x
_atom_site_fract_y
_atom_site_fract_z
Zn1 Zn -0.26308(2) -0.00574(3) -0.62263(2)
Zn2 Zn -0.30508(2) -0.22070(3) -0.64570(2)
O1 O -0.32892(14) -0.0350(2) -0.56514(14)
O2 O -0.33396(14) -0.1884(2) -0.73753(14)
O3 O -0.37426(15) -0.1751(2) -0.60064(15)
O4 O -0.30895(15) -0.0358(2) -0.71532(14)
O5 O -0.22816(14) -0.1571(2) -0.59581(15)
O6 O -0.18862(16) -0.2537(2) -0.66345(15)
O7 O 0.07192(15) -0.1259(2) -0.48658(17)
O8 O -0.18618(15) 0.0487(2) -0.54935(14)
O9 O -0.17252(15) 0.0256(2) -0.65062(14)
O10 O -0.43289(15) -0.0214(2) -1.01879(15)
N1 N -0.29559(17) 0.1366(2) -0.63295(17)
N2 N -0.30742(17) -0.3620(3) -0.64255(16)
C1 C -0.1795(2) -0.1990(3) -0.6157(2)
C2 C -0.1148(2) -0.1789(3) -0.5807(2)
C3 C -0.0611(2) -0.1950(4) -0.6107(2)
H1 H -0.0672 -0.2185 -0.6533
C4 C -0.0003(2) -0.1770(4) -0.5787(3)
H2 H 0.0344 -0.1874 -0.5997
C5 C 0.0097(2) -0.1430(3) -0.5144(2)
C6 C -0.0424(2) -0.1291(4) -0.4822(2)
H3 H -0.0359 -0.1096 -0.4386
C7 C -0.1031(2) -0.1449(3) -0.5161(2)
H4 H -0.1378 -0.1326 -0.4955
C8 C 0.0836(2) -0.0840(3) -0.4234(2)
H5 H 0.0753 -0.1301 -0.3910
H6 H 0.0552 -0.0302 -0.4222
C9 C -0.1524(2) 0.0514(3) -0.5924(2)
C10 C -0.33028(19) -0.1021(3) -0.7541(2)
C11 C -0.3544(2) -0.0776(3) -0.8246(2)
C12 C -0.3729(2) -0.1502(3) -0.8705(2)
H7 H -0.3686 -0.2135 -0.8572
C13 C -0.3973(2) -0.1287(3) -0.9347(2)
H8 H -0.4092 -0.1775 -0.9648
C14 C -0.40416(19) -0.0338(3) -0.9550(2)
C15 C -0.3847(2) 0.0391(3) -0.9105(2)
H9 H -0.3878 0.1024 -0.9240
C16 C -0.3604(2) 0.0163(3) -0.8457(2)
H10 H -0.3479 0.0649 -0.8157
C17 C -0.4342(2) 0.0714(3) -1.0468(2)
H11 H -0.4404 0.1180 -1.0139
H12 H -0.4704 0.0759 -1.0825
C18 C -0.37327(19) -0.0951(3) -0.57229(19)
C19 C -0.3089(2) 0.1858(3) -0.5812(2)
H13 H -0.3148 0.1523 -0.5441
C20 C -0.3142(2) 0.2834(3) -0.5809(2)
H14 H -0.3223 0.3150 -0.5438
C21 C -0.3072(2) 0.3342(3) -0.6373(2)
C22 C -0.2961(2) 0.2829(3) -0.6915(2)
H15 H -0.2929 0.3139 -0.7304
C23 C -0.2901(2) 0.1847(3) -0.6867(2)
H16 H -0.2817 0.1510 -0.7228
C24 C -0.3309(2) -0.4129(3) -0.6963(2)
H17 H -0.3471 -0.3808 -0.7349
C25 C -0.3319(2) -0.5105(3) -0.6964(2)
H18 H -0.3486 -0.5433 -0.7345
C26 C -0.3080(2) 0.4397(3) -0.6395(2)
C27 C -0.2819(2) 0.4918(3) -0.5843(2)
H19 H -0.2642 0.4610 -0.5455
C28 C -0.2824(2) -0.4106(3) -0.58755(19)
H20 H -0.2648 -0.3764 -0.5503
Zn1D Zn 0.26308(2) 0.00574(3) -0.37737(2)
Zn1E Zn -0.26308(2) 0.00574(3) -1.12263(2)
Zn1_2 Zn -0.26308(2) -1.00574(3) -0.62263(2)
Zn1E_2 Zn -0.26308(2) 0.00574(3) -0.12263(2)
Zn2E Zn -0.30508(2) 0.22070(3) -1.14570(2)
Zn2_2 Zn -0.30508(2) 0.77930(3) -0.64570(2)
Zn2D Zn 0.30508(2) 0.22070(3) -0.35430(2)
Zn2E_2 Zn -0.30508(2) 0.22070(3) -0.14570(2)
O1E O -0.32892(14) 0.0350(2) -1.06514(14)
O1E_2 O -0.32892(14) 0.0350(2) -0.06514(14)
O2E O -0.33396(14) 0.1884(2) -0.23753(14)
O3E O -0.37426(15) 0.1751(2) -1.10064(15)
O3E_2 O -0.37426(15) 0.1751(2) -0.10064(15)
O4E O -0.30895(15) 0.0358(2) -0.21532(14)
O5D O 0.22816(14) 0.1571(2) -0.40419(15)
O5E O -0.22816(14) 0.1571(2) -0.09581(15)
O6D O 0.18862(16) 0.2537(2) -0.33655(15)
O7D O -0.07192(15) 0.1259(2) -0.51342(17)
O8D O 0.18618(15) -0.0487(2) -0.45065(14)
O8E O -0.18618(15) -0.0487(2) -0.04935(14)
O9D O 0.17252(15) -0.0256(2) -0.34938(14)
O9E O -0.17252(15) -0.0256(2) -0.15062(14)
O10E O -0.43289(15) 0.0214(2) -0.51879(15)
N1_2 N -0.29559(17) -0.8634(2) -0.63295(17)
N1E N -0.29559(17) -0.1366(2) -0.13295(17)
N2_2 N -0.30742(17) 0.6380(3) -0.64255(16)
N2E N -0.30742(17) 0.3620(3) -0.14255(16)
C1D C 0.1795(2) 0.1990(3) -0.3843(2)
C2D C 0.1148(2) 0.1789(3) -0.4193(2)
C3D C 0.0611(2) 0.1950(4) -0.3893(2)
H1D H 0.0672 0.2185 -0.3467
C4D C 0.0003(2) 0.1770(4) -0.4213(3)
H2D H -0.0344 0.1874 -0.4003
C5D C -0.0097(2) 0.1430(3) -0.4856(2)
C6D C 0.0424(2) 0.1291(4) -0.5178(2)
H3D H 0.0359 0.1096 -0.5614
C7D C 0.1031(2) 0.1449(3) -0.4839(2)
H4D H 0.1378 0.1326 -0.5045
C8D C -0.0836(2) 0.0840(3) -0.5766(2)
H5D H -0.0753 0.1301 -0.6090
H6D H -0.0552 0.0302 -0.5778
C9D C 0.1524(2) -0.0514(3) -0.4076(2)
C10E C -0.33028(19) 0.1021(3) -0.2541(2)
C11E C -0.3544(2) 0.0776(3) -0.3246(2)
C12E C -0.3729(2) 0.1502(3) -0.3705(2)
H7E H -0.3686 0.2135 -0.3572
C13E C -0.3973(2) 0.1287(3) -0.4347(2)
H8E H -0.4092 0.1775 -0.4648
C14E C -0.40416(19) 0.0338(3) -0.4550(2)
C15E C -0.3847(2) -0.0391(3) -0.4105(2)
H9E H -0.3878 -0.1024 -0.4240
C16E C -0.3604(2) -0.0163(3) -0.3457(2)
H10E H -0.3479 -0.0649 -0.3157
C17E C -0.4342(2) -0.0714(3) -0.5468(2)
H11E H -0.4404 -0.1180 -0.5139
H12E H -0.4704 -0.0759 -0.5825
C18E C -0.37327(19) 0.0951(3) -1.07229(19)
C19_2 C -0.3089(2) -0.8142(3) -0.5812(2)
H13_2 H -0.3148 -0.8477 -0.5441
C20_2 C -0.3142(2) -0.7166(3) -0.5809(2)
H14_2 H -0.3223 -0.6850 -0.5438
C21_2 C -0.3072(2) -0.6658(3) -0.6373(2)
C22_2 C -0.2961(2) -0.7171(3) -0.6915(2)
H15_2 H -0.2929 -0.6861 -0.7304
C23_2 C -0.2901(2) -0.8153(3) -0.6867(2)
H16_2 H -0.2817 -0.8490 -0.7228
C24_2 C -0.3309(2) 0.5871(3) -0.6963(2)
H17_2 H -0.3471 0.6192 -0.7349
C25_2 C -0.3319(2) 0.4895(3) -0.6964(2)
H18_2 H -0.3486 0.4567 -0.7345
C26_2 C -0.3080(2) -0.5603(3) -0.6395(2)
C27_2 C -0.2819(2) -0.5082(3) -0.5843(2)
H19_2 H -0.2642 -0.5390 -0.5455
C28_2 C -0.2824(2) 0.5894(3) -0.58755(19)
H20_2 H -0.2648 0.6236 -0.5503
O11 O 0.5000 0.2328(10) 0.2500
C29 C 0.5000 0.1454(12) 0.2500
C30 C 0.4689(4) 0.0952(10) 0.1924(5)
H21 H 0.4502 0.1402 0.1597
H22 H 0.4359 0.0548 0.2036
H23 H 0.4999 0.0570 0.1755
C30A C 0.5311(4) 0.0952(10) 0.3076(5)
H21A H 0.5498 0.1402 0.3403
H22A H 0.5641 0.0548 0.2964
H23A H 0.5001 0.0570 0.3245
O12 O 0.5050(8) 0.3066(12) 0.7050(7)
loop_
_geom_bond_atom_site_label_1
_geom_bond_atom_site_label_2
_geom_bond_site_symmetry_1
_geom_bond_site_symmetry_2
Zn1 O1 1_555 1_555
Zn2 O2 1_555 1_555
O1 C18 1_555 1_555
O2 C10 1_555 1_555
O3 Zn2 1_555 1_555
O4 Zn1 1_555 1_555
O5 Zn1 1_555 1_555
O6 C1 1_555 1_555
O7 C5 1_555 1_555
O8 Zn1 1_555 1_555
O9 Zn1 1_555 1_555
O10 C14 1_555 1_555
O11 C29 1_555 1_555
N1 Zn1 1_555 1_555
N2 Zn2 1_555 1_555
C1 O5 1_555 1_555
C2 C1 1_555 1_555
C3 C2 1_555 1_555
H1 C3 1_555 1_555
C4 C3 1_555 1_555
H2 C4 1_555 1_555
C5 C4 1_555 1_555
C6 C5 1_555 1_555
H3 C6 1_555 1_555
C7 C2 1_555 1_555
H4 C7 1_555 1_555
C8 O7 1_555 1_555
H5 C8 1_555 1_555
H6 C8 1_555 1_555
C9 O8 1_555 1_555
C10 O4 1_555 1_555
C11 C10 1_555 1_555
C12 C11 1_555 1_555
H7 C12 1_555 1_555
C13 C12 1_555 1_555
H8 C13 1_555 1_555
C14 C13 1_555 1_555
C15 C14 1_555 1_555
H9 C15 1_555 1_555
C16 C11 1_555 1_555
H10 C16 1_555 1_555
C17 O10 1_555 1_555
H11 C17 1_555 1_555
H12 C17 1_555 1_555
C18 O3 1_555 1_555
C19 N1 1_555 1_555
H13 C19 1_555 1_555
C20 C19 1_555 1_555
H14 C20 1_555 1_555
C21 C20 1_555 1_555
C22 C21 1_555 1_555
H15 C22 1_555 1_555
C23 N1 1_555 1_555
H16 C23 1_555 1_555
C24 N2 1_555 1_555
H17 C24 1_555 1_555
C25 C24 1_555 1_555
H18 C25 1_555 1_555
C26 C21 1_555 1_555
C27 C26 1_555 1_555
H19 C27 1_555 1_555
C28 N2 1_555 1_555
H20 C28 1_555 1_555
C29 C30 1_555 1_555
C30 H21 1_555 1_555
H22 C30 1_555 1_555
H23 C30 1_555 1_555
Zn1D O5D 1_555 1_555
Zn1E O1E 1_555 1_555
Zn1_2 N1_2 1_555 1_555
Zn1E_2 O1E_2 1_555 1_555
Zn2E O3E 1_555 1_555
Zn2_2 N2_2 1_555 1_555
Zn2D O5D 1_555 1_555
Zn2E_2 O2E 1_555 1_555
O1E C18E 1_555 1_555
O2E C10E 1_555 1_555
O3E C18E 1_555 1_555
O3E_2 Zn2E_2 1_555 1_555
O4E Zn1E_2 1_555 1_555
O5D C1D 1_555 1_555
O5E Zn1E_2 1_555 1_555
O6D C1D 1_555 1_555
O7D C5D 1_555 1_555
O8D Zn1D 1_555 1_555
O8E Zn1E_2 1_555 1_555
O9D Zn1D 1_555 1_555
O9E Zn1E_2 1_555 1_555
O10E C14E 1_555 1_555
N1_2 C19_2 1_555 1_555
N1E Zn1E_2 1_555 1_555
N2_2 C24_2 1_555 1_555
N2E Zn2E_2 1_555 1_555
C1D C2D 1_555 1_555
C2D C3D 1_555 1_555
C3D H1D 1_555 1_555
C4D C3D 1_555 1_555
H2D C4D 1_555 1_555
C5D C4D 1_555 1_555
C6D C5D 1_555 1_555
H3D C6D 1_555 1_555
C7D C2D 1_555 1_555
H4D C7D 1_555 1_555
C8D C9 1_555 1_555
H5D C8D 1_555 1_555
H6D C8D 1_555 1_555
C9D C8 1_555 1_555
C10E O4E 1_555 1_555
C11E C10E 1_555 1_555
C12E C11E 1_555 1_555
H7E C12E 1_555 1_555
C13E C12E 1_555 1_555
H8E C13E 1_555 1_555
C14E C13E 1_555 1_555
C15E C14E 1_555 1_555
H9E C15E 1_555 1_555
C16E C11E 1_555 1_555
H10E C16E 1_555 1_555
C17E C18 1_555 1_555
H11E C17E 1_555 1_555
H12E C17E 1_555 1_555
C18E C17 1_555 1_555
C19_2 H13_2 1_555 1_555
C20_2 C19_2 1_555 1_555
H14_2 C20_2 1_555 1_555
C21_2 C20_2 1_555 1_555
C22_2 C21_2 1_555 1_555
H15_2 C22_2 1_555 1_555
C23_2 N1_2 1_555 1_555
H16_2 C23_2 1_555 1_555
C24_2 H17_2 1_555 1_555
C25_2 C26 1_555 1_555
H18_2 C25_2 1_555 1_555
C26_2 C25 1_555 1_555
C27_2 C28 1_555 1_555
H19_2 C27_2 1_555 1_555
C28_2 C27 1_555 1_555
H20_2 C28_2 1_555 1_555
C30A C29 1_555 1_555
H21A C30A 1_555 1_555
H22A C30A 1_555 1_555
H23A C30A 1_555 1_555
Zn2 O5 1_555 1_555
O9 C9 1_555 1_555
C6 C7 1_555 1_555
C15 C16 1_555 1_555
C22 C23 1_555 1_555
Zn2E_2 O5E 1_555 1_555
O7D C8D 1_555 1_555
O8D C9D 1_555 1_555
O9D C9D 1_555 1_555
O10E C17E 1_555 1_555
N2_2 C28_2 1_555 1_555
C6D C7D 1_555 1_555
C15E C16E 1_555 1_555
C21_2 C26_2 1_555 1_555
C22_2 C23_2 1_555 1_555
C24_2 C25_2 1_555 1_555
C26_2 C27_2 1_555 1_555

#END
