
#######################################################################
#
#                 Cambridge Crystallographic Data Centre
#                                CCDC 
#
#######################################################################
#
# If this CIF has been generated from an entry in the Cambridge 
# Structural Database, then it will include bibliographic, chemical, 
# crystal, experimental, refinement or atomic coordinate data resulting 
# from the CCDC's data processing and validation procedures.
#
#######################################################################

data_XAFFEQ
_symmetry_cell_setting           triclinic
_symmetry_space_group_name_H-M   'P -1'
_symmetry_Int_Tables_number      2
_space_group_name_Hall           '-P 1'
loop_
_symmetry_equiv_pos_site_id
_symmetry_equiv_pos_as_xyz
1 x,y,z
2 -x,-y,-z
_cell_length_a                   8.652(1)
_cell_length_b                   9.240(1)
_cell_length_c                   15.806(5)
_cell_angle_alpha                95.541(7)
_cell_angle_beta                 99.491(4)
_cell_angle_gamma                100.152(4)
_cell_volume                     1216.48
loop_
_atom_site_label
_atom_site_type_symbol
_atom_site_fract_x
_atom_site_fract_y
_atom_site_fract_z
Ni1 Ni 0.5000 0.5000 0.5000
O13 O 0.5826(7) 0.6490(7) 0.4203(4)
O14 O 0.6430(8) 0.3691(8) 0.4565(5)
O15 O 0.3170(7) 0.4014(8) 0.3990(4)
O13A O 0.4174(7) 0.3510(7) 0.5797(4)
O14A O 0.3570(8) 0.6309(8) 0.5435(5)
O15A O 0.6830(7) 0.5986(8) 0.6010(4)
S1 S -0.4568(3) -0.2940(3) -0.0581(2)
S2 S 0.1907(3) -0.3078(3) 0.0203(2)
S3 S -0.1930(3) -0.4131(3) 0.2576(3)
S4 S 0.4562(3) 0.0056(3) 0.3385(2)
Na1 Na 0.8961(4) 0.1193(4) 0.4348(2)
O1 O -0.1225(7) -0.2709(6) -0.0913(4)
O2 O 0.2899(7) -0.0017(7) -0.0381(4)
O3 O -0.3627(7) -0.4465(8) 0.2599(4)
O4 O -0.1133(8) -0.5380(7) 0.2719(4)
O5 O -0.1120(8) -0.2806(7) 0.3172(4)
O6 O 0.3426(8) 0.0874(7) 0.3697(4)
O7 O 0.4270(8) -0.1470(8) 0.3582(4)
O8 O 0.6200(8) 0.0857(10) 0.3680(5)
O9 O 0.9873(7) 0.0260(7) 0.3055(4)
O10 O 0.8318(8) 0.2363(7) 0.5641(4)
O11 O 1.1618(7) 0.1093(7) 0.5056(4)
O12 O 1.0035(7) 0.3853(7) 0.4305(4)
C1 C -0.131(1) -0.3005(10) -0.0088(6)
C2 C 0.000(1) -0.3215(10) 0.0493(6)
C3 C -0.024(1) -0.361(1) 0.1302(6)
C4 C -0.173(1) -0.3735(10) 0.1542(6)
C5 C -0.302(1) -0.343(1) 0.0962(6)
C6 C -0.283(1) -0.311(1) 0.0147(6)
C7 C 0.325(1) -0.007(1) 0.0479(6)
C8 C 0.293(1) -0.139(1) 0.0868(6)
C9 C 0.3417(10) -0.135(1) 0.1745(6)
C10 C 0.4134(10) -0.0033(9) 0.2260(6)
C11 C 0.444(1) 0.1249(10) 0.1892(6)
C12 C -0.4019(10) -0.1246(10) -0.1004(6)
H1 H 0.0639 -0.3806 0.1695
H2 H -0.4016 -0.3434 0.1136
H3 H 0.3258 -0.2245 0.1999
H4 H 0.4946 0.2147 0.2249
C12A C 0.4019(10) 0.1246(10) 0.1004(6)
S1A S 0.4568(3) 0.2940(3) 0.0581(2)
C6A C 0.283(1) 0.311(1) -0.0147(6)
C1A C 0.131(1) 0.3005(10) 0.0088(6)
O1A O 0.1225(7) 0.2709(6) 0.0913(4)
C2A C 0.000(1) 0.3215(10) -0.0493(6)
S2A S -0.1907(3) 0.3078(3) -0.0203(2)
C8A C -0.293(1) 0.139(1) -0.0868(6)
C7A C -0.325(1) 0.007(1) -0.0479(6)
O2A O -0.2899(7) 0.0017(7) 0.0381(4)
C11A C -0.444(1) -0.1249(10) -0.1892(6)
C10A C -0.4134(10) 0.0033(9) -0.2260(6)
S4A S -0.4562(3) -0.0056(3) -0.3385(2)
O6A O -0.3426(8) -0.0874(7) -0.3697(4)
O7A O -0.4270(8) 0.1470(8) -0.3582(4)
O8A O -0.6200(8) -0.0857(10) -0.3680(5)
C9A C -0.3417(10) 0.135(1) -0.1745(6)
H3A H -0.3258 0.2245 -0.1999
H4A H -0.4946 -0.2147 -0.2249
C3A C 0.024(1) 0.361(1) -0.1302(6)
C4A C 0.173(1) 0.3735(10) -0.1542(6)
S3A S 0.1930(3) 0.4131(3) -0.2576(3)
O3A O 0.3627(7) 0.4465(8) -0.2599(4)
O4A O 0.1133(8) 0.5380(7) -0.2719(4)
O5A O 0.1120(8) 0.2806(7) -0.3172(4)
C5A C 0.302(1) 0.343(1) -0.0962(6)
H2A H 0.4016 0.3434 -0.1136
H1A H -0.0639 0.3806 -0.1695
O11A O 0.8382(7) -0.1093(7) 0.4944(4)
Na1A Na -0.8961(4) -0.1193(4) -0.4348(2)
O9A O -0.9873(7) -0.0260(7) -0.3055(4)
O10A O -0.8318(8) -0.2363(7) -0.5641(4)
O12A O -1.0035(7) -0.3853(7) -0.4305(4)
Na1A_2 Na 1.1039(4) -0.1193(4) 0.5652(2)
O11_2 O -0.8382(7) 0.1093(7) -0.4944(4)
O11A_2 O -1.1618(7) -0.1093(7) -0.5056(4)
O16 O 0.8795(7) 0.1955(7) 0.1743(4)
O17 O 0.3047(7) 0.4801(7) 0.2364(4)
loop_
_geom_bond_atom_site_label_1
_geom_bond_atom_site_label_2
_geom_bond_site_symmetry_1
_geom_bond_site_symmetry_2
Ni1 O13 1_555 1_555
S1 C6 1_555 1_555
S2 C2 1_555 1_555
S3 O3 1_555 1_555
S4 O6 1_555 1_555
Na1 O8 1_555 1_555
O1 C1 1_555 1_555
O2 C7 1_555 1_555
O4 S3 1_555 1_555
O5 S3 1_555 1_555
O7 S4 1_555 1_555
O8 S4 1_555 1_555
O9 Na1 1_555 1_555
O10 Na1 1_555 1_555
O11 Na1 1_555 1_555
O12 Na1 1_555 1_555
O14 Ni1 1_555 1_555
O15 Ni1 1_555 1_555
C1 C2 1_555 1_555
C2 C3 1_555 1_555
C3 C4 1_555 1_555
C4 S3 1_555 1_555
C5 C4 1_555 1_555
C6 C1 1_555 1_555
C7 C8 1_555 1_555
C8 S2 1_555 1_555
C9 C8 1_555 1_555
C10 S4 1_555 1_555
C11 C10 1_555 1_555
C12 S1 1_555 1_555
H1 C3 1_555 1_555
H2 C5 1_555 1_555
H3 C9 1_555 1_555
H4 C11 1_555 1_555
C12A C7 1_555 1_555
S1A C12A 1_555 1_555
C6A S1A 1_555 1_555
C1A C6A 1_555 1_555
O1A C1A 1_555 1_555
C2A C1A 1_555 1_555
S2A C2A 1_555 1_555
C8A S2A 1_555 1_555
C7A C12 1_555 1_555
O2A C7A 1_555 1_555
C11A C12 1_555 1_555
C10A C11A 1_555 1_555
S4A C10A 1_555 1_555
O6A S4A 1_555 1_555
O7A S4A 1_555 1_555
O8A S4A 1_555 1_555
C9A C8A 1_555 1_555
H3A C9A 1_555 1_555
H4A C11A 1_555 1_555
C3A C2A 1_555 1_555
C4A C3A 1_555 1_555
S3A C4A 1_555 1_555
O3A S3A 1_555 1_555
O4A S3A 1_555 1_555
O5A S3A 1_555 1_555
C5A C6A 1_555 1_555
H2A C5A 1_555 1_555
H1A C3A 1_555 1_555
O13A Ni1 1_555 1_555
O14A Ni1 1_555 1_555
O15A Ni1 1_555 1_555
O11A Na1 1_555 1_555
Na1A O8A 1_555 1_555
O9A Na1A 1_555 1_555
O10A Na1A 1_555 1_555
O12A Na1A 1_555 1_555
Na1A_2 O11 1_555 1_555
O11_2 Na1A 1_555 1_555
O11A_2 Na1A 1_555 1_555
C5 C6 1_555 1_555
C9 C10 1_555 1_555
C11 C12A 1_555 1_555
C8A C7A 1_555 1_555
C10A C9A 1_555 1_555
C4A C5A 1_555 1_555
O11A Na1A_2 1_555 1_555

#END
