
#######################################################################
#
#                 Cambridge Crystallographic Data Centre
#                                CCDC 
#
#######################################################################
#
# If this CIF has been generated from an entry in the Cambridge 
# Structural Database, then it will include bibliographic, chemical, 
# crystal, experimental, refinement or atomic coordinate data resulting 
# from the CCDC's data processing and validation procedures.
#
#######################################################################

data_XAFFAN
_symmetry_cell_setting           orthorhombic
_symmetry_space_group_name_H-M   'I m m a'
_symmetry_Int_Tables_number      74
_space_group_name_Hall           '-I 2b 2'
loop_
_symmetry_equiv_pos_site_id
_symmetry_equiv_pos_as_xyz
1 x,y,z
2 -x,1/2-y,z
3 -x,1/2+y,-z
4 x,-y,-z
5 1/2+x,1/2+y,1/2+z
6 1/2-x,-y,1/2+z
7 1/2-x,y,1/2-z
8 1/2+x,1/2-y,1/2-z
9 -x,-y,-z
10 x,1/2+y,-z
11 x,1/2-y,z
12 -x,y,z
13 1/2-x,1/2-y,1/2-z
14 1/2+x,y,1/2-z
15 1/2+x,-y,1/2+z
16 1/2-x,1/2+y,1/2+z
_cell_length_a                   23.353(5)
_cell_length_b                   35.883(7)
_cell_length_c                   17.178(3)
_cell_angle_alpha                90
_cell_angle_beta                 90
_cell_angle_gamma                90
_cell_volume                     14394.7
loop_
_atom_site_label
_atom_site_type_symbol
_atom_site_fract_x
_atom_site_fract_y
_atom_site_fract_z
C1 C 0.57781(9) 0.96560(6) 0.07790(14)
C2 C 0.7500 0.84872(7) 0.2500
C3 C 0.64311(9) 0.95959(5) 0.19290(15)
H1 H 0.6284 0.9819 0.2119
C4 C 0.68429(10) 0.94085(6) 0.23526(15)
H2 H 0.6963 0.9502 0.2830
C5 C 0.68827(10) 0.89439(6) 0.13693(16)
H3 H 0.7038 0.8725 0.1169
C6 C 0.64577(9) 0.91256(6) 0.09581(15)
H4 H 0.6322 0.9023 0.0496
C7 C 0.70795(9) 0.90791(5) 0.20668(16)
C8 C 0.79902(10) 0.82948(6) 0.2363(2)
H5 H 0.8328 0.8422 0.2256
C9 C 0.79869(10) 0.79072(6) 0.2384(2)
H6 H 0.8330 0.7780 0.2315
C10 C 0.7500 0.77077(7) 0.2500
C11 C 0.62329(8) 0.94571(5) 0.12243(13)
N1 N 0.7500 0.88886(6) 0.2500
O1 O 0.56056(6) 0.95054(4) 0.01624(10)
O2 O 0.56065(5) 0.99642(4) 0.10528(10)
O3 O 0.5000 0.92886(6) -0.13614(16)
Zn1 Zn 0.5000 0.969968(7) -0.058255(16)
C1J C 0.57781(9) 0.53440(6) 0.07790(14)
C1L C 0.92219(9) 0.53440(6) 0.42210(14)
C1F C 0.92219(9) 0.96560(6) 0.42210(14)
C2J C 0.7500 0.65128(7) 0.2500
C3J C 0.64311(9) 0.54041(5) 0.19290(15)
C3L C 0.85689(9) 0.54041(5) 0.30710(15)
C3F C 0.85689(9) 0.95959(5) 0.30710(15)
H1J H 0.6284 0.5181 0.2119
H1L H 0.8716 0.5181 0.2881
H1F H 0.8716 0.9819 0.2881
C4J C 0.68429(10) 0.55915(6) 0.23526(15)
C4L C 0.81571(10) 0.55915(6) 0.26474(15)
C4F C 0.81571(10) 0.94085(6) 0.26474(15)
H2J H 0.6963 0.5498 0.2830
H2L H 0.8037 0.5498 0.2170
H2F H 0.8037 0.9502 0.2170
C5J C 0.68827(10) 0.60561(6) 0.13693(16)
C5L C 0.81173(10) 0.60561(6) 0.36307(16)
C5F C 0.81173(10) 0.89439(6) 0.36307(16)
H3J H 0.7038 0.6275 0.1169
H3L H 0.7962 0.6275 0.3831
H3F H 0.7962 0.8725 0.3831
C6J C 0.64577(9) 0.58744(6) 0.09581(15)
C6L C 0.85423(9) 0.58744(6) 0.40419(15)
C6F C 0.85423(9) 0.91256(6) 0.40419(15)
H4J H 0.6322 0.5977 0.0496
H4L H 0.8678 0.5977 0.4504
H4F H 0.8678 0.9023 0.4504
C7J C 0.70795(9) 0.59209(5) 0.20668(16)
C7L C 0.79205(9) 0.59209(5) 0.29332(16)
C7F C 0.79205(9) 0.90791(5) 0.29332(16)
C8F C 0.70098(10) 0.82948(6) 0.2637(2)
C8J C 0.79902(10) 0.67052(6) 0.2363(2)
C8L C 0.70098(10) 0.67052(6) 0.2637(2)
H5F H 0.6672 0.8422 0.2744
H5L H 0.6672 0.6578 0.2744
H5J H 0.8328 0.6578 0.2256
C9F C 0.70131(10) 0.79072(6) 0.2616(2)
C9J C 0.79869(10) 0.70928(6) 0.2384(2)
C9L C 0.70131(10) 0.70928(6) 0.2616(2)
H6F H 0.6670 0.7780 0.2685
H6L H 0.6670 0.7220 0.2685
H6J H 0.8330 0.7220 0.2315
C10J C 0.7500 0.72923(7) 0.2500
C11J C 0.62329(8) 0.55429(5) 0.12243(13)
C11L C 0.87671(8) 0.55429(5) 0.37757(13)
C11F C 0.87671(8) 0.94571(5) 0.37757(13)
N1J N 0.7500 0.61114(6) 0.2500
O1J O 0.56056(6) 0.54946(4) 0.01624(10)
O1L O 0.93944(6) 0.54946(4) 0.48376(10)
O1F O 0.93944(6) 0.95054(4) 0.48376(10)
O1K O 0.43944(6) 0.95054(4) 0.01624(10)
O1A O 0.43944(6) 0.54946(4) 0.01624(10)
O2J O 0.56065(5) 0.50358(4) 0.10528(10)
O2L O 0.93935(5) 0.50358(4) 0.39472(10)
O2F O 0.93935(5) 0.99642(4) 0.39472(10)
O2C O 0.56065(5) 1.00358(4) -0.10528(10)
O2H O 0.43935(5) 1.00358(4) -0.10528(10)
O2I O 0.56065(5) 0.49642(4) -0.10528(10)
O2B O 0.43935(5) 0.49642(4) -0.10528(10)
O3A O 0.5000 0.57114(6) -0.13614(16)
Zn1A Zn 0.5000 0.530032(7) -0.058255(16)
Zn1C Zn 0.5000 1.030032(7) 0.058255(16)
Zn1B Zn 0.5000 0.469968(7) 0.058255(16)
Zn1G Zn 1.0000 0.530032(7) 0.558255(16)
Zn1D Zn 1.0000 0.469968(7) 0.441745(16)
Zn1F Zn 1.0000 0.969968(7) 0.558255(16)
Zn1E Zn 1.0000 1.030032(7) 0.441745(16)
loop_
_geom_bond_atom_site_label_1
_geom_bond_atom_site_label_2
_geom_bond_site_symmetry_1
_geom_bond_site_symmetry_2
C1 C11 1_555 1_555
C2 C8 1_555 1_555
C3 H1 1_555 1_555
C4 C3 1_555 1_555
H2 C4 1_555 1_555
C5 H3 1_555 1_555
C6 C5 1_555 1_555
H4 C6 1_555 1_555
C7 C4 1_555 1_555
C8 H5 1_555 1_555
C9 C8 1_555 1_555
H6 C9 1_555 1_555
C10 C9 1_555 1_555
C11 C3 1_555 1_555
N1 C2 1_555 1_555
O1 C1 1_555 1_555
O2 C1 1_555 1_555
O3 Zn1 1_555 1_555
Zn1 O1 1_555 1_555
C1J C11J 1_555 1_555
C1L C11L 1_555 1_555
C1F C11F 1_555 1_555
C2J C8J 1_555 1_555
C3J H1J 1_555 1_555
C3L H1L 1_555 1_555
C3F H1F 1_555 1_555
C4J C3J 1_555 1_555
C4L C3L 1_555 1_555
C4F C3F 1_555 1_555
H2J C4J 1_555 1_555
H2L C4L 1_555 1_555
H2F C4F 1_555 1_555
C5J H3J 1_555 1_555
C5L H3L 1_555 1_555
C5F H3F 1_555 1_555
C6J C5J 1_555 1_555
C6L C5L 1_555 1_555
C6F C5F 1_555 1_555
H4J C6J 1_555 1_555
H4L C6L 1_555 1_555
H4F C6F 1_555 1_555
C7J C4J 1_555 1_555
C7L C4L 1_555 1_555
C7F N1 1_555 1_555
C8F C2 1_555 1_555
C8J H5J 1_555 1_555
C8L C2J 1_555 1_555
H5F C8F 1_555 1_555
H5L C8L 1_555 1_555
C9F C10 1_555 1_555
C9J C8J 1_555 1_555
C9L C8L 1_555 1_555
H6F C9F 1_555 1_555
H6L C9L 1_555 1_555
H6J C9J 1_555 1_555
C10J C10 1_555 1_555
C11J C3J 1_555 1_555
C11L C3L 1_555 1_555
C11F C3F 1_555 1_555
N1J C2J 1_555 1_555
O1J C1J 1_555 1_555
O1L C1L 1_555 1_555
O1F C1F 1_555 1_555
O1K Zn1 1_555 1_555
O1A Zn1A 1_555 1_555
O2J C1J 1_555 1_555
O2L C1L 1_555 1_555
O2F C1F 1_555 1_555
O2C Zn1 1_555 1_555
O2H Zn1 1_555 1_555
O2I Zn1A 1_555 1_555
O2B Zn1A 1_555 1_555
O3A Zn1A 1_555 1_555
Zn1A O1J 1_555 1_555
Zn1C O2 1_555 1_555
Zn1B O2J 1_555 1_555
Zn1G O1L 1_555 1_555
Zn1D O2L 1_555 1_555
Zn1F O1F 1_555 1_555
Zn1E O2F 1_555 1_555
C5 C7 1_555 1_555
C6 C11 1_555 1_555
C7 N1 1_555 1_555
C4F C7F 1_555 1_555
C5J C7J 1_555 1_555
C5L C7L 1_555 1_555
C5F C7F 1_555 1_555
C6J C11J 1_555 1_555
C6L C11L 1_555 1_555
C6F C11F 1_555 1_555
C7J N1J 1_555 1_555
C7L N1J 1_555 1_555
C8F C9F 1_555 1_555
C9J C10J 1_555 1_555
C9L C10J 1_555 1_555

#END
