
#######################################################################
#
#                 Cambridge Crystallographic Data Centre
#                                CCDC 
#
#######################################################################
#
# If this CIF has been generated from an entry in the Cambridge 
# Structural Database, then it will include bibliographic, chemical, 
# crystal, experimental, refinement or atomic coordinate data resulting 
# from the CCDC's data processing and validation procedures.
#
#######################################################################

data_XAFFIV
_symmetry_cell_setting           orthorhombic
_symmetry_space_group_name_H-M   'I m m a'
_symmetry_Int_Tables_number      74
_space_group_name_Hall           '-I 2b 2'
loop_
_symmetry_equiv_pos_site_id
_symmetry_equiv_pos_as_xyz
1 x,y,z
2 -x,1/2-y,z
3 -x,1/2+y,-z
4 x,-y,-z
5 1/2+x,1/2+y,1/2+z
6 1/2-x,-y,1/2+z
7 1/2-x,y,1/2-z
8 1/2+x,1/2-y,1/2-z
9 -x,-y,-z
10 x,1/2+y,-z
11 x,1/2-y,z
12 -x,y,z
13 1/2-x,1/2-y,1/2-z
14 1/2+x,y,1/2-z
15 1/2+x,-y,1/2+z
16 1/2-x,1/2+y,1/2+z
_cell_length_a                   23.415(5)
_cell_length_b                   35.948(7)
_cell_length_c                   17.141(3)
_cell_angle_alpha                90
_cell_angle_beta                 90
_cell_angle_gamma                90
_cell_volume                     14428
loop_
_atom_site_label
_atom_site_type_symbol
_atom_site_fract_x
_atom_site_fract_y
_atom_site_fract_z
C1 C 0.57738(13) 0.46659(12) 0.5785(2)
C2 C 0.64273(13) 0.45890(8) 0.6935(2)
H1 H 0.6278 0.4811 0.7122
C3 C 0.68803(14) 0.39404(9) 0.6353(2)
H2 H 0.7042 0.3725 0.6149
C4 C 0.62329(12) 0.44472(9) 0.6230(2)
C5 C 0.68418(14) 0.44041(9) 0.73642(19)
H3 H 0.6964 0.4499 0.7841
C6 C 0.64577(13) 0.41221(9) 0.59471(19)
H4 H 0.6324 0.4024 0.5479
C7 C 0.70702(13) 0.40791(9) 0.7078(2)
C8 C 0.7500 0.34907(13) 0.7500
C9 C 0.70147(15) 0.32983(10) 0.7646(2)
H5 H 0.6679 0.3425 0.7759
C10 C 0.70166(15) 0.29059(10) 0.7626(2)
H6 H 0.6675 0.2780 0.7703
C11 C 0.7500 0.27063(11) 0.7500
N1 N 0.7500 0.38840(9) 0.7500
O1 O 0.56053(8) 0.49655(6) 0.60639(13)
O2 O 0.5000 0.57002(11) 0.6319(2)
O3 O 0.56068(8) 0.45070(6) 0.51587(14)
Co1 Co 0.5000 0.528580(14) 0.55606(3)
C1F C 0.92262(13) 0.46659(12) 0.9215(2)
C1J C 0.57738(13) 0.03341(12) 0.5785(2)
C1L C 0.92262(13) 0.03341(12) 0.9215(2)
C2F C 0.85727(13) 0.45890(8) 0.8065(2)
C2J C 0.64273(13) 0.04110(8) 0.6935(2)
C2L C 0.85727(13) 0.04110(8) 0.8065(2)
H1F H 0.8722 0.4811 0.7878
H1J H 0.6278 0.0189 0.7122
H1L H 0.8722 0.0189 0.7878
C3F C 0.81197(14) 0.39404(9) 0.8647(2)
C3J C 0.68803(14) 0.10596(9) 0.6353(2)
C3L C 0.81197(14) 0.10596(9) 0.8647(2)
H2F H 0.7958 0.3725 0.8851
H2J H 0.7042 0.1275 0.6149
H2L H 0.7958 0.1275 0.8851
C4F C 0.87671(12) 0.44472(9) 0.8770(2)
C4J C 0.62329(12) 0.05528(9) 0.6230(2)
C4L C 0.87671(12) 0.05528(9) 0.8770(2)
C5F C 0.81582(14) 0.44041(9) 0.76358(19)
C5J C 0.68418(14) 0.05959(9) 0.73642(19)
C5L C 0.81582(14) 0.05959(9) 0.76358(19)
H3F H 0.8036 0.4499 0.7159
H3J H 0.6964 0.0501 0.7841
H3L H 0.8036 0.0501 0.7159
C6F C 0.85423(13) 0.41221(9) 0.90529(19)
C6J C 0.64577(13) 0.08779(9) 0.59471(19)
C6L C 0.85423(13) 0.08779(9) 0.90529(19)
H4F H 0.8676 0.4024 0.9521
H4J H 0.6324 0.0976 0.5479
H4L H 0.8676 0.0976 0.9521
C7F C 0.79298(13) 0.40791(9) 0.7922(2)
C7J C 0.70702(13) 0.09209(9) 0.7078(2)
C7L C 0.79298(13) 0.09209(9) 0.7922(2)
C8J C 0.7500 0.15093(13) 0.7500
C9F C 0.79853(15) 0.32983(10) 0.7354(2)
C9J C 0.70147(15) 0.17017(10) 0.7646(2)
C9L C 0.79853(15) 0.17017(10) 0.7354(2)
H5F H 0.8321 0.3425 0.7241
H5L H 0.8321 0.1575 0.7241
H5J H 0.6679 0.1575 0.7759
C10F C 0.79834(15) 0.29059(10) 0.7374(2)
C10J C 0.70166(15) 0.20941(10) 0.7626(2)
C10L C 0.79834(15) 0.20941(10) 0.7374(2)
H6F H 0.8325 0.2780 0.7297
H6L H 0.8325 0.2220 0.7297
H6J H 0.6675 0.2220 0.7703
C11J C 0.7500 0.22937(11) 0.7500
N1J N 0.7500 0.11160(9) 0.7500
O1F O 0.93947(8) 0.49655(6) 0.89361(13)
O1J O 0.56053(8) 0.00345(6) 0.60639(13)
O1L O 0.93947(8) 0.00345(6) 0.89361(13)
O1K O 0.43947(8) 0.49655(6) 0.60639(13)
O1G O 1.06053(8) 0.00345(6) 0.89361(13)
O2G O 1.0000 -0.07002(11) 0.8681(2)
O3F O 0.93932(8) 0.45070(6) 0.98413(14)
O3J O 0.56068(8) 0.04930(6) 0.51587(14)
O3L O 0.93932(8) 0.04930(6) 0.98413(14)
O3C O 0.56068(8) 0.54930(6) 0.48413(14)
O3H O 0.43932(8) 0.54930(6) 0.48413(14)
O3D O 1.06068(8) -0.04930(6) 1.01587(14)
O3O O 0.93932(8) -0.04930(6) 1.01587(14)
Co1F Co 1.0000 0.528580(14) 0.94394(3)
Co1C Co 0.5000 0.471420(14) 0.44394(3)
Co1E Co 1.0000 0.471420(14) 1.05606(3)
Co1A Co 0.5000 -0.028580(14) 0.55606(3)
Co1B Co 0.5000 0.028580(14) 0.44394(3)
Co1G Co 1.0000 -0.028580(14) 0.94394(3)
Co1D Co 1.0000 0.028580(14) 1.05606(3)
loop_
_geom_bond_atom_site_label_1
_geom_bond_atom_site_label_2
_geom_bond_site_symmetry_1
_geom_bond_site_symmetry_2
C1 C4 1_555 1_555
C2 H1 1_555 1_555
C3 H2 1_555 1_555
C4 C2 1_555 1_555
C5 C2 1_555 1_555
H3 C5 1_555 1_555
C6 C3 1_555 1_555
H4 C6 1_555 1_555
C7 C3 1_555 1_555
C8 C9 1_555 1_555
C9 H5 1_555 1_555
C10 C9 1_555 1_555
H6 C10 1_555 1_555
C11 C10 1_555 1_555
N1 C7 1_555 1_555
O1 C1 1_555 1_555
O2 Co1 1_555 1_555
O3 C1 1_555 1_555
Co1 O1 1_555 1_555
C1F C4F 1_555 1_555
C1J C4J 1_555 1_555
C1L C4L 1_555 1_555
C2F H1F 1_555 1_555
C2J H1J 1_555 1_555
C2L H1L 1_555 1_555
C3F H2F 1_555 1_555
C3J H2J 1_555 1_555
C3L H2L 1_555 1_555
C4F C2F 1_555 1_555
C4J C2J 1_555 1_555
C4L C2L 1_555 1_555
C5F C2F 1_555 1_555
C5J C2J 1_555 1_555
C5L C2L 1_555 1_555
H3F C5F 1_555 1_555
H3J C5J 1_555 1_555
H3L C5L 1_555 1_555
C6F C3F 1_555 1_555
C6J C3J 1_555 1_555
C6L C3L 1_555 1_555
H4F C6F 1_555 1_555
H4J C6J 1_555 1_555
H4L C6L 1_555 1_555
C7F N1 1_555 1_555
C7J C3J 1_555 1_555
C7L C3L 1_555 1_555
C8J C9J 1_555 1_555
C9F C8 1_555 1_555
C9J H5J 1_555 1_555
C9L C8J 1_555 1_555
H5F C9F 1_555 1_555
H5L C9L 1_555 1_555
C10F C11 1_555 1_555
C10J C9J 1_555 1_555
C10L C9L 1_555 1_555
H6F C10F 1_555 1_555
H6L C10L 1_555 1_555
H6J C10J 1_555 1_555
C11J C11 1_555 1_555
N1J C7J 1_555 1_555
O1F C1F 1_555 1_555
O1J C1J 1_555 1_555
O1L C1L 1_555 1_555
O1K Co1 1_555 1_555
O1G Co1G 1_555 1_555
O2G Co1G 1_555 1_555
O3F C1F 1_555 1_555
O3J C1J 1_555 1_555
O3L C1L 1_555 1_555
O3C Co1 1_555 1_555
O3H Co1 1_555 1_555
O3D Co1G 1_555 1_555
O3O Co1G 1_555 1_555
Co1F O1F 1_555 1_555
Co1C O3 1_555 1_555
Co1E O3F 1_555 1_555
Co1A O1J 1_555 1_555
Co1B O3J 1_555 1_555
Co1G O1L 1_555 1_555
Co1D O3L 1_555 1_555
C4 C6 1_555 1_555
C5 C7 1_555 1_555
C8 N1 1_555 1_555
C3F C7F 1_555 1_555
C4F C6F 1_555 1_555
C4J C6J 1_555 1_555
C4L C6L 1_555 1_555
C5F C7F 1_555 1_555
C5J C7J 1_555 1_555
C5L C7L 1_555 1_555
C7L N1J 1_555 1_555
C8J N1J 1_555 1_555
C9F C10F 1_555 1_555
C10J C11J 1_555 1_555
C10L C11J 1_555 1_555

#END
