
#######################################################################
#
#                 Cambridge Crystallographic Data Centre
#                                CCDC 
#
#######################################################################
#
# If this CIF has been generated from an entry in the Cambridge 
# Structural Database, then it will include bibliographic, chemical, 
# crystal, experimental, refinement or atomic coordinate data resulting 
# from the CCDC's data processing and validation procedures.
#
#######################################################################

data_XAFFER
_symmetry_cell_setting           orthorhombic
_symmetry_space_group_name_H-M   'C c c m'
_symmetry_Int_Tables_number      66
_space_group_name_Hall           '-C 2 2n'
loop_
_symmetry_equiv_pos_site_id
_symmetry_equiv_pos_as_xyz
1 x,y,z
2 -x,-y,z
3 -x,y,1/2-z
4 x,-y,1/2-z
5 1/2+x,1/2+y,z
6 1/2-x,1/2-y,z
7 1/2-x,1/2+y,1/2-z
8 1/2+x,1/2-y,1/2-z
9 -x,-y,-z
10 x,y,-z
11 x,-y,1/2+z
12 -x,y,1/2+z
13 1/2-x,1/2-y,-z
14 1/2+x,1/2+y,-z
15 1/2+x,1/2-y,1/2+z
16 1/2-x,1/2+y,1/2+z
_cell_length_a                   17.953(4)
_cell_length_b                   35.340(7)
_cell_length_c                   23.023(5)
_cell_angle_alpha                90
_cell_angle_beta                 90
_cell_angle_gamma                90
_cell_volume                     14607.2
loop_
_atom_site_label
_atom_site_type_symbol
_atom_site_fract_x
_atom_site_fract_y
_atom_site_fract_z
C1 C 0.67105(17) 0.28267(8) 0.07848(10)
C2 C 0.62687(17) 0.30239(7) 0.12303(10)
C3 C 0.55977(19) 0.28819(6) 0.14279(11)
H1 H 0.5428 0.2654 0.1277
C4 C 0.54249(18) 0.34020(7) 0.20807(10)
C5 C 0.6084(2) 0.35435(7) 0.18934(12)
H2 H 0.6260 0.3768 0.2055
C6 C 0.65061(17) 0.33642(7) 0.14667(11)
H3 H 0.6949 0.3473 0.1340
C7 C 0.51740(17) 0.30619(7) 0.18348(12)
H4 H 0.4720 0.2959 0.1949
C8 C 0.5000 0.40011(9) 0.2500
C9 C 0.48617(18) 0.41987(7) 0.20005(11)
H5 H 0.4765 0.4069 0.1657
C10 C 0.48648(18) 0.45852(7) 0.20014(11)
H6 H 0.4773 0.4714 0.1657
C11 C 0.5000 0.47882(8) 0.2500
N1 N 0.5000 0.35946(7) 0.2500
O1 O 0.64757(10) 0.25103(5) 0.06143(6)
O2 O 0.72981(12) 0.29888(5) 0.06115(8)
O3 O 0.62837(18) 0.17371(7) 0.0000
Zn1 Zn 0.69637(2) 0.218282(8) 0.0000
C1A C 0.32895(17) 0.71733(8) 0.07848(10)
C1B C 0.32895(17) 0.28267(8) 0.42152(10)
C1C C 0.67105(17) 0.71733(8) 0.42152(10)
C2A C 0.37313(17) 0.69761(7) 0.12303(10)
C2B C 0.37313(17) 0.30239(7) 0.37697(10)
C2C C 0.62687(17) 0.69761(7) 0.37697(10)
C3A C 0.44023(19) 0.71181(6) 0.14279(11)
C3B C 0.44023(19) 0.28819(6) 0.35721(11)
C3C C 0.55977(19) 0.71181(6) 0.35721(11)
H1A H 0.4572 0.7346 0.1277
H1B H 0.4572 0.2654 0.3723
H1C H 0.5428 0.7346 0.3723
C4A C 0.45751(18) 0.65980(7) 0.20807(10)
C4B C 0.45751(18) 0.34020(7) 0.29193(10)
C4C C 0.54249(18) 0.65980(7) 0.29193(10)
C5A C 0.3916(2) 0.64565(7) 0.18934(12)
C5B C 0.3916(2) 0.35435(7) 0.31066(12)
C5C C 0.6084(2) 0.64565(7) 0.31066(12)
H2A H 0.3740 0.6232 0.2055
H2B H 0.3740 0.3768 0.2945
H2C H 0.6260 0.6232 0.2945
C6A C 0.34939(17) 0.66358(7) 0.14667(11)
C6B C 0.34939(17) 0.33642(7) 0.35333(11)
C6C C 0.65061(17) 0.66358(7) 0.35333(11)
H3A H 0.3051 0.6527 0.1340
H3B H 0.3051 0.3473 0.3660
H3C H 0.6949 0.6527 0.3660
C7A C 0.48260(17) 0.69381(7) 0.18348(12)
C7B C 0.48260(17) 0.30619(7) 0.31652(12)
C7C C 0.51740(17) 0.69381(7) 0.31652(12)
H4A H 0.5280 0.7041 0.1949
H4B H 0.5280 0.2959 0.3051
H4C H 0.4720 0.7041 0.3051
C8A C 0.5000 0.59989(9) 0.2500
C9A C 0.51383(18) 0.58013(7) 0.20005(11)
C9B C 0.51383(18) 0.41987(7) 0.29995(11)
C9C C 0.48617(18) 0.58013(7) 0.29995(11)
H5A H 0.5235 0.5931 0.1657
H5B H 0.5235 0.4069 0.3343
H5C H 0.4765 0.5931 0.3343
C10A C 0.51352(18) 0.54148(7) 0.20014(11)
C10B C 0.51352(18) 0.45852(7) 0.29986(11)
C10C C 0.48648(18) 0.54148(7) 0.29986(11)
H6A H 0.5227 0.5286 0.1657
H6B H 0.5227 0.4714 0.3343
H6C H 0.4773 0.5286 0.3343
C11A C 0.5000 0.52118(8) 0.2500
N1A N 0.5000 0.64054(7) 0.2500
O1A O 0.35243(10) 0.74897(5) 0.06143(6)
O1B O 0.35243(10) 0.25103(5) 0.43857(6)
O1C O 0.64757(10) 0.74897(5) 0.43857(6)
O1H O 0.35243(10) 0.74897(5) -0.06143(6)
O1I O 0.64757(10) 0.25103(5) -0.06143(6)
O2A O 0.27019(12) 0.70112(5) 0.06115(8)
O2B O 0.27019(12) 0.29888(5) 0.43885(8)
O2C O 0.72981(12) 0.70112(5) 0.43885(8)
O2D O 0.22981(12) 0.79888(5) 0.06115(8)
O2E O 0.77019(12) 0.20112(5) 0.06115(8)
O2L O 0.77019(12) 0.20112(5) -0.06115(8)
O2M O 0.22981(12) 0.79888(5) -0.06115(8)
O3A O 0.37163(18) 0.82629(7) 0.0000
Zn1A Zn 0.30363(2) 0.781718(8) 0.0000
Zn1D Zn 0.19637(2) 0.718282(8) 0.0000
Zn1E Zn 0.80363(2) 0.281718(8) 0.0000
Zn1F Zn 0.80363(2) 0.718282(8) 0.5000
Zn1G Zn 0.19637(2) 0.281718(8) 0.5000
Zn1C Zn 0.69637(2) 0.781718(8) 0.5000
Zn1B Zn 0.30363(2) 0.218282(8) 0.5000
loop_
_geom_bond_atom_site_label_1
_geom_bond_atom_site_label_2
_geom_bond_site_symmetry_1
_geom_bond_site_symmetry_2
C1 C2 1_555 1_555
C2 C3 1_555 1_555
C3 H1 1_555 1_555
C4 C5 1_555 1_555
C5 H2 1_555 1_555
C6 C2 1_555 1_555
H3 C6 1_555 1_555
C7 C3 1_555 1_555
H4 C7 1_555 1_555
C8 C9 1_555 1_555
C9 H5 1_555 1_555
C10 C9 1_555 1_555
H6 C10 1_555 1_555
C11 C10 1_555 1_555
N1 C4 1_555 1_555
O1 C1 1_555 1_555
O2 C1 1_555 1_555
O3 Zn1 1_555 1_555
Zn1 O1 1_555 1_555
C1A C2A 1_555 1_555
C1B C2B 1_555 1_555
C1C C2C 1_555 1_555
C2A C3A 1_555 1_555
C2B C3B 1_555 1_555
C2C C3C 1_555 1_555
C3A H1A 1_555 1_555
C3B H1B 1_555 1_555
C3C H1C 1_555 1_555
C4A C5A 1_555 1_555
C4B N1 1_555 1_555
C4C C5C 1_555 1_555
C5A H2A 1_555 1_555
C5B C4B 1_555 1_555
C5C H2C 1_555 1_555
H2B C5B 1_555 1_555
C6A C2A 1_555 1_555
C6B C2B 1_555 1_555
C6C C2C 1_555 1_555
H3A C6A 1_555 1_555
H3B C6B 1_555 1_555
H3C C6C 1_555 1_555
C7A C3A 1_555 1_555
C7B C3B 1_555 1_555
C7C C3C 1_555 1_555
H4A C7A 1_555 1_555
H4B C7B 1_555 1_555
H4C C7C 1_555 1_555
C8A C9A 1_555 1_555
C9A H5A 1_555 1_555
C9B C8 1_555 1_555
C9C C8A 1_555 1_555
H5B C9B 1_555 1_555
H5C C9C 1_555 1_555
C10A C9A 1_555 1_555
C10B C11 1_555 1_555
C10C C9C 1_555 1_555
H6A C10A 1_555 1_555
H6B C10B 1_555 1_555
H6C C10C 1_555 1_555
C11A C11 1_555 1_555
N1A C4A 1_555 1_555
O1A C1A 1_555 1_555
O1B C1B 1_555 1_555
O1C C1C 1_555 1_555
O1H Zn1A 1_555 1_555
O1I Zn1 1_555 1_555
O2A C1A 1_555 1_555
O2B C1B 1_555 1_555
O2C C1C 1_555 1_555
O2D Zn1A 1_555 1_555
O2E Zn1 1_555 1_555
O2L Zn1 1_555 1_555
O2M Zn1A 1_555 1_555
O3A Zn1A 1_555 1_555
Zn1A O1A 1_555 1_555
Zn1D O2A 1_555 1_555
Zn1E O2 1_555 1_555
Zn1F O2C 1_555 1_555
Zn1G O2B 1_555 1_555
Zn1C O1C 1_555 1_555
Zn1B O1B 1_555 1_555
C4 C7 1_555 1_555
C5 C6 1_555 1_555
C8 N1 1_555 1_555
C4A C7A 1_555 1_555
C4B C7B 1_555 1_555
C4C C7C 1_555 1_555
C4C N1A 1_555 1_555
C5A C6A 1_555 1_555
C5B C6B 1_555 1_555
C5C C6C 1_555 1_555
C8A N1A 1_555 1_555
C9B C10B 1_555 1_555
C10A C11A 1_555 1_555
C10C C11A 1_555 1_555

#END
