
#######################################################################
#
#                 Cambridge Crystallographic Data Centre
#                                CCDC 
#
#######################################################################
#
# If this CIF has been generated from an entry in the Cambridge 
# Structural Database, then it will include bibliographic, chemical, 
# crystal, experimental, refinement or atomic coordinate data resulting 
# from the CCDC's data processing and validation procedures.
#
#######################################################################

data_XAFKAQ
_symmetry_cell_setting           orthorhombic
_symmetry_space_group_name_H-M   'P n n m'
_symmetry_Int_Tables_number      58
_space_group_name_Hall           '-P 2 2n'
loop_
_symmetry_equiv_pos_site_id
_symmetry_equiv_pos_as_xyz
1 x,y,z
2 -x,-y,z
3 1/2-x,1/2+y,1/2-z
4 1/2+x,1/2-y,1/2-z
5 -x,-y,-z
6 x,y,-z
7 1/2+x,1/2-y,1/2+z
8 1/2-x,1/2+y,1/2+z
_cell_length_a                   32.999(2)
_cell_length_b                   17.1473(11)
_cell_length_c                   20.9802(13)
_cell_angle_alpha                90
_cell_angle_beta                 90
_cell_angle_gamma                90
_cell_volume                     11871.5
loop_
_atom_site_label
_atom_site_type_symbol
_atom_site_fract_x
_atom_site_fract_y
_atom_site_fract_z
Ni1 Ni 0.23994(2) -0.11846(4) 0.25136(4)
Ni2 Ni 0.0000 -0.5000 0.25493(6)
Fe1 Fe 0.15120(2) -0.38180(5) 0.25871(5)
O1 O 0.29539(12) 0.0850(2) 0.1932(2)
O2 O 0.34055(12) 0.0138(2) 0.2922(2)
O3 O 0.19055(13) -0.3290(2) 0.1961(2)
O4 O 0.14968(12) -0.2730(2) 0.3026(2)
O5 O 0.11553(12) -0.4513(3) 0.3168(2)
O6 O -0.09659(11) -0.6434(2) 0.2133(2)
N1 N 0.21312(16) -0.0468(3) 0.1829(3)
N2 N 0.27965(14) -0.0288(3) 0.2499(2)
N3 N 0.28093(15) -0.1523(3) 0.3225(3)
N4 N 0.26742(15) -0.1867(3) 0.1795(2)
N5 N 0.20349(14) -0.2126(3) 0.2496(2)
N6 N 0.19705(16) -0.0886(3) 0.3215(3)
N7 N 0.02785(15) -0.5703(3) 0.3246(3)
N8 N 0.05591(14) -0.4526(3) 0.2578(2)
N9 N -0.00566(15) -0.4117(3) 0.1866(3)
C1 C 0.1784(2) -0.0589(5) 0.1509(5)
H1 H 0.1619 -0.1022 0.1623
C2 C 0.1659(3) -0.0111(5) 0.1027(5)
H2 H 0.1419 -0.0223 0.0796
C3 C 0.1885(3) 0.0528(5) 0.0883(5)
H3 H 0.1793 0.0887 0.0570
C4 C 0.2248(2) 0.0658(4) 0.1188(4)
H4 H 0.2419 0.1079 0.1068
C5 C 0.23562(18) 0.0157(4) 0.1673(3)
C6 C 0.27392(17) 0.0281(3) 0.2051(3)
C7 C 0.31163(17) -0.0319(3) 0.2879(3)
C8 C 0.31193(17) -0.1023(3) 0.3305(3)
C9 C 0.3417(2) -0.1145(4) 0.3753(3)
H5 H 0.3630 -0.0778 0.3806
C10 C 0.3403(2) -0.1801(4) 0.4119(3)
H6 H 0.3615 -0.1917 0.4410
C11 C 0.3079(2) -0.2286(5) 0.4060(4)
H7 H 0.3049 -0.2717 0.4341
C12 C 0.2795(2) -0.2152(4) 0.3595(3)
H8 H 0.2583 -0.2519 0.3535
C13 C 0.3001(2) -0.1711(4) 0.1450(4)
H9 H 0.3137 -0.1229 0.1517
C14 C 0.3150(2) -0.2214(5) 0.1005(3)
H10 H 0.3391 -0.2091 0.0780
C15 C 0.2946(2) -0.2908(4) 0.0882(3)
H11 H 0.3042 -0.3261 0.0567
C16 C 0.2601(2) -0.3069(4) 0.1229(3)
H12 H 0.2452 -0.3537 0.1160
C17 C 0.24792(18) -0.2544(3) 0.1668(3)
C18 C 0.21045(16) -0.2687(3) 0.2070(3)
C19 C 0.17247(17) -0.2173(3) 0.2928(3)
C20 C 0.16831(19) -0.1443(4) 0.3314(3)
C21 C 0.1375(2) -0.1359(5) 0.3744(4)
H13 H 0.1186 -0.1766 0.3816
C22 C 0.1348(3) -0.0646(5) 0.4078(5)
H14 H 0.1128 -0.0548 0.4359
C23 C 0.1644(3) -0.0100(5) 0.3987(5)
H15 H 0.1639 0.0370 0.4226
C24 C 0.1944(2) -0.0228(4) 0.3557(4)
H16 H 0.2143 0.0166 0.3496
C25 C 0.0135(2) -0.6316(5) 0.3551(4)
H17 H -0.0134 -0.6483 0.3458
C26 C 0.0354(2) -0.6727(5) 0.3996(5)
H18 H 0.0239 -0.7164 0.4206
C27 C 0.0737(2) -0.6497(6) 0.4129(5)
H19 H 0.0897 -0.6784 0.4423
C28 C 0.0894(2) -0.5847(5) 0.3838(3)
H20 H 0.1157 -0.5661 0.3941
C29 C 0.06568(17) -0.5474(4) 0.3390(3)
C30 C 0.08151(16) -0.4784(3) 0.3025(3)
C31 C -0.06379(17) -0.6074(4) 0.2191(3)
C32 C 0.02910(19) -0.3682(4) 0.1780(4)
C33 C 0.0309(2) -0.3051(5) 0.1376(4)
H21 H 0.0554 -0.2767 0.1325
C34 C -0.0036(3) -0.2838(7) 0.1045(6)
H22 H -0.0035 -0.2389 0.0779
C35 C -0.0381(3) -0.3285(7) 0.1105(6)
H23 H -0.0616 -0.3169 0.0861
C36 C -0.0381(2) -0.3905(6) 0.1525(5)
H24 H -0.0624 -0.4196 0.1575
Fe1B Fe 0.34880(2) 0.11820(5) 0.24129(5)
O1B O 0.20461(12) -0.4150(2) 0.3068(2)
O2B O 0.15945(12) -0.4862(2) 0.2078(2)
N7A N -0.02785(15) -0.4297(3) 0.3246(3)
C25A C -0.0135(2) -0.3684(5) 0.3551(4)
H17A H 0.0134 -0.3517 0.3458
C26A C -0.0354(2) -0.3273(5) 0.3996(5)
H18A H -0.0239 -0.2836 0.4206
C27A C -0.0737(2) -0.3503(6) 0.4129(5)
H19A H -0.0897 -0.3216 0.4423
C28A C -0.0894(2) -0.4153(5) 0.3838(3)
H20A H -0.1157 -0.4339 0.3941
C29A C -0.06568(17) -0.4526(4) 0.3390(3)
C30A C -0.08151(16) -0.5216(3) 0.3025(3)
O5A O -0.11553(12) -0.5487(3) 0.3168(2)
Fe1A Fe -0.15120(2) -0.61820(5) 0.25871(5)
O1C O -0.20461(12) -0.5850(2) 0.3068(2)
C6C C -0.22608(17) -0.5281(3) 0.2949(3)
N2C N -0.22035(14) -0.4712(3) 0.2501(2)
Ni1C Ni -0.26006(2) -0.38154(4) 0.24864(4)
N1C N -0.28688(16) -0.4532(3) 0.3171(3)
C1C C -0.3216(2) -0.4411(5) 0.3491(5)
H1C H -0.3381 -0.3978 0.3377
C2C C -0.3341(3) -0.4889(5) 0.3973(5)
H2C H -0.3581 -0.4777 0.4204
C3C C -0.3115(3) -0.5528(5) 0.4117(5)
H3C H -0.3207 -0.5887 0.4430
C4C C -0.2752(2) -0.5658(4) 0.3812(4)
H4C H -0.2581 -0.6079 0.3932
C5C C -0.26438(18) -0.5157(4) 0.3327(3)
N3C N -0.21907(15) -0.3477(3) 0.1775(3)
C8C C -0.18807(17) -0.3977(3) 0.1695(3)
C7C C -0.18837(17) -0.4681(3) 0.2121(3)
O2C O -0.15945(12) -0.5138(2) 0.2078(2)
O3A O -0.19055(13) -0.6710(2) 0.1961(2)
O4A O -0.14968(12) -0.7270(2) 0.3026(2)
N8A N -0.05591(14) -0.5474(3) 0.2578(2)
C31A C 0.06379(17) -0.3926(4) 0.2191(3)
O6A O 0.09659(11) -0.3566(2) 0.2133(2)
N9A N 0.00566(15) -0.5883(3) 0.1866(3)
C32A C -0.02910(19) -0.6318(4) 0.1780(4)
C33A C -0.0309(2) -0.6949(5) 0.1376(4)
H21A H -0.0554 -0.7233 0.1325
C34A C 0.0036(3) -0.7162(7) 0.1045(6)
H22A H 0.0035 -0.7611 0.0779
C35A C 0.0381(3) -0.6715(7) 0.1105(6)
H23A H 0.0616 -0.6831 0.0861
C36A C 0.0381(2) -0.6095(6) 0.1525(5)
H24A H 0.0624 -0.5804 0.1575
C9C C -0.1583(2) -0.3855(4) 0.1247(3)
H5C H -0.1370 -0.4222 0.1194
C10C C -0.1597(2) -0.3199(4) 0.0881(3)
H6C H -0.1385 -0.3083 0.0590
C11C C -0.1921(2) -0.2714(5) 0.0940(4)
H7C H -0.1951 -0.2283 0.0659
C12C C -0.2205(2) -0.2848(4) 0.1405(3)
H8C H -0.2417 -0.2481 0.1465
N4C N -0.23258(15) -0.3133(3) 0.3205(2)
N5C N -0.29651(14) -0.2874(3) 0.2504(2)
N6C N -0.30295(16) -0.4114(3) 0.1785(3)
C13C C -0.1999(2) -0.3289(4) 0.3550(4)
C17C C -0.25208(18) -0.2456(3) 0.3332(3)
C18C C -0.28955(16) -0.2313(3) 0.2930(3)
C19C C -0.32753(17) -0.2827(3) 0.2072(3)
C20C C -0.33169(19) -0.3557(4) 0.1686(3)
C24C C -0.3056(2) -0.4772(4) 0.1443(4)
H9C H -0.1863 -0.3771 0.3483
C14C C -0.1850(2) -0.2786(5) 0.3995(3)
C16C C -0.2399(2) -0.1931(4) 0.3771(3)
O3C O -0.30945(13) -0.1710(2) 0.3039(2)
O4C O -0.35032(12) -0.2270(2) 0.1974(2)
C21C C -0.3625(2) -0.3641(5) 0.1256(4)
C23C C -0.3356(3) -0.4900(5) 0.1013(5)
H16C H -0.2857 -0.5166 0.1504
H10C H -0.1609 -0.2909 0.4220
C15C C -0.2054(2) -0.2092(4) 0.4118(3)
H12C H -0.2548 -0.1463 0.3840
Fe1C Fe -0.34880(2) -0.11820(5) 0.24129(5)
H13C H -0.3814 -0.3234 0.1184
C22C C -0.3652(3) -0.4354(5) 0.0922(5)
H15C H -0.3361 -0.5370 0.0774
H11C H -0.1958 -0.1739 0.4433
H14C H -0.3872 -0.4452 0.0641
C37 C 0.3899(5) -0.3284(13) 0.2471(8)
Cl1 Cl 0.33782(17) -0.3515(4) 0.25077(19)
Cl2 Cl 0.4080(4) -0.3659(10) 0.1848(11)
Cl3 Cl 0.39152(17) -0.2252(3) 0.2457(2)
Cl4 Cl 0.22890(11) -0.48609(19) 0.0000
O7 O 0.2627(4) -0.4364(7) 0.0000
O8 O 0.2109(5) -0.4773(9) 0.0581(7)
O9 O 0.2398(5) -0.5627(8) 0.0000
O8E O 0.2109(5) -0.4773(9) -0.0581(7)
C38 C 0.4087(4) -0.8863(9) 0.0000
Cl5 Cl 0.45469(13) -0.9424(3) 0.0000
Cl6 Cl 0.40537(18) -0.8337(3) 0.06616(17)
Cl6E Cl 0.40537(18) -0.8337(3) -0.06616(17)
C39 C 0.4125(15) -0.9843(19) 0.5000
Cl7 Cl 0.4130(2) -1.0634(5) 0.5000
Cl8 Cl 0.3970(4) -0.9280(5) 0.4298(4)
Cl8E Cl 0.3970(4) -0.9280(5) 0.5702(4)
C40 C 0.1724(6) -0.2581(13) 0.0000
Cl9 Cl 0.14457(19) -0.2526(5) 0.0676(2)
Cl10 Cl 0.20934(14) -0.1811(3) 0.0000
Cl9E Cl 0.14457(19) -0.2526(5) -0.0676(2)
C41 C 0.0671(13) -0.047(2) 0.214(5)
O10 O 0.0677(9) -0.099(2) 0.174(3)
C42 C 0.2919(5) -0.7586(10) 0.0000
O11 O 0.2652(3) -0.8205(7) 0.0000
Cl11 Cl 0.31236(7) -0.02351(15) 0.0000
O12 O 0.3466(3) -0.0726(7) 0.0000
O13 O 0.2767(3) -0.0596(9) 0.0000
O14 O 0.3140(4) 0.0168(11) 0.0525(7)
O14E O 0.3140(4) 0.0168(11) -0.0525(7)
O15 O 0.9976(4) -0.0597(8) 0.0799(11)
O16 O 0.5236(7) -0.3554(16) 0.8287(17)
O17 O 0.5362(3) -0.3415(9) 0.9446(10)
O18 O 0.0726(4) -0.1154(8) 0.0626(15)
Cl12? Cl 0.40877(11) 0.6485(2) 0.48160(15)
O19? O 0.4151(5) 0.6396(10) 0.4178(8)
O20? O 0.4339(5) 0.7051(10) 0.5000
O21? O 0.3663(3) 0.6747(6) 0.5000
O22? O 0.4097(4) 0.5753(8) 0.5000
Cl13? Cl 0.4146(4) 0.6462(8) 0.3106(8)
Cl14? Cl 0.40809(10) 0.6455(2) 0.01793(14)
O23? O 0.4030(6) 0.5712(7) 0.0000
O24? O 0.3774(3) 0.6984(9) 0.0000
O25? O 0.4438(3) 0.6772(6) 0.0000
O26? O 0.4108(5) 0.6425(10) 0.0850(6)
O27? O 0.5239(4) 0.5113(10) 0.9119(10)
loop_
_geom_bond_atom_site_label_1
_geom_bond_atom_site_label_2
_geom_bond_site_symmetry_1
_geom_bond_site_symmetry_2
Ni1 N1 1_555 1_555
Ni2 N7 1_555 1_555
Fe1 O3 1_555 1_555
O1 C6 1_555 1_555
O2 C7 1_555 1_555
O3 C18 1_555 1_555
O4 Fe1 1_555 1_555
O5 Fe1 1_555 1_555
O6 C31 1_555 1_555
N1 C1 1_555 1_555
N2 Ni1 1_555 1_555
N3 Ni1 1_555 1_555
N4 Ni1 1_555 1_555
N5 Ni1 1_555 1_555
N6 Ni1 1_555 1_555
N7 C25 1_555 1_555
N8 Ni2 1_555 1_555
N9 Ni2 1_555 1_555
C1 H1 1_555 1_555
C2 C1 1_555 1_555
H2 C2 1_555 1_555
C3 C2 1_555 1_555
H3 C3 1_555 1_555
C4 C3 1_555 1_555
H4 C4 1_555 1_555
C5 N1 1_555 1_555
C6 N2 1_555 1_555
C7 N2 1_555 1_555
C8 N3 1_555 1_555
C9 C8 1_555 1_555
H5 C9 1_555 1_555
C10 C9 1_555 1_555
H6 C10 1_555 1_555
C11 C10 1_555 1_555
H7 C11 1_555 1_555
C12 N3 1_555 1_555
H8 C12 1_555 1_555
C13 N4 1_555 1_555
H9 C13 1_555 1_555
C14 C13 1_555 1_555
H10 C14 1_555 1_555
C15 C14 1_555 1_555
H11 C15 1_555 1_555
C16 C15 1_555 1_555
H12 C16 1_555 1_555
C17 N4 1_555 1_555
C18 N5 1_555 1_555
C19 O4 1_555 1_555
C20 N6 1_555 1_555
C21 C20 1_555 1_555
H13 C21 1_555 1_555
C22 C21 1_555 1_555
H14 C22 1_555 1_555
C23 C22 1_555 1_555
H15 C23 1_555 1_555
C24 N6 1_555 1_555
H16 C24 1_555 1_555
C25 H17 1_555 1_555
C26 C25 1_555 1_555
H18 C26 1_555 1_555
C27 C26 1_555 1_555
H19 C27 1_555 1_555
C28 C27 1_555 1_555
H20 C28 1_555 1_555
C29 N7 1_555 1_555
C30 O5 1_555 1_555
C31 N8A 1_555 1_555
C32 N9 1_555 1_555
C33 C32 1_555 1_555
H21 C33 1_555 1_555
C34 C33 1_555 1_555
H22 C34 1_555 1_555
C35 C34 1_555 1_555
H23 C35 1_555 1_555
C36 N9 1_555 1_555
H24 C36 1_555 1_555
C37 Cl1 1_555 1_555
Cl2 C37 1_555 1_555
Cl3 C37 1_555 1_555
Cl4 O7 1_555 1_555
O8 Cl4 1_555 1_555
O9 Cl4 1_555 1_555
C38 Cl5 1_555 1_555
Cl6 C38 1_555 1_555
C39 Cl7 1_555 1_555
Cl8 C39 1_555 1_555
C40 Cl9 1_555 1_555
Cl10 C40 1_555 1_555
C41 O10 1_555 1_555
C42 O11 1_555 1_555
Cl11 O12 1_555 1_555
O13 Cl11 1_555 1_555
O14 Cl11 1_555 1_555
Fe1B O1 1_555 1_555
O1B Fe1 1_555 1_555
O2B Fe1 1_555 1_555
N7A Ni2 1_555 1_555
C25A N7A 1_555 1_555
H17A C25A 1_555 1_555
C26A C25A 1_555 1_555
H18A C26A 1_555 1_555
C27A C26A 1_555 1_555
H19A C27A 1_555 1_555
C28A C27A 1_555 1_555
H20A C28A 1_555 1_555
C29A N7A 1_555 1_555
C30A C29A 1_555 1_555
O5A C30A 1_555 1_555
Fe1A O6 1_555 1_555
O1C Fe1A 1_555 1_555
C6C O1C 1_555 1_555
N2C C6C 1_555 1_555
Ni1C N2C 1_555 1_555
N1C Ni1C 1_555 1_555
C1C N1C 1_555 1_555
H1C C1C 1_555 1_555
C2C C1C 1_555 1_555
H2C C2C 1_555 1_555
C3C C2C 1_555 1_555
H3C C3C 1_555 1_555
C4C C3C 1_555 1_555
H4C C4C 1_555 1_555
C5C C6C 1_555 1_555
N3C Ni1C 1_555 1_555
C8C N3C 1_555 1_555
C7C N2C 1_555 1_555
O2C Fe1A 1_555 1_555
O3A Fe1A 1_555 1_555
O4A Fe1A 1_555 1_555
N8A Ni2 1_555 1_555
C31A N8 1_555 1_555
O6A Fe1 1_555 1_555
N9A Ni2 1_555 1_555
C32A C31 1_555 1_555
C33A C32A 1_555 1_555
H21A C33A 1_555 1_555
C34A C33A 1_555 1_555
H22A C34A 1_555 1_555
C35A C34A 1_555 1_555
H23A C35A 1_555 1_555
C36A N9A 1_555 1_555
H24A C36A 1_555 1_555
C9C C8C 1_555 1_555
H5C C9C 1_555 1_555
C10C C9C 1_555 1_555
H6C C10C 1_555 1_555
C11C C10C 1_555 1_555
H7C C11C 1_555 1_555
C12C N3C 1_555 1_555
H8C C12C 1_555 1_555
N4C Ni1C 1_555 1_555
N5C Ni1C 1_555 1_555
N6C Ni1C 1_555 1_555
C13C N4C 1_555 1_555
C17C N4C 1_555 1_555
C18C N5C 1_555 1_555
C19C N5C 1_555 1_555
C20C N6C 1_555 1_555
C24C N6C 1_555 1_555
H9C C13C 1_555 1_555
C14C C13C 1_555 1_555
C16C C17C 1_555 1_555
O3C C18C 1_555 1_555
O4C C19C 1_555 1_555
C21C C20C 1_555 1_555
C23C C24C 1_555 1_555
H16C C24C 1_555 1_555
H10C C14C 1_555 1_555
C15C C14C 1_555 1_555
H12C C16C 1_555 1_555
Fe1C O3C 1_555 1_555
H13C C21C 1_555 1_555
C22C C21C 1_555 1_555
H15C C23C 1_555 1_555
H11C C15C 1_555 1_555
H14C C22C 1_555 1_555
O8E Cl4 1_555 1_555
Cl6E C38 1_555 1_555
Cl8E C39 1_555 1_555
Cl9E C40 1_555 1_555
O14E Cl11 1_555 1_555
O2 Fe1B 1_555 1_555
N5 C19 1_555 1_555
N8 C30 1_555 1_555
C4 C5 1_555 1_555
C5 C6 1_555 1_555
C7 C8 1_555 1_555
C11 C12 1_555 1_555
C16 C17 1_555 1_555
C17 C18 1_555 1_555
C19 C20 1_555 1_555
C23 C24 1_555 1_555
C28 C29 1_555 1_555
C29 C30 1_555 1_555
C32 C31A 1_555 1_555
C35 C36 1_555 1_555
C28A C29A 1_555 1_555
C30A N8A 1_555 1_555
O5A Fe1A 1_555 1_555
N1C C5C 1_555 1_555
C4C C5C 1_555 1_555
C8C C7C 1_555 1_555
C7C O2C 1_555 1_555
C31A O6A 1_555 1_555
N9A C32A 1_555 1_555
C35A C36A 1_555 1_555
C11C C12C 1_555 1_555
C17C C18C 1_555 1_555
C19C C20C 1_555 1_555
C16C C15C 1_555 1_555
O4C Fe1C 1_555 1_555
C23C C22C 1_555 1_555

#END
