
#######################################################################
#
#                 Cambridge Crystallographic Data Centre
#                                CCDC 
#
#######################################################################
#
# If this CIF has been generated from an entry in the Cambridge 
# Structural Database, then it will include bibliographic, chemical, 
# crystal, experimental, refinement or atomic coordinate data resulting 
# from the CCDC's data processing and validation procedures.
#
#######################################################################

data_XAFLOH
_symmetry_cell_setting           triclinic
_symmetry_space_group_name_H-M   'P -1'
_symmetry_Int_Tables_number      2
_space_group_name_Hall           '-P 1'
loop_
_symmetry_equiv_pos_site_id
_symmetry_equiv_pos_as_xyz
1 x,y,z
2 -x,-y,-z
_cell_length_a                   7.2550(2)
_cell_length_b                   8.1110(2)
_cell_length_c                   16.9310(4)
_cell_angle_alpha                80.4080(10)
_cell_angle_beta                 78.6810(10)
_cell_angle_gamma                89.6740(10)
_cell_volume                     962.897
loop_
_atom_site_label
_atom_site_type_symbol
_atom_site_fract_x
_atom_site_fract_y
_atom_site_fract_z
C1 C -0.3243(15) -0.0386(13) 0.0882(6)
H1 H -0.4531 -0.0316 0.1126
C2 C -0.2083(14) -0.1515(12) 0.1261(6)
C3 C -0.0207(14) -0.1586(12) 0.0959(6)
H2 H 0.0560 -0.2312 0.1248
C4 C 0.0588(13) -0.0555(12) 0.0204(6)
C5 C -0.2508(14) 0.0599(14) 0.0168(7)
H3 H -0.3303 0.1346 -0.0094
O1 O -0.1619(9) -0.3825(8) 0.2471(4)
O2 O -0.3965(9) -0.1760(9) 0.2756(4)
O3 O -0.4525(9) -0.3892(9) 0.1980(4)
S1 S -0.3125(3) -0.2843(3) 0.21788(14)
C6 C 0.2485(14) -0.6484(12) 0.0688(6)
H4 H 0.3604 -0.6945 0.0833
C7 C 0.0728(12) -0.6842(11) 0.1238(6)
C8 C -0.0907(13) -0.6246(12) 0.1042(6)
H5 H -0.2065 -0.6535 0.1413
C9 C -0.0882(13) -0.5184(12) 0.0277(6)
C10 C 0.2553(14) -0.5470(14) -0.0052(6)
H6 H 0.3728 -0.5206 -0.0415
O4 O 0.1016(9) -0.6859(9) 0.2739(4)
O5 O -0.1147(9) -0.8844(8) 0.2464(4)
O6 O 0.2210(9) -0.9213(8) 0.2099(4)
S2 S 0.0692(3) -0.8035(3) 0.22033(14)
O7 O 0.2032(9) -0.3005(9) 0.2620(4)
O8 O -0.4925(10) 0.2003(10) 0.2646(5)
O9 O -0.3126(9) -0.6755(8) 0.3739(4)
O10 O -0.0855(9) -0.6520(8) 0.5124(4)
O11 O -0.0819(8) 0.0691(8) 0.4498(4)
O12 O -0.5770(9) 0.1552(8) 0.4859(4)
O13 O 0.3052(9) -0.5674(8) 0.3848(4)
O14 O -0.3717(8) -0.4298(8) 0.4496(4)
O15 O -0.6970(9) -0.0729(9) 0.3879(4)
O16 O -0.0711(9) -0.1763(8) 0.3741(4)
La1 La -0.03323(7) -0.48556(6) 0.37024(3)
La2 La -0.34937(7) 0.01408(6) 0.37284(3)
W1 W -0.07814(5) -0.86908(4) 0.55628(2)
W2 W -0.52622(5) -0.62816(4) 0.44272(2)
C1A C 0.3243(15) 0.0386(13) -0.0882(6)
H1A H 0.4531 0.0316 -0.1126
C2A C 0.2083(14) 0.1515(12) -0.1261(6)
C3A C 0.0207(14) 0.1586(12) -0.0959(6)
H2A H -0.0560 0.2312 -0.1248
C4A C -0.0588(13) 0.0555(12) -0.0204(6)
C5A C 0.2508(14) -0.0599(14) -0.0168(7)
H3A H 0.3303 -0.1346 0.0094
O1A O 0.1619(9) 0.3825(8) -0.2471(4)
O2A O 0.3965(9) 0.1760(9) -0.2756(4)
O3A O 0.4525(9) 0.3892(9) -0.1980(4)
S1A S 0.3125(3) 0.2843(3) -0.21788(14)
C6A C -0.2485(14) -0.3516(12) -0.0688(6)
H4A H -0.3604 -0.3055 -0.0833
C7A C -0.0728(12) -0.3158(11) -0.1238(6)
C8A C 0.0907(13) -0.3754(12) -0.1042(6)
H5A H 0.2065 -0.3465 -0.1413
C9A C 0.0882(13) -0.4816(12) -0.0277(6)
C10A C -0.2553(14) -0.4530(14) 0.0052(6)
H6A H -0.3728 -0.4794 0.0415
O4A O -0.1016(9) -0.3141(9) -0.2739(4)
O4A_2 O -0.1016(9) 0.6859(9) -0.2739(4)
O5A O 0.1147(9) -0.1156(8) -0.2464(4)
O5_2 O -0.1147(9) 0.1156(8) 0.2464(4)
O6A O -0.2210(9) -0.0787(8) -0.2099(4)
S2A S -0.0692(3) -0.1965(3) -0.22033(14)
O7A O -0.2032(9) 0.3005(9) -0.2620(4)
O8A O 0.4925(10) -0.2003(10) -0.2646(5)
O9_2 O -0.3126(9) 0.3245(8) 0.3739(4)
O9A O 0.3126(9) 0.6755(8) -0.3739(4)
O9A_2 O 0.3126(9) -0.3245(8) -0.3739(4)
O9_3 O 0.6874(9) -0.6755(8) 0.3739(4)
O10A O 0.0855(9) -0.3480(8) 0.4876(4)
O10A_2 O 0.0855(9) 0.6520(8) -0.5124(4)
O10_2 O -0.0855(9) 0.3480(8) -0.4876(4)
O11_2 O -0.0819(8) -0.9309(8) 0.4498(4)
O11A O 0.0819(8) -1.0691(8) 0.5502(4)
O11A_2 O 0.0819(8) -0.0691(8) -0.4498(4)
O11A_3 O 0.0819(8) -0.0691(8) 0.5502(4)
O12A O -0.4230(9) -0.1552(8) 0.5141(4)
O12_2 O -0.5770(9) -0.8448(8) 0.4859(4)
O12A_2 O 0.5770(9) -0.1552(8) -0.4859(4)
O12_3 O 0.4230(9) 0.1552(8) -0.5141(4)
O12_4 O 0.4230(9) -0.8448(8) 0.4859(4)
O13_2 O -0.6948(9) -0.5674(8) 0.3848(4)
O13A O -0.3052(9) 0.5674(8) -0.3848(4)
O14A O -0.6283(8) -0.5702(8) 0.5504(4)
O14A_2 O 0.3717(8) 0.4298(8) -0.4496(4)
O14A_3 O 0.3717(8) -0.5702(8) 0.5504(4)
O14_2 O 0.6283(8) -0.4298(8) 0.4496(4)
O15A O -0.3030(9) -0.9271(9) 0.6121(4)
O15A_2 O 0.6970(9) 0.0729(9) -0.3879(4)
O15_2 O 0.3030(9) -0.0729(9) 0.3879(4)
O16A O 0.0711(9) -0.8237(8) 0.6259(4)
O16A_2 O 0.0711(9) 0.1763(8) -0.3741(4)
La1A La 0.03323(7) 0.48556(6) -0.37024(3)
La1A_2 La 0.03323(7) -0.51444(6) 0.62976(3)
La1A_3 La 0.03323(7) -0.51444(6) -0.37024(3)
La1_2 La -0.03323(7) 0.51444(6) 0.37024(3)
La1_3 La -1.03323(7) -0.48556(6) 0.37024(3)
La1A_4 La -0.96677(7) -0.51444(6) 0.62976(3)
La2A La 0.34937(7) -0.01408(6) -0.37284(3)
La2_2 La -0.34937(7) -0.98592(6) 0.37284(3)
La2A_2 La -0.65063(7) -0.01408(6) 0.62716(3)
La2A_3 La -0.65063(7) -1.01408(6) 0.62716(3)
La2A_4 La 0.34937(7) -1.01408(6) 0.62716(3)
W1A W 0.07814(5) -0.13092(4) 0.44372(2)
W1_2 W -0.07814(5) 0.13092(4) 0.55628(2)
W1A_2 W -0.92186(5) -0.13092(4) 0.44372(2)
W1A_3 W 0.07814(5) -1.13092(4) 0.44372(2)
W2_2 W 0.47378(5) -0.62816(4) 0.44272(2)
W2_3 W -0.52622(5) 0.37184(4) 0.44272(2)
W2A W -0.47378(5) -0.37184(4) 0.55728(2)
loop_
_geom_bond_atom_site_label_1
_geom_bond_atom_site_label_2
_geom_bond_site_symmetry_1
_geom_bond_site_symmetry_2
C1 H1 1_555 1_555
C2 C1 1_555 1_555
C3 C2 1_555 1_555
H2 C3 1_555 1_555
C4 C3 1_555 1_555
C5 C1 1_555 1_555
H3 C5 1_555 1_555
O1 S1 1_555 1_555
O2 S1 1_555 1_555
O3 S1 1_555 1_555
S1 C2 1_555 1_555
C6 H4 1_555 1_555
C7 C6 1_555 1_555
C8 C7 1_555 1_555
H5 C8 1_555 1_555
C9 C8 1_555 1_555
C10 C6 1_555 1_555
H6 C10 1_555 1_555
O4 S2 1_555 1_555
O5 S2 1_555 1_555
O6 S2 1_555 1_555
S2 C7 1_555 1_555
O7 La1 1_555 1_555
O8 La2 1_555 1_555
O9 La1 1_555 1_555
O10 La1 1_555 1_555
O11 La2 1_555 1_555
O12 La2 1_555 1_555
O13 La1 1_555 1_555
O14 La1 1_555 1_555
O15 La2 1_555 1_555
O16 La1 1_555 1_555
La1 O1 1_555 1_555
La2 O2 1_555 1_555
W1 O10 1_555 1_555
W2 O9 1_555 1_555
C1A H1A 1_555 1_555
C2A C1A 1_555 1_555
C3A C2A 1_555 1_555
H2A C3A 1_555 1_555
C4A C4 1_555 1_555
C5A C4 1_555 1_555
H3A C5A 1_555 1_555
O1A S1A 1_555 1_555
O2A S1A 1_555 1_555
O3A S1A 1_555 1_555
S1A C2A 1_555 1_555
C6A H4A 1_555 1_555
C7A C6A 1_555 1_555
C8A C7A 1_555 1_555
H5A C8A 1_555 1_555
C9A C9 1_555 1_555
C10A C9 1_555 1_555
H6A C10A 1_555 1_555
O4A S2A 1_555 1_555
O4A_2 La1A 1_555 1_555
O5A S2A 1_555 1_555
O5_2 La2 1_555 1_555
O6A S2A 1_555 1_555
S2A C7A 1_555 1_555
O7A La1A 1_555 1_555
O8A La2A 1_555 1_555
O9_2 La2 1_555 1_555
O9A La1A 1_555 1_555
O9A_2 La1A_3 1_555 1_555
O9_3 W2_2 1_555 1_555
O10A La1 1_555 1_555
O10A_2 La1A 1_555 1_555
O10_2 La1A 1_555 1_555
O11_2 W1 1_555 1_555
O11A W1 1_555 1_555
O11A_2 La2A 1_555 1_555
O11A_3 W1A 1_555 1_555
O12A La2 1_555 1_555
O12_2 W2 1_555 1_555
O12A_2 La2A 1_555 1_555
O12_3 La2A 1_555 1_555
O12_4 La2A_4 1_555 1_555
O13_2 W2 1_555 1_555
O13A La1A 1_555 1_555
O14A W2 1_555 1_555
O14A_2 La1A 1_555 1_555
O14A_3 La1A_2 1_555 1_555
O14_2 W2_2 1_555 1_555
O15A W1 1_555 1_555
O15A_2 La2A 1_555 1_555
O15_2 W1A 1_555 1_555
O16A W1 1_555 1_555
O16A_2 La1A 1_555 1_555
La1A O1A 1_555 1_555
La1A_2 O10 1_555 1_555
La1A_3 O4A 1_555 1_555
La1_2 O9_2 1_555 1_555
La1_3 O13_2 1_555 1_555
La1A_4 O14A 1_555 1_555
La2A O2A 1_555 1_555
La2_2 O5 1_555 1_555
La2A_2 O12 1_555 1_555
La2A_3 O12_2 1_555 1_555
La2A_4 O11A 1_555 1_555
W1A O11 1_555 1_555
W1_2 O11 1_555 1_555
W1A_2 O15 1_555 1_555
W1A_3 O11_2 1_555 1_555
W2_2 O13 1_555 1_555
W2_3 O12 1_555 1_555
W2A O14 1_555 1_555
C5 C4A 1_555 1_555
C10 C9A 1_555 1_555
O4 La1 1_555 1_555
O9 La2_2 1_555 1_555
O14 W2 1_555 1_555
O16 La2 1_555 1_555
O16 W1A 1_555 1_555
C1A C5A 1_555 1_555
C3A C4A 1_555 1_555
C6A C10A 1_555 1_555
C8A C9A 1_555 1_555
O5A La2A 1_555 1_555
O9_2 W2_3 1_555 1_555
O9A_2 La2A 1_555 1_555
O10A La1A_2 1_555 1_555
O10A W1A 1_555 1_555
O11_2 La2_2 1_555 1_555
O11A W1A_3 1_555 1_555
O11A_3 W1_2 1_555 1_555
O12A La2A_2 1_555 1_555
O12A W2A 1_555 1_555
O12_2 La2_2 1_555 1_555
O12_4 W2_2 1_555 1_555
O14A W2A 1_555 1_555
O14A_3 W2_2 1_555 1_555
O15A La2A_3 1_555 1_555
O16A La1A_2 1_555 1_555
O16A La2A_4 1_555 1_555
O16A_2 La2A 1_555 1_555

#END
