
#######################################################################
#
#                 Cambridge Crystallographic Data Centre
#                                CCDC 
#
#######################################################################
#
# If this CIF has been generated from an entry in the Cambridge 
# Structural Database, then it will include bibliographic, chemical, 
# crystal, experimental, refinement or atomic coordinate data resulting 
# from the CCDC's data processing and validation procedures.
#
#######################################################################

data_XAFLAT
_symmetry_cell_setting           monoclinic
_symmetry_space_group_name_H-M   'P 21/c'
_symmetry_Int_Tables_number      14
_space_group_name_Hall           '-P 2ybc'
loop_
_symmetry_equiv_pos_site_id
_symmetry_equiv_pos_as_xyz
1 x,y,z
2 -x,1/2+y,1/2-z
3 -x,-y,-z
4 x,1/2-y,1/2+z
_cell_length_a                   16.9552(9)
_cell_length_b                   7.3924(4)
_cell_length_c                   7.5290(4)
_cell_angle_alpha                90
_cell_angle_beta                 91.079(3)
_cell_angle_gamma                90
_cell_volume                     943.515
loop_
_atom_site_label
_atom_site_type_symbol
_atom_site_fract_x
_atom_site_fract_y
_atom_site_fract_z
Nd1 Nd 0.15422(2) 0.41046(6) 0.26338(5)
O1 O 0.1297(3) 0.7322(8) 0.2354(8)
O2 O 0.0161(3) 0.4202(8) 0.2876(7)
O3 O 0.2551(3) 0.5762(8) 0.4351(7)
O4 O 0.1056(3) 0.4507(8) -0.0455(7)
O5 O 0.1266(3) 0.3977(7) 0.5926(7)
O6 O 0.2631(3) 0.2099(8) 0.3431(8)
Mo1 Mo 0.08575(4) 0.94643(9) 0.24818(9)
S1 S 0.30181(11) 0.0496(2) 0.4147(3)
O7 O 0.3000(3) -0.1018(7) 0.2904(7)
O8 O 0.2718(3) -0.0011(8) 0.5867(7)
C1 C 0.4030(4) 0.1091(11) 0.4413(10)
C2 C 0.4261(5) 0.2766(11) 0.3879(11)
H1 H 0.3878 0.3636 0.3517
C3 C 0.4592(4) -0.0246(11) 0.5009(10)
C4 C 0.4378(5) -0.1981(10) 0.5636(10)
H2 H 0.3836 -0.2293 0.5709
C5 C 0.5065(5) 0.3204(11) 0.3865(11)
H3 H 0.5222 0.4378 0.3499
Nd1C Nd 0.15422(2) 0.08954(6) 0.76338(5)
Nd1B Nd 0.84578(2) -0.41046(6) 0.73662(5)
Nd1A Nd 0.84578(2) -0.08954(6) 0.23662(5)
O1B O 0.8703(3) -0.7322(8) 0.7646(8)
O2A O -0.0161(3) 0.9202(8) 0.2124(7)
O2B O 0.9839(3) -0.4202(8) 0.7124(7)
O2C O 1.0161(3) -0.9202(8) 0.7876(7)
O3B O 0.7449(3) -0.5762(8) 0.5649(7)
O4C O 0.1056(3) 1.0493(8) 0.4545(7)
O4B O 0.8944(3) -0.4507(8) 1.0455(7)
O4A O 0.8944(3) -1.0493(8) 0.5455(7)
O5C O 0.1266(3) 0.1023(7) 0.0926(7)
O5C_2 O 0.1266(3) 1.1023(7) 0.0926(7)
O5A O 0.8734(3) -0.1023(7) 0.9074(7)
O5B O 0.8734(3) -0.3977(7) 0.4074(7)
O5A_2 O 0.8734(3) -1.1023(7) 0.9074(7)
O6B O 0.7369(3) -0.2099(8) 0.6569(8)
Mo1A Mo -0.08575(4) 0.44643(9) 0.25182(9)
Mo1C Mo 0.08575(4) 0.55357(9) -0.25182(9)
Mo1C_2 Mo 0.08575(4) 0.55357(9) 0.74818(9)
Mo1B Mo 0.91425(4) -0.94643(9) 0.75182(9)
Mo1C_3 Mo 1.08575(4) -0.44643(9) 0.74818(9)
Mo1A_2 Mo 0.91425(4) -0.55357(9) 1.25182(9)
Mo1A_3 Mo 0.91425(4) -0.55357(9) 0.25182(9)
S1B S 0.69819(11) -0.0496(2) 0.5853(3)
O7B O 0.7000(3) 0.1018(7) 0.7096(7)
O8B O 0.7282(3) 0.0011(8) 0.4133(7)
O8C O 0.2718(3) 0.5011(8) 0.0867(7)
O8A O 0.7282(3) -0.5011(8) 0.9133(7)
C1B C 0.5970(4) -0.1091(11) 0.5587(10)
C2B C 0.5739(5) -0.2766(11) 0.6121(11)
H1B H 0.6122 -0.3636 0.6483
C3B C 0.5408(4) 0.0246(11) 0.4991(10)
C4B C 0.5622(5) 0.1981(10) 0.4364(10)
H2B H 0.6164 0.2293 0.4291
C5B C 0.4935(5) -0.3204(11) 0.6135(11)
H3B H 0.4778 -0.4378 0.6501
loop_
_geom_bond_atom_site_label_1
_geom_bond_atom_site_label_2
_geom_bond_site_symmetry_1
_geom_bond_site_symmetry_2
Nd1 O1 1_555 1_555
O1 Mo1 1_555 1_555
O2 Nd1 1_555 1_555
O3 Nd1 1_555 1_555
O4 Nd1 1_555 1_555
O5 Nd1 1_555 1_555
O6 Nd1 1_555 1_555
Mo1 O2A 1_555 1_555
S1 O6 1_555 1_555
O7 S1 1_555 1_555
O8 S1 1_555 1_555
C1 S1 1_555 1_555
C2 C1 1_555 1_555
H1 C2 1_555 1_555
C3 C1 1_555 1_555
C4 C3 1_555 1_555
H2 C4 1_555 1_555
C5 C2 1_555 1_555
H3 C5 1_555 1_555
Nd1C O5 1_555 1_555
Nd1B O1B 1_555 1_555
Nd1A O5B 1_555 1_555
O1B Mo1B 1_555 1_555
O2B Nd1B 1_555 1_555
O2C Mo1B 1_555 1_555
O3B Nd1B 1_555 1_555
O4C Mo1 1_555 1_555
O4B Nd1B 1_555 1_555
O4A Mo1B 1_555 1_555
O5C Nd1 1_555 1_555
O5C_2 Mo1 1_555 1_555
O5A Nd1B 1_555 1_555
O5B Nd1B 1_555 1_555
O5A_2 Mo1B 1_555 1_555
O6B Nd1B 1_555 1_555
Mo1A O2 1_555 1_555
Mo1C O4 1_555 1_555
Mo1C_2 O5 1_555 1_555
Mo1C_3 O2B 1_555 1_555
Mo1A_2 O4B 1_555 1_555
Mo1A_3 O5B 1_555 1_555
S1B O6B 1_555 1_555
O7B S1B 1_555 1_555
O8B Nd1A 1_555 1_555
O8C Nd1 1_555 1_555
O8A Nd1B 1_555 1_555
C1B S1B 1_555 1_555
C2B C1B 1_555 1_555
H1B C2B 1_555 1_555
C3B C3 1_555 1_555
C4B C5 1_555 1_555
H2B C4B 1_555 1_555
C5B C4 1_555 1_555
H3B C5B 1_555 1_555
O8 Nd1C 1_555 1_555
S1B O8B 1_555 1_555
C1B C3B 1_555 1_555
C2B C5B 1_555 1_555
C3B C4B 1_555 1_555

#END
