
#######################################################################
#
#                 Cambridge Crystallographic Data Centre
#                                CCDC 
#
#######################################################################
#
# If this CIF has been generated from an entry in the Cambridge 
# Structural Database, then it will include bibliographic, chemical, 
# crystal, experimental, refinement or atomic coordinate data resulting 
# from the CCDC's data processing and validation procedures.
#
#######################################################################

data_XAFLEX01
_symmetry_cell_setting           triclinic
_symmetry_space_group_name_H-M   'P -1'
_symmetry_Int_Tables_number      2
_space_group_name_Hall           '-P 1'
loop_
_symmetry_equiv_pos_site_id
_symmetry_equiv_pos_as_xyz
1 x,y,z
2 -x,-y,-z
_cell_length_a                   7.2720(15)
_cell_length_b                   7.4040(15)
_cell_length_c                   18.131(4)
_cell_angle_alpha                86.13(3)
_cell_angle_beta                 78.47(3)
_cell_angle_gamma                89.29(3)
_cell_volume                     954.326
loop_
_atom_site_label
_atom_site_type_symbol
_atom_site_fract_x
_atom_site_fract_y
_atom_site_fract_z
C1 C 0.209(2) 0.439(2) 0.8763(9)
C2 C 0.018(2) 0.416(2) 0.9050(8)
H1 H -0.0590 0.3661 0.8750
C3 C -0.060(2) 0.465(2) 0.9772(9)
C4 C -0.248(3) 0.432(3) 1.0105(11)
H2 H -0.3254 0.3747 0.9824
C5 C 0.325(3) 0.5234(19) 0.9185(10)
H3 H 0.4535 0.5481 0.8975
C6 C -0.090(2) 0.899(2) 0.8820(8)
C7 C -0.258(3) 0.895(2) 0.9389(10)
H4 H -0.3728 0.8564 0.9273
C8 C -0.255(2) 0.946(2) 1.0095(10)
H5 H -0.3671 0.9428 1.0472
C9 C -0.081(2) 1.005(2) 1.0263(8)
C10 C 0.075(2) 0.944(2) 0.9007(9)
H6 H 0.1878 0.9411 0.8639
O1 O 0.4568(15) 0.2337(14) 0.8020(6)
O2 O 0.1701(14) 0.2913(15) 0.7548(6)
O3 O 0.4043(16) 0.5279(14) 0.7461(6)
O4 O -0.2574(15) 0.7243(14) 0.8003(6)
O5 O 0.0725(14) 0.7699(15) 0.7573(6)
O6 O -0.1373(15) 1.0206(14) 0.7509(6)
O7 O 0.4442(14) 0.8893(14) 0.7484(6)
O8 O -0.1945(14) 0.3777(14) 0.7520(6)
O9 O -0.2924(14) 0.2235(14) 0.6247(6)
O10 O 0.0323(14) 0.5653(14) 0.6234(6)
O11 O 0.4013(15) 0.4455(14) 0.5938(6)
O12 O 0.0752(14) 0.2843(14) 0.5157(5)
O13 O 0.3399(14) 0.0748(14) 0.6236(5)
O14 O 0.4037(15) 0.7951(15) 0.5154(6)
O15 O 0.6679(14) 0.7364(14) 0.6220(6)
O16 O 0.0126(14) -0.0657(14) 0.5982(6)
S1 S 0.3164(5) 0.3674(5) 0.7885(2)
S2 S -0.1034(5) 0.8482(5) 0.7907(2)
Mo1 Mo 0.51517(17) 0.23799(16) 0.58071(7)
Mo2 Mo -0.09456(17) 0.73717(16) 0.58021(7)
Nd1 Nd 0.01840(11) 0.23610(10) 0.64935(4)
Nd2 Nd 0.32995(11) 0.74381(10) 0.64687(4)
C1A C -0.209(2) 0.561(2) 1.1237(9)
C2A C -0.018(2) 0.584(2) 1.0950(8)
H1A H 0.0590 0.6339 1.1250
C3A C 0.060(2) 0.535(2) 1.0228(9)
C4A C 0.248(3) 0.568(3) 0.9895(11)
H2A H 0.3254 0.6253 1.0176
C5A C -0.325(3) 0.4766(19) 1.0815(10)
H3A H -0.4535 0.4519 1.1025
O1A O -0.4568(15) 0.7663(14) 1.1980(6)
O2A O -0.1701(14) 0.7087(15) 1.2452(6)
O3A O -0.4043(16) 0.4721(14) 1.2539(6)
S1A S -0.3164(5) 0.6326(5) 1.2115(2)
C6A C 0.090(2) 1.101(2) 1.1180(8)
C7A C 0.258(3) 1.105(2) 1.0611(10)
H4A H 0.3728 1.1436 1.0727
C8A C 0.255(2) 1.054(2) 0.9905(10)
H5A H 0.3671 1.0572 0.9528
C9A C 0.081(2) 0.995(2) 0.9737(8)
C10A C -0.075(2) 1.056(2) 1.0993(9)
H6A H -0.1878 1.0589 1.1361
O4A O 0.2574(15) 1.2757(14) 1.1997(6)
O5A O -0.0725(14) 1.2301(15) 1.2427(6)
S2A S 0.1034(5) 1.1518(5) 1.2093(2)
O6A O 0.1373(15) 0.9794(14) 1.2491(6)
O7A O -0.4442(14) 0.1107(14) 0.2516(6)
O8A O 0.1945(14) 0.6223(14) 0.2480(6)
O9A O 0.2924(14) 0.7765(14) 0.3753(6)
O10A O -0.0323(14) 0.4347(14) 0.3766(6)
O11A O -0.4013(15) 0.5545(14) 0.4062(6)
O12A O -0.0752(14) 0.7157(14) 0.4843(5)
O13A O -0.3399(14) 0.9252(14) 0.3764(5)
O14A O -0.4037(15) 0.2049(15) 0.4846(6)
O15A O -0.6679(14) 0.2636(14) 0.3780(6)
O16A O -0.0126(14) 1.0657(14) 0.4018(6)
Mo1A Mo -0.51517(17) 0.76201(16) 0.41929(7)
Mo2A Mo 0.09456(17) 0.26283(16) 0.41979(7)
Nd1A Nd -0.01840(11) 0.76390(10) 0.35065(4)
Nd2A Nd -0.32995(11) 0.25619(10) 0.35313(4)
O2A_2 O -0.1701(14) 0.7087(15) 0.2452(6)
O3A_2 O -0.4043(16) 0.4721(14) 0.2539(6)
O5A_2 O -0.0725(14) 0.2301(15) 0.2427(6)
O6_2 O -0.1373(15) 0.0206(14) 0.7509(6)
O6A_2 O 0.1373(15) 0.9794(14) 0.2491(6)
O9_2 O 0.7076(14) 0.2235(14) 0.6247(6)
O9A_2 O -0.7076(14) 0.7765(14) 0.3753(6)
O13_2 O 0.3399(14) 1.0748(14) 0.6236(5)
O13A_2 O -0.3399(14) -0.0748(14) 0.3764(5)
O14_2 O -0.5963(15) 0.7951(15) 0.5154(6)
O14A_2 O 0.5963(15) 0.2049(15) 0.4846(6)
O15_2 O -0.3321(14) 0.7364(14) 0.6220(6)
O15A_2 O 0.3321(14) 0.2636(14) 0.3780(6)
O16_2 O 0.0126(14) 0.9343(14) 0.5982(6)
O16A_2 O -0.0126(14) 0.0657(14) 0.4018(6)
Mo1_2 Mo -0.48483(17) 0.23799(16) 0.58071(7)
Mo1A_2 Mo 0.48483(17) 0.76201(16) 0.41929(7)
Mo2_2 Mo -0.09456(17) -0.26283(16) 0.58021(7)
Mo2_3 Mo 0.90544(17) 0.73717(16) 0.58021(7)
Mo2A_2 Mo -0.90544(17) 0.26283(16) 0.41979(7)
Mo2A_3 Mo 0.09456(17) 1.26283(16) 0.41979(7)
Nd1_2 Nd 0.01840(11) 1.23610(10) 0.64935(4)
Nd1A_2 Nd -0.01840(11) 0.76390(10) 1.35065(4)
Nd2_2 Nd 0.32995(11) -0.25619(10) 0.64687(4)
Nd2A_2 Nd -0.32995(11) 0.25619(10) 1.35313(4)
Nd2A_3 Nd -0.32995(11) 1.25619(10) 0.35313(4)
Nd2A_4 Nd -0.32995(11) 1.25619(10) 1.35313(4)
loop_
_geom_bond_atom_site_label_1
_geom_bond_atom_site_label_2
_geom_bond_site_symmetry_1
_geom_bond_site_symmetry_2
C1 C2 1_555 1_555
C2 H1 1_555 1_555
C3 C2 1_555 1_555
C4 C3 1_555 1_555
H2 C4 1_555 1_555
C5 C1 1_555 1_555
H3 C5 1_555 1_555
C6 C7 1_555 1_555
C7 H4 1_555 1_555
C8 C7 1_555 1_555
H5 C8 1_555 1_555
C9 C8 1_555 1_555
C10 C6 1_555 1_555
H6 C10 1_555 1_555
O1 S1 1_555 1_555
O2 S1 1_555 1_555
O3 S1 1_555 1_555
O4 S2 1_555 1_555
O5 S2 1_555 1_555
O6 S2 1_555 1_555
O7 Nd2 1_555 1_555
O8 Nd1 1_555 1_555
O9 Nd1 1_555 1_555
O10 Mo2 1_555 1_555
O11 Mo1 1_555 1_555
O12 Nd1 1_555 1_555
O13 Mo1 1_555 1_555
O14 Nd2 1_555 1_555
O15 Nd2 1_555 1_555
O16 Nd1 1_555 1_555
S1 C1 1_555 1_555
S2 C6 1_555 1_555
Mo1 O9_2 1_555 1_555
Mo2 O12A 1_555 1_555
Nd1 O2 1_555 1_555
Nd2 O3 1_555 1_555
C1A C2A 1_555 1_555
C2A H1A 1_555 1_555
C3A C3 1_555 1_555
C4A C5 1_555 1_555
H2A C4A 1_555 1_555
C5A C4 1_555 1_555
H3A C5A 1_555 1_555
O1A S1A 1_555 1_555
O2A S1A 1_555 1_555
O3A S1A 1_555 1_555
S1A C1A 1_555 1_555
C6A C7A 1_555 1_555
C7A H4A 1_555 1_555
C8A C7A 1_555 1_555
H5A C8A 1_555 1_555
C9A C9 1_555 1_555
C10A C9 1_555 1_555
H6A C10A 1_555 1_555
O4A S2A 1_555 1_555
O5A S2A 1_555 1_555
S2A C6A 1_555 1_555
O6A S2A 1_555 1_555
O7A Nd2A 1_555 1_555
O8A Nd1A 1_555 1_555
O9A Nd1A 1_555 1_555
O10A Mo2A 1_555 1_555
O11A Mo1A 1_555 1_555
O12A Nd1A 1_555 1_555
O13A Mo1A 1_555 1_555
O14A Nd2A 1_555 1_555
O15A Nd2A 1_555 1_555
O16A Nd1A 1_555 1_555
Mo1A O9A_2 1_555 1_555
Mo2A O12 1_555 1_555
Nd1A O10A 1_555 1_555
Nd2A O10A 1_555 1_555
O2A_2 Nd1A 1_555 1_555
O3A_2 Nd2A 1_555 1_555
O5A_2 Nd2A 1_555 1_555
O6_2 Nd1 1_555 1_555
O6A_2 Nd1A 1_555 1_555
O13_2 Nd2 1_555 1_555
O13A_2 Nd2A 1_555 1_555
O14_2 Mo1A 1_555 1_555
O14A_2 Mo1 1_555 1_555
O15_2 Mo2 1_555 1_555
O15A_2 Mo2A 1_555 1_555
O16_2 Mo2 1_555 1_555
O16A_2 Mo2A 1_555 1_555
Mo1_2 O9 1_555 1_555
Mo1A_2 O14 1_555 1_555
Mo2_2 O16 1_555 1_555
Mo2_3 O15 1_555 1_555
Mo2A_2 O15A 1_555 1_555
Mo2A_3 O16A 1_555 1_555
Nd1_2 O6 1_555 1_555
Nd1A_2 O2A 1_555 1_555
Nd2_2 O13 1_555 1_555
Nd2A_2 O3A 1_555 1_555
Nd2A_3 O13A 1_555 1_555
Nd2A_4 O5A 1_555 1_555
C10 C9A 1_555 1_555
O5 Nd2 1_555 1_555
O10 Nd1 1_555 1_555
O10 Nd2 1_555 1_555
O11 Nd2 1_555 1_555
O13 Nd1 1_555 1_555
C1A C5A 1_555 1_555
C2A C3A 1_555 1_555
C3A C4A 1_555 1_555
C6A C10A 1_555 1_555
C8A C9A 1_555 1_555
O6A Nd1A_2 1_555 1_555
O9A Mo1A_2 1_555 1_555
O11A Nd2A 1_555 1_555
O13A Nd1A 1_555 1_555
O14A Mo1_2 1_555 1_555
O13_2 Nd1_2 1_555 1_555
O16_2 Nd1_2 1_555 1_555

#END
