
#######################################################################
#
#                 Cambridge Crystallographic Data Centre
#                                CCDC 
#
#######################################################################
#
# If this CIF has been generated from an entry in the Cambridge 
# Structural Database, then it will include bibliographic, chemical, 
# crystal, experimental, refinement or atomic coordinate data resulting 
# from the CCDC's data processing and validation procedures.
#
#######################################################################

data_XAFLIB
_symmetry_cell_setting           monoclinic
_symmetry_space_group_name_H-M   'P 21/c'
_symmetry_Int_Tables_number      14
_space_group_name_Hall           '-P 2ybc'
loop_
_symmetry_equiv_pos_site_id
_symmetry_equiv_pos_as_xyz
1 x,y,z
2 -x,1/2+y,1/2-z
3 -x,-y,-z
4 x,1/2-y,1/2+z
_cell_length_a                   17.1242(11)
_cell_length_b                   7.4638(5)
_cell_length_c                   7.6228(5)
_cell_angle_alpha                90
_cell_angle_beta                 91.048(4)
_cell_angle_gamma                90
_cell_volume                     974.119
loop_
_atom_site_label
_atom_site_type_symbol
_atom_site_fract_x
_atom_site_fract_y
_atom_site_fract_z
C1 C 0.0963(9) 0.393(2) 0.062(2)
C2 C 0.0741(9) 0.227(2) 0.114(2)
H1 H 0.1124 0.1414 0.1494
C3 C -0.0058(9) 0.181(2) 0.1167(18)
H2 H -0.0211 0.0654 0.1557
C4 C 0.0401(9) 0.524(2) -0.003(2)
C5 C -0.0618(9) 0.303(2) 0.0627(19)
H3 H -0.1155 0.2711 0.0658
O1 O 0.3919(7) 0.4440(16) 0.0492(15)
O2 O 0.3734(7) 0.0942(14) -0.0897(15)
O3 O 0.1973(7) 0.6050(15) 0.2107(14)
O4 O 0.2246(7) 0.5021(17) -0.0850(15)
O5 O 0.2348(7) 0.2951(16) 0.1598(15)
O6 O 0.2403(7) 0.5725(16) -0.4351(15)
H4 H 0.226(12) 0.58(2) -0.542(8)
H5 H 0.222(9) 0.665(13) -0.384(16)
O7 O 0.4855(7) 0.4192(15) -0.2828(13)
O8 O 0.3685(6) 0.7314(15) -0.2435(14)
La1 La 0.34450(5) 0.40829(11) -0.26232(11)
W1 W 0.41341(4) 0.55515(8) 0.25077(8)
S1 S 0.1956(2) 0.4537(5) 0.0875(5)
C1B C -0.0963(9) 0.607(2) -0.062(2)
C2B C -0.0741(9) 0.773(2) -0.114(2)
H1B H -0.1124 0.8586 -0.1494
C3B C 0.0058(9) 0.819(2) -0.1167(18)
H2B H 0.0211 0.9346 -0.1557
C4B C -0.0401(9) 0.476(2) 0.003(2)
C5B C 0.0618(9) 0.697(2) -0.0627(19)
H3B H 0.1155 0.7289 -0.0658
O1C O 0.3919(7) 0.0560(16) -0.4508(15)
O2C O 0.3734(7) 0.4058(14) -0.5897(15)
O2C_2 O 0.3734(7) 0.4058(14) 0.4103(15)
O2_2 O 0.3734(7) 0.0942(14) -1.0897(15)
O3B O -0.1973(7) 0.3950(15) -0.2107(14)
O4B O -0.2246(7) 0.4979(17) 0.0850(15)
O4C O 0.2246(7) -0.0021(17) -0.5850(15)
O5B O -0.2348(7) 0.7049(16) -0.1598(15)
O5C O 0.2348(7) 0.2049(16) -0.3402(15)
O5_2 O 0.2348(7) 0.2951(16) -0.8402(15)
O6C O 0.2403(7) -0.0725(16) -0.9351(15)
H4C H 0.226(12) -0.08(2) -1.042(8)
H5C H 0.222(9) -0.165(13) -0.884(16)
O7B O 0.5145(7) 0.5808(15) 0.2828(13)
O7C O 0.4855(7) 0.0808(15) -0.7828(13)
O7A O 0.5145(7) -0.0808(15) -0.2172(13)
O8C O 0.3685(6) 0.7686(15) 0.2565(14)
O8C_2 O 0.3685(6) -0.2314(15) -0.7435(14)
O8_2 O 0.3685(6) -0.2686(15) -0.2435(14)
La1C La 0.34450(5) 0.09171(11) -0.76232(11)
La1C_2 La 0.34450(5) 0.09171(11) 0.23768(11)
La1B La -0.34450(5) 0.59171(11) 0.26232(11)
La1A La -0.34450(5) 0.90829(11) -0.23768(11)
La1B_2 La 0.65550(5) 0.59171(11) 0.26232(11)
La1C_3 La 0.34450(5) 1.09171(11) 0.23768(11)
W1C W 0.41341(4) -0.05515(8) -0.24923(8)
W1B W 0.58659(4) 0.44485(8) -0.25077(8)
W1C_2 W 0.41341(4) 0.94485(8) -0.24923(8)
W1_2 W 0.41341(4) 0.55515(8) -0.74923(8)
S1B S -0.1956(2) 0.5463(5) -0.0875(5)
loop_
_geom_bond_atom_site_label_1
_geom_bond_atom_site_label_2
_geom_bond_site_symmetry_1
_geom_bond_site_symmetry_2
C1 C2 1_555 1_555
C2 H1 1_555 1_555
C3 C2 1_555 1_555
H2 C3 1_555 1_555
C4 C1 1_555 1_555
C5 C3 1_555 1_555
H3 C5 1_555 1_555
O1 La1 1_555 1_555
O2 La1 1_555 1_555
O3 S1 1_555 1_555
O4 La1 1_555 1_555
O5 S1 1_555 1_555
O6 H4 1_555 1_555
H5 O6 1_555 1_555
O7 La1 1_555 1_555
O8 La1 1_555 1_555
La1 O6 1_555 1_555
W1 O1 1_555 1_555
S1 C1 1_555 1_555
C1B C2B 1_555 1_555
C2B H1B 1_555 1_555
C3B C2B 1_555 1_555
H2B C3B 1_555 1_555
C4B C4 1_555 1_555
C5B C4 1_555 1_555
H3B C5B 1_555 1_555
O1C La1C 1_555 1_555
O2C La1 1_555 1_555
O2C_2 W1 1_555 1_555
O2_2 La1C 1_555 1_555
O3B S1B 1_555 1_555
O4B La1B 1_555 1_555
O4C La1C 1_555 1_555
O5B La1A 1_555 1_555
O5C La1 1_555 1_555
O5_2 La1C 1_555 1_555
O6C H4C 1_555 1_555
H5C O6C 1_555 1_555
O7B W1 1_555 1_555
O7C La1C 1_555 1_555
O7A W1C 1_555 1_555
O8C W1 1_555 1_555
O8C_2 La1C 1_555 1_555
O8_2 W1C 1_555 1_555
La1C O2C 1_555 1_555
La1C_2 O2 1_555 1_555
La1B_2 O7B 1_555 1_555
La1C_3 O8C 1_555 1_555
W1C O2 1_555 1_555
W1B O7 1_555 1_555
W1C_2 O8 1_555 1_555
W1_2 O2C 1_555 1_555
S1B C1B 1_555 1_555
C5 C4B 1_555 1_555
O4 S1 1_555 1_555
O5 La1C_2 1_555 1_555
C1B C4B 1_555 1_555
C3B C5B 1_555 1_555
O1C W1C 1_555 1_555
O2C_2 La1C_2 1_555 1_555
O4B S1B 1_555 1_555
O5B S1B 1_555 1_555
O6C La1C 1_555 1_555

#END
