
#######################################################################
#
#                 Cambridge Crystallographic Data Centre
#                                CCDC 
#
#######################################################################
#
# If this CIF has been generated from an entry in the Cambridge 
# Structural Database, then it will include bibliographic, chemical, 
# crystal, experimental, refinement or atomic coordinate data resulting 
# from the CCDC's data processing and validation procedures.
#
#######################################################################

data_XAFMAU
_symmetry_cell_setting           triclinic
_symmetry_space_group_name_H-M   'P -1'
_symmetry_Int_Tables_number      2
_space_group_name_Hall           '-P 1'
loop_
_symmetry_equiv_pos_site_id
_symmetry_equiv_pos_as_xyz
1 x,y,z
2 -x,-y,-z
_cell_length_a                   7.2307(9)
_cell_length_b                   7.4798(9)
_cell_length_c                   13.5668(7)
_cell_angle_alpha                78.671(6)
_cell_angle_beta                 85.649(7)
_cell_angle_gamma                87.288(11)
_cell_volume                     716.985
loop_
_atom_site_label
_atom_site_type_symbol
_atom_site_fract_x
_atom_site_fract_y
_atom_site_fract_z
Ce1 Ce 0.09514(10) 0.67063(11) 0.20010(5)
Ce2 Ce 0.37279(10) 0.16882(11) 0.20574(5)
O1 O 0.3076(15) 0.6222(15) 0.3477(7)
O2 O 0.3467(16) 0.3217(15) 0.3512(6)
C1 C 0.3735(19) 0.465(2) 0.3817(9)
C2 C 0.4940(18) 0.4386(19) 0.4709(9)
H1 H 0.5650 0.3277 0.4861
O3 O -0.0914(14) 0.8055(16) 0.3400(7)
O4 O 0.1434(14) 0.9948(16) 0.3235(7)
C3 C 0.0047(18) 0.919(2) 0.3715(9)
C4 C -0.054(2) 0.957(2) 0.4760(10)
H2 H -0.1706 0.9177 0.5073
Mo1 Mo -0.07818(15) 0.21461(17) 0.11014(8)
O5 O 0.0683(14) 0.3479(15) 0.1682(7)
O6 O 0.1125(15) 0.6881(15) 0.0180(7)
O7 O 0.7067(15) 0.1931(16) 0.1804(8)
O8 O 0.0350(15) 0.9982(15) 0.1191(7)
Mo2 Mo 0.55742(15) 0.70199(16) 0.10918(7)
O9 O 0.4185(14) 0.5084(15) 0.1434(8)
O10 O 0.3998(15) 0.8677(15) 0.1528(7)
O11 O -0.2365(15) 0.6712(15) 0.1729(8)
O12 O 0.3892(15) 0.2375(17) 0.0220(7)
O13 O -0.0625(18) 0.4346(18) 0.3544(9)
O14 O 0.5285(14) -0.0694(15) 0.3410(7)
Ce1A Ce 0.90486(10) 0.32937(11) 0.79990(5)
Ce1A_2 Ce -0.09514(10) 1.32937(11) 0.79990(5)
Ce1_2 Ce 0.09514(10) -0.32937(11) 0.20010(5)
Ce1A_3 Ce -0.09514(10) 0.32937(11) -0.20010(5)
Ce1_3 Ce 1.09514(10) 0.67063(11) 0.20010(5)
Ce2A Ce 0.62721(10) 0.83118(11) 0.79426(5)
Ce2_2 Ce 0.37279(10) 1.16882(11) 0.20574(5)
Ce2A_2 Ce -0.37279(10) 0.83118(11) 0.79426(5)
Ce2_3 Ce -0.62721(10) 0.16882(11) 0.20574(5)
Ce2A_3 Ce 0.62721(10) 0.83118(11) -0.20574(5)
O1A O 0.6924(15) 0.3778(15) 0.6523(7)
O2A O 0.6533(16) 0.6783(15) 0.6488(6)
C1A C 0.6265(19) 0.535(2) 0.6183(9)
C2A C 0.5060(18) 0.5614(19) 0.5291(9)
H1A H 0.4350 0.6723 0.5139
O3A O 0.0914(14) 1.1945(16) 0.6600(7)
O3A_2 O 1.0914(14) 0.1945(16) 0.6600(7)
O4A O -0.1434(14) 1.0052(16) 0.6765(7)
O4_2 O 0.1434(14) -0.0052(16) 0.3235(7)
O4A_2 O 0.8566(14) 1.0052(16) 0.6765(7)
C3A C -0.0047(18) 1.081(2) 0.6285(9)
C4A C 0.054(2) 1.043(2) 0.5240(10)
H2A H 0.1706 1.0823 0.4927
Mo1A Mo 0.07818(15) 0.78539(17) -0.11014(8)
Mo1_2 Mo 0.92182(15) 0.21461(17) 0.11014(8)
Mo1_3 Mo -0.07818(15) 1.21461(17) 0.11014(8)
Mo1A_2 Mo 1.07818(15) 0.78539(17) 0.88986(8)
O5A O 0.9317(14) 0.6521(15) 0.8318(7)
O5A_2 O -0.0683(14) 0.6521(15) -0.1682(7)
O6A O -0.1125(15) 0.3119(15) -0.0180(7)
O6A_2 O 0.8875(15) 0.3119(15) 0.9820(7)
O7_2 O -0.2933(15) 0.1931(16) 0.1804(8)
O7A O 0.2933(15) 0.8069(16) 0.8196(8)
O7A_2 O 0.2933(15) 0.8069(16) -0.1804(8)
O8_2 O 0.0350(15) -0.0018(15) 0.1191(7)
O8A O 0.9650(15) 0.0018(15) 0.8809(7)
O8A_2 O -0.0350(15) 1.0018(15) -0.1191(7)
Mo2_2 Mo -0.44258(15) 0.70199(16) 0.10918(7)
Mo2A Mo 0.44258(15) 0.29801(16) -0.10918(7)
Mo2_3 Mo 0.55742(15) -0.29801(16) 0.10918(7)
Mo2A_2 Mo 0.44258(15) 0.29801(16) 0.89082(7)
O9A O 0.5815(14) 0.4916(15) 0.8566(8)
O9_2 O -0.5815(14) 0.5084(15) 0.1434(8)
O10_2 O 0.3998(15) -0.1323(15) 0.1528(7)
O10A O 0.6002(15) 0.1323(15) 0.8472(7)
O10A_2 O 0.6002(15) 1.1323(15) 0.8472(7)
O10_3 O -0.6002(15) 0.8677(15) 0.1528(7)
O11_2 O 0.7635(15) 0.6712(15) 0.1729(8)
O11A O 1.2365(15) 0.3288(15) 0.8271(8)
O12A O 0.6108(15) 0.7625(17) -0.0220(7)
O12A_2 O 0.6108(15) 0.7625(17) 0.9780(7)
O12A_3 O -0.3892(15) 0.7625(17) -0.0220(7)
O13A O 1.0625(18) 0.5654(18) 0.6456(9)
O14A O 0.4715(14) 1.0694(15) 0.6590(7)
loop_
_geom_bond_atom_site_label_1
_geom_bond_atom_site_label_2
_geom_bond_site_symmetry_1
_geom_bond_site_symmetry_2
Ce1 O1 1_555 1_555
Ce2 O2 1_555 1_555
O1 C1 1_555 1_555
O2 C1 1_555 1_555
C1 C2 1_555 1_555
C2 H1 1_555 1_555
O3 Ce1 1_555 1_555
O4 C3 1_555 1_555
C3 O3 1_555 1_555
C4 C3 1_555 1_555
H2 C4 1_555 1_555
Mo1 O5 1_555 1_555
O5 Ce1 1_555 1_555
O6 Ce1 1_555 1_555
O7 Ce2 1_555 1_555
O8 Ce1 1_555 1_555
Mo2 O9 1_555 1_555
O9 Ce1 1_555 1_555
O10 Ce1 1_555 1_555
O11 Ce1 1_555 1_555
O12 Ce2 1_555 1_555
O13 Ce1 1_555 1_555
O14 Ce2 1_555 1_555
Ce1A O1A 1_555 1_555
Ce1A_2 O3A 1_555 1_555
Ce1_2 O8_2 1_555 1_555
Ce1A_3 O5A_2 1_555 1_555
Ce1_3 O11_2 1_555 1_555
Ce2A O2A 1_555 1_555
Ce2_2 O4 1_555 1_555
Ce2A_2 O4A 1_555 1_555
Ce2_3 O7_2 1_555 1_555
Ce2A_3 O7A_2 1_555 1_555
O1A C1A 1_555 1_555
O2A C1A 1_555 1_555
C1A C2A 1_555 1_555
C2A C2 1_555 1_555
H1A C2A 1_555 1_555
O3A C3A 1_555 1_555
O3A_2 Ce1A 1_555 1_555
O4A C3A 1_555 1_555
O4_2 Ce2 1_555 1_555
O4A_2 Ce2A 1_555 1_555
C3A C4A 1_555 1_555
C4A C4 1_555 1_555
H2A C4A 1_555 1_555
Mo1A O6 1_555 1_555
Mo1_2 O7 1_555 1_555
Mo1_3 O8 1_555 1_555
Mo1A_2 O5A 1_555 1_555
O5A Ce1A 1_555 1_555
O5A_2 Mo1A 1_555 1_555
O6A Mo1 1_555 1_555
O6A_2 Ce1A 1_555 1_555
O7_2 Mo1 1_555 1_555
O7A Ce2A 1_555 1_555
O7A_2 Mo1A 1_555 1_555
O8_2 Mo1 1_555 1_555
O8A Ce1A 1_555 1_555
O8A_2 Mo1A 1_555 1_555
Mo2_2 O11 1_555 1_555
Mo2A O12 1_555 1_555
Mo2_3 O10_2 1_555 1_555
Mo2A_2 O9A 1_555 1_555
O9A Ce1A 1_555 1_555
O9_2 Ce2_3 1_555 1_555
O10_2 Ce2 1_555 1_555
O10A Ce1A 1_555 1_555
O10A_2 Ce2A 1_555 1_555
O10_3 Mo2_2 1_555 1_555
O11_2 Mo2 1_555 1_555
O11A Ce1A 1_555 1_555
O12A Mo2 1_555 1_555
O12A_2 Ce2A 1_555 1_555
O12A_3 Mo2_2 1_555 1_555
O13A Ce1A 1_555 1_555
O14A Ce2A 1_555 1_555
Ce2 O5 1_555 1_555
Ce2 O9 1_555 1_555
Mo2 O10 1_555 1_555
O10 Ce2_2 1_555 1_555
Ce1_2 O10_2 1_555 1_555
Ce1A_3 O6A 1_555 1_555
Ce2A O5A 1_555 1_555
Ce2A O9A 1_555 1_555
Ce2A_3 O12A 1_555 1_555
Mo2_2 O9_2 1_555 1_555
Mo2A_2 O10A 1_555 1_555

#END
