
#######################################################################
#
#                 Cambridge Crystallographic Data Centre
#                                CCDC 
#
#######################################################################
#
# If this CIF has been generated from an entry in the Cambridge 
# Structural Database, then it will include bibliographic, chemical, 
# crystal, experimental, refinement or atomic coordinate data resulting 
# from the CCDC's data processing and validation procedures.
#
#######################################################################

data_XAFNOH02
_symmetry_cell_setting           monoclinic
_symmetry_space_group_name_H-M   'P 21/c'
_symmetry_Int_Tables_number      14
_space_group_name_Hall           '-P 2ybc'
loop_
_symmetry_equiv_pos_site_id
_symmetry_equiv_pos_as_xyz
1 x,y,z
2 -x,1/2+y,1/2-z
3 -x,-y,-z
4 x,1/2-y,1/2+z
_cell_length_a                   9.2606(19)
_cell_length_b                   25.557(5)
_cell_length_c                   7.7900(16)
_cell_angle_alpha                90
_cell_angle_beta                 97.31(3)
_cell_angle_gamma                90
_cell_volume                     1828.7
loop_
_atom_site_label
_atom_site_type_symbol
_atom_site_fract_x
_atom_site_fract_y
_atom_site_fract_z
H1 H 0.503(4) 1.0418(13) 0.311(6)
H2 H 0.6506(14) 1.061(2) 0.343(7)
H3 H -0.456(5) 0.8970(19) -1.740(3)
H4 H -0.534(4) 0.9329(11) -1.670(6)
H5 H -0.541(5) 0.849(2) -1.079(6)
H6 H -0.644(4) 0.8130(12) -1.110(5)
Gd1 Gd -0.487690(16) 0.849440(6) -1.412960(19)
Cu1 Cu 0.0000 1.0000 -0.5000
O1 O -0.6025(3) 0.83675(13) -1.1531(4)
O2 O -0.4094(3) 0.76580(10) -1.3222(3)
O3 O 0.2636(2) 0.65661(10) -1.0071(3)
O4 O -0.5104(2) 0.70642(9) -1.1661(3)
O5 O -0.4774(3) 0.90848(11) -1.6487(3)
O6 O -0.2957(3) 0.87683(10) -1.2001(3)
O7 O 0.5627(3) 1.06557(11) 0.3269(4)
O8 O 0.1423(3) 0.58885(10) -0.9106(4)
O9 O -0.3863(3) 0.88273(13) -0.9498(3)
O10 O 0.1918(3) 1.01636(11) -0.5640(3)
O12 O 0.3416(3) 0.99167(10) -0.7518(4)
N1 N -0.2508(3) 0.66655(10) -1.0451(3)
N2 N -0.0287(3) 0.96666(11) -0.7294(4)
C1 C -0.2529(3) 0.70509(13) -1.1625(4)
C2 C -0.1308(4) 0.72247(15) -1.2286(5)
H7 H -0.1371 0.7495 -1.3090
C3 C 0.0017(4) 0.69906(16) -1.1734(5)
H8 H 0.0856 0.7099 -1.2172
C4 C 0.0078(3) 0.65908(13) -1.0519(4)
C5 C -0.1211(3) 0.64376(13) -0.9930(4)
H9 H -0.1180 0.6164 -0.9138
C6 C -0.4036(3) 0.72792(13) -1.2205(4)
C7 C 0.1482(4) 0.63196(14) -0.9836(4)
C8 C 0.0966(4) 0.96334(13) -0.7991(4)
C9 C 0.1054(4) 0.93548(16) -0.9494(5)
H10 H -0.1930 1.0666 -0.0043
C10 C -0.0176(4) 0.91088(16) -1.0298(5)
H11 H 0.0133 1.1086 0.1299
C11 C -0.1473(4) 0.91534(14) -0.9604(4)
C12 C 0.1501(4) 1.05691(14) -0.1915(4)
H12 H 0.2366 1.0544 -0.2400
C13 C -0.2880(4) 0.88966(14) -1.0437(4)
C14 C 0.2215(4) 0.99267(13) -0.6985(5)
H1B H -0.503(4) 0.9582(13) -1.311(6)
H2B H -0.6506(14) 0.939(2) -1.343(7)
H3B H 0.456(5) 1.1030(19) 0.740(3)
H4B H 0.534(4) 1.0671(11) 0.670(6)
H5B H 0.541(5) 1.151(2) 0.079(6)
H6B H 0.644(4) 1.1870(12) 0.110(5)
Gd1_2 Gd 0.512310(16) 0.849440(6) -1.412960(19)
Gd1C Gd 0.512310(16) 0.650560(6) -0.912960(19)
Gd1C_2 Gd -0.487690(16) 0.650560(6) -0.912960(19)
Gd1B Gd 0.487690(16) 1.150560(6) 0.412960(19)
Gd1C_3 Gd -0.487690(16) 0.650560(6) -1.912960(19)
O1B O 0.6025(3) 1.16325(13) 0.1531(4)
O2B O 0.4094(3) 1.23420(10) 0.3222(3)
O2C O -0.4094(3) 0.73420(10) -1.8222(3)
O3C O 0.2636(2) 0.84339(10) -1.5071(3)
O3C_2 O -0.7364(2) 0.84339(10) -1.5071(3)
O3A O 0.7364(2) 1.15661(10) 0.5071(3)
O4C O -0.5104(2) 0.79358(9) -1.6661(3)
O4A O 0.5104(2) 1.20642(9) 0.6661(3)
O5B O 0.4774(3) 1.09152(11) 0.6487(3)
O6B O 0.2957(3) 1.12317(10) 0.2001(3)
O7B O -0.5627(3) 0.93443(11) -1.3269(4)
O8C O 0.1423(3) 0.91115(10) -1.4106(4)
O9B O 0.3863(3) 1.11727(13) -0.0502(3)
O10B O -0.1918(3) 0.98364(11) -0.4360(3)
O12B O -0.3416(3) 1.00833(10) -0.2482(4)
N1C N -0.2508(3) 0.83345(10) -1.5451(3)
N1A N 0.2508(3) 1.16655(10) 0.5451(3)
N2B N 0.0287(3) 1.03334(11) -0.2706(4)
C1C C -0.2529(3) 0.79491(13) -1.6625(4)
C2C C -0.1308(4) 0.77753(15) -1.7286(5)
H7C H -0.1371 0.7505 -1.8090
C3C C 0.0017(4) 0.80094(16) -1.6734(5)
H8C H 0.0856 0.7901 -1.7172
C4C C 0.0078(3) 0.84092(13) -1.5519(4)
C5C C -0.1211(3) 0.85624(13) -1.4930(4)
H9C H -0.1180 0.8836 -1.4138
C6C C -0.4036(3) 0.77208(13) -1.7205(4)
C7C C 0.1482(4) 0.86804(14) -1.4836(4)
C8B C -0.0966(4) 1.03666(13) -0.2009(4)
C9B C -0.1054(4) 1.06452(16) -0.0506(5)
H10B H 0.1930 0.9334 -0.9957
C10B C 0.0176(4) 1.08912(16) 0.0298(5)
H11B H -0.0133 0.8914 -1.1299
C11B C 0.1473(4) 1.08466(14) -0.0396(4)
C12B C -0.1501(4) 0.94309(14) -0.8085(4)
H12B H -0.2366 0.9456 -0.7600
C13B C 0.2880(4) 1.11034(14) 0.0437(4)
C14B C -0.2215(4) 1.00733(13) -0.3015(5)
O11 O 0.7459(3) 0.27268(14) 0.4372(4)
H13 H 0.683(4) 0.277(2) 0.354(4)
H14 H 0.754(10) 0.2421(12) 0.470(12)
loop_
_geom_bond_atom_site_label_1
_geom_bond_atom_site_label_2
_geom_bond_site_symmetry_1
_geom_bond_site_symmetry_2
H1 O7 1_555 1_555
H2 O7 1_555 1_555
H3 O5 1_555 1_555
H4 O5 1_555 1_555
H5 O1 1_555 1_555
H6 O1 1_555 1_555
Gd1 O1 1_555 1_555
Cu1 O10 1_555 1_555
O2 Gd1 1_555 1_555
O3 C7 1_555 1_555
O4 C6 1_555 1_555
O5 Gd1 1_555 1_555
O6 Gd1 1_555 1_555
O7 Gd1B 1_555 1_555
O8 C7 1_555 1_555
O9 C13 1_555 1_555
O10 C14 1_555 1_555
O11 H13 1_555 1_555
O12 C14 1_555 1_555
N1 C1 1_555 1_555
N2 Cu1 1_555 1_555
C1 C2 1_555 1_555
C2 H7 1_555 1_555
C3 C2 1_555 1_555
H8 C3 1_555 1_555
C4 C3 1_555 1_555
C5 N1 1_555 1_555
H9 C5 1_555 1_555
C6 O2 1_555 1_555
C7 C4 1_555 1_555
C8 N2 1_555 1_555
C9 C8 1_555 1_555
H10 C9B 1_555 1_555
C10 C9 1_555 1_555
H11 C10B 1_555 1_555
C11 C10 1_555 1_555
C12 H12 1_555 1_555
C13 O6 1_555 1_555
C14 C8 1_555 1_555
H14 O11 1_555 1_555
H1B O7B 1_555 1_555
H2B O7B 1_555 1_555
H3B O5B 1_555 1_555
H4B O5B 1_555 1_555
H5B O1B 1_555 1_555
H6B O1B 1_555 1_555
Gd1_2 O3C 1_555 1_555
Gd1C O3 1_555 1_555
Gd1C_2 O4 1_555 1_555
Gd1B O1B 1_555 1_555
Gd1C_3 O2C 1_555 1_555
O2B Gd1B 1_555 1_555
O2C C6C 1_555 1_555
O3C C7C 1_555 1_555
O3C_2 Gd1 1_555 1_555
O3A Gd1B 1_555 1_555
O4C Gd1 1_555 1_555
O4A Gd1B 1_555 1_555
O5B Gd1B 1_555 1_555
O6B Gd1B 1_555 1_555
O7B Gd1 1_555 1_555
O8C C7C 1_555 1_555
O9B C13B 1_555 1_555
O10B Cu1 1_555 1_555
O12B C14B 1_555 1_555
N1C Gd1 1_555 1_555
N1A Gd1B 1_555 1_555
N2B Cu1 1_555 1_555
C1C N1C 1_555 1_555
C2C C1C 1_555 1_555
H7C C2C 1_555 1_555
C3C C2C 1_555 1_555
H8C C3C 1_555 1_555
C4C C3C 1_555 1_555
C5C N1C 1_555 1_555
H9C C5C 1_555 1_555
C6C O4C 1_555 1_555
C7C C4C 1_555 1_555
C8B N2B 1_555 1_555
C9B C8B 1_555 1_555
H10B C9 1_555 1_555
C10B C9B 1_555 1_555
H11B C10 1_555 1_555
C11B C12 1_555 1_555
C12B N2 1_555 1_555
H12B C12B 1_555 1_555
C13B O6B 1_555 1_555
C14B O10B 1_555 1_555
N1 Gd1C_2 1_555 1_555
C1 C6 1_555 1_555
C4 C5 1_555 1_555
C11 C13 1_555 1_555
C11 C12B 1_555 1_555
C12 N2B 1_555 1_555
C1C C6C 1_555 1_555
C4C C5C 1_555 1_555
C8B C14B 1_555 1_555
C10B C11B 1_555 1_555
C11B C13B 1_555 1_555

#END
