
#######################################################################
#
#                 Cambridge Crystallographic Data Centre
#                                CCDC 
#
#######################################################################
#
# If this CIF has been generated from an entry in the Cambridge 
# Structural Database, then it will include bibliographic, chemical, 
# crystal, experimental, refinement or atomic coordinate data resulting 
# from the CCDC's data processing and validation procedures.
#
#######################################################################

data_XAFNIB
_symmetry_cell_setting           triclinic
_symmetry_space_group_name_H-M   'P -1'
_symmetry_Int_Tables_number      2
_space_group_name_Hall           '-P 1'
loop_
_symmetry_equiv_pos_site_id
_symmetry_equiv_pos_as_xyz
1 x,y,z
2 -x,-y,-z
_cell_length_a                   7.393(2)
_cell_length_b                   13.567(6)
_cell_length_c                   15.169(4)
_cell_angle_alpha                72.623(15)
_cell_angle_beta                 76.15(2)
_cell_angle_gamma                80.17(3)
_cell_volume                     1401.7
loop_
_atom_site_label
_atom_site_type_symbol
_atom_site_fract_x
_atom_site_fract_y
_atom_site_fract_z
Gd1 Gd -0.03654(5) 0.55471(3) 0.19150(2)
Cu1 Cu 0.0000 0.0000 0.5000
Cu2 Cu 0.05209(12) 0.88980(6) -0.15344(6)
N1 N -0.1532(8) 0.1313(4) 0.5109(4)
N2 N -0.1317(7) 0.9657(4) -0.0725(4)
N3 N 0.7343(8) 0.1795(4) 0.2240(4)
O1 O 0.0896(8) 0.6449(5) 0.2726(4)
O2 O -0.3416(7) 0.6220(4) 0.2539(4)
O3 O 0.2106(7) 0.5920(4) 0.0585(3)
O4 O 0.0083(8) 0.4038(4) 0.1289(4)
O5 O -0.2113(7) 0.5796(4) 0.0637(3)
O6 O -0.1819(7) 0.8011(4) -0.1721(4)
O7 O -0.1525(8) 0.4241(5) 0.3225(4)
O8 O -0.4419(9) 0.4674(5) 0.3958(5)
O9 O -0.3714(8) -0.0103(4) 0.7352(4)
O10 O -0.1474(7) -0.0569(4) 0.6237(3)
O11 O -0.4116(8) 1.2563(4) -0.1513(4)
O12 O -0.5713(7) 1.2448(4) -0.0044(4)
O13 O -0.0911(7) 0.7438(4) 0.1174(3)
O14 O 0.0560(7) 0.7827(4) -0.0333(3)
O15 O 0.4821(7) 0.4684(4) 0.1259(4)
O16 O 0.2315(7) 0.4438(4) 0.2435(4)
O17 O 0.7479(8) -0.0439(4) 0.4136(4)
O18 O 0.9087(7) -0.0049(4) 0.2651(3)
C1 C -0.2899(12) 0.4088(6) 0.3879(6)
C2 C -0.2815(11) 0.3075(5) 0.4643(5)
C3 C -0.4115(12) 0.2931(6) 0.5495(5)
C4 C -0.4052(12) 0.1992(6) 0.6160(5)
C5 C -0.2801(11) 0.1186(6) 0.5929(5)
C6 C -0.1508(10) 0.2244(5) 0.4478(5)
C7 C -0.2674(11) 0.0102(6) 0.6566(5)
C8 C -0.4507(9) 1.2116(5) -0.0651(5)
C9 C -0.3442(9) 1.1058(5) -0.0319(5)
C10 C -0.3726(10) 1.0494(6) 0.0618(5)
C11 C -0.2823(9) 0.9506(5) 0.0884(5)
C12 C -0.1650(9) 0.9106(5) 0.0194(5)
C13 C -0.2211(9) 1.0614(5) -0.0981(5)
C14 C -0.0604(9) 0.8033(5) 0.0372(5)
C15 C 0.3931(10) 0.4171(6) 0.2027(5)
C16 C 0.4875(10) 0.3135(6) 0.2479(5)
C17 C 0.4198(10) 0.2513(6) 0.3376(5)
C18 C 0.5129(10) 0.1538(6) 0.3718(5)
C19 C 0.6693(9) 0.1204(5) 0.3108(5)
C20 C 0.6479(10) 0.2750(5) 0.1929(5)
C21 C 0.7804(10) 0.0151(5) 0.3336(5)
N1A N 0.1532(8) -0.1313(4) 0.4891(4)
O7A O 0.1525(8) -0.4241(5) 0.6775(4)
O8A O 0.4419(9) -0.4674(5) 0.6042(5)
O9A O 0.3714(8) 0.0103(4) 0.2648(4)
O10A O 0.1474(7) 0.0569(4) 0.3763(3)
C1A C 0.2899(12) -0.4088(6) 0.6121(6)
C2A C 0.2815(11) -0.3075(5) 0.5357(5)
C3A C 0.4115(12) -0.2931(6) 0.4505(5)
C4A C 0.4052(12) -0.1992(6) 0.3840(5)
C5A C 0.2801(11) -0.1186(6) 0.4071(5)
C6A C 0.1508(10) -0.2244(5) 0.5522(5)
C7A C 0.2674(11) -0.0102(6) 0.3434(5)
Gd1A Gd 0.03654(5) -0.55471(3) 0.80850(2)
O1A O -0.0896(8) -0.6449(5) 0.7274(4)
O2A O 0.3416(7) -0.6220(4) 0.7461(4)
O3A O -0.2106(7) -0.5920(4) 0.9415(3)
O4A O -0.0083(8) -0.4038(4) 0.8711(4)
O5A O 0.2113(7) -0.5796(4) 0.9363(3)
N2A N 0.1317(7) -0.9657(4) 1.0725(4)
O11A O 0.4116(8) -1.2563(4) 1.1513(4)
O12A O 0.5713(7) -1.2448(4) 1.0044(4)
O13A O 0.0911(7) -0.7438(4) 0.8826(3)
O14A O -0.0560(7) -0.7827(4) 1.0333(3)
C8A C 0.4507(9) -1.2116(5) 1.0651(5)
C9A C 0.3442(9) -1.1058(5) 1.0319(5)
C10A C 0.3726(10) -1.0494(6) 0.9382(5)
C11A C 0.2823(9) -0.9506(5) 0.9116(5)
C12A C 0.1650(9) -0.9106(5) 0.9806(5)
C13A C 0.2211(9) -1.0614(5) 1.0981(5)
C14A C 0.0604(9) -0.8033(5) 0.9628(5)
N3A N -0.7343(8) -0.1795(4) 0.7760(4)
O15A O -0.4821(7) -0.4684(4) 0.8741(4)
O16A O -0.2315(7) -0.4438(4) 0.7565(4)
O17A O -0.7479(8) 0.0439(4) 0.5864(4)
O18A O -0.9087(7) 0.0049(4) 0.7349(3)
C15A C -0.3931(10) -0.4171(6) 0.7973(5)
C16A C -0.4875(10) -0.3135(6) 0.7521(5)
C17A C -0.4198(10) -0.2513(6) 0.6624(5)
C18A C -0.5129(10) -0.1538(6) 0.6282(5)
C19A C -0.6693(9) -0.1204(5) 0.6892(5)
C20A C -0.6479(10) -0.2750(5) 0.8071(5)
C21A C -0.7804(10) -0.0151(5) 0.6664(5)
Cu2A Cu -0.05209(12) -0.88980(6) 1.15344(6)
O6A O 0.1819(7) -0.8011(4) 1.1721(4)
N3A_2 N 0.2657(8) 0.8205(4) -0.2240(4)
O18A_2 O 0.0913(7) 1.0049(4) -0.2651(3)
Cu2A_2 Cu 0.94791(12) 0.11020(6) 0.15344(6)
Cu2_2 Cu -0.94791(12) -0.11020(6) 0.84656(6)
N3_2 N -0.2657(8) -0.8205(4) 1.2240(4)
O18_2 O -0.0913(7) -1.0049(4) 1.2651(3)
O19 O 0.8341(13) -0.4319(7) 0.5405(6)
O20 O 0.0998(12) -0.7484(5) 0.6053(5)
loop_
_geom_bond_atom_site_label_1
_geom_bond_atom_site_label_2
_geom_bond_site_symmetry_1
_geom_bond_site_symmetry_2
Gd1 O1 1_555 1_555
Cu1 N1 1_555 1_555
Cu2 N2 1_555 1_555
N1 C5 1_555 1_555
N2 C12 1_555 1_555
N3 C19 1_555 1_555
O2 Gd1 1_555 1_555
O3 Gd1 1_555 1_555
O4 Gd1 1_555 1_555
O5 Gd1 1_555 1_555
O6 Cu2 1_555 1_555
O7 Gd1 1_555 1_555
O8 C1 1_555 1_555
O9 C7 1_555 1_555
O10 Cu1 1_555 1_555
O11 C8 1_555 1_555
O12 C8 1_555 1_555
O13 Gd1 1_555 1_555
O14 Cu2 1_555 1_555
O15 C15 1_555 1_555
O16 Gd1 1_555 1_555
O17 C21 1_555 1_555
O18 C21 1_555 1_555
C1 O7 1_555 1_555
C2 C1 1_555 1_555
C3 C2 1_555 1_555
C4 C3 1_555 1_555
C5 C4 1_555 1_555
C6 N1 1_555 1_555
C7 O10 1_555 1_555
C8 C9 1_555 1_555
C9 C10 1_555 1_555
C10 C11 1_555 1_555
C11 C12 1_555 1_555
C12 C14 1_555 1_555
C13 N2 1_555 1_555
C14 O13 1_555 1_555
C15 O16 1_555 1_555
C16 C15 1_555 1_555
C17 C16 1_555 1_555
C18 C17 1_555 1_555
C19 C18 1_555 1_555
C20 N3 1_555 1_555
C21 C19 1_555 1_555
N1A Cu1 1_555 1_555
O7A C1A 1_555 1_555
O8A C1A 1_555 1_555
O9A C7A 1_555 1_555
O10A Cu1 1_555 1_555
C1A C2A 1_555 1_555
C2A C3A 1_555 1_555
C3A C4A 1_555 1_555
C4A C5A 1_555 1_555
C5A N1A 1_555 1_555
C6A N1A 1_555 1_555
C7A O10A 1_555 1_555
Gd1A O7A 1_555 1_555
O1A Gd1A 1_555 1_555
O2A Gd1A 1_555 1_555
O3A Gd1A 1_555 1_555
O4A Gd1A 1_555 1_555
O5A Gd1A 1_555 1_555
N2A C12A 1_555 1_555
O11A C8A 1_555 1_555
O12A C8A 1_555 1_555
O13A Gd1A 1_555 1_555
O14A C14A 1_555 1_555
C8A C9A 1_555 1_555
C9A C10A 1_555 1_555
C10A C11A 1_555 1_555
C11A C12A 1_555 1_555
C12A C14A 1_555 1_555
C13A N2A 1_555 1_555
C14A O13A 1_555 1_555
N3A C19A 1_555 1_555
O15A C15A 1_555 1_555
O16A Gd1A 1_555 1_555
O17A C21A 1_555 1_555
O18A C21A 1_555 1_555
C15A O16A 1_555 1_555
C16A C15A 1_555 1_555
C17A C16A 1_555 1_555
C18A C17A 1_555 1_555
C19A C18A 1_555 1_555
C20A N3A 1_555 1_555
C21A C19A 1_555 1_555
Cu2A N2A 1_555 1_555
O6A Cu2A 1_555 1_555
N3A_2 Cu2 1_555 1_555
O18A_2 Cu2 1_555 1_555
Cu2A_2 N3 1_555 1_555
Cu2_2 N3A 1_555 1_555
N3_2 Cu2A 1_555 1_555
O18_2 Cu2A 1_555 1_555
O14 C14 1_555 1_555
O18 Cu2A_2 1_555 1_555
C2 C6 1_555 1_555
C5 C7 1_555 1_555
C9 C13 1_555 1_555
C16 C20 1_555 1_555
C2A C6A 1_555 1_555
C5A C7A 1_555 1_555
O14A Cu2A 1_555 1_555
C9A C13A 1_555 1_555
O18A Cu2_2 1_555 1_555
C16A C20A 1_555 1_555

#END
