
#######################################################################
#
#                 Cambridge Crystallographic Data Centre
#                                CCDC 
#
#######################################################################
#
# If this CIF has been generated from an entry in the Cambridge 
# Structural Database, then it will include bibliographic, chemical, 
# crystal, experimental, refinement or atomic coordinate data resulting 
# from the CCDC's data processing and validation procedures.
#
#######################################################################

data_XAFNOH
_symmetry_cell_setting           monoclinic
_symmetry_space_group_name_H-M   'P 21/c'
_symmetry_Int_Tables_number      14
_space_group_name_Hall           '-P 2ybc'
loop_
_symmetry_equiv_pos_site_id
_symmetry_equiv_pos_as_xyz
1 x,y,z
2 -x,1/2+y,1/2-z
3 -x,-y,-z
4 x,1/2-y,1/2+z
_cell_length_a                   9.260(2)
_cell_length_b                   25.543(5)
_cell_length_c                   7.7815(13)
_cell_angle_alpha                90
_cell_angle_beta                 97.36(2)
_cell_angle_gamma                90
_cell_volume                     1825.38
loop_
_atom_site_label
_atom_site_type_symbol
_atom_site_fract_x
_atom_site_fract_y
_atom_site_fract_z
Gd1 Gd -0.48775(2) -0.349400(9) -0.41277(3)
Cu1 Cu 0.0000 -0.5000 0.5000
O1 O -0.5098(4) -0.29354(14) -0.6652(5)
O2 O -0.4097(4) -0.23434(15) -0.8221(5)
O3 O 0.2632(4) -0.3434(2) -0.5076(5)
O4 O 0.1416(4) -0.41117(15) -0.4112(5)
O5 O 0.1914(4) -0.5166(2) 0.4367(5)
O6 O 0.3423(4) -0.49162(15) 0.2478(5)
O7 O -0.2956(4) -0.3767(2) -0.2006(5)
O8 O -0.3858(5) -0.3829(2) 0.0518(5)
O9 O -0.6028(5) -0.3361(2) -0.1520(5)
O10 O -0.5632(4) -0.4346(2) -0.3278(6)
O11 O -0.4785(4) -0.40843(15) -0.6506(5)
N1 N -0.2506(4) -0.3335(2) -0.5452(5)
N2 N -0.0302(5) -0.4666(2) 0.2699(6)
C1 C -0.4035(6) -0.2720(2) -0.7204(7)
C2 C -0.2541(5) -0.2951(2) -0.6628(7)
C3 C -0.1302(6) -0.2772(2) -0.7291(8)
C4 C 0.0024(6) -0.3009(2) -0.6731(8)
C5 C 0.0068(6) -0.3410(2) -0.5526(7)
C6 C -0.1221(6) -0.3563(2) -0.4931(7)
C7 C 0.1478(6) -0.3680(2) -0.4839(7)
C8 C 0.2227(6) -0.4927(2) 0.3024(7)
C9 C 0.0956(6) -0.4633(2) 0.1998(7)
C10 C 0.1065(6) -0.4350(2) 0.0517(7)
C11 C -0.0190(6) -0.4114(2) -0.0309(7)
C12 C -0.1497(6) -0.4152(2) 0.0399(7)
C13 C -0.1502(6) -0.4430(2) 0.1919(7)
C14 C -0.2881(6) -0.3894(2) -0.0425(7)
O5B O -0.1914(4) -0.4834(2) 0.5633(5)
O6B O -0.3423(4) -0.50838(15) 0.7522(5)
O7B O 0.2956(4) -0.6233(2) 1.2006(5)
O8B O 0.3858(5) -0.6171(2) 0.9482(5)
N2B N 0.0302(5) -0.5334(2) 0.7301(6)
C8B C -0.2227(6) -0.5073(2) 0.6976(7)
C9B C -0.0956(6) -0.5367(2) 0.8002(7)
C10B C -0.1065(6) -0.5650(2) 0.9483(7)
C11B C 0.0190(6) -0.5886(2) 1.0309(7)
C12B C 0.1497(6) -0.5848(2) 0.9601(7)
C13B C 0.1502(6) -0.5570(2) 0.8081(7)
C14B C 0.2881(6) -0.6106(2) 1.0425(7)
Gd1B Gd 0.48775(2) -0.650600(9) 1.41277(3)
O1C O -0.5098(4) -0.20646(14) -0.1652(5)
O2C O -0.4097(4) -0.26566(15) -0.3221(5)
O3C O 0.2632(4) -0.1566(2) -0.0076(5)
O4C O 0.1416(4) -0.08883(15) 0.0888(5)
N1C N -0.2506(4) -0.1665(2) -0.0452(5)
C1C C -0.4035(6) -0.2280(2) -0.2204(7)
C2C C -0.2541(5) -0.2049(2) -0.1628(7)
C3C C -0.1302(6) -0.2228(2) -0.2291(8)
C4C C 0.0024(6) -0.1991(2) -0.1731(8)
C5C C 0.0068(6) -0.1590(2) -0.0526(7)
C6C C -0.1221(6) -0.1437(2) 0.0069(7)
C7C C 0.1478(6) -0.1320(2) 0.0161(7)
O9B O 0.6028(5) -0.6639(2) 1.1520(5)
O10B O 0.5632(4) -0.5654(2) 1.3278(6)
O11B O 0.4785(4) -0.59157(15) 1.6506(5)
O3_2 O -0.7368(4) -0.3434(2) -0.5076(5)
Gd1C Gd -0.48775(2) -0.150600(9) -0.91277(3)
Gd1_2 Gd 0.51225(2) -0.349400(9) -0.41277(3)
O1B O 0.5098(4) -0.70646(14) 1.6652(5)
O2A O 0.4097(4) -0.73434(15) 1.3221(5)
O3B O 0.7368(4) -0.6566(2) 1.5076(5)
N1B N 0.2506(4) -0.6665(2) 1.5452(5)
Gd1C_2 Gd -0.48775(2) -0.150600(9) 0.08723(3)
Gd1C_3 Gd 0.51225(2) -0.150600(9) 0.08723(3)
O12 O -0.7451(5) -0.2727(2) -0.9371(6)
loop_
_geom_bond_atom_site_label_1
_geom_bond_atom_site_label_2
_geom_bond_site_symmetry_1
_geom_bond_site_symmetry_2
Gd1 O1 1_555 1_555
Cu1 O5 1_555 1_555
O1 C1 1_555 1_555
O2 C1 1_555 1_555
O3 C7 1_555 1_555
O4 C7 1_555 1_555
O5 C8 1_555 1_555
O6 C8 1_555 1_555
O7 Gd1 1_555 1_555
O8 C14 1_555 1_555
O9 Gd1 1_555 1_555
O10 Gd1 1_555 1_555
O11 Gd1 1_555 1_555
N1 Gd1 1_555 1_555
N2 Cu1 1_555 1_555
C1 C2 1_555 1_555
C2 N1 1_555 1_555
C3 C2 1_555 1_555
C4 C3 1_555 1_555
C5 C4 1_555 1_555
C6 N1 1_555 1_555
C7 C5 1_555 1_555
C8 C9 1_555 1_555
C9 N2 1_555 1_555
C10 C9 1_555 1_555
C11 C10 1_555 1_555
C12 C11 1_555 1_555
C13 N2 1_555 1_555
C14 O7 1_555 1_555
O5B Cu1 1_555 1_555
O6B C8B 1_555 1_555
O7B C14B 1_555 1_555
O8B C14B 1_555 1_555
N2B Cu1 1_555 1_555
C8B O5B 1_555 1_555
C9B N2B 1_555 1_555
C10B C9B 1_555 1_555
C11B C10B 1_555 1_555
C12B C11B 1_555 1_555
C13B N2B 1_555 1_555
C14B C12B 1_555 1_555
Gd1B O7B 1_555 1_555
O1C C1C 1_555 1_555
O2C Gd1 1_555 1_555
O3C C7C 1_555 1_555
O4C C7C 1_555 1_555
N1C C2C 1_555 1_555
C1C O2C 1_555 1_555
C2C C1C 1_555 1_555
C3C C2C 1_555 1_555
C4C C3C 1_555 1_555
C5C C4C 1_555 1_555
C6C N1C 1_555 1_555
C7C C5C 1_555 1_555
O9B Gd1B 1_555 1_555
O10B Gd1B 1_555 1_555
O11B Gd1B 1_555 1_555
O3_2 Gd1 1_555 1_555
Gd1C O2 1_555 1_555
Gd1_2 O3 1_555 1_555
O1B Gd1B 1_555 1_555
O2A Gd1B 1_555 1_555
O3B Gd1B 1_555 1_555
N1B Gd1B 1_555 1_555
Gd1C_2 O1C 1_555 1_555
Gd1C_3 O3C 1_555 1_555
C5 C6 1_555 1_555
C12 C13 1_555 1_555
C12 C14 1_555 1_555
C8B C9B 1_555 1_555
C12B C13B 1_555 1_555
N1C Gd1C_2 1_555 1_555
C5C C6C 1_555 1_555

#END
