
#######################################################################
#
#                 Cambridge Crystallographic Data Centre
#                                CCDC 
#
#######################################################################
#
# If this CIF has been generated from an entry in the Cambridge 
# Structural Database, then it will include bibliographic, chemical, 
# crystal, experimental, refinement or atomic coordinate data resulting 
# from the CCDC's data processing and validation procedures.
#
#######################################################################

data_XAFSUU
_symmetry_cell_setting           monoclinic
_symmetry_space_group_name_H-M   'P 21/n'
_symmetry_Int_Tables_number      14
_space_group_name_Hall           '-P 2yn'
loop_
_symmetry_equiv_pos_site_id
_symmetry_equiv_pos_as_xyz
1 x,y,z
2 1/2-x,1/2+y,1/2-z
3 -x,-y,-z
4 1/2+x,1/2-y,1/2+z
_cell_length_a                   10.563(2)
_cell_length_b                   22.256(5)
_cell_length_c                   10.562(2)
_cell_angle_alpha                90
_cell_angle_beta                 95.040(8)
_cell_angle_gamma                90
_cell_volume                     2473.42
loop_
_atom_site_label
_atom_site_type_symbol
_atom_site_fract_x
_atom_site_fract_y
_atom_site_fract_z
Ni1 Ni 0.70024(4) 0.238935(19) 0.18566(4)
C1 C 0.9504(4) 0.00271(16) 0.3751(4)
H1 H 0.9174 0.0039 0.2906
C2 C 0.9689(3) 0.05543(15) 0.4422(3)
C3 C 0.9805(4) -0.05184(17) 0.4321(4)
H2 H 0.9665 -0.0870 0.3854
C4 C 0.9333(4) 0.11305(16) 0.3838(4)
C5 C 0.8453(3) 0.12831(15) 0.2881(4)
H3 H 0.7931 0.1010 0.2418
C6 C 0.9285(5) 0.21014(18) 0.3519(5)
H4 H 0.9471 0.2508 0.3611
C7 C 0.8804(4) 0.48997(17) 0.0347(4)
H5 H 0.7986 0.4839 0.0584
C8 C 0.9555(4) 0.44093(16) 0.0142(4)
C9 C 0.9236(4) 0.54833(17) 0.0208(5)
H6 H 0.8706 0.5805 0.0352
C10 C 0.9070(4) 0.37954(16) 0.0305(4)
C11 C 0.8261(3) 0.35717(16) 0.1114(4)
H7 H 0.7877 0.3797 0.1716
C12 C 0.8774(4) 0.28354(17) -0.0007(4)
H8 H 0.8830 0.2453 -0.0354
C13 C 0.5529(3) 0.15731(15) 0.1195(4)
C14 C 0.4626(3) 0.10880(16) 0.0748(4)
C15 C 0.4527(3) 0.08991(17) -0.0490(4)
H9 H 0.5006 0.1089 -0.1071
C16 C 0.3723(4) 0.04280(18) -0.0897(4)
H10 H 0.3682 0.0295 -0.1734
C17 C 0.2987(3) 0.01620(17) -0.0035(4)
C18 C 0.3032(4) 0.03568(18) 0.1203(4)
H11 H 0.2518 0.0184 0.1774
C19 C 0.3862(4) 0.08162(18) 0.1577(4)
H12 H 0.3908 0.0947 0.2416
C20 C 0.1479(4) -0.06466(17) 0.0176(4)
C21 C 0.0254(4) -0.07626(18) -0.0303(4)
H13 H -0.0084 -0.0571 -0.1039
C22 C -0.0475(4) -0.11650(17) 0.0311(4)
H14 H -0.1296 -0.1254 -0.0028
C23 C 0.0005(4) -0.14349(16) 0.1420(4)
C24 C 0.1259(4) -0.13193(18) 0.1881(4)
H15 H 0.1596 -0.1506 0.2623
C25 C 0.2003(4) -0.09319(19) 0.1249(4)
H16 H 0.2846 -0.0865 0.1545
C26 C -0.0786(4) -0.18493(16) 0.2108(4)
N1 N 0.8086(3) 0.29663(12) 0.0921(3)
N2 N 0.9391(3) 0.33166(14) -0.0400(3)
H17 H 0.9899 0.3322 -0.0993
N3 N 0.8433(3) 0.18854(13) 0.2688(3)
N4 N 0.9864(4) 0.16679(15) 0.4230(4)
H18 H 1.0463 0.1718 0.4827
O1 O 0.5639(2) 0.17258(11) 0.2351(2)
O2 O 0.6203(2) 0.18240(11) 0.0424(2)
O3 O -0.1817(2) -0.20526(11) 0.1574(3)
O4 O -0.0441(3) -0.20026(11) 0.3230(3)
O5 O 0.2166(3) -0.02746(13) -0.0558(3)
Ni1B Ni 1.29976(4) 0.761065(19) -0.18566(4)
Ni1A Ni -0.20024(4) -0.261065(19) 0.31434(4)
Ni1B_2 Ni 1.29976(4) -0.238935(19) 0.81434(4)
Ni1A_2 Ni -0.20024(4) 0.738935(19) 0.31434(4)
C1B C 1.0496(4) -0.00271(16) 0.6249(4)
H1B H 1.0826 -0.0039 0.7094
C2B C 1.0311(3) -0.05543(15) 0.5578(3)
C3B C 1.0195(4) 0.05184(17) 0.5679(4)
H2B H 1.0335 0.0870 0.6146
C4B C 1.0667(4) -0.11305(16) 0.6162(4)
C5B C 1.1547(3) -0.12831(15) 0.7119(4)
H3B H 1.2069 -0.1010 0.7582
C6B C 1.0715(5) -0.21014(18) 0.6481(5)
H4B H 1.0529 -0.2508 0.6389
C7B C 1.1196(4) 0.51003(17) -0.0347(4)
H5B H 1.2014 0.5161 -0.0584
C8B C 1.0445(4) 0.55907(16) -0.0142(4)
C9B C 1.0764(4) 0.45167(17) -0.0208(5)
H6B H 1.1294 0.4195 -0.0352
C10B C 1.0930(4) 0.62046(16) -0.0305(4)
C11B C 1.1739(3) 0.64283(16) -0.1114(4)
H7B H 1.2123 0.6203 -0.1716
C12B C 1.1226(4) 0.71646(17) 0.0007(4)
H8B H 1.1170 0.7547 0.0354
C13A C -0.0529(3) 0.65731(15) 0.3805(4)
C14A C 0.0374(3) 0.60880(16) 0.4252(4)
C15A C 0.0473(3) 0.58991(17) 0.5490(4)
H9A H -0.0006 0.6089 0.6071
C16A C 0.1277(4) 0.54280(18) 0.5897(4)
H10A H 0.1318 0.5295 0.6734
C17A C 0.2013(3) 0.51620(17) 0.5035(4)
C18A C 0.1968(4) 0.53568(18) 0.3797(4)
H11A H 0.2482 0.5184 0.3226
C19A C 0.1138(4) 0.58162(18) 0.3423(4)
H12A H 0.1092 0.5947 0.2584
C20A C 0.3521(4) 0.43534(17) 0.4824(4)
C21A C 0.4746(4) 0.42374(18) 0.5303(4)
H13A H 0.5084 0.4429 0.6039
C22A C 0.5475(4) 0.38350(17) 0.4689(4)
H14A H 0.6296 0.3746 0.5028
C23A C 0.4995(4) 0.35651(16) 0.3580(4)
C24A C 0.3741(4) 0.36807(18) 0.3119(4)
H15A H 0.3404 0.3494 0.2377
C25A C 0.2997(4) 0.40681(19) 0.3751(4)
H16A H 0.2154 0.4135 0.3455
C26A C 0.5786(4) 0.31507(16) 0.2892(4)
N1B N 1.1914(3) 0.70337(12) -0.0921(3)
N2B N 1.0609(3) 0.66834(14) 0.0400(3)
H17B H 1.0101 0.6678 0.0993
N3B N 1.1567(3) -0.18854(13) 0.7312(3)
N3B_2 N 1.1567(3) 0.81146(13) -0.2688(3)
N4B N 1.0136(4) -0.16679(15) 0.5770(4)
H18B H 0.9537 -0.1718 0.5173
O1A O -0.0639(2) 0.67258(11) 0.2649(2)
O1B O 1.4361(2) 0.82742(11) -0.2351(2)
O2A O -0.1203(2) 0.68240(11) 0.4576(2)
O2B O 1.3797(2) 0.81760(11) -0.0424(2)
O3A O 0.6817(2) 0.29474(11) 0.3426(3)
O3C O 1.3183(2) 0.70526(11) -0.3426(3)
O4A O 0.5441(3) 0.29974(11) 0.1770(3)
O4C O 1.4559(3) 0.70026(11) -0.1770(3)
O5A O 0.2834(3) 0.47254(13) 0.5558(3)
O6 O 0.7607(11) 0.2433(5) 0.5979(9)
loop_
_geom_bond_atom_site_label_1
_geom_bond_atom_site_label_2
_geom_bond_site_symmetry_1
_geom_bond_site_symmetry_2
Ni1 N1 1_555 1_555
C1 H1 1_555 1_555
C2 C1 1_555 1_555
C3 C1 1_555 1_555
H2 C3 1_555 1_555
C4 C2 1_555 1_555
C5 C4 1_555 1_555
H3 C5 1_555 1_555
C6 H4 1_555 1_555
C7 H5 1_555 1_555
C8 C7 1_555 1_555
C9 C7 1_555 1_555
H6 C9 1_555 1_555
C10 C8 1_555 1_555
C11 C10 1_555 1_555
H7 C11 1_555 1_555
C12 H8 1_555 1_555
C13 C14 1_555 1_555
C14 C15 1_555 1_555
C15 H9 1_555 1_555
C16 C15 1_555 1_555
H10 C16 1_555 1_555
C17 C16 1_555 1_555
C18 C17 1_555 1_555
H11 C18 1_555 1_555
C19 C14 1_555 1_555
H12 C19 1_555 1_555
C20 C21 1_555 1_555
C21 H13 1_555 1_555
C22 C21 1_555 1_555
H14 C22 1_555 1_555
C23 C22 1_555 1_555
C24 C23 1_555 1_555
H15 C24 1_555 1_555
C25 C20 1_555 1_555
H16 C25 1_555 1_555
C26 C23 1_555 1_555
N1 C11 1_555 1_555
N2 C10 1_555 1_555
H17 N2 1_555 1_555
N3 Ni1 1_555 1_555
N4 C4 1_555 1_555
H18 N4 1_555 1_555
O1 Ni1 1_555 1_555
O2 Ni1 1_555 1_555
O3 C26 1_555 1_555
O4 C26 1_555 1_555
O5 C17 1_555 1_555
Ni1B N1B 1_555 1_555
Ni1A O3 1_555 1_555
Ni1B_2 N3B 1_555 1_555
Ni1A_2 O1A 1_555 1_555
C1B H1B 1_555 1_555
C2B C3 1_555 1_555
C3B C2 1_555 1_555
H2B C3B 1_555 1_555
C4B C2B 1_555 1_555
C5B C4B 1_555 1_555
H3B C5B 1_555 1_555
C6B H4B 1_555 1_555
C7B H5B 1_555 1_555
C8B C9 1_555 1_555
C9B C8 1_555 1_555
H6B C9B 1_555 1_555
C10B C8B 1_555 1_555
C11B C10B 1_555 1_555
H7B C11B 1_555 1_555
C12B H8B 1_555 1_555
C13A C14A 1_555 1_555
C14A C15A 1_555 1_555
C15A H9A 1_555 1_555
C16A C15A 1_555 1_555
H10A C16A 1_555 1_555
C17A C16A 1_555 1_555
C18A C17A 1_555 1_555
H11A C18A 1_555 1_555
C19A C14A 1_555 1_555
H12A C19A 1_555 1_555
C20A C21A 1_555 1_555
C21A H13A 1_555 1_555
C22A C21A 1_555 1_555
H14A C22A 1_555 1_555
C23A C22A 1_555 1_555
C24A C23A 1_555 1_555
H15A C24A 1_555 1_555
C25A C20A 1_555 1_555
H16A C25A 1_555 1_555
C26A C23A 1_555 1_555
N1B C11B 1_555 1_555
N2B C10B 1_555 1_555
H17B N2B 1_555 1_555
N3B C5B 1_555 1_555
N3B_2 Ni1B 1_555 1_555
N4B C4B 1_555 1_555
H18B N4B 1_555 1_555
O1A C13A 1_555 1_555
O1B Ni1B 1_555 1_555
O2A Ni1A_2 1_555 1_555
O2B Ni1B 1_555 1_555
O3A Ni1 1_555 1_555
O3C Ni1B 1_555 1_555
O4A Ni1 1_555 1_555
O4C Ni1B 1_555 1_555
O5A C17A 1_555 1_555
C5 N3 1_555 1_555
C6 N3 1_555 1_555
C6 N4 1_555 1_555
C12 N1 1_555 1_555
C12 N2 1_555 1_555
C13 O1 1_555 1_555
C13 O2 1_555 1_555
C18 C19 1_555 1_555
C20 O5 1_555 1_555
C24 C25 1_555 1_555
O4 Ni1A 1_555 1_555
C1B C2B 1_555 1_555
C1B C3B 1_555 1_555
C6B N3B 1_555 1_555
C6B N4B 1_555 1_555
C7B C8B 1_555 1_555
C7B C9B 1_555 1_555
C12B N1B 1_555 1_555
C12B N2B 1_555 1_555
C13A O2A 1_555 1_555
C18A C19A 1_555 1_555
C20A O5A 1_555 1_555
C24A C25A 1_555 1_555
C26A O3A 1_555 1_555
C26A O4A 1_555 1_555

#END
