
#######################################################################
#
#                 Cambridge Crystallographic Data Centre
#                                CCDC 
#
#######################################################################
#
# If this CIF has been generated from an entry in the Cambridge 
# Structural Database, then it will include bibliographic, chemical, 
# crystal, experimental, refinement or atomic coordinate data resulting 
# from the CCDC's data processing and validation procedures.
#
#######################################################################

data_XAFSEE
_symmetry_cell_setting           triclinic
_symmetry_space_group_name_H-M   'P -1'
_symmetry_Int_Tables_number      2
_space_group_name_Hall           '-P 1'
loop_
_symmetry_equiv_pos_site_id
_symmetry_equiv_pos_as_xyz
1 x,y,z
2 -x,-y,-z
_cell_length_a                   9.1481(10)
_cell_length_b                   9.4793(10)
_cell_length_c                   11.1701(12)
_cell_angle_alpha                95.729(2)
_cell_angle_beta                 92.402(2)
_cell_angle_gamma                99.879(2)
_cell_volume                     947.791
loop_
_atom_site_label
_atom_site_type_symbol
_atom_site_fract_x
_atom_site_fract_y
_atom_site_fract_z
Ni1 Ni 0.19748(2) 0.58241(2) 0.657238(19)
C1 C 0.3550(2) 1.1552(2) 1.17866(19)
H1 H 0.4477 1.2143 1.1814
C2 C 0.3193(2) 1.0383(3) 1.0917(2)
H2 H 0.3890 1.0197 1.0367
C3 C 0.1818(2) 0.9477(2) 1.08441(17)
C4 C 0.0802(2) 0.9764(2) 1.16863(19)
H3 H -0.0120 0.9166 1.1664
C5 C 0.1154(2) 1.0932(2) 1.25578(18)
H4 H 0.0460 1.1112 1.3113
C6 C 0.2528(2) 1.1844(2) 1.26186(16)
C7 C 0.2816(2) 1.3111(2) 1.35116(17)
C8 C 0.2082(2) 1.3418(2) 1.45125(17)
H5 H 0.1323 1.2786 1.4806
C9 C 0.3682(2) 1.5303(2) 1.43413(18)
H6 H 0.4255 1.6221 1.4479
C10 C 0.1447(2) 0.8305(2) 0.98659(17)
C11 C 0.2135(2) 0.8008(2) 0.88308(18)
H7 H 0.3018 0.8539 0.8615
C12 C 0.0173(2) 0.6399(2) 0.87708(18)
H8 H -0.0570 0.5610 0.8522
C13 C 0.4530(3) 1.0347(2) 0.5439(3)
H9 H 0.4599 1.1352 0.5308
H10 H 0.4930 1.0315 0.6252
C14 C 0.2905(3) 0.9641(3) 0.5339(3)
H11 H 0.2352 1.0265 0.5806
H12 H 0.2542 0.9575 0.4503
C15 C 0.2571(2) 0.8165(2) 0.57539(18)
C16 C 0.5357(3) 0.4516(3) 0.9562(2)
H13 H 0.6082 0.4102 1.0007
H14 H 0.5883 0.5096 0.8994
C17 C 0.4252(3) 0.3311(3) 0.8869(2)
H15 H 0.3818 0.2663 0.9430
H16 H 0.4779 0.2769 0.8304
C18 C 0.3011(2) 0.3820(2) 0.81819(18)
N1 N 0.13356(19) 0.68113(18) 0.81538(14)
N2 N 0.0193(2) 0.72603(18) 0.98057(15)
H17 H -0.0462 0.7173 1.0336
N3 N 0.26227(18) 1.48006(17) 1.50281(14)
N4 N 0.38360(19) 1.43326(18) 1.34207(15)
H18 H 0.4462 1.4453 1.2871
O1 O 0.35132(15) 0.76982(14) 0.63771(12)
O2 O 0.12940(15) 0.74133(15) 0.54922(13)
O3 O 0.33906(15) 0.48389(15) 0.75531(12)
O4 O 0.16983(19) 0.32148(18) 0.82605(15)
O5 O 0.00833(17) 0.42537(16) 0.66338(14)
H19 H 0.047(3) 0.374(3) 0.707(3)
H20 H -0.041(3) 0.372(3) 0.603(3)
Ni1_2 Ni 0.19748(2) 1.58241(2) 1.657238(19)
Ni1A Ni 0.80252(2) 1.41759(2) 0.342762(19)
Ni1A_2 Ni 0.80252(2) 0.41759(2) 1.342762(19)
Ni1A_3 Ni 0.80252(2) -0.58241(2) 0.342762(19)
C1A C 0.6450(2) -0.1552(2) 0.82134(19)
H1A H 0.5523 -0.2143 0.8186
C2A C 0.6807(2) -0.0383(3) 0.9083(2)
H2A H 0.6110 -0.0197 0.9633
C3A C 0.8182(2) 0.0523(2) 0.91559(17)
C4A C 0.9198(2) 0.0236(2) 0.83137(19)
H3A H 1.0120 0.0834 0.8336
C5A C 0.8846(2) -0.0932(2) 0.74422(18)
H4A H 0.9540 -0.1112 0.6887
C6A C 0.7472(2) -0.1844(2) 0.73814(16)
C7A C 0.7184(2) -0.3111(2) 0.64884(17)
C8A C 0.7918(2) -0.3418(2) 0.54875(17)
H5A H 0.8677 -0.2786 0.5194
C9A C 0.6318(2) -0.5303(2) 0.56587(18)
H6A H 0.5745 -0.6221 0.5521
C10A C 0.8553(2) 0.1695(2) 1.01341(17)
C11A C 0.7865(2) 0.1992(2) 1.11692(18)
H7A H 0.6982 0.1461 1.1385
C12A C 0.9827(2) 0.3601(2) 1.12292(18)
H8A H 1.0570 0.4390 1.1478
C13A C 0.5470(3) 0.9653(2) 0.4561(3)
H9A H 0.5401 0.8648 0.4692
H10A H 0.5070 0.9685 0.3748
C14A C 0.7095(3) 1.0359(3) 0.4661(3)
H11A H 0.7648 0.9735 0.4194
H12A H 0.7458 1.0425 0.5497
C15A C 0.7429(2) 1.1835(2) 0.42461(18)
C15A_2 C 0.7429(2) 0.1835(2) 1.42461(18)
C16A C 0.4643(3) 0.5484(3) 1.0438(2)
H13A H 0.3918 0.5898 0.9993
H14A H 0.4117 0.4904 1.1006
C17A C 0.5748(3) 0.6689(3) 1.1131(2)
H15A H 0.6182 0.7337 1.0570
H16A H 0.5221 0.7231 1.1696
C18A C 0.6989(2) 0.6180(2) 1.18181(18)
N1A N 0.86644(19) 0.31887(18) 1.18462(14)
N2A N 0.9807(2) 0.27397(18) 1.01943(15)
H17A H 1.0462 0.2827 0.9664
N3_2 N 0.26227(18) 0.48006(17) 0.50281(14)
N3A N 0.73773(18) 0.51994(17) 1.49719(14)
N3A_2 N 0.73773(18) -0.48006(17) 0.49719(14)
N4A N 0.61640(19) -0.43326(18) 0.65793(15)
H18A H 0.5538 -0.4453 0.7129
O1A O 0.64868(15) 1.23018(14) 0.36229(12)
O1A_2 O 0.64868(15) 0.23018(14) 1.36229(12)
O2A O 0.87060(15) 1.25867(15) 0.45078(13)
O2A_2 O 0.87060(15) 0.25867(15) 1.45078(13)
O3A O 0.66094(15) 0.51611(15) 1.24469(12)
O4A O 0.83017(19) 0.67852(18) 1.17395(15)
O5A O 0.99167(17) 0.57463(16) 1.33662(14)
H19A H 0.953(3) 0.626(3) 1.293(3)
H20A H 1.041(3) 0.628(3) 1.397(3)
loop_
_geom_bond_atom_site_label_1
_geom_bond_atom_site_label_2
_geom_bond_site_symmetry_1
_geom_bond_site_symmetry_2
Ni1 N1 1_555 1_555
C1 H1 1_555 1_555
C2 C1 1_555 1_555
H2 C2 1_555 1_555
C3 C2 1_555 1_555
C4 C3 1_555 1_555
H3 C4 1_555 1_555
C5 C4 1_555 1_555
H4 C5 1_555 1_555
C6 C1 1_555 1_555
C7 C6 1_555 1_555
C8 C7 1_555 1_555
H5 C8 1_555 1_555
C9 H6 1_555 1_555
C10 C3 1_555 1_555
C11 C10 1_555 1_555
H7 C11 1_555 1_555
C12 H8 1_555 1_555
C13 H9 1_555 1_555
H10 C13 1_555 1_555
C14 C13 1_555 1_555
H11 C14 1_555 1_555
H12 C14 1_555 1_555
C15 C14 1_555 1_555
C16 H13 1_555 1_555
H14 C16 1_555 1_555
C17 C16 1_555 1_555
H15 C17 1_555 1_555
H16 C17 1_555 1_555
C18 C17 1_555 1_555
N1 C11 1_555 1_555
N2 C10 1_555 1_555
H17 N2 1_555 1_555
N3 C8 1_555 1_555
N4 C7 1_555 1_555
H18 N4 1_555 1_555
O1 Ni1 1_555 1_555
O2 Ni1 1_555 1_555
O3 Ni1 1_555 1_555
O4 C18 1_555 1_555
O5 Ni1 1_555 1_555
H19 O5 1_555 1_555
H20 O5 1_555 1_555
Ni1_2 N3 1_555 1_555
Ni1A O1A 1_555 1_555
Ni1A_2 N1A 1_555 1_555
Ni1A_3 N3A_2 1_555 1_555
C1A H1A 1_555 1_555
C2A C1A 1_555 1_555
H2A C2A 1_555 1_555
C3A C2A 1_555 1_555
C4A C3A 1_555 1_555
H3A C4A 1_555 1_555
C5A C4A 1_555 1_555
H4A C5A 1_555 1_555
C6A C1A 1_555 1_555
C7A C6A 1_555 1_555
C8A C7A 1_555 1_555
H5A C8A 1_555 1_555
C9A H6A 1_555 1_555
C10A C3A 1_555 1_555
C11A C10A 1_555 1_555
H7A C11A 1_555 1_555
C12A H8A 1_555 1_555
C13A C13 1_555 1_555
H9A C13A 1_555 1_555
H10A C13A 1_555 1_555
C14A C13A 1_555 1_555
H11A C14A 1_555 1_555
H12A C14A 1_555 1_555
C15A C14A 1_555 1_555
C15A_2 O1A_2 1_555 1_555
C16A C16 1_555 1_555
H13A C16A 1_555 1_555
H14A C16A 1_555 1_555
C17A C16A 1_555 1_555
H15A C17A 1_555 1_555
H16A C17A 1_555 1_555
C18A C17A 1_555 1_555
N1A C11A 1_555 1_555
N2A C10A 1_555 1_555
H17A N2A 1_555 1_555
N3_2 Ni1 1_555 1_555
N3A Ni1A_2 1_555 1_555
N3A_2 C8A 1_555 1_555
N4A C7A 1_555 1_555
H18A N4A 1_555 1_555
O1A C15A 1_555 1_555
O1A_2 Ni1A_2 1_555 1_555
O2A Ni1A 1_555 1_555
O2A_2 Ni1A_2 1_555 1_555
O3A Ni1A_2 1_555 1_555
O4A C18A 1_555 1_555
O5A Ni1A_2 1_555 1_555
H19A O5A 1_555 1_555
H20A O5A 1_555 1_555
C5 C6 1_555 1_555
C9 N3 1_555 1_555
C9 N4 1_555 1_555
C12 N1 1_555 1_555
C12 N2 1_555 1_555
C15 O1 1_555 1_555
C15 O2 1_555 1_555
C18 O3 1_555 1_555
C5A C6A 1_555 1_555
C9A N3A_2 1_555 1_555
C9A N4A 1_555 1_555
C12A N1A 1_555 1_555
C12A N2A 1_555 1_555
C15A O2A 1_555 1_555
C15A_2 O2A_2 1_555 1_555
C18A O3A 1_555 1_555

#END
