
#######################################################################
#
#                 Cambridge Crystallographic Data Centre
#                                CCDC 
#
#######################################################################
#
# If this CIF has been generated from an entry in the Cambridge 
# Structural Database, then it will include bibliographic, chemical, 
# crystal, experimental, refinement or atomic coordinate data resulting 
# from the CCDC's data processing and validation procedures.
#
#######################################################################

data_XAFSOO
_symmetry_cell_setting           triclinic
_symmetry_space_group_name_H-M   'P -1'
_symmetry_Int_Tables_number      2
_space_group_name_Hall           '-P 1'
loop_
_symmetry_equiv_pos_site_id
_symmetry_equiv_pos_as_xyz
1 x,y,z
2 -x,-y,-z
_cell_length_a                   10.0234(16)
_cell_length_b                   11.8495(19)
_cell_length_c                   12.210(2)
_cell_angle_alpha                110.104(3)
_cell_angle_beta                 107.980(2)
_cell_angle_gamma                95.921(3)
_cell_volume                     1259.29
loop_
_atom_site_label
_atom_site_type_symbol
_atom_site_fract_x
_atom_site_fract_y
_atom_site_fract_z
Cd1 Cd 0.42140(2) 0.327255(16) 0.874327(18)
Cd2 Cd -0.40055(2) 1.176240(17) 0.639470(18)
C1 C -0.0493(3) 0.8494(2) 0.7536(3)
C2 C 0.0766(3) 0.8529(3) 0.8467(3)
H1 H 0.1250 0.9267 0.9160
C3 C 0.1300(3) 0.7485(3) 0.8373(3)
H2 H 0.2139 0.7527 0.9001
C4 C 0.0592(3) 0.6369(2) 0.7344(3)
C5 C -0.0660(3) 0.6332(3) 0.6408(3)
H3 H -0.1139 0.5596 0.5712
C6 C -0.1196(3) 0.7380(3) 0.6503(3)
H4 H -0.2031 0.7339 0.5872
C7 C -0.1067(3) 0.9593(2) 0.7633(3)
C8 C -0.2404(3) 0.9713(3) 0.7023(3)
H5 H -0.3189 0.9063 0.6454
C9 C -0.1093(3) 1.1555(3) 0.8197(3)
H6 H -0.0787 1.2412 0.8589
C10 C 0.1140(3) 0.5264(3) 0.7294(3)
C11 C 0.2470(3) 0.5147(3) 0.7921(3)
H7 H 0.3274 0.5798 0.8436
C12 C 0.1106(3) 0.3309(3) 0.6911(3)
H8 H 0.0773 0.2456 0.6599
C13 C 0.6191(3) 0.3159(3) 1.5067(3)
C14 C 0.6111(4) 0.3797(3) 1.4167(3)
H9 H 0.7019 0.3878 1.4040
H10 H 0.5979 0.4623 1.4543
C15 C 0.4885(4) 0.3100(3) 1.2896(3)
H11 H 0.3981 0.2982 1.3023
H12 H 0.4818 0.3592 1.2398
C16 C 0.5111(4) 0.1851(3) 1.2185(3)
H13 H 0.5152 0.1352 1.2675
H14 H 0.6028 0.1968 1.2079
C17 C 0.3911(4) 0.1163(3) 1.0900(3)
H15 H 0.4053 0.0342 1.0524
H16 H 0.2993 0.1072 1.1009
C18 C 0.3847(3) 0.1809(3) 1.0010(3)
C19 C 0.3054(3) 0.5392(3) 1.1002(3)
C20 C 0.1718(4) 0.4446(3) 1.0705(4)
H17 H 0.1917 0.4129 1.1359
H18 H 0.1570 0.3761 0.9927
C21 C 0.0305(3) 0.4857(3) 1.0575(3)
H19 H -0.0403 0.4210 1.0541
H20 H 0.0460 0.5588 1.1316
C22 C 0.3379(3) 0.0503(3) 0.6220(2)
C23 C 0.1887(3) -0.0013(3) 0.6112(3)
H21 H 0.1741 0.0432 0.6881
H22 H 0.1777 -0.0877 0.5987
C24 C 0.0760(3) 0.0111(3) 0.4997(3)
H23 H 0.1022 0.0934 0.5023
H24 H 0.0773 -0.0478 0.4220
N1 N -0.2405(3) 1.0949(2) 0.7386(2)
N2 N -0.0261(3) 1.0777(2) 0.8382(2)
H25 H 0.0625 1.0982 0.8883
N3 N 0.0297(3) 0.4078(2) 0.6648(2)
H26 H -0.0595 0.3868 0.6160
N4 N 0.2438(3) 0.3917(2) 0.7673(2)
O1 O 0.7391(3) 0.3088(2) 1.5733(2)
O2 O 0.5038(2) 0.2706(2) 1.5120(2)
O3 O 0.2654(2) 0.1808(2) 0.9273(2)
O4 O 0.5022(2) 0.2342(2) 1.0038(2)
O5 O 0.3975(2) 0.16265(19) 0.6935(2)
O6 O 0.4001(3) -0.0120(2) 0.5588(2)
O7 O 0.4043(2) 0.5001(2) 1.0653(2)
O8 O 0.3161(3) 0.65089(19) 1.1582(2)
Cd1A Cd -0.42140(2) -0.327255(16) 0.125673(18)
Cd1A_2 Cd 0.57860(2) 0.672745(16) 1.125673(18)
Cd1A_3 Cd -0.42140(2) 0.672745(16) 1.125673(18)
Cd1_2 Cd -0.57860(2) 0.327255(16) 0.874327(18)
Cd1_3 Cd -0.57860(2) 1.327255(16) -0.125673(18)
Cd2_2 Cd 0.59945(2) 0.176240(17) 1.639470(18)
Cd2_3 Cd 0.59945(2) 0.176240(17) 0.639470(18)
Cd2A Cd 0.40055(2) -0.176240(17) 0.360530(18)
Cd2A_2 Cd 0.40055(2) 0.823760(17) 1.360530(18)
Cd2_4 Cd -0.40055(2) 0.176240(17) 0.639470(18)
Cd2A_3 Cd -0.59945(2) -0.176240(17) 0.360530(18)
Cd2A_4 Cd 0.40055(2) -1.176240(17) 0.360530(18)
C1A C 0.0493(3) -0.8494(2) 0.2464(3)
C2A C -0.0766(3) -0.8529(3) 0.1533(3)
H1A H -0.1250 -0.9267 0.0840
C3A C -0.1300(3) -0.7485(3) 0.1627(3)
H2A H -0.2139 -0.7527 0.0999
C4A C -0.0592(3) -0.6369(2) 0.2656(3)
C5A C 0.0660(3) -0.6332(3) 0.3592(3)
H3A H 0.1139 -0.5596 0.4288
C6A C 0.1196(3) -0.7380(3) 0.3497(3)
H4A H 0.2031 -0.7339 0.4128
C7A C 0.1067(3) -0.9593(2) 0.2367(3)
C8A C 0.2404(3) -0.9713(3) 0.2977(3)
H5A H 0.3189 -0.9063 0.3546
C9A C 0.1093(3) -1.1555(3) 0.1803(3)
H6A H 0.0787 -1.2412 0.1411
C10A C -0.1140(3) -0.5264(3) 0.2706(3)
C11A C -0.2470(3) -0.5147(3) 0.2079(3)
H7A H -0.3274 -0.5798 0.1564
C12A C -0.1106(3) -0.3309(3) 0.3089(3)
H8A H -0.0773 -0.2456 0.3401
C13_2 C -0.3809(3) 1.3159(3) 0.5067(3)
C14_2 C -0.3889(4) 1.3797(3) 0.4167(3)
H9_2 H -0.2981 1.3878 0.4040
H10_2 H -0.4021 1.4623 0.4543
C15_2 C -0.5115(4) 1.3100(3) 0.2896(3)
H11_2 H -0.6019 1.2982 0.3023
H12_2 H -0.5182 1.3592 0.2398
C16_2 C -0.4889(4) 1.1851(3) 0.2185(3)
H13_2 H -0.4848 1.1352 0.2675
H14_2 H -0.3972 1.1968 0.2079
C17_2 C -0.6089(4) 1.1163(3) 0.0900(3)
H15_2 H -0.5947 1.0342 0.0524
H16_2 H -0.7007 1.1072 0.1009
C18_2 C -0.6153(3) 1.1809(3) 0.0010(3)
C19A C -0.3054(3) 0.4608(3) 0.8998(3)
C20A C -0.1718(4) 0.5554(3) 0.9295(4)
H17A H -0.1917 0.5871 0.8641
H18A H -0.1570 0.6239 1.0073
C21A C -0.0305(3) 0.5143(3) 0.9425(3)
H19A H 0.0403 0.5790 0.9459
H20A H -0.0460 0.4412 0.8684
C22A C -0.3379(3) -0.0503(3) 0.3780(2)
C23A C -0.1887(3) 0.0013(3) 0.3888(3)
H21A H -0.1741 -0.0432 0.3119
H22A H -0.1777 0.0877 0.4013
C24A C -0.0760(3) -0.0111(3) 0.5003(3)
H23A H -0.1022 -0.0934 0.4977
H24A H -0.0773 0.0478 0.5780
N1A N 0.2405(3) -1.0949(2) 0.2614(2)
N1_2 N 0.7595(3) 0.0949(2) 1.7386(2)
N2A N 0.0261(3) -1.0777(2) 0.1618(2)
H25A H -0.0625 -1.0982 0.1117
N3A N -0.0297(3) -0.4078(2) 0.3352(2)
H26A H 0.0595 -0.3868 0.3840
N4A N -0.2438(3) -0.3917(2) 0.2327(2)
O1_2 O -0.2609(3) 1.3088(2) 0.5733(2)
O2_2 O -0.4962(2) 1.2706(2) 0.5120(2)
O3_2 O -0.7346(2) 1.1808(2) -0.0727(2)
O3A O -0.2654(2) -0.1808(2) 0.0727(2)
O4_2 O -0.4978(2) 1.2342(2) 0.0038(2)
O4A O -0.5022(2) -0.2342(2) -0.0038(2)
O5A O -0.3975(2) -0.16265(19) 0.3065(2)
O5_2 O -0.6025(2) 1.16265(19) 0.6935(2)
O5_3 O 0.3975(2) 0.16265(19) 1.6935(2)
O6A O -0.4001(3) 0.0120(2) 0.4412(2)
O6_2 O -0.5999(3) 0.9880(2) 0.5588(2)
O6A_2 O -0.4001(3) 1.0120(2) 0.4412(2)
O6_3 O 0.4001(3) -0.0120(2) 1.5588(2)
O6A_3 O 0.5999(3) 0.0120(2) 1.4412(2)
O7A O -0.4043(2) 0.4999(2) 0.9347(2)
O7A_2 O 0.5957(2) 0.4999(2) 0.9347(2)
O7A_3 O -0.4043(2) -0.5001(2) -0.0653(2)
O7_2 O -0.5957(2) -0.4999(2) 0.0653(2)
O8A O -0.3161(3) 0.34911(19) 0.8418(2)
O8A_2 O -0.3161(3) 1.34911(19) 0.8418(2)
O8A_3 O 0.6839(3) 0.34911(19) 1.8418(2)
loop_
_geom_bond_atom_site_label_1
_geom_bond_atom_site_label_2
_geom_bond_site_symmetry_1
_geom_bond_site_symmetry_2
Cd1 N4 1_555 1_555
Cd2 N1 1_555 1_555
C1 C2 1_555 1_555
C2 H1 1_555 1_555
C3 C2 1_555 1_555
H2 C3 1_555 1_555
C4 C3 1_555 1_555
C5 C4 1_555 1_555
H3 C5 1_555 1_555
C6 C1 1_555 1_555
H4 C6 1_555 1_555
C7 C1 1_555 1_555
C8 C7 1_555 1_555
H5 C8 1_555 1_555
C9 H6 1_555 1_555
C10 C4 1_555 1_555
C11 C10 1_555 1_555
H7 C11 1_555 1_555
C12 H8 1_555 1_555
C13 C14 1_555 1_555
C14 H9 1_555 1_555
H10 C14 1_555 1_555
C15 C14 1_555 1_555
H11 C15 1_555 1_555
H12 C15 1_555 1_555
C16 C15 1_555 1_555
H13 C16 1_555 1_555
H14 C16 1_555 1_555
C17 C16 1_555 1_555
H15 C17 1_555 1_555
H16 C17 1_555 1_555
C18 C17 1_555 1_555
C19 C20 1_555 1_555
C20 H17 1_555 1_555
H18 C20 1_555 1_555
C21 C20 1_555 1_555
H19 C21 1_555 1_555
H20 C21 1_555 1_555
C22 C23 1_555 1_555
C23 H21 1_555 1_555
H22 C23 1_555 1_555
C24 C23 1_555 1_555
H23 C24 1_555 1_555
H24 C24 1_555 1_555
N1 C8 1_555 1_555
N2 C7 1_555 1_555
H25 N2 1_555 1_555
N3 C10 1_555 1_555
H26 N3 1_555 1_555
N4 C11 1_555 1_555
O1 C13 1_555 1_555
O2 C13 1_555 1_555
O3 Cd1 1_555 1_555
O4 Cd1 1_555 1_555
O5 Cd1 1_555 1_555
O6 C22 1_555 1_555
O7 Cd1 1_555 1_555
O8 C19 1_555 1_555
Cd1A N4A 1_555 1_555
Cd1A_2 O7 1_555 1_555
Cd1A_3 O7A 1_555 1_555
Cd1_2 O7A 1_555 1_555
Cd1_3 O3_2 1_555 1_555
Cd2_2 O1 1_555 1_555
Cd2_3 O5 1_555 1_555
Cd2A O6 1_555 1_555
Cd2A_2 O8 1_555 1_555
Cd2_4 O6A 1_555 1_555
Cd2A_3 O5A 1_555 1_555
Cd2A_4 N1A 1_555 1_555
C1A C2A 1_555 1_555
C2A H1A 1_555 1_555
C3A C2A 1_555 1_555
H2A C3A 1_555 1_555
C4A C3A 1_555 1_555
C5A C4A 1_555 1_555
H3A C5A 1_555 1_555
C6A C1A 1_555 1_555
H4A C6A 1_555 1_555
C7A C1A 1_555 1_555
C8A C7A 1_555 1_555
H5A C8A 1_555 1_555
C9A H6A 1_555 1_555
C10A C4A 1_555 1_555
C11A C10A 1_555 1_555
H7A C11A 1_555 1_555
C12A H8A 1_555 1_555
C13_2 C14_2 1_555 1_555
C14_2 H9_2 1_555 1_555
H10_2 C14_2 1_555 1_555
C15_2 C14_2 1_555 1_555
H11_2 C15_2 1_555 1_555
H12_2 C15_2 1_555 1_555
C16_2 C15_2 1_555 1_555
H13_2 C16_2 1_555 1_555
H14_2 C16_2 1_555 1_555
C17_2 C16_2 1_555 1_555
H15_2 C17_2 1_555 1_555
H16_2 C17_2 1_555 1_555
C18_2 C17_2 1_555 1_555
C19A C20A 1_555 1_555
C20A H17A 1_555 1_555
H18A C20A 1_555 1_555
C21A C21 1_555 1_555
H19A C21A 1_555 1_555
H20A C21A 1_555 1_555
C22A C23A 1_555 1_555
C23A H21A 1_555 1_555
H22A C23A 1_555 1_555
C24A C24 1_555 1_555
H23A C24A 1_555 1_555
H24A C24A 1_555 1_555
N1A C8A 1_555 1_555
N1_2 Cd2_2 1_555 1_555
N2A C7A 1_555 1_555
H25A N2A 1_555 1_555
N3A C10A 1_555 1_555
H26A N3A 1_555 1_555
N4A C11A 1_555 1_555
O1_2 Cd2 1_555 1_555
O2_2 Cd2 1_555 1_555
O3_2 C18_2 1_555 1_555
O3A Cd1A 1_555 1_555
O4_2 Cd1_3 1_555 1_555
O4A Cd1A 1_555 1_555
O5A Cd1A 1_555 1_555
O5_2 Cd2 1_555 1_555
O5_3 Cd2_2 1_555 1_555
O6A Cd2A_3 1_555 1_555
O6_2 Cd2 1_555 1_555
O6A_2 Cd2 1_555 1_555
O6_3 Cd2_2 1_555 1_555
O6A_3 Cd2_2 1_555 1_555
O7A C19A 1_555 1_555
O7A_2 Cd1 1_555 1_555
O7A_3 Cd1A 1_555 1_555
O7_2 Cd1A 1_555 1_555
O8A Cd2_4 1_555 1_555
O8A_2 Cd2 1_555 1_555
O8A_3 Cd2_2 1_555 1_555
C5 C6 1_555 1_555
C9 N1 1_555 1_555
C9 N2 1_555 1_555
C12 N3 1_555 1_555
C12 N4 1_555 1_555
C18 O3 1_555 1_555
C18 O4 1_555 1_555
C19 O7 1_555 1_555
C22 O5 1_555 1_555
O2 Cd2_2 1_555 1_555
O6 Cd2_3 1_555 1_555
Cd1A_2 O7A_2 1_555 1_555
C5A C6A 1_555 1_555
C9A N1A 1_555 1_555
C9A N2A 1_555 1_555
C12A N3A 1_555 1_555
C12A N4A 1_555 1_555
C13_2 O1_2 1_555 1_555
C13_2 O2_2 1_555 1_555
C18_2 O4_2 1_555 1_555
C19A O8A 1_555 1_555
C20A C21A 1_555 1_555
C22A O5A 1_555 1_555
C22A O6A 1_555 1_555
C23A C24A 1_555 1_555

#END
