
#######################################################################
#
#                 Cambridge Crystallographic Data Centre
#                                CCDC 
#
#######################################################################
#
# If this CIF has been generated from an entry in the Cambridge 
# Structural Database, then it will include bibliographic, chemical, 
# crystal, experimental, refinement or atomic coordinate data resulting 
# from the CCDC's data processing and validation procedures.
#
#######################################################################

data_XAFTEF
_symmetry_cell_setting           triclinic
_symmetry_space_group_name_H-M   'P -1'
_symmetry_Int_Tables_number      2
_space_group_name_Hall           '-P 1'
loop_
_symmetry_equiv_pos_site_id
_symmetry_equiv_pos_as_xyz
1 x,y,z
2 -x,-y,-z
_cell_length_a                   9.2547(12)
_cell_length_b                   10.1947(14)
_cell_length_c                   12.9233(17)
_cell_angle_alpha                98.955(3)
_cell_angle_beta                 93.424(3)
_cell_angle_gamma                104.368(2)
_cell_volume                     1160.59
loop_
_atom_site_label
_atom_site_type_symbol
_atom_site_fract_x
_atom_site_fract_y
_atom_site_fract_z
Mn1 Mn 0.0000 0.0000 -0.5000
Mn2 Mn 0.74458(5) 1.05465(5) -0.72642(4)
C1 C -0.1252(3) 0.4175(3) -0.1824(2)
C2 C 0.0006(3) 0.5275(3) -0.1679(2)
H1 H 0.0801 0.5207 -0.2074
C3 C 0.0126(4) 0.6457(3) -0.0980(3)
H2 H 0.0976 0.7188 -0.0925
C4 C -0.1031(3) 0.6571(3) -0.0343(2)
C5 C -0.2291(4) 0.5471(3) -0.0492(2)
H3 H -0.3084 0.5535 -0.0095
C6 C -0.2419(4) 0.4294(3) -0.1198(2)
H4 H -0.3279 0.3571 -0.1265
C7 C -0.0325(3) 0.2488(3) -0.3153(2)
H5 H 0.0682 0.2958 -0.3102
C8 C -0.2370(3) 0.0952(3) -0.3602(2)
H6 H -0.3084 0.0152 -0.3917
C9 C -0.1356(3) 0.2943(3) -0.2602(2)
C10 C -0.2014(4) 0.8277(3) 0.0925(2)
H7 H -0.3031 0.7827 0.0830
C11 C 0.0042(4) 0.9770(3) 0.1485(2)
H8 H 0.0748 1.0548 0.1846
C12 C -0.0941(3) 0.7811(3) 0.0422(2)
C13 C 0.2611(3) 0.4454(3) -0.6183(2)
C14 C 0.3611(3) 0.5704(3) -0.5756(2)
H9 H 0.3328 0.6293 -0.5228
C15 C 0.5002(3) 0.6095(3) -0.6090(2)
C16 C 0.5404(3) 0.5206(3) -0.6884(2)
H10 H 0.6339 0.5463 -0.7130
C17 C 0.4427(3) 0.3941(3) -0.7313(2)
C18 C 0.3038(3) 0.3592(3) -0.6947(2)
H11 H 0.2376 0.2747 -0.7229
C19 C 0.1066(3) 0.4123(3) -0.5773(3)
H12 H 0.1197 0.4345 -0.5009
H13 H 0.0491 0.4708 -0.6024
C20 C 0.0171(3) 0.2633(3) -0.6102(3)
C21 C 0.6102(4) 0.7430(3) -0.5578(2)
H14 H 0.7000 0.7220 -0.5303
H15 H 0.5669 0.7834 -0.4984
C22 C 0.6558(3) 0.8498(3) -0.6272(2)
C23 C 0.4873(4) 0.2962(3) -0.8164(3)
H16 H 0.3989 0.2474 -0.8643
H17 H 0.5581 0.3495 -0.8562
C24 C 0.5567(3) 0.1918(3) -0.7763(3)
N1 N -0.0957(3) 0.1242(3) -0.3799(2)
N2 N -0.2660(3) 0.1925(3) -0.2905(2)
H18 H -0.3517 0.1920 -0.2680
N3 N -0.1391(3) 0.9499(3) 0.1593(2)
N4 N 0.0369(3) 0.8799(3) 0.0799(2)
H19 H 0.1247 0.8789 0.0621
O1 O 0.0646(2) 0.1746(2) -0.57456(19)
O3 O -0.0989(3) 0.2396(2) -0.6714(2)
O4 O 0.7756(2) 0.94432(19) -0.59653(16)
O5 O 0.5783(2) 0.8512(2) -0.70797(17)
O6 O 0.5655(3) 0.1790(2) -0.68330(18)
O7 O 0.6083(2) 0.1163(2) -0.84389(17)
Mn1_2 Mn 1.0000 1.0000 -0.5000
Mn1_3 Mn -1.0000 -1.0000 -0.5000
Mn2A Mn 0.25542(5) -1.05465(5) -1.27358(4)
Mn2_2 Mn -0.25542(5) 0.05465(5) -0.72642(4)
Mn2_3 Mn -0.25542(5) 1.05465(5) 0.27358(4)
Mn2_4 Mn 0.74458(5) 0.05465(5) -0.72642(4)
Mn2A_2 Mn 0.25542(5) -0.05465(5) -0.27358(4)
Mn2A_3 Mn -0.74458(5) -1.05465(5) -0.27358(4)
Mn2A_4 Mn -0.74458(5) -0.05465(5) -0.27358(4)
C1A C 0.1252(3) -0.4175(3) -0.8176(2)
C2A C -0.0006(3) -0.5275(3) -0.8321(2)
H1A H -0.0801 -0.5207 -0.7926
C3A C -0.0126(4) -0.6457(3) -0.9020(3)
H2A H -0.0976 -0.7188 -0.9075
C4A C 0.1031(3) -0.6571(3) -0.9657(2)
C5A C 0.2291(4) -0.5471(3) -0.9508(2)
H3A H 0.3084 -0.5535 -0.9905
C6A C 0.2419(4) -0.4294(3) -0.8802(2)
H4A H 0.3279 -0.3571 -0.8735
C7A C 0.0325(3) -0.2488(3) -0.6847(2)
H5A H -0.0682 -0.2958 -0.6898
C8A C 0.2370(3) -0.0952(3) -0.6398(2)
H6A H 0.3084 -0.0152 -0.6083
C9A C 0.1356(3) -0.2943(3) -0.7398(2)
C10A C 0.2014(4) -0.8277(3) -1.0925(2)
H7A H 0.3031 -0.7827 -1.0830
C11A C -0.0042(4) -0.9770(3) -1.1485(2)
H8A H -0.0748 -1.0548 -1.1846
C12A C 0.0941(3) -0.7811(3) -1.0422(2)
C13A C -0.2611(3) -0.4454(3) -0.3817(2)
C14A C -0.3611(3) -0.5704(3) -0.4244(2)
H9A H -0.3328 -0.6293 -0.4772
C15A C -0.5002(3) -0.6095(3) -0.3910(2)
C16A C -0.5404(3) -0.5206(3) -0.3116(2)
H10A H -0.6339 -0.5463 -0.2870
C17A C -0.4427(3) -0.3941(3) -0.2687(2)
C18A C -0.3038(3) -0.3592(3) -0.3053(2)
H11A H -0.2376 -0.2747 -0.2771
C19A C -0.1066(3) -0.4123(3) -0.4227(3)
H12A H -0.1197 -0.4345 -0.4991
H13A H -0.0491 -0.4708 -0.3976
C20A C -0.0171(3) -0.2633(3) -0.3898(3)
C21A C -0.6102(4) -0.7430(3) -0.4422(2)
H14A H -0.7000 -0.7220 -0.4697
H15A H -0.5669 -0.7834 -0.5016
C22A C -0.6558(3) -0.8498(3) -0.3728(2)
C23A C -0.4873(4) -0.2962(3) -0.1836(3)
H16A H -0.3989 -0.2474 -0.1357
H17A H -0.5581 -0.3495 -0.1438
C24A C -0.5567(3) -0.1918(3) -0.2237(3)
N1A N 0.0957(3) -0.1242(3) -0.6201(2)
N2A N 0.2660(3) -0.1925(3) -0.7095(2)
H18A H 0.3517 -0.1920 -0.7320
N3A N 0.1391(3) -0.9499(3) -1.1593(2)
N3_2 N 0.8609(3) 0.9499(3) -0.8407(2)
N3A_2 N -0.8609(3) -0.9499(3) -0.1593(2)
N4A N -0.0369(3) -0.8799(3) -1.0799(2)
H19A H -0.1247 -0.8789 -1.0621
O1A O -0.0646(2) -0.1746(2) -0.42544(19)
O3A O 0.0989(3) -0.2396(2) -0.3286(2)
O3_2 O 0.9011(3) 1.2396(2) -0.6714(2)
O3A_2 O -0.9011(3) -1.2396(2) -0.3286(2)
O4A O -0.7756(2) -0.94432(19) -0.40347(16)
O4_2 O -0.2244(2) -0.05568(19) -0.59653(16)
O4A_2 O 0.2244(2) 0.05568(19) -0.40347(16)
O5A O -0.5783(2) -0.8512(2) -0.29203(17)
O6A O -0.5655(3) -0.1790(2) -0.31670(18)
O6_2 O 0.5655(3) 1.1790(2) -0.68330(18)
O6A_2 O -0.5655(3) -1.1790(2) -0.31670(18)
O7A O -0.6083(2) -0.1163(2) -0.15611(17)
O7_2 O 0.6083(2) 1.1163(2) -0.84389(17)
O7A_2 O -0.6083(2) -1.1163(2) -0.15611(17)
O2 O 0.6578(3) 0.1079(3) -0.0529(3)
H20 H 0.642(3) 0.109(3) 0.019(3)
H21 H 0.609(5) 0.053(4) -0.093(3)
loop_
_geom_bond_atom_site_label_1
_geom_bond_atom_site_label_2
_geom_bond_site_symmetry_1
_geom_bond_site_symmetry_2
Mn1 N1 1_555 1_555
Mn2 O4 1_555 1_555
C1 C2 1_555 1_555
C2 H1 1_555 1_555
C3 C2 1_555 1_555
H2 C3 1_555 1_555
C4 C3 1_555 1_555
C5 C4 1_555 1_555
H3 C5 1_555 1_555
C6 C1 1_555 1_555
H4 C6 1_555 1_555
C7 H5 1_555 1_555
C8 H6 1_555 1_555
C9 C1 1_555 1_555
C10 H7 1_555 1_555
C11 H8 1_555 1_555
C12 C4 1_555 1_555
C13 C14 1_555 1_555
C14 H9 1_555 1_555
C15 C14 1_555 1_555
C16 C15 1_555 1_555
H10 C16 1_555 1_555
C17 C16 1_555 1_555
C18 C13 1_555 1_555
H11 C18 1_555 1_555
C19 C13 1_555 1_555
H12 C19 1_555 1_555
H13 C19 1_555 1_555
C20 C19 1_555 1_555
C21 C15 1_555 1_555
H14 C21 1_555 1_555
H15 C21 1_555 1_555
C22 C21 1_555 1_555
C23 C17 1_555 1_555
H16 C23 1_555 1_555
H17 C23 1_555 1_555
C24 C23 1_555 1_555
N1 C7 1_555 1_555
N2 C8 1_555 1_555
H18 N2 1_555 1_555
N3 C10 1_555 1_555
N4 C11 1_555 1_555
H19 N4 1_555 1_555
O1 Mn1 1_555 1_555
O2 H20 1_555 1_555
O3 C20 1_555 1_555
O4 C22 1_555 1_555
O5 Mn2 1_555 1_555
O6 C24 1_555 1_555
O7 C24 1_555 1_555
H21 O2 1_555 1_555
Mn1_2 O4 1_555 1_555
Mn1_3 O4A 1_555 1_555
Mn2A N3A 1_555 1_555
Mn2_2 O3 1_555 1_555
Mn2_3 N3 1_555 1_555
Mn2_4 O6 1_555 1_555
Mn2A_2 O3A 1_555 1_555
Mn2A_3 N3A_2 1_555 1_555
Mn2A_4 O6A 1_555 1_555
C1A C2A 1_555 1_555
C2A H1A 1_555 1_555
C3A C2A 1_555 1_555
H2A C3A 1_555 1_555
C4A C3A 1_555 1_555
C5A C4A 1_555 1_555
H3A C5A 1_555 1_555
C6A C1A 1_555 1_555
H4A C6A 1_555 1_555
C7A H5A 1_555 1_555
C8A H6A 1_555 1_555
C9A C1A 1_555 1_555
C10A H7A 1_555 1_555
C11A H8A 1_555 1_555
C12A C4A 1_555 1_555
C13A C14A 1_555 1_555
C14A H9A 1_555 1_555
C15A C14A 1_555 1_555
C16A C15A 1_555 1_555
H10A C16A 1_555 1_555
C17A C16A 1_555 1_555
C18A C13A 1_555 1_555
H11A C18A 1_555 1_555
C19A C13A 1_555 1_555
H12A C19A 1_555 1_555
H13A C19A 1_555 1_555
C20A C19A 1_555 1_555
C21A C15A 1_555 1_555
H14A C21A 1_555 1_555
H15A C21A 1_555 1_555
C22A C21A 1_555 1_555
C23A C17A 1_555 1_555
H16A C23A 1_555 1_555
H17A C23A 1_555 1_555
C24A C23A 1_555 1_555
N1A Mn1 1_555 1_555
N2A C8A 1_555 1_555
H18A N2A 1_555 1_555
N3A C10A 1_555 1_555
N3_2 Mn2 1_555 1_555
N4A C11A 1_555 1_555
H19A N4A 1_555 1_555
O1A Mn1 1_555 1_555
O3A C20A 1_555 1_555
O3_2 Mn2 1_555 1_555
O3A_2 Mn2A_3 1_555 1_555
O4A Mn2A_3 1_555 1_555
O4_2 Mn1 1_555 1_555
O4A_2 Mn1 1_555 1_555
O5A Mn2A_3 1_555 1_555
O6A C24A 1_555 1_555
O6_2 Mn2 1_555 1_555
O6A_2 Mn2A_3 1_555 1_555
O7A Mn2A_4 1_555 1_555
O7_2 Mn2 1_555 1_555
O7A_2 Mn2A_3 1_555 1_555
C5 C6 1_555 1_555
C7 C9 1_555 1_555
C8 N1 1_555 1_555
C9 N2 1_555 1_555
C10 C12 1_555 1_555
C11 N3 1_555 1_555
C12 N4 1_555 1_555
C17 C18 1_555 1_555
C20 O1 1_555 1_555
C22 O5 1_555 1_555
O7 Mn2_4 1_555 1_555
Mn2_2 O4_2 1_555 1_555
Mn2A_2 O4A_2 1_555 1_555
C5A C6A 1_555 1_555
C7A C9A 1_555 1_555
C7A N1A 1_555 1_555
C8A N1A 1_555 1_555
C9A N2A 1_555 1_555
C10A C12A 1_555 1_555
C11A N3A 1_555 1_555
C12A N4A 1_555 1_555
C17A C18A 1_555 1_555
C20A O1A 1_555 1_555
C22A O4A 1_555 1_555
C22A O5A 1_555 1_555
C24A O7A 1_555 1_555

#END
