
#######################################################################
#
#                 Cambridge Crystallographic Data Centre
#                                CCDC 
#
#######################################################################
#
# If this CIF has been generated from an entry in the Cambridge 
# Structural Database, then it will include bibliographic, chemical, 
# crystal, experimental, refinement or atomic coordinate data resulting 
# from the CCDC's data processing and validation procedures.
#
#######################################################################

data_XAFTAB
_symmetry_cell_setting           triclinic
_symmetry_space_group_name_H-M   'P -1'
_symmetry_Int_Tables_number      2
_space_group_name_Hall           '-P 1'
loop_
_symmetry_equiv_pos_site_id
_symmetry_equiv_pos_as_xyz
1 x,y,z
2 -x,-y,-z
_cell_length_a                   10.654(5)
_cell_length_b                   10.711(5)
_cell_length_c                   11.681(5)
_cell_angle_alpha                110.143(7)
_cell_angle_beta                 102.356(7)
_cell_angle_gamma                109.812(7)
_cell_volume                     1091.74
loop_
_atom_site_label
_atom_site_type_symbol
_atom_site_fract_x
_atom_site_fract_y
_atom_site_fract_z
Co1 Co -0.27183(4) 0.25781(3) -0.16704(3)
C1 C -0.4473(3) -0.4637(3) -0.3685(3)
H1 H -0.4123 -0.4401 -0.2799
C2 C -0.4332(3) -0.3502(3) -0.4051(3)
C3 C -0.5125(3) -0.6098(3) -0.4619(3)
H2 H -0.5204 -0.6837 -0.4353
C4 C -0.3624(3) -0.1931(3) -0.3093(2)
C5 C -0.3754(3) -0.0754(2) -0.3189(2)
H3 H -0.4373 -0.0809 -0.3919
C6 C -0.2161(3) 0.0132(3) -0.1276(3)
H4 H -0.1470 0.0782 -0.0434
C7 C -0.9671(3) 0.1057(3) -0.3753(2)
H5 H -0.9458 0.1765 -0.2914
C8 C -0.8582(3) 0.0789(2) -0.4085(2)
C9 C -1.1067(3) 0.0285(3) -0.4655(2)
H6 H -1.1783 0.0485 -0.4419
C10 C -0.7098(3) 0.1562(3) -0.3156(2)
C11 C -0.5950(3) 0.1291(3) -0.3184(2)
H7 H -0.5971 0.0493 -0.3857
C12 C -0.5186(3) 0.3259(3) -0.1402(3)
H8 H -0.4595 0.4096 -0.0599
C13 C -0.1176(3) 0.6236(3) -0.4047(3)
H9 H -0.2108 0.5787 -0.4659
C14 C -0.0399(4) 0.7759(4) -0.3472(3)
H10 H -0.0810 0.8331 -0.3682
C15 C 0.0989(4) 0.8429(3) -0.2583(3)
H11 H 0.1524 0.9459 -0.2182
C16 C 0.1577(4) 0.7567(3) -0.2294(3)
H12 H 0.2524 0.8026 -0.1707
C17 C 0.0803(3) 0.6025(3) -0.2851(2)
C18 C -0.0613(3) 0.5353(3) -0.3743(2)
C19 C -0.1558(3) 0.3700(3) -0.4383(3)
H13 H -0.1006 0.3195 -0.4693
H14 H -0.2354 0.3444 -0.5147
C20 C -0.2165(3) 0.3106(3) -0.3520(3)
C21 C 0.1511(3) 0.5151(3) -0.2477(2)
H15 H 0.2413 0.5420 -0.2613
H16 H 0.0901 0.4102 -0.3070
C22 C 0.1817(3) 0.5359(3) -0.1081(2)
N1 N -0.2597(3) -0.1344(2) -0.1858(2)
H17 H -0.2292 -0.1835 -0.1522
N2 N -0.2834(2) 0.0540(2) -0.2048(2)
N3 N -0.6582(2) 0.2834(2) -0.1998(2)
H18 H -0.7071 0.3276 -0.1711
N4 N -0.4749(2) 0.2356(2) -0.2083(2)
O1 O 0.18240(19) 0.64905(18) -0.02598(16)
O2 O 0.2120(2) 0.44362(18) -0.08120(16)
O3 O -0.1532(2) 0.38850(19) -0.22783(17)
O4 O -0.3234(2) 0.18754(18) -0.40127(18)
Co1A Co -0.72817(4) -1.25781(3) -0.83296(3)
Co1A_2 Co 0.27183(4) 0.74219(3) 0.16704(3)
Co1A_3 Co -1.72817(4) -0.25781(3) -0.83296(3)
Co1_2 Co -2.27183(4) -0.74219(3) -1.16704(3)
C1A C -0.5527(3) -0.5363(3) -0.6315(3)
H1A H -0.5877 -0.5599 -0.7201
C2A C -0.5668(3) -0.6498(3) -0.5949(3)
C3A C -0.4875(3) -0.3902(3) -0.5381(3)
H2A H -0.4796 -0.3163 -0.5647
C4A C -0.6376(3) -0.8069(3) -0.6907(2)
C5A C -0.6246(3) -0.9246(2) -0.6811(2)
H3A H -0.5627 -0.9191 -0.6081
C6A C -0.7839(3) -1.0132(3) -0.8724(3)
H4A H -0.8530 -1.0782 -0.9566
C7A C -1.0329(3) -0.1057(3) -0.6247(2)
H5A H -1.0542 -0.1765 -0.7086
C8A C -1.1418(3) -0.0789(2) -0.5915(2)
C9A C -0.8933(3) -0.0285(3) -0.5345(2)
H6A H -0.8217 -0.0485 -0.5581
C10A C -1.2902(3) -0.1562(3) -0.6844(2)
C11A C -1.4050(3) -0.1291(3) -0.6816(2)
H7A H -1.4029 -0.0493 -0.6143
C12A C -1.4814(3) -0.3259(3) -0.8598(3)
H8A H -1.5405 -0.4096 -0.9401
C13A C -1.8824(3) -0.6236(3) -0.5953(3)
H9A H -1.7892 -0.5787 -0.5341
C14A C -1.9601(4) -0.7759(4) -0.6528(3)
H10A H -1.9190 -0.8331 -0.6318
C15A C -2.0989(4) -0.8429(3) -0.7417(3)
H11A H -2.1524 -0.9459 -0.7818
C16A C -2.1577(4) -0.7567(3) -0.7706(3)
H12A H -2.2524 -0.8026 -0.8293
C17A C -2.0803(3) -0.6025(3) -0.7149(2)
C18A C -1.9387(3) -0.5353(3) -0.6257(2)
C19A C -1.8442(3) -0.3700(3) -0.5617(3)
H13A H -1.8994 -0.3195 -0.5307
H14A H -1.7646 -0.3444 -0.4853
C20A C -1.7835(3) -0.3106(3) -0.6480(3)
C21A C -2.1511(3) -0.5151(3) -0.7523(2)
H15A H -2.2413 -0.5420 -0.7387
H16A H -2.0901 -0.4102 -0.6930
C22A C -2.1817(3) -0.5359(3) -0.8919(2)
N1A N -0.7403(3) -0.8656(2) -0.8142(2)
H17A H -0.7708 -0.8165 -0.8478
N2A N -0.7166(2) -1.0540(2) -0.7952(2)
N2A_2 N -1.7166(2) -0.0540(2) -0.7952(2)
N3A N -1.3418(2) -0.2834(2) -0.8002(2)
H18A H -1.2929 -0.3276 -0.8289
N4A N -1.5251(2) -0.2356(2) -0.7917(2)
O1A O -0.18240(19) 0.35095(18) 0.02598(16)
O1_2 O -1.81760(19) -0.35095(18) -1.02598(16)
O1A_2 O -2.18240(19) -0.64905(18) -0.97402(16)
O2A O -2.2120(2) -0.44362(18) -0.91880(16)
O3A O -1.8468(2) -0.38850(19) -0.77217(17)
O4A O -1.6766(2) -0.18754(18) -0.59873(18)
O5 O -0.8622(3) 0.2986(3) -0.9179(3)
H19 H -0.846(4) 0.332(4) -0.967(4)
H20 H -0.884(4) 0.354(4) -0.871(4)
loop_
_geom_bond_atom_site_label_1
_geom_bond_atom_site_label_2
_geom_bond_site_symmetry_1
_geom_bond_site_symmetry_2
Co1 N2 1_555 1_555
C1 H1 1_555 1_555
C2 C1 1_555 1_555
C3 C1 1_555 1_555
H2 C3 1_555 1_555
C4 C2 1_555 1_555
C5 C4 1_555 1_555
H3 C5 1_555 1_555
C6 H4 1_555 1_555
C7 H5 1_555 1_555
C8 C7 1_555 1_555
C9 C7 1_555 1_555
H6 C9 1_555 1_555
C10 C8 1_555 1_555
C11 C10 1_555 1_555
H7 C11 1_555 1_555
C12 H8 1_555 1_555
C13 H9 1_555 1_555
C14 C13 1_555 1_555
H10 C14 1_555 1_555
C15 C14 1_555 1_555
H11 C15 1_555 1_555
C16 C15 1_555 1_555
H12 C16 1_555 1_555
C17 C16 1_555 1_555
C18 C13 1_555 1_555
C19 C18 1_555 1_555
H13 C19 1_555 1_555
H14 C19 1_555 1_555
C20 C19 1_555 1_555
C21 C17 1_555 1_555
H15 C21 1_555 1_555
H16 C21 1_555 1_555
C22 C21 1_555 1_555
N1 C4 1_555 1_555
H17 N1 1_555 1_555
N2 C5 1_555 1_555
N3 C10 1_555 1_555
H18 N3 1_555 1_555
N4 Co1 1_555 1_555
O1 C22 1_555 1_555
O2 C22 1_555 1_555
O3 Co1 1_555 1_555
O4 Co1 1_555 1_555
O5 H19 1_555 1_555
H20 O5 1_555 1_555
Co1A N2A 1_555 1_555
Co1A_2 O1 1_555 1_555
Co1A_3 N2A_2 1_555 1_555
Co1_2 O1A_2 1_555 1_555
C1A H1A 1_555 1_555
C2A C3 1_555 1_555
C3A C2 1_555 1_555
H2A C3A 1_555 1_555
C4A C2A 1_555 1_555
C5A C4A 1_555 1_555
H3A C5A 1_555 1_555
C6A H4A 1_555 1_555
C7A H5A 1_555 1_555
C8A C9 1_555 1_555
C9A C8 1_555 1_555
H6A C9A 1_555 1_555
C10A C8A 1_555 1_555
C11A C10A 1_555 1_555
H7A C11A 1_555 1_555
C12A H8A 1_555 1_555
C13A H9A 1_555 1_555
C14A C13A 1_555 1_555
H10A C14A 1_555 1_555
C15A C14A 1_555 1_555
H11A C15A 1_555 1_555
C16A C15A 1_555 1_555
H12A C16A 1_555 1_555
C17A C16A 1_555 1_555
C18A C13A 1_555 1_555
C19A C18A 1_555 1_555
H13A C19A 1_555 1_555
H14A C19A 1_555 1_555
C20A C19A 1_555 1_555
C21A C17A 1_555 1_555
H15A C21A 1_555 1_555
H16A C21A 1_555 1_555
C22A C21A 1_555 1_555
N1A C4A 1_555 1_555
H17A N1A 1_555 1_555
N2A C5A 1_555 1_555
N3A C10A 1_555 1_555
H18A N3A 1_555 1_555
N4A Co1A_3 1_555 1_555
O1A Co1 1_555 1_555
O1_2 Co1A_3 1_555 1_555
O1A_2 C22A 1_555 1_555
O2A C22A 1_555 1_555
O3A Co1A_3 1_555 1_555
O4A Co1A_3 1_555 1_555
C6 N1 1_555 1_555
C6 N2 1_555 1_555
C11 N4 1_555 1_555
C12 N3 1_555 1_555
C12 N4 1_555 1_555
C17 C18 1_555 1_555
C20 O3 1_555 1_555
C20 O4 1_555 1_555
C1A C2A 1_555 1_555
C1A C3A 1_555 1_555
C6A N1A 1_555 1_555
C6A N2A 1_555 1_555
C7A C8A 1_555 1_555
C7A C9A 1_555 1_555
C11A N4A 1_555 1_555
C12A N3A 1_555 1_555
C12A N4A 1_555 1_555
C17A C18A 1_555 1_555
C20A O3A 1_555 1_555
C20A O4A 1_555 1_555

#END
