
#######################################################################
#
#                 Cambridge Crystallographic Data Centre
#                                CCDC 
#
#######################################################################
#
# If this CIF has been generated from an entry in the Cambridge 
# Structural Database, then it will include bibliographic, chemical, 
# crystal, experimental, refinement or atomic coordinate data resulting 
# from the CCDC's data processing and validation procedures.
#
#######################################################################

data_XAFWEG01
_symmetry_cell_setting           monoclinic
_symmetry_space_group_name_H-M   'P 21/a'
_symmetry_Int_Tables_number      14
_space_group_name_Hall           '-P 2yab'
loop_
_symmetry_equiv_pos_site_id
_symmetry_equiv_pos_as_xyz
1 x,y,z
2 1/2-x,1/2+y,-z
3 -x,-y,-z
4 1/2+x,1/2-y,z
_cell_length_a                   23.743(3)
_cell_length_b                   9.7522(5)
_cell_length_c                   27.731(2)
_cell_angle_alpha                90
_cell_angle_beta                 114.580(10)
_cell_angle_gamma                90
_cell_volume                     5839.15
loop_
_atom_site_label
_atom_site_type_symbol
_atom_site_fract_x
_atom_site_fract_y
_atom_site_fract_z
Cu1 Cu 0.63961(4) 0.23495(10) -0.01294(3)
N1 N 0.5956(2) 0.3278(6) 0.0251(2)
N2 N 0.5595(2) 0.1347(6) -0.0456(2)
C1 C 0.6199(3) 0.4282(8) 0.0615(3)
H1 H 0.6600(3) 0.4588(8) 0.0699(3)
C2 C 0.5852(4) 0.4863(9) 0.0863(3)
H2 H 0.6023(4) 0.5545(9) 0.1117(3)
C3 C 0.5268(4) 0.4427(9) 0.0734(3)
H3 H 0.5033(4) 0.4824(9) 0.0894(3)
C4 C 0.5019(3) 0.3410(9) 0.0370(3)
H4 H 0.4623(3) 0.3079(9) 0.0292(3)
C5 C 0.5375(3) 0.2868(7) 0.0114(3)
C6 C 0.5162(3) 0.1778(7) -0.0296(3)
C7 C 0.4581(3) 0.1200(9) -0.0494(3)
H5 H 0.4285(3) 0.1498(9) -0.0379(3)
C8 C 0.4444(4) 0.0141(10) -0.0874(4)
H6 H 0.4053(4) -0.0259(10) -0.1020(4)
C9 C 0.4896(3) -0.0283(9) -0.1025(3)
H7 H 0.4821(3) -0.0979(9) -0.1273(3)
C10 C 0.5468(3) 0.0352(8) -0.0797(3)
H8 H 0.5778(3) 0.0050(8) -0.0893(3)
Cu2 Cu 0.82696(4) 0.45128(9) 0.13077(3)
N3 N 0.8646(2) 0.5869(6) 0.1889(2)
N4 N 0.9001(2) 0.3417(6) 0.1791(2)
C11 C 0.8449(3) 0.7146(8) 0.1895(3)
H9 H 0.8095(3) 0.7443(8) 0.1609(3)
C12 C 0.8749(4) 0.8048(9) 0.2306(3)
H10 H 0.8608(4) 0.8942(9) 0.2296(3)
C13 C 0.9273(4) 0.7569(10) 0.2738(3)
H11 H 0.9473(4) 0.8131(10) 0.3031(3)
C14 C 0.9485(3) 0.6305(9) 0.2731(3)
H12 H 0.9848(3) 0.6005(9) 0.3007(3)
C15 C 0.9159(3) 0.5440(8) 0.2307(2)
C16 C 0.9342(3) 0.4022(8) 0.2259(2)
C17 C 0.9813(3) 0.3297(10) 0.2658(3)
H13 H 1.0047(3) 0.3717(10) 0.2981(3)
C18 C 0.9931(4) 0.1971(10) 0.2573(4)
H14 H 1.0237(4) 0.1470(10) 0.2838(4)
C19 C 0.9585(4) 0.1386(9) 0.2084(4)
H15 H 0.9670(4) 0.0502(9) 0.2007(4)
C20 C 0.9118(4) 0.2126(8) 0.1717(3)
H16 H 0.8868(4) 0.1705(8) 0.1399(3)
O1 O 0.7631(2) 0.3478(5) 0.1615(2)
O2 O 0.7175 0.3177 0.0305
O3 O 0.6719 0.1430 -0.0569
O4 O 0.7404 0.0725 -0.0851
O5 O 0.8192 0.3292 0.0715
C21 C 0.7705 0.2855 0.0346
C22 C 0.7812 0.1935 -0.0047
H17 H 0.8061 0.2447 -0.0187
H18 H 0.8063 0.1170 0.0151
C23 C 0.7274 0.1344 -0.0514
O6 O 0.6095 0.4193 -0.0831
O4A O 0.7596 0.5725 0.0851
Cu2A Cu 0.67304(4) -0.04872(9) -0.13077(3)
Cu3 Cu 0.30791(4) 0.48566(9) -0.36875(3)
N5 N 0.3273(2) 0.6273(6) -0.3121(2)
N6 N 0.2857(2) 0.3801(6) -0.3176(2)
C24 C 0.3466(3) 0.7538(7) -0.3134(3)
H19 H 0.3522(3) 0.7809(7) -0.3433(3)
C25 C 0.3588(4) 0.8477(9) -0.2734(3)
H20 H 0.3730(4) 0.9354(9) -0.2753(3)
C26 C 0.3484(4) 0.8038(9) -0.2293(3)
H21 H 0.3548(4) 0.8644(9) -0.2016(3)
C27 C 0.3296(3) 0.6757(9) -0.2270(3)
H22 H 0.3240(3) 0.6467(9) -0.1973(3)
C28 C 0.3184(3) 0.5861(7) -0.2688(2)
C29 C 0.2964(3) 0.4450(8) -0.2718(2)
C30 C 0.2872(4) 0.3771(9) -0.2315(3)
H23 H 0.2935(4) 0.4231(9) -0.2002(3)
C31 C 0.2693(4) 0.2461(10) -0.2376(3)
H24 H 0.2639(4) 0.2011(10) -0.2103(3)
C32 C 0.2584(4) 0.1744(10) -0.2853(3)
H25 H 0.2461(4) 0.0830(10) -0.2902(3)
C33 C 0.2673(4) 0.2497(8) -0.3238(3)
H26 H 0.2601(4) 0.2069(8) -0.3559(3)
O7 O 0.4023(2) 0.3874(5) -0.3410(2)
Cu4 Cu 0.15522(4) 0.76364(10) -0.48263(3)
N7 N 0.0722(2) 0.8458(6) -0.5221(2)
N8 N 0.1099(2) 0.6588(6) -0.4483(2)
C34 C 0.0586(3) 0.9420(8) -0.5592(3)
H27 H 0.0902(3) 0.9798(8) -0.5664(3)
C35 C -0.0015(3) 0.9872(9) -0.5875(3)
H28 H -0.0102(3) 1.0531(9) -0.6138(3)
C36 C -0.0481(3) 0.9340(10) -0.5762(3)
H29 H -0.0886(3) 0.9642(10) -0.5948(3)
C37 C -0.0346(3) 0.8346(9) -0.5368(3)
H30 H -0.0657(3) 0.7979(9) -0.5286(3)
C38 C 0.0269(3) 0.7913(8) -0.5099(3)
C39 C 0.0491(3) 0.6869(8) -0.4680(3)
C40 C 0.0108(4) 0.6176(10) -0.4482(3)
H31 H -0.0312(4) 0.6385(10) -0.4611(3)
C41 C 0.0361(4) 0.5192(10) -0.4098(4)
H32 H 0.0114(4) 0.4724(10) -0.3965(4)
C42 C 0.0988(4) 0.4903(10) -0.3909(3)
H33 H 0.1171(4) 0.4238(10) -0.3651(3)
C43 C 0.1334(4) 0.5634(9) -0.4118(3)
H34 H 0.1754(4) 0.5441(9) -0.3995(3)
O8 O 0.3271 0.6038 -0.4172
O9 O 0.2445 0.8604 -0.5741
O10 O 0.1872 0.8472 -0.5287
O11 O 0.2319 0.6742 -0.4412
C44 C 0.2805 0.6671 -0.4491
C45 C 0.2855 0.7267 -0.4975
H35 H 0.3236 0.7792 -0.4852
H36 H 0.2902 0.6506 -0.5180
C46 C 0.2346 0.8168 -0.5349
O12 O 0.1938 0.9521 -0.4159
O9A O 0.2555 0.3604 -0.4259
Cu3A Cu 0.19209(4) 0.98566(9) -0.63125(3)
Cl1 Cl 0.3774 0.0214 -0.4076
O13 O 0.4167 0.1314 -0.3812
O14 O 0.4081 -0.1048 -0.3902
O15 O 0.3664 0.0347 -0.4620
O16 O 0.3206 0.0264 -0.4050
Cl2 Cl 0.4600 0.2690 -0.1966
O17 O 0.5257 0.2613 -0.1706
O18 O 0.4370 0.2856 -0.1583
O19 O 0.4431 0.3845 -0.2313
O20 O 0.4383 0.1517 -0.2260
Cl3 Cl 0.7189 -0.0099 0.0959
O21 O 0.7796 0.0016 0.1016
O22 O 0.7030 0.1012 0.1220
O23 O 0.7054 -0.1370 0.1126
O24 O 0.6775 -0.0042 0.0414
Cl4 Cl 0.6623 -0.3018 -0.2962
O25 O 0.6018 -0.3240 -0.3293
O26 O 0.6988 -0.3137 -0.3255
O27 O 0.6689 -0.1684 -0.2760
O28 O 0.6874 -0.3905 -0.2525
loop_
_geom_bond_atom_site_label_1
_geom_bond_atom_site_label_2
_geom_bond_site_symmetry_1
_geom_bond_site_symmetry_2
Cu1 N1 1_555 1_555
N1 C1 1_555 1_555
N2 Cu1 1_555 1_555
C1 H1 1_555 1_555
C2 C1 1_555 1_555
H2 C2 1_555 1_555
C3 C2 1_555 1_555
H3 C3 1_555 1_555
C4 C3 1_555 1_555
H4 C4 1_555 1_555
C5 N1 1_555 1_555
C6 N2 1_555 1_555
C7 C6 1_555 1_555
H5 C7 1_555 1_555
C8 C7 1_555 1_555
H6 C8 1_555 1_555
C9 C8 1_555 1_555
H7 C9 1_555 1_555
C10 N2 1_555 1_555
H8 C10 1_555 1_555
Cu2 N3 1_555 1_555
N3 C11 1_555 1_555
N4 Cu2 1_555 1_555
C11 H9 1_555 1_555
C12 C11 1_555 1_555
H10 C12 1_555 1_555
C13 C12 1_555 1_555
H11 C13 1_555 1_555
C14 C13 1_555 1_555
H12 C14 1_555 1_555
C15 N3 1_555 1_555
C16 N4 1_555 1_555
C17 C16 1_555 1_555
H13 C17 1_555 1_555
C18 C17 1_555 1_555
H14 C18 1_555 1_555
C19 C18 1_555 1_555
H15 C19 1_555 1_555
C20 N4 1_555 1_555
H16 C20 1_555 1_555
O1 Cu2 1_555 1_555
O2 Cu1 1_555 1_555
O3 Cu1 1_555 1_555
O4 C23 1_555 1_555
O5 Cu2 1_555 1_555
C21 O2 1_555 1_555
C22 C21 1_555 1_555
H17 C22 1_555 1_555
H18 C22 1_555 1_555
C23 O3 1_555 1_555
O6 Cu1 1_555 1_555
Cu3 N5 1_555 1_555
N5 C24 1_555 1_555
N6 Cu3 1_555 1_555
C24 H19 1_555 1_555
C25 C24 1_555 1_555
H20 C25 1_555 1_555
C26 C25 1_555 1_555
H21 C26 1_555 1_555
C27 C26 1_555 1_555
H22 C27 1_555 1_555
C28 N5 1_555 1_555
C29 N6 1_555 1_555
C30 C29 1_555 1_555
H23 C30 1_555 1_555
C31 C30 1_555 1_555
H24 C31 1_555 1_555
C32 C31 1_555 1_555
H25 C32 1_555 1_555
C33 N6 1_555 1_555
H26 C33 1_555 1_555
O7 Cu3 1_555 1_555
Cu4 N7 1_555 1_555
N7 C34 1_555 1_555
N8 Cu4 1_555 1_555
C34 H27 1_555 1_555
C35 C34 1_555 1_555
H28 C35 1_555 1_555
C36 C35 1_555 1_555
H29 C36 1_555 1_555
C37 C36 1_555 1_555
H30 C37 1_555 1_555
C38 N7 1_555 1_555
C39 N8 1_555 1_555
C40 C39 1_555 1_555
H31 C40 1_555 1_555
C41 C40 1_555 1_555
H32 C41 1_555 1_555
C42 C41 1_555 1_555
H33 C42 1_555 1_555
C43 N8 1_555 1_555
H34 C43 1_555 1_555
O8 Cu3 1_555 1_555
O9 C46 1_555 1_555
O10 Cu4 1_555 1_555
O11 Cu4 1_555 1_555
C44 O8 1_555 1_555
C45 C44 1_555 1_555
H35 C45 1_555 1_555
H36 C45 1_555 1_555
C46 O10 1_555 1_555
O12 Cu4 1_555 1_555
Cl1 O13 1_555 1_555
O14 Cl1 1_555 1_555
O15 Cl1 1_555 1_555
O16 Cl1 1_555 1_555
Cl2 O17 1_555 1_555
O18 Cl2 1_555 1_555
O19 Cl2 1_555 1_555
O20 Cl2 1_555 1_555
Cl3 O21 1_555 1_555
O22 Cl3 1_555 1_555
O23 Cl3 1_555 1_555
O24 Cl3 1_555 1_555
Cl4 O25 1_555 1_555
O26 Cl4 1_555 1_555
O27 Cl4 1_555 1_555
O28 Cl4 1_555 1_555
O4A Cu2 1_555 1_555
Cu2A O4 1_555 1_555
O9A Cu3 1_555 1_555
Cu3A O9 1_555 1_555
C4 C5 1_555 1_555
C5 C6 1_555 1_555
C9 C10 1_555 1_555
C14 C15 1_555 1_555
C15 C16 1_555 1_555
C19 C20 1_555 1_555
O5 C21 1_555 1_555
C22 C23 1_555 1_555
C27 C28 1_555 1_555
C28 C29 1_555 1_555
C32 C33 1_555 1_555
C37 C38 1_555 1_555
C38 C39 1_555 1_555
C42 C43 1_555 1_555
O11 C44 1_555 1_555
C45 C46 1_555 1_555

#END
