
#######################################################################
#
#                 Cambridge Crystallographic Data Centre
#                                CCDC 
#
#######################################################################
#
# If this CIF has been generated from an entry in the Cambridge 
# Structural Database, then it will include bibliographic, chemical, 
# crystal, experimental, refinement or atomic coordinate data resulting 
# from the CCDC's data processing and validation procedures.
#
#######################################################################

data_XAFWUY
_symmetry_cell_setting           triclinic
_symmetry_space_group_name_H-M   'P -1'
_symmetry_Int_Tables_number      2
_space_group_name_Hall           '-P 1'
loop_
_symmetry_equiv_pos_site_id
_symmetry_equiv_pos_as_xyz
1 x,y,z
2 -x,-y,-z
_cell_length_a                   6.00290(10)
_cell_length_b                   9.43740(10)
_cell_length_c                   10.47410(10)
_cell_angle_alpha                98.2250(10)
_cell_angle_beta                 94.7590(10)
_cell_angle_gamma                107.8410(10)
_cell_volume                     553.945
loop_
_atom_site_label
_atom_site_type_symbol
_atom_site_fract_x
_atom_site_fract_y
_atom_site_fract_z
C1 C -0.4021(7) 1.2628(4) 0.5667(3)
C2 C -0.5813(7) 1.3128(5) 0.5207(4)
H1 H -0.6464 1.3689 0.5777
C3 C -0.6638(7) 1.2783(4) 0.3878(4)
H2 H -0.7835 1.3125 0.3559
C4 C -0.5680(6) 1.1930(4) 0.3028(3)
C5 C -0.6577(6) 1.1675(4) 0.1596(3)
C6 C -0.3911(7) 1.1385(4) 0.3516(3)
C7 C -0.2911(7) 1.0406(4) 0.2659(3)
C8 C -0.3095(7) 1.1738(4) 0.4844(3)
H3 H -0.1932 1.1376 0.5177
Eu1 Eu 0.15435(3) 1.172770(19) 0.892400(15)
O1 O -0.1421(6) 1.2185(4) 0.7524(3)
O2 O -0.4741(6) 1.2951(4) 0.8091(3)
O3 O -0.1406(5) 1.4752(3) 0.7521(3)
O4 O -0.1567(5) 0.9780(3) 0.3152(3)
O5 O -0.3470(5) 1.0196(3) 0.1423(2)
O6 O -0.8349(5) 1.0545(3) 0.1085(2)
O7 O -0.5656(5) 1.2673(3) 0.0948(2)
O8 O 0.2515(7) 1.4481(4) 0.9249(6)
O9 O -0.0898(6) 1.2583(4) 1.0371(3)
S1 S -0.28047(17) 1.31753(11) 0.73245(8)
H4 H -0.022(14) 1.350(5) 1.096(6)
H5 H 0.152(11) 1.439(10) 0.844(5)
H6 H 0.397(8) 1.522(8) 0.915(7)
H7 H -0.204(11) 1.192(7) 1.074(7)
Eu1_2 Eu -0.84565(3) 1.172770(19) 0.892400(15)
Eu1A Eu -0.15435(3) 0.827230(19) 0.107600(15)
Eu1_3 Eu -0.84565(3) 1.172770(19) -0.107600(15)
Eu1A_2 Eu -1.15435(3) 0.827230(19) 0.107600(15)
O2_2 O 0.5259(6) 1.2951(4) 0.8091(3)
O4A O 0.1567(5) 1.0220(3) 0.6848(3)
O5A O 0.3470(5) 0.9804(3) 0.8577(2)
O6_2 O 0.1651(5) 1.0545(3) 1.1085(2)
O6A O -0.1651(5) 0.9455(3) 0.8915(2)
O7_2 O 0.4344(5) 1.2673(3) 1.0948(2)
loop_
_geom_bond_atom_site_label_1
_geom_bond_atom_site_label_2
_geom_bond_site_symmetry_1
_geom_bond_site_symmetry_2
C1 C2 1_555 1_555
C2 H1 1_555 1_555
C3 C2 1_555 1_555
H2 C3 1_555 1_555
C4 C3 1_555 1_555
C5 C4 1_555 1_555
C6 C4 1_555 1_555
C7 C6 1_555 1_555
C8 C1 1_555 1_555
H3 C8 1_555 1_555
Eu1 O1 1_555 1_555
O1 S1 1_555 1_555
O2 S1 1_555 1_555
O3 S1 1_555 1_555
O4 C7 1_555 1_555
O5 C7 1_555 1_555
O6 C5 1_555 1_555
O7 C5 1_555 1_555
O8 Eu1 1_555 1_555
O9 Eu1 1_555 1_555
S1 C1 1_555 1_555
H4 O9 1_555 1_555
H5 O8 1_555 1_555
H6 O8 1_555 1_555
H7 O9 1_555 1_555
Eu1_2 O2 1_555 1_555
Eu1A O4 1_555 1_555
Eu1_3 O6 1_555 1_555
Eu1A_2 O6 1_555 1_555
O2_2 Eu1 1_555 1_555
O4A Eu1 1_555 1_555
O5A Eu1 1_555 1_555
O6_2 Eu1 1_555 1_555
O6A Eu1 1_555 1_555
O7_2 Eu1 1_555 1_555
C6 C8 1_555 1_555
O5 Eu1A 1_555 1_555
O7 Eu1_3 1_555 1_555

#END
