
#######################################################################
#
#                 Cambridge Crystallographic Data Centre
#                                CCDC 
#
#######################################################################
#
# If this CIF has been generated from an entry in the Cambridge 
# Structural Database, then it will include bibliographic, chemical, 
# crystal, experimental, refinement or atomic coordinate data resulting 
# from the CCDC's data processing and validation procedures.
#
#######################################################################

data_XAFWEG
_symmetry_cell_setting           orthorhombic
_symmetry_space_group_name_H-M   'P b 21 a'
_symmetry_Int_Tables_number      29
_space_group_name_Hall           'P -2a -2ab'
loop_
_symmetry_equiv_pos_site_id
_symmetry_equiv_pos_as_xyz
1 x,y,z
2 -x,1/2+y,-z
3 1/2-x,1/2+y,z
4 1/2+x,y,-z
_cell_length_a                   23.700(5)
_cell_length_b                   25.162(5)
_cell_length_c                   9.693(5)
_cell_angle_alpha                90
_cell_angle_beta                 90
_cell_angle_gamma                90
_cell_volume                     5780.32
loop_
_atom_site_label
_atom_site_type_symbol
_atom_site_fract_x
_atom_site_fract_y
_atom_site_fract_z
Cu1 Cu 0.38431(5) 0.34466(5) -0.28240(12)
Cu2 Cu 0.47944(6) 0.22817(6) -0.00287(13)
Cu3 Cu 0.36508(5) 0.08227(5) 0.21687(12)
Cu4 Cu 0.27181(6) 0.19883(6) 0.49822(13)
N1 N 0.3928(3) 0.4016(3) -0.1419(8)
N2 N 0.4316(3) 0.3948(3) -0.3901(8)
C1 C 0.3737(6) 0.4005(6) -0.0137(11)
H1 H 0.3537(6) 0.3709(6) 0.0160(11)
C2 C 0.3824(5) 0.4425(5) 0.0790(13)
H2 H 0.3680(5) 0.4412(5) 0.1681(13)
C3 C 0.4127(5) 0.4852(5) 0.0343(16)
H3 H 0.4197(5) 0.5136(5) 0.0934(16)
C4 C 0.4328(4) 0.4861(4) -0.0975(13)
H4 H 0.4532(4) 0.5153(4) -0.1286(13)
C5 C 0.4231(4) 0.4445(3) -0.1835(9)
C6 C 0.4438(3) 0.4406(3) -0.3280(11)
C7 C 0.4717(4) 0.4809(4) -0.3946(15)
H5 H 0.4809(4) 0.5119(4) -0.3474(15)
C8 C 0.4861(5) 0.4754(5) -0.5306(16)
H6 H 0.5037(5) 0.5030(5) -0.5777(16)
C9 C 0.4738(5) 0.4275(5) -0.5978(13)
H7 H 0.4833(5) 0.4224(5) -0.6899(13)
C10 C 0.4470(6) 0.3879(5) -0.5226(13)
H8 H 0.4393(6) 0.3556(5) -0.5652(13)
N3 N 0.5427(3) 0.1898(3) 0.0855(9)
N4 N 0.5423(3) 0.2625(3) -0.1038(8)
C11 C 0.5382(4) 0.1530(4) 0.1841(11)
H9 H 0.5023(4) 0.1448(4) 0.2167(11)
C12 C 0.5823(5) 0.1270(5) 0.2392(13)
H10 H 0.5771(5) 0.1013(5) 0.3069(13)
C13 C 0.6372(5) 0.1400(5) 0.1910(13)
H11 H 0.6690(5) 0.1229(5) 0.2255(13)
C14 C 0.6418(4) 0.1790(4) 0.0910(12)
H12 H 0.6772(4) 0.1886(4) 0.0579(12)
C15 C 0.5937(4) 0.2040(4) 0.0396(12)
C16 C 0.5940(4) 0.2451(4) -0.0639(11)
C17 C 0.6414(4) 0.2662(4) -0.1295(14)
H13 H 0.6771(4) 0.2545(4) -0.1034(14)
C18 C 0.6366(5) 0.3034(5) -0.2306(14)
H14 H 0.6685(5) 0.3164(5) -0.2751(14)
C19 C 0.5830(4) 0.3216(5) -0.2665(12)
H15 H 0.5781(4) 0.3487(5) -0.3307(12)
C20 C 0.5373(4) 0.2974(4) -0.2018(12)
H16 H 0.5012(4) 0.3067(4) -0.2304(12)
N5 N 0.3160(3) 0.0329(3) 0.1069(8)
N6 N 0.3568(3) 0.0233(3) 0.3535(8)
C21 C 0.3003(6) 0.0409(6) -0.0213(12)
H17 H 0.3078(6) 0.0736(6) -0.0622(12)
C22 C 0.2730(5) 0.0021(5) -0.0978(13)
H18 H 0.2630(5) 0.0080(5) -0.1893(13)
C23 C 0.2612(6) -0.0448(6) -0.0340(17)
H19 H 0.2420(6) -0.0713(6) -0.0815(17)
C24 C 0.2774(5) -0.0530(4) 0.0984(13)
H20 H 0.2698(5) -0.0851(4) 0.1422(13)
C25 C 0.3050(4) -0.0137(4) 0.1659(10)
C26 C 0.3252(4) -0.0180(3) 0.3096(10)
C27 C 0.3144(5) -0.0601(4) 0.3952(14)
H21 H 0.2935(5) -0.0888(4) 0.3632(14)
C28 C 0.3346(6) -0.0599(5) 0.5298(17)
H22 H 0.3267(6) -0.0878(5) 0.5899(17)
C29 C 0.3669(5) -0.0171(5) 0.5711(13)
H23 H 0.3819(5) -0.0160(5) 0.6597(13)
C30 C 0.3765(5) 0.0233(5) 0.4821(12)
H24 H 0.3977(5) 0.0522(5) 0.5118(12)
N7 N 0.2085(3) 0.2371(3) 0.5881(8)
N8 N 0.2085(3) 0.1666(3) 0.3951(8)
C31 C 0.2146(4) 0.2743(3) 0.6846(10)
H25 H 0.2506(4) 0.2831(3) 0.7152(10)
C32 C 0.1679(5) 0.3005(4) 0.7405(12)
H26 H 0.1725(5) 0.3250(4) 0.8113(12)
C33 C 0.1175(5) 0.2900(5) 0.6918(14)
H27 H 0.0865(5) 0.3084(5) 0.7265(14)
C34 C 0.1091(5) 0.2518(4) 0.5889(12)
H28 H 0.0733(5) 0.2443(4) 0.5552(12)
C35 C 0.1575(4) 0.2249(4) 0.5381(11)
C36 C 0.1570(3) 0.1833(4) 0.4304(10)
C37 C 0.1089(4) 0.1641(5) 0.3683(12)
H29 H 0.0735(4) 0.1764(5) 0.3944(12)
C38 C 0.1145(5) 0.1268(5) 0.2678(13)
H30 H 0.0827(5) 0.1118(5) 0.2273(13)
C39 C 0.1681(5) 0.1113(5) 0.2262(12)
H31 H 0.1727(5) 0.0880(5) 0.1526(12)
C40 C 0.2133(4) 0.1306(4) 0.2941(11)
H32 H 0.2491(4) 0.1184(4) 0.2700(11)
O1 O 0.3415(2) 0.2970(2) -0.1605(6)
O2 O 0.4246(2) 0.2715(2) -0.0922(7)
O3 O 0.3429(2) 0.1406(2) 0.0940(6)
O4 O 0.4238(2) 0.1829(2) 0.0808(7)
C41 C 0.3719(3) 0.2642(3) -0.1010(8)
C42 C 0.3418(4) 0.2165(3) -0.0434(10)
H33 H 0.3279(4) 0.1960(3) -0.1211(10)
H34 H 0.3090(4) 0.2294(3) 0.0062(10)
C43 C 0.3722(3) 0.1784(3) 0.0508(10)
O5 O 0.3277(3) 0.2425(3) 0.5834(7)
O6 O 0.4077(2) 0.2861(2) 0.5925(6)
O7 O 0.3266(2) 0.1562(2) 0.4071(7)
O8 O 0.4095(2) 0.1293(2) 0.3372(6)
C44 C 0.3789(4) 0.2474(3) 0.5495(10)
C45 C 0.4095(4) 0.2096(3) 0.4610(11)
H35 H 0.4414(4) 0.1965(3) 0.5138(11)
H36 H 0.4249(4) 0.2297(3) 0.3843(11)
C46 C 0.3797(3) 0.1615(3) 0.4006(8)
O9 O 0.3036(3) 0.3713(2) -0.3789(7)
O10 O 0.4432(3) 0.0513(2) 0.1145(7)
O11 O 0.4748(3) 0.2955(3) 0.1865(8)
O12 O 0.2770(3) 0.1287(3) 0.6815(8)
O6_2 O 0.4077(2) 0.2861(2) -0.4075(6)
Cu1_2 Cu 0.38431(5) 0.34466(5) 0.71760(12)
Cl1 Cl 0.29713(9) 0.30721(9) -0.7488(3)
O13 O 0.2734(3) 0.3217(3) -0.8760(8)
O14 O 0.3537(3) 0.3037(7) -0.7480(13)
O15 O 0.2779(6) 0.2552(5) -0.7230(14)
O16 O 0.2762(6) 0.3379(6) -0.6438(11)
Cl2 Cl 0.95686(10) 0.11866(9) -0.7562(3)
O17 O 0.9707(5) 0.1733(3) -0.7681(10)
O18 O 0.9770(3) 0.1004(3) -0.6281(8)
O19 O 0.8984(3) 0.1121(5) -0.7662(12)
O20 O 0.9852(3) 0.0923(4) -0.8649(9)
Cl3 Cl 0.56463(12) 0.41715(10) -0.9621(4)
O21 O 0.5155(4) 0.3871(4) -0.9547(12)
O22 O 0.5710(4) 0.4375(4) -1.0957(9)
O23 O 0.5588(6) 0.4620(4) -0.8739(10)
O24 O 0.6098(5) 0.3870(5) -0.9260(16)
Cl4 Cl 0.68573(13) 0.01666(9) -0.5248(3)
O25 O 0.6873(4) -0.0178(3) -0.6379(10)
O26 O 0.6431(4) 0.0546(4) -0.5380(11)
O27 O 0.6784(5) -0.0126(4) -0.4035(10)
O28 O 0.7392(4) 0.0430(4) -0.5160(10)
loop_
_geom_bond_atom_site_label_1
_geom_bond_atom_site_label_2
_geom_bond_site_symmetry_1
_geom_bond_site_symmetry_2
Cu1 N1 1_555 1_555
Cu2 N3 1_555 1_555
Cu3 N5 1_555 1_555
Cu4 N7 1_555 1_555
N1 C1 1_555 1_555
N2 Cu1 1_555 1_555
C1 H1 1_555 1_555
C2 C1 1_555 1_555
H2 C2 1_555 1_555
C3 C2 1_555 1_555
H3 C3 1_555 1_555
C4 C3 1_555 1_555
H4 C4 1_555 1_555
C5 N1 1_555 1_555
C6 N2 1_555 1_555
C7 C6 1_555 1_555
H5 C7 1_555 1_555
C8 C7 1_555 1_555
H6 C8 1_555 1_555
C9 C8 1_555 1_555
H7 C9 1_555 1_555
C10 N2 1_555 1_555
H8 C10 1_555 1_555
N3 C11 1_555 1_555
N4 Cu2 1_555 1_555
C11 H9 1_555 1_555
C12 C11 1_555 1_555
H10 C12 1_555 1_555
C13 C12 1_555 1_555
H11 C13 1_555 1_555
C14 C13 1_555 1_555
H12 C14 1_555 1_555
C15 N3 1_555 1_555
C16 N4 1_555 1_555
C17 C16 1_555 1_555
H13 C17 1_555 1_555
C18 C17 1_555 1_555
H14 C18 1_555 1_555
C19 C18 1_555 1_555
H15 C19 1_555 1_555
C20 N4 1_555 1_555
H16 C20 1_555 1_555
N5 C21 1_555 1_555
N6 Cu3 1_555 1_555
C21 H17 1_555 1_555
C22 C21 1_555 1_555
H18 C22 1_555 1_555
C23 C22 1_555 1_555
H19 C23 1_555 1_555
C24 C23 1_555 1_555
H20 C24 1_555 1_555
C25 N5 1_555 1_555
C26 N6 1_555 1_555
C27 C26 1_555 1_555
H21 C27 1_555 1_555
C28 C27 1_555 1_555
H22 C28 1_555 1_555
C29 C28 1_555 1_555
H23 C29 1_555 1_555
C30 N6 1_555 1_555
H24 C30 1_555 1_555
N7 C31 1_555 1_555
N8 Cu4 1_555 1_555
C31 H25 1_555 1_555
C32 C31 1_555 1_555
H26 C32 1_555 1_555
C33 C32 1_555 1_555
H27 C33 1_555 1_555
C34 C33 1_555 1_555
H28 C34 1_555 1_555
C35 N7 1_555 1_555
C36 N8 1_555 1_555
C37 C36 1_555 1_555
H29 C37 1_555 1_555
C38 C37 1_555 1_555
H30 C38 1_555 1_555
C39 C38 1_555 1_555
H31 C39 1_555 1_555
C40 N8 1_555 1_555
H32 C40 1_555 1_555
O1 Cu1 1_555 1_555
O2 Cu2 1_555 1_555
O3 Cu3 1_555 1_555
O4 Cu2 1_555 1_555
C41 O1 1_555 1_555
C42 C41 1_555 1_555
H33 C42 1_555 1_555
H34 C42 1_555 1_555
C43 O3 1_555 1_555
O5 Cu4 1_555 1_555
O6 C44 1_555 1_555
O7 Cu4 1_555 1_555
O8 Cu3 1_555 1_555
C44 O5 1_555 1_555
C45 C44 1_555 1_555
H35 C45 1_555 1_555
H36 C45 1_555 1_555
C46 O7 1_555 1_555
O9 Cu1 1_555 1_555
O10 Cu3 1_555 1_555
O11 Cu2 1_555 1_555
O12 Cu4 1_555 1_555
Cl1 O13 1_555 1_555
O14 Cl1 1_555 1_555
O15 Cl1 1_555 1_555
O16 Cl1 1_555 1_555
Cl2 O17 1_555 1_555
O18 Cl2 1_555 1_555
O19 Cl2 1_555 1_555
O20 Cl2 1_555 1_555
Cl3 O21 1_555 1_555
O22 Cl3 1_555 1_555
O23 Cl3 1_555 1_555
O24 Cl3 1_555 1_555
Cl4 O25 1_555 1_555
O26 Cl4 1_555 1_555
O27 Cl4 1_555 1_555
O28 Cl4 1_555 1_555
O6_2 Cu1 1_555 1_555
Cu1_2 O6 1_555 1_555
C4 C5 1_555 1_555
C5 C6 1_555 1_555
C9 C10 1_555 1_555
C14 C15 1_555 1_555
C15 C16 1_555 1_555
C19 C20 1_555 1_555
C24 C25 1_555 1_555
C25 C26 1_555 1_555
C29 C30 1_555 1_555
C34 C35 1_555 1_555
C35 C36 1_555 1_555
C39 C40 1_555 1_555
O2 C41 1_555 1_555
O4 C43 1_555 1_555
C42 C43 1_555 1_555
O8 C46 1_555 1_555
C45 C46 1_555 1_555

#END
