
#######################################################################
#
#                 Cambridge Crystallographic Data Centre
#                                CCDC 
#
#######################################################################
#
# If this CIF has been generated from an entry in the Cambridge 
# Structural Database, then it will include bibliographic, chemical, 
# crystal, experimental, refinement or atomic coordinate data resulting 
# from the CCDC's data processing and validation procedures.
#
#######################################################################

data_XAFXEJ
_symmetry_cell_setting           monoclinic
_symmetry_space_group_name_H-M   'C c'
_symmetry_Int_Tables_number      9
_space_group_name_Hall           'C -2yc'
loop_
_symmetry_equiv_pos_site_id
_symmetry_equiv_pos_as_xyz
1 x,y,z
2 x,-y,1/2+z
3 1/2+x,1/2+y,z
4 1/2+x,1/2-y,1/2+z
_cell_length_a                   10.2533(8)
_cell_length_b                   16.2583(13)
_cell_length_c                   12.0825(14)
_cell_angle_alpha                90
_cell_angle_beta                 96.909(2)
_cell_angle_gamma                90
_cell_volume                     1999.54
loop_
_atom_site_label
_atom_site_type_symbol
_atom_site_fract_x
_atom_site_fract_y
_atom_site_fract_z
C1 C 0.3960(12) 0.1354(7) 0.1276(9)
C2 C 0.4648(12) 0.2093(7) 0.0863(9)
C3 C 0.5674(13) 0.1989(6) 0.0235(10)
H1 H 0.5964 0.1462 0.0090
C4 C 0.6276(12) 0.2668(6) -0.0182(9)
H2 H 0.6947 0.2592 -0.0626
C5 C 0.5885(11) 0.3461(6) 0.0059(8)
C6 C 0.6634(12) 0.4173(6) -0.0390(9)
C7 C 0.4860(11) 0.3561(6) 0.0724(8)
C8 C 0.4244(12) 0.2872(6) 0.1092(9)
H3 H 0.3541 0.2940 0.1503
C9 C 0.4930(13) -0.1312(8) 0.1603(11)
H4 H 0.5261 -0.0834 0.1320
C10 C 0.5589(14) -0.2031(9) 0.1492(11)
H5 H 0.6373 -0.2035 0.1176
C11 C 0.5078(15) -0.2743(8) 0.1851(12)
H6 H 0.5497 -0.3240 0.1749
C12 C 0.3915(14) -0.2735(8) 0.2376(10)
C13 C 0.3299(17) -0.3454(8) 0.2743(11)
H7 H 0.3679 -0.3966 0.2657
C14 C 0.2183(17) -0.3405(8) 0.3209(11)
H8 H 0.1800 -0.3884 0.3439
C15 C 0.1574(15) -0.2640(7) 0.3361(9)
C16 C 0.0406(15) -0.2548(8) 0.3838(10)
H9 H -0.0034 -0.3011 0.4053
C17 C -0.0089(15) -0.1790(7) 0.3989(10)
H10 H -0.0855 -0.1727 0.4321
C18 C 0.0562(13) -0.1111(8) 0.3641(10)
H11 H 0.0217 -0.0593 0.3756
C19 C 0.3319(13) -0.1961(6) 0.2485(9)
C20 C 0.2156(12) -0.1908(7) 0.3005(8)
Eu1 Eu 0.25998(9) 0.00741(2) 0.21918(8)
N1 N 0.3837(11) -0.1258(6) 0.2098(8)
N2 N 0.1653(10) -0.1157(5) 0.3151(8)
O1 O 0.4409(9) 0.0649(5) 0.1252(8)
O2 O 0.2897(10) 0.1487(5) 0.1696(8)
O3 O 0.7232(9) 0.4657(5) 0.0283(6)
O4 O 0.6606(9) 0.4201(5) -0.1416(6)
O5 O 0.5242(9) 0.5027(4) 0.1618(7)
O6 O 0.3099(9) 0.4419(5) 0.1565(8)
O7 O 0.3873(9) 0.4913(4) -0.0109(7)
O8 O 0.4269(9) 0.0109(5) 0.3729(7)
H12 H 0.3868 0.0105 0.4305
H13 H 0.5018 -0.0115 0.3889
S1 S 0.4212(3) 0.45520(17) 0.0972(2)
Eu1B Eu 0.75998(9) 0.50741(2) 0.21918(8)
Eu1C Eu 0.75998(9) 0.49259(2) -0.28082(8)
O3B O 0.2232(9) -0.0343(5) 0.0283(6)
O4C O 0.1606(9) 0.0799(5) 0.3584(6)
O5B O 0.0242(9) 0.0027(4) 0.1618(7)
O9 O 0.6710(10) 0.9508(6) 0.3569(8)
H14 H 0.7013 0.9458 0.2948
H15 H 0.7320 0.9692 0.4043
loop_
_geom_bond_atom_site_label_1
_geom_bond_atom_site_label_2
_geom_bond_site_symmetry_1
_geom_bond_site_symmetry_2
C1 C2 1_555 1_555
C2 C3 1_555 1_555
C3 H1 1_555 1_555
C4 C3 1_555 1_555
H2 C4 1_555 1_555
C5 C4 1_555 1_555
C6 C5 1_555 1_555
C7 C5 1_555 1_555
C8 C2 1_555 1_555
H3 C8 1_555 1_555
C9 H4 1_555 1_555
C10 C9 1_555 1_555
H5 C10 1_555 1_555
C11 C10 1_555 1_555
H6 C11 1_555 1_555
C12 C11 1_555 1_555
C13 C12 1_555 1_555
H7 C13 1_555 1_555
C14 C13 1_555 1_555
H8 C14 1_555 1_555
C15 C14 1_555 1_555
C16 C15 1_555 1_555
H9 C16 1_555 1_555
C17 C16 1_555 1_555
H10 C17 1_555 1_555
C18 C17 1_555 1_555
H11 C18 1_555 1_555
C19 C12 1_555 1_555
C20 C15 1_555 1_555
Eu1 N1 1_555 1_555
N1 C9 1_555 1_555
N2 C18 1_555 1_555
O1 C1 1_555 1_555
O2 C1 1_555 1_555
O3 C6 1_555 1_555
O4 C6 1_555 1_555
O5 S1 1_555 1_555
O6 S1 1_555 1_555
O7 S1 1_555 1_555
O8 Eu1 1_555 1_555
H12 O8 1_555 1_555
H13 O8 1_555 1_555
S1 C7 1_555 1_555
O9 H14 1_555 1_555
H15 O9 1_555 1_555
Eu1B O3 1_555 1_555
Eu1C O4 1_555 1_555
O3B Eu1 1_555 1_555
O4C Eu1 1_555 1_555
O5B Eu1 1_555 1_555
C7 C8 1_555 1_555
C19 C20 1_555 1_555
C19 N1 1_555 1_555
C20 N2 1_555 1_555
Eu1 N2 1_555 1_555
Eu1 O1 1_555 1_555
Eu1 O2 1_555 1_555
O5 Eu1B 1_555 1_555

#END
