
#######################################################################
#
#                 Cambridge Crystallographic Data Centre
#                                CCDC 
#
#######################################################################
#
# If this CIF has been generated from an entry in the Cambridge 
# Structural Database, then it will include bibliographic, chemical, 
# crystal, experimental, refinement or atomic coordinate data resulting 
# from the CCDC's data processing and validation procedures.
#
#######################################################################

data_XAFXUZ
_symmetry_cell_setting           triclinic
_symmetry_space_group_name_H-M   'P -1'
_symmetry_Int_Tables_number      2
_space_group_name_Hall           '-P 1'
loop_
_symmetry_equiv_pos_site_id
_symmetry_equiv_pos_as_xyz
1 x,y,z
2 -x,-y,-z
_cell_length_a                   8.5017(3)
_cell_length_b                   9.4822(3)
_cell_length_c                   10.8767(5)
_cell_angle_alpha                106.740(4)
_cell_angle_beta                 101.306(4)
_cell_angle_gamma                92.424(3)
_cell_volume                     818.804
loop_
_atom_site_label
_atom_site_type_symbol
_atom_site_fract_x
_atom_site_fract_y
_atom_site_fract_z
Pr1 Pr 0.753315(18) 0.986911(16) 0.501770(16)
O1 O 1.0271(2) 1.0674(2) 0.6335(2)
O2 O 1.2652(2) 1.1891(2) 0.7381(2)
O3 O 1.1185(4) 1.5021(3) 0.8909(3)
O4 O 1.3854(3) 1.3134(2) 1.2912(2)
O5 O 1.2398(2) 1.7437(2) 1.3483(2)
O6 O 1.4838(2) 1.8545(2) 1.4438(2)
O7 O 0.8447(2) 0.7441(2) 0.5184(2)
O8 O 1.2661(3) 0.8538(2) 0.6343(2)
O9 O 1.3026(3) 0.9253(2) 0.8534(2)
N1 N 1.1653(3) 1.3104(3) 0.9710(3)
N2 N 1.3655(3) 1.4981(3) 1.2003(3)
N3 N 1.0353(3) 0.6247(2) 0.6121(2)
C1 C 1.1218(3) 1.1545(3) 0.7372(3)
C2 C 1.0515(4) 1.2112(3) 0.8576(3)
H1 H 0.9575 1.2642 0.8350
H2 H 1.0122 1.1255 0.8822
C3 C 1.2559(4) 1.2479(3) 1.0662(3)
H3 H 1.3384 1.1917 1.0264
H4 H 1.1815 1.1763 1.0835
C4 C 1.3390(4) 1.3566(3) 1.1955(3)
C5 C 1.1925(4) 1.4518(3) 0.9752(3)
C6 C 1.3177(4) 1.5505(3) 1.0862(3)
H5 H 1.4150 1.5658 1.0524
H6 H 1.2769 1.6482 1.1156
C7 C 1.4666(4) 1.6038(3) 1.3162(3)
H7 H 1.5678 1.6334 1.2937
H8 H 1.4956 1.5547 1.3853
C8 C 1.3883(3) 1.7410(3) 1.3709(3)
C9 C 0.9188(3) 0.6331(3) 0.5145(3)
C10 C 0.8684(4) 0.4995(3) 0.3953(3)
H9 H 0.8685 0.5316 0.3164
H10 H 0.7557 0.4633 0.3906
C11 C 1.0829(4) 0.7483(3) 0.7333(3)
H11 H 1.1041 0.7079 0.8087
H12 H 0.9913 0.8087 0.7427
C12 C 1.2316(4) 0.8492(3) 0.7408(3)
O10 O 0.7216(2) 0.9580(2) 0.7136(2)
H13 H 0.6838 1.0327 0.7557
H14 H 0.6492 0.8711 0.6980
Pr1A Pr 1.246685(18) 1.013089(16) 0.498230(16)
Pr1A_2 Pr 1.246685(18) 2.013089(16) 1.498230(16)
Pr1_2 Pr 1.753315(18) 1.986911(16) 1.501770(16)
Pr1A_3 Pr 1.246685(18) 0.013089(16) 0.498230(16)
Pr1_3 Pr 0.753315(18) -0.013089(16) 0.501770(16)
Pr1_4 Pr 0.753315(18) -0.013089(16) -0.498230(16)
Pr1A_4 Pr 0.246685(18) 0.013089(16) -0.501770(16)
O1A O 0.9729(2) 0.9326(2) 0.3665(2)
O2A O 0.7348(2) 0.8109(2) 0.2619(2)
O3A O 0.8815(4) 0.4979(3) 0.1091(3)
O4A O 0.6146(3) 0.6866(2) -0.2912(2)
O5A O 0.7602(2) 0.2563(2) -0.3483(2)
O5A_2 O 0.7602(2) 1.2563(2) 0.6517(2)
O5_2 O 1.2398(2) 0.7437(2) 0.3483(2)
O6A O 0.5162(2) 0.1455(2) -0.4438(2)
O6_2 O 0.4838(2) 0.8545(2) 0.4438(2)
O6A_2 O 0.5162(2) 1.1455(2) 0.5562(2)
O6A_3 O 1.5162(2) 1.1455(2) 0.5562(2)
O6_3 O 1.4838(2) 0.8545(2) 0.4438(2)
O7A O 1.1553(2) 0.2559(2) 0.4816(2)
O7A_2 O 1.1553(2) 1.2559(2) 0.4816(2)
O8A O 0.7339(3) 0.1462(2) 0.3657(2)
O8A_2 O 0.7339(3) 1.1462(2) 0.3657(2)
O9A O 0.6974(3) 0.0747(2) 0.1466(2)
N1A N 0.8347(3) 0.6896(3) 0.0290(3)
N2A N 0.6345(3) 0.5019(3) -0.2003(3)
N3A N 0.9647(3) 0.3753(2) 0.3879(2)
C1A C 0.8782(3) 0.8455(3) 0.2628(3)
C2A C 0.9485(4) 0.7888(3) 0.1424(3)
H1A H 1.0425 0.7358 0.1650
H2A H 0.9878 0.8745 0.1178
C3A C 0.7441(4) 0.7521(3) -0.0662(3)
H3A H 0.6616 0.8083 -0.0264
H4A H 0.8185 0.8237 -0.0835
C4A C 0.6610(4) 0.6434(3) -0.1955(3)
C5A C 0.8075(4) 0.5482(3) 0.0248(3)
C6A C 0.6823(4) 0.4495(3) -0.0862(3)
H5A H 0.5850 0.4342 -0.0524
H6A H 0.7231 0.3518 -0.1156
C7A C 0.5334(4) 0.3962(3) -0.3162(3)
H7A H 0.4322 0.3666 -0.2937
H8A H 0.5044 0.4453 -0.3853
C8A C 0.6117(3) 0.2590(3) -0.3709(3)
C9A C 1.0812(3) 0.3669(3) 0.4855(3)
C10A C 1.1316(4) 0.5005(3) 0.6047(3)
H9A H 1.1315 0.4684 0.6836
H10A H 1.2443 0.5367 0.6094
C11A C 0.9171(4) 0.2517(3) 0.2667(3)
H11A H 0.8959 0.2921 0.1913
H12A H 1.0087 0.1913 0.2573
C12A C 0.7684(4) 0.1508(3) 0.2592(3)
O10A O 1.2784(2) 1.0420(2) 0.2864(2)
H13A H 1.3162 0.9673 0.2443
H14A H 1.3508 1.1289 0.3020
O11 O 0.4149(3) 0.8855(2) 0.0970(2)
loop_
_geom_bond_atom_site_label_1
_geom_bond_atom_site_label_2
_geom_bond_site_symmetry_1
_geom_bond_site_symmetry_2
Pr1 O1 1_555 1_555
O1 C1 1_555 1_555
O2 C1 1_555 1_555
O3 C5 1_555 1_555
O4 C4 1_555 1_555
O5 C8 1_555 1_555
O6 C8 1_555 1_555
O7 Pr1 1_555 1_555
O8 C12 1_555 1_555
O9 C12 1_555 1_555
N1 C2 1_555 1_555
N2 C4 1_555 1_555
N3 C9 1_555 1_555
C1 C2 1_555 1_555
C2 H1 1_555 1_555
H2 C2 1_555 1_555
C3 N1 1_555 1_555
H3 C3 1_555 1_555
H4 C3 1_555 1_555
C4 C3 1_555 1_555
C5 N1 1_555 1_555
C6 N2 1_555 1_555
H5 C6 1_555 1_555
H6 C6 1_555 1_555
C7 N2 1_555 1_555
H7 C7 1_555 1_555
H8 C7 1_555 1_555
C8 C7 1_555 1_555
C9 O7 1_555 1_555
C10 C9 1_555 1_555
H9 C10 1_555 1_555
H10 C10 1_555 1_555
C11 N3 1_555 1_555
H11 C11 1_555 1_555
H12 C11 1_555 1_555
C12 C11 1_555 1_555
O10 Pr1 1_555 1_555
H13 O10 1_555 1_555
H14 O10 1_555 1_555
Pr1A O1 1_555 1_555
Pr1A_2 O5 1_555 1_555
Pr1_2 O6 1_555 1_555
Pr1A_3 O7A 1_555 1_555
Pr1_3 O8A 1_555 1_555
Pr1_4 O5A 1_555 1_555
Pr1A_4 O6A 1_555 1_555
O1A Pr1 1_555 1_555
O2A Pr1 1_555 1_555
O3A C5A 1_555 1_555
O4A C4A 1_555 1_555
O5A C8A 1_555 1_555
O5A_2 Pr1 1_555 1_555
O5_2 Pr1A 1_555 1_555
O6A Pr1_4 1_555 1_555
O6_2 Pr1 1_555 1_555
O6A_2 Pr1 1_555 1_555
O6A_3 Pr1A 1_555 1_555
O6_3 Pr1A 1_555 1_555
O7A C9A 1_555 1_555
O7A_2 Pr1A 1_555 1_555
O8A C12A 1_555 1_555
O8A_2 Pr1 1_555 1_555
O9A C12A 1_555 1_555
N1A C2A 1_555 1_555
N2A C4A 1_555 1_555
N3A C10 1_555 1_555
C1A O1A 1_555 1_555
C2A C1A 1_555 1_555
H1A C2A 1_555 1_555
H2A C2A 1_555 1_555
C3A N1A 1_555 1_555
H3A C3A 1_555 1_555
H4A C3A 1_555 1_555
C4A C3A 1_555 1_555
C5A N1A 1_555 1_555
C6A N2A 1_555 1_555
H5A C6A 1_555 1_555
H6A C6A 1_555 1_555
C7A N2A 1_555 1_555
H7A C7A 1_555 1_555
H8A C7A 1_555 1_555
C8A O6A 1_555 1_555
C9A N3A 1_555 1_555
C10A N3 1_555 1_555
H9A C10A 1_555 1_555
H10A C10A 1_555 1_555
C11A N3A 1_555 1_555
H11A C11A 1_555 1_555
H12A C11A 1_555 1_555
C12A C11A 1_555 1_555
O10A Pr1A 1_555 1_555
H13A O10A 1_555 1_555
H14A O10A 1_555 1_555
O2 Pr1A 1_555 1_555
O6 Pr1A_2 1_555 1_555
O8 Pr1A 1_555 1_555
C5 C6 1_555 1_555
Pr1A O1A 1_555 1_555
O2A C1A 1_555 1_555
C5A C6A 1_555 1_555
C7A C8A 1_555 1_555
C9A C10A 1_555 1_555

#END
