
#######################################################################
#
#                 Cambridge Crystallographic Data Centre
#                                CCDC 
#
#######################################################################
#
# If this CIF has been generated from an entry in the Cambridge 
# Structural Database, then it will include bibliographic, chemical, 
# crystal, experimental, refinement or atomic coordinate data resulting 
# from the CCDC's data processing and validation procedures.
#
#######################################################################

data_XAFXIN
_symmetry_cell_setting           monoclinic
_symmetry_space_group_name_H-M   'P 21/n'
_symmetry_Int_Tables_number      14
_space_group_name_Hall           '-P 2yn'
loop_
_symmetry_equiv_pos_site_id
_symmetry_equiv_pos_as_xyz
1 x,y,z
2 1/2-x,1/2+y,1/2-z
3 -x,-y,-z
4 1/2+x,1/2-y,1/2+z
_cell_length_a                   9.2909(3)
_cell_length_b                   14.5940(3)
_cell_length_c                   13.9707(3)
_cell_angle_alpha                90
_cell_angle_beta                 95.1410(10)
_cell_angle_gamma                90
_cell_volume                     1886.69
loop_
_atom_site_label
_atom_site_type_symbol
_atom_site_fract_x
_atom_site_fract_y
_atom_site_fract_z
C1 C 0.2422(2) -0.05013(15) 0.13871(16)
C2 C 0.1176(2) 0.01485(15) 0.13868(15)
C3 C -0.0235(2) -0.01313(15) 0.11601(16)
H1 H -0.0440 -0.0750 0.1063
C4 C -0.2889(2) 0.02062(15) 0.08383(16)
C5 C -0.1049(3) 0.14356(15) 0.11878(17)
H2 H -0.1787 0.1867 0.1105
C6 C 0.0372(2) 0.17130(15) 0.14253(16)
C7 C 0.1475(2) 0.10732(15) 0.15402(16)
H3 H 0.2416 0.1262 0.1720
C8 C 0.2381(3) 0.15587(16) 0.4279(2)
H4 H 0.3060 0.2019 0.4418
C9 C 0.2856(3) 0.06484(19) 0.4293(2)
H5 H 0.3825 0.0509 0.4450
C10 C 0.0420(3) 0.01856(17) 0.38515(18)
C11 C 0.0020(3) 0.11161(16) 0.38660(17)
C12 C -0.1458(3) 0.13697(17) 0.36260(17)
C13 C -0.0665(4) -0.04939(18) 0.3619(2)
H6 H -0.0403 -0.1109 0.3621
C14 C -0.2051(4) -0.02623(19) 0.3401(2)
H7 H -0.2735 -0.0719 0.3260
C15 C -0.2498(3) 0.06812(19) 0.33794(18)
C16 C -0.3920(3) 0.0960(2) 0.3101(2)
H8 H -0.4630 0.0525 0.2931
C17 C -0.4257(3) 0.1865(2) 0.3080(2)
H9 H -0.5194 0.2058 0.2893
C18 C -0.3167(3) 0.2507(2) 0.3345(2)
H10 H -0.3408 0.3126 0.3328
C19 C 0.1878(3) -0.00286(18) 0.4072(2)
H11 H 0.2180 -0.0636 0.4069
C20 C -0.1351(2) 0.05085(15) 0.10767(15)
Eu1 Eu 0.023363(11) 0.346359(7) 0.406228(8)
N1 N 0.1010(2) 0.17970(14) 0.40780(15)
N2 N -0.1809(2) 0.22765(14) 0.36192(15)
O1 O 0.22082(17) -0.13302(11) 0.11572(13)
O2 O 0.36855(17) -0.01801(11) 0.15578(13)
O3 O -0.31897(18) -0.06126(12) 0.10141(14)
O4 O -0.37859(17) 0.07848(12) 0.04858(12)
O5 O 0.01273(19) 0.31965(13) 0.23957(13)
O6 O 0.0167(3) 0.33401(13) 0.06881(16)
O7 O 0.23620(19) 0.29335(12) 0.16687(15)
O8 O -0.0623(2) 0.28911(16) 0.55846(15)
S1 S 0.07993(6) 0.28926(4) 0.15396(4)
H12 H -0.131(4) 0.252(3) 0.587(3)
H13 H -0.041(5) 0.339(2) 0.601(2)
Eu1A Eu 0.476637(11) -0.153641(7) 0.093772(8)
Eu1A_2 Eu -0.523363(11) -0.153641(7) 0.093772(8)
Eu1C Eu -0.476637(11) 0.153641(7) -0.093772(8)
O1A O 0.27918(17) 0.36698(11) 0.38428(13)
O2A O 0.13145(17) 0.48199(11) 0.34422(13)
O3A O -0.18103(18) 0.43874(12) 0.39859(14)
O4C O 0.12141(17) 0.42152(12) 0.54858(12)
loop_
_geom_bond_atom_site_label_1
_geom_bond_atom_site_label_2
_geom_bond_site_symmetry_1
_geom_bond_site_symmetry_2
C1 C2 1_555 1_555
C2 C3 1_555 1_555
C3 H1 1_555 1_555
C4 C20 1_555 1_555
C5 H2 1_555 1_555
C6 C5 1_555 1_555
C7 C2 1_555 1_555
H3 C7 1_555 1_555
C8 H4 1_555 1_555
C9 C8 1_555 1_555
H5 C9 1_555 1_555
C10 C11 1_555 1_555
C11 C12 1_555 1_555
C12 C15 1_555 1_555
C13 C10 1_555 1_555
H6 C13 1_555 1_555
C14 C13 1_555 1_555
H7 C14 1_555 1_555
C15 C14 1_555 1_555
C16 C15 1_555 1_555
H8 C16 1_555 1_555
C17 C16 1_555 1_555
H9 C17 1_555 1_555
C18 C17 1_555 1_555
H10 C18 1_555 1_555
C19 C9 1_555 1_555
H11 C19 1_555 1_555
C20 C3 1_555 1_555
Eu1 N1 1_555 1_555
N1 C8 1_555 1_555
N2 C12 1_555 1_555
O1 C1 1_555 1_555
O2 C1 1_555 1_555
O3 C4 1_555 1_555
O4 C4 1_555 1_555
O5 Eu1 1_555 1_555
O6 S1 1_555 1_555
O7 S1 1_555 1_555
O8 Eu1 1_555 1_555
S1 C6 1_555 1_555
H12 O8 1_555 1_555
H13 O8 1_555 1_555
Eu1A O1 1_555 1_555
Eu1A_2 O3 1_555 1_555
Eu1C O4 1_555 1_555
O1A Eu1 1_555 1_555
O2A Eu1 1_555 1_555
O3A Eu1 1_555 1_555
O4C Eu1 1_555 1_555
C5 C20 1_555 1_555
C6 C7 1_555 1_555
C10 C19 1_555 1_555
C11 N1 1_555 1_555
C18 N2 1_555 1_555
Eu1 N2 1_555 1_555
O2 Eu1A 1_555 1_555
O5 S1 1_555 1_555

#END
