
#######################################################################
#
#                 Cambridge Crystallographic Data Centre
#                                CCDC 
#
#######################################################################
#
# If this CIF has been generated from an entry in the Cambridge 
# Structural Database, then it will include bibliographic, chemical, 
# crystal, experimental, refinement or atomic coordinate data resulting 
# from the CCDC's data processing and validation procedures.
#
#######################################################################

data_XAFYIO
_symmetry_cell_setting           triclinic
_symmetry_space_group_name_H-M   'P -1'
_symmetry_Int_Tables_number      2
_space_group_name_Hall           '-P 1'
loop_
_symmetry_equiv_pos_site_id
_symmetry_equiv_pos_as_xyz
1 x,y,z
2 -x,-y,-z
_cell_length_a                   7.8393(16)
_cell_length_b                   10.837(2)
_cell_length_c                   11.905(2)
_cell_angle_alpha                64.88(3)
_cell_angle_beta                 71.67(3)
_cell_angle_gamma                73.68(3)
_cell_volume                     856.368
loop_
_atom_site_label
_atom_site_type_symbol
_atom_site_fract_x
_atom_site_fract_y
_atom_site_fract_z
Er1 Er 0.26196(2) 0.954020(19) 0.495058(19)
O1 O 0.1580(5) 0.7515(4) 0.6933(4)
O2 O 0.5201(5) 0.8058(4) 0.5336(4)
O3 O 0.7891(6) 0.8057(4) 0.5587(4)
O4 O 0.2814(6) 0.9813(5) 0.6685(4)
N1 N 0.3818(6) 0.9882(5) 0.9393(4)
N2 N -0.0707(7) 0.6323(5) 0.9230(5)
C1 C 0.0018(7) 0.8193(6) 0.7127(5)
O5 O -0.0438(5) 0.9380(4) 0.6302(3)
C2 C 0.4492(8) 0.8713(7) 1.0226(6)
O6 O 0.5431(5) 0.9884(4) 0.7010(4)
C3 C 0.3742(7) 0.9850(5) 0.7341(5)
O7 O 0.4183(7) 0.7567(5) 1.0455(5)
N3 N 0.6165(7) 0.5423(5) 0.5396(5)
O8 O 0.2048(7) 0.7819(4) 0.4404(5)
C4 C 0.0073(8) 0.6271(7) 1.0105(6)
O9 O 0.0189(7) 0.7311(5) 1.0223(5)
C5 C -0.1372(8) 0.7659(6) 0.8343(6)
H1 H -0.1760 0.8325 0.8757
H2 H -0.2432 0.7586 0.8136
C6 C 0.2701(8) 0.9853(7) 0.8642(6)
H3 H 0.2135 0.9034 0.9102
H4 H 0.1734 1.0654 0.8543
C7 C 0.7275(8) 0.5934(6) 0.5829(7)
H5 H 0.8545 0.5734 0.5415
H6 H 0.7159 0.5441 0.6739
C8 C 0.6749(7) 0.7473(5) 0.5556(5)
C9 C 0.6519(8) 0.5676(6) 0.4152(7)
C10 C -0.0795(10) 0.5128(7) 0.8999(7)
H7 H -0.0117 0.5224 0.8138
H8 H -0.2058 0.5146 0.9042
O10 O 0.7768(7) 0.6277(6) 0.3362(5)
C11 C 0.4346(9) 1.1216(6) 0.9015(6)
H9 H 0.4999 1.1487 0.8130
H10 H 0.3242 1.1896 0.9064
C12 C 0.4642(9) 0.4818(7) 0.6317(7)
H11 H 0.3863 0.5495 0.6673
H12 H 0.5102 0.4039 0.7004
Er1A Er -0.26196(2) 0.045980(19) 1.504942(19)
Er1A_2 Er 0.73804(2) 1.045980(19) 0.504942(19)
Er1A_3 Er -0.26196(2) 1.045980(19) 0.504942(19)
Er1_2 Er 0.26196(2) -0.045980(19) 1.495058(19)
Er1A_4 Er 0.73804(2) 0.045980(19) 0.504942(19)
Er1_3 Er 0.26196(2) -0.045980(19) 0.495058(19)
Er1A_5 Er 0.73804(2) 1.045980(19) 1.504942(19)
Er1_4 Er 0.26196(2) 0.954020(19) 1.495058(19)
O1A O -0.1580(5) 0.2485(4) 1.3067(4)
O1A_2 O 0.8420(5) 0.2485(4) 0.3067(4)
O2A O 0.4799(5) 0.1942(4) 0.4664(4)
O3A O 0.2109(6) 0.1943(4) 0.4413(4)
O3A_2 O 0.2109(6) 1.1943(4) 0.4413(4)
O3_2 O 0.7891(6) -0.1943(4) 0.5587(4)
O4A O 0.7186(6) 1.0187(5) 1.3315(4)
O4A_2 O 0.7186(6) 0.0187(5) 0.3315(4)
N1A N 0.6182(6) 1.0118(5) 1.0607(4)
N2A N 0.0707(7) 0.3677(5) 1.0770(5)
C1A C -0.0018(7) 0.1807(6) 1.2873(5)
O5A O 0.0438(5) 0.0620(4) 1.3698(3)
O5A_2 O 0.0438(5) 1.0620(4) 0.3698(3)
O5_2 O 0.9562(5) -0.0620(4) 0.6302(3)
O5A_3 O 1.0438(5) 0.0620(4) 0.3698(3)
C2A C 0.5508(8) 1.1287(7) 0.9774(6)
O6A O 0.4569(5) 1.0116(4) 1.2990(4)
O6A_2 O 0.4569(5) 1.0116(4) 0.2990(4)
O6_2 O 0.5431(5) -0.0116(4) 0.7010(4)
C3A C 0.6258(7) 1.0150(5) 1.2659(5)
O7A O 0.5817(7) 1.2433(5) 0.9545(5)
N3A N 0.3835(7) 0.4577(5) 0.4604(5)
O8A O 0.7952(7) 0.2181(4) 0.5596(5)
C4A C -0.0073(8) 0.3729(7) 0.9895(6)
O9A O -0.0189(7) 0.2689(5) 0.9777(5)
C5A C 0.1372(8) 0.2341(6) 1.1657(6)
H1A H 0.1760 0.1675 1.1243
H2A H 0.2432 0.2414 1.1864
C6A C 0.7299(8) 1.0147(7) 1.1358(6)
H3A H 0.7865 1.0966 1.0898
H4A H 0.8266 0.9346 1.1457
C7A C 0.2725(8) 0.4066(6) 0.4171(7)
H5A H 0.1455 0.4266 0.4585
H6A H 0.2841 0.4559 0.3261
C8A C 0.3251(7) 0.2527(5) 0.4444(5)
C9A C 0.3481(8) 0.4324(6) 0.5848(7)
C10A C 0.0795(10) 0.4872(7) 1.1001(7)
H7A H 0.0117 0.4776 1.1862
H8A H 0.2058 0.4854 1.0958
O10A O 0.2232(7) 0.3723(6) 0.6638(5)
C11A C 0.5654(9) 0.8784(6) 1.0985(6)
H9A H 0.5001 0.8513 1.1870
H10A H 0.6758 0.8104 1.0936
C12A C 0.5358(9) 0.5182(7) 0.3683(7)
H11A H 0.6137 0.4505 0.3327
H12A H 0.4898 0.5961 0.2996
O11 O 0.1016(8) 0.7430(6) 0.2607(6)
O12 O 0.4572(9) 0.6380(8) 0.8549(7)
loop_
_geom_bond_atom_site_label_1
_geom_bond_atom_site_label_2
_geom_bond_site_symmetry_1
_geom_bond_site_symmetry_2
Er1 O1 1_555 1_555
O1 C1 1_555 1_555
O2 Er1 1_555 1_555
O3 C8 1_555 1_555
O4 Er1 1_555 1_555
N1 C2 1_555 1_555
N2 C4 1_555 1_555
C1 O5 1_555 1_555
O5 Er1 1_555 1_555
C2 O7 1_555 1_555
O6 C3 1_555 1_555
C3 O4 1_555 1_555
N3 C7 1_555 1_555
O8 Er1 1_555 1_555
C4 O9 1_555 1_555
C5 N2 1_555 1_555
H1 C5 1_555 1_555
H2 C5 1_555 1_555
C6 N1 1_555 1_555
H3 C6 1_555 1_555
H4 C6 1_555 1_555
C7 H5 1_555 1_555
H6 C7 1_555 1_555
C8 O2 1_555 1_555
C9 N3 1_555 1_555
C10 N2 1_555 1_555
H7 C10 1_555 1_555
H8 C10 1_555 1_555
O10 C9 1_555 1_555
C11 N1 1_555 1_555
H9 C11 1_555 1_555
H10 C11 1_555 1_555
C12 N3 1_555 1_555
H11 C12 1_555 1_555
H12 C12 1_555 1_555
Er1A O1A 1_555 1_555
Er1A_2 O3 1_555 1_555
Er1A_3 O5 1_555 1_555
Er1_2 O5A 1_555 1_555
Er1A_4 O1A_2 1_555 1_555
Er1_3 O3A 1_555 1_555
Er1A_5 O4A 1_555 1_555
Er1_4 O6A 1_555 1_555
O1A C1A 1_555 1_555
O2A Er1A_4 1_555 1_555
O3A C8A 1_555 1_555
O3A_2 Er1 1_555 1_555
O3_2 Er1A_4 1_555 1_555
O4A C3A 1_555 1_555
O4A_2 Er1A_4 1_555 1_555
N1A C2A 1_555 1_555
N2A C4A 1_555 1_555
C1A O5A 1_555 1_555
O5A Er1A 1_555 1_555
O5A_2 Er1 1_555 1_555
O5_2 Er1A_4 1_555 1_555
O5A_3 Er1A_4 1_555 1_555
C2A C11 1_555 1_555
O6A C3A 1_555 1_555
O6A_2 Er1 1_555 1_555
O6_2 Er1A_4 1_555 1_555
C3A C6A 1_555 1_555
O7A C2A 1_555 1_555
N3A C7A 1_555 1_555
O8A Er1A_4 1_555 1_555
C4A C10 1_555 1_555
O9A C4A 1_555 1_555
C5A N2A 1_555 1_555
H1A C5A 1_555 1_555
H2A C5A 1_555 1_555
C6A N1A 1_555 1_555
H3A C6A 1_555 1_555
H4A C6A 1_555 1_555
C7A H5A 1_555 1_555
H6A C7A 1_555 1_555
C8A O2A 1_555 1_555
C9A C12 1_555 1_555
C10A C4 1_555 1_555
H7A C10A 1_555 1_555
H8A C10A 1_555 1_555
O10A C9A 1_555 1_555
C11A C2 1_555 1_555
H9A C11A 1_555 1_555
H10A C11A 1_555 1_555
C12A C9 1_555 1_555
H11A C12A 1_555 1_555
H12A C12A 1_555 1_555
C1 C5 1_555 1_555
O6 Er1A_2 1_555 1_555
C3 C6 1_555 1_555
C7 C8 1_555 1_555
Er1A_3 O5A_2 1_555 1_555
N1A C11A 1_555 1_555
N2A C10A 1_555 1_555
C1A C5A 1_555 1_555
N3A C9A 1_555 1_555
N3A C12A 1_555 1_555
C7A C8A 1_555 1_555

#END
