
#######################################################################
#
#                 Cambridge Crystallographic Data Centre
#                                CCDC 
#
#######################################################################
#
# If this CIF has been generated from an entry in the Cambridge 
# Structural Database, then it will include bibliographic, chemical, 
# crystal, experimental, refinement or atomic coordinate data resulting 
# from the CCDC's data processing and validation procedures.
#
#######################################################################

data_XAFYEK
_symmetry_cell_setting           triclinic
_symmetry_space_group_name_H-M   'P -1'
_symmetry_Int_Tables_number      2
_space_group_name_Hall           '-P 1'
loop_
_symmetry_equiv_pos_site_id
_symmetry_equiv_pos_as_xyz
1 x,y,z
2 -x,-y,-z
_cell_length_a                   7.8133(3)
_cell_length_b                   10.7254(4)
_cell_length_c                   11.9085(4)
_cell_angle_alpha                64.815(4)
_cell_angle_beta                 70.883(3)
_cell_angle_gamma                72.769(3)
_cell_volume                     838.791
loop_
_atom_site_label
_atom_site_type_symbol
_atom_site_fract_x
_atom_site_fract_y
_atom_site_fract_z
Ho1 Ho 0.236627(14) 0.044226(11) 0.503645(10)
O1 O -0.2809(3) 0.3709(3) 0.6586(2)
O2 O -0.0278(2) 0.1868(2) 0.46072(18)
O3 O -0.3042(2) 0.20313(19) 0.43794(18)
O4 O 0.4805(3) 0.2678(2) -0.0245(2)
O5 O 0.3403(2) 0.24646(19) 0.30295(18)
O6 O 0.5461(2) 0.05910(18) 0.36891(16)
O7 O 0.2326(3) 0.0090(2) 0.32938(17)
O8 O -0.0354(2) 0.00774(19) 0.30041(17)
O9 O 0.0879(3) 0.2437(2) -0.04670(19)
N1 N -0.1119(3) 0.4565(2) 0.4581(2)
N2 N 0.5740(3) 0.3655(2) 0.0750(2)
N3 N 0.1208(3) 0.0087(2) 0.0597(2)
C1 C -0.1527(4) 0.4307(3) 0.5827(3)
C2 C -0.0424(4) 0.4799(3) 0.6335(3)
H1 H 0.0050 0.3986 0.7033
H2 H -0.1266 0.5487 0.6713
C3 C -0.2231(4) 0.4115(3) 0.4096(3)
H3 H -0.2012 0.4605 0.3159
H4 H -0.3551 0.4398 0.4466
C4 C -0.1820(3) 0.2553(3) 0.4398(2)
C5 C 0.4178(4) 0.5143(3) -0.0987(3)
H5 H 0.2875 0.5166 -0.0926
H6 H 0.4863 0.5248 -0.1875
C6 C 0.6414(4) 0.2286(3) 0.1626(3)
H7 H 0.7514 0.2336 0.1832
H8 H 0.6794 0.1598 0.1200
C7 C 0.4928(3) 0.3725(3) -0.0114(2)
C8 C 0.4988(3) 0.1780(3) 0.2849(2)
C9 C 0.2384(3) 0.0086(3) 0.1328(2)
H9 H 0.3373 -0.0754 0.1410
H10 H 0.2974 0.0922 0.0853
C10 C 0.1359(3) 0.0089(3) 0.2647(2)
C11 C 0.0636(4) -0.1238(3) 0.0995(2)
H11 H 0.1755 -0.1970 0.0957
H12 H -0.0056 -0.1488 0.1898
C12 C 0.0534(3) 0.1283(3) -0.0237(2)
O10 O 0.2916(3) 0.2246(2) 0.55130(19)
H13 H 0.2273 0.2225 0.6239
H14 H 0.4196 0.2085 0.5503
Ho1A Ho -0.236627(14) 0.955774(11) 0.496355(10)
Ho1A_2 Ho -0.236627(14) -0.044226(11) 0.496355(10)
Ho1A_3 Ho 0.763373(14) -0.044226(11) 0.496355(10)
Ho1_2 Ho 0.236627(14) 1.044226(11) 0.503645(10)
Ho1A_4 Ho 0.763373(14) 0.955774(11) -0.503645(10)
Ho1_3 Ho 0.236627(14) 1.044226(11) -0.496355(10)
Ho1A_5 Ho -0.236627(14) -0.044226(11) -0.503645(10)
Ho1_4 Ho 0.236627(14) 0.044226(11) -0.496355(10)
O1A O 0.2809(3) 0.6291(3) 0.3414(2)
O2A O 0.0278(2) 0.8132(2) 0.53928(18)
O3A O 0.3042(2) 0.79687(19) 0.56206(18)
O3A_2 O 0.3042(2) -0.20313(19) 0.56206(18)
O3_2 O -0.3042(2) 1.20313(19) 0.43794(18)
O4A O 0.5195(3) 0.7322(2) 0.0245(2)
O5A O 0.6597(2) 0.75354(19) -0.30295(18)
O5A_2 O -0.3403(2) 0.75354(19) 0.69705(18)
O6A O 0.4539(2) 0.94090(18) -0.36891(16)
O6A_2 O 0.4539(2) -0.05910(18) 0.63109(16)
O6A_3 O -0.5461(2) 0.94090(18) 0.63109(16)
O6_2 O -0.4539(2) 1.05910(18) 0.36891(16)
O7A O -0.2326(3) -0.0090(2) -0.32938(17)
O7A_2 O -0.2326(3) 0.9910(2) 0.67062(17)
O8A O 0.0354(2) -0.00774(19) -0.30041(17)
O8A_2 O 0.0354(2) -0.00774(19) 0.69959(17)
O8_2 O -0.0354(2) 1.00774(19) 0.30041(17)
O9A O -0.0879(3) -0.2437(2) 0.04670(19)
N1A N 0.1119(3) 0.5435(2) 0.5419(2)
N2A N 0.4260(3) 0.6345(2) -0.0750(2)
N3A N -0.1208(3) -0.0087(2) -0.0597(2)
C1A C 0.1527(4) 0.5693(3) 0.4173(3)
C2A C 0.0424(4) 0.5201(3) 0.3665(3)
H1A H -0.0050 0.6014 0.2967
H2A H 0.1266 0.4513 0.3287
C3A C 0.2231(4) 0.5885(3) 0.5904(3)
H3A H 0.2012 0.5395 0.6841
H4A H 0.3551 0.5602 0.5534
C4A C 0.1820(3) 0.7447(3) 0.5602(2)
C5A C 0.5822(4) 0.4857(3) 0.0987(3)
H5A H 0.7125 0.4834 0.0926
H6A H 0.5137 0.4752 0.1875
C6A C 0.3586(4) 0.7714(3) -0.1626(3)
H7A H 0.2486 0.7664 -0.1832
H8A H 0.3206 0.8402 -0.1200
C7A C 0.5072(3) 0.6275(3) 0.0114(2)
C8A C 0.5012(3) 0.8220(3) -0.2849(2)
C9A C -0.2384(3) -0.0086(3) -0.1328(2)
H9A H -0.3373 0.0754 -0.1410
H10A H -0.2974 -0.0922 -0.0853
C10A C -0.1359(3) -0.0089(3) -0.2647(2)
C11A C -0.0636(4) 0.1238(3) -0.0995(2)
H11A H -0.1755 0.1970 -0.0957
H12A H 0.0056 0.1488 -0.1898
C12A C -0.0534(3) -0.1283(3) 0.0237(2)
O10A O -0.2916(3) 0.7754(2) 0.44870(19)
H13A H -0.2273 0.7775 0.3761
H14A H -0.4196 0.7915 0.4497
O11 O 0.3933(3) 0.2548(2) 0.7357(2)
O12 O 0.0454(3) 0.3562(3) 0.1462(2)
loop_
_geom_bond_atom_site_label_1
_geom_bond_atom_site_label_2
_geom_bond_site_symmetry_1
_geom_bond_site_symmetry_2
Ho1 O2 1_555 1_555
O1 C1 1_555 1_555
O2 C4 1_555 1_555
O3 C4 1_555 1_555
O4 C7 1_555 1_555
O5 Ho1 1_555 1_555
O6 Ho1 1_555 1_555
O7 Ho1 1_555 1_555
O8 C10 1_555 1_555
O9 C12 1_555 1_555
N1 C1 1_555 1_555
N2 C6 1_555 1_555
N3 C9 1_555 1_555
C1 C2 1_555 1_555
C2 H1 1_555 1_555
H2 C2 1_555 1_555
C3 N1 1_555 1_555
H3 C3 1_555 1_555
H4 C3 1_555 1_555
C4 C3 1_555 1_555
C5 H5 1_555 1_555
H6 C5 1_555 1_555
C6 H7 1_555 1_555
H8 C6 1_555 1_555
C7 N2 1_555 1_555
C8 O5 1_555 1_555
C9 H9 1_555 1_555
H10 C9 1_555 1_555
C10 O7 1_555 1_555
C11 N3 1_555 1_555
H11 C11 1_555 1_555
H12 C11 1_555 1_555
C12 N3 1_555 1_555
O10 Ho1 1_555 1_555
H13 O10 1_555 1_555
H14 O10 1_555 1_555
Ho1A O2A 1_555 1_555
Ho1A_2 O3 1_555 1_555
Ho1A_3 O6 1_555 1_555
Ho1_2 O3A 1_555 1_555
Ho1A_4 O5A 1_555 1_555
Ho1_3 O6A 1_555 1_555
Ho1A_5 O7A 1_555 1_555
Ho1_4 O8A 1_555 1_555
O1A C1A 1_555 1_555
O2A C4A 1_555 1_555
O3A C4A 1_555 1_555
O3A_2 Ho1 1_555 1_555
O3_2 Ho1A 1_555 1_555
O4A C7A 1_555 1_555
O5A C8A 1_555 1_555
O5A_2 Ho1A 1_555 1_555
O6A Ho1A_4 1_555 1_555
O6A_2 Ho1 1_555 1_555
O6A_3 Ho1A 1_555 1_555
O6_2 Ho1A 1_555 1_555
O7A C10A 1_555 1_555
O7A_2 Ho1A 1_555 1_555
O8A C10A 1_555 1_555
O8A_2 Ho1 1_555 1_555
O8_2 Ho1A 1_555 1_555
O9A C12A 1_555 1_555
N1A C2 1_555 1_555
N2A C5 1_555 1_555
N3A C9A 1_555 1_555
C1A N1A 1_555 1_555
C2A N1 1_555 1_555
H1A C2A 1_555 1_555
H2A C2A 1_555 1_555
C3A N1A 1_555 1_555
H3A C3A 1_555 1_555
H4A C3A 1_555 1_555
C4A C3A 1_555 1_555
C5A N2 1_555 1_555
H5A C5A 1_555 1_555
H6A C5A 1_555 1_555
C6A N2A 1_555 1_555
H7A C6A 1_555 1_555
H8A C6A 1_555 1_555
C7A N2A 1_555 1_555
C8A O6A 1_555 1_555
C9A H9A 1_555 1_555
H10A C9A 1_555 1_555
C10A C9A 1_555 1_555
C11A C12 1_555 1_555
H11A C11A 1_555 1_555
H12A C11A 1_555 1_555
C12A C11 1_555 1_555
O10A Ho1A 1_555 1_555
H13A O10A 1_555 1_555
H14A O10A 1_555 1_555
O6 C8 1_555 1_555
O8 Ho1A_2 1_555 1_555
C5 C7 1_555 1_555
C6 C8 1_555 1_555
C9 C10 1_555 1_555
Ho1A_3 O6A_2 1_555 1_555
N3A C11A 1_555 1_555
N3A C12A 1_555 1_555
C1A C2A 1_555 1_555
C5A C7A 1_555 1_555
C6A C8A 1_555 1_555

#END
