
#######################################################################
#
#                 Cambridge Crystallographic Data Centre
#                                CCDC 
#
#######################################################################
#
# If this CIF has been generated from an entry in the Cambridge 
# Structural Database, then it will include bibliographic, chemical, 
# crystal, experimental, refinement or atomic coordinate data resulting 
# from the CCDC's data processing and validation procedures.
#
#######################################################################

data_XAFYAG
_symmetry_cell_setting           monoclinic
_symmetry_space_group_name_H-M   'P 21/n'
_symmetry_Int_Tables_number      14
_space_group_name_Hall           '-P 2yn'
loop_
_symmetry_equiv_pos_site_id
_symmetry_equiv_pos_as_xyz
1 x,y,z
2 1/2-x,1/2+y,1/2-z
3 -x,-y,-z
4 1/2+x,1/2-y,1/2+z
_cell_length_a                   7.80280(10)
_cell_length_b                   19.2619(3)
_cell_length_c                   12.6700(2)
_cell_angle_alpha                90
_cell_angle_beta                 98.9750(10)
_cell_angle_gamma                90
_cell_volume                     1880.95
loop_
_atom_site_label
_atom_site_type_symbol
_atom_site_fract_x
_atom_site_fract_y
_atom_site_fract_z
Sm1 Sm 0.23753(2) 0.033052(11) 0.481815(17)
O1 O 0.5198(4) 0.01844(17) 0.6027(3)
O2 O 0.3559(4) 0.10419(18) 0.6409(3)
O3 O 0.5617(6) 0.0882(2) 0.9299(4)
O4 O 0.3759(7) 0.3170(2) 0.7152(4)
O5 O 0.5368(4) 0.37357(17) 0.9761(3)
O6 O 0.2796(4) 0.4114(2) 1.0114(3)
O7 O 0.0721(4) 0.00297(19) 0.6170(2)
O8 O -0.1317(4) -0.02707(17) 0.7102(3)
O9 O 0.0559(5) 0.1218(2) 0.9080(3)
N1 N 0.5962(5) 0.1594(2) 0.7936(3)
N2 N 0.3954(5) 0.2592(2) 0.8737(3)
N3 N 0.0692(5) 0.0049(2) 0.9040(3)
C1 C 0.4977(5) 0.0731(2) 0.6546(3)
C2 C 0.6505(6) 0.1027(3) 0.7314(4)
H1 H 0.7026 0.0656 0.7801
H2 H 0.7401 0.1195 0.6902
C3 C 0.5815(9) 0.2260(3) 0.7461(5)
H3 H 0.5608 0.2202 0.6675
H4 H 0.6937 0.2504 0.7654
C4 C 0.4409(8) 0.2710(3) 0.7770(4)
C5 C 0.5507(7) 0.1480(3) 0.8882(4)
C6 C 0.4830(7) 0.2074(3) 0.9443(4)
H5 H 0.4015 0.1894 0.9903
H6 H 0.5810 0.2296 0.9913
C7 C 0.2824(7) 0.3061(3) 0.9160(5)
H7 H 0.2223 0.2808 0.9676
H8 H 0.1929 0.3223 0.8571
C8 C 0.3738(6) 0.3692(3) 0.9718(4)
C9 C 0.0191(6) -0.0067(2) 0.7057(4)
C10 C 0.1474(6) 0.0037(3) 0.8067(4)
H9 H 0.2343 -0.0341 0.8124
H10 H 0.2094 0.0481 0.8010
C11 C 0.0327(6) 0.0637(3) 0.9482(4)
C12 C 0.0357(7) -0.0640(3) 0.9474(4)
H11 H -0.0487 -0.0887 0.8939
H12 H 0.1451 -0.0908 0.9568
O10 O 0.3816(4) 0.13061(19) 0.4205(3)
H13 H 0.4278 0.1190 0.3676
H14 H 0.2988 0.1669 0.4000
Sm1B Sm 0.76247(2) -0.033052(11) 0.518185(17)
Sm1C Sm 0.73753(2) 0.466948(11) 0.981815(17)
Sm1A Sm 0.26247(2) 0.533052(11) 1.018185(17)
Sm1B_2 Sm -0.23753(2) -0.033052(11) 0.518185(17)
Sm1B_3 Sm -0.23753(2) -0.033052(11) 1.518185(17)
Sm1_2 Sm 0.23753(2) 0.033052(11) 1.481815(17)
Sm1A_2 Sm 0.26247(2) -0.466948(11) 0.018185(17)
Sm1C_2 Sm 0.73753(2) -0.533052(11) -0.018185(17)
O1B O 0.4802(4) -0.01844(17) 0.3973(3)
O2B O 0.6441(4) -0.10419(18) 0.3591(3)
O3B O 0.4383(6) -0.0882(2) 0.0701(4)
O4B O 0.6241(7) -0.3170(2) 0.2848(4)
O5B O 0.4632(4) -0.37357(17) 0.0239(3)
O5C O 0.0368(4) 0.12643(17) 0.4761(3)
O5A O 0.9632(4) -0.12643(17) 0.5239(3)
O6B O 0.7204(4) -0.4114(2) -0.0114(3)
O6A O 0.2204(4) -0.0886(2) 0.4886(3)
O6C O 0.7796(4) 0.0886(2) 0.5114(3)
O7B O -0.0721(4) -0.00297(19) 1.3830(2)
O7B_2 O -0.0721(4) -0.00297(19) 0.3830(2)
O7B_3 O 0.9279(4) -0.00297(19) 0.3830(2)
O7_2 O 1.0721(4) 0.00297(19) 0.6170(2)
O8B O 0.1317(4) 0.02707(17) 1.2898(3)
O8B_2 O 0.1317(4) 0.02707(17) 0.2898(3)
O8_2 O 0.8683(4) -0.02707(17) 0.7102(3)
O9B O -0.0559(5) -0.1218(2) 1.0920(3)
N1B N 0.4038(5) -0.1594(2) 0.2064(3)
N2B N 0.6046(5) -0.2592(2) 0.1263(3)
N3B N -0.0692(5) -0.0049(2) 1.0960(3)
C1B C 0.5023(5) -0.0731(2) 0.3454(3)
C2B C 0.3495(6) -0.1027(3) 0.2686(4)
H1B H 0.2974 -0.0656 0.2199
H2B H 0.2599 -0.1195 0.3098
C3B C 0.4185(9) -0.2260(3) 0.2539(5)
H3B H 0.4392 -0.2202 0.3325
H4B H 0.3063 -0.2504 0.2346
C4B C 0.5591(8) -0.2710(3) 0.2230(4)
C5B C 0.4493(7) -0.1480(3) 0.1118(4)
C6B C 0.5170(7) -0.2074(3) 0.0557(4)
H5B H 0.5985 -0.1894 0.0097
H6B H 0.4190 -0.2296 0.0087
C7B C 0.7176(7) -0.3061(3) 0.0840(5)
H7B H 0.7777 -0.2808 0.0324
H8B H 0.8071 -0.3223 0.1429
C8B C 0.6262(6) -0.3692(3) 0.0282(4)
C9B C -0.0191(6) 0.0067(2) 1.2943(4)
C10B C -0.1474(6) -0.0037(3) 1.1933(4)
H9B H -0.2343 0.0341 1.1876
H10B H -0.2094 -0.0481 1.1990
C11B C -0.0327(6) -0.0637(3) 1.0518(4)
C12B C -0.0357(7) 0.0640(3) 1.0526(4)
H11B H 0.0487 0.0887 1.1061
H12B H -0.1451 0.0908 1.0432
O10B O 0.6184(4) -0.13061(19) 0.5795(3)
H13B H 0.5722 -0.1190 0.6324
H14B H 0.7012 -0.1669 0.6000
O11 O 0.4035(7) 0.1691(3) 0.2204(3)
O12 O 0.3985(7) 0.2673(3) 0.4991(4)
O13 O -0.0427(5) -0.1917(2) 0.2947(3)
O14 O 0.4086(8) 0.0553(3) 1.0985(4)
loop_
_geom_bond_atom_site_label_1
_geom_bond_atom_site_label_2
_geom_bond_site_symmetry_1
_geom_bond_site_symmetry_2
Sm1 O1 1_555 1_555
O1 C1 1_555 1_555
O2 Sm1 1_555 1_555
O3 C5 1_555 1_555
O4 C4 1_555 1_555
O5 C8 1_555 1_555
O6 C8 1_555 1_555
O7 Sm1 1_555 1_555
O8 C9 1_555 1_555
O9 C11 1_555 1_555
N1 C2 1_555 1_555
N2 C4 1_555 1_555
N3 C10 1_555 1_555
C1 O2 1_555 1_555
C2 C1 1_555 1_555
H1 C2 1_555 1_555
H2 C2 1_555 1_555
C3 N1 1_555 1_555
H3 C3 1_555 1_555
H4 C3 1_555 1_555
C4 C3 1_555 1_555
C5 N1 1_555 1_555
C6 N2 1_555 1_555
H5 C6 1_555 1_555
H6 C6 1_555 1_555
C7 N2 1_555 1_555
H7 C7 1_555 1_555
H8 C7 1_555 1_555
C8 C7 1_555 1_555
C9 O7 1_555 1_555
C10 C9 1_555 1_555
H9 C10 1_555 1_555
H10 C10 1_555 1_555
C11 N3 1_555 1_555
C12 N3 1_555 1_555
H11 C12 1_555 1_555
H12 C12 1_555 1_555
O10 Sm1 1_555 1_555
H13 O10 1_555 1_555
H14 O10 1_555 1_555
Sm1B O1 1_555 1_555
Sm1C O5 1_555 1_555
Sm1A O6 1_555 1_555
Sm1B_2 O7 1_555 1_555
Sm1B_3 O7B 1_555 1_555
Sm1_2 O7B 1_555 1_555
Sm1A_2 O5B 1_555 1_555
Sm1C_2 O6B 1_555 1_555
O1B Sm1 1_555 1_555
O2B Sm1B 1_555 1_555
O3B C5B 1_555 1_555
O4B C4B 1_555 1_555
O5B C8B 1_555 1_555
O5C Sm1 1_555 1_555
O5A Sm1B 1_555 1_555
O6B C8B 1_555 1_555
O6A Sm1 1_555 1_555
O6C Sm1B 1_555 1_555
O7B C9B 1_555 1_555
O7B_2 Sm1 1_555 1_555
O7B_3 Sm1B 1_555 1_555
O7_2 Sm1B 1_555 1_555
O8B Sm1_2 1_555 1_555
O8B_2 Sm1 1_555 1_555
O8_2 Sm1B 1_555 1_555
O9B C11B 1_555 1_555
N1B C2B 1_555 1_555
N2B C4B 1_555 1_555
N3B C10B 1_555 1_555
C1B O1B 1_555 1_555
C2B C1B 1_555 1_555
H1B C2B 1_555 1_555
H2B C2B 1_555 1_555
C3B N1B 1_555 1_555
H3B C3B 1_555 1_555
H4B C3B 1_555 1_555
C4B C3B 1_555 1_555
C5B N1B 1_555 1_555
C6B N2B 1_555 1_555
H5B C6B 1_555 1_555
H6B C6B 1_555 1_555
C7B N2B 1_555 1_555
H7B C7B 1_555 1_555
H8B C7B 1_555 1_555
C8B C7B 1_555 1_555
C9B O8B 1_555 1_555
C10B C9B 1_555 1_555
H9B C10B 1_555 1_555
H10B C10B 1_555 1_555
C11B C12 1_555 1_555
C12B C11 1_555 1_555
H11B C12B 1_555 1_555
H12B C12B 1_555 1_555
O10B Sm1B 1_555 1_555
H13B O10B 1_555 1_555
H14B O10B 1_555 1_555
O8 Sm1B_2 1_555 1_555
C5 C6 1_555 1_555
Sm1B O1B 1_555 1_555
Sm1B_2 O7B_2 1_555 1_555
O2B C1B 1_555 1_555
N3B C11B 1_555 1_555
N3B C12B 1_555 1_555
C5B C6B 1_555 1_555

#END
