
#######################################################################
#
#                 Cambridge Crystallographic Data Centre
#                                CCDC 
#
#######################################################################
#
# If this CIF has been generated from an entry in the Cambridge 
# Structural Database, then it will include bibliographic, chemical, 
# crystal, experimental, refinement or atomic coordinate data resulting 
# from the CCDC's data processing and validation procedures.
#
#######################################################################

data_XAFZUZ
_symmetry_cell_setting           monoclinic
_symmetry_space_group_name_H-M   'P 21/n'
_symmetry_Int_Tables_number      14
_space_group_name_Hall           '-P 2yn'
loop_
_symmetry_equiv_pos_site_id
_symmetry_equiv_pos_as_xyz
1 x,y,z
2 1/2-x,1/2+y,1/2-z
3 -x,-y,-z
4 1/2+x,1/2-y,1/2+z
_cell_length_a                   9.512(5)
_cell_length_b                   16.656(8)
_cell_length_c                   14.724(6)
_cell_angle_alpha                90
_cell_angle_beta                 92.50
_cell_angle_gamma                90
_cell_volume                     2330.53
loop_
_atom_site_label
_atom_site_type_symbol
_atom_site_fract_x
_atom_site_fract_y
_atom_site_fract_z
Sn1 Sn -0.07973(3) 0.22557(2) 0.08624(2)
O1 O -0.4830(3) 0.3288(2) -0.2883(2)
O2 O -0.1668(3) 0.2819(2) -0.0427(2)
C1 C -0.4279(4) 0.2904(2) -0.2219(3)
H1 H -0.4673(4) 0.2411(2) -0.2079(3)
C2 C -0.3130(4) 0.3162(2) -0.1682(2)
C3 C -0.2687(4) 0.2657(3) -0.0968(3)
H2 H -0.3170(4) 0.2178(3) -0.0889(3)
C4 C -0.2395(3) 0.39319(14) -0.1846(2)
C5 C -0.0984(3) 0.3922(2) -0.2067(2)
H3 H -0.0502(4) 0.3420(2) -0.2129(3)
C6 C -0.0272(3) 0.4643(2) -0.2198(2)
H4 H 0.0699(3) 0.4636(3) -0.2350(4)
C7 C -0.0972(4) 0.5373(2) -0.2108(3)
H5 H -0.0483(5) 0.5868(2) -0.2198(4)
C8 C -0.2383(4) 0.53821(14) -0.1886(3)
H6 H -0.2865(5) 0.5884(2) -0.1824(4)
C9 C -0.3095(3) 0.4662(2) -0.1755(2)
H7 H -0.4066(3) 0.4668(3) -0.1603(3)
C10 C -0.2143(3) 0.3010(2) 0.1620(2)
C11 C -0.2663(3) 0.2740(2) 0.2437(2)
H8 H -0.2416(5) 0.2216(2) 0.2662(3)
C12 C -0.3543(4) 0.3233(2) 0.2927(2)
H9 H -0.3901(6) 0.3047(3) 0.3490(3)
C13 C -0.3902(4) 0.3995(2) 0.2601(3)
H10 H -0.4507(6) 0.4334(3) 0.2938(4)
C14 C -0.3381(4) 0.4265(2) 0.1784(3)
H11 H -0.3629(5) 0.4790(2) 0.1559(4)
C15 C -0.2502(3) 0.3773(2) 0.1293(2)
H12 H -0.2144(5) 0.3959(3) 0.0731(3)
C16 C 0.1210(2) 0.2702(2) 0.0495(2)
C17 C 0.2446(3) 0.2358(2) 0.0862(2)
H13 H 0.2400(5) 0.1911(2) 0.1271(3)
C18 C 0.3750(2) 0.2664(3) 0.0634(3)
H14 H 0.4600(3) 0.2427(3) 0.0886(4)
C19 C 0.3817(3) 0.3313(3) 0.0039(3)
H15 H 0.4714(4) 0.3524(4) -0.0117(4)
C20 C 0.2581(4) 0.3657(2) -0.0327(2)
H16 H 0.2628(6) 0.4104(3) -0.0736(3)
C21 C 0.1278(3) 0.3351(2) -0.0099(2)
H17 H 0.0427(4) 0.3588(3) -0.0351(3)
C22 C -0.1646(3) 0.1127(2) 0.0463(2)
C23 C -0.1301(4) 0.0756(2) -0.0347(2)
H18 H -0.0620(6) 0.0997(3) -0.0725(3)
C24 C -0.1946(5) 0.0035(2) -0.0609(2)
H19 H -0.1708(7) -0.0220(3) -0.1166(3)
C25 C -0.2936(5) -0.0315(2) -0.0060(3)
H20 H -0.3379(7) -0.0812(2) -0.0240(4)
C26 C -0.3281(5) 0.0055(3) 0.0750(3)
H21 H -0.3962(8) -0.0186(4) 0.1128(4)
C27 C -0.2636(5) 0.0776(2) 0.1012(2)
H22 H -0.2874(7) 0.1031(4) 0.1569(3)
Sn1C Sn -0.57973(3) 0.27443(2) -0.41376(2)
O1C O 0.0170(3) 0.1712(2) 0.2117(2)
loop_
_geom_bond_atom_site_label_1
_geom_bond_atom_site_label_2
_geom_bond_site_symmetry_1
_geom_bond_site_symmetry_2
Sn1 O2 1_555 1_555
O1 C1 1_555 1_555
O2 C3 1_555 1_555
C1 H1 1_555 1_555
C2 C1 1_555 1_555
C3 C2 1_555 1_555
H2 C3 1_555 1_555
C4 C2 1_555 1_555
C5 C4 1_555 1_555
H3 C5 1_555 1_555
C6 C5 1_555 1_555
H4 C6 1_555 1_555
C7 C6 1_555 1_555
H5 C7 1_555 1_555
C8 C7 1_555 1_555
H6 C8 1_555 1_555
C9 C4 1_555 1_555
H7 C9 1_555 1_555
C10 Sn1 1_555 1_555
C11 C10 1_555 1_555
H8 C11 1_555 1_555
C12 C11 1_555 1_555
H9 C12 1_555 1_555
C13 C12 1_555 1_555
H10 C13 1_555 1_555
C14 C13 1_555 1_555
H11 C14 1_555 1_555
C15 C10 1_555 1_555
H12 C15 1_555 1_555
C16 Sn1 1_555 1_555
C17 C16 1_555 1_555
H13 C17 1_555 1_555
C18 C17 1_555 1_555
H14 C18 1_555 1_555
C19 C18 1_555 1_555
H15 C19 1_555 1_555
C20 C19 1_555 1_555
H16 C20 1_555 1_555
C21 C16 1_555 1_555
H17 C21 1_555 1_555
C22 Sn1 1_555 1_555
C23 C22 1_555 1_555
H18 C23 1_555 1_555
C24 C23 1_555 1_555
H19 C24 1_555 1_555
C25 C24 1_555 1_555
H20 C25 1_555 1_555
C26 C25 1_555 1_555
H21 C26 1_555 1_555
C27 C22 1_555 1_555
H22 C27 1_555 1_555
Sn1C O1 1_555 1_555
O1C Sn1 1_555 1_555
C8 C9 1_555 1_555
C14 C15 1_555 1_555
C20 C21 1_555 1_555
C26 C27 1_555 1_555

#END
