
#######################################################################
#
#                 Cambridge Crystallographic Data Centre
#                                CCDC 
#
#######################################################################
#
# If this CIF has been generated from an entry in the Cambridge 
# Structural Database, then it will include bibliographic, chemical, 
# crystal, experimental, refinement or atomic coordinate data resulting 
# from the CCDC's data processing and validation procedures.
#
#######################################################################

data_XAGCIS02
_symmetry_cell_setting           cubic
_symmetry_space_group_name_H-M   'P a -3'
_symmetry_Int_Tables_number      205
_space_group_name_Hall           '-P 2ac 2ab 3'
loop_
_symmetry_equiv_pos_site_id
_symmetry_equiv_pos_as_xyz
1 x,y,z
2 z,x,y
3 y,z,x
4 1/2-x,-y,1/2+z
5 -x,1/2+y,1/2-z
6 1/2+x,1/2-y,-z
7 1/2+z,1/2-x,-y
8 1/2-z,-x,1/2+y
9 -z,1/2+x,1/2-y
10 -y,1/2+z,1/2-x
11 1/2+y,1/2-z,-x
12 1/2-y,-z,1/2+x
13 -x,-y,-z
14 -z,-x,-y
15 -y,-z,-x
16 1/2+x,y,1/2-z
17 x,1/2-y,1/2+z
18 1/2-x,1/2+y,z
19 1/2-z,1/2+x,y
20 1/2+z,x,1/2-y
21 z,1/2-x,1/2+y
22 y,1/2-z,1/2+x
23 1/2-y,1/2+z,x
24 1/2+y,z,1/2-x
_cell_length_a                   20.4480(10)
_cell_length_b                   20.4480(10)
_cell_length_c                   20.4480(10)
_cell_angle_alpha                90
_cell_angle_beta                 90
_cell_angle_gamma                90
_cell_volume                     8549.73
loop_
_atom_site_label
_atom_site_type_symbol
_atom_site_fract_x
_atom_site_fract_y
_atom_site_fract_z
Co1 Co 0.16133(4) 0.39843(4) 0.14318(4)
Co2 Co 0.00607(4) 0.56125(4) 0.27597(4)
O1 O 0.1269(2) 0.33112(19) 0.21616(19)
C1 C 0.0910(3) 0.3664(3) 0.2657(3)
H1 H 0.1212 0.3780 0.3010
C2 C 0.0618(3) 0.4288(3) 0.2380(3)
O2 O 0.0808(2) 0.4486(2) 0.1832(2)
O3 O 0.0228(3) 0.4590(2) 0.2740(2)
C3 C 0.0418(3) 0.3163(3) 0.2918(3)
H2 H 0.0026 0.3388 0.3080
C4 C 0.0741(3) 0.2788(3) 0.3468(3)
O4 O 0.0707(3) 0.3059(2) 0.4015(2)
O5 O 0.1032(2) 0.2277(2) 0.3345(2)
C5 C 0.0249(3) 0.2762(3) 0.2310(3)
H3 H -0.0085 0.3007 0.2068
C6 C -0.0037(3) 0.2088(3) 0.2461(3)
O6 O -0.0513(2) 0.2095(2) 0.2849(2)
O7 O 0.0193(2) 0.1596(2) 0.2185(2)
C7 C 0.0875(3) 0.2782(3) 0.1901(3)
H4 H 0.1111 0.2368 0.1951
C8 C 0.0739(3) 0.2902(3) 0.1184(3)
O8 O 0.0426(2) 0.2459(2) 0.0898(2)
O9 O 0.0934(2) 0.3416(2) 0.0918(2)
O10 O 0.1730(2) 0.4669(2) 0.0679(2)
H5 H 0.1467 0.5054 0.0769
H6 H 0.1585 0.4483 0.0268
O11 O -0.0157(3) 0.5485(4) 0.3741(4)
H7 H -0.0057 0.5812 0.4040
H8 H -0.0355 0.5101 0.3882
O1B O 0.33112(19) 0.21616(19) 0.1269(2)
C1B C 0.3664(3) 0.2657(3) 0.0910(3)
H1B H 0.3780 0.3010 0.1212
C2B C 0.4288(3) 0.2380(3) 0.0618(3)
O2B O 0.4486(2) 0.1832(2) 0.0808(2)
O3B O 0.4590(2) 0.2740(2) 0.0228(3)
C3B C 0.3163(3) 0.2918(3) 0.0418(3)
H2B H 0.3388 0.3080 0.0026
C4B C 0.2788(3) 0.3468(3) 0.0741(3)
O4B O 0.3059(2) 0.4015(2) 0.0707(3)
O5B O 0.2277(2) 0.3345(2) 0.1032(2)
C5B C 0.2762(3) 0.2310(3) 0.0249(3)
H3B H 0.3007 0.2068 -0.0085
C6B C 0.2088(3) 0.2461(3) -0.0037(3)
O6B O 0.2095(2) 0.2849(2) -0.0513(2)
O7B O 0.1596(2) 0.2185(2) 0.0193(2)
C7B C 0.2782(3) 0.1901(3) 0.0875(3)
H4B H 0.2368 0.1951 0.1111
C8B C 0.2902(3) 0.1184(3) 0.0739(3)
O8B O 0.2459(2) 0.0898(2) 0.0426(2)
O9B O 0.3416(2) 0.0918(2) 0.0934(2)
O1R O 0.28384(19) 0.6269(2) 0.33112(19)
C1R C 0.2343(3) 0.5910(3) 0.3664(3)
H1R H 0.1990 0.6212 0.3780
C2R C 0.2620(3) 0.5618(3) 0.4288(3)
O2R O 0.3168(2) 0.5808(2) 0.4486(2)
O3R O 0.2260(2) 0.5228(3) 0.4590(2)
C3R C 0.2082(3) 0.5418(3) 0.3163(3)
H2R H 0.1920 0.5026 0.3388
C4R C 0.1532(3) 0.5741(3) 0.2788(3)
O4R O 0.0985(2) 0.5707(3) 0.3059(2)
O5R O 0.1655(2) 0.6032(2) 0.2277(2)
C5R C 0.2690(3) 0.5249(3) 0.2762(3)
H3R H 0.2932 0.4915 0.3007
C6R C 0.2539(3) 0.4963(3) 0.2088(3)
O6R O 0.2151(2) 0.4487(2) 0.2095(2)
O7R O 0.2815(2) 0.5193(2) 0.1596(2)
C7R C 0.3099(3) 0.5875(3) 0.2782(3)
H4R H 0.3049 0.6111 0.2368
C8R C 0.3816(3) 0.5739(3) 0.2902(3)
O8R O 0.4102(2) 0.5426(2) 0.2459(2)
O9R O 0.4082(2) 0.5934(2) 0.3416(2)
Co1B Co 0.39843(4) 0.14318(4) 0.16133(4)
Co1R Co 0.35682(4) 0.66133(4) 0.39843(4)
Co2B Co 0.56125(4) 0.27597(4) 0.00607(4)
Co2R Co 0.22403(4) 0.50607(4) 0.56125(4)
O10V O 0.0331(2) 0.5679(2) 0.1730(2)
H5V H -0.0054 0.5769 0.1467
H6V H 0.0517 0.5268 0.1585
O10B O 0.4669(2) 0.0679(2) 0.1730(2)
H5B H 0.5054 0.0769 0.1467
H6B H 0.4483 0.0268 0.1585
O11B O 0.5485(4) 0.3741(4) -0.0157(3)
H7B H 0.5812 0.4040 -0.0057
H8B H 0.5101 0.3882 -0.0355
O11R O 0.1259(4) 0.4843(3) 0.5485(4)
H7R H 0.0960 0.4943 0.5812
H8R H 0.1118 0.4645 0.5101
O7D O -0.0193(2) 0.6596(2) 0.2815(2)
O8H O -0.0898(2) 0.5426(2) 0.2541(2)
Co2W Co 0.06125(4) 0.27597(4) 0.49393(4)
Co1A Co 0.14318(4) 0.16133(4) 0.39843(4)
Co1W Co -0.10157(4) 0.14318(4) 0.33867(4)
Co2D Co -0.00607(4) 0.06125(4) 0.22403(4)
Co2J Co 0.06125(4) 0.22403(4) -0.00607(4)
Co2T Co 0.27597(4) 0.49393(4) 0.06125(4)
Co1T Co 0.14318(4) 0.33867(4) -0.10157(4)
Co2G Co 0.22403(4) -0.00607(4) 0.06125(4)
Co1V Co 0.10157(4) 0.64318(4) 0.16133(4)
Co2O Co 0.50607(4) 0.56125(4) 0.22403(4)
O5A O 0.3345(2) 0.1032(2) 0.2277(2)
O6O O 0.4487(2) 0.2095(2) 0.2151(2)
O5Q O 0.3968(2) 0.7277(2) 0.3345(2)
O6K O 0.2905(2) 0.7151(2) 0.4487(2)
O10R O 0.4321(2) 0.6730(2) 0.4669(2)
O4O O 0.5707(3) 0.3059(2) 0.0985(2)
O7J O 0.6596(2) 0.2815(2) -0.0193(2)
O8E O 0.5426(2) 0.2541(2) -0.0898(2)
O10S O 0.5679(2) 0.1730(2) 0.0331(2)
O4K O 0.1941(2) 0.5985(2) 0.5707(3)
O7T O 0.2185(2) 0.4807(2) 0.6596(2)
O8U O 0.2459(2) 0.4102(2) 0.5426(2)
O10C O 0.3270(2) 0.5331(2) 0.5679(2)
Co2Q Co 0.49393(4) 0.06125(4) 0.27597(4)
H5R H 0.4231 0.6467 0.5054
H6R H 0.4732 0.6585 0.4483
H5S H 0.5769 0.1467 -0.0054
H6S H 0.5268 0.1585 0.0517
H5C H 0.3533 0.4946 0.5769
H6C H 0.3415 0.5517 0.5268
O12 O 0.1329(5) 0.1329(5) 0.1329(5)
O13 O 0.2067(10) 0.3842(7) 0.3977(7)
O14 O 0.4131(10) 0.5422(10) -0.0804(7)
loop_
_geom_bond_atom_site_label_1
_geom_bond_atom_site_label_2
_geom_bond_site_symmetry_1
_geom_bond_site_symmetry_2
Co1 O1 1_555 1_555
Co2 O3 1_555 1_555
O1 C1 1_555 1_555
C1 H1 1_555 1_555
C2 C1 1_555 1_555
O2 Co1 1_555 1_555
O3 C2 1_555 1_555
C3 C1 1_555 1_555
H2 C3 1_555 1_555
C4 C3 1_555 1_555
O4 C4 1_555 1_555
O5 C4 1_555 1_555
C5 C3 1_555 1_555
H3 C5 1_555 1_555
C6 C5 1_555 1_555
O6 C6 1_555 1_555
O7 C6 1_555 1_555
C7 O1 1_555 1_555
H4 C7 1_555 1_555
C8 C7 1_555 1_555
O8 C8 1_555 1_555
O9 Co1 1_555 1_555
O10 Co1 1_555 1_555
H5 O10 1_555 1_555
H6 O10 1_555 1_555
O11 Co2 1_555 1_555
H7 O11 1_555 1_555
H8 O11 1_555 1_555
O1B C1B 1_555 1_555
C1B H1B 1_555 1_555
C2B C1B 1_555 1_555
O2B C2B 1_555 1_555
O3B C2B 1_555 1_555
C3B C1B 1_555 1_555
H2B C3B 1_555 1_555
C4B C3B 1_555 1_555
O4B C4B 1_555 1_555
O5B Co1 1_555 1_555
C5B C3B 1_555 1_555
H3B C5B 1_555 1_555
C6B C5B 1_555 1_555
O6B C6B 1_555 1_555
O7B C6B 1_555 1_555
C7B O1B 1_555 1_555
H4B C7B 1_555 1_555
C8B C7B 1_555 1_555
O8B C8B 1_555 1_555
O9B C8B 1_555 1_555
O1R C1R 1_555 1_555
C1R H1R 1_555 1_555
C2R C1R 1_555 1_555
O2R C2R 1_555 1_555
O3R C2R 1_555 1_555
C3R C1R 1_555 1_555
H2R C3R 1_555 1_555
C4R C3R 1_555 1_555
O4R Co2 1_555 1_555
O5R C4R 1_555 1_555
C5R C3R 1_555 1_555
H3R C5R 1_555 1_555
C6R C5R 1_555 1_555
O6R Co1 1_555 1_555
O7R C6R 1_555 1_555
C7R O1R 1_555 1_555
H4R C7R 1_555 1_555
C8R C7R 1_555 1_555
O8R C8R 1_555 1_555
O9R C8R 1_555 1_555
Co1B O1B 1_555 1_555
Co1R O1R 1_555 1_555
Co2B O3B 1_555 1_555
Co2R O3R 1_555 1_555
O10V Co2 1_555 1_555
H5V O10V 1_555 1_555
H6V O10V 1_555 1_555
O10B Co1B 1_555 1_555
H5B O10B 1_555 1_555
H6B O10B 1_555 1_555
O11B Co2B 1_555 1_555
H7B O11B 1_555 1_555
H8B O11B 1_555 1_555
O11R Co2R 1_555 1_555
H7R O11R 1_555 1_555
H8R O11R 1_555 1_555
O7D Co2 1_555 1_555
O8H Co2 1_555 1_555
Co2W O4 1_555 1_555
Co1A O5 1_555 1_555
Co1W O6 1_555 1_555
Co2D O7 1_555 1_555
Co2J O8 1_555 1_555
Co2T O10 1_555 1_555
Co1T O6B 1_555 1_555
Co2G O8B 1_555 1_555
Co1V O5R 1_555 1_555
Co2O O8R 1_555 1_555
O5A Co1B 1_555 1_555
O6O Co1B 1_555 1_555
O5Q Co1R 1_555 1_555
O6K Co1R 1_555 1_555
O10R Co1R 1_555 1_555
O4O Co2B 1_555 1_555
O7J Co2B 1_555 1_555
O8E Co2B 1_555 1_555
O10S Co2B 1_555 1_555
O4K Co2R 1_555 1_555
O7T Co2R 1_555 1_555
O8U Co2R 1_555 1_555
O10C Co2R 1_555 1_555
Co2Q O10B 1_555 1_555
H5R O10R 1_555 1_555
H6R O10R 1_555 1_555
H5S O10S 1_555 1_555
H6S O10S 1_555 1_555
H5C O10C 1_555 1_555
H6C O10C 1_555 1_555
C2 O2 1_555 1_555
C5 C7 1_555 1_555
C8 O9 1_555 1_555
O2B Co1B 1_555 1_555
C4B O5B 1_555 1_555
O4B Co2T 1_555 1_555
C5B C7B 1_555 1_555
O7B Co2J 1_555 1_555
O9B Co1B 1_555 1_555
O2R Co1R 1_555 1_555
C4R O4R 1_555 1_555
C5R C7R 1_555 1_555
C6R O6R 1_555 1_555
O7R Co2T 1_555 1_555
O9R Co1R 1_555 1_555
O10V Co1V 1_555 1_555

#END
