
#######################################################################
#
#                 Cambridge Crystallographic Data Centre
#                                CCDC 
#
#######################################################################
#
# If this CIF has been generated from an entry in the Cambridge 
# Structural Database, then it will include bibliographic, chemical, 
# crystal, experimental, refinement or atomic coordinate data resulting 
# from the CCDC's data processing and validation procedures.
#
#######################################################################

data_XAGCEO
_symmetry_cell_setting           cubic
_symmetry_space_group_name_H-M   'P a -3'
_symmetry_Int_Tables_number      205
_space_group_name_Hall           '-P 2ac 2ab 3'
loop_
_symmetry_equiv_pos_site_id
_symmetry_equiv_pos_as_xyz
1 x,y,z
2 z,x,y
3 y,z,x
4 1/2-x,-y,1/2+z
5 -x,1/2+y,1/2-z
6 1/2+x,1/2-y,-z
7 1/2+z,1/2-x,-y
8 1/2-z,-x,1/2+y
9 -z,1/2+x,1/2-y
10 -y,1/2+z,1/2-x
11 1/2+y,1/2-z,-x
12 1/2-y,-z,1/2+x
13 -x,-y,-z
14 -z,-x,-y
15 -y,-z,-x
16 1/2+x,y,1/2-z
17 x,1/2-y,1/2+z
18 1/2-x,1/2+y,z
19 1/2-z,1/2+x,y
20 1/2+z,x,1/2-y
21 z,1/2-x,1/2+y
22 y,1/2-z,1/2+x
23 1/2-y,1/2+z,x
24 1/2+y,z,1/2-x
_cell_length_a                   20.2730(10)
_cell_length_b                   20.2730(10)
_cell_length_c                   20.2730(10)
_cell_angle_alpha                90
_cell_angle_beta                 90
_cell_angle_gamma                90
_cell_volume                     8332.09
loop_
_atom_site_label
_atom_site_type_symbol
_atom_site_fract_x
_atom_site_fract_y
_atom_site_fract_z
Co1 Co 0.15901(9) 0.39695(9) 0.14260(9)
Co2 Co 0.00649(9) 0.56230(10) 0.27128(9)
O1 O 0.1250(4) 0.3310(4) 0.2179(4)
C1 C 0.0884(7) 0.3674(6) 0.2674(6)
H1 H 0.1186 0.3797 0.3030
C2 C 0.0589(7) 0.4303(7) 0.2379(8)
O2 O 0.0770(5) 0.4482(5) 0.1819(5)
O3 O 0.0197(5) 0.4610(5) 0.2750(5)
C3 C 0.0378(6) 0.3174(6) 0.2944(6)
H2 H -0.0017 0.3403 0.3103
C4 C 0.0704(6) 0.2792(6) 0.3506(7)
O4 O 0.0668(6) 0.3069(5) 0.4056(5)
O5 O 0.0992(4) 0.2274(5) 0.3374(4)
C5 C 0.0211(6) 0.2755(6) 0.2320(6)
H3 H -0.0121 0.2996 0.2065
C6 C -0.0065(6) 0.2089(6) 0.2473(7)
O6 O -0.0537(5) 0.2102(4) 0.2868(5)
O7 O 0.0147(5) 0.1585(4) 0.2194(4)
C7 C 0.0858(6) 0.2760(6) 0.1920(6)
H4 H 0.1096 0.2346 0.1995
C8 C 0.0728(7) 0.2843(7) 0.1184(7)
O8 O 0.0462(5) 0.2394(5) 0.0896(4)
O9 O 0.0905(4) 0.3399(5) 0.0918(4)
O10 O 0.1686(5) 0.4677(4) 0.0655(4)
O5B O 0.2274(5) 0.3374(4) 0.0992(4)
O6R O 0.2132(5) 0.4463(5) 0.2102(4)
O4R O 0.0944(5) 0.5668(6) 0.3069(5)
O7D O -0.0147(5) 0.6585(4) 0.2806(4)
O8H O -0.0896(4) 0.5462(5) 0.2606(5)
O10V O 0.0323(4) 0.5655(4) 0.1686(5)
Co2W Co 0.06230(10) 0.27128(9) 0.49351(9)
Co1A Co 0.14260(9) 0.15901(9) 0.39695(9)
Co1W Co -0.10305(9) 0.14260(9) 0.34099(9)
Co2D Co -0.00649(9) 0.06230(10) 0.22872(9)
Co2J Co 0.06230(10) 0.22872(9) -0.00649(9)
Co2T Co 0.27128(9) 0.49351(9) 0.06230(10)
loop_
_geom_bond_atom_site_label_1
_geom_bond_atom_site_label_2
_geom_bond_site_symmetry_1
_geom_bond_site_symmetry_2
Co1 O1 1_555 1_555
Co2 O3 1_555 1_555
O1 C1 1_555 1_555
C1 H1 1_555 1_555
C2 C1 1_555 1_555
O2 Co1 1_555 1_555
O3 C2 1_555 1_555
C3 C1 1_555 1_555
H2 C3 1_555 1_555
C4 C3 1_555 1_555
O4 C4 1_555 1_555
O5 C4 1_555 1_555
C5 C3 1_555 1_555
H3 C5 1_555 1_555
C6 C5 1_555 1_555
O6 C6 1_555 1_555
O7 C6 1_555 1_555
C7 O1 1_555 1_555
H4 C7 1_555 1_555
C8 C7 1_555 1_555
O8 C8 1_555 1_555
O9 Co1 1_555 1_555
O10 Co1 1_555 1_555
O5B Co1 1_555 1_555
O6R Co1 1_555 1_555
O4R Co2 1_555 1_555
O7D Co2 1_555 1_555
O8H Co2 1_555 1_555
O10V Co2 1_555 1_555
Co2W O4 1_555 1_555
Co1A O5 1_555 1_555
Co1W O6 1_555 1_555
Co2D O7 1_555 1_555
Co2J O8 1_555 1_555
Co2T O10 1_555 1_555
C2 O2 1_555 1_555
C5 C7 1_555 1_555
C8 O9 1_555 1_555

#END
