
#######################################################################
#
#                 Cambridge Crystallographic Data Centre
#                                CCDC 
#
#######################################################################
#
# If this CIF has been generated from an entry in the Cambridge 
# Structural Database, then it will include bibliographic, chemical, 
# crystal, experimental, refinement or atomic coordinate data resulting 
# from the CCDC's data processing and validation procedures.
#
#######################################################################

data_XAGCIS01
_symmetry_cell_setting           cubic
_symmetry_space_group_name_H-M   'P a -3'
_symmetry_Int_Tables_number      205
_space_group_name_Hall           '-P 2ac 2ab 3'
loop_
_symmetry_equiv_pos_site_id
_symmetry_equiv_pos_as_xyz
1 x,y,z
2 z,x,y
3 y,z,x
4 1/2-x,-y,1/2+z
5 -x,1/2+y,1/2-z
6 1/2+x,1/2-y,-z
7 1/2+z,1/2-x,-y
8 1/2-z,-x,1/2+y
9 -z,1/2+x,1/2-y
10 -y,1/2+z,1/2-x
11 1/2+y,1/2-z,-x
12 1/2-y,-z,1/2+x
13 -x,-y,-z
14 -z,-x,-y
15 -y,-z,-x
16 1/2+x,y,1/2-z
17 x,1/2-y,1/2+z
18 1/2-x,1/2+y,z
19 1/2-z,1/2+x,y
20 1/2+z,x,1/2-y
21 z,1/2-x,1/2+y
22 y,1/2-z,1/2+x
23 1/2-y,1/2+z,x
24 1/2+y,z,1/2-x
_cell_length_a                   20.5213(3)
_cell_length_b                   20.5213(3)
_cell_length_c                   20.5213(3)
_cell_angle_alpha                90
_cell_angle_beta                 90
_cell_angle_gamma                90
_cell_volume                     8642.01
loop_
_atom_site_label
_atom_site_type_symbol
_atom_site_fract_x
_atom_site_fract_y
_atom_site_fract_z
Co1 Co 0.161283(16) 0.398382(15) 0.143147(16)
Co2 Co 0.005970(16) 0.561090(16) 0.275850(16)
O1 O 0.12703(8) 0.33098(8) 0.21618(8)
C1 C 0.09100(12) 0.36613(11) 0.26528(11)
H1 H 0.1210 0.3777 0.3006
C2 C 0.06148(12) 0.42908(12) 0.23797(12)
O2 O 0.08094(10) 0.44835(9) 0.18296(9)
O3 O 0.02264(12) 0.45859(10) 0.27384(11)
C3 C 0.04149(12) 0.31667(11) 0.29165(11)
H2 H 0.0025 0.3392 0.3076
C4 C 0.07412(12) 0.27914(12) 0.34697(12)
O4 O 0.07094(14) 0.30597(11) 0.40146(10)
O5 O 0.10329(10) 0.22733(10) 0.33465(9)
C5 C 0.02494(11) 0.27608(11) 0.23090(11)
H3 H -0.0084 0.3002 0.2066
C6 C -0.00365(12) 0.20866(12) 0.24633(12)
O6 O -0.05123(10) 0.20979(10) 0.28504(11)
O7 O 0.01928(10) 0.15960(9) 0.21912(10)
C7 C 0.08773(12) 0.27833(11) 0.19011(11)
H4 H 0.1113 0.2371 0.1950
C8 C 0.07396(12) 0.29037(13) 0.11825(12)
O8 O 0.04253(11) 0.24655(11) 0.08958(9)
O9 O 0.09358(10) 0.34213(9) 0.09193(9)
O10 O 0.17272(9) 0.46690(9) 0.06763(8)
H5 H 0.1465 0.5052 0.0765
H6 H 0.1583 0.4483 0.0266
O11 O -0.01536(14) 0.54810(19) 0.3744(2)
H7 H -0.0051 0.5806 0.4042
H8 H -0.0351 0.5098 0.3884
O1B O 0.33098(8) 0.21618(8) 0.12703(8)
C1B C 0.36613(11) 0.26528(11) 0.09100(12)
H1B H 0.3777 0.3006 0.1210
C2B C 0.42908(12) 0.23797(12) 0.06148(12)
O2B O 0.44835(9) 0.18296(9) 0.08094(10)
O3B O 0.45859(10) 0.27384(11) 0.02264(12)
C3B C 0.31667(11) 0.29165(11) 0.04149(12)
H2B H 0.3392 0.3076 0.0025
C4B C 0.27914(12) 0.34697(12) 0.07412(12)
O4B O 0.30597(11) 0.40146(10) 0.07094(14)
O5B O 0.22733(10) 0.33465(9) 0.10329(10)
C5B C 0.27608(11) 0.23090(11) 0.02494(11)
H3B H 0.3002 0.2066 -0.0084
C6B C 0.20866(12) 0.24633(12) -0.00365(12)
O6B O 0.20979(10) 0.28504(11) -0.05123(10)
O7B O 0.15960(9) 0.21912(10) 0.01928(10)
C7B C 0.27833(11) 0.19011(11) 0.08773(12)
H4B H 0.2371 0.1950 0.1113
C8B C 0.29037(13) 0.11825(12) 0.07396(12)
O8B O 0.24655(11) 0.08958(9) 0.04253(11)
O9B O 0.34213(9) 0.09193(9) 0.09358(10)
O1R O 0.28382(8) 0.62703(8) 0.33098(8)
C1R C 0.23472(11) 0.59100(12) 0.36613(11)
H1R H 0.1994 0.6210 0.3777
C2R C 0.26203(12) 0.56148(12) 0.42908(12)
O2R O 0.31704(9) 0.58094(10) 0.44835(9)
O3R O 0.22616(11) 0.52264(12) 0.45859(10)
C3R C 0.20835(11) 0.54149(12) 0.31667(11)
H2R H 0.1924 0.5025 0.3392
C4R C 0.15303(12) 0.57412(12) 0.27914(12)
O4R O 0.09854(10) 0.57094(14) 0.30597(11)
O5R O 0.16535(9) 0.60329(10) 0.22733(10)
C5R C 0.26910(11) 0.52494(11) 0.27608(11)
H3R H 0.2934 0.4916 0.3002
C6R C 0.25367(12) 0.49635(12) 0.20866(12)
O6R O 0.21496(11) 0.44877(10) 0.20979(10)
O7R O 0.28088(10) 0.51928(10) 0.15960(9)
C7R C 0.30989(11) 0.58773(12) 0.27833(11)
H4R H 0.3050 0.6113 0.2371
C8R C 0.38175(12) 0.57396(12) 0.29037(13)
O8R O 0.41042(9) 0.54253(11) 0.24655(11)
O9R O 0.40807(9) 0.59358(10) 0.34213(9)
Co1B Co 0.398382(15) 0.143147(16) 0.161283(16)
Co1R Co 0.356853(16) 0.661283(16) 0.398382(15)
Co2B Co 0.561090(16) 0.275850(16) 0.005970(16)
Co2R Co 0.224150(16) 0.505970(16) 0.561090(16)
O10V O 0.03310(9) 0.56763(8) 0.17272(9)
H5V H -0.0052 0.5765 0.1465
H6V H 0.0517 0.5266 0.1583
O10B O 0.46690(9) 0.06763(8) 0.17272(9)
H5B H 0.5052 0.0765 0.1465
H6B H 0.4483 0.0266 0.1583
O11B O 0.54810(19) 0.3744(2) -0.01536(14)
H7B H 0.5806 0.4042 -0.0051
H8B H 0.5098 0.3884 -0.0351
O11R O 0.1256(2) 0.48464(14) 0.54810(19)
H7R H 0.0958 0.4949 0.5806
H8R H 0.1116 0.4649 0.5098
O7D O -0.01928(10) 0.65960(9) 0.28088(10)
O8H O -0.08958(9) 0.54253(11) 0.25345(11)
Co2W Co 0.061090(16) 0.275850(16) 0.494030(16)
Co1A Co 0.143147(16) 0.161283(16) 0.398382(15)
Co1W Co -0.101618(15) 0.143147(16) 0.338717(16)
Co2D Co -0.005970(16) 0.061090(16) 0.224150(16)
Co2J Co 0.061090(16) 0.224150(16) -0.005970(16)
Co2T Co 0.275850(16) 0.494030(16) 0.061090(16)
Co1T Co 0.143147(16) 0.338717(16) -0.101618(15)
Co2G Co 0.224150(16) -0.005970(16) 0.061090(16)
Co1V Co 0.101618(15) 0.643147(16) 0.161283(16)
Co2O Co 0.505970(16) 0.561090(16) 0.224150(16)
O5A O 0.33465(9) 0.10329(10) 0.22733(10)
O6O O 0.44877(10) 0.20979(10) 0.21496(11)
O5Q O 0.39671(10) 0.72733(10) 0.33465(9)
O6K O 0.29021(10) 0.71496(11) 0.44877(10)
O10R O 0.43237(8) 0.67272(9) 0.46690(9)
O4O O 0.57094(14) 0.30597(11) 0.09854(10)
O7J O 0.65960(9) 0.28088(10) -0.01928(10)
O8E O 0.54253(11) 0.25345(11) -0.08958(9)
O10S O 0.56763(8) 0.17272(9) 0.03310(9)
O4K O 0.19403(11) 0.59854(10) 0.57094(14)
O7T O 0.21912(10) 0.48072(10) 0.65960(9)
O8U O 0.24655(11) 0.41042(9) 0.54253(11)
O10C O 0.32728(9) 0.53310(9) 0.56763(8)
Co2Q Co 0.494030(16) 0.061090(16) 0.275850(16)
H5R H 0.4235 0.6465 0.5052
H6R H 0.4734 0.6583 0.4483
H5S H 0.5765 0.1465 -0.0052
H6S H 0.5266 0.1583 0.0517
H5C H 0.3535 0.4948 0.5765
H6C H 0.3417 0.5517 0.5266
O12 O 0.1322(2) 0.1322(2) 0.1322(2)
O13 O 0.2061(5) 0.3852(4) 0.3977(4)
O14 O 0.4078(6) 0.5445(5) -0.0799(4)
loop_
_geom_bond_atom_site_label_1
_geom_bond_atom_site_label_2
_geom_bond_site_symmetry_1
_geom_bond_site_symmetry_2
Co1 O1 1_555 1_555
Co2 O3 1_555 1_555
O1 C1 1_555 1_555
C1 H1 1_555 1_555
C2 C1 1_555 1_555
O2 Co1 1_555 1_555
O3 C2 1_555 1_555
C3 C1 1_555 1_555
H2 C3 1_555 1_555
C4 C3 1_555 1_555
O4 C4 1_555 1_555
O5 C4 1_555 1_555
C5 C3 1_555 1_555
H3 C5 1_555 1_555
C6 C5 1_555 1_555
O6 C6 1_555 1_555
O7 C6 1_555 1_555
C7 O1 1_555 1_555
H4 C7 1_555 1_555
C8 C7 1_555 1_555
O8 C8 1_555 1_555
O9 Co1 1_555 1_555
O10 Co1 1_555 1_555
H5 O10 1_555 1_555
H6 O10 1_555 1_555
O11 Co2 1_555 1_555
H7 O11 1_555 1_555
H8 O11 1_555 1_555
O1B C1B 1_555 1_555
C1B H1B 1_555 1_555
C2B C1B 1_555 1_555
O2B C2B 1_555 1_555
O3B C2B 1_555 1_555
C3B C1B 1_555 1_555
H2B C3B 1_555 1_555
C4B C3B 1_555 1_555
O4B C4B 1_555 1_555
O5B Co1 1_555 1_555
C5B C3B 1_555 1_555
H3B C5B 1_555 1_555
C6B C5B 1_555 1_555
O6B C6B 1_555 1_555
O7B C6B 1_555 1_555
C7B O1B 1_555 1_555
H4B C7B 1_555 1_555
C8B C7B 1_555 1_555
O8B C8B 1_555 1_555
O9B C8B 1_555 1_555
O1R C1R 1_555 1_555
C1R H1R 1_555 1_555
C2R C1R 1_555 1_555
O2R C2R 1_555 1_555
O3R C2R 1_555 1_555
C3R C1R 1_555 1_555
H2R C3R 1_555 1_555
C4R C3R 1_555 1_555
O4R Co2 1_555 1_555
O5R C4R 1_555 1_555
C5R C3R 1_555 1_555
H3R C5R 1_555 1_555
C6R C5R 1_555 1_555
O6R Co1 1_555 1_555
O7R C6R 1_555 1_555
C7R O1R 1_555 1_555
H4R C7R 1_555 1_555
C8R C7R 1_555 1_555
O8R C8R 1_555 1_555
O9R C8R 1_555 1_555
Co1B O1B 1_555 1_555
Co1R O1R 1_555 1_555
Co2B O3B 1_555 1_555
Co2R O3R 1_555 1_555
O10V Co2 1_555 1_555
H5V O10V 1_555 1_555
H6V O10V 1_555 1_555
O10B Co1B 1_555 1_555
H5B O10B 1_555 1_555
H6B O10B 1_555 1_555
O11B Co2B 1_555 1_555
H7B O11B 1_555 1_555
H8B O11B 1_555 1_555
O11R Co2R 1_555 1_555
H7R O11R 1_555 1_555
H8R O11R 1_555 1_555
O7D Co2 1_555 1_555
O8H Co2 1_555 1_555
Co2W O4 1_555 1_555
Co1A O5 1_555 1_555
Co1W O6 1_555 1_555
Co2D O7 1_555 1_555
Co2J O8 1_555 1_555
Co2T O10 1_555 1_555
Co1T O6B 1_555 1_555
Co2G O8B 1_555 1_555
Co1V O5R 1_555 1_555
Co2O O8R 1_555 1_555
O5A Co1B 1_555 1_555
O6O Co1B 1_555 1_555
O5Q Co1R 1_555 1_555
O6K Co1R 1_555 1_555
O10R Co1R 1_555 1_555
O4O Co2B 1_555 1_555
O7J Co2B 1_555 1_555
O8E Co2B 1_555 1_555
O10S Co2B 1_555 1_555
O4K Co2R 1_555 1_555
O7T Co2R 1_555 1_555
O8U Co2R 1_555 1_555
O10C Co2R 1_555 1_555
Co2Q O10B 1_555 1_555
H5R O10R 1_555 1_555
H6R O10R 1_555 1_555
H5S O10S 1_555 1_555
H6S O10S 1_555 1_555
H5C O10C 1_555 1_555
H6C O10C 1_555 1_555
C2 O2 1_555 1_555
C5 C7 1_555 1_555
C8 O9 1_555 1_555
O2B Co1B 1_555 1_555
C4B O5B 1_555 1_555
O4B Co2T 1_555 1_555
C5B C7B 1_555 1_555
O7B Co2J 1_555 1_555
O9B Co1B 1_555 1_555
O2R Co1R 1_555 1_555
C4R O4R 1_555 1_555
C5R C7R 1_555 1_555
C6R O6R 1_555 1_555
O7R Co2T 1_555 1_555
O9R Co1R 1_555 1_555
O10V Co1V 1_555 1_555

#END
