
#######################################################################
#
#                 Cambridge Crystallographic Data Centre
#                                CCDC 
#
#######################################################################
#
# If this CIF has been generated from an entry in the Cambridge 
# Structural Database, then it will include bibliographic, chemical, 
# crystal, experimental, refinement or atomic coordinate data resulting 
# from the CCDC's data processing and validation procedures.
#
#######################################################################

data_XAGCIS
_symmetry_cell_setting           cubic
_symmetry_space_group_name_H-M   'P a -3'
_symmetry_Int_Tables_number      205
_space_group_name_Hall           '-P 2ac 2ab 3'
loop_
_symmetry_equiv_pos_site_id
_symmetry_equiv_pos_as_xyz
1 x,y,z
2 z,x,y
3 y,z,x
4 1/2-x,-y,1/2+z
5 -x,1/2+y,1/2-z
6 1/2+x,1/2-y,-z
7 1/2+z,1/2-x,-y
8 1/2-z,-x,1/2+y
9 -z,1/2+x,1/2-y
10 -y,1/2+z,1/2-x
11 1/2+y,1/2-z,-x
12 1/2-y,-z,1/2+x
13 -x,-y,-z
14 -z,-x,-y
15 -y,-z,-x
16 1/2+x,y,1/2-z
17 x,1/2-y,1/2+z
18 1/2-x,1/2+y,z
19 1/2-z,1/2+x,y
20 1/2+z,x,1/2-y
21 z,1/2-x,1/2+y
22 y,1/2-z,1/2+x
23 1/2-y,1/2+z,x
24 1/2+y,z,1/2-x
_cell_length_a                   20.4950(10)
_cell_length_b                   20.4950(10)
_cell_length_c                   20.4950(10)
_cell_angle_alpha                90
_cell_angle_beta                 90
_cell_angle_gamma                90
_cell_volume                     8608.82
loop_
_atom_site_label
_atom_site_type_symbol
_atom_site_fract_x
_atom_site_fract_y
_atom_site_fract_z
Co1 Co 0.16146(4) 0.39825(4) 0.14318(4)
Co2 Co 0.00626(4) 0.56081(4) 0.27581(4)
O1 O 0.1271(2) 0.3308(2) 0.2161(2)
C1 C 0.0906(3) 0.3661(3) 0.2656(3)
H1 H 0.1206 0.3776 0.3010
C2 C 0.0616(3) 0.4290(3) 0.2380(3)
O2 O 0.0810(2) 0.4483(2) 0.1830(2)
O3 O 0.0225(3) 0.4584(2) 0.2732(3)
C3 C 0.0417(3) 0.3163(3) 0.2915(3)
H2 H 0.0025 0.3385 0.3075
C4 C 0.0741(3) 0.2788(3) 0.3469(3)
O4 O 0.0703(3) 0.3054(3) 0.4010(2)
O5 O 0.1034(2) 0.2278(2) 0.3343(2)
C5 C 0.0254(3) 0.2762(3) 0.2306(3)
H3 H -0.0079 0.3005 0.2064
C6 C -0.0036(3) 0.2082(3) 0.2463(3)
O6 O -0.0507(2) 0.2094(2) 0.2851(2)
O7 O 0.0190(2) 0.1592(2) 0.2182(2)
C7 C 0.0881(3) 0.2782(3) 0.1897(3)
H4 H 0.1116 0.2369 0.1946
C8 C 0.0742(3) 0.2905(3) 0.1180(3)
O8 O 0.0429(2) 0.2463(2) 0.0894(2)
O9 O 0.0937(2) 0.3416(2) 0.0918(2)
O10 O 0.1729(2) 0.4667(2) 0.0680(2)
H5 H 0.1468 0.5051 0.0771
H6 H 0.1583 0.4481 0.0270
O11 O -0.0145(3) 0.5480(4) 0.3735(4)
H7 H -0.0040 0.5805 0.4034
H8 H -0.0343 0.5097 0.3877
O1B O 0.3308(2) 0.2161(2) 0.1271(2)
C1B C 0.3661(3) 0.2656(3) 0.0906(3)
H1B H 0.3776 0.3010 0.1206
C2B C 0.4290(3) 0.2380(3) 0.0616(3)
O2B O 0.4483(2) 0.1830(2) 0.0810(2)
O3B O 0.4584(2) 0.2732(3) 0.0225(3)
C3B C 0.3163(3) 0.2915(3) 0.0417(3)
H2B H 0.3385 0.3075 0.0025
C4B C 0.2788(3) 0.3469(3) 0.0741(3)
O4B O 0.3054(3) 0.4010(2) 0.0703(3)
O5B O 0.2278(2) 0.3343(2) 0.1034(2)
C5B C 0.2762(3) 0.2306(3) 0.0254(3)
H3B H 0.3005 0.2064 -0.0079
C6B C 0.2082(3) 0.2463(3) -0.0036(3)
O6B O 0.2094(2) 0.2851(2) -0.0507(2)
O7B O 0.1592(2) 0.2182(2) 0.0190(2)
C7B C 0.2782(3) 0.1897(3) 0.0881(3)
H4B H 0.2369 0.1946 0.1116
C8B C 0.2905(3) 0.1180(3) 0.0742(3)
O8B O 0.2463(2) 0.0894(2) 0.0429(2)
O9B O 0.3416(2) 0.0918(2) 0.0937(2)
O1R O 0.2839(2) 0.6271(2) 0.3308(2)
C1R C 0.2344(3) 0.5906(3) 0.3661(3)
H1R H 0.1990 0.6206 0.3776
C2R C 0.2620(3) 0.5616(3) 0.4290(3)
O2R O 0.3170(2) 0.5810(2) 0.4483(2)
O3R O 0.2268(3) 0.5225(3) 0.4584(2)
C3R C 0.2085(3) 0.5417(3) 0.3163(3)
H2R H 0.1925 0.5025 0.3385
C4R C 0.1531(3) 0.5741(3) 0.2788(3)
O4R O 0.0990(2) 0.5703(3) 0.3054(3)
O5R O 0.1657(2) 0.6034(2) 0.2278(2)
C5R C 0.2694(3) 0.5254(3) 0.2762(3)
H3R H 0.2936 0.4921 0.3005
C6R C 0.2537(3) 0.4964(3) 0.2082(3)
O6R O 0.2149(2) 0.4493(2) 0.2094(2)
O7R O 0.2818(2) 0.5190(2) 0.1592(2)
C7R C 0.3103(3) 0.5881(3) 0.2782(3)
H4R H 0.3054 0.6116 0.2369
C8R C 0.3820(3) 0.5742(3) 0.2905(3)
O8R O 0.4106(2) 0.5429(2) 0.2463(2)
O9R O 0.4082(2) 0.5937(2) 0.3416(2)
Co1B Co 0.39825(4) 0.14318(4) 0.16146(4)
Co1R Co 0.35682(4) 0.66146(4) 0.39825(4)
Co2B Co 0.56081(4) 0.27581(4) 0.00626(4)
Co2R Co 0.22419(4) 0.50626(4) 0.56081(4)
O10V O 0.0333(2) 0.5680(2) 0.1729(2)
H5V H -0.0051 0.5771 0.1468
H6V H 0.0519 0.5270 0.1583
O10B O 0.4667(2) 0.0680(2) 0.1729(2)
H5B H 0.5051 0.0771 0.1468
H6B H 0.4481 0.0270 0.1583
O11B O 0.5480(4) 0.3735(4) -0.0145(3)
H7B H 0.5805 0.4034 -0.0040
H8B H 0.5097 0.3877 -0.0343
O11R O 0.1265(4) 0.4855(3) 0.5480(4)
H7R H 0.0966 0.4960 0.5805
H8R H 0.1123 0.4657 0.5097
O7D O -0.0190(2) 0.6592(2) 0.2818(2)
O8H O -0.0894(2) 0.5429(2) 0.2537(2)
Co2W Co 0.06081(4) 0.27581(4) 0.49374(4)
Co1A Co 0.14318(4) 0.16146(4) 0.39825(4)
Co1W Co -0.10175(4) 0.14318(4) 0.33854(4)
Co2D Co -0.00626(4) 0.06081(4) 0.22419(4)
Co2J Co 0.06081(4) 0.22419(4) -0.00626(4)
Co2T Co 0.27581(4) 0.49374(4) 0.06081(4)
Co1T Co 0.14318(4) 0.33854(4) -0.10175(4)
Co2G Co 0.22419(4) -0.00626(4) 0.06081(4)
Co1V Co 0.10175(4) 0.64318(4) 0.16146(4)
Co2O Co 0.50626(4) 0.56081(4) 0.22419(4)
O5A O 0.3343(2) 0.1034(2) 0.2278(2)
O6O O 0.4493(2) 0.2094(2) 0.2149(2)
O5Q O 0.3966(2) 0.7278(2) 0.3343(2)
O6K O 0.2906(2) 0.7149(2) 0.4493(2)
O10R O 0.4320(2) 0.6729(2) 0.4667(2)
O4O O 0.5703(3) 0.3054(3) 0.0990(2)
O7J O 0.6592(2) 0.2818(2) -0.0190(2)
O8E O 0.5429(2) 0.2537(2) -0.0894(2)
O10S O 0.5680(2) 0.1729(2) 0.0333(2)
O4K O 0.1946(3) 0.5990(2) 0.5703(3)
O7T O 0.2182(2) 0.4810(2) 0.6592(2)
O8U O 0.2463(2) 0.4106(2) 0.5429(2)
O10C O 0.3271(2) 0.5333(2) 0.5680(2)
Co2Q Co 0.49374(4) 0.06081(4) 0.27581(4)
H5R H 0.4229 0.6468 0.5051
H6R H 0.4730 0.6583 0.4481
H5S H 0.5771 0.1468 -0.0051
H6S H 0.5270 0.1583 0.0519
H5C H 0.3532 0.4949 0.5771
H6C H 0.3417 0.5519 0.5270
O12 O 0.1320(3) 0.1320(3) 0.1320(3)
O13 O 0.2071(10) 0.3856(7) 0.3978(7)
O14 O 0.4097(9) 0.5436(8) -0.0809(7)
loop_
_geom_bond_atom_site_label_1
_geom_bond_atom_site_label_2
_geom_bond_site_symmetry_1
_geom_bond_site_symmetry_2
Co1 O1 1_555 1_555
Co2 O3 1_555 1_555
O1 C1 1_555 1_555
C1 H1 1_555 1_555
C2 C1 1_555 1_555
O2 Co1 1_555 1_555
O3 C2 1_555 1_555
C3 C1 1_555 1_555
H2 C3 1_555 1_555
C4 C3 1_555 1_555
O4 C4 1_555 1_555
O5 C4 1_555 1_555
C5 C3 1_555 1_555
H3 C5 1_555 1_555
C6 C5 1_555 1_555
O6 C6 1_555 1_555
O7 C6 1_555 1_555
C7 O1 1_555 1_555
H4 C7 1_555 1_555
C8 C7 1_555 1_555
O8 C8 1_555 1_555
O9 Co1 1_555 1_555
O10 Co1 1_555 1_555
H5 O10 1_555 1_555
H6 O10 1_555 1_555
O11 Co2 1_555 1_555
H7 O11 1_555 1_555
H8 O11 1_555 1_555
O1B C1B 1_555 1_555
C1B H1B 1_555 1_555
C2B C1B 1_555 1_555
O2B C2B 1_555 1_555
O3B C2B 1_555 1_555
C3B C1B 1_555 1_555
H2B C3B 1_555 1_555
C4B C3B 1_555 1_555
O4B C4B 1_555 1_555
O5B Co1 1_555 1_555
C5B C3B 1_555 1_555
H3B C5B 1_555 1_555
C6B C5B 1_555 1_555
O6B C6B 1_555 1_555
O7B C6B 1_555 1_555
C7B O1B 1_555 1_555
H4B C7B 1_555 1_555
C8B C7B 1_555 1_555
O8B C8B 1_555 1_555
O9B C8B 1_555 1_555
O1R C1R 1_555 1_555
C1R H1R 1_555 1_555
C2R C1R 1_555 1_555
O2R C2R 1_555 1_555
O3R C2R 1_555 1_555
C3R C1R 1_555 1_555
H2R C3R 1_555 1_555
C4R C3R 1_555 1_555
O4R Co2 1_555 1_555
O5R C4R 1_555 1_555
C5R C3R 1_555 1_555
H3R C5R 1_555 1_555
C6R C5R 1_555 1_555
O6R Co1 1_555 1_555
O7R C6R 1_555 1_555
C7R O1R 1_555 1_555
H4R C7R 1_555 1_555
C8R C7R 1_555 1_555
O8R C8R 1_555 1_555
O9R C8R 1_555 1_555
Co1B O1B 1_555 1_555
Co1R O1R 1_555 1_555
Co2B O3B 1_555 1_555
Co2R O3R 1_555 1_555
O10V Co2 1_555 1_555
H5V O10V 1_555 1_555
H6V O10V 1_555 1_555
O10B Co1B 1_555 1_555
H5B O10B 1_555 1_555
H6B O10B 1_555 1_555
O11B Co2B 1_555 1_555
H7B O11B 1_555 1_555
H8B O11B 1_555 1_555
O11R Co2R 1_555 1_555
H7R O11R 1_555 1_555
H8R O11R 1_555 1_555
O7D Co2 1_555 1_555
O8H Co2 1_555 1_555
Co2W O4 1_555 1_555
Co1A O5 1_555 1_555
Co1W O6 1_555 1_555
Co2D O7 1_555 1_555
Co2J O8 1_555 1_555
Co2T O10 1_555 1_555
Co1T O6B 1_555 1_555
Co2G O8B 1_555 1_555
Co1V O5R 1_555 1_555
Co2O O8R 1_555 1_555
O5A Co1B 1_555 1_555
O6O Co1B 1_555 1_555
O5Q Co1R 1_555 1_555
O6K Co1R 1_555 1_555
O10R Co1R 1_555 1_555
O4O Co2B 1_555 1_555
O7J Co2B 1_555 1_555
O8E Co2B 1_555 1_555
O10S Co2B 1_555 1_555
O4K Co2R 1_555 1_555
O7T Co2R 1_555 1_555
O8U Co2R 1_555 1_555
O10C Co2R 1_555 1_555
Co2Q O10B 1_555 1_555
H5R O10R 1_555 1_555
H6R O10R 1_555 1_555
H5S O10S 1_555 1_555
H6S O10S 1_555 1_555
H5C O10C 1_555 1_555
H6C O10C 1_555 1_555
C2 O2 1_555 1_555
C5 C7 1_555 1_555
C8 O9 1_555 1_555
O2B Co1B 1_555 1_555
C4B O5B 1_555 1_555
O4B Co2T 1_555 1_555
C5B C7B 1_555 1_555
O7B Co2J 1_555 1_555
O9B Co1B 1_555 1_555
O2R Co1R 1_555 1_555
C4R O4R 1_555 1_555
C5R C7R 1_555 1_555
C6R O6R 1_555 1_555
O7R Co2T 1_555 1_555
O9R Co1R 1_555 1_555
O10V Co1V 1_555 1_555

#END
