
#######################################################################
#
#                 Cambridge Crystallographic Data Centre
#                                CCDC 
#
#######################################################################
#
# If this CIF has been generated from an entry in the Cambridge 
# Structural Database, then it will include bibliographic, chemical, 
# crystal, experimental, refinement or atomic coordinate data resulting 
# from the CCDC's data processing and validation procedures.
#
#######################################################################

data_XAGKUM
_symmetry_cell_setting           triclinic
_symmetry_space_group_name_H-M   'P -1'
_symmetry_Int_Tables_number      2
_space_group_name_Hall           '-P 1'
loop_
_symmetry_equiv_pos_site_id
_symmetry_equiv_pos_as_xyz
1 x,y,z
2 -x,-y,-z
_cell_length_a                   10.4583(4)
_cell_length_b                   10.7926(5)
_cell_length_c                   12.4562(5)
_cell_angle_alpha                91.2960(10)
_cell_angle_beta                 109.4010(10)
_cell_angle_gamma                116.8980(10)
_cell_volume                     1157.4
loop_
_atom_site_label
_atom_site_type_symbol
_atom_site_fract_x
_atom_site_fract_y
_atom_site_fract_z
Mn1 Mn 0.71957(5) 0.66947(5) 0.43765(4)
Mn2 Mn 0.37062(5) 0.60615(5) 0.22391(4)
O1 O 0.5242(3) 0.4990(2) 0.2596(2)
O2 O 0.6095(3) 0.4306(2) 0.41944(19)
O3 O 0.4953(3) -0.0778(2) 0.3873(2)
O4 O 0.2987(3) -0.2377(2) 0.2303(2)
O5 O 0.7701(2) 0.6843(3) 0.61597(18)
O6 O 0.8126(3) 0.5552(3) 0.7458(2)
O7 O 1.2236(3) 1.1462(3) 0.6376(2)
O8 O 1.4348(3) 1.2341(2) 0.8027(2)
O9 O 0.5131(3) 0.6918(2) 0.42331(19)
H1 H 0.519(5) 0.776(3) 0.420(4)
H2 H 0.464(4) 0.658(5) 0.470(3)
N1 N 0.9386(3) 0.6968(4) 0.4328(3)
N2 N 1.1341(6) 0.6734(7) 0.4253(5)
H3 H 1.1872 0.6363 0.4139
N3 N 0.2595(3) 0.5125(3) 0.0370(2)
N4 N 0.2560(7) 0.4307(5) -0.1269(4)
H4 H 0.2869 0.4184 -0.1802
C1 C 0.4258(4) 0.2487(3) 0.2492(3)
C2 C 0.4441(4) 0.1426(3) 0.2999(3)
H5 H 0.5150 0.1650 0.3759
C3 C 0.3576(4) 0.0022(3) 0.2389(3)
C4 C 0.2498(4) -0.0296(4) 0.1261(3)
H6 H 0.1903 -0.1229 0.0845
C5 C 0.2306(5) 0.0765(4) 0.0755(3)
H7 H 0.1581 0.0542 0.0002
C6 C 0.3187(5) 0.2158(4) 0.1363(3)
H8 H 0.3063 0.2872 0.1016
C7 C 0.5238(4) 0.4002(3) 0.3136(3)
C8 C 0.3863(4) -0.1120(3) 0.2901(3)
C9 C 1.0287(4) 0.7657(3) 0.7519(3)
C10 C 1.0837(4) 0.8984(3) 0.7226(3)
H9 H 1.0147 0.9222 0.6712
C11 C 1.2413(4) 0.9953(3) 0.7699(3)
C12 C 1.3429(4) 0.9586(4) 0.8469(3)
H10 H 1.4484 1.0240 0.8800
C13 C 1.2896(4) 0.8264(4) 0.8748(3)
H11 H 1.3588 0.8020 0.9252
C14 C 1.1318(4) 0.7301(4) 0.8272(3)
H12 H 1.0952 0.6409 0.8461
C15 C 0.8580(4) 0.6618(3) 0.7002(3)
C16 C 1.3038(4) 1.1363(4) 0.7347(3)
C17 C 0.9822(5) 0.6025(5) 0.4090(4)
H13 H 0.9181 0.5047 0.3852
C18 C 1.1878(4) 0.8132(5) 0.4628(4)
H14 H 1.2888 0.8868 0.4832
C19 C 1.0687(4) 0.8230(5) 0.4644(3)
H15 H 1.0733 0.9086 0.4853
C20 C 0.3390(5) 0.5241(5) -0.0294(3)
H16 H 0.4427 0.5917 -0.0087
C21 C 0.1067(9) 0.3546(6) -0.1270(4)
H17 H 0.0193 0.2829 -0.1863
C22 C 0.1147(5) 0.4050(5) -0.0259(4)
H18 H 0.0323 0.3713 -0.0014
O7A O 0.7764(3) 0.8538(3) 0.3624(2)
O4_2 O 0.2987(3) 0.7623(2) 0.2303(2)
O6A O 0.1874(3) 0.4448(3) 0.2542(2)
O8A O 0.5652(3) 0.7659(2) 0.1973(2)
Mn2_2 Mn 0.37062(5) -0.39385(5) 0.22391(4)
Mn2A Mn 0.62938(5) 0.39385(5) 0.77609(4)
Mn1A Mn 1.28043(5) 1.33053(5) 0.56235(4)
Mn2A_2 Mn 1.62938(5) 1.39385(5) 0.77609(4)
loop_
_geom_bond_atom_site_label_1
_geom_bond_atom_site_label_2
_geom_bond_site_symmetry_1
_geom_bond_site_symmetry_2
Mn1 O1 1_555 1_555
Mn2 O1 1_555 1_555
O1 C7 1_555 1_555
O2 Mn1 1_555 1_555
O3 C8 1_555 1_555
O4 C8 1_555 1_555
O5 Mn1 1_555 1_555
O6 C15 1_555 1_555
O7 C16 1_555 1_555
O8 C16 1_555 1_555
O9 Mn1 1_555 1_555
H1 O9 1_555 1_555
H2 O9 1_555 1_555
N1 Mn1 1_555 1_555
N2 H3 1_555 1_555
N3 Mn2 1_555 1_555
N4 H4 1_555 1_555
C1 C2 1_555 1_555
C2 H5 1_555 1_555
C3 C2 1_555 1_555
C4 C3 1_555 1_555
H6 C4 1_555 1_555
C5 C4 1_555 1_555
H7 C5 1_555 1_555
C6 C1 1_555 1_555
H8 C6 1_555 1_555
C7 O2 1_555 1_555
C8 C3 1_555 1_555
C9 C10 1_555 1_555
C10 H9 1_555 1_555
C11 C10 1_555 1_555
C12 C11 1_555 1_555
H10 C12 1_555 1_555
C13 C12 1_555 1_555
H11 C13 1_555 1_555
C14 C9 1_555 1_555
H12 C14 1_555 1_555
C15 O5 1_555 1_555
C16 C11 1_555 1_555
C17 N1 1_555 1_555
H13 C17 1_555 1_555
C18 N2 1_555 1_555
H14 C18 1_555 1_555
C19 N1 1_555 1_555
H15 C19 1_555 1_555
C20 N3 1_555 1_555
H16 C20 1_555 1_555
C21 N4 1_555 1_555
H17 C21 1_555 1_555
C22 N3 1_555 1_555
H18 C22 1_555 1_555
O7A Mn1 1_555 1_555
O4_2 Mn2 1_555 1_555
O6A Mn2 1_555 1_555
O8A Mn2 1_555 1_555
Mn2_2 O4 1_555 1_555
Mn2A O6 1_555 1_555
Mn1A O7 1_555 1_555
Mn2A_2 O8 1_555 1_555
Mn2 O9 1_555 1_555
N2 C17 1_555 1_555
N4 C20 1_555 1_555
C1 C7 1_555 1_555
C5 C6 1_555 1_555
C9 C15 1_555 1_555
C13 C14 1_555 1_555
C18 C19 1_555 1_555
C21 C22 1_555 1_555

#END
