
#######################################################################
#
#                 Cambridge Crystallographic Data Centre
#                                CCDC 
#
#######################################################################
#
# If this CIF has been generated from an entry in the Cambridge 
# Structural Database, then it will include bibliographic, chemical, 
# crystal, experimental, refinement or atomic coordinate data resulting 
# from the CCDC's data processing and validation procedures.
#
#######################################################################

data_XAGLAT
_symmetry_cell_setting           triclinic
_symmetry_space_group_name_H-M   'P -1'
_symmetry_Int_Tables_number      2
_space_group_name_Hall           '-P 1'
loop_
_symmetry_equiv_pos_site_id
_symmetry_equiv_pos_as_xyz
1 x,y,z
2 -x,-y,-z
_cell_length_a                   8.5166(3)
_cell_length_b                   9.2897(3)
_cell_length_c                   10.2230(3)
_cell_angle_alpha                73.463(2)
_cell_angle_beta                 74.5410(10)
_cell_angle_gamma                79.7820(10)
_cell_volume                     742.778
loop_
_atom_site_label
_atom_site_type_symbol
_atom_site_fract_x
_atom_site_fract_y
_atom_site_fract_z
Mn1 Mn 0.46090(6) 1.14708(5) 0.64813(5)
N1 N 0.2569(4) 1.0007(3) 0.7386(3)
N2 N 0.0625(5) 0.8686(5) 0.7449(5)
H1 H -0.0002 0.8263 0.7171
N3 N 0.6901(4) 1.2632(3) 0.5643(3)
N4 N 0.8798(6) 1.4090(5) 0.4299(5)
H2 H 0.9266 1.4794 0.3640
O1 O 0.3403(4) 1.3494(3) 0.7482(3)
O2 O 0.4638(4) 1.1432(3) 0.8618(2)
O3 O 0.3967(3) 1.2521(3) 1.4537(2)
O4 O 0.3733(3) 1.0521(3) 1.3853(2)
C1 C 0.3486(4) 1.3326(4) 0.9849(3)
C2 C 0.2919(5) 1.4833(4) 0.9774(4)
H3 H 0.2683 1.5464 0.8947
C3 C 0.2702(5) 1.5402(4) 1.0934(4)
H4 H 0.2346 1.6420 1.0877
C4 C 0.3013(5) 1.4464(4) 1.2173(4)
H5 H 0.2882 1.4853 1.2943
C5 C 0.3521(4) 1.2941(4) 1.2272(3)
C6 C 0.3760(4) 1.2373(4) 1.1105(3)
H6 H 0.4105 1.1353 1.1166
C7 C 0.3859(4) 1.2721(4) 0.8576(3)
C8 C 0.3776(4) 1.1919(4) 1.3640(3)
C9 C 0.1800(4) 0.9514(4) 0.6638(3)
H7 H 0.2062 0.9728 0.5665
C10 C 0.0585(5) 0.8624(5) 0.8814(5)
H8 H -0.0119 0.8135 0.9620
C11 C 0.1829(5) 0.9451(5) 0.8722(4)
H9 H 0.2112 0.9600 0.9488
C12 C 0.7267(4) 1.3800(3) 0.4530(3)
H10 H 0.6534 1.4341 0.3987
C13 C 0.9502(5) 1.3067(5) 0.5295(5)
H11 H 1.0567 1.2983 0.5403
C14 C 0.8275(5) 1.2192(4) 0.6099(4)
H12 H 0.8393 1.1391 0.6869
O3_2 O 0.3967(3) 1.2521(3) 0.4537(2)
O4A O 0.6267(3) 0.9479(3) 0.6147(2)
Mn1_2 Mn 0.46090(6) 1.14708(5) 1.64813(5)
Mn1A Mn 0.53910(6) 0.85292(5) 1.35187(5)
loop_
_geom_bond_atom_site_label_1
_geom_bond_atom_site_label_2
_geom_bond_site_symmetry_1
_geom_bond_site_symmetry_2
Mn1 N1 1_555 1_555
N1 C9 1_555 1_555
N2 H1 1_555 1_555
N3 Mn1 1_555 1_555
N4 H2 1_555 1_555
O1 Mn1 1_555 1_555
O2 Mn1 1_555 1_555
O3 C8 1_555 1_555
O4 C8 1_555 1_555
C1 C2 1_555 1_555
C2 H3 1_555 1_555
C3 C2 1_555 1_555
H4 C3 1_555 1_555
C4 C3 1_555 1_555
H5 C4 1_555 1_555
C5 C4 1_555 1_555
C6 C1 1_555 1_555
H6 C6 1_555 1_555
C7 O1 1_555 1_555
C8 C5 1_555 1_555
C9 N2 1_555 1_555
H7 C9 1_555 1_555
C10 N2 1_555 1_555
H8 C10 1_555 1_555
C11 N1 1_555 1_555
H9 C11 1_555 1_555
C12 N3 1_555 1_555
H10 C12 1_555 1_555
C13 N4 1_555 1_555
H11 C13 1_555 1_555
C14 N3 1_555 1_555
H12 C14 1_555 1_555
O3_2 Mn1 1_555 1_555
O4A Mn1 1_555 1_555
Mn1_2 O3 1_555 1_555
Mn1A O4 1_555 1_555
N4 C12 1_555 1_555
O2 C7 1_555 1_555
C1 C7 1_555 1_555
C5 C6 1_555 1_555
C10 C11 1_555 1_555
C13 C14 1_555 1_555

#END
