
#######################################################################
#
#                 Cambridge Crystallographic Data Centre
#                                CCDC 
#
#######################################################################
#
# If this CIF has been generated from an entry in the Cambridge 
# Structural Database, then it will include bibliographic, chemical, 
# crystal, experimental, refinement or atomic coordinate data resulting 
# from the CCDC's data processing and validation procedures.
#
#######################################################################

data_XAGNAV
_symmetry_cell_setting           monoclinic
_symmetry_space_group_name_H-M   'P 21/c'
_symmetry_Int_Tables_number      14
_space_group_name_Hall           '-P 2ybc'
loop_
_symmetry_equiv_pos_site_id
_symmetry_equiv_pos_as_xyz
1 x,y,z
2 -x,1/2+y,1/2-z
3 -x,-y,-z
4 x,1/2-y,1/2+z
_cell_length_a                   8.849(9)
_cell_length_b                   5.391(5)
_cell_length_c                   19.733(19)
_cell_angle_alpha                90
_cell_angle_beta                 98.467(13)
_cell_angle_gamma                90
_cell_volume                     931.102
loop_
_atom_site_label
_atom_site_type_symbol
_atom_site_fract_x
_atom_site_fract_y
_atom_site_fract_z
Zn1 Zn 0.48226(4) 0.21893(6) 0.802649(15)
N1 N 0.2769(3) 0.2693(4) 0.83802(12)
N2 N 0.3681(3) 0.5759(6) 0.91524(15)
O1 O 0.6225(2) -0.0122(4) 0.85845(10)
O2 O 0.6405(3) 0.2603(4) 0.94230(12)
O3 O 0.4309(2) 0.0307(4) 0.71851(10)
C1 C 0.2495(3) 0.4466(6) 0.88283(14)
C2 C 0.0990(4) 0.4946(7) 0.89442(18)
C3 C -0.0182(4) 0.3576(8) 0.8619(2)
C4 C 0.0110(4) 0.1685(8) 0.8184(2)
C5 C 0.1571(4) 0.1338(7) 0.80758(18)
C6 C 0.6699(3) 0.0574(5) 0.91947(15)
C7 C 0.7724(7) -0.1196(9) 0.9635(3)
H1 H 0.4589(19) 0.513(6) 0.9166(16)
H2 H 0.357(4) 0.634(6) 0.9556(9)
H3 H 0.419(5) 0.156(5) 0.6905(16)
H4 H 0.084(4) 0.622(9) 0.927(2)
H5 H -0.110(4) 0.389(7) 0.8690(16)
H6 H -0.065(4) 0.084(8) 0.7994(17)
H7 H 0.176(4) 0.015(7) 0.7799(17)
H8 H 0.753(5) -0.289(9) 0.954(2)
H9 H 0.791(5) -0.102(9) 1.007(2)
H10 H 0.873(9) -0.077(14) 0.958(4)
O3A O 0.5691(2) 0.5307(4) 0.78149(10)
Zn1A Zn 0.51774(4) -0.28107(6) 0.697351(15)
H3A H 0.581(5) 0.656(5) 0.8095(16)
loop_
_geom_bond_atom_site_label_1
_geom_bond_atom_site_label_2
_geom_bond_site_symmetry_1
_geom_bond_site_symmetry_2
Zn1 N1 1_555 1_555
N1 C1 1_555 1_555
N2 C1 1_555 1_555
O1 Zn1 1_555 1_555
O2 C6 1_555 1_555
O3 Zn1 1_555 1_555
C1 C2 1_555 1_555
C2 C3 1_555 1_555
C3 C4 1_555 1_555
C4 C5 1_555 1_555
C5 N1 1_555 1_555
C6 O1 1_555 1_555
C7 C6 1_555 1_555
H1 N2 1_555 1_555
H2 N2 1_555 1_555
H3 O3 1_555 1_555
H4 C2 1_555 1_555
H5 C3 1_555 1_555
H6 C4 1_555 1_555
H7 C5 1_555 1_555
H8 C7 1_555 1_555
H9 C7 1_555 1_555
H10 C7 1_555 1_555
O3A Zn1 1_555 1_555
Zn1A O3 1_555 1_555
H3A O3A 1_555 1_555

#END
