
#######################################################################
#
#                 Cambridge Crystallographic Data Centre
#                                CCDC 
#
#######################################################################
#
# If this CIF has been generated from an entry in the Cambridge 
# Structural Database, then it will include bibliographic, chemical, 
# crystal, experimental, refinement or atomic coordinate data resulting 
# from the CCDC's data processing and validation procedures.
#
#######################################################################

data_XAGQED
_symmetry_cell_setting           triclinic
_symmetry_space_group_name_H-M   'P -1'
_symmetry_Int_Tables_number      2
_space_group_name_Hall           '-P 1'
loop_
_symmetry_equiv_pos_site_id
_symmetry_equiv_pos_as_xyz
1 x,y,z
2 -x,-y,-z
_cell_length_a                   6.9596(9)
_cell_length_b                   8.2468(11)
_cell_length_c                   13.2496(18)
_cell_angle_alpha                87.769(3)
_cell_angle_beta                 82.874(2)
_cell_angle_gamma                69.443(2)
_cell_volume                     706.521
loop_
_atom_site_label
_atom_site_type_symbol
_atom_site_fract_x
_atom_site_fract_y
_atom_site_fract_z
C1 C 0.2305(7) 0.5637(5) 0.1795(3)
C2 C 0.3091(7) 0.4522(6) 0.2693(3)
H1 H 0.2198 0.5005 0.3311
H2 H 0.3086 0.3362 0.2600
C3 C 0.6005(7) 0.3709(6) 0.3621(3)
C4 C 0.7951(7) 0.3802(7) 0.3669(4)
H3 H 0.8537 0.4342 0.3154
C5 C 0.8985(7) 0.3098(7) 0.4475(4)
H4 H 1.0285 0.3162 0.4502
C6 C 0.8153(7) 0.2282(6) 0.5262(3)
C7 C 0.9179(7) 0.1541(7) 0.6115(4)
H5 H 1.0484 0.1583 0.6157
C8 C 0.8320(7) 0.0774(6) 0.6871(3)
H6 H 0.9053 0.0256 0.7409
C9 C 0.6334(6) 0.0764(6) 0.6837(3)
C10 C 0.5284(7) 0.1435(6) 0.6024(3)
H7 H 0.3974 0.1389 0.6002
C11 C 0.6184(6) 0.2199(6) 0.5218(3)
C12 C 0.5131(7) 0.2916(6) 0.4369(3)
H8 H 0.3840 0.2846 0.4321
C13 C 0.3441(6) 0.0318(6) 0.7773(3)
H9 H 0.3080 -0.0106 0.7178
H10 H 0.2691 0.1554 0.7829
C14 C 0.2839(7) -0.0567(6) 0.8702(3)
Cd1 Cd 0.11843(4) 0.76672(4) 0.01526(2)
O1 O 0.0470(5) 0.5946(4) 0.1662(2)
O2 O 0.3482(5) 0.6225(4) 0.1235(2)
O3 O 0.5114(5) 0.4456(5) 0.2775(2)
O4 O 0.5584(4) -0.0001(4) 0.7663(2)
O5 O 0.4091(5) -0.1642(4) 0.9185(3)
O6 O 0.0871(4) -0.0200(4) 0.8929(2)
O7 O -0.1919(6) 0.7646(5) -0.0262(3)
H11 H -0.2703 0.8556 0.0061
H12 H -0.2238 0.7962 -0.0855
O8 O 0.2352(5) 0.5158(4) -0.0807(2)
H13 H 0.1119 0.5236 -0.0863
H14 H 0.2624 0.5199 -0.1449
Cd1_2 Cd 0.11843(4) -0.23328(4) 1.01526(2)
Cd1A Cd -0.11843(4) 0.23328(4) 0.98474(2)
O5_2 O 0.4091(5) 0.8358(4) -0.0815(3)
O6A O -0.0871(4) 1.0200(4) 0.1071(2)
O6_2 O 0.0871(4) 0.9800(4) -0.1071(2)
loop_
_geom_bond_atom_site_label_1
_geom_bond_atom_site_label_2
_geom_bond_site_symmetry_1
_geom_bond_site_symmetry_2
C1 C2 1_555 1_555
C2 H1 1_555 1_555
H2 C2 1_555 1_555
C3 C4 1_555 1_555
C4 H3 1_555 1_555
C5 C4 1_555 1_555
H4 C5 1_555 1_555
C6 C5 1_555 1_555
C7 C6 1_555 1_555
H5 C7 1_555 1_555
C8 C7 1_555 1_555
H6 C8 1_555 1_555
C9 C8 1_555 1_555
C10 C9 1_555 1_555
H7 C10 1_555 1_555
C11 C6 1_555 1_555
C12 C3 1_555 1_555
H8 C12 1_555 1_555
C13 H9 1_555 1_555
H10 C13 1_555 1_555
C14 C13 1_555 1_555
Cd1 O1 1_555 1_555
O1 C1 1_555 1_555
O2 C1 1_555 1_555
O3 C2 1_555 1_555
O4 C9 1_555 1_555
O5 C14 1_555 1_555
O6 C14 1_555 1_555
O7 Cd1 1_555 1_555
H11 O7 1_555 1_555
H12 O7 1_555 1_555
O8 Cd1 1_555 1_555
H13 O8 1_555 1_555
H14 O8 1_555 1_555
Cd1_2 O5 1_555 1_555
Cd1A O6 1_555 1_555
O5_2 Cd1 1_555 1_555
O6A Cd1 1_555 1_555
O6_2 Cd1 1_555 1_555
C3 O3 1_555 1_555
C10 C11 1_555 1_555
C11 C12 1_555 1_555
C13 O4 1_555 1_555
Cd1 O2 1_555 1_555
O6 Cd1_2 1_555 1_555

#END
