
#######################################################################
#
#                 Cambridge Crystallographic Data Centre
#                                CCDC 
#
#######################################################################
#
# If this CIF has been generated from an entry in the Cambridge 
# Structural Database, then it will include bibliographic, chemical, 
# crystal, experimental, refinement or atomic coordinate data resulting 
# from the CCDC's data processing and validation procedures.
#
#######################################################################

data_XAGQIH
_symmetry_cell_setting           triclinic
_symmetry_space_group_name_H-M   'P -1'
_symmetry_Int_Tables_number      2
_space_group_name_Hall           '-P 1'
loop_
_symmetry_equiv_pos_site_id
_symmetry_equiv_pos_as_xyz
1 x,y,z
2 -x,-y,-z
_cell_length_a                   4.6809(9)
_cell_length_b                   5.7625(11)
_cell_length_c                   26.781(5)
_cell_angle_alpha                87.236(4)
_cell_angle_beta                 89.406(3)
_cell_angle_gamma                84.635(3)
_cell_volume                     718.369
loop_
_atom_site_label
_atom_site_type_symbol
_atom_site_fract_x
_atom_site_fract_y
_atom_site_fract_z
O1 O -1.2610(5) -0.1551(4) -0.04941(9)
O2 O -0.7376(5) -0.3077(4) 0.00148(9)
O3 O -1.0550(5) 0.4335(4) -0.09126(9)
C1 C -0.8425(7) 0.2863(5) -0.09387(12)
O4 O -0.7663(5) 0.1271(4) -0.06155(8)
Co1 Co -1.0000 0.0000 0.0000
Co2 Co -0.5000 1.0000 -0.5000
C2 C 0.0897(7) 0.0176(6) -0.26546(13)
C3 C -0.2947(7) 0.0882(6) -0.18601(12)
C4 C -0.6628(7) 0.3051(6) -0.14123(12)
C5 C 0.0139(7) 0.8601(5) -0.43285(12)
H1 H -0.2660 0.6430 -0.4005
H2 H -0.1154 0.7832 -0.3610
C6 C -0.0860(7) 0.6992(6) -0.39146(13)
C7 C 0.0994(7) 0.3575(5) -0.34297(12)
C8 C 0.2927(7) 0.1556(5) -0.34335(13)
H3 H 0.4246 0.1355 -0.3693
C9 C 0.2862(7) -0.0095(6) -0.30575(13)
H4 H 0.4132 -0.1435 -0.3064
C10 C 0.0757(8) -0.1519(6) -0.22613(13)
H5 H 0.1971 -0.2891 -0.2266
C11 C -0.1127(8) -0.1190(6) -0.18728(13)
H6 H -0.1203 -0.2336 -0.1618
C12 C -0.2911(7) 0.2545(6) -0.22365(13)
H7 H -0.4154 0.3899 -0.2226
C13 C -0.0984(7) 0.2230(5) -0.26480(12)
C14 C -0.0936(7) 0.3905(6) -0.30480(12)
H8 H -0.2220 0.5239 -0.3052
H9 H -0.5565 0.4414 -0.1407
H10 H -0.7858 0.3208 -0.1702
O5 O -0.1613(4) 1.0295(4) -0.44706(8)
O6 O 0.2674(4) 0.8182(4) -0.44897(8)
O7 O 0.1255(5) 0.5089(4) -0.38353(9)
O8 O -0.4679(5) 0.1016(4) -0.14429(9)
H11 H -0.7330 -0.3672 0.0299
H12 H -0.5706 -0.2645 -0.0034
H13 H -1.3523 -0.0538 -0.0668
H14 H -1.1797 -0.2692 -0.0648
O9 O -0.2694(5) 0.6831(4) -0.51772(9)
H15 H -0.3448 0.6109 -0.5403
H16 H -0.1126 0.7223 -0.5303
O1A O -0.7390(5) 0.1551(4) 0.04941(9)
O2A O -1.2624(5) 0.3077(4) -0.00148(9)
O3A O 1.0550(5) 1.5665(4) -0.90874(9)
C1A C 0.8425(7) 1.7137(5) -0.90613(12)
O4A O -1.2337(5) -0.1271(4) 0.06155(8)
O4A_2 O 0.7663(5) 1.8729(4) -0.93845(8)
Co1_2 Co 1.0000 2.0000 -1.0000
Co2_2 Co 0.5000 1.0000 -0.5000
C2A C -0.0897(7) 1.9824(6) -0.73454(13)
C3A C 0.2947(7) 1.9118(6) -0.81399(12)
C4A C 0.6628(7) 1.6949(6) -0.85877(12)
C5A C -0.0139(7) 1.1399(5) -0.56715(12)
H1A H 0.2660 1.3570 -0.5995
H2A H 0.1154 1.2168 -0.6390
C6A C 0.0860(7) 1.3008(6) -0.60854(13)
C7A C -0.0994(7) 1.6425(5) -0.65703(12)
C8A C -0.2927(7) 1.8444(5) -0.65665(13)
H3A H -0.4246 1.8645 -0.6307
C9A C -0.2862(7) 2.0095(6) -0.69425(13)
H4A H -0.4132 2.1435 -0.6936
C10A C -0.0757(8) 2.1519(6) -0.77387(13)
H5A H -0.1971 2.2891 -0.7734
C11A C 0.1127(8) 2.1190(6) -0.81272(13)
H6A H 0.1203 2.2336 -0.8382
C12A C 0.2911(7) 1.7455(6) -0.77635(13)
H7A H 0.4154 1.6101 -0.7774
C13A C 0.0984(7) 1.7770(5) -0.73520(12)
C14A C 0.0936(7) 1.6095(6) -0.69520(12)
H8A H 0.2220 1.4761 -0.6948
H9A H 0.5565 1.5586 -0.8593
H10A H 0.7858 1.6792 -0.8298
O5A O -0.8387(4) 0.9705(4) -0.55294(8)
O5A_2 O 0.1613(4) 0.9705(4) -0.55294(8)
O6A O -0.2674(4) 1.1818(4) -0.55103(8)
O6_2 O -0.7326(4) 0.8182(4) -0.44897(8)
O7A O -0.1255(5) 1.4911(4) -0.61647(9)
O8A O 0.4679(5) 1.8984(4) -0.85571(9)
H11A H -1.2670 0.3672 -0.0299
H12A H -1.4294 0.2645 0.0034
H13A H -0.6477 0.0538 0.0668
H14A H -0.8203 0.2692 0.0648
O9A O -0.7306(5) 1.3169(4) -0.48228(9)
H15A H -0.6552 1.3891 -0.4597
H16A H -0.8874 1.2777 -0.4697
loop_
_geom_bond_atom_site_label_1
_geom_bond_atom_site_label_2
_geom_bond_site_symmetry_1
_geom_bond_site_symmetry_2
O1 Co1 1_555 1_555
O2 Co1 1_555 1_555
O3 C1 1_555 1_555
C1 O4 1_555 1_555
O4 Co1 1_555 1_555
Co1 O1A 1_555 1_555
Co2 O5 1_555 1_555
C2 C9 1_555 1_555
C3 C11 1_555 1_555
C4 C1 1_555 1_555
C5 C6 1_555 1_555
H1 C6 1_555 1_555
H2 C6 1_555 1_555
C6 O7 1_555 1_555
C7 C8 1_555 1_555
C8 H3 1_555 1_555
C9 C8 1_555 1_555
H4 C9 1_555 1_555
C10 C2 1_555 1_555
H5 C10 1_555 1_555
C11 C10 1_555 1_555
H6 C11 1_555 1_555
C12 C3 1_555 1_555
H7 C12 1_555 1_555
C13 C2 1_555 1_555
C14 C7 1_555 1_555
H8 C14 1_555 1_555
H9 C4 1_555 1_555
H10 C4 1_555 1_555
O5 C5 1_555 1_555
O6 C5 1_555 1_555
O7 C7 1_555 1_555
O8 C3 1_555 1_555
H11 O2 1_555 1_555
H12 O2 1_555 1_555
H13 O1 1_555 1_555
H14 O1 1_555 1_555
O9 Co2 1_555 1_555
H15 O9 1_555 1_555
H16 O9 1_555 1_555
O1A H13A 1_555 1_555
O2A Co1 1_555 1_555
O3A C1A 1_555 1_555
C1A O4A_2 1_555 1_555
O4A Co1 1_555 1_555
O4A_2 Co1_2 1_555 1_555
Co2_2 O6 1_555 1_555
C2A C9A 1_555 1_555
C3A C11A 1_555 1_555
C4A C1A 1_555 1_555
C5A C6A 1_555 1_555
H1A C6A 1_555 1_555
H2A C6A 1_555 1_555
C6A O7A 1_555 1_555
C7A C8A 1_555 1_555
C8A H3A 1_555 1_555
C9A C8A 1_555 1_555
H4A C9A 1_555 1_555
C10A C2A 1_555 1_555
H5A C10A 1_555 1_555
C11A C10A 1_555 1_555
H6A C11A 1_555 1_555
C12A C3A 1_555 1_555
H7A C12A 1_555 1_555
C13A C2A 1_555 1_555
C14A C7A 1_555 1_555
H8A C14A 1_555 1_555
H9A C4A 1_555 1_555
H10A C4A 1_555 1_555
O5A Co2 1_555 1_555
O5A_2 Co2_2 1_555 1_555
O6A Co2 1_555 1_555
O6_2 Co2 1_555 1_555
O7A C7A 1_555 1_555
O8A C3A 1_555 1_555
H11A O2A 1_555 1_555
H12A O2A 1_555 1_555
H14A O1A 1_555 1_555
O9A Co2 1_555 1_555
H15A O9A 1_555 1_555
H16A O9A 1_555 1_555
C4 O8 1_555 1_555
C12 C13 1_555 1_555
C13 C14 1_555 1_555
C4A O8A 1_555 1_555
C5A O5A_2 1_555 1_555
C5A O6A 1_555 1_555
C12A C13A 1_555 1_555
C13A C14A 1_555 1_555

#END
