
#######################################################################
#
#                 Cambridge Crystallographic Data Centre
#                                CCDC 
#
#######################################################################
#
# If this CIF has been generated from an entry in the Cambridge 
# Structural Database, then it will include bibliographic, chemical, 
# crystal, experimental, refinement or atomic coordinate data resulting 
# from the CCDC's data processing and validation procedures.
#
#######################################################################

data_XAGQAZ
_symmetry_cell_setting           triclinic
_symmetry_space_group_name_H-M   'P -1'
_symmetry_Int_Tables_number      2
_space_group_name_Hall           '-P 1'
loop_
_symmetry_equiv_pos_site_id
_symmetry_equiv_pos_as_xyz
1 x,y,z
2 -x,-y,-z
_cell_length_a                   7.285(2)
_cell_length_b                   7.587(2)
_cell_length_c                   12.792(4)
_cell_angle_alpha                91.046(5)
_cell_angle_beta                 97.523(5)
_cell_angle_gamma                95.694(5)
_cell_volume                     697.136
loop_
_atom_site_label
_atom_site_type_symbol
_atom_site_fract_x
_atom_site_fract_y
_atom_site_fract_z
C1 C 0.6860(5) 0.5162(5) 0.1638(3)
C2 C 0.7863(4) 0.5767(5) 0.2708(3)
H1 H 0.7643 0.6982 0.2854
H2 H 0.7383 0.5033 0.3244
C3 C 1.0895(5) 0.6338(4) 0.3650(3)
C4 C 1.0239(5) 0.7028(4) 0.4491(3)
H3 H 0.8964 0.7043 0.4487
C5 C 1.1482(5) 0.7730(4) 0.5378(3)
C6 C 1.0820(4) 0.8427(4) 0.6274(3)
H4 H 0.9546 0.8401 0.6293
C7 C 1.2034(5) 0.9134(4) 0.7105(3)
C8 C 1.3959(5) 0.9156(5) 0.7096(3)
H5 H 1.4783 0.9647 0.7667
C9 C 1.4613(5) 0.8462(6) 0.6253(3)
H6 H 1.5892 0.8466 0.6259
C10 C 1.3405(5) 0.7731(5) 0.5364(3)
C11 C 1.4026(5) 0.6993(6) 0.4471(3)
H7 H 1.5298 0.6979 0.4455
C12 C 1.2819(5) 0.6304(5) 0.3635(3)
H8 H 1.3257 0.5812 0.3056
C13 C 0.9613(5) 0.9984(5) 0.8028(3)
H9 H 0.9012 0.8817 0.8142
H10 H 0.9045 1.0387 0.7358
C14 C 0.9343(5) 1.1248(4) 0.8903(3)
O1 O 0.5267(3) 0.5598(4) 0.1455(2)
O2 O 0.7659(3) 0.4271(3) 0.10420(18)
O3 O 0.9802(3) 0.5655(3) 0.27473(18)
O4 O 1.1544(3) 0.9885(3) 0.79989(19)
O5 O 0.7654(3) 1.1496(3) 0.8921(2)
O6 O 1.0687(3) 1.1956(3) 0.94968(19)
O7 O 0.1563(3) 0.4524(3) 0.09868(19)
H11 H 0.1697 0.3693 0.0557
H12 H 0.0394 0.4553 0.0839
O8 O 0.5526(4) 0.8244(4) -0.0050(2)
H13 H 0.6434 0.9352 -0.0059
H14 H 0.6619 0.7922 0.0014
Zn1 Zn 0.33313(5) 0.65072(5) 0.04337(3)
O2A O 0.2341(3) 0.5729(3) -0.10420(18)
O5A O 0.2346(3) 0.8504(3) 0.1079(2)
Zn1A Zn 0.66687(5) 0.34928(5) -0.04337(3)
Zn1A_2 Zn 0.66687(5) 1.34928(5) 0.95663(3)
loop_
_geom_bond_atom_site_label_1
_geom_bond_atom_site_label_2
_geom_bond_site_symmetry_1
_geom_bond_site_symmetry_2
C1 C2 1_555 1_555
C2 H1 1_555 1_555
H2 C2 1_555 1_555
C3 C4 1_555 1_555
C4 H3 1_555 1_555
C5 C4 1_555 1_555
C6 C5 1_555 1_555
H4 C6 1_555 1_555
C7 C6 1_555 1_555
C8 C7 1_555 1_555
H5 C8 1_555 1_555
C9 C8 1_555 1_555
H6 C9 1_555 1_555
C10 C5 1_555 1_555
C11 C10 1_555 1_555
H7 C11 1_555 1_555
C12 C3 1_555 1_555
H8 C12 1_555 1_555
C13 H9 1_555 1_555
H10 C13 1_555 1_555
C14 C13 1_555 1_555
O1 C1 1_555 1_555
O2 C1 1_555 1_555
O3 C2 1_555 1_555
O4 C7 1_555 1_555
O5 C14 1_555 1_555
O6 C14 1_555 1_555
O7 H11 1_555 1_555
H12 O7 1_555 1_555
O8 H13 1_555 1_555
H14 O8 1_555 1_555
Zn1 O1 1_555 1_555
O2A Zn1 1_555 1_555
O5A Zn1 1_555 1_555
Zn1A O2 1_555 1_555
Zn1A_2 O5 1_555 1_555
C3 O3 1_555 1_555
C9 C10 1_555 1_555
C11 C12 1_555 1_555
C13 O4 1_555 1_555
O7 Zn1 1_555 1_555
O8 Zn1 1_555 1_555

#END
