
#######################################################################
#
#                 Cambridge Crystallographic Data Centre
#                                CCDC 
#
#######################################################################
#
# If this CIF has been generated from an entry in the Cambridge 
# Structural Database, then it will include bibliographic, chemical, 
# crystal, experimental, refinement or atomic coordinate data resulting 
# from the CCDC's data processing and validation procedures.
#
#######################################################################

data_XAGQUT
_symmetry_cell_setting           monoclinic
_symmetry_space_group_name_H-M   'P 21/c'
_symmetry_Int_Tables_number      14
_space_group_name_Hall           '-P 2ybc'
loop_
_symmetry_equiv_pos_site_id
_symmetry_equiv_pos_as_xyz
1 x,y,z
2 -x,1/2+y,1/2-z
3 -x,-y,-z
4 x,1/2-y,1/2+z
_cell_length_a                   14.6870(16)
_cell_length_b                   7.6577(8)
_cell_length_c                   12.9674(14)
_cell_angle_alpha                90
_cell_angle_beta                 92.456(2)
_cell_angle_gamma                90
_cell_volume                     1457.09
loop_
_atom_site_label
_atom_site_type_symbol
_atom_site_fract_x
_atom_site_fract_y
_atom_site_fract_z
C1 C 0.8340(4) -0.4246(7) 0.1663(4)
C2 C 0.7356(4) -0.4618(7) 0.1406(5)
H1 H 0.6984 -0.4104 0.1927
H2 H 0.7180 -0.4096 0.0746
C3 C 0.6322(4) -0.7038(8) 0.1305(5)
C4 C 0.6230(5) -0.8856(8) 0.1258(5)
H3 H 0.6746 -0.9562 0.1255
C5 C 0.5387(4) -0.9586(8) 0.1216(5)
H4 H 0.5335 -1.0796 0.1196
C6 C 0.4586(4) -0.8563(8) 0.1203(5)
C7 C 0.4688(4) -0.6717(8) 0.1248(5)
C8 C 0.5571(4) -0.5995(7) 0.1290(5)
H5 H 0.5642 -0.4789 0.1309
C9 C 0.3896(4) -0.5681(7) 0.1258(5)
H6 H 0.3951 -0.4472 0.1287
C10 C 0.3055(4) -0.6411(8) 0.1226(5)
C11 C 0.2950(4) -0.8242(8) 0.1130(5)
H7 H 0.2371 -0.8735 0.1065
C12 C 0.3700(4) -0.9264(8) 0.1135(5)
H8 H 0.3628 -1.0469 0.1093
C13 C 0.2313(4) -0.3692(8) 0.1295(5)
H9 H 0.2562 -0.3260 0.0663
H10 H 0.2724 -0.3354 0.1866
C14 C 0.1390(4) -0.2885(7) 0.1432(4)
N1 N 0.0420(4) 0.2678(7) 0.0617(4)
O1 O 0.8503(3) -0.2643(5) 0.1732(3)
O2 O 0.8911(3) -0.5443(5) 0.1789(3)
O3 O 0.7203(3) -0.6450(5) 0.1362(4)
O4 O 0.2252(3) -0.5521(5) 0.1252(4)
O5 O 0.1312(3) -0.1351(5) 0.1142(3)
O6 O 0.0764(3) -0.3696(5) 0.1845(3)
O7 O -0.1425(3) 0.0889(5) 0.1068(3)
H11 H -0.1409 0.0465 0.0463
H12 H -0.1317 0.1953 0.0933
O8 O 0.0391(3) 0.1672(6) -0.0118(3)
O9 O 0.0364(3) 0.2190(5) 0.1559(3)
Sm1 Sm -0.020500(18) -0.08405(3) 0.19193(2)
O1_2 O -0.1497(3) -0.2643(5) 0.1732(3)
O2A O 0.1089(3) -0.0443(5) 0.3211(3)
O6A O -0.0764(3) 0.1304(5) 0.3155(3)
O8B O -0.0391(3) -0.1672(6) 0.0118(3)
O9A O -0.0364(3) -0.2810(5) 0.3441(3)
Sm1_2 Sm 0.979500(18) -0.08405(3) 0.19193(2)
Sm1A Sm 0.020500(18) 0.41595(3) 0.30807(2)
Sm1A_2 Sm 0.020500(18) -0.58405(3) 0.30807(2)
Sm1B Sm 0.020500(18) 0.08405(3) -0.19193(2)
Sm1A_3 Sm 1.020500(18) -0.58405(3) 0.30807(2)
loop_
_geom_bond_atom_site_label_1
_geom_bond_atom_site_label_2
_geom_bond_site_symmetry_1
_geom_bond_site_symmetry_2
C1 C2 1_555 1_555
C2 H1 1_555 1_555
H2 C2 1_555 1_555
C3 C4 1_555 1_555
C4 H3 1_555 1_555
C5 C4 1_555 1_555
H4 C5 1_555 1_555
C6 C5 1_555 1_555
C7 C6 1_555 1_555
C8 C3 1_555 1_555
H5 C8 1_555 1_555
C9 C7 1_555 1_555
H6 C9 1_555 1_555
C10 C9 1_555 1_555
C11 C10 1_555 1_555
H7 C11 1_555 1_555
C12 C6 1_555 1_555
H8 C12 1_555 1_555
C13 H9 1_555 1_555
H10 C13 1_555 1_555
C14 C13 1_555 1_555
N1 O8 1_555 1_555
O1 C1 1_555 1_555
O2 C1 1_555 1_555
O3 C2 1_555 1_555
O4 C10 1_555 1_555
O5 C14 1_555 1_555
O6 C14 1_555 1_555
O7 H11 1_555 1_555
H12 O7 1_555 1_555
O8 Sm1B 1_555 1_555
O9 N1 1_555 1_555
Sm1 O5 1_555 1_555
O1_2 Sm1 1_555 1_555
O2A Sm1 1_555 1_555
O6A Sm1 1_555 1_555
O8B Sm1 1_555 1_555
O9A Sm1 1_555 1_555
Sm1_2 O1 1_555 1_555
Sm1A O9 1_555 1_555
Sm1A_2 O6 1_555 1_555
Sm1A_3 O2 1_555 1_555
C3 O3 1_555 1_555
C7 C8 1_555 1_555
C11 C12 1_555 1_555
C13 O4 1_555 1_555
O6 Sm1 1_555 1_555
O7 Sm1 1_555 1_555
O9 Sm1 1_555 1_555
O6A Sm1A 1_555 1_555
O9A Sm1A_2 1_555 1_555

#END
