
#######################################################################
#
#                 Cambridge Crystallographic Data Centre
#                                CCDC 
#
#######################################################################
#
# If this CIF has been generated from an entry in the Cambridge 
# Structural Database, then it will include bibliographic, chemical, 
# crystal, experimental, refinement or atomic coordinate data resulting 
# from the CCDC's data processing and validation procedures.
#
#######################################################################

data_XAGQON
_symmetry_cell_setting           monoclinic
_symmetry_space_group_name_H-M   'P 21/c'
_symmetry_Int_Tables_number      14
_space_group_name_Hall           '-P 2ybc'
loop_
_symmetry_equiv_pos_site_id
_symmetry_equiv_pos_as_xyz
1 x,y,z
2 -x,1/2+y,1/2-z
3 -x,-y,-z
4 x,1/2-y,1/2+z
_cell_length_a                   14.702(2)
_cell_length_b                   7.6396(12)
_cell_length_c                   12.976(2)
_cell_angle_alpha                90
_cell_angle_beta                 92.489(3)
_cell_angle_gamma                90
_cell_volume                     1456.06
loop_
_atom_site_label
_atom_site_type_symbol
_atom_site_fract_x
_atom_site_fract_y
_atom_site_fract_z
O1 O -0.0359(3) 0.2170(6) -0.1556(3)
C1 C -0.1382(4) -0.2893(9) -0.1431(5)
C2 C -0.2305(5) -0.3703(9) -0.1292(6)
H1 H -0.2715 -0.3360 -0.1862
H2 H -0.2552 -0.3265 -0.0661
C3 C -0.3054(5) -0.6429(9) -0.1218(6)
C4 C -0.3890(5) -0.5689(10) -0.1254(6)
H3 H -0.3945 -0.4477 -0.1281
C5 C -0.4685(5) -0.6746(9) -0.1250(6)
C6 C -0.5563(5) -0.6006(10) -0.1287(6)
H4 H -0.5628 -0.4796 -0.1298
C7 C -0.6318(5) -0.7039(9) -0.1306(6)
C8 C -0.6232(5) -0.8867(9) -0.1269(6)
H5 H -0.6750 -0.9567 -0.1275
C9 C -0.5398(5) -0.9611(10) -0.1223(6)
H6 H -0.5349 -1.0825 -0.1209
C10 C -0.4594(5) -0.8580(9) -0.1197(6)
C11 C -0.3706(5) -0.9293(10) -0.1123(6)
H7 H -0.3636 -1.0500 -0.1072
C12 C -0.2954(5) -0.8268(10) -0.1124(6)
H8 H -0.2377 -0.8766 -0.1064
C13 C -0.7352(5) -0.4620(9) -0.1408(6)
H9 H -0.7177 -0.4095 -0.0748
H10 H -0.6979 -0.4107 -0.1928
C14 C -0.8352(4) -0.4238(10) -0.1672(5)
Eu1 Eu 0.02034(2) -0.08507(4) -0.19250(3)
N1 N -0.0434(5) 0.2681(10) -0.0606(5)
O2 O -0.2254(3) -0.5547(6) -0.1248(4)
O3 O -0.7199(3) -0.6456(7) -0.1361(4)
O4 O -0.1298(3) -0.1348(6) -0.1137(4)
O5 O -0.0759(3) -0.3713(6) -0.1851(4)
O6 O -0.8510(3) -0.2632(7) -0.1737(4)
O7 O -0.8915(3) -0.5449(6) -0.1793(4)
O8 O -0.0391(4) 0.1670(8) 0.0130(4)
O9 O 0.1407(3) 0.0886(6) -0.1064(3)
H11 H 0.1549 0.0663 -0.0436
H12 H 0.1840 0.1242 -0.1423
O1A O 0.0359(3) -0.2830(6) -0.3444(3)
Eu1A Eu -0.02034(2) 0.41493(4) -0.30750(3)
Eu1A_2 Eu -0.02034(2) -0.58507(4) -0.30750(3)
Eu1_2 Eu -0.97966(2) -0.08507(4) -0.19250(3)
Eu1A_3 Eu -1.02034(2) -0.58507(4) -0.30750(3)
Eu1B Eu -0.02034(2) 0.08507(4) 0.19250(3)
O5A O 0.0759(3) 0.1287(6) -0.3149(4)
O6_2 O 0.1490(3) -0.2632(7) -0.1737(4)
O7A O -0.1085(3) -0.0449(6) -0.3207(4)
O8B O 0.0391(4) -0.1670(8) -0.0130(4)
loop_
_geom_bond_atom_site_label_1
_geom_bond_atom_site_label_2
_geom_bond_site_symmetry_1
_geom_bond_site_symmetry_2
O1 Eu1 1_555 1_555
C1 C2 1_555 1_555
C2 H1 1_555 1_555
H2 C2 1_555 1_555
C3 C4 1_555 1_555
C4 H3 1_555 1_555
C5 C4 1_555 1_555
C6 C5 1_555 1_555
H4 C6 1_555 1_555
C7 C6 1_555 1_555
C8 C7 1_555 1_555
H5 C8 1_555 1_555
C9 C8 1_555 1_555
H6 C9 1_555 1_555
C10 C5 1_555 1_555
C11 C10 1_555 1_555
H7 C11 1_555 1_555
C12 C3 1_555 1_555
H8 C12 1_555 1_555
C13 H9 1_555 1_555
H10 C13 1_555 1_555
C14 C13 1_555 1_555
Eu1 O4 1_555 1_555
N1 O1 1_555 1_555
O2 C2 1_555 1_555
O3 C7 1_555 1_555
O4 C1 1_555 1_555
O5 C1 1_555 1_555
O6 C14 1_555 1_555
O7 C14 1_555 1_555
O8 N1 1_555 1_555
O9 Eu1 1_555 1_555
H11 O9 1_555 1_555
H12 O9 1_555 1_555
O1A Eu1 1_555 1_555
Eu1A O1 1_555 1_555
Eu1A_2 O5 1_555 1_555
Eu1_2 O6 1_555 1_555
Eu1A_3 O7 1_555 1_555
Eu1B O8 1_555 1_555
O5A Eu1 1_555 1_555
O6_2 Eu1 1_555 1_555
O7A Eu1 1_555 1_555
O8B Eu1 1_555 1_555
C3 O2 1_555 1_555
C9 C10 1_555 1_555
C11 C12 1_555 1_555
C13 O3 1_555 1_555
Eu1 O5 1_555 1_555
O1A Eu1A_2 1_555 1_555
Eu1A O5A 1_555 1_555

#END
