
#######################################################################
#
#                 Cambridge Crystallographic Data Centre
#                                CCDC 
#
#######################################################################
#
# If this CIF has been generated from an entry in the Cambridge 
# Structural Database, then it will include bibliographic, chemical, 
# crystal, experimental, refinement or atomic coordinate data resulting 
# from the CCDC's data processing and validation procedures.
#
#######################################################################

data_XAGQAZ01
_symmetry_cell_setting           triclinic
_symmetry_space_group_name_H-M   'P -1'
_symmetry_Int_Tables_number      2
_space_group_name_Hall           '-P 1'
loop_
_symmetry_equiv_pos_site_id
_symmetry_equiv_pos_as_xyz
1 x,y,z
2 -x,-y,-z
_cell_length_a                   7.3001(4)
_cell_length_b                   7.6324(4)
_cell_length_c                   12.8284(7)
_cell_angle_alpha                91.089(4)
_cell_angle_beta                 97.389(4)
_cell_angle_gamma                95.697(4)
_cell_volume                     704.961
loop_
_atom_site_label
_atom_site_type_symbol
_atom_site_fract_x
_atom_site_fract_y
_atom_site_fract_z
O1 O 0.7663(4) 0.6507(3) 0.8926(2)
C1 C 0.9346(5) 0.6259(4) 0.8901(3)
Zn1 Zn 0.66592(5) -0.14985(5) -0.04321(3)
O2 O 0.4457(4) -0.3251(4) 0.0050(3)
H1 H 0.3459 -0.3025 -0.0260
H2 H 0.9336 0.0178 -0.1432
H3 H 0.5097 -0.3747 0.0168
O3 O 0.7670(4) -0.0726(4) 0.1047(2)
O4 O 0.5269(4) 0.0623(4) 0.1457(3)
O5 O 0.9801(4) 0.0651(4) 0.2750(2)
O6 O 0.8426(4) 0.0495(3) -0.0983(2)
H4 H 0.8915 0.1150 -0.0489
O7 O 1.0690(4) 0.6961(3) 0.9497(2)
O8 O 1.1538(4) 0.4880(4) 0.7999(2)
C2 C 1.0908(5) 0.1324(5) 0.3653(3)
C3 C 1.0239(5) 0.2018(5) 0.4498(3)
H5 H 0.8965 0.2022 0.4496
C4 C 1.1482(5) 0.2734(5) 0.5381(3)
C5 C 1.3400(5) 0.2729(5) 0.5367(3)
C6 C 1.4026(6) 0.1983(7) 0.4474(4)
H6 H 1.5294 0.1953 0.4462
C7 C 1.2809(6) 0.1306(6) 0.3632(3)
H7 H 1.3246 0.0835 0.3049
C8 C 0.7857(5) 0.0760(5) 0.2709(3)
H8 H 0.7636 0.1966 0.2859
H9 H 0.7377 0.0026 0.3242
C9 C 0.6850(5) 0.0163(5) 0.1639(3)
C10 C 1.0829(5) 0.3429(5) 0.6275(3)
H10 H 0.9557 0.3409 0.6292
C11 C 1.2030(5) 0.4128(5) 0.7112(3)
C12 C 1.3955(5) 0.4174(6) 0.7094(4)
H11 H 1.4777 0.4694 0.7655
C13 C 1.4611(6) 0.3458(7) 0.6257(4)
H12 H 1.5886 0.3446 0.6267
C14 C 0.9598(5) 0.4984(5) 0.8030(3)
H13 H 0.8995 0.3829 0.8150
H14 H 0.9031 0.5379 0.7361
O1_2 O 0.7663(4) -0.3493(3) -0.1074(2)
Zn1_2 Zn 0.66592(5) 0.85015(5) 0.95679(3)
Zn1A Zn 0.33408(5) 0.14985(5) 0.04321(3)
O4A O 0.4731(4) -0.0623(4) -0.1457(3)
loop_
_geom_bond_atom_site_label_1
_geom_bond_atom_site_label_2
_geom_bond_site_symmetry_1
_geom_bond_site_symmetry_2
O1 C1 1_555 1_555
C1 O7 1_555 1_555
Zn1 O2 1_555 1_555
O2 H1 1_555 1_555
H2 O6 1_555 1_555
H3 O2 1_555 1_555
O3 Zn1 1_555 1_555
O4 C9 1_555 1_555
O5 C2 1_555 1_555
O6 Zn1 1_555 1_555
H4 O6 1_555 1_555
O8 C11 1_555 1_555
C2 C3 1_555 1_555
C3 H5 1_555 1_555
C4 C3 1_555 1_555
C5 C4 1_555 1_555
C6 C5 1_555 1_555
H6 C6 1_555 1_555
C7 C2 1_555 1_555
H7 C7 1_555 1_555
C8 O5 1_555 1_555
H8 C8 1_555 1_555
H9 C8 1_555 1_555
C9 O3 1_555 1_555
C10 C4 1_555 1_555
H10 C10 1_555 1_555
C11 C10 1_555 1_555
C12 C11 1_555 1_555
H11 C12 1_555 1_555
C13 C5 1_555 1_555
H12 C13 1_555 1_555
C14 C1 1_555 1_555
H13 C14 1_555 1_555
H14 C14 1_555 1_555
O1_2 Zn1 1_555 1_555
Zn1_2 O1 1_555 1_555
Zn1A O4 1_555 1_555
O4A Zn1 1_555 1_555
O8 C14 1_555 1_555
C6 C7 1_555 1_555
C8 C9 1_555 1_555
C12 C13 1_555 1_555

#END
