
#######################################################################
#
#                 Cambridge Crystallographic Data Centre
#                                CCDC 
#
#######################################################################
#
# If this CIF has been generated from an entry in the Cambridge 
# Structural Database, then it will include bibliographic, chemical, 
# crystal, experimental, refinement or atomic coordinate data resulting 
# from the CCDC's data processing and validation procedures.
#
#######################################################################

data_XAGROO
_symmetry_cell_setting           triclinic
_symmetry_space_group_name_H-M   'P -1'
_symmetry_Int_Tables_number      2
_space_group_name_Hall           '-P 1'
loop_
_symmetry_equiv_pos_site_id
_symmetry_equiv_pos_as_xyz
1 x,y,z
2 -x,-y,-z
_cell_length_a                   6.581(5)
_cell_length_b                   7.653(5)
_cell_length_c                   12.830(10)
_cell_angle_alpha                83.21(2)
_cell_angle_beta                 78.45(4)
_cell_angle_gamma                84.25(3)
_cell_volume                     626.703
loop_
_atom_site_label
_atom_site_type_symbol
_atom_site_fract_x
_atom_site_fract_y
_atom_site_fract_z
C1 C 0.1758(8) 0.4951(6) 0.6873(4)
C2 C 0.1643(8) 0.5641(6) 0.7931(4)
C3 C -0.0204(8) 0.6376(6) 0.8489(4)
H1 H -0.1436 0.6341 0.8244
C4 C -0.0227(9) 0.7160(6) 0.9406(5)
H2 H -0.1468 0.7674 0.9769
C5 C 0.1605(8) 0.7183(6) 0.9790(4)
C6 C 0.3462(9) 0.6429(7) 0.9230(5)
H3 H 0.4696 0.6453 0.9476
C7 C 0.3471(8) 0.5650(6) 0.8314(4)
H4 H 0.4707 0.5129 0.7950
C8 C 0.3035(8) 0.8902(6) 1.1972(4)
C9 C 0.1195(8) 0.9351(6) 1.2668(4)
H5 H -0.0057 0.8989 1.2571
C10 C 0.1221(8) 1.0320(6) 1.3489(5)
H6 H -0.0018 1.0632 1.3943
C11 C 0.3104(8) 1.0856(6) 1.3660(4)
C12 C 0.4949(9) 1.0313(7) 1.3006(5)
H7 H 0.6209 1.0615 1.3129
C13 C 0.4928(9) 0.9327(7) 1.2175(5)
H8 H 0.6172 0.8945 1.1750
C14 C 0.3037(8) 1.2147(7) 1.4448(5)
Al1 Al 0.5000 0.5000 0.5000
Al2 Al 0.0000 0.5000 0.5000
N1 N 0.1456(7) 0.8021(5) 1.0737(4)
N2 N 0.3172(7) 0.8039(5) 1.1032(4)
O1 O 0.3521(5) 0.4349(4) 0.6398(3)
O2 O 0.4749(5) 1.2758(4) 1.4499(3)
O3 O 0.2560(5) 0.5921(4) 0.4576(3)
O4 O 0.1289(5) 1.2672(4) 1.4964(3)
O5 O 0.0110(5) 0.5080(4) 0.6491(3)
C1A C 0.8242(8) 0.5049(6) 0.3127(4)
C2A C 0.8357(8) 0.4359(6) 0.2069(4)
C3A C 1.0204(8) 0.3624(6) 0.1511(4)
H1A H 1.1436 0.3659 0.1756
C4A C 1.0227(9) 0.2840(6) 0.0594(5)
H2A H 1.1468 0.2326 0.0231
C5A C 0.8395(8) 0.2817(6) 0.0210(4)
C6A C 0.6538(9) 0.3571(7) 0.0770(5)
H3A H 0.5304 0.3547 0.0524
C7A C 0.6529(8) 0.4350(6) 0.1686(4)
H4A H 0.5293 0.4871 0.2050
C8A C 0.6965(8) 0.1098(6) -0.1972(4)
C9A C 0.8805(8) 0.0649(6) -0.2668(4)
H5A H 1.0057 0.1011 -0.2571
C10A C 0.8779(8) -0.0320(6) -0.3489(5)
H6A H 1.0018 -0.0632 -0.3943
C11A C 0.6896(8) -0.0856(6) -0.3660(4)
C12A C 0.5051(9) -0.0313(7) -0.3006(5)
H7A H 0.3791 -0.0615 -0.3129
C13A C 0.5072(9) 0.0673(7) -0.2175(5)
H8A H 0.3828 0.1055 -0.1750
C14A C 0.6963(8) -0.2147(7) -0.4448(5)
Al1_2 Al 0.5000 1.5000 1.5000
Al1_3 Al 0.5000 -0.5000 -0.5000
Al2_2 Al 0.0000 1.5000 1.5000
Al2_3 Al 1.0000 -0.5000 -0.5000
Al2_4 Al 1.0000 0.5000 0.5000
N1A N 0.8544(7) 0.1979(5) -0.0737(4)
N2A N 0.6828(7) 0.1961(5) -0.1032(4)
O1A O 0.6479(5) 0.5651(4) 0.3602(3)
O2A O 0.5251(5) -0.2758(4) -0.4499(3)
O2_2 O 0.4749(5) 0.2758(4) 0.4499(3)
O2A_2 O 0.5251(5) 0.7242(4) 0.5501(3)
O3A O 0.7440(5) 0.4079(4) 0.5424(3)
O3A_2 O -0.2560(5) 0.4079(4) 0.5424(3)
O4A O 0.8711(5) -0.2672(4) -0.4964(3)
O4_2 O 0.1289(5) 0.2672(4) 0.4964(3)
O4A_2 O -0.1289(5) 0.7328(4) 0.5036(3)
O5A O 0.9890(5) 0.4920(4) 0.3509(3)
O5A_2 O -0.0110(5) 0.4920(4) 0.3509(3)
loop_
_geom_bond_atom_site_label_1
_geom_bond_atom_site_label_2
_geom_bond_site_symmetry_1
_geom_bond_site_symmetry_2
C1 C2 1_555 1_555
C2 C3 1_555 1_555
C3 H1 1_555 1_555
C4 C3 1_555 1_555
H2 C4 1_555 1_555
C5 C4 1_555 1_555
C6 C5 1_555 1_555
H3 C6 1_555 1_555
C7 C2 1_555 1_555
H4 C7 1_555 1_555
C8 C9 1_555 1_555
C9 H5 1_555 1_555
C10 C9 1_555 1_555
H6 C10 1_555 1_555
C11 C10 1_555 1_555
C12 C11 1_555 1_555
H7 C12 1_555 1_555
C13 C8 1_555 1_555
H8 C13 1_555 1_555
C14 C11 1_555 1_555
Al1 O1 1_555 1_555
Al2 O3 1_555 1_555
N1 C5 1_555 1_555
N2 C8 1_555 1_555
O1 C1 1_555 1_555
O2 C14 1_555 1_555
O3 Al1 1_555 1_555
O4 C14 1_555 1_555
O5 C1 1_555 1_555
C1A C2A 1_555 1_555
C2A C3A 1_555 1_555
C3A H1A 1_555 1_555
C4A C3A 1_555 1_555
H2A C4A 1_555 1_555
C5A C4A 1_555 1_555
C6A C5A 1_555 1_555
H3A C6A 1_555 1_555
C7A C2A 1_555 1_555
H4A C7A 1_555 1_555
C8A C9A 1_555 1_555
C9A H5A 1_555 1_555
C10A C9A 1_555 1_555
H6A C10A 1_555 1_555
C11A C10A 1_555 1_555
C12A C11A 1_555 1_555
H7A C12A 1_555 1_555
C13A C8A 1_555 1_555
H8A C13A 1_555 1_555
C14A C11A 1_555 1_555
Al1_2 O2 1_555 1_555
Al1_3 O2A 1_555 1_555
Al2_2 O4 1_555 1_555
Al2_3 O4A 1_555 1_555
Al2_4 O3A 1_555 1_555
N1A C5A 1_555 1_555
N2A C8A 1_555 1_555
O1A Al1 1_555 1_555
O2A C14A 1_555 1_555
O2_2 Al1 1_555 1_555
O2A_2 Al1 1_555 1_555
O3A Al1 1_555 1_555
O3A_2 Al2 1_555 1_555
O4A C14A 1_555 1_555
O4_2 Al2 1_555 1_555
O4A_2 Al2 1_555 1_555
O5A C1A 1_555 1_555
O5A_2 Al2 1_555 1_555
C6 C7 1_555 1_555
C12 C13 1_555 1_555
Al2 O5 1_555 1_555
N1 N2 1_555 1_555
C1A O1A 1_555 1_555
C6A C7A 1_555 1_555
C12A C13A 1_555 1_555
Al2_4 O5A 1_555 1_555
N1A N2A 1_555 1_555

#END
