
#######################################################################
#
#                 Cambridge Crystallographic Data Centre
#                                CCDC 
#
#######################################################################
#
# If this CIF has been generated from an entry in the Cambridge 
# Structural Database, then it will include bibliographic, chemical, 
# crystal, experimental, refinement or atomic coordinate data resulting 
# from the CCDC's data processing and validation procedures.
#
#######################################################################

data_XAGRAA
_symmetry_cell_setting           triclinic
_symmetry_space_group_name_H-M   'P -1'
_symmetry_Int_Tables_number      2
_space_group_name_Hall           '-P 1'
loop_
_symmetry_equiv_pos_site_id
_symmetry_equiv_pos_as_xyz
1 x,y,z
2 -x,-y,-z
_cell_length_a                   6.1081(11)
_cell_length_b                   7.8775(15)
_cell_length_c                   15.452(3)
_cell_angle_alpha                77.892(3)
_cell_angle_beta                 87.069(4)
_cell_angle_gamma                88.392(4)
_cell_volume                     725.892
loop_
_atom_site_label
_atom_site_type_symbol
_atom_site_fract_x
_atom_site_fract_y
_atom_site_fract_z
C1 C 0.1455(10) 0.6491(8) 0.1201(4)
C2 C -0.0060(10) 0.5118(8) 0.1658(4)
H1 H -0.0333 0.4347 0.1263
H2 H 0.0626 0.4439 0.2174
C3 C -0.2728(10) 0.5571(8) 0.2806(4)
C4 C -0.4641(10) 0.6395(9) 0.2989(4)
H3 H -0.5361 0.7119 0.2532
C5 C -0.5507(10) 0.6160(9) 0.3842(4)
H4 H -0.6820 0.6725 0.3948
C6 C -0.4518(9) 0.5133(7) 0.4538(4)
C7 C -0.2573(10) 0.4373(9) 0.4344(4)
H5 H -0.1816 0.3702 0.4806
C8 C -0.1675(11) 0.4554(9) 0.3489(4)
H6 H -0.0365 0.3987 0.3382
C9 C 0.7196(9) 1.0967(7) 0.1171(4)
C10 C 0.5975(9) 1.1519(8) 0.1941(3)
H7 H 0.6750 1.1088 0.2478
H8 H 0.5915 1.2777 0.1840
C11 C 0.2777(9) 1.0710(7) 0.2890(3)
C12 C 0.0947(8) 0.9709(7) 0.3051(3)
H9 H 0.0437 0.9204 0.2608
C13 C -0.0140(9) 0.9451(7) 0.3873(3)
H10 H -0.1393 0.8780 0.3971
C14 C 0.0571(9) 1.0153(7) 0.4552(3)
C15 C 0.2429(9) 1.1158(8) 0.4366(4)
H11 H 0.2965 1.1655 0.4806
C16 C 0.3511(10) 1.1439(8) 0.3537(3)
H12 H 0.4744 1.2131 0.3426
Cd1 Cd 0.24138(7) 1.04402(6) 0.05942(3)
O1 O -0.2093(7) 0.5817(6) 0.1929(3)
O2 O 0.3802(6) 1.0866(5) 0.2051(2)
O3 O 0.1030(7) 0.8007(6) 0.1261(3)
O4 O 0.3086(7) 0.5966(6) 0.0811(3)
O5 O 0.9140(6) 1.1443(5) 0.1041(2)
O6 O 0.6192(6) 1.0131(5) 0.0705(2)
O7 O 0.3031(7) 1.3199(5) 0.0052(3)
H13 H 0.4419 1.3159 0.0079
H14 H 0.2750 1.3919 0.0385
C1A C -1.1455(10) 0.3509(8) 0.8799(4)
C2A C -0.9940(10) 0.4882(8) 0.8342(4)
H1A H -0.9667 0.5653 0.8737
H2A H -1.0626 0.5561 0.7826
C3A C -0.7272(10) 0.4429(8) 0.7194(4)
C4A C -0.5359(10) 0.3605(9) 0.7011(4)
H3A H -0.4639 0.2881 0.7468
C5A C -0.4493(10) 0.3840(9) 0.6158(4)
H4A H -0.3180 0.3275 0.6052
C6A C -0.5482(9) 0.4867(7) 0.5462(4)
C7A C -0.7427(10) 0.5627(9) 0.5656(4)
H5A H -0.8184 0.6298 0.5194
C8A C -0.8325(11) 0.5446(9) 0.6511(4)
H6A H -0.9635 0.6013 0.6618
C9A C -0.7196(9) 0.9033(7) 0.8829(4)
C10A C -0.5975(9) 0.8481(8) 0.8059(3)
H7A H -0.6750 0.8912 0.7522
H8A H -0.5915 0.7223 0.8160
C11A C -0.2777(9) 0.9290(7) 0.7110(3)
C12A C -0.0947(8) 1.0291(7) 0.6949(3)
H9A H -0.0437 1.0796 0.7392
C13A C 0.0140(9) 1.0549(7) 0.6127(3)
H10A H 0.1393 1.1220 0.6029
C14A C -0.0571(9) 0.9847(7) 0.5448(3)
C15A C -0.2429(9) 0.8842(8) 0.5634(4)
H11A H -0.2965 0.8345 0.5194
C16A C -0.3511(10) 0.8561(8) 0.6463(3)
H12A H -0.4744 0.7869 0.6574
Cd1A Cd -0.24138(7) 0.95598(6) 0.94058(3)
Cd1_2 Cd 1.24138(7) 1.04402(6) 0.05942(3)
Cd1A_2 Cd 0.75862(7) 0.95598(6) -0.05942(3)
Cd1A_3 Cd -1.24138(7) -0.04402(6) 0.94058(3)
Cd1A_4 Cd -1.24138(7) 0.95598(6) 0.94058(3)
Cd1_3 Cd -0.75862(7) 1.04402(6) 1.05942(3)
O1A O -0.7907(7) 0.4183(6) 0.8071(3)
O2A O -0.3802(6) 0.9134(5) 0.7949(2)
O3A O -1.1030(7) 0.1993(6) 0.8739(3)
O3A_2 O -0.1030(7) 1.1993(6) 0.8739(3)
O4A O -1.3086(7) 0.4034(6) 0.9189(3)
O5A O -0.9140(6) 0.8557(5) 0.8959(2)
O5_2 O -0.0860(6) 1.1443(5) 0.1041(2)
O5A_2 O 0.0860(6) 0.8557(5) 0.8959(2)
O6A O -0.6192(6) 0.9869(5) 0.9295(2)
O6A_2 O 0.3808(6) 0.9869(5) -0.0705(2)
O6_2 O -0.3808(6) 1.0131(5) 1.0705(2)
O7A O -0.3031(7) 0.6801(5) 0.9948(3)
H13A H -0.4419 0.6841 0.9921
H14A H -0.2750 0.6081 0.9615
loop_
_geom_bond_atom_site_label_1
_geom_bond_atom_site_label_2
_geom_bond_site_symmetry_1
_geom_bond_site_symmetry_2
C1 C2 1_555 1_555
C2 H1 1_555 1_555
H2 C2 1_555 1_555
C3 C4 1_555 1_555
C4 H3 1_555 1_555
C5 C4 1_555 1_555
H4 C5 1_555 1_555
C6 C5 1_555 1_555
C7 C6 1_555 1_555
H5 C7 1_555 1_555
C8 C3 1_555 1_555
H6 C8 1_555 1_555
C9 C10 1_555 1_555
C10 H7 1_555 1_555
H8 C10 1_555 1_555
C11 C12 1_555 1_555
C12 H9 1_555 1_555
C13 C12 1_555 1_555
H10 C13 1_555 1_555
C14 C13 1_555 1_555
C15 C14 1_555 1_555
H11 C15 1_555 1_555
C16 C11 1_555 1_555
H12 C16 1_555 1_555
Cd1 O2 1_555 1_555
O1 C2 1_555 1_555
O2 C10 1_555 1_555
O3 C1 1_555 1_555
O4 C1 1_555 1_555
O5 C9 1_555 1_555
O6 C9 1_555 1_555
O7 Cd1 1_555 1_555
H13 O7 1_555 1_555
H14 O7 1_555 1_555
C1A C2A 1_555 1_555
C2A H1A 1_555 1_555
H2A C2A 1_555 1_555
C3A C4A 1_555 1_555
C4A H3A 1_555 1_555
C5A C4A 1_555 1_555
H4A C5A 1_555 1_555
C6A C6 1_555 1_555
C7A C6A 1_555 1_555
H5A C7A 1_555 1_555
C8A C3A 1_555 1_555
H6A C8A 1_555 1_555
C9A C10A 1_555 1_555
C10A H7A 1_555 1_555
H8A C10A 1_555 1_555
C11A C12A 1_555 1_555
C12A H9A 1_555 1_555
C13A C12A 1_555 1_555
H10A C13A 1_555 1_555
C14A C14 1_555 1_555
C15A C14A 1_555 1_555
H11A C15A 1_555 1_555
C16A C11A 1_555 1_555
H12A C16A 1_555 1_555
Cd1A O2A 1_555 1_555
Cd1_2 O5 1_555 1_555
Cd1A_2 O6 1_555 1_555
Cd1A_3 O3A 1_555 1_555
Cd1A_4 O5A 1_555 1_555
Cd1_3 O6A 1_555 1_555
O1A C2A 1_555 1_555
O2A C10A 1_555 1_555
O3A C1A 1_555 1_555
O3A_2 Cd1A 1_555 1_555
O4A C1A 1_555 1_555
O5A C9A 1_555 1_555
O5_2 Cd1 1_555 1_555
O5A_2 Cd1A 1_555 1_555
O6A C9A 1_555 1_555
O6A_2 Cd1 1_555 1_555
O6_2 Cd1A 1_555 1_555
O7A Cd1A 1_555 1_555
H13A O7A 1_555 1_555
H14A O7A 1_555 1_555
C3 O1 1_555 1_555
C7 C8 1_555 1_555
C11 O2 1_555 1_555
C15 C16 1_555 1_555
Cd1 O3 1_555 1_555
Cd1 O6 1_555 1_555
C3A O1A 1_555 1_555
C5A C6A 1_555 1_555
C7A C8A 1_555 1_555
C11A O2A 1_555 1_555
C13A C14A 1_555 1_555
C15A C16A 1_555 1_555
Cd1A O6A 1_555 1_555
Cd1A_2 O6A_2 1_555 1_555
Cd1_3 O6_2 1_555 1_555

#END
