
#######################################################################
#
#                 Cambridge Crystallographic Data Centre
#                                CCDC 
#
#######################################################################
#
# If this CIF has been generated from an entry in the Cambridge 
# Structural Database, then it will include bibliographic, chemical, 
# crystal, experimental, refinement or atomic coordinate data resulting 
# from the CCDC's data processing and validation procedures.
#
#######################################################################

data_XAGREE
_symmetry_cell_setting           triclinic
_symmetry_space_group_name_H-M   'P -1'
_symmetry_Int_Tables_number      2
_space_group_name_Hall           '-P 1'
loop_
_symmetry_equiv_pos_site_id
_symmetry_equiv_pos_as_xyz
1 x,y,z
2 -x,-y,-z
_cell_length_a                   4.9236(10)
_cell_length_b                   5.7501(11)
_cell_length_c                   15.143(3)
_cell_angle_alpha                88.367(3)
_cell_angle_beta                 83.723(3)
_cell_angle_gamma                83.308(3)
_cell_volume                     423.189
loop_
_atom_site_label
_atom_site_type_symbol
_atom_site_fract_x
_atom_site_fract_y
_atom_site_fract_z
C1 C 0.0927(6) 0.7692(6) 0.1611(2)
C2 C 0.2499(7) 0.7925(6) 0.2404(2)
H1 H 0.1229 0.8128 0.2969
H2 H 0.3457 0.9355 0.2354
C3 C 0.5915(7) 0.5787(6) 0.3196(2)
C4 C 0.5764(8) 0.7500(7) 0.3817(2)
H3 H 0.4587 0.8876 0.3771
C5 C 0.7381(8) 0.7165(7) 0.4516(2)
H4 H 0.7262 0.8344 0.4931
C6 C 0.9151(7) 0.5167(6) 0.4622(2)
C7 C 0.9261(8) 0.3482(6) 0.3975(3)
H5 H 1.0446 0.2109 0.4014
C8 C 0.7685(8) 0.3774(6) 0.3281(3)
H6 H 0.7810 0.2602 0.2863
Co1 Co 0.0000 0.5000 0.0000
O1 O 0.2874(4) 0.6628(4) -0.08666(14)
H7 H 0.4553 0.6072 -0.0874
H8 H 0.2365 0.7261 -0.1345
O2 O -0.2691(5) 0.8031(4) -0.00032(15)
H9 H -0.2124 0.8693 0.0425
H10 H -0.4347 0.8000 0.0221
O3 O 0.1840(4) 0.6137(4) 0.10603(14)
O4 O -0.1172(4) 0.9132(4) 0.15724(15)
O5 O 0.4433(5) 0.5906(4) 0.24789(15)
C1A C 1.9073(6) 0.2308(6) 0.8389(2)
C2A C 1.7501(7) 0.2075(6) 0.7596(2)
H1A H 1.8771 0.1872 0.7031
H2A H 1.6543 0.0645 0.7646
C3A C 1.4085(7) 0.4213(6) 0.6804(2)
C4A C 1.4236(8) 0.2500(7) 0.6183(2)
H3A H 1.5413 0.1124 0.6229
C5A C 1.2619(8) 0.2835(7) 0.5484(2)
H4A H 1.2738 0.1656 0.5069
C6A C 1.0849(7) 0.4833(6) 0.5378(2)
C7A C 1.0739(8) 0.6518(6) 0.6025(3)
H5A H 0.9554 0.7891 0.5986
C8A C 1.2315(8) 0.6226(6) 0.6719(3)
H6A H 1.2190 0.7398 0.7137
Co1_2 Co 2.0000 0.5000 1.0000
O1A O -0.2874(4) 0.3372(4) 0.08666(14)
H7A H -0.4553 0.3928 0.0874
H8A H -0.2365 0.2739 0.1345
O2A O 0.2691(5) 0.1969(4) 0.00032(15)
H9A H 0.2124 0.1307 -0.0425
H10A H 0.4347 0.2000 -0.0221
O3A O 1.8160(4) 0.3863(4) 0.89397(14)
O3A_2 O -0.1840(4) 0.3863(4) -0.10603(14)
O4A O 2.1172(4) 0.0868(4) 0.84276(15)
O5A O 1.5567(5) 0.4094(4) 0.75211(15)
loop_
_geom_bond_atom_site_label_1
_geom_bond_atom_site_label_2
_geom_bond_site_symmetry_1
_geom_bond_site_symmetry_2
C1 C2 1_555 1_555
C2 H1 1_555 1_555
H2 C2 1_555 1_555
C3 C4 1_555 1_555
C4 H3 1_555 1_555
C5 C4 1_555 1_555
H4 C5 1_555 1_555
C6 C5 1_555 1_555
C7 C6 1_555 1_555
H5 C7 1_555 1_555
C8 C3 1_555 1_555
H6 C8 1_555 1_555
Co1 O1 1_555 1_555
O1 H7 1_555 1_555
H8 O1 1_555 1_555
O2 Co1 1_555 1_555
H9 O2 1_555 1_555
H10 O2 1_555 1_555
O3 C1 1_555 1_555
O4 C1 1_555 1_555
O5 C2 1_555 1_555
C1A C2A 1_555 1_555
C2A H1A 1_555 1_555
H2A C2A 1_555 1_555
C3A C4A 1_555 1_555
C4A H3A 1_555 1_555
C5A C4A 1_555 1_555
H4A C5A 1_555 1_555
C6A C6 1_555 1_555
C7A C6A 1_555 1_555
H5A C7A 1_555 1_555
C8A C3A 1_555 1_555
H6A C8A 1_555 1_555
Co1_2 O3A 1_555 1_555
O1A Co1 1_555 1_555
H7A O1A 1_555 1_555
H8A O1A 1_555 1_555
O2A Co1 1_555 1_555
H9A O2A 1_555 1_555
H10A O2A 1_555 1_555
O3A C1A 1_555 1_555
O3A_2 Co1 1_555 1_555
O4A C1A 1_555 1_555
O5A C2A 1_555 1_555
C3 O5 1_555 1_555
C7 C8 1_555 1_555
Co1 O3 1_555 1_555
C3A O5A 1_555 1_555
C5A C6A 1_555 1_555
C7A C8A 1_555 1_555

#END
