
#######################################################################
#
#                 Cambridge Crystallographic Data Centre
#                                CCDC 
#
#######################################################################
#
# If this CIF has been generated from an entry in the Cambridge 
# Structural Database, then it will include bibliographic, chemical, 
# crystal, experimental, refinement or atomic coordinate data resulting 
# from the CCDC's data processing and validation procedures.
#
#######################################################################

data_XAGRII
_symmetry_cell_setting           triclinic
_symmetry_space_group_name_H-M   'P -1'
_symmetry_Int_Tables_number      2
_space_group_name_Hall           '-P 1'
loop_
_symmetry_equiv_pos_site_id
_symmetry_equiv_pos_as_xyz
1 x,y,z
2 -x,-y,-z
_cell_length_a                   4.9002(16)
_cell_length_b                   5.7233(18)
_cell_length_c                   15.147(5)
_cell_angle_alpha                88.524(7)
_cell_angle_beta                 83.761(6)
_cell_angle_gamma                83.354(6)
_cell_volume                     419.411
loop_
_atom_site_label
_atom_site_type_symbol
_atom_site_fract_x
_atom_site_fract_y
_atom_site_fract_z
C1 C 0.0910(7) 0.2680(6) 0.1596(2)
C2 C 0.2493(8) 0.2923(7) 0.2392(3)
H1 H 0.3443 0.4322 0.2321
H2 H 0.1218 0.3079 0.2929
C3 C 0.5913(8) 0.0766(7) 0.3188(2)
C4 C 0.5779(9) 0.2501(7) 0.3809(3)
H3 H 0.4622 0.3893 0.3756
C5 C 0.7366(9) 0.2172(7) 0.4512(3)
H4 H 0.7213 0.3349 0.4933
C6 C 0.9171(8) 0.0165(7) 0.4616(2)
C7 C 0.9262(10) -0.1515(7) 0.3974(3)
H5 H 1.0441 -0.2899 0.4017
C8 C 0.7686(10) -0.1236(7) 0.3273(3)
H6 H 0.7828 -0.2415 0.2853
Ni1 Ni 0.0000 0.0000 0.0000
O1 O 0.1807(5) 0.1094(4) 0.10518(17)
O2 O -0.1203(5) 0.4128(4) 0.15629(17)
O3 O 0.4443(5) 0.0901(4) 0.24623(17)
O4 O -0.2852(5) -0.1644(4) 0.08422(17)
H7 H -0.2290 -0.1298 0.1329
H8 H -0.4494 -0.0974 0.0940
O5 O -0.2643(5) 0.2995(4) -0.00203(17)
H9 H -0.2085 0.3656 0.0412
H10 H -0.4312 0.2964 0.0198
C1A C 1.9090(7) -0.2680(6) 0.8404(2)
C2A C 1.7507(8) -0.2923(7) 0.7608(3)
H1A H 1.6557 -0.4322 0.7679
H2A H 1.8782 -0.3079 0.7071
C3A C 1.4087(8) -0.0766(7) 0.6812(2)
C4A C 1.4221(9) -0.2501(7) 0.6191(3)
H3A H 1.5378 -0.3893 0.6244
C5A C 1.2634(9) -0.2172(7) 0.5488(3)
H4A H 1.2787 -0.3349 0.5067
C6A C 1.0829(8) -0.0165(7) 0.5384(2)
C7A C 1.0738(10) 0.1515(7) 0.6026(3)
H5A H 0.9559 0.2899 0.5983
C8A C 1.2314(10) 0.1236(7) 0.6727(3)
H6A H 1.2172 0.2415 0.7147
Ni1_2 Ni 2.0000 0.0000 1.0000
O1A O 1.8193(5) -0.1094(4) 0.89482(17)
O1A_2 O -0.1807(5) -0.1094(4) -0.10518(17)
O2A O 2.1203(5) -0.4128(4) 0.84371(17)
O3A O 1.5557(5) -0.0901(4) 0.75377(17)
O4A O 0.2852(5) 0.1644(4) -0.08422(17)
H7A H 0.2290 0.1298 -0.1329
H8A H 0.4494 0.0974 -0.0940
O5A O 0.2643(5) -0.2995(4) 0.00203(17)
H9A H 0.2085 -0.3656 -0.0412
H10A H 0.4312 -0.2964 -0.0198
loop_
_geom_bond_atom_site_label_1
_geom_bond_atom_site_label_2
_geom_bond_site_symmetry_1
_geom_bond_site_symmetry_2
C1 C2 1_555 1_555
C2 H1 1_555 1_555
H2 C2 1_555 1_555
C3 C4 1_555 1_555
C4 H3 1_555 1_555
C5 C4 1_555 1_555
H4 C5 1_555 1_555
C6 C5 1_555 1_555
C7 C6 1_555 1_555
H5 C7 1_555 1_555
C8 C3 1_555 1_555
H6 C8 1_555 1_555
Ni1 O1 1_555 1_555
O1 C1 1_555 1_555
O2 C1 1_555 1_555
O3 C2 1_555 1_555
O4 Ni1 1_555 1_555
H7 O4 1_555 1_555
H8 O4 1_555 1_555
O5 Ni1 1_555 1_555
H9 O5 1_555 1_555
H10 O5 1_555 1_555
C1A C2A 1_555 1_555
C2A H1A 1_555 1_555
H2A C2A 1_555 1_555
C3A C4A 1_555 1_555
C4A H3A 1_555 1_555
C5A C4A 1_555 1_555
H4A C5A 1_555 1_555
C6A C6 1_555 1_555
C7A C6A 1_555 1_555
H5A C7A 1_555 1_555
C8A C3A 1_555 1_555
H6A C8A 1_555 1_555
Ni1_2 O1A 1_555 1_555
O1A C1A 1_555 1_555
O1A_2 Ni1 1_555 1_555
O2A C1A 1_555 1_555
O3A C2A 1_555 1_555
O4A Ni1 1_555 1_555
H7A O4A 1_555 1_555
H8A O4A 1_555 1_555
O5A Ni1 1_555 1_555
H9A O5A 1_555 1_555
H10A O5A 1_555 1_555
C3 O3 1_555 1_555
C7 C8 1_555 1_555
C3A O3A 1_555 1_555
C5A C6A 1_555 1_555
C7A C8A 1_555 1_555

#END
