
#######################################################################
#
#                 Cambridge Crystallographic Data Centre
#                                CCDC 
#
#######################################################################
#
# If this CIF has been generated from an entry in the Cambridge 
# Structural Database, then it will include bibliographic, chemical, 
# crystal, experimental, refinement or atomic coordinate data resulting 
# from the CCDC's data processing and validation procedures.
#
#######################################################################

data_XAGSUT
_symmetry_cell_setting           rhombohedral
_symmetry_space_group_name_H-M   'R -3'
_symmetry_Int_Tables_number      148
_space_group_name_Hall           '-R 3'
loop_
_symmetry_equiv_pos_site_id
_symmetry_equiv_pos_as_xyz
1 x,y,z
2 -y,x-y,z
3 -x+y,-x,z
4 2/3+x,1/3+y,1/3+z
5 2/3-y,1/3+x-y,1/3+z
6 2/3-x+y,1/3-x,1/3+z
7 1/3+x,2/3+y,2/3+z
8 1/3-y,2/3+x-y,2/3+z
9 1/3-x+y,2/3-x,2/3+z
10 -x,-y,-z
11 y,-x+y,-z
12 x-y,x,-z
13 1/3-x,2/3-y,2/3-z
14 1/3+y,2/3-x+y,2/3-z
15 1/3+x-y,2/3+x,2/3-z
16 2/3-x,1/3-y,1/3-z
17 2/3+y,1/3-x+y,1/3-z
18 2/3+x-y,1/3+x,1/3-z
_cell_length_a                   9.3462(2)
_cell_length_b                   9.3462(2)
_cell_length_c                   23.96120(10)
_cell_angle_alpha                90
_cell_angle_beta                 90
_cell_angle_gamma                120
_cell_volume                     1812.63
loop_
_atom_site_label
_atom_site_type_symbol
_atom_site_fract_x
_atom_site_fract_y
_atom_site_fract_z
Cd1 Cd 0.61481(10) 0.74397(10) 0.09639(3)
O1 O 0.3892(10) 0.4988(10) 0.0588(3)
O2 O 0.6167(10) 0.5785(10) 0.1693(3)
O3 O 0.3154(11) 0.3133(10) -0.0089(3)
O4 O 0.7851(11) 0.5545(11) 0.2291(3)
C1 C 0.4140(12) 0.4433(13) 0.0142(5)
C2 C 0.7582(15) 0.6080(15) 0.1852(4)
C1I C 0.5860(12) 0.5567(13) -0.0142(5)
O1I O 0.6108(10) 0.5012(10) -0.0588(3)
O3I O 0.6846(11) 0.6867(10) 0.0089(3)
C2O C 0.9085(15) 0.7253(15) 0.1481(4)
O2O O 1.0500(10) 0.7548(10) 0.1640(3)
O4O O 0.8816(11) 0.7788(11) 0.1042(3)
O1A O 0.5012(10) 0.8904(14) 0.0588(3)
O3A O 0.6867(10) 1.0021(15) -0.0089(3)
C1A C 0.5567(13) 0.9707(18) 0.0142(5)
C1J C 0.4433(13) 1.0293(18) -0.0142(5)
O1J O 0.4988(10) 1.1096(14) -0.0588(3)
O3J O 0.3133(10) 0.9979(15) 0.0089(3)
O2Q O 0.7049(14) 0.9500(10) 0.1640(3)
O4Q O 0.8973(16) 1.1184(11) 0.1042(3)
C2Q C 0.8169(21) 1.0915(15) 0.1481(4)
C2B C 0.8498(21) 1.2418(15) 0.1852(4)
O2B O 0.9618(14) 1.3833(10) 0.1693(3)
O4B O 0.7694(16) 1.2149(11) 0.2291(3)
Cd1I Cd 0.38519(10) 0.25603(10) -0.09639(3)
Cd1A Cd 0.25603(10) 0.87084(14) 0.09639(3)
Cd1J Cd 0.74397(10) 1.12916(14) -0.09639(3)
Cd1B Cd 0.12916(14) 0.38519(10) 0.09639(3)
Cd1K Cd 0.87084(14) 0.61481(10) -0.09639(3)
O1J_2 O 0.4988(10) 0.1096(14) -0.0588(3)
O3J_2 O 0.3133(10) -0.0021(15) 0.0089(3)
C1J_2 C 0.4433(13) 0.0293(18) -0.0142(5)
C1A_2 C 0.5567(13) -0.0293(18) 0.0142(5)
O1A_2 O 0.5012(10) -0.1096(14) 0.0588(3)
O3A_2 O 0.6867(10) 0.0021(15) -0.0089(3)
O2I O 0.3833(10) 0.4215(10) -0.1693(3)
O4I O 0.2149(11) 0.4455(11) -0.2291(3)
C2I C 0.2418(15) 0.3920(15) -0.1852(4)
C2F C 0.0915(15) 0.2747(15) -0.1481(4)
O2F O -0.0500(10) 0.2452(10) -0.1640(3)
O4F O 0.1184(11) 0.2212(11) -0.1042(3)
Cd1P Cd 0.41064(10) 0.46249(14) 0.23694(3)
Cd1O Cd 1.05186(10) 0.58936(10) 0.23694(3)
Cd1A_2 Cd 1.25603(10) 0.87084(14) 0.09639(3)
Cd1I_2 Cd 0.38519(10) 1.25603(10) -0.09639(3)
Cd1Q Cd 0.53751(14) 0.94814(10) 0.23694(3)
Cd1B_2 Cd 1.12916(14) 1.38519(10) 0.09639(3)
Cd1O_2 Cd 1.05186(10) 1.58936(10) 0.23694(3)
O2H O 0.2951(14) 0.0500(10) -0.1640(3)
O1B O 0.1096(14) 0.6108(10) 0.0588(3)
O2A O 0.4215(10) 1.0382(14) 0.1693(3)
O2O_2 O 0.0500(10) 0.7548(10) 0.1640(3)
O4P O 0.2212(11) 1.1027(16) 0.1042(3)
O1K O 0.8904(14) 1.3892(10) -0.0588(3)
O2F_2 O 0.9500(10) 1.2452(10) -0.1640(3)
O2J O 0.5785(10) 0.9618(14) -0.1693(3)
O4G O 0.7788(11) 0.8973(16) -0.1042(3)
O2B_2 O -0.0382(14) 0.3833(10) 0.1693(3)
O2P O 0.2452(10) 0.2951(14) 0.1640(3)
O3K O 0.0021(15) 0.3154(11) 0.0089(3)
O4Q_2 O -0.1027(16) 0.1184(11) 0.1042(3)
O1K_2 O 0.8904(14) 0.3892(10) -0.0588(3)
O2K O 1.0382(14) 0.6167(10) -0.1693(3)
O2G O 0.7548(10) 0.7049(14) -0.1640(3)
O3B O 0.9979(15) 0.6846(11) -0.0089(3)
O4H O 1.1027(16) 0.8816(11) -0.1042(3)
Cd1J_2 Cd 0.74397(10) 0.12916(14) -0.09639(3)
Cd1A_3 Cd 0.25603(10) -0.12916(14) 0.09639(3)
Cd1_2 Cd 0.61481(10) -0.25603(10) 0.09639(3)
Cd1G Cd 0.58936(10) 0.53751(14) -0.23694(3)
Cd1F Cd -0.05186(10) 0.41064(10) -0.23694(3)
Cd1J_3 Cd -0.25603(10) 0.12916(14) -0.09639(3)
Cl1 Cl 0.3333 0.6667 0.1667
K1 K 1.0000 1.0000 0.0000
O5 O 0.6667 0.3333 0.0907(83)
H1? H 0.617(12) 0.308(23) 0.0756(28)
loop_
_geom_bond_atom_site_label_1
_geom_bond_atom_site_label_2
_geom_bond_site_symmetry_1
_geom_bond_site_symmetry_2
Cd1 O1 1_555 1_555
O1 C1 1_555 1_555
O2 Cd1 1_555 1_555
O3 C1 1_555 1_555
O4 C2 1_555 1_555
C1 C1I 1_555 1_555
C2 O2 1_555 1_555
C1I O1I 1_555 1_555
O1I Cd1I 1_555 1_555
O3I Cd1 1_555 1_555
C2O C2 1_555 1_555
O2O C2O 1_555 1_555
O4O Cd1 1_555 1_555
O1A Cd1 1_555 1_555
O3A C1A 1_555 1_555
C1A O1A 1_555 1_555
C1J C1A 1_555 1_555
O1J C1J 1_555 1_555
O3J C1J 1_555 1_555
O2Q Cd1 1_555 1_555
O4Q C2Q 1_555 1_555
C2Q O2Q 1_555 1_555
C2B C2Q 1_555 1_555
O2B C2B 1_555 1_555
O4B C2B 1_555 1_555
Cd1I O3 1_555 1_555
Cd1A O1A 1_555 1_555
Cd1J O3A 1_555 1_555
Cd1B O1 1_555 1_555
Cd1K O1I 1_555 1_555
O1J_2 Cd1I 1_555 1_555
O3J_2 C1J_2 1_555 1_555
C1J_2 O1J_2 1_555 1_555
C1A_2 C1J_2 1_555 1_555
O1A_2 C1A_2 1_555 1_555
O3A_2 C1A_2 1_555 1_555
O2I Cd1I 1_555 1_555
O4I C2I 1_555 1_555
C2I O2I 1_555 1_555
C2F C2I 1_555 1_555
O2F C2F 1_555 1_555
O4F Cd1I 1_555 1_555
Cd1P O2 1_555 1_555
Cd1O O4 1_555 1_555
Cd1A_2 O2O 1_555 1_555
Cd1I_2 O1J 1_555 1_555
Cd1Q O2Q 1_555 1_555
Cd1B_2 O4Q 1_555 1_555
Cd1O_2 O2B 1_555 1_555
O2H Cd1I 1_555 1_555
O1B Cd1A 1_555 1_555
O2A Cd1A 1_555 1_555
O2O_2 Cd1A 1_555 1_555
O4P Cd1A 1_555 1_555
O1K Cd1J 1_555 1_555
O2F_2 Cd1J 1_555 1_555
O2J Cd1J 1_555 1_555
O4G Cd1J 1_555 1_555
O2B_2 Cd1B 1_555 1_555
O2P Cd1B 1_555 1_555
O3K Cd1B 1_555 1_555
O4Q_2 Cd1B 1_555 1_555
O1K_2 Cd1K 1_555 1_555
O2K Cd1K 1_555 1_555
O2G Cd1K 1_555 1_555
O3B Cd1K 1_555 1_555
O4H Cd1K 1_555 1_555
Cd1J_2 O1J_2 1_555 1_555
Cd1A_3 O3J_2 1_555 1_555
Cd1_2 O1A_2 1_555 1_555
Cd1G O2I 1_555 1_555
Cd1F O4I 1_555 1_555
Cd1J_3 O2F 1_555 1_555
C1I O3I 1_555 1_555
C2O O4O 1_555 1_555
O2O Cd1O 1_555 1_555
O1J Cd1J 1_555 1_555
O3J Cd1A 1_555 1_555
O2B Cd1B_2 1_555 1_555
O4B Cd1Q 1_555 1_555
Cd1B O1B 1_555 1_555
O1A_2 Cd1A_3 1_555 1_555
O3A_2 Cd1J_2 1_555 1_555
C2F O4F 1_555 1_555
O2F Cd1F 1_555 1_555
Cd1P O2P 1_555 1_555
Cd1Q O2A 1_555 1_555
O1K_2 Cd1J_2 1_555 1_555
O2G Cd1G 1_555 1_555

#END
