
#######################################################################
#
#                 Cambridge Crystallographic Data Centre
#                                CCDC 
#
#######################################################################
#
# If this CIF has been generated from an entry in the Cambridge 
# Structural Database, then it will include bibliographic, chemical, 
# crystal, experimental, refinement or atomic coordinate data resulting 
# from the CCDC's data processing and validation procedures.
#
#######################################################################

data_XAGWOS
_symmetry_cell_setting           monoclinic
_symmetry_space_group_name_H-M   'P 21/c'
_symmetry_Int_Tables_number      14
_space_group_name_Hall           '-P 2ybc'
loop_
_symmetry_equiv_pos_site_id
_symmetry_equiv_pos_as_xyz
1 x,y,z
2 -x,1/2+y,1/2-z
3 -x,-y,-z
4 x,1/2-y,1/2+z
_cell_length_a                   14.3903(7)
_cell_length_b                   15.5232(6)
_cell_length_c                   7.3943(3)
_cell_angle_alpha                90
_cell_angle_beta                 90.577(2)
_cell_angle_gamma                90
_cell_volume                     1651.68
loop_
_atom_site_label
_atom_site_type_symbol
_atom_site_fract_x
_atom_site_fract_y
_atom_site_fract_z
Ni1 Ni 0.26540(3) 0.47601(3) 0.21339(6)
V1 V 0.62019(4) 0.62212(3) 0.42024(7)
P1 P 0.49559(6) 0.44872(6) 0.25030(12)
P2 P 0.28043(6) 0.30615(5) -0.04182(11)
O1 O 0.56212(18) 0.51572(15) 0.3223(3)
O2 O 0.29498(17) 0.42010(14) 0.4649(3)
O3 O 0.47476(16) 0.37641(14) 0.3839(3)
O4 O 0.31211(17) 0.37035(14) -0.1846(3)
O5 O 0.35780(17) 0.24508(14) 0.0142(3)
O6 O 0.50973(19) 0.6933(2) 0.2501(4)
H1 H 0.508(4) 0.671(4) 0.136(8)
H2 H 0.517(3) 0.738(3) 0.239(6)
O7 O 0.40733(17) 0.48999(15) 0.1741(3)
O8 O 0.24258(17) 0.35555(14) 0.1196(3)
O9 O 0.2549(2) 0.5275(2) -0.0482(5)
H3 H 0.293(5) 0.559(5) -0.056(10)
H4 H 0.271(5) 0.489(4) -0.087(9)
O10 O 0.54704(18) 0.40123(15) 0.0882(3)
H5 H 0.5597 0.4364 0.0095
O11 O 0.19517(17) 0.25318(15) -0.1179(3)
H6 H 0.2114 0.2251 -0.2061
N1 N 0.1194(2) 0.48591(18) 0.2444(4)
N2 N 0.2555(2) 0.59161(18) 0.3503(4)
C1 C 0.0523(3) 0.4324(2) 0.1896(5)
H7 H 0.0690 0.3796 0.1401
C2 C -0.0426(3) 0.4525(3) 0.2036(6)
H8 H -0.0873 0.4133 0.1644
C3 C -0.0687(3) 0.5297(3) 0.2748(5)
H9 H -0.1314 0.5438 0.2835
C4 C 0.0000(3) 0.5880(2) 0.3352(5)
C5 C 0.0932(3) 0.5631(2) 0.3154(5)
C6 C 0.1663(3) 0.6192(2) 0.3770(5)
C7 C 0.1455(3) 0.6981(2) 0.4579(5)
C8 C 0.2208(3) 0.7490(2) 0.5159(6)
H10 H 0.2103 0.8026 0.5681
C9 C 0.3088(3) 0.7199(3) 0.4955(6)
H11 H 0.3587 0.7528 0.5366
C10 C 0.3246(3) 0.6402(2) 0.4122(5)
H12 H 0.3854 0.6207 0.4001
C11 C -0.0203(3) 0.6702(3) 0.4156(5)
H13 H -0.0817 0.6881 0.4255
C12 C 0.0491(3) 0.7216(3) 0.4768(5)
H14 H 0.0342 0.7735 0.5325
O2B O 0.70502(17) 0.57990(14) 0.5351(3)
O3B O 0.52524(16) 0.62359(14) 0.6161(3)
O4B O 0.68789(17) 0.62965(14) 0.1846(3)
O5A O 0.64220(17) 0.74508(14) 0.4858(3)
V1B V 0.37981(4) 0.37788(3) 0.57976(7)
V1B_2 V 0.37981(4) 0.37788(3) -0.42024(7)
V1A V 0.37981(4) 0.12212(3) 0.07976(7)
loop_
_geom_bond_atom_site_label_1
_geom_bond_atom_site_label_2
_geom_bond_site_symmetry_1
_geom_bond_site_symmetry_2
Ni1 O2 1_555 1_555
V1 O1 1_555 1_555
P1 O1 1_555 1_555
P2 O4 1_555 1_555
O2 V1B 1_555 1_555
O3 P1 1_555 1_555
O4 V1B_2 1_555 1_555
O5 P2 1_555 1_555
O6 V1 1_555 1_555
H1 O6 1_555 1_555
H2 O6 1_555 1_555
O7 Ni1 1_555 1_555
O8 Ni1 1_555 1_555
O9 Ni1 1_555 1_555
H3 O9 1_555 1_555
H4 O9 1_555 1_555
O10 P1 1_555 1_555
H5 O10 1_555 1_555
O11 P2 1_555 1_555
H6 O11 1_555 1_555
N1 Ni1 1_555 1_555
N2 Ni1 1_555 1_555
C1 N1 1_555 1_555
H7 C1 1_555 1_555
C2 C1 1_555 1_555
H8 C2 1_555 1_555
C3 C2 1_555 1_555
H9 C3 1_555 1_555
C4 C3 1_555 1_555
C5 N1 1_555 1_555
C6 N2 1_555 1_555
C7 C6 1_555 1_555
C8 C7 1_555 1_555
H10 C8 1_555 1_555
C9 C8 1_555 1_555
H11 C9 1_555 1_555
C10 N2 1_555 1_555
H12 C10 1_555 1_555
C11 C4 1_555 1_555
H13 C11 1_555 1_555
C12 C7 1_555 1_555
H14 C12 1_555 1_555
O2B V1 1_555 1_555
O3B V1 1_555 1_555
O4B V1 1_555 1_555
O5A V1 1_555 1_555
V1B O3 1_555 1_555
V1A O5 1_555 1_555
P1 O7 1_555 1_555
P2 O8 1_555 1_555
C4 C5 1_555 1_555
C5 C6 1_555 1_555
C9 C10 1_555 1_555
C11 C12 1_555 1_555

#END
