
#######################################################################
#
#                 Cambridge Crystallographic Data Centre
#                                CCDC 
#
#######################################################################
#
# If this CIF has been generated from an entry in the Cambridge 
# Structural Database, then it will include bibliographic, chemical, 
# crystal, experimental, refinement or atomic coordinate data resulting 
# from the CCDC's data processing and validation procedures.
#
#######################################################################

data_XAGXEI
_symmetry_cell_setting           monoclinic
_symmetry_space_group_name_H-M   'C 2/m'
_symmetry_Int_Tables_number      12
_space_group_name_Hall           '-C 2y'
loop_
_symmetry_equiv_pos_site_id
_symmetry_equiv_pos_as_xyz
1 x,y,z
2 1/2+x,1/2+y,z
3 -x,y,-z
4 1/2-x,1/2+y,-z
5 -x,-y,-z
6 1/2-x,1/2-y,-z
7 x,-y,z
8 1/2+x,1/2-y,z
_cell_length_a                   23.123(5)
_cell_length_b                   10.165(2)
_cell_length_c                   15.018(6)
_cell_angle_alpha                90
_cell_angle_beta                 113.21(3)
_cell_angle_gamma                90
_cell_volume                     3244.22
loop_
_atom_site_label
_atom_site_type_symbol
_atom_site_fract_x
_atom_site_fract_y
_atom_site_fract_z
O2 O 0.0445(8) 0.0000 0.4003(9)
O3 O -0.3881(4) 0.5000 -0.2672(8)
O4 O 0.1717(12) 0.0000 0.423(2)
O5 O 0.2360(6) 0.0000 0.2421(11)
O6 O 0.2500 0.2500 0.5000
O7 O 0.1725(10) 0.312(3) 0.5977(8)
K1 K 0.03851(9) 0.0000 0.15876(19)
O8 O 0.12965(14) 0.1981(3) 0.2147(2)
O9 O -0.02709(14) 0.1982(3) 0.2071(2)
O10 O 0.16072(14) 0.1967(3) 0.0076(3)
O11 O 0.0830(7) 0.0000 0.0214(15)
N1 N 0.19275(15) 0.3798(3) 0.2328(3)
N2 N 0.12576(14) 0.3792(3) 0.3041(2)
N3 N 0.02032(15) 0.3798(3) 0.2988(2)
N4 N -0.08242(15) 0.3802(3) 0.2198(3)
N5 N -0.17597(14) 0.3785(3) 0.0715(3)
N6 N 0.21532(15) 0.3784(3) 0.0888(3)
C2 C 0.23106(19) 0.3293(4) 0.1850(3)
H1 H 0.2742 0.3506 0.2234
H2 H 0.2275 0.2352 0.1822
C3 C 0.14726(17) 0.3083(4) 0.2470(3)
C4 C 0.08307(18) 0.3258(5) 0.3432(3)
H3 H 0.0994 0.3430 0.4116
H4 H 0.0809 0.2321 0.3344
C5 C -0.02935(18) 0.3084(4) 0.2386(3)
C6 C -0.14505(18) 0.3284(4) 0.1677(3)
H5 H -0.1424 0.2344 0.1644
H6 H -0.1703 0.3483 0.2036
C7 C 0.18117(17) 0.3082(4) 0.0082(3)
C8 C 0.2079(2) 0.5000 0.2895(4)
H7 H 0.2506 0.5000 0.3360
C9 C 0.1607(2) 0.5000 0.3394(4)
H8 H 0.1819 0.5000 0.4088
C10 C 0.0010(3) 0.5000 0.3306(4)
H9 H 0.0126 0.5000 0.3994
C11 C -0.0710(3) 0.5000 0.2755(4)
H10 H -0.0923 0.5000 0.3190
C12 C -0.2123(2) 0.5000 0.0464(5)
H11 H -0.2451 0.5000 0.0704
C13 C 0.2396(2) 0.5000 0.0649(5)
H12 H 0.2848 0.5000 0.0912
N5B N 0.17597(14) 0.3785(3) -0.0715(3)
C6B C 0.14505(18) 0.3284(4) -0.1677(3)
N4B N 0.08242(15) 0.3802(3) -0.2198(3)
C5B C 0.02935(18) 0.3084(4) -0.2386(3)
O9B O 0.02709(14) 0.1982(3) -0.2071(2)
K1B K -0.03851(9) 0.0000 -0.15876(19)
O8B O -0.12965(14) 0.1981(3) -0.2147(2)
C3B C -0.14726(17) 0.3083(4) -0.2470(3)
N1B N -0.19275(15) 0.3798(3) -0.2328(3)
C2B C -0.23106(19) 0.3293(4) -0.1850(3)
N6B N -0.21532(15) 0.3784(3) -0.0888(3)
C7B C -0.18117(17) 0.3082(4) -0.0082(3)
O10B O -0.16072(14) 0.1967(3) -0.0076(3)
O8F O 0.12965(14) -0.1981(3) 0.2147(2)
O9D O 0.02709(14) -0.1982(3) -0.2071(2)
O8D O -0.12965(14) -0.1981(3) -0.2147(2)
O9F O -0.02709(14) -0.1982(3) 0.2071(2)
O11B O -0.0830(7) 0.0000 -0.0214(15)
C13B C -0.2396(2) 0.5000 -0.0649(5)
H1B H -0.2742 0.3506 -0.2234
H2B H -0.2275 0.2352 -0.1822
C8B C -0.2079(2) 0.5000 -0.2895(4)
N2B N -0.12576(14) 0.3792(3) -0.3041(2)
N3B N -0.02032(15) 0.3798(3) -0.2988(2)
C11B C 0.0710(3) 0.5000 -0.2755(4)
H5B H 0.1424 0.2344 -0.1644
H6B H 0.1703 0.3483 -0.2036
C12B C 0.2123(2) 0.5000 -0.0464(5)
N1F N 0.19275(15) 0.6202(3) 0.2328(3)
N2F N 0.12576(14) 0.6208(3) 0.3041(2)
N3F N 0.02032(15) 0.6202(3) 0.2988(2)
N4F N -0.08242(15) 0.6198(3) 0.2198(3)
N5F N -0.17597(14) 0.6215(3) 0.0715(3)
N6F N 0.21532(15) 0.6216(3) 0.0888(3)
N6D N -0.21532(15) 0.6216(3) -0.0888(3)
H12D H -0.2848 0.5000 -0.0912
N1D N -0.19275(15) 0.6202(3) -0.2328(3)
H7D H -0.2506 0.5000 -0.3360
C9D C -0.1607(2) 0.5000 -0.3394(4)
C4B C -0.08307(18) 0.3258(5) -0.3432(3)
C10D C -0.0010(3) 0.5000 -0.3306(4)
N4D N 0.08242(15) 0.6198(3) -0.2198(3)
H10D H 0.0923 0.5000 -0.3190
N5D N 0.17597(14) 0.6215(3) -0.0715(3)
H11D H 0.2451 0.5000 -0.0704
C2F C 0.23106(19) 0.6707(4) 0.1850(3)
C3F C 0.14726(17) 0.6917(4) 0.2470(3)
C4F C 0.08307(18) 0.6742(5) 0.3432(3)
C5F C -0.02935(18) 0.6916(4) 0.2386(3)
C6F C -0.14505(18) 0.6716(4) 0.1677(3)
C7D C -0.18117(17) 0.6918(4) -0.0082(3)
C7F C 0.18117(17) 0.6918(4) 0.0082(3)
C2D C -0.23106(19) 0.6707(4) -0.1850(3)
C3D C -0.14726(17) 0.6917(4) -0.2470(3)
N2D N -0.12576(14) 0.6208(3) -0.3041(2)
H8D H -0.1819 0.5000 -0.4088
H3B H -0.0994 0.3430 -0.4116
H4B H -0.0809 0.2321 -0.3344
N3D N -0.02032(15) 0.6202(3) -0.2988(2)
H9D H -0.0126 0.5000 -0.3994
C5D C 0.02935(18) 0.6916(4) -0.2386(3)
C6D C 0.14505(18) 0.6716(4) -0.1677(3)
H1F H 0.2742 0.6494 0.2234
H2F H 0.2275 0.7648 0.1822
O8F_2 O 0.12965(14) 0.8019(3) 0.2147(2)
H3F H 0.0994 0.6570 0.4116
H4F H 0.0809 0.7679 0.3344
O9F_2 O -0.02709(14) 0.8018(3) 0.2071(2)
H5F H -0.1424 0.7656 0.1644
H6F H -0.1703 0.6517 0.2036
O10D O -0.16072(14) 0.8033(3) -0.0076(3)
O10F O 0.16072(14) 0.8033(3) 0.0076(3)
H1D H -0.2742 0.6494 -0.2234
H2D H -0.2275 0.7648 -0.1822
O8D_2 O -0.12965(14) 0.8019(3) -0.2147(2)
C4D C -0.08307(18) 0.6742(5) -0.3432(3)
O9D_2 O 0.02709(14) 0.8018(3) -0.2071(2)
H5D H 0.1424 0.7656 -0.1644
H6D H 0.1703 0.6517 -0.2036
K1_2 K 0.03851(9) 1.0000 0.15876(19)
K1D K -0.03851(9) 1.0000 -0.15876(19)
H3D H -0.0994 0.6570 -0.4116
H4D H -0.0809 0.7679 -0.3344
O1 O -0.0493(18) 0.5000 0.005(5)
C1 C -0.0279(8) 0.4029(17) -0.0089(17)
C1B C 0.0279(8) 0.4029(17) 0.0089(17)
O1B O 0.0493(18) 0.5000 -0.005(5)
C1D C 0.0279(8) 0.5971(17) 0.0089(17)
C1F C -0.0279(8) 0.5971(17) -0.0089(17)
O12? O 0.0719(5) 0.0000 -0.021(2)
O13? O 0.101(3) 0.219(4) 0.600(3)
O14? O 0.0372(16) 0.2366(13) 0.5461(17)
loop_
_geom_bond_atom_site_label_1
_geom_bond_atom_site_label_2
_geom_bond_site_symmetry_1
_geom_bond_site_symmetry_2
O1 C1 1_555 1_555
C1 C1B 1_555 1_555
K1 O8 1_555 1_555
O8 C3 1_555 1_555
O9 K1 1_555 1_555
O10 C7 1_555 1_555
O11 K1 1_555 1_555
N1 C2 1_555 1_555
N2 C3 1_555 1_555
N3 C4 1_555 1_555
N4 C5 1_555 1_555
N5 C6 1_555 1_555
N6 C2 1_555 1_555
C2 H1 1_555 1_555
H2 C2 1_555 1_555
C3 N1 1_555 1_555
C4 N2 1_555 1_555
H3 C4 1_555 1_555
H4 C4 1_555 1_555
C5 O9 1_555 1_555
C6 N4 1_555 1_555
H5 C6 1_555 1_555
H6 C6 1_555 1_555
C7 N6 1_555 1_555
C8 N1 1_555 1_555
H7 C8 1_555 1_555
C9 N2 1_555 1_555
H8 C9 1_555 1_555
C10 N3 1_555 1_555
H9 C10 1_555 1_555
C11 N4 1_555 1_555
H10 C11 1_555 1_555
C12 N5 1_555 1_555
H11 C12 1_555 1_555
C13 N6 1_555 1_555
H12 C13 1_555 1_555
C1B O1B 1_555 1_555
O1B C1D 1_555 1_555
C1D C1F 1_555 1_555
C1F O1 1_555 1_555
N5B C7 1_555 1_555
C6B N5B 1_555 1_555
N4B C6B 1_555 1_555
C5B N4B 1_555 1_555
O9B C5B 1_555 1_555
K1B O11 1_555 1_555
O8B K1B 1_555 1_555
C3B O8B 1_555 1_555
N1B C3B 1_555 1_555
C2B N1B 1_555 1_555
N6B C2B 1_555 1_555
C7B N5 1_555 1_555
O10B C7B 1_555 1_555
O8F K1 1_555 1_555
O9D K1B 1_555 1_555
O8D K1B 1_555 1_555
O9F K1 1_555 1_555
O11B K1 1_555 1_555
C13B C12 1_555 1_555
H1B C2B 1_555 1_555
H2B C2B 1_555 1_555
C8B N1B 1_555 1_555
N2B C3B 1_555 1_555
N3B C5B 1_555 1_555
C11B N4B 1_555 1_555
H5B C6B 1_555 1_555
H6B C6B 1_555 1_555
C12B C13 1_555 1_555
N1F C8 1_555 1_555
N2F C9 1_555 1_555
N3F C10 1_555 1_555
N4F C11 1_555 1_555
N5F C12 1_555 1_555
N6F C13 1_555 1_555
N6D C13B 1_555 1_555
H12D C13B 1_555 1_555
N1D C8B 1_555 1_555
H7D C8B 1_555 1_555
C9D C8B 1_555 1_555
C4B N2B 1_555 1_555
C10D N3B 1_555 1_555
N4D C11B 1_555 1_555
H10D C11B 1_555 1_555
N5D C12B 1_555 1_555
H11D C12B 1_555 1_555
C2F N1F 1_555 1_555
C3F N1F 1_555 1_555
C4F N2F 1_555 1_555
C5F N3F 1_555 1_555
C6F N4F 1_555 1_555
C7D N5F 1_555 1_555
C7F N6F 1_555 1_555
C2D N6D 1_555 1_555
C3D N1D 1_555 1_555
N2D C9D 1_555 1_555
H8D C9D 1_555 1_555
H3B C4B 1_555 1_555
H4B C4B 1_555 1_555
N3D C10D 1_555 1_555
H9D C10D 1_555 1_555
C5D N4D 1_555 1_555
C6D N4D 1_555 1_555
H1F C2F 1_555 1_555
H2F C2F 1_555 1_555
O8F_2 C3F 1_555 1_555
H3F C4F 1_555 1_555
H4F C4F 1_555 1_555
O9F_2 C5F 1_555 1_555
H5F C6F 1_555 1_555
H6F C6F 1_555 1_555
O10D C7D 1_555 1_555
O10F C7F 1_555 1_555
H1D C2D 1_555 1_555
H2D C2D 1_555 1_555
O8D_2 C3D 1_555 1_555
C4D N2D 1_555 1_555
O9D_2 C5D 1_555 1_555
H5D C6D 1_555 1_555
H6D C6D 1_555 1_555
K1_2 O8F_2 1_555 1_555
K1D O8D_2 1_555 1_555
H3D C4D 1_555 1_555
H4D C4D 1_555 1_555
N3 C5 1_555 1_555
C8 C9 1_555 1_555
C10 C11 1_555 1_555
N5B C12B 1_555 1_555
O9B K1B 1_555 1_555
K1B O11B 1_555 1_555
N6B C7B 1_555 1_555
N6B C13B 1_555 1_555
N2B C9D 1_555 1_555
N3B C4B 1_555 1_555
C11B C10D 1_555 1_555
N2F C3F 1_555 1_555
N3F C4F 1_555 1_555
N4F C5F 1_555 1_555
N5F C6F 1_555 1_555
N6F C2F 1_555 1_555
N6D C7D 1_555 1_555
N1D C2D 1_555 1_555
N5D C7F 1_555 1_555
N5D C6D 1_555 1_555
C3D N2D 1_555 1_555
N3D C5D 1_555 1_555
N3D C4D 1_555 1_555
O9F_2 K1_2 1_555 1_555
O9D_2 K1D 1_555 1_555

#END
