
#######################################################################
#
#                 Cambridge Crystallographic Data Centre
#                                CCDC 
#
#######################################################################
#
# If this CIF has been generated from an entry in the Cambridge 
# Structural Database, then it will include bibliographic, chemical, 
# crystal, experimental, refinement or atomic coordinate data resulting 
# from the CCDC's data processing and validation procedures.
#
#######################################################################

data_XAGYAH
_symmetry_cell_setting           monoclinic
_symmetry_space_group_name_H-M   'P 21/n'
_symmetry_Int_Tables_number      14
_space_group_name_Hall           '-P 2yn'
loop_
_symmetry_equiv_pos_site_id
_symmetry_equiv_pos_as_xyz
1 x,y,z
2 1/2-x,1/2+y,1/2-z
3 -x,-y,-z
4 1/2+x,1/2-y,1/2+z
_cell_length_a                   10.8870(5)
_cell_length_b                   6.3402(3)
_cell_length_c                   36.5153(18)
_cell_angle_alpha                90
_cell_angle_beta                 91.2850(10)
_cell_angle_gamma                90
_cell_volume                     2519.86
loop_
_atom_site_label
_atom_site_type_symbol
_atom_site_fract_x
_atom_site_fract_y
_atom_site_fract_z
C1 C 1.1497(5) 1.0843(9) 0.17547(16)
C2 C 1.0571(5) 1.1453(10) 0.19985(16)
C3 C 1.0863(6) 1.2884(10) 0.22772(16)
C4 C 1.2040(5) 1.3710(10) 0.23140(16)
H1 H 1.2232 1.4627 0.2506
C5 C 1.2921(5) 1.3173(10) 0.20676(16)
H2 H 1.3699 1.3771 0.2087
C6 C 1.2659(5) 1.1756(9) 0.17919(16)
H3 H 1.3266 1.1400 0.1628
C7 C 1.1253(5) 0.9173(10) 0.14715(17)
C8 C 1.1599(5) 0.9507(11) 0.11125(17)
H4 H 1.1976 1.0767 0.1049
C9 C 1.1384(6) 0.7966(11) 0.08480(16)
C10 C 1.0795(6) 0.6092(10) 0.09361(17)
C11 C 1.0478(5) 0.5721(9) 0.13038(14)
H5 H 1.0110 0.4454 0.1368
C12 C 1.0720(6) 0.7259(10) 0.15727(18)
H6 H 1.0527 0.7008 0.1816
C13 C 0.9279(5) 1.0696(10) 0.19593(16)
C14 C 0.9865(5) 1.3567(10) 0.25348(16)
C15 C 1.1715(6) 0.8451(11) 0.04590(17)
C16 C 1.0516(6) 0.4380(10) 0.06594(17)
Cd1 Cd 0.89759(4) 0.04769(8) 0.039071(12)
Cd2 Cd 0.68489(4) 0.96797(8) 0.196914(12)
O1 O 0.8670(4) 1.1091(7) 0.16692(11)
O2 O 0.8807(4) 0.9802(7) 0.22259(11)
O3 O 0.8937(4) 1.4471(7) 0.24030(11)
O4 O 1.0002(4) 1.3187(8) 0.28687(11)
O5 O 1.0838(4) 0.8934(7) 0.02359(11)
O6 O 1.2808(4) 0.8436(7) 0.03796(11)
O7 O 1.1268(4) 0.4141(7) 0.04101(11)
O8 O 0.9573(4) 0.3300(8) 0.07049(13)
O9 O 0.8215(4) -0.2851(7) 0.02591(11)
H7 H 0.8804 -0.3731 0.0257
H8 H 0.7707 -0.3207 0.0421
O10 O 0.7012(4) 0.1867(7) 0.03487(12)
H9 H 0.6711 0.1647 0.0135
H10 H 0.6563 0.1277 0.0506
O11 O 0.8362(4) -0.0549(8) 0.09666(13)
H11 H 0.8888 0.0035 0.1109
H12 H 0.8532 -0.1857 0.0974
O12 O 0.7575(4) 0.6202(7) 0.18204(11)
H13 H 0.7953 0.6243 0.1619
H14 H 0.8061 0.5771 0.1990
O13 O 0.6002(4) 0.9758(8) 0.13814(13)
H15 H 0.6079 1.0988 0.1292
H16 H 0.6373 0.8875 0.1248
O14 O 0.6056(4) 1.2997(7) 0.20604(11)
H17 H 0.6341 1.3496 0.2261
H18 H 0.6257 1.3797 0.1885
Cd1B Cd 1.10241(4) 0.95231(8) -0.039071(12)
Cd1_2 Cd 0.89759(4) 1.04769(8) 0.039071(12)
Cd2A Cd 0.81511(4) 1.46797(8) 0.303086(12)
O3A O 0.6063(4) 0.9471(7) 0.25970(11)
O4A O 0.4998(4) 0.8187(8) 0.21313(11)
O5B O 0.9162(4) 0.1066(7) -0.02359(11)
O5_2 O 1.0838(4) -0.1066(7) 0.02359(11)
O15 O 0.7624(10) 0.5283(19) 0.1077(3)
H19 H 0.7888 0.4033 0.1048
H20 H 0.6906 0.5387 0.0982
O16 O 0.5258(9) 0.3638(17) 0.1105(3)
H21 H 0.4966 0.3476 0.0889
H22 H 0.4709 0.4153 0.1241
O17 O 0.5429(10) 0.8264(18) 0.0515(3)
H23 H 0.5391 0.7190 0.0654
H24 H 0.4721 0.8527 0.0424
O18 O 0.4030(8) 0.6803(16) 0.1474(3)
H25 H 0.3675 0.7877 0.1563
H26 H 0.3512 0.5810 0.1446
O19 O 0.3800(10) 0.3244(18) 0.0493(3)
H27 H 0.3395 0.2119 0.0528
H28 H 0.4519 0.2933 0.0424
loop_
_geom_bond_atom_site_label_1
_geom_bond_atom_site_label_2
_geom_bond_site_symmetry_1
_geom_bond_site_symmetry_2
C1 C2 1_555 1_555
C2 C3 1_555 1_555
C3 C4 1_555 1_555
C4 H1 1_555 1_555
C5 C4 1_555 1_555
H2 C5 1_555 1_555
C6 C1 1_555 1_555
H3 C6 1_555 1_555
C7 C1 1_555 1_555
C8 C7 1_555 1_555
H4 C8 1_555 1_555
C9 C8 1_555 1_555
C10 C9 1_555 1_555
C11 C10 1_555 1_555
H5 C11 1_555 1_555
C12 C7 1_555 1_555
H6 C12 1_555 1_555
C13 C2 1_555 1_555
C14 C3 1_555 1_555
C15 C9 1_555 1_555
C16 C10 1_555 1_555
Cd1 O8 1_555 1_555
Cd2 O1 1_555 1_555
O1 C13 1_555 1_555
O2 C13 1_555 1_555
O3 C14 1_555 1_555
O4 C14 1_555 1_555
O5 C15 1_555 1_555
O6 C15 1_555 1_555
O7 C16 1_555 1_555
O8 C16 1_555 1_555
O9 Cd1 1_555 1_555
H7 O9 1_555 1_555
H8 O9 1_555 1_555
O10 Cd1 1_555 1_555
H9 O10 1_555 1_555
H10 O10 1_555 1_555
O11 Cd1 1_555 1_555
H11 O11 1_555 1_555
H12 O11 1_555 1_555
O12 Cd2 1_555 1_555
H13 O12 1_555 1_555
H14 O12 1_555 1_555
O13 Cd2 1_555 1_555
H15 O13 1_555 1_555
H16 O13 1_555 1_555
O14 Cd2 1_555 1_555
H17 O14 1_555 1_555
H18 O14 1_555 1_555
O15 H19 1_555 1_555
H20 O15 1_555 1_555
O16 H21 1_555 1_555
H22 O16 1_555 1_555
O17 H23 1_555 1_555
H24 O17 1_555 1_555
O18 H25 1_555 1_555
H26 O18 1_555 1_555
O19 H27 1_555 1_555
H28 O19 1_555 1_555
Cd1B O5 1_555 1_555
Cd1_2 O5 1_555 1_555
Cd2A O3 1_555 1_555
O3A Cd2 1_555 1_555
O4A Cd2 1_555 1_555
O5B Cd1 1_555 1_555
O5_2 Cd1 1_555 1_555
C5 C6 1_555 1_555
C11 C12 1_555 1_555
Cd2 O2 1_555 1_555
O4 Cd2A 1_555 1_555

#END
