
#######################################################################
#
#                 Cambridge Crystallographic Data Centre
#                                CCDC 
#
#######################################################################
#
# If this CIF has been generated from an entry in the Cambridge 
# Structural Database, then it will include bibliographic, chemical, 
# crystal, experimental, refinement or atomic coordinate data resulting 
# from the CCDC's data processing and validation procedures.
#
#######################################################################

data_XAGYEL
_symmetry_cell_setting           triclinic
_symmetry_space_group_name_H-M   'P -1'
_symmetry_Int_Tables_number      2
_space_group_name_Hall           '-P 1'
loop_
_symmetry_equiv_pos_site_id
_symmetry_equiv_pos_as_xyz
1 x,y,z
2 -x,-y,-z
_cell_length_a                   14.932(5)
_cell_length_b                   16.414(5)
_cell_length_c                   17.891(5)
_cell_angle_alpha                115.851(5)
_cell_angle_beta                 91.288(5)
_cell_angle_gamma                112.894(5)
_cell_volume                     3536.37
loop_
_atom_site_label
_atom_site_type_symbol
_atom_site_fract_x
_atom_site_fract_y
_atom_site_fract_z
C1 C 0.4986(3) 0.0371(2) -0.09059(18)
C2 C 0.4338(3) -0.0155(3) -0.18001(18)
H1 H 0.3829 0.0078 -0.1774
H2 H 0.4003 -0.0876 -0.1999
C3 C 0.4929(2) 0.0032(2) -0.24486(16)
H3 H 0.5170 0.0733 -0.2310
H4 H 0.5504 -0.0101 -0.2416
C4 C 0.4272(3) -0.0650(3) -0.33539(18)
H5 H 0.4059 -0.1345 -0.3483
H6 H 0.3677 -0.0544 -0.3358
C5 C 0.4719(2) -0.0525(2) -0.40715(18)
C6 C 0.7229(3) 0.0340(2) -0.4910(2)
H7 H 0.6913 0.0725 -0.4924
C7 C 0.8248(3) 0.0834(3) -0.4527(2)
H8 H 0.8600 0.1530 -0.4302
C8 C 0.8719(3) 0.0290(3) -0.4483(2)
H9 H 0.9399 0.0608 -0.4237
C9 C 0.81446(14) -0.08059(10) -0.48300(12)
C10 C 0.71398(14) -0.12409(13) -0.52196(12)
C11 C 0.65601(10) -0.22751(14) -0.55626(12)
C12 C 0.69851(14) -0.28744(10) -0.55159(12)
C13 C 0.79899(14) -0.24394(13) -0.51263(13)
C14 C 0.85696(11) -0.14051(14) -0.47834(13)
C15 C 0.5001(3) -0.3663(2) -0.6281(2)
H10 H 0.4335 -0.3925 -0.6543
C16 C 0.5356(3) -0.4331(3) -0.6268(2)
H11 H 0.4932 -0.5018 -0.6516
C17 C 0.6335(3) -0.3961(2) -0.5889(2)
H12 H 0.6584 -0.4391 -0.5867
C18 C 0.9524(3) -0.2010(3) -0.4537(2)
C19 C 1.0364(3) -0.2115(3) -0.4192(2)
C20 C 1.0749(3) -0.2753(3) -0.4723(2)
C21 C 1.1509(3) -0.2900(3) -0.4434(3)
H13 H 1.1752 -0.3322 -0.4812
C22 C 1.1896(3) -0.2394(3) -0.3562(3)
H14 H 1.2395 -0.2491 -0.3345
C23 C 1.1549(3) -0.1748(3) -0.3010(3)
H15 H 1.1821 -0.1404 -0.2426
C24 C 1.0799(3) -0.1611(3) -0.3326(2)
C25 C 0.2778(3) -0.3125(3) -0.6453(2)
H16 H 0.2815 -0.2839 -0.5869
C26 C 0.1888(3) -0.3936(3) -0.7003(2)
H17 H 0.1339 -0.4177 -0.6791
C27 C 0.1831(3) -0.4379(3) -0.7872(2)
H18 H 0.1248 -0.4935 -0.8251
C28 C 0.26963(11) -0.39669(14) -0.81919(10)
C29 C 0.35598(13) -0.31695(14) -0.75890(7)
C30 C 0.44036(11) -0.27381(13) -0.78516(9)
C31 C 0.43839(12) -0.31041(14) -0.87171(10)
C32 C 0.35204(14) -0.39014(14) -0.93199(7)
C33 C 0.26766(11) -0.43328(13) -0.90573(9)
C34 C 0.6112(3) -0.1637(2) -0.74733(19)
H19 H 0.6694 -0.1154 -0.7052
C35 C 0.6158(3) -0.1936(3) -0.8317(2)
H20 H 0.6759 -0.1653 -0.8454
C36 C 0.5312(3) -0.2654(3) -0.8951(2)
H21 H 0.5328 -0.2852 -0.9521
C37 C 0.2393(3) -0.5111(2) -1.04169(18)
C38 C 0.1872(3) -0.5863(2) -1.13220(19)
C39 C 0.0899(3) -0.6109(3) -1.1677(2)
C40 C 0.0442(4) -0.6794(4) -1.2542(3)
H22 H -0.0208 -0.6947 -1.2760
C41 C 0.0959(4) -0.7235(4) -1.3061(3)
H23 H 0.0667 -0.7671 -1.3639
C42 C 0.1910(4) -0.7041(4) -1.2736(3)
H24 H 0.2252 -0.7358 -1.3087
C43 C 0.2343(3) -0.6366(3) -1.1880(2)
C44 C 0.6976(3) 0.3046(3) 0.1350(2)
H25 H 0.6904 0.2747 0.0761
C45 C 0.7886(3) 0.3873(3) 0.1875(2)
H26 H 0.8410 0.4107 0.1637
C46 C 0.7997(3) 0.4337(3) 0.2750(2)
H27 H 0.8590 0.4896 0.3106
C47 C 0.71675(12) 0.39363(14) 0.31100(10)
C48 C 0.62907(14) 0.31252(14) 0.25361(7)
C49 C 0.54880(12) 0.26882(13) 0.28351(9)
C50 C 0.55621(12) 0.30622(14) 0.37082(10)
C51 C 0.64388(14) 0.38733(14) 0.42822(7)
C52 C 0.72415(12) 0.43103(13) 0.39831(9)
C53 C 0.3813(3) 0.1533(3) 0.2514(2)
H28 H 0.3221 0.1033 0.2112
C54 C 0.3830(3) 0.1822(3) 0.3372(2)
H29 H 0.3265 0.1506 0.3533
C55 C 0.4685(3) 0.2574(3) 0.3977(2)
H30 H 0.4707 0.2772 0.4552
C56 C 0.7592(3) 0.5100(2) 0.53530(19)
C57 C 0.8131(3) 0.5842(3) 0.6258(2)
C58 C 0.7675(4) 0.6395(3) 0.6810(2)
C59 C 0.8104(5) 0.7004(4) 0.7685(3)
H31 H 0.7790 0.7357 0.8041
C60 C 0.8990(5) 0.7083(4) 0.8022(3)
H32 H 0.9253 0.7461 0.8609
C61 C 0.9482(4) 0.6612(4) 0.7503(3)
H33 H 1.0101 0.6701 0.7729
C62 C 0.9053(3) 0.5993(3) 0.6627(2)
C63 C 0.2484(3) -0.0361(3) -0.0030(2)
H34 H 0.2778 -0.0732 0.0048
C64 C 0.1483(3) -0.0865(3) -0.0472(2)
H35 H 0.1126 -0.1559 -0.0691
C65 C 0.1038(3) -0.0324(2) -0.0577(2)
H36 H 0.0368 -0.0646 -0.0854
C66 C 0.16192(14) 0.07638(10) -0.02534(13)
C67 C 0.26127(15) 0.12017(13) 0.01672(12)
C68 C 0.32016(11) 0.22320(14) 0.04947(12)
C69 C 0.27970(14) 0.28244(10) 0.04017(12)
C70 C 0.18035(14) 0.23866(13) -0.00189(13)
C71 C 0.12146(11) 0.13563(14) -0.03464(13)
C72 C 0.4766(3) 0.3624(2) 0.1238(2)
H37 H 0.5421 0.3891 0.1529
C73 C 0.4430(3) 0.4278(3) 0.1164(2)
H38 H 0.4859 0.4962 0.1395
C74 C 0.3471(3) 0.3906(3) 0.0750(2)
H39 H 0.3243 0.4330 0.0688
C75 C 0.0264(2) 0.1945(3) -0.0613(2)
C76 C -0.0621(3) 0.2031(3) -0.0901(2)
C77 C -0.1224(3) 0.1405(3) -0.1728(2)
C78 C -0.2079(3) 0.1464(3) -0.1964(3)
H40 H -0.2468 0.1034 -0.2519
C79 C -0.2354(3) 0.2157(3) -0.1378(3)
H41 H -0.2925 0.2196 -0.1541
C80 C -0.1787(3) 0.2789(3) -0.0556(3)
H42 H -0.1965 0.3259 -0.0157
C81 C -0.0946(3) 0.2706(3) -0.0339(2)
O1 O 0.54769(19) -0.00348(18) -0.07558(14)
O2 O 0.4985(2) 0.11756(18) -0.03525(13)
O4 O 0.45152(19) -0.13175(17) -0.47552(13)
O5 O 0.52288(19) 0.03522(18) -0.39644(14)
Mn1 Mn 0.50436(4) -0.14650(3) -0.58738(3)
Mn2 Mn 0.46861(4) 0.14312(4) 0.08636(3)
Cl1 Cl 1.03744(14) -0.08166(14) -0.26116(7)
Cl2 Cl 0.96784(10) 0.54397(10) 0.60492(8)
Cl3 Cl -0.09015(12) 0.05328(11) -0.24939(7)
Cl4 Cl 0.02324(9) -0.55613(9) -1.10806(7)
F1 F 1.03442(19) -0.32494(18) -0.55887(13)
F2 F 0.32944(18) -0.6224(2) -1.15721(14)
F3 F -0.04073(18) 0.33013(17) 0.04912(13)
F4 F 0.67724(17) 0.64001(18) 0.64695(13)
N1 N 0.6689(2) -0.06538(19) -0.52572(16)
N2 N 0.55641(19) -0.26750(19) -0.59380(15)
N3 N 0.9539(2) -0.1144(2) -0.44154(17)
N4 N 0.8615(2) -0.2818(2) -0.49613(16)
H43 H 0.8458 -0.3436 -0.5099
N5 N 0.52819(19) -0.20040(19) -0.72345(15)
N6 N 0.3579(2) -0.27392(19) -0.67229(14)
N7 N 0.3318(2) -0.4380(2) -1.02081(15)
N8 N 0.1955(2) -0.51532(19) -0.97684(15)
N9 N 0.3033(2) 0.0630(2) 0.02836(16)
N10 N 0.4186(2) 0.26366(19) 0.09110(15)
N11 N 0.0255(2) 0.1093(2) -0.07241(17)
N12 N 0.1176(2) 0.2757(2) -0.01891(16)
H44 H 0.1330 0.3374 -0.0054
N13 N 0.6210(2) 0.2671(2) 0.16608(15)
N14 N 0.4593(2) 0.1935(2) 0.22470(15)
N15 N 0.7983(2) 0.51459(19) 0.46813(15)
N16 N 0.6684(2) 0.4356(2) 0.51691(15)
O1A O 0.45231(19) 0.00348(18) 0.07558(14)
O5A O 0.47712(19) -0.03522(18) -0.60356(14)
Mn1A Mn 0.49564(4) 0.14650(3) -0.41262(3)
Mn2A Mn 0.53139(4) -0.14312(4) -0.08636(3)
O3 O 1.1404(6) 0.0634(6) -0.3414(5)
loop_
_geom_bond_atom_site_label_1
_geom_bond_atom_site_label_2
_geom_bond_site_symmetry_1
_geom_bond_site_symmetry_2
C1 C2 1_555 1_555
C2 H1 1_555 1_555
H2 C2 1_555 1_555
C3 C2 1_555 1_555
H3 C3 1_555 1_555
H4 C3 1_555 1_555
C4 C3 1_555 1_555
H5 C4 1_555 1_555
H6 C4 1_555 1_555
C5 C4 1_555 1_555
C6 H7 1_555 1_555
C7 C6 1_555 1_555
H8 C7 1_555 1_555
C8 C7 1_555 1_555
H9 C8 1_555 1_555
C9 C8 1_555 1_555
C10 C9 1_555 1_555
C11 C10 1_555 1_555
C12 C11 1_555 1_555
C13 C12 1_555 1_555
C14 C9 1_555 1_555
C15 H10 1_555 1_555
C16 C15 1_555 1_555
H11 C16 1_555 1_555
C17 C12 1_555 1_555
H12 C17 1_555 1_555
C18 C19 1_555 1_555
C19 C20 1_555 1_555
C20 C21 1_555 1_555
C21 H13 1_555 1_555
C22 C21 1_555 1_555
H14 C22 1_555 1_555
C23 C22 1_555 1_555
H15 C23 1_555 1_555
C24 C19 1_555 1_555
C25 H16 1_555 1_555
C26 C25 1_555 1_555
H17 C26 1_555 1_555
C27 C26 1_555 1_555
H18 C27 1_555 1_555
C28 C27 1_555 1_555
C29 C28 1_555 1_555
C30 C29 1_555 1_555
C31 C30 1_555 1_555
C32 C31 1_555 1_555
C33 C28 1_555 1_555
C34 H19 1_555 1_555
C35 C34 1_555 1_555
H20 C35 1_555 1_555
C36 C31 1_555 1_555
H21 C36 1_555 1_555
C37 C38 1_555 1_555
C38 C39 1_555 1_555
C39 C40 1_555 1_555
C40 H22 1_555 1_555
C41 C40 1_555 1_555
H23 C41 1_555 1_555
C42 C41 1_555 1_555
H24 C42 1_555 1_555
C43 C38 1_555 1_555
C44 H25 1_555 1_555
C45 C44 1_555 1_555
H26 C45 1_555 1_555
C46 C45 1_555 1_555
H27 C46 1_555 1_555
C47 C46 1_555 1_555
C48 C47 1_555 1_555
C49 C48 1_555 1_555
C50 C49 1_555 1_555
C51 C50 1_555 1_555
C52 C47 1_555 1_555
C53 H28 1_555 1_555
C54 C53 1_555 1_555
H29 C54 1_555 1_555
C55 C50 1_555 1_555
H30 C55 1_555 1_555
C56 C57 1_555 1_555
C57 C58 1_555 1_555
C58 C59 1_555 1_555
C59 H31 1_555 1_555
C60 C59 1_555 1_555
H32 C60 1_555 1_555
C61 C60 1_555 1_555
H33 C61 1_555 1_555
C62 C57 1_555 1_555
C63 H34 1_555 1_555
C64 C63 1_555 1_555
H35 C64 1_555 1_555
C65 C64 1_555 1_555
H36 C65 1_555 1_555
C66 C65 1_555 1_555
C67 C66 1_555 1_555
C68 C67 1_555 1_555
C69 C68 1_555 1_555
C70 C69 1_555 1_555
C71 C66 1_555 1_555
C72 H37 1_555 1_555
C73 C72 1_555 1_555
H38 C73 1_555 1_555
C74 C69 1_555 1_555
H39 C74 1_555 1_555
C75 C76 1_555 1_555
C76 C77 1_555 1_555
C77 C78 1_555 1_555
C78 H40 1_555 1_555
C79 C78 1_555 1_555
H41 C79 1_555 1_555
C80 C79 1_555 1_555
H42 C80 1_555 1_555
C81 C76 1_555 1_555
O1 C1 1_555 1_555
O2 C1 1_555 1_555
O4 C5 1_555 1_555
O5 C5 1_555 1_555
Mn1 O4 1_555 1_555
Mn2 O2 1_555 1_555
Cl1 C24 1_555 1_555
Cl2 C62 1_555 1_555
Cl3 C77 1_555 1_555
Cl4 C39 1_555 1_555
F1 C20 1_555 1_555
F2 C43 1_555 1_555
F3 C81 1_555 1_555
F4 C58 1_555 1_555
N1 C6 1_555 1_555
N2 C11 1_555 1_555
N3 C14 1_555 1_555
N4 C13 1_555 1_555
H43 N4 1_555 1_555
N5 C30 1_555 1_555
N6 C25 1_555 1_555
N7 C32 1_555 1_555
N8 C33 1_555 1_555
N9 C63 1_555 1_555
N10 C68 1_555 1_555
N11 C71 1_555 1_555
N12 C70 1_555 1_555
H44 N12 1_555 1_555
N13 C44 1_555 1_555
N14 C49 1_555 1_555
N15 C52 1_555 1_555
N16 C51 1_555 1_555
O1A Mn2 1_555 1_555
O5A Mn1 1_555 1_555
Mn1A O5 1_555 1_555
Mn2A O1 1_555 1_555
C10 N1 1_555 1_555
C13 C14 1_555 1_555
C15 N2 1_555 1_555
C16 C17 1_555 1_555
C18 N3 1_555 1_555
C18 N4 1_555 1_555
C23 C24 1_555 1_555
C29 N6 1_555 1_555
C32 C33 1_555 1_555
C34 N5 1_555 1_555
C35 C36 1_555 1_555
C37 N7 1_555 1_555
C37 N8 1_555 1_555
C42 C43 1_555 1_555
C48 N13 1_555 1_555
C51 C52 1_555 1_555
C53 N14 1_555 1_555
C54 C55 1_555 1_555
C56 N15 1_555 1_555
C56 N16 1_555 1_555
C61 C62 1_555 1_555
C67 N9 1_555 1_555
C70 C71 1_555 1_555
C72 N10 1_555 1_555
C73 C74 1_555 1_555
C75 N11 1_555 1_555
C75 N12 1_555 1_555
C80 C81 1_555 1_555
Mn1 N1 1_555 1_555
Mn1 N2 1_555 1_555
Mn1 N5 1_555 1_555
Mn1 N6 1_555 1_555
Mn2 N9 1_555 1_555
Mn2 N10 1_555 1_555
Mn2 N13 1_555 1_555
Mn2 N14 1_555 1_555

#END
