
#######################################################################
#
#                 Cambridge Crystallographic Data Centre
#                                CCDC 
#
#######################################################################
#
# If this CIF has been generated from an entry in the Cambridge 
# Structural Database, then it will include bibliographic, chemical, 
# crystal, experimental, refinement or atomic coordinate data resulting 
# from the CCDC's data processing and validation procedures.
#
#######################################################################

data_XAHFUJ
_symmetry_cell_setting           monoclinic
_symmetry_space_group_name_H-M   'P 21/c'
_symmetry_Int_Tables_number      14
_space_group_name_Hall           '-P 2ybc'
loop_
_symmetry_equiv_pos_site_id
_symmetry_equiv_pos_as_xyz
1 x,y,z
2 -x,1/2+y,1/2-z
3 -x,-y,-z
4 x,1/2-y,1/2+z
_cell_length_a                   12.510(3)
_cell_length_b                   12.902(3)
_cell_length_c                   12.175(3)
_cell_angle_alpha                90
_cell_angle_beta                 116.431(3)
_cell_angle_gamma                90
_cell_volume                     1759.68
loop_
_atom_site_label
_atom_site_type_symbol
_atom_site_fract_x
_atom_site_fract_y
_atom_site_fract_z
Co1 Co 0.5000 0.5000 0.5000
Co2 Co 0.0000 0.5000 0.5000
N1 N 0.1275(2) 0.4821(2) 0.4260(2)
C1 C 0.2429(3) 0.5024(2) 0.4868(3)
H1 H 0.2758 0.5265 0.5673
N2 N 0.3111(2) 0.48644(18) 0.4267(2)
C2 C 0.2306(3) 0.4528(2) 0.3161(3)
N3 N 0.2491(2) 0.4271(2) 0.2192(2)
C3 C 0.1526(3) 0.3946(3) 0.1218(3)
H2 H 0.1621 0.3744 0.0528
C4 C 0.0376(3) 0.3886(3) 0.1171(3)
H3 H -0.0269 0.3648 0.0464
C5 C 0.0199(3) 0.4175(3) 0.2155(3)
H4 H -0.0560 0.4157 0.2146
N4 N 0.1196(2) 0.44928(19) 0.3155(2)
N5 N 0.4933(3) 0.7925(2) 0.3296(3)
C6 C 0.5210(3) 0.6947(3) 0.3580(3)
H5 H 0.5640 0.6566 0.3251
N6 N 0.4841(2) 0.65237(19) 0.4382(2)
C7 C 0.4285(3) 0.7312(2) 0.4636(3)
N7 N 0.3775(2) 0.7333(2) 0.5407(2)
C8 C 0.3292(3) 0.8230(3) 0.5479(3)
H6 H 0.2919 0.8276 0.5999
C9 C 0.3307(4) 0.9116(3) 0.4816(4)
H7 H 0.2954 0.9728 0.4903
C10 C 0.3842(4) 0.9078(3) 0.4054(3)
H8 H 0.3869 0.9652 0.3601
N8 N 0.4335(3) 0.8160(2) 0.3982(2)
N9 N 0.0802(3) 0.6374(2) 0.5772(3)
C11 C 0.1079(3) 0.7103(3) 0.6387(3)
S1 S 0.14715(11) 0.81137(8) 0.72709(10)
N10 N 0.1185(2) 0.4252(2) 0.6569(3)
C12 C 0.1842(3) 0.3809(3) 0.7415(3)
S2 S 0.27788(12) 0.32031(9) 0.86398(11)
O1 O 0.4986(2) 0.45490(17) 0.33351(19)
H9 H 0.4299(14) 0.442(3) 0.282(2)
H10 H 0.529(3) 0.3972(13) 0.340(3)
Co1_2 Co -0.5000 0.5000 0.5000
N1B N -0.1275(2) 0.5179(2) 0.5740(2)
C1B C -0.2429(3) 0.4976(2) 0.5132(3)
H1B H -0.2758 0.4735 0.4327
N2B N -0.3111(2) 0.51356(18) 0.5733(2)
N2B_2 N 0.6889(2) 0.51356(18) 0.5733(2)
C2B C -0.2306(3) 0.5472(2) 0.6839(3)
N3B N -0.2491(2) 0.5729(2) 0.7808(2)
C3B C -0.1526(3) 0.6054(3) 0.8782(3)
H2B H -0.1621 0.6256 0.9472
C4B C -0.0376(3) 0.6114(3) 0.8829(3)
H3B H 0.0269 0.6352 0.9536
C5B C -0.0199(3) 0.5825(3) 0.7845(3)
H4B H 0.0560 0.5843 0.7854
N4B N -0.1196(2) 0.55072(19) 0.6845(2)
N5B N 0.5067(3) 0.2075(2) 0.6704(3)
C6B C 0.4790(3) 0.3053(3) 0.6420(3)
H5B H 0.4360 0.3434 0.6749
N6B N 0.5159(2) 0.34763(19) 0.5618(2)
C7B C 0.5715(3) 0.2688(2) 0.5364(3)
N7B N 0.6225(2) 0.2667(2) 0.4593(2)
C8B C 0.6708(3) 0.1770(3) 0.4521(3)
H6B H 0.7081 0.1724 0.4001
C9B C 0.6693(4) 0.0884(3) 0.5184(4)
H7B H 0.7046 0.0272 0.5097
C10B C 0.6158(4) 0.0922(3) 0.5946(3)
H8B H 0.6131 0.0348 0.6399
N8B N 0.5665(3) 0.1840(2) 0.6018(2)
N9B N -0.0802(3) 0.3626(2) 0.4228(3)
C11B C -0.1079(3) 0.2897(3) 0.3613(3)
S1B S -0.14715(11) 0.18863(8) 0.27291(10)
N10B N -0.1185(2) 0.5748(2) 0.3431(3)
C12B C -0.1842(3) 0.6191(3) 0.2585(3)
S2B S -0.27788(12) 0.67969(9) 0.13602(11)
O1B O 0.5014(2) 0.54510(17) 0.66649(19)
H9B H 0.5701(14) 0.558(3) 0.718(2)
H10B H 0.471(3) 0.6028(13) 0.660(3)
loop_
_geom_bond_atom_site_label_1
_geom_bond_atom_site_label_2
_geom_bond_site_symmetry_1
_geom_bond_site_symmetry_2
Co1 N2 1_555 1_555
Co2 N1 1_555 1_555
N1 C1 1_555 1_555
C1 H1 1_555 1_555
N2 C1 1_555 1_555
C2 N2 1_555 1_555
N3 C2 1_555 1_555
C3 N3 1_555 1_555
H2 C3 1_555 1_555
C4 C3 1_555 1_555
H3 C4 1_555 1_555
C5 C4 1_555 1_555
H4 C5 1_555 1_555
N4 N1 1_555 1_555
N5 C6 1_555 1_555
C6 H5 1_555 1_555
N6 Co1 1_555 1_555
C7 N6 1_555 1_555
N7 C7 1_555 1_555
C8 N7 1_555 1_555
H6 C8 1_555 1_555
C9 C8 1_555 1_555
H7 C9 1_555 1_555
C10 C9 1_555 1_555
H8 C10 1_555 1_555
N8 N5 1_555 1_555
N9 Co2 1_555 1_555
C11 N9 1_555 1_555
S1 C11 1_555 1_555
N10 Co2 1_555 1_555
C12 N10 1_555 1_555
S2 C12 1_555 1_555
O1 Co1 1_555 1_555
H9 O1 1_555 1_555
H10 O1 1_555 1_555
Co1_2 N2B 1_555 1_555
N1B Co2 1_555 1_555
C1B N1B 1_555 1_555
H1B C1B 1_555 1_555
N2B C1B 1_555 1_555
N2B_2 Co1 1_555 1_555
C2B N2B 1_555 1_555
N3B C2B 1_555 1_555
C3B N3B 1_555 1_555
H2B C3B 1_555 1_555
C4B C3B 1_555 1_555
H3B C4B 1_555 1_555
C5B C4B 1_555 1_555
H4B C5B 1_555 1_555
N4B N1B 1_555 1_555
N5B C6B 1_555 1_555
C6B H5B 1_555 1_555
N6B Co1 1_555 1_555
C7B N6B 1_555 1_555
N7B C7B 1_555 1_555
C8B N7B 1_555 1_555
H6B C8B 1_555 1_555
C9B C8B 1_555 1_555
H7B C9B 1_555 1_555
C10B C9B 1_555 1_555
H8B C10B 1_555 1_555
N8B N5B 1_555 1_555
N9B Co2 1_555 1_555
C11B N9B 1_555 1_555
S1B C11B 1_555 1_555
N10B Co2 1_555 1_555
C12B N10B 1_555 1_555
S2B C12B 1_555 1_555
O1B Co1 1_555 1_555
H9B O1B 1_555 1_555
H10B O1B 1_555 1_555
C2 N4 1_555 1_555
C5 N4 1_555 1_555
C6 N6 1_555 1_555
C7 N8 1_555 1_555
C10 N8 1_555 1_555
C2B N4B 1_555 1_555
C5B N4B 1_555 1_555
C6B N6B 1_555 1_555
C7B N8B 1_555 1_555
C10B N8B 1_555 1_555

#END
