
#######################################################################
#
#                 Cambridge Crystallographic Data Centre
#                                CCDC 
#
#######################################################################
#
# If this CIF has been generated from an entry in the Cambridge 
# Structural Database, then it will include bibliographic, chemical, 
# crystal, experimental, refinement or atomic coordinate data resulting 
# from the CCDC's data processing and validation procedures.
#
#######################################################################

data_XAHGUK
_symmetry_cell_setting           triclinic
_symmetry_space_group_name_H-M   'P -1'
_symmetry_Int_Tables_number      2
_space_group_name_Hall           '-P 1'
loop_
_symmetry_equiv_pos_site_id
_symmetry_equiv_pos_as_xyz
1 x,y,z
2 -x,-y,-z
_cell_length_a                   3.6149(2)
_cell_length_b                   11.4499(7)
_cell_length_c                   12.1649(8)
_cell_angle_alpha                70.789(1)
_cell_angle_beta                 82.385(1)
_cell_angle_gamma                86.674(1)
_cell_volume                     471.22
loop_
_atom_site_label
_atom_site_type_symbol
_atom_site_fract_x
_atom_site_fract_y
_atom_site_fract_z
Cd1 Cd 0.31335(3) 0.498955(11) 0.368621(10)
N1 N 0.2529(5) 0.35730(17) 0.06991(15)
C1 C 0.2206(6) 0.4338(2) 0.13085(18)
H1 H 0.1363 0.5148 0.1002
N2 N 0.3224(5) 0.38859(16) 0.24027(15)
C2 C 0.4301(5) 0.27280(19) 0.25005(18)
N3 N 0.5547(6) 0.18556(18) 0.34162(17)
C3 C 0.6399(6) 0.0783(2) 0.3255(2)
H2 H 0.7231 0.0146 0.3880
C4 C 0.6124(7) 0.0535(2) 0.2215(2)
H3 H 0.6766 -0.0241 0.2150
C5 C 0.4857(7) 0.1429(2) 0.1300(2)
H4 H 0.4682 0.1309 0.0580
N4 N 0.3908(5) 0.25316(16) 0.14716(15)
N5 N 0.7741(4) 0.39338(15) 0.48685(14)
N6 N 0.8048(5) 0.28185(18) 0.53769(17)
N7 N 0.8355(8) 0.1790(2) 0.5854(2)
N8 N 0.8297(5) 0.62061(16) 0.27558(15)
N9 N 0.8655(5) 0.71559(17) 0.19777(16)
N10 N 0.9042(9) 0.8086(2) 0.1226(2)
Cd1A Cd 0.68665(3) 0.501045(11) 0.631379(10)
Cd1_2 Cd 1.31335(3) 0.498955(11) 0.368621(10)
Cd1A_2 Cd -0.31335(3) 0.501045(11) 0.631379(10)
N1A N 0.7471(5) 0.64270(17) 0.93009(15)
C1A C 0.7794(6) 0.5662(2) 0.86915(18)
H1A H 0.8637 0.4852 0.8998
N2A N 0.6776(5) 0.61141(16) 0.75973(15)
C2A C 0.5699(5) 0.72720(19) 0.74995(18)
N3A N 0.4453(6) 0.81444(18) 0.65838(17)
C3A C 0.3601(6) 0.9217(2) 0.6745(2)
H2A H 0.2769 0.9854 0.6120
C4A C 0.3876(7) 0.9465(2) 0.7785(2)
H3A H 0.3234 1.0241 0.7850
C5A C 0.5143(7) 0.8571(2) 0.8700(2)
H4A H 0.5318 0.8691 0.9420
N4A N 0.6092(5) 0.74684(16) 0.85284(15)
N5A N 0.2259(4) 0.60662(15) 0.51315(14)
N5_2 N -0.2259(4) 0.39338(15) 0.48685(14)
N5A_2 N 1.2259(4) 0.60662(15) 0.51315(14)
N6A N 0.1952(5) 0.71815(18) 0.46231(17)
N7A N 0.1645(8) 0.8210(2) 0.4146(2)
N8A N 0.1703(5) 0.37939(16) 0.72442(15)
N8_2 N -0.1703(5) 0.62061(16) 0.27558(15)
N8A_2 N 1.1703(5) 0.37939(16) 0.72442(15)
N9A N 0.1345(5) 0.28441(17) 0.80223(16)
N10A N 0.0958(9) 0.1914(2) 0.8774(2)
loop_
_geom_bond_atom_site_label_1
_geom_bond_atom_site_label_2
_geom_bond_site_symmetry_1
_geom_bond_site_symmetry_2
Cd1 N2 1_555 1_555
N1 C1 1_555 1_555
C1 H1 1_555 1_555
N2 C1 1_555 1_555
C2 N2 1_555 1_555
N3 C2 1_555 1_555
C3 N3 1_555 1_555
H2 C3 1_555 1_555
C4 C3 1_555 1_555
H3 C4 1_555 1_555
C5 C4 1_555 1_555
H4 C5 1_555 1_555
N4 N1 1_555 1_555
N5 Cd1 1_555 1_555
N6 N5 1_555 1_555
N7 N6 1_555 1_555
N8 Cd1 1_555 1_555
N9 N8 1_555 1_555
N10 N9 1_555 1_555
Cd1A N5 1_555 1_555
Cd1_2 N5 1_555 1_555
Cd1A_2 N5A 1_555 1_555
N1A C1A 1_555 1_555
C1A H1A 1_555 1_555
N2A Cd1A 1_555 1_555
C2A N2A 1_555 1_555
N3A C2A 1_555 1_555
C3A N3A 1_555 1_555
H2A C3A 1_555 1_555
C4A C3A 1_555 1_555
H3A C4A 1_555 1_555
C5A C4A 1_555 1_555
H4A C5A 1_555 1_555
N4A N1A 1_555 1_555
N5A Cd1 1_555 1_555
N5_2 Cd1 1_555 1_555
N5A_2 Cd1A 1_555 1_555
N6A N5A 1_555 1_555
N7A N6A 1_555 1_555
N8A Cd1A 1_555 1_555
N8_2 Cd1 1_555 1_555
N8A_2 Cd1A 1_555 1_555
N9A N8A 1_555 1_555
N10A N9A 1_555 1_555
C2 N4 1_555 1_555
C5 N4 1_555 1_555
N8 Cd1_2 1_555 1_555
Cd1A N5A 1_555 1_555
Cd1_2 N5A_2 1_555 1_555
Cd1A_2 N5_2 1_555 1_555
Cd1A_2 N8A 1_555 1_555
C1A N2A 1_555 1_555
C2A N4A 1_555 1_555
C5A N4A 1_555 1_555

#END
