
#######################################################################
#
#                 Cambridge Crystallographic Data Centre
#                                CCDC 
#
#######################################################################
#
# If this CIF has been generated from an entry in the Cambridge 
# Structural Database, then it will include bibliographic, chemical, 
# crystal, experimental, refinement or atomic coordinate data resulting 
# from the CCDC's data processing and validation procedures.
#
#######################################################################

data_XAHGOE
_symmetry_cell_setting           triclinic
_symmetry_space_group_name_H-M   'P -1'
_symmetry_Int_Tables_number      2
_space_group_name_Hall           '-P 1'
loop_
_symmetry_equiv_pos_site_id
_symmetry_equiv_pos_as_xyz
1 x,y,z
2 -x,-y,-z
_cell_length_a                   3.5617(4)
_cell_length_b                   11.4103(13)
_cell_length_c                   12.0524(14)
_cell_angle_alpha                71.286(2)
_cell_angle_beta                 83.404(2)
_cell_angle_gamma                87.609(2)
_cell_volume                     460.838
loop_
_atom_site_label
_atom_site_type_symbol
_atom_site_fract_x
_atom_site_fract_y
_atom_site_fract_z
Cd1 Cd 0.31178(4) 0.499923(15) 0.367558(14)
N1 N 0.2532(7) 0.3535(2) 0.0684(2)
C1 C 0.2222(8) 0.4296(3) 0.1305(2)
H1 H 0.1379 0.5106 0.0998
N2 N 0.3187(6) 0.3840(2) 0.24171(19)
C2 C 0.4230(7) 0.2677(2) 0.2514(2)
N3 N 0.5434(7) 0.1797(2) 0.3439(2)
C3 C 0.6249(9) 0.0724(3) 0.3274(3)
H2 H 0.7081 0.0087 0.3899
C4 C 0.5978(10) 0.0482(3) 0.2211(3)
H3 H 0.6620 -0.0294 0.2146
C5 C 0.4763(9) 0.1385(3) 0.1287(3)
H4 H 0.4588 0.1264 0.0567
N4 N 0.3850(7) 0.2488(2) 0.1466(2)
N5 N 0.7692(6) 0.3915(2) 0.48788(19)
C6 C 0.8072(9) 0.2807(3) 0.5394(3)
O1 O 0.8514(10) 0.1749(2) 0.5900(3)
N6 N 0.8290(6) 0.6207(2) 0.2672(2)
C7 C 0.8752(8) 0.7178(3) 0.1939(3)
O2 O 0.9291(10) 0.8153(2) 0.1202(2)
Cd1A Cd 0.68822(4) 0.500077(15) 0.632442(14)
Cd1_2 Cd 1.31178(4) 0.499923(15) 0.367558(14)
Cd1A_2 Cd -0.31178(4) 0.500077(15) 0.632442(14)
N1A N 0.7468(7) 0.6465(2) 0.9316(2)
C1A C 0.7778(8) 0.5704(3) 0.8695(2)
H1A H 0.8621 0.4894 0.9002
N2A N 0.6813(6) 0.6160(2) 0.75829(19)
C2A C 0.5770(7) 0.7323(2) 0.7486(2)
N3A N 0.4566(7) 0.8203(2) 0.6561(2)
C3A C 0.3751(9) 0.9276(3) 0.6726(3)
H2A H 0.2919 0.9913 0.6101
C4A C 0.4022(10) 0.9518(3) 0.7789(3)
H3A H 0.3380 1.0294 0.7854
C5A C 0.5237(9) 0.8615(3) 0.8713(3)
H4A H 0.5412 0.8736 0.9433
N4A N 0.6150(7) 0.7512(2) 0.8534(2)
N5A N 0.2308(6) 0.6085(2) 0.51212(19)
N5_2 N -0.2308(6) 0.3915(2) 0.48788(19)
N5A_2 N 1.2308(6) 0.6085(2) 0.51212(19)
C6A C 0.1928(9) 0.7193(3) 0.4606(3)
O1A O 0.1486(10) 0.8251(2) 0.4100(3)
N6A N 0.1710(6) 0.3793(2) 0.7328(2)
N6_2 N -0.1710(6) 0.6207(2) 0.2672(2)
N6A_2 N 1.1710(6) 0.3793(2) 0.7328(2)
C7A C 0.1248(8) 0.2822(3) 0.8061(3)
O2A O 0.0709(10) 0.1847(2) 0.8798(2)
loop_
_geom_bond_atom_site_label_1
_geom_bond_atom_site_label_2
_geom_bond_site_symmetry_1
_geom_bond_site_symmetry_2
Cd1 N2 1_555 1_555
N1 C1 1_555 1_555
C1 H1 1_555 1_555
N2 C1 1_555 1_555
C2 N2 1_555 1_555
N3 C2 1_555 1_555
C3 N3 1_555 1_555
H2 C3 1_555 1_555
C4 C3 1_555 1_555
H3 C4 1_555 1_555
C5 C4 1_555 1_555
H4 C5 1_555 1_555
N4 N1 1_555 1_555
N5 Cd1 1_555 1_555
C6 N5 1_555 1_555
O1 C6 1_555 1_555
N6 Cd1 1_555 1_555
C7 N6 1_555 1_555
O2 C7 1_555 1_555
Cd1A N5 1_555 1_555
Cd1_2 N5 1_555 1_555
Cd1A_2 N5A 1_555 1_555
N1A C1A 1_555 1_555
C1A H1A 1_555 1_555
N2A Cd1A 1_555 1_555
C2A N2A 1_555 1_555
N3A C2A 1_555 1_555
C3A N3A 1_555 1_555
H2A C3A 1_555 1_555
C4A C3A 1_555 1_555
H3A C4A 1_555 1_555
C5A C4A 1_555 1_555
H4A C5A 1_555 1_555
N4A N1A 1_555 1_555
N5A Cd1 1_555 1_555
N5_2 Cd1 1_555 1_555
N5A_2 Cd1A 1_555 1_555
C6A N5A 1_555 1_555
O1A C6A 1_555 1_555
N6A Cd1A 1_555 1_555
N6_2 Cd1 1_555 1_555
N6A_2 Cd1A 1_555 1_555
C7A N6A 1_555 1_555
O2A C7A 1_555 1_555
C2 N4 1_555 1_555
C5 N4 1_555 1_555
N6 Cd1_2 1_555 1_555
Cd1A N5A 1_555 1_555
Cd1_2 N5A_2 1_555 1_555
Cd1A_2 N5_2 1_555 1_555
Cd1A_2 N6A 1_555 1_555
C1A N2A 1_555 1_555
C2A N4A 1_555 1_555
C5A N4A 1_555 1_555

#END
