
#######################################################################
#
#                 Cambridge Crystallographic Data Centre
#                                CCDC 
#
#######################################################################
#
# If this CIF has been generated from an entry in the Cambridge 
# Structural Database, then it will include bibliographic, chemical, 
# crystal, experimental, refinement or atomic coordinate data resulting 
# from the CCDC's data processing and validation procedures.
#
#######################################################################

data_XAHKOH
_symmetry_cell_setting           monoclinic
_symmetry_space_group_name_H-M   'C 2/c'
_symmetry_Int_Tables_number      15
_space_group_name_Hall           '-C 2yn'
loop_
_symmetry_equiv_pos_site_id
_symmetry_equiv_pos_as_xyz
1 x,y,z
2 1/2+x,1/2+y,z
3 -x,y,1/2-z
4 1/2-x,1/2+y,1/2-z
5 -x,-y,-z
6 1/2-x,1/2-y,-z
7 x,-y,1/2+z
8 1/2+x,1/2-y,1/2+z
_cell_length_a                   15.852(3)
_cell_length_b                   8.435(2)
_cell_length_c                   14.076(3)
_cell_angle_alpha                90
_cell_angle_beta                 113.16(3)
_cell_angle_gamma                90
_cell_volume                     1730.44
loop_
_atom_site_label
_atom_site_type_symbol
_atom_site_fract_x
_atom_site_fract_y
_atom_site_fract_z
Cu1 Cu 0.0000 0.0000 0.0000
O1 O 0.01962(12) 0.2038(2) 0.07326(13)
O2 O -0.07014(13) 0.0979(2) 0.14352(13)
N1 N 0.11815(13) -0.0760(3) 0.10586(16)
C1 C -0.02144(16) 0.2072(3) 0.13535(17)
C2 C -0.00874(16) 0.3567(3) 0.19685(18)
C3 C -0.0182(2) 0.5008(3) 0.1455(2)
H1 H -0.0301 0.5014 0.0753
C4 C 0.14081(18) -0.0675(4) 0.2063(2)
H2 H 0.1044 -0.0218 0.2369
N2 N 0.22295(15) -0.1331(3) 0.25868(18)
C5 C 0.2545(2) -0.1875(5) 0.1883(3)
H3 H 0.3100 -0.2387 0.2022
C6 C 0.19004(19) -0.1532(5) 0.0945(2)
H4 H 0.1936 -0.1778 0.0318
C7 C -0.0101(3) 0.6429(4) 0.1970(3)
H5 H -0.0182 0.7382 0.1614
C8 C 0.2677(3) -0.1463(7) 0.3715(3)
H6 H 0.3254 -0.0915 0.3955
H7 H 0.2779 -0.2561 0.3906
H8 H 0.2291 -0.1001 0.4021
C2B C 0.00874(16) 0.3567(3) 0.30315(18)
C1B C 0.02144(16) 0.2072(3) 0.36465(17)
O1B O -0.01962(12) 0.2038(2) 0.42674(13)
O2B O 0.07014(13) 0.0979(2) 0.35648(13)
C3B C 0.0182(2) 0.5008(3) 0.3545(2)
H1B H 0.0301 0.5014 0.4247
C7B C 0.0101(3) 0.6429(4) 0.3030(3)
H5B H 0.0182 0.7382 0.3386
N1D N -0.11815(13) 0.0760(3) -0.10586(16)
C4D C -0.14081(18) 0.0675(4) -0.2063(2)
H2D H -0.1044 0.0218 -0.2369
N2D N -0.22295(15) 0.1331(3) -0.25868(18)
C5D C -0.2545(2) 0.1875(5) -0.1883(3)
H3D H -0.3100 0.2387 -0.2022
C6D C -0.19004(19) 0.1532(5) -0.0945(2)
H4D H -0.1936 0.1778 -0.0318
C8D C -0.2677(3) 0.1463(7) -0.3715(3)
H6D H -0.3254 0.0915 -0.3955
H7D H -0.2779 0.2561 -0.3906
H8D H -0.2291 0.1001 -0.4021
O1D O -0.01962(12) -0.2038(2) -0.07326(13)
Cu1F Cu 0.0000 0.0000 0.5000
loop_
_geom_bond_atom_site_label_1
_geom_bond_atom_site_label_2
_geom_bond_site_symmetry_1
_geom_bond_site_symmetry_2
Cu1 O1 1_555 1_555
O1 C1 1_555 1_555
O2 C1 1_555 1_555
N1 Cu1 1_555 1_555
C1 C2 1_555 1_555
C2 C3 1_555 1_555
C3 H1 1_555 1_555
C4 N1 1_555 1_555
H2 C4 1_555 1_555
N2 C4 1_555 1_555
C5 N2 1_555 1_555
H3 C5 1_555 1_555
C6 N1 1_555 1_555
H4 C6 1_555 1_555
C7 C3 1_555 1_555
H5 C7 1_555 1_555
C8 N2 1_555 1_555
H6 C8 1_555 1_555
H7 C8 1_555 1_555
H8 C8 1_555 1_555
C2B C2 1_555 1_555
C1B C2B 1_555 1_555
O1B C1B 1_555 1_555
O2B C1B 1_555 1_555
C3B C2B 1_555 1_555
H1B C3B 1_555 1_555
C7B C7 1_555 1_555
H5B C7B 1_555 1_555
N1D Cu1 1_555 1_555
C4D N1D 1_555 1_555
H2D C4D 1_555 1_555
N2D C4D 1_555 1_555
C5D N2D 1_555 1_555
H3D C5D 1_555 1_555
C6D N1D 1_555 1_555
H4D C6D 1_555 1_555
C8D N2D 1_555 1_555
H6D C8D 1_555 1_555
H7D C8D 1_555 1_555
H8D C8D 1_555 1_555
O1D Cu1 1_555 1_555
Cu1F O1B 1_555 1_555
C5 C6 1_555 1_555
C3B C7B 1_555 1_555
C5D C6D 1_555 1_555

#END
