
#######################################################################
#
#                 Cambridge Crystallographic Data Centre
#                                CCDC 
#
#######################################################################
#
# If this CIF has been generated from an entry in the Cambridge 
# Structural Database, then it will include bibliographic, chemical, 
# crystal, experimental, refinement or atomic coordinate data resulting 
# from the CCDC's data processing and validation procedures.
#
#######################################################################

data_XAHPUS
_symmetry_cell_setting           monoclinic
_symmetry_space_group_name_H-M   'P 21/c'
_symmetry_Int_Tables_number      14
_space_group_name_Hall           '-P 2ybc'
loop_
_symmetry_equiv_pos_site_id
_symmetry_equiv_pos_as_xyz
1 x,y,z
2 -x,1/2+y,1/2-z
3 -x,-y,-z
4 x,1/2-y,1/2+z
_cell_length_a                   11.268(2)
_cell_length_b                   9.895(3)
_cell_length_c                   14.994(3)
_cell_angle_alpha                90
_cell_angle_beta                 110.73(2)
_cell_angle_gamma                90
_cell_volume                     1563.55
loop_
_atom_site_label
_atom_site_type_symbol
_atom_site_fract_x
_atom_site_fract_y
_atom_site_fract_z
Cu1 Cu 0.03736(5) 0.20123(5) 0.70546(3)
C1 C 0.0298(4) 0.1962(3) 0.5202(3)
N1 N -0.0248(3) 0.1711(4) 0.4269(2)
H1 H 0.0093 0.1822 0.3844
C2 C -0.1463(4) 0.1242(4) 0.4111(3)
C3 C -0.2443(4) 0.0845(4) 0.3282(3)
H2 H -0.2342 0.0832 0.2693
C4 C -0.3568(4) 0.0472(4) 0.3382(3)
H3 H -0.4251 0.0227 0.2842
C5 C -0.3716(4) 0.0451(4) 0.4276(3)
H4 H -0.4485 0.0177 0.4315
C6 C -0.2730(4) 0.0834(4) 0.5105(3)
H5 H -0.2825 0.0822 0.5697
C7 C -0.1602(4) 0.1234(4) 0.5009(3)
N2 N -0.0463(3) 0.1692(3) 0.5680(2)
C8 C 0.1620(4) 0.2458(4) 0.5700(3)
H6 H 0.1838 0.3137 0.5317
H7 H 0.2219 0.1718 0.5813
N3 N 0.1652(3) 0.3053(3) 0.6624(2)
C9 C 0.2917(4) 0.2964(4) 0.7406(3)
H8 H 0.3260 0.3867 0.7566
H9 H 0.3492 0.2458 0.7179
C10 C 0.2854(4) 0.2285(4) 0.8300(3)
O1 O 0.1792(3) 0.1794(3) 0.8267(2)
O2 O 0.3844(3) 0.2258(4) 0.9005(2)
C11 C 0.1190(4) 0.4473(4) 0.6462(3)
H10 H 0.0523 0.4542 0.5841
H11 H 0.1880 0.5060 0.6463
C12 C 0.0683(3) 0.4938(4) 0.7224(2)
O3 O 0.0140(3) 0.4112(3) 0.7570(2)
O4 O 0.0801(3) 0.6204(3) 0.74092(19)
O4A O -0.0801(3) 0.1204(3) 0.75908(19)
Cu1A Cu -0.03736(5) 0.70123(5) 0.79454(3)
O5 O -0.4080(3) 0.4081(4) 0.3812(2)
H12 H -0.465(5) 0.356(6) 0.385(6)
H13 H -0.390(5) 0.375(5) 0.335(2)
O6 O 0.4671(4) 0.3179(4) 0.5976(2)
H14 H 0.463(8) 0.401(2) 0.610(6)
H15 H 0.435(7) 0.304(7) 0.5378(11)
O7 O -0.3618(3) 0.1401(3) 0.7130(2)
H16 H -0.2849(17) 0.161(5) 0.725(4)
H17 H -0.419(4) 0.194(4) 0.681(4)
O8 O -0.1862(4) 0.4582(4) 0.5450(3)
H18 H -0.260(2) 0.438(6) 0.506(3)
H19 H -0.225(5) 0.427(6) 0.580(4)
loop_
_geom_bond_atom_site_label_1
_geom_bond_atom_site_label_2
_geom_bond_site_symmetry_1
_geom_bond_site_symmetry_2
Cu1 N2 1_555 1_555
C1 N1 1_555 1_555
N1 H1 1_555 1_555
C2 N1 1_555 1_555
C3 C2 1_555 1_555
H2 C3 1_555 1_555
C4 C3 1_555 1_555
H3 C4 1_555 1_555
C5 C4 1_555 1_555
H4 C5 1_555 1_555
C6 C5 1_555 1_555
H5 C6 1_555 1_555
C7 C2 1_555 1_555
N2 C1 1_555 1_555
C8 C1 1_555 1_555
H6 C8 1_555 1_555
H7 C8 1_555 1_555
N3 Cu1 1_555 1_555
C9 N3 1_555 1_555
H8 C9 1_555 1_555
H9 C9 1_555 1_555
C10 C9 1_555 1_555
O1 Cu1 1_555 1_555
O2 C10 1_555 1_555
C11 N3 1_555 1_555
H10 C11 1_555 1_555
H11 C11 1_555 1_555
C12 C11 1_555 1_555
O3 Cu1 1_555 1_555
O4 C12 1_555 1_555
O5 H12 1_555 1_555
H13 O5 1_555 1_555
O6 H14 1_555 1_555
H15 O6 1_555 1_555
O7 H16 1_555 1_555
H17 O7 1_555 1_555
O8 H18 1_555 1_555
H19 O8 1_555 1_555
O4A Cu1 1_555 1_555
Cu1A O4 1_555 1_555
C6 C7 1_555 1_555
C7 N2 1_555 1_555
C8 N3 1_555 1_555
C10 O1 1_555 1_555
C12 O3 1_555 1_555

#END
