
#######################################################################
#
#                 Cambridge Crystallographic Data Centre
#                                CCDC 
#
#######################################################################
#
# If this CIF has been generated from an entry in the Cambridge 
# Structural Database, then it will include bibliographic, chemical, 
# crystal, experimental, refinement or atomic coordinate data resulting 
# from the CCDC's data processing and validation procedures.
#
#######################################################################

data_XAHRII
_symmetry_cell_setting           monoclinic
_symmetry_space_group_name_H-M   'P 21/n'
_symmetry_Int_Tables_number      14
_space_group_name_Hall           '-P 2yn'
loop_
_symmetry_equiv_pos_site_id
_symmetry_equiv_pos_as_xyz
1 x,y,z
2 1/2-x,1/2+y,1/2-z
3 -x,-y,-z
4 1/2+x,1/2-y,1/2+z
_cell_length_a                   8.5878(9)
_cell_length_b                   12.9197(13)
_cell_length_c                   9.7408(10)
_cell_angle_alpha                90
_cell_angle_beta                 92.830(2)
_cell_angle_gamma                90
_cell_volume                     1079.44
loop_
_atom_site_label
_atom_site_type_symbol
_atom_site_fract_x
_atom_site_fract_y
_atom_site_fract_z
Re1 Re 0.014131(14) 0.624283(10) 0.870799(12)
Cu1 Cu 0.16199(5) 0.79186(3) 1.18271(4)
O1 O 0.0084(3) 0.69669(19) 1.0206(2)
O2 O 0.1213(3) 0.5132(2) 0.8986(3)
O3 O 0.1055(3) 0.6969(2) 0.7489(3)
O4 O -0.1737(3) 0.5951(2) 0.8084(3)
O5 O 0.2788(3) 0.66947(19) 1.2492(2)
O6 O 0.4652(3) 0.55825(19) 1.1887(3)
O7 O 0.0595(3) 0.91719(19) 1.1133(3)
N1 N 0.3135(3) 0.7862(2) 1.0332(3)
N2 N 0.5116(3) 0.7350(2) 0.8296(3)
C1 C 0.3823(4) 0.6350(2) 1.1697(4)
C2 C 0.4001(4) 0.6994(2) 1.0418(3)
C3 C 0.3251(4) 0.8481(3) 0.9244(3)
H1 H 0.2650 0.9098 0.9171
C4 C 0.4257(4) 0.8221(2) 0.8210(3)
H2 H 0.4335 0.8665 0.7439
C5 C 0.4995(4) 0.6729(2) 0.9393(3)
H3 H 0.5588 0.6109 0.9467
H4 H -0.034(6) 0.912(4) 1.081(5)
H5 H 0.054(8) 0.965(6) 1.169(7)
O4C O 0.3263(3) 0.9049(2) 1.3084(3)
N2C N 0.0116(3) 0.7650(2) 1.3296(3)
Cu1C Cu -0.33801(5) 0.70814(3) 0.68271(4)
Cu1C_2 Cu 0.66199(5) 0.70814(3) 0.68271(4)
O8 O -0.7401(3) 0.5997(2) 0.5275(3)
H6 H -0.774(8) 0.640(5) 0.574(7)
H7 H -0.737(8) 0.625(4) 0.442(7)
loop_
_geom_bond_atom_site_label_1
_geom_bond_atom_site_label_2
_geom_bond_site_symmetry_1
_geom_bond_site_symmetry_2
Re1 O1 1_555 1_555
Cu1 O1 1_555 1_555
O2 Re1 1_555 1_555
O3 Re1 1_555 1_555
O4 Re1 1_555 1_555
O5 Cu1 1_555 1_555
O6 C1 1_555 1_555
O7 Cu1 1_555 1_555
N1 Cu1 1_555 1_555
N2 C4 1_555 1_555
C1 O5 1_555 1_555
C2 N1 1_555 1_555
C3 N1 1_555 1_555
H1 C3 1_555 1_555
C4 C3 1_555 1_555
H2 C4 1_555 1_555
C5 N2 1_555 1_555
H3 C5 1_555 1_555
H4 O7 1_555 1_555
H5 O7 1_555 1_555
O8 H6 1_555 1_555
H7 O8 1_555 1_555
O4C Cu1 1_555 1_555
N2C Cu1 1_555 1_555
Cu1C O4 1_555 1_555
Cu1C_2 N2 1_555 1_555
C1 C2 1_555 1_555
C2 C5 1_555 1_555

#END
