
#######################################################################
#
#                 Cambridge Crystallographic Data Centre
#                                CCDC 
#
#######################################################################
#
# If this CIF has been generated from an entry in the Cambridge 
# Structural Database, then it will include bibliographic, chemical, 
# crystal, experimental, refinement or atomic coordinate data resulting 
# from the CCDC's data processing and validation procedures.
#
#######################################################################

data_XAHSUV
_symmetry_cell_setting           monoclinic
_symmetry_space_group_name_H-M   'C 2/c'
_symmetry_Int_Tables_number      15
_space_group_name_Hall           '-C 2yn'
loop_
_symmetry_equiv_pos_site_id
_symmetry_equiv_pos_as_xyz
1 x,y,z
2 1/2+x,1/2+y,z
3 -x,y,1/2-z
4 1/2-x,1/2+y,1/2-z
5 -x,-y,-z
6 1/2-x,1/2-y,-z
7 x,-y,1/2+z
8 1/2+x,1/2-y,1/2+z
_cell_length_a                   26.824(5)
_cell_length_b                   10.116(2)
_cell_length_c                   24.316(5)
_cell_angle_alpha                90
_cell_angle_beta                 107.43(3)
_cell_angle_gamma                90
_cell_volume                     6295.22
loop_
_atom_site_label
_atom_site_type_symbol
_atom_site_fract_x
_atom_site_fract_y
_atom_site_fract_z
Hg1 Hg 0.627968(14) 0.98316(4) 0.026387(16)
I1 I 0.61344(2) 1.12151(7) -0.07018(3)
I2 I 0.65754(3) 0.97785(6) 0.14106(3)
N1 N 0.5490(3) 0.8512(7) 0.0067(3)
C1 C 0.5122(4) 0.8624(10) -0.0421(4)
H1 H 0.5162 0.9267 -0.0690
C2 C 0.4661(4) 0.7825(10) -0.0571(4)
H2 H 0.4399 0.7940 -0.0930
C3 C 0.4605(3) 0.6884(9) -0.0184(4)
C4 C 0.5007(3) 0.6778(9) 0.0327(4)
H3 H 0.4984 0.6142 0.0606
C5 C 0.5443(3) 0.7590(9) 0.0437(4)
H4 H 0.5716 0.7483 0.0789
C6 C 0.4136(3) 0.5995(9) -0.0303(4)
H5 H 0.4253 0.5069 -0.0310
H6 H 0.3983 0.6077 0.0019
N2 N 0.3730(3) 0.6266(8) -0.0839(3)
H7 H 0.3476 0.6815 -0.0838
C7 C 0.3733(3) 0.5695(10) -0.1339(4)
O1 O 0.4085(3) 0.4971(6) -0.1371(3)
C8 C 0.3263(3) 0.6102(10) -0.1864(4)
H8 H 0.3205 0.7066 -0.1852
H9 H 0.3346 0.5899 -0.2226
C9 C 0.2780(3) 0.5395(10) -0.1863(4)
C10 C 0.2795(3) 0.4001(10) -0.1899(4)
H10 H 0.3107 0.3573 -0.1909
C11 C 0.2348(4) 0.3242(11) -0.1920(4)
H11 H 0.2354 0.2306 -0.1947
C12 C 0.1905(4) 0.3890(11) -0.1901(4)
H12 H 0.1604 0.3388 -0.1911
C13 C 0.1883(4) 0.5252(9) -0.1867(4)
H13 H 0.1566 0.5666 -0.1864
C14 C 0.2316(3) 0.6018(9) -0.1838(4)
C15 C 0.2259(4) 0.7486(10) -0.1771(4)
H14 H 0.1891 0.7743 -0.1958
H15 H 0.2479 0.7958 -0.1970
C16 C 0.2420(3) 0.7908(9) -0.1138(4)
O2 O 0.2819(2) 0.7430(6) -0.0789(3)
N3 N 0.2126(3) 0.8777(7) -0.0973(3)
H16 H 0.1858 0.9146 -0.1228
C17 C 0.2252(3) 0.9114(9) -0.0372(4)
H17 H 0.2636 0.9087 -0.0200
H18 H 0.2101 0.8434 -0.0176
C18 C 0.2057(3) 1.0456(10) -0.0255(4)
C19 C 0.1902(4) 1.1447(10) -0.0662(4)
H19 H 0.1917 1.1315 -0.1044
C20 C 0.1722(4) 1.2666(10) -0.0501(5)
H20 H 0.1621 1.3348 -0.0782
C21 C 0.1839(3) 1.1930(9) 0.0417(4)
H21 H 0.1814 1.2076 0.0794
C22 C 0.2030(3) 1.0720(9) 0.0290(4)
H22 H 0.2143 1.0072 0.0584
N4 N 0.1689(3) 1.2889(7) 0.0023(3)
N4A N 0.6689(3) 0.7889(7) 0.0023(3)
Hg1A Hg 0.127968(14) 1.48316(4) 0.026387(16)
C23 C 0.4403(5) 0.2518(13) -0.2117(6)
H23 H 0.4749 0.2918 -0.1957
H24 H 0.4406 0.1932 -0.2438
H25 H 0.4314 0.2005 -0.1818
O3 O 0.4045(6) 0.3474(16) -0.2310(7)
H26 H 0.4042 0.3976 -0.2036
O4 O 0.6133(3) 0.4709(9) -0.1687(4)
H27 H 0.6015 0.4469 -0.2032
C24 C 0.5717(5) 0.4867(13) -0.1451(6)
H28 H 0.5752 0.4226 -0.1140
H29 H 0.5385 0.4721 -0.1752
H30 H 0.5724 0.5765 -0.1298
O5 O 0.0373(14) 0.371(4) -0.2163(14)
H31 H 0.0248 0.4519 -0.2925
H32 H 0.0134 0.3050 -0.3184
H33 H 0.0782 0.3515 -0.2185
C25 C 0.0408(13) 0.337(6) -0.270(2)
H34 H 0.0560 0.2474 -0.2686
C26? C 0.4403(5) 0.2518(13) -0.2117(6)
H35? H 0.4772 0.2373 -0.1910
H36? H 0.4307 0.2006 -0.2476
H37? H 0.4188 0.2233 -0.1876
O6? O 0.4316(6) 0.3872(13) -0.2247(6)
H38? H 0.4241 0.4254 -0.1976
C27? C -0.0118(19) 0.363(6) -0.214(2)
C28? C -0.0434(15) 0.309(7) -0.269(3)
H39? H -0.0480 0.2122 -0.2658
C29? C -0.0128(18) 0.340(5) -0.3072(13)
H40? H -0.0220 0.4280 -0.3248
H41? H -0.0184 0.2728 -0.3382
H42? H 0.0627 0.4008 -0.2827
loop_
_geom_bond_atom_site_label_1
_geom_bond_atom_site_label_2
_geom_bond_site_symmetry_1
_geom_bond_site_symmetry_2
Hg1 I1 1_555 1_555
I2 Hg1 1_555 1_555
N1 Hg1 1_555 1_555
C1 N1 1_555 1_555
H1 C1 1_555 1_555
C2 C1 1_555 1_555
H2 C2 1_555 1_555
C3 C2 1_555 1_555
C4 C3 1_555 1_555
H3 C4 1_555 1_555
C5 N1 1_555 1_555
H4 C5 1_555 1_555
C6 C3 1_555 1_555
H5 C6 1_555 1_555
H6 C6 1_555 1_555
N2 C6 1_555 1_555
H7 N2 1_555 1_555
C7 N2 1_555 1_555
O1 C7 1_555 1_555
C8 C7 1_555 1_555
H8 C8 1_555 1_555
H9 C8 1_555 1_555
C9 C8 1_555 1_555
C10 C9 1_555 1_555
H10 C10 1_555 1_555
C11 C10 1_555 1_555
H11 C11 1_555 1_555
C12 C11 1_555 1_555
H12 C12 1_555 1_555
C13 C12 1_555 1_555
H13 C13 1_555 1_555
C14 C9 1_555 1_555
C15 C14 1_555 1_555
H14 C15 1_555 1_555
H15 C15 1_555 1_555
C16 C15 1_555 1_555
O2 C16 1_555 1_555
N3 C16 1_555 1_555
H16 N3 1_555 1_555
C17 N3 1_555 1_555
H17 C17 1_555 1_555
H18 C17 1_555 1_555
C18 C17 1_555 1_555
C19 C18 1_555 1_555
H19 C19 1_555 1_555
C20 C19 1_555 1_555
H20 C20 1_555 1_555
C21 H21 1_555 1_555
C22 C18 1_555 1_555
H22 C22 1_555 1_555
N4 C20 1_555 1_555
C23 H23 1_555 1_555
H24 C23 1_555 1_555
H25 C23 1_555 1_555
O3 C23 1_555 1_555
H26 O3 1_555 1_555
O4 H27 1_555 1_555
C24 O4 1_555 1_555
H28 C24 1_555 1_555
H29 C24 1_555 1_555
H30 C24 1_555 1_555
O5 H33 1_555 1_555
H31 C25 1_555 1_555
H32 C25 1_555 1_555
C25 O5 1_555 1_555
H34 C25 1_555 1_555
N4A Hg1 1_555 1_555
Hg1A N4 1_555 1_555
C4 C5 1_555 1_555
C13 C14 1_555 1_555
C21 C22 1_555 1_555
C21 N4 1_555 1_555

#END
