
#######################################################################
#
#                 Cambridge Crystallographic Data Centre
#                                CCDC 
#
#######################################################################
#
# If this CIF has been generated from an entry in the Cambridge 
# Structural Database, then it will include bibliographic, chemical, 
# crystal, experimental, refinement or atomic coordinate data resulting 
# from the CCDC's data processing and validation procedures.
#
#######################################################################

data_XAHTOP
_symmetry_cell_setting           monoclinic
_symmetry_space_group_name_H-M   'P 21/c'
_symmetry_Int_Tables_number      14
_space_group_name_Hall           '-P 2ybc'
loop_
_symmetry_equiv_pos_site_id
_symmetry_equiv_pos_as_xyz
1 x,y,z
2 -x,1/2+y,1/2-z
3 -x,-y,-z
4 x,1/2-y,1/2+z
_cell_length_a                   9.603(2)
_cell_length_b                   15.914(3)
_cell_length_c                   15.723(3)
_cell_angle_alpha                90
_cell_angle_beta                 97.17(3)
_cell_angle_gamma                90
_cell_volume                     2384.03
loop_
_atom_site_label
_atom_site_type_symbol
_atom_site_fract_x
_atom_site_fract_y
_atom_site_fract_z
Co1 Co 0.38944(6) 0.17788(3) -0.11968(3)
O1 O 0.3551(3) 0.2658(2) -0.0244(2)
O2 O 0.2566(4) 0.3707(2) -0.1038(2)
O3 O 0.4247(3) 0.0835(2) -0.2100(2)
O4 O 0.5134(3) -0.0272(2) -0.1348(2)
N1 N -0.4135(3) 0.2671(2) 0.3605(2)
N2 N 0.1901(4) 0.1258(2) -0.0988(2)
N3 N -0.2199(4) 0.2462(2) 0.2970(2)
N4 N -0.0043(3) 0.1095(2) -0.0352(2)
C1 C -0.3485(4) 0.2828(3) 0.2937(3)
H1 H -0.3869(4) 0.3161(3) 0.2481(3)
C2 C -0.3211(4) 0.2151(2) 0.4124(2)
C3 C -0.3339(5) 0.1766(3) 0.4907(3)
H2 H -0.4123(5) 0.1852(3) 0.5189(3)
C4 C -0.2252(6) 0.1250(3) 0.5248(3)
H3 H -0.2328(6) 0.0969(3) 0.5758(3)
C5 C -0.1043(5) 0.1137(3) 0.4851(3)
H4 H -0.0329(5) 0.0795(3) 0.5112(3)
C6 C -0.0881(5) 0.1515(3) 0.4095(3)
H5 H -0.0074(5) 0.1442(3) 0.3832(3)
C7 C -0.1996(4) 0.2019(3) 0.3731(3)
C8 C -0.1273(5) 0.2474(3) 0.2302(3)
H6 H -0.0308(5) 0.2412(3) 0.2563(3)
H7 H -0.1357(5) 0.3012(3) 0.2010(3)
C9 C -0.1623(5) 0.1775(3) 0.1654(3)
H8 H -0.2548(5) 0.1871(3) 0.1345(3)
H9 H -0.1639(5) 0.1242(3) 0.1950(3)
C10 C -0.0541(5) 0.1739(3) 0.1019(3)
H10 H -0.0402(5) 0.2298(3) 0.0797(3)
H11 H 0.0351(5) 0.1544(3) 0.1310(3)
C11 C -0.1033(4) 0.1151(3) 0.0284(2)
H12 H -0.1169(4) 0.0595(3) 0.0512(2)
H13 H -0.1932(4) 0.1345(3) 0.0004(2)
C12 C 0.1300(4) 0.1382(3) -0.0288(2)
H14 H 0.1752(4) 0.1639(3) 0.0201(2)
C13 C 0.0868(4) 0.0869(2) -0.1557(2)
C14 C 0.0900(5) 0.0598(3) -0.2399(3)
H15 H 0.1686(5) 0.0679(3) -0.2679(3)
C15 C -0.0297(5) 0.0203(3) -0.2798(3)
H16 H -0.0305(5) 0.0011(3) -0.3358(3)
C16 C -0.1481(5) 0.0085(3) -0.2390(3)
H17 H -0.2253(5) -0.0189(3) -0.2680(3)
C17 C -0.1544(5) 0.0362(3) -0.1564(3)
H18 H -0.2339(5) 0.0287(3) -0.1290(3)
C18 C -0.0349(4) 0.0760(2) -0.1167(2)
C19 C 0.3032(5) 0.3386(3) -0.0341(3)
C20 C 0.2980(7) 0.3885(4) 0.0466(3)
H19 H 0.3373(7) 0.3559(4) 0.0951(3)
H20 H 0.3510(7) 0.4394(4) 0.0438(3)
H21 H 0.2023(7) 0.4022(4) 0.0524(3)
C21 C 0.4618(4) 0.0079(3) -0.2035(2)
C22 C 0.4455(5) -0.0444(3) -0.2842(3)
H22 H 0.4053(5) -0.0106(3) -0.3316(3)
H23 H 0.5359(5) -0.0645(3) -0.2951(3)
H24 H 0.3851(5) -0.0913(3) -0.2772(3)
O5 O 0.2788(3) 0.2509(2) -0.2180(2)
O6 O 0.5119(3) 0.1013(2) -0.0253(2)
Co1C Co -0.61056(6) 0.32212(3) 0.38032(3)
N1C N 0.5865(3) 0.2329(2) -0.1395(2)
O7 O -0.5960(5) 0.1992(2) 0.1411(2)
loop_
_geom_bond_atom_site_label_1
_geom_bond_atom_site_label_2
_geom_bond_site_symmetry_1
_geom_bond_site_symmetry_2
Co1 O1 1_555 1_555
O1 C19 1_555 1_555
O2 C19 1_555 1_555
O3 Co1 1_555 1_555
O4 C21 1_555 1_555
N1 C1 1_555 1_555
N2 Co1 1_555 1_555
N3 C1 1_555 1_555
N4 C11 1_555 1_555
C1 H1 1_555 1_555
C2 N1 1_555 1_555
C3 C2 1_555 1_555
H2 C3 1_555 1_555
C4 C3 1_555 1_555
H3 C4 1_555 1_555
C5 C4 1_555 1_555
H4 C5 1_555 1_555
C6 C5 1_555 1_555
H5 C6 1_555 1_555
C7 N3 1_555 1_555
C8 N3 1_555 1_555
H6 C8 1_555 1_555
H7 C8 1_555 1_555
C9 C8 1_555 1_555
H8 C9 1_555 1_555
H9 C9 1_555 1_555
C10 C9 1_555 1_555
H10 C10 1_555 1_555
H11 C10 1_555 1_555
C11 C10 1_555 1_555
H12 C11 1_555 1_555
H13 C11 1_555 1_555
C12 N2 1_555 1_555
H14 C12 1_555 1_555
C13 N2 1_555 1_555
C14 C13 1_555 1_555
H15 C14 1_555 1_555
C15 C14 1_555 1_555
H16 C15 1_555 1_555
C16 C15 1_555 1_555
H17 C16 1_555 1_555
C17 C16 1_555 1_555
H18 C17 1_555 1_555
C18 N4 1_555 1_555
C19 C20 1_555 1_555
C20 H19 1_555 1_555
H20 C20 1_555 1_555
H21 C20 1_555 1_555
C21 O3 1_555 1_555
C22 C21 1_555 1_555
H22 C22 1_555 1_555
H23 C22 1_555 1_555
H24 C22 1_555 1_555
O5 Co1 1_555 1_555
O6 Co1 1_555 1_555
Co1C N1 1_555 1_555
N1C Co1 1_555 1_555
N4 C12 1_555 1_555
C2 C7 1_555 1_555
C6 C7 1_555 1_555
C13 C18 1_555 1_555
C17 C18 1_555 1_555

#END
