
#######################################################################
#
#                 Cambridge Crystallographic Data Centre
#                                CCDC 
#
#######################################################################
#
# If this CIF has been generated from an entry in the Cambridge 
# Structural Database, then it will include bibliographic, chemical, 
# crystal, experimental, refinement or atomic coordinate data resulting 
# from the CCDC's data processing and validation procedures.
#
#######################################################################

data_XAHTUW
_symmetry_cell_setting           triclinic
_symmetry_space_group_name_H-M   'P -1'
_symmetry_Int_Tables_number      2
_space_group_name_Hall           '-P 1'
loop_
_symmetry_equiv_pos_site_id
_symmetry_equiv_pos_as_xyz
1 x,y,z
2 -x,-y,-z
_cell_length_a                   7.6580(7)
_cell_length_b                   11.3929(11)
_cell_length_c                   11.9910(11)
_cell_angle_alpha                73.251(2)
_cell_angle_beta                 81.241(2)
_cell_angle_gamma                77.1660(10)
_cell_volume                     972.392
loop_
_atom_site_label
_atom_site_type_symbol
_atom_site_fract_x
_atom_site_fract_y
_atom_site_fract_z
Nd1 Nd 0.55529(7) 0.29990(5) 0.56410(4)
P1 P 1.4187(3) 0.4871(2) 0.27194(19)
S1 S 0.0917(3) -0.0715(2) 1.26091(19)
N1 N 1.0904(10) 0.4149(7) 0.2680(7)
H1 H 1.1343 0.3472 0.3252
C1 C 1.2475(12) 0.4645(9) 0.1920(7)
H2 H 1.3046 0.4071 0.1453
H3 H 1.2023 0.5438 0.1386
C2 C 0.9713(14) 0.5093(9) 0.3256(9)
H4 H 1.0434 0.5413 0.3657
H5 H 0.9131 0.5788 0.2666
C3 C 0.8292(12) 0.4487(9) 0.4129(8)
C4 C 0.9861(15) 0.3732(12) 0.1956(10)
H6 H 1.0643 0.3127 0.1602
H7 H 0.8903 0.3364 0.2445
H8 H 0.9366 0.4437 0.1356
C5 C 0.1823(12) -0.0416(8) 1.1120(8)
C6 C 0.2252(12) -0.1370(8) 1.0591(7)
H9 H 0.2021 -0.2157 1.0996
C7 C 0.3029(13) -0.1159(9) 0.9449(8)
C8 C 0.3364(13) 0.0029(8) 0.8835(8)
H10 H 0.3867 0.0176 0.8063
C9 C 0.2942(12) 0.0977(8) 0.9385(7)
C10 C 0.2151(12) 0.0777(8) 1.0521(8)
H11 H 0.1841 0.1425 1.0883
C11 C 0.3612(13) -0.2161(9) 0.8834(8)
C12 C 0.3363(12) 0.2241(9) 0.8717(8)
O1 O 0.8616(9) 0.3349(6) 0.4583(6)
O2 O 0.6840(9) 0.5188(7) 0.4353(6)
O3 O 0.4530(12) -0.2025(7) 0.7908(6)
O4 O 0.3066(10) -0.3228(6) 0.9365(6)
H12 H 0.3471 -0.3735 0.8980
O5 O 0.3159(11) 0.3054(6) 0.9293(6)
O6 O 0.3848(10) 0.2420(7) 0.7656(6)
O7 O -0.0081(10) 0.0460(7) 1.2795(6)
O8 O 0.2505(9) -0.1150(6) 1.3279(5)
O9 O -0.0127(10) -0.1678(7) 1.2785(6)
O10 O 1.5762(9) 0.4966(6) 0.1750(6)
H13 H 1.5913 0.5690 0.1516
O11 O 1.3481(8) 0.6074(6) 0.3079(5)
O12 O 1.4546(9) 0.3721(6) 0.3723(5)
O13 O 0.3185(12) 0.1825(9) 0.5723(7)
O14 O 0.6712(12) 0.1411(8) 0.4410(7)
O2A O 0.3160(9) 0.4812(7) 0.5647(6)
O8A O 0.7495(9) 0.1150(6) 0.6721(5)
O11A O 0.6519(8) 0.3926(6) 0.6921(5)
O12_2 O 0.4546(9) 0.3721(6) 0.3723(5)
Nd1A Nd 0.44471(7) 0.70010(5) 0.43590(4)
Nd1A_2 Nd 0.44471(7) -0.29990(5) 1.43590(4)
Nd1A_3 Nd 1.44471(7) 0.70010(5) 0.43590(4)
Nd1_2 Nd 1.55529(7) 0.29990(5) 0.56410(4)
O15 O 0.2382(12) 0.1559(8) 0.3655(8)
loop_
_geom_bond_atom_site_label_1
_geom_bond_atom_site_label_2
_geom_bond_site_symmetry_1
_geom_bond_site_symmetry_2
Nd1 O1 1_555 1_555
P1 C1 1_555 1_555
S1 C5 1_555 1_555
N1 H1 1_555 1_555
C1 N1 1_555 1_555
H2 C1 1_555 1_555
H3 C1 1_555 1_555
C2 N1 1_555 1_555
H4 C2 1_555 1_555
H5 C2 1_555 1_555
C3 C2 1_555 1_555
C4 N1 1_555 1_555
H6 C4 1_555 1_555
H7 C4 1_555 1_555
H8 C4 1_555 1_555
C5 C6 1_555 1_555
C6 H9 1_555 1_555
C7 C6 1_555 1_555
C8 C7 1_555 1_555
H10 C8 1_555 1_555
C9 C8 1_555 1_555
C10 C5 1_555 1_555
H11 C10 1_555 1_555
C11 C7 1_555 1_555
C12 C9 1_555 1_555
O1 C3 1_555 1_555
O2 Nd1 1_555 1_555
O3 C11 1_555 1_555
O4 C11 1_555 1_555
H12 O4 1_555 1_555
O5 C12 1_555 1_555
O6 Nd1 1_555 1_555
O7 S1 1_555 1_555
O8 S1 1_555 1_555
O9 S1 1_555 1_555
O10 P1 1_555 1_555
H13 O10 1_555 1_555
O11 P1 1_555 1_555
O12 P1 1_555 1_555
O13 Nd1 1_555 1_555
O14 Nd1 1_555 1_555
O2A Nd1 1_555 1_555
O8A Nd1 1_555 1_555
O11A Nd1 1_555 1_555
O12_2 Nd1 1_555 1_555
Nd1A O2 1_555 1_555
Nd1A_2 O8 1_555 1_555
Nd1A_3 O11 1_555 1_555
Nd1_2 O12 1_555 1_555
C3 O2 1_555 1_555
C9 C10 1_555 1_555
C12 O6 1_555 1_555
O2A Nd1A 1_555 1_555

#END
