
#######################################################################
#
#                 Cambridge Crystallographic Data Centre
#                                CCDC 
#
#######################################################################
#
# If this CIF has been generated from an entry in the Cambridge 
# Structural Database, then it will include bibliographic, chemical, 
# crystal, experimental, refinement or atomic coordinate data resulting 
# from the CCDC's data processing and validation procedures.
#
#######################################################################

data_XAHTIJ
_symmetry_cell_setting           monoclinic
_symmetry_space_group_name_H-M   'P 2/n'
_symmetry_Int_Tables_number      13
_space_group_name_Hall           '-P 2yac'
loop_
_symmetry_equiv_pos_site_id
_symmetry_equiv_pos_as_xyz
1 x,y,z
2 1/2-x,y,1/2-z
3 -x,-y,-z
4 1/2+x,-y,1/2+z
_cell_length_a                   15.290(3)
_cell_length_b                   9.609(2)
_cell_length_c                   16.956(3)
_cell_angle_alpha                90
_cell_angle_beta                 97.93(3)
_cell_angle_gamma                90
_cell_volume                     2467.38
loop_
_atom_site_label
_atom_site_type_symbol
_atom_site_fract_x
_atom_site_fract_y
_atom_site_fract_z
Co1 Co 0.7500 0.66328(11) 0.7500
N1 N 0.6465(3) 0.6739(5) 0.8222(2)
N2 N 0.5813(3) 0.7423(5) 0.9256(2)
N3 N 0.8456(3) 0.6685(5) 0.8564(2)
N4 N 0.9625(3) 0.7445(5) 0.9382(2)
C1 C 0.6475(4) 0.7615(6) 0.8830(3)
H1 H 0.6903(4) 0.8299(6) 0.8947(3)
C2 C 0.5303(4) 0.6337(6) 0.8914(3)
C3 C 0.4534(4) 0.5728(7) 0.9099(3)
H2 H 0.4254(4) 0.6048(7) 0.9518(3)
C4 C 0.4208(5) 0.4625(8) 0.8631(4)
H3 H 0.3697(5) 0.4182(8) 0.8738(4)
C5 C 0.4629(4) 0.4150(7) 0.7992(4)
H4 H 0.4394(4) 0.3391(7) 0.7695(4)
C6 C 0.5376(4) 0.4776(6) 0.7798(3)
H5 H 0.5645(4) 0.4466(6) 0.7371(3)
C7 C 0.5719(4) 0.5907(6) 0.8270(3)
C8 C 0.5627(4) 0.8284(7) 0.9926(3)
H6 H 0.6180(4) 0.8582(7) 1.0228(3)
H7 H 0.5315(4) 0.7728(7) 1.0275(3)
C9 C 0.5085(4) 0.9537(6) 0.9661(3)
H8 H 0.4524(4) 0.9235(6) 0.9375(3)
H9 H 0.5387(4) 1.0070(6) 0.9295(3)
C10 C 0.9167(3) 0.7472(6) 0.8644(3)
H10 H 0.9338(3) 0.7997(6) 0.8230(3)
C11 C 0.9183(4) 0.6549(6) 0.9825(3)
C12 C 0.9364(4) 0.6105(7) 1.0614(3)
H11 H 0.9858(4) 0.6415(7) 1.0951(3)
C13 C 0.8781(5) 0.5197(7) 1.0866(3)
H12 H 0.8879(5) 0.4880(7) 1.1389(3)
C14 C 0.8039(4) 0.4725(6) 1.0365(3)
H13 H 0.7655(4) 0.4109(6) 1.0565(3)
C15 C 0.7861(4) 0.5145(6) 0.9584(3)
H14 H 0.7368(4) 0.4821(6) 0.9251(3)
C16 C 0.8454(4) 0.6082(6) 0.9313(3)
C17 C 1.0447(3) 0.8216(6) 0.9679(3)
H15 H 1.0714(3) 0.8556(6) 0.9229(3)
H16 H 1.0863(3) 0.7585(6) 0.9979(3)
C18 C 1.0270(5) 0.9453(7) 1.0213(4)
H17 H 0.9975(5) 0.9114(7) 1.0646(4)
H18 H 1.0831(5) 0.9850(7) 1.0443(4)
O1 O 0.7500 0.4456(5) 0.7500
O2 O 0.7500 0.8925(6) 0.7500
N1A N 0.8535(3) 0.6739(5) 0.6778(2)
N3A N 0.6544(3) 0.6685(5) 0.6436(2)
C9B C 0.4915(4) 1.0463(6) 1.0339(3)
C18B C 0.9730(5) 1.0547(7) 0.9787(4)
C8B C 0.4373(4) 1.1716(7) 1.0074(3)
H8B H 0.5476(4) 1.0765(6) 1.0625(3)
H9B H 0.4613(4) 0.9930(6) 1.0705(3)
C17B C 0.9553(3) 1.1784(6) 1.0321(3)
H17B H 1.0025(5) 1.0886(7) 0.9354(4)
H18B H 0.9169(5) 1.0150(7) 0.9557(4)
N2B N 0.4187(3) 1.2577(5) 1.0744(2)
H6B H 0.3820(4) 1.1418(7) 0.9772(3)
H7B H 0.4685(4) 1.2272(7) 0.9725(3)
N4B N 1.0375(3) 1.2555(5) 1.0618(2)
H15B H 0.9286(3) 1.1444(6) 1.0771(3)
H16B H 0.9137(3) 1.2415(6) 1.0021(3)
C1B C 0.3525(4) 1.2385(6) 1.1170(3)
C2B C 0.4697(4) 1.3663(6) 1.1086(3)
C10B C 1.0833(3) 1.2528(6) 1.1356(3)
C11B C 1.0817(4) 1.3451(6) 1.0175(3)
N1B N 0.3535(3) 1.3261(5) 1.1778(2)
H1B H 0.3097(4) 1.1701(6) 1.1053(3)
C3B C 0.5466(4) 1.4272(7) 1.0901(3)
C7B C 0.4281(4) 1.4093(6) 1.1730(3)
N3B N 1.1544(3) 1.3315(5) 1.1436(2)
H10B H 1.0662(3) 1.2003(6) 1.1770(3)
C12B C 1.0636(4) 1.3895(7) 0.9386(3)
C16B C 1.1546(4) 1.3918(6) 1.0687(3)
Co1C Co 0.2500 1.33672(11) 1.2500
H2B H 0.5746(4) 1.3952(7) 1.0482(3)
C4B C 0.5792(5) 1.5375(8) 1.1369(4)
C6B C 0.4624(4) 1.5224(6) 1.2202(3)
Co1C_2 Co 1.2500 1.33672(11) 1.2500
H11B H 1.0142(4) 1.3585(7) 0.9049(3)
C13B C 1.1219(5) 1.4803(7) 0.9134(3)
C15B C 1.2139(4) 1.4855(6) 1.0416(3)
H3B H 0.6303(5) 1.5818(8) 1.1262(4)
C5B C 0.5371(4) 1.5850(7) 1.2008(4)
H5B H 0.4355(4) 1.5534(6) 1.2629(3)
H12B H 1.1121(5) 1.5120(7) 0.8611(3)
C14B C 1.1961(4) 1.5275(6) 0.9635(3)
H14B H 1.2632(4) 1.5179(6) 1.0749(3)
H4B H 0.5606(4) 1.6609(7) 1.2305(4)
H13B H 1.2345(4) 1.5891(6) 0.9435(3)
O3 O 0.7513(4) 0.0611(8) 0.5561(5)
O4 O 0.8438(5) 0.2183(7) 0.5617(4)
O5 O 0.7885(4) 0.1401(7) 0.4493(3)
N5 N 0.7941(5) 0.1399(9) 0.5213(5)
O6 O 0.8427(3) 0.2486(4) 0.8408(2)
O7 O 0.6123(3) 1.0726(4) 0.7790(2)
O8 O 1.0575(4) 0.9788(9) 0.7595(4)
O9 O 0.6922(6) -0.1137(13) 0.3785(5)
loop_
_geom_bond_atom_site_label_1
_geom_bond_atom_site_label_2
_geom_bond_site_symmetry_1
_geom_bond_site_symmetry_2
Co1 N1 1_555 1_555
N1 C1 1_555 1_555
N2 C1 1_555 1_555
N3 Co1 1_555 1_555
N4 C10 1_555 1_555
C1 H1 1_555 1_555
C2 N2 1_555 1_555
C3 C2 1_555 1_555
H2 C3 1_555 1_555
C4 C3 1_555 1_555
H3 C4 1_555 1_555
C5 C4 1_555 1_555
H4 C5 1_555 1_555
C6 C5 1_555 1_555
H5 C6 1_555 1_555
C7 N1 1_555 1_555
C8 N2 1_555 1_555
H6 C8 1_555 1_555
H7 C8 1_555 1_555
C9 C8 1_555 1_555
H8 C9 1_555 1_555
H9 C9 1_555 1_555
C10 N3 1_555 1_555
H10 C10 1_555 1_555
C11 N4 1_555 1_555
C12 C11 1_555 1_555
H11 C12 1_555 1_555
C13 C12 1_555 1_555
H12 C13 1_555 1_555
C14 C13 1_555 1_555
H13 C14 1_555 1_555
C15 C14 1_555 1_555
H14 C15 1_555 1_555
C16 N3 1_555 1_555
C17 N4 1_555 1_555
H15 C17 1_555 1_555
H16 C17 1_555 1_555
C18 C17 1_555 1_555
H17 C18 1_555 1_555
H18 C18 1_555 1_555
O1 Co1 1_555 1_555
O2 Co1 1_555 1_555
O3 N5 1_555 1_555
O4 N5 1_555 1_555
O5 N5 1_555 1_555
N1A Co1 1_555 1_555
N3A Co1 1_555 1_555
C9B C9 1_555 1_555
C18B C18 1_555 1_555
C8B C9B 1_555 1_555
H8B C9B 1_555 1_555
H9B C9B 1_555 1_555
C17B C18B 1_555 1_555
H17B C18B 1_555 1_555
H18B C18B 1_555 1_555
N2B C8B 1_555 1_555
H6B C8B 1_555 1_555
H7B C8B 1_555 1_555
N4B C17B 1_555 1_555
H15B C17B 1_555 1_555
H16B C17B 1_555 1_555
C1B N2B 1_555 1_555
C2B N2B 1_555 1_555
C10B N4B 1_555 1_555
C11B N4B 1_555 1_555
N1B C1B 1_555 1_555
H1B C1B 1_555 1_555
C3B C2B 1_555 1_555
C7B C2B 1_555 1_555
N3B C10B 1_555 1_555
H10B C10B 1_555 1_555
C12B C11B 1_555 1_555
C16B C11B 1_555 1_555
Co1C N1B 1_555 1_555
H2B C3B 1_555 1_555
C4B C3B 1_555 1_555
C6B C7B 1_555 1_555
Co1C_2 N3B 1_555 1_555
H11B C12B 1_555 1_555
C13B C12B 1_555 1_555
C15B C16B 1_555 1_555
H3B C4B 1_555 1_555
C5B C4B 1_555 1_555
H5B C6B 1_555 1_555
H12B C13B 1_555 1_555
C14B C13B 1_555 1_555
H14B C15B 1_555 1_555
H4B C5B 1_555 1_555
H13B C14B 1_555 1_555
C2 C7 1_555 1_555
C6 C7 1_555 1_555
C11 C16 1_555 1_555
C15 C16 1_555 1_555
N1B C7B 1_555 1_555
N3B C16B 1_555 1_555
C6B C5B 1_555 1_555
C15B C14B 1_555 1_555

#END
