
#######################################################################
#
#                 Cambridge Crystallographic Data Centre
#                                CCDC 
#
#######################################################################
#
# If this CIF has been generated from an entry in the Cambridge 
# Structural Database, then it will include bibliographic, chemical, 
# crystal, experimental, refinement or atomic coordinate data resulting 
# from the CCDC's data processing and validation procedures.
#
#######################################################################

data_XAHVAE
_symmetry_cell_setting           triclinic
_symmetry_space_group_name_H-M   'P -1'
_symmetry_Int_Tables_number      2
_space_group_name_Hall           '-P 1'
loop_
_symmetry_equiv_pos_site_id
_symmetry_equiv_pos_as_xyz
1 x,y,z
2 -x,-y,-z
_cell_length_a                   7.6465(3)
_cell_length_b                   11.3948(3)
_cell_length_c                   11.9596(3)
_cell_angle_alpha                73.2740(10)
_cell_angle_beta                 81.3400(10)
_cell_angle_gamma                77.8140(10)
_cell_volume                     970.97
loop_
_atom_site_label
_atom_site_type_symbol
_atom_site_fract_x
_atom_site_fract_y
_atom_site_fract_z
Gd1 Gd 0.55448(4) 0.29933(3) 0.56524(2)
P1 P 1.4216(2) 0.48600(14) 0.27566(13)
S1 S 0.0930(2) -0.07731(14) 1.26332(13)
N1 N 1.0914(7) 0.4133(5) 0.2722(5)
H1 H 1.1324 0.3466 0.3310
C1 C 1.2488(9) 0.4601(6) 0.1982(5)
H2 H 1.3052 0.4011 0.1533
H3 H 1.2057 0.5380 0.1427
C2 C 0.9725(9) 0.5101(6) 0.3270(6)
H4 H 1.0452 0.5424 0.3671
H5 H 0.9191 0.5788 0.2658
C3 C 0.8249(9) 0.4565(6) 0.4136(5)
C4 C 0.9865(10) 0.3702(8) 0.1994(7)
H6 H 1.0646 0.3100 0.1643
H7 H 0.8905 0.3330 0.2485
H8 H 0.9374 0.4401 0.1390
C5 C 0.1825(9) -0.0451(6) 1.1139(5)
C6 C 0.2246(9) -0.1417(6) 1.0597(6)
H9 H 0.2003 -0.2203 1.0999
C7 C 0.3035(9) -0.1195(6) 0.9446(6)
C8 C 0.3360(9) -0.0005(6) 0.8842(6)
H10 H 0.3864 0.0146 0.8068
C9 C 0.2941(9) 0.0954(6) 0.9386(6)
C10 C 0.2169(9) 0.0733(6) 1.0540(6)
H11 H 0.1883 0.1373 1.0910
C11 C 0.3598(9) -0.2185(6) 0.8821(6)
C12 C 0.3366(9) 0.2194(6) 0.8688(6)
O1 O 0.8479(7) 0.3423(5) 0.4600(4)
O2 O 0.6835(7) 0.5293(5) 0.4320(4)
O3 O 0.4498(9) -0.2023(5) 0.7872(5)
O4 O 0.3066(7) -0.3262(4) 0.9370(4)
H12 H 0.3470 -0.3769 0.8986
O5 O 0.3120(8) 0.3038(5) 0.9284(4)
O6 O 0.3876(7) 0.2397(5) 0.7656(4)
O7 O -0.0047(7) 0.0397(5) 1.2837(5)
O8 O 0.2522(6) -0.1222(5) 1.3290(4)
O9 O -0.0145(7) -0.1726(5) 1.2803(4)
O10 O 1.5791(6) 0.4971(4) 0.1779(4)
H13 H 1.5940 0.5697 0.1546
O11 O 1.3499(6) 0.6054(4) 0.3118(4)
O12 O 1.4577(7) 0.3715(4) 0.3755(4)
O13 O 0.3282(8) 0.1778(6) 0.5755(5)
O14 O 0.6716(9) 0.1426(5) 0.4446(5)
O2A O 0.3165(7) 0.4707(5) 0.5680(4)
O8A O 0.7478(6) 0.1222(5) 0.6710(4)
O11A O 0.6501(6) 0.3946(4) 0.6882(4)
O12_2 O 0.4577(7) 0.3715(4) 0.3755(4)
Gd1A Gd 0.44552(4) 0.70067(3) 0.43476(2)
Gd1A_2 Gd 0.44552(4) -0.29933(3) 1.43476(2)
Gd1A_3 Gd 1.44552(4) 0.70067(3) 0.43476(2)
Gd1_2 Gd 1.55448(4) 0.29933(3) 0.56524(2)
O15 O 0.2397(10) 0.1524(6) 0.3683(6)
loop_
_geom_bond_atom_site_label_1
_geom_bond_atom_site_label_2
_geom_bond_site_symmetry_1
_geom_bond_site_symmetry_2
Gd1 O1 1_555 1_555
P1 C1 1_555 1_555
S1 C5 1_555 1_555
N1 H1 1_555 1_555
C1 N1 1_555 1_555
H2 C1 1_555 1_555
H3 C1 1_555 1_555
C2 N1 1_555 1_555
H4 C2 1_555 1_555
H5 C2 1_555 1_555
C3 C2 1_555 1_555
C4 N1 1_555 1_555
H6 C4 1_555 1_555
H7 C4 1_555 1_555
H8 C4 1_555 1_555
C5 C6 1_555 1_555
C6 H9 1_555 1_555
C7 C6 1_555 1_555
C8 C7 1_555 1_555
H10 C8 1_555 1_555
C9 C8 1_555 1_555
C10 C5 1_555 1_555
H11 C10 1_555 1_555
C11 C7 1_555 1_555
C12 C9 1_555 1_555
O1 C3 1_555 1_555
O2 Gd1 1_555 1_555
O3 C11 1_555 1_555
O4 C11 1_555 1_555
H12 O4 1_555 1_555
O5 C12 1_555 1_555
O6 Gd1 1_555 1_555
O7 S1 1_555 1_555
O8 S1 1_555 1_555
O9 S1 1_555 1_555
O10 P1 1_555 1_555
H13 O10 1_555 1_555
O11 P1 1_555 1_555
O12 P1 1_555 1_555
O13 Gd1 1_555 1_555
O14 Gd1 1_555 1_555
O2A Gd1 1_555 1_555
O8A Gd1 1_555 1_555
O11A Gd1 1_555 1_555
O12_2 Gd1 1_555 1_555
Gd1A O2 1_555 1_555
Gd1A_2 O8 1_555 1_555
Gd1A_3 O11 1_555 1_555
Gd1_2 O12 1_555 1_555
C3 O2 1_555 1_555
C9 C10 1_555 1_555
C12 O6 1_555 1_555
O2A Gd1A 1_555 1_555

#END
