
#######################################################################
#
#                 Cambridge Crystallographic Data Centre
#                                CCDC 
#
#######################################################################
#
# If this CIF has been generated from an entry in the Cambridge 
# Structural Database, then it will include bibliographic, chemical, 
# crystal, experimental, refinement or atomic coordinate data resulting 
# from the CCDC's data processing and validation procedures.
#
#######################################################################

data_XAHVAD
_symmetry_cell_setting           monoclinic
_symmetry_space_group_name_H-M   'P 21/c'
_symmetry_Int_Tables_number      14
_space_group_name_Hall           '-P 2ybc'
loop_
_symmetry_equiv_pos_site_id
_symmetry_equiv_pos_as_xyz
1 x,y,z
2 -x,1/2+y,1/2-z
3 -x,-y,-z
4 x,1/2-y,1/2+z
_cell_length_a                   8.992(2)
_cell_length_b                   13.718(1)
_cell_length_c                   14.130(3)
_cell_angle_alpha                90
_cell_angle_beta                 103.87(2)
_cell_angle_gamma                90
_cell_volume                     1692.15
loop_
_atom_site_label
_atom_site_type_symbol
_atom_site_fract_x
_atom_site_fract_y
_atom_site_fract_z
Cu1 Cu 0.08254(3) 0.224980(18) -0.256780(19)
O1 O 0.1894(2) 0.17909(16) -0.10588(13)
O2 O 0.4367(2) 0.23581(15) -0.50264(12)
O3 O -0.3105(2) 0.23639(15) -0.03373(13)
O4 O -0.1251(2) -0.13627(11) -0.22192(12)
N1 N -0.0178(2) 0.09580(13) -0.30696(13)
N2 N 0.2717(2) 0.18386(13) -0.29996(14)
N3 N -0.1164(2) 0.26660(14) -0.22521(14)
C1 C -0.1528(3) 0.24033(18) -0.14255(18)
C2 C -0.2876(3) 0.26803(18) -0.11846(17)
C3 C -0.3902(3) 0.32635(19) -0.18495(19)
C4 C -0.3522(3) 0.3522(2) -0.2698(2)
C5 C -0.2156(3) 0.32188(18) -0.28872(17)
C6 C 0.2975(3) 0.22195(17) -0.38151(16)
C7 C 0.4203(3) 0.19540(18) -0.42139(17)
C8 C 0.5201(3) 0.1252(2) -0.3699(2)
C9 C 0.4940(3) 0.0867(2) -0.2856(2)
C10 C 0.3690(3) 0.11634(18) -0.25227(19)
C11 C -0.0337(3) 0.02106(15) -0.24917(17)
C12 C -0.1109(3) -0.06552(15) -0.28321(17)
C13 C -0.1708(3) -0.07154(17) -0.38368(19)
C14 C -0.1528(3) 0.00504(18) -0.44319(19)
C15 C -0.0756(3) 0.08794(17) -0.40313(17)
H1 H 0.012(3) 0.028(2) -0.179(2)
H2 H -0.065(3) 0.144(2) -0.4377(19)
H3 H -0.221(3) -0.1254(19) -0.4074(18)
H4 H -0.192(3) -0.003(2) -0.507(2)
H5 H 0.259(4) 0.202(2) -0.078(2)
H6 H 0.166(4) 0.145(3) -0.066(3)
H7 H 0.346(3) 0.088(2) -0.193(2)
H8 H 0.232(4) 0.269(2) -0.407(2)
H9 H -0.080(4) 0.198(2) -0.097(2)
H10 H -0.421(4) 0.387(2) -0.317(2)
H11 H 0.551(4) 0.042(2) -0.253(2)
H12 H -0.192(3) 0.3399(19) -0.3468(19)
H13 H -0.482(3) 0.342(2) -0.169(2)
H14 H 0.603(4) 0.114(3) -0.393(2)
H15 H -0.417(6) 0.251(4) -0.021(4)
O4A O 0.1251(2) 0.36373(11) -0.27808(12)
Cu1A Cu -0.08254(3) -0.275020(18) -0.243220(19)
O5 O 0.1170(3) 0.43677(15) -0.46152(14)
H16 H 0.1226 0.4000 -0.4011
H17 H 0.0249 0.4600 -0.4750
O6 O 0.3824(4) 0.5320(2) -0.4690(3)
H18 H 0.2976 0.5033 -0.4830
H19 H 0.3467 0.6000 -0.4751
loop_
_geom_bond_atom_site_label_1
_geom_bond_atom_site_label_2
_geom_bond_site_symmetry_1
_geom_bond_site_symmetry_2
Cu1 O1 1_555 1_555
O1 H5 1_555 1_555
O2 C7 1_555 1_555
O3 C2 1_555 1_555
O4 C12 1_555 1_555
N1 Cu1 1_555 1_555
N2 Cu1 1_555 1_555
N3 Cu1 1_555 1_555
C1 N3 1_555 1_555
C2 C1 1_555 1_555
C3 C2 1_555 1_555
C4 C3 1_555 1_555
C5 N3 1_555 1_555
C6 N2 1_555 1_555
C7 C6 1_555 1_555
C8 C7 1_555 1_555
C9 C8 1_555 1_555
C10 N2 1_555 1_555
C11 N1 1_555 1_555
C12 C11 1_555 1_555
C13 C12 1_555 1_555
C14 C13 1_555 1_555
C15 N1 1_555 1_555
H1 C11 1_555 1_555
H2 C15 1_555 1_555
H3 C13 1_555 1_555
H4 C14 1_555 1_555
H6 O1 1_555 1_555
H7 C10 1_555 1_555
H8 C6 1_555 1_555
H9 C1 1_555 1_555
H10 C4 1_555 1_555
H11 C9 1_555 1_555
H12 C5 1_555 1_555
H13 C3 1_555 1_555
H14 C8 1_555 1_555
H15 O3 1_555 1_555
O5 H16 1_555 1_555
H17 O5 1_555 1_555
O6 H18 1_555 1_555
H19 O6 1_555 1_555
O4A Cu1 1_555 1_555
Cu1A O4 1_555 1_555
C4 C5 1_555 1_555
C9 C10 1_555 1_555
C14 C15 1_555 1_555

#END
