
#######################################################################
#
#                 Cambridge Crystallographic Data Centre
#                                CCDC 
#
#######################################################################
#
# If this CIF has been generated from an entry in the Cambridge 
# Structural Database, then it will include bibliographic, chemical, 
# crystal, experimental, refinement or atomic coordinate data resulting 
# from the CCDC's data processing and validation procedures.
#
#######################################################################

data_XAHZEM
_symmetry_cell_setting           monoclinic
_symmetry_space_group_name_H-M   'P 21/c'
_symmetry_Int_Tables_number      14
_space_group_name_Hall           '-P 2ybc'
loop_
_symmetry_equiv_pos_site_id
_symmetry_equiv_pos_as_xyz
1 x,y,z
2 x,1/2-y,1/2+z
3 -x,-y,-z
4 -x,1/2+y,1/2-z
_cell_length_a                   7.6262(3)
_cell_length_b                   7.8868(3)
_cell_length_c                   11.3009(4)
_cell_angle_alpha                90
_cell_angle_beta                 102.693(2)
_cell_angle_gamma                90
_cell_volume                     663.096
loop_
_atom_site_label
_atom_site_type_symbol
_atom_site_fract_x
_atom_site_fract_y
_atom_site_fract_z
Rb1 Rb 0.77580(5) 0.07718(5) 0.53164(4)
O1 O 0.8978(4) 0.4890(4) 0.3468(3)
O2 O 1.0097(4) 0.2291(4) 0.3890(3)
O3 O 1.2174(4) 0.6179(4) 0.3277(3)
H1 H 1.164(7) 0.627(9) 0.2567(19)
O4 O 1.1627(4) 0.3324(4) 0.1582(3)
H2 H 1.123(10) 0.235(4) 0.152(7)
O5 O 1.4990(5) 0.4501(5) 0.1667(3)
O6 O 1.5903(4) 0.3761(5) 0.3616(3)
H3 H 1.6902 0.4104 0.3515
C1 C 1.0258(6) 0.3818(6) 0.3675(4)
C2 C 1.2126(6) 0.4447(6) 0.3613(4)
H4 H 1.2928 0.4307 0.4435
C3 C 1.2844(6) 0.3309(6) 0.2729(4)
H5 H 1.2960 0.2123 0.3050
C4 C 1.4683(6) 0.3931(6) 0.2594(4)
Rb1B Rb 1.22420(5) -0.07718(5) 0.46836(4)
O2B O 0.9903(4) -0.2291(4) 0.6110(3)
O3B O 0.7826(4) 0.3821(4) 0.6723(3)
O4A O 1.1627(4) 0.1676(4) 0.6582(3)
O4C O 0.8373(4) -0.1676(4) 0.3418(3)
O5A O 0.4990(5) 0.0499(5) 0.6667(3)
O5C O 0.5010(5) -0.0499(5) 0.3333(3)
O6_2 O 0.5903(4) 0.3761(5) 0.3616(3)
Rb1B_2 Rb 1.22420(5) 0.92282(5) 0.46836(4)
Rb1A Rb 0.77580(5) 0.42282(5) 0.03164(4)
Rb1C Rb 1.22420(5) 0.57718(5) -0.03164(4)
Rb1A_2 Rb 1.77580(5) 0.42282(5) 0.03164(4)
Rb1_2 Rb 1.77580(5) 0.07718(5) 0.53164(4)
H1B H 0.836(7) 0.373(9) 0.7433(19)
H2A H 1.123(10) 0.265(4) 0.652(7)
H2C H 0.877(10) -0.265(4) 0.348(7)
H3_2 H 0.6902 0.4104 0.3515
loop_
_geom_bond_atom_site_label_1
_geom_bond_atom_site_label_2
_geom_bond_site_symmetry_1
_geom_bond_site_symmetry_2
Rb1 O2 1_555 1_555
O1 C1 1_555 1_555
O2 C1 1_555 1_555
O3 H1 1_555 1_555
O4 H2 1_555 1_555
O5 C4 1_555 1_555
O6 H3 1_555 1_555
C1 C2 1_555 1_555
C2 O3 1_555 1_555
H4 C2 1_555 1_555
C3 O4 1_555 1_555
H5 C3 1_555 1_555
C4 O6 1_555 1_555
Rb1B O2 1_555 1_555
O2B Rb1 1_555 1_555
O3B Rb1 1_555 1_555
O4A Rb1 1_555 1_555
O4C Rb1 1_555 1_555
O5A Rb1 1_555 1_555
O5C Rb1 1_555 1_555
O6_2 Rb1 1_555 1_555
Rb1B_2 O3 1_555 1_555
Rb1A O4 1_555 1_555
Rb1C O4 1_555 1_555
Rb1A_2 O5 1_555 1_555
Rb1_2 O6 1_555 1_555
H1B O3B 1_555 1_555
H2A O4A 1_555 1_555
H2C O4C 1_555 1_555
H3_2 O6_2 1_555 1_555
O5 Rb1C 1_555 1_555
C2 C3 1_555 1_555
C3 C4 1_555 1_555
Rb1B O2B 1_555 1_555
Rb1B O4A 1_555 1_555
Rb1B O4C 1_555 1_555

#END
