
#######################################################################
#
#                 Cambridge Crystallographic Data Centre
#                                CCDC 
#
#######################################################################
#
# If this CIF has been generated from an entry in the Cambridge 
# Structural Database, then it will include bibliographic, chemical, 
# crystal, experimental, refinement or atomic coordinate data resulting 
# from the CCDC's data processing and validation procedures.
#
#######################################################################

data_XAHZEL
_symmetry_cell_setting           monoclinic
_symmetry_space_group_name_H-M   'P 21/n'
_symmetry_Int_Tables_number      14
_space_group_name_Hall           '-P 2yn'
loop_
_symmetry_equiv_pos_site_id
_symmetry_equiv_pos_as_xyz
1 x,y,z
2 1/2+x,1/2-y,1/2+z
3 -x,-y,-z
4 1/2-x,1/2+y,1/2-z
_cell_length_a                   7.1670(10)
_cell_length_b                   12.900(3)
_cell_length_c                   18.697(4)
_cell_angle_alpha                90
_cell_angle_beta                 98.30(3)
_cell_angle_gamma                90
_cell_volume                     1710.51
loop_
_atom_site_label
_atom_site_type_symbol
_atom_site_fract_x
_atom_site_fract_y
_atom_site_fract_z
Pt1 Pt 0.20603(4) -0.35779(3) 0.23328(2)
I1 I -0.04588(9) -0.31392(6) 0.31619(4)
I2 I 0.46647(10) -0.39776(8) 0.15555(4)
Cs1 Cs -0.27190(14) -0.10528(7) 0.17620(5)
N1 N 0.4098(10) -0.2995(6) 0.3121(4)
H1 H 0.3823(41) -0.3166(36) 0.3555(4)
H2 H 0.4136(52) -0.2307(7) 0.3083(18)
H3 H 0.5215(15) -0.3258(32) 0.3065(18)
N2 N -0.1740(10) -0.4041(7) 0.0409(4)
C1 C -0.2631(17) -0.3388(10) -0.0193(6)
H4 H -0.1755(52) -0.2866(50) -0.0298(37)
H5 H -0.3734(82) -0.3062(62) -0.0059(21)
H6 H -0.298(13) -0.3811(16) -0.0613(17)
N3 N 0.0129(9) -0.4206(6) 0.1541(4)
C2 C -0.0631(13) -0.3586(8) 0.0980(5)
O1 O -0.0321(9) -0.2640(6) 0.0980(4)
C3 C -0.0214(12) -0.5226(8) 0.1556(5)
O2 O 0.0466(9) -0.5778(5) 0.2087(4)
C4 C -0.1403(13) -0.5689(8) 0.0958(5)
H7 H -0.1668(13) -0.6394(8) 0.0950(5)
C5 C -0.2117(13) -0.5067(8) 0.0414(5)
H8 H -0.2903(13) -0.5352(8) 0.0024(5)
O3 O 0.1868(15) -0.0914(7) 0.1663(5)
O6 O -0.4365(19) -0.0904(11) 0.0133(8)
Cs1C Cs -0.22810(14) -0.60528(7) 0.32380(5)
I1C I -0.45412(9) 0.18608(6) 0.18381(4)
O2C O -0.5466(9) -0.0778(5) 0.2913(4)
O4 O 0.1064(17) -0.9479(10) 0.0584(6)
O5 O 0.7931(21) -0.8043(10) 0.0110(7)
loop_
_geom_bond_atom_site_label_1
_geom_bond_atom_site_label_2
_geom_bond_site_symmetry_1
_geom_bond_site_symmetry_2
Pt1 I1 1_555 1_555
I1 Cs1 1_555 1_555
I2 Pt1 1_555 1_555
Cs1 O1 1_555 1_555
N1 Pt1 1_555 1_555
H1 N1 1_555 1_555
H2 N1 1_555 1_555
H3 N1 1_555 1_555
N2 C1 1_555 1_555
C1 H4 1_555 1_555
H5 C1 1_555 1_555
H6 C1 1_555 1_555
N3 Pt1 1_555 1_555
C2 N2 1_555 1_555
O1 C2 1_555 1_555
C3 N3 1_555 1_555
O2 C3 1_555 1_555
C4 C3 1_555 1_555
H7 C4 1_555 1_555
C5 N2 1_555 1_555
H8 C5 1_555 1_555
O3 Cs1 1_555 1_555
O6 Cs1 1_555 1_555
Cs1C I1 1_555 1_555
I1C Cs1 1_555 1_555
O2C Cs1 1_555 1_555
N3 C2 1_555 1_555
O2 Cs1C 1_555 1_555
C4 C5 1_555 1_555

#END
