
#######################################################################
#
#                 Cambridge Crystallographic Data Centre
#                                CCDC 
#
#######################################################################
#
# If this CIF has been generated from an entry in the Cambridge 
# Structural Database, then it will include bibliographic, chemical, 
# crystal, experimental, refinement or atomic coordinate data resulting 
# from the CCDC's data processing and validation procedures.
#
#######################################################################

data_XAJCIV
_symmetry_cell_setting           monoclinic
_symmetry_space_group_name_H-M   'P 21/c'
_symmetry_Int_Tables_number      14
_space_group_name_Hall           '-P 2ybc'
loop_
_symmetry_equiv_pos_site_id
_symmetry_equiv_pos_as_xyz
1 x,y,z
2 -x,1/2+y,1/2-z
3 -x,-y,-z
4 x,1/2-y,1/2+z
_cell_length_a                   11.908(18)
_cell_length_b                   8.133(10)
_cell_length_c                   21.01(3)
_cell_angle_alpha                90
_cell_angle_beta                 112.46(7)
_cell_angle_gamma                90
_cell_volume                     1880.43
loop_
_atom_site_label
_atom_site_type_symbol
_atom_site_fract_x
_atom_site_fract_y
_atom_site_fract_z
O1 O 0.501(3) -0.164(3) -0.0208(11)
Zn1 Zn 0.30090(9) -0.81526(16) -0.31450(6)
N1 N 0.3736(6) -1.0323(12) -0.2592(5)
N2 N 0.3463(8) -1.0003(15) -0.4914(5)
N3 N 0.2346(8) -0.9248(15) -0.5172(5)
N4 N 0.3601(7) -1.0766(13) -0.2005(5)
N5 N 0.2104(6) -0.5906(12) -0.3671(5)
N6 N 0.2044(7) -0.8789(13) -0.4673(5)
N7 N 0.5830(6) -1.1076(13) -0.3963(5)
H1 H 0.5857 -1.0881 -0.4359
N8 N 0.6416(6) -1.1922(12) -0.2900(4)
N9 N 0.4461(7) -1.1848(13) -0.1672(4)
N10 N 0.5179(7) -1.2127(11) -0.2028(4)
N11 N 0.1161(6) -0.8481(10) -0.3211(4)
N12 N 0.2936(6) -0.9184(10) -0.4064(4)
C1 C 0.1848(11) -0.3327(16) -0.4244(8)
H2 H 0.2196 -0.2497 -0.4413
C2 C -0.0467(9) -0.979(2) -0.2998(7)
H3 H -0.0747 -1.0698 -0.2835
C3 C 0.0153(9) -0.4496(18) -0.4063(6)
C4 C -0.1106(10) -0.4586(19) -0.4126(7)
H4 H -0.1623 -0.3738 -0.4359
C5 C -0.1553(10) -0.5743(18) -0.3879(7)
H5 H -0.2349 -0.5665 -0.3906
C6 C 0.0646(11) -0.3217(17) -0.4318(7)
H6 H 0.0174 -0.2312 -0.4531
C7 C 0.2525(9) -0.4690(17) -0.3920(7)
H7 H 0.3332 -0.4741 -0.3875
C8 C 0.0743(8) -0.9698(16) -0.2954(6)
H8 H 0.1274 -1.0543 -0.2731
C9 C -0.1225(10) -0.8467(17) -0.3293(7)
H9 H -0.2014 -0.8463 -0.3305
C10 C -0.0831(8) -0.7155(16) -0.3565(6)
C11 C 0.0905(8) -0.5830(14) -0.3753(5)
C12 C 0.5283(7) -1.1131(14) -0.3089(5)
C13 C 0.0415(8) -0.7186(14) -0.3496(5)
C14 C 0.4717(7) -1.1190(13) -0.2594(5)
C15 C 0.3797(8) -0.9931(13) -0.4248(5)
C16 C 0.4907(8) -1.0666(14) -0.3750(5)
C17 C 0.6701(8) -1.1852(15) -0.3415(6)
H10 H 0.7419 -1.2280 -0.3424
N8A N 0.3584(6) -0.6922(12) -0.2100(4)
N10A N 0.4821(7) -0.7127(11) -0.2972(4)
Zn1A Zn 0.69910(9) -1.31526(16) -0.18550(6)
loop_
_geom_bond_atom_site_label_1
_geom_bond_atom_site_label_2
_geom_bond_site_symmetry_1
_geom_bond_site_symmetry_2
Zn1 N1 1_555 1_555
N1 N4 1_555 1_555
N2 N3 1_555 1_555
N3 N6 1_555 1_555
N4 N9 1_555 1_555
N5 Zn1 1_555 1_555
N6 N12 1_555 1_555
N7 H1 1_555 1_555
N8 C12 1_555 1_555
N9 N10 1_555 1_555
N10 C14 1_555 1_555
N11 Zn1 1_555 1_555
N12 Zn1 1_555 1_555
C1 H2 1_555 1_555
C2 H3 1_555 1_555
C3 C4 1_555 1_555
C4 H4 1_555 1_555
C5 C4 1_555 1_555
H5 C5 1_555 1_555
C6 C1 1_555 1_555
H6 C6 1_555 1_555
C7 N5 1_555 1_555
H7 C7 1_555 1_555
C8 N11 1_555 1_555
H8 C8 1_555 1_555
C9 C2 1_555 1_555
H9 C9 1_555 1_555
C10 C5 1_555 1_555
C11 N5 1_555 1_555
C12 C14 1_555 1_555
C13 N11 1_555 1_555
C14 N1 1_555 1_555
C15 N2 1_555 1_555
C16 N7 1_555 1_555
C17 N7 1_555 1_555
H10 C17 1_555 1_555
N8A Zn1 1_555 1_555
N10A Zn1 1_555 1_555
Zn1A N8 1_555 1_555
N8 C17 1_555 1_555
N10 Zn1A 1_555 1_555
N12 C15 1_555 1_555
C1 C7 1_555 1_555
C2 C8 1_555 1_555
C3 C6 1_555 1_555
C3 C11 1_555 1_555
C9 C10 1_555 1_555
C10 C13 1_555 1_555
C11 C13 1_555 1_555
C12 C16 1_555 1_555
C15 C16 1_555 1_555

#END
