
#######################################################################
#
#                 Cambridge Crystallographic Data Centre
#                                CCDC 
#
#######################################################################
#
# If this CIF has been generated from an entry in the Cambridge 
# Structural Database, then it will include bibliographic, chemical, 
# crystal, experimental, refinement or atomic coordinate data resulting 
# from the CCDC's data processing and validation procedures.
#
#######################################################################

data_XAJGUM
_symmetry_cell_setting           orthorhombic
_symmetry_space_group_name_H-M   'C m m m'
_symmetry_Int_Tables_number      65
_space_group_name_Hall           '-C 2 2'
loop_
_symmetry_equiv_pos_site_id
_symmetry_equiv_pos_as_xyz
1 x,y,z
2 1/2+x,1/2+y,z
3 x,-y,-z
4 -x,y,-z
5 -x,-y,z
6 1/2+x,1/2-y,-z
7 1/2-x,1/2+y,-z
8 1/2-x,1/2-y,z
9 -x,-y,-z
10 1/2-x,1/2-y,-z
11 -x,y,z
12 x,-y,z
13 x,y,-z
14 1/2-x,1/2+y,z
15 1/2+x,1/2-y,z
16 1/2+x,1/2+y,-z
_cell_length_a                   12.4256(17)
_cell_length_b                   11.4035(12)
_cell_length_c                   3.7724(3)
_cell_angle_alpha                90
_cell_angle_beta                 90
_cell_angle_gamma                90
_cell_volume                     534.531
loop_
_atom_site_label
_atom_site_type_symbol
_atom_site_fract_x
_atom_site_fract_y
_atom_site_fract_z
Co1 Co 0.00000 0.00000 0.00000
Br1 Br 0.1476(6) 0.00000 -0.50000
N1 N 0.00000 0.18728 0.00000
C1 C 0.09722 0.24721 0.00000
C2 C 0.09764 0.36952 0.00000
C3 C 0.00000 0.43040 0.00000
H1 H 0.16790 0.20400 0.00000
H2 H 0.16790 0.40920 0.00000
Co1_2 Co 0.00000 0.00000 -1.00000
Co1_3 Co 0.00000 1.00000 0.00000
Co1_4 Co 0.00000 0.00000 1.00000
Br1_2 Br 0.1476(6) 0.00000 0.50000
Br1J Br -0.1476(6) 0.00000 -0.50000
Br1J_2 Br -0.1476(6) 0.00000 0.50000
N1K N 0.00000 0.81272 0.00000
N1K_2 N 0.00000 -0.18728 0.00000
C1J C -0.09722 0.24721 0.00000
C1K C 0.09722 0.75279 0.00000
C1H C -0.09722 0.75279 0.00000
C2J C -0.09764 0.36952 0.00000
C2K C 0.09764 0.63048 0.00000
C2H C -0.09764 0.63048 0.00000
C3K C 0.00000 0.56960 0.00000
H1J H -0.16790 0.20400 0.00000
H1H H -0.16790 0.79600 0.00000
H1K H 0.16790 0.79600 0.00000
H2J H -0.16790 0.40920 0.00000
H2H H -0.16790 0.59080 0.00000
H2K H 0.16790 0.59080 0.00000
loop_
_geom_bond_atom_site_label_1
_geom_bond_atom_site_label_2
_geom_bond_site_symmetry_1
_geom_bond_site_symmetry_2
Co1 Br1 1_555 1_555
Br1 Co1_2 1_555 1_555
N1 Co1 1_555 1_555
C1 N1 1_555 1_555
C2 C1 1_555 1_555
C3 C2 1_555 1_555
H1 C1 1_555 1_555
H2 C2 1_555 1_555
Co1_2 Br1J 1_555 1_555
Co1_3 N1K 1_555 1_555
Co1_4 Br1_2 1_555 1_555
Br1_2 Co1 1_555 1_555
Br1J Co1 1_555 1_555
Br1J_2 Co1 1_555 1_555
N1K C1K 1_555 1_555
N1K_2 Co1 1_555 1_555
C1J N1 1_555 1_555
C1K C2K 1_555 1_555
C1H N1K 1_555 1_555
C2J C3 1_555 1_555
C2K C3K 1_555 1_555
C2H C1H 1_555 1_555
C3K C3 1_555 1_555
H1J C1J 1_555 1_555
H1H C1H 1_555 1_555
H1K C1K 1_555 1_555
H2J C2J 1_555 1_555
H2H C2H 1_555 1_555
H2K C2K 1_555 1_555
Co1_4 Br1J_2 1_555 1_555
C1J C2J 1_555 1_555
C2H C3K 1_555 1_555

#END
