
#######################################################################
#
#                 Cambridge Crystallographic Data Centre
#                                CCDC 
#
#######################################################################
#
# If this CIF has been generated from an entry in the Cambridge 
# Structural Database, then it will include bibliographic, chemical, 
# crystal, experimental, refinement or atomic coordinate data resulting 
# from the CCDC's data processing and validation procedures.
#
#######################################################################

data_XAJLIF
_symmetry_cell_setting           monoclinic
_symmetry_space_group_name_H-M   'C 2/c'
_symmetry_Int_Tables_number      15
_space_group_name_Hall           '-C 2yn'
loop_
_symmetry_equiv_pos_site_id
_symmetry_equiv_pos_as_xyz
1 x,y,z
2 -x,y,1/2-z
3 1/2+x,1/2+y,z
4 1/2-x,1/2+y,1/2-z
5 -x,-y,-z
6 x,-y,1/2+z
7 1/2-x,1/2-y,-z
8 1/2+x,1/2-y,1/2+z
_cell_length_a                   23.288(5)
_cell_length_b                   10.373(2)
_cell_length_c                   17.348(4)
_cell_angle_alpha                90
_cell_angle_beta                 108.92(3)
_cell_angle_gamma                90
_cell_volume                     3964.28
loop_
_atom_site_label
_atom_site_type_symbol
_atom_site_fract_x
_atom_site_fract_y
_atom_site_fract_z
C1 C 0.7154(2) 0.7796(4) 0.8675(3)
H1 H 0.7495 0.7931 0.8519
C2 C 0.6488(3) 0.8032(5) 0.9275(3)
H2 H 0.6275 0.8337 0.9607
C3 C 0.6330(2) 0.7026(5) 0.8750(3)
H3 H 0.5986 0.6516 0.8661
C4 C 0.70983(17) 0.0706(3) 0.7224(2)
C5 C 0.55652(17) -0.0439(4) 0.7242(2)
H4 H 0.5355 -0.1217 0.7163
C6 C 0.61354(17) -0.0381(4) 0.7150(2)
H5 H 0.6302 -0.1124 0.7009
C7 C 0.53095(16) 0.0647(3) 0.7450(2)
C8 C 0.62071(16) 0.1873(3) 0.7470(2)
C9 C 0.56428(16) 0.1793(3) 0.7569(2)
H6 H 0.5478 0.2530 0.7720
C10 C 0.64824(16) 0.3189(3) 0.7543(2)
C11 C 0.64624(17) 0.0761(3) 0.7263(2)
C12 C 0.6161(2) 0.6497(4) 0.6016(3)
H7 H 0.6531 0.6750 0.5967
C13 C 0.4991(2) 0.9270(4) 0.4946(3)
H8 H 0.4974 0.8867 0.5443
H9 H 0.4624 0.9036 0.4511
C14 C 0.5490(2) 0.5741(5) 0.6489(3)
H10 H 0.5307 0.5349 0.6832
C15 C 0.5538(3) 0.8754(5) 0.4748(3)
H11 H 0.5551 0.9155 0.4249
H12 H 0.5904 0.9000 0.5181
C16 C 0.5197(2) 0.6191(5) 0.5739(3)
H13 H 0.4779 0.6190 0.5479
C17 C 0.5534(3) 0.7311(5) 0.4646(3)
H14 H 0.5149 0.7046 0.4258
H15 H 0.5854 0.7063 0.4431
C18 C 0.7386(3) 0.9527(5) 0.9742(4)
H16 H 0.7419 0.9349 1.0303
H17 H 0.7792 0.9482 0.9703
C19 C 0.7160(2) 1.0840(4) 0.9546(3)
H18 H 0.6756 1.0902 0.9593
H19 H 0.7128 1.1033 0.8987
C20 C 0.7571(3) 1.1823(5) 1.0106(3)
H20 H 0.7558 1.1683 1.0653
H21 H 0.7984 1.1661 1.0117
N1 N 0.61030(16) 0.5947(3) 0.6672(2)
N2 N 0.56252(18) 0.6651(4) 0.5430(2)
N3 N 0.67565(15) 0.6885(3) 0.8377(2)
N4 N 0.7015(2) 0.8508(3) 0.9224(2)
Ni1 Ni 0.68299(2) 0.54226(4) 0.76382(3)
O1 O 0.63693(12) 0.3989(2) 0.80295(17)
O2 O 0.67905(12) 0.3520(2) 0.70997(18)
O3 O 0.75227(11) 0.1201(3) 0.77948(16)
O4 O 0.72011(13) 0.0100(3) 0.66589(18)
C1F C 0.7846(2) 1.7204(4) 1.1325(3)
H1F H 0.7505 1.7069 1.1481
C2F C 0.8512(3) 1.6968(5) 1.0725(3)
H2F H 0.8725 1.6663 1.0393
C3F C 0.8670(2) 1.7974(5) 1.1250(3)
H3F H 0.9014 1.8484 1.1339
C4A C 0.29017(17) 0.0706(3) 0.7776(2)
C5A C 0.44348(17) -0.0439(4) 0.7758(2)
H4A H 0.4645 -0.1217 0.7837
C6A C 0.38646(17) -0.0381(4) 0.7850(2)
H5A H 0.3698 -0.1124 0.7991
C7A C 0.46905(16) 0.0647(3) 0.7550(2)
C8A C 0.37929(16) 0.1873(3) 0.7530(2)
C9A C 0.43572(16) 0.1793(3) 0.7431(2)
H6A H 0.4522 0.2530 0.7280
C10A C 0.35176(16) 0.3189(3) 0.7457(2)
C11A C 0.35376(17) 0.0761(3) 0.7737(2)
C12D C 0.3839(2) 1.3503(4) 0.3984(3)
H7D H 0.3469 1.3250 0.4033
C13D C 0.5009(2) 1.0730(4) 0.5054(3)
H8D H 0.5026 1.1133 0.4557
H9D H 0.5376 1.0964 0.5489
C14D C 0.4510(2) 1.4259(5) 0.3511(3)
H10D H 0.4693 1.4651 0.3168
C15D C 0.4462(3) 1.1246(5) 0.5252(3)
H11D H 0.4449 1.0845 0.5751
H12D H 0.4096 1.1000 0.4819
C16D C 0.4803(2) 1.3809(5) 0.4261(3)
H13D H 0.5221 1.3810 0.4521
C17D C 0.4466(3) 1.2689(5) 0.5354(3)
H14D H 0.4851 1.2954 0.5742
H15D H 0.4146 1.2937 0.5569
C18F C 0.7614(3) 1.5473(5) 1.0258(4)
H16F H 0.7581 1.5651 0.9697
H17F H 0.7208 1.5518 1.0297
C19F C 0.7840(2) 1.4160(4) 1.0454(3)
H18F H 0.8244 1.4098 1.0407
H19F H 0.7872 1.3967 1.1013
C20F C 0.7429(3) 1.3177(5) 0.9894(3)
H20F H 0.7442 1.3317 0.9347
H21F H 0.7016 1.3339 0.9883
N1D N 0.38970(16) 1.4053(3) 0.3328(2)
N1A N 0.38970(16) 0.5947(3) 0.8328(2)
N2D N 0.43748(18) 1.3349(4) 0.4570(2)
N3F N 0.82435(15) 1.8115(3) 1.1623(2)
N3A N 0.32435(15) 0.6885(3) 0.6623(2)
N4F N 0.7985(2) 1.6492(3) 1.0776(2)
Ni1D Ni 0.31701(2) 1.45774(4) 0.23618(3)
Ni1C Ni 0.81701(2) 0.04226(4) 0.73618(3)
Ni1F Ni 0.81701(2) 1.95774(4) 1.23618(3)
Ni1B Ni 0.18299(2) 0.04226(4) 0.76382(3)
Ni1A Ni 0.31701(2) 0.54226(4) 0.73618(3)
O1A O 0.36307(12) 0.3989(2) 0.69705(17)
O2A O 0.32095(12) 0.3520(2) 0.79003(18)
O3A O 0.24773(11) 0.1201(3) 0.72052(16)
O3C O 0.74773(11) 0.6201(3) 0.72052(16)
O3B O 0.25227(11) 0.6201(3) 0.77948(16)
O4A O 0.27989(13) 0.0100(3) 0.83411(18)
O4C O 0.77989(13) 0.5100(3) 0.83411(18)
O4B O 0.22011(13) 0.5100(3) 0.66589(18)
loop_
_geom_bond_atom_site_label_1
_geom_bond_atom_site_label_2
_geom_bond_site_symmetry_1
_geom_bond_site_symmetry_2
C1 H1 1_555 1_555
C2 H2 1_555 1_555
C3 C2 1_555 1_555
H3 C3 1_555 1_555
C4 C11 1_555 1_555
C5 H4 1_555 1_555
C6 C5 1_555 1_555
H5 C6 1_555 1_555
C7 C5 1_555 1_555
C8 C9 1_555 1_555
C9 C7 1_555 1_555
H6 C9 1_555 1_555
C10 C8 1_555 1_555
C11 C6 1_555 1_555
C12 H7 1_555 1_555
C13 H8 1_555 1_555
H9 C13 1_555 1_555
C14 H10 1_555 1_555
C15 C13 1_555 1_555
H11 C15 1_555 1_555
H12 C15 1_555 1_555
C16 C14 1_555 1_555
H13 C16 1_555 1_555
C17 C15 1_555 1_555
H14 C17 1_555 1_555
H15 C17 1_555 1_555
C18 H16 1_555 1_555
H17 C18 1_555 1_555
C19 C18 1_555 1_555
H18 C19 1_555 1_555
H19 C19 1_555 1_555
C20 C19 1_555 1_555
H20 C20 1_555 1_555
H21 C20 1_555 1_555
N1 C12 1_555 1_555
N2 C12 1_555 1_555
N3 C1 1_555 1_555
N4 C1 1_555 1_555
Ni1 N1 1_555 1_555
O1 C10 1_555 1_555
O2 C10 1_555 1_555
O3 C4 1_555 1_555
O4 C4 1_555 1_555
C1F H1F 1_555 1_555
C2F H2F 1_555 1_555
C3F C2F 1_555 1_555
H3F C3F 1_555 1_555
C4A C11A 1_555 1_555
C5A H4A 1_555 1_555
C6A C5A 1_555 1_555
H5A C6A 1_555 1_555
C7A C7 1_555 1_555
C8A C9A 1_555 1_555
C9A C7A 1_555 1_555
H6A C9A 1_555 1_555
C10A C8A 1_555 1_555
C11A C6A 1_555 1_555
C12D H7D 1_555 1_555
C13D C13 1_555 1_555
H8D C13D 1_555 1_555
H9D C13D 1_555 1_555
C14D H10D 1_555 1_555
C15D C13D 1_555 1_555
H11D C15D 1_555 1_555
H12D C15D 1_555 1_555
C16D C14D 1_555 1_555
H13D C16D 1_555 1_555
C17D C15D 1_555 1_555
H14D C17D 1_555 1_555
H15D C17D 1_555 1_555
C18F H16F 1_555 1_555
H17F C18F 1_555 1_555
C19F C18F 1_555 1_555
H18F C19F 1_555 1_555
H19F C19F 1_555 1_555
C20F C20 1_555 1_555
H20F C20F 1_555 1_555
H21F C20F 1_555 1_555
N1D C12D 1_555 1_555
N1A Ni1A 1_555 1_555
N2D C12D 1_555 1_555
N3F C1F 1_555 1_555
N3A Ni1A 1_555 1_555
N4F C1F 1_555 1_555
Ni1D N1D 1_555 1_555
Ni1C O3 1_555 1_555
Ni1F N3F 1_555 1_555
Ni1B O3A 1_555 1_555
Ni1A O1A 1_555 1_555
O1A C10A 1_555 1_555
O2A C10A 1_555 1_555
O3A C4A 1_555 1_555
O3C Ni1 1_555 1_555
O3B Ni1A 1_555 1_555
O4A C4A 1_555 1_555
O4C Ni1 1_555 1_555
O4B Ni1A 1_555 1_555
C2 N4 1_555 1_555
C3 N3 1_555 1_555
C8 C11 1_555 1_555
C14 N1 1_555 1_555
C16 N2 1_555 1_555
C17 N2 1_555 1_555
C18 N4 1_555 1_555
N3 Ni1 1_555 1_555
Ni1 O1 1_555 1_555
Ni1 O2 1_555 1_555
O4 Ni1C 1_555 1_555
C2F N4F 1_555 1_555
C3F N3F 1_555 1_555
C5A C7A 1_555 1_555
C8A C11A 1_555 1_555
C14D N1D 1_555 1_555
C16D N2D 1_555 1_555
C17D N2D 1_555 1_555
C18F N4F 1_555 1_555
C19F C20F 1_555 1_555
Ni1B O4A 1_555 1_555
Ni1A O2A 1_555 1_555

#END
