
#######################################################################
#
#                 Cambridge Crystallographic Data Centre
#                                CCDC 
#
#######################################################################
#
# If this CIF has been generated from an entry in the Cambridge 
# Structural Database, then it will include bibliographic, chemical, 
# crystal, experimental, refinement or atomic coordinate data resulting 
# from the CCDC's data processing and validation procedures.
#
#######################################################################

data_XAJLOL
_symmetry_cell_setting           triclinic
_symmetry_space_group_name_H-M   'P -1'
_symmetry_Int_Tables_number      2
_space_group_name_Hall           '-P 1'
loop_
_symmetry_equiv_pos_site_id
_symmetry_equiv_pos_as_xyz
1 x,y,z
2 -x,-y,-z
_cell_length_a                   7.2130(14)
_cell_length_b                   12.080(2)
_cell_length_c                   12.795(3)
_cell_angle_alpha                73.96(3)
_cell_angle_beta                 84.82(3)
_cell_angle_gamma                88.36(3)
_cell_volume                     1067.08
loop_
_atom_site_label
_atom_site_type_symbol
_atom_site_fract_x
_atom_site_fract_y
_atom_site_fract_z
C1 C 0.9110(5) 0.8083(3) 0.9756(3)
H1 H 1.0095 0.7755 0.9424
C2 C 0.6399(5) 0.8711(3) 1.0137(3)
H2 H 0.5142 0.8899 1.0112
C3 C 0.7486(5) 0.8923(4) 1.0858(3)
H3 H 0.7139 0.9270 1.1410
C4 C 1.0943(5) 0.8512(4) 1.1150(3)
H4 H 1.1413 0.9292 1.0968
H5 H 1.1882 0.8045 1.0879
C5 C 1.0640(6) 0.8057(3) 1.2366(3)
H6 H 0.9862 0.7376 1.2560
H7 H 1.1823 0.7848 1.2675
C6 C 0.9220(6) 0.8543(4) 1.3913(3)
C7 C 0.8308(5) 0.9564(3) 1.4232(3)
H8 H 0.7958 0.9344 1.5012
H9 H 0.9200 1.0187 1.4076
C8 C 0.5039(5) 0.9380(3) 1.3735(3)
H10 H 0.4757 0.8644 1.4180
C9 C 0.3930(5) 1.0084(3) 1.3036(3)
H11 H 0.2737 0.9905 1.2915
C10 C 0.6474(5) 1.1001(3) 1.2923(3)
H12 H 0.7386 1.1567 1.2720
C11 C 0.5276(4) 0.6605(3) 0.6509(2)
C12 C 0.3713(4) 0.6106(3) 0.6085(2)
C13 C 0.3775(5) 0.6163(3) 0.4976(3)
H13 H 0.4791 0.6502 0.4509
C14 C 0.2343(5) 0.5722(3) 0.4565(3)
H14 H 0.2434 0.5754 0.3827
C15 C 0.0777(4) 0.5231(3) 0.5220(2)
C16 C 0.0737(4) 0.5170(3) 0.6328(3)
H15 H -0.0292 0.4843 0.6791
C17 C 0.2177(4) 0.5581(3) 0.6761(2)
C18 C 0.1971(4) 0.5414(3) 0.7982(3)
N1 N 0.4832(4) 1.1101(2) 1.2532(2)
N2 N 0.6661(4) 0.9973(3) 1.3654(2)
N3 N 0.7383(4) 0.8185(2) 0.9450(2)
N4 N 0.9245(4) 0.8513(3) 1.0602(2)
Ni1 Ni 0.63326(6) 0.74070(4) 0.83922(3)
O1 O 0.9758(3) 0.8935(2) 1.27766(19)
O2 O 0.5158(3) 0.6453(2) 0.75324(17)
O3 O 0.6535(4) 0.7140(2) 0.58571(19)
O4 O 0.2498(4) 0.4471(2) 0.85734(19)
O5 O 0.1181(3) 0.6206(2) 0.83312(19)
O6 O 0.3836(3) 0.7062(2) 0.93938(19)
H16 H 0.3314 0.6655 0.9066
H17 H 0.3663 0.6663 1.0050
O7 O 0.7581(3) 0.58362(19) 0.92506(18)
H18 H 0.7290 0.5696 0.9932
H19 H 0.8714 0.5910 0.9003
O8 O 0.8687(3) 0.77291(15) 0.72372(14)
H20 H 0.9602 0.7294 0.7455
H21 H 0.8285 0.7463 0.6752
C1_2 C -0.0890(5) -0.1917(3) -0.0244(3)
H1_2 H 0.0095 -0.2245 -0.0576
C2_2 C -0.3601(5) -0.1289(3) 0.0137(3)
H2_2 H -0.4858 -0.1101 0.0112
C3_2 C -0.2514(5) -0.1077(4) 0.0858(3)
H3_2 H -0.2861 -0.0730 0.1410
C4_2 C 0.0943(5) -0.1488(4) 0.1150(3)
H4_2 H 0.1413 -0.0708 0.0968
H5_2 H 0.1882 -0.1955 0.0879
C5_2 C 0.0640(6) -0.1943(3) 0.2366(3)
H6_2 H -0.0138 -0.2624 0.2560
H7_2 H 0.1823 -0.2152 0.2675
C6_2 C -0.0780(6) -0.1457(4) 0.3913(3)
C7_2 C -0.1692(5) -0.0436(3) 0.4232(3)
H8_2 H -0.2042 -0.0656 0.5012
H9_2 H -0.0800 0.0187 0.4076
C8_2 C -0.4961(5) -0.0620(3) 0.3735(3)
H10_2 H -0.5243 -0.1356 0.4180
C9_2 C -0.6070(5) 0.0084(3) 0.3036(3)
H11_2 H -0.7263 -0.0095 0.2915
C10_2 C -0.3526(5) 0.1001(3) 0.2923(3)
H12_2 H -0.2614 0.1567 0.2720
C11A C -0.5276(4) 0.3395(3) 0.3491(2)
C12A C -0.3713(4) 0.3894(3) 0.3915(2)
C13A C -0.3775(5) 0.3837(3) 0.5024(3)
H13A H -0.4791 0.3498 0.5491
C14A C -0.2343(5) 0.4278(3) 0.5435(3)
H14A H -0.2434 0.4246 0.6173
C15A C -0.0777(4) 0.4769(3) 0.4780(2)
C16A C -0.0737(4) 0.4830(3) 0.3672(3)
H15A H 0.0292 0.5157 0.3209
C17A C -0.2177(4) 0.4419(3) 0.3239(2)
C18A C -0.1971(4) 0.4586(3) 0.2018(3)
N1A N 0.5168(4) 0.8899(2) 0.7468(2)
N1_2 N -0.5168(4) 0.1101(2) 0.2532(2)
N2_2 N -0.3339(4) -0.0027(3) 0.3654(2)
N3A N -0.7383(4) 0.1815(2) 0.0550(2)
N3_2 N -0.2617(4) -0.1815(2) -0.0550(2)
N4_2 N -0.0755(4) -0.1487(3) 0.0602(2)
Ni1A Ni 0.36674(6) 1.25930(4) 1.16078(3)
Ni1A_2 Ni -0.63326(6) 0.25930(4) 0.16078(3)
Ni1_2 Ni -0.36674(6) -0.25930(4) -0.16078(3)
O1_2 O -0.0242(3) -0.1065(2) 0.27766(19)
O2A O -0.5158(3) 0.3547(2) 0.24676(17)
O3A O -0.6535(4) 0.2860(2) 0.41429(19)
O4A O -0.2498(4) 0.5529(2) 0.14266(19)
O5A O -0.1181(3) 0.3794(2) 0.16688(19)
O6A O -0.3836(3) 0.2938(2) 0.06062(19)
H16A H -0.3314 0.3345 0.0934
H17A H -0.3663 0.3337 -0.0050
O7A O -0.7581(3) 0.41638(19) 0.07494(18)
H18A H -0.7290 0.4304 0.0068
H19A H -0.8714 0.4090 0.0997
O8A O -0.8687(3) 0.22709(15) 0.27628(14)
H20A H -0.9602 0.2706 0.2545
H21A H -0.8285 0.2537 0.3248
O9 O 0.6314(3) 0.39639(15) 0.83972(14)
H22 H 0.5153 0.3967 0.8309
H23 H 0.6779 0.4559 0.8503
loop_
_geom_bond_atom_site_label_1
_geom_bond_atom_site_label_2
_geom_bond_site_symmetry_1
_geom_bond_site_symmetry_2
C1 H1 1_555 1_555
C2 H2 1_555 1_555
C3 C2 1_555 1_555
H3 C3 1_555 1_555
C4 H4 1_555 1_555
H5 C4 1_555 1_555
C5 C4 1_555 1_555
H6 C5 1_555 1_555
H7 C5 1_555 1_555
C6 C7 1_555 1_555
C7 H8 1_555 1_555
H9 C7 1_555 1_555
C8 H10 1_555 1_555
C9 C8 1_555 1_555
H11 C9 1_555 1_555
C10 H12 1_555 1_555
C11 C12 1_555 1_555
C12 C13 1_555 1_555
C13 H13 1_555 1_555
C14 C13 1_555 1_555
H14 C14 1_555 1_555
C15 C14 1_555 1_555
C16 C15 1_555 1_555
H15 C16 1_555 1_555
C17 C12 1_555 1_555
C18 C17 1_555 1_555
N1 C9 1_555 1_555
N2 C7 1_555 1_555
N3 C1 1_555 1_555
N4 C1 1_555 1_555
Ni1 N3 1_555 1_555
O1 C5 1_555 1_555
O2 C11 1_555 1_555
O3 C11 1_555 1_555
O4 C18 1_555 1_555
O5 C18 1_555 1_555
O6 Ni1 1_555 1_555
H16 O6 1_555 1_555
H17 O6 1_555 1_555
O7 Ni1 1_555 1_555
H18 O7 1_555 1_555
H19 O7 1_555 1_555
O8 Ni1 1_555 1_555
H20 O8 1_555 1_555
H21 O8 1_555 1_555
O9 H22 1_555 1_555
H23 O9 1_555 1_555
C1_2 H1_2 1_555 1_555
C2_2 H2_2 1_555 1_555
C3_2 C2_2 1_555 1_555
H3_2 C3_2 1_555 1_555
C4_2 H4_2 1_555 1_555
H5_2 C4_2 1_555 1_555
C5_2 C4_2 1_555 1_555
H6_2 C5_2 1_555 1_555
H7_2 C5_2 1_555 1_555
C6_2 C7_2 1_555 1_555
C7_2 H8_2 1_555 1_555
H9_2 C7_2 1_555 1_555
C8_2 H10_2 1_555 1_555
C9_2 C8_2 1_555 1_555
H11_2 C9_2 1_555 1_555
C10_2 H12_2 1_555 1_555
C11A C12A 1_555 1_555
C12A C13A 1_555 1_555
C13A H13A 1_555 1_555
C14A C13A 1_555 1_555
H14A C14A 1_555 1_555
C15A C15 1_555 1_555
C16A C15A 1_555 1_555
H15A C16A 1_555 1_555
C17A C12A 1_555 1_555
C18A C17A 1_555 1_555
N1A Ni1 1_555 1_555
N1_2 C9_2 1_555 1_555
N2_2 C7_2 1_555 1_555
N3A Ni1A_2 1_555 1_555
N3_2 C1_2 1_555 1_555
N4_2 C1_2 1_555 1_555
Ni1A N1 1_555 1_555
Ni1A_2 N1_2 1_555 1_555
Ni1_2 N3_2 1_555 1_555
O1_2 C5_2 1_555 1_555
O2A C11A 1_555 1_555
O3A C11A 1_555 1_555
O4A C18A 1_555 1_555
O5A C18A 1_555 1_555
O6A Ni1A_2 1_555 1_555
H16A O6A 1_555 1_555
H17A O6A 1_555 1_555
O7A Ni1A_2 1_555 1_555
H18A O7A 1_555 1_555
H19A O7A 1_555 1_555
O8A Ni1A_2 1_555 1_555
H20A O8A 1_555 1_555
H21A O8A 1_555 1_555
C2 N3 1_555 1_555
C3 N4 1_555 1_555
C4 N4 1_555 1_555
C6 O1 1_555 1_555
C8 N2 1_555 1_555
C10 N1 1_555 1_555
C10 N2 1_555 1_555
C16 C17 1_555 1_555
Ni1 O2 1_555 1_555
C2_2 N3_2 1_555 1_555
C3_2 N4_2 1_555 1_555
C4_2 N4_2 1_555 1_555
C6_2 O1_2 1_555 1_555
C8_2 N2_2 1_555 1_555
C10_2 N1_2 1_555 1_555
C10_2 N2_2 1_555 1_555
C14A C15A 1_555 1_555
C16A C17A 1_555 1_555
Ni1A_2 O2A 1_555 1_555

#END
