
#######################################################################
#
#                 Cambridge Crystallographic Data Centre
#                                CCDC 
#
#######################################################################
#
# If this CIF has been generated from an entry in the Cambridge 
# Structural Database, then it will include bibliographic, chemical, 
# crystal, experimental, refinement or atomic coordinate data resulting 
# from the CCDC's data processing and validation procedures.
#
#######################################################################

data_XAJLEB
_symmetry_cell_setting           monoclinic
_symmetry_space_group_name_H-M   'C 2/c'
_symmetry_Int_Tables_number      15
_space_group_name_Hall           '-C 2yn'
loop_
_symmetry_equiv_pos_site_id
_symmetry_equiv_pos_as_xyz
1 x,y,z
2 -x,y,1/2-z
3 1/2+x,1/2+y,z
4 1/2-x,1/2+y,1/2-z
5 -x,-y,-z
6 x,-y,1/2+z
7 1/2-x,1/2-y,-z
8 1/2+x,1/2-y,1/2+z
_cell_length_a                   23.795(5)
_cell_length_b                   10.089(2)
_cell_length_c                   17.189(3)
_cell_angle_alpha                90
_cell_angle_beta                 111.31(3)
_cell_angle_gamma                90
_cell_volume                     3844.39
loop_
_atom_site_label
_atom_site_type_symbol
_atom_site_fract_x
_atom_site_fract_y
_atom_site_fract_z
C1 C 0.34920(14) 0.5895(3) 0.7364(2)
C2 C 0.37874(14) 0.7228(3) 0.74375(19)
C3 C 0.43548(14) 0.7276(3) 0.7382(2)
H1 H 0.4516 0.6503 0.7255
C4 C 0.46889(14) 0.8436(3) 0.7509(2)
C5 C 0.44241(16) 0.9591(3) 0.7664(2)
H2 H 0.4629 1.0393 0.7727
C6 C 0.38596(15) 0.9555(3) 0.7724(2)
H3 H 0.3693 1.0336 0.7831
C7 C 0.35375(14) 0.8382(3) 0.76297(19)
C8 C 0.29267(14) 0.8441(3) 0.7704(2)
C9 C 0.26870(15) 0.1136(3) 0.6280(2)
H4 H 0.2454 0.0899 0.6590
C10 C 0.3294(2) 0.2178(4) 0.5842(3)
H5 H 0.3568 0.2801 0.5795
C11 C 0.3085(2) 0.1107(4) 0.5329(3)
H6 H 0.3183 0.0876 0.4870
C12 C 0.23367(18) -0.0725(3) 0.5262(2)
H7 H 0.2045 -0.0494 0.4717
H8 H 0.2114 -0.0975 0.5613
C13 C 0.26986(19) -0.1899(3) 0.5170(3)
H9 H 0.3001 -0.2115 0.5709
H10 H 0.2906 -0.1671 0.4795
C14 C 0.3892(2) 0.2415(4) 0.8869(3)
H11 H 0.3556 0.2078 0.8956
C15 C 0.4449(2) 0.3352(5) 0.8304(4)
H12 H 0.4575 0.3793 0.7920
C16 C 0.4818(3) 0.2919(6) 0.9072(4)
H13 H 0.5235 0.3011 0.9309
C17 C 0.4643(4) 0.1627(6) 1.0219(3)
H14 H 0.4339 0.1749 1.0466
H15 H 0.5018 0.2005 1.0597
C18 C 0.4731(3) 0.0149(6) 1.0119(4)
H16 H 0.4782 -0.0297 1.0640
H17 H 0.4372 -0.0205 0.9693
N1 N 0.30381(13) 0.2187(3) 0.64342(17)
N2 N 0.27046(14) 0.0449(3) 0.56237(17)
N3 N 0.38739(14) 0.3039(3) 0.81889(19)
N4 N 0.4457(2) 0.2331(4) 0.9419(3)
Ni1 Ni 0.309681(18) 0.36249(4) 0.72803(2)
O1 O 0.32649(11) 0.5551(2) 0.78883(14)
O2 O 0.35035(11) 0.5104(2) 0.68010(14)
O3 O 0.24818(10) 0.7867(2) 0.71670(14)
O4 O 0.28645(10) 0.9100(2) 0.82820(14)
C1A C 0.65080(14) 0.5895(3) 0.7636(2)
C2A C 0.62126(14) 0.7228(3) 0.75625(19)
C3A C 0.56452(14) 0.7276(3) 0.7618(2)
H1A H 0.5484 0.6503 0.7745
C4A C 0.53111(14) 0.8436(3) 0.7491(2)
C5A C 0.55759(16) 0.9591(3) 0.7336(2)
H2A H 0.5371 1.0393 0.7273
C6A C 0.61404(15) 0.9555(3) 0.7276(2)
H3A H 0.6307 1.0336 0.7169
C7A C 0.64625(14) 0.8382(3) 0.73703(19)
C8A C 0.70733(14) 0.8441(3) 0.7296(2)
C9F C 0.23130(15) -0.6136(3) 0.3720(2)
H4F H 0.2546 -0.5899 0.3410
C10F C 0.1706(2) -0.7178(4) 0.4158(3)
H5F H 0.1432 -0.7801 0.4205
C11F C 0.1915(2) -0.6107(4) 0.4671(3)
H6F H 0.1817 -0.5876 0.5130
C12F C 0.26633(18) -0.4275(3) 0.4738(2)
H7F H 0.2955 -0.4506 0.5283
H8F H 0.2886 -0.4025 0.4387
C13F C 0.23014(19) -0.3101(3) 0.4830(3)
H9F H 0.1999 -0.2885 0.4291
H10F H 0.2094 -0.3329 0.5205
C14D C 0.6108(2) -0.2415(4) 1.1131(3)
H11D H 0.6444 -0.2078 1.1044
C15D C 0.5551(2) -0.3352(5) 1.1696(4)
H12D H 0.5425 -0.3793 1.2080
C16D C 0.5182(3) -0.2919(6) 1.0928(4)
H13D H 0.4765 -0.3011 1.0691
C17D C 0.5357(4) -0.1627(6) 0.9781(3)
H14D H 0.5661 -0.1749 0.9534
H15D H 0.4982 -0.2005 0.9403
C18D C 0.5269(3) -0.0149(6) 0.9881(4)
H16D H 0.5218 0.0297 0.9360
H17D H 0.5628 0.0205 1.0307
N1F N 0.19619(13) -0.7187(3) 0.35658(17)
N1A N 0.69619(13) 0.2187(3) 0.85658(17)
N2F N 0.22954(14) -0.5449(3) 0.43763(17)
N3D N 0.61261(14) -0.3039(3) 1.18111(19)
N3A N 0.61261(14) 0.3039(3) 0.68111(19)
N4D N 0.5543(2) -0.2331(4) 1.0581(3)
Ni1F Ni 0.190319(18) -0.86249(4) 0.27197(2)
Ni1C Ni 0.190319(18) 0.86249(4) 0.77197(2)
Ni1A Ni 0.690319(18) 0.36249(4) 0.77197(2)
Ni1B Ni 0.809681(18) 0.86249(4) 0.72803(2)
Ni1D Ni 0.690319(18) -0.36249(4) 1.27197(2)
O1A O 0.67351(11) 0.5551(2) 0.71117(14)
O2A O 0.64965(11) 0.5104(2) 0.81990(14)
O3A O 0.75182(10) 0.7867(2) 0.78330(14)
O3C O 0.25182(10) 0.2867(2) 0.78330(14)
O3B O 0.74818(10) 0.2867(2) 0.71670(14)
O4A O 0.71355(10) 0.9100(2) 0.67180(14)
O4C O 0.21355(10) 0.4100(2) 0.67180(14)
O4B O 0.78645(10) 0.4100(2) 0.82820(14)
O5 O 0.3851(3) 0.3415(8) 0.4492(3)
H18 H 0.3479 0.3560 0.4313
H19 H 0.4082 0.4083 0.4500
O6 O 0.4273(4) 0.4669(10) 0.0851(6)
H20 H 0.4223 0.5170 0.0432
H21 H 0.4053 0.4829 0.1134
loop_
_geom_bond_atom_site_label_1
_geom_bond_atom_site_label_2
_geom_bond_site_symmetry_1
_geom_bond_site_symmetry_2
C1 C2 1_555 1_555
C2 C3 1_555 1_555
C3 H1 1_555 1_555
C4 C3 1_555 1_555
C5 C4 1_555 1_555
H2 C5 1_555 1_555
C6 C5 1_555 1_555
H3 C6 1_555 1_555
C7 C2 1_555 1_555
C8 C7 1_555 1_555
C9 H4 1_555 1_555
C10 H5 1_555 1_555
C11 C10 1_555 1_555
H6 C11 1_555 1_555
C12 H7 1_555 1_555
H8 C12 1_555 1_555
C13 C12 1_555 1_555
H9 C13 1_555 1_555
H10 C13 1_555 1_555
C14 H11 1_555 1_555
C15 H12 1_555 1_555
C16 C15 1_555 1_555
H13 C16 1_555 1_555
C17 H14 1_555 1_555
H15 C17 1_555 1_555
C18 C17 1_555 1_555
H16 C18 1_555 1_555
H17 C18 1_555 1_555
N1 C9 1_555 1_555
N2 C9 1_555 1_555
N3 C14 1_555 1_555
N4 C14 1_555 1_555
Ni1 N1 1_555 1_555
O1 C1 1_555 1_555
O2 C1 1_555 1_555
O3 C8 1_555 1_555
O4 C8 1_555 1_555
O5 H18 1_555 1_555
H19 O5 1_555 1_555
O6 H20 1_555 1_555
H21 O6 1_555 1_555
C1A C2A 1_555 1_555
C2A C3A 1_555 1_555
C3A H1A 1_555 1_555
C4A C4 1_555 1_555
C5A C4A 1_555 1_555
H2A C5A 1_555 1_555
C6A C5A 1_555 1_555
H3A C6A 1_555 1_555
C7A C2A 1_555 1_555
C8A C7A 1_555 1_555
C9F H4F 1_555 1_555
C10F H5F 1_555 1_555
C11F C10F 1_555 1_555
H6F C11F 1_555 1_555
C12F H7F 1_555 1_555
H8F C12F 1_555 1_555
C13F C13 1_555 1_555
H9F C13F 1_555 1_555
H10F C13F 1_555 1_555
C14D H11D 1_555 1_555
C15D H12D 1_555 1_555
C16D C15D 1_555 1_555
H13D C16D 1_555 1_555
C17D H14D 1_555 1_555
H15D C17D 1_555 1_555
C18D C18 1_555 1_555
H16D C18D 1_555 1_555
H17D C18D 1_555 1_555
N1F C9F 1_555 1_555
N1A Ni1A 1_555 1_555
N2F C9F 1_555 1_555
N3D C14D 1_555 1_555
N3A Ni1A 1_555 1_555
N4D C14D 1_555 1_555
Ni1F N1F 1_555 1_555
Ni1C O3 1_555 1_555
Ni1A O1A 1_555 1_555
Ni1B O3A 1_555 1_555
Ni1D N3D 1_555 1_555
O1A C1A 1_555 1_555
O2A C1A 1_555 1_555
O3A C8A 1_555 1_555
O3C Ni1 1_555 1_555
O3B Ni1A 1_555 1_555
O4A C8A 1_555 1_555
O4C Ni1 1_555 1_555
O4B Ni1A 1_555 1_555
C6 C7 1_555 1_555
C10 N1 1_555 1_555
C11 N2 1_555 1_555
C12 N2 1_555 1_555
C15 N3 1_555 1_555
C16 N4 1_555 1_555
C17 N4 1_555 1_555
N3 Ni1 1_555 1_555
Ni1 O1 1_555 1_555
Ni1 O2 1_555 1_555
O4 Ni1C 1_555 1_555
C3A C4A 1_555 1_555
C6A C7A 1_555 1_555
C10F N1F 1_555 1_555
C11F N2F 1_555 1_555
C12F C13F 1_555 1_555
C12F N2F 1_555 1_555
C15D N3D 1_555 1_555
C16D N4D 1_555 1_555
C17D C18D 1_555 1_555
C17D N4D 1_555 1_555
Ni1A O2A 1_555 1_555
Ni1B O4A 1_555 1_555

#END
