
#######################################################################
#
#                 Cambridge Crystallographic Data Centre
#                                CCDC 
#
#######################################################################
#
# If this CIF has been generated from an entry in the Cambridge 
# Structural Database, then it will include bibliographic, chemical, 
# crystal, experimental, refinement or atomic coordinate data resulting 
# from the CCDC's data processing and validation procedures.
#
#######################################################################

data_XAJLUR
_symmetry_cell_setting           triclinic
_symmetry_space_group_name_H-M   'P -1'
_symmetry_Int_Tables_number      2
_space_group_name_Hall           '-P 1'
loop_
_symmetry_equiv_pos_site_id
_symmetry_equiv_pos_as_xyz
1 x,y,z
2 -x,-y,-z
_cell_length_a                   9.6580(19)
_cell_length_b                   10.131(2)
_cell_length_c                   10.721(2)
_cell_angle_alpha                84.56(3)
_cell_angle_beta                 64.35(3)
_cell_angle_gamma                71.02(3)
_cell_volume                     892.911
loop_
_atom_site_label
_atom_site_type_symbol
_atom_site_fract_x
_atom_site_fract_y
_atom_site_fract_z
C1 C 0.8559(5) 0.2869(4) 0.5973(4)
C2 C 0.7819(4) 0.3010(4) 0.7542(4)
C3 C 0.6489(5) 0.4166(4) 0.8211(4)
H1 H 0.6102 0.4831 0.7680
C4 C 0.5711(4) 0.4371(4) 0.9648(4)
C5 C 0.6307(5) 0.3342(5) 1.0415(4)
H2 H 0.5803 0.3438 1.1378
C6 C 0.7639(5) 0.2180(4) 0.9761(4)
H3 H 0.8011 0.1505 1.0293
C7 C 0.8429(5) 0.2007(4) 0.8321(4)
C8 C 0.9857(5) 0.0713(4) 0.7697(4)
C9 C 0.5777(5) 0.1070(5) 0.3396(4)
H4 H 0.6507 0.0244 0.2888
C10 C 0.4752(5) 0.3049(5) 0.4550(5)
H5 H 0.4653 0.3848 0.4986
C11 C 0.3505(5) 0.2743(5) 0.4480(5)
H6 H 0.2417 0.3278 0.4858
C12 C 0.3322(5) 0.0725(6) 0.3388(5)
H7 H 0.2208 0.1307 0.3651
H8 H 0.3312 -0.0112 0.3909
C13 C 0.4113(6) 0.0325(6) 0.1870(5)
H9 H 0.3443 -0.0073 0.1664
H10 H 0.4163 0.1164 0.1357
C14 C 0.5741(6) -0.2049(6) 0.1706(5)
H11 H 0.5374 -0.2403 0.1135
H12 H 0.5021 -0.2088 0.2670
C15 C 0.7432(6) -0.2929(6) 0.1430(4)
H13 H 0.7840 -0.2486 0.1901
H14 H 0.7416 -0.3832 0.1816
C16 C 0.9438(5) -0.2333(4) -0.0781(4)
H15 H 0.9487 -0.1569 -0.0404
C17 C 0.8769(6) -0.4134(5) -0.0964(5)
H16 H 0.8289 -0.4836 -0.0752
C18 C 0.9813(6) -0.3905(5) -0.2221(5)
H17 H 1.0184 -0.4431 -0.3034
N1 N 0.6178(4) 0.1985(4) 0.3872(3)
N2 N 0.4186(4) 0.1495(4) 0.3743(4)
N3 N 0.8544(4) -0.3142(4) -0.0053(3)
N4 N 1.0247(4) -0.2758(4) -0.2112(3)
O1 O 0.7665(3) 0.2623(3) 0.5497(3)
O2 O 0.9870(4) 0.3052(4) 0.5296(3)
O3 O 1.0032(4) 0.0131(3) 0.6615(3)
O4 O 1.0730(4) 0.0247(3) 0.8308(3)
O5 O 0.5705(4) -0.0650(3) 0.1400(3)
Zn1 Zn 0.84280(5) 0.17846(5) 0.36571(4)
C1A C 0.1441(5) 0.7131(4) 1.4027(4)
C2A C 0.2181(4) 0.6990(4) 1.2458(4)
C3A C 0.3511(5) 0.5834(4) 1.1789(4)
H1A H 0.3898 0.5169 1.2320
C4A C 0.4289(4) 0.5629(4) 1.0352(4)
C5A C 0.3693(5) 0.6658(5) 0.9585(4)
H2A H 0.4197 0.6562 0.8622
C6A C 0.2361(5) 0.7820(4) 1.0239(4)
H3A H 0.1989 0.8495 0.9707
C7A C 0.1571(5) 0.7993(4) 1.1679(4)
C8A C 0.0143(5) 0.9287(4) 1.2303(4)
C9A C 0.4223(5) 0.8930(5) 1.6604(4)
H4A H 0.3493 0.9756 1.7112
C10A C 0.5248(5) 0.6951(5) 1.5450(5)
H5A H 0.5347 0.6152 1.5014
C11A C 0.6495(5) 0.7257(5) 1.5520(5)
H6A H 0.7583 0.6722 1.5142
C12A C 0.6678(5) 0.9275(6) 1.6612(5)
H7A H 0.7792 0.8693 1.6349
H8A H 0.6688 1.0112 1.6091
C13A C 0.5887(6) 0.9675(6) 1.8130(5)
H9A H 0.6557 1.0073 1.8336
H10A H 0.5837 0.8836 1.8643
C14A C 0.4259(6) 1.2049(6) 1.8294(5)
H11A H 0.4626 1.2403 1.8865
H12A H 0.4979 1.2088 1.7330
C15A C 0.2568(6) 1.2929(6) 1.8570(4)
H13A H 0.2160 1.2486 1.8099
H14A H 0.2584 1.3832 1.8184
C16A C 0.0562(5) 1.2333(4) 2.0781(4)
H15A H 0.0513 1.1569 2.0404
C17A C 0.1231(6) 1.4134(5) 2.0964(5)
H16A H 0.1711 1.4836 2.0752
C18A C 0.0187(6) 1.3905(5) 2.2221(5)
H17A H -0.0184 1.4431 2.3034
N1A N 0.3822(4) 0.8015(4) 1.6128(3)
N2A N 0.5814(4) 0.8505(4) 1.6257(4)
N3A N 0.1456(4) 1.3142(4) 2.0053(3)
N4A N -0.0247(4) 1.2758(4) 2.2112(3)
N4_2 N 0.0247(4) 0.7242(4) 1.7888(3)
N4A_2 N 0.9753(4) 0.2758(4) 0.2112(3)
O1A O 0.2335(3) 0.7377(3) 1.4503(3)
O2A O 0.0130(4) 0.6948(4) 1.4704(3)
O3A O -0.0032(4) 0.9869(3) 1.3385(3)
O3_2 O 0.0032(4) 1.0131(3) 1.6615(3)
O3A_2 O 0.9968(4) -0.0131(3) 0.3385(3)
O4A O -0.0730(4) 0.9753(3) 1.1692(3)
O5A O 0.4295(4) 1.0650(3) 1.8600(3)
Zn1A Zn 0.15720(5) 0.82154(5) 1.63429(4)
Zn1_2 Zn -0.15720(5) 1.17846(5) 1.36571(4)
Zn1_3 Zn -0.15720(5) 1.17846(5) 2.36571(4)
Zn1A_2 Zn 1.15720(5) -0.17846(5) -0.36571(4)
Zn1A_3 Zn 1.15720(5) -0.17846(5) 0.63429(4)
loop_
_geom_bond_atom_site_label_1
_geom_bond_atom_site_label_2
_geom_bond_site_symmetry_1
_geom_bond_site_symmetry_2
C1 C2 1_555 1_555
C2 C3 1_555 1_555
C3 H1 1_555 1_555
C4 C3 1_555 1_555
C5 C4 1_555 1_555
H2 C5 1_555 1_555
C6 C5 1_555 1_555
H3 C6 1_555 1_555
C7 C2 1_555 1_555
C8 C7 1_555 1_555
C9 H4 1_555 1_555
C10 H5 1_555 1_555
C11 C10 1_555 1_555
H6 C11 1_555 1_555
C12 H7 1_555 1_555
H8 C12 1_555 1_555
C13 C12 1_555 1_555
H9 C13 1_555 1_555
H10 C13 1_555 1_555
C14 H11 1_555 1_555
H12 C14 1_555 1_555
C15 C14 1_555 1_555
H13 C15 1_555 1_555
H14 C15 1_555 1_555
C16 H15 1_555 1_555
C17 H16 1_555 1_555
C18 C17 1_555 1_555
H17 C18 1_555 1_555
N1 C9 1_555 1_555
N2 C9 1_555 1_555
N3 C15 1_555 1_555
N4 C16 1_555 1_555
O1 C1 1_555 1_555
O2 C1 1_555 1_555
O3 C8 1_555 1_555
O4 C8 1_555 1_555
O5 C13 1_555 1_555
Zn1 N1 1_555 1_555
C1A C2A 1_555 1_555
C2A C3A 1_555 1_555
C3A H1A 1_555 1_555
C4A C4 1_555 1_555
C5A C4A 1_555 1_555
H2A C5A 1_555 1_555
C6A C5A 1_555 1_555
H3A C6A 1_555 1_555
C7A C2A 1_555 1_555
C8A C7A 1_555 1_555
C9A H4A 1_555 1_555
C10A H5A 1_555 1_555
C11A C10A 1_555 1_555
H6A C11A 1_555 1_555
C12A H7A 1_555 1_555
H8A C12A 1_555 1_555
C13A C12A 1_555 1_555
H9A C13A 1_555 1_555
H10A C13A 1_555 1_555
C14A H11A 1_555 1_555
H12A C14A 1_555 1_555
C15A C14A 1_555 1_555
H13A C15A 1_555 1_555
H14A C15A 1_555 1_555
C16A H15A 1_555 1_555
C17A H16A 1_555 1_555
C18A C17A 1_555 1_555
H17A C18A 1_555 1_555
N1A C9A 1_555 1_555
N2A C9A 1_555 1_555
N3A C15A 1_555 1_555
N4A C16A 1_555 1_555
N4_2 Zn1A 1_555 1_555
N4A_2 Zn1 1_555 1_555
O1A C1A 1_555 1_555
O2A C1A 1_555 1_555
O3A C8A 1_555 1_555
O3_2 Zn1A 1_555 1_555
O3A_2 Zn1 1_555 1_555
O4A C8A 1_555 1_555
O5A C13A 1_555 1_555
Zn1A N1A 1_555 1_555
Zn1_2 O3A 1_555 1_555
Zn1_3 N4A 1_555 1_555
Zn1A_2 N4 1_555 1_555
Zn1A_3 O3 1_555 1_555
C6 C7 1_555 1_555
C10 N1 1_555 1_555
C11 N2 1_555 1_555
C12 N2 1_555 1_555
C14 O5 1_555 1_555
C16 N3 1_555 1_555
C17 N3 1_555 1_555
C18 N4 1_555 1_555
O1 Zn1 1_555 1_555
C3A C4A 1_555 1_555
C6A C7A 1_555 1_555
C10A N1A 1_555 1_555
C11A N2A 1_555 1_555
C12A N2A 1_555 1_555
C14A O5A 1_555 1_555
C16A N3A 1_555 1_555
C17A N3A 1_555 1_555
C18A N4A 1_555 1_555
O1A Zn1A 1_555 1_555

#END
