
#######################################################################
#
#                 Cambridge Crystallographic Data Centre
#                                CCDC 
#
#######################################################################
#
# If this CIF has been generated from an entry in the Cambridge 
# Structural Database, then it will include bibliographic, chemical, 
# crystal, experimental, refinement or atomic coordinate data resulting 
# from the CCDC's data processing and validation procedures.
#
#######################################################################

data_XAJQAC
_symmetry_cell_setting           monoclinic
_symmetry_space_group_name_H-M   'P 2/c'
_symmetry_Int_Tables_number      13
_space_group_name_Hall           '-P 2yc'
loop_
_symmetry_equiv_pos_site_id
_symmetry_equiv_pos_as_xyz
1 x,y,z
2 -x,y,1/2-z
3 -x,-y,-z
4 x,-y,1/2+z
_cell_length_a                   15.6323(11)
_cell_length_b                   16.1854(4)
_cell_length_c                   14.3253(8)
_cell_angle_alpha                90
_cell_angle_beta                 76.763(15)
_cell_angle_gamma                90
_cell_volume                     3528.22
loop_
_atom_site_label
_atom_site_type_symbol
_atom_site_fract_x
_atom_site_fract_y
_atom_site_fract_z
C23 C -0.909000 -0.500000 0.477200
C24 C -0.954600 -0.574200 0.488700
C25 C -0.810200 -0.500000 0.452500
C26 C -0.954600 -0.427800 0.488700
H12 H -0.919500 -0.369100 0.479900
H13 H -0.918800 -0.632500 0.479800
H14 H -0.786300 -0.436500 0.446400
H15 H -0.786300 -0.531800 0.384400
H16 H -0.786400 -0.531700 0.508700
C23B C -1.091000 -0.500000 0.522800
C24B C -1.045400 -0.425800 0.511300
C25B C -1.189800 -0.500000 0.547500
C26B C -1.045400 -0.572200 0.511300
H12B H -1.080500 -0.630900 0.520100
H13B H -1.081200 -0.367500 0.520200
H14B H -1.213700 -0.563500 0.553600
H15B H -1.213700 -0.468200 0.615600
H16B H -1.213600 -0.468300 0.491300
C27 C -0.570600 -0.458600 0.475200
C28 C -0.570300 -0.544300 0.478300
C29 C -0.643700 -0.413700 0.444400
C30 C -0.504100 -0.416200 0.500100
H17 H -0.632700 -0.347300 0.446500
H18 H -0.706300 -0.429200 0.492800
H19 H -0.645100 -0.432100 0.371500
H20 H -0.623100 -0.579100 0.458400
H21 H -0.503500 -0.348900 0.498000
C27B C -0.429400 -0.541400 0.524800
C28B C -0.429700 -0.455700 0.521700
C29B C -0.356300 -0.586300 0.555600
C30B C -0.495900 -0.583800 0.499900
H17B H -0.367300 -0.652700 0.553500
H18B H -0.293700 -0.570800 0.507200
H19B H -0.354900 -0.567900 0.628500
H20B H -0.376900 -0.420900 0.541600
H21B H -0.496500 -0.651100 0.502000
C31 C -0.916700 -1.000000 0.510100
C32 C -0.956400 -1.075510 0.500500
C33 C -0.823500 -0.997800 0.521700
C34 C -0.963000 -0.929400 0.509000
H22 H -0.920100 -1.132900 0.501400
H23 H -0.932700 -0.869900 0.516500
H24 H -0.803900 -0.933900 0.528100
H25 H -0.819000 -1.031800 0.586200
H26 H -0.780200 -1.026100 0.459300
C31B C -1.083300 -1.000000 0.489900
C32B C -1.043600 -0.924490 0.499500
C33B C -1.176500 -1.002200 0.478300
C34B C -1.037000 -1.070600 0.491000
H22B H -1.079900 -0.867100 0.498600
H23B H -1.067300 -1.130100 0.483500
H24B H -1.196100 -1.066100 0.471900
H25B H -1.181000 -0.968200 0.413800
H26B H -1.219800 -0.973900 0.540700
C1 C -0.389600 0.118700 -0.158700
C2 C -0.389700 0.877500 -0.165200
C3 C -0.319400 0.180500 -0.180200
C4 C -0.324100 0.811100 -0.181700
C5 C -0.305900 0.224300 -0.260300
C6 C -0.308700 0.767300 -0.262000
C7 C -0.269500 0.304500 -0.264800
C8 C -0.269200 0.688200 -0.266700
C9 C -0.231300 0.334400 -0.194500
C10 C -0.231800 0.658900 -0.195400
C11 C -0.230700 0.279400 -0.122800
C12 C -0.236700 0.712400 -0.121200
C13 C -0.278800 0.204700 -0.113600
C14 C -0.287800 0.785600 -0.111900
C15 C -0.181400 0.418700 -0.203100
C16 C -0.181500 0.574400 -0.202400
C17 C -0.089500 0.417600 -0.226100
C18 C -0.089600 0.575500 -0.226400
C19 C -0.048300 0.335900 -0.231200
C20 C -0.048400 0.657000 -0.230600
C21 C -0.229700 0.496500 -0.182000
C22 C -0.044500 0.496600 -0.234300
In1 In -0.500000 0.000000 0.000000
In2 In -0.500000 -0.008200 -0.250000
O1 O -0.445200 0.001400 0.113000
O2 O -0.421300 0.099600 -0.074400
O3 O -0.417300 0.894800 -0.235800
O4 O -0.426300 0.100500 -0.231600
O5 O -0.421900 0.901300 -0.077700
H1 H -0.300300 0.496500 -0.151600
H2 H -0.089100 0.280600 -0.217400
H3 H -0.089100 0.712200 -0.215300
H4 H -0.323200 0.198200 -0.323700
H5 H -0.271900 0.343800 -0.325900
H6 H -0.191800 0.293500 -0.070700
H7 H -0.282600 0.166300 -0.050200
H8 H -0.326600 0.792500 -0.325400
H9 H -0.268600 0.649200 -0.329000
H10 H -0.200000 0.698600 -0.067000
H11 H -0.297500 0.821500 -0.045900
C1A C 0.389600 0.118700 -0.341300
C2A C 0.389700 0.877500 -0.334800
C3A C 0.319400 0.180500 -0.319800
C4A C 0.324100 0.811100 -0.318300
C5A C 0.305900 0.224300 -0.239700
C6A C 0.308700 0.767300 -0.238000
C7A C 0.269500 0.304500 -0.235200
C8A C 0.269200 0.688200 -0.233300
C9A C 0.231300 0.334400 -0.305500
C10A C 0.231800 0.658900 -0.304600
C11A C 0.230700 0.279400 -0.377200
C12A C 0.236700 0.712400 -0.378800
C13A C 0.278800 0.204700 -0.386400
C14A C 0.287800 0.785600 -0.388100
C15A C 0.181400 0.418700 -0.296900
C16A C 0.181500 0.574400 -0.297600
C17A C 0.089500 0.417600 -0.273900
C18A C 0.089600 0.575500 -0.273600
C19A C 0.048300 0.335900 -0.268800
C20A C 0.048400 0.657000 -0.269400
C21A C 0.229700 0.496500 -0.318000
C22A C 0.044500 0.496600 -0.265700
In1_2 In -0.500000 1.000000 0.000000
In1A In 0.500000 0.000000 -0.500000
In1A_2 In 0.500000 1.000000 -0.500000
In2_2 In -0.500000 0.991800 -0.250000
In2B In -0.500000 0.008200 0.250000
In2_3 In 0.500000 -0.008200 -0.250000
In2_4 In 0.500000 0.991800 -0.250000
O1B O -0.554800 -0.001400 -0.113000
O1C O -0.445200 -0.001400 -0.387000
O2A O 0.421300 0.099600 -0.425600
O2B O -0.578700 -0.099600 0.074400
O3A O 0.417300 0.894800 -0.264200
O3_2 O -0.417300 -0.105200 -0.235800
O3A_2 O -0.582700 -0.105200 -0.264200
O4A O 0.426300 0.100500 -0.268400
O4A_2 O -0.573700 0.100500 -0.268400
O5A O 0.421900 0.901300 -0.422300
O5B O -0.578100 0.098700 0.077700
O5_2 O -0.421900 -0.098700 -0.077700
H1A H 0.300300 0.496500 -0.348400
H2A H 0.089100 0.280600 -0.282600
H3A H 0.089100 0.712200 -0.284700
H4A H 0.323200 0.198200 -0.176300
H5A H 0.271900 0.343800 -0.174100
H6A H 0.191800 0.293500 -0.429300
H7A H 0.282600 0.166300 -0.449800
H8A H 0.326600 0.792500 -0.174600
H9A H 0.268600 0.649200 -0.171000
H10A H 0.200000 0.698600 -0.433000
H11A H 0.297500 0.821500 -0.454100
loop_
_geom_bond_atom_site_label_1
_geom_bond_atom_site_label_2
_geom_bond_site_symmetry_1
_geom_bond_site_symmetry_2
C1 C3 1_555 1_555
C2 C4 1_555 1_555
C3 C5 1_555 1_555
C4 C6 1_555 1_555
C5 C7 1_555 1_555
C6 C8 1_555 1_555
C7 C9 1_555 1_555
C8 C10 1_555 1_555
C9 C11 1_555 1_555
C10 C12 1_555 1_555
C11 C13 1_555 1_555
C12 C14 1_555 1_555
C13 C3 1_555 1_555
C14 C4 1_555 1_555
C15 C9 1_555 1_555
C16 C10 1_555 1_555
C17 C15 1_555 1_555
C18 C16 1_555 1_555
C19 C17 1_555 1_555
C20 C18 1_555 1_555
C21 C15 1_555 1_555
C22 C17 1_555 1_555
In1 O1 1_555 1_555
In2 O4 1_555 1_555
O1 In2B 1_555 1_555
O2 C1 1_555 1_555
O3 C2 1_555 1_555
O4 C1 1_555 1_555
O5 C2 1_555 1_555
H1 C21 1_555 1_555
H2 C19 1_555 1_555
H3 C20 1_555 1_555
H4 C5 1_555 1_555
H5 C7 1_555 1_555
H6 C11 1_555 1_555
H7 C13 1_555 1_555
H8 C6 1_555 1_555
H9 C8 1_555 1_555
H10 C12 1_555 1_555
H11 C14 1_555 1_555
C23 C24 1_555 1_555
C24 H13 1_555 1_555
C25 C23 1_555 1_555
C26 C23 1_555 1_555
H12 C26 1_555 1_555
H14 C25 1_555 1_555
H15 C25 1_555 1_555
H16 C25 1_555 1_555
C27 C28 1_555 1_555
C28 H20 1_555 1_555
C29 C27 1_555 1_555
C30 C27 1_555 1_555
H17 C29 1_555 1_555
H18 C29 1_555 1_555
H19 C29 1_555 1_555
H21 C30 1_555 1_555
C31 C32 1_555 1_555
C32 H22 1_555 1_555
C33 C31 1_555 1_555
C34 C31 1_555 1_555
H23 C34 1_555 1_555
H24 C33 1_555 1_555
H25 C33 1_555 1_555
H26 C33 1_555 1_555
C1A C3A 1_555 1_555
C2A C4A 1_555 1_555
C3A C5A 1_555 1_555
C4A C6A 1_555 1_555
C5A C7A 1_555 1_555
C6A C8A 1_555 1_555
C7A C9A 1_555 1_555
C8A C10A 1_555 1_555
C9A C11A 1_555 1_555
C10A C12A 1_555 1_555
C11A C13A 1_555 1_555
C12A C14A 1_555 1_555
C13A C3A 1_555 1_555
C14A C4A 1_555 1_555
C15A C9A 1_555 1_555
C16A C10A 1_555 1_555
C17A C15A 1_555 1_555
C18A C16A 1_555 1_555
C19A C19 1_555 1_555
C20A C20 1_555 1_555
C21A C15A 1_555 1_555
C22A C22 1_555 1_555
In1_2 O5 1_555 1_555
In1A O2A 1_555 1_555
In1A_2 O5A 1_555 1_555
In2_2 O3 1_555 1_555
In2_3 O4A 1_555 1_555
In2_4 O3A 1_555 1_555
O1B In1 1_555 1_555
O1C In2 1_555 1_555
O2A C1A 1_555 1_555
O2B In1 1_555 1_555
O3A C2A 1_555 1_555
O3_2 In2 1_555 1_555
O3A_2 In2 1_555 1_555
O4A C1A 1_555 1_555
O4A_2 In2 1_555 1_555
O5A C2A 1_555 1_555
O5B In1 1_555 1_555
O5_2 In1 1_555 1_555
H1A C21A 1_555 1_555
H2A C19A 1_555 1_555
H3A C20A 1_555 1_555
H4A C5A 1_555 1_555
H5A C7A 1_555 1_555
H6A C11A 1_555 1_555
H7A C13A 1_555 1_555
H8A C6A 1_555 1_555
H9A C8A 1_555 1_555
H10A C12A 1_555 1_555
H11A C14A 1_555 1_555
C23B C24B 1_555 1_555
C24B C26 1_555 1_555
C25B C23B 1_555 1_555
C26B C24 1_555 1_555
H12B C26B 1_555 1_555
H13B C24B 1_555 1_555
H14B C25B 1_555 1_555
H15B C25B 1_555 1_555
H16B C25B 1_555 1_555
C27B C28B 1_555 1_555
C28B C30 1_555 1_555
C29B C27B 1_555 1_555
C30B C28 1_555 1_555
H17B C29B 1_555 1_555
H18B C29B 1_555 1_555
H19B C29B 1_555 1_555
H20B C28B 1_555 1_555
H21B C30B 1_555 1_555
C31B C32B 1_555 1_555
C32B C34 1_555 1_555
C33B C31B 1_555 1_555
C34B C32 1_555 1_555
H22B C32B 1_555 1_555
H23B C34B 1_555 1_555
H24B C33B 1_555 1_555
H25B C33B 1_555 1_555
H26B C33B 1_555 1_555
C16 C21 1_555 1_555
C18 C22 1_555 1_555
In1 O2 1_555 1_555
In2 O1B 1_555 1_555
C16A C21A 1_555 1_555
C17A C19A 1_555 1_555
C17A C22A 1_555 1_555
C18A C20A 1_555 1_555
C18A C22A 1_555 1_555
C23B C26B 1_555 1_555
C27B C30B 1_555 1_555
C31B C34B 1_555 1_555

#END
