
#######################################################################
#
#                 Cambridge Crystallographic Data Centre
#                                CCDC 
#
#######################################################################
#
# If this CIF has been generated from an entry in the Cambridge 
# Structural Database, then it will include bibliographic, chemical, 
# crystal, experimental, refinement or atomic coordinate data resulting 
# from the CCDC's data processing and validation procedures.
#
#######################################################################

data_XAJWIQ
_symmetry_cell_setting           orthorhombic
_symmetry_space_group_name_H-M   'P b c a'
_symmetry_Int_Tables_number      61
_space_group_name_Hall           '-P 2ac 2ab'
loop_
_symmetry_equiv_pos_site_id
_symmetry_equiv_pos_as_xyz
1 x,y,z
2 1/2-x,-y,1/2+z
3 1/2+x,1/2-y,-z
4 -x,1/2+y,1/2-z
5 -x,-y,-z
6 1/2+x,y,1/2-z
7 1/2-x,1/2+y,z
8 x,1/2-y,1/2+z
_cell_length_a                   13.555(3)
_cell_length_b                   13.991(3)
_cell_length_c                   16.449(3)
_cell_angle_alpha                90
_cell_angle_beta                 90
_cell_angle_gamma                90
_cell_volume                     3119.52
loop_
_atom_site_label
_atom_site_type_symbol
_atom_site_fract_x
_atom_site_fract_y
_atom_site_fract_z
Ag1 Ag -0.00099(5) 0.09272(6) 0.05459(5)
N1 N -0.1608(6) 0.1018(6) 0.0596(5)
N2 N -0.8460(6) 0.1300(6) 0.0478(5)
C1 C -0.2171(6) 0.1081(6) -0.0074(6)
C2 C -0.2071(7) 0.0994(9) 0.1320(7)
C3 C -0.3188(7) 0.1087(7) -0.0025(6)
C4 C -0.3661(7) 0.1045(8) 0.0715(7)
C5 C -0.4777(7) 0.1012(10) 0.0818(8)
C6 C -0.5345(7) 0.1744(8) 0.0378(7)
C7 C -0.6418(6) 0.1586(8) 0.0404(6)
C8 C -0.6976(7) 0.1522(7) -0.0273(6)
C9 C -0.6936(8) 0.1518(10) 0.1147(7)
C10 C -0.7919(8) 0.1363(10) 0.1151(6)
C11 C -0.7986(7) 0.1397(7) -0.0216(6)
C12 C -0.3057(7) 0.1003(9) 0.1384(7)
H1 H -0.187 0.112 -0.058
H2 H -0.169 0.097 0.179
H3 H -0.357 0.112 -0.050
H4 H -0.501 0.039 0.064
H5 H -0.493 0.107 0.139
H6 H -0.520 0.237 0.061
H7 H -0.513 0.176 -0.019
H8 H -0.668 0.156 -0.078
H9 H -0.660 0.158 0.164
H10 H -0.824 0.130 0.165
H11 H -0.835 0.138 -0.069
H12 H -0.334 0.098 0.190
Ag1_2 Ag -1.00099(5) 0.09272(6) 0.05459(5)
N2_2 N 0.1540(6) 0.1300(6) 0.0478(5)
O1 O 0.0088(6) -0.0878(5) 0.1191(4)
O2 O 0.0113(6) 0.0260(6) 0.2128(4)
C13 C 0.0074(8) -0.0581(8) 0.1895(5)
C14 C -0.0022 -0.1408 0.2510
F1 F -0.0031(9) -0.1121(8) 0.3243(5)
F2 F -0.0841(15) -0.1799(16) 0.2395(11)
F3 F 0.0522(17) -0.2010(9) 0.2505(9)
loop_
_geom_bond_atom_site_label_1
_geom_bond_atom_site_label_2
_geom_bond_site_symmetry_1
_geom_bond_site_symmetry_2
Ag1 N1 1_555 1_555
N1 C1 1_555 1_555
N2 C10 1_555 1_555
O1 C13 1_555 1_555
O2 C13 1_555 1_555
C1 C3 1_555 1_555
C2 N1 1_555 1_555
C3 C4 1_555 1_555
C4 C5 1_555 1_555
C5 C6 1_555 1_555
C6 C7 1_555 1_555
C7 C8 1_555 1_555
C8 C11 1_555 1_555
C9 C7 1_555 1_555
C10 C9 1_555 1_555
C11 N2 1_555 1_555
C12 C2 1_555 1_555
C13 C14 1_555 1_555
C14 F1 1_555 1_555
F2 C14 1_555 1_555
F3 C14 1_555 1_555
H1 C1 1_555 1_555
H2 C2 1_555 1_555
H3 C3 1_555 1_555
H4 C5 1_555 1_555
H5 C5 1_555 1_555
H6 C6 1_555 1_555
H7 C6 1_555 1_555
H8 C8 1_555 1_555
H9 C9 1_555 1_555
H10 C10 1_555 1_555
H11 C11 1_555 1_555
H12 C12 1_555 1_555
Ag1_2 N2 1_555 1_555
N2_2 Ag1 1_555 1_555
C4 C12 1_555 1_555

#END
