
#######################################################################
#
#                 Cambridge Crystallographic Data Centre
#                                CCDC 
#
#######################################################################
#
# If this CIF has been generated from an entry in the Cambridge 
# Structural Database, then it will include bibliographic, chemical, 
# crystal, experimental, refinement or atomic coordinate data resulting 
# from the CCDC's data processing and validation procedures.
#
#######################################################################

data_XAJWAI
_symmetry_cell_setting           monoclinic
_symmetry_space_group_name_H-M   'C 2/c'
_symmetry_Int_Tables_number      15
_space_group_name_Hall           '-C 2yn'
loop_
_symmetry_equiv_pos_site_id
_symmetry_equiv_pos_as_xyz
1 x,y,z
2 -x,y,1/2-z
3 1/2+x,1/2+y,z
4 1/2-x,1/2+y,1/2-z
5 -x,-y,-z
6 x,-y,1/2+z
7 1/2-x,1/2-y,-z
8 1/2+x,1/2-y,1/2+z
_cell_length_a                   26.169(5)
_cell_length_b                   10.521(2)
_cell_length_c                   12.906(3)
_cell_angle_alpha                90
_cell_angle_beta                 117.99(3)
_cell_angle_gamma                90
_cell_volume                     3137.7
loop_
_atom_site_label
_atom_site_type_symbol
_atom_site_fract_x
_atom_site_fract_y
_atom_site_fract_z
Ag1 Ag 0.4951(1) 0.0127(1) 0.1214(1)
N1 N 0.4400(4) 0.1760(9) 0.0781(8)
N2 N 0.4489(4) 0.8513(9) 0.3089(8)
C1 C 0.3819(5) 0.1684(11) 0.0267(11)
C2 C 0.3466(6) 0.2702(12) -0.0043(10)
C3 C 0.3692(4) 0.3919(10) 0.0208(8)
C4 C 0.4267(5) 0.4026(11) 0.0736(11)
C5 C 0.4609(5) 0.2956(12) 0.1004(11)
C6 C 0.3305(5) 0.5071(9) -0.0119(10)
C7 C 0.2969(4) 0.5186(10) 0.0583(11)
C8 C 0.3345(4) 0.5281(9) 0.1894(10)
C9 C 0.3741(4) 0.6415(9) 0.2274(8)
C10 C 0.3555(5) 0.7619(11) 0.1902(11)
C11 C 0.3925(5) 0.8618(11) 0.2316(10)
C12 C 0.4687(6) 0.7357(14) 0.3418(10)
C13 C 0.4332(4) 0.6296(11) 0.3062(10)
H1 H 0.365 0.085 0.003
H2 H 0.305 0.260 -0.042
H3 H 0.445 0.485 0.091
H4 H 0.502 0.306 0.137
H5 H 0.304 0.504 -0.094
H6 H 0.354 0.582 0.003
H7 H 0.274 0.443 0.042
H8 H 0.271 0.590 0.032
H9 H 0.357 0.452 0.217
H10 H 0.310 0.532 0.226
H11 H 0.315 0.777 0.138
H12 H 0.377 0.945 0.203
H13 H 0.508 0.725 0.400
H14 H 0.450 0.547 0.333
Ag1A Ag 0.5049(1) 1.0127(1) 0.3786(1)
N2A N 0.5511(4) -0.1487(9) 0.1911(8)
C14 C 0.3857(5) -0.1728(11) -0.1192(12)
C15 C 0.3248(5) -0.1655(12) -0.1840(14)
O1 O 0.4110(6) -0.1160(14) -0.0470(15)
O2 O 0.4112(5) -0.2340(30) -0.1460(20)
F1 F 0.3012(4) -0.0533(10) -0.2087(12)
F2 F 0.2940(5) -0.2180(20) -0.1561(18)
F3 F 0.3052(6) -0.2060(30) -0.2802(15)
loop_
_geom_bond_atom_site_label_1
_geom_bond_atom_site_label_2
_geom_bond_site_symmetry_1
_geom_bond_site_symmetry_2
Ag1 N1 1_555 1_555
N1 C1 1_555 1_555
N2 C11 1_555 1_555
C1 C2 1_555 1_555
C2 C3 1_555 1_555
C3 C4 1_555 1_555
C4 C5 1_555 1_555
C5 N1 1_555 1_555
C6 C3 1_555 1_555
C7 C6 1_555 1_555
C8 C7 1_555 1_555
C9 C8 1_555 1_555
C10 C9 1_555 1_555
C11 C10 1_555 1_555
C12 N2 1_555 1_555
C13 C9 1_555 1_555
C14 C15 1_555 1_555
C15 F1 1_555 1_555
O1 C14 1_555 1_555
O2 C14 1_555 1_555
F2 C15 1_555 1_555
F3 C15 1_555 1_555
H1 C1 1_555 1_555
H2 C2 1_555 1_555
H3 C4 1_555 1_555
H4 C5 1_555 1_555
H5 C6 1_555 1_555
H6 C6 1_555 1_555
H7 C7 1_555 1_555
H8 C7 1_555 1_555
H9 C8 1_555 1_555
H10 C8 1_555 1_555
H11 C10 1_555 1_555
H12 C11 1_555 1_555
H13 C12 1_555 1_555
H14 C13 1_555 1_555
Ag1A N2 1_555 1_555
N2A Ag1 1_555 1_555
C12 C13 1_555 1_555

#END
