
#######################################################################
#
#                 Cambridge Crystallographic Data Centre
#                                CCDC 
#
#######################################################################
#
# If this CIF has been generated from an entry in the Cambridge 
# Structural Database, then it will include bibliographic, chemical, 
# crystal, experimental, refinement or atomic coordinate data resulting 
# from the CCDC's data processing and validation procedures.
#
#######################################################################

data_XAKBOC
_symmetry_cell_setting           monoclinic
_symmetry_space_group_name_H-M   'P 2/n'
_symmetry_Int_Tables_number      13
_space_group_name_Hall           '-P 2yac'
loop_
_symmetry_equiv_pos_site_id
_symmetry_equiv_pos_as_xyz
1 x,y,z
2 1/2-x,y,1/2-z
3 -x,-y,-z
4 1/2+x,-y,1/2+z
_cell_length_a                   10.0873(6)
_cell_length_b                   11.6336(6)
_cell_length_c                   21.2191(12)
_cell_angle_alpha                90
_cell_angle_beta                 98.075(3)
_cell_angle_gamma                90
_cell_volume                     2465.41
loop_
_atom_site_label
_atom_site_type_symbol
_atom_site_fract_x
_atom_site_fract_y
_atom_site_fract_z
Mn1 Mn 0.2500 0.19545(3) 0.2500
Mn2 Mn 0.7500 0.24424(3) 0.2500
O1 O 0.39680(12) 0.20294(11) 0.33670(6)
O2 O 0.59377(14) 0.24937(13) 0.30771(7)
O3 O 0.60065(13) 0.24451(12) 0.16375(6)
C1 C 0.51107(17) 0.24788(14) 0.34545(8)
N1 N 0.7500 0.04904(18) 0.2500
O4 O 0.39999(13) 0.19047(13) 0.18644(6)
C2 C 0.2500 -0.2403(2) 0.2500
C3 C 0.7500 -0.3193(2) 0.2500
N2 N 0.7500 -0.56012(18) 0.2500
C4 C 0.7500 -0.1916(2) 0.2500
N3 N 0.2500 0.00037(17) 0.2500
O5 O 0.1529(2) -0.04745(19) -0.06614(9)
C5 C 0.48226(19) 0.28563(16) 0.45950(9)
H1 H 0.4092 0.2361 0.4548
N4 N 0.1882(2) -0.02270(18) -0.01070(9)
C6 C 0.33672(19) 0.09265(16) 0.06677(9)
H2 H 0.2875 0.0686 0.0983
C7 C 0.30203(19) -0.17792(15) 0.30368(9)
H3 H 0.3357 -0.2158 0.3411
C8 C 0.44557(17) 0.16499(15) 0.08170(8)
N5 N 0.2500 -0.60873(17) 0.2500
C9 C 0.55181(18) 0.30668(15) 0.40903(8)
C10 C 0.2500 -0.3681(2) 0.2500
N6 N 0.4524(2) 0.31431(18) 0.57173(8)
C11 C 0.30335(19) -0.05938(15) 0.30107(9)
H4 H 0.3433 -0.0192 0.3366
O6 O 0.3718(3) 0.2385(3) 0.56666(10)
C12 C 0.48563(17) 0.20357(14) 0.15039(8)
C13 C 0.66089(18) 0.38110(16) 0.41675(9)
H5 H 0.7101 0.3942 0.3835
C14 C 0.6523(2) -0.12948(17) 0.27427(11)
H6 H 0.5844 -0.1675 0.2913
C15 C 0.22428(19) -0.54874(15) 0.30084(8)
H7 H 0.2067 -0.5890 0.3366
C16 C 0.8668(2) -0.38154(17) 0.26293(12)
H8 H 0.9485 -0.3437 0.2718
C17 C 0.52304(19) 0.33937(17) 0.51722(9)
O7 O 0.1347(2) -0.0599(2) 0.03319(10)
C18 C 0.22266(18) -0.42997(15) 0.30270(8)
H9 H 0.2035 -0.3918 0.3389
C19 C 0.6271(2) 0.41653(17) 0.52608(9)
H10 H 0.6507 0.4542 0.5647
O8 O 0.5122(2) 0.1732(2) -0.13269(8)
O9 O 0.48179(19) 0.36920(17) 0.62041(7)
N7 N 0.54582(19) 0.20781(19) -0.07935(8)
C20 C 0.8626(2) -0.50002(17) 0.26272(12)
H11 H 0.9428 -0.5400 0.2720
C21 C 0.51562(18) 0.20179(16) 0.03395(9)
H12 H 0.5893 0.2500 0.0432
C22 C 0.47448(19) 0.16581(17) -0.02799(8)
C23 C 0.36823(19) 0.09225(17) -0.04444(9)
H13 H 0.3428 0.0682 -0.0862
O10 O 0.6350(2) 0.2753(3) -0.06612(9)
C24 C 0.6554(2) -0.01135(17) 0.27332(11)
H14 H 0.5881 0.0285 0.2898
N8 N 0.8062(2) 0.51773(19) 0.48328(11)
C25 C 0.30197(19) 0.05647(17) 0.00456(9)
C26 C 0.69470(19) 0.43534(17) 0.47508(10)
O11 O 0.8276(2) 0.5696(2) 0.53379(11)
O12 O 0.8707(2) 0.5303(2) 0.43984(12)
Mn1_2 Mn 0.2500 -0.80455(3) 0.2500
Mn2_2 Mn 0.7500 -0.75576(3) 0.2500
Mn2_3 Mn -0.2500 0.24424(3) 0.2500
O1A O 0.10320(12) 0.20294(11) 0.16330(6)
O2A O -0.09377(14) 0.24937(13) 0.19229(7)
O2A_2 O 0.90623(14) 0.24937(13) 0.19229(7)
O3A O -0.10065(13) 0.24451(12) 0.33625(6)
O3A_2 O 0.89935(13) 0.24451(12) 0.33625(6)
C1A C -0.01107(17) 0.24788(14) 0.15455(8)
O4A O 0.10001(13) 0.19047(13) 0.31356(6)
N2_2 N 0.7500 0.43988(18) 0.2500
O5A O 0.3471(2) -0.04745(19) 0.56614(9)
C5A C 0.01774(19) 0.28563(16) 0.04050(9)
H1A H 0.0908 0.2361 0.0452
N4A N 0.3118(2) -0.02270(18) 0.51070(9)
C6A C 0.16328(19) 0.09265(16) 0.43323(9)
H2A H 0.2125 0.0686 0.4017
C7A C 0.19797(19) -0.17792(15) 0.19632(9)
H3A H 0.1643 -0.2158 0.1589
C8A C 0.05443(17) 0.16499(15) 0.41830(8)
N5_2 N 0.2500 0.39127(17) 0.2500
C9A C -0.05181(18) 0.30668(15) 0.09097(8)
N6A N 0.0476(2) 0.31431(18) -0.07173(8)
C11A C 0.19665(19) -0.05938(15) 0.19893(9)
H4A H 0.1567 -0.0192 0.1634
O6A O 0.1282(3) 0.2385(3) -0.06666(10)
C12A C 0.01437(17) 0.20357(14) 0.34961(8)
C13A C -0.16089(18) 0.38110(16) 0.08325(9)
H5A H -0.2101 0.3942 0.1165
C14A C 0.8477(2) -0.12948(17) 0.22573(11)
H6A H 0.9156 -0.1675 0.2087
C15A C 0.27572(19) -0.54874(15) 0.19916(8)
H7A H 0.2933 -0.5890 0.1634
C16A C 0.6332(2) -0.38154(17) 0.23707(12)
H8A H 0.5515 -0.3437 0.2282
C17A C -0.02304(19) 0.33937(17) -0.01722(9)
O7A O 0.3653(2) -0.0599(2) 0.46681(10)
C18A C 0.27734(18) -0.42997(15) 0.19730(8)
H9A H 0.2965 -0.3918 0.1611
C19A C -0.1271(2) 0.41653(17) -0.02608(9)
H10A H -0.1507 0.4542 -0.0647
O8A O -0.0122(2) 0.1732(2) 0.63269(8)
O9A O 0.01821(19) 0.36920(17) -0.12041(7)
N7A N -0.04582(19) 0.20781(19) 0.57935(8)
C20A C 0.6374(2) -0.50002(17) 0.23728(12)
H11A H 0.5572 -0.5400 0.2280
C21A C -0.01562(18) 0.20179(16) 0.46605(9)
H12A H -0.0893 0.2500 0.4568
C22A C 0.02552(19) 0.16581(17) 0.52799(8)
C23A C 0.13177(19) 0.09225(17) 0.54444(9)
H13A H 0.1572 0.0682 0.5862
O10A O -0.1350(2) 0.2753(3) 0.56612(9)
C24A C 0.8446(2) -0.01135(17) 0.22668(11)
H14A H 0.9119 0.0285 0.2102
N8A N -0.3062(2) 0.51773(19) 0.01672(11)
C25A C 0.19803(19) 0.05647(17) 0.49544(9)
C26A C -0.19470(19) 0.43534(17) 0.02492(10)
O11A O -0.3276(2) 0.5696(2) -0.03379(11)
O12A O -0.3707(2) 0.5303(2) 0.06016(12)
loop_
_geom_bond_atom_site_label_1
_geom_bond_atom_site_label_2
_geom_bond_site_symmetry_1
_geom_bond_site_symmetry_2
Mn1 O1 1_555 1_555
Mn2 O2 1_555 1_555
O1 C1 1_555 1_555
O2 C1 1_555 1_555
O3 Mn2 1_555 1_555
C1 C9 1_555 1_555
N1 Mn2 1_555 1_555
O4 Mn1 1_555 1_555
C2 C7 1_555 1_555
C3 C4 1_555 1_555
N2 C20 1_555 1_555
C4 C14 1_555 1_555
N3 Mn1 1_555 1_555
O5 N4 1_555 1_555
C5 H1 1_555 1_555
N4 O7 1_555 1_555
C6 H2 1_555 1_555
C7 H3 1_555 1_555
C8 C6 1_555 1_555
N5 C15 1_555 1_555
C9 C5 1_555 1_555
C10 C2 1_555 1_555
N6 O6 1_555 1_555
C11 N3 1_555 1_555
H4 C11 1_555 1_555
C12 O3 1_555 1_555
C13 C9 1_555 1_555
H5 C13 1_555 1_555
C14 H6 1_555 1_555
C15 H7 1_555 1_555
C16 C3 1_555 1_555
H8 C16 1_555 1_555
C17 C5 1_555 1_555
C18 C10 1_555 1_555
H9 C18 1_555 1_555
C19 C17 1_555 1_555
H10 C19 1_555 1_555
O8 N7 1_555 1_555
O9 N6 1_555 1_555
N7 C22 1_555 1_555
C20 C16 1_555 1_555
H11 C20 1_555 1_555
C21 C8 1_555 1_555
H12 C21 1_555 1_555
C22 C21 1_555 1_555
C23 C22 1_555 1_555
H13 C23 1_555 1_555
O10 N7 1_555 1_555
C24 N1 1_555 1_555
H14 C24 1_555 1_555
N8 C26 1_555 1_555
C25 N4 1_555 1_555
C26 C13 1_555 1_555
O11 N8 1_555 1_555
O12 N8 1_555 1_555
Mn1_2 N5 1_555 1_555
Mn2_2 N2 1_555 1_555
Mn2_3 O2A 1_555 1_555
O1A Mn1 1_555 1_555
O2A C1A 1_555 1_555
O2A_2 Mn2 1_555 1_555
O3A Mn2_3 1_555 1_555
O3A_2 Mn2 1_555 1_555
C1A O1A 1_555 1_555
O4A Mn1 1_555 1_555
N2_2 Mn2 1_555 1_555
O5A N4A 1_555 1_555
C5A H1A 1_555 1_555
N4A O7A 1_555 1_555
C6A H2A 1_555 1_555
C7A C2 1_555 1_555
H3A C7A 1_555 1_555
C8A C6A 1_555 1_555
N5_2 Mn1 1_555 1_555
C9A C1A 1_555 1_555
N6A O6A 1_555 1_555
C11A N3 1_555 1_555
H4A C11A 1_555 1_555
C12A O3A 1_555 1_555
C13A C9A 1_555 1_555
H5A C13A 1_555 1_555
C14A C4 1_555 1_555
H6A C14A 1_555 1_555
C15A N5 1_555 1_555
H7A C15A 1_555 1_555
C16A C3 1_555 1_555
H8A C16A 1_555 1_555
C17A C5A 1_555 1_555
C18A C10 1_555 1_555
H9A C18A 1_555 1_555
C19A C17A 1_555 1_555
H10A C19A 1_555 1_555
O8A N7A 1_555 1_555
O9A N6A 1_555 1_555
N7A C22A 1_555 1_555
C20A N2 1_555 1_555
H11A C20A 1_555 1_555
C21A C8A 1_555 1_555
H12A C21A 1_555 1_555
C22A C21A 1_555 1_555
C23A C22A 1_555 1_555
H13A C23A 1_555 1_555
O10A N7A 1_555 1_555
C24A N1 1_555 1_555
H14A C24A 1_555 1_555
N8A C26A 1_555 1_555
C25A N4A 1_555 1_555
C26A C13A 1_555 1_555
O11A N8A 1_555 1_555
O12A N8A 1_555 1_555
O4 C12 1_555 1_555
C6 C25 1_555 1_555
C7 C11 1_555 1_555
C8 C12 1_555 1_555
N6 C17 1_555 1_555
C14 C24 1_555 1_555
C15 C18 1_555 1_555
C19 C26 1_555 1_555
C23 C25 1_555 1_555
O4A C12A 1_555 1_555
C5A C9A 1_555 1_555
C6A C25A 1_555 1_555
C7A C11A 1_555 1_555
C8A C12A 1_555 1_555
N6A C17A 1_555 1_555
C14A C24A 1_555 1_555
C15A C18A 1_555 1_555
C16A C20A 1_555 1_555
C19A C26A 1_555 1_555
C23A C25A 1_555 1_555

#END
