
#######################################################################
#
#                 Cambridge Crystallographic Data Centre
#                                CCDC 
#
#######################################################################
#
# If this CIF has been generated from an entry in the Cambridge 
# Structural Database, then it will include bibliographic, chemical, 
# crystal, experimental, refinement or atomic coordinate data resulting 
# from the CCDC's data processing and validation procedures.
#
#######################################################################

data_XAKCOB
_symmetry_cell_setting           triclinic
_symmetry_space_group_name_H-M   'P -1'
_symmetry_Int_Tables_number      2
_space_group_name_Hall           '-P 1'
loop_
_symmetry_equiv_pos_site_id
_symmetry_equiv_pos_as_xyz
1 x,y,z
2 -x,-y,-z
_cell_length_a                   14.920(2)
_cell_length_b                   11.896(2)
_cell_length_c                   7.400(4)
_cell_angle_alpha                86.55(2)
_cell_angle_beta                 80.87(2)
_cell_angle_gamma                74.47(1)
_cell_volume                     1249.21
loop_
_atom_site_label
_atom_site_type_symbol
_atom_site_fract_x
_atom_site_fract_y
_atom_site_fract_z
Ag1 Ag 0.0000 0.0000 -1.0000
Ag2 Ag 0.0000 0.5000 0.5000
Ag3 Ag 0.5000 0.0000 0.5000
Ag4 Ag 0.5000 1.0000 1.0000
N1 N 0.0912(3) 0.0186(4) -0.8169(6)
N2 N 0.3640(4) -0.0616(5) -0.6402(9)
N3 N 0.0683(5) 0.3844(6) 0.2289(9)
N4 N 0.3516(4) 0.1793(5) 0.0331(8)
N5 N 0.4207(3) 0.1776(3) 0.5376(7)
N6 N 0.1484(3) 0.4394(4) 0.5738(7)
N7 N 0.4233(3) 0.9033(4) 0.8691(8)
N8 N 0.1480(3) 0.8655(4) 0.7947(7)
C1 C 0.1549(3) 0.1135(4) -0.4233(6)
C2 C 0.2064(3) 0.1294(4) -0.2894(6)
C3 C 0.1484(3) 0.2047(4) -0.1550(6)
C4 C 0.0516(3) 0.2371(4) -0.2024(7)
C5 C -0.0322(4) 0.3070(5) -0.1187(8)
C6 C -0.1129(4) 0.3218(6) -0.2048(10)
C7 C -0.1079(4) 0.2688(6) -0.3635(9)
C8 C -0.0240(3) 0.1982(5) -0.4517(8)
C9 C 0.0558(3) 0.1816(4) -0.3677(7)
C10 C 0.1895(3) 0.0463(4) -0.5780(7)
C11 C 0.1345(3) 0.0320(4) -0.7100(7)
C12 C 0.2860(4) -0.0141(4) -0.6133(7)
C13 C 0.1780(4) 0.2451(4) -0.0078(7)
C14 C 0.1159(5) 0.3231(5) 0.1249(8)
C15 C 0.2743(4) 0.2099(5) 0.0161(7)
C16 C 0.3536(3) 0.4680(3) 0.6938(6)
C17 C 0.2982(3) 0.5813(3) 0.7337(6)
C18 C 0.3548(3) 0.6497(3) 0.7768(6)
C19 C 0.4521(3) 0.5736(4) 0.7716(5)
C20 C 0.5333(3) 0.5966(4) 0.8077(6)
C21 C 0.6162(3) 0.5029(5) 0.7921(7)
C22 C 0.6135(3) 0.3935(5) 0.7451(7)
C23 C 0.5315(3) 0.3699(4) 0.7087(6)
C24 C 0.4506(3) 0.4628(3) 0.7206(5)
C25 C 0.3205(3) 0.3810(3) 0.6285(6)
C26 C 0.3768(3) 0.2679(4) 0.5795(7)
C27 C 0.2251(3) 0.4091(4) 0.5983(7)
C28 C 0.3233(3) 0.7692(4) 0.8115(6)
C29 C 0.3795(3) 0.8408(4) 0.8444(7)
C30 C 0.2262(3) 0.8250(4) 0.8054(7)
H1 H 0.2748 0.0891 -0.2682
H2 H -0.0394 0.3482 0.0117
H3 H -0.1746 0.3729 -0.1442
H4 H -0.1693 0.2770 -0.4196
H5 H -0.0318 0.1393 -0.5558
H6 H 0.2265 0.6148 0.7321
H7 H 0.5309 0.6743 0.8619
H8 H 0.6764 0.5217 0.8271
H9 H 0.6776 0.3240 0.7482
H10 H 0.5305 0.2995 0.6393
N1A N -0.0912(3) -0.0186(4) -1.1831(6)
N3A N -0.0683(5) 0.6156(6) 0.7711(9)
N6A N -0.1484(3) 0.5606(4) 0.4262(7)
N5A N 0.5793(3) -0.1776(3) 0.4624(7)
N7A N 0.5767(3) 1.0967(4) 1.1309(8)
C11A C -0.1345(3) -0.0320(4) -1.2900(7)
C10A C -0.1895(3) -0.0463(4) -1.4220(7)
C1A C -0.1549(3) -0.1135(4) -1.5767(6)
C12A C -0.2860(4) 0.0141(4) -1.3867(7)
N2A N -0.3640(4) 0.0616(5) -1.3598(9)
C2A C -0.2064(3) -0.1294(4) -1.7106(6)
C9A C -0.0558(3) -0.1816(4) -1.6323(7)
C3A C -0.1484(3) -0.2047(4) -1.8450(6)
H1A H -0.2748 -0.0891 -1.7318
C4A C -0.0516(3) -0.2371(4) -1.7976(7)
C8A C 0.0240(3) -0.1982(5) -1.5483(8)
C5A C 0.0322(4) -0.3070(5) -1.8813(8)
C13A C -0.1780(4) -0.2451(4) -1.9922(7)
C7A C 0.1079(4) -0.2688(6) -1.6365(9)
H5A H 0.0318 -0.1393 -1.4442
C6A C 0.1129(4) -0.3218(6) -1.7952(10)
H2A H 0.0394 -0.3482 -2.0117
C14A C -0.1159(5) -0.3231(5) -2.1249(8)
C15A C -0.2743(4) -0.2099(5) -2.0161(7)
H4A H 0.1693 -0.2770 -1.5804
H3A H 0.1746 -0.3729 -1.8558
N3A_2 N -0.0683(5) -0.3844(6) -2.2289(9)
N4A N -0.3516(4) -0.1793(5) -2.0331(8)
Ag2_2 Ag 0.0000 -0.5000 -2.5000
C26A C 0.6232(3) -0.2679(4) 0.4205(7)
C25A C 0.6795(3) -0.3810(3) 0.3715(6)
C16A C 0.6464(3) -0.4680(3) 0.3062(6)
C27A C 0.7749(3) -0.4091(4) 0.4017(7)
N6A_2 N 0.8516(3) -0.4394(4) 0.4262(7)
C17A C 0.7018(3) -0.5813(3) 0.2663(6)
C24A C 0.5494(3) -0.4628(3) 0.2794(5)
Ag2_3 Ag 1.0000 -0.5000 0.5000
C18A C 0.6452(3) -0.6497(3) 0.2232(6)
H6A H 0.7735 -0.6148 0.2679
C19A C 0.5479(3) -0.5736(4) 0.2284(5)
C23A C 0.4685(3) -0.3699(4) 0.2913(6)
C20A C 0.4667(3) -0.5966(4) 0.1923(6)
C28A C 0.6767(3) -0.7692(4) 0.1885(6)
C22A C 0.3865(3) -0.3935(5) 0.2549(7)
H10A H 0.4695 -0.2995 0.3607
C21A C 0.3838(3) -0.5029(5) 0.2079(7)
H7A H 0.4691 -0.6743 0.1381
C29A C 0.6205(3) -0.8408(4) 0.1556(7)
C30A C 0.7738(3) -0.8250(4) 0.1946(7)
H9A H 0.3224 -0.3240 0.2518
N7A_2 N 0.5767(3) -0.9033(4) 0.1309(8)
N8A N 0.8520(3) -0.8655(4) 0.2053(7)
Ag4_2 Ag 0.5000 -1.0000 0.0000
H8A H 0.3236 -0.5217 0.1729
loop_
_geom_bond_atom_site_label_1
_geom_bond_atom_site_label_2
_geom_bond_site_symmetry_1
_geom_bond_site_symmetry_2
Ag1 N1 1_555 1_555
Ag2 N3 1_555 1_555
Ag3 N5 1_555 1_555
Ag4 N7 1_555 1_555
N1 C11 1_555 1_555
N2 C12 1_555 1_555
N3 C14 1_555 1_555
N4 C15 1_555 1_555
N5 C26 1_555 1_555
N6 Ag2 1_555 1_555
N7 C29 1_555 1_555
N8 C30 1_555 1_555
C1 C2 1_555 1_555
C2 C3 1_555 1_555
C3 C4 1_555 1_555
C4 C5 1_555 1_555
C5 C6 1_555 1_555
C6 C7 1_555 1_555
C7 C8 1_555 1_555
C8 C9 1_555 1_555
C9 C1 1_555 1_555
C10 C1 1_555 1_555
C11 C10 1_555 1_555
C12 C10 1_555 1_555
C13 C3 1_555 1_555
C14 C13 1_555 1_555
C15 C13 1_555 1_555
C16 C17 1_555 1_555
C17 C18 1_555 1_555
C18 C19 1_555 1_555
C19 C20 1_555 1_555
C20 C21 1_555 1_555
C21 C22 1_555 1_555
C22 C23 1_555 1_555
C23 C24 1_555 1_555
C24 C16 1_555 1_555
C25 C16 1_555 1_555
C26 C25 1_555 1_555
C27 N6 1_555 1_555
C28 C18 1_555 1_555
C29 C28 1_555 1_555
C30 C28 1_555 1_555
H1 C2 1_555 1_555
H2 C5 1_555 1_555
H3 C6 1_555 1_555
H4 C7 1_555 1_555
H5 C8 1_555 1_555
H6 C17 1_555 1_555
H7 C20 1_555 1_555
H8 C21 1_555 1_555
H9 C22 1_555 1_555
H10 C23 1_555 1_555
N1A Ag1 1_555 1_555
N3A Ag2 1_555 1_555
N6A Ag2 1_555 1_555
N5A Ag3 1_555 1_555
N7A Ag4 1_555 1_555
C11A N1A 1_555 1_555
C10A C11A 1_555 1_555
C1A C10A 1_555 1_555
C12A C10A 1_555 1_555
N2A C12A 1_555 1_555
C2A C1A 1_555 1_555
C9A C1A 1_555 1_555
C3A C2A 1_555 1_555
H1A C2A 1_555 1_555
C4A C9A 1_555 1_555
C8A C9A 1_555 1_555
C5A C4A 1_555 1_555
C13A C3A 1_555 1_555
C7A C8A 1_555 1_555
H5A C8A 1_555 1_555
C6A C5A 1_555 1_555
H2A C5A 1_555 1_555
C14A C13A 1_555 1_555
C15A C13A 1_555 1_555
H4A C7A 1_555 1_555
H3A C6A 1_555 1_555
N3A_2 C14A 1_555 1_555
N4A C15A 1_555 1_555
Ag2_2 N3A_2 1_555 1_555
C26A N5A 1_555 1_555
C25A C26A 1_555 1_555
C16A C25A 1_555 1_555
C27A C25A 1_555 1_555
N6A_2 C27A 1_555 1_555
C17A C16A 1_555 1_555
C24A C16A 1_555 1_555
Ag2_3 N6A_2 1_555 1_555
C18A C17A 1_555 1_555
H6A C17A 1_555 1_555
C19A C24A 1_555 1_555
C23A C24A 1_555 1_555
C20A C19A 1_555 1_555
C28A C18A 1_555 1_555
C22A C23A 1_555 1_555
H10A C23A 1_555 1_555
C21A C20A 1_555 1_555
H7A C20A 1_555 1_555
C29A C28A 1_555 1_555
C30A C28A 1_555 1_555
H9A C22A 1_555 1_555
N7A_2 C29A 1_555 1_555
N8A C30A 1_555 1_555
Ag4_2 N7A_2 1_555 1_555
H8A C21A 1_555 1_555
C4 C9 1_555 1_555
C19 C24 1_555 1_555
C25 C27 1_555 1_555
C3A C4A 1_555 1_555
C7A C6A 1_555 1_555
C18A C19A 1_555 1_555
C22A C21A 1_555 1_555

#END
