
#######################################################################
#
#                 Cambridge Crystallographic Data Centre
#                                CCDC 
#
#######################################################################
#
# If this CIF has been generated from an entry in the Cambridge 
# Structural Database, then it will include bibliographic, chemical, 
# crystal, experimental, refinement or atomic coordinate data resulting 
# from the CCDC's data processing and validation procedures.
#
#######################################################################

data_XAKFOG
_symmetry_cell_setting           monoclinic
_symmetry_space_group_name_H-M   'C 2/c'
_symmetry_Int_Tables_number      15
_space_group_name_Hall           '-C 2yn'
loop_
_symmetry_equiv_pos_site_id
_symmetry_equiv_pos_as_xyz
1 x,y,z
2 -x,y,1/2-z
3 1/2+x,1/2+y,z
4 1/2-x,1/2+y,1/2-z
5 -x,-y,-z
6 x,-y,1/2+z
7 1/2-x,1/2-y,-z
8 1/2+x,1/2-y,1/2+z
_cell_length_a                   24.597(6)
_cell_length_b                   6.8474(14)
_cell_length_c                   21.253(5)
_cell_angle_alpha                90
_cell_angle_beta                 116.029(4)
_cell_angle_gamma                90
_cell_volume                     3216.48
loop_
_atom_site_label
_atom_site_type_symbol
_atom_site_fract_x
_atom_site_fract_y
_atom_site_fract_z
Ag1 Ag 0.270544(11) 0.27690(4) 0.078818(12)
Ag2 Ag 0.239869(12) 0.73275(4) 0.063674(12)
F1 F 0.05870(11) 0.2464(3) 0.01451(13)
F2 F 0.04349(10) 0.0721(4) -0.07648(10)
F3 F 0.07622(10) -0.0612(3) 0.02507(11)
F4 F 0.45993(11) 0.7568(3) 0.16884(13)
F5 F 0.45617(9) 0.9732(3) 0.09408(11)
F6 F 0.43891(9) 1.0540(3) 0.18104(11)
O1 O 0.18662(10) 0.1008(3) 0.06300(11)
O2 O 0.15108(12) 0.2233(3) -0.04584(13)
O3 O 0.32741(11) 0.9056(3) 0.11732(12)
O4 O 0.35046(13) 0.7790(4) 0.03384(13)
N1 N 0.32454(12) 0.4507(4) 0.18047(13)
N2 N 0.20388(13) 0.5665(4) 0.13321(13)
C1 C 0.38483(15) 0.4390(5) 0.20200(16)
H1 H 0.3991 0.4009 0.1689
C2 C 0.42676(14) 0.4794(5) 0.26943(17)
H2 H 0.4688 0.4668 0.2826
C3 C 0.40639(15) 0.5387(5) 0.31752(16)
H3 H 0.4343 0.5682 0.3643
C4 C 0.34421(15) 0.5545(4) 0.29617(15)
H4 H 0.3291 0.5951 0.3283
C5 C 0.30455(14) 0.5100(4) 0.22711(16)
C6 C 0.23773(14) 0.5279(4) 0.20229(16)
C7 C 0.21148(15) 0.5069(4) 0.24806(15)
H5 H 0.2361 0.4826 0.2964
C8 C 0.14863(16) 0.5217(5) 0.22253(18)
H6 H 0.1300 0.5092 0.2531
C9 C 0.11430(15) 0.5549(5) 0.15166(18)
H7 H 0.0715 0.5625 0.1325
C10 C 0.14338(15) 0.5769(4) 0.10896(17)
H8 H 0.1195 0.6004 0.0604
C11 C 0.14613(14) 0.1417(4) 0.00329(15)
C12 C 0.08041(15) 0.0970(5) -0.00906(16)
C13 C 0.36199(14) 0.8644(4) 0.09028(15)
C14 C 0.42956(15) 0.9154(5) 0.13331(16)
Ag1F Ag 0.229456(11) 0.22310(4) -0.078818(12)
Ag2F Ag 0.260131(12) 0.76725(4) -0.063674(12)
O2F O 0.34892(12) 0.2767(3) 0.04584(13)
O4F O 0.14954(13) 0.7210(4) -0.03384(13)
loop_
_geom_bond_atom_site_label_1
_geom_bond_atom_site_label_2
_geom_bond_site_symmetry_1
_geom_bond_site_symmetry_2
Ag1 O1 1_555 1_555
Ag2 O3 1_555 1_555
F1 C12 1_555 1_555
F2 C12 1_555 1_555
F3 C12 1_555 1_555
F4 C14 1_555 1_555
F5 C14 1_555 1_555
F6 C14 1_555 1_555
O1 C11 1_555 1_555
O2 C11 1_555 1_555
O3 C13 1_555 1_555
O4 C13 1_555 1_555
N1 Ag1 1_555 1_555
N2 Ag2 1_555 1_555
C1 N1 1_555 1_555
H1 C1 1_555 1_555
C2 C1 1_555 1_555
H2 C2 1_555 1_555
C3 C2 1_555 1_555
H3 C3 1_555 1_555
C4 C3 1_555 1_555
H4 C4 1_555 1_555
C5 N1 1_555 1_555
C6 N2 1_555 1_555
C7 C6 1_555 1_555
H5 C7 1_555 1_555
C8 C7 1_555 1_555
H6 C8 1_555 1_555
C9 C8 1_555 1_555
H7 C9 1_555 1_555
C10 N2 1_555 1_555
H8 C10 1_555 1_555
C11 C12 1_555 1_555
C13 C14 1_555 1_555
Ag1F O2 1_555 1_555
Ag2F O4 1_555 1_555
O2F Ag1 1_555 1_555
O4F Ag2 1_555 1_555
C4 C5 1_555 1_555
C5 C6 1_555 1_555
C9 C10 1_555 1_555

#END
