
#######################################################################
#
#                 Cambridge Crystallographic Data Centre
#                                CCDC 
#
#######################################################################
#
# If this CIF has been generated from an entry in the Cambridge 
# Structural Database, then it will include bibliographic, chemical, 
# crystal, experimental, refinement or atomic coordinate data resulting 
# from the CCDC's data processing and validation procedures.
#
#######################################################################

data_XAKGIB
_symmetry_cell_setting           triclinic
_symmetry_space_group_name_H-M   'P -1'
_symmetry_Int_Tables_number      2
_space_group_name_Hall           '-P 1'
loop_
_symmetry_equiv_pos_site_id
_symmetry_equiv_pos_as_xyz
1 x,y,z
2 -x,-y,-z
_cell_length_a                   9.532(8)
_cell_length_b                   9.881(8)
_cell_length_c                   11.051(9)
_cell_angle_alpha                104.397(2)
_cell_angle_beta                 99.707(2)
_cell_angle_gamma                114.265(5)
_cell_volume                     874.81
loop_
_atom_site_label
_atom_site_type_symbol
_atom_site_fract_x
_atom_site_fract_y
_atom_site_fract_z
C1 C 0.7299(4) 0.9282(4) 0.7716(3)
H1 H 0.6181 0.8815 0.7375
C2 C 0.9736(4) 1.0911(5) 0.8827(4)
H2 H 1.0655 1.1814 0.9418
C3 C 0.9734(5) 0.9615(5) 0.8048(4)
H3 H 1.0628 0.9464 0.8006
C4 C 0.7560(5) 0.6974(4) 0.6402(3)
H4 H 0.6452 0.6333 0.6363
H5 H 0.8193 0.6507 0.6722
C5 C 0.7612(6) 0.6915(5) 0.5041(4)
H6 H 0.8727 0.7552 0.5093
H7 H 0.7285 0.5827 0.4517
C6 C 0.6637(6) 0.7444(5) 0.4343(4)
H8 H 0.6957 0.8530 0.4863
H9 H 0.5517 0.6801 0.4278
C7 C 0.6733(6) 0.7376(4) 0.2962(4)
H10 H 0.6072 0.7796 0.2600
H11 H 0.7841 0.8044 0.3016
C8 C 0.4624(4) 0.4587(4) 0.1455(3)
H12 H 0.3691 0.4661 0.1502
C9 C 0.4710(4) 0.3296(4) 0.0757(3)
H13 H 0.3825 0.2319 0.0237
C10 C 0.7130(4) 0.5128(4) 0.1726(3)
H14 H 0.8254 0.5686 0.2016
C11 C 0.9512(3) 1.5031(3) 0.9376(2)
C12 C 0.3716(3) 0.9511(3) 0.8072(2)
C13 C 0.2848(3) 0.8357(3) 0.6688(2)
C14 C 0.1514(3) 0.6898(3) 0.6412(2)
H15 H 0.1146 0.6653 0.7096
C15 C 0.0709(3) 0.5790(3) 0.5138(3)
C16 C 0.1284(3) 0.6210(3) 0.4139(3)
H16 H 0.0772 0.5495 0.3280
C17 C 0.2597(4) 0.7662(3) 0.4389(3)
H17 H 0.2949 0.7918 0.3702
C18 C 0.3386(4) 0.8734(3) 0.5661(3)
H18 H 0.4276 0.9707 0.5831
Mn1 Mn 0.72380(5) 1.21542(5) 0.97922(4)
N1 N 0.8196(3) 1.0703(3) 0.8619(2)
N2 N 0.8173(3) 0.8581(3) 0.7341(2)
N3 N 0.6182(4) 0.5751(3) 0.2074(2)
N4 N 0.6292(3) 0.3645(3) 0.0931(2)
O1 O 0.8081(2) 1.3964(2) 0.88391(18)
O2 O 1.0240(2) 1.6151(2) 0.90023(17)
O3 O 0.5021(2) 1.0710(2) 0.82501(18)
O4 O 0.3098(2) 0.9236(2) 0.89587(17)
C1_2 C 0.7299(4) 1.9282(4) 1.7716(3)
H1_2 H 0.6181 1.8815 1.7375
C2_2 C 0.9736(4) 2.0911(5) 1.8827(4)
H2_2 H 1.0655 2.1814 1.9418
C3_2 C 0.9734(5) 1.9615(5) 1.8048(4)
H3_2 H 1.0628 1.9464 1.8006
C4_2 C 0.7560(5) 1.6974(4) 1.6402(3)
H4_2 H 0.6452 1.6333 1.6363
H5_2 H 0.8193 1.6507 1.6722
C5_2 C 0.7612(6) 1.6915(5) 1.5041(4)
H6_2 H 0.8727 1.7552 1.5093
H7_2 H 0.7285 1.5827 1.4517
C6_2 C 0.6637(6) 1.7444(5) 1.4343(4)
H8_2 H 0.6957 1.8530 1.4863
H9_2 H 0.5517 1.6801 1.4278
C7_2 C 0.6733(6) 1.7376(4) 1.2962(4)
H10_2 H 0.6072 1.7796 1.2600
H11_2 H 0.7841 1.8044 1.3016
C8_2 C 0.4624(4) 1.4587(4) 1.1455(3)
H12_2 H 0.3691 1.4661 1.1502
C9_2 C 0.4710(4) 1.3296(4) 1.0757(3)
H13_2 H 0.3825 1.2319 1.0237
C10_2 C 0.7130(4) 1.5128(4) 1.1726(3)
H14_2 H 0.8254 1.5686 1.2016
C11A C 1.0488(3) 1.4969(3) 1.0624(2)
C12A C -0.3716(3) 0.0489(3) 0.1928(2)
C13A C -0.2848(3) 0.1643(3) 0.3312(2)
C14A C -0.1514(3) 0.3102(3) 0.3588(2)
H15A H -0.1146 0.3347 0.2904
C15A C -0.0709(3) 0.4210(3) 0.4862(3)
C16A C -0.1284(3) 0.3790(3) 0.5861(3)
H16A H -0.0772 0.4505 0.6720
C17A C -0.2597(4) 0.2338(3) 0.5611(3)
H17A H -0.2949 0.2082 0.6298
C18A C -0.3386(4) 0.1266(3) 0.4339(3)
H18A H -0.4276 0.0293 0.4169
Mn1_2 Mn 0.72380(5) 2.21542(5) 1.97922(4)
Mn1_3 Mn 0.72380(5) 0.21542(5) -0.02078(4)
Mn1A Mn 1.27620(5) 1.78458(5) 1.02078(4)
Mn1A_2 Mn 0.27620(5) 0.78458(5) 1.02078(4)
Mn1A_3 Mn -0.72380(5) -0.21542(5) 0.02078(4)
Mn1_4 Mn -0.27620(5) 0.21542(5) -0.02078(4)
N1_2 N 0.8196(3) 2.0703(3) 1.8619(2)
N2_2 N 0.8173(3) 1.8581(3) 1.7341(2)
N3_2 N 0.6182(4) 1.5751(3) 1.2074(2)
N4_2 N 0.6292(3) 1.3645(3) 1.0931(2)
N4_3 N 0.6292(3) 2.3645(3) 2.0931(2)
O1A O 1.1919(2) 1.6036(2) 1.11609(18)
O1_2 O 0.8081(2) 2.3964(2) 1.88391(18)
O2A O 0.9760(2) 1.3849(2) 1.09977(17)
O2A_2 O 0.9760(2) 2.3849(2) 2.09977(17)
O3A O -0.5021(2) -0.0710(2) 0.17499(18)
O3_2 O 0.5021(2) 2.0710(2) 1.82501(18)
O4A O -0.3098(2) 0.0764(2) 0.10413(17)
O4A_2 O 0.6902(2) 1.0764(2) 1.10413(17)
O4A_3 O 0.6902(2) 2.0764(2) 2.10413(17)
loop_
_geom_bond_atom_site_label_1
_geom_bond_atom_site_label_2
_geom_bond_site_symmetry_1
_geom_bond_site_symmetry_2
C1 H1 1_555 1_555
C2 H2 1_555 1_555
C3 C2 1_555 1_555
H3 C3 1_555 1_555
C4 H4 1_555 1_555
H5 C4 1_555 1_555
C5 C4 1_555 1_555
H6 C5 1_555 1_555
H7 C5 1_555 1_555
C6 C5 1_555 1_555
H8 C6 1_555 1_555
H9 C6 1_555 1_555
C7 C6 1_555 1_555
H10 C7 1_555 1_555
H11 C7 1_555 1_555
C8 H12 1_555 1_555
C9 C8 1_555 1_555
H13 C9 1_555 1_555
C10 H14 1_555 1_555
C11 O1 1_555 1_555
C12 C13 1_555 1_555
C13 C14 1_555 1_555
C14 H15 1_555 1_555
C15 C14 1_555 1_555
C16 C15 1_555 1_555
H16 C16 1_555 1_555
C17 C16 1_555 1_555
H17 C17 1_555 1_555
C18 C13 1_555 1_555
H18 C18 1_555 1_555
Mn1 N1 1_555 1_555
N1 C1 1_555 1_555
N2 C1 1_555 1_555
N3 C7 1_555 1_555
N4 C9 1_555 1_555
O1 Mn1 1_555 1_555
O2 C11 1_555 1_555
O3 C12 1_555 1_555
O4 C12 1_555 1_555
C1_2 H1_2 1_555 1_555
C2_2 H2_2 1_555 1_555
C3_2 C2_2 1_555 1_555
H3_2 C3_2 1_555 1_555
C4_2 H4_2 1_555 1_555
H5_2 C4_2 1_555 1_555
C5_2 C4_2 1_555 1_555
H6_2 C5_2 1_555 1_555
H7_2 C5_2 1_555 1_555
C6_2 C5_2 1_555 1_555
H8_2 C6_2 1_555 1_555
H9_2 C6_2 1_555 1_555
C7_2 C6_2 1_555 1_555
H10_2 C7_2 1_555 1_555
H11_2 C7_2 1_555 1_555
C8_2 H12_2 1_555 1_555
C9_2 C8_2 1_555 1_555
H13_2 C9_2 1_555 1_555
C10_2 H14_2 1_555 1_555
C11A C11 1_555 1_555
C12A C13A 1_555 1_555
C13A C14A 1_555 1_555
C14A H15A 1_555 1_555
C15A C15 1_555 1_555
C16A C15A 1_555 1_555
H16A C16A 1_555 1_555
C17A C16A 1_555 1_555
H17A C17A 1_555 1_555
C18A C13A 1_555 1_555
H18A C18A 1_555 1_555
Mn1_2 N1_2 1_555 1_555
Mn1_3 N4 1_555 1_555
Mn1A O2 1_555 1_555
Mn1A_2 O4 1_555 1_555
Mn1A_3 O3A 1_555 1_555
Mn1_4 O4A 1_555 1_555
N1_2 C1_2 1_555 1_555
N2_2 C1_2 1_555 1_555
N3_2 C7_2 1_555 1_555
N4_2 Mn1 1_555 1_555
N4_3 Mn1_2 1_555 1_555
O1A C11A 1_555 1_555
O1_2 Mn1_2 1_555 1_555
O2A Mn1 1_555 1_555
O2A_2 Mn1_2 1_555 1_555
O3A C12A 1_555 1_555
O3_2 Mn1_2 1_555 1_555
O4A C12A 1_555 1_555
O4A_2 Mn1 1_555 1_555
O4A_3 Mn1_2 1_555 1_555
C2 N1 1_555 1_555
C3 N2 1_555 1_555
C4 N2 1_555 1_555
C8 N3 1_555 1_555
C10 N3 1_555 1_555
C10 N4 1_555 1_555
C17 C18 1_555 1_555
Mn1 O3 1_555 1_555
C2_2 N1_2 1_555 1_555
C3_2 N2_2 1_555 1_555
C4_2 N2_2 1_555 1_555
C8_2 N3_2 1_555 1_555
C9_2 N4_2 1_555 1_555
C10_2 N3_2 1_555 1_555
C10_2 N4_2 1_555 1_555
C11A O2A 1_555 1_555
C14A C15A 1_555 1_555
C17A C18A 1_555 1_555
Mn1A O1A 1_555 1_555

#END
