
#######################################################################
#
#                 Cambridge Crystallographic Data Centre
#                                CCDC 
#
#######################################################################
#
# If this CIF has been generated from an entry in the Cambridge 
# Structural Database, then it will include bibliographic, chemical, 
# crystal, experimental, refinement or atomic coordinate data resulting 
# from the CCDC's data processing and validation procedures.
#
#######################################################################

data_XAKGAT
_symmetry_cell_setting           monoclinic
_symmetry_space_group_name_H-M   'C 2/c'
_symmetry_Int_Tables_number      15
_space_group_name_Hall           '-C 2yn'
loop_
_symmetry_equiv_pos_site_id
_symmetry_equiv_pos_as_xyz
1 x,y,z
2 -x,y,1/2-z
3 1/2+x,1/2+y,z
4 1/2-x,1/2+y,1/2-z
5 -x,-y,-z
6 x,-y,1/2+z
7 1/2-x,1/2-y,-z
8 1/2+x,1/2-y,1/2+z
_cell_length_a                   13.519(5)
_cell_length_b                   24.187(9)
_cell_length_c                   7.301(3)
_cell_angle_alpha                90
_cell_angle_beta                 96.918(5)
_cell_angle_gamma                90
_cell_volume                     2369.93
loop_
_atom_site_label
_atom_site_type_symbol
_atom_site_fract_x
_atom_site_fract_y
_atom_site_fract_z
Ag1 Ag 0.0000 0.0000 0.0000
O1 O 0.00398(11) 0.09711(7) -0.0200(2)
N1 N -0.13089(13) 0.11598(7) 0.1275(2)
H1 H -0.1378 0.0811 0.1457
O2 O -0.13415(13) 0.00438(6) 0.2083(2)
C1 C -0.19943(16) -0.03274(9) 0.2224(3)
N2 N -0.18133(13) -0.08533(7) 0.1662(2)
H2 H -0.1265 -0.0916 0.1210
C2 C -0.05410(15) 0.13279(8) 0.0342(3)
C3 C -0.19677(17) 0.15108(9) 0.1932(3)
H3 H -0.2478 0.1371 0.2544
C4 C -0.24535(18) -0.12841(9) 0.1781(3)
H4 H -0.2291 -0.1632 0.1369
C5 C -0.04687(17) 0.19098(9) 0.0059(3)
H5 H 0.0028 0.2048 -0.0591
C6 C -0.11206(18) 0.22646(9) 0.0732(3)
H6 H -0.1059 0.2643 0.0548
C7 C -0.29123(17) -0.02432(10) 0.2950(3)
H7 H -0.3080 0.0108 0.3333
C8 C -0.33255(17) -0.12096(10) 0.2493(3)
H8 H -0.3762 -0.1503 0.2585
C9 C -0.18849(18) 0.20657(9) 0.1700(3)
H9 H -0.2324 0.2308 0.2171
C10 C -0.35494(17) -0.06760(11) 0.3087(3)
H10 H -0.4142 -0.0616 0.3584
Ag1A Ag 0.0000 0.0000 0.5000
O1D O -0.00398(11) -0.09711(7) 0.0200(2)
N1D N 0.13089(13) -0.11598(7) -0.1275(2)
H1D H 0.1378 -0.0811 -0.1457
O2A O 0.13415(13) 0.00438(6) 0.2917(2)
O2D O 0.13415(13) -0.00438(6) -0.2083(2)
O2E O -0.13415(13) -0.00438(6) -0.2917(2)
C1A C 0.19943(16) -0.03274(9) 0.2776(3)
N2A N 0.18133(13) -0.08533(7) 0.3338(2)
H2A H 0.1265 -0.0916 0.3790
C2D C 0.05410(15) -0.13279(8) -0.0342(3)
C3D C 0.19677(17) -0.15108(9) -0.1932(3)
H3D H 0.2478 -0.1371 -0.2544
C4A C 0.24535(18) -0.12841(9) 0.3219(3)
H4A H 0.2291 -0.1632 0.3631
C5D C 0.04687(17) -0.19098(9) -0.0059(3)
H5D H -0.0028 -0.2048 0.0591
C6D C 0.11206(18) -0.22646(9) -0.0732(3)
H6D H 0.1059 -0.2643 -0.0548
C7A C 0.29123(17) -0.02432(10) 0.2050(3)
H7A H 0.3080 0.0108 0.1667
C8A C 0.33255(17) -0.12096(10) 0.2507(3)
H8A H 0.3762 -0.1503 0.2415
C9D C 0.18849(18) -0.20657(9) -0.1700(3)
H9D H 0.2324 -0.2308 -0.2171
C10A C 0.35494(17) -0.06760(11) 0.1913(3)
H10A H 0.4142 -0.0616 0.1416
P1 P -0.5000 0.14921(3) 0.2500
F1 F -0.52808(12) 0.14954(6) 0.4566(2)
F2 F -0.58219(11) 0.19640(6) 0.1951(2)
F3 F -0.58231(11) 0.10246(6) 0.1955(2)
F1A F -0.47192(12) 0.14954(6) 0.0434(2)
F2A F -0.41781(11) 0.19640(6) 0.3049(2)
F3A F -0.41769(11) 0.10246(6) 0.3045(2)
loop_
_geom_bond_atom_site_label_1
_geom_bond_atom_site_label_2
_geom_bond_site_symmetry_1
_geom_bond_site_symmetry_2
Ag1 O1 1_555 1_555
P1 F1 1_555 1_555
O1 C2 1_555 1_555
N1 H1 1_555 1_555
O2 Ag1 1_555 1_555
C1 O2 1_555 1_555
N2 C1 1_555 1_555
H2 N2 1_555 1_555
C2 N1 1_555 1_555
F2 P1 1_555 1_555
F3 P1 1_555 1_555
C3 N1 1_555 1_555
H3 C3 1_555 1_555
C4 N2 1_555 1_555
H4 C4 1_555 1_555
C5 C2 1_555 1_555
H5 C5 1_555 1_555
C6 C5 1_555 1_555
H6 C6 1_555 1_555
C7 C1 1_555 1_555
H7 C7 1_555 1_555
C8 C4 1_555 1_555
H8 C8 1_555 1_555
C9 C3 1_555 1_555
H9 C9 1_555 1_555
C10 C7 1_555 1_555
H10 C10 1_555 1_555
Ag1A O2 1_555 1_555
O1D Ag1 1_555 1_555
N1D H1D 1_555 1_555
F1A P1 1_555 1_555
O2A Ag1 1_555 1_555
O2D Ag1 1_555 1_555
O2E Ag1 1_555 1_555
C1A O2A 1_555 1_555
N2A C1A 1_555 1_555
H2A N2A 1_555 1_555
C2D O1D 1_555 1_555
F2A P1 1_555 1_555
F3A P1 1_555 1_555
C3D N1D 1_555 1_555
H3D C3D 1_555 1_555
C4A N2A 1_555 1_555
H4A C4A 1_555 1_555
C5D C2D 1_555 1_555
H5D C5D 1_555 1_555
C6D C5D 1_555 1_555
H6D C6D 1_555 1_555
C7A C1A 1_555 1_555
H7A C7A 1_555 1_555
C8A C4A 1_555 1_555
H8A C8A 1_555 1_555
C9D C3D 1_555 1_555
H9D C9D 1_555 1_555
C10A C7A 1_555 1_555
H10A C10A 1_555 1_555
C6 C9 1_555 1_555
C8 C10 1_555 1_555
Ag1A O2A 1_555 1_555
N1D C2D 1_555 1_555
C6D C9D 1_555 1_555
C8A C10A 1_555 1_555

#END
