
#######################################################################
#
#                 Cambridge Crystallographic Data Centre
#                                CCDC 
#
#######################################################################
#
# If this CIF has been generated from an entry in the Cambridge 
# Structural Database, then it will include bibliographic, chemical, 
# crystal, experimental, refinement or atomic coordinate data resulting 
# from the CCDC's data processing and validation procedures.
#
#######################################################################

data_XAKGAS
_symmetry_cell_setting           triclinic
_symmetry_space_group_name_H-M   'P -1'
_symmetry_Int_Tables_number      2
_space_group_name_Hall           '-P 1'
loop_
_symmetry_equiv_pos_site_id
_symmetry_equiv_pos_as_xyz
1 x,y,z
2 -x,-y,-z
_cell_length_a                   11.5792(10)
_cell_length_b                   12.4592(11)
_cell_length_c                   19.0001(17)
_cell_angle_alpha                88.380(2)
_cell_angle_beta                 84.943(2)
_cell_angle_gamma                65.788(2)
_cell_volume                     2490.15
loop_
_atom_site_label
_atom_site_type_symbol
_atom_site_fract_x
_atom_site_fract_y
_atom_site_fract_z
Cd1 Cd 0.5000 -1.0000 0.0000
O1 O 0.4370(6) -0.9570(5) -0.1087(3)
N1 N 0.5131(7) -1.0302(6) -0.1602(4)
N2 N 0.9315(6) -1.4373(6) -0.4099(3)
C1 C 0.4931(9) -1.1238(10) -0.1738(5)
H1 H 0.4241 -1.1354 -0.1492
C2 C 0.5732(9) -1.2062(9) -0.2245(5)
H2 H 0.5585 -1.2736 -0.2345
C3 C 0.6744(8) -1.1890(8) -0.2602(4)
C4 C 0.6883(9) -1.0884(8) -0.2443(4)
H3 H 0.7546 -1.0724 -0.2688
C5 C 0.6079(9) -1.0098(8) -0.1933(5)
H4 H 0.6203 -0.9417 -0.1820
C6 C 0.7659(7) -1.2779(7) -0.3113(4)
C7 C 0.7416(7) -1.3708(7) -0.3352(4)
H5 H 0.6663 -1.3791 -0.3178
C8 C 0.8261(7) -1.4503(7) -0.3838(4)
H6 H 0.8101 -1.5146 -0.3989
C9 C 0.9575(8) -1.3513(8) -0.3869(4)
H7 H 1.0337 -1.3451 -0.4048
C10 C 0.8763(8) -1.2701(8) -0.3373(4)
H8 H 0.8970 -1.2092 -0.3212
C11 C 1.0202(7) -1.5226(8) -0.4641(4)
H9 H 1.0179 -1.6007 -0.4568
H10 H 1.1082 -1.5311 -0.4600
O2 O 0.2957(5) -0.8822(4) 0.0406(3)
N3 N 0.2521(6) -0.7674(6) 0.0347(3)
N4 N 0.0025(7) -0.1526(6) 0.0085(4)
C12 C 0.2575(8) -0.7160(7) -0.0280(4)
H11 H 0.2957 -0.7636 -0.0689
C13 C 0.2091(8) -0.5971(7) -0.0334(5)
H12 H 0.2120 -0.5626 -0.0784
C14 C 0.1556(7) -0.5251(6) 0.0253(4)
C15 C 0.1513(8) -0.5794(7) 0.0887(5)
H13 H 0.1150 -0.5328 0.1301
C16 C 0.1982(8) -0.6995(8) 0.0934(4)
H14 H 0.1930 -0.7353 0.1376
C17 C 0.1032(7) -0.3948(7) 0.0185(5)
C18 C 0.0875(8) -0.3388(8) -0.0447(5)
H15 H 0.1119 -0.3848 -0.0868
C19 C 0.0366(9) -0.2158(8) -0.0501(5)
H16 H 0.0269 -0.1790 -0.0950
C20 C 0.0157(10) -0.2022(8) 0.0736(6)
H17 H -0.0107 -0.1537 0.1147
C21 C 0.0672(9) -0.3225(8) 0.0799(5)
H18 H 0.0787 -0.3573 0.1253
C22 C -0.0529(10) -0.0229(8) 0.0033(6)
H19 H -0.1110 0.0120 0.0459
H20 H -0.1029 0.0015 -0.0385
S1 S 0.6138(3) -0.7751(3) -0.02778(15)
O3 O 0.5386(8) -0.8351(7) 0.0030(4)
O4 O 0.7210(10) -0.8348(12) -0.0700(7)
O5 O 0.5154(9) -0.6720(10) -0.0825(7)
C23 C 0.590(2) -0.6619(17) 0.0375(9)
F1 F 0.6638(13) -0.7376(14) 0.0778(13)
F2 F 0.6215(11) -0.5832(10) -0.0069(19)
F3 F 0.4599(10) -0.6049(12) 0.0411(17)
Cd1_2 Cd 1.5000 -2.0000 -1.0000
Cd1_3 Cd -0.5000 1.0000 0.0000
O1A O 1.5630(6) -2.0430(5) -0.8913(3)
O1A_2 O 0.5630(6) -1.0430(5) 0.1087(3)
N1A N 1.4869(7) -1.9698(6) -0.8398(4)
N2A N 1.0685(6) -1.5627(6) -0.5901(3)
C1A C 1.5069(9) -1.8762(10) -0.8262(5)
H1A H 1.5759 -1.8646 -0.8508
C2A C 1.4268(9) -1.7938(9) -0.7755(5)
H2A H 1.4415 -1.7264 -0.7655
C3A C 1.3256(8) -1.8110(8) -0.7398(4)
C4A C 1.3117(9) -1.9116(8) -0.7557(4)
H3A H 1.2454 -1.9276 -0.7312
C5A C 1.3921(9) -1.9902(8) -0.8067(5)
H4A H 1.3797 -2.0583 -0.8180
C6A C 1.2341(7) -1.7221(7) -0.6887(4)
C7A C 1.2584(7) -1.6292(7) -0.6648(4)
H5A H 1.3337 -1.6209 -0.6822
C8A C 1.1739(7) -1.5497(7) -0.6162(4)
H6A H 1.1899 -1.4854 -0.6011
C9A C 1.0425(8) -1.6487(8) -0.6131(4)
H7A H 0.9663 -1.6549 -0.5952
C10A C 1.1237(8) -1.7299(8) -0.6627(4)
H8A H 1.1030 -1.7908 -0.6788
C11A C 0.9798(7) -1.4774(8) -0.5359(4)
H9A H 0.9821 -1.3993 -0.5432
H10A H 0.8918 -1.4689 -0.5400
O2A O -0.2957(5) 0.8822(4) -0.0406(3)
O2A_2 O 0.7043(5) -1.1178(4) -0.0406(3)
N3A N -0.2521(6) 0.7674(6) -0.0347(3)
N4A N -0.0025(7) 0.1526(6) -0.0085(4)
C12A C -0.2575(8) 0.7160(7) 0.0280(4)
H11A H -0.2957 0.7636 0.0689
C13A C -0.2091(8) 0.5971(7) 0.0334(5)
H12A H -0.2120 0.5626 0.0784
C14A C -0.1556(7) 0.5251(6) -0.0253(4)
C15A C -0.1513(8) 0.5794(7) -0.0887(5)
H13A H -0.1150 0.5328 -0.1301
C16A C -0.1982(8) 0.6995(8) -0.0934(4)
H14A H -0.1930 0.7353 -0.1376
C17A C -0.1032(7) 0.3948(7) -0.0185(5)
C18A C -0.0875(8) 0.3388(8) 0.0447(5)
H15A H -0.1119 0.3848 0.0868
C19A C -0.0366(9) 0.2158(8) 0.0501(5)
H16A H -0.0269 0.1790 0.0950
C20A C -0.0157(10) 0.2022(8) -0.0736(6)
H17A H 0.0107 0.1537 -0.1147
C21A C -0.0672(9) 0.3225(8) -0.0799(5)
H18A H -0.0787 0.3573 -0.1253
C22A C 0.0529(10) 0.0229(8) -0.0033(6)
H19A H 0.1110 -0.0120 -0.0459
H20A H 0.1029 -0.0015 0.0385
S1A S 0.3862(3) -1.2249(3) 0.02778(15)
O3A O 0.4614(8) -1.1649(7) -0.0030(4)
O4A O 0.2790(10) -1.1652(12) 0.0700(7)
O5A O 0.4846(9) -1.3280(10) 0.0825(7)
C23A C 0.410(2) -1.3381(17) -0.0375(9)
F1A F 0.3362(13) -1.2624(14) -0.0778(13)
F2A F 0.3785(11) -1.4168(10) 0.0069(19)
F3A F 0.5401(10) -1.3951(12) -0.0411(17)
O6 O -0.3293(6) 0.7393(6) -0.4997(3)
O7 O -0.3005(11) 0.4907(8) -0.5217(7)
O8 O -0.1169(6) 0.2971(6) -0.4687(4)
O9 O -0.1613(6) 0.8288(6) -0.5061(3)
C24 C -0.2732(9) 0.8899(8) -0.4661(5)
C25 C -0.3007(10) 0.9917(8) -0.4298(5)
H21 H -0.2407 1.0260 -0.4322
C26 C -0.4169(12) 1.0458(10) -0.3890(6)
H22 H -0.4343 1.1148 -0.3622
C27 C -0.5041(11) 0.9994(11) -0.3880(5)
H23 H -0.5846 1.0380 -0.3624
C28 C -0.4766(9) 0.8981(9) -0.4234(5)
H24 H -0.5380 0.8655 -0.4203
C29 C -0.3625(8) 0.8394(8) -0.4641(4)
C30 C -0.4256(9) 0.6980(10) -0.5047(5)
H25 H -0.5020 0.7622 -0.5215
H26 H -0.4493 0.6742 -0.4574
C31 C -0.3815(10) 0.5962(9) -0.5543(6)
H27 H -0.4560 0.5861 -0.5696
H28 H -0.3349 0.6119 -0.5967
C32 C -0.3032(13) 0.4015(13) -0.5261(12)
H29 H -0.2997 0.3874 -0.5775
H30 H -0.3896 0.4126 -0.5067
C33 C -0.2195(10) 0.2913(9) -0.4983(6)
H31 H -0.2684 0.2647 -0.4619
H32 H -0.1874 0.2317 -0.5368
C34 C -0.0365(10) 0.1941(9) -0.4328(6)
H33 H -0.0867 0.1497 -0.4149
H34 H -0.0057 0.2185 -0.3917
C35 C -0.0759(10) 0.8849(9) -0.5197(6)
H35 H -0.1195 0.9616 -0.5429
H36 H -0.0472 0.8993 -0.4748
O6A O 0.3293(6) 0.2607(6) -0.5003(3)
O7A O 0.3005(11) 0.5093(8) -0.4783(7)
O8A O 0.1169(6) 0.7029(6) -0.5313(4)
O9A O 0.1613(6) 0.1712(6) -0.4939(3)
C24A C 0.2732(9) 0.1101(8) -0.5339(5)
C25A C 0.3007(10) 0.0083(8) -0.5702(5)
H21A H 0.2407 -0.0260 -0.5678
C26A C 0.4169(12) -0.0458(10) -0.6110(6)
H22A H 0.4343 -0.1148 -0.6378
C27A C 0.5041(11) 0.0006(11) -0.6120(5)
H23A H 0.5846 -0.0380 -0.6376
C28A C 0.4766(9) 0.1019(9) -0.5766(5)
H24A H 0.5380 0.1345 -0.5797
C29A C 0.3625(8) 0.1606(8) -0.5359(4)
C30A C 0.4256(9) 0.3020(10) -0.4953(5)
H25A H 0.5020 0.2378 -0.4785
H26A H 0.4493 0.3258 -0.5426
C31A C 0.3815(10) 0.4038(9) -0.4457(6)
H27A H 0.4560 0.4139 -0.4304
H28A H 0.3349 0.3881 -0.4033
C32A C 0.3032(13) 0.5985(13) -0.4739(12)
H29A H 0.2997 0.6126 -0.4225
H30A H 0.3896 0.5874 -0.4933
C33A C 0.2195(10) 0.7087(9) -0.5017(6)
H31A H 0.2684 0.7353 -0.5381
H32A H 0.1874 0.7683 -0.4632
C34A C 0.0365(10) 0.8059(9) -0.5672(6)
H33A H 0.0867 0.8503 -0.5851
H34A H 0.0057 0.7815 -0.6083
C35A C 0.0759(10) 0.1151(9) -0.4803(6)
H35A H 0.1195 0.0384 -0.4571
H36A H 0.0472 0.1007 -0.5252
S2 S 0.1013(2) 1.4115(3) -0.25082(13)
O10 O 0.1274(7) 1.4524(6) -0.1865(4)
O11 O 0.1427(7) 1.4565(7) -0.3134(4)
O12 O -0.0252(7) 1.4117(8) -0.2488(4)
C36 C 0.2032(12) 1.2551(10) -0.2517(7)
F4 F 0.1777(8) 1.2016(7) -0.1978(5)
F5 F 0.3264(7) 1.2424(7) -0.2554(5)
F6 F 0.1934(9) 1.2081(8) -0.3117(5)
S3 S 0.9817(3) 0.0730(3) -0.76137(16)
O13 O 0.9847(12) 0.1838(9) -0.7818(5)
O14 O 1.0535(10) 0.0173(8) -0.7059(5)
O15 O 0.9796(9) 0.0032(8) -0.8192(5)
C37 C 0.8232(16) 0.1187(18) -0.7160(9)
F7 F 0.7975(13) 0.0318(17) -0.6938(8)
F8 F 0.7373(9) 0.1745(12) -0.7631(6)
F9 F 0.8048(12) 0.1921(15) -0.6668(6)
N5 N 0.5452(13) 0.4454(12) -0.7343(9)
O16 O 0.4681(15) 0.4565(10) -0.7790(6)
O17 O 0.5396(9) 0.4013(11) -0.6766(7)
C38 C 0.6508(19) 0.4828(18) -0.7558(12)
H37 H 0.7048 0.4693 -0.7167
H38 H 0.6149 0.5666 -0.7675
H39 H 0.7016 0.4369 -0.7972
N6 N 1.3065(12) -0.2768(11) -0.7189(6)
O18 O 1.3160(13) -0.3302(14) -0.6683(6)
O19 O 1.3760(17) -0.2295(14) -0.7325(9)
C39 C 1.2214(14) -0.2725(13) -0.7667(9)
H40 H 1.1723 -0.3167 -0.7483
H41 H 1.2679 -0.3072 -0.8118
H42 H 1.1635 -0.1903 -0.7740
loop_
_geom_bond_atom_site_label_1
_geom_bond_atom_site_label_2
_geom_bond_site_symmetry_1
_geom_bond_site_symmetry_2
Cd1 O1 1_555 1_555
O1 N1 1_555 1_555
N1 C1 1_555 1_555
N2 C8 1_555 1_555
C1 H1 1_555 1_555
C2 C1 1_555 1_555
H2 C2 1_555 1_555
C3 C2 1_555 1_555
C4 C3 1_555 1_555
H3 C4 1_555 1_555
C5 N1 1_555 1_555
H4 C5 1_555 1_555
C6 C3 1_555 1_555
C7 C6 1_555 1_555
H5 C7 1_555 1_555
C8 C7 1_555 1_555
H6 C8 1_555 1_555
C9 N2 1_555 1_555
H7 C9 1_555 1_555
C10 C6 1_555 1_555
H8 C10 1_555 1_555
C11 N2 1_555 1_555
H9 C11 1_555 1_555
H10 C11 1_555 1_555
O2 Cd1 1_555 1_555
N3 O2 1_555 1_555
N4 C19 1_555 1_555
C12 N3 1_555 1_555
H11 C12 1_555 1_555
C13 C12 1_555 1_555
H12 C13 1_555 1_555
C14 C13 1_555 1_555
C15 C14 1_555 1_555
H13 C15 1_555 1_555
C16 N3 1_555 1_555
H14 C16 1_555 1_555
C17 C14 1_555 1_555
C18 C17 1_555 1_555
H15 C18 1_555 1_555
C19 C18 1_555 1_555
H16 C19 1_555 1_555
C20 N4 1_555 1_555
H17 C20 1_555 1_555
C21 C17 1_555 1_555
H18 C21 1_555 1_555
C22 N4 1_555 1_555
H19 C22 1_555 1_555
H20 C22 1_555 1_555
S1 O3 1_555 1_555
O3 Cd1 1_555 1_555
O4 S1 1_555 1_555
O5 S1 1_555 1_555
C23 S1 1_555 1_555
F1 C23 1_555 1_555
F2 C23 1_555 1_555
F3 C23 1_555 1_555
O6 C29 1_555 1_555
O7 C31 1_555 1_555
O8 C33 1_555 1_555
O9 C24 1_555 1_555
C24 C25 1_555 1_555
C25 H21 1_555 1_555
C26 C25 1_555 1_555
H22 C26 1_555 1_555
C27 C26 1_555 1_555
H23 C27 1_555 1_555
C28 C27 1_555 1_555
H24 C28 1_555 1_555
C29 C24 1_555 1_555
C30 O6 1_555 1_555
H25 C30 1_555 1_555
H26 C30 1_555 1_555
C31 C30 1_555 1_555
H27 C31 1_555 1_555
H28 C31 1_555 1_555
C32 O7 1_555 1_555
H29 C32 1_555 1_555
H30 C32 1_555 1_555
C33 C32 1_555 1_555
H31 C33 1_555 1_555
H32 C33 1_555 1_555
C34 O8 1_555 1_555
H33 C34 1_555 1_555
H34 C34 1_555 1_555
C35 O9 1_555 1_555
H35 C35 1_555 1_555
H36 C35 1_555 1_555
S2 O10 1_555 1_555
O11 S2 1_555 1_555
O12 S2 1_555 1_555
C36 S2 1_555 1_555
F4 C36 1_555 1_555
F5 C36 1_555 1_555
F6 C36 1_555 1_555
S3 O13 1_555 1_555
O14 S3 1_555 1_555
O15 S3 1_555 1_555
C37 S3 1_555 1_555
F7 C37 1_555 1_555
F8 C37 1_555 1_555
F9 C37 1_555 1_555
N5 O16 1_555 1_555
O17 N5 1_555 1_555
C38 N5 1_555 1_555
H37 C38 1_555 1_555
H38 C38 1_555 1_555
H39 C38 1_555 1_555
N6 O18 1_555 1_555
O19 N6 1_555 1_555
C39 N6 1_555 1_555
H40 C39 1_555 1_555
H41 C39 1_555 1_555
H42 C39 1_555 1_555
Cd1_2 O1A 1_555 1_555
Cd1_3 O2A 1_555 1_555
O1A N1A 1_555 1_555
O1A_2 Cd1 1_555 1_555
N1A C1A 1_555 1_555
N2A C8A 1_555 1_555
C1A H1A 1_555 1_555
C2A C1A 1_555 1_555
H2A C2A 1_555 1_555
C3A C2A 1_555 1_555
C4A C3A 1_555 1_555
H3A C4A 1_555 1_555
C5A N1A 1_555 1_555
H4A C5A 1_555 1_555
C6A C3A 1_555 1_555
C7A C6A 1_555 1_555
H5A C7A 1_555 1_555
C8A C7A 1_555 1_555
H6A C8A 1_555 1_555
C9A N2A 1_555 1_555
H7A C9A 1_555 1_555
C10A C6A 1_555 1_555
H8A C10A 1_555 1_555
C11A C11 1_555 1_555
H9A C11A 1_555 1_555
H10A C11A 1_555 1_555
O2A N3A 1_555 1_555
O2A_2 Cd1 1_555 1_555
N3A C12A 1_555 1_555
N4A C19A 1_555 1_555
C12A H11A 1_555 1_555
C13A C12A 1_555 1_555
H12A C13A 1_555 1_555
C14A C13A 1_555 1_555
C15A C14A 1_555 1_555
H13A C15A 1_555 1_555
C16A N3A 1_555 1_555
H14A C16A 1_555 1_555
C17A C14A 1_555 1_555
C18A C17A 1_555 1_555
H15A C18A 1_555 1_555
C19A C18A 1_555 1_555
H16A C19A 1_555 1_555
C20A N4A 1_555 1_555
H17A C20A 1_555 1_555
C21A C17A 1_555 1_555
H18A C21A 1_555 1_555
C22A C22 1_555 1_555
H19A C22A 1_555 1_555
H20A C22A 1_555 1_555
S1A O3A 1_555 1_555
O3A Cd1 1_555 1_555
O4A S1A 1_555 1_555
O5A S1A 1_555 1_555
C23A S1A 1_555 1_555
F1A C23A 1_555 1_555
F2A C23A 1_555 1_555
F3A C23A 1_555 1_555
O6A C29A 1_555 1_555
O7A C31A 1_555 1_555
O8A C33A 1_555 1_555
O9A C24A 1_555 1_555
C24A C25A 1_555 1_555
C25A H21A 1_555 1_555
C26A C25A 1_555 1_555
H22A C26A 1_555 1_555
C27A C26A 1_555 1_555
H23A C27A 1_555 1_555
C28A C27A 1_555 1_555
H24A C28A 1_555 1_555
C29A C24A 1_555 1_555
C30A O6A 1_555 1_555
H25A C30A 1_555 1_555
H26A C30A 1_555 1_555
C31A C30A 1_555 1_555
H27A C31A 1_555 1_555
H28A C31A 1_555 1_555
C32A O7A 1_555 1_555
H29A C32A 1_555 1_555
H30A C32A 1_555 1_555
C33A C32A 1_555 1_555
H31A C33A 1_555 1_555
H32A C33A 1_555 1_555
C34A C35 1_555 1_555
H33A C34A 1_555 1_555
H34A C34A 1_555 1_555
C35A C34 1_555 1_555
H35A C35A 1_555 1_555
H36A C35A 1_555 1_555
C4 C5 1_555 1_555
C9 C10 1_555 1_555
C15 C16 1_555 1_555
C20 C21 1_555 1_555
C28 C29 1_555 1_555
N2A C11A 1_555 1_555
C4A C5A 1_555 1_555
C9A C10A 1_555 1_555
N4A C22A 1_555 1_555
C15A C16A 1_555 1_555
C20A C21A 1_555 1_555
O8A C34A 1_555 1_555
O9A C35A 1_555 1_555
C28A C29A 1_555 1_555

#END
