
#######################################################################
#
#                 Cambridge Crystallographic Data Centre
#                                CCDC 
#
#######################################################################
#
# If this CIF has been generated from an entry in the Cambridge 
# Structural Database, then it will include bibliographic, chemical, 
# crystal, experimental, refinement or atomic coordinate data resulting 
# from the CCDC's data processing and validation procedures.
#
#######################################################################

data_XAKGAS01
_symmetry_cell_setting           triclinic
_symmetry_space_group_name_H-M   'P 1'
_symmetry_Int_Tables_number      1
_space_group_name_Hall           'P 1'
loop_
_symmetry_equiv_pos_site_id
_symmetry_equiv_pos_as_xyz
1 x,y,z
_cell_length_a                   11.5792(10)
_cell_length_b                   12.4592(11)
_cell_length_c                   19.0001(17)
_cell_angle_alpha                88.380(2)
_cell_angle_beta                 84.943(2)
_cell_angle_gamma                65.788(2)
_cell_volume                     2490.15
loop_
_atom_site_label
_atom_site_type_symbol
_atom_site_fract_x
_atom_site_fract_y
_atom_site_fract_z
Cd1 Cd 0.35440(17) -0.52275(16) -0.33757(10)
O1 O 0.2903(13) -0.4778(11) -0.4444(6)
O2 O 1.4154(13) -1.5645(13) -1.2255(7)
O3 O 0.5614(10) -0.6396(10) -0.3787(6)
O4 O 1.1530(13) -2.4045(10) -0.2979(7)
N1 N 0.3673(13) -0.5500(10) -0.4953(7)
N2 N 0.7865(13) -0.9610(12) -0.7469(7)
N3 N 0.9230(12) -1.0843(12) -0.9274(6)
N4 N 1.3405(18) -1.4867(17) -1.1762(7)
N5 N 0.6037(13) -0.7576(12) -0.3746(7)
N6 N 0.8557(14) -1.3649(16) -0.3471(9)
N7 N 0.8583(15) -1.6723(11) -0.3294(9)
N8 N 1.1081(13) -2.2925(13) -0.3054(7)
C1 C 0.3466(16) -0.6408(19) -0.5114(8)
H1 H 0.2741 -0.6477 -0.4881
C2 C 0.4272(18) -0.7361(18) -0.5638(10)
H2 H 0.4124 -0.8038 -0.5729
C3 C 0.5252(13) -0.7129(12) -0.5970(7)
C4 C 0.5455(19) -0.612(2) -0.5811(8)
H3 H 0.6154 -0.5996 -0.6038
C5 C 0.457(2) -0.5273(19) -0.5291(10)
H4 H 0.4646 -0.4560 -0.5202
C6 C 0.6203(15) -0.8040(17) -0.6479(8)
C7 C 0.5943(16) -0.8857(17) -0.6732(9)
H5 H 0.5142 -0.8882 -0.6606
C8 C 0.6842(17) -0.9706(16) -0.7191(9)
H6 H 0.6702 -1.0378 -0.7304
C9 C 0.8063(14) -0.8779(17) -0.7260(9)
H7 H 0.8797 -0.8691 -0.7464
C10 C 0.7299(18) -0.7959(18) -0.6748(8)
H8 H 0.7531 -0.7363 -0.6591
C11 C 0.8763(15) -1.0465(15) -0.8011(8)
H9 H 0.8746 -1.1249 -0.7937
H10 H 0.9640 -1.0545 -0.7967
C12 C 0.8370(17) -1.0026(18) -0.8727(9)
H11 H 0.7491 -0.9945 -0.8767
H12 H 0.8383 -0.9241 -0.8797
C13 C 0.8920(17) -1.1739(18) -0.9519(8)
H13 H 0.8143 -1.1784 -0.9352
C14 C 0.9758(15) -1.2555(15) -1.0006(9)
H14 H 0.9568 -1.3173 -1.0171
C15 C 1.0901(16) -1.2459(12) -1.0256(8)
C16 C 1.1111(16) -1.1469(13) -1.0037(8)
H15 H 1.1810 -1.1337 -1.0258
C17 C 1.0330(16) -1.0694(16) -0.9511(9)
H16 H 1.0532 -1.0099 -0.9324
C18 C 1.172(2) -1.334(2) -1.0775(9)
C19 C 1.1669(17) -1.4358(12) -1.0942(9)
H17 H 1.1053 -1.4563 -1.0679
C20 C 1.2378(19) -1.5067(15) -1.1423(10)
H18 H 1.2219 -1.5721 -1.1554
C21 C 1.360(2) -1.391(2) -1.1643(12)
H19 H 1.4257 -1.3737 -1.1894
C22 C 1.2824(19) -1.3239(19) -1.1158(10)
H20 H 1.2982 -1.2584 -1.1028
C23 C 0.592(2) -0.804(2) -0.3127(12)
H21 H 0.5517 -0.7555 -0.2726
C24 C 0.6415(18) -0.9313(15) -0.3066(10)
H22 H 0.6338 -0.9664 -0.2624
C25 C 0.6990(16) -0.9993(17) -0.3646(9)
C26 C 0.7082(17) -0.9473(16) -0.4236(10)
H23 H 0.7513 -0.9942 -0.4641
C27 C 0.6559(17) -0.822(2) -0.4299(10)
H24 H 0.6597 -0.7870 -0.4746
C28 C 0.7494(16) -1.1252(15) -0.3587(12)
C29 C 0.7660(19) -1.1816(15) -0.2924(10)
H25 H 0.7407 -1.1362 -0.2500
C30 C 0.821(2) -1.307(2) -0.2894(9)
H26 H 0.8316 -1.3461 -0.2452
C31 C 0.838(2) -1.3189(12) -0.4079(10)
H27 H 0.8567 -1.3664 -0.4491
C32 C 0.791(2) -1.198(2) -0.4124(11)
H28 H 0.7888 -1.1648 -0.4582
C33 C 0.9077(14) -1.5016(13) -0.3408(6)
H29 H 0.9652 -1.5384 -0.3833
H30 H 0.9578 -1.5269 -0.2991
C34 C 0.801(2) -1.5445(19) -0.3334(19)
H31 H 0.7444 -1.5106 -0.2902
H32 H 0.7497 -1.5194 -0.3747
C35 C 0.8709(19) -1.722(2) -0.2605(12)
H33 H 0.8428 -1.6734 -0.2194
C36 C 0.9257(16) -1.8445(13) -0.2553(9)
H34 H 0.9422 -1.8810 -0.2105
C37 C 0.9569(17) -1.9150(17) -0.3191(9)
C38 C 0.9417(15) -1.8603(17) -0.3838(10)
H35 H 0.9652 -1.9067 -0.4258
C39 C 0.8927(15) -1.7387(11) -0.3887(10)
H36 H 0.8834 -1.7023 -0.4337
C40 C 1.0107(15) -2.0478(13) -0.3145(9)
C41 C 1.0124(17) -2.1082(16) -0.2462(9)
H37 H 0.9829 -2.0636 -0.2036
C42 C 1.0533(17) -2.2198(12) -0.2445(8)
H38 H 1.0470 -2.2562 -0.2006
C43 C 1.1076(15) -2.2395(13) -0.3672(8)
H39 H 1.1432 -2.2858 -0.4088
C44 C 1.0591(19) -2.1247(18) -0.3716(10)
H40 H 1.0568 -2.0916 -0.4174
S5 S 0.4747(5) -0.3050(6) -0.3633(3)
O24 O 0.5673(14) -0.3666(16) -0.4168(9)
O25 O 0.5409(10) -0.2872(14) -0.3065(6)
O26 O 0.3900(12) -0.3546(11) -0.3352(7)
C71 C 0.3888(16) -0.1655(14) -0.3986(10)
F13 F 0.3080(13) -0.1006(13) -0.3481(15)
F14 F 0.4715(10) -0.1169(10) -0.4234(9)
F15 F 0.3405(12) -0.1822(12) -0.4543(9)
S6 S 0.2449(6) -0.7519(5) -0.3096(3)
O27 O 0.1254(13) -0.7017(17) -0.2792(11)
O28 O 0.3313(10) -0.8446(13) -0.2624(6)
O29 O 0.3053(17) -0.6830(13) -0.3411(7)
C72 C 0.2683(11) -0.8531(11) -0.3792(7)
F16 F 0.2361(9) -0.9429(9) -0.3614(7)
F17 F 0.3912(11) -0.9018(11) -0.4082(6)
F18 F 0.2004(10) -0.7944(10) -0.4329(6)
Cd1_2 Cd 1.35440(17) -1.52275(16) -1.33757(10)
Cd1_3 Cd 1.35440(17) -2.52275(16) -0.33757(10)
O2_2 O 0.4154(13) -0.5645(13) -0.2255(7)
O4_2 O 0.1530(13) -0.4045(10) -0.2979(7)
O5 O 0.5230(12) -0.7851(13) -0.8407(7)
O6 O 0.7405(14) -1.2239(13) -0.8049(8)
O7 O 1.0154(14) -1.3482(14) -0.8313(8)
O8 O 1.1808(11) -1.2636(12) -0.8400(6)
O9 O 1.1546(19) -1.017(2) -0.8166(13)
O10 O 0.9738(12) -0.8190(11) -0.8700(8)
O11 O 0.6939(12) -0.6912(11) -0.8445(7)
C45 C 0.573(2) -0.6323(16) -0.8001(10)
C46 C 0.555(2) -0.5340(19) -0.7687(11)
H41 H 0.6175 -0.5026 -0.7748
C47 C 0.4368(17) -0.4728(18) -0.7237(8)
H42 H 0.4232 -0.4070 -0.6948
C48 C 0.3503(19) -0.5169(17) -0.7265(7)
H43 H 0.2674 -0.4743 -0.7045
C49 C 0.3766(15) -0.622(2) -0.7602(10)
H44 H 0.3149 -0.6547 -0.7564
C50 C 0.4898(16) -0.6807(19) -0.7988(9)
C51 C 0.4257(19) -0.827(2) -0.8435(11)
H45 H 0.3496 -0.7643 -0.8618
H46 H 0.4013 -0.8472 -0.7954
C52 C 0.474(3) -0.9349(19) -0.8914(13)
H47 H 0.4035 -0.9426 -0.9138
H48 H 0.5387 -0.9335 -0.9285
C53 C 0.821(2) -1.327(2) -0.7679(12)
H49 H 0.7703 -1.3695 -0.7478
H50 H 0.8550 -1.3019 -0.7283
C54 C 0.9307(16) -1.408(2) -0.8168(10)
H51 H 0.9754 -1.4850 -0.7939
H52 H 0.8997 -1.4224 -0.8611
C55 C 1.1200(19) -1.410(2) -0.8684(10)
C56 C 1.154(2) -1.5186(18) -0.9099(11)
H53 H 1.0962 -1.5535 -0.9141
C57 C 1.277(3) -1.5667(19) -0.9425(12)
H54 H 1.3064 -1.6435 -0.9624
C58 C 1.361(2) -1.510(3) -0.9485(16)
H55 H 1.4379 -1.5417 -0.9781
C59 C 1.330(2) -1.4143(19) -0.9125(11)
H56 H 1.3877 -1.3775 -0.9154
C60 C 1.2181(18) -1.3627(12) -0.8701(10)
C61 C 1.2767(19) -1.2230(17) -0.8335(9)
H57 H 1.2990 -1.1953 -0.8799
H58 H 1.3538 -1.2884 -0.8183
C62 C 1.2334(16) -1.1272(17) -0.7821(10)
H59 H 1.3074 -1.1197 -0.7641
H60 H 1.1831 -1.1436 -0.7417
C63 C 1.149(2) -0.919(3) -0.8107(17)
H61 H 1.2377 -0.9275 -0.8230
H62 H 1.1325 -0.9022 -0.7593
C64 C 1.071(2) -0.810(2) -0.8434(11)
H63 H 1.0389 -0.7457 -0.8078
H64 H 1.1224 -0.7899 -0.8815
C65 C 0.8926(19) -0.7173(19) -0.9013(12)
H65 H 0.8631 -0.7405 -0.9433
H66 H 0.9424 -0.6719 -0.9184
C66 C 0.783(2) -0.6401(14) -0.8585(12)
H67 H 0.8091 -0.6237 -0.8133
H68 H 0.7420 -0.5645 -0.8831
C77 C 0.557(3) -1.133(2) -0.8834(14)
H81 H 0.6087 -1.1327 -0.9278
H82 H 0.4782 -1.1374 -0.8960
O38 O 0.5249(14) -1.0227(14) -0.8436(7)
C78 C 0.630(3) -1.239(3) -0.8416(18)
H83 H 0.6670 -1.3091 -0.8732
H84 H 0.5713 -1.2528 -0.8049
S1 S 0.8732(6) -0.5952(7) -0.5776(4)
O12 O 0.862(2) -0.7007(14) -0.5544(8)
O13 O 0.7952(10) -0.5383(11) -0.6315(5)
O14 O 0.8690(14) -0.5272(9) -0.5166(5)
C67 C 1.0278(15) -0.6378(17) -0.6197(8)
F1 F 1.0521(14) -0.5509(18) -0.6497(9)
F2 F 1.1168(13) -0.692(2) -0.5741(7)
F3 F 1.0499(18) -0.7098(18) -0.6721(7)
S2 S 0.9554(5) -0.1108(5) -0.5882(3)
O15 O 0.8316(10) -0.1070(14) -0.5848(8)
O16 O 0.9975(12) -0.0650(14) -0.6510(5)
O17 O 0.9813(13) -0.0699(11) -0.5241(6)
C68 C 1.0588(11) -0.2645(10) -0.5920(8)
F4 F 1.0338(15) -0.3249(11) -0.5383(8)
F5 F 1.1780(11) -0.2780(13) -0.5871(9)
F6 F 1.0555(13) -0.3136(14) -0.6528(8)
S3 S 0.8362(5) -0.4489(5) -0.0996(2)
O18 O 0.901(2) -0.5029(17) -0.0404(10)
O19 O 0.8323(16) -0.3365(10) -0.1195(8)
O20 O 0.8335(15) -0.5287(16) -0.1505(10)
C69 C 0.6759(10) -0.3971(15) -0.0563(7)
F7 F 0.6648(19) -0.3225(19) -0.0067(11)
F8 F 0.5945(14) -0.3388(15) -0.1041(9)
F9 F 0.653(2) -0.490(2) -0.0416(12)
S4 S 0.7545(5) -0.9342(5) -0.0868(3)
O21 O 0.8762(10) -0.9346(16) -0.0872(8)
O22 O 0.7114(14) -0.9785(12) -0.0229(6)
O23 O 0.7287(12) -0.9751(14) -0.1494(5)
C70 C 0.6489(15) -0.7819(11) -0.0848(9)
F10 F 0.6761(14) -0.7272(13) -0.1412(8)
F11 F 0.5272(11) -0.7635(12) -0.0793(7)
F12 F 0.6694(18) -0.7307(14) -0.0309(8)
N9 N 1.304(3) -0.978(5) -0.6039(19)
O30 O 1.3074(15) -0.9285(15) -0.6561(11)
O31 O 1.380(2) -0.9828(19) -0.5640(10)
C73 C 1.198(3) -1.006(4) -0.579(2)
H69 H 1.1401 -0.9903 -0.6158
H70 H 1.1534 -0.9578 -0.5369
H71 H 1.2304 -1.0895 -0.5661
N10 N 0.4009(16) -0.0786(14) -0.0724(8)
O32 O 0.3313(18) -0.0755(16) -0.1147(9)
O33 O 0.3890(17) -0.119(2) -0.0162(8)
C74 C 0.506(2) -0.045(2) -0.0854(16)
H72 H 0.5049 -0.0119 -0.1329
H73 H 0.5862 -0.1143 -0.0819
H74 H 0.4990 0.0141 -0.0504
N11 N 0.1623(18) -0.799(2) -0.0502(9)
O34 O 0.177(2) -0.857(3) -0.0017(11)
O35 O 0.236(2) -0.758(2) -0.0660(16)
C75 C 0.064(2) -0.788(3) -0.0938(11)
H75 H 0.0233 -0.8402 -0.0768
H76 H 0.0996 -0.8087 -0.1427
H77 H -0.0001 -0.7061 -0.0919
N12 N 0.5445(19) -0.2453(17) -0.6133(11)
O36 O 0.485(3) -0.299(2) -0.6044(11)
O37 O 0.547(2) -0.1920(19) -0.6661(8)
C76 C 0.6263(17) -0.2474(17) -0.5599(9)
H78 H 0.6208 -0.3002 -0.5218
H79 H 0.5996 -0.1678 -0.5407
H80 H 0.7142 -0.2755 -0.5808
C79? C 0.534(3) -0.101(3) -0.8384(14)
H85? H 0.4648 -0.1101 -0.8614
H86? H 0.5000 -0.0624 -0.7917
C80? C 0.640(6) -0.212(5) -0.832(3)
H87? H 0.6060 -0.2636 -0.8056
H88? H 0.6662 -0.2449 -0.8807
O39? O 0.5897(18) -0.0392(16) -0.8809(9)
loop_
_geom_bond_atom_site_label_1
_geom_bond_atom_site_label_2
_geom_bond_site_symmetry_1
_geom_bond_site_symmetry_2
Cd1 O1 1_555 1_555
O1 N1 1_555 1_555
O2 N4 1_555 1_555
O3 Cd1 1_555 1_555
O4 N8 1_555 1_555
N1 C1 1_555 1_555
N2 C8 1_555 1_555
N3 C12 1_555 1_555
N4 C20 1_555 1_555
N5 O3 1_555 1_555
N6 C30 1_555 1_555
N7 C34 1_555 1_555
N8 C42 1_555 1_555
C1 H1 1_555 1_555
C2 C1 1_555 1_555
H2 C2 1_555 1_555
C3 C2 1_555 1_555
C4 C3 1_555 1_555
H3 C4 1_555 1_555
C5 N1 1_555 1_555
H4 C5 1_555 1_555
C6 C3 1_555 1_555
C7 C6 1_555 1_555
H5 C7 1_555 1_555
C8 C7 1_555 1_555
H6 C8 1_555 1_555
C9 N2 1_555 1_555
H7 C9 1_555 1_555
C10 C6 1_555 1_555
H8 C10 1_555 1_555
C11 N2 1_555 1_555
H9 C11 1_555 1_555
H10 C11 1_555 1_555
C12 C11 1_555 1_555
H11 C12 1_555 1_555
H12 C12 1_555 1_555
C13 N3 1_555 1_555
H13 C13 1_555 1_555
C14 C13 1_555 1_555
H14 C14 1_555 1_555
C15 C14 1_555 1_555
C16 C15 1_555 1_555
H15 C16 1_555 1_555
C17 N3 1_555 1_555
H16 C17 1_555 1_555
C18 C15 1_555 1_555
C19 C18 1_555 1_555
H17 C19 1_555 1_555
C20 C19 1_555 1_555
H18 C20 1_555 1_555
C21 N4 1_555 1_555
H19 C21 1_555 1_555
C22 C18 1_555 1_555
H20 C22 1_555 1_555
C23 N5 1_555 1_555
H21 C23 1_555 1_555
C24 C23 1_555 1_555
H22 C24 1_555 1_555
C25 C24 1_555 1_555
C26 C25 1_555 1_555
H23 C26 1_555 1_555
C27 N5 1_555 1_555
H24 C27 1_555 1_555
C28 C25 1_555 1_555
C29 C28 1_555 1_555
H25 C29 1_555 1_555
C30 C29 1_555 1_555
H26 C30 1_555 1_555
C31 N6 1_555 1_555
H27 C31 1_555 1_555
C32 C28 1_555 1_555
H28 C32 1_555 1_555
C33 N6 1_555 1_555
H29 C33 1_555 1_555
H30 C33 1_555 1_555
C34 C33 1_555 1_555
H31 C34 1_555 1_555
H32 C34 1_555 1_555
C35 N7 1_555 1_555
H33 C35 1_555 1_555
C36 C35 1_555 1_555
H34 C36 1_555 1_555
C37 C36 1_555 1_555
C38 C37 1_555 1_555
H35 C38 1_555 1_555
C39 N7 1_555 1_555
H36 C39 1_555 1_555
C40 C37 1_555 1_555
C41 C40 1_555 1_555
H37 C41 1_555 1_555
C42 C41 1_555 1_555
H38 C42 1_555 1_555
C43 N8 1_555 1_555
H39 C43 1_555 1_555
C44 C40 1_555 1_555
H40 C44 1_555 1_555
O5 C50 1_555 1_555
O6 C53 1_555 1_555
O7 C54 1_555 1_555
O8 C60 1_555 1_555
O9 C62 1_555 1_555
O10 C64 1_555 1_555
O11 C45 1_555 1_555
C45 C46 1_555 1_555
C46 H41 1_555 1_555
C47 C46 1_555 1_555
H42 C47 1_555 1_555
C48 C47 1_555 1_555
H43 C48 1_555 1_555
C49 C48 1_555 1_555
H44 C49 1_555 1_555
C50 C45 1_555 1_555
C51 O5 1_555 1_555
H45 C51 1_555 1_555
H46 C51 1_555 1_555
C52 C51 1_555 1_555
H47 C52 1_555 1_555
H48 C52 1_555 1_555
C53 H49 1_555 1_555
H50 C53 1_555 1_555
C54 C53 1_555 1_555
H51 C54 1_555 1_555
H52 C54 1_555 1_555
C55 O7 1_555 1_555
C56 C55 1_555 1_555
H53 C56 1_555 1_555
C57 C56 1_555 1_555
H54 C57 1_555 1_555
C58 C57 1_555 1_555
H55 C58 1_555 1_555
C59 C58 1_555 1_555
H56 C59 1_555 1_555
C60 C55 1_555 1_555
C61 O8 1_555 1_555
H57 C61 1_555 1_555
H58 C61 1_555 1_555
C62 C61 1_555 1_555
H59 C62 1_555 1_555
H60 C62 1_555 1_555
C63 O9 1_555 1_555
H61 C63 1_555 1_555
H62 C63 1_555 1_555
C64 C63 1_555 1_555
H63 C64 1_555 1_555
H64 C64 1_555 1_555
C65 O10 1_555 1_555
H65 C65 1_555 1_555
H66 C65 1_555 1_555
C66 O11 1_555 1_555
H67 C66 1_555 1_555
H68 C66 1_555 1_555
S1 O12 1_555 1_555
O13 S1 1_555 1_555
O14 S1 1_555 1_555
C67 S1 1_555 1_555
F1 C67 1_555 1_555
F2 C67 1_555 1_555
F3 C67 1_555 1_555
S2 O15 1_555 1_555
O16 S2 1_555 1_555
O17 S2 1_555 1_555
C68 S2 1_555 1_555
F4 C68 1_555 1_555
F5 C68 1_555 1_555
F6 C68 1_555 1_555
S3 O18 1_555 1_555
O19 S3 1_555 1_555
O20 S3 1_555 1_555
C69 S3 1_555 1_555
F7 C69 1_555 1_555
F8 C69 1_555 1_555
F9 C69 1_555 1_555
S4 O21 1_555 1_555
O22 S4 1_555 1_555
O23 S4 1_555 1_555
C70 S4 1_555 1_555
F10 C70 1_555 1_555
F11 C70 1_555 1_555
F12 C70 1_555 1_555
S5 O24 1_555 1_555
O25 S5 1_555 1_555
O26 Cd1 1_555 1_555
C71 S5 1_555 1_555
F13 C71 1_555 1_555
F14 C71 1_555 1_555
F15 C71 1_555 1_555
S6 O27 1_555 1_555
O28 S6 1_555 1_555
O29 Cd1 1_555 1_555
C72 S6 1_555 1_555
F16 C72 1_555 1_555
F17 C72 1_555 1_555
F18 C72 1_555 1_555
N9 O30 1_555 1_555
O31 N9 1_555 1_555
C73 N9 1_555 1_555
H69 C73 1_555 1_555
H70 C73 1_555 1_555
H71 C73 1_555 1_555
N10 O32 1_555 1_555
O33 N10 1_555 1_555
C74 N10 1_555 1_555
H72 C74 1_555 1_555
H73 C74 1_555 1_555
H74 C74 1_555 1_555
N11 O34 1_555 1_555
O35 N11 1_555 1_555
C75 N11 1_555 1_555
H75 C75 1_555 1_555
H76 C75 1_555 1_555
H77 C75 1_555 1_555
N12 O36 1_555 1_555
O37 N12 1_555 1_555
C76 N12 1_555 1_555
H78 C76 1_555 1_555
H79 C76 1_555 1_555
H80 C76 1_555 1_555
C77 H81 1_555 1_555
H82 C77 1_555 1_555
O38 C52 1_555 1_555
C78 O6 1_555 1_555
H83 C78 1_555 1_555
H84 C78 1_555 1_555
Cd1_2 O2 1_555 1_555
Cd1_3 O4 1_555 1_555
O2_2 Cd1 1_555 1_555
O4_2 Cd1 1_555 1_555
C4 C5 1_555 1_555
C9 C10 1_555 1_555
C16 C17 1_555 1_555
C21 C22 1_555 1_555
C26 C27 1_555 1_555
C31 C32 1_555 1_555
C38 C39 1_555 1_555
C43 C44 1_555 1_555
C49 C50 1_555 1_555
C59 C60 1_555 1_555
C65 C66 1_555 1_555
S5 O26 1_555 1_555
S6 O29 1_555 1_555
C77 O38 1_555 1_555
C77 C78 1_555 1_555

#END
