
#######################################################################
#
#                 Cambridge Crystallographic Data Centre
#                                CCDC 
#
#######################################################################
#
# If this CIF has been generated from an entry in the Cambridge 
# Structural Database, then it will include bibliographic, chemical, 
# crystal, experimental, refinement or atomic coordinate data resulting 
# from the CCDC's data processing and validation procedures.
#
#######################################################################

data_XAKHAU
_symmetry_cell_setting           monoclinic
_symmetry_space_group_name_H-M   'P 21/c'
_symmetry_Int_Tables_number      14
_space_group_name_Hall           '-P 2ybc'
loop_
_symmetry_equiv_pos_site_id
_symmetry_equiv_pos_as_xyz
1 x,y,z
2 -x,1/2+y,1/2-z
3 -x,-y,-z
4 x,1/2-y,1/2+z
_cell_length_a                   10.0833(12)
_cell_length_b                   17.0887(19)
_cell_length_c                   21.074(2)
_cell_angle_alpha                90
_cell_angle_beta                 92.910(2)
_cell_angle_gamma                90
_cell_volume                     3626.59
loop_
_atom_site_label
_atom_site_type_symbol
_atom_site_fract_x
_atom_site_fract_y
_atom_site_fract_z
Co1 Co 0.54070(4) 0.62850(2) 0.36883(2)
Co2 Co 0.75875(4) 0.69413(2) 0.25276(2)
O1 O 0.7161(2) 0.61369(15) 0.41609(12)
O2 O 0.8391(2) 0.65261(16) 0.33703(12)
O3 O 1.3188(2) 0.63449(18) 0.35333(13)
O4 O 1.4234(2) 0.60440(14) 0.44350(11)
O5 O 1.1571(3) 0.5635(2) 0.63158(14)
O6 O 0.9466(3) 0.5792(2) 0.62357(14)
O7 O 0.5916(2) 0.62286(13) 0.25975(14)
O8 O 0.5266(3) 0.52567(16) 0.31596(14)
O9 O 0.3476(2) 0.28716(13) 0.21118(12)
O10 O 0.4601(3) 0.24599(14) 0.12880(13)
O11 O 0.6418(4) 0.4515(2) -0.00474(17)
O12 O 0.7008(6) 0.5587(3) 0.0369(2)
O13 O 0.8704(3) 0.60593(15) 0.20713(13)
O14 O 0.9230(3) 0.76957(15) 0.25177(13)
O15 O 0.6900(3) 0.72766(15) 0.16294(12)
N1 N 1.0547(3) 0.5774(2) 0.60062(15)
N2 N 0.6509(4) 0.4948(3) 0.03991(19)
N3 N 1.0517(3) 0.53017(18) 0.20161(17)
N4 N 1.1460(3) 0.7832(2) 0.24308(18)
N5 N 0.6043(3) 0.82156(18) 0.09718(13)
C1 C 0.8239(3) 0.62893(19) 0.39168(17)
C2 C 0.9490(3) 0.61717(18) 0.43297(16)
C3 C 1.0713(3) 0.62258(19) 0.40590(16)
H1 H 1.0752 0.6346 0.3630
C4 C 1.1879(3) 0.6102(2) 0.44235(16)
C5 C 1.1835(3) 0.5940(2) 0.50582(16)
H2 H 1.2612 0.5851 0.5305
C6 C 1.0611(3) 0.5913(2) 0.53248(16)
C7 C 0.9434(3) 0.60096(19) 0.49684(16)
H3 H 0.8621 0.5966 0.5155
C8 C 1.3176(3) 0.6162(2) 0.41043(18)
C9 C 0.5582(3) 0.5522(2) 0.2641(2)
C10 C 0.5511(3) 0.50093(19) 0.20667(17)
C11 C 0.4916(3) 0.42749(18) 0.21119(16)
H4 H 0.4562 0.4127 0.2493
C12 C 0.4843(3) 0.37624(18) 0.16031(16)
C13 C 0.5376(3) 0.3984(2) 0.10396(17)
H5 H 0.5358 0.3646 0.0694
C14 C 0.5937(4) 0.4717(2) 0.10006(18)
C15 C 0.6007(4) 0.5237(2) 0.15018(18)
H6 H 0.6382 0.5730 0.1458
C16 C 0.4250(3) 0.29629(19) 0.16771(17)
C17 C 0.9538(4) 0.5620(2) 0.2306(2)
H7 H 0.9474 0.5499 0.2734
C18 C 1.0674(8) 0.5465(4) 0.1361(3)
H8 H 1.0040 0.5855 0.1219
H9 H 1.0532 0.4996 0.1117
H10 H 1.1556 0.5656 0.1306
C19 C 1.1493(5) 0.4793(3) 0.2333(3)
H11 H 1.1219 0.4670 0.2751
H12 H 1.2337 0.5054 0.2365
H13 H 1.1569 0.4319 0.2092
C20 C 1.0260(4) 0.7575(2) 0.2246(2)
H14 H 1.0193 0.7276 0.1877
C21 C 1.1625(6) 0.8289(5) 0.2992(3)
H15 H 1.0866 0.8224 0.3244
H16 H 1.1710 0.8831 0.2880
H17 H 1.2409 0.8123 0.3232
C22 C 1.2638(5) 0.7666(4) 0.2097(3)
H18 H 1.2399 0.7391 0.1711
H19 H 1.3228 0.7349 0.2360
H20 H 1.3071 0.8148 0.1999
C23 C 0.6784(3) 0.7969(2) 0.14649(15)
H21 H 0.7252 0.8342 0.1707
C24 C 0.5276(6) 0.7661(3) 0.0572(2)
H22 H 0.5459 0.7138 0.0716
H23 H 0.5520 0.7713 0.0139
H24 H 0.4346 0.7769 0.0597
C25 C 0.5940(4) 0.9038(2) 0.08090(19)
H25 H 0.6564 0.9332 0.1073
H26 H 0.5056 0.9218 0.0875
H27 H 0.6132 0.9108 0.0371
Co1_2 Co 1.54070(4) 0.62850(2) 0.36883(2)
Co1A Co 0.45930(4) 0.12850(2) 0.13117(2)
Co2A Co 0.24125(4) 0.19413(2) 0.24724(2)
O3_2 O 0.3188(2) 0.63449(18) 0.35333(13)
O4_2 O 0.4234(2) 0.60440(14) 0.44350(11)
O9A O 0.6524(2) 0.78716(13) 0.28882(12)
O10A O 0.5399(3) 0.74599(14) 0.37120(13)
O16 O 1.0622(10) 0.7746(4) 0.5743(4)
N6 N 0.9621(7) 0.8134(3) 0.4885(3)
C26 C 0.9403(11) 0.7817(4) 0.5443(5)
H28 H 0.8589 0.7673 0.5596
C27 C 1.0928(11) 0.8320(7) 0.4728(6)
H29 H 1.1542 0.8143 0.5061
H30 H 1.1009 0.8876 0.4680
H31 H 1.1123 0.8066 0.4337
C28 C 0.8669(10) 0.8325(5) 0.4374(4)
H32 H 0.7826 0.8096 0.4456
H33 H 0.8972 0.8124 0.3981
H34 H 0.8577 0.8884 0.4344
loop_
_geom_bond_atom_site_label_1
_geom_bond_atom_site_label_2
_geom_bond_site_symmetry_1
_geom_bond_site_symmetry_2
Co1 O1 1_555 1_555
Co2 O2 1_555 1_555
O1 C1 1_555 1_555
O2 C1 1_555 1_555
O3 C8 1_555 1_555
O4 C8 1_555 1_555
O5 N1 1_555 1_555
O6 N1 1_555 1_555
O7 Co1 1_555 1_555
O8 Co1 1_555 1_555
O9 C16 1_555 1_555
O10 C16 1_555 1_555
O11 N2 1_555 1_555
O12 N2 1_555 1_555
O13 Co2 1_555 1_555
O14 Co2 1_555 1_555
O15 Co2 1_555 1_555
N1 C6 1_555 1_555
N2 C14 1_555 1_555
N3 C17 1_555 1_555
N4 C20 1_555 1_555
N5 C23 1_555 1_555
C1 C2 1_555 1_555
C2 C3 1_555 1_555
C3 H1 1_555 1_555
C4 C3 1_555 1_555
C5 C4 1_555 1_555
H2 C5 1_555 1_555
C6 C5 1_555 1_555
C7 C2 1_555 1_555
H3 C7 1_555 1_555
C8 C4 1_555 1_555
C9 O7 1_555 1_555
C10 C9 1_555 1_555
C11 C10 1_555 1_555
H4 C11 1_555 1_555
C12 C11 1_555 1_555
C13 C12 1_555 1_555
H5 C13 1_555 1_555
C14 C13 1_555 1_555
C15 C10 1_555 1_555
H6 C15 1_555 1_555
C16 C12 1_555 1_555
C17 O13 1_555 1_555
H7 C17 1_555 1_555
C18 N3 1_555 1_555
H8 C18 1_555 1_555
H9 C18 1_555 1_555
H10 C18 1_555 1_555
C19 N3 1_555 1_555
H11 C19 1_555 1_555
H12 C19 1_555 1_555
H13 C19 1_555 1_555
C20 O14 1_555 1_555
H14 C20 1_555 1_555
C21 N4 1_555 1_555
H15 C21 1_555 1_555
H16 C21 1_555 1_555
H17 C21 1_555 1_555
C22 N4 1_555 1_555
H18 C22 1_555 1_555
H19 C22 1_555 1_555
H20 C22 1_555 1_555
C23 O15 1_555 1_555
H21 C23 1_555 1_555
C24 N5 1_555 1_555
H22 C24 1_555 1_555
H23 C24 1_555 1_555
H24 C24 1_555 1_555
C25 N5 1_555 1_555
H25 C25 1_555 1_555
H26 C25 1_555 1_555
H27 C25 1_555 1_555
O16 C26 1_555 1_555
N6 C26 1_555 1_555
C26 H28 1_555 1_555
C27 N6 1_555 1_555
H29 C27 1_555 1_555
H30 C27 1_555 1_555
H31 C27 1_555 1_555
C28 N6 1_555 1_555
H32 C28 1_555 1_555
H33 C28 1_555 1_555
H34 C28 1_555 1_555
Co1_2 O3 1_555 1_555
Co1A O10 1_555 1_555
Co2A O9 1_555 1_555
O3_2 Co1 1_555 1_555
O4_2 Co1 1_555 1_555
O9A Co2 1_555 1_555
O10A Co1 1_555 1_555
Co2 O7 1_555 1_555
O4 Co1_2 1_555 1_555
O8 C9 1_555 1_555
C6 C7 1_555 1_555
C14 C15 1_555 1_555

#END
