
#######################################################################
#
#                 Cambridge Crystallographic Data Centre
#                                CCDC 
#
#######################################################################
#
# If this CIF has been generated from an entry in the Cambridge 
# Structural Database, then it will include bibliographic, chemical, 
# crystal, experimental, refinement or atomic coordinate data resulting 
# from the CCDC's data processing and validation procedures.
#
#######################################################################

data_XAKJOK
_symmetry_cell_setting           triclinic
_symmetry_space_group_name_H-M   'P -1'
_symmetry_Int_Tables_number      2
_space_group_name_Hall           '-P 1'
loop_
_symmetry_equiv_pos_site_id
_symmetry_equiv_pos_as_xyz
1 x,y,z
2 -x,-y,-z
_cell_length_a                   10.300(3)
_cell_length_b                   12.030(3)
_cell_length_c                   12.150(3)
_cell_angle_alpha                70.581(4)
_cell_angle_beta                 85.925(4)
_cell_angle_gamma                76.512(2)
_cell_volume                     1380.65
loop_
_atom_site_label
_atom_site_type_symbol
_atom_site_fract_x
_atom_site_fract_y
_atom_site_fract_z
C1 C 0.9634(7) -0.0929(6) 0.3375(5)
C2 C 0.9489(6) -0.1117(6) 0.2234(5)
C3 C 0.8327(7) -0.0513(6) 0.1584(6)
H1 H 0.7629 -0.0040 0.1868
C4 C 0.8238(8) -0.0635(7) 0.0496(6)
C5 C 0.9247(7) -0.1320(6) 0.0040(6)
H2 H 0.9159 -0.1378 -0.0694
C6 C 1.0385(7) -0.1914(7) 0.0691(6)
C7 C 1.0512(7) -0.1835(6) 0.1800(6)
H3 H 1.1277 -0.2261 0.2245
C8 C 1.1549(9) -0.2616(8) 0.0212(7)
C9 C 0.4030(6) -0.1875(6) 0.6903(5)
C10 C 0.5373(6) -0.2185(5) 0.7502(5)
C11 C 0.5647(6) -0.3072(6) 0.8579(5)
H4 H 0.4987 -0.3440 0.9005
C12 C 0.6937(6) -0.3388(6) 0.8993(5)
C13 C 0.7962(6) -0.2870(6) 0.8378(5)
H5 H 0.8831 -0.3128 0.8669
C14 C 0.7645(6) -0.1959(5) 0.7321(5)
C15 C 0.6357(6) -0.1606(5) 0.6895(5)
H6 H 0.6142 -0.0976 0.6196
C16 C 0.5715(9) 0.1824(8) 0.6347(8)
H7 H 0.5663 0.1088 0.6280
C17 C 0.4954(10) 0.2208(11) 0.7209(9)
H8 H 0.4424 0.1727 0.7704
C18 C 0.4993(10) 0.3254(11) 0.7313(9)
H9 H 0.4484 0.3519 0.7878
C19 C 0.5823(9) 0.3984(9) 0.6552(8)
C20 C 0.5923(12) 0.5114(12) 0.6605(11)
H10 H 0.5419 0.5420 0.7148
C21 C 0.6719(14) 0.5746(11) 0.5897(12)
H11 H 0.6781 0.6476 0.5973
C22 C 0.7507(11) 0.5337(9) 0.4998(10)
C23 C 0.8317(13) 0.5984(10) 0.4198(12)
H12 H 0.8409 0.6722 0.4234
C24 C 0.8966(12) 0.5558(9) 0.3378(11)
H13 H 0.9508 0.5991 0.2843
C25 C 0.8809(9) 0.4432(7) 0.3339(8)
H14 H 0.9240 0.4151 0.2753
C26 C 0.7400(8) 0.4227(7) 0.4915(7)
C27 C 0.6557(7) 0.3526(7) 0.5716(6)
Gd1 Gd 0.82752(3) 0.14792(3) 0.44144(2)
N1 N 0.7003(8) 0.0016(8) -0.0209(7)
N2 N 0.7276(6) -0.4320(6) 1.0147(5)
N3 N 0.6506(6) 0.2452(5) 0.5622(5)
N4 N 0.8089(6) 0.3768(5) 0.4088(5)
O1 O 1.0495(5) -0.1690(4) 0.4087(4)
O2 O 0.8876(5) -0.0033(5) 0.3541(4)
O3 O 0.6136(8) 0.0642(9) 0.0193(8)
O4 O 0.6945(9) -0.0089(8) -0.1154(7)
O5 O 1.1359(6) -0.2486(6) -0.0881(5)
H15 H 1.2069 -0.2735 -0.1164
O6 O 1.2519(8) -0.3226(11) 0.0759(7)
O7 O 0.3175(4) -0.2498(4) 0.7363(4)
O8 O 0.3842(4) -0.1067(4) 0.5937(4)
O9 O 0.6395(6) -0.4789(5) 1.0694(5)
O10 O 0.8409(7) -0.4607(8) 1.0498(6)
C28 C 0.8703(6) -0.1363(6) 0.6626(5)
O11 O 0.9886(4) -0.1968(4) 0.6748(4)
O12 O 0.8335(5) -0.0297(4) 0.5962(4)
Gd1A Gd 1.17248(3) -0.14792(3) 0.55856(2)
Gd1A_2 Gd 0.17248(3) -0.14792(3) 0.55856(2)
O1A O 0.9505(5) 0.1690(4) 0.5913(4)
O7A O 0.6825(4) 0.2498(4) 0.2637(4)
O8A O 0.6158(4) 0.1067(4) 0.4063(4)
O11A O 1.0114(4) 0.1968(4) 0.3252(4)
loop_
_geom_bond_atom_site_label_1
_geom_bond_atom_site_label_2
_geom_bond_site_symmetry_1
_geom_bond_site_symmetry_2
C1 C2 1_555 1_555
C2 C3 1_555 1_555
C3 H1 1_555 1_555
C4 C3 1_555 1_555
C5 C4 1_555 1_555
H2 C5 1_555 1_555
C6 C5 1_555 1_555
C7 C2 1_555 1_555
H3 C7 1_555 1_555
C8 C6 1_555 1_555
C9 C10 1_555 1_555
C10 C11 1_555 1_555
C11 H4 1_555 1_555
C12 C11 1_555 1_555
C13 C12 1_555 1_555
H5 C13 1_555 1_555
C14 C13 1_555 1_555
C15 C10 1_555 1_555
H6 C15 1_555 1_555
C16 H7 1_555 1_555
C17 C16 1_555 1_555
H8 C17 1_555 1_555
C18 C17 1_555 1_555
H9 C18 1_555 1_555
C19 C18 1_555 1_555
C20 C19 1_555 1_555
H10 C20 1_555 1_555
C21 C20 1_555 1_555
H11 C21 1_555 1_555
C22 C21 1_555 1_555
C23 C22 1_555 1_555
H12 C23 1_555 1_555
C24 C23 1_555 1_555
H13 C24 1_555 1_555
C25 C24 1_555 1_555
H14 C25 1_555 1_555
C26 C22 1_555 1_555
C27 C19 1_555 1_555
Gd1 N3 1_555 1_555
N1 C4 1_555 1_555
N2 C12 1_555 1_555
N3 C16 1_555 1_555
N4 C25 1_555 1_555
O1 C1 1_555 1_555
O2 C1 1_555 1_555
O3 N1 1_555 1_555
O4 N1 1_555 1_555
O5 C8 1_555 1_555
H15 O5 1_555 1_555
O6 C8 1_555 1_555
O7 C9 1_555 1_555
O8 C9 1_555 1_555
O9 N2 1_555 1_555
O10 N2 1_555 1_555
C28 C14 1_555 1_555
O11 C28 1_555 1_555
O12 Gd1 1_555 1_555
Gd1A O1 1_555 1_555
Gd1A_2 O7 1_555 1_555
O1A Gd1 1_555 1_555
O7A Gd1 1_555 1_555
O8A Gd1 1_555 1_555
O11A Gd1 1_555 1_555
C6 C7 1_555 1_555
C14 C15 1_555 1_555
C26 C27 1_555 1_555
C26 N4 1_555 1_555
C27 N3 1_555 1_555
Gd1 N4 1_555 1_555
Gd1 O2 1_555 1_555
O8 Gd1A_2 1_555 1_555
C28 O12 1_555 1_555
O11 Gd1A 1_555 1_555

#END
