
#######################################################################
#
#                 Cambridge Crystallographic Data Centre
#                                CCDC 
#
#######################################################################
#
# If this CIF has been generated from an entry in the Cambridge 
# Structural Database, then it will include bibliographic, chemical, 
# crystal, experimental, refinement or atomic coordinate data resulting 
# from the CCDC's data processing and validation procedures.
#
#######################################################################

data_XAKJOK01
_symmetry_cell_setting           triclinic
_symmetry_space_group_name_H-M   'P -1'
_symmetry_Int_Tables_number      2
_space_group_name_Hall           '-P 1'
loop_
_symmetry_equiv_pos_site_id
_symmetry_equiv_pos_as_xyz
1 x,y,z
2 -x,-y,-z
_cell_length_a                   10.302(2)
_cell_length_b                   12.033(2)
_cell_length_c                   12.152(2)
_cell_angle_alpha                70.58(3)
_cell_angle_beta                 85.92(3)
_cell_angle_gamma                76.51(3)
_cell_volume                     1381.48
loop_
_atom_site_label
_atom_site_type_symbol
_atom_site_fract_x
_atom_site_fract_y
_atom_site_fract_z
C1 C 0.1297(6) 0.6363(6) 0.8374(5)
C2 C 0.2355(6) 0.6959(5) 0.7680(5)
C3 C 0.2037(6) 0.7870(6) 0.6622(5)
H1 H 0.1169 0.8128 0.6330
C4 C 0.3064(6) 0.8388(6) 0.6008(5)
C5 C 0.4353(6) 0.8072(6) 0.6421(5)
H2 H 0.5014 0.8440 0.5994
C6 C 0.4627(5) 0.7185(5) 0.7497(5)
C7 C 0.3643(6) 0.6606(5) 0.8105(5)
H3 H 0.3858 0.5976 0.8804
C8 C 0.5971(6) 0.6875(6) 0.8097(5)
C9 C -0.0366(7) 0.4071(6) 0.8374(5)
C10 C -0.0511(6) 0.3883(6) 0.7234(5)
C11 C -0.1673(7) 0.4487(6) 0.6583(6)
H4 H -0.2371 0.4960 0.6868
C12 C -0.1763(8) 0.4364(7) 0.5496(6)
C13 C -0.0754(7) 0.3680(6) 0.5039(6)
H5 H -0.0842 0.3622 0.4305
C14 C 0.0385(7) 0.3086(7) 0.5691(6)
C15 C 0.0512(7) 0.3165(6) 0.6800(6)
H6 H 0.1278 0.2739 0.7245
C16 C 0.1549(9) 0.2384(8) 0.5212(7)
C17 C 0.4285(9) 0.3177(8) 0.8653(8)
H7 H 0.4337 0.3913 0.8720
C18 C 0.5046(10) 0.2793(11) 0.7791(9)
H8 H 0.5576 0.3274 0.7295
C19 C 0.5007(10) 0.1746(11) 0.7687(9)
H9 H 0.5516 0.1481 0.7122
C20 C 0.4177(9) 0.1017(9) 0.8448(8)
C21 C 0.4078(13) -0.0115(12) 0.8396(11)
H10 H 0.4583 -0.0422 0.7853
C22 C 0.3281(14) -0.0746(11) 0.9103(12)
H11 H 0.3219 -0.1476 0.9027
C23 C 0.2494(11) -0.0337(9) 1.0001(10)
C24 C 0.1684(13) -0.0984(10) 1.0802(12)
H12 H 0.1592 -0.1722 1.0766
C25 C 0.1035(12) -0.0558(9) 1.1622(11)
H13 H 0.0492 -0.0991 1.2156
C26 C 0.1190(9) 0.0568(7) 1.1661(8)
H14 H 0.0759 0.0849 1.2247
C27 C 0.2600(8) 0.0773(7) 1.0085(7)
C28 C 0.3444(7) 0.1474(7) 0.9284(6)
Gd1 Gd 0.17248(3) 0.35208(3) 1.05856(2)
N1 N 0.2724(6) 0.9320(6) 0.4854(5)
N2 N -0.2997(8) 0.5016(8) 0.4791(7)
N3 N 0.3494(6) 0.2548(5) 0.9379(5)
N4 N 0.1911(6) 0.1231(5) 1.0913(5)
O1 O 0.1665(5) 0.5297(5) 0.9038(4)
O2 O 0.0114(4) 0.6969(4) 0.8252(4)
O3 O 0.1591(7) 0.9607(8) 0.4502(6)
O4 O 0.3605(6) 0.9789(5) 0.4306(5)
O5 O 0.6825(4) 0.7498(4) 0.7637(4)
O6 O 0.6158(4) 0.6067(4) 0.9063(4)
O7 O 0.0495(5) 0.3310(4) 0.9087(4)
O8 O -0.1124(5) 0.4967(5) 0.8541(4)
O9 O -0.3864(8) 0.5642(9) 0.5193(8)
O10 O -0.3055(9) 0.4911(8) 0.3846(7)
O11 O 0.1359(6) 0.2514(6) 0.4119(5)
H15 H 0.2068 0.2265 0.3836
O12 O 0.2519(8) 0.1774(11) 0.5760(7)
Gd1A Gd -0.17248(3) 0.64792(3) 0.94144(2)
Gd1A_2 Gd 0.82752(3) 0.64792(3) 0.94144(2)
O2A O -0.0114(4) 0.3031(4) 1.1748(4)
O5A O 0.3175(4) 0.2502(4) 1.2363(4)
O6A O 0.3842(4) 0.3933(4) 1.0937(4)
O8A O 0.1124(5) 0.5033(5) 1.1459(4)
loop_
_geom_bond_atom_site_label_1
_geom_bond_atom_site_label_2
_geom_bond_site_symmetry_1
_geom_bond_site_symmetry_2
C1 C2 1_555 1_555
C2 C3 1_555 1_555
C3 H1 1_555 1_555
C4 C3 1_555 1_555
C5 C4 1_555 1_555
H2 C5 1_555 1_555
C6 C5 1_555 1_555
C7 C2 1_555 1_555
H3 C7 1_555 1_555
C8 C6 1_555 1_555
C9 C10 1_555 1_555
C10 C11 1_555 1_555
C11 H4 1_555 1_555
C12 C11 1_555 1_555
C13 C12 1_555 1_555
H5 C13 1_555 1_555
C14 C13 1_555 1_555
C15 C10 1_555 1_555
H6 C15 1_555 1_555
C16 C14 1_555 1_555
C17 H7 1_555 1_555
C18 C17 1_555 1_555
H8 C18 1_555 1_555
C19 C18 1_555 1_555
H9 C19 1_555 1_555
C20 C19 1_555 1_555
C21 C20 1_555 1_555
H10 C21 1_555 1_555
C22 C21 1_555 1_555
H11 C22 1_555 1_555
C23 C22 1_555 1_555
C24 C23 1_555 1_555
H12 C24 1_555 1_555
C25 C24 1_555 1_555
H13 C25 1_555 1_555
C26 C25 1_555 1_555
H14 C26 1_555 1_555
C27 C23 1_555 1_555
C28 C20 1_555 1_555
Gd1 N3 1_555 1_555
N1 C4 1_555 1_555
N2 C12 1_555 1_555
N3 C17 1_555 1_555
N4 C26 1_555 1_555
O1 C1 1_555 1_555
O2 C1 1_555 1_555
O3 N1 1_555 1_555
O4 N1 1_555 1_555
O5 C8 1_555 1_555
O6 C8 1_555 1_555
O7 C9 1_555 1_555
O8 C9 1_555 1_555
O9 N2 1_555 1_555
O10 N2 1_555 1_555
O11 C16 1_555 1_555
H15 O11 1_555 1_555
O12 C16 1_555 1_555
Gd1A O2 1_555 1_555
Gd1A_2 O5 1_555 1_555
O2A Gd1 1_555 1_555
O5A Gd1 1_555 1_555
O6A Gd1 1_555 1_555
O8A Gd1 1_555 1_555
C6 C7 1_555 1_555
C14 C15 1_555 1_555
C27 C28 1_555 1_555
C27 N4 1_555 1_555
C28 N3 1_555 1_555
Gd1 N4 1_555 1_555
Gd1 O1 1_555 1_555
Gd1 O7 1_555 1_555
O6 Gd1A_2 1_555 1_555
O8 Gd1A 1_555 1_555

#END
