
#######################################################################
#
#                 Cambridge Crystallographic Data Centre
#                                CCDC 
#
#######################################################################
#
# If this CIF has been generated from an entry in the Cambridge 
# Structural Database, then it will include bibliographic, chemical, 
# crystal, experimental, refinement or atomic coordinate data resulting 
# from the CCDC's data processing and validation procedures.
#
#######################################################################

data_XAKJIE01
_symmetry_cell_setting           orthorhombic
_symmetry_space_group_name_H-M   'P n a 21'
_symmetry_Int_Tables_number      33
_space_group_name_Hall           'P 2c -2n'
loop_
_symmetry_equiv_pos_site_id
_symmetry_equiv_pos_as_xyz
1 x,y,z
2 -x,-y,1/2+z
3 1/2+x,1/2-y,z
4 1/2-x,1/2+y,1/2+z
_cell_length_a                   9.1352(18)
_cell_length_b                   10.149(2)
_cell_length_c                   13.331(3)
_cell_angle_alpha                90
_cell_angle_beta                 90
_cell_angle_gamma                90
_cell_volume                     1235.96
loop_
_atom_site_label
_atom_site_type_symbol
_atom_site_fract_x
_atom_site_fract_y
_atom_site_fract_z
Cu1 Cu 0.87236(3) 0.40327(2) 0.08327(3)
C1 C 0.6575(3) 0.2127(2) 0.13004(18)
C2 C 0.5976(3) 0.2701(2) 0.02984(18)
C3 C 0.6938(3) 0.5229(3) 0.25190(19)
H1 H 0.6652 0.4377 0.2686
C4 C 0.6433(3) 0.6276(3) 0.3108(2)
H2 H 0.5830 0.6119 0.3657
C5 C 0.6834(3) 0.7521(3) 0.2869(2)
H3 H 0.6513 0.8224 0.3259
C6 C 0.7727(3) 0.7755(2) 0.20368(19)
C7 C 0.8192(3) 0.6651(2) 0.14891(17)
C8 C 0.8186(4) 0.9031(3) 0.1707(2)
H4 H 0.7897 0.9772 0.2066
C9 C 0.9027(3) 0.9182(2) 0.0887(4)
H5 H 0.9293 1.0026 0.0686
C10 C 0.9084(3) 0.6804(2) 0.06251(17)
C11 C 0.9521(3) 0.8077(3) 0.0315(2)
C12 C 1.0386(3) 0.8146(3) -0.0554(2)
H6 H 1.0720 0.8958 -0.0782
C13 C 1.0736(4) 0.7031(3) -0.1062(2)
H7 H 1.1287 0.7079 -0.1647
C14 C 1.0265(3) 0.5817(3) -0.0702(2)
H8 H 1.0522 0.5062 -0.1055
N1 N 0.7802(2) 0.5401(2) 0.17378(15)
N2 N 0.9467(2) 0.5690(2) 0.01215(15)
O1 O 0.5817(2) 0.12999(18) 0.17462(13)
O2 O 0.4829(2) 0.21771(17) -0.00460(12)
O3 O 0.7795(2) 0.25630(18) 0.15964(13)
O4 O 0.66340(19) 0.36291(17) -0.00918(13)
Cu1B Cu 0.37236(3) 0.09673(2) 0.08327(3)
O1B O 1.0817(2) 0.37001(18) 0.17462(13)
O2B O 0.9829(2) 0.28229(17) -0.00460(12)
loop_
_geom_bond_atom_site_label_1
_geom_bond_atom_site_label_2
_geom_bond_site_symmetry_1
_geom_bond_site_symmetry_2
Cu1 N1 1_555 1_555
C1 C2 1_555 1_555
C2 O2 1_555 1_555
C3 H1 1_555 1_555
C4 C3 1_555 1_555
H2 C4 1_555 1_555
C5 C4 1_555 1_555
H3 C5 1_555 1_555
C6 C5 1_555 1_555
C7 C6 1_555 1_555
C8 C6 1_555 1_555
H4 C8 1_555 1_555
C9 C8 1_555 1_555
H5 C9 1_555 1_555
C10 C7 1_555 1_555
C11 C9 1_555 1_555
C12 C11 1_555 1_555
H6 C12 1_555 1_555
C13 C12 1_555 1_555
H7 C13 1_555 1_555
C14 C13 1_555 1_555
H8 C14 1_555 1_555
N1 C3 1_555 1_555
N2 Cu1 1_555 1_555
O1 C1 1_555 1_555
O2 Cu1B 1_555 1_555
O3 Cu1 1_555 1_555
O4 Cu1 1_555 1_555
Cu1B O1 1_555 1_555
O1B Cu1 1_555 1_555
O2B Cu1 1_555 1_555
C1 O3 1_555 1_555
C2 O4 1_555 1_555
C7 N1 1_555 1_555
C10 C11 1_555 1_555
C10 N2 1_555 1_555
C14 N2 1_555 1_555

#END
