
#######################################################################
#
#                 Cambridge Crystallographic Data Centre
#                                CCDC 
#
#######################################################################
#
# If this CIF has been generated from an entry in the Cambridge 
# Structural Database, then it will include bibliographic, chemical, 
# crystal, experimental, refinement or atomic coordinate data resulting 
# from the CCDC's data processing and validation procedures.
#
#######################################################################

data_XAKKAX
_symmetry_cell_setting           monoclinic
_symmetry_space_group_name_H-M   'P 21/c'
_symmetry_Int_Tables_number      14
_space_group_name_Hall           '-P 2ybc'
loop_
_symmetry_equiv_pos_site_id
_symmetry_equiv_pos_as_xyz
1 x,y,z
2 -x,1/2+y,1/2-z
3 -x,-y,-z
4 x,1/2-y,1/2+z
_cell_length_a                   16.889(8)
_cell_length_b                   24.744(11)
_cell_length_c                   6.750(3)
_cell_angle_alpha                90
_cell_angle_beta                 96.240(9)
_cell_angle_gamma                90
_cell_volume                     2804.12
loop_
_atom_site_label
_atom_site_type_symbol
_atom_site_fract_x
_atom_site_fract_y
_atom_site_fract_z
Gd1 Gd 0.769985(15) 0.162835(10) 0.61682(4)
Ag1 Ag 1.27129(3) 0.27098(2) 0.49007(9)
Ag2 Ag 0.26502(3) 0.00962(2) 0.40147(9)
O1 O 0.8613(2) 0.23037(17) 0.5464(8)
O2 O 0.8530(2) 0.31392(15) 0.4284(6)
O3 O 0.8850(2) 0.10782(16) 0.6024(6)
O4 O 0.9135(3) 0.05792(18) 0.8754(6)
O5 O 0.6664(3) 0.1044(2) 0.4728(6)
O6 O 0.6514(3) 0.08461(19) 0.1515(7)
O7 O 0.6853(2) 0.22994(18) 0.4473(7)
O8 O 0.6733(2) 0.31472(17) 0.3362(6)
O9 O 0.7837(3) 0.1483(2) 0.2626(6)
H1 H 0.7661 0.1161 0.2502
H2 H 0.8157 0.1639 0.1924
O10 O 0.7581(2) 0.08017(15) 0.8329(6)
H3 H 0.8059 0.0717 0.8722
H4 H 0.7353 0.0817 0.9390
N1 N 1.1448(3) 0.2720(2) 0.4982(7)
N2 N 1.1488(3) 0.0291(2) 0.4987(8)
N3 N 0.3875(3) 0.0365(2) 0.3745(8)
N4 N 0.3979(3) 0.2720(2) 0.4807(8)
C1 C 1.1038(3) 0.3187(3) 0.4945(9)
H7 H 1.1321 0.3510 0.4970
C2 C 1.0215(3) 0.3210(2) 0.4872(9)
H8 H 0.9952 0.3541 0.4804
C3 C 0.9793(3) 0.2732(2) 0.4900(8)
C4 C 1.0219(3) 0.2248(2) 0.4990(9)
H9 H 0.9951 0.1920 0.5020
C5 C 1.1036(4) 0.2255(3) 0.5035(9)
H10 H 1.1312 0.1929 0.5103
C6 C 0.8906(3) 0.2727(2) 0.4838(7)
C7 C 1.0969(4) 0.0607(2) 0.3909(10)
H11 H 1.1093 0.0724 0.2670
C8 C 1.0253(4) 0.0770(2) 0.4541(9)
H12 H 0.9897 0.0980 0.3723
C9 C 1.0080(3) 0.0614(2) 0.6418(8)
C10 C 1.0615(3) 0.0291(2) 0.7561(9)
H13 H 1.0514 0.0180 0.8826
C11 C 1.1301(4) 0.0136(2) 0.6792(10)
H14 H 1.1654 -0.0089 0.7558
C12 C 0.9283(3) 0.0766(2) 0.7152(8)
C13 C 0.4339(4) 0.0597(3) 0.5286(9)
H15 H 0.4127 0.0643 0.6490
C14 C 0.5102(4) 0.0765(2) 0.5146(10)
H16 H 0.5406 0.0910 0.6250
C15 C 0.5418(3) 0.0717(2) 0.3342(8)
C16 C 0.4947(4) 0.0496(2) 0.1764(8)
H17 H 0.5139 0.0462 0.0530
C17 C 0.4192(4) 0.0327(3) 0.2018(10)
H18 H 0.3883 0.0178 0.0930
C18 C 0.6282(3) 0.0883(2) 0.3187(8)
C19 C 0.4396(3) 0.2255(2) 0.4717(9)
H19 H 0.4125 0.1928 0.4741
C20 C 0.5204(3) 0.2245(2) 0.4593(8)
H20 H 0.5476 0.1918 0.4597
C21 C 0.4397(4) 0.3187(3) 0.4771(9)
H21 H 0.4130 0.3511 0.4912
C22 C 0.5186(3) 0.3206(2) 0.4539(9)
H22 H 0.5441 0.3536 0.4434
C23 C 0.5604(3) 0.2726(2) 0.4462(7)
C24 C 0.6471(3) 0.2728(2) 0.4095(8)
Gd1C Gd 0.769985(15) 0.337165(10) 0.11682(4)
Ag1_2 Ag 0.27129(3) 0.27098(2) 0.49007(9)
Ag2_2 Ag 1.26502(3) 0.00962(2) 0.40147(9)
O2C O 0.8530(2) 0.18608(15) 0.9284(6)
O8C O 0.6733(2) 0.18528(17) 0.8362(6)
N2_2 N 0.1488(3) 0.0291(2) 0.4987(8)
N4_2 N 1.3979(3) 0.2720(2) 0.4807(8)
O11 O 0.2993(4) 0.0486(3) 0.8246(9)
O12 O 0.2422(4) 0.0839(3) 1.0578(9)
O13 O 0.2575(5) 0.1295(3) 0.7976(11)
N5 N 0.2680(4) 0.0875(3) 0.8983(11)
O14 O 1.2728(4) 0.3429(2) 0.9058(12)
H5 H 1.2816 0.3432 1.0322
H6 H 1.2406 0.3619 0.8292
loop_
_geom_bond_atom_site_label_1
_geom_bond_atom_site_label_2
_geom_bond_site_symmetry_1
_geom_bond_site_symmetry_2
Gd1 O1 1_555 1_555
Ag1 N1 1_555 1_555
Ag2 N3 1_555 1_555
O1 C6 1_555 1_555
O2 C6 1_555 1_555
O3 Gd1 1_555 1_555
O4 C12 1_555 1_555
O5 Gd1 1_555 1_555
O6 C18 1_555 1_555
O7 Gd1 1_555 1_555
O8 C24 1_555 1_555
O9 Gd1 1_555 1_555
H1 O9 1_555 1_555
H2 O9 1_555 1_555
O10 Gd1 1_555 1_555
H3 O10 1_555 1_555
H4 O10 1_555 1_555
O11 N5 1_555 1_555
O12 N5 1_555 1_555
O13 N5 1_555 1_555
O14 H5 1_555 1_555
H6 O14 1_555 1_555
N1 C1 1_555 1_555
N2 C7 1_555 1_555
N3 C13 1_555 1_555
N4 C19 1_555 1_555
C1 H7 1_555 1_555
C2 C1 1_555 1_555
H8 C2 1_555 1_555
C3 C2 1_555 1_555
C4 C3 1_555 1_555
H9 C4 1_555 1_555
C5 N1 1_555 1_555
H10 C5 1_555 1_555
C6 C3 1_555 1_555
C7 H11 1_555 1_555
C8 C7 1_555 1_555
H12 C8 1_555 1_555
C9 C8 1_555 1_555
C10 C9 1_555 1_555
H13 C10 1_555 1_555
C11 N2 1_555 1_555
H14 C11 1_555 1_555
C12 O3 1_555 1_555
C13 H15 1_555 1_555
C14 C13 1_555 1_555
H16 C14 1_555 1_555
C15 C14 1_555 1_555
C16 C15 1_555 1_555
H17 C16 1_555 1_555
C17 N3 1_555 1_555
H18 C17 1_555 1_555
C18 O5 1_555 1_555
C19 H19 1_555 1_555
C20 C19 1_555 1_555
H20 C20 1_555 1_555
C21 N4 1_555 1_555
H21 C21 1_555 1_555
C22 C21 1_555 1_555
H22 C22 1_555 1_555
C23 C20 1_555 1_555
C24 O7 1_555 1_555
Gd1C O2 1_555 1_555
Ag1_2 N4 1_555 1_555
Ag2_2 N2 1_555 1_555
O2C Gd1 1_555 1_555
O8C Gd1 1_555 1_555
N2_2 Ag2 1_555 1_555
N4_2 Ag1 1_555 1_555
O8 Gd1C 1_555 1_555
C4 C5 1_555 1_555
C9 C12 1_555 1_555
C10 C11 1_555 1_555
C15 C18 1_555 1_555
C16 C17 1_555 1_555
C22 C23 1_555 1_555
C23 C24 1_555 1_555

#END
