
#######################################################################
#
#                 Cambridge Crystallographic Data Centre
#                                CCDC 
#
#######################################################################
#
# If this CIF has been generated from an entry in the Cambridge 
# Structural Database, then it will include bibliographic, chemical, 
# crystal, experimental, refinement or atomic coordinate data resulting 
# from the CCDC's data processing and validation procedures.
#
#######################################################################

data_XAKMIH
_symmetry_cell_setting           monoclinic
_symmetry_space_group_name_H-M   'P 21/n'
_symmetry_Int_Tables_number      14
_space_group_name_Hall           '-P 2yn'
loop_
_symmetry_equiv_pos_site_id
_symmetry_equiv_pos_as_xyz
1 x,y,z
2 1/2-x,1/2+y,1/2-z
3 -x,-y,-z
4 1/2+x,1/2-y,1/2+z
_cell_length_a                   9.4764(5)
_cell_length_b                   8.2618(5)
_cell_length_c                   15.0990(8)
_cell_angle_alpha                90
_cell_angle_beta                 106.2590(10)
_cell_angle_gamma                90
_cell_volume                     1134.85
loop_
_atom_site_label
_atom_site_type_symbol
_atom_site_fract_x
_atom_site_fract_y
_atom_site_fract_z
Cu1 Cu 0.43225(2) -0.00484(2) 0.564117(15)
O1 O 0.52755(16) 0.20568(17) 0.60153(10)
O2 O 0.64565(17) 0.21315(17) 0.49265(10)
O3 O 0.72585(15) 0.89246(17) 0.52815(9)
O4 O 0.60808(16) 0.88250(19) 0.63743(10)
O5 O 0.31493(16) -0.01217(17) 0.66816(10)
N1 N 0.12143(18) 0.0799(2) 0.71426(11)
C1 C 0.6147(2) 0.2692(2) 0.56190(13)
C2 C 0.6893(2) 0.4247(2) 0.60485(14)
H1 H 0.7516 0.3998 0.6678
H2 H 0.6124 0.5015 0.6110
C3 C 0.7844(2) 0.5086(2) 0.55190(14)
H3 H 0.7201 0.5715 0.5004
H4 H 0.8351 0.4253 0.5249
C4 C 0.8997(2) 0.6224(2) 0.61229(14)
H5 H 0.9740 0.5566 0.6569
H6 H 0.9504 0.6802 0.5726
C5 C 0.8366(2) 0.7468(2) 0.66538(13)
H7 H 0.7991 0.6896 0.7118
H8 H 0.9167 0.8196 0.6990
C6 C 0.7139(2) 0.8484(2) 0.60538(12)
C7 C 0.1952(2) 0.0576(2) 0.65288(14)
H9 H 0.1530 0.0984 0.5924
C8 C 0.1795(3) 0.0257(3) 0.80898(15)
H10 H 0.2752 -0.0261 0.8166
H11 H 0.1114 -0.0523 0.8236
H12 H 0.1911 0.1187 0.8506
C9 C -0.0149(2) 0.1724(3) 0.69183(16)
H13 H -0.0436 0.1998 0.6261
H14 H -0.0003 0.2720 0.7285
H15 H -0.0925 0.1074 0.7058
Cu1B Cu 0.56775(2) 0.00484(2) 0.435883(15)
Cu1B_2 Cu 0.56775(2) 1.00484(2) 0.435883(15)
Cu1_2 Cu 0.43225(2) 0.99516(2) 0.564117(15)
O2B O 0.35435(17) -0.21315(17) 0.50735(10)
O3B O 0.27415(15) 0.10754(17) 0.47185(9)
O4_2 O 0.60808(16) -0.11750(19) 0.63743(10)
loop_
_geom_bond_atom_site_label_1
_geom_bond_atom_site_label_2
_geom_bond_site_symmetry_1
_geom_bond_site_symmetry_2
Cu1 O1 1_555 1_555
O1 C1 1_555 1_555
O2 C1 1_555 1_555
O3 C6 1_555 1_555
O4 C6 1_555 1_555
O5 Cu1 1_555 1_555
N1 C7 1_555 1_555
C1 C2 1_555 1_555
C2 H1 1_555 1_555
H2 C2 1_555 1_555
C3 C2 1_555 1_555
H3 C3 1_555 1_555
H4 C3 1_555 1_555
C4 C3 1_555 1_555
H5 C4 1_555 1_555
H6 C4 1_555 1_555
C5 C4 1_555 1_555
H7 C5 1_555 1_555
H8 C5 1_555 1_555
C6 C5 1_555 1_555
C7 O5 1_555 1_555
H9 C7 1_555 1_555
C8 N1 1_555 1_555
H10 C8 1_555 1_555
H11 C8 1_555 1_555
H12 C8 1_555 1_555
C9 N1 1_555 1_555
H13 C9 1_555 1_555
H14 C9 1_555 1_555
H15 C9 1_555 1_555
Cu1B Cu1 1_555 1_555
Cu1B_2 O3 1_555 1_555
Cu1_2 O4 1_555 1_555
O2B Cu1 1_555 1_555
O3B Cu1 1_555 1_555
O4_2 Cu1 1_555 1_555
O2 Cu1B 1_555 1_555
Cu1B_2 Cu1_2 1_555 1_555

#END
