
#######################################################################
#
#                 Cambridge Crystallographic Data Centre
#                                CCDC 
#
#######################################################################
#
# If this CIF has been generated from an entry in the Cambridge 
# Structural Database, then it will include bibliographic, chemical, 
# crystal, experimental, refinement or atomic coordinate data resulting 
# from the CCDC's data processing and validation procedures.
#
#######################################################################

data_XAKMEB
_symmetry_cell_setting           monoclinic
_symmetry_space_group_name_H-M   'P 21/c'
_symmetry_Int_Tables_number      14
_space_group_name_Hall           '-P 2ybc'
loop_
_symmetry_equiv_pos_site_id
_symmetry_equiv_pos_as_xyz
1 x,y,z
2 -x,1/2+y,1/2-z
3 -x,-y,-z
4 x,1/2-y,1/2+z
_cell_length_a                   9.221(4)
_cell_length_b                   12.798(3)
_cell_length_c                   22.305(3)
_cell_angle_alpha                90
_cell_angle_beta                 91.71(2)
_cell_angle_gamma                90
_cell_volume                     2631.05
loop_
_atom_site_label
_atom_site_type_symbol
_atom_site_fract_x
_atom_site_fract_y
_atom_site_fract_z
Cu1 Cu 0.2174(1) 0.08691(8) 0.33509(4)
N1 N 0.1442(7) 0.3981(5) 0.3758(2)
N2 N 0.2015(7) 0.2414(5) 0.3442(3)
N3 N 0.3280(7) 0.3916(5) 0.6430(3)
N4 N 0.2460(7) 0.4040(5) 0.7343(3)
N5 N 0.0006(7) 0.0580(5) 0.3355(3)
N6 N 0.2311(7) -0.0709(5) 0.3407(3)
N7 N 0.4240(6) 0.0830(6) 0.3675(3)
C1 C 0.1768(8) 0.5205(6) 0.4611(4)
C2 C 0.2518(9) 0.4524(6) 0.4979(4)
C3 C 0.3337(8) 0.4897(7) 0.5474(3)
C4 C 0.3374(9) 0.5959(8) 0.5591(3)
C5 C 0.2626(9) 0.6658(7) 0.5227(4)
C6 C 0.1807(9) 0.6259(7) 0.4740(4)
C7 C 0.0788(8) 0.4818(6) 0.4110(3)
C8 C 0.1208(9) 0.2961(6) 0.3808(3)
C9 C 0.2819(9) 0.3154(7) 0.3144(4)
C10 C 0.2488(9) 0.4102(7) 0.3331(3)
C11 C 0.4146(8) 0.4153(7) 0.5892(3)
C12 C 0.3444(8) 0.4365(7) 0.6972(4)
C13 C 0.1612(9) 0.3356(7) 0.7013(4)
C14 C 0.2098(10) 0.3278(7) 0.6455(4)
C15 C 0.268(1) 0.7830(7) 0.5366(5)
C16 C -0.0222(9) -0.0523(8) 0.3210(4)
C17 C 0.0906(9) -0.1140(6) 0.3562(4)
C18 C 0.3555(9) -0.0972(7) 0.3799(4)
C19 C 0.4770(10) -0.0256(9) 0.3656(4)
H1 H 0.2500 0.3778 0.4893
H2 H 0.3961 0.6214 0.5943
H3 H 0.1289 0.6746 0.4478
H4 H 0.0518 0.5384 0.3844
H5 H -0.0117 0.4551 0.4268
H6 H 0.0523 0.2646 0.4087
H7 H 0.3520 0.3004 0.2841
H8 H 0.2887 0.4781 0.3208
H9 H 0.5081 0.4450 0.6019
H10 H 0.4367 0.3512 0.5683
H11 H 0.4219 0.4888 0.7069
H12 H 0.0798 0.2966 0.7173
H13 H 0.1700 0.2844 0.6122
H14 H 0.3646 0.8112 0.5358
H15 H 0.2102 0.8238 0.5072
H16 H 0.2297 0.8001 0.5752
H17 H -0.1191 -0.0757 0.3308
H18 H -0.0115 -0.0652 0.2790
H19 H 0.0844 -0.1889 0.3472
H20 H 0.0753 -0.1085 0.3990
H21 H 0.3307 -0.0898 0.4213
H22 H 0.3844 -0.1693 0.3744
H23 H 0.5086 -0.0405 0.3261
H24 H 0.5562 -0.0349 0.3933
H25 H -0.0369 0.0735 0.3749
H26 H -0.0506 0.1023 0.3074
H27 H 0.2525 -0.0972 0.3015
H28 H 0.4841 0.1288 0.3444
H29 H 0.4284 0.1093 0.4084
N4C N 0.2460(7) 0.0960(5) 0.2343(3)
Cu1C Cu 0.2174(1) 0.41309(8) 0.83509(4)
Cl1 Cl 0.2005(2) 0.1143(2) 0.51008(9)
O1 O 0.1490(8) 0.0657(6) 0.4566(3)
O2 O 0.3410(8) 0.1552(6) 0.5016(3)
O3 O 0.1032(8) 0.1993(5) 0.5229(3)
O4 O 0.1984(7) 0.0426(6) 0.5583(3)
Cl2 Cl 0.2948(3) 0.7068(2) 0.2467(1)
O5 O 0.3235(8) 0.6210(7) 0.2112(4)
O6 O 0.1619(8) 0.7507(7) 0.2324(4)
O7 O 0.4020(9) 0.7809(7) 0.2471(4)
O8 O 0.285(1) 0.6710(7) 0.3083(5)
loop_
_geom_bond_atom_site_label_1
_geom_bond_atom_site_label_2
_geom_bond_site_symmetry_1
_geom_bond_site_symmetry_2
Cu1 N2 1_555 1_555
N1 C7 1_555 1_555
N2 C8 1_555 1_555
N3 C11 1_555 1_555
N4 C12 1_555 1_555
N5 Cu1 1_555 1_555
N6 Cu1 1_555 1_555
N7 Cu1 1_555 1_555
C1 C2 1_555 1_555
C2 C3 1_555 1_555
C3 C4 1_555 1_555
C4 C5 1_555 1_555
C5 C6 1_555 1_555
C6 C1 1_555 1_555
C7 C1 1_555 1_555
C8 N1 1_555 1_555
C9 N2 1_555 1_555
C10 N1 1_555 1_555
C11 C3 1_555 1_555
C12 N3 1_555 1_555
C13 N4 1_555 1_555
C14 N3 1_555 1_555
C15 C5 1_555 1_555
C16 N5 1_555 1_555
C17 N6 1_555 1_555
C18 N6 1_555 1_555
C19 N7 1_555 1_555
H1 C2 1_555 1_555
H2 C4 1_555 1_555
H3 C6 1_555 1_555
H4 C7 1_555 1_555
H5 C7 1_555 1_555
H6 C8 1_555 1_555
H7 C9 1_555 1_555
H8 C10 1_555 1_555
H9 C11 1_555 1_555
H10 C11 1_555 1_555
H11 C12 1_555 1_555
H12 C13 1_555 1_555
H13 C14 1_555 1_555
H14 C15 1_555 1_555
H15 C15 1_555 1_555
H16 C15 1_555 1_555
H17 C16 1_555 1_555
H18 C16 1_555 1_555
H19 C17 1_555 1_555
H20 C17 1_555 1_555
H21 C18 1_555 1_555
H22 C18 1_555 1_555
H23 C19 1_555 1_555
H24 C19 1_555 1_555
H25 N5 1_555 1_555
H26 N5 1_555 1_555
H27 N6 1_555 1_555
H28 N7 1_555 1_555
H29 N7 1_555 1_555
Cl1 O1 1_555 1_555
O2 Cl1 1_555 1_555
O3 Cl1 1_555 1_555
O4 Cl1 1_555 1_555
Cl2 O5 1_555 1_555
O6 Cl2 1_555 1_555
O7 Cl2 1_555 1_555
O8 Cl2 1_555 1_555
N4C Cu1 1_555 1_555
Cu1C N4 1_555 1_555
C9 C10 1_555 1_555
C13 C14 1_555 1_555
C16 C17 1_555 1_555
C18 C19 1_555 1_555

#END
