
#######################################################################
#
#                 Cambridge Crystallographic Data Centre
#                                CCDC 
#
#######################################################################
#
# If this CIF has been generated from an entry in the Cambridge 
# Structural Database, then it will include bibliographic, chemical, 
# crystal, experimental, refinement or atomic coordinate data resulting 
# from the CCDC's data processing and validation procedures.
#
#######################################################################

data_XAKNAA
_symmetry_cell_setting           monoclinic
_symmetry_space_group_name_H-M   'P 21/c'
_symmetry_Int_Tables_number      14
_space_group_name_Hall           '-P 2ybc'
loop_
_symmetry_equiv_pos_site_id
_symmetry_equiv_pos_as_xyz
1 x,y,z
2 -x,1/2+y,1/2-z
3 -x,-y,-z
4 x,1/2-y,1/2+z
_cell_length_a                   6.5627(17)
_cell_length_b                   14.612(2)
_cell_length_c                   14.9730(15)
_cell_angle_alpha                90
_cell_angle_beta                 91.922(19)
_cell_angle_gamma                90
_cell_volume                     1435.02
loop_
_atom_site_label
_atom_site_type_symbol
_atom_site_fract_x
_atom_site_fract_y
_atom_site_fract_z
Cd1 Cd 0.0000 0.5000 0.0000
N2 N -0.3871(6) 0.2278(3) 0.0648(2)
O4 O -0.2220(5) 0.3883(2) 0.0220(2)
O5 O -0.4430(5) 0.4167(2) -0.0904(2)
O6 O 0.1499(5) 0.0941(2) 0.0419(2)
O7 O 0.2047(5) 0.4226(2) 0.1045(3)
H1 H 0.1390 0.4146 0.1518
H2 H 0.2900 0.4640 0.1198
O8 O -0.1374(5) 0.5844(2) 0.1150(2)
H3 H -0.2639 0.5886 0.1015
H4 H -0.1002 0.6395 0.1239
C1 C -0.3701(7) 0.3696(3) -0.0283(3)
C2 C -0.4697(7) 0.2772(3) -0.0141(3)
H5 H -0.6149 0.2862 -0.0077
H6 H -0.4516 0.2397 -0.0668
C3 C -0.2120(7) 0.1805(3) 0.0579(3)
H7 H -0.1448 0.1803 0.0042
C4 C -0.1326(7) 0.1328(3) 0.1296(3)
C5 C -0.2363(8) 0.1349(3) 0.2090(3)
H8 H -0.1861 0.1026 0.2585
C6 C -0.4124(8) 0.1845(4) 0.2142(3)
H9 H -0.4818 0.1864 0.2673
C7 C -0.4854(7) 0.2311(3) 0.1412(3)
H10 H -0.6043 0.2654 0.1447
C8 C 0.0605(7) 0.0779(4) 0.1255(3)
H11 H 0.1545 0.0958 0.1737
H12 H 0.0305 0.0133 0.1319
C9 C 0.3246(7) 0.0448(3) 0.0241(3)
C10 C 0.4000(7) 0.0579(3) -0.0602(3)
H13 H 0.3327 0.0966 -0.1006
C11 C 0.4228(7) -0.0127(4) 0.0841(3)
H14 H 0.3712 -0.0215 0.1406
Cd1_2 Cd 1.0000 -0.5000 0.0000
N2B N 1.3871(6) -0.2278(3) -0.0648(2)
O4B O 1.2220(5) -0.3883(2) -0.0220(2)
O4B_2 O 0.2220(5) 0.6117(2) -0.0220(2)
O5B O 1.4430(5) -0.4167(2) 0.0904(2)
O6B O 0.8501(5) -0.0941(2) -0.0419(2)
O7B O -0.2047(5) 0.5774(2) -0.1045(3)
H1B H -0.1390 0.5854 -0.1518
H2B H -0.2900 0.5360 -0.1198
O8B O 0.1374(5) 0.4156(2) -0.1150(2)
H3B H 0.2639 0.4114 -0.1015
H4B H 0.1002 0.3605 -0.1239
C1B C 1.3701(7) -0.3696(3) 0.0283(3)
C2B C 1.4697(7) -0.2772(3) 0.0141(3)
H5B H 1.6149 -0.2862 0.0077
H6B H 1.4516 -0.2397 0.0668
C3B C 1.2120(7) -0.1805(3) -0.0579(3)
H7B H 1.1448 -0.1803 -0.0042
C4B C 1.1326(7) -0.1328(3) -0.1296(3)
C5B C 1.2363(8) -0.1349(3) -0.2090(3)
H8B H 1.1861 -0.1026 -0.2585
C6B C 1.4124(8) -0.1845(4) -0.2142(3)
H9B H 1.4818 -0.1864 -0.2673
C7B C 1.4854(7) -0.2311(3) -0.1412(3)
H10B H 1.6043 -0.2654 -0.1447
C8B C 0.9395(7) -0.0779(4) -0.1255(3)
H11B H 0.8455 -0.0958 -0.1737
H12B H 0.9695 -0.0133 -0.1319
C9B C 0.6754(7) -0.0448(3) -0.0241(3)
C10B C 0.6000(7) -0.0579(3) 0.0602(3)
H13B H 0.6673 -0.0966 0.1006
C11B C 0.5772(7) 0.0127(4) -0.0841(3)
H14B H 0.6288 0.0215 -0.1406
N1 N 0.0260(8) 0.3049(4) 0.3014(3)
O1 O 0.1818(7) 0.2675(4) 0.2799(3)
O2 O -0.0681(8) 0.2698(4) 0.3614(3)
O3 O -0.0265(9) 0.3747(4) 0.2635(4)
O9 O 0.424(2) -0.0647(10) 0.2940(8)
H15 H 0.4185 -0.0133 0.3204
H16 H 0.3284 -0.1040 0.2933
loop_
_geom_bond_atom_site_label_1
_geom_bond_atom_site_label_2
_geom_bond_site_symmetry_1
_geom_bond_site_symmetry_2
Cd1 O4 1_555 1_555
N1 O1 1_555 1_555
O2 N1 1_555 1_555
O3 N1 1_555 1_555
N2 C2 1_555 1_555
O4 C1 1_555 1_555
O5 C1 1_555 1_555
O6 C8 1_555 1_555
O7 Cd1 1_555 1_555
H1 O7 1_555 1_555
H2 O7 1_555 1_555
O8 Cd1 1_555 1_555
H3 O8 1_555 1_555
H4 O8 1_555 1_555
C1 C2 1_555 1_555
C2 H5 1_555 1_555
H6 C2 1_555 1_555
C3 N2 1_555 1_555
H7 C3 1_555 1_555
C4 C3 1_555 1_555
C5 C4 1_555 1_555
H8 C5 1_555 1_555
C6 C5 1_555 1_555
H9 C6 1_555 1_555
C7 N2 1_555 1_555
H10 C7 1_555 1_555
C8 C4 1_555 1_555
H11 C8 1_555 1_555
H12 C8 1_555 1_555
C9 O6 1_555 1_555
C10 C9 1_555 1_555
H13 C10 1_555 1_555
C11 C9 1_555 1_555
H14 C11 1_555 1_555
O9 H15 1_555 1_555
H16 O9 1_555 1_555
Cd1_2 O4B 1_555 1_555
N2B C2B 1_555 1_555
O4B C1B 1_555 1_555
O4B_2 Cd1 1_555 1_555
O5B C1B 1_555 1_555
O6B C8B 1_555 1_555
O7B Cd1 1_555 1_555
H1B O7B 1_555 1_555
H2B O7B 1_555 1_555
O8B Cd1 1_555 1_555
H3B O8B 1_555 1_555
H4B O8B 1_555 1_555
C1B C2B 1_555 1_555
C2B H5B 1_555 1_555
H6B C2B 1_555 1_555
C3B N2B 1_555 1_555
H7B C3B 1_555 1_555
C4B C3B 1_555 1_555
C5B C4B 1_555 1_555
H8B C5B 1_555 1_555
C6B C5B 1_555 1_555
H9B C6B 1_555 1_555
C7B N2B 1_555 1_555
H10B C7B 1_555 1_555
C8B C4B 1_555 1_555
H11B C8B 1_555 1_555
H12B C8B 1_555 1_555
C9B O6B 1_555 1_555
C10B C11 1_555 1_555
H13B C10B 1_555 1_555
C11B C10 1_555 1_555
H14B C11B 1_555 1_555
C6 C7 1_555 1_555
C6B C7B 1_555 1_555
C9B C10B 1_555 1_555
C9B C11B 1_555 1_555

#END
