
#######################################################################
#
#                 Cambridge Crystallographic Data Centre
#                                CCDC 
#
#######################################################################
#
# If this CIF has been generated from an entry in the Cambridge 
# Structural Database, then it will include bibliographic, chemical, 
# crystal, experimental, refinement or atomic coordinate data resulting 
# from the CCDC's data processing and validation procedures.
#
#######################################################################

data_XAKNOO
_symmetry_cell_setting           triclinic
_symmetry_space_group_name_H-M   'P -1'
_symmetry_Int_Tables_number      2
_space_group_name_Hall           '-P 1'
loop_
_symmetry_equiv_pos_site_id
_symmetry_equiv_pos_as_xyz
1 x,y,z
2 -x,-y,-z
_cell_length_a                   6.9282(4)
_cell_length_b                   9.1952(5)
_cell_length_c                   10.6171(6)
_cell_angle_alpha                68.303(3)
_cell_angle_beta                 75.984(3)
_cell_angle_gamma                68.455(2)
_cell_volume                     580.095
loop_
_atom_site_label
_atom_site_type_symbol
_atom_site_fract_x
_atom_site_fract_y
_atom_site_fract_z
C1 C 0.1954(3) 0.5924(3) 0.1388(2)
C2 C 0.1960(3) 0.4422(3) 0.2347(2)
H1 H 0.1730 0.4321 0.3291
C3 C 0.2296(3) 0.3064(3) 0.1960(2)
C4 C 0.2534(3) 0.3218(3) 0.0577(2)
C5 C 0.2577(3) 0.4724(3) -0.0403(2)
C6 C 0.2323(3) 0.6076(3) -0.0004(2)
O1 O 0.2764(2) 0.19739(17) 0.00969(14)
H2 H 0.2447 0.1257 0.0723
O2 O 0.2915(2) 0.47596(18) -0.17322(14)
H3 H 0.2801 0.5660 -0.2260
O3 O 0.2426(2) 0.75022(17) -0.10051(14)
H4 H 0.2476 0.8099 -0.0635
S1 S 0.15178(8) 0.75784(6) 0.20027(5)
O4 O -0.0728(2) 0.83560(18) 0.21945(15)
O5 O 0.2449(3) 0.68521(18) 0.32711(16)
O6 O 0.2611(2) 0.86540(18) 0.09335(15)
S2 S 0.25656(8) 0.11379(6) 0.32262(5)
O7 O 0.1976(2) 0.14814(18) 0.45258(15)
O8 O 0.4746(2) 0.01570(18) 0.30296(15)
O9 O 0.1180(2) 0.04470(18) 0.29754(15)
Na1 Na -0.21766(13) 1.04339(10) 0.32841(8)
Na2 Na 0.59706(14) 0.77666(10) 0.22482(8)
O10 O -0.2793(3) 1.26461(18) 0.40886(15)
H5 H -0.3886 1.2910 0.4554
H6 H -0.1912 1.2450 0.4555
O11 O 0.6746(3) 0.62770(19) 0.45172(16)
H7 H 0.7198 0.5353 0.5011
H8 H 0.7376 0.6789 0.4635
O1A O 0.7236(2) 0.80261(17) -0.00969(14)
H2A H 0.7553 0.8743 -0.0723
O2A O 0.7085(2) 0.52404(18) 0.17322(14)
H3A H 0.7199 0.4340 0.2260
O3A O -0.2426(2) 1.24978(17) 0.10051(14)
H4A H -0.2476 1.1901 0.0635
O4_2 O 0.9272(2) 0.83560(18) 0.21945(15)
O7A O -0.1976(2) 0.85186(18) 0.54742(15)
O8_2 O -0.5254(2) 1.01570(18) 0.30296(15)
O8_3 O 0.4746(2) 1.01570(18) 0.30296(15)
O9_2 O 0.1180(2) 1.04470(18) 0.29754(15)
Na1A Na 0.21766(13) 0.95661(10) -0.32841(8)
Na1A_2 Na 0.21766(13) -0.04339(10) 0.67159(8)
Na1_2 Na 0.78234(13) 0.04339(10) 0.32841(8)
Na1_3 Na -0.21766(13) 0.04339(10) 0.32841(8)
Na2A Na 0.40294(14) 0.22334(10) -0.22482(8)
Na2_2 Na -0.40294(14) 0.77666(10) 0.22482(8)
Na2_3 Na 0.59706(14) -0.22334(10) 0.22482(8)
loop_
_geom_bond_atom_site_label_1
_geom_bond_atom_site_label_2
_geom_bond_site_symmetry_1
_geom_bond_site_symmetry_2
C1 C2 1_555 1_555
C2 H1 1_555 1_555
C3 C2 1_555 1_555
C4 C3 1_555 1_555
C5 C4 1_555 1_555
C6 C1 1_555 1_555
O1 C4 1_555 1_555
H2 O1 1_555 1_555
O2 C5 1_555 1_555
H3 O2 1_555 1_555
O3 C6 1_555 1_555
H4 O3 1_555 1_555
S1 C1 1_555 1_555
O4 S1 1_555 1_555
O5 S1 1_555 1_555
O6 S1 1_555 1_555
S2 C3 1_555 1_555
O7 S2 1_555 1_555
O8 S2 1_555 1_555
O9 S2 1_555 1_555
Na1 O4 1_555 1_555
Na2 O5 1_555 1_555
O10 Na1 1_555 1_555
H5 O10 1_555 1_555
H6 O10 1_555 1_555
O11 Na2 1_555 1_555
H7 O11 1_555 1_555
H8 O11 1_555 1_555
O1A Na2 1_555 1_555
H2A O1A 1_555 1_555
O2A Na2 1_555 1_555
H3A O2A 1_555 1_555
O3A Na1 1_555 1_555
H4A O3A 1_555 1_555
O4_2 Na2 1_555 1_555
O7A Na1 1_555 1_555
O8_2 Na1 1_555 1_555
O8_3 Na2 1_555 1_555
O9_2 Na1 1_555 1_555
Na1A O3 1_555 1_555
Na1A_2 O7 1_555 1_555
Na1_2 O8 1_555 1_555
Na1_3 O9 1_555 1_555
Na2A O1 1_555 1_555
Na2_2 O4 1_555 1_555
Na2_3 O8 1_555 1_555
C5 C6 1_555 1_555
O2 Na2A 1_555 1_555
O6 Na2 1_555 1_555
O8_2 Na2_2 1_555 1_555

#END
