
#######################################################################
#
#                 Cambridge Crystallographic Data Centre
#                                CCDC 
#
#######################################################################
#
# If this CIF has been generated from an entry in the Cambridge 
# Structural Database, then it will include bibliographic, chemical, 
# crystal, experimental, refinement or atomic coordinate data resulting 
# from the CCDC's data processing and validation procedures.
#
#######################################################################

data_XAKPOQ
_symmetry_cell_setting           triclinic
_symmetry_space_group_name_H-M   'P -1'
_symmetry_Int_Tables_number      2
_space_group_name_Hall           '-P 1'
loop_
_symmetry_equiv_pos_site_id
_symmetry_equiv_pos_as_xyz
1 x,y,z
2 -x,-y,-z
_cell_length_a                   9.2535(2)
_cell_length_b                   10.2529(2)
_cell_length_c                   11.8897(3)
_cell_angle_alpha                91.3720(10)
_cell_angle_beta                 111.4870(10)
_cell_angle_gamma                102.4270(10)
_cell_volume                     1018.47
loop_
_atom_site_label
_atom_site_type_symbol
_atom_site_fract_x
_atom_site_fract_y
_atom_site_fract_z
Zn1 Zn 0.31072(3) 0.45801(2) 0.38533(2)
O1 O -0.4004(3) -0.0542(2) 0.1532(3)
O2 O 0.3843(2) 0.5199(2) 0.25978(18)
O3 O 0.3740(3) 0.3068(2) 0.2186(2)
O4 O 0.3423(2) 0.63609(16) 0.47116(17)
O5 O 0.6036(2) 0.67620(16) 0.51230(17)
N1 N 0.0795(2) 0.3646(2) 0.3286(2)
N2 N -0.3995(2) 0.1569(2) 0.2136(2)
H1 H -0.4618 0.2055 0.2200
C1 C -0.0343(3) 0.4217(3) 0.3385(3)
H2 H -0.0045 0.5107 0.3725
C2 C -0.1920(3) 0.3543(3) 0.3008(3)
H3 H -0.2666 0.3975 0.3095
C3 C -0.2397(3) 0.2221(3) 0.2497(2)
C4 C -0.1233(3) 0.1628(3) 0.2373(3)
H4 H -0.1506 0.0745 0.2019
C5 C 0.0308(3) 0.2362(3) 0.2778(3)
H5 H 0.1074 0.1950 0.2699
C6 C -0.4705(3) 0.0259(3) 0.1694(3)
C7 C -0.6503(4) -0.0089(3) 0.1395(4)
H6 H -0.6707 0.0338 0.2039
H7 H -0.7030 0.0272 0.0647
C8 C -0.7213(3) -0.1572(3) 0.1249(3)
H8 H -0.6641 -0.1949 0.1974
H9 H -0.7084 -0.1995 0.0565
C9 C -0.8988(3) -0.1884(3) 0.1041(3)
H10 H -0.9131 -0.1380 0.1678
H11 H -0.9579 -0.1601 0.0268
C10 C -0.9654(4) -0.3380(3) 0.1039(3)
H12 H -0.9020 -0.3664 0.1797
H13 H -1.0740 -0.3518 0.1006
C11 C -0.9665(4) -0.4250(3) 0.0000(3)
H14 H -0.8580 -0.4112 0.0032
H15 H -1.0299 -0.3966 -0.0759
C12 C 0.3985(3) 0.4266(3) 0.1959(2)
C13 C 0.4510(3) 0.4645(3) 0.0943(2)
C14 C 0.5140(3) 0.5978(3) 0.0888(2)
H16 H 0.5229 0.6635 0.1479
C15 C 0.4358(3) 0.3665(3) 0.0053(3)
H17 H 0.3920 0.2768 0.0087
C16 C 0.4768(3) 0.7141(2) 0.4941(2)
C17 C 0.4881(3) 0.8623(2) 0.4972(2)
C18 C 0.6332(3) 0.9513(2) 0.5150(3)
H18 H 0.7232 0.9188 0.5255
C19 C 0.3561(3) 0.9123(2) 0.4831(3)
H19 H 0.2591 0.8535 0.4722
Zn1A Zn 0.68928(3) 0.54199(2) -0.38533(2)
Zn1A_2 Zn 0.68928(3) 0.54199(2) 0.61467(2)
Zn1A_3 Zn -2.31072(3) -1.45801(2) -0.38533(2)
Zn1A_4 Zn 0.68928(3) 1.54199(2) 0.61467(2)
Zn1_2 Zn 0.31072(3) 1.45801(2) 0.38533(2)
O1A O -1.5996(3) -0.9458(2) -0.1532(3)
O2A O 0.6157(2) 0.4801(2) -0.25978(18)
O3A O 0.6260(3) 0.6932(2) -0.2186(2)
O4A O 0.6577(2) 1.36391(16) 0.52884(17)
O4A_2 O 0.6577(2) 0.36391(16) -0.47116(17)
O5A O 0.3964(2) 1.32380(16) 0.48770(17)
O5A_2 O 0.3964(2) 0.32380(16) 0.48770(17)
O5_2 O 0.6036(2) 0.67620(16) -0.48770(17)
N1A N -2.0795(2) -1.3646(2) -0.3286(2)
N1A_2 N 0.9205(2) 0.6354(2) -0.3286(2)
N2A N -1.6005(2) -1.1569(2) -0.2136(2)
H1A H -1.5382 -1.2055 -0.2200
C1A C -1.9657(3) -1.4217(3) -0.3385(3)
H2A H -1.9955 -1.5107 -0.3725
C2A C -1.8080(3) -1.3543(3) -0.3008(3)
H3A H -1.7334 -1.3975 -0.3095
C3A C -1.7603(3) -1.2221(3) -0.2497(2)
C4A C -1.8767(3) -1.1628(3) -0.2373(3)
H4A H -1.8494 -1.0745 -0.2019
C5A C -2.0308(3) -1.2362(3) -0.2778(3)
H5A H -2.1074 -1.1950 -0.2699
C6A C -1.5295(3) -1.0259(3) -0.1694(3)
C7A C -1.3497(4) -0.9911(3) -0.1395(4)
H6A H -1.3293 -1.0338 -0.2039
H7A H -1.2970 -1.0272 -0.0647
C8A C -1.2787(3) -0.8428(3) -0.1249(3)
H8A H -1.3359 -0.8051 -0.1974
H9A H -1.2916 -0.8005 -0.0565
C9A C -1.1012(3) -0.8116(3) -0.1041(3)
H10A H -1.0869 -0.8620 -0.1678
H11A H -1.0421 -0.8399 -0.0268
C10A C -1.0346(4) -0.6620(3) -0.1039(3)
H12A H -1.0980 -0.6336 -0.1797
H13A H -0.9260 -0.6482 -0.1006
C11A C -1.0335(4) -0.5750(3) 0.0000(3)
H14A H -1.1420 -0.5888 -0.0032
H15A H -0.9701 -0.6034 0.0759
C12A C 0.6015(3) 0.5734(3) -0.1959(2)
C13A C 0.5490(3) 0.5355(3) -0.0943(2)
C14A C 0.4860(3) 0.4022(3) -0.0888(2)
H16A H 0.4771 0.3365 -0.1479
C15A C 0.5642(3) 0.6335(3) -0.0053(3)
H17A H 0.6080 0.7232 -0.0087
C16A C 0.5232(3) 1.2859(2) 0.5059(2)
C17A C 0.5119(3) 1.1377(2) 0.5028(2)
C18A C 0.3668(3) 1.0487(2) 0.4850(3)
H18A H 0.2768 1.0812 0.4745
C19A C 0.6439(3) 1.0877(2) 0.5169(3)
H19A H 0.7409 1.1465 0.5278
O6 O 0.8457(12) 0.7085(12) 0.3773(9)
H20 H 0.7870 0.7009 0.4155
C20 C 0.8986(14) 0.8407(12) 0.3684(11)
H21 H 0.9276 0.8491 0.2987
H22 H 0.9903 0.8801 0.4405
H23 H 0.8153 0.8862 0.3596
loop_
_geom_bond_atom_site_label_1
_geom_bond_atom_site_label_2
_geom_bond_site_symmetry_1
_geom_bond_site_symmetry_2
Zn1 O2 1_555 1_555
O1 C6 1_555 1_555
O2 C12 1_555 1_555
O3 C12 1_555 1_555
O4 Zn1 1_555 1_555
O5 C16 1_555 1_555
N1 Zn1 1_555 1_555
N2 H1 1_555 1_555
C1 N1 1_555 1_555
H2 C1 1_555 1_555
C2 C1 1_555 1_555
H3 C2 1_555 1_555
C3 N2 1_555 1_555
C4 C3 1_555 1_555
H4 C4 1_555 1_555
C5 N1 1_555 1_555
H5 C5 1_555 1_555
C6 N2 1_555 1_555
C7 C6 1_555 1_555
H6 C7 1_555 1_555
H7 C7 1_555 1_555
C8 C7 1_555 1_555
H8 C8 1_555 1_555
H9 C8 1_555 1_555
C9 C8 1_555 1_555
H10 C9 1_555 1_555
H11 C9 1_555 1_555
C10 C9 1_555 1_555
H12 C10 1_555 1_555
H13 C10 1_555 1_555
C11 C10 1_555 1_555
H14 C11 1_555 1_555
H15 C11 1_555 1_555
C12 C13 1_555 1_555
C13 C14 1_555 1_555
C14 H16 1_555 1_555
C15 C13 1_555 1_555
H17 C15 1_555 1_555
C16 O4 1_555 1_555
C17 C16 1_555 1_555
C18 C17 1_555 1_555
H18 C18 1_555 1_555
C19 C17 1_555 1_555
H19 C19 1_555 1_555
O6 H20 1_555 1_555
C20 O6 1_555 1_555
H21 C20 1_555 1_555
H22 C20 1_555 1_555
H23 C20 1_555 1_555
Zn1A O2A 1_555 1_555
Zn1A_2 O5 1_555 1_555
Zn1A_3 N1A 1_555 1_555
Zn1A_4 O4A 1_555 1_555
Zn1_2 O5A 1_555 1_555
O1A C6A 1_555 1_555
O2A C12A 1_555 1_555
O3A C12A 1_555 1_555
O4A C16A 1_555 1_555
O4A_2 Zn1A 1_555 1_555
O5A C16A 1_555 1_555
O5A_2 Zn1 1_555 1_555
O5_2 Zn1A 1_555 1_555
N1A C1A 1_555 1_555
N1A_2 Zn1A 1_555 1_555
N2A H1A 1_555 1_555
C1A H2A 1_555 1_555
C2A C1A 1_555 1_555
H3A C2A 1_555 1_555
C3A N2A 1_555 1_555
C4A C3A 1_555 1_555
H4A C4A 1_555 1_555
C5A N1A 1_555 1_555
H5A C5A 1_555 1_555
C6A N2A 1_555 1_555
C7A C6A 1_555 1_555
H6A C7A 1_555 1_555
H7A C7A 1_555 1_555
C8A C7A 1_555 1_555
H8A C8A 1_555 1_555
H9A C8A 1_555 1_555
C9A C8A 1_555 1_555
H10A C9A 1_555 1_555
H11A C9A 1_555 1_555
C10A C9A 1_555 1_555
H12A C10A 1_555 1_555
H13A C10A 1_555 1_555
C11A C11 1_555 1_555
H14A C11A 1_555 1_555
H15A C11A 1_555 1_555
C12A C13A 1_555 1_555
C13A C14A 1_555 1_555
C14A C15 1_555 1_555
H16A C14A 1_555 1_555
C15A C14 1_555 1_555
H17A C15A 1_555 1_555
C16A C17A 1_555 1_555
C17A C18A 1_555 1_555
C18A C19 1_555 1_555
H18A C18A 1_555 1_555
C19A C18 1_555 1_555
H19A C19A 1_555 1_555
C2 C3 1_555 1_555
C4 C5 1_555 1_555
C2A C3A 1_555 1_555
C4A C5A 1_555 1_555
C10A C11A 1_555 1_555
C13A C15A 1_555 1_555
C17A C19A 1_555 1_555

#END
