
#######################################################################
#
#                 Cambridge Crystallographic Data Centre
#                                CCDC 
#
#######################################################################
#
# If this CIF has been generated from an entry in the Cambridge 
# Structural Database, then it will include bibliographic, chemical, 
# crystal, experimental, refinement or atomic coordinate data resulting 
# from the CCDC's data processing and validation procedures.
#
#######################################################################

data_XAKQEH
_symmetry_cell_setting           monoclinic
_symmetry_space_group_name_H-M   'P 21/n'
_symmetry_Int_Tables_number      14
_space_group_name_Hall           '-P 2yn'
loop_
_symmetry_equiv_pos_site_id
_symmetry_equiv_pos_as_xyz
1 x,y,z
2 1/2-x,1/2+y,1/2-z
3 -x,-y,-z
4 1/2+x,1/2-y,1/2+z
_cell_length_a                   9.6988(6)
_cell_length_b                   15.9616(10)
_cell_length_c                   15.1735(9)
_cell_angle_alpha                90
_cell_angle_beta                 98.865(2)
_cell_angle_gamma                90
_cell_volume                     2320.92
loop_
_atom_site_label
_atom_site_type_symbol
_atom_site_fract_x
_atom_site_fract_y
_atom_site_fract_z
Cd1 Cd 0.13075(2) 0.422630(17) 0.595764(16)
N1 N -0.0589(3) 0.33640(18) 0.55641(18)
C1 C -0.1399(3) 0.2864(2) 0.5975(2)
O1 O -0.0566(3) 0.53560(17) 0.57824(17)
N2 N -0.1265(3) 0.3432(2) 0.4721(2)
H1 H -0.101(4) 0.375(2) 0.440(3)
C2 C -0.2613(3) 0.2635(2) 0.5395(2)
O2 O -0.2652(3) 0.51744(17) 0.49790(17)
O3 O -0.1806(3) 0.60373(19) 1.24179(17)
C3 C -0.2473(3) 0.3011(2) 0.4591(2)
N3 N -0.6995(3) 0.31505(18) 0.60411(18)
O4 O -0.2090(3) 0.4774(2) 1.29411(17)
C4 C -0.5178(3) 0.2491(2) 0.6844(2)
N4 N -0.6392(3) 0.28946(19) 0.6861(2)
H2 H -0.674(3) 0.305(2) 0.732(2)
C5 C -0.4968(3) 0.2471(2) 0.5969(2)
O5 O -0.4003(3) 0.41444(17) 0.87914(15)
C6 C -0.6134(3) 0.2881(2) 0.5490(2)
C7 C -0.3775(3) 0.2067(2) 0.5593(2)
H3 H -0.4157 0.1783 0.5045
H4 H -0.3368 0.1643 0.6011
C8 C -0.0956(4) 0.2620(3) 0.6924(2)
H5 H 0.0006 0.2768 0.7104
H6 H -0.1067 0.2026 0.6987
H7 H -0.1521 0.2909 0.7293
C9 C -0.3357(4) 0.3007(3) 0.3696(2)
H8 H -0.2772 0.3052 0.3242
H9 H -0.3990 0.3473 0.3652
H10 H -0.3877 0.2494 0.3618
C10 C -0.4379(4) 0.2141(3) 0.7683(2)
H11 H -0.4139 0.2586 0.8105
H12 H -0.3543 0.1878 0.7554
H13 H -0.4943 0.1735 0.7930
C11 C -0.6525(4) 0.2984(3) 0.4513(2)
H14 H -0.7500 0.3116 0.4375
H15 H -0.6340 0.2473 0.4219
H16 H -0.5987 0.3431 0.4311
C12 C -0.2417(3) 0.4915(2) 0.6540(2)
C13 C -0.3830(4) 0.4761(2) 0.6506(2)
H17 H -0.4434 0.4808 0.5970
C14 C -0.4335(4) 0.4537(2) 0.7279(2)
H18 H -0.5286 0.4445 0.7263
C15 C -0.3442(4) 0.4451(2) 0.8066(2)
C16 C -0.2036(4) 0.4612(3) 0.8110(2)
H19 H -0.1434 0.4562 0.8647
C17 C -0.1539(4) 0.4850(2) 0.7342(2)
H20 H -0.0595 0.4969 0.7367
C18 C -0.3509(4) 0.4439(2) 0.9639(2)
C19 C -0.3383(4) 0.3864(2) 1.0325(2)
H21 H -0.3591 0.3302 1.0212
C20 C -0.2938(4) 0.4143(2) 1.1192(2)
H22 H -0.2856 0.3763 1.1661
C21 C -0.2616(3) 0.4976(2) 1.1368(2)
C22 C -0.2798(4) 0.5538(2) 1.0670(2)
H23 H -0.2623 0.6103 1.0782
C23 C -0.3239(4) 0.5271(2) 0.9803(2)
H24 H -0.3350 0.5655 0.9336
C24 C -0.1844(4) 0.5164(2) 0.5709(3)
C25 C -0.2143(4) 0.5282(3) 1.2310(3)
Cd1B Cd -0.13075(2) 0.577370(17) 0.404236(16)
Cd1B_2 Cd -0.13075(2) 0.577370(17) 1.404236(16)
Cd1_2 Cd -0.86925(2) 0.422630(17) 0.595764(16)
O2B O 0.2652(3) 0.48256(17) 0.50210(17)
O3B O 0.1806(3) 0.39627(19) 0.75821(17)
N3_2 N 0.3005(3) 0.31505(18) 0.60411(18)
O4B O 0.2090(3) 0.5226(2) 0.70589(17)
loop_
_geom_bond_atom_site_label_1
_geom_bond_atom_site_label_2
_geom_bond_site_symmetry_1
_geom_bond_site_symmetry_2
Cd1 N1 1_555 1_555
N1 C1 1_555 1_555
C1 C2 1_555 1_555
O1 Cd1 1_555 1_555
N2 N1 1_555 1_555
H1 N2 1_555 1_555
C2 C3 1_555 1_555
O2 C24 1_555 1_555
O3 C25 1_555 1_555
C3 N2 1_555 1_555
N3 N4 1_555 1_555
O4 C25 1_555 1_555
C4 N4 1_555 1_555
N4 H2 1_555 1_555
C5 C4 1_555 1_555
O5 C15 1_555 1_555
C6 N3 1_555 1_555
C7 C2 1_555 1_555
H3 C7 1_555 1_555
H4 C7 1_555 1_555
C8 C1 1_555 1_555
H5 C8 1_555 1_555
H6 C8 1_555 1_555
H7 C8 1_555 1_555
C9 C3 1_555 1_555
H8 C9 1_555 1_555
H9 C9 1_555 1_555
H10 C9 1_555 1_555
C10 C4 1_555 1_555
H11 C10 1_555 1_555
H12 C10 1_555 1_555
H13 C10 1_555 1_555
C11 C6 1_555 1_555
H14 C11 1_555 1_555
H15 C11 1_555 1_555
H16 C11 1_555 1_555
C12 C13 1_555 1_555
C13 H17 1_555 1_555
C14 C13 1_555 1_555
H18 C14 1_555 1_555
C15 C14 1_555 1_555
C16 C15 1_555 1_555
H19 C16 1_555 1_555
C17 C12 1_555 1_555
H20 C17 1_555 1_555
C18 O5 1_555 1_555
C19 C18 1_555 1_555
H21 C19 1_555 1_555
C20 C19 1_555 1_555
H22 C20 1_555 1_555
C21 C20 1_555 1_555
C22 C21 1_555 1_555
H23 C22 1_555 1_555
C23 C18 1_555 1_555
H24 C23 1_555 1_555
C24 O1 1_555 1_555
C25 C21 1_555 1_555
Cd1B O2 1_555 1_555
Cd1B_2 O3 1_555 1_555
Cd1_2 N3 1_555 1_555
O2B Cd1 1_555 1_555
O3B Cd1 1_555 1_555
N3_2 Cd1 1_555 1_555
O4B Cd1 1_555 1_555
O4 Cd1B_2 1_555 1_555
C5 C6 1_555 1_555
C5 C7 1_555 1_555
C12 C24 1_555 1_555
C16 C17 1_555 1_555
C22 C23 1_555 1_555

#END
