
#######################################################################
#
#                 Cambridge Crystallographic Data Centre
#                                CCDC 
#
#######################################################################
#
# If this CIF has been generated from an entry in the Cambridge 
# Structural Database, then it will include bibliographic, chemical, 
# crystal, experimental, refinement or atomic coordinate data resulting 
# from the CCDC's data processing and validation procedures.
#
#######################################################################

data_XAKQUX
_symmetry_cell_setting           monoclinic
_symmetry_space_group_name_H-M   'C 2/c'
_symmetry_Int_Tables_number      15
_space_group_name_Hall           '-C 2yn'
loop_
_symmetry_equiv_pos_site_id
_symmetry_equiv_pos_as_xyz
1 x,y,z
2 -x,y,1/2-z
3 1/2+x,1/2+y,z
4 1/2-x,1/2+y,1/2-z
5 -x,-y,-z
6 x,-y,1/2+z
7 1/2-x,1/2-y,-z
8 1/2+x,1/2-y,1/2+z
_cell_length_a                   14.7437(8)
_cell_length_b                   24.7090(13)
_cell_length_c                   20.6058(11)
_cell_angle_alpha                90
_cell_angle_beta                 105.314(2)
_cell_angle_gamma                90
_cell_volume                     7240.19
loop_
_atom_site_label
_atom_site_type_symbol
_atom_site_fract_x
_atom_site_fract_y
_atom_site_fract_z
Ni1 Ni -0.74404(3) 0.170686(17) 0.08003(2)
O1 O -0.81066(16) 0.24783(9) 0.08087(12)
N1 N -0.6066(2) 0.19270(11) 0.08939(15)
O2 O -0.89120(16) 0.17198(9) 0.06871(12)
N2 N -0.5841(2) 0.24545(11) 0.08105(14)
H1 H -0.6250 0.2706 0.0676
N3 N -0.2764(2) 0.16271(11) 0.31811(14)
N4 N -0.2506(2) 0.11670(12) 0.29210(15)
H2 H -0.2253 0.0893 0.3158
O3 O -1.23885(16) 0.58901(9) 0.07412(12)
O4 O -1.2708(3) 0.57548(11) -0.03683(14)
O5 O -1.22673(19) 0.33248(10) 0.06314(17)
C1 C -0.5235(3) 0.16745(14) 0.11037(18)
C2 C -0.4487(2) 0.20380(14) 0.11529(17)
C3 C -0.4901(2) 0.25352(14) 0.09628(17)
C4 C -0.3128(2) 0.19421(14) 0.26499(18)
C5 C -0.3099(2) 0.16820(14) 0.20478(18)
C6 C -0.2694(3) 0.11899(16) 0.22434(19)
C7 C -0.3458(3) 0.19058(16) 0.13511(18)
H3 H -0.3333 0.1645 0.1034
H4 H -0.3108 0.2232 0.1315
C8 C -0.5181(3) 0.10800(15) 0.1250(2)
H5 H -0.5789 0.0950 0.1263
H6 H -0.4738 0.1016 0.1677
H7 H -0.4980 0.0893 0.0904
C9 C -0.4507(3) 0.30866(15) 0.09227(19)
H8 H -0.4905 0.3280 0.0551
H9 H -0.3887 0.3056 0.0859
H10 H -0.4476 0.3279 0.1332
C10 C -0.3485(3) 0.24989(15) 0.2729(2)
H11 H -0.3409 0.2573 0.3197
H12 H -0.4139 0.2521 0.2493
H13 H -0.3136 0.2759 0.2546
C11 C -0.2451(5) 0.0731(2) 0.1842(2)
H14 H -0.2180 0.0440 0.2139
H15 H -0.2008 0.0853 0.1606
H16 H -0.3011 0.0606 0.1523
C12 C -0.9763(2) 0.25319(13) 0.07048(17)
C13 C -1.0587(3) 0.22562(14) 0.06946(18)
H17 H -1.0581 0.1880 0.0708
C14 C -1.1414(3) 0.25292(14) 0.06643(19)
H18 H -1.1964 0.2341 0.0653
C15 C -1.1408(2) 0.30865(14) 0.06511(19)
C16 C -1.0607(3) 0.33766(14) 0.0649(2)
H19 H -1.0620 0.3753 0.0626
C17 C -0.9788(2) 0.30955(14) 0.06826(18)
H20 H -0.9241 0.3286 0.0690
C18 C -1.2465(3) 0.49913(14) 0.03476(19)
C19 C -1.2768(3) 0.46383(15) -0.0189(2)
H21 H -1.3015 0.4777 -0.0619
C20 C -1.2709(3) 0.40846(15) -0.0099(2)
H22 H -1.2917 0.3850 -0.0460
C21 C -1.2337(3) 0.38915(15) 0.0538(2)
C22 C -1.2050(3) 0.42254(15) 0.1088(2)
H23 H -1.1811 0.4084 0.1517
C23 C -1.2126(3) 0.47833(15) 0.0983(2)
H24 H -1.1945 0.5017 0.1348
C24 C -0.8890(3) 0.22301(14) 0.07354(17)
C25 C -1.2536(3) 0.55902(15) 0.0232(2)
O6 O -0.77464(18) 0.17815(12) -0.02503(13)
H25 H -0.748(4) 0.198(2) -0.050(3)
H26 H -0.784(5) 0.152(3) -0.038(3)
Ni1A Ni -0.25596(3) 0.170686(17) 0.41997(2)
Ni1B Ni -1.24404(3) 0.670686(17) 0.08003(2)
N3A N -0.7236(2) 0.16271(11) 0.18189(14)
O3B O -0.73885(16) 0.08901(9) 0.07412(12)
N5 N 0.3945(9) 0.0490(5) -0.1371(7)
C26 C 0.3024(11) 0.0783(6) -0.1761(8)
H27 H 0.2645 0.0861 -0.1458
H28 H 0.2679 0.0554 -0.2117
H29 H 0.3181 0.1115 -0.1948
O7 O 0.4832(7) 0.0196(4) -0.0448(5)
C27 C 0.4509(9) 0.0377(5) -0.1910(6)
H30 H 0.5018 0.0132 -0.1724
H31 H 0.4756 0.0711 -0.2029
H32 H 0.4097 0.0218 -0.2304
C28 C 0.4154(4) 0.0412(2) -0.0748(3)
H33 H 0.3738 0.0536 -0.0512
C29? C 0.3774(10) 0.0706(5) -0.2166(6)
H34? H 0.3467 0.1052 -0.2216
H35? H 0.3387 0.0451 -0.2467
H36? H 0.4369 0.0739 -0.2270
loop_
_geom_bond_atom_site_label_1
_geom_bond_atom_site_label_2
_geom_bond_site_symmetry_1
_geom_bond_site_symmetry_2
Ni1 O1 1_555 1_555
O1 C24 1_555 1_555
N1 Ni1 1_555 1_555
O2 Ni1 1_555 1_555
N2 N1 1_555 1_555
H1 N2 1_555 1_555
N3 N4 1_555 1_555
N4 H2 1_555 1_555
O3 C25 1_555 1_555
O4 C25 1_555 1_555
O5 C15 1_555 1_555
C1 N1 1_555 1_555
C2 C1 1_555 1_555
C3 N2 1_555 1_555
C4 N3 1_555 1_555
C5 C4 1_555 1_555
C6 N4 1_555 1_555
C7 C2 1_555 1_555
H3 C7 1_555 1_555
H4 C7 1_555 1_555
C8 C1 1_555 1_555
H5 C8 1_555 1_555
H6 C8 1_555 1_555
H7 C8 1_555 1_555
C9 C3 1_555 1_555
H8 C9 1_555 1_555
H9 C9 1_555 1_555
H10 C9 1_555 1_555
C10 C4 1_555 1_555
H11 C10 1_555 1_555
H12 C10 1_555 1_555
H13 C10 1_555 1_555
C11 C6 1_555 1_555
H14 C11 1_555 1_555
H15 C11 1_555 1_555
H16 C11 1_555 1_555
C12 C13 1_555 1_555
C13 H17 1_555 1_555
C14 C13 1_555 1_555
H18 C14 1_555 1_555
C15 C14 1_555 1_555
C16 C15 1_555 1_555
H19 C16 1_555 1_555
C17 C12 1_555 1_555
H20 C17 1_555 1_555
C18 C19 1_555 1_555
C19 H21 1_555 1_555
C20 C19 1_555 1_555
H22 C20 1_555 1_555
C21 O5 1_555 1_555
C22 C21 1_555 1_555
H23 C22 1_555 1_555
C23 C18 1_555 1_555
H24 C23 1_555 1_555
C24 O2 1_555 1_555
C25 C18 1_555 1_555
O6 Ni1 1_555 1_555
H25 O6 1_555 1_555
H26 O6 1_555 1_555
N5 C26 1_555 1_555
C26 H27 1_555 1_555
H28 C26 1_555 1_555
H29 C26 1_555 1_555
O7 C28 1_555 1_555
C27 N5 1_555 1_555
H30 C27 1_555 1_555
H31 C27 1_555 1_555
H32 C27 1_555 1_555
C28 N5 1_555 1_555
H33 C28 1_555 1_555
Ni1A N3 1_555 1_555
Ni1B O3 1_555 1_555
N3A Ni1 1_555 1_555
O3B Ni1 1_555 1_555
C2 C3 1_555 1_555
C5 C6 1_555 1_555
C5 C7 1_555 1_555
C12 C24 1_555 1_555
C16 C17 1_555 1_555
C20 C21 1_555 1_555
C22 C23 1_555 1_555

#END
