
#######################################################################
#
#                 Cambridge Crystallographic Data Centre
#                                CCDC 
#
#######################################################################
#
# If this CIF has been generated from an entry in the Cambridge 
# Structural Database, then it will include bibliographic, chemical, 
# crystal, experimental, refinement or atomic coordinate data resulting 
# from the CCDC's data processing and validation procedures.
#
#######################################################################

data_XAKQUW
_symmetry_cell_setting           triclinic
_symmetry_space_group_name_H-M   'P -1'
_symmetry_Int_Tables_number      2
_space_group_name_Hall           '-P 1'
loop_
_symmetry_equiv_pos_site_id
_symmetry_equiv_pos_as_xyz
1 x,y,z
2 -x,-y,-z
_cell_length_a                   20.4071(4)
_cell_length_b                   23.8710(4)
_cell_length_c                   26.1342(4)
_cell_angle_alpha                86.3718(9)
_cell_angle_beta                 66.9966(8)
_cell_angle_gamma                67.0400(7)
_cell_volume                     10730.4
loop_
_atom_site_label
_atom_site_type_symbol
_atom_site_fract_x
_atom_site_fract_y
_atom_site_fract_z
Sn1 Sn 0.22627(3) 0.24877(2) 0.524192(19)
Sn2 Sn 0.51101(3) 0.24249(2) 0.48723(2)
Sn3 Sn 0.72541(3) 0.29287(2) 0.53308(2)
Sn4 Sn 0.02332(3) 0.24677(2) 0.455780(19)
O1 O 0.1465(3) 0.2023(2) 0.39684(17)
O2 O 0.1816(3) 0.2120(2) 0.46519(19)
O3 O 0.0832(3) 0.5069(2) 0.2381(2)
H1 H 0.1024 0.5121 0.2042
O4 O 0.1963(4) 0.4893(3) 0.1401(2)
O5 O 0.2487(3) 0.2898(2) 0.58571(18)
O6 O 0.3736(3) 0.2655(2) 0.53393(19)
O7 O 0.3409(4) -0.0339(2) 0.7167(2)
H2 H 0.3515 -0.0496 0.7436
O8 O 0.3782(3) -0.0402(2) 0.8031(2)
O9 O 0.6367(3) 0.2069(2) 0.43405(19)
O10 O 0.6693(2) 0.2543(2) 0.4846(2)
O11 O 0.7261(3) 0.4883(2) 0.2321(2)
H3 H 0.7590 0.4890 0.2005
O12 O 0.8608(3) 0.4475(2) 0.1467(2)
O13 O -0.2352(3) 0.3321(2) 0.58386(18)
O14 O -0.1158(3) 0.2963(2) 0.51734(19)
O15 O -0.1039(4) 0.0046(2) 0.7302(2)
H4 H -0.0998 -0.0046 0.7606
O16 O -0.0993(3) 0.0240(3) 0.8254(2)
N1 N 0.2508(3) 0.2652(2) 0.3247(2)
N2 N 0.2754(3) 0.2844(3) 0.2771(2)
N3 N 0.3226(3) 0.2294(2) 0.6713(2)
N4 N 0.3274(3) 0.2033(3) 0.7135(2)
N5 N 0.7861(3) 0.2505(3) 0.3531(2)
N6 N 0.8307(3) 0.2610(3) 0.3083(2)
N7 N -0.1210(3) 0.2596(2) 0.6493(2)
N8 N -0.1137(3) 0.2388(3) 0.6928(2)
C1 C 0.1977(4) 0.1985(3) 0.4151(3)
C2 C 0.2802(4) 0.1759(3) 0.3742(3)
C3 C 0.3340(5) 0.1211(3) 0.3806(3)
H5 H 0.3174 0.0984 0.4105
C4 C 0.4113(5) 0.0993(4) 0.3442(3)
H6 H 0.4472 0.0616 0.3488
C5 C 0.4361(5) 0.1323(4) 0.3012(3)
H7 H 0.4892 0.1175 0.2764
C6 C 0.3842(4) 0.1866(4) 0.2940(3)
H8 H 0.4018 0.2094 0.2645
C7 C 0.3066(4) 0.2082(3) 0.3296(3)
C8 C 0.2226(4) 0.3420(3) 0.2706(3)
C9 C 0.2481(4) 0.3629(3) 0.2194(3)
H9 H 0.2979 0.3391 0.1919
C10 C 0.2032(5) 0.4178(4) 0.2069(3)
C11 C 0.1299(5) 0.4526(4) 0.2477(4)
C12 C 0.1035(5) 0.4318(4) 0.2996(3)
H10 H 0.0534 0.4548 0.3272
C13 C 0.1504(4) 0.3779(4) 0.3105(3)
H11 H 0.1331 0.3646 0.3465
C14 C 0.3153(4) 0.2884(3) 0.5774(3)
C15 C 0.3167(3) 0.3190(3) 0.6250(3)
C16 C 0.3131(4) 0.3785(3) 0.6229(3)
H12 H 0.3120 0.3990 0.5907
C17 C 0.3111(4) 0.4076(3) 0.6683(3)
H13 H 0.3075 0.4486 0.6673
C18 C 0.3144(4) 0.3778(3) 0.7145(3)
H14 H 0.3137 0.3981 0.7449
C19 C 0.3187(4) 0.3188(3) 0.7171(3)
H15 H 0.3205 0.2984 0.7492
C20 C 0.3203(4) 0.2894(3) 0.6721(3)
C21 C 0.3291(4) 0.1433(3) 0.7128(3)
C22 C 0.3459(4) 0.1093(3) 0.7540(3)
H16 H 0.3536 0.1270 0.7816
C23 C 0.3516(4) 0.0485(3) 0.7559(3)
C24 C 0.3381(4) 0.0237(3) 0.7157(3)
C25 C 0.3189(5) 0.0586(4) 0.6756(3)
H17 H 0.3079 0.0421 0.6493
C26 C 0.3157(5) 0.1169(4) 0.6734(3)
H18 H 0.3042 0.1400 0.6448
C27 C 0.6865(4) 0.2156(3) 0.4464(3)
C28 C 0.7695(4) 0.1732(3) 0.4140(3)
C29 C 0.7964(4) 0.1148(3) 0.4297(3)
H19 H 0.7624 0.1020 0.4598
C30 C 0.8723(5) 0.0754(4) 0.4014(4)
H20 H 0.8907 0.0354 0.4123
C31 C 0.9225(4) 0.0933(4) 0.3572(3)
H21 H 0.9752 0.0661 0.3386
C32 C 0.8962(4) 0.1502(3) 0.3403(3)
H22 H 0.9303 0.1620 0.3093
C33 C 0.8191(4) 0.1913(3) 0.3685(3)
C34 C 0.8011(4) 0.3195(3) 0.2904(3)
C35 C 0.8494(4) 0.3312(3) 0.2412(3)
H23 H 0.8995 0.3005 0.2210
C36 C 0.8255(4) 0.3880(3) 0.2204(3)
C37 C 0.7519(4) 0.4331(4) 0.2502(3)
C38 C 0.7023(4) 0.4207(4) 0.3006(3)
H24 H 0.6522 0.4510 0.3212
C39 C 0.7272(4) 0.3643(4) 0.3198(3)
H25 H 0.6935 0.3558 0.3535
C40 C -0.1641(4) 0.3234(3) 0.5650(3)
C41 C -0.1391(4) 0.3505(3) 0.6012(3)
C42 C -0.1397(4) 0.4083(3) 0.5934(3)
H26 H -0.1548 0.4300 0.5654
C43 C -0.1182(4) 0.4347(3) 0.6269(3)
H27 H -0.1178 0.4743 0.6213
C44 C -0.0974(4) 0.4036(4) 0.6678(3)
H28 H -0.0823 0.4217 0.6903
C45 C -0.0985(4) 0.3465(3) 0.6764(3)
H29 H -0.0848 0.3254 0.7051
C46 C -0.1199(4) 0.3196(3) 0.6429(3)
C47 C -0.1110(4) 0.1786(3) 0.6996(3)
C48 C -0.1077(4) 0.1566(3) 0.7487(3)
H30 H -0.1077 0.1818 0.7754
C49 C -0.1045(4) 0.0980(4) 0.7601(3)
C50 C -0.1043(4) 0.0614(3) 0.7211(3)
C51 C -0.1062(5) 0.0828(3) 0.6710(3)
H31 H -0.1050 0.0574 0.6438
C52 C -0.1097(4) 0.1412(3) 0.6605(3)
H32 H -0.1114 0.1558 0.6262
C53 C 0.2317(6) 0.4404(4) 0.1535(3)
H33 H 0.2816 0.4153 0.1269
C54 C 0.1104(4) 0.2764(3) 0.5867(3)
H34 H 0.0897 0.3205 0.5988
H35 H 0.0772 0.2706 0.5700
C55 C 0.1054(5) 0.2412(3) 0.6373(3)
H36 H 0.1547 0.2289 0.6423
H37 H 0.0633 0.2687 0.6709
C56 C 0.0903(5) 0.1852(3) 0.6339(3)
H38 H 0.1300 0.1591 0.5989
H39 H 0.0390 0.1977 0.6321
C57 C 0.0917(5) 0.1479(3) 0.6829(3)
H40 H 0.1418 0.1365 0.6857
H41 H 0.0845 0.1109 0.6773
H42 H 0.0498 0.1723 0.7175
C58 C 0.2444(5) 0.3107(3) 0.4622(3)
H43 H 0.2896 0.2867 0.4282
H44 H 0.1986 0.3269 0.4525
C59 C 0.2577(5) 0.3640(3) 0.4763(3)
H45 H 0.3073 0.3482 0.4812
H46 H 0.2159 0.3855 0.5126
C60 C 0.2606(13) 0.4097(7) 0.4340(6)
H47 H 0.2077 0.4327 0.4352
H48 H 0.2940 0.3876 0.3962
C61 C 0.2915(9) 0.4544(5) 0.4444(6)
H49 H 0.2563 0.4787 0.4806
H50 H 0.2950 0.4817 0.4146
H51 H 0.3431 0.4317 0.4445
C62 C 0.3145(4) 0.1619(3) 0.5157(3)
H52 H 0.3525 0.1535 0.4764
H53 H 0.3415 0.1648 0.5391
C63 C 0.2948(4) 0.1069(3) 0.5300(4)
H54 H 0.2662 0.1037 0.5080
H55 H 0.2598 0.1129 0.5701
C64 C 0.3648(5) 0.0474(3) 0.5190(7)
H56 H 0.3918 0.0495 0.5426
H57 H 0.4011 0.0423 0.4794
C65 C 0.3436(9) -0.0075(3) 0.5308(6)
H58 H 0.3002 0.0007 0.5673
H59 H 0.3885 -0.0433 0.5311
H60 H 0.3286 -0.0157 0.5017
C66 C 0.3710(4) 0.0132(4) 0.7992(3)
H61 H 0.3785 0.0325 0.8259
C67 C 0.5227(5) 0.2112(3) 0.5619(3)
H62 H 0.5735 0.2081 0.5597
H63 H 0.4819 0.2422 0.5934
C68 C 0.5172(6) 0.1505(3) 0.5748(3)
H64 H 0.5561 0.1198 0.5425
H65 H 0.4653 0.1541 0.5793
C69 C 0.5302(6) 0.1278(4) 0.6267(3)
H66 H 0.4876 0.1558 0.6597
H67 H 0.5794 0.1285 0.6242
C70 C 0.5333(7) 0.0637(4) 0.6347(4)
H68 H 0.4858 0.0622 0.6352
H69 H 0.5380 0.0522 0.6702
H70 H 0.5783 0.0351 0.6038
C71 C 0.5066(6) 0.1871(5) 0.4300(4)
H71 H 0.5312 0.1445 0.4375
H72 H 0.4510 0.1957 0.4416
C72 C 0.5389(9) 0.1867(6) 0.3676(4)
H73 H 0.5923 0.1548 0.3521
H74 H 0.5075 0.1749 0.3531
C73 C 0.5411(9) 0.2458(8) 0.3462(5)
H75 H 0.5897 0.2369 0.3126
H76 H 0.5423 0.2701 0.3750
C74 C 0.4730(12) 0.2837(8) 0.3316(9)
H77 H 0.4588 0.2566 0.3153
H78 H 0.4873 0.3116 0.3045
H79 H 0.4288 0.3074 0.3655
C75 C 0.4815(5) 0.3376(4) 0.4805(4)
H80 H 0.4377 0.3526 0.4686
H81 H 0.4614 0.3576 0.5187
C76 C 0.5400(7) 0.3617(7) 0.4431(7)
H82 H 0.5682 0.3369 0.4063
H83 H 0.5783 0.3559 0.4594
C77 C 0.5063(15) 0.4281(7) 0.4342(6)
H84 H 0.5449 0.4458 0.4284
H85 H 0.4600 0.4503 0.4684
C78 C 0.4835(11) 0.4376(8) 0.3848(8)
H86 H 0.5259 0.4096 0.3524
H87 H 0.4731 0.4799 0.3758
H88 H 0.4368 0.4297 0.3940
C79 C 0.8773(4) 0.4002(4) 0.1680(3)
H89 H 0.9273 0.3689 0.1492
C80 C 0.6044(5) 0.3291(6) 0.5885(4)
H90 H 0.5739 0.3552 0.5679
H91 H 0.5880 0.2946 0.5992
C81 C 0.5846(4) 0.3661(6) 0.6409(4)
H92 H 0.6019 0.4001 0.6302
C82 C 0.4999(4) 0.3924(7) 0.6790(4)
H93 H 0.4815 0.3588 0.6880
H94 H 0.4704 0.4211 0.6591
C83 C 0.4833(7) 0.4257(8) 0.7329(5)
H95 H 0.5095 0.3969 0.7540
H96 H 0.4272 0.4433 0.7552
H97 H 0.5023 0.4585 0.7243
H98 H 0.6321 0.3267 0.6404
C84 C 0.7996(4) 0.2016(3) 0.5348(3)
H99 H 0.8299 0.1817 0.4959
H100 H 0.8367 0.2028 0.5498
C85 C 0.7586(4) 0.1626(3) 0.5691(3)
H101 H 0.7326 0.1800 0.6087
H102 H 0.7180 0.1645 0.5565
C86 C 0.8116(5) 0.0966(3) 0.5652(5)
H103 H 0.8554 0.0948 0.5739
H104 H 0.8334 0.0779 0.5263
C87 C 0.7716(8) 0.0597(4) 0.6042(6)
H105 H 0.7562 0.0744 0.6430
H106 H 0.8072 0.0164 0.5967
H107 H 0.7254 0.0642 0.5980
C88 C 0.7431(4) 0.3500(2) 0.4669(3)
H108 H 0.7980 0.3314 0.4401
H109 H 0.7106 0.3507 0.4467
C89 C 0.7244(5) 0.4148(3) 0.4851(2)
H110 H 0.7640 0.4147 0.4982
H111 H 0.6736 0.4306 0.5174
C90 C 0.7214(4) 0.4579(3) 0.4408(3)
H112 H 0.7038 0.4999 0.4577
H113 H 0.6827 0.4575 0.4271
C91 C 0.7986(4) 0.4418(4) 0.3919(3)
H114 H 0.8379 0.4399 0.4054
H115 H 0.7940 0.4731 0.3659
H116 H 0.8139 0.4020 0.3726
C92 C -0.1014(4) 0.0754(4) 0.8130(3)
H117 H -0.1009 0.1013 0.8389
C93 C 0.0315(4) 0.3312(2) 0.4666(3)
H118 H 0.0188 0.3397 0.5067
H119 H 0.0862 0.3257 0.4457
C94 C -0.0189(3) 0.3871(2) 0.4488(3)
H120 H -0.0045 0.3802 0.4081
H121 H -0.0737 0.3922 0.4683
C95 C -0.0124(3) 0.4452(2) 0.4605(3)
H122 H 0.0412 0.4417 0.4379
H123 H -0.0217 0.4500 0.5004
C96 C -0.0685(4) 0.5018(2) 0.4477(3)
H124 H -0.0600 0.4973 0.4083
H125 H -0.0600 0.5376 0.4550
H126 H -0.1218 0.5071 0.4714
C97 C 0.0236(4) 0.1796(3) 0.5126(3)
H127 H 0.0281 0.1938 0.5454
H128 H -0.0267 0.1755 0.5259
C98 C 0.0878(5) 0.1177(3) 0.4886(5)
H129 H 0.1367 0.1187 0.4868
H130 H 0.0945 0.1095 0.4498
C99 C 0.0750(7) 0.0658(3) 0.5207(6)
H131 H 0.0574 0.0775 0.5610
H132 H 0.1250 0.0297 0.5090
C100 C 0.0160(9) 0.0484(7) 0.5122(7)
H133 H -0.0362 0.0796 0.5326
H134 H 0.0191 0.0088 0.5262
H135 H 0.0267 0.0456 0.4723
C101 C -0.0207(4) 0.2373(4) 0.3963(2)
H136 H -0.0413 0.2051 0.4071
H137 H -0.0650 0.2762 0.3996
C102 C 0.0343(4) 0.2218(3) 0.3357(2)
H138 H 0.0797 0.1836 0.3319
H139 H 0.0080 0.2137 0.3140
C103 C 0.0628(4) 0.2707(4) 0.3105(3)
H140 H 0.1076 0.2531 0.2744
H141 H 0.0811 0.2839 0.3356
C104 C 0.0016(5) 0.3261(3) 0.3008(3)
H142 H -0.0184 0.3132 0.2772
H143 H 0.0246 0.3549 0.2822
H144 H -0.0409 0.3460 0.3368
Sn3_2 Sn -0.27459(3) 0.29287(2) 0.53308(2)
O13_2 O 0.7648(3) 0.3321(2) 0.58386(18)
Sn5 Sn 0.03099(2) 0.232598(19) 0.029453(18)
Sn6 Sn 0.32250(3) 0.19694(2) -0.051947(19)
Sn7 Sn 0.51217(3) 0.26912(2) 0.00289(2)
Sn8 Sn -0.19379(3) 0.24581(2) -0.02621(2)
O17 O -0.1385(2) 0.2759(2) 0.03052(18)
O18 O -0.0885(2) 0.27769(19) 0.09228(17)
O19 O -0.0806(3) -0.0087(2) 0.2551(2)
H145 H -0.1059 -0.0172 0.2864
O20 O -0.2050(4) 0.0051(3) 0.3446(2)
O21 O 0.1661(2) 0.19085(19) -0.03430(18)
O22 O 0.2849(2) 0.1523(2) -0.10101(17)
O23 O 0.0902(3) 0.4967(2) -0.2279(2)
H146 H 0.0923 0.5035 -0.2603
O24 O 0.0969(3) 0.4731(3) -0.3259(2)
O25 O 0.3671(2) 0.2467(2) -0.00300(19)
O26 O 0.3843(2) 0.3050(2) 0.04974(19)
O27 O 0.4613(3) 0.0041(3) 0.2233(3)
H147 H 0.4371 -0.0174 0.2408
O28 O 0.3363(4) -0.0070(4) 0.2963(4)
O29 O -0.3493(3) 0.2397(2) -0.03542(19)
O30 O -0.2231(3) 0.2092(2) -0.08616(19)
O31 O -0.2880(4) 0.5145(3) -0.2364(3)
H148 H -0.2936 0.5285 -0.2654
O32 O -0.3338(4) 0.5213(3) -0.3183(3)
N9 N -0.2154(3) 0.2451(2) 0.1759(2)
N10 N -0.2447(3) 0.2291(2) 0.2228(2)
N11 N 0.1563(3) 0.2301(2) -0.1589(2)
N12 N 0.1474(3) 0.2514(3) -0.2020(2)
N13 N 0.2835(3) 0.2373(2) 0.1343(2)
N14 N 0.2558(3) 0.2162(3) 0.1794(2)
N15 N -0.2953(3) 0.2619(3) -0.1750(2)
N16 N -0.2959(3) 0.2838(3) -0.2196(2)
C105 C -0.1457(4) 0.2907(3) 0.0785(3)
C106 C -0.2240(3) 0.3292(3) 0.1212(3)
C107 C -0.2624(4) 0.3892(3) 0.1132(3)
H149 H -0.2386 0.4050 0.0800
C108 C -0.3334(4) 0.4260(3) 0.1516(3)
H150 H -0.3583 0.4671 0.1454
C109 C -0.3687(4) 0.4030(3) 0.1998(3)
H151 H -0.4187 0.4282 0.2262
C110 C -0.3322(4) 0.3442(3) 0.2096(3)
H152 H -0.3565 0.3289 0.2430
C111 C -0.2592(4) 0.3071(3) 0.1704(3)
C112 C -0.2004(4) 0.1678(3) 0.2291(3)
C113 C -0.2342(4) 0.1425(3) 0.2761(3)
H153 H -0.2846 0.1667 0.3027
C114 C -0.1969(5) 0.0832(3) 0.2854(3)
C115 C -0.1210(5) 0.0488(3) 0.2475(3)
C116 C -0.0858(4) 0.0740(3) 0.2010(3)
H154 H -0.0341 0.0509 0.1756
C117 C -0.1251(4) 0.1320(3) 0.1915(3)
H155 H -0.1009 0.1482 0.1588
C118 C 0.2133(4) 0.1617(3) -0.0807(3)
C119 C 0.1869(4) 0.1358(3) -0.1164(2)
C120 C 0.1909(4) 0.0765(3) -0.1108(3)
H156 H 0.2095 0.0537 -0.0846
C121 C 0.1683(4) 0.0503(3) -0.1424(3)
H157 H 0.1718 0.0095 -0.1384
C122 C 0.1405(4) 0.0832(4) -0.1803(3)
H158 H 0.1239 0.0654 -0.2018
C123 C 0.1369(4) 0.1417(3) -0.1868(3)
H159 H 0.1186 0.1639 -0.2134
C124 C 0.1599(3) 0.1687(3) -0.1551(3)
C125 C 0.1370(3) 0.3143(3) -0.2074(3)
C126 C 0.1317(4) 0.3364(3) -0.2562(3)
H160 H 0.1382 0.3096 -0.2848
C127 C 0.1170(4) 0.3975(3) -0.2640(3)
C128 C 0.1059(4) 0.4369(3) -0.2219(3)
C129 C 0.1111(4) 0.4147(3) -0.1729(3)
H161 H 0.1044 0.4415 -0.1443
C130 C 0.1258(4) 0.3542(3) -0.1650(3)
H162 H 0.1282 0.3396 -0.1308
C131 C 0.3421(4) 0.2859(3) 0.0379(3)
C132 C 0.2569(4) 0.3134(3) 0.0748(3)
C133 C 0.2070(4) 0.3657(3) 0.0622(3)
H163 H 0.2261 0.3833 0.0289
C134 C 0.1295(4) 0.3925(4) 0.0978(4)
H164 H 0.0958 0.4285 0.0889
C135 C 0.1006(4) 0.3674(3) 0.1463(3)
H165 H 0.0472 0.3856 0.1705
C136 C 0.1490(4) 0.3167(3) 0.1590(3)
H166 H 0.1293 0.2996 0.1925
C137 C 0.2276(4) 0.2889(3) 0.1238(3)
C138 C 0.3117(4) 0.1643(3) 0.1909(3)
C139 C 0.2811(5) 0.1322(3) 0.2322(3)
H167 H 0.2266 0.1471 0.2533
C140 C 0.3312(5) 0.0767(4) 0.2431(4)
C141 C 0.4107(5) 0.0573(3) 0.2142(3)
C142 C 0.4415(5) 0.0914(4) 0.1745(3)
H168 H 0.4962 0.0784 0.1556
C143 C 0.3923(4) 0.1447(3) 0.1623(3)
H169 H 0.4132 0.1678 0.1346
C144 C -0.2903(4) 0.2121(3) -0.0779(3)
C145 C -0.2939(4) 0.1770(3) -0.1217(3)
C146 C -0.2926(4) 0.1188(3) -0.1144(3)
H170 H -0.2903 0.1011 -0.0812
C147 C -0.2948(5) 0.0861(4) -0.1553(4)
H171 H -0.2933 0.0459 -0.1502
C148 C -0.2991(4) 0.1113(4) -0.2029(3)
H172 H -0.3011 0.0886 -0.2304
C149 C -0.3007(4) 0.1704(3) -0.2117(3)
H173 H -0.3042 0.1880 -0.2446
C150 C -0.2970(4) 0.2029(3) -0.1709(3)
C151 C -0.2913(4) 0.3421(3) -0.2233(3)
C152 C -0.3068(4) 0.3744(3) -0.2660(3)
H174 H -0.3168 0.3564 -0.2921
C153 C -0.3077(4) 0.4332(4) -0.2711(4)
C154 C -0.2883(4) 0.4583(4) -0.2337(4)
C155 C -0.2690(4) 0.4236(4) -0.1934(4)
H175 H -0.2542 0.4395 -0.1692
C156 C -0.2708(4) 0.3666(3) -0.1877(3)
H176 H -0.2581 0.3437 -0.1594
C157 C -0.2349(5) 0.0572(4) 0.3341(3)
H177 H -0.2859 0.0822 0.3592
C158 C 0.0733(4) 0.2328(3) 0.0935(2)
H178 H 0.1251 0.2344 0.0759
H179 H 0.0380 0.2702 0.1200
C159 C 0.0792(5) 0.1775(3) 0.1256(3)
H180 H 0.0287 0.1737 0.1394
H181 H 0.1184 0.1407 0.0994
C160 C 0.1005(5) 0.1782(3) 0.1742(3)
H182 H 0.0607 0.2142 0.2011
H183 H 0.1506 0.1827 0.1607
C161 C 0.1075(5) 0.1209(3) 0.2039(3)
H184 H 0.0604 0.1134 0.2132
H185 H 0.1139 0.1264 0.2382
H186 H 0.1526 0.0860 0.1794
C162 C 0.0179(4) 0.1517(2) 0.0128(3)
H187 H -0.0382 0.1605 0.0290
H188 H 0.0366 0.1436 -0.0282
C163 C 0.0586(4) 0.0939(2) 0.0342(3)
H189 H 0.1150 0.0839 0.0174
H190 H 0.0405 0.1014 0.0752
C164 C 0.0450(4) 0.0395(2) 0.0215(3)
H191 H -0.0112 0.0489 0.0394
H192 H 0.0614 0.0327 -0.0194
C165 C 0.0881(5) -0.0184(2) 0.0414(4)
H193 H 0.1441 -0.0310 0.0201
H194 H 0.0726 -0.0508 0.0358
H195 H 0.0757 -0.0110 0.0812
C166 C 0.0215(4) 0.3090(2) -0.0187(3)
H196 H 0.0732 0.3020 -0.0484
H197 H -0.0139 0.3123 -0.0370
C167 C -0.0083(5) 0.3679(3) 0.0165(3)
H198 H 0.0268 0.3638 0.0353
H199 H -0.0600 0.3745 0.0459
C168 C -0.0155(5) 0.4236(3) -0.0149(4)
H200 H 0.0334 0.4148 -0.0483
H201 H -0.0229 0.4578 0.0093
C169 C -0.0820(7) 0.4433(5) -0.0332(5)
H202 H -0.0687 0.4148 -0.0645
H203 H -0.0921 0.4846 -0.0450
H204 H -0.1285 0.4434 -0.0020
C170 C 0.1118(4) 0.4195(4) -0.3160(3)
H205 H 0.1205 0.3908 -0.3440
C171 C 0.4411(4) 0.1515(4) -0.1068(3)
H206 H 0.4715 0.1372 -0.0835
H207 H 0.4461 0.1146 -0.1259
C172 C 0.4789(5) 0.1849(5) -0.1507(3)
H208 H 0.5356 0.1605 -0.1663
H209 H 0.4693 0.2241 -0.1326
C173 C 0.4531(6) 0.1985(5) -0.1982(3)
H210 H 0.3958 0.2192 -0.1831
H211 H 0.4686 0.1595 -0.2198
C174 C 0.4881(6) 0.2388(5) -0.2371(4)
H212 H 0.4787 0.2750 -0.2151
H213 H 0.4639 0.2517 -0.2641
H214 H 0.5440 0.2158 -0.2571
C175 C 0.2950(3) 0.1475(2) 0.0193(2)
H215 H 0.2664 0.1768 0.0535
H216 H 0.2599 0.1294 0.0171
C176 C 0.3643(3) 0.0972(2) 0.0249(2)
H217 H 0.3944 0.0689 -0.0099
H218 H 0.3981 0.1156 0.0291
C177 C 0.3439(3) 0.0609(2) 0.0736(2)
H219 H 0.3099 0.0426 0.0697
H220 H 0.3143 0.0889 0.1086
C178 C 0.4145(4) 0.0104(2) 0.0779(3)
H221 H 0.4407 -0.0201 0.0453
H222 H 0.3983 -0.0091 0.1121
H223 H 0.4502 0.0278 0.0791
C179 C 0.2520(4) 0.2859(3) -0.0651(3)
H224 H 0.2312 0.2806 -0.0921
H225 H 0.2072 0.3051 -0.0293
C180 C 0.2913(3) 0.3299(2) -0.0864(3)
H226 H 0.3164 0.3326 -0.0616
H227 H 0.3325 0.3132 -0.1242
C181 C 0.2373(4) 0.3933(2) -0.0895(4)
H228 H 0.1934 0.4088 -0.0526
H229 H 0.2158 0.3913 -0.1170
C182 C 0.2763(5) 0.4380(3) -0.1060(4)
H230 H 0.2962 0.4413 -0.0782
H231 H 0.2385 0.4782 -0.1076
H232 H 0.3193 0.4233 -0.1427
C183 C 0.2980(6) 0.0428(5) 0.2847(5)
H233 H 0.2432 0.0594 0.3046
C184 C 0.5061(4) 0.3082(3) -0.0720(3)
H234 H 0.5455 0.2778 -0.1044
H235 H 0.4545 0.3160 -0.0716
C185 C 0.5186(4) 0.3670(3) -0.0806(3)
H236 H 0.4839 0.3956 -0.0462
H237 H 0.5727 0.3581 -0.0863
C186 C 0.5038(5) 0.3980(3) -0.1293(3)
H238 H 0.4504 0.4055 -0.1245
H239 H 0.5400 0.3702 -0.1641
C187 C 0.5135(5) 0.4580(3) -0.1356(4)
H240 H 0.4758 0.4867 -0.1023
H241 H 0.5049 0.4753 -0.1686
H242 H 0.5662 0.4511 -0.1402
C188 C 0.5319(3) 0.1757(2) 0.0114(3)
H243 H 0.4812 0.1740 0.0346
H244 H 0.5492 0.1555 -0.0262
C189 C 0.5889(3) 0.1373(2) 0.0361(3)
H245 H 0.5674 0.1518 0.0762
C190 C 0.6070(4) 0.0699(2) 0.0305(3)
H246 H 0.6258 0.0559 -0.0094
H247 H 0.5586 0.0635 0.0510
C191 C 0.6670(4) 0.0314(2) 0.0525(3)
H248 H 0.6737 -0.0114 0.0497
H249 H 0.6497 0.0459 0.0917
C192 C 0.5108(5) 0.3264(4) 0.0629(3)
H250 H 0.5635 0.3261 0.0493
H251 H 0.4755 0.3685 0.0617
C193 C 0.4886(12) 0.3155(6) 0.1234(3)
H252 H 0.5279 0.2764 0.1264
H253 H 0.4383 0.3112 0.1373
C194 C 0.4813(9) 0.3653(6) 0.1605(3)
H254 H 0.4439 0.4050 0.1563
H255 H 0.5323 0.3682 0.1483
C195 C 0.4546(10) 0.3540(8) 0.2215(3)
H256 H 0.4030 0.3532 0.2343
H257 H 0.4523 0.3869 0.2437
H258 H 0.4913 0.3147 0.2259
C196 C -0.3274(5) 0.4685(4) -0.3133(4)
H259 H -0.3360 0.4493 -0.3395
C197 C -0.2123(3) 0.1811(3) 0.0316(2)
H260 H -0.2118 0.1469 0.0117
H261 H -0.1674 0.1642 0.0424
C198 C -0.2850(3) 0.2026(2) 0.0843(2)
H262 H -0.3303 0.2141 0.0743
H263 H -0.2893 0.2397 0.1024
C199 C -0.2884(4) 0.1558(3) 0.1257(2)
H264 H -0.2427 0.1436 0.1353
H265 H -0.2856 0.1190 0.1081
C200 C -0.3612(4) 0.1791(3) 0.1789(2)
H266 H -0.3655 0.2165 0.1958
H267 H -0.3587 0.1479 0.2051
H268 H -0.4066 0.1880 0.1701
C201 C -0.2794(4) 0.3363(3) -0.0078(3)
H269 H -0.3194 0.3366 -0.0204
H270 H -0.3046 0.3451 0.0334
C202 C -0.2585(4) 0.3892(3) -0.0306(4)
H271 H -0.2407 0.3846 -0.0718
H272 H -0.2145 0.3872 -0.0221
C203 C -0.3234(7) 0.4513(3) -0.0081(5)
H273 H -0.3016 0.4829 -0.0179
H274 H -0.3474 0.4536 0.0331
C204 C -0.3854(7) 0.4652(7) -0.0306(7)
H275 H -0.3609 0.4555 -0.0713
H276 H -0.4199 0.5087 -0.0213
H277 H -0.4155 0.4404 -0.0139
C205 C -0.0802(4) 0.2168(3) -0.0909(2)
H278 H -0.0448 0.2206 -0.0753
H279 H -0.0619 0.1730 -0.1031
C206 C -0.0742(5) 0.2520(3) -0.1415(3)
H280 H -0.0295 0.2254 -0.1745
H281 H -0.1217 0.2620 -0.1485
C207 C -0.0645(5) 0.3101(3) -0.1358(3)
H282 H -0.0152 0.3000 -0.1314
H283 H -0.1073 0.3356 -0.1014
C208 C -0.0640(5) 0.3470(4) -0.1851(3)
H284 H -0.0177 0.3243 -0.2184
H285 H -0.0634 0.3863 -0.1772
H286 H -0.1106 0.3542 -0.1918
Sn7_2 Sn -0.48783(3) 0.26912(2) 0.00289(2)
O29_2 O 0.6507(3) 0.2397(2) -0.03542(19)
H287? H 0.3013 0.3485 0.4885
H288? H 0.2109 0.3902 0.5084
C209? C 0.2758(19) 0.4033(14) 0.4290(10)
H289? H 0.2674 0.4437 0.4440
H290? H 0.3305 0.3832 0.4022
C210? C 0.2217(14) 0.4107(11) 0.4005(10)
H291? H 0.1766 0.4031 0.4262
H292? H 0.2490 0.3813 0.3670
H293? H 0.2043 0.4524 0.3899
H294? H 0.2472 0.1168 0.5233
H295? H 0.2783 0.1076 0.5711
C211? C 0.343(3) 0.0398(8) 0.508(2)
H296? H 0.3793 0.0373 0.4687
H297? H 0.3750 0.0212 0.5299
C212? C 0.297(4) 0.002(2) 0.510(2)
H298? H 0.2812 -0.0122 0.5468
H299? H 0.3294 -0.0325 0.4812
H300? H 0.2510 0.0280 0.5031
H301? H 0.5601 0.1571 0.4088
H302? H 0.4760 0.1637 0.4518
C213? C 0.4731(15) 0.2179(11) 0.3881(9)
H303? H 0.5044 0.1883 0.3541
H304? H 0.4211 0.2165 0.4027
C214? C 0.4604(17) 0.2791(9) 0.3658(8)
H305? H 0.4836 0.3003 0.3805
H306? H 0.4039 0.3042 0.3797
C215? C 0.4952(19) 0.2746(13) 0.3026(8)
H307? H 0.5133 0.3075 0.2905
H308? H 0.4558 0.2783 0.2886
H309? H 0.5390 0.2349 0.2878
H310? H 0.4278 0.3565 0.4827
H311? H 0.4822 0.3560 0.5131
C216? C 0.5337(14) 0.3543(10) 0.4278(7)
H312? H 0.5873 0.3352 0.4259
H313? H 0.5333 0.3353 0.3953
C217? C 0.515(2) 0.4211(11) 0.4207(9)
H314? H 0.4690 0.4383 0.4114
H315? H 0.5592 0.4251 0.3889
C218? C 0.4996(16) 0.4578(10) 0.4723(11)
H316? H 0.4514 0.4592 0.5024
H317? H 0.4946 0.4995 0.4639
H318? H 0.5427 0.4384 0.4841
H319? H 0.6142 0.3398 0.6619
C219? C 0.6201(6) 0.3228(9) 0.6079(5)
H320? H 0.5971 0.2920 0.6143
C220? C 0.5626(9) 0.3836(8) 0.6027(7)
H321? H 0.5836 0.4150 0.6009
H322? H 0.5571 0.3808 0.5671
C221? C 0.4835(7) 0.4043(9) 0.6498(8)
H323? H 0.4643 0.3713 0.6541
H324? H 0.4472 0.4405 0.6400
C222? C 0.4834(14) 0.4204(16) 0.7049(7)
H325? H 0.5155 0.3838 0.7165
H326? H 0.4301 0.4361 0.7333
H327? H 0.5045 0.4518 0.7004
H328? H 0.7988 0.1212 0.5658
H329? H 0.7257 0.1586 0.5512
C223? C 0.7081(10) 0.1822(7) 0.6310(4)
H330? H 0.7354 0.1957 0.6485
H331? H 0.6591 0.2171 0.6355
C224? C 0.6901(13) 0.1298(8) 0.6600(8)
H332? H 0.6655 0.1151 0.6414
H333? H 0.6547 0.1441 0.6992
H334? H 0.7383 0.0965 0.6581
H335? H 1.0675 0.1717 0.5235
H336? H 0.9753 0.1971 0.5467
C225? C 1.0298(8) 0.1185(5) 0.4930(7)
H337? H 1.0246 0.0943 0.5255
H338? H 0.9834 0.1271 0.4849
C226? C 1.0982(9) 0.0770(9) 0.4441(6)
H339? H 1.1143 0.1020 0.4139
H340? H 1.0823 0.0491 0.4299
C227? C 1.1669(9) 0.0392(10) 0.4581(10)
H341? H 1.2122 0.0473 0.4339
H342? H 1.1783 -0.0044 0.4523
H343? H 1.1547 0.0500 0.4973
H344? H 0.6378 0.1435 0.0174
H345? H 0.7165 0.0346 0.0304
H346? H 0.5642 0.3219 0.0553
H347? H 0.4795 0.3698 0.0616
C228? C 0.4753(14) 0.3063(9) 0.1200(4)
H348? H 0.4312 0.2978 0.1205
H349? H 0.5145 0.2669 0.1227
C229? C 0.4461(9) 0.3474(11) 0.1723(7)
H350? H 0.4327 0.3246 0.2052
H351? H 0.3981 0.3828 0.1754
C230? C 0.5045(12) 0.3707(11) 0.1737(9)
H352? H 0.5496 0.3364 0.1755
H353? H 0.4807 0.4004 0.2066
H354? H 0.5213 0.3905 0.1398
H355? H 0.6711 0.3336 0.0171
H356? H 0.7333 0.3588 0.0150
C231? C 0.7031(11) 0.3775(6) -0.0513(5)
H357? H 0.7510 0.3811 -0.0783
H358? H 0.6824 0.3603 -0.0720
C232? C 0.6441(8) 0.4393(7) -0.0216(9)
H359? H 0.6152 0.4345 0.0177
H360? H 0.6064 0.4557 -0.0394
C233? C 0.6789(12) 0.4850(7) -0.0223(9)
H361? H 0.7089 0.4728 0.0010
H362? H 0.6372 0.5256 -0.0076
H363? H 0.7130 0.4861 -0.0608
loop_
_geom_bond_atom_site_label_1
_geom_bond_atom_site_label_2
_geom_bond_site_symmetry_1
_geom_bond_site_symmetry_2
Sn1 O2 1_555 1_555
Sn2 O6 1_555 1_555
Sn3 O10 1_555 1_555
Sn4 O1 1_555 1_555
O1 C1 1_555 1_555
O2 C1 1_555 1_555
O3 H1 1_555 1_555
O4 C53 1_555 1_555
O5 Sn1 1_555 1_555
O6 C14 1_555 1_555
O7 H2 1_555 1_555
O8 C66 1_555 1_555
O9 Sn2 1_555 1_555
O10 C27 1_555 1_555
O11 H3 1_555 1_555
O12 C79 1_555 1_555
O13 C40 1_555 1_555
O14 Sn4 1_555 1_555
O15 H4 1_555 1_555
O16 C92 1_555 1_555
N1 N2 1_555 1_555
N2 C8 1_555 1_555
N3 N4 1_555 1_555
N4 C21 1_555 1_555
N5 N6 1_555 1_555
N6 C34 1_555 1_555
N7 N8 1_555 1_555
N8 C47 1_555 1_555
C1 C2 1_555 1_555
C2 C3 1_555 1_555
C3 H5 1_555 1_555
C4 C3 1_555 1_555
H6 C4 1_555 1_555
C5 C4 1_555 1_555
H7 C5 1_555 1_555
C6 C5 1_555 1_555
H8 C6 1_555 1_555
C7 N1 1_555 1_555
C8 C9 1_555 1_555
C9 H9 1_555 1_555
C10 C9 1_555 1_555
C11 O3 1_555 1_555
C12 C11 1_555 1_555
H10 C12 1_555 1_555
C13 C8 1_555 1_555
H11 C13 1_555 1_555
C14 O5 1_555 1_555
C15 C14 1_555 1_555
C16 C15 1_555 1_555
H12 C16 1_555 1_555
C17 C16 1_555 1_555
H13 C17 1_555 1_555
C18 C17 1_555 1_555
H14 C18 1_555 1_555
C19 C18 1_555 1_555
H15 C19 1_555 1_555
C20 N3 1_555 1_555
C21 C22 1_555 1_555
C22 H16 1_555 1_555
C23 C22 1_555 1_555
C24 O7 1_555 1_555
C25 C24 1_555 1_555
H17 C25 1_555 1_555
C26 C21 1_555 1_555
H18 C26 1_555 1_555
C27 O9 1_555 1_555
C28 C27 1_555 1_555
C29 C28 1_555 1_555
H19 C29 1_555 1_555
C30 C29 1_555 1_555
H20 C30 1_555 1_555
C31 C30 1_555 1_555
H21 C31 1_555 1_555
C32 C31 1_555 1_555
H22 C32 1_555 1_555
C33 N5 1_555 1_555
C34 C35 1_555 1_555
C35 H23 1_555 1_555
C36 C35 1_555 1_555
C37 O11 1_555 1_555
C38 C37 1_555 1_555
H24 C38 1_555 1_555
C39 C34 1_555 1_555
H25 C39 1_555 1_555
C40 O14 1_555 1_555
C41 C40 1_555 1_555
C42 C41 1_555 1_555
H26 C42 1_555 1_555
C43 C42 1_555 1_555
H27 C43 1_555 1_555
C44 C43 1_555 1_555
H28 C44 1_555 1_555
C45 C44 1_555 1_555
H29 C45 1_555 1_555
C46 N7 1_555 1_555
C47 C48 1_555 1_555
C48 H30 1_555 1_555
C49 C48 1_555 1_555
C50 O15 1_555 1_555
C51 C50 1_555 1_555
H31 C51 1_555 1_555
C52 C47 1_555 1_555
H32 C52 1_555 1_555
C53 C10 1_555 1_555
H33 C53 1_555 1_555
C54 Sn1 1_555 1_555
H34 C54 1_555 1_555
H35 C54 1_555 1_555
C55 C54 1_555 1_555
H36 C55 1_555 1_555
H37 C55 1_555 1_555
C56 C55 1_555 1_555
H38 C56 1_555 1_555
H39 C56 1_555 1_555
C57 C56 1_555 1_555
H40 C57 1_555 1_555
H41 C57 1_555 1_555
H42 C57 1_555 1_555
C58 Sn1 1_555 1_555
H43 C58 1_555 1_555
H44 C58 1_555 1_555
C59 C58 1_555 1_555
H45 C59 1_555 1_555
H46 C59 1_555 1_555
C60 C59 1_555 1_555
H47 C60 1_555 1_555
H48 C60 1_555 1_555
C61 C60 1_555 1_555
H49 C61 1_555 1_555
H50 C61 1_555 1_555
H51 C61 1_555 1_555
C62 Sn1 1_555 1_555
H52 C62 1_555 1_555
H53 C62 1_555 1_555
C63 C62 1_555 1_555
H54 C63 1_555 1_555
H55 C63 1_555 1_555
C64 C63 1_555 1_555
H56 C64 1_555 1_555
H57 C64 1_555 1_555
C65 C64 1_555 1_555
H58 C65 1_555 1_555
H59 C65 1_555 1_555
H60 C65 1_555 1_555
C66 C23 1_555 1_555
H61 C66 1_555 1_555
C67 Sn2 1_555 1_555
H62 C67 1_555 1_555
H63 C67 1_555 1_555
C68 C67 1_555 1_555
H64 C68 1_555 1_555
H65 C68 1_555 1_555
C69 C68 1_555 1_555
H66 C69 1_555 1_555
H67 C69 1_555 1_555
C70 C69 1_555 1_555
H68 C70 1_555 1_555
H69 C70 1_555 1_555
H70 C70 1_555 1_555
C71 Sn2 1_555 1_555
H71 C71 1_555 1_555
H72 C71 1_555 1_555
C72 C71 1_555 1_555
H73 C72 1_555 1_555
H74 C72 1_555 1_555
C73 C72 1_555 1_555
H75 C73 1_555 1_555
H76 C73 1_555 1_555
C74 C73 1_555 1_555
H77 C74 1_555 1_555
H78 C74 1_555 1_555
H79 C74 1_555 1_555
C75 Sn2 1_555 1_555
H80 C75 1_555 1_555
H81 C75 1_555 1_555
C76 C75 1_555 1_555
H82 C76 1_555 1_555
H83 C76 1_555 1_555
C77 C76 1_555 1_555
H84 C77 1_555 1_555
H85 C77 1_555 1_555
C78 C77 1_555 1_555
H86 C78 1_555 1_555
H87 C78 1_555 1_555
H88 C78 1_555 1_555
C79 C36 1_555 1_555
H89 C79 1_555 1_555
C80 Sn3 1_555 1_555
H90 C80 1_555 1_555
H91 C80 1_555 1_555
C81 C80 1_555 1_555
H92 C81 1_555 1_555
C82 C81 1_555 1_555
H93 C82 1_555 1_555
H94 C82 1_555 1_555
C83 C82 1_555 1_555
H95 C83 1_555 1_555
H96 C83 1_555 1_555
H97 C83 1_555 1_555
H98 C81 1_555 1_555
C84 Sn3 1_555 1_555
H99 C84 1_555 1_555
H100 C84 1_555 1_555
C85 C84 1_555 1_555
H101 C85 1_555 1_555
H102 C85 1_555 1_555
C86 C85 1_555 1_555
H103 C86 1_555 1_555
H104 C86 1_555 1_555
C87 C86 1_555 1_555
H105 C87 1_555 1_555
H106 C87 1_555 1_555
H107 C87 1_555 1_555
C88 Sn3 1_555 1_555
H108 C88 1_555 1_555
H109 C88 1_555 1_555
C89 C88 1_555 1_555
H110 C89 1_555 1_555
H111 C89 1_555 1_555
C90 C89 1_555 1_555
H112 C90 1_555 1_555
H113 C90 1_555 1_555
C91 C90 1_555 1_555
H114 C91 1_555 1_555
H115 C91 1_555 1_555
H116 C91 1_555 1_555
C92 C49 1_555 1_555
H117 C92 1_555 1_555
C93 Sn4 1_555 1_555
H118 C93 1_555 1_555
H119 C93 1_555 1_555
C94 C93 1_555 1_555
H120 C94 1_555 1_555
H121 C94 1_555 1_555
C95 C94 1_555 1_555
H122 C95 1_555 1_555
H123 C95 1_555 1_555
C96 C95 1_555 1_555
H124 C96 1_555 1_555
H125 C96 1_555 1_555
H126 C96 1_555 1_555
C97 Sn4 1_555 1_555
H127 C97 1_555 1_555
H128 C97 1_555 1_555
C98 C97 1_555 1_555
H129 C98 1_555 1_555
H130 C98 1_555 1_555
C99 C98 1_555 1_555
H131 C99 1_555 1_555
H132 C99 1_555 1_555
C100 C99 1_555 1_555
H133 C100 1_555 1_555
H134 C100 1_555 1_555
H135 C100 1_555 1_555
C101 Sn4 1_555 1_555
H136 C101 1_555 1_555
H137 C101 1_555 1_555
C102 C101 1_555 1_555
H138 C102 1_555 1_555
H139 C102 1_555 1_555
C103 C102 1_555 1_555
H140 C103 1_555 1_555
H141 C103 1_555 1_555
C104 C103 1_555 1_555
H142 C104 1_555 1_555
H143 C104 1_555 1_555
H144 C104 1_555 1_555
Sn5 O18 1_555 1_555
Sn6 O22 1_555 1_555
Sn7 O26 1_555 1_555
Sn8 O17 1_555 1_555
O17 C105 1_555 1_555
O18 C105 1_555 1_555
O19 H145 1_555 1_555
O20 C157 1_555 1_555
O21 Sn5 1_555 1_555
O22 C118 1_555 1_555
O23 H146 1_555 1_555
O24 C170 1_555 1_555
O25 Sn6 1_555 1_555
O26 C131 1_555 1_555
O27 H147 1_555 1_555
O28 C183 1_555 1_555
O29 C144 1_555 1_555
O30 Sn8 1_555 1_555
O31 H148 1_555 1_555
O32 C196 1_555 1_555
N9 N10 1_555 1_555
N10 C112 1_555 1_555
N11 N12 1_555 1_555
N12 C125 1_555 1_555
N13 N14 1_555 1_555
N14 C138 1_555 1_555
N15 N16 1_555 1_555
N16 C151 1_555 1_555
C105 C106 1_555 1_555
C106 C107 1_555 1_555
C107 H149 1_555 1_555
C108 C107 1_555 1_555
H150 C108 1_555 1_555
C109 C108 1_555 1_555
H151 C109 1_555 1_555
C110 C109 1_555 1_555
H152 C110 1_555 1_555
C111 N9 1_555 1_555
C112 C113 1_555 1_555
C113 H153 1_555 1_555
C114 C113 1_555 1_555
C115 O19 1_555 1_555
C116 C115 1_555 1_555
H154 C116 1_555 1_555
C117 C112 1_555 1_555
H155 C117 1_555 1_555
C118 O21 1_555 1_555
C119 C118 1_555 1_555
C120 C119 1_555 1_555
H156 C120 1_555 1_555
C121 C120 1_555 1_555
H157 C121 1_555 1_555
C122 C121 1_555 1_555
H158 C122 1_555 1_555
C123 C122 1_555 1_555
H159 C123 1_555 1_555
C124 N11 1_555 1_555
C125 C126 1_555 1_555
C126 H160 1_555 1_555
C127 C126 1_555 1_555
C128 O23 1_555 1_555
C129 C128 1_555 1_555
H161 C129 1_555 1_555
C130 C125 1_555 1_555
H162 C130 1_555 1_555
C131 O25 1_555 1_555
C132 C131 1_555 1_555
C133 C132 1_555 1_555
H163 C133 1_555 1_555
C134 C133 1_555 1_555
H164 C134 1_555 1_555
C135 C134 1_555 1_555
H165 C135 1_555 1_555
C136 C135 1_555 1_555
H166 C136 1_555 1_555
C137 N13 1_555 1_555
C138 C139 1_555 1_555
C139 H167 1_555 1_555
C140 C139 1_555 1_555
C141 O27 1_555 1_555
C142 C141 1_555 1_555
H168 C142 1_555 1_555
C143 C138 1_555 1_555
H169 C143 1_555 1_555
C144 O30 1_555 1_555
C145 C144 1_555 1_555
C146 C145 1_555 1_555
H170 C146 1_555 1_555
C147 C146 1_555 1_555
H171 C147 1_555 1_555
C148 C147 1_555 1_555
H172 C148 1_555 1_555
C149 C148 1_555 1_555
H173 C149 1_555 1_555
C150 N15 1_555 1_555
C151 C152 1_555 1_555
C152 H174 1_555 1_555
C153 C152 1_555 1_555
C154 O31 1_555 1_555
C155 C154 1_555 1_555
H175 C155 1_555 1_555
C156 C151 1_555 1_555
H176 C156 1_555 1_555
C157 C114 1_555 1_555
H177 C157 1_555 1_555
C158 Sn5 1_555 1_555
H178 C158 1_555 1_555
H179 C158 1_555 1_555
C159 C158 1_555 1_555
H180 C159 1_555 1_555
H181 C159 1_555 1_555
C160 C159 1_555 1_555
H182 C160 1_555 1_555
H183 C160 1_555 1_555
C161 C160 1_555 1_555
H184 C161 1_555 1_555
H185 C161 1_555 1_555
H186 C161 1_555 1_555
C162 Sn5 1_555 1_555
H187 C162 1_555 1_555
H188 C162 1_555 1_555
C163 C162 1_555 1_555
H189 C163 1_555 1_555
H190 C163 1_555 1_555
C164 C163 1_555 1_555
H191 C164 1_555 1_555
H192 C164 1_555 1_555
C165 C164 1_555 1_555
H193 C165 1_555 1_555
H194 C165 1_555 1_555
H195 C165 1_555 1_555
C166 Sn5 1_555 1_555
H196 C166 1_555 1_555
H197 C166 1_555 1_555
C167 C166 1_555 1_555
H198 C167 1_555 1_555
H199 C167 1_555 1_555
C168 C167 1_555 1_555
H200 C168 1_555 1_555
H201 C168 1_555 1_555
C169 C168 1_555 1_555
H202 C169 1_555 1_555
H203 C169 1_555 1_555
H204 C169 1_555 1_555
C170 C127 1_555 1_555
H205 C170 1_555 1_555
C171 Sn6 1_555 1_555
H206 C171 1_555 1_555
H207 C171 1_555 1_555
C172 C171 1_555 1_555
H208 C172 1_555 1_555
H209 C172 1_555 1_555
C173 C172 1_555 1_555
H210 C173 1_555 1_555
H211 C173 1_555 1_555
C174 C173 1_555 1_555
H212 C174 1_555 1_555
H213 C174 1_555 1_555
H214 C174 1_555 1_555
C175 Sn6 1_555 1_555
H215 C175 1_555 1_555
H216 C175 1_555 1_555
C176 C175 1_555 1_555
H217 C176 1_555 1_555
H218 C176 1_555 1_555
C177 C176 1_555 1_555
H219 C177 1_555 1_555
H220 C177 1_555 1_555
C178 C177 1_555 1_555
H221 C178 1_555 1_555
H222 C178 1_555 1_555
H223 C178 1_555 1_555
C179 Sn6 1_555 1_555
H224 C179 1_555 1_555
H225 C179 1_555 1_555
C180 C179 1_555 1_555
H226 C180 1_555 1_555
H227 C180 1_555 1_555
C181 C180 1_555 1_555
H228 C181 1_555 1_555
H229 C181 1_555 1_555
C182 C181 1_555 1_555
H230 C182 1_555 1_555
H231 C182 1_555 1_555
H232 C182 1_555 1_555
C183 C140 1_555 1_555
H233 C183 1_555 1_555
C184 Sn7 1_555 1_555
H234 C184 1_555 1_555
H235 C184 1_555 1_555
C185 C184 1_555 1_555
H236 C185 1_555 1_555
H237 C185 1_555 1_555
C186 C185 1_555 1_555
H238 C186 1_555 1_555
H239 C186 1_555 1_555
C187 C186 1_555 1_555
H240 C187 1_555 1_555
H241 C187 1_555 1_555
H242 C187 1_555 1_555
C188 Sn7 1_555 1_555
H243 C188 1_555 1_555
H244 C188 1_555 1_555
C189 C188 1_555 1_555
H245 C189 1_555 1_555
C190 C189 1_555 1_555
H246 C190 1_555 1_555
H247 C190 1_555 1_555
C191 C190 1_555 1_555
H248 C191 1_555 1_555
H249 C191 1_555 1_555
C192 Sn7 1_555 1_555
H250 C192 1_555 1_555
H251 C192 1_555 1_555
C193 C192 1_555 1_555
H252 C193 1_555 1_555
H253 C193 1_555 1_555
C194 C193 1_555 1_555
H254 C194 1_555 1_555
H255 C194 1_555 1_555
C195 C194 1_555 1_555
H256 C195 1_555 1_555
H257 C195 1_555 1_555
H258 C195 1_555 1_555
C196 C153 1_555 1_555
H259 C196 1_555 1_555
C197 Sn8 1_555 1_555
H260 C197 1_555 1_555
H261 C197 1_555 1_555
C198 C197 1_555 1_555
H262 C198 1_555 1_555
H263 C198 1_555 1_555
C199 C198 1_555 1_555
H264 C199 1_555 1_555
H265 C199 1_555 1_555
C200 C199 1_555 1_555
H266 C200 1_555 1_555
H267 C200 1_555 1_555
H268 C200 1_555 1_555
C201 Sn8 1_555 1_555
H269 C201 1_555 1_555
H270 C201 1_555 1_555
C202 C201 1_555 1_555
H271 C202 1_555 1_555
H272 C202 1_555 1_555
C203 C202 1_555 1_555
H273 C203 1_555 1_555
H274 C203 1_555 1_555
C204 C203 1_555 1_555
H275 C204 1_555 1_555
H276 C204 1_555 1_555
H277 C204 1_555 1_555
C205 Sn8 1_555 1_555
H278 C205 1_555 1_555
H279 C205 1_555 1_555
C206 C205 1_555 1_555
H280 C206 1_555 1_555
H281 C206 1_555 1_555
C207 C206 1_555 1_555
H282 C207 1_555 1_555
H283 C207 1_555 1_555
C208 C207 1_555 1_555
H284 C208 1_555 1_555
H285 C208 1_555 1_555
H286 C208 1_555 1_555
Sn3_2 O13 1_555 1_555
O13_2 Sn3 1_555 1_555
Sn7_2 O29 1_555 1_555
O29_2 Sn7 1_555 1_555
C2 C7 1_555 1_555
C6 C7 1_555 1_555
C10 C11 1_555 1_555
C12 C13 1_555 1_555
C15 C20 1_555 1_555
C19 C20 1_555 1_555
C23 C24 1_555 1_555
C25 C26 1_555 1_555
C28 C33 1_555 1_555
C32 C33 1_555 1_555
C36 C37 1_555 1_555
C38 C39 1_555 1_555
C41 C46 1_555 1_555
C45 C46 1_555 1_555
C49 C50 1_555 1_555
C51 C52 1_555 1_555
C106 C111 1_555 1_555
C110 C111 1_555 1_555
C114 C115 1_555 1_555
C116 C117 1_555 1_555
C119 C124 1_555 1_555
C123 C124 1_555 1_555
C127 C128 1_555 1_555
C129 C130 1_555 1_555
C132 C137 1_555 1_555
C136 C137 1_555 1_555
C140 C141 1_555 1_555
C142 C143 1_555 1_555
C145 C150 1_555 1_555
C149 C150 1_555 1_555
C153 C154 1_555 1_555
C155 C156 1_555 1_555

#END
