
#######################################################################
#
#                 Cambridge Crystallographic Data Centre
#                                CCDC 
#
#######################################################################
#
# If this CIF has been generated from an entry in the Cambridge 
# Structural Database, then it will include bibliographic, chemical, 
# crystal, experimental, refinement or atomic coordinate data resulting 
# from the CCDC's data processing and validation procedures.
#
#######################################################################

data_XAKQAD
_symmetry_cell_setting           orthorhombic
_symmetry_space_group_name_H-M   'F d d d'
_symmetry_Int_Tables_number      70
_space_group_name_Hall           '-F 2uv 2vw'
loop_
_symmetry_equiv_pos_site_id
_symmetry_equiv_pos_as_xyz
1 x,y,z
2 3/4-x,3/4-y,z
3 3/4-x,y,3/4-z
4 x,3/4-y,3/4-z
5 x,1/2+y,1/2+z
6 3/4-x,1/4-y,1/2+z
7 3/4-x,1/2+y,1/4-z
8 x,1/4-y,1/4-z
9 1/2+x,y,1/2+z
10 1/4-x,3/4-y,1/2+z
11 1/4-x,y,1/4-z
12 1/2+x,3/4-y,1/4-z
13 1/2+x,1/2+y,z
14 1/4-x,1/4-y,z
15 1/4-x,1/2+y,3/4-z
16 1/2+x,1/4-y,3/4-z
17 -x,-y,-z
18 1/4+x,1/4+y,-z
19 1/4+x,-y,1/4+z
20 -x,1/4+y,1/4+z
21 -x,1/2-y,1/2-z
22 1/4+x,3/4+y,1/2-z
23 1/4+x,1/2-y,3/4+z
24 -x,3/4+y,3/4+z
25 1/2-x,-y,1/2-z
26 3/4+x,1/4+y,1/2-z
27 3/4+x,-y,3/4+z
28 1/2-x,1/4+y,3/4+z
29 1/2-x,1/2-y,-z
30 3/4+x,3/4+y,-z
31 3/4+x,1/2-y,1/4+z
32 1/2-x,3/4+y,1/4+z
_cell_length_a                   12.9600(10)
_cell_length_b                   25.619(2)
_cell_length_c                   30.850(2)
_cell_angle_alpha                90
_cell_angle_beta                 90
_cell_angle_gamma                90
_cell_volume                     10242.9
loop_
_atom_site_label
_atom_site_type_symbol
_atom_site_fract_x
_atom_site_fract_y
_atom_site_fract_z
Zn1 Zn 0.6250 0.225738(19) 0.1250
N1 N 0.51343(19) 0.26950(10) 0.10044(9)
O1 O 0.6826(2) 0.18355(11) 0.08058(9)
C1 C 0.5123(2) 0.30933(12) 0.07218(11)
N2 N 0.4159(2) 0.26441(11) 0.11486(9)
H1 H 0.399(3) 0.2422(13) 0.1345(10)
O3 O 0.8515(2) 0.17952(11) 0.08205(11)
C2 C 0.4125(2) 0.32973(12) 0.06915(10)
C3 C 0.3537(2) 0.29943(13) 0.09693(11)
C4 C 0.3750 0.3750 0.04221(15)
H2 H 0.4308 0.3868 0.0237
C5 C 0.6087(3) 0.32403(16) 0.04905(15)
H3 H 0.6465 0.2931 0.0417
H4 H 0.6502 0.3458 0.0675
H5 H 0.5916 0.3428 0.0231
C6 C 0.2422(3) 0.30141(17) 0.10727(15)
H6 H 0.2242 0.2720 0.1250
H7 H 0.2030 0.3003 0.0809
H8 H 0.2272 0.3331 0.1226
C7 C 0.7665(3) 0.16369(13) 0.06960(11)
C8 C 0.7604(3) 0.11840(12) 0.03884(11)
C9 C 0.6725(3) 0.10817(13) 0.01421(11)
C10 C 0.6742(4) 0.06540(15) -0.01392(13)
H9 H 0.6174 0.0587 -0.0315
C11 C 0.7590(4) 0.03292(16) -0.01599(15)
H10 H 0.7585 0.0044 -0.0346
C12 C 0.8432(4) 0.04239(15) 0.00903(14)
H11 H 0.8996 0.0200 0.0080
C13 C 0.8448(3) 0.08531(14) 0.03604(12)
H12 H 0.9033 0.0921 0.0526
Zn1G Zn 0.6250 0.024262(19) 0.1250
Zn1A Zn 0.1250 0.524262(19) 0.1250
N1A N 0.23657(19) 0.48050(10) 0.10044(9)
N1J N 0.73657(19) 0.26950(10) 0.14956(9)
O1M O 0.5674(2) 0.06645(11) 0.08058(9)
O1J O 0.5674(2) 0.18355(11) 0.16942(9)
C1A C 0.2377(2) 0.44067(12) 0.07218(11)
N2A N 0.3341(2) 0.48559(11) 0.11486(9)
H1A H 0.351(3) 0.5078(13) 0.1345(10)
O3M O 0.3985(2) 0.07048(11) 0.08205(11)
C2A C 0.3375(2) 0.42027(12) 0.06915(10)
C3A C 0.3963(2) 0.45057(13) 0.09693(11)
H2A H 0.3192 0.3632 0.0237
C5A C 0.1413(3) 0.42597(16) 0.04905(15)
H3A H 0.1035 0.4569 0.0417
H4A H 0.0998 0.4042 0.0675
H5A H 0.1584 0.4072 0.0231
C6A C 0.5078(3) 0.44859(17) 0.10727(15)
H6A H 0.5258 0.4780 0.1250
H7A H 0.5470 0.4497 0.0809
H8A H 0.5228 0.4169 0.1226
C7M C 0.4835(3) 0.08631(13) 0.06960(11)
C8M C 0.4896(3) 0.13160(12) 0.03884(11)
C9M C 0.5775(3) 0.14183(13) 0.01421(11)
C10M C 0.5758(4) 0.18460(15) -0.01392(13)
H9M H 0.6326 0.1913 -0.0315
C11M C 0.4910(4) 0.21708(16) -0.01599(15)
H10M H 0.4915 0.2456 -0.0346
C12M C 0.4068(4) 0.20761(15) 0.00903(14)
H11M H 0.3504 0.2300 0.0080
C13M C 0.4052(3) 0.16469(14) 0.03604(12)
H12M H 0.3467 0.1579 0.0526
O2 O 1.0755(4) 0.17408(17) 0.08229(17)
loop_
_geom_bond_atom_site_label_1
_geom_bond_atom_site_label_2
_geom_bond_site_symmetry_1
_geom_bond_site_symmetry_2
Zn1 N1 1_555 1_555
N1 C1 1_555 1_555
O1 Zn1 1_555 1_555
C1 C2 1_555 1_555
N2 N1 1_555 1_555
H1 N2 1_555 1_555
O3 C7 1_555 1_555
C2 C3 1_555 1_555
C3 N2 1_555 1_555
C4 C2 1_555 1_555
H2 C4 1_555 1_555
C5 C1 1_555 1_555
H3 C5 1_555 1_555
H4 C5 1_555 1_555
H5 C5 1_555 1_555
C6 C3 1_555 1_555
H6 C6 1_555 1_555
H7 C6 1_555 1_555
H8 C6 1_555 1_555
C7 O1 1_555 1_555
C8 C7 1_555 1_555
C9 C8 1_555 1_555
C10 C9 1_555 1_555
H9 C10 1_555 1_555
C11 C10 1_555 1_555
H10 C11 1_555 1_555
C12 C11 1_555 1_555
H11 C12 1_555 1_555
C13 C8 1_555 1_555
H12 C13 1_555 1_555
Zn1G O1M 1_555 1_555
Zn1A N1A 1_555 1_555
N1A C1A 1_555 1_555
N1J Zn1 1_555 1_555
O1M C7M 1_555 1_555
O1J Zn1 1_555 1_555
C1A C2A 1_555 1_555
N2A N1A 1_555 1_555
H1A N2A 1_555 1_555
O3M C7M 1_555 1_555
C2A C4 1_555 1_555
C3A N2A 1_555 1_555
H2A C4 1_555 1_555
C5A C1A 1_555 1_555
H3A C5A 1_555 1_555
H4A C5A 1_555 1_555
H5A C5A 1_555 1_555
C6A C3A 1_555 1_555
H6A C6A 1_555 1_555
H7A C6A 1_555 1_555
H8A C6A 1_555 1_555
C7M C8M 1_555 1_555
C8M C9M 1_555 1_555
C9M C9 1_555 1_555
C10M C9M 1_555 1_555
H9M C10M 1_555 1_555
C11M C10M 1_555 1_555
H10M C11M 1_555 1_555
C12M C11M 1_555 1_555
H11M C12M 1_555 1_555
C13M C8M 1_555 1_555
H12M C13M 1_555 1_555
C12 C13 1_555 1_555
C2A C3A 1_555 1_555
C12M C13M 1_555 1_555

#END
