
#######################################################################
#
#                 Cambridge Crystallographic Data Centre
#                                CCDC 
#
#######################################################################
#
# If this CIF has been generated from an entry in the Cambridge 
# Structural Database, then it will include bibliographic, chemical, 
# crystal, experimental, refinement or atomic coordinate data resulting 
# from the CCDC's data processing and validation procedures.
#
#######################################################################

data_XAKVIP
_symmetry_cell_setting           orthorhombic
_symmetry_space_group_name_H-M   'P b c a'
_symmetry_Int_Tables_number      61
_space_group_name_Hall           '-P 2ac 2ab'
loop_
_symmetry_equiv_pos_site_id
_symmetry_equiv_pos_as_xyz
1 x,y,z
2 1/2-x,-y,1/2+z
3 1/2+x,1/2-y,-z
4 -x,1/2+y,1/2-z
5 -x,-y,-z
6 1/2+x,y,1/2-z
7 1/2-x,1/2+y,z
8 x,1/2-y,1/2+z
_cell_length_a                   13.0090(13)
_cell_length_b                   10.3870(8)
_cell_length_c                   22.102(3)
_cell_angle_alpha                90
_cell_angle_beta                 90
_cell_angle_gamma                90
_cell_volume                     2986.52
loop_
_atom_site_label
_atom_site_type_symbol
_atom_site_fract_x
_atom_site_fract_y
_atom_site_fract_z
Ce1 Ce -0.451590(18) 0.30309(2) 0.479210(10)
Ce2 Ce -0.538890(17) 0.71417(2) 0.254910(10)
O1 O -0.4567(3) 0.0821(3) 0.43662(14)
O2 O -0.5326(3) 0.1292(3) 0.54613(14)
O3 O -0.4709(2) 0.5304(3) 0.44214(13)
O4 O -0.5088(3) 0.6605(3) 0.36578(14)
O5 O -0.4772(2) 0.3273(3) 0.36381(14)
O6 O -0.4979(3) 0.4642(3) 0.28707(13)
O7 O -0.3760(2) 0.6306(3) 0.20456(14)
O8 O -0.7042(2) 0.6217(3) 0.29603(15)
O9 O -0.3715(2) 0.8083(3) 0.29095(15)
O10 O -0.7002(2) 0.8140(3) 0.21269(15)
O11 O -0.3233(3) 0.4310(3) 0.53721(17)
H1 H -0.3265 0.5261 0.5330
O12 O -0.3096(3) 0.1843(3) 0.53170(19)
O13 O -0.6402(3) 0.3173(3) 0.45600(17)
O14 O -0.2828(3) 0.3202(5) 0.41459(17)
H2 H -0.2203 0.2832 0.4253
H3 H -0.2974 0.3440 0.3735
O15 O -0.6003(3) 0.8787(3) 0.33042(15)
H4 H -0.6004 0.9677 0.3226
H5 H -0.5998 0.8715 0.3728
O16 O -0.6089(3) 0.5622(3) 0.17880(14)
H6 H -0.6077 0.5830 0.1371
H7 H -0.6037 0.4702 0.1819
C1 C -0.4782(4) -0.0148(4) 0.46819(18)
C2 C -0.4889(3) 0.5536(4) 0.38634(18)
C3 C -0.4882(3) 0.4388(4) 0.34237(18)
C4 C -0.2881(3) 0.6646(4) 0.22174(19)
C5 C -0.2860(3) 0.7725(4) 0.27030(19)
C6 C -0.2283(3) 0.3817(5) 0.5568(2)
H8 H -0.1751 0.4250 0.5375
H9 H -0.2209 0.4012 0.5962
C7 C -0.2261(3) 0.2400(4) 0.54278(19)
Ce1D Ce -0.548410(18) 0.69691(2) 0.520790(10)
Ce1D_2 Ce -0.548410(18) -0.30309(2) 0.520790(10)
Ce1B Ce 0.048410(18) 0.19691(2) 0.520790(10)
Ce1B_2 Ce -0.951590(18) 0.19691(2) 0.520790(10)
Ce2C Ce -0.461110(17) 0.21417(2) 0.245090(10)
Ce2G Ce -0.538890(17) 0.78583(2) 0.754910(10)
Ce2D Ce -0.461110(17) 0.28583(2) 0.745090(10)
Ce2E Ce -1.038890(17) 0.71417(2) 0.245090(10)
Ce2E_2 Ce -0.038890(17) 0.71417(2) 0.245090(10)
O1D O -0.5433(3) -0.0821(3) 0.56338(14)
O2D O -0.4674(3) -0.1292(3) 0.45387(14)
O3D O -0.5291(2) 0.4696(3) 0.55786(13)
O3_2 O -0.4709(2) -0.4696(3) 0.44214(13)
O3D_2 O -0.5291(2) -0.5304(3) 0.55786(13)
O4D O -0.4912(3) 0.3395(3) 0.63422(14)
O5D O -0.5228(2) 0.6727(3) 0.63619(14)
O5C O -0.5228(2) 0.8273(3) 0.13619(14)
O5D_2 O -0.5228(2) -0.3273(3) 0.63619(14)
O5G O -0.4772(2) 0.1727(3) 0.86381(14)
O6C O -0.5021(3) 0.9642(3) 0.21293(13)
O6D O -0.5021(3) 0.5358(3) 0.71293(13)
O6G O -0.4979(3) 0.0358(3) 0.78707(13)
O7E O -0.8760(2) 0.6306(3) 0.29544(14)
O7D O -0.6240(2) 0.3694(3) 0.79544(14)
O8E O -0.2042(2) 0.6217(3) 0.20397(15)
O8D O -0.2958(2) 0.3783(3) 0.70397(15)
O9E O -0.8715(2) 0.8083(3) 0.20905(15)
O9D O -0.6285(2) 0.1917(3) 0.70905(15)
O10E O -0.2002(2) 0.8140(3) 0.28731(15)
O10D O -0.2998(2) 0.1860(3) 0.78731(15)
O11B O -0.8233(3) 0.0690(3) 0.46279(17)
O11D O -0.6767(3) -0.4310(3) 0.46279(17)
H1B H -0.8265 -0.0261 0.4670
H1D H -0.6735 -0.5261 0.4670
O12B O -0.8096(3) 0.3157(3) 0.46830(19)
O12D O -0.6904(3) -0.1843(3) 0.46830(19)
O13B O -0.1402(3) 0.1827(3) 0.54400(17)
O13D O -0.3598(3) -0.3173(3) 0.54400(17)
O14D O -0.7172(3) -0.3202(5) 0.58541(17)
H2D H -0.7797 -0.2832 0.5747
H3D H -0.7026 -0.3440 0.6265
O15D O -0.3997(3) 0.1213(3) 0.66958(15)
H4D H -0.3996 0.0323 0.6774
H5D H -0.4002 0.1285 0.6272
O16D O -0.3911(3) 0.4378(3) 0.82120(14)
H6D H -0.3923 0.4170 0.8629
H7D H -0.3963 0.5298 0.8181
C1D C -0.5218(4) 0.0148(4) 0.53181(18)
C2D C -0.5111(3) 0.4464(4) 0.61366(18)
C3D C -0.5118(3) 0.5612(4) 0.65763(18)
C4E C -0.7881(3) 0.6646(4) 0.27826(19)
C5E C -0.7860(3) 0.7725(4) 0.22970(19)
C6B C -0.7283(3) 0.1183(5) 0.4432(2)
H8B H -0.6751 0.0750 0.4625
H9B H -0.7209 0.0988 0.4038
C7B C -0.7261(3) 0.2600(4) 0.45722(19)
loop_
_geom_bond_atom_site_label_1
_geom_bond_atom_site_label_2
_geom_bond_site_symmetry_1
_geom_bond_site_symmetry_2
Ce1 O1 1_555 1_555
Ce2 O4 1_555 1_555
O1 C1 1_555 1_555
O2 Ce1 1_555 1_555
O3 Ce1 1_555 1_555
O4 C2 1_555 1_555
O5 Ce1 1_555 1_555
O6 Ce2 1_555 1_555
O7 Ce2 1_555 1_555
O8 Ce2 1_555 1_555
O9 Ce2 1_555 1_555
O10 Ce2 1_555 1_555
O11 Ce1 1_555 1_555
H1 O11 1_555 1_555
O12 Ce1 1_555 1_555
O13 Ce1 1_555 1_555
O14 Ce1 1_555 1_555
H2 O14 1_555 1_555
H3 O14 1_555 1_555
O15 Ce2 1_555 1_555
H4 O15 1_555 1_555
H5 O15 1_555 1_555
O16 Ce2 1_555 1_555
H6 O16 1_555 1_555
H7 O16 1_555 1_555
C1 O2D 1_555 1_555
C2 O3 1_555 1_555
C3 O5 1_555 1_555
C4 O7 1_555 1_555
C5 O9 1_555 1_555
C6 O11 1_555 1_555
H8 C6 1_555 1_555
H9 C6 1_555 1_555
C7 O12 1_555 1_555
Ce1D O3 1_555 1_555
Ce1D_2 O1D 1_555 1_555
Ce1B O13B 1_555 1_555
Ce1B_2 O11B 1_555 1_555
Ce2C O5 1_555 1_555
Ce2G O5D 1_555 1_555
Ce2D O4D 1_555 1_555
Ce2E O7E 1_555 1_555
Ce2E_2 O8E 1_555 1_555
O1D C1D 1_555 1_555
O2D Ce1D_2 1_555 1_555
O3D Ce1 1_555 1_555
O3_2 Ce1D_2 1_555 1_555
O3D_2 Ce1D_2 1_555 1_555
O4D C2D 1_555 1_555
O5D Ce1D 1_555 1_555
O5C Ce2 1_555 1_555
O5D_2 Ce1D_2 1_555 1_555
O5G Ce2D 1_555 1_555
O6C Ce2 1_555 1_555
O6D Ce2G 1_555 1_555
O6G Ce2D 1_555 1_555
O7E C4E 1_555 1_555
O7D Ce2D 1_555 1_555
O8E C4 1_555 1_555
O8D Ce2D 1_555 1_555
O9E Ce2E 1_555 1_555
O9D Ce2D 1_555 1_555
O10E C5 1_555 1_555
O10D Ce2D 1_555 1_555
O11B H1B 1_555 1_555
O11D Ce1D_2 1_555 1_555
H1D O11D 1_555 1_555
O12B Ce1B_2 1_555 1_555
O12D Ce1D_2 1_555 1_555
O13B C7 1_555 1_555
O13D Ce1D_2 1_555 1_555
O14D Ce1D_2 1_555 1_555
H2D O14D 1_555 1_555
H3D O14D 1_555 1_555
O15D Ce2D 1_555 1_555
H4D O15D 1_555 1_555
H5D O15D 1_555 1_555
O16D Ce2D 1_555 1_555
H6D O16D 1_555 1_555
H7D O16D 1_555 1_555
C1D O2 1_555 1_555
C2D O3D 1_555 1_555
C3D O5D 1_555 1_555
C4E O8 1_555 1_555
C5E O10 1_555 1_555
C6B O11B 1_555 1_555
H8B C6B 1_555 1_555
H9B C6B 1_555 1_555
C7B O13 1_555 1_555
O6 C3 1_555 1_555
O6 Ce2C 1_555 1_555
C1 C1D 1_555 1_555
C2 C3 1_555 1_555
C4 C5 1_555 1_555
C6 C7 1_555 1_555
Ce1D O3D 1_555 1_555
Ce2D O6D 1_555 1_555
Ce2E_2 O10E 1_555 1_555
O6D C3D 1_555 1_555
O9E C5E 1_555 1_555
O12B C7B 1_555 1_555
C2D C3D 1_555 1_555
C4E C5E 1_555 1_555
C6B C7B 1_555 1_555

#END
