
#######################################################################
#
#                 Cambridge Crystallographic Data Centre
#                                CCDC 
#
#######################################################################
#
# If this CIF has been generated from an entry in the Cambridge 
# Structural Database, then it will include bibliographic, chemical, 
# crystal, experimental, refinement or atomic coordinate data resulting 
# from the CCDC's data processing and validation procedures.
#
#######################################################################

data_XAKVEK01
_symmetry_cell_setting           monoclinic
_symmetry_space_group_name_H-M   'P 21/c'
_symmetry_Int_Tables_number      14
_space_group_name_Hall           '-P 2ybc'
loop_
_symmetry_equiv_pos_site_id
_symmetry_equiv_pos_as_xyz
1 x,y,z
2 -x,1/2+y,1/2-z
3 -x,-y,-z
4 x,1/2-y,1/2+z
_cell_length_a                   15.127(2)
_cell_length_b                   12.537(2)
_cell_length_c                   11.115(2)
_cell_angle_alpha                90
_cell_angle_beta                 111.75(1)
_cell_angle_gamma                90
_cell_volume                     1957.86
loop_
_atom_site_label
_atom_site_type_symbol
_atom_site_fract_x
_atom_site_fract_y
_atom_site_fract_z
Sn1 Sn 0.27800(2) 0.69896(3) 0.73038(3)
Cl1 Cl 0.2424(2) 0.4229(2) 0.3590(3)
Cl2 Cl 0.0782(2) 0.5291(3) 0.3686(3)
O1 O 0.2701(3) 0.5955(3) 0.5645(3)
O2 O 0.2741(3) 0.7055(3) 0.4104(4)
C1 C 0.2488(4) 0.6227(4) 0.4489(5)
C2 C 0.1866(5) 0.5443(5) 0.3481(6)
C3 C 0.2788(4) 0.5575(4) 0.8347(5)
C4 C 0.2094(4) 0.4802(5) 0.7816(6)
C5 C 0.2097(5) 0.3874(5) 0.8494(7)
C6 C 0.2807(6) 0.3727(6) 0.9698(7)
C7 C 0.3476(6) 0.4468(6) 1.0227(7)
C8 C 0.3479(5) 0.5409(5) 0.9559(6)
C9 C 0.1435(4) 0.7626(4) 0.6140(5)
C10 C 0.0615(4) 0.7202(5) 0.6226(7)
C11 C -0.0252(5) 0.7592(7) 0.5440(8)
C12 C -0.0330(5) 0.8381(7) 0.4572(8)
C13 C 0.0469(6) 0.8816(6) 0.4494(7)
C14 C 0.1348(5) 0.8448(5) 0.5260(6)
C15 C 0.4106(4) 0.7705(4) 0.7549(5)
C16 C 0.4450(5) 0.8581(6) 0.8305(7)
C17 C 0.5326(6) 0.9016(6) 0.8453(9)
C18 C 0.5849(5) 0.8581(7) 0.7830(8)
C19 C 0.5524(5) 0.7707(7) 0.7059(8)
C20 C 0.4654(4) 0.7274(5) 0.6917(7)
H1 H 0.1745 0.5726 0.2632
H2 H 0.1608 0.4910 0.6976
H3 H 0.1614 0.3342 0.8134
H4 H 0.2818 0.3081 1.0168
H5 H 0.3962 0.4349 1.1064
H6 H 0.3959 0.5939 0.9943
H7 H 0.0657 0.6640 0.6832
H8 H -0.0817 0.7295 0.5507
H9 H -0.0947 0.8630 0.4018
H10 H 0.041 0.9387 0.3896
H11 H 0.1908 0.8754 0.5188
H12 H 0.4078 0.8901 0.8745
H13 H 0.5556 0.9629 0.8998
H14 H 0.6455 0.8885 0.7933
H15 H 0.5901 0.7402 0.6615
H16 H 0.4429 0.6659 0.6375
O2C O 0.2741(3) 0.7945(3) 0.9104(4)
Sn1C Sn 0.27800(2) 0.80104(3) 0.23038(3)
loop_
_geom_bond_atom_site_label_1
_geom_bond_atom_site_label_2
_geom_bond_site_symmetry_1
_geom_bond_site_symmetry_2
Sn1 O1 1_555 1_555
Cl1 C2 1_555 1_555
Cl2 C2 1_555 1_555
O1 C1 1_555 1_555
O2 C1 1_555 1_555
C1 C2 1_555 1_555
C2 H1 1_555 1_555
C3 Sn1 1_555 1_555
C4 C3 1_555 1_555
C5 C4 1_555 1_555
C6 C5 1_555 1_555
C7 C6 1_555 1_555
C8 C3 1_555 1_555
C9 Sn1 1_555 1_555
C10 C9 1_555 1_555
C11 C10 1_555 1_555
C12 C11 1_555 1_555
C13 C12 1_555 1_555
C14 C9 1_555 1_555
C15 Sn1 1_555 1_555
C16 C15 1_555 1_555
C17 C16 1_555 1_555
C18 C17 1_555 1_555
C19 C18 1_555 1_555
C20 C15 1_555 1_555
H2 C4 1_555 1_555
H3 C5 1_555 1_555
H4 C6 1_555 1_555
H5 C7 1_555 1_555
H6 C8 1_555 1_555
H7 C10 1_555 1_555
H8 C11 1_555 1_555
H9 C12 1_555 1_555
H10 C13 1_555 1_555
H11 C14 1_555 1_555
H12 C16 1_555 1_555
H13 C17 1_555 1_555
H14 C18 1_555 1_555
H15 C19 1_555 1_555
H16 C20 1_555 1_555
O2C Sn1 1_555 1_555
Sn1C O2 1_555 1_555
C7 C8 1_555 1_555
C13 C14 1_555 1_555
C19 C20 1_555 1_555

#END
