
#######################################################################
#
#                 Cambridge Crystallographic Data Centre
#                                CCDC 
#
#######################################################################
#
# If this CIF has been generated from an entry in the Cambridge 
# Structural Database, then it will include bibliographic, chemical, 
# crystal, experimental, refinement or atomic coordinate data resulting 
# from the CCDC's data processing and validation procedures.
#
#######################################################################

data_XAKVIO
_symmetry_cell_setting           monoclinic
_symmetry_space_group_name_H-M   'P 21/n'
_symmetry_Int_Tables_number      14
_space_group_name_Hall           '-P 2yn'
loop_
_symmetry_equiv_pos_site_id
_symmetry_equiv_pos_as_xyz
1 x,y,z
2 1/2-x,1/2+y,1/2-z
3 -x,-y,-z
4 1/2+x,1/2-y,1/2+z
_cell_length_a                   10.213(4)
_cell_length_b                   17.005(5)
_cell_length_c                   23.524(4)
_cell_angle_alpha                90
_cell_angle_beta                 92.34(2)
_cell_angle_gamma                90
_cell_volume                     4082.05
loop_
_atom_site_label
_atom_site_type_symbol
_atom_site_fract_x
_atom_site_fract_y
_atom_site_fract_z
Sn1 Sn 0.07250(5) 0.20850(3) 0.16950(2)
Sn2 Sn 0.36880(5) 0.46961(3) 0.16780(2)
O1 O 0.1019(5) 0.2840(3) 0.0952(2)
O2 O 0.2273(4) 0.3668(3) 0.1444(2)
O3 O 0.4487(5) 0.6269(3) 0.2531(2)
O4 O 0.5214(5) 0.5611(3) 0.1802(2)
C1 C 0.1685(7) 0.3447(5) 0.0988(3)
C2 C 0.1782(9) 0.3945(5) 0.0460(3)
C3 C 0.5373(7) 0.6082(4) 0.2201(3)
C4 C 0.6697(8) 0.6460(6) 0.2272(4)
C5 C 0.2735(7) 0.1721(4) 0.1718(4)
C6 C 0.3542(8) 0.1815(5) 0.2183(4)
C7 C 0.4832(9) 0.1581(7) 0.2172(4)
C8 C 0.5290(9) 0.1224(6) 0.1699(5)
C9 C 0.447(1) 0.1117(6) 0.1228(4)
C10 C 0.3153(8) 0.1359(5) 0.1244(4)
C11 C -0.0167(7) 0.3014(4) 0.2134(3)
C12 C 0.0223(8) 0.3282(6) 0.2666(4)
C13 C -0.042(1) 0.3922(6) 0.2909(4)
C14 C -0.146(1) 0.4252(6) 0.2639(6)
C15 C -0.1832(9) 0.4007(6) 0.2114(5)
C16 C -0.1190(8) 0.3411(6) 0.1863(4)
C17 C -0.0568(7) 0.1382(5) 0.1158(3)
C18 C -0.0930(9) 0.0621(5) 0.1312(4)
C19 C -0.173(1) 0.0166(5) 0.0956(5)
C20 C -0.221(1) 0.0465(7) 0.0448(5)
C21 C -0.1870(9) 0.1216(6) 0.0290(4)
C22 C -0.1031(8) 0.1663(5) 0.0644(4)
C23 C 0.2166(8) 0.5493(5) 0.1441(3)
C24 C 0.2436(9) 0.6206(6) 0.1193(4)
C25 C 0.140(1) 0.6714(7) 0.1004(5)
C26 C 0.016(1) 0.6492(8) 0.1073(5)
C27 C -0.012(1) 0.5808(8) 0.1318(5)
C28 C 0.0862(9) 0.5312(5) 0.1496(4)
C29 C 0.4987(7) 0.4168(5) 0.1098(3)
C30 C 0.5748(9) 0.4623(5) 0.0751(4)
C31 C 0.662(1) 0.4277(6) 0.0386(4)
C32 C 0.6756(9) 0.3466(6) 0.0402(4)
C33 C 0.6068(9) 0.3007(5) 0.0749(4)
C34 C 0.5167(7) 0.3369(5) 0.1095(3)
C35 C 0.3834(7) 0.4291(5) 0.2523(3)
C36 C 0.4812(8) 0.3773(5) 0.2696(4)
C37 C 0.498(1) 0.3506(7) 0.3266(4)
C38 C 0.414(1) 0.3808(7) 0.3648(5)
C39 C 0.316(1) 0.4312(6) 0.3490(4)
C40 C 0.3025(8) 0.4554(5) 0.2937(4)
H1 H 0.2309 0.4407 0.0548
H2 H 0.2188 0.3641 0.0166
H3 H 0.0911 0.4106 0.0327
H4 H 0.6895 0.6739 0.1926
H5 H 0.6698 0.6826 0.2588
H6 H 0.7355 0.6057 0.2348
H7 H 0.3213 0.2047 0.2525
H8 H 0.5417 0.1669 0.2501
H9 H 0.6193 0.1048 0.1696
H10 H 0.4797 0.0876 0.0888
H11 H 0.2552 0.1268 0.0921
H12 H 0.0946 0.3028 0.2874
H13 H -0.0114 0.4124 0.3276
H14 H -0.1934 0.4668 0.2821
H15 H -0.2567 0.4259 0.1914
H16 H -0.1460 0.3259 0.1479
H17 H -0.0613 0.0408 0.1674
H18 H -0.1956 -0.0366 0.1066
H19 H -0.2785 0.0150 0.0201
H20 H -0.2213 0.1433 -0.0067
H21 H -0.0771 0.2183 0.0523
H22 H 0.3339 0.6363 0.1147
H23 H 0.1592 0.7214 0.0827
H24 H -0.0550 0.6835 0.0943
H25 H -0.1026 0.5662 0.1369
H26 H 0.0635 0.4814 0.1668
H27 H 0.5671 0.5192 0.0762
H28 H 0.7121 0.4594 0.0129
H29 H 0.7370 0.3218 0.0154
H30 H 0.6195 0.2442 0.0759
H31 H 0.4652 0.3045 0.1341
H32 H 0.5410 0.3583 0.2416
H33 H 0.5652 0.3128 0.3379
H34 H 0.4245 0.3657 0.4045
H35 H 0.2554 0.4500 0.3769
H36 H 0.2335 0.4926 0.2832
O3A O 0.0513(5) 0.1269(3) 0.2469(2)
Sn1A Sn 0.42750(5) 0.70850(3) 0.33050(2)
Cl1 Cl 0.9840(4) 0.3582(3) 0.4570(2)
Cl2 Cl 0.7211(4) 0.3139(2) 0.4665(2)
Cl3 Cl 0.8945(4) 0.2030(3) 0.4234(2)
C41 C 0.874(1) 0.2776(8) 0.4694(5)
H37 H 0.8931 0.2581 0.5076
loop_
_geom_bond_atom_site_label_1
_geom_bond_atom_site_label_2
_geom_bond_site_symmetry_1
_geom_bond_site_symmetry_2
Sn1 O1 1_555 1_555
Sn2 O2 1_555 1_555
O1 C1 1_555 1_555
O2 C1 1_555 1_555
O3 C3 1_555 1_555
O4 Sn2 1_555 1_555
C1 C2 1_555 1_555
C2 H1 1_555 1_555
C3 O4 1_555 1_555
C4 C3 1_555 1_555
C5 Sn1 1_555 1_555
C6 C5 1_555 1_555
C7 C6 1_555 1_555
C8 C7 1_555 1_555
C9 C8 1_555 1_555
C10 C5 1_555 1_555
C11 Sn1 1_555 1_555
C12 C11 1_555 1_555
C13 C12 1_555 1_555
C14 C13 1_555 1_555
C15 C14 1_555 1_555
C16 C11 1_555 1_555
C17 Sn1 1_555 1_555
C18 C17 1_555 1_555
C19 C18 1_555 1_555
C20 C19 1_555 1_555
C21 C20 1_555 1_555
C22 C17 1_555 1_555
C23 Sn2 1_555 1_555
C24 C23 1_555 1_555
C25 C24 1_555 1_555
C26 C25 1_555 1_555
C27 C26 1_555 1_555
C28 C23 1_555 1_555
C29 Sn2 1_555 1_555
C30 C29 1_555 1_555
C31 C30 1_555 1_555
C32 C31 1_555 1_555
C33 C32 1_555 1_555
C34 C29 1_555 1_555
C35 Sn2 1_555 1_555
C36 C35 1_555 1_555
C37 C36 1_555 1_555
C38 C37 1_555 1_555
C39 C38 1_555 1_555
C40 C35 1_555 1_555
H2 C2 1_555 1_555
H3 C2 1_555 1_555
H4 C4 1_555 1_555
H5 C4 1_555 1_555
H6 C4 1_555 1_555
H7 C6 1_555 1_555
H8 C7 1_555 1_555
H9 C8 1_555 1_555
H10 C9 1_555 1_555
H11 C10 1_555 1_555
H12 C12 1_555 1_555
H13 C13 1_555 1_555
H14 C14 1_555 1_555
H15 C15 1_555 1_555
H16 C16 1_555 1_555
H17 C18 1_555 1_555
H18 C19 1_555 1_555
H19 C20 1_555 1_555
H20 C21 1_555 1_555
H21 C22 1_555 1_555
H22 C24 1_555 1_555
H23 C25 1_555 1_555
H24 C26 1_555 1_555
H25 C27 1_555 1_555
H26 C28 1_555 1_555
H27 C30 1_555 1_555
H28 C31 1_555 1_555
H29 C32 1_555 1_555
H30 C33 1_555 1_555
H31 C34 1_555 1_555
H32 C36 1_555 1_555
H33 C37 1_555 1_555
H34 C38 1_555 1_555
H35 C39 1_555 1_555
H36 C40 1_555 1_555
Cl1 C41 1_555 1_555
Cl2 C41 1_555 1_555
Cl3 C41 1_555 1_555
C41 H37 1_555 1_555
O3A Sn1 1_555 1_555
Sn1A O3 1_555 1_555
C9 C10 1_555 1_555
C15 C16 1_555 1_555
C21 C22 1_555 1_555
C27 C28 1_555 1_555
C33 C34 1_555 1_555
C39 C40 1_555 1_555

#END
