
#######################################################################
#
#                 Cambridge Crystallographic Data Centre
#                                CCDC 
#
#######################################################################
#
# If this CIF has been generated from an entry in the Cambridge 
# Structural Database, then it will include bibliographic, chemical, 
# crystal, experimental, refinement or atomic coordinate data resulting 
# from the CCDC's data processing and validation procedures.
#
#######################################################################

data_XAKXIR
_symmetry_cell_setting           monoclinic
_symmetry_space_group_name_H-M   'P 21/n'
_symmetry_Int_Tables_number      14
_space_group_name_Hall           '-P 2yn'
loop_
_symmetry_equiv_pos_site_id
_symmetry_equiv_pos_as_xyz
1 x,y,z
2 1/2-x,1/2+y,1/2-z
3 -x,-y,-z
4 1/2+x,1/2-y,1/2+z
_cell_length_a                   16.8929(8)
_cell_length_b                   10.6035(5)
_cell_length_c                   35.0032(17)
_cell_angle_alpha                90
_cell_angle_beta                 93.6140(10)
_cell_angle_gamma                90
_cell_volume                     6257.44
loop_
_atom_site_label
_atom_site_type_symbol
_atom_site_fract_x
_atom_site_fract_y
_atom_site_fract_z
Cu1 Cu 0.67840(2) -0.15919(4) 0.227105(12)
Cu2 Cu 0.83116(2) 0.00499(4) 0.250263(12)
Cu3 Cu 0.42013(3) 0.27476(5) 0.451031(14)
V1 V 0.55575(3) 0.19649(5) 0.322075(16)
V2 V 0.17745(3) 0.10379(6) 0.414529(17)
V3 V 0.40649(3) 0.38370(5) 0.363802(16)
V4 V 0.33409(3) 0.01500(5) 0.373273(17)
P1 P 0.79976(5) -0.10422(8) 0.16800(2)
P2 P 0.25668(5) 0.37441(8) 0.41625(2)
P3 P 0.37511(5) 0.16358(8) 0.29991(2)
P4 P 0.66642(5) 0.16851(8) 0.24403(2)
O1 O 0.18894(15) 0.2776(2) 0.40860(7)
O2 O 0.31209(14) 0.3335(2) 0.44949(7)
O3 O 0.29708(14) 0.3984(2) 0.37914(7)
O4 O 0.35458(14) 0.2799(2) 0.32263(7)
O5 O 0.35405(15) 0.0421(2) 0.32165(7)
O6 O 0.46056(14) 0.1559(2) 0.28860(7)
O7 O 0.60685(14) 0.1569(2) 0.27452(7)
O8 O 0.71851(13) 0.0503(2) 0.24307(7)
O9 O 0.71511(14) -0.1337(2) 0.17762(7)
O10 O 0.84374(14) -0.0159(2) 0.19618(7)
O11 O 0.71668(13) 0.2894(2) 0.24816(7)
O12 O 0.50124(14) 0.3037(2) 0.34469(7)
O13 O 0.44457(14) 0.3841(2) 0.40914(7)
O14 O 0.38107(15) 0.1186(2) 0.40122(7)
O15 O 0.36485(15) -0.1255(2) 0.38551(7)
O16 O 0.22857(15) 0.0258(2) 0.37770(7)
O17 O 0.08256(15) 0.0747(3) 0.40976(7)
O18 O 0.21156(16) 0.0575(2) 0.45683(7)
O19 O 0.41986(15) 0.5235(2) 0.34816(7)
O20 O 0.56078(15) 0.0738(2) 0.34821(7)
O21 O 0.84504(14) -0.2281(2) 0.16246(7)
O22 O 0.4381(6) 0.5020(8) 0.4840(2)
N1 N 0.53234(18) 0.2245(3) 0.46144(9)
N2 N 0.40849(19) 0.1852(3) 0.49984(9)
N3 N 0.94828(17) -0.0019(3) 0.26264(8)
N4 N 0.83256(17) 0.0279(3) 0.30719(8)
N5 N 0.56602(17) -0.1586(3) 0.20447(8)
N6 N 0.62310(17) -0.1913(3) 0.27422(8)
C1 C 0.5913(2) 0.2474(4) 0.43881(11)
H1 H 0.5793 0.2818 0.4141
C2 C 0.6696(2) 0.2227(4) 0.45039(12)
H2 H 0.7108 0.2392 0.4338
C3 C 0.6870(2) 0.1732(4) 0.48663(12)
H3 H 0.7404 0.1575 0.4954
C4 C 0.6260(2) 0.1470(4) 0.50978(11)
H4 H 0.6367 0.1114 0.5345
C5 C 0.5486(2) 0.1735(3) 0.49645(11)
C6 C 0.4778(2) 0.1479(4) 0.51823(10)
C7 C 0.4796(3) 0.0888(4) 0.55348(11)
H5 H 0.5284 0.0617 0.5657
C8 C 0.4087(3) 0.0700(4) 0.57066(11)
H6 H 0.4085 0.0310 0.5951
C9 C 0.3385(2) 0.1084(4) 0.55188(10)
H7 H 0.2894 0.0961 0.5632
C10 C 0.3404(2) 0.1649(3) 0.51636(10)
H8 H 0.2920 0.1901 0.5033
C11 C 1.0039(2) -0.0108(3) 0.23701(10)
H9 H 0.9877 -0.0151 0.2106
C12 C 1.0842(2) -0.0139(3) 0.24793(11)
H10 H 1.1225 -0.0183 0.2293
C13 C 1.1076(2) -0.0105(3) 0.28672(11)
H11 H 1.1622 -0.0143 0.2950
C14 C 1.0502(2) -0.0016(3) 0.31324(10)
H12 H 1.0648 0.0008 0.3399
C15 C 0.9711(2) 0.0037(3) 0.30017(10)
C16 C 0.9051(2) 0.0174(3) 0.32574(10)
C17 C 0.9145(2) 0.0207(4) 0.36537(10)
H13 H 0.9658 0.0125 0.3780
C18 C 0.8484(2) 0.0361(4) 0.38635(11)
H14 H 0.8534 0.0375 0.4135
C19 C 0.7748(2) 0.0495(4) 0.36697(10)
H15 H 0.7287 0.0623 0.3807
C20 C 0.7692(2) 0.0441(3) 0.32758(10)
H16 H 0.7185 0.0521 0.3145
C21 C 0.7951(2) -0.0334(3) 0.12124(10)
C22 C 0.8635(2) 0.0168(3) 0.10672(10)
H17 H 0.9111 0.0217 0.1226
C23 C 0.8623(3) 0.0595(4) 0.06950(11)
H18 H 0.9086 0.0957 0.0601
C24 C 0.7932(3) 0.0497(4) 0.04561(11)
H19 H 0.7932 0.0756 0.0196
C25 C 0.7251(3) 0.0022(4) 0.05990(12)
H20 H 0.6774 -0.0010 0.0440
C26 C 0.7259(2) -0.0408(4) 0.09721(11)
H21 H 0.6791 -0.0756 0.1066
C27 C 0.6076(2) 0.1759(3) 0.19931(9)
C28 C 0.6436(2) 0.1711(3) 0.16436(10)
H22 H 0.6995 0.1617 0.1641
C29 C 0.5978(2) 0.1801(3) 0.13007(11)
H23 H 0.6224 0.1783 0.1064
C30 C 0.5159(2) 0.1919(4) 0.13033(11)
H24 H 0.4847 0.1988 0.1069
C31 C 0.4798(2) 0.1935(4) 0.16450(11)
H25 H 0.4236 0.1993 0.1645
C32 C 0.5253(2) 0.1868(3) 0.19907(10)
H26 H 0.5002 0.1897 0.2226
C33 C 0.31452(19) 0.1688(3) 0.25625(9)
C34 C 0.3204(2) 0.0754(3) 0.22847(11)
H27 H 0.3551 0.0059 0.2333
C35 C 0.2760(2) 0.0836(4) 0.19402(11)
H28 H 0.2788 0.0182 0.1756
C36 C 0.2273(2) 0.1871(4) 0.18627(11)
H29 H 0.1976 0.1937 0.1624
C37 C 0.2224(2) 0.2806(3) 0.21364(11)
H30 H 0.1896 0.3520 0.2083
C38 C 0.2076(2) 0.5163(3) 0.42936(10)
C39 C 0.2308(2) 0.6317(4) 0.41543(13)
H31 H 0.2720 0.6355 0.3982
C40 C 0.1942(3) 0.7426(4) 0.42654(14)
H32 H 0.2105 0.8214 0.4168
C41 C 0.1348(2) 0.7383(4) 0.45136(12)
H33 H 0.1097 0.8139 0.4587
C42 C 0.1114(3) 0.6241(4) 0.46579(13)
H34 H 0.0710 0.6215 0.4835
C43 C 0.1467(3) 0.5129(4) 0.45457(13)
H35 H 0.1294 0.4343 0.4641
C44 C 0.6580(2) -0.2023(3) 0.30941(10)
H36 H 0.7143 -0.1990 0.3124
C45 C 0.6158(2) -0.2182(3) 0.34160(10)
H37 H 0.6425 -0.2263 0.3662
C46 C 0.5338(2) -0.2223(4) 0.33728(11)
H38 H 0.5032 -0.2324 0.3589
C47 C 0.4972(2) -0.2113(4) 0.30101(11)
H39 H 0.4410 -0.2139 0.2975
C48 C 0.5431(2) -0.1963(3) 0.26969(10)
C49 C 0.5109(2) -0.1837(3) 0.22977(10)
C50 C 0.4319(2) -0.2005(3) 0.21759(11)
H40 H 0.3939 -0.2207 0.2355
C51 C 0.4086(2) -0.1878(3) 0.17917(11)
H41 H 0.3546 -0.1985 0.1705
C52 C 0.4652(2) -0.1592(3) 0.15355(11)
H42 H 0.4507 -0.1491 0.1271
C53 C 0.5437(2) -0.1455(4) 0.16742(11)
H43 H 0.5828 -0.1262 0.1499
C54 C 0.2645(2) 0.2713(3) 0.24855(10)
H44 H 0.2595 0.3349 0.2674
Cu1A Cu 0.82160(2) 0.34081(4) 0.272895(12)
Cu2A Cu 0.66884(2) 0.50499(4) 0.249737(12)
V1A V 0.94425(3) -0.30351(5) 0.177925(16)
O11A O 0.78332(13) -0.2106(2) 0.25184(7)
O21A O 0.65496(14) 0.2719(2) 0.33754(7)
O23 O 0.1210(3) 0.0324(5) 0.51992(11)
O24 O 0.4435(3) 0.6619(4) 0.42255(13)
O25 O 0.9886(3) 0.1581(6) 0.47130(16)
O26 O 0.0758(8) 0.2986(14) 0.5213(4)
O27 O 0.9682(9) 0.4614(14) 0.4391(4)
loop_
_geom_bond_atom_site_label_1
_geom_bond_atom_site_label_2
_geom_bond_site_symmetry_1
_geom_bond_site_symmetry_2
Cu1 Cu2 1_555 1_555
Cu2 O8 1_555 1_555
Cu3 O2 1_555 1_555
V1 O6 1_555 1_555
V2 O1 1_555 1_555
V3 O3 1_555 1_555
V4 O5 1_555 1_555
P1 O9 1_555 1_555
P2 O1 1_555 1_555
P3 O4 1_555 1_555
P4 O7 1_555 1_555
O2 P2 1_555 1_555
O3 P2 1_555 1_555
O4 V3 1_555 1_555
O5 P3 1_555 1_555
O6 P3 1_555 1_555
O7 V1 1_555 1_555
O8 Cu1 1_555 1_555
O9 Cu1 1_555 1_555
O10 Cu2 1_555 1_555
O11 P4 1_555 1_555
O12 V1 1_555 1_555
O13 Cu3 1_555 1_555
O14 Cu3 1_555 1_555
O15 V4 1_555 1_555
O16 V2 1_555 1_555
O17 V2 1_555 1_555
O18 V2 1_555 1_555
O19 V3 1_555 1_555
O20 V1 1_555 1_555
O21 P1 1_555 1_555
O22 Cu3 1_555 1_555
N1 Cu3 1_555 1_555
N2 Cu3 1_555 1_555
N3 Cu2 1_555 1_555
N4 Cu2 1_555 1_555
N5 Cu1 1_555 1_555
N6 Cu1 1_555 1_555
C1 N1 1_555 1_555
H1 C1 1_555 1_555
C2 C1 1_555 1_555
H2 C2 1_555 1_555
C3 C2 1_555 1_555
H3 C3 1_555 1_555
C4 C3 1_555 1_555
H4 C4 1_555 1_555
C5 N1 1_555 1_555
C6 N2 1_555 1_555
C7 C6 1_555 1_555
H5 C7 1_555 1_555
C8 C7 1_555 1_555
H6 C8 1_555 1_555
C9 C8 1_555 1_555
H7 C9 1_555 1_555
C10 N2 1_555 1_555
H8 C10 1_555 1_555
C11 N3 1_555 1_555
H9 C11 1_555 1_555
C12 C11 1_555 1_555
H10 C12 1_555 1_555
C13 C12 1_555 1_555
H11 C13 1_555 1_555
C14 C13 1_555 1_555
H12 C14 1_555 1_555
C15 N3 1_555 1_555
C16 N4 1_555 1_555
C17 C16 1_555 1_555
H13 C17 1_555 1_555
C18 C17 1_555 1_555
H14 C18 1_555 1_555
C19 C18 1_555 1_555
H15 C19 1_555 1_555
C20 N4 1_555 1_555
H16 C20 1_555 1_555
C21 P1 1_555 1_555
C22 C21 1_555 1_555
H17 C22 1_555 1_555
C23 C22 1_555 1_555
H18 C23 1_555 1_555
C24 C23 1_555 1_555
H19 C24 1_555 1_555
C25 C24 1_555 1_555
H20 C25 1_555 1_555
C26 C21 1_555 1_555
H21 C26 1_555 1_555
C27 P4 1_555 1_555
C28 C27 1_555 1_555
H22 C28 1_555 1_555
C29 C28 1_555 1_555
H23 C29 1_555 1_555
C30 C29 1_555 1_555
H24 C30 1_555 1_555
C31 C30 1_555 1_555
H25 C31 1_555 1_555
C32 C27 1_555 1_555
H26 C32 1_555 1_555
C33 P3 1_555 1_555
C34 C33 1_555 1_555
H27 C34 1_555 1_555
C35 C34 1_555 1_555
H28 C35 1_555 1_555
C36 C35 1_555 1_555
H29 C36 1_555 1_555
C37 C36 1_555 1_555
H30 C37 1_555 1_555
C38 P2 1_555 1_555
C39 C38 1_555 1_555
H31 C39 1_555 1_555
C40 C39 1_555 1_555
H32 C40 1_555 1_555
C41 C40 1_555 1_555
H33 C41 1_555 1_555
C42 C41 1_555 1_555
H34 C42 1_555 1_555
C43 C38 1_555 1_555
H35 C43 1_555 1_555
C44 N6 1_555 1_555
H36 C44 1_555 1_555
C45 C44 1_555 1_555
H37 C45 1_555 1_555
C46 C45 1_555 1_555
H38 C46 1_555 1_555
C47 C46 1_555 1_555
H39 C47 1_555 1_555
C48 N6 1_555 1_555
C49 N5 1_555 1_555
C50 C49 1_555 1_555
H40 C50 1_555 1_555
C51 C50 1_555 1_555
H41 C51 1_555 1_555
C52 C51 1_555 1_555
H42 C52 1_555 1_555
C53 N5 1_555 1_555
H43 C53 1_555 1_555
C54 C33 1_555 1_555
H44 C54 1_555 1_555
Cu1A O11 1_555 1_555
Cu2A O11 1_555 1_555
V1A O21 1_555 1_555
O11A Cu1 1_555 1_555
O21A V1 1_555 1_555
Cu2 O11A 1_555 1_555
V3 O12 1_555 1_555
V3 O13 1_555 1_555
V4 O14 1_555 1_555
V4 O16 1_555 1_555
P1 O10 1_555 1_555
P4 O8 1_555 1_555
C4 C5 1_555 1_555
C5 C6 1_555 1_555
C9 C10 1_555 1_555
C14 C15 1_555 1_555
C15 C16 1_555 1_555
C19 C20 1_555 1_555
C25 C26 1_555 1_555
C31 C32 1_555 1_555
C37 C54 1_555 1_555
C42 C43 1_555 1_555
C47 C48 1_555 1_555
C48 C49 1_555 1_555
C52 C53 1_555 1_555
Cu1A Cu2A 1_555 1_555

#END
