
#######################################################################
#
#                 Cambridge Crystallographic Data Centre
#                                CCDC 
#
#######################################################################
#
# If this CIF has been generated from an entry in the Cambridge 
# Structural Database, then it will include bibliographic, chemical, 
# crystal, experimental, refinement or atomic coordinate data resulting 
# from the CCDC's data processing and validation procedures.
#
#######################################################################

data_XAKXEN
_symmetry_cell_setting           monoclinic
_symmetry_space_group_name_H-M   'P 21/c'
_symmetry_Int_Tables_number      14
_space_group_name_Hall           '-P 2ybc'
loop_
_symmetry_equiv_pos_site_id
_symmetry_equiv_pos_as_xyz
1 x,y,z
2 -x,1/2+y,1/2-z
3 -x,-y,-z
4 x,1/2-y,1/2+z
_cell_length_a                   7.1891(6)
_cell_length_b                   22.1262(19)
_cell_length_c                   14.8335(13)
_cell_angle_alpha                90
_cell_angle_beta                 97.597(2)
_cell_angle_gamma                90
_cell_volume                     2338.82
loop_
_atom_site_label
_atom_site_type_symbol
_atom_site_fract_x
_atom_site_fract_y
_atom_site_fract_z
Cu1 Cu 0.50067(5) 0.544119(15) 0.75486(2)
V1 V 0.01447(6) 0.58365(2) 0.76863(3)
P1 P 0.72008(10) 0.64279(3) 0.87908(5)
P2 P 0.30169(10) 0.66319(3) 0.67240(5)
O1 O 0.6903(3) 0.69995(9) 0.82198(14)
O2 O 0.5665(3) 0.59633(9) 0.85997(13)
O3 O 0.4268(3) 0.60857(9) 0.67027(13)
O4 O 0.3905(3) 0.71596(9) 0.72775(14)
O5 O 0.1117(3) 0.64558(10) 0.70554(14)
O6 O 0.1796(3) 0.53511(10) 0.80066(15)
O7 O 0.9163(3) 0.61549(10) 0.86815(13)
O8 O -0.1539(3) 0.55001(11) 0.70425(15)
N1 N 0.6111(3) 0.47140(11) 0.81989(16)
N2 N 0.4375(3) 0.48268(11) 0.65665(15)
C1 C 0.6946(4) 0.47029(14) 0.9061(2)
H1 H 0.6869 0.5050 0.9431
C2 C 0.7917(4) 0.42025(15) 0.9431(2)
H2 H 0.8497 0.4205 1.0044
C3 C 0.8028(4) 0.37008(14) 0.8891(2)
H3 H 0.8730 0.3358 0.9123
C4 C 0.7112(4) 0.36984(14) 0.8012(2)
H4 H 0.7129 0.3349 0.7640
C5 C 0.6171(4) 0.42148(13) 0.76828(19)
C6 C 0.5106(4) 0.42729(13) 0.67578(19)
C7 C 0.4828(4) 0.38019(14) 0.6134(2)
H5 H 0.5337 0.3413 0.6281
C8 C 0.3788(4) 0.39122(15) 0.5290(2)
H6 H 0.3594 0.3599 0.4849
C9 C 0.3043(4) 0.44792(15) 0.5099(2)
H7 H 0.2325 0.4562 0.4528
C10 C 0.3362(4) 0.49252(14) 0.57562(19)
H8 H 0.2843 0.5315 0.5627
C11 C 0.2366(4) 0.68829(12) 0.55759(18)
C12 C 0.1096(4) 0.65471(14) 0.49815(19)
H9 H 0.0579 0.6185 0.5187
C13 C 0.0584(4) 0.67387(14) 0.40926(19)
H10 H -0.0263 0.6504 0.3689
C14 C 0.1315(4) 0.72755(14) 0.37924(19)
H11 H 0.0928 0.7415 0.3191
C15 C 0.2609(4) 0.76046(13) 0.43735(18)
H12 H 0.3139 0.7963 0.4164
C16 C 0.3128(4) 0.74098(13) 0.52630(18)
H13 H 0.4009 0.7638 0.5660
C17 C 0.7403(4) 0.66302(13) 0.99691(18)
C18 C 0.7303(4) 0.61910(14) 1.06337(19)
H14 H 0.7071 0.5782 1.0459
C19 C 0.7540(4) 0.63465(15) 1.15518(19)
H15 H 0.7499 0.6043 1.2002
C20 C 0.7838(4) 0.69481(15) 1.1809(2)
H16 H 0.7952 0.7057 1.2433
C21 C 0.7969(4) 0.73891(14) 1.1151(2)
H17 H 0.8197 0.7798 1.1327
C22 C 0.7766(4) 0.72295(13) 1.0236(2)
H18 H 0.7876 0.7530 0.9789
V1_2 V 1.01447(6) 0.58365(2) 0.76863(3)
O7_2 O -0.0837(3) 0.61549(10) 0.86815(13)
loop_
_geom_bond_atom_site_label_1
_geom_bond_atom_site_label_2
_geom_bond_site_symmetry_1
_geom_bond_site_symmetry_2
Cu1 O2 1_555 1_555
V1 O5 1_555 1_555
P1 O1 1_555 1_555
P2 O3 1_555 1_555
O2 P1 1_555 1_555
O3 Cu1 1_555 1_555
O4 P2 1_555 1_555
O5 P2 1_555 1_555
O6 Cu1 1_555 1_555
O7 P1 1_555 1_555
O8 V1 1_555 1_555
N1 Cu1 1_555 1_555
N2 Cu1 1_555 1_555
C1 N1 1_555 1_555
H1 C1 1_555 1_555
C2 C1 1_555 1_555
H2 C2 1_555 1_555
C3 C2 1_555 1_555
H3 C3 1_555 1_555
C4 C3 1_555 1_555
H4 C4 1_555 1_555
C5 N1 1_555 1_555
C6 N2 1_555 1_555
C7 C6 1_555 1_555
H5 C7 1_555 1_555
C8 C7 1_555 1_555
H6 C8 1_555 1_555
C9 C8 1_555 1_555
H7 C9 1_555 1_555
C10 N2 1_555 1_555
H8 C10 1_555 1_555
C11 P2 1_555 1_555
C12 C11 1_555 1_555
H9 C12 1_555 1_555
C13 C12 1_555 1_555
H10 C13 1_555 1_555
C14 C13 1_555 1_555
H11 C14 1_555 1_555
C15 C14 1_555 1_555
H12 C15 1_555 1_555
C16 C11 1_555 1_555
H13 C16 1_555 1_555
C17 P1 1_555 1_555
C18 C17 1_555 1_555
H14 C18 1_555 1_555
C19 C18 1_555 1_555
H15 C19 1_555 1_555
C20 C19 1_555 1_555
H16 C20 1_555 1_555
C21 C20 1_555 1_555
H17 C21 1_555 1_555
C22 C17 1_555 1_555
H18 C22 1_555 1_555
V1_2 O7 1_555 1_555
O7_2 V1 1_555 1_555
V1 O6 1_555 1_555
C4 C5 1_555 1_555
C5 C6 1_555 1_555
C9 C10 1_555 1_555
C15 C16 1_555 1_555
C21 C22 1_555 1_555

#END
