
#######################################################################
#
#                 Cambridge Crystallographic Data Centre
#                                CCDC 
#
#######################################################################
#
# If this CIF has been generated from an entry in the Cambridge 
# Structural Database, then it will include bibliographic, chemical, 
# crystal, experimental, refinement or atomic coordinate data resulting 
# from the CCDC's data processing and validation procedures.
#
#######################################################################

data_XAKXAJ
_symmetry_cell_setting           triclinic
_symmetry_space_group_name_H-M   'P -1'
_symmetry_Int_Tables_number      2
_space_group_name_Hall           '-P 1'
loop_
_symmetry_equiv_pos_site_id
_symmetry_equiv_pos_as_xyz
1 x,y,z
2 -x,-y,-z
_cell_length_a                   7.0216(3)
_cell_length_b                   7.1384(3)
_cell_length_c                   9.16460(10)
_cell_angle_alpha                103.359(2)
_cell_angle_beta                 108.951(2)
_cell_angle_gamma                104.152(2)
_cell_volume                     396.401
loop_
_atom_site_label
_atom_site_type_symbol
_atom_site_fract_x
_atom_site_fract_y
_atom_site_fract_z
La1 La -0.65508(6) 0.14762(6) 0.14264(5)
O1 O -0.4791(9) 0.2567(8) 0.4457(7)
O2 O -0.3481(8) 0.4121(9) 0.1445(7)
O3 O -0.7611(8) 0.3500(8) -0.0401(6)
O4 O -0.0263(8) 0.0915(8) 0.1438(6)
O5 O -0.7831(12) -0.2025(10) 0.1732(9)
O6 O -0.3417(8) 0.0224(8) 0.1542(6)
O7 O -0.6346(9) 0.5090(8) 0.3077(6)
C1 C -0.1393(12) 0.1050(12) 0.2273(9)
C2 C -0.4548(12) 0.4288(13) 0.5397(9)
C3 C -0.0322(13) 0.2209(13) 0.4095(10)
C4 C 0.0378(41) 0.0882(21) 0.5057(14)
C5 C -0.3798(12) 0.5171(12) 0.0544(9)
H1 H -0.717(15) -0.292(16) 0.209(11)
H2 H -0.896(17) -0.257(16) 0.150(12)
La1A La -0.34492(6) 0.85238(6) 0.85736(5)
La1A_2 La -0.34492(6) 0.85238(6) -0.14264(5)
La1A_3 La -0.34492(6) -0.14762(6) -0.14264(5)
La1_2 La 0.34492(6) 0.14762(6) 0.14264(5)
La1A_4 La -0.34492(6) -0.14762(6) 0.85736(5)
La1_3 La 0.34492(6) 0.14762(6) 1.14264(5)
La1A_5 La 0.65508(6) -0.14762(6) 0.85736(5)
O1A O -0.5209(9) 0.7433(8) 0.5543(7)
O2A O -0.6519(8) 0.5879(9) -0.1445(7)
O2A_2 O -0.6519(8) 0.5879(9) 0.8555(7)
O3A O -0.2389(8) 0.6500(8) 0.0401(6)
O3A_2 O -0.2389(8) 0.6500(8) 1.0401(6)
O4A O -0.9737(8) -0.0915(8) -0.1438(6)
O4_2 O -1.0263(8) 0.0915(8) 0.1438(6)
O4A_2 O 0.0263(8) -0.0915(8) 0.8562(6)
O4A_3 O 0.0263(8) 0.9085(8) 0.8562(6)
O4_3 O -0.0263(8) 1.0915(8) 1.1438(6)
O5A O -0.2169(12) 1.2025(10) 0.8268(9)
O6A O -0.6583(8) -0.0224(8) -0.1542(6)
O6A_2 O 0.3417(8) -0.0224(8) 0.8458(6)
O6_2 O -0.3417(8) 1.0224(8) 1.1542(6)
O6A_3 O -0.6583(8) 0.9776(8) 0.8458(6)
O7A O -0.3654(9) 0.4910(8) 0.6923(6)
C1A C 0.1393(12) -0.1050(12) 0.7727(9)
C2A C -0.5452(12) 0.5712(13) 0.4603(9)
C3A C 0.0322(13) -0.2209(13) 0.5905(10)
C4A C -0.0378(41) -0.0882(21) 0.4943(14)
C5A C -0.6202(12) 0.4829(12) -0.0544(9)
H1A H -0.283(15) 1.292(16) 0.791(11)
H2A H -0.104(17) 1.257(16) 0.850(12)
loop_
_geom_bond_atom_site_label_1
_geom_bond_atom_site_label_2
_geom_bond_site_symmetry_1
_geom_bond_site_symmetry_2
La1 O1 1_555 1_555
O1 C2 1_555 1_555
O2 La1 1_555 1_555
O3 La1 1_555 1_555
O4 C1 1_555 1_555
O5 La1 1_555 1_555
O6 La1 1_555 1_555
O7 La1 1_555 1_555
C1 O6 1_555 1_555
C2 O7A 1_555 1_555
C3 C1 1_555 1_555
C4 C3 1_555 1_555
C5 O2 1_555 1_555
H1 O5 1_555 1_555
H2 O5 1_555 1_555
La1A O1A 1_555 1_555
La1A_2 O2A 1_555 1_555
La1A_3 O4 1_555 1_555
La1_2 O4 1_555 1_555
La1A_4 O4A_2 1_555 1_555
La1_3 O4A_2 1_555 1_555
La1A_5 O6A_2 1_555 1_555
O1A C2A 1_555 1_555
O2A C5A 1_555 1_555
O2A_2 La1A 1_555 1_555
O3A C5 1_555 1_555
O3A_2 La1A 1_555 1_555
O4A La1 1_555 1_555
O4_2 La1 1_555 1_555
O4A_2 C1A 1_555 1_555
O4A_3 La1A 1_555 1_555
O4_3 La1A 1_555 1_555
O5A La1A 1_555 1_555
O6A La1 1_555 1_555
O6A_2 La1_3 1_555 1_555
O6_2 La1A 1_555 1_555
O6A_3 La1A 1_555 1_555
O7A La1A 1_555 1_555
C1A O6A_2 1_555 1_555
C2A O7 1_555 1_555
C3A C1A 1_555 1_555
C4A C4 1_555 1_555
C5A O3 1_555 1_555
H1A O5A 1_555 1_555
H2A O5A 1_555 1_555
O6 La1A_3 1_555 1_555
C2 C2A 1_555 1_555
C5 C5A 1_555 1_555
La1A_2 O3A 1_555 1_555
La1A_3 O6A 1_555 1_555
C3A C4A 1_555 1_555

#END
