
#######################################################################
#
#                 Cambridge Crystallographic Data Centre
#                                CCDC 
#
#######################################################################
#
# If this CIF has been generated from an entry in the Cambridge 
# Structural Database, then it will include bibliographic, chemical, 
# crystal, experimental, refinement or atomic coordinate data resulting 
# from the CCDC's data processing and validation procedures.
#
#######################################################################

data_XAKXOX
_symmetry_cell_setting           triclinic
_symmetry_space_group_name_H-M   'P -1'
_symmetry_Int_Tables_number      2
_space_group_name_Hall           '-P 1'
loop_
_symmetry_equiv_pos_site_id
_symmetry_equiv_pos_as_xyz
1 x,y,z
2 -x,-y,-z
_cell_length_a                   10.5889(11)
_cell_length_b                   13.9179(15)
_cell_length_c                   17.7727(19)
_cell_angle_alpha                106.056(2)
_cell_angle_beta                 103.989(2)
_cell_angle_gamma                100.669(2)
_cell_volume                     2351.56
loop_
_atom_site_label
_atom_site_type_symbol
_atom_site_fract_x
_atom_site_fract_y
_atom_site_fract_z
Cu1 Cu -0.20801(3) 0.23308(3) -0.45190(2)
Cu2 Cu 0.26385(3) 0.19454(3) -0.15612(2)
V1 V 0.16206(5) 0.15036(4) -0.36917(3)
V2 V 0.10528(5) 0.33865(4) -0.04641(3)
V3 V -0.02922(5) 0.24986(4) -0.24244(3)
P1 P 0.00003(7) 0.10773(6) -0.13822(5)
P2 P 0.10482(8) 0.57053(6) -0.06095(5)
P3 P 0.08618(7) 0.36702(6) -0.34798(5)
P4 P -0.03454(7) 0.10210(6) -0.54531(4)
O1 O -0.1273(2) 0.12856(16) -0.49497(14)
O2 O 0.1050(2) 0.11116(16) -0.48943(12)
O3 O -0.1571(2) 0.21348(16) -0.32553(13)
O4 O -0.0478(2) 0.34840(16) -0.41185(13)
O5 O 0.0720(2) 0.37200(15) -0.26288(12)
O6 O -0.0934(2) -0.00376(16) -0.61192(13)
O7 O 0.1651(2) 0.28984(16) -0.37611(13)
O8 O 0.3208(2) 0.16189(16) -0.34210(13)
O9 O 0.1411(2) 0.09422(16) -0.13403(13)
O10 O -0.0693(2) 0.12043(15) -0.21940(12)
O11 O 0.0000(2) 0.19710(15) -0.06449(12)
O12 O 0.0184(2) 0.53565(17) -0.15422(13)
O13 O 0.1601(2) 0.48413(15) -0.04375(13)
O14 O 0.1179(2) 0.18475(15) -0.28268(12)
O15 O 0.1626(2) 0.29372(15) -0.12787(13)
O16 O -0.0732(2) 0.32050(16) -0.16700(13)
O17 O 0.2259(2) 0.34725(16) 0.03022(13)
O18 O 0.0234(2) 0.61398(16) -0.00989(14)
N1 N -0.3936(2) 0.14081(19) -0.51765(15)
N2 N -0.3170(2) 0.32626(19) -0.41211(15)
N3 N 0.4167(2) 0.29721(19) -0.15760(15)
N4 N 0.3865(2) 0.10635(19) -0.16906(15)
C1 C -0.4224(3) 0.0446(2) -0.57123(19)
H1 H -0.3504 0.0169 -0.5817
C2 C -0.5537(3) -0.0151(3) -0.6115(2)
H2 H -0.5717 -0.0833 -0.6491
C3 C -0.6584(3) 0.0247(3) -0.5969(2)
H3 H -0.7494 -0.0155 -0.6245
C4 C -0.6301(3) 0.1237(3) -0.5417(2)
H4 H -0.7009 0.1528 -0.5309
C5 C -0.4960(3) 0.1795(2) -0.50250(19)
C6 C -0.4519(3) 0.2844(2) -0.44057(18)
C7 C -0.5390(3) 0.3365(3) -0.4123(2)
H5 H -0.6337 0.3050 -0.4319
C8 C -0.4858(4) 0.4355(3) -0.3548(2)
H6 H -0.5439 0.4738 -0.3355
C9 C -0.3480(4) 0.4779(3) -0.3258(2)
H7 H -0.3097 0.5456 -0.2861
C10 C -0.2665(3) 0.4210(2) -0.35511(19)
H8 H -0.1713 0.4497 -0.3342
C11 C 0.3598(3) 0.0076(2) -0.17186(19)
H9 H 0.2769 -0.0229 -0.1653
C12 C 0.4499(3) -0.0519(2) -0.18409(19)
H10 H 0.4286 -0.1224 -0.1870
C13 C 0.5712(3) -0.0057(3) -0.19192(19)
H11 H 0.6334 -0.0451 -0.2019
C14 C 0.6019(3) 0.0979(2) -0.18518(19)
H12 H 0.6868 0.1313 -0.1877
C15 C 0.5061(3) 0.1523(2) -0.17466(17)
C16 C 0.5244(3) 0.2620(2) -0.16625(17)
C17 C 0.6420(3) 0.3269(2) -0.16398(19)
H13 H 0.7169 0.3009 -0.1707
C18 C 0.6486(3) 0.4306(2) -0.15177(19)
H14 H 0.7292 0.4771 -0.1486
C19 C 0.5369(3) 0.4658(2) -0.1442(2)
H15 H 0.5390 0.5364 -0.1368
C20 C 0.4220(3) 0.3964(2) -0.14772(19)
H16 H 0.3448 0.4201 -0.1429
C21 C -0.0997(3) -0.0105(2) -0.13826(18)
C22 C -0.1397(3) -0.0973(2) -0.2093(2)
H17 H -0.1143 -0.0924 -0.2561
C23 C -0.2166(3) -0.1914(2) -0.2117(2)
H18 H -0.2462 -0.2500 -0.2607
C24 C -0.2498(3) -0.1994(2) -0.1430(2)
H19 H -0.3003 -0.2641 -0.1444
C25 C -0.2099(3) -0.1135(3) -0.0718(2)
H20 H -0.2329 -0.1195 -0.0245
C26 C -0.1365(3) -0.0192(2) -0.06996(19)
H21 H -0.1111 0.0400 -0.0217
C27 C -0.0119(3) 0.1902(2) -0.60079(18)
C28 C 0.0953(3) 0.2786(3) -0.5709(2)
H22 H 0.1609 0.2940 -0.5191
C29 C 0.1077(4) 0.3447(3) -0.6158(2)
H23 H 0.1818 0.4051 -0.5945
C30 C 0.0137(4) 0.3239(3) -0.6911(2)
H24 H 0.0233 0.3693 -0.7219
C31 C -0.0937(4) 0.2370(3) -0.7211(2)
H25 H -0.1593 0.2221 -0.7728
C32 C -0.1063(4) 0.1708(3) -0.6757(2)
H26 H -0.1814 0.1111 -0.6968
C33 C 0.1867(3) 0.4915(2) -0.33715(18)
C34 C 0.2809(3) 0.5562(2) -0.26234(19)
H27 H 0.2861 0.5387 -0.2139
C35 C 0.3678(3) 0.6472(2) -0.2590(2)
H28 H 0.4323 0.6914 -0.2080
C36 C 0.3609(4) 0.6732(3) -0.3286(2)
H29 H 0.4216 0.7345 -0.3258
C37 C 0.2660(4) 0.6106(3) -0.4024(2)
H30 H 0.2604 0.6293 -0.4505
C38 C 0.1784(3) 0.5202(2) -0.4066(2)
H31 H 0.1123 0.4777 -0.4575
C39 C 0.2463(3) 0.6735(2) -0.04670(18)
C40 C 0.3747(3) 0.6596(2) -0.03877(18)
H32 H 0.3899 0.5946 -0.0385
C41 C 0.4814(3) 0.7410(3) -0.03112(19)
H33 H 0.5689 0.7309 -0.0267
C42 C 0.4603(3) 0.8356(3) -0.0300(2)
H34 H 0.5331 0.8908 -0.0250
C43 C 0.3331(4) 0.8513(3) -0.0360(2)
H35 H 0.3194 0.9172 -0.0348
C44 C 0.2258(3) 0.7708(2) -0.0440(2)
H36 H 0.1389 0.7818 -0.0476
V1A V -0.16206(5) -0.15036(4) -0.63083(3)
V2A V -0.10528(5) 0.66135(4) 0.04641(3)
O6A O 0.0934(2) 0.00376(16) -0.38808(13)
O18A O -0.0234(2) 0.38602(16) 0.00989(14)
loop_
_geom_bond_atom_site_label_1
_geom_bond_atom_site_label_2
_geom_bond_site_symmetry_1
_geom_bond_site_symmetry_2
Cu1 O1 1_555 1_555
Cu2 O9 1_555 1_555
V1 O2 1_555 1_555
V2 O11 1_555 1_555
V3 O3 1_555 1_555
P1 O9 1_555 1_555
P2 O12 1_555 1_555
P3 O4 1_555 1_555
P4 O1 1_555 1_555
O2 P4 1_555 1_555
O3 Cu1 1_555 1_555
O4 Cu1 1_555 1_555
O5 V3 1_555 1_555
O6 P4 1_555 1_555
O7 V1 1_555 1_555
O8 V1 1_555 1_555
O10 V3 1_555 1_555
O11 P1 1_555 1_555
O13 V2 1_555 1_555
O14 Cu2 1_555 1_555
O15 Cu2 1_555 1_555
O16 V3 1_555 1_555
O17 V2 1_555 1_555
O18 P2 1_555 1_555
N1 Cu1 1_555 1_555
N2 Cu1 1_555 1_555
N3 Cu2 1_555 1_555
N4 Cu2 1_555 1_555
C1 N1 1_555 1_555
H1 C1 1_555 1_555
C2 C1 1_555 1_555
H2 C2 1_555 1_555
C3 C2 1_555 1_555
H3 C3 1_555 1_555
C4 C3 1_555 1_555
H4 C4 1_555 1_555
C5 N1 1_555 1_555
C6 N2 1_555 1_555
C7 C6 1_555 1_555
H5 C7 1_555 1_555
C8 C7 1_555 1_555
H6 C8 1_555 1_555
C9 C8 1_555 1_555
H7 C9 1_555 1_555
C10 N2 1_555 1_555
H8 C10 1_555 1_555
C11 N4 1_555 1_555
H9 C11 1_555 1_555
C12 C11 1_555 1_555
H10 C12 1_555 1_555
C13 C12 1_555 1_555
H11 C13 1_555 1_555
C14 C13 1_555 1_555
H12 C14 1_555 1_555
C15 N4 1_555 1_555
C16 N3 1_555 1_555
C17 C16 1_555 1_555
H13 C17 1_555 1_555
C18 C17 1_555 1_555
H14 C18 1_555 1_555
C19 C18 1_555 1_555
H15 C19 1_555 1_555
C20 N3 1_555 1_555
H16 C20 1_555 1_555
C21 P1 1_555 1_555
C22 C21 1_555 1_555
H17 C22 1_555 1_555
C23 C22 1_555 1_555
H18 C23 1_555 1_555
C24 C23 1_555 1_555
H19 C24 1_555 1_555
C25 C24 1_555 1_555
H20 C25 1_555 1_555
C26 C21 1_555 1_555
H21 C26 1_555 1_555
C27 P4 1_555 1_555
C28 C27 1_555 1_555
H22 C28 1_555 1_555
C29 C28 1_555 1_555
H23 C29 1_555 1_555
C30 C29 1_555 1_555
H24 C30 1_555 1_555
C31 C30 1_555 1_555
H25 C31 1_555 1_555
C32 C27 1_555 1_555
H26 C32 1_555 1_555
C33 P3 1_555 1_555
C34 C33 1_555 1_555
H27 C34 1_555 1_555
C35 C34 1_555 1_555
H28 C35 1_555 1_555
C36 C35 1_555 1_555
H29 C36 1_555 1_555
C37 C36 1_555 1_555
H30 C37 1_555 1_555
C38 C33 1_555 1_555
H31 C38 1_555 1_555
C39 P2 1_555 1_555
C40 C39 1_555 1_555
H32 C40 1_555 1_555
C41 C40 1_555 1_555
H33 C41 1_555 1_555
C42 C41 1_555 1_555
H34 C42 1_555 1_555
C43 C42 1_555 1_555
H35 C43 1_555 1_555
C44 C39 1_555 1_555
H36 C44 1_555 1_555
V1A O6 1_555 1_555
V2A O18 1_555 1_555
O6A V1 1_555 1_555
O18A V2 1_555 1_555
V1 O14 1_555 1_555
V2 O15 1_555 1_555
V3 O14 1_555 1_555
V3 O15 1_555 1_555
P1 O10 1_555 1_555
P2 O13 1_555 1_555
P3 O5 1_555 1_555
P3 O7 1_555 1_555
C4 C5 1_555 1_555
C5 C6 1_555 1_555
C9 C10 1_555 1_555
C14 C15 1_555 1_555
C15 C16 1_555 1_555
C19 C20 1_555 1_555
C25 C26 1_555 1_555
C31 C32 1_555 1_555
C37 C38 1_555 1_555
C43 C44 1_555 1_555

#END
