
#######################################################################
#
#                 Cambridge Crystallographic Data Centre
#                                CCDC 
#
#######################################################################
#
# If this CIF has been generated from an entry in the Cambridge 
# Structural Database, then it will include bibliographic, chemical, 
# crystal, experimental, refinement or atomic coordinate data resulting 
# from the CCDC's data processing and validation procedures.
#
#######################################################################

data_XAKYAK
_symmetry_cell_setting           monoclinic
_symmetry_space_group_name_H-M   'C c'
_symmetry_Int_Tables_number      9
_space_group_name_Hall           'C -2yc'
loop_
_symmetry_equiv_pos_site_id
_symmetry_equiv_pos_as_xyz
1 x,y,z
2 x,-y,1/2+z
3 1/2+x,1/2+y,z
4 1/2+x,1/2-y,1/2+z
_cell_length_a                   11.2720(6)
_cell_length_b                   21.7129(11)
_cell_length_c                   9.4325(5)
_cell_angle_alpha                90
_cell_angle_beta                 123.7750(10)
_cell_angle_gamma                90
_cell_volume                     1918.96
loop_
_atom_site_label
_atom_site_type_symbol
_atom_site_fract_x
_atom_site_fract_y
_atom_site_fract_z
Cu1 Cu 0.86501(3) 0.645539(12) 0.31310(3)
V1 V 0.70374(4) 0.555910(17) -0.07395(4)
V2 V 0.53372(4) 0.477620(17) 0.03858(4)
P1 P 0.59398(6) 0.59501(3) 0.29421(7)
P2 P 0.90517(6) 0.49903(3) 0.31986(7)
O1 O 0.74271(18) 0.61788(8) 0.0373(2)
O2 O 0.72933(19) 0.63343(8) 0.3776(2)
O3 O 0.94669(18) 0.56500(8) 0.3807(2)
O4 O 0.87621(18) 0.46212(8) 0.4384(2)
O5 O 0.61707(17) 0.52973(7) 0.2491(2)
O6 O 0.53821(18) 0.59029(8) 0.4093(2)
O7 O 0.61810(18) 0.58496(8) -0.2749(2)
O8 O 0.77844(18) 0.49309(7) 0.1316(2)
O9 O 0.37233(18) 0.47327(8) -0.0158(2)
O10 O 0.52957(18) 0.53630(7) -0.0859(2)
N1 N 0.8165(2) 0.73521(9) 0.2703(3)
N2 N 1.0136(2) 0.67289(9) 0.2718(3)
C1 C 1.1093(3) 0.63603(12) 0.2727(3)
H1 H 1.1105 0.5935 0.2970
C2 C 1.2068(3) 0.65812(13) 0.2392(4)
H2 H 1.2733 0.6312 0.2394
C3 C 1.2051(3) 0.71982(14) 0.2058(5)
H3 H 1.2728 0.7361 0.1859
C4 C 1.1047(3) 0.75864(13) 0.2011(4)
H4 H 1.1017 0.8012 0.1763
C5 C 1.0090(3) 0.73312(11) 0.2337(3)
C6 C 0.8941(2) 0.76850(11) 0.2280(3)
C7 C 0.8644(3) 0.83005(11) 0.1819(3)
H5 H 0.9215 0.8529 0.1554
C8 C 0.7508(3) 0.85781(12) 0.1750(3)
H6 H 0.7287 0.8999 0.1431
C9 C 0.6695(3) 0.82327(12) 0.2155(3)
H7 H 0.5899 0.8411 0.2096
C10 C 0.7065(3) 0.76269(11) 0.2642(3)
H8 H 0.6525 0.7394 0.2946
C11 C 1.0592(3) 0.46388(12) 0.3442(4)
H9 H 1.1434 0.4730 0.4582
H10 H 1.0734 0.4802 0.2578
H11 H 1.0452 0.4192 0.3300
C12 C 0.4583(3) 0.63212(11) 0.1033(3)
H12 H 0.4921 0.6386 0.0286
H13 H 0.4354 0.6719 0.1314
H14 H 0.3726 0.6062 0.0448
V1A V 0.70374(4) 0.444090(17) 0.42605(4)
V2A V 0.53372(4) 0.522380(17) 0.53858(4)
V2A_2 V 0.53372(4) 0.522380(17) -0.46142(4)
O4A O 0.87621(18) 0.53788(8) -0.0616(2)
O5A O 0.61707(17) 0.47027(7) -0.2509(2)
O6A O 0.53821(18) 0.40971(8) -0.0907(2)
O7A O 0.61810(18) 0.41504(8) 0.2251(2)
O11 O 0.3714(3) 0.83644(11) 0.2255(3)
H15 H 0.323(7) 0.848(3) 0.313(9)
H16? H 0.43(4) 0.781(14) 0.66(5)
loop_
_geom_bond_atom_site_label_1
_geom_bond_atom_site_label_2
_geom_bond_site_symmetry_1
_geom_bond_site_symmetry_2
Cu1 O1 1_555 1_555
V1 O1 1_555 1_555
V2 O5 1_555 1_555
P1 O2 1_555 1_555
P2 O3 1_555 1_555
O2 Cu1 1_555 1_555
O3 Cu1 1_555 1_555
O4 P2 1_555 1_555
O5 P1 1_555 1_555
O6 P1 1_555 1_555
O7 V1 1_555 1_555
O8 V1 1_555 1_555
O9 V2 1_555 1_555
O10 V1 1_555 1_555
N1 Cu1 1_555 1_555
N2 Cu1 1_555 1_555
C1 N2 1_555 1_555
H1 C1 1_555 1_555
C2 C1 1_555 1_555
H2 C2 1_555 1_555
C3 C2 1_555 1_555
H3 C3 1_555 1_555
C4 C3 1_555 1_555
H4 C4 1_555 1_555
C5 N2 1_555 1_555
C6 N1 1_555 1_555
C7 C6 1_555 1_555
H5 C7 1_555 1_555
C8 C7 1_555 1_555
H6 C8 1_555 1_555
C9 C8 1_555 1_555
H7 C9 1_555 1_555
C10 N1 1_555 1_555
H8 C10 1_555 1_555
C11 P2 1_555 1_555
H9 C11 1_555 1_555
H10 C11 1_555 1_555
H11 C11 1_555 1_555
C12 P1 1_555 1_555
H12 C12 1_555 1_555
H13 C12 1_555 1_555
H14 C12 1_555 1_555
O11 H15 1_555 1_555
V1A O4 1_555 1_555
V2A O6 1_555 1_555
V2A_2 O7 1_555 1_555
O4A V1 1_555 1_555
O5A V1 1_555 1_555
O6A V2 1_555 1_555
O7A V2 1_555 1_555
V2 O8 1_555 1_555
V2 O10 1_555 1_555
P2 O8 1_555 1_555
O5 V1A 1_555 1_555
C4 C5 1_555 1_555
C5 C6 1_555 1_555
C9 C10 1_555 1_555
V1A O7A 1_555 1_555
V2A_2 O5A 1_555 1_555

#END
