
#######################################################################
#
#                 Cambridge Crystallographic Data Centre
#                                CCDC 
#
#######################################################################
#
# If this CIF has been generated from an entry in the Cambridge 
# Structural Database, then it will include bibliographic, chemical, 
# crystal, experimental, refinement or atomic coordinate data resulting 
# from the CCDC's data processing and validation procedures.
#
#######################################################################

data_XAKYUF
_symmetry_cell_setting           monoclinic
_symmetry_space_group_name_H-M   'P 21/n'
_symmetry_Int_Tables_number      14
_space_group_name_Hall           '-P 2yn'
loop_
_symmetry_equiv_pos_site_id
_symmetry_equiv_pos_as_xyz
1 x,y,z
2 1/2-x,1/2+y,1/2-z
3 -x,-y,-z
4 1/2+x,1/2-y,1/2+z
_cell_length_a                   12.0188(11)
_cell_length_b                   9.5910(9)
_cell_length_c                   12.7301(15)
_cell_angle_alpha                90
_cell_angle_beta                 90.124(6)
_cell_angle_gamma                90
_cell_volume                     1467.42
loop_
_atom_site_label
_atom_site_type_symbol
_atom_site_fract_x
_atom_site_fract_y
_atom_site_fract_z
Zn1 Zn 0.0000 0.0000 0.0000
O1 O -0.01183(19) 0.1193(2) -0.40284(16)
O2 O -0.1566(2) 0.3813(3) -0.53726(18)
O3 O 0.1510(2) 0.0539(3) 0.0765(2)
N1 N 0.0062(2) 0.1985(3) -0.08740(18)
N2 N -0.0595(2) 0.3390(3) -0.34928(19)
H1 H -0.0898 0.4156 -0.3696
N3 N -0.0940(2) 0.1715(3) -0.59628(19)
H2 H -0.0604 0.0963 -0.5774
N4 N -0.0982(2) 0.1055(3) -0.87901(19)
C1 C 0.0631(3) 0.3067(4) -0.0473(2)
H3 H 0.0924 0.2982 0.0201
C2 C 0.0802(3) 0.4291(4) -0.1007(3)
H4 H 0.1186 0.5023 -0.0693
C3 C 0.0395(3) 0.4419(4) -0.2024(3)
H5 H 0.0511 0.5231 -0.2408
C4 C -0.0183(3) 0.3319(3) -0.2451(2)
C5 C -0.0366(3) 0.2140(3) -0.1845(2)
H6 H -0.0803 0.1428 -0.2120
C6 C -0.0542(3) 0.2338(3) -0.4178(2)
C7 C -0.1073(3) 0.2704(3) -0.5244(2)
C8 C -0.1310(3) 0.1806(3) -0.7021(2)
C9 C -0.2199(3) 0.2597(4) -0.7346(2)
H7 H -0.2611 0.3114 -0.6867
C10 C -0.2467(3) 0.2605(4) -0.8405(2)
H8 H -0.3064 0.3133 -0.8647
C11 C -0.1848(3) 0.1833(4) -0.9094(2)
H9 H -0.2038 0.1850 -0.9803
C12 C -0.0722(3) 0.1051(3) -0.7763(2)
H10 H -0.0121 0.0516 -0.7540
H11 H 0.215(5) 0.063(7) 0.042(5)
H12 H 0.162(3) 0.059(4) 0.133(3)
Zn1_2 Zn 0.0000 0.0000 -1.0000
O1B O 0.01183(19) -0.1193(2) -0.59716(16)
O2B O 0.1566(2) -0.3813(3) -0.46274(18)
O3B O -0.1510(2) -0.0539(3) -0.0765(2)
N1B N -0.0062(2) -0.1985(3) -0.91260(18)
N1B_2 N -0.0062(2) -0.1985(3) 0.08740(18)
N2B N 0.0595(2) -0.3390(3) -0.65072(19)
H1B H 0.0898 -0.4156 -0.6304
N3B N 0.0940(2) -0.1715(3) -0.40372(19)
H2B H 0.0604 -0.0963 -0.4226
N4B N 0.0982(2) -0.1055(3) -0.12099(19)
N4_2 N -0.0982(2) 0.1055(3) 0.12099(19)
C1B C -0.0631(3) -0.3067(4) -0.9527(2)
H3B H -0.0924 -0.2982 -1.0201
C2B C -0.0802(3) -0.4291(4) -0.8993(3)
H4B H -0.1186 -0.5023 -0.9307
C3B C -0.0395(3) -0.4419(4) -0.7976(3)
H5B H -0.0511 -0.5231 -0.7592
C4B C 0.0183(3) -0.3319(3) -0.7549(2)
C5B C 0.0366(3) -0.2140(3) -0.8155(2)
H6B H 0.0803 -0.1428 -0.7880
C6B C 0.0542(3) -0.2338(3) -0.5822(2)
C7B C 0.1073(3) -0.2704(3) -0.4756(2)
C8B C 0.1310(3) -0.1806(3) -0.2979(2)
C9B C 0.2199(3) -0.2597(4) -0.2654(2)
H7B H 0.2611 -0.3114 -0.3133
C10B C 0.2467(3) -0.2605(4) -0.1595(2)
H8B H 0.3064 -0.3133 -0.1353
C11B C 0.1848(3) -0.1833(4) -0.0906(2)
H9B H 0.2038 -0.1850 -0.0197
C12B C 0.0722(3) -0.1051(3) -0.2237(2)
H10B H 0.0121 -0.0516 -0.2460
H11B H -0.215(5) -0.063(7) -0.042(5)
H12B H -0.162(3) -0.059(4) -0.133(3)
N5 N 0.2269(3) 0.0296(3) 0.3628(2)
O4 O 0.1916(3) 0.0917(3) 0.2832(2)
O5 O 0.2180(3) 0.0886(4) 0.4475(2)
O6 O 0.2678(3) -0.0881(3) 0.3555(3)
O7 O 0.3634(3) -0.1221(4) 0.1505(3)
H13 H 0.322(7) -0.122(10) 0.223(7)
H14 H 0.358(5) -0.197(7) 0.132(5)
loop_
_geom_bond_atom_site_label_1
_geom_bond_atom_site_label_2
_geom_bond_site_symmetry_1
_geom_bond_site_symmetry_2
Zn1 O3 1_555 1_555
O1 C6 1_555 1_555
O2 C7 1_555 1_555
O3 H11 1_555 1_555
N1 Zn1 1_555 1_555
N2 H1 1_555 1_555
N3 H2 1_555 1_555
N4 C11 1_555 1_555
C1 N1 1_555 1_555
H3 C1 1_555 1_555
C2 C1 1_555 1_555
H4 C2 1_555 1_555
C3 C2 1_555 1_555
H5 C3 1_555 1_555
C4 N2 1_555 1_555
C5 N1 1_555 1_555
H6 C5 1_555 1_555
C6 N2 1_555 1_555
C7 N3 1_555 1_555
C8 N3 1_555 1_555
C9 C8 1_555 1_555
H7 C9 1_555 1_555
C10 C9 1_555 1_555
H8 C10 1_555 1_555
C11 C10 1_555 1_555
H9 C11 1_555 1_555
C12 N4 1_555 1_555
H10 C12 1_555 1_555
H12 O3 1_555 1_555
N5 O4 1_555 1_555
O5 N5 1_555 1_555
O6 N5 1_555 1_555
O7 H13 1_555 1_555
H14 O7 1_555 1_555
Zn1_2 N4 1_555 1_555
O1B C6B 1_555 1_555
O2B C7B 1_555 1_555
O3B Zn1 1_555 1_555
N1B Zn1_2 1_555 1_555
N1B_2 Zn1 1_555 1_555
N2B H1B 1_555 1_555
N3B H2B 1_555 1_555
N4B Zn1 1_555 1_555
N4_2 Zn1 1_555 1_555
C1B N1B 1_555 1_555
H3B C1B 1_555 1_555
C2B C1B 1_555 1_555
H4B C2B 1_555 1_555
C3B C2B 1_555 1_555
H5B C3B 1_555 1_555
C4B N2B 1_555 1_555
C5B N1B 1_555 1_555
H6B C5B 1_555 1_555
C6B N2B 1_555 1_555
C7B N3B 1_555 1_555
C8B N3B 1_555 1_555
C9B C8B 1_555 1_555
H7B C9B 1_555 1_555
C10B C9B 1_555 1_555
H8B C10B 1_555 1_555
C11B N4B 1_555 1_555
H9B C11B 1_555 1_555
C12B N4B 1_555 1_555
H10B C12B 1_555 1_555
H11B O3B 1_555 1_555
H12B O3B 1_555 1_555
C3 C4 1_555 1_555
C4 C5 1_555 1_555
C6 C7 1_555 1_555
C8 C12 1_555 1_555
C3B C4B 1_555 1_555
C4B C5B 1_555 1_555
C6B C7B 1_555 1_555
C8B C12B 1_555 1_555
C10B C11B 1_555 1_555

#END
