
#######################################################################
#
#                 Cambridge Crystallographic Data Centre
#                                CCDC 
#
#######################################################################
#
# If this CIF has been generated from an entry in the Cambridge 
# Structural Database, then it will include bibliographic, chemical, 
# crystal, experimental, refinement or atomic coordinate data resulting 
# from the CCDC's data processing and validation procedures.
#
#######################################################################

data_XAKYOZ
_symmetry_cell_setting           monoclinic
_symmetry_space_group_name_H-M   'C 2/c'
_symmetry_Int_Tables_number      15
_space_group_name_Hall           '-C 2yn'
loop_
_symmetry_equiv_pos_site_id
_symmetry_equiv_pos_as_xyz
1 x,y,z
2 -x,y,1/2-z
3 1/2+x,1/2+y,z
4 1/2-x,1/2+y,1/2-z
5 -x,-y,-z
6 x,-y,1/2+z
7 1/2-x,1/2-y,-z
8 1/2+x,1/2-y,1/2+z
_cell_length_a                   12.9384(15)
_cell_length_b                   13.2111(16)
_cell_length_c                   20.425(3)
_cell_angle_alpha                90
_cell_angle_beta                 96.629(10)
_cell_angle_gamma                90
_cell_volume                     3467.91
loop_
_atom_site_label
_atom_site_type_symbol
_atom_site_fract_x
_atom_site_fract_y
_atom_site_fract_z
Cd1 Cd 0.0000 0.5000 0.0000
O1 O 0.4125(2) 0.4655(2) 0.05378(13)
O2 O 0.5788(2) 0.4772(3) 0.20064(13)
N1 N 0.1050(2) 0.4336(3) 0.09036(16)
N2 N 0.3796(2) 0.4396(3) 0.16048(15)
H1 H 0.4108 0.4371 0.2000
N3 N 0.6106(2) 0.5205(3) 0.09748(15)
H2 H 0.5834 0.5247 0.0571
N4 N 0.8848(2) 0.5474(3) 0.07586(16)
C1 C 0.0646(3) 0.3822(4) 0.1372(2)
H3 H -0.0063 0.3681 0.1318
C2 C 0.1233(3) 0.3493(4) 0.1929(2)
H4 H 0.0923 0.3139 0.2248
C3 C 0.2284(3) 0.3686(4) 0.2017(2)
H5 H 0.2690 0.3481 0.2400
C4 C 0.2720(3) 0.4185(3) 0.15310(18)
C5 C 0.2079(3) 0.4509(4) 0.0989(2)
H6 H 0.2373 0.4867 0.0665
C6 C 0.4383(3) 0.4630(3) 0.11312(19)
C7 C 0.5507(3) 0.4881(4) 0.14233(18)
C8 C 0.7164(3) 0.5483(3) 0.11267(18)
C9 C 0.7534(3) 0.5998(4) 0.1687(2)
H7 H 0.7097 0.6175 0.1999
C10 C 0.8585(3) 0.6247(4) 0.1775(2)
H8 H 0.8865 0.6585 0.2154
C11 C 0.9202(3) 0.5994(4) 0.1304(2)
H9 H 0.9897 0.6190 0.1362
C12 C 0.7846(3) 0.5207(3) 0.06859(19)
H10 H 0.7597 0.4817 0.0322
O3 O 0.0738(3) 0.6607(3) 0.01049(19)
C13 C 0.0203(5) 0.7548(4) 0.0093(3)
H11 H 0.0699 0.8091 0.0149
H12 H -0.0230 0.7565 0.0444
H13 H -0.0221 0.7624 -0.0322
H14 H 0.132(5) 0.665(5) 0.023(3)
Cd1_2 Cd 1.0000 0.5000 0.0000
O1D O 0.5875(2) 0.5345(2) -0.05378(13)
O2D O 0.4212(2) 0.5228(3) -0.20064(13)
N1D N 0.8950(2) 0.5664(3) -0.09036(16)
N1D_2 N -0.1050(2) 0.5664(3) -0.09036(16)
N2D N 0.6204(2) 0.5604(3) -0.16048(15)
H1D H 0.5892 0.5629 -0.2000
N3D N 0.3894(2) 0.4795(3) -0.09748(15)
H2D H 0.4166 0.4753 -0.0571
N4D N 0.1152(2) 0.4526(3) -0.07586(16)
N4_2 N -0.1152(2) 0.5474(3) 0.07586(16)
C1D C 0.9354(3) 0.6178(4) -0.1372(2)
H3D H 1.0063 0.6319 -0.1318
C2D C 0.8767(3) 0.6507(4) -0.1929(2)
H4D H 0.9077 0.6861 -0.2248
C3D C 0.7716(3) 0.6314(4) -0.2017(2)
H5D H 0.7310 0.6519 -0.2400
C4D C 0.7280(3) 0.5815(3) -0.15310(18)
C5D C 0.7921(3) 0.5491(4) -0.0989(2)
H6D H 0.7627 0.5133 -0.0665
C6D C 0.5617(3) 0.5370(3) -0.11312(19)
C7D C 0.4493(3) 0.5119(4) -0.14233(18)
C8D C 0.2836(3) 0.4517(3) -0.11267(18)
C9D C 0.2466(3) 0.4002(4) -0.1687(2)
H7D H 0.2903 0.3825 -0.1999
C10D C 0.1415(3) 0.3753(4) -0.1775(2)
H8D H 0.1135 0.3415 -0.2154
C11D C 0.0798(3) 0.4006(4) -0.1304(2)
H9D H 0.0103 0.3810 -0.1362
C12D C 0.2154(3) 0.4793(3) -0.06859(19)
H10D H 0.2403 0.5183 -0.0322
O3D O -0.0738(3) 0.3393(3) -0.01049(19)
C13D C -0.0203(5) 0.2452(4) -0.0093(3)
H11D H -0.0699 0.1909 -0.0149
H12D H 0.0230 0.2435 -0.0444
H13D H 0.0221 0.2376 0.0322
H14D H -0.132(5) 0.335(5) -0.023(3)
Cl1 Cl 0.21786(12) 0.22038(10) 0.36279(6)
O4 O 0.2263(3) 0.1836(4) 0.42924(17)
O5 O 0.1249(5) 0.1808(5) 0.3286(3)
O6 O 0.2998(5) 0.1846(5) 0.3320(2)
O7 O 0.2064(4) 0.3244(3) 0.3605(2)
loop_
_geom_bond_atom_site_label_1
_geom_bond_atom_site_label_2
_geom_bond_site_symmetry_1
_geom_bond_site_symmetry_2
Cd1 N1 1_555 1_555
O1 C6 1_555 1_555
O2 C7 1_555 1_555
N1 C1 1_555 1_555
N2 H1 1_555 1_555
N3 H2 1_555 1_555
N4 C11 1_555 1_555
C1 H3 1_555 1_555
C2 C1 1_555 1_555
H4 C2 1_555 1_555
C3 C2 1_555 1_555
H5 C3 1_555 1_555
C4 N2 1_555 1_555
C5 N1 1_555 1_555
H6 C5 1_555 1_555
C6 N2 1_555 1_555
C7 N3 1_555 1_555
C8 N3 1_555 1_555
C9 C8 1_555 1_555
H7 C9 1_555 1_555
C10 C9 1_555 1_555
H8 C10 1_555 1_555
C11 C10 1_555 1_555
H9 C11 1_555 1_555
C12 N4 1_555 1_555
H10 C12 1_555 1_555
O3 Cd1 1_555 1_555
C13 O3 1_555 1_555
H11 C13 1_555 1_555
H12 C13 1_555 1_555
H13 C13 1_555 1_555
H14 O3 1_555 1_555
Cl1 O4 1_555 1_555
O5 Cl1 1_555 1_555
O6 Cl1 1_555 1_555
O7 Cl1 1_555 1_555
Cd1_2 N4 1_555 1_555
O1D C6D 1_555 1_555
O2D C7D 1_555 1_555
N1D Cd1_2 1_555 1_555
N1D_2 Cd1 1_555 1_555
N2D H1D 1_555 1_555
N3D H2D 1_555 1_555
N4D Cd1 1_555 1_555
N4_2 Cd1 1_555 1_555
C1D N1D 1_555 1_555
H3D C1D 1_555 1_555
C2D C1D 1_555 1_555
H4D C2D 1_555 1_555
C3D C2D 1_555 1_555
H5D C3D 1_555 1_555
C4D N2D 1_555 1_555
C5D N1D 1_555 1_555
H6D C5D 1_555 1_555
C6D N2D 1_555 1_555
C7D N3D 1_555 1_555
C8D N3D 1_555 1_555
C9D C8D 1_555 1_555
H7D C9D 1_555 1_555
C10D C9D 1_555 1_555
H8D C10D 1_555 1_555
C11D N4D 1_555 1_555
H9D C11D 1_555 1_555
C12D N4D 1_555 1_555
H10D C12D 1_555 1_555
O3D Cd1 1_555 1_555
C13D O3D 1_555 1_555
H11D C13D 1_555 1_555
H12D C13D 1_555 1_555
H13D C13D 1_555 1_555
H14D O3D 1_555 1_555
C3 C4 1_555 1_555
C4 C5 1_555 1_555
C6 C7 1_555 1_555
C8 C12 1_555 1_555
C3D C4D 1_555 1_555
C4D C5D 1_555 1_555
C6D C7D 1_555 1_555
C8D C12D 1_555 1_555
C10D C11D 1_555 1_555

#END
