
#######################################################################
#
#                 Cambridge Crystallographic Data Centre
#                                CCDC 
#
#######################################################################
#
# If this CIF has been generated from an entry in the Cambridge 
# Structural Database, then it will include bibliographic, chemical, 
# crystal, experimental, refinement or atomic coordinate data resulting 
# from the CCDC's data processing and validation procedures.
#
#######################################################################

data_XAKZEQ
_symmetry_cell_setting           triclinic
_symmetry_space_group_name_H-M   'P -1'
_symmetry_Int_Tables_number      2
_space_group_name_Hall           '-P 1'
loop_
_symmetry_equiv_pos_site_id
_symmetry_equiv_pos_as_xyz
1 x,y,z
2 -x,-y,-z
_cell_length_a                   6.7647(3)
_cell_length_b                   10.7517(5)
_cell_length_c                   16.9994(7)
_cell_angle_alpha                82.987(3)
_cell_angle_beta                 80.640(2)
_cell_angle_gamma                83.961(2)
_cell_volume                     1206.21
loop_
_atom_site_label
_atom_site_type_symbol
_atom_site_fract_x
_atom_site_fract_y
_atom_site_fract_z
Zn1 Zn 0.59234(6) 0.95475(3) 0.19047(2)
Br1 Br 0.35942(6) 1.08033(3) 0.27324(2)
Br2 Br 0.47202(6) 0.82146(3) 0.11334(2)
O1 O 0.3954(4) 1.38949(19) 0.07448(15)
O2 O 0.8009(4) 1.0497(2) 0.44738(15)
N1 N 0.7769(4) 1.0774(2) 0.11883(14)
N2 N 0.7130(4) 1.3878(2) 0.00322(14)
H1 H 0.7871 1.4313 -0.0338
N3 N 0.7969(4) 0.8529(2) 0.25598(15)
N4 N 1.0500(4) 0.8931(2) 0.42550(15)
H2 H 1.1545 0.8563 0.4441
C1 C 0.9765(5) 1.0533(3) 0.10120(19)
H3 H 1.0370 0.9785 0.1235
C2 C 1.0951(5) 1.1355(3) 0.0513(2)
H4 H 1.2333 1.1163 0.0399
C3 C 1.0057(5) 1.2473(3) 0.01844(18)
H5 H 1.0837 1.3040 -0.0154
C4 C 0.8019(5) 1.2739(3) 0.03593(18)
C5 C 0.6925(5) 1.1858(3) 0.08694(18)
H6 H 0.5541 1.2033 0.0995
C6 C 0.5218(6) 1.4359(3) 0.0243(2)
C7 C 0.9130(5) 0.7553(3) 0.22653(19)
H7 H 0.8824 0.7235 0.1819
C8 C 1.0759(5) 0.7014(3) 0.2607(2)
H8 H 1.1541 0.6333 0.2397
C9 C 1.1224(5) 0.7485(3) 0.3261(2)
H9 H 1.2346 0.7140 0.3489
C10 C 1.0019(5) 0.8476(3) 0.35783(19)
C11 C 0.8390(5) 0.8986(3) 0.32067(19)
H10 H 0.7573 0.9659 0.3411
C12 C 0.9508(6) 0.9877(3) 0.46440(19)
Zn1A Zn 0.40766(6) 2.04525(3) -0.19047(2)
Zn1A_2 Zn 1.40766(6) 1.04525(3) 0.80953(2)
Br1A Br 0.64058(6) 1.91967(3) -0.27324(2)
Br2A Br 0.52798(6) 2.17854(3) -0.11334(2)
O1A O 0.6046(4) 1.61051(19) -0.07448(15)
O2A O 1.1991(4) 0.9503(2) 0.55262(15)
N1A N 0.2231(4) 1.9226(2) -0.11883(14)
N2A N 0.2870(4) 1.6122(2) -0.00322(14)
H1A H 0.2129 1.5687 0.0338
N3A N 1.2031(4) 1.1471(2) 0.74402(15)
N3A_2 N 0.2031(4) 2.1471(2) -0.25598(15)
N4A N 0.9500(4) 1.1069(2) 0.57450(15)
H2A H 0.8455 1.1437 0.5559
C1A C 0.0235(5) 1.9467(3) -0.10120(19)
H3A H -0.0370 2.0215 -0.1235
C2A C -0.0951(5) 1.8645(3) -0.0513(2)
H4A H -0.2333 1.8837 -0.0399
C3A C -0.0057(5) 1.7527(3) -0.01844(18)
H5A H -0.0837 1.6960 0.0154
C4A C 0.1981(5) 1.7261(3) -0.03593(18)
C5A C 0.3075(5) 1.8142(3) -0.08694(18)
H6A H 0.4459 1.7967 -0.0995
C6A C 0.4782(6) 1.5641(3) -0.0243(2)
C7A C 1.0870(5) 1.2447(3) 0.77347(19)
H7A H 1.1176 1.2765 0.8181
C8A C 0.9241(5) 1.2986(3) 0.7393(2)
H8A H 0.8459 1.3667 0.7603
C9A C 0.8776(5) 1.2515(3) 0.6739(2)
H9A H 0.7654 1.2860 0.6511
C10A C 0.9981(5) 1.1524(3) 0.64217(19)
C11A C 1.1610(5) 1.1014(3) 0.67933(19)
H10A H 1.2427 1.0341 0.6589
C12A C 1.0492(6) 1.0123(3) 0.53560(19)
O3 O 0.9631(4) 1.5205(2) 0.12071(14)
N5 N 0.8128(5) 1.3960(2) 0.22614(17)
C13 C 0.9665(6) 1.4284(3) 0.1702(2)
H11 H 1.0858 1.3766 0.1689
C14 C 0.8274(6) 1.2828(3) 0.2824(2)
H12 H 0.9565 1.2373 0.2698
H13 H 0.7235 1.2306 0.2784
H14 H 0.8119 1.3058 0.3360
C15 C 0.6214(6) 1.4690(3) 0.2308(2)
H15 H 0.6304 1.5409 0.1913
H16 H 0.5848 1.4966 0.2832
H17 H 0.5213 1.4183 0.2209
O4 O 1.4102(4) 0.7370(2) 0.45426(17)
N6 N 1.6815(4) 0.6668(2) 0.51302(18)
C16 C 1.5197(6) 0.7448(3) 0.5030(2)
H18 H 1.4882 0.8097 0.5356
C17 C 1.8020(6) 0.6777(3) 0.5747(2)
H19 H 1.7503 0.7500 0.6021
H20 H 1.9389 0.6868 0.5505
H21 H 1.7965 0.6035 0.6124
C18 C 1.7425(5) 0.5672(3) 0.4620(2)
H22 H 1.6640 0.5781 0.4191
H23 H 1.7217 0.4874 0.4928
H24 H 1.8823 0.5698 0.4403
loop_
_geom_bond_atom_site_label_1
_geom_bond_atom_site_label_2
_geom_bond_site_symmetry_1
_geom_bond_site_symmetry_2
Zn1 Br1 1_555 1_555
Br2 Zn1 1_555 1_555
O1 C6 1_555 1_555
O2 C12 1_555 1_555
N1 Zn1 1_555 1_555
N2 H1 1_555 1_555
N3 Zn1 1_555 1_555
N4 H2 1_555 1_555
C1 N1 1_555 1_555
H3 C1 1_555 1_555
C2 C1 1_555 1_555
H4 C2 1_555 1_555
C3 C2 1_555 1_555
H5 C3 1_555 1_555
C4 N2 1_555 1_555
C5 N1 1_555 1_555
H6 C5 1_555 1_555
C6 N2 1_555 1_555
C7 N3 1_555 1_555
H7 C7 1_555 1_555
C8 C7 1_555 1_555
H8 C8 1_555 1_555
C9 C8 1_555 1_555
H9 C9 1_555 1_555
C10 N4 1_555 1_555
C11 N3 1_555 1_555
H10 C11 1_555 1_555
C12 N4 1_555 1_555
O3 C13 1_555 1_555
N5 C13 1_555 1_555
C13 H11 1_555 1_555
C14 N5 1_555 1_555
H12 C14 1_555 1_555
H13 C14 1_555 1_555
H14 C14 1_555 1_555
C15 N5 1_555 1_555
H15 C15 1_555 1_555
H16 C15 1_555 1_555
H17 C15 1_555 1_555
O4 C16 1_555 1_555
N6 C16 1_555 1_555
C16 H18 1_555 1_555
C17 N6 1_555 1_555
H19 C17 1_555 1_555
H20 C17 1_555 1_555
H21 C17 1_555 1_555
C18 N6 1_555 1_555
H22 C18 1_555 1_555
H23 C18 1_555 1_555
H24 C18 1_555 1_555
Zn1A Br1A 1_555 1_555
Zn1A_2 N3A 1_555 1_555
Br2A Zn1A 1_555 1_555
O1A C6A 1_555 1_555
O2A C12A 1_555 1_555
N1A Zn1A 1_555 1_555
N2A H1A 1_555 1_555
N3A C7A 1_555 1_555
N3A_2 Zn1A 1_555 1_555
N4A H2A 1_555 1_555
C1A N1A 1_555 1_555
H3A C1A 1_555 1_555
C2A C1A 1_555 1_555
H4A C2A 1_555 1_555
C3A C2A 1_555 1_555
H5A C3A 1_555 1_555
C4A N2A 1_555 1_555
C5A N1A 1_555 1_555
H6A C5A 1_555 1_555
C6A C6 1_555 1_555
C7A H7A 1_555 1_555
C8A C7A 1_555 1_555
H8A C8A 1_555 1_555
C9A C8A 1_555 1_555
H9A C9A 1_555 1_555
C10A N4A 1_555 1_555
C11A N3A 1_555 1_555
H10A C11A 1_555 1_555
C12A C12 1_555 1_555
C3 C4 1_555 1_555
C4 C5 1_555 1_555
C9 C10 1_555 1_555
C10 C11 1_555 1_555
N2A C6A 1_555 1_555
N4A C12A 1_555 1_555
C3A C4A 1_555 1_555
C4A C5A 1_555 1_555
C9A C10A 1_555 1_555
C10A C11A 1_555 1_555

#END
