
#######################################################################
#
#                 Cambridge Crystallographic Data Centre
#                                CCDC 
#
#######################################################################
#
# If this CIF has been generated from an entry in the Cambridge 
# Structural Database, then it will include bibliographic, chemical, 
# crystal, experimental, refinement or atomic coordinate data resulting 
# from the CCDC's data processing and validation procedures.
#
#######################################################################

data_XAKZAM
_symmetry_cell_setting           monoclinic
_symmetry_space_group_name_H-M   'C 2/c'
_symmetry_Int_Tables_number      15
_space_group_name_Hall           '-C 2yn'
loop_
_symmetry_equiv_pos_site_id
_symmetry_equiv_pos_as_xyz
1 x,y,z
2 -x,y,1/2-z
3 1/2+x,1/2+y,z
4 1/2-x,1/2+y,1/2-z
5 -x,-y,-z
6 x,-y,1/2+z
7 1/2-x,1/2-y,-z
8 1/2+x,1/2-y,1/2+z
_cell_length_a                   19.709(3)
_cell_length_b                   6.3640(9)
_cell_length_c                   24.531(3)
_cell_angle_alpha                90
_cell_angle_beta                 111.776(2)
_cell_angle_gamma                90
_cell_volume                     2857.31
loop_
_atom_site_label
_atom_site_type_symbol
_atom_site_fract_x
_atom_site_fract_y
_atom_site_fract_z
Zn1 Zn 0.0000 0.33701(9) 0.7500
Cl1 Cl -0.09233(6) 0.15296(18) 0.75719(6)
O1 O 0.2083(2) 0.1536(5) 0.92919(14)
N1 N 0.04425(17) 0.5240(5) 0.82241(13)
N2 N 0.18523(17) 0.4545(5) 0.96972(13)
H1 H 0.1984 0.5236 1.0021
C1 C 0.0185(2) 0.7133(7) 0.82847(19)
H2 H -0.0197 0.7713 0.7971
C2 C 0.0471(3) 0.8233(7) 0.8799(2)
H3 H 0.0289 0.9560 0.8827
C3 C 0.1022(2) 0.7404(7) 0.92701(19)
H4 H 0.1213 0.8142 0.9622
C4 C 0.1294(2) 0.5417(6) 0.92133(16)
C5 C 0.0993(2) 0.4393(6) 0.86782(15)
H5 H 0.1176 0.3086 0.8632
C6 C 0.2197(2) 0.2746(7) 0.97016(17)
Zn1F Zn 0.5000 0.16299(9) 1.2500
Cl1A Cl 0.09233(6) 0.15296(18) 0.74281(6)
O1F O 0.2917(2) 0.3464(5) 1.07081(14)
N1F N 0.45575(17) -0.0240(5) 1.17759(13)
N1A N -0.04425(17) 0.5240(5) 0.67759(13)
N2F N 0.31477(17) 0.0455(5) 1.03028(13)
H1F H 0.3016 -0.0236 0.9979
C1F C 0.4815(2) -0.2133(7) 1.17153(19)
H2F H 0.5197 -0.2713 1.2029
C2F C 0.4529(3) -0.3233(7) 1.1201(2)
H3F H 0.4711 -0.4560 1.1173
C3F C 0.3978(2) -0.2404(7) 1.07299(19)
H4F H 0.3787 -0.3142 1.0378
C4F C 0.3706(2) -0.0417(6) 1.07867(16)
C5F C 0.4007(2) 0.0607(6) 1.13218(15)
H5F H 0.3824 0.1914 1.1368
C6F C 0.2803(2) 0.2254(7) 1.02984(17)
O2 O 0.2984(2) 0.7509(7) 0.93846(16)
N3 N 0.2643(2) 0.6236(6) 0.84643(16)
C7 C 0.3122(4) 0.4473(9) 0.8631(2)
H6 H 0.3392 0.4507 0.9047
H7 H 0.3456 0.4526 0.8429
H8 H 0.2842 0.3200 0.8529
C8 C 0.2194(3) 0.6453(8) 0.7853(2)
H9 H 0.1897 0.7691 0.7797
H10 H 0.1885 0.5242 0.7725
H11 H 0.2500 0.6571 0.7628
C9 C 0.2610(3) 0.7616(8) 0.8860(2)
H12 H 0.2285 0.8731 0.8731
O3 O 0.0000 0.5000 1.0000
C10 C 0.0535(8) 0.3366(19) 1.0261(6)
C11 C 0.0437(9) 0.1712(17) 0.9832(7)
C10D C -0.0535(8) 0.6634(19) 0.9739(6)
C11D C -0.0437(9) 0.8288(17) 1.0168(7)
C12? C -0.0169(9) 0.318(2) 0.9619(8)
loop_
_geom_bond_atom_site_label_1
_geom_bond_atom_site_label_2
_geom_bond_site_symmetry_1
_geom_bond_site_symmetry_2
Zn1 Cl1 1_555 1_555
O1 C6 1_555 1_555
N1 Zn1 1_555 1_555
N2 H1 1_555 1_555
C1 N1 1_555 1_555
H2 C1 1_555 1_555
C2 C1 1_555 1_555
H3 C2 1_555 1_555
C3 C2 1_555 1_555
H4 C3 1_555 1_555
C4 N2 1_555 1_555
C5 N1 1_555 1_555
H5 C5 1_555 1_555
C6 N2 1_555 1_555
O2 C9 1_555 1_555
N3 C7 1_555 1_555
C7 H6 1_555 1_555
H7 C7 1_555 1_555
H8 C7 1_555 1_555
C8 N3 1_555 1_555
H9 C8 1_555 1_555
H10 C8 1_555 1_555
H11 C8 1_555 1_555
C9 N3 1_555 1_555
H12 C9 1_555 1_555
O3 C10 1_555 1_555
C10 C11 1_555 1_555
Zn1F N1F 1_555 1_555
Cl1A Zn1 1_555 1_555
O1F C6F 1_555 1_555
N1F C1F 1_555 1_555
N1A Zn1 1_555 1_555
N2F H1F 1_555 1_555
C1F H2F 1_555 1_555
C2F C1F 1_555 1_555
H3F C2F 1_555 1_555
C3F C2F 1_555 1_555
H4F C3F 1_555 1_555
C4F N2F 1_555 1_555
C5F N1F 1_555 1_555
H5F C5F 1_555 1_555
C6F C6 1_555 1_555
C10D O3 1_555 1_555
C11D C10D 1_555 1_555
C3 C4 1_555 1_555
C4 C5 1_555 1_555
N2F C6F 1_555 1_555
C3F C4F 1_555 1_555
C4F C5F 1_555 1_555

#END
