
#######################################################################
#
#                 Cambridge Crystallographic Data Centre
#                                CCDC 
#
#######################################################################
#
# If this CIF has been generated from an entry in the Cambridge 
# Structural Database, then it will include bibliographic, chemical, 
# crystal, experimental, refinement or atomic coordinate data resulting 
# from the CCDC's data processing and validation procedures.
#
#######################################################################

data_XAKZUF
_symmetry_cell_setting           tetragonal
_symmetry_space_group_name_H-M   'I 41/a'
_symmetry_Int_Tables_number      88
_space_group_name_Hall           '-I 4ad'
loop_
_symmetry_equiv_pos_site_id
_symmetry_equiv_pos_as_xyz
1 x,y,z
2 3/4-y,1/4+x,1/4+z
3 1/2+x,1/2+y,1/2+z
4 1/4-y,3/4+x,3/4+z
5 1/4+y,1/4-x,1/4+z
6 1/2-x,-y,1/2+z
7 3/4+y,3/4-x,3/4+z
8 -x,1/2-y,z
9 -x,-y,-z
10 1/4+y,3/4-x,3/4-z
11 1/2-x,1/2-y,1/2-z
12 3/4+y,1/4-x,1/4-z
13 3/4-y,3/4+x,3/4-z
14 1/2+x,y,1/2-z
15 1/4-y,1/4+x,1/4-z
16 x,1/2+y,-z
_cell_length_a                   40.709(9)
_cell_length_b                   40.709(9)
_cell_length_c                   17.468(7)
_cell_angle_alpha                90
_cell_angle_beta                 90
_cell_angle_gamma                90
_cell_volume                     28948.4
loop_
_atom_site_label
_atom_site_type_symbol
_atom_site_fract_x
_atom_site_fract_y
_atom_site_fract_z
Mn1 Mn 0.295823(14) 0.824197(13) 0.07856(4)
O2 O 0.27079(8) 0.84493(7) 0.0036(2)
O3 O 0.27751(8) 0.74527(7) -0.06565(16)
O4 O 0.32031(6) 0.79578(6) 0.14742(16)
O5 O 0.34420(8) 0.83657(7) 0.0222(2)
N2 N 0.29019(8) 0.78262(7) 0.0264(2)
N3 N 0.30590(8) 0.75553(7) 0.06390(19)
N4 N 0.3999(2) 0.8390(2) 0.0195(8)
C4 C 0.25513(12) 0.83265(12) -0.0543(3)
C5 C 0.23497(17) 0.85414(15) -0.0990(4)
H8 H 0.2313 0.8759 -0.0811
C6 C 0.2211(2) 0.8449(2) -0.1647(5)
H9 H 0.2081 0.8602 -0.1922
C7 C 0.2252(2) 0.8136(3) -0.1938(5)
H10 H 0.2158 0.8076 -0.2416
C8 C 0.2438(2) 0.79066(17) -0.1503(4)
H11 H 0.2463 0.7688 -0.1685
C9 C 0.25829(13) 0.79985(12) -0.0816(3)
C10 C 0.27600(10) 0.77473(10) -0.0389(2)
C11 C 0.32021(8) 0.76529(9) 0.1259(2)
C12 C 0.33749(11) 0.74004(10) 0.1745(3)
H12 H 0.3503 0.7256 0.1400
H13 H 0.3206 0.7263 0.1995
C13 C 0.36040(18) 0.75268(15) 0.2359(4)
H14 H 0.3760 0.7682 0.2132
H15 H 0.3724 0.7342 0.2585
H16 H 0.3476 0.7638 0.2757
C14 C 0.3708(3) 0.8278(3) 0.0424(8)
C15 C 0.40323(15) 0.86312(16) -0.0312(5)
C16 C 0.4295(3) 0.8296(5) 0.0583(14)
H17 H 0.4435 0.8169 0.0235
H18 H 0.4240 0.8161 0.1030
H19 H 0.4413 0.8493 0.0751
Mn2 Mn 0.289133(15) 0.709123(13) 0.00461(3)
O6 O 0.33059(8) 0.69969(7) -0.03507(18)
O7 O 0.31744(6) 0.63438(6) 0.15214(16)
O8 O 0.24693(7) 0.71262(6) 0.05571(16)
N5 N 0.29370(7) 0.67417(7) 0.07927(18)
N6 N 0.26550(8) 0.66881(8) 0.1245(2)
N7 N 0.26291(12) 0.67619(10) -0.0826(2)
C17 C 0.35236(11) 0.67703(10) -0.0139(3)
C18 C 0.38153(14) 0.67542(13) -0.0565(3)
H20 H 0.3850 0.6905 -0.0973
C19 C 0.40528(14) 0.65222(16) -0.0398(4)
H21 H 0.4244 0.6509 -0.0709
C20 C 0.40175(12) 0.63109(14) 0.0208(4)
H22 H 0.4184 0.6155 0.0327
C21 C 0.37342(10) 0.63293(11) 0.0643(3)
H23 H 0.3708 0.6184 0.1065
C22 C 0.34850(9) 0.65562(9) 0.0477(2)
C23 C 0.31888(9) 0.65447(8) 0.0958(2)
C24 C 0.24278(10) 0.68975(10) 0.1072(3)
C25 C 0.20981(10) 0.68707(12) 0.1446(3)
H24 H 0.2089 0.6660 0.1728
H25 H 0.2078 0.7050 0.1827
C26 C 0.18114(19) 0.6887(3) 0.0923(6)
H26 H 0.1836 0.7075 0.0577
H27 H 0.1610 0.6912 0.1224
H28 H 0.1799 0.6684 0.0622
C27 C 0.2334(2) 0.68519(19) -0.1060(5)
H29 H 0.2253 0.7062 -0.0914
C28 C 0.2133(3) 0.6650(2) -0.1515(6)
H30 H 0.1915 0.6711 -0.1644
C29 C 0.2273(3) 0.63485(15) -0.1772(5)
C30 C 0.2534(3) 0.62587(16) -0.1450(5)
H31 H 0.2611 0.6041 -0.1526
C31 C 0.2714(2) 0.64689(14) -0.0987(4)
H32 H 0.2913 0.6389 -0.0775
C32 C 0.2104(3) 0.61233(18) -0.2356(6)
H33 H 0.2275 0.6029 -0.2693
H34 H 0.2001 0.5939 -0.2075
Mn3 Mn 0.220440(14) 0.863390(13) 0.27620(4)
O9 O 0.24060(7) 0.90105(7) 0.31263(17)
O10 O 0.30292(6) 0.86518(6) 0.13573(17)
O11 O 0.20526(6) 0.82341(6) 0.22736(17)
N8 N 0.25618(7) 0.85604(7) 0.20426(19)
N9 N 0.25359(8) 0.82664(7) 0.1623(2)
N10 N 0.14199(9) 0.56018(9) -0.4406(2)
C33 C 0.26571(11) 0.91776(10) 0.2833(3)
C34 C 0.27225(12) 0.94870(11) 0.3146(3)
H35 H 0.2589 0.9564 0.3554
C35 C 0.29724(13) 0.96817(11) 0.2887(3)
H36 H 0.3008 0.9891 0.3111
C36 C 0.31769(12) 0.95722(10) 0.2290(3)
H37 H 0.3350 0.9707 0.2102
C37 C 0.31202(10) 0.92665(9) 0.1987(2)
H38 H 0.3262 0.9188 0.1594
C38 C 0.28634(9) 0.90662(9) 0.2231(2)
C39 C 0.28177(9) 0.87475(9) 0.1860(2)
C40 C 0.22625(10) 0.81187(10) 0.1783(3)
C41 C 0.21717(17) 0.78092(14) 0.1380(5)
H39 H 0.2368 0.7710 0.1139
H40 H 0.2079 0.7649 0.1749
C42 C 0.1896(2) 0.7901(3) 0.0720(6)
H41 H 0.1973 0.8089 0.0419
H42 H 0.1865 0.7711 0.0381
H43 H 0.1687 0.7956 0.0967
C43 C 0.16508(12) 0.58066(12) -0.4636(3)
H44 H 0.1712 0.5808 -0.5161
C44 C 0.18084(14) 0.60207(14) -0.4132(3)
H45 H 0.1980 0.6159 -0.4310
C45 C 0.17130(14) 0.60305(17) -0.3364(3)
C46 C 0.14812(17) 0.58135(17) -0.3146(3)
H46 H 0.1414 0.5807 -0.2626
C47 C 0.13428(14) 0.56045(14) -0.3653(3)
H47 H 0.1184 0.5452 -0.3472
C48 C 0.18700(18) 0.6267(2) -0.2807(4)
H48 H 0.1972 0.6449 -0.3098
H49 H 0.1697 0.6362 -0.2476
O7J O 0.18256(6) 0.86562(6) 0.34786(16)
N6J N 0.23450(8) 0.83119(8) 0.3755(2)
Mn3J Mn 0.279560(14) 0.636610(13) 0.22380(4)
Mn3I Mn 0.113390(13) 0.529560(14) -0.52620(4)
N10L N 0.18982(9) 0.89199(9) 0.1906(2)
O1 O 0.1442(4) 0.6083(5) -0.0851(12)
N1 N 0.1630(4) 0.5916(4) 0.0274(10)
C1 C 0.1365(6) 0.6086(5) -0.0143(13)
H1 H 0.1173 0.6179 0.0076
C2 C 0.1964(8) 0.5970(8) 0.0245(19)
H2 H 0.2057 0.5949 0.0760
H3 H 0.2007 0.6191 0.0049
H4 H 0.2066 0.5808 -0.0094
C3 C 0.1562(4) 0.5972(4) 0.1050(9)
H5 H 0.1647 0.5790 0.1356
H6 H 0.1324 0.5989 0.1123
H7 H 0.1667 0.6177 0.1213
N11? N 0.3819(3) 0.8429(3) -0.0682(7)
C49? C 0.3537(3) 0.8302(3) -0.0379(7)
H50? H 0.3413 0.8153 -0.0681
C50? C 0.3921(6) 0.8366(6) -0.1506(14)
H51? H 0.3919 0.8574 -0.1789
H52? H 0.3767 0.8212 -0.1744
H53? H 0.4143 0.8273 -0.1515
O12? O 0.2744(5) 0.5648(5) 0.6213(13)
C51? C 0.2316(4) 0.5286(4) 0.6597(10)
C52? C 0.2582(9) 0.5522(10) 0.732(2)
H54? H 0.2761 0.5672 0.7354
C53? C 0.2282(7) 0.5284(7) 0.795(2)
H55? H 0.2273 0.5351 0.8470
C54? C 0.2055(6) 0.5001(5) 0.7735(13)
H56? H 0.2025 0.4834 0.8108
C55? C 0.1885(4) 0.4963(4) 0.7029(10)
H57? H 0.1677 0.4860 0.6969
C56? C 0.2065(4) 0.5098(4) 0.6454(11)
H58? H 0.2007 0.5054 0.5937
C57? C 0.2498(5) 0.5424(5) 0.5994(13)
C58? C 0.2548(13) 0.5275(12) 0.507(3)
H59? H 0.2345 0.5169 0.4867
C59? C 0.2825(4) 0.5083(4) 0.4970(11)
H60? H 0.2889 0.5087 0.4429
H61? H 0.2776 0.4857 0.5123
H62? H 0.3004 0.5169 0.5285
C60? C 0.2618(12) 0.5524(13) 0.474(4)
H63? H 0.2701 0.5469 0.4225
H64? H 0.2786 0.5644 0.5022
H65? H 0.2421 0.5662 0.4685
loop_
_geom_bond_atom_site_label_1
_geom_bond_atom_site_label_2
_geom_bond_site_symmetry_1
_geom_bond_site_symmetry_2
O1 C1 1_555 1_555
N1 C1 1_555 1_555
C1 H1 1_555 1_555
C2 N1 1_555 1_555
H2 C2 1_555 1_555
H3 C2 1_555 1_555
H4 C2 1_555 1_555
C3 N1 1_555 1_555
H5 C3 1_555 1_555
H6 C3 1_555 1_555
H7 C3 1_555 1_555
Mn1 O2 1_555 1_555
O2 C4 1_555 1_555
O3 C10 1_555 1_555
O4 Mn1 1_555 1_555
O5 Mn1 1_555 1_555
N2 Mn1 1_555 1_555
N3 N2 1_555 1_555
N4 C14 1_555 1_555
C4 C5 1_555 1_555
C5 H8 1_555 1_555
C6 C5 1_555 1_555
H9 C6 1_555 1_555
C7 C6 1_555 1_555
H10 C7 1_555 1_555
C8 C7 1_555 1_555
H11 C8 1_555 1_555
C9 C4 1_555 1_555
C10 N2 1_555 1_555
C11 O4 1_555 1_555
C12 C11 1_555 1_555
H12 C12 1_555 1_555
H13 C12 1_555 1_555
C13 C12 1_555 1_555
H14 C13 1_555 1_555
H15 C13 1_555 1_555
H16 C13 1_555 1_555
C14 O5 1_555 1_555
C15 N4 1_555 1_555
C16 N4 1_555 1_555
H17 C16 1_555 1_555
H18 C16 1_555 1_555
H19 C16 1_555 1_555
Mn2 O3 1_555 1_555
O6 Mn2 1_555 1_555
O7 C23 1_555 1_555
O8 Mn2 1_555 1_555
N5 Mn2 1_555 1_555
N6 N5 1_555 1_555
N7 Mn2 1_555 1_555
C17 O6 1_555 1_555
C18 C17 1_555 1_555
H20 C18 1_555 1_555
C19 C18 1_555 1_555
H21 C19 1_555 1_555
C20 C19 1_555 1_555
H22 C20 1_555 1_555
C21 C20 1_555 1_555
H23 C21 1_555 1_555
C22 C17 1_555 1_555
C23 N5 1_555 1_555
C24 O8 1_555 1_555
C25 C24 1_555 1_555
H24 C25 1_555 1_555
H25 C25 1_555 1_555
C26 C25 1_555 1_555
H26 C26 1_555 1_555
H27 C26 1_555 1_555
H28 C26 1_555 1_555
C27 N7 1_555 1_555
H29 C27 1_555 1_555
C28 C27 1_555 1_555
H30 C28 1_555 1_555
C29 C28 1_555 1_555
C30 C29 1_555 1_555
H31 C30 1_555 1_555
C31 N7 1_555 1_555
H32 C31 1_555 1_555
C32 C29 1_555 1_555
H33 C32 1_555 1_555
H34 C32 1_555 1_555
Mn3 O9 1_555 1_555
O9 C33 1_555 1_555
O10 Mn1 1_555 1_555
O11 Mn3 1_555 1_555
N8 Mn3 1_555 1_555
N9 Mn1 1_555 1_555
N10 C43 1_555 1_555
C33 C34 1_555 1_555
C34 H35 1_555 1_555
C35 C34 1_555 1_555
H36 C35 1_555 1_555
C36 C35 1_555 1_555
H37 C36 1_555 1_555
C37 C36 1_555 1_555
H38 C37 1_555 1_555
C38 C33 1_555 1_555
C39 O10 1_555 1_555
C40 O11 1_555 1_555
C41 C40 1_555 1_555
H39 C41 1_555 1_555
H40 C41 1_555 1_555
C42 C41 1_555 1_555
H41 C42 1_555 1_555
H42 C42 1_555 1_555
H43 C42 1_555 1_555
C43 H44 1_555 1_555
C44 C43 1_555 1_555
H45 C44 1_555 1_555
C45 C44 1_555 1_555
C46 C45 1_555 1_555
H46 C46 1_555 1_555
C47 N10 1_555 1_555
H47 C47 1_555 1_555
C48 C32 1_555 1_555
H48 C48 1_555 1_555
H49 C48 1_555 1_555
O7J Mn3 1_555 1_555
N6J Mn3 1_555 1_555
Mn3J O7 1_555 1_555
Mn3I N10 1_555 1_555
N10L Mn3 1_555 1_555
N3 C11 1_555 1_555
N3 Mn2 1_555 1_555
C8 C9 1_555 1_555
C9 C10 1_555 1_555
N6 C24 1_555 1_555
N6 Mn3J 1_555 1_555
C21 C22 1_555 1_555
C22 C23 1_555 1_555
C30 C31 1_555 1_555
N8 N9 1_555 1_555
N8 C39 1_555 1_555
N9 C40 1_555 1_555
C37 C38 1_555 1_555
C38 C39 1_555 1_555
C45 C48 1_555 1_555
C46 C47 1_555 1_555

#END
