
#######################################################################
#
#                 Cambridge Crystallographic Data Centre
#                                CCDC 
#
#######################################################################
#
# If this CIF has been generated from an entry in the Cambridge 
# Structural Database, then it will include bibliographic, chemical, 
# crystal, experimental, refinement or atomic coordinate data resulting 
# from the CCDC's data processing and validation procedures.
#
#######################################################################

data_XAKZIU
_symmetry_cell_setting           monoclinic
_symmetry_space_group_name_H-M   'P 21/n'
_symmetry_Int_Tables_number      14
_space_group_name_Hall           '-P 2yn'
loop_
_symmetry_equiv_pos_site_id
_symmetry_equiv_pos_as_xyz
1 x,y,z
2 1/2-x,1/2+y,1/2-z
3 -x,-y,-z
4 1/2+x,1/2-y,1/2+z
_cell_length_a                   8.0495(5)
_cell_length_b                   14.3082(9)
_cell_length_c                   22.4805(13)
_cell_angle_alpha                90
_cell_angle_beta                 91.7920(10)
_cell_angle_gamma                90
_cell_volume                     2587.9
loop_
_atom_site_label
_atom_site_type_symbol
_atom_site_fract_x
_atom_site_fract_y
_atom_site_fract_z
Zn1 Zn 0.64448(7) 0.14887(4) 0.20686(2)
I1 I 0.36801(6) 0.21165(4) 0.24101(2)
I2 I 0.64385(5) 0.01859(3) 0.129757(15)
O1 O 1.1662(5) 0.4739(3) 0.05397(14)
O2 O 1.0828(6) 0.3230(3) -0.06450(15)
N1 N 0.8037(5) 0.2536(3) 0.18222(15)
N2 N 1.0233(5) 0.3357(3) 0.05229(15)
H1 H 0.9940 0.2899 0.0295
N3 N 1.2392(5) 0.4557(3) -0.06098(15)
H2 H 1.2679 0.5015 -0.0381
N4 N 1.2772(5) 0.4069(3) -0.22069(15)
C1 C 0.8547(6) 0.3153(4) 0.22357(18)
H3 H 0.8131 0.3106 0.2616
C2 C 0.9653(6) 0.3849(4) 0.21226(19)
H4 H 1.0000 0.4258 0.2423
C3 C 1.0250(6) 0.3940(3) 0.15565(18)
H5 H 1.0995 0.4415 0.1471
C4 C 0.9737(5) 0.3323(3) 0.11197(17)
C5 C 0.8625(6) 0.2615(3) 0.12685(17)
H6 H 0.8281 0.2188 0.0978
C6 C 1.1123(6) 0.4045(3) 0.02842(18)
C7 C 1.1414(6) 0.3894(3) -0.03838(18)
C8 C 1.2982(5) 0.4559(3) -0.11908(18)
C9 C 1.4383(6) 0.5083(4) -0.1312(2)
H7 H 1.4917 0.5436 -0.1016
C10 C 1.4963(7) 0.5066(5) -0.1881(2)
H8 H 1.5909 0.5403 -0.1972
C11 C 1.4153(7) 0.4557(5) -0.2310(2)
H9 H 1.4575 0.4547 -0.2690
C12 C 1.2192(5) 0.4071(3) -0.16572(17)
H10 H 1.1229 0.3737 -0.1582
Zn1C Zn 1.14448(7) 0.35113(4) -0.29314(2)
N4C N 0.7772(5) 0.0931(3) 0.27931(15)
O3 O 0.8952(6) 0.1654(3) -0.00099(16)
N5 N 0.8571(6) 0.0598(3) -0.07473(18)
C13 C 0.9034(9) 0.1415(5) -0.0526(3)
H11 H 0.9460 0.1847 -0.0790
C14 C 0.8613(11) 0.0314(9) -0.1337(4)
H12 H 0.9102 0.0798 -0.1570
H13 H 0.7502 0.0194 -0.1485
H14 H 0.9265 -0.0245 -0.1364
C15 C 0.7842(11) -0.0089(6) -0.0338(4)
H15 H 0.7869 0.0160 0.0058
H16 H 0.8472 -0.0658 -0.0346
H17 H 0.6712 -0.0214 -0.0463
O4 O 0.6243(6) 0.3756(3) 0.01697(17)
N6 N 0.5380(6) 0.2689(3) -0.0519(2)
C16 C 0.6181(7) 0.3449(4) -0.0334(3)
H18 H 0.6753 0.3780 -0.0619
C17 C 0.4540(10) 0.2124(5) -0.0098(4)
H19 H 0.4670 0.2397 0.0291
H20 H 0.5008 0.1507 -0.0093
H21 H 0.3380 0.2090 -0.0208
C18 C 0.5347(11) 0.2405(5) -0.1134(3)
H22 H 0.5944 0.2852 -0.1364
H23 H 0.4216 0.2372 -0.1282
H24 H 0.5859 0.1802 -0.1168
loop_
_geom_bond_atom_site_label_1
_geom_bond_atom_site_label_2
_geom_bond_site_symmetry_1
_geom_bond_site_symmetry_2
Zn1 I1 1_555 1_555
I2 Zn1 1_555 1_555
O1 C6 1_555 1_555
O2 C7 1_555 1_555
O3 C13 1_555 1_555
O4 C16 1_555 1_555
N1 Zn1 1_555 1_555
N2 H1 1_555 1_555
N3 H2 1_555 1_555
N4 C11 1_555 1_555
N5 C13 1_555 1_555
N6 C16 1_555 1_555
C1 N1 1_555 1_555
H3 C1 1_555 1_555
C2 C1 1_555 1_555
H4 C2 1_555 1_555
C3 C2 1_555 1_555
H5 C3 1_555 1_555
C4 N2 1_555 1_555
C5 N1 1_555 1_555
H6 C5 1_555 1_555
C6 N2 1_555 1_555
C7 N3 1_555 1_555
C8 N3 1_555 1_555
C9 C8 1_555 1_555
H7 C9 1_555 1_555
C10 C9 1_555 1_555
H8 C10 1_555 1_555
C11 C10 1_555 1_555
H9 C11 1_555 1_555
C12 N4 1_555 1_555
H10 C12 1_555 1_555
C13 H11 1_555 1_555
C14 N5 1_555 1_555
H12 C14 1_555 1_555
H13 C14 1_555 1_555
H14 C14 1_555 1_555
C15 N5 1_555 1_555
H15 C15 1_555 1_555
H16 C15 1_555 1_555
H17 C15 1_555 1_555
C16 H18 1_555 1_555
C17 N6 1_555 1_555
H19 C17 1_555 1_555
H20 C17 1_555 1_555
H21 C17 1_555 1_555
C18 N6 1_555 1_555
H22 C18 1_555 1_555
H23 C18 1_555 1_555
H24 C18 1_555 1_555
Zn1C N4 1_555 1_555
N4C Zn1 1_555 1_555
C3 C4 1_555 1_555
C4 C5 1_555 1_555
C6 C7 1_555 1_555
C8 C12 1_555 1_555

#END
