
#######################################################################
#
#                 Cambridge Crystallographic Data Centre
#                                CCDC 
#
#######################################################################
#
# If this CIF has been generated from an entry in the Cambridge 
# Structural Database, then it will include bibliographic, chemical, 
# crystal, experimental, refinement or atomic coordinate data resulting 
# from the CCDC's data processing and validation procedures.
#
#######################################################################

data_XALCAP
_symmetry_cell_setting           tetragonal
_symmetry_space_group_name_H-M   'I 41/a'
_symmetry_Int_Tables_number      88
_space_group_name_Hall           '-I 4ad'
loop_
_symmetry_equiv_pos_site_id
_symmetry_equiv_pos_as_xyz
1 x,y,z
2 3/4-y,1/4+x,1/4+z
3 1/2+x,1/2+y,1/2+z
4 1/4-y,3/4+x,3/4+z
5 1/4+y,1/4-x,1/4+z
6 1/2-x,-y,1/2+z
7 3/4+y,3/4-x,3/4+z
8 -x,1/2-y,z
9 -x,-y,-z
10 1/4+y,3/4-x,3/4-z
11 1/2-x,1/2-y,1/2-z
12 3/4+y,1/4-x,1/4-z
13 3/4-y,3/4+x,3/4-z
14 1/2+x,y,1/2-z
15 1/4-y,1/4+x,1/4-z
16 x,1/2+y,-z
_cell_length_a                   40.609(3)
_cell_length_b                   40.609(3)
_cell_length_c                   17.4132(18)
_cell_angle_alpha                90
_cell_angle_beta                 90
_cell_angle_gamma                90
_cell_volume                     28715.9
loop_
_atom_site_label
_atom_site_type_symbol
_atom_site_fract_x
_atom_site_fract_y
_atom_site_fract_z
Mn1 Mn 0.57473(2) 0.54579(2) 0.17267(5)
O2 O 0.59567(10) 0.52093(11) 0.2479(3)
O3 O 0.49550(10) 0.52677(11) 0.3163(2)
O4 O 0.54613(8) 0.57055(9) 0.1037(2)
N2 N 0.53304(10) 0.53971(11) 0.2240(2)
N3 N 0.50602(10) 0.55518(11) 0.1865(2)
O5 O 0.58753(11) 0.59428(11) 0.2290(3)
C4 C 0.58309(18) 0.50559(17) 0.3081(4)
C5 C 0.6039(2) 0.4860(2) 0.3526(5)
H8 H 0.6261 0.4831 0.3368
C6 C 0.5935(3) 0.4712(3) 0.4172(6)
H9 H 0.6084 0.4574 0.4442
C7 C 0.5628(3) 0.4750(2) 0.4453(6)
H10 H 0.5564 0.4650 0.4923
C8 C 0.5404(2) 0.4946(2) 0.4017(5)
H11 H 0.5186 0.4982 0.4201
C9 C 0.55020(16) 0.50827(16) 0.3328(3)
C10 C 0.52471(16) 0.52594(15) 0.2907(3)
C11 C 0.51574(12) 0.56992(13) 0.1248(3)
C12 C 0.49023(14) 0.58734(15) 0.0766(3)
H12 H 0.4777 0.5706 0.0476
H13 H 0.4746 0.5986 0.1115
C13 C 0.5030(3) 0.6116(3) 0.0221(10)
H14 H 0.5083 0.6320 0.0494
H15 H 0.4863 0.6161 -0.0171
H16 H 0.5229 0.6029 -0.0024
N4 N 0.5939(5) 0.6508(3) 0.2380(8)
C14 C 0.5768(4) 0.6168(4) 0.2188(18)
H17 H 0.5555 0.6172 0.1966
C15 C 0.6084(4) 0.6431(5) 0.3026(8)
H18 H 0.6039 0.6602 0.3409
H19 H 0.6322 0.6414 0.2943
H20 H 0.5999 0.6219 0.3210
C16 C 0.5807(6) 0.6789(4) 0.1943(14)
H21 H 0.5777 0.6977 0.2289
H22 H 0.5595 0.6729 0.1716
H23 H 0.5962 0.6849 0.1535
Mn2 Mn 0.45948(2) 0.53871(2) 0.24546(5)
O6 O 0.44945(10) 0.57965(11) 0.2867(2)
O7 O 0.38430(9) 0.56747(9) 0.0982(2)
O8 O 0.46326(9) 0.49674(10) 0.1939(2)
N5 N 0.42446(11) 0.54324(11) 0.1710(2)
N6 N 0.41930(11) 0.51532(11) 0.1253(3)
N7 N 0.42654(14) 0.51229(19) 0.3313(3)
C17 C 0.42741(15) 0.60147(16) 0.2665(4)
C18 C 0.42438(17) 0.6299(2) 0.3102(4)
H24 H 0.4391 0.6331 0.3519
C19 C 0.40119(18) 0.65361(18) 0.2963(4)
H25 H 0.3999 0.6725 0.3282
C20 C 0.37961(18) 0.64984(16) 0.2351(4)
H26 H 0.3631 0.6658 0.2251
C21 C 0.38269(14) 0.62249(14) 0.1895(3)
H27 H 0.3687 0.6206 0.1459
C22 C 0.40451(13) 0.59815(14) 0.2033(3)
C23 C 0.40475(13) 0.56864(14) 0.1548(3)
C24 C 0.44041(15) 0.49330(15) 0.1418(3)
C25 C 0.43799(18) 0.45959(15) 0.1031(4)
H28 H 0.4164 0.4580 0.0771
H29 H 0.4553 0.4581 0.0632
C26 C 0.4416(4) 0.4309(2) 0.1559(8)
H30 H 0.4602 0.4347 0.1907
H31 H 0.4456 0.4109 0.1258
H32 H 0.4213 0.4282 0.1860
C27 C 0.4347(2) 0.4837(3) 0.3556(5)
H33 H 0.4558 0.4754 0.3420
C28 C 0.4143(3) 0.4639(3) 0.4012(6)
H34 H 0.4200 0.4421 0.4152
C29 C 0.3845(2) 0.4789(3) 0.4248(5)
C30 C 0.3762(2) 0.5042(3) 0.3948(5)
H35 H 0.3545 0.5124 0.4024
C31 C 0.3981(2) 0.5214(3) 0.3491(4)
H36 H 0.3909 0.5420 0.3294
C32 C 0.3597(3) 0.4606(4) 0.4805(7)
H37 H 0.3478 0.4774 0.5109
H38 H 0.3433 0.4488 0.4489
Mn3 Mn 0.61341(2) 0.47063(2) -0.02612(5)
O9 O 0.65079(9) 0.49096(10) -0.0632(2)
O10 O 0.61583(8) 0.55294(9) 0.1149(2)
O11 O 0.57384(9) 0.45515(9) 0.0234(2)
N8 N 0.60647(10) 0.50626(10) 0.0459(2)
N9 N 0.57728(11) 0.50364(11) 0.0882(3)
N10 N 0.30951(12) 0.39233(12) 0.6902(3)
C33 C 0.66838(14) 0.51590(14) -0.0341(3)
C34 C 0.69869(15) 0.52254(16) -0.0655(3)
H39 H 0.7063 0.5094 -0.1071
C35 C 0.71827(16) 0.54734(17) -0.0391(4)
H40 H 0.7393 0.5509 -0.0617
C36 C 0.70771(15) 0.56757(16) 0.0210(3)
H41 H 0.7212 0.5849 0.0399
C37 C 0.67764(14) 0.56169(14) 0.0514(3)
H42 H 0.6702 0.5756 0.0918
C38 C 0.65678(12) 0.53633(13) 0.0269(3)
C39 C 0.62536(12) 0.53166(13) 0.0642(3)
C40 C 0.56233(13) 0.47625(14) 0.0731(3)
C41 C 0.53178(19) 0.4667(2) 0.1155(5)
H43 H 0.5221 0.4863 0.1407
H44 H 0.5153 0.4576 0.0794
C42 C 0.5417(3) 0.4385(3) 0.1815(6)
H45 H 0.5633 0.4437 0.2033
H46 H 0.5251 0.4386 0.2225
H47 H 0.5424 0.4167 0.1575
C43 C 0.33063(16) 0.41481(17) 0.7112(4)
H48 H 0.3313 0.4207 0.7639
C44 C 0.3520(2) 0.43050(19) 0.6617(4)
H49 H 0.3672 0.4464 0.6805
C45 C 0.3508(2) 0.4228(2) 0.5835(4)
C46 C 0.3275(2) 0.4002(2) 0.5629(4)
H50 H 0.3252 0.3946 0.5103
C47 C 0.30792(18) 0.38563(19) 0.6148(4)
H51 H 0.2923 0.3699 0.5975
C48 C 0.3737(3) 0.4391(2) 0.5291(5)
H52 H 0.3908 0.4508 0.5591
H53 H 0.3849 0.4219 0.4986
O7H O 0.61570(9) 0.43253(9) -0.0982(2)
N6H N 0.58070(11) 0.48468(11) -0.1253(3)
Mn3H Mn 0.38659(2) 0.52937(2) 0.02612(5)
Mn3L Mn 0.27937(2) 0.36341(2) 0.77612(5)
N10I N 0.64233(12) 0.44049(12) 0.0598(3)
O1 O 0.3398(17) 0.4094(11) 0.345(2)
N1 N 0.3474(3) 0.4188(4) 0.2219(7)
C1 C 0.3572(4) 0.3961(5) 0.296(2)
H1 H 0.3718 0.3779 0.2994
C2 C 0.3327(10) 0.4437(7) 0.2540(14)
H2 H 0.3122 0.4362 0.2781
H3 H 0.3276 0.4603 0.2149
H4 H 0.3471 0.4533 0.2931
C3 C 0.3462(4) 0.4062(4) 0.1455(10)
H5 H 0.3685 0.4003 0.1289
H6 H 0.3373 0.4231 0.1111
H7 H 0.3321 0.3867 0.1441
loop_
_geom_bond_atom_site_label_1
_geom_bond_atom_site_label_2
_geom_bond_site_symmetry_1
_geom_bond_site_symmetry_2
O1 C1 1_555 1_555
N1 C1 1_555 1_555
C1 H1 1_555 1_555
C2 N1 1_555 1_555
H2 C2 1_555 1_555
H3 C2 1_555 1_555
H4 C2 1_555 1_555
C3 N1 1_555 1_555
H5 C3 1_555 1_555
H6 C3 1_555 1_555
H7 C3 1_555 1_555
Mn1 O2 1_555 1_555
O2 C4 1_555 1_555
O3 C10 1_555 1_555
O4 Mn1 1_555 1_555
N2 Mn1 1_555 1_555
N3 N2 1_555 1_555
O5 Mn1 1_555 1_555
C4 C5 1_555 1_555
C5 H8 1_555 1_555
C6 C5 1_555 1_555
H9 C6 1_555 1_555
C7 C6 1_555 1_555
H10 C7 1_555 1_555
C8 C7 1_555 1_555
H11 C8 1_555 1_555
C9 C4 1_555 1_555
C10 N2 1_555 1_555
C11 O4 1_555 1_555
C12 C11 1_555 1_555
H12 C12 1_555 1_555
H13 C12 1_555 1_555
C13 C12 1_555 1_555
H14 C13 1_555 1_555
H15 C13 1_555 1_555
H16 C13 1_555 1_555
N4 C14 1_555 1_555
C14 O5 1_555 1_555
H17 C14 1_555 1_555
C15 N4 1_555 1_555
H18 C15 1_555 1_555
H19 C15 1_555 1_555
H20 C15 1_555 1_555
C16 N4 1_555 1_555
H21 C16 1_555 1_555
H22 C16 1_555 1_555
H23 C16 1_555 1_555
Mn2 O3 1_555 1_555
O6 Mn2 1_555 1_555
O7 C23 1_555 1_555
O8 Mn2 1_555 1_555
N5 Mn2 1_555 1_555
N6 N5 1_555 1_555
N7 Mn2 1_555 1_555
C17 O6 1_555 1_555
C18 C17 1_555 1_555
H24 C18 1_555 1_555
C19 C18 1_555 1_555
H25 C19 1_555 1_555
C20 C19 1_555 1_555
H26 C20 1_555 1_555
C21 C20 1_555 1_555
H27 C21 1_555 1_555
C22 C17 1_555 1_555
C23 N5 1_555 1_555
C24 O8 1_555 1_555
C25 C24 1_555 1_555
H28 C25 1_555 1_555
H29 C25 1_555 1_555
C26 C25 1_555 1_555
H30 C26 1_555 1_555
H31 C26 1_555 1_555
H32 C26 1_555 1_555
C27 N7 1_555 1_555
H33 C27 1_555 1_555
C28 C27 1_555 1_555
H34 C28 1_555 1_555
C29 C28 1_555 1_555
C30 C29 1_555 1_555
H35 C30 1_555 1_555
C31 N7 1_555 1_555
H36 C31 1_555 1_555
C32 C29 1_555 1_555
H37 C32 1_555 1_555
H38 C32 1_555 1_555
Mn3 O9 1_555 1_555
O9 C33 1_555 1_555
O10 Mn1 1_555 1_555
O11 Mn3 1_555 1_555
N8 Mn3 1_555 1_555
N9 Mn1 1_555 1_555
N10 C43 1_555 1_555
C33 C34 1_555 1_555
C34 H39 1_555 1_555
C35 C34 1_555 1_555
H40 C35 1_555 1_555
C36 C35 1_555 1_555
H41 C36 1_555 1_555
C37 C36 1_555 1_555
H42 C37 1_555 1_555
C38 C33 1_555 1_555
C39 O10 1_555 1_555
C40 O11 1_555 1_555
C41 C40 1_555 1_555
H43 C41 1_555 1_555
H44 C41 1_555 1_555
C42 C41 1_555 1_555
H45 C42 1_555 1_555
H46 C42 1_555 1_555
H47 C42 1_555 1_555
C43 H48 1_555 1_555
C44 C43 1_555 1_555
H49 C44 1_555 1_555
C45 C44 1_555 1_555
C46 C45 1_555 1_555
H50 C46 1_555 1_555
C47 N10 1_555 1_555
H51 C47 1_555 1_555
C48 C32 1_555 1_555
H52 C48 1_555 1_555
H53 C48 1_555 1_555
O7H Mn3 1_555 1_555
N6H Mn3 1_555 1_555
Mn3H O7 1_555 1_555
Mn3L N10 1_555 1_555
N10I Mn3 1_555 1_555
N3 C11 1_555 1_555
N3 Mn2 1_555 1_555
C8 C9 1_555 1_555
C9 C10 1_555 1_555
N6 C24 1_555 1_555
N6 Mn3H 1_555 1_555
C21 C22 1_555 1_555
C22 C23 1_555 1_555
C30 C31 1_555 1_555
N8 N9 1_555 1_555
N8 C39 1_555 1_555
N9 C40 1_555 1_555
C37 C38 1_555 1_555
C38 C39 1_555 1_555
C45 C48 1_555 1_555
C46 C47 1_555 1_555

#END
