
#######################################################################
#
#                 Cambridge Crystallographic Data Centre
#                                CCDC 
#
#######################################################################
#
# If this CIF has been generated from an entry in the Cambridge 
# Structural Database, then it will include bibliographic, chemical, 
# crystal, experimental, refinement or atomic coordinate data resulting 
# from the CCDC's data processing and validation procedures.
#
#######################################################################

data_XALDAQ
_symmetry_cell_setting           tetragonal
_symmetry_space_group_name_H-M   'I 41/a'
_symmetry_Int_Tables_number      88
_space_group_name_Hall           '-I 4ad'
loop_
_symmetry_equiv_pos_site_id
_symmetry_equiv_pos_as_xyz
1 x,y,z
2 3/4-y,1/4+x,1/4+z
3 1/2+x,1/2+y,1/2+z
4 1/4-y,3/4+x,3/4+z
5 1/4+y,1/4-x,1/4+z
6 1/2-x,-y,1/2+z
7 3/4+y,3/4-x,3/4+z
8 -x,1/2-y,z
9 -x,-y,-z
10 1/4+y,3/4-x,3/4-z
11 1/2-x,1/2-y,1/2-z
12 3/4+y,1/4-x,1/4-z
13 3/4-y,3/4+x,3/4-z
14 1/2+x,y,1/2-z
15 1/4-y,1/4+x,1/4-z
16 x,1/2+y,-z
_cell_length_a                   40.792(6)
_cell_length_b                   40.792(6)
_cell_length_c                   17.442(4)
_cell_angle_alpha                90
_cell_angle_beta                 90
_cell_angle_gamma                90
_cell_volume                     29023.3
loop_
_atom_site_label
_atom_site_type_symbol
_atom_site_fract_x
_atom_site_fract_y
_atom_site_fract_z
Mn1 Mn 0.219944(15) 0.636424(15) 0.27451(4)
O2 O 0.24171(7) 0.60066(7) 0.31488(17)
O3 O 0.29824(7) 0.63183(6) 0.12264(17)
O4 O 0.20261(6) 0.67397(7) 0.22115(17)
N2 N 0.25480(8) 0.64318(8) 0.19977(19)
N3 N 0.25063(8) 0.67136(8) 0.1537(2)
N4 N 0.19179(9) 0.60406(9) 0.1900(2)
C4 C 0.26610(10) 0.58332(10) 0.2844(2)
C5 C 0.27379(12) 0.55336(11) 0.3190(3)
H8 H 0.2616 0.5465 0.3626
C6 C 0.29813(12) 0.53371(12) 0.2921(3)
H9 H 0.3026 0.5134 0.3168
C7 C 0.31659(11) 0.54308(11) 0.2286(3)
H10 H 0.3336 0.5294 0.2094
C8 C 0.30956(10) 0.57243(10) 0.1947(3)
H11 H 0.3222 0.5791 0.1517
C9 C 0.28477(9) 0.59296(10) 0.2201(3)
C10 C 0.27943(10) 0.62430(10) 0.1786(3)
C11 C 0.22268(10) 0.68524(10) 0.1693(3)
C12 C 0.21167(12) 0.71462(11) 0.1241(3)
H12 H 0.2306 0.7241 0.0964
H13 H 0.2029 0.7315 0.1593
C13 C 0.18398(16) 0.70429(16) 0.0641(4)
H14 H 0.1933 0.6891 0.0255
H15 H 0.1659 0.6929 0.0910
C14 C 0.1710(4) 0.7348(3) 0.0250(7)
H16 H 0.1535 0.7443 0.0573
H17 H 0.1890 0.7511 0.0221
C15 C 0.1601(5) 0.7307(4) -0.0394(9)
H18 H 0.1416 0.7150 -0.0366
H19 H 0.1774 0.7206 -0.0716
C16 C 0.1472(3) 0.7649(3) -0.0815(8)
H20 H 0.1330 0.7770 -0.0462
H21 H 0.1349 0.7593 -0.1279
H22 H 0.1662 0.7785 -0.0952
C17 C 0.17131(11) 0.58079(11) 0.2133(3)
H23 H 0.1689 0.5771 0.2668
C18 C 0.15344(12) 0.56177(13) 0.1632(3)
H24 H 0.1397 0.5448 0.1823
C19 C 0.15545(13) 0.56728(15) 0.0862(3)
C20 C 0.17734(14) 0.59128(14) 0.0624(3)
H25 H 0.1802 0.5954 0.0092
C21 C 0.19470(12) 0.60896(13) 0.1144(3)
H26 H 0.2094 0.6253 0.0966
C22 C 0.13430(19) 0.5470(2) 0.0314(4)
H27 H 0.1359 0.5237 0.0472
H28 H 0.1112 0.5538 0.0384
Mn2 Mn 0.291024(15) 0.673347(15) 0.06719(4)
O5 O 0.26368(7) 0.65541(7) -0.00736(18)
O6 O 0.27582(7) 0.75563(7) -0.06767(16)
O7 O 0.31741(6) 0.69848(6) 0.13759(16)
O8 O 0.33607(8) 0.66155(7) -0.00061(19)
N5 N 0.28690(8) 0.71624(8) 0.0208(2)
N6 N 0.30219(8) 0.74192(8) 0.0625(2)
N7 N 0.39040(11) 0.65097(11) -0.0086(3)
C23 C 0.25095(11) 0.66902(11) -0.0697(3)
C24 C 0.23109(12) 0.64931(13) -0.1160(3)
H29 H 0.2264 0.6275 -0.1007
C25 C 0.21830(14) 0.66113(16) -0.1833(4)
H30 H 0.2048 0.6472 -0.2134
C26 C 0.22454(14) 0.69292(16) -0.2087(3)
H31 H 0.2165 0.7005 -0.2566
C27 C 0.24275(13) 0.71289(13) -0.1618(3)
H32 H 0.2462 0.7350 -0.1768
C28 C 0.25641(10) 0.70204(11) -0.0930(3)
C29 C 0.27374(10) 0.72572(11) -0.0451(3)
C30 C 0.31685(10) 0.73013(10) 0.1222(2)
C31 C 0.33439(11) 0.75266(10) 0.1769(3)
H33 H 0.3243 0.7508 0.2283
H34 H 0.3317 0.7756 0.1593
C32 C 0.37079(12) 0.74474(11) 0.1828(3)
H35 H 0.3734 0.7215 0.1976
H36 H 0.3806 0.7583 0.2239
C33 C 0.38943(12) 0.75078(14) 0.1084(4)
H37 H 0.3806 0.7361 0.0683
H38 H 0.3855 0.7736 0.0917
C34 C 0.42600(15) 0.74522(17) 0.1150(5)
H39 H 0.4300 0.7224 0.1319
H40 H 0.4350 0.7601 0.1546
C35 C 0.44383(17) 0.7512(2) 0.0396(6)
H41 H 0.4353 0.7363 0.0004
H42 H 0.4673 0.7473 0.0466
H43 H 0.4404 0.7739 0.0233
C36 C 0.36308(13) 0.66120(12) 0.0263(3)
H44 H 0.3653 0.6690 0.0774
C37 C 0.38949(17) 0.63889(17) -0.0849(5)
H45 H 0.3670 0.6401 -0.1044
H46 H 0.3969 0.6161 -0.0856
H47 H 0.4039 0.6522 -0.1173
C38 C 0.42133(14) 0.64947(19) 0.0297(5)
H48 H 0.4369 0.6642 0.0042
H49 H 0.4297 0.6270 0.0280
H50 H 0.4186 0.6563 0.0833
Mn3 Mn 0.211750(15) 0.709840(15) 0.49300(4)
O9 O 0.17026(7) 0.70150(7) 0.53195(17)
O10 O 0.18291(6) 0.63458(7) 0.34763(16)
O11 O 0.25349(6) 0.71295(6) 0.44134(16)
N8 N 0.20600(8) 0.67544(7) 0.41672(19)
N9 N 0.23347(8) 0.67167(8) 0.36828(19)
N10 N 0.07429(10) 0.48778(9) -0.1729(2)
C39 C 0.14940(10) 0.67767(10) 0.5148(3)
C40 C 0.12114(12) 0.67522(11) 0.5603(3)
H51 H 0.1176 0.6905 0.6006
C41 C 0.09855(12) 0.65106(12) 0.5475(3)
H52 H 0.0795 0.6501 0.5787
C42 C 0.10281(11) 0.62802(12) 0.4905(3)
H53 H 0.0873 0.6109 0.4832
C43 C 0.12986(10) 0.63048(11) 0.4447(3)
H54 H 0.1328 0.6151 0.4045
C44 C 0.15344(9) 0.65500(10) 0.4554(2)
C45 C 0.18174(9) 0.65496(9) 0.4033(2)
C46 C 0.25662(10) 0.69145(10) 0.3861(3)
C47 C 0.28937(10) 0.69021(11) 0.3469(3)
H55 H 0.2876 0.6769 0.2996
H56 H 0.2961 0.7127 0.3322
C48 C 0.31533(12) 0.67521(14) 0.4001(3)
H57 H 0.3154 0.6874 0.4492
H58 H 0.3372 0.6780 0.3764
C49 C 0.30986(15) 0.63952(15) 0.4163(4)
H59 H 0.2881 0.6370 0.4406
H60 H 0.3093 0.6276 0.3669
C50 C 0.33538(16) 0.62344(19) 0.4677(4)
H61 H 0.3356 0.6350 0.5177
H62 H 0.3573 0.6263 0.4441
C51 C 0.3297(2) 0.5874(2) 0.4819(6)
H63 H 0.3324 0.5753 0.4338
H64 H 0.3456 0.5794 0.5197
H65 H 0.3074 0.5841 0.5014
C52 C 0.06605(14) 0.51788(13) -0.1500(3)
H66 H 0.0447 0.5258 -0.1617
C53 C 0.08732(15) 0.53807(16) -0.1096(3)
H67 H 0.0806 0.5595 -0.0949
C54 C 0.11834(17) 0.52681(14) -0.0911(4)
C55 C 0.12564(17) 0.49547(13) -0.1132(3)
H68 H 0.1461 0.4862 -0.0993
C56 C 0.10379(13) 0.47742(12) -0.1549(3)
H69 H 0.1103 0.4562 -0.1717
C57 C 0.1415(2) 0.54870(16) -0.0464(4)
H70 H 0.1393 0.5716 -0.0643
H71 H 0.1644 0.5416 -0.0552
O6J O 0.22418(7) 0.74437(7) 0.56767(16)
N6J N 0.19781(8) 0.75808(8) 0.4375(2)
Mn3J Mn 0.288250(15) 0.790160(15) 0.00700(4)
Mn3A Mn 0.040160(15) 0.461750(15) -0.25700(4)
N10F N 0.23778(9) 0.67571(10) 0.5771(2)
O1 O 0.4030(3) 0.7528(4) 0.7574(11)
N1 N 0.3652(3) 0.7385(3) 0.8287(6)
C1 C 0.4015(7) 0.7215(7) 0.806(2)
H1 H 0.4143 0.7026 0.8172
C2 C 0.3362(3) 0.7514(4) 0.7901(7)
H2 H 0.3204 0.7336 0.7820
H3 H 0.3425 0.7607 0.7405
H4 H 0.3261 0.7685 0.8219
C3 C 0.3604(3) 0.7240(3) 0.8859(8)
H5 H 0.3814 0.7191 0.9108
H6 H 0.3490 0.7034 0.8741
H7 H 0.3468 0.7372 0.9202
loop_
_geom_bond_atom_site_label_1
_geom_bond_atom_site_label_2
_geom_bond_site_symmetry_1
_geom_bond_site_symmetry_2
O1 C1 1_555 1_555
N1 C1 1_555 1_555
C1 H1 1_555 1_555
C2 N1 1_555 1_555
H2 C2 1_555 1_555
H3 C2 1_555 1_555
H4 C2 1_555 1_555
C3 N1 1_555 1_555
H5 C3 1_555 1_555
H6 C3 1_555 1_555
H7 C3 1_555 1_555
Mn1 O2 1_555 1_555
O2 C4 1_555 1_555
O3 C10 1_555 1_555
O4 Mn1 1_555 1_555
N2 Mn1 1_555 1_555
N3 N2 1_555 1_555
N4 Mn1 1_555 1_555
C4 C5 1_555 1_555
C5 H8 1_555 1_555
C6 C5 1_555 1_555
H9 C6 1_555 1_555
C7 C6 1_555 1_555
H10 C7 1_555 1_555
C8 C7 1_555 1_555
H11 C8 1_555 1_555
C9 C4 1_555 1_555
C10 N2 1_555 1_555
C11 O4 1_555 1_555
C12 C11 1_555 1_555
H12 C12 1_555 1_555
H13 C12 1_555 1_555
C13 C12 1_555 1_555
H14 C13 1_555 1_555
H15 C13 1_555 1_555
C14 C13 1_555 1_555
H16 C14 1_555 1_555
H17 C14 1_555 1_555
C15 C14 1_555 1_555
H18 C15 1_555 1_555
H19 C15 1_555 1_555
C16 C15 1_555 1_555
H20 C16 1_555 1_555
H21 C16 1_555 1_555
H22 C16 1_555 1_555
C17 N4 1_555 1_555
H23 C17 1_555 1_555
C18 C17 1_555 1_555
H24 C18 1_555 1_555
C19 C18 1_555 1_555
C20 C19 1_555 1_555
H25 C20 1_555 1_555
C21 N4 1_555 1_555
H26 C21 1_555 1_555
C22 C19 1_555 1_555
H27 C22 1_555 1_555
H28 C22 1_555 1_555
Mn2 O3 1_555 1_555
O5 Mn2 1_555 1_555
O6 C29 1_555 1_555
O7 Mn2 1_555 1_555
O8 Mn2 1_555 1_555
N5 Mn2 1_555 1_555
N6 N5 1_555 1_555
N7 C36 1_555 1_555
C23 O5 1_555 1_555
C24 C23 1_555 1_555
H29 C24 1_555 1_555
C25 C24 1_555 1_555
H30 C25 1_555 1_555
C26 C25 1_555 1_555
H31 C26 1_555 1_555
C27 C26 1_555 1_555
H32 C27 1_555 1_555
C28 C23 1_555 1_555
C29 N5 1_555 1_555
C30 O7 1_555 1_555
C31 C30 1_555 1_555
H33 C31 1_555 1_555
H34 C31 1_555 1_555
C32 C31 1_555 1_555
H35 C32 1_555 1_555
H36 C32 1_555 1_555
C33 C32 1_555 1_555
H37 C33 1_555 1_555
H38 C33 1_555 1_555
C34 C33 1_555 1_555
H39 C34 1_555 1_555
H40 C34 1_555 1_555
C35 C34 1_555 1_555
H41 C35 1_555 1_555
H42 C35 1_555 1_555
H43 C35 1_555 1_555
C36 O8 1_555 1_555
H44 C36 1_555 1_555
C37 N7 1_555 1_555
H45 C37 1_555 1_555
H46 C37 1_555 1_555
H47 C37 1_555 1_555
C38 N7 1_555 1_555
H48 C38 1_555 1_555
H49 C38 1_555 1_555
H50 C38 1_555 1_555
Mn3 O9 1_555 1_555
O9 C39 1_555 1_555
O10 Mn1 1_555 1_555
O11 Mn3 1_555 1_555
N8 Mn3 1_555 1_555
N9 Mn1 1_555 1_555
N10 C52 1_555 1_555
C39 C40 1_555 1_555
C40 H51 1_555 1_555
C41 C40 1_555 1_555
H52 C41 1_555 1_555
C42 C41 1_555 1_555
H53 C42 1_555 1_555
C43 C42 1_555 1_555
H54 C43 1_555 1_555
C44 C39 1_555 1_555
C45 O10 1_555 1_555
C46 O11 1_555 1_555
C47 C46 1_555 1_555
H55 C47 1_555 1_555
H56 C47 1_555 1_555
C48 C47 1_555 1_555
H57 C48 1_555 1_555
H58 C48 1_555 1_555
C49 C48 1_555 1_555
H59 C49 1_555 1_555
H60 C49 1_555 1_555
C50 C49 1_555 1_555
H61 C50 1_555 1_555
H62 C50 1_555 1_555
C51 C50 1_555 1_555
H63 C51 1_555 1_555
H64 C51 1_555 1_555
H65 C51 1_555 1_555
C52 H66 1_555 1_555
C53 C52 1_555 1_555
H67 C53 1_555 1_555
C54 C53 1_555 1_555
C55 C54 1_555 1_555
H68 C55 1_555 1_555
C56 N10 1_555 1_555
H69 C56 1_555 1_555
C57 C22 1_555 1_555
H70 C57 1_555 1_555
H71 C57 1_555 1_555
O6J Mn3 1_555 1_555
N6J Mn3 1_555 1_555
Mn3J O6 1_555 1_555
Mn3A N10 1_555 1_555
N10F Mn3 1_555 1_555
N3 C11 1_555 1_555
N3 Mn2 1_555 1_555
C8 C9 1_555 1_555
C9 C10 1_555 1_555
C20 C21 1_555 1_555
N6 C30 1_555 1_555
N6 Mn3J 1_555 1_555
C27 C28 1_555 1_555
C28 C29 1_555 1_555
N8 N9 1_555 1_555
N8 C45 1_555 1_555
N9 C46 1_555 1_555
C43 C44 1_555 1_555
C44 C45 1_555 1_555
C54 C57 1_555 1_555
C55 C56 1_555 1_555

#END
