
#######################################################################
#
#                 Cambridge Crystallographic Data Centre
#                                CCDC 
#
#######################################################################
#
# If this CIF has been generated from an entry in the Cambridge 
# Structural Database, then it will include bibliographic, chemical, 
# crystal, experimental, refinement or atomic coordinate data resulting 
# from the CCDC's data processing and validation procedures.
#
#######################################################################

data_XALFUM
_symmetry_cell_setting           triclinic
_symmetry_space_group_name_H-M   'P -1'
_symmetry_Int_Tables_number      2
_space_group_name_Hall           '-P 1'
loop_
_symmetry_equiv_pos_site_id
_symmetry_equiv_pos_as_xyz
1 x,y,z
2 -x,-y,-z
_cell_length_a                   9.7818(2)
_cell_length_b                   12.0119(2)
_cell_length_c                   12.6382(4)
_cell_angle_alpha                102.0760(10)
_cell_angle_beta                 91.9090(10)
_cell_angle_gamma                112.3080(10)
_cell_volume                     1332.95
loop_
_atom_site_label
_atom_site_type_symbol
_atom_site_fract_x
_atom_site_fract_y
_atom_site_fract_z
Cd1 Cd 0.10007(2) 0.240752(18) 0.279202(19)
S1 S -0.07561(8) -0.00039(7) 0.24964(7)
S2 S -0.72164(9) -0.52105(7) 0.29081(7)
N1 N -0.1022(3) 0.2428(2) 0.3691(2)
N2 N -0.6833(3) -0.7709(2) 0.2222(2)
C1 C -0.1306(5) 0.3459(4) 0.3925(3)
H1 H -0.06 0.4201 0.3792
C2 C -0.2560(6) 0.3484(5) 0.4345(3)
H2 H -0.2718 0.4232 0.451
C3 C -0.3583(6) 0.2423(6) 0.4523(4)
H3 H -0.4469 0.2417 0.4811
C4 C -0.3323(5) 0.1360(5) 0.4282(3)
H4 H -0.4042 0.0608 0.4386
C5 C -0.2007(4) 0.1384(3) 0.3885(3)
C6 C -0.1622(4) 0.0267(3) 0.3701(3)
H5 H -0.2546 -0.0474 0.3664
H6 H -0.0946 0.0355 0.4342
C7 C -0.2267(3) -0.0369(3) 0.1432(3)
H7 H -0.2612 0.0317 0.1541
H8 H -0.1895 -0.0446 0.0713
C8 C -0.3553(3) -0.1553(3) 0.1439(2)
C9 C -0.4869(4) -0.1557(3) 0.1803(3)
H9 H -0.4974 -0.0794 0.2051
C10 C -0.6040(3) -0.2661(3) 0.1811(3)
H10 H -0.6948 -0.2647 0.2042
C11 C -0.5901(3) -0.3779(3) 0.1487(3)
C12 C -0.4573(3) -0.3767(3) 0.1135(2)
H11 H -0.4452 -0.4527 0.0914
C13 C -0.3425(3) -0.2678(3) 0.1099(2)
H12 H -0.2533 -0.2697 0.0837
C14 C -0.7161(3) -0.4979(3) 0.1529(3)
H13 H -0.7031 -0.5681 0.1037
H14 H -0.8119 -0.4965 0.1268
C15 C -0.5555(4) -0.5505(3) 0.3087(3)
H15 H -0.4697 -0.4799 0.2955
H16 H -0.5385 -0.5534 0.3856
C16 C -0.5586(3) -0.6683(3) 0.2360(3)
C17 C -0.4349(4) -0.6722(4) 0.1874(3)
H17 H -0.3474 -0.5987 0.1968
C18 C -0.4391(5) -0.7820(5) 0.1258(4)
H18 H -0.3554 -0.7853 0.0914
C19 C -0.5657(5) -0.8867(4) 0.1146(3)
H19 H -0.5708 -0.9644 0.0737
C20 C -0.6848(4) -0.8776(3) 0.1632(3)
H20 H -0.7729 -0.9505 0.1546
N3 N -0.0469(3) 0.2096(2) 0.0511(2)
O1 O -0.0649(3) 0.2649(2) 0.1411(2)
O2 O 0.0545(3) 0.1743(3) 0.0499(3)
O3 O -0.1341(4) 0.1866(3) -0.0296(3)
N4 N 0.2468(3) 0.2541(3) 0.5035(3)
O4 O 0.2359(4) 0.3442(3) 0.4782(3)
O5 O 0.1895(4) 0.1527(3) 0.4370(3)
O6 O 0.3103(4) 0.2628(3) 0.5918(3)
Cd1_2 Cd -0.89993(2) -0.759248(18) 0.279202(19)
S2_2 S 0.27836(9) 0.47895(7) 0.29081(7)
N2_2 N 0.3167(3) 0.2291(2) 0.2222(2)
C21 C 0.9574(6) 0.7019(5) 0.2319(4)
Cl1 Cl 1.0867(14) 0.7788(18) 0.3433(5)
Cl2 Cl 0.9380(10) 0.5602(7) 0.1771(14)
Cl3? Cl 0.9118(5) 0.5592(4) 0.1272(3)
Cl4? Cl 1.0596(4) 0.6909(6) 0.3400(3)
loop_
_geom_bond_atom_site_label_1
_geom_bond_atom_site_label_2
_geom_bond_site_symmetry_1
_geom_bond_site_symmetry_2
Cd1 S1 1_555 1_555
S1 C6 1_555 1_555
S2 C14 1_555 1_555
N1 Cd1 1_555 1_555
N2 C16 1_555 1_555
C1 N1 1_555 1_555
H1 C1 1_555 1_555
C2 C1 1_555 1_555
H2 C2 1_555 1_555
C3 C2 1_555 1_555
H3 C3 1_555 1_555
C4 C3 1_555 1_555
H4 C4 1_555 1_555
C5 N1 1_555 1_555
C6 C5 1_555 1_555
H5 C6 1_555 1_555
H6 C6 1_555 1_555
C7 S1 1_555 1_555
H7 C7 1_555 1_555
H8 C7 1_555 1_555
C8 C7 1_555 1_555
C9 C8 1_555 1_555
H9 C9 1_555 1_555
C10 C9 1_555 1_555
H10 C10 1_555 1_555
C11 C10 1_555 1_555
C12 C11 1_555 1_555
H11 C12 1_555 1_555
C13 C8 1_555 1_555
H12 C13 1_555 1_555
C14 C11 1_555 1_555
H13 C14 1_555 1_555
H14 C14 1_555 1_555
C15 S2 1_555 1_555
H15 C15 1_555 1_555
H16 C15 1_555 1_555
C16 C15 1_555 1_555
C17 C16 1_555 1_555
H17 C17 1_555 1_555
C18 C17 1_555 1_555
H18 C18 1_555 1_555
C19 C18 1_555 1_555
H19 C19 1_555 1_555
C20 N2 1_555 1_555
H20 C20 1_555 1_555
N3 O1 1_555 1_555
O1 Cd1 1_555 1_555
O2 N3 1_555 1_555
O3 N3 1_555 1_555
N4 O4 1_555 1_555
O4 Cd1 1_555 1_555
O5 Cd1 1_555 1_555
O6 N4 1_555 1_555
C21 Cl1 1_555 1_555
Cl2 C21 1_555 1_555
Cd1_2 S2 1_555 1_555
S2_2 Cd1 1_555 1_555
N2_2 Cd1 1_555 1_555
N2 Cd1_2 1_555 1_555
C4 C5 1_555 1_555
C12 C13 1_555 1_555
C19 C20 1_555 1_555
N4 O5 1_555 1_555

#END
