
#######################################################################
#
#                 Cambridge Crystallographic Data Centre
#                                CCDC 
#
#######################################################################
#
# If this CIF has been generated from an entry in the Cambridge 
# Structural Database, then it will include bibliographic, chemical, 
# crystal, experimental, refinement or atomic coordinate data resulting 
# from the CCDC's data processing and validation procedures.
#
#######################################################################

data_XALGOH
_symmetry_cell_setting           rhombohedral
_symmetry_space_group_name_H-M   'R -3'
_symmetry_Int_Tables_number      148
_space_group_name_Hall           '-R 3'
loop_
_symmetry_equiv_pos_site_id
_symmetry_equiv_pos_as_xyz
1 x,y,z
2 -y,x-y,z
3 -x+y,-x,z
4 2/3+x,1/3+y,1/3+z
5 2/3-y,1/3+x-y,1/3+z
6 2/3-x+y,1/3-x,1/3+z
7 1/3+x,2/3+y,2/3+z
8 1/3-y,2/3+x-y,2/3+z
9 1/3-x+y,2/3-x,2/3+z
10 -x,-y,-z
11 y,-x+y,-z
12 x-y,x,-z
13 1/3-x,2/3-y,2/3-z
14 1/3+y,2/3-x+y,2/3-z
15 1/3+x-y,2/3+x,2/3-z
16 2/3-x,1/3-y,1/3-z
17 2/3+y,1/3-x+y,1/3-z
18 2/3+x-y,1/3+x,1/3-z
_cell_length_a                   20.457(3)
_cell_length_b                   20.457(3)
_cell_length_c                   18.516(4)
_cell_angle_alpha                90
_cell_angle_beta                 90
_cell_angle_gamma                120
_cell_volume                     6710.61
loop_
_atom_site_label
_atom_site_type_symbol
_atom_site_fract_x
_atom_site_fract_y
_atom_site_fract_z
Ag1 Ag 0.10000(3) -0.07087(3) 0.02950(2)
I1 I 0.0000 0.0000 1.0000
I2 I 0.24790(2) 0.04506(2) 0.04687(2)
O1 O -0.0141(2) -0.1078(2) 0.40967(19)
O2 O 0.1286(2) -0.1506(2) 0.5140(2)
K1 K 0.0000 0.0000 0.5000
N1 N 0.0620(3) -0.0991(2) 0.1520(2)
N2 N 0.0250(3) -0.1929(3) 0.4073(2)
N3 N 0.0068(3) -0.2124(3) 0.4796(2)
N4 N -0.0559(3) -0.2950(2) 0.6911(2)
C1 C 0.0780(3) -0.0441(3) 0.1991(3)
H1 H 0.1009 0.0051 0.1816
C2 C 0.0629(3) -0.0550(3) 0.2719(3)
H2 H 0.0739 -0.0146 0.3024
C3 C 0.0308(3) -0.1277(3) 0.2983(2)
C4 C 0.0143(3) -0.1861(3) 0.2507(3)
H3 H -0.0069 -0.2357 0.2669
C5 C 0.0301(3) -0.1688(3) 0.1784(3)
H4 H 0.0178 -0.2082 0.1463
C6 C 0.0126(3) -0.1409(3) 0.3768(2)
C7 C 0.0617(3) -0.1878(3) 0.5294(3)
C8 C -0.0045(3) -0.2594(3) 0.7436(3)
H5 H -0.0181 -0.2748 0.7912
C9 C 0.0671(3) -0.2014(3) 0.7298(3)
H6 H 0.1010 -0.1779 0.7674
C10 C 0.0881(3) -0.1784(3) 0.6601(3)
H7 H 0.1369 -0.1400 0.6496
C11 C 0.0359(3) -0.2129(3) 0.6054(2)
C12 C -0.0350(3) -0.2704(3) 0.6236(3)
H8 H -0.0702 -0.2934 0.5869
H9 H 0.049(2) -0.209(2) 0.389(2)
H10 H -0.040(3) -0.237(3) 0.492(3)
Ag1A Ag 0.07087(3) 0.17087(4) 0.02950(2)
Ag1B Ag -0.17087(4) -0.10000(3) 0.02950(2)
Ag1I Ag -0.10000(3) 0.07087(3) 0.97050(2)
Ag1J Ag -0.07087(3) -0.17087(4) 0.97050(2)
Ag1K Ag 0.17087(4) 0.10000(3) 0.97050(2)
Ag1J_2 Ag -0.07087(3) -0.17087(4) -0.02950(2)
Ag1K_2 Ag 0.17087(4) 0.10000(3) -0.02950(2)
Ag1I_2 Ag -0.10000(3) 0.07087(3) -0.02950(2)
Ag1A_2 Ag 0.07087(3) 0.17087(4) 1.02950(2)
Ag1B_2 Ag -0.17087(4) -0.10000(3) 1.02950(2)
Ag1_2 Ag 0.10000(3) -0.07087(3) 1.02950(2)
I1_2 I 0.0000 0.0000 0.0000
I2J I 0.04506(2) -0.20284(3) -0.04687(2)
I2A I -0.04506(2) 0.20284(3) 0.04687(2)
I2K I 0.20284(3) 0.24790(2) -0.04687(2)
I2B I -0.20284(3) -0.24790(2) 0.04687(2)
I2I I -0.24790(2) -0.04506(2) -0.04687(2)
I2A_2 I -0.04506(2) 0.20284(3) 1.04687(2)
I2I_2 I -0.24790(2) -0.04506(2) 0.95313(2)
I2B_2 I -0.20284(3) -0.24790(2) 1.04687(2)
I2J_2 I 0.04506(2) -0.20284(3) 0.95313(2)
I2_2 I 0.24790(2) 0.04506(2) 1.04687(2)
I2K_2 I 0.20284(3) 0.24790(2) 0.95313(2)
O1A O 0.1078(2) 0.0937(3) 0.40967(19)
O1B O -0.0937(3) 0.0141(2) 0.40967(19)
O1I O 0.0141(2) 0.1078(2) 0.59033(19)
O1J O -0.1078(2) -0.0937(3) 0.59033(19)
O1K O 0.0937(3) -0.0141(2) 0.59033(19)
O2A O 0.1506(2) 0.2792(3) 0.5140(2)
O2B O -0.2792(3) -0.1286(2) 0.5140(2)
O2I O -0.1286(2) 0.1506(2) 0.4860(2)
O2J O -0.1506(2) -0.2792(3) 0.4860(2)
O2K O 0.2792(3) 0.1286(2) 0.4860(2)
N1A N 0.0991(2) 0.1611(4) 0.1520(2)
N1B N -0.1611(4) -0.0620(3) 0.1520(2)
N1I N -0.0620(3) 0.0991(2) 0.8480(2)
N1J N -0.0991(2) -0.1611(4) 0.8480(2)
N1K N 0.1611(4) 0.0620(3) 0.8480(2)
N2A N 0.1929(3) 0.2179(4) 0.4073(2)
N2B N -0.2179(4) -0.0250(3) 0.4073(2)
N2I N -0.0250(3) 0.1929(3) 0.5927(2)
N2J N -0.1929(3) -0.2179(4) 0.5927(2)
N2K N 0.2179(4) 0.0250(3) 0.5927(2)
N3A N 0.2124(3) 0.2192(4) 0.4796(2)
N3B N -0.2192(4) -0.0068(3) 0.4796(2)
N3I N -0.0068(3) 0.2124(3) 0.5204(2)
N3J N -0.2124(3) -0.2192(4) 0.5204(2)
N3K N 0.2192(4) 0.0068(3) 0.5204(2)
N4A N 0.2950(2) 0.2391(4) 0.6911(2)
N4B N -0.2391(4) 0.0559(3) 0.6911(2)
N4I N 0.0559(3) 0.2950(2) 0.3089(2)
N4J N -0.2950(2) -0.2391(4) 0.3089(2)
N4K N 0.2391(4) -0.0559(3) 0.3089(2)
C1A C 0.0441(3) 0.1221(4) 0.1991(3)
C1B C -0.1221(4) -0.0780(3) 0.1991(3)
C1I C -0.0780(3) 0.0441(3) 0.8009(3)
C1J C -0.0441(3) -0.1221(4) 0.8009(3)
C1K C 0.1221(4) 0.0780(3) 0.8009(3)
H1A H -0.0051 0.0958 0.1816
H1B H -0.0958 -0.1009 0.1816
H1I H -0.1009 -0.0051 0.8184
H1J H 0.0051 -0.0958 0.8184
H1K H 0.0958 0.1009 0.8184
C2A C 0.0550(3) 0.1179(4) 0.2719(3)
C2B C -0.1179(4) -0.0629(3) 0.2719(3)
C2I C -0.0629(3) 0.0550(3) 0.7281(3)
C2J C -0.0550(3) -0.1179(4) 0.7281(3)
C2K C 0.1179(4) 0.0629(3) 0.7281(3)
H2A H 0.0146 0.0885 0.3024
H2B H -0.0885 -0.0739 0.3024
H2I H -0.0739 0.0146 0.6976
H2J H -0.0146 -0.0885 0.6976
H2K H 0.0885 0.0739 0.6976
C3A C 0.1277(3) 0.1585(4) 0.2983(2)
C3B C -0.1585(4) -0.0308(3) 0.2983(2)
C3I C -0.0308(3) 0.1277(3) 0.7017(2)
C3J C -0.1277(3) -0.1585(4) 0.7017(2)
C3K C 0.1585(4) 0.0308(3) 0.7017(2)
C4A C 0.1861(3) 0.2004(4) 0.2507(3)
C4B C -0.2004(4) -0.0143(3) 0.2507(3)
C4I C -0.0143(3) 0.1861(3) 0.7493(3)
C4J C -0.1861(3) -0.2004(4) 0.7493(3)
C4K C 0.2004(4) 0.0143(3) 0.7493(3)
H3A H 0.2357 0.2288 0.2669
H3B H -0.2288 0.0069 0.2669
H3I H 0.0069 0.2357 0.7331
H3J H -0.2357 -0.2288 0.7331
H3K H 0.2288 -0.0069 0.7331
C5A C 0.1688(3) 0.1989(4) 0.1784(3)
C5B C -0.1989(4) -0.0301(3) 0.1784(3)
C5I C -0.0301(3) 0.1688(3) 0.8216(3)
C5J C -0.1688(3) -0.1989(4) 0.8216(3)
C5K C 0.1989(4) 0.0301(3) 0.8216(3)
H4A H 0.2082 0.2260 0.1463
H4B H -0.2260 -0.0178 0.1463
H4I H -0.0178 0.2082 0.8537
H4J H -0.2082 -0.2260 0.8537
H4K H 0.2260 0.0178 0.8537
C6A C 0.1409(3) 0.1535(4) 0.3768(2)
C6B C -0.1535(4) -0.0126(3) 0.3768(2)
C6I C -0.0126(3) 0.1409(3) 0.6232(2)
C6J C -0.1409(3) -0.1535(4) 0.6232(2)
C6K C 0.1535(4) 0.0126(3) 0.6232(2)
C7A C 0.1878(3) 0.2495(4) 0.5294(3)
C7B C -0.2495(4) -0.0617(3) 0.5294(3)
C7I C -0.0617(3) 0.1878(3) 0.4706(3)
C7J C -0.1878(3) -0.2495(4) 0.4706(3)
C7K C 0.2495(4) 0.0617(3) 0.4706(3)
C8A C 0.2594(3) 0.2549(4) 0.7436(3)
C8B C -0.2549(4) 0.0045(3) 0.7436(3)
C8I C 0.0045(3) 0.2594(3) 0.2564(3)
C8J C -0.2594(3) -0.2549(4) 0.2564(3)
C8K C 0.2549(4) -0.0045(3) 0.2564(3)
H5A H 0.2748 0.2567 0.7912
H5B H -0.2567 0.0181 0.7912
H5I H 0.0181 0.2748 0.2088
H5J H -0.2748 -0.2567 0.2088
H5K H 0.2567 -0.0181 0.2088
C9A C 0.2014(3) 0.2685(4) 0.7298(3)
C9B C -0.2685(4) -0.0671(3) 0.7298(3)
C9I C -0.0671(3) 0.2014(3) 0.2702(3)
C9J C -0.2014(3) -0.2685(4) 0.2702(3)
C9K C 0.2685(4) 0.0671(3) 0.2702(3)
H6A H 0.1779 0.2789 0.7674
H6B H -0.2789 -0.1010 0.7674
H6I H -0.1010 0.1779 0.2326
H6J H -0.1779 -0.2789 0.2326
H6K H 0.2789 0.1010 0.2326
C10A C 0.1784(3) 0.2665(4) 0.6601(3)
C10B C -0.2665(4) -0.0881(3) 0.6601(3)
C10I C -0.0881(3) 0.1784(3) 0.3399(3)
C10J C -0.1784(3) -0.2665(4) 0.3399(3)
C10K C 0.2665(4) 0.0881(3) 0.3399(3)
H7A H 0.1400 0.2769 0.6496
H7B H -0.2769 -0.1369 0.6496
H7I H -0.1369 0.1400 0.3504
H7J H -0.1400 -0.2769 0.3504
H7K H 0.2769 0.1369 0.3504
C11A C 0.2129(3) 0.2488(4) 0.6054(2)
C11B C -0.2488(4) -0.0359(3) 0.6054(2)
C11I C -0.0359(3) 0.2129(3) 0.3946(2)
C11J C -0.2129(3) -0.2488(4) 0.3946(2)
C11K C 0.2488(4) 0.0359(3) 0.3946(2)
C12A C 0.2704(3) 0.2354(4) 0.6236(3)
C12B C -0.2354(4) 0.0350(3) 0.6236(3)
C12I C 0.0350(3) 0.2704(3) 0.3764(3)
C12J C -0.2704(3) -0.2354(4) 0.3764(3)
C12K C 0.2354(4) -0.0350(3) 0.3764(3)
H8A H 0.2934 0.2232 0.5869
H8B H -0.2232 0.0702 0.5869
H8I H 0.0702 0.2934 0.4131
H8J H -0.2934 -0.2232 0.4131
H8K H 0.2232 -0.0702 0.4131
H9A H 0.209(2) 0.258(3) 0.389(2)
H9B H -0.258(3) -0.049(2) 0.389(2)
H9I H -0.049(2) 0.209(2) 0.611(2)
H9J H -0.209(2) -0.258(3) 0.611(2)
H9K H 0.258(3) 0.049(2) 0.611(2)
H10A H 0.237(3) 0.197(4) 0.492(3)
H10B H -0.197(4) 0.040(3) 0.492(3)
H10I H 0.040(3) 0.237(3) 0.508(3)
H10J H -0.237(3) -0.197(4) 0.508(3)
H10K H 0.197(4) -0.040(3) 0.508(3)
loop_
_geom_bond_atom_site_label_1
_geom_bond_atom_site_label_2
_geom_bond_site_symmetry_1
_geom_bond_site_symmetry_2
Ag1 I2 1_555 1_555
I1 Ag1I 1_555 1_555
I2 Ag1K_2 1_555 1_555
O1 K1 1_555 1_555
O2 C7 1_555 1_555
K1 O1A 1_555 1_555
N1 Ag1 1_555 1_555
N2 N3 1_555 1_555
N3 C7 1_555 1_555
N4 C8 1_555 1_555
C1 N1 1_555 1_555
H1 C1 1_555 1_555
C2 C1 1_555 1_555
H2 C2 1_555 1_555
C3 C2 1_555 1_555
C4 C3 1_555 1_555
H3 C4 1_555 1_555
C5 N1 1_555 1_555
H4 C5 1_555 1_555
C6 O1 1_555 1_555
C7 C11 1_555 1_555
C8 H5 1_555 1_555
C9 C8 1_555 1_555
H6 C9 1_555 1_555
C10 C9 1_555 1_555
H7 C10 1_555 1_555
C11 C10 1_555 1_555
C12 N4 1_555 1_555
H8 C12 1_555 1_555
H9 N2 1_555 1_555
H10 N3 1_555 1_555
Ag1A Ag1K_2 1_555 1_555
Ag1B Ag1J_2 1_555 1_555
Ag1I Ag1A_2 1_555 1_555
Ag1J I1 1_555 1_555
Ag1K I1 1_555 1_555
Ag1J_2 Ag1 1_555 1_555
Ag1K_2 Ag1 1_555 1_555
Ag1I_2 Ag1A 1_555 1_555
Ag1A_2 I1 1_555 1_555
Ag1B_2 I1 1_555 1_555
Ag1_2 I1 1_555 1_555
I1_2 Ag1 1_555 1_555
I2J Ag1 1_555 1_555
I2A Ag1A 1_555 1_555
I2K Ag1A 1_555 1_555
I2B Ag1B 1_555 1_555
I2I Ag1B 1_555 1_555
I2A_2 Ag1I 1_555 1_555
I2I_2 Ag1I 1_555 1_555
I2B_2 Ag1J 1_555 1_555
I2J_2 Ag1J 1_555 1_555
I2_2 Ag1K 1_555 1_555
I2K_2 Ag1K 1_555 1_555
O1A C6A 1_555 1_555
O1B K1 1_555 1_555
O1I K1 1_555 1_555
O1J K1 1_555 1_555
O1K K1 1_555 1_555
O2A C7A 1_555 1_555
O2B C7B 1_555 1_555
O2I C7I 1_555 1_555
O2J C7J 1_555 1_555
O2K C7K 1_555 1_555
N1A Ag1A 1_555 1_555
N1B Ag1B 1_555 1_555
N1I Ag1I 1_555 1_555
N1J Ag1J 1_555 1_555
N1K Ag1K 1_555 1_555
N2A N3A 1_555 1_555
N2B N3B 1_555 1_555
N2I N3I 1_555 1_555
N2J N3J 1_555 1_555
N2K N3K 1_555 1_555
N3A C7A 1_555 1_555
N3B C7B 1_555 1_555
N3I C7I 1_555 1_555
N3J C7J 1_555 1_555
N3K C7K 1_555 1_555
N4A C8A 1_555 1_555
N4B C8B 1_555 1_555
N4I C8I 1_555 1_555
N4J C8J 1_555 1_555
N4K C8K 1_555 1_555
C1A N1A 1_555 1_555
C1B N1B 1_555 1_555
C1I N1I 1_555 1_555
C1J N1J 1_555 1_555
C1K N1K 1_555 1_555
H1A C1A 1_555 1_555
H1B C1B 1_555 1_555
H1I C1I 1_555 1_555
H1J C1J 1_555 1_555
H1K C1K 1_555 1_555
C2A C1A 1_555 1_555
C2B C1B 1_555 1_555
C2I C1I 1_555 1_555
C2J C1J 1_555 1_555
C2K C1K 1_555 1_555
H2A C2A 1_555 1_555
H2B C2B 1_555 1_555
H2I C2I 1_555 1_555
H2J C2J 1_555 1_555
H2K C2K 1_555 1_555
C3A C2A 1_555 1_555
C3B C2B 1_555 1_555
C3I C2I 1_555 1_555
C3J C2J 1_555 1_555
C3K C2K 1_555 1_555
C4A C3A 1_555 1_555
C4B C3B 1_555 1_555
C4I C3I 1_555 1_555
C4J C3J 1_555 1_555
C4K C3K 1_555 1_555
H3A C4A 1_555 1_555
H3B C4B 1_555 1_555
H3I C4I 1_555 1_555
H3J C4J 1_555 1_555
H3K C4K 1_555 1_555
C5A N1A 1_555 1_555
C5B N1B 1_555 1_555
C5I N1I 1_555 1_555
C5J N1J 1_555 1_555
C5K N1K 1_555 1_555
H4A C5A 1_555 1_555
H4B C5B 1_555 1_555
H4I C5I 1_555 1_555
H4J C5J 1_555 1_555
H4K C5K 1_555 1_555
C6A N2A 1_555 1_555
C6B O1B 1_555 1_555
C6I O1I 1_555 1_555
C6J O1J 1_555 1_555
C6K O1K 1_555 1_555
C7A C11A 1_555 1_555
C7B C11B 1_555 1_555
C7I C11I 1_555 1_555
C7J C11J 1_555 1_555
C7K C11K 1_555 1_555
C8A H5A 1_555 1_555
C8B H5B 1_555 1_555
C8I H5I 1_555 1_555
C8J H5J 1_555 1_555
C8K H5K 1_555 1_555
C9A C8A 1_555 1_555
C9B C8B 1_555 1_555
C9I C8I 1_555 1_555
C9J C8J 1_555 1_555
C9K C8K 1_555 1_555
H6A C9A 1_555 1_555
H6B C9B 1_555 1_555
H6I C9I 1_555 1_555
H6J C9J 1_555 1_555
H6K C9K 1_555 1_555
C10A C9A 1_555 1_555
C10B C9B 1_555 1_555
C10I C9I 1_555 1_555
C10J C9J 1_555 1_555
C10K C9K 1_555 1_555
H7A C10A 1_555 1_555
H7B C10B 1_555 1_555
H7I C10I 1_555 1_555
H7J C10J 1_555 1_555
H7K C10K 1_555 1_555
C11A C10A 1_555 1_555
C11B C10B 1_555 1_555
C11I C10I 1_555 1_555
C11J C10J 1_555 1_555
C11K C10K 1_555 1_555
C12A N4A 1_555 1_555
C12B N4B 1_555 1_555
C12I N4I 1_555 1_555
C12J N4J 1_555 1_555
C12K N4K 1_555 1_555
H8A C12A 1_555 1_555
H8B C12B 1_555 1_555
H8I C12I 1_555 1_555
H8J C12J 1_555 1_555
H8K C12K 1_555 1_555
H9A N2A 1_555 1_555
H9B N2B 1_555 1_555
H9I N2I 1_555 1_555
H9J N2J 1_555 1_555
H9K N2K 1_555 1_555
H10A N3A 1_555 1_555
H10B N3B 1_555 1_555
H10I N3I 1_555 1_555
H10J N3J 1_555 1_555
H10K N3K 1_555 1_555
N2 C6 1_555 1_555
C3 C6 1_555 1_555
C4 C5 1_555 1_555
C11 C12 1_555 1_555
Ag1A I1_2 1_555 1_555
Ag1B Ag1I_2 1_555 1_555
Ag1B I1_2 1_555 1_555
Ag1I Ag1B_2 1_555 1_555
Ag1J Ag1B_2 1_555 1_555
Ag1J Ag1_2 1_555 1_555
Ag1K Ag1A_2 1_555 1_555
Ag1K Ag1_2 1_555 1_555
Ag1J_2 I1_2 1_555 1_555
Ag1J_2 I2J 1_555 1_555
Ag1J_2 I2B 1_555 1_555
Ag1K_2 I1_2 1_555 1_555
Ag1K_2 I2K 1_555 1_555
Ag1I_2 I1_2 1_555 1_555
Ag1I_2 I2A 1_555 1_555
Ag1I_2 I2I 1_555 1_555
Ag1A_2 I2A_2 1_555 1_555
Ag1A_2 I2K_2 1_555 1_555
Ag1B_2 I2I_2 1_555 1_555
Ag1B_2 I2B_2 1_555 1_555
Ag1_2 I2J_2 1_555 1_555
Ag1_2 I2_2 1_555 1_555
N2B C6B 1_555 1_555
N2I C6I 1_555 1_555
N2J C6J 1_555 1_555
N2K C6K 1_555 1_555
C3A C6A 1_555 1_555
C3B C6B 1_555 1_555
C3I C6I 1_555 1_555
C3J C6J 1_555 1_555
C3K C6K 1_555 1_555
C4A C5A 1_555 1_555
C4B C5B 1_555 1_555
C4I C5I 1_555 1_555
C4J C5J 1_555 1_555
C4K C5K 1_555 1_555
C11A C12A 1_555 1_555
C11B C12B 1_555 1_555
C11I C12I 1_555 1_555
C11J C12J 1_555 1_555
C11K C12K 1_555 1_555

#END
