
#######################################################################
#
#                 Cambridge Crystallographic Data Centre
#                                CCDC 
#
#######################################################################
#
# If this CIF has been generated from an entry in the Cambridge 
# Structural Database, then it will include bibliographic, chemical, 
# crystal, experimental, refinement or atomic coordinate data resulting 
# from the CCDC's data processing and validation procedures.
#
#######################################################################

data_XALGAT
_symmetry_cell_setting           triclinic
_symmetry_space_group_name_H-M   'P -1'
_symmetry_Int_Tables_number      2
_space_group_name_Hall           '-P 1'
loop_
_symmetry_equiv_pos_site_id
_symmetry_equiv_pos_as_xyz
1 x,y,z
2 -x,-y,-z
_cell_length_a                   12.463(5)
_cell_length_b                   12.611(5)
_cell_length_c                   12.999(5)
_cell_angle_alpha                82.141(5)
_cell_angle_beta                 89.839(5)
_cell_angle_gamma                89.758(5)
_cell_volume                     2023.85
loop_
_atom_site_label
_atom_site_type_symbol
_atom_site_fract_x
_atom_site_fract_y
_atom_site_fract_z
C1 C 0.0571(7) 0.3618(8) -0.3652(7)
H1 H 0.0625 0.3894 -0.3026
C2 C -0.0421(8) 0.3644(8) -0.4145(10)
H2 H -0.1023 0.3919 -0.3848
C3 C -0.0492(8) 0.3257(8) -0.5074(9)
H3 H -0.1144 0.3278 -0.5423
C4 C 0.0417(8) 0.2829(7) -0.5500(7)
H4 H 0.0382 0.2567 -0.6134
C5 C 0.1371(6) 0.2804(5) -0.4954(5)
C6 C 0.2352(6) 0.2283(5) -0.5353(5)
H5 H 0.2229 0.2189 -0.6072
H6 H 0.2439 0.1578 -0.4959
C7 C 0.3288(6) 0.4183(5) -0.6237(5)
H7 H 0.2625 0.4515 -0.6050
H8 H 0.3860 0.4701 -0.6232
C8 C 0.3184(6) 0.3866(5) -0.7323(5)
C9 C 0.2237(6) 0.4040(6) -0.7885(5)
H9 H 0.1654 0.4357 -0.7597
C10 C 0.2149(6) 0.3741(6) -0.8886(5)
H10 H 0.1517 0.3881 -0.9260
C11 C 0.3008(6) 0.3235(5) -0.9322(4)
C12 C 0.3964(6) 0.3062(5) -0.8756(5)
H11 H 0.4544 0.2736 -0.9040
C13 C 0.4052(6) 0.3377(5) -0.7764(5)
H12 H 0.4690 0.3261 -0.7396
C14 C 0.2904(7) 0.2873(5) -1.0384(5)
H13 H 0.2262 0.2444 -1.0401
H14 H 0.3516 0.2430 -1.0508
C15 C 0.4186(6) 0.4508(5) -1.1376(5)
H15 H 0.4208 0.5220 -1.1767
H16 H 0.4358 0.4578 -1.0661
C16 C 0.5056(6) 0.3847(5) -1.1790(5)
C17 C 0.6047(8) 0.3755(7) -1.1325(7)
H17 H 0.6167 0.4044 -1.0714
C18 C 0.6879(8) 0.3219(7) -1.1782(9)
H18 H 0.7557 0.3160 -1.1483
C19 C 0.6672(8) 0.2783(7) -1.2683(9)
H19 H 0.7214 0.2435 -1.3001
C20 C 0.5655(7) 0.2866(7) -1.3107(7)
H20 H 0.5514 0.2561 -1.3704
N1 N 0.1450(5) 0.3212(6) -0.4047(5)
N2 N 0.4852(5) 0.3392(5) -1.2662(4)
N3 N 0.3292(6) 0.5832(5) -0.4130(5)
N4 N 0.3044(8) 0.1001(5) -0.2566(5)
O1 O 0.2441(11) 0.1691(7) -0.2217(9)
O2 O 0.2804(9) 0.0057(5) -0.2332(6)
O3 O 0.3638(10) 0.1358(7) -0.3243(8)
O4 O 0.4177(8) 0.5445(8) -0.4110(10)
O5 O 0.3146(7) 0.6755(6) -0.4534(8)
O6 O 0.2571(6) 0.5219(5) -0.3768(6)
S1 S 0.35777(15) 0.30141(13) -0.52815(11)
S2 S 0.28325(15) 0.40235(12) -1.14092(11)
Cd1 Cd 0.31373(4) 0.34044(4) -0.33144(3)
N2_2 N 0.4852(5) 0.3392(5) -0.2662(4)
S2_2 S 0.28325(15) 0.40235(12) -0.14092(11)
Cd1_2 Cd 0.31373(4) 0.34044(4) -1.33144(3)
C21 C 0.2536(9) -0.0537(9) 0.0061(8)
H21 H 0.2347 -0.0838 -0.0527
C22 C 0.3579(11) -0.0642(10) 0.0403(10)
H22 H 0.4093 -0.0981 0.0042
C23 C 0.3846(11) -0.0217(10) 0.1323(11)
H23 H 0.4541 -0.0279 0.1583
C24 C 0.3072(10) 0.0285(8) 0.1824(8)
H24 H 0.3231 0.0557 0.2436
C25 C 0.2033(8) 0.0390(7) 0.1408(6)
C26 C 0.1191(8) 0.1026(7) 0.1933(6)
H25 H 0.1212 0.1763 0.1601
H26 H 0.1401 0.1024 0.2651
C27 C -0.0106(7) -0.0609(6) 0.2903(5)
H27 H -0.0730 -0.1055 0.2852
H28 H 0.0526 -0.1024 0.2777
C28 C -0.0048(7) -0.0294(5) 0.3999(5)
C29 C -0.0945(7) 0.0137(6) 0.4431(5)
H29 H -0.1578 0.0233 0.4052
C30 C 0.0899(7) -0.0430(6) 0.4557(6)
H30 H 0.1502 -0.0712 0.4269
N5 N 0.1761(7) -0.0010(7) 0.0546(5)
N6 N 0.0093(6) -0.2569(7) 0.0853(5)
O7 O 0.0736(8) -0.2245(7) 0.1446(8)
O8 O -0.0106(10) -0.3529(7) 0.0979(7)
O9 O -0.0296(10) -0.1891(8) 0.0229(8)
S3 S -0.0188(2) 0.05673(15) 0.19170(13)
Cd2 Cd 0.0000 0.0000 0.0000
C21A C -0.2536(9) 0.0537(9) 0.9939(8)
H21A H -0.2347 0.0838 1.0527
C22A C -0.3579(11) 0.0642(10) 0.9597(10)
H22A H -0.4093 0.0981 0.9958
C23A C -0.3846(11) 0.0217(10) 0.8677(11)
H23A H -0.4541 0.0279 0.8417
C24A C -0.3072(10) -0.0285(8) 0.8176(8)
H24A H -0.3231 -0.0557 0.7564
C25A C -0.2033(8) -0.0390(7) 0.8592(6)
C26A C -0.1191(8) -0.1026(7) 0.8067(6)
H25A H -0.1212 -0.1763 0.8399
H26A H -0.1401 -0.1024 0.7349
C27A C 0.0106(7) 0.0609(6) 0.7097(5)
H27A H 0.0730 0.1055 0.7148
H28A H -0.0526 0.1024 0.7223
C28A C 0.0048(7) 0.0294(5) 0.6001(5)
C29A C 0.0945(7) -0.0137(6) 0.5569(5)
H29A H 0.1578 -0.0233 0.5948
C30A C -0.0899(7) 0.0430(6) 0.5443(6)
H30A H -0.1502 0.0712 0.5731
N5A N -0.1761(7) 0.0010(7) 0.9454(5)
N5A_2 N -0.1761(7) 0.0010(7) -0.0546(5)
N6A N -0.0093(6) 0.2569(7) -0.0853(5)
O7A O -0.0736(8) 0.2245(7) -0.1446(8)
O8A O 0.0106(10) 0.3529(7) -0.0979(7)
O9A O 0.0296(10) 0.1891(8) -0.0229(8)
S3A S 0.0188(2) -0.05673(15) 0.80830(13)
S3A_2 S 0.0188(2) -0.05673(15) -0.19170(13)
Cd2_2 Cd 0.0000 0.0000 1.0000
C31 C 0.2264(16) -0.3169(11) -0.1488(12)
C32 C 0.1019(12) -0.3551(10) -0.1661(12)
H31 H 0.0609 -0.3509 -0.1041
H32 H 0.1020 -0.4275 -0.1812
H33 H 0.0703 -0.3091 -0.2230
N7 N 0.3084(9) -0.2867(7) -0.1322(8)
C33 C 0.3883(9) -0.0712(8) 0.5232(9)
C34 C 0.4252(10) -0.1216(9) 0.6270(9)
H34 H 0.5003 -0.1384 0.6238
H35 H 0.3854 -0.1860 0.6477
H36 H 0.4139 -0.0728 0.6767
N8 N 0.3601(9) -0.0320(10) 0.4440(8)
loop_
_geom_bond_atom_site_label_1
_geom_bond_atom_site_label_2
_geom_bond_site_symmetry_1
_geom_bond_site_symmetry_2
C1 H1 1_555 1_555
C2 C1 1_555 1_555
H2 C2 1_555 1_555
C3 C2 1_555 1_555
H3 C3 1_555 1_555
C4 C3 1_555 1_555
H4 C4 1_555 1_555
C5 C4 1_555 1_555
C6 C5 1_555 1_555
H5 C6 1_555 1_555
H6 C6 1_555 1_555
C7 H7 1_555 1_555
H8 C7 1_555 1_555
C8 C7 1_555 1_555
C9 C8 1_555 1_555
H9 C9 1_555 1_555
C10 C9 1_555 1_555
H10 C10 1_555 1_555
C11 C10 1_555 1_555
C12 C11 1_555 1_555
H11 C12 1_555 1_555
C13 C8 1_555 1_555
H12 C13 1_555 1_555
C14 C11 1_555 1_555
H13 C14 1_555 1_555
H14 C14 1_555 1_555
C15 H15 1_555 1_555
H16 C15 1_555 1_555
C16 C15 1_555 1_555
C17 C16 1_555 1_555
H17 C17 1_555 1_555
C18 C17 1_555 1_555
H18 C18 1_555 1_555
C19 C18 1_555 1_555
H19 C19 1_555 1_555
C20 C19 1_555 1_555
H20 C20 1_555 1_555
N1 C1 1_555 1_555
N2 C16 1_555 1_555
N3 O4 1_555 1_555
N4 O1 1_555 1_555
O1 Cd1 1_555 1_555
O2 N4 1_555 1_555
O3 N4 1_555 1_555
O5 N3 1_555 1_555
O6 N3 1_555 1_555
S1 C6 1_555 1_555
S2 C14 1_555 1_555
Cd1 N1 1_555 1_555
C21 H21 1_555 1_555
C22 C21 1_555 1_555
H22 C22 1_555 1_555
C23 C22 1_555 1_555
H23 C23 1_555 1_555
C24 C23 1_555 1_555
H24 C24 1_555 1_555
C25 C24 1_555 1_555
C26 C25 1_555 1_555
H25 C26 1_555 1_555
H26 C26 1_555 1_555
C27 H27 1_555 1_555
H28 C27 1_555 1_555
C28 C27 1_555 1_555
C29 C28 1_555 1_555
H29 C29 1_555 1_555
C30 C28 1_555 1_555
H30 C30 1_555 1_555
N5 C21 1_555 1_555
N6 O7 1_555 1_555
O8 N6 1_555 1_555
O9 N6 1_555 1_555
S3 C26 1_555 1_555
Cd2 N5 1_555 1_555
C31 C32 1_555 1_555
C32 H31 1_555 1_555
H32 C32 1_555 1_555
H33 C32 1_555 1_555
N7 C31 1_555 1_555
C33 C34 1_555 1_555
C34 H34 1_555 1_555
H35 C34 1_555 1_555
H36 C34 1_555 1_555
N8 C33 1_555 1_555
N2_2 Cd1 1_555 1_555
S2_2 Cd1 1_555 1_555
Cd1_2 N2 1_555 1_555
C21A H21A 1_555 1_555
C22A C21A 1_555 1_555
H22A C22A 1_555 1_555
C23A C22A 1_555 1_555
H23A C23A 1_555 1_555
C24A C23A 1_555 1_555
H24A C24A 1_555 1_555
C25A C24A 1_555 1_555
C26A C25A 1_555 1_555
H25A C26A 1_555 1_555
H26A C26A 1_555 1_555
C27A H27A 1_555 1_555
H28A C27A 1_555 1_555
C28A C27A 1_555 1_555
C29A C30 1_555 1_555
H29A C29A 1_555 1_555
C30A C29 1_555 1_555
H30A C30A 1_555 1_555
N5A C21A 1_555 1_555
N5A_2 Cd2 1_555 1_555
N6A O7A 1_555 1_555
O8A N6A 1_555 1_555
O9A Cd2 1_555 1_555
S3A C26A 1_555 1_555
S3A_2 Cd2 1_555 1_555
Cd2_2 N5A 1_555 1_555
C5 N1 1_555 1_555
C7 S1 1_555 1_555
C12 C13 1_555 1_555
C15 S2 1_555 1_555
C20 N2 1_555 1_555
O3 Cd1 1_555 1_555
O6 Cd1 1_555 1_555
S1 Cd1 1_555 1_555
S2 Cd1_2 1_555 1_555
C25 N5 1_555 1_555
C27 S3 1_555 1_555
O9 Cd2 1_555 1_555
S3 Cd2 1_555 1_555
C25A N5A 1_555 1_555
C27A S3A 1_555 1_555
C28A C29A 1_555 1_555
C28A C30A 1_555 1_555
N6A O9A 1_555 1_555
S3A Cd2_2 1_555 1_555

#END
