
#######################################################################
#
#                 Cambridge Crystallographic Data Centre
#                                CCDC 
#
#######################################################################
#
# If this CIF has been generated from an entry in the Cambridge 
# Structural Database, then it will include bibliographic, chemical, 
# crystal, experimental, refinement or atomic coordinate data resulting 
# from the CCDC's data processing and validation procedures.
#
#######################################################################

data_XALGEX
_symmetry_cell_setting           triclinic
_symmetry_space_group_name_H-M   'P -1'
_symmetry_Int_Tables_number      2
_space_group_name_Hall           '-P 1'
loop_
_symmetry_equiv_pos_site_id
_symmetry_equiv_pos_as_xyz
1 x,y,z
2 -x,-y,-z
_cell_length_a                   8.739(3)
_cell_length_b                   9.603(3)
_cell_length_c                   10.239(3)
_cell_angle_alpha                73.759(4)
_cell_angle_beta                 79.778(4)
_cell_angle_gamma                77.533(4)
_cell_volume                     799.213
loop_
_atom_site_label
_atom_site_type_symbol
_atom_site_fract_x
_atom_site_fract_y
_atom_site_fract_z
C1 C 0.1880(3) 0.0511(2) 0.4118(2)
H1 H 0.1411 -0.0309 0.4250
C2 C 0.2703(3) 0.0564(3) 0.5115(2)
H2 H 0.2776 -0.0189 0.5915
C3 C 0.3422(3) 0.1767(3) 0.4902(2)
H3 H 0.3996 0.1837 0.5556
C4 C 0.3279(3) 0.2868(3) 0.3703(2)
H4 H 0.3774 0.3677 0.3537
C5 C 0.2396(2) 0.2760(2) 0.2756(2)
C6 C 0.2130(3) 0.4049(2) 0.1518(2)
H5 H 0.3070 0.4496 0.1270
H6 H 0.1271 0.4774 0.1799
C7 C 0.3593(2) 0.3037(2) -0.0824(2)
H7 H 0.3520 0.3241 -0.1796
H8 H 0.4335 0.3610 -0.0726
C8 C 0.4295(2) 0.14299(19) -0.03409(19)
C9 C 0.5890(2) 0.0976(2) -0.07522(19)
H9 H 0.6487 0.1679 -0.1274
N1 N 0.17127(19) 0.15816(18) 0.29533(17)
N2 N 0.34107(18) 0.04400(16) 0.04206(16)
N3 N -0.0273(2) -0.16941(19) 0.21645(17)
N4 N -0.25142(19) 0.27373(18) 0.11764(18)
O1 O -0.0615(2) -0.29257(18) 0.25939(18)
O2 O -0.0917(2) -0.07240(18) 0.12224(17)
O3 O 0.07596(19) -0.13317(18) 0.26381(18)
O4 O -0.18208(18) 0.22318(17) 0.22399(16)
O5 O -0.38812(18) 0.34093(19) 0.1222(2)
O6 O -0.17427(17) 0.25371(16) 0.00690(15)
S1 S 0.16869(5) 0.37160(5) -0.00054(5)
Cd1 Cd 0.065171(14) 0.117458(13) 0.114522(13)
C1A C 0.8120(3) -0.0511(2) -0.4118(2)
H1A H 0.8589 0.0309 -0.4250
C2A C 0.7297(3) -0.0564(3) -0.5115(2)
H2A H 0.7224 0.0189 -0.5915
C3A C 0.6578(3) -0.1767(3) -0.4902(2)
H3A H 0.6004 -0.1837 -0.5556
C4A C 0.6721(3) -0.2868(3) -0.3703(2)
H4A H 0.6226 -0.3677 -0.3537
C5A C 0.7604(2) -0.2760(2) -0.2756(2)
C6A C 0.7870(3) -0.4049(2) -0.1518(2)
H5A H 0.6930 -0.4496 -0.1270
H6A H 0.8729 -0.4774 -0.1799
C7A C 0.6407(2) -0.3037(2) 0.0824(2)
H7A H 0.6480 -0.3241 0.1796
H8A H 0.5665 -0.3610 0.0726
C8A C 0.5705(2) -0.14299(19) 0.03409(19)
C9A C 0.4110(2) -0.0976(2) 0.07522(19)
H9A H 0.3513 -0.1679 0.1274
N1A N 0.82873(19) -0.15816(18) -0.29533(17)
N2A N 0.65893(18) -0.04400(16) -0.04206(16)
N3A N 0.0273(2) 0.16941(19) -0.21645(17)
N4A N 1.25142(19) -0.27373(18) -0.11764(18)
O1A O 0.0615(2) 0.29257(18) -0.25939(18)
O2A O 0.0917(2) 0.07240(18) -0.12224(17)
O2_2 O 0.9083(2) -0.07240(18) 0.12224(17)
O2A_2 O 1.0917(2) 0.07240(18) -0.12224(17)
O3A O -0.07596(19) 0.13317(18) -0.26381(18)
O3A_2 O 0.92404(19) 0.13317(18) -0.26381(18)
O4A O 1.18208(18) -0.22318(17) -0.22399(16)
O5A O 1.38812(18) -0.34093(19) -0.1222(2)
O6A O 1.17427(17) -0.25371(16) -0.00690(15)
S1A S 0.83131(5) -0.37160(5) 0.00054(5)
Cd1A Cd 0.934829(14) -0.117458(13) -0.114522(13)
Cd1A_2 Cd -0.065171(14) -0.117458(13) -0.114522(13)
C10 C 0.8229(3) 0.4050(3) 0.4532(3)
H10 H 0.8113 0.5105 0.4247
H11 H 0.8356 0.3665 0.3742
H12 H 0.9141 0.3654 0.5009
C11 C 0.6837(3) 0.3640(2) 0.5434(2)
N5 N 0.5743(3) 0.3324(3) 0.6152(2)
loop_
_geom_bond_atom_site_label_1
_geom_bond_atom_site_label_2
_geom_bond_site_symmetry_1
_geom_bond_site_symmetry_2
C1 H1 1_555 1_555
C2 C1 1_555 1_555
H2 C2 1_555 1_555
C3 C2 1_555 1_555
H3 C3 1_555 1_555
C4 C3 1_555 1_555
H4 C4 1_555 1_555
C5 C4 1_555 1_555
C6 C5 1_555 1_555
H5 C6 1_555 1_555
H6 C6 1_555 1_555
C7 H7 1_555 1_555
H8 C7 1_555 1_555
C8 C7 1_555 1_555
C9 C8 1_555 1_555
H9 C9 1_555 1_555
N1 C1 1_555 1_555
N2 C8 1_555 1_555
N3 O1 1_555 1_555
N4 O4 1_555 1_555
O2 N3 1_555 1_555
O3 N3 1_555 1_555
O4 Cd1 1_555 1_555
O5 N4 1_555 1_555
O6 N4 1_555 1_555
S1 C6 1_555 1_555
Cd1 N1 1_555 1_555
C10 H10 1_555 1_555
H11 C10 1_555 1_555
H12 C10 1_555 1_555
C11 C10 1_555 1_555
N5 C11 1_555 1_555
C1A H1A 1_555 1_555
C2A C1A 1_555 1_555
H2A C2A 1_555 1_555
C3A C2A 1_555 1_555
H3A C3A 1_555 1_555
C4A C3A 1_555 1_555
H4A C4A 1_555 1_555
C5A C4A 1_555 1_555
C6A C5A 1_555 1_555
H5A C6A 1_555 1_555
H6A C6A 1_555 1_555
C7A H7A 1_555 1_555
H8A C7A 1_555 1_555
C8A C7A 1_555 1_555
C9A N2 1_555 1_555
H9A C9A 1_555 1_555
N1A C1A 1_555 1_555
N2A C9 1_555 1_555
N3A O1A 1_555 1_555
N4A O4A 1_555 1_555
O2A Cd1 1_555 1_555
O2_2 Cd1A 1_555 1_555
O2A_2 Cd1A 1_555 1_555
O3A N3A 1_555 1_555
O3A_2 Cd1A 1_555 1_555
O4A Cd1A 1_555 1_555
O5A N4A 1_555 1_555
O6A N4A 1_555 1_555
S1A C6A 1_555 1_555
Cd1A N1A 1_555 1_555
Cd1A_2 O2 1_555 1_555
C5 N1 1_555 1_555
C7 S1 1_555 1_555
N2 Cd1 1_555 1_555
O2 Cd1 1_555 1_555
O3 Cd1 1_555 1_555
O6 Cd1 1_555 1_555
S1 Cd1 1_555 1_555
C5A N1A 1_555 1_555
C7A S1A 1_555 1_555
C8A C9A 1_555 1_555
C8A N2A 1_555 1_555
N2A Cd1A 1_555 1_555
N3A O2A 1_555 1_555
O2A Cd1A_2 1_555 1_555
O3A Cd1A_2 1_555 1_555
O6A Cd1A 1_555 1_555
S1A Cd1A 1_555 1_555

#END
