
#######################################################################
#
#                 Cambridge Crystallographic Data Centre
#                                CCDC 
#
#######################################################################
#
# If this CIF has been generated from an entry in the Cambridge 
# Structural Database, then it will include bibliographic, chemical, 
# crystal, experimental, refinement or atomic coordinate data resulting 
# from the CCDC's data processing and validation procedures.
#
#######################################################################

data_XALLUS
_symmetry_cell_setting           monoclinic
_symmetry_space_group_name_H-M   'P 21/n'
_symmetry_Int_Tables_number      14
_space_group_name_Hall           '-P 2yn'
loop_
_symmetry_equiv_pos_site_id
_symmetry_equiv_pos_as_xyz
1 x,y,z
2 1/2-x,1/2+y,1/2-z
3 -x,-y,-z
4 1/2+x,1/2-y,1/2+z
_cell_length_a                   12.981(4)
_cell_length_b                   20.006(13)
_cell_length_c                   16.681(5)
_cell_angle_alpha                90
_cell_angle_beta                 108.29(3)
_cell_angle_gamma                90
_cell_volume                     4113.17
loop_
_atom_site_label
_atom_site_type_symbol
_atom_site_fract_x
_atom_site_fract_y
_atom_site_fract_z
O1 O -0.10110(14) 0.15211(9) 0.19013(11)
O2 O 0.01753(14) 0.06162(9) 0.34794(11)
O3 O -0.27448(14) 0.33466(9) -0.09840(11)
N1 N 0.17298(18) 0.16779(11) 0.19554(13)
N2 N 0.04922(17) 0.32542(11) 0.31441(13)
N3 N -0.06829(19) 0.20953(12) 0.43861(15)
O4 O 0.14043(16) 0.11505(10) 0.22139(12)
O5 O 0.10712(16) 0.28982(10) 0.37420(12)
O6 O -0.11368(16) 0.21424(11) 0.35913(12)
O7 O 0.13884(16) 0.22253(10) 0.21598(12)
O8 O -0.01940(15) 0.29502(10) 0.25454(11)
O9 O 0.02477(16) 0.18235(10) 0.46284(12)
O10 O 0.23457(18) 0.16641(11) 0.15337(14)
O11 O 0.06036(17) 0.38649(10) 0.31475(13)
O12 O -0.11189(19) 0.23026(12) 0.48832(14)
C1 C -0.1739(2) 0.19824(13) 0.02784(16)
H1 H -0.1036 0.1935 0.0169
H2 H -0.2322 0.1890 -0.0257
C2 C 0.0387(2) -0.02095(14) 0.48388(15)
H3 H 0.0305 -0.0687 0.4962
H4 H 0.1144 -0.0076 0.5141
C3 C -0.1852(2) 0.27052(13) 0.05440(16)
H5 H -0.2568 0.2763 0.0629
H6 H -0.1285 0.2798 0.1088
C4 C -0.1530(2) 0.05828(14) 0.06424(16)
C5 C -0.0763(2) 0.01596(14) 0.11716(17)
H7 H -0.0381 0.0298 0.1731
C6 C -0.0549(2) -0.04583(15) 0.08920(19)
H8 H -0.0024 -0.0743 0.1259
C7 C -0.1101(3) -0.06649(16) 0.0076(2)
H9 H -0.0968 -0.1095 -0.0113
C8 C -0.1847(3) -0.02395(16) -0.04618(19)
H10 H -0.2213 -0.0375 -0.1025
C9 C -0.2062(2) 0.03777(15) -0.01865(18)
H11 H -0.2574 0.0666 -0.0561
C10 C -0.3169(2) 0.13587(14) 0.11087(16)
C11 C -0.4055(2) 0.11745(18) 0.04232(19)
H12 H -0.3953 0.1068 -0.0102
C12 C -0.5080(3) 0.1145(2) 0.0505(2)
H13 H -0.5682 0.1020 0.0035
C13 C -0.5232(3) 0.1297(2) 0.1262(2)
H14 H -0.5938 0.1277 0.1316
C14 C -0.4358(3) 0.1478(2) 0.1943(2)
H15 H -0.4465 0.1581 0.2467
C15 C -0.3326(3) 0.15116(17) 0.18722(19)
H16 H -0.2729 0.1639 0.2344
C16 C 0.1107(2) -0.06014(14) 0.34260(15)
C17 C 0.1641(2) -0.03155(14) 0.29115(16)
H17 H 0.1506 0.0138 0.2742
C18 C 0.2371(2) -0.06859(16) 0.26437(18)
H18 H 0.2747 -0.0485 0.2301
C19 C 0.2553(2) -0.13490(16) 0.28750(18)
H19 H 0.3048 -0.1604 0.2685
C20 C 0.2020(2) -0.16432(15) 0.33802(17)
H20 H 0.2141 -0.2101 0.3530
C21 C 0.1308(2) -0.12700(14) 0.36695(16)
H21 H 0.0957 -0.1468 0.4032
C22 C -0.1360(2) 0.40971(14) 0.02441(16)
C23 C -0.0865(2) 0.26775(16) -0.13660(17)
H22 H -0.1590 0.2669 -0.1736
C24 C -0.0633(2) 0.29826(14) -0.05813(16)
C25 C -0.1179(2) -0.04630(14) 0.31651(16)
C26 C -0.1382(2) -0.11454(16) 0.3190(2)
H23 H -0.0877 -0.1423 0.3586
C27 C -0.2315(3) -0.14205(18) 0.2642(2)
H24 H -0.2450 -0.1886 0.2658
C28 C -0.3047(3) -0.1017(2) 0.2073(2)
H25 H -0.3670 -0.1209 0.1677
C29 C -0.2885(3) -0.0337(2) 0.2071(2)
H26 H -0.3415 -0.0060 0.1696
C30 C -0.1947(2) -0.00558(18) 0.2618(2)
H27 H -0.1833 0.0413 0.2617
C31 C -0.0875(3) 0.41965(16) 0.11018(18)
H28 H -0.0710 0.3825 0.1475
C32 C -0.0631(3) 0.48400(17) 0.14142(19)
H29 H -0.0301 0.4906 0.2003
C33 C -0.0862(3) 0.53843(16) 0.0881(2)
H30 H -0.0693 0.5823 0.1102
C34 C -0.1340(3) 0.52884(16) 0.0026(2)
H31 H -0.1499 0.5662 -0.0345
C35 C -0.1588(2) 0.46517(15) -0.02927(18)
H32 H -0.1916 0.4589 -0.0883
C36 C 0.1249(2) 0.26917(17) -0.02878(19)
H33 H 0.1976 0.2698 0.0080
C37 C 0.0435(2) 0.29789(15) -0.00351(17)
H34 H 0.0599 0.3174 0.0510
C38 C 0.1014(2) 0.23953(16) -0.10734(19)
H35 H 0.1576 0.2199 -0.1246
C39 C -0.0047(3) 0.23863(17) -0.16087(19)
H36 H -0.0211 0.2178 -0.2146
Nd1 Nd 0.043938(11) 0.175492(7) 0.314379(8)
P1 P -0.18079(5) 0.13716(3) 0.10477(4)
P2 P 0.01265(5) -0.01048(3) 0.37187(4)
P3 P -0.17265(5) 0.32932(3) -0.02413(4)
O1C O 0.39890(14) 0.34789(9) 0.69013(11)
O2B O -0.01753(14) -0.06162(9) 0.65206(11)
O2C O 0.51753(14) 0.43838(9) 0.84794(11)
O3C O 0.22552(14) 0.16534(9) 0.40160(11)
O3_2 O 0.72552(14) 0.33466(9) 0.90160(11)
N1C N 0.67298(18) 0.33221(11) 0.69554(13)
N2C N 0.54922(17) 0.17458(11) 0.81441(13)
N3C N 0.43171(19) 0.29047(12) 0.93861(15)
O4C O 0.64043(16) 0.38495(10) 0.72139(12)
O5C O 0.60712(16) 0.21018(10) 0.87420(12)
O6C O 0.38632(16) 0.28576(11) 0.85913(12)
O7C O 0.63884(16) 0.27747(10) 0.71598(12)
O8C O 0.48060(15) 0.20498(10) 0.75454(11)
O9C O 0.52477(16) 0.31765(10) 0.96284(12)
O10C O 0.73457(18) 0.33359(11) 0.65337(14)
O11C O 0.56036(17) 0.11351(10) 0.81475(13)
O12C O 0.38811(19) 0.26974(12) 0.98832(14)
C1C C 0.3261(2) 0.30176(13) 0.52784(16)
H1C H 0.3964 0.3065 0.5169
H2C H 0.2678 0.3110 0.4743
C2B C -0.0387(2) 0.02095(14) 0.51612(15)
H3B H -0.0305 0.0687 0.5038
H4B H -0.1144 0.0076 0.4859
C3C C 0.3148(2) 0.22948(13) 0.55440(16)
H5C H 0.2432 0.2237 0.5629
H6C H 0.3715 0.2202 0.6088
C4C C 0.3470(2) 0.44172(14) 0.56424(16)
C5C C 0.4237(2) 0.48404(14) 0.61716(17)
H7C H 0.4619 0.4702 0.6731
C6C C 0.4451(2) 0.54583(15) 0.58920(19)
H8C H 0.4976 0.5743 0.6259
C7C C 0.3899(3) 0.56649(16) 0.5076(2)
H9C H 0.4032 0.6095 0.4887
C8C C 0.3153(3) 0.52395(16) 0.45382(19)
H10C H 0.2787 0.5375 0.3975
C9C C 0.2938(2) 0.46223(15) 0.48135(18)
H11C H 0.2426 0.4334 0.4439
C10C C 0.1831(2) 0.36413(14) 0.61087(16)
C11C C 0.0945(2) 0.38255(18) 0.54232(19)
H12C H 0.1047 0.3932 0.4898
C12C C -0.0080(3) 0.3855(2) 0.5505(2)
H13C H -0.0682 0.3980 0.5035
C13C C -0.0232(3) 0.3703(2) 0.6262(2)
H14C H -0.0938 0.3723 0.6316
C14C C 0.0642(3) 0.3522(2) 0.6943(2)
H15C H 0.0535 0.3419 0.7467
C15C C 0.1674(3) 0.34884(17) 0.68722(19)
H16C H 0.2271 0.3361 0.7344
C16B C -0.1107(2) 0.06014(14) 0.65740(15)
C17B C -0.1641(2) 0.03155(14) 0.70885(16)
H17B H -0.1506 -0.0138 0.7258
C18B C -0.2371(2) 0.06859(16) 0.73563(18)
H18B H -0.2747 0.0485 0.7699
C19B C -0.2553(2) 0.13490(16) 0.71250(18)
H19B H -0.3048 0.1604 0.7315
C20B C -0.2020(2) 0.16432(15) 0.66198(17)
H20B H -0.2141 0.2101 0.6470
C21B C -0.1308(2) 0.12700(14) 0.63305(16)
H21B H -0.0957 0.1468 0.5968
C22C C 0.3640(2) 0.09029(14) 0.52441(16)
C23C C 0.4135(2) 0.23225(16) 0.36340(17)
H22C H 0.3410 0.2331 0.3264
C24C C 0.4367(2) 0.20174(14) 0.44187(16)
C25B C 0.1179(2) 0.04630(14) 0.68349(16)
C26B C 0.1382(2) 0.11454(16) 0.6810(2)
H23B H 0.0877 0.1423 0.6414
C27B C 0.2315(3) 0.14205(18) 0.7358(2)
H24B H 0.2450 0.1886 0.7342
C28B C 0.3047(3) 0.1017(2) 0.7927(2)
H25B H 0.3670 0.1209 0.8323
C29B C 0.2885(3) 0.0337(2) 0.7929(2)
H26B H 0.3415 0.0060 0.8304
C30B C 0.1947(2) 0.00558(18) 0.7382(2)
H27B H 0.1833 -0.0413 0.7383
C31C C 0.4125(3) 0.08035(16) 0.61018(18)
H28C H 0.4290 0.1175 0.6475
C32C C 0.4369(3) 0.01600(17) 0.64142(19)
H29C H 0.4699 0.0094 0.7003
C33C C 0.4138(3) -0.03843(16) 0.5881(2)
H30C H 0.4307 -0.0823 0.6102
C34C C 0.3660(3) -0.02884(16) 0.5026(2)
H31C H 0.3501 -0.0662 0.4655
C35C C 0.3412(2) 0.03483(15) 0.47073(18)
H32C H 0.3084 0.0411 0.4117
C36C C 0.6249(2) 0.23083(17) 0.47122(19)
H33C H 0.6976 0.2302 0.5080
C37C C 0.5435(2) 0.20211(15) 0.49649(17)
H34C H 0.5599 0.1826 0.5510
C38C C 0.6014(2) 0.26047(16) 0.39266(19)
H35C H 0.6576 0.2801 0.3754
C39C C 0.4953(3) 0.26137(17) 0.33913(19)
H36C H 0.4789 0.2822 0.2854
Nd1C Nd 0.543938(11) 0.324508(7) 0.814379(8)
Nd1C_2 Nd -0.456062(11) 0.324508(7) -0.185621(8)
Nd1B Nd -0.043938(11) -0.175492(7) 0.685621(8)
P1C P 0.31921(5) 0.36284(3) 0.60477(4)
P2B P -0.01265(5) 0.01048(3) 0.62813(4)
P3C P 0.32735(5) 0.17068(3) 0.47587(4)
loop_
_geom_bond_atom_site_label_1
_geom_bond_atom_site_label_2
_geom_bond_site_symmetry_1
_geom_bond_site_symmetry_2
O1 Nd1 1_555 1_555
O2 Nd1 1_555 1_555
O3 P3 1_555 1_555
N1 O4 1_555 1_555
N2 O5 1_555 1_555
N3 O6 1_555 1_555
O4 Nd1 1_555 1_555
O5 Nd1 1_555 1_555
O6 Nd1 1_555 1_555
O7 N1 1_555 1_555
O8 N2 1_555 1_555
O9 N3 1_555 1_555
O10 N1 1_555 1_555
O11 N2 1_555 1_555
O12 N3 1_555 1_555
C1 H1 1_555 1_555
H2 C1 1_555 1_555
C2 H3 1_555 1_555
H4 C2 1_555 1_555
C3 C1 1_555 1_555
H5 C3 1_555 1_555
H6 C3 1_555 1_555
C4 C5 1_555 1_555
C5 H7 1_555 1_555
C6 C5 1_555 1_555
H8 C6 1_555 1_555
C7 C6 1_555 1_555
H9 C7 1_555 1_555
C8 C7 1_555 1_555
H10 C8 1_555 1_555
C9 C4 1_555 1_555
H11 C9 1_555 1_555
C10 C11 1_555 1_555
C11 H12 1_555 1_555
C12 C11 1_555 1_555
H13 C12 1_555 1_555
C13 C12 1_555 1_555
H14 C13 1_555 1_555
C14 C13 1_555 1_555
H15 C14 1_555 1_555
C15 C10 1_555 1_555
H16 C15 1_555 1_555
C16 C17 1_555 1_555
C17 H17 1_555 1_555
C18 C17 1_555 1_555
H18 C18 1_555 1_555
C19 C18 1_555 1_555
H19 C19 1_555 1_555
C20 C19 1_555 1_555
H20 C20 1_555 1_555
C21 C16 1_555 1_555
H21 C21 1_555 1_555
C22 C31 1_555 1_555
C23 H22 1_555 1_555
C24 C23 1_555 1_555
C25 C26 1_555 1_555
C26 H23 1_555 1_555
C27 C26 1_555 1_555
H24 C27 1_555 1_555
C28 C27 1_555 1_555
H25 C28 1_555 1_555
C29 C28 1_555 1_555
H26 C29 1_555 1_555
C30 C25 1_555 1_555
H27 C30 1_555 1_555
C31 H28 1_555 1_555
C32 C31 1_555 1_555
H29 C32 1_555 1_555
C33 C32 1_555 1_555
H30 C33 1_555 1_555
C34 C33 1_555 1_555
H31 C34 1_555 1_555
C35 C22 1_555 1_555
H32 C35 1_555 1_555
C36 H33 1_555 1_555
C37 C24 1_555 1_555
H34 C37 1_555 1_555
C38 C36 1_555 1_555
H35 C38 1_555 1_555
C39 C23 1_555 1_555
H36 C39 1_555 1_555
Nd1 O7 1_555 1_555
P1 O1 1_555 1_555
P2 O2 1_555 1_555
P3 C3 1_555 1_555
O1C Nd1C 1_555 1_555
O2B Nd1B 1_555 1_555
O2C Nd1C 1_555 1_555
O3C Nd1 1_555 1_555
O3_2 Nd1C 1_555 1_555
N1C O4C 1_555 1_555
N2C O5C 1_555 1_555
N3C O6C 1_555 1_555
O4C Nd1C 1_555 1_555
O5C Nd1C 1_555 1_555
O6C Nd1C 1_555 1_555
O7C N1C 1_555 1_555
O8C N2C 1_555 1_555
O9C N3C 1_555 1_555
O10C N1C 1_555 1_555
O11C N2C 1_555 1_555
O12C N3C 1_555 1_555
C1C H1C 1_555 1_555
H2C C1C 1_555 1_555
C2B C2 1_555 1_555
H3B C2B 1_555 1_555
H4B C2B 1_555 1_555
C3C C1C 1_555 1_555
H5C C3C 1_555 1_555
H6C C3C 1_555 1_555
C4C C5C 1_555 1_555
C5C H7C 1_555 1_555
C6C C5C 1_555 1_555
H8C C6C 1_555 1_555
C7C C6C 1_555 1_555
H9C C7C 1_555 1_555
C8C C7C 1_555 1_555
H10C C8C 1_555 1_555
C9C C4C 1_555 1_555
H11C C9C 1_555 1_555
C10C C11C 1_555 1_555
C11C H12C 1_555 1_555
C12C C11C 1_555 1_555
H13C C12C 1_555 1_555
C13C C12C 1_555 1_555
H14C C13C 1_555 1_555
C14C C13C 1_555 1_555
H15C C14C 1_555 1_555
C15C C10C 1_555 1_555
H16C C15C 1_555 1_555
C16B C17B 1_555 1_555
C17B H17B 1_555 1_555
C18B C17B 1_555 1_555
H18B C18B 1_555 1_555
C19B C18B 1_555 1_555
H19B C19B 1_555 1_555
C20B C19B 1_555 1_555
H20B C20B 1_555 1_555
C21B C16B 1_555 1_555
H21B C21B 1_555 1_555
C22C C31C 1_555 1_555
C23C H22C 1_555 1_555
C24C C23C 1_555 1_555
C25B C26B 1_555 1_555
C26B H23B 1_555 1_555
C27B C26B 1_555 1_555
H24B C27B 1_555 1_555
C28B C27B 1_555 1_555
H25B C28B 1_555 1_555
C29B C28B 1_555 1_555
H26B C29B 1_555 1_555
C30B C25B 1_555 1_555
H27B C30B 1_555 1_555
C31C H28C 1_555 1_555
C32C C31C 1_555 1_555
H29C C32C 1_555 1_555
C33C C32C 1_555 1_555
H30C C33C 1_555 1_555
C34C C33C 1_555 1_555
H31C C34C 1_555 1_555
C35C C22C 1_555 1_555
H32C C35C 1_555 1_555
C36C H33C 1_555 1_555
C37C C24C 1_555 1_555
H34C C37C 1_555 1_555
C38C C36C 1_555 1_555
H35C C38C 1_555 1_555
C39C C23C 1_555 1_555
H36C C39C 1_555 1_555
Nd1C O7C 1_555 1_555
Nd1C_2 O3 1_555 1_555
P1C O1C 1_555 1_555
P2B O2B 1_555 1_555
P3C O3C 1_555 1_555
O8 Nd1 1_555 1_555
O9 Nd1 1_555 1_555
C1 P1 1_555 1_555
C2 P2 1_555 1_555
C4 P1 1_555 1_555
C8 C9 1_555 1_555
C10 P1 1_555 1_555
C14 C15 1_555 1_555
C16 P2 1_555 1_555
C20 C21 1_555 1_555
C22 P3 1_555 1_555
C24 P3 1_555 1_555
C25 P2 1_555 1_555
C29 C30 1_555 1_555
C34 C35 1_555 1_555
C36 C37 1_555 1_555
C38 C39 1_555 1_555
O8C Nd1C 1_555 1_555
O9C Nd1C 1_555 1_555
C1C P1C 1_555 1_555
C2B P2B 1_555 1_555
C3C P3C 1_555 1_555
C4C P1C 1_555 1_555
C8C C9C 1_555 1_555
C10C P1C 1_555 1_555
C14C C15C 1_555 1_555
C16B P2B 1_555 1_555
C20B C21B 1_555 1_555
C22C P3C 1_555 1_555
C24C P3C 1_555 1_555
C25B P2B 1_555 1_555
C29B C30B 1_555 1_555
C34C C35C 1_555 1_555
C36C C37C 1_555 1_555
C38C C39C 1_555 1_555

#END
