
#######################################################################
#
#                 Cambridge Crystallographic Data Centre
#                                CCDC 
#
#######################################################################
#
# If this CIF has been generated from an entry in the Cambridge 
# Structural Database, then it will include bibliographic, chemical, 
# crystal, experimental, refinement or atomic coordinate data resulting 
# from the CCDC's data processing and validation procedures.
#
#######################################################################

data_XALMIH
_symmetry_cell_setting           triclinic
_symmetry_space_group_name_H-M   'P -1'
_symmetry_Int_Tables_number      2
_space_group_name_Hall           '-P 1'
loop_
_symmetry_equiv_pos_site_id
_symmetry_equiv_pos_as_xyz
1 x,y,z
2 -x,-y,-z
_cell_length_a                   12.1134(7)
_cell_length_b                   15.0148(9)
_cell_length_c                   15.6454(9)
_cell_angle_alpha                114.953(6)
_cell_angle_beta                 90.156(5)
_cell_angle_gamma                109.306(5)
_cell_volume                     2401.03
loop_
_atom_site_label
_atom_site_type_symbol
_atom_site_fract_x
_atom_site_fract_y
_atom_site_fract_z
C2 C -0.4052(10) 0.5902(8) 0.1903(9)
C3 C -0.5032(19) 0.6076(16) 0.1995(7)
Cl2 Cl -0.4108(3) 0.46505(19) 0.1062(3)
Cl3 Cl -0.5899(2) 0.5964(3) 0.1016(2)
Nd1 Nd -0.078153(12) 0.804628(11) 0.669960(9)
P1 P 0.10122(6) 1.05038(5) 0.64251(5)
P2 P 0.13382(6) 0.66176(5) 0.55629(5)
P3 P 0.10547(6) 0.90644(6) 0.91779(5)
O1 O 0.06042(16) 0.94948(14) 0.65306(13)
O2 O 0.05897(17) 0.72263(15) 0.61081(13)
O3 O 0.04090(17) 0.86438(15) 0.81797(13)
O4 O -0.13989(19) 0.64985(16) 0.71264(14)
O5 O -0.23868(19) 0.75353(18) 0.76315(15)
O6 O -0.2509(2) 0.6416(2) 0.82094(18)
O7 O -0.22291(17) 0.63777(15) 0.53281(13)
O8 O -0.10805(17) 0.75102(15) 0.48872(13)
O9 O -0.2253(2) 0.59544(18) 0.38086(15)
O10 O -0.22269(18) 0.87794(16) 0.63080(14)
O11 O -0.13184(18) 0.96555(16) 0.77754(14)
O12 O -0.2474(2) 1.02374(17) 0.72550(16)
N1 N -0.2117(2) 0.6799(2) 0.76701(17)
N2 N -0.1870(2) 0.65921(18) 0.46456(16)
N3 N -0.2023(2) 0.95795(18) 0.71217(17)
C4 C 0.0032(2) 1.0440(2) 0.55031(18)
H1 H -0.0774 1.0314 0.5671
H2 H 0.0314 1.1129 0.5484
C5 C 0.0636(2) 0.5238(2) 0.5274(2)
H3 H 0.1111 0.4844 0.4881
H4 H 0.0614 0.5159 0.5872
C6 C 0.0196(3) 0.9591(2) 1.00648(19)
H5 H -0.0517 0.9004 1.0028
H6 H 0.0675 0.9926 1.0708
C7 C 0.2497(2) 1.0776(2) 0.61460(19)
C8 C 0.2965(3) 1.1474(3) 0.5756(2)
H7 H 0.2484 1.1787 0.5596
C9 C 0.4127(3) 1.1714(3) 0.5600(3)
H8 H 0.4439 1.2184 0.5326
C10 C 0.4840(3) 1.1269(3) 0.5842(2)
H9 H 0.5641 1.1442 0.5742
C11 C 0.4388(3) 1.0577(3) 0.6227(2)
H10 H 0.4878 1.0273 0.6390
C12 C 0.3213(3) 1.0320(3) 0.6379(2)
H11 H 0.2902 0.9838 0.6640
C13 C 0.1094(2) 1.1634(2) 0.75288(19)
C14 C 0.1491(3) 1.1678(3) 0.8381(2)
H12 H 0.1674 1.1107 0.8374
C15 C 0.1627(3) 1.2547(3) 0.9246(2)
H13 H 0.1916 1.2575 0.9825
C16 C 0.1342(3) 1.3364(3) 0.9264(2)
H14 H 0.1420 1.3954 0.9855
C17 C 0.0944(5) 1.3327(3) 0.8421(3)
H15 H 0.0742 1.3892 0.8434
C18 C 0.0834(4) 1.2468(3) 0.7544(3)
H16 H 0.0581 1.2458 0.6964
C19 C 0.2783(2) 0.7097(2) 0.62551(19)
C20 C 0.3748(3) 0.7810(3) 0.6123(2)
H17 H 0.3661 0.8007 0.5631
C21 C 0.4844(3) 0.8241(3) 0.6702(3)
H18 H 0.5500 0.8729 0.6603
C22 C 0.4981(3) 0.7964(3) 0.7416(3)
H19 H 0.5729 0.8260 0.7813
C23 C 0.4019(4) 0.7249(3) 0.7555(3)
H20 H 0.4113 0.7055 0.8047
C24 C 0.2922(3) 0.6817(3) 0.6981(3)
H21 H 0.2267 0.6331 0.7083
C25 C 0.1557(2) 0.6732(2) 0.44689(19)
C26 C 0.1577(3) 0.7647(3) 0.4430(2)
H22 H 0.1425 0.8181 0.4961
C27 C 0.1818(3) 0.7777(3) 0.3614(3)
H23 H 0.1853 0.8408 0.3593
C28 C 0.2008(4) 0.6991(4) 0.2833(3)
H24 H 0.2162 0.7081 0.2274
C29 C 0.1977(3) 0.6075(3) 0.2856(2)
H25 H 0.2099 0.5535 0.2312
C30 C 0.1766(3) 0.5944(3) 0.3679(2)
H26 H 0.1764 0.5322 0.3703
C31 C 0.1291(3) 0.8043(2) 0.9387(2)
C32 C 0.0831(3) 0.6999(3) 0.8698(3)
H27 H 0.0399 0.6814 0.8103
C33 C 0.1006(4) 0.6228(3) 0.8884(3)
H28 H 0.0691 0.5513 0.8412
C34 C 0.1631(3) 0.6483(3) 0.9744(3)
H29 H 0.1756 0.5947 0.9859
C35 C 0.2075(3) 0.7520(3) 1.0442(3)
H30 H 0.2494 0.7698 1.1040
C36 C 0.1906(3) 0.8300(3) 1.0263(2)
H31 H 0.2211 0.9012 1.0741
C37 C 0.2481(3) 1.0080(2) 0.9388(2)
C38 C 0.3216(3) 0.9874(3) 0.8699(2)
H32 H 0.2973 0.9207 0.8152
C39 C 0.4306(3) 1.0652(3) 0.8818(3)
H33 H 0.4818 1.0511 0.8361
C40 C 0.4647(3) 1.1641(3) 0.9610(3)
H34 H 0.5383 1.2178 0.9684
C41 C 0.3916(3) 1.1839(3) 1.0286(3)
H35 H 0.4150 1.2514 1.0823
C42 C 0.2845(3) 1.1063(2) 1.0188(2)
H36 H 0.2357 1.1198 1.0665
C4A C -0.0032(2) 0.9560(2) 0.44969(18)
C5A C -0.0636(2) 0.4762(2) 0.4726(2)
C6A C -0.0196(3) 1.0409(2) 0.99352(19)
C1 C -0.4976(4) 0.5286(3) 0.5520(3)
Cl1 Cl -0.43970(11) 0.45440(11) 0.59888(11)
C1A C -0.5024(4) 0.4714(3) 0.4480(3)
C43? C -0.434(2) 0.5628(17) 0.1967(16)
Cl4? Cl -0.3670(3) 0.46466(18) 0.1498(2)
C44? C -0.5190(15) 0.5469(14) 0.1335(9)
Cl5? Cl -0.5627(4) 0.6598(3) 0.1564(3)
loop_
_geom_bond_atom_site_label_1
_geom_bond_atom_site_label_2
_geom_bond_site_symmetry_1
_geom_bond_site_symmetry_2
C1 Cl1 1_555 1_555
C2 C3 1_555 1_555
C3 Cl3 1_555 1_555
Cl2 C2 1_555 1_555
Nd1 O1 1_555 1_555
P1 O1 1_555 1_555
P2 O2 1_555 1_555
P3 O3 1_555 1_555
O2 Nd1 1_555 1_555
O3 Nd1 1_555 1_555
O4 Nd1 1_555 1_555
O5 Nd1 1_555 1_555
O6 N1 1_555 1_555
O7 Nd1 1_555 1_555
O8 Nd1 1_555 1_555
O9 N2 1_555 1_555
O10 Nd1 1_555 1_555
O11 Nd1 1_555 1_555
O12 N3 1_555 1_555
N1 O4 1_555 1_555
N2 O7 1_555 1_555
N3 O10 1_555 1_555
C4 P1 1_555 1_555
H1 C4 1_555 1_555
H2 C4 1_555 1_555
C5 P2 1_555 1_555
H3 C5 1_555 1_555
H4 C5 1_555 1_555
C6 P3 1_555 1_555
H5 C6 1_555 1_555
H6 C6 1_555 1_555
C7 P1 1_555 1_555
C8 C7 1_555 1_555
H7 C8 1_555 1_555
C9 C8 1_555 1_555
H8 C9 1_555 1_555
C10 C9 1_555 1_555
H9 C10 1_555 1_555
C11 C10 1_555 1_555
H10 C11 1_555 1_555
C12 C7 1_555 1_555
H11 C12 1_555 1_555
C13 P1 1_555 1_555
C14 C13 1_555 1_555
H12 C14 1_555 1_555
C15 C14 1_555 1_555
H13 C15 1_555 1_555
C16 C15 1_555 1_555
H14 C16 1_555 1_555
C17 C16 1_555 1_555
H15 C17 1_555 1_555
C18 C13 1_555 1_555
H16 C18 1_555 1_555
C19 P2 1_555 1_555
C20 C19 1_555 1_555
H17 C20 1_555 1_555
C21 C20 1_555 1_555
H18 C21 1_555 1_555
C22 C21 1_555 1_555
H19 C22 1_555 1_555
C23 C22 1_555 1_555
H20 C23 1_555 1_555
C24 C19 1_555 1_555
H21 C24 1_555 1_555
C25 P2 1_555 1_555
C26 C25 1_555 1_555
H22 C26 1_555 1_555
C27 C26 1_555 1_555
H23 C27 1_555 1_555
C28 C27 1_555 1_555
H24 C28 1_555 1_555
C29 C28 1_555 1_555
H25 C29 1_555 1_555
C30 C25 1_555 1_555
H26 C30 1_555 1_555
C31 P3 1_555 1_555
C32 C31 1_555 1_555
H27 C32 1_555 1_555
C33 C32 1_555 1_555
H28 C33 1_555 1_555
C34 C33 1_555 1_555
H29 C34 1_555 1_555
C35 C34 1_555 1_555
H30 C35 1_555 1_555
C36 C31 1_555 1_555
H31 C36 1_555 1_555
C37 P3 1_555 1_555
C38 C37 1_555 1_555
H32 C38 1_555 1_555
C39 C38 1_555 1_555
H33 C39 1_555 1_555
C40 C39 1_555 1_555
H34 C40 1_555 1_555
C41 C40 1_555 1_555
H35 C41 1_555 1_555
C42 C37 1_555 1_555
H36 C42 1_555 1_555
C1A C1 1_555 1_555
C4A C4 1_555 1_555
C5A C5 1_555 1_555
C6A C6 1_555 1_555
O5 N1 1_555 1_555
O8 N2 1_555 1_555
O11 N3 1_555 1_555
C11 C12 1_555 1_555
C17 C18 1_555 1_555
C23 C24 1_555 1_555
C29 C30 1_555 1_555
C35 C36 1_555 1_555
C41 C42 1_555 1_555

#END
