
#######################################################################
#
#                 Cambridge Crystallographic Data Centre
#                                CCDC 
#
#######################################################################
#
# If this CIF has been generated from an entry in the Cambridge 
# Structural Database, then it will include bibliographic, chemical, 
# crystal, experimental, refinement or atomic coordinate data resulting 
# from the CCDC's data processing and validation procedures.
#
#######################################################################

data_XALMON
_symmetry_cell_setting           triclinic
_symmetry_space_group_name_H-M   'P -1'
_symmetry_Int_Tables_number      2
_space_group_name_Hall           '-P 1'
loop_
_symmetry_equiv_pos_site_id
_symmetry_equiv_pos_as_xyz
1 x,y,z
2 -x,-y,-z
_cell_length_a                   12.766(3)
_cell_length_b                   13.594(3)
_cell_length_c                   14.686(3)
_cell_angle_alpha                105.79(3)
_cell_angle_beta                 96.98(3)
_cell_angle_gamma                115.64(3)
_cell_volume                     2125.2
loop_
_atom_site_label
_atom_site_type_symbol
_atom_site_fract_x
_atom_site_fract_y
_atom_site_fract_z
Gd1 Gd 0.274370(14) 0.511996(15) 0.731465(12)
Cl1 Cl 0.39789(7) 0.69886(8) 0.90017(6)
P1 P 0.15616(7) 0.66384(7) 0.60858(6)
P2 P 0.36039(7) 0.34914(7) 0.87077(6)
Cl2 Cl 0.06620(7) 0.44793(9) 0.77214(7)
P3 P 0.56308(7) 0.62269(8) 0.65275(6)
C1 C 0.0032(3) 0.5491(3) 0.5429(2)
H1 H -0.0361 0.5155 0.5893
H2 H -0.0427 0.5834 0.5172
C2 C 0.6836(3) 0.4405(4) 0.7677(3)
H3 H 0.6491 0.3758 0.7883
C3 C 0.7523(4) 1.0228(4) 0.7592(3)
H4 H 0.7910 1.1059 0.7823
C4 C 0.3202(3) 0.1903(3) 0.6907(3)
H5 H 0.2804 0.2262 0.6653
Cl3 Cl 0.17974(7) 0.32901(7) 0.55963(6)
C5 C 0.6618(3) 0.5763(3) 0.7017(2)
C6 C 0.6126(3) 0.4821(3) 0.7320(3)
H6 H 0.5289 0.4456 0.7281
C7 C 0.3795(3) 0.0429(3) 0.6643(3)
H7 H 0.3804 -0.0227 0.6209
C8 C 0.3241(3) 0.0966(3) 0.6277(3)
H8 H 0.2885 0.0692 0.5590
O1 O 0.22871(18) 0.6213(2) 0.65869(16)
O2 O 0.32229(18) 0.40813(19) 0.81076(15)
O3 O 0.44966(18) 0.57671(19) 0.68406(16)
C9 C 0.5036(3) 0.4506(3) 0.9623(2)
H9 H 0.5285 0.4078 0.9969
H10 H 0.5658 0.4849 0.9292
C10 C 0.8062(3) 0.4945(4) 0.7731(3)
H11 H 0.8557 0.4663 0.7973
C11 C 0.1457(3) 0.7776(3) 0.6962(2)
C12 C 0.3743(3) 0.2326(3) 0.7918(2)
C13 C 0.6388(3) 0.7792(3) 0.6915(2)
C14 C 0.2524(3) 0.2889(3) 0.9341(2)
C15 C 0.6690(4) 0.9629(3) 0.8021(3)
H12 H 0.6503 1.0048 0.8548
C16 C 0.4314(3) 0.1786(3) 0.8279(3)
H13 H 0.4688 0.2064 0.8964
C17 C 0.7800(4) 0.9628(4) 0.6825(3)
H14 H 0.8375 1.0045 0.6529
C18 C 0.7842(3) 0.6292(3) 0.7067(3)
H15 H 0.8186 0.6931 0.6850
C19 C 0.1942(3) 0.2028(3) 1.0551(3)
H16 H 0.2131 0.1776 1.1060
C20 C 0.1380(3) 0.2766(4) 0.9068(3)
H17 H 0.1185 0.3028 0.8568
C21 C 0.3478(3) 0.7535(3) 0.5343(3)
H18 H 0.3897 0.7401 0.5835
C22 C 0.3451(4) 0.8226(4) 0.4013(3)
H19 H 0.3865 0.8586 0.3599
C23 C 0.1910(3) 0.9013(3) 0.8638(3)
H20 H 0.2270 0.9250 0.9320
C24 C 0.0813(3) 0.1901(4) 1.0271(3)
H21 H 0.0224 0.1564 1.0592
C25 C 0.2800(3) 0.2522(3) 1.0094(2)
H22 H 0.3584 0.2614 1.0291
C26 C 0.4070(3) 0.8046(4) 0.4732(3)
H23 H 0.4901 0.8273 0.4807
C27 C 0.8557(3) 0.5882(3) 0.7436(3)
H24 H 0.9396 0.6252 0.7484
C28 C 0.6118(3) 0.8414(3) 0.7689(3)
H25 H 0.5541 0.8006 0.7989
C29 C 0.2264(3) 0.7217(3) 0.5234(2)
C30 C 0.1988(3) 0.8134(3) 0.7960(3)
H26 H 0.2407 0.7772 0.8177
C31 C 0.4337(3) 0.0839(3) 0.7634(3)
H27 H 0.4729 0.0472 0.7881
C32 C 0.0524(3) 0.2255(4) 0.9536(3)
H28 H -0.0266 0.2150 0.9343
C33 C 0.0781(3) 0.9201(3) 0.7336(3)
H29 H 0.0372 0.9574 0.7125
C34 C 0.0845(3) 0.8315(3) 0.6652(3)
H30 H 0.0472 0.8074 0.5972
C35 C 0.7237(3) 0.8410(3) 0.6487(3)
H31 H 0.7433 0.7998 0.5962
C36 C 0.1649(3) 0.7390(3) 0.4500(3)
H32 H 0.0818 0.7163 0.4421
C37 C 0.1312(3) 0.9545(3) 0.8326(3)
H33 H 0.1264 1.0152 0.8794
C38 C 0.2241(4) 0.7892(4) 0.3885(3)
H34 H 0.1819 0.8006 0.3380
C39 C 0.5323(3) 0.5673(3) 0.5209(2)
H35 H 0.4811 0.5947 0.4917
H36 H 0.6092 0.5983 0.5027
Gd1A Gd -0.274370(14) 0.488004(15) 0.268535(12)
Gd1A_2 Gd 0.725630(14) 0.488004(15) 1.268535(12)
Gd1A_3 Gd 0.725630(14) 0.488004(15) 0.268535(12)
Cl1A Cl -0.39789(7) 0.30114(8) 0.09983(6)
P1A P -0.15616(7) 0.33616(7) 0.39142(6)
P2A P 0.63961(7) 0.65086(7) 1.12923(6)
Cl2A Cl -0.06620(7) 0.55207(9) 0.22786(7)
P3A P 0.43692(7) 0.37731(8) 0.34725(6)
C1A C -0.0032(3) 0.4509(3) 0.4571(2)
H1A H 0.0361 0.4845 0.4107
H2A H 0.0427 0.4166 0.4828
C2A C 0.3164(3) 0.5595(4) 0.2323(3)
H3A H 0.3509 0.6242 0.2117
C3A C 0.2477(4) -0.0228(4) 0.2408(3)
H4A H 0.2090 -0.1059 0.2177
C4A C 0.6798(3) 0.8097(3) 1.3093(3)
H5A H 0.7196 0.7738 1.3347
Cl3A Cl -0.17974(7) 0.67099(7) 0.44037(6)
C5A C 0.3382(3) 0.4237(3) 0.2983(2)
C6A C 0.3874(3) 0.5179(3) 0.2680(3)
H6A H 0.4711 0.5544 0.2719
C7A C 0.6205(3) 0.9571(3) 1.3357(3)
H7A H 0.6196 1.0227 1.3791
C8A C 0.6759(3) 0.9034(3) 1.3723(3)
H8A H 0.7115 0.9308 1.4410
O1A O -0.22871(18) 0.3787(2) 0.34131(16)
O2A O 0.67771(18) 0.59187(19) 1.18924(15)
O2A_2 O -0.32229(18) 0.59187(19) 0.18924(15)
O3A O 0.55034(18) 0.42329(19) 0.31594(16)
O3A_2 O -0.44966(18) 0.42329(19) 0.31594(16)
C9A C 0.4964(3) 0.5494(3) 1.0377(2)
H9A H 0.4715 0.5922 1.0031
H10A H 0.4342 0.5151 1.0708
C10A C 0.1938(3) 0.5055(4) 0.2269(3)
H11A H 0.1443 0.5337 0.2027
C11A C -0.1457(3) 0.2224(3) 0.3038(2)
C12A C 0.6257(3) 0.7674(3) 1.2082(2)
C13A C 0.3612(3) 0.2208(3) 0.3085(2)
C14A C 0.7476(3) 0.7111(3) 1.0659(2)
C15A C 0.3310(4) 0.0371(3) 0.1979(3)
H12A H 0.3497 -0.0048 0.1452
C16A C 0.5686(3) 0.8214(3) 1.1721(3)
H13A H 0.5312 0.7936 1.1036
C17A C 0.2200(4) 0.0372(4) 0.3175(3)
H14A H 0.1625 -0.0045 0.3471
C18A C 0.2158(3) 0.3708(3) 0.2933(3)
H15A H 0.1814 0.3069 0.3150
C19A C 0.8058(3) 0.7972(3) 0.9449(3)
H16A H 0.7869 0.8224 0.8940
C20A C 0.8620(3) 0.7234(4) 1.0932(3)
H17A H 0.8815 0.6972 1.1432
C21A C -0.3478(3) 0.2465(3) 0.4657(3)
H18A H -0.3897 0.2599 0.4165
C22A C -0.3451(4) 0.1774(4) 0.5987(3)
H19A H -0.3865 0.1414 0.6401
C23A C -0.1910(3) 0.0987(3) 0.1362(3)
H20A H -0.2270 0.0750 0.0680
C24A C 0.9187(3) 0.8099(4) 0.9729(3)
H21A H 0.9776 0.8436 0.9408
C25A C 0.7200(3) 0.7478(3) 0.9906(2)
H22A H 0.6416 0.7386 0.9709
C26A C -0.4070(3) 0.1954(4) 0.5268(3)
H23A H -0.4901 0.1727 0.5193
C27A C 0.1443(3) 0.4118(3) 0.2564(3)
H24A H 0.0604 0.3748 0.2516
C28A C 0.3882(3) 0.1586(3) 0.2311(3)
H25A H 0.4459 0.1994 0.2011
C29A C -0.2264(3) 0.2783(3) 0.4766(2)
C30A C -0.1988(3) 0.1866(3) 0.2040(3)
H26A H -0.2407 0.2228 0.1823
C31A C 0.5663(3) 0.9161(3) 1.2366(3)
H27A H 0.5271 0.9528 1.2119
C32A C 0.9476(3) 0.7745(4) 1.0464(3)
H28A H 1.0266 0.7850 1.0657
C33A C -0.0781(3) 0.0799(3) 0.2664(3)
H29A H -0.0372 0.0426 0.2875
C34A C -0.0845(3) 0.1685(3) 0.3348(3)
H30A H -0.0472 0.1926 0.4028
C35A C 0.2763(3) 0.1590(3) 0.3513(3)
H31A H 0.2567 0.2002 0.4038
C36A C -0.1649(3) 0.2610(3) 0.5500(3)
H32A H -0.0818 0.2837 0.5579
C37A C -0.1312(3) 0.0455(3) 0.1674(3)
H33A H -0.1264 -0.0152 0.1206
C38A C -0.2241(4) 0.2108(4) 0.6115(3)
H34A H -0.1819 0.1994 0.6620
C39A C 0.4677(3) 0.4327(3) 0.4791(2)
H35A H 0.5189 0.4053 0.5083
H36A H 0.3908 0.4017 0.4973
O4 O -0.2439(6) 0.2423(6) 0.9518(5)
C40 C -0.171(2) 0.3533(19) 0.9530(13)
O5? O -0.1440(18) 0.3555(14) 0.9736(15)
C41? C -0.1365(12) 0.3165(13) 0.8755(10)
C42? C -0.0001(13) 0.0099(13) 0.5152(9)
O6? O -0.0063(6) 0.0936(6) 0.5883(5)
C43? C 0.501(3) 1.001(3) 0.985(2)
O7? O 0.3944(9) 0.9069(10) 1.0293(8)
loop_
_geom_bond_atom_site_label_1
_geom_bond_atom_site_label_2
_geom_bond_site_symmetry_1
_geom_bond_site_symmetry_2
Gd1 Cl1 1_555 1_555
P1 C1 1_555 1_555
P2 O2 1_555 1_555
Cl2 Gd1 1_555 1_555
P3 C5 1_555 1_555
C1 H1 1_555 1_555
H2 C1 1_555 1_555
C2 H3 1_555 1_555
C3 H4 1_555 1_555
C4 H5 1_555 1_555
Cl3 Gd1 1_555 1_555
C5 C6 1_555 1_555
C6 C2 1_555 1_555
H6 C6 1_555 1_555
C7 H7 1_555 1_555
C8 C4 1_555 1_555
H8 C8 1_555 1_555
O1 Gd1 1_555 1_555
O2 Gd1 1_555 1_555
O3 Gd1 1_555 1_555
C9 P2 1_555 1_555
H9 C9 1_555 1_555
H10 C9 1_555 1_555
C10 C2 1_555 1_555
H11 C10 1_555 1_555
C11 P1 1_555 1_555
C12 P2 1_555 1_555
C13 P3 1_555 1_555
C14 P2 1_555 1_555
C15 C3 1_555 1_555
H12 C15 1_555 1_555
C16 C12 1_555 1_555
H13 C16 1_555 1_555
C17 C3 1_555 1_555
H14 C17 1_555 1_555
C18 C5 1_555 1_555
H15 C18 1_555 1_555
C19 H16 1_555 1_555
C20 C14 1_555 1_555
H17 C20 1_555 1_555
C21 H18 1_555 1_555
C22 H19 1_555 1_555
C23 H20 1_555 1_555
C24 C19 1_555 1_555
H21 C24 1_555 1_555
C25 C14 1_555 1_555
H22 C25 1_555 1_555
C26 C21 1_555 1_555
H23 C26 1_555 1_555
C27 C10 1_555 1_555
H24 C27 1_555 1_555
C28 C13 1_555 1_555
H25 C28 1_555 1_555
C29 P1 1_555 1_555
C30 C11 1_555 1_555
H26 C30 1_555 1_555
C31 C7 1_555 1_555
H27 C31 1_555 1_555
C32 C20 1_555 1_555
H28 C32 1_555 1_555
C33 H29 1_555 1_555
C34 C11 1_555 1_555
H30 C34 1_555 1_555
C35 C13 1_555 1_555
H31 C35 1_555 1_555
C36 C29 1_555 1_555
H32 C36 1_555 1_555
C37 C23 1_555 1_555
H33 C37 1_555 1_555
C38 C22 1_555 1_555
H34 C38 1_555 1_555
C39 P3 1_555 1_555
H35 C39 1_555 1_555
H36 C39 1_555 1_555
O4 C40 1_555 1_555
Gd1A Cl1A 1_555 1_555
Gd1A_2 O2A 1_555 1_555
Gd1A_3 O3A 1_555 1_555
P1A C1A 1_555 1_555
P2A O2A 1_555 1_555
Cl2A Gd1A 1_555 1_555
P3A C5A 1_555 1_555
C1A C1 1_555 1_555
H1A C1A 1_555 1_555
H2A C1A 1_555 1_555
C2A H3A 1_555 1_555
C3A H4A 1_555 1_555
C4A H5A 1_555 1_555
Cl3A Gd1A 1_555 1_555
C5A C6A 1_555 1_555
C6A C2A 1_555 1_555
H6A C6A 1_555 1_555
C7A H7A 1_555 1_555
C8A C4A 1_555 1_555
H8A C8A 1_555 1_555
O1A Gd1A 1_555 1_555
O2A_2 Gd1A 1_555 1_555
O3A P3A 1_555 1_555
O3A_2 Gd1A 1_555 1_555
C9A C9 1_555 1_555
H9A C9A 1_555 1_555
H10A C9A 1_555 1_555
C10A C2A 1_555 1_555
H11A C10A 1_555 1_555
C11A P1A 1_555 1_555
C12A P2A 1_555 1_555
C13A P3A 1_555 1_555
C14A P2A 1_555 1_555
C15A C3A 1_555 1_555
H12A C15A 1_555 1_555
C16A C12A 1_555 1_555
H13A C16A 1_555 1_555
C17A C3A 1_555 1_555
H14A C17A 1_555 1_555
C18A C5A 1_555 1_555
H15A C18A 1_555 1_555
C19A H16A 1_555 1_555
C20A C14A 1_555 1_555
H17A C20A 1_555 1_555
C21A H18A 1_555 1_555
C22A H19A 1_555 1_555
C23A H20A 1_555 1_555
C24A C19A 1_555 1_555
H21A C24A 1_555 1_555
C25A C14A 1_555 1_555
H22A C25A 1_555 1_555
C26A C21A 1_555 1_555
H23A C26A 1_555 1_555
C27A C10A 1_555 1_555
H24A C27A 1_555 1_555
C28A C13A 1_555 1_555
H25A C28A 1_555 1_555
C29A P1A 1_555 1_555
C30A C11A 1_555 1_555
H26A C30A 1_555 1_555
C31A C7A 1_555 1_555
H27A C31A 1_555 1_555
C32A C20A 1_555 1_555
H28A C32A 1_555 1_555
C33A H29A 1_555 1_555
C34A C11A 1_555 1_555
H30A C34A 1_555 1_555
C35A C13A 1_555 1_555
H31A C35A 1_555 1_555
C36A C29A 1_555 1_555
H32A C36A 1_555 1_555
C37A C23A 1_555 1_555
H33A C37A 1_555 1_555
C38A C22A 1_555 1_555
H34A C38A 1_555 1_555
C39A C39 1_555 1_555
H35A C39A 1_555 1_555
H36A C39A 1_555 1_555
P1 O1 1_555 1_555
P3 O3 1_555 1_555
C4 C12 1_555 1_555
C7 C8 1_555 1_555
C15 C28 1_555 1_555
C16 C31 1_555 1_555
C17 C35 1_555 1_555
C18 C27 1_555 1_555
C19 C25 1_555 1_555
C21 C29 1_555 1_555
C22 C26 1_555 1_555
C23 C30 1_555 1_555
C24 C32 1_555 1_555
C33 C34 1_555 1_555
C33 C37 1_555 1_555
C36 C38 1_555 1_555
P1A O1A 1_555 1_555
P2A C9A 1_555 1_555
P3A C39A 1_555 1_555
C4A C12A 1_555 1_555
C7A C8A 1_555 1_555
C15A C28A 1_555 1_555
C16A C31A 1_555 1_555
C17A C35A 1_555 1_555
C18A C27A 1_555 1_555
C19A C25A 1_555 1_555
C21A C29A 1_555 1_555
C22A C26A 1_555 1_555
C23A C30A 1_555 1_555
C24A C32A 1_555 1_555
C33A C34A 1_555 1_555
C33A C37A 1_555 1_555
C36A C38A 1_555 1_555

#END
