
#######################################################################
#
#                 Cambridge Crystallographic Data Centre
#                                CCDC 
#
#######################################################################
#
# If this CIF has been generated from an entry in the Cambridge 
# Structural Database, then it will include bibliographic, chemical, 
# crystal, experimental, refinement or atomic coordinate data resulting 
# from the CCDC's data processing and validation procedures.
#
#######################################################################

data_XALMUT
_symmetry_cell_setting           triclinic
_symmetry_space_group_name_H-M   'P -1'
_symmetry_Int_Tables_number      2
_space_group_name_Hall           '-P 1'
loop_
_symmetry_equiv_pos_site_id
_symmetry_equiv_pos_as_xyz
1 x,y,z
2 -x,-y,-z
_cell_length_a                   14.284(12)
_cell_length_b                   14.768(12)
_cell_length_c                   19.818(11)
_cell_angle_alpha                96.74(6)
_cell_angle_beta                 94.47(6)
_cell_angle_gamma                106.69(7)
_cell_volume                     3949.26
loop_
_atom_site_label
_atom_site_type_symbol
_atom_site_fract_x
_atom_site_fract_y
_atom_site_fract_z
Dy1 Dy -0.011552(16) 0.319059(15) 0.736820(12)
Dy2 Dy 0.589950(16) 0.719150(15) 0.748040(12)
P1 P 0.16272(9) 0.56132(8) 0.74375(7)
P2 P -0.15116(9) 0.07240(8) 0.65978(7)
P3 P -0.31952(10) -0.02737(9) 0.82726(7)
P4 P 0.43559(9) 0.47977(9) 0.77044(7)
P5 P -0.23699(9) 0.39235(9) 0.69534(7)
P6 P -0.16853(9) 0.68429(9) 0.80007(7)
O1 O -0.0040(3) 0.3375(2) 0.61648(19)
O2 O 0.7483(4) 0.6925(3) 0.5882(3)
O3 O -0.1596(3) 0.3485(3) 0.9010(2)
O4 O 0.5653(3) 0.7164(2) 0.8703(2)
O5 O 0.1173(3) 0.3042(2) 0.66658(19)
O6 O 0.4482(3) 0.7318(2) 0.8035(2)
O7 O 0.5124(2) 0.5634(2) 0.75306(17)
O8 O 0.4355(4) 0.7400(3) 0.9105(2)
O9 O 0.0835(2) 0.4707(2) 0.74288(18)
O10 O -0.2686(3) 0.6971(3) 0.79233(19)
O11 O 0.1195(4) 0.3325(4) 0.5618(2)
O12 O -0.1385(2) 0.3769(2) 0.70635(18)
O13 O 0.1361(3) 0.3289(3) 0.8166(2)
O14 O -0.1290(3) 0.2616(2) 0.8155(2)
O15 O -0.0364(3) 0.4042(3) 0.84489(19)
C1 C 0.3236(4) 0.5061(4) 0.7876(3)
H1 H 0.2757 0.4476 0.7979
H2 H 0.3377 0.5551 0.8287
C2 C -0.2248(4) 0.0045(4) 0.8973(3)
O16 O 0.6446(3) 0.6280(3) 0.6556(2)
O17 O -0.3435(3) -0.1301(2) 0.80195(19)
O18 O 0.5238(3) 0.8295(3) 0.6878(2)
N1 N 0.4653(3) 0.7632(4) 0.6477(3)
O19 O 0.0405(3) 0.1896(3) 0.7830(2)
C3 C 0.1782(4) 0.6321(4) 0.8250(3)
O20 O 0.1784(3) 0.2079(3) 0.8445(2)
C4 C -0.0529(4) 0.6075(4) 0.9693(3)
H3 H -0.0033 0.5793 0.9817
N2 N -0.1093(3) 0.3380(3) 0.8561(2)
C5 C 0.1788(4) 0.5855(4) 0.8812(3)
H4 H 0.1696 0.5186 0.8748
C6 C -0.0687(4) 0.0147(3) 0.6237(3)
C7 C 0.4162(4) 0.3738(4) 0.8791(3)
H5 H 0.3489 0.3461 0.8615
C8 C -0.4687(5) 0.1542(5) 0.6766(5)
H6 H -0.5058 0.1059 0.6407
O21 O 0.4180(4) 0.7837(5) 0.5993(4)
C9 C 0.0265(4) 0.0684(4) 0.6173(3)
H7 H 0.0500 0.1340 0.6364
C10 C -0.2148(4) 0.4356(4) 0.5005(3)
H8 H -0.1662 0.4416 0.4699
C11 C -0.3141(4) 0.1315(5) 0.5083(3)
H9 H -0.3150 0.1869 0.4886
C12 C 0.4006(4) 0.3870(4) 0.7001(3)
C13 C -0.3544(4) 0.4226(4) 0.5901(3)
H10 H -0.4020 0.4195 0.6214
C14 C -0.1997(4) 0.0097(3) 0.7271(3)
H11 H -0.2266 -0.0591 0.7087
H12 H -0.1448 0.0167 0.7629
C15 C 0.2780(4) 0.5414(3) 0.7290(3)
H13 H 0.2678 0.4941 0.6873
H14 H 0.3245 0.6020 0.7205
C16 C -0.3748(5) 0.4389(5) 0.5251(3)
H15 H -0.4372 0.4455 0.5109
N3 N 0.1199(3) 0.2422(3) 0.8157(2)
C17 C -0.1818(4) 0.6708(4) 0.9997(3)
H16 H -0.2202 0.6874 1.0333
C18 C -0.1427(4) 0.6628(3) 0.8846(3)
C19 C 0.0431(4) 0.5830(4) 0.6376(3)
H17 H -0.0018 0.5263 0.6477
C20 C -0.1487(5) 0.0887(4) 0.9066(3)
H18 H -0.1430 0.1312 0.8736
C21 C 0.1726(5) 0.7480(4) 0.6087(3)
H19 H 0.2163 0.8056 0.5991
C22 C 0.1922(4) 0.6335(4) 0.9455(3)
H20 H 0.1945 0.6010 0.9839
C23 C 0.1332(4) 0.6228(3) 0.6774(3)
C24 C 0.4772(4) 0.4412(4) 0.8455(3)
C25 C -0.0815(5) 0.1106(5) 0.9636(4)
H21 H -0.0290 0.1686 0.9705
C26 C -0.3164(4) -0.0289(4) 0.5695(3)
H22 H -0.3182 -0.0833 0.5912
C27 C -0.4221(4) 0.0023(4) 0.8602(3)
C28 C -0.2796(4) 0.0410(4) 0.7605(3)
H23 H -0.3361 0.0326 0.7257
H24 H -0.2539 0.1097 0.7797
C29 C -0.3921(4) 0.2290(4) 0.6619(4)
H25 H -0.3778 0.2327 0.6161
C30 C 0.0187(4) 0.6260(4) 0.5832(3)
H26 H -0.0431 0.5990 0.5560
C31 C -0.1652(5) -0.0354(5) 1.0016(3)
H27 H -0.1701 -0.0781 1.0344
C32 C 0.0535(4) -0.0684(4) 0.5553(3)
H28 H 0.0949 -0.0969 0.5308
C33 C -0.2326(4) -0.0574(4) 0.9450(3)
H29 H -0.2850 -0.1154 0.9384
C34 C -0.3586(5) 0.2909(5) 0.7801(4)
H30 H -0.3200 0.3372 0.8167
C35 C -0.2476(4) 0.0580(4) 0.5934(3)
C36 C -0.1603(4) 0.5848(4) 0.7424(3)
H31 H -0.1665 0.5983 0.6948
H32 H -0.0954 0.5747 0.7523
C37 C 0.2024(5) 0.7302(5) 0.9546(3)
H33 H 0.2112 0.7644 0.9995
C38 C -0.4907(5) 0.1491(6) 0.7399(5)
H34 H -0.5445 0.0983 0.7484
C39 C -0.3374(4) 0.2974(4) 0.7143(3)
C40 C -0.2463(4) 0.1374(4) 0.5631(3)
H35 H -0.1983 0.1968 0.5802
C41 C -0.1952(4) 0.4170(4) 0.5650(3)
H36 H -0.1336 0.4084 0.5788
C42 C 0.5740(4) 0.4830(4) 0.8731(3)
H37 H 0.6161 0.5307 0.8517
C43 C 0.0016(4) 0.9565(4) 0.8179(3)
H38 H 0.0056 1.0146 0.8459
C44 C -0.4373(5) 0.2158(6) 0.7934(5)
H39 H -0.4533 0.2111 0.8388
C45 C -0.0756(4) 0.7880(4) 0.7861(3)
C46 C -0.1081(4) 0.6317(4) 1.0175(3)
H40 H -0.0959 0.6217 1.0634
C47 C -0.3054(5) 0.4458(5) 0.4796(3)
H41 H -0.3198 0.4575 0.4344
C48 C 0.0651(4) 0.9561(4) 0.7694(3)
H42 H 0.1136 1.0135 0.7642
C49 C -0.2647(4) 0.4107(3) 0.6103(3)
C50 C -0.0118(5) 0.7887(4) 0.7370(3)
H43 H -0.0158 0.7310 0.7086
N4 N 0.0798(3) 0.3249(3) 0.6134(2)
O22 O -0.1038(3) 0.1761(2) 0.68301(19)
O23 O 0.6952(3) 0.7790(2) 0.66230(19)
O24 O 0.4634(3) 0.6821(3) 0.6519(2)
N5 N 0.4826(3) 0.7301(3) 0.8633(2)
N6 N 0.6965(3) 0.6998(3) 0.6329(2)
C51 C -0.2406(4) 0.4962(4) 0.7500(3)
H44 H -0.3051 0.5070 0.7397
H45 H -0.2349 0.4846 0.7981
C52 C -0.0684(4) 0.6235(4) 0.9033(3)
H46 H -0.0286 0.6078 0.8703
C53 C -0.1996(4) 0.6859(4) 0.9337(3)
H47 H -0.2509 0.7121 0.9215
C54 C 0.1877(4) 0.7279(4) 0.8339(3)
H48 H 0.1858 0.7604 0.7954
C55 C 0.4067(4) 0.4131(4) 0.6360(3)
H49 H 0.4374 0.4779 0.6312
C56 C 0.6098(5) 0.4558(5) 0.9314(3)
H50 H 0.6767 0.4841 0.9499
C57 C 0.0840(5) 0.7077(4) 0.5688(3)
H51 H 0.0678 0.7365 0.5309
C58 C 0.1986(4) 0.7062(4) 0.6625(3)
H52 H 0.2606 0.7338 0.6894
C59 C -0.0680(4) 0.8731(4) 0.8262(3)
H53 H -0.1112 0.8743 0.8601
C60 C 0.2000(5) 0.7763(4) 0.8993(4)
H54 H 0.2069 0.8428 0.9058
C61 C -0.0408(4) -0.1222(4) 0.5631(3)
H55 H -0.0636 -0.1880 0.5445
C62 C -0.3825(5) -0.0353(5) 0.5135(4)
H56 H -0.4301 -0.0947 0.4958
C63 C -0.5159(4) -0.0442(4) 0.8282(4)
H57 H -0.5259 -0.0897 0.7883
C64 C -0.1016(4) -0.0807(4) 0.5976(3)
H58 H -0.1660 -0.1180 0.6033
C65 C 0.0869(4) 0.0259(4) 0.5831(3)
H59 H 0.1522 0.0624 0.5787
C66 C 0.3688(5) 0.3463(5) 0.5786(3)
H60 H 0.3717 0.3648 0.5343
C67 C 0.3267(5) 0.2525(5) 0.5861(4)
H61 H 0.3009 0.2057 0.5469
C68 C 0.0581(5) 0.8729(4) 0.7288(4)
H62 H 0.1013 0.8723 0.6947
C69 C 0.4517(5) 0.3471(5) 0.9368(4)
H63 H 0.4093 0.3005 0.9588
C70 C 0.3584(5) 0.2922(4) 0.7074(4)
H64 H 0.3548 0.2733 0.7516
C71 C 0.3220(5) 0.2264(4) 0.6501(4)
H65 H 0.2929 0.1613 0.6547
C72 C -0.3794(5) 0.0457(5) 0.4828(3)
H66 H -0.4239 0.0404 0.4433
C73 C -0.4090(5) 0.0683(5) 0.9177(3)
H67 H -0.3447 0.1002 0.9402
C74 C -0.0901(5) 0.0488(5) 1.0108(3)
H68 H -0.0434 0.0646 1.0504
C75 C 0.5483(5) 0.3871(5) 0.9631(4)
H69 H 0.5732 0.3678 1.0031
C76 C -0.4902(7) 0.0883(6) 0.9430(4)
H70 H -0.4812 0.1344 0.9825
C77 C -0.5812(7) 0.0426(6) 0.9116(5)
H71 H -0.6363 0.0567 0.9290
C78 C -0.5950(5) -0.0239(5) 0.8549(5)
H72 H -0.6598 -0.0566 0.8337
Dy2_2 Dy -0.410050(16) 0.719150(15) 0.748040(12)
Dy2_3 Dy -0.410050(16) -0.280850(15) 0.748040(12)
O10_2 O 0.7314(3) 0.6971(3) 0.79233(19)
O17_2 O 0.6565(3) 0.8699(2) 0.80195(19)
loop_
_geom_bond_atom_site_label_1
_geom_bond_atom_site_label_2
_geom_bond_site_symmetry_1
_geom_bond_site_symmetry_2
Dy1 O1 1_555 1_555
Dy2 O4 1_555 1_555
P1 O9 1_555 1_555
P2 C6 1_555 1_555
P3 C2 1_555 1_555
P4 O7 1_555 1_555
P5 O12 1_555 1_555
P6 O10 1_555 1_555
O1 N4 1_555 1_555
O2 N6 1_555 1_555
O3 N2 1_555 1_555
O4 N5 1_555 1_555
O5 Dy1 1_555 1_555
O6 Dy2 1_555 1_555
O7 Dy2 1_555 1_555
O8 N5 1_555 1_555
O9 Dy1 1_555 1_555
O10 Dy2_2 1_555 1_555
O11 N4 1_555 1_555
O12 Dy1 1_555 1_555
O13 Dy1 1_555 1_555
O14 Dy1 1_555 1_555
O15 Dy1 1_555 1_555
C1 P4 1_555 1_555
H1 C1 1_555 1_555
H2 C1 1_555 1_555
C2 C20 1_555 1_555
O16 Dy2 1_555 1_555
O17 P3 1_555 1_555
O18 Dy2 1_555 1_555
N1 O18 1_555 1_555
O19 Dy1 1_555 1_555
C3 P1 1_555 1_555
O20 N3 1_555 1_555
C4 H3 1_555 1_555
N2 O14 1_555 1_555
C5 C3 1_555 1_555
H4 C5 1_555 1_555
C6 C9 1_555 1_555
C7 H5 1_555 1_555
C8 H6 1_555 1_555
O21 N1 1_555 1_555
C9 H7 1_555 1_555
C10 H8 1_555 1_555
C11 H9 1_555 1_555
C12 P4 1_555 1_555
C13 H10 1_555 1_555
C14 P2 1_555 1_555
H11 C14 1_555 1_555
H12 C14 1_555 1_555
C15 P1 1_555 1_555
H13 C15 1_555 1_555
H14 C15 1_555 1_555
C16 C13 1_555 1_555
H15 C16 1_555 1_555
N3 O13 1_555 1_555
C17 H16 1_555 1_555
C18 P6 1_555 1_555
C19 H17 1_555 1_555
C20 H18 1_555 1_555
C21 H19 1_555 1_555
C22 C5 1_555 1_555
H20 C22 1_555 1_555
C23 P1 1_555 1_555
C24 P4 1_555 1_555
C25 C20 1_555 1_555
H21 C25 1_555 1_555
C26 H22 1_555 1_555
C27 P3 1_555 1_555
C28 P3 1_555 1_555
H23 C28 1_555 1_555
H24 C28 1_555 1_555
C29 C8 1_555 1_555
H25 C29 1_555 1_555
C30 C19 1_555 1_555
H26 C30 1_555 1_555
C31 H27 1_555 1_555
C32 H28 1_555 1_555
C33 C2 1_555 1_555
H29 C33 1_555 1_555
C34 H30 1_555 1_555
C35 P2 1_555 1_555
C36 P6 1_555 1_555
H31 C36 1_555 1_555
H32 C36 1_555 1_555
C37 C22 1_555 1_555
H33 C37 1_555 1_555
C38 C8 1_555 1_555
H34 C38 1_555 1_555
C39 P5 1_555 1_555
C40 C11 1_555 1_555
H35 C40 1_555 1_555
C41 C10 1_555 1_555
H36 C41 1_555 1_555
C42 C24 1_555 1_555
H37 C42 1_555 1_555
C43 H38 1_555 1_555
C44 C34 1_555 1_555
H39 C44 1_555 1_555
C45 P6 1_555 1_555
C46 C4 1_555 1_555
H40 C46 1_555 1_555
C47 C10 1_555 1_555
H41 C47 1_555 1_555
C48 C43 1_555 1_555
H42 C48 1_555 1_555
C49 P5 1_555 1_555
C50 C45 1_555 1_555
H43 C50 1_555 1_555
N4 O5 1_555 1_555
O22 Dy1 1_555 1_555
O23 Dy2 1_555 1_555
O24 Dy2 1_555 1_555
N5 O6 1_555 1_555
N6 O16 1_555 1_555
C51 P5 1_555 1_555
H44 C51 1_555 1_555
H45 C51 1_555 1_555
C52 C4 1_555 1_555
H46 C52 1_555 1_555
C53 C17 1_555 1_555
H47 C53 1_555 1_555
C54 C3 1_555 1_555
H48 C54 1_555 1_555
C55 C12 1_555 1_555
H49 C55 1_555 1_555
C56 C42 1_555 1_555
H50 C56 1_555 1_555
C57 C21 1_555 1_555
H51 C57 1_555 1_555
C58 C21 1_555 1_555
H52 C58 1_555 1_555
C59 C43 1_555 1_555
H53 C59 1_555 1_555
C60 C37 1_555 1_555
H54 C60 1_555 1_555
C61 C32 1_555 1_555
H55 C61 1_555 1_555
C62 C26 1_555 1_555
H56 C62 1_555 1_555
C63 C27 1_555 1_555
H57 C63 1_555 1_555
C64 C6 1_555 1_555
H58 C64 1_555 1_555
C65 C9 1_555 1_555
H59 C65 1_555 1_555
C66 C55 1_555 1_555
H60 C66 1_555 1_555
C67 C66 1_555 1_555
H61 C67 1_555 1_555
C68 C48 1_555 1_555
H62 C68 1_555 1_555
C69 C7 1_555 1_555
H63 C69 1_555 1_555
C70 C12 1_555 1_555
H64 C70 1_555 1_555
C71 C67 1_555 1_555
H65 C71 1_555 1_555
C72 C11 1_555 1_555
H66 C72 1_555 1_555
C73 C27 1_555 1_555
H67 C73 1_555 1_555
C74 C25 1_555 1_555
H68 C74 1_555 1_555
C75 C56 1_555 1_555
H69 C75 1_555 1_555
C76 C73 1_555 1_555
H70 C76 1_555 1_555
C77 C76 1_555 1_555
H71 C77 1_555 1_555
C78 C63 1_555 1_555
H72 C78 1_555 1_555
Dy2_3 O17 1_555 1_555
O10_2 Dy2 1_555 1_555
O17_2 Dy2 1_555 1_555
P2 O22 1_555 1_555
O15 N2 1_555 1_555
C1 C15 1_555 1_555
N1 O24 1_555 1_555
O19 N3 1_555 1_555
C7 C24 1_555 1_555
C13 C49 1_555 1_555
C14 C28 1_555 1_555
C16 C47 1_555 1_555
C17 C46 1_555 1_555
C18 C52 1_555 1_555
C18 C53 1_555 1_555
C19 C23 1_555 1_555
C23 C58 1_555 1_555
C26 C35 1_555 1_555
C29 C39 1_555 1_555
C30 C57 1_555 1_555
C31 C33 1_555 1_555
C31 C74 1_555 1_555
C32 C65 1_555 1_555
C34 C39 1_555 1_555
C35 C40 1_555 1_555
C36 C51 1_555 1_555
C38 C44 1_555 1_555
C41 C49 1_555 1_555
C45 C59 1_555 1_555
C50 C68 1_555 1_555
O23 N6 1_555 1_555
C54 C60 1_555 1_555
C61 C64 1_555 1_555
C62 C72 1_555 1_555
C69 C75 1_555 1_555
C70 C71 1_555 1_555
C77 C78 1_555 1_555

#END
