
#######################################################################
#
#                 Cambridge Crystallographic Data Centre
#                                CCDC 
#
#######################################################################
#
# If this CIF has been generated from an entry in the Cambridge 
# Structural Database, then it will include bibliographic, chemical, 
# crystal, experimental, refinement or atomic coordinate data resulting 
# from the CCDC's data processing and validation procedures.
#
#######################################################################

data_XALMAZ
_symmetry_cell_setting           triclinic
_symmetry_space_group_name_H-M   'P -1'
_symmetry_Int_Tables_number      2
_space_group_name_Hall           '-P 1'
loop_
_symmetry_equiv_pos_site_id
_symmetry_equiv_pos_as_xyz
1 x,y,z
2 -x,-y,-z
_cell_length_a                   12.113(3)
_cell_length_b                   16.666(3)
_cell_length_c                   21.747(5)
_cell_angle_alpha                99.656(17)
_cell_angle_beta                 96.481(17)
_cell_angle_gamma                107.173(18)
_cell_volume                     4073.1
loop_
_atom_site_label
_atom_site_type_symbol
_atom_site_fract_x
_atom_site_fract_y
_atom_site_fract_z
Sm1 Sm 1.182527(18) 0.757692(12) 0.444095(9)
Sm2 Sm 0.790594(18) 0.747653(13) 0.043207(10)
P1 P 1.01220(9) 0.63753(7) 0.27829(5)
P2 P 1.33940(9) 0.98332(6) 0.43038(5)
P3 P 1.17796(9) 0.53988(6) 0.47678(5)
P4 P 0.62805(11) 0.54126(8) 0.08973(6)
P5 P 0.82165(9) 0.97489(7) 0.02145(5)
P6 P 0.92337(9) 0.85488(7) 0.21692(5)
O2 O 1.0877(2) 0.68611(17) 0.34092(13)
O3 O 1.2690(2) 0.88991(16) 0.41651(13)
O4 O 1.1838(2) 0.62422(17) 0.46015(13)
O5 O 0.7037(3) 0.62568(18) 0.08052(14)
O6 O 0.7953(3) 0.88437(17) 0.03014(14)
O7 O 0.8661(2) 0.81725(18) 0.14933(13)
O8 O 1.0052(2) 0.80365(17) 0.41555(14)
O9 O 0.9747(3) 0.69283(18) 0.45865(14)
O10 O 0.8271(3) 0.7182(2) 0.40726(16)
O11 O 1.3371(2) 0.72282(19) 0.38506(13)
O12 O 1.3955(2) 0.78400(17) 0.48422(13)
O13 O 1.5091(3) 0.7302(2) 0.43128(17)
O14 O 1.1908(3) 0.7562(2) 0.56205(15)
O15 O 1.1904(3) 0.8748(2) 0.53623(14)
O16 O 1.1652(3) 0.8567(3) 0.63164(15)
O17 O 0.6129(3) 0.77211(19) 0.08381(14)
O18 O 0.5867(3) 0.7093(2) -0.01438(14)
O19 O 0.4379(3) 0.7243(3) 0.0285(2)
O20 O 0.8062(3) 0.7542(2) -0.07181(15)
O21 O 0.7895(3) 0.6321(2) -0.04712(15)
O22 O 0.8191(5) 0.6492(3) -0.14172(18)
O23 O 1.0046(3) 0.7947(2) 0.03674(14)
O24 O 0.9514(3) 0.68778(19) 0.08211(16)
O25 O 1.1362(3) 0.7563(3) 0.0897(2)
N1 N 0.9315(3) 0.7376(2) 0.42638(16)
N2 N 1.4167(3) 0.7451(2) 0.43308(17)
N3 N 1.1818(3) 0.8300(2) 0.57779(17)
N4 N 0.5417(3) 0.7349(2) 0.03255(19)
N5 N 0.8048(4) 0.6773(3) -0.08862(18)
N6 N 1.0338(3) 0.7464(2) 0.06957(19)
C2 C 0.9265(4) 0.6990(3) 0.24765(19)
H1 H 0.8869 0.6699 0.2038
H2 H 0.8653 0.7018 0.2738
C3 C 1.4480(3) 1.0166(2) 0.50192(18)
H3 H 1.4780 1.0802 0.5129
H4 H 1.4090 0.9970 0.5368
C4 C 1.0595(3) 0.5051(3) 0.51999(19)
H5 H 1.0581 0.4495 0.5309
H6 H 1.0727 0.5478 0.5599
C5 C 0.4906(5) 0.5051(3) 0.0334(2)
H7 H 0.4408 0.4494 0.0401
H8 H 0.4482 0.5473 0.0416
C6 C 0.9453(3) 1.0046(3) -0.01802(19)
H9 H 0.9263 0.9677 -0.0610
H10 H 0.9612 1.0649 -0.0225
C7 C 1.0041(3) 0.7906(3) 0.24810(19)
H11 H 1.0661 0.7873 0.2227
H12 H 1.0431 0.8194 0.2921
C8 C 0.9083(4) 0.5380(3) 0.28468(19)
C9 C 0.8035(4) 0.5365(3) 0.3060(2)
H13 H 0.7835 0.5878 0.3143
C10 C 0.7291(4) 0.4608(3) 0.3148(2)
H14 H 0.6578 0.4601 0.3293
C11 C 0.7568(4) 0.3858(3) 0.3027(2)
H15 H 0.7044 0.3338 0.3086
C12 C 0.8612(5) 0.3865(3) 0.2820(2)
H16 H 0.8813 0.3352 0.2746
C13 C 0.9358(4) 0.4620(3) 0.2721(2)
H17 H 1.0062 0.4621 0.2567
C14 C 1.1012(4) 0.6157(3) 0.2216(2)
C15 C 1.0542(5) 0.5550(3) 0.1647(2)
H18 H 0.9723 0.5251 0.1547
C16 C 1.1269(5) 0.5386(4) 0.1233(2)
H19 H 1.0950 0.4967 0.0850
C17 C 1.2451(5) 0.5825(5) 0.1369(3)
H20 H 1.2950 0.5701 0.1086
C18 C 1.2916(5) 0.6449(4) 0.1922(3)
H21 H 1.3727 0.6772 0.2005
C19 C 1.2207(4) 0.6603(3) 0.2352(2)
H22 H 1.2535 0.7012 0.2739
C20 C 1.4110(3) 1.0084(3) 0.36483(18)
C21 C 1.3654(4) 0.9545(3) 0.3050(2)
H23 H 1.3015 0.9032 0.3003
C22 C 1.4129(4) 0.9754(3) 0.2524(2)
H24 H 1.3809 0.9389 0.2118
C23 C 1.5064(4) 1.0493(3) 0.2590(2)
H25 H 1.5387 1.0635 0.2229
C24 C 1.5534(4) 1.1030(3) 0.3181(2)
H26 H 1.6181 1.1537 0.3224
C25 C 1.5064(4) 1.0829(3) 0.3707(2)
H27 H 1.5389 1.1198 0.4111
C26 C 1.2492(4) 1.0515(2) 0.44176(18)
C27 C 1.2976(4) 1.1397(3) 0.4507(2)
H28 H 1.3796 1.1650 0.4530
C28 C 1.2271(4) 1.1912(3) 0.4563(2)
H29 H 1.2609 1.2518 0.4630
C29 C 1.1076(4) 1.1548(3) 0.4522(2)
H30 H 1.0590 1.1903 0.4545
C30 C 1.0587(4) 1.0673(3) 0.44484(19)
H31 H 0.9767 1.0426 0.4431
C31 C 1.1294(4) 1.0152(3) 0.43991(19)
H32 H 1.0960 0.9548 0.4353
C32 C 1.1597(4) 0.4604(3) 0.40629(19)
C33 C 1.1082(4) 0.3732(3) 0.4034(2)
H33 H 1.0768 0.3538 0.4384
C34 C 1.1032(4) 0.3144(3) 0.3487(2)
H34 H 1.0684 0.2547 0.3464
C35 C 1.1489(4) 0.3426(3) 0.2972(2)
H35 H 1.1468 0.3019 0.2604
C36 C 1.1973(4) 0.4297(3) 0.2995(2)
H36 H 1.2266 0.4491 0.2640
C37 C 1.2026(4) 0.4879(3) 0.3537(2)
H37 H 1.2358 0.5477 0.3554
C38 C 1.3109(4) 0.5461(3) 0.5260(2)
C39 C 1.3373(5) 0.4720(3) 0.5332(2)
H38 H 1.2827 0.4171 0.5138
C40 C 1.4431(6) 0.4782(5) 0.5687(3)
H39 H 1.4614 0.4277 0.5735
C41 C 1.5210(5) 0.5574(5) 0.5967(3)
H40 H 1.5942 0.5618 0.6204
C42 C 1.4942(4) 0.6314(4) 0.5910(2)
H41 H 1.5482 0.6861 0.6115
C43 C 1.3885(4) 0.6259(3) 0.5553(2)
H42 H 1.3700 0.6765 0.5512
C44 C 0.7079(5) 0.4654(3) 0.0836(2)
C45 C 0.7786(5) 0.4660(3) 0.0372(2)
H43 H 0.7859 0.5076 0.0116
C46 C 0.8380(6) 0.4071(3) 0.0277(3)
H44 H 0.8844 0.4073 -0.0048
C47 C 0.8293(6) 0.3474(4) 0.0662(3)
H45 H 0.8691 0.3062 0.0598
C48 C 0.7634(6) 0.3480(3) 0.1133(2)
H46 H 0.7596 0.3081 0.1401
C49 C 0.7019(5) 0.4061(3) 0.1224(2)
H47 H 0.6558 0.4054 0.1549
C50 C 0.5783(4) 0.5508(3) 0.1642(2)
C51 C 0.5799(5) 0.6403(4) 0.2633(3)
H48 H 0.6082 0.6949 0.2915
C52 C 0.5017(6) 0.5717(5) 0.2806(3)
H49 H 0.4756 0.5790 0.3202
C53 C 0.4634(5) 0.4939(5) 0.2397(3)
H50 H 0.4109 0.4466 0.2516
C54 C 0.4978(4) 0.4813(4) 0.1816(3)
H51 H 0.4679 0.4266 0.1536
C55 C 0.8513(4) 1.0485(3) 0.09679(19)
C56 C 0.8006(4) 1.0161(3) 0.1461(2)
H52 H 0.7580 0.9567 0.1397
C57 C 0.8122(4) 1.0700(3) 0.2041(2)
H53 H 0.7775 1.0478 0.2373
C58 C 0.8750(4) 1.1567(3) 0.2130(2)
H54 H 0.8832 1.1943 0.2525
C59 C 0.9255(4) 1.1884(3) 0.1646(2)
H55 H 0.9685 1.2478 0.1713
C60 C 0.9145(4) 1.1352(3) 0.1063(2)
H56 H 0.9498 1.1578 0.0734
C61 C 0.7013(4) 0.9909(3) -0.02483(18)
C62 C 0.6169(4) 0.6299(3) 0.2054(2)
H57 H 0.6693 0.6776 0.1940
C63 C 0.5014(4) 0.9391(4) -0.0788(2)
H58 H 0.4291 0.8938 -0.0932
C64 C 0.5118(4) 1.0190(4) -0.0909(2)
H59 H 0.4465 1.0285 -0.1133
C65 C 0.6158(4) 1.0854(3) -0.0709(2)
H60 H 0.6226 1.1404 -0.0797
C66 C 0.7102(4) 1.0715(3) -0.0378(2)
H61 H 0.7821 1.1173 -0.0238
C67 C 0.8155(4) 0.8651(3) 0.2656(2)
C68 C 0.8394(4) 0.8809(3) 0.3323(2)
H62 H 0.9150 0.8860 0.3534
C69 C 0.7535(5) 0.8889(3) 0.3669(2)
H63 H 0.7706 0.8999 0.4118
C70 C 0.6439(5) 0.8813(3) 0.3376(2)
H64 H 0.5856 0.8876 0.3620
C71 C 0.6177(4) 0.8641(3) 0.2714(2)
H65 H 0.5412 0.8580 0.2510
C72 C 0.7027(4) 0.8559(3) 0.2355(2)
H66 H 0.6845 0.8440 0.1906
C73 C 1.0335(4) 0.9568(3) 0.22530(19)
C74 C 1.1079(4) 0.9657(3) 0.1804(2)
H67 H 1.0959 0.9196 0.1455
C75 C 1.1981(4) 1.0410(3) 0.1865(2)
H68 H 1.2478 1.0473 0.1557
C76 C 1.2161(4) 1.1076(3) 0.2380(2)
H69 H 1.2793 1.1594 0.2428
C77 C 1.1429(4) 1.0991(3) 0.2821(2)
H70 H 1.1556 1.1455 0.3169
C78 C 1.0514(4) 1.0242(3) 0.2766(2)
H71 H 1.0013 1.0188 0.3073
C79 C 0.5961(4) 0.9240(3) -0.0457(2)
H72 H 0.5888 0.8686 -0.0374
C3A C 1.5520(3) 0.9834(2) 0.49808(18)
P2A P 1.66060(9) 1.01668(6) 0.56962(5)
O3A O 1.7310(2) 1.11009(16) 0.58349(13)
C20A C 1.5890(3) 0.9916(3) 0.63517(18)
C21A C 1.6346(4) 1.0455(3) 0.6950(2)
H23A H 1.6985 1.0968 0.6997
C22A C 1.5871(4) 1.0246(3) 0.7476(2)
H24A H 1.6191 1.0611 0.7882
C23A C 1.4936(4) 0.9507(3) 0.7410(2)
H25A H 1.4613 0.9365 0.7771
C24A C 1.4466(4) 0.8970(3) 0.6819(2)
H26A H 1.3819 0.8463 0.6776
C25A C 1.4936(4) 0.9171(3) 0.6293(2)
H27A H 1.4611 0.8802 0.5889
C26A C 1.7508(4) 0.9485(2) 0.55824(18)
C27A C 1.7024(4) 0.8603(3) 0.5493(2)
H28A H 1.6204 0.8350 0.5470
C28A C 1.7729(4) 0.8088(3) 0.5437(2)
H29A H 1.7391 0.7482 0.5370
C29A C 1.8924(4) 0.8452(3) 0.5478(2)
H30A H 1.9410 0.8097 0.5455
C30A C 1.9413(4) 0.9327(3) 0.55516(19)
H31A H 2.0233 0.9574 0.5569
C31A C 1.8706(4) 0.9848(3) 0.56009(19)
H32A H 1.9040 1.0452 0.5647
H3A H 1.5220 0.9198 0.4871
H4A H 1.5910 1.0030 0.4632
C4A C 0.9405(3) 0.4949(3) 0.48001(19)
P3A P 0.82204(9) 0.46012(6) 0.52322(5)
O4A O 0.8162(2) 0.37578(17) 0.53985(13)
C32A C 0.8403(4) 0.5396(3) 0.59371(19)
C33A C 0.8918(4) 0.6268(3) 0.5966(2)
H33A H 0.9232 0.6462 0.5616
C34A C 0.8968(4) 0.6856(3) 0.6513(2)
H34A H 0.9316 0.7453 0.6536
C35A C 0.8511(4) 0.6574(3) 0.7028(2)
H35A H 0.8532 0.6981 0.7396
C36A C 0.8027(4) 0.5703(3) 0.7005(2)
H36A H 0.7734 0.5509 0.7360
C37A C 0.7974(4) 0.5121(3) 0.6463(2)
H37A H 0.7642 0.4523 0.6446
C38A C 0.6891(4) 0.4539(3) 0.4740(2)
C39A C 0.6627(5) 0.5280(3) 0.4668(2)
H38A H 0.7173 0.5829 0.4862
C40A C 0.5569(6) 0.5218(5) 0.4313(3)
H39A H 0.5386 0.5723 0.4265
C41A C 0.4790(5) 0.4426(5) 0.4033(3)
H40A H 0.4058 0.4382 0.3796
C42A C 0.5058(4) 0.3686(4) 0.4090(2)
H41A H 0.4518 0.3139 0.3885
C43A C 0.6115(4) 0.3741(3) 0.4447(2)
H42A H 0.6300 0.3235 0.4488
H5A H 0.9419 0.5505 0.4691
H6A H 0.9273 0.4522 0.4401
C5A C 0.5094(5) 0.4949(3) -0.0334(2)
P4A P 0.37195(11) 0.45874(8) -0.08973(6)
O5A O 0.2963(3) 0.37432(18) -0.08052(14)
C44A C 0.2921(5) 0.5346(3) -0.0836(2)
C45A C 0.2214(5) 0.5340(3) -0.0372(2)
H43A H 0.2141 0.4924 -0.0116
C46A C 0.1620(6) 0.5929(3) -0.0277(3)
H44A H 0.1156 0.5927 0.0048
C47A C 0.1707(6) 0.6526(4) -0.0662(3)
H45A H 0.1309 0.6938 -0.0598
C48A C 0.2366(6) 0.6520(3) -0.1133(2)
H46A H 0.2404 0.6919 -0.1401
C49A C 0.2981(5) 0.5939(3) -0.1224(2)
H47A H 0.3442 0.5946 -0.1549
C50A C 0.4217(4) 0.4492(3) -0.1642(2)
C54A C 0.5022(4) 0.5187(4) -0.1816(3)
C53A C 0.5366(5) 0.5061(5) -0.2397(3)
C52A C 0.4983(6) 0.4283(5) -0.2806(3)
C51A C 0.4201(5) 0.3597(4) -0.2633(3)
H48A H 0.3918 0.3051 -0.2915
C62A C 0.3831(4) 0.3701(3) -0.2054(2)
H57A H 0.3307 0.3224 -0.1940
H49A H 0.5244 0.4210 -0.3202
H50A H 0.5891 0.5534 -0.2516
H51A H 0.5321 0.5734 -0.1536
H7A H 0.5592 0.5506 -0.0401
H8A H 0.5518 0.4527 -0.0416
C6A C 1.0547(3) 0.9954(3) 0.01802(19)
P5A P 1.17835(9) 1.02511(7) -0.02145(5)
O6A O 1.2047(3) 1.11563(17) -0.03014(14)
C55A C 1.1487(4) 0.9515(3) -0.09679(19)
C56A C 1.1994(4) 0.9839(3) -0.1461(2)
H52A H 1.2420 1.0433 -0.1397
C57A C 1.1878(4) 0.9300(3) -0.2041(2)
H53A H 1.2225 0.9522 -0.2373
C58A C 1.1250(4) 0.8433(3) -0.2130(2)
H54A H 1.1168 0.8057 -0.2525
C59A C 1.0745(4) 0.8116(3) -0.1646(2)
H55A H 1.0315 0.7522 -0.1713
C60A C 1.0855(4) 0.8648(3) -0.1063(2)
H56A H 1.0502 0.8422 -0.0734
C61A C 1.2987(4) 1.0091(3) 0.02483(18)
C66A C 1.2898(4) 0.9285(3) 0.0378(2)
C65A C 1.3842(4) 0.9146(3) 0.0709(2)
C64A C 1.4882(4) 0.9810(4) 0.0909(2)
C63A C 1.4986(4) 1.0609(4) 0.0788(2)
H58A H 1.5709 1.1062 0.0932
C79A C 1.4039(4) 1.0760(3) 0.0457(2)
H72A H 1.4112 1.1314 0.0374
H59A H 1.5535 0.9715 0.1133
H60A H 1.3774 0.8596 0.0797
H61A H 1.2179 0.8827 0.0238
H9A H 1.0737 1.0323 0.0610
H10A H 1.0388 0.9351 0.0225
Sm1A Sm 1.817473(18) 1.242308(12) 0.555905(9)
P1A P 1.98780(9) 1.36247(7) 0.72171(5)
P6A P 2.07663(9) 1.14512(7) 0.78308(5)
O2A O 1.9123(2) 1.31389(17) 0.65908(13)
O7A O 2.1339(2) 1.18275(18) 0.85067(13)
C2A C 2.0735(4) 1.3010(3) 0.75235(19)
H1A H 2.1131 1.3301 0.7962
H2A H 2.1347 1.2982 0.7262
C7A C 1.9959(3) 1.2094(3) 0.75190(19)
H11A H 1.9339 1.2127 0.7773
H12A H 1.9569 1.1806 0.7079
C8A C 2.0917(4) 1.4620(3) 0.71532(19)
C9A C 2.1965(4) 1.4635(3) 0.6940(2)
H13A H 2.2165 1.4122 0.6857
C10A C 2.2709(4) 1.5392(3) 0.6852(2)
H14A H 2.3422 1.5399 0.6707
C11A C 2.2432(4) 1.6142(3) 0.6973(2)
H15A H 2.2956 1.6662 0.6914
C12A C 2.1388(5) 1.6135(3) 0.7180(2)
H16A H 2.1187 1.6648 0.7254
C13A C 2.0642(4) 1.5380(3) 0.7279(2)
H17A H 1.9938 1.5379 0.7433
C14A C 1.8988(4) 1.3843(3) 0.7784(2)
C15A C 1.9458(5) 1.4450(3) 0.8353(2)
H18A H 2.0277 1.4749 0.8453
C16A C 1.8731(5) 1.4614(4) 0.8767(2)
H19A H 1.9050 1.5033 0.9150
C17A C 1.7549(5) 1.4175(5) 0.8631(3)
H20A H 1.7050 1.4299 0.8914
C18A C 1.7084(5) 1.3551(4) 0.8078(3)
H21A H 1.6273 1.3228 0.7995
C19A C 1.7793(4) 1.3397(3) 0.7648(2)
H22A H 1.7465 1.2988 0.7261
C67A C 2.1845(4) 1.1349(3) 0.7344(2)
C68A C 2.1606(4) 1.1191(3) 0.6677(2)
H62A H 2.0850 1.1140 0.6466
C69A C 2.2465(5) 1.1111(3) 0.6331(2)
H63A H 2.2294 1.1001 0.5882
C70A C 2.3561(5) 1.1187(3) 0.6624(2)
H64A H 2.4144 1.1124 0.6380
C71A C 2.3823(4) 1.1359(3) 0.7286(2)
H65A H 2.4588 1.1420 0.7490
C72A C 2.2973(4) 1.1441(3) 0.7645(2)
H66A H 2.3155 1.1560 0.8094
C73A C 1.9665(4) 1.0432(3) 0.77470(19)
C74A C 1.8921(4) 1.0343(3) 0.8196(2)
H67A H 1.9041 1.0804 0.8545
C75A C 1.8019(4) 0.9590(3) 0.8135(2)
H68A H 1.7522 0.9527 0.8443
C76A C 1.7839(4) 0.8924(3) 0.7620(2)
H69A H 1.7207 0.8406 0.7572
C77A C 1.8571(4) 0.9009(3) 0.7179(2)
H70A H 1.8444 0.8545 0.6831
C78A C 1.9486(4) 0.9758(3) 0.7234(2)
H71A H 1.9987 0.9812 0.6927
O8A O 1.9948(2) 1.19635(17) 0.58445(14)
O9A O 2.0253(3) 1.30717(18) 0.54135(14)
O10A O 2.1729(3) 1.2818(2) 0.59274(16)
N1A N 2.0685(3) 1.2624(2) 0.57362(16)
O11A O 1.6629(2) 1.27718(19) 0.61494(13)
O12A O 1.6045(2) 1.21600(17) 0.51578(13)
O13A O 1.4909(3) 1.2698(2) 0.56872(17)
N2A N 1.5833(3) 1.2549(2) 0.56692(17)
O14A O 1.8092(3) 1.2438(2) 0.43795(15)
O15A O 1.8096(3) 1.1252(2) 0.46377(14)
O16A O 1.8348(3) 1.1433(3) 0.36836(15)
N3A N 1.8182(3) 1.1700(2) 0.42221(17)
Sm2A Sm 0.209406(18) 0.252347(13) -0.043207(10)
O17A O 0.3871(3) 0.22789(19) -0.08381(14)
O18A O 0.4133(3) 0.2907(2) 0.01438(14)
O19A O 0.5621(3) 0.2757(3) -0.0285(2)
N4A N 0.4583(3) 0.2651(2) -0.03255(19)
O20A O 0.1938(3) 0.2458(2) 0.07181(15)
O21A O 0.2105(3) 0.3679(2) 0.04712(15)
O22A O 0.1809(5) 0.3508(3) 0.14172(18)
N5A N 0.1952(4) 0.3227(3) 0.08862(18)
O23A O -0.0046(3) 0.2053(2) -0.03674(14)
O24A O 0.0486(3) 0.31222(19) -0.08211(16)
O25A O -0.1362(3) 0.2437(3) -0.0897(2)
N6A N -0.0338(3) 0.2536(2) -0.06957(19)
Sm1A_2 Sm 0.817473(18) 0.242308(12) 0.555905(9)
Sm2A_2 Sm 1.209406(18) 1.252347(13) -0.043207(10)
O4A_2 O 1.8162(2) 1.37578(17) 0.53985(13)
Sm2A_3 Sm 2.209406(18) 1.252347(13) 0.956793(10)
O6A_2 O 0.2047(3) 0.11563(17) -0.03014(14)
O7A_2 O 0.1339(2) 0.18275(18) -0.14933(13)
O1 O 0.6339(7) 0.7185(5) -0.1948(4)
C1 C 0.5456(10) 0.7510(6) -0.1794(5)
loop_
_geom_bond_atom_site_label_1
_geom_bond_atom_site_label_2
_geom_bond_site_symmetry_1
_geom_bond_site_symmetry_2
O1 C1 1_555 1_555
Sm1 O2 1_555 1_555
Sm2 O5 1_555 1_555
P1 O2 1_555 1_555
P2 O3 1_555 1_555
P3 O4 1_555 1_555
P4 O5 1_555 1_555
P5 O6 1_555 1_555
P6 O7 1_555 1_555
O3 Sm1 1_555 1_555
O4 Sm1 1_555 1_555
O6 Sm2 1_555 1_555
O7 Sm2 1_555 1_555
O8 Sm1 1_555 1_555
O9 Sm1 1_555 1_555
O10 N1 1_555 1_555
O11 Sm1 1_555 1_555
O12 Sm1 1_555 1_555
O13 N2 1_555 1_555
O14 Sm1 1_555 1_555
O15 Sm1 1_555 1_555
O16 N3 1_555 1_555
O17 Sm2 1_555 1_555
O18 Sm2 1_555 1_555
O19 N4 1_555 1_555
O20 Sm2 1_555 1_555
O21 Sm2 1_555 1_555
O22 N5 1_555 1_555
O23 Sm2 1_555 1_555
O24 Sm2 1_555 1_555
O25 N6 1_555 1_555
N1 O8 1_555 1_555
N2 O11 1_555 1_555
N3 O14 1_555 1_555
N4 O17 1_555 1_555
N5 O20 1_555 1_555
N6 O23 1_555 1_555
C2 P1 1_555 1_555
H1 C2 1_555 1_555
H2 C2 1_555 1_555
C3 P2 1_555 1_555
H3 C3 1_555 1_555
H4 C3 1_555 1_555
C4 P3 1_555 1_555
H5 C4 1_555 1_555
H6 C4 1_555 1_555
C5 P4 1_555 1_555
H7 C5 1_555 1_555
H8 C5 1_555 1_555
C6 P5 1_555 1_555
H9 C6 1_555 1_555
H10 C6 1_555 1_555
C7 P6 1_555 1_555
H11 C7 1_555 1_555
H12 C7 1_555 1_555
C8 P1 1_555 1_555
C9 C8 1_555 1_555
H13 C9 1_555 1_555
C10 C9 1_555 1_555
H14 C10 1_555 1_555
C11 C10 1_555 1_555
H15 C11 1_555 1_555
C12 C11 1_555 1_555
H16 C12 1_555 1_555
C13 C8 1_555 1_555
H17 C13 1_555 1_555
C14 P1 1_555 1_555
C15 C14 1_555 1_555
H18 C15 1_555 1_555
C16 C15 1_555 1_555
H19 C16 1_555 1_555
C17 C16 1_555 1_555
H20 C17 1_555 1_555
C18 C17 1_555 1_555
H21 C18 1_555 1_555
C19 C14 1_555 1_555
H22 C19 1_555 1_555
C20 P2 1_555 1_555
C21 C20 1_555 1_555
H23 C21 1_555 1_555
C22 C21 1_555 1_555
H24 C22 1_555 1_555
C23 C22 1_555 1_555
H25 C23 1_555 1_555
C24 C23 1_555 1_555
H26 C24 1_555 1_555
C25 C20 1_555 1_555
H27 C25 1_555 1_555
C26 P2 1_555 1_555
C27 C26 1_555 1_555
H28 C27 1_555 1_555
C28 C27 1_555 1_555
H29 C28 1_555 1_555
C29 C28 1_555 1_555
H30 C29 1_555 1_555
C30 C29 1_555 1_555
H31 C30 1_555 1_555
C31 C26 1_555 1_555
H32 C31 1_555 1_555
C32 P3 1_555 1_555
C33 C32 1_555 1_555
H33 C33 1_555 1_555
C34 C33 1_555 1_555
H34 C34 1_555 1_555
C35 C34 1_555 1_555
H35 C35 1_555 1_555
C36 C35 1_555 1_555
H36 C36 1_555 1_555
C37 C32 1_555 1_555
H37 C37 1_555 1_555
C38 P3 1_555 1_555
C39 C38 1_555 1_555
H38 C39 1_555 1_555
C40 C39 1_555 1_555
H39 C40 1_555 1_555
C41 C40 1_555 1_555
H40 C41 1_555 1_555
C42 C41 1_555 1_555
H41 C42 1_555 1_555
C43 C38 1_555 1_555
H42 C43 1_555 1_555
C44 P4 1_555 1_555
C45 C44 1_555 1_555
H43 C45 1_555 1_555
C46 C45 1_555 1_555
H44 C46 1_555 1_555
C47 C46 1_555 1_555
H45 C47 1_555 1_555
C48 C47 1_555 1_555
H46 C48 1_555 1_555
C49 C44 1_555 1_555
H47 C49 1_555 1_555
C50 P4 1_555 1_555
C51 H48 1_555 1_555
C52 C51 1_555 1_555
H49 C52 1_555 1_555
C53 C52 1_555 1_555
H50 C53 1_555 1_555
C54 C50 1_555 1_555
H51 C54 1_555 1_555
C55 P5 1_555 1_555
C56 C55 1_555 1_555
H52 C56 1_555 1_555
C57 C56 1_555 1_555
H53 C57 1_555 1_555
C58 C57 1_555 1_555
H54 C58 1_555 1_555
C59 C58 1_555 1_555
H55 C59 1_555 1_555
C60 C55 1_555 1_555
H56 C60 1_555 1_555
C61 P5 1_555 1_555
C62 C50 1_555 1_555
H57 C62 1_555 1_555
C63 H58 1_555 1_555
C64 C63 1_555 1_555
H59 C64 1_555 1_555
C65 C64 1_555 1_555
H60 C65 1_555 1_555
C66 C61 1_555 1_555
H61 C66 1_555 1_555
C67 P6 1_555 1_555
C68 C67 1_555 1_555
H62 C68 1_555 1_555
C69 C68 1_555 1_555
H63 C69 1_555 1_555
C70 C69 1_555 1_555
H64 C70 1_555 1_555
C71 C70 1_555 1_555
H65 C71 1_555 1_555
C72 C67 1_555 1_555
H66 C72 1_555 1_555
C73 P6 1_555 1_555
C74 C73 1_555 1_555
H67 C74 1_555 1_555
C75 C74 1_555 1_555
H68 C75 1_555 1_555
C76 C75 1_555 1_555
H69 C76 1_555 1_555
C77 C76 1_555 1_555
H70 C77 1_555 1_555
C78 C73 1_555 1_555
H71 C78 1_555 1_555
C79 C61 1_555 1_555
H72 C79 1_555 1_555
C3A C3 1_555 1_555
P2A C3A 1_555 1_555
O3A P2A 1_555 1_555
C20A P2A 1_555 1_555
C21A C20A 1_555 1_555
H23A C21A 1_555 1_555
C22A C21A 1_555 1_555
H24A C22A 1_555 1_555
C23A C22A 1_555 1_555
H25A C23A 1_555 1_555
C24A C23A 1_555 1_555
H26A C24A 1_555 1_555
C25A C20A 1_555 1_555
H27A C25A 1_555 1_555
C26A P2A 1_555 1_555
C27A C26A 1_555 1_555
H28A C27A 1_555 1_555
C28A C27A 1_555 1_555
H29A C28A 1_555 1_555
C29A C28A 1_555 1_555
H30A C29A 1_555 1_555
C30A C29A 1_555 1_555
H31A C30A 1_555 1_555
C31A C26A 1_555 1_555
H32A C31A 1_555 1_555
H3A C3A 1_555 1_555
H4A C3A 1_555 1_555
C4A C4 1_555 1_555
P3A C4A 1_555 1_555
O4A P3A 1_555 1_555
C32A P3A 1_555 1_555
C33A C32A 1_555 1_555
H33A C33A 1_555 1_555
C34A C33A 1_555 1_555
H34A C34A 1_555 1_555
C35A C34A 1_555 1_555
H35A C35A 1_555 1_555
C36A C35A 1_555 1_555
H36A C36A 1_555 1_555
C37A C32A 1_555 1_555
H37A C37A 1_555 1_555
C38A P3A 1_555 1_555
C39A C38A 1_555 1_555
H38A C39A 1_555 1_555
C40A C39A 1_555 1_555
H39A C40A 1_555 1_555
C41A C40A 1_555 1_555
H40A C41A 1_555 1_555
C42A C41A 1_555 1_555
H41A C42A 1_555 1_555
C43A C38A 1_555 1_555
H42A C43A 1_555 1_555
H5A C4A 1_555 1_555
H6A C4A 1_555 1_555
C5A C5 1_555 1_555
P4A C5A 1_555 1_555
O5A P4A 1_555 1_555
C44A P4A 1_555 1_555
C45A C44A 1_555 1_555
H43A C45A 1_555 1_555
C46A C45A 1_555 1_555
H44A C46A 1_555 1_555
C47A C46A 1_555 1_555
H45A C47A 1_555 1_555
C48A C47A 1_555 1_555
H46A C48A 1_555 1_555
C49A C44A 1_555 1_555
H47A C49A 1_555 1_555
C50A P4A 1_555 1_555
C54A C50A 1_555 1_555
C53A C54A 1_555 1_555
C52A C53A 1_555 1_555
C51A C52A 1_555 1_555
H48A C51A 1_555 1_555
C62A C50A 1_555 1_555
H57A C62A 1_555 1_555
H49A C52A 1_555 1_555
H50A C53A 1_555 1_555
H51A C54A 1_555 1_555
H7A C5A 1_555 1_555
H8A C5A 1_555 1_555
C6A C6 1_555 1_555
P5A C6A 1_555 1_555
O6A P5A 1_555 1_555
C55A P5A 1_555 1_555
C56A C55A 1_555 1_555
H52A C56A 1_555 1_555
C57A C56A 1_555 1_555
H53A C57A 1_555 1_555
C58A C57A 1_555 1_555
H54A C58A 1_555 1_555
C59A C58A 1_555 1_555
H55A C59A 1_555 1_555
C60A C55A 1_555 1_555
H56A C60A 1_555 1_555
C61A P5A 1_555 1_555
C66A C61A 1_555 1_555
C65A C66A 1_555 1_555
C64A C65A 1_555 1_555
C63A C64A 1_555 1_555
H58A C63A 1_555 1_555
C79A C61A 1_555 1_555
H72A C79A 1_555 1_555
H59A C64A 1_555 1_555
H60A C65A 1_555 1_555
H61A C66A 1_555 1_555
H9A C6A 1_555 1_555
H10A C6A 1_555 1_555
Sm1A O3A 1_555 1_555
P1A O2A 1_555 1_555
P6A O7A 1_555 1_555
O2A Sm1A 1_555 1_555
O7A Sm2A_3 1_555 1_555
C2A P1A 1_555 1_555
H1A C2A 1_555 1_555
H2A C2A 1_555 1_555
C7A P6A 1_555 1_555
H11A C7A 1_555 1_555
H12A C7A 1_555 1_555
C8A P1A 1_555 1_555
C9A C8A 1_555 1_555
H13A C9A 1_555 1_555
C10A C9A 1_555 1_555
H14A C10A 1_555 1_555
C11A C10A 1_555 1_555
H15A C11A 1_555 1_555
C12A C11A 1_555 1_555
H16A C12A 1_555 1_555
C13A C8A 1_555 1_555
H17A C13A 1_555 1_555
C14A P1A 1_555 1_555
C15A C14A 1_555 1_555
H18A C15A 1_555 1_555
C16A C15A 1_555 1_555
H19A C16A 1_555 1_555
C17A C16A 1_555 1_555
H20A C17A 1_555 1_555
C18A C17A 1_555 1_555
H21A C18A 1_555 1_555
C19A C14A 1_555 1_555
H22A C19A 1_555 1_555
C67A P6A 1_555 1_555
C68A C67A 1_555 1_555
H62A C68A 1_555 1_555
C69A C68A 1_555 1_555
H63A C69A 1_555 1_555
C70A C69A 1_555 1_555
H64A C70A 1_555 1_555
C71A C70A 1_555 1_555
H65A C71A 1_555 1_555
C72A C67A 1_555 1_555
H66A C72A 1_555 1_555
C73A P6A 1_555 1_555
C74A C73A 1_555 1_555
H67A C74A 1_555 1_555
C75A C74A 1_555 1_555
H68A C75A 1_555 1_555
C76A C75A 1_555 1_555
H69A C76A 1_555 1_555
C77A C76A 1_555 1_555
H70A C77A 1_555 1_555
C78A C73A 1_555 1_555
H71A C78A 1_555 1_555
O8A Sm1A 1_555 1_555
O9A Sm1A 1_555 1_555
O10A N1A 1_555 1_555
N1A O8A 1_555 1_555
O11A Sm1A 1_555 1_555
O12A Sm1A 1_555 1_555
O13A N2A 1_555 1_555
N2A O11A 1_555 1_555
O14A Sm1A 1_555 1_555
O15A Sm1A 1_555 1_555
O16A N3A 1_555 1_555
N3A O14A 1_555 1_555
Sm2A O5A 1_555 1_555
O17A Sm2A 1_555 1_555
O18A Sm2A 1_555 1_555
O19A N4A 1_555 1_555
N4A O17A 1_555 1_555
O20A Sm2A 1_555 1_555
O21A Sm2A 1_555 1_555
O22A N5A 1_555 1_555
N5A O20A 1_555 1_555
O23A Sm2A 1_555 1_555
O24A Sm2A 1_555 1_555
O25A N6A 1_555 1_555
N6A O23A 1_555 1_555
Sm1A_2 O4A 1_555 1_555
Sm2A_2 O6A 1_555 1_555
O4A_2 Sm1A 1_555 1_555
O6A_2 Sm2A 1_555 1_555
O7A_2 Sm2A 1_555 1_555
O9 N1 1_555 1_555
O12 N2 1_555 1_555
O15 N3 1_555 1_555
O18 N4 1_555 1_555
O21 N5 1_555 1_555
O24 N6 1_555 1_555
C2 C7 1_555 1_555
C12 C13 1_555 1_555
C18 C19 1_555 1_555
C24 C25 1_555 1_555
C30 C31 1_555 1_555
C36 C37 1_555 1_555
C42 C43 1_555 1_555
C48 C49 1_555 1_555
C51 C62 1_555 1_555
C53 C54 1_555 1_555
C59 C60 1_555 1_555
C63 C79 1_555 1_555
C65 C66 1_555 1_555
C71 C72 1_555 1_555
C77 C78 1_555 1_555
C24A C25A 1_555 1_555
C30A C31A 1_555 1_555
C36A C37A 1_555 1_555
C42A C43A 1_555 1_555
C48A C49A 1_555 1_555
C51A C62A 1_555 1_555
C59A C60A 1_555 1_555
C63A C79A 1_555 1_555
C2A C7A 1_555 1_555
C12A C13A 1_555 1_555
C18A C19A 1_555 1_555
C71A C72A 1_555 1_555
C77A C78A 1_555 1_555
O9A N1A 1_555 1_555
O12A N2A 1_555 1_555
O15A N3A 1_555 1_555
O18A N4A 1_555 1_555
O21A N5A 1_555 1_555
O24A N6A 1_555 1_555

#END
