
#######################################################################
#
#                 Cambridge Crystallographic Data Centre
#                                CCDC 
#
#######################################################################
#
# If this CIF has been generated from an entry in the Cambridge 
# Structural Database, then it will include bibliographic, chemical, 
# crystal, experimental, refinement or atomic coordinate data resulting 
# from the CCDC's data processing and validation procedures.
#
#######################################################################

data_XALPUW
_symmetry_cell_setting           triclinic
_symmetry_space_group_name_H-M   'P -1'
_symmetry_Int_Tables_number      2
_space_group_name_Hall           '-P 1'
loop_
_symmetry_equiv_pos_site_id
_symmetry_equiv_pos_as_xyz
1 x,y,z
2 -x,-y,-z
_cell_length_a                   10.530(2)
_cell_length_b                   13.456(3)
_cell_length_c                   13.858(3)
_cell_angle_alpha                80.41(3)
_cell_angle_beta                 72.78(3)
_cell_angle_gamma                81.81(3)
_cell_volume                     1840.27
loop_
_atom_site_label
_atom_site_type_symbol
_atom_site_fract_x
_atom_site_fract_y
_atom_site_fract_z
Ni1 Ni -1.0000 0.5000 0.5000
Ni2 Ni -0.5000 0.0000 0.0000
Fe1 Fe -0.71297(14) 0.27055(10) 0.23159(11)
N1 N -0.5613(8) 0.2527(6) 0.2946(6)
N2 N -0.8800(10) 0.4009(7) 0.3985(7)
N3 N -0.5365(8) 0.1366(6) 0.0671(6)
C1 C -0.8156(11) 0.3541(8) 0.3368(9)
N4 N -0.4778(8) -0.0866(6) 0.1338(6)
H1 H -0.4488 -0.1513 0.1207
C2 C -0.5950(8) 0.1942(6) 0.1226(7)
N5 N -0.7003(7) -0.0186(6) 0.0581(6)
H2 H -0.7421 0.0386 0.0852
C3 C -0.4596(13) 0.3057(8) 0.2727(10)
H3 H -0.4545 0.3619 0.2230
N6 N -0.7137(8) 0.4004(6) 0.1352(7)
C4 C -0.5685(14) 0.1708(9) 0.3661(9)
O1 O -0.9873(10) 0.3227(8) 0.0803(11)
N7 N -0.8603(8) 0.2525(7) 0.1878(8)
N8 N -0.7567(9) 0.1486(6) 0.3193(7)
C5 C -0.8935(12) 0.3238(11) 0.1157(12)
C6 C -0.6158(11) -0.0858(8) 0.2036(7)
H4 H -0.6425 -0.0215 0.2304
H5 H -0.6199 -0.1395 0.2603
C7 C -0.7074(11) -0.1016(8) 0.1423(9)
H6 H -0.6801 -0.1659 0.1156
H7 H -0.7985 -0.1028 0.1857
C8 C -0.6797(14) 0.1092(10) 0.3839(8)
C9 C -0.9191(13) 0.0204(11) 0.3639(10)
H8 H -0.8840 -0.0182 0.4140
N9 N -0.2525(11) -0.0455(8) 0.1052(9)
C10 C -0.8055(11) 0.4091(10) 0.0837(10)
O2 O -0.6979(12) 0.0334(9) 0.4464(8)
C11 C -0.6377(11) 0.4784(9) 0.1168(9)
H9 H -0.5698 0.4724 0.1482
C12 C -0.3826(13) -0.0515(9) 0.1757(9)
H10 H -0.4168 0.0149 0.1963
H11 H -0.3751 -0.0973 0.2362
C13 C -0.8657(11) 0.1083(9) 0.3101(9)
C14 C -0.9233(11) 0.1663(10) 0.2340(10)
C15 C -0.3569(16) 0.2807(10) 0.3217(13)
H12 H -0.2864 0.3207 0.3049
C16 C -1.0301(16) -0.0090(14) 0.3397(15)
H13 H -1.0702 -0.0655 0.3784
C17 C -1.0279(13) 0.1309(12) 0.2113(14)
H14 H -1.0633 0.1678 0.1606
C18 C -0.6565(13) 0.5654(10) 0.0541(10)
H15 H -0.6071 0.6194 0.0477
C19 C -0.7642(11) -0.0334(9) -0.0212(11)
H16 H -0.8590 -0.0379 0.0104
H17 H -0.7263 -0.0973 -0.0466
C20 C -0.1772(15) -0.1435(11) 0.0820(14)
H18 H -0.0921 -0.1323 0.0339
H19 H -0.2265 -0.1797 0.0534
H20 H -0.1640 -0.1825 0.1435
C21 C -0.7486(15) 0.5726(12) 0.0007(12)
H21 H -0.7584 0.6293 -0.0460
C22 C -0.4710(17) 0.1420(11) 0.4197(10)
H22 H -0.4795 0.0872 0.4710
C23 C -0.8258(14) 0.4944(12) 0.0177(12)
H23 H -0.8919 0.4988 -0.0154
C24 C -1.0802(15) 0.0409(16) 0.2633(16)
H24 H -1.1475 0.0160 0.2462
C25 C -0.3615(16) 0.1985(12) 0.3931(13)
H25 H -0.2929 0.1800 0.4240
N10 N -0.8665(8) 0.6056(6) 0.4302(7)
H26 H -0.8072 0.5836 0.3735
N11 N -1.1150(10) 0.5496(7) 0.4019(7)
H27 H -1.0779 0.5256 0.3410
N12 N -1.0095(14) 0.7064(10) 0.3369(10)
C26 C -1.1501(19) 0.6628(19) 0.3875(15)
H28 H -1.2079 0.6815 0.3430
H29 H -1.1943 0.6875 0.4523
C27 C -0.9288(19) 0.7061(10) 0.4040(13)
H30 H -0.8597 0.7512 0.3718
H31 H -0.9840 0.7318 0.4660
C28 C -0.9473(19) 0.658(2) 0.2466(14)
H32 H -0.8596 0.6799 0.2153
H33 H -0.9404 0.5861 0.2648
H34 H -1.0004 0.6768 0.1995
C29 C -0.7854(16) 0.6081(11) 0.5216(15)
H35 H -0.7057 0.6435 0.4948
H36 H -0.8436 0.6361 0.5814
C30 C -1.2460(14) 0.5051(13) 0.4589(18)
H37 H -1.3088 0.5214 0.4183
H38 H -1.2851 0.5326 0.5228
Ni2_2 Ni -1.5000 1.0000 1.0000
Fe1A Fe -1.28703(14) 0.72945(10) 0.76841(11)
N1A N -1.4387(8) 0.7473(6) 0.7054(6)
N2A N -1.1200(10) 0.5991(7) 0.6015(7)
N3A N -1.4635(8) 0.8634(6) 0.9329(6)
N3A_2 N -0.4635(8) -0.1366(6) -0.0671(6)
C1A C -1.1844(11) 0.6459(8) 0.6632(9)
N4A N -0.5222(8) 0.0866(6) -0.1338(6)
H1A H -0.5512 0.1513 -0.1207
C2A C -1.4050(8) 0.8058(6) 0.8774(7)
N5A N -0.2997(7) 0.0186(6) -0.0581(6)
H2A H -0.2579 -0.0386 -0.0852
C3A C -1.5404(13) 0.6943(8) 0.7273(10)
H3A H -1.5455 0.6381 0.7770
N6A N -1.2863(8) 0.5996(6) 0.8648(7)
C4A C -1.4315(14) 0.8292(9) 0.6339(9)
O1A O -1.0127(10) 0.6773(8) 0.9197(11)
N7A N -1.1397(8) 0.7475(7) 0.8122(8)
N8A N -1.2433(9) 0.8514(6) 0.6807(7)
C5A C -1.1065(12) 0.6762(11) 0.8843(12)
C6A C -0.3842(11) 0.0858(8) -0.2036(7)
H4A H -0.3575 0.0215 -0.2304
H5A H -0.3801 0.1395 -0.2603
C7A C -0.2926(11) 0.1016(8) -0.1423(9)
H6A H -0.3199 0.1659 -0.1156
H7A H -0.2015 0.1028 -0.1857
C8A C -1.3203(14) 0.8908(10) 0.6161(8)
C9A C -1.0809(13) 0.9796(11) 0.6361(10)
H8A H -1.1160 1.0182 0.5860
N9A N -0.7475(11) 0.0455(8) -0.1052(9)
C10A C -1.1945(11) 0.5909(10) 0.9163(10)
O2A O -1.3021(12) 0.9666(9) 0.5536(8)
C11A C -1.3623(11) 0.5216(9) 0.8832(9)
H9A H -1.4302 0.5276 0.8518
C12A C -0.6174(13) 0.0515(9) -0.1757(9)
H10A H -0.5832 -0.0149 -0.1963
H11A H -0.6249 0.0973 -0.2362
C13A C -1.1343(11) 0.8917(9) 0.6899(9)
C14A C -1.0767(11) 0.8337(10) 0.7660(10)
C15A C -1.6431(16) 0.7193(10) 0.6783(13)
H12A H -1.7136 0.6793 0.6951
C16A C -0.9699(16) 1.0090(14) 0.6603(15)
H13A H -0.9298 1.0655 0.6216
C17A C -0.9721(13) 0.8691(12) 0.7887(14)
H14A H -0.9367 0.8322 0.8394
C18A C -1.3435(13) 0.4346(10) 0.9459(10)
H15A H -1.3929 0.3806 0.9523
C19A C -0.2358(11) 0.0334(9) 0.0212(11)
H16A H -0.1410 0.0379 -0.0104
H17A H -0.2737 0.0973 0.0466
C20A C -0.8228(15) 0.1435(11) -0.0820(14)
H18A H -0.9079 0.1323 -0.0339
H19A H -0.7735 0.1797 -0.0534
H20A H -0.8360 0.1825 -0.1435
C21A C -1.2514(15) 0.4274(12) 0.9993(12)
H21A H -1.2416 0.3707 1.0460
C22A C -1.5290(17) 0.8580(11) 0.5803(10)
H22A H -1.5205 0.9128 0.5290
C23A C -1.1742(14) 0.5056(12) 0.9823(12)
H23A H -1.1081 0.5012 1.0154
C24A C -0.9198(15) 0.9591(16) 0.7367(16)
H24A H -0.8525 0.9840 0.7538
C25A C -1.6385(16) 0.8015(12) 0.6069(13)
H25A H -1.7071 0.8200 0.5760
N10A N -1.1335(8) 0.3944(6) 0.5698(7)
H26A H -1.1928 0.4164 0.6265
N11A N -0.8850(10) 0.4504(7) 0.5981(7)
H27A H -0.9221 0.4744 0.6590
N12A N -0.9905(14) 0.2936(10) 0.6631(10)
C26A C -0.8499(19) 0.3372(19) 0.6125(15)
H28A H -0.7921 0.3185 0.6570
H29A H -0.8057 0.3125 0.5477
C27A C -1.0712(19) 0.2939(10) 0.5960(13)
H30A H -1.1403 0.2488 0.6282
H31A H -1.0160 0.2682 0.5340
C28A C -1.0527(19) 0.342(2) 0.7534(14)
H32A H -1.1404 0.3201 0.7847
H33A H -1.0596 0.4139 0.7352
H34A H -0.9996 0.3232 0.8005
C29A C -1.2146(16) 0.3919(11) 0.4784(15)
H35A H -1.2943 0.3565 0.5052
H36A H -1.1564 0.3639 0.4186
C30A C -0.7540(14) 0.4949(13) 0.5411(18)
H37A H -0.6912 0.4786 0.5817
H38A H -0.7149 0.4674 0.4772
Cl1 Cl -0.5392(4) 0.3669(3) -0.2343(3)
O3 O -0.5638(15) 0.3215(9) -0.1331(9)
O4 O -0.5797(19) 0.3101(9) -0.2889(13)
O5 O -0.4069(17) 0.376(2) -0.2675(12)
O6 O -0.600(2) 0.4608(10) -0.2385(13)
loop_
_geom_bond_atom_site_label_1
_geom_bond_atom_site_label_2
_geom_bond_site_symmetry_1
_geom_bond_site_symmetry_2
Ni1 N2 1_555 1_555
Ni2 N3 1_555 1_555
Fe1 N1 1_555 1_555
N1 C3 1_555 1_555
N2 C1 1_555 1_555
N3 C2 1_555 1_555
C1 Fe1 1_555 1_555
N4 Ni2 1_555 1_555
H1 N4 1_555 1_555
C2 Fe1 1_555 1_555
N5 Ni2 1_555 1_555
H2 N5 1_555 1_555
C3 H3 1_555 1_555
N6 Fe1 1_555 1_555
C4 N1 1_555 1_555
O1 C5 1_555 1_555
N7 Fe1 1_555 1_555
N8 Fe1 1_555 1_555
C5 N7 1_555 1_555
C6 N4 1_555 1_555
H4 C6 1_555 1_555
H5 C6 1_555 1_555
C7 N5 1_555 1_555
H6 C7 1_555 1_555
H7 C7 1_555 1_555
C8 C4 1_555 1_555
C9 H8 1_555 1_555
N9 C12 1_555 1_555
C10 N6 1_555 1_555
O2 C8 1_555 1_555
C11 N6 1_555 1_555
H9 C11 1_555 1_555
C12 N4 1_555 1_555
H10 C12 1_555 1_555
H11 C12 1_555 1_555
C13 N8 1_555 1_555
C14 N7 1_555 1_555
C15 C3 1_555 1_555
H12 C15 1_555 1_555
C16 C9 1_555 1_555
H13 C16 1_555 1_555
C17 C14 1_555 1_555
H14 C17 1_555 1_555
C18 C11 1_555 1_555
H15 C18 1_555 1_555
C19 N5 1_555 1_555
H16 C19 1_555 1_555
H17 C19 1_555 1_555
C20 N9 1_555 1_555
H18 C20 1_555 1_555
H19 C20 1_555 1_555
H20 C20 1_555 1_555
C21 C18 1_555 1_555
H21 C21 1_555 1_555
C22 C4 1_555 1_555
H22 C22 1_555 1_555
C23 C10 1_555 1_555
H23 C23 1_555 1_555
C24 C16 1_555 1_555
H24 C24 1_555 1_555
C25 C15 1_555 1_555
H25 C25 1_555 1_555
N10 Ni1 1_555 1_555
H26 N10 1_555 1_555
N11 Ni1 1_555 1_555
H27 N11 1_555 1_555
N12 C26 1_555 1_555
C26 N11 1_555 1_555
H28 C26 1_555 1_555
H29 C26 1_555 1_555
C27 N10 1_555 1_555
H30 C27 1_555 1_555
H31 C27 1_555 1_555
C28 N12 1_555 1_555
H32 C28 1_555 1_555
H33 C28 1_555 1_555
H34 C28 1_555 1_555
C29 N10 1_555 1_555
H35 C29 1_555 1_555
H36 C29 1_555 1_555
C30 N11 1_555 1_555
H37 C30 1_555 1_555
H38 C30 1_555 1_555
Cl1 O3 1_555 1_555
O4 Cl1 1_555 1_555
O5 Cl1 1_555 1_555
O6 Cl1 1_555 1_555
Ni2_2 N3A 1_555 1_555
Fe1A N1A 1_555 1_555
N1A C3A 1_555 1_555
N2A Ni1 1_555 1_555
N3A C2A 1_555 1_555
N3A_2 Ni2 1_555 1_555
C1A Fe1A 1_555 1_555
N4A Ni2 1_555 1_555
H1A N4A 1_555 1_555
C2A Fe1A 1_555 1_555
N5A Ni2 1_555 1_555
H2A N5A 1_555 1_555
C3A H3A 1_555 1_555
N6A Fe1A 1_555 1_555
C4A N1A 1_555 1_555
O1A C5A 1_555 1_555
N7A Fe1A 1_555 1_555
N8A Fe1A 1_555 1_555
C5A N7A 1_555 1_555
C6A N4A 1_555 1_555
H4A C6A 1_555 1_555
H5A C6A 1_555 1_555
C7A N5A 1_555 1_555
H6A C7A 1_555 1_555
H7A C7A 1_555 1_555
C8A C4A 1_555 1_555
C9A H8A 1_555 1_555
N9A C19 1_555 1_555
C10A N6A 1_555 1_555
O2A C8A 1_555 1_555
C11A N6A 1_555 1_555
H9A C11A 1_555 1_555
C12A N4A 1_555 1_555
H10A C12A 1_555 1_555
H11A C12A 1_555 1_555
C13A N8A 1_555 1_555
C14A N7A 1_555 1_555
C15A C3A 1_555 1_555
H12A C15A 1_555 1_555
C16A C9A 1_555 1_555
H13A C16A 1_555 1_555
C17A C14A 1_555 1_555
H14A C17A 1_555 1_555
C18A C11A 1_555 1_555
H15A C18A 1_555 1_555
C19A N9 1_555 1_555
H16A C19A 1_555 1_555
H17A C19A 1_555 1_555
C20A N9A 1_555 1_555
H18A C20A 1_555 1_555
H19A C20A 1_555 1_555
H20A C20A 1_555 1_555
C21A C18A 1_555 1_555
H21A C21A 1_555 1_555
C22A C4A 1_555 1_555
H22A C22A 1_555 1_555
C23A C10A 1_555 1_555
H23A C23A 1_555 1_555
C24A C16A 1_555 1_555
H24A C24A 1_555 1_555
C25A C15A 1_555 1_555
H25A C25A 1_555 1_555
N10A Ni1 1_555 1_555
H26A N10A 1_555 1_555
N11A Ni1 1_555 1_555
H27A N11A 1_555 1_555
N12A C26A 1_555 1_555
C26A N11A 1_555 1_555
H28A C26A 1_555 1_555
H29A C26A 1_555 1_555
C27A N10A 1_555 1_555
H30A C27A 1_555 1_555
H31A C27A 1_555 1_555
C28A N12A 1_555 1_555
H32A C28A 1_555 1_555
H33A C28A 1_555 1_555
H34A C28A 1_555 1_555
C29A C30 1_555 1_555
H35A C29A 1_555 1_555
H36A C29A 1_555 1_555
C30A C29 1_555 1_555
H37A C30A 1_555 1_555
H38A C30A 1_555 1_555
N8 C8 1_555 1_555
C5 C10 1_555 1_555
C6 C7 1_555 1_555
C9 C13 1_555 1_555
C13 C14 1_555 1_555
C17 C24 1_555 1_555
C21 C23 1_555 1_555
C22 C25 1_555 1_555
N12 C27 1_555 1_555
N2A C1A 1_555 1_555
N5A C19A 1_555 1_555
N8A C8A 1_555 1_555
C5A C10A 1_555 1_555
C6A C7A 1_555 1_555
C9A C13A 1_555 1_555
N9A C12A 1_555 1_555
C13A C14A 1_555 1_555
C17A C24A 1_555 1_555
C21A C23A 1_555 1_555
C22A C25A 1_555 1_555
N10A C29A 1_555 1_555
N11A C30A 1_555 1_555
N12A C27A 1_555 1_555

#END
