
#######################################################################
#
#                 Cambridge Crystallographic Data Centre
#                                CCDC 
#
#######################################################################
#
# If this CIF has been generated from an entry in the Cambridge 
# Structural Database, then it will include bibliographic, chemical, 
# crystal, experimental, refinement or atomic coordinate data resulting 
# from the CCDC's data processing and validation procedures.
#
#######################################################################

data_XALPOQ
_symmetry_cell_setting           monoclinic
_symmetry_space_group_name_H-M   'P 21/c'
_symmetry_Int_Tables_number      14
_space_group_name_Hall           '-P 2ybc'
loop_
_symmetry_equiv_pos_site_id
_symmetry_equiv_pos_as_xyz
1 x,y,z
2 -x,1/2+y,1/2-z
3 -x,-y,-z
4 x,1/2-y,1/2+z
_cell_length_a                   8.4780(17)
_cell_length_b                   19.437(4)
_cell_length_c                   20.664(4)
_cell_angle_alpha                90
_cell_angle_beta                 93.50(3)
_cell_angle_gamma                90
_cell_volume                     3398.8
loop_
_atom_site_label
_atom_site_type_symbol
_atom_site_fract_x
_atom_site_fract_y
_atom_site_fract_z
Ni1 Ni 0.15657(4) 0.737702(18) 0.231001(19)
Fe1 Fe -0.06075(4) 0.493734(18) 0.264131(19)
N1 N 0.0298(3) 0.46028(11) 0.18890(11)
N2 N -0.1959(3) 0.53951(11) 0.32766(12)
N3 N 0.1467(3) 0.46125(11) 0.30570(11)
C1 C 0.0428(3) 0.58293(14) 0.25444(14)
N4 N 0.0991(3) 0.63535(12) 0.24562(13)
N5 N -0.2329(3) 0.51742(12) 0.20639(12)
N6 N 0.3741(3) 0.71150(13) 0.19642(14)
H1 H 0.4488 0.7411 0.2119
H2 H 0.4019 0.6689 0.2098
C2 C -0.3350(3) 0.56223(15) 0.29971(15)
C3 C 0.1532(3) 0.90220(14) 0.21953(13)
N7 N 0.2235(4) 0.74528(15) 0.32981(14)
H3 H 0.2411 0.7031 0.3467
H4 H 0.3132 0.7699 0.3355
C4 C 0.1790(4) 0.43665(15) 0.19307(16)
N8 N -0.0641(3) 0.76664(15) 0.26197(18)
H5 H -0.0709 0.8130 0.2566
C5 C 0.2454(3) 0.43781(14) 0.26105(15)
C6 C -0.3586(4) 0.55114(15) 0.22946(17)
N9 N 0.0810(3) 0.73177(14) 0.13422(14)
H6 H 0.0890 0.7749 0.1176
C7 C -0.0692(4) 0.46615(15) 0.13231(15)
O1 O -0.4762(3) 0.57246(14) 0.19788(13)
C8 C -0.2159(4) 0.49803(16) 0.14236(15)
C9 C 0.1997(4) 0.46177(17) 0.36752(16)
H7 H 0.1323 0.4765 0.3986
C10 C 0.3992(4) 0.41688(17) 0.27848(18)
H8 H 0.4653 0.4020 0.2470
C11 C 0.3521(4) 0.44110(19) 0.38778(18)
H9 H 0.3863 0.4425 0.4314
C12 C -0.0357(5) 0.44237(17) 0.07138(16)
H10 H 0.0595 0.4205 0.0647
C13 C -0.3242(5) 0.5070(2) 0.08988(19)
H11 H -0.4203 0.5286 0.0954
O2 O 0.2564(3) 0.41503(14) 0.14860(12)
C14 C -0.4447(4) 0.59594(18) 0.3351(2)
H12 H -0.5406 0.6100 0.3152
C15 C -0.1662(4) 0.55254(18) 0.39056(16)
H13 H -0.0710 0.5378 0.4106
C16 C -0.2710(5) 0.5869(2) 0.42661(19)
H14 H -0.2455 0.5956 0.4703
C17 C 0.2014(5) 0.6889(2) 0.10370(18)
H15 H 0.1875 0.6922 0.0569
H16 H 0.1894 0.6410 0.1159
C18 C -0.1494(6) 0.4523(2) 0.02044(18)
H17 H -0.1290 0.4369 -0.0208
C19 C -0.4114(5) 0.6083(2) 0.3992(2)
H18 H -0.4837 0.6311 0.4237
C20 C 0.4515(4) 0.41840(18) 0.3417(2)
H19 H 0.5538 0.4042 0.3540
C21 C 0.3616(5) 0.7140(2) 0.1261(2)
H20 H 0.4421 0.6851 0.1087
H21 H 0.3765 0.7608 0.1114
C22 C -0.2880(6) 0.4837(3) 0.0297(2)
H22 H -0.3608 0.4897 -0.0053
C23 C -0.0560(6) 0.7540(2) 0.3344(3)
H23 H -0.1413 0.7781 0.3538
H24 H -0.0667 0.7052 0.3430
C24 C 0.0969(7) 0.7789(2) 0.3620(2)
H25 H 0.1037 0.8283 0.3563
H26 H 0.1068 0.7690 0.4081
C25 C -0.2024(5) 0.7382(3) 0.2291(3)
H27 H -0.2958 0.7586 0.2461
H28 H -0.2057 0.6890 0.2368
C26 C -0.0848(5) 0.7092(2) 0.1196(2)
H29 H -0.0943 0.6609 0.1306
H30 H -0.1113 0.7142 0.0735
C27 C -0.2028(5) 0.7515(3) 0.1578(3)
H31 H -0.1807 0.8000 0.1515
H32 H -0.3085 0.7427 0.1390
N10 N 0.1965(3) 0.84669(12) 0.21754(12)
Fe1A Fe 0.06075(4) 0.993734(18) 0.235869(19)
C3A C -0.1532(3) 0.40220(14) 0.28047(13)
Cl1 Cl 0.18914(14) 0.87472(5) -0.00153(5)
O3 O 0.1864(4) 0.8737(2) -0.07006(16)
O4 O 0.3285(5) 0.8521(4) 0.0254(2)
O5 O 0.0690(6) 0.8424(4) 0.0233(3)
O6 O 0.1705(13) 0.9417(3) 0.0077(3)
O7 O 0.4734(4) 0.31453(18) 0.12214(18)
C28 C 0.4526(11) 0.3110(4) 0.0494(3)
loop_
_geom_bond_atom_site_label_1
_geom_bond_atom_site_label_2
_geom_bond_site_symmetry_1
_geom_bond_site_symmetry_2
Ni1 N4 1_555 1_555
Fe1 N1 1_555 1_555
N1 C4 1_555 1_555
N2 Fe1 1_555 1_555
N3 Fe1 1_555 1_555
C1 Fe1 1_555 1_555
N4 C1 1_555 1_555
N5 Fe1 1_555 1_555
N6 Ni1 1_555 1_555
H1 N6 1_555 1_555
H2 N6 1_555 1_555
C2 N2 1_555 1_555
C3 N10 1_555 1_555
N7 Ni1 1_555 1_555
H3 N7 1_555 1_555
H4 N7 1_555 1_555
C4 C5 1_555 1_555
N8 Ni1 1_555 1_555
H5 N8 1_555 1_555
C5 N3 1_555 1_555
C6 N5 1_555 1_555
N9 Ni1 1_555 1_555
H6 N9 1_555 1_555
C7 N1 1_555 1_555
O1 C6 1_555 1_555
C8 N5 1_555 1_555
C9 N3 1_555 1_555
H7 C9 1_555 1_555
C10 C5 1_555 1_555
H8 C10 1_555 1_555
C11 C9 1_555 1_555
H9 C11 1_555 1_555
C12 C7 1_555 1_555
H10 C12 1_555 1_555
C13 C8 1_555 1_555
H11 C13 1_555 1_555
O2 C4 1_555 1_555
C14 C2 1_555 1_555
H12 C14 1_555 1_555
C15 N2 1_555 1_555
H13 C15 1_555 1_555
C16 C15 1_555 1_555
H14 C16 1_555 1_555
C17 N9 1_555 1_555
H15 C17 1_555 1_555
H16 C17 1_555 1_555
C18 C12 1_555 1_555
H17 C18 1_555 1_555
C19 C14 1_555 1_555
H18 C19 1_555 1_555
C20 C10 1_555 1_555
H19 C20 1_555 1_555
C21 N6 1_555 1_555
H20 C21 1_555 1_555
H21 C21 1_555 1_555
C22 C13 1_555 1_555
H22 C22 1_555 1_555
C23 N8 1_555 1_555
H23 C23 1_555 1_555
H24 C23 1_555 1_555
C24 N7 1_555 1_555
H25 C24 1_555 1_555
H26 C24 1_555 1_555
C25 N8 1_555 1_555
H27 C25 1_555 1_555
H28 C25 1_555 1_555
C26 N9 1_555 1_555
H29 C26 1_555 1_555
H30 C26 1_555 1_555
C27 C25 1_555 1_555
H31 C27 1_555 1_555
H32 C27 1_555 1_555
N10 Ni1 1_555 1_555
Cl1 O3 1_555 1_555
O4 Cl1 1_555 1_555
O5 Cl1 1_555 1_555
O6 Cl1 1_555 1_555
O7 C28 1_555 1_555
Fe1A C3 1_555 1_555
C3A Fe1 1_555 1_555
C2 C6 1_555 1_555
C7 C8 1_555 1_555
C11 C20 1_555 1_555
C16 C19 1_555 1_555
C17 C21 1_555 1_555
C18 C22 1_555 1_555
C23 C24 1_555 1_555
C26 C27 1_555 1_555

#END
