
#######################################################################
#
#                 Cambridge Crystallographic Data Centre
#                                CCDC 
#
#######################################################################
#
# If this CIF has been generated from an entry in the Cambridge 
# Structural Database, then it will include bibliographic, chemical, 
# crystal, experimental, refinement or atomic coordinate data resulting 
# from the CCDC's data processing and validation procedures.
#
#######################################################################

data_XALQAD
_symmetry_cell_setting           triclinic
_symmetry_space_group_name_H-M   'P -1'
_symmetry_Int_Tables_number      2
_space_group_name_Hall           '-P 1'
loop_
_symmetry_equiv_pos_site_id
_symmetry_equiv_pos_as_xyz
1 x,y,z
2 -x,-y,-z
_cell_length_a                   12.031(3)
_cell_length_b                   15.177(4)
_cell_length_c                   15.386(4)
_cell_angle_alpha                106.197(16)
_cell_angle_beta                 94.706(17)
_cell_angle_gamma                107.583(17)
_cell_volume                     2529.05
loop_
_atom_site_label
_atom_site_type_symbol
_atom_site_fract_x
_atom_site_fract_y
_atom_site_fract_z
Fe1 Fe 0.17043(6) 0.46371(5) 0.19768(5)
Ni1 Ni 0.5000 0.5000 0.0000
Ni2 Ni 0.0000 0.5000 0.5000
N1 N -0.1029(4) 0.5720(4) 0.4552(3)
H1 H -0.1318 0.6009 0.5040
C1 C 0.2789(4) 0.4825(3) 0.1108(3)
C2 C 0.0970(4) 0.4614(4) 0.3060(4)
N2 N 0.0587(4) 0.4682(3) 0.3732(3)
N3 N 0.2250(4) 0.6090(3) 0.2511(3)
N4 N 0.3487(4) 0.4911(3) 0.0635(3)
N5 N 0.2786(4) 0.4071(3) 0.2511(3)
N6 N 0.0899(4) 0.3310(3) 0.1276(3)
N7 N 0.5149(5) 0.3777(4) 0.0282(3)
H2 H 0.5726 0.3614 -0.0003
N8 N 0.0425(4) 0.4843(3) 0.1382(3)
N9 N 0.6017(4) 0.5779(4) 0.1291(3)
H3 H 0.5525 0.5921 0.1685
N10 N -0.1471(4) 0.3756(4) 0.4432(3)
H4 H -0.1356 0.3427 0.3874
C3 C -0.0409(5) 0.3996(4) 0.0737(4)
O1 O -0.0558(4) 0.5964(4) 0.1480(4)
C4 C 0.1387(5) 0.6443(4) 0.2325(4)
C5 C -0.0127(5) 0.3146(4) 0.0670(4)
C6 C 0.3297(6) 0.6716(4) 0.3024(4)
H5 H 0.3900 0.6478 0.3145
C7 C 0.0290(5) 0.5729(5) 0.1674(4)
C8 C 0.3698(5) 0.4497(5) 0.3214(4)
H6 H 0.3916 0.5164 0.3509
C9 C 0.2462(5) 0.3094(4) 0.2106(4)
N11 N 0.6415(5) 0.7346(4) 0.1031(4)
C10 C 0.6916(6) 0.6706(5) 0.1325(5)
H7 H 0.7350 0.7039 0.1950
H8 H 0.7476 0.6564 0.0936
N12 N 0.0680(6) 0.7219(4) 0.4832(4)
O2 O 0.1029(5) 0.1762(3) 0.0938(4)
C11 C 0.6528(6) 0.5095(6) 0.1563(4)
H9 H 0.6806 0.5329 0.2223
H10 H 0.7195 0.5054 0.1261
C12 C 0.4331(6) 0.3985(6) 0.3521(5)
H11 H 0.4963 0.4306 0.4013
C13 C -0.2041(6) 0.4935(6) 0.3881(5)
H12 H -0.1793 0.4707 0.3300
H13 H -0.2676 0.5183 0.3771
C14 C -0.0359(7) 0.6490(5) 0.4185(5)
H14 H -0.0108 0.6184 0.3630
H15 H -0.0884 0.6815 0.4017
C15 C 0.3089(7) 0.2554(5) 0.2379(5)
H16 H 0.2873 0.1889 0.2074
C16 C 0.1388(6) 0.2639(5) 0.1366(5)
C17 C 0.5566(7) 0.4091(5) 0.1282(4)
H17 H 0.5885 0.3628 0.1438
H18 H 0.4913 0.4125 0.1605
C18 C 0.4011(7) 0.2904(5) -0.0075(5)
H19 H 0.4147 0.2347 0.0044
H20 H 0.3405 0.3045 0.0262
C19 C 0.4025(7) 0.3008(6) 0.3097(6)
H21 H 0.4445 0.2655 0.3294
C20 C 0.5789(7) 0.7849(5) 0.1668(6)
H22 H 0.5897 0.7729 0.2251
H23 H 0.4947 0.7592 0.1416
C21 C -0.2475(6) 0.4103(6) 0.4269(5)
H24 H -0.2743 0.4325 0.4842
H25 H -0.3132 0.3576 0.3837
C22 C 0.1549(7) 0.7435(5) 0.2684(5)
H26 H 0.0942 0.7667 0.2559
C23 C -0.1418(5) 0.3955(6) 0.0180(4)
H27 H -0.1607 0.4514 0.0225
C24 C -0.0857(6) 0.2256(5) 0.0038(5)
H28 H -0.0681 0.1689 -0.0017
C25 C 0.3499(7) 0.7712(5) 0.3377(5)
H29 H 0.4236 0.8135 0.3717
C26 C 0.0470(9) 0.7902(6) 0.5631(6)
H30 H -0.0114 0.7537 0.5914
H31 H 0.1201 0.8230 0.6079
C27 C 0.2613(8) 0.8064(5) 0.3224(5)
H32 H 0.2727 0.8723 0.3482
C28 C 0.5692(8) 0.9510(5) 0.2494(6)
C29 C 0.1669(6) 0.6916(5) 0.5002(5)
H33 H 0.1841 0.6591 0.4417
H34 H 0.2357 0.7489 0.5317
C30 C 0.0065(12) 0.8620(7) 0.5408(8)
H35 H -0.0725 0.8299 0.5040
H36 H 0.0581 0.8910 0.5036
C31 C -0.2121(6) 0.3068(7) -0.0436(5)
H37 H -0.2792 0.3030 -0.0811
C32 C 0.0577(10) 1.1112(7) 0.7081(9)
H38 H 0.0953 1.1762 0.7131
C33 C 0.0665(8) 1.0382(6) 0.6336(7)
H39 H 0.1135 1.0530 0.5910
C34 C -0.1850(7) 0.2236(6) -0.0506(5)
H40 H -0.2343 0.1646 -0.0927
C35 C 0.6100(9) 0.9809(6) 0.3417(7)
H41 H 0.6715 0.9628 0.3630
C36 C 0.6254(9) 0.8937(6) 0.1824(7)
H42 H 0.7103 0.9180 0.2047
H43 H 0.6124 0.9048 0.1239
C37 C 0.4327(11) 1.0354(8) 0.2816(11)
H44 H 0.3713 1.0540 0.2608
C38 C 0.4794(9) 0.9784(6) 0.2193(7)
H45 H 0.4495 0.9587 0.1566
C39 C 0.0033(10) 0.9435(6) 0.6251(7)
C40 C -0.0030(14) 1.0904(10) 0.7723(8)
H46 H -0.0060 1.1407 0.8221
C41 C -0.0586(18) 0.9997(11) 0.7662(11)
H47 H -0.0985 0.9848 0.8123
C42 C -0.0568(15) 0.9263(9) 0.6893(10)
H48 H -0.1003 0.8620 0.6831
C43 C 0.4764(14) 1.0647(7) 0.3739(11)
H49 H 0.4459 1.1040 0.4159
C44 C 0.5644(12) 1.0357(8) 0.4031(8)
H50 H 0.5934 1.0537 0.4658
N1A N 0.1029(4) 0.4280(4) 0.5448(3)
H1A H 0.1318 0.3991 0.4960
N10A N 0.1471(4) 0.6244(4) 0.5568(3)
H4A H 0.1356 0.6573 0.6126
N12A N -0.0680(6) 0.2781(4) 0.5168(4)
C13A C 0.2041(6) 0.5065(6) 0.6119(5)
H12A H 0.1793 0.5293 0.6700
H13A H 0.2676 0.4817 0.6229
C14A C 0.0359(7) 0.3510(5) 0.5815(5)
H14A H 0.0108 0.3816 0.6370
H15A H 0.0884 0.3185 0.5983
C21A C 0.2475(6) 0.5897(6) 0.5731(5)
H24A H 0.2743 0.5675 0.5158
H25A H 0.3132 0.6424 0.6163
C26A C -0.0470(9) 0.2098(6) 0.4369(6)
H30A H 0.0114 0.2463 0.4086
H31A H -0.1201 0.1770 0.3921
C29A C -0.1669(6) 0.3084(5) 0.4998(5)
H33A H -0.1841 0.3409 0.5583
H34A H -0.2357 0.2511 0.4683
C30A C -0.0065(12) 0.1380(7) 0.4592(8)
H35A H 0.0725 0.1701 0.4960
H36A H -0.0581 0.1090 0.4964
C32A C -0.0577(10) -0.1112(7) 0.2919(9)
H38A H -0.0953 -0.1762 0.2869
C33A C -0.0665(8) -0.0382(6) 0.3664(7)
H39A H -0.1135 -0.0530 0.4090
C39A C -0.0033(10) 0.0565(6) 0.3749(7)
C40A C 0.0030(14) -0.0904(10) 0.2277(8)
H46A H 0.0060 -0.1407 0.1779
C41A C 0.0586(18) 0.0003(11) 0.2338(11)
H47A H 0.0985 0.0152 0.1877
C42A C 0.0568(15) 0.0737(9) 0.3107(10)
H48A H 0.1003 0.1380 0.3169
N7A N 0.4851(5) 0.6223(4) -0.0282(3)
H2A H 0.4274 0.6386 0.0003
N9A N 0.3983(4) 0.4221(4) -0.1291(3)
H3A H 0.4475 0.4079 -0.1685
N11A N 0.3585(5) 0.2654(4) -0.1031(4)
C10A C 0.3084(6) 0.3294(5) -0.1325(5)
H7A H 0.2650 0.2961 -0.1950
H8A H 0.2524 0.3436 -0.0936
C11A C 0.3472(6) 0.4905(6) -0.1563(4)
H9A H 0.3194 0.4671 -0.2223
H10A H 0.2805 0.4946 -0.1261
C17A C 0.4434(7) 0.5909(5) -0.1282(4)
H17A H 0.4115 0.6372 -0.1438
H18A H 0.5087 0.5875 -0.1605
C18A C 0.5989(7) 0.7096(5) 0.0075(5)
H19A H 0.5853 0.7653 -0.0044
H20A H 0.6595 0.6955 -0.0262
C20A C 0.4211(7) 0.2151(5) -0.1668(6)
H22A H 0.4103 0.2271 -0.2251
H23A H 0.5053 0.2408 -0.1416
C28A C 0.4308(8) 0.0490(5) -0.2494(6)
C35A C 0.3900(9) 0.0191(6) -0.3417(7)
H41A H 0.3285 0.0372 -0.3630
C36A C 0.3746(9) 0.1063(6) -0.1824(7)
H42A H 0.2897 0.0820 -0.2047
H43A H 0.3876 0.0952 -0.1239
C37A C 0.5673(11) -0.0354(8) -0.2816(11)
H44A H 0.6287 -0.0540 -0.2608
C38A C 0.5206(9) 0.0216(6) -0.2193(7)
H45A H 0.5505 0.0413 -0.1566
C43A C 0.5236(14) -0.0647(7) -0.3739(11)
H49A H 0.5541 -0.1040 -0.4159
C44A C 0.4356(12) -0.0357(8) -0.4031(8)
H50A H 0.4066 -0.0537 -0.4658
Fe1A Fe -0.17043(6) 0.53629(5) 0.80232(5)
C1A C -0.2789(4) 0.5175(3) 0.8892(3)
C2A C -0.0970(4) 0.5386(4) 0.6940(4)
N2A N -0.0587(4) 0.5318(3) 0.6268(3)
N3A N -0.2250(4) 0.3910(3) 0.7489(3)
N4A N -0.3487(4) 0.5089(3) 0.9365(3)
N5A N -0.2786(4) 0.5929(3) 0.7489(3)
N6A N -0.0899(4) 0.6690(3) 0.8724(3)
N8A N -0.0425(4) 0.5157(3) 0.8618(3)
C3A C 0.0409(5) 0.6004(4) 0.9263(4)
O1A O 0.0558(4) 0.4036(4) 0.8520(4)
C4A C -0.1387(5) 0.3557(4) 0.7675(4)
C5A C 0.0127(5) 0.6854(4) 0.9330(4)
C6A C -0.3297(6) 0.3284(4) 0.6976(4)
H5A H -0.3900 0.3522 0.6855
C7A C -0.0290(5) 0.4271(5) 0.8326(4)
C8A C -0.3698(5) 0.5503(5) 0.6786(4)
H6A H -0.3916 0.4836 0.6491
C9A C -0.2462(5) 0.6906(4) 0.7894(4)
O2A O -0.1029(5) 0.8238(3) 0.9062(4)
C12A C -0.4331(6) 0.6015(6) 0.6479(5)
H11A H -0.4963 0.5694 0.5987
C15A C -0.3089(7) 0.7446(5) 0.7621(5)
H16A H -0.2873 0.8111 0.7926
C16A C -0.1388(6) 0.7361(5) 0.8634(5)
C19A C -0.4025(7) 0.6992(6) 0.6903(6)
H21A H -0.4445 0.7345 0.6706
C22A C -0.1549(7) 0.2565(5) 0.7316(5)
H26A H -0.0942 0.2333 0.7441
C23A C 0.1418(5) 0.6045(6) 0.9820(4)
H27A H 0.1607 0.5486 0.9775
C24A C 0.0857(6) 0.7744(5) 0.9962(5)
H28A H 0.0681 0.8311 1.0017
C25A C -0.3499(7) 0.2288(5) 0.6623(5)
H29A H -0.4236 0.1865 0.6283
C27A C -0.2613(8) 0.1936(5) 0.6776(5)
H32A H -0.2727 0.1277 0.6518
C31A C 0.2121(6) 0.6932(7) 1.0436(5)
H37A H 0.2792 0.6970 1.0811
C34A C 0.1850(7) 0.7764(6) 1.0506(5)
H40A H 0.2343 0.8354 1.0927
Ni1_2 Ni -0.5000 0.5000 1.0000
N4A_2 N 0.6513(4) 0.5089(3) -0.0635(3)
Cl1 Cl 0.63005(17) 0.70628(14) 0.43816(13)
O3 O 0.5233(5) 0.6892(5) 0.4727(4)
O4 O 0.7097(6) 0.6789(6) 0.4884(5)
O5 O 0.6086(7) 0.6540(6) 0.3451(4)
O6 O 0.6774(10) 0.8034(6) 0.4484(9)
N13 N 0.773(2) 1.2500(16) 0.2353(11)
C45 C 0.718(3) 1.1966(14) 0.1838(13)
C46 C 0.614(2) 1.1445(16) 0.0972(17)
C47? C 0.223(5) 0.0340(18) -0.001(3)
N14? N 0.281(4) 0.033(2) 0.034(2)
C48? C 0.133(3) 0.001(3) -0.087(3)
loop_
_geom_bond_atom_site_label_1
_geom_bond_atom_site_label_2
_geom_bond_site_symmetry_1
_geom_bond_site_symmetry_2
Fe1 C1 1_555 1_555
Ni1 N4 1_555 1_555
Ni2 N1 1_555 1_555
N1 H1 1_555 1_555
C1 N4 1_555 1_555
C2 Fe1 1_555 1_555
N2 Ni2 1_555 1_555
N3 Fe1 1_555 1_555
N5 Fe1 1_555 1_555
N6 Fe1 1_555 1_555
N7 Ni1 1_555 1_555
H2 N7 1_555 1_555
N8 Fe1 1_555 1_555
N9 Ni1 1_555 1_555
H3 N9 1_555 1_555
N10 Ni2 1_555 1_555
H4 N10 1_555 1_555
C3 N8 1_555 1_555
O1 C7 1_555 1_555
C4 N3 1_555 1_555
C5 N6 1_555 1_555
C6 N3 1_555 1_555
H5 C6 1_555 1_555
C7 N8 1_555 1_555
C8 N5 1_555 1_555
H6 C8 1_555 1_555
C9 N5 1_555 1_555
N11 C10 1_555 1_555
C10 N9 1_555 1_555
H7 C10 1_555 1_555
H8 C10 1_555 1_555
N12 C14 1_555 1_555
O2 C16 1_555 1_555
C11 N9 1_555 1_555
H9 C11 1_555 1_555
H10 C11 1_555 1_555
C12 C8 1_555 1_555
H11 C12 1_555 1_555
C13 N1 1_555 1_555
H12 C13 1_555 1_555
H13 C13 1_555 1_555
C14 N1 1_555 1_555
H14 C14 1_555 1_555
H15 C14 1_555 1_555
C15 C9 1_555 1_555
H16 C15 1_555 1_555
C16 N6 1_555 1_555
C17 N7 1_555 1_555
H17 C17 1_555 1_555
H18 C17 1_555 1_555
C18 N7 1_555 1_555
H19 C18 1_555 1_555
H20 C18 1_555 1_555
C19 C12 1_555 1_555
H21 C19 1_555 1_555
C20 N11 1_555 1_555
H22 C20 1_555 1_555
H23 C20 1_555 1_555
C21 N10 1_555 1_555
H24 C21 1_555 1_555
H25 C21 1_555 1_555
C22 C4 1_555 1_555
H26 C22 1_555 1_555
C23 C3 1_555 1_555
H27 C23 1_555 1_555
C24 C5 1_555 1_555
H28 C24 1_555 1_555
C25 C6 1_555 1_555
H29 C25 1_555 1_555
C26 N12 1_555 1_555
H30 C26 1_555 1_555
H31 C26 1_555 1_555
C27 C22 1_555 1_555
H32 C27 1_555 1_555
C28 C35 1_555 1_555
C29 N12 1_555 1_555
H33 C29 1_555 1_555
H34 C29 1_555 1_555
C30 C26 1_555 1_555
H35 C30 1_555 1_555
H36 C30 1_555 1_555
C31 C23 1_555 1_555
H37 C31 1_555 1_555
C32 H38 1_555 1_555
C33 C32 1_555 1_555
H39 C33 1_555 1_555
C34 C24 1_555 1_555
H40 C34 1_555 1_555
C35 H41 1_555 1_555
C36 C20 1_555 1_555
H42 C36 1_555 1_555
H43 C36 1_555 1_555
C37 H44 1_555 1_555
C38 C28 1_555 1_555
H45 C38 1_555 1_555
C39 C30 1_555 1_555
C40 C32 1_555 1_555
H46 C40 1_555 1_555
C41 C40 1_555 1_555
H47 C41 1_555 1_555
C42 C39 1_555 1_555
H48 C42 1_555 1_555
C43 C37 1_555 1_555
H49 C43 1_555 1_555
C44 C35 1_555 1_555
H50 C44 1_555 1_555
Cl1 O3 1_555 1_555
O4 Cl1 1_555 1_555
O5 Cl1 1_555 1_555
O6 Cl1 1_555 1_555
N13 C45 1_555 1_555
C45 C46 1_555 1_555
N1A Ni2 1_555 1_555
H1A N1A 1_555 1_555
N10A Ni2 1_555 1_555
H4A N10A 1_555 1_555
N12A C14A 1_555 1_555
C13A N1A 1_555 1_555
H12A C13A 1_555 1_555
H13A C13A 1_555 1_555
C14A N1A 1_555 1_555
H14A C14A 1_555 1_555
H15A C14A 1_555 1_555
C21A N10A 1_555 1_555
H24A C21A 1_555 1_555
H25A C21A 1_555 1_555
C26A N12A 1_555 1_555
H30A C26A 1_555 1_555
H31A C26A 1_555 1_555
C29A N10 1_555 1_555
H33A C29A 1_555 1_555
H34A C29A 1_555 1_555
C30A C26A 1_555 1_555
H35A C30A 1_555 1_555
H36A C30A 1_555 1_555
C32A H38A 1_555 1_555
C33A C32A 1_555 1_555
H39A C33A 1_555 1_555
C39A C30A 1_555 1_555
C40A C32A 1_555 1_555
H46A C40A 1_555 1_555
C41A C40A 1_555 1_555
H47A C41A 1_555 1_555
C42A C39A 1_555 1_555
H48A C42A 1_555 1_555
N7A Ni1 1_555 1_555
H2A N7A 1_555 1_555
N9A Ni1 1_555 1_555
H3A N9A 1_555 1_555
N11A C18 1_555 1_555
C10A N9A 1_555 1_555
H7A C10A 1_555 1_555
H8A C10A 1_555 1_555
C11A N9A 1_555 1_555
H9A C11A 1_555 1_555
H10A C11A 1_555 1_555
C17A N7A 1_555 1_555
H17A C17A 1_555 1_555
H18A C17A 1_555 1_555
C18A N11 1_555 1_555
H19A C18A 1_555 1_555
H20A C18A 1_555 1_555
C20A N11A 1_555 1_555
H22A C20A 1_555 1_555
H23A C20A 1_555 1_555
C28A C35A 1_555 1_555
C35A H41A 1_555 1_555
C36A C20A 1_555 1_555
H42A C36A 1_555 1_555
H43A C36A 1_555 1_555
C37A H44A 1_555 1_555
C38A C28A 1_555 1_555
H45A C38A 1_555 1_555
C43A C37A 1_555 1_555
H49A C43A 1_555 1_555
C44A C35A 1_555 1_555
H50A C44A 1_555 1_555
Fe1A C1A 1_555 1_555
C1A N4A 1_555 1_555
C2A Fe1A 1_555 1_555
N2A Ni2 1_555 1_555
N3A Fe1A 1_555 1_555
N4A Ni1_2 1_555 1_555
N5A Fe1A 1_555 1_555
N6A Fe1A 1_555 1_555
N8A Fe1A 1_555 1_555
C3A N8A 1_555 1_555
O1A C7A 1_555 1_555
C4A N3A 1_555 1_555
C5A N6A 1_555 1_555
C6A N3A 1_555 1_555
H5A C6A 1_555 1_555
C7A N8A 1_555 1_555
C8A N5A 1_555 1_555
H6A C8A 1_555 1_555
C9A N5A 1_555 1_555
O2A C16A 1_555 1_555
C12A C8A 1_555 1_555
H11A C12A 1_555 1_555
C15A C9A 1_555 1_555
H16A C15A 1_555 1_555
C16A N6A 1_555 1_555
C19A C12A 1_555 1_555
H21A C19A 1_555 1_555
C22A C4A 1_555 1_555
H26A C22A 1_555 1_555
C23A C3A 1_555 1_555
H27A C23A 1_555 1_555
C24A C5A 1_555 1_555
H28A C24A 1_555 1_555
C25A C6A 1_555 1_555
H29A C25A 1_555 1_555
C27A C22A 1_555 1_555
H32A C27A 1_555 1_555
C31A C23A 1_555 1_555
H37A C31A 1_555 1_555
C34A C24A 1_555 1_555
H40A C34A 1_555 1_555
N4A_2 Ni1 1_555 1_555
C2 N2 1_555 1_555
C3 C5 1_555 1_555
C4 C7 1_555 1_555
C9 C16 1_555 1_555
C11 C17 1_555 1_555
C13 C21 1_555 1_555
C15 C19 1_555 1_555
C25 C27 1_555 1_555
C28 C36 1_555 1_555
C29 N10A 1_555 1_555
C31 C34 1_555 1_555
C33 C39 1_555 1_555
C37 C38 1_555 1_555
C41 C42 1_555 1_555
C43 C44 1_555 1_555
N12A C29A 1_555 1_555
C13A C21A 1_555 1_555
C33A C39A 1_555 1_555
C41A C42A 1_555 1_555
N7A C18A 1_555 1_555
N11A C10A 1_555 1_555
C11A C17A 1_555 1_555
C28A C36A 1_555 1_555
C37A C38A 1_555 1_555
C43A C44A 1_555 1_555
C2A N2A 1_555 1_555
C3A C5A 1_555 1_555
C4A C7A 1_555 1_555
C9A C16A 1_555 1_555
C15A C19A 1_555 1_555
C25A C27A 1_555 1_555
C31A C34A 1_555 1_555

#END
