
#######################################################################
#
#                 Cambridge Crystallographic Data Centre
#                                CCDC 
#
#######################################################################
#
# If this CIF has been generated from an entry in the Cambridge 
# Structural Database, then it will include bibliographic, chemical, 
# crystal, experimental, refinement or atomic coordinate data resulting 
# from the CCDC's data processing and validation procedures.
#
#######################################################################

data_XALTUA
_symmetry_cell_setting           hexagonal
_symmetry_space_group_name_H-M   'P 65 2 2'
_symmetry_Int_Tables_number      179
_space_group_name_Hall           "P 65 2' (0,0,1)"
loop_
_symmetry_equiv_pos_site_id
_symmetry_equiv_pos_as_xyz
1 x,y,z
2 x-y,x,5/6+z
3 -y,-x,1/6-z
4 -y,x-y,2/3+z
5 x-y,-y,-z
6 -x,-y,1/2+z
7 x,x-y,5/6-z
8 -x+y,-x,1/3+z
9 y,x,2/3-z
10 y,-x+y,1/6+z
11 -x+y,y,1/2-z
12 -x,-x+y,1/3-z
_cell_length_a                   10.3184(4)
_cell_length_b                   10.3184(4)
_cell_length_c                   56.833(3)
_cell_angle_alpha                90
_cell_angle_beta                 90
_cell_angle_gamma                120
_cell_volume                     5240.3
loop_
_atom_site_label
_atom_site_type_symbol
_atom_site_fract_x
_atom_site_fract_y
_atom_site_fract_z
Cu1 Cu 0.97728(15) 1.03366(17) 0.02295(2)
Cu2 Cu 0.70232(16) 0.85165(18) 0.00168(3)
I1 I 0.88362(9) 0.74851(9) 0.010147(11)
I2 I 0.75689(8) 1.05460(9) 0.041860(12)
N1 N 1.1464(9) 1.0808(10) 0.04553(12)
N2 N 1.2889(10) 0.5105(9) 0.15494(15)
C1 C 1.1529(12) 1.1302(11) 0.06695(15)
H1 H 1.0814 1.1548 0.0716
C2 C 1.2636(12) 1.1478(12) 0.08330(16)
H2 H 1.2638 1.1827 0.0984
C3 C 1.3700(12) 1.1136(11) 0.07690(15)
C4 C 1.3633(13) 1.0640(17) 0.05432(18)
H3 H 1.4344 1.0407 0.0490
C5 C 1.2505(13) 1.0488(18) 0.03959(18)
H4 H 1.2478 1.0135 0.0244
C6 C 1.4766(13) 1.1141(13) 0.09418(17)
H5 H 1.4950 1.1868 0.1064
H6 H 1.5711 1.1423 0.0865
C7 C 1.4120(13) 0.9565(13) 0.10519(17)
H7 H 1.3162 0.9289 0.1123
H8 H 1.3938 0.8854 0.0927
C8 C 1.5081(13) 0.9423(14) 0.1232(2)
H9 H 1.5310 1.0166 0.1354
H10 H 1.6017 0.9633 0.1159
C9 C 1.4375(12) 0.7915(14) 0.1342(2)
C10 C 1.3483(15) 0.7627(14) 0.1527(3)
H11 H 1.3346 0.8385 0.1588
C11 C 1.2752(14) 0.6223(13) 0.1629(2)
H12 H 1.2144 0.6068 0.1759
C12 C 1.3755(15) 0.5367(14) 0.13579(19)
H13 H 1.3883 0.4600 0.1298
C13 C 1.4445(17) 0.6723(15) 0.1251(3)
H14 H 1.4978 0.6847 0.1113
Cu1D Cu 0.94362(23) 0.96634(17) -0.02295(2)
Cu2D Cu 0.85067(24) 1.14835(18) -0.00168(3)
Cu2B Cu 1.14835(18) 0.29768(16) 0.16499(3)
I1D I 1.13511(13) 1.25149(9) -0.010147(11)
I2D I 0.70229(12) 0.94540(9) -0.041860(12)
N2B N 0.4895(9) 0.7111(10) 0.01173(15)
loop_
_geom_bond_atom_site_label_1
_geom_bond_atom_site_label_2
_geom_bond_site_symmetry_1
_geom_bond_site_symmetry_2
Cu1 I1 1_555 1_555
Cu2 I1 1_555 1_555
I1 Cu1D 1_555 1_555
I2 Cu1 1_555 1_555
N1 Cu1 1_555 1_555
N2 C11 1_555 1_555
C1 N1 1_555 1_555
H1 C1 1_555 1_555
C2 C1 1_555 1_555
H2 C2 1_555 1_555
C3 C2 1_555 1_555
C4 C3 1_555 1_555
H3 C4 1_555 1_555
C5 N1 1_555 1_555
H4 C5 1_555 1_555
C6 C3 1_555 1_555
H5 C6 1_555 1_555
H6 C6 1_555 1_555
C7 C6 1_555 1_555
H7 C7 1_555 1_555
H8 C7 1_555 1_555
C8 C7 1_555 1_555
H9 C8 1_555 1_555
H10 C8 1_555 1_555
C9 C8 1_555 1_555
C10 C9 1_555 1_555
H11 C10 1_555 1_555
C11 C10 1_555 1_555
H12 C11 1_555 1_555
C12 N2 1_555 1_555
H13 C12 1_555 1_555
C13 C9 1_555 1_555
H14 C13 1_555 1_555
Cu1D I1D 1_555 1_555
Cu2D I2 1_555 1_555
Cu2B N2 1_555 1_555
I1D Cu1 1_555 1_555
I2D Cu2 1_555 1_555
N2B Cu2 1_555 1_555
Cu2 I2 1_555 1_555
C4 C5 1_555 1_555
C12 C13 1_555 1_555
Cu1D I2D 1_555 1_555
Cu2D I1D 1_555 1_555
Cu2D I2D 1_555 1_555

#END
