
#######################################################################
#
#                 Cambridge Crystallographic Data Centre
#                                CCDC 
#
#######################################################################
#
# If this CIF has been generated from an entry in the Cambridge 
# Structural Database, then it will include bibliographic, chemical, 
# crystal, experimental, refinement or atomic coordinate data resulting 
# from the CCDC's data processing and validation procedures.
#
#######################################################################

data_XALXIS01
_symmetry_cell_setting           orthorhombic
_symmetry_space_group_name_H-M   'P 21 21 21'
_symmetry_Int_Tables_number      19
_space_group_name_Hall           'P 2ac 2ab'
loop_
_symmetry_equiv_pos_site_id
_symmetry_equiv_pos_as_xyz
1 x,y,z
2 1/2-x,-y,1/2+z
3 -x,1/2+y,1/2-z
4 1/2+x,1/2-y,-z
_cell_length_a                   5.95850(10)
_cell_length_b                   10.44450(10)
_cell_length_c                   12.57260(10)
_cell_angle_alpha                90
_cell_angle_beta                 90
_cell_angle_gamma                90
_cell_volume                     782.438
loop_
_atom_site_label
_atom_site_type_symbol
_atom_site_fract_x
_atom_site_fract_y
_atom_site_fract_z
Zn1 Zn 0.20964(2) 0.325845(13) 0.488957(11)
N1 N 0.39766(19) 0.48074(10) 0.44372(8)
C1 C 0.4036(2) 0.51697(12) 0.34068(9)
H1 H 0.3061 0.4759 0.2916
C2 C 0.5472(2) 0.61212(11) 0.30373(9)
C3 C 0.6907(2) 0.67111(13) 0.37603(10)
H2 H 0.7932 0.7350 0.3529
C4 C 0.6824(3) 0.63556(15) 0.48255(10)
H3 H 0.7771 0.6756 0.5334
C5 C 0.5327(2) 0.54008(12) 0.51325(10)
H4 H 0.5260 0.5162 0.5861
C6 C 0.5422(2) 0.64924(11) 0.18754(9)
O1 O 0.39704(17) 0.59386(9) 0.13029(8)
O2 O 0.67855(18) 0.73350(10) 0.15816(8)
N2 N 0.39486(19) 0.19310(11) 0.57130(8)
N3 N 0.36844(19) 0.17837(12) 0.66678(9)
N4 N 0.3394(2) 0.16192(16) 0.75571(10)
Zn1A Zn 0.29036(2) 0.674155(13) -0.011043(11)
Zn1B Zn 0.79036(2) 0.825845(13) 0.011043(11)
Zn1C Zn 0.70964(2) 0.174155(13) 0.511043(11)
O1A O 0.10296(17) 0.40614(9) 0.63029(8)
O2B O 0.32145(18) 0.23350(10) 0.34184(8)
N2C N -0.10514(19) 0.30690(11) 0.42870(8)
loop_
_geom_bond_atom_site_label_1
_geom_bond_atom_site_label_2
_geom_bond_site_symmetry_1
_geom_bond_site_symmetry_2
Zn1 N1 1_555 1_555
N1 C1 1_555 1_555
C1 H1 1_555 1_555
C2 C1 1_555 1_555
C3 C2 1_555 1_555
H2 C3 1_555 1_555
C4 C3 1_555 1_555
H3 C4 1_555 1_555
C5 N1 1_555 1_555
H4 C5 1_555 1_555
C6 C2 1_555 1_555
O1 C6 1_555 1_555
O2 C6 1_555 1_555
N2 Zn1 1_555 1_555
N3 N2 1_555 1_555
N4 N3 1_555 1_555
Zn1A O1 1_555 1_555
Zn1B O2 1_555 1_555
Zn1C N2 1_555 1_555
O1A Zn1 1_555 1_555
O2B Zn1 1_555 1_555
N2C Zn1 1_555 1_555
C4 C5 1_555 1_555

#END
