
#######################################################################
#
#                 Cambridge Crystallographic Data Centre
#                                CCDC 
#
#######################################################################
#
# If this CIF has been generated from an entry in the Cambridge 
# Structural Database, then it will include bibliographic, chemical, 
# crystal, experimental, refinement or atomic coordinate data resulting 
# from the CCDC's data processing and validation procedures.
#
#######################################################################

data_XAMDIZ
_symmetry_cell_setting           monoclinic
_symmetry_space_group_name_H-M   'P 21/c'
_symmetry_Int_Tables_number      14
_space_group_name_Hall           '-P 2ybc'
loop_
_symmetry_equiv_pos_site_id
_symmetry_equiv_pos_as_xyz
1 x,y,z
2 -x,1/2+y,1/2-z
3 -x,-y,-z
4 x,1/2-y,1/2+z
_cell_length_a                   18.000(2)
_cell_length_b                   8.725(5)
_cell_length_c                   16.774(3)
_cell_angle_alpha                90
_cell_angle_beta                 77.647(12)
_cell_angle_gamma                90
_cell_volume                     2573.37
loop_
_atom_site_label
_atom_site_type_symbol
_atom_site_fract_x
_atom_site_fract_y
_atom_site_fract_z
Ni1 Ni 0.5000 0.0000 0.5000
Ni2 Ni 1.0000 0.5000 0.5000
S1 S 0.90668(8) 0.03854(16) 0.37989(9)
S2 S 0.57767(7) 0.47160(14) 0.63548(8)
O1 O 0.5369(2) 0.5893(4) 0.6016(2)
O2 O 0.9423(2) 0.0526(5) 0.2941(3)
O3 O 0.5615(2) 0.4619(4) 0.7231(2)
N1 N 0.9364(3) 0.1756(5) 0.4243(3)
N2 N 0.5628(3) 0.3181(5) 0.5916(3)
C1 C 0.6765(3) 0.5157(5) 0.6054(3)
C2 C 0.7982(3) 0.5375(7) 0.6415(4)
H1 H 0.8286 0.5243 0.6794
C3 C 0.7226(3) 0.4918(6) 0.6606(3)
H2 H 0.7029 0.4450 0.7105
C4 C 0.5846(3) 0.1799(6) 0.6195(3)
O4 O 0.5941(2) -0.0711(4) 0.6199(2)
N3 N 0.5703(2) 0.0559(5) 0.5788(3)
C5 C 0.6207(4) -0.0153(7) 0.6838(4)
C6 C 0.8285(3) 0.6026(6) 0.5663(3)
C7 C 0.7823(3) 0.6211(7) 0.5105(4)
H3 H 0.8027 0.6625 0.4594
N4 N 0.9053(2) 0.6539(5) 0.5485(3)
H4 H 0.9327 0.6445 0.5844
H5 H 0.9243 0.6944 0.5018
C8 C 0.8078(3) 0.0632(6) 0.3877(3)
O5 O 0.9159(2) -0.1114(5) 0.4138(3)
C9 C 0.6173(3) 0.1373(6) 0.6854(4)
H6 H 0.6332 0.2022 0.7224
C10 C 0.7069(3) 0.5792(7) 0.5296(4)
H7 H 0.6764 0.5934 0.4918
C11 C 0.6536(3) 0.0955(7) 0.3928(3)
C12 C 0.6906(3) -0.0398(6) 0.3658(3)
H8 H 0.6634 -0.1203 0.3496
C13 C 0.7667(3) -0.0567(6) 0.3625(3)
H9 H 0.7910 -0.1478 0.3436
C14 C 0.9174(3) 0.1832(6) 0.5089(3)
C15 C 0.6932(3) 0.2135(7) 0.4193(4)
H10 H 0.6684 0.3039 0.4386
C16 C 0.7712(3) 0.1968(6) 0.4170(4)
H11 H 0.7981 0.2757 0.4353
N5 N 0.9419(3) 0.3040(5) 0.5429(3)
O6 O 0.9184(2) 0.2860(5) 0.6271(2)
C17 C 0.8772(3) 0.0827(7) 0.5697(4)
H12 H 0.8546 -0.0104 0.5619
C18 C 0.8789(3) 0.1519(7) 0.6417(4)
N6 N 0.5746(2) 0.1101(5) 0.3955(3)
H13 H 0.5511 0.1929 0.4138
H14 H 0.5502 0.0361 0.3789
C19 C 0.8473(5) 0.1148(9) 0.7284(4)
H15 H 0.8605 0.1944 0.7624
H16 H 0.8680 0.0191 0.7418
H17 H 0.7930 0.1068 0.7372
C20 C 0.6460(5) -0.1317(8) 0.7356(5)
H18 H 0.6394 -0.2319 0.7146
H19 H 0.6163 -0.1234 0.7903
H20 H 0.6987 -0.1158 0.7358
O7 O 0.5532(2) -0.2125(4) 0.4721(2)
O8 O 0.9604(3) 0.4823(5) 0.3910(3)
Ni2_2 Ni 0.0000 -0.5000 0.5000
S1B S 0.09332(8) -0.03854(16) 0.62011(9)
S2B S 0.42233(7) -0.47160(14) 0.36452(8)
O1B O 0.4631(2) -0.5893(4) 0.3984(2)
O2B O 0.0577(2) -0.0526(5) 0.7059(3)
O3B O 0.4385(2) -0.4619(4) 0.2769(2)
N1B N 0.0636(3) -0.1756(5) 0.5757(3)
N2B N 0.4372(3) -0.3181(5) 0.4084(3)
C1B C 0.3235(3) -0.5157(5) 0.3946(3)
C2B C 0.2018(3) -0.5375(7) 0.3585(4)
H1B H 0.1714 -0.5243 0.3206
C3B C 0.2774(3) -0.4918(6) 0.3394(3)
H2B H 0.2971 -0.4450 0.2895
C4B C 0.4154(3) -0.1799(6) 0.3805(3)
O4B O 0.4059(2) 0.0711(4) 0.3801(2)
N3B N 0.4297(2) -0.0559(5) 0.4212(3)
C5B C 0.3793(4) 0.0153(7) 0.3162(4)
C6B C 0.1715(3) -0.6026(6) 0.4337(3)
C7B C 0.2177(3) -0.6211(7) 0.4895(4)
H3B H 0.1973 -0.6625 0.5406
N4B N 0.0947(2) -0.6539(5) 0.4515(3)
N4B_2 N 1.0947(2) 0.3461(5) 0.4515(3)
H4B H 0.0673 -0.6445 0.4156
H4B_2 H 1.0673 0.3555 0.4156
H5B H 0.0757 -0.6944 0.4982
H5B_2 H 1.0757 0.3056 0.4982
C8B C 0.1922(3) -0.0632(6) 0.6123(3)
O5B O 0.0841(2) 0.1114(5) 0.5862(3)
C9B C 0.3827(3) -0.1373(6) 0.3146(4)
H6B H 0.3668 -0.2022 0.2776
C10B C 0.2931(3) -0.5792(7) 0.4704(4)
H7B H 0.3236 -0.5934 0.5082
C11B C 0.3464(3) -0.0955(7) 0.6072(3)
C12B C 0.3094(3) 0.0398(6) 0.6342(3)
H8B H 0.3366 0.1203 0.6504
C13B C 0.2333(3) 0.0567(6) 0.6375(3)
H9B H 0.2090 0.1478 0.6564
C14B C 0.0826(3) -0.1832(6) 0.4911(3)
C15B C 0.3068(3) -0.2135(7) 0.5807(4)
H10B H 0.3316 -0.3039 0.5614
C16B C 0.2288(3) -0.1968(6) 0.5830(4)
H11B H 0.2019 -0.2757 0.5647
N5B N 0.0581(3) -0.3040(5) 0.4571(3)
N5B_2 N 1.0581(3) 0.6960(5) 0.4571(3)
O6B O 0.0816(2) -0.2860(5) 0.3729(2)
C17B C 0.1228(3) -0.0827(7) 0.4303(4)
H12B H 0.1454 0.0104 0.4381
C18B C 0.1211(3) -0.1519(7) 0.3583(4)
N6B N 0.4254(2) -0.1101(5) 0.6045(3)
H13B H 0.4489 -0.1929 0.5862
H14B H 0.4498 -0.0361 0.6211
C19B C 0.1527(5) -0.1148(9) 0.2716(4)
H15B H 0.1395 -0.1944 0.2376
H16B H 0.1320 -0.0191 0.2582
H17B H 0.2070 -0.1068 0.2628
C20B C 0.3540(5) 0.1317(8) 0.2644(5)
H18B H 0.3606 0.2319 0.2854
H19B H 0.3837 0.1234 0.2097
H20B H 0.3013 0.1158 0.2642
O7B O 0.4468(2) 0.2125(4) 0.5279(2)
O8B O 1.0396(3) 0.5177(5) 0.6090(3)
O9 O 0.0773(3) 0.2451(7) 0.2744(4)
loop_
_geom_bond_atom_site_label_1
_geom_bond_atom_site_label_2
_geom_bond_site_symmetry_1
_geom_bond_site_symmetry_2
Ni1 N3 1_555 1_555
Ni2 N4 1_555 1_555
S1 O2 1_555 1_555
S2 O1 1_555 1_555
O3 S2 1_555 1_555
N1 S1 1_555 1_555
N2 S2 1_555 1_555
C1 S2 1_555 1_555
C2 H1 1_555 1_555
C3 C1 1_555 1_555
H2 C3 1_555 1_555
C4 N2 1_555 1_555
O4 N3 1_555 1_555
N3 C4 1_555 1_555
C5 O4 1_555 1_555
C6 C2 1_555 1_555
C7 C6 1_555 1_555
H3 C7 1_555 1_555
N4 C6 1_555 1_555
H4 N4 1_555 1_555
H5 N4 1_555 1_555
C8 S1 1_555 1_555
O5 S1 1_555 1_555
C9 C4 1_555 1_555
H6 C9 1_555 1_555
C10 C1 1_555 1_555
H7 C10 1_555 1_555
C11 C12 1_555 1_555
C12 H8 1_555 1_555
C13 C8 1_555 1_555
H9 C13 1_555 1_555
C14 N1 1_555 1_555
C15 C11 1_555 1_555
H10 C15 1_555 1_555
C16 C8 1_555 1_555
H11 C16 1_555 1_555
N5 Ni2 1_555 1_555
O6 N5 1_555 1_555
C17 C14 1_555 1_555
H12 C17 1_555 1_555
C18 O6 1_555 1_555
N6 Ni1 1_555 1_555
H13 N6 1_555 1_555
H14 N6 1_555 1_555
C19 C18 1_555 1_555
H15 C19 1_555 1_555
H16 C19 1_555 1_555
H17 C19 1_555 1_555
C20 C5 1_555 1_555
H18 C20 1_555 1_555
H19 C20 1_555 1_555
H20 C20 1_555 1_555
O7 Ni1 1_555 1_555
O8 Ni2 1_555 1_555
Ni2_2 N4B 1_555 1_555
S1B O2B 1_555 1_555
S2B O1B 1_555 1_555
O3B S2B 1_555 1_555
N1B S1B 1_555 1_555
N2B S2B 1_555 1_555
C1B S2B 1_555 1_555
C2B H1B 1_555 1_555
C3B C1B 1_555 1_555
H2B C3B 1_555 1_555
C4B N2B 1_555 1_555
O4B N3B 1_555 1_555
N3B Ni1 1_555 1_555
C5B O4B 1_555 1_555
C6B C2B 1_555 1_555
C7B C6B 1_555 1_555
H3B C7B 1_555 1_555
N4B C6B 1_555 1_555
N4B_2 Ni2 1_555 1_555
H4B N4B 1_555 1_555
H4B_2 N4B_2 1_555 1_555
H5B N4B 1_555 1_555
H5B_2 N4B_2 1_555 1_555
C8B S1B 1_555 1_555
O5B S1B 1_555 1_555
C9B C4B 1_555 1_555
H6B C9B 1_555 1_555
C10B C1B 1_555 1_555
H7B C10B 1_555 1_555
C11B C12B 1_555 1_555
C12B H8B 1_555 1_555
C13B C8B 1_555 1_555
H9B C13B 1_555 1_555
C14B N1B 1_555 1_555
C15B C11B 1_555 1_555
H10B C15B 1_555 1_555
C16B C8B 1_555 1_555
H11B C16B 1_555 1_555
N5B Ni2_2 1_555 1_555
N5B_2 Ni2 1_555 1_555
O6B N5B 1_555 1_555
C17B C14B 1_555 1_555
H12B C17B 1_555 1_555
C18B O6B 1_555 1_555
N6B Ni1 1_555 1_555
H13B N6B 1_555 1_555
H14B N6B 1_555 1_555
C19B C18B 1_555 1_555
H15B C19B 1_555 1_555
H16B C19B 1_555 1_555
H17B C19B 1_555 1_555
C20B C5B 1_555 1_555
H18B C20B 1_555 1_555
H19B C20B 1_555 1_555
H20B C20B 1_555 1_555
O7B Ni1 1_555 1_555
O8B Ni2 1_555 1_555
C2 C3 1_555 1_555
C5 C9 1_555 1_555
C7 C10 1_555 1_555
C11 N6 1_555 1_555
C12 C13 1_555 1_555
C14 N5 1_555 1_555
C15 C16 1_555 1_555
C17 C18 1_555 1_555
C2B C3B 1_555 1_555
C4B N3B 1_555 1_555
C5B C9B 1_555 1_555
C7B C10B 1_555 1_555
C11B N6B 1_555 1_555
C12B C13B 1_555 1_555
C14B N5B 1_555 1_555
C15B C16B 1_555 1_555
C17B C18B 1_555 1_555

#END
