
#######################################################################
#
#                 Cambridge Crystallographic Data Centre
#                                CCDC 
#
#######################################################################
#
# If this CIF has been generated from an entry in the Cambridge 
# Structural Database, then it will include bibliographic, chemical, 
# crystal, experimental, refinement or atomic coordinate data resulting 
# from the CCDC's data processing and validation procedures.
#
#######################################################################

data_XAMJOL
_symmetry_cell_setting           monoclinic
_symmetry_space_group_name_H-M   'C 2/c'
_symmetry_Int_Tables_number      15
_space_group_name_Hall           '-C 2yn'
loop_
_symmetry_equiv_pos_site_id
_symmetry_equiv_pos_as_xyz
1 x,y,z
2 1/2+x,1/2+y,z
3 -x,y,1/2-z
4 1/2-x,1/2+y,1/2-z
5 -x,-y,-z
6 1/2-x,1/2-y,-z
7 x,-y,1/2+z
8 1/2+x,1/2-y,1/2+z
_cell_length_a                   23.980(4)
_cell_length_b                   11.6590(15)
_cell_length_c                   19.332(3)
_cell_angle_alpha                90
_cell_angle_beta                 125.892(3)
_cell_angle_gamma                90
_cell_volume                     4378.63
loop_
_atom_site_label
_atom_site_type_symbol
_atom_site_fract_x
_atom_site_fract_y
_atom_site_fract_z
Cu1 Cu 0.5000 0.5000 0.5000
N1 N 0.56652(12) 0.8361(2) 0.52692(16)
N2 N 0.50349(14) 0.8500(2) 0.45171(19)
N3 N 0.51766(12) 0.6695(2) 0.49779(16)
N4 N 0.80921(12) 1.0655(2) 0.44712(16)
N5 N 0.84786(14) 1.1031(3) 0.52874(18)
N6 N 0.91425(12) 1.0398(2) 0.49100(17)
N7 N 0.57131(16) 0.5076(3) 0.6580(2)
C1 C 0.64318(14) 0.9672(3) 0.5179(2)
C2 C 0.66927(18) 0.8878(3) 0.4907(2)
H1 H 0.6675 0.8085 0.5005
C3 C 0.69812(18) 0.9222(3) 0.4492(2)
H2 H 0.7153 0.8665 0.4303
C4 C 0.70185(14) 1.0380(3) 0.4355(2)
C5 C 0.67492(18) 1.1172(3) 0.4614(3)
H3 H 0.6765 1.1965 0.4514
C6 C 0.64556(17) 1.0823(3) 0.5021(2)
H4 H 0.6269 1.1379 0.5192
C7 C 0.61511(16) 0.9316(3) 0.5672(2)
H5 H 0.6539 0.9090 0.6257
H6 H 0.5918 0.9980 0.5718
C8 C 0.73369(15) 1.0781(3) 0.3918(2)
H7 H 0.7143 1.0332 0.3389
H8 H 0.7218 1.1597 0.3756
C9 C 0.47651(16) 0.7468(3) 0.4370(2)
H9 H 0.4319 0.7285 0.3878
C10 C 0.57378(15) 0.7293(3) 0.5533(2)
H10 H 0.6135 0.6995 0.6046
C11 C 0.91093(16) 1.0851(3) 0.5530(2)
H11 H 0.9505 1.1022 0.6087
C12 C 0.84887(15) 1.0295(3) 0.4252(2)
H12 H 0.8330 1.0006 0.3706
C13 C 0.6682(3) 0.4963(8) 0.8190(3)
H13 H 0.6489 0.4726 0.8496
H14 H 0.6908 0.5709 0.8406
H15 H 0.7018 0.4393 0.8279
C14 C 0.6132(2) 0.5055(4) 0.7284(2)
Cu1A Cu 1.0000 1.0000 0.5000
Cu1A_2 Cu 0.0000 0.0000 0.5000
N1D N 0.43348(12) 0.1639(2) 0.47308(16)
N2D N 0.49651(14) 0.1500(2) 0.54829(19)
N3D N 0.48234(12) 0.3305(2) 0.50221(16)
N4D N 0.19079(12) -0.0655(2) 0.55288(16)
N5D N 0.15214(14) -0.1031(3) 0.47126(18)
N6D N 0.08575(12) -0.0398(2) 0.50900(17)
N6A N 0.41425(12) 0.5398(2) 0.49100(17)
N6E N 0.58575(12) 0.4602(2) 0.50900(17)
N7D N 0.42869(16) 0.4924(3) 0.3420(2)
C1D C 0.35682(14) 0.0328(3) 0.4821(2)
C2D C 0.33073(18) 0.1122(3) 0.5093(2)
H1D H 0.3325 0.1915 0.4995
C3D C 0.30188(18) 0.0778(3) 0.5508(2)
H2D H 0.2847 0.1335 0.5697
C4D C 0.29815(14) -0.0380(3) 0.5645(2)
C5D C 0.32508(18) -0.1172(3) 0.5386(3)
H3D H 0.3235 -0.1965 0.5486
C6D C 0.35444(17) -0.0823(3) 0.4979(2)
H4D H 0.3731 -0.1379 0.4808
C7D C 0.38489(16) 0.0684(3) 0.4328(2)
H5D H 0.3461 0.0910 0.3743
H6D H 0.4082 0.0020 0.4282
C8D C 0.26631(15) -0.0781(3) 0.6082(2)
H7D H 0.2857 -0.0332 0.6611
H8D H 0.2782 -0.1597 0.6244
C9D C 0.52349(16) 0.2532(3) 0.5630(2)
H9D H 0.5681 0.2715 0.6122
C10D C 0.42622(15) 0.2707(3) 0.4467(2)
H10D H 0.3865 0.3005 0.3954
C11D C 0.08907(16) -0.0851(3) 0.4470(2)
H11D H 0.0495 -0.1022 0.3913
C12D C 0.15113(15) -0.0295(3) 0.5748(2)
H12D H 0.1670 -0.0006 0.6294
C13D C 0.3318(3) 0.5037(8) 0.1810(3)
H13D H 0.3511 0.5274 0.1504
H14D H 0.3092 0.4291 0.1594
H15D H 0.2982 0.5607 0.1721
C14D C 0.3868(2) 0.4945(4) 0.2716(2)
Cl1 Cl 0.77466(7) 0.70274(10) 0.74546(6)
O1 O 0.74016(19) 0.7124(4) 0.6584(2)
O2 O 0.8045(3) 0.7882(5) 0.8008(4)
O3 O 0.8099(8) 0.6064(8) 0.7809(5)
O4 O 0.7090(3) 0.7073(12) 0.7485(4)
O5 O 0.5000 0.3156(10) 0.7500
O6 O 0.5549(7) 1.141(3) 0.2156(7)
O7? O 0.8429(7) 0.706(3) 0.7439(11)
O8? O 0.7601(16) 0.5912(18) 0.7565(11)
loop_
_geom_bond_atom_site_label_1
_geom_bond_atom_site_label_2
_geom_bond_site_symmetry_1
_geom_bond_site_symmetry_2
Cu1 N3 1_555 1_555
N1 N2 1_555 1_555
N2 C9 1_555 1_555
N3 C9 1_555 1_555
N4 N5 1_555 1_555
N5 C11 1_555 1_555
N6 C11 1_555 1_555
N7 Cu1 1_555 1_555
C1 C2 1_555 1_555
C2 H1 1_555 1_555
C3 C2 1_555 1_555
H2 C3 1_555 1_555
C4 C3 1_555 1_555
C5 C4 1_555 1_555
H3 C5 1_555 1_555
C6 C1 1_555 1_555
H4 C6 1_555 1_555
C7 N1 1_555 1_555
H5 C7 1_555 1_555
H6 C7 1_555 1_555
C8 N4 1_555 1_555
H7 C8 1_555 1_555
H8 C8 1_555 1_555
C9 H9 1_555 1_555
C10 N1 1_555 1_555
H10 C10 1_555 1_555
C11 H11 1_555 1_555
C12 N4 1_555 1_555
H12 C12 1_555 1_555
C13 H13 1_555 1_555
H14 C13 1_555 1_555
H15 C13 1_555 1_555
C14 N7 1_555 1_555
Cl1 O1 1_555 1_555
O2 Cl1 1_555 1_555
O3 Cl1 1_555 1_555
O4 Cl1 1_555 1_555
Cu1A N6 1_555 1_555
Cu1A_2 N6D 1_555 1_555
N1D N2D 1_555 1_555
N2D C9D 1_555 1_555
N3D Cu1 1_555 1_555
N4D N5D 1_555 1_555
N5D C11D 1_555 1_555
N6D C11D 1_555 1_555
N6A Cu1 1_555 1_555
N6E Cu1 1_555 1_555
N7D Cu1 1_555 1_555
C1D C2D 1_555 1_555
C2D H1D 1_555 1_555
C3D C2D 1_555 1_555
H2D C3D 1_555 1_555
C4D C3D 1_555 1_555
C5D C4D 1_555 1_555
H3D C5D 1_555 1_555
C6D C1D 1_555 1_555
H4D C6D 1_555 1_555
C7D N1D 1_555 1_555
H5D C7D 1_555 1_555
H6D C7D 1_555 1_555
C8D N4D 1_555 1_555
H7D C8D 1_555 1_555
H8D C8D 1_555 1_555
C9D N3D 1_555 1_555
H9D C9D 1_555 1_555
C10D N1D 1_555 1_555
H10D C10D 1_555 1_555
C11D H11D 1_555 1_555
C12D N4D 1_555 1_555
H12D C12D 1_555 1_555
C13D H13D 1_555 1_555
H14D C13D 1_555 1_555
H15D C13D 1_555 1_555
C14D N7D 1_555 1_555
N3 C10 1_555 1_555
N6 C12 1_555 1_555
C1 C7 1_555 1_555
C4 C8 1_555 1_555
C5 C6 1_555 1_555
C13 C14 1_555 1_555
N3D C10D 1_555 1_555
N6D C12D 1_555 1_555
C1D C7D 1_555 1_555
C4D C8D 1_555 1_555
C5D C6D 1_555 1_555
C13D C14D 1_555 1_555

#END
