
#######################################################################
#
#                 Cambridge Crystallographic Data Centre
#                                CCDC 
#
#######################################################################
#
# If this CIF has been generated from an entry in the Cambridge 
# Structural Database, then it will include bibliographic, chemical, 
# crystal, experimental, refinement or atomic coordinate data resulting 
# from the CCDC's data processing and validation procedures.
#
#######################################################################

data_XAMJUR
_symmetry_cell_setting           triclinic
_symmetry_space_group_name_H-M   'P -1'
_symmetry_Int_Tables_number      2
_space_group_name_Hall           '-P 1'
loop_
_symmetry_equiv_pos_site_id
_symmetry_equiv_pos_as_xyz
1 x,y,z
2 -x,-y,-z
_cell_length_a                   11.6947(6)
_cell_length_b                   13.6910(9)
_cell_length_c                   14.6761(7)
_cell_angle_alpha                89.021(4)
_cell_angle_beta                 74.880(3)
_cell_angle_gamma                82.460(4)
_cell_volume                     2248.5
loop_
_atom_site_label
_atom_site_type_symbol
_atom_site_fract_x
_atom_site_fract_y
_atom_site_fract_z
Cu1 Cu 0.23545(3) 0.24694(2) 0.76653(2)
O1 O 0.0571(2) 0.26988(17) 0.88360(17)
H1 H 0.003(3) 0.265(3) 0.859(3)
H2 H 0.048(3) 0.233(2) 0.928(2)
O2 O 0.4326(2) 0.22288(18) 0.64595(16)
H3 H 0.446(3) 0.2627(19) 0.604(2)
H4 H 0.480(3) 0.1741(18) 0.631(3)
N1 N 0.2257(2) 0.53433(17) 0.85325(18)
N2 N 0.2985(2) 0.54101(19) 0.76508(19)
N3 N 0.2541(2) 0.38724(17) 0.79284(17)
N4 N 0.6026(2) 0.83781(17) 1.01686(16)
N5 N 0.5325(2) 0.90169(18) 1.08505(18)
N6 N 0.6724(2) 0.80818(17) 1.13917(16)
N7 N 0.2453(2) -0.04025(17) 0.67803(18)
N8 N 0.1694(2) -0.04553(18) 0.76482(19)
N9 N 0.2181(2) 0.10679(17) 0.73785(17)
N10 N -0.1060(2) -0.32899(18) 0.46650(17)
N11 N -0.0302(2) -0.39425(19) 0.40173(19)
N12 N -0.1573(2) -0.30000(17) 0.33590(17)
C1 C 0.2851(3) 0.6773(2) 0.9194(2)
C2 C 0.2842(3) 0.7744(2) 0.8929(2)
H5 H 0.2182 0.8068 0.8729
C3 C 0.3783(3) 0.8257(2) 0.8951(2)
H6 H 0.3760 0.8926 0.8766
C4 C 0.4750(3) 0.7804(2) 0.92385(19)
C5 C 0.4766(3) 0.6822(2) 0.9501(2)
H7 H 0.5430 0.6499 0.9696
C6 C 0.3832(3) 0.6313(2) 0.9482(2)
H8 H 0.3857 0.5644 0.9666
C7 C 0.1831(3) 0.6221(2) 0.9162(2)
H9 H 0.1444 0.6014 0.9806
H10 H 0.1228 0.6660 0.8931
C8 C 0.5798(3) 0.8352(2) 0.9228(2)
H11 H 0.6521 0.8026 0.8770
H12 H 0.5632 0.9035 0.9018
C9 C 0.3133(3) 0.4510(2) 0.7311(2)
H13 H 0.3608 0.4319 0.6695
C10 C 0.1998(3) 0.4433(2) 0.8687(2)
H14 H 0.1500 0.4214 0.9252
C11 C 0.5788(3) 0.8809(2) 1.1569(2)
H15 H 0.5489 0.9142 1.2163
C12 C 0.6852(3) 0.7833(2) 1.0497(2)
H16 H 0.7443 0.7340 1.0146
C13 C 0.1927(3) -0.1805(2) 0.6009(2)
C14 C 0.1751(3) -0.2720(2) 0.6381(3)
H17 H 0.2262 -0.3028 0.6740
C15 C 0.0839(3) -0.3197(2) 0.6238(2)
H18 H 0.0736 -0.3832 0.6493
C16 C 0.0075(3) -0.2761(2) 0.5729(2)
C17 C 0.0254(3) -0.1839(2) 0.5349(2)
H19 H -0.0261 -0.1529 0.4994
C18 C 0.1174(3) -0.1371(2) 0.5482(2)
H20 H 0.1294 -0.0745 0.5212
C19 C 0.2913(3) -0.1291(2) 0.6178(3)
H21 H 0.3420 -0.1752 0.6483
H22 H 0.3418 -0.1105 0.5565
C20 C -0.0961(3) -0.3258(3) 0.5638(2)
H23 H -0.0869 -0.3940 0.5870
H24 H -0.1709 -0.2903 0.6042
C21 C 0.1556(3) 0.0448(2) 0.7984(2)
H25 H 0.1066 0.0648 0.8593
C22 C 0.2735(3) 0.0500(2) 0.6631(2)
H26 H 0.3255 0.0710 0.6072
C23 C -0.0652(3) -0.3733(2) 0.3249(2)
H27 H -0.0288 -0.4069 0.2663
C24 C -0.1812(3) -0.2740(2) 0.4267(2)
H28 H -0.2423 -0.2240 0.4580
Cu1A Cu 0.76455(3) 0.75306(2) 1.23347(2)
Cu1A_2 Cu -0.23545(3) -0.24694(2) 0.23347(2)
N6A N 0.3276(2) 0.19182(17) 0.86083(16)
N12A N 0.1573(2) 0.30000(17) 0.66410(17)
Cl1 Cl -0.15042(7) 0.57742(6) 0.85365(6)
O3 O -0.2541(2) 0.5585(2) 0.9263(2)
O4 O -0.1531(3) 0.5312(3) 0.7680(2)
O5 O -0.1700(4) 0.6806(2) 0.8348(4)
O6 O -0.0493(4) 0.5337(5) 0.8787(4)
Cl2 Cl 0.38019(7) 0.06641(6) 0.38324(6)
O7 O 0.4196(3) 0.1227(3) 0.4490(2)
O8 O 0.2538(3) 0.0717(3) 0.4208(3)
O9 O 0.4245(4) -0.0330(3) 0.3935(3)
O10 O 0.4261(7) 0.0902(4) 0.2914(3)
O11 O -0.0488(3) 0.8641(2) 0.97782(19)
N13 N -0.1253(3) 0.9404(2) 0.8649(2)
C25 C -0.0597(3) 0.8690(3) 0.8971(3)
H29 H -0.0176 0.8173 0.8541
C26 C -0.1283(5) 0.9425(4) 0.7667(3)
H30 H -0.0822 0.8823 0.7342
H31 H -0.0935 1.0001 0.7366
H32 H -0.2113 0.9465 0.7631
C27 C -0.1893(4) 1.0222(3) 0.9260(3)
H33 H -0.1802 1.0106 0.9900
H34 H -0.2742 1.0286 0.9274
H35 H -0.1571 1.0830 0.9022
O12 O 0.4498(3) 0.3713(2) 0.52154(19)
N14 N 0.3944(3) 0.4137(2) 0.3878(2)
C28 C 0.4544(4) 0.3577(3) 0.4383(3)
H36 H 0.5057 0.3017 0.4073
C29 C 0.3166(4) 0.5009(3) 0.4299(3)
H37 H 0.3149 0.5054 0.4968
H38 H 0.2357 0.4972 0.4239
H39 H 0.3463 0.5593 0.3974
C30 C 0.4109(4) 0.3899(4) 0.2885(3)
H40 H 0.4665 0.3290 0.2715
H41 H 0.4436 0.4438 0.2498
H42 H 0.3338 0.3809 0.2775
O13 O -0.1123(3) 0.2381(3) 0.7971(2)
N15 N -0.2924(3) 0.2806(3) 0.7679(2)
C31 C -0.2092(4) 0.2901(4) 0.8118(3)
H43 H -0.2257 0.3411 0.8583
C32 C -0.4072(4) 0.3410(3) 0.7934(3)
H44 H -0.4085 0.3884 0.8431
H45 H -0.4701 0.2991 0.8166
H46 H -0.4209 0.3766 0.7380
C33 C -0.2725(5) 0.2071(5) 0.6950(5)
H47 H -0.1919 0.1713 0.6851
H48 H -0.2806 0.2390 0.6363
H49 H -0.3315 0.1609 0.7138
O14? O -0.0977(15) 0.6353(12) 0.9265(12)
O15? O 0.3378(19) 0.1619(16) 0.3292(15)
loop_
_geom_bond_atom_site_label_1
_geom_bond_atom_site_label_2
_geom_bond_site_symmetry_1
_geom_bond_site_symmetry_2
Cu1 O1 1_555 1_555
O1 H1 1_555 1_555
H2 O1 1_555 1_555
O2 Cu1 1_555 1_555
H3 O2 1_555 1_555
H4 O2 1_555 1_555
N1 N2 1_555 1_555
N2 C9 1_555 1_555
N3 Cu1 1_555 1_555
N4 N5 1_555 1_555
N5 C11 1_555 1_555
N6 C11 1_555 1_555
N7 N8 1_555 1_555
N8 C21 1_555 1_555
N9 Cu1 1_555 1_555
N10 N11 1_555 1_555
N11 C23 1_555 1_555
N12 C23 1_555 1_555
C1 C2 1_555 1_555
C2 H5 1_555 1_555
C3 C2 1_555 1_555
H6 C3 1_555 1_555
C4 C3 1_555 1_555
C5 C4 1_555 1_555
H7 C5 1_555 1_555
C6 C1 1_555 1_555
H8 C6 1_555 1_555
C7 N1 1_555 1_555
H9 C7 1_555 1_555
H10 C7 1_555 1_555
C8 N4 1_555 1_555
H11 C8 1_555 1_555
H12 C8 1_555 1_555
C9 N3 1_555 1_555
H13 C9 1_555 1_555
C10 N1 1_555 1_555
H14 C10 1_555 1_555
C11 H15 1_555 1_555
C12 N4 1_555 1_555
H16 C12 1_555 1_555
C13 C14 1_555 1_555
C14 H17 1_555 1_555
C15 C14 1_555 1_555
H18 C15 1_555 1_555
C16 C15 1_555 1_555
C17 C16 1_555 1_555
H19 C17 1_555 1_555
C18 C13 1_555 1_555
H20 C18 1_555 1_555
C19 N7 1_555 1_555
H21 C19 1_555 1_555
H22 C19 1_555 1_555
C20 N10 1_555 1_555
H23 C20 1_555 1_555
H24 C20 1_555 1_555
C21 N9 1_555 1_555
H25 C21 1_555 1_555
C22 N7 1_555 1_555
H26 C22 1_555 1_555
C23 H27 1_555 1_555
C24 N10 1_555 1_555
H28 C24 1_555 1_555
Cl1 O3 1_555 1_555
O4 Cl1 1_555 1_555
O5 Cl1 1_555 1_555
O6 Cl1 1_555 1_555
Cl2 O7 1_555 1_555
O8 Cl2 1_555 1_555
O9 Cl2 1_555 1_555
O10 Cl2 1_555 1_555
O11 C25 1_555 1_555
N13 C25 1_555 1_555
C25 H29 1_555 1_555
C26 N13 1_555 1_555
H30 C26 1_555 1_555
H31 C26 1_555 1_555
H32 C26 1_555 1_555
C27 N13 1_555 1_555
H33 C27 1_555 1_555
H34 C27 1_555 1_555
H35 C27 1_555 1_555
O12 C28 1_555 1_555
N14 C28 1_555 1_555
C28 H36 1_555 1_555
C29 N14 1_555 1_555
H37 C29 1_555 1_555
H38 C29 1_555 1_555
H39 C29 1_555 1_555
C30 N14 1_555 1_555
H40 C30 1_555 1_555
H41 C30 1_555 1_555
H42 C30 1_555 1_555
O13 C31 1_555 1_555
N15 C31 1_555 1_555
C31 H43 1_555 1_555
C32 N15 1_555 1_555
H44 C32 1_555 1_555
H45 C32 1_555 1_555
H46 C32 1_555 1_555
C33 N15 1_555 1_555
H47 C33 1_555 1_555
H48 C33 1_555 1_555
H49 C33 1_555 1_555
Cu1A N6 1_555 1_555
Cu1A_2 N12 1_555 1_555
N6A Cu1 1_555 1_555
N12A Cu1 1_555 1_555
N3 C10 1_555 1_555
N6 C12 1_555 1_555
N9 C22 1_555 1_555
N12 C24 1_555 1_555
C1 C7 1_555 1_555
C4 C8 1_555 1_555
C5 C6 1_555 1_555
C13 C19 1_555 1_555
C16 C20 1_555 1_555
C17 C18 1_555 1_555

#END
