
#######################################################################
#
#                 Cambridge Crystallographic Data Centre
#                                CCDC 
#
#######################################################################
#
# If this CIF has been generated from an entry in the Cambridge 
# Structural Database, then it will include bibliographic, chemical, 
# crystal, experimental, refinement or atomic coordinate data resulting 
# from the CCDC's data processing and validation procedures.
#
#######################################################################

data_XAMJIF
_symmetry_cell_setting           monoclinic
_symmetry_space_group_name_H-M   'P 21/c'
_symmetry_Int_Tables_number      14
_space_group_name_Hall           '-P 2ybc'
loop_
_symmetry_equiv_pos_site_id
_symmetry_equiv_pos_as_xyz
1 x,y,z
2 -x,1/2+y,1/2-z
3 -x,-y,-z
4 x,1/2-y,1/2+z
_cell_length_a                   11.025(4)
_cell_length_b                   8.744(2)
_cell_length_c                   9.655(3)
_cell_angle_alpha                90
_cell_angle_beta                 110.224(7)
_cell_angle_gamma                90
_cell_volume                     873.384
loop_
_atom_site_label
_atom_site_type_symbol
_atom_site_fract_x
_atom_site_fract_y
_atom_site_fract_z
Cu1 Cu 0.5000 0.0000 0.5000
O1 O 0.55181(16) 0.0682(2) 0.32987(18)
H1 H 0.564(3) -0.001(3) 0.282(3)
H2 H 0.505(3) 0.131(3) 0.279(3)
N1 N 0.8493(2) 0.1994(2) 0.7212(2)
N2 N 0.8577(2) 0.0906(3) 0.8257(2)
N3 N 0.67232(18) 0.0688(2) 0.6333(2)
C1 C 0.7489(2) 0.0148(3) 0.7671(3)
H3 H 0.7258 -0.0702 0.8141
C2 C 0.7401(2) 0.1853(3) 0.6083(3)
H4 H 0.7139 0.2482 0.5228
C3 C 0.9550(3) 0.3085(3) 0.7409(3)
H5 H 0.9340 0.3748 0.6526
H6 H 1.0352 0.2518 0.7502
C4 C 0.9779(2) 0.4070(3) 0.8761(2)
C5 C 0.8824(2) 0.5047(3) 0.8859(3)
H7 H 0.8011 0.5079 0.8081
C6 C 1.0957(2) 0.4023(3) 0.9919(3)
H8 H 1.1616 0.3348 0.9870
Cu1_2 Cu 1.5000 1.0000 1.5000
O1B O 0.44819(16) -0.0682(2) 0.67013(18)
H1B H 0.436(3) 0.001(3) 0.718(3)
H2B H 0.495(3) -0.131(3) 0.721(3)
N1B N 1.1507(2) 0.8006(2) 1.2788(2)
N2B N 1.1423(2) 0.9094(3) 1.1743(2)
N3B N 1.32768(18) 0.9312(2) 1.3667(2)
N3B_2 N 0.32768(18) -0.0688(2) 0.3667(2)
C1B C 1.2511(2) 0.9852(3) 1.2329(3)
H3B H 1.2742 1.0702 1.1859
C2B C 1.2599(2) 0.8147(3) 1.3917(3)
H4B H 1.2861 0.7518 1.4772
C3B C 1.0450(3) 0.6915(3) 1.2591(3)
H5B H 1.0660 0.6252 1.3474
H6B H 0.9648 0.7482 1.2498
C4B C 1.0221(2) 0.5930(3) 1.1239(2)
C5B C 1.1176(2) 0.4953(3) 1.1141(3)
H7B H 1.1989 0.4921 1.1919
C6B C 0.9043(2) 0.5977(3) 1.0081(3)
H8B H 0.8384 0.6652 1.0130
O2 O 0.41899(18) 0.25090(19) 0.53995(18)
O3 O 0.3523(2) 0.4789(2) 0.4658(2)
O4 O 0.4052(2) 0.3255(2) 0.32181(19)
N4 N 0.39164(19) 0.3525(2) 0.4432(2)
loop_
_geom_bond_atom_site_label_1
_geom_bond_atom_site_label_2
_geom_bond_site_symmetry_1
_geom_bond_site_symmetry_2
Cu1 O1 1_555 1_555
O1 H1 1_555 1_555
H2 O1 1_555 1_555
N1 N2 1_555 1_555
N2 C1 1_555 1_555
N3 Cu1 1_555 1_555
C1 N3 1_555 1_555
H3 C1 1_555 1_555
C2 N1 1_555 1_555
H4 C2 1_555 1_555
C3 N1 1_555 1_555
H5 C3 1_555 1_555
H6 C3 1_555 1_555
C4 C3 1_555 1_555
C5 C4 1_555 1_555
H7 C5 1_555 1_555
C6 C4 1_555 1_555
H8 C6 1_555 1_555
O2 N4 1_555 1_555
O3 N4 1_555 1_555
O4 N4 1_555 1_555
Cu1_2 N3B 1_555 1_555
O1B Cu1 1_555 1_555
H1B O1B 1_555 1_555
H2B O1B 1_555 1_555
N1B N2B 1_555 1_555
N2B C1B 1_555 1_555
N3B C1B 1_555 1_555
N3B_2 Cu1 1_555 1_555
C1B H3B 1_555 1_555
C2B N1B 1_555 1_555
H4B C2B 1_555 1_555
C3B N1B 1_555 1_555
H5B C3B 1_555 1_555
H6B C3B 1_555 1_555
C4B C3B 1_555 1_555
C5B C6 1_555 1_555
H7B C5B 1_555 1_555
C6B C5 1_555 1_555
H8B C6B 1_555 1_555
N3 C2 1_555 1_555
N3B C2B 1_555 1_555
C4B C5B 1_555 1_555
C4B C6B 1_555 1_555

#END
