
#######################################################################
#
#                 Cambridge Crystallographic Data Centre
#                                CCDC 
#
#######################################################################
#
# If this CIF has been generated from an entry in the Cambridge 
# Structural Database, then it will include bibliographic, chemical, 
# crystal, experimental, refinement or atomic coordinate data resulting 
# from the CCDC's data processing and validation procedures.
#
#######################################################################

data_XAMLIH
_symmetry_cell_setting           monoclinic
_symmetry_space_group_name_H-M   'P 21/c'
_symmetry_Int_Tables_number      14
_space_group_name_Hall           '-P 2ybc'
loop_
_symmetry_equiv_pos_site_id
_symmetry_equiv_pos_as_xyz
1 x,y,z
2 -x,1/2+y,1/2-z
3 -x,-y,-z
4 x,1/2-y,1/2+z
_cell_length_a                   11.896(6)
_cell_length_b                   10.884(5)
_cell_length_c                   17.559(9)
_cell_angle_alpha                90
_cell_angle_beta                 92.467(8)
_cell_angle_gamma                90
_cell_volume                     2271.36
loop_
_atom_site_label
_atom_site_type_symbol
_atom_site_fract_x
_atom_site_fract_y
_atom_site_fract_z
Sm1 Sm 0.53259(3) 0.54108(3) 0.675835(15)
O1 O 0.6061(5) 0.4372(4) 0.7991(2)
O2 O 0.5547(5) 0.6290(4) 0.8064(2)
O3 O 0.6072(4) 0.7425(4) 1.1613(2)
O4 O 0.5739(5) 0.8451(4) 1.0563(2)
O5 O 0.7304(5) 0.5180(5) 0.6649(3)
O6 O 0.8087(5) 0.3354(5) 0.6853(3)
O7 O 0.8468(7) 0.8770(6) 0.8133(5)
O8 O 0.9550(7) 0.8563(7) 0.9158(4)
O9 O 0.5727(4) 0.3247(4) 0.6445(2)
O10 O 0.3946(5) 0.4769(5) 0.5745(3)
O11 O 0.3775(6) 0.6862(6) 0.6784(3)
O12 O 0.3806(6) 0.4320(5) 0.7322(3)
C1 C 0.5944(6) 0.5322(5) 0.8379(3)
C2 C 0.6269(6) 0.5334(6) 0.9214(4)
C3 C 0.6788(7) 0.4325(7) 0.9554(4)
H1 H 0.6937 0.3639 0.9258
C4 C 0.7093(8) 0.4313(7) 1.0329(4)
H2 H 0.7460 0.3640 1.0551
C5 C 0.6830(7) 0.5345(6) 1.0764(4)
H3 H 0.7007 0.5342 1.1285
C6 C 0.6316(6) 0.6360(6) 1.0440(3)
C7 C 0.6038(6) 0.6352(6) 0.9657(3)
H4 H 0.5694 0.7036 0.9431
C8 C 0.6020(6) 0.7466(6) 1.0892(3)
C9 C 0.7991(7) 0.4454(7) 0.7014(4)
C10 C 0.8672(7) 0.5014(8) 0.7665(4)
C11 C 0.9416(9) 0.4301(10) 0.8124(5)
H5 H 0.9522 0.3476 0.8011
C12 C 0.9990(10) 0.4824(10) 0.8741(7)
H6 H 1.0465 0.4341 0.9050
C13 C 0.9869(8) 0.6060(9) 0.8905(5)
H7 H 1.0261 0.6406 0.9322
C14 C 0.9156(7) 0.6780(8) 0.8443(5)
C15 C 0.9018(8) 0.8127(9) 0.8556(5)
C16 C 0.8559(7) 0.6243(8) 0.7836(4)
H8 H 0.8070 0.6724 0.7536
H9 H 0.387(8) 0.748(8) 0.679(5)
H10 H 0.305(9) 0.667(9) 0.694(5)
H11 H 0.327(8) 0.428(9) 0.716(5)
H12 H 0.384(6) 0.383(7) 0.763(4)
Sm1C Sm 0.53259(3) 0.95892(3) 1.175835(15)
O3C O 0.6072(4) 0.7575(4) 0.6613(2)
O4C O 0.5739(5) 0.6549(4) 0.5563(2)
O13 O 0.8365(6) 0.1336(6) 0.7727(4)
O14 O 0.7588(7) 0.1251(8) 0.0073(4)
O15 O 0.9414(7) 0.0977(7) 0.9149(4)
O16 O 0.8508(7) 0.6829(8) 0.5728(5)
loop_
_geom_bond_atom_site_label_1
_geom_bond_atom_site_label_2
_geom_bond_site_symmetry_1
_geom_bond_site_symmetry_2
Sm1 O1 1_555 1_555
O1 C1 1_555 1_555
O2 Sm1 1_555 1_555
O3 C8 1_555 1_555
O4 C8 1_555 1_555
O5 Sm1 1_555 1_555
O6 C9 1_555 1_555
O7 C15 1_555 1_555
O8 C15 1_555 1_555
O9 Sm1 1_555 1_555
O10 Sm1 1_555 1_555
O11 Sm1 1_555 1_555
O12 Sm1 1_555 1_555
C1 O2 1_555 1_555
C2 C1 1_555 1_555
C3 C2 1_555 1_555
H1 C3 1_555 1_555
C4 C3 1_555 1_555
H2 C4 1_555 1_555
C5 C4 1_555 1_555
H3 C5 1_555 1_555
C6 C5 1_555 1_555
C7 C2 1_555 1_555
H4 C7 1_555 1_555
C8 C6 1_555 1_555
C9 O5 1_555 1_555
C10 C9 1_555 1_555
C11 C10 1_555 1_555
H5 C11 1_555 1_555
C12 C11 1_555 1_555
H6 C12 1_555 1_555
C13 C12 1_555 1_555
H7 C13 1_555 1_555
C14 C13 1_555 1_555
C15 C14 1_555 1_555
C16 C10 1_555 1_555
H8 C16 1_555 1_555
H9 O11 1_555 1_555
H10 O11 1_555 1_555
H11 O12 1_555 1_555
H12 O12 1_555 1_555
Sm1C O3 1_555 1_555
O3C Sm1 1_555 1_555
O4C Sm1 1_555 1_555
O4 Sm1C 1_555 1_555
C6 C7 1_555 1_555
C14 C16 1_555 1_555

#END
