
#######################################################################
#
#                 Cambridge Crystallographic Data Centre
#                                CCDC 
#
#######################################################################
#
# If this CIF has been generated from an entry in the Cambridge 
# Structural Database, then it will include bibliographic, chemical, 
# crystal, experimental, refinement or atomic coordinate data resulting 
# from the CCDC's data processing and validation procedures.
#
#######################################################################

data_XAMLON
_symmetry_cell_setting           monoclinic
_symmetry_space_group_name_H-M   'P 21/c'
_symmetry_Int_Tables_number      14
_space_group_name_Hall           '-P 2ybc'
loop_
_symmetry_equiv_pos_site_id
_symmetry_equiv_pos_as_xyz
1 x,y,z
2 -x,1/2+y,1/2-z
3 -x,-y,-z
4 x,1/2-y,1/2+z
_cell_length_a                   11.82(3)
_cell_length_b                   10.69(3)
_cell_length_c                   17.31(4)
_cell_angle_alpha                90
_cell_angle_beta                 92.01(3)
_cell_angle_gamma                90
_cell_volume                     2185.87
loop_
_atom_site_label
_atom_site_type_symbol
_atom_site_fract_x
_atom_site_fract_y
_atom_site_fract_z
Dy1 Dy 0.53287(6) 0.54115(6) 0.67657(3)
O1 O 0.6038(10) 0.4344(9) 0.7973(6)
O2 O 0.5519(11) 0.6289(10) 0.8052(5)
O3 O 0.6068(9) 0.7442(9) 1.1617(5)
O4 O 0.5751(11) 0.8488(10) 1.0588(6)
O5 O 0.7265(11) 0.5193(11) 0.6668(7)
O6 O 0.8081(14) 0.3368(12) 0.6833(8)
O7 O 0.8421(17) 0.8781(15) 0.8227(13)
O8 O 0.9521(19) 0.851(2) 0.9230(16)
O9 O 0.5714(10) 0.3253(9) 0.6429(6)
O10 O 0.3978(9) 0.4777(9) 0.5764(6)
O11 O 0.3799(11) 0.6852(9) 0.6777(6)
O12 O 0.3821(11) 0.4323(10) 0.7319(6)
C1 C 0.5914(13) 0.5319(12) 0.8371(8)
C2 C 0.6253(12) 0.5320(12) 0.9209(8)
C3 C 0.6790(15) 0.4317(15) 0.9535(8)
H1 H 0.6977 0.3635 0.9230
C4 C 0.7065(18) 0.4309(15) 1.0337(10)
H2 H 0.7398 0.3609 1.0569
C5 C 0.6837(15) 0.5327(16) 1.0759(9)
H3 H 0.7031 0.5323 1.1284
C6 C 0.6317(13) 0.6397(13) 1.0435(8)
C7 C 0.6027(13) 0.6378(14) 0.9650(8)
H4 H 0.5682 0.7072 0.9418
C8 C 0.6016(13) 0.7492(14) 1.0899(8)
C9 C 0.7992(15) 0.4483(16) 0.7026(10)
C10 C 0.8647(18) 0.5014(17) 0.7669(11)
C11 C 0.9409(19) 0.429(2) 0.8095(13)
H5 H 0.9528 0.3460 0.7955
C12 C 1.002(2) 0.480(2) 0.8748(16)
H6 H 1.0505 0.4309 0.9048
C13 C 0.987(2) 0.603(3) 0.8923(15)
H7 H 1.0253 0.6367 0.9350
C14 C 0.9158(18) 0.677(2) 0.8484(14)
C15 C 0.901(2) 0.810(2) 0.8611(16)
C16 C 0.8537(16) 0.6245(18) 0.7848(11)
H8 H 0.8050 0.6749 0.7551
Dy1C Dy 0.53287(6) 0.95885(6) 1.17657(3)
O3C O 0.6068(9) 0.7558(9) 0.6617(5)
O4C O 0.5751(11) 0.6512(10) 0.5588(6)
O13 O 0.8362(14) 0.1355(15) 0.7733(11)
O14 O 0.765(2) 0.115(3) 0.0055(11)
O15 O 0.9429(17) 0.106(3) 0.9144(14)
O16 O 0.848(2) 0.683(3) 0.5715(17)
loop_
_geom_bond_atom_site_label_1
_geom_bond_atom_site_label_2
_geom_bond_site_symmetry_1
_geom_bond_site_symmetry_2
Dy1 O1 1_555 1_555
O1 C1 1_555 1_555
O2 Dy1 1_555 1_555
O3 C8 1_555 1_555
O4 C8 1_555 1_555
O5 Dy1 1_555 1_555
O6 C9 1_555 1_555
O7 C15 1_555 1_555
O8 C15 1_555 1_555
O9 Dy1 1_555 1_555
O10 Dy1 1_555 1_555
O11 Dy1 1_555 1_555
O12 Dy1 1_555 1_555
C1 O2 1_555 1_555
C2 C1 1_555 1_555
C3 C2 1_555 1_555
H1 C3 1_555 1_555
C4 C3 1_555 1_555
H2 C4 1_555 1_555
C5 C4 1_555 1_555
H3 C5 1_555 1_555
C6 C5 1_555 1_555
C7 C2 1_555 1_555
H4 C7 1_555 1_555
C8 C6 1_555 1_555
C9 O5 1_555 1_555
C10 C9 1_555 1_555
C11 C10 1_555 1_555
H5 C11 1_555 1_555
C12 C11 1_555 1_555
H6 C12 1_555 1_555
C13 C12 1_555 1_555
H7 C13 1_555 1_555
C14 C13 1_555 1_555
C15 C14 1_555 1_555
C16 C10 1_555 1_555
H8 C16 1_555 1_555
Dy1C O3 1_555 1_555
O3C Dy1 1_555 1_555
O4C Dy1 1_555 1_555
O4 Dy1C 1_555 1_555
C6 C7 1_555 1_555
C14 C16 1_555 1_555

#END
