
#######################################################################
#
#                 Cambridge Crystallographic Data Centre
#                                CCDC 
#
#######################################################################
#
# If this CIF has been generated from an entry in the Cambridge 
# Structural Database, then it will include bibliographic, chemical, 
# crystal, experimental, refinement or atomic coordinate data resulting 
# from the CCDC's data processing and validation procedures.
#
#######################################################################

data_XAMWIR
_symmetry_cell_setting           monoclinic
_symmetry_space_group_name_H-M   'P 21'
_symmetry_Int_Tables_number      4
_space_group_name_Hall           'P 2yb'
loop_
_symmetry_equiv_pos_site_id
_symmetry_equiv_pos_as_xyz
1 x,y,z
2 -x,1/2+y,-z
_cell_length_a                   7.7418(10)
_cell_length_b                   6.3423(10)
_cell_length_c                   18.647(2)
_cell_angle_alpha                90
_cell_angle_beta                 99.370(10)
_cell_angle_gamma                90
_cell_volume                     903.367
loop_
_atom_site_label
_atom_site_type_symbol
_atom_site_fract_x
_atom_site_fract_y
_atom_site_fract_z
Na1 Na 0.15968(8) 0.42678(10) -0.03135(3)
O1 O 0.03938(15) 0.78962(19) -0.04322(6)
H1 H -0.011(3) 0.802(5) -0.0844(10)
H2 H 0.118(2) 0.876(3) -0.0395(12)
O2 O 0.37433(16) 0.53216(18) 0.07298(6)
H3 H 0.395(3) 0.454(3) 0.1067(10)
H4 H 0.361(4) 0.631(3) 0.0960(14)
O3 O 0.30985(15) 0.0860(2) -0.01745(6)
H5 H 0.334(3) 0.064(4) 0.0249(8)
H6 H 0.399(2) 0.083(4) -0.0333(12)
N1 N 0.63239(16) 0.44021(19) -0.14260(6)
S1 S 0.44963(4) 0.55882(5) -0.168680(18)
S2 S 0.80457(4) 0.47726(6) -0.178870(18)
O4 O 0.35760(15) 0.5455(2) -0.10758(6)
O5 O 0.47148(15) 0.76612(18) -0.19807(7)
O6 O 0.93574(14) 0.3426(2) -0.13799(6)
O7 O 0.85004(16) 0.69699(18) -0.18398(7)
N2 N 0.06308(17) 0.0161(2) -0.40316(7)
O8 O 0.03400(17) 0.0871(2) -0.46529(6)
O9 O 0.01786(18) -0.1583(2) -0.38586(7)
N3 N 0.6614(2) 0.1512(3) -0.48415(9)
O10 O 0.66940(19) 0.2735(3) -0.53417(7)
O11 O 0.6344(2) -0.0388(3) -0.49098(9)
C1 C 0.33151(18) 0.4033(2) -0.23894(8)
C2 C 0.3033(2) 0.4756(3) -0.31048(8)
H7 H 0.3453 0.6101 -0.3220
C3 C 0.2132(2) 0.3487(3) -0.36482(8)
H8 H 0.1913 0.3947 -0.4139
C4 C 0.1562(2) 0.1532(2) -0.34524(8)
C5 C 0.18054(19) 0.0801(2) -0.27450(8)
H9 H 0.1378 -0.0543 -0.2633
C6 C 0.2690(2) 0.2080(2) -0.22040(8)
H10 H 0.2868 0.1630 -0.1712
C7 C 0.75747(18) 0.3803(2) -0.26922(8)
C8 C 0.7822(2) 0.5135(3) -0.32583(8)
H11 H 0.8215 0.6540 -0.3161
C9 C 0.7487(2) 0.4390(3) -0.39726(9)
H12 H 0.7655 0.5266 -0.4369
C10 C 0.6908(2) 0.2355(3) -0.40837(9)
C11 C 0.6631(2) 0.1006(3) -0.35275(9)
H13 H 0.6210 -0.0386 -0.3631
C12 C 0.6982(2) 0.1738(3) -0.28167(9)
H14 H 0.6821 0.0849 -0.2423
O1A O -0.03938(15) 0.28962(19) 0.04322(6)
Na1A Na -0.15968(8) 0.92678(10) 0.03135(3)
O6_2 O -0.06426(14) 0.3426(2) -0.13799(6)
H1A H 0.011(3) 0.302(5) 0.0844(10)
H2A H -0.118(2) 0.376(3) 0.0395(12)
Na1_2 Na 1.15968(8) 0.42678(10) -0.03135(3)
loop_
_geom_bond_atom_site_label_1
_geom_bond_atom_site_label_2
_geom_bond_site_symmetry_1
_geom_bond_site_symmetry_2
Na1 O1 1_555 1_555
O1 H1 1_555 1_555
H2 O1 1_555 1_555
O2 Na1 1_555 1_555
H3 O2 1_555 1_555
H4 O2 1_555 1_555
O3 Na1 1_555 1_555
H5 O3 1_555 1_555
H6 O3 1_555 1_555
N1 S1 1_555 1_555
S1 O4 1_555 1_555
S2 N1 1_555 1_555
O4 Na1 1_555 1_555
O5 S1 1_555 1_555
O6 S2 1_555 1_555
O7 S2 1_555 1_555
N2 O8 1_555 1_555
O9 N2 1_555 1_555
N3 O10 1_555 1_555
O11 N3 1_555 1_555
C1 S1 1_555 1_555
C2 C1 1_555 1_555
H7 C2 1_555 1_555
C3 C2 1_555 1_555
H8 C3 1_555 1_555
C4 N2 1_555 1_555
C5 C4 1_555 1_555
H9 C5 1_555 1_555
C6 C1 1_555 1_555
H10 C6 1_555 1_555
C7 S2 1_555 1_555
C8 C7 1_555 1_555
H11 C8 1_555 1_555
C9 C8 1_555 1_555
H12 C9 1_555 1_555
C10 N3 1_555 1_555
C11 C10 1_555 1_555
H13 C11 1_555 1_555
C12 C7 1_555 1_555
H14 C12 1_555 1_555
O1A Na1 1_555 1_555
Na1A O1 1_555 1_555
O6_2 Na1 1_555 1_555
H1A O1A 1_555 1_555
H2A O1A 1_555 1_555
Na1_2 O6 1_555 1_555
C3 C4 1_555 1_555
C5 C6 1_555 1_555
C9 C10 1_555 1_555
C11 C12 1_555 1_555

#END
