
#######################################################################
#
#                 Cambridge Crystallographic Data Centre
#                                CCDC 
#
#######################################################################
#
# If this CIF has been generated from an entry in the Cambridge 
# Structural Database, then it will include bibliographic, chemical, 
# crystal, experimental, refinement or atomic coordinate data resulting 
# from the CCDC's data processing and validation procedures.
#
#######################################################################

data_XAMWUD
_symmetry_cell_setting           orthorhombic
_symmetry_space_group_name_H-M   'P c c n'
_symmetry_Int_Tables_number      56
_space_group_name_Hall           '-P 2ab 2ac'
loop_
_symmetry_equiv_pos_site_id
_symmetry_equiv_pos_as_xyz
1 x,y,z
2 1/2-x,1/2-y,z
3 -x,1/2+y,1/2-z
4 1/2+x,-y,1/2-z
5 -x,-y,-z
6 1/2+x,1/2+y,-z
7 x,1/2-y,1/2+z
8 1/2-x,y,1/2+z
_cell_length_a                   11.448(2)
_cell_length_b                   33.397(5)
_cell_length_c                   7.4836(15)
_cell_angle_alpha                90
_cell_angle_beta                 90
_cell_angle_gamma                90
_cell_volume                     2861.2
loop_
_atom_site_label
_atom_site_type_symbol
_atom_site_fract_x
_atom_site_fract_y
_atom_site_fract_z
Na1 Na -0.24960(7) -0.48960(2) 0.11288(10)
O1 O -0.12643(14) -0.50311(5) -0.1337(2)
H1 H -0.106(2) -0.5257(6) -0.139(4)
H2 H -0.070(2) -0.4908(8) -0.155(4)
N1 N -0.45518(14) -0.44411(5) 0.0327(2)
S1 S -0.41077(4) -0.422350(14) -0.14281(7)
S2 S -0.58546(4) -0.441690(14) 0.10487(7)
O2 O -0.29414(13) -0.43769(4) -0.1718(2)
O3 O -0.48937(14) -0.42426(4) -0.29249(19)
O4 O -0.59063(12) -0.46967(4) 0.2516(2)
O5 O -0.67375(12) -0.44621(4) -0.0301(2)
C1 C -0.39523(17) -0.37099(6) -0.0899(3)
C2 C -0.48009(19) -0.34446(6) -0.1455(3)
H3 H -0.5428 -0.3535 -0.2184
C3 C -0.4735(2) -0.30464(6) -0.0947(3)
H4 H -0.5306 -0.2858 -0.1326
C4 C -0.3820(2) -0.29324(6) 0.0123(3)
C5 C -0.2962(2) -0.31889(6) 0.0693(3)
H5 H -0.2339 -0.3097 0.1424
C6 C -0.30300(18) -0.35854(6) 0.0174(3)
H6 H -0.2451 -0.3771 0.0547
C7 C -0.60399(17) -0.39314(6) 0.1952(3)
C8 C -0.69914(18) -0.37037(6) 0.1446(3)
H7 H -0.7561 -0.3811 0.0657
C9 C -0.71068(19) -0.33157(6) 0.2104(3)
H8 H -0.7759 -0.3155 0.1789
C10 C -0.6257(2) -0.31733(6) 0.3216(3)
C11 C -0.5304(2) -0.33938(7) 0.3752(3)
H9 H -0.4733 -0.3284 0.4532
C12 C -0.52048(19) -0.37817(6) 0.3115(3)
H10 H -0.4567 -0.3945 0.3475
F1 F -0.37824(13) -0.25458(4) 0.0674(2)
F2 F -0.63594(14) -0.27917(4) 0.3833(2)
O1G O -0.37357(14) -0.50311(5) 0.3663(2)
O2G O -0.20586(13) -0.43769(4) 0.3282(2)
Na1G Na -0.25040(7) -0.48960(2) -0.38712(10)
O4C O -0.09063(12) -0.53033(4) 0.2484(2)
O5D O -0.32625(12) -0.55379(4) 0.0301(2)
H1G H -0.394(2) -0.5257(6) 0.361(4)
H2G H -0.430(2) -0.4908(8) 0.345(4)
Na1C Na -0.74960(7) -0.51040(2) 0.38712(10)
Na1D Na -0.75040(7) -0.51040(2) -0.11288(10)
loop_
_geom_bond_atom_site_label_1
_geom_bond_atom_site_label_2
_geom_bond_site_symmetry_1
_geom_bond_site_symmetry_2
Na1 O1 1_555 1_555
O1 H1 1_555 1_555
H2 O1 1_555 1_555
N1 Na1 1_555 1_555
S1 N1 1_555 1_555
S2 N1 1_555 1_555
O2 Na1 1_555 1_555
O3 S1 1_555 1_555
O4 S2 1_555 1_555
O5 S2 1_555 1_555
C1 S1 1_555 1_555
C2 C1 1_555 1_555
H3 C2 1_555 1_555
C3 C2 1_555 1_555
H4 C3 1_555 1_555
C4 C3 1_555 1_555
C5 C4 1_555 1_555
H5 C5 1_555 1_555
C6 C1 1_555 1_555
H6 C6 1_555 1_555
C7 S2 1_555 1_555
C8 C7 1_555 1_555
H7 C8 1_555 1_555
C9 C8 1_555 1_555
H8 C9 1_555 1_555
C10 C9 1_555 1_555
C11 C10 1_555 1_555
H9 C11 1_555 1_555
C12 C7 1_555 1_555
H10 C12 1_555 1_555
F1 C4 1_555 1_555
F2 C10 1_555 1_555
O1G Na1 1_555 1_555
O2G Na1 1_555 1_555
Na1G O1 1_555 1_555
O4C Na1 1_555 1_555
O5D Na1 1_555 1_555
H1G O1G 1_555 1_555
H2G O1G 1_555 1_555
Na1C O4 1_555 1_555
Na1D O5 1_555 1_555
S1 O2 1_555 1_555
O2 Na1G 1_555 1_555
C5 C6 1_555 1_555
C11 C12 1_555 1_555

#END
