
#######################################################################
#
#                 Cambridge Crystallographic Data Centre
#                                CCDC 
#
#######################################################################
#
# If this CIF has been generated from an entry in the Cambridge 
# Structural Database, then it will include bibliographic, chemical, 
# crystal, experimental, refinement or atomic coordinate data resulting 
# from the CCDC's data processing and validation procedures.
#
#######################################################################

data_XAMWOX
_symmetry_cell_setting           monoclinic
_symmetry_space_group_name_H-M   'P 21/c'
_symmetry_Int_Tables_number      14
_space_group_name_Hall           '-P 2ybc'
loop_
_symmetry_equiv_pos_site_id
_symmetry_equiv_pos_as_xyz
1 x,y,z
2 -x,1/2+y,1/2-z
3 -x,-y,-z
4 x,1/2-y,1/2+z
_cell_length_a                   18.189(3)
_cell_length_b                   6.1838(10)
_cell_length_c                   15.105(2)
_cell_angle_alpha                90
_cell_angle_beta                 103.536(10)
_cell_angle_gamma                90
_cell_volume                     1651.78
loop_
_atom_site_label
_atom_site_type_symbol
_atom_site_fract_x
_atom_site_fract_y
_atom_site_fract_z
Na1 Na -0.46478(4) -0.12316(13) -0.65402(5)
O1 O -0.45655(9) -0.4904(3) -0.70834(11)
H1 H -0.4136(10) -0.500(5) -0.7077(19)
H2 H -0.4582(16) -0.578(4) -0.6715(16)
O2 O -0.57684(9) -0.2328(3) -0.60352(12)
H3 H -0.6132(12) -0.160(4) -0.613(2)
H4 H -0.5921(16) -0.350(3) -0.615(2)
O3 O -0.48412(9) 0.2134(3) -0.58267(12)
H5 H -0.5262(11) 0.245(5) -0.586(2)
H6 H -0.4652(14) 0.218(4) -0.5307(12)
N1 N -0.34682(9) -0.3582(3) -0.36250(12)
S1 S -0.31899(3) -0.23185(9) -0.44141(4)
S2 S -0.31133(3) -0.31991(9) -0.25645(3)
O4 O -0.38122(9) -0.2488(3) -0.51933(11)
O5 O -0.29072(9) -0.0185(2) -0.41424(12)
O6 O -0.35297(8) -0.4632(3) -0.21090(10)
O7 O -0.30913(8) -0.0952(3) -0.23078(11)
C1 C -0.24304(11) -0.3804(3) -0.46545(14)
C2 C -0.17016(12) -0.3001(4) -0.43921(15)
H7 H -0.1610 -0.1631 -0.4103
C3 C -0.11071(13) -0.4210(4) -0.45552(16)
H8 H -0.0602 -0.3692 -0.4382
C4 C -0.12670(13) -0.6176(4) -0.49739(16)
C5 C -0.19829(14) -0.7007(4) -0.52477(16)
H9 H -0.2069 -0.8376 -0.5539
C6 C -0.25774(12) -0.5789(4) -0.50863(15)
H10 H -0.3082 -0.6310 -0.5270
C7 C -0.21660(11) -0.4096(4) -0.23359(13)
C8 C -0.16012(13) -0.2700(4) -0.19068(15)
H11 H -0.1724 -0.1299 -0.1728
C9 C -0.08539(14) -0.3363(5) -0.17396(17)
H12 H -0.0456 -0.2441 -0.1438
C10 C -0.07062(13) -0.5375(5) -0.20206(17)
C11 C -0.12531(14) -0.6800(4) -0.24428(17)
H13 H -0.1122 -0.8192 -0.2624
C12 C -0.20000(13) -0.6159(4) -0.25978(15)
H14 H -0.2395 -0.7115 -0.2879
F1 F -0.06780(9) -0.7365(3) -0.51259(11)
F2 F 0.00290(8) -0.6013(3) -0.18700(12)
O1A O -0.54345(9) 0.0096(3) -0.79166(11)
Na1A Na -0.53522(4) -0.62316(13) -0.84598(5)
O6C O -0.35297(8) -0.0368(3) -0.71090(10)
H1A H -0.5864(10) 0.000(5) -0.7923(19)
H2A H -0.5418(16) -0.078(4) -0.8285(16)
Na1C Na -0.46478(4) -0.37684(13) -0.15402(5)
loop_
_geom_bond_atom_site_label_1
_geom_bond_atom_site_label_2
_geom_bond_site_symmetry_1
_geom_bond_site_symmetry_2
Na1 O1 1_555 1_555
O1 H1 1_555 1_555
H2 O1 1_555 1_555
O2 Na1 1_555 1_555
H3 O2 1_555 1_555
H4 O2 1_555 1_555
O3 Na1 1_555 1_555
H5 O3 1_555 1_555
H6 O3 1_555 1_555
N1 S1 1_555 1_555
S1 O4 1_555 1_555
S2 N1 1_555 1_555
O4 Na1 1_555 1_555
O5 S1 1_555 1_555
O6 S2 1_555 1_555
O7 S2 1_555 1_555
C1 S1 1_555 1_555
C2 C1 1_555 1_555
H7 C2 1_555 1_555
C3 C2 1_555 1_555
H8 C3 1_555 1_555
C4 C3 1_555 1_555
C5 C4 1_555 1_555
H9 C5 1_555 1_555
C6 C1 1_555 1_555
H10 C6 1_555 1_555
C7 S2 1_555 1_555
C8 C7 1_555 1_555
H11 C8 1_555 1_555
C9 C8 1_555 1_555
H12 C9 1_555 1_555
C10 C9 1_555 1_555
C11 C10 1_555 1_555
H13 C11 1_555 1_555
C12 C7 1_555 1_555
H14 C12 1_555 1_555
F1 C4 1_555 1_555
F2 C10 1_555 1_555
O1A Na1 1_555 1_555
Na1A O1 1_555 1_555
O6C Na1 1_555 1_555
H1A O1A 1_555 1_555
H2A O1A 1_555 1_555
Na1C O6 1_555 1_555
C5 C6 1_555 1_555
C11 C12 1_555 1_555

#END
