
#######################################################################
#
#                 Cambridge Crystallographic Data Centre
#                                CCDC 
#
#######################################################################
#
# If this CIF has been generated from an entry in the Cambridge 
# Structural Database, then it will include bibliographic, chemical, 
# crystal, experimental, refinement or atomic coordinate data resulting 
# from the CCDC's data processing and validation procedures.
#
#######################################################################

data_XAMXAK
_symmetry_cell_setting           monoclinic
_symmetry_space_group_name_H-M   'P 21/c'
_symmetry_Int_Tables_number      14
_space_group_name_Hall           '-P 2ybc'
loop_
_symmetry_equiv_pos_site_id
_symmetry_equiv_pos_as_xyz
1 x,y,z
2 -x,1/2+y,1/2-z
3 -x,-y,-z
4 x,1/2-y,1/2+z
_cell_length_a                   19.995(3)
_cell_length_b                   11.395(2)
_cell_length_c                   7.5163(15)
_cell_angle_alpha                90
_cell_angle_beta                 93.75(2)
_cell_angle_gamma                90
_cell_volume                     1708.87
loop_
_atom_site_label
_atom_site_type_symbol
_atom_site_fract_x
_atom_site_fract_y
_atom_site_fract_z
Na1 Na -0.01828(16) 0.2504(3) -0.1143(4)
O1 O 0.0048(3) 0.3711(6) 0.1355(8)
H1 H -0.017(4) 0.422(8) 0.184(12)
H2 H 0.045(4) 0.363(14) 0.16(2)
N1 N -0.0938(3) 0.0431(6) -0.0459(10)
S1 S -0.13145(11) 0.0835(2) 0.1239(3)
S2 S -0.09703(10) -0.0859(2) -0.1238(3)
O2 O -0.1065(3) 0.1994(6) 0.1667(9)
O3 O -0.1302(3) -0.0010(6) 0.2674(8)
O4 O -0.0493(3) -0.0883(6) -0.2594(8)
O5 O -0.0901(3) -0.1774(5) 0.0082(9)
C1 C -0.2171(4) 0.1028(8) 0.0544(11)
C2 C -0.2644(4) 0.0218(8) 0.0972(13)
H3 H -0.2509 -0.0450 0.1663
C3 C -0.3316(5) 0.0359(9) 0.0411(14)
H4 H -0.3642 -0.0203 0.0705
C4 C -0.3495(4) 0.1342(8) -0.0587(13)
C5 C -0.3030(5) 0.2147(9) -0.1079(14)
H5 H -0.3160 0.2801 -0.1807
C6 C -0.2362(5) 0.1977(9) -0.0479(12)
H6 H -0.2034 0.2531 -0.0787
C7 C -0.1783(4) -0.1017(8) -0.2323(11)
C8 C -0.2169(4) -0.1979(8) -0.1936(12)
H7 H -0.1993 -0.2583 -0.1169
C9 C -0.2820(5) -0.2039(9) -0.2697(13)
H8 H -0.3096 -0.2693 -0.2462
C10 C -0.3066(4) -0.1140(8) -0.3806(12)
C11 C -0.2677(5) -0.0223(9) -0.4197(13)
H9 H -0.2850 0.0371 -0.4986
C12 C -0.2016(4) -0.0138(8) -0.3446(12)
H10 H -0.1739 0.0509 -0.3707
I1 I -0.45071(4) 0.16091(8) -0.13704(11)
I2 I -0.40676(3) -0.12116(8) -0.48203(11)
O1C O 0.0048(3) 0.1289(6) -0.3645(8)
O2C O -0.1065(3) 0.3006(6) -0.3333(9)
Na1C Na -0.01828(16) 0.2496(3) 0.3857(4)
O4A O 0.0493(3) 0.4117(6) -0.2406(8)
O5B O 0.0901(3) 0.1774(5) -0.0082(9)
H1C H -0.017(4) 0.078(8) -0.316(12)
H2C H 0.045(4) 0.137(14) -0.34(2)
Na1A Na 0.01828(16) -0.2496(3) -0.3857(4)
Na1B Na 0.01828(16) -0.2504(3) 0.1143(4)
loop_
_geom_bond_atom_site_label_1
_geom_bond_atom_site_label_2
_geom_bond_site_symmetry_1
_geom_bond_site_symmetry_2
Na1 O1 1_555 1_555
O1 H1 1_555 1_555
H2 O1 1_555 1_555
N1 Na1 1_555 1_555
S1 N1 1_555 1_555
S2 N1 1_555 1_555
O2 Na1 1_555 1_555
O3 S1 1_555 1_555
O4 S2 1_555 1_555
O5 S2 1_555 1_555
C1 S1 1_555 1_555
C2 C1 1_555 1_555
H3 C2 1_555 1_555
C3 C2 1_555 1_555
H4 C3 1_555 1_555
C4 C3 1_555 1_555
C5 C4 1_555 1_555
H5 C5 1_555 1_555
C6 C1 1_555 1_555
H6 C6 1_555 1_555
C7 S2 1_555 1_555
C8 C7 1_555 1_555
H7 C8 1_555 1_555
C9 C8 1_555 1_555
H8 C9 1_555 1_555
C10 C9 1_555 1_555
C11 C10 1_555 1_555
H9 C11 1_555 1_555
C12 C7 1_555 1_555
H10 C12 1_555 1_555
I1 C4 1_555 1_555
I2 C10 1_555 1_555
O1C Na1 1_555 1_555
O2C Na1 1_555 1_555
Na1C O1 1_555 1_555
O4A Na1 1_555 1_555
O5B Na1 1_555 1_555
H1C O1C 1_555 1_555
H2C O1C 1_555 1_555
Na1A O4 1_555 1_555
Na1B O5 1_555 1_555
S1 O2 1_555 1_555
O2 Na1C 1_555 1_555
C5 C6 1_555 1_555
C11 C12 1_555 1_555

#END
