
#######################################################################
#
#                 Cambridge Crystallographic Data Centre
#                                CCDC 
#
#######################################################################
#
# If this CIF has been generated from an entry in the Cambridge 
# Structural Database, then it will include bibliographic, chemical, 
# crystal, experimental, refinement or atomic coordinate data resulting 
# from the CCDC's data processing and validation procedures.
#
#######################################################################

data_XAMXEO
_symmetry_cell_setting           monoclinic
_symmetry_space_group_name_H-M   'P 21/c'
_symmetry_Int_Tables_number      14
_space_group_name_Hall           '-P 2ybc'
loop_
_symmetry_equiv_pos_site_id
_symmetry_equiv_pos_as_xyz
1 x,y,z
2 -x,1/2+y,1/2-z
3 -x,-y,-z
4 x,1/2-y,1/2+z
_cell_length_a                   6.0592(15)
_cell_length_b                   35.404(6)
_cell_length_c                   7.3018(15)
_cell_angle_alpha                90
_cell_angle_beta                 96.21(2)
_cell_angle_gamma                90
_cell_volume                     1557.19
loop_
_atom_site_label
_atom_site_type_symbol
_atom_site_fract_x
_atom_site_fract_y
_atom_site_fract_z
O1 O 0.0171(5) -0.24492(8) 0.2425(5)
H1 H -0.093(6) -0.2575(11) 0.236(6)
H2 H -0.017(9) -0.2231(10) 0.253(8)
Ag1 Ag 0.28913(6) -0.251230(9) 0.52134(5)
N1 N 0.5099(5) -0.30282(8) 0.5611(4)
S1 S 0.63858(15) -0.31551(3) 0.39031(14)
S2 S 0.54878(16) -0.32282(3) 0.76026(13)
O2 O 0.6144(5) -0.28403(8) 0.2634(4)
O3 O 0.8600(4) -0.32907(8) 0.4434(4)
O4 O 0.3873(5) -0.30567(8) 0.8650(4)
O5 O 0.7776(5) -0.32211(8) 0.8379(4)
Cl1 Cl 0.0594(2) -0.45090(3) 0.07339(17)
Cl2 Cl 0.2626(2) -0.49066(3) 0.63277(19)
C1 C 0.4823(6) -0.35334(11) 0.2851(5)
C2 C 0.5750(7) -0.38911(11) 0.2845(6)
H3 H 0.7256 -0.3930 0.3315
C3 C 0.4450(7) -0.41913(12) 0.2145(6)
H4 H 0.5057 -0.4439 0.2128
C4 C 0.2270(7) -0.41268(11) 0.1475(6)
C5 C 0.1349(7) -0.37680(11) 0.1436(5)
H5 H -0.0148 -0.3728 0.0938
C6 C 0.2645(6) -0.34690(11) 0.2135(6)
H6 H 0.2045 -0.3221 0.2124
C7 C 0.4724(6) -0.37071(10) 0.7288(5)
C8 C 0.6276(7) -0.39902(11) 0.7626(6)
H7 H 0.7772 -0.3930 0.8051
C9 C 0.5638(7) -0.43642(11) 0.7342(6)
H8 H 0.6679 -0.4563 0.7594
C10 C 0.3466(7) -0.44413(11) 0.6686(6)
C11 C 0.1900(7) -0.41581(11) 0.6330(6)
H9 H 0.0413 -0.4219 0.5876
C12 C 0.2526(7) -0.37877(11) 0.6642(6)
H10 H 0.1473 -0.3590 0.6419
O1C O 0.0171(5) -0.25508(8) 0.7425(5)
H1C H -0.093(6) -0.2425(11) 0.736(6)
H2C H -0.017(9) -0.2769(10) 0.753(8)
Ag1C Ag 0.28913(6) -0.248770(9) 1.02134(5)
O2C O 0.6144(5) -0.21597(8) 0.7634(4)
Ag1C_2 Ag 0.28913(6) -0.248770(9) 0.02134(5)
O4C O 0.3873(5) -0.19433(8) 0.3650(4)
loop_
_geom_bond_atom_site_label_1
_geom_bond_atom_site_label_2
_geom_bond_site_symmetry_1
_geom_bond_site_symmetry_2
O1 H1 1_555 1_555
H2 O1 1_555 1_555
Ag1 O1 1_555 1_555
N1 Ag1 1_555 1_555
S1 N1 1_555 1_555
S2 N1 1_555 1_555
O2 S1 1_555 1_555
O3 S1 1_555 1_555
O4 S2 1_555 1_555
O5 S2 1_555 1_555
Cl1 C4 1_555 1_555
Cl2 C10 1_555 1_555
C1 S1 1_555 1_555
C2 C1 1_555 1_555
H3 C2 1_555 1_555
C3 C2 1_555 1_555
H4 C3 1_555 1_555
C4 C3 1_555 1_555
C5 C4 1_555 1_555
H5 C5 1_555 1_555
C6 C1 1_555 1_555
H6 C6 1_555 1_555
C7 S2 1_555 1_555
C8 C7 1_555 1_555
H7 C8 1_555 1_555
C9 C8 1_555 1_555
H8 C9 1_555 1_555
C10 C9 1_555 1_555
C11 C10 1_555 1_555
H9 C11 1_555 1_555
C12 C7 1_555 1_555
H10 C12 1_555 1_555
O1C Ag1 1_555 1_555
H1C O1C 1_555 1_555
H2C O1C 1_555 1_555
Ag1C O4 1_555 1_555
O2C Ag1 1_555 1_555
Ag1C_2 O1 1_555 1_555
O4C Ag1 1_555 1_555
O2 Ag1C_2 1_555 1_555
C5 C6 1_555 1_555
C11 C12 1_555 1_555
O1C Ag1C 1_555 1_555

#END
