
#######################################################################
#
#                 Cambridge Crystallographic Data Centre
#                                CCDC 
#
#######################################################################
#
# If this CIF has been generated from an entry in the Cambridge 
# Structural Database, then it will include bibliographic, chemical, 
# crystal, experimental, refinement or atomic coordinate data resulting 
# from the CCDC's data processing and validation procedures.
#
#######################################################################

data_XAMXIS
_symmetry_cell_setting           monoclinic
_symmetry_space_group_name_H-M   'P 21/c'
_symmetry_Int_Tables_number      14
_space_group_name_Hall           '-P 2ybc'
loop_
_symmetry_equiv_pos_site_id
_symmetry_equiv_pos_as_xyz
1 x,y,z
2 -x,1/2+y,1/2-z
3 -x,-y,-z
4 x,1/2-y,1/2+z
_cell_length_a                   6.0334(15)
_cell_length_b                   36.583(5)
_cell_length_c                   7.3264(15)
_cell_angle_alpha                90
_cell_angle_beta                 95.71(2)
_cell_angle_gamma                90
_cell_volume                     1609.06
loop_
_atom_site_label
_atom_site_type_symbol
_atom_site_fract_x
_atom_site_fract_y
_atom_site_fract_z
Ag1 Ag 0.34323(7) -0.251160(12) -0.31566(6)
O1 O 0.0723(6) -0.24457(11) -0.5919(6)
H1 H -0.027(10) -0.2585(17) -0.599(11)
H2 H 0.026(12) -0.2245(13) -0.593(11)
N1 N 0.5639(7) -0.30124(11) -0.2742(6)
S1 S 0.69435(19) -0.31298(3) -0.44618(17)
S2 S 0.6020(2) -0.32089(3) -0.07729(17)
O2 O 0.6679(6) -0.28249(9) -0.5719(5)
O3 O 0.9168(5) -0.32537(10) -0.3950(5)
O4 O 0.4396(6) -0.30441(9) 0.0289(5)
O5 O 0.8319(6) -0.32052(10) -0.0020(5)
C1 C 0.5429(8) -0.34991(13) -0.5511(7)
C2 C 0.6354(9) -0.38444(14) -0.5497(7)
H3 H 0.7860 -0.3880 -0.5018
C3 C 0.5088(9) -0.41382(14) -0.6180(8)
H4 H 0.5703 -0.4377 -0.6166
C4 C 0.2898(8) -0.40761(14) -0.6889(7)
C5 C 0.1976(8) -0.37323(14) -0.6954(7)
H5 H 0.0488 -0.3695 -0.7476
C6 C 0.3245(8) -0.34409(14) -0.6248(7)
H6 H 0.2627 -0.3202 -0.6267
C7 C 0.5221(8) -0.36715(13) -0.1118(7)
C8 C 0.6789(8) -0.39502(14) -0.0793(7)
H7 H 0.8275 -0.3895 -0.0324
C9 C 0.6160(8) -0.43055(14) -0.1157(7)
H8 H 0.7205 -0.4499 -0.0935
C10 C 0.4006(9) -0.43789(13) -0.1847(7)
C11 C 0.2434(9) -0.41048(14) -0.2148(7)
H9 H 0.0947 -0.4162 -0.2610
C12 C 0.3051(9) -0.37461(14) -0.1770(8)
H10 H 0.1991 -0.3554 -0.1958
Br1 Br 0.11115(10) -0.448430(15) -0.76685(9)
Br2 Br 0.31117(11) -0.486530(15) -0.24170(9)
Ag1C Ag 0.34323(7) -0.248840(12) 0.18434(6)
O1C O 0.0723(6) -0.25543(11) -0.0919(6)
Ag1C_2 Ag 0.34323(7) -0.248840(12) -0.81566(6)
O4C O 0.4396(6) -0.19559(9) -0.4711(5)
O2C O 0.6679(6) -0.21751(9) -0.0719(5)
H1C H -0.027(10) -0.2415(17) -0.099(11)
H2C H 0.026(12) -0.2755(13) -0.093(11)
loop_
_geom_bond_atom_site_label_1
_geom_bond_atom_site_label_2
_geom_bond_site_symmetry_1
_geom_bond_site_symmetry_2
Ag1 O1 1_555 1_555
O1 H1 1_555 1_555
H2 O1 1_555 1_555
N1 Ag1 1_555 1_555
S1 N1 1_555 1_555
S2 N1 1_555 1_555
O2 S1 1_555 1_555
O3 S1 1_555 1_555
O4 S2 1_555 1_555
O5 S2 1_555 1_555
C1 S1 1_555 1_555
C2 C1 1_555 1_555
H3 C2 1_555 1_555
C3 C2 1_555 1_555
H4 C3 1_555 1_555
C4 C3 1_555 1_555
C5 C4 1_555 1_555
H5 C5 1_555 1_555
C6 C1 1_555 1_555
H6 C6 1_555 1_555
C7 S2 1_555 1_555
C8 C7 1_555 1_555
H7 C8 1_555 1_555
C9 C8 1_555 1_555
H8 C9 1_555 1_555
C10 C9 1_555 1_555
C11 C10 1_555 1_555
H9 C11 1_555 1_555
C12 C7 1_555 1_555
H10 C12 1_555 1_555
Br1 C4 1_555 1_555
Br2 C10 1_555 1_555
Ag1C O4 1_555 1_555
O1C Ag1 1_555 1_555
Ag1C_2 O1 1_555 1_555
O4C Ag1 1_555 1_555
O2C Ag1 1_555 1_555
H1C O1C 1_555 1_555
H2C O1C 1_555 1_555
O2 Ag1C_2 1_555 1_555
C5 C6 1_555 1_555
C11 C12 1_555 1_555
Ag1C O1C 1_555 1_555

#END
