
#######################################################################
#
#                 Cambridge Crystallographic Data Centre
#                                CCDC 
#
#######################################################################
#
# If this CIF has been generated from an entry in the Cambridge 
# Structural Database, then it will include bibliographic, chemical, 
# crystal, experimental, refinement or atomic coordinate data resulting 
# from the CCDC's data processing and validation procedures.
#
#######################################################################

data_XANBIX
_symmetry_cell_setting           monoclinic
_symmetry_space_group_name_H-M   'C 2/c'
_symmetry_Int_Tables_number      15
_space_group_name_Hall           '-C 2yn'
loop_
_symmetry_equiv_pos_site_id
_symmetry_equiv_pos_as_xyz
1 x,y,z
2 1/2+x,1/2+y,z
3 x,-y,1/2+z
4 1/2+x,1/2-y,1/2+z
5 -x,-y,-z
6 1/2-x,1/2-y,-z
7 -x,y,1/2-z
8 1/2-x,1/2+y,1/2-z
_cell_length_a                   18.1987(2)
_cell_length_b                   13.58770(10)
_cell_length_c                   15.6854(2)
_cell_angle_alpha                90
_cell_angle_beta                 124.6640(10)
_cell_angle_gamma                90
_cell_volume                     3190.21
loop_
_atom_site_label
_atom_site_type_symbol
_atom_site_fract_x
_atom_site_fract_y
_atom_site_fract_z
Hg1 Hg 0.00797(2) 0.81518(2) 0.38989(3)
I1 I -0.13410(4) 0.86589(4) 0.20350(5)
I2 I 0.12145(5) 0.88636(5) 0.57684(5)
C1 C 0.1219(6) 0.6262(6) 0.4161(8)
H1 H 0.1608 0.6780 0.4308
C2 C 0.1491(6) 0.5309(7) 0.4115(8)
H2 H 0.2046 0.5204 0.4231
C3 C 0.0931(6) 0.4540(7) 0.3900(8)
H3 H 0.1091 0.3903 0.3851
C4 C 0.0115(5) 0.4725(6) 0.3755(6)
C5 C -0.0114(5) 0.5702(6) 0.3838(6)
C6 C -0.0501(6) 0.3962(6) 0.3540(7)
H4 H -0.0357 0.3314 0.3503
C7 C -0.1281(6) 0.4165(6) 0.3391(8)
H5 H -0.1680 0.3655 0.3233
C8 C -0.1518(5) 0.5135(6) 0.3465(6)
H6 H -0.2074 0.5262 0.3338
C9 C -0.0924(5) 0.5891(6) 0.3725(6)
C10 C -0.1878(5) 0.7090(6) 0.3755(7)
H7 H -0.2063 0.6583 0.4031
H8 H -0.2332 0.7147 0.3016
C11 C -0.1782(6) 0.8038(6) 0.4269(7)
H9 H -0.1426 0.8489 0.4166
H10 H -0.2364 0.8331 0.3979
C12 C -0.1130(6) 0.8724(6) 0.5932(7)
H11 H -0.1649 0.9146 0.5648
H12 H -0.0669 0.9082 0.5932
C13 C -0.0795(6) 0.8414(7) 0.7018(7)
H13 H -0.0694 0.8996 0.7430
H14 H -0.1251 0.8022 0.6997
N1 N 0.0465(4) 0.6461(5) 0.4011(6)
O1 O -0.1038(4) 0.6828(4) 0.3931(5)
O2 O 0.0000 0.7865(6) 0.7500
O3 O -0.1359(4) 0.7850(4) 0.5333(5)
Hg1F Hg -0.00797(2) 0.81518(2) 0.11011(3)
I1F I 0.13410(4) 0.86589(4) 0.29650(5)
C13F C 0.0795(6) 0.8414(7) 0.7982(7)
C12F C 0.1130(6) 0.8724(6) 0.9068(7)
H11F H 0.1649 0.9146 0.9352
H12F H 0.0669 0.9082 0.9068
O3F O 0.1359(4) 0.7850(4) 0.9667(5)
C11F C 0.1782(6) 0.8038(6) 1.0731(7)
C10F C 0.1878(5) 0.7090(6) 1.1245(7)
H7F H 0.2063 0.6583 1.0969
H8F H 0.2332 0.7147 1.1984
O1F O 0.1038(4) 0.6828(4) 1.1069(5)
Hg1F_2 Hg -0.00797(2) 0.81518(2) 1.11011(3)
N1F N -0.0465(4) 0.6461(5) 1.0989(6)
C1F C -0.1219(6) 0.6262(6) 1.0839(8)
H1F H -0.1608 0.6780 1.0692
C2F C -0.1491(6) 0.5309(7) 1.0885(8)
H2F H -0.2046 0.5204 1.0769
C3F C -0.0931(6) 0.4540(7) 1.1100(8)
H3F H -0.1091 0.3903 1.1149
C4F C -0.0115(5) 0.4725(6) 1.1245(6)
C5F C 0.0114(5) 0.5702(6) 1.1162(6)
C9F C 0.0924(5) 0.5891(6) 1.1275(6)
C8F C 0.1518(5) 0.5135(6) 1.1535(6)
C7F C 0.1281(6) 0.4165(6) 1.1609(8)
C6F C 0.0501(6) 0.3962(6) 1.1460(7)
H4F H 0.0357 0.3314 1.1497
H5F H 0.1680 0.3655 1.1767
H6F H 0.2074 0.5262 1.1662
H9F H 0.1426 0.8489 1.0834
H10F H 0.2364 0.8331 1.1021
H13F H 0.0694 0.8996 0.7570
H14F H 0.1251 0.8022 0.8003
I2F I -0.12145(5) 0.88636(5) -0.07684(5)
N1F_2 N -0.0465(4) 0.6461(5) 0.0989(6)
O1F_2 O 0.1038(4) 0.6828(4) 0.1069(5)
loop_
_geom_bond_atom_site_label_1
_geom_bond_atom_site_label_2
_geom_bond_site_symmetry_1
_geom_bond_site_symmetry_2
Hg1 I1 1_555 1_555
I1 Hg1F 1_555 1_555
I2 Hg1 1_555 1_555
C1 H1 1_555 1_555
C2 C1 1_555 1_555
H2 C2 1_555 1_555
C3 C2 1_555 1_555
H3 C3 1_555 1_555
C4 C3 1_555 1_555
C5 C4 1_555 1_555
C6 C4 1_555 1_555
H4 C6 1_555 1_555
C7 C6 1_555 1_555
H5 C7 1_555 1_555
C8 C7 1_555 1_555
H6 C8 1_555 1_555
C9 C5 1_555 1_555
C10 H7 1_555 1_555
H8 C10 1_555 1_555
C11 C10 1_555 1_555
H9 C11 1_555 1_555
H10 C11 1_555 1_555
C12 H11 1_555 1_555
H12 C12 1_555 1_555
C13 C12 1_555 1_555
H13 C13 1_555 1_555
H14 C13 1_555 1_555
N1 Hg1 1_555 1_555
O1 Hg1 1_555 1_555
O2 C13 1_555 1_555
O3 C11 1_555 1_555
Hg1F I1F 1_555 1_555
I1F Hg1 1_555 1_555
C13F O2 1_555 1_555
C12F C13F 1_555 1_555
H11F C12F 1_555 1_555
H12F C12F 1_555 1_555
O3F C12F 1_555 1_555
C11F O3F 1_555 1_555
C10F C11F 1_555 1_555
H7F C10F 1_555 1_555
H8F C10F 1_555 1_555
O1F C10F 1_555 1_555
Hg1F_2 O1F 1_555 1_555
N1F Hg1F_2 1_555 1_555
C1F N1F 1_555 1_555
H1F C1F 1_555 1_555
C2F C1F 1_555 1_555
H2F C2F 1_555 1_555
C3F C2F 1_555 1_555
H3F C3F 1_555 1_555
C4F C3F 1_555 1_555
C5F N1F 1_555 1_555
C9F O1F 1_555 1_555
C8F C9F 1_555 1_555
C7F C8F 1_555 1_555
C6F C4F 1_555 1_555
H4F C6F 1_555 1_555
H5F C7F 1_555 1_555
H6F C8F 1_555 1_555
H9F C11F 1_555 1_555
H10F C11F 1_555 1_555
H13F C13F 1_555 1_555
H14F C13F 1_555 1_555
I2F Hg1F 1_555 1_555
N1F_2 Hg1F 1_555 1_555
O1F_2 Hg1F 1_555 1_555
C1 N1 1_555 1_555
C5 N1 1_555 1_555
C8 C9 1_555 1_555
C9 O1 1_555 1_555
C10 O1 1_555 1_555
C12 O3 1_555 1_555
C4F C5F 1_555 1_555
C5F C9F 1_555 1_555
C7F C6F 1_555 1_555

#END
