
#######################################################################
#
#                 Cambridge Crystallographic Data Centre
#                                CCDC 
#
#######################################################################
#
# If this CIF has been generated from an entry in the Cambridge 
# Structural Database, then it will include bibliographic, chemical, 
# crystal, experimental, refinement or atomic coordinate data resulting 
# from the CCDC's data processing and validation procedures.
#
#######################################################################

data_XANBOE
_symmetry_cell_setting           monoclinic
_symmetry_space_group_name_H-M   'P 21/c'
_symmetry_Int_Tables_number      14
_space_group_name_Hall           '-P 2ybc'
loop_
_symmetry_equiv_pos_site_id
_symmetry_equiv_pos_as_xyz
1 x,y,z
2 -x,1/2+y,1/2-z
3 -x,-y,-z
4 x,1/2-y,1/2+z
_cell_length_a                   4.8094(4)
_cell_length_b                   16.2871(13)
_cell_length_c                   6.9107(6)
_cell_angle_alpha                90
_cell_angle_beta                 106.292(6)
_cell_angle_gamma                90
_cell_volume                     519.586
loop_
_atom_site_label
_atom_site_type_symbol
_atom_site_fract_x
_atom_site_fract_y
_atom_site_fract_z
Sn1 Sn 0.97603(10) 0.66820(3) 0.90589(7)
P1 P 0.5856(4) 0.83939(11) 0.7565(3)
O1 O 0.7969(9) 0.7851(3) 0.9114(6)
O2 O 0.2935(9) 0.7946(3) 0.6769(7)
O3 O 0.7052(10) 0.8691(3) 0.5872(7)
C1 C 0.5322(14) 0.9302(4) 0.8892(10)
C2 C 0.6458(14) 1.0059(4) 0.8552(10)
H1 H 0.7471 1.0099 0.7557
C3 C 0.3850(18) 0.9250(5) 1.0380(11)
H2 H 0.3071 0.8740 1.0647
Sn1B Sn 0.02397(10) 1.33180(3) 1.09411(7)
Sn1C Sn -0.02397(10) 0.83180(3) 0.40589(7)
Sn1C_2 Sn 0.97603(10) 0.83180(3) 0.40589(7)
Sn1A Sn 1.02397(10) 1.16820(3) 1.59411(7)
Sn1A_2 Sn 0.02397(10) 1.16820(3) 1.59411(7)
P1B P 0.4144(4) 1.16061(11) 1.2435(3)
O1B O 0.2031(9) 1.2149(3) 1.0886(6)
O2B O 0.7065(9) 1.2054(3) 1.3231(7)
O2C O 1.2935(9) 0.7054(3) 1.1769(7)
O2A O -0.2935(9) 1.2946(3) 0.8231(7)
O3B O 0.2948(10) 1.1309(3) 1.4128(7)
O3C O 0.7052(10) 0.6309(3) 1.0872(7)
O3A O 0.2948(10) 1.3691(3) 0.9128(7)
C1B C 0.4678(14) 1.0698(4) 1.1108(10)
C2B C 0.3542(14) 0.9941(4) 1.1448(10)
H1B H 0.2529 0.9901 1.2443
C3B C 0.6150(18) 1.0750(5) 0.9620(11)
H2B H 0.6929 1.1260 0.9353
loop_
_geom_bond_atom_site_label_1
_geom_bond_atom_site_label_2
_geom_bond_site_symmetry_1
_geom_bond_site_symmetry_2
Sn1 O1 1_555 1_555
P1 O1 1_555 1_555
O2 P1 1_555 1_555
O3 P1 1_555 1_555
C1 P1 1_555 1_555
C2 C1 1_555 1_555
H1 C2 1_555 1_555
C3 C1 1_555 1_555
H2 C3 1_555 1_555
Sn1B O1B 1_555 1_555
Sn1C O2 1_555 1_555
Sn1C_2 O3 1_555 1_555
Sn1A O2B 1_555 1_555
Sn1A_2 O3B 1_555 1_555
P1B O1B 1_555 1_555
O2B P1B 1_555 1_555
O2C Sn1 1_555 1_555
O2A Sn1B 1_555 1_555
O3B P1B 1_555 1_555
O3C Sn1 1_555 1_555
O3A Sn1B 1_555 1_555
C1B P1B 1_555 1_555
C2B C3 1_555 1_555
H1B C2B 1_555 1_555
C3B C2 1_555 1_555
H2B C3B 1_555 1_555
C1B C2B 1_555 1_555
C1B C3B 1_555 1_555

#END
