
#######################################################################
#
#                 Cambridge Crystallographic Data Centre
#                                CCDC 
#
#######################################################################
#
# If this CIF has been generated from an entry in the Cambridge 
# Structural Database, then it will include bibliographic, chemical, 
# crystal, experimental, refinement or atomic coordinate data resulting 
# from the CCDC's data processing and validation procedures.
#
#######################################################################

data_XANCOE
_symmetry_cell_setting           orthorhombic
_symmetry_space_group_name_H-M   'P b c a'
_symmetry_Int_Tables_number      61
_space_group_name_Hall           '-P 2ac 2ab'
loop_
_symmetry_equiv_pos_site_id
_symmetry_equiv_pos_as_xyz
1 x,y,z
2 1/2-x,-y,1/2+z
3 -x,1/2+y,1/2-z
4 1/2+x,1/2-y,-z
5 -x,-y,-z
6 1/2+x,y,1/2-z
7 x,1/2-y,1/2+z
8 1/2-x,1/2+y,z
_cell_length_a                   7.8307(7)
_cell_length_b                   12.3900(11)
_cell_length_c                   15.4824(19)
_cell_angle_alpha                90
_cell_angle_beta                 90
_cell_angle_gamma                90
_cell_volume                     1502.14
loop_
_atom_site_label
_atom_site_type_symbol
_atom_site_fract_x
_atom_site_fract_y
_atom_site_fract_z
Cu1 Cu 0.0000 0.0000 0.5000
O1 O -0.3935(3) 0.16935(15) 0.52058(16)
O2 O -0.2316(3) -0.07014(14) 0.48411(12)
N1 N 0.0677(3) -0.05488(19) 0.38282(14)
C1 C -0.4519(4) 0.0770(2) 0.50965(18)
C2 C 0.0799(5) -0.1960(3) 0.2786(2)
H1 H 0.0596 -0.2678 0.2645
C3 C -0.3778(4) -0.0302(2) 0.49304(16)
C4 C 0.0416(4) -0.1576(2) 0.3602(2)
H2 H -0.0039 -0.2049 0.4007
C5 C 0.1372(4) 0.0120(2) 0.3242(2)
H3 H 0.1577 0.0834 0.3396
C6 C 0.1791(5) -0.0215(3) 0.2419(2)
H4 H 0.2274 0.0265 0.2027
C7 C 0.1487(5) -0.1265(3) 0.2186(2)
H5 H 0.1740 -0.1504 0.1631
O3 O -0.0946(4) 0.16047(19) 0.43017(16)
H6 H -0.036(6) 0.214(4) 0.440(3)
H7 H -0.168(6) 0.171(3) 0.451(3)
O2D O 0.2316(3) 0.07014(14) 0.51589(12)
N1D N -0.0677(3) 0.05488(19) 0.61718(14)
O3D O 0.0946(4) -0.16047(19) 0.56983(16)
C3D C -0.6222(4) 0.0302(2) 0.50696(16)
C1D C -0.5481(4) -0.0770(2) 0.49035(18)
C4D C -0.0416(4) 0.1576(2) 0.6398(2)
C5D C -0.1372(4) -0.0120(2) 0.6758(2)
H6D H 0.036(6) -0.214(4) 0.560(3)
H7D H 0.168(6) -0.171(3) 0.549(3)
O2D_2 O -0.7684(3) 0.07014(14) 0.51589(12)
O1D O -0.6065(3) -0.16935(15) 0.47942(16)
C2D C -0.0799(5) 0.1960(3) 0.7214(2)
H2D H 0.0039 0.2049 0.5993
H3D H -0.1577 -0.0834 0.6604
C6D C -0.1791(5) 0.0215(3) 0.7581(2)
Cu1_2 Cu -1.0000 0.0000 0.5000
H1D H -0.0596 0.2678 0.7355
C7D C -0.1487(5) 0.1265(3) 0.7814(2)
H4D H -0.2274 -0.0265 0.7973
H5D H -0.1740 0.1504 0.8369
loop_
_geom_bond_atom_site_label_1
_geom_bond_atom_site_label_2
_geom_bond_site_symmetry_1
_geom_bond_site_symmetry_2
Cu1 O2 1_555 1_555
O1 C1 1_555 1_555
O2 C3 1_555 1_555
N1 Cu1 1_555 1_555
C1 C3 1_555 1_555
C2 H1 1_555 1_555
C3 C1D 1_555 1_555
C4 N1 1_555 1_555
H2 C4 1_555 1_555
C5 N1 1_555 1_555
H3 C5 1_555 1_555
C6 C5 1_555 1_555
H4 C6 1_555 1_555
C7 C2 1_555 1_555
H5 C7 1_555 1_555
O3 Cu1 1_555 1_555
H6 O3 1_555 1_555
H7 O3 1_555 1_555
O2D Cu1 1_555 1_555
N1D Cu1 1_555 1_555
O3D Cu1 1_555 1_555
C3D C1 1_555 1_555
C1D C3D 1_555 1_555
C4D N1D 1_555 1_555
C5D N1D 1_555 1_555
H6D O3D 1_555 1_555
H7D O3D 1_555 1_555
O2D_2 C3D 1_555 1_555
O1D C1D 1_555 1_555
C2D C4D 1_555 1_555
H2D C4D 1_555 1_555
H3D C5D 1_555 1_555
C6D C5D 1_555 1_555
Cu1_2 O2D_2 1_555 1_555
H1D C2D 1_555 1_555
C7D C2D 1_555 1_555
H4D C6D 1_555 1_555
H5D C7D 1_555 1_555
C2 C4 1_555 1_555
C6 C7 1_555 1_555
C6D C7D 1_555 1_555

#END
