
#######################################################################
#
#                 Cambridge Crystallographic Data Centre
#                                CCDC 
#
#######################################################################
#
# If this CIF has been generated from an entry in the Cambridge 
# Structural Database, then it will include bibliographic, chemical, 
# crystal, experimental, refinement or atomic coordinate data resulting 
# from the CCDC's data processing and validation procedures.
#
#######################################################################

data_XANDUM
_symmetry_cell_setting           monoclinic
_symmetry_space_group_name_H-M   'C 2/m'
_symmetry_Int_Tables_number      12
_space_group_name_Hall           '-C 2y'
loop_
_symmetry_equiv_pos_site_id
_symmetry_equiv_pos_as_xyz
1 x,y,z
2 1/2+x,1/2+y,z
3 -x,y,-z
4 1/2-x,1/2+y,-z
5 -x,-y,-z
6 1/2-x,1/2-y,-z
7 x,-y,z
8 1/2+x,1/2-y,z
_cell_length_a                   15.030(5)
_cell_length_b                   6.872(3)
_cell_length_c                   5.362(2)
_cell_angle_alpha                90
_cell_angle_beta                 93.67(3)
_cell_angle_gamma                90
_cell_volume                     552.685
loop_
_atom_site_label
_atom_site_type_symbol
_atom_site_fract_x
_atom_site_fract_y
_atom_site_fract_z
Mn1 Mn 0.0000 0.0000 0.0000
N1 N 0.1473(2) 0.0000 0.0706(5)
N2 N 0.1961(2) 0.0000 0.2988(5)
C1 C 0.2801(2) 0.0000 0.2497(6)
N3 N 0.2880(2) 0.0000 -0.0004(4)
C2 C 0.2036(2) 0.0000 -0.1036(5)
N4 N 0.3638(2) 0.0000 -0.1396(5)
N5 N 0.01745(12) 0.2304(3) -0.2839(3)
N6 N 0.0000 0.2278(3) -0.5000
H1 H 0.3247(31) 0.0000 0.3657(91)
H2 H 0.1891(31) 0.0000 -0.2652(39)
H3 H 0.3956(20) 0.0991(39) -0.0963(58)
Mn1_2 Mn 0.0000 0.0000 -1.0000
N1B N -0.1473(2) 0.0000 -0.0706(5)
N2B N -0.1961(2) 0.0000 -0.2988(5)
C1B C -0.2801(2) 0.0000 -0.2497(6)
N3B N -0.2880(2) 0.0000 0.0004(4)
C2B C -0.2036(2) 0.0000 0.1036(5)
N4B N -0.3638(2) 0.0000 0.1396(5)
N5B N -0.01745(12) 0.2304(3) -0.7161(3)
N5F N 0.01745(12) -0.2304(3) -0.2839(3)
N5D N -0.01745(12) -0.2304(3) -0.7161(3)
N5D_2 N -0.01745(12) -0.2304(3) 0.2839(3)
N5B_2 N -0.01745(12) 0.2304(3) 0.2839(3)
N6D N 0.0000 -0.2278(3) -0.5000
H1B H -0.3247(31) 0.0000 -0.3657(91)
H2B H -0.1891(31) 0.0000 0.2652(39)
H3F H 0.3956(20) -0.0991(39) -0.0963(58)
H3D H -0.3956(20) -0.0991(39) 0.0963(58)
H3B H -0.3956(20) 0.0991(39) 0.0963(58)
loop_
_geom_bond_atom_site_label_1
_geom_bond_atom_site_label_2
_geom_bond_site_symmetry_1
_geom_bond_site_symmetry_2
Mn1 N1 1_555 1_555
N1 N2 1_555 1_555
N2 C1 1_555 1_555
C1 N3 1_555 1_555
N3 C2 1_555 1_555
C2 N1 1_555 1_555
N4 N3 1_555 1_555
N5 Mn1 1_555 1_555
N6 N5 1_555 1_555
H1 C1 1_555 1_555
H2 C2 1_555 1_555
H3 N4 1_555 1_555
Mn1_2 N5B 1_555 1_555
N1B Mn1 1_555 1_555
N2B N1B 1_555 1_555
C1B N2B 1_555 1_555
N3B C1B 1_555 1_555
C2B N1B 1_555 1_555
N4B N3B 1_555 1_555
N5B N6 1_555 1_555
N5F Mn1 1_555 1_555
N5D Mn1_2 1_555 1_555
N5D_2 Mn1 1_555 1_555
N5B_2 Mn1 1_555 1_555
N6D N5F 1_555 1_555
H1B C1B 1_555 1_555
H2B C2B 1_555 1_555
H3F N4 1_555 1_555
H3D N4B 1_555 1_555
H3B N4B 1_555 1_555
N3B C2B 1_555 1_555
N5D N6D 1_555 1_555

#END
