
#######################################################################
#
#                 Cambridge Crystallographic Data Centre
#                                CCDC 
#
#######################################################################
#
# If this CIF has been generated from an entry in the Cambridge 
# Structural Database, then it will include bibliographic, chemical, 
# crystal, experimental, refinement or atomic coordinate data resulting 
# from the CCDC's data processing and validation procedures.
#
#######################################################################

data_XANHOK
_symmetry_cell_setting           orthorhombic
_symmetry_space_group_name_H-M   'P c c a'
_symmetry_Int_Tables_number      54
_space_group_name_Hall           '-P 2a 2ac'
loop_
_symmetry_equiv_pos_site_id
_symmetry_equiv_pos_as_xyz
1 x,y,z
2 1/2-x,-y,z
3 -x,y,1/2-z
4 1/2+x,-y,1/2-z
5 -x,-y,-z
6 1/2+x,y,-z
7 x,-y,1/2+z
8 1/2-x,y,1/2+z
_cell_length_a                   18.375(6)
_cell_length_b                   10.674(4)
_cell_length_c                   15.025(4)
_cell_angle_alpha                90
_cell_angle_beta                 90
_cell_angle_gamma                90
_cell_volume                     2946.92
loop_
_atom_site_label
_atom_site_type_symbol
_atom_site_fract_x
_atom_site_fract_y
_atom_site_fract_z
Cu1 Cu 0.37949(2) 0.72216(3) 0.08901(2)
Cl1 Cl 0.37640(4) 0.50701(7) 0.04563(5)
N1 N 0.46783(12) 0.7744(2) 0.01865(13)
N2 N 0.68553(11) 0.7026(2) 0.30521(14)
N3 N 0.45099(11) 0.7432(2) 0.18646(13)
C1 C 0.65241(13) 0.7033(2) 0.2244(2)
C2 C 0.57330(13) 0.7357(2) 0.2296(2)
C3 C 0.52121(13) 0.7548(2) 0.1626(2)
C4 C 0.52922(13) 0.7911(2) 0.0676(2)
N4 N 0.30878(13) 0.8202(2) 0.0161(2)
C5 C 0.28107(13) 0.9072(3) -0.0112(2)
C6 C 0.75674(14) 0.6756(3) 0.3102(2)
H1 H 0.77902(14) 0.6747(3) 0.3658(2)
C7 C 0.76423(14) 0.6450(3) 0.1538(2)
H2 H 0.79056(14) 0.6252(3) 0.1028(2)
C8 C 0.69005(14) 0.6708(3) 0.1484(2)
H3 H 0.66609(14) 0.6661(3) 0.0940(2)
C9 C 0.79818(14) 0.6491(3) 0.2357(2)
H4 H 0.84790(14) 0.6344(3) 0.2406(2)
N5 N 0.2500 1.0000 -0.0525(2)
C10 C 0.5281(2) 0.8625(3) -0.1072(2)
H5 H 0.5272(2) 0.8839(3) -0.1672(2)
C11 C 0.4681(2) 0.8088(3) -0.0672(2)
H6 H 0.4263(2) 0.7961(3) -0.1010(2)
C12 C 0.58987(14) 0.8493(3) 0.0323(2)
H7 H 0.63040(14) 0.8650(3) 0.0677(2)
C13 C 0.5894(2) 0.8838(3) -0.0566(2)
H8 H 0.6301(2) 0.9211(3) -0.0820(2)
Cu1B Cu 0.62051(2) 0.72216(3) 0.41099(2)
Cu1A Cu 0.12051(2) 1.27784(3) 0.08901(2)
Cl1B Cl 0.62360(4) 0.50701(7) 0.45437(5)
N1B N 0.53217(12) 0.7744(2) 0.48135(13)
N2B N 0.31447(11) 0.7026(2) 0.19479(14)
N3B N 0.54901(11) 0.7432(2) 0.31354(13)
C1B C 0.34759(13) 0.7033(2) 0.2756(2)
C2B C 0.42670(13) 0.7357(2) 0.2704(2)
C3B C 0.47879(13) 0.7548(2) 0.3374(2)
C4B C 0.47078(13) 0.7911(2) 0.4324(2)
N4A N 0.19122(13) 1.1798(2) 0.0161(2)
N4B N 0.69122(13) 0.8202(2) 0.4839(2)
C5A C 0.21893(13) 1.0928(3) -0.0112(2)
C6B C 0.24326(14) 0.6756(3) 0.1898(2)
H1B H 0.22098(14) 0.6747(3) 0.1342(2)
C7B C 0.23577(14) 0.6450(3) 0.3462(2)
H2B H 0.20944(14) 0.6252(3) 0.3972(2)
C8B C 0.30995(14) 0.6708(3) 0.3516(2)
H3B H 0.33391(14) 0.6661(3) 0.4060(2)
C9B C 0.20182(14) 0.6491(3) 0.2643(2)
H4B H 0.15210(14) 0.6344(3) 0.2594(2)
C10B C 0.4719(2) 0.8625(3) 0.6072(2)
H5B H 0.4728(2) 0.8839(3) 0.6672(2)
C11B C 0.5319(2) 0.8088(3) 0.5672(2)
H6B H 0.5737(2) 0.7961(3) 0.6010(2)
C12B C 0.41013(14) 0.8493(3) 0.4677(2)
H7B H 0.36960(14) 0.8650(3) 0.4323(2)
C13B C 0.4106(2) 0.8838(3) 0.5566(2)
H8B H 0.3699(2) 0.9211(3) 0.5820(2)
N6 N 0.7500 1.0000 -0.2051(3)
N7 N 0.6289(2) 0.9844(3) -0.2751(2)
C14 C 0.6873(2) 0.9917(3) -0.2470(2)
N7A N 0.8711(2) 1.0156(3) -0.2751(2)
C14A C 0.8127(2) 1.0083(3) -0.2470(2)
O1 O 0.5357(2) 0.4687(4) 0.1456(4)
H9 H 0.5125(12) 0.4514(20) 0.2066(14)
H10 H 0.4884(76) 0.426(12) 0.1515(87)
loop_
_geom_bond_atom_site_label_1
_geom_bond_atom_site_label_2
_geom_bond_site_symmetry_1
_geom_bond_site_symmetry_2
Cu1 Cl1 1_555 1_555
N1 Cu1 1_555 1_555
N2 C1 1_555 1_555
N3 Cu1 1_555 1_555
C1 C2 1_555 1_555
C2 C3 1_555 1_555
C3 N3 1_555 1_555
C4 N1 1_555 1_555
N4 Cu1 1_555 1_555
C5 N4 1_555 1_555
C6 N2 1_555 1_555
H1 C6 1_555 1_555
C7 H2 1_555 1_555
C8 C1 1_555 1_555
H3 C8 1_555 1_555
C9 C6 1_555 1_555
H4 C9 1_555 1_555
N5 C5 1_555 1_555
C10 H5 1_555 1_555
C11 N1 1_555 1_555
H6 C11 1_555 1_555
C12 C4 1_555 1_555
H7 C12 1_555 1_555
C13 C10 1_555 1_555
H8 C13 1_555 1_555
N6 C14 1_555 1_555
N7 C14 1_555 1_555
O1 H9 1_555 1_555
H10 O1 1_555 1_555
Cu1B N2 1_555 1_555
Cu1A N4A 1_555 1_555
Cl1B Cu1B 1_555 1_555
N1B Cu1B 1_555 1_555
N2B Cu1 1_555 1_555
N3B C2 1_555 1_555
C1B N2B 1_555 1_555
C2B N3 1_555 1_555
C3B N3B 1_555 1_555
C4B N1B 1_555 1_555
N4A C5A 1_555 1_555
N4B Cu1B 1_555 1_555
C5A N5 1_555 1_555
C6B N2B 1_555 1_555
H1B C6B 1_555 1_555
C7B H2B 1_555 1_555
C8B C1B 1_555 1_555
H3B C8B 1_555 1_555
C9B C6B 1_555 1_555
H4B C9B 1_555 1_555
C10B H5B 1_555 1_555
C11B N1B 1_555 1_555
H6B C11B 1_555 1_555
C12B C4B 1_555 1_555
H7B C12B 1_555 1_555
C13B C10B 1_555 1_555
H8B C13B 1_555 1_555
N7A C14A 1_555 1_555
C14A N6 1_555 1_555
C3 C4 1_555 1_555
C7 C8 1_555 1_555
C7 C9 1_555 1_555
C10 C11 1_555 1_555
C12 C13 1_555 1_555
Cu1B N3B 1_555 1_555
C1B C2B 1_555 1_555
C2B C3B 1_555 1_555
C3B C4B 1_555 1_555
C7B C8B 1_555 1_555
C7B C9B 1_555 1_555
C10B C11B 1_555 1_555
C12B C13B 1_555 1_555

#END
