
#######################################################################
#
#                 Cambridge Crystallographic Data Centre
#                                CCDC 
#
#######################################################################
#
# If this CIF has been generated from an entry in the Cambridge 
# Structural Database, then it will include bibliographic, chemical, 
# crystal, experimental, refinement or atomic coordinate data resulting 
# from the CCDC's data processing and validation procedures.
#
#######################################################################

data_XANHIE
_symmetry_cell_setting           monoclinic
_symmetry_space_group_name_H-M   'C 2/c'
_symmetry_Int_Tables_number      15
_space_group_name_Hall           '-C 2yn'
loop_
_symmetry_equiv_pos_site_id
_symmetry_equiv_pos_as_xyz
1 x,y,z
2 1/2+x,1/2+y,z
3 -x,y,1/2-z
4 1/2-x,1/2+y,1/2-z
5 -x,-y,-z
6 1/2-x,1/2-y,-z
7 x,-y,1/2+z
8 1/2+x,1/2-y,1/2+z
_cell_length_a                   12.7091(5)
_cell_length_b                   12.5614(5)
_cell_length_c                   20.8441(8)
_cell_angle_alpha                90
_cell_angle_beta                 100.989(1)
_cell_angle_gamma                90
_cell_volume                     3266.62
loop_
_atom_site_label
_atom_site_type_symbol
_atom_site_fract_x
_atom_site_fract_y
_atom_site_fract_z
Co1 Co 0.96104(3) 0.31704(3) 0.908826(15)
N1 N 1.01831(16) 0.16082(16) 0.89300(9)
N2 N 0.98311(14) 0.31683(17) 0.81083(8)
N3 N 0.92106(16) 0.47603(16) 0.87343(9)
N4 N 0.92927(18) 0.32251(19) 1.00129(10)
N5 N 0.86348(18) 0.3291(2) 1.10396(10)
N6 N 0.69846(18) 0.24319(17) 1.12082(10)
N7 N 1.1231(2) 0.36556(18) 0.93906(10)
N8 N 1.2906(2) 0.4337(2) 0.91454(12)
N9 N 1.3211(3) 0.4560(3) 0.80432(15)
C1 C 1.0520(2) 0.0902(2) 0.94003(13)
H1 H 1.0435 0.1059 0.9823
C2 C 1.0989(2) -0.0050(2) 0.92886(14)
H2 H 1.1195 -0.0534 0.9627
C3 C 1.1147(2) -0.0274(2) 0.86689(15)
H3 H 1.1472 -0.0907 0.8583
C4 C 1.0817(2) 0.0456(2) 0.81752(12)
H4 H 1.0927 0.0327 0.7754
C5 C 1.03235(19) 0.13743(19) 0.83180(11)
C6 C 1.00151(19) 0.22394(19) 0.78413(10)
C7 C 0.98003(19) 0.4105(2) 0.77952(10)
C8 C 0.93239(19) 0.4982(2) 0.81135(12)
C9 C 0.8940(2) 0.5914(2) 0.78052(13)
H5 H 0.8990 0.6031 0.7372
C10 C 0.8480(2) 0.6672(2) 0.81436(14)
H6 H 0.8223 0.7308 0.7945
C11 C 0.8412(2) 0.6465(2) 0.87787(15)
H7 H 0.8123 0.6968 0.9023
C12 C 0.8776(2) 0.5504(2) 0.90527(13)
H8 H 0.8714 0.5370 0.9483
C13 C 0.8947(2) 0.3231(2) 1.04811(12)
C14 C 0.7741(2) 0.2835(2) 1.11037(11)
C15 C 1.1992(3) 0.3983(2) 0.92525(12)
C16 C 1.3031(2) 0.4459(3) 0.85485(17)
Co1B Co 1.03896(3) 0.31704(3) 0.591174(15)
Co1E Co 0.53896(3) 0.18296(3) 1.091174(15)
N1B N 0.98169(16) 0.16082(16) 0.60700(9)
N2B N 1.01689(14) 0.31683(17) 0.68917(8)
N3B N 1.07894(16) 0.47603(16) 0.62657(9)
N4E N 0.57073(18) 0.17749(19) 0.99871(10)
N4B N 1.07073(18) 0.32251(19) 0.49871(10)
N5E N 0.63652(18) 0.1709(2) 0.89604(10)
N6E N 0.80154(18) 0.25681(17) 0.87918(10)
N6G N 1.19846(18) 0.25681(17) 0.62082(10)
N7B N 0.8769(2) 0.36556(18) 0.56094(10)
N8B N 0.7094(2) 0.4337(2) 0.58546(12)
N9B N 0.6789(3) 0.4560(3) 0.69568(15)
C1B C 0.9480(2) 0.0902(2) 0.55997(13)
H1B H 0.9565 0.1059 0.5177
C2B C 0.9011(2) -0.0050(2) 0.57114(14)
H2B H 0.8805 -0.0534 0.5373
C3B C 0.8853(2) -0.0274(2) 0.63311(15)
H3B H 0.8528 -0.0907 0.6417
C4B C 0.9183(2) 0.0456(2) 0.68248(12)
H4B H 0.9073 0.0327 0.7246
C5B C 0.96765(19) 0.13743(19) 0.66820(11)
C6B C 0.99849(19) 0.22394(19) 0.71587(10)
C7B C 1.01997(19) 0.4105(2) 0.72048(10)
C8B C 1.06761(19) 0.4982(2) 0.68865(12)
C9B C 1.1060(2) 0.5914(2) 0.71948(13)
H5B H 1.1010 0.6031 0.7628
C10B C 1.1520(2) 0.6672(2) 0.68564(14)
H6B H 1.1777 0.7308 0.7055
C11B C 1.1588(2) 0.6465(2) 0.62213(15)
H7B H 1.1877 0.6968 0.5977
C12B C 1.1224(2) 0.5504(2) 0.59473(13)
H8B H 1.1286 0.5370 0.5517
C13E C 0.6053(2) 0.1769(2) 0.95189(12)
C14E C 0.7259(2) 0.2165(2) 0.88963(11)
C15B C 0.8008(3) 0.3983(2) 0.57475(12)
C16B C 0.6969(2) 0.4459(3) 0.64515(17)
loop_
_geom_bond_atom_site_label_1
_geom_bond_atom_site_label_2
_geom_bond_site_symmetry_1
_geom_bond_site_symmetry_2
Co1 N1 1_555 1_555
N1 C1 1_555 1_555
N2 Co1 1_555 1_555
N3 Co1 1_555 1_555
N4 Co1 1_555 1_555
N5 C13 1_555 1_555
N6 C14 1_555 1_555
N7 Co1 1_555 1_555
N8 C15 1_555 1_555
N9 C16 1_555 1_555
C1 H1 1_555 1_555
C2 C1 1_555 1_555
H2 C2 1_555 1_555
C3 C2 1_555 1_555
H3 C3 1_555 1_555
C4 C3 1_555 1_555
H4 C4 1_555 1_555
C5 N1 1_555 1_555
C6 N2 1_555 1_555
C7 N2 1_555 1_555
C8 N3 1_555 1_555
C9 C8 1_555 1_555
H5 C9 1_555 1_555
C10 C9 1_555 1_555
H6 C10 1_555 1_555
C11 C10 1_555 1_555
H7 C11 1_555 1_555
C12 N3 1_555 1_555
H8 C12 1_555 1_555
C13 N4 1_555 1_555
C14 N5 1_555 1_555
C15 N7 1_555 1_555
C16 N8 1_555 1_555
Co1B N1B 1_555 1_555
Co1E N6 1_555 1_555
N1B C1B 1_555 1_555
N2B Co1B 1_555 1_555
N3B Co1B 1_555 1_555
N4E Co1E 1_555 1_555
N4B Co1B 1_555 1_555
N5E C13E 1_555 1_555
N6E Co1 1_555 1_555
N6G Co1B 1_555 1_555
N7B Co1B 1_555 1_555
N8B C15B 1_555 1_555
N9B C16B 1_555 1_555
C1B H1B 1_555 1_555
C2B C1B 1_555 1_555
H2B C2B 1_555 1_555
C3B C2B 1_555 1_555
H3B C3B 1_555 1_555
C4B C3B 1_555 1_555
H4B C4B 1_555 1_555
C5B N1B 1_555 1_555
C6B C6 1_555 1_555
C7B C7 1_555 1_555
C8B N3B 1_555 1_555
C9B C8B 1_555 1_555
H5B C9B 1_555 1_555
C10B C9B 1_555 1_555
H6B C10B 1_555 1_555
C11B C10B 1_555 1_555
H7B C11B 1_555 1_555
C12B N3B 1_555 1_555
H8B C12B 1_555 1_555
C13E N4E 1_555 1_555
C14E N5E 1_555 1_555
C15B N7B 1_555 1_555
C16B N8B 1_555 1_555
C4 C5 1_555 1_555
C5 C6 1_555 1_555
C7 C8 1_555 1_555
C11 C12 1_555 1_555
N2B C6B 1_555 1_555
N2B C7B 1_555 1_555
N6E C14E 1_555 1_555
C4B C5B 1_555 1_555
C5B C6B 1_555 1_555
C7B C8B 1_555 1_555
C11B C12B 1_555 1_555

#END
