
#######################################################################
#
#                 Cambridge Crystallographic Data Centre
#                                CCDC 
#
#######################################################################
#
# If this CIF has been generated from an entry in the Cambridge 
# Structural Database, then it will include bibliographic, chemical, 
# crystal, experimental, refinement or atomic coordinate data resulting 
# from the CCDC's data processing and validation procedures.
#
#######################################################################

data_XANKUU
_symmetry_cell_setting           rhombohedral
_symmetry_space_group_name_H-M   'R 3 2'
_symmetry_Int_Tables_number      155
_space_group_name_Hall           'R 3 2"'
loop_
_symmetry_equiv_pos_site_id
_symmetry_equiv_pos_as_xyz
1 x,y,z
2 -y,x-y,z
3 -x+y,-x,z
4 y,x,-z
5 x-y,-y,-z
6 -x,-x+y,-z
7 2/3+x,1/3+y,1/3+z
8 2/3-y,1/3+x-y,1/3+z
9 2/3-x+y,1/3-x,1/3+z
10 2/3+y,1/3+x,1/3-z
11 2/3+x-y,1/3-y,1/3-z
12 2/3-x,1/3-x+y,1/3-z
13 1/3+x,2/3+y,2/3+z
14 1/3-y,2/3+x-y,2/3+z
15 1/3-x+y,2/3-x,2/3+z
16 1/3+y,2/3+x,2/3-z
17 1/3+x-y,2/3-y,2/3-z
18 1/3-x,2/3-x+y,2/3-z
_cell_length_a                   35.8652(19)
_cell_length_b                   35.8652(19)
_cell_length_c                   87.761(8)
_cell_angle_alpha                90
_cell_angle_beta                 90
_cell_angle_gamma                120
_cell_volume                     97763.9
loop_
_atom_site_label
_atom_site_type_symbol
_atom_site_fract_x
_atom_site_fract_y
_atom_site_fract_z
C1 C 0.8330(9) 0.9236(12) 0.6368(3)
C2 C 0.8129(10) 0.8829(11) 0.6434(3)
C3 C 0.7763(9) 0.8696(9) 0.6523(3)
C4 C 0.7598(8) 0.8970(10) 0.6545(3)
C5 C 0.7799(10) 0.9376(9) 0.6479(3)
C6 C 0.8165(10) 0.9509(10) 0.6390(3)
C7 C 0.9074(12) 0.9620(11) 0.6009(3)
C8 C 0.5373(8) 0.7867(11) 0.7044(3)
C9 C 0.5552(9) 0.7638(9) 0.6979(3)
C10 C 0.5924(10) 0.7850(10) 0.6892(3)
C11 C 0.6118(9) 0.8292(10) 0.6869(3)
C12 C 0.5939(10) 0.8521(9) 0.6934(3)
C13 C 0.5567(10) 0.8309(11) 0.7021(3)
C14 C 0.7621(14) 0.9690(12) 0.6502(5)
C15 C 0.7761(9) 0.5116(8) 0.4727(4)
C16 C 0.7966(10) 0.5546(10) 0.4683(3)
C17 C 0.8180(9) 0.5868(9) 0.4791(4)
C18 C 0.8189(8) 0.5761(8) 0.4943(3)
C19 C 0.7984(9) 0.5331(9) 0.4987(3)
C20 C 0.7770(9) 0.5008(9) 0.4879(4)
C21 C 0.7187(16) 0.950(2) 0.6462(10)
C22 C 0.9421(9) 0.7994(9) 0.5467(4)
C23 C 0.9439(10) 0.7984(10) 0.5309(4)
C24 C 0.9232(9) 0.7592(10) 0.5232(3)
C25 C 0.9008(8) 0.7211(9) 0.5313(3)
C26 C 0.8990(9) 0.7220(9) 0.5472(3)
C27 C 0.9196(10) 0.7611(10) 0.5548(3)
C28 C 0.767(2) 0.979(2) 0.6658(5)
C29 C 0.787(3) 1.0059(18) 0.6414(8)
C30 C 0.7596(10) 0.8278(11) 0.6583(5)
C31 C 0.8733(11) 0.9414(19) 0.6268(4)
C32 C 0.8656(13) 0.943(2) 0.6111(5)
C33 C 0.4270(12) 0.7201(13) 0.7286(3)
C34 C 0.6150(13) 0.9021(10) 0.6918(4)
C35 C 0.6283(16) 0.9175(18) 0.6771(5)
C36 C 0.6522(17) 0.9195(17) 0.7012(6)
C37 C 0.588(2) 0.9161(19) 0.6984(8)
C38 C 0.6053(11) 0.7554(10) 0.6844(4)
C39 C 0.4968(11) 0.7622(10) 0.7137(4)
C40 C 0.4769(12) 0.752(2) 0.7275(5)
C41 C 0.7103(11) 0.7682(12) 0.6739(5)
C42 C 0.7331(16) 0.7413(15) 0.6706(8)
C43 C 0.7205(15) 0.7036(11) 0.6801(4)
C44 C 0.6761(17) 0.6808(12) 0.68476(16)
C45 C 0.6498(18) 0.7027(16) 0.6872(8)
C46 C 0.6650(11) 0.7432(10) 0.6746(5)
C47 C 0.7334(8) 0.4368(10) 0.4360(4)
C48 C 0.7997(13) 0.5235(13) 0.5158(4)
C49 C 0.8417(15) 0.5408(14) 0.5213(7)
C50 C 0.777(2) 0.479(2) 0.5189(7)
C51 C 0.7765(15) 0.5403(16) 0.5234(6)
C52 C 0.8374(14) 0.6295(13) 0.4735(4)
C53 C 0.7534(12) 0.4778(12) 0.4603(4)
C54 C 0.7663(19) 0.4769(15) 0.4454(4)
C55 C 0.9506(10) 0.9024(11) 0.5654(4)
C56 C 0.8728(12) 0.6787(11) 0.5559(4)
C57 C 0.8743(19) 0.6864(18) 0.5716(4)
C58 C 0.8883(12) 0.651(2) 0.5527(4)
C59 C 0.8299(17) 0.6609(11) 0.5508(4)
C60 C 0.9279(12) 0.7639(15) 0.5072(3)
C61 C 0.9655(13) 0.8434(14) 0.5547(7)
C62 C 0.9372(14) 0.8587(15) 0.5575(5)
C63 C 0.8807(18) 0.7071(15) 0.4737(4)
C64 C 0.869(2) 0.716(2) 0.4574(5)
C65 C 0.8853(17) 0.761(2) 0.4537(6)
C66 C 0.932(2) 0.7850(19) 0.4575(5)
C67 C 0.944(2) 0.7854(19) 0.4741(5)
C68 C 0.9197(14) 0.7352(12) 0.4806(3)
Cl1 Cl 0.6393(8) 0.8091(9) 0.6458(2)
Cl2 Cl 0.9368(7) 0.6566(8) 0.5043(3)
Mn1 Mn 0.6798(6) 0.8280(7) 0.6686(2)
Mn2 Mn 0.8767(7) 0.6694(7) 0.5032(2)
N1 N 0.7227(10) 0.8061(12) 0.6664(5)
N2 N 0.6449(11) 0.7692(10) 0.6781(5)
N3 N 0.8604(15) 0.6678(14) 0.4810(3)
N4 N 0.9164(14) 0.7319(14) 0.4971(3)
O1 O 0.9318(13) 0.9434(11) 0.6048(5)
O2 O 0.9082(17) 0.9922(15) 0.5909(5)
O3 O 0.7227(9) 0.8863(9) 0.6632(4)
O4 O 0.4124(16) 0.6802(14) 0.7348(5)
O5 O 0.4005(12) 0.7341(13) 0.7232(4)
O6 O 0.6495(11) 0.8520(10) 0.6781(3)
O7 O 0.7290(13) 0.4427(13) 0.4211(4)
O8 O 0.7114(12) 0.3990(12) 0.4436(4)
O9 O 0.8389(11) 0.6071(9) 0.5057(4)
O10 O 0.9850(15) 0.9372(14) 0.5587(5)
O11 O 0.9242(13) 0.8963(16) 0.5775(5)
O12 O 0.8792(10) 0.6805(11) 0.5243(3)
Zn1 Zn 0.9731(5) 0.9426(4) 0.58973(12)
Zn2 Zn 0.3648(5) 0.6402(5) 0.74294(11)
Zn3 Zn 1.0000 1.0000 0.5603(2)
Zn4 Zn 0.6666 0.3333 0.4387(2)
O13 O 1.0000 1.0000 0.5763(11)
O14 O 0.3333 0.6667 0.7543(10)
O2A O 1.0078(15) 0.9160(23) 0.5909(5)
O5B O 0.3336(18) 0.5995(12) 0.7232(4)
O7H O 0.3804(18) 0.6043(13) 0.7544(4)
O8B O 0.6876(17) 0.2886(12) 0.4436(4)
O8A O 0.6010(12) 0.3124(17) 0.4436(4)
O10B O 0.9522(21) 1.0150(15) 0.5587(5)
O10A O 1.0628(14) 1.0478(21) 0.5587(5)
Zn1B Zn 0.9695(6) 1.0269(5) 0.58973(12)
Zn1A Zn 1.0574(4) 1.0305(6) 0.58973(12)
Zn2A Zn 0.3598(5) 0.7246(7) 0.74294(11)
Zn2M Zn 0.6931(5) 0.3913(7) 0.40961(11)
Zn2B Zn 0.2754(7) 0.6352(5) 0.74294(11)
Zn4H Zn 0.3334 0.6667 0.7720(2)
O14M O 0.6666 0.3333 0.4210(10)
loop_
_geom_bond_atom_site_label_1
_geom_bond_atom_site_label_2
_geom_bond_site_symmetry_1
_geom_bond_site_symmetry_2
C1 C2 1_555 1_555
C2 C3 1_555 1_555
C3 C4 1_555 1_555
C4 C5 1_555 1_555
C5 C6 1_555 1_555
C6 C1 1_555 1_555
C7 C32 1_555 1_555
C8 C9 1_555 1_555
C9 C10 1_555 1_555
C10 C11 1_555 1_555
C11 C12 1_555 1_555
C12 C13 1_555 1_555
C13 C8 1_555 1_555
C14 C5 1_555 1_555
C15 C16 1_555 1_555
C16 C17 1_555 1_555
C17 C18 1_555 1_555
C18 C19 1_555 1_555
C19 C20 1_555 1_555
C20 C15 1_555 1_555
C21 C14 1_555 1_555
C22 C23 1_555 1_555
C23 C24 1_555 1_555
C24 C25 1_555 1_555
C25 C26 1_555 1_555
C26 C27 1_555 1_555
C27 C22 1_555 1_555
C28 C14 1_555 1_555
C29 C14 1_555 1_555
C30 C3 1_555 1_555
C31 C1 1_555 1_555
C32 C31 1_555 1_555
C33 C40 1_555 1_555
C34 C12 1_555 1_555
C35 C34 1_555 1_555
C36 C34 1_555 1_555
C37 C34 1_555 1_555
C38 C10 1_555 1_555
C39 C8 1_555 1_555
C40 C39 1_555 1_555
C41 C42 1_555 1_555
C42 C43 1_555 1_555
C43 C44 1_555 1_555
C44 C45 1_555 1_555
C45 C46 1_555 1_555
C46 C41 1_555 1_555
C47 C54 1_555 1_555
C48 C19 1_555 1_555
C49 C48 1_555 1_555
C50 C48 1_555 1_555
C51 C48 1_555 1_555
C52 C17 1_555 1_555
C53 C15 1_555 1_555
C54 C53 1_555 1_555
C55 C62 1_555 1_555
C56 C26 1_555 1_555
C57 C56 1_555 1_555
C58 C56 1_555 1_555
C59 C56 1_555 1_555
C60 C24 1_555 1_555
C61 C22 1_555 1_555
C62 C61 1_555 1_555
C63 C64 1_555 1_555
C64 C65 1_555 1_555
C65 C66 1_555 1_555
C66 C67 1_555 1_555
C67 C68 1_555 1_555
C68 C63 1_555 1_555
Cl1 Mn1 1_555 1_555
Cl2 Mn2 1_555 1_555
Mn1 N1 1_555 1_555
Mn2 N3 1_555 1_555
N1 C30 1_555 1_555
N2 C38 1_555 1_555
N3 C52 1_555 1_555
N4 C60 1_555 1_555
O1 C7 1_555 1_555
O2 C7 1_555 1_555
O3 C4 1_555 1_555
O4 C33 1_555 1_555
O5 C33 1_555 1_555
O6 C11 1_555 1_555
O7 C47 1_555 1_555
O8 C47 1_555 1_555
O9 C18 1_555 1_555
O10 C55 1_555 1_555
O11 C55 1_555 1_555
O12 C25 1_555 1_555
Zn1 O1 1_555 1_555
Zn2 O4 1_555 1_555
Zn3 O10 1_555 1_555
Zn4 O8 1_555 1_555
O13 Zn1 1_555 1_555
O14 Zn2 1_555 1_555
O2A Zn1 1_555 1_555
O5B Zn2 1_555 1_555
O7H Zn2 1_555 1_555
O8B Zn4 1_555 1_555
O8A Zn4 1_555 1_555
O10B Zn3 1_555 1_555
O10A Zn3 1_555 1_555
Zn1B O2 1_555 1_555
Zn1A O13 1_555 1_555
Zn2A O5 1_555 1_555
Zn2M O7 1_555 1_555
Zn2B O14 1_555 1_555
Zn4H O14 1_555 1_555
O14M Zn4 1_555 1_555
C41 N1 1_555 1_555
C46 N2 1_555 1_555
C63 N3 1_555 1_555
C68 N4 1_555 1_555
Mn1 N2 1_555 1_555
Mn1 O3 1_555 1_555
Mn1 O6 1_555 1_555
Mn2 N4 1_555 1_555
Mn2 O9 1_555 1_555
Mn2 O12 1_555 1_555
O11 Zn1 1_555 1_555
Zn3 O13 1_555 1_555
O13 Zn1B 1_555 1_555
O14 Zn2A 1_555 1_555
Zn2M O14M 1_555 1_555

#END
