
#######################################################################
#
#                 Cambridge Crystallographic Data Centre
#                                CCDC 
#
#######################################################################
#
# If this CIF has been generated from an entry in the Cambridge 
# Structural Database, then it will include bibliographic, chemical, 
# crystal, experimental, refinement or atomic coordinate data resulting 
# from the CCDC's data processing and validation procedures.
#
#######################################################################

data_XANLEE
_symmetry_cell_setting           monoclinic
_symmetry_space_group_name_H-M   'P 21/c'
_symmetry_Int_Tables_number      14
_space_group_name_Hall           '-P 2ybc'
loop_
_symmetry_equiv_pos_site_id
_symmetry_equiv_pos_as_xyz
1 x,y,z
2 -x,1/2+y,1/2-z
3 -x,-y,-z
4 x,1/2-y,1/2+z
_cell_length_a                   15.772(5)
_cell_length_b                   26.984(8)
_cell_length_c                   19.254(6)
_cell_angle_alpha                90
_cell_angle_beta                 90.019(5)
_cell_angle_gamma                90
_cell_volume                     8194.34
loop_
_atom_site_label
_atom_site_type_symbol
_atom_site_fract_x
_atom_site_fract_y
_atom_site_fract_z
Fe1 Fe 0.04134(3) 0.617997(16) 0.78746(2)
Fe2 Fe -0.46552(3) 0.866680(16) 1.20634(2)
S1 S -0.68069(6) 0.93774(4) 1.05448(5)
S2 S -0.23516(6) 0.77922(4) 1.31668(6)
S3 S 0.28149(6) 0.71602(4) 0.71409(7)
S4 S -0.15471(8) 0.56265(4) 0.96182(6)
C1 C 0.2002(2) 0.67970(12) 0.72695(17)
C2 C -0.0975(2) 0.57499(12) 0.89327(19)
C3 C -0.6057(2) 0.91670(12) 1.10440(17)
C4 C -0.3183(2) 0.80842(12) 1.28870(17)
N1 N 0.14234(17) 0.65427(10) 0.73583(14)
N2 N -0.05626(17) 0.58447(10) 0.84533(15)
N3 N -0.55215(18) 0.90183(10) 1.14048(15)
N4 N -0.37712(17) 0.82938(10) 1.26850(14)
N5 N -0.37017(16) 0.87181(9) 1.12338(13)
N6 N -0.00077(16) 0.69180(9) 0.82342(13)
N7 N -0.07940(17) 1.04540(9) 0.75591(14)
N8 N -0.15602(16) 0.82949(9) 0.94041(13)
N9 N -0.18424(17) 0.91449(9) 0.91961(14)
N10 N -0.08741(17) 0.87087(9) 0.84771(14)
C5 C -0.3259(2) 0.83113(11) 1.10661(17)
H1 H -0.3340 0.8019 1.1333
C6 C -0.2691(2) 0.82997(12) 1.05226(17)
H2 H -0.2393 0.8003 1.0416
C7 C -0.25585(19) 0.87242(11) 1.01343(16)
C8 C -0.3013(2) 0.91487(11) 1.03105(16)
H3 H -0.2935 0.9447 1.0057
C9 C -0.3576(2) 0.91301(11) 1.08569(16)
H4 H -0.3888 0.9420 1.0971
C10 C -0.0317(2) 0.69882(11) 0.88739(16)
H5 H -0.0318 0.6715 0.9186
C11 C -0.0634(2) 0.74366(11) 0.91063(16)
H6 H -0.0841 0.7471 0.9567
C12 C -0.06417(18) 0.78336(11) 0.86507(16)
C13 C -0.0306(2) 0.77695(11) 0.79874(16)
H7 H -0.0289 0.8038 0.7669
C14 C 0.0001(2) 0.73092(12) 0.78011(17)
H8 H 0.0228 0.7267 0.7348
C15 C -0.0278(2) 1.00625(12) 0.75085(19)
H9 H 0.0210 1.0090 0.7222
C16 C -0.0417(2) 0.96190(12) 0.78504(18)
H10 H -0.0040 0.9348 0.7792
C17 C -0.1119(2) 0.95796(11) 0.82808(17)
C18 C -0.1655(2) 0.99832(12) 0.83429(19)
H11 H -0.2138 0.9968 0.8637
C19 C -0.1475(2) 1.04069(12) 0.79712(19)
H12 H -0.1853 1.0680 0.8009
C20 C -0.1950(2) 0.87226(11) 0.95467(16)
C21 C -0.10440(19) 0.83072(11) 0.88581(15)
C22 C -0.1288(2) 0.91180(11) 0.86741(16)
N11 N 0.12562(17) 0.61303(9) 0.87847(14)
N12 N 0.49731(16) 0.79127(9) 1.17078(13)
N13 N 0.43039(16) 0.43654(9) 1.24034(13)
N14 N 0.33930(17) 0.65257(9) 1.06052(13)
N15 N 0.40683(17) 0.61224(9) 1.15442(14)
N16 N 0.31641(17) 0.56697(9) 1.07889(13)
C23 C 0.1684(2) 0.65363(11) 0.89778(17)
H13 H 0.1583 0.6838 0.8736
C24 C 0.2263(2) 0.65347(11) 0.95118(16)
H14 H 0.2555 0.6830 0.9635
C25 C 0.2417(2) 0.60960(11) 0.98695(16)
C26 C 0.1972(2) 0.56755(12) 0.96736(17)
H15 H 0.2060 0.5369 0.9905
C27 C 0.1399(2) 0.57120(12) 0.91361(17)
H16 H 0.1089 0.5424 0.9008
C28 C 0.4672(2) 0.78302(11) 1.10715(16)
H17 H 0.4688 0.8093 1.0743
C29 C 0.4338(2) 0.73801(12) 1.08676(17)
H18 H 0.4132 0.7336 1.0408
C30 C 0.4305(2) 0.69950(11) 1.13413(16)
C31 C 0.4636(2) 0.70740(12) 1.20023(17)
H19 H 0.4643 0.6815 1.2336
C32 C 0.4953(2) 0.75356(12) 1.21615(17)
H20 H 0.5169 0.7590 1.2616
C33 C 0.4594(2) 0.48040(12) 1.26201(17)
H21 H 0.4950 0.4812 1.3018
C34 C 0.4403(2) 0.52473(12) 1.22968(18)
H22 H 0.4621 0.5551 1.2472
C35 C 0.3888(2) 0.52432(11) 1.17111(16)
C36 C 0.3575(2) 0.47915(11) 1.14898(17)
H23 H 0.3211 0.4774 1.1097
C37 C 0.3795(2) 0.43671(12) 1.18420(17)
H24 H 0.3576 0.4060 1.1681
C38 C 0.3022(2) 0.60946(11) 1.04544(16)
C39 C 0.3904(2) 0.65189(11) 1.11547(16)
C40 C 0.3691(2) 0.57044(11) 1.13314(16)
O1 O -0.03006(15) 0.62852(9) 0.69559(13)
H25 H -0.007(2) 0.6346(16) 0.6573(12)
C41 C -0.1188(2) 0.62115(16) 0.6851(2)
H26 H -0.1399 0.6460 0.6515
H27 H -0.1488 0.6265 0.7297
C42 C -0.1391(2) 0.57020(15) 0.65854(19)
C43 C -0.1977(3) 0.54058(19) 0.6920(2)
H28 H -0.2231 0.5519 0.7339
C44 C -0.2198(3) 0.4951(2) 0.6657(3)
H29 H -0.2614 0.4756 0.6887
C45 C -0.1822(4) 0.47765(19) 0.6065(4)
H30 H -0.1969 0.4459 0.5889
C46 C -0.1237(3) 0.50599(18) 0.5727(3)
H31 H -0.0977 0.4940 0.5315
C47 C -0.1023(3) 0.55239(15) 0.5984(2)
H32 H -0.0618 0.5721 0.5744
O2 O -0.57373(15) 0.85425(9) 1.27730(12)
H33 H -0.613(2) 0.8385(15) 1.258(2)
C48 C -0.6073(3) 0.88617(16) 1.3292(2)
H34 H -0.6654 0.8754 1.3417
H35 H -0.6106 0.9204 1.3110
C49 C -0.5516(3) 0.88500(18) 1.3927(2)
C50 C -0.5049(3) 0.8442(2) 1.4094(2)
H36 H -0.5095 0.8153 1.3816
C51 C -0.4518(4) 0.8441(3) 1.4650(3)
H37 H -0.4197 0.8153 1.4760
C52 C -0.4450(4) 0.8858(4) 1.5052(3)
H38 H -0.4071 0.8857 1.5436
C53 C -0.4912(5) 0.9275(3) 1.4916(3)
H39 H -0.4863 0.9558 1.5207
C54 C -0.5462(3) 0.9281(2) 1.4339(3)
H40 H -0.5787 0.9567 1.4231
Fe1A Fe -0.04134(3) 1.117997(16) 0.71254(2)
Fe2_2 Fe 0.53448(3) 0.866680(16) 1.20634(2)
Fe2A Fe 0.46552(3) 0.366680(16) 1.29366(2)
N7A N 0.07940(17) 0.54540(9) 0.74409(14)
N12_2 N -0.50269(16) 0.79127(9) 1.17078(13)
N13A N -0.43039(16) 0.93654(9) 1.25966(13)
O3 O 0.03517(19) 0.65637(11) 0.57357(15)
H41 H 0.0342 0.6871 0.5803
C55 C 0.1211(3) 0.6409(2) 0.5586(2)
H42 H 0.1227 0.6043 0.5553
H43 H 0.1582 0.6508 0.5977
C56 C 0.1550(3) 0.66237(16) 0.4931(2)
C57 C 0.2287(4) 0.6910(2) 0.4939(3)
H44 H 0.2493 0.6973 0.5394
C58 C 0.1171(3) 0.6539(2) 0.4317(2)
H45 H 0.0689 0.6332 0.4255
C59 C 0.2739(7) 0.7102(4) 0.4468(6)
H46 H 0.3281 0.7245 0.4551
C60 C 0.2366(7) 0.7084(4) 0.3828(7)
H47 H 0.2623 0.7255 0.3452
C61 C 0.1634(7) 0.6828(4) 0.3715(5)
H48 H 0.1397 0.6823 0.3262
O4 O 0.4236(2) 0.53534(11) 0.40861(16)
H49 H 0.3898 0.5419 0.4410
C62 C 0.5066(3) 0.54936(16) 0.4282(2)
H50 H 0.5474 0.5262 0.4064
H51 H 0.5122 0.5459 0.4791
C63 C 0.5298(3) 0.60124(15) 0.4081(2)
C64 C 0.6030(3) 0.6112(2) 0.3716(2)
H52 H 0.6371 0.5844 0.3560
C65 C 0.6281(3) 0.6594(2) 0.3573(3)
H53 H 0.6787 0.6653 0.3318
C66 C 0.5804(4) 0.6984(2) 0.3795(2)
H54 H 0.5985 0.7314 0.3712
C67 C 0.5058(4) 0.68931(19) 0.4141(3)
H55 H 0.4709 0.7161 0.4282
C68 C 0.4817(4) 0.64102(17) 0.4284(3)
H56 H 0.4304 0.6353 0.4530
O5 O 0.0219(2) 0.75460(11) 0.60501(16)
H57 H -0.0277 0.7653 0.5996
C69 C 0.0806(4) 0.78680(19) 0.5703(3)
H58 H 0.0604 0.7927 0.5223
H59 H 0.1364 0.7702 0.5674
C70 C 0.0910(3) 0.83556(17) 0.6063(2)
C71 C 0.1475(3) 0.83901(19) 0.6608(2)
H60 H 0.1745 0.8099 0.6776
C72 C 0.1652(3) 0.8838(2) 0.6912(3)
H61 H 0.2036 0.8853 0.7291
C73 C 0.1278(3) 0.9260(2) 0.6673(3)
H62 H 0.1416 0.9570 0.6879
C74 C 0.0714(3) 0.92419(19) 0.6146(3)
H63 H 0.0451 0.9537 0.5984
C75 C 0.0521(3) 0.8788(2) 0.5841(2)
H64 H 0.0117 0.8775 0.5476
O6 O -0.1394(3) 0.71112(17) 1.0887(2)
H65 H -0.1647 0.7021 1.0524
C76 C -0.1950(5) 0.7083(2) 1.1452(3)
H66 H -0.2426 0.7315 1.1374
H67 H -0.1647 0.7192 1.1876
C77 C -0.2315(3) 0.6553(2) 1.1577(3)
C78 C -0.1863(5) 0.6139(2) 1.1500(3)
H68 H -0.1288 0.6183 1.1367
C79 C -0.2114(5) 0.5665(2) 1.1587(3)
H69 H -0.1736 0.5395 1.1526
C80 C -0.3023(7) 0.5589(4) 1.1785(4)
H70 H -0.3257 0.5271 1.1875
C81 C -0.3509(5) 0.6034(4) 1.1828(4)
H71 H -0.4096 0.6017 1.1939
C82 C -0.3131(4) 0.6492(4) 1.1708(4)
H72 H -0.3480 0.6778 1.1722
O7 O -0.2304(2) 0.67683(15) 0.97974(19)
H73 H -0.234(4) 0.690(2) 0.938(2)
H74 H -0.219(4) 0.6448(15) 0.976(3)
C83? C 0.2469(7) 0.7100(4) 0.4173(7)
H75? H 0.2898 0.7341 0.4097
C84? C 0.2019(8) 0.6923(4) 0.3627(6)
H76? H 0.2175 0.7028 0.3173
C85? C 0.1349(6) 0.6601(4) 0.3693(5)
H77? H 0.1063 0.6447 0.3316
loop_
_geom_bond_atom_site_label_1
_geom_bond_atom_site_label_2
_geom_bond_site_symmetry_1
_geom_bond_site_symmetry_2
Fe1 N1 1_555 1_555
Fe2 N3 1_555 1_555
S1 C3 1_555 1_555
S2 C4 1_555 1_555
S3 C1 1_555 1_555
S4 C2 1_555 1_555
C1 N1 1_555 1_555
C2 N2 1_555 1_555
C3 N3 1_555 1_555
C4 N4 1_555 1_555
N2 Fe1 1_555 1_555
N4 Fe2 1_555 1_555
N5 Fe2 1_555 1_555
N6 Fe1 1_555 1_555
N7 C15 1_555 1_555
N8 C20 1_555 1_555
N9 C20 1_555 1_555
N10 C21 1_555 1_555
C5 N5 1_555 1_555
H1 C5 1_555 1_555
C6 C5 1_555 1_555
H2 C6 1_555 1_555
C7 C6 1_555 1_555
C8 C7 1_555 1_555
H3 C8 1_555 1_555
C9 N5 1_555 1_555
H4 C9 1_555 1_555
C10 N6 1_555 1_555
H5 C10 1_555 1_555
C11 C10 1_555 1_555
H6 C11 1_555 1_555
C12 C11 1_555 1_555
C13 C12 1_555 1_555
H7 C13 1_555 1_555
C14 N6 1_555 1_555
H8 C14 1_555 1_555
C15 H9 1_555 1_555
C16 C15 1_555 1_555
H10 C16 1_555 1_555
C17 C16 1_555 1_555
C18 C17 1_555 1_555
H11 C18 1_555 1_555
C19 N7 1_555 1_555
H12 C19 1_555 1_555
C20 C7 1_555 1_555
C21 N8 1_555 1_555
C22 N9 1_555 1_555
N11 Fe1 1_555 1_555
N12 C28 1_555 1_555
N13 C33 1_555 1_555
N14 C38 1_555 1_555
N15 C39 1_555 1_555
N16 C38 1_555 1_555
C23 N11 1_555 1_555
H13 C23 1_555 1_555
C24 C23 1_555 1_555
H14 C24 1_555 1_555
C25 C24 1_555 1_555
C26 C25 1_555 1_555
H15 C26 1_555 1_555
C27 N11 1_555 1_555
H16 C27 1_555 1_555
C28 H17 1_555 1_555
C29 C28 1_555 1_555
H18 C29 1_555 1_555
C30 C29 1_555 1_555
C31 C30 1_555 1_555
H19 C31 1_555 1_555
C32 N12 1_555 1_555
H20 C32 1_555 1_555
C33 H21 1_555 1_555
C34 C33 1_555 1_555
H22 C34 1_555 1_555
C35 C34 1_555 1_555
C36 C35 1_555 1_555
H23 C36 1_555 1_555
C37 N13 1_555 1_555
H24 C37 1_555 1_555
C38 C25 1_555 1_555
C39 N14 1_555 1_555
C40 N15 1_555 1_555
O1 Fe1 1_555 1_555
H25 O1 1_555 1_555
C41 O1 1_555 1_555
H26 C41 1_555 1_555
H27 C41 1_555 1_555
C42 C41 1_555 1_555
C43 C42 1_555 1_555
H28 C43 1_555 1_555
C44 C43 1_555 1_555
H29 C44 1_555 1_555
C45 C44 1_555 1_555
H30 C45 1_555 1_555
C46 C45 1_555 1_555
H31 C46 1_555 1_555
C47 C42 1_555 1_555
H32 C47 1_555 1_555
O2 Fe2 1_555 1_555
H33 O2 1_555 1_555
C48 O2 1_555 1_555
H34 C48 1_555 1_555
H35 C48 1_555 1_555
C49 C48 1_555 1_555
C50 C49 1_555 1_555
H36 C50 1_555 1_555
C51 C50 1_555 1_555
H37 C51 1_555 1_555
C52 C51 1_555 1_555
H38 C52 1_555 1_555
C53 C52 1_555 1_555
H39 C53 1_555 1_555
C54 C49 1_555 1_555
H40 C54 1_555 1_555
O3 H41 1_555 1_555
C55 O3 1_555 1_555
H42 C55 1_555 1_555
H43 C55 1_555 1_555
C56 C55 1_555 1_555
C57 C56 1_555 1_555
H44 C57 1_555 1_555
C58 C56 1_555 1_555
H45 C58 1_555 1_555
C59 C57 1_555 1_555
H46 C59 1_555 1_555
C60 C59 1_555 1_555
H47 C60 1_555 1_555
C61 C58 1_555 1_555
H48 C61 1_555 1_555
O4 H49 1_555 1_555
C62 O4 1_555 1_555
H50 C62 1_555 1_555
H51 C62 1_555 1_555
C63 C62 1_555 1_555
C64 C63 1_555 1_555
H52 C64 1_555 1_555
C65 C64 1_555 1_555
H53 C65 1_555 1_555
C66 C65 1_555 1_555
H54 C66 1_555 1_555
C67 C66 1_555 1_555
H55 C67 1_555 1_555
C68 C63 1_555 1_555
H56 C68 1_555 1_555
O5 H57 1_555 1_555
C69 O5 1_555 1_555
H58 C69 1_555 1_555
H59 C69 1_555 1_555
C70 C69 1_555 1_555
C71 C70 1_555 1_555
H60 C71 1_555 1_555
C72 C71 1_555 1_555
H61 C72 1_555 1_555
C73 C72 1_555 1_555
H62 C73 1_555 1_555
C74 C73 1_555 1_555
H63 C74 1_555 1_555
C75 C70 1_555 1_555
H64 C75 1_555 1_555
O6 H65 1_555 1_555
C76 O6 1_555 1_555
H66 C76 1_555 1_555
H67 C76 1_555 1_555
C77 C76 1_555 1_555
C78 C77 1_555 1_555
H68 C78 1_555 1_555
C79 C78 1_555 1_555
H69 C79 1_555 1_555
C80 C79 1_555 1_555
H70 C80 1_555 1_555
C81 C80 1_555 1_555
H71 C81 1_555 1_555
C82 C77 1_555 1_555
H72 C82 1_555 1_555
O7 H73 1_555 1_555
H74 O7 1_555 1_555
Fe1A N7 1_555 1_555
Fe2_2 N12 1_555 1_555
Fe2A N13 1_555 1_555
N7A Fe1 1_555 1_555
N12_2 Fe2 1_555 1_555
N13A Fe2 1_555 1_555
N10 C22 1_555 1_555
C8 C9 1_555 1_555
C12 C21 1_555 1_555
C13 C14 1_555 1_555
C17 C22 1_555 1_555
C18 C19 1_555 1_555
N16 C40 1_555 1_555
C26 C27 1_555 1_555
C30 C39 1_555 1_555
C31 C32 1_555 1_555
C35 C40 1_555 1_555
C36 C37 1_555 1_555
C46 C47 1_555 1_555
C53 C54 1_555 1_555
C60 C61 1_555 1_555
C67 C68 1_555 1_555
C74 C75 1_555 1_555
C81 C82 1_555 1_555

#END
