
#######################################################################
#
#                 Cambridge Crystallographic Data Centre
#                                CCDC 
#
#######################################################################
#
# If this CIF has been generated from an entry in the Cambridge 
# Structural Database, then it will include bibliographic, chemical, 
# crystal, experimental, refinement or atomic coordinate data resulting 
# from the CCDC's data processing and validation procedures.
#
#######################################################################

data_XANLEF
_symmetry_cell_setting           rhombohedral
_symmetry_space_group_name_H-M   'R 3'
_symmetry_Int_Tables_number      146
_space_group_name_Hall           'R 3'
loop_
_symmetry_equiv_pos_site_id
_symmetry_equiv_pos_as_xyz
1 x,y,z
2 -y,x-y,z
3 -x+y,-x,z
4 2/3+x,1/3+y,1/3+z
5 2/3-y,1/3+x-y,1/3+z
6 2/3-x+y,1/3-x,1/3+z
7 1/3+x,2/3+y,2/3+z
8 1/3-y,2/3+x-y,2/3+z
9 1/3-x+y,2/3-x,2/3+z
_cell_length_a                   29.5850(5)
_cell_length_b                   29.5850(5)
_cell_length_c                   72.4624(11)
_cell_angle_alpha                90
_cell_angle_beta                 90
_cell_angle_gamma                120
_cell_volume                     54927.1
loop_
_atom_site_label
_atom_site_type_symbol
_atom_site_fract_x
_atom_site_fract_y
_atom_site_fract_z
C1 C 0.4000(9) -0.1742(10) 0.4051(2)
C2 C 0.4526(7) -0.1444(9) 0.4096(2)
C3 C 0.4710(9) -0.0972(7) 0.4188(2)
C4 C 0.4368(9) -0.0797(9) 0.4235(2)
C5 C 0.3842(7) -0.1094(8) 0.4190(3)
C6 C 0.3658(9) -0.1566(7) 0.4098(3)
C7 C 0.3813(10) -0.2259(11) 0.3951(3)
C8 C 0.5804(10) 0.1806(9) 0.4936(2)
C9 C 0.6060(9) 0.1566(7) 0.4858(3)
C10 C 0.5801(7) 0.1162(8) 0.4732(3)
C11 C 0.5288(8) 0.0999(8) 0.4684(2)
C12 C 0.5032(8) 0.1239(7) 0.4761(3)
C13 C 0.5291(7) 0.1644(9) 0.4887(3)
C14 C 0.3495(9) -0.0858(10) 0.4249(4)
C15 C 0.7421(6) 0.2482(6) 0.5734(3)
C16 C 0.7344(7) 0.2376(7) 0.5922(3)
C17 C 0.7525(7) 0.2074(8) 0.6006(3)
C18 C 0.7784(7) 0.1879(7) 0.5902(3)
C19 C 0.7861(7) 0.1985(8) 0.5714(3)
C20 C 0.7680(7) 0.2286(8) 0.5630(3)
C21 C 0.6105(11) 0.2258(10) 0.5077(3)
C22 C 0.9226(6) 0.0691(5) 0.6581(3)
C23 C 0.8941(8) 0.0919(7) 0.6642(3)
C24 C 0.8706(8) 0.1089(7) 0.6515(3)
C25 C 0.8755(7) 0.1031(7) 0.6327(3)
C26 C 0.9040(8) 0.0803(7) 0.6266(3)
C27 C 0.9276(7) 0.0633(6) 0.6393(3)
C28 C 0.3573(16) -0.0790(17) 0.4443(4)
C29 C 0.2974(14) -0.1177(11) 0.4192(6)
C30 C 0.3695(14) -0.0370(15) 0.4162(5)
C31 C 0.5253(11) -0.0687(9) 0.4230(3)
C32 C 0.4459(10) 0.1035(9) 0.4705(4)
C33 C 0.4257(12) 0.1310(15) 0.4801(6)
C34 C 0.4198(15) 0.0520(14) 0.4780(6)
C35 C 0.4355(17) 0.0984(15) 0.4517(4)
C36 C 0.6103(9) 0.0944(9) 0.4661(4)
C37 C 0.6033(10) -0.0125(8) 0.4398(5)
C38 C 0.6426(13) -0.0151(10) 0.4254(4)
C39 C 0.6918(11) -0.0078(13) 0.4328(6)
C40 C 0.7116(11) 0.0308(11) 0.4477(6)
C41 C 0.6857(11) 0.0622(8) 0.4532(6)
C42 C 0.6202(9) 0.0195(7) 0.4551(4)
C43 C 0.7236(6) 0.2812(8) 0.5630(4)
C44 C 0.8152(10) 0.1757(10) 0.5602(4)
C45 C 0.7876(15) 0.1212(11) 0.5620(6)
C46 C 0.8663(11) 0.2024(16) 0.5672(6)
C47 C 0.8182(17) 0.1888(16) 0.5414(4)
C48 C 0.7424(10) 0.1971(12) 0.6197(3)
C49 C 0.9486(8) 0.0503(6) 0.6726(4)
C50 C 0.9089(10) 0.0749(10) 0.6054(3)
C51 C 0.9333(17) 0.0452(16) 0.6021(6)
C52 C 0.9427(15) 0.1267(11) 0.5993(5)
C53 C 0.8624(12) 0.0570(16) 0.5964(5)
C54 C 0.8437(12) 0.1308(10) 0.6603(3)
C55 C 0.7677(12) 0.1924(17) 0.6510(3)
C56 C 0.7223(12) 0.1936(18) 0.6612(4)
C57 C 0.7331(15) 0.2126(19) 0.6807(4)
C58 C 0.7845(14) 0.2268(14) 0.6881(4)
C59 C 0.8034(16) 0.1884(16) 0.6828(3)
C60 C 0.8114(11) 0.1957(12) 0.6602(3)
Cl1 Cl 0.4767(5) -0.0427(5) 0.47430(19)
Cl2 Cl 0.8989(5) 0.2328(5) 0.61839(19)
Mn1 Mn 0.5192(4) 0.0084(4) 0.44773(17)
Mn2 Mn 0.8151(4) 0.1548(4) 0.62463(17)
N1 N 0.5505(9) -0.0377(8) 0.4377(4)
N2 N 0.5914(8) 0.0451(8) 0.4599(4)
N3 N 0.7682(11) 0.1857(14) 0.6320(3)
N4 N 0.8307(12) 0.1631(12) 0.6522(3)
O1 O 0.4160(10) -0.2413(11) 0.3910(4)
O2 O 0.3276(10) -0.2483(10) 0.3915(4)
O3 O 0.4582(9) -0.0300(8) 0.4321(3)
O4 O 0.6587(11) 0.2402(10) 0.5141(3)
O5 O 0.5853(11) 0.2528(10) 0.5136(4)
O6 O 0.5021(8) 0.0604(9) 0.4548(3)
O7 O 0.7086(9) 0.3121(9) 0.5720(4)
O8 O 0.7225(10) 0.2762(10) 0.5442(3)
O9 O 0.7961(8) 0.1551(8) 0.5979(3)
O10 O 0.9388(10) 0.0532(10) 0.6909(3)
O11 O 0.9790(10) 0.0322(10) 0.6647(4)
O12 O 0.8522(8) 0.1177(8) 0.6191(3)
Zn1 Zn 0.7011 0.2995 0.5263
Zn2 Zn 0.9641 -0.0719 0.7103
Zn3 Zn 0.6667 0.3333 0.5617
Zn4 Zn 1.0000 0.0000 0.6764
O13 O 1.0000 0.0000 0.7105
O14 O 0.6667 0.3334 0.5365
C1A C 1.1742(10) 0.5742(13) 0.4051(2)
C1E C 1.0925(13) -0.0667(9) 0.7384(2)
C2A C 1.1444(9) 0.5970(11) 0.4096(2)
C2E C 1.0697(11) -0.1193(7) 0.7429(2)
C3A C 1.0972(7) 0.5682(11) 0.4188(2)
C3E C 1.0985(11) -0.1377(9) 0.7521(2)
C4A C 1.0797(9) 0.5165(13) 0.4235(2)
C4E C 1.1502(13) -0.1035(9) 0.7568(2)
C5A C 1.1094(8) 0.4936(11) 0.4190(3)
C5E C 1.1731(11) -0.0509(7) 0.7523(3)
C6A C 1.1566(7) 0.5224(11) 0.4098(3)
C6E C 1.1443(11) -0.0325(9) 0.7431(3)
C7A C 1.2259(11) 0.6072(15) 0.3951(3)
C7E C 1.0595(15) -0.0480(10) 0.7284(3)
C8A C 0.8194(9) 0.3998(13) 0.4936(2)
C8E C 1.2669(13) -0.2471(10) 0.8269(2)
C9A C 0.8434(7) 0.4494(11) 0.4858(3)
C9E C 1.2173(11) -0.2727(9) 0.8191(3)
C10A C 0.8838(8) 0.4639(11) 0.4732(3)
C10E C 1.2028(11) -0.2468(7) 0.8065(3)
C11A C 0.9001(8) 0.4289(11) 0.4684(2)
C11E C 1.2378(11) -0.1955(8) 0.8017(2)
C12A C 0.8761(7) 0.3793(11) 0.4761(3)
C12E C 1.2874(11) -0.1699(8) 0.8094(3)
C13A C 0.8356(9) 0.3647(11) 0.4887(3)
C13E C 1.3020(11) -0.1958(7) 0.8220(3)
C14A C 1.0858(10) 0.4353(13) 0.4249(4)
C14E C 1.2314(13) -0.0162(9) 0.7582(4)
C15A C 0.7518(6) -0.5061(8) 0.5734(3)
C15B C 1.5061(8) 0.2579(6) 0.5734(3)
C16A C 0.7624(7) -0.5032(10) 0.5922(3)
C16B C 1.5032(10) 0.2656(7) 0.5922(3)
C17A C 0.7926(8) -0.4549(11) 0.6006(3)
C17B C 1.4549(11) 0.2475(7) 0.6006(3)
C18A C 0.8121(7) -0.4095(10) 0.5902(3)
C18B C 1.4095(10) 0.2216(7) 0.5902(3)
C19A C 0.8015(8) -0.4124(11) 0.5714(3)
C19B C 1.4124(11) 0.2139(7) 0.5714(3)
C20A C 0.7714(8) -0.4606(11) 0.5630(3)
C20B C 1.4606(11) 0.2320(7) 0.5630(3)
C21A C 0.7742(10) 0.3847(15) 0.5077(3)
C21E C 1.2820(15) -0.2772(11) 0.8410(3)
C22A C 0.9309(5) -0.1465(8) 0.6581(3)
C22B C 1.1465(8) 0.0774(6) 0.6581(3)
C23A C 0.9081(7) -0.1978(11) 0.6642(3)
C23B C 1.1978(11) 0.1059(8) 0.6642(3)
C24A C 0.8911(7) -0.2383(11) 0.6515(3)
C24B C 1.2383(11) 0.1294(8) 0.6515(3)
C25A C 0.8969(7) -0.2276(10) 0.6327(3)
C25B C 1.2276(10) 0.1245(7) 0.6327(3)
C26A C 0.9197(7) -0.1763(11) 0.6266(3)
C26B C 1.1763(11) 0.0960(8) 0.6266(3)
C27A C 0.9367(6) -0.1357(9) 0.6393(3)
C27B C 1.1357(9) 0.0724(7) 0.6393(3)
C28A C 1.0790(17) 0.4363(23) 0.4443(4)
C28E C 1.2304(23) -0.0240(16) 0.7776(4)
C29A C 1.1177(11) 0.4151(18) 0.4192(6)
C29E C 1.2516(18) 0.0359(14) 0.7525(6)
C30A C 1.0370(15) 0.4065(21) 0.4162(5)
C30E C 1.2602(21) -0.0362(14) 0.7495(5)
C31A C 1.0687(9) 0.5940(14) 0.4230(3)
C31E C 1.0727(14) -0.1920(11) 0.7563(3)
C32A C 0.8965(9) 0.3424(13) 0.4705(4)
C32E C 1.3243(13) -0.1126(10) 0.8038(4)
C33A C 0.8690(15) 0.2947(19) 0.4801(6)
C33E C 1.3720(19) -0.0924(12) 0.8134(6)
C34A C 0.9480(14) 0.3678(21) 0.4780(6)
C34E C 1.2989(21) -0.0865(15) 0.8113(6)
C35A C 0.9016(15) 0.3371(23) 0.4517(4)
C35E C 1.3296(23) -0.1022(17) 0.7850(4)
C36A C 0.9056(9) 0.5159(13) 0.4661(4)
C36E C 1.1508(13) -0.2770(9) 0.7994(4)
C37A C 1.0125(8) 0.6158(13) 0.4398(5)
C37E C 1.0509(13) -0.2700(10) 0.7731(5)
C38A C 1.0151(10) 0.6577(16) 0.4254(4)
C38E C 1.0090(16) -0.3093(13) 0.7587(4)
C39A C 1.0078(13) 0.6996(17) 0.4328(6)
C39E C 0.9671(17) -0.3585(11) 0.7661(6)
C40A C 0.9692(11) 0.6808(16) 0.4477(6)
C40E C 0.9859(16) -0.3783(11) 0.7810(6)
C41A C 0.9378(8) 0.6235(14) 0.4532(6)
C41E C 1.0432(14) -0.3524(11) 0.7865(6)
C42A C 0.9805(7) 0.6007(11) 0.4551(4)
C42E C 1.0660(11) -0.2869(9) 0.7884(4)
C43A C 0.7188(8) -0.5576(10) 0.5630(4)
C43B C 1.5576(10) 0.2764(6) 0.5630(4)
C44A C 0.8243(10) -0.3605(14) 0.5602(4)
C44B C 1.3605(14) 0.1848(10) 0.5602(4)
C45A C 0.8788(11) -0.3336(19) 0.5620(6)
C45B C 1.3336(19) 0.2124(15) 0.5620(6)
C46A C 0.7976(16) -0.3361(19) 0.5672(6)
C46B C 1.3361(19) 0.1337(11) 0.5672(6)
C47A C 0.8112(16) -0.3706(23) 0.5414(4)
C47B C 1.3706(23) 0.1818(17) 0.5414(4)
C48A C 0.8029(12) -0.4547(16) 0.6197(3)
C48B C 1.4547(16) 0.2576(10) 0.6197(3)
C49A C 0.9497(6) -0.1017(10) 0.6726(4)
C49B C 1.1017(10) 0.0514(8) 0.6726(4)
C50A C 0.9251(10) -0.1660(14) 0.6054(3)
C50B C 1.1660(14) 0.0911(10) 0.6054(3)
C51A C 0.9548(16) -0.1119(23) 0.6021(6)
C51B C 1.1119(23) 0.0667(17) 0.6021(6)
C52A C 0.8733(11) -0.1840(19) 0.5993(5)
C52B C 1.1840(19) 0.0573(15) 0.5993(5)
C53A C 0.9430(16) -0.1946(20) 0.5964(5)
C53B C 1.1946(20) 0.1376(12) 0.5964(5)
C54A C 0.8692(10) -0.2871(16) 0.6603(3)
C54B C 1.2871(16) 0.1563(12) 0.6603(3)
C55A C 0.8076(17) -0.4247(21) 0.6510(3)
C55B C 1.4247(21) 0.2323(12) 0.6510(3)
C56A C 0.8064(18) -0.4713(22) 0.6612(4)
C56B C 1.4713(22) 0.2777(12) 0.6612(4)
C57A C 0.7874(19) -0.4795(24) 0.6807(4)
C57B C 1.4795(24) 0.2669(15) 0.6807(4)
C58A C 0.7732(14) -0.4423(20) 0.6881(4)
C58B C 1.4423(20) 0.2155(14) 0.6881(4)
C59A C 0.8116(16) -0.3850(23) 0.6828(3)
C59B C 1.3850(23) 0.1966(16) 0.6828(3)
C60A C 0.8043(12) -0.3843(16) 0.6602(3)
C60B C 1.3843(16) 0.1886(11) 0.6602(3)
Cl1A Cl 1.0427(5) 0.5194(7) 0.47430(19)
Cl1E Cl 1.1473(7) -0.1434(5) 0.80763(19)
Cl2A Cl 0.7672(5) -0.3339(7) 0.61839(19)
Cl2B Cl 1.3339(7) 0.1011(5) 0.61839(19)
Mn1A Mn 0.9916(4) 0.5108(6) 0.44773(17)
Mn1E Mn 1.1559(6) -0.1859(4) 0.78106(17)
Mn2A Mn 0.8452(4) -0.3397(6) 0.62463(17)
Mn2B Mn 1.3397(6) 0.1849(4) 0.62463(17)
N1A N 1.0377(8) 0.5882(12) 0.4377(4)
N1E N 1.0785(12) -0.2172(9) 0.7710(4)
N2A N 0.9549(8) 0.5463(11) 0.4599(4)
N2E N 1.1204(11) -0.2581(8) 0.7932(4)
N3A N 0.8143(14) -0.4175(18) 0.6320(3)
N3B N 1.4175(18) 0.2318(11) 0.6320(3)
N4A N 0.8369(12) -0.3324(17) 0.6522(3)
N4B N 1.3324(17) 0.1693(12) 0.6522(3)
O1A O 1.2413(11) 0.6573(15) 0.3910(4)
O1E O 1.0094(15) -0.0827(10) 0.7243(4)
O1D O 0.9080(11) -0.0094(15) 0.7243(4)
O1C O 1.0827(10) 0.0920(11) 0.7243(4)
O2A O 1.2483(10) 0.5759(14) 0.3915(4)
O2E O 1.0908(14) 0.0057(10) 0.7248(4)
O2D O 0.9150(10) -0.0908(14) 0.7248(4)
O2C O 0.9943(10) 0.0850(10) 0.7248(4)
O3A O 1.0300(8) 0.4882(12) 0.4321(3)
O3E O 1.1785(12) -0.1249(9) 0.7654(3)
O4A O 0.7598(10) 0.4185(15) 0.5141(3)
O4E O 1.2482(15) -0.3254(11) 0.8474(3)
O4A_2 O 0.7598(10) -0.5815(15) 0.5141(3)
O4B O 1.5815(15) 0.3413(11) 0.5141(3)
O5A O 0.7472(10) 0.3325(15) 0.5136(4)
O5E O 1.3342(15) -0.2520(11) 0.8469(4)
O5B O 0.6675(15) -0.5853(11) 0.5136(4)
O5_2 O 1.5853(11) 0.2528(10) 0.5136(4)
O6A O 0.9396(9) 0.4417(12) 0.4548(3)
O6E O 1.2250(12) -0.1688(8) 0.7881(3)
O7A O 0.6879(9) -0.6035(13) 0.5720(4)
O7B O 1.6035(13) 0.2914(9) 0.5720(4)
O7B_2 O 0.6035(13) 0.2914(9) 0.5720(4)
O7A_2 O 0.6879(9) 0.3965(13) 0.5720(4)
O7_2 O 0.7086(9) -0.6879(9) 0.5720(4)
O7B_3 O 0.6035(13) -0.7086(9) 0.5720(4)
O7A_3 O 1.6879(9) 0.3965(13) 0.5720(4)
O7_3 O 1.7086(9) 0.3121(9) 0.5720(4)
O8A O 0.7238(10) -0.5537(14) 0.5442(3)
O8B O 1.5537(14) 0.2775(10) 0.5442(3)
O9A O 0.8449(8) -0.3590(11) 0.5979(3)
O9B O 1.3590(11) 0.2039(8) 0.5979(3)
O10A O 0.9468(10) -0.1144(14) 0.6909(3)
O10B O 1.1144(14) 0.0612(10) 0.6909(3)
O11A O 0.9678(10) -0.0532(14) 0.6647(4)
O11B O 1.0532(14) 0.0210(10) 0.6647(4)
O12A O 0.8823(8) -0.2655(11) 0.6191(3)
O12B O 1.2655(11) 0.1478(8) 0.6191(3)
Zn1A Zn 0.7005 -0.5984 0.5263
Zn1B Zn 1.5984 0.2989 0.5263
Zn1B_2 Zn 0.5984 0.2989 0.5263
Zn1A_2 Zn 0.7005 0.4016 0.5263
Zn1E Zn 1.2651 -0.3678 0.8596
Zn1D Zn 1.3672 -0.2651 0.8596
Zn1_2 Zn 0.7011 -0.7005 0.5263
Zn1B_3 Zn 0.5984 -0.7011 0.5263
Zn1A_3 Zn 1.7005 0.4016 0.5263
Zn1_3 Zn 1.7011 0.2995 0.5263
Zn2B Zn 0.9640 0.0359 0.7103
Zn2A Zn 1.0719 0.0360 0.7103
Zn2G Zn 0.4052 -0.2973 0.3770
Zn2H Zn 0.2973 -0.2974 0.3770
Zn2H_2 Zn 1.2973 0.7026 0.3770
Zn2F Zn 1.2974 0.5948 0.3770
Zn3A Zn 0.6667 -0.6666 0.5617
Zn3B Zn 1.6666 0.3333 0.5617
O14A O 0.6666 -0.6667 0.5365
O14B O 1.6667 0.3333 0.5365
loop_
_geom_bond_atom_site_label_1
_geom_bond_atom_site_label_2
_geom_bond_site_symmetry_1
_geom_bond_site_symmetry_2
C1 C2 1_555 1_555
C2 C3 1_555 1_555
C3 C4 1_555 1_555
C4 C5 1_555 1_555
C5 C6 1_555 1_555
C6 C1 1_555 1_555
C7 C1 1_555 1_555
C8 C9 1_555 1_555
C9 C10 1_555 1_555
C10 C11 1_555 1_555
C11 C12 1_555 1_555
C12 C13 1_555 1_555
C13 C8 1_555 1_555
C14 C5 1_555 1_555
C15 C16 1_555 1_555
C16 C17 1_555 1_555
C17 C18 1_555 1_555
C18 C19 1_555 1_555
C19 C20 1_555 1_555
C20 C15 1_555 1_555
C21 C8 1_555 1_555
C22 C23 1_555 1_555
C23 C24 1_555 1_555
C24 C25 1_555 1_555
C25 C26 1_555 1_555
C26 C27 1_555 1_555
C27 C22 1_555 1_555
C28 C14 1_555 1_555
C29 C14 1_555 1_555
C30 C14 1_555 1_555
C31 C3 1_555 1_555
C32 C12 1_555 1_555
C33 C32 1_555 1_555
C34 C32 1_555 1_555
C35 C32 1_555 1_555
C36 C10 1_555 1_555
C37 C38 1_555 1_555
C38 C39 1_555 1_555
C39 C40 1_555 1_555
C40 C41 1_555 1_555
C41 C42 1_555 1_555
C42 C37 1_555 1_555
C43 C15 1_555 1_555
C44 C19 1_555 1_555
C45 C44 1_555 1_555
C46 C44 1_555 1_555
C47 C44 1_555 1_555
C48 C17 1_555 1_555
C49 C22 1_555 1_555
C50 C26 1_555 1_555
C51 C50 1_555 1_555
C52 C50 1_555 1_555
C53 C50 1_555 1_555
C54 C24 1_555 1_555
C55 C56 1_555 1_555
C56 C57 1_555 1_555
C57 C58 1_555 1_555
C58 C59 1_555 1_555
C59 C60 1_555 1_555
C60 C55 1_555 1_555
Cl1 Mn1 1_555 1_555
Cl2 Mn2 1_555 1_555
Mn1 N1 1_555 1_555
Mn2 N3 1_555 1_555
N1 C31 1_555 1_555
N2 C36 1_555 1_555
N3 C48 1_555 1_555
N4 C54 1_555 1_555
O1 C7 1_555 1_555
O2 C7 1_555 1_555
O3 C4 1_555 1_555
O4 C21 1_555 1_555
O5 C21 1_555 1_555
O6 C11 1_555 1_555
O7 C43 1_555 1_555
O8 C43 1_555 1_555
O9 C18 1_555 1_555
O10 C49 1_555 1_555
O11 C49 1_555 1_555
O12 C25 1_555 1_555
Zn1 O4 1_555 1_555
Zn2 O13 1_555 1_555
Zn3 O7 1_555 1_555
Zn4 O11 1_555 1_555
O13 Zn4 1_555 1_555
O14 Zn1 1_555 1_555
C1A C2A 1_555 1_555
C1E C2E 1_555 1_555
C2A C3A 1_555 1_555
C2E C3E 1_555 1_555
C3A C4A 1_555 1_555
C3E C4E 1_555 1_555
C4A C5A 1_555 1_555
C4E C5E 1_555 1_555
C5A C6A 1_555 1_555
C5E C6E 1_555 1_555
C6A C1A 1_555 1_555
C6E C1E 1_555 1_555
C7A C1A 1_555 1_555
C7E C1E 1_555 1_555
C8A C9A 1_555 1_555
C8E C9E 1_555 1_555
C9A C10A 1_555 1_555
C9E C10E 1_555 1_555
C10A C11A 1_555 1_555
C10E C11E 1_555 1_555
C11A C12A 1_555 1_555
C11E C12E 1_555 1_555
C12A C13A 1_555 1_555
C12E C13E 1_555 1_555
C13A C8A 1_555 1_555
C13E C8E 1_555 1_555
C14A C5A 1_555 1_555
C14E C5E 1_555 1_555
C15A C16A 1_555 1_555
C15B C16B 1_555 1_555
C16A C17A 1_555 1_555
C16B C17B 1_555 1_555
C17A C18A 1_555 1_555
C17B C18B 1_555 1_555
C18A C19A 1_555 1_555
C18B C19B 1_555 1_555
C19A C20A 1_555 1_555
C19B C20B 1_555 1_555
C20A C15A 1_555 1_555
C20B C15B 1_555 1_555
C21A C8A 1_555 1_555
C21E C8E 1_555 1_555
C22A C23A 1_555 1_555
C22B C23B 1_555 1_555
C23A C24A 1_555 1_555
C23B C24B 1_555 1_555
C24A C25A 1_555 1_555
C24B C25B 1_555 1_555
C25A C26A 1_555 1_555
C25B C26B 1_555 1_555
C26A C27A 1_555 1_555
C26B C27B 1_555 1_555
C27A C22A 1_555 1_555
C27B C22B 1_555 1_555
C28A C14A 1_555 1_555
C28E C14E 1_555 1_555
C29A C14A 1_555 1_555
C29E C14E 1_555 1_555
C30A C14A 1_555 1_555
C30E C14E 1_555 1_555
C31A C3A 1_555 1_555
C31E C3E 1_555 1_555
C32A C12A 1_555 1_555
C32E C12E 1_555 1_555
C33A C32A 1_555 1_555
C33E C32E 1_555 1_555
C34A C32A 1_555 1_555
C34E C32E 1_555 1_555
C35A C32A 1_555 1_555
C35E C32E 1_555 1_555
C36A C10A 1_555 1_555
C36E C10E 1_555 1_555
C37A C38A 1_555 1_555
C37E C38E 1_555 1_555
C38A C39A 1_555 1_555
C38E C39E 1_555 1_555
C39A C40A 1_555 1_555
C39E C40E 1_555 1_555
C40A C41A 1_555 1_555
C40E C41E 1_555 1_555
C41A C42A 1_555 1_555
C41E C42E 1_555 1_555
C42A C37A 1_555 1_555
C42E C37E 1_555 1_555
C43A C15A 1_555 1_555
C43B C15B 1_555 1_555
C44A C19A 1_555 1_555
C44B C19B 1_555 1_555
C45A C44A 1_555 1_555
C45B C44B 1_555 1_555
C46A C44A 1_555 1_555
C46B C44B 1_555 1_555
C47A C44A 1_555 1_555
C47B C44B 1_555 1_555
C48A C17A 1_555 1_555
C48B C17B 1_555 1_555
C49A C22A 1_555 1_555
C49B C22B 1_555 1_555
C50A C26A 1_555 1_555
C50B C26B 1_555 1_555
C51A C50A 1_555 1_555
C51B C50B 1_555 1_555
C52A C50A 1_555 1_555
C52B C50B 1_555 1_555
C53A C50A 1_555 1_555
C53B C50B 1_555 1_555
C54A C24A 1_555 1_555
C54B C24B 1_555 1_555
C55A C56A 1_555 1_555
C55B C56B 1_555 1_555
C56A C57A 1_555 1_555
C56B C57B 1_555 1_555
C57A C58A 1_555 1_555
C57B C58B 1_555 1_555
C58A C59A 1_555 1_555
C58B C59B 1_555 1_555
C59A C60A 1_555 1_555
C59B C60B 1_555 1_555
C60A C55A 1_555 1_555
C60B C55B 1_555 1_555
Cl1A Mn1A 1_555 1_555
Cl1E Mn1E 1_555 1_555
Cl2A Mn2A 1_555 1_555
Cl2B Mn2B 1_555 1_555
Mn1A N1A 1_555 1_555
Mn1E N1E 1_555 1_555
Mn2A N3A 1_555 1_555
Mn2B N3B 1_555 1_555
N1A C31A 1_555 1_555
N1E C31E 1_555 1_555
N2A C36A 1_555 1_555
N2E C36E 1_555 1_555
N3A C48A 1_555 1_555
N3B C48B 1_555 1_555
N4A C54A 1_555 1_555
N4B C54B 1_555 1_555
O1A C7A 1_555 1_555
O1E Zn2 1_555 1_555
O1D Zn2B 1_555 1_555
O1C Zn2A 1_555 1_555
O2A C7A 1_555 1_555
O2E C7E 1_555 1_555
O2D Zn2 1_555 1_555
O2C Zn2B 1_555 1_555
O3A C4A 1_555 1_555
O3E C4E 1_555 1_555
O4A C21A 1_555 1_555
O4E C21E 1_555 1_555
O4A_2 Zn1A 1_555 1_555
O4B Zn1B 1_555 1_555
O5A Zn1 1_555 1_555
O5E C21E 1_555 1_555
O5B Zn1A 1_555 1_555
O5_2 Zn1B 1_555 1_555
O6A C11A 1_555 1_555
O6E C11E 1_555 1_555
O7A C43A 1_555 1_555
O7B C43B 1_555 1_555
O7B_2 Zn3 1_555 1_555
O7A_2 Zn3 1_555 1_555
O7_2 Zn3A 1_555 1_555
O7B_3 Zn3A 1_555 1_555
O7A_3 Zn3B 1_555 1_555
O7_3 Zn3B 1_555 1_555
O8A C43A 1_555 1_555
O8B C43B 1_555 1_555
O9A C18A 1_555 1_555
O9B C18B 1_555 1_555
O10A Zn2 1_555 1_555
O10B C49B 1_555 1_555
O11A Zn4 1_555 1_555
O11B Zn4 1_555 1_555
O12A C25A 1_555 1_555
O12B C25B 1_555 1_555
Zn1A O8A 1_555 1_555
Zn1B O8B 1_555 1_555
Zn1B_2 O5 1_555 1_555
Zn1A_2 O14 1_555 1_555
Zn1E O4E 1_555 1_555
Zn1D O5E 1_555 1_555
Zn1_2 O14A 1_555 1_555
Zn1B_3 O14A 1_555 1_555
Zn1A_3 O14B 1_555 1_555
Zn1_3 O14B 1_555 1_555
Zn2B O10 1_555 1_555
Zn2A O13 1_555 1_555
Zn2G O1 1_555 1_555
Zn2H O2 1_555 1_555
Zn2H_2 O1A 1_555 1_555
Zn2F O2A 1_555 1_555
Zn3A O7A 1_555 1_555
Zn3B O7B 1_555 1_555
O14A Zn1A 1_555 1_555
O14B Zn1B 1_555 1_555
C37 N1 1_555 1_555
C42 N2 1_555 1_555
C55 N3 1_555 1_555
C60 N4 1_555 1_555
Mn1 N2 1_555 1_555
Mn1 O3 1_555 1_555
Mn1 O6 1_555 1_555
Mn2 N4 1_555 1_555
Mn2 O9 1_555 1_555
Mn2 O12 1_555 1_555
O8 Zn1 1_555 1_555
Zn3 O14 1_555 1_555
O13 Zn2B 1_555 1_555
O14 Zn1B_2 1_555 1_555
C7E O1E 1_555 1_555
C21A O5A 1_555 1_555
C37A N1A 1_555 1_555
C37E N1E 1_555 1_555
C42A N2A 1_555 1_555
C42E N2E 1_555 1_555
C49A O10A 1_555 1_555
C49A O11A 1_555 1_555
C49B O11B 1_555 1_555
C55A N3A 1_555 1_555
C55B N3B 1_555 1_555
C60A N4A 1_555 1_555
C60B N4B 1_555 1_555
Mn1A N2A 1_555 1_555
Mn1A O3A 1_555 1_555
Mn1A O6A 1_555 1_555
Mn1E N2E 1_555 1_555
Mn1E O3E 1_555 1_555
Mn1E O6E 1_555 1_555
Mn2A N4A 1_555 1_555
Mn2A O9A 1_555 1_555
Mn2A O12A 1_555 1_555
Mn2B N4B 1_555 1_555
Mn2B O9B 1_555 1_555
Mn2B O12B 1_555 1_555
O2E Zn2A 1_555 1_555
O4A Zn1A_2 1_555 1_555
O10B Zn2A 1_555 1_555
Zn3A O14A 1_555 1_555
Zn3B O14B 1_555 1_555

#END
