
#######################################################################
#
#                 Cambridge Crystallographic Data Centre
#                                CCDC 
#
#######################################################################
#
# If this CIF has been generated from an entry in the Cambridge 
# Structural Database, then it will include bibliographic, chemical, 
# crystal, experimental, refinement or atomic coordinate data resulting 
# from the CCDC's data processing and validation procedures.
#
#######################################################################

data_XANLIJ
_symmetry_cell_setting           rhombohedral
_symmetry_space_group_name_H-M   'R 3'
_symmetry_Int_Tables_number      146
_space_group_name_Hall           'R 3'
loop_
_symmetry_equiv_pos_site_id
_symmetry_equiv_pos_as_xyz
1 x,y,z
2 -y,x-y,z
3 -x+y,-x,z
4 2/3+x,1/3+y,1/3+z
5 2/3-y,1/3+x-y,1/3+z
6 2/3-x+y,1/3-x,1/3+z
7 1/3+x,2/3+y,2/3+z
8 1/3-y,2/3+x-y,2/3+z
9 1/3-x+y,2/3-x,2/3+z
_cell_length_a                   35.8840(3)
_cell_length_b                   35.8840(3)
_cell_length_c                   87.911(2)
_cell_angle_alpha                90
_cell_angle_beta                 90
_cell_angle_gamma                120
_cell_volume                     98033.7
loop_
_atom_site_label
_atom_site_type_symbol
_atom_site_fract_x
_atom_site_fract_y
_atom_site_fract_z
C1 C 0.5805(6) 0.4359(8) 0.52123(19)
C2 C 0.5902(5) 0.4775(7) 0.5176(2)
C3 C 0.5640(7) 0.4840(6) 0.5076(2)
C4 C 0.5280(6) 0.4489(7) 0.5013(2)
C5 C 0.5183(6) 0.4074(6) 0.5050(2)
C6 C 0.5446(7) 0.4008(6) 0.5149(2)
C7 C 0.6201(6) 0.3771(5) 0.5472(3)
C8 C 0.4396(5) 0.5762(5) 0.4509(3)
C9 C 0.4345(5) 0.5681(6) 0.4665(3)
C10 C 0.4463(5) 0.5403(6) 0.4730(2)
C11 C 0.4633(5) 0.5205(5) 0.4640(3)
C12 C 0.4684(5) 0.5285(6) 0.4485(2)
C13 C 0.4565(5) 0.5564(6) 0.4419(2)
C14 C 0.4810(7) 0.3644(7) 0.4998(3)
C15 C 0.1058(6) 0.1943(5) 0.2815(3)
C16 C 0.0966(6) 0.2003(6) 0.2964(3)
C17 C 0.1119(7) 0.2416(6) 0.3020(2)
C18 C 0.1365(6) 0.2770(5) 0.2927(3)
C19 C 0.1459(7) 0.2711(6) 0.2779(2)
C20 C 0.1305(8) 0.2297(6) 0.2723(2)
C21 C 0.3812(6) 0.6160(6) 0.4280(3)
C22 C 0.2407(5) 0.4725(7) 0.3580(2)
C23 C 0.1997(6) 0.4545(5) 0.3518(2)
C24 C 0.1882(6) 0.4257(6) 0.3397(2)
C25 C 0.2178(5) 0.4151(6) 0.3339(2)
C26 C 0.2587(6) 0.4331(5) 0.3402(2)
C27 C 0.2701(6) 0.4618(7) 0.3522(2)
C28 C 0.4382(9) 0.3554(12) 0.5068(4)
C29 C 0.4819(12) 0.3699(11) 0.4823(3)
C30 C 0.4888(12) 0.3258(10) 0.5033(4)
C31 C 0.5779(8) 0.5273(7) 0.5048(3)
C32 C 0.6040(8) 0.4239(10) 0.5312(3)
C33 C 0.5922(9) 0.3858(9) 0.5371(3)
C34 C 0.4864(8) 0.5054(8) 0.4396(3)
C35 C 0.4701(11) 0.5078(11) 0.4235(3)
C36 C 0.4687(11) 0.4605(9) 0.4459(5)
C37 C 0.5350(8) 0.5337(11) 0.4437(4)
C38 C 0.4441(7) 0.5269(9) 0.4885(3)
C39 C 0.4283(8) 0.6043(7) 0.4442(4)
C40 C 0.3934(10) 0.5870(9) 0.4347(4)
C41 C 0.5630(7) 0.5830(6) 0.4903(3)
C42 C 0.6028(9) 0.6299(8) 0.4891(4)
C43 C 0.6104(9) 0.6515(9) 0.5045(4)
C44 C 0.5742(12) 0.6611(8) 0.5069(5)
C45 C 0.5318(10) 0.6183(10) 0.5087(5)
C46 C 0.5289(8) 0.5774(7) 0.5014(3)
Cl1 Cl 0.5015(4) 0.4903(4) 0.51449(14)
Mn1 Mn 0.5136(4) 0.5173(3) 0.48592(13)
N1 N 0.5725(7) 0.5503(7) 0.4917(3)
N2 N 0.4862(7) 0.5496(8) 0.4952(3)
O1 O 0.6226(5) 0.3863(5) 0.5624(2)
O2 O 0.6437(6) 0.3590(6) 0.5404(2)
O3 O 0.5026(8) 0.4557(7) 0.4906(3)
O4 O 0.3598(6) 0.6389(7) 0.4305(3)
O5 O 0.3891(7) 0.6356(6) 0.4138(2)
O6 O 0.4708(7) 0.4897(7) 0.4695(3)
C47 C 0.0360(8) 0.0932(8) 0.2585(2)
C48 C 0.1701(8) 0.3074(8) 0.2666(3)
C49 C 0.2154(10) 0.3429(12) 0.2699(4)
C50 C 0.1416(11) 0.3297(8) 0.2660(5)
C51 C 0.1669(11) 0.2872(11) 0.2506(3)
C52 C 0.1024(8) 0.2470(8) 0.3173(3)
C53 C 0.0927(9) 0.1540(7) 0.2743(4)
C54 C 0.0546(9) 0.1357(9) 0.2667(4)
C55 C 0.2820(6) 0.5754(7) 0.3806(2)
C56 C 0.2894(8) 0.4213(7) 0.3343(3)
C57 C 0.3336(11) 0.4548(12) 0.3416(4)
C58 C 0.2725(8) 0.3766(10) 0.3406(4)
C59 C 0.2901(12) 0.4231(12) 0.3172(3)
C60 C 0.1518(6) 0.4015(9) 0.3308(3)
C61 C 0.2611(7) 0.5024(10) 0.3704(3)
C62 C 0.2639(8) 0.5395(8) 0.3702(3)
C63 C 0.1402(8) 0.2963(7) 0.3412(2)
C64 C 0.1332(11) 0.2681(9) 0.3556(3)
C65 C 0.0857(9) 0.2352(11) 0.3578(4)
C66 C 0.0595(11) 0.2571(11) 0.3612(4)
C67 C 0.0812(11) 0.3052(9) 0.3560(4)
C68 C 0.1079(8) 0.3123(8) 0.3409(3)
Cl2 Cl 0.0818(4) 0.2978(4) 0.30976(15)
Mn2 Mn 0.1558(4) 0.3356(3) 0.31981(15)
N3 N 0.1386(7) 0.2779(7) 0.3275(3)
N4 N 0.1289(6) 0.3573(8) 0.3358(3)
O7 O -0.0075(7) 0.0759(7) 0.2533(2)
O8 O 0.0648(7) 0.0772(7) 0.2572(2)
O9 O 0.1504(7) 0.3185(7) 0.2973(2)
O10 O 0.2677(6) 0.5986(7) 0.3886(2)
O11 O 0.3234(5) 0.5961(5) 0.38507(18)
O12 O 0.2101(6) 0.3909(8) 0.3214(3)
Zn1 Zn 0.3610 0.6362 0.3968
Zn2 Zn 0.3333 0.6667 0.4264
O13 O 0.3334 0.6666 0.4025
Zn3 Zn 0.6667 0.3333 0.5497
Zn4 Zn 0.6387 0.3620 0.5779
O14 O 0.6667 0.3333 0.5714
C1B C 0.8554(10) 0.4195(6) 0.52123(19)
C1A C 0.5641(8) 0.1446(10) 0.52123(19)
C2B C 0.8873(9) 0.4098(5) 0.5176(2)
C2A C 0.5225(7) 0.1127(9) 0.5176(2)
C3B C 0.9200(9) 0.4360(7) 0.5076(2)
C3A C 0.5160(6) 0.0800(9) 0.5076(2)
C4B C 0.9209(9) 0.4720(6) 0.5013(2)
C4A C 0.5511(7) 0.0791(9) 0.5013(2)
C5B C 0.8891(8) 0.4817(6) 0.5050(2)
C5A C 0.5926(6) 0.1109(8) 0.5050(2)
C6B C 0.8562(9) 0.4554(7) 0.5149(2)
C6A C 0.5992(6) 0.1438(9) 0.5149(2)
C7B C 0.7570(8) 0.3799(6) 0.5472(3)
C7A C 0.6229(5) 0.2430(8) 0.5472(3)
C8B C 1.1366(7) 0.5604(5) 0.4509(3)
C8A C 0.4238(5) -0.1366(7) 0.4509(3)
C9B C 1.1336(8) 0.5655(5) 0.4665(3)
C9A C 0.4319(6) -0.1336(8) 0.4665(3)
C10B C 1.0940(8) 0.5537(5) 0.4730(2)
C10A C 0.4597(6) -0.0940(8) 0.4730(2)
C11B C 1.0572(7) 0.5367(5) 0.4640(3)
C11A C 0.4795(5) -0.0572(7) 0.4640(3)
C12B C 1.0601(8) 0.5316(5) 0.4485(2)
C12A C 0.4715(6) -0.0601(8) 0.4485(2)
C13B C 1.0999(8) 0.5435(5) 0.4419(2)
C13A C 0.4436(6) -0.0999(8) 0.4419(2)
C14B C 0.8834(10) 0.5190(7) 0.4998(3)
C14A C 0.6356(7) 0.1166(10) 0.4998(3)
C15A C 0.8057(5) 0.9115(8) 0.2815(3)
C15C C 0.7725(6) 0.5276(5) 0.6148(3)
C16A C 0.7997(6) 0.8963(8) 0.2964(3)
C16C C 0.7633(6) 0.5336(6) 0.6297(3)
C17A C 0.7584(6) 0.8703(9) 0.3020(2)
C17C C 0.7786(7) 0.5749(6) 0.6353(2)
C18A C 0.7230(5) 0.8595(8) 0.2927(3)
C18C C 0.8032(6) 0.6103(5) 0.6260(3)
C19A C 0.7289(6) 0.8748(9) 0.2779(2)
C19C C 0.8126(7) 0.6044(6) 0.6112(2)
C20A C 0.7703(6) 0.9008(10) 0.2723(2)
C20C C 0.7972(8) 0.5630(6) 0.6056(2)
C21B C 1.2348(8) 0.6188(6) 0.4280(3)
C21A C 0.3840(6) -0.2348(8) 0.4280(3)
C22A C 0.5275(7) 0.7682(9) 0.3580(2)
C22C C 0.9074(5) 0.8058(7) 0.6913(2)
C23A C 0.5455(5) 0.7452(8) 0.3518(2)
C23C C 0.8664(6) 0.7878(5) 0.6851(2)
C24A C 0.5743(6) 0.7625(8) 0.3397(2)
C24C C 0.8549(6) 0.7590(6) 0.6730(2)
C25A C 0.5849(6) 0.8027(8) 0.3339(2)
C25C C 0.8845(5) 0.7484(6) 0.6672(2)
C26A C 0.5669(5) 0.8256(8) 0.3402(2)
C26C C 0.9254(6) 0.7664(5) 0.6735(2)
C27A C 0.5382(7) 0.8083(9) 0.3522(2)
C27C C 0.9368(6) 0.7951(7) 0.6855(2)
C28B C 0.9172(15) 0.5618(9) 0.5068(4)
C28A C 0.6446(12) 0.0828(15) 0.5068(4)
C29B C 0.8880(16) 0.5181(12) 0.4823(3)
C29A C 0.6301(11) 0.1120(16) 0.4823(3)
C30B C 0.8370(16) 0.5112(12) 0.5033(4)
C30A C 0.6742(10) 0.1630(16) 0.5033(4)
C31B C 0.9494(11) 0.4221(8) 0.5048(3)
C31A C 0.4727(7) 0.0506(11) 0.5048(3)
C32B C 0.8199(13) 0.3960(8) 0.5312(3)
C32A C 0.5761(10) 0.1801(13) 0.5312(3)
C33B C 0.7936(13) 0.4078(9) 0.5371(3)
C33A C 0.6142(9) 0.2064(13) 0.5371(3)
C34B C 1.0190(11) 0.5136(8) 0.4396(3)
C34A C 0.4946(8) -0.0190(11) 0.4396(3)
C35B C 1.0377(16) 0.5299(11) 0.4235(3)
C35A C 0.4922(11) -0.0377(16) 0.4235(3)
C36B C 0.9918(14) 0.5313(11) 0.4459(5)
C36A C 0.5395(9) 0.0082(14) 0.4459(5)
C37B C 0.9987(14) 0.4650(8) 0.4437(4)
C37A C 0.4663(11) 0.0013(14) 0.4437(4)
C38B C 1.0828(11) 0.5559(7) 0.4885(3)
C38A C 0.4731(9) -0.0828(11) 0.4885(3)
C39B C 1.1760(11) 0.5717(8) 0.4442(4)
C39A C 0.3957(7) -0.1760(11) 0.4442(4)
C40B C 1.1936(13) 0.6066(10) 0.4347(4)
C40A C 0.4130(9) -0.1936(13) 0.4347(4)
C41B C 1.0200(9) 0.4370(7) 0.4903(3)
C41A C 0.4170(6) -0.0200(9) 0.4903(3)
C42B C 1.0271(12) 0.3972(9) 0.4891(4)
C42A C 0.3701(8) -0.0271(12) 0.4891(4)
C43B C 1.0411(13) 0.3896(9) 0.5045(4)
C43A C 0.3485(9) -0.0411(13) 0.5045(4)
C44B C 1.0869(14) 0.4258(12) 0.5069(5)
C44A C 0.3389(8) -0.0869(14) 0.5069(5)
C45B C 1.0865(14) 0.4682(10) 0.5087(5)
C45A C 0.3817(10) -0.0865(14) 0.5087(5)
C46B C 1.0485(11) 0.4711(8) 0.5014(3)
C46A C 0.4226(7) -0.0485(11) 0.5014(3)
Cl1B Cl 0.9888(6) 0.4985(4) 0.51449(14)
Cl1A Cl 0.5097(4) 0.0112(6) 0.51449(14)
Mn1B Mn 1.0037(5) 0.4864(4) 0.48592(13)
Mn1A Mn 0.4827(3) -0.0037(5) 0.48592(13)
N1B N 0.9778(10) 0.4275(7) 0.4917(3)
N1A N 0.4497(7) 0.0222(10) 0.4917(3)
N2B N 1.0634(11) 0.5138(7) 0.4952(3)
N2A N 0.4504(8) -0.0634(11) 0.4952(3)
O1B O 0.7637(7) 0.3774(5) 0.5624(2)
O1A O 0.6137(5) 0.2363(7) 0.5624(2)
O2B O 0.7153(8) 0.3563(6) 0.5404(2)
O2A O 0.6410(6) 0.2847(8) 0.5404(2)
O3B O 0.9531(11) 0.4974(8) 0.4906(3)
O3A O 0.5443(7) 0.0469(11) 0.4906(3)
O4B O 1.2791(9) 0.6402(6) 0.4305(3)
O4A O 0.3611(7) -0.2791(9) 0.4305(3)
O4B_2 O 0.2791(9) 0.6402(6) 0.4305(3)
O4A_2 O 0.3611(7) 0.7209(9) 0.4305(3)
O4A_3 O 1.3611(7) 0.7209(9) 0.4305(3)
O4_2 O 1.3598(6) 0.6389(7) 0.4305(3)
O4_3 O 0.3598(6) -0.3611(7) 0.4305(3)
O4B_3 O 0.2791(9) -0.3598(6) 0.4305(3)
O5B O 1.2465(9) 0.6109(7) 0.4138(2)
O5A O 0.3644(6) -0.2465(9) 0.4138(2)
O6B O 1.0189(10) 0.5292(7) 0.4695(3)
O6A O 0.5103(7) -0.0189(10) 0.4695(3)
C47A C 0.9068(8) 0.9428(11) 0.2585(2)
C47C C 0.7027(8) 0.4265(8) 0.5918(2)
C48A C 0.6926(8) 0.8627(11) 0.2666(3)
C48C C 0.8368(8) 0.6407(8) 0.5999(3)
C49A C 0.6571(12) 0.8725(16) 0.2699(4)
C49C C 0.8821(10) 0.6762(12) 0.6032(4)
C50A C 0.6703(8) 0.8119(14) 0.2660(5)
C50C C 0.8083(11) 0.6630(8) 0.5993(5)
C51A C 0.7128(11) 0.8797(16) 0.2506(3)
C51C C 0.8336(11) 0.6205(11) 0.5839(3)
C52A C 0.7530(8) 0.8554(11) 0.3173(3)
C52C C 0.7691(8) 0.5803(8) 0.6506(3)
C53A C 0.8460(7) 0.9387(11) 0.2743(4)
C53C C 0.7594(9) 0.4873(7) 0.6076(4)
C54A C 0.8643(9) 0.9189(13) 0.2667(4)
C54C C 0.7213(9) 0.4690(9) 0.6000(4)
C55A C 0.4246(7) 0.7066(9) 0.3806(2)
C55C C 0.9487(6) 0.9087(7) 0.7139(2)
C56A C 0.5787(7) 0.8681(11) 0.3343(3)
C56C C 0.9561(8) 0.7546(7) 0.6676(3)
C57A C 0.5452(12) 0.8788(16) 0.3416(4)
C57C C 1.0003(11) 0.7881(12) 0.6749(4)
C58A C 0.6234(10) 0.8959(13) 0.3406(4)
C58C C 0.9392(8) 0.7099(10) 0.6739(4)
C59A C 0.5769(12) 0.8670(17) 0.3172(3)
C59C C 0.9568(12) 0.7564(12) 0.6505(3)
C60A C 0.5985(9) 0.7503(11) 0.3308(3)
C60C C 0.8185(6) 0.7348(9) 0.6641(3)
C61A C 0.4976(10) 0.7587(12) 0.3704(3)
C61C C 0.9278(7) 0.8357(10) 0.7037(3)
C62A C 0.4605(8) 0.7244(11) 0.3702(3)
C62C C 0.9306(8) 0.8728(8) 0.7035(3)
C63A C 0.7037(7) 0.8439(11) 0.3412(2)
C63C C 0.8069(8) 0.6296(7) 0.6745(2)
C64A C 0.7319(9) 0.8651(14) 0.3556(3)
C64C C 0.7999(11) 0.6014(9) 0.6889(3)
C65A C 0.7648(11) 0.8505(14) 0.3578(4)
C65C C 0.7524(9) 0.5685(11) 0.6911(4)
C66A C 0.7429(11) 0.8024(16) 0.3612(4)
C66C C 0.7262(11) 0.5904(11) 0.6945(4)
C67A C 0.6948(9) 0.7760(14) 0.3560(4)
C67C C 0.7479(11) 0.6385(9) 0.6893(4)
C68A C 0.6877(8) 0.7956(11) 0.3409(3)
C68C C 0.7746(8) 0.6456(8) 0.6742(3)
Cl2A Cl 0.7022(4) 0.7840(6) 0.30976(15)
Cl2C Cl 0.7485(4) 0.6311(4) 0.64309(15)
Mn2A Mn 0.6644(3) 0.8202(5) 0.31981(15)
Mn2C Mn 0.8225(4) 0.6689(3) 0.65314(15)
N3A N 0.7221(7) 0.8607(10) 0.3275(3)
N3C N 0.8053(7) 0.6112(7) 0.6608(3)
N4A N 0.6427(8) 0.7716(10) 0.3358(3)
N4C N 0.7956(6) 0.6906(8) 0.6691(3)
O7A O 0.9241(7) 0.9166(10) 0.2533(2)
O7C O 0.6592(7) 0.4092(7) 0.5866(2)
O7E O 0.7501(10) 0.3408(7) 0.5866(2)
O7D O 0.5908(7) 0.2499(10) 0.5866(2)
O8A O 0.9228(7) 0.9876(10) 0.2572(2)
O8C O 0.7315(7) 0.4105(7) 0.5905(2)
O8D O 0.5895(7) 0.3209(10) 0.5905(2)
O8E O 0.6791(10) 0.2685(7) 0.5905(2)
O9A O 0.6815(7) 0.8319(10) 0.2973(2)
O9C O 0.8171(7) 0.6518(7) 0.6306(2)
O10A O 0.4014(7) 0.6691(9) 0.3886(2)
O10C O 0.9344(6) 0.9319(7) 0.7219(2)
O10_2 O 1.2677(6) 0.5986(7) 0.3886(2)
O10B O 0.3309(9) -0.2677(6) 0.3886(2)
O11A O 0.4039(5) 0.7273(7) 0.38507(18)
O11C O 0.9901(5) 0.9294(5) 0.71840(18)
O11B O 1.2727(7) 0.6766(5) 0.38507(18)
O11A_2 O 0.4039(5) -0.2727(7) 0.38507(18)
O12A O 0.6091(8) 0.8192(10) 0.3214(3)
O12C O 0.8768(6) 0.7242(8) 0.6547(3)
Zn1B Zn 1.2752 0.6390 0.3968
Zn1A Zn 0.3638 -0.2752 0.3968
Zn1B_2 Zn 0.2752 0.6390 0.3968
Zn1A_2 Zn 0.3638 0.7248 0.3968
Zn1E Zn 0.9419 0.9723 0.7301
Zn1C Zn 1.0277 0.9695 0.7301
Zn1A_3 Zn 1.3638 0.7248 0.3968
Zn1_2 Zn 1.3610 0.6362 0.3968
Zn1_3 Zn 0.3610 -0.3638 0.3968
Zn1B_3 Zn 0.2752 -0.3610 0.3968
Zn2B Zn 1.3334 0.6667 0.4264
Zn2A Zn 0.3333 -0.3334 0.4264
O13B O 1.3332 0.6666 0.4025
O13A O 0.3334 -0.3332 0.4025
Zn4B Zn 0.7233 0.3613 0.5779
Zn4A Zn 0.6380 0.2767 0.5779
Zn4F Zn -0.0280 0.0287 0.2446
Zn4H Zn 0.0566 0.0280 0.2446
Zn4G Zn 0.9713 0.9434 0.2446
Zn4F_2 Zn 0.9720 1.0287 0.2446
loop_
_geom_bond_atom_site_label_1
_geom_bond_atom_site_label_2
_geom_bond_site_symmetry_1
_geom_bond_site_symmetry_2
C1 C2 1_555 1_555
C2 C3 1_555 1_555
C3 C4 1_555 1_555
C4 C5 1_555 1_555
C5 C6 1_555 1_555
C6 C1 1_555 1_555
C7 C33 1_555 1_555
C8 C9 1_555 1_555
C9 C10 1_555 1_555
C10 C11 1_555 1_555
C11 C12 1_555 1_555
C12 C13 1_555 1_555
C13 C8 1_555 1_555
C14 C5 1_555 1_555
C15 C16 1_555 1_555
C16 C17 1_555 1_555
C17 C18 1_555 1_555
C18 C19 1_555 1_555
C19 C20 1_555 1_555
C20 C15 1_555 1_555
C21 C40 1_555 1_555
C22 C23 1_555 1_555
C23 C24 1_555 1_555
C24 C25 1_555 1_555
C25 C26 1_555 1_555
C26 C27 1_555 1_555
C27 C22 1_555 1_555
C28 C14 1_555 1_555
C29 C14 1_555 1_555
C30 C14 1_555 1_555
C31 C3 1_555 1_555
C32 C1 1_555 1_555
C33 C32 1_555 1_555
C34 C12 1_555 1_555
C35 C34 1_555 1_555
C36 C34 1_555 1_555
C37 C34 1_555 1_555
C38 C10 1_555 1_555
C39 C8 1_555 1_555
C40 C39 1_555 1_555
C41 C42 1_555 1_555
C42 C43 1_555 1_555
C43 C44 1_555 1_555
C44 C45 1_555 1_555
C45 C46 1_555 1_555
C46 C41 1_555 1_555
Cl1 Mn1 1_555 1_555
Mn1 N1 1_555 1_555
N1 C31 1_555 1_555
N2 C38 1_555 1_555
O1 C7 1_555 1_555
O2 C7 1_555 1_555
O3 C4 1_555 1_555
O4 C21 1_555 1_555
O5 C21 1_555 1_555
O6 C11 1_555 1_555
C47 C54 1_555 1_555
C48 C19 1_555 1_555
C49 C48 1_555 1_555
C50 C48 1_555 1_555
C51 C48 1_555 1_555
C52 C17 1_555 1_555
C53 C15 1_555 1_555
C54 C53 1_555 1_555
C55 C62 1_555 1_555
C56 C26 1_555 1_555
C57 C56 1_555 1_555
C58 C56 1_555 1_555
C59 C56 1_555 1_555
C60 C24 1_555 1_555
C61 C22 1_555 1_555
C62 C61 1_555 1_555
C63 C64 1_555 1_555
C64 C65 1_555 1_555
C65 C66 1_555 1_555
C66 C67 1_555 1_555
C67 C68 1_555 1_555
C68 C63 1_555 1_555
Cl2 Mn2 1_555 1_555
Mn2 N3 1_555 1_555
N3 C52 1_555 1_555
N4 C60 1_555 1_555
O7 C47 1_555 1_555
O8 C47 1_555 1_555
O9 C18 1_555 1_555
O10 C55 1_555 1_555
O11 C55 1_555 1_555
O12 C25 1_555 1_555
Zn1 O5 1_555 1_555
Zn2 O4 1_555 1_555
O13 Zn1 1_555 1_555
Zn3 O2 1_555 1_555
Zn4 O1 1_555 1_555
O14 Zn3 1_555 1_555
C1B C2B 1_555 1_555
C1A C2A 1_555 1_555
C2B C3B 1_555 1_555
C2A C3A 1_555 1_555
C3B C4B 1_555 1_555
C3A C4A 1_555 1_555
C4B C5B 1_555 1_555
C4A C5A 1_555 1_555
C5B C6B 1_555 1_555
C5A C6A 1_555 1_555
C6B C1B 1_555 1_555
C6A C1A 1_555 1_555
C7B C33B 1_555 1_555
C7A C33A 1_555 1_555
C8B C9B 1_555 1_555
C8A C9A 1_555 1_555
C9B C10B 1_555 1_555
C9A C10A 1_555 1_555
C10B C11B 1_555 1_555
C10A C11A 1_555 1_555
C11B C12B 1_555 1_555
C11A C12A 1_555 1_555
C12B C13B 1_555 1_555
C12A C13A 1_555 1_555
C13B C8B 1_555 1_555
C13A C8A 1_555 1_555
C14B C5B 1_555 1_555
C14A C5A 1_555 1_555
C15A C16A 1_555 1_555
C15C C16C 1_555 1_555
C16A C17A 1_555 1_555
C16C C17C 1_555 1_555
C17A C18A 1_555 1_555
C17C C18C 1_555 1_555
C18A C19A 1_555 1_555
C18C C19C 1_555 1_555
C19A C20A 1_555 1_555
C19C C20C 1_555 1_555
C20A C15A 1_555 1_555
C20C C15C 1_555 1_555
C21B C40B 1_555 1_555
C21A C40A 1_555 1_555
C22A C23A 1_555 1_555
C22C C23C 1_555 1_555
C23A C24A 1_555 1_555
C23C C24C 1_555 1_555
C24A C25A 1_555 1_555
C24C C25C 1_555 1_555
C25A C26A 1_555 1_555
C25C C26C 1_555 1_555
C26A C27A 1_555 1_555
C26C C27C 1_555 1_555
C27A C22A 1_555 1_555
C27C C22C 1_555 1_555
C28B C14B 1_555 1_555
C28A C14A 1_555 1_555
C29B C14B 1_555 1_555
C29A C14A 1_555 1_555
C30B C14B 1_555 1_555
C30A C14A 1_555 1_555
C31B C3B 1_555 1_555
C31A C3A 1_555 1_555
C32B C1B 1_555 1_555
C32A C1A 1_555 1_555
C33B C32B 1_555 1_555
C33A C32A 1_555 1_555
C34B C12B 1_555 1_555
C34A C12A 1_555 1_555
C35B C34B 1_555 1_555
C35A C34A 1_555 1_555
C36B C34B 1_555 1_555
C36A C34A 1_555 1_555
C37B C34B 1_555 1_555
C37A C34A 1_555 1_555
C38B C10B 1_555 1_555
C38A C10A 1_555 1_555
C39B C8B 1_555 1_555
C39A C8A 1_555 1_555
C40B C39B 1_555 1_555
C40A C39A 1_555 1_555
C41B C42B 1_555 1_555
C41A C42A 1_555 1_555
C42B C43B 1_555 1_555
C42A C43A 1_555 1_555
C43B C44B 1_555 1_555
C43A C44A 1_555 1_555
C44B C45B 1_555 1_555
C44A C45A 1_555 1_555
C45B C46B 1_555 1_555
C45A C46A 1_555 1_555
C46B C41B 1_555 1_555
C46A C41A 1_555 1_555
Cl1B Mn1B 1_555 1_555
Cl1A Mn1A 1_555 1_555
Mn1B N1B 1_555 1_555
Mn1A N1A 1_555 1_555
N1B C31B 1_555 1_555
N1A C31A 1_555 1_555
N2B C38B 1_555 1_555
N2A C38A 1_555 1_555
O1B C7B 1_555 1_555
O1A C7A 1_555 1_555
O2B Zn3 1_555 1_555
O2A Zn3 1_555 1_555
O3B C4B 1_555 1_555
O3A C4A 1_555 1_555
O4B C21B 1_555 1_555
O4A C21A 1_555 1_555
O4B_2 Zn2 1_555 1_555
O4A_2 Zn2 1_555 1_555
O4A_3 Zn2B 1_555 1_555
O4_2 Zn2B 1_555 1_555
O4_3 Zn2A 1_555 1_555
O4B_3 Zn2A 1_555 1_555
O5B C21B 1_555 1_555
O5A C21A 1_555 1_555
O6B C11B 1_555 1_555
O6A C11A 1_555 1_555
C47A C54A 1_555 1_555
C47C C54C 1_555 1_555
C48A C19A 1_555 1_555
C48C C19C 1_555 1_555
C49A C48A 1_555 1_555
C49C C48C 1_555 1_555
C50A C48A 1_555 1_555
C50C C48C 1_555 1_555
C51A C48A 1_555 1_555
C51C C48C 1_555 1_555
C52A C17A 1_555 1_555
C52C C17C 1_555 1_555
C53A C15A 1_555 1_555
C53C C15C 1_555 1_555
C54A C53A 1_555 1_555
C54C C53C 1_555 1_555
C55A C62A 1_555 1_555
C55C C62C 1_555 1_555
C56A C26A 1_555 1_555
C56C C26C 1_555 1_555
C57A C56A 1_555 1_555
C57C C56C 1_555 1_555
C58A C56A 1_555 1_555
C58C C56C 1_555 1_555
C59A C56A 1_555 1_555
C59C C56C 1_555 1_555
C60A C24A 1_555 1_555
C60C C24C 1_555 1_555
C61A C22A 1_555 1_555
C61C C22C 1_555 1_555
C62A C61A 1_555 1_555
C62C C61C 1_555 1_555
C63A C64A 1_555 1_555
C63C C64C 1_555 1_555
C64A C65A 1_555 1_555
C64C C65C 1_555 1_555
C65A C66A 1_555 1_555
C65C C66C 1_555 1_555
C66A C67A 1_555 1_555
C66C C67C 1_555 1_555
C67A C68A 1_555 1_555
C67C C68C 1_555 1_555
C68A C63A 1_555 1_555
C68C C63C 1_555 1_555
Cl2A Mn2A 1_555 1_555
Cl2C Mn2C 1_555 1_555
Mn2A N3A 1_555 1_555
Mn2C N3C 1_555 1_555
N3A C52A 1_555 1_555
N3C C52C 1_555 1_555
N4A C60A 1_555 1_555
N4C C60C 1_555 1_555
O7A C47A 1_555 1_555
O7C Zn4 1_555 1_555
O7E Zn4B 1_555 1_555
O7D Zn4A 1_555 1_555
O8A C47A 1_555 1_555
O8C C47C 1_555 1_555
O8D Zn4 1_555 1_555
O8E Zn4A 1_555 1_555
O9A C18A 1_555 1_555
O9C C18C 1_555 1_555
O10A Zn1 1_555 1_555
O10C C55C 1_555 1_555
O10_2 Zn1B 1_555 1_555
O10B Zn1A 1_555 1_555
O11A C55A 1_555 1_555
O11C C55C 1_555 1_555
O11B Zn1B 1_555 1_555
O11A_2 Zn1A 1_555 1_555
O12A C25A 1_555 1_555
O12C C25C 1_555 1_555
Zn1B O5B 1_555 1_555
Zn1A O5A 1_555 1_555
Zn1B_2 O10 1_555 1_555
Zn1A_2 O13 1_555 1_555
Zn1E O10C 1_555 1_555
Zn1C O11C 1_555 1_555
Zn1A_3 O13B 1_555 1_555
Zn1_2 O13B 1_555 1_555
Zn1_3 O13A 1_555 1_555
Zn1B_3 O13A 1_555 1_555
Zn2B O4B 1_555 1_555
Zn2A O4A 1_555 1_555
O13B Zn1B 1_555 1_555
O13A Zn1A 1_555 1_555
Zn4B O14 1_555 1_555
Zn4A O14 1_555 1_555
Zn4F O7 1_555 1_555
Zn4H O8 1_555 1_555
Zn4G O7A 1_555 1_555
Zn4F_2 O8A 1_555 1_555
C41 N1 1_555 1_555
C46 N2 1_555 1_555
Mn1 N2 1_555 1_555
Mn1 O3 1_555 1_555
Mn1 O6 1_555 1_555
C63 N3 1_555 1_555
C68 N4 1_555 1_555
Mn2 N4 1_555 1_555
Mn2 O9 1_555 1_555
Mn2 O12 1_555 1_555
O11 Zn1 1_555 1_555
Zn2 O13 1_555 1_555
O13 Zn1B_2 1_555 1_555
Zn4 O14 1_555 1_555
C7B O2B 1_555 1_555
C7A O2A 1_555 1_555
C41B N1B 1_555 1_555
C41A N1A 1_555 1_555
C46B N2B 1_555 1_555
C46A N2A 1_555 1_555
Mn1B N2B 1_555 1_555
Mn1B O3B 1_555 1_555
Mn1B O6B 1_555 1_555
Mn1A N2A 1_555 1_555
Mn1A O3A 1_555 1_555
Mn1A O6A 1_555 1_555
O1B Zn4B 1_555 1_555
O1A Zn4A 1_555 1_555
C47C O7C 1_555 1_555
C55A O10A 1_555 1_555
C63A N3A 1_555 1_555
C63C N3C 1_555 1_555
C68A N4A 1_555 1_555
C68C N4C 1_555 1_555
Mn2A N4A 1_555 1_555
Mn2A O9A 1_555 1_555
Mn2A O12A 1_555 1_555
Mn2C N4C 1_555 1_555
Mn2C O9C 1_555 1_555
Mn2C O12C 1_555 1_555
O8C Zn4B 1_555 1_555
O11A Zn1A_2 1_555 1_555
Zn2B O13B 1_555 1_555
Zn2A O13A 1_555 1_555

#END
