
#######################################################################
#
#                 Cambridge Crystallographic Data Centre
#                                CCDC 
#
#######################################################################
#
# If this CIF has been generated from an entry in the Cambridge 
# Structural Database, then it will include bibliographic, chemical, 
# crystal, experimental, refinement or atomic coordinate data resulting 
# from the CCDC's data processing and validation procedures.
#
#######################################################################

data_XANMOO
_symmetry_cell_setting           monoclinic
_symmetry_space_group_name_H-M   'P 21/c'
_symmetry_Int_Tables_number      14
_space_group_name_Hall           '-P 2ybc'
loop_
_symmetry_equiv_pos_site_id
_symmetry_equiv_pos_as_xyz
1 x,y,z
2 x,1/2-y,1/2+z
3 -x,-y,-z
4 -x,1/2+y,1/2-z
_cell_length_a                   13.2063(4)
_cell_length_b                   17.5907(6)
_cell_length_c                   20.7908(5)
_cell_angle_alpha                90
_cell_angle_beta                 91.6972(18)
_cell_angle_gamma                90
_cell_volume                     4827.75
loop_
_atom_site_label
_atom_site_type_symbol
_atom_site_fract_x
_atom_site_fract_y
_atom_site_fract_z
Mo1 Mo -0.20573(3) 0.129300(18) 0.251870(15)
Mn1 Mn 0.00030(5) 0.37963(3) 0.18835(3)
Mn2 Mn -0.36635(6) 0.31456(4) 0.43069(3)
N1 N -0.1234(3) 0.2916(2) 0.19435(17)
N2 N -0.0297(3) 0.0872(2) 0.14715(18)
N3 N -0.2982(4) -0.0034(3) 0.1542(2)
N4 N -0.1282(3) -0.0343(2) 0.31411(17)
N5 N -0.3956(4) 0.0615(3) 0.3345(2)
N6 N -0.2617(3) 0.2562(2) 0.36348(19)
N7 N -0.4017(4) 0.2130(3) 0.1779(3)
N8 N 0.0128(3) 0.1601(2) 0.32982(18)
N9 N 0.0786(3) 0.3063(2) 0.1134(2)
N10 N -0.0542(3) 0.4126(2) 0.08804(16)
N11 N -0.1235(3) 0.4708(2) 0.19199(19)
N12 N -0.0089(3) 0.4178(2) 0.29400(16)
N13 N 0.0990(3) 0.2917(2) 0.24465(19)
N14 N -0.2460(4) 0.3957(4) 0.4735(2)
N15 N -0.3711(3) 0.4285(2) 0.38098(17)
N16 N -0.4935(3) 0.3170(3) 0.3539(2)
N17 N -0.4418(5) 0.1965(3) 0.4300(3)
N18 N -0.3027(7) 0.2577(4) 0.5226(3)
C1 C -0.1533(3) 0.2352(2) 0.21233(18)
C2 C -0.0918(3) 0.1012(2) 0.18265(19)
C3 C -0.2689(4) 0.0447(3) 0.1873(2)
C4 C -0.1553(3) 0.0232(2) 0.29361(19)
C5 C -0.3300(4) 0.0845(2) 0.3050(2)
C6 C -0.2404(3) 0.2115(2) 0.3255(2)
C7 C -0.3342(4) 0.1837(3) 0.2039(2)
C8 C -0.0642(4) 0.1499(2) 0.30424(19)
C9 C 0.0992(7) 0.2655(5) 0.0008(4)
H1 H 0.1454 0.2290 0.0197
H2 H 0.1344 0.2967 -0.0291
H3 H 0.0447 0.2393 -0.0213
C10 C 0.0566(5) 0.3155(4) 0.0537(3)
C11 C -0.0168(5) 0.3768(3) 0.0380(2)
C12 C -0.0506(7) 0.3973(5) -0.0254(3)
H4 H -0.0254 0.3734 -0.0614
C13 C -0.1232(7) 0.4552(6) -0.0311(4)
H5 H -0.1468 0.4701 -0.0718
C14 C -0.1586(6) 0.4886(4) 0.0199(3)
H6 H -0.2071 0.5267 0.0154
C15 C -0.1590(4) 0.5011(3) 0.1416(3)
C16 C -0.1236(4) 0.4671(3) 0.0803(3)
C17 C -0.2329(5) 0.5657(4) 0.1391(4)
H7 H -0.2482 0.5808 0.1821
H8 H -0.2940 0.5499 0.1168
H9 H -0.2038 0.6078 0.1168
C18 C -0.1489(4) 0.4968(3) 0.2572(3)
H10 H -0.2216 0.5038 0.2597
H11 H -0.1163 0.5452 0.2663
C19 C -0.1136(4) 0.4386(3) 0.3058(2)
H12 H -0.1184 0.4592 0.3489
H13 H -0.1563 0.3939 0.3026
C20 C 0.0334(5) 0.3582(3) 0.3367(2)
H14 H -0.0167 0.3187 0.3424
H15 H 0.0505 0.3798 0.3785
C21 C 0.1271(5) 0.3246(3) 0.3078(3)
H16 H 0.1779 0.3638 0.3028
H17 H 0.1552 0.2855 0.3359
C22 C 0.1845(4) 0.2705(3) 0.2049(3)
H18 H 0.2216 0.2288 0.2250
H19 H 0.2302 0.3133 0.2013
C23 C 0.1453(4) 0.2470(3) 0.1389(3)
H20 H 0.2015 0.2396 0.1106
H21 H 0.1085 0.1995 0.1417
C24 C -0.1730(6) 0.5252(5) 0.4847(4)
H22 H -0.1316 0.5040 0.5189
H23 H -0.2128 0.5661 0.5011
H24 H -0.1304 0.5441 0.4516
C25 C -0.2430(4) 0.4639(4) 0.4567(3)
C26 C -0.3146(4) 0.4855(3) 0.4029(2)
C27 C -0.3247(6) 0.5581(3) 0.3776(4)
H25 H -0.2849 0.5978 0.3936
C28 C -0.3945(6) 0.5704(4) 0.3283(4)
H26 H -0.4028 0.6188 0.3109
C29 C -0.4510(5) 0.5119(4) 0.3052(3)
H27 H -0.4974 0.5194 0.2712
C30 C -0.4388(4) 0.4400(3) 0.3330(2)
C31 C -0.5009(4) 0.3719(4) 0.3151(3)
C32 C -0.5648(5) 0.3735(5) 0.2543(3)
H28 H -0.6003 0.3261 0.2493
H29 H -0.5222 0.3812 0.2182
H30 H -0.6129 0.4143 0.2563
C33 C -0.5497(6) 0.2456(4) 0.3440(5)
H31 H -0.5190 0.2157 0.3106
H32 H -0.6193 0.2563 0.3309
C34 C -0.5464(7) 0.2024(4) 0.4071(6)
H33 H -0.5861 0.2288 0.4386
H34 H -0.5748 0.1520 0.4008
C35 C -0.4268(11) 0.1605(5) 0.4941(6)
H35 H -0.4735 0.1819 0.5244
H36 H -0.4389 0.1062 0.4911
C36 C -0.3212(12) 0.1753(6) 0.5159(5)
H37 H -0.2753 0.1541 0.4851
H38 H -0.3081 0.1505 0.5570
C37 C -0.1963(9) 0.2788(7) 0.5269(3)
H39 H -0.1616 0.2580 0.4904
H40 H -0.1654 0.2575 0.5658
C38 C -0.1851(7) 0.3639(6) 0.5277(3)
H41 H -0.2083 0.3842 0.5681
H42 H -0.1145 0.3777 0.5236
O1 O -0.4866(4) 0.3617(3) 0.5025(2)
N4C N 0.1282(3) 0.4657(2) 0.18589(17)
Mn1C Mn -0.00030(5) -0.12037(3) 0.31165(3)
O2 O -0.5841(3) 0.2360(2) 0.10039(19)
O3 O -0.4121(4) -0.0169(3) 0.0438(2)
O4 O -0.3378(4) 0.3767(3) 0.1827(3)
O5 O -0.3235(5) -0.1105(3) 0.4110(3)
O6 O -0.5297(6) -0.0310(4) 0.3989(4)
loop_
_geom_bond_atom_site_label_1
_geom_bond_atom_site_label_2
_geom_bond_site_symmetry_1
_geom_bond_site_symmetry_2
Mo1 C1 1_555 1_555
Mn1 N1 1_555 1_555
Mn2 N6 1_555 1_555
N1 C1 1_555 1_555
N2 C2 1_555 1_555
N3 C3 1_555 1_555
N4 C4 1_555 1_555
N5 C5 1_555 1_555
N6 C6 1_555 1_555
N7 C7 1_555 1_555
N8 C8 1_555 1_555
N9 Mn1 1_555 1_555
N10 Mn1 1_555 1_555
N11 Mn1 1_555 1_555
N12 Mn1 1_555 1_555
N13 Mn1 1_555 1_555
N14 Mn2 1_555 1_555
N15 Mn2 1_555 1_555
N16 Mn2 1_555 1_555
N17 Mn2 1_555 1_555
N18 Mn2 1_555 1_555
C2 Mo1 1_555 1_555
C3 Mo1 1_555 1_555
C4 Mo1 1_555 1_555
C5 Mo1 1_555 1_555
C6 Mo1 1_555 1_555
C7 Mo1 1_555 1_555
C8 Mo1 1_555 1_555
C9 H1 1_555 1_555
H2 C9 1_555 1_555
H3 C9 1_555 1_555
C10 N9 1_555 1_555
C11 N10 1_555 1_555
C12 C11 1_555 1_555
H4 C12 1_555 1_555
C13 C12 1_555 1_555
H5 C13 1_555 1_555
C14 C13 1_555 1_555
H6 C14 1_555 1_555
C15 N11 1_555 1_555
C16 N10 1_555 1_555
C17 C15 1_555 1_555
H7 C17 1_555 1_555
H8 C17 1_555 1_555
H9 C17 1_555 1_555
C18 N11 1_555 1_555
H10 C18 1_555 1_555
H11 C18 1_555 1_555
C19 N12 1_555 1_555
H12 C19 1_555 1_555
H13 C19 1_555 1_555
C20 N12 1_555 1_555
H14 C20 1_555 1_555
H15 C20 1_555 1_555
C21 N13 1_555 1_555
H16 C21 1_555 1_555
H17 C21 1_555 1_555
C22 N13 1_555 1_555
H18 C22 1_555 1_555
H19 C22 1_555 1_555
C23 N9 1_555 1_555
H20 C23 1_555 1_555
H21 C23 1_555 1_555
C24 H22 1_555 1_555
H23 C24 1_555 1_555
H24 C24 1_555 1_555
C25 N14 1_555 1_555
C26 N15 1_555 1_555
C27 C26 1_555 1_555
H25 C27 1_555 1_555
C28 C27 1_555 1_555
H26 C28 1_555 1_555
C29 C28 1_555 1_555
H27 C29 1_555 1_555
C30 N15 1_555 1_555
C31 N16 1_555 1_555
C32 C31 1_555 1_555
H28 C32 1_555 1_555
H29 C32 1_555 1_555
H30 C32 1_555 1_555
C33 N16 1_555 1_555
H31 C33 1_555 1_555
H32 C33 1_555 1_555
C34 N17 1_555 1_555
H33 C34 1_555 1_555
H34 C34 1_555 1_555
C35 N17 1_555 1_555
H35 C35 1_555 1_555
H36 C35 1_555 1_555
C36 N18 1_555 1_555
H37 C36 1_555 1_555
H38 C36 1_555 1_555
C37 N18 1_555 1_555
H39 C37 1_555 1_555
H40 C37 1_555 1_555
C38 N14 1_555 1_555
H41 C38 1_555 1_555
H42 C38 1_555 1_555
O1 Mn2 1_555 1_555
N4C Mn1 1_555 1_555
Mn1C N4 1_555 1_555
C9 C10 1_555 1_555
C10 C11 1_555 1_555
C14 C16 1_555 1_555
C15 C16 1_555 1_555
C18 C19 1_555 1_555
C20 C21 1_555 1_555
C22 C23 1_555 1_555
C24 C25 1_555 1_555
C25 C26 1_555 1_555
C29 C30 1_555 1_555
C30 C31 1_555 1_555
C33 C34 1_555 1_555
C35 C36 1_555 1_555
C37 C38 1_555 1_555

#END
