
#######################################################################
#
#                 Cambridge Crystallographic Data Centre
#                                CCDC 
#
#######################################################################
#
# If this CIF has been generated from an entry in the Cambridge 
# Structural Database, then it will include bibliographic, chemical, 
# crystal, experimental, refinement or atomic coordinate data resulting 
# from the CCDC's data processing and validation procedures.
#
#######################################################################

data_XANMOP
_symmetry_cell_setting           monoclinic
_symmetry_space_group_name_H-M   'C 2/c'
_symmetry_Int_Tables_number      15
_space_group_name_Hall           '-C 2yn'
loop_
_symmetry_equiv_pos_site_id
_symmetry_equiv_pos_as_xyz
1 x,y,z
2 1/2+x,1/2+y,z
3 -x,y,1/2-z
4 1/2-x,1/2+y,1/2-z
5 -x,-y,-z
6 1/2-x,1/2-y,-z
7 x,-y,1/2+z
8 1/2+x,1/2-y,1/2+z
_cell_length_a                   18.0112(16)
_cell_length_b                   6.3741(6)
_cell_length_c                   13.9426(13)
_cell_angle_alpha                90
_cell_angle_beta                 109.359(2)
_cell_angle_gamma                90
_cell_volume                     1510.18
loop_
_atom_site_label
_atom_site_type_symbol
_atom_site_fract_x
_atom_site_fract_y
_atom_site_fract_z
Cd1 Cd 0.5000 0.23942(3) 0.2500
N1 N 0.60896(9) 0.4686(3) 0.26415(12)
C1 C 0.61397(11) 0.5754(3) 0.18395(16)
C2 C 0.67531(13) 0.7152(3) 0.19277(18)
H1 H 0.6763 0.7894 0.1341
N2 N 0.73258(11) 0.7484(3) 0.28065(15)
C3 C 0.72787(12) 0.6401(3) 0.36009(17)
H2 H 0.7677 0.6582 0.4242
C4 C 0.66665(12) 0.5014(3) 0.35228(16)
H3 H 0.6658 0.4278 0.4112
C5 C 0.55305(11) 0.5367(3) 0.08556(15)
N3 N 0.49330(10) 0.4099(3) 0.08429(13)
N4 N 0.56133(10) 0.6290(3) 0.00326(13)
N5 N 0.43231(10) -0.0613(3) 0.09778(13)
O1 O 0.38886(9) 0.0537(2) 0.12976(12)
O2 O 0.50619(9) -0.0440(2) 0.14013(12)
O3 O 0.40461(9) -0.1876(3) 0.02795(12)
Cd1F Cd 0.5000 0.76058(3) -0.2500
N1D N 0.39104(9) 0.5314(3) -0.26415(12)
N1B N 0.39104(9) 0.4686(3) 0.23585(12)
C1D C 0.38603(11) 0.4246(3) -0.18395(16)
C2D C 0.32469(13) 0.2848(3) -0.19277(18)
H1D H 0.3237 0.2106 -0.1341
N2D N 0.26742(11) 0.2516(3) -0.28065(15)
C3D C 0.27213(12) 0.3599(3) -0.36009(17)
H2D H 0.2323 0.3418 -0.4242
C4D C 0.33335(12) 0.4986(3) -0.35228(16)
H3D H 0.3342 0.5722 -0.4112
C5D C 0.44695(11) 0.4633(3) -0.08556(15)
N3D N 0.50670(10) 0.5901(3) -0.08429(13)
N3B N 0.50670(10) 0.4099(3) 0.41571(13)
N4D N 0.43867(10) 0.3710(3) -0.00326(13)
N5B N 0.56769(10) -0.0613(3) 0.40222(13)
O1B O 0.61114(9) 0.0537(2) 0.37024(12)
O2B O 0.49381(9) -0.0440(2) 0.35987(12)
O3B O 0.59539(9) -0.1876(3) 0.47205(12)
loop_
_geom_bond_atom_site_label_1
_geom_bond_atom_site_label_2
_geom_bond_site_symmetry_1
_geom_bond_site_symmetry_2
Cd1 N1 1_555 1_555
N1 C1 1_555 1_555
C1 C2 1_555 1_555
C2 H1 1_555 1_555
N2 C2 1_555 1_555
C3 N2 1_555 1_555
H2 C3 1_555 1_555
C4 N1 1_555 1_555
H3 C4 1_555 1_555
C5 C1 1_555 1_555
N3 Cd1 1_555 1_555
N4 C5 1_555 1_555
N5 O1 1_555 1_555
O1 Cd1 1_555 1_555
O2 Cd1 1_555 1_555
O3 N5 1_555 1_555
Cd1F N1D 1_555 1_555
N1D C1D 1_555 1_555
N1B Cd1 1_555 1_555
C1D C2D 1_555 1_555
C2D H1D 1_555 1_555
N2D C2D 1_555 1_555
C3D N2D 1_555 1_555
H2D C3D 1_555 1_555
C4D N1D 1_555 1_555
H3D C4D 1_555 1_555
C5D C1D 1_555 1_555
N3D N4 1_555 1_555
N3B Cd1 1_555 1_555
N4D N3 1_555 1_555
N5B O1B 1_555 1_555
O1B Cd1 1_555 1_555
O2B Cd1 1_555 1_555
O3B N5B 1_555 1_555
C3 C4 1_555 1_555
C5 N3 1_555 1_555
N5 O2 1_555 1_555
Cd1F N3D 1_555 1_555
C3D C4D 1_555 1_555
C5D N3D 1_555 1_555
C5D N4D 1_555 1_555
N5B O2B 1_555 1_555

#END
