
#######################################################################
#
#                 Cambridge Crystallographic Data Centre
#                                CCDC 
#
#######################################################################
#
# If this CIF has been generated from an entry in the Cambridge 
# Structural Database, then it will include bibliographic, chemical, 
# crystal, experimental, refinement or atomic coordinate data resulting 
# from the CCDC's data processing and validation procedures.
#
#######################################################################

data_XANNAB
_symmetry_cell_setting           orthorhombic
_symmetry_space_group_name_H-M   'I 21 21 21'
_symmetry_Int_Tables_number      24
_space_group_name_Hall           'I 2b 2c'
loop_
_symmetry_equiv_pos_site_id
_symmetry_equiv_pos_as_xyz
1 x,y,z
2 1/2-x,-y,1/2+z
3 1/2+x,1/2-y,-z
4 -x,1/2+y,1/2-z
5 1/2+x,1/2+y,1/2+z
6 -x,1/2-y,z
7 x,-y,1/2-z
8 1/2-x,y,-z
_cell_length_a                   19.086(8)
_cell_length_b                   19.060(1)
_cell_length_c                   25.9042(7)
_cell_angle_alpha                90
_cell_angle_beta                 90
_cell_angle_gamma                90
_cell_volume                     9423.41
loop_
_atom_site_label
_atom_site_type_symbol
_atom_site_fract_x
_atom_site_fract_y
_atom_site_fract_z
Ag1 Ag -0.39738(3) 0.38474(3) 0.38379(2)
Ag2 Ag -0.36523(3) 0.14741(3) 0.36625(2)
S1 S -0.29658(9) 0.41530(9) 0.44736(6)
S2 S -0.32329(8) 0.27078(9) 0.38979(6)
S3 S -0.30014(9) 0.12554(9) 0.45319(6)
S4 S -0.66531(8) 0.45356(9) 0.30260(6)
S5 S -0.52077(8) 0.42679(9) 0.36030(6)
S6 S -0.37550(8) 0.44987(9) 0.29680(6)
C1 C -0.2690(3) 0.3353(3) 0.4765(2)
C2 C -0.2843(3) 0.2710(3) 0.4524(2)
C3 C -0.2675(3) 0.2071(3) 0.4758(2)
C4 C -0.3434(4) 0.4604(4) 0.4969(3)
C5 C -0.3390(4) 0.5336(4) 0.4965(4)
C6 C -0.3787(5) 0.5698(5) 0.5311(5)
C7 C -0.4178(5) 0.5382(6) 0.5667(5)
C8 C -0.4244(5) 0.4649(7) 0.5680(4)
C9 C -0.3852(4) 0.4263(5) 0.5317(3)
C10 C -0.2519(4) 0.2956(4) 0.3484(3)
C11 C -0.1864(5) 0.3114(7) 0.3657(4)
C12 C -0.1369(7) 0.3333(10) 0.3282(6)
C13 C -0.1567(9) 0.3353(7) 0.2770(5)
C14 C -0.2203(8) 0.3174(6) 0.2613(4)
C15 C -0.2708(6) 0.2966(5) 0.2959(3)
C16 C -0.2271(4) 0.0815(4) 0.4262(3)
C17 C -0.1726(5) 0.1150(6) 0.4016(4)
C18 C -0.1198(6) 0.0752(9) 0.3781(4)
C19 C -0.1256(7) 0.0021(9) 0.3784(5)
C20 C -0.1795(8) -0.0297(6) 0.4030(5)
C21 C -0.2315(5) 0.0086(5) 0.4267(4)
C22 C -0.5850(3) 0.4813(3) 0.2737(2)
C23 C -0.5214(3) 0.4655(3) 0.2972(2)
C24 C -0.7107(3) 0.5939(4) 0.2467(3)
C25 C -0.7833(4) 0.5893(5) 0.2467(4)
C26 C -0.8196(5) 0.6280(5) 0.2816(4)
C27 C -0.7889(6) 0.6677(5) 0.3159(5)
C28 C -0.7148(6) 0.6745(5) 0.3171(4)
C29 C -0.6762(5) 0.6358(4) 0.2815(3)
C30 C -0.5455(4) 0.4977(4) 0.4018(3)
C31 C -0.5470(5) 0.4793(6) 0.4540(3)
C32 C -0.5682(6) 0.5311(9) 0.4881(4)
C33 C -0.5846(8) 0.5945(9) 0.4730(5)
C34 C -0.5821(9) 0.6118(7) 0.4198(6)
C35 C -0.5607(7) 0.5639(5) 0.3845(4)
C36 C -0.4568(3) 0.4827(3) 0.2745(2)
C37 C -0.3315(4) 0.5223(4) 0.3232(3)
C38 C -0.2589(5) 0.5192(6) 0.3239(4)
C39 C -0.2193(6) 0.5706(8) 0.3474(5)
C40 C -0.2518(8) 0.6249(8) 0.3715(4)
C41 C -0.3239(8) 0.6296(6) 0.3728(5)
C42 C -0.3648(5) 0.5771(5) 0.3481(4)
H1 H -0.3087 0.5574 0.4727
H2 H -0.3784 0.6198 0.5295
H3 H -0.4423 0.5659 0.5913
H4 H -0.4539 0.4414 0.5925
H5 H -0.3891 0.3764 0.5310
H6 H -0.1738 0.3069 0.4021
H7 H -0.0910 0.3466 0.3380
H8 H -0.1235 0.3498 0.2519
H9 H -0.2320 0.3199 0.2253
H10 H -0.3165 0.2835 0.2849
H11 H -0.1711 0.1656 0.4014
H12 H -0.0801 0.0993 0.3612
H13 H -0.0895 -0.0246 0.3609
H14 H -0.1809 -0.0799 0.4040
H15 H -0.2710 -0.0147 0.4434
H16 H -0.8072 0.5588 0.2229
H17 H -0.8692 0.6271 0.2810
H18 H -0.8169 0.6925 0.3399
H19 H -0.6916 0.7042 0.3417
H20 H -0.6262 0.6386 0.2812
H21 H -0.5336 0.4334 0.4654
H22 H -0.5723 0.5192 0.5241
H23 H -0.5978 0.6289 0.4978
H24 H -0.5943 0.6579 0.4085
H25 H -0.5555 0.5763 0.3482
H26 H -0.2352 0.4797 0.3074
H27 H -0.1694 0.5676 0.3464
H28 H -0.2247 0.6619 0.3878
H29 H -0.3470 0.6685 0.3912
H30 H -0.4151 0.5799 0.3479
C1G C -0.2310(3) 0.3353(3) 0.5235(2)
S1G S -0.20342(9) 0.41530(9) 0.55264(6)
Ag1G Ag -0.10262(3) 0.38474(3) 0.61621(2)
S2G S -0.17671(8) 0.27078(9) 0.61021(6)
Ag2G Ag -0.13477(3) 0.14741(3) 0.63375(2)
S3G S -0.19986(9) 0.12554(9) 0.54681(6)
C3G C -0.2325(3) 0.2071(3) 0.5242(2)
C2G C -0.2157(3) 0.2710(3) 0.5476(2)
C10G C -0.2481(4) 0.2956(4) 0.6516(3)
C11G C -0.3136(5) 0.3114(7) 0.6343(4)
C12G C -0.3631(7) 0.3333(10) 0.6718(6)
C13G C -0.3433(9) 0.3353(7) 0.7230(5)
C14G C -0.2797(8) 0.3174(6) 0.7387(4)
C15G C -0.2292(6) 0.2966(5) 0.7041(3)
H10G H -0.1835 0.2835 0.7151
H9G H -0.2680 0.3199 0.7747
H8G H -0.3765 0.3498 0.7481
H7G H -0.4090 0.3466 0.6620
H6G H -0.3262 0.3069 0.5979
Ag2E Ag -0.63477(3) 0.35259(3) 0.36625(2)
S4E S -0.33469(8) 0.04644(9) 0.30260(6)
C22F C -0.5850(3) 0.5187(3) 0.2263(2)
S4F S -0.66531(8) 0.54644(9) 0.19740(6)
Ag2C Ag -0.63477(3) 0.64741(3) 0.13375(2)
S2C S -0.67671(8) 0.77078(9) 0.11021(6)
S3C S -0.69986(9) 0.62554(9) 0.04681(6)
S5F S -0.52077(8) 0.57321(9) 0.13970(6)
Ag1F Ag -0.39738(3) 0.61526(3) 0.11621(2)
S1F S -0.29658(9) 0.58470(9) 0.05264(6)
S2F S -0.32329(8) 0.72922(9) 0.11021(6)
S6F S -0.37550(8) 0.55013(9) 0.20320(6)
C36F C -0.4568(3) 0.5173(3) 0.2255(2)
C23F C -0.5214(3) 0.5345(3) 0.2028(2)
C30F C -0.5455(4) 0.5023(4) 0.0982(3)
C31F C -0.5470(5) 0.5207(6) 0.0460(3)
C32F C -0.5682(6) 0.4689(9) 0.0119(4)
C33F C -0.5846(8) 0.4055(9) 0.0270(5)
C34F C -0.5821(9) 0.3882(7) 0.0802(6)
C35F C -0.5607(7) 0.4361(5) 0.1155(4)
H25F H -0.5555 0.4237 0.1518
H24F H -0.5943 0.3421 0.0915
H23F H -0.5978 0.3711 0.0022
H22F H -0.5723 0.4808 -0.0241
H21F H -0.5336 0.5666 0.0346
C37F C -0.3315(4) 0.4777(4) 0.1768(3)
C38F C -0.2589(5) 0.4808(6) 0.1761(4)
C39F C -0.2193(6) 0.4294(8) 0.1526(5)
C40F C -0.2518(8) 0.3751(8) 0.1285(4)
C41F C -0.3239(8) 0.3704(6) 0.1272(5)
C42F C -0.3648(5) 0.4229(5) 0.1519(4)
H30F H -0.4151 0.4201 0.1521
H29F H -0.3470 0.3315 0.1088
H28F H -0.2247 0.3381 0.1122
H27F H -0.1694 0.4324 0.1536
H26F H -0.2352 0.5203 0.1926
C24F C -0.7107(3) 0.4061(4) 0.2533(3)
C25F C -0.7833(4) 0.4107(5) 0.2533(4)
C26F C -0.8196(5) 0.3720(5) 0.2184(4)
C27F C -0.7889(6) 0.3323(5) 0.1841(5)
C28F C -0.7148(6) 0.3255(5) 0.1829(4)
C29F C -0.6762(5) 0.3642(4) 0.2185(3)
H20F H -0.6262 0.3614 0.2188
H19F H -0.6916 0.2958 0.1583
H18F H -0.8169 0.3075 0.1601
H17F H -0.8692 0.3729 0.2190
H16F H -0.8072 0.4412 0.2771
S5E S -0.47923(8) 0.07321(9) 0.36030(6)
C16G C -0.2729(4) 0.0815(4) 0.5738(3)
C17G C -0.3274(5) 0.1150(6) 0.5984(4)
C18G C -0.3802(6) 0.0752(9) 0.6219(4)
C19G C -0.3744(7) 0.0021(9) 0.6216(5)
C20G C -0.3205(8) -0.0297(6) 0.5970(5)
C21G C -0.2685(5) 0.0086(5) 0.5733(4)
H15G H -0.2290 -0.0147 0.5566
H14G H -0.3191 -0.0799 0.5960
H13G H -0.4105 -0.0246 0.6391
H12G H -0.4199 0.0993 0.6388
H11G H -0.3289 0.1656 0.5986
C4G C -0.1566(4) 0.4604(4) 0.5031(3)
C5G C -0.1610(4) 0.5336(4) 0.5035(4)
C6G C -0.1213(5) 0.5698(5) 0.4689(5)
C7G C -0.0822(5) 0.5382(6) 0.4333(5)
C8G C -0.0756(5) 0.4649(7) 0.4320(4)
C9G C -0.1148(4) 0.4263(5) 0.4683(3)
H5G H -0.1109 0.3764 0.4690
H4G H -0.0461 0.4414 0.4075
H3G H -0.0577 0.5659 0.4087
H2G H -0.1216 0.6198 0.4705
H1G H -0.1913 0.5574 0.5273
P1 P -0.9840(2) 0.0000 0.2500
F1 F -1.0674(4) 0.0000 0.2500
F2 F -0.9847(5) 0.0581(5) 0.2937(4)
F3 F -0.9854(6) 0.0625(7) 0.2085(5)
F4 F -0.9003(5) 0.0000 0.2500
F2F F -0.9847(5) -0.0581(5) 0.2063(4)
F3F F -0.9854(6) -0.0625(7) 0.2915(5)
P2 P -0.5000 0.2500 0.4887(3)
F5 F -0.507(1) 0.3030(10) 0.5348(7)
F6 F -0.483(2) 0.3050(10) 0.4534(7)
F7 F -0.4248(8) 0.249(1) 0.497(1)
F5E F -0.493(1) 0.1970(10) 0.5348(7)
F6E F -0.517(2) 0.1950(10) 0.4534(7)
F7E F -0.5752(8) 0.251(1) 0.497(1)
P3 P -0.2500 0.2340(2) 1.0000
F8 F -0.2500 0.1503(5) 1.0000
F9 F -0.3072(5) 0.2353(5) 1.0439(4)
F10 F -0.1891(6) 0.2348(6) 1.0419(5)
F11 F -0.2500 0.3175(5) 1.0000
F9G F -0.1928(5) 0.2353(5) 0.9561(4)
F10G F -0.3109(6) 0.2348(6) 0.9581(5)
P4 P -0.5000 0.2500 0.2614(3)
F12 F -0.500(1) 0.1748(7) 0.255(1)
F13 F -0.4429(9) 0.235(2) 0.2947(7)
F14 F -0.4467(10) 0.257(1) 0.2150(7)
F12E F -0.500(1) 0.3252(7) 0.255(1)
F13E F -0.5571(9) 0.265(2) 0.2947(7)
F14E F -0.5533(10) 0.243(1) 0.2150(7)
loop_
_geom_bond_atom_site_label_1
_geom_bond_atom_site_label_2
_geom_bond_site_symmetry_1
_geom_bond_site_symmetry_2
Ag1 S1 1_555 1_555
Ag2 S2 1_555 1_555
S1 C1 1_555 1_555
S2 Ag1 1_555 1_555
S3 Ag2 1_555 1_555
S4 C22 1_555 1_555
S5 Ag1 1_555 1_555
S6 Ag1 1_555 1_555
P1 F1 1_555 1_555
P2 F5 1_555 1_555
P3 F8 1_555 1_555
P4 F12 1_555 1_555
F2 P1 1_555 1_555
F3 P1 1_555 1_555
F4 P1 1_555 1_555
F6 P2 1_555 1_555
F7 P2 1_555 1_555
F9 P3 1_555 1_555
F10 P3 1_555 1_555
F11 P3 1_555 1_555
F13 P4 1_555 1_555
F14 P4 1_555 1_555
C1 C2 1_555 1_555
C2 S2 1_555 1_555
C3 S3 1_555 1_555
C4 S1 1_555 1_555
C5 C4 1_555 1_555
C6 C5 1_555 1_555
C7 C6 1_555 1_555
C8 C7 1_555 1_555
C9 C4 1_555 1_555
C10 S2 1_555 1_555
C11 C10 1_555 1_555
C12 C11 1_555 1_555
C13 C12 1_555 1_555
C14 C13 1_555 1_555
C15 C10 1_555 1_555
C16 S3 1_555 1_555
C17 C16 1_555 1_555
C18 C17 1_555 1_555
C19 C18 1_555 1_555
C20 C19 1_555 1_555
C21 C16 1_555 1_555
C22 C23 1_555 1_555
C23 S5 1_555 1_555
C24 C25 1_555 1_555
C25 C26 1_555 1_555
C26 C27 1_555 1_555
C27 C28 1_555 1_555
C28 C29 1_555 1_555
C29 C24 1_555 1_555
C30 S5 1_555 1_555
C31 C30 1_555 1_555
C32 C31 1_555 1_555
C33 C32 1_555 1_555
C34 C33 1_555 1_555
C35 C30 1_555 1_555
C36 S6 1_555 1_555
C37 S6 1_555 1_555
C38 C37 1_555 1_555
C39 C38 1_555 1_555
C40 C39 1_555 1_555
C41 C40 1_555 1_555
C42 C37 1_555 1_555
H1 C5 1_555 1_555
H2 C6 1_555 1_555
H3 C7 1_555 1_555
H4 C8 1_555 1_555
H5 C9 1_555 1_555
H6 C11 1_555 1_555
H7 C12 1_555 1_555
H8 C13 1_555 1_555
H9 C14 1_555 1_555
H10 C15 1_555 1_555
H11 C17 1_555 1_555
H12 C18 1_555 1_555
H13 C19 1_555 1_555
H14 C20 1_555 1_555
H15 C21 1_555 1_555
H16 C25 1_555 1_555
H17 C26 1_555 1_555
H18 C27 1_555 1_555
H19 C28 1_555 1_555
H20 C29 1_555 1_555
H21 C31 1_555 1_555
H22 C32 1_555 1_555
H23 C33 1_555 1_555
H24 C34 1_555 1_555
H25 C35 1_555 1_555
H26 C38 1_555 1_555
H27 C39 1_555 1_555
H28 C40 1_555 1_555
H29 C41 1_555 1_555
H30 C42 1_555 1_555
C1G C1 1_555 1_555
S1G C1G 1_555 1_555
Ag1G S1G 1_555 1_555
S2G Ag1G 1_555 1_555
Ag2G S2G 1_555 1_555
S3G Ag2G 1_555 1_555
C3G C3 1_555 1_555
C2G C1G 1_555 1_555
C10G S2G 1_555 1_555
C11G C10G 1_555 1_555
C12G C11G 1_555 1_555
C13G C12G 1_555 1_555
C14G C13G 1_555 1_555
C15G C10G 1_555 1_555
H10G C15G 1_555 1_555
H9G C14G 1_555 1_555
H8G C13G 1_555 1_555
H7G C12G 1_555 1_555
H6G C11G 1_555 1_555
Ag2E S4 1_555 1_555
S4E Ag2 1_555 1_555
C22F C22 1_555 1_555
S4F C24 1_555 1_555
Ag2C S4F 1_555 1_555
S2C Ag2C 1_555 1_555
S3C Ag2C 1_555 1_555
S5F Ag2C 1_555 1_555
Ag1F S5F 1_555 1_555
S1F Ag1F 1_555 1_555
S2F Ag1F 1_555 1_555
S6F Ag1F 1_555 1_555
C36F C36 1_555 1_555
C23F C22F 1_555 1_555
C30F S5F 1_555 1_555
C31F C30F 1_555 1_555
C32F C31F 1_555 1_555
C33F C32F 1_555 1_555
C34F C33F 1_555 1_555
C35F C30F 1_555 1_555
H25F C35F 1_555 1_555
H24F C34F 1_555 1_555
H23F C33F 1_555 1_555
H22F C32F 1_555 1_555
H21F C31F 1_555 1_555
C37F S6F 1_555 1_555
C38F C37F 1_555 1_555
C39F C38F 1_555 1_555
C40F C39F 1_555 1_555
C41F C40F 1_555 1_555
C42F C37F 1_555 1_555
H30F C42F 1_555 1_555
H29F C41F 1_555 1_555
H28F C40F 1_555 1_555
H27F C39F 1_555 1_555
H26F C38F 1_555 1_555
C24F S4 1_555 1_555
C25F C24F 1_555 1_555
C26F C25F 1_555 1_555
C27F C26F 1_555 1_555
C28F C27F 1_555 1_555
C29F C24F 1_555 1_555
H20F C29F 1_555 1_555
H19F C28F 1_555 1_555
H18F C27F 1_555 1_555
H17F C26F 1_555 1_555
H16F C25F 1_555 1_555
S5E Ag2 1_555 1_555
C16G S3G 1_555 1_555
C17G C16G 1_555 1_555
C18G C17G 1_555 1_555
C19G C18G 1_555 1_555
C20G C19G 1_555 1_555
C21G C16G 1_555 1_555
H15G C21G 1_555 1_555
H14G C20G 1_555 1_555
H13G C19G 1_555 1_555
H12G C18G 1_555 1_555
H11G C17G 1_555 1_555
C4G S1G 1_555 1_555
C5G C4G 1_555 1_555
C6G C5G 1_555 1_555
C7G C6G 1_555 1_555
C8G C7G 1_555 1_555
C9G C4G 1_555 1_555
H5G C9G 1_555 1_555
H4G C8G 1_555 1_555
H3G C7G 1_555 1_555
H2G C6G 1_555 1_555
H1G C5G 1_555 1_555
F2F P1 1_555 1_555
F3F P1 1_555 1_555
F5E P2 1_555 1_555
F6E P2 1_555 1_555
F7E P2 1_555 1_555
F9G P3 1_555 1_555
F10G P3 1_555 1_555
F12E P4 1_555 1_555
F13E P4 1_555 1_555
F14E P4 1_555 1_555
S5 Ag2E 1_555 1_555
C2 C3 1_555 1_555
C8 C9 1_555 1_555
C14 C15 1_555 1_555
C20 C21 1_555 1_555
C23 C36 1_555 1_555
C34 C35 1_555 1_555
C41 C42 1_555 1_555
S2G C2G 1_555 1_555
S3G C3G 1_555 1_555
C3G C2G 1_555 1_555
C14G C15G 1_555 1_555
C22F S4F 1_555 1_555
S5F C23F 1_555 1_555
S6F C36F 1_555 1_555
C36F C23F 1_555 1_555
C34F C35F 1_555 1_555
C41F C42F 1_555 1_555
C28F C29F 1_555 1_555
C20G C21G 1_555 1_555
C8G C9G 1_555 1_555

#END
