
#######################################################################
#
#                 Cambridge Crystallographic Data Centre
#                                CCDC 
#
#######################################################################
#
# If this CIF has been generated from an entry in the Cambridge 
# Structural Database, then it will include bibliographic, chemical, 
# crystal, experimental, refinement or atomic coordinate data resulting 
# from the CCDC's data processing and validation procedures.
#
#######################################################################

data_XANNEF
_symmetry_cell_setting           triclinic
_symmetry_space_group_name_H-M   'P -1'
_symmetry_Int_Tables_number      2
_space_group_name_Hall           '-P 1'
loop_
_symmetry_equiv_pos_site_id
_symmetry_equiv_pos_as_xyz
1 x,y,z
2 -x,-y,-z
_cell_length_a                   9.302(1)
_cell_length_b                   10.639(2)
_cell_length_c                   21.118(6)
_cell_angle_alpha                93.514(6)
_cell_angle_beta                 92.144(3)
_cell_angle_gamma                115.429(1)
_cell_volume                     1879.18
loop_
_atom_site_label
_atom_site_type_symbol
_atom_site_fract_x
_atom_site_fract_y
_atom_site_fract_z
Ag1 Ag 0.05208(2) 0.33752(2) 0.74689(1)
S1 S -0.18681(6) 0.32611(6) 0.82868(3)
S2 S -0.18703(6) 0.35329(7) 0.67716(3)
S3 S -0.50318(8) 0.29529(8) 0.59806(3)
S4 S -0.83102(6) 0.20345(6) 0.66708(3)
S5 S -0.83071(6) 0.18723(7) 0.81596(3)
S6 S -0.52064(7) 0.20389(7) 0.89376(3)
O1 O 0.1732(3) 0.5771(3) 0.7235(1)
O2 O 0.4014(3) 0.7528(3) 0.7357(1)
O3 O 0.3695(5) 0.5564(4) 0.7681(1)
N1 N 0.3160(3) 0.6301(3) 0.7430(1)
C1 C -0.3674(2) 0.2844(2) 0.7816(1)
C2 C -0.3680(2) 0.2999(2) 0.7161(1)
C3 C -0.5090(2) 0.2807(2) 0.6814(1)
C4 C -0.6504(2) 0.2414(2) 0.7130(1)
C5 C -0.6493(2) 0.2282(2) 0.7786(1)
C6 C -0.5101(3) 0.2401(2) 0.8126(1)
C7 C -0.0986(3) 0.5120(3) 0.8375(1)
C8 C -0.1736(4) 0.5944(3) 0.8218(1)
C9 C -0.0872(5) 0.7394(4) 0.8314(2)
C10 C 0.0683(5) 0.7998(3) 0.8559(2)
C11 C 0.1403(4) 0.7169(3) 0.8726(2)
C12 C 0.0582(3) 0.5740(3) 0.8635(1)
C13 C -0.2227(3) 0.2173(3) 0.6163(1)
C14 C -0.1074(3) 0.2511(3) 0.5722(1)
C15 C -0.1198(4) 0.1540(4) 0.5236(1)
C16 C -0.2476(5) 0.0242(4) 0.5176(2)
C17 C -0.3598(4) -0.0099(3) 0.5612(2)
C18 C -0.3488(3) 0.0857(3) 0.6116(1)
C19 C -0.5988(3) 0.4023(3) 0.5792(1)
C20 C -0.6830(3) 0.3693(3) 0.5198(1)
C21 C -0.7450(3) 0.4582(4) 0.4988(1)
C22 C -0.7271(4) 0.5745(4) 0.5363(2)
C23 C -0.6459(4) 0.6050(3) 0.5947(2)
C24 C -0.5793(3) 0.5197(3) 0.6163(1)
C25 C -0.9427(3) 0.0213(3) 0.6751(1)
C26 C -0.8784(4) -0.0722(4) 0.6629(2)
C27 C -0.9756(5) -0.2142(4) 0.6622(2)
C28 C -1.1339(5) -0.2628(3) 0.6711(2)
C29 C -1.1979(4) -0.1701(4) 0.6845(2)
C30 C -1.1026(3) -0.0277(3) 0.6872(2)
C31 C -0.7819(3) 0.3008(3) 0.8872(1)
C32 C -0.8913(3) 0.2518(3) 0.9331(1)
C33 C -0.8733(4) 0.3374(4) 0.9879(1)
C34 C -0.7486(4) 0.4672(4) 0.9973(1)
C35 C -0.6398(3) 0.5150(3) 0.9524(1)
C36 C -0.6560(3) 0.4327(3) 0.8965(1)
C37 C -0.4279(3) 0.0894(3) 0.9010(1)
C38 C -0.3424(3) 0.1054(3) 0.9587(1)
C39 C -0.2819(3) 0.0106(4) 0.9714(1)
C40 C -0.3042(4) -0.0968(4) 0.9271(2)
C41 C -0.3874(4) -0.1107(4) 0.8692(2)
C42 C -0.4505(3) -0.0178(3) 0.8566(1)
H1 H -0.2815 0.5533 0.8051
H2 H -0.1376 0.7975 0.8204
H3 H 0.1265 0.8987 0.8615
H4 H 0.2481 0.7584 0.8904
H5 H 0.1087 0.5170 0.8754
H6 H -0.0201 0.3417 0.5754
H7 H -0.0392 0.1769 0.4941
H8 H -0.2575 -0.0419 0.4828
H9 H -0.4467 -0.1001 0.5577
H10 H -0.4269 0.0608 0.6419
H11 H -0.6976 0.2876 0.4941
H12 H -0.8001 0.4384 0.4581
H13 H -0.7717 0.6340 0.5217
H14 H -0.6353 0.6852 0.6207
H15 H -0.5200 0.5425 0.6562
H16 H -0.7687 -0.0398 0.6549
H17 H -0.9314 -0.2788 0.6554
H18 H -1.1992 -0.3606 0.6681
H19 H -1.3086 -0.2041 0.6917
H20 H -1.1467 0.0361 0.6973
H21 H -0.9773 0.1606 0.9270
H22 H -0.9493 0.3054 1.0192
H23 H -0.7370 0.5237 1.0352
H24 H -0.5526 0.6059 0.9595
H25 H -0.5814 0.4661 0.8651
H26 H -0.3256 0.1811 0.9892
H27 H -0.2251 0.0199 1.0113
H28 H -0.2627 -0.1619 0.9359
H29 H -0.4006 -0.1839 0.8380
H30 H -0.5091 -0.0284 0.8171
S4_2 S 0.16898(6) 0.20345(6) 0.66708(3)
S5_2 S 0.16929(6) 0.18723(7) 0.81596(3)
Ag1_2 Ag -0.94792(2) 0.33752(2) 0.74689(1)
loop_
_geom_bond_atom_site_label_1
_geom_bond_atom_site_label_2
_geom_bond_site_symmetry_1
_geom_bond_site_symmetry_2
Ag1 S1 1_555 1_555
S1 C1 1_555 1_555
S2 Ag1 1_555 1_555
S3 C3 1_555 1_555
S4 C4 1_555 1_555
S5 C5 1_555 1_555
S6 C6 1_555 1_555
O1 Ag1 1_555 1_555
O2 N1 1_555 1_555
O3 N1 1_555 1_555
N1 O1 1_555 1_555
C1 C2 1_555 1_555
C2 S2 1_555 1_555
C3 C2 1_555 1_555
C4 C3 1_555 1_555
C5 C4 1_555 1_555
C6 C1 1_555 1_555
C7 S1 1_555 1_555
C8 C7 1_555 1_555
C9 C8 1_555 1_555
C10 C9 1_555 1_555
C11 C10 1_555 1_555
C12 C7 1_555 1_555
C13 S2 1_555 1_555
C14 C13 1_555 1_555
C15 C14 1_555 1_555
C16 C15 1_555 1_555
C17 C16 1_555 1_555
C18 C13 1_555 1_555
C19 S3 1_555 1_555
C20 C19 1_555 1_555
C21 C20 1_555 1_555
C22 C21 1_555 1_555
C23 C22 1_555 1_555
C24 C19 1_555 1_555
C25 S4 1_555 1_555
C26 C25 1_555 1_555
C27 C26 1_555 1_555
C28 C27 1_555 1_555
C29 C28 1_555 1_555
C30 C25 1_555 1_555
C31 S5 1_555 1_555
C32 C31 1_555 1_555
C33 C32 1_555 1_555
C34 C33 1_555 1_555
C35 C34 1_555 1_555
C36 C31 1_555 1_555
C37 S6 1_555 1_555
C38 C37 1_555 1_555
C39 C38 1_555 1_555
C40 C39 1_555 1_555
C41 C40 1_555 1_555
C42 C37 1_555 1_555
H1 C8 1_555 1_555
H2 C9 1_555 1_555
H3 C10 1_555 1_555
H4 C11 1_555 1_555
H5 C12 1_555 1_555
H6 C14 1_555 1_555
H7 C15 1_555 1_555
H8 C16 1_555 1_555
H9 C17 1_555 1_555
H10 C18 1_555 1_555
H11 C20 1_555 1_555
H12 C21 1_555 1_555
H13 C22 1_555 1_555
H14 C23 1_555 1_555
H15 C24 1_555 1_555
H16 C26 1_555 1_555
H17 C27 1_555 1_555
H18 C28 1_555 1_555
H19 C29 1_555 1_555
H20 C30 1_555 1_555
H21 C32 1_555 1_555
H22 C33 1_555 1_555
H23 C34 1_555 1_555
H24 C35 1_555 1_555
H25 C36 1_555 1_555
H26 C38 1_555 1_555
H27 C39 1_555 1_555
H28 C40 1_555 1_555
H29 C41 1_555 1_555
H30 C42 1_555 1_555
S4_2 Ag1 1_555 1_555
S5_2 Ag1 1_555 1_555
Ag1_2 S4 1_555 1_555
S5 Ag1_2 1_555 1_555
C5 C6 1_555 1_555
C11 C12 1_555 1_555
C17 C18 1_555 1_555
C23 C24 1_555 1_555
C29 C30 1_555 1_555
C35 C36 1_555 1_555
C41 C42 1_555 1_555

#END
