
#######################################################################
#
#                 Cambridge Crystallographic Data Centre
#                                CCDC 
#
#######################################################################
#
# If this CIF has been generated from an entry in the Cambridge 
# Structural Database, then it will include bibliographic, chemical, 
# crystal, experimental, refinement or atomic coordinate data resulting 
# from the CCDC's data processing and validation procedures.
#
#######################################################################

data_XANPEH
_symmetry_cell_setting           monoclinic
_symmetry_space_group_name_H-M   'P 21/c'
_symmetry_Int_Tables_number      14
_space_group_name_Hall           '-P 2ybc'
loop_
_symmetry_equiv_pos_site_id
_symmetry_equiv_pos_as_xyz
1 x,y,z
2 x,1/2-y,1/2+z
3 -x,-y,-z
4 -x,1/2+y,1/2-z
_cell_length_a                   12.786(1)
_cell_length_b                   7.134(4)
_cell_length_c                   20.342(2)
_cell_angle_alpha                90
_cell_angle_beta                 95.977(8)
_cell_angle_gamma                90
_cell_volume                     1845.42
loop_
_atom_site_label
_atom_site_type_symbol
_atom_site_fract_x
_atom_site_fract_y
_atom_site_fract_z
Hg1 Hg 0.08176(2) 0.00055(5) 0.28375(1)
Se1 Se -0.02362(5) -0.1235(1) 0.18543(4)
N1 N 0.0748(4) -0.0963(8) 0.3942(3)
N2 N 0.2411(4) 0.0455(8) 0.3363(3)
C1 C -0.0040(6) -0.185(1) 0.4181(4)
C2 C 0.0002(7) -0.252(1) 0.4820(5)
C3 C 0.0928(8) -0.227(1) 0.5212(4)
C4 C 0.1753(6) -0.139(1) 0.4971(4)
C5 C 0.1654(6) -0.073(1) 0.4331(4)
C6 C 0.2538(5) 0.013(1) 0.4030(4)
C7 C 0.3489(7) 0.059(1) 0.4379(4)
C8 C 0.4284(6) 0.132(1) 0.4064(5)
C9 C 0.4169(6) 0.156(1) 0.3390(5)
C10 C 0.3195(6) 0.115(1) 0.3051(4)
C11 C -0.1595(5) -0.0090(10) 0.1923(4)
C12 C -0.2220(7) 0.014(1) 0.1328(5)
C13 C -0.3226(7) 0.088(1) 0.1354(5)
C14 C -0.3570(7) 0.140(1) 0.1953(7)
C15 C -0.2932(7) 0.118(1) 0.2533(5)
C16 C -0.1928(6) 0.042(1) 0.2517(4)
H1 H -0.0671 -0.2025 0.3897
H2 H -0.0583 -0.3129 0.4978
H3 H 0.0995 -0.2714 0.5655
H4 H 0.2396 -0.1225 0.5244
H5 H 0.3589 0.0379 0.4843
H6 H 0.4926 0.1662 0.4313
H7 H 0.4734 0.2007 0.3163
H8 H 0.3085 0.1361 0.2587
H9 H -0.1973 -0.0190 0.0919
H10 H -0.3680 0.1032 0.0957
H11 H -0.4255 0.1908 0.1960
H12 H -0.3170 0.1548 0.2940
H13 H -0.1479 0.0258 0.2915
Se1C Se 0.02362(5) 0.3765(1) 0.31457(4)
Hg1C Hg -0.08176(2) -0.49945(5) 0.21625(1)
P1 P 0.3234(2) 0.1033(5) 0.0995(1)
F1 F 0.3957(4) 0.092(2) 0.1651(3)
F2 F 0.2479(5) 0.112(1) 0.0343(3)
F3 F 0.3451(8) -0.105(1) 0.0890(5)
F4 F 0.3006(7) 0.311(1) 0.1069(5)
F5 F 0.2271(4) 0.061(1) 0.1388(3)
F6 F 0.4192(4) 0.161(1) 0.0627(3)
loop_
_geom_bond_atom_site_label_1
_geom_bond_atom_site_label_2
_geom_bond_site_symmetry_1
_geom_bond_site_symmetry_2
Hg1 Se1 1_555 1_555
Se1 C11 1_555 1_555
P1 F1 1_555 1_555
F2 P1 1_555 1_555
F3 P1 1_555 1_555
F4 P1 1_555 1_555
F5 P1 1_555 1_555
F6 P1 1_555 1_555
N1 Hg1 1_555 1_555
N2 Hg1 1_555 1_555
C1 N1 1_555 1_555
C2 C1 1_555 1_555
C3 C2 1_555 1_555
C4 C3 1_555 1_555
C5 N1 1_555 1_555
C6 N2 1_555 1_555
C7 C6 1_555 1_555
C8 C7 1_555 1_555
C9 C8 1_555 1_555
C10 N2 1_555 1_555
C11 C12 1_555 1_555
C12 C13 1_555 1_555
C13 C14 1_555 1_555
C14 C15 1_555 1_555
C15 C16 1_555 1_555
C16 C11 1_555 1_555
H1 C1 1_555 1_555
H2 C2 1_555 1_555
H3 C3 1_555 1_555
H4 C4 1_555 1_555
H5 C7 1_555 1_555
H6 C8 1_555 1_555
H7 C9 1_555 1_555
H8 C10 1_555 1_555
H9 C12 1_555 1_555
H10 C13 1_555 1_555
H11 C14 1_555 1_555
H12 C15 1_555 1_555
H13 C16 1_555 1_555
Se1C Hg1 1_555 1_555
Hg1C Se1 1_555 1_555
C4 C5 1_555 1_555
C5 C6 1_555 1_555
C9 C10 1_555 1_555

#END
