
#######################################################################
#
#                 Cambridge Crystallographic Data Centre
#                                CCDC 
#
#######################################################################
#
# If this CIF has been generated from an entry in the Cambridge 
# Structural Database, then it will include bibliographic, chemical, 
# crystal, experimental, refinement or atomic coordinate data resulting 
# from the CCDC's data processing and validation procedures.
#
#######################################################################

data_XANPAD
_symmetry_cell_setting           monoclinic
_symmetry_space_group_name_H-M   'C 2/c'
_symmetry_Int_Tables_number      15
_space_group_name_Hall           '-C 2yn'
loop_
_symmetry_equiv_pos_site_id
_symmetry_equiv_pos_as_xyz
1 x,y,z
2 1/2+x,1/2+y,z
3 x,-y,1/2+z
4 1/2+x,1/2-y,1/2+z
5 -x,-y,-z
6 1/2-x,1/2-y,-z
7 -x,y,1/2-z
8 1/2-x,1/2+y,1/2-z
_cell_length_a                   28.454(2)
_cell_length_b                   6.991(2)
_cell_length_c                   20.473(2)
_cell_angle_alpha                90
_cell_angle_beta                 106.756(6)
_cell_angle_gamma                90
_cell_volume                     3899.61
loop_
_atom_site_label
_atom_site_type_symbol
_atom_site_fract_x
_atom_site_fract_y
_atom_site_fract_z
Hg1 Hg 0.21362(1) 0.19687(5) 0.20632(2)
S1 S 0.26037(7) 0.0804(3) 0.31278(9)
O1 O 0.4659(2) 0.3429(9) 0.3823(3)
N1 N 0.2131(2) 0.1184(9) 0.0958(3)
N2 N 0.1373(2) 0.2403(8) 0.1405(3)
C1 C 0.3202(3) 0.181(1) 0.3285(4)
C2 C 0.3411(3) 0.233(1) 0.2780(4)
C3 C 0.3893(3) 0.289(1) 0.2934(4)
C4 C 0.4174(3) 0.297(1) 0.3611(4)
C5 C 0.3958(3) 0.253(1) 0.4127(4)
C6 C 0.3478(3) 0.196(1) 0.3962(4)
C7 C 0.4905(4) 0.373(2) 0.3313(6)
C8 C 0.2511(3) 0.046(1) 0.0767(5)
C9 C 0.2463(3) -0.002(1) 0.0101(5)
C10 C 0.2019(4) 0.022(2) -0.0372(4)
C11 C 0.1636(3) 0.095(1) -0.0186(4)
C12 C 0.1699(3) 0.1399(10) 0.0485(4)
C13 C 0.1280(3) 0.211(1) 0.0732(4)
C14 C 0.0810(3) 0.234(1) 0.0303(4)
C15 C 0.0441(3) 0.290(1) 0.0580(5)
C16 C 0.0542(3) 0.321(1) 0.1261(5)
C17 C 0.1012(3) 0.295(1) 0.1663(4)
H1 H 0.3217 0.2292 0.2317
H2 H 0.4032 0.3219 0.2580
H3 H 0.4146 0.2624 0.4592
H4 H 0.3333 0.1664 0.4314
H5 H 0.5239 0.4049 0.3525
H6 H 0.4889 0.2598 0.3051
H7 H 0.4751 0.4749 0.3021
H8 H 0.2818 0.0269 0.1101
H9 H 0.2735 -0.0503 -0.0029
H10 H 0.1978 -0.0126 -0.0834
H11 H 0.1328 0.1144 -0.0516
H12 H 0.0741 0.2122 -0.0173
H13 H 0.0117 0.3076 0.0291
H14 H 0.0291 0.3597 0.1454
H15 H 0.1085 0.3158 0.2140
Hg1G Hg 0.28638(1) -0.30313(5) 0.29368(2)
S1G S 0.23963(7) 0.5804(3) 0.18722(9)
P1 P 0.40259(8) -0.1169(5) 0.1313(1)
F1 F 0.4421(2) -0.117(1) 0.2025(3)
F2 F 0.3620(2) -0.112(1) 0.0603(3)
F3 F 0.4408(2) -0.028(1) 0.1008(3)
F4 F 0.3625(2) -0.178(2) 0.1637(4)
F5 F 0.4169(4) -0.313(1) 0.1181(6)
F6 F 0.3871(3) 0.092(1) 0.1435(5)
loop_
_geom_bond_atom_site_label_1
_geom_bond_atom_site_label_2
_geom_bond_site_symmetry_1
_geom_bond_site_symmetry_2
Hg1 S1 1_555 1_555
S1 C1 1_555 1_555
P1 F1 1_555 1_555
F2 P1 1_555 1_555
F3 P1 1_555 1_555
F4 P1 1_555 1_555
F5 P1 1_555 1_555
F6 P1 1_555 1_555
O1 C4 1_555 1_555
N1 Hg1 1_555 1_555
N2 Hg1 1_555 1_555
C1 C2 1_555 1_555
C2 C3 1_555 1_555
C3 C4 1_555 1_555
C4 C5 1_555 1_555
C5 C6 1_555 1_555
C6 C1 1_555 1_555
C7 O1 1_555 1_555
C8 N1 1_555 1_555
C9 C8 1_555 1_555
C10 C9 1_555 1_555
C11 C10 1_555 1_555
C12 N1 1_555 1_555
C13 N2 1_555 1_555
C14 C13 1_555 1_555
C15 C14 1_555 1_555
C16 C15 1_555 1_555
C17 N2 1_555 1_555
H1 C2 1_555 1_555
H2 C3 1_555 1_555
H3 C5 1_555 1_555
H4 C6 1_555 1_555
H5 C7 1_555 1_555
H6 C7 1_555 1_555
H7 C7 1_555 1_555
H8 C8 1_555 1_555
H9 C9 1_555 1_555
H10 C10 1_555 1_555
H11 C11 1_555 1_555
H12 C14 1_555 1_555
H13 C15 1_555 1_555
H14 C16 1_555 1_555
H15 C17 1_555 1_555
Hg1G S1 1_555 1_555
S1G Hg1 1_555 1_555
C11 C12 1_555 1_555
C12 C13 1_555 1_555
C16 C17 1_555 1_555

#END
