
#######################################################################
#
#                 Cambridge Crystallographic Data Centre
#                                CCDC 
#
#######################################################################
#
# If this CIF has been generated from an entry in the Cambridge 
# Structural Database, then it will include bibliographic, chemical, 
# crystal, experimental, refinement or atomic coordinate data resulting 
# from the CCDC's data processing and validation procedures.
#
#######################################################################

data_XANXEP01
_symmetry_cell_setting           monoclinic
_symmetry_space_group_name_H-M   'P 2/c'
_symmetry_Int_Tables_number      13
_space_group_name_Hall           '-P 2yc'
loop_
_symmetry_equiv_pos_site_id
_symmetry_equiv_pos_as_xyz
1 x,y,z
2 x,-y,1/2+z
3 -x,-y,-z
4 -x,y,1/2-z
_cell_length_a                   7.134(2)
_cell_length_b                   7.322(2)
_cell_length_c                   31.725(4)
_cell_angle_alpha                90
_cell_angle_beta                 97.53(2)
_cell_angle_gamma                90
_cell_volume                     1642.87
loop_
_atom_site_label
_atom_site_type_symbol
_atom_site_fract_x
_atom_site_fract_y
_atom_site_fract_z
Ag1 Ag 0.09653(9) 0.03115(13) -0.077501(18)
N1 N -0.0342(9) 0.0216(10) -0.1430(2)
N2 N -0.7838(10) -0.0168(10) -0.5117(2)
C1 C -0.3613(11) 0.0102(11) -0.3071(3)
C2 C -0.2897(10) 0.0075(11) -0.2699(2)
C3 C -0.2025(11) 0.0160(11) -0.2274(2)
C4 C -0.1574(11) -0.1443(13) -0.2049(2)
H1 H -0.1826 -0.2597 -0.2181
C5 C -0.0753(11) -0.1335(13) -0.1629(2)
H2 H -0.0473 -0.2441 -0.1477
C6 C -0.0746(12) 0.1768(14) -0.1647(3)
H3 H -0.0439 0.2895 -0.1507
C7 C -0.1587(12) 0.1811(13) -0.2065(2)
H4 H -0.1861 0.2942 -0.2206
C8 C -0.4445(11) 0.0056(11) -0.3482(2)
C9 C -0.5199(11) 0.0000(11) -0.3842(3)
C10 C -0.6123(10) -0.0058(11) -0.4272(2)
C11 C -0.6791(14) -0.1659(14) -0.4460(3)
H5 H -0.6667 -0.2760 -0.4300
C12 C -0.7639(14) -0.1694(14) -0.4876(3)
H6 H -0.8097 -0.2822 -0.4996
C13 C -0.7225(14) 0.1381(14) -0.4934(3)
H7 H -0.7368 0.2473 -0.5097
C14 C -0.6379(14) 0.1484(14) -0.4515(3)
H8 H -0.5978 0.2632 -0.4396
N2A N 0.2162(10) 0.0168(10) -0.0117(2)
Ag1A Ag -0.90347(9) -0.03115(13) -0.577501(18)
N3 N 0.1360(13) -0.4971(9) -0.08122(19)
O1 O 0.2405(13) -0.6313(11) -0.0819(3)
O2 O 0.1943(17) -0.3406(11) -0.0854(3)
O3 O -0.0298(18) -0.5228(18) -0.0765(6)
N4 N 0.3803(18) 0.5014(17) 0.1385(4)
C15 C 0.467(6) 0.489(6) 0.1721(7)
C16 C 0.562(2) 0.485(2) 0.2167(4)
H9 H 0.6982 0.4702 0.2169
H10 H 0.5119 0.3829 0.2318
H11 H 0.5366 0.6000 0.2309
N5? N 0.8275(17) 0.4817(17) 0.2052(4)
C17? C 0.680(3) 0.486(4) 0.1877(8)
C18? C 0.513(3) 0.491(4) 0.1565(8)
H12? H 0.4011 0.4631 0.1704
H13? H 0.5243 0.4016 0.1341
H14? H 0.4991 0.6139 0.1440
loop_
_geom_bond_atom_site_label_1
_geom_bond_atom_site_label_2
_geom_bond_site_symmetry_1
_geom_bond_site_symmetry_2
Ag1 N1 1_555 1_555
N1 C5 1_555 1_555
N2 C12 1_555 1_555
C1 C2 1_555 1_555
C2 C3 1_555 1_555
C3 C4 1_555 1_555
C4 H1 1_555 1_555
C5 C4 1_555 1_555
H2 C5 1_555 1_555
C6 N1 1_555 1_555
H3 C6 1_555 1_555
C7 C3 1_555 1_555
H4 C7 1_555 1_555
C8 C1 1_555 1_555
C9 C8 1_555 1_555
C10 C9 1_555 1_555
C11 C10 1_555 1_555
H5 C11 1_555 1_555
C12 C11 1_555 1_555
H6 C12 1_555 1_555
C13 N2 1_555 1_555
H7 C13 1_555 1_555
C14 C10 1_555 1_555
H8 C14 1_555 1_555
N3 O1 1_555 1_555
O2 N3 1_555 1_555
O3 N3 1_555 1_555
N4 C15 1_555 1_555
C15 C16 1_555 1_555
C16 H9 1_555 1_555
H10 C16 1_555 1_555
H11 C16 1_555 1_555
N2A Ag1 1_555 1_555
Ag1A N2 1_555 1_555
C6 C7 1_555 1_555
C13 C14 1_555 1_555

#END
