
#######################################################################
#
#                 Cambridge Crystallographic Data Centre
#                                CCDC 
#
#######################################################################
#
# If this CIF has been generated from an entry in the Cambridge 
# Structural Database, then it will include bibliographic, chemical, 
# crystal, experimental, refinement or atomic coordinate data resulting 
# from the CCDC's data processing and validation procedures.
#
#######################################################################

data_XANXUF
_symmetry_cell_setting           tetragonal
_symmetry_space_group_name_H-M   'I 41/a'
_symmetry_Int_Tables_number      88
_space_group_name_Hall           '-I 4ad'
loop_
_symmetry_equiv_pos_site_id
_symmetry_equiv_pos_as_xyz
1 x,y,z
2 3/4-y,1/4+x,1/4+z
3 1/4+y,1/4-x,1/4+z
4 x,1/2+y,-z
5 3/4+y,1/4-x,1/4-z
6 1/4-y,1/4+x,1/4-z
7 1/2+x,1/2+y,1/2+z
8 1/2+x,y,1/2-z
9 -x,-y,-z
10 1/4+y,3/4-x,3/4-z
11 3/4-y,3/4+x,3/4-z
12 -x,1/2-y,z
13 1/4-y,3/4+x,3/4+z
14 3/4+y,3/4-x,3/4+z
15 1/2-x,1/2-y,1/2-z
16 1/2-x,-y,1/2+z
_cell_length_a                   10.626(3)
_cell_length_b                   10.626(3)
_cell_length_c                   25.718(3)
_cell_angle_alpha                90
_cell_angle_beta                 90
_cell_angle_gamma                90
_cell_volume                     2903.87
loop_
_atom_site_label
_atom_site_type_symbol
_atom_site_fract_x
_atom_site_fract_y
_atom_site_fract_z
Cu1 Cu -0.5000 0.2500 0.3750
N1 N 0.0395(6) 0.0883(6) 0.1668(2)
C1 C 0.1330(8) 0.0113(8) 0.1541(3)
C2 C 0.1737(9) -0.0883(9) 0.1811(4)
C3 C 0.118(1) -0.1129(10) 0.2280(5)
C4 C 0.0220(10) -0.0338(9) 0.2454(4)
C5 C -0.0172(7) 0.0618(7) 0.2135(3)
C6 C -0.1178(8) 0.1437(8) 0.2290(3)
C7 C -0.2024(8) 0.2104(8) 0.2424(3)
H1 H 0.1755 0.0287 0.1225
H2 H 0.2392 -0.1404 0.1681
H3 H 0.1446 -0.1825 0.2484
H4 H -0.0154 -0.0459 0.2786
C7N C -0.2976(8) 0.2896(8) 0.2576(3)
C6N C -0.3822(8) 0.3563(8) 0.2710(3)
C5N C -0.4828(7) 0.4382(7) 0.2865(3)
N1N N -0.5395(6) 0.4117(6) 0.3332(2)
Cu1G Cu 0.0000 0.2500 0.1250
N1A N -0.3383(6) 0.2895(6) 0.4168(2)
C1A C -0.2613(8) 0.3830(8) 0.4041(3)
C2A C -0.1617(9) 0.4237(9) 0.4311(4)
C3A C -0.1371(10) 0.368(1) 0.4780(5)
C4A C -0.2162(9) 0.2720(10) 0.4954(4)
C5A C -0.3118(7) 0.2328(7) 0.4635(3)
C6A C -0.3937(8) 0.1322(8) 0.4790(3)
C7A C -0.4604(8) 0.0476(8) 0.4924(3)
C7I C -0.5396(8) -0.0476(8) 0.5076(3)
C6I C -0.6063(8) -0.1322(8) 0.5210(3)
C5I C -0.6882(7) -0.2328(7) 0.5365(3)
N1I N -0.6617(6) -0.2895(6) 0.5832(2)
Cu1A Cu -0.5000 -0.2500 0.6250
C1I C -0.7387(8) -0.3830(8) 0.5959(3)
C2I C -0.8383(9) -0.4237(9) 0.5689(4)
C3I C -0.8629(10) -0.368(1) 0.5220(5)
C4I C -0.7838(9) -0.2720(10) 0.5046(4)
H4I H -0.7959 -0.2346 0.4714
H3I H -0.9325 -0.3946 0.5016
H2I H -0.8904 -0.4892 0.5819
H1I H -0.7213 -0.4255 0.6275
H4A H -0.2041 0.2346 0.5286
H3A H -0.0675 0.3946 0.4984
H2A H -0.1096 0.4892 0.4181
H1A H -0.2787 0.4255 0.3725
N1B N -0.6617(6) 0.2105(6) 0.4168(2)
N1G N -0.4605(6) 0.0883(6) 0.3332(2)
C1N C -0.6330(8) 0.4887(8) 0.3459(3)
C2N C -0.6737(9) 0.5883(9) 0.3189(4)
C3N C -0.618(1) 0.6129(10) 0.2720(5)
C4N C -0.5220(10) 0.5338(9) 0.2546(4)
H4N H -0.4846 0.5459 0.2214
H3N H -0.6446 0.6825 0.2516
H2N H -0.7392 0.6404 0.3319
H1N H -0.6755 0.4713 0.3775
F1 F 0.041(1) 0.156(1) 0.6006(5)
B1 B 0.0000 0.2500 0.6250
F1E F 0.094(1) 0.291(1) 0.6494(5)
F1D F -0.094(1) 0.209(1) 0.6494(5)
F1K F -0.041(1) 0.344(1) 0.6006(5)
loop_
_geom_bond_atom_site_label_1
_geom_bond_atom_site_label_2
_geom_bond_site_symmetry_1
_geom_bond_site_symmetry_2
Cu1 N1N 1_555 1_555
F1 B1 1_555 1_555
N1 C1 1_555 1_555
C1 C2 1_555 1_555
C2 C3 1_555 1_555
C3 C4 1_555 1_555
C4 C5 1_555 1_555
C5 N1 1_555 1_555
C6 C5 1_555 1_555
C7 C6 1_555 1_555
B1 F1E 1_555 1_555
H1 C1 1_555 1_555
H2 C2 1_555 1_555
H3 C3 1_555 1_555
H4 C4 1_555 1_555
C7N C7 1_555 1_555
C6N C7N 1_555 1_555
C5N C6N 1_555 1_555
N1N C5N 1_555 1_555
Cu1G N1 1_555 1_555
N1A Cu1 1_555 1_555
C1A N1A 1_555 1_555
C2A C1A 1_555 1_555
C3A C2A 1_555 1_555
C4A C3A 1_555 1_555
C5A N1A 1_555 1_555
C6A C5A 1_555 1_555
C7A C6A 1_555 1_555
C7I C7A 1_555 1_555
C6I C7I 1_555 1_555
C5I C6I 1_555 1_555
N1I C5I 1_555 1_555
Cu1A N1I 1_555 1_555
C1I N1I 1_555 1_555
C2I C1I 1_555 1_555
C3I C2I 1_555 1_555
C4I C5I 1_555 1_555
H4I C4I 1_555 1_555
H3I C3I 1_555 1_555
H2I C2I 1_555 1_555
H1I C1I 1_555 1_555
H4A C4A 1_555 1_555
H3A C3A 1_555 1_555
H2A C2A 1_555 1_555
H1A C1A 1_555 1_555
N1B Cu1 1_555 1_555
N1G Cu1 1_555 1_555
C1N N1N 1_555 1_555
C2N C1N 1_555 1_555
C3N C2N 1_555 1_555
C4N C5N 1_555 1_555
H4N C4N 1_555 1_555
H3N C3N 1_555 1_555
H2N C2N 1_555 1_555
H1N C1N 1_555 1_555
F1D B1 1_555 1_555
F1K B1 1_555 1_555
C4A C5A 1_555 1_555
C3I C4I 1_555 1_555
C3N C4N 1_555 1_555

#END
