
#######################################################################
#
#                 Cambridge Crystallographic Data Centre
#                                CCDC 
#
#######################################################################
#
# If this CIF has been generated from an entry in the Cambridge 
# Structural Database, then it will include bibliographic, chemical, 
# crystal, experimental, refinement or atomic coordinate data resulting 
# from the CCDC's data processing and validation procedures.
#
#######################################################################

data_XANXAM
_symmetry_cell_setting           monoclinic
_symmetry_space_group_name_H-M   'P 21/c'
_symmetry_Int_Tables_number      14
_space_group_name_Hall           '-P 2ybc'
loop_
_symmetry_equiv_pos_site_id
_symmetry_equiv_pos_as_xyz
1 x,y,z
2 -x,1/2+y,1/2-z
3 -x,-y,-z
4 x,1/2-y,1/2+z
_cell_length_a                   11.4595(11)
_cell_length_b                   8.8258(8)
_cell_length_c                   19.7469(19)
_cell_angle_alpha                90
_cell_angle_beta                 93.203(2)
_cell_angle_gamma                90
_cell_volume                     1994.07
loop_
_atom_site_label
_atom_site_type_symbol
_atom_site_fract_x
_atom_site_fract_y
_atom_site_fract_z
Ag1 Ag 0.769785(17) 0.61011(2) 1.015201(10)
N1 N 0.68636(18) 0.4024(2) 1.04929(11)
N2 N 0.18709(19) 0.3507(2) 0.49300(11)
O1 O 0.48522(15) 0.3042(2) 0.91026(9)
O2 O 0.31803(17) 0.4641(2) 0.65173(10)
C1 C 0.7124(2) 0.3530(3) 1.11299(14)
H1 H 0.7674 0.4088 1.1408
C2 C 0.6629(2) 0.2251(3) 1.13960(15)
H2 H 0.6836 0.1937 1.1847
C3 C 0.5829(3) 0.1436(3) 1.09968(16)
H3 H 0.5478 0.0550 1.1168
C4 C 0.5542(2) 0.1931(3) 1.03394(15)
H4 H 0.4986 0.1395 1.0057
C5 C 0.6081(2) 0.3220(3) 1.01036(13)
C6 C 0.5844(2) 0.3811(3) 0.93968(13)
H5 H 0.5692 0.4915 0.9409
H6 H 0.6529 0.3633 0.9124
C7 C 0.4476(2) 0.3475(3) 0.84559(13)
C8 C 0.3510(2) 0.2697(3) 0.81745(14)
H7 H 0.3159 0.1923 0.8428
C9 C 0.3057(2) 0.3040(3) 0.75283(14)
H8 H 0.2403 0.2496 0.7337
C10 C 0.3564(2) 0.4183(3) 0.71602(14)
C11 C 0.4515(2) 0.4972(3) 0.74452(14)
H9 H 0.4850 0.5767 0.7197
C12 C 0.4987(2) 0.4615(3) 0.80898(13)
H10 H 0.5651 0.5146 0.8277
C13 C 0.2492(3) 0.3593(3) 0.61239(14)
H11 H 0.1836 0.3228 0.6386
H12 H 0.2974 0.2709 0.6007
C14 C 0.2028(2) 0.4374(3) 0.54875(13)
C15 C 0.1697(2) 0.5886(3) 0.54948(15)
H13 H 0.1816 0.6470 0.5897
C16 C 0.1192(2) 0.6533(3) 0.49141(15)
H14 H 0.0963 0.7567 0.4910
C17 C 0.1027(2) 0.5647(3) 0.43368(14)
H15 H 0.0685 0.6063 0.3929
C18 C 0.1368(2) 0.4152(3) 0.43673(13)
H16 H 0.1243 0.3544 0.3973
S1 S 1.04755(5) 0.49946(7) 1.12771(3)
F1 F 1.0942(2) 0.7368(2) 1.20448(11)
F2 F 1.1497(2) 0.5254(3) 1.24917(11)
F3 F 0.9695(2) 0.5840(3) 1.24341(13)
O3 O 1.01908(19) 0.3465(2) 1.14453(11)
O4 O 0.9551(2) 0.5853(3) 1.09467(14)
O5 O 1.16038(19) 0.5176(3) 1.10010(11)
C19 C 1.0670(3) 0.5923(3) 1.21039(16)
Ag1A Ag 0.230215(17) 0.11011(2) 0.484799(10)
N2A N 0.81291(19) 0.8507(2) 1.00700(11)
loop_
_geom_bond_atom_site_label_1
_geom_bond_atom_site_label_2
_geom_bond_site_symmetry_1
_geom_bond_site_symmetry_2
Ag1 N1 1_555 1_555
N1 C1 1_555 1_555
N2 C14 1_555 1_555
O1 C6 1_555 1_555
O2 C10 1_555 1_555
C1 H1 1_555 1_555
C2 C1 1_555 1_555
H2 C2 1_555 1_555
C3 C2 1_555 1_555
H3 C3 1_555 1_555
C4 C3 1_555 1_555
H4 C4 1_555 1_555
C5 N1 1_555 1_555
C6 C5 1_555 1_555
H5 C6 1_555 1_555
H6 C6 1_555 1_555
C7 O1 1_555 1_555
C8 C7 1_555 1_555
H7 C8 1_555 1_555
C9 C8 1_555 1_555
H8 C9 1_555 1_555
C10 C9 1_555 1_555
C11 C10 1_555 1_555
H9 C11 1_555 1_555
C12 C7 1_555 1_555
H10 C12 1_555 1_555
C13 O2 1_555 1_555
H11 C13 1_555 1_555
H12 C13 1_555 1_555
C14 C13 1_555 1_555
C15 C14 1_555 1_555
H13 C15 1_555 1_555
C16 C15 1_555 1_555
H14 C16 1_555 1_555
C17 C16 1_555 1_555
H15 C17 1_555 1_555
C18 N2 1_555 1_555
H16 C18 1_555 1_555
S1 O3 1_555 1_555
F1 C19 1_555 1_555
F2 C19 1_555 1_555
F3 C19 1_555 1_555
O4 Ag1 1_555 1_555
O5 S1 1_555 1_555
C19 S1 1_555 1_555
Ag1A N2 1_555 1_555
N2A Ag1 1_555 1_555
C4 C5 1_555 1_555
C11 C12 1_555 1_555
C17 C18 1_555 1_555
S1 O4 1_555 1_555

#END
