
#######################################################################
#
#                 Cambridge Crystallographic Data Centre
#                                CCDC 
#
#######################################################################
#
# If this CIF has been generated from an entry in the Cambridge 
# Structural Database, then it will include bibliographic, chemical, 
# crystal, experimental, refinement or atomic coordinate data resulting 
# from the CCDC's data processing and validation procedures.
#
#######################################################################

data_XANXAL
_symmetry_cell_setting           triclinic
_symmetry_space_group_name_H-M   'P -1'
_symmetry_Int_Tables_number      2
_space_group_name_Hall           '-P 1'
loop_
_symmetry_equiv_pos_site_id
_symmetry_equiv_pos_as_xyz
1 x,y,z
2 -x,-y,-z
_cell_length_a                   12.639(2)
_cell_length_b                   15.558(2)
_cell_length_c                   16.5787(5)
_cell_angle_alpha                113.349(1)
_cell_angle_beta                 91.187(2)
_cell_angle_gamma                106.020(1)
_cell_volume                     2845.36
loop_
_atom_site_label
_atom_site_type_symbol
_atom_site_fract_x
_atom_site_fract_y
_atom_site_fract_z
P1 P 0.4570(3) 0.3082(2) 0.6601(3)
F1 F 0.371(1) 0.232(1) 0.589(1)
F2 F 0.552(1) 0.375(1) 0.719(1)
F3 F 0.516(2) 0.231(1) 0.6341(8)
F4 F 0.382(2) 0.372(1) 0.6918(9)
F5 F 0.480(2) 0.348(1) 0.5932(9)
F6 F 0.432(1) 0.276(2) 0.733(2)
P2 P 0.2077(3) -0.0395(2) -0.1407(3)
F7 F 0.226(1) -0.1121(7) -0.2306(6)
F8 F 0.189(1) 0.0377(6) -0.0553(10)
F9 F 0.141(1) -0.1277(8) -0.132(1)
F10 F 0.270(2) 0.0483(7) -0.1594(9)
F11 F 0.110(2) -0.040(2) -0.185(2)
F12 F 0.3006(9) -0.037(1) -0.0948(8)
O1 O 0.367(3) 0.009(1) 0.356(3)
O2 O 0.062(2) 0.151(1) 0.760(2)
N1 N 0.2014(4) 0.3444(4) 0.2134(3)
N2 N -0.4316(4) 0.6626(4) -0.0633(4)
N3 N 0.1716(5) 0.2692(4) 0.3721(3)
N4 N -0.3614(4) 0.2706(4) 0.9765(3)
N5 N 0.4287(4) 0.3185(4) 0.3283(4)
N6 N 1.3164(4) 0.6385(4) 0.8088(3)
N7 N 0.2107(6) 0.1295(6) 0.1846(5)
N8 N -0.4883(5) 0.8429(5) -0.0928(4)
C1 C 0.2327(6) 0.4410(6) 0.2412(5)
C2 C 0.1759(6) 0.4904(6) 0.2118(5)
C3 C 0.0780(5) 0.4373(6) 0.1541(4)
C4 C 0.0457(6) 0.3371(6) 0.1241(5)
C5 C 0.1072(6) 0.2935(5) 0.1560(5)
C6 C -0.4447(6) 0.5694(6) -0.0805(6)
C7 C -0.3676(7) 0.5387(6) -0.0485(6)
C8 C -0.2724(6) 0.6075(6) 0.0061(5)
C9 C -0.2584(6) 0.7031(6) 0.0235(6)
C10 C -0.3391(6) 0.7268(5) -0.0132(5)
C11 C 0.0106(6) 0.4819(6) 0.1239(5)
C12 C -0.0509(6) 0.5167(6) 0.0985(5)
C13 C -0.1251(6) 0.5500(6) 0.0689(6)
C14 C -0.1916(7) 0.5762(7) 0.0406(5)
C15 C 0.0622(6) 0.2544(8) 0.3592(5)
C16 C -0.0077(6) 0.2465(7) 0.4204(6)
C17 C 0.0375(6) 0.2529(6) 0.4998(4)
C18 C 0.1501(7) 0.2705(7) 0.5132(5)
C19 C 0.2127(6) 0.2763(7) 0.4485(5)
C20 C -0.2523(5) 0.2824(6) 0.9814(4)
C21 C -0.1910(6) 0.2776(7) 0.9126(5)
C22 C -0.2464(6) 0.2575(5) 0.8316(4)
C23 C -0.3602(7) 0.2421(7) 0.8246(4)
C24 C -0.4139(6) 0.2502(7) 0.8974(5)
C25 C -0.0281(7) 0.2483(6) 0.5691(5)
C26 C -0.0804(7) 0.2504(6) 0.6284(5)
C27 C -0.1392(7) 0.2504(6) 0.6970(5)
C28 C -0.1884(7) 0.2518(6) 0.7577(5)
C29 C 0.4918(7) 0.4117(6) 0.3598(6)
C30 C 0.5928(6) 0.4481(7) 0.4113(7)
C31 C 0.6339(5) 0.3845(6) 0.4307(4)
C32 C 0.5707(7) 0.2872(7) 0.3957(7)
C33 C 0.4708(6) 0.2571(6) 0.3434(6)
C34 C 1.2644(6) 0.5433(5) 0.7742(5)
C35 C 1.1669(7) 0.4983(6) 0.7140(5)
C36 C 1.1194(5) 0.5536(6) 0.6902(4)
C37 C 1.1730(6) 0.6540(6) 0.7251(5)
C38 C 1.2700(6) 0.6932(5) 0.7843(5)
C39 C 0.7415(6) 0.4191(7) 0.4857(5)
C40 C 0.8298(6) 0.4479(7) 0.5309(5)
C41 C 0.9277(6) 0.4827(6) 0.5838(5)
C42 C 1.0164(6) 0.5113(6) 0.6307(4)
C43 C 0.1606(9) 0.0512(8) 0.1440(9)
C44 C 0.099(1) -0.0495(10) 0.086(2)
C45 C -0.4581(6) 0.9147(6) -0.1010(5)
C46 C -0.4194(9) 1.0073(7) -0.1061(7)
H1 H 0.2978 0.4789 0.2839
H2 H 0.2044 0.5597 0.2313
H3 H -0.0190 0.2976 0.0813
H4 H 0.0814 0.2240 0.1363
H5 H -0.5109 0.5210 -0.1168
H6 H -0.3801 0.4707 -0.0641
H7 H -0.1937 0.7533 0.0606
H8 H -0.3266 0.7941 -0.0014
H9 H 0.0305 0.2491 0.3043
H10 H -0.0849 0.2368 0.4082
H11 H 0.1850 0.2788 0.5682
H12 H 0.2901 0.2861 0.4594
H13 H -0.2137 0.2950 1.0367
H14 H -0.1131 0.2879 0.9209
H15 H -0.4014 0.2258 0.7692
H16 H -0.4916 0.2408 0.8910
H17 H 0.4648 0.4560 0.3456
H18 H 0.6339 0.5160 0.4334
H19 H 0.5963 0.2409 0.4077
H20 H 0.4301 0.1890 0.3170
H21 H 1.2954 0.5030 0.7915
H22 H 1.1340 0.4289 0.6898
H23 H 1.1433 0.6954 0.7084
H24 H 1.3053 0.7623 0.8087
H25 H 0.0522 -0.0782 0.1190
H26 H 0.0554 -0.0512 0.0383
H27 H 0.1499 -0.0855 0.0642
H28 H -0.3448 1.0401 -0.0770
H29 H -0.4225 0.9970 -0.1666
H30 H -0.4652 1.0464 -0.0780
Cu1 Cu 0.26858(6) 0.27291(7) 0.27037(5)
Cu2 Cu -0.55621(6) 0.71118(6) -0.08855(5)
Cu2A Cu -0.44379(6) 0.28882(6) 1.08855(5)
Cu2_2 Cu 1.44379(6) 0.71118(6) 0.91145(5)
N4A N -0.6386(4) 0.7294(4) 0.0235(3)
N6_2 N -0.6836(4) 0.6385(4) -0.1912(3)
loop_
_geom_bond_atom_site_label_1
_geom_bond_atom_site_label_2
_geom_bond_site_symmetry_1
_geom_bond_site_symmetry_2
P1 F1 1_555 1_555
P2 F7 1_555 1_555
F2 P1 1_555 1_555
F3 P1 1_555 1_555
F4 P1 1_555 1_555
F5 P1 1_555 1_555
F6 P1 1_555 1_555
F8 P2 1_555 1_555
F9 P2 1_555 1_555
F10 P2 1_555 1_555
F11 P2 1_555 1_555
F12 P2 1_555 1_555
N1 C1 1_555 1_555
N2 C6 1_555 1_555
N3 C15 1_555 1_555
N4 C20 1_555 1_555
N5 C29 1_555 1_555
N6 C34 1_555 1_555
N7 C43 1_555 1_555
N8 C45 1_555 1_555
C1 C2 1_555 1_555
C2 C3 1_555 1_555
C3 C4 1_555 1_555
C4 C5 1_555 1_555
C5 N1 1_555 1_555
C6 C7 1_555 1_555
C7 C8 1_555 1_555
C8 C9 1_555 1_555
C9 C10 1_555 1_555
C10 N2 1_555 1_555
C11 C3 1_555 1_555
C12 C11 1_555 1_555
C13 C12 1_555 1_555
C14 C8 1_555 1_555
C15 C16 1_555 1_555
C16 C17 1_555 1_555
C17 C18 1_555 1_555
C18 C19 1_555 1_555
C19 N3 1_555 1_555
C20 C21 1_555 1_555
C21 C22 1_555 1_555
C22 C23 1_555 1_555
C23 C24 1_555 1_555
C24 N4 1_555 1_555
C25 C17 1_555 1_555
C26 C25 1_555 1_555
C27 C26 1_555 1_555
C28 C22 1_555 1_555
C29 C30 1_555 1_555
C30 C31 1_555 1_555
C31 C32 1_555 1_555
C32 C33 1_555 1_555
C33 N5 1_555 1_555
C34 C35 1_555 1_555
C35 C36 1_555 1_555
C36 C37 1_555 1_555
C37 C38 1_555 1_555
C38 N6 1_555 1_555
C39 C31 1_555 1_555
C40 C39 1_555 1_555
C41 C40 1_555 1_555
C42 C36 1_555 1_555
C43 C44 1_555 1_555
C44 H25 1_555 1_555
C45 C46 1_555 1_555
C46 H28 1_555 1_555
H1 C1 1_555 1_555
H2 C2 1_555 1_555
H3 C4 1_555 1_555
H4 C5 1_555 1_555
H5 C6 1_555 1_555
H6 C7 1_555 1_555
H7 C9 1_555 1_555
H8 C10 1_555 1_555
H9 C15 1_555 1_555
H10 C16 1_555 1_555
H11 C18 1_555 1_555
H12 C19 1_555 1_555
H13 C20 1_555 1_555
H14 C21 1_555 1_555
H15 C23 1_555 1_555
H16 C24 1_555 1_555
H17 C29 1_555 1_555
H18 C30 1_555 1_555
H19 C32 1_555 1_555
H20 C33 1_555 1_555
H21 C34 1_555 1_555
H22 C35 1_555 1_555
H23 C37 1_555 1_555
H24 C38 1_555 1_555
H26 C44 1_555 1_555
H27 C44 1_555 1_555
H29 C46 1_555 1_555
H30 C46 1_555 1_555
Cu1 N1 1_555 1_555
Cu2 N2 1_555 1_555
Cu2A N4 1_555 1_555
Cu2_2 N6 1_555 1_555
N4A Cu2 1_555 1_555
N6_2 Cu2 1_555 1_555
N3 Cu1 1_555 1_555
N5 Cu1 1_555 1_555
N7 Cu1 1_555 1_555
N8 Cu2 1_555 1_555
C13 C14 1_555 1_555
C27 C28 1_555 1_555
C41 C42 1_555 1_555

#END
