
#######################################################################
#
#                 Cambridge Crystallographic Data Centre
#                                CCDC 
#
#######################################################################
#
# If this CIF has been generated from an entry in the Cambridge 
# Structural Database, then it will include bibliographic, chemical, 
# crystal, experimental, refinement or atomic coordinate data resulting 
# from the CCDC's data processing and validation procedures.
#
#######################################################################

data_XANXEQ
_symmetry_cell_setting           tetragonal
_symmetry_space_group_name_H-M   'P 4/n'
_symmetry_Int_Tables_number      85
_space_group_name_Hall           '-P 4a'
loop_
_symmetry_equiv_pos_site_id
_symmetry_equiv_pos_as_xyz
1 x,y,z
2 1/2-y,x,z
3 y,1/2-x,z
4 1/2-x,1/2-y,z
5 -x,-y,-z
6 1/2+y,-x,-z
7 -y,1/2+x,-z
8 1/2+x,1/2+y,-z
_cell_length_a                   14.5894(11)
_cell_length_b                   14.5894(11)
_cell_length_c                   8.5601(9)
_cell_angle_alpha                90
_cell_angle_beta                 90
_cell_angle_gamma                90
_cell_volume                     1822.02
loop_
_atom_site_label
_atom_site_type_symbol
_atom_site_fract_x
_atom_site_fract_y
_atom_site_fract_z
Ag1 Ag 0.2500 0.7500 0.5000
O1 O 0.05659(12) 0.65341(12) 0.3367(2)
N1 N 0.16242(15) 0.81982(14) 0.3023(2)
C1 C 0.2082(2) 0.87438(19) 0.2036(3)
H1 H 0.2724 0.8812 0.2179
C2 C 0.1671(2) 0.9213(2) 0.0821(3)
H2 H 0.2018 0.9603 0.0158
C3 C 0.0756(3) 0.9100(2) 0.0603(4)
H3 H 0.0458 0.9401 -0.0239
C4 C 0.0258(2) 0.8548(2) 0.1603(3)
H4 H -0.0385 0.8477 0.1480
C5 C 0.07244(18) 0.80995(17) 0.2793(3)
C6 C 0.02427(18) 0.74276(17) 0.3842(3)
H5 H 0.0397 0.7546 0.4950
H6 H -0.0430 0.7473 0.3711
C7 C 0.02601(17) 0.57951(17) 0.4217(3)
C8 C 0.06400(16) 0.49484(17) 0.3824(3)
H7 H 0.1085 0.4915 0.3016
C9 C -0.03806(18) 0.58381(19) 0.5411(3)
H8 H -0.0640 0.6411 0.5700
Ag1A Ag -0.2500 0.2500 0.5000
Ag1A_2 Ag -0.2500 1.2500 0.5000
O1D O -0.05659(12) 0.34659(12) 0.6633(2)
O1E O 0.15341(12) 0.94341(12) 0.6633(2)
O1A O -0.15341(12) 1.05659(12) 0.3367(2)
N1D N -0.16242(15) 0.18018(14) 0.6977(2)
N1E N 0.31982(14) 0.83758(15) 0.6977(2)
N1A N -0.31982(14) 1.16242(15) 0.3023(2)
N1F N 0.18018(14) 0.66242(15) 0.6977(2)
N1C N 0.33758(15) 0.68018(14) 0.3023(2)
C1D C -0.2082(2) 0.12562(19) 0.7964(3)
C1E C 0.37438(19) 0.7918(2) 0.7964(3)
C1A C -0.37438(19) 1.2082(2) 0.2036(3)
H1D H -0.2724 0.1188 0.7821
H1E H 0.3812 0.7276 0.7821
H1A H -0.3812 1.2724 0.2179
C2D C -0.1671(2) 0.0787(2) 0.9179(3)
C2E C 0.4213(2) 0.8329(2) 0.9179(3)
C2A C -0.4213(2) 1.1671(2) 0.0821(3)
H2D H -0.2018 0.0397 0.9842
H2E H 0.4603 0.7982 0.9842
H2A H -0.4603 1.2018 0.0158
C3D C -0.0756(3) 0.0900(2) 0.9397(4)
C3E C 0.4100(2) 0.9244(3) 0.9397(4)
C3A C -0.4100(2) 1.0756(3) 0.0603(4)
H3D H -0.0458 0.0599 1.0239
H3E H 0.4401 0.9542 1.0239
H3A H -0.4401 1.0458 -0.0239
C4D C -0.0258(2) 0.1452(2) 0.8397(3)
C4E C 0.3548(2) 0.9742(2) 0.8397(3)
C4A C -0.3548(2) 1.0258(2) 0.1603(3)
H4D H 0.0385 0.1523 0.8520
H4E H 0.3477 1.0385 0.8520
H4A H -0.3477 0.9615 0.1480
C5D C -0.07244(18) 0.19005(17) 0.7207(3)
C5E C 0.30995(17) 0.92756(18) 0.7207(3)
C5A C -0.30995(17) 1.07244(18) 0.2793(3)
C6D C -0.02427(18) 0.25724(17) 0.6158(3)
C6E C 0.24276(17) 0.97573(18) 0.6158(3)
C6A C -0.24276(17) 1.02427(18) 0.3842(3)
H5D H -0.0397 0.2454 0.5050
H5E H 0.2546 0.9603 0.5050
H5A H -0.2546 1.0397 0.4950
H6D H 0.0430 0.2527 0.6289
H6E H 0.2473 1.0430 0.6289
H6A H -0.2473 0.9570 0.3711
C7D C -0.02601(17) 0.42049(17) 0.5783(3)
C7E C 0.07951(17) 0.97399(17) 0.5783(3)
C7A C -0.07951(17) 1.02601(17) 0.4217(3)
C8D C -0.06400(16) 0.50516(17) 0.6176(3)
C8E C -0.00516(17) 0.93600(16) 0.6176(3)
C8A C 0.00516(17) 1.06400(16) 0.3824(3)
H7D H -0.1085 0.5085 0.6984
H7E H -0.0085 0.8915 0.6984
H7A H 0.0085 1.1085 0.3016
C9D C 0.03806(18) 0.41619(19) 0.4589(3)
C9E C 0.08381(19) 1.03806(18) 0.4589(3)
C9A C -0.08381(19) 0.96194(18) 0.5411(3)
H8D H 0.0640 0.3589 0.4300
H8E H 0.1411 1.0640 0.4300
H8A H -0.1411 0.9360 0.5700
loop_
_geom_bond_atom_site_label_1
_geom_bond_atom_site_label_2
_geom_bond_site_symmetry_1
_geom_bond_site_symmetry_2
Ag1 N1 1_555 1_555
O1 C6 1_555 1_555
N1 C1 1_555 1_555
C1 H1 1_555 1_555
C2 C1 1_555 1_555
H2 C2 1_555 1_555
C3 C2 1_555 1_555
H3 C3 1_555 1_555
C4 C3 1_555 1_555
H4 C4 1_555 1_555
C5 N1 1_555 1_555
C6 C5 1_555 1_555
H5 C6 1_555 1_555
H6 C6 1_555 1_555
C7 O1 1_555 1_555
C8 C7 1_555 1_555
H7 C8 1_555 1_555
C9 C7 1_555 1_555
H8 C9 1_555 1_555
Ag1A N1D 1_555 1_555
Ag1A_2 N1A 1_555 1_555
O1D C6D 1_555 1_555
O1E C6E 1_555 1_555
O1A C6A 1_555 1_555
N1D C1D 1_555 1_555
N1E Ag1 1_555 1_555
N1A C1A 1_555 1_555
N1F Ag1 1_555 1_555
N1C Ag1 1_555 1_555
C1D H1D 1_555 1_555
C1E N1E 1_555 1_555
C1A H1A 1_555 1_555
H1E C1E 1_555 1_555
C2D C1D 1_555 1_555
C2E C1E 1_555 1_555
C2A C1A 1_555 1_555
H2D C2D 1_555 1_555
H2E C2E 1_555 1_555
H2A C2A 1_555 1_555
C3D C2D 1_555 1_555
C3E C2E 1_555 1_555
C3A C2A 1_555 1_555
H3D C3D 1_555 1_555
H3E C3E 1_555 1_555
H3A C3A 1_555 1_555
C4D C3D 1_555 1_555
C4E C3E 1_555 1_555
C4A C3A 1_555 1_555
H4D C4D 1_555 1_555
H4E C4E 1_555 1_555
H4A C4A 1_555 1_555
C5D N1D 1_555 1_555
C5E N1E 1_555 1_555
C5A N1A 1_555 1_555
C6D C5D 1_555 1_555
C6E C5E 1_555 1_555
C6A C5A 1_555 1_555
H5D C6D 1_555 1_555
H5E C6E 1_555 1_555
H5A C6A 1_555 1_555
H6D C6D 1_555 1_555
H6E C6E 1_555 1_555
H6A C6A 1_555 1_555
C7D O1D 1_555 1_555
C7E O1E 1_555 1_555
C7A O1A 1_555 1_555
C8D C9 1_555 1_555
C8E C7E 1_555 1_555
C8A C7A 1_555 1_555
H7D C8D 1_555 1_555
H7E C8E 1_555 1_555
H7A C8A 1_555 1_555
C9D C8 1_555 1_555
C9E C7E 1_555 1_555
C9A C7A 1_555 1_555
H8D C9D 1_555 1_555
H8E C9E 1_555 1_555
H8A C9A 1_555 1_555
C4 C5 1_555 1_555
C4D C5D 1_555 1_555
C4E C5E 1_555 1_555
C4A C5A 1_555 1_555
C7D C8D 1_555 1_555
C7D C9D 1_555 1_555
C8E C9A 1_555 1_555
C8A C9E 1_555 1_555

#END
