
#######################################################################
#
#                 Cambridge Crystallographic Data Centre
#                                CCDC 
#
#######################################################################
#
# If this CIF has been generated from an entry in the Cambridge 
# Structural Database, then it will include bibliographic, chemical, 
# crystal, experimental, refinement or atomic coordinate data resulting 
# from the CCDC's data processing and validation procedures.
#
#######################################################################

data_XANXOZ
_symmetry_cell_setting           monoclinic
_symmetry_space_group_name_H-M   'P 21/a'
_symmetry_Int_Tables_number      14
_space_group_name_Hall           '-P 2yab'
loop_
_symmetry_equiv_pos_site_id
_symmetry_equiv_pos_as_xyz
1 x,y,z
2 1/2-x,1/2+y,-z
3 -x,-y,-z
4 1/2+x,1/2-y,z
_cell_length_a                   10.157(3)
_cell_length_b                   17.818(7)
_cell_length_c                   11.399(3)
_cell_angle_alpha                90
_cell_angle_beta                 104.98(2)
_cell_angle_gamma                90
_cell_volume                     1992.85
loop_
_atom_site_label
_atom_site_type_symbol
_atom_site_fract_x
_atom_site_fract_y
_atom_site_fract_z
Ag1 Ag -0.66782(4) 0.24295(3) -0.75652(4)
N1 N -0.4703(4) 0.2394(3) -0.6276(4)
N2 N 0.6342(4) 0.2513(3) 0.1135(4)
C1 C -0.4206(6) 0.1748(4) -0.5735(6)
C2 C -0.2953(6) 0.1690(3) -0.4890(5)
C3 C -0.2161(5) 0.2325(3) -0.4600(5)
C4 C -0.2658(5) 0.2992(4) -0.5171(5)
C5 C -0.3922(6) 0.3010(4) -0.5990(5)
C6 C -0.0860(5) 0.2299(3) -0.3731(5)
C7 C 0.0220(5) 0.2310(3) -0.3005(5)
C8 C 0.1461(5) 0.2326(3) -0.2170(5)
C9 C 0.2538(5) 0.2361(3) -0.1431(5)
C10 C 0.5673(6) 0.3130(4) 0.0623(6)
C11 C 0.4437(5) 0.3102(3) -0.0220(5)
C12 C 0.3824(5) 0.2414(3) -0.0550(4)
C13 C 0.4489(6) 0.1785(3) 0.0007(6)
C14 C 0.5734(6) 0.1860(4) 0.0831(6)
H1 H -0.4740 0.1307 -0.5942
H2 H -0.2648 0.1222 -0.4519
H3 H -0.2127 0.3437 -0.4998
H4 H -0.4252 0.3474 -0.6366
H5 H 0.6075 0.3606 0.0855
H6 H 0.4005 0.3551 -0.0573
H7 H 0.4089 0.1303 -0.0177
H8 H 0.6182 0.1420 0.1201
N2C N -0.8658(4) 0.2487(3) -0.8865(4)
Ag1C Ag 0.83218(4) 0.25705(3) 0.24348(4)
S1 S -0.7088(2) 0.0168(1) -0.7546(3)
F1 F -0.519(2) -0.0168(9) -0.843(1)
F2 F -0.550(1) -0.0959(4) -0.747(1)
F3 F -0.459(1) -0.0084(9) -0.676(1)
O1 O -0.804(1) -0.0187(8) -0.828(2)
O2 O -0.6841(7) 0.0901(4) -0.7665(8)
O3 O -0.723(2) 0.0059(10) -0.644(2)
C15 C -0.562(1) -0.0297(6) -0.754(1)
O4 O -0.1521(7) 0.0963(5) -0.7444(8)
C16 C -0.135(2) -0.021(1) -0.831(2)
C17 C -0.139(1) 0.0324(6) -0.751(1)
C18 C -0.100(4) -0.014(2) -0.645(4)
H9 H -0.1971 -0.0600 -0.8256
H10 H -0.1585 -0.0007 -0.9108
H11 H -0.0451 -0.0413 -0.8143
H12 H -0.1639 -0.0536 -0.6505
H13 H -0.0120 -0.0349 -0.6395
H14 H -0.0967 0.0150 -0.5746
loop_
_geom_bond_atom_site_label_1
_geom_bond_atom_site_label_2
_geom_bond_site_symmetry_1
_geom_bond_site_symmetry_2
Ag1 N1 1_555 1_555
S1 O1 1_555 1_555
F1 C15 1_555 1_555
F2 C15 1_555 1_555
F3 C15 1_555 1_555
O2 S1 1_555 1_555
O3 S1 1_555 1_555
O4 C17 1_555 1_555
N1 C1 1_555 1_555
N2 C10 1_555 1_555
C1 C2 1_555 1_555
C2 C3 1_555 1_555
C3 C4 1_555 1_555
C4 C5 1_555 1_555
C5 N1 1_555 1_555
C6 C3 1_555 1_555
C7 C6 1_555 1_555
C8 C7 1_555 1_555
C9 C8 1_555 1_555
C10 C11 1_555 1_555
C11 C12 1_555 1_555
C12 C9 1_555 1_555
C13 C12 1_555 1_555
C14 N2 1_555 1_555
C15 S1 1_555 1_555
C16 C17 1_555 1_555
C17 C18 1_555 1_555
C18 H12 1_555 1_555
H1 C1 1_555 1_555
H2 C2 1_555 1_555
H3 C4 1_555 1_555
H4 C5 1_555 1_555
H5 C10 1_555 1_555
H6 C11 1_555 1_555
H7 C13 1_555 1_555
H8 C14 1_555 1_555
H9 C16 1_555 1_555
H10 C16 1_555 1_555
H11 C16 1_555 1_555
H13 C18 1_555 1_555
H14 C18 1_555 1_555
N2C Ag1 1_555 1_555
Ag1C N2 1_555 1_555
C13 C14 1_555 1_555

#END
