
#######################################################################
#
#                 Cambridge Crystallographic Data Centre
#                                CCDC 
#
#######################################################################
#
# If this CIF has been generated from an entry in the Cambridge 
# Structural Database, then it will include bibliographic, chemical, 
# crystal, experimental, refinement or atomic coordinate data resulting 
# from the CCDC's data processing and validation procedures.
#
#######################################################################

data_XANXEP
_symmetry_cell_setting           triclinic
_symmetry_space_group_name_H-M   'P -1'
_symmetry_Int_Tables_number      2
_space_group_name_Hall           '-P 1'
loop_
_symmetry_equiv_pos_site_id
_symmetry_equiv_pos_as_xyz
1 x,y,z
2 -x,-y,-z
_cell_length_a                   14.739(6)
_cell_length_b                   7.644(4)
_cell_length_c                   7.582(5)
_cell_angle_alpha                75.66(5)
_cell_angle_beta                 89.36(5)
_cell_angle_gamma                80.00(4)
_cell_volume                     814.583
loop_
_atom_site_label
_atom_site_type_symbol
_atom_site_fract_x
_atom_site_fract_y
_atom_site_fract_z
Ag1 Ag 0.05580(2) 0.60769(6) -0.36039(4)
N1 N 0.1896(2) 0.5896(5) -0.4847(4)
N2 N 0.9354(2) 0.5899(5) -1.1933(4)
C1 C 0.2386(2) 0.4307(6) -0.5019(5)
C2 C 0.3238(2) 0.4171(6) -0.5795(5)
C3 C 0.3611(2) 0.5745(6) -0.6421(5)
C4 C 0.3108(3) 0.7389(6) -0.6238(7)
C5 C 0.2262(3) 0.7395(6) -0.5457(7)
C6 C 0.8835(3) 0.7420(6) -1.1699(7)
C7 C 0.8020(3) 0.7404(6) -1.0760(7)
C8 C 0.7713(2) 0.5763(6) -1.0079(5)
C9 C 0.8268(2) 0.4182(6) -1.0278(5)
C10 C 0.9075(2) 0.4299(6) -1.1215(5)
C11 C 0.4503(2) 0.5681(6) -0.7204(5)
C12 C 0.5247(2) 0.5679(6) -0.7854(5)
C13 C 0.6100(2) 0.5683(6) -0.8595(5)
C14 C 0.6841(2) 0.5718(6) -0.9246(5)
H1 H 0.2136 0.3220 -0.4586
H2 H 0.3563 0.3016 -0.5899
H3 H 0.3343 0.8497 -0.6647
H4 H 0.1921 0.8535 -0.5346
H5 H 0.9027 0.8562 -1.2190
H6 H 0.7675 0.8515 -1.0586
H7 H 0.8099 0.3021 -0.9776
H8 H 0.9448 0.3199 -1.1357
N2_2 N -0.0646(2) 0.5899(5) -0.1933(4)
Ag1_2 Ag 1.05580(2) 0.60769(6) -1.36039(4)
O1 O 0.0632(3) 0.2357(5) -0.3522(6)
O2 O 0.0403(6) -0.017(1) -0.250(3)
O3 O 0.1694(3) 0.0069(7) -0.2605(8)
N4 N 0.0874(3) 0.0736(6) -0.2926(8)
N3 N 0.5530(4) 0.9424(8) -0.255(1)
C15 C 0.4780(4) 0.9397(7) -0.2307(9)
C16 C 0.3846(5) 0.9336(9) -0.195(1)
H9 H 0.3660 0.9961 -0.1031
H10 H 0.3481 0.9912 -0.3029
H11 H 0.3766 0.8095 -0.1543
loop_
_geom_bond_atom_site_label_1
_geom_bond_atom_site_label_2
_geom_bond_site_symmetry_1
_geom_bond_site_symmetry_2
Ag1 N1 1_555 1_555
O1 N4 1_555 1_555
O2 N4 1_555 1_555
O3 N4 1_555 1_555
N1 C1 1_555 1_555
N2 C6 1_555 1_555
N3 C15 1_555 1_555
C1 C2 1_555 1_555
C2 C3 1_555 1_555
C3 C4 1_555 1_555
C4 C5 1_555 1_555
C5 N1 1_555 1_555
C6 C7 1_555 1_555
C7 C8 1_555 1_555
C8 C9 1_555 1_555
C9 C10 1_555 1_555
C10 N2 1_555 1_555
C11 C3 1_555 1_555
C12 C11 1_555 1_555
C13 C12 1_555 1_555
C14 C8 1_555 1_555
C15 C16 1_555 1_555
C16 H9 1_555 1_555
H1 C1 1_555 1_555
H2 C2 1_555 1_555
H3 C4 1_555 1_555
H4 C5 1_555 1_555
H5 C6 1_555 1_555
H6 C7 1_555 1_555
H7 C9 1_555 1_555
H8 C10 1_555 1_555
H10 C16 1_555 1_555
H11 C16 1_555 1_555
N2_2 Ag1 1_555 1_555
Ag1_2 N2 1_555 1_555
C13 C14 1_555 1_555

#END
