
#######################################################################
#
#                 Cambridge Crystallographic Data Centre
#                                CCDC 
#
#######################################################################
#
# If this CIF has been generated from an entry in the Cambridge 
# Structural Database, then it will include bibliographic, chemical, 
# crystal, experimental, refinement or atomic coordinate data resulting 
# from the CCDC's data processing and validation procedures.
#
#######################################################################

data_XANXIT
_symmetry_cell_setting           monoclinic
_symmetry_space_group_name_H-M   'P 21/m'
_symmetry_Int_Tables_number      11
_space_group_name_Hall           '-P 2yb'
loop_
_symmetry_equiv_pos_site_id
_symmetry_equiv_pos_as_xyz
1 x,y,z
2 x,1/2-y,z
3 -x,-y,-z
4 -x,1/2+y,-z
_cell_length_a                   5.296(2)
_cell_length_b                   15.876(6)
_cell_length_c                   10.889(3)
_cell_angle_alpha                90
_cell_angle_beta                 100.47(4)
_cell_angle_gamma                90
_cell_volume                     900.296
loop_
_atom_site_label
_atom_site_type_symbol
_atom_site_fract_x
_atom_site_fract_y
_atom_site_fract_z
Ag1 Ag 0.5000 0.0000 0.5000
N1 N 0.7743(3) -0.00234(8) 0.3752(1)
C1 C 0.8548(4) 0.0693(1) 0.3315(2)
C2 C 1.0213(4) 0.0721(1) 0.2483(2)
C3 C 1.1125(3) -0.0025(1) 0.2071(2)
C4 C 1.0358(4) -0.0770(1) 0.2556(2)
C5 C 0.8680(4) -0.0743(1) 0.3383(2)
C6 C 1.2809(4) -0.0020(1) 0.1186(2)
C7 C 1.4194(4) -0.0008(1) 0.0431(2)
H1 H 0.7939 0.1210 0.3591
H2 H 1.0733 0.1247 0.2194
H3 H 1.0985 -0.1295 0.2319
H4 H 0.8165 -0.1258 0.3706
C7B C 1.5806(4) 0.0008(1) -0.0431(2)
C6B C 1.7191(4) 0.0020(1) -0.1186(2)
C3B C 1.8875(3) 0.0025(1) -0.2071(2)
C2B C 1.9787(4) -0.0721(1) -0.2483(2)
C1B C 2.1452(4) -0.0693(1) -0.3315(2)
N1B N 2.2257(3) 0.00234(8) -0.3752(1)
Ag1B Ag 2.5000 0.0000 -0.5000
C5B C 2.1320(4) 0.0743(1) -0.3383(2)
C4B C 1.9642(4) 0.0770(1) -0.2556(2)
H3B H 1.9015 0.1295 -0.2319
H4B H 2.1835 0.1258 -0.3706
H1B H 2.2061 -0.1210 -0.3591
H2B H 1.9267 -0.1247 -0.2194
N1B_2 N 0.2257(3) 0.00234(8) 0.6248(1)
Cl1 Cl 0.5617(1) 0.2500 0.52267(6)
O1 O 0.8244(4) 0.2500 0.5091(3)
O2 O 0.4376(3) 0.17655(9) 0.4649(2)
O3 O 0.5375(6) 0.2500 0.6512(2)
O2A O 0.4376(3) 0.32345(9) 0.4649(2)
O4 O 0.0981(8) 0.2500 0.0270(5)
C8 C 0.5091(9) 0.2500 0.1494(4)
C9 C 0.3227(8) 0.2500 0.0310(4)
C10 C 0.418(1) 0.2500 -0.0854(5)
H5 H 0.4862 0.2011 0.1914
H6 H 0.6745 0.2500 0.1236
H7 H 0.5979 0.2500 -0.0677
H8 H 0.3532 0.2016 -0.1321
H5A H 0.4862 0.2989 0.1914
H8A H 0.3532 0.2984 -0.1321
loop_
_geom_bond_atom_site_label_1
_geom_bond_atom_site_label_2
_geom_bond_site_symmetry_1
_geom_bond_site_symmetry_2
Ag1 N1 1_555 1_555
Cl1 O1 1_555 1_555
O2 Cl1 1_555 1_555
O3 Cl1 1_555 1_555
O4 C9 1_555 1_555
N1 C1 1_555 1_555
C1 C2 1_555 1_555
C2 C3 1_555 1_555
C3 C4 1_555 1_555
C4 C5 1_555 1_555
C5 N1 1_555 1_555
C6 C3 1_555 1_555
C7 C6 1_555 1_555
C8 C9 1_555 1_555
C9 C10 1_555 1_555
C10 H7 1_555 1_555
H1 C1 1_555 1_555
H2 C2 1_555 1_555
H3 C4 1_555 1_555
H4 C5 1_555 1_555
H5 C8 1_555 1_555
H6 C8 1_555 1_555
H8 C10 1_555 1_555
C7B C7 1_555 1_555
C6B C7B 1_555 1_555
C3B C6B 1_555 1_555
C2B C3B 1_555 1_555
C1B C2B 1_555 1_555
N1B C1B 1_555 1_555
Ag1B N1B 1_555 1_555
C5B N1B 1_555 1_555
C4B C3B 1_555 1_555
H3B C4B 1_555 1_555
H4B C5B 1_555 1_555
H1B C1B 1_555 1_555
H2B C2B 1_555 1_555
N1B_2 Ag1 1_555 1_555
O2A Cl1 1_555 1_555
H5A C8 1_555 1_555
H8A C10 1_555 1_555
C5B C4B 1_555 1_555

#END
