
#######################################################################
#
#                 Cambridge Crystallographic Data Centre
#                                CCDC 
#
#######################################################################
#
# If this CIF has been generated from an entry in the Cambridge 
# Structural Database, then it will include bibliographic, chemical, 
# crystal, experimental, refinement or atomic coordinate data resulting 
# from the CCDC's data processing and validation procedures.
#
#######################################################################

data_XANXIU
_symmetry_cell_setting           monoclinic
_symmetry_space_group_name_H-M   'P 21/c'
_symmetry_Int_Tables_number      14
_space_group_name_Hall           '-P 2ybc'
loop_
_symmetry_equiv_pos_site_id
_symmetry_equiv_pos_as_xyz
1 x,y,z
2 -x,1/2+y,1/2-z
3 -x,-y,-z
4 x,1/2-y,1/2+z
_cell_length_a                   14.4669(9)
_cell_length_b                   8.8499(5)
_cell_length_c                   19.0088(12)
_cell_angle_alpha                90
_cell_angle_beta                 102.4980(10)
_cell_angle_gamma                90
_cell_volume                     2376.04
loop_
_atom_site_label
_atom_site_type_symbol
_atom_site_fract_x
_atom_site_fract_y
_atom_site_fract_z
Ag1 Ag 1.311547(13) -0.10106(2) 0.451221(10)
S1 S 1.54178(4) 0.00141(7) 0.38370(3)
F1 F 1.45456(14) -0.0583(2) 0.25118(10)
F2 F 1.60063(14) 0.0013(2) 0.26250(9)
F3 F 1.56338(13) -0.2183(2) 0.29627(10)
O1 O 1.06928(12) 0.22404(19) 0.48083(9)
O2 O 0.78157(13) 0.0623(2) 0.90058(10)
O3 O 1.51908(13) 0.1586(2) 0.37123(11)
O4 O 1.47120(14) -0.0888(2) 0.40686(11)
O5 O 1.63795(13) -0.0292(2) 0.42163(10)
N1 N 1.25001(14) 0.0983(2) 0.39102(11)
N2 N 0.65719(14) 0.1578(2) 1.03049(11)
C1 C 1.28096(17) 0.1328(3) 0.33108(13)
H1 H 1.3287 0.0716 0.3184
C2 C 1.24616(19) 0.2532(3) 0.28752(14)
H2 H 1.2694 0.2746 0.2455
C3 C 1.17669(19) 0.3424(3) 0.30616(15)
H3 H 1.1519 0.4268 0.2773
C4 C 1.14358(18) 0.3076(3) 0.36723(14)
H4 H 1.0953 0.3668 0.3805
C5 C 1.18195(16) 0.1853(3) 0.40861(12)
C6 C 1.15087(17) 0.1386(3) 0.47591(13)
H5 H 1.1358 0.0293 0.4741
H6 H 1.2023 0.1575 0.5187
C7 C 1.02916(17) 0.1932(3) 0.53828(13)
C8 C 0.95186(17) 0.2822(3) 0.54407(13)
H7 H 0.9284 0.3559 0.5083
C9 C 0.90923(16) 0.2630(3) 0.60216(13)
H8 H 0.8574 0.3259 0.6060
C10 C 0.94045(16) 0.1533(3) 0.65552(13)
C11 C 1.01533(17) 0.0615(3) 0.64580(13)
H9 H 1.0364 -0.0172 0.6794
C12 C 1.06000(18) 0.0813(3) 0.58890(13)
H10 H 1.1117 0.0183 0.5846
C13 C 0.89733(17) 0.1340(3) 0.71954(13)
C14 C 0.82693(19) 0.2299(3) 0.73307(14)
H11 H 0.8056 0.3099 0.7002
C15 C 0.7863(2) 0.2136(3) 0.79292(14)
H12 H 0.7389 0.2818 0.8009
C16 C 0.81639(18) 0.0957(3) 0.84038(14)
C17 C 0.88601(18) -0.0019(3) 0.82794(14)
H13 H 0.9065 -0.0830 0.8603
C18 C 0.92569(17) 0.0179(3) 0.76901(14)
H14 H 0.9739 -0.0496 0.7618
C19 C 0.70857(19) 0.1563(3) 0.91651(14)
H15 H 0.6581 0.1718 0.8728
H16 H 0.7346 0.2561 0.9342
C20 C 0.66941(17) 0.0770(3) 0.97359(13)
C21 C 0.64327(19) -0.0745(3) 0.96572(14)
H17 H 0.6522 -0.1297 0.9248
C22 C 0.60429(18) -0.1445(3) 1.01746(15)
H18 H 0.5862 -0.2479 1.0127
C23 C 0.59207(18) -0.0610(3) 1.07636(14)
H19 H 0.5658 -0.1060 1.1130
C24 C 0.61886(17) 0.0890(3) 1.08065(13)
H20 H 0.6098 0.1465 1.1208
C25 C 1.5401(2) -0.0733(3) 0.29378(15)
Ag1B Ag 1.688453(13) 0.10106(2) 0.548779(10)
Ag1A Ag 0.688453(13) 0.39894(2) 1.048779(10)
O5B O 1.36205(13) 0.0292(2) 0.57837(10)
N2A N 1.34281(14) -0.3422(2) 0.46951(11)
loop_
_geom_bond_atom_site_label_1
_geom_bond_atom_site_label_2
_geom_bond_site_symmetry_1
_geom_bond_site_symmetry_2
Ag1 O4 1_555 1_555
S1 O3 1_555 1_555
F1 C25 1_555 1_555
F2 C25 1_555 1_555
F3 C25 1_555 1_555
O1 C6 1_555 1_555
O2 C16 1_555 1_555
O4 S1 1_555 1_555
O5 S1 1_555 1_555
N1 Ag1 1_555 1_555
N2 C20 1_555 1_555
C1 N1 1_555 1_555
H1 C1 1_555 1_555
C2 C1 1_555 1_555
H2 C2 1_555 1_555
C3 C2 1_555 1_555
H3 C3 1_555 1_555
C4 C3 1_555 1_555
H4 C4 1_555 1_555
C5 N1 1_555 1_555
C6 C5 1_555 1_555
H5 C6 1_555 1_555
H6 C6 1_555 1_555
C7 O1 1_555 1_555
C8 C7 1_555 1_555
H7 C8 1_555 1_555
C9 C8 1_555 1_555
H8 C9 1_555 1_555
C10 C9 1_555 1_555
C11 C10 1_555 1_555
H9 C11 1_555 1_555
C12 C7 1_555 1_555
H10 C12 1_555 1_555
C13 C10 1_555 1_555
C14 C13 1_555 1_555
H11 C14 1_555 1_555
C15 C14 1_555 1_555
H12 C15 1_555 1_555
C16 C15 1_555 1_555
C17 C16 1_555 1_555
H13 C17 1_555 1_555
C18 C13 1_555 1_555
H14 C18 1_555 1_555
C19 O2 1_555 1_555
H15 C19 1_555 1_555
H16 C19 1_555 1_555
C20 C19 1_555 1_555
C21 C20 1_555 1_555
H17 C21 1_555 1_555
C22 C21 1_555 1_555
H18 C22 1_555 1_555
C23 C22 1_555 1_555
H19 C23 1_555 1_555
C24 N2 1_555 1_555
H20 C24 1_555 1_555
C25 S1 1_555 1_555
Ag1B O5 1_555 1_555
Ag1A N2 1_555 1_555
O5B Ag1 1_555 1_555
N2A Ag1 1_555 1_555
C4 C5 1_555 1_555
C11 C12 1_555 1_555
C17 C18 1_555 1_555
C23 C24 1_555 1_555

#END
