
#######################################################################
#
#                 Cambridge Crystallographic Data Centre
#                                CCDC 
#
#######################################################################
#
# If this CIF has been generated from an entry in the Cambridge 
# Structural Database, then it will include bibliographic, chemical, 
# crystal, experimental, refinement or atomic coordinate data resulting 
# from the CCDC's data processing and validation procedures.
#
#######################################################################

data_XANYEQ
_symmetry_cell_setting           monoclinic
_symmetry_space_group_name_H-M   'P 21/a'
_symmetry_Int_Tables_number      14
_space_group_name_Hall           '-P 2yab'
loop_
_symmetry_equiv_pos_site_id
_symmetry_equiv_pos_as_xyz
1 x,y,z
2 1/2+x,1/2-y,z
3 -x,-y,-z
4 1/2-x,1/2+y,-z
_cell_length_a                   9.457(5)
_cell_length_b                   10.912(4)
_cell_length_c                   15.870(4)
_cell_angle_alpha                90
_cell_angle_beta                 99.32(3)
_cell_angle_gamma                90
_cell_volume                     1616.08
loop_
_atom_site_label
_atom_site_type_symbol
_atom_site_fract_x
_atom_site_fract_y
_atom_site_fract_z
Ag1 Ag -0.55828(4) 0.03818(3) -0.25005(2)
S1 S -0.4274(1) 0.3243(1) -0.24356(7)
F1 F -0.5325(5) 0.5398(3) -0.2789(3)
F2 F -0.5078(5) 0.4934(4) -0.1476(3)
F3 F -0.6773(4) 0.4209(4) -0.2344(3)
O1 O -0.4473(5) 0.2366(4) -0.1812(3)
O2 O -0.2901(4) 0.3771(4) -0.2304(4)
O3 O -0.4822(6) 0.2898(5) -0.3276(3)
N1 N 0.0300(4) -0.4399(3) -0.1276(2)
N2 N -0.6208(4) -0.0334(3) -0.3831(2)
C1 C 0.1372(5) -0.4833(4) -0.0695(3)
C2 C 0.1888(5) -0.4223(5) 0.0043(3)
C3 C 0.1287(6) -0.3113(5) 0.0207(3)
C4 C 0.0193(5) -0.2649(4) -0.0380(3)
C5 C -0.0268(4) -0.3313(4) -0.1117(3)
C6 C -0.1415(5) -0.2878(4) -0.1759(3)
C7 C -0.2339(5) -0.2532(4) -0.2314(3)
C8 C -0.3373(5) -0.2107(4) -0.2954(3)
C9 C -0.4297(5) -0.1717(4) -0.3497(3)
C10 C -0.5459(5) -0.1258(4) -0.4103(3)
C11 C -0.5795(5) -0.1748(5) -0.4915(3)
C12 C -0.6956(6) -0.1288(6) -0.5453(3)
C13 C -0.7741(6) -0.0364(6) -0.5178(3)
C14 C -0.7327(6) 0.0103(5) -0.4364(3)
C15 C -0.5422(5) 0.4510(5) -0.2242(3)
H1 H 0.1790 -0.5597 -0.0801
H2 H 0.2651 -0.4559 0.0439
H3 H 0.1626 -0.2678 0.0719
H4 H -0.0239 -0.1887 -0.0282
H5 H -0.5235 -0.2389 -0.5096
H6 H -0.7211 -0.1610 -0.6013
H7 H -0.8558 -0.0046 -0.5539
H8 H -0.7862 0.0759 -0.4179
O2A O -0.7901(4) 0.1229(4) -0.2304(4)
Ag1A Ag -0.05828(4) 0.46182(3) -0.25005(2)
Ag1A_2 Ag -0.05828(4) -0.53818(3) -0.25005(2)
N1A N -0.4700(4) -0.0601(3) -0.1276(2)
loop_
_geom_bond_atom_site_label_1
_geom_bond_atom_site_label_2
_geom_bond_site_symmetry_1
_geom_bond_site_symmetry_2
Ag1 O1 1_555 1_555
S1 O1 1_555 1_555
F1 C15 1_555 1_555
F2 C15 1_555 1_555
F3 C15 1_555 1_555
O2 S1 1_555 1_555
O3 S1 1_555 1_555
N1 C1 1_555 1_555
N2 Ag1 1_555 1_555
C1 C2 1_555 1_555
C2 C3 1_555 1_555
C3 C4 1_555 1_555
C4 C5 1_555 1_555
C5 N1 1_555 1_555
C6 C5 1_555 1_555
C7 C6 1_555 1_555
C8 C7 1_555 1_555
C9 C8 1_555 1_555
C10 N2 1_555 1_555
C11 C10 1_555 1_555
C12 C11 1_555 1_555
C13 C12 1_555 1_555
C14 N2 1_555 1_555
C15 S1 1_555 1_555
H1 C1 1_555 1_555
H2 C2 1_555 1_555
H3 C3 1_555 1_555
H4 C4 1_555 1_555
H5 C11 1_555 1_555
H6 C12 1_555 1_555
H7 C13 1_555 1_555
H8 C14 1_555 1_555
O2A Ag1 1_555 1_555
Ag1A O2 1_555 1_555
Ag1A_2 N1 1_555 1_555
N1A Ag1 1_555 1_555
C9 C10 1_555 1_555
C13 C14 1_555 1_555

#END
