
#######################################################################
#
#                 Cambridge Crystallographic Data Centre
#                                CCDC 
#
#######################################################################
#
# If this CIF has been generated from an entry in the Cambridge 
# Structural Database, then it will include bibliographic, chemical, 
# crystal, experimental, refinement or atomic coordinate data resulting 
# from the CCDC's data processing and validation procedures.
#
#######################################################################

data_XANZOC
_symmetry_cell_setting           monoclinic
_symmetry_space_group_name_H-M   'P 21/c'
_symmetry_Int_Tables_number      14
_space_group_name_Hall           '-P 2ybc'
loop_
_symmetry_equiv_pos_site_id
_symmetry_equiv_pos_as_xyz
1 x,y,z
2 -x,1/2+y,1/2-z
3 -x,-y,-z
4 x,1/2-y,1/2+z
_cell_length_a                   11.2732(13)
_cell_length_b                   8.8605(9)
_cell_length_c                   9.9607(11)
_cell_angle_alpha                90
_cell_angle_beta                 110.166(10)
_cell_angle_gamma                90
_cell_volume                     933.945
loop_
_atom_site_label
_atom_site_type_symbol
_atom_site_fract_x
_atom_site_fract_y
_atom_site_fract_z
Zn1 Zn 0.45815(4) 0.70096(5) 0.06627(5)
P1 P 0.37076(10) 0.56322(12) -0.23882(10)
H1 H 0.2771 0.4635 -0.2918
O1 O 0.3420(3) 0.6485(4) -0.1207(3)
N1 N 0.6189(4) 0.7965(3) 0.0667(4)
N2 N 0.7851(3) 0.9419(4) 0.1299(4)
C1 C 0.6682(4) 0.9246(5) 0.1296(4)
H2 H 0.6257 0.9947 0.1693
C2 C 0.7107(4) 0.7294(5) 0.0238(5)
H3 H 0.7019 0.6363 -0.0259
C3 C 0.8150(5) 0.8177(5) 0.0639(5)
H4 H 0.8927 0.7983 0.0497
C4 C 0.8699(4) 1.0672(5) 0.1992(5)
H5 H 0.8201 1.1610 0.1898
H6 H 0.9322 1.0831 0.1506
C5 C 0.9387(4) 1.0340(5) 0.3557(5)
C6 C 0.8912(4) 1.0883(5) 0.4586(5)
H7 H 0.8171 1.1489 0.4308
C7 C 1.0477(4) 0.9465(5) 0.3988(5)
H8 H 1.0807 0.9099 0.3292
O2 O 0.3593(3) 0.6619(4) -0.3664(3)
O3 O 0.4966(3) 0.4798(3) -0.1833(3)
Zn1C Zn 0.45815(4) 0.79904(5) 0.56627(5)
Zn1C_2 Zn 0.45815(4) 0.79904(5) -0.43373(5)
Zn1B Zn 0.54185(4) 0.29904(5) -0.06627(5)
Zn1B_2 Zn 1.54185(4) 1.29904(5) 0.93373(5)
Zn1A Zn 0.54185(4) 1.20096(5) 0.43373(5)
P1C P 0.37076(10) 0.93678(12) 0.26118(10)
H1C H 0.2771 1.0365 0.2082
O1C O 0.3420(3) 0.8515(4) 0.3793(3)
N1B N 1.3811(4) 1.2035(3) 0.9333(4)
N1C N 0.6189(4) 0.7035(3) 0.5667(4)
N2B N 1.2149(3) 1.0581(4) 0.8701(4)
C1B C 1.3318(4) 1.0754(5) 0.8704(4)
H2B H 1.3743 1.0053 0.8307
C2B C 1.2893(4) 1.2706(5) 0.9762(5)
H3B H 1.2981 1.3637 1.0259
C3B C 1.1850(5) 1.1823(5) 0.9361(5)
H4B H 1.1073 1.2017 0.9503
C4B C 1.1301(4) 0.9328(5) 0.8008(5)
H5B H 1.1799 0.8390 0.8102
H6B H 1.0678 0.9169 0.8494
C5B C 1.0613(4) 0.9660(5) 0.6443(5)
C6B C 1.1088(4) 0.9117(5) 0.5414(5)
H7B H 1.1829 0.8511 0.5692
C7B C 0.9523(4) 1.0535(5) 0.6012(5)
H8B H 0.9193 1.0901 0.6708
O2C O 0.3593(3) 0.8381(4) 0.1336(3)
O2_2 O 0.3593(3) 0.6619(4) 0.6336(3)
O3C O 0.4966(3) 1.0202(3) 0.3167(3)
O3B O 0.5034(3) 0.5202(3) 0.1833(3)
O3A O 0.5034(3) 0.9798(3) 0.6833(3)
loop_
_geom_bond_atom_site_label_1
_geom_bond_atom_site_label_2
_geom_bond_site_symmetry_1
_geom_bond_site_symmetry_2
Zn1 O1 1_555 1_555
P1 H1 1_555 1_555
O1 P1 1_555 1_555
N1 Zn1 1_555 1_555
N2 C1 1_555 1_555
C1 N1 1_555 1_555
H2 C1 1_555 1_555
C2 N1 1_555 1_555
H3 C2 1_555 1_555
C3 N2 1_555 1_555
H4 C3 1_555 1_555
C4 N2 1_555 1_555
H5 C4 1_555 1_555
H6 C4 1_555 1_555
C5 C4 1_555 1_555
C6 C5 1_555 1_555
H7 C6 1_555 1_555
C7 C5 1_555 1_555
H8 C7 1_555 1_555
O2 P1 1_555 1_555
O3 P1 1_555 1_555
Zn1C O1C 1_555 1_555
Zn1C_2 O2 1_555 1_555
Zn1B O3 1_555 1_555
Zn1B_2 N1B 1_555 1_555
Zn1A O3C 1_555 1_555
P1C H1C 1_555 1_555
O1C P1C 1_555 1_555
N1B C1B 1_555 1_555
N1C Zn1C 1_555 1_555
N2B C1B 1_555 1_555
C1B H2B 1_555 1_555
C2B N1B 1_555 1_555
H3B C2B 1_555 1_555
C3B N2B 1_555 1_555
H4B C3B 1_555 1_555
C4B N2B 1_555 1_555
H5B C4B 1_555 1_555
H6B C4B 1_555 1_555
C5B C4B 1_555 1_555
C6B C7 1_555 1_555
H7B C6B 1_555 1_555
C7B C6 1_555 1_555
H8B C7B 1_555 1_555
O2C Zn1 1_555 1_555
O2_2 Zn1C 1_555 1_555
O3C P1C 1_555 1_555
O3B Zn1 1_555 1_555
O3A Zn1C 1_555 1_555
C2 C3 1_555 1_555
P1C O2C 1_555 1_555
C2B C3B 1_555 1_555
C5B C6B 1_555 1_555
C5B C7B 1_555 1_555

#END
