
#######################################################################
#
#                 Cambridge Crystallographic Data Centre
#                                CCDC 
#
#######################################################################
#
# If this CIF has been generated from an entry in the Cambridge 
# Structural Database, then it will include bibliographic, chemical, 
# crystal, experimental, refinement or atomic coordinate data resulting 
# from the CCDC's data processing and validation procedures.
#
#######################################################################

data_XANZES
_symmetry_cell_setting           orthorhombic
_symmetry_space_group_name_H-M   'P 21 21 21'
_symmetry_Int_Tables_number      19
_space_group_name_Hall           'P 2ac 2ab'
loop_
_symmetry_equiv_pos_site_id
_symmetry_equiv_pos_as_xyz
1 x,y,z
2 1/2-x,-y,1/2+z
3 -x,1/2+y,1/2-z
4 1/2+x,1/2-y,-z
_cell_length_a                   5.2488(5)
_cell_length_b                   9.6411(8)
_cell_length_c                   14.5214(13)
_cell_angle_alpha                90
_cell_angle_beta                 90
_cell_angle_gamma                90
_cell_volume                     734.844
loop_
_atom_site_label
_atom_site_type_symbol
_atom_site_fract_x
_atom_site_fract_y
_atom_site_fract_z
Zn1 Zn 1.45685(5) 1.61317(2) -0.076595(16)
P1 P 1.45884(11) 1.73011(6) 0.12900(4)
H1 H 1.369(6) 1.669(3) 0.2037(19)
O1 O 1.4096(3) 1.62059(17) 0.05574(12)
O2 O 1.3072(3) 1.86260(17) 0.11497(13)
O3 O 1.7395(3) 1.76073(17) 0.14452(11)
N1 N 1.3604(4) 1.41542(19) -0.10503(13)
N2 N 1.3722(4) 1.1945(2) -0.14083(13)
C1 C 1.4623(6) 1.0619(2) -0.17773(16)
H2 H 1.6276 1.0753 -0.2078
H3 H 1.3391 1.0266 -0.2227
H4 H 1.4805 0.9949 -0.1274
C2 C 1.4939(4) 1.3158(2) -0.14548(14)
H5 H 1.6550 1.3291 -0.1740
C3 C 1.1395(4) 1.3531(2) -0.07338(15)
H6 H 1.0049 1.3988 -0.0419
C4 C 1.1470(4) 1.2152(2) -0.09489(15)
H7 H 1.0215 1.1474 -0.0809
Zn1C Zn 0.95685(5) 1.88683(2) 0.076595(16)
Zn1C_2 Zn 1.95685(5) 1.88683(2) 0.076595(16)
O2C O 1.8072(3) 1.63740(17) -0.11497(13)
O3C O 1.2395(3) 1.73927(17) -0.14452(11)
loop_
_geom_bond_atom_site_label_1
_geom_bond_atom_site_label_2
_geom_bond_site_symmetry_1
_geom_bond_site_symmetry_2
Zn1 O1 1_555 1_555
P1 H1 1_555 1_555
O1 P1 1_555 1_555
O2 P1 1_555 1_555
O3 P1 1_555 1_555
N1 Zn1 1_555 1_555
N2 C1 1_555 1_555
C1 H2 1_555 1_555
H3 C1 1_555 1_555
H4 C1 1_555 1_555
C2 N1 1_555 1_555
H5 C2 1_555 1_555
C3 N1 1_555 1_555
H6 C3 1_555 1_555
C4 N2 1_555 1_555
H7 C4 1_555 1_555
Zn1C O2 1_555 1_555
Zn1C_2 O3 1_555 1_555
O2C Zn1 1_555 1_555
O3C Zn1 1_555 1_555
N2 C2 1_555 1_555
C3 C4 1_555 1_555

#END
