
#######################################################################
#
#                 Cambridge Crystallographic Data Centre
#                                CCDC 
#
#######################################################################
#
# If this CIF has been generated from an entry in the Cambridge 
# Structural Database, then it will include bibliographic, chemical, 
# crystal, experimental, refinement or atomic coordinate data resulting 
# from the CCDC's data processing and validation procedures.
#
#######################################################################

data_XANZIW
_symmetry_cell_setting           triclinic
_symmetry_space_group_name_H-M   'P -1'
_symmetry_Int_Tables_number      2
_space_group_name_Hall           '-P 1'
loop_
_symmetry_equiv_pos_site_id
_symmetry_equiv_pos_as_xyz
1 x,y,z
2 -x,-y,-z
_cell_length_a                   9.6190(6)
_cell_length_b                   9.6847(6)
_cell_length_c                   26.2565(16)
_cell_angle_alpha                100.260(5)
_cell_angle_beta                 100.104(5)
_cell_angle_gamma                90.091(3)
_cell_volume                     2368.18
loop_
_atom_site_label
_atom_site_type_symbol
_atom_site_fract_x
_atom_site_fract_y
_atom_site_fract_z
Zn1 Zn 0.88794(5) 0.17981(5) 0.010240(19)
Zn2 Zn 1.39348(5) 0.32747(5) 0.010243(19)
P1 P 0.70065(11) 0.43536(11) 0.05739(4)
P2 P 1.20219(11) 0.11349(11) 0.05447(4)
O1 O 1.0468(3) 0.1255(3) 0.05801(12)
O2 O 0.8016(4) 0.3172(4) 0.05655(13)
O3 O 1.2673(4) 0.2489(4) 0.04715(15)
N1 N 0.9348(4) 0.2549(4) -0.05122(15)
N2 N 1.4542(4) 0.0138(4) -0.11180(14)
N3 N 1.4421(4) 0.1994(4) -0.05180(15)
C1 C 1.4168(4) 0.0613(4) -0.06493(16)
H1 H 1.3783 0.0049 -0.0443
C2 C 0.7764(5) 0.4883(4) -0.17605(17)
C3 C 1.2939(5) -0.1199(4) -0.23165(18)
H2 H 1.3807 -0.1040 -0.2425
N4 N 0.9397(4) 0.3909(4) -0.10927(14)
C4 C 0.9065(4) 0.3820(4) -0.06232(17)
H3 H 0.8685 0.4554 -0.0403
C5 C 0.6486(5) 0.5210(4) -0.15883(17)
H4 H 0.6489 0.5569 -0.1227
C6 C 1.4302(4) -0.1324(4) -0.14112(17)
H5 H 1.4245 -0.1972 -0.1163
H6 H 1.5101 -0.1597 -0.1595
C7 C 1.1670(5) -0.1197(5) -0.26625(18)
H7 H 1.1673 -0.1043 -0.3010
C8 C 1.0395(5) -0.1417(5) -0.25042(19)
H8 H 0.9528 -0.1389 -0.2739
C9 C 1.2934(4) -0.1435(4) -0.18092(17)
C10 C 0.7734(5) 0.4341(4) -0.22860(18)
H9 H 0.8592 0.4110 -0.2408
C11 C 1.5049(5) 0.1260(5) -0.12922(18)
H10 H 1.5380 0.1239 -0.1614
C12 C 1.4986(5) 0.2401(5) -0.09179(19)
H11 H 1.5282 0.3330 -0.0929
C13 C 1.1666(5) -0.1681(5) -0.16505(18)
H12 H 1.1666 -0.1848 -0.1305
C14 C 0.5206(5) 0.4464(5) -0.24675(19)
H13 H 0.4338 0.4318 -0.2709
C15 C 0.9133(5) 0.5108(4) -0.13655(18)
H14 H 0.9926 0.5236 -0.1549
H15 H 0.9084 0.5973 -0.1104
C16 C 1.0397(5) -0.1681(5) -0.19982(19)
H16 H 0.9531 -0.1861 -0.1892
C17 C 0.6459(5) 0.4131(5) -0.26379(18)
H17 H 0.6452 0.3756 -0.2998
C18 C 0.5215(5) 0.5013(5) -0.19410(19)
H18 H 0.4354 0.5254 -0.1822
C19 C 0.9878(5) 0.1802(5) -0.09281(19)
H19 H 1.0173 0.0860 -0.0958
C20 C 0.9908(5) 0.2637(5) -0.12881(19)
H20 H 1.0222 0.2390 -0.1615
O4 O 0.5555(3) 0.3931(4) 0.06489(13)
O5 O 0.6977(4) 0.5088(4) 0.01094(14)
O6 O 1.2341(3) -0.0121(3) 0.01541(13)
H21 H 0.7423 0.5346 0.0959
H22 H 1.2575 0.0886 0.0892
Zn1A Zn 1.11206(5) -0.17981(5) -0.010240(19)
Zn2_2 Zn 0.39348(5) 0.32747(5) 0.010243(19)
Zn2A Zn 0.60652(5) 0.67253(5) -0.010243(19)
O4_2 O 1.5555(3) 0.3931(4) 0.06489(13)
O5A O 1.3023(4) 0.4912(4) -0.01094(14)
O6A O 0.7659(3) 0.0121(3) -0.01541(13)
Zn3 Zn 0.17004(5) 0.88177(5) 0.490549(19)
Zn4 Zn 0.68585(5) 0.61838(5) 0.513131(19)
P3 P 0.05934(11) 1.14734(11) 0.44331(4)
P4 P 0.38230(11) 0.64762(11) 0.44460(4)
O7 O 0.0701(3) 0.9898(3) 0.44053(12)
O8 O 0.4976(3) 0.6856(3) 0.49223(13)
O9 O 0.2638(3) 0.7493(4) 0.44513(13)
N5 N 0.7550(4) 0.5152(4) 0.45064(15)
N6 N 0.5012(4) 1.0552(4) 0.60769(14)
C21 C 0.6624(4) 0.9624(4) 0.67512(16)
N7 N 0.3044(4) 0.9917(4) 0.55033(15)
N8 N 0.8798(4) 0.4563(4) 0.38792(15)
C22 C 0.9935(4) 0.4598(5) 0.35713(17)
H23 H 1.0021 0.3654 0.3363
H24 H 1.0846 0.4865 0.3812
C23 C 0.4434(4) 0.9752(4) 0.56098(16)
H25 H 0.4950 0.9154 0.5388
C24 C 0.8782(4) 0.5317(4) 0.43524(16)
H26 H 0.9550 0.5900 0.4556
C25 C 0.6865(5) 1.0199(5) 0.72858(17)
H27 H 0.6974 1.1187 0.7399
C26 C 0.6488(4) 1.0544(4) 0.63371(17)
H28 H 0.6824 1.1513 0.6503
H29 H 0.7082 1.0186 0.6074
C27 C 0.9607(4) 0.5652(5) 0.32063(17)
C28 C 0.2725(5) 1.0860(5) 0.59192(18)
H30 H 0.1809 1.1190 0.5952
C29 C 1.0086(5) 0.7044(5) 0.33786(17)
H31 H 1.0667 0.7315 0.3714
C30 C 0.6556(5) 0.7306(5) 0.69594(19)
H32 H 0.6455 0.6317 0.6847
C31 C 0.6486(5) 0.8176(5) 0.65928(18)
H33 H 0.6341 0.7781 0.6229
C32 C 0.9715(5) 0.8036(5) 0.30601(19)
H34 H 1.0042 0.8984 0.3179
C33 C 0.8774(5) 0.5261(5) 0.27089(18)
H35 H 0.8452 0.4312 0.2588
C34 C 0.6944(5) 0.9318(5) 0.76525(18)
H36 H 0.7115 0.9708 0.8017
C35 C 0.6753(5) 0.4216(5) 0.40983(19)
H37 H 0.5822 0.3879 0.4094
C36 C 0.3931(5) 1.1253(5) 0.62797(18)
H38 H 0.4008 1.1885 0.6605
C37 C 0.6775(5) 0.7876(5) 0.74924(19)
H39 H 0.6809 0.7281 0.7745
C38 C 0.8415(5) 0.6252(5) 0.23906(17)
H40 H 0.7859 0.5976 0.2050
C39 C 0.8865(5) 0.7646(5) 0.25678(19)
H41 H 0.8595 0.8329 0.2354
C40 C 0.7501(5) 0.3857(5) 0.37077(18)
H42 H 0.7198 0.3244 0.3381
O10 O -0.0289(3) 1.2156(3) 0.48268(13)
O11 O 0.2026(4) 1.2189(4) 0.44952(14)
O12 O 0.3301(3) 0.4955(3) 0.43463(13)
H43 H 0.4354 0.6698 0.4107
H44 H -0.0309 1.1672 0.3937
Zn3A Zn -0.17004(5) 1.11823(5) 0.509451(19)
Zn4A Zn 0.31415(5) 1.38162(5) 0.486869(19)
Zn4A_2 Zn 0.31415(5) 0.38162(5) 0.486869(19)
O10A O 0.0289(3) 0.7844(3) 0.51732(13)
O11A O 0.7974(4) 0.7811(4) 0.55048(14)
O12A O 0.6699(3) 0.5045(3) 0.56537(13)
loop_
_geom_bond_atom_site_label_1
_geom_bond_atom_site_label_2
_geom_bond_site_symmetry_1
_geom_bond_site_symmetry_2
Zn1 O1 1_555 1_555
Zn2 O3 1_555 1_555
P1 O2 1_555 1_555
P2 O1 1_555 1_555
O2 Zn1 1_555 1_555
O3 P2 1_555 1_555
N1 Zn1 1_555 1_555
N2 C1 1_555 1_555
N3 Zn2 1_555 1_555
C1 N3 1_555 1_555
H1 C1 1_555 1_555
C2 C5 1_555 1_555
C3 H2 1_555 1_555
N4 C4 1_555 1_555
C4 N1 1_555 1_555
H3 C4 1_555 1_555
C5 H4 1_555 1_555
C6 N2 1_555 1_555
H5 C6 1_555 1_555
H6 C6 1_555 1_555
C7 C3 1_555 1_555
H7 C7 1_555 1_555
C8 C7 1_555 1_555
H8 C8 1_555 1_555
C9 C3 1_555 1_555
C10 C2 1_555 1_555
H9 C10 1_555 1_555
C11 N2 1_555 1_555
H10 C11 1_555 1_555
C12 N3 1_555 1_555
H11 C12 1_555 1_555
C13 C9 1_555 1_555
H12 C13 1_555 1_555
C14 H13 1_555 1_555
C15 C2 1_555 1_555
H14 C15 1_555 1_555
H15 C15 1_555 1_555
C16 C8 1_555 1_555
H16 C16 1_555 1_555
C17 C10 1_555 1_555
H17 C17 1_555 1_555
C18 C5 1_555 1_555
H18 C18 1_555 1_555
C19 N1 1_555 1_555
H19 C19 1_555 1_555
C20 N4 1_555 1_555
H20 C20 1_555 1_555
O4 P1 1_555 1_555
O5 P1 1_555 1_555
O6 P2 1_555 1_555
H21 P1 1_555 1_555
H22 P2 1_555 1_555
Zn3 O7 1_555 1_555
Zn4 O8 1_555 1_555
P3 O7 1_555 1_555
P4 O8 1_555 1_555
O9 Zn3 1_555 1_555
N5 Zn4 1_555 1_555
N6 C23 1_555 1_555
C21 C25 1_555 1_555
N7 Zn3 1_555 1_555
N8 C22 1_555 1_555
C22 H23 1_555 1_555
H24 C22 1_555 1_555
C23 N7 1_555 1_555
H25 C23 1_555 1_555
C24 N5 1_555 1_555
H26 C24 1_555 1_555
C25 H27 1_555 1_555
C26 N6 1_555 1_555
H28 C26 1_555 1_555
H29 C26 1_555 1_555
C27 C22 1_555 1_555
C28 N7 1_555 1_555
H30 C28 1_555 1_555
C29 C27 1_555 1_555
H31 C29 1_555 1_555
C30 H32 1_555 1_555
C31 C21 1_555 1_555
H33 C31 1_555 1_555
C32 C29 1_555 1_555
H34 C32 1_555 1_555
C33 C27 1_555 1_555
H35 C33 1_555 1_555
C34 C25 1_555 1_555
H36 C34 1_555 1_555
C35 N5 1_555 1_555
H37 C35 1_555 1_555
C36 N6 1_555 1_555
H38 C36 1_555 1_555
C37 C30 1_555 1_555
H39 C37 1_555 1_555
C38 C33 1_555 1_555
H40 C38 1_555 1_555
C39 C32 1_555 1_555
H41 C39 1_555 1_555
C40 N8 1_555 1_555
H42 C40 1_555 1_555
O10 P3 1_555 1_555
O11 P3 1_555 1_555
O12 P4 1_555 1_555
H43 P4 1_555 1_555
H44 P3 1_555 1_555
Zn1A O6 1_555 1_555
Zn2_2 O4 1_555 1_555
Zn2A O5 1_555 1_555
O4_2 Zn2 1_555 1_555
O5A Zn2 1_555 1_555
O6A Zn1 1_555 1_555
Zn3A O10 1_555 1_555
Zn4A O11 1_555 1_555
Zn4A_2 O12 1_555 1_555
O10A Zn3 1_555 1_555
O11A Zn4 1_555 1_555
O12A Zn4 1_555 1_555
N4 C15 1_555 1_555
C6 C9 1_555 1_555
C11 C12 1_555 1_555
C13 C16 1_555 1_555
C14 C17 1_555 1_555
C14 C18 1_555 1_555
C19 C20 1_555 1_555
P4 O9 1_555 1_555
C21 C26 1_555 1_555
N8 C24 1_555 1_555
C28 C36 1_555 1_555
C30 C31 1_555 1_555
C34 C37 1_555 1_555
C35 C40 1_555 1_555
C38 C39 1_555 1_555

#END
