
#######################################################################
#
#                 Cambridge Crystallographic Data Centre
#                                CCDC 
#
#######################################################################
#
# If this CIF has been generated from an entry in the Cambridge 
# Structural Database, then it will include bibliographic, chemical, 
# crystal, experimental, refinement or atomic coordinate data resulting 
# from the CCDC's data processing and validation procedures.
#
#######################################################################

data_XANZUH
_symmetry_cell_setting           monoclinic
_symmetry_space_group_name_H-M   'P 21/n'
_symmetry_Int_Tables_number      14
_space_group_name_Hall           '-P 2yn'
loop_
_symmetry_equiv_pos_site_id
_symmetry_equiv_pos_as_xyz
1 x,y,z
2 1/2+x,1/2-y,1/2+z
3 -x,-y,-z
4 1/2-x,1/2+y,1/2-z
_cell_length_a                   9.8222(3)
_cell_length_b                   11.8553(4)
_cell_length_c                   10.4718(4)
_cell_angle_alpha                90
_cell_angle_beta                 94.866(2)
_cell_angle_gamma                90
_cell_volume                     1215
loop_
_atom_site_label
_atom_site_type_symbol
_atom_site_fract_x
_atom_site_fract_y
_atom_site_fract_z
Co1 Co 0.01385(3) 0.02880(3) 0.34023(3)
O1 O -0.0552(2) 0.09348(14) 0.51473(18)
N1 N -0.0858(2) 0.20160(18) 0.5378(2)
N2 N -0.3082(3) 0.1601(3) 0.4937(4)
H1 H -0.3973 0.1791 0.4862
H2 H -0.2829 0.0889 0.4775
N3 N -0.0375(3) 0.1773(2) 0.2432(3)
N4 N -0.0892(3) 0.3780(2) 0.2175(3)
N5 N -0.3146(3) 0.4635(2) 0.2053(3)
N6 N 0.4145(3) 0.4209(2) 0.2978(2)
N7 N 0.3943(3) 0.2418(3) 0.4123(3)
N8 N 0.2101(2) 0.1028(2) 0.3855(2)
C1 C -0.2166(3) 0.2352(3) 0.5277(3)
C2 C -0.2426(4) 0.3519(3) 0.5565(4)
H3 H -0.3341 0.3810 0.5488
C3 C -0.1364(5) 0.4182(3) 0.5949(4)
H4 H -0.1539 0.4953 0.6165
C4 C -0.0042(5) 0.3816(3) 0.6039(4)
H5 H 0.0695 0.4320 0.6298
C5 C 0.0202(4) 0.2739(3) 0.5759(3)
H6 H 0.1123 0.2459 0.5819
C6 C -0.0684(3) 0.2702(2) 0.2314(3)
C7 C -0.2121(3) 0.4187(2) 0.2115(3)
C8 C 0.3965(3) 0.3367(3) 0.3479(3)
C9 C 0.2920(3) 0.1717(2) 0.3931(3)
Co1B Co -0.01385(3) -0.02880(3) 0.65977(3)
O1B O 0.0552(2) -0.09348(14) 0.48527(18)
N5C N -0.1854(3) -0.0365(2) 0.2947(3)
Co1C Co -0.51385(3) 0.52880(3) 0.15977(3)
Co1C_2 Co 0.48615(3) 0.52880(3) 0.15977(3)
N6C N 0.0855(3) -0.0791(2) 0.2022(2)
loop_
_geom_bond_atom_site_label_1
_geom_bond_atom_site_label_2
_geom_bond_site_symmetry_1
_geom_bond_site_symmetry_2
Co1 O1 1_555 1_555
O1 N1 1_555 1_555
N1 C1 1_555 1_555
N2 H1 1_555 1_555
H2 N2 1_555 1_555
N3 Co1 1_555 1_555
N4 C6 1_555 1_555
N5 C7 1_555 1_555
N6 C8 1_555 1_555
N7 C8 1_555 1_555
N8 Co1 1_555 1_555
C1 N2 1_555 1_555
C2 C1 1_555 1_555
H3 C2 1_555 1_555
C3 C2 1_555 1_555
H4 C3 1_555 1_555
C4 C3 1_555 1_555
H5 C4 1_555 1_555
C5 N1 1_555 1_555
H6 C5 1_555 1_555
C6 N3 1_555 1_555
C7 N4 1_555 1_555
C9 N7 1_555 1_555
Co1B O1 1_555 1_555
O1B Co1 1_555 1_555
N5C Co1 1_555 1_555
Co1C N5 1_555 1_555
Co1C_2 N6 1_555 1_555
N6C Co1 1_555 1_555
N8 C9 1_555 1_555
C4 C5 1_555 1_555
Co1B O1B 1_555 1_555

#END
