
#######################################################################
#
#                 Cambridge Crystallographic Data Centre
#                                CCDC 
#
#######################################################################
#
# If this CIF has been generated from an entry in the Cambridge 
# Structural Database, then it will include bibliographic, chemical, 
# crystal, experimental, refinement or atomic coordinate data resulting 
# from the CCDC's data processing and validation procedures.
#
#######################################################################

data_XAPBAS
_symmetry_cell_setting           monoclinic
_symmetry_space_group_name_H-M   'P 21/n'
_symmetry_Int_Tables_number      14
_space_group_name_Hall           '-P 2yn'
loop_
_symmetry_equiv_pos_site_id
_symmetry_equiv_pos_as_xyz
1 x,y,z
2 1/2-x,1/2+y,1/2-z
3 -x,-y,-z
4 1/2+x,1/2-y,1/2+z
_cell_length_a                   7.6613(5)
_cell_length_b                   16.3179(11)
_cell_length_c                   14.5275(10)
_cell_angle_alpha                90
_cell_angle_beta                 92.866(6)
_cell_angle_gamma                90
_cell_volume                     1813.9
loop_
_atom_site_label
_atom_site_type_symbol
_atom_site_fract_x
_atom_site_fract_y
_atom_site_fract_z
Zn1 Zn 0.75274(3) 0.679177(12) 0.680962(13)
Zn2 Zn 0.74220(3) 0.483630(12) 0.451542(13)
P1 P 0.92225(6) 0.49905(3) 0.65890(3)
P2 P 0.53697(6) 0.64527(3) 0.50602(3)
O1 O 0.61741(18) 0.58610(8) 0.44032(9)
O2 O 0.67043(17) 0.70200(8) 0.55475(9)
O3 O 0.84989(17) 0.45841(8) 0.57140(9)
O4 O 0.80909(17) 0.56552(8) 0.69733(9)
N1 N 0.3374(2) 0.68659(9) 0.84996(10)
C1 C 0.4303(2) 0.65920(11) 0.78073(12)
H1 H 0.3986 0.6136 0.7429
C2 C 0.3099(3) 0.50697(12) 1.08038(13)
H2 H 0.3569 0.5100 1.1420
N2 N 0.5726(2) 0.70430(9) 0.77199(10)
N3 N 0.3041(2) 0.31858(9) 0.84862(11)
C3 C 0.2704(2) 0.43093(12) 1.04124(13)
H3 H 0.2923 0.3824 1.0760
C4 C 0.1598(2) 0.34442(11) 0.90583(14)
H4 H 0.1417 0.3025 0.9537
H5 H 0.0506 0.3488 0.8667
C5 C 0.1758(2) 0.64968(11) 0.88207(13)
H6 H 0.0981 0.6353 0.8280
H7 H 0.1143 0.6905 0.9191
C6 C 0.5678(2) 0.76397(11) 0.83974(12)
H8 H 0.6527 0.8057 0.8505
C7 C 0.2107(2) 0.57395(11) 0.93945(12)
C8 C 0.1689(2) 0.49755(11) 0.90161(12)
H9 H 0.1188 0.4945 0.8406
C9 C 0.4233(2) 0.75342(11) 0.88806(13)
H10 H 0.3880 0.7857 0.9383
C10 C 0.2811(2) 0.57812(12) 1.03018(13)
H11 H 0.3091 0.6298 1.0572
C11 C 0.5076(3) 0.32058(11) 0.74952(12)
H12 H 0.5772 0.3358 0.7000
C12 C 0.3622(3) 0.36061(12) 0.77438(13)
H13 H 0.3112 0.4080 0.7462
C13 C 0.1990(2) 0.42572(11) 0.95132(12)
C14 C 0.4125(2) 0.25506(11) 0.86575(13)
H14 H 0.3996 0.2161 0.9135
O5 O 0.41761(17) 0.60765(8) 0.57432(9)
O6 O 1.11097(17) 0.52636(9) 0.65296(9)
N4 N 0.5394(2) 0.25402(9) 0.80731(10)
H15 H 0.922(2) 0.4409(12) 0.7249(13)
H16 H 0.436(3) 0.6942(13) 0.4524(15)
Zn1A Zn 0.74726(3) 0.179177(12) 0.819038(13)
Zn2B Zn 0.25780(3) 0.516370(12) 0.548458(13)
Zn2B_2 Zn 1.25780(3) 0.516370(12) 0.548458(13)
O5B O 0.58239(17) 0.39235(8) 0.42568(9)
O6B O 0.88903(17) 0.47364(9) 0.34704(9)
N4A N 0.9606(2) 0.75402(9) 0.69269(10)
loop_
_geom_bond_atom_site_label_1
_geom_bond_atom_site_label_2
_geom_bond_site_symmetry_1
_geom_bond_site_symmetry_2
Zn1 O2 1_555 1_555
Zn2 O1 1_555 1_555
P1 O3 1_555 1_555
P2 O1 1_555 1_555
O2 P2 1_555 1_555
O3 Zn2 1_555 1_555
O4 Zn1 1_555 1_555
N1 C1 1_555 1_555
C1 H1 1_555 1_555
C2 H2 1_555 1_555
N2 Zn1 1_555 1_555
N3 C4 1_555 1_555
C3 C2 1_555 1_555
H3 C3 1_555 1_555
C4 H4 1_555 1_555
H5 C4 1_555 1_555
C5 N1 1_555 1_555
H6 C5 1_555 1_555
H7 C5 1_555 1_555
C6 N2 1_555 1_555
H8 C6 1_555 1_555
C7 C5 1_555 1_555
C8 C7 1_555 1_555
H9 C8 1_555 1_555
C9 N1 1_555 1_555
H10 C9 1_555 1_555
C10 C2 1_555 1_555
H11 C10 1_555 1_555
C11 H12 1_555 1_555
C12 N3 1_555 1_555
H13 C12 1_555 1_555
C13 C3 1_555 1_555
C14 N3 1_555 1_555
H14 C14 1_555 1_555
O5 P2 1_555 1_555
O6 P1 1_555 1_555
N4 C11 1_555 1_555
H15 P1 1_555 1_555
H16 P2 1_555 1_555
Zn1A N4 1_555 1_555
Zn2B O5 1_555 1_555
Zn2B_2 O6 1_555 1_555
O5B Zn2 1_555 1_555
O6B Zn2 1_555 1_555
N4A Zn1 1_555 1_555
P1 O4 1_555 1_555
C1 N2 1_555 1_555
C4 C13 1_555 1_555
C6 C9 1_555 1_555
C7 C10 1_555 1_555
C8 C13 1_555 1_555
C11 C12 1_555 1_555
C14 N4 1_555 1_555

#END
