
#######################################################################
#
#                 Cambridge Crystallographic Data Centre
#                                CCDC 
#
#######################################################################
#
# If this CIF has been generated from an entry in the Cambridge 
# Structural Database, then it will include bibliographic, chemical, 
# crystal, experimental, refinement or atomic coordinate data resulting 
# from the CCDC's data processing and validation procedures.
#
#######################################################################

data_XAPCOH
_symmetry_cell_setting           orthorhombic
_symmetry_space_group_name_H-M   'P b c a'
_symmetry_Int_Tables_number      61
_space_group_name_Hall           '-P 2ac 2ab'
loop_
_symmetry_equiv_pos_site_id
_symmetry_equiv_pos_as_xyz
1 x,y,z
2 1/2-x,-y,1/2+z
3 -x,1/2+y,1/2-z
4 1/2+x,1/2-y,-z
5 -x,-y,-z
6 1/2+x,y,1/2-z
7 x,1/2-y,1/2+z
8 1/2-x,1/2+y,z
_cell_length_a                   27.268(3)
_cell_length_b                   13.6992(16)
_cell_length_c                   45.888(5)
_cell_angle_alpha                90
_cell_angle_beta                 90
_cell_angle_gamma                90
_cell_volume                     17141.5
loop_
_atom_site_label
_atom_site_type_symbol
_atom_site_fract_x
_atom_site_fract_y
_atom_site_fract_z
C1 C 0.0520(3) 0.0239(6) 0.52785(18)
H1 H 0.0314 0.0557 0.5416
C2 C 0.0680(3) 0.0748(6) 0.50434(18)
H2 H 0.0593 0.1415 0.5021
C3 C 0.0972(3) 0.0298(6) 0.48356(17)
C4 C 0.1091(3) -0.0683(6) 0.48752(18)
H3 H 0.1287 -0.1022 0.4737
C5 C 0.0916(3) -0.1143(6) 0.51207(18)
H4 H 0.0995 -0.1813 0.5148
C6 C 0.1139(3) 0.0824(6) 0.45695(16)
C7 C 0.1139(3) 0.2187(5) 0.42961(16)
C8 C 0.1481(3) 0.0807(6) 0.41272(16)
C9 C 0.0981(3) 0.3213(6) 0.42458(17)
C10 C 0.0886(4) 0.3819(7) 0.4477(2)
H5 H 0.0939 0.3598 0.4671
C11 C 0.0710(3) 0.4763(6) 0.44262(19)
H6 H 0.0655 0.5184 0.4587
C12 C 0.0720(4) 0.4492(6) 0.3936(2)
H7 H 0.0668 0.4732 0.3744
C13 C 0.0895(3) 0.3557(6) 0.39684(19)
H8 H 0.0955 0.3157 0.3803
C14 C 0.1708(3) 0.0265(6) 0.38839(16)
C15 C 0.1925(3) 0.0738(6) 0.36545(19)
H9 H 0.1934 0.1431 0.3648
C16 C 0.2131(3) 0.0194(6) 0.34317(18)
H10 H 0.2282 0.0526 0.3274
C17 C 0.1908(3) -0.1242(6) 0.36550(18)
H11 H 0.1898 -0.1936 0.3656
C18 C 0.1700(3) -0.0746(6) 0.38836(17)
H12 H 0.1553 -0.1092 0.4040
C19 C 0.3056(3) 0.0690(7) 0.76170(19)
H13 H 0.3335 0.0888 0.7726
C20 C 0.3128(3) 0.0330(6) 0.73347(17)
H14 H 0.3448 0.0282 0.7254
C21 C 0.2721(3) 0.0047(5) 0.71780(16)
C22 C 0.2257(3) 0.0081(5) 0.73093(16)
H15 H 0.1973 -0.0135 0.7208
C23 C 0.2226(3) 0.0436(6) 0.75879(16)
H16 H 0.1913 0.0450 0.7679
C24 C 0.2774(3) -0.0257(6) 0.68658(15)
C25 C 0.3236(3) -0.0594(5) 0.64792(16)
C26 C 0.2416(3) -0.0613(5) 0.64388(15)
C27 C 0.3724(3) -0.0712(5) 0.63459(16)
C28 C 0.4147(3) -0.0704(7) 0.65117(19)
H17 H 0.4127 -0.0578 0.6715
C29 C 0.4594(3) -0.0878(7) 0.63852(19)
H18 H 0.4878 -0.0884 0.6505
C30 C 0.4241(3) -0.1013(6) 0.59314(17)
H19 H 0.4274 -0.1104 0.5727
C31 C 0.3779(3) -0.0856(6) 0.60483(17)
H20 H 0.3500 -0.0847 0.5924
C32 C 0.1965(3) -0.0764(5) 0.62635(16)
C33 C 0.1987(3) -0.1032(6) 0.59744(17)
H21 H 0.2296 -0.1108 0.5882
C34 C 0.1564(3) -0.1189(6) 0.58200(17)
H22 H 0.1587 -0.1379 0.5621
C35 C 0.1096(3) -0.0808(6) 0.62226(17)
H23 H 0.0783 -0.0717 0.6310
C36 C 0.1505(3) -0.0653(6) 0.63888(17)
H24 H 0.1475 -0.0471 0.6588
I1 I -0.01807(2) -0.04135(5) 0.597309(14)
I2 I 0.04743(2) -0.32302(5) 0.563539(16)
I3 I 0.19445(2) -0.31162(4) 0.303583(13)
I4 I 0.33753(2) -0.17277(6) 0.322241(14)
I5 I 0.07766(3) 0.72526(5) 0.36767(2)
I6 I 0.01664(3) 0.72364(5) 0.457710(17)
N1 N 0.0641(2) -0.0701(5) 0.53240(14)
N2 N 0.1025(2) 0.1783(5) 0.45522(14)
N3 N 0.1366(2) 0.1734(5) 0.40756(14)
N4 N 0.1377(2) 0.0305(5) 0.43707(13)
N5 N 0.0621(2) 0.5083(5) 0.41615(15)
N6 N 0.2125(2) -0.0791(5) 0.34303(14)
N7 N 0.2617(2) 0.0766(5) 0.77390(14)
N8 N 0.3222(2) -0.0345(5) 0.67606(13)
N9 N 0.2846(2) -0.0723(4) 0.63065(13)
N10 N 0.2354(2) -0.0388(4) 0.67184(13)
N11 N 0.4643(2) -0.1039(5) 0.60989(15)
N12 N 0.1115(2) -0.1084(5) 0.59402(13)
Zn1 Zn 0.04807(3) -0.13921(7) 0.57140(2)
Zn2 Zn 0.24641(4) -0.15819(7) 0.311076(19)
Zn3 Zn 0.03116(4) 0.64266(7) 0.40852(2)
N7A N 0.2383(2) -0.0766(5) 0.27390(14)
N11C N -0.0357(2) 0.6039(5) 0.39011(15)
Zn2A Zn 0.25359(4) 0.15819(7) 0.811076(19)
Zn3C Zn 0.53116(4) -0.14266(7) 0.59148(2)
C37 C 0.2352(4) 0.2832(8) 0.1751(2)
C38 C 0.2587(6) 0.2553(9) 0.2013(3)
H25 H 0.2934 0.2498 0.2013
C39 C 0.2347(8) 0.2363(11) 0.2259(3)
H26 H 0.2524 0.2206 0.2431
C40 C 0.1853(9) 0.2394(12) 0.2264(3)
H27 H 0.1688 0.2243 0.2441
C41 C 0.1575(6) 0.2645(11) 0.2017(3)
H28 H 0.1226 0.2666 0.2023
C42 C 0.1842(5) 0.287(4) 0.1755(4)
C43 C 0.1575(4) 0.3098(8) 0.1483(2)
C44 C 0.1050(5) 0.3150(8) 0.1480(3)
H29 H 0.0873 0.3060 0.1656
C45 C 0.0801(5) 0.3328(8) 0.1225(3)
H30 H 0.0453 0.3358 0.1226
C46 C 0.1057(5) 0.3465(10) 0.0967(3)
H31 H 0.0885 0.3583 0.0790
C47 C 0.1561(5) 0.3431(8) 0.0968(3)
H32 H 0.1735 0.3517 0.0790
C48 C 0.1827(4) 0.3269(6) 0.1228(2)
C49 C 0.2373(4) 0.3265(9) 0.1228(2)
C50 C 0.2638(5) 0.3480(8) 0.0976(3)
H33 H 0.2466 0.3612 0.0800
C51 C 0.3144(5) 0.3505(8) 0.0976(3)
H34 H 0.3319 0.3664 0.0804
C52 C 0.3394(5) 0.3295(9) 0.1232(3)
H35 H 0.3742 0.3297 0.1235
C53 C 0.3136(5) 0.3086(9) 0.1480(3)
H36 H 0.3312 0.2958 0.1655
C54 C 0.2621(4) 0.3054(8) 0.1487(3)
C79 C 0.2092(6) 0.1635(12) 0.0237(6)
C80 C 0.1622(6) 0.2035(13) 0.0218(5)
H54 H 0.1579 0.2721 0.0200
C81 C 0.1217(6) 0.1418(14) 0.0225(4)
H55 H 0.0895 0.1680 0.0223
C82 C 0.1288(7) 0.0416(15) 0.0236(6)
H56 H 0.1015 -0.0012 0.0222
C83 C 0.1751(8) 0.0039(14) 0.0267(7)
H57 H 0.1793 -0.0643 0.0294
C84 C 0.2157(8) 0.0641(13) 0.0259(9)
H58 H 0.2478 0.0372 0.0269
N14 N 0.2502(9) 0.2328(18) 0.0250(9)
O3 O 0.2398(12) 0.3184(16) 0.0200(6)
O4 O 0.2914(8) 0.1969(19) 0.0250(5)
C91 C 0.2600(8) -0.009(2) 0.4448(6)
C92 C 0.2743(8) 0.083(2) 0.4410(6)
H64 H 0.2664 0.1336 0.4543
C93 C 0.3029(11) 0.098(3) 0.4147(9)
H65 H 0.3146 0.1624 0.4107
C94 C 0.3129(11) 0.032(3) 0.3970(7)
H66 H 0.3310 0.0476 0.3799
C95 C 0.2982(11) -0.064(3) 0.4018(7)
H67 H 0.3072 -0.1141 0.3885
C96 C 0.2731(10) -0.083(2) 0.4237(5)
H68 H 0.2622 -0.1486 0.4266
N16 N 0.2304(8) -0.0430(16) 0.4696(5)
O7 O 0.2151(7) 0.0201(14) 0.4852(4)
O8 O 0.2201(9) -0.1267(18) 0.4747(5)
C121 C -0.069(3) -0.046(6) 0.2459(8)
O17 O -0.0699(12) -0.030(3) 0.2774(8)
O20 O 0.0859(18) -0.363(4) 0.2505(13)
C124 C 0.092(4) -0.401(9) 0.2210(16)
C125 C 0.515(3) -0.218(6) 0.297(2)
O21 O 0.469(2) -0.164(5) 0.2942(16)
C55? C 0.2366(12) 0.285(5) 0.1851(9)
C56? C 0.241(2) 0.255(7) 0.2144(10)
H37? H 0.2732 0.2457 0.2220
C57? C 0.203(2) 0.240(10) 0.2322(12)
H38? H 0.2087 0.2180 0.2515
C58? C 0.157(2) 0.256(6) 0.2224(10)
H39? H 0.1307 0.2479 0.2355
C59? C 0.1478(15) 0.283(7) 0.1933(11)
H40? H 0.1153 0.2935 0.1866
C60? C 0.1893(12) 0.29(3) 0.174(2)
C61? C 0.1817(12) 0.323(4) 0.1434(7)
C62? C 0.1323(13) 0.335(4) 0.1330(9)
H41? H 0.1052 0.3305 0.1460
C63? C 0.1251(16) 0.353(5) 0.1038(10)
H42? H 0.0927 0.3543 0.0962
C64? C 0.1644(16) 0.369(5) 0.0853(9)
H43? H 0.1587 0.3888 0.0658
C65? C 0.2119(15) 0.356(4) 0.0951(7)
H44? H 0.2386 0.3623 0.0819
C66? C 0.2207(12) 0.334(5) 0.1249(8)
C67? C 0.2713(11) 0.326(4) 0.1372(7)
C68? C 0.3120(14) 0.347(4) 0.1199(9)
H45? H 0.3072 0.3692 0.1004
C69? C 0.3592(14) 0.337(5) 0.1303(11)
H46? H 0.3864 0.3498 0.1180
C70? C 0.3667(13) 0.307(4) 0.1590(10)
H47? H 0.3990 0.2976 0.1662
C71? C 0.3270(13) 0.292(4) 0.1765(9)
H48? H 0.3322 0.2731 0.1962
C72? C 0.2786(11) 0.304(4) 0.1666(8)
C73? C 0.1947(7) 0.1677(10) 0.0255(6)
C74? C 0.1439(7) 0.1673(12) 0.0229(5)
H49? H 0.1265 0.2273 0.0217
C75? C 0.1186(5) 0.0793(16) 0.0221(5)
H50? H 0.0838 0.0791 0.0203
C76? C 0.1440(7) -0.0084(12) 0.0239(4)
H51? H 0.1267 -0.0685 0.0233
C77? C 0.1948(7) -0.0080(10) 0.0265(5)
H52? H 0.2122 -0.0680 0.0277
C78? C 0.2201(5) 0.0800(13) 0.0273(6)
H53? H 0.2549 0.0802 0.0290
N13? N 0.2265(9) 0.2529(14) 0.0265(7)
O1? O 0.2057(11) 0.3295(16) 0.0211(6)
O2? O 0.2715(9) 0.2454(19) 0.0298(6)
C85? C 0.2747(7) -0.0361(14) 0.4334(4)
C86? C 0.2657(7) 0.0384(13) 0.4527(4)
H59? H 0.2475 0.0264 0.4700
C87? C 0.2832(10) 0.131(2) 0.4468(6)
H60? H 0.2802 0.1831 0.4602
C88? C 0.3056(9) 0.142(2) 0.4197(5)
H61? H 0.3174 0.2059 0.4152
C89? C 0.3122(9) 0.0726(19) 0.3994(6)
H62? H 0.3264 0.0894 0.3811
C90? C 0.2987(7) -0.0229(17) 0.4046(4)
H63? H 0.3041 -0.0746 0.3912
N15? N 0.2609(6) -0.1332(13) 0.4397(3)
O5? O 0.2343(6) -0.1482(11) 0.4618(4)
O6? O 0.2709(7) -0.1989(14) 0.4232(4)
C97? C 0.0647(6) 0.0392(10) 0.2691(3)
C98? C 0.0708(10) 0.1069(13) 0.2912(3)
H69? H 0.0707 0.1748 0.2870
C99? C 0.0773(9) 0.0741(12) 0.3197(4)
H70? H 0.0828 0.1191 0.3351
C100? C 0.0756(6) -0.0252(10) 0.3251(3)
H71? H 0.0798 -0.0484 0.3445
C101? C 0.0678(6) -0.0908(11) 0.3030(3)
H72? H 0.0657 -0.1586 0.3073
C102? C 0.0631(7) -0.0595(11) 0.2745(3)
H73? H 0.0588 -0.1049 0.2590
N17? N 0.0587(7) 0.0727(12) 0.2387(3)
O9? O 0.0568(6) 0.1602(12) 0.2351(4)
O10? O 0.0566(7) 0.0093(12) 0.2199(4)
C103? C 0.0595(9) 0.1808(17) 0.3083(5)
C104? C 0.0390(13) 0.253(2) 0.2908(6)
H74? H 0.0455 0.2541 0.2704
C105? C 0.0088(16) 0.322(3) 0.3036(8)
H75? H -0.0053 0.3721 0.2919
C106? C -0.0009(14) 0.319(3) 0.3332(8)
H76? H -0.0218 0.3664 0.3418
C107? C 0.0196(12) 0.247(2) 0.3503(6)
H77? H 0.0122 0.2439 0.3705
C108? C 0.0513(12) 0.179(2) 0.3380(5)
H78? H 0.0671 0.1322 0.3499
N18? N 0.0920(10) 0.1072(17) 0.2949(5)
O11? O 0.0987(13) 0.116(3) 0.2690(5)
O12? O 0.1094(10) 0.0461(19) 0.3113(6)
C109? C 0.0103(8) -0.0583(16) 0.2031(6)
C110? C 0.0272(8) 0.024(2) 0.2175(6)
H79? H 0.0586 0.0241 0.2265
C111? C -0.0018(11) 0.1078(16) 0.2186(6)
H80? H 0.0098 0.1644 0.2284
C112? C -0.0477(11) 0.1084(17) 0.2055(7)
H81? H -0.0675 0.1654 0.2062
C113? C -0.0646(8) 0.026(2) 0.1911(6)
H82? H -0.0959 0.0260 0.1821
C114? C -0.0356(9) -0.0577(16) 0.1900(5)
H83? H -0.0472 -0.1143 0.1802
N19? N 0.0428(15) -0.143(3) 0.1990(12)
O13? O 0.0807(15) -0.145(4) 0.2134(12)
O14? O 0.032(2) -0.205(4) 0.1803(13)
C115? C 0.4238(9) 0.0594(17) 0.2131(6)
C116? C 0.4538(11) 0.020(2) 0.1915(5)
H84? H 0.4622 0.0581 0.1750
C117? C 0.4715(12) -0.075(2) 0.1943(7)
H85? H 0.4920 -0.1013 0.1796
C118? C 0.4591(12) -0.1300(17) 0.2186(8)
H86? H 0.4712 -0.1947 0.2205
C119? C 0.4291(13) -0.091(2) 0.2401(6)
H87? H 0.4207 -0.1287 0.2567
C120? C 0.4114(11) 0.004(2) 0.2373(5)
H88? H 0.3909 0.0307 0.2520
N20? N 0.4069(12) 0.161(2) 0.2113(9)
O15? O 0.4189(18) 0.208(3) 0.1896(10)
O16? O 0.384(2) 0.198(4) 0.2315(13)
O18? O 0.4230(13) 0.074(2) 0.2774(8)
C122? C 0.4406(19) -0.026(3) 0.2752(12)
C123? C -0.007(8) 0.302(16) 0.226(4)
O19? O -0.033(6) 0.353(11) 0.202(3)
loop_
_geom_bond_atom_site_label_1
_geom_bond_atom_site_label_2
_geom_bond_site_symmetry_1
_geom_bond_site_symmetry_2
C1 H1 1_555 1_555
C2 C1 1_555 1_555
H2 C2 1_555 1_555
C3 C2 1_555 1_555
C4 C3 1_555 1_555
H3 C4 1_555 1_555
C5 C4 1_555 1_555
H4 C5 1_555 1_555
C6 C3 1_555 1_555
C7 C9 1_555 1_555
C8 C14 1_555 1_555
C9 C10 1_555 1_555
C10 H5 1_555 1_555
C11 C10 1_555 1_555
H6 C11 1_555 1_555
C12 H7 1_555 1_555
C13 C9 1_555 1_555
H8 C13 1_555 1_555
C14 C15 1_555 1_555
C15 H9 1_555 1_555
C16 C15 1_555 1_555
H10 C16 1_555 1_555
C17 H11 1_555 1_555
C18 C14 1_555 1_555
H12 C18 1_555 1_555
C19 H13 1_555 1_555
C20 C19 1_555 1_555
H14 C20 1_555 1_555
C21 C20 1_555 1_555
C22 C21 1_555 1_555
H15 C22 1_555 1_555
C23 C22 1_555 1_555
H16 C23 1_555 1_555
C24 C21 1_555 1_555
C25 C27 1_555 1_555
C26 C32 1_555 1_555
C27 C28 1_555 1_555
C28 H17 1_555 1_555
C29 C28 1_555 1_555
H18 C29 1_555 1_555
C30 H19 1_555 1_555
C31 C27 1_555 1_555
H20 C31 1_555 1_555
C32 C33 1_555 1_555
C33 H21 1_555 1_555
C34 C33 1_555 1_555
H22 C34 1_555 1_555
C35 H23 1_555 1_555
C36 C32 1_555 1_555
H24 C36 1_555 1_555
I1 Zn1 1_555 1_555
I2 Zn1 1_555 1_555
I3 Zn2 1_555 1_555
I4 Zn2 1_555 1_555
I5 Zn3 1_555 1_555
I6 Zn3 1_555 1_555
N1 C1 1_555 1_555
N2 C6 1_555 1_555
N3 C7 1_555 1_555
N4 C6 1_555 1_555
N5 C11 1_555 1_555
N6 C16 1_555 1_555
N7 C19 1_555 1_555
N8 C24 1_555 1_555
N9 C25 1_555 1_555
N10 C24 1_555 1_555
N11 C29 1_555 1_555
N12 C34 1_555 1_555
Zn1 N1 1_555 1_555
Zn2 N6 1_555 1_555
Zn3 N5 1_555 1_555
C37 C38 1_555 1_555
C38 H25 1_555 1_555
C39 C38 1_555 1_555
H26 C39 1_555 1_555
C40 C39 1_555 1_555
H27 C40 1_555 1_555
C41 C40 1_555 1_555
H28 C41 1_555 1_555
C42 C37 1_555 1_555
C43 C42 1_555 1_555
C44 C43 1_555 1_555
H29 C44 1_555 1_555
C45 C44 1_555 1_555
H30 C45 1_555 1_555
C46 C45 1_555 1_555
H31 C46 1_555 1_555
C47 C46 1_555 1_555
H32 C47 1_555 1_555
C48 C43 1_555 1_555
C49 C48 1_555 1_555
C50 C49 1_555 1_555
H33 C50 1_555 1_555
C51 C50 1_555 1_555
H34 C51 1_555 1_555
C52 C51 1_555 1_555
H35 C52 1_555 1_555
C53 C52 1_555 1_555
H36 C53 1_555 1_555
C54 C37 1_555 1_555
C79 C80 1_555 1_555
C80 H54 1_555 1_555
C81 C80 1_555 1_555
H55 C81 1_555 1_555
C82 C81 1_555 1_555
H56 C82 1_555 1_555
C83 C82 1_555 1_555
H57 C83 1_555 1_555
C84 C79 1_555 1_555
H58 C84 1_555 1_555
N14 C79 1_555 1_555
O3 N14 1_555 1_555
O4 N14 1_555 1_555
C91 C92 1_555 1_555
C92 H64 1_555 1_555
C93 C92 1_555 1_555
H65 C93 1_555 1_555
C94 C93 1_555 1_555
H66 C94 1_555 1_555
C95 C94 1_555 1_555
H67 C95 1_555 1_555
C96 C91 1_555 1_555
H68 C96 1_555 1_555
N16 C91 1_555 1_555
O7 N16 1_555 1_555
O8 N16 1_555 1_555
C121 O17 1_555 1_555
O20 C124 1_555 1_555
C125 O21 1_555 1_555
N7A Zn2 1_555 1_555
N11C Zn3 1_555 1_555
Zn2A N7 1_555 1_555
Zn3C N11 1_555 1_555
C5 N1 1_555 1_555
C7 N2 1_555 1_555
C8 N3 1_555 1_555
C8 N4 1_555 1_555
C12 C13 1_555 1_555
C12 N5 1_555 1_555
C17 C18 1_555 1_555
C17 N6 1_555 1_555
C23 N7 1_555 1_555
C25 N8 1_555 1_555
C26 N9 1_555 1_555
C26 N10 1_555 1_555
C30 C31 1_555 1_555
C30 N11 1_555 1_555
C35 C36 1_555 1_555
C35 N12 1_555 1_555
N12 Zn1 1_555 1_555
C41 C42 1_555 1_555
C47 C48 1_555 1_555
C49 C54 1_555 1_555
C53 C54 1_555 1_555
C83 C84 1_555 1_555
C95 C96 1_555 1_555

#END
