
#######################################################################
#
#                 Cambridge Crystallographic Data Centre
#                                CCDC 
#
#######################################################################
#
# If this CIF has been generated from an entry in the Cambridge 
# Structural Database, then it will include bibliographic, chemical, 
# crystal, experimental, refinement or atomic coordinate data resulting 
# from the CCDC's data processing and validation procedures.
#
#######################################################################

data_XAPDAU
_symmetry_cell_setting           orthorhombic
_symmetry_space_group_name_H-M   'P b c a'
_symmetry_Int_Tables_number      61
_space_group_name_Hall           '-P 2ac 2ab'
loop_
_symmetry_equiv_pos_site_id
_symmetry_equiv_pos_as_xyz
1 x,y,z
2 1/2-x,-y,1/2+z
3 -x,1/2+y,1/2-z
4 1/2+x,1/2-y,-z
5 -x,-y,-z
6 1/2+x,y,1/2-z
7 x,1/2-y,1/2+z
8 1/2-x,1/2+y,z
_cell_length_a                   27.5680(18)
_cell_length_b                   13.7285(9)
_cell_length_c                   45.836(3)
_cell_angle_alpha                90
_cell_angle_beta                 90
_cell_angle_gamma                90
_cell_volume                     17347.4
loop_
_atom_site_label
_atom_site_type_symbol
_atom_site_fract_x
_atom_site_fract_y
_atom_site_fract_z
C1 C 0.7225(3) 0.5463(6) 0.25920(17)
H1 H 0.6911 0.5511 0.2676
C2 C 0.7264(3) 0.5108(5) 0.23122(16)
H2 H 0.6984 0.4916 0.2206
C3 C 0.7723(3) 0.5039(5) 0.21892(16)
C4 C 0.8127(3) 0.5270(6) 0.23540(18)
H3 H 0.8445 0.5194 0.2277
C5 C 0.8053(3) 0.5618(7) 0.26364(19)
H4 H 0.8328 0.5773 0.2752
C6 C 0.7781(3) 0.4763(5) 0.18762(16)
C7 C 0.7426(3) 0.4409(5) 0.14457(16)
C8 C 0.8243(3) 0.4434(5) 0.14855(16)
C9 C 0.6980(3) 0.4267(5) 0.12682(16)
C10 C 0.6524(3) 0.4395(6) 0.13995(17)
H5 H 0.6498 0.4585 0.1598
C11 C 0.6116(3) 0.4236(6) 0.12320(17)
H6 H 0.5807 0.4335 0.1319
C12 C 0.6577(3) 0.3842(6) 0.08267(17)
H7 H 0.6595 0.3652 0.0628
C13 C 0.7000(3) 0.3998(6) 0.09780(17)
H8 H 0.7304 0.3922 0.0884
C14 C 0.8726(3) 0.4321(5) 0.13502(16)
C15 C 0.8775(3) 0.4171(6) 0.10531(18)
H9 H 0.8498 0.4163 0.0930
C16 C 0.9236(3) 0.4032(6) 0.09385(18)
H10 H 0.9269 0.3953 0.0733
C17 C 0.9591(3) 0.4163(6) 0.13911(19)
H11 H 0.9873 0.4165 0.1510
C18 C 0.9143(3) 0.4327(6) 0.15208(19)
H12 H 0.9121 0.4442 0.1725
C19 C 0.8102(3) 0.6266(6) 0.36603(17)
H13 H 0.8113 0.6958 0.3657
C20 C 0.8318(3) 0.5770(6) 0.38889(18)
H14 H 0.8476 0.6122 0.4040
C21 C 0.8305(3) 0.4771(6) 0.38972(17)
C22 C 0.8074(4) 0.4282(6) 0.3675(2)
H15 H 0.8056 0.3591 0.3675
C23 C 0.7866(3) 0.4817(6) 0.34494(19)
H16 H 0.7711 0.4479 0.3294
C24 C 0.8546(3) 0.4235(6) 0.41370(18)
C25 C 0.8898(3) 0.4224(6) 0.45789(17)
C26 C 0.8888(3) 0.2853(6) 0.43045(18)
C27 C 0.9497(3) 0.4808(6) 0.52937(19)
H17 H 0.9694 0.4491 0.5435
C28 C 0.9352(3) 0.4296(7) 0.5055(2)
H18 H 0.9445 0.3634 0.5031
C29 C 0.9068(3) 0.4752(6) 0.48457(18)
C30 C 0.8949(3) 0.5727(6) 0.48838(19)
H19 H 0.8760 0.6064 0.4743
C31 C 0.9113(4) 0.6193(6) 0.51314(19)
H20 H 0.9037 0.6863 0.5157
C32 C 0.9328(4) 0.0294(7) 0.4431(2)
H21 H 0.9391 -0.0123 0.4592
C33 C 0.9160(4) 0.1237(7) 0.4483(2)
H22 H 0.9119 0.1463 0.4677
C34 C 0.9053(3) 0.1840(6) 0.42506(19)
C35 C 0.9121(3) 0.1486(6) 0.3969(2)
H23 H 0.9054 0.1881 0.3804
C36 C 0.9288(3) 0.0549(6) 0.3937(2)
H24 H 0.9324 0.0300 0.3745
I1 I 0.80479(2) 0.81030(4) 0.303916(13)
I2 I 0.66305(2) 0.67193(6) 0.323715(15)
I3 I 1.07666(3) 0.28118(6) 0.13319(2)
I4 I 1.01521(3) 0.27862(5) 0.042957(17)
I5 I 0.48303(2) 0.45231(5) 0.100407(13)
I6 I 0.55086(3) 0.17495(5) 0.066482(16)
N5 N 0.7610(3) 0.5744(5) 0.27529(14)
N6 N 0.7368(2) 0.4638(4) 0.17245(13)
N7 N 0.7855(2) 0.4301(4) 0.13105(14)
N8 N 0.8227(2) 0.4665(4) 0.17689(14)
N9 N 0.6136(2) 0.3950(5) 0.09530(14)
N10 N 0.9641(3) 0.4003(5) 0.11056(16)
N11 N 0.7876(3) 0.5794(5) 0.34430(15)
N12 N 0.8659(2) 0.4730(5) 0.43781(14)
N13 N 0.9017(3) 0.3280(5) 0.45566(15)
N14 N 0.8649(2) 0.3293(5) 0.40881(15)
N15 N 0.9373(3) 0.5743(5) 0.53376(14)
N16 N 0.9401(3) -0.0036(5) 0.41620(16)
Zn1 Zn 0.75324(4) 0.65755(7) 0.31220(2)
Zn2 Zn 1.02980(4) 0.36176(7) 0.09205(2)
Zn3 Zn 0.54954(3) 0.35904(7) 0.07372(2)
N15A N 0.5627(3) 0.4257(5) 0.03376(14)
N16B N 1.0599(3) 0.4964(5) 0.08380(16)
Zn2B Zn 0.97020(4) -0.13824(7) 0.40795(2)
Zn3A Zn 0.95046(3) 0.64096(7) 0.57372(2)
C37 C 0.9570(5) 0.9680(8) 0.1917(3)
H25 H 0.9775 0.9873 0.1760
C38 C 0.9423(5) 1.0358(7) 0.2124(3)
H26 H 0.9528 1.1016 0.2109
C39 C 0.9123(5) 1.0075(8) 0.2352(3)
H27 H 0.9023 1.0538 0.2494
C40 C 0.8970(4) 0.9113(9) 0.2374(3)
H28 H 0.8765 0.8919 0.2530
C41 C 0.9117(3) 0.8434(7) 0.2167(2)
C42 C 0.9417(3) 0.8718(7) 0.1938(2)
C43 C 0.9564(5) 0.8039(9) 0.1731(2)
H29 H 0.9769 0.8233 0.1575
C44 C 0.9411(5) 0.7077(9) 0.1753(3)
H30 H 0.9511 0.6613 0.1611
C45 C 0.9111(5) 0.6793(7) 0.1981(3)
H31 H 0.9006 0.6136 0.1996
C46 C 0.8964(4) 0.7472(8) 0.2188(3)
H32 H 0.8759 0.7278 0.2344
C47 C 0.9341(6) 0.4432(17) 0.2707(4)
C48 C 0.9381(6) 0.5505(16) 0.2719(4)
H33 H 0.9462 0.5891 0.2554
C49 C 0.9290(6) 0.5893(13) 0.2988(4)
H34 H 0.9316 0.6576 0.3017
C50 C 0.9164(6) 0.5304(13) 0.3214(4)
H35 H 0.9098 0.5590 0.3398
C51 C 0.9128(7) 0.4318(14) 0.3186(4)
H36 H 0.9041 0.3935 0.3351
C52 C 0.9215(8) 0.3872(16) 0.2923(4)
H37 H 0.9185 0.3187 0.2900
N1 N 0.9449(14) 0.400(2) 0.2415(4)
O1 O 0.9555(10) 0.4541(18) 0.2199(4)
O2 O 0.9499(11) 0.3071(18) 0.2400(4)
C53 C 0.7238(10) 0.5435(15) 0.4283(6)
C54 C 0.7348(9) 0.467(2) 0.4497(5)
H38 H 0.7527 0.4783 0.4671
C55 C 0.717(2) 0.380(2) 0.4421(9)
H39 H 0.7201 0.3259 0.4551
C56 C 0.6948(13) 0.368(2) 0.4159(6)
H40 H 0.6827 0.3050 0.4110
C57 C 0.689(2) 0.441(3) 0.3964(8)
H41 H 0.6765 0.4273 0.3776
C58 C 0.701(3) 0.535(3) 0.4032(12)
N2 N 0.7417(8) 0.6411(17) 0.4377(5)
O3 O 0.7673(8) 0.6549(17) 0.4605(5)
O4 O 0.7285(9) 0.7101(17) 0.4209(8)
C65 C 0.7965(10) 0.321(2) 0.0233(5)
C66 C 0.7823(10) 0.423(2) 0.0235(7)
H47 H 0.7493 0.4431 0.0220
C67 C 0.8187(13) 0.489(2) 0.0260(7)
H48 H 0.8117 0.5559 0.0285
C68 C 0.8658(12) 0.457(2) 0.0250(8)
H49 H 0.8915 0.5035 0.0258
C69 C 0.8762(10) 0.360(3) 0.0228(9)
H50 H 0.9092 0.3404 0.0216
C70 C 0.8409(11) 0.290(2) 0.0223(5)
H51 H 0.8484 0.2222 0.0213
N4 N 0.7552(11) 0.251(2) 0.0214(7)
O7 O 0.7123(11) 0.280(3) 0.0258(7)
O8 O 0.7672(16) 0.162(2) 0.0178(7)
C71 C 0.7330(4) 0.7172(6) 0.1743(2)
C72 C 0.7582(6) 0.7432(8) 0.2006(3)
H52 H 0.7926 0.7472 0.2010
C73 C 0.7302(7) 0.7629(7) 0.2259(3)
H53 H 0.7463 0.7816 0.2433
C74 C 0.6807(7) 0.7558(8) 0.2260(3)
H54 H 0.6634 0.7671 0.2436
C75 C 0.6562(6) 0.7332(8) 0.2016(2)
H55 H 0.6218 0.7305 0.2020
C76 C 0.6819(4) 0.7128(6) 0.1751(2)
C77 C 0.6547(4) 0.6893(7) 0.1482(2)
C78 C 0.6037(5) 0.6861(8) 0.1472(3)
H56 H 0.5858 0.6958 0.1647
C79 C 0.5782(5) 0.6687(8) 0.1207(3)
H57 H 0.5438 0.6673 0.1202
C80 C 0.6047(5) 0.6544(8) 0.0963(4)
H58 H 0.5882 0.6409 0.0786
C81 C 0.6536(4) 0.6584(7) 0.0962(2)
H59 H 0.6707 0.6504 0.0783
C82 C 0.6795(4) 0.6742(6) 0.1222(2)
C83 C 0.7328(4) 0.6743(6) 0.1214(2)
C84 C 0.7591(5) 0.6523(8) 0.0962(3)
H60 H 0.7425 0.6379 0.0785
C85 C 0.8104(5) 0.6514(7) 0.0969(3)
H61 H 0.8282 0.6372 0.0797
C86 C 0.8348(5) 0.6714(8) 0.1228(3)
H62 H 0.8693 0.6704 0.1231
C87 C 0.8102(4) 0.6919(7) 0.1471(3)
H63 H 0.8274 0.7055 0.1646
C88 C 0.7587(4) 0.6936(6) 0.1471(2)
C59? C 0.7425(17) 0.522(3) 0.4447(9)
C60? C 0.727(4) 0.419(4) 0.4439(19)
H42? H 0.7385 0.3709 0.4568
C61? C 0.693(2) 0.401(4) 0.4228(12)
H43? H 0.6758 0.3417 0.4230
C62? C 0.685(4) 0.468(5) 0.4014(17)
H44? H 0.6672 0.4481 0.3846
C63? C 0.701(6) 0.561(6) 0.403(2)
H45? H 0.6961 0.6058 0.3875
C64? C 0.7252(19) 0.590(3) 0.4281(9)
H46? H 0.7290 0.6571 0.4329
N3? N 0.7737(13) 0.545(3) 0.4703(8)
O5? O 0.7884(13) 0.479(3) 0.4877(8)
O6? O 0.7865(18) 0.635(3) 0.4732(15)
C89? C 0.7920(13) 0.466(4) 0.0279(17)
C90? C 0.8171(18) 0.553(4) 0.0168(10)
C91? C 0.8659(17) 0.542(4) 0.0161(10)
C92? C 0.8870(16) 0.453(5) 0.0202(13)
C93? C 0.8601(19) 0.372(4) 0.026(2)
C94? C 0.8111(19) 0.379(4) 0.0315(12)
H64? H 0.8008 0.6101 0.0108
H65? H 0.8857 0.5973 0.0126
H66? H 0.9213 0.4477 0.0189
H67? H 0.8753 0.3096 0.0264
H68? H 0.7923 0.3249 0.0376
N17? N 0.7377(14) 0.472(5) 0.0260(14)
O9? O 0.7165(19) 0.553(5) 0.0217(15)
O10? O 0.7169(17) 0.391(5) 0.0205(9)
loop_
_geom_bond_atom_site_label_1
_geom_bond_atom_site_label_2
_geom_bond_site_symmetry_1
_geom_bond_site_symmetry_2
C1 H1 1_555 1_555
C2 C1 1_555 1_555
H2 C2 1_555 1_555
C3 C2 1_555 1_555
C4 C3 1_555 1_555
H3 C4 1_555 1_555
C5 C4 1_555 1_555
H4 C5 1_555 1_555
C6 C3 1_555 1_555
C7 C9 1_555 1_555
C8 C14 1_555 1_555
C9 C10 1_555 1_555
C10 H5 1_555 1_555
C11 C10 1_555 1_555
H6 C11 1_555 1_555
C12 H7 1_555 1_555
C13 C9 1_555 1_555
H8 C13 1_555 1_555
C14 C15 1_555 1_555
C15 H9 1_555 1_555
C16 C15 1_555 1_555
H10 C16 1_555 1_555
C17 H11 1_555 1_555
C18 C14 1_555 1_555
H12 C18 1_555 1_555
C19 H13 1_555 1_555
C20 C19 1_555 1_555
H14 C20 1_555 1_555
C21 C20 1_555 1_555
C22 C21 1_555 1_555
H15 C22 1_555 1_555
C23 C22 1_555 1_555
H16 C23 1_555 1_555
C24 C21 1_555 1_555
C25 C29 1_555 1_555
C26 C34 1_555 1_555
C27 H17 1_555 1_555
C28 C27 1_555 1_555
H18 C28 1_555 1_555
C29 C28 1_555 1_555
C30 C29 1_555 1_555
H19 C30 1_555 1_555
C31 C30 1_555 1_555
H20 C31 1_555 1_555
C32 H21 1_555 1_555
C33 C32 1_555 1_555
H22 C33 1_555 1_555
C34 C33 1_555 1_555
C35 C34 1_555 1_555
H23 C35 1_555 1_555
C36 C35 1_555 1_555
H24 C36 1_555 1_555
C37 H25 1_555 1_555
C38 C37 1_555 1_555
H26 C38 1_555 1_555
C39 C38 1_555 1_555
H27 C39 1_555 1_555
C40 C39 1_555 1_555
H28 C40 1_555 1_555
C41 C40 1_555 1_555
C42 C37 1_555 1_555
C43 C42 1_555 1_555
H29 C43 1_555 1_555
C44 C43 1_555 1_555
H30 C44 1_555 1_555
C45 C44 1_555 1_555
H31 C45 1_555 1_555
C46 C41 1_555 1_555
H32 C46 1_555 1_555
C47 C48 1_555 1_555
C48 H33 1_555 1_555
C49 C48 1_555 1_555
H34 C49 1_555 1_555
C50 C49 1_555 1_555
H35 C50 1_555 1_555
C51 C50 1_555 1_555
H36 C51 1_555 1_555
C52 C47 1_555 1_555
H37 C52 1_555 1_555
N1 C47 1_555 1_555
O1 N1 1_555 1_555
O2 N1 1_555 1_555
C53 C54 1_555 1_555
C54 H38 1_555 1_555
C55 C54 1_555 1_555
H39 C55 1_555 1_555
C56 C55 1_555 1_555
H40 C56 1_555 1_555
C57 C56 1_555 1_555
H41 C57 1_555 1_555
C58 C53 1_555 1_555
N2 C53 1_555 1_555
O3 N2 1_555 1_555
O4 N2 1_555 1_555
C65 C66 1_555 1_555
C66 H47 1_555 1_555
C67 C66 1_555 1_555
H48 C67 1_555 1_555
C68 C67 1_555 1_555
H49 C68 1_555 1_555
C69 C68 1_555 1_555
H50 C69 1_555 1_555
C70 C65 1_555 1_555
H51 C70 1_555 1_555
N4 C65 1_555 1_555
O7 N4 1_555 1_555
O8 N4 1_555 1_555
C71 C72 1_555 1_555
C72 H52 1_555 1_555
C73 C72 1_555 1_555
H53 C73 1_555 1_555
C74 C73 1_555 1_555
H54 C74 1_555 1_555
C75 C74 1_555 1_555
H55 C75 1_555 1_555
C76 C71 1_555 1_555
C77 C76 1_555 1_555
C78 C77 1_555 1_555
H56 C78 1_555 1_555
C79 C78 1_555 1_555
H57 C79 1_555 1_555
C80 C79 1_555 1_555
H58 C80 1_555 1_555
C81 C80 1_555 1_555
H59 C81 1_555 1_555
C82 C77 1_555 1_555
C83 C82 1_555 1_555
C84 C83 1_555 1_555
H60 C84 1_555 1_555
C85 C84 1_555 1_555
H61 C85 1_555 1_555
C86 C85 1_555 1_555
H62 C86 1_555 1_555
C87 C86 1_555 1_555
H63 C87 1_555 1_555
C88 C71 1_555 1_555
I1 Zn1 1_555 1_555
I2 Zn1 1_555 1_555
I3 Zn2 1_555 1_555
I4 Zn2 1_555 1_555
I5 Zn3 1_555 1_555
I6 Zn3 1_555 1_555
N5 C1 1_555 1_555
N6 C6 1_555 1_555
N7 C7 1_555 1_555
N8 C6 1_555 1_555
N9 C11 1_555 1_555
N10 C16 1_555 1_555
N11 C19 1_555 1_555
N12 C24 1_555 1_555
N13 C25 1_555 1_555
N14 C24 1_555 1_555
N15 C27 1_555 1_555
N16 C32 1_555 1_555
Zn1 N5 1_555 1_555
Zn2 N10 1_555 1_555
Zn3 N9 1_555 1_555
N15A Zn3 1_555 1_555
N16B Zn2 1_555 1_555
Zn2B N16 1_555 1_555
Zn3A N15 1_555 1_555
C5 N5 1_555 1_555
C7 N6 1_555 1_555
C8 N7 1_555 1_555
C8 N8 1_555 1_555
C12 C13 1_555 1_555
C12 N9 1_555 1_555
C17 C18 1_555 1_555
C17 N10 1_555 1_555
C23 N11 1_555 1_555
C25 N12 1_555 1_555
C26 N13 1_555 1_555
C26 N14 1_555 1_555
C31 N15 1_555 1_555
C36 N16 1_555 1_555
C41 C42 1_555 1_555
C45 C46 1_555 1_555
C51 C52 1_555 1_555
C57 C58 1_555 1_555
C69 C70 1_555 1_555
C75 C76 1_555 1_555
C81 C82 1_555 1_555
C83 C88 1_555 1_555
C87 C88 1_555 1_555
N11 Zn1 1_555 1_555

#END
