
#######################################################################
#
#                 Cambridge Crystallographic Data Centre
#                                CCDC 
#
#######################################################################
#
# If this CIF has been generated from an entry in the Cambridge 
# Structural Database, then it will include bibliographic, chemical, 
# crystal, experimental, refinement or atomic coordinate data resulting 
# from the CCDC's data processing and validation procedures.
#
#######################################################################

data_XAPFEA
_symmetry_cell_setting           monoclinic
_symmetry_space_group_name_H-M   'P 21/n'
_symmetry_Int_Tables_number      14
_space_group_name_Hall           '-P 2yn'
loop_
_symmetry_equiv_pos_site_id
_symmetry_equiv_pos_as_xyz
1 x,y,z
2 1/2-x,1/2+y,1/2-z
3 -x,-y,-z
4 1/2+x,1/2-y,1/2+z
_cell_length_a                   7.3768(2)
_cell_length_b                   11.0999(3)
_cell_length_c                   16.1870(5)
_cell_angle_alpha                90
_cell_angle_beta                 91.337(1)
_cell_angle_gamma                90
_cell_volume                     1325.06
loop_
_atom_site_label
_atom_site_type_symbol
_atom_site_fract_x
_atom_site_fract_y
_atom_site_fract_z
Ni1 Ni 0.01392(4) 0.07254(2) 0.092092(16)
O1 O 0.29461(18) 0.06249(13) 0.09401(8)
O2 O 0.73043(19) 0.06851(14) 0.09814(8)
O3 O 0.7240(2) 0.23965(14) -0.06644(10)
O4 O 0.2893(2) 0.21892(14) -0.07729(9)
O5 O 0.0020(2) 0.10531(14) -0.03598(9)
H1 H 0.090(4) 0.139(2) -0.0544(16)
H2 H -0.085(4) 0.151(3) -0.0484(18)
N1 N 0.0177(2) 0.24916(16) 0.13403(11)
N2 N -0.0847(3) 0.19544(17) 0.26687(11)
H3 H -0.1558 0.2230 0.3037
N3 N 0.0157(2) 0.01022(16) 0.21169(10)
C1 C 0.4111(3) 0.11117(18) 0.04966(12)
C2 C 0.6110(3) 0.11450(19) 0.05229(13)
C3 C 0.6066(3) 0.19054(19) -0.02252(13)
C4 C 0.4105(3) 0.18235(19) -0.02623(12)
C5 C 0.0716(3) 0.3398(2) 0.08346(14)
H4 H 0.1047 0.3198 0.0301
C6 C 0.0802(4) 0.4581(2) 0.10602(16)
H5 H 0.1179 0.5166 0.0690
C7 C 0.0314(4) 0.4890(2) 0.18540(16)
H6 H 0.0354 0.5689 0.2026
C8 C -0.0226(4) 0.4003(2) 0.23813(15)
H7 H -0.0556 0.4193 0.2917
C9 C -0.0279(3) 0.2811(2) 0.21072(13)
C10 C -0.0480(3) 0.0743(2) 0.27435(12)
C11 C -0.0815(4) 0.0221(2) 0.35157(14)
H8 H -0.1273 0.0684 0.3942
C12 C -0.0464(4) -0.0965(2) 0.36318(15)
H9 H -0.0704 -0.1325 0.4136
C13 C 0.0254(4) -0.1642(2) 0.29960(14)
H10 H 0.0521 -0.2455 0.3066
C14 C 0.0556(3) -0.1071(2) 0.22636(14)
H11 H 0.1067 -0.1514 0.1841
Ni1_2 Ni 1.01392(4) 0.07254(2) 0.092092(16)
Ni1B Ni -0.01392(4) -0.07254(2) -0.092092(16)
O2_2 O -0.26957(19) 0.06851(14) 0.09814(8)
O5B O -0.0020(2) -0.10531(14) 0.03598(9)
H1B H -0.090(4) -0.139(2) 0.0544(16)
H2B H 0.085(4) -0.151(3) 0.0484(18)
loop_
_geom_bond_atom_site_label_1
_geom_bond_atom_site_label_2
_geom_bond_site_symmetry_1
_geom_bond_site_symmetry_2
Ni1 O1 1_555 1_555
O1 C1 1_555 1_555
O2 C2 1_555 1_555
O3 C3 1_555 1_555
O4 C4 1_555 1_555
O5 Ni1 1_555 1_555
H1 O5 1_555 1_555
H2 O5 1_555 1_555
N1 Ni1 1_555 1_555
N2 H3 1_555 1_555
N3 Ni1 1_555 1_555
C1 C2 1_555 1_555
C2 C3 1_555 1_555
C3 C4 1_555 1_555
C4 C1 1_555 1_555
C5 N1 1_555 1_555
H4 C5 1_555 1_555
C6 C5 1_555 1_555
H5 C6 1_555 1_555
C7 C6 1_555 1_555
H6 C7 1_555 1_555
C8 C7 1_555 1_555
H7 C8 1_555 1_555
C9 N1 1_555 1_555
C10 N2 1_555 1_555
C11 C10 1_555 1_555
H8 C11 1_555 1_555
C12 C11 1_555 1_555
H9 C12 1_555 1_555
C13 C12 1_555 1_555
H10 C13 1_555 1_555
C14 N3 1_555 1_555
H11 C14 1_555 1_555
Ni1_2 O2 1_555 1_555
Ni1B O5 1_555 1_555
O2_2 Ni1 1_555 1_555
O5B Ni1 1_555 1_555
H1B O5B 1_555 1_555
H2B O5B 1_555 1_555
N2 C9 1_555 1_555
N3 C10 1_555 1_555
C8 C9 1_555 1_555
C13 C14 1_555 1_555
Ni1B O5B 1_555 1_555

#END
