
#######################################################################
#
#                 Cambridge Crystallographic Data Centre
#                                CCDC 
#
#######################################################################
#
# If this CIF has been generated from an entry in the Cambridge 
# Structural Database, then it will include bibliographic, chemical, 
# crystal, experimental, refinement or atomic coordinate data resulting 
# from the CCDC's data processing and validation procedures.
#
#######################################################################

data_XAPFIE
_symmetry_cell_setting           monoclinic
_symmetry_space_group_name_H-M   'P 21/n'
_symmetry_Int_Tables_number      14
_space_group_name_Hall           '-P 2yn'
loop_
_symmetry_equiv_pos_site_id
_symmetry_equiv_pos_as_xyz
1 x,y,z
2 1/2-x,1/2+y,1/2-z
3 -x,-y,-z
4 1/2+x,1/2-y,1/2+z
_cell_length_a                   7.4158(2)
_cell_length_b                   11.1131(4)
_cell_length_c                   16.3588(5)
_cell_angle_alpha                90
_cell_angle_beta                 91.464(1)
_cell_angle_gamma                90
_cell_volume                     1347.73
loop_
_atom_site_label
_atom_site_type_symbol
_atom_site_fract_x
_atom_site_fract_y
_atom_site_fract_z
Co1 Co 0.01507(4) 0.07327(3) 0.093215(17)
O1 O 0.29534(18) 0.06464(14) 0.09285(9)
O2 O 0.72964(18) 0.07110(14) 0.09701(9)
O3 O 0.7216(2) 0.23965(15) -0.06692(10)
O4 O 0.28873(19) 0.22092(14) -0.07626(9)
O5 O 0.0015(2) 0.10727(15) -0.03649(10)
H1 H 0.090(4) 0.139(3) -0.0525(18)
H2 H -0.075(5) 0.152(4) -0.043(2)
N1 N 0.0178(2) 0.25247(17) 0.13779(11)
N2 N -0.0826(3) 0.19678(18) 0.26922(11)
H3 H -0.1518 0.2242 0.3063
N3 N 0.0156(2) 0.01120(17) 0.21414(11)
C1 C 0.4111(3) 0.11285(19) 0.04871(13)
C2 C 0.6103(3) 0.1164(2) 0.05118(13)
C3 C 0.6059(3) 0.1913(2) -0.02315(13)
C4 C 0.4098(3) 0.1831(2) -0.02628(13)
C5 C 0.0699(3) 0.3429(2) 0.08802(15)
H4 H 0.1026 0.3230 0.0352
C6 C 0.0777(4) 0.4621(2) 0.11051(18)
H5 H 0.1149 0.5210 0.0743
C7 C 0.0280(4) 0.4911(2) 0.18924(17)
H6 H 0.0302 0.5708 0.2066
C8 C -0.0243(4) 0.4021(2) 0.24112(17)
H7 H -0.0572 0.4207 0.2941
C9 C -0.0278(3) 0.2833(2) 0.21387(14)
C10 C -0.0472(3) 0.0755(2) 0.27612(13)
C11 C -0.0817(4) 0.0230(2) 0.35241(15)
H8 H -0.1274 0.0691 0.3945
C12 C -0.0477(4) -0.0954(3) 0.36370(16)
H9 H -0.0717 -0.1315 0.4136
C13 C 0.0231(4) -0.1634(2) 0.30062(15)
H10 H 0.0485 -0.2448 0.3074
C14 C 0.0539(3) -0.1065(2) 0.22877(15)
H11 H 0.1044 -0.1510 0.1870
Co1_2 Co 1.01507(4) 0.07327(3) 0.093215(17)
Co1B Co -0.01507(4) -0.07327(3) -0.093215(17)
O2_2 O -0.27036(18) 0.07110(14) 0.09701(9)
O5B O -0.0015(2) -0.10727(15) 0.03649(10)
H1B H -0.090(4) -0.139(3) 0.0525(18)
H2B H 0.075(5) -0.152(4) 0.043(2)
loop_
_geom_bond_atom_site_label_1
_geom_bond_atom_site_label_2
_geom_bond_site_symmetry_1
_geom_bond_site_symmetry_2
Co1 O1 1_555 1_555
O1 C1 1_555 1_555
O2 C2 1_555 1_555
O3 C3 1_555 1_555
O4 C4 1_555 1_555
O5 Co1 1_555 1_555
H1 O5 1_555 1_555
H2 O5 1_555 1_555
N1 Co1 1_555 1_555
N2 H3 1_555 1_555
N3 Co1 1_555 1_555
C1 C2 1_555 1_555
C2 C3 1_555 1_555
C3 C4 1_555 1_555
C4 C1 1_555 1_555
C5 N1 1_555 1_555
H4 C5 1_555 1_555
C6 C5 1_555 1_555
H5 C6 1_555 1_555
C7 C6 1_555 1_555
H6 C7 1_555 1_555
C8 C7 1_555 1_555
H7 C8 1_555 1_555
C9 N1 1_555 1_555
C10 N2 1_555 1_555
C11 C10 1_555 1_555
H8 C11 1_555 1_555
C12 C11 1_555 1_555
H9 C12 1_555 1_555
C13 C12 1_555 1_555
H10 C13 1_555 1_555
C14 N3 1_555 1_555
H11 C14 1_555 1_555
Co1_2 O2 1_555 1_555
Co1B O5 1_555 1_555
O2_2 Co1 1_555 1_555
O5B Co1 1_555 1_555
H1B O5B 1_555 1_555
H2B O5B 1_555 1_555
N2 C9 1_555 1_555
N3 C10 1_555 1_555
C8 C9 1_555 1_555
C13 C14 1_555 1_555
Co1B O5B 1_555 1_555

#END
