
#######################################################################
#
#                 Cambridge Crystallographic Data Centre
#                                CCDC 
#
#######################################################################
#
# If this CIF has been generated from an entry in the Cambridge 
# Structural Database, then it will include bibliographic, chemical, 
# crystal, experimental, refinement or atomic coordinate data resulting 
# from the CCDC's data processing and validation procedures.
#
#######################################################################

data_XAPFAW
_symmetry_cell_setting           monoclinic
_symmetry_space_group_name_H-M   'P 21/n'
_symmetry_Int_Tables_number      14
_space_group_name_Hall           '-P 2yn'
loop_
_symmetry_equiv_pos_site_id
_symmetry_equiv_pos_as_xyz
1 x,y,z
2 1/2-x,1/2+y,1/2-z
3 -x,-y,-z
4 1/2+x,1/2-y,1/2+z
_cell_length_a                   7.4583(2)
_cell_length_b                   11.1632(3)
_cell_length_c                   16.2761(4)
_cell_angle_alpha                90
_cell_angle_beta                 91.494(1)
_cell_angle_gamma                90
_cell_volume                     1354.66
loop_
_atom_site_label
_atom_site_type_symbol
_atom_site_fract_x
_atom_site_fract_y
_atom_site_fract_z
Zn1 Zn 0.01648(3) 0.076590(18) 0.093726(12)
O1 O 0.29693(15) 0.06459(11) 0.09343(7)
O2 O 0.72896(15) 0.07049(11) 0.09718(8)
O3 O 0.72070(16) 0.23897(12) -0.06727(8)
O4 O 0.28910(15) 0.22094(12) -0.07601(8)
O5 O -0.00130(17) -0.10909(12) 0.03540(8)
H1 H -0.097(3) -0.146(2) 0.0522(14)
H2 H 0.083(4) -0.163(2) 0.0483(16)
N1 N 0.01813(19) 0.25504(14) 0.13779(9)
N2 N -0.0832(2) 0.19682(14) 0.26909(9)
H3 H -0.1538 0.2235 0.3058
N3 N 0.01602(19) 0.01157(14) 0.21399(9)
C1 C 0.4124(2) 0.11264(15) 0.04871(10)
C2 C 0.6097(2) 0.11592(16) 0.05104(11)
C3 C 0.6052(2) 0.19047(16) -0.02349(11)
C4 C 0.4104(2) 0.18290(15) -0.02642(10)
C5 C 0.0705(3) 0.34581(18) 0.08845(12)
H4 H 0.1039 0.3270 0.0353
C6 C 0.0771(3) 0.46404(19) 0.11226(14)
H5 H 0.1135 0.5234 0.0762
C7 C 0.0281(3) 0.4919(2) 0.19111(14)
H6 H 0.0307 0.5709 0.2091
C8 C -0.0246(3) 0.40200(18) 0.24287(13)
H7 H -0.0577 0.4195 0.2962
C9 C -0.0280(2) 0.28368(16) 0.21428(11)
C10 C -0.0469(2) 0.07596(16) 0.27626(11)
C11 C -0.0816(3) 0.02366(19) 0.35278(12)
H8 H -0.1269 0.0698 0.3951
C12 C -0.0483(3) -0.0946(2) 0.36442(13)
H9 H -0.0731 -0.1306 0.4144
C13 C 0.0234(3) -0.1621(2) 0.30091(12)
H10 H 0.0497 -0.2429 0.3078
C14 C 0.0535(3) -0.10521(18) 0.22855(12)
H11 H 0.1030 -0.1495 0.1864
Zn1_2 Zn 1.01648(3) 0.076590(18) 0.093726(12)
Zn1B Zn -0.01648(3) -0.076590(18) -0.093726(12)
O2_2 O -0.27104(15) 0.07049(11) 0.09718(8)
O5B O 0.00130(17) 0.10909(12) -0.03540(8)
H1B H 0.097(3) 0.146(2) -0.0522(14)
H2B H -0.083(4) 0.163(2) -0.0483(16)
loop_
_geom_bond_atom_site_label_1
_geom_bond_atom_site_label_2
_geom_bond_site_symmetry_1
_geom_bond_site_symmetry_2
Zn1 O1 1_555 1_555
O1 C1 1_555 1_555
O2 C2 1_555 1_555
O3 C3 1_555 1_555
O4 C4 1_555 1_555
O5 Zn1 1_555 1_555
H1 O5 1_555 1_555
H2 O5 1_555 1_555
N1 Zn1 1_555 1_555
N2 H3 1_555 1_555
N3 Zn1 1_555 1_555
C1 C2 1_555 1_555
C2 C3 1_555 1_555
C3 C4 1_555 1_555
C4 C1 1_555 1_555
C5 N1 1_555 1_555
H4 C5 1_555 1_555
C6 C5 1_555 1_555
H5 C6 1_555 1_555
C7 C6 1_555 1_555
H6 C7 1_555 1_555
C8 C7 1_555 1_555
H7 C8 1_555 1_555
C9 N1 1_555 1_555
C10 N2 1_555 1_555
C11 C10 1_555 1_555
H8 C11 1_555 1_555
C12 C11 1_555 1_555
H9 C12 1_555 1_555
C13 C12 1_555 1_555
H10 C13 1_555 1_555
C14 N3 1_555 1_555
H11 C14 1_555 1_555
Zn1_2 O2 1_555 1_555
Zn1B O5 1_555 1_555
O2_2 Zn1 1_555 1_555
O5B Zn1 1_555 1_555
H1B O5B 1_555 1_555
H2B O5B 1_555 1_555
N2 C9 1_555 1_555
N3 C10 1_555 1_555
C8 C9 1_555 1_555
C13 C14 1_555 1_555
Zn1B O5B 1_555 1_555

#END
