
#######################################################################
#
#                 Cambridge Crystallographic Data Centre
#                                CCDC 
#
#######################################################################
#
# If this CIF has been generated from an entry in the Cambridge 
# Structural Database, then it will include bibliographic, chemical, 
# crystal, experimental, refinement or atomic coordinate data resulting 
# from the CCDC's data processing and validation procedures.
#
#######################################################################

data_XAPGOK
_symmetry_cell_setting           orthorhombic
_symmetry_space_group_name_H-M   'P n m a'
_symmetry_Int_Tables_number      62
_space_group_name_Hall           '-P 2ac 2n'
loop_
_symmetry_equiv_pos_site_id
_symmetry_equiv_pos_as_xyz
1 x,y,z
2 1/2+x,1/2-y,1/2-z
3 -x,1/2+y,-z
4 1/2-x,-y,1/2+z
5 -x,-y,-z
6 1/2-x,1/2+y,1/2+z
7 x,1/2-y,z
8 1/2+x,y,1/2-z
_cell_length_a                   6.843(5)
_cell_length_b                   10.978(2)
_cell_length_c                   12.687(1)
_cell_angle_alpha                90
_cell_angle_beta                 90
_cell_angle_gamma                90
_cell_volume                     953.079
loop_
_atom_site_label
_atom_site_type_symbol
_atom_site_fract_x
_atom_site_fract_y
_atom_site_fract_z
Ag1 Ag -0.12787(6) 0.2500 0.08328(3)
Cl1 Cl 0.1620(2) 0.2500 -0.1244(1)
O1 O -0.0393(8) 0.2500 -0.1003(4)
O2 O 0.2670(9) 0.2500 -0.0279(5)
O3 O 0.2063(9) 0.3542(4) -0.1859(4)
N1 N -0.4840(7) 0.1098(4) 0.2918(3)
N2 N -0.3652(4) 0.0893(3) 0.0325(3)
C1 C -0.4865(6) 0.0759(4) 0.2067(3)
C2 C -0.4925(6) 0.0359(4) 0.0984(3)
C3 C -0.3739(5) 0.0522(4) -0.0672(3)
H1 H -0.2810 0.0879 -0.1213
N1A N 0.0160(7) 0.3902(4) 0.2082(3)
N2F N -0.3652(4) 0.4107(3) 0.0325(3)
O3F O 0.2063(9) 0.1458(4) -0.1859(4)
C3D C -0.6261(5) -0.0522(4) 0.0672(3)
C2D C -0.5075(6) -0.0359(4) -0.0984(3)
N2D N -0.6348(4) -0.0893(3) -0.0325(3)
H1D H -0.7190 -0.0879 0.1213
N1G N 0.0160(7) 0.1098(4) 0.2082(3)
C1D C -0.5135(6) -0.0759(4) -0.2067(3)
Ag1D Ag -0.87213(6) -0.2500 -0.08328(3)
Ag1G Ag -0.62787(6) 0.2500 0.41672(3)
N1D N -0.5160(7) -0.1098(4) -0.2918(3)
Ag1E Ag -0.37213(6) -0.2500 -0.41672(3)
loop_
_geom_bond_atom_site_label_1
_geom_bond_atom_site_label_2
_geom_bond_site_symmetry_1
_geom_bond_site_symmetry_2
Ag1 O1 1_555 1_555
Cl1 O1 1_555 1_555
O2 Cl1 1_555 1_555
O3 Cl1 1_555 1_555
N1 C1 1_555 1_555
N2 Ag1 1_555 1_555
C1 C2 1_555 1_555
C2 N2 1_555 1_555
C3 N2 1_555 1_555
H1 C3 1_555 1_555
N1A Ag1 1_555 1_555
N2F Ag1 1_555 1_555
O3F Cl1 1_555 1_555
C3D C2 1_555 1_555
C2D C3 1_555 1_555
N2D C3D 1_555 1_555
H1D C3D 1_555 1_555
N1G Ag1 1_555 1_555
C1D C2D 1_555 1_555
Ag1D N2D 1_555 1_555
Ag1G N1 1_555 1_555
N1D C1D 1_555 1_555
Ag1E N1D 1_555 1_555
C2D N2D 1_555 1_555

#END
