
#######################################################################
#
#                 Cambridge Crystallographic Data Centre
#                                CCDC 
#
#######################################################################
#
# If this CIF has been generated from an entry in the Cambridge 
# Structural Database, then it will include bibliographic, chemical, 
# crystal, experimental, refinement or atomic coordinate data resulting 
# from the CCDC's data processing and validation procedures.
#
#######################################################################

data_XAPHUT01
_symmetry_cell_setting           triclinic
_symmetry_space_group_name_H-M   'P -1'
_symmetry_Int_Tables_number      2
_space_group_name_Hall           '-P 1'
loop_
_symmetry_equiv_pos_site_id
_symmetry_equiv_pos_as_xyz
1 x,y,z
2 -x,-y,-z
_cell_length_a                   9.946(2)
_cell_length_b                   9.990(2)
_cell_length_c                   10.063(2)
_cell_angle_alpha                68.87(3)
_cell_angle_beta                 78.77(3)
_cell_angle_gamma                85.63(3)
_cell_volume                     914.763
loop_
_atom_site_label
_atom_site_type_symbol
_atom_site_fract_x
_atom_site_fract_y
_atom_site_fract_z
Ni1 Ni 0.37113(9) 0.45797(9) 0.85563(8)
C1 C 0.5629(8) 0.2087(9) 0.9719(8)
H1 H 0.5297 0.2278 1.0584
C2 C 0.6572(8) 0.0989(9) 0.9768(9)
H2 H 0.6877 0.0453 1.0649
C3 C 0.7068(9) 0.0673(9) 0.8545(10)
C4 C 0.6619(9) 0.1531(9) 0.7293(9)
H3 H 0.6969 0.1386 0.6406
C5 C 0.5670(8) 0.2589(8) 0.7326(8)
H4 H 0.5356 0.3137 0.6453
C6 C 0.8081(9) -0.0526(10) 0.8573(11)
H5 H 0.7935 -0.1261 0.9559
H6 H 0.7899 -0.0979 0.7899
C7 C 0.9539(8) -0.0071(9) 0.8170(8)
H7 H 0.9710 0.0427 0.8811
H8 H 0.9699 0.0625 0.7165
C8 C 1.0561(7) -0.1306(8) 0.8277(8)
C9 C 1.0387(7) -0.2570(8) 0.9477(8)
H9 H 0.9644 -0.2666 1.0258
C10 C 1.1306(8) -0.3678(9) 0.9518(8)
H10 H 1.1181 -0.4528 1.0351
C11 C 1.2551(8) -0.2384(9) 0.7309(7)
H11 H 1.3320 -0.2305 0.6559
C12 C 1.1682(8) -0.1236(8) 0.7181(8)
H12 H 1.1841 -0.0390 0.6346
C13 C 0.2671(6) 0.4145(7) 0.6683(7)
C14 C 0.2144(7) 0.3845(8) 0.5536(7)
C15 C 0.0811(7) 0.3434(8) 0.5744(7)
H13 H 0.0220 0.3318 0.6642
C16 C 0.0316(8) 0.3185(8) 0.4649(8)
H14 H -0.0607 0.2899 0.4798
C17 C 0.1178(7) 0.3356(8) 0.3348(7)
H15 H 0.0835 0.3225 0.2585
C18 C 0.2547(7) 0.3721(8) 0.3142(7)
C19 C 0.3024(7) 0.3987(8) 0.4237(7)
H16 H 0.3948 0.4265 0.4096
C20 C 0.3532(8) 0.3913(7) 0.1740(7)
N1 N 0.5158(6) 0.2898(7) 0.8514(6)
N2 N 1.2364(6) -0.3631(6) 0.8458(6)
O1 O 0.3643(5) 0.5036(5) 0.6319(5)
O2 O 0.2193(5) 0.3518(6) 0.8008(5)
O3 O 0.4782(5) 0.4068(6) 0.1677(5)
O4 O 0.3006(5) 0.3778(5) 0.0724(5)
Ni1_2 Ni 1.37113(9) -0.54203(9) 0.85563(8)
Ni1A Ni 0.62887(9) 0.54203(9) 0.14437(8)
Ni1_3 Ni 0.37113(9) 0.45797(9) -0.14437(8)
N2_2 N 0.2364(6) 0.6369(6) 0.8458(6)
O3A O 0.5218(5) 0.5932(6) 0.8323(5)
O4_2 O 0.3006(5) 0.3778(5) 1.0724(5)
loop_
_geom_bond_atom_site_label_1
_geom_bond_atom_site_label_2
_geom_bond_site_symmetry_1
_geom_bond_site_symmetry_2
Ni1 N1 1_555 1_555
C1 H1 1_555 1_555
C2 C1 1_555 1_555
H2 C2 1_555 1_555
C3 C2 1_555 1_555
C4 C3 1_555 1_555
H3 C4 1_555 1_555
C5 C4 1_555 1_555
H4 C5 1_555 1_555
C6 C3 1_555 1_555
H5 C6 1_555 1_555
H6 C6 1_555 1_555
C7 C6 1_555 1_555
H7 C7 1_555 1_555
H8 C7 1_555 1_555
C8 C7 1_555 1_555
C9 C8 1_555 1_555
H9 C9 1_555 1_555
C10 C9 1_555 1_555
H10 C10 1_555 1_555
C11 H11 1_555 1_555
C12 C8 1_555 1_555
H12 C12 1_555 1_555
C13 C14 1_555 1_555
C14 C15 1_555 1_555
C15 H13 1_555 1_555
C16 C15 1_555 1_555
H14 C16 1_555 1_555
C17 C16 1_555 1_555
H15 C17 1_555 1_555
C18 C17 1_555 1_555
C19 C14 1_555 1_555
H16 C19 1_555 1_555
C20 C18 1_555 1_555
N1 C1 1_555 1_555
N2 C10 1_555 1_555
O1 Ni1 1_555 1_555
O2 Ni1 1_555 1_555
O3 C20 1_555 1_555
O4 C20 1_555 1_555
Ni1_2 N2 1_555 1_555
Ni1A O3 1_555 1_555
Ni1_3 O4 1_555 1_555
N2_2 Ni1 1_555 1_555
O3A Ni1 1_555 1_555
O4_2 Ni1 1_555 1_555
C5 N1 1_555 1_555
C11 C12 1_555 1_555
C11 N2 1_555 1_555
C13 O1 1_555 1_555
C13 O2 1_555 1_555
C18 C19 1_555 1_555

#END
