
#######################################################################
#
#                 Cambridge Crystallographic Data Centre
#                                CCDC 
#
#######################################################################
#
# If this CIF has been generated from an entry in the Cambridge 
# Structural Database, then it will include bibliographic, chemical, 
# crystal, experimental, refinement or atomic coordinate data resulting 
# from the CCDC's data processing and validation procedures.
#
#######################################################################

data_XAPHUT
_symmetry_cell_setting           triclinic
_symmetry_space_group_name_H-M   'P -1'
_symmetry_Int_Tables_number      2
_space_group_name_Hall           '-P 1'
loop_
_symmetry_equiv_pos_site_id
_symmetry_equiv_pos_as_xyz
1 x,y,z
2 -x,-y,-z
_cell_length_a                   9.9822(10)
_cell_length_b                   10.0564(10)
_cell_length_c                   10.1166(10)
_cell_angle_alpha                78.315(2)
_cell_angle_beta                 84.558(2)
_cell_angle_gamma                68.927(2)
_cell_volume                     927.729
loop_
_atom_site_label
_atom_site_type_symbol
_atom_site_fract_x
_atom_site_fract_y
_atom_site_fract_z
Ni1 Ni 0.45684(4) 0.35517(3) -0.12767(3)
O1 O 0.3524(2) 0.30276(19) -0.27524(19)
O2 O 0.5022(2) 0.13317(19) -0.13284(18)
O3 O 0.4094(2) -0.3333(2) -0.02112(18)
O4 O 0.3804(2) -0.42708(19) -0.19219(18)
N1 N 0.2888(3) 0.3531(3) 0.0153(2)
N2 N -0.3663(2) 0.3455(2) 0.7381(2)
C1 C 0.3835(3) 0.0565(3) -0.2792(3)
C2 C 0.3979(3) -0.0739(3) -0.1929(3)
H1 H 0.4242 -0.0874 -0.1041
C3 C 0.3734(3) -0.1849(3) -0.2381(3)
C4 C 0.3340(3) -0.1628(3) -0.3712(3)
H2 H 0.3184 -0.2366 -0.4028
C5 C 0.3177(3) -0.0327(3) -0.4569(3)
H3 H 0.2910 -0.0190 -0.5456
C6 C 0.3411(3) 0.0777(3) -0.4103(3)
H4 H 0.3282 0.1661 -0.4675
C7 C 0.4144(3) 0.1715(3) -0.2270(3)
C8 C 0.3906(3) -0.3258(3) -0.1428(3)
C9 C 0.2584(4) 0.2340(4) 0.0677(4)
H5 H 0.3130 0.1482 0.0382
C10 C 0.1513(4) 0.2308(5) 0.1623(4)
H6 H 0.1352 0.1444 0.1951
C11 C 0.0671(4) 0.3555(5) 0.2093(3)
C12 C 0.0998(4) 0.4760(5) 0.1574(4)
H7 H 0.0477 0.5630 0.1859
C13 C 0.2094(4) 0.4703(4) 0.0629(4)
H8 H 0.2288 0.5551 0.0304
C14 C -0.0531(4) 0.3572(6) 0.3108(4)
H9 H -0.1251 0.4538 0.2968
H10 H -0.0975 0.2914 0.2930
C15 C -0.0132(4) 0.3176(5) 0.4515(3)
H11 H 0.0360 0.3799 0.4681
H12 H 0.0546 0.2190 0.4668
C16 C -0.1351(3) 0.3275(4) 0.5527(3)
C17 C -0.2622(3) 0.4454(4) 0.5379(3)
H13 H -0.2723 0.5216 0.4656
C18 C -0.3738(3) 0.4497(3) 0.6303(3)
H14 H -0.4585 0.5292 0.6171
C19 C -0.2424(3) 0.2337(3) 0.7542(3)
H15 H -0.2334 0.1608 0.8296
C20 C -0.1277(3) 0.2209(4) 0.6648(3)
H16 H -0.0444 0.1399 0.6800
Ni1A Ni 0.54316(4) -0.35517(3) 0.12767(3)
Ni1_2 Ni 0.45684(4) -0.64483(3) -0.12767(3)
Ni1_3 Ni -0.54316(4) 0.35517(3) 0.87233(3)
O3A O 0.5906(2) 0.3333(2) 0.02112(18)
O4_2 O 0.3804(2) 0.57292(19) -0.19219(18)
N2_2 N 0.6337(2) 0.3455(2) -0.2619(2)
loop_
_geom_bond_atom_site_label_1
_geom_bond_atom_site_label_2
_geom_bond_site_symmetry_1
_geom_bond_site_symmetry_2
Ni1 O1 1_555 1_555
O1 C7 1_555 1_555
O2 Ni1 1_555 1_555
O3 C8 1_555 1_555
O4 C8 1_555 1_555
N1 Ni1 1_555 1_555
N2 C18 1_555 1_555
C1 C2 1_555 1_555
C2 H1 1_555 1_555
C3 C2 1_555 1_555
C4 C3 1_555 1_555
H2 C4 1_555 1_555
C5 C4 1_555 1_555
H3 C5 1_555 1_555
C6 C1 1_555 1_555
H4 C6 1_555 1_555
C7 O2 1_555 1_555
C8 C3 1_555 1_555
C9 N1 1_555 1_555
H5 C9 1_555 1_555
C10 C9 1_555 1_555
H6 C10 1_555 1_555
C11 C10 1_555 1_555
C12 C11 1_555 1_555
H7 C12 1_555 1_555
C13 N1 1_555 1_555
H8 C13 1_555 1_555
C14 C11 1_555 1_555
H9 C14 1_555 1_555
H10 C14 1_555 1_555
C15 C14 1_555 1_555
H11 C15 1_555 1_555
H12 C15 1_555 1_555
C16 C15 1_555 1_555
C17 C16 1_555 1_555
H13 C17 1_555 1_555
C18 C17 1_555 1_555
H14 C18 1_555 1_555
C19 N2 1_555 1_555
H15 C19 1_555 1_555
C20 C16 1_555 1_555
H16 C20 1_555 1_555
Ni1A O3 1_555 1_555
Ni1_2 O4 1_555 1_555
Ni1_3 N2 1_555 1_555
O3A Ni1 1_555 1_555
O4_2 Ni1 1_555 1_555
N2_2 Ni1 1_555 1_555
C1 C7 1_555 1_555
C5 C6 1_555 1_555
C12 C13 1_555 1_555
C19 C20 1_555 1_555

#END
