
#######################################################################
#
#                 Cambridge Crystallographic Data Centre
#                                CCDC 
#
#######################################################################
#
# If this CIF has been generated from an entry in the Cambridge 
# Structural Database, then it will include bibliographic, chemical, 
# crystal, experimental, refinement or atomic coordinate data resulting 
# from the CCDC's data processing and validation procedures.
#
#######################################################################

data_XAPHON
_symmetry_cell_setting           monoclinic
_symmetry_space_group_name_H-M   'C c'
_symmetry_Int_Tables_number      9
_space_group_name_Hall           'C -2yc'
loop_
_symmetry_equiv_pos_site_id
_symmetry_equiv_pos_as_xyz
1 x,y,z
2 x,-y,1/2+z
3 1/2+x,1/2+y,z
4 1/2+x,1/2-y,1/2+z
_cell_length_a                   15.932(2)
_cell_length_b                   11.3128(15)
_cell_length_c                   16.217(2)
_cell_angle_alpha                90
_cell_angle_beta                 98.400(2)
_cell_angle_gamma                90
_cell_volume                     2891.52
loop_
_atom_site_label
_atom_site_type_symbol
_atom_site_fract_x
_atom_site_fract_y
_atom_site_fract_z
Ni1 Ni 0.42340(4) 0.40639(5) 0.05707(4)
Ni2 Ni 0.24355(4) 0.42339(5) -0.11618(4)
O1 O 0.6804(3) 0.4560(4) 0.1438(3)
O2 O 0.5508(3) 0.3948(3) 0.0946(3)
O3 O 0.4793(3) 0.3443(3) 0.3026(3)
O4 O 0.4066(3) 0.3868(3) 0.1783(2)
O5 O 0.3468(3) 0.5720(3) 0.3254(3)
O6 O 0.4505(3) 0.5995(3) 0.4349(3)
O7 O 0.2944(3) 0.4095(3) 0.0095(2)
O8 O 0.1570(3) 0.4169(3) -0.0290(3)
O9 O 0.1554(3) 0.4355(3) -0.2229(3)
H1 H 0.110(2) 0.420(4) -0.204(3)
H2 H 0.167(3) 0.382(4) -0.256(3)
N1 N 0.4194(4) 1.2202(4) 0.0517(4)
N2 N 0.4197(5) 0.5920(3) 0.0529(4)
N3 N 0.2389(4) 0.2365(4) -0.1251(4)
N4 N 0.2439(4) -0.3907(3) -0.1108(4)
C1 C 0.5685(4) 0.5557(5) 0.1927(4)
C2 C 0.5059(4) 0.5291(5) 0.2429(4)
C3 C 0.4856(4) 0.6145(5) 0.2996(4)
C4 C 0.5219(4) 0.7264(5) 0.2996(4)
H7 H 0.5074 0.7846 0.3374
C5 C 0.5783(4) 0.7545(5) 0.2461(4)
H8 H 0.6001 0.8325 0.2444
C6 C 0.6028(4) 0.6682(5) 0.1951(4)
H9 H 0.6444 0.6861 0.1606
C7 C 0.6020(4) 0.4623(5) 0.1385(4)
C8 C 0.4615(4) 0.4096(5) 0.2409(4)
C9 C 0.4229(4) 0.5910(4) 0.3589(4)
C10 C 0.2054(4) 0.4182(5) 0.1174(4)
H10 H 0.1957 0.3382 0.1370
H11 H 0.1558 0.4675 0.1220
H12 H 0.2555 0.4522 0.1515
C11 C 0.2195(5) 0.4134(4) 0.0297(4)
C12 C 0.3586(5) 1.1585(5) 0.0803(4)
H13 H 0.3146 1.2011 0.1007
C13 C 0.3552(4) 1.0356(5) 0.0822(4)
H14 H 0.3099 0.9960 0.1027
C14 C 0.4205(5) 0.9718(4) 0.0532(5)
C15 C 0.4834(4) 1.0358(5) 0.0220(4)
H15 H 0.5281 0.9960 0.0007
C16 C 0.4803(4) 1.1581(5) 0.0222(4)
H16 H 0.5236 1.2004 0.0003
C17 C 0.4201(5) 0.8407(4) 0.0533(5)
C18 C 0.3803(4) 0.7755(5) 0.1092(4)
H17 H 0.3523 0.8151 0.1492
C19 C 0.3813(4) 0.6537(5) 0.1070(4)
H18 H 0.3533 0.6115 0.1457
C20 C 0.4566(5) 0.6533(5) -0.0027(4)
H19 H 0.4828 0.6112 -0.0428
C21 C 0.4581(4) 0.7759(5) -0.0040(4)
H20 H 0.4853 0.8158 -0.0443
C22 C 0.1756(5) 0.1759(5) -0.1010(5)
H21 H 0.1293 0.2189 -0.0853
C23 C 0.1728(5) 0.0535(5) -0.0973(4)
H22 H 0.1256 0.0145 -0.0799
C24 C 0.2404(6) -0.0111(4) -0.1194(5)
C25 C 0.3050(5) 0.0507(5) -0.1474(5)
H23 H 0.3511 0.0100 -0.1656
C26 C 0.3021(5) 0.1719(5) -0.1487(5)
H24 H 0.3478 0.2129 -0.1674
C27 C 0.2419(5) -0.1427(4) -0.1150(5)
C28 C 0.2055(4) -0.2040(5) -0.0561(4)
H25 H 0.1794 -0.1628 -0.0156
C29 C 0.2073(4) -0.3268(5) -0.0563(4)
H26 H 0.1810 -0.3676 -0.0157
C30 C 0.2805(4) -0.3300(5) -0.1667(4)
H27 H 0.3078 -0.3731 -0.2055
C31 C 0.2808(4) -0.2084(5) -0.1712(4)
H28 H 0.3074 -0.1697 -0.2125
Ni1A Ni 0.42340(4) 0.59361(5) 0.55707(4)
Ni1_2 Ni 0.42340(4) 1.40639(5) 0.05707(4)
Ni2A Ni 0.24355(4) 0.57661(5) 0.38382(4)
Ni2_2 Ni 0.24355(4) -0.57661(5) -0.11618(4)
O5A O 0.3468(3) 0.4280(3) -0.1746(3)
O6A O 0.4505(3) 0.4005(3) -0.0651(3)
N1_2 N 0.4194(4) 0.2202(4) 0.0517(4)
N4_2 N 0.2439(4) 0.6093(3) -0.1108(4)
O10 O 0.1694(4) 0.7104(4) 0.1462(3)
H3 H 0.187(7) 0.781(3) 0.149(8)
H4 H 0.124(5) 0.705(9) 0.111(6)
O11 O -0.0155(4) 0.3915(4) -0.2196(4)
H5 H -0.027(7) 0.414(7) -0.2701(19)
H6 H -0.027(5) 0.318(2) -0.217(5)
loop_
_geom_bond_atom_site_label_1
_geom_bond_atom_site_label_2
_geom_bond_site_symmetry_1
_geom_bond_site_symmetry_2
Ni1 O2 1_555 1_555
Ni2 O7 1_555 1_555
O1 C7 1_555 1_555
O2 C7 1_555 1_555
O3 C8 1_555 1_555
O4 Ni1 1_555 1_555
O5 C9 1_555 1_555
O6 C9 1_555 1_555
O7 Ni1 1_555 1_555
O8 Ni2 1_555 1_555
O9 Ni2 1_555 1_555
H1 O9 1_555 1_555
H2 O9 1_555 1_555
O10 H3 1_555 1_555
H4 O10 1_555 1_555
O11 H5 1_555 1_555
H6 O11 1_555 1_555
N1 C12 1_555 1_555
N2 Ni1 1_555 1_555
N3 Ni2 1_555 1_555
N4 C29 1_555 1_555
C1 C2 1_555 1_555
C2 C3 1_555 1_555
C3 C4 1_555 1_555
C4 H7 1_555 1_555
C5 C4 1_555 1_555
H8 C5 1_555 1_555
C6 C1 1_555 1_555
H9 C6 1_555 1_555
C7 C1 1_555 1_555
C8 O4 1_555 1_555
C9 C3 1_555 1_555
C10 H10 1_555 1_555
H11 C10 1_555 1_555
H12 C10 1_555 1_555
C11 O7 1_555 1_555
C12 H13 1_555 1_555
C13 C12 1_555 1_555
H14 C13 1_555 1_555
C14 C13 1_555 1_555
C15 C14 1_555 1_555
H15 C15 1_555 1_555
C16 N1 1_555 1_555
H16 C16 1_555 1_555
C17 C14 1_555 1_555
C18 C17 1_555 1_555
H17 C18 1_555 1_555
C19 N2 1_555 1_555
H18 C19 1_555 1_555
C20 N2 1_555 1_555
H19 C20 1_555 1_555
C21 C17 1_555 1_555
H20 C21 1_555 1_555
C22 N3 1_555 1_555
H21 C22 1_555 1_555
C23 C22 1_555 1_555
H22 C23 1_555 1_555
C24 C23 1_555 1_555
C25 C24 1_555 1_555
H23 C25 1_555 1_555
C26 N3 1_555 1_555
H24 C26 1_555 1_555
C27 C24 1_555 1_555
C28 C27 1_555 1_555
H25 C28 1_555 1_555
C29 C28 1_555 1_555
H26 C29 1_555 1_555
C30 N4 1_555 1_555
H27 C30 1_555 1_555
C31 C27 1_555 1_555
H28 C31 1_555 1_555
Ni1A O6 1_555 1_555
Ni1_2 N1 1_555 1_555
Ni2A O5 1_555 1_555
Ni2_2 N4 1_555 1_555
O5A Ni2 1_555 1_555
O6A Ni1 1_555 1_555
N1_2 Ni1 1_555 1_555
N4_2 Ni2 1_555 1_555
O8 C11 1_555 1_555
C2 C8 1_555 1_555
C5 C6 1_555 1_555
C10 C11 1_555 1_555
C15 C16 1_555 1_555
C18 C19 1_555 1_555
C20 C21 1_555 1_555
C25 C26 1_555 1_555
C30 C31 1_555 1_555

#END
