
#######################################################################
#
#                 Cambridge Crystallographic Data Centre
#                                CCDC 
#
#######################################################################
#
# If this CIF has been generated from an entry in the Cambridge 
# Structural Database, then it will include bibliographic, chemical, 
# crystal, experimental, refinement or atomic coordinate data resulting 
# from the CCDC's data processing and validation procedures.
#
#######################################################################

data_XAPJIJ
_symmetry_cell_setting           monoclinic
_symmetry_space_group_name_H-M   'C 2/c'
_symmetry_Int_Tables_number      15
_space_group_name_Hall           '-C 2yn'
loop_
_symmetry_equiv_pos_site_id
_symmetry_equiv_pos_as_xyz
1 x,y,z
2 -x,y,1/2-z
3 1/2+x,1/2+y,z
4 1/2-x,1/2+y,1/2-z
5 -x,-y,-z
6 x,-y,1/2+z
7 1/2-x,1/2-y,-z
8 1/2+x,1/2-y,1/2+z
_cell_length_a                   12.3829(3)
_cell_length_b                   7.9124(2)
_cell_length_c                   11.0858(3)
_cell_angle_alpha                90
_cell_angle_beta                 114.788(2)
_cell_angle_gamma                90
_cell_volume                     986.096
loop_
_atom_site_label
_atom_site_type_symbol
_atom_site_fract_x
_atom_site_fract_y
_atom_site_fract_z
Ba1 Ba 0.289889(12) 0.290954(18) 0.816382(14)
P1 P 0.11166(6) 0.41692(8) 0.43878(6)
H1 H 0.023(2) 0.510(4) 0.384(3)
O1 O 0.17440(15) 0.4624(2) 0.58325(18)
O2 O 0.18157(15) 0.4241(2) 0.35624(18)
O3 O 0.05066(17) 0.2355(3) 0.4212(2)
H2 H 0.068(3) 0.193(4) 0.491(4)
C1 C 0.0105(2) 0.1395(3) 0.8240(2)
O4 O 0.11127(16) 0.1808(2) 0.90707(19)
O5 O -0.07895(15) 0.1052(2) 0.84750(18)
Ba1C Ba 0.210111(12) -0.209046(18) 0.683618(14)
Ba1C_2 Ba 0.210111(12) 0.790954(18) 0.683618(14)
Ba1E Ba 0.289889(12) 0.709046(18) 0.316382(14)
Ba1F Ba 0.210111(12) 0.209046(18) 0.183618(14)
Ba1G Ba -0.210111(12) 0.209046(18) 0.316382(14)
Ba1F_2 Ba 0.210111(12) 0.209046(18) 1.183618(14)
Ba1A Ba -0.289889(12) 0.290954(18) 0.683618(14)
Ba1B Ba -0.210111(12) -0.209046(18) 0.816382(14)
Ba1E_2 Ba 0.289889(12) -0.290954(18) 1.316382(14)
Ba1D Ba 0.710111(12) -0.290954(18) 1.183618(14)
P1C P 0.38834(6) -0.08308(8) 1.06122(6)
H1C H 0.477(2) 0.010(4) 1.116(3)
O1C O 0.32560(15) -0.0376(2) 0.91675(18)
O1_2 O 0.17440(15) -0.5376(2) 0.58325(18)
O2C O 0.31843(15) -0.0759(2) 1.14376(18)
O2E O 0.18157(15) 0.5759(2) 0.85624(18)
O2F O 0.31843(15) 0.0759(2) 0.64376(18)
O2E_2 O 0.18157(15) -0.4241(2) 0.85624(18)
O3C O 0.44934(17) -0.2645(3) 1.0788(2)
O3G O 0.55066(17) 0.2645(3) 0.9212(2)
O3D O -0.05066(17) -0.2355(3) 0.5788(2)
H2C H 0.432(3) -0.307(4) 1.009(4)
H2G H 0.568(3) 0.307(4) 0.991(4)
H2D H -0.068(3) -0.193(4) 0.509(4)
C1A C -0.0105(2) 0.1395(3) 0.6760(2)
O4A O -0.11127(16) 0.1808(2) 0.59293(19)
O4F O 0.38873(16) 0.3192(2) 1.09293(19)
O4C O 0.38873(16) -0.3192(2) 0.59293(19)
O4E O 0.11127(16) -0.1808(2) 0.40707(19)
O5A O 0.07895(15) 0.1052(2) 0.65250(18)
O5B O 0.42105(15) 0.6052(2) 0.84750(18)
O5B_2 O 0.42105(15) -0.3948(2) 0.84750(18)
loop_
_geom_bond_atom_site_label_1
_geom_bond_atom_site_label_2
_geom_bond_site_symmetry_1
_geom_bond_site_symmetry_2
Ba1 O1 1_555 1_555
P1 H1 1_555 1_555
O1 P1 1_555 1_555
O2 P1 1_555 1_555
O3 P1 1_555 1_555
H2 O3 1_555 1_555
C1 O4 1_555 1_555
O4 Ba1 1_555 1_555
O5 C1 1_555 1_555
Ba1C O1C 1_555 1_555
Ba1C_2 O1 1_555 1_555
Ba1E O2 1_555 1_555
Ba1F O2 1_555 1_555
Ba1G O3 1_555 1_555
Ba1F_2 O4 1_555 1_555
Ba1A O5 1_555 1_555
Ba1B O5 1_555 1_555
Ba1E_2 O2C 1_555 1_555
Ba1D O3C 1_555 1_555
P1C H1C 1_555 1_555
O1C Ba1 1_555 1_555
O1_2 Ba1C 1_555 1_555
O2C Ba1F_2 1_555 1_555
O2E Ba1 1_555 1_555
O2F Ba1 1_555 1_555
O2E_2 Ba1C 1_555 1_555
O3C P1C 1_555 1_555
O3G Ba1 1_555 1_555
O3D Ba1C 1_555 1_555
H2C O3C 1_555 1_555
H2G O3G 1_555 1_555
H2D O3D 1_555 1_555
C1A C1 1_555 1_555
O4A Ba1G 1_555 1_555
O4F Ba1 1_555 1_555
O4C Ba1C 1_555 1_555
O4E Ba1C 1_555 1_555
O5A Ba1 1_555 1_555
O5B Ba1 1_555 1_555
O5B_2 Ba1C 1_555 1_555
Ba1C O2F 1_555 1_555
Ba1C O5A 1_555 1_555
Ba1C_2 O2E 1_555 1_555
Ba1C_2 O5B 1_555 1_555
Ba1F_2 O4F 1_555 1_555
Ba1A O4A 1_555 1_555
P1C O1C 1_555 1_555
P1C O2C 1_555 1_555
C1A O4A 1_555 1_555
C1A O5A 1_555 1_555

#END
