
#######################################################################
#
#                 Cambridge Crystallographic Data Centre
#                                CCDC 
#
#######################################################################
#
# If this CIF has been generated from an entry in the Cambridge 
# Structural Database, then it will include bibliographic, chemical, 
# crystal, experimental, refinement or atomic coordinate data resulting 
# from the CCDC's data processing and validation procedures.
#
#######################################################################

data_XAPMUY
_symmetry_cell_setting           orthorhombic
_symmetry_space_group_name_H-M   'P b c a'
_symmetry_Int_Tables_number      61
_space_group_name_Hall           '-P 2ac 2ab'
loop_
_symmetry_equiv_pos_site_id
_symmetry_equiv_pos_as_xyz
1 x,y,z
2 1/2-x,-y,1/2+z
3 1/2+x,1/2-y,-z
4 -x,1/2+y,1/2-z
5 -x,-y,-z
6 1/2+x,y,1/2-z
7 1/2-x,1/2+y,z
8 x,1/2-y,1/2+z
_cell_length_a                   7.7846(4)
_cell_length_b                   10.2627(6)
_cell_length_c                   27.1240(16)
_cell_angle_alpha                90
_cell_angle_beta                 90
_cell_angle_gamma                90
_cell_volume                     2166.96
loop_
_atom_site_label
_atom_site_type_symbol
_atom_site_fract_x
_atom_site_fract_y
_atom_site_fract_z
Pb1 Pb -0.00573(2) 0.20130(2) 0.011568(8)
O1 O -0.1928(5) 0.3804(3) -0.03500(15)
O2 O -0.1828(5) 0.5941(4) -0.01856(14)
O3 O -0.1720(6) 0.7154(3) -0.43538(14)
O4 O -0.0287(5) 0.5301(5) -0.44277(17)
C1 C -0.1305(7) 0.5239(5) -0.1008(2)
C2 C -0.0670(8) 0.4268(5) -0.1309(2)
H1 H -0.0301 0.3490 -0.1168
C3 C -0.0568(8) 0.4421(6) -0.1812(2)
H2 H -0.0093 0.3760 -0.2003
C4 C -0.1165(7) 0.5556(5) -0.2043(2)
C5 C -0.1711(8) 0.6561(5) -0.1732(2)
H3 H -0.2042 0.7351 -0.1871
C6 C -0.1775(7) 0.6419(5) -0.1229(2)
H4 H -0.2134 0.7112 -0.1034
C7 C -0.1223(7) 0.5664(5) -0.2591(2)
C8 C -0.0387(8) 0.4759(6) -0.2890(2)
H5 H 0.0205 0.4071 -0.2745
C9 C -0.0422(8) 0.4868(6) -0.3404(2)
H6 H 0.0143 0.4254 -0.3598
C10 C -0.1295(7) 0.5884(5) -0.3626(2)
C11 C -0.2167(8) 0.6763(5) -0.3334(2)
H7 H -0.2778 0.7439 -0.3480
C12 C -0.2145(7) 0.6650(5) -0.2825(2)
H8 H -0.2758 0.7245 -0.2636
C13 C -0.1682(7) 0.4986(5) -0.04753(19)
C14 C -0.1136(7) 0.6106(5) -0.4170(2)
Pb1B Pb -0.50573(2) 0.29870(2) -0.011568(8)
Pb1D Pb 0.00573(2) 0.79870(2) -0.011568(8)
Pb1C Pb 0.00573(2) 0.70130(2) -0.511568(8)
Pb1G Pb -0.00573(2) 0.29870(2) -0.488432(8)
O1B O 0.3072(5) 0.1196(3) 0.03500(15)
O2D O 0.1828(5) 0.4059(4) 0.01856(14)
O3C O 0.1720(6) 0.2154(3) -0.06462(14)
O4G O -0.0287(5) -0.0301(5) 0.05723(17)
O4C O 0.0287(5) 0.0301(5) -0.05723(17)
loop_
_geom_bond_atom_site_label_1
_geom_bond_atom_site_label_2
_geom_bond_site_symmetry_1
_geom_bond_site_symmetry_2
Pb1 O1 1_555 1_555
O1 C13 1_555 1_555
O2 C13 1_555 1_555
O3 C14 1_555 1_555
O4 C14 1_555 1_555
C1 C2 1_555 1_555
C2 H1 1_555 1_555
C3 C2 1_555 1_555
H2 C3 1_555 1_555
C4 C3 1_555 1_555
C5 C4 1_555 1_555
H3 C5 1_555 1_555
C6 C1 1_555 1_555
H4 C6 1_555 1_555
C7 C4 1_555 1_555
C8 C7 1_555 1_555
H5 C8 1_555 1_555
C9 C8 1_555 1_555
H6 C9 1_555 1_555
C10 C9 1_555 1_555
C11 C10 1_555 1_555
H7 C11 1_555 1_555
C12 C7 1_555 1_555
H8 C12 1_555 1_555
C13 C1 1_555 1_555
C14 C10 1_555 1_555
Pb1B O1 1_555 1_555
Pb1D O2 1_555 1_555
Pb1C O3 1_555 1_555
Pb1G O4 1_555 1_555
O1B Pb1 1_555 1_555
O2D Pb1 1_555 1_555
O3C Pb1 1_555 1_555
O4G Pb1 1_555 1_555
O4C Pb1 1_555 1_555
O4 Pb1C 1_555 1_555
C5 C6 1_555 1_555
C11 C12 1_555 1_555

#END
