
#######################################################################
#
#                 Cambridge Crystallographic Data Centre
#                                CCDC 
#
#######################################################################
#
# If this CIF has been generated from an entry in the Cambridge 
# Structural Database, then it will include bibliographic, chemical, 
# crystal, experimental, refinement or atomic coordinate data resulting 
# from the CCDC's data processing and validation procedures.
#
#######################################################################

data_XAPNUZ
_symmetry_cell_setting           orthorhombic
_symmetry_space_group_name_H-M   'P b c a'
_symmetry_Int_Tables_number      61
_space_group_name_Hall           '-P 2ac 2ab'
loop_
_symmetry_equiv_pos_site_id
_symmetry_equiv_pos_as_xyz
1 x,y,z
2 1/2-x,-y,1/2+z
3 -x,1/2+y,1/2-z
4 1/2+x,1/2-y,-z
5 -x,-y,-z
6 1/2+x,y,1/2-z
7 x,1/2-y,1/2+z
8 1/2-x,1/2+y,z
_cell_length_a                   15.4407(14)
_cell_length_b                   9.1548(7)
_cell_length_c                   27.934(2)
_cell_angle_alpha                90
_cell_angle_beta                 90
_cell_angle_gamma                90
_cell_volume                     3948.65
loop_
_atom_site_label
_atom_site_type_symbol
_atom_site_fract_x
_atom_site_fract_y
_atom_site_fract_z
O1 O 0.7611(3) 0.1183(6) 0.21153(18)
O2 O 0.6603(3) 0.2513(5) 0.18144(16)
N1 N 0.7809(3) -0.0342(5) 0.35582(17)
N2 N 0.5508(3) -0.0063(5) 0.22870(18)
C1 C 0.7348(5) 0.1963(8) 0.1789(3)
Zn1 Zn 0.63309(4) 0.15812(6) 0.24697(2)
Zn2 Zn 0.87873(4) -0.17306(6) 0.37353(2)
N3 N 0.4449(3) -0.1724(5) 0.23090(17)
N4 N 0.4615(3) -0.1397(5) 0.18346(16)
O3 O 1.0402(3) 0.3736(4) 0.07572(14)
C2 C 0.7313(4) 0.0535(6) 0.3829(2)
H1 H 0.7349 0.0586 0.4161
C3 C 0.8619(4) 0.1304(6) 0.1249(2)
H2 H 0.8806 0.0633 0.1477
N5 N 0.6910(3) 0.0931(5) 0.30931(17)
C4 C 1.0738(4) 0.3070(7) 0.0403(2)
N6 N 0.6765(3) 0.1321(4) 0.35680(17)
C5 C 0.8113(4) 0.3305(6) 0.0573(2)
H3 H 0.7942 0.3998 0.0349
C6 C 0.8829(4) 0.2428(5) 0.0473(2)
C7 C 0.8818(4) 0.2295(6) -0.0416(2)
H4 H 0.8224 0.2132 -0.0397
C8 C 1.0192(4) 0.2778(5) -0.0037(2)
C9 C 0.7542(4) -0.0056(6) 0.3111(2)
H5 H 0.7775 -0.0502 0.2842
O4 O 1.1505(3) 0.2632(5) 0.04138(16)
C10 C 1.0580(4) 0.2744(6) -0.0483(2)
H6 H 1.1174 0.2891 -0.0507
C11 C 0.7652(4) 0.3178(6) 0.0992(2)
H7 H 0.7174 0.3778 0.1042
C12 C 0.9063(4) 0.1438(6) 0.0826(2)
H8 H 0.9541 0.0840 0.0773
C13 C 0.7887(4) 0.2165(6) 0.1344(2)
C14 C 0.9219(4) 0.2296(6) -0.0858(2)
H9 H 0.8890 0.2162 -0.1134
C15 C 0.4979(4) -0.0905(6) 0.2553(2)
H10 H 0.4992 -0.0902 0.2886
C16 C 0.5255(4) -0.0419(6) 0.1842(2)
H11 H 0.5501 -0.0023 0.1567
C17 C 1.0105(4) 0.2495(6) -0.0898(2)
H12 H 1.0376 0.2463 -0.1195
C18 C 0.9297(4) 0.2538(5) 0.0008(2)
Zn1B Zn 0.36691(4) -0.34188(6) 0.25303(2)
Zn2E Zn 0.37873(4) -0.17306(6) 0.12647(2)
Zn2B Zn 1.12127(4) 0.32694(6) 0.12647(2)
Zn2G Zn 0.62127(4) 0.32694(6) 0.37353(2)
N3B N 0.5551(3) 0.3276(5) 0.26910(17)
N4E N 0.9615(3) -0.1397(5) 0.31654(16)
O3B O 0.9598(3) -0.1264(4) 0.42428(14)
N6G N 0.8235(3) -0.3679(4) 0.35680(17)
O4B O 0.8495(3) -0.2368(5) 0.45862(16)
loop_
_geom_bond_atom_site_label_1
_geom_bond_atom_site_label_2
_geom_bond_site_symmetry_1
_geom_bond_site_symmetry_2
O1 C1 1_555 1_555
O2 C1 1_555 1_555
N1 Zn2 1_555 1_555
N2 Zn1 1_555 1_555
C1 C13 1_555 1_555
Zn1 O1 1_555 1_555
Zn2 N4E 1_555 1_555
N3 N4 1_555 1_555
N4 C16 1_555 1_555
O3 C4 1_555 1_555
C2 N1 1_555 1_555
H1 C2 1_555 1_555
C3 H2 1_555 1_555
N5 Zn1 1_555 1_555
C4 C8 1_555 1_555
N6 C2 1_555 1_555
C5 H3 1_555 1_555
C6 C5 1_555 1_555
C7 H4 1_555 1_555
C8 C10 1_555 1_555
C9 N1 1_555 1_555
H5 C9 1_555 1_555
O4 C4 1_555 1_555
C10 H6 1_555 1_555
C11 C5 1_555 1_555
H7 C11 1_555 1_555
C12 C3 1_555 1_555
H8 C12 1_555 1_555
C13 C3 1_555 1_555
C14 C7 1_555 1_555
H9 C14 1_555 1_555
C15 N2 1_555 1_555
H10 C15 1_555 1_555
C16 N2 1_555 1_555
H11 C16 1_555 1_555
C17 C10 1_555 1_555
H12 C17 1_555 1_555
C18 C6 1_555 1_555
Zn1B N3 1_555 1_555
Zn2E N4 1_555 1_555
Zn2B O3 1_555 1_555
Zn2G N6 1_555 1_555
N3B Zn1 1_555 1_555
O3B Zn2 1_555 1_555
N6G Zn2 1_555 1_555
O4B Zn2 1_555 1_555
O2 Zn1 1_555 1_555
N3 C15 1_555 1_555
N5 N6 1_555 1_555
N5 C9 1_555 1_555
C6 C12 1_555 1_555
C7 C18 1_555 1_555
C8 C18 1_555 1_555
O4 Zn2B 1_555 1_555
C11 C13 1_555 1_555
C14 C17 1_555 1_555

#END
