
#######################################################################
#
#                 Cambridge Crystallographic Data Centre
#                                CCDC 
#
#######################################################################
#
# If this CIF has been generated from an entry in the Cambridge 
# Structural Database, then it will include bibliographic, chemical, 
# crystal, experimental, refinement or atomic coordinate data resulting 
# from the CCDC's data processing and validation procedures.
#
#######################################################################

data_XAPNEH
_symmetry_cell_setting           triclinic
_symmetry_space_group_name_H-M   'P -1'
_symmetry_Int_Tables_number      2
_space_group_name_Hall           '-P 1'
loop_
_symmetry_equiv_pos_site_id
_symmetry_equiv_pos_as_xyz
1 x,y,z
2 -x,-y,-z
_cell_length_a                   9.269(2)
_cell_length_b                   9.635(3)
_cell_length_c                   18.860(4)
_cell_angle_alpha                80.52(2)
_cell_angle_beta                 83.65(2)
_cell_angle_gamma                62.81(2)
_cell_volume                     1476.54
loop_
_atom_site_label
_atom_site_type_symbol
_atom_site_fract_x
_atom_site_fract_y
_atom_site_fract_z
Mn1 Mn -0.44035(7) -0.00267(7) -0.36450(3)
Mn2 Mn -0.42683(7) -0.56368(6) -0.13652(3)
N1 N -0.4201(4) 0.1490(4) -0.4649(2)
N2 N -0.4870(4) 0.1589(3) -0.5165(2)
N3 N -0.5537(4) 0.1729(4) -0.5681(2)
N4 N -0.4728(5) -0.1487(4) -0.2675(2)
N5 N -0.4348(4) -0.2822(4) -0.2507(2)
N6 N -0.3980(5) -0.4146(4) -0.2335(2)
N7 N -0.4310(6) -0.8426(5) -0.2987(2)
N8 N -0.4369(4) -0.7809(4) -0.2508(2)
N9 N -0.4441(6) -0.7203(5) -0.2026(2)
N10 N -0.4116(4) -0.3957(4) -0.0702(2)
N11 N -0.4776(4) -0.3453(3) -0.0170(2)
N12 N -0.5429(4) -0.2908(4) 0.0359(2)
N13 N -0.7164(4) 0.1319(4) -0.3736(2)
C1 C -0.8140(5) 0.0627(5) -0.3560(3)
H1 H -0.7671(5) -0.0444(5) -0.3395(3)
C2 C -0.9812(5) 0.1417(5) -0.3609(3)
H2 H -1.0439(5) 0.0881(5) -0.3478(3)
C3 C -1.0540(5) 0.3014(5) -0.3854(2)
C4 C -0.9543(5) 0.3717(5) -0.4039(2)
H3 H -0.9979(5) 0.4784(5) -0.4211(2)
C5 C -0.7901(5) 0.2855(5) -0.3974(2)
H4 H -0.7257(5) 0.3372(5) -0.4104(2)
C6 C -1.2359(5) 0.3922(6) -0.3918(3)
H5 H -1.2875(6) 0.4013(33) -0.3447(3)
H6 H -1.2730(7) 0.3377(20) -0.4178(15)
H7 H -1.2626(6) 0.4953(14) -0.4172(15)
N14 N -0.1655(4) -0.1496(4) -0.3685(2)
C7 C -0.0750(5) -0.1462(5) -0.4280(2)
H8 H -0.1274(5) -0.0845(5) -0.4694(2)
C8 C 0.0909(5) -0.2282(5) -0.4320(2)
H9 H 0.1474(5) -0.2187(5) -0.4750(2)
C9 C 0.1745(5) -0.3244(5) -0.3732(2)
C10 C 0.0821(5) -0.3321(6) -0.3117(2)
H10 H 0.1322(5) -0.3962(6) -0.2704(2)
C11 C -0.0842(5) -0.2454(6) -0.3111(2)
H11 H -0.1433(5) -0.2535(6) -0.2688(2)
C12 C 0.3569(5) -0.4147(5) -0.3755(3)
H12 H 0.3893(5) -0.5096(18) -0.3423(12)
H13 H 0.4026(5) -0.3513(14) -0.3625(16)
H14 H 0.3950(6) -0.4406(30) -0.4233(5)
N15 N -0.7043(4) -0.4132(4) -0.1306(2)
C13 C -0.8042(5) -0.4786(5) -0.1087(2)
H15 H -0.7587(5) -0.5871(5) -0.0958(2)
C14 C -0.9709(5) -0.3943(5) -0.1040(2)
H16 H -1.0346(5) -0.4457(5) -0.0879(2)
C15 C -1.0430(5) -0.2326(5) -0.1232(2)
C16 C -0.9398(5) -0.1660(5) -0.1454(3)
H17 H -0.9818(5) -0.0578(5) -0.1586(3)
C17 C -0.7753(5) -0.2583(5) -0.1482(2)
H18 H -0.7091(5) -0.2091(5) -0.1634(2)
C18 C -1.2256(5) -0.1360(6) -0.1196(3)
H19 H -1.2699(6) -0.1737(24) -0.0767(9)
H20 H -1.2707(6) -0.1454(30) -0.1610(9)
H21 H -1.2519(5) -0.0276(8) -0.1188(17)
N16 N -0.1531(4) -0.6991(4) -0.1293(2)
C19 C -0.0501(5) -0.7036(5) -0.1846(2)
H22 H -0.0927(5) -0.6519(5) -0.2291(2)
C20 C 0.1168(5) -0.7809(5) -0.1800(2)
H23 H 0.1824(5) -0.7786(5) -0.2208(2)
C21 C 0.1867(5) -0.8607(5) -0.1162(2)
C22 C 0.0805(5) -0.8585(5) -0.0591(2)
H24 H 0.1206(5) -0.9135(5) -0.0146(2)
C23 C -0.0844(5) -0.7759(5) -0.0669(2)
H25 H -0.1521(5) -0.7735(5) -0.0264(2)
C24 C 0.3659(5) -0.9475(5) -0.1093(3)
H26 H 0.4159(5) -0.9903(27) -0.1531(6)
H27 H 0.3910(5) -1.0315(20) -0.0702(10)
H28 H 0.4063(6) -0.8768(9) -0.1001(15)
N3A N -0.4463(4) -0.1729(4) -0.4319(2)
Mn1A Mn -0.55965(7) 0.00267(7) -0.63550(3)
N7_2 N -0.4310(6) 0.1574(5) -0.2987(2)
Mn1_2 Mn -0.44035(7) -1.00267(7) -0.36450(3)
N12A N -0.4571(4) -0.7092(4) -0.0359(2)
Mn2A Mn -0.57317(7) -0.43632(6) 0.13652(3)
loop_
_geom_bond_atom_site_label_1
_geom_bond_atom_site_label_2
_geom_bond_site_symmetry_1
_geom_bond_site_symmetry_2
Mn1 N1 1_555 1_555
Mn2 N6 1_555 1_555
N1 N2 1_555 1_555
N2 N3 1_555 1_555
N3 Mn1A 1_555 1_555
N4 Mn1 1_555 1_555
N5 N4 1_555 1_555
N6 N5 1_555 1_555
N7 N8 1_555 1_555
N8 N9 1_555 1_555
N9 Mn2 1_555 1_555
N10 Mn2 1_555 1_555
N11 N10 1_555 1_555
N12 N11 1_555 1_555
N13 Mn1 1_555 1_555
C1 N13 1_555 1_555
H1 C1 1_555 1_555
C2 C1 1_555 1_555
H2 C2 1_555 1_555
C3 C2 1_555 1_555
C4 C3 1_555 1_555
H3 C4 1_555 1_555
C5 N13 1_555 1_555
H4 C5 1_555 1_555
C6 C3 1_555 1_555
H5 C6 1_555 1_555
H6 C6 1_555 1_555
H7 C6 1_555 1_555
N14 Mn1 1_555 1_555
C7 N14 1_555 1_555
H8 C7 1_555 1_555
C8 C7 1_555 1_555
H9 C8 1_555 1_555
C9 C8 1_555 1_555
C10 C9 1_555 1_555
H10 C10 1_555 1_555
C11 N14 1_555 1_555
H11 C11 1_555 1_555
C12 C9 1_555 1_555
H12 C12 1_555 1_555
H13 C12 1_555 1_555
H14 C12 1_555 1_555
N15 Mn2 1_555 1_555
C13 N15 1_555 1_555
H15 C13 1_555 1_555
C14 C13 1_555 1_555
H16 C14 1_555 1_555
C15 C14 1_555 1_555
C16 C15 1_555 1_555
H17 C16 1_555 1_555
C17 N15 1_555 1_555
H18 C17 1_555 1_555
C18 C15 1_555 1_555
H19 C18 1_555 1_555
H20 C18 1_555 1_555
H21 C18 1_555 1_555
N16 Mn2 1_555 1_555
C19 N16 1_555 1_555
H22 C19 1_555 1_555
C20 C19 1_555 1_555
H23 C20 1_555 1_555
C21 C20 1_555 1_555
C22 C21 1_555 1_555
H24 C22 1_555 1_555
C23 N16 1_555 1_555
H25 C23 1_555 1_555
C24 C21 1_555 1_555
H26 C24 1_555 1_555
H27 C24 1_555 1_555
H28 C24 1_555 1_555
N3A Mn1 1_555 1_555
N7_2 Mn1 1_555 1_555
Mn1_2 N7 1_555 1_555
N12A Mn2 1_555 1_555
Mn2A N12 1_555 1_555
C4 C5 1_555 1_555
C10 C11 1_555 1_555
C16 C17 1_555 1_555
C22 C23 1_555 1_555

#END
