
#######################################################################
#
#                 Cambridge Crystallographic Data Centre
#                                CCDC 
#
#######################################################################
#
# If this CIF has been generated from an entry in the Cambridge 
# Structural Database, then it will include bibliographic, chemical, 
# crystal, experimental, refinement or atomic coordinate data resulting 
# from the CCDC's data processing and validation procedures.
#
#######################################################################

data_XAPPEL
_symmetry_cell_setting           triclinic
_symmetry_space_group_name_H-M   'P -1'
_symmetry_Int_Tables_number      2
_space_group_name_Hall           '-P 1'
loop_
_symmetry_equiv_pos_site_id
_symmetry_equiv_pos_as_xyz
1 x,y,z
2 -x,-y,-z
_cell_length_a                   9.5755(19)
_cell_length_b                   10.066(2)
_cell_length_c                   19.233(4)
_cell_angle_alpha                78.790(7)
_cell_angle_beta                 75.954(7)
_cell_angle_gamma                77.907(7)
_cell_volume                     1738.22
loop_
_atom_site_label
_atom_site_type_symbol
_atom_site_fract_x
_atom_site_fract_y
_atom_site_fract_z
Zn1 Zn 1.27402(5) 0.04060(5) -0.09121(3)
Zn2 Zn 0.5000 0.5000 0.5000
S1 S 0.87227(13) -0.14566(12) -0.37210(6)
O1 O 0.5537(4) 0.0942(5) -0.08036(19)
O2 O 1.2998(4) -0.1203(4) -0.01484(18)
H1 H 1.3380 -0.1696 -0.0247
H2 H 1.3785 -0.1144 0.0013
O3 O 0.4554(3) 0.0447(4) -0.16263(18)
O4 O 1.1026(3) 0.0328(4) -0.12629(18)
O5 O 1.2271(3) -0.1191(4) -0.1984(2)
O6 O 0.7940(4) -0.0309(4) -0.41339(19)
O7 O 1.0258(4) -0.1780(4) -0.40304(19)
O8 O 0.7989(4) -0.2641(4) -0.3524(2)
O9 O 0.5575(6) 0.6629(5) 0.5397(3)
O10 O 0.6656(5) 0.3488(5) 0.5377(3)
N1 N 1.1813(4) 0.1854(4) -0.0257(2)
N2 N 0.6405(4) 0.5426(4) 0.3979(2)
N3 N 0.5038(7) 0.8172(7) 0.6174(3)
H3 H 0.5585 0.7705 0.6462
N4 N 0.3855(7) 0.8601(8) 0.5329(3)
H4 H 0.3611 0.8508 0.4942
N5 N 0.8788(10) 0.2503(7) 0.5769(4)
H5 H 0.8784 0.1651 0.5764
N6 N 0.7998(10) 0.4596(9) 0.5711(5)
H6 H 0.7459 0.5374 0.5606
C1 C 0.7141(5) 0.0098(5) -0.1838(2)
C2 C 0.8401(5) 0.0119(5) -0.1609(2)
H9 H 0.8333 0.0482 -0.1190
C3 C 0.9765(4) -0.0398(4) -0.1999(2)
C4 C 0.9856(4) -0.0914(5) -0.2633(2)
H10 H 1.0764 -0.1277 -0.2892
C5 C 0.8614(5) -0.0893(5) -0.2882(2)
C6 C 0.7243(5) -0.0407(5) -0.2479(2)
H11 H 0.6402 -0.0420 -0.2636
C7 C 0.5657(5) 0.0534(5) -0.1386(2)
C8 C 1.1146(5) -0.0450(5) -0.1743(2)
C9 C 1.2555(5) 0.2468(6) 0.0062(3)
H12 H 1.3571 0.2295 -0.0058
C10 C 1.1875(6) 0.3344(6) 0.0557(3)
H13 H 1.2431 0.3747 0.0765
C11 C 1.0370(5) 0.3625(5) 0.0747(2)
C12 C 0.9604(5) 0.2996(5) 0.0415(2)
H14 H 0.8588 0.3164 0.0523
C13 C 1.0340(5) 0.2128(5) -0.0071(3)
H15 H 0.9804 0.1709 -0.0282
C14 C 0.9530(6) 0.4565(6) 0.1284(3)
H16 H 0.8946 0.4035 0.1682
H17 H 0.8860 0.5267 0.1050
C15 C 1.0434(6) 0.5269(5) 0.1596(3)
H18 H 1.1163 0.5644 0.1205
H19 H 1.0944 0.4593 0.1923
C16 C 0.9521(7) 0.6425(6) 0.2006(3)
H20 H 1.0183 0.6877 0.2150
H21 H 0.9025 0.7097 0.1671
C17 C 0.7554(6) 0.4490(5) 0.3736(3)
H22 H 0.7688 0.3624 0.4013
C18 C 0.8541(6) 0.4754(5) 0.3098(3)
H23 H 0.9317 0.4071 0.2950
C19 C 0.8386(6) 0.6027(5) 0.2674(3)
C20 C 0.7176(7) 0.6981(6) 0.2912(3)
H24 H 0.6997 0.7843 0.2636
C21 C 0.6246(7) 0.6643(6) 0.3556(3)
H25 H 0.5451 0.7305 0.3710
C22 C 0.9947(10) 0.3038(13) 0.5963(8)
H26 H 1.0177 0.2557 0.6420
H27 H 1.0830 0.3000 0.5586
C23 C 0.9210(13) 0.4434(9) 0.6016(7)
H28 H 0.8912 0.4579 0.6519
H29 H 0.9846 0.5082 0.5753
C24 C 0.7795(7) 0.3501(10) 0.5611(4)
C25 C 0.4849(7) 0.7734(6) 0.5654(5)
C26 C 0.4301(8) 0.9463(8) 0.6248(4)
H30 H 0.4967 1.0120 0.6108
H31 H 0.3787 0.9508 0.6746
C27 C 0.3242(6) 0.9754(7) 0.5754(5)
H32 H 0.2251 0.9703 0.6021
H33 H 0.3269 1.0642 0.5450
Zn1A Zn -0.27402(5) 0.95940(5) 1.09121(3)
Zn1_2 Zn 0.27402(5) 0.04060(5) -0.09121(3)
Zn1_3 Zn 2.27402(5) 0.04060(5) -0.09121(3)
S1_2 S 1.87227(13) -0.14566(12) -0.37210(6)
O1_2 O 1.5537(4) 0.0942(5) -0.08036(19)
O2A O -0.2998(4) 1.1203(4) 1.01484(18)
H1A H -0.3380 1.1696 1.0247
H2A H -0.3785 1.1144 0.9987
O3_2 O 1.4554(3) 0.0447(4) -0.16263(18)
O3A O -0.4554(3) 0.9553(4) 1.16263(18)
O4_2 O 2.1026(3) 0.0328(4) -0.12629(18)
O4A O -0.1026(3) 0.9672(4) 1.12629(18)
O5_2 O 2.2271(3) -0.1191(4) -0.1984(2)
O6_2 O 1.7940(4) -0.0309(4) -0.41339(19)
O7_2 O 2.0258(4) -0.1780(4) -0.40304(19)
O8_2 O 1.7989(4) -0.2641(4) -0.3524(2)
O9A O 0.4425(6) 0.3371(5) 0.4603(3)
O10A O 0.3344(5) 0.6512(5) 0.4623(3)
N1A N -0.1813(4) 0.8146(4) 1.0257(2)
N2A N 0.3595(4) 0.4574(4) 0.6021(2)
N3A N 0.4962(7) 0.1828(7) 0.3826(3)
H3A H 0.4415 0.2295 0.3538
N4A N 0.6145(7) 0.1399(8) 0.4671(3)
H4A H 0.6389 0.1492 0.5058
N5A N 0.1212(10) 0.7497(7) 0.4231(4)
H5A H 0.1216 0.8349 0.4236
N6A N 0.2002(10) 0.5404(9) 0.4289(5)
H6A H 0.2541 0.4626 0.4394
C1_2 C 1.7141(5) 0.0098(5) -0.1838(2)
C2_2 C 1.8401(5) 0.0119(5) -0.1609(2)
H9_2 H 1.8333 0.0482 -0.1190
C3_2 C 1.9765(4) -0.0398(4) -0.1999(2)
C4_2 C 1.9856(4) -0.0914(5) -0.2633(2)
H10_2 H 2.0764 -0.1277 -0.2892
C5_2 C 1.8614(5) -0.0893(5) -0.2882(2)
C6_2 C 1.7243(5) -0.0407(5) -0.2479(2)
H11_2 H 1.6402 -0.0420 -0.2636
C7_2 C 1.5657(5) 0.0534(5) -0.1386(2)
C8_2 C 2.1146(5) -0.0450(5) -0.1743(2)
C9A C -0.2555(5) 0.7532(6) 0.9938(3)
H12A H -0.3571 0.7705 1.0058
C10A C -0.1875(6) 0.6656(6) 0.9443(3)
H13A H -0.2431 0.6253 0.9235
C11A C -0.0370(5) 0.6375(5) 0.9253(2)
C12A C 0.0396(5) 0.7004(5) 0.9585(2)
H14A H 0.1412 0.6836 0.9477
C13A C -0.0340(5) 0.7872(5) 1.0071(3)
H15A H 0.0196 0.8291 1.0282
C14A C 0.0470(6) 0.5435(6) 0.8716(3)
H16A H 0.1054 0.5965 0.8318
H17A H 0.1140 0.4733 0.8950
C15A C -0.0434(6) 0.4731(5) 0.8404(3)
H18A H -0.1163 0.4356 0.8795
H19A H -0.0944 0.5407 0.8077
C16A C 0.0479(7) 0.3575(6) 0.7994(3)
H20A H -0.0183 0.3123 0.7850
H21A H 0.0975 0.2903 0.8329
C17A C 0.2446(6) 0.5510(5) 0.6264(3)
H22A H 0.2312 0.6376 0.5987
C18A C 0.1459(6) 0.5246(5) 0.6902(3)
H23A H 0.0683 0.5929 0.7050
C19A C 0.1614(6) 0.3973(5) 0.7326(3)
C20A C 0.2824(7) 0.3019(6) 0.7088(3)
H24A H 0.3003 0.2157 0.7364
C21A C 0.3754(7) 0.3357(6) 0.6444(3)
H25A H 0.4549 0.2695 0.6290
C22A C 0.0053(10) 0.6962(13) 0.4037(8)
H26A H -0.0177 0.7443 0.3580
H27A H -0.0830 0.7000 0.4414
C23A C 0.0790(13) 0.5566(9) 0.3984(7)
H28A H 0.1088 0.5421 0.3481
H29A H 0.0154 0.4918 0.4247
C24A C 0.2205(7) 0.6499(10) 0.4389(4)
C25A C 0.5151(7) 0.2266(6) 0.4346(5)
C26A C 0.5699(8) 0.0537(8) 0.3752(4)
H30A H 0.5033 -0.0120 0.3892
H31A H 0.6213 0.0492 0.3254
C27A C 0.6758(6) 0.0246(7) 0.4246(5)
H32A H 0.7749 0.0297 0.3979
H33A H 0.6731 -0.0642 0.4550
O11 O 1.4314(6) -0.3554(5) -0.0494(3)
N7 N 1.4426(7) -0.3559(6) -0.1705(3)
H7 H 1.3892 -0.2773 -0.1798
N8 N 1.5494(7) -0.5345(5) -0.1090(3)
H8 H 1.5877 -0.5845 -0.0744
C28 C 1.4702(6) -0.4090(6) -0.1046(3)
C29 C 1.5631(9) -0.5759(8) -0.1771(4)
H34 H 1.5024 -0.6442 -0.1730
H35 H 1.6638 -0.6134 -0.1968
C30 C 1.5114(9) -0.4442(8) -0.2238(4)
H36 H 1.5927 -0.4083 -0.2577
H37 H 1.4425 -0.4574 -0.2504
loop_
_geom_bond_atom_site_label_1
_geom_bond_atom_site_label_2
_geom_bond_site_symmetry_1
_geom_bond_site_symmetry_2
Zn1 O2 1_555 1_555
Zn2 O9 1_555 1_555
S1 O6 1_555 1_555
O1 C7 1_555 1_555
O2 H1 1_555 1_555
H2 O2 1_555 1_555
O3 C7 1_555 1_555
O4 Zn1 1_555 1_555
O5 C8 1_555 1_555
O7 S1 1_555 1_555
O8 S1 1_555 1_555
O9 C25 1_555 1_555
O10 Zn2 1_555 1_555
O11 C28 1_555 1_555
N1 Zn1 1_555 1_555
N2 Zn2 1_555 1_555
N3 H3 1_555 1_555
N4 H4 1_555 1_555
N5 H5 1_555 1_555
N6 H6 1_555 1_555
N7 H7 1_555 1_555
N8 H8 1_555 1_555
C1 C2 1_555 1_555
C2 H9 1_555 1_555
C3 C2 1_555 1_555
C4 C3 1_555 1_555
H10 C4 1_555 1_555
C5 S1 1_555 1_555
C6 C1 1_555 1_555
H11 C6 1_555 1_555
C7 C1 1_555 1_555
C8 O4 1_555 1_555
C9 N1 1_555 1_555
H12 C9 1_555 1_555
C10 C9 1_555 1_555
H13 C10 1_555 1_555
C11 C10 1_555 1_555
C12 C11 1_555 1_555
H14 C12 1_555 1_555
C13 N1 1_555 1_555
H15 C13 1_555 1_555
C14 C11 1_555 1_555
H16 C14 1_555 1_555
H17 C14 1_555 1_555
C15 C14 1_555 1_555
H18 C15 1_555 1_555
H19 C15 1_555 1_555
C16 C15 1_555 1_555
H20 C16 1_555 1_555
H21 C16 1_555 1_555
C17 N2 1_555 1_555
H22 C17 1_555 1_555
C18 C17 1_555 1_555
H23 C18 1_555 1_555
C19 C16 1_555 1_555
C20 C19 1_555 1_555
H24 C20 1_555 1_555
C21 N2 1_555 1_555
H25 C21 1_555 1_555
C22 N5 1_555 1_555
H26 C22 1_555 1_555
H27 C22 1_555 1_555
C23 N6 1_555 1_555
H28 C23 1_555 1_555
H29 C23 1_555 1_555
C24 O10 1_555 1_555
C25 N3 1_555 1_555
C26 N3 1_555 1_555
H30 C26 1_555 1_555
H31 C26 1_555 1_555
C27 N4 1_555 1_555
H32 C27 1_555 1_555
H33 C27 1_555 1_555
C28 N7 1_555 1_555
C29 N8 1_555 1_555
H34 C29 1_555 1_555
H35 C29 1_555 1_555
C30 N7 1_555 1_555
H36 C30 1_555 1_555
H37 C30 1_555 1_555
Zn1A O2A 1_555 1_555
Zn1_2 O3 1_555 1_555
Zn1_3 O4_2 1_555 1_555
S1_2 O6_2 1_555 1_555
O1_2 C7_2 1_555 1_555
O2A H1A 1_555 1_555
H2A O2A 1_555 1_555
O3_2 Zn1 1_555 1_555
O3A Zn1A 1_555 1_555
O4_2 C8_2 1_555 1_555
O4A Zn1A 1_555 1_555
O5_2 C8_2 1_555 1_555
O7_2 S1_2 1_555 1_555
O8_2 S1_2 1_555 1_555
O9A Zn2 1_555 1_555
O10A Zn2 1_555 1_555
N1A Zn1A 1_555 1_555
N2A Zn2 1_555 1_555
N3A H3A 1_555 1_555
N4A H4A 1_555 1_555
N5A H5A 1_555 1_555
N6A H6A 1_555 1_555
C1_2 C2_2 1_555 1_555
C2_2 H9_2 1_555 1_555
C3_2 C2_2 1_555 1_555
C4_2 C3_2 1_555 1_555
H10_2 C4_2 1_555 1_555
C5_2 S1_2 1_555 1_555
C6_2 C1_2 1_555 1_555
H11_2 C6_2 1_555 1_555
C7_2 O3_2 1_555 1_555
C8_2 C3_2 1_555 1_555
C9A N1A 1_555 1_555
H12A C9A 1_555 1_555
C10A C9A 1_555 1_555
H13A C10A 1_555 1_555
C11A C10A 1_555 1_555
C12A C11A 1_555 1_555
H14A C12A 1_555 1_555
C13A N1A 1_555 1_555
H15A C13A 1_555 1_555
C14A C11A 1_555 1_555
H16A C14A 1_555 1_555
H17A C14A 1_555 1_555
C15A C14A 1_555 1_555
H18A C15A 1_555 1_555
H19A C15A 1_555 1_555
C16A C15A 1_555 1_555
H20A C16A 1_555 1_555
H21A C16A 1_555 1_555
C17A N2A 1_555 1_555
H22A C17A 1_555 1_555
C18A C17A 1_555 1_555
H23A C18A 1_555 1_555
C19A C16A 1_555 1_555
C20A C19A 1_555 1_555
H24A C20A 1_555 1_555
C21A N2A 1_555 1_555
H25A C21A 1_555 1_555
C22A N5A 1_555 1_555
H26A C22A 1_555 1_555
H27A C22A 1_555 1_555
C23A N6A 1_555 1_555
H28A C23A 1_555 1_555
H29A C23A 1_555 1_555
C24A O10A 1_555 1_555
C25A O9A 1_555 1_555
C26A N3A 1_555 1_555
H30A C26A 1_555 1_555
H31A C26A 1_555 1_555
C27A N4A 1_555 1_555
H32A C27A 1_555 1_555
H33A C27A 1_555 1_555
N4 C25 1_555 1_555
N5 C24 1_555 1_555
N6 C24 1_555 1_555
N8 C28 1_555 1_555
C3 C8 1_555 1_555
C4 C5 1_555 1_555
C5 C6 1_555 1_555
C12 C13 1_555 1_555
C18 C19 1_555 1_555
C20 C21 1_555 1_555
C22 C23 1_555 1_555
C26 C27 1_555 1_555
C29 C30 1_555 1_555
N3A C25A 1_555 1_555
N4A C25A 1_555 1_555
N5A C24A 1_555 1_555
N6A C24A 1_555 1_555
C1_2 C7_2 1_555 1_555
C4_2 C5_2 1_555 1_555
C5_2 C6_2 1_555 1_555
C12A C13A 1_555 1_555
C18A C19A 1_555 1_555
C20A C21A 1_555 1_555
C22A C23A 1_555 1_555
C26A C27A 1_555 1_555

#END
