
#######################################################################
#
#                 Cambridge Crystallographic Data Centre
#                                CCDC 
#
#######################################################################
#
# If this CIF has been generated from an entry in the Cambridge 
# Structural Database, then it will include bibliographic, chemical, 
# crystal, experimental, refinement or atomic coordinate data resulting 
# from the CCDC's data processing and validation procedures.
#
#######################################################################

data_XAPPAH
_symmetry_cell_setting           monoclinic
_symmetry_space_group_name_H-M   'C 2/c'
_symmetry_Int_Tables_number      15
_space_group_name_Hall           '-C 2yn'
loop_
_symmetry_equiv_pos_site_id
_symmetry_equiv_pos_as_xyz
1 x,y,z
2 -x,y,1/2-z
3 1/2+x,1/2+y,z
4 1/2-x,1/2+y,1/2-z
5 -x,-y,-z
6 x,-y,1/2+z
7 1/2-x,1/2-y,-z
8 1/2+x,1/2-y,1/2+z
_cell_length_a                   8.9058(19)
_cell_length_b                   29.105(7)
_cell_length_c                   25.520(5)
_cell_angle_alpha                90
_cell_angle_beta                 94.778(3)
_cell_angle_gamma                90
_cell_volume                     6591.88
loop_
_atom_site_label
_atom_site_type_symbol
_atom_site_fract_x
_atom_site_fract_y
_atom_site_fract_z
Ag1 Ag 0.0000 1.02392(3) 0.7500
Ag2 Ag 0.10404(9) 0.73227(2) 0.64260(3)
Ag3 Ag 0.5000 0.77931(4) 0.7500
C1 C 0.2606(9) 0.9496(3) 0.7885(3)
C2 C 0.3176(9) 0.9557(3) 0.7399(3)
H1 H 0.3577 0.9842 0.7323
C3 C 0.3176(10) 0.9216(3) 0.7025(3)
H2 H 0.3602 0.9270 0.6710
C4 C 0.2554(10) 0.8803(3) 0.7118(3)
C5 C 0.1959(10) 0.8737(3) 0.7600(3)
H3 H 0.1522 0.8455 0.7669
C6 C 0.1997(10) 0.9073(3) 0.7975(3)
H4 H 0.1606 0.9014 0.8295
C7 C 0.2791(10) 0.9848(3) 0.8324(3)
H5 H 0.3608 0.9737 0.8573
C8 C 0.1434(12) 0.9901(3) 0.9139(4)
H6 H 0.2235 0.9859 0.9393
C9 C -0.0045(14) 0.9999(3) 0.9216(4)
H7 H -0.0449 1.0035 0.9538
C10 C -0.0809(11) 1.0035(3) 0.8729(4)
H8 H -0.1833 1.0099 0.8673
C11 C 0.4380(11) 1.0550(4) 0.8383(3)
H9 H 0.5090 1.0458 0.8650
C12 C 0.4283(12) 1.0959(3) 0.8146(4)
H10 H 0.4906 1.1211 0.8222
C13 C 0.3091(12) 1.0938(3) 0.7768(3)
H11 H 0.2798 1.1177 0.7539
C14 C 0.0744(11) 0.8810(3) 0.6053(4)
H12 H 0.1039 0.9112 0.6117
C15 C -0.0260(12) 0.8665(4) 0.5668(4)
H13 H -0.0801 0.8843 0.5415
C16 C -0.0315(11) 0.8196(4) 0.5729(4)
H14 H -0.0943 0.8004 0.5519
C17 C 0.5784(13) 0.8432(4) 0.5992(4)
H15 H 0.6406 0.8525 0.5736
C18 C 0.6082(13) 0.8110(4) 0.6389(5)
H16 H 0.6986 0.7949 0.6438
N1 N 0.4964(11) 0.8054(3) 0.6689(3)
C19 C 0.3573(10) 0.7265(3) 0.5322(3)
H17 H 0.4301 0.7113 0.5539
C20 C 0.2170(11) 0.7083(3) 0.5223(3)
C21 C 0.1100(10) 0.7315(3) 0.4909(3)
H18 H 0.0138 0.7191 0.4848
C22 C 0.1816(11) 0.6608(3) 0.5450(3)
H19 H 0.2049 0.6384 0.5181
C23 C -0.0556(12) 0.6159(3) 0.5410(3)
H20 H -0.0248 0.5901 0.5232
C24 C -0.1906(12) 0.6231(3) 0.5595(3)
H21 H -0.2738 0.6036 0.5566
C25 C -0.1791(11) 0.6666(3) 0.5846(3)
H22 H -0.2566 0.6804 0.6011
C26 C 0.3881(13) 0.6174(3) 0.5960(4)
H23 H 0.4032 0.5939 0.5723
C27 C 0.4691(12) 0.6250(4) 0.6419(4)
H24 H 0.5506 0.6078 0.6562
C28 C 0.4084(13) 0.6627(3) 0.6633(4)
H25 H 0.4444 0.6757 0.6952
C29 C 0.2502(10) 0.8408(3) 0.6728(3)
H26 H 0.2352 0.8126 0.6926
N2 N 0.1447(9) 0.9880(2) 0.8615(3)
N3 N 0.0085(10) 0.9968(2) 0.8350(3)
N4 N 0.3230(8) 1.0297(2) 0.8154(3)
N5 N 0.2407(8) 1.0528(3) 0.7773(3)
N6 N 0.3917(9) 0.8353(3) 0.6476(3)
C30 C 0.4397(13) 0.8576(3) 0.6064(4)
H27 H 0.3854 0.8795 0.5861
N7 N 0.1242(8) 0.8445(2) 0.6328(2)
N8 N 0.0629(9) 0.8049(2) 0.6122(3)
N9 N 0.0244(9) 0.6534(3) 0.5534(2)
N10 N -0.0454(10) 0.6850(2) 0.5814(3)
N11 N 0.2812(9) 0.6499(3) 0.5909(3)
N12 N 0.2908(9) 0.6790(2) 0.6329(3)
N14 N 0.1839(7) 0.7264(3) 0.7761(3)
O4 O 0.2535(8) 0.7376(3) 0.7382(2)
O5 O 0.1219(10) 0.7568(3) 0.7988(3)
O6 O 0.1718(15) 0.6899(3) 0.7909(3)
Ag2A Ag -0.10404(9) 0.73227(2) 0.85740(3)
Ag2F Ag 0.39596(9) 0.76773(2) 0.35740(3)
Ag3_2 Ag -0.5000 0.77931(4) 0.7500
C1A C -0.2606(9) 0.9496(3) 0.7115(3)
C2A C -0.3176(9) 0.9557(3) 0.7601(3)
H1A H -0.3577 0.9842 0.7677
C3A C -0.3176(10) 0.9216(3) 0.7975(3)
H2A H -0.3602 0.9270 0.8290
C4A C -0.2554(10) 0.8803(3) 0.7882(3)
C5A C -0.1959(10) 0.8737(3) 0.7400(3)
H3A H -0.1522 0.8455 0.7331
C6A C -0.1997(10) 0.9073(3) 0.7025(3)
H4A H -0.1606 0.9014 0.6705
C7A C -0.2791(10) 0.9848(3) 0.6676(3)
H5A H -0.3608 0.9737 0.6427
C8A C -0.1434(12) 0.9901(3) 0.5861(4)
H6A H -0.2235 0.9859 0.5607
C9A C 0.0045(14) 0.9999(3) 0.5784(4)
H7A H 0.0449 1.0035 0.5462
C10A C 0.0809(11) 1.0035(3) 0.6271(4)
H8A H 0.1833 1.0099 0.6327
C11A C -0.4380(11) 1.0550(4) 0.6617(3)
H9A H -0.5090 1.0458 0.6350
C12A C -0.4283(12) 1.0959(3) 0.6854(4)
H10A H -0.4906 1.1211 0.6778
C13A C -0.3091(12) 1.0938(3) 0.7232(3)
H11A H -0.2798 1.1177 0.7461
C14A C -0.0744(11) 0.8810(3) 0.8947(4)
H12A H -0.1039 0.9112 0.8883
C15A C 0.0260(12) 0.8665(4) 0.9332(4)
H13A H 0.0801 0.8843 0.9585
C16A C 0.0315(11) 0.8196(4) 0.9271(4)
H14A H 0.0943 0.8004 0.9481
C17A C -0.5784(13) 0.8432(4) 0.9008(4)
H15A H -0.6406 0.8525 0.9264
C18A C -0.6082(13) 0.8110(4) 0.8611(5)
H16A H -0.6986 0.7949 0.8562
N1A N -0.4964(11) 0.8054(3) 0.8311(3)
N1A_2 N 0.5036(11) 0.8054(3) 0.8311(3)
C19F C 0.1427(10) 0.7735(3) 0.4678(3)
H17F H 0.0699 0.7887 0.4461
C20F C 0.2830(11) 0.7917(3) 0.4777(3)
C21F C 0.3900(10) 0.7685(3) 0.5091(3)
H18F H 0.4862 0.7809 0.5152
C22F C 0.3184(11) 0.8392(3) 0.4550(3)
H19F H 0.2951 0.8616 0.4819
C23F C 0.5556(12) 0.8841(3) 0.4590(3)
H20F H 0.5248 0.9099 0.4768
C24F C 0.6906(12) 0.8769(3) 0.4405(3)
H21F H 0.7738 0.8964 0.4434
C25F C 0.6791(11) 0.8334(3) 0.4154(3)
H22F H 0.7566 0.8196 0.3989
C26F C 0.1119(13) 0.8826(3) 0.4040(4)
H23F H 0.0968 0.9061 0.4277
C27F C 0.0309(12) 0.8750(4) 0.3581(4)
H24F H -0.0506 0.8922 0.3438
C28F C 0.0916(13) 0.8373(3) 0.3367(4)
H25F H 0.0556 0.8243 0.3048
C29A C -0.2502(10) 0.8408(3) 0.8272(3)
H26A H -0.2352 0.8126 0.8074
N2A N -0.1447(9) 0.9880(2) 0.6385(3)
N3A N -0.0085(10) 0.9968(2) 0.6650(3)
N4A N -0.3230(8) 1.0297(2) 0.6846(3)
N5A N -0.2407(8) 1.0528(3) 0.7227(3)
N6A N -0.3917(9) 0.8353(3) 0.8524(3)
C30A C -0.4397(13) 0.8576(3) 0.8936(4)
H27A H -0.3854 0.8795 0.9139
N7A N -0.1242(8) 0.8445(2) 0.8672(2)
N8A N -0.0629(9) 0.8049(2) 0.8878(3)
N9F N 0.4756(9) 0.8466(3) 0.4466(2)
N10F N 0.5454(10) 0.8150(2) 0.4186(3)
N10A N 0.0454(10) 0.6850(2) 0.9186(3)
N11F N 0.2188(9) 0.8501(3) 0.4091(3)
N12F N 0.2092(9) 0.8210(2) 0.3671(3)
N12A N -0.2908(9) 0.6790(2) 0.8671(3)
N14A N -0.1839(7) 0.7264(3) 0.7239(3)
O4A O -0.2535(8) 0.7376(3) 0.7618(2)
O4A_2 O 0.7465(8) 0.7376(3) 0.7618(2)
O5A O -0.1219(10) 0.7568(3) 0.7012(3)
O6A O -0.1718(15) 0.6899(3) 0.7091(3)
O1 O 0.7951(7) 0.5577(2) 1.0169(2)
N13 N 0.8597(10) 0.5276(3) 1.0451(4)
O2 O 0.8376(8) 0.4875(2) 1.0305(3)
O3 O 0.9371(9) 0.5362(3) 1.0839(3)
loop_
_geom_bond_atom_site_label_1
_geom_bond_atom_site_label_2
_geom_bond_site_symmetry_1
_geom_bond_site_symmetry_2
Ag1 N3 1_555 1_555
Ag2 N8 1_555 1_555
Ag3 N1 1_555 1_555
C1 C2 1_555 1_555
C2 H1 1_555 1_555
C3 C2 1_555 1_555
H2 C3 1_555 1_555
C4 C3 1_555 1_555
C5 C4 1_555 1_555
H3 C5 1_555 1_555
C6 C1 1_555 1_555
H4 C6 1_555 1_555
C7 C1 1_555 1_555
H5 C7 1_555 1_555
C8 H6 1_555 1_555
C9 C8 1_555 1_555
H7 C9 1_555 1_555
C10 C9 1_555 1_555
H8 C10 1_555 1_555
C11 H9 1_555 1_555
C12 C11 1_555 1_555
H10 C12 1_555 1_555
C13 C12 1_555 1_555
H11 C13 1_555 1_555
C14 H12 1_555 1_555
C15 C14 1_555 1_555
H13 C15 1_555 1_555
C16 C15 1_555 1_555
H14 C16 1_555 1_555
C17 H15 1_555 1_555
C18 C17 1_555 1_555
H16 C18 1_555 1_555
N1 C18 1_555 1_555
C19 H17 1_555 1_555
C20 C19 1_555 1_555
C21 C20 1_555 1_555
H18 C21 1_555 1_555
C22 C20 1_555 1_555
H19 C22 1_555 1_555
C23 H20 1_555 1_555
C24 C23 1_555 1_555
H21 C24 1_555 1_555
C25 C24 1_555 1_555
H22 C25 1_555 1_555
C26 H23 1_555 1_555
C27 C26 1_555 1_555
H24 C27 1_555 1_555
C28 C27 1_555 1_555
H25 C28 1_555 1_555
C29 C4 1_555 1_555
H26 C29 1_555 1_555
N2 C7 1_555 1_555
N3 C10 1_555 1_555
N4 C7 1_555 1_555
N5 Ag1 1_555 1_555
N6 N1 1_555 1_555
C30 C17 1_555 1_555
H27 C30 1_555 1_555
N7 C14 1_555 1_555
N8 C16 1_555 1_555
N9 C22 1_555 1_555
N10 Ag2 1_555 1_555
N11 C22 1_555 1_555
N12 Ag2 1_555 1_555
O1 N13 1_555 1_555
N13 O2 1_555 1_555
O3 N13 1_555 1_555
N14 O4 1_555 1_555
O4 Ag2 1_555 1_555
O5 N14 1_555 1_555
O6 N14 1_555 1_555
Ag2A O5 1_555 1_555
Ag2F N10F 1_555 1_555
Ag3_2 N1A 1_555 1_555
C1A C2A 1_555 1_555
C2A H1A 1_555 1_555
C3A C2A 1_555 1_555
H2A C3A 1_555 1_555
C4A C3A 1_555 1_555
C5A C4A 1_555 1_555
H3A C5A 1_555 1_555
C6A C1A 1_555 1_555
H4A C6A 1_555 1_555
C7A C1A 1_555 1_555
H5A C7A 1_555 1_555
C8A H6A 1_555 1_555
C9A C8A 1_555 1_555
H7A C9A 1_555 1_555
C10A C9A 1_555 1_555
H8A C10A 1_555 1_555
C11A H9A 1_555 1_555
C12A C11A 1_555 1_555
H10A C12A 1_555 1_555
C13A C12A 1_555 1_555
H11A C13A 1_555 1_555
C14A H12A 1_555 1_555
C15A C14A 1_555 1_555
H13A C15A 1_555 1_555
C16A C15A 1_555 1_555
H14A C16A 1_555 1_555
C17A H15A 1_555 1_555
C18A C17A 1_555 1_555
H16A C18A 1_555 1_555
N1A C18A 1_555 1_555
N1A_2 Ag3 1_555 1_555
C19F C21 1_555 1_555
H17F C19F 1_555 1_555
C20F C19F 1_555 1_555
C21F C19 1_555 1_555
H18F C21F 1_555 1_555
C22F C20F 1_555 1_555
H19F C22F 1_555 1_555
C23F H20F 1_555 1_555
C24F C23F 1_555 1_555
H21F C24F 1_555 1_555
C25F C24F 1_555 1_555
H22F C25F 1_555 1_555
C26F H23F 1_555 1_555
C27F C26F 1_555 1_555
H24F C27F 1_555 1_555
C28F C27F 1_555 1_555
H25F C28F 1_555 1_555
C29A C4A 1_555 1_555
H26A C29A 1_555 1_555
N2A C7A 1_555 1_555
N3A Ag1 1_555 1_555
N4A C7A 1_555 1_555
N5A Ag1 1_555 1_555
N6A N1A 1_555 1_555
C30A C17A 1_555 1_555
H27A C30A 1_555 1_555
N7A C14A 1_555 1_555
N8A Ag2A 1_555 1_555
N9F C22F 1_555 1_555
N10F C25F 1_555 1_555
N10A Ag2A 1_555 1_555
N11F C22F 1_555 1_555
N12F Ag2F 1_555 1_555
N12A Ag2A 1_555 1_555
N14A O4A 1_555 1_555
O4A Ag2A 1_555 1_555
O4A_2 Ag3 1_555 1_555
O5A Ag2 1_555 1_555
O6A N14A 1_555 1_555
Ag3 O4 1_555 1_555
C5 C6 1_555 1_555
C8 N2 1_555 1_555
C11 N4 1_555 1_555
C13 N5 1_555 1_555
C23 N9 1_555 1_555
C25 N10 1_555 1_555
C26 N11 1_555 1_555
C28 N12 1_555 1_555
C29 N6 1_555 1_555
C29 N7 1_555 1_555
N2 N3 1_555 1_555
N4 N5 1_555 1_555
N6 C30 1_555 1_555
N7 N8 1_555 1_555
N9 N10 1_555 1_555
N11 N12 1_555 1_555
Ag3_2 O4A 1_555 1_555
C5A C6A 1_555 1_555
C8A N2A 1_555 1_555
C10A N3A 1_555 1_555
C11A N4A 1_555 1_555
C13A N5A 1_555 1_555
C16A N8A 1_555 1_555
C20F C21F 1_555 1_555
C23F N9F 1_555 1_555
C26F N11F 1_555 1_555
C28F N12F 1_555 1_555
C29A N6A 1_555 1_555
C29A N7A 1_555 1_555
N2A N3A 1_555 1_555
N4A N5A 1_555 1_555
N6A C30A 1_555 1_555
N7A N8A 1_555 1_555
N9F N10F 1_555 1_555
N11F N12F 1_555 1_555
N14A O5A 1_555 1_555

#END
