
#######################################################################
#
#                 Cambridge Crystallographic Data Centre
#                                CCDC 
#
#######################################################################
#
# If this CIF has been generated from an entry in the Cambridge 
# Structural Database, then it will include bibliographic, chemical, 
# crystal, experimental, refinement or atomic coordinate data resulting 
# from the CCDC's data processing and validation procedures.
#
#######################################################################

data_XAPPIP
_symmetry_cell_setting           triclinic
_symmetry_space_group_name_H-M   'P -1'
_symmetry_Int_Tables_number      2
_space_group_name_Hall           '-P 1'
loop_
_symmetry_equiv_pos_site_id
_symmetry_equiv_pos_as_xyz
1 x,y,z
2 -x,-y,-z
_cell_length_a                   9.9774(5)
_cell_length_b                   10.1707(4)
_cell_length_c                   13.0290(6)
_cell_angle_alpha                92.252(4)
_cell_angle_beta                 99.089(4)
_cell_angle_gamma                101.772(4)
_cell_volume                     1274.58
loop_
_atom_site_label
_atom_site_type_symbol
_atom_site_fract_x
_atom_site_fract_y
_atom_site_fract_z
Pb1 Pb -0.07856(4) -0.48138(3) 0.30976(3)
Pb2 Pb 0.14521(3) -1.13060(3) 0.51184(2)
C1 C 0.3020(9) -0.7268(8) 0.4207(6)
C2 C 0.2475(8) -0.6196(7) 0.4484(6)
H1 H 0.1720 -0.6329 0.4834
C3 C 0.3067(9) -0.4898(8) 0.4235(7)
C4 C 0.4140(9) -0.4720(8) 0.3680(7)
H2 H 0.4540 -0.3860 0.3522
C5 C 0.4629(9) -0.5813(8) 0.3357(7)
C6 C 0.4111(9) -0.7081(8) 0.3654(7)
H3 H 0.4494 -0.7804 0.3484
C7 C 0.2358(8) -0.8655(8) 0.4458(6)
C8 C 0.2453(9) -0.3752(8) 0.4522(7)
C9 C 0.5778(10) -0.6694(8) 0.2095(7)
H4 H 0.4877 -0.7296 0.1892
H5 H 0.6397 -0.7186 0.2489
C10 C 0.6338(9) -0.6235(8) 0.1149(7)
C11 C 0.5607(11) -0.6674(10) 0.0186(8)
H6 H 0.4726 -0.7228 0.0109
C12 C 0.6187(13) -0.6285(12) -0.0686(9)
H7 H 0.5690 -0.6571 -0.1350
C13 C 0.7495(12) -0.5480(11) -0.0568(8)
H8 H 0.7910 -0.5221 -0.1140
C14 C 0.8160(11) -0.5078(10) 0.0431(8)
H9 H 0.9035 -0.4511 0.0523
C15 C 0.0743(9) -0.0683(8) 0.2057(6)
C16 C 0.0247(9) 0.0385(8) 0.2411(6)
H10 H -0.0269 0.0276 0.2949
C17 C 0.0503(10) 0.1633(8) 0.1979(7)
C18 C 0.1256(10) 0.1792(8) 0.1173(6)
H11 H 0.1451 0.2620 0.0888
C19 C 0.1722(10) 0.0693(8) 0.0789(7)
C20 C 0.1471(9) -0.0553(8) 0.1215(6)
H12 H 0.1777 -0.1279 0.0948
C21 C 0.0427(9) -0.1984(8) 0.2550(7)
C22 C -0.0006(9) 0.2789(8) 0.2410(7)
C23 C 0.2935(11) -0.0078(9) -0.0481(8)
H13 H 0.2194 -0.0868 -0.0681
H14 H 0.3665 -0.0324 0.0009
C24 C 0.3504(10) 0.0459(8) -0.1440(7)
C25 C 0.2967(10) 0.1386(9) -0.1998(7)
H15 H 0.2294 0.1779 -0.1767
C26 C 0.3432(11) 0.1737(10) -0.2908(8)
H16 H 0.3053 0.2349 -0.3311
C27 C 0.4456(11) 0.1180(9) -0.3220(8)
H17 H 0.4777 0.1388 -0.3839
C28 C 0.5000(12) 0.0287(10) -0.2569(8)
H18 H 0.5728 -0.0064 -0.2751
O1 O 0.2927(6) -0.9611(5) 0.4275(5)
O2 O 0.1257(6) -0.8814(5) 0.4852(5)
O3 O 0.1212(7) -0.4009(6) 0.4748(6)
O4 O 0.3104(7) -0.2567(6) 0.4518(6)
O5 O 0.5645(7) -0.5557(6) 0.2738(5)
O6 O 0.0415(7) -0.3065(5) 0.2070(5)
O7 O 0.0090(6) -0.1930(6) 0.3453(5)
O8 O -0.0959(7) 0.2567(6) 0.2955(5)
O9 O 0.0504(7) 0.3983(5) 0.2194(5)
O10 O 0.2429(8) 0.0958(6) -0.0027(5)
N1 N 0.7631(8) -0.5448(8) 0.1278(6)
N2 N 0.4524(9) -0.0086(8) -0.1699(6)
Pb1_2 Pb -0.07856(4) 0.51862(3) 0.30976(3)
Pb1_3 Pb 0.92144(4) -0.48138(3) 0.30976(3)
Pb2A Pb -0.14521(3) -0.86940(3) 0.48816(2)
Pb2_2 Pb 0.14521(3) -0.13060(3) 0.51184(2)
O2A O -0.1257(6) -1.1186(5) 0.5148(5)
O3_2 O 0.1212(7) -1.4009(6) 0.4748(6)
O4_2 O 0.3104(7) -1.2567(6) 0.4518(6)
O7_2 O 0.0090(6) -1.1930(6) 0.3453(5)
O8_2 O -0.0959(7) -0.7433(6) 0.2955(5)
O9_2 O 0.0504(7) -0.6017(5) 0.2194(5)
N1_2 N -0.2369(8) -0.5448(8) 0.1278(6)
loop_
_geom_bond_atom_site_label_1
_geom_bond_atom_site_label_2
_geom_bond_site_symmetry_1
_geom_bond_site_symmetry_2
Pb1 O3 1_555 1_555
Pb2 O1 1_555 1_555
C1 C2 1_555 1_555
C2 H1 1_555 1_555
C3 C2 1_555 1_555
C4 C3 1_555 1_555
H2 C4 1_555 1_555
C5 C4 1_555 1_555
C6 C1 1_555 1_555
H3 C6 1_555 1_555
C7 C1 1_555 1_555
C8 C3 1_555 1_555
C9 H4 1_555 1_555
H5 C9 1_555 1_555
C10 C9 1_555 1_555
C11 C10 1_555 1_555
H6 C11 1_555 1_555
C12 C11 1_555 1_555
H7 C12 1_555 1_555
C13 C12 1_555 1_555
H8 C13 1_555 1_555
C14 C13 1_555 1_555
H9 C14 1_555 1_555
C15 C16 1_555 1_555
C16 H10 1_555 1_555
C17 C16 1_555 1_555
C18 C17 1_555 1_555
H11 C18 1_555 1_555
C19 C18 1_555 1_555
C20 C15 1_555 1_555
H12 C20 1_555 1_555
C21 C15 1_555 1_555
C22 C17 1_555 1_555
C23 H13 1_555 1_555
H14 C23 1_555 1_555
C24 C23 1_555 1_555
C25 C24 1_555 1_555
H15 C25 1_555 1_555
C26 C25 1_555 1_555
H16 C26 1_555 1_555
C27 C26 1_555 1_555
H17 C27 1_555 1_555
C28 C27 1_555 1_555
H18 C28 1_555 1_555
O1 C7 1_555 1_555
O2 Pb2 1_555 1_555
O3 C8 1_555 1_555
O4 C8 1_555 1_555
O5 C5 1_555 1_555
O6 Pb1 1_555 1_555
O7 C21 1_555 1_555
O8 C22 1_555 1_555
O9 C22 1_555 1_555
O10 C19 1_555 1_555
N1 C10 1_555 1_555
N2 C24 1_555 1_555
Pb1_2 O8 1_555 1_555
Pb1_3 N1 1_555 1_555
Pb2A O2 1_555 1_555
Pb2_2 O3 1_555 1_555
O2A Pb2 1_555 1_555
O3_2 Pb2 1_555 1_555
O4_2 Pb2 1_555 1_555
O7_2 Pb2 1_555 1_555
O8_2 Pb1 1_555 1_555
O9_2 Pb1 1_555 1_555
N1_2 Pb1 1_555 1_555
C5 C6 1_555 1_555
C7 O2 1_555 1_555
C9 O5 1_555 1_555
C14 N1 1_555 1_555
C19 C20 1_555 1_555
C21 O6 1_555 1_555
C23 O10 1_555 1_555
C28 N2 1_555 1_555
O4 Pb2_2 1_555 1_555
O7 Pb2_2 1_555 1_555
O9 Pb1_2 1_555 1_555
Pb2A O2A 1_555 1_555

#END
