
#######################################################################
#
#                 Cambridge Crystallographic Data Centre
#                                CCDC 
#
#######################################################################
#
# If this CIF has been generated from an entry in the Cambridge 
# Structural Database, then it will include bibliographic, chemical, 
# crystal, experimental, refinement or atomic coordinate data resulting 
# from the CCDC's data processing and validation procedures.
#
#######################################################################

data_XAPPOV
_symmetry_cell_setting           triclinic
_symmetry_space_group_name_H-M   'P -1'
_symmetry_Int_Tables_number      2
_space_group_name_Hall           '-P 1'
loop_
_symmetry_equiv_pos_site_id
_symmetry_equiv_pos_as_xyz
1 x,y,z
2 -x,-y,-z
_cell_length_a                   10.3211(3)
_cell_length_b                   11.7054(4)
_cell_length_c                   12.8056(4)
_cell_angle_alpha                110.056(3)
_cell_angle_beta                 90.212(2)
_cell_angle_gamma                106.962(3)
_cell_volume                     1380.74
loop_
_atom_site_label
_atom_site_type_symbol
_atom_site_fract_x
_atom_site_fract_y
_atom_site_fract_z
Pb1 Pb -0.34663(2) -0.61337(2) -0.00305(2)
Pb2 Pb 0.00461(2) -0.42702(2) 0.21154(2)
C1 C -0.3388(6) -0.3103(6) 0.3627(5)
C2 C -0.4717(6) -0.3548(6) 0.3093(5)
H1 H -0.4965 -0.4229 0.2412
C3 C -0.5669(6) -0.2958(6) 0.3594(6)
C4 C -0.5371(7) -0.1971(7) 0.4571(6)
H2 H -0.6030 -0.1602 0.4884
C5 C -0.4015(7) -0.1502(6) 0.5118(6)
C6 C -0.3053(6) -0.2066(6) 0.4631(5)
H3 H -0.2165 -0.1744 0.4983
C7 C -0.2346(6) -0.3704(6) 0.3102(6)
C8 C -0.7112(6) -0.3469(7) 0.2991(6)
C9 C -0.4961(7) -0.0985(7) 0.7525(6)
C10 C -0.4498(9) -0.2005(8) 0.7414(7)
H4 H -0.3914 -0.2223 0.6883
C11 C -0.4913(9) -0.2714(8) 0.8108(8)
H5 H -0.4566 -0.3382 0.8041
C12 C -0.6193(9) -0.1470(8) 0.8951(8)
H6 H -0.6761 -0.1249 0.9497
C13 C -0.5840(8) -0.0745(8) 0.8300(8)
H7 H -0.6202 -0.0082 0.8385
C14 C -0.4495(7) -0.0120(7) 0.6865(6)
H8 H -0.5285 -0.0139 0.6439
H9 H -0.4086 0.0751 0.7384
C15 C -0.0160(6) -0.7947(6) -0.1085(6)
C16 C 0.1200(6) -0.7422(6) -0.0606(6)
H10 H 0.1435 -0.6778 0.0098
C17 C 0.2189(6) -0.7858(6) -0.1176(6)
C18 C 0.1916(7) -0.8768(6) -0.2210(5)
H11 H 0.2609 -0.9016 -0.2595
C19 C 0.0501(7) -0.9346(6) -0.2699(6)
C20 C -0.0514(6) -0.8906(6) -0.2129(6)
H12 H -0.1417 -0.9255 -0.2450
C21 C -0.1226(6) -0.7407(6) -0.0499(6)
C22 C 0.3657(6) -0.7233(6) -0.0718(6)
C23 C 0.0591(8) -1.2155(8) -0.3769(7)
C24 C 0.1370(10) -1.2977(8) -0.4086(8)
H13 H 0.2027 -1.2883 -0.4572
C25 C 0.1132(9) -1.3946(8) -0.3652(8)
H14 H 0.1668 -1.4486 -0.3850
C26 C -0.0552(10) -1.3357(9) -0.2713(9)
H15 H -0.1238 -1.3490 -0.2259
C27 C -0.0359(9) -1.2351(8) -0.3079(9)
H16 H -0.0887 -1.1806 -0.2850
C28 C 0.0831(7) -1.1101(6) -0.4263(6)
H17 H 0.1793 -1.0616 -0.4131
H18 H 0.0570 -1.1485 -0.5065
O1 O -0.2694(5) -0.4643(5) 0.2191(4)
O2 O -0.1152(4) -0.3276(5) 0.3596(4)
O3 O -0.8005(5) -0.3031(5) 0.3513(4)
O4 O -0.7371(5) -0.4313(5) 0.2022(4)
O5 O -0.3523(4) -0.0467(4) 0.6107(4)
O6 O -0.0899(5) -0.6543(5) 0.0437(5)
O7 O -0.2421(4) -0.7824(4) -0.0998(4)
O8 O 0.4002(5) -0.6219(4) 0.0134(4)
O9 O 0.4535(4) -0.7731(4) -0.1203(4)
O10 O 0.0051(4) -1.0255(5) -0.3764(4)
N1 N -0.5777(6) -0.2477(6) 0.8857(5)
N2 N 0.0198(6) -1.4157(6) -0.2976(5)
Pb1A Pb -0.65337(2) -0.38663(2) 0.00305(2)
Pb1_2 Pb 0.65337(2) -0.61337(2) -0.00305(2)
Pb1A_2 Pb -0.65337(2) -0.38663(2) 1.00305(2)
Pb2_2 Pb -0.99539(2) -0.42702(2) 0.21154(2)
Pb2A Pb -0.00461(2) -1.57298(2) -0.21154(2)
O3_2 O 0.1995(5) -0.3031(5) 0.3513(4)
O4A O -0.2629(5) -0.5687(5) -0.2022(4)
O4_2 O 0.2629(5) -0.4313(5) 0.2022(4)
O8_2 O -0.5998(5) -0.6219(4) 0.0134(4)
O9_2 O -0.5465(4) -0.7731(4) -0.1203(4)
N1A N -0.4223(6) -0.7523(6) 0.1143(5)
N2A N -0.0198(6) -0.5843(6) 0.2976(5)
loop_
_geom_bond_atom_site_label_1
_geom_bond_atom_site_label_2
_geom_bond_site_symmetry_1
_geom_bond_site_symmetry_2
Pb1 O1 1_555 1_555
Pb2 O1 1_555 1_555
C1 C2 1_555 1_555
C2 H1 1_555 1_555
C3 C2 1_555 1_555
C4 C3 1_555 1_555
H2 C4 1_555 1_555
C5 C4 1_555 1_555
C6 C1 1_555 1_555
H3 C6 1_555 1_555
C7 C1 1_555 1_555
C8 C3 1_555 1_555
C9 C10 1_555 1_555
C10 H4 1_555 1_555
C11 C10 1_555 1_555
H5 C11 1_555 1_555
C12 H6 1_555 1_555
C13 C9 1_555 1_555
H7 C13 1_555 1_555
C14 C9 1_555 1_555
H8 C14 1_555 1_555
H9 C14 1_555 1_555
C15 C16 1_555 1_555
C16 H10 1_555 1_555
C17 C16 1_555 1_555
C18 C17 1_555 1_555
H11 C18 1_555 1_555
C19 C18 1_555 1_555
C20 C15 1_555 1_555
H12 C20 1_555 1_555
C21 C15 1_555 1_555
C22 C17 1_555 1_555
C23 C24 1_555 1_555
C24 H13 1_555 1_555
C25 C24 1_555 1_555
H14 C25 1_555 1_555
C26 H15 1_555 1_555
C27 C23 1_555 1_555
H16 C27 1_555 1_555
C28 C23 1_555 1_555
H17 C28 1_555 1_555
H18 C28 1_555 1_555
O1 C7 1_555 1_555
O2 Pb2 1_555 1_555
O3 C8 1_555 1_555
O4 C8 1_555 1_555
O5 C5 1_555 1_555
O6 Pb1 1_555 1_555
O7 Pb1 1_555 1_555
O8 C22 1_555 1_555
O9 C22 1_555 1_555
O10 C19 1_555 1_555
N1 C11 1_555 1_555
N2 C25 1_555 1_555
Pb1A O4 1_555 1_555
Pb1_2 O8 1_555 1_555
Pb1A_2 N1 1_555 1_555
Pb2_2 O3 1_555 1_555
Pb2A N2 1_555 1_555
O3_2 Pb2 1_555 1_555
O4A Pb1 1_555 1_555
O4_2 Pb2 1_555 1_555
O8_2 Pb1 1_555 1_555
O9_2 Pb1 1_555 1_555
N1A Pb1 1_555 1_555
N2A Pb2 1_555 1_555
Pb2 O6 1_555 1_555
C5 C6 1_555 1_555
C7 O2 1_555 1_555
C12 C13 1_555 1_555
C12 N1 1_555 1_555
C14 O5 1_555 1_555
C19 C20 1_555 1_555
C21 O6 1_555 1_555
C21 O7 1_555 1_555
C26 C27 1_555 1_555
C26 N2 1_555 1_555
C28 O10 1_555 1_555
O4 Pb2_2 1_555 1_555
O9 Pb1_2 1_555 1_555

#END
