
#######################################################################
#
#                 Cambridge Crystallographic Data Centre
#                                CCDC 
#
#######################################################################
#
# If this CIF has been generated from an entry in the Cambridge 
# Structural Database, then it will include bibliographic, chemical, 
# crystal, experimental, refinement or atomic coordinate data resulting 
# from the CCDC's data processing and validation procedures.
#
#######################################################################

data_XAPQOW
_symmetry_cell_setting           triclinic
_symmetry_space_group_name_H-M   'P -1'
_symmetry_Int_Tables_number      2
_space_group_name_Hall           '-P 1'
loop_
_symmetry_equiv_pos_site_id
_symmetry_equiv_pos_as_xyz
1 x,y,z
2 -x,-y,-z
_cell_length_a                   10.271(2)
_cell_length_b                   11.690(2)
_cell_length_c                   11.974(2)
_cell_angle_alpha                80.02(3)
_cell_angle_beta                 74.02(3)
_cell_angle_gamma                85.55(3)
_cell_volume                     1360.55
loop_
_atom_site_label
_atom_site_type_symbol
_atom_site_fract_x
_atom_site_fract_y
_atom_site_fract_z
Cd1 Cd 0.22795(3) 0.68602(2) 0.07233(2)
Cd2 Cd 0.0000 1.0000 0.0000
Cd3 Cd 0.0000 1.0000 0.5000
Cl1 Cl 0.09059(11) 0.78840(9) -0.05612(9)
Cl2 Cl 0.46084(11) 0.66758(11) -0.03294(9)
O1 O 0.0522(3) 0.9579(2) 0.1908(2)
O2 O 0.2275(3) 0.8076(2) 0.1945(2)
O3 O 0.1003(3) 0.8691(2) 0.3741(2)
O4 O -0.0086(3) 0.7595(2) 0.2750(3)
O5 O 0.1105(3) 0.9194(2) 0.6497(2)
H1 H 0.067(4) 0.938(4) 0.712(2)
N1 N 0.2084(3) 1.0688(3) -0.0761(3)
N2 N 0.3760(3) 1.1867(3) -0.1615(3)
N3 N 0.1739(3) 1.1151(3) -0.5846(3)
N4 N 0.3234(3) 1.2519(3) -0.6266(3)
N5 N -0.1399(3) 1.4811(3) -0.1628(3)
N6 N 0.0254(3) 1.5950(3) -0.2664(3)
S1 S 0.09010(10) 0.84762(8) 0.25965(8)
C1 C 0.3939(4) 1.3639(3) -0.3127(3)
C2 C 0.4189(4) 1.3310(3) -0.4241(3)
C3 C 0.3574(4) 1.3964(3) -0.5072(3)
C4 C 0.2723(4) 1.4928(3) -0.4799(3)
C5 C 0.2518(4) 1.5268(3) -0.3697(3)
C6 C 0.3102(4) 1.4612(3) -0.2850(3)
C7 C 0.5095(4) 1.2269(4) -0.4521(4)
H2 H 0.5947 1.2343 -0.4342
H3 H 0.5264 1.2220 -0.5349
H4 H 0.4659 1.1571 -0.4052
C8 C 0.1964(5) 1.5558(4) -0.5660(4)
H5 H 0.2557 1.6103 -0.6248
H6 H 0.1180 1.5975 -0.5240
H7 H 0.1670 1.4997 -0.6043
C9 C 0.2785(5) 1.4918(4) -0.1621(4)
H8 H 0.3610 1.5128 -0.1473
H9 H 0.2404 1.4253 -0.1050
H10 H 0.2136 1.5568 -0.1554
C10 C 0.4536(4) 1.2913(4) -0.2209(4)
H11 H 0.5468 1.2676 -0.2583
H12 H 0.4567 1.3388 -0.1619
C11 C 0.3889(5) 1.3608(4) -0.6285(3)
H13 H 0.3579 1.4232 -0.6822
H14 H 0.4872 1.3506 -0.6589
C12 C 0.1606(4) 1.6318(3) -0.3383(4)
H15 H 0.2010 1.6761 -0.2947
H16 H 0.1525 1.6824 -0.4106
C13 C 0.3259(5) 1.0161(4) -0.0594(5)
H17 H 0.3330 0.9410 -0.0177
C14 C 0.4308(5) 1.0869(4) -0.1112(5)
H18 H 0.5223 1.0711 -0.1125
C15 C 0.2433(4) 1.1717(4) -0.1400(4)
H19 H 0.1825 1.2269 -0.1666
C16 C 0.2806(5) 1.0922(4) -0.6782(4)
H20 H 0.2885 1.0277 -0.7171
C17 C 0.3724(4) 1.1774(4) -0.7054(4)
H21 H 0.4533 1.1836 -0.7662
C18 C 0.2044(4) 1.2126(3) -0.5568(3)
H22 H 0.1495 1.2495 -0.4957
C19 C -0.0808(4) 1.6658(3) -0.2173(3)
H23 H -0.0825 1.7473 -0.2258
C20 C -0.1819(4) 1.5949(3) -0.1545(3)
H24 H -0.2678 1.6193 -0.1117
C21 C -0.0152(4) 1.4860(3) -0.2310(3)
H25 H 0.0387 1.4204 -0.2523
C22 C 0.2441(5) 0.9494(5) 0.6449(4)
H26 H 0.3047 0.9391 0.5691
H27 H 0.2749 0.8998 0.7069
H28 H 0.2435 1.0299 0.6553
Cd1A Cd -0.22795(3) 1.31398(2) -0.07233(2)
Cd3_2 Cd 0.0000 1.0000 -0.5000
Cl1A Cl -0.09059(11) 1.21160(9) 0.05612(9)
Cl2A Cl -0.46084(11) 1.33242(11) 0.03294(9)
O1A O -0.0522(3) 1.0421(2) -0.1908(2)
O2A O -0.2275(3) 1.1924(2) -0.1945(2)
O3A O -0.1003(3) 1.1309(2) -0.3741(2)
O3A_2 O -0.1003(3) 1.1309(2) 0.6259(2)
O4A O 0.0086(3) 1.2405(2) -0.2750(3)
O5A O -0.1105(3) 1.0806(2) 0.3503(2)
H1A H -0.067(4) 1.062(4) 0.288(2)
N1A N -0.2084(3) 0.9312(3) 0.0761(3)
N2A N -0.3760(3) 0.8133(3) 0.1615(3)
N3A N -0.1739(3) 0.8849(3) 0.5846(3)
N3_2 N 0.1739(3) 1.1151(3) 0.4154(3)
N4A N -0.3234(3) 0.7481(3) 0.6266(3)
N5A N 0.1399(3) 0.5189(3) 0.1628(3)
N6A N -0.0254(3) 0.4050(3) 0.2664(3)
S1A S -0.09010(10) 1.15238(8) -0.25965(8)
C1A C -0.3939(4) 0.6361(3) 0.3127(3)
C2A C -0.4189(4) 0.6690(3) 0.4241(3)
C3A C -0.3574(4) 0.6036(3) 0.5072(3)
C4A C -0.2723(4) 0.5072(3) 0.4799(3)
C5A C -0.2518(4) 0.4732(3) 0.3697(3)
C6A C -0.3102(4) 0.5388(3) 0.2850(3)
C7A C -0.5095(4) 0.7731(4) 0.4521(4)
H2A H -0.5947 0.7657 0.4342
H3A H -0.5264 0.7780 0.5349
H4A H -0.4659 0.8429 0.4052
C8A C -0.1964(5) 0.4442(4) 0.5660(4)
H5A H -0.2557 0.3897 0.6248
H6A H -0.1180 0.4025 0.5240
H7A H -0.1670 0.5003 0.6043
C9A C -0.2785(5) 0.5082(4) 0.1621(4)
H8A H -0.3610 0.4872 0.1473
H9A H -0.2404 0.5747 0.1050
H10A H -0.2136 0.4432 0.1554
C10A C -0.4536(4) 0.7087(4) 0.2209(4)
H11A H -0.5468 0.7324 0.2583
H12A H -0.4567 0.6612 0.1619
C11A C -0.3889(5) 0.6392(4) 0.6285(3)
H13A H -0.3579 0.5768 0.6822
H14A H -0.4872 0.6494 0.6589
C12A C -0.1606(4) 0.3682(3) 0.3383(4)
H15A H -0.2010 0.3239 0.2947
H16A H -0.1525 0.3176 0.4106
C13A C -0.3259(5) 0.9839(4) 0.0594(5)
H17A H -0.3330 1.0590 0.0177
C14A C -0.4308(5) 0.9131(4) 0.1112(5)
H18A H -0.5223 0.9289 0.1125
C15A C -0.2433(4) 0.8283(4) 0.1400(4)
H19A H -0.1825 0.7731 0.1666
C16A C -0.2806(5) 0.9078(4) 0.6782(4)
H20A H -0.2885 0.9723 0.7171
C17A C -0.3724(4) 0.8226(4) 0.7054(4)
H21A H -0.4533 0.8164 0.7662
C18A C -0.2044(4) 0.7874(3) 0.5568(3)
H22A H -0.1495 0.7505 0.4957
C19A C 0.0808(4) 0.3342(3) 0.2173(3)
H23A H 0.0825 0.2527 0.2258
C20A C 0.1819(4) 0.4051(3) 0.1545(3)
H24A H 0.2678 0.3807 0.1117
C21A C 0.0152(4) 0.5140(3) 0.2310(3)
H25A H -0.0387 0.5796 0.2523
C22A C -0.2441(5) 1.0506(5) 0.3551(4)
H26A H -0.3047 1.0609 0.4309
H27A H -0.2749 1.1002 0.2931
H28A H -0.2435 0.9701 0.3447
loop_
_geom_bond_atom_site_label_1
_geom_bond_atom_site_label_2
_geom_bond_site_symmetry_1
_geom_bond_site_symmetry_2
Cd1 Cl1 1_555 1_555
Cd2 Cl1 1_555 1_555
Cd3 O3 1_555 1_555
Cl2 Cd1 1_555 1_555
O1 Cd2 1_555 1_555
O2 Cd1 1_555 1_555
O3 S1 1_555 1_555
O4 S1 1_555 1_555
O5 Cd3 1_555 1_555
H1 O5 1_555 1_555
N1 Cd2 1_555 1_555
N2 C10 1_555 1_555
N3 C16 1_555 1_555
N4 C11 1_555 1_555
N5 C20 1_555 1_555
N6 C12 1_555 1_555
S1 O1 1_555 1_555
C1 C2 1_555 1_555
C2 C3 1_555 1_555
C3 C4 1_555 1_555
C4 C5 1_555 1_555
C5 C6 1_555 1_555
C6 C1 1_555 1_555
C7 C2 1_555 1_555
H2 C7 1_555 1_555
H3 C7 1_555 1_555
H4 C7 1_555 1_555
C8 C4 1_555 1_555
H5 C8 1_555 1_555
H6 C8 1_555 1_555
H7 C8 1_555 1_555
C9 C6 1_555 1_555
H8 C9 1_555 1_555
H9 C9 1_555 1_555
H10 C9 1_555 1_555
C10 C1 1_555 1_555
H11 C10 1_555 1_555
H12 C10 1_555 1_555
C11 C3 1_555 1_555
H13 C11 1_555 1_555
H14 C11 1_555 1_555
C12 C5 1_555 1_555
H15 C12 1_555 1_555
H16 C12 1_555 1_555
C13 N1 1_555 1_555
H17 C13 1_555 1_555
C14 N2 1_555 1_555
H18 C14 1_555 1_555
C15 N1 1_555 1_555
H19 C15 1_555 1_555
C16 H20 1_555 1_555
C17 N4 1_555 1_555
H21 C17 1_555 1_555
C18 N3 1_555 1_555
H22 C18 1_555 1_555
C19 N6 1_555 1_555
H23 C19 1_555 1_555
C20 C19 1_555 1_555
H24 C20 1_555 1_555
C21 N5 1_555 1_555
H25 C21 1_555 1_555
C22 O5 1_555 1_555
H26 C22 1_555 1_555
H27 C22 1_555 1_555
H28 C22 1_555 1_555
Cd1A N5 1_555 1_555
Cd3_2 N3 1_555 1_555
Cl1A Cd2 1_555 1_555
Cl2A Cd1A 1_555 1_555
O1A Cd2 1_555 1_555
O2A Cd1A 1_555 1_555
O3A Cd3_2 1_555 1_555
O3A_2 Cd3 1_555 1_555
O4A S1A 1_555 1_555
O5A Cd3 1_555 1_555
H1A O5A 1_555 1_555
N1A Cd2 1_555 1_555
N2A C10A 1_555 1_555
N3A Cd3 1_555 1_555
N3_2 Cd3 1_555 1_555
N4A C11A 1_555 1_555
N5A Cd1 1_555 1_555
N6A C12A 1_555 1_555
S1A O1A 1_555 1_555
C1A C2A 1_555 1_555
C2A C3A 1_555 1_555
C3A C4A 1_555 1_555
C4A C5A 1_555 1_555
C5A C6A 1_555 1_555
C6A C1A 1_555 1_555
C7A C2A 1_555 1_555
H2A C7A 1_555 1_555
H3A C7A 1_555 1_555
H4A C7A 1_555 1_555
C8A C4A 1_555 1_555
H5A C8A 1_555 1_555
H6A C8A 1_555 1_555
H7A C8A 1_555 1_555
C9A C6A 1_555 1_555
H8A C9A 1_555 1_555
H9A C9A 1_555 1_555
H10A C9A 1_555 1_555
C10A C1A 1_555 1_555
H11A C10A 1_555 1_555
H12A C10A 1_555 1_555
C11A C3A 1_555 1_555
H13A C11A 1_555 1_555
H14A C11A 1_555 1_555
C12A C5A 1_555 1_555
H15A C12A 1_555 1_555
H16A C12A 1_555 1_555
C13A N1A 1_555 1_555
H17A C13A 1_555 1_555
C14A N2A 1_555 1_555
H18A C14A 1_555 1_555
C15A N1A 1_555 1_555
H19A C15A 1_555 1_555
C16A N3A 1_555 1_555
H20A C16A 1_555 1_555
C17A N4A 1_555 1_555
H21A C17A 1_555 1_555
C18A N3A 1_555 1_555
H22A C18A 1_555 1_555
C19A N6A 1_555 1_555
H23A C19A 1_555 1_555
C20A N5A 1_555 1_555
H24A C20A 1_555 1_555
C21A N5A 1_555 1_555
H25A C21A 1_555 1_555
C22A O5A 1_555 1_555
H26A C22A 1_555 1_555
H27A C22A 1_555 1_555
H28A C22A 1_555 1_555
O2 S1 1_555 1_555
N2 C15 1_555 1_555
N4 C18 1_555 1_555
N6 C21 1_555 1_555
C13 C14 1_555 1_555
C16 C17 1_555 1_555
Cd1A Cl1A 1_555 1_555
O2A S1A 1_555 1_555
O3A S1A 1_555 1_555
N2A C15A 1_555 1_555
N4A C18A 1_555 1_555
N6A C21A 1_555 1_555
C13A C14A 1_555 1_555
C16A C17A 1_555 1_555
C19A C20A 1_555 1_555

#END
