
#######################################################################
#
#                 Cambridge Crystallographic Data Centre
#                                CCDC 
#
#######################################################################
#
# If this CIF has been generated from an entry in the Cambridge 
# Structural Database, then it will include bibliographic, chemical, 
# crystal, experimental, refinement or atomic coordinate data resulting 
# from the CCDC's data processing and validation procedures.
#
#######################################################################

data_XAPQAI
_symmetry_cell_setting           monoclinic
_symmetry_space_group_name_H-M   'C 2/c'
_symmetry_Int_Tables_number      15
_space_group_name_Hall           '-C 2yn'
loop_
_symmetry_equiv_pos_site_id
_symmetry_equiv_pos_as_xyz
1 x,y,z
2 -x,y,1/2-z
3 1/2+x,1/2+y,z
4 1/2-x,1/2+y,1/2-z
5 -x,-y,-z
6 x,-y,1/2+z
7 1/2-x,1/2-y,-z
8 1/2+x,1/2-y,1/2+z
_cell_length_a                   27.521(6)
_cell_length_b                   8.4410(9)
_cell_length_c                   18.710(8)
_cell_angle_alpha                90
_cell_angle_beta                 123.449(5)
_cell_angle_gamma                90
_cell_volume                     3626.55
loop_
_atom_site_label
_atom_site_type_symbol
_atom_site_fract_x
_atom_site_fract_y
_atom_site_fract_z
Cd1 Cd 0.214737(15) 0.17908(5) 0.74788(3)
O1 O 0.21288(14) -0.0993(4) 0.7547(3)
O2 O 0.02368(13) 0.4786(5) 0.6785(2)
O3 O 0.06744(16) 0.0843(5) 0.8349(3)
O4 O 0.23193(13) -0.3393(4) 0.8079(2)
O5 O -0.15055(14) 0.6319(5) 0.3773(2)
O6 O -0.11802(15) 0.8432(5) 0.3493(2)
O7 O 0.30074(18) 0.1355(6) 0.8824(3)
C1 C -0.05088(19) 0.7025(6) 0.4756(3)
C2 C 0.1073(2) -0.0335(7) 0.8544(3)
C3 C 0.0000 0.2880(9) 0.7500
C4 C 0.0110(2) 0.5805(6) 0.6137(3)
C5 C 0.0482(2) 0.7835(7) 0.5677(4)
H1 H 0.0797 0.8490 0.5786
C6 C -0.04270(19) 0.5922(6) 0.5368(3)
H2 H -0.0739 0.5254 0.5259
C7 C 0.04932(19) 0.1835(7) 0.7614(3)
H3 H 0.0354 0.1178 0.7097
H4 H 0.0822 0.2496 0.7712
C8 C 0.1876(2) -0.2781(6) 0.9079(3)
H5 H 0.2139 -0.3642 0.9247
C9 C 0.17691(18) -0.1764(6) 0.8408(3)
C10 C 0.20905(19) -0.2042(6) 0.7995(3)
C11 C 0.1368(2) -0.0528(6) 0.8146(3)
H6 H 0.1299 0.0169 0.7701
O8 O 0.19921(18) 0.3608(5) 0.8237(3)
C12 C -0.0043(2) 0.7993(6) 0.4921(3)
H7 H -0.0094 0.8751 0.4510
C13 C -0.02361(19) 0.3889(6) 0.6693(3)
H8 H -0.0407 0.3199 0.6182
H9 H -0.0544 0.4611 0.6621
C14 C -0.1089(2) 0.7265(6) 0.3964(4)
C15 C 0.1597(3) -0.2518(8) 0.9483(4)
H10 H 0.1679 -0.3168 0.9952
C16 C 0.1186(3) -0.1282(7) 0.9208(4)
H11 H 0.0988 -0.1110 0.9487
C17 C 0.0569(2) 0.6751(7) 0.6285(3)
H12 H 0.0942 0.6651 0.6803
Cd1A Cd -0.214737(15) 0.17908(5) 0.75212(3)
Cd1C Cd 0.285263(15) -0.32092(5) 0.75212(3)
Cd1D Cd -0.214737(15) 0.82092(5) 0.25212(3)
Cd1B Cd -0.285263(15) -0.32092(5) 0.74788(3)
Cd1E Cd 0.214737(15) 0.82092(5) 1.24788(3)
O1A O -0.21288(14) -0.0993(4) 0.7453(3)
O2A O -0.02368(13) 0.4786(5) 0.8215(2)
O3A O -0.06744(16) 0.0843(5) 0.6651(3)
O4A O -0.23193(13) -0.3393(4) 0.6921(2)
O4C O 0.26807(13) 0.1607(4) 0.6921(2)
O4B O -0.26807(13) 0.1607(4) 0.8079(2)
O5A O 0.15055(14) 0.6319(5) 1.1227(2)
O5D O 0.15055(14) 0.3681(5) 0.6227(2)
O5E O -0.15055(14) 0.3681(5) 0.8773(2)
O6A O 0.11802(15) 0.8432(5) 1.1507(2)
O6D O 0.11802(15) 0.1568(5) 0.6507(2)
O6E O -0.11802(15) 0.1568(5) 0.8493(2)
O7A O -0.30074(18) 0.1355(6) 0.6176(3)
C1A C 0.05088(19) 0.7025(6) 1.0244(3)
C2A C -0.1073(2) -0.0335(7) 0.6456(3)
C4A C -0.0110(2) 0.5805(6) 0.8863(3)
C5A C -0.0482(2) 0.7835(7) 0.9323(4)
H1A H -0.0797 0.8490 0.9214
C6A C 0.04270(19) 0.5922(6) 0.9632(3)
H2A H 0.0739 0.5254 0.9741
C7A C -0.04932(19) 0.1835(7) 0.7386(3)
H3A H -0.0354 0.1178 0.7903
H4A H -0.0822 0.2496 0.7288
C8A C -0.1876(2) -0.2781(6) 0.5921(3)
H5A H -0.2139 -0.3642 0.5753
C9A C -0.17691(18) -0.1764(6) 0.6592(3)
C10A C -0.20905(19) -0.2042(6) 0.7005(3)
C11A C -0.1368(2) -0.0528(6) 0.6854(3)
H6A H -0.1299 0.0169 0.7299
O8A O -0.19921(18) 0.3608(5) 0.6763(3)
C12A C 0.0043(2) 0.7993(6) 1.0079(3)
H7A H 0.0094 0.8751 1.0490
C13A C 0.02361(19) 0.3889(6) 0.8307(3)
H8A H 0.0407 0.3199 0.8818
H9A H 0.0544 0.4611 0.8379
C14A C 0.1089(2) 0.7265(6) 1.1036(4)
C15A C -0.1597(3) -0.2518(8) 0.5517(4)
H10A H -0.1679 -0.3168 0.5048
C16A C -0.1186(3) -0.1282(7) 0.5792(4)
H11A H -0.0988 -0.1110 0.5513
C17A C -0.0569(2) 0.6751(7) 0.8715(3)
H12A H -0.0942 0.6651 0.8197
loop_
_geom_bond_atom_site_label_1
_geom_bond_atom_site_label_2
_geom_bond_site_symmetry_1
_geom_bond_site_symmetry_2
Cd1 O1 1_555 1_555
O1 C10 1_555 1_555
O2 C4 1_555 1_555
O3 C2 1_555 1_555
O4 C10 1_555 1_555
O5 C14 1_555 1_555
O6 C14 1_555 1_555
O7 Cd1 1_555 1_555
C1 C6 1_555 1_555
C2 C11 1_555 1_555
C3 C7 1_555 1_555
C4 C6 1_555 1_555
C5 H1 1_555 1_555
C6 H2 1_555 1_555
C7 O3 1_555 1_555
H3 C7 1_555 1_555
H4 C7 1_555 1_555
C8 H5 1_555 1_555
C9 C8 1_555 1_555
C10 C9 1_555 1_555
C11 C9 1_555 1_555
H6 C11 1_555 1_555
O8 Cd1 1_555 1_555
C12 C1 1_555 1_555
H7 C12 1_555 1_555
C13 O2 1_555 1_555
H8 C13 1_555 1_555
H9 C13 1_555 1_555
C14 C1 1_555 1_555
C15 C8 1_555 1_555
H10 C15 1_555 1_555
C16 C2 1_555 1_555
H11 C16 1_555 1_555
C17 C4 1_555 1_555
H12 C17 1_555 1_555
Cd1A O1A 1_555 1_555
Cd1C O4 1_555 1_555
Cd1D O5 1_555 1_555
Cd1B O4A 1_555 1_555
Cd1E O5A 1_555 1_555
O1A C10A 1_555 1_555
O2A C4A 1_555 1_555
O3A C2A 1_555 1_555
O4A C10A 1_555 1_555
O4C Cd1 1_555 1_555
O4B Cd1A 1_555 1_555
O5A C14A 1_555 1_555
O5D Cd1 1_555 1_555
O5E Cd1A 1_555 1_555
O6A Cd1E 1_555 1_555
O6D Cd1 1_555 1_555
O6E Cd1A 1_555 1_555
O7A Cd1A 1_555 1_555
C1A C6A 1_555 1_555
C2A C11A 1_555 1_555
C4A C6A 1_555 1_555
C5A H1A 1_555 1_555
C6A H2A 1_555 1_555
C7A C3 1_555 1_555
H3A C7A 1_555 1_555
H4A C7A 1_555 1_555
C8A H5A 1_555 1_555
C9A C8A 1_555 1_555
C10A C9A 1_555 1_555
C11A C9A 1_555 1_555
H6A C11A 1_555 1_555
O8A Cd1A 1_555 1_555
C12A C1A 1_555 1_555
H7A C12A 1_555 1_555
C13A C3 1_555 1_555
H8A C13A 1_555 1_555
H9A C13A 1_555 1_555
C14A O6A 1_555 1_555
C15A C8A 1_555 1_555
H10A C15A 1_555 1_555
C16A C2A 1_555 1_555
H11A C16A 1_555 1_555
C17A C4A 1_555 1_555
H12A C17A 1_555 1_555
O6 Cd1D 1_555 1_555
C3 C13 1_555 1_555
C5 C12 1_555 1_555
C5 C17 1_555 1_555
C15 C16 1_555 1_555
O2A C13A 1_555 1_555
O3A C7A 1_555 1_555
C1A C14A 1_555 1_555
C5A C12A 1_555 1_555
C5A C17A 1_555 1_555
C15A C16A 1_555 1_555

#END
