
#######################################################################
#
#                 Cambridge Crystallographic Data Centre
#                                CCDC 
#
#######################################################################
#
# If this CIF has been generated from an entry in the Cambridge 
# Structural Database, then it will include bibliographic, chemical, 
# crystal, experimental, refinement or atomic coordinate data resulting 
# from the CCDC's data processing and validation procedures.
#
#######################################################################

data_XAPQIQ
_symmetry_cell_setting           triclinic
_symmetry_space_group_name_H-M   'P -1'
_symmetry_Int_Tables_number      2
_space_group_name_Hall           '-P 1'
loop_
_symmetry_equiv_pos_site_id
_symmetry_equiv_pos_as_xyz
1 x,y,z
2 -x,-y,-z
_cell_length_a                   10.597(2)
_cell_length_b                   11.339(2)
_cell_length_c                   12.328(3)
_cell_angle_alpha                90.07(3)
_cell_angle_beta                 97.99(3)
_cell_angle_gamma                98.91(3)
_cell_volume                     1448.85
loop_
_atom_site_label
_atom_site_type_symbol
_atom_site_fract_x
_atom_site_fract_y
_atom_site_fract_z
Cd1 Cd 0.42405(4) -0.20128(3) 0.57083(3)
Cd2 Cd 0.5000 -0.5000 0.5000
Cd3 Cd 0.37572(4) -0.35847(3) 0.23123(3)
S1 S 0.48562(13) 0.08418(10) 0.67458(9)
Cl1 Cl 0.16508(15) -0.46597(14) 0.15781(12)
Cl2 Cl 0.61464(13) -0.31283(10) 0.62713(9)
Cl3 Cl 0.58433(13) -0.41740(11) 0.32109(9)
Cl4 Cl 0.69477(12) -0.61290(10) 0.55650(9)
N1 N 0.2829(4) -0.2529(4) 0.6907(3)
N2 N 0.1560(5) -0.2382(4) 0.8148(3)
N3 N 0.1851(5) 0.2324(4) 0.5398(4)
N4 N 0.0418(4) 0.2223(4) 0.6475(3)
N5 N 0.5567(4) 0.3224(4) 0.9320(3)
N6 N 0.4119(4) 0.2678(4) 1.0422(3)
O1 O 0.5206(4) -0.0363(3) 0.6719(3)
O2 O 0.3863(4) 0.0891(3) 0.7434(3)
O3 O 0.4386(3) 0.1192(3) 0.5610(2)
O4 O 0.6062(3) 0.1658(3) 0.7155(3)
O5 O 0.2800(4) -0.0866(4) 0.4701(3)
C1 C 0.1095(5) -0.0529(4) 0.9037(4)
C2 C 0.0327(5) 0.0035(4) 0.8239(4)
C3 C 0.0434(5) 0.1279(5) 0.8279(4)
C4 C 0.1277(5) 0.1954(4) 0.9101(4)
C5 C 0.2026(5) 0.1376(5) 0.9895(4)
C6 C 0.1979(5) 0.0135(5) 0.9830(4)
C7 C 0.2923(7) -0.0450(6) 1.0588(5)
H1 H 0.2587 -0.0623 1.1273
H2 H 0.3740 0.0083 1.0729
H3 H 0.3051 -0.1188 1.0250
C8 C -0.0598(6) -0.0686(5) 0.7345(5)
H4 H -0.1478 -0.0686 0.7482
H5 H -0.0422 -0.1500 0.7339
H6 H -0.0487 -0.0334 0.6641
C9 C 0.1428(6) 0.3309(4) 0.9097(5)
H7 H 0.2035 0.3639 0.9726
H8 H 0.0598 0.3557 0.9132
H9 H 0.1746 0.3598 0.8429
C10 C 0.0940(6) -0.1881(5) 0.9012(4)
H10 H 0.1310 -0.2147 0.9726
H11 H 0.0018 -0.2205 0.8899
C11 C -0.0318(5) 0.1905(5) 0.7394(4)
H12 H -0.1127 0.1385 0.7119
H13 H -0.0535 0.2633 0.7704
C12 C 0.2944(5) 0.2102(5) 1.0805(4)
H14 H 0.2506 0.2712 1.1090
H15 H 0.3167 0.1574 1.1406
C13 C 0.1245(6) -0.3518(4) 0.7725(4)
H16 H 0.0608 -0.4121 0.7921
C14 C 0.2035(6) -0.3601(4) 0.6969(4)
H17 H 0.2043 -0.4290 0.6547
C15 C 0.2518(5) -0.1820(5) 0.7636(4)
H18 H 0.2913 -0.1024 0.7781
C16 C 0.1516(5) 0.1871(5) 0.6314(4)
H19 H 0.1976 0.1379 0.6778
C17 C 0.0979(6) 0.3005(6) 0.4954(5)
H20 H 0.1004 0.3440 0.4306
C18 C 0.0078(6) 0.2937(5) 0.5615(5)
H21 H -0.0661 0.3310 0.5512
C19 C 0.4461(6) 0.2563(5) 0.9416(4)
H22 H 0.3964 0.2067 0.8851
C20 C 0.5986(6) 0.3800(5) 1.0330(4)
H23 H 0.6759 0.4334 1.0514
C21 C 0.5087(6) 0.3464(5) 1.1016(4)
H24 H 0.5125 0.3719 1.1748
H25 H 0.296(6) -0.024(3) 0.498(4)
H26 H 0.253(6) 0.230(5) 0.520(4)
H27 H 0.281(6) -0.108(5) 0.416(4)
Cd1A Cd 0.57595(4) -0.79872(3) 0.42917(3)
Cd1A_2 Cd 0.57595(4) 0.20128(3) 0.42917(3)
Cd3A Cd 0.62428(4) -0.64153(3) 0.76877(3)
Cd3A_2 Cd 0.62428(4) 0.35847(3) 0.76877(3)
S1A S 0.51438(13) -0.08418(10) 0.32542(9)
Cl1A Cl 0.83492(15) -0.53403(14) 0.84219(12)
Cl2A Cl 0.38536(13) -0.68717(10) 0.37287(9)
Cl3A Cl 0.41567(13) -0.58260(11) 0.67891(9)
Cl4A Cl 0.30523(12) -0.38710(10) 0.44350(9)
N1A N 0.7171(4) 0.2529(4) 0.3093(3)
N1A_2 N 0.7171(4) -0.7471(4) 0.3093(3)
N2A N 0.8440(5) 0.2382(4) 0.1852(3)
N3A N 0.8149(5) -0.2324(4) 0.4602(4)
N4A N 0.9582(4) -0.2223(4) 0.3525(3)
N5A N 0.4433(4) -0.3224(4) 0.0680(3)
N5_2 N 0.5567(4) -0.6776(4) 0.9320(3)
N6A N 0.5881(4) -0.2678(4) -0.0422(3)
O1A O 0.4794(4) 0.0363(3) 0.3281(3)
O1A_2 O 0.4794(4) -0.9637(3) 0.3281(3)
O2A O 0.6137(4) -0.0891(3) 0.2566(3)
O3A O 0.5614(3) -0.1192(3) 0.4390(2)
O3_2 O 0.4386(3) -0.8808(3) 0.5610(2)
O4A O 0.3938(3) -0.1658(3) 0.2845(3)
O4_2 O 0.6062(3) -0.8342(3) 0.7155(3)
O5A O 0.7200(4) -0.9134(4) 0.5299(3)
C1A C 0.8905(5) 0.0529(4) 0.0963(4)
C2A C 0.9673(5) -0.0035(4) 0.1761(4)
C3A C 0.9566(5) -0.1279(5) 0.1721(4)
C4A C 0.8723(5) -0.1954(4) 0.0899(4)
C5A C 0.7974(5) -0.1376(5) 0.0105(4)
C6A C 0.8021(5) -0.0135(5) 0.0170(4)
C7A C 0.7077(7) 0.0450(6) -0.0588(5)
H1A H 0.7413 0.0623 -0.1273
H2A H 0.6260 -0.0083 -0.0729
H3A H 0.6949 0.1188 -0.0250
C8A C 1.0598(6) 0.0686(5) 0.2655(5)
H4A H 1.1478 0.0686 0.2518
H5A H 1.0422 0.1500 0.2661
H6A H 1.0487 0.0334 0.3359
C9A C 0.8572(6) -0.3309(4) 0.0903(5)
H7A H 0.7965 -0.3639 0.0274
H8A H 0.9402 -0.3557 0.0868
H9A H 0.8254 -0.3598 0.1571
C10A C 0.9060(6) 0.1881(5) 0.0988(4)
H10A H 0.8690 0.2147 0.0274
H11A H 0.9982 0.2205 0.1101
C11A C 1.0318(5) -0.1905(5) 0.2606(4)
H12A H 1.1127 -0.1385 0.2881
H13A H 1.0535 -0.2633 0.2296
C12A C 0.7056(5) -0.2102(5) -0.0805(4)
H14A H 0.7494 -0.2712 -0.1090
H15A H 0.6833 -0.1574 -0.1406
C13A C 0.8755(6) 0.3518(4) 0.2275(4)
H16A H 0.9392 0.4121 0.2079
C14A C 0.7965(6) 0.3601(4) 0.3031(4)
H17A H 0.7957 0.4290 0.3453
C15A C 0.7482(5) 0.1820(5) 0.2364(4)
H18A H 0.7087 0.1024 0.2219
C16A C 0.8484(5) -0.1871(5) 0.3686(4)
H19A H 0.8024 -0.1379 0.3222
C17A C 0.9021(6) -0.3005(6) 0.5046(5)
H20A H 0.8996 -0.3440 0.5694
C18A C 0.9922(6) -0.2937(5) 0.4385(5)
H21A H 1.0661 -0.3310 0.4488
C19A C 0.5539(6) -0.2563(5) 0.0584(4)
H22A H 0.6036 -0.2067 0.1149
C20A C 0.4014(6) -0.3800(5) -0.0330(4)
H23A H 0.3241 -0.4334 -0.0514
C21A C 0.4913(6) -0.3464(5) -0.1016(4)
H24A H 0.4875 -0.3719 -0.1748
H25A H 0.704(6) -0.976(3) 0.502(4)
H26A H 0.747(6) -0.230(5) 0.480(4)
H27A H 0.719(6) -0.892(5) 0.584(4)
loop_
_geom_bond_atom_site_label_1
_geom_bond_atom_site_label_2
_geom_bond_site_symmetry_1
_geom_bond_site_symmetry_2
Cd1 Cl2 1_555 1_555
Cd2 Cl2 1_555 1_555
Cd3 Cl1 1_555 1_555
S1 O1 1_555 1_555
Cl3 Cd2 1_555 1_555
Cl4 Cd2 1_555 1_555
N1 Cd1 1_555 1_555
N2 C10 1_555 1_555
N3 C16 1_555 1_555
N4 C11 1_555 1_555
N5 C19 1_555 1_555
N6 C12 1_555 1_555
O1 Cd1 1_555 1_555
O2 S1 1_555 1_555
O3 S1 1_555 1_555
O4 S1 1_555 1_555
O5 Cd1 1_555 1_555
C1 C2 1_555 1_555
C2 C3 1_555 1_555
C3 C4 1_555 1_555
C4 C5 1_555 1_555
C5 C6 1_555 1_555
C6 C1 1_555 1_555
C7 C6 1_555 1_555
H1 C7 1_555 1_555
H2 C7 1_555 1_555
H3 C7 1_555 1_555
C8 C2 1_555 1_555
H4 C8 1_555 1_555
H5 C8 1_555 1_555
H6 C8 1_555 1_555
C9 C4 1_555 1_555
H7 C9 1_555 1_555
H8 C9 1_555 1_555
H9 C9 1_555 1_555
C10 C1 1_555 1_555
H10 C10 1_555 1_555
H11 C10 1_555 1_555
C11 C3 1_555 1_555
H12 C11 1_555 1_555
H13 C11 1_555 1_555
C12 C5 1_555 1_555
H14 C12 1_555 1_555
H15 C12 1_555 1_555
C13 N2 1_555 1_555
H16 C13 1_555 1_555
C14 N1 1_555 1_555
H17 C14 1_555 1_555
C15 N1 1_555 1_555
H18 C15 1_555 1_555
C16 N4 1_555 1_555
H19 C16 1_555 1_555
C17 N3 1_555 1_555
H20 C17 1_555 1_555
C18 N4 1_555 1_555
H21 C18 1_555 1_555
C19 N6 1_555 1_555
H22 C19 1_555 1_555
C20 N5 1_555 1_555
H23 C20 1_555 1_555
C21 N6 1_555 1_555
H24 C21 1_555 1_555
H25 O5 1_555 1_555
H26 N3 1_555 1_555
H27 O5 1_555 1_555
Cd1A Cl4 1_555 1_555
Cd1A_2 O3 1_555 1_555
Cd3A Cl4 1_555 1_555
Cd3A_2 N5 1_555 1_555
S1A O1A 1_555 1_555
Cl1A Cd3A 1_555 1_555
Cl2A Cd2 1_555 1_555
Cl3A Cd2 1_555 1_555
Cl4A Cd1 1_555 1_555
N1A Cd1A_2 1_555 1_555
N1A_2 Cd1A 1_555 1_555
N2A C10A 1_555 1_555
N3A C16A 1_555 1_555
N4A C11A 1_555 1_555
N5A Cd3 1_555 1_555
N5_2 Cd3A 1_555 1_555
N6A C12A 1_555 1_555
O1A Cd1A_2 1_555 1_555
O1A_2 Cd1A 1_555 1_555
O2A S1A 1_555 1_555
O3A Cd1 1_555 1_555
O3_2 Cd1A 1_555 1_555
O4A Cd3 1_555 1_555
O4_2 Cd3A 1_555 1_555
O5A Cd1A 1_555 1_555
C1A C2A 1_555 1_555
C2A C3A 1_555 1_555
C3A C4A 1_555 1_555
C4A C5A 1_555 1_555
C5A C6A 1_555 1_555
C6A C1A 1_555 1_555
C7A C6A 1_555 1_555
H1A C7A 1_555 1_555
H2A C7A 1_555 1_555
H3A C7A 1_555 1_555
C8A C2A 1_555 1_555
H4A C8A 1_555 1_555
H5A C8A 1_555 1_555
H6A C8A 1_555 1_555
C9A C4A 1_555 1_555
H7A C9A 1_555 1_555
H8A C9A 1_555 1_555
H9A C9A 1_555 1_555
C10A C1A 1_555 1_555
H10A C10A 1_555 1_555
H11A C10A 1_555 1_555
C11A C3A 1_555 1_555
H12A C11A 1_555 1_555
H13A C11A 1_555 1_555
C12A C5A 1_555 1_555
H14A C12A 1_555 1_555
H15A C12A 1_555 1_555
C13A N2A 1_555 1_555
H16A C13A 1_555 1_555
C14A N1A 1_555 1_555
H17A C14A 1_555 1_555
C15A N1A 1_555 1_555
H18A C15A 1_555 1_555
C16A N4A 1_555 1_555
H19A C16A 1_555 1_555
C17A N3A 1_555 1_555
H20A C17A 1_555 1_555
C18A N4A 1_555 1_555
H21A C18A 1_555 1_555
C19A N5A 1_555 1_555
H22A C19A 1_555 1_555
C20A N5A 1_555 1_555
H23A C20A 1_555 1_555
C21A N6A 1_555 1_555
H24A C21A 1_555 1_555
H25A O5A 1_555 1_555
H26A N3A 1_555 1_555
H27A O5A 1_555 1_555
Cd2 Cl4A 1_555 1_555
Cd3 Cl3 1_555 1_555
Cd3 Cl4A 1_555 1_555
N2 C15 1_555 1_555
O4 Cd3A_2 1_555 1_555
C13 C14 1_555 1_555
C17 C18 1_555 1_555
C20 C21 1_555 1_555
Cd1A Cl2A 1_555 1_555
Cd3A Cl3A 1_555 1_555
S1A O3A 1_555 1_555
S1A O4A 1_555 1_555
N2A C15A 1_555 1_555
N6A C19A 1_555 1_555
C13A C14A 1_555 1_555
C17A C18A 1_555 1_555
C20A C21A 1_555 1_555

#END
