
#######################################################################
#
#                 Cambridge Crystallographic Data Centre
#                                CCDC 
#
#######################################################################
#
# If this CIF has been generated from an entry in the Cambridge 
# Structural Database, then it will include bibliographic, chemical, 
# crystal, experimental, refinement or atomic coordinate data resulting 
# from the CCDC's data processing and validation procedures.
#
#######################################################################

data_XAPRIR01
_symmetry_cell_setting           orthorhombic
_symmetry_space_group_name_H-M   'P 21 21 21'
_symmetry_Int_Tables_number      19
_space_group_name_Hall           'P 2ac 2ab'
loop_
_symmetry_equiv_pos_site_id
_symmetry_equiv_pos_as_xyz
1 x,y,z
2 1/2-x,-y,1/2+z
3 -x,1/2+y,1/2-z
4 1/2+x,1/2-y,-z
_cell_length_a                   6.7519(14)
_cell_length_b                   13.246(3)
_cell_length_c                   13.270(3)
_cell_angle_alpha                90
_cell_angle_beta                 90
_cell_angle_gamma                90
_cell_volume                     1186.81
loop_
_atom_site_label
_atom_site_type_symbol
_atom_site_fract_x
_atom_site_fract_y
_atom_site_fract_z
Mn1 Mn 0.07130(17) -0.12145(7) 0.48887(6)
C1 C -0.0286(11) 0.0721(5) 0.3687(5)
C2 C -0.0590(11) 0.1355(5) 0.2877(4)
H1 H -0.0462 0.2048 0.2964
C3 C -0.1080(10) 0.0980(5) 0.1941(4)
C4 C -0.1197(11) -0.0052(5) 0.1828(5)
H2 H -0.1527 -0.0338 0.1210
C5 C -0.0813(12) -0.0652(5) 0.2655(4)
H3 H -0.0882 -0.1348 0.2575
C6 C -0.1469(12) 0.1687(5) 0.1083(5)
C7 C 0.0127(10) 0.1101(5) 0.4728(4)
C8 C -0.0053(11) 0.2110(5) 0.4978(4)
H4 H -0.0358 0.2581 0.4481
C9 C 0.0218(11) 0.2421(5) 0.5961(4)
C10 C 0.0733(12) 0.1706(5) 0.6671(4)
H5 H 0.0924 0.1891 0.7340
C11 C 0.0961(11) 0.0713(5) 0.6375(4)
H6 H 0.1340 0.0239 0.6855
C12 C -0.0120(11) 0.3527(5) 0.6224(4)
N1 N 0.0658(9) 0.0405(4) 0.5427(4)
N2 N -0.0343(8) -0.0289(4) 0.3574(4)
O1 O 0.3772(7) -0.1004(3) 0.4354(3)
O2 O 0.1455(7) -0.2115(4) 0.6209(3)
O3 O -0.0492(8) 0.2507(3) 0.1090(3)
O4 O -0.2732(7) 0.1429(3) 0.0424(3)
O5 O -0.0559(8) 0.3747(3) 0.7110(3)
O6 O 0.0105(7) 0.4137(3) 0.5503(3)
Mn1A Mn -0.57130(17) 0.12145(7) -0.01113(6)
Mn1B Mn -0.07130(17) 0.37855(7) 0.01113(6)
O3B O 0.0492(8) -0.2493(3) 0.3910(3)
O4A O -0.2268(7) -0.1429(3) 0.5424(3)
loop_
_geom_bond_atom_site_label_1
_geom_bond_atom_site_label_2
_geom_bond_site_symmetry_1
_geom_bond_site_symmetry_2
Mn1 N1 1_555 1_555
C1 C2 1_555 1_555
C2 H1 1_555 1_555
C3 C2 1_555 1_555
C4 C3 1_555 1_555
H2 C4 1_555 1_555
C5 C4 1_555 1_555
H3 C5 1_555 1_555
C6 C3 1_555 1_555
C7 C1 1_555 1_555
C8 C7 1_555 1_555
H4 C8 1_555 1_555
C9 C8 1_555 1_555
C10 C9 1_555 1_555
H5 C10 1_555 1_555
C11 C10 1_555 1_555
H6 C11 1_555 1_555
C12 C9 1_555 1_555
N1 C7 1_555 1_555
N2 Mn1 1_555 1_555
O1 Mn1 1_555 1_555
O2 Mn1 1_555 1_555
O3 C6 1_555 1_555
O4 C6 1_555 1_555
O5 C12 1_555 1_555
O6 C12 1_555 1_555
Mn1A O4 1_555 1_555
Mn1B O3 1_555 1_555
O3B Mn1 1_555 1_555
O4A Mn1 1_555 1_555
C1 N2 1_555 1_555
C5 N2 1_555 1_555
C11 N1 1_555 1_555

#END
