
#######################################################################
#
#                 Cambridge Crystallographic Data Centre
#                                CCDC 
#
#######################################################################
#
# If this CIF has been generated from an entry in the Cambridge 
# Structural Database, then it will include bibliographic, chemical, 
# crystal, experimental, refinement or atomic coordinate data resulting 
# from the CCDC's data processing and validation procedures.
#
#######################################################################

data_XAPRIR
_symmetry_cell_setting           orthorhombic
_symmetry_space_group_name_H-M   'P 21 21 21'
_symmetry_Int_Tables_number      19
_space_group_name_Hall           'P 2ac 2ab'
loop_
_symmetry_equiv_pos_site_id
_symmetry_equiv_pos_as_xyz
1 x,y,z
2 1/2-x,-y,1/2+z
3 -x,1/2+y,1/2-z
4 1/2+x,1/2-y,-z
_cell_length_a                   6.8325(14)
_cell_length_b                   13.292(3)
_cell_length_c                   13.295(3)
_cell_angle_alpha                90
_cell_angle_beta                 90
_cell_angle_gamma                90
_cell_volume                     1207.42
loop_
_atom_site_label
_atom_site_type_symbol
_atom_site_fract_x
_atom_site_fract_y
_atom_site_fract_z
O1 O -0.0187(6) 0.2931(3) 0.3951(3)
O2 O 0.2018(6) 0.3584(3) 0.4999(3)
C1 C 0.1030(8) 0.3581(4) 0.4189(4)
Mn1 Mn 0.31724(13) 0.73797(6) 0.12873(6)
N1 N 0.2119(8) 0.6064(3) 0.2217(3)
N2 N 0.3110(8) 0.7910(3) 0.2901(3)
C2 C 0.1897(9) 0.5378(4) 0.3859(4)
H1 H 0.2010 0.5466 0.4550
C3 C 0.2404(8) 0.7471(4) 0.4601(4)
H2 H 0.2094 0.6974 0.5067
C4 C 0.1689(10) 0.5155(4) 0.1854(4)
H3 H 0.1641 0.5075 0.1159
C5 C 0.2200(8) 0.6185(4) 0.3225(4)
C6 C 0.3166(10) 0.9158(4) 0.4196(4)
H4 H 0.3340 0.9828 0.4375
C7 C 0.2668(8) 0.8446(4) 0.4922(4)
C8 C 0.1425(7) 0.4437(4) 0.3478(4)
C9 C 0.3400(9) 0.8858(4) 0.3206(4)
H5 H 0.3776 0.9335 0.2732
C10 C 0.1307(9) 0.4320(4) 0.2452(4)
H6 H 0.0982 0.3703 0.2167
C11 C 0.2340(8) 0.8708(4) 0.6021(4)
C12 C 0.2592(7) 0.7217(4) 0.3595(4)
O3 O 0.1921(7) 0.9600(3) 0.6240(3)
O4 O 0.2546(7) 0.8004(3) 0.6632(3)
O5 O 0.6214(6) 0.6858(4) 0.1495(3)
H7 H 0.6460 0.6821 0.2097
O6 O 0.3944(7) 0.8704(3) 0.0419(4)
H8 H 0.5103 0.8676 0.0262
H9 H 0.356(15) 0.924(4) 0.068(7)
H10 H 0.710(16) 0.684(12) 0.106(9)
O1B O 0.0187(6) 0.7931(3) 0.1049(3)
O2A O 0.2982(6) 0.6416(3) -0.0001(3)
Mn1A Mn 0.18276(13) 0.26203(6) 0.62873(6)
Mn1B Mn -0.31724(13) 0.23797(6) 0.37127(6)
loop_
_geom_bond_atom_site_label_1
_geom_bond_atom_site_label_2
_geom_bond_site_symmetry_1
_geom_bond_site_symmetry_2
O1 C1 1_555 1_555
O2 C1 1_555 1_555
C1 C8 1_555 1_555
Mn1 N1 1_555 1_555
N1 C4 1_555 1_555
N2 Mn1 1_555 1_555
C2 H1 1_555 1_555
C3 H2 1_555 1_555
C4 H3 1_555 1_555
C5 N1 1_555 1_555
C6 H4 1_555 1_555
C7 C3 1_555 1_555
C8 C2 1_555 1_555
C9 N2 1_555 1_555
H5 C9 1_555 1_555
C10 C4 1_555 1_555
H6 C10 1_555 1_555
C11 C7 1_555 1_555
C12 N2 1_555 1_555
O3 C11 1_555 1_555
O4 C11 1_555 1_555
O5 Mn1 1_555 1_555
H7 O5 1_555 1_555
O6 Mn1 1_555 1_555
H8 O6 1_555 1_555
H9 O6 1_555 1_555
H10 O5 1_555 1_555
O1B Mn1 1_555 1_555
O2A Mn1 1_555 1_555
Mn1A O2 1_555 1_555
Mn1B O1 1_555 1_555
C2 C5 1_555 1_555
C3 C12 1_555 1_555
C5 C12 1_555 1_555
C6 C7 1_555 1_555
C6 C9 1_555 1_555
C8 C10 1_555 1_555

#END
