
#######################################################################
#
#                 Cambridge Crystallographic Data Centre
#                                CCDC 
#
#######################################################################
#
# If this CIF has been generated from an entry in the Cambridge 
# Structural Database, then it will include bibliographic, chemical, 
# crystal, experimental, refinement or atomic coordinate data resulting 
# from the CCDC's data processing and validation procedures.
#
#######################################################################

data_XAPSIS
_symmetry_cell_setting           monoclinic
_symmetry_space_group_name_H-M   'P 21/n'
_symmetry_Int_Tables_number      14
_space_group_name_Hall           '-P 2yn'
loop_
_symmetry_equiv_pos_site_id
_symmetry_equiv_pos_as_xyz
1 x,y,z
2 1/2-x,1/2+y,1/2-z
3 -x,-y,-z
4 1/2+x,1/2-y,1/2+z
_cell_length_a                   11.279(10)
_cell_length_b                   10.679(10)
_cell_length_c                   15.428(14)
_cell_angle_alpha                90
_cell_angle_beta                 95.276(14)
_cell_angle_gamma                90
_cell_volume                     1850.41
loop_
_atom_site_label
_atom_site_type_symbol
_atom_site_fract_x
_atom_site_fract_y
_atom_site_fract_z
Co1 Co 0.84900(5) 0.54034(6) 0.01117(3)
O1 O 0.9111(3) 0.4126(3) 0.09665(19)
O2 O 1.1098(3) 0.3874(3) 0.10118(17)
O3 O 1.2275(2) 0.0787(3) 0.44710(17)
O4 O 1.3245(3) 0.1505(4) 0.3364(2)
O5 O 0.7864(2) 0.1189(3) 0.43131(19)
O6 O 0.7062(3) 0.2790(3) 0.3509(2)
O7 O 0.9679(3) 0.6789(4) 0.0684(2)
H1 H 1.035(5) 0.664(5) 0.100(3)
H2 H 0.922(5) 0.721(5) 0.092(3)
C1 C 1.0108(4) 0.2998(4) 0.2141(3)
C2 C 1.1158(4) 0.2504(4) 0.2542(3)
H3 H 1.1866 0.2617 0.2287
C3 C 1.1166(4) 0.1844(4) 0.3318(3)
C4 C 1.0102(4) 0.1667(4) 0.3692(3)
H4 H 1.0101 0.1200 0.4201
C5 C 0.9035(4) 0.2177(4) 0.3316(3)
C6 C 0.9049(4) 0.2824(4) 0.2532(3)
H5 H 0.8342 0.3146 0.2264
C7 C 1.0097(4) 0.3715(4) 0.1299(3)
C8 C 1.2329(4) 0.1348(4) 0.3744(3)
C9 C 0.7880(4) 0.2048(5) 0.3736(3)
Co1B Co 1.15100(5) 0.45966(6) -0.01117(3)
Co1C Co 1.34900(5) -0.04034(6) 0.51117(3)
Co1A Co 0.65100(5) 0.04034(6) 0.48883(3)
O2B O 0.8902(3) 0.6126(3) -0.10118(17)
O3C O 0.7275(2) 0.4213(3) -0.05290(17)
O5A O 0.7136(2) 0.6189(3) 0.06869(19)
N1 N 0.8059(5) -0.3605(5) 0.4043(3)
N2 N 0.9471(5) -0.2589(5) 0.3478(3)
C10 C 0.8646(6) -0.2534(6) 0.4036(4)
H6 H 0.8501 -0.1840 0.4374
C11 C 0.9392(9) -0.3777(8) 0.3124(5)
H7 H 0.9864 -0.4090 0.2710
C12 C 0.8531(9) -0.4398(7) 0.3470(5)
H8 H 0.8294 -0.5218 0.3346
C13 C 0.7140(7) -0.3947(8) 0.4613(5)
H9 H 0.6510 -0.4407 0.4282
H10 H 0.6796 -0.3193 0.4837
C14 C 0.7679(9) -0.4763(8) 0.5384(5)
H11 H 0.8327 -0.4313 0.5704
H12 H 0.7999 -0.5530 0.5162
C15 C 0.6708(11) -0.5093(11) 0.6012(7)
H13 H 0.7059 -0.5586 0.6488
H14 H 0.6078 -0.5559 0.5700
H15 H 0.6391 -0.4334 0.6232
C16 C 1.0254(7) -0.1578(8) 0.3264(5)
H16 H 1.0112 -0.0856 0.3610
H17 H 1.0101 -0.1371 0.2658
H18 H 1.1068 -0.1837 0.3381
loop_
_geom_bond_atom_site_label_1
_geom_bond_atom_site_label_2
_geom_bond_site_symmetry_1
_geom_bond_site_symmetry_2
Co1 O1 1_555 1_555
O1 C7 1_555 1_555
O2 C7 1_555 1_555
O3 C8 1_555 1_555
O4 C8 1_555 1_555
O5 C9 1_555 1_555
O6 C9 1_555 1_555
O7 Co1 1_555 1_555
H1 O7 1_555 1_555
H2 O7 1_555 1_555
N1 C10 1_555 1_555
N2 C10 1_555 1_555
C1 C2 1_555 1_555
C2 H3 1_555 1_555
C3 C2 1_555 1_555
C4 C3 1_555 1_555
H4 C4 1_555 1_555
C5 C4 1_555 1_555
C6 C1 1_555 1_555
H5 C6 1_555 1_555
C7 C1 1_555 1_555
C8 C3 1_555 1_555
C9 C5 1_555 1_555
C10 H6 1_555 1_555
C11 N2 1_555 1_555
H7 C11 1_555 1_555
C12 N1 1_555 1_555
H8 C12 1_555 1_555
C13 N1 1_555 1_555
H9 C13 1_555 1_555
H10 C13 1_555 1_555
C14 C13 1_555 1_555
H11 C14 1_555 1_555
H12 C14 1_555 1_555
C15 C14 1_555 1_555
H13 C15 1_555 1_555
H14 C15 1_555 1_555
H15 C15 1_555 1_555
C16 N2 1_555 1_555
H16 C16 1_555 1_555
H17 C16 1_555 1_555
H18 C16 1_555 1_555
Co1B O2 1_555 1_555
Co1C O3 1_555 1_555
Co1A O5 1_555 1_555
O2B Co1 1_555 1_555
O3C Co1 1_555 1_555
O5A Co1 1_555 1_555
C5 C6 1_555 1_555
C11 C12 1_555 1_555

#END
