
#######################################################################
#
#                 Cambridge Crystallographic Data Centre
#                                CCDC 
#
#######################################################################
#
# If this CIF has been generated from an entry in the Cambridge 
# Structural Database, then it will include bibliographic, chemical, 
# crystal, experimental, refinement or atomic coordinate data resulting 
# from the CCDC's data processing and validation procedures.
#
#######################################################################

data_XAPSUE
_symmetry_cell_setting           triclinic
_symmetry_space_group_name_H-M   'P -1'
_symmetry_Int_Tables_number      2
_space_group_name_Hall           '-P 1'
loop_
_symmetry_equiv_pos_site_id
_symmetry_equiv_pos_as_xyz
1 x,y,z
2 -x,-y,-z
_cell_length_a                   11.4599(12)
_cell_length_b                   14.0932(14)
_cell_length_c                   17.1497(18)
_cell_angle_alpha                76.7970(10)
_cell_angle_beta                 72.1680(10)
_cell_angle_gamma                80.1000(10)
_cell_volume                     2551.44
loop_
_atom_site_label
_atom_site_type_symbol
_atom_site_fract_x
_atom_site_fract_y
_atom_site_fract_z
Al1 Al 0.5000 0.0000 1.0000
Cu1 Cu 0.96945(13) 0.18927(9) 0.96742(8)
Mo1 Mo 0.47461(8) 0.24427(6) 0.95200(5)
Mo2 Mo 0.76403(8) -0.13052(6) 0.92211(5)
Mo3 Mo 0.74085(8) 0.11145(6) 0.87297(5)
C1 C 1.1415(11) 0.3015(8) 0.8168(7)
H1 H 1.1824 0.2421 0.8029
C2 C 1.1849(11) 0.3868(8) 0.7679(7)
H2 H 1.2525 0.3846 0.7212
C3 C 1.1284(12) 0.4752(9) 0.7880(7)
H3 H 1.1579 0.5330 0.7552
C4 C 1.0261(10) 0.4789(8) 0.8579(6)
C5 C 0.9571(11) 0.5678(7) 0.8859(7)
H4 H 0.9794 0.6286 0.8550
C6 C 0.8629(11) 0.5637(7) 0.9548(7)
H5 H 0.8218 0.6217 0.9716
C7 C 0.8234(10) 0.4719(8) 1.0038(7)
C8 C 0.7246(11) 0.4610(8) 1.0779(7)
H6 H 0.6782 0.5159 1.0977
C9 C 0.6978(11) 0.3681(8) 1.1203(7)
H7 H 0.6314 0.3607 1.1679
C10 C 0.7692(10) 0.2848(8) 1.0928(7)
H8 H 0.7528 0.2228 1.1237
C11 C 0.8872(9) 0.3839(7) 0.9776(6)
C12 C 0.9868(9) 0.3884(7) 0.9039(6)
C25 C 1.0467(10) 0.0002(8) 0.9583(6)
N1 N 1.0425(8) 0.3001(6) 0.8838(5)
N2 N 0.8603(8) 0.2943(6) 1.0228(5)
O1 O 0.5901(6) 0.1016(4) 1.0004(4)
H17 H 0.5917 0.1177 1.0448
O2 O 0.6110(5) -0.0056(4) 0.8941(4)
H18 H 0.5960 -0.0035 0.8378
O3 O 0.6095(6) -0.1028(4) 1.0398(4)
H19 H 0.6329 -0.0656 1.0695
O4 O 0.5973(6) 0.1989(4) 0.8573(4)
O5 O 0.8093(6) -0.0077(4) 0.9298(4)
O6 O 0.3602(6) 0.2127(5) 1.0607(4)
O7 O 0.8200(7) 0.1877(5) 0.8960(5)
O8 O 0.8088(6) 0.1037(5) 0.7716(4)
O9 O 0.8597(6) -0.2037(5) 0.9745(4)
O10 O 0.8345(6) -0.1315(5) 0.8178(4)
O11 O 0.3811(7) 0.3165(5) 0.8973(4)
O12 O 0.5523(7) 0.3221(5) 0.9750(5)
O25 O 1.0715(7) 0.0805(5) 0.9135(4)
O26 O 1.0971(7) -0.0823(5) 0.9401(4)
Cu1A Cu 0.03055(13) -0.18927(9) 1.03258(8)
Cu1A_2 Cu 1.03055(13) -0.18927(9) 1.03258(8)
Mo1A Mo 0.52539(8) -0.24427(6) 1.04800(5)
Mo2A Mo 0.23597(8) 0.13052(6) 1.07789(5)
Mo3A Mo 0.25915(8) -0.11145(6) 1.12703(5)
C1A C -0.1415(11) -0.3015(8) 1.1832(7)
H1A H -0.1824 -0.2421 1.1971
C2A C -0.1849(11) -0.3868(8) 1.2321(7)
H2A H -0.2525 -0.3846 1.2788
C3A C -0.1284(12) -0.4752(9) 1.2120(7)
H3A H -0.1579 -0.5330 1.2448
C4A C -0.0261(10) -0.4789(8) 1.1421(6)
C5A C 0.0429(11) -0.5678(7) 1.1141(7)
H4A H 0.0206 -0.6286 1.1450
C6A C 0.1371(11) -0.5637(7) 1.0452(7)
H5A H 0.1782 -0.6217 1.0284
C7A C 0.1766(10) -0.4719(8) 0.9962(7)
C8A C 0.2754(11) -0.4610(8) 0.9221(7)
H6A H 0.3218 -0.5159 0.9023
C9A C 0.3022(11) -0.3681(8) 0.8797(7)
H7A H 0.3686 -0.3607 0.8321
C10A C 0.2308(10) -0.2848(8) 0.9072(7)
H8A H 0.2472 -0.2228 0.8763
C11A C 0.1128(9) -0.3839(7) 1.0224(6)
C12A C 0.0132(9) -0.3884(7) 1.0961(6)
C25A C 0.9533(10) -0.0002(8) 1.0417(6)
N1A N -0.0425(8) -0.3001(6) 1.1162(5)
N2A N 0.1397(8) -0.2943(6) 0.9772(5)
O1A O 0.4099(6) -0.1016(4) 0.9996(4)
H17A H 0.4083 -0.1177 0.9552
O2A O 0.3890(5) 0.0056(4) 1.1059(4)
H18A H 0.4040 0.0035 1.1622
O3A O 0.3905(6) 0.1028(4) 0.9602(4)
H19A H 0.3671 0.0656 0.9305
O4A O 0.4027(6) -0.1989(4) 1.1427(4)
O5A O 0.1907(6) 0.0077(4) 1.0702(4)
O6A O 0.6398(6) -0.2127(5) 0.9393(4)
O7A O 0.1800(7) -0.1877(5) 1.1040(5)
O8A O 0.1912(6) -0.1037(5) 1.2284(4)
O9A O 0.1403(6) 0.2037(5) 1.0255(4)
O10A O 0.1655(6) 0.1315(5) 1.1822(4)
O11A O 0.6189(7) -0.3165(5) 1.1027(4)
O12A O 0.4477(7) -0.3221(5) 1.0250(5)
O25A O 0.9285(7) -0.0805(5) 1.0865(4)
O25A_2 O -0.0715(7) -0.0805(5) 1.0865(4)
O26A O 0.9029(7) 0.0823(5) 1.0599(4)
O26_2 O 0.0971(7) -0.0823(5) 0.9401(4)
Al2 Al 0.5000 1.0000 0.5000
Mo4 Mo 0.65873(9) 0.78847(7) 0.55674(6)
Mo5 Mo 0.67157(8) 0.87058(7) 0.35816(6)
Mo6 Mo 0.48665(9) 0.91837(7) 0.69889(6)
O13 O 0.4715(6) 0.8822(4) 0.5783(4)
H20 H 0.4011 0.8523 0.5917
O14 O 0.6651(6) 0.9399(4) 0.4685(4)
O15 O 0.4809(6) 0.9515(5) 0.4121(4)
H21 H 0.4272 0.9223 0.3925
O16 O 0.6484(6) 0.8679(5) 0.6365(4)
O17 O 0.6223(6) 0.7748(5) 0.4585(4)
O18 O 0.6715(6) 1.0046(5) 0.2990(4)
O19 O 0.6048(8) 0.6858(5) 0.6208(5)
O20 O 0.8155(6) 0.7643(5) 0.5318(4)
O21 O 0.8272(6) 0.8409(6) 0.3346(5)
O22 O 0.6216(7) 0.8186(6) 0.2950(5)
O23 O 0.5357(8) 0.9716(7) 0.7610(5)
O24 O 0.4332(8) 0.8148(6) 0.7588(5)
Mo4A Mo 0.34127(9) 1.21153(7) 0.44326(6)
Mo5A Mo 0.32843(8) 1.12942(7) 0.64184(6)
Mo6A Mo 0.51335(9) 1.08163(7) 0.30111(6)
O13A O 0.5285(6) 1.1178(4) 0.4217(4)
H20A H 0.5989 1.1477 0.4083
O14A O 0.3349(6) 1.0601(4) 0.5315(4)
O15A O 0.5191(6) 1.0485(5) 0.5879(4)
H21A H 0.5728 1.0777 0.6075
O16A O 0.3516(6) 1.1321(5) 0.3635(4)
O17A O 0.3777(6) 1.2252(5) 0.5415(4)
O18A O 0.3285(6) 0.9954(5) 0.7010(4)
O19A O 0.3952(8) 1.3142(5) 0.3792(5)
O20A O 0.1845(6) 1.2357(5) 0.4682(4)
O21A O 0.1728(6) 1.1591(6) 0.6654(5)
O22A O 0.3784(7) 1.1814(6) 0.7050(5)
O23A O 0.4643(8) 1.0284(7) 0.2390(5)
O24A O 0.5668(8) 1.1852(6) 0.2412(5)
Cu2 Cu 0.94402(12) 0.73819(9) 0.63279(8)
C13 C 0.7175(9) 0.6915(7) 0.7802(6)
H9 H 0.7022 0.7577 0.7835
C14 C 0.6382(10) 0.6282(8) 0.8362(6)
H10 H 0.5696 0.6525 0.8748
C15 C 0.6590(11) 0.5317(8) 0.8355(7)
H11 H 0.6071 0.4888 0.8748
C16 C 0.7617(10) 0.4954(7) 0.7739(7)
C17 C 0.7945(13) 0.3966(8) 0.7672(9)
H12 H 0.7463 0.3500 0.8048
C18 C 0.8919(13) 0.3670(8) 0.7090(8)
H13 H 0.9088 0.3008 0.7061
C19 C 0.9714(12) 0.4349(8) 0.6507(7)
C20 C 1.0758(13) 0.4094(9) 0.5865(8)
H14 H 1.0966 0.3448 0.5787
C21 C 1.1429(13) 0.4784(10) 0.5379(9)
H15 H 1.2130 0.4617 0.4966
C22 C 1.1110(11) 0.5773(9) 0.5471(7)
H16 H 1.1606 0.6245 0.5121
C23 C 0.9395(10) 0.5334(7) 0.6564(6)
C24 C 0.8356(9) 0.5646(7) 0.7189(6)
N3 N 0.8157(8) 0.6621(6) 0.7211(5)
N4 N 1.0100(8) 0.6041(6) 0.6056(5)
O27 O 0.8647(6) 0.8692(5) 0.6564(4)
O28 O 1.0679(7) 0.8035(5) 0.5354(4)
O29 O 1.0777(7) 0.7381(6) 0.7111(5)
O30 O 0.0244(7) 0.8647(6) 0.3853(4)
O31 O 0.1262(8) 0.9650(6) 0.5773(7)
O32 O 0.8982(9) 0.0823(7) 0.2486(6)
O33 O 0.2995(13) 0.8686(10) 0.3936(8)
O34 O 0.5740(12) 0.2794(10) 0.7023(8)
O35 O 0.3129(16) 0.7487(13) 0.5888(11)
O36 O 0.6869(12) 0.9745(13) 0.1348(8)
loop_
_geom_bond_atom_site_label_1
_geom_bond_atom_site_label_2
_geom_bond_site_symmetry_1
_geom_bond_site_symmetry_2
Al1 O1 1_555 1_555
Al2 O13 1_555 1_555
Cu1 N1 1_555 1_555
Cu2 N3 1_555 1_555
Mo1 O1 1_555 1_555
Mo2 O2 1_555 1_555
Mo3 O1 1_555 1_555
Mo4 O13 1_555 1_555
Mo5 O14 1_555 1_555
Mo6 O13 1_555 1_555
C1 H1 1_555 1_555
C2 C1 1_555 1_555
H2 C2 1_555 1_555
C3 C2 1_555 1_555
H3 C3 1_555 1_555
C4 C3 1_555 1_555
C5 C4 1_555 1_555
H4 C5 1_555 1_555
C6 C5 1_555 1_555
H5 C6 1_555 1_555
C7 C6 1_555 1_555
C8 C7 1_555 1_555
H6 C8 1_555 1_555
C9 C8 1_555 1_555
H7 C9 1_555 1_555
C10 C9 1_555 1_555
H8 C10 1_555 1_555
C11 C7 1_555 1_555
C12 C4 1_555 1_555
C13 H9 1_555 1_555
C14 C13 1_555 1_555
H10 C14 1_555 1_555
C15 C14 1_555 1_555
H11 C15 1_555 1_555
C16 C15 1_555 1_555
C17 C16 1_555 1_555
H12 C17 1_555 1_555
C18 C17 1_555 1_555
H13 C18 1_555 1_555
C19 C18 1_555 1_555
C20 C19 1_555 1_555
H14 C20 1_555 1_555
C21 C20 1_555 1_555
H15 C21 1_555 1_555
C22 C21 1_555 1_555
H16 C22 1_555 1_555
C23 C19 1_555 1_555
C24 C16 1_555 1_555
C25 O25 1_555 1_555
N1 C1 1_555 1_555
N2 Cu1 1_555 1_555
N3 C13 1_555 1_555
N4 Cu2 1_555 1_555
O1 H17 1_555 1_555
O2 Al1 1_555 1_555
H18 O2 1_555 1_555
O3 Al1 1_555 1_555
H19 O3 1_555 1_555
O4 Mo1 1_555 1_555
O5 Mo2 1_555 1_555
O6 Mo1 1_555 1_555
O7 Cu1 1_555 1_555
O8 Mo3 1_555 1_555
O9 Mo2 1_555 1_555
O10 Mo2 1_555 1_555
O11 Mo1 1_555 1_555
O12 Mo1 1_555 1_555
O13 H20 1_555 1_555
O14 Al2 1_555 1_555
O15 Al2 1_555 1_555
H21 O15 1_555 1_555
O16 Mo4 1_555 1_555
O17 Mo4 1_555 1_555
O18 Mo5 1_555 1_555
O19 Mo4 1_555 1_555
O20 Mo4 1_555 1_555
O21 Mo5 1_555 1_555
O22 Mo5 1_555 1_555
O23 Mo6 1_555 1_555
O24 Mo6 1_555 1_555
O25 Cu1 1_555 1_555
O26 C25 1_555 1_555
O27 Cu2 1_555 1_555
O28 Cu2 1_555 1_555
O29 Cu2 1_555 1_555
Cu1A N1A 1_555 1_555
Cu1A_2 O26 1_555 1_555
Mo1A O3 1_555 1_555
Mo2A O6 1_555 1_555
Mo3A O1A 1_555 1_555
Mo4A O13A 1_555 1_555
Mo5A O14A 1_555 1_555
Mo6A O15 1_555 1_555
C1A H1A 1_555 1_555
C2A C1A 1_555 1_555
H2A C2A 1_555 1_555
C3A C2A 1_555 1_555
H3A C3A 1_555 1_555
C4A C3A 1_555 1_555
C5A C4A 1_555 1_555
H4A C5A 1_555 1_555
C6A C5A 1_555 1_555
H5A C6A 1_555 1_555
C7A C6A 1_555 1_555
C8A C7A 1_555 1_555
H6A C8A 1_555 1_555
C9A C8A 1_555 1_555
H7A C9A 1_555 1_555
C10A C9A 1_555 1_555
H8A C10A 1_555 1_555
C11A C7A 1_555 1_555
C12A C4A 1_555 1_555
C25A C25 1_555 1_555
N1A C1A 1_555 1_555
N2A Cu1A 1_555 1_555
O1A Al1 1_555 1_555
H17A O1A 1_555 1_555
O2A Al1 1_555 1_555
H18A O2A 1_555 1_555
O3A Al1 1_555 1_555
H19A O3A 1_555 1_555
O4A Mo1A 1_555 1_555
O5A Mo2A 1_555 1_555
O6A Mo2 1_555 1_555
O7A Cu1A 1_555 1_555
O8A Mo3A 1_555 1_555
O9A Mo2A 1_555 1_555
O10A Mo2A 1_555 1_555
O11A Mo1A 1_555 1_555
O12A Mo1A 1_555 1_555
O13A Al2 1_555 1_555
H20A O13A 1_555 1_555
O14A Al2 1_555 1_555
O15A Al2 1_555 1_555
H21A O15A 1_555 1_555
O16A Mo4A 1_555 1_555
O17A Mo4A 1_555 1_555
O18A Mo6 1_555 1_555
O19A Mo4A 1_555 1_555
O20A Mo4A 1_555 1_555
O21A Mo5A 1_555 1_555
O22A Mo5A 1_555 1_555
O23A Mo6A 1_555 1_555
O24A Mo6A 1_555 1_555
O25A Cu1A_2 1_555 1_555
O25A_2 Cu1A 1_555 1_555
O26A Cu1 1_555 1_555
O26_2 Cu1A 1_555 1_555
Mo1 O3A 1_555 1_555
Mo2 O3 1_555 1_555
Mo3 O2 1_555 1_555
Mo3 O4 1_555 1_555
Mo3 O5 1_555 1_555
Mo3 O7 1_555 1_555
Mo4 O14 1_555 1_555
Mo5 O15 1_555 1_555
Mo5 O17 1_555 1_555
Mo6 O16 1_555 1_555
Mo6 O15A 1_555 1_555
C10 N2 1_555 1_555
C11 C12 1_555 1_555
C11 N2 1_555 1_555
C12 N1 1_555 1_555
C22 N4 1_555 1_555
C23 C24 1_555 1_555
C23 N4 1_555 1_555
C24 N3 1_555 1_555
O18 Mo6A 1_555 1_555
Mo1A O1A 1_555 1_555
Mo1A O6A 1_555 1_555
Mo2A O2A 1_555 1_555
Mo2A O3A 1_555 1_555
Mo3A O2A 1_555 1_555
Mo3A O4A 1_555 1_555
Mo3A O5A 1_555 1_555
Mo3A O7A 1_555 1_555
Mo4A O14A 1_555 1_555
Mo5A O15A 1_555 1_555
Mo5A O17A 1_555 1_555
Mo5A O18A 1_555 1_555
Mo6A O13A 1_555 1_555
Mo6A O16A 1_555 1_555
C10A N2A 1_555 1_555
C11A C12A 1_555 1_555
C11A N2A 1_555 1_555
C12A N1A 1_555 1_555
C25A O25A 1_555 1_555
C25A O26A 1_555 1_555

#END
