
#######################################################################
#
#                 Cambridge Crystallographic Data Centre
#                                CCDC 
#
#######################################################################
#
# If this CIF has been generated from an entry in the Cambridge 
# Structural Database, then it will include bibliographic, chemical, 
# crystal, experimental, refinement or atomic coordinate data resulting 
# from the CCDC's data processing and validation procedures.
#
#######################################################################

data_XAPVUH
_symmetry_cell_setting           orthorhombic
_symmetry_space_group_name_H-M   'I m m a'
_symmetry_Int_Tables_number      74
_space_group_name_Hall           '-I 2b 2'
loop_
_symmetry_equiv_pos_site_id
_symmetry_equiv_pos_as_xyz
1 x,y,z
2 -x,1/2-y,z
3 -x,1/2+y,-z
4 x,-y,-z
5 1/2+x,1/2+y,1/2+z
6 1/2-x,-y,1/2+z
7 1/2-x,y,1/2-z
8 1/2+x,1/2-y,1/2-z
9 -x,-y,-z
10 x,1/2+y,-z
11 x,1/2-y,z
12 -x,y,z
13 1/2-x,1/2-y,1/2-z
14 1/2+x,y,1/2-z
15 1/2+x,-y,1/2+z
16 1/2-x,1/2+y,1/2+z
_cell_length_a                   7.316(3)
_cell_length_b                   7.622(3)
_cell_length_c                   12.202(4)
_cell_angle_alpha                90
_cell_angle_beta                 90
_cell_angle_gamma                90
_cell_volume                     680.415
loop_
_atom_site_label
_atom_site_type_symbol
_atom_site_fract_x
_atom_site_fract_y
_atom_site_fract_z
Cd1 Cd 0.2500 0.7500 0.7500
N1 N 0.4056(6) 0.7500 0.9171(3)
N2 N 0.5000 0.7500 1.0826(6)
H1 H 0.5000 0.7500 1.1531
C1 C 0.3516(9) 0.7500 1.0178(5)
H2 H 0.2308 0.7500 1.0414
Br1 Br 0.5000 0.99634(8) 0.67627(5)
Cd1A Cd 0.7500 0.7500 0.7500
N1A N 0.5944(6) 0.7500 0.9171(3)
N1F N 0.0944(6) 0.7500 0.5829(3)
C1A C 0.6484(9) 0.7500 1.0178(5)
H2A H 0.7692 0.7500 1.0414
Br1A Br 0.5000 0.50366(8) 0.67627(5)
Br1F Br 0.0000 0.99634(8) 0.82373(5)
Br1G Br 0.0000 0.50366(8) 0.82373(5)
loop_
_geom_bond_atom_site_label_1
_geom_bond_atom_site_label_2
_geom_bond_site_symmetry_1
_geom_bond_site_symmetry_2
Cd1 N1 1_555 1_555
N1 C1 1_555 1_555
N2 H1 1_555 1_555
C1 N2 1_555 1_555
H2 C1 1_555 1_555
Br1 Cd1 1_555 1_555
Cd1A Br1 1_555 1_555
N1A N1 1_555 1_555
N1F Cd1 1_555 1_555
C1A N2 1_555 1_555
H2A C1A 1_555 1_555
Br1A Cd1 1_555 1_555
Br1F Cd1 1_555 1_555
Br1G Cd1 1_555 1_555
Cd1A N1A 1_555 1_555
Cd1A Br1A 1_555 1_555
N1A C1A 1_555 1_555

#END
