
#######################################################################
#
#                 Cambridge Crystallographic Data Centre
#                                CCDC 
#
#######################################################################
#
# If this CIF has been generated from an entry in the Cambridge 
# Structural Database, then it will include bibliographic, chemical, 
# crystal, experimental, refinement or atomic coordinate data resulting 
# from the CCDC's data processing and validation procedures.
#
#######################################################################

data_XAPXUH
_symmetry_cell_setting           monoclinic
_symmetry_space_group_name_H-M   'C 2/c'
_symmetry_Int_Tables_number      15
_space_group_name_Hall           '-C 2yn'
loop_
_symmetry_equiv_pos_site_id
_symmetry_equiv_pos_as_xyz
1 x,y,z
2 -x,y,1/2-z
3 1/2+x,1/2+y,z
4 1/2-x,1/2+y,1/2-z
5 -x,-y,-z
6 x,-y,1/2+z
7 1/2-x,1/2-y,-z
8 1/2+x,1/2-y,1/2+z
_cell_length_a                   19.2013(11)
_cell_length_b                   10.2785(6)
_cell_length_c                   11.984(7)
_cell_angle_alpha                90
_cell_angle_beta                 107.141(1)
_cell_angle_gamma                90
_cell_volume                     2260.11
loop_
_atom_site_label
_atom_site_type_symbol
_atom_site_fract_x
_atom_site_fract_y
_atom_site_fract_z
Mo1 Mo 0.0000 -0.2259(1) -0.2500
Ni1 Ni 0.0000 0.0000 -0.5000
O1 O 0.0007(1) -0.1265(1) -0.1294(1)
O2 O 0.0791(1) -0.3222(2) -0.2152(1)
N1 N 0.1134(1) -0.0362(2) -0.4710(2)
N2 N 0.3420(1) -0.0500(2) -0.3327(2)
N3 N 0.4640(1) -0.3478(2) -0.1228(2)
C1 C 0.1578(1) 0.0556(2) -0.4941(2)
C2 C 0.2328(1) 0.0519(2) -0.4528(2)
C3 C 0.2675(1) -0.0521(2) -0.3812(2)
C4 C -0.2781(1) -0.3513(2) -0.8587(2)
C5 C -0.3529(1) -0.3636(2) -0.9041(2)
C6 C 0.4125(1) -0.3749(2) -0.2244(2)
C7 C 0.3708(1) -0.2811(2) -0.2962(2)
C8 C 0.3826(1) -0.1504(2) -0.2652(2)
C9 C -0.0607(1) -0.3797(2) -0.6644(2)
C10 C -0.0229(1) -0.2789(2) -0.5970(2)
H1 H -0.1373(16) -0.5252(29) -0.8211(24)
H2 H -0.3654(13) -0.6251(24) -1.0387(21)
H3 H -0.2374(14) -0.6222(25) -0.9696(22)
H4 H -0.2619(14) -0.2815(25) -0.8097(22)
H5 H -0.0948(13) -0.0390(26) -0.7481(22)
H6 H -0.3849(13) -0.3020(22) -0.8865(20)
H7 H -0.1654(13) -0.1929(23) -0.8666(22)
H8 H -0.0478(13) -0.4632(24) -0.6433(21)
H9 H 0.0149(14) -0.2986(24) -0.5269(23)
O1A O -0.0007(1) -0.1265(1) -0.3706(1)
Ni1A Ni 0.0000 0.0000 0.0000
O1E O 0.0007(1) 0.1265(1) -0.6294(1)
Ni1C Ni 0.5000 -0.5000 0.0000
Ni1C_2 Ni -0.5000 -0.5000 -1.0000
N1G N -0.3866(1) -0.4638(2) -0.9710(2)
C1G C -0.3422(1) -0.5556(2) -0.9941(2)
C2G C -0.2672(1) -0.5519(2) -0.9528(2)
C3G C -0.2325(1) -0.4479(2) -0.8812(2)
N2G N -0.1580(1) -0.4500(2) -0.8327(2)
C8G C -0.1174(1) -0.3496(2) -0.7652(2)
C7G C -0.1292(1) -0.2189(2) -0.7962(2)
C6G C -0.0875(1) -0.1251(2) -0.7244(2)
N3G N -0.0360(1) -0.1522(2) -0.6228(2)
N1D N -0.1134(1) 0.0362(2) -0.5290(2)
N3C N 0.0360(1) 0.1522(2) -0.3772(2)
C10G C 0.4771(1) -0.2211(2) -0.0970(2)
C9G C 0.4393(1) -0.1203(2) -0.1644(2)
H8G H 0.4522(13) -0.0368(24) -0.1433(21)
H9G H 0.5149(14) -0.2014(24) -0.0269(23)
H5G H 0.4052(13) -0.4610(26) -0.2481(22)
H7G H 0.3346(13) -0.3071(23) -0.3666(22)
H1G H 0.3627(16) 0.0252(29) -0.3211(24)
C4G C 0.2219(1) -0.1487(2) -0.3587(2)
C5G C 0.1471(1) -0.1364(2) -0.4041(2)
H6G H 0.1151(13) -0.1980(22) -0.3865(20)
H4G H 0.2381(14) -0.2185(25) -0.3097(22)
H3G H 0.2626(14) 0.1222(25) -0.4696(22)
H2G H 0.1346(13) 0.1251(24) -0.5387(21)
O2A O -0.0791(1) -0.3222(2) -0.2848(1)
loop_
_geom_bond_atom_site_label_1
_geom_bond_atom_site_label_2
_geom_bond_site_symmetry_1
_geom_bond_site_symmetry_2
Mo1 O1 1_555 1_555
Ni1 N1 1_555 1_555
O1 Ni1A 1_555 1_555
O2 Mo1 1_555 1_555
N1 C1 1_555 1_555
N2 C3 1_555 1_555
N3 C6 1_555 1_555
C1 C2 1_555 1_555
C2 C3 1_555 1_555
C3 C4G 1_555 1_555
C4 C5 1_555 1_555
C5 H6 1_555 1_555
C6 C7 1_555 1_555
C7 C8 1_555 1_555
C8 N2 1_555 1_555
C9 C10 1_555 1_555
C10 H9 1_555 1_555
H1 N2G 1_555 1_555
H2 C1G 1_555 1_555
H3 C2G 1_555 1_555
H4 C4 1_555 1_555
H5 C6G 1_555 1_555
H7 C7G 1_555 1_555
H8 C9 1_555 1_555
O1A Mo1 1_555 1_555
O1E Ni1 1_555 1_555
Ni1C N3 1_555 1_555
Ni1C_2 N1G 1_555 1_555
N1G C5 1_555 1_555
C1G N1G 1_555 1_555
C2G C1G 1_555 1_555
C3G C4 1_555 1_555
N2G C3G 1_555 1_555
C8G C9 1_555 1_555
C7G C8G 1_555 1_555
C6G C7G 1_555 1_555
N3G Ni1 1_555 1_555
N1D Ni1 1_555 1_555
N3C Ni1 1_555 1_555
C10G N3 1_555 1_555
C9G C8 1_555 1_555
H8G C9G 1_555 1_555
H9G C10G 1_555 1_555
H5G C6 1_555 1_555
H7G C7 1_555 1_555
H1G N2 1_555 1_555
C4G C5G 1_555 1_555
C5G N1 1_555 1_555
H6G C5G 1_555 1_555
H4G C4G 1_555 1_555
H3G C2 1_555 1_555
H2G C1 1_555 1_555
O2A Mo1 1_555 1_555
Ni1 O1A 1_555 1_555
C10 N3G 1_555 1_555
C2G C3G 1_555 1_555
N2G C8G 1_555 1_555
C6G N3G 1_555 1_555
C10G C9G 1_555 1_555

#END
