
#######################################################################
#
#                 Cambridge Crystallographic Data Centre
#                                CCDC 
#
#######################################################################
#
# If this CIF has been generated from an entry in the Cambridge 
# Structural Database, then it will include bibliographic, chemical, 
# crystal, experimental, refinement or atomic coordinate data resulting 
# from the CCDC's data processing and validation procedures.
#
#######################################################################

data_XAPYAO
_symmetry_cell_setting           orthorhombic
_symmetry_space_group_name_H-M   'P c a 21'
_symmetry_Int_Tables_number      29
_space_group_name_Hall           'P 2c -2ac'
loop_
_symmetry_equiv_pos_site_id
_symmetry_equiv_pos_as_xyz
1 x,y,z
2 -x,-y,1/2+z
3 1/2-x,y,1/2+z
4 1/2+x,-y,z
_cell_length_a                   15.0958(2)
_cell_length_b                   17.0071(1)
_cell_length_c                   17.4842(2)
_cell_angle_alpha                90
_cell_angle_beta                 90
_cell_angle_gamma                90
_cell_volume                     4488.82
loop_
_atom_site_label
_atom_site_type_symbol
_atom_site_fract_x
_atom_site_fract_y
_atom_site_fract_z
Ni1 Ni 0.4834(1) 0.0685(1) -0.8371(1)
Ni2 Ni 0.0081(1) -0.4338(1) -0.9354(1)
S1 S 0.4079(1) 0.2124(1) -0.7166(1)
S2 S 0.0679(1) -0.2923(1) -1.0605(1)
O1 O 0.3128(1) 0.2250(1) -0.6969(1)
O2 O 0.4648(1) 0.2257(1) -0.6495(1)
O3 O 0.4345(1) 0.2659(1) -0.7793(1)
O4 O 0.4180(1) 0.1286(1) -0.7425(1)
O5 O 0.5551(1) 0.1740(1) -0.8538(1)
O6 O 0.0054(1) -0.2783(1) -1.1242(1)
O7 O 0.1615(1) -0.2821(1) -1.0878(1)
O8 O 0.0504(1) -0.2371(1) -0.9967(1)
O9 O 0.0597(1) -0.3754(1) -1.0326(1)
O10 O -0.0695(1) -0.3301(1) -0.9200(1)
N1 N 0.9440(1) 0.0166(1) -0.4299(1)
N2 N 0.7985(1) -0.0490(1) -0.6269(1)
N3 N 0.5858(1) 0.0341(1) -0.7618(1)
N4 N 0.4097(1) -0.0306(1) -0.8050(1)
N5 N 0.2863(1) -0.2432(1) -0.7390(1)
N6 N 0.1079(1) -0.3875(1) -0.8626(1)
N7 N 0.3828(1) -0.8907(1) -0.9141(1)
N8 N 0.2111(1) -0.7410(1) -1.0391(1)
N9 N 0.0883(1) -0.5297(1) -0.9675(1)
N10 N -0.0921(1) -0.4750(1) -1.0082(1)
N11 N -0.2933(1) -0.5649(1) -1.1505(1)
N12 N -0.4384(1) -0.4862(1) -1.3423(1)
C1 C 0.9728(2) -0.0375(1) -0.4817(2)
C2 C 0.9263(2) -0.0599(1) -0.5458(2)
C3 C 0.8426(2) -0.0255(1) -0.5615(2)
C4 C 0.8102(2) 0.0283(1) -0.5073(2)
C5 C 0.8622(1) 0.0469(1) -0.4441(2)
C6 C 0.6212(2) -0.0392(1) -0.7686(2)
C7 C 0.6879(2) -0.0674(1) -0.7224(2)
C8 C 0.7249(2) -0.0189(1) -0.6650(2)
C9 C 0.6869(2) 0.0561(1) -0.6554(2)
C10 C 0.6186(2) 0.0792(1) -0.7045(2)
C11 C 0.4199(2) -0.0631(1) -0.7344(2)
C12 C 0.3814(2) -0.1330(1) -0.7116(2)
C13 C 0.3267(1) -0.1749(1) -0.7637(2)
C14 C 0.3138(1) -0.1413(1) -0.8364(2)
C15 C 0.3556(2) -0.0704(1) -0.8531(2)
C16 C 0.1840(2) -0.3606(1) -0.8951(2)
C17 C 0.2458(2) -0.3143(1) -0.8569(2)
C18 C 0.2294(2) -0.2924(1) -0.7812(2)
C19 C 0.1534(2) -0.3231(1) -0.7454(2)
C20 C 0.0954(2) -0.3691(1) -0.7878(2)
C21 C 0.3054(2) -0.8644(2) -0.8838(2)
C22 C 0.2454(2) -0.8169(1) -0.9215(2)
C23 C 0.2648(2) -0.7932(1) -0.9976(2)
C24 C 0.3409(2) -0.8250(1) -1.0319(2)
C25 C 0.3971(2) -0.8720(1) -0.9887(2)
C26 C 0.1400(2) -0.5717(1) -0.9197(2)
C27 C 0.1820(1) -0.6421(1) -0.9383(2)
C28 C 0.1717(1) -0.6728(1) -1.0128(2)
C29 C 0.1213(1) -0.6270(1) -1.0646(2)
C30 C 0.0821(2) -0.5585(1) -1.0403(2)
C31 C -0.1196(2) -0.5507(1) -1.0053(2)
C32 C -0.1828(1) -0.5816(1) -1.0541(2)
C33 C -0.2236(2) -0.5324(1) -1.1089(2)
C34 C -0.1934(2) -0.4542(2) -1.1138(2)
C35 C -0.1289(2) -0.4290(1) -1.0626(2)
C36 C -0.4694(2) -0.5412(2) -1.2928(2)
C37 C -0.4230(2) -0.5678(1) -1.2296(2)
C38 C -0.3379(1) -0.5366(1) -1.2138(2)
C39 C -0.3043(2) -0.4818(1) -1.2663(2)
C40 C -0.3557(2) -0.4597(1) -1.3284(2)
H1 H 0.8207(1) -0.0901(1) -0.6481(1)
H2 H 0.2970(1) -0.2573(1) -0.6927(1)
H3 H 0.2017(1) -0.7528(1) -1.0862(1)
H4 H -0.3115(1) -0.6098(1) -1.1342(1)
H5 H 1.0276(2) -0.0609(1) -0.4731(2)
H6 H 0.9496(2) -0.0974(1) -0.5788(2)
H7 H 0.7548(2) 0.0513(1) -0.5136(2)
H8 H 0.8393(1) 0.0825(1) -0.4089(2)
H9 H 0.5992(2) -0.0720(1) -0.8066(2)
H10 H 0.7087(2) -0.1185(1) -0.7290(2)
H11 H 0.7069(2) 0.0897(1) -0.6171(2)
H12 H 0.5940(2) 0.1288(1) -0.6973(2)
H13 H 0.4551(2) -0.0366(1) -0.6992(2)
H14 H 0.3911(2) -0.1524(1) -0.6626(2)
H15 H 0.2782(1) -0.1659(1) -0.8725(2)
H16 H 0.3456(2) -0.0487(1) -0.9012(2)
H17 H 0.1953(2) -0.3738(1) -0.9457(2)
H18 H 0.2974(2) -0.2982(1) -0.8814(2)
H19 H 0.1422(2) -0.3126(1) -0.6941(2)
H20 H 0.0451(2) -0.3885(1) -0.7635(2)
H21 H 0.2919(2) -0.8795(2) -0.8341(2)
H22 H 0.1934(2) -0.8008(1) -0.8976(2)
H23 H 0.3536(2) -0.8146(1) -1.0829(2)
H24 H 0.4477(2) -0.8919(1) -1.0122(2)
H25 H 0.1482(2) -0.5522(1) -0.8706(2)
H26 H 0.2162(1) -0.6685(1) -0.9022(2)
H27 H 0.1147(1) -0.6432(1) -1.1150(2)
H28 H 0.0492(2) -0.5300(1) -1.0757(2)
H29 H -0.0948(2) -0.5836(1) -0.9686(2)
H30 H -0.1984(1) -0.6344(1) -1.0508(2)
H31 H -0.2161(2) -0.4201(2) -1.1506(2)
H32 H -0.1098(2) -0.3771(1) -1.0659(2)
H33 H -0.5253(2) -0.5622(2) -1.3018(2)
H34 H -0.4475(2) -0.6058(1) -1.1977(2)
H35 H -0.2481(2) -0.4605(1) -1.2596(2)
H36 H -0.3315(2) -0.4241(1) -1.3629(2)
Ni1B Ni 1.0166(1) 0.0685(1) -0.3371(1)
N1B N 0.5560(1) 0.0166(1) -0.9299(1)
Ni1_2 Ni 0.4834(1) -0.9315(1) -0.8371(1)
Ni2B Ni -0.5081(1) -0.4338(1) -1.4354(1)
N12B N -0.0616(1) -0.4862(1) -0.8423(1)
N7_2 N 0.3828(1) 0.1093(1) -0.9141(1)
O11 O 0.0310(2) 0.2265(1) 0.1494(1)
O12 O -0.1384(2) 0.7016(1) -0.2365(1)
O13 O 0.2908(2) 0.8132(1) -0.0135(1)
O14 O 0.5438(1) 0.2567(1) 0.4989(2)
loop_
_geom_bond_atom_site_label_1
_geom_bond_atom_site_label_2
_geom_bond_site_symmetry_1
_geom_bond_site_symmetry_2
Ni1 O4 1_555 1_555
Ni2 O9 1_555 1_555
S1 O1 1_555 1_555
S2 O6 1_555 1_555
O2 S1 1_555 1_555
O3 S1 1_555 1_555
O4 S1 1_555 1_555
O5 Ni1 1_555 1_555
O7 S2 1_555 1_555
O8 S2 1_555 1_555
O9 S2 1_555 1_555
O10 Ni2 1_555 1_555
N1 C1 1_555 1_555
N2 C3 1_555 1_555
N3 Ni1 1_555 1_555
N4 Ni1 1_555 1_555
N5 C13 1_555 1_555
N6 Ni2 1_555 1_555
N7 C21 1_555 1_555
N8 C23 1_555 1_555
N9 Ni2 1_555 1_555
N10 Ni2 1_555 1_555
N11 C33 1_555 1_555
N12 C36 1_555 1_555
C1 C2 1_555 1_555
C2 C3 1_555 1_555
C3 C4 1_555 1_555
C4 C5 1_555 1_555
C5 N1 1_555 1_555
C6 N3 1_555 1_555
C7 C6 1_555 1_555
C8 N2 1_555 1_555
C9 C8 1_555 1_555
C10 N3 1_555 1_555
C11 N4 1_555 1_555
C12 C11 1_555 1_555
C13 C12 1_555 1_555
C14 C13 1_555 1_555
C15 N4 1_555 1_555
C16 N6 1_555 1_555
C17 C16 1_555 1_555
C18 N5 1_555 1_555
C19 C18 1_555 1_555
C20 N6 1_555 1_555
C21 C22 1_555 1_555
C22 C23 1_555 1_555
C23 C24 1_555 1_555
C24 C25 1_555 1_555
C25 N7 1_555 1_555
C26 N9 1_555 1_555
C27 C26 1_555 1_555
C28 N8 1_555 1_555
C29 C28 1_555 1_555
C30 N9 1_555 1_555
C31 N10 1_555 1_555
C32 C31 1_555 1_555
C33 C32 1_555 1_555
C34 C33 1_555 1_555
C35 N10 1_555 1_555
C36 C37 1_555 1_555
C37 C38 1_555 1_555
C38 N11 1_555 1_555
C39 C38 1_555 1_555
C40 N12 1_555 1_555
H1 N2 1_555 1_555
H2 N5 1_555 1_555
H3 N8 1_555 1_555
H4 N11 1_555 1_555
H5 C1 1_555 1_555
H6 C2 1_555 1_555
H7 C4 1_555 1_555
H8 C5 1_555 1_555
H9 C6 1_555 1_555
H10 C7 1_555 1_555
H11 C9 1_555 1_555
H12 C10 1_555 1_555
H13 C11 1_555 1_555
H14 C12 1_555 1_555
H15 C14 1_555 1_555
H16 C15 1_555 1_555
H17 C16 1_555 1_555
H18 C17 1_555 1_555
H19 C19 1_555 1_555
H20 C20 1_555 1_555
H21 C21 1_555 1_555
H22 C22 1_555 1_555
H23 C24 1_555 1_555
H24 C25 1_555 1_555
H25 C26 1_555 1_555
H26 C27 1_555 1_555
H27 C29 1_555 1_555
H28 C30 1_555 1_555
H29 C31 1_555 1_555
H30 C32 1_555 1_555
H31 C34 1_555 1_555
H32 C35 1_555 1_555
H33 C36 1_555 1_555
H34 C37 1_555 1_555
H35 C39 1_555 1_555
H36 C40 1_555 1_555
Ni1B N1 1_555 1_555
N1B Ni1 1_555 1_555
Ni1_2 N7 1_555 1_555
Ni2B N12 1_555 1_555
N12B Ni2 1_555 1_555
N7_2 Ni1 1_555 1_555
C7 C8 1_555 1_555
C9 C10 1_555 1_555
C14 C15 1_555 1_555
C17 C18 1_555 1_555
C19 C20 1_555 1_555
C27 C28 1_555 1_555
C29 C30 1_555 1_555
C34 C35 1_555 1_555
C39 C40 1_555 1_555

#END
