
#######################################################################
#
#                 Cambridge Crystallographic Data Centre
#                                CCDC 
#
#######################################################################
#
# If this CIF has been generated from an entry in the Cambridge 
# Structural Database, then it will include bibliographic, chemical, 
# crystal, experimental, refinement or atomic coordinate data resulting 
# from the CCDC's data processing and validation procedures.
#
#######################################################################

data_XAPYIY
_symmetry_cell_setting           monoclinic
_symmetry_space_group_name_H-M   'P 21/c'
_symmetry_Int_Tables_number      14
_space_group_name_Hall           '-P 2ybc'
loop_
_symmetry_equiv_pos_site_id
_symmetry_equiv_pos_as_xyz
1 x,y,z
2 -x,1/2+y,1/2-z
3 -x,-y,-z
4 x,1/2-y,1/2+z
_cell_length_a                   15.5198(9)
_cell_length_b                   18.9902(11)
_cell_length_c                   17.4359(10)
_cell_angle_alpha                90
_cell_angle_beta                 112.514(1)
_cell_angle_gamma                90
_cell_volume                     4747.13
loop_
_atom_site_label
_atom_site_type_symbol
_atom_site_fract_x
_atom_site_fract_y
_atom_site_fract_z
Cu1 Cu 0.70358(2) 0.024023(16) 0.982127(18)
Cu2 Cu 0.70580(2) -0.037461(17) 0.482346(18)
C1 C 0.8461(2) -0.16492(15) 0.58425(17)
H1 H 0.7944 -0.1943 0.5700
C2 C 0.9339(2) -0.19238(16) 0.63303(18)
H2 H 0.9397 -0.2390 0.6505
C3 C 1.0106(2) -0.15037(16) 0.65468(17)
H3 H 1.0692 -0.1681 0.6866
C4 C 1.00011(18) -0.07977(15) 0.62829(16)
C5 C 0.90949(18) -0.05628(14) 0.57898(16)
C6 C 1.0771(2) -0.03137(16) 0.64714(19)
H4 H 1.1371 -0.0463 0.6798
C7 C 1.0636(2) 0.03468(16) 0.61838(19)
H5 H 1.1146 0.0645 0.6306
C8 C 0.97217(19) 0.06058(15) 0.56911(17)
C9 C 0.89568(18) 0.01463(14) 0.54916(15)
C10 C 0.9551(2) 0.12962(15) 0.53805(19)
H6 H 1.0040 0.1616 0.5506
C11 C 0.8659(2) 0.14969(15) 0.48902(19)
H7 H 0.8537 0.1952 0.4680
C12 C 0.7939(2) 0.10077(14) 0.47131(17)
H8 H 0.7338 0.1145 0.4374
C13 C 0.73020(18) 0.03702(14) 0.64207(16)
H9 H 0.7742 0.0651 0.6326
C14 C 0.71891(18) 0.04389(14) 0.71646(16)
H10 H 0.7525 0.0776 0.7551
C15 C 0.65666(17) -0.00029(14) 0.73283(15)
C16 C 0.65163(17) -0.00219(15) 0.81769(16)
C17 C 0.60184(18) -0.04514(14) 0.67032(16)
H11 H 0.5569 -0.0732 0.6782
C18 C 0.61470(17) -0.04769(13) 0.59636(16)
C19 C 0.55910(17) -0.09271(13) 0.52532(15)
C20 C 0.47972(17) -0.12875(14) 0.52072(16)
H12 H 0.4602 -0.1274 0.5649
C21 C 0.42935(17) -0.16698(13) 0.44975(16)
C22 C 0.34134(19) -0.20680(14) 0.44300(18)
C23 C 0.46106(18) -0.16742(14) 0.38553(17)
H13 H 0.4280 -0.1915 0.3366
C24 C 0.54199(18) -0.13183(14) 0.39454(16)
H14 H 0.5636 -0.1337 0.3517
C25 C 0.80094(19) -0.11064(14) 0.97377(16)
H15 H 0.7419 -0.1276 0.9414
C26 C 0.8770(2) -0.15536(15) 0.99128(18)
H16 H 0.8686 -0.2011 0.9706
C27 C 0.9640(2) -0.13149(14) 1.03913(18)
H17 H 1.0155 -0.1610 1.0517
C28 C 0.97528(18) -0.06210(14) 1.06927(17)
C29 C 0.89542(17) -0.01976(13) 1.04845(15)
C30 C 1.0643(2) -0.03194(15) 1.11876(19)
H18 H 1.1178 -0.0593 1.1321
C31 C 1.0720(2) 0.03462(16) 1.14609(19)
H19 H 1.1305 0.0521 1.1791
C32 C 0.99169(18) 0.07939(14) 1.12530(16)
C33 C 0.90367(17) 0.05202(14) 1.07588(15)
C34 C 0.9962(2) 0.15070(15) 1.14904(17)
H20 H 1.0530 0.1709 1.1820
C35 C 0.9163(2) 0.18959(15) 1.12307(18)
H21 H 0.9182 0.2367 1.1381
C36 C 0.8312(2) 0.15842(14) 1.07362(17)
H22 H 0.7774 0.1858 1.0562
C37 C 0.72745(18) -0.05603(14) 1.13938(16)
H23 H 0.7678 -0.0859 1.1269
C38 C 0.71908(17) -0.06343(14) 1.21522(15)
H24 H 0.7517 -0.0985 1.2522
C39 C 0.65647(18) -0.01535(14) 1.32000(16)
C40 C 0.66066(17) -0.01729(13) 1.23516(16)
C41 C 0.60878(18) 0.03084(13) 1.17573(16)
H25 H 0.5671 0.0607 1.1863
C42 C 0.61923(17) 0.03427(13) 1.10096(16)
C43 C 0.56824(17) 0.08488(13) 1.03449(15)
C44 C 0.49628(17) 0.12704(13) 1.03674(16)
H26 H 0.4780 0.1245 1.0816
C45 C 0.45170(17) 0.17314(14) 0.97164(17)
C46 C 0.37238(19) 0.22059(14) 0.97277(19)
C47 C 0.48119(18) 0.17481(14) 0.90614(17)
H27 H 0.4527 0.2050 0.8616
C48 C 0.55308(18) 0.13143(14) 0.90723(17)
H28 H 0.5722 0.1330 0.8628
N1 N 0.83339(15) -0.09879(12) 0.55750(13)
N2 N 0.80743(15) 0.03542(11) 0.50074(13)
N3 N 0.59046(14) -0.09466(11) 0.46289(13)
N4 N 0.68075(14) -0.00814(11) 0.58333(12)
N5 N 0.80889(15) -0.04446(11) 1.00130(13)
N6 N 0.82456(15) 0.09140(11) 1.05075(13)
N7 N 0.68020(14) -0.00794(11) 1.08357(12)
N8 N 0.59624(14) 0.08711(11) 0.97012(13)
O1 O 0.28643(14) -0.22215(11) 0.37063(13)
O2 O 0.33096(14) -0.21971(11) 0.50863(13)
O3 O 0.60753(13) -0.04962(11) 0.83477(12)
O4 O 0.69802(13) 0.04557(10) 0.86862(11)
O5 O 0.33130(16) 0.25529(14) 0.90956(15)
O6 O 0.35803(14) 0.22115(10) 1.03880(14)
O15 O 0.60891(14) 0.02899(10) 1.33672(12)
O16 O 0.70806(12) -0.06141(10) 1.37275(11)
Cu2_2 Cu 0.70580(2) -0.037461(17) 1.482346(18)
O16_2 O 0.70806(12) -0.06141(10) 0.37275(11)
O7 O 0.3704(2) 0.77300(14) 0.6752(2)
H36 H 0.435(3) 0.7834(17) 0.703(2)
H37 H 0.377(4) 0.777(2) 0.632(3)
O8 O 0.7457(2) 0.79024(14) 0.38386(17)
H35 H 0.703(3) 0.764(3) 0.411(3)
O9 O 0.20463(18) 0.68302(13) 0.63353(14)
O10 O 0.8836(2) 0.3228(2) 0.2450(2)
H29 H 0.832(3) 0.307(2) 0.206(3)
H31 H 0.895(3) 0.349(2) 0.223(3)
O11 O 0.4540(3) 0.30939(19) 0.7155(2)
H33 H 0.424(3) 0.347(2) 0.706(2)
H34 H 0.426(3) 0.292(2) 0.665(3)
O12 O 0.74768(19) 0.16625(17) 0.2474(2)
O13 O 0.0805(3) 0.3544(2) 0.2726(3)
H30 H 0.030(4) 0.357(3) 0.260(3)
H32 H 0.092(4) 0.314(3) 0.252(4)
O14 O 0.8021(2) 0.7556(2) 0.75597(18)
loop_
_geom_bond_atom_site_label_1
_geom_bond_atom_site_label_2
_geom_bond_site_symmetry_1
_geom_bond_site_symmetry_2
Cu1 N5 1_555 1_555
Cu2 N1 1_555 1_555
C1 H1 1_555 1_555
C2 C1 1_555 1_555
H2 C2 1_555 1_555
C3 C2 1_555 1_555
H3 C3 1_555 1_555
C4 C3 1_555 1_555
C5 C4 1_555 1_555
C6 C4 1_555 1_555
H4 C6 1_555 1_555
C7 C6 1_555 1_555
H5 C7 1_555 1_555
C8 C7 1_555 1_555
C9 C5 1_555 1_555
C10 C8 1_555 1_555
H6 C10 1_555 1_555
C11 C10 1_555 1_555
H7 C11 1_555 1_555
C12 C11 1_555 1_555
H8 C12 1_555 1_555
C13 H9 1_555 1_555
C14 C13 1_555 1_555
H10 C14 1_555 1_555
C15 C14 1_555 1_555
C16 C15 1_555 1_555
C17 C15 1_555 1_555
H11 C17 1_555 1_555
C18 C17 1_555 1_555
C19 C18 1_555 1_555
C20 C19 1_555 1_555
H12 C20 1_555 1_555
C21 C20 1_555 1_555
C22 C21 1_555 1_555
C23 C21 1_555 1_555
H13 C23 1_555 1_555
C24 C23 1_555 1_555
H14 C24 1_555 1_555
C25 H15 1_555 1_555
C26 C25 1_555 1_555
H16 C26 1_555 1_555
C27 C26 1_555 1_555
H17 C27 1_555 1_555
C28 C27 1_555 1_555
C29 C28 1_555 1_555
C30 C28 1_555 1_555
H18 C30 1_555 1_555
C31 C30 1_555 1_555
H19 C31 1_555 1_555
C32 C31 1_555 1_555
C33 C29 1_555 1_555
C34 C32 1_555 1_555
H20 C34 1_555 1_555
C35 C34 1_555 1_555
H21 C35 1_555 1_555
C36 C35 1_555 1_555
H22 C36 1_555 1_555
C37 H23 1_555 1_555
C38 C37 1_555 1_555
H24 C38 1_555 1_555
C39 C40 1_555 1_555
C40 C38 1_555 1_555
C41 C40 1_555 1_555
H25 C41 1_555 1_555
C42 C41 1_555 1_555
C43 C42 1_555 1_555
C44 C43 1_555 1_555
H26 C44 1_555 1_555
C45 C44 1_555 1_555
C46 C45 1_555 1_555
C47 C45 1_555 1_555
H27 C47 1_555 1_555
C48 C47 1_555 1_555
H28 C48 1_555 1_555
N1 C1 1_555 1_555
N2 Cu2 1_555 1_555
N3 Cu2 1_555 1_555
N4 Cu2 1_555 1_555
N5 C25 1_555 1_555
N6 Cu1 1_555 1_555
N7 Cu1 1_555 1_555
N8 Cu1 1_555 1_555
O1 C22 1_555 1_555
O2 C22 1_555 1_555
O3 C16 1_555 1_555
O4 Cu1 1_555 1_555
O5 C46 1_555 1_555
O6 C46 1_555 1_555
O7 H36 1_555 1_555
O8 H35 1_555 1_555
O10 H29 1_555 1_555
O11 H33 1_555 1_555
O13 H30 1_555 1_555
O15 C39 1_555 1_555
O16 C39 1_555 1_555
H31 O10 1_555 1_555
H32 O13 1_555 1_555
H34 O11 1_555 1_555
H37 O7 1_555 1_555
Cu2_2 O16 1_555 1_555
O16_2 Cu2 1_555 1_555
C5 N1 1_555 1_555
C8 C9 1_555 1_555
C9 N2 1_555 1_555
C12 N2 1_555 1_555
C13 N4 1_555 1_555
C16 O4 1_555 1_555
C18 N4 1_555 1_555
C19 N3 1_555 1_555
C24 N3 1_555 1_555
C29 N5 1_555 1_555
C32 C33 1_555 1_555
C33 N6 1_555 1_555
C36 N6 1_555 1_555
C37 N7 1_555 1_555
C42 N7 1_555 1_555
C43 N8 1_555 1_555
C48 N8 1_555 1_555

#END
