
#######################################################################
#
#                 Cambridge Crystallographic Data Centre
#                                CCDC 
#
#######################################################################
#
# If this CIF has been generated from an entry in the Cambridge 
# Structural Database, then it will include bibliographic, chemical, 
# crystal, experimental, refinement or atomic coordinate data resulting 
# from the CCDC's data processing and validation procedures.
#
#######################################################################

data_XAQBOI
_symmetry_cell_setting           triclinic
_symmetry_space_group_name_H-M   'P -1'
_symmetry_Int_Tables_number      2
_space_group_name_Hall           '-P 1'
loop_
_symmetry_equiv_pos_site_id
_symmetry_equiv_pos_as_xyz
1 x,y,z
2 -x,-y,-z
_cell_length_a                   8.3829(6)
_cell_length_b                   9.0841(7)
_cell_length_c                   10.0175(6)
_cell_angle_alpha                91.757(3)
_cell_angle_beta                 92.424(2)
_cell_angle_gamma                107.182(2)
_cell_volume                     727.402
loop_
_atom_site_label
_atom_site_type_symbol
_atom_site_fract_x
_atom_site_fract_y
_atom_site_fract_z
Cu1 Cu 1.00988(4) 0.06528(3) 0.86518(3)
Cl1 Cl 0.76911(7) -0.07626(7) 0.97458(6)
C1 C 1.4644(3) 0.0555(3) 0.6974(2)
C2 C 1.5776(3) 0.2141(3) 0.7558(2)
O1 O 1.5215(2) -0.0440(2) 0.65675(19)
O2 O 1.5249(2) 0.3240(2) 0.7689(2)
N1 N 1.3021(3) 0.0512(2) 0.6949(2)
H1 H 1.274(4) 0.120(4) 0.739(3)
N2 N 1.7355(2) 0.2098(2) 0.7823(2)
H2 H 1.753(3) 0.126(4) 0.775(3)
N3 N 1.0176(2) -0.0639(2) 0.6963(2)
N4 N 2.0168(2) 0.2886(2) 0.8421(2)
C3 C 1.1621(3) -0.0687(3) 0.6461(3)
C4 C 1.1713(3) -0.1801(3) 0.5514(3)
H3 H 1.2758 -0.1821 0.5197
C5 C 1.0241(3) -0.2883(3) 0.5044(3)
H4 H 1.0272 -0.3662 0.4399
C6 C 0.8714(3) -0.2834(3) 0.5512(2)
C7 C 0.8753(3) -0.1698(3) 0.6470(3)
H5 H 0.7722 -0.1656 0.6803
C8 C 0.7088(3) -0.3991(3) 0.5033(3)
H6 H 0.6172 -0.3790 0.5511
H7 H 0.7136 -0.5034 0.5206
H8 H 0.6895 -0.3904 0.4071
C9 C 1.8795(3) 0.3327(3) 0.8169(2)
C10 C 1.8824(3) 0.4869(3) 0.8203(2)
H9 H 1.7825 0.5149 0.8068
C11 C 2.0357(3) 0.5982(3) 0.8440(2)
H10 H 2.0412 0.7043 0.8475
C12 C 2.1816(3) 0.5564(3) 0.8626(2)
C13 C 2.1638(3) 0.4002(3) 0.8638(2)
H11 H 2.2614 0.3695 0.8811
C14 C 2.3514(3) 0.6740(3) 0.8830(3)
H12 H 2.4237 0.6330 0.9411
H13 H 2.3398 0.7689 0.9249
H14 H 2.4012 0.6964 0.7964
Cu1A Cu 0.99012(4) -0.06528(3) 1.13482(3)
Cu1_2 Cu 2.00988(4) 0.06528(3) 0.86518(3)
Cl1A Cl 1.23089(7) 0.07626(7) 1.02542(6)
N4_2 N 1.0168(2) 0.2886(2) 0.8421(2)
loop_
_geom_bond_atom_site_label_1
_geom_bond_atom_site_label_2
_geom_bond_site_symmetry_1
_geom_bond_site_symmetry_2
Cu1 Cl1 1_555 1_555
Cl1 Cu1A 1_555 1_555
C1 C2 1_555 1_555
C2 O2 1_555 1_555
O1 C1 1_555 1_555
N1 C1 1_555 1_555
H1 N1 1_555 1_555
N2 C2 1_555 1_555
H2 N2 1_555 1_555
N3 Cu1 1_555 1_555
N4 C9 1_555 1_555
C3 N1 1_555 1_555
C4 C3 1_555 1_555
H3 C4 1_555 1_555
C5 C4 1_555 1_555
H4 C5 1_555 1_555
C6 C5 1_555 1_555
C7 N3 1_555 1_555
H5 C7 1_555 1_555
C8 C6 1_555 1_555
H6 C8 1_555 1_555
H7 C8 1_555 1_555
H8 C8 1_555 1_555
C9 N2 1_555 1_555
C10 C9 1_555 1_555
H9 C10 1_555 1_555
C11 C10 1_555 1_555
H10 C11 1_555 1_555
C12 C11 1_555 1_555
C13 N4 1_555 1_555
H11 C13 1_555 1_555
C14 C12 1_555 1_555
H12 C14 1_555 1_555
H13 C14 1_555 1_555
H14 C14 1_555 1_555
Cu1A Cl1A 1_555 1_555
Cu1_2 N4 1_555 1_555
Cl1A Cu1 1_555 1_555
N4_2 Cu1 1_555 1_555
N3 C3 1_555 1_555
C6 C7 1_555 1_555
C12 C13 1_555 1_555

#END
