
#######################################################################
#
#                 Cambridge Crystallographic Data Centre
#                                CCDC 
#
#######################################################################
#
# If this CIF has been generated from an entry in the Cambridge 
# Structural Database, then it will include bibliographic, chemical, 
# crystal, experimental, refinement or atomic coordinate data resulting 
# from the CCDC's data processing and validation procedures.
#
#######################################################################

data_XAQGIF
_symmetry_cell_setting           triclinic
_symmetry_space_group_name_H-M   'P -1'
_symmetry_Int_Tables_number      2
_space_group_name_Hall           '-P 1'
loop_
_symmetry_equiv_pos_site_id
_symmetry_equiv_pos_as_xyz
1 x,y,z
2 -x,-y,-z
_cell_length_a                   12.267(2)
_cell_length_b                   13.012(3)
_cell_length_c                   13.888(3)
_cell_angle_alpha                109.34(2)
_cell_angle_beta                 115.97(3)
_cell_angle_gamma                83.93(3)
_cell_volume                     1878.46
loop_
_atom_site_label
_atom_site_type_symbol
_atom_site_fract_x
_atom_site_fract_y
_atom_site_fract_z
La1 La 0.1974(1) 0.2610(1) 0.45107(9)
S1 S 0.1124(4) -0.0055(4) 0.4527(4)
S2 S 0.4331(5) 0.4790(6) 0.5782(5)
S3 S 0.4428(6) 0.0718(6) 0.4055(5)
O1 O 0.0770(9) 0.1009(9) 0.2646(8)
O2 O 0.170(1) 0.335(1) 0.6265(8)
O3 O -0.0259(9) 0.2793(9) 0.4159(8)
O4 O 0.090(1) 0.338(1) 0.2961(9)
O5 O 0.1566(9) 0.4765(9) 0.5110(9)
O6 O 0.1415(9) 0.1166(9) 0.5072(8)
O7 O 0.379(1) 0.3674(9) 0.4911(9)
O8 O 0.3411(8) 0.116(1) 0.4408(9)
O9 O 0.395(1) 0.290(1) 0.6647(9)
O10 O 0.526(1) 0.322(2) 0.831(1)
O11 O 0.439(1) 0.422(2) 1.147(1)
O12 O 0.257(1) 0.458(1) 1.126(1)
O13 O -0.049(1) 0.319(1) 0.623(1)
O14 O -0.061(1) 0.430(1) 0.771(1)
O15 O 0.267(1) 0.220(1) 0.2590(9)
O16 O 0.277(1) 0.207(1) 0.110(1)
O17 O -0.071(1) 0.193(1) -0.220(1)
O18 O -0.230(1) 0.265(1) -0.210(1)
O19 O -0.266(1) 0.374(1) 0.132(1)
O20 O -0.105(1) 0.437(1) 0.2909(9)
N1 N 0.421(1) 0.316(1) 0.764(1)
N2 N 0.330(2) 0.429(2) 1.087(1)
N3 N -0.005(1) 0.375(1) 0.721(1)
N4 N 0.226(1) 0.231(1) 0.1711(9)
N5 N -0.126(1) 0.240(1) -0.168(1)
N6 N -0.156(1) 0.385(1) 0.188(1)
C1 C 0.204(1) 0.346(1) 0.726(1)
C2 C 0.331(1) 0.345(1) 0.808(1)
C3 C 0.371(2) 0.372(2) 0.921(1)
C4 C 0.291(2) 0.403(2) 0.969(1)
C5 C 0.170(2) 0.398(2) 0.899(1)
C6 C 0.132(2) 0.369(1) 0.787(1)
C7 C 0.043(1) 0.313(1) 0.191(1)
C8 C 0.098(1) 0.261(1) 0.118(1)
C9 C 0.004(1) 0.241(2) 0.005(1)
C10 C -0.072(2) 0.264(2) -0.046(1)
C11 C -0.138(1) 0.313(1) 0.015(1)
C12 C -0.082(1) 0.335(1) 0.128(1)
C13 C 0.118(1) -0.045(1) 0.562(2)
C14 C -0.049(2) -0.020(1) 0.372(1)
C15 C 0.396(2) 0.575(1) 0.497(2)
C16 C 0.584(2) 0.464(2) 0.604(2)
C17 C 0.438(2) -0.073(2) 0.376(2)
C18 C 0.538(2) 0.119(1) 0.527(1)
C14A C 0.049(2) 0.020(1) 0.628(1)
C13A C -0.118(1) 0.045(1) 0.438(2)
C16A C 0.416(2) 0.536(2) 0.396(2)
C15A C 0.604(2) 0.425(1) 0.503(2)
C18A C 0.462(2) -0.119(1) 0.473(1)
C17A C 0.562(2) 0.073(2) 0.624(2)
S1A S -0.1124(4) 0.0055(4) 0.5473(4)
S2A S 0.5669(5) 0.5210(6) 0.4218(5)
S3A S 0.5572(6) -0.0718(6) 0.5945(5)
O6A O -0.1415(9) -0.1166(9) 0.4928(8)
O7A O 0.621(1) 0.6326(9) 0.5089(9)
O8A O 0.6589(8) -0.116(1) 0.5592(9)
La1A La -0.1974(1) -0.2610(1) 0.54893(9)
La1A_2 La 0.8026(1) 0.7390(1) 0.54893(9)
La1A_3 La 0.8026(1) -0.2610(1) 0.54893(9)
O1A O -0.0770(9) -0.1009(9) 0.7354(8)
O2A O -0.170(1) -0.335(1) 0.3735(8)
O3A O 0.0259(9) -0.2793(9) 0.5841(8)
O4A O -0.090(1) -0.338(1) 0.7039(9)
O5A O -0.1566(9) -0.4765(9) 0.4890(9)
O7A_2 O -0.379(1) -0.3674(9) 0.5089(9)
O8A_2 O -0.3411(8) -0.116(1) 0.5592(9)
O9A O -0.395(1) -0.290(1) 0.3353(9)
O15A O -0.267(1) -0.220(1) 0.7410(9)
C1A C -0.204(1) -0.346(1) 0.274(1)
C7A C -0.043(1) -0.313(1) 0.809(1)
N1A N -0.421(1) -0.316(1) 0.236(1)
N4A N -0.226(1) -0.231(1) 0.8289(9)
C2A C -0.331(1) -0.345(1) 0.192(1)
C6A C -0.132(2) -0.369(1) 0.213(1)
C8A C -0.098(1) -0.261(1) 0.882(1)
C12A C 0.082(1) -0.335(1) 0.872(1)
O10A O -0.526(1) -0.322(2) 0.169(1)
O16A O -0.277(1) -0.207(1) 0.890(1)
C3A C -0.371(2) -0.372(2) 0.079(1)
N3A N 0.005(1) -0.375(1) 0.279(1)
C5A C -0.170(2) -0.398(2) 0.101(1)
C9A C -0.004(1) -0.241(2) 0.995(1)
N6A N 0.156(1) -0.385(1) 0.812(1)
C11A C 0.138(1) -0.313(1) 0.985(1)
C4A C -0.291(2) -0.403(2) 0.031(1)
O13A O 0.049(1) -0.319(1) 0.377(1)
O14A O 0.061(1) -0.430(1) 0.229(1)
C10A C 0.072(2) -0.264(2) 1.046(1)
O19A O 0.266(1) -0.374(1) 0.868(1)
O20A O 0.105(1) -0.437(1) 0.7091(9)
N2A N -0.330(2) -0.429(2) -0.087(1)
N5A N 0.126(1) -0.240(1) 1.168(1)
O11A O -0.439(1) -0.422(2) -0.147(1)
O12A O -0.257(1) -0.458(1) -0.126(1)
O17A O 0.071(1) -0.193(1) 1.220(1)
O18A O 0.230(1) -0.265(1) 1.210(1)
O21 O -0.1600(9) 0.1481(9) 0.2013(9)
O22 O -0.215(1) 0.033(1) -0.1282(9)
O23 O -0.104(1) 0.016(1) 0.038(1)
O24 O -0.707(1) 0.119(1) -0.124(1)
O25 O -0.630(1) 0.078(1) -0.243(1)
O26 O -0.441(1) 0.178(2) 0.272(1)
O27 O -0.278(1) 0.264(1) 0.326(1)
N7 N -0.194(1) 0.042(1) -0.029(1)
N8 N -0.620(1) 0.100(1) -0.148(1)
N9 N -0.364(1) 0.204(1) 0.251(1)
C19 C -0.263(1) 0.132(1) 0.122(1)
C20 C -0.292(1) 0.087(1) 0.007(1)
C21 C -0.402(1) 0.076(1) -0.081(1)
C22 C -0.499(1) 0.111(1) -0.054(1)
C23 C -0.487(1) 0.149(1) 0.054(1)
C24 C -0.375(1) 0.162(1) 0.138(1)
loop_
_geom_bond_atom_site_label_1
_geom_bond_atom_site_label_2
_geom_bond_site_symmetry_1
_geom_bond_site_symmetry_2
La1 O1 1_555 1_555
S1 O6 1_555 1_555
S2 O7 1_555 1_555
S3 O8 1_555 1_555
O2 La1 1_555 1_555
O3 La1 1_555 1_555
O4 La1 1_555 1_555
O5 La1 1_555 1_555
O6 La1 1_555 1_555
O7 La1 1_555 1_555
O8 La1 1_555 1_555
O9 La1 1_555 1_555
O10 N1 1_555 1_555
O11 N2 1_555 1_555
O12 N2 1_555 1_555
O13 N3 1_555 1_555
O14 N3 1_555 1_555
O15 La1 1_555 1_555
O16 N4 1_555 1_555
O17 N5 1_555 1_555
O18 N5 1_555 1_555
O19 N6 1_555 1_555
O20 N6 1_555 1_555
N1 O9 1_555 1_555
N2 C4 1_555 1_555
N3 C6 1_555 1_555
N4 O15 1_555 1_555
N5 C10 1_555 1_555
N6 C12 1_555 1_555
C1 O2 1_555 1_555
C2 N1 1_555 1_555
C3 C2 1_555 1_555
C4 C3 1_555 1_555
C5 C4 1_555 1_555
C6 C1 1_555 1_555
C7 O4 1_555 1_555
C8 N4 1_555 1_555
C9 C8 1_555 1_555
C10 C9 1_555 1_555
C11 C10 1_555 1_555
C12 C7 1_555 1_555
C13 S1 1_555 1_555
C14 S1 1_555 1_555
C15 S2 1_555 1_555
C16 S2 1_555 1_555
C17 S3 1_555 1_555
C18 S3 1_555 1_555
O21 C19 1_555 1_555
O22 N7 1_555 1_555
O23 N7 1_555 1_555
O24 N8 1_555 1_555
O25 N8 1_555 1_555
O26 N9 1_555 1_555
O27 N9 1_555 1_555
N7 C20 1_555 1_555
N8 C22 1_555 1_555
N9 C24 1_555 1_555
C19 C20 1_555 1_555
C20 C21 1_555 1_555
C21 C22 1_555 1_555
C22 C23 1_555 1_555
C23 C24 1_555 1_555
C24 C19 1_555 1_555
C14A C13 1_555 1_555
C13A C14 1_555 1_555
C16A C15 1_555 1_555
C15A C16 1_555 1_555
C18A C17 1_555 1_555
C17A C18 1_555 1_555
S1A C14A 1_555 1_555
S2A C16A 1_555 1_555
S3A C18A 1_555 1_555
O6A S1A 1_555 1_555
O7A S2A 1_555 1_555
O8A S3A 1_555 1_555
La1A O6A 1_555 1_555
La1A_2 O7A 1_555 1_555
La1A_3 O8A 1_555 1_555
O1A La1A 1_555 1_555
O2A La1A 1_555 1_555
O3A La1A 1_555 1_555
O4A La1A 1_555 1_555
O5A La1A 1_555 1_555
O7A_2 La1A 1_555 1_555
O8A_2 La1A 1_555 1_555
O9A La1A 1_555 1_555
O15A La1A 1_555 1_555
C1A O2A 1_555 1_555
C7A O4A 1_555 1_555
N1A O9A 1_555 1_555
N4A O15A 1_555 1_555
C2A C1A 1_555 1_555
C6A C1A 1_555 1_555
C8A C7A 1_555 1_555
C12A C7A 1_555 1_555
O10A N1A 1_555 1_555
O16A N4A 1_555 1_555
C3A C2A 1_555 1_555
N3A C6A 1_555 1_555
C5A C6A 1_555 1_555
C9A C8A 1_555 1_555
N6A C12A 1_555 1_555
C11A C12A 1_555 1_555
C4A C3A 1_555 1_555
O13A N3A 1_555 1_555
O14A N3A 1_555 1_555
C10A C9A 1_555 1_555
O19A N6A 1_555 1_555
O20A N6A 1_555 1_555
N2A C4A 1_555 1_555
N5A C10A 1_555 1_555
O11A N2A 1_555 1_555
O12A N2A 1_555 1_555
O17A N5A 1_555 1_555
O18A N5A 1_555 1_555
C1 C2 1_555 1_555
C5 C6 1_555 1_555
C7 C8 1_555 1_555
C11 C12 1_555 1_555
C13A S1A 1_555 1_555
C15A S2A 1_555 1_555
C17A S3A 1_555 1_555
N1A C2A 1_555 1_555
N4A C8A 1_555 1_555
C5A C4A 1_555 1_555
C11A C10A 1_555 1_555

#END
