
#######################################################################
#
#                 Cambridge Crystallographic Data Centre
#                                CCDC 
#
#######################################################################
#
# If this CIF has been generated from an entry in the Cambridge 
# Structural Database, then it will include bibliographic, chemical, 
# crystal, experimental, refinement or atomic coordinate data resulting 
# from the CCDC's data processing and validation procedures.
#
#######################################################################

data_XAQJIJ
_symmetry_cell_setting           monoclinic
_symmetry_space_group_name_H-M   'I 2/a'
_symmetry_Int_Tables_number      15
_space_group_name_Hall           '-I 2ya'
loop_
_symmetry_equiv_pos_site_id
_symmetry_equiv_pos_as_xyz
1 x,y,z
2 1/2+x,1/2+y,1/2+z
3 1/2-x,y,-z
4 -x,1/2+y,1/2-z
5 -x,-y,-z
6 1/2-x,1/2-y,1/2-z
7 1/2+x,-y,z
8 x,1/2-y,1/2+z
_cell_length_a                   12.663(4)
_cell_length_b                   10.626(3)
_cell_length_c                   16.510(5)
_cell_angle_alpha                90
_cell_angle_beta                 96.499(5)
_cell_angle_gamma                90
_cell_volume                     2207.26
loop_
_atom_site_label
_atom_site_type_symbol
_atom_site_fract_x
_atom_site_fract_y
_atom_site_fract_z
Mn1 Mn 0.7500 0.04493(4) 1.0000
O1 O 0.83355(12) -0.10633(14) 0.94118(10)
N1 N 0.88498(15) 0.12680(17) 0.93741(12)
N2 N 0.95227(15) 0.04481(16) 0.90473(11)
N3 N 0.7500 0.2649(2) 1.0000
N4 N 1.14162(14) -0.04407(17) 0.87378(12)
H1 H 1.2072 -0.0383 0.8652
H2 H 1.1114 0.0175 0.8959
C1 C 1.08356(18) -0.1547(2) 0.85147(14)
C2 C 0.7500 0.5236(3) 1.0000
H3 H 0.7500 0.6111 1.0000
C3 C 1.13390(18) -0.2537(2) 0.81563(14)
H4 H 1.2040 -0.2436 0.8050
C4 C 0.92739(19) -0.2856(2) 0.84885(14)
H5 H 0.8580 -0.2982 0.8605
C5 C 0.91006(17) 0.2449(2) 0.93845(14)
C6 C 0.83236(19) 0.4584(2) 0.97108(15)
H6 H 0.8887 0.5014 0.9522
C7 C 0.82992(17) 0.3272(2) 0.97062(14)
C8 C 0.91543(17) -0.0729(2) 0.90877(14)
C9 C 1.00904(19) 0.2943(2) 0.90850(16)
H7 H 1.0699 0.2579 0.9398
H8 H 1.0113 0.3842 0.9143
H9 H 1.0095 0.2725 0.8521
C10 C 0.97787(17) -0.1706(2) 0.86927(13)
C11 C 1.0830(2) -0.3661(2) 0.79542(16)
H10 H 1.1191 -0.4329 0.7706
C12 C 0.9788(2) -0.3803(2) 0.81170(15)
H11 H 0.9430 -0.4548 0.7974
Mn1F Mn 1.2500 -0.04493(4) 1.0000
Mn1F_2 Mn 0.2500 -0.04493(4) 1.0000
O1B O 0.66645(12) -0.10633(14) 1.05882(10)
N1B N 0.61502(15) 0.12680(17) 1.06259(12)
N2B N 0.54773(15) 0.04481(16) 1.09527(11)
N4B N 0.35838(14) -0.04407(17) 1.12622(12)
N4F N 0.64162(14) 0.04407(17) 0.87378(12)
N4D N 0.85838(14) 0.04407(17) 1.12622(12)
H1B H 0.2928 -0.0383 1.1348
H1F H 0.7072 0.0383 0.8652
H1D H 0.7928 0.0383 1.1348
H2B H 0.3886 0.0175 1.1041
H2F H 0.6114 -0.0175 0.8959
H2D H 0.8886 -0.0175 1.1041
C1B C 0.41644(18) -0.1547(2) 1.14853(14)
C3B C 0.36610(18) -0.2537(2) 1.18437(14)
H4B H 0.2960 -0.2436 1.1950
C4B C 0.57261(19) -0.2856(2) 1.15115(14)
H5B H 0.6420 -0.2982 1.1395
C5B C 0.58994(17) 0.2449(2) 1.06155(14)
C6B C 0.66764(19) 0.4584(2) 1.02892(15)
H6B H 0.6113 0.5014 1.0478
C7B C 0.67008(17) 0.3272(2) 1.02938(14)
C8B C 0.58457(17) -0.0729(2) 1.09123(14)
C9B C 0.49096(19) 0.2943(2) 1.09150(16)
H7B H 0.4301 0.2579 1.0602
H8B H 0.4887 0.3842 1.0857
H9B H 0.4905 0.2725 1.1479
C10B C 0.52213(17) -0.1706(2) 1.13073(13)
C11B C 0.4170(2) -0.3661(2) 1.20458(16)
H10B H 0.3809 -0.4329 1.2294
C12B C 0.5212(2) -0.3803(2) 1.18830(15)
H11B H 0.5570 -0.4548 1.2026
loop_
_geom_bond_atom_site_label_1
_geom_bond_atom_site_label_2
_geom_bond_site_symmetry_1
_geom_bond_site_symmetry_2
Mn1 O1 1_555 1_555
O1 C8 1_555 1_555
N1 Mn1 1_555 1_555
N2 N1 1_555 1_555
N3 Mn1 1_555 1_555
N4 H1 1_555 1_555
H2 N4 1_555 1_555
C1 N4 1_555 1_555
C2 H3 1_555 1_555
C3 C1 1_555 1_555
H4 C3 1_555 1_555
C4 H5 1_555 1_555
C5 N1 1_555 1_555
C6 C2 1_555 1_555
H6 C6 1_555 1_555
C7 N3 1_555 1_555
C8 N2 1_555 1_555
C9 C5 1_555 1_555
H7 C9 1_555 1_555
H8 C9 1_555 1_555
H9 C9 1_555 1_555
C10 C1 1_555 1_555
C11 C3 1_555 1_555
H10 C11 1_555 1_555
C12 C4 1_555 1_555
H11 C12 1_555 1_555
Mn1F N4 1_555 1_555
Mn1F_2 N4B 1_555 1_555
O1B Mn1 1_555 1_555
N1B Mn1 1_555 1_555
N2B N1B 1_555 1_555
N4B H1B 1_555 1_555
N4F Mn1 1_555 1_555
N4D Mn1 1_555 1_555
H1F N4F 1_555 1_555
H1D N4D 1_555 1_555
H2B N4B 1_555 1_555
H2F N4F 1_555 1_555
H2D N4D 1_555 1_555
C1B N4B 1_555 1_555
C3B C1B 1_555 1_555
H4B C3B 1_555 1_555
C4B H5B 1_555 1_555
C5B N1B 1_555 1_555
C6B C2 1_555 1_555
H6B C6B 1_555 1_555
C7B N3 1_555 1_555
C8B O1B 1_555 1_555
C9B C5B 1_555 1_555
H7B C9B 1_555 1_555
H8B C9B 1_555 1_555
H9B C9B 1_555 1_555
C10B C1B 1_555 1_555
C11B C3B 1_555 1_555
H10B C11B 1_555 1_555
C12B C4B 1_555 1_555
H11B C12B 1_555 1_555
C4 C10 1_555 1_555
C5 C7 1_555 1_555
C6 C7 1_555 1_555
C8 C10 1_555 1_555
C11 C12 1_555 1_555
N2B C8B 1_555 1_555
C4B C10B 1_555 1_555
C5B C7B 1_555 1_555
C6B C7B 1_555 1_555
C8B C10B 1_555 1_555
C11B C12B 1_555 1_555

#END
