
#######################################################################
#
#                 Cambridge Crystallographic Data Centre
#                                CCDC 
#
#######################################################################
#
# If this CIF has been generated from an entry in the Cambridge 
# Structural Database, then it will include bibliographic, chemical, 
# crystal, experimental, refinement or atomic coordinate data resulting 
# from the CCDC's data processing and validation procedures.
#
#######################################################################

data_XAQKIL
_symmetry_cell_setting           monoclinic
_symmetry_space_group_name_H-M   'C 2/c'
_symmetry_Int_Tables_number      15
_space_group_name_Hall           '-C 2yn'
loop_
_symmetry_equiv_pos_site_id
_symmetry_equiv_pos_as_xyz
1 x,y,z
2 -x,y,1/2-z
3 1/2+x,1/2+y,z
4 1/2-x,1/2+y,1/2-z
5 -x,-y,-z
6 x,-y,1/2+z
7 1/2-x,1/2-y,-z
8 1/2+x,1/2-y,1/2+z
_cell_length_a                   29.236(6)
_cell_length_b                   5.7289(11)
_cell_length_c                   28.417(6)
_cell_angle_alpha                90
_cell_angle_beta                 112.82(3)
_cell_angle_gamma                90
_cell_volume                     4387.03
loop_
_atom_site_label
_atom_site_type_symbol
_atom_site_fract_x
_atom_site_fract_y
_atom_site_fract_z
Cd1 Cd 0.702659(10) 0.51512(4) 0.699916(11)
I1 I 0.859079(16) 0.01161(6) 0.499087(16)
I2 I 0.512605(15) 0.02582(7) 0.867649(18)
N1 N 0.63233(12) 0.6432(5) 0.63249(13)
O1 O 0.72282(10) 0.2206(4) 0.65260(11)
O2 O 0.75698(11) 0.5688(5) 0.65800(12)
O3 O 0.66681(11) 0.5545(5) 0.75996(13)
O4 O 0.65569(10) 0.2162(4) 0.71995(11)
O5 O 0.77403(9) 0.4079(4) 0.77508(10)
H1 H 0.7967 0.4972 0.7737
H2 H 0.7672 0.4911 0.7962
C1 C 0.63383(15) 0.8378(7) 0.60699(17)
H3 H 0.6642 0.9173 0.6163
C2 C 0.59296(16) 0.9271(7) 0.56765(17)
H4 H 0.5958 1.0643 0.5508
C3 C 0.54744(14) 0.8134(7) 0.55295(16)
C4 C 0.54645(15) 0.6101(7) 0.57942(17)
H5 H 0.5167 0.5257 0.5707
C5 C 0.58901(15) 0.5322(6) 0.61836(17)
H6 H 0.5874 0.3948 0.6357
C6 C 0.50194(14) 0.9012(7) 0.51309(17)
H7 H 0.4730 0.8112 0.5053
C7 C 0.75131(14) 0.3619(7) 0.64207(16)
C8 C 0.77652(14) 0.2800(7) 0.60864(16)
C9 C 0.76555(17) 0.0635(7) 0.58451(19)
H8 H 0.7423 -0.0346 0.5899
C10 C 0.78837(19) -0.0075(7) 0.55304(19)
H9 H 0.7803 -0.1527 0.5364
C11 C 0.82314(16) 0.1337(7) 0.54571(17)
C12 C 0.83515(17) 0.3486(7) 0.56929(19)
H10 H 0.8590 0.4441 0.5642
C13 C 0.81162(16) 0.4211(7) 0.60046(17)
H11 H 0.8194 0.5678 0.6164
C14 C 0.64925(14) 0.3523(7) 0.75235(17)
C15 C 0.61771(15) 0.2728(7) 0.78011(17)
C16 C 0.61094(16) 0.4180(7) 0.81593(18)
H12 H 0.6271 0.5633 0.8235
C17 C 0.58060(17) 0.3503(8) 0.84062(19)
H13 H 0.5759 0.4486 0.8648
C18 C 0.55729(16) 0.1350(8) 0.8290(2)
C19 C 0.56438(18) -0.0121(7) 0.7940(2)
H14 H 0.5486 -0.1583 0.7867
C20 C 0.59473(16) 0.0570(7) 0.76967(19)
H15 H 0.5999 -0.0428 0.7459
Cd1D Cd 0.297341(10) 1.48488(4) 0.300084(11)
Cd1C Cd 0.797341(10) 0.01512(4) 0.800084(11)
Cd1C_2 Cd 0.797341(10) 1.01512(4) 0.800084(11)
I1D I 0.140921(16) 1.98839(6) 0.500913(16)
I2D I 0.487395(15) 1.97418(7) 0.132351(18)
N1D N 0.36767(12) 1.3568(5) 0.36751(13)
O1D O 0.27718(10) 1.7794(4) 0.34740(11)
O2D O 0.24302(11) 1.4312(5) 0.34200(12)
O3D O 0.33319(11) 1.4455(5) 0.24004(13)
O4D O 0.34431(10) 1.7838(4) 0.28005(11)
O5C O 0.72597(9) 0.9079(4) 0.72492(10)
O5D O 0.22597(9) 1.5921(4) 0.22492(10)
O5G O 0.27403(9) 1.0921(4) 0.27508(10)
H1C H 0.7033 0.9972 0.7263
H1D H 0.2033 1.5028 0.2263
H1G H 0.2967 1.0028 0.2737
H2C H 0.7328 0.9911 0.7038
H2D H 0.2328 1.5089 0.2038
H2G H 0.2672 1.0089 0.2962
C1D C 0.36617(15) 1.1622(7) 0.39301(17)
H3D H 0.3358 1.0827 0.3837
C2D C 0.40704(16) 1.0729(7) 0.43235(17)
H4D H 0.4042 0.9357 0.4492
C3D C 0.45256(14) 1.1866(7) 0.44705(16)
C4D C 0.45355(15) 1.3899(7) 0.42058(17)
H5D H 0.4833 1.4743 0.4293
C5D C 0.41099(15) 1.4678(6) 0.38164(17)
H6D H 0.4126 1.6052 0.3643
C6D C 0.49806(14) 1.0988(7) 0.48691(17)
H7D H 0.5270 1.1888 0.4947
C7D C 0.24869(14) 1.6381(7) 0.35793(16)
C8D C 0.22348(14) 1.7200(7) 0.39136(16)
C9D C 0.23445(17) 1.9365(7) 0.41549(19)
H8D H 0.2577 2.0346 0.4101
C10D C 0.21163(19) 2.0075(7) 0.44696(19)
H9D H 0.2197 2.1527 0.4636
C11D C 0.17686(16) 1.8663(7) 0.45429(17)
C12D C 0.16485(17) 1.6514(7) 0.43071(19)
H10D H 0.1410 1.5559 0.4358
C13D C 0.18838(16) 1.5789(7) 0.39954(17)
H11D H 0.1806 1.4322 0.3836
C14D C 0.35075(14) 1.6477(7) 0.24765(17)
C15D C 0.38229(15) 1.7272(7) 0.21989(17)
C16D C 0.38906(16) 1.5820(7) 0.18407(18)
H12D H 0.3729 1.4367 0.1765
C17D C 0.41940(17) 1.6497(8) 0.15938(19)
H13D H 0.4241 1.5514 0.1352
C18D C 0.44271(16) 1.8650(8) 0.1710(2)
C19D C 0.43562(18) 2.0121(7) 0.2060(2)
H14D H 0.4514 2.1583 0.2133
C20D C 0.40527(16) 1.9430(7) 0.23033(19)
H15D H 0.4001 2.0428 0.2541
loop_
_geom_bond_atom_site_label_1
_geom_bond_atom_site_label_2
_geom_bond_site_symmetry_1
_geom_bond_site_symmetry_2
Cd1 N1 1_555 1_555
I1 C11 1_555 1_555
I2 C18 1_555 1_555
N1 C1 1_555 1_555
O1 Cd1 1_555 1_555
O2 Cd1 1_555 1_555
O3 Cd1 1_555 1_555
O4 Cd1 1_555 1_555
O5 Cd1 1_555 1_555
H1 O5 1_555 1_555
H2 O5 1_555 1_555
C1 H3 1_555 1_555
C2 C1 1_555 1_555
H4 C2 1_555 1_555
C3 C2 1_555 1_555
C4 C3 1_555 1_555
H5 C4 1_555 1_555
C5 N1 1_555 1_555
H6 C5 1_555 1_555
C6 C3 1_555 1_555
H7 C6 1_555 1_555
C7 O1 1_555 1_555
C8 C7 1_555 1_555
C9 C8 1_555 1_555
H8 C9 1_555 1_555
C10 C9 1_555 1_555
H9 C10 1_555 1_555
C11 C10 1_555 1_555
C12 C11 1_555 1_555
H10 C12 1_555 1_555
C13 C8 1_555 1_555
H11 C13 1_555 1_555
C14 O3 1_555 1_555
C15 C14 1_555 1_555
C16 C15 1_555 1_555
H12 C16 1_555 1_555
C17 C16 1_555 1_555
H13 C17 1_555 1_555
C18 C17 1_555 1_555
C19 C18 1_555 1_555
H14 C19 1_555 1_555
C20 C15 1_555 1_555
H15 C20 1_555 1_555
Cd1D N1D 1_555 1_555
Cd1C O5 1_555 1_555
Cd1C_2 O5C 1_555 1_555
I1D C11D 1_555 1_555
I2D C18D 1_555 1_555
N1D C1D 1_555 1_555
O1D Cd1D 1_555 1_555
O2D Cd1D 1_555 1_555
O3D Cd1D 1_555 1_555
O4D Cd1D 1_555 1_555
O5C Cd1 1_555 1_555
O5D Cd1D 1_555 1_555
O5G Cd1D 1_555 1_555
H1C O5C 1_555 1_555
H1D O5D 1_555 1_555
H1G O5G 1_555 1_555
H2C O5C 1_555 1_555
H2D O5D 1_555 1_555
H2G O5G 1_555 1_555
C1D H3D 1_555 1_555
C2D C1D 1_555 1_555
H4D C2D 1_555 1_555
C3D C2D 1_555 1_555
C4D C3D 1_555 1_555
H5D C4D 1_555 1_555
C5D N1D 1_555 1_555
H6D C5D 1_555 1_555
C6D C6 1_555 1_555
H7D C6D 1_555 1_555
C7D O1D 1_555 1_555
C8D C7D 1_555 1_555
C9D C8D 1_555 1_555
H8D C9D 1_555 1_555
C10D C9D 1_555 1_555
H9D C10D 1_555 1_555
C11D C10D 1_555 1_555
C12D C11D 1_555 1_555
H10D C12D 1_555 1_555
C13D C8D 1_555 1_555
H11D C13D 1_555 1_555
C14D O3D 1_555 1_555
C15D C14D 1_555 1_555
C16D C15D 1_555 1_555
H12D C16D 1_555 1_555
C17D C16D 1_555 1_555
H13D C17D 1_555 1_555
C18D C17D 1_555 1_555
C19D C18D 1_555 1_555
H14D C19D 1_555 1_555
C20D C15D 1_555 1_555
H15D C20D 1_555 1_555
O2 C7 1_555 1_555
O4 C14 1_555 1_555
C4 C5 1_555 1_555
C12 C13 1_555 1_555
C19 C20 1_555 1_555
O2D C7D 1_555 1_555
O4D C14D 1_555 1_555
C3D C6D 1_555 1_555
C4D C5D 1_555 1_555
C12D C13D 1_555 1_555
C19D C20D 1_555 1_555

#END
