
#######################################################################
#
#                 Cambridge Crystallographic Data Centre
#                                CCDC 
#
#######################################################################
#
# If this CIF has been generated from an entry in the Cambridge 
# Structural Database, then it will include bibliographic, chemical, 
# crystal, experimental, refinement or atomic coordinate data resulting 
# from the CCDC's data processing and validation procedures.
#
#######################################################################

data_XAQMOS
_symmetry_cell_setting           monoclinic
_symmetry_space_group_name_H-M   'I 2'
_symmetry_Int_Tables_number      5
_space_group_name_Hall           'I 2y'
loop_
_symmetry_equiv_pos_site_id
_symmetry_equiv_pos_as_xyz
1 x,y,z
2 -x,y,-z
3 1/2+x,1/2+y,1/2+z
4 1/2-x,1/2+y,1/2-z
_cell_length_a                   7.2733(11)
_cell_length_b                   10.6012(12)
_cell_length_c                   33.587(6)
_cell_angle_alpha                90
_cell_angle_beta                 90.87(2)
_cell_angle_gamma                90
_cell_volume                     2589.45
loop_
_atom_site_label
_atom_site_type_symbol
_atom_site_fract_x
_atom_site_fract_y
_atom_site_fract_z
Ba1 Ba 0.01315(11) 0.37737(8) -0.12047(3)
Ba2 Ba 0.50680(11) 0.12497(9) -0.11918(3)
Ba3 Ba 0.0000 0.63062(16) 0.0000
Ba4 Ba 0.75075(11) 0.24990(10) -0.23348(3)
C1 C -0.174(2) 0.1467(17) -0.0501(7)
O1 O -0.2038(16) 0.2440(18) -0.0692(4)
O2 O -0.242(3) 0.0375(17) -0.0571(6)
C2 C -0.057(2) 0.1511(19) -0.0139(6)
C3 C 0.5169(19) 0.4226(16) -0.1529(5)
O3 O 0.3693(14) 0.3732(13) -0.1432(4)
O4 O 0.6623(13) 0.3642(11) -0.1573(3)
C4 C 0.517(2) 0.561(2) -0.1589(7)
C5 C 0.526(3) 0.672(2) -0.1629(7)
C6 C 0.527(2) 0.8107(19) -0.1687(7)
O5 O 0.5566(16) 0.8504(12) -0.2015(4)
O6 O 0.5159(18) 0.8692(16) -0.1367(4)
C7 C -0.005(2) 0.0770(14) -0.1502(5)
O7 O -0.1472(12) 0.1317(12) -0.1582(3)
O8 O 0.1416(14) 0.1279(14) -0.1369(4)
C8 C 0.001(2) -0.0574(18) -0.1566(6)
C9 C 0.005(3) -0.1672(19) -0.1617(7)
C10 C -0.006(3) -0.304(2) -0.1681(7)
O9 O 0.0241(16) -0.3727(15) -0.1381(4)
O10 O -0.0398(16) -0.3460(12) -0.2035(4)
N1 N 1.0181(19) -0.0006(16) -0.2503(5)
O11 O 1.1042(15) 0.0982(12) -0.2392(4)
O12 O 0.8468(14) 0.0007(12) -0.2498(4)
O13 O 1.1007(15) -0.0987(12) -0.2589(4)
C11 C 0.2928(18) 0.364(2) -0.0435(5)
O14 O 0.2907(18) 0.2682(16) -0.0664(4)
O15 O 0.1836(16) 0.4509(14) -0.0432(5)
C12 C 0.443(2) 0.363(2) -0.0129(5)
O16 O -0.116(2) 0.7419(18) 0.0686(4)
O17 O 0.0341(14) 0.4076(11) -0.2050(4)
O18 O 0.256(2) 0.8236(14) 0.0146(5)
O19 O 0.4701(15) 0.0948(10) -0.2029(4)
O20 O 0.2298(17) 0.5200(15) 0.0629(4)
O21 O 0.299(2) -0.0103(16) -0.0570(5)
Ba1A Ba 0.98685(11) 0.37737(8) 0.12047(3)
Ba1_2 Ba 1.01315(11) 0.37737(8) -0.12047(3)
Ba1_3 Ba 0.01315(11) -0.62263(8) -0.12047(3)
Ba1A_2 Ba -0.01315(11) 0.37737(8) 0.12047(3)
Ba1_4 Ba -0.98685(11) 0.37737(8) -0.12047(3)
Ba1_5 Ba 0.01315(11) 1.37737(8) -0.12047(3)
Ba2A Ba 0.49320(11) 0.12497(9) 0.11918(3)
Ba2_2 Ba -0.49320(11) 0.12497(9) -0.11918(3)
Ba2_3 Ba 0.50680(11) 1.12497(9) -0.11918(3)
Ba2_4 Ba -0.49320(11) 1.12497(9) -0.11918(3)
Ba3_2 Ba 1.0000 0.63062(16) 0.0000
Ba4_2 Ba -0.24925(11) 0.24990(10) -0.23348(3)
Ba4C Ba 0.74925(11) 0.74990(10) -0.26652(3)
Ba4C_2 Ba -0.25075(11) -0.25010(10) -0.26652(3)
Ba4C_3 Ba 0.74925(11) -0.25010(10) -0.26652(3)
Ba4C_4 Ba -0.25075(11) 0.74990(10) -0.26652(3)
Ba4_3 Ba -0.24925(11) 1.24990(10) -0.23348(3)
Ba4A Ba 1.24925(11) 0.24990(10) 0.23348(3)
Ba4A_2 Ba 0.24925(11) 0.24990(10) 0.23348(3)
C1A C 0.174(2) 0.1467(17) 0.0501(7)
O1A O 0.2038(16) 0.2440(18) 0.0692(4)
O1_2 O 0.7962(16) 0.2440(18) -0.0692(4)
O1A_2 O 1.2038(16) 0.2440(18) 0.0692(4)
O2A O 0.242(3) 0.0375(17) 0.0571(6)
O2_2 O 0.758(3) 0.0375(17) -0.0571(6)
C2A C 0.057(2) 0.1511(19) 0.0139(6)
C3_2 C -0.4831(19) 0.4226(16) -0.1529(5)
O3_2 O -0.6307(14) 0.3732(13) -0.1432(4)
O3A O 0.6307(14) 0.3732(13) 0.1432(4)
O4_2 O -0.3377(13) 0.3642(11) -0.1573(3)
O4A O 1.3377(13) 0.3642(11) 0.1573(3)
O4A_2 O 0.3377(13) 0.3642(11) 0.1573(3)
C4_2 C -0.483(2) 0.561(2) -0.1589(7)
C5_2 C -0.474(3) 0.672(2) -0.1629(7)
C6_2 C -0.473(2) 0.8107(19) -0.1687(7)
O5_2 O -0.4434(16) 0.8504(12) -0.2015(4)
O5C O 0.9434(16) 0.3504(12) -0.2985(4)
O5C_2 O -0.0566(16) 0.3504(12) -0.2985(4)
O6_2 O -0.4841(18) 0.8692(16) -0.1367(4)
O6_3 O 0.5159(18) -0.1308(16) -0.1367(4)
O6A O 0.4841(18) -0.1308(16) 0.1367(4)
C7_2 C -0.005(2) 1.0770(14) -0.1502(5)
O7_2 O -0.1472(12) 1.1317(12) -0.1582(3)
O7_3 O 0.8528(12) 0.1317(12) -0.1582(3)
O7A O 1.1472(12) 0.1317(12) 0.1582(3)
O7A_2 O 0.1472(12) 0.1317(12) 0.1582(3)
O8_2 O 0.1416(14) 1.1279(14) -0.1369(4)
O8A O 0.8584(14) 0.1279(14) 0.1369(4)
C8_2 C 0.001(2) 0.9426(18) -0.1566(6)
C9_2 C 0.005(3) 0.8328(19) -0.1617(7)
C10_2 C -0.006(3) 0.696(2) -0.1681(7)
O9_2 O 0.0241(16) 0.6273(15) -0.1381(4)
O9A O 0.9759(16) 0.6273(15) 0.1381(4)
O10_2 O -0.0398(16) 0.6540(12) -0.2035(4)
O10C O 0.5398(16) 0.1540(12) -0.2965(4)
O10C_2 O -0.4602(16) 0.1540(12) -0.2965(4)
N1C N 0.4819(19) 0.4994(16) -0.2497(5)
O11C O 0.3958(15) 0.5982(12) -0.2608(4)
O11_2 O 0.1042(15) 0.0982(12) -0.2392(4)
O12C O 0.6532(14) 0.5007(12) -0.2502(4)
O12_2 O -0.1532(14) 0.0007(12) -0.2498(4)
O12C_2 O -0.3468(14) 0.5007(12) -0.2502(4)
O13C O 0.3993(15) 0.4013(12) -0.2411(4)
O13C_2 O -0.6007(15) 0.4013(12) -0.2411(4)
C11A C 0.7072(18) 0.364(2) 0.0435(5)
O14A O 0.7093(18) 0.2682(16) 0.0664(4)
O15A O 0.8164(16) 0.4509(14) 0.0432(5)
O15A_2 O -0.1836(16) 0.4509(14) 0.0432(5)
C12A C 0.557(2) 0.363(2) 0.0129(5)
O16A O 0.116(2) 0.7419(18) -0.0686(4)
O17A O 0.9659(14) 0.4076(11) 0.2050(4)
O17_2 O 1.0341(14) 0.4076(11) -0.2050(4)
O18A O -0.256(2) 0.8236(14) -0.0146(5)
O19A O 0.5299(15) 0.0948(10) 0.2029(4)
O19_2 O -0.5299(15) 0.0948(10) -0.2029(4)
O20A O -0.2298(17) 0.5200(15) -0.0629(4)
O20_2 O 1.2298(17) 0.5200(15) 0.0629(4)
O21A O 0.701(2) -0.0103(16) 0.0570(5)
O22 O 0.4904(18) -0.2845(14) 0.0686(4)
loop_
_geom_bond_atom_site_label_1
_geom_bond_atom_site_label_2
_geom_bond_site_symmetry_1
_geom_bond_site_symmetry_2
Ba1 O1 1_555 1_555
Ba2 O3 1_555 1_555
Ba3 O15 1_555 1_555
Ba4 O4 1_555 1_555
C1 O1 1_555 1_555
O1 Ba2_2 1_555 1_555
O2 C1 1_555 1_555
C2 C1 1_555 1_555
C3 O3 1_555 1_555
O3 Ba1 1_555 1_555
O4 Ba2 1_555 1_555
C4 C3 1_555 1_555
C5 C4 1_555 1_555
C6 C5 1_555 1_555
O5 C6 1_555 1_555
O6 C6 1_555 1_555
C7 O7 1_555 1_555
O7 Ba1 1_555 1_555
O8 Ba1 1_555 1_555
C8 C7 1_555 1_555
C9 C8 1_555 1_555
C10 C9 1_555 1_555
O9 C10 1_555 1_555
O10 C10 1_555 1_555
N1 O11 1_555 1_555
O11 Ba4 1_555 1_555
O12 Ba4 1_555 1_555
O13 N1 1_555 1_555
C11 O14 1_555 1_555
O14 Ba1 1_555 1_555
O15 Ba1 1_555 1_555
C12 C11 1_555 1_555
O16 Ba3 1_555 1_555
O17 Ba1 1_555 1_555
O18 Ba3 1_555 1_555
O19 Ba2 1_555 1_555
O20 Ba3 1_555 1_555
O21 Ba2 1_555 1_555
Ba1A O1A_2 1_555 1_555
Ba1_2 O4 1_555 1_555
Ba1_3 O9 1_555 1_555
Ba1A_2 O20 1_555 1_555
Ba1_4 O3_2 1_555 1_555
Ba1_5 O7_2 1_555 1_555
Ba2A O1A 1_555 1_555
Ba2_2 O2 1_555 1_555
Ba2_3 O6 1_555 1_555
Ba2_4 O6_2 1_555 1_555
Ba3_2 O15A 1_555 1_555
Ba4_2 O7 1_555 1_555
Ba4C O5 1_555 1_555
Ba4C_2 O10 1_555 1_555
Ba4C_3 O12 1_555 1_555
Ba4C_4 O5_2 1_555 1_555
Ba4_3 O7_2 1_555 1_555
Ba4A O4A 1_555 1_555
Ba4A_2 O4A_2 1_555 1_555
C1A O1A 1_555 1_555
O1A Ba1A_2 1_555 1_555
O1_2 Ba2 1_555 1_555
O2A Ba2A 1_555 1_555
O2_2 Ba2 1_555 1_555
C2A C2 1_555 1_555
C3_2 O3_2 1_555 1_555
O3_2 Ba2_2 1_555 1_555
O3A Ba1A 1_555 1_555
O4_2 Ba1 1_555 1_555
O4A Ba1A 1_555 1_555
O4A_2 Ba1A_2 1_555 1_555
C4_2 C3_2 1_555 1_555
C5_2 C4_2 1_555 1_555
C6_2 C5_2 1_555 1_555
O5_2 C6_2 1_555 1_555
O5C Ba4 1_555 1_555
O5C_2 Ba4_2 1_555 1_555
O6_2 C6_2 1_555 1_555
O6_3 Ba2 1_555 1_555
O6A Ba2A 1_555 1_555
C7_2 O7_2 1_555 1_555
O7_2 Ba2_4 1_555 1_555
O7_3 Ba2 1_555 1_555
O7A Ba1A 1_555 1_555
O7A_2 Ba1A_2 1_555 1_555
O8_2 Ba1_5 1_555 1_555
O8A Ba1A 1_555 1_555
C8_2 C7_2 1_555 1_555
C9_2 C8_2 1_555 1_555
C10_2 C9_2 1_555 1_555
O9_2 Ba1 1_555 1_555
O9A Ba1A 1_555 1_555
O10_2 Ba4C_4 1_555 1_555
O10C Ba4 1_555 1_555
O10C_2 Ba4_2 1_555 1_555
N1C O11C 1_555 1_555
O11C Ba4C 1_555 1_555
O11_2 Ba4_2 1_555 1_555
O12C Ba4 1_555 1_555
O12_2 Ba4_2 1_555 1_555
O12C_2 Ba4_2 1_555 1_555
O13C Ba4 1_555 1_555
O13C_2 Ba4_2 1_555 1_555
C11A O14A 1_555 1_555
O14A Ba1A 1_555 1_555
O15A Ba1A 1_555 1_555
O15A_2 Ba3 1_555 1_555
C12A C12 1_555 1_555
O16A Ba3 1_555 1_555
O17A Ba1A 1_555 1_555
O17_2 Ba4 1_555 1_555
O18A Ba3 1_555 1_555
O19A Ba2A 1_555 1_555
O19_2 Ba2_2 1_555 1_555
O20A Ba1 1_555 1_555
O20_2 Ba1A 1_555 1_555
O21A Ba2A 1_555 1_555
Ba2 O8 1_555 1_555
Ba2 O14 1_555 1_555
Ba3 O20A 1_555 1_555
Ba4 O19 1_555 1_555
Ba4 O7_3 1_555 1_555
C3 O4 1_555 1_555
C7 O8 1_555 1_555
O7 Ba2_2 1_555 1_555
N1 O12 1_555 1_555
O13 Ba4C_3 1_555 1_555
C11 O15 1_555 1_555
O17 Ba4_2 1_555 1_555
Ba1_2 O1_2 1_555 1_555
Ba1_2 O7_3 1_555 1_555
Ba1_2 O17_2 1_555 1_555
Ba1A_2 O15A_2 1_555 1_555
Ba2A O3A 1_555 1_555
Ba2A O4A_2 1_555 1_555
Ba2A O7A_2 1_555 1_555
Ba2A O8A 1_555 1_555
Ba2A O14A 1_555 1_555
Ba2_2 O4_2 1_555 1_555
Ba2_3 O8_2 1_555 1_555
Ba3_2 O20_2 1_555 1_555
Ba4_2 O4_2 1_555 1_555
Ba4_2 O19_2 1_555 1_555
Ba4C O12C 1_555 1_555
Ba4C_2 O12_2 1_555 1_555
Ba4C_4 O12C_2 1_555 1_555
Ba4A O7A 1_555 1_555
Ba4A O17A 1_555 1_555
Ba4A_2 O7A_2 1_555 1_555
Ba4A_2 O19A 1_555 1_555
C1A O2A 1_555 1_555
C1A C2A 1_555 1_555
C3_2 O4_2 1_555 1_555
C7_2 O8_2 1_555 1_555
C10_2 O9_2 1_555 1_555
C10_2 O10_2 1_555 1_555
N1C O12C 1_555 1_555
N1C O13C 1_555 1_555
C11A O15A 1_555 1_555
C11A C12A 1_555 1_555

#END
