
#######################################################################
#
#                 Cambridge Crystallographic Data Centre
#                                CCDC 
#
#######################################################################
#
# If this CIF has been generated from an entry in the Cambridge 
# Structural Database, then it will include bibliographic, chemical, 
# crystal, experimental, refinement or atomic coordinate data resulting 
# from the CCDC's data processing and validation procedures.
#
#######################################################################

data_XAQNAE
_symmetry_cell_setting           monoclinic
_symmetry_space_group_name_H-M   'P 21/a'
_symmetry_Int_Tables_number      14
_space_group_name_Hall           '-P 2yab'
loop_
_symmetry_equiv_pos_site_id
_symmetry_equiv_pos_as_xyz
1 x,y,z
2 1/2-x,1/2+y,-z
3 -x,-y,-z
4 1/2+x,1/2-y,z
_cell_length_a                   7.884(6)
_cell_length_b                   12.504(3)
_cell_length_c                   11.077(4)
_cell_angle_alpha                90
_cell_angle_beta                 108.05(4)
_cell_angle_gamma                90
_cell_volume                     1038.25
loop_
_atom_site_label
_atom_site_type_symbol
_atom_site_fract_x
_atom_site_fract_y
_atom_site_fract_z
Pb1 Pb 0.1703(1) -0.1214(1) 0.4770(1)
O1 O 0.0444(5) 0.0521(3) 0.4123(3)
O2 O 0.0681(6) 0.2169(3) 0.3448(4)
C1 C 0.1121(7) 0.1226(3) 0.3569(5)
C2 C 0.2540(6) 0.0846(4) 0.2983(5)
N1 N 0.3109(5) -0.0231(3) 0.3421(4)
S1 S 0.4914(1) -0.0651(1) 0.3330(1)
O3 O 0.6273(4) 0.0180(3) 0.3480(3)
O4 O 0.5401(5) -0.1571(3) 0.4142(3)
C3 C 0.4556(6) -0.1068(3) 0.1721(4)
C4 C 0.5881(7) -0.1231(3) 0.1146(5)
C5 C 0.5508(9) -0.1417(5) -0.0133(6)
C6 C 0.3745(10) -0.1487(4) -0.0896(5)
C7 C 0.2403(9) -0.1362(5) -0.0348(6)
C8 C 0.2790(7) -0.1132(4) 0.0931(5)
N2 N 0.7783(7) -0.1236(3) 0.1905(6)
O5 O 0.8199(5) -0.1586(4) 0.2978(4)
O6 O 0.8860(7) -0.0953(5) 0.1380(6)
H1 H 0.3516 0.1379 0.3267
H2 H 0.1777 0.0749 0.1991
H3 H 0.6582 -0.1500 -0.0541
H4 H 0.3416 -0.1609 -0.1915
H5 H 0.1015 -0.1434 -0.0936
H6 H 0.1728 -0.1020 0.1350
O1B O -0.0444(5) -0.0521(3) 0.5877(3)
Pb1B Pb -0.1703(1) 0.1214(1) 0.5230(1)
O3B O 0.3727(4) -0.0180(3) 0.6520(3)
O4C O 0.0401(5) -0.3429(3) 0.4142(3)
O5_2 O -0.1801(5) -0.1586(4) 0.2978(4)
Pb1B_2 Pb 0.8297(1) 0.1214(1) 0.5230(1)
Pb1C Pb 0.6703(1) -0.3786(1) 0.4770(1)
Pb1_2 Pb 1.1703(1) -0.1214(1) 0.4770(1)
loop_
_geom_bond_atom_site_label_1
_geom_bond_atom_site_label_2
_geom_bond_site_symmetry_1
_geom_bond_site_symmetry_2
Pb1 O1 1_555 1_555
O1 C1 1_555 1_555
O2 C1 1_555 1_555
C1 C2 1_555 1_555
C2 N1 1_555 1_555
N1 Pb1 1_555 1_555
S1 N1 1_555 1_555
O3 S1 1_555 1_555
O4 S1 1_555 1_555
C3 S1 1_555 1_555
C4 C3 1_555 1_555
C5 C4 1_555 1_555
C6 C5 1_555 1_555
C7 C6 1_555 1_555
C8 C3 1_555 1_555
N2 C4 1_555 1_555
O5 N2 1_555 1_555
O6 N2 1_555 1_555
H1 C2 1_555 1_555
H2 C2 1_555 1_555
H3 C5 1_555 1_555
H4 C6 1_555 1_555
H5 C7 1_555 1_555
H6 C8 1_555 1_555
O1B Pb1 1_555 1_555
Pb1B O1 1_555 1_555
O3B Pb1 1_555 1_555
O4C Pb1 1_555 1_555
O5_2 Pb1 1_555 1_555
Pb1B_2 O3 1_555 1_555
Pb1C O4 1_555 1_555
Pb1_2 O5 1_555 1_555
C7 C8 1_555 1_555
O1B Pb1B 1_555 1_555

#END
