
#######################################################################
#
#                 Cambridge Crystallographic Data Centre
#                                CCDC 
#
#######################################################################
#
# If this CIF has been generated from an entry in the Cambridge 
# Structural Database, then it will include bibliographic, chemical, 
# crystal, experimental, refinement or atomic coordinate data resulting 
# from the CCDC's data processing and validation procedures.
#
#######################################################################

data_XAQSUF
_symmetry_cell_setting           monoclinic
_symmetry_space_group_name_H-M   'C 2/c'
_symmetry_Int_Tables_number      15
_space_group_name_Hall           '-C 2yn'
loop_
_symmetry_equiv_pos_site_id
_symmetry_equiv_pos_as_xyz
1 x,y,z
2 -x,y,1/2-z
3 1/2+x,1/2+y,z
4 1/2-x,1/2+y,1/2-z
5 -x,-y,-z
6 x,-y,1/2+z
7 1/2-x,1/2-y,-z
8 1/2+x,1/2-y,1/2+z
_cell_length_a                   29.5111(15)
_cell_length_b                   6.8560(5)
_cell_length_c                   17.7229(11)
_cell_angle_alpha                90
_cell_angle_beta                 93.453(3)
_cell_angle_gamma                90
_cell_volume                     3579.33
loop_
_atom_site_label
_atom_site_type_symbol
_atom_site_fract_x
_atom_site_fract_y
_atom_site_fract_z
Sr1 Sr 0.247337(6) 0.05325(3) 0.186735(11)
O1 O 0.32379(5) -0.1130(2) 0.14975(9)
O2 O 0.32591(5) 0.2074(2) 0.15518(9)
O3 O 0.17258(5) 0.0481(2) 0.25205(9)
H1 H 0.1678(9) -0.048(2) 0.2820(11)
H2 H 0.1712(8) 0.148(2) 0.2807(11)
O4 O 0.27964(5) 0.2129(2) 0.31907(8)
O5 O 0.23636(7) 0.0698(3) 0.04151(10)
H3 H 0.2178(8) 0.023(4) 0.0071(14)
H4 H 0.2615(6) 0.013(4) 0.0401(19)
O6 O 0.28020(5) -0.1067(2) 0.31504(8)
C1 C 0.34546(7) 0.0462(3) 0.15234(12)
C2 C 0.39673(8) 0.0364(4) 0.15408(14)
H7 H 0.4084 0.0036 0.2061
H8 H 0.4056 -0.0707 0.1205
C3 C 0.41915(6) 0.2212(3) 0.13017(12)
C4 C 0.43087(8) 0.3682(4) 0.18172(13)
H9 H 0.4258 0.3502 0.2337
C5 C 0.44990(8) 0.5406(4) 0.15812(14)
H10 H 0.4580 0.6394 0.1940
C6 C 0.45718(7) 0.5700(3) 0.08325(13)
H11 H 0.4696 0.6896 0.0670
C7 C 0.44626(7) 0.4245(3) 0.03191(13)
H12 H 0.4515 0.4434 -0.0199
C8 C 0.42770(7) 0.2505(4) 0.05516(12)
H13 H 0.4208 0.1505 0.0192
C9 C 0.29210(7) 0.0515(3) 0.34608(11)
C10 C 0.32477(7) 0.0459(3) 0.41529(12)
H14 H 0.3217 0.1673 0.4448
H15 H 0.3171 -0.0654 0.4477
C11 C 0.37316(7) 0.0256(3) 0.39319(11)
C12 C 0.38891(7) -0.1507(4) 0.36606(11)
H16 H 0.3688 -0.2588 0.3605
C13 C 0.43334(8) -0.1705(4) 0.34709(12)
H17 H 0.4437 -0.2918 0.3288
C14 C 0.46272(9) -0.0144(4) 0.35471(15)
H18 H 0.4934 -0.0283 0.3420
C15 C 0.44756(8) 0.1619(4) 0.38083(14)
H19 H 0.4677 0.2698 0.3857
C16 C 0.40290(8) 0.1820(4) 0.39999(13)
H20 H 0.3926 0.3039 0.4179
Sr1C Sr 0.252663(6) 0.55325(3) 0.313265(11)
Sr1C_2 Sr 0.252663(6) -0.44675(3) 0.313265(11)
O4C O 0.22036(5) -0.2871(2) 0.18093(8)
O6C O 0.21980(5) 0.3933(2) 0.18496(8)
O7 O 0.32987(7) 0.5609(3) 0.05315(10)
H5 H 0.3278(10) 0.664(2) 0.0804(13)
H6 H 0.3323(11) 0.468(3) 0.0855(12)
loop_
_geom_bond_atom_site_label_1
_geom_bond_atom_site_label_2
_geom_bond_site_symmetry_1
_geom_bond_site_symmetry_2
Sr1 O1 1_555 1_555
O1 C1 1_555 1_555
O2 Sr1 1_555 1_555
O3 Sr1 1_555 1_555
H1 O3 1_555 1_555
H2 O3 1_555 1_555
O4 Sr1 1_555 1_555
O5 Sr1 1_555 1_555
H3 O5 1_555 1_555
H4 O5 1_555 1_555
O6 Sr1 1_555 1_555
O7 H5 1_555 1_555
H6 O7 1_555 1_555
C1 O2 1_555 1_555
C2 C1 1_555 1_555
H7 C2 1_555 1_555
H8 C2 1_555 1_555
C3 C2 1_555 1_555
C4 C3 1_555 1_555
H9 C4 1_555 1_555
C5 C4 1_555 1_555
H10 C5 1_555 1_555
C6 C5 1_555 1_555
H11 C6 1_555 1_555
C7 C6 1_555 1_555
H12 C7 1_555 1_555
C8 C3 1_555 1_555
H13 C8 1_555 1_555
C9 O4 1_555 1_555
C10 C9 1_555 1_555
H14 C10 1_555 1_555
H15 C10 1_555 1_555
C11 C10 1_555 1_555
C12 C11 1_555 1_555
H16 C12 1_555 1_555
C13 C12 1_555 1_555
H17 C13 1_555 1_555
C14 C13 1_555 1_555
H18 C14 1_555 1_555
C15 C14 1_555 1_555
H19 C15 1_555 1_555
C16 C11 1_555 1_555
H20 C16 1_555 1_555
Sr1C O4 1_555 1_555
Sr1C_2 O6 1_555 1_555
O4C Sr1 1_555 1_555
O6C Sr1 1_555 1_555
O6 C9 1_555 1_555
C7 C8 1_555 1_555
C15 C16 1_555 1_555
Sr1C O6C 1_555 1_555
Sr1C_2 O4C 1_555 1_555

#END
