
#######################################################################
#
#                 Cambridge Crystallographic Data Centre
#                                CCDC 
#
#######################################################################
#
# If this CIF has been generated from an entry in the Cambridge 
# Structural Database, then it will include bibliographic, chemical, 
# crystal, experimental, refinement or atomic coordinate data resulting 
# from the CCDC's data processing and validation procedures.
#
#######################################################################

data_XAQSIT
_symmetry_cell_setting           orthorhombic
_symmetry_space_group_name_H-M   'P 21 21 21'
_symmetry_Int_Tables_number      19
_space_group_name_Hall           'P 2ac 2ab'
loop_
_symmetry_equiv_pos_site_id
_symmetry_equiv_pos_as_xyz
1 x,y,z
2 1/2-x,-y,1/2+z
3 1/2+x,1/2-y,-z
4 -x,1/2+y,1/2-z
_cell_length_a                   9.7979(7)
_cell_length_b                   10.0424(8)
_cell_length_c                   36.052(3)
_cell_angle_alpha                90
_cell_angle_beta                 90
_cell_angle_gamma                90
_cell_volume                     3547.32
loop_
_atom_site_label
_atom_site_type_symbol
_atom_site_fract_x
_atom_site_fract_y
_atom_site_fract_z
Mg1 Mg 0.87409(8) -0.01782(8) 0.20171(2)
Mg2 Mg 0.37300(9) 0.12071(8) 0.20086(2)
O1 O 0.55301(18) 0.05611(17) 0.17986(5)
O2 O 0.76058(18) 0.03754(18) 0.15584(5)
O3 O 0.3453(2) -0.06871(17) 0.22289(5)
H1 H 0.303(3) -0.137(2) 0.2137(7)
H2 H 0.341(3) -0.087(3) 0.2466(3)
O4 O 1.05435(18) 0.04603(17) 0.18056(5)
O5 O 0.19056(19) 0.19528(18) 0.22621(5)
H3 H 0.184(3) 0.160(3) 0.2483(4)
H4 H 0.131(2) 0.149(2) 0.2136(6)
O6 O 1.25838(18) 0.06915(18) 0.15450(5)
O7 O 0.42737(19) 0.30700(18) 0.18460(5)
H5 H 0.384(2) 0.3796(18) 0.1897(8)
H6 H 0.5137(11) 0.327(3) 0.1872(8)
O9 O 0.45625(19) 0.16285(18) 0.25402(5)
H7 H 0.5303(19) 0.138(3) 0.2658(7)
H8 H 0.438(3) 0.2358(18) 0.2664(7)
O11 O 0.69033(19) -0.09172(18) 0.22636(5)
H9 H 0.631(2) -0.046(2) 0.2135(6)
H10 H 0.683(3) -0.054(2) 0.2481(4)
O13 O 0.95600(19) -0.05905(18) 0.25519(5)
H11 H 1.027(2) -0.033(3) 0.2676(7)
H12 H 0.939(3) -0.1390(15) 0.2638(7)
O15 O 0.92905(19) -0.20417(17) 0.18503(5)
H13 H 1.0144(12) -0.229(3) 0.1872(8)
H14 H 0.885(2) -0.2765(18) 0.1906(8)
O16 O 0.8467(2) 0.17253(17) 0.22385(5)
H15 H 0.834(3) 0.189(3) 0.2477(3)
H16 H 0.795(3) 0.234(2) 0.2140(6)
C1 C 0.6397(3) 0.0758(2) 0.15402(7)
C2 C 0.5917(3) 0.1517(3) 0.12002(7)
H17 H 0.4907 0.1539 0.1201
H18 H 0.6243 0.2447 0.1219
C3 C 0.6388(3) 0.0951(3) 0.08337(7)
C4 C 0.5480(3) 0.0228(3) 0.06230(8)
H19 H 0.4570 0.0109 0.0708
C5 C 0.5880(4) -0.0329(4) 0.02879(9)
H20 H 0.5244 -0.0837 0.0148
C6 C 0.7191(3) -0.0153(3) 0.01546(8)
H21 H 0.7461 -0.0537 -0.0075
C7 C 0.8102(3) 0.0589(3) 0.03608(8)
H22 H 0.9002 0.0732 0.0271
C8 C 0.7705(3) 0.1127(3) 0.06995(7)
H23 H 0.8344 0.1623 0.0841
C9 C 1.1362(3) 0.0321(2) 0.15337(7)
C10 C 1.0807(3) -0.0359(3) 0.11900(7)
H24 H 1.0968 -0.1328 0.1216
H25 H 0.9807 -0.0222 0.1184
C11 C 1.1377(3) 0.0077(3) 0.08230(7)
C12 C 1.1770(3) -0.0852(3) 0.05540(7)
H26 H 1.1758 -0.1775 0.0612
C13 C 1.2179(3) -0.0438(3) 0.02033(8)
H27 H 1.2421 -0.1081 0.0022
C14 C 1.2236(3) 0.0899(4) 0.01165(8)
H28 H 1.2530 0.1178 -0.0122
C15 C 1.1863(3) 0.1822(3) 0.03789(8)
H29 H 1.1900 0.2743 0.0320
C16 C 1.1435(3) 0.1423(3) 0.07278(8)
H30 H 1.1176 0.2076 0.0905
Mg2_2 Mg 1.37300(9) 0.12071(8) 0.20086(2)
O6_2 O 0.25838(18) 0.06915(18) 0.15450(5)
O8 O 0.19124(18) 0.71901(17) 0.19916(5)
O10 O 0.33485(18) 0.54884(16) 0.20485(5)
C17 C 0.2396(3) 0.6088(3) 0.18818(7)
C18 C 0.1828(3) 0.5460(3) 0.15308(7)
H31 H 0.1005 0.5953 0.1451
H32 H 0.1558 0.4528 0.1583
C19 C 0.2880(3) 0.5479(3) 0.12208(7)
C20 C 0.3281(3) 0.4308(3) 0.10452(8)
H33 H 0.2903 0.3483 0.1123
C21 C 0.4222(3) 0.4328(4) 0.07594(8)
H34 H 0.4481 0.3522 0.0641
C22 C 0.4787(3) 0.5524(4) 0.06459(8)
H35 H 0.5426 0.5542 0.0448
C23 C 0.4421(3) 0.6680(3) 0.08205(8)
H36 H 0.4819 0.7499 0.0745
C24 C 0.3474(3) 0.6668(3) 0.11065(8)
H37 H 0.3230 0.7478 0.1225
O12 O 0.68888(18) 0.38352(17) 0.19966(5)
O14 O 0.83275(18) 0.55423(17) 0.20467(5)
C25 C 0.7344(3) 0.4951(3) 0.18898(7)
C26 C 0.6691(3) 0.5612(3) 0.15537(8)
H38 H 0.5910 0.5065 0.1469
H39 H 0.6335 0.6497 0.1626
C27 C 0.7693(3) 0.5778(3) 0.12370(7)
C28 C 0.8426(3) 0.4702(3) 0.11062(8)
H40 H 0.8305 0.3854 0.1219
C29 C 0.9332(4) 0.4836(4) 0.08143(9)
H41 H 0.9821 0.4085 0.0725
C30 C 0.9520(4) 0.6064(4) 0.06540(8)
H42 H 1.0157 0.6163 0.0457
C31 C 0.8795(4) 0.7148(3) 0.07753(8)
H43 H 0.8912 0.7989 0.0659
C32 C 0.7889(3) 0.7008(3) 0.10690(7)
H44 H 0.7398 0.7761 0.1156
loop_
_geom_bond_atom_site_label_1
_geom_bond_atom_site_label_2
_geom_bond_site_symmetry_1
_geom_bond_site_symmetry_2
Mg1 O2 1_555 1_555
Mg2 O1 1_555 1_555
O1 C1 1_555 1_555
O2 C1 1_555 1_555
O3 Mg2 1_555 1_555
H1 O3 1_555 1_555
H2 O3 1_555 1_555
O4 Mg1 1_555 1_555
O5 Mg2 1_555 1_555
H3 O5 1_555 1_555
H4 O5 1_555 1_555
O6 C9 1_555 1_555
O7 Mg2 1_555 1_555
H5 O7 1_555 1_555
H6 O7 1_555 1_555
O8 C17 1_555 1_555
O9 Mg2 1_555 1_555
H7 O9 1_555 1_555
H8 O9 1_555 1_555
O10 C17 1_555 1_555
O11 Mg1 1_555 1_555
H9 O11 1_555 1_555
H10 O11 1_555 1_555
O12 C25 1_555 1_555
O13 Mg1 1_555 1_555
H11 O13 1_555 1_555
H12 O13 1_555 1_555
O14 C25 1_555 1_555
O15 Mg1 1_555 1_555
H13 O15 1_555 1_555
H14 O15 1_555 1_555
O16 Mg1 1_555 1_555
H15 O16 1_555 1_555
H16 O16 1_555 1_555
C1 C2 1_555 1_555
C2 H17 1_555 1_555
H18 C2 1_555 1_555
C3 C2 1_555 1_555
C4 C3 1_555 1_555
H19 C4 1_555 1_555
C5 C4 1_555 1_555
H20 C5 1_555 1_555
C6 C5 1_555 1_555
H21 C6 1_555 1_555
C7 C6 1_555 1_555
H22 C7 1_555 1_555
C8 C3 1_555 1_555
H23 C8 1_555 1_555
C9 O4 1_555 1_555
C10 C9 1_555 1_555
H24 C10 1_555 1_555
H25 C10 1_555 1_555
C11 C10 1_555 1_555
C12 C11 1_555 1_555
H26 C12 1_555 1_555
C13 C12 1_555 1_555
H27 C13 1_555 1_555
C14 C13 1_555 1_555
H28 C14 1_555 1_555
C15 C14 1_555 1_555
H29 C15 1_555 1_555
C16 C11 1_555 1_555
H30 C16 1_555 1_555
C17 C18 1_555 1_555
C18 H31 1_555 1_555
H32 C18 1_555 1_555
C19 C18 1_555 1_555
C20 C19 1_555 1_555
H33 C20 1_555 1_555
C21 C20 1_555 1_555
H34 C21 1_555 1_555
C22 C21 1_555 1_555
H35 C22 1_555 1_555
C23 C22 1_555 1_555
H36 C23 1_555 1_555
C24 C19 1_555 1_555
H37 C24 1_555 1_555
C25 C26 1_555 1_555
C26 H38 1_555 1_555
H39 C26 1_555 1_555
C27 C26 1_555 1_555
C28 C27 1_555 1_555
H40 C28 1_555 1_555
C29 C28 1_555 1_555
H41 C29 1_555 1_555
C30 C29 1_555 1_555
H42 C30 1_555 1_555
C31 C30 1_555 1_555
H43 C31 1_555 1_555
C32 C27 1_555 1_555
H44 C32 1_555 1_555
Mg2_2 O6 1_555 1_555
O6_2 Mg2 1_555 1_555
C7 C8 1_555 1_555
C15 C16 1_555 1_555
C23 C24 1_555 1_555
C31 C32 1_555 1_555

#END
