
#######################################################################
#
#                 Cambridge Crystallographic Data Centre
#                                CCDC 
#
#######################################################################
#
# If this CIF has been generated from an entry in the Cambridge 
# Structural Database, then it will include bibliographic, chemical, 
# crystal, experimental, refinement or atomic coordinate data resulting 
# from the CCDC's data processing and validation procedures.
#
#######################################################################

data_XAQTAM
_symmetry_cell_setting           monoclinic
_symmetry_space_group_name_H-M   'P 21/c'
_symmetry_Int_Tables_number      14
_space_group_name_Hall           '-P 2ybc'
loop_
_symmetry_equiv_pos_site_id
_symmetry_equiv_pos_as_xyz
1 x,y,z
2 -x,1/2+y,1/2-z
3 -x,-y,-z
4 x,1/2-y,1/2+z
_cell_length_a                   10.022(2)
_cell_length_b                   22.316(5)
_cell_length_c                   10.316(2)
_cell_angle_alpha                90
_cell_angle_beta                 116.51(3)
_cell_angle_gamma                90
_cell_volume                     2064.6
loop_
_atom_site_label
_atom_site_type_symbol
_atom_site_fract_x
_atom_site_fract_y
_atom_site_fract_z
Cd1 Cd 0.50810(3) 0.437184(11) -0.37266(3)
N1 N 0.6340(3) 0.50732(14) -0.1898(3)
N2 N 0.6275(4) 0.86966(14) 0.0545(3)
O1 O 0.7236(3) 0.36904(14) -0.2451(3)
O2 O 0.5297(3) 0.36719(13) -0.1990(3)
O3 O 0.6325(3) 0.47537(13) 0.5028(3)
O4 O 0.7351(3) 0.52707(11) 0.3915(3)
C1 C 0.7734(4) 0.52475(19) -0.1540(5)
H1 H 0.8258 0.5056 -0.1985
C2 C 0.8441(5) 0.56950(19) -0.0551(5)
H2 H 0.9437 0.5791 -0.0316
C3 C 0.7711(4) 0.60046(19) 0.0101(5)
C4 C 0.6267(5) 0.5805(2) -0.0240(5)
H3 H 0.5731 0.5982 0.0211
C5 C 0.5627(5) 0.5351(2) -0.1231(4)
H4 H 0.4650 0.5231 -0.1451
C6 C 0.8407(5) 0.6546(2) 0.1070(5)
H5 H 0.9488 0.6533 0.1400
H6 H 0.8033 0.6909 0.0485
C7 C 0.8123(5) 0.65966(17) 0.2364(5)
H7 H 0.8622 0.6266 0.3032
H8 H 0.7050 0.6563 0.2062
C8 C 0.8689(5) 0.71924(18) 0.3148(5)
H9 H 0.8607 0.7184 0.4060
H10 H 0.9747 0.7234 0.3389
C9 C 0.7869(4) 0.77270(17) 0.2294(4)
C10 C 0.8506(4) 0.81248(19) 0.1719(5)
H11 H 0.9509 0.8075 0.1910
C11 C 0.7697(4) 0.85949(19) 0.0868(5)
H12 H 0.8174 0.8858 0.0495
C12 C 0.5672(5) 0.8322(2) 0.1147(6)
H13 H 0.4678 0.8388 0.0967
C13 C 0.6410(5) 0.7848(2) 0.2008(6)
H14 H 0.5925 0.7603 0.2407
C14 C 0.7670(4) 0.34242(16) 0.0973(4)
C15 C 0.8127(4) 0.40199(16) 0.1199(4)
H15 H 0.8234 0.4229 0.0459
C16 C 0.8428(4) 0.43119(16) 0.2476(4)
H16 H 0.8741 0.4714 0.2597
C17 C 0.8271(4) 0.40150(16) 0.3597(4)
C18 C 0.7820(4) 0.34232(16) 0.3375(4)
H17 H 0.7716 0.3214 0.4116
C19 C 0.7516(4) 0.31305(17) 0.2090(4)
H18 H 0.7203 0.2729 0.1970
C20 C 0.7417(5) 0.31138(18) -0.0420(4)
H19 H 0.6840 0.2747 -0.0527
H20 H 0.8381 0.3000 -0.0374
C21 C 0.6588(4) 0.35144(16) -0.1734(4)
C22 C 0.8510(4) 0.43454(16) 0.4975(4)
H21 H 0.8459 0.4061 0.5675
H22 H 0.9502 0.4530 0.5409
C23 C 0.7333(4) 0.48234(16) 0.4634(4)
Cd1A Cd 0.49190(3) 0.937184(11) -0.12734(3)
Cd1_2 Cd 0.50810(3) 0.437184(11) 0.62734(3)
Cd1B Cd 0.49190(3) 0.562816(11) 0.37266(3)
N2A N 0.3725(4) 0.36966(14) -0.5545(3)
O3_2 O 0.6325(3) 0.47537(13) -0.4972(3)
O3B O 0.3675(3) 0.52463(13) -0.5028(3)
O4B O 0.2649(3) 0.47293(11) -0.3915(3)
loop_
_geom_bond_atom_site_label_1
_geom_bond_atom_site_label_2
_geom_bond_site_symmetry_1
_geom_bond_site_symmetry_2
Cd1 N1 1_555 1_555
N1 C1 1_555 1_555
N2 C11 1_555 1_555
O1 Cd1 1_555 1_555
O2 Cd1 1_555 1_555
O3 C23 1_555 1_555
O4 C23 1_555 1_555
C1 H1 1_555 1_555
C2 C1 1_555 1_555
H2 C2 1_555 1_555
C3 C2 1_555 1_555
C4 C3 1_555 1_555
H3 C4 1_555 1_555
C5 N1 1_555 1_555
H4 C5 1_555 1_555
C6 C3 1_555 1_555
H5 C6 1_555 1_555
H6 C6 1_555 1_555
C7 C6 1_555 1_555
H7 C7 1_555 1_555
H8 C7 1_555 1_555
C8 C7 1_555 1_555
H9 C8 1_555 1_555
H10 C8 1_555 1_555
C9 C8 1_555 1_555
C10 C9 1_555 1_555
H11 C10 1_555 1_555
C11 C10 1_555 1_555
H12 C11 1_555 1_555
C12 N2 1_555 1_555
H13 C12 1_555 1_555
C13 C9 1_555 1_555
H14 C13 1_555 1_555
C14 C15 1_555 1_555
C15 H15 1_555 1_555
C16 C15 1_555 1_555
H16 C16 1_555 1_555
C17 C16 1_555 1_555
C18 C17 1_555 1_555
H17 C18 1_555 1_555
C19 C14 1_555 1_555
H18 C19 1_555 1_555
C20 C14 1_555 1_555
H19 C20 1_555 1_555
H20 C20 1_555 1_555
C21 O1 1_555 1_555
C22 C17 1_555 1_555
H21 C22 1_555 1_555
H22 C22 1_555 1_555
C23 C22 1_555 1_555
Cd1A N2 1_555 1_555
Cd1_2 O3 1_555 1_555
Cd1B O3 1_555 1_555
N2A Cd1 1_555 1_555
O3_2 Cd1 1_555 1_555
O3B Cd1 1_555 1_555
O4B Cd1 1_555 1_555
O2 C21 1_555 1_555
O4 Cd1B 1_555 1_555
C4 C5 1_555 1_555
C12 C13 1_555 1_555
C18 C19 1_555 1_555
C20 C21 1_555 1_555

#END
