
#######################################################################
#
#                 Cambridge Crystallographic Data Centre
#                                CCDC 
#
#######################################################################
#
# If this CIF has been generated from an entry in the Cambridge 
# Structural Database, then it will include bibliographic, chemical, 
# crystal, experimental, refinement or atomic coordinate data resulting 
# from the CCDC's data processing and validation procedures.
#
#######################################################################

data_XAQVUH
_symmetry_cell_setting           monoclinic
_symmetry_space_group_name_H-M   'P 21/n'
_symmetry_Int_Tables_number      14
_space_group_name_Hall           '-P 2yn'
loop_
_symmetry_equiv_pos_site_id
_symmetry_equiv_pos_as_xyz
1 x,y,z
2 1/2-x,1/2+y,1/2-z
3 -x,-y,-z
4 1/2+x,1/2-y,1/2+z
_cell_length_a                   12.000(4)
_cell_length_b                   9.616(2)
_cell_length_c                   14.472(4)
_cell_angle_alpha                90
_cell_angle_beta                 92.34(2)
_cell_angle_gamma                90
_cell_volume                     1668.56
loop_
_atom_site_label
_atom_site_type_symbol
_atom_site_fract_x
_atom_site_fract_y
_atom_site_fract_z
Mn1 Mn 0.0000 -0.5000 -0.5000
S1 S -0.01940(5) -0.04849(5) -0.34244(4)
N1 N 0.00529(16) -0.32142(18) -0.40188(12)
N2 N 0.25113(13) -0.23883(16) -0.62159(10)
N3 N 0.11913(13) -0.38867(15) -0.58904(10)
N4 N 0.25486(14) 0.25018(17) -0.34912(10)
N5 N 0.15108(13) 0.40182(16) -0.42808(10)
C1 C -0.00528(15) -0.20812(19) -0.37755(12)
C2 C 0.36074(15) -0.09351(19) -0.51347(12)
C3 C 0.31222(16) 0.0051(2) -0.45864(13)
H1 H 0.2561 0.0646 -0.4846
C4 C 0.34492(15) 0.01830(19) -0.36530(12)
C5 C 0.42667(16) -0.0700(2) -0.32915(13)
H2 H 0.4497 -0.0613 -0.2658
C6 C 0.47571(17) -0.1703(2) -0.38213(14)
C7 C 0.44185(17) -0.18072(19) -0.47537(14)
H3 H 0.4750 -0.2487 -0.5131
C8 C 0.31980(17) -0.1133(2) -0.61278(13)
H4 H 0.2754 -0.0314 -0.6333
H5 H 0.3844 -0.1213 -0.6529
C9 C 0.15734(16) -0.26168(19) -0.57646(13)
H6 H 0.1225 -0.1938 -0.5396
C10 C 0.19411(18) -0.4510(2) -0.64617(13)
H7 H 0.1891 -0.5440 -0.6680
C11 C 0.27512(18) -0.3605(2) -0.66620(13)
H8 H 0.3368 -0.3775 -0.7038
C12 C 0.28770(18) 0.1201(2) -0.30324(13)
H9 H 0.2204 0.0753 -0.2794
H10 H 0.3386 0.1418 -0.2496
C13 C 0.15499(17) 0.2780(2) -0.38850(13)
H11 H 0.0935 0.2158 -0.3881
C14 C 0.25664(18) 0.4552(2) -0.41255(14)
H12 H 0.2807 0.5438 -0.4328
C15 C 0.32100(19) 0.3632(2) -0.36444(14)
H13 H 0.3970 0.3746 -0.3451
C16 C 0.5653(2) -0.2665(2) -0.34256(17)
H14 H 0.6333 -0.2553 -0.3771
H15 H 0.5395 -0.3629 -0.3475
H16 H 0.5812 -0.2434 -0.2774
Mn1_2 Mn 0.0000 0.5000 -0.5000
Mn1_3 Mn 0.0000 -1.5000 -0.5000
S1B S 0.01940(5) -0.95151(5) -0.65756(4)
N1B N -0.00529(16) -0.67858(18) -0.59812(12)
N2B N -0.25113(13) -0.76117(16) -0.37841(10)
N3B N -0.11913(13) -0.61133(15) -0.41096(10)
N4B N -0.25486(14) -1.25018(17) -0.65088(10)
N5B N -0.15108(13) -0.40182(16) -0.57192(10)
N5_2 N 0.15108(13) -0.59818(16) -0.42808(10)
N5B_2 N -0.15108(13) -1.40182(16) -0.57192(10)
C1B C 0.00528(15) -0.79188(19) -0.62245(12)
C2B C -0.36074(15) -0.90649(19) -0.48653(12)
C3B C -0.31222(16) -1.0051(2) -0.54136(13)
H1B H -0.2561 -1.0646 -0.5154
C4B C -0.34492(15) -1.01830(19) -0.63470(12)
C5B C -0.42667(16) -0.9300(2) -0.67085(13)
H2B H -0.4497 -0.9387 -0.7342
C6B C -0.47571(17) -0.8297(2) -0.61787(14)
C7B C -0.44185(17) -0.81928(19) -0.52463(14)
H3B H -0.4750 -0.7513 -0.4869
C8B C -0.31980(17) -0.8867(2) -0.38722(13)
H4B H -0.2754 -0.9686 -0.3667
H5B H -0.3844 -0.8787 -0.3471
C9B C -0.15734(16) -0.73832(19) -0.42354(13)
H6B H -0.1225 -0.8062 -0.4604
C10B C -0.19411(18) -0.5490(2) -0.35383(13)
H7B H -0.1891 -0.4560 -0.3320
C11B C -0.27512(18) -0.6395(2) -0.33380(13)
H8B H -0.3368 -0.6225 -0.2962
C12B C -0.28770(18) -1.1201(2) -0.69676(13)
H9B H -0.2204 -1.0753 -0.7206
H10B H -0.3386 -1.1418 -0.7504
C13B C -0.15499(17) -1.2780(2) -0.61150(13)
H11B H -0.0935 -1.2158 -0.6119
C14B C -0.25664(18) -1.4552(2) -0.58745(14)
H12B H -0.2807 -1.5438 -0.5672
C15B C -0.32100(19) -1.3632(2) -0.63556(14)
H13B H -0.3970 -1.3746 -0.6549
C16B C -0.5653(2) -0.7335(2) -0.65744(17)
H14B H -0.6333 -0.7447 -0.6229
H15B H -0.5395 -0.6371 -0.6525
H16B H -0.5812 -0.7566 -0.7226
loop_
_geom_bond_atom_site_label_1
_geom_bond_atom_site_label_2
_geom_bond_site_symmetry_1
_geom_bond_site_symmetry_2
Mn1 N1 1_555 1_555
S1 C1 1_555 1_555
N1 C1 1_555 1_555
N2 C8 1_555 1_555
N3 Mn1 1_555 1_555
N4 C12 1_555 1_555
N5 C13 1_555 1_555
C2 C3 1_555 1_555
C3 H1 1_555 1_555
C4 C3 1_555 1_555
C5 C4 1_555 1_555
H2 C5 1_555 1_555
C6 C5 1_555 1_555
C7 C2 1_555 1_555
H3 C7 1_555 1_555
C8 C2 1_555 1_555
H4 C8 1_555 1_555
H5 C8 1_555 1_555
C9 N2 1_555 1_555
H6 C9 1_555 1_555
C10 N3 1_555 1_555
H7 C10 1_555 1_555
C11 N2 1_555 1_555
H8 C11 1_555 1_555
C12 C4 1_555 1_555
H9 C12 1_555 1_555
H10 C12 1_555 1_555
C13 N4 1_555 1_555
H11 C13 1_555 1_555
C14 N5 1_555 1_555
H12 C14 1_555 1_555
C15 N4 1_555 1_555
H13 C15 1_555 1_555
C16 C6 1_555 1_555
H14 C16 1_555 1_555
H15 C16 1_555 1_555
H16 C16 1_555 1_555
Mn1_2 N5 1_555 1_555
Mn1_3 N5B_2 1_555 1_555
S1B C1B 1_555 1_555
N1B Mn1 1_555 1_555
N2B C8B 1_555 1_555
N3B Mn1 1_555 1_555
N4B C12B 1_555 1_555
N5B Mn1 1_555 1_555
N5_2 Mn1 1_555 1_555
N5B_2 C13B 1_555 1_555
C1B N1B 1_555 1_555
C2B C3B 1_555 1_555
C3B H1B 1_555 1_555
C4B C3B 1_555 1_555
C5B C4B 1_555 1_555
H2B C5B 1_555 1_555
C6B C5B 1_555 1_555
C7B C2B 1_555 1_555
H3B C7B 1_555 1_555
C8B C2B 1_555 1_555
H4B C8B 1_555 1_555
H5B C8B 1_555 1_555
C9B N2B 1_555 1_555
H6B C9B 1_555 1_555
C10B N3B 1_555 1_555
H7B C10B 1_555 1_555
C11B N2B 1_555 1_555
H8B C11B 1_555 1_555
C12B C4B 1_555 1_555
H9B C12B 1_555 1_555
H10B C12B 1_555 1_555
C13B N4B 1_555 1_555
H11B C13B 1_555 1_555
C14B N5B_2 1_555 1_555
H12B C14B 1_555 1_555
C15B N4B 1_555 1_555
H13B C15B 1_555 1_555
C16B C6B 1_555 1_555
H14B C16B 1_555 1_555
H15B C16B 1_555 1_555
H16B C16B 1_555 1_555
N3 C9 1_555 1_555
C6 C7 1_555 1_555
C10 C11 1_555 1_555
C14 C15 1_555 1_555
N3B C9B 1_555 1_555
C6B C7B 1_555 1_555
C10B C11B 1_555 1_555
C14B C15B 1_555 1_555

#END
