
#######################################################################
#
#                 Cambridge Crystallographic Data Centre
#                                CCDC 
#
#######################################################################
#
# If this CIF has been generated from an entry in the Cambridge 
# Structural Database, then it will include bibliographic, chemical, 
# crystal, experimental, refinement or atomic coordinate data resulting 
# from the CCDC's data processing and validation procedures.
#
#######################################################################

data_XAQWES
_symmetry_cell_setting           triclinic
_symmetry_space_group_name_H-M   'P -1'
_symmetry_Int_Tables_number      2
_space_group_name_Hall           '-P 1'
loop_
_symmetry_equiv_pos_site_id
_symmetry_equiv_pos_as_xyz
1 x,y,z
2 -x,-y,-z
_cell_length_a                   7.602(5)
_cell_length_b                   10.523(6)
_cell_length_c                   11.557(8)
_cell_angle_alpha                65.88(6)
_cell_angle_beta                 87.96(6)
_cell_angle_gamma                89.91(6)
_cell_volume                     843.174
loop_
_atom_site_label
_atom_site_type_symbol
_atom_site_fract_x
_atom_site_fract_y
_atom_site_fract_z
Zn1 Zn -0.19476(3) 0.58934(2) 0.13831(2)
N1 N -0.3775(2) 0.61744(15) 0.25202(15)
N2 N -0.4894(2) 0.70352(16) 0.21152(15)
N3 N -0.5976(2) 0.78605(19) 0.17864(19)
N4 N -0.2249(2) 0.43617(16) 0.08545(17)
N5 N -0.3561(2) 0.38484(15) 0.06915(14)
N6 N -0.4763(2) 0.32794(19) 0.05284(19)
N7 N 0.25514(19) 0.40367(14) 0.33107(13)
N8 N 0.02176(19) 0.52378(14) 0.24384(14)
N9 N 0.07521(18) -0.06209(13) 0.88534(13)
N10 N -0.11084(18) -0.22610(13) 1.00506(13)
C1 C 0.3331(2) 0.16158(17) 0.46622(16)
C2 C 0.3187(2) 0.14604(17) 0.59205(16)
H1 H 0.3505 0.2212 0.6129
C3 C 0.2581(2) 0.02121(17) 0.68691(16)
C4 C 0.2134(2) -0.08876(17) 0.65540(16)
H2 H 0.1730 -0.1744 0.7205
C5 C 0.2265(2) -0.07589(17) 0.53100(17)
C6 C 0.2870(2) 0.05081(18) 0.43699(16)
H3 H 0.2967 0.0614 0.3513
C7 C 0.3943(2) 0.29889(17) 0.36200(17)
H4 H 0.4988 0.3337 0.3895
H5 H 0.4293 0.2842 0.2851
C8 C 0.1376(2) 0.43040(17) 0.24060(16)
H6 H 0.1371 0.3882 0.1820
C9 C 0.0698(3) 0.55721(18) 0.34117(18)
H7 H 0.0114 0.6224 0.3661
C10 C 0.2128(3) 0.48364(18) 0.39652(19)
H8 H 0.2718 0.4867 0.4664
C11 C 0.2424(2) 0.00616(18) 0.82308(17)
H9 H 0.3417 -0.0494 0.8707
H10 H 0.2498 0.0994 0.8245
C12 C 0.0571(2) -0.19052(16) 0.97683(16)
H11 H 0.1524 -0.2487 1.0164
C13 C -0.2051(2) -0.11213(17) 0.92673(16)
H12 H -0.3298 -0.1063 0.9251
C14 C -0.0909(2) -0.01122(17) 0.85353(16)
H13 H -0.1198 0.0780 0.7917
C15 C 0.1734(3) -0.19473(19) 0.49751(19)
H14 H 0.1741 -0.2823 0.5736
H15 H 0.2568 -0.2001 0.4331
H16 H 0.0549 -0.1788 0.4641
Zn1_2 Zn -0.19476(3) -0.41066(2) 1.13831(2)
N10_2 N -0.11084(18) 0.77390(13) 0.00506(13)
loop_
_geom_bond_atom_site_label_1
_geom_bond_atom_site_label_2
_geom_bond_site_symmetry_1
_geom_bond_site_symmetry_2
Zn1 N1 1_555 1_555
N1 N2 1_555 1_555
N2 N3 1_555 1_555
N4 Zn1 1_555 1_555
N5 N4 1_555 1_555
N6 N5 1_555 1_555
N7 C7 1_555 1_555
N8 Zn1 1_555 1_555
N9 C11 1_555 1_555
N10 C12 1_555 1_555
C1 C2 1_555 1_555
C2 H1 1_555 1_555
C3 C2 1_555 1_555
C4 C3 1_555 1_555
H2 C4 1_555 1_555
C5 C4 1_555 1_555
C6 C1 1_555 1_555
H3 C6 1_555 1_555
C7 C1 1_555 1_555
H4 C7 1_555 1_555
H5 C7 1_555 1_555
C8 N7 1_555 1_555
H6 C8 1_555 1_555
C9 N8 1_555 1_555
H7 C9 1_555 1_555
C10 N7 1_555 1_555
H8 C10 1_555 1_555
C11 C3 1_555 1_555
H9 C11 1_555 1_555
H10 C11 1_555 1_555
C12 N9 1_555 1_555
H11 C12 1_555 1_555
C13 N10 1_555 1_555
H12 C13 1_555 1_555
C14 N9 1_555 1_555
H13 C14 1_555 1_555
C15 C5 1_555 1_555
H14 C15 1_555 1_555
H15 C15 1_555 1_555
H16 C15 1_555 1_555
Zn1_2 N10 1_555 1_555
N10_2 Zn1 1_555 1_555
N8 C8 1_555 1_555
C5 C6 1_555 1_555
C9 C10 1_555 1_555
C13 C14 1_555 1_555

#END
