
#######################################################################
#
#                 Cambridge Crystallographic Data Centre
#                                CCDC 
#
#######################################################################
#
# If this CIF has been generated from an entry in the Cambridge 
# Structural Database, then it will include bibliographic, chemical, 
# crystal, experimental, refinement or atomic coordinate data resulting 
# from the CCDC's data processing and validation procedures.
#
#######################################################################

data_XAQWIW
_symmetry_cell_setting           monoclinic
_symmetry_space_group_name_H-M   'C c'
_symmetry_Int_Tables_number      9
_space_group_name_Hall           'C -2yc'
loop_
_symmetry_equiv_pos_site_id
_symmetry_equiv_pos_as_xyz
1 x,y,z
2 x,-y,1/2+z
3 1/2+x,1/2+y,z
4 1/2+x,1/2-y,1/2+z
_cell_length_a                   13.430(11)
_cell_length_b                   15.280(13)
_cell_length_c                   8.508(8)
_cell_angle_alpha                90
_cell_angle_beta                 106.48(6)
_cell_angle_gamma                90
_cell_volume                     1674.21
loop_
_atom_site_label
_atom_site_type_symbol
_atom_site_fract_x
_atom_site_fract_y
_atom_site_fract_z
Ag1 Ag -0.69431(4) 0.06792(4) -0.03902(4)
N1 N -0.4294(3) 0.0014(3) -0.1952(6)
N2 N -0.5713(4) 0.0140(4) -0.1155(7)
N3 N 0.0568(3) 0.1325(3) 0.1556(6)
N4 N 0.1814(4) 0.1206(4) 0.0378(7)
C1 C -0.2375(4) -0.0015(4) -0.0862(7)
C2 C -0.1770(4) 0.0617(5) 0.0102(6)
H1 H -0.1929 0.1219 -0.0115
C3 C -0.0914(5) 0.0370(4) 0.1413(9)
C4 C -0.0693(4) -0.0495(4) 0.1727(7)
H2 H -0.0125 -0.0656 0.2631
C5 C -0.1287(4) -0.1148(4) 0.0745(8)
C6 C -0.2113(5) -0.0895(4) -0.0578(10)
H3 H -0.2503 -0.1328 -0.1296
C7 C -0.3311(5) 0.0246(5) -0.2276(9)
H4 H -0.3294 0.0885 -0.2456
H5 H -0.3269 -0.0051 -0.3289
C8 C -0.4920(5) 0.0548(4) -0.1429(8)
H6 H -0.4803 0.1159 -0.1272
C9 C -0.5601(4) -0.0716(5) -0.1544(8)
H7 H -0.6061 -0.1178 -0.1478
C10 C -0.4726(4) -0.0804(4) -0.2041(8)
H8 H -0.4467 -0.1328 -0.2381
C11 C -0.0203(4) 0.1067(4) 0.2402(8)
H9 H -0.0616 0.1583 0.2535
H10 H 0.0156 0.0837 0.3505
C12 C 0.1319(5) 0.0828(4) 0.1314(8)
H11 H 0.1480 0.0260 0.1770
C13 C 0.1349(4) 0.2006(4) -0.0010(9)
H12 H 0.1545 0.2440 -0.0664
C14 C 0.0566(4) 0.2080(4) 0.0688(9)
H13 H 0.0104 0.2561 0.0594
C15 C -0.1005(5) -0.2106(4) 0.1116(9)
H14 H -0.1285 -0.2307 0.1998
H15 H -0.0247 -0.2169 0.1459
H16 H -0.1299 -0.2458 0.0131
Ag1_2 Ag 0.30569(4) 0.06792(4) -0.03902(4)
N4_2 N -0.8186(4) 0.1206(4) 0.0378(7)
Cl1 Cl -0.77034(12) 0.20028(11) -0.4270(2)
O1 O -0.8499(5) 0.2612(4) -0.4364(11)
O2 O -0.7302(5) 0.2150(4) -0.5631(9)
O3 O -0.6887(5) 0.2152(4) -0.2797(7)
O4 O -0.8056(5) 0.1137(4) -0.4298(8)
loop_
_geom_bond_atom_site_label_1
_geom_bond_atom_site_label_2
_geom_bond_site_symmetry_1
_geom_bond_site_symmetry_2
Ag1 N2 1_555 1_555
Cl1 O1 1_555 1_555
O2 Cl1 1_555 1_555
O3 Cl1 1_555 1_555
O4 Cl1 1_555 1_555
N1 C7 1_555 1_555
N2 C8 1_555 1_555
N3 C11 1_555 1_555
N4 C12 1_555 1_555
C1 C2 1_555 1_555
C2 H1 1_555 1_555
C3 C2 1_555 1_555
C4 C3 1_555 1_555
H2 C4 1_555 1_555
C5 C4 1_555 1_555
C6 C1 1_555 1_555
H3 C6 1_555 1_555
C7 C1 1_555 1_555
H4 C7 1_555 1_555
H5 C7 1_555 1_555
C8 N1 1_555 1_555
H6 C8 1_555 1_555
C9 N2 1_555 1_555
H7 C9 1_555 1_555
C10 N1 1_555 1_555
H8 C10 1_555 1_555
C11 C3 1_555 1_555
H9 C11 1_555 1_555
H10 C11 1_555 1_555
C12 N3 1_555 1_555
H11 C12 1_555 1_555
C13 N4 1_555 1_555
H12 C13 1_555 1_555
C14 N3 1_555 1_555
H13 C14 1_555 1_555
C15 C5 1_555 1_555
H14 C15 1_555 1_555
H15 C15 1_555 1_555
H16 C15 1_555 1_555
Ag1_2 N4 1_555 1_555
N4_2 Ag1 1_555 1_555
C5 C6 1_555 1_555
C9 C10 1_555 1_555
C13 C14 1_555 1_555

#END
