
#######################################################################
#
#                 Cambridge Crystallographic Data Centre
#                                CCDC 
#
#######################################################################
#
# If this CIF has been generated from an entry in the Cambridge 
# Structural Database, then it will include bibliographic, chemical, 
# crystal, experimental, refinement or atomic coordinate data resulting 
# from the CCDC's data processing and validation procedures.
#
#######################################################################

data_XAQWOC
_symmetry_cell_setting           orthorhombic
_symmetry_space_group_name_H-M   'P b c n'
_symmetry_Int_Tables_number      60
_space_group_name_Hall           '-P 2n 2ab'
loop_
_symmetry_equiv_pos_site_id
_symmetry_equiv_pos_as_xyz
1 x,y,z
2 1/2-x,1/2-y,1/2+z
3 1/2+x,1/2-y,-z
4 -x,y,1/2-z
5 -x,-y,-z
6 1/2+x,1/2+y,1/2-z
7 1/2-x,1/2+y,z
8 x,-y,1/2+z
_cell_length_a                   20.547(13)
_cell_length_b                   9.046(6)
_cell_length_c                   17.751(11)
_cell_angle_alpha                90
_cell_angle_beta                 90
_cell_angle_gamma                90
_cell_volume                     3299.35
loop_
_atom_site_label
_atom_site_type_symbol
_atom_site_fract_x
_atom_site_fract_y
_atom_site_fract_z
Cu1 Cu 0.0000 0.26123(7) 0.2500
O1 O 0.0000 0.5272(5) 0.2500
H1 H 0.034(2) 0.590(5) 0.265(3)
O2 O 0.0000 -0.0152(6) 0.2500
H2 H 0.030(3) -0.081(6) 0.276(3)
N2 N 0.03670(13) 0.1902(3) 0.47681(15)
N3 N 0.00622(12) 0.2566(3) 0.36297(15)
N4 N 0.30376(12) 0.3178(3) 0.71288(15)
N5 N 0.40248(12) 0.2486(3) 0.74432(15)
C1 C 0.14142(16) 0.1508(4) 0.54405(18)
C2 C 0.16261(15) 0.2470(4) 0.60043(18)
H3 H 0.1321 0.2883 0.6347
C3 C 0.22811(15) 0.2824(4) 0.60651(18)
C4 C 0.27251(16) 0.2220(4) 0.55597(19)
H4 H 0.3172 0.2474 0.5598
C5 C 0.25220(18) 0.1243(4) 0.49958(19)
C6 C 0.18620(17) 0.0901(4) 0.49485(19)
H5 H 0.1717 0.0237 0.4570
C7 C 0.07008(16) 0.1093(4) 0.53717(19)
H6 H 0.0666 0.0019 0.5273
H7 H 0.0480 0.1299 0.5856
C8 C 0.04329(15) 0.1662(4) 0.40244(18)
H8 H 0.0711 0.0934 0.3811
C9 C -0.02518(19) 0.3429(5) 0.4146(2)
H9 H -0.0554 0.4191 0.4030
C10 C -0.00662(18) 0.3029(5) 0.4850(2)
H10 H -0.0210 0.3453 0.5311
C11 C 0.25144(17) 0.3849(4) 0.6687(2)
H11 H 0.2672 0.4783 0.6461
H12 H 0.2145 0.4088 0.7024
C12 C 0.36776(15) 0.3381(4) 0.70215(18)
H13 H 0.1143 0.0916 0.1683
C13 C 0.14215(17) 0.3327(4) 0.28519(19)
H14 H 0.1317 0.4064 0.3214
C14 C 0.29704(16) 0.2089(4) 0.76565(18)
H15 H 0.2574 0.1701 0.7848
C15 C 0.3007(2) 0.0552(5) 0.4464(2)
H16 H 0.2983 -0.0527 0.4505
H17 H 0.3446 0.0884 0.4595
H18 H 0.2906 0.0850 0.3946
Cu1A Cu 0.5000 0.23877(7) 0.7500
Cu1A_2 Cu 0.5000 0.23877(7) -0.2500
H1C H -0.034(2) 0.590(5) 0.235(3)
H2C H -0.030(3) -0.081(6) 0.224(3)
N2A N 0.46330(13) 0.3098(3) -0.02319(15)
N3A N 0.49378(12) 0.2434(3) -0.13703(15)
N3C N -0.00622(12) 0.2566(3) 0.13703(15)
N4A N 0.19624(12) 0.1822(3) 0.21288(15)
N5B N -0.09752(12) 0.2514(3) 0.25568(15)
N5A N 0.09752(12) 0.2514(3) 0.24432(15)
C1A C 0.35858(16) 0.3492(4) 0.04405(18)
C2A C 0.33739(15) 0.2530(4) 0.10043(18)
H3A H 0.3679 0.2117 0.1347
C3A C 0.27189(15) 0.2176(4) 0.10651(18)
C4A C 0.22749(16) 0.2780(4) 0.05597(19)
H4A H 0.1828 0.2526 0.0598
C5A C 0.24780(18) 0.3757(4) -0.00042(19)
C6A C 0.31380(17) 0.4099(4) -0.00515(19)
H5A H 0.3283 0.4763 -0.0430
C7A C 0.42992(16) 0.3907(4) 0.03717(19)
H6A H 0.4334 0.4981 0.0273
H7A H 0.4520 0.3701 0.0856
C8A C 0.45671(15) 0.3338(4) -0.09756(18)
H8A H 0.4289 0.4066 -0.1189
C9A C 0.52518(19) 0.1571(5) -0.0854(2)
H9A H 0.5554 0.0809 -0.0970
C10A C 0.50662(18) 0.1971(5) -0.0150(2)
H10A H 0.5210 0.1547 0.0311
C11A C 0.24856(17) 0.1151(4) 0.1687(2)
H11A H 0.2328 0.0217 0.1461
H12A H 0.2855 0.0912 0.2024
C12A C 0.13224(15) 0.1619(4) 0.20215(18)
H13A H 0.3857 0.4084 0.6683
C13A C 0.35785(17) 0.1673(4) 0.78519(19)
H14A H 0.3683 0.0936 0.8214
C14A C 0.20296(16) 0.2911(4) 0.26565(18)
H15A H 0.2426 0.3299 0.2848
C15A C 0.1993(2) 0.4448(5) -0.0536(2)
H16A H 0.2017 0.5527 -0.0495
H17A H 0.1554 0.4116 -0.0405
H18A H 0.2094 0.4150 -0.1054
O3 O 0.0605(2) -0.1956(5) 0.3567(3)
O4 O 0.12136(19) -0.3029(5) 0.2844(2)
O5 O 0.1500(2) -0.1089(5) 0.3318(3)
N1 N 0.11101(10) -0.2068(2) 0.32520(12)
loop_
_geom_bond_atom_site_label_1
_geom_bond_atom_site_label_2
_geom_bond_site_symmetry_1
_geom_bond_site_symmetry_2
Cu1 O1 1_555 1_555
O1 H1 1_555 1_555
O2 Cu1 1_555 1_555
H2 O2 1_555 1_555
O3 N1 1_555 1_555
O4 N1 1_555 1_555
O5 N1 1_555 1_555
N2 C7 1_555 1_555
N3 Cu1 1_555 1_555
N4 C11 1_555 1_555
N5 C12 1_555 1_555
C1 C2 1_555 1_555
C2 H3 1_555 1_555
C3 C2 1_555 1_555
C4 C3 1_555 1_555
H4 C4 1_555 1_555
C5 C4 1_555 1_555
C6 C1 1_555 1_555
H5 C6 1_555 1_555
C7 C1 1_555 1_555
H6 C7 1_555 1_555
H7 C7 1_555 1_555
C8 N2 1_555 1_555
H8 C8 1_555 1_555
C9 N3 1_555 1_555
H9 C9 1_555 1_555
C10 N2 1_555 1_555
H10 C10 1_555 1_555
C11 C3 1_555 1_555
H11 C11 1_555 1_555
H12 C11 1_555 1_555
C12 N4 1_555 1_555
H13 C12A 1_555 1_555
C13 H14 1_555 1_555
C14 N4 1_555 1_555
H15 C14 1_555 1_555
C15 C5 1_555 1_555
H16 C15 1_555 1_555
H17 C15 1_555 1_555
H18 C15 1_555 1_555
Cu1A N5 1_555 1_555
Cu1A_2 N3A 1_555 1_555
H1C O1 1_555 1_555
H2C O2 1_555 1_555
N2A C7A 1_555 1_555
N3A C8A 1_555 1_555
N3C Cu1 1_555 1_555
N4A C11A 1_555 1_555
N5B Cu1 1_555 1_555
N5A Cu1 1_555 1_555
C1A C2A 1_555 1_555
C2A H3A 1_555 1_555
C3A C2A 1_555 1_555
C4A C3A 1_555 1_555
H4A C4A 1_555 1_555
C5A C4A 1_555 1_555
C6A C1A 1_555 1_555
H5A C6A 1_555 1_555
C7A C1A 1_555 1_555
H6A C7A 1_555 1_555
H7A C7A 1_555 1_555
C8A N2A 1_555 1_555
H8A C8A 1_555 1_555
C9A N3A 1_555 1_555
H9A C9A 1_555 1_555
C10A N2A 1_555 1_555
H10A C10A 1_555 1_555
C11A C3A 1_555 1_555
H11A C11A 1_555 1_555
H12A C11A 1_555 1_555
C12A N4A 1_555 1_555
H13A C12 1_555 1_555
C13A N5 1_555 1_555
H14A C13A 1_555 1_555
C14A C13 1_555 1_555
H15A C14A 1_555 1_555
C15A C5A 1_555 1_555
H16A C15A 1_555 1_555
H17A C15A 1_555 1_555
H18A C15A 1_555 1_555
N3 C8 1_555 1_555
C5 C6 1_555 1_555
C9 C10 1_555 1_555
C13 N5A 1_555 1_555
C14 C13A 1_555 1_555
N4A C14A 1_555 1_555
N5A C12A 1_555 1_555
C5A C6A 1_555 1_555
C9A C10A 1_555 1_555

#END
