
#######################################################################
#
#                 Cambridge Crystallographic Data Centre
#                                CCDC 
#
#######################################################################
#
# If this CIF has been generated from an entry in the Cambridge 
# Structural Database, then it will include bibliographic, chemical, 
# crystal, experimental, refinement or atomic coordinate data resulting 
# from the CCDC's data processing and validation procedures.
#
#######################################################################

data_XAQWAO
_symmetry_cell_setting           triclinic
_symmetry_space_group_name_H-M   'P -1'
_symmetry_Int_Tables_number      2
_space_group_name_Hall           '-P 1'
loop_
_symmetry_equiv_pos_site_id
_symmetry_equiv_pos_as_xyz
1 x,y,z
2 -x,-y,-z
_cell_length_a                   8.541(4)
_cell_length_b                   8.977(4)
_cell_length_c                   11.199(6)
_cell_angle_alpha                110.72(3)
_cell_angle_beta                 96.82(4)
_cell_angle_gamma                99.24(4)
_cell_volume                     778.232
loop_
_atom_site_label
_atom_site_type_symbol
_atom_site_fract_x
_atom_site_fract_y
_atom_site_fract_z
Mn1 Mn 0.5000 0.0000 -1.0000
N1 N 0.24242(15) -0.13629(16) -1.08987(12)
N2 N 0.14351(14) -0.17382(15) -1.03458(12)
N3 N 0.04307(17) -0.2138(2) -0.98116(16)
N4 N 0.27054(14) 0.29105(14) -0.68705(11)
N5 N 0.41291(14) 0.15314(15) -0.82321(11)
N6 N 0.33283(14) 0.35222(14) -0.15014(11)
N7 N 0.45686(15) 0.17494(15) -0.10266(12)
C1 C 0.07639(17) 0.32389(17) -0.53524(13)
C2 C 0.15713(17) 0.40409(17) -0.40598(14)
H1 H 0.2477 0.4919 -0.3843
C3 C 0.10605(17) 0.35653(17) -0.30826(14)
C4 C -0.03159(18) 0.23099(18) -0.34112(15)
H2 H -0.0678 0.1994 -0.2748
C5 C -0.11686(18) 0.15109(18) -0.46915(16)
C6 C -0.05934(17) 0.19773(18) -0.56636(14)
H3 H -0.1136 0.1426 -0.6543
C7 C 0.13791(18) 0.37185(19) -0.64142(14)
H4 H 0.0477 0.3411 -0.7158
H5 H 0.1775 0.4917 -0.6077
C8 C 0.27434(18) 0.20185(18) -0.81205(14)
H6 H 0.1887 0.1770 -0.8831
C9 C 0.50125(17) 0.21380(18) -0.69840(14)
H7 H 0.6065 0.1987 -0.6751
C10 C 0.41566(18) 0.29858(18) -0.61336(14)
H8 H 0.4489 0.3522 -0.5217
C11 C 0.20181(19) 0.43668(19) -0.16985(14)
H9 H 0.2494 0.5525 -0.1513
H10 H 0.1284 0.4336 -0.1083
C12 C 0.31852(18) 0.22472(18) -0.11200(14)
H11 H 0.2216 0.1762 -0.0940
C13 C 0.56431(18) 0.27576(19) -0.13945(15)
H12 H 0.6737 0.2697 -0.1436
C14 C 0.48913(19) 0.3855(2) -0.16900(15)
H13 H 0.5354 0.4681 -0.1969
C15 C -0.2659(2) 0.0167(2) -0.5023(2)
H14 H -0.2342 -0.0801 -0.4942
H15 H -0.3210 -0.0109 -0.5917
H16 H -0.3391 0.0539 -0.4424
Mn1_2 Mn 0.5000 0.0000 0.0000
Mn1_3 Mn 0.5000 0.0000 -2.0000
N1A N 0.75758(15) 0.13629(16) -0.91013(12)
N2A N 0.85649(14) 0.17382(15) -0.96542(12)
N3A N 0.95693(17) 0.2138(2) -1.01884(16)
N4A N 0.72946(14) -0.29105(14) -1.31295(11)
N5A N 0.58709(14) -0.15314(15) -1.17679(11)
N6A N 0.66717(14) -0.35222(14) -1.84986(11)
N7_2 N 0.45686(15) 0.17494(15) -1.10266(12)
N7A N 0.54314(15) -0.17494(15) -0.89734(12)
N7A_2 N 0.54314(15) -0.17494(15) -1.89734(12)
C1A C 0.92361(17) -0.32389(17) -1.46476(13)
C2A C 0.84287(17) -0.40409(17) -1.59402(14)
H1A H 0.7523 -0.4919 -1.6157
C3A C 0.89395(17) -0.35653(17) -1.69174(14)
C4A C 1.03159(18) -0.23099(18) -1.65888(15)
H2A H 1.0678 -0.1994 -1.7252
C5A C 1.11686(18) -0.15109(18) -1.53085(16)
C6A C 1.05934(17) -0.19773(18) -1.43364(14)
H3A H 1.1136 -0.1426 -1.3457
C7A C 0.86209(18) -0.37185(19) -1.35858(14)
H4A H 0.9523 -0.3411 -1.2842
H5A H 0.8225 -0.4917 -1.3923
C8A C 0.72566(18) -0.20185(18) -1.18795(14)
H6A H 0.8113 -0.1770 -1.1169
C9A C 0.49875(17) -0.21380(18) -1.30160(14)
H7A H 0.3935 -0.1987 -1.3249
C10A C 0.58434(18) -0.29858(18) -1.38664(14)
H8A H 0.5511 -0.3522 -1.4783
C11A C 0.79819(19) -0.43668(19) -1.83015(14)
H9A H 0.7506 -0.5525 -1.8487
H10A H 0.8716 -0.4336 -1.8917
C12A C 0.68148(18) -0.22472(18) -1.88800(14)
H11A H 0.7784 -0.1762 -1.9060
C13A C 0.43569(18) -0.27576(19) -1.86055(15)
H12A H 0.3263 -0.2697 -1.8564
C14A C 0.51087(19) -0.3855(2) -1.83100(15)
H13A H 0.4646 -0.4681 -1.8031
C15A C 1.2659(2) -0.0167(2) -1.4977(2)
H14A H 1.2342 0.0801 -1.5058
H15A H 1.3210 0.0109 -1.4083
H16A H 1.3391 -0.0539 -1.5576
loop_
_geom_bond_atom_site_label_1
_geom_bond_atom_site_label_2
_geom_bond_site_symmetry_1
_geom_bond_site_symmetry_2
Mn1 N1 1_555 1_555
N1 N2 1_555 1_555
N2 N3 1_555 1_555
N4 C7 1_555 1_555
N5 Mn1 1_555 1_555
N6 C11 1_555 1_555
N7 C12 1_555 1_555
C1 C2 1_555 1_555
C2 H1 1_555 1_555
C3 C2 1_555 1_555
C4 C3 1_555 1_555
H2 C4 1_555 1_555
C5 C4 1_555 1_555
C6 C1 1_555 1_555
H3 C6 1_555 1_555
C7 C1 1_555 1_555
H4 C7 1_555 1_555
H5 C7 1_555 1_555
C8 N4 1_555 1_555
H6 C8 1_555 1_555
C9 N5 1_555 1_555
H7 C9 1_555 1_555
C10 N4 1_555 1_555
H8 C10 1_555 1_555
C11 C3 1_555 1_555
H9 C11 1_555 1_555
H10 C11 1_555 1_555
C12 N6 1_555 1_555
H11 C12 1_555 1_555
C13 N7 1_555 1_555
H12 C13 1_555 1_555
C14 N6 1_555 1_555
H13 C14 1_555 1_555
C15 C5 1_555 1_555
H14 C15 1_555 1_555
H15 C15 1_555 1_555
H16 C15 1_555 1_555
Mn1_2 N7 1_555 1_555
Mn1_3 N7A_2 1_555 1_555
N1A Mn1 1_555 1_555
N2A N1A 1_555 1_555
N3A N2A 1_555 1_555
N4A C7A 1_555 1_555
N5A Mn1 1_555 1_555
N6A C11A 1_555 1_555
N7_2 Mn1 1_555 1_555
N7A Mn1 1_555 1_555
N7A_2 C12A 1_555 1_555
C1A C2A 1_555 1_555
C2A H1A 1_555 1_555
C3A C2A 1_555 1_555
C4A C3A 1_555 1_555
H2A C4A 1_555 1_555
C5A C4A 1_555 1_555
C6A C1A 1_555 1_555
H3A C6A 1_555 1_555
C7A C1A 1_555 1_555
H4A C7A 1_555 1_555
H5A C7A 1_555 1_555
C8A N4A 1_555 1_555
H6A C8A 1_555 1_555
C9A N5A 1_555 1_555
H7A C9A 1_555 1_555
C10A N4A 1_555 1_555
H8A C10A 1_555 1_555
C11A C3A 1_555 1_555
H9A C11A 1_555 1_555
H10A C11A 1_555 1_555
C12A N6A 1_555 1_555
H11A C12A 1_555 1_555
C13A N7A_2 1_555 1_555
H12A C13A 1_555 1_555
C14A N6A 1_555 1_555
H13A C14A 1_555 1_555
C15A C5A 1_555 1_555
H14A C15A 1_555 1_555
H15A C15A 1_555 1_555
H16A C15A 1_555 1_555
N5 C8 1_555 1_555
C5 C6 1_555 1_555
C9 C10 1_555 1_555
C13 C14 1_555 1_555
N5A C8A 1_555 1_555
C5A C6A 1_555 1_555
C9A C10A 1_555 1_555
C13A C14A 1_555 1_555

#END
