
#######################################################################
#
#                 Cambridge Crystallographic Data Centre
#                                CCDC 
#
#######################################################################
#
# If this CIF has been generated from an entry in the Cambridge 
# Structural Database, then it will include bibliographic, chemical, 
# crystal, experimental, refinement or atomic coordinate data resulting 
# from the CCDC's data processing and validation procedures.
#
#######################################################################

data_XAQYAQ
_symmetry_cell_setting           monoclinic
_symmetry_space_group_name_H-M   'P 21/c'
_symmetry_Int_Tables_number      14
_space_group_name_Hall           '-P 2ybc'
loop_
_symmetry_equiv_pos_site_id
_symmetry_equiv_pos_as_xyz
1 x,y,z
2 -x,1/2+y,1/2-z
3 -x,-y,-z
4 x,1/2-y,1/2+z
_cell_length_a                   4.8112(3)
_cell_length_b                   7.5510(5)
_cell_length_c                   14.9095(10)
_cell_angle_alpha                90
_cell_angle_beta                 93.086(4)
_cell_angle_gamma                90
_cell_volume                     540.867
loop_
_atom_site_label
_atom_site_type_symbol
_atom_site_fract_x
_atom_site_fract_y
_atom_site_fract_z
K1 K 0.07141(11) -0.64655(7) 0.15008(4)
C1 C -0.4855(5) -0.1912(3) 0.13427(16)
C2 C -0.7202(6) -0.2325(4) 0.07600(17)
N1 N -0.3992(5) -0.0117(3) 0.13970(14)
N2 N -0.3373(4) -0.3081(3) 0.18244(14)
N3 N -0.9025(5) -0.2827(4) 0.03128(16)
O1 O -0.5467(4) 0.0992(2) 0.09930(13)
O2 O -0.1818(4) 0.0274(2) 0.18316(12)
O3 O -0.4162(4) -0.4684(2) 0.17393(12)
K1A K -0.07141(11) -0.14655(7) 0.34992(4)
K1_2 K 0.07141(11) 0.35345(7) 0.15008(4)
K1_3 K -0.92859(11) -0.64655(7) 0.15008(4)
K1B K -1.07141(11) -0.35345(7) -0.15008(4)
K1_4 K -0.92859(11) 0.35345(7) 0.15008(4)
N2A N 0.3373(4) -0.8081(3) 0.31756(14)
N3B N -0.0975(5) -0.7173(4) -0.03128(16)
N3_2 N 0.0975(5) -0.2827(4) 0.03128(16)
O1_2 O 0.4533(4) -0.9008(2) 0.09930(13)
O2A O 0.1818(4) -0.4726(2) 0.31684(12)
O2_2 O -0.1818(4) -0.9726(2) 0.18316(12)
O3_2 O 0.5838(4) -0.4684(2) 0.17393(12)
loop_
_geom_bond_atom_site_label_1
_geom_bond_atom_site_label_2
_geom_bond_site_symmetry_1
_geom_bond_site_symmetry_2
K1 N2 1_555 1_555
C1 C2 1_555 1_555
C2 N3 1_555 1_555
N1 C1 1_555 1_555
N2 C1 1_555 1_555
N3 K1_3 1_555 1_555
O1 N1 1_555 1_555
O2 N1 1_555 1_555
O3 K1 1_555 1_555
K1A N2 1_555 1_555
K1_2 O2 1_555 1_555
K1_3 O3 1_555 1_555
K1B N3 1_555 1_555
K1_4 O1 1_555 1_555
N2A K1 1_555 1_555
N3B K1 1_555 1_555
N3_2 K1 1_555 1_555
O1_2 K1 1_555 1_555
O2A K1 1_555 1_555
O2_2 K1 1_555 1_555
O3_2 K1 1_555 1_555
N2 O3 1_555 1_555
O2 K1A 1_555 1_555
K1A O2A 1_555 1_555

#END
