
#######################################################################
#
#                 Cambridge Crystallographic Data Centre
#                                CCDC 
#
#######################################################################
#
# If this CIF has been generated from an entry in the Cambridge 
# Structural Database, then it will include bibliographic, chemical, 
# crystal, experimental, refinement or atomic coordinate data resulting 
# from the CCDC's data processing and validation procedures.
#
#######################################################################

data_XARQAI
_symmetry_cell_setting           orthorhombic
_symmetry_space_group_name_H-M   'P 21 21 21'
_symmetry_Int_Tables_number      19
_space_group_name_Hall           'P 2ac 2ab'
loop_
_symmetry_equiv_pos_site_id
_symmetry_equiv_pos_as_xyz
1 x,y,z
2 1/2-x,-y,1/2+z
3 -x,1/2+y,1/2-z
4 1/2+x,1/2-y,-z
_cell_length_a                   4.5894(5)
_cell_length_b                   11.6164(9)
_cell_length_c                   15.476(2)
_cell_angle_alpha                90
_cell_angle_beta                 90
_cell_angle_gamma                90
_cell_volume                     825.061
loop_
_atom_site_label
_atom_site_type_symbol
_atom_site_fract_x
_atom_site_fract_y
_atom_site_fract_z
Pb1 Pb 0.07236(15) 0.91005(5) 0.94349(3)
C1 C 0.246(4) 0.7744(12) 1.1454(8)
C2 C 0.088(6) 0.8680(14) 1.1963(10)
C3 C 0.059(4) 0.8398(12) 1.2920(8)
C4 C -0.096(3) 0.9436(12) 1.3361(9)
N1 N -0.104(4) 0.7313(11) 1.3031(8)
O1 O 0.146(3) 0.7496(9) 1.0717(6)
O2 O 0.454(3) 0.7224(10) 1.1788(7)
O3 O -0.328(3) 0.9257(11) 1.3694(8)
O4 O 0.045(3) 1.0364(9) 1.3324(7)
N2 N -0.484(4) 1.0654(13) 1.0672(10)
O5 O -0.403(4) 0.9650(10) 1.0411(7)
O6 O -0.377(5) 1.1051(16) 1.1306(11)
O7 O -0.696(4) 1.1118(13) 1.0304(12)
O1C O -0.354(3) 0.7504(9) 0.9283(6)
O2C O -0.046(3) 0.7776(10) 0.8212(7)
O3A O -0.172(3) 1.0743(11) 0.8694(8)
O4A O 0.455(3) 0.9636(9) 0.8324(7)
Pb1C Pb 0.57236(15) 0.58995(5) 1.05651(3)
Pb1A Pb -0.57236(15) 1.08995(5) 1.44349(3)
Pb1A_2 Pb 0.42764(15) 1.08995(5) 1.44349(3)
loop_
_geom_bond_atom_site_label_1
_geom_bond_atom_site_label_2
_geom_bond_site_symmetry_1
_geom_bond_site_symmetry_2
Pb1 O1 1_555 1_555
C1 C2 1_555 1_555
C2 C3 1_555 1_555
C3 C4 1_555 1_555
C4 O3 1_555 1_555
N1 C3 1_555 1_555
O1 C1 1_555 1_555
O2 C1 1_555 1_555
O3 Pb1A 1_555 1_555
O4 C4 1_555 1_555
N2 O5 1_555 1_555
O5 Pb1 1_555 1_555
O6 N2 1_555 1_555
O7 N2 1_555 1_555
O1C Pb1 1_555 1_555
O2C Pb1 1_555 1_555
O3A Pb1 1_555 1_555
O4A Pb1 1_555 1_555
Pb1C O1 1_555 1_555
Pb1A_2 O4 1_555 1_555
O2 Pb1C 1_555 1_555

#END
