
#######################################################################
#
#                 Cambridge Crystallographic Data Centre
#                                CCDC 
#
#######################################################################
#
# If this CIF has been generated from an entry in the Cambridge 
# Structural Database, then it will include bibliographic, chemical, 
# crystal, experimental, refinement or atomic coordinate data resulting 
# from the CCDC's data processing and validation procedures.
#
#######################################################################

data_XARRUE
_symmetry_cell_setting           triclinic
_symmetry_space_group_name_H-M   'P -1'
_symmetry_Int_Tables_number      2
_space_group_name_Hall           '-P 1'
loop_
_symmetry_equiv_pos_site_id
_symmetry_equiv_pos_as_xyz
1 x,y,z
2 -x,-y,-z
_cell_length_a                   6.6633(5)
_cell_length_b                   12.9710(11)
_cell_length_c                   14.1613(12)
_cell_angle_alpha                70.1270(10)
_cell_angle_beta                 88.4280(10)
_cell_angle_gamma                76.4730(10)
_cell_volume                     1117.32
loop_
_atom_site_label
_atom_site_type_symbol
_atom_site_fract_x
_atom_site_fract_y
_atom_site_fract_z
Mn1 Mn 0.47577(9) 0.04632(5) 0.09212(5)
Mn2 Mn 1.0000 0.0000 0.0000
Na1 Na 0.9533(3) 0.09263(15) 0.20496(13)
O1 O 0.5189(5) 0.2119(3) -0.0009(3)
O2 O 0.8613(5) 0.1584(2) 0.0243(2)
C1 C 0.6931(7) 0.2315(3) -0.0081(3)
C2 C 0.3636(8) 0.6373(4) -0.1732(4)
C3 C 0.7092(7) 0.3508(4) -0.0588(3)
C4 C 0.8965(8) 0.3783(4) -0.0677(5)
H1 H 1.0166 0.3215 -0.0443
C5 C 0.9097(9) 0.4884(5) -0.1107(7)
H2 H 1.0388 0.5051 -0.1168
C6 C 0.7349(9) 0.5743(5) -0.1449(5)
H3 H 0.7441 0.6491 -0.1722
C7 C 0.5465(7) 0.5473(4) -0.1378(4)
C8 C 0.5329(7) 0.4370(4) -0.0957(3)
H4 H 0.4043 0.4199 -0.0920
N1 N 0.2202(7) 0.7092(4) -0.1992(4)
O3 O 1.4342(5) -0.1153(3) 0.1958(2)
O4 O 1.0953(5) -0.0683(3) 0.1593(2)
C9 C 1.2593(7) -0.1367(4) 0.2029(3)
C10 C 1.5812(13) -0.5371(6) 0.3808(5)
C11 C 1.2425(8) -0.2522(4) 0.2679(4)
C12 C 1.0510(9) -0.2730(5) 0.2957(5)
H5 H 0.9324 -0.2147 0.2756
C13 C 1.0367(12) -0.3813(6) 0.3536(6)
H6 H 0.9092 -0.3951 0.3748
C14 C 1.2100(13) -0.4672(6) 0.3792(6)
H7 H 1.1986 -0.5403 0.4150
C15 C 1.4015(10) -0.4479(5) 0.3531(4)
C16 C 1.4179(9) -0.3386(4) 0.2976(4)
H8 H 1.5470 -0.3243 0.2808
N2 N 1.7312(12) -0.6068(6) 0.4037(6)
O5 O 0.6158(4) 0.0674(3) 0.2267(2)
O6 O 0.2807(4) 0.1301(3) 0.1975(2)
C17 C 0.4428(7) 0.1112(4) 0.2503(3)
C18 C 0.7732(8) 0.0854(4) 0.5666(3)
C19 C 0.4296(7) 0.1383(4) 0.3450(3)
C20 C 0.2437(7) 0.1918(4) 0.3730(3)
H9 H 0.1252 0.2139 0.3309
C21 C 0.2327(7) 0.2127(4) 0.4628(4)
H10 H 0.1079 0.2497 0.4801
C22 C 0.4063(8) 0.1786(4) 0.5266(4)
H11 H 0.3982 0.1907 0.5878
C23 C 0.5929(7) 0.1264(4) 0.4990(3)
C24 C 0.6042(6) 0.1059(4) 0.4087(3)
H12 H 0.7298 0.0702 0.3909
N3 N 0.9144(7) 0.0491(4) 0.6212(3)
O7 O 0.7168(4) -0.0533(2) 0.0314(2)
H13 H 0.7497 -0.1310 0.0788
Mn1A Mn 1.52423(9) -0.04632(5) -0.09212(5)
Mn1_2 Mn 1.47577(9) 0.04632(5) 0.09212(5)
Mn1A_2 Mn 0.52423(9) -0.04632(5) -0.09212(5)
Na1A Na 1.0467(3) -0.09263(15) -0.20496(13)
Na1A_2 Na 0.0467(3) 0.90737(15) -0.20496(13)
Na1_2 Na -0.0467(3) 0.09263(15) 0.20496(13)
Na1A_3 Na 1.0467(3) -0.09263(15) 0.79504(13)
Na1_3 Na 1.9533(3) -0.90737(15) 0.20496(13)
Na1_4 Na 1.9533(3) 0.09263(15) 0.20496(13)
Na1A_4 Na 2.0467(3) -0.09263(15) 0.79504(13)
O1A O 1.4811(5) -0.2119(3) 0.0009(3)
O2A O 1.1387(5) -0.1584(2) -0.0243(2)
C1A C 1.3069(7) -0.2315(3) 0.0081(3)
C2A C 1.6364(8) -0.6373(4) 0.1732(4)
C3A C 1.2908(7) -0.3508(4) 0.0588(3)
C4A C 1.1035(8) -0.3783(4) 0.0677(5)
H1A H 0.9834 -0.3215 0.0443
C5A C 1.0903(9) -0.4884(5) 0.1107(7)
H2A H 0.9612 -0.5051 0.1168
C6A C 1.2651(9) -0.5743(5) 0.1449(5)
H3A H 1.2559 -0.6491 0.1722
C7A C 1.4535(7) -0.5473(4) 0.1378(4)
C8A C 1.4671(7) -0.4370(4) 0.0957(3)
H4A H 1.5957 -0.4199 0.0920
N1A N 1.7798(7) -0.7092(4) 0.1992(4)
N1A_2 N 0.7798(7) 0.2908(4) 0.1992(4)
N1_2 N 1.2202(7) -0.2908(4) -0.1992(4)
O3A O 0.5658(5) 0.1153(3) -0.1958(2)
O3_2 O 0.4342(5) -0.1153(3) 0.1958(2)
O3A_2 O 1.5658(5) 0.1153(3) -0.1958(2)
O4A O 0.9047(5) 0.0683(3) -0.1593(2)
C9A C 0.7407(7) 0.1367(4) -0.2029(3)
C10A C 0.4188(13) 0.5371(6) -0.3808(5)
C11A C 0.7575(8) 0.2522(4) -0.2679(4)
C12A C 0.9490(9) 0.2730(5) -0.2957(5)
H5A H 1.0676 0.2147 -0.2756
C13A C 0.9633(12) 0.3813(6) -0.3536(6)
H6A H 1.0908 0.3951 -0.3748
C14A C 0.7900(13) 0.4672(6) -0.3792(6)
H7A H 0.8014 0.5403 -0.4150
C15A C 0.5985(10) 0.4479(5) -0.3531(4)
C16A C 0.5821(9) 0.3386(4) -0.2976(4)
H8A H 0.4530 0.3243 -0.2808
N2A N 0.2688(12) 0.6068(6) -0.4037(6)
O5_2 O 1.6158(4) 0.0674(3) 0.2267(2)
O5A O 1.3842(4) -0.0674(3) -0.2267(2)
O6_2 O 1.2807(4) 0.1301(3) 0.1975(2)
O6A O 1.7193(4) -0.1301(3) -0.1975(2)
O6A_2 O 0.7193(4) -0.1301(3) -0.1975(2)
C17_2 C 1.4428(7) 0.1112(4) 0.2503(3)
C18_2 C 1.7732(8) 0.0854(4) 0.5666(3)
C19_2 C 1.4296(7) 0.1383(4) 0.3450(3)
C20_2 C 1.2437(7) 0.1918(4) 0.3730(3)
H9_2 H 1.1252 0.2139 0.3309
C21_2 C 1.2327(7) 0.2127(4) 0.4628(4)
H10_2 H 1.1079 0.2497 0.4801
C22_2 C 1.4063(8) 0.1786(4) 0.5266(4)
H11_2 H 1.3982 0.1907 0.5878
C23_2 C 1.5929(7) 0.1264(4) 0.4990(3)
C24_2 C 1.6042(6) 0.1059(4) 0.4087(3)
H12_2 H 1.7298 0.0702 0.3909
N3_2 N 1.9144(7) 0.0491(4) 0.6212(3)
N3A N 1.0856(7) -0.0491(4) 0.3788(3)
N3_3 N 0.9144(7) 0.0491(4) -0.3788(3)
O7A O 1.2832(4) 0.0533(2) -0.0314(2)
O7A_2 O 0.2832(4) 0.0533(2) -0.0314(2)
O7_2 O 1.7168(4) -0.0533(2) 0.0314(2)
H13A H 1.2503 0.1310 -0.0788
H13A_2 H 0.2503 0.1310 -0.0788
H13_2 H 1.7497 -0.1310 0.0788
loop_
_geom_bond_atom_site_label_1
_geom_bond_atom_site_label_2
_geom_bond_site_symmetry_1
_geom_bond_site_symmetry_2
Mn1 O1 1_555 1_555
Mn2 O2 1_555 1_555
Na1 O2 1_555 1_555
O1 C1 1_555 1_555
O2 C1 1_555 1_555
C1 C3 1_555 1_555
C2 C7 1_555 1_555
C3 C4 1_555 1_555
C4 H1 1_555 1_555
C5 C4 1_555 1_555
H2 C5 1_555 1_555
C6 C5 1_555 1_555
H3 C6 1_555 1_555
C7 C6 1_555 1_555
C8 C3 1_555 1_555
H4 C8 1_555 1_555
N1 C2 1_555 1_555
O3 C9 1_555 1_555
O4 Mn2 1_555 1_555
C9 O4 1_555 1_555
C10 C15 1_555 1_555
C11 C9 1_555 1_555
C12 C11 1_555 1_555
H5 C12 1_555 1_555
C13 C12 1_555 1_555
H6 C13 1_555 1_555
C14 C13 1_555 1_555
H7 C14 1_555 1_555
C15 C14 1_555 1_555
C16 C11 1_555 1_555
H8 C16 1_555 1_555
N2 C10 1_555 1_555
O5 Mn1 1_555 1_555
O6 Mn1 1_555 1_555
C17 O5 1_555 1_555
C18 C23 1_555 1_555
C19 C17 1_555 1_555
C20 C19 1_555 1_555
H9 C20 1_555 1_555
C21 C20 1_555 1_555
H10 C21 1_555 1_555
C22 C21 1_555 1_555
H11 C22 1_555 1_555
C23 C22 1_555 1_555
C24 C19 1_555 1_555
H12 C24 1_555 1_555
N3 C18 1_555 1_555
O7 Mn1 1_555 1_555
H13 O7 1_555 1_555
Mn1A O1A 1_555 1_555
Mn1_2 O3 1_555 1_555
Mn1A_2 O7 1_555 1_555
Na1A O2A 1_555 1_555
Na1A_2 N1 1_555 1_555
Na1_2 O6 1_555 1_555
Na1A_3 N3 1_555 1_555
Na1_3 N1A 1_555 1_555
Na1_4 O5_2 1_555 1_555
Na1A_4 N3_2 1_555 1_555
O1A C1A 1_555 1_555
O2A Mn2 1_555 1_555
C1A O2A 1_555 1_555
C2A C7A 1_555 1_555
C3A C1A 1_555 1_555
C4A C3A 1_555 1_555
H1A C4A 1_555 1_555
C5A C4A 1_555 1_555
H2A C5A 1_555 1_555
C6A C5A 1_555 1_555
H3A C6A 1_555 1_555
C7A C6A 1_555 1_555
C8A C3A 1_555 1_555
H4A C8A 1_555 1_555
N1A C2A 1_555 1_555
N1A_2 Na1 1_555 1_555
N1_2 Na1A 1_555 1_555
O3A Mn1A_2 1_555 1_555
O3_2 Mn1 1_555 1_555
O3A_2 Mn1A 1_555 1_555
O4A Mn2 1_555 1_555
C9A O3A 1_555 1_555
C10A C15A 1_555 1_555
C11A C9A 1_555 1_555
C12A C11A 1_555 1_555
H5A C12A 1_555 1_555
C13A C12A 1_555 1_555
H6A C13A 1_555 1_555
C14A C13A 1_555 1_555
H7A C14A 1_555 1_555
C15A C14A 1_555 1_555
C16A C11A 1_555 1_555
H8A C16A 1_555 1_555
N2A C10A 1_555 1_555
O5_2 Mn1_2 1_555 1_555
O5A Mn1A 1_555 1_555
O6_2 Na1 1_555 1_555
O6A Mn1A 1_555 1_555
O6A_2 Mn1A_2 1_555 1_555
C17_2 O5_2 1_555 1_555
C18_2 C23_2 1_555 1_555
C19_2 C17_2 1_555 1_555
C20_2 C19_2 1_555 1_555
H9_2 C20_2 1_555 1_555
C21_2 C20_2 1_555 1_555
H10_2 C21_2 1_555 1_555
C22_2 C21_2 1_555 1_555
H11_2 C22_2 1_555 1_555
C23_2 C22_2 1_555 1_555
C24_2 C19_2 1_555 1_555
H12_2 C24_2 1_555 1_555
N3_2 C18_2 1_555 1_555
N3A Na1 1_555 1_555
N3_3 Na1A 1_555 1_555
O7A Mn2 1_555 1_555
O7A_2 Mn1 1_555 1_555
O7_2 Mn1A 1_555 1_555
H13A O7A 1_555 1_555
H13A_2 O7A_2 1_555 1_555
H13_2 O7_2 1_555 1_555
Mn2 O7 1_555 1_555
Na1 O4 1_555 1_555
Na1 O5 1_555 1_555
C7 C8 1_555 1_555
C15 C16 1_555 1_555
O6 C17 1_555 1_555
C23 C24 1_555 1_555
Mn1A O7A 1_555 1_555
Mn1_2 O6_2 1_555 1_555
Mn1_2 O7A 1_555 1_555
Mn1_2 O7_2 1_555 1_555
Mn1A_2 O7A_2 1_555 1_555
Na1A O4A 1_555 1_555
Na1A O5A 1_555 1_555
Na1A O6A_2 1_555 1_555
C7A C8A 1_555 1_555
O4A C9A 1_555 1_555
C15A C16A 1_555 1_555
O6_2 C17_2 1_555 1_555
C23_2 C24_2 1_555 1_555

#END
