
#######################################################################
#
#                 Cambridge Crystallographic Data Centre
#                                CCDC 
#
#######################################################################
#
# If this CIF has been generated from an entry in the Cambridge 
# Structural Database, then it will include bibliographic, chemical, 
# crystal, experimental, refinement or atomic coordinate data resulting 
# from the CCDC's data processing and validation procedures.
#
#######################################################################

data_XARWAO
_symmetry_cell_setting           orthorhombic
_symmetry_space_group_name_H-M   'P b c a'
_symmetry_Int_Tables_number      61
_space_group_name_Hall           '-P 2ac 2ab'
loop_
_symmetry_equiv_pos_site_id
_symmetry_equiv_pos_as_xyz
1 x,y,z
2 1/2+x,1/2-y,-z
3 -x,1/2+y,1/2-z
4 1/2-x,-y,1/2+z
5 -x,-y,-z
6 1/2-x,1/2+y,z
7 x,1/2-y,1/2+z
8 1/2+x,y,1/2-z
_cell_length_a                   13.1(2)
_cell_length_b                   25.4(2)
_cell_length_c                   12.0(2)
_cell_angle_alpha                90
_cell_angle_beta                 90
_cell_angle_gamma                90
_cell_volume                     3992.88
loop_
_atom_site_label
_atom_site_type_symbol
_atom_site_fract_x
_atom_site_fract_y
_atom_site_fract_z
Cu1 Cu -0.32384(2) 0.24673(1) 0.15769(2)
O1 O -0.4751(2) 0.24718(9) 0.1619(2)
O2 O -0.4416(2) 0.3194(1) 0.0755(2)
O3 O -0.5988(2) 0.2959(1) 0.1030(2)
O4 O -0.1735(2) 0.24033(9) 0.1545(2)
O5 O -0.0462(2) 0.2868(1) 0.0974(2)
O6 O -0.1999(2) 0.31681(9) 0.0800(2)
O7 O -0.3365(2) 0.16969(8) 0.2478(2)
N1 N -0.3288(1) 0.21063(8) 0.0035(2)
N2 N -0.3215(1) 0.21162(8) -0.1941(2)
N3 N -0.5084(2) 0.2880(1) 0.1126(2)
N4 N -0.1375(2) 0.28280(10) 0.1090(2)
C1 C -0.3198(2) 0.2352(1) -0.0944(2)
C2 C -0.3400(2) 0.15826(10) 0.0009(2)
C3 C -0.3393(2) 0.12940(9) -0.0979(2)
C4 C -0.3298(2) 0.15869(10) -0.1952(2)
C5 C -0.3524(2) 0.07107(10) -0.0948(2)
C6 C -0.4401(2) 0.04868(10) -0.1420(2)
C7 C -0.5191(2) 0.0793(1) -0.1922(2)
C8 C -0.6019(2) 0.0561(1) -0.2376(3)
C9 C -0.6129(2) 0.0001(1) -0.2371(3)
C10 C -0.5422(2) -0.0301(1) -0.1883(3)
C11 C -0.4536(2) -0.00723(10) -0.1369(2)
C12 C -0.3826(2) -0.0379(1) -0.0811(2)
C13 C -0.2965(2) -0.01613(10) -0.0312(2)
C14 C -0.2242(3) -0.0478(1) 0.0261(2)
C15 C -0.1387(3) -0.0261(1) 0.0709(3)
C16 C -0.1210(2) 0.0289(1) 0.0613(3)
C17 C -0.1891(2) 0.0608(1) 0.0085(2)
C18 C -0.2797(2) 0.03989(9) -0.0397(2)
C19 C -0.2576(3) 0.1372(1) 0.2901(4)
H1 H -0.315(2) 0.276(1) -0.092(2)
H2 H -0.353(2) 0.1438(9) 0.069(2)
H3 H -0.333(2) 0.147(1) -0.257(3)
H4 H -0.507(3) 0.115(2) -0.201(4)
H5 H -0.658(3) 0.076(1) -0.262(3)
H6 H -0.671(2) -0.016(1) -0.281(3)
H7 H -0.553(2) -0.064(1) -0.178(3)
H8 H -0.395(2) -0.072(1) -0.072(3)
H9 H -0.243(3) -0.085(1) 0.043(3)
H10 H -0.087(3) -0.045(1) 0.106(3)
H11 H -0.062(3) 0.050(2) 0.093(3)
H12 H -0.173(2) 0.096(1) 0.011(3)
H13 H -0.396(2) 0.162(1) 0.281(3)
H14 H -0.227(3) 0.118(2) 0.244(4)
H15 H -0.280(4) 0.112(2) 0.343(4)
H16 H -0.209(3) 0.157(2) 0.331(4)
N2F N -0.3215(1) 0.28838(8) 0.3059(2)
Cu1F Cu -0.32384(2) 0.25327(1) -0.34231(2)
O8 O -0.0128(2) 0.1566(1) 0.1475(3)
H17 H -0.050(5) 0.181(3) 0.172(7)
H18 H -0.005(3) 0.168(2) 0.084(3)
loop_
_geom_bond_atom_site_label_1
_geom_bond_atom_site_label_2
_geom_bond_site_symmetry_1
_geom_bond_site_symmetry_2
Cu1 O1 1_555 1_555
O1 N3 1_555 1_555
O2 N3 1_555 1_555
O3 N3 1_555 1_555
O4 Cu1 1_555 1_555
O5 N4 1_555 1_555
O6 N4 1_555 1_555
O7 Cu1 1_555 1_555
N1 Cu1 1_555 1_555
N2 C1 1_555 1_555
N4 O4 1_555 1_555
C1 N1 1_555 1_555
C2 N1 1_555 1_555
C3 C2 1_555 1_555
C4 N2 1_555 1_555
C5 C3 1_555 1_555
C6 C5 1_555 1_555
C7 C6 1_555 1_555
C8 C7 1_555 1_555
C9 C8 1_555 1_555
C10 C9 1_555 1_555
C11 C6 1_555 1_555
C12 C11 1_555 1_555
C13 C12 1_555 1_555
C14 C13 1_555 1_555
C15 C14 1_555 1_555
C16 C15 1_555 1_555
C17 C16 1_555 1_555
C18 C5 1_555 1_555
C19 O7 1_555 1_555
H1 C1 1_555 1_555
H2 C2 1_555 1_555
H3 C4 1_555 1_555
H4 C7 1_555 1_555
H5 C8 1_555 1_555
H6 C9 1_555 1_555
H7 C10 1_555 1_555
H8 C12 1_555 1_555
H9 C14 1_555 1_555
H10 C15 1_555 1_555
H11 C16 1_555 1_555
H12 C17 1_555 1_555
H13 O7 1_555 1_555
H14 C19 1_555 1_555
H15 C19 1_555 1_555
H16 C19 1_555 1_555
O8 H17 1_555 1_555
H18 O8 1_555 1_555
N2F Cu1 1_555 1_555
Cu1F N2 1_555 1_555
C3 C4 1_555 1_555
C10 C11 1_555 1_555
C13 C18 1_555 1_555
C17 C18 1_555 1_555

#END
