
#######################################################################
#
#                 Cambridge Crystallographic Data Centre
#                                CCDC 
#
#######################################################################
#
# If this CIF has been generated from an entry in the Cambridge 
# Structural Database, then it will include bibliographic, chemical, 
# crystal, experimental, refinement or atomic coordinate data resulting 
# from the CCDC's data processing and validation procedures.
#
#######################################################################

data_XARWES
_symmetry_cell_setting           monoclinic
_symmetry_space_group_name_H-M   'P 21/n'
_symmetry_Int_Tables_number      14
_space_group_name_Hall           '-P 2yn'
loop_
_symmetry_equiv_pos_site_id
_symmetry_equiv_pos_as_xyz
1 x,y,z
2 1/2-x,1/2+y,1/2-z
3 -x,-y,-z
4 1/2+x,1/2-y,1/2+z
_cell_length_a                   13.734(4)
_cell_length_b                   7.248(3)
_cell_length_c                   22.423(3)
_cell_angle_alpha                90
_cell_angle_beta                 95.75(2)
_cell_angle_gamma                90
_cell_volume                     2220.85
loop_
_atom_site_label
_atom_site_type_symbol
_atom_site_fract_x
_atom_site_fract_y
_atom_site_fract_z
Cu1 Cu -0.39824(2) 0.45298(4) -0.21516(2)
O1 O -0.5179(2) 0.3038(3) -0.2367(1)
O2 O -0.4623(2) 0.5961(4) -0.1542(1)
O3 O -0.4592(3) 0.9875(4) -0.2922(2)
O4 O -0.4468(2) 0.6903(3) -0.2843(1)
O5 O -0.5641(3) 0.8366(5) -0.2493(3)
O6 O -0.3440(2) 0.2368(3) -0.1436(1)
O7 O -0.3682(3) -0.0524(3) -0.1628(2)
O8 O -0.4544(3) 0.0842(5) -0.1027(2)
N1 N -0.3373(2) 0.3232(3) -0.2829(1)
N2 N -0.2262(2) 0.0970(3) -0.3090(1)
N3 N -0.4897(2) 0.8401(4) -0.2752(1)
N4 N -0.3901(2) 0.0887(4) -0.1363(1)
C1 C -0.2644(2) 0.2035(4) -0.2692(1)
C2 C -0.2649(2) 0.1077(4) -0.3668(1)
C3 C -0.3390(2) 0.2311(4) -0.3855(1)
C4 C -0.3726(2) 0.3373(4) -0.3403(1)
C5 C -0.3793(2) 0.2523(4) -0.4493(1)
C6 C -0.3158(2) 0.2946(4) -0.4934(1)
C7 C -0.2128(3) 0.3242(5) -0.4800(2)
C8 C -0.1549(3) 0.3654(6) -0.5245(2)
C9 C -0.1934(3) 0.3749(7) -0.5843(2)
C10 C -0.2903(3) 0.3518(6) -0.5992(2)
C11 C -0.3553(3) 0.3131(4) -0.5548(1)
C12 C -0.4559(3) 0.3000(4) -0.5692(1)
C13 C -0.5197(2) 0.2631(4) -0.5270(1)
C14 C -0.6225(3) 0.2521(5) -0.5429(2)
C15 C -0.6844(3) 0.2117(5) -0.5017(2)
C16 C -0.6466(3) 0.1706(5) -0.4409(2)
C17 C -0.5489(3) 0.1809(5) -0.4240(2)
C18 C -0.4809(2) 0.2329(4) -0.4656(1)
C19 C -0.6109(4) 0.3645(8) -0.2570(5)
C20 C -0.6905(3) 0.2546(7) -0.2660(3)
C21 C -0.5100(7) 0.5411(7) -0.1049(4)
C22 C -0.5724(6) 0.6415(9) -0.0789(4)
H1 H -0.238(3) 0.202(5) -0.233(2)
H2 H -0.231(3) 0.032(5) -0.395(2)
H3 H -0.410(3) 0.408(5) -0.347(2)
H4 H -0.179(3) 0.318(5) -0.440(2)
H5 H -0.083(4) 0.415(7) -0.517(2)
H6 H -0.163(6) 0.39(1) -0.615(3)
H7 H -0.321(4) 0.369(7) -0.632(2)
H8 H -0.479(3) 0.311(5) -0.609(2)
H9 H -0.640(3) 0.279(5) -0.584(2)
H10 H -0.754(3) 0.209(5) -0.512(2)
H11 H -0.684(4) 0.136(7) -0.412(2)
H12 H -0.526(3) 0.140(5) -0.380(2)
H13 H -0.513(3) 0.216(6) -0.254(2)
H14 H -0.6029 0.4163 -0.2968
H15 H -0.6253 0.4614 -0.2319
H16 H -0.6808 0.1586 -0.2929
H17 H -0.7461 0.3269 -0.2813
H18 H -0.7036 0.2047 -0.2282
H19 H -0.451(5) 0.677(10) -0.155(3)
H20 H -0.5334 0.4204 -0.1125
H21 H -0.4539 0.5260 -0.0720
H22 H -0.5513 0.7584 -0.0692
H23 H -0.5964 0.5793 -0.0458
H24 H -0.6310 0.6522 -0.1095
N2A N -0.2738(2) 0.5970(3) -0.1910(1)
Cu1A Cu -0.10176(2) -0.04702(4) -0.28484(2)
loop_
_geom_bond_atom_site_label_1
_geom_bond_atom_site_label_2
_geom_bond_site_symmetry_1
_geom_bond_site_symmetry_2
Cu1 O1 1_555 1_555
O1 C19 1_555 1_555
O2 Cu1 1_555 1_555
O3 N3 1_555 1_555
O4 Cu1 1_555 1_555
O5 N3 1_555 1_555
O6 Cu1 1_555 1_555
O7 N4 1_555 1_555
O8 N4 1_555 1_555
N1 Cu1 1_555 1_555
N2 C1 1_555 1_555
N3 O4 1_555 1_555
N4 O6 1_555 1_555
C1 N1 1_555 1_555
C2 N2 1_555 1_555
C3 C2 1_555 1_555
C4 N1 1_555 1_555
C5 C3 1_555 1_555
C6 C5 1_555 1_555
C7 C6 1_555 1_555
C8 C7 1_555 1_555
C9 C8 1_555 1_555
C10 C9 1_555 1_555
C11 C6 1_555 1_555
C12 C11 1_555 1_555
C13 C12 1_555 1_555
C14 C13 1_555 1_555
C15 C14 1_555 1_555
C16 C15 1_555 1_555
C17 C16 1_555 1_555
C18 C5 1_555 1_555
C19 C20 1_555 1_555
C20 H16 1_555 1_555
C21 O2 1_555 1_555
C22 C21 1_555 1_555
H1 C1 1_555 1_555
H2 C2 1_555 1_555
H3 C4 1_555 1_555
H4 C7 1_555 1_555
H5 C8 1_555 1_555
H6 C9 1_555 1_555
H7 C10 1_555 1_555
H8 C12 1_555 1_555
H9 C14 1_555 1_555
H10 C15 1_555 1_555
H11 C16 1_555 1_555
H12 C17 1_555 1_555
H13 O1 1_555 1_555
H14 C19 1_555 1_555
H15 C19 1_555 1_555
H17 C20 1_555 1_555
H18 C20 1_555 1_555
H19 O2 1_555 1_555
H20 C21 1_555 1_555
H21 C21 1_555 1_555
H22 C22 1_555 1_555
H23 C22 1_555 1_555
H24 C22 1_555 1_555
N2A Cu1 1_555 1_555
Cu1A N2 1_555 1_555
C3 C4 1_555 1_555
C10 C11 1_555 1_555
C13 C18 1_555 1_555
C17 C18 1_555 1_555

#END
