
#######################################################################
#
#                 Cambridge Crystallographic Data Centre
#                                CCDC 
#
#######################################################################
#
# If this CIF has been generated from an entry in the Cambridge 
# Structural Database, then it will include bibliographic, chemical, 
# crystal, experimental, refinement or atomic coordinate data resulting 
# from the CCDC's data processing and validation procedures.
#
#######################################################################

data_XASCUQ
_symmetry_cell_setting           trigonal
_symmetry_space_group_name_H-M   'P 3 c 1'
_symmetry_Int_Tables_number      158
_space_group_name_Hall           'P 3 -2"c'
loop_
_symmetry_equiv_pos_site_id
_symmetry_equiv_pos_as_xyz
1 x,y,z
2 -y,x-y,z
3 -x+y,-x,z
4 -x+y,y,1/2+z
5 x,x-y,1/2+z
6 -y,-x,1/2+z
_cell_length_a                   13.6640(7)
_cell_length_b                   13.6640(7)
_cell_length_c                   16.6959(11)
_cell_angle_alpha                90
_cell_angle_beta                 90
_cell_angle_gamma                120
_cell_volume                     2699.58
loop_
_atom_site_label
_atom_site_type_symbol
_atom_site_fract_x
_atom_site_fract_y
_atom_site_fract_z
Zn1 Zn 0.48163(4) 0.10538(4) 0.0056(3)
O1 O 0.6455(3) 0.2306(3) 0.0093(4)
N1 N 0.4694(5) 0.1024(5) 0.1285(5)
N2 N 0.2716(4) 0.0018(4) 0.0312(4)
N3 N 0.4221(3) 0.1696(4) -0.0798(4)
N4 N 0.1460(4) -0.2954(4) -0.0474(6)
N5 N 0.0136(3) -0.4723(3) -0.0385(4)
C1 C 0.6667 0.3333 0.0101(5)
C2 C 0.3645(10) 0.067(2) 0.1617(6)
C3 C 0.2665(6) 0.0196(9) 0.1162(6)
C4 C 0.2417(10) 0.075(2) -0.0138(12)
C5 C 0.3086(6) 0.1515(9) -0.0642(9)
C6 C 0.1934(6) -0.1146(9) 0.0106(8)
C7 C 0.2331(6) -0.1806(6) -0.0205(9)
C8 C 0.0858(5) -0.3820(5) 0.0024(6)
C9 C 0.1080(5) -0.3287(6) -0.1204(6)
C10 C 0.0280(5) -0.4396(5) -0.1162(5)
H1 H 0.4968(5) 0.0553(5) 0.1480(5)
H2 H 0.5172(5) 0.1776(5) 0.1467(5)
H3 H 0.3535(10) 0.009(2) 0.1988(6)
H4 H 0.3691(10) 0.129(2) 0.1898(6)
H5 H 0.2380(6) 0.0700(9) 0.1211(6)
H6 H 0.2142(6) -0.0513(9) 0.1391(6)
H7 H 0.1847(10) 0.022(2) -0.0486(12)
H8 H 0.2096(10) 0.105(2) 0.0221(12)
H9 H 0.3191(6) 0.2187(9) -0.0394(9)
H10 H 0.2721(6) 0.1418(9) -0.1144(9)
H11 H 0.4737(3) 0.2484(4) -0.0838(4)
H12 H 0.4191(3) 0.1342(4) -0.1294(4)
H13 H 0.1536(6) -0.1516(9) 0.0580(8)
H14 H 0.1421(6) -0.1137(9) -0.0274(8)
H15 H 0.2799(6) -0.1875(6) 0.0186(9)
H16 H 0.2772(6) -0.1422(6) -0.0661(9)
H17 H 0.0940(5) -0.3798(5) 0.0590(6)
H18 H 0.1326(5) -0.2842(6) -0.1677(6)
H19 H -0.0119(5) -0.4873(5) -0.1601(5)
Zn1B Zn 0.62375(6) 0.51837(4) 0.0056(3)
Zn1A Zn 0.89462(4) 0.37625(6) 0.0056(3)
Zn1A_2 Zn -0.10538(4) -0.62375(6) 0.0056(3)
Zn1B_2 Zn 0.62375(6) -0.48163(4) 0.0056(3)
Zn1_2 Zn 0.48163(4) 1.10538(4) 0.0056(3)
O1B O 0.5851(4) 0.3545(3) 0.0093(4)
O1A O 0.7694(3) 0.4149(4) 0.0093(4)
N1B N 0.6330(7) -0.4694(5) 0.1285(5)
N1B_2 N 0.6330(7) 0.5306(5) 0.1285(5)
N1A N 0.8976(5) 0.3670(7) 0.1285(5)
N2B N 0.7302(6) -0.2716(4) 0.0312(4)
N2B_2 N 0.7302(6) 0.7284(4) 0.0312(4)
N2A N 0.9982(4) 0.2698(6) 0.0312(4)
N3B N 0.7475(5) -0.4221(3) -0.0798(4)
N3B_2 N 0.7475(5) 0.5779(3) -0.0798(4)
N3A N 0.8304(4) 0.2525(5) -0.0798(4)
N4B N 0.5586(6) -0.1460(4) -0.0474(6)
N4B_2 N 0.5586(6) 0.8540(4) -0.0474(6)
N5B N 0.5141(4) -0.0136(3) -0.0385(4)
N5B_2 N 0.5141(4) 0.9864(3) -0.0385(4)
N5A N 0.4723(3) 0.4859(4) -0.0385(4)
N5_2 N 1.0136(3) 0.5277(3) -0.0385(4)
C2B C 0.7025(22) -0.3645(10) 0.1617(6)
C2B_2 C 0.7025(22) 0.6355(10) 0.1617(6)
C3B C 0.7531(11) -0.2665(6) 0.1162(6)
C3B_2 C 0.7531(11) 0.7335(6) 0.1162(6)
C4B C 0.8333(22) -0.2417(10) -0.0138(12)
C4B_2 C 0.8333(22) 0.7583(10) -0.0138(12)
C5B C 0.8429(11) -0.3086(6) -0.0642(9)
C5B_2 C 0.8429(11) 0.6914(6) -0.0642(9)
C6B C 0.6920(11) -0.1934(6) 0.0106(8)
C6B_2 C 0.6920(11) 0.8066(6) 0.0106(8)
C7B C 0.5863(8) -0.2331(6) -0.0205(9)
C7B_2 C 0.5863(8) 0.7669(6) -0.0205(9)
C8B C 0.5322(7) -0.0858(5) 0.0024(6)
C8B_2 C 0.5322(7) 0.9142(5) 0.0024(6)
C9B C 0.5633(8) -0.1080(5) -0.1204(6)
C9B_2 C 0.5633(8) 0.8920(5) -0.1204(6)
C10B C 0.5324(7) -0.0280(5) -0.1162(5)
C10B_2 C 0.5324(7) 0.9720(5) -0.1162(5)
H1B H 0.5585(7) -0.4968(5) 0.1480(5)
H1B_2 H 0.5585(7) 0.5032(5) 0.1480(5)
H1A H 0.9447(5) 0.4415(7) 0.1480(5)
H2B H 0.6604(7) -0.5172(5) 0.1467(5)
H2B_2 H 0.6604(7) 0.4828(5) 0.1467(5)
H2A H 0.8224(5) 0.3396(7) 0.1467(5)
H3B H 0.6555(22) -0.3535(10) 0.1988(6)
H3B_2 H 0.6555(22) 0.6465(10) 0.1988(6)
H4B H 0.7599(22) -0.3691(10) 0.1898(6)
H4B_2 H 0.7599(22) 0.6309(10) 0.1898(6)
H5B H 0.8320(11) -0.2380(6) 0.1211(6)
H5B_2 H 0.8320(11) 0.7620(6) 0.1211(6)
H6B H 0.7345(11) -0.2142(6) 0.1391(6)
H6B_2 H 0.7345(11) 0.7858(6) 0.1391(6)
H7B H 0.8373(22) -0.1847(10) -0.0486(12)
H7B_2 H 0.8373(22) 0.8153(10) -0.0486(12)
H8B H 0.8954(22) -0.2096(10) 0.0221(12)
H8B_2 H 0.8954(22) 0.7904(10) 0.0221(12)
H9B H 0.8996(11) -0.3191(6) -0.0394(9)
H9B_2 H 0.8996(11) 0.6809(6) -0.0394(9)
H10B H 0.8697(11) -0.2721(6) -0.1144(9)
H10B_2 H 0.8697(11) 0.7279(6) -0.1144(9)
H11B H 0.7747(5) -0.4737(3) -0.0838(4)
H11B_2 H 0.7747(5) 0.5263(3) -0.0838(4)
H11A H 0.7516(4) 0.2253(5) -0.0838(4)
H12B H 0.7151(5) -0.4191(3) -0.1294(4)
H12B_2 H 0.7151(5) 0.5809(3) -0.1294(4)
H12A H 0.8658(4) 0.2849(5) -0.1294(4)
H13B H 0.6948(11) -0.1536(6) 0.0580(8)
H13B_2 H 0.6948(11) 0.8464(6) 0.0580(8)
H14B H 0.7442(11) -0.1421(6) -0.0274(8)
H14B_2 H 0.7442(11) 0.8579(6) -0.0274(8)
H15B H 0.5326(8) -0.2799(6) 0.0186(9)
H15B_2 H 0.5326(8) 0.7201(6) 0.0186(9)
H16B H 0.5806(8) -0.2772(6) -0.0661(9)
H16B_2 H 0.5806(8) 0.7228(6) -0.0661(9)
H17B H 0.5262(7) -0.0940(5) 0.0590(6)
H17B_2 H 0.5262(7) 0.9060(5) 0.0590(6)
H18B H 0.5832(8) -0.1326(5) -0.1677(6)
H18B_2 H 0.5832(8) 0.8674(5) -0.1677(6)
H19B H 0.5246(7) 0.0119(5) -0.1601(5)
H19B_2 H 0.5246(7) 1.0119(5) -0.1601(5)
Cl1 Cl 0.6667 0.3333 0.2766(3)
O2 O 0.5873(4) 0.2220(4) 0.3048(4)
O3 O 0.6667 0.3333 0.1900(5)
O2A O 0.7780(4) 0.3653(6) 0.3048(4)
O2B O 0.6347(6) 0.4127(4) 0.3048(4)
Cl2 Cl 0.3088(2) 0.3431(3) 0.2211(3)
O4 O 0.249(1) 0.274(1) 0.1557(9)
O5 O 0.395(2) 0.315(2) 0.2410(13)
O6 O 0.399(2) 0.456(1) 0.1988(12)
O7 O 0.286(2) 0.356(2) 0.3012(10)
N6 N 0.0000 0.0000 0.413(9)
C13 C 0.0000 0.0000 0.259(6)
C14 C 0.0000 0.0000 0.331(3)
N7 N 0.3333 0.6667 0.091(3)
C11 C 0.3333 0.6667 0.248(2)
C12 C 0.3333 0.6667 0.158(2)
O8? O 0.343(4) 0.311(4) 0.148(2)
O9? O 0.224(4) 0.229(2) 0.231(4)
O10? O 0.337(3) 0.355(3) 0.3022(12)
O11? O 0.275(3) 0.425(3) 0.206(3)
loop_
_geom_bond_atom_site_label_1
_geom_bond_atom_site_label_2
_geom_bond_site_symmetry_1
_geom_bond_site_symmetry_2
Zn1 O1 1_555 1_555
Cl1 O2 1_555 1_555
Cl2 O4 1_555 1_555
O1 C1 1_555 1_555
O3 Cl1 1_555 1_555
O5 Cl2 1_555 1_555
O6 Cl2 1_555 1_555
O7 Cl2 1_555 1_555
N1 Zn1 1_555 1_555
N2 Zn1 1_555 1_555
N3 Zn1 1_555 1_555
N4 C7 1_555 1_555
N5 C8 1_555 1_555
N6 C14 1_555 1_555
N7 C12 1_555 1_555
C1 O1B 1_555 1_555
C2 N1 1_555 1_555
C3 N2 1_555 1_555
C4 N2 1_555 1_555
C5 N3 1_555 1_555
C6 N2 1_555 1_555
C7 C6 1_555 1_555
C8 N4 1_555 1_555
C9 N4 1_555 1_555
C10 N5 1_555 1_555
C11 C12 1_555 1_555
C13 C14 1_555 1_555
H1 N1 1_555 1_555
H2 N1 1_555 1_555
H3 C2 1_555 1_555
H4 C2 1_555 1_555
H5 C3 1_555 1_555
H6 C3 1_555 1_555
H7 C4 1_555 1_555
H8 C4 1_555 1_555
H9 C5 1_555 1_555
H10 C5 1_555 1_555
H11 N3 1_555 1_555
H12 N3 1_555 1_555
H13 C6 1_555 1_555
H14 C6 1_555 1_555
H15 C7 1_555 1_555
H16 C7 1_555 1_555
H17 C8 1_555 1_555
H18 C9 1_555 1_555
H19 C10 1_555 1_555
Zn1B O1B 1_555 1_555
Zn1A O1A 1_555 1_555
Zn1A_2 N5 1_555 1_555
Zn1B_2 N1B 1_555 1_555
Zn1_2 N5B_2 1_555 1_555
O1A C1 1_555 1_555
O2A Cl1 1_555 1_555
O2B Cl1 1_555 1_555
N1B C2B 1_555 1_555
N1B_2 Zn1B 1_555 1_555
N1A Zn1A 1_555 1_555
N2B Zn1B_2 1_555 1_555
N2B_2 Zn1B 1_555 1_555
N2A Zn1A 1_555 1_555
N3B Zn1B_2 1_555 1_555
N3B_2 Zn1B 1_555 1_555
N3A Zn1A 1_555 1_555
N4B C7B 1_555 1_555
N4B_2 C7B_2 1_555 1_555
N5B Zn1 1_555 1_555
N5B_2 C8B_2 1_555 1_555
N5A Zn1B 1_555 1_555
N5_2 Zn1A 1_555 1_555
C2B C3B 1_555 1_555
C2B_2 N1B_2 1_555 1_555
C3B N2B 1_555 1_555
C3B_2 N2B_2 1_555 1_555
C4B N2B 1_555 1_555
C4B_2 N2B_2 1_555 1_555
C5B N3B 1_555 1_555
C5B_2 N3B_2 1_555 1_555
C6B N2B 1_555 1_555
C6B_2 N2B_2 1_555 1_555
C7B C6B 1_555 1_555
C7B_2 C6B_2 1_555 1_555
C8B N4B 1_555 1_555
C8B_2 N4B_2 1_555 1_555
C9B N4B 1_555 1_555
C9B_2 N4B_2 1_555 1_555
C10B N5B 1_555 1_555
C10B_2 N5B_2 1_555 1_555
H1B N1B 1_555 1_555
H1B_2 N1B_2 1_555 1_555
H1A N1A 1_555 1_555
H2B N1B 1_555 1_555
H2B_2 N1B_2 1_555 1_555
H2A N1A 1_555 1_555
H3B C2B 1_555 1_555
H3B_2 C2B_2 1_555 1_555
H4B C2B 1_555 1_555
H4B_2 C2B_2 1_555 1_555
H5B C3B 1_555 1_555
H5B_2 C3B_2 1_555 1_555
H6B C3B 1_555 1_555
H6B_2 C3B_2 1_555 1_555
H7B C4B 1_555 1_555
H7B_2 C4B_2 1_555 1_555
H8B C4B 1_555 1_555
H8B_2 C4B_2 1_555 1_555
H9B C5B 1_555 1_555
H9B_2 C5B_2 1_555 1_555
H10B C5B 1_555 1_555
H10B_2 C5B_2 1_555 1_555
H11B N3B 1_555 1_555
H11B_2 N3B_2 1_555 1_555
H11A N3A 1_555 1_555
H12B N3B 1_555 1_555
H12B_2 N3B_2 1_555 1_555
H12A N3A 1_555 1_555
H13B C6B 1_555 1_555
H13B_2 C6B_2 1_555 1_555
H14B C6B 1_555 1_555
H14B_2 C6B_2 1_555 1_555
H15B C7B 1_555 1_555
H15B_2 C7B_2 1_555 1_555
H16B C7B 1_555 1_555
H16B_2 C7B_2 1_555 1_555
H17B C8B 1_555 1_555
H17B_2 C8B_2 1_555 1_555
H18B C9B 1_555 1_555
H18B_2 C9B_2 1_555 1_555
H19B C10B 1_555 1_555
H19B_2 C10B_2 1_555 1_555
C2 C3 1_555 1_555
C4 C5 1_555 1_555
C9 C10 1_555 1_555
N5B C8B 1_555 1_555
C2B_2 C3B_2 1_555 1_555
C4B C5B 1_555 1_555
C4B_2 C5B_2 1_555 1_555
C9B C10B 1_555 1_555
C9B_2 C10B_2 1_555 1_555

#END
