
#######################################################################
#
#                 Cambridge Crystallographic Data Centre
#                                CCDC 
#
#######################################################################
#
# If this CIF has been generated from an entry in the Cambridge 
# Structural Database, then it will include bibliographic, chemical, 
# crystal, experimental, refinement or atomic coordinate data resulting 
# from the CCDC's data processing and validation procedures.
#
#######################################################################

data_XASCOK
_symmetry_cell_setting           hexagonal
_symmetry_space_group_name_H-M   'P 63'
_symmetry_Int_Tables_number      173
_space_group_name_Hall           'P 6c'
loop_
_symmetry_equiv_pos_site_id
_symmetry_equiv_pos_as_xyz
1 x,y,z
2 -y,x-y,z
3 -x+y,-x,z
4 -x,-y,1/2+z
5 y,-x+y,1/2+z
6 x-y,x,1/2+z
_cell_length_a                   13.668(9)
_cell_length_b                   13.668(9)
_cell_length_c                   17.200(15)
_cell_angle_alpha                90
_cell_angle_beta                 90
_cell_angle_gamma                120
_cell_volume                     2782.72
loop_
_atom_site_label
_atom_site_type_symbol
_atom_site_fract_x
_atom_site_fract_y
_atom_site_fract_z
Cu1 Cu 0.77654(3) 0.81874(3) 0.26159(3)
O1 O 0.89702(14) 0.97865(13) 0.26645(19)
N1 N 0.6902(2) 0.6460(2) 0.24047(16)
N2 N 0.8216(2) 0.7721(2) 0.36097(18)
H1 H 0.8989 0.8125 0.3660
H2 H 0.7909 0.7894 0.4027
N3 N 0.7616(2) 0.8312(2) 0.14590(16)
H3 H 0.7409 0.8845 0.1360
H4 H 0.8302 0.8544 0.1224
N4 N 0.3979(2) 0.4218(3) 0.30857(18)
N5 N 0.2124(2) 0.3474(2) 0.30559(17)
C1 C 0.7637(3) 0.6101(3) 0.2785(2)
H5 H 0.8366 0.6420 0.2505
H6 H 0.7273 0.5267 0.2775
C2 C 0.7840(3) 0.6519(3) 0.3624(2)
H7 H 0.7133 0.6106 0.3928
H8 H 0.8422 0.6391 0.3867
C3 C 0.6878(3) 0.6301(3) 0.1536(2)
H9 H 0.7584 0.6330 0.1366
H10 H 0.6235 0.5552 0.1395
C4 C 0.6760(4) 0.7211(3) 0.1131(2)
H11 H 0.6882 0.7191 0.0565
H12 H 0.5992 0.7095 0.1214
C5 C 0.5738(2) 0.5941(2) 0.2741(2)
H13 H 0.5275 0.6145 0.2410
H14 H 0.5786 0.6269 0.3263
C6 C 0.5146(3) 0.4670(3) 0.2814(2)
H15 H 0.5141 0.4335 0.2303
H16 H 0.5561 0.4458 0.3186
C7 C 0.3043(2) 0.3828(2) 0.2640(3)
H17 H 0.3050 0.3812 0.2088
C8 C 0.2492(3) 0.3658(3) 0.3813(2)
H18 H 0.2015 0.3474 0.4255
C9 C 0.3613(3) 0.4132(3) 0.3840(2)
H19 H 0.4072 0.4366 0.4294
C10 C 1.0000 1.0000 0.2670(5)
Cu1B Cu 1.04220(4) 1.22346(3) 0.26159(3)
Cu1A Cu 1.18126(3) 0.95780(4) 0.26159(3)
Cu1B_2 Cu 0.04220(4) 0.22346(3) 0.26159(3)
Cu1A_2 Cu 0.18126(3) 0.95780(4) 0.26159(3)
Cu1A_3 Cu 1.18126(3) 1.95780(4) 0.26159(3)
O1B O 1.08163(19) 1.10298(14) 0.26645(19)
O1A O 1.02135(13) 0.91837(19) 0.26645(19)
N1A N 0.3540(2) 1.0442(3) 0.24047(16)
N1B N 0.9558(3) 1.3098(2) 0.24047(16)
N1A_2 N 1.3540(2) 1.0442(3) 0.24047(16)
N2A N 0.2279(2) 1.0495(3) 0.36097(18)
N2B N 0.9505(3) 1.1784(2) 0.36097(18)
N2A_2 N 1.2279(2) 1.0495(3) 0.36097(18)
H1A H 0.1875 1.0864 0.3660
H1B H 0.9136 1.1011 0.3660
H1A_2 H 1.1875 1.0864 0.3660
H2A H 0.2106 1.0015 0.4027
H2B H 0.9985 1.2091 0.4027
H2A_2 H 1.2106 1.0015 0.4027
N3A N 0.1688(2) 0.9304(3) 0.14590(16)
N3B N 1.0696(3) 1.2384(2) 0.14590(16)
N3A_2 N 1.1688(2) 0.9304(3) 0.14590(16)
H3A H 0.1155 0.8564 0.1360
H3B H 1.1436 1.2591 0.1360
H3A_2 H 1.1155 0.8564 0.1360
H4A H 0.1456 0.9758 0.1224
H4B H 1.0242 1.1698 0.1224
H4A_2 H 1.1456 0.9758 0.1224
N4A N 0.5782(3) 0.9761(4) 0.30857(18)
N4B N 1.0239(4) 1.6021(2) 0.30857(18)
N5A N 0.6526(2) 0.8650(3) 0.30559(17)
N5B N 1.1350(3) 1.7876(2) 0.30559(17)
N5_2 N 1.2124(2) 1.3474(2) 0.30559(17)
N5B_2 N 1.1350(3) 0.7876(2) 0.30559(17)
C1A C 0.3899(3) 1.1536(4) 0.2785(2)
C1B C 0.8464(4) 1.2363(3) 0.2785(2)
H5A H 0.3580 1.1946 0.2505
H5B H 0.8054 1.1634 0.2505
H6A H 0.4733 1.2006 0.2775
H6B H 0.7994 1.2727 0.2775
C2A C 0.3481(3) 1.1321(4) 0.3624(2)
C2B C 0.8679(4) 1.2160(3) 0.3624(2)
H7A H 0.3894 1.1027 0.3928
H7B H 0.8973 1.2867 0.3928
H8A H 0.3609 1.2031 0.3867
H8B H 0.7969 1.1578 0.3867
C3A C 0.3699(3) 1.0577(4) 0.1536(2)
C3B C 0.9423(4) 1.3122(3) 0.1536(2)
H9A H 0.3670 1.1254 0.1366
H9B H 0.8746 1.2416 0.1366
H10A H 0.4448 1.0683 0.1395
H10B H 0.9317 1.3765 0.1395
C4A C 0.2789(3) 0.9549(5) 0.1131(2)
C4B C 1.0451(5) 1.3240(4) 0.1131(2)
H11A H 0.2809 0.9691 0.0565
H11B H 1.0309 1.3118 0.0565
H12A H 0.2905 0.8897 0.1214
H12B H 1.1103 1.4008 0.1214
C5A C 0.4059(2) 0.9797(3) 0.2741(2)
C5B C 1.0203(3) 1.4262(2) 0.2741(2)
H13A H 0.3855 0.9130 0.2410
H13B H 1.0870 1.4725 0.2410
H14A H 0.3731 0.9517 0.3263
H14B H 1.0483 1.4214 0.3263
C6A C 0.5330(3) 1.0476(4) 0.2814(2)
C6B C 0.9524(4) 1.4854(3) 0.2814(2)
H15A H 0.5665 1.0806 0.2303
H15B H 0.9194 1.4859 0.2303
H16A H 0.5542 1.1103 0.3186
H16B H 0.8897 1.4439 0.3186
C7A C 0.6172(2) 0.9215(3) 0.2640(3)
C7B C 1.0785(3) 1.6957(2) 0.2640(3)
H17A H 0.6188 0.9238 0.2088
H17B H 1.0762 1.6950 0.2088
C8A C 0.6342(3) 0.8834(4) 0.3813(2)
C8B C 1.1166(4) 1.7508(3) 0.3813(2)
H18A H 0.6526 0.8541 0.4255
H18B H 1.1459 1.7985 0.4255
C9A C 0.5868(3) 0.9481(4) 0.3840(2)
C9B C 1.0519(4) 1.6387(3) 0.3840(2)
H19A H 0.5634 0.9706 0.4294
H19B H 1.0294 1.5928 0.4294
Cl1 Cl 1.0000 1.0000 0.50431(13)
O2 O 1.0000 1.0000 0.5887(2)
O3 O 1.0230(2) 0.9141(2) 0.47651(17)
O3A O 1.0859(2) 1.1089(3) 0.47651(17)
O3B O 0.8911(3) 0.9770(2) 0.47651(17)
Cl2 Cl 0.61050(9) 0.63396(10) 0.54838(7)
O4 O 0.5729(3) 0.6411(3) 0.47481(19)
O5 O 0.5591(4) 0.6634(3) 0.6066(2)
O6 O 0.638(3) 0.560(2) 0.5785(7)
O8 O 0.7104(11) 0.7445(14) 0.5534(9)
N6 N 0.6667 0.3333 0.0092(15)
C11 C 0.6667 0.3333 0.0753(10)
C12 C 0.6667 0.3333 0.1732(8)
H20 H 0.6999 0.2888 0.1922
H20A H 0.7112 0.4111 0.1922
H20B H 0.5889 0.3001 0.1922
N7 N 0.6667 0.3333 0.3855(9)
C13 C 0.6667 0.3333 0.4495(11)
C14 C 0.6667 0.3333 0.5323(9)
H23 H 0.6757 0.4050 0.5513
H23A H 0.5950 0.2707 0.5513
H23B H 0.7293 0.3243 0.5513
N8 N 0.3333 0.6667 0.3874(12)
C15 C 0.3333 0.6667 0.3206(12)
C16 C 0.3333 0.6667 0.2316(9)
H26 H 0.3951 0.6562 0.2126
H26A H 0.3438 0.7389 0.2126
H26B H 0.2611 0.6049 0.2126
O7? O 0.5505(11) 0.5104(7) 0.5538(9)
O9? O 0.7240(6) 0.658(2) 0.5477(6)
H21? H 0.5889 0.3001 0.1922
H22? H 0.7112 0.4111 0.1922
H24? H 0.7293 0.3243 0.5513
H25? H 0.5950 0.2707 0.5513
H27? H 0.3438 0.7389 0.2126
H28? H 0.2611 0.6049 0.2126
loop_
_geom_bond_atom_site_label_1
_geom_bond_atom_site_label_2
_geom_bond_site_symmetry_1
_geom_bond_site_symmetry_2
Cu1 O1 1_555 1_555
Cl1 O2 1_555 1_555
Cl2 O4 1_555 1_555
O1 C10 1_555 1_555
O3 Cl1 1_555 1_555
O5 Cl2 1_555 1_555
O6 Cl2 1_555 1_555
O8 Cl2 1_555 1_555
N1 Cu1 1_555 1_555
N2 Cu1 1_555 1_555
H1 N2 1_555 1_555
H2 N2 1_555 1_555
N3 Cu1 1_555 1_555
H3 N3 1_555 1_555
H4 N3 1_555 1_555
N4 C6 1_555 1_555
N5 C7 1_555 1_555
N6 C11 1_555 1_555
N7 C13 1_555 1_555
N8 C15 1_555 1_555
C1 N1 1_555 1_555
H5 C1 1_555 1_555
H6 C1 1_555 1_555
C2 N2 1_555 1_555
H7 C2 1_555 1_555
H8 C2 1_555 1_555
C3 N1 1_555 1_555
H9 C3 1_555 1_555
H10 C3 1_555 1_555
C4 N3 1_555 1_555
H11 C4 1_555 1_555
H12 C4 1_555 1_555
C5 N1 1_555 1_555
H13 C5 1_555 1_555
H14 C5 1_555 1_555
C6 C5 1_555 1_555
H15 C6 1_555 1_555
H16 C6 1_555 1_555
C7 N4 1_555 1_555
H17 C7 1_555 1_555
C8 N5 1_555 1_555
H18 C8 1_555 1_555
C9 N4 1_555 1_555
H19 C9 1_555 1_555
C10 O1B 1_555 1_555
C11 C12 1_555 1_555
C12 H20 1_555 1_555
C13 C14 1_555 1_555
C14 H23 1_555 1_555
C15 C16 1_555 1_555
C16 H26 1_555 1_555
Cu1B O1B 1_555 1_555
Cu1A O1A 1_555 1_555
Cu1B_2 N5 1_555 1_555
Cu1A_2 N1A 1_555 1_555
Cu1A_3 N5B 1_555 1_555
O1A C10 1_555 1_555
O3A Cl1 1_555 1_555
O3B Cl1 1_555 1_555
N1A C1A 1_555 1_555
N1B Cu1B 1_555 1_555
N1A_2 Cu1A 1_555 1_555
N2A Cu1A_2 1_555 1_555
N2B Cu1B 1_555 1_555
N2A_2 Cu1A 1_555 1_555
H1A N2A 1_555 1_555
H1B N2B 1_555 1_555
H1A_2 N2A_2 1_555 1_555
H2A N2A 1_555 1_555
H2B N2B 1_555 1_555
H2A_2 N2A_2 1_555 1_555
N3A Cu1A_2 1_555 1_555
N3B Cu1B 1_555 1_555
N3A_2 Cu1A 1_555 1_555
H3A N3A 1_555 1_555
H3B N3B 1_555 1_555
H3A_2 N3A_2 1_555 1_555
H4A N3A 1_555 1_555
H4B N3B 1_555 1_555
H4A_2 N3A_2 1_555 1_555
N4A C6A 1_555 1_555
N4B C6B 1_555 1_555
N5A Cu1 1_555 1_555
N5B C7B 1_555 1_555
N5_2 Cu1B 1_555 1_555
N5B_2 Cu1A 1_555 1_555
C1A H5A 1_555 1_555
C1B N1B 1_555 1_555
H5B C1B 1_555 1_555
H6A C1A 1_555 1_555
H6B C1B 1_555 1_555
C2A N2A 1_555 1_555
C2B N2B 1_555 1_555
H7A C2A 1_555 1_555
H7B C2B 1_555 1_555
H8A C2A 1_555 1_555
H8B C2B 1_555 1_555
C3A N1A 1_555 1_555
C3B N1B 1_555 1_555
H9A C3A 1_555 1_555
H9B C3B 1_555 1_555
H10A C3A 1_555 1_555
H10B C3B 1_555 1_555
C4A N3A 1_555 1_555
C4B N3B 1_555 1_555
H11A C4A 1_555 1_555
H11B C4B 1_555 1_555
H12A C4A 1_555 1_555
H12B C4B 1_555 1_555
C5A N1A 1_555 1_555
C5B N1B 1_555 1_555
H13A C5A 1_555 1_555
H13B C5B 1_555 1_555
H14A C5A 1_555 1_555
H14B C5B 1_555 1_555
C6A C5A 1_555 1_555
C6B C5B 1_555 1_555
H15A C6A 1_555 1_555
H15B C6B 1_555 1_555
H16A C6A 1_555 1_555
H16B C6B 1_555 1_555
C7A N4A 1_555 1_555
C7B N4B 1_555 1_555
H17A C7A 1_555 1_555
H17B C7B 1_555 1_555
C8A N5A 1_555 1_555
C8B N5B 1_555 1_555
H18A C8A 1_555 1_555
H18B C8B 1_555 1_555
C9A N4A 1_555 1_555
C9B N4B 1_555 1_555
H19A C9A 1_555 1_555
H19B C9B 1_555 1_555
H20A C12 1_555 1_555
H20B C12 1_555 1_555
H23A C14 1_555 1_555
H23B C14 1_555 1_555
H26A C16 1_555 1_555
H26B C16 1_555 1_555
C1 C2 1_555 1_555
C3 C4 1_555 1_555
C8 C9 1_555 1_555
N5A C7A 1_555 1_555
C1A C2A 1_555 1_555
C1B C2B 1_555 1_555
C3A C4A 1_555 1_555
C3B C4B 1_555 1_555
C8A C9A 1_555 1_555
C8B C9B 1_555 1_555

#END
