
#######################################################################
#
#                 Cambridge Crystallographic Data Centre
#                                CCDC 
#
#######################################################################
#
# If this CIF has been generated from an entry in the Cambridge 
# Structural Database, then it will include bibliographic, chemical, 
# crystal, experimental, refinement or atomic coordinate data resulting 
# from the CCDC's data processing and validation procedures.
#
#######################################################################

data_XASDAX
_symmetry_cell_setting           triclinic
_symmetry_space_group_name_H-M   'P -1'
_symmetry_Int_Tables_number      2
_space_group_name_Hall           '-P 1'
loop_
_symmetry_equiv_pos_site_id
_symmetry_equiv_pos_as_xyz
1 x,y,z
2 -x,-y,-z
_cell_length_a                   10.805(5)
_cell_length_b                   11.222(5)
_cell_length_c                   18.333(6)
_cell_angle_alpha                75.22(1)
_cell_angle_beta                 72.94(1)
_cell_angle_gamma                86.46(2)
_cell_volume                     2054.61
loop_
_atom_site_label
_atom_site_type_symbol
_atom_site_fract_x
_atom_site_fract_y
_atom_site_fract_z
Zn1 Zn 0.71673(9) -0.94128(9) 0.73418(6)
Zn2 Zn 0.68747(9) -0.45216(9) 0.23961(6)
N1 N 0.8517(7) -0.8848(7) 0.7773(4)
N2 N 0.8459(6) -0.7944(6) 0.6176(4)
N3 N 0.7823(7) -1.0527(7) 0.6586(4)
N4 N 0.7834(6) -0.5335(6) 0.4575(4)
N5 N 0.7119(7) -0.4728(7) 0.3534(4)
N6 N 0.5756(7) -1.6082(7) 1.2719(5)
N7 N 0.6712(6) -1.4645(6) 1.1164(4)
N8 N 0.8789(6) -1.4624(7) 1.1832(4)
N9 N 0.5992(7) -1.2353(7) 0.9427(4)
N10 N 0.6351(7) -1.0775(7) 0.8388(4)
N11 N 0.3969(6) -0.7140(6) 0.7605(4)
N12 N 0.5521(7) -0.8505(6) 0.7362(4)
C1 C 0.9662(9) -0.8231(9) 0.7172(5)
C2 C 0.9274(8) -0.7340(8) 0.6495(5)
C3 C 0.9193(8) -0.8780(8) 0.5698(5)
C4 C 0.8299(8) -0.9824(8) 0.5755(5)
C5 C 0.7738(7) -0.7053(8) 0.5723(5)
C6 C 0.8579(8) -0.6015(8) 0.5085(5)
C7 C 0.7938(8) -0.5435(9) 0.3845(5)
C8 C 0.6868(9) -0.4524(9) 0.4741(6)
C9 C 0.6433(9) -0.4155(9) 0.4095(5)
C10 C 0.5821(8) -1.6630(8) 1.2063(5)
C11 C 0.5722(8) -1.5614(8) 1.1362(5)
C12 C 0.8030(7) -1.5048(9) 1.0783(5)
C13 C 0.9042(7) -1.4364(9) 1.0960(5)
C14 C 0.6386(7) -1.3454(8) 1.0669(5)
C15 C 0.6108(9) -1.3583(8) 0.9925(5)
C16 C 0.6712(8) -1.1901(8) 0.8679(5)
C17 C 0.5126(8) -1.1448(9) 0.9627(6)
C18 C 0.5357(8) -1.0502(9) 0.8992(5)
C19 C 0.5206(8) -0.7387(7) 0.7494(4)
C20 C 0.3424(8) -0.8148(8) 0.7522(5)
C21 C 0.4355(8) -0.8978(9) 0.7379(5)
H1 H 0.8105(7) -0.8267(7) 0.8078(4)
H2 H 0.8793(7) -0.9559(7) 0.8113(4)
H3 H 1.0113(9) -0.7780(9) 0.7405(5)
H4 H 1.0226(9) -0.8856(9) 0.6974(5)
H5 H 1.0053(8) -0.7038(8) 0.6073(5)
H6 H 0.8810(8) -0.6651(8) 0.6673(5)
H7 H 0.9558(8) -0.8327(8) 0.5155(5)
H8 H 0.9884(8) -0.9149(8) 0.5915(5)
H9 H 0.8745(8) -1.0362(8) 0.5425(5)
H10 H 0.7571(8) -0.9452(8) 0.5577(5)
H11 H 0.8532(7) -1.1017(7) 0.6724(4)
H12 H 0.7118(7) -1.1069(7) 0.6642(4)
H13 H 0.7320(7) -0.7487(8) 0.5463(5)
H14 H 0.7086(7) -0.6687(8) 0.6087(5)
H15 H 0.9336(8) -0.6362(8) 0.4777(5)
H16 H 0.8851(8) -0.5458(8) 0.5337(5)
H17 H 0.8556(8) -0.5953(9) 0.3571(5)
H18 H 0.6558(9) -0.4265(9) 0.5229(6)
H19 H 0.5746(9) -0.3573(9) 0.4034(5)
H20 H 0.5997(7) -1.6673(7) 1.3141(5)
H21 H 0.4863(7) -1.5847(7) 1.2908(5)
H22 H 0.6643(8) -1.7047(8) 1.1944(5)
H23 H 0.5118(8) -1.7224(8) 1.2221(5)
H24 H 0.4866(8) -1.5257(8) 1.1473(5)
H25 H 0.5861(8) -1.5971(8) 1.0916(5)
H26 H 0.8102(7) -1.5916(9) 1.1023(5)
H27 H 0.8176(7) -1.4929(9) 1.0221(5)
H28 H 0.8935(7) -1.3490(9) 1.0750(5)
H29 H 0.9915(7) -1.4599(9) 1.0717(5)
H30 H 0.9264(6) -1.4039(7) 1.1960(4)
H31 H 0.9083(6) -1.5451(7) 1.2013(4)
H32 H 0.5617(7) -1.3133(8) 1.0984(5)
H33 H 0.7098(7) -1.2870(8) 1.0514(5)
H34 H 0.5308(9) -1.4048(8) 1.0067(5)
H35 H 0.6816(9) -1.4019(8) 0.9644(5)
H36 H 0.7409(8) -1.2332(8) 0.8385(5)
H37 H 0.4465(8) -1.1497(9) 1.0125(6)
H38 H 0.4907(8) -0.9724(9) 0.8958(5)
H39 H 0.5836(8) -0.6805(7) 0.7490(4)
H40 H 0.2512(8) -0.8261(8) 0.7586(5)
H41 H 0.4233(8) -0.9778(9) 0.7297(5)
Zn2_2 Zn 0.68747(9) -1.45216(9) 1.23961(6)
Zn2A Zn 0.31253(9) -0.54784(9) 0.76039(6)
N6_2 N 0.5756(7) -0.6082(7) 0.2719(5)
N7_2 N 0.6712(6) -0.4645(6) 0.1164(4)
N8_2 N 0.8789(6) -0.4624(7) 0.1832(4)
N11A N 0.6031(6) -0.2860(6) 0.2395(4)
H20_2 H 0.5997(7) -0.6673(7) 0.3141(5)
H21_2 H 0.4863(7) -0.5847(7) 0.2908(5)
H30_2 H 0.9264(6) -0.4039(7) 0.1960(4)
H31_2 H 0.9083(6) -0.5451(7) 0.2013(4)
Cl1 Cl 0.7775(2) -0.6399(2) 0.8893(1)
O1 O 0.6891(6) -0.6796(8) 0.8554(5)
O2 O 0.8928(6) -0.7113(7) 0.8733(4)
O3 O 0.7212(7) -0.6652(7) 0.9727(4)
O4 O 0.8086(7) -0.5115(7) 0.8583(4)
Cl2 Cl 0.7909(2) -0.3800(2) 0.65544(13)
O5 O 0.7009(6) -0.4711(6) 0.6569(4)
O6 O 0.9060(6) -0.4403(6) 0.6678(4)
O7 O 0.7313(6) -0.3180(6) 0.7161(4)
O8 O 0.8224(7) -0.2934(6) 0.5802(4)
Cl3 Cl 1.1075(2) -1.1517(2) 0.7117(2)
O9 O 1.1921(7) -1.0653(7) 0.7190(5)
O10 O 0.9782(7) -1.1415(7) 0.7620(5)
O11 O 1.1519(7) -1.2723(6) 0.7348(4)
O12 O 1.1030(8) -1.1288(8) 0.6320(5)
O13 O 0.057(2) 0.276(2) 0.0830(10)
N13 N 0.834(1) -1.049(2) 0.9787(9)
C22 C 0.8298(13) -0.9119(13) 1.0775(8)
C23 C 0.827(1) -0.989(2) 1.0231(9)
H42 H 0.8855(13) -0.9496(13) 1.1098(8)
H43 H 0.8640(13) -0.8309(13) 1.0464(8)
H44 H 0.7434(13) -0.9040(13) 1.1111(8)
N14 N 0.522(3) -0.135(3) 0.596(2)
C24 C 0.6713(12) -0.1133(11) 0.4517(7)
C25 C 0.584(3) -0.134(3) 0.533(2)
N15? N 0.455(3) -0.211(3) 0.551(2)
C26? C 0.550(3) -0.167(2) 0.504(1)
loop_
_geom_bond_atom_site_label_1
_geom_bond_atom_site_label_2
_geom_bond_site_symmetry_1
_geom_bond_site_symmetry_2
Zn1 N1 1_555 1_555
Zn2 N5 1_555 1_555
N1 C1 1_555 1_555
N2 Zn1 1_555 1_555
N3 Zn1 1_555 1_555
N4 C6 1_555 1_555
N5 C7 1_555 1_555
N6 C10 1_555 1_555
N7 C11 1_555 1_555
N8 C13 1_555 1_555
N9 C15 1_555 1_555
N10 Zn1 1_555 1_555
N11 C19 1_555 1_555
N12 Zn1 1_555 1_555
C1 C2 1_555 1_555
C2 N2 1_555 1_555
C3 N2 1_555 1_555
C4 N3 1_555 1_555
C5 N2 1_555 1_555
C6 C5 1_555 1_555
C7 N4 1_555 1_555
C8 N4 1_555 1_555
C9 N5 1_555 1_555
C10 C11 1_555 1_555
C11 H24 1_555 1_555
C12 N7 1_555 1_555
C13 C12 1_555 1_555
C14 N7 1_555 1_555
C15 C14 1_555 1_555
C16 N9 1_555 1_555
C17 N9 1_555 1_555
C18 N10 1_555 1_555
C19 N12 1_555 1_555
C20 N11 1_555 1_555
C21 N12 1_555 1_555
H1 N1 1_555 1_555
H2 N1 1_555 1_555
H3 C1 1_555 1_555
H4 C1 1_555 1_555
H5 C2 1_555 1_555
H6 C2 1_555 1_555
H7 C3 1_555 1_555
H8 C3 1_555 1_555
H9 C4 1_555 1_555
H10 C4 1_555 1_555
H11 N3 1_555 1_555
H12 N3 1_555 1_555
H13 C5 1_555 1_555
H14 C5 1_555 1_555
H15 C6 1_555 1_555
H16 C6 1_555 1_555
H17 C7 1_555 1_555
H18 C8 1_555 1_555
H19 C9 1_555 1_555
H20 N6 1_555 1_555
H21 N6 1_555 1_555
H22 C10 1_555 1_555
H23 C10 1_555 1_555
H25 C11 1_555 1_555
H26 C12 1_555 1_555
H27 C12 1_555 1_555
H28 C13 1_555 1_555
H29 C13 1_555 1_555
H30 N8 1_555 1_555
H31 N8 1_555 1_555
H32 C14 1_555 1_555
H33 C14 1_555 1_555
H34 C15 1_555 1_555
H35 C15 1_555 1_555
H36 C16 1_555 1_555
H37 C17 1_555 1_555
H38 C18 1_555 1_555
H39 C19 1_555 1_555
H40 C20 1_555 1_555
H41 C21 1_555 1_555
Cl1 O1 1_555 1_555
O2 Cl1 1_555 1_555
O3 Cl1 1_555 1_555
O4 Cl1 1_555 1_555
Cl2 O5 1_555 1_555
O6 Cl2 1_555 1_555
O7 Cl2 1_555 1_555
O8 Cl2 1_555 1_555
Cl3 O9 1_555 1_555
O10 Cl3 1_555 1_555
O11 Cl3 1_555 1_555
O12 Cl3 1_555 1_555
N13 C23 1_555 1_555
C22 C23 1_555 1_555
H42 C22 1_555 1_555
H43 C22 1_555 1_555
H44 C22 1_555 1_555
N14 C25 1_555 1_555
C24 C25 1_555 1_555
Zn2_2 N6 1_555 1_555
Zn2A N11 1_555 1_555
N6_2 Zn2 1_555 1_555
N7_2 Zn2 1_555 1_555
N8_2 Zn2 1_555 1_555
N11A Zn2 1_555 1_555
H20_2 N6_2 1_555 1_555
H21_2 N6_2 1_555 1_555
H30_2 N8_2 1_555 1_555
H31_2 N8_2 1_555 1_555
N7 Zn2_2 1_555 1_555
N8 Zn2_2 1_555 1_555
N10 C16 1_555 1_555
C3 C4 1_555 1_555
C8 C9 1_555 1_555
C17 C18 1_555 1_555
C20 C21 1_555 1_555

#END
