
#######################################################################
#
#                 Cambridge Crystallographic Data Centre
#                                CCDC 
#
#######################################################################
#
# If this CIF has been generated from an entry in the Cambridge 
# Structural Database, then it will include bibliographic, chemical, 
# crystal, experimental, refinement or atomic coordinate data resulting 
# from the CCDC's data processing and validation procedures.
#
#######################################################################

data_XASFEC01
_symmetry_cell_setting           triclinic
_symmetry_space_group_name_H-M   'P -1'
_symmetry_Int_Tables_number      2
_space_group_name_Hall           '-P 1'
loop_
_symmetry_equiv_pos_site_id
_symmetry_equiv_pos_as_xyz
1 x,y,z
2 -x,-y,-z
_cell_length_a                   9.399(3)
_cell_length_b                   9.496(3)
_cell_length_c                   10.073(4)
_cell_angle_alpha                62.11(2)
_cell_angle_beta                 89.18(2)
_cell_angle_gamma                73.00(2)
_cell_volume                     751.88
loop_
_atom_site_label
_atom_site_type_symbol
_atom_site_fract_x
_atom_site_fract_y
_atom_site_fract_z
Cu1 Cu 0.5000 0.0000 0.5000
Cu2 Cu -0.5000 0.5000 0.5000
N1 N 0.3867(4) 0.0629(5) 0.6454(4)
C1 C 0.4511(5) 0.1072(6) 0.7311(5)
H1 H 0.5468 0.1159 0.7166
C2 C 0.3828(5) 0.1404(6) 0.8392(5)
H2 H 0.4317 0.1715 0.8956
C3 C 0.2409(5) 0.1276(6) 0.8641(5)
C4 C 0.1718(6) 0.0865(6) 0.7722(5)
H3 H 0.0754 0.0791 0.7832
C5 C 0.2472(5) 0.0568(6) 0.6647(5)
H4 H 0.1988 0.0313 0.6029
C6 C 0.1675(6) 0.1558(7) 0.9876(5)
H5 H 0.2453 0.1221 1.0688
H6 H 0.1053 0.0839 1.0289
C7 C 0.0701(6) 0.3388(7) 0.9341(6)
H7 H 0.0418 0.3521 1.0215
H8 H 0.1279 0.4131 0.8813
N2 N -0.3207(5) 0.4519(5) 0.6394(5)
C8 C -0.2083(6) 0.5093(6) 0.5845(6)
H9 H -0.2140 0.5713 0.4798
C9 C -0.0829(6) 0.4817(7) 0.6749(6)
H10 H -0.0080 0.5267 0.6310
C10 C -0.0698(6) 0.3875(6) 0.8297(6)
C11 C -0.1890(6) 0.3298(8) 0.8884(6)
H11 H -0.1857 0.2670 0.9928
C12 C -0.3119(6) 0.3666(7) 0.7904(6)
H12 H -0.3921 0.3305 0.8312
S1 S 0.69305(13) 0.32469(14) 0.35208(13)
O1 O 0.6304(4) 0.4903(4) 0.3506(4)
O2 O 0.6094(4) 0.2142(4) 0.4465(4)
O3 O 0.6764(4) 0.3585(5) 0.1949(4)
O4 O 0.8526(4) 0.2511(5) 0.4168(4)
O5 O 0.6711(4) -0.1652(4) 0.6667(4)
N1A N 0.6133(4) -0.0629(5) 0.3546(4)
C1A C 0.5489(5) -0.1072(6) 0.2689(5)
H1A H 0.4532 -0.1159 0.2834
C2A C 0.6172(5) -0.1404(6) 0.1608(5)
H2A H 0.5683 -0.1715 0.1044
C3A C 0.7591(5) -0.1276(6) 0.1359(5)
C4A C 0.8282(6) -0.0865(6) 0.2278(5)
H3A H 0.9246 -0.0791 0.2168
C5A C 0.7528(5) -0.0568(6) 0.3353(5)
H4A H 0.8012 -0.0313 0.3971
C6A C 0.8325(6) -0.1558(7) 0.0124(5)
H5A H 0.7547 -0.1221 -0.0688
H6A H 0.8947 -0.0839 -0.0289
C7A C 0.9299(6) -0.3388(7) 0.0659(6)
H7A H 0.9582 -0.3521 -0.0215
H8A H 0.8721 -0.4131 0.1187
N2A N 1.3207(5) -0.4519(5) 0.3606(5)
C8A C 1.2083(6) -0.5093(6) 0.4155(6)
H9A H 1.2140 -0.5713 0.5202
C9A C 1.0829(6) -0.4817(7) 0.3251(6)
H10A H 1.0080 -0.5267 0.3690
C10A C 1.0698(6) -0.3875(6) 0.1703(6)
C11A C 1.1890(6) -0.3298(8) 0.1116(6)
H11A H 1.1857 -0.2670 0.0072
C12A C 1.3119(6) -0.3666(7) 0.2096(6)
H12A H 1.3921 -0.3305 0.1688
S1A S 0.30695(13) -0.32469(14) 0.64792(13)
O1A O 0.3696(4) -0.4903(4) 0.6494(4)
O2A O 0.3906(4) -0.2142(4) 0.5535(4)
O3A O 0.3236(4) -0.3585(5) 0.8051(4)
O4A O 0.1474(4) -0.2511(5) 0.5832(4)
O5A O 0.3289(4) 0.1652(4) 0.3333(4)
N2A_2 N -0.6793(5) 0.5481(5) 0.3606(5)
O1_2 O -0.3696(4) 0.4903(4) 0.3506(4)
O1A_2 O -0.6304(4) 0.5097(4) 0.6494(4)
Cu2_2 Cu 0.5000 0.5000 0.5000
Cu2_3 Cu 1.5000 -0.5000 0.5000
Cu2_4 Cu 0.5000 -0.5000 0.5000
O6 O 0.9152(4) -0.0742(5) 0.6767(4)
O7 O 0.5632(5) -0.3177(5) 0.9316(4)
loop_
_geom_bond_atom_site_label_1
_geom_bond_atom_site_label_2
_geom_bond_site_symmetry_1
_geom_bond_site_symmetry_2
Cu1 N1 1_555 1_555
Cu2 N2 1_555 1_555
N1 C1 1_555 1_555
C1 H1 1_555 1_555
C2 C1 1_555 1_555
H2 C2 1_555 1_555
C3 C2 1_555 1_555
C4 C3 1_555 1_555
H3 C4 1_555 1_555
C5 N1 1_555 1_555
H4 C5 1_555 1_555
C6 C3 1_555 1_555
H5 C6 1_555 1_555
H6 C6 1_555 1_555
C7 C6 1_555 1_555
H7 C7 1_555 1_555
H8 C7 1_555 1_555
N2 C8 1_555 1_555
C8 H9 1_555 1_555
C9 C8 1_555 1_555
H10 C9 1_555 1_555
C10 C7 1_555 1_555
C11 C10 1_555 1_555
H11 C11 1_555 1_555
C12 N2 1_555 1_555
H12 C12 1_555 1_555
S1 O1 1_555 1_555
O1 Cu2_2 1_555 1_555
O2 Cu1 1_555 1_555
O3 S1 1_555 1_555
O4 S1 1_555 1_555
O5 Cu1 1_555 1_555
N1A Cu1 1_555 1_555
C1A N1A 1_555 1_555
H1A C1A 1_555 1_555
C2A C1A 1_555 1_555
H2A C2A 1_555 1_555
C3A C2A 1_555 1_555
C4A C3A 1_555 1_555
H3A C4A 1_555 1_555
C5A N1A 1_555 1_555
H4A C5A 1_555 1_555
C6A C3A 1_555 1_555
H5A C6A 1_555 1_555
H6A C6A 1_555 1_555
C7A C6A 1_555 1_555
H7A C7A 1_555 1_555
H8A C7A 1_555 1_555
N2A C8A 1_555 1_555
C8A H9A 1_555 1_555
C9A C8A 1_555 1_555
H10A C9A 1_555 1_555
C10A C7A 1_555 1_555
C11A C10A 1_555 1_555
H11A C11A 1_555 1_555
C12A N2A 1_555 1_555
H12A C12A 1_555 1_555
S1A O1A 1_555 1_555
O1A Cu2_4 1_555 1_555
O2A Cu1 1_555 1_555
O3A S1A 1_555 1_555
O4A S1A 1_555 1_555
O5A Cu1 1_555 1_555
N2A_2 Cu2 1_555 1_555
O1_2 Cu2 1_555 1_555
O1A_2 Cu2 1_555 1_555
Cu2_3 N2A 1_555 1_555
C4 C5 1_555 1_555
C9 C10 1_555 1_555
C11 C12 1_555 1_555
S1 O2 1_555 1_555
C4A C5A 1_555 1_555
C9A C10A 1_555 1_555
C11A C12A 1_555 1_555
S1A O2A 1_555 1_555

#END
