
#######################################################################
#
#                 Cambridge Crystallographic Data Centre
#                                CCDC 
#
#######################################################################
#
# If this CIF has been generated from an entry in the Cambridge 
# Structural Database, then it will include bibliographic, chemical, 
# crystal, experimental, refinement or atomic coordinate data resulting 
# from the CCDC's data processing and validation procedures.
#
#######################################################################

data_XASGUT
_symmetry_cell_setting           monoclinic
_symmetry_space_group_name_H-M   'P 21/c'
_symmetry_Int_Tables_number      14
_space_group_name_Hall           '-P 2ybc'
loop_
_symmetry_equiv_pos_site_id
_symmetry_equiv_pos_as_xyz
1 x,y,z
2 x,1/2-y,1/2+z
3 -x,-y,-z
4 -x,1/2+y,1/2-z
_cell_length_a                   15.0989(7)
_cell_length_b                   20.3404(10)
_cell_length_c                   15.1155(7)
_cell_angle_alpha                90.00
_cell_angle_beta                 97.9820(10)
_cell_angle_gamma                90.00
_cell_volume                     4597.26
loop_
_atom_site_label
_atom_site_type_symbol
_atom_site_fract_x
_atom_site_fract_y
_atom_site_fract_z
Cd1 Cd 0.36137(4) 0.13077(3) 0.72780(4)
Cd2 Cd 0.12486(4) 0.08089(3) 0.73758(4)
O1 O 0.2605(3) 0.1062(3) 0.8251(4)
O2 O 0.3740(3) 0.2331(3) 0.7898(4)
O3 O 0.3532(3) 0.0258(3) 0.6864(4)
O4 O 0.1229(3) 0.1856(3) 0.6945(4)
O5 O 0.2487(4) 0.1842(3) 0.6310(4)
O6 O 0.1301(4) -0.0127(3) 0.8161(4)
O7 O 0.2058(4) 0.0148(3) 0.6493(4)
C1 C 0.3754(5) 0.3692(4) 0.8022(6)
H1 H 0.3891 0.3517 0.7475
C2 C 0.3751(5) -0.1096(4) 0.7055(6)
H2 H 0.4220 -0.0821 0.7329
C3 C 0.3881(5) -0.1761(4) 0.7052(5)
H3 H 0.4434 -0.1939 0.7324
C4 C 0.3339(5) 0.4218(4) 0.9593(5)
H4 H 0.3182 0.4401 1.0128
C5 C 0.3948(5) 0.4339(4) 0.8228(6)
H5 H 0.4205 0.4609 0.7818
C6 C 0.3359(5) 0.3288(4) 0.8602(5)
C7 C 0.2950(5) -0.0809(4) 0.6668(5)
C8 C 0.3770(5) 0.4600(4) 0.9035(6)
C9 C 0.3134(5) 0.3572(4) 0.9378(6)
H6 H 0.2833 0.3315 0.9769
C10 C 0.2830(6) -0.0078(4) 0.6668(5)
C11 C 0.3217(5) -0.2179(4) 0.6658(5)
C12 C 0.2410(5) -0.1898(4) 0.6299(6)
H7 H 0.1935 -0.2176 0.6049
O8 O 0.2707(4) 0.2259(3) 0.8819(4)
O9 O 0.2703(4) -0.0151(3) 0.8875(4)
C13 C 0.1835(5) 0.2138(4) 0.6571(5)
C14 C 0.1925(5) -0.1153(4) 0.8594(5)
C15 C 0.3252(5) 0.2575(4) 0.8427(5)
C16 C 0.1991(6) -0.0420(4) 0.8531(5)
C17 C 0.2279(5) -0.1230(4) 0.6296(6)
H8 H 0.1720 -0.1055 0.6035
C18 C 0.2620(5) -0.1542(4) 0.8984(6)
H9 H 0.3179 -0.1349 0.9211
C19 C 0.4051(6) 0.5302(5) 0.9278(7)
H10 H 0.3798 0.5495 0.9758
C20 C 0.1124(6) -0.1464(4) 0.8252(7)
H11 H 0.0637 -0.1208 0.7974
S1 S 0.15724(16) -0.47669(12) 0.93369(19)
N1 N -0.0011(4) -0.4581(3) 0.8559(4)
C21 C 0.0747(5) -0.4266(4) 0.8800(6)
C22 C 0.0855(6) -0.5415(4) 0.9225(6)
H12 H 0.0999 -0.5848 0.9432
C23 C 0.0062(5) -0.5226(4) 0.8805(6)
H13 H -0.0425 -0.5523 0.8684
C24 C 0.0863(5) -0.3577(4) 0.8656(5)
H14 H 0.0352 -0.3337 0.8397
C25 C 0.1717(5) -0.2525(4) 0.8724(6)
C26 C 0.1029(6) -0.2135(5) 0.8313(6)
H15 H 0.0481 -0.2335 0.8067
C27 C 0.2505(5) -0.2206(4) 0.9044(7)
H16 H 0.2992 -0.2462 0.9321
C28 C 0.1623(6) -0.3241(4) 0.8853(7)
H17 H 0.2142 -0.3480 0.9093
S2 S 0.44698(15) 0.67425(14) 0.99677(16)
N2 N 0.5435(4) 0.6667(4) 0.8713(5)
C29 C 0.4890(6) 0.6327(5) 0.9122(6)
C30 C 0.5534(6) 0.7288(5) 0.9053(6)
H18 H 0.5914 0.7603 0.8833
C31 C 0.5060(6) 0.7423(5) 0.9716(6)
H19 H 0.5051 0.7836 1.0006
C32 C 0.4619(6) 0.5681(5) 0.8888(7)
H20 H 0.4863 0.5490 0.8402
S3 S 0.35460(16) -0.43981(12) 0.59943(19)
N3 N 0.5152(4) -0.4125(3) 0.6667(4)
C33 C 0.3356(5) -0.2886(4) 0.6554(5)
H21 H 0.2846 -0.3152 0.6370
C34 C 0.4369(6) -0.4978(5) 0.5985(6)
H22 H 0.4273 -0.5409 0.5749
C35 C 0.4334(5) -0.3867(4) 0.6517(5)
C36 C 0.5145(6) -0.4751(4) 0.6344(5)
H23 H 0.5675 -0.5007 0.6378
C37 C 0.4155(5) -0.3181(4) 0.6703(5)
H24 H 0.4649 -0.2919 0.6953
S4 S 0.07944(16) 0.64060(12) 0.54460(18)
N4 N -0.0301(4) 0.6228(3) 0.6569(4)
C38 C 0.1350(5) 0.3245(4) 0.7050(6)
H25 H 0.1154 0.3036 0.7551
C39 C 0.1206(5) 0.4912(4) 0.6002(6)
H26 H 0.1492 0.5134 0.5567
C40 C 0.1219(5) 0.3896(4) 0.6943(6)
H27 H 0.0964 0.4137 0.7384
C41 C -0.0437(6) 0.6846(4) 0.6232(6)
H28 H -0.0881 0.7129 0.6411
C42 C 0.1450(5) 0.4226(4) 0.6194(6)
C43 C 0.0336(5) 0.5921(4) 0.6196(5)
C44 C 0.1759(5) 0.2864(4) 0.6462(5)
C45 C 0.0612(5) 0.5247(4) 0.6392(6)
H29 H 0.0344 0.5025 0.6841
C46 C 0.0096(6) 0.7033(4) 0.5629(6)
H30 H 0.0083 0.7451 0.5348
C47 C 0.1882(5) 0.3858(4) 0.5617(6)
H31 H 0.2068 0.4067 0.5112
C48 C 0.2055(5) 0.3191(4) 0.5749(6)
H32 H 0.2377 0.2958 0.5352
H33 H 0.269(6) 0.059(5) 0.853(6)
H34 H 0.245(7) 0.162(6) 0.848(7)
N2C N 0.4565(4) 0.1667(4) 0.6287(5)
N3C N 0.4848(4) 0.0875(3) 0.8333(4)
N1C N 0.0011(4) 0.0419(3) 0.6441(4)
N4C N 0.0301(4) 0.1228(3) 0.8431(4)
Cd2C Cd -0.12486(4) -0.41911(3) 0.76242(4)
Cd1C Cd 0.63863(4) 0.63077(3) 0.77220(4)
Cd1C_2 Cd 0.63863(4) -0.36923(3) 0.77220(4)
Cd2C_2 Cd -0.12486(4) 0.58089(3) 0.76242(4)
loop_
_geom_bond_atom_site_label_1
_geom_bond_atom_site_label_2
_geom_bond_site_symmetry_1
_geom_bond_site_symmetry_2
Cd1 O1 1_555 1_555
Cd2 O1 1_555 1_555
O1 H33 1_555 1_555
O2 Cd1 1_555 1_555
O3 Cd1 1_555 1_555
O4 Cd2 1_555 1_555
O5 Cd1 1_555 1_555
O6 Cd2 1_555 1_555
O7 Cd2 1_555 1_555
C1 H1 1_555 1_555
C2 H2 1_555 1_555
C3 C2 1_555 1_555
H3 C3 1_555 1_555
C4 H4 1_555 1_555
C5 C1 1_555 1_555
H5 C5 1_555 1_555
C6 C1 1_555 1_555
C7 C2 1_555 1_555
C8 C4 1_555 1_555
C9 C4 1_555 1_555
H6 C9 1_555 1_555
C10 O3 1_555 1_555
C11 C3 1_555 1_555
C12 C11 1_555 1_555
H7 C12 1_555 1_555
O8 C15 1_555 1_555
O9 C16 1_555 1_555
C13 O4 1_555 1_555
C14 C16 1_555 1_555
C15 O2 1_555 1_555
C16 O6 1_555 1_555
C17 C7 1_555 1_555
H8 C17 1_555 1_555
C18 C14 1_555 1_555
H9 C18 1_555 1_555
C19 C8 1_555 1_555
H10 C19 1_555 1_555
C20 C14 1_555 1_555
H11 C20 1_555 1_555
S1 C21 1_555 1_555
N1 C21 1_555 1_555
C21 C24 1_555 1_555
C22 S1 1_555 1_555
H12 C22 1_555 1_555
C23 N1 1_555 1_555
H13 C23 1_555 1_555
C24 H14 1_555 1_555
C25 C26 1_555 1_555
C26 C20 1_555 1_555
H15 C26 1_555 1_555
C27 C18 1_555 1_555
H16 C27 1_555 1_555
C28 C24 1_555 1_555
H17 C28 1_555 1_555
S2 C29 1_555 1_555
N2 C29 1_555 1_555
C29 C32 1_555 1_555
C30 N2 1_555 1_555
H18 C30 1_555 1_555
C31 S2 1_555 1_555
H19 C31 1_555 1_555
C32 C19 1_555 1_555
H20 C32 1_555 1_555
S3 C34 1_555 1_555
N3 C35 1_555 1_555
C33 C11 1_555 1_555
H21 C33 1_555 1_555
C34 H22 1_555 1_555
C35 S3 1_555 1_555
C36 N3 1_555 1_555
H23 C36 1_555 1_555
C37 C33 1_555 1_555
H24 C37 1_555 1_555
S4 C43 1_555 1_555
N4 C41 1_555 1_555
C38 H25 1_555 1_555
C39 H26 1_555 1_555
C40 C38 1_555 1_555
H27 C40 1_555 1_555
C41 H28 1_555 1_555
C42 C39 1_555 1_555
C43 N4 1_555 1_555
C44 C13 1_555 1_555
C45 C39 1_555 1_555
H29 C45 1_555 1_555
C46 S4 1_555 1_555
H30 C46 1_555 1_555
C47 C42 1_555 1_555
H31 C47 1_555 1_555
C48 C44 1_555 1_555
H32 C48 1_555 1_555
H34 O1 1_555 1_555
N2C Cd1 1_555 1_555
N3C Cd1 1_555 1_555
N1C Cd2 1_555 1_555
N4C Cd2 1_555 1_555
Cd2C N1 1_555 1_555
Cd1C N2 1_555 1_555
Cd1C_2 N3 1_555 1_555
Cd2C_2 N4 1_555 1_555
O5 C13 1_555 1_555
O7 C10 1_555 1_555
C5 C8 1_555 1_555
C6 C15 1_555 1_555
C6 C9 1_555 1_555
C7 C10 1_555 1_555
C12 C17 1_555 1_555
C22 C23 1_555 1_555
C25 C27 1_555 1_555
C25 C28 1_555 1_555
C30 C31 1_555 1_555
C34 C36 1_555 1_555
C35 C37 1_555 1_555
C38 C44 1_555 1_555
C40 C42 1_555 1_555
C41 C46 1_555 1_555
C43 C45 1_555 1_555
C47 C48 1_555 1_555

#END
