
#######################################################################
#
#                 Cambridge Crystallographic Data Centre
#                                CCDC 
#
#######################################################################
#
# If this CIF has been generated from an entry in the Cambridge 
# Structural Database, then it will include bibliographic, chemical, 
# crystal, experimental, refinement or atomic coordinate data resulting 
# from the CCDC's data processing and validation procedures.
#
#######################################################################

data_XASGIH
_symmetry_cell_setting           monoclinic
_symmetry_space_group_name_H-M   'C 2/c'
_symmetry_Int_Tables_number      15
_space_group_name_Hall           '-C 2yn'
loop_
_symmetry_equiv_pos_site_id
_symmetry_equiv_pos_as_xyz
1 x,y,z
2 1/2+x,1/2+y,z
3 -x,y,1/2-z
4 1/2-x,1/2+y,1/2-z
5 -x,-y,-z
6 1/2-x,1/2-y,-z
7 x,-y,1/2+z
8 1/2+x,1/2-y,1/2+z
_cell_length_a                   27.342(4)
_cell_length_b                   13.973(4)
_cell_length_c                   22.922(3)
_cell_angle_alpha                90
_cell_angle_beta                 125.794(12)
_cell_angle_gamma                90
_cell_volume                     7103.3
loop_
_atom_site_label
_atom_site_type_symbol
_atom_site_fract_x
_atom_site_fract_y
_atom_site_fract_z
Mn1 Mn 0.28346(8) 0.02345(12) 0.71708(9)
O1 O 0.2155(4) 0.1176(5) 0.6988(4)
O2 O 0.2456(4) 0.4465(5) 0.7292(4)
O3 O 0.3395(4) -0.0964(6) 0.7341(4)
O4 O 0.2280(4) -0.0318(6) 0.6095(4)
O5 O 0.3661(4) 0.0774(6) 0.8140(4)
O6 O 0.3121(4) 0.1203(6) 0.6699(4)
N1 N 0.2112(4) 0.2098(6) 0.6848(5)
N2 N 0.2251(4) 0.3623(6) 0.6985(5)
C1 C 0.2422(5) 0.2769(7) 0.7349(6)
C2 C 0.1881(6) 0.3510(8) 0.6186(6)
C3 C 0.1630(5) 0.2481(8) 0.6109(6)
C4 C 0.1402(7) 0.4287(10) 0.5827(8)
H1 H 0.1185(35) 0.4302(55) 0.6038(43)
H2 H 0.1127(31) 0.4154(46) 0.5322(13)
H3 H 0.1590(9) 0.4896(15) 0.5894(54)
C5 C 0.2335(8) 0.3593(10) 0.6032(8)
H4 H 0.2137(9) 0.3576(89) 0.5522(8)
H5 H 0.2615(33) 0.3070(50) 0.6254(56)
H6 H 0.2549(39) 0.4187(42) 0.6221(59)
C6 C 0.1043(6) 0.2446(10) 0.6024(8)
H7 H 0.0727(10) 0.2697(67) 0.5561(22)
H8 H 0.1074(16) 0.2823(58) 0.6394(33)
H9 H 0.0952(23) 0.1795(13) 0.6062(54)
C7 C 0.1600(7) 0.1863(10) 0.5544(7)
H10 H 0.1357(40) 0.2176(37) 0.5085(13)
H11 H 0.1424(45) 0.1255(30) 0.5518(41)
H12 H 0.1999(9) 0.1766(63) 0.5672(30)
C8 C 0.2868(6) 0.2641(8) 0.8113(7)
C9 C 0.3404(6) 0.3165(9) 0.8498(7)
H13 H 0.3480(6) 0.3620(9) 0.8263(7)
C10 C 0.3821(8) 0.3008(12) 0.9223(9)
H14 H 0.4177(8) 0.3361(12) 0.9471(9)
C11 C 0.3729(9) 0.2357(15) 0.9583(8)
C12 C 0.3195(9) 0.1860(10) 0.9211(8)
H15 H 0.3117(9) 0.1426(10) 0.9455(8)
C13 C 0.2768(7) 0.1993(9) 0.8478(7)
H16 H 0.2413(7) 0.1638(9) 0.8235(7)
C14 C 0.4203(9) 0.2197(16) 1.0364(8)
H17 H 0.4262(55) 0.2775(39) 1.0624(14)
H18 H 0.4574(22) 0.202(12) 1.0436(13)
H19 H 0.4078(36) 0.1694(84) 1.0535(22)
C15 C 0.3429(6) -0.1313(10) 0.6864(7)
C16 C 0.3018(7) -0.1236(10) 0.6126(8)
H20 H 0.3111(7) -0.1528(10) 0.5837(8)
C17 C 0.2487(6) -0.0755(9) 0.5801(7)
C18 C 0.4118(25) -0.1627(44) 0.7139(17)
C19 C 0.2079(10) -0.0678(14) 0.5001(9)
C20 C 0.4131(7) 0.1043(10) 0.8205(8)
C21 C 0.4165(7) 0.1366(10) 0.7683(8)
H21 H 0.4536(7) 0.1573(10) 0.7802(8)
C22 C 0.3655(7) 0.1408(10) 0.6948(8)
C23 C 0.4698(8) 0.0993(15) 0.8945(9)
C24 C 0.3750(11) 0.1701(21) 0.6395(14)
F1 F 0.4459(7) -0.1660(25) 0.7777(12)
F2 F 0.4129(9) -0.2176(19) 0.6784(8)
F3 F 0.3956(14) -0.2702(21) 0.7437(19)
F4 F 0.2171(9) -0.0031(16) 0.4740(6)
F5 F 0.1499(6) -0.0643(13) 0.4708(6)
F6 F 0.2065(9) -0.1447(12) 0.4676(7)
F7 F 0.5016(7) 0.0299(13) 0.9045(7)
F8 F 0.5049(6) 0.1754(12) 0.9128(6)
F9 F 0.4644(4) 0.0984(10) 0.9456(5)
F10 F 0.4273(6) 0.1967(14) 0.6632(7)
F11 F 0.3354(8) 0.2293(16) 0.5942(10)
F12 F 0.3703(11) 0.0981(15) 0.5997(11)
O2C O 0.2544(4) -0.0535(5) 0.7708(4)
Mn1C Mn 0.21654(8) 0.52345(12) 0.78292(9)
C25 C 0.4588(31) -0.5821(42) 0.8285(31)
Cl1 Cl 0.4022(25) -0.4901(36) 0.7882(29)
Cl2 Cl 0.4936(21) -0.5133(31) 0.9077(25)
Cl3 Cl 0.4875(37) -0.5082(54) 0.7937(41)
loop_
_geom_bond_atom_site_label_1
_geom_bond_atom_site_label_2
_geom_bond_site_symmetry_1
_geom_bond_site_symmetry_2
Mn1 O1 1_555 1_555
O1 N1 1_555 1_555
O2 N2 1_555 1_555
O3 Mn1 1_555 1_555
O4 Mn1 1_555 1_555
O5 Mn1 1_555 1_555
O6 Mn1 1_555 1_555
N1 C1 1_555 1_555
N2 C1 1_555 1_555
C1 C8 1_555 1_555
C2 N2 1_555 1_555
C3 N1 1_555 1_555
C4 C2 1_555 1_555
H1 C4 1_555 1_555
H2 C4 1_555 1_555
H3 C4 1_555 1_555
C5 C2 1_555 1_555
H4 C5 1_555 1_555
H5 C5 1_555 1_555
H6 C5 1_555 1_555
C6 C3 1_555 1_555
H7 C6 1_555 1_555
H8 C6 1_555 1_555
H9 C6 1_555 1_555
C7 C3 1_555 1_555
H10 C7 1_555 1_555
H11 C7 1_555 1_555
H12 C7 1_555 1_555
C8 C9 1_555 1_555
C9 H13 1_555 1_555
C10 C9 1_555 1_555
H14 C10 1_555 1_555
C11 C10 1_555 1_555
C12 C11 1_555 1_555
H15 C12 1_555 1_555
C13 C8 1_555 1_555
H16 C13 1_555 1_555
C14 C11 1_555 1_555
H17 C14 1_555 1_555
H18 C14 1_555 1_555
H19 C14 1_555 1_555
C15 O3 1_555 1_555
C16 C15 1_555 1_555
H20 C16 1_555 1_555
C17 O4 1_555 1_555
C18 C15 1_555 1_555
C19 C17 1_555 1_555
C20 O5 1_555 1_555
C21 C20 1_555 1_555
H21 C21 1_555 1_555
C22 O6 1_555 1_555
C23 C20 1_555 1_555
C24 C22 1_555 1_555
F1 C18 1_555 1_555
F2 C18 1_555 1_555
F3 C18 1_555 1_555
F4 C19 1_555 1_555
F5 C19 1_555 1_555
F6 C19 1_555 1_555
F7 C23 1_555 1_555
F8 C23 1_555 1_555
F9 C23 1_555 1_555
F10 C24 1_555 1_555
F11 C24 1_555 1_555
F12 C24 1_555 1_555
C25 Cl1 1_555 1_555
Cl2 C25 1_555 1_555
Cl3 C25 1_555 1_555
O2C Mn1 1_555 1_555
Mn1C O2 1_555 1_555
C2 C3 1_555 1_555
C12 C13 1_555 1_555
C16 C17 1_555 1_555
C21 C22 1_555 1_555

#END
