
#######################################################################
#
#                 Cambridge Crystallographic Data Centre
#                                CCDC 
#
#######################################################################
#
# If this CIF has been generated from an entry in the Cambridge 
# Structural Database, then it will include bibliographic, chemical, 
# crystal, experimental, refinement or atomic coordinate data resulting 
# from the CCDC's data processing and validation procedures.
#
#######################################################################

data_XASGED
_symmetry_cell_setting           trigonal
_symmetry_space_group_name_H-M   'P 32'
_symmetry_Int_Tables_number      145
_space_group_name_Hall           'P 32'
loop_
_symmetry_equiv_pos_site_id
_symmetry_equiv_pos_as_xyz
1 x,y,z
2 -y,x-y,2/3+z
3 -x+y,-x,1/3+z
_cell_length_a                   11.2490(10)
_cell_length_b                   11.2490(10)
_cell_length_c                   20.307(6)
_cell_angle_alpha                90
_cell_angle_beta                 90
_cell_angle_gamma                120
_cell_volume                     2225.38
loop_
_atom_site_label
_atom_site_type_symbol
_atom_site_fract_x
_atom_site_fract_y
_atom_site_fract_z
Co1 Co 0.43852(7) 0.26286(8) -0.53194(3)
O1 O 0.5749(4) 0.4389(4) -0.4787(2)
O2 O 0.5105(5) 0.1496(5) -0.4880(2)
O3 O 0.3527(4) 0.3796(5) -0.5538(2)
O4 O 0.7569(4) 0.4199(4) -0.2778(2)
O5 O 0.3161(5) 0.0988(5) -0.5922(2)
N1 N 0.6612(5) 0.4487(5) -0.4342(2)
N2 N 0.7474(5) 0.4412(5) -0.3398(2)
O6 O 0.2850(5) 0.1700(5) -0.4596(2)
C1 C 0.4425(8) 0.0199(8) -0.4875(3)
C2 C 0.3377(8) -0.0664(7) -0.5280(3)
H1 H 0.3009(8) -0.1603(7) -0.5225(3)
C3 C 0.2830(7) -0.0221(7) -0.5769(3)
C4 C 0.4907(12) -0.0419(10) -0.4322(4)
C5 C 0.1670(9) -0.1311(8) -0.6181(5)
C6 C 0.1812(7) 0.1794(7) -0.4561(3)
C7 C 0.1571(8) 0.2738(10) -0.4880(5)
H2 H 0.0765(8) 0.2742(10) -0.4783(5)
C8 C 0.2451(7) 0.3672(8) -0.5332(3)
C9 C 0.0654(10) 0.0741(9) -0.4119(5)
C10 C 0.2092(13) 0.4723(15) -0.5605(7)
C11 C 0.8100(7) 0.5105(9) -0.4494(3)
C12 C 0.8553(7) 0.4592(8) -0.3883(3)
C13 C 0.6341(6) 0.4251(6) -0.3683(3)
C14 C 0.8694(9) 0.6645(9) -0.4488(4)
H3 H 0.9649(20) 0.7089(10) -0.4601(35)
H4 H 0.8593(67) 0.6931(13) -0.4056(11)
H5 H 0.8215(50) 0.6890(12) -0.4802(26)
C15 C 0.8315(10) 0.4627(13) -0.5143(4)
H6 H 0.9277(12) 0.4974(79) -0.5211(20)
H7 H 0.7967(84) 0.4955(77) -0.5487(5)
H8 H 0.7839(77) 0.3642(13) -0.5151(16)
C16 C 0.8337(11) 0.3134(11) -0.3992(5)
H9 H 0.9054(47) 0.3188(14) -0.4268(33)
H10 H 0.7465(38) 0.2567(25) -0.4199(36)
H11 H 0.8358(83) 0.2743(34) -0.3575(6)
C17 C 0.9965(7) 0.5556(12) -0.3624(4)
H12 H 1.0632(9) 0.5706(66) -0.3956(14)
H13 H 1.0135(31) 0.5163(36) -0.3241(23)
H14 H 1.0030(26) 0.6413(29) -0.3508(36)
C18 C 0.5053(6) 0.3953(6) -0.3379(3)
C19 C 0.4424(7) 0.4684(8) -0.3540(3)
H15 H 0.4805(7) 0.5351(8) -0.3866(3)
C20 C 0.3232(9) 0.4457(10) -0.3230(4)
H16 H 0.2830(9) 0.4979(10) -0.3339(4)
C21 C 0.2648(8) 0.3447(12) -0.2757(4)
C22 C 0.3251(8) 0.2684(11) -0.2611(4)
H17 H 0.2842(8) 0.1990(11) -0.2299(4)
C23 C 0.4448(7) 0.2907(9) -0.2912(3)
H18 H 0.4840(7) 0.2374(9) -0.2806(3)
C24 C 0.1339(10) 0.3171(15) -0.2399(6)
H19 H 0.0561(15) 0.2412(68) -0.2603(33)
H20 H 0.1244(55) 0.3971(38) -0.2422(43)
H21 H 0.1392(48) 0.296(11) -0.1946(14)
F1 F 0.4943(9) 0.0114(8) -0.3759(3)
F2 F 0.6186(8) -0.0134(9) -0.4429(3)
F3 F 0.4187(11) -0.1721(8) -0.4287(5)
F4 F 0.1530(10) -0.2515(6) -0.6145(4)
F5 F 0.1831(8) -0.0986(7) -0.6813(3)
F6 F 0.0504(6) -0.1403(10) -0.6019(4)
F7 F 0.1059(9) 0.0153(9) -0.3718(4)
F8 F 0.0101(9) 0.1307(8) -0.3764(4)
F9 F -0.0255(10) -0.0212(8) -0.4473(4)
F10 F 0.1955(17) 0.5429(13) -0.5144(6)
F11 F 0.2778(11) 0.5420(11) -0.6052(6)
F12 F 0.0804(11) 0.4138(13) -0.5797(6)
O4A O 0.5801(4) 0.3370(6) -0.6111(2)
Co1B Co 0.82434(11) 0.56148(7) -0.19861(3)
loop_
_geom_bond_atom_site_label_1
_geom_bond_atom_site_label_2
_geom_bond_site_symmetry_1
_geom_bond_site_symmetry_2
Co1 O1 1_555 1_555
O1 N1 1_555 1_555
O2 Co1 1_555 1_555
O3 Co1 1_555 1_555
O4 N2 1_555 1_555
O5 Co1 1_555 1_555
N1 C11 1_555 1_555
N2 C12 1_555 1_555
O6 Co1 1_555 1_555
C1 O2 1_555 1_555
C2 C1 1_555 1_555
H1 C2 1_555 1_555
C3 O5 1_555 1_555
C4 C1 1_555 1_555
C5 C3 1_555 1_555
C6 O6 1_555 1_555
C7 C6 1_555 1_555
H2 C7 1_555 1_555
C8 O3 1_555 1_555
C9 C6 1_555 1_555
C10 C8 1_555 1_555
C11 C12 1_555 1_555
C12 C16 1_555 1_555
C13 N1 1_555 1_555
C14 C11 1_555 1_555
H3 C14 1_555 1_555
H4 C14 1_555 1_555
H5 C14 1_555 1_555
C15 C11 1_555 1_555
H6 C15 1_555 1_555
H7 C15 1_555 1_555
H8 C15 1_555 1_555
C16 H9 1_555 1_555
H10 C16 1_555 1_555
H11 C16 1_555 1_555
C17 C12 1_555 1_555
H12 C17 1_555 1_555
H13 C17 1_555 1_555
H14 C17 1_555 1_555
C18 C13 1_555 1_555
C19 C18 1_555 1_555
H15 C19 1_555 1_555
C20 C19 1_555 1_555
H16 C20 1_555 1_555
C21 C20 1_555 1_555
C22 C21 1_555 1_555
H17 C22 1_555 1_555
C23 C18 1_555 1_555
H18 C23 1_555 1_555
C24 C21 1_555 1_555
H19 C24 1_555 1_555
H20 C24 1_555 1_555
H21 C24 1_555 1_555
F1 C4 1_555 1_555
F2 C4 1_555 1_555
F3 C4 1_555 1_555
F4 C5 1_555 1_555
F5 C5 1_555 1_555
F6 C5 1_555 1_555
F7 C9 1_555 1_555
F8 C9 1_555 1_555
F9 C9 1_555 1_555
F10 C10 1_555 1_555
F11 C10 1_555 1_555
F12 C10 1_555 1_555
O4A Co1 1_555 1_555
Co1B O4 1_555 1_555
N2 C13 1_555 1_555
C2 C3 1_555 1_555
C7 C8 1_555 1_555
C22 C23 1_555 1_555

#END
