
#######################################################################
#
#                 Cambridge Crystallographic Data Centre
#                                CCDC 
#
#######################################################################
#
# If this CIF has been generated from an entry in the Cambridge 
# Structural Database, then it will include bibliographic, chemical, 
# crystal, experimental, refinement or atomic coordinate data resulting 
# from the CCDC's data processing and validation procedures.
#
#######################################################################

data_XASHEE
_symmetry_cell_setting           monoclinic
_symmetry_space_group_name_H-M   'P 21/n'
_symmetry_Int_Tables_number      14
_space_group_name_Hall           '-P 2yn'
loop_
_symmetry_equiv_pos_site_id
_symmetry_equiv_pos_as_xyz
1 x,y,z
2 1/2-x,1/2+y,1/2-z
3 -x,-y,-z
4 1/2+x,1/2-y,1/2+z
_cell_length_a                   9.973(5)
_cell_length_b                   10.824(5)
_cell_length_c                   23.584(15)
_cell_angle_alpha                90
_cell_angle_beta                 100.23(6)
_cell_angle_gamma                90
_cell_volume                     2505.37
loop_
_atom_site_label
_atom_site_type_symbol
_atom_site_fract_x
_atom_site_fract_y
_atom_site_fract_z
Br1 Br 0.27795(13) -0.18656(11) 0.59688(4)
Br2 Br 0.09974(15) -0.75490(11) 1.10080(6)
Mn1 Mn 0.50000 0.00000 1.00000
C1 C 0.1732(11) 0.0578(8) 0.9906(4)
N1 N 0.2868(9) 0.0785(7) 1.0001(4)
N2 N 0.5167(8) 0.0905(6) 0.9273(3)
N3 N 0.4096(8) -0.1418(7) 0.9531(3)
C2 C 0.3822(10) -0.0924(8) 0.7921(4)
C3 C 0.0321(10) 0.0317(8) 0.9794(4)
C4 C 0.2982(11) -0.3954(8) 1.0453(4)
C5 C 0.3055(10) -0.2600(9) 0.8777(4)
H1 H 0.2714 -0.2857 0.8403
C6 C 0.4501(11) -0.1870(9) 0.7695(4)
H2 H 0.5151 -0.2325 0.794
N4 N -0.1072(10) 0.1019(9) 0.8830(4)
C7 C 0.4139(10) -0.0626(9) 0.8554(4)
C8 C 0.3587(10) -0.2457(9) 0.9737(4)
C9 C 0.3628(10) -0.2784(8) 1.0307(4)
C10 C 0.3817(10) -0.1494(9) 0.8937(4)
C11 C 0.3728(11) -0.5026(9) 1.0545(4)
H3 H 0.4643 -0.5022 1.0511
C12 C 0.2920(10) -0.3197(8) 0.9258(4)
H4 H 0.2479 -0.3947 0.9282
C13 C 0.3200(11) -0.1494(9) 0.6768(4)
C14 C 0.4780(10) 0.0489(9) 0.8716(4)
C15 C 0.2526(11) -0.0563(9) 0.6981(4)
H5 H 0.1856 -0.0127 0.6737
C16 C 0.3130(13) -0.6117(10) 1.0688(5)
H6 H 0.3628 -0.6848 1.0731
C17 C 0.4239(11) -0.2154(9) 0.7114(4)
H7 H 0.4734 -0.2758 0.6961
C18 C 0.5753(11) 0.2348(9) 0.8646(4)
H8 H 0.6092 0.3065 0.8506
C19 C 0.1827(12) -0.6102(9) 1.0762(4)
C20 C 0.1633(12) -0.3989(10) 1.0520(5)
H9 H 0.1113 -0.3272 1.0459
C21 C -0.0441(10) 0.0692(9) 0.9263(4)
C22 C 0.2824(11) -0.0261(8) 0.7553(4)
H10 H 0.2365 0.0383 0.7696
C23 C 0.5135(10) 0.1403(9) 0.8327(4)
H11 H 0.497 0.1353 0.7927
C24 C 0.4212(10) -0.2041(8) 1.0764(4)
C25 C 0.1049(13) -0.5045(10) 1.0671(6)
H12 H 0.0139 -0.5054 1.0713
N2B N 0.4833(8) -0.0905(6) 1.0727(3)
C14B C 0.5220(10) -0.0489(9) 1.1284(4)
C7B C 0.5861(10) 0.0626(9) 1.1446(4)
C2B C 0.6178(10) 0.0924(8) 1.2079(4)
C6B C 0.5499(11) 0.1870(9) 1.2305(4)
H2B H 0.4849 0.2325 1.206
C17B C 0.5761(11) 0.2154(9) 1.2886(4)
C13B C 0.6800(11) 0.1494(9) 1.3232(4)
Br1B Br 0.72205(13) 0.18656(11) 1.40312(4)
C15B C 0.7474(11) 0.0563(9) 1.3019(4)
H5B H 0.8144 0.0127 1.3263
C22B C 0.7176(11) 0.0261(8) 1.2447(4)
H10B H 0.7635 -0.0383 1.2304
H7B H 0.5266 0.2758 1.3039
C10B C 0.6183(10) 0.1494(9) 1.1063(4)
N3B N 0.5904(8) 0.1418(7) 1.0469(3)
C8B C 0.6413(10) 0.2457(9) 1.0263(4)
C9B C 0.6372(10) 0.2784(8) 0.9693(4)
C4B C 0.7018(11) 0.3954(8) 0.9547(4)
C11B C 0.6272(11) 0.5026(9) 0.9455(4)
H3B H 0.5357 0.5022 0.9489
C16B C 0.6870(13) 0.6117(10) 0.9312(5)
H6B H 0.6372 0.6848 0.9269
C19B C 0.8173(12) 0.6102(9) 0.9238(4)
Br2B Br 0.90026(15) 0.75490(11) 0.89920(6)
C25B C 0.8951(13) 0.5045(10) 0.9329(6)
C20B C 0.8367(12) 0.3989(10) 0.9480(5)
H9B H 0.8887 0.3272 0.9541
H12B H 0.9861 0.5054 0.9287
C24B C 0.5788(10) 0.2041(8) 0.9236(4)
C12B C 0.7080(10) 0.3197(8) 1.0742(4)
C5B C 0.6945(10) 0.2600(9) 1.1223(4)
H1B H 0.7286 0.2857 1.1597
H4B H 0.7521 0.3947 1.0718
C23B C 0.4865(10) -0.1403(9) 1.1673(4)
C18B C 0.4247(11) -0.2348(9) 1.1354(4)
H8B H 0.3908 -0.3065 1.1494
H11B H 0.503 -0.1353 1.2073
C3B C -0.0321(10) -0.0317(8) 1.0206(4)
C1B C -0.1732(11) -0.0578(8) 1.0094(4)
N1B N -0.2868(9) -0.0785(7) 0.9999(4)
C21B C 0.0441(10) -0.0692(9) 1.0737(4)
N4B N 0.1072(10) -0.1019(9) 1.1170(4)
N1B_2 N 0.7132(9) -0.0785(7) 0.9999(4)
Mn1_2 Mn -0.50000 0.00000 1.00000
Cl1 Cl 0.5407(4) -0.5793(4) 0.73183(17)
Cl2 Cl 0.7863(6) -0.4456(6) 0.78116(19)
C26 C 0.7142(16) -0.5597(16) 0.7318(6)
H13 H 0.708(14) -0.520(12) 0.695(6)
H14 H 0.767(15) -0.640(13) 0.742(6)
loop_
_geom_bond_atom_site_label_1
_geom_bond_atom_site_label_2
_geom_bond_site_symmetry_1
_geom_bond_site_symmetry_2
Br1 C13 1_555 1_555
Br2 C19 1_555 1_555
Mn1 N1 1_555 1_555
C1 N1 1_555 1_555
N2 Mn1 1_555 1_555
N3 Mn1 1_555 1_555
C2 C6 1_555 1_555
C3 C1 1_555 1_555
C4 C9 1_555 1_555
C5 H1 1_555 1_555
C6 H2 1_555 1_555
N4 C21 1_555 1_555
C7 C2 1_555 1_555
C8 N3 1_555 1_555
C9 C8 1_555 1_555
C10 N3 1_555 1_555
C11 C4 1_555 1_555
H3 C11 1_555 1_555
C12 C5 1_555 1_555
H4 C12 1_555 1_555
C13 C15 1_555 1_555
C14 N2 1_555 1_555
C15 H5 1_555 1_555
C16 C11 1_555 1_555
H6 C16 1_555 1_555
C17 C6 1_555 1_555
H7 C17 1_555 1_555
C18 H8 1_555 1_555
C19 C16 1_555 1_555
C20 C4 1_555 1_555
H9 C20 1_555 1_555
C21 C3 1_555 1_555
C22 C2 1_555 1_555
H10 C22 1_555 1_555
C23 C14 1_555 1_555
H11 C23 1_555 1_555
C24 C9 1_555 1_555
C25 C19 1_555 1_555
H12 C25 1_555 1_555
Cl1 C26 1_555 1_555
Cl2 C26 1_555 1_555
C26 H13 1_555 1_555
H14 C26 1_555 1_555
N2B Mn1 1_555 1_555
C14B N2B 1_555 1_555
C7B C14B 1_555 1_555
C2B C7B 1_555 1_555
C6B C2B 1_555 1_555
H2B C6B 1_555 1_555
C17B C6B 1_555 1_555
C13B C17B 1_555 1_555
Br1B C13B 1_555 1_555
C15B C13B 1_555 1_555
H5B C15B 1_555 1_555
C22B C2B 1_555 1_555
H10B C22B 1_555 1_555
H7B C17B 1_555 1_555
C10B C7B 1_555 1_555
N3B Mn1 1_555 1_555
C8B N3B 1_555 1_555
C9B C8B 1_555 1_555
C4B C9B 1_555 1_555
C11B C4B 1_555 1_555
H3B C11B 1_555 1_555
C16B C11B 1_555 1_555
H6B C16B 1_555 1_555
C19B C16B 1_555 1_555
Br2B C19B 1_555 1_555
C25B C19B 1_555 1_555
C20B C4B 1_555 1_555
H9B C20B 1_555 1_555
H12B C25B 1_555 1_555
C24B N2 1_555 1_555
C12B C8B 1_555 1_555
C5B C10B 1_555 1_555
H1B C5B 1_555 1_555
H4B C12B 1_555 1_555
C23B C14B 1_555 1_555
C18B C24 1_555 1_555
H8B C18B 1_555 1_555
H11B C23B 1_555 1_555
C3B C3 1_555 1_555
C1B C3B 1_555 1_555
N1B C1B 1_555 1_555
C21B C3B 1_555 1_555
N4B C21B 1_555 1_555
N1B_2 Mn1 1_555 1_555
Mn1_2 N1B 1_555 1_555
C5 C10 1_555 1_555
C7 C10 1_555 1_555
C7 C14 1_555 1_555
C8 C12 1_555 1_555
C13 C17 1_555 1_555
C15 C22 1_555 1_555
C18 C23 1_555 1_555
C18 C24B 1_555 1_555
C20 C25 1_555 1_555
C24 N2B 1_555 1_555
C15B C22B 1_555 1_555
C10B N3B 1_555 1_555
C9B C24B 1_555 1_555
C25B C20B 1_555 1_555
C12B C5B 1_555 1_555
C23B C18B 1_555 1_555

#END
