
#######################################################################
#
#                 Cambridge Crystallographic Data Centre
#                                CCDC 
#
#######################################################################
#
# If this CIF has been generated from an entry in the Cambridge 
# Structural Database, then it will include bibliographic, chemical, 
# crystal, experimental, refinement or atomic coordinate data resulting 
# from the CCDC's data processing and validation procedures.
#
#######################################################################

data_XASKAE
_symmetry_cell_setting           monoclinic
_symmetry_space_group_name_H-M   'C 2/c'
_symmetry_Int_Tables_number      15
_space_group_name_Hall           '-C 2yn'
loop_
_symmetry_equiv_pos_site_id
_symmetry_equiv_pos_as_xyz
1 x,y,z
2 1/2+x,1/2+y,z
3 -x,y,1/2-z
4 1/2-x,1/2+y,1/2-z
5 -x,-y,-z
6 1/2-x,1/2-y,-z
7 x,-y,1/2+z
8 1/2+x,1/2-y,1/2+z
_cell_length_a                   19.342(4)
_cell_length_b                   11.443(2)
_cell_length_c                   13.936(3)
_cell_angle_alpha                90
_cell_angle_beta                 97.82(3)
_cell_angle_gamma                90
_cell_volume                     3055.78
loop_
_atom_site_label
_atom_site_type_symbol
_atom_site_fract_x
_atom_site_fract_y
_atom_site_fract_z
Ni1 Ni 0.5000 0.62389(8) 0.2500
Ni2 Ni 0.2500 0.2500 0.5000
C1 C 0.3234(2) 0.4577(4) 0.4169(4)
H1 H 0.3372 0.4709 0.4825
C2 C 0.3477(2) 0.5351(4) 0.3503(4)
C3 C 0.3227(2) 0.5202(4) 0.2525(4)
C4 C 0.2779(3) 0.4266(5) 0.2271(4)
H2 H 0.2598 0.4148 0.1625
C5 C 0.2601(3) 0.3515(5) 0.2971(4)
H3 H 0.2320 0.2876 0.2779
C6 C 0.3401(2) 0.6021(4) 0.1739(3)
C7 C 0.3965(3) 0.6303(4) 0.3953(4)
C8 C 0.0975(2) 0.5232(4) 0.5074(4)
H4 H 0.1002 0.6040 0.5139
C9 C 0.1574(2) 0.4588(5) 0.5044(4)
H5 H 0.1997 0.4980 0.5066
C10 C 0.0956(2) 0.2878(4) 0.4942(4)
H6 H 0.0946 0.2066 0.4914
C11 C 0.0333(3) 0.3462(4) 0.4938(4)
H7 H -0.0084 0.3049 0.4889
C12 C 0.0332(2) 0.4675(4) 0.5007(4)
C13 C 0.4408(3) 0.8777(5) 0.2493(4)
H8 H 0.3991 0.8371 0.2489
C14 C 0.4389(3) 0.9994(5) 0.2490(5)
H9 H 0.3967 1.0385 0.2481
C15 C 0.5000 1.0614(6) 0.2500
C16 C 0.5000 1.1930(6) 0.2500
C17 C 0.4557(3) 1.2565(5) 0.1836(4)
H10 H 0.4235 1.2180 0.1389
C18 C 0.4590(3) 1.3766(5) 0.1830(4)
H11 H 0.4316 1.4170 0.1338
N1 N 0.5000 0.8166(5) 0.2500
N2 N 0.5000 1.4377(6) 0.2500
N3 N 0.1571(2) 0.3409(3) 0.4983(3)
N4 N 0.2817(2) 0.3667(4) 0.3915(3)
O1 O 0.3738(2) 0.6928(4) 0.4565(4)
O2 O 0.45763(18) 0.6344(3) 0.3749(3)
O3 O 0.28923(16) 0.6307(3) 0.1122(3)
O4 O 0.40140(18) 0.6340(3) 0.1725(3)
Ni1_2 Ni 0.5000 1.62389(8) 0.2500
Ni2F Ni 0.2500 0.7500 0.0000
Ni2A Ni -0.2500 0.7500 0.5000
Ni2G Ni 0.7500 0.2500 0.0000
Ni2A_2 Ni 0.7500 0.7500 0.5000
C1B C 0.6766(2) 0.4577(4) 0.0831(4)
H1B H 0.6628 0.4709 0.0175
C2B C 0.6523(2) 0.5351(4) 0.1497(4)
C3B C 0.6773(2) 0.5202(4) 0.2475(4)
C4B C 0.7221(3) 0.4266(5) 0.2729(4)
H2B H 0.7402 0.4148 0.3375
C5B C 0.7399(3) 0.3515(5) 0.2029(4)
H3B H 0.7680 0.2876 0.2221
C6B C 0.6599(2) 0.6021(4) 0.3261(3)
C7B C 0.6035(3) 0.6303(4) 0.1047(4)
C8D C -0.0975(2) 0.4768(4) 0.4926(4)
H4D H -0.1002 0.3960 0.4861
C9D C -0.1574(2) 0.5412(5) 0.4956(4)
H5D H -0.1997 0.5020 0.4934
C10D C -0.0956(2) 0.7122(4) 0.5058(4)
H6D H -0.0946 0.7934 0.5086
C11D C -0.0333(3) 0.6538(4) 0.5062(4)
H7D H 0.0084 0.6951 0.5111
C12D C -0.0332(2) 0.5325(4) 0.4993(4)
C13B C 0.5592(3) 0.8777(5) 0.2507(4)
H8B H 0.6009 0.8371 0.2511
C14B C 0.5611(3) 0.9994(5) 0.2510(5)
H9B H 0.6033 1.0385 0.2519
C17B C 0.5443(3) 1.2565(5) 0.3164(4)
H10B H 0.5765 1.2180 0.3611
C18B C 0.5410(3) 1.3766(5) 0.3170(4)
H11B H 0.5684 1.4170 0.3662
N2_2 N 0.5000 0.4377(6) 0.2500
N3D N -0.1571(2) 0.6591(3) 0.5017(3)
N3E N 0.3429(2) 0.1591(3) 0.5017(3)
N4B N 0.7183(2) 0.3667(4) 0.1085(3)
N4E N 0.2183(2) 0.1333(4) 0.6085(3)
O1B O 0.6262(2) 0.6928(4) 0.0435(4)
O2B O 0.54237(18) 0.6344(3) 0.1251(3)
O3B O 0.71077(16) 0.6307(3) 0.3878(3)
O3F O 0.28923(16) 0.3693(3) 0.6122(3)
O3C O 0.21077(16) 0.1307(3) 0.3878(3)
O4B O 0.59860(18) 0.6340(3) 0.3275(3)
O5 O 0.2284(9) 0.7113(18) 0.4467(14)
O6? O 0.2446(19) 0.703(3) 0.521(3)
loop_
_geom_bond_atom_site_label_1
_geom_bond_atom_site_label_2
_geom_bond_site_symmetry_1
_geom_bond_site_symmetry_2
Ni1 N1 1_555 1_555
Ni2 N3 1_555 1_555
C1 H1 1_555 1_555
C2 C1 1_555 1_555
C3 C2 1_555 1_555
C4 C3 1_555 1_555
H2 C4 1_555 1_555
C5 C4 1_555 1_555
H3 C5 1_555 1_555
C6 C3 1_555 1_555
C7 C2 1_555 1_555
C8 H4 1_555 1_555
C9 C8 1_555 1_555
H5 C9 1_555 1_555
C10 H6 1_555 1_555
C11 C10 1_555 1_555
H7 C11 1_555 1_555
C12 C8 1_555 1_555
C13 H8 1_555 1_555
C14 C13 1_555 1_555
H9 C14 1_555 1_555
C15 C14 1_555 1_555
C16 C15 1_555 1_555
C17 C16 1_555 1_555
H10 C17 1_555 1_555
C18 C17 1_555 1_555
H11 C18 1_555 1_555
N1 C13 1_555 1_555
N2 C18 1_555 1_555
N3 C9 1_555 1_555
N4 Ni2 1_555 1_555
O1 C7 1_555 1_555
O2 Ni1 1_555 1_555
O3 C6 1_555 1_555
O4 Ni1 1_555 1_555
Ni1_2 N2 1_555 1_555
Ni2F O3 1_555 1_555
Ni2A N3D 1_555 1_555
Ni2G N4B 1_555 1_555
Ni2A_2 O3B 1_555 1_555
C1B H1B 1_555 1_555
C2B C1B 1_555 1_555
C3B C2B 1_555 1_555
C4B C3B 1_555 1_555
H2B C4B 1_555 1_555
C5B C4B 1_555 1_555
H3B C5B 1_555 1_555
C6B C3B 1_555 1_555
C7B C2B 1_555 1_555
C8D H4D 1_555 1_555
C9D C8D 1_555 1_555
H5D C9D 1_555 1_555
C10D H6D 1_555 1_555
C11D C10D 1_555 1_555
H7D C11D 1_555 1_555
C12D C12 1_555 1_555
C13B N1 1_555 1_555
H8B C13B 1_555 1_555
C14B C15 1_555 1_555
H9B C14B 1_555 1_555
C17B C16 1_555 1_555
H10B C17B 1_555 1_555
C18B N2 1_555 1_555
H11B C18B 1_555 1_555
N2_2 Ni1 1_555 1_555
N3D C9D 1_555 1_555
N3E Ni2 1_555 1_555
N4B C1B 1_555 1_555
N4E Ni2 1_555 1_555
O1B C7B 1_555 1_555
O2B Ni1 1_555 1_555
O3B C6B 1_555 1_555
O3F Ni2 1_555 1_555
O3C Ni2 1_555 1_555
O4B Ni1 1_555 1_555
C1 N4 1_555 1_555
C5 N4 1_555 1_555
C6 O4 1_555 1_555
C7 O2 1_555 1_555
C10 N3 1_555 1_555
C11 C12 1_555 1_555
C5B N4B 1_555 1_555
C6B O4B 1_555 1_555
C7B O2B 1_555 1_555
C8D C12D 1_555 1_555
C10D N3D 1_555 1_555
C11D C12D 1_555 1_555
C13B C14B 1_555 1_555
C17B C18B 1_555 1_555

#END
