
#######################################################################
#
#                 Cambridge Crystallographic Data Centre
#                                CCDC 
#
#######################################################################
#
# If this CIF has been generated from an entry in the Cambridge 
# Structural Database, then it will include bibliographic, chemical, 
# crystal, experimental, refinement or atomic coordinate data resulting 
# from the CCDC's data processing and validation procedures.
#
#######################################################################

data_XASKEI
_symmetry_cell_setting           monoclinic
_symmetry_space_group_name_H-M   'P 2/c'
_symmetry_Int_Tables_number      13
_space_group_name_Hall           '-P 2yc'
loop_
_symmetry_equiv_pos_site_id
_symmetry_equiv_pos_as_xyz
1 x,y,z
2 -x,y,1/2-z
3 -x,-y,-z
4 x,-y,1/2+z
_cell_length_a                   14.032(3)
_cell_length_b                   11.238(2)
_cell_length_c                   12.259(3)
_cell_angle_alpha                90
_cell_angle_beta                 93.85(3)
_cell_angle_gamma                90
_cell_volume                     1928.78
loop_
_atom_site_label
_atom_site_type_symbol
_atom_site_fract_x
_atom_site_fract_y
_atom_site_fract_z
Ni1 Ni 0.0000 0.19050(3) 0.2500
C1 C 0.22699(14) 0.23879(19) -0.08237(19)
C2 C 0.20364(14) 0.28960(19) 0.01596(19)
C3 C 0.21740(15) 0.41189(19) 0.0338(2)
H1 H 0.2023 0.4454 0.0998
C4 C 0.25320(15) 0.4831(2) -0.0460(2)
C5 C 0.27319(16) 0.4333(2) -0.1458(2)
H2 H 0.2954 0.4811 -0.2006
C6 C 0.26009(16) 0.3129(2) -0.1632(2)
H3 H 0.2736 0.2804 -0.2302
C7 C 0.22203(15) 0.1054(2) -0.1014(2)
C8 C 0.16649(15) 0.21989(19) 0.11037(19)
C9 C 0.27479(16) 0.6125(2) -0.0279(2)
C10 C 0.02959(16) 0.9447(2) 0.1649(2)
H4 H 0.0508 0.9865 0.1058
C11 C 0.02996(16) 0.8219(2) 0.1610(2)
H5 H 0.0499 0.7824 0.0999
C12 C 0.0000 0.7579(3) 0.2500
C13 C 0.0000 0.6260(3) 0.2500
C14 C -0.02093(16) 0.5618(2) 0.1542(2)
H6 H -0.0344 0.6013 0.0883
C15 C -0.02156(16) 0.4384(2) 0.1577(2)
H7 H -0.0376 0.3966 0.0936
N1 N 0.0000 0.3769(2) 0.2500
N2 N 0.0000 1.0064(2) 0.2500
O1 O 0.26270(13) 0.06542(15) -0.18210(15)
O2 O 0.18126(12) 0.04264(14) -0.03429(15)
O3 O 0.22760(11) 0.18762(16) 0.18417(14)
O4 O 0.07758(10) 0.21030(13) 0.11313(13)
O5 O 0.23690(14) 0.65729(16) 0.05922(16)
H12 H 0.2456 0.7384 0.0582
O6 O 0.32434(14) 0.66915(16) -0.08555(18)
O9 O -0.12359(11) 0.18355(14) 0.14152(14)
H17 H -0.1749 0.1852 0.1999
H18 H -0.1393 0.1312 0.1030
Ni1_2 Ni 0.0000 1.19050(3) 0.2500
C1A C -0.22699(14) 0.23879(19) 0.58237(19)
C2A C -0.20364(14) 0.28960(19) 0.48404(19)
C3A C -0.21740(15) 0.41189(19) 0.4662(2)
H1A H -0.2023 0.4454 0.4002
C4A C -0.25320(15) 0.4831(2) 0.5460(2)
C5A C -0.27319(16) 0.4333(2) 0.6458(2)
H2A H -0.2954 0.4811 0.7006
C6A C -0.26009(16) 0.3129(2) 0.6632(2)
H3A H -0.2736 0.2804 0.7302
C7A C -0.22203(15) 0.1054(2) 0.6014(2)
C8A C -0.16649(15) 0.21989(19) 0.38963(19)
C9A C -0.27479(16) 0.6125(2) 0.5279(2)
C10A C -0.02959(16) 0.9447(2) 0.3351(2)
H4A H -0.0508 0.9865 0.3942
C11A C -0.02996(16) 0.8219(2) 0.3390(2)
H5A H -0.0499 0.7824 0.4001
C14A C 0.02093(16) 0.5618(2) 0.3458(2)
H6A H 0.0344 0.6013 0.4117
C15A C 0.02156(16) 0.4384(2) 0.3423(2)
H7A H 0.0376 0.3966 0.4064
N2_2 N 0.0000 0.0064(2) 0.2500
O1A O -0.26270(13) 0.06542(15) 0.68210(15)
O2A O -0.18126(12) 0.04264(14) 0.53429(15)
O3A O -0.22760(11) 0.18762(16) 0.31583(14)
O4A O -0.07758(10) 0.21030(13) 0.38687(13)
O5A O -0.23690(14) 0.65729(16) 0.44078(16)
H12A H -0.2456 0.7384 0.4418
O6A O -0.32434(14) 0.66915(16) 0.58555(18)
O9A O 0.12359(11) 0.18355(14) 0.35848(14)
H17A H 0.1749 0.1852 0.3001
H18A H 0.1393 0.1312 0.3970
Ni2 Ni 0.5000 -0.10370(3) -0.2500
C16 C 0.53777(17) 0.6490(2) -0.1641(2)
H8 H 0.5645 0.6906 -0.1041
C17 C 0.53868(16) 0.5260(2) -0.1611(2)
H9 H 0.5651 0.4866 -0.0996
C18 C 0.5000 0.4615(3) -0.2500
C19 C 0.5000 0.3293(3) -0.2500
C20 C 0.49694(17) 0.2651(2) -0.1535(2)
H10 H 0.4955 0.3046 -0.0870
C21 C 0.49604(16) 0.1428(2) -0.1568(2)
H11 H 0.4925 0.1013 -0.0916
N3 N 0.5000 0.0806(2) -0.2500
N4 N 0.5000 0.7107(2) -0.2500
O7 O 0.60841(11) -0.10242(15) -0.12390(14)
H13 H 0.6566 -0.1354 -0.1452
H14 H 0.6186 -0.0385 -0.1142
O8 O 0.39775(12) -0.10318(16) -0.13324(15)
H15 H 0.3751 -0.1712 -0.1187
H16 H 0.3670 -0.0594 -0.1507
Ni2_2 Ni 0.5000 0.89630(3) -0.2500
C16A C 0.46223(17) 0.6490(2) -0.3359(2)
H8A H 0.4355 0.6906 -0.3959
C17A C 0.46132(16) 0.5260(2) -0.3389(2)
H9A H 0.4349 0.4866 -0.4004
C20A C 0.50306(17) 0.2651(2) -0.3465(2)
H10A H 0.5045 0.3046 -0.4130
C21A C 0.50396(16) 0.1428(2) -0.3432(2)
H11A H 0.5075 0.1013 -0.4084
N4_2 N 0.5000 -0.2893(2) -0.2500
O7A O 0.39159(11) -0.10242(15) -0.37610(14)
H13A H 0.3434 -0.1354 -0.3548
H14A H 0.3814 -0.0385 -0.3858
O8A O 0.60225(12) -0.10318(16) -0.36676(15)
H15A H 0.6249 -0.1712 -0.3813
H16A H 0.6330 -0.0594 -0.3493
O10 O 0.27314(12) 0.88251(15) 0.10123(16)
H19 H 0.2681 0.8982 0.1649
H20 H 0.2390 0.9346 0.0603
loop_
_geom_bond_atom_site_label_1
_geom_bond_atom_site_label_2
_geom_bond_site_symmetry_1
_geom_bond_site_symmetry_2
Ni1 N1 1_555 1_555
Ni2 N3 1_555 1_555
C1 C2 1_555 1_555
C2 C3 1_555 1_555
C3 H1 1_555 1_555
C4 C3 1_555 1_555
C5 C4 1_555 1_555
H2 C5 1_555 1_555
C6 C1 1_555 1_555
H3 C6 1_555 1_555
C7 C1 1_555 1_555
C8 C2 1_555 1_555
C9 C4 1_555 1_555
C10 H4 1_555 1_555
C11 C10 1_555 1_555
H5 C11 1_555 1_555
C12 C11 1_555 1_555
C13 C12 1_555 1_555
C14 C13 1_555 1_555
H6 C14 1_555 1_555
C15 C14 1_555 1_555
H7 C15 1_555 1_555
C16 H8 1_555 1_555
C17 C16 1_555 1_555
H9 C17 1_555 1_555
C18 C17 1_555 1_555
C19 C18 1_555 1_555
C20 C19 1_555 1_555
H10 C20 1_555 1_555
C21 C20 1_555 1_555
H11 C21 1_555 1_555
N1 C15 1_555 1_555
N2 C10 1_555 1_555
N3 C21 1_555 1_555
N4 C16 1_555 1_555
O1 C7 1_555 1_555
O2 C7 1_555 1_555
O3 C8 1_555 1_555
O4 Ni1 1_555 1_555
O5 C9 1_555 1_555
H12 O5 1_555 1_555
O6 C9 1_555 1_555
O7 Ni2 1_555 1_555
H13 O7 1_555 1_555
H14 O7 1_555 1_555
O8 Ni2 1_555 1_555
H15 O8 1_555 1_555
H16 O8 1_555 1_555
O9 Ni1 1_555 1_555
H17 O9 1_555 1_555
H18 O9 1_555 1_555
O10 H19 1_555 1_555
H20 O10 1_555 1_555
Ni1_2 N2 1_555 1_555
Ni2_2 N4 1_555 1_555
C1A C2A 1_555 1_555
C2A C3A 1_555 1_555
C3A H1A 1_555 1_555
C4A C3A 1_555 1_555
C5A C4A 1_555 1_555
H2A C5A 1_555 1_555
C6A C1A 1_555 1_555
H3A C6A 1_555 1_555
C7A C1A 1_555 1_555
C8A C2A 1_555 1_555
C9A C4A 1_555 1_555
C10A N2 1_555 1_555
H4A C10A 1_555 1_555
C11A C12 1_555 1_555
H5A C11A 1_555 1_555
C14A C13 1_555 1_555
H6A C14A 1_555 1_555
C15A N1 1_555 1_555
H7A C15A 1_555 1_555
C16A N4 1_555 1_555
H8A C16A 1_555 1_555
C17A C18 1_555 1_555
H9A C17A 1_555 1_555
C20A C19 1_555 1_555
H10A C20A 1_555 1_555
C21A N3 1_555 1_555
H11A C21A 1_555 1_555
N2_2 Ni1 1_555 1_555
N4_2 Ni2 1_555 1_555
O1A C7A 1_555 1_555
O2A C7A 1_555 1_555
O3A C8A 1_555 1_555
O4A Ni1 1_555 1_555
O5A C9A 1_555 1_555
H12A O5A 1_555 1_555
O6A C9A 1_555 1_555
O7A Ni2 1_555 1_555
H13A O7A 1_555 1_555
H14A O7A 1_555 1_555
O8A Ni2 1_555 1_555
H15A O8A 1_555 1_555
H16A O8A 1_555 1_555
O9A Ni1 1_555 1_555
H17A O9A 1_555 1_555
H18A O9A 1_555 1_555
C5 C6 1_555 1_555
C8 O4 1_555 1_555
C5A C6A 1_555 1_555
C8A O4A 1_555 1_555
C10A C11A 1_555 1_555
C14A C15A 1_555 1_555
C16A C17A 1_555 1_555
C20A C21A 1_555 1_555

#END
