
#######################################################################
#
#                 Cambridge Crystallographic Data Centre
#                                CCDC 
#
#######################################################################
#
# If this CIF has been generated from an entry in the Cambridge 
# Structural Database, then it will include bibliographic, chemical, 
# crystal, experimental, refinement or atomic coordinate data resulting 
# from the CCDC's data processing and validation procedures.
#
#######################################################################

data_XASZOH
_symmetry_cell_setting           monoclinic
_symmetry_space_group_name_H-M   'C 2/c'
_symmetry_Int_Tables_number      15
_space_group_name_Hall           '-C 2yn'
loop_
_symmetry_equiv_pos_site_id
_symmetry_equiv_pos_as_xyz
1 x,y,z
2 1/2+x,1/2+y,z
3 -x,y,1/2-z
4 1/2-x,1/2+y,1/2-z
5 -x,-y,-z
6 1/2-x,1/2-y,-z
7 x,-y,1/2+z
8 1/2+x,1/2-y,1/2+z
_cell_length_a                   34.046(3)
_cell_length_b                   13.0341(11)
_cell_length_c                   18.7595(16)
_cell_angle_alpha                90
_cell_angle_beta                 109.3660(10)
_cell_angle_gamma                90
_cell_volume                     7853.68
loop_
_atom_site_label
_atom_site_type_symbol
_atom_site_fract_x
_atom_site_fract_y
_atom_site_fract_z
Zn1 Zn 1.02957(2) 1.03325(6) 1.13650(4)
Zn2 Zn 1.05568(2) 1.08574(6) 0.97311(4)
Zn3 Zn 1.12232(2) 0.96600(5) 1.12600(5)
O1 O 1.02814(15) 1.1068(3) 1.0464(3)
H1 H 1.0012(11) 1.140(5) 1.023(3)
O2 O 0.97942(13) 0.9559(3) 1.1248(2)
H2 H 0.9824(19) 0.890(3) 1.153(3)
O3 O 1.09838(14) 0.9814(3) 1.0171(3)
H3 H 1.1185(16) 0.994(5) 0.991(3)
O4 O 1.07886(14) 0.9468(3) 1.1694(3)
H4 H 1.076(2) 0.8708(18) 1.175(4)
N1 N 1.04539(18) 1.1432(4) 1.2188(3)
C1 C 1.0658(2) 1.1205(6) 1.2903(4)
H5 H 1.0701 1.0516 1.3037
C2 C 1.0808(3) 1.1925(7) 1.3456(5)
H6 H 1.0959 1.1727 1.3947
C3 C 1.0734(3) 1.2962(8) 1.3275(5)
C4 C 1.0540(4) 1.3213(7) 1.2550(6)
H7 H 1.0500 1.3897 1.2403
C5 C 1.0399(3) 1.2427(6) 1.2019(4)
H8 H 1.0258 1.2609 1.1520
N2 N 1.08338(17) 1.7753(4) 1.4682(3)
C6 C 1.0999(3) 1.7497(6) 1.4147(5)
H9 H 1.0988 1.7964 1.3766
C7 C 1.1182(3) 1.6572(7) 1.4153(5)
H10 H 1.1291 1.6423 1.3771
C8 C 1.1213(2) 1.5840(6) 1.4704(5)
C9 C 1.1037(2) 1.6116(6) 1.5243(5)
H11 H 1.1041 1.5658 1.5625
C10 C 1.0856(2) 1.7061(5) 1.5217(4)
H12 H 1.0743 1.7226 1.5590
C11 C 1.1430(3) 1.4835(6) 1.4736(5)
H13 H 1.1416 1.4469 1.5177
H14 H 1.1721 1.4980 1.4821
C12 C 1.1278(3) 1.4101(8) 1.4057(6)
H15 H 1.1306 1.4431 1.3613
H16 H 1.1450 1.3489 1.4160
C13 C 1.0868(4) 1.3830(8) 1.3918(6)
H17 H 1.0691 1.4428 1.3755
H18 H 1.0833 1.3572 1.4378
N3 N 1.15274(16) 1.0989(4) 1.1674(3)
C14 C 1.1694(2) 1.1550(5) 1.1263(4)
H19 H 1.1662 1.1336 1.0774
C15 C 1.1913(2) 1.2440(5) 1.1527(4)
H20 H 1.2030 1.2804 1.1220
C16 C 1.1961(2) 1.2793(4) 1.2246(4)
C17 C 1.1782(2) 1.2215(6) 1.2660(5)
H21 H 1.1807 1.2412 1.3149
C18 C 1.1564(2) 1.1339(6) 1.2354(4)
H22 H 1.1435 1.0975 1.2642
N4 N 1.16041(16) 1.8429(4) 1.1608(3)
C19 C 1.1778(2) 1.7899(5) 1.1187(4)
H23 H 1.1748 1.8138 1.0705
C20 C 1.2002(2) 1.7015(5) 1.1431(4)
H24 H 1.2120 1.6670 1.1118
C21 C 1.2050(2) 1.6639(5) 1.2146(4)
C22 C 1.1865(2) 1.7194(5) 1.2590(4)
H25 H 1.1884 1.6967 1.3070
C23 C 1.1651(2) 1.8089(5) 1.2297(4)
H26 H 1.1535 1.8467 1.2598
C24 C 1.2276(2) 1.5646(5) 1.2416(5)
H27 H 1.2500 1.5573 1.2207
H28 H 1.2399 1.5662 1.2963
C25 C 1.1985(2) 1.4718(4) 1.2184(5)
H29 H 1.1888 1.4649 1.1638
H30 H 1.1744 1.4823 1.2343
C26 C 1.2208(2) 1.3744(5) 1.2541(5)
H31 H 1.2268 1.3779 1.3084
H32 H 1.2471 1.3702 1.2448
Zn1D Zn 0.97043(2) 0.96675(6) 0.86350(4)
Zn1F Zn 1.02957(2) 1.96675(6) 0.63650(4)
Zn2D Zn 0.94432(2) 0.91426(6) 1.02689(4)
Zn2F Zn 1.05568(2) 1.91426(6) 1.47311(4)
Zn3D Zn 0.87768(2) 1.03400(5) 0.87400(5)
Zn3_2 Zn 1.12232(2) 1.96600(5) 1.12600(5)
Zn3_3 Zn 1.12232(2) -0.03400(5) 1.12600(5)
O1D O 0.97186(15) 0.8932(3) 0.9536(3)
H1D H 0.9988(11) 0.860(5) 0.977(3)
O2D O 1.02058(13) 1.0441(3) 0.8752(2)
H2D H 1.0176(19) 1.110(3) 0.847(3)
O3D O 0.90162(14) 1.0186(3) 0.9829(3)
H3D H 0.8815(16) 1.006(5) 1.009(3)
O4D O 0.92114(14) 1.0532(3) 0.8306(3)
H4D H 0.924(2) 1.1292(18) 0.825(4)
N1F N 1.04539(18) 1.8568(4) 0.7188(3)
N1D N 0.95461(18) 0.8568(4) 0.7812(3)
C1F C 1.0658(2) 1.8795(6) 0.7903(4)
H5F H 1.0701 1.9484 0.8037
C2F C 1.0808(3) 1.8075(7) 0.8456(5)
H6F H 1.0959 1.8273 0.8947
C3F C 1.0734(3) 1.7038(8) 0.8275(5)
C4F C 1.0540(4) 1.6787(7) 0.7550(6)
H7F H 1.0500 1.6103 0.7403
C5F C 1.0399(3) 1.7573(6) 0.7019(4)
H8F H 1.0258 1.7391 0.6520
N2F N 1.08338(17) 1.2247(4) 0.9682(3)
N2B N 0.91662(17) 0.7753(4) 1.0318(3)
C6F C 1.0999(3) 1.2503(6) 0.9147(5)
H9F H 1.0988 1.2036 0.8766
C7F C 1.1182(3) 1.3428(7) 0.9153(5)
H10F H 1.1291 1.3577 0.8771
C8F C 1.1213(2) 1.4160(6) 0.9704(5)
C9F C 1.1037(2) 1.3884(6) 1.0243(5)
H11F H 1.1041 1.4342 1.0625
C10F C 1.0856(2) 1.2939(5) 1.0217(4)
H12F H 1.0743 1.2774 1.0590
C11F C 1.1430(3) 1.5165(6) 0.9736(5)
H13F H 1.1416 1.5531 1.0177
H14F H 1.1721 1.5020 0.9821
C12F C 1.1278(3) 1.5899(8) 0.9057(6)
H15F H 1.1306 1.5569 0.8613
H16F H 1.1450 1.6511 0.9160
C13F C 1.0868(4) 1.6170(8) 0.8918(6)
H17F H 1.0691 1.5572 0.8755
H18F H 1.0833 1.6428 0.9378
N3_2 N 1.15274(16) 0.0989(4) 1.1674(3)
N3D N 0.84726(16) 0.9011(4) 0.8326(3)
C14_2 C 1.1694(2) 0.1550(5) 1.1263(4)
H19_2 H 1.1662 0.1336 1.0774
C15_2 C 1.1913(2) 0.2440(5) 1.1527(4)
H20_2 H 1.2030 0.2804 1.1220
C16_2 C 1.1961(2) 0.2793(4) 1.2246(4)
C17_2 C 1.1782(2) 0.2215(6) 1.2660(5)
H21_2 H 1.1807 0.2412 1.3149
C18_2 C 1.1564(2) 0.1339(6) 1.2354(4)
H22_2 H 1.1435 0.0975 1.2642
N4_2 N 1.16041(16) 0.8429(4) 1.1608(3)
N4D N 0.83959(16) 1.1571(4) 0.8392(3)
C19_2 C 1.1778(2) 0.7899(5) 1.1187(4)
H23_2 H 1.1748 0.8138 1.0705
C20_2 C 1.2002(2) 0.7015(5) 1.1431(4)
H24_2 H 1.2120 0.6670 1.1118
C21_2 C 1.2050(2) 0.6639(5) 1.2146(4)
C22_2 C 1.1865(2) 0.7194(5) 1.2590(4)
H25_2 H 1.1884 0.6967 1.3070
C23_2 C 1.1651(2) 0.8089(5) 1.2297(4)
H26_2 H 1.1535 0.8467 1.2598
C24_2 C 1.2276(2) 0.5646(5) 1.2416(5)
H27_2 H 1.2500 0.5573 1.2207
H28_2 H 1.2399 0.5662 1.2963
C25_2 C 1.1985(2) 0.4718(4) 1.2184(5)
H29_2 H 1.1888 0.4649 1.1638
H30_2 H 1.1744 0.4823 1.2343
C26_2 C 1.2208(2) 0.3744(5) 1.2541(5)
H31_2 H 1.2268 0.3779 1.3084
H32_2 H 1.2471 0.3702 1.2448
S1 S 0.92607(6) 0.36429(15) 0.82829(12)
O5 O 0.93531(19) 0.2699(4) 0.7977(4)
O6 O 0.90952(18) 0.3497(4) 0.8889(3)
O7 O 0.9047(2) 0.4388(4) 0.7740(4)
C27 C 0.9762(3) 0.4195(8) 0.8748(7)
F1 F 0.9975(2) 0.4319(5) 0.8287(5)
F2 F 0.9993(2) 0.3620(7) 0.9300(5)
F3 F 0.9743(2) 0.5110(5) 0.9017(4)
S2 S 0.80777(9) 1.0070(2) 0.06051(17)
O8 O 0.7815(3) 1.0885(7) 0.0702(5)
O9 O 0.8238(2) 1.0239(6) 0.0020(5)
O10 O 0.8387(3) 0.9706(8) 0.1305(7)
C28 C 0.7742(4) 0.9061(9) 0.0326(8)
F4 F 0.7442(3) 0.9222(8) -0.0350(6)
F5 F 0.7564(4) 0.8855(9) 0.0827(7)
F6 F 0.7939(2) 0.8180(6) 0.0254(6)
O11 O 0.0000 0.1862(5) 0.7500
O12 O 0.95030(17) 0.2005(4) 0.0043(3)
F7? F 0.7333(6) 0.9004(19) 0.0348(16)
F8? F 0.7919(11) 0.832(3) 0.088(2)
F9? F 0.7675(11) 0.841(3) -0.0304(17)
loop_
_geom_bond_atom_site_label_1
_geom_bond_atom_site_label_2
_geom_bond_site_symmetry_1
_geom_bond_site_symmetry_2
Zn1 O1 1_555 1_555
Zn2 O1 1_555 1_555
Zn3 O3 1_555 1_555
O1 H1 1_555 1_555
O2 Zn1 1_555 1_555
H2 O2 1_555 1_555
O3 Zn2 1_555 1_555
H3 O3 1_555 1_555
O4 Zn1 1_555 1_555
H4 O4 1_555 1_555
N1 Zn1 1_555 1_555
C1 N1 1_555 1_555
H5 C1 1_555 1_555
C2 C1 1_555 1_555
H6 C2 1_555 1_555
C3 C2 1_555 1_555
C4 C3 1_555 1_555
H7 C4 1_555 1_555
C5 N1 1_555 1_555
H8 C5 1_555 1_555
N2 C6 1_555 1_555
C6 H9 1_555 1_555
C7 C6 1_555 1_555
H10 C7 1_555 1_555
C8 C7 1_555 1_555
C9 C8 1_555 1_555
H11 C9 1_555 1_555
C10 N2 1_555 1_555
H12 C10 1_555 1_555
C11 C8 1_555 1_555
H13 C11 1_555 1_555
H14 C11 1_555 1_555
C12 C11 1_555 1_555
H15 C12 1_555 1_555
H16 C12 1_555 1_555
C13 C3 1_555 1_555
H17 C13 1_555 1_555
H18 C13 1_555 1_555
N3 Zn3 1_555 1_555
C14 N3 1_555 1_555
H19 C14 1_555 1_555
C15 C14 1_555 1_555
H20 C15 1_555 1_555
C16 C15 1_555 1_555
C17 C16 1_555 1_555
H21 C17 1_555 1_555
C18 N3 1_555 1_555
H22 C18 1_555 1_555
N4 C19 1_555 1_555
C19 H23 1_555 1_555
C20 C19 1_555 1_555
H24 C20 1_555 1_555
C21 C20 1_555 1_555
C22 C21 1_555 1_555
H25 C22 1_555 1_555
C23 N4 1_555 1_555
H26 C23 1_555 1_555
C24 C21 1_555 1_555
H27 C24 1_555 1_555
H28 C24 1_555 1_555
C25 C24 1_555 1_555
H29 C25 1_555 1_555
H30 C25 1_555 1_555
C26 C16 1_555 1_555
H31 C26 1_555 1_555
H32 C26 1_555 1_555
S1 O5 1_555 1_555
O6 S1 1_555 1_555
O7 S1 1_555 1_555
C27 S1 1_555 1_555
F1 C27 1_555 1_555
F2 C27 1_555 1_555
F3 C27 1_555 1_555
S2 O8 1_555 1_555
O9 S2 1_555 1_555
O10 S2 1_555 1_555
C28 S2 1_555 1_555
F4 C28 1_555 1_555
F5 C28 1_555 1_555
F6 C28 1_555 1_555
Zn1D O1D 1_555 1_555
Zn1F N1F 1_555 1_555
Zn2D O2 1_555 1_555
Zn2F N2 1_555 1_555
Zn3D O3D 1_555 1_555
Zn3_2 N4 1_555 1_555
Zn3_3 N3_2 1_555 1_555
O1D Zn2D 1_555 1_555
H1D O1D 1_555 1_555
O2D Zn2 1_555 1_555
H2D O2D 1_555 1_555
O3D Zn2D 1_555 1_555
H3D O3D 1_555 1_555
O4D Zn1D 1_555 1_555
H4D O4D 1_555 1_555
N1F C1F 1_555 1_555
N1D Zn1D 1_555 1_555
C1F H5F 1_555 1_555
C2F C1F 1_555 1_555
H6F C2F 1_555 1_555
C3F C2F 1_555 1_555
C4F C3F 1_555 1_555
H7F C4F 1_555 1_555
C5F N1F 1_555 1_555
H8F C5F 1_555 1_555
N2F Zn2 1_555 1_555
N2B Zn2D 1_555 1_555
C6F N2F 1_555 1_555
H9F C6F 1_555 1_555
C7F C6F 1_555 1_555
H10F C7F 1_555 1_555
C8F C7F 1_555 1_555
C9F C8F 1_555 1_555
H11F C9F 1_555 1_555
C10F N2F 1_555 1_555
H12F C10F 1_555 1_555
C11F C8F 1_555 1_555
H13F C11F 1_555 1_555
H14F C11F 1_555 1_555
C12F C11F 1_555 1_555
H15F C12F 1_555 1_555
H16F C12F 1_555 1_555
C13F C3F 1_555 1_555
H17F C13F 1_555 1_555
H18F C13F 1_555 1_555
N3_2 C14_2 1_555 1_555
N3D Zn3D 1_555 1_555
C14_2 H19_2 1_555 1_555
C15_2 C14_2 1_555 1_555
H20_2 C15_2 1_555 1_555
C16_2 C15_2 1_555 1_555
C17_2 C16_2 1_555 1_555
H21_2 C17_2 1_555 1_555
C18_2 N3_2 1_555 1_555
H22_2 C18_2 1_555 1_555
N4_2 Zn3 1_555 1_555
N4D Zn3D 1_555 1_555
C19_2 N4_2 1_555 1_555
H23_2 C19_2 1_555 1_555
C20_2 C19_2 1_555 1_555
H24_2 C20_2 1_555 1_555
C21_2 C20_2 1_555 1_555
C22_2 C21_2 1_555 1_555
H25_2 C22_2 1_555 1_555
C23_2 N4_2 1_555 1_555
H26_2 C23_2 1_555 1_555
C24_2 C21_2 1_555 1_555
H27_2 C24_2 1_555 1_555
H28_2 C24_2 1_555 1_555
C25_2 C24_2 1_555 1_555
H29_2 C25_2 1_555 1_555
H30_2 C25_2 1_555 1_555
C26_2 C16_2 1_555 1_555
H31_2 C26_2 1_555 1_555
H32_2 C26_2 1_555 1_555
Zn3 O4 1_555 1_555
C4 C5 1_555 1_555
C9 C10 1_555 1_555
C12 C13 1_555 1_555
C17 C18 1_555 1_555
C22 C23 1_555 1_555
C25 C26 1_555 1_555
Zn1D O2D 1_555 1_555
Zn3D O4D 1_555 1_555
C4F C5F 1_555 1_555
C9F C10F 1_555 1_555
C12F C13F 1_555 1_555
C17_2 C18_2 1_555 1_555
C22_2 C23_2 1_555 1_555
C25_2 C26_2 1_555 1_555

#END
