
#######################################################################
#
#                 Cambridge Crystallographic Data Centre
#                                CCDC 
#
#######################################################################
#
# If this CIF has been generated from an entry in the Cambridge 
# Structural Database, then it will include bibliographic, chemical, 
# crystal, experimental, refinement or atomic coordinate data resulting 
# from the CCDC's data processing and validation procedures.
#
#######################################################################

data_XASZEX
_symmetry_cell_setting           monoclinic
_symmetry_space_group_name_H-M   'P 21/c'
_symmetry_Int_Tables_number      14
_space_group_name_Hall           '-P 2ybc'
loop_
_symmetry_equiv_pos_site_id
_symmetry_equiv_pos_as_xyz
1 x,y,z
2 -x,1/2+y,1/2-z
3 -x,-y,-z
4 x,1/2-y,1/2+z
_cell_length_a                   12.7742(11)
_cell_length_b                   12.4069(15)
_cell_length_c                   13.5064(10)
_cell_angle_alpha                90
_cell_angle_beta                 106.894(7)
_cell_angle_gamma                90
_cell_volume                     2048.23
loop_
_atom_site_label
_atom_site_type_symbol
_atom_site_fract_x
_atom_site_fract_y
_atom_site_fract_z
Cu1 Cu 0.25137(3) 0.22347(3) 0.41067(2)
N1 N 0.25269(16) 0.22312(17) 0.56037(15)
C1 C 0.2877(2) 0.1465(2) 0.63136(19)
H1 H 0.308(2) 0.087(2) 0.612(2)
C2 C 0.2854(2) 0.1619(2) 0.73205(19)
H2 H 0.306(2) 0.106(2) 0.779(2)
N2 N 0.24825(17) 0.25383(17) 0.76134(16)
C3 C 0.2118(2) 0.3299(2) 0.68950(19)
H3 H 0.183(2) 0.391(2) 0.707(2)
C4 C 0.2146(2) 0.3146(2) 0.58925(18)
C5 C 0.1776(2) 0.3944(2) 0.50296(19)
O1 O 0.18681(16) 0.36881(15) 0.41634(13)
N3 N 0.1389(2) 0.4871(2) 0.5206(2)
H4 H 0.116(3) 0.527(3) 0.473(3)
H5 H 0.134(3) 0.501(3) 0.578(3)
N4 N 0.0810(2) 0.1444(2) 0.3590(2)
C6 C -0.0031(3) 0.1074(3) 0.3400(2)
C7 C -0.1112(3) 0.0586(4) 0.3147(3)
H6 H -0.1173 0.0037 0.2622
H7 H -0.1663 0.1136 0.2887
H8 H -0.1219 0.0261 0.3763
N5 N 0.4255(2) 0.3090(2) 0.46100(19)
C8 C 0.5094(3) 0.3405(3) 0.4652(2)
C9 C 0.6174(3) 0.3803(3) 0.4698(3)
H9 H 0.6562 0.3997 0.5405
H10 H 0.6107 0.4432 0.4257
H11 H 0.6578 0.3246 0.4461
N6 N 0.31679(19) 0.07699(19) 0.41339(17)
C10 C 0.3491(2) -0.0052(2) 0.4027(2)
C11 C 0.3914(3) -0.1110(3) 0.3882(3)
H12 H 0.4171 -0.1100 0.3273
H13 H 0.3338 -0.1643 0.3792
H14 H 0.4516 -0.1293 0.4485
Cu1C Cu 0.25137(3) 0.27653(3) 0.91067(2)
N2C N 0.24825(17) 0.24617(17) 0.26134(16)
Cl1 Cl -0.46269(6) 0.11263(6) 0.25969(5)
O2 O -0.4257(2) 0.0809(2) 0.36565(18)
O3 O -0.5684(2) 0.0647(3) 0.2141(2)
O4 O -0.4803(4) 0.2239(2) 0.2501(3)
O5 O -0.3904(3) 0.0751(3) 0.2057(2)
Cl2 Cl 0.0812(5) -0.2689(6) -0.0757(6)
O6 O 0.0005(6) -0.3270(6) -0.1516(7)
O7 O 0.1261(7) -0.1848(6) -0.1207(5)
O8 O 0.1634(6) -0.3438(7) -0.0285(8)
O9 O 0.0337(6) -0.2250(6) -0.0022(6)
O14 O 0.1026(4) 0.9126(3) 0.1940(3)
H15 H 0.106(4) 0.894(4) 0.256(4)
H16 H 0.135(7) 0.869(7) 0.178(6)
Cl3? Cl 0.0850(5) -0.2663(4) -0.0664(5)
O10? O -0.0082(5) -0.3340(6) -0.0830(7)
O11? O 0.0423(6) -0.1621(4) -0.1091(4)
O12? O 0.1558(5) -0.3026(9) -0.1192(7)
O13? O 0.1392(5) -0.2513(5) 0.0406(4)
loop_
_geom_bond_atom_site_label_1
_geom_bond_atom_site_label_2
_geom_bond_site_symmetry_1
_geom_bond_site_symmetry_2
Cu1 N1 1_555 1_555
N1 C1 1_555 1_555
C1 H1 1_555 1_555
C2 C1 1_555 1_555
H2 C2 1_555 1_555
N2 C2 1_555 1_555
C3 N2 1_555 1_555
H3 C3 1_555 1_555
C4 N1 1_555 1_555
C5 C4 1_555 1_555
O1 Cu1 1_555 1_555
N3 C5 1_555 1_555
H4 N3 1_555 1_555
H5 N3 1_555 1_555
N4 Cu1 1_555 1_555
C6 N4 1_555 1_555
C7 C6 1_555 1_555
H6 C7 1_555 1_555
H7 C7 1_555 1_555
H8 C7 1_555 1_555
N5 Cu1 1_555 1_555
C8 N5 1_555 1_555
C9 C8 1_555 1_555
H9 C9 1_555 1_555
H10 C9 1_555 1_555
H11 C9 1_555 1_555
N6 Cu1 1_555 1_555
C10 N6 1_555 1_555
C11 C10 1_555 1_555
H12 C11 1_555 1_555
H13 C11 1_555 1_555
H14 C11 1_555 1_555
Cl1 O2 1_555 1_555
O3 Cl1 1_555 1_555
O4 Cl1 1_555 1_555
O5 Cl1 1_555 1_555
Cl2 O6 1_555 1_555
O7 Cl2 1_555 1_555
O8 Cl2 1_555 1_555
O9 Cl2 1_555 1_555
O14 H15 1_555 1_555
H16 O14 1_555 1_555
Cu1C N2 1_555 1_555
N2C Cu1 1_555 1_555
C3 C4 1_555 1_555
C5 O1 1_555 1_555

#END
