
#######################################################################
#
#                 Cambridge Crystallographic Data Centre
#                                CCDC 
#
#######################################################################
#
# If this CIF has been generated from an entry in the Cambridge 
# Structural Database, then it will include bibliographic, chemical, 
# crystal, experimental, refinement or atomic coordinate data resulting 
# from the CCDC's data processing and validation procedures.
#
#######################################################################

data_XATBAW
_symmetry_cell_setting           monoclinic
_symmetry_space_group_name_H-M   'P 21/n'
_symmetry_Int_Tables_number      14
_space_group_name_Hall           '-P 2yn'
loop_
_symmetry_equiv_pos_site_id
_symmetry_equiv_pos_as_xyz
1 x,y,z
2 1/2-x,1/2+y,1/2-z
3 -x,-y,-z
4 1/2+x,1/2-y,1/2+z
_cell_length_a                   10.328(4)
_cell_length_b                   8.082(3)
_cell_length_c                   22.896(9)
_cell_angle_alpha                90
_cell_angle_beta                 93.609(4)
_cell_angle_gamma                90
_cell_volume                     1907.36
loop_
_atom_site_label
_atom_site_type_symbol
_atom_site_fract_x
_atom_site_fract_y
_atom_site_fract_z
Cu1 Cu 0.61243(4) 0.07038(5) 0.588506(18)
N1 N 0.6113(3) 0.2918(4) 0.62921(13)
N2 N 0.9844(3) 0.6713(4) 0.32349(15)
N3 N 0.7926(3) -0.0425(4) 0.65028(14)
O1 O 0.7508(3) 0.1460(3) 0.54297(11)
O2 O 0.6309(3) 0.2895(3) 0.47561(12)
O3 O 1.4790(2) -0.0169(3) 0.63513(11)
O4 O 1.3254(3) 0.0938(3) 0.57362(11)
C1 C 0.7351(4) 0.2393(5) 0.49830(15)
C2 C 0.8603(4) 0.2910(4) 0.47287(15)
C3 C 0.8596(4) 0.4060(4) 0.42813(16)
H1 H 0.7818 0.4517 0.4132
C4 C 0.9761(4) 0.4526(4) 0.40576(16)
C5 C 1.0934(4) 0.3829(5) 0.42736(16)
H2 H 1.1711 0.4148 0.4122
C6 C 1.0927(4) 0.2663(5) 0.47138(17)
H3 H 1.1701 0.2178 0.4856
C7 C 0.9772(4) 0.2215(5) 0.49442(15)
H4 H 0.9775 0.1443 0.5246
C8 C 0.9787(4) 0.5751(5) 0.35967(18)
C9 C 1.3611(4) 0.0130(5) 0.61791(15)
C10 C 1.2596(3) -0.0585(4) 0.65510(15)
C11 C 1.1296(4) -0.0295(5) 0.64134(15)
H5 H 1.1043 0.0348 0.6089
C12 C 1.0366(4) -0.0956(4) 0.67557(16)
C13 C 1.0737(4) -0.1918(5) 0.72479(16)
H6 H 1.0114 -0.2365 0.7478
C14 C 1.2037(4) -0.2190(5) 0.73851(17)
H7 H 1.2291 -0.2820 0.7712
C15 C 1.2970(4) -0.1537(5) 0.70422(16)
H8 H 1.3844 -0.1733 0.7139
C16 C 0.9002(4) -0.0654(4) 0.66152(16)
C17 C 0.5234(4) 0.4075(5) 0.61276(18)
H9 H 0.4599 0.3815 0.5836
C18 C 0.5230(4) 0.5637(5) 0.63726(19)
H10 H 0.4613 0.6414 0.6243
C19 C 0.6145(4) 0.6023(5) 0.68084(17)
H11 H 0.6153 0.7061 0.6984
C20 C 0.7061(4) 0.4841(5) 0.69834(16)
H12 H 0.7704 0.5077 0.7274
C21 C 0.7002(4) 0.3301(5) 0.67179(16)
H13 H 0.7607 0.2503 0.6842
O5 O 0.5943(2) -0.1247(3) 0.53686(11)
H14 H 0.5141(15) -0.149(6) 0.5374(17)
H15 H 0.611(4) -0.114(6) 0.5009(7)
Cu1_2 Cu 1.61243(4) 0.07038(5) 0.588506(18)
O3_2 O 0.4790(2) -0.0169(3) 0.63513(11)
loop_
_geom_bond_atom_site_label_1
_geom_bond_atom_site_label_2
_geom_bond_site_symmetry_1
_geom_bond_site_symmetry_2
Cu1 N1 1_555 1_555
N1 C17 1_555 1_555
N2 C8 1_555 1_555
N3 Cu1 1_555 1_555
O1 Cu1 1_555 1_555
O2 C1 1_555 1_555
O3 C9 1_555 1_555
O4 C9 1_555 1_555
C1 O1 1_555 1_555
C2 C1 1_555 1_555
C3 C2 1_555 1_555
H1 C3 1_555 1_555
C4 C3 1_555 1_555
C5 C4 1_555 1_555
H2 C5 1_555 1_555
C6 C5 1_555 1_555
H3 C6 1_555 1_555
C7 C2 1_555 1_555
H4 C7 1_555 1_555
C8 C4 1_555 1_555
C9 C10 1_555 1_555
C10 C11 1_555 1_555
C11 H5 1_555 1_555
C12 C11 1_555 1_555
C13 C12 1_555 1_555
H6 C13 1_555 1_555
C14 C13 1_555 1_555
H7 C14 1_555 1_555
C15 C10 1_555 1_555
H8 C15 1_555 1_555
C16 N3 1_555 1_555
C17 H9 1_555 1_555
C18 C17 1_555 1_555
H10 C18 1_555 1_555
C19 C18 1_555 1_555
H11 C19 1_555 1_555
C20 C19 1_555 1_555
H12 C20 1_555 1_555
C21 N1 1_555 1_555
H13 C21 1_555 1_555
O5 Cu1 1_555 1_555
H14 O5 1_555 1_555
H15 O5 1_555 1_555
Cu1_2 O3 1_555 1_555
O3_2 Cu1 1_555 1_555
C6 C7 1_555 1_555
C12 C16 1_555 1_555
C14 C15 1_555 1_555
C20 C21 1_555 1_555

#END
