
#######################################################################
#
#                 Cambridge Crystallographic Data Centre
#                                CCDC 
#
#######################################################################
#
# If this CIF has been generated from an entry in the Cambridge 
# Structural Database, then it will include bibliographic, chemical, 
# crystal, experimental, refinement or atomic coordinate data resulting 
# from the CCDC's data processing and validation procedures.
#
#######################################################################

data_XATCOK
_symmetry_cell_setting           triclinic
_symmetry_space_group_name_H-M   'P -1'
_symmetry_Int_Tables_number      2
_space_group_name_Hall           '-P 1'
loop_
_symmetry_equiv_pos_site_id
_symmetry_equiv_pos_as_xyz
1 x,y,z
2 -x,-y,-z
_cell_length_a                   10.509(3)
_cell_length_b                   11.438(2)
_cell_length_c                   12.628(2)
_cell_angle_alpha                69.77(1)
_cell_angle_beta                 71.27(2)
_cell_angle_gamma                89.80(2)
_cell_volume                     1338.93
loop_
_atom_site_label
_atom_site_type_symbol
_atom_site_fract_x
_atom_site_fract_y
_atom_site_fract_z
Eu1 Eu 0.10466(1) 0.06383(1) 0.12533(1)
O1 O -0.1458(5) 0.0153(5) 0.2062(4)
O2 O -0.0668(5) 0.1671(5) 0.2459(4)
O3 O 0.0277(5) 0.2256(5) -0.0099(4)
O4 O -0.0519(5) 0.1193(4) -0.0979(4)
N1 N -0.5666(6) 0.1613(5) 0.4110(5)
N2 N -0.9070(6) 0.4393(5) 0.3208(5)
C1 C -0.1634(7) 0.0998(7) 0.2497(6)
C2 C -0.3048(7) 0.1203(6) 0.3085(6)
C3 C -0.3328(7) 0.2096(7) 0.3630(7)
C4 C -0.4638(8) 0.2300(7) 0.4119(6)
C5 C -0.4145(7) 0.0508(7) 0.3123(7)
C6 C -0.5451(7) 0.0718(7) 0.3630(6)
C7 C -0.7070(7) 0.1906(7) 0.4593(6)
C8 C -0.7334(7) 0.3030(7) 0.3634(7)
C9 C -0.8824(7) 0.3218(7) 0.4033(7)
C10 C -0.9533(8) 0.4388(7) 0.2330(7)
C11 C -0.9754(8) 0.5492(7) 0.1557(7)
C12 C -0.8830(9) 0.5466(7) 0.3345(7)
C13 C -0.9020(8) 0.6593(7) 0.2581(6)
C14 C -0.9506(7) 0.6617(6) 0.1681(6)
C15 C -0.0224(7) 0.2175(6) -0.0849(5)
O5 O 0.3068(6) -0.0419(6) 0.1337(5)
O6 O 0.2513(5) 0.0852(5) -0.0773(4)
O7 O 0.2537(6) 0.2533(5) 0.0655(5)
N3 N 0.1108(6) -0.0346(5) 0.3739(5)
O12 O 0.0384(5) -0.0915(5) 0.3403(4)
O13 O 0.1763(5) 0.0696(5) 0.2984(4)
O14 O 0.1211(6) -0.0768(5) 0.4740(4)
C15A C -0.9776(7) 0.7825(6) 0.0849(5)
O4A O 0.0519(5) -0.1193(4) 0.0979(4)
C14A C -0.0494(7) 0.3383(6) -0.1681(6)
O3A O -1.0277(5) 0.7744(5) 0.0099(4)
O4A_2 O -0.9481(5) 0.8807(4) 0.0979(4)
Eu1A Eu -1.10466(1) 0.93617(1) -0.12533(1)
Eu1_2 Eu -0.89534(1) 1.06383(1) 0.12533(1)
C11A C -0.0246(8) 0.4508(7) -0.1557(7)
C13A C -0.0980(8) 0.3407(7) -0.2581(6)
C10A C -0.0467(8) 0.5612(7) -0.2330(7)
C12A C -0.1170(9) 0.4534(7) -0.3345(7)
N2A N -0.0930(6) 0.5607(5) -0.3208(5)
C9A C -0.1176(7) 0.6782(7) -0.4033(7)
C8A C -0.2666(7) 0.6970(7) -0.3634(7)
C7A C -0.2930(7) 0.8094(7) -0.4593(6)
N1A N -0.4334(6) 0.8387(5) -0.4110(5)
C4A C -0.5362(8) 0.7700(7) -0.4119(6)
C6A C -0.4549(7) 0.9282(7) -0.3630(6)
C5A C -0.5855(7) 0.9492(7) -0.3123(7)
C3A C -0.6672(7) 0.7904(7) -0.3630(7)
C2A C -0.6952(7) 0.8797(6) -0.3085(6)
C1A C -0.8366(7) 0.9002(7) -0.2497(6)
O1A O -0.8542(5) 0.9847(5) -0.2062(4)
O2A O -0.9332(5) 0.8329(5) -0.2459(4)
Eu1A_2 Eu -0.10466(1) -0.06383(1) -0.12533(1)
O4_2 O -1.0519(5) 1.1193(4) -0.0979(4)
O5A O -1.3068(6) 1.0419(6) -0.1337(5)
O6A O -1.2513(5) 0.9148(5) 0.0773(4)
O7A O -1.2537(6) 0.7467(5) -0.0655(5)
O12A O -1.0384(5) 1.0915(5) -0.3403(4)
O13A O -1.1763(5) 0.9304(5) -0.2984(4)
N3A N -1.1108(6) 1.0346(5) -0.3739(5)
O14A O -1.1211(6) 1.0768(5) -0.4740(4)
O8 O 0.7418(11) 0.4986(8) 0.0930(7)
O9 O 0.4355(9) 0.2986(8) 0.7691(8)
O10 O 0.6312(8) 0.1884(7) 0.6660(6)
O11 O 0.4610(33) 0.5489(32) 0.1370(31)
N4 N 0.5834(11) 0.2500(14) 0.0476(11)
O15 O 0.5532(12) 0.1827(16) 0.0059(15)
O16 O 0.6990(9) 0.2749(12) 0.0458(9)
O17 O 0.4939(11) 0.2947(12) 0.1086(9)
N5 N 0.7224(11) 0.5028(10) 0.4168(9)
O18 O 0.7297(15) 0.5976(11) 0.4298(12)
O19 O 0.6736(11) 0.4979(9) 0.3390(10)
O20 O 0.7813(9) 0.4115(9) 0.4618(7)
loop_
_geom_bond_atom_site_label_1
_geom_bond_atom_site_label_2
_geom_bond_site_symmetry_1
_geom_bond_site_symmetry_2
Eu1 O1 1_555 1_555
O1 C1 1_555 1_555
O2 Eu1 1_555 1_555
O3 Eu1 1_555 1_555
O4 C15 1_555 1_555
N1 C4 1_555 1_555
N2 C9 1_555 1_555
C1 O2 1_555 1_555
C2 C1 1_555 1_555
C3 C2 1_555 1_555
C4 C3 1_555 1_555
C5 C2 1_555 1_555
C6 N1 1_555 1_555
C7 N1 1_555 1_555
C8 C7 1_555 1_555
C9 C8 1_555 1_555
C10 N2 1_555 1_555
C11 C10 1_555 1_555
C12 N2 1_555 1_555
C13 C12 1_555 1_555
C14 C11 1_555 1_555
C15 O3 1_555 1_555
O5 Eu1 1_555 1_555
O6 Eu1 1_555 1_555
O7 Eu1 1_555 1_555
N3 O12 1_555 1_555
O12 Eu1 1_555 1_555
O13 Eu1 1_555 1_555
O14 N3 1_555 1_555
N4 O15 1_555 1_555
O16 N4 1_555 1_555
O17 N4 1_555 1_555
N5 O18 1_555 1_555
O19 N5 1_555 1_555
O20 N5 1_555 1_555
C15A C14 1_555 1_555
O4A Eu1 1_555 1_555
C14A C15 1_555 1_555
O3A C15A 1_555 1_555
O4A_2 C15A 1_555 1_555
Eu1A O3A 1_555 1_555
Eu1_2 O4A_2 1_555 1_555
C11A C14A 1_555 1_555
C13A C14A 1_555 1_555
C10A C11A 1_555 1_555
C12A C13A 1_555 1_555
N2A C10A 1_555 1_555
C9A N2A 1_555 1_555
C8A C9A 1_555 1_555
C7A C8A 1_555 1_555
N1A C7A 1_555 1_555
C4A N1A 1_555 1_555
C6A N1A 1_555 1_555
C5A C6A 1_555 1_555
C3A C4A 1_555 1_555
C2A C5A 1_555 1_555
C1A C2A 1_555 1_555
O1A Eu1A 1_555 1_555
O2A Eu1A 1_555 1_555
Eu1A_2 O4 1_555 1_555
O4_2 Eu1A 1_555 1_555
O5A Eu1A 1_555 1_555
O6A Eu1A 1_555 1_555
O7A Eu1A 1_555 1_555
O12A Eu1A 1_555 1_555
O13A Eu1A 1_555 1_555
N3A O12A 1_555 1_555
O14A N3A 1_555 1_555
C5 C6 1_555 1_555
C13 C14 1_555 1_555
N3 O13 1_555 1_555
C12A N2A 1_555 1_555
C3A C2A 1_555 1_555
C1A O1A 1_555 1_555
C1A O2A 1_555 1_555
O13A N3A 1_555 1_555

#END
