
#######################################################################
#
#                 Cambridge Crystallographic Data Centre
#                                CCDC 
#
#######################################################################
#
# If this CIF has been generated from an entry in the Cambridge 
# Structural Database, then it will include bibliographic, chemical, 
# crystal, experimental, refinement or atomic coordinate data resulting 
# from the CCDC's data processing and validation procedures.
#
#######################################################################

data_XATNIP01
_symmetry_cell_setting           monoclinic
_symmetry_space_group_name_H-M   'P 2/c'
_symmetry_Int_Tables_number      13
_space_group_name_Hall           '-P 2yc'
loop_
_symmetry_equiv_pos_site_id
_symmetry_equiv_pos_as_xyz
1 x,y,z
2 -x,y,1/2-z
3 -x,-y,-z
4 x,-y,1/2+z
_cell_length_a                   13.934(3)
_cell_length_b                   4.7842(11)
_cell_length_c                   9.276(2)
_cell_angle_alpha                90
_cell_angle_beta                 90.628(5)
_cell_angle_gamma                90
_cell_volume                     618.329
loop_
_atom_site_label
_atom_site_type_symbol
_atom_site_fract_x
_atom_site_fract_y
_atom_site_fract_z
Zn1 Zn 0.25083(5) -0.00955(15) 0.00677(8)
O1 O 0.1373(4) 0.1317(13) 0.1064(5)
O2 O 0.2136(4) -0.0014(11) 0.3016(6)
O3 O 0.2852(4) -0.4062(11) 0.0211(6)
O4 O 0.3645(4) -0.7942(10) 0.0626(6)
C1 C 0.1455(5) 0.1277(16) 0.2415(7)
C2 C 0.0753(5) 0.2864(17) 0.3325(8)
H1 H 0.1108 0.4116 0.3939
H2 H 0.0429 0.1555 0.3935
C3 C 0.0000 0.455(2) 0.2500
H3 H -0.0324 0.5737 0.3172
H4 H 0.0324 0.5737 0.1828
C4 C 0.3548(5) -0.5332(14) 0.0774(8)
C5 C 0.4294(6) -0.3800(15) 0.1667(8)
H5 H 0.4649 -0.2602 0.1037
H6 H 0.3966 -0.2623 0.2340
C6 C 0.5000 -0.559(2) 0.2500
H7 H 0.4659 -0.6769 0.3157
H8 H 0.5341 -0.6770 0.1843
Zn1A Zn -0.25083(5) -0.00955(15) 0.49323(8)
Zn1C Zn 0.25083(5) 0.00955(15) 0.50677(8)
Zn1_2 Zn 0.25083(5) -1.00955(15) 0.00677(8)
Zn1B Zn -0.25083(5) 0.00955(15) -0.00677(8)
Zn1A_2 Zn 0.74917(5) -0.00955(15) 0.49323(8)
Zn1A_3 Zn 0.74917(5) -1.00955(15) 0.49323(8)
O1A O -0.1373(4) 0.1317(13) 0.3936(5)
O2A O -0.2136(4) -0.0014(11) 0.1984(6)
O2C O 0.2136(4) 0.0014(11) -0.1984(6)
O2B O -0.2136(4) 0.0014(11) 0.6984(6)
O3A O 0.7148(4) -0.4062(11) 0.4789(6)
O3A_2 O -0.2852(4) -0.4062(11) 0.4789(6)
O4A O 0.6355(4) -0.7942(10) 0.4374(6)
O4_2 O 0.3645(4) 0.2058(10) 0.0626(6)
O4A_2 O -0.3645(4) 0.2058(10) 0.4374(6)
C1A C -0.1455(5) 0.1277(16) 0.2585(7)
C2A C -0.0753(5) 0.2864(17) 0.1675(8)
H1A H -0.1108 0.4116 0.1061
H2A H -0.0429 0.1555 0.1065
C4A C 0.6452(5) -0.5332(14) 0.4226(8)
C5A C 0.5706(6) -0.3800(15) 0.3333(8)
H5A H 0.5351 -0.2602 0.3963
H6A H 0.6034 -0.2623 0.2660
loop_
_geom_bond_atom_site_label_1
_geom_bond_atom_site_label_2
_geom_bond_site_symmetry_1
_geom_bond_site_symmetry_2
Zn1 O1 1_555 1_555
O1 C1 1_555 1_555
O2 C1 1_555 1_555
O3 Zn1 1_555 1_555
O4 C4 1_555 1_555
C1 C2 1_555 1_555
C2 H1 1_555 1_555
H2 C2 1_555 1_555
C3 C2 1_555 1_555
H3 C3 1_555 1_555
H4 C3 1_555 1_555
C4 O3 1_555 1_555
C5 C4 1_555 1_555
H5 C5 1_555 1_555
H6 C5 1_555 1_555
C6 C5 1_555 1_555
H7 C6 1_555 1_555
H8 C6 1_555 1_555
Zn1A O1A 1_555 1_555
Zn1C O2 1_555 1_555
Zn1_2 O4 1_555 1_555
Zn1B O2A 1_555 1_555
Zn1A_2 O3A 1_555 1_555
Zn1A_3 O4A 1_555 1_555
O1A C1A 1_555 1_555
O2A C1A 1_555 1_555
O2C Zn1 1_555 1_555
O2B Zn1A 1_555 1_555
O3A C4A 1_555 1_555
O3A_2 Zn1A 1_555 1_555
O4A C4A 1_555 1_555
O4_2 Zn1 1_555 1_555
O4A_2 Zn1A 1_555 1_555
C1A C2A 1_555 1_555
C2A C3 1_555 1_555
H1A C2A 1_555 1_555
H2A C2A 1_555 1_555
C4A C5A 1_555 1_555
C5A C6 1_555 1_555
H5A C5A 1_555 1_555
H6A C5A 1_555 1_555

#END
