
#######################################################################
#
#                 Cambridge Crystallographic Data Centre
#                                CCDC 
#
#######################################################################
#
# If this CIF has been generated from an entry in the Cambridge 
# Structural Database, then it will include bibliographic, chemical, 
# crystal, experimental, refinement or atomic coordinate data resulting 
# from the CCDC's data processing and validation procedures.
#
#######################################################################

data_XATNIP
_symmetry_cell_setting           monoclinic
_symmetry_space_group_name_H-M   'P 2/c'
_symmetry_Int_Tables_number      13
_space_group_name_Hall           '-P 2yc'
loop_
_symmetry_equiv_pos_site_id
_symmetry_equiv_pos_as_xyz
1 x,y,z
2 -x,y,1/2-z
3 -x,-y,-z
4 x,-y,1/2+z
_cell_length_a                   13.933(2)
_cell_length_b                   4.7820(10)
_cell_length_c                   9.281(2)
_cell_angle_alpha                90
_cell_angle_beta                 90.620(10)
_cell_angle_gamma                90
_cell_volume                     618.335
loop_
_atom_site_label
_atom_site_type_symbol
_atom_site_fract_x
_atom_site_fract_y
_atom_site_fract_z
Zn1 Zn 0.24903(3) 0.00934(8) -0.00669(4)
C1 C 0.3542(2) -0.1291(8) -0.2410(4)
C2 C 0.4248(2) -0.2866(9) -0.3323(4)
C3 C 0.5000 -0.4578(12) -0.2500
C4 C 0.1453(3) 0.5337(7) -0.0782(4)
C5 C 0.0702(3) 0.3784(8) -0.1667(5)
C6 C 0.0000 0.5600(12) -0.2500
O1 O 0.36293(19) -0.1306(6) -0.1060(3)
O2 O 0.2852(2) 0.0017(5) -0.3020(3)
O3 O 0.2142(2) 0.4051(6) -0.0215(3)
O4 O 0.13521(18) 0.7948(5) -0.0619(3)
H1 H 0.391(4) -0.396(12) -0.402(6)
H2 H 0.454(4) -0.138(11) -0.404(5)
H3 H 0.471(5) -0.569(14) -0.169(8)
H4 H 0.030(4) 0.252(13) -0.120(6)
H5 H 0.109(5) 0.266(15) -0.228(8)
H6 H -0.035(3) 0.682(10) -0.183(5)
C2A C 0.5752(2) -0.2866(9) -0.1677(4)
C1A C 0.6458(2) -0.1291(8) -0.2590(4)
O1A O 0.63707(19) -0.1306(6) -0.3940(3)
O2A O 0.7148(2) 0.0017(5) -0.1980(3)
H1A H 0.609(4) -0.396(12) -0.098(6)
H2A H 0.546(4) -0.138(11) -0.096(5)
H3A H 0.529(5) -0.569(14) -0.331(8)
C5A C -0.0702(3) 0.3784(8) -0.3333(5)
C4A C -0.1453(3) 0.5337(7) -0.4218(4)
O3A O -0.2142(2) 0.4051(6) -0.4785(3)
O4A O -0.13521(18) 0.7948(5) -0.4381(3)
H4A H -0.030(4) 0.252(13) -0.380(6)
H5A H -0.109(5) 0.266(15) -0.272(8)
H6A H 0.035(3) 0.682(10) -0.317(5)
Zn1A Zn 0.75097(3) 0.00934(8) -0.49331(4)
O2C O 0.2852(2) -0.0017(5) 0.1980(3)
O4_2 O 0.13521(18) -0.2052(5) -0.0619(3)
Zn1C Zn 0.24903(3) -0.00934(8) -0.50669(4)
Zn1_2 Zn 0.24903(3) 1.00934(8) -0.00669(4)
Zn1B Zn 0.75097(3) -0.00934(8) 0.00669(4)
Zn1A_2 Zn -0.24903(3) 0.00934(8) -0.49331(4)
Zn1A_3 Zn -0.24903(3) 1.00934(8) -0.49331(4)
O2B O 0.7148(2) -0.0017(5) -0.6980(3)
O3A_2 O 0.7858(2) 0.4051(6) -0.4785(3)
O4A_2 O 0.86479(18) -0.2052(5) -0.4381(3)
loop_
_geom_bond_atom_site_label_1
_geom_bond_atom_site_label_2
_geom_bond_site_symmetry_1
_geom_bond_site_symmetry_2
Zn1 O1 1_555 1_555
C1 C2 1_555 1_555
C2 C3 1_555 1_555
C3 H3 1_555 1_555
C4 C5 1_555 1_555
C5 C6 1_555 1_555
C6 H6 1_555 1_555
O1 C1 1_555 1_555
O2 C1 1_555 1_555
O3 Zn1 1_555 1_555
O4 C4 1_555 1_555
H1 C2 1_555 1_555
H2 C2 1_555 1_555
H4 C5 1_555 1_555
H5 C5 1_555 1_555
C2A C3 1_555 1_555
C1A C2A 1_555 1_555
O1A C1A 1_555 1_555
O2A C1A 1_555 1_555
H1A C2A 1_555 1_555
H2A C2A 1_555 1_555
H3A C3 1_555 1_555
C5A C6 1_555 1_555
C4A C5A 1_555 1_555
O3A C4A 1_555 1_555
O4A C4A 1_555 1_555
H4A C5A 1_555 1_555
H5A C5A 1_555 1_555
H6A C6 1_555 1_555
Zn1A O1A 1_555 1_555
O2C Zn1 1_555 1_555
O4_2 Zn1 1_555 1_555
Zn1C O2 1_555 1_555
Zn1_2 O4 1_555 1_555
Zn1B O2A 1_555 1_555
Zn1A_2 O3A 1_555 1_555
Zn1A_3 O4A 1_555 1_555
O2B Zn1A 1_555 1_555
O3A_2 Zn1A 1_555 1_555
O4A_2 Zn1A 1_555 1_555
C4 O3 1_555 1_555

#END
