
#######################################################################
#
#                 Cambridge Crystallographic Data Centre
#                                CCDC 
#
#######################################################################
#
# If this CIF has been generated from an entry in the Cambridge 
# Structural Database, then it will include bibliographic, chemical, 
# crystal, experimental, refinement or atomic coordinate data resulting 
# from the CCDC's data processing and validation procedures.
#
#######################################################################

data_XATRIU01
_symmetry_cell_setting           triclinic
_symmetry_space_group_name_H-M   'P -1'
_symmetry_Int_Tables_number      2
_space_group_name_Hall           '-P 1'
loop_
_symmetry_equiv_pos_site_id
_symmetry_equiv_pos_as_xyz
1 x,y,z
2 -x,-y,-z
_cell_length_a                   6.7190(10)
_cell_length_b                   8.1323(13)
_cell_length_c                   10.5527(16)
_cell_angle_alpha                95.083(2)
_cell_angle_beta                 100.796(2)
_cell_angle_gamma                103.617(2)
_cell_volume                     545.139
loop_
_atom_site_label
_atom_site_type_symbol
_atom_site_fract_x
_atom_site_fract_y
_atom_site_fract_z
C1 C -0.2189(9) 0.0784(9) 0.0301(6)
C2 C -0.2881(9) 0.1392(9) 0.3064(6)
C3 C -0.2691(9) 0.2728(9) 0.2167(6)
C4 C -0.2851(11) 0.4316(10) 0.2665(7)
H1 H -0.3039 0.4507 0.3511
C5 C -0.2729(11) 0.5626(10) 0.1893(8)
H2 H -0.2780 0.6705 0.2235
C6 C -0.2537(12) 0.5325(10) 0.0644(9)
H3 H -0.2475 0.6201 0.0131
C7 C -0.2433(11) 0.3733(10) 0.0121(7)
H4 H -0.2335 0.3537 -0.0744
C8 C -0.2474(9) 0.2430(9) 0.0888(6)
O1 O 0.1232(9) -0.1418(7) 0.3124(6)
O2 O 0.2242(8) 0.2800(7) 0.2380(5)
O3 O -0.1358(7) 0.0826(7) 0.3517(5)
O4 O -0.1248(7) -0.0090(6) 0.1012(4)
O5 O -0.2881(7) 0.0340(7) -0.0896(5)
O6 O -0.4612(7) 0.0889(6) 0.3399(4)
O7 O 0.2752(7) 0.1754(6) 0.5011(5)
H5 H 0.4075 0.1952 0.5259
H6 H 0.2383 0.2674 0.5143
U1 U 0.17405(3) 0.06728(2) 0.272122(18)
O5A O 0.2881(7) -0.0340(7) 0.0896(5)
O6_2 O 0.5388(7) 0.0889(6) 0.3399(4)
U1_2 U -0.82595(3) 0.06728(2) 0.272122(18)
U1A U -0.17405(3) -0.06728(2) -0.272122(18)
O8 O 0.3422(9) 0.6136(8) 0.4024(7)
H7 H 0.2510 0.6578 0.3616
H8 H 0.3467 0.6309 0.4837
loop_
_geom_bond_atom_site_label_1
_geom_bond_atom_site_label_2
_geom_bond_site_symmetry_1
_geom_bond_site_symmetry_2
C1 C8 1_555 1_555
C2 C3 1_555 1_555
C3 C4 1_555 1_555
C4 H1 1_555 1_555
C5 C4 1_555 1_555
H2 C5 1_555 1_555
C6 C5 1_555 1_555
H3 C6 1_555 1_555
C7 C6 1_555 1_555
H4 C7 1_555 1_555
C8 C3 1_555 1_555
O1 U1 1_555 1_555
O2 U1 1_555 1_555
O3 C2 1_555 1_555
O4 C1 1_555 1_555
O5 C1 1_555 1_555
O6 C2 1_555 1_555
O7 H5 1_555 1_555
H6 O7 1_555 1_555
U1 O3 1_555 1_555
O8 H7 1_555 1_555
H8 O8 1_555 1_555
O5A U1 1_555 1_555
O6_2 U1 1_555 1_555
U1_2 O6 1_555 1_555
U1A O5 1_555 1_555
C7 C8 1_555 1_555
O4 U1 1_555 1_555
O7 U1 1_555 1_555

#END
