
#######################################################################
#
#                 Cambridge Crystallographic Data Centre
#                                CCDC 
#
#######################################################################
#
# If this CIF has been generated from an entry in the Cambridge 
# Structural Database, then it will include bibliographic, chemical, 
# crystal, experimental, refinement or atomic coordinate data resulting 
# from the CCDC's data processing and validation procedures.
#
#######################################################################

data_XATRIU
_symmetry_cell_setting           triclinic
_symmetry_space_group_name_H-M   'P -1'
_symmetry_Int_Tables_number      2
_space_group_name_Hall           '-P 1'
loop_
_symmetry_equiv_pos_site_id
_symmetry_equiv_pos_as_xyz
1 x,y,z
2 -x,-y,-z
_cell_length_a                   6.757(1)
_cell_length_b                   8.150(1)
_cell_length_c                   10.632(2)
_cell_angle_alpha                95.24(2)
_cell_angle_beta                 100.76(2)
_cell_angle_gamma                103.75(1)
_cell_volume                     553.043
loop_
_atom_site_label
_atom_site_type_symbol
_atom_site_fract_x
_atom_site_fract_y
_atom_site_fract_z
U1 U 0.17405(4) 0.06729(4) 0.27212(3)
O1 O 0.2235(9) 0.2798(8) 0.2390(7)
O2 O 0.1227(10) -0.1427(8) 0.3113(7)
O3 O -0.1253(9) -0.0103(8) 0.1008(6)
O4 O -0.2881(10) 0.0340(9) -0.0897(6)
O5 O -0.1358(9) 0.0819(9) 0.3519(7)
O6 O -0.4601(8) 0.0884(8) 0.3404(6)
O7 O 0.2765(10) 0.1768(9) 0.5011(6)
H1 H 0.400(8) 0.242(11) 0.531(10)
H2 H 0.247(15) 0.114(11) 0.558(8)
C1 C -0.2472(11) 0.2437(10) 0.0902(8)
C2 C -0.2690(11) 0.2716(11) 0.2181(8)
C3 C -0.2831(14) 0.4340(12) 0.2658(10)
H3 H -0.2990 0.4548 0.3504
C4 C -0.2739(15) 0.5642(12) 0.1894(12)
H4 H -0.2852 0.6707 0.2217
C5 C -0.2483(14) 0.5332(12) 0.0682(11)
H5 H -0.2329 0.6227 0.0194
C6 C -0.2438(14) 0.3739(13) 0.0119(10)
H6 H -0.2388 0.3540 -0.0748
C7 C -0.2184(12) 0.0771(11) 0.0308(8)
C8 C -0.2885(11) 0.1393(11) 0.3070(8)
U1A U -0.17405(4) -0.06729(4) -0.27212(3)
U1_2 U -0.82595(4) 0.06729(4) 0.27212(3)
O4A O 0.2881(10) -0.0340(9) 0.0897(6)
O6_2 O 0.5399(8) 0.0884(8) 0.3404(6)
O8 O 0.6579(14) 0.3872(10) 0.5936(10)
H7 H 0.71(2) 0.483(12) 0.641(15)
H8 H 0.73(2) 0.325(18) 0.572(16)
loop_
_geom_bond_atom_site_label_1
_geom_bond_atom_site_label_2
_geom_bond_site_symmetry_1
_geom_bond_site_symmetry_2
U1 O1 1_555 1_555
O2 U1 1_555 1_555
O3 U1 1_555 1_555
O4 C7 1_555 1_555
O5 U1 1_555 1_555
O6 C8 1_555 1_555
O7 U1 1_555 1_555
H1 O7 1_555 1_555
H2 O7 1_555 1_555
C1 C2 1_555 1_555
C2 C3 1_555 1_555
C3 H3 1_555 1_555
C4 C3 1_555 1_555
H4 C4 1_555 1_555
C5 C4 1_555 1_555
H5 C5 1_555 1_555
C6 C1 1_555 1_555
H6 C6 1_555 1_555
C7 O3 1_555 1_555
C8 O5 1_555 1_555
O8 H7 1_555 1_555
H8 O8 1_555 1_555
U1A O4 1_555 1_555
U1_2 O6 1_555 1_555
O4A U1 1_555 1_555
O6_2 U1 1_555 1_555
C1 C7 1_555 1_555
C2 C8 1_555 1_555
C5 C6 1_555 1_555

#END
