
#######################################################################
#
#                 Cambridge Crystallographic Data Centre
#                                CCDC 
#
#######################################################################
#
# If this CIF has been generated from an entry in the Cambridge 
# Structural Database, then it will include bibliographic, chemical, 
# crystal, experimental, refinement or atomic coordinate data resulting 
# from the CCDC's data processing and validation procedures.
#
#######################################################################

data_XATYAS
_symmetry_cell_setting           monoclinic
_symmetry_space_group_name_H-M   'P 21/n'
_symmetry_Int_Tables_number      14
_space_group_name_Hall           '-P 2yn'
loop_
_symmetry_equiv_pos_site_id
_symmetry_equiv_pos_as_xyz
1 x,y,z
2 1/2-x,1/2+y,1/2-z
3 -x,-y,-z
4 1/2+x,1/2-y,1/2+z
_cell_length_a                   5.9400(10)
_cell_length_b                   8.2140(13)
_cell_length_c                   19.440(3)
_cell_angle_alpha                90
_cell_angle_beta                 92.180(14)
_cell_angle_gamma                90
_cell_volume                     947.814
loop_
_atom_site_label
_atom_site_type_symbol
_atom_site_fract_x
_atom_site_fract_y
_atom_site_fract_z
Cu1 Cu 0.50305(6) 0.25401(5) 0.078237(19)
O1 O 0.7924(4) 0.3746(3) 0.08189(12)
O2 O 0.2115(4) 0.1361(3) 0.08253(12)
O3 O -0.2957(4) 0.0030(3) 0.07239(13)
O4 O 1.2934(4) 0.5143(3) 0.07945(13)
N1 N 0.5177(5) 0.2505(3) 0.18011(16)
O5 O 0.4753(5) 0.2616(4) -0.02112(15)
C1 C 1.1340(5) 0.5067(4) 0.03585(17)
C2 C 0.0977(5) 0.0627(4) 0.03629(17)
C3 C -0.1332(5) 0.0013(4) 0.03258(17)
C4 C 0.9034(5) 0.4422(4) 0.03574(17)
C5 C 0.5384(10) 0.2403(6) 0.3227(2)
H1 H 0.5449 0.2371 0.3706
C6 C 0.3491(7) 0.3110(5) 0.2165(2)
H2 H 0.2244 0.3564 0.1933
C7 C 0.6943(7) 0.1872(5) 0.2145(2)
H3 H 0.8129 0.1473 0.1895
C8 C 0.3573(9) 0.3074(7) 0.2879(3)
H4 H 0.2392 0.3508 0.3120
C9 C 0.7108(9) 0.1775(6) 0.2857(2)
H5 H 0.8356 0.1297 0.3078
H6 H 0.443(8) 0.185(6) -0.040(2)
H7 H 0.534(9) 0.317(6) -0.042(3)
C4B C 1.0966(5) 0.5578(4) -0.03574(17)
O1B O 1.2076(4) 0.6254(3) -0.08189(12)
C1B C 0.8660(5) 0.4933(4) -0.03585(17)
O4B O 0.7066(4) 0.4857(3) -0.07945(13)
C2B C -0.0977(5) -0.0627(4) -0.03629(17)
O2B O -0.2115(4) -0.1361(3) -0.08253(12)
C3B C 0.1332(5) -0.0013(4) -0.03258(17)
O3B O 0.2957(4) -0.0030(3) -0.07239(13)
Cu1B Cu 1.49695(6) 0.74599(5) -0.078237(19)
N1B N 1.4823(5) 0.7495(3) -0.18011(16)
C5B C 1.4616(10) 0.7597(6) -0.3227(2)
H1B H 1.4551 0.7629 -0.3706
C6B C 1.6509(7) 0.6890(5) -0.2165(2)
H2B H 1.7756 0.6436 -0.1933
C7B C 1.3057(7) 0.8128(5) -0.2145(2)
H3B H 1.1871 0.8527 -0.1895
C8B C 1.6427(9) 0.6926(7) -0.2879(3)
H4B H 1.7608 0.6492 -0.3120
C9B C 1.2892(9) 0.8225(6) -0.2857(2)
H5B H 1.1644 0.8703 -0.3078
O5B O 1.5247(5) 0.7384(4) 0.02112(15)
H6B H 1.557(8) 0.815(6) 0.040(2)
H7B H 1.466(9) 0.683(6) 0.042(3)
O3_2 O 0.7043(4) 0.0030(3) 0.07239(13)
O4_2 O 0.2934(4) 0.5143(3) 0.07945(13)
Cu1_2 Cu -0.49695(6) 0.25401(5) 0.078237(19)
Cu1_3 Cu 1.50305(6) 0.25401(5) 0.078237(19)
Cu1B_2 Cu 0.49695(6) 0.74599(5) -0.078237(19)
Cu1B_3 Cu -0.50305(6) -0.25401(5) -0.078237(19)
Cu1B_4 Cu 0.49695(6) -0.25401(5) -0.078237(19)
O2B_2 O 1.7885(4) 0.8639(3) -0.08253(12)
O3B_2 O 1.2957(4) 0.9970(3) -0.07239(13)
O4B_2 O 1.7066(4) 0.4857(3) -0.07945(13)
loop_
_geom_bond_atom_site_label_1
_geom_bond_atom_site_label_2
_geom_bond_site_symmetry_1
_geom_bond_site_symmetry_2
Cu1 O1 1_555 1_555
O1 C4 1_555 1_555
O2 Cu1 1_555 1_555
O3 C3 1_555 1_555
O4 C1 1_555 1_555
N1 Cu1 1_555 1_555
O5 Cu1 1_555 1_555
C1 C4 1_555 1_555
C2 O2 1_555 1_555
C3 C2 1_555 1_555
C4 C1B 1_555 1_555
C5 H1 1_555 1_555
C6 N1 1_555 1_555
H2 C6 1_555 1_555
C7 N1 1_555 1_555
H3 C7 1_555 1_555
C8 C5 1_555 1_555
H4 C8 1_555 1_555
C9 C5 1_555 1_555
H5 C9 1_555 1_555
H6 O5 1_555 1_555
H7 O5 1_555 1_555
C4B C1 1_555 1_555
O1B C4B 1_555 1_555
C1B C4B 1_555 1_555
O4B C1B 1_555 1_555
C2B C3 1_555 1_555
O2B C2B 1_555 1_555
C3B C2 1_555 1_555
O3B C3B 1_555 1_555
Cu1B O1B 1_555 1_555
N1B Cu1B 1_555 1_555
C5B H1B 1_555 1_555
C6B N1B 1_555 1_555
H2B C6B 1_555 1_555
C7B N1B 1_555 1_555
H3B C7B 1_555 1_555
C8B C5B 1_555 1_555
H4B C8B 1_555 1_555
C9B C5B 1_555 1_555
H5B C9B 1_555 1_555
O5B Cu1B 1_555 1_555
H6B O5B 1_555 1_555
H7B O5B 1_555 1_555
O3_2 Cu1 1_555 1_555
O4_2 Cu1 1_555 1_555
Cu1_2 O3 1_555 1_555
Cu1_3 O4 1_555 1_555
Cu1B_2 O4B 1_555 1_555
Cu1B_3 O2B 1_555 1_555
Cu1B_4 O3B 1_555 1_555
O2B_2 Cu1B 1_555 1_555
O3B_2 Cu1B 1_555 1_555
O4B_2 Cu1B 1_555 1_555
C6 C8 1_555 1_555
C7 C9 1_555 1_555
C2B C3B 1_555 1_555
C6B C8B 1_555 1_555
C7B C9B 1_555 1_555

#END
