
#######################################################################
#
#                 Cambridge Crystallographic Data Centre
#                                CCDC 
#
#######################################################################
#
# If this CIF has been generated from an entry in the Cambridge 
# Structural Database, then it will include bibliographic, chemical, 
# crystal, experimental, refinement or atomic coordinate data resulting 
# from the CCDC's data processing and validation procedures.
#
#######################################################################

data_XAVBIG
_symmetry_cell_setting           monoclinic
_symmetry_space_group_name_H-M   'P 21/c'
_symmetry_Int_Tables_number      14
_space_group_name_Hall           '-P 2ybc'
loop_
_symmetry_equiv_pos_site_id
_symmetry_equiv_pos_as_xyz
1 x,y,z
2 -x,1/2+y,1/2-z
3 -x,-y,-z
4 x,1/2-y,1/2+z
_cell_length_a                   11.2341(6)
_cell_length_b                   6.7272(3)
_cell_length_c                   7.2149(3)
_cell_angle_alpha                90
_cell_angle_beta                 104.718(3)
_cell_angle_gamma                90
_cell_volume                     527.368
loop_
_atom_site_label
_atom_site_type_symbol
_atom_site_fract_x
_atom_site_fract_y
_atom_site_fract_z
Cu1 Cu 0.5000 0.0000 0.0000
Cl1 Cl 0.4225(4) 0.2110(7) -0.2444(6)
N1 N 0.800(2) 0.385(3) 0.125(2)
N2 N 0.841(1) 0.223(3) 0.054(2)
N3 N 0.780(2) 0.056(3) 0.062(2)
N4 N 0.676(2) 0.162(3) 0.061(2)
C1 C 0.678(2) 0.347(3) 0.064(3)
H1 H 0.611 0.499 0.039
C2 C 0.848(2) 0.575(2) 0.108(2)
H2 H 0.936 0.576 0.152
H3 H 0.825 0.617 -0.026
H4 H 0.814 0.670 0.180
Cu1A Cu 0.5000 0.5000 -0.5000
Cu1A_2 Cu 0.5000 0.5000 0.5000
Cl1C Cl 0.4225(4) 0.2890(7) 0.2556(6)
Cl1A Cl 0.5775(4) -0.2890(7) -0.2556(6)
Cl1B Cl 0.5775(4) -0.2110(7) 0.2444(6)
N1B N 0.200(2) -0.385(3) -0.125(2)
N2B N 0.159(1) -0.223(3) -0.054(2)
N3B N 0.220(2) -0.056(3) -0.062(2)
N4B N 0.324(2) -0.162(3) -0.061(2)
C1B C 0.322(2) -0.347(3) -0.064(3)
H1B H 0.389 -0.499 -0.039
C2B C 0.152(2) -0.575(2) -0.108(2)
H2B H 0.064 -0.576 -0.152
H3B H 0.175 -0.617 0.026
H4B H 0.186 -0.670 -0.180
loop_
_geom_bond_atom_site_label_1
_geom_bond_atom_site_label_2
_geom_bond_site_symmetry_1
_geom_bond_site_symmetry_2
Cu1 Cl1 1_555 1_555
Cl1 Cu1A 1_555 1_555
N1 N2 1_555 1_555
N2 N3 1_555 1_555
N3 N4 1_555 1_555
N4 Cu1 1_555 1_555
C1 N1 1_555 1_555
H1 C1 1_555 1_555
C2 N1 1_555 1_555
H2 C2 1_555 1_555
H3 C2 1_555 1_555
H4 C2 1_555 1_555
Cu1A_2 Cl1C 1_555 1_555
Cl1C Cu1 1_555 1_555
Cl1A Cu1 1_555 1_555
Cl1B Cu1 1_555 1_555
N1B N2B 1_555 1_555
N2B N3B 1_555 1_555
N3B N4B 1_555 1_555
N4B Cu1 1_555 1_555
C1B N1B 1_555 1_555
H1B C1B 1_555 1_555
C2B N1B 1_555 1_555
H2B C2B 1_555 1_555
H3B C2B 1_555 1_555
H4B C2B 1_555 1_555
N4 C1 1_555 1_555
N4B C1B 1_555 1_555

#END
