
#######################################################################
#
#                 Cambridge Crystallographic Data Centre
#                                CCDC 
#
#######################################################################
#
# If this CIF has been generated from an entry in the Cambridge 
# Structural Database, then it will include bibliographic, chemical, 
# crystal, experimental, refinement or atomic coordinate data resulting 
# from the CCDC's data processing and validation procedures.
#
#######################################################################

data_XAVBOM
_symmetry_cell_setting           monoclinic
_symmetry_space_group_name_H-M   'P 21'
_symmetry_Int_Tables_number      4
_space_group_name_Hall           'P 2yb'
loop_
_symmetry_equiv_pos_site_id
_symmetry_equiv_pos_as_xyz
1 x,y,z
2 -x,1/2+y,-z
_cell_length_a                   5.8924(8)
_cell_length_b                   6.2386(9)
_cell_length_c                   12.345(2)
_cell_angle_alpha                90
_cell_angle_beta                 95.553(3)
_cell_angle_gamma                90
_cell_volume                     451.677
loop_
_atom_site_label
_atom_site_type_symbol
_atom_site_fract_x
_atom_site_fract_y
_atom_site_fract_z
Sb1 Sb -0.0923(1) -0.0733(1) -0.1132(1)
F1 F -0.3591(2) -0.1117(2) -0.2145(1)
F2 F -0.2820(3) 0.1063(3) -0.0276(2)
F3 F -0.2080(3) -0.3074(3) -0.0275(2)
C1 C 0.0616(3) 0.4142(6) -0.2160(2)
C2 C 0.2969(3) 0.3134(4) -0.2257(2)
C3 C 0.3448(4) 0.2744(5) -0.3442(2)
C4 C 0.3524(7) 0.4766(7) -0.4099(3)
C5 C 0.1716(7) 0.1157(7) -0.3972(4)
O1 O -0.1023(3) 0.2872(3) -0.2064(2)
O2 O 0.0490(3) 0.6132(3) -0.2212(2)
N1 N 0.4729(3) 0.4580(4) -0.1699(2)
H1 H 0.615(6) 0.417(9) -0.184(3)
H2 H 0.458(7) 0.571(8) -0.190(4)
H3 H 0.444(6) 0.458(9) -0.099(3)
H4 H 0.308(6) 0.196(7) -0.184(3)
H5 H 0.465(7) 0.222(7) -0.346(4)
H6 H 0.462(8) 0.559(7) -0.386(4)
H7 H 0.357(6) 0.422(9) -0.475(3)
H8 H 0.222(8) 0.539(7) -0.405(4)
H9 H 0.205(7) 0.087(8) -0.467(4)
H10 H 0.180(7) -0.007(7) -0.356(4)
H11 H 0.064(7) 0.173(9) -0.391(3)
Sb1_2 Sb -0.0923(1) 0.9267(1) -0.1132(1)
O2_2 O 0.0490(3) -0.3868(3) -0.2212(2)
loop_
_geom_bond_atom_site_label_1
_geom_bond_atom_site_label_2
_geom_bond_site_symmetry_1
_geom_bond_site_symmetry_2
Sb1 F1 1_555 1_555
F2 Sb1 1_555 1_555
F3 Sb1 1_555 1_555
C1 C2 1_555 1_555
C2 C3 1_555 1_555
C3 C4 1_555 1_555
C4 H6 1_555 1_555
C5 C3 1_555 1_555
O1 Sb1 1_555 1_555
O2 C1 1_555 1_555
N1 C2 1_555 1_555
H1 N1 1_555 1_555
H2 N1 1_555 1_555
H3 N1 1_555 1_555
H4 C2 1_555 1_555
H5 C3 1_555 1_555
H7 C4 1_555 1_555
H8 C4 1_555 1_555
H9 C5 1_555 1_555
H10 C5 1_555 1_555
H11 C5 1_555 1_555
Sb1_2 O2 1_555 1_555
O2_2 Sb1 1_555 1_555
C1 O1 1_555 1_555

#END
