
#######################################################################
#
#                 Cambridge Crystallographic Data Centre
#                                CCDC 
#
#######################################################################
#
# If this CIF has been generated from an entry in the Cambridge 
# Structural Database, then it will include bibliographic, chemical, 
# crystal, experimental, refinement or atomic coordinate data resulting 
# from the CCDC's data processing and validation procedures.
#
#######################################################################

data_XAVDEF
_symmetry_cell_setting           orthorhombic
_symmetry_space_group_name_H-M   'P n 21 a'
_symmetry_Int_Tables_number      33
_space_group_name_Hall           'P -2ac -2n'
loop_
_symmetry_equiv_pos_site_id
_symmetry_equiv_pos_as_xyz
1 x,y,z
2 1/2-x,1/2+y,1/2+z
3 -x,1/2+y,-z
4 1/2+x,y,1/2-z
_cell_length_a                   20.4563(33)
_cell_length_b                   15.6609(19)
_cell_length_c                   14.4447(16)
_cell_angle_alpha                90
_cell_angle_beta                 90
_cell_angle_gamma                90
_cell_volume                     4627.56
loop_
_atom_site_label
_atom_site_type_symbol
_atom_site_fract_x
_atom_site_fract_y
_atom_site_fract_z
C1 C 0.617(7) 0.137(7) 0.330(7)
C2 C 0.727(6) 0.183(9) 0.343(9)
C3 C 0.680(8) 0.132(5) 0.302(5)
C4 C 0.599(5) 0.193(8) 0.399(9)
C5 C 0.709(4) 0.239(7) 0.411(7)
C6 C 0.645(4) 0.244(4) 0.439(4)
C7 C 0.678(9) 0.356(7) 0.552(6)
C8 C 0.627(7) 0.300(6) 0.508(6)
C9 C 0.639(5) 0.292(6) 0.109(5)
C10 C 0.6561(31) 0.389(6) 0.233(6)
C11 C 0.680(4) 0.339(7) 0.163(6)
C12 C 0.573(5) 0.295(5) 0.125(5)
C13 C 0.5901(32) 0.392(4) 0.248(4)
C14 C 0.5485(33) 0.3448(33) 0.194(4)
C15 C 0.456(4) 0.403(7) 0.286(7)
C16 C 0.4825(32) 0.348(6) 0.210(6)
V1 V 0.7205(23) 0.258(6) 0.764(4)
V2 V 0.6045(33) 0.754(6) 1.270(4)
V3 V 0.568(4) 0.256(5) 0.765(6)
O1 O 0.645(6) 0.271(8) 0.690(6)
O2 O 0.53896 0.74187 1.23578
O3 O 0.80827 0.24186 0.797
C17 C 0.5051(15) 0.4360(9) 1.5643(11)
C18 C 0.4447(8) 0.4638(13) 1.5364(13)
C19 C 0.4396(6) 0.5278(13) 1.4721(14)
C20 C 0.5604(6) 0.4722(13) 1.5279(14)
C21 C 0.5553(8) 0.5362(13) 1.4636(13)
C22 C 0.4949(15) 0.5640(9) 1.4357(11)
C23 C 0.5106(31) 0.3660(20) 1.6347(23)
C24 C 0.4894(31) 0.6340(20) 1.3653(23)
O4 O 0.568(4) 0.3396(27) 1.6612(32)
O5 O 0.542(4) 0.6683(27) 1.3308(29)
O6 O 0.458(4) 0.3317(27) 1.6692(29)
O7 O 0.432(4) 0.6604(27) 1.3388(32)
C25 C 0.664(4) 0.4360(9) 0.9364(10)
C26 C 0.610(4) 0.4749(14) 0.9751(14)
C27 C 0.618(4) 0.5389(13) 1.0387(13)
C28 C 0.725(4) 0.4611(13) 0.9613(13)
C29 C 0.733(4) 0.5251(14) 1.0249(14)
C30 C 0.680(5) 0.5640(9) 1.0636(10)
C31 C 0.654(5) 0.3659(18) 0.8668(21)
C32 C 0.689(5) 0.6341(18) 1.1332(21)
O8 O 0.705(6) 0.3290(23) 0.8301(28)
O9 O 0.748(6) 0.6579(27) 1.1569(30)
O10 O 0.596(5) 0.3421(27) 0.8431(30)
O11 O 0.638(6) 0.6710(23) 1.1699(28)
C33 C 0.836(4) 0.4360(9) 0.5646(10)
C34 C 0.778(4) 0.4678(15) 0.5324(16)
C35 C 0.778(4) 0.5319(15) 0.4678(15)
C36 C 0.894(4) 0.4681(15) 0.5322(15)
C37 C 0.894(4) 0.5322(15) 0.4676(16)
C38 C 0.836(4) 0.5640(9) 0.4354(10)
C39 C 0.836(5) 0.3659(18) 0.6354(21)
C40 C 0.836(6) 0.6341(18) 0.3646(21)
O12 O 0.891(5) 0.3356(27) 0.6659(29)
O13 O 0.891(6) 0.6646(26) 0.3338(30)
O14 O 0.781(5) 0.3354(26) 0.6662(30)
O15 O 0.780(6) 0.6644(27) 0.3341(29)
V1A V 0.7795(23) 0.758(6) 0.264(4)
V2A V 0.8955(33) 0.254(6) 0.770(4)
V2B V 0.3955(33) 0.254(6) 1.730(4)
V3B V 0.432(4) 0.756(5) 1.235(6)
V3_2 V 0.568(4) 0.256(5) 1.765(6)
V3A V 0.932(4) 0.756(5) 0.265(6)
O2B O 0.46104 0.24187 0.76422
O3A O 0.69173 0.74186 1.297
O4_2 O 0.568(4) 0.3396(27) 0.6612(32)
O6B O 0.542(4) 0.8317(27) 1.3308(29)
O7B O 0.568(4) 0.1604(27) 0.6612(32)
O12A O 0.609(5) 0.8356(27) 1.1659(29)
O13A O 0.609(6) 0.1646(26) 0.8338(30)
O15A O 0.720(6) 0.1644(27) 0.8341(29)
loop_
_geom_bond_atom_site_label_1
_geom_bond_atom_site_label_2
_geom_bond_site_symmetry_1
_geom_bond_site_symmetry_2
C1 C3 1_555 1_555
C2 C3 1_555 1_555
C4 C1 1_555 1_555
C5 C2 1_555 1_555
C6 C4 1_555 1_555
C7 C8 1_555 1_555
C8 C6 1_555 1_555
C9 C11 1_555 1_555
C10 C11 1_555 1_555
C12 C9 1_555 1_555
C13 C10 1_555 1_555
C14 C12 1_555 1_555
C15 C16 1_555 1_555
C16 C14 1_555 1_555
V1 O1 1_555 1_555
V2 O2 1_555 1_555
V3 O1 1_555 1_555
O2 V3B 1_555 1_555
O3 V1 1_555 1_555
C17 C18 1_555 1_555
C18 C19 1_555 1_555
C19 C22 1_555 1_555
C20 C17 1_555 1_555
C21 C20 1_555 1_555
C22 C21 1_555 1_555
C23 C17 1_555 1_555
C24 C22 1_555 1_555
O4 C23 1_555 1_555
O5 V2 1_555 1_555
O6 C23 1_555 1_555
O7 C24 1_555 1_555
C25 C26 1_555 1_555
C26 C27 1_555 1_555
C27 C30 1_555 1_555
C28 C25 1_555 1_555
C29 C28 1_555 1_555
C30 C29 1_555 1_555
C31 C25 1_555 1_555
C32 C30 1_555 1_555
O8 V1 1_555 1_555
O9 C32 1_555 1_555
O10 V3 1_555 1_555
O11 V2 1_555 1_555
C33 C34 1_555 1_555
C34 C35 1_555 1_555
C35 C38 1_555 1_555
C36 C33 1_555 1_555
C37 C36 1_555 1_555
C38 C37 1_555 1_555
C39 C33 1_555 1_555
C40 C38 1_555 1_555
O12 C39 1_555 1_555
O13 C40 1_555 1_555
O14 V1 1_555 1_555
O15 C40 1_555 1_555
V1A O15 1_555 1_555
V2A O3 1_555 1_555
V2B O6 1_555 1_555
V3B O7 1_555 1_555
V3_2 O4 1_555 1_555
V3A O13 1_555 1_555
O2B V3 1_555 1_555
O3A V2 1_555 1_555
O4_2 V3 1_555 1_555
O6B V2 1_555 1_555
O7B V3 1_555 1_555
O12A V2 1_555 1_555
O13A V3 1_555 1_555
O15A V1 1_555 1_555
C5 C6 1_555 1_555
C13 C14 1_555 1_555
C24 O5 1_555 1_555
C31 O8 1_555 1_555
C31 O10 1_555 1_555
C32 O11 1_555 1_555
C39 O14 1_555 1_555
O12 V2A 1_555 1_555

#END
