
#######################################################################
#
#                 Cambridge Crystallographic Data Centre
#                                CCDC 
#
#######################################################################
#
# If this CIF has been generated from an entry in the Cambridge 
# Structural Database, then it will include bibliographic, chemical, 
# crystal, experimental, refinement or atomic coordinate data resulting 
# from the CCDC's data processing and validation procedures.
#
#######################################################################

data_XAVDUT
_symmetry_cell_setting           monoclinic
_symmetry_space_group_name_H-M   'P 21/n'
_symmetry_Int_Tables_number      14
_space_group_name_Hall           '-P 2yn'
loop_
_symmetry_equiv_pos_site_id
_symmetry_equiv_pos_as_xyz
1 x,y,z
2 1/2+x,1/2-y,1/2+z
3 -x,-y,-z
4 1/2-x,1/2+y,1/2-z
_cell_length_a                   3.7290(10)
_cell_length_b                   19.753(4)
_cell_length_c                   8.203(2)
_cell_angle_alpha                90
_cell_angle_beta                 101.91(3)
_cell_angle_gamma                90
_cell_volume                     591.217
loop_
_atom_site_label
_atom_site_type_symbol
_atom_site_fract_x
_atom_site_fract_y
_atom_site_fract_z
Ni1 Ni 0.0000 0.0000 0.0000
K1 K 1.03736(16) -0.26622(3) 0.15275(8)
O1 O 0.5628(5) -0.16206(9) 0.1954(2)
O2 O 0.1516(5) -0.19017(9) -0.1242(2)
O3 O 0.4774(6) -0.03910(11) 0.3201(2)
O4 O -0.2430(6) -0.08729(10) -0.2897(2)
N1 N 0.3056(6) -0.05549(11) 0.1543(3)
N2 N -0.0148(6) -0.07776(12) -0.1298(3)
C1 C 0.3691(7) -0.11704(13) 0.1112(3)
C2 C 0.1558(7) -0.13247(13) -0.0642(3)
O5 O 0.5765(7) -0.36194(14) -0.0285(3)
H1 H -0.116(14) -0.102(2) -0.360(6)
H2 H 0.405(15) 0.005(3) 0.330(7)
H3 H 0.684(16) -0.387(3) -0.055(7)
H4 H 0.395(14) -0.355(2) -0.113(6)
O1B O -0.5628(5) 0.16206(9) -0.1954(2)
O2B O -0.1516(5) 0.19017(9) 0.1242(2)
O3B O -0.4774(6) 0.03910(11) -0.3201(2)
O4B O 0.2430(6) 0.08729(10) 0.2897(2)
N1B N -0.3056(6) 0.05549(11) -0.1543(3)
N2B N 0.0148(6) 0.07776(12) 0.1298(3)
C1B C -0.3691(7) 0.11704(13) -0.1112(3)
C2B C -0.1558(7) 0.13247(13) 0.0642(3)
H1B H 0.116(14) 0.102(2) 0.360(6)
H2B H -0.405(15) -0.005(3) -0.330(7)
K1B K -1.03736(16) 0.26622(3) -0.15275(8)
O5B O -0.5765(7) 0.36194(14) 0.0285(3)
H3B H -0.684(16) 0.387(3) 0.055(7)
H4B H -0.395(14) 0.355(2) 0.113(6)
K1A K 0.53736(16) -0.23378(3) -0.34725(8)
O1_2 O 1.5628(5) -0.16206(9) 0.1954(2)
O2_2 O 1.1516(5) -0.19017(9) -0.1242(2)
O2A O 0.6516(5) -0.30983(9) 0.3758(2)
O2A_2 O 1.6516(5) -0.30983(9) 0.3758(2)
O4A O 1.2570(6) -0.41271(10) 0.2103(2)
K1_2 K 0.03736(16) -0.26622(3) 0.15275(8)
K1A_2 K -0.46264(16) -0.23378(3) -0.34725(8)
K1B_2 K -0.03736(16) 0.26622(3) -0.15275(8)
K1C K -0.53736(16) 0.23378(3) 0.34725(8)
K1C_2 K 0.46264(16) 0.23378(3) 0.34725(8)
O1B_2 O -1.5628(5) 0.16206(9) -0.1954(2)
O2B_2 O -1.1516(5) 0.19017(9) 0.1242(2)
O2C O -1.6516(5) 0.30983(9) -0.3758(2)
O2C_2 O -0.6516(5) 0.30983(9) -0.3758(2)
O4C O -1.2570(6) 0.41271(10) -0.2103(2)
H1A H 1.384(14) -0.398(2) 0.140(6)
H1C H -1.384(14) 0.398(2) -0.140(6)
loop_
_geom_bond_atom_site_label_1
_geom_bond_atom_site_label_2
_geom_bond_site_symmetry_1
_geom_bond_site_symmetry_2
Ni1 N1 1_555 1_555
K1 O1 1_555 1_555
O1 C1 1_555 1_555
O2 C2 1_555 1_555
O3 N1 1_555 1_555
O4 N2 1_555 1_555
N1 C1 1_555 1_555
N2 Ni1 1_555 1_555
C1 C2 1_555 1_555
C2 N2 1_555 1_555
O5 K1 1_555 1_555
H1 O4 1_555 1_555
H2 O3 1_555 1_555
H3 O5 1_555 1_555
H4 O5 1_555 1_555
O1B C1B 1_555 1_555
O2B C2B 1_555 1_555
O3B N1B 1_555 1_555
O4B N2B 1_555 1_555
N1B Ni1 1_555 1_555
N2B Ni1 1_555 1_555
C1B N1B 1_555 1_555
C2B N2B 1_555 1_555
H1B O4B 1_555 1_555
H2B O3B 1_555 1_555
K1B O1B 1_555 1_555
O5B K1B 1_555 1_555
H3B O5B 1_555 1_555
H4B O5B 1_555 1_555
K1A O2 1_555 1_555
O1_2 K1 1_555 1_555
O2_2 K1 1_555 1_555
O2A K1 1_555 1_555
O2A_2 K1 1_555 1_555
O4A K1 1_555 1_555
K1_2 O1 1_555 1_555
K1A_2 O2 1_555 1_555
K1B_2 O1B 1_555 1_555
K1C O2B 1_555 1_555
K1C_2 O2B 1_555 1_555
O1B_2 K1B 1_555 1_555
O2B_2 K1B 1_555 1_555
O2C K1B 1_555 1_555
O2C_2 K1B 1_555 1_555
O4C K1B 1_555 1_555
H1A O4A 1_555 1_555
H1C O4C 1_555 1_555
O2 K1_2 1_555 1_555
O4 K1A_2 1_555 1_555
O2B K1B_2 1_555 1_555
O4B K1C_2 1_555 1_555
C1B C2B 1_555 1_555
K1A O2_2 1_555 1_555
O2A K1_2 1_555 1_555
K1B_2 O2C_2 1_555 1_555
K1C O2B_2 1_555 1_555

#END
