
#######################################################################
#
#                 Cambridge Crystallographic Data Centre
#                                CCDC 
#
#######################################################################
#
# If this CIF has been generated from an entry in the Cambridge 
# Structural Database, then it will include bibliographic, chemical, 
# crystal, experimental, refinement or atomic coordinate data resulting 
# from the CCDC's data processing and validation procedures.
#
#######################################################################

data_XAVKAH
_symmetry_cell_setting           orthorhombic
_symmetry_space_group_name_H-M   'P 21 21 21'
_symmetry_Int_Tables_number      19
_space_group_name_Hall           'P 2ac 2ab'
loop_
_symmetry_equiv_pos_site_id
_symmetry_equiv_pos_as_xyz
1 x,y,z
2 1/2-x,-y,1/2+z
3 1/2+x,1/2-y,-z
4 -x,1/2+y,1/2-z
_cell_length_a                   9.3455(13)
_cell_length_b                   12.2596(13)
_cell_length_c                   21.3592(19)
_cell_angle_alpha                90
_cell_angle_beta                 90
_cell_angle_gamma                90
_cell_volume                     2447.17
loop_
_atom_site_label
_atom_site_type_symbol
_atom_site_fract_x
_atom_site_fract_y
_atom_site_fract_z
Mn1 Mn 0.01711(5) -0.22570(4) -0.387060(19)
O1 O 0.1373(2) -0.3878(2) -0.37049(9)
O2 O 0.1163(2) -0.33497(19) -0.46816(10)
O3 O 0.4331(2) -0.3778(2) -0.53924(10)
O4 O 0.2556(3) -0.4371(2) -0.59944(10)
N1 N -0.3785(3) -0.3881(3) -0.43417(13)
H1 H -0.4388 -0.4036 -0.4633
N2 N -0.1829(3) -0.3235(2) -0.38927(13)
N3 N -0.0564(3) -0.0595(3) -0.20920(13)
H2 H -0.0999 -0.0097 -0.1882
N4 N -0.0005(3) -0.1668(2) -0.28923(11)
N5 N 0.4542(3) -0.0962(3) -0.40759(14)
H3 H 0.5446 -0.1083 -0.4104
N6 N 0.2229(3) -0.1293(2) -0.39332(14)
C1 C 0.1533(3) -0.4048(3) -0.42852(14)
C2 C 0.2174(3) -0.5094(3) -0.44882(16)
H4 H 0.2054 -0.5697 -0.4229
C3 C 0.2912(4) -0.5231(3) -0.50160(16)
H5 H 0.3253 -0.5931 -0.5093
C4 C 0.3255(3) -0.4379(3) -0.55029(14)
C5 C -0.2552(4) -0.3362(3) -0.44091(15)
H6 H -0.2229 -0.3108 -0.4794
C6 C -0.2458(5) -0.3828(4) -0.27967(17)
H7 H -0.1641 -0.3553 -0.2604
C7 C -0.3510(6) -0.4362(6) -0.2458(2)
H8 H -0.3392 -0.4446 -0.2028
C8 C -0.4726(5) -0.4772(6) -0.2738(2)
H9 H -0.5406 -0.5124 -0.2493
C9 C -0.4956(4) -0.4673(4) -0.3368(2)
H10 H -0.5770 -0.4957 -0.3558
C10 C -0.3913(3) -0.4126(3) -0.37103(16)
C11 C -0.2676(3) -0.3720(3) -0.34372(15)
C12 C -0.0819(4) -0.0872(3) -0.26893(15)
H11 H -0.1507 -0.0531 -0.2936
C13 C 0.1949(4) -0.2699(4) -0.23258(18)
H12 H 0.2191 -0.3154 -0.2658
C14 C 0.2651(5) -0.2763(5) -0.1761(2)
H13 H 0.3387 -0.3266 -0.1712
C15 C 0.2280(5) -0.2085(4) -0.12605(19)
H14 H 0.2768 -0.2159 -0.0883
C16 C 0.1228(5) -0.1321(4) -0.13064(17)
H15 H 0.0996 -0.0867 -0.0973
C17 C 0.0517(4) -0.1254(3) -0.18777(15)
C18 C 0.0869(4) -0.1933(3) -0.23818(15)
C19 C 0.3529(3) -0.1693(3) -0.39397(16)
H16 H 0.3729 -0.2422 -0.3857
C20 C 0.1439(4) 0.0666(3) -0.4079(2)
H17 H 0.0471 0.0544 -0.4008
C21 C 0.1941(6) 0.1692(4) -0.4200(3)
H18 H 0.1306 0.2275 -0.4205
C22 C 0.3400(6) 0.1880(4) -0.4318(3)
H19 H 0.3703 0.2584 -0.4410
C23 C 0.4380(5) 0.1061(3) -0.4301(2)
H20 H 0.5345 0.1190 -0.4377
C24 C 0.3869(4) 0.0019(3) -0.41630(15)
C25 C 0.2413(4) -0.0187(3) -0.40648(15)
Mn1B Mn 0.51711(5) -0.27430(4) -0.612940(19)
O3B O -0.0669(2) -0.1222(2) -0.46076(10)
loop_
_geom_bond_atom_site_label_1
_geom_bond_atom_site_label_2
_geom_bond_site_symmetry_1
_geom_bond_site_symmetry_2
Mn1 O1 1_555 1_555
O1 C1 1_555 1_555
O2 Mn1 1_555 1_555
O3 C4 1_555 1_555
O4 C4 1_555 1_555
N1 H1 1_555 1_555
N2 Mn1 1_555 1_555
N3 H2 1_555 1_555
N4 Mn1 1_555 1_555
N5 H3 1_555 1_555
N6 Mn1 1_555 1_555
C1 O2 1_555 1_555
C2 C1 1_555 1_555
H4 C2 1_555 1_555
C3 C2 1_555 1_555
H5 C3 1_555 1_555
C4 C3 1_555 1_555
C5 N1 1_555 1_555
H6 C5 1_555 1_555
C6 H7 1_555 1_555
C7 C6 1_555 1_555
H8 C7 1_555 1_555
C8 C7 1_555 1_555
H9 C8 1_555 1_555
C9 C8 1_555 1_555
H10 C9 1_555 1_555
C10 N1 1_555 1_555
C11 N2 1_555 1_555
C12 N3 1_555 1_555
H11 C12 1_555 1_555
C13 H12 1_555 1_555
C14 C13 1_555 1_555
H13 C14 1_555 1_555
C15 C14 1_555 1_555
H14 C15 1_555 1_555
C16 C15 1_555 1_555
H15 C16 1_555 1_555
C17 N3 1_555 1_555
C18 N4 1_555 1_555
C19 N5 1_555 1_555
H16 C19 1_555 1_555
C20 H17 1_555 1_555
C21 C20 1_555 1_555
H18 C21 1_555 1_555
C22 C21 1_555 1_555
H19 C22 1_555 1_555
C23 C22 1_555 1_555
H20 C23 1_555 1_555
C24 N5 1_555 1_555
C25 N6 1_555 1_555
Mn1B O3 1_555 1_555
O3B Mn1 1_555 1_555
N2 C5 1_555 1_555
N4 C12 1_555 1_555
N6 C19 1_555 1_555
C6 C11 1_555 1_555
C9 C10 1_555 1_555
C10 C11 1_555 1_555
C13 C18 1_555 1_555
C16 C17 1_555 1_555
C17 C18 1_555 1_555
C20 C25 1_555 1_555
C23 C24 1_555 1_555
C24 C25 1_555 1_555

#END
