
#######################################################################
#
#                 Cambridge Crystallographic Data Centre
#                                CCDC 
#
#######################################################################
#
# If this CIF has been generated from an entry in the Cambridge 
# Structural Database, then it will include bibliographic, chemical, 
# crystal, experimental, refinement or atomic coordinate data resulting 
# from the CCDC's data processing and validation procedures.
#
#######################################################################

data_XAVLUB
_symmetry_cell_setting           orthorhombic
_symmetry_space_group_name_H-M   'P 21 21 21'
_symmetry_Int_Tables_number      19
_space_group_name_Hall           'P 2ac 2ab'
loop_
_symmetry_equiv_pos_site_id
_symmetry_equiv_pos_as_xyz
1 x,y,z
2 1/2-x,-y,1/2+z
3 -x,1/2+y,1/2-z
4 1/2+x,1/2-y,-z
_cell_length_a                   9.459(2)
_cell_length_b                   14.569(3)
_cell_length_c                   17.751(4)
_cell_angle_alpha                90
_cell_angle_beta                 90
_cell_angle_gamma                90
_cell_volume                     2446.23
loop_
_atom_site_label
_atom_site_type_symbol
_atom_site_fract_x
_atom_site_fract_y
_atom_site_fract_z
Gd1 Gd -0.10497(3) 0.011200(18) -0.139040(14)
Fe1 Fe 0.24286(8) -0.01974(5) 0.11419(4)
O1 O -0.0063(5) -0.1359(3) -0.1518(3)
O2 O -0.0772(5) -0.2160(4) -0.2514(3)
C1 C -0.0020(7) -0.2043(4) -0.1957(4)
C2 C 0.0940(9) -0.2826(5) -0.1771(4)
H1 H 0.1209 -0.3115 -0.2236
H2 H 0.0403 -0.3266 -0.1488
N1 N 0.2266(6) -0.2621(4) -0.1323(3)
C3 C 0.3083(9) -0.1875(7) -0.1710(6)
H3 H 0.3308 -0.2050 -0.2218
H4 H 0.2526 -0.1324 -0.1716
H5 H 0.3940 -0.1769 -0.1435
C4 C 0.1918(10) -0.2344(6) -0.0533(4)
H6 H 0.2773 -0.2209 -0.0264
H7 H 0.1322 -0.1811 -0.0539
H8 H 0.1432 -0.2840 -0.0288
C5 C 0.3101(9) -0.3482(5) -0.1292(5)
H9 H 0.3334 -0.3664 -0.1796
H10 H 0.3954 -0.3384 -0.1010
H11 H 0.2553 -0.3956 -0.1055
O3 O -0.2468(5) 0.1025(3) -0.0490(3)
O4 O -0.3165(5) 0.1040(3) -0.1679(3)
C6 C -0.3306(7) 0.1265(5) -0.0987(4)
C7 C -0.4483(8) 0.1878(7) -0.0723(5)
H12 H -0.4110 0.2490 -0.0699
H13 H -0.4729 0.1701 -0.0219
N2 N -0.5817(5) 0.1907(4) -0.1189(3)
C8 C -0.6420(10) 0.0979(7) -0.1188(7)
H14 H -0.7272 0.0985 -0.1481
H15 H -0.5758 0.0557 -0.1407
H16 H -0.6634 0.0791 -0.0682
C9 C -0.5639(10) 0.2221(8) -0.1969(5)
H17 H -0.6552 0.2208 -0.2205
H18 H -0.5266 0.2833 -0.1987
H19 H -0.5012 0.1812 -0.2229
C10 C -0.6828(8) 0.2563(7) -0.0806(5)
H20 H -0.7684 0.2584 -0.1095
H21 H -0.7036 0.2355 -0.0304
H22 H -0.6417 0.3165 -0.0784
C11 C 0.1242(6) -0.0077(4) 0.0253(3)
N3 N 0.0513(6) 0.0002(4) -0.0278(3)
C12 C 0.2012(7) -0.1499(5) 0.1216(3)
N4 N 0.1750(7) -0.2276(4) 0.1249(3)
C13 C 0.0851(7) 0.0141(5) 0.1762(3)
N5 N -0.0099(7) 0.0363(6) 0.2131(4)
C14 C 0.4046(7) -0.0498(4) 0.0501(4)
N6 N 0.4953(8) -0.0631(6) 0.0119(4)
C15 C 0.2959(7) 0.1085(5) 0.1071(4)
N7 N 0.3298(9) 0.1832(5) 0.1028(4)
C16 C 0.3568(6) -0.0268(4) 0.2043(3)
N8 N 0.4232(6) -0.0288(4) 0.2593(3)
O5 O -0.2113(5) -0.0467(4) -0.2514(3)
O6 O -0.2705(6) -0.0896(3) -0.0821(3)
O7 O -0.0146(5) 0.1655(3) -0.1397(3)
N8A N 0.0768(6) 0.0288(4) -0.2407(3)
Gd1A Gd 0.60497(3) -0.011200(18) 0.360960(14)
loop_
_geom_bond_atom_site_label_1
_geom_bond_atom_site_label_2
_geom_bond_site_symmetry_1
_geom_bond_site_symmetry_2
Gd1 O1 1_555 1_555
Fe1 C11 1_555 1_555
O1 C1 1_555 1_555
O2 C1 1_555 1_555
C1 C2 1_555 1_555
C2 H1 1_555 1_555
H2 C2 1_555 1_555
N1 C2 1_555 1_555
C3 N1 1_555 1_555
H3 C3 1_555 1_555
H4 C3 1_555 1_555
H5 C3 1_555 1_555
C4 N1 1_555 1_555
H6 C4 1_555 1_555
H7 C4 1_555 1_555
H8 C4 1_555 1_555
C5 N1 1_555 1_555
H9 C5 1_555 1_555
H10 C5 1_555 1_555
H11 C5 1_555 1_555
O3 Gd1 1_555 1_555
O4 Gd1 1_555 1_555
C6 O3 1_555 1_555
C7 C6 1_555 1_555
H12 C7 1_555 1_555
H13 C7 1_555 1_555
N2 C7 1_555 1_555
C8 N2 1_555 1_555
H14 C8 1_555 1_555
H15 C8 1_555 1_555
H16 C8 1_555 1_555
C9 N2 1_555 1_555
H17 C9 1_555 1_555
H18 C9 1_555 1_555
H19 C9 1_555 1_555
C10 N2 1_555 1_555
H20 C10 1_555 1_555
H21 C10 1_555 1_555
H22 C10 1_555 1_555
C11 N3 1_555 1_555
N3 Gd1 1_555 1_555
C12 Fe1 1_555 1_555
N4 C12 1_555 1_555
C13 Fe1 1_555 1_555
N5 C13 1_555 1_555
C14 Fe1 1_555 1_555
N6 C14 1_555 1_555
C15 Fe1 1_555 1_555
N7 C15 1_555 1_555
C16 Fe1 1_555 1_555
N8 C16 1_555 1_555
O5 Gd1 1_555 1_555
O6 Gd1 1_555 1_555
O7 Gd1 1_555 1_555
N8A Gd1 1_555 1_555
Gd1A N8 1_555 1_555
O4 C6 1_555 1_555

#END
