
#######################################################################
#
#                 Cambridge Crystallographic Data Centre
#                                CCDC 
#
#######################################################################
#
# If this CIF has been generated from an entry in the Cambridge 
# Structural Database, then it will include bibliographic, chemical, 
# crystal, experimental, refinement or atomic coordinate data resulting 
# from the CCDC's data processing and validation procedures.
#
#######################################################################

data_XAVQIU
_symmetry_cell_setting           monoclinic
_symmetry_space_group_name_H-M   'P 21/c'
_symmetry_Int_Tables_number      14
_space_group_name_Hall           '-P 2ybc'
loop_
_symmetry_equiv_pos_site_id
_symmetry_equiv_pos_as_xyz
1 x,y,z
2 x,1/2-y,1/2+z
3 -x,-y,-z
4 -x,1/2+y,1/2-z
_cell_length_a                   10.124(1)
_cell_length_b                   10.281(1)
_cell_length_c                   16.330(1)
_cell_angle_alpha                90
_cell_angle_beta                 95.34(1)
_cell_angle_gamma                90
_cell_volume                     1692.33
loop_
_atom_site_label
_atom_site_type_symbol
_atom_site_fract_x
_atom_site_fract_y
_atom_site_fract_z
Co1 Co -0.22691(5) 1.24603(6) 0.92244(3)
O1 O -0.2793(3) 1.0711(3) 0.8672(2)
O2 O -0.1035(3) 0.6398(3) 0.5553(2)
O3 O -0.6377(3) 0.8385(3) 0.6769(2)
O4 O 0.0534(3) 0.7533(3) 0.6316(2)
O5 O -0.5692(3) 0.7681(3) 0.5603(2)
O6 O -0.0943(3) 0.9501(3) 0.8879(2)
C1 C -0.1386(4) 0.8517(4) 0.7283(3)
C2 C -0.3026(4) 0.7725(4) 0.6258(3)
C3 C -0.1710(4) 0.7825(4) 0.6562(3)
C4 C -0.4029(4) 0.8305(4) 0.6651(2)
C5 C -0.2009(4) 0.9837(4) 0.8484(2)
C6 C -0.0643(4) 0.7201(4) 0.6107(3)
C7 C -0.5453(4) 0.8124(4) 0.6330(3)
C8 C -0.3687(4) 0.9009(5) 0.7370(3)
C9 C -0.2375(4) 0.9103(4) 0.7695(3)
S1 S -0.17344(14) 1.56612(13) 0.95903(9)
O7 O -0.1841(3) 1.4234(3) 0.9813(2)
C10 C -0.3337(7) 1.6219(8) 0.9179(5)
C11 C -0.0948(10) 1.5721(9) 0.8658(6)
Co2 Co 0.0000 0.5000 0.5000
S2 S -0.21290(13) 0.37680(13) 0.61315(7)
O8 O -0.1517(3) 0.3547(3) 0.5315(2)
C12 C -0.3755(6) 0.4346(8) 0.5846(5)
C13 C -0.2555(10) 0.2207(8) 0.6499(5)
H1 H -0.3262(39) 0.7296(39) 0.5801(25)
H2 H -0.4316(39) 0.9386(39) 0.7612(23)
H3 H -0.0546(41) 0.8566(39) 0.7523(24)
H4 H -0.3179(69) 0.2353(67) 0.7007(44)
H5 H -0.3940(61) 1.6053(58) 0.9607(38)
H6 H -0.3712(63) 0.5118(68) 0.5512(40)
H7 H -0.4360(66) 0.3723(70) 0.5541(40)
H8 H -0.2945(49) 0.1825(52) 0.6091(32)
H9 H -0.3584(58) 1.5721(61) 0.8663(39)
H10 H -0.3313(64) 1.7090(71) 0.9051(40)
H11 H -0.0979(85) 1.6630(98) 0.8561(53)
H12 H -0.1551(72) 1.5330(70) 0.8242(43)
H13 H -0.4082(60) 0.4508(60) 0.6298(39)
H14 H -0.0096(71) 1.5452(71) 0.8796(41)
H15 H -0.1699(68) 0.1807(69) 0.6653(38)
O1B O 0.2793(3) -0.0711(3) 0.1328(2)
O2B O 0.1035(3) 0.3602(3) 0.4447(2)
O3B O 0.6377(3) 0.1615(3) 0.3231(2)
O4B O -0.0534(3) 0.2467(3) 0.3684(2)
O5B O 0.5692(3) 0.2319(3) 0.4397(2)
O6B O 0.0943(3) 0.0499(3) 0.1121(2)
C1B C 0.1386(4) 0.1483(4) 0.2717(3)
C2B C 0.3026(4) 0.2275(4) 0.3742(3)
C3B C 0.1710(4) 0.2175(4) 0.3438(3)
C4B C 0.4029(4) 0.1695(4) 0.3349(2)
C5B C 0.2009(4) 0.0163(4) 0.1516(2)
C6B C 0.0643(4) 0.2799(4) 0.3893(3)
C7B C 0.5453(4) 0.1876(4) 0.3670(3)
C8B C 0.3687(4) 0.0991(5) 0.2630(3)
C9B C 0.2375(4) 0.0897(4) 0.2305(3)
H1B H 0.3262(39) 0.2704(39) 0.4199(25)
H2B H 0.4316(39) 0.0614(39) 0.2388(23)
H3B H 0.0546(41) 0.1434(39) 0.2477(24)
S2B S 0.21290(13) 0.62320(13) 0.38685(7)
O8B O 0.1517(3) 0.6453(3) 0.4685(2)
C12B C 0.3755(6) 0.5654(8) 0.4154(5)
C13B C 0.2555(10) 0.7793(8) 0.3501(5)
H4B H 0.3179(69) 0.7647(67) 0.2993(44)
H6B H 0.3712(63) 0.4882(68) 0.4488(40)
H7B H 0.4360(66) 0.6277(70) 0.4459(40)
H8B H 0.2945(49) 0.8175(52) 0.3909(32)
H13B H 0.4082(60) 0.5492(60) 0.3702(39)
H15B H 0.1699(68) 0.8193(69) 0.3347(38)
Co1B Co 0.22691(5) -0.24603(6) 0.07756(3)
S1B S 0.17344(14) -0.56612(13) 0.04097(9)
O7B O 0.1841(3) -0.4234(3) 0.0187(2)
C10B C 0.3337(7) -0.6219(8) 0.0821(5)
C11B C 0.0948(10) -0.5721(9) 0.1342(6)
H5B H 0.3940(61) -0.6053(58) 0.0393(38)
H9B H 0.3584(58) -0.5721(61) 0.1337(39)
H10B H 0.3313(64) -0.7090(71) 0.0949(40)
H11B H 0.0979(85) -0.6630(98) 0.1439(53)
H12B H 0.1551(72) -0.5330(70) 0.1758(43)
H14B H 0.0096(71) -0.5452(71) 0.1204(41)
O3C O -0.3623(3) 1.3385(3) 0.8231(2)
O4C O -0.0534(3) 1.2533(3) 0.8684(2)
O5C O -0.4308(3) 1.2681(3) 0.9397(2)
O8A O -0.1517(3) 1.1453(3) 1.0315(2)
Co1C Co -0.77309(5) 0.74603(6) 0.57756(3)
Co1C_2 Co 0.22691(5) 0.74603(6) 0.57756(3)
Co2A Co 0.0000 1.0000 1.0000
O6A O -0.0943(3) 0.5499(3) 0.3879(2)
O6C O 0.0943(3) 0.4501(3) 0.6121(2)
Co1A Co -0.22691(5) 0.25397(6) 0.42244(3)
Co1A_2 Co 0.77309(5) 0.25397(6) 0.42244(3)
Co2A_2 Co 0.0000 0.0000 0.0000
O3A O 0.3623(3) -0.3385(3) 0.1769(2)
O4A O 0.0534(3) -0.2533(3) 0.1316(2)
O5A O 0.4308(3) -0.2681(3) 0.0603(2)
O8C O 0.1517(3) -0.1453(3) -0.0315(2)
loop_
_geom_bond_atom_site_label_1
_geom_bond_atom_site_label_2
_geom_bond_site_symmetry_1
_geom_bond_site_symmetry_2
Co1 O1 1_555 1_555
O1 C5 1_555 1_555
O2 C6 1_555 1_555
O3 C7 1_555 1_555
O4 C6 1_555 1_555
O5 C7 1_555 1_555
O6 C5 1_555 1_555
C1 C3 1_555 1_555
C2 C3 1_555 1_555
C3 C6 1_555 1_555
C4 C2 1_555 1_555
C5 C9 1_555 1_555
C7 C4 1_555 1_555
C8 C4 1_555 1_555
C9 C1 1_555 1_555
S1 O7 1_555 1_555
O7 Co1 1_555 1_555
C10 S1 1_555 1_555
C11 S1 1_555 1_555
Co2 O2 1_555 1_555
S2 O8 1_555 1_555
O8 Co2 1_555 1_555
C12 S2 1_555 1_555
C13 S2 1_555 1_555
H1 C2 1_555 1_555
H2 C8 1_555 1_555
H3 C1 1_555 1_555
H4 C13 1_555 1_555
H5 C10 1_555 1_555
H6 C12 1_555 1_555
H7 C12 1_555 1_555
H8 C13 1_555 1_555
H9 C10 1_555 1_555
H10 C10 1_555 1_555
H11 C11 1_555 1_555
H12 C11 1_555 1_555
H13 C12 1_555 1_555
H14 C11 1_555 1_555
H15 C13 1_555 1_555
O1B C5B 1_555 1_555
O2B Co2 1_555 1_555
O3B C7B 1_555 1_555
O4B C6B 1_555 1_555
O5B C7B 1_555 1_555
O6B C5B 1_555 1_555
C1B C3B 1_555 1_555
C2B C3B 1_555 1_555
C3B C6B 1_555 1_555
C4B C2B 1_555 1_555
C5B C9B 1_555 1_555
C6B O2B 1_555 1_555
C7B C4B 1_555 1_555
C8B C4B 1_555 1_555
C9B C1B 1_555 1_555
H1B C2B 1_555 1_555
H2B C8B 1_555 1_555
H3B C1B 1_555 1_555
S2B O8B 1_555 1_555
O8B Co2 1_555 1_555
C12B S2B 1_555 1_555
C13B S2B 1_555 1_555
H4B C13B 1_555 1_555
H6B C12B 1_555 1_555
H7B C12B 1_555 1_555
H8B C13B 1_555 1_555
H13B C12B 1_555 1_555
H15B C13B 1_555 1_555
Co1B O1B 1_555 1_555
S1B O7B 1_555 1_555
O7B Co1B 1_555 1_555
C10B S1B 1_555 1_555
C11B S1B 1_555 1_555
H5B C10B 1_555 1_555
H9B C10B 1_555 1_555
H10B C10B 1_555 1_555
H11B C11B 1_555 1_555
H12B C11B 1_555 1_555
H14B C11B 1_555 1_555
O3C Co1 1_555 1_555
O4C Co1 1_555 1_555
O5C Co1 1_555 1_555
O8A Co1 1_555 1_555
Co1C O3 1_555 1_555
Co1C_2 O4 1_555 1_555
Co2A O6 1_555 1_555
O6A Co2 1_555 1_555
O6C Co2 1_555 1_555
Co1A O8 1_555 1_555
Co1A_2 O3B 1_555 1_555
Co2A_2 O6B 1_555 1_555
O3A Co1B 1_555 1_555
O4A Co1B 1_555 1_555
O5A Co1B 1_555 1_555
O8C Co1B 1_555 1_555
O5 Co1C 1_555 1_555
C8 C9 1_555 1_555
O4B Co1A 1_555 1_555
O5B Co1A_2 1_555 1_555
C8B C9B 1_555 1_555
O8B Co1C_2 1_555 1_555
O8A Co2A 1_555 1_555
Co2A_2 O8C 1_555 1_555

#END
