
#######################################################################
#
#                 Cambridge Crystallographic Data Centre
#                                CCDC 
#
#######################################################################
#
# If this CIF has been generated from an entry in the Cambridge 
# Structural Database, then it will include bibliographic, chemical, 
# crystal, experimental, refinement or atomic coordinate data resulting 
# from the CCDC's data processing and validation procedures.
#
#######################################################################

data_XAVTAQ
_symmetry_cell_setting           monoclinic
_symmetry_space_group_name_H-M   'C c'
_symmetry_Int_Tables_number      9
_space_group_name_Hall           'C -2yc'
loop_
_symmetry_equiv_pos_site_id
_symmetry_equiv_pos_as_xyz
1 x,y,z
2 x,-y,1/2+z
3 1/2+x,1/2+y,z
4 1/2+x,1/2-y,1/2+z
_cell_length_a                   12.255(3)
_cell_length_b                   33.465(8)
_cell_length_c                   9.837(2)
_cell_angle_alpha                90
_cell_angle_beta                 94.511(4)
_cell_angle_gamma                90
_cell_volume                     4021.79
loop_
_atom_site_label
_atom_site_type_symbol
_atom_site_fract_x
_atom_site_fract_y
_atom_site_fract_z
Ag1 Ag 0.50000 0.50647(4) 0.50000
N1 N 0.5612(12) 0.5677(4) 0.4726(14)
C1 C 0.5520(14) 0.5848(4) 0.3470(13)
C2 C 0.4999(12) 0.5590(4) 0.2322(14)
O1 O 0.5040(14) 0.5236(4) 0.2434(11)
C3 C 0.5970(15) 0.6202(5) 0.3195(18)
C4 C 0.6460(16) 0.6413(4) 0.442(2)
C5 C 0.6551(16) 0.6232(7) 0.559(2)
C6 C 0.6090(17) 0.5865(6) 0.5725(18)
N2 N 0.4404(12) 0.5535(4) -0.0037(12)
C7 C 0.4435(15) 0.5773(4) 0.1080(17)
C8 C 0.4005(16) 0.6155(4) 0.1072(18)
C9 C 0.348(2) 0.6331(7) -0.004(3)
C10 C 0.3474(17) 0.6072(5) -0.1303(16)
C11 C 0.3924(16) 0.5690(5) -0.1182(18)
H1 H 0.58654 0.63559 0.23175
H2 H 0.67836 0.66739 0.43177
H3 H 0.70086 0.63610 0.64058
H4 H 0.61042 0.57806 0.66214
H5 H 0.40724 0.62909 0.19028
H6 H 0.30738 0.65811 -0.00862
H7 H 0.33723 0.61712 -0.22017
H8 H 0.38389 0.54878 -0.19692
O1A O 0.5040(14) 0.4764(4) 0.7434(11)
N2A N 0.4404(12) 0.4465(4) 0.4963(12)
Ag1A Ag 0.50000 0.49353(4) 0.00000
Ag2 Ag 0.50218(17) 0.83608(5) 0.97200(16)
Ag3 Ag 0.50300(16) 0.82963(5) 0.47187(15)
N3 N 0.5702(11) 0.7757(4) 0.9686(13)
C12 C 0.5666(14) 0.7536(4) 0.8558(16)
C13 C 0.5133(12) 0.7736(4) 0.7326(11)
O2 O 0.5085(13) 0.8098(2) 0.7276(11)
C14 C 0.6213(16) 0.7177(5) 0.850(2)
C15 C 0.6666(14) 0.7046(5) 0.981(2)
C16 C 0.6759(19) 0.7239(8) 1.088(3)
C17 C 0.6231(17) 0.7590(6) 1.0817(19)
N4 N 0.4538(11) 0.7680(4) 0.5003(14)
C18 C 0.4603(11) 0.7501(4) 0.6178(16)
C19 C 0.4158(16) 0.7117(4) 0.635(2)
C20 C 0.367(2) 0.6911(5) 0.542(2)
C21 C 0.3598(19) 0.7082(5) 0.402(2)
C22 C 0.4037(17) 0.7462(5) 0.3881(19)
N5 N 0.5552(11) 0.8925(4) 1.4648(15)
C23 C 0.5454(14) 0.9130(4) 1.3457(15)
C24 C 0.4899(12) 0.8914(4) 1.2280(12)
O3 O 0.4888(13) 0.8545(2) 1.2255(12)
C25 C 0.5892(16) 0.9503(5) 1.334(2)
C26 C 0.6407(16) 0.9659(4) 1.4652(17)
C27 C 0.6442(18) 0.9470(6) 1.568(2)
C28 C 0.6040(17) 0.9089(6) 1.5753(18)
N6 N 0.4329(12) 0.8952(4) 0.9854(13)
C29 C 0.4363(13) 0.9133(4) 1.1083(17)
C30 C 0.3903(16) 0.9522(4) 1.1243(18)
C31 C 0.3360(18) 0.9703(5) 1.016(2)
C32 C 0.3389(19) 0.9527(6) 0.888(2)
C33 C 0.385(2) 0.9151(7) 0.8751(19)
H9 H 0.61702 0.69893 0.76298
H10 H 0.69924 0.67891 0.99416
H11 H 0.71604 0.71344 1.16852
H12 H 0.62306 0.77227 1.16658
H13 H 0.42132 0.70308 0.72780
H14 H 0.33069 0.66506 0.55910
H15 H 0.34595 0.69391 0.32476
H16 H 0.39373 0.76165 0.29897
H17 H 0.58049 0.96672 1.24620
H18 H 0.66220 0.99444 1.46765
H19 H 0.69661 0.95874 1.64395
H20 H 0.60650 0.89642 1.66231
H21 H 0.39118 0.96149 1.21509
H22 H 0.29897 0.99508 1.03792
H23 H 0.31690 0.96932 0.81508
H24 H 0.38043 0.89859 0.78268
N5_2 N 0.5552(11) 0.8925(4) 0.4648(15)
O3_2 O 0.4888(13) 0.8545(2) 0.2255(12)
Ag3_2 Ag 0.50300(16) 0.82963(5) 1.47187(15)
Cl1 Cl 0.2733(5) 0.25374(16) 0.4941(6)
O4 O 0.305(2) 0.2266(6) 0.400(2)
O5 O 0.3657(14) 0.2729(5) 0.5582(15)
O6 O 0.2092(18) 0.2807(6) 0.419(2)
O7 O 0.225(2) 0.2295(4) 0.569(2)
Cl2 Cl 0.2425(7) 0.58069(18) 0.4781(7)
O8 O 0.3413(19) 0.5985(8) 0.551(3)
O9 O 0.182(2) 0.5652(5) 0.558(3)
O10 O 0.291(2) 0.5518(6) 0.383(2)
O11 O 0.200(2) 0.6154(8) 0.396(3)
Cl3 Cl 0.7416(8) 0.5849(2) -0.0245(8)
O16 O 0.6377(15) 0.6097(5) -0.074(3)
O17 O 0.7982(16) 0.6179(5) 0.0649(15)
O18 O 0.6934(15) 0.5593(5) 0.080(2)
O19 O 0.7970(18) 0.5783(9) -0.124(2)
O12? O 0.1360(14) 0.5627(5) 0.417(3)
O13? O 0.2872(18) 0.5516(4) 0.5635(15)
O14? O 0.297(2) 0.5940(11) 0.374(2)
O15? O 0.1908(13) 0.6117(4) 0.5732(15)
O20? O 0.847(2) 0.5683(8) 0.041(2)
O21? O 0.7877(18) 0.6134(5) -0.124(2)
O22? O 0.690(4) 0.6035(8) 0.053(3)
O23? O 0.6913(19) 0.5503(5) -0.110(2)
loop_
_geom_bond_atom_site_label_1
_geom_bond_atom_site_label_2
_geom_bond_site_symmetry_1
_geom_bond_site_symmetry_2
Ag1 N1 1_555 1_555
Ag2 N3 1_555 1_555
Ag3 O2 1_555 1_555
N1 C1 1_555 1_555
C1 C2 1_555 1_555
C2 O1 1_555 1_555
O1 Ag1 1_555 1_555
C3 C1 1_555 1_555
C4 C3 1_555 1_555
C5 C4 1_555 1_555
C6 N1 1_555 1_555
N2 C7 1_555 1_555
C7 C2 1_555 1_555
C8 C7 1_555 1_555
C9 C8 1_555 1_555
C10 C9 1_555 1_555
C11 N2 1_555 1_555
N3 C12 1_555 1_555
C12 C13 1_555 1_555
C13 O2 1_555 1_555
O2 Ag2 1_555 1_555
C14 C12 1_555 1_555
C15 C14 1_555 1_555
C16 C15 1_555 1_555
C17 N3 1_555 1_555
N4 Ag3 1_555 1_555
C18 C13 1_555 1_555
C19 C18 1_555 1_555
C20 C19 1_555 1_555
C21 C20 1_555 1_555
C22 N4 1_555 1_555
N5 C23 1_555 1_555
C23 C24 1_555 1_555
C24 O3 1_555 1_555
O3 Ag2 1_555 1_555
C25 C23 1_555 1_555
C26 C25 1_555 1_555
C27 C26 1_555 1_555
C28 N5 1_555 1_555
N6 Ag2 1_555 1_555
C29 C24 1_555 1_555
C30 C29 1_555 1_555
C31 C30 1_555 1_555
C32 C31 1_555 1_555
C33 N6 1_555 1_555
Cl1 O4 1_555 1_555
O5 Cl1 1_555 1_555
O6 Cl1 1_555 1_555
O7 Cl1 1_555 1_555
Cl2 O8 1_555 1_555
O9 Cl2 1_555 1_555
O10 Cl2 1_555 1_555
O11 Cl2 1_555 1_555
Cl3 O16 1_555 1_555
O17 Cl3 1_555 1_555
O18 Cl3 1_555 1_555
O19 Cl3 1_555 1_555
H1 C3 1_555 1_555
H2 C4 1_555 1_555
H3 C5 1_555 1_555
H4 C6 1_555 1_555
H5 C8 1_555 1_555
H6 C9 1_555 1_555
H7 C10 1_555 1_555
H8 C11 1_555 1_555
H9 C14 1_555 1_555
H10 C15 1_555 1_555
H11 C16 1_555 1_555
H12 C17 1_555 1_555
H13 C19 1_555 1_555
H14 C20 1_555 1_555
H15 C21 1_555 1_555
H16 C22 1_555 1_555
H17 C25 1_555 1_555
H18 C26 1_555 1_555
H19 C27 1_555 1_555
H20 C28 1_555 1_555
H21 C30 1_555 1_555
H22 C31 1_555 1_555
H23 C32 1_555 1_555
H24 C33 1_555 1_555
O1A Ag1 1_555 1_555
N2A Ag1 1_555 1_555
N5_2 Ag3 1_555 1_555
O3_2 Ag3 1_555 1_555
Ag1A O1 1_555 1_555
Ag3_2 N5 1_555 1_555
C5 C6 1_555 1_555
N2 Ag1A 1_555 1_555
C10 C11 1_555 1_555
C16 C17 1_555 1_555
N4 C18 1_555 1_555
C21 C22 1_555 1_555
O3 Ag3_2 1_555 1_555
C27 C28 1_555 1_555
N6 C29 1_555 1_555
C32 C33 1_555 1_555

#END
