
#######################################################################
#
#                 Cambridge Crystallographic Data Centre
#                                CCDC 
#
#######################################################################
#
# If this CIF has been generated from an entry in the Cambridge 
# Structural Database, then it will include bibliographic, chemical, 
# crystal, experimental, refinement or atomic coordinate data resulting 
# from the CCDC's data processing and validation procedures.
#
#######################################################################

data_XAVXIB
_symmetry_cell_setting           monoclinic
_symmetry_space_group_name_H-M   'P 21/c'
_symmetry_Int_Tables_number      14
_space_group_name_Hall           '-P 2ybc'
loop_
_symmetry_equiv_pos_site_id
_symmetry_equiv_pos_as_xyz
1 x,y,z
2 -x,1/2+y,1/2-z
3 -x,-y,-z
4 x,1/2-y,1/2+z
_cell_length_a                   6.76850(10)
_cell_length_b                   32.23370(10)
_cell_length_c                   8.17300(10)
_cell_angle_alpha                90
_cell_angle_beta                 111.5780(10)
_cell_angle_gamma                90
_cell_volume                     1658.17
loop_
_atom_site_label
_atom_site_type_symbol
_atom_site_fract_x
_atom_site_fract_y
_atom_site_fract_z
Ce1 Ce 0.03834(4) 0.157242(8) 0.33368(3)
Cu1 Cu 0.0000 0.0000 0.0000
O1 O 0.2688(6) 0.21840(10) 0.3781(5)
O2 O 0.6819(6) 0.19640(10) 0.7230(5)
O3 O 0.7566(6) 0.29400(10) 0.8134(5)
O4 O 0.3831(6) 0.31700(10) 0.4447(5)
O5 O 0.1014(6) -0.01750(10) 0.2464(5)
O6 O 0.0724(6) 0.07920(10) 0.3433(5)
O7 O 0.3970(6) 0.06010(10) 0.7457(5)
O8 O 0.3731(7) -0.03800(10) 0.6492(5)
O9 O -0.0210(6) 0.20590(10) 0.0606(5)
O10 O 0.3832(6) 0.13640(10) 0.5774(5)
O11 O 0.2700(7) 0.13260(10) 0.1717(5)
O12 O -0.2479(6) 0.12970(10) 0.0479(5)
O13 O -0.2585(6) 0.12030(10) 0.4127(5)
O14 O 0.0574(7) 0.1873(2) 0.6301(5)
O15 O -0.2125(7) 0.03790(10) 0.0340(5)
O16 O 0.2776(6) 0.05180(10) 0.0558(5)
C1 C 0.4081(8) 0.2393(2) 0.4942(7)
C2 C 0.5891(8) 0.2296(2) 0.6506(7)
C3 C 0.6268(8) 0.2733(2) 0.6887(7)
C4 C 0.4542(8) 0.2834(2) 0.5248(7)
C5 C 0.1698(8) 0.00440(10) 0.3830(6)
C6 C 0.1654(8) 0.0478(2) 0.4274(7)
C7 C 0.3072(9) 0.0388(2) 0.6108(7)
C8 C 0.2975(8) -0.0053(2) 0.5667(6)
H1 H -0.0359 0.1890 -0.0431
H2 H 0.1007 0.2241 0.0842
H3 H 0.4961 0.1557 0.6411
H4 H 0.4043 0.1110 0.6456
H5 H 0.2284 0.1040 0.1433
H6 H 0.2606 0.1466 0.0632
H7 H -0.1948 0.1381 -0.0437
H8 H -0.3660 0.1480 0.0389
H9 H -0.2371 0.0908 0.3996
H10 H -0.2181 0.1246 0.5394
H11 H 0.1537 0.1704 0.7237
H12 H -0.0805 0.1878 0.6410
H13 H -0.2825 0.0541 -0.0734
H14 H -0.1426 0.0568 0.1302
H15 H 0.2896 0.0599 -0.0549
H16 H 0.4205 0.0446 0.1375
O5B O -0.1014(6) 0.01750(10) -0.2464(5)
O6B O -0.0724(6) -0.07920(10) -0.3433(5)
O7B O -0.3970(6) -0.06010(10) -0.7457(5)
O8B O -0.3731(7) 0.03800(10) -0.6492(5)
C5B C -0.1698(8) -0.00440(10) -0.3830(6)
C6B C -0.1654(8) -0.0478(2) -0.4274(7)
C7B C -0.3072(9) -0.0388(2) -0.6108(7)
C8B C -0.2975(8) 0.0053(2) -0.5667(6)
O15B O 0.2125(7) -0.03790(10) -0.0340(5)
H13B H 0.2825 -0.0541 0.0734
H14B H 0.1426 -0.0568 -0.1302
O16B O -0.2776(6) -0.05180(10) -0.0558(5)
H15B H -0.2896 -0.0599 0.0549
H16B H -0.4205 -0.0446 -0.1375
Ce1B Ce -0.03834(4) -0.157242(8) -0.33368(3)
O1C O -0.7312(6) 0.28160(10) -0.1219(5)
O2C O -0.3181(6) 0.30360(10) 0.2230(5)
O3C O -0.2434(6) 0.20600(10) 0.3134(5)
O4C O -0.6169(6) 0.18300(10) -0.0553(5)
C1C C -0.5919(8) 0.2607(2) -0.0058(7)
C2C C -0.4109(8) 0.2704(2) 0.1506(7)
C3C C -0.3732(8) 0.2267(2) 0.1887(7)
C4C C -0.5458(8) 0.2166(2) 0.0248(7)
O9B O 0.0210(6) -0.20590(10) -0.0606(5)
H1B H 0.0359 -0.1890 0.0431
H2B H -0.1007 -0.2241 -0.0842
O10B O -0.3832(6) -0.13640(10) -0.5774(5)
H3B H -0.4961 -0.1557 -0.6411
H4B H -0.4043 -0.1110 -0.6456
O11B O -0.2700(7) -0.13260(10) -0.1717(5)
H5B H -0.2284 -0.1040 -0.1433
H6B H -0.2606 -0.1466 -0.0632
O12B O 0.2479(6) -0.12970(10) -0.0479(5)
H7B H 0.1948 -0.1381 0.0437
H8B H 0.3660 -0.1480 -0.0389
O13B O 0.2585(6) -0.12030(10) -0.4127(5)
H9B H 0.2371 -0.0908 -0.3996
H10B H 0.2181 -0.1246 -0.5394
O14B O -0.0574(7) -0.1873(2) -0.6301(5)
H11B H -0.1537 -0.1704 -0.7237
H12B H 0.0805 -0.1878 -0.6410
Ce1C Ce 1.03834(4) 0.342758(8) 0.83368(3)
O1B O -0.2688(6) -0.21840(10) -0.3781(5)
O3A O 0.2434(6) -0.20600(10) -0.3134(5)
Ce1C_2 Ce -0.96166(4) 0.342758(8) -0.16632(3)
O17 O -0.1018(9) 0.10700(10) -0.2044(6)
H17 H -0.1272 0.0770 -0.1966
H18 H -0.1473 0.1137 -0.3296
loop_
_geom_bond_atom_site_label_1
_geom_bond_atom_site_label_2
_geom_bond_site_symmetry_1
_geom_bond_site_symmetry_2
Ce1 O1 1_555 1_555
Cu1 O5 1_555 1_555
O1 C1 1_555 1_555
O2 C2 1_555 1_555
O3 C3 1_555 1_555
O4 C4 1_555 1_555
O5 C5 1_555 1_555
O6 Ce1 1_555 1_555
O7 C7 1_555 1_555
O8 C8 1_555 1_555
O9 Ce1 1_555 1_555
O10 Ce1 1_555 1_555
O11 Ce1 1_555 1_555
O12 Ce1 1_555 1_555
O13 Ce1 1_555 1_555
O14 Ce1 1_555 1_555
O15 Cu1 1_555 1_555
O16 Cu1 1_555 1_555
C1 C2 1_555 1_555
C2 C3 1_555 1_555
C3 C4 1_555 1_555
C4 C1 1_555 1_555
C5 C6 1_555 1_555
C6 O6 1_555 1_555
C7 C6 1_555 1_555
C8 C5 1_555 1_555
H1 O9 1_555 1_555
H2 O9 1_555 1_555
H3 O10 1_555 1_555
H4 O10 1_555 1_555
H5 O11 1_555 1_555
H6 O11 1_555 1_555
H7 O12 1_555 1_555
H8 O12 1_555 1_555
H9 O13 1_555 1_555
H10 O13 1_555 1_555
H11 O14 1_555 1_555
H12 O14 1_555 1_555
H13 O15 1_555 1_555
H14 O15 1_555 1_555
H15 O16 1_555 1_555
H16 O16 1_555 1_555
O17 H17 1_555 1_555
H18 O17 1_555 1_555
O5B Cu1 1_555 1_555
O6B C6B 1_555 1_555
O7B C7B 1_555 1_555
O8B C8B 1_555 1_555
C5B O5B 1_555 1_555
C6B C5B 1_555 1_555
C7B C6B 1_555 1_555
C8B C5B 1_555 1_555
O15B Cu1 1_555 1_555
H13B O15B 1_555 1_555
H14B O15B 1_555 1_555
O16B Cu1 1_555 1_555
H15B O16B 1_555 1_555
H16B O16B 1_555 1_555
Ce1B O6B 1_555 1_555
O1C C1C 1_555 1_555
O2C C2C 1_555 1_555
O3C Ce1 1_555 1_555
O4C C4C 1_555 1_555
C1C C2C 1_555 1_555
C2C C3C 1_555 1_555
C3C O3C 1_555 1_555
C4C C1C 1_555 1_555
O9B Ce1B 1_555 1_555
H1B O9B 1_555 1_555
H2B O9B 1_555 1_555
O10B Ce1B 1_555 1_555
H3B O10B 1_555 1_555
H4B O10B 1_555 1_555
O11B Ce1B 1_555 1_555
H5B O11B 1_555 1_555
H6B O11B 1_555 1_555
O12B Ce1B 1_555 1_555
H7B O12B 1_555 1_555
H8B O12B 1_555 1_555
O13B Ce1B 1_555 1_555
H9B O13B 1_555 1_555
H10B O13B 1_555 1_555
O14B Ce1B 1_555 1_555
H11B O14B 1_555 1_555
H12B O14B 1_555 1_555
Ce1C O3 1_555 1_555
O1B Ce1B 1_555 1_555
O3A Ce1B 1_555 1_555
Ce1C_2 O1C 1_555 1_555
C7 C8 1_555 1_555
C7B C8B 1_555 1_555
C3C C4C 1_555 1_555

#END
