
#######################################################################
#
#                 Cambridge Crystallographic Data Centre
#                                CCDC 
#
#######################################################################
#
# If this CIF has been generated from an entry in the Cambridge 
# Structural Database, then it will include bibliographic, chemical, 
# crystal, experimental, refinement or atomic coordinate data resulting 
# from the CCDC's data processing and validation procedures.
#
#######################################################################

data_XAWBOO
_symmetry_cell_setting           monoclinic
_symmetry_space_group_name_H-M   'C 2'
_symmetry_Int_Tables_number      5
_space_group_name_Hall           'C 2y'
loop_
_symmetry_equiv_pos_site_id
_symmetry_equiv_pos_as_xyz
1 x,y,z
2 -x,y,-z
3 1/2+x,1/2+y,z
4 1/2-x,1/2+y,-z
_cell_length_a                   17.8198(5)
_cell_length_b                   11.8244(3)
_cell_length_c                   49.5254(13)
_cell_angle_alpha                90
_cell_angle_beta                 94.6550(10)
_cell_angle_gamma                90
_cell_volume                     10401
loop_
_atom_site_label
_atom_site_type_symbol
_atom_site_fract_x
_atom_site_fract_y
_atom_site_fract_z
Cd1 Cd 0.009989(17) 0.21053(2) 0.250563(6)
O1 O -0.11206(17) 0.2249(4) 0.23315(7)
H1 H -0.1512(19) 0.190(4) 0.2370(9)
H2 H -0.118(3) 0.232(5) 0.2163(4)
O2 O 0.12789(19) 0.2302(3) 0.27269(7)
H3 H 0.1708(17) 0.204(4) 0.2702(10)
H4 H 0.134(3) 0.277(4) 0.2849(9)
N1 N 0.0563(2) 0.1935(4) 0.20776(8)
C1 C 0.0252(3) 0.1216(5) 0.18879(10)
H9 H -0.0104 0.0679 0.1941
C2 C 0.0421(3) 0.1220(5) 0.16239(10)
H10 H 0.0214 0.0658 0.1503
C3 C 0.0894(3) 0.2044(5) 0.15319(9)
C4 C 0.1232(3) 0.2776(5) 0.17286(11)
H11 H 0.1578 0.3336 0.1679
C5 C 0.1060(3) 0.2679(5) 0.19934(11)
H12 H 0.1308 0.3168 0.2124
N2 N 0.1251(2) 0.2549(4) 0.06892(9)
C6 C 0.1713(3) 0.2991(5) 0.08896(11)
H13 H 0.2121 0.3443 0.0841
C7 C 0.1634(3) 0.2834(5) 0.11610(10)
H14 H 0.1978 0.3179 0.1293
C8 C 0.1050(3) 0.2171(5) 0.12408(9)
C9 C 0.0577(3) 0.1668(5) 0.10362(10)
H15 H 0.0177 0.1188 0.1080
C10 C 0.0699(3) 0.1880(5) 0.07659(10)
H16 H 0.0373 0.1532 0.0629
N3 N -0.0360(2) 0.2068(5) 0.29398(8)
C11 C 0.0037(3) 0.1578(4) 0.31486(10)
H17 H 0.0444 0.1098 0.3113
C12 C -0.0119(3) 0.1739(4) 0.34112(10)
H18 H 0.0191 0.1396 0.3553
C13 C -0.0728(3) 0.2402(4) 0.34722(10)
C14 C -0.1154(3) 0.2875(5) 0.32538(11)
H19 H -0.1582 0.3326 0.3283
C15 C -0.0955(3) 0.2687(5) 0.29927(10)
H20 H -0.1255 0.3013 0.2846
N4 N -0.1223(3) 0.3128(4) 0.42896(9)
C16 C -0.1486(3) 0.3786(5) 0.40812(10)
H21 H -0.1788 0.4421 0.4118
C17 C -0.1339(3) 0.3585(5) 0.38165(10)
H22 H -0.1528 0.4087 0.3677
C18 C -0.0911(3) 0.2645(4) 0.37520(10)
C19 C -0.0645(3) 0.1961(5) 0.39686(10)
H23 H -0.0344 0.1318 0.3937
C20 C -0.0821(3) 0.2218(5) 0.42314(10)
H24 H -0.0648 0.1725 0.4375
N5 N 0.0120(2) 0.4126(6) 0.24950(7)
C21 C 0.0766(3) 0.4710(4) 0.25294(10)
H25 H 0.1226 0.4303 0.2551
C22 C 0.0793(3) 0.5884(5) 0.25344(10)
H26 H 0.1261 0.6270 0.2561
C23 C 0.0104(3) 0.6496(6) 0.24995(9)
C24 C -0.0555(3) 0.5869(5) 0.24619(11)
H27 H -0.1025 0.6250 0.2436
C25 C -0.0539(3) 0.4696(4) 0.24620(10)
H28 H -0.0999 0.4287 0.2439
N6 N 0.0114(3) 1.0120(5) 0.25197(8)
C26 C 0.0684(3) 0.9531(5) 0.24219(11)
H29 H 0.1095 0.9940 0.2360
C27 C 0.0697(3) 0.8365(5) 0.24077(12)
H30 H 0.1109 0.7990 0.2336
C28 C 0.0103(3) 0.7742(6) 0.24988(9)
C29 C -0.0484(3) 0.8351(5) 0.25954(12)
H31 H -0.0907 0.7967 0.2656
C30 C -0.0453(3) 0.9516(5) 0.26035(12)
H32 H -0.0860 0.9910 0.2673
Cd1_2 Cd 0.009989(17) 1.21053(2) 0.250563(6)
N6_2 N 0.0114(3) 0.0120(5) 0.25197(8)
Cd2 Cd 0.0000 0.41395(3) 0.5000
O3 O -0.12470(19) 0.3943(3) 0.48322(7)
H5 H -0.158(2) 0.441(4) 0.4854(10)
H6 H -0.134(3) 0.359(4) 0.4690(7)
N7 N 0.0466(2) 0.4267(4) 0.45696(8)
C31 C 0.0155(3) 0.4960(4) 0.43762(10)
H33 H -0.0204 0.5500 0.4426
C32 C 0.0330(3) 0.4929(4) 0.41079(10)
H34 H 0.0106 0.5451 0.3980
C33 C 0.0842(2) 0.4116(5) 0.40292(9)
C34 C 0.1170(3) 0.3431(5) 0.42277(11)
H35 H 0.1533 0.2888 0.4183
C35 C 0.0985(3) 0.3516(5) 0.44920(11)
H36 H 0.1230 0.3032 0.4625
N8 N 0.1281(2) 0.3614(3) 0.31958(8)
C36 C 0.1717(3) 0.3155(4) 0.33987(9)
H37 H 0.2126 0.2691 0.3355
C37 C 0.1603(3) 0.3320(4) 0.36694(9)
H38 H 0.1938 0.2989 0.3806
C38 C 0.0999(3) 0.3969(4) 0.37417(10)
C39 C 0.0564(3) 0.4481(4) 0.35288(10)
H39 H 0.0162 0.4971 0.3566
C40 C 0.0715(3) 0.4279(5) 0.32649(10)
H40 H 0.0403 0.4627 0.3124
N9 N 0.0000 0.6097(6) 0.5000
C41 C 0.0576(3) 0.6714(5) 0.49152(12)
H41 H 0.0992 0.6313 0.4854
C42 C 0.0606(3) 0.7886(5) 0.49110(12)
H42 H 0.1030 0.8263 0.4849
C43 C 0.0000 0.8510(7) 0.5000
N10 N 0.0000 1.2140(7) 0.5000
C44 C 0.0638(3) 1.1514(5) 0.50422(11)
H43 H 0.1100 1.1910 0.5076
C45 C 0.0666(3) 1.0348(4) 0.50400(10)
H44 H 0.1139 0.9977 0.5066
C46 C 0.0000 0.9698(7) 0.5000
Cd2_2 Cd 0.0000 1.41395(3) 0.5000
O3A O 0.12470(19) 0.3943(3) 0.51678(7)
H5A H 0.158(2) 0.441(4) 0.5146(10)
H6A H 0.134(3) 0.359(4) 0.5310(7)
N7A N -0.0466(2) 0.4267(4) 0.54304(8)
C31A C -0.0155(3) 0.4960(4) 0.56238(10)
H33A H 0.0204 0.5500 0.5574
C32A C -0.0330(3) 0.4929(4) 0.58921(10)
H34A H -0.0106 0.5451 0.6020
C33A C -0.0842(2) 0.4116(5) 0.59708(9)
C34A C -0.1170(3) 0.3431(5) 0.57723(11)
H35A H -0.1533 0.2888 0.5817
C35A C -0.0985(3) 0.3516(5) 0.55080(11)
H36A H -0.1230 0.3032 0.5375
N8A N -0.1281(2) 0.3614(3) 0.68042(8)
C36A C -0.1717(3) 0.3155(4) 0.66013(9)
H37A H -0.2126 0.2691 0.6645
C37A C -0.1603(3) 0.3320(4) 0.63306(9)
H38A H -0.1938 0.2989 0.6194
C38A C -0.0999(3) 0.3969(4) 0.62583(10)
C39A C -0.0564(3) 0.4481(4) 0.64712(10)
H39A H -0.0162 0.4971 0.6434
C40A C -0.0715(3) 0.4279(5) 0.67351(10)
H40A H -0.0403 0.4627 0.6876
C41A C -0.0576(3) 0.6714(5) 0.50848(12)
H41A H -0.0992 0.6313 0.5146
C42A C -0.0606(3) 0.7886(5) 0.50890(12)
H42A H -0.1030 0.8263 0.5151
N10_2 N 0.0000 0.2140(7) 0.5000
C44A C -0.0638(3) 1.1514(5) 0.49578(11)
H43A H -0.1100 1.1910 0.4924
C45A C -0.0666(3) 1.0348(4) 0.49600(10)
H44A H -0.1139 0.9977 0.4934
Cd3 Cd 0.0000 0.39599(3) 0.0000
O4 O 0.1184(2) 0.3854(4) 0.02167(8)
H7 H 0.154(3) 0.430(4) 0.0210(12)
H8 H 0.129(3) 0.343(4) 0.0348(9)
N11 N -0.0467(2) 0.4004(5) 0.04297(8)
C47 C -0.1050(3) 0.3360(5) 0.04886(11)
H45 H -0.1362 0.3038 0.0344
C48 C -0.1211(3) 0.3149(5) 0.07485(11)
H46 H -0.1625 0.2674 0.0780
C49 C -0.0786(3) 0.3614(4) 0.09683(10)
C50 C -0.0205(3) 0.4347(4) 0.09064(9)
H47 H 0.0084 0.4736 0.1047
C51 C -0.0056(3) 0.4502(4) 0.06379(11)
H48 H 0.0352 0.4976 0.0599
N12 N -0.1177(2) 0.2809(4) 0.17919(8)
C52 C -0.0786(3) 0.3709(5) 0.17296(10)
H49 H -0.0583 0.4173 0.1874
C53 C -0.0652(3) 0.4023(5) 0.14698(10)
H50 H -0.0378 0.4694 0.1439
C54 C -0.0919(3) 0.3357(5) 0.12577(10)
C55 C -0.1310(3) 0.2391(4) 0.13167(10)
H51 H -0.1499 0.1896 0.1176
C56 C -0.1421(3) 0.2156(5) 0.15858(10)
H52 H -0.1688 0.1487 0.1624
N13 N 0.0000 0.5936(7) 0.0000
C57 C -0.0514(3) 0.6530(5) 0.01257(13)
H53 H -0.0879 0.6123 0.0216
C58 C -0.0542(3) 0.7691(5) 0.01305(13)
H54 H -0.0918 0.8078 0.0220
C59 C 0.0000 0.8278(7) 0.0000
N14 N 0.0000 1.1923(6) 0.0000
C60 C -0.0636(3) 1.1325(5) -0.00306(11)
H55 H -0.1100 1.1723 -0.0057
C61 C -0.0657(3) 1.0188(5) -0.00263(11)
H56 H -0.1125 0.9801 -0.0041
C62 C 0.0000 0.9598(6) 0.0000
Cd3_2 Cd 0.0000 1.39599(3) 0.0000
O4A O -0.1184(2) 0.3854(4) -0.02167(8)
H7A H -0.154(3) 0.430(4) -0.0210(12)
H8A H -0.129(3) 0.343(4) -0.0348(9)
N11A N 0.0467(2) 0.4004(5) -0.04297(8)
C47A C 0.1050(3) 0.3360(5) -0.04886(11)
H45A H 0.1362 0.3038 -0.0344
C48A C 0.1211(3) 0.3149(5) -0.07485(11)
H46A H 0.1625 0.2674 -0.0780
C49A C 0.0786(3) 0.3614(4) -0.09683(10)
C50A C 0.0205(3) 0.4347(4) -0.09064(9)
H47A H -0.0084 0.4736 -0.1047
C51A C 0.0056(3) 0.4502(4) -0.06379(11)
H48A H -0.0352 0.4976 -0.0599
N12A N 0.1177(2) 0.2809(4) -0.17919(8)
C52A C 0.0786(3) 0.3709(5) -0.17296(10)
H49A H 0.0583 0.4173 -0.1874
C53A C 0.0652(3) 0.4023(5) -0.14698(10)
H50A H 0.0378 0.4694 -0.1439
C54A C 0.0919(3) 0.3357(5) -0.12577(10)
C55A C 0.1310(3) 0.2391(4) -0.13167(10)
H51A H 0.1499 0.1896 -0.1176
C56A C 0.1421(3) 0.2156(5) -0.15858(10)
H52A H 0.1688 0.1487 -0.1624
C57A C 0.0514(3) 0.6530(5) -0.01257(13)
H53A H 0.0879 0.6123 -0.0216
C58A C 0.0542(3) 0.7691(5) -0.01305(13)
H54A H 0.0918 0.8078 -0.0220
N14_2 N 0.0000 0.1923(6) 0.0000
C60A C 0.0636(3) 1.1325(5) 0.00306(11)
H55A H 0.1100 1.1723 0.0057
C61A C 0.0657(3) 1.0188(5) 0.00263(11)
H56A H 0.1125 0.9801 0.0041
N15 N 0.0591(4) 0.9751(5) 0.43940(10)
C63 C 0.1183(4) 1.0298(5) 0.43132(12)
H57 H 0.1460 1.0771 0.4440
C64 C 0.1422(3) 1.0219(5) 0.40534(10)
H58 H 0.1856 1.0617 0.4007
C65 C 0.1016(3) 0.9551(4) 0.38628(10)
C66 C 0.0401(3) 0.8990(5) 0.39449(11)
H59 H 0.0100 0.8528 0.3822
C67 C 0.0227(4) 0.9112(5) 0.42120(12)
H60 H -0.0191 0.8697 0.4267
N16 N 0.1699(3) 0.9187(5) 0.30449(10)
C68 C 0.1097(3) 0.8663(5) 0.31334(11)
H61 H 0.0819 0.8176 0.3010
C69 C 0.0850(3) 0.8771(5) 0.33884(10)
H62 H 0.0402 0.8401 0.3432
C70 C 0.1256(3) 0.9418(4) 0.35785(9)
C71 C 0.1878(3) 0.9987(4) 0.34963(10)
H63 H 0.2159 1.0477 0.3618
C72 C 0.2090(3) 0.9837(5) 0.32346(11)
H64 H 0.2532 1.0209 0.3185
N17 N 0.0530(3) 0.6138(5) 0.18812(10)
C73 C 0.1121(4) 0.5795(5) 0.17675(12)
H65 H 0.1470 0.5326 0.1871
C74 C 0.1281(4) 0.6072(5) 0.15010(11)
H66 H 0.1723 0.5793 0.1429
C75 C 0.0794(3) 0.6742(4) 0.13493(11)
C76 C 0.0162(3) 0.7156(6) 0.14718(11)
H67 H -0.0184 0.7657 0.1377
C77 C 0.0058(4) 0.6817(6) 0.17323(12)
H68 H -0.0378 0.7081 0.1811
N18 N 0.1261(3) 0.7777(5) 0.05455(10)
C78 C 0.0715(4) 0.8284(6) 0.06775(11)
H69 H 0.0438 0.8883 0.0589
C79 C 0.0541(3) 0.7973(5) 0.09343(11)
H70 H 0.0155 0.8355 0.1019
C80 C 0.0937(3) 0.7100(5) 0.10654(9)
C81 C 0.1490(3) 0.6553(5) 0.09278(12)
H71 H 0.1766 0.5938 0.1010
C82 C 0.1629(3) 0.6916(6) 0.06742(11)
H72 H 0.2007 0.6537 0.0584
N19 N 0.2223(2) -0.0523(4) 0.20299(9)
C83 C 0.2029(3) -0.1215(5) 0.18198(11)
H73 H 0.1795 -0.1915 0.1855
C84 C 0.2153(3) -0.0961(4) 0.15566(11)
H74 H 0.2004 -0.1481 0.1416
C85 C 0.2492(3) 0.0047(4) 0.14939(11)
C86 C 0.2689(3) 0.0781(5) 0.17144(12)
H75 H 0.2920 0.1490 0.1685
C87 C 0.2547(3) 0.0462(5) 0.19687(12)
H76 H 0.2686 0.0969 0.2113
N20 N 0.2948(3) 0.0940(6) 0.06849(12)
C88 C 0.3359(3) 0.1338(7) 0.08967(15)
H77 H 0.3770 0.1821 0.0866
C89 C 0.3224(3) 0.1089(6) 0.11610(14)
H78 H 0.3522 0.1430 0.1307
C90 C 0.2658(3) 0.0349(5) 0.12140(12)
C91 C 0.2232(3) -0.0108(5) 0.09956(12)
H79 H 0.1835 -0.0625 0.1020
C92 C 0.2409(4) 0.0221(7) 0.07332(14)
H80 H 0.2120 -0.0097 0.0582
N21 N 0.2297(3) 0.6009(4) 0.44725(9)
C93 C 0.2031(4) 0.6778(5) 0.42939(12)
H81 H 0.1759 0.7401 0.4358
C94 C 0.2130(3) 0.6721(4) 0.40194(11)
H82 H 0.1928 0.7294 0.3900
C95 C 0.2523(3) 0.5826(4) 0.39204(10)
C96 C 0.2805(3) 0.5027(5) 0.41073(11)
H83 H 0.3083 0.4396 0.4051
C97 C 0.2673(3) 0.5165(5) 0.43769(11)
H84 H 0.2868 0.4608 0.4502
N22 N 0.2815(3) 0.5537(4) 0.30661(9)
C98 C 0.3258(3) 0.4985(5) 0.32548(11)
H85 H 0.3643 0.4514 0.3195
C99 C 0.3192(3) 0.5056(4) 0.35288(10)
H86 H 0.3529 0.4651 0.3652
C100 C 0.2633(3) 0.5720(4) 0.36247(10)
C101 C 0.2158(3) 0.6297(5) 0.34328(11)
H87 H 0.1764 0.6763 0.3488
C102 C 0.2275(3) 0.6178(5) 0.31597(11)
H88 H 0.1950 0.6578 0.3032
Cl1 Cl 0.31734(6) 0.20331(13) 0.43986(2)
O5 O 0.2596(2) 0.2261(3) 0.45817(8)
O6 O 0.2844(2) 0.2062(4) 0.41246(7)
O7 O 0.3742(3) 0.2879(4) 0.44310(9)
O8 O 0.3478(3) 0.0931(4) 0.44601(8)
Cl2 Cl 0.40425(7) 0.17533(11) 0.33025(3)
O9 O 0.3430(2) 0.2279(3) 0.31410(8)
O10 O 0.4682(3) 0.1718(4) 0.31482(9)
O11 O 0.3842(3) 0.0657(5) 0.33708(15)
O12 O 0.4210(3) 0.2436(6) 0.35336(9)
Cl3 Cl 0.31562(9) 0.40575(16) 0.19495(3)
O13 O 0.3508(7) 0.2963(8) 0.1991(2)
O14 O 0.2836(4) 0.4149(7) 0.16716(17)
O15 O 0.2551(3) 0.4147(5) 0.21243(11)
O16 O 0.3683(3) 0.4949(4) 0.20109(9)
Cl4 Cl 0.36994(18) 0.4769(2) 0.07869(8)
O17 O 0.4290(7) 0.5313(12) 0.0667(4)
O18 O 0.3518(8) 0.3732(9) 0.0657(3)
O19 O 0.3044(10) 0.5383(17) 0.0827(4)
O20 O 0.4015(8) 0.4555(13) 0.1051(2)
O21 O 0.2722(2) 0.5981(3) 0.25067(7)
H89 H 0.274(4) 0.535(3) 0.2433(10)
H90 H 0.283(3) 0.590(5) 0.2674(4)
O22 O -0.2364(2) 0.4245(4) 0.26115(8)
H91 H -0.267(3) 0.398(5) 0.2715(10)
H92 H -0.255(3) 0.418(6) 0.2451(5)
O23 O 0.2672(2) 0.1545(4) 0.26542(8)
H93 H 0.262(4) 0.0850(19) 0.2668(12)
H94 H 0.293(3) 0.182(5) 0.2784(9)
O24 O 0.2630(2) 1.0399(3) 0.49724(8)
H95 H 0.263(4) 1.067(5) 0.5130(5)
H96 H 0.258(3) 1.096(3) 0.4866(9)
O25 O -0.2713(4) 0.3002(9) 0.01378(14)
O26 O -0.2515(4) 0.1569(11) -0.01538(16)
O27 O -0.2508(4) -0.0295(12) 0.01486(19)
O28? O 0.4132(6) 0.4269(10) 0.1311(2)
O29? O -0.2758(7) 0.0399(11) -0.0091(2)
O30? O 0.2565(9) 0.3704(14) 0.2340(3)
Cl5? Cl 0.3469(3) 0.3916(5) 0.16971(13)
Cl6? Cl 0.3445(2) 0.4941(3) 0.06380(13)
O31? O 0.345(2) 0.318(3) 0.1928(5)
O32? O 0.2821(11) 0.461(2) 0.1682(6)
O33? O 0.3394(12) 0.3179(15) 0.1459(3)
O34? O 0.4168(8) 0.4454(15) 0.1691(4)
O35? O 0.4240(8) 0.4864(18) 0.0703(6)
O36? O 0.3198(11) 0.3905(10) 0.0528(3)
O37? O 0.3102(16) 0.511(3) 0.0883(4)
O38? O 0.3291(6) 0.5808(8) 0.04623(19)
loop_
_geom_bond_atom_site_label_1
_geom_bond_atom_site_label_2
_geom_bond_site_symmetry_1
_geom_bond_site_symmetry_2
Cd1 O1 1_555 1_555
Cd2 O3 1_555 1_555
Cd3 O4 1_555 1_555
O1 H1 1_555 1_555
H2 O1 1_555 1_555
O2 Cd1 1_555 1_555
H3 O2 1_555 1_555
H4 O2 1_555 1_555
O3 H5 1_555 1_555
H6 O3 1_555 1_555
O4 H7 1_555 1_555
H8 O4 1_555 1_555
N1 Cd1 1_555 1_555
C1 N1 1_555 1_555
H9 C1 1_555 1_555
C2 C1 1_555 1_555
H10 C2 1_555 1_555
C3 C2 1_555 1_555
C4 C3 1_555 1_555
H11 C4 1_555 1_555
C5 N1 1_555 1_555
H12 C5 1_555 1_555
N2 C6 1_555 1_555
C6 H13 1_555 1_555
C7 C6 1_555 1_555
H14 C7 1_555 1_555
C8 C3 1_555 1_555
C9 C8 1_555 1_555
H15 C9 1_555 1_555
C10 N2 1_555 1_555
H16 C10 1_555 1_555
N3 Cd1 1_555 1_555
C11 N3 1_555 1_555
H17 C11 1_555 1_555
C12 C11 1_555 1_555
H18 C12 1_555 1_555
C13 C12 1_555 1_555
C14 C13 1_555 1_555
H19 C14 1_555 1_555
C15 N3 1_555 1_555
H20 C15 1_555 1_555
N4 C16 1_555 1_555
C16 H21 1_555 1_555
C17 C16 1_555 1_555
H22 C17 1_555 1_555
C18 C13 1_555 1_555
C19 C18 1_555 1_555
H23 C19 1_555 1_555
C20 N4 1_555 1_555
H24 C20 1_555 1_555
N5 Cd1 1_555 1_555
C21 N5 1_555 1_555
H25 C21 1_555 1_555
C22 C21 1_555 1_555
H26 C22 1_555 1_555
C23 C22 1_555 1_555
C24 C23 1_555 1_555
H27 C24 1_555 1_555
C25 N5 1_555 1_555
H28 C25 1_555 1_555
N6 C26 1_555 1_555
C26 H29 1_555 1_555
C27 C26 1_555 1_555
H30 C27 1_555 1_555
C28 C23 1_555 1_555
C29 C28 1_555 1_555
H31 C29 1_555 1_555
C30 N6 1_555 1_555
H32 C30 1_555 1_555
N7 Cd2 1_555 1_555
C31 N7 1_555 1_555
H33 C31 1_555 1_555
C32 C31 1_555 1_555
H34 C32 1_555 1_555
C33 C32 1_555 1_555
C34 C33 1_555 1_555
H35 C34 1_555 1_555
C35 N7 1_555 1_555
H36 C35 1_555 1_555
N8 C36 1_555 1_555
C36 H37 1_555 1_555
C37 C36 1_555 1_555
H38 C37 1_555 1_555
C38 C33 1_555 1_555
C39 C38 1_555 1_555
H39 C39 1_555 1_555
C40 N8 1_555 1_555
H40 C40 1_555 1_555
N9 Cd2 1_555 1_555
C41 N9 1_555 1_555
H41 C41 1_555 1_555
C42 C41 1_555 1_555
H42 C42 1_555 1_555
C43 C42 1_555 1_555
N10 C44 1_555 1_555
C44 H43 1_555 1_555
C45 C44 1_555 1_555
H44 C45 1_555 1_555
C46 C43 1_555 1_555
N11 Cd3 1_555 1_555
C47 N11 1_555 1_555
H45 C47 1_555 1_555
C48 C47 1_555 1_555
H46 C48 1_555 1_555
C49 C48 1_555 1_555
C50 C49 1_555 1_555
H47 C50 1_555 1_555
C51 N11 1_555 1_555
H48 C51 1_555 1_555
N12 C52 1_555 1_555
C52 H49 1_555 1_555
C53 C52 1_555 1_555
H50 C53 1_555 1_555
C54 C49 1_555 1_555
C55 C54 1_555 1_555
H51 C55 1_555 1_555
C56 N12 1_555 1_555
H52 C56 1_555 1_555
N13 Cd3 1_555 1_555
C57 N13 1_555 1_555
H53 C57 1_555 1_555
C58 C57 1_555 1_555
H54 C58 1_555 1_555
C59 C58 1_555 1_555
N14 C60 1_555 1_555
C60 H55 1_555 1_555
C61 C60 1_555 1_555
H56 C61 1_555 1_555
C62 C59 1_555 1_555
N15 C63 1_555 1_555
C63 H57 1_555 1_555
C64 C63 1_555 1_555
H58 C64 1_555 1_555
C65 C64 1_555 1_555
C66 C65 1_555 1_555
H59 C66 1_555 1_555
C67 N15 1_555 1_555
H60 C67 1_555 1_555
N16 C68 1_555 1_555
C68 H61 1_555 1_555
C69 C68 1_555 1_555
H62 C69 1_555 1_555
C70 C65 1_555 1_555
C71 C70 1_555 1_555
H63 C71 1_555 1_555
C72 N16 1_555 1_555
H64 C72 1_555 1_555
N17 C73 1_555 1_555
C73 H65 1_555 1_555
C74 C73 1_555 1_555
H66 C74 1_555 1_555
C75 C74 1_555 1_555
C76 C75 1_555 1_555
H67 C76 1_555 1_555
C77 N17 1_555 1_555
H68 C77 1_555 1_555
N18 C78 1_555 1_555
C78 H69 1_555 1_555
C79 C78 1_555 1_555
H70 C79 1_555 1_555
C80 C75 1_555 1_555
C81 C80 1_555 1_555
H71 C81 1_555 1_555
C82 N18 1_555 1_555
H72 C82 1_555 1_555
N19 C83 1_555 1_555
C83 H73 1_555 1_555
C84 C83 1_555 1_555
H74 C84 1_555 1_555
C85 C84 1_555 1_555
C86 C85 1_555 1_555
H75 C86 1_555 1_555
C87 N19 1_555 1_555
H76 C87 1_555 1_555
N20 C88 1_555 1_555
C88 H77 1_555 1_555
C89 C88 1_555 1_555
H78 C89 1_555 1_555
C90 C85 1_555 1_555
C91 C90 1_555 1_555
H79 C91 1_555 1_555
C92 N20 1_555 1_555
H80 C92 1_555 1_555
N21 C93 1_555 1_555
C93 H81 1_555 1_555
C94 C93 1_555 1_555
H82 C94 1_555 1_555
C95 C94 1_555 1_555
C96 C95 1_555 1_555
H83 C96 1_555 1_555
C97 N21 1_555 1_555
H84 C97 1_555 1_555
N22 C98 1_555 1_555
C98 H85 1_555 1_555
C99 C98 1_555 1_555
H86 C99 1_555 1_555
C100 C95 1_555 1_555
C101 C100 1_555 1_555
H87 C101 1_555 1_555
C102 N22 1_555 1_555
H88 C102 1_555 1_555
Cl1 O5 1_555 1_555
O6 Cl1 1_555 1_555
O7 Cl1 1_555 1_555
O8 Cl1 1_555 1_555
Cl2 O9 1_555 1_555
O10 Cl2 1_555 1_555
O11 Cl2 1_555 1_555
O12 Cl2 1_555 1_555
Cl3 O13 1_555 1_555
O14 Cl3 1_555 1_555
O15 Cl3 1_555 1_555
O16 Cl3 1_555 1_555
Cl4 O17 1_555 1_555
O18 Cl4 1_555 1_555
O19 Cl4 1_555 1_555
O20 Cl4 1_555 1_555
O21 H89 1_555 1_555
H90 O21 1_555 1_555
O22 H91 1_555 1_555
H92 O22 1_555 1_555
O23 H93 1_555 1_555
H94 O23 1_555 1_555
O24 H95 1_555 1_555
H96 O24 1_555 1_555
Cd1_2 N6 1_555 1_555
Cd2_2 N10 1_555 1_555
Cd3_2 N14 1_555 1_555
O3A Cd2 1_555 1_555
H5A O3A 1_555 1_555
H6A O3A 1_555 1_555
O4A Cd3 1_555 1_555
H7A O4A 1_555 1_555
H8A O4A 1_555 1_555
N6_2 Cd1 1_555 1_555
N7A Cd2 1_555 1_555
C31A N7A 1_555 1_555
H33A C31A 1_555 1_555
C32A C31A 1_555 1_555
H34A C32A 1_555 1_555
C33A C32A 1_555 1_555
C34A C33A 1_555 1_555
H35A C34A 1_555 1_555
C35A N7A 1_555 1_555
H36A C35A 1_555 1_555
N8A C36A 1_555 1_555
C36A H37A 1_555 1_555
C37A C36A 1_555 1_555
H38A C37A 1_555 1_555
C38A C33A 1_555 1_555
C39A C38A 1_555 1_555
H39A C39A 1_555 1_555
C40A N8A 1_555 1_555
H40A C40A 1_555 1_555
C41A N9 1_555 1_555
H41A C41A 1_555 1_555
C42A C43 1_555 1_555
H42A C42A 1_555 1_555
N10_2 Cd2 1_555 1_555
C44A N10 1_555 1_555
H43A C44A 1_555 1_555
C45A C46 1_555 1_555
H44A C45A 1_555 1_555
N11A Cd3 1_555 1_555
C47A N11A 1_555 1_555
H45A C47A 1_555 1_555
C48A C47A 1_555 1_555
H46A C48A 1_555 1_555
C49A C48A 1_555 1_555
C50A C49A 1_555 1_555
H47A C50A 1_555 1_555
C51A N11A 1_555 1_555
H48A C51A 1_555 1_555
N12A C52A 1_555 1_555
C52A H49A 1_555 1_555
C53A C52A 1_555 1_555
H50A C53A 1_555 1_555
C54A C49A 1_555 1_555
C55A C54A 1_555 1_555
H51A C55A 1_555 1_555
C56A N12A 1_555 1_555
H52A C56A 1_555 1_555
C57A N13 1_555 1_555
H53A C57A 1_555 1_555
C58A C59 1_555 1_555
H54A C58A 1_555 1_555
N14_2 Cd3 1_555 1_555
C60A N14 1_555 1_555
H55A C60A 1_555 1_555
C61A C62 1_555 1_555
H56A C61A 1_555 1_555
C4 C5 1_555 1_555
C7 C8 1_555 1_555
C9 C10 1_555 1_555
C14 C15 1_555 1_555
C17 C18 1_555 1_555
C19 C20 1_555 1_555
C24 C25 1_555 1_555
C27 C28 1_555 1_555
C29 C30 1_555 1_555
C34 C35 1_555 1_555
C37 C38 1_555 1_555
C39 C40 1_555 1_555
C45 C46 1_555 1_555
C50 C51 1_555 1_555
C53 C54 1_555 1_555
C55 C56 1_555 1_555
C61 C62 1_555 1_555
C66 C67 1_555 1_555
C69 C70 1_555 1_555
C71 C72 1_555 1_555
C76 C77 1_555 1_555
C79 C80 1_555 1_555
C81 C82 1_555 1_555
C86 C87 1_555 1_555
C89 C90 1_555 1_555
C91 C92 1_555 1_555
C96 C97 1_555 1_555
C99 C100 1_555 1_555
C101 C102 1_555 1_555
C34A C35A 1_555 1_555
C37A C38A 1_555 1_555
C39A C40A 1_555 1_555
C41A C42A 1_555 1_555
C44A C45A 1_555 1_555
C50A C51A 1_555 1_555
C53A C54A 1_555 1_555
C55A C56A 1_555 1_555
C57A C58A 1_555 1_555
C60A C61A 1_555 1_555

#END
