
#######################################################################
#
#                 Cambridge Crystallographic Data Centre
#                                CCDC 
#
#######################################################################
#
# If this CIF has been generated from an entry in the Cambridge 
# Structural Database, then it will include bibliographic, chemical, 
# crystal, experimental, refinement or atomic coordinate data resulting 
# from the CCDC's data processing and validation procedures.
#
#######################################################################

data_XAWMIT
_symmetry_cell_setting           triclinic
_symmetry_space_group_name_H-M   'P -1'
_symmetry_Int_Tables_number      2
_space_group_name_Hall           '-P 1'
loop_
_symmetry_equiv_pos_site_id
_symmetry_equiv_pos_as_xyz
1 x,y,z
2 -x,-y,-z
_cell_length_a                   13.108(4)
_cell_length_b                   13.284(4)
_cell_length_c                   13.322(7)
_cell_angle_alpha                110.428(6)
_cell_angle_beta                 108.699(5)
_cell_angle_gamma                105.389(4)
_cell_volume                     1863.85
loop_
_atom_site_label
_atom_site_type_symbol
_atom_site_fract_x
_atom_site_fract_y
_atom_site_fract_z
Na1 Na 0.16615(11) 0.62988(11) 0.38067(10)
O1 O 0.3496(3) 0.6608(3) 0.5328(3)
O2 O 0.2411(2) 0.8073(2) 0.5676(2)
O3 O -0.0156(3) 0.4793(3) 0.3542(3)
N1 N 0.1734(2) 0.5229(2) 0.20278(19)
N2 N 0.06816(19) 0.67181(19) 0.22927(19)
C1 C 0.0888(2) 0.5052(2) 0.1030(2)
C2 C 0.0307(2) 0.5906(2) 0.1185(2)
C3 C -0.0524(2) 0.5800(2) 0.0138(2)
H1 H -0.0860 0.6341 0.0230
C4 C 0.2522(3) 0.4669(3) 0.1914(3)
C5 C 0.3627(3) 0.5371(4) 0.2044(4)
C6 C 0.4420(4) 0.4848(5) 0.1990(4)
H2 H 0.5149 0.5282 0.2063
C7 C 0.4157(5) 0.3730(6) 0.1834(5)
H3 H 0.4703 0.3412 0.1793
C8 C 0.3121(5) 0.3073(5) 0.1739(4)
H4 H 0.2964 0.2312 0.1646
C9 C 0.2258(4) 0.3535(4) 0.1779(3)
C10 C 0.3937(4) 0.6621(4) 0.2234(5)
H5 H 0.3417 0.6901 0.2528
C11 C 0.3712(6) 0.6667(6) 0.1101(7)
H6 H 0.4115 0.6284 0.0726
H7 H 0.4002 0.7480 0.1265
H8 H 0.2873 0.6268 0.0571
C12 C 0.5227(5) 0.7456(6) 0.3198(7)
H9 H 0.5746 0.7443 0.2828
H10 H 0.5446 0.7199 0.3792
H11 H 0.5295 0.8249 0.3577
C13 C 0.1120(5) 0.2816(4) 0.1708(4)
H12 H 0.0570 0.3171 0.1501
C14 C 0.1286(6) 0.2881(6) 0.2928(6)
H13 H 0.1903 0.2643 0.3216
H14 H 0.0555 0.2360 0.2833
H15 H 0.1504 0.3680 0.3497
C15 C 0.0525(6) 0.1527(5) 0.0725(6)
H16 H 0.0460 0.1501 -0.0023
H17 H -0.0255 0.1147 0.0638
H18 H 0.0995 0.1123 0.0942
C16 C 0.0411(3) 0.7721(3) 0.2511(2)
C17 C -0.0602(3) 0.7728(3) 0.2654(3)
C18 C -0.0726(5) 0.8789(5) 0.3028(4)
H19 H -0.1392 0.8801 0.3131
C19 C 0.0105(6) 0.9800(5) 0.3243(5)
H20 H 0.0005 1.0498 0.3493
C20 C 0.1081(4) 0.9805(4) 0.3098(4)
H21 H 0.1645 1.0511 0.3256
C21 C 0.1262(3) 0.8777(3) 0.2717(3)
C22 C -0.1571(4) 0.6614(4) 0.2375(4)
H22 H -0.1356 0.5959 0.2066
C23 C -0.1664(4) 0.6679(5) 0.3513(5)
H23 H -0.0907 0.6840 0.4106
H24 H -0.2251 0.5937 0.3317
H25 H -0.1893 0.7303 0.3829
C24 C -0.2799(4) 0.6309(5) 0.1392(5)
H26 H -0.3052 0.6919 0.1680
H27 H -0.3371 0.5563 0.1207
H28 H -0.2736 0.6256 0.0679
C25 C 0.2362(3) 0.8796(3) 0.2576(4)
H29 H 0.2271 0.7974 0.2240
C26 C 0.2515(7) 0.9224(9) 0.1738(8)
H30 H 0.1786 0.8812 0.1002
H31 H 0.3138 0.9082 0.1571
H32 H 0.2721 1.0060 0.2091
C27 C 0.3456(5) 0.9490(7) 0.3747(5)
H33 H 0.3524 1.0280 0.4148
H34 H 0.4138 0.9526 0.3612
H35 H 0.3413 0.9114 0.4240
C28 C 0.4066(6) 0.5847(6) 0.5161(5)
H36 H 0.3523 0.5102 0.4451
H37 H 0.4314 0.5717 0.5848
H38 H 0.4748 0.6202 0.5071
C29 C 0.3995(4) 0.7587(5) 0.6371(4)
H39 H 0.4825 0.7980 0.6574
H40 H 0.3978 0.7345 0.6976
C30 C 0.3540(4) 0.8430(4) 0.6494(4)
H41 H 0.3580 0.8741 0.7288
H42 H 0.4059 0.9081 0.6465
C31 C 0.1965(5) 0.8938(4) 0.5837(4)
H43 H 0.1831 0.9109 0.6534
H44 H 0.1229 0.8648 0.5139
H45 H 0.2530 0.9649 0.5950
C32 C -0.0476(4) 0.4562(4) 0.4401(4)
H46 H -0.0578 0.3769 0.4270
H47 H -0.1218 0.4620 0.4314
C33 C -0.1065(4) 0.3977(4) 0.2341(4)
H48 H -0.1146 0.3187 0.2166
H49 H -0.0856 0.4179 0.1787
H50 H -0.1806 0.4017 0.2264
Na1A Na -0.16615(11) 0.37012(11) -0.38067(10)
Na1A_2 Na -0.16615(11) 0.37012(11) 0.61933(10)
O1A O -0.3496(3) 0.3392(3) -0.5328(3)
O2A O -0.2411(2) 0.1927(2) -0.5676(2)
O3A O 0.0156(3) 0.5207(3) 0.6458(3)
O3A_2 O 0.0156(3) 0.5207(3) -0.3542(3)
N1A N -0.1734(2) 0.4771(2) -0.20278(19)
N2A N -0.06816(19) 0.32819(19) -0.22927(19)
C1A C -0.0888(2) 0.4948(2) -0.1030(2)
C2A C -0.0307(2) 0.4094(2) -0.1185(2)
C3A C 0.0524(2) 0.4200(2) -0.0138(2)
H1A H 0.0860 0.3659 -0.0230
C4A C -0.2522(3) 0.5331(3) -0.1914(3)
C5A C -0.3627(3) 0.4629(4) -0.2044(4)
C6A C -0.4420(4) 0.5152(5) -0.1990(4)
H2A H -0.5149 0.4718 -0.2063
C7A C -0.4157(5) 0.6270(6) -0.1834(5)
H3A H -0.4703 0.6588 -0.1793
C8A C -0.3121(5) 0.6927(5) -0.1739(4)
H4A H -0.2964 0.7688 -0.1646
C9A C -0.2258(4) 0.6465(4) -0.1779(3)
C10A C -0.3937(4) 0.3379(4) -0.2234(5)
H5A H -0.3417 0.3099 -0.2528
C11A C -0.3712(6) 0.3333(6) -0.1101(7)
H6A H -0.4115 0.3716 -0.0726
H7A H -0.4002 0.2520 -0.1265
H8A H -0.2873 0.3732 -0.0571
C12A C -0.5227(5) 0.2544(6) -0.3198(7)
H9A H -0.5746 0.2557 -0.2828
H10A H -0.5446 0.2801 -0.3792
H11A H -0.5295 0.1751 -0.3577
C13A C -0.1120(5) 0.7184(4) -0.1708(4)
H12A H -0.0570 0.6829 -0.1501
C14A C -0.1286(6) 0.7119(6) -0.2928(6)
H13A H -0.1903 0.7357 -0.3216
H14A H -0.0555 0.7640 -0.2833
H15A H -0.1504 0.6320 -0.3497
C15A C -0.0525(6) 0.8473(5) -0.0725(6)
H16A H -0.0460 0.8499 0.0023
H17A H 0.0255 0.8853 -0.0638
H18A H -0.0995 0.8877 -0.0942
C16A C -0.0411(3) 0.2279(3) -0.2511(2)
C17A C 0.0602(3) 0.2272(3) -0.2654(3)
C18A C 0.0726(5) 0.1211(5) -0.3028(4)
H19A H 0.1392 0.1199 -0.3131
C19A C -0.0105(6) 0.0200(5) -0.3243(5)
H20A H -0.0005 -0.0498 -0.3493
C20A C -0.1081(4) 0.0195(4) -0.3098(4)
H21A H -0.1645 -0.0511 -0.3256
C21A C -0.1262(3) 0.1223(3) -0.2717(3)
C22A C 0.1571(4) 0.3386(4) -0.2375(4)
H22A H 0.1356 0.4041 -0.2066
C23A C 0.1664(4) 0.3321(5) -0.3513(5)
H23A H 0.0907 0.3160 -0.4106
H24A H 0.2251 0.4063 -0.3317
H25A H 0.1893 0.2697 -0.3829
C24A C 0.2799(4) 0.3691(5) -0.1392(5)
H26A H 0.3052 0.3081 -0.1680
H27A H 0.3371 0.4437 -0.1207
H28A H 0.2736 0.3744 -0.0679
C25A C -0.2362(3) 0.1204(3) -0.2576(4)
H29A H -0.2271 0.2026 -0.2240
C26A C -0.2515(7) 0.0776(9) -0.1738(8)
H30A H -0.1786 0.1188 -0.1002
H31A H -0.3138 0.0918 -0.1571
H32A H -0.2721 -0.0060 -0.2091
C27A C -0.3456(5) 0.0510(7) -0.3747(5)
H33A H -0.3524 -0.0280 -0.4148
H34A H -0.4138 0.0474 -0.3612
H35A H -0.3413 0.0886 -0.4240
C28A C -0.4066(6) 0.4153(6) -0.5161(5)
H36A H -0.3523 0.4898 -0.4451
H37A H -0.4314 0.4283 -0.5848
H38A H -0.4748 0.3798 -0.5071
C29A C -0.3995(4) 0.2413(5) -0.6371(4)
H39A H -0.4825 0.2020 -0.6574
H40A H -0.3978 0.2655 -0.6976
C30A C -0.3540(4) 0.1570(4) -0.6494(4)
H41A H -0.3580 0.1259 -0.7288
H42A H -0.4059 0.0919 -0.6465
C31A C -0.1965(5) 0.1062(4) -0.5837(4)
H43A H -0.1831 0.0891 -0.6534
H44A H -0.1229 0.1352 -0.5139
H45A H -0.2530 0.0351 -0.5950
C32A C 0.0476(4) 0.5438(4) 0.5599(4)
H46A H 0.0578 0.6231 0.5730
H47A H 0.1218 0.5380 0.5686
C33A C 0.1065(4) 0.6023(4) 0.7659(4)
H48A H 0.1146 0.6813 0.7834
H49A H 0.0856 0.5821 0.8213
H50A H 0.1806 0.5983 0.7736
loop_
_geom_bond_atom_site_label_1
_geom_bond_atom_site_label_2
_geom_bond_site_symmetry_1
_geom_bond_site_symmetry_2
Na1 O1 1_555 1_555
O1 C28 1_555 1_555
O2 Na1 1_555 1_555
O3 Na1 1_555 1_555
N1 Na1 1_555 1_555
N2 Na1 1_555 1_555
C1 N1 1_555 1_555
C2 N2 1_555 1_555
C3 C2 1_555 1_555
H1 C3 1_555 1_555
C4 N1 1_555 1_555
C5 C4 1_555 1_555
C6 C5 1_555 1_555
H2 C6 1_555 1_555
C7 C6 1_555 1_555
H3 C7 1_555 1_555
C8 C7 1_555 1_555
H4 C8 1_555 1_555
C9 C4 1_555 1_555
C10 C5 1_555 1_555
H5 C10 1_555 1_555
C11 C10 1_555 1_555
H6 C11 1_555 1_555
H7 C11 1_555 1_555
H8 C11 1_555 1_555
C12 C10 1_555 1_555
H9 C12 1_555 1_555
H10 C12 1_555 1_555
H11 C12 1_555 1_555
C13 C9 1_555 1_555
H12 C13 1_555 1_555
C14 C13 1_555 1_555
H13 C14 1_555 1_555
H14 C14 1_555 1_555
H15 C14 1_555 1_555
C15 C13 1_555 1_555
H16 C15 1_555 1_555
H17 C15 1_555 1_555
H18 C15 1_555 1_555
C16 N2 1_555 1_555
C17 C16 1_555 1_555
C18 C17 1_555 1_555
H19 C18 1_555 1_555
C19 C18 1_555 1_555
H20 C19 1_555 1_555
C20 C19 1_555 1_555
H21 C20 1_555 1_555
C21 C16 1_555 1_555
C22 C17 1_555 1_555
H22 C22 1_555 1_555
C23 C22 1_555 1_555
H23 C23 1_555 1_555
H24 C23 1_555 1_555
H25 C23 1_555 1_555
C24 C22 1_555 1_555
H26 C24 1_555 1_555
H27 C24 1_555 1_555
H28 C24 1_555 1_555
C25 C21 1_555 1_555
H29 C25 1_555 1_555
C26 C25 1_555 1_555
H30 C26 1_555 1_555
H31 C26 1_555 1_555
H32 C26 1_555 1_555
C27 C25 1_555 1_555
H33 C27 1_555 1_555
H34 C27 1_555 1_555
H35 C27 1_555 1_555
C28 H36 1_555 1_555
H37 C28 1_555 1_555
H38 C28 1_555 1_555
C29 O1 1_555 1_555
H39 C29 1_555 1_555
H40 C29 1_555 1_555
C30 O2 1_555 1_555
H41 C30 1_555 1_555
H42 C30 1_555 1_555
C31 O2 1_555 1_555
H43 C31 1_555 1_555
H44 C31 1_555 1_555
H45 C31 1_555 1_555
C32 O3 1_555 1_555
H46 C32 1_555 1_555
H47 C32 1_555 1_555
C33 O3 1_555 1_555
H48 C33 1_555 1_555
H49 C33 1_555 1_555
H50 C33 1_555 1_555
Na1A O1A 1_555 1_555
Na1A_2 O3A 1_555 1_555
O1A C28A 1_555 1_555
O2A Na1A 1_555 1_555
O3A C32A 1_555 1_555
O3A_2 Na1A 1_555 1_555
N1A Na1A 1_555 1_555
N2A Na1A 1_555 1_555
C1A C3 1_555 1_555
C2A N2A 1_555 1_555
C3A C1 1_555 1_555
H1A C3A 1_555 1_555
C4A N1A 1_555 1_555
C5A C4A 1_555 1_555
C6A C5A 1_555 1_555
H2A C6A 1_555 1_555
C7A C6A 1_555 1_555
H3A C7A 1_555 1_555
C8A C7A 1_555 1_555
H4A C8A 1_555 1_555
C9A C4A 1_555 1_555
C10A C5A 1_555 1_555
H5A C10A 1_555 1_555
C11A C10A 1_555 1_555
H6A C11A 1_555 1_555
H7A C11A 1_555 1_555
H8A C11A 1_555 1_555
C12A C10A 1_555 1_555
H9A C12A 1_555 1_555
H10A C12A 1_555 1_555
H11A C12A 1_555 1_555
C13A C9A 1_555 1_555
H12A C13A 1_555 1_555
C14A C13A 1_555 1_555
H13A C14A 1_555 1_555
H14A C14A 1_555 1_555
H15A C14A 1_555 1_555
C15A C13A 1_555 1_555
H16A C15A 1_555 1_555
H17A C15A 1_555 1_555
H18A C15A 1_555 1_555
C16A N2A 1_555 1_555
C17A C16A 1_555 1_555
C18A C17A 1_555 1_555
H19A C18A 1_555 1_555
C19A C18A 1_555 1_555
H20A C19A 1_555 1_555
C20A C19A 1_555 1_555
H21A C20A 1_555 1_555
C21A C16A 1_555 1_555
C22A C17A 1_555 1_555
H22A C22A 1_555 1_555
C23A C22A 1_555 1_555
H23A C23A 1_555 1_555
H24A C23A 1_555 1_555
H25A C23A 1_555 1_555
C24A C22A 1_555 1_555
H26A C24A 1_555 1_555
H27A C24A 1_555 1_555
H28A C24A 1_555 1_555
C25A C21A 1_555 1_555
H29A C25A 1_555 1_555
C26A C25A 1_555 1_555
H30A C26A 1_555 1_555
H31A C26A 1_555 1_555
H32A C26A 1_555 1_555
C27A C25A 1_555 1_555
H33A C27A 1_555 1_555
H34A C27A 1_555 1_555
H35A C27A 1_555 1_555
C28A H36A 1_555 1_555
H37A C28A 1_555 1_555
H38A C28A 1_555 1_555
C29A O1A 1_555 1_555
H39A C29A 1_555 1_555
H40A C29A 1_555 1_555
C30A O2A 1_555 1_555
H41A C30A 1_555 1_555
H42A C30A 1_555 1_555
C31A O2A 1_555 1_555
H43A C31A 1_555 1_555
H44A C31A 1_555 1_555
H45A C31A 1_555 1_555
C32A C32 1_555 1_555
H46A C32A 1_555 1_555
H47A C32A 1_555 1_555
C33A O3A 1_555 1_555
H48A C33A 1_555 1_555
H49A C33A 1_555 1_555
H50A C33A 1_555 1_555
C1 C2 1_555 1_555
C8 C9 1_555 1_555
C20 C21 1_555 1_555
C29 C30 1_555 1_555
N1A C1A 1_555 1_555
C1A C2A 1_555 1_555
C2A C3A 1_555 1_555
C8A C9A 1_555 1_555
C20A C21A 1_555 1_555
C29A C30A 1_555 1_555

#END
