
#######################################################################
#
#                 Cambridge Crystallographic Data Centre
#                                CCDC 
#
#######################################################################
#
# If this CIF has been generated from an entry in the Cambridge 
# Structural Database, then it will include bibliographic, chemical, 
# crystal, experimental, refinement or atomic coordinate data resulting 
# from the CCDC's data processing and validation procedures.
#
#######################################################################

data_XAWVAU
_symmetry_cell_setting           monoclinic
_symmetry_space_group_name_H-M   'C 2/c'
_symmetry_Int_Tables_number      15
_space_group_name_Hall           '-C 2yn'
loop_
_symmetry_equiv_pos_site_id
_symmetry_equiv_pos_as_xyz
1 x,y,z
2 -x,y,1/2-z
3 1/2+x,1/2+y,z
4 1/2-x,1/2+y,1/2-z
5 -x,-y,-z
6 x,-y,1/2+z
7 1/2-x,1/2-y,-z
8 1/2+x,1/2-y,1/2+z
_cell_length_a                   38.942(5)
_cell_length_b                   11.0604(13)
_cell_length_c                   32.778(4)
_cell_angle_alpha                90
_cell_angle_beta                 119.582(1)
_cell_angle_gamma                90
_cell_volume                     12277.7
loop_
_atom_site_label
_atom_site_type_symbol
_atom_site_fract_x
_atom_site_fract_y
_atom_site_fract_z
C3 C -0.0076(7) 0.462(2) 0.7725(9)
H4 H -0.0350 0.4747 0.7660
H5 H -0.0006 0.3766 0.7826
Cl1 Cl 0.0222(2) 0.5509(5) 0.8165(2)
I1 I 0.192816(6) 0.98404(2) 1.258987(7)
I2 I 0.15018(4) 0.64861(5) 1.28684(3)
I3 I 0.202800(6) 1.068260(19) 1.547070(7)
I4 I 0.100090(6) 0.874400(19) 1.497940(7)
Cu1 Cu 0.173770(12) 0.87184(4) 1.322410(14)
Cu2 Cu 0.150912(11) 0.79819(4) 1.226915(13)
Cu3 Cu 0.145990(11) 1.02434(4) 1.568170(14)
Cu4 Cu 0.150440(11) 0.95079(4) 1.470300(14)
P1 P 0.11714(2) 1.26244(8) 1.65297(3)
P2 P 0.11760(2) 1.18292(7) 1.58002(3)
P3 P 0.12667(2) 1.04792(8) 1.40261(3)
P4 P 0.13614(2) 1.00839(8) 1.33181(3)
O1 O 0.09189(7) 1.2705(2) 1.53436(7)
O2 O 0.10017(7) 1.1699(2) 1.39617(8)
N2 N 0.08977(9) 1.3758(3) 1.65282(11)
H6 H 0.1000 1.3911 1.6847
N3 N 0.09005(7) 1.1685(2) 1.60687(9)
N4 N 0.14054(8) 1.2904(2) 1.62147(9)
N5 N 0.15560(7) 1.0968(2) 1.38124(9)
N6 N 0.10306(8) 0.9739(3) 1.35028(10)
N7 N 0.11437(9) 1.0891(3) 1.28328(9)
H7 H 0.1289 1.0729 1.2678
N8 N 0.22924(9) 0.8309(3) 1.37058(10)
N9 N 0.17918(8) 0.9232(3) 1.62676(10)
N10 N 0.18185(9) 0.8079(3) 1.46540(10)
C4 C 0.05959(13) 1.4611(4) 1.61866(15)
C5 C 0.03296(13) 1.4936(4) 1.64052(17)
H8 H 0.0492 1.5305 1.6714
H9 H 0.0124 1.5507 1.6200
H10 H 0.0206 1.4199 1.6439
C6 C 0.07972(15) 1.5718(5) 1.6149(2)
H11 H 0.0941 1.5523 1.5982
H12 H 0.0600 1.6343 1.5975
H13 H 0.0983 1.6016 1.6464
C7 C 0.03361(13) 1.4043(4) 1.57110(14)
H14 H 0.0193 1.3357 1.5745
H15 H 0.0147 1.4644 1.5500
H16 H 0.0500 1.3761 1.5580
C8 C 0.06451(9) 1.0656(3) 1.60476(11)
C9 C 0.04500(10) 1.0967(3) 1.63400(13)
H17 H 0.0304 1.1729 1.6228
H18 H 0.0267 1.0320 1.6310
H19 H 0.0653 1.1054 1.6670
C10 C 0.08915(10) 0.9503(3) 1.62387(12)
H20 H 0.1110 0.9653 1.6556
H21 H 0.0725 0.8852 1.6247
H22 H 0.0998 0.9267 1.6035
C11 C 0.03302(10) 1.0475(3) 1.55339(12)
H23 H 0.0459 1.0322 1.5346
H24 H 0.0163 0.9783 1.5508
H25 H 0.0167 1.1204 1.5418
C12 C 0.18060(10) 1.3441(3) 1.63872(12)
C13 C 0.21255(10) 1.2495(3) 1.66512(12)
H26 H 0.2100 1.1841 1.6436
H27 H 0.2386 1.2871 1.6777
H28 H 0.2096 1.2166 1.6910
C14 C 0.18298(11) 1.3905(4) 1.59632(13)
H29 H 0.1616 1.4486 1.5790
H30 H 0.2085 1.4303 1.6070
H31 H 0.1803 1.3225 1.5758
C15 C 0.18529(12) 1.4498(4) 1.67150(14)
H32 H 0.1822 1.4200 1.6977
H33 H 0.2115 1.4858 1.6837
H34 H 0.1651 1.5109 1.6541
C16 C 0.07469(9) 1.2364(3) 1.48740(10)
C17 C 0.03384(9) 1.2370(3) 1.46149(11)
H35 H 0.0185 1.2523 1.4762
C18 C 0.01578(9) 1.2148(3) 1.41368(11)
H36 H -0.0122 1.2162 1.3954
C19 C 0.03802(10) 1.1908(3) 1.39213(11)
H37 H 0.0255 1.1757 1.3594
C20 C 0.07867(9) 1.1891(3) 1.41915(11)
C21 C 0.09783(9) 1.2132(3) 1.46711(11)
H38 H 0.1258 1.2136 1.4853
C22 C 0.19457(9) 1.1605(3) 1.40627(11)
C23 C 0.19025(10) 1.2698(3) 1.43217(12)
H39 H 0.1838 1.2419 1.4559
H40 H 0.2151 1.3150 1.4474
H41 H 0.1691 1.3224 1.4097
C24 C 0.22641(9) 1.0750(3) 1.44104(12)
H42 H 0.2279 1.0035 1.4243
H43 H 0.2520 1.1165 1.4561
H44 H 0.2198 1.0501 1.4650
C25 C 0.20572(11) 1.2025(4) 1.37000(12)
H45 H 0.1853 1.2574 1.3477
H46 H 0.2311 1.2449 1.3859
H47 H 0.2079 1.1323 1.3532
C26 C 0.07499(10) 0.8693(4) 1.33650(12)
C27 C 0.09585(12) 0.7566(4) 1.36416(13)
H48 H 0.1050 0.7702 1.3975
H49 H 0.0775 0.6882 1.3529
H50 H 0.1185 0.7389 1.3599
C28 C 0.04162(11) 0.9050(4) 1.34592(14)
H51 H 0.0281 0.9768 1.3274
H52 H 0.0227 0.8382 1.3370
H53 H 0.0526 0.9229 1.3794
C29 C 0.05827(12) 0.8464(4) 1.28381(13)
H54 H 0.0799 0.8264 1.2778
H55 H 0.0395 0.7790 1.2738
H56 H 0.0447 0.9193 1.2662
C30 C 0.08809(13) 1.1951(4) 1.26615(12)
C31 C 0.1064(2) 1.3088(5) 1.2934(3)
H57 H 0.0968 1.3229 1.3157
H58 H 0.1352 1.3003 1.3107
H59 H 0.0990 1.3774 1.2718
C32 C 0.05181(18) 1.1720(7) 1.2737(3)
H60 H 0.0388 1.0964 1.2582
H61 H 0.0610 1.1660 1.3074
H62 H 0.0331 1.2391 1.2603
C33 C 0.0687(3) 1.1975(7) 1.21354(15)
H63 H 0.0885 1.1803 1.2040
H64 H 0.0479 1.1362 1.2003
H65 H 0.0572 1.2776 1.2020
C34 C 0.26168(10) 0.8172(3) 1.39704(11)
C35 C 0.30319(10) 0.7994(3) 1.43127(12)
H66 H 0.3107 0.8541 1.4579
H67 H 0.3194 0.8166 1.4166
H68 H 0.3074 0.7155 1.4423
C36 C 0.20293(12) 0.8759(4) 1.65887(13)
C37 C 0.23477(16) 0.8158(5) 1.69991(15)
H69 H 0.2414 0.8633 1.7281
H70 H 0.2261 0.7349 1.7031
H71 H 0.2581 0.8091 1.6960
C38 C 0.19392(10) 0.7278(3) 1.45445(12)
C39 C 0.20875(12) 0.6236(3) 1.44021(15)
H72 H 0.1986 0.6266 1.4063
H73 H 0.2377 0.6257 1.4566
H74 H 0.1999 0.5488 1.4482
Cu2E Cu 0.150912(11) 1.20181(4) 1.726915(13)
P1E P 0.11714(2) 0.73756(8) 1.15297(3)
N1 N 0.14887(12) 0.4993(3) 0.97461(14)
C1 C 0.11745(15) 0.4854(4) 0.96328(17)
C2 C 0.07594(16) 0.4664(5) 0.9481(3)
H1 H 0.0690 0.3819 0.9386
H2 H 0.0598 0.5196 0.9215
H3 H 0.0710 0.4848 0.9740
Cl2? Cl -0.0065(2) 0.4817(8) 0.7222(3)
C40? C 0.0490(3) 0.8250(12) 0.7218(4)
C41? C 0.1118(3) 0.7319(11) 0.7472(5)
C42? C 0.0877(4) 0.7171(11) 0.8016(4)
H75? H 0.0311 0.8695 0.7294
H76? H 0.0372 0.7467 0.7080
H77? H 0.0534 0.8717 0.6994
H78? H 0.1123 0.7774 0.7218
H79? H 0.0991 0.6535 0.7353
H80? H 0.1389 0.7193 0.7727
H81? H 0.0733 0.7531 0.8160
H82? H 0.1149 0.6998 0.8259
H83? H 0.0747 0.6419 0.7856
I5? I 0.13678(16) 0.6603(3) 1.27980(12)
loop_
_geom_bond_atom_site_label_1
_geom_bond_atom_site_label_2
_geom_bond_site_symmetry_1
_geom_bond_site_symmetry_2
N1 C1 1_555 1_555
C1 C2 1_555 1_555
C2 H1 1_555 1_555
H2 C2 1_555 1_555
H3 C2 1_555 1_555
C3 H4 1_555 1_555
H5 C3 1_555 1_555
Cl1 C3 1_555 1_555
I1 Cu1 1_555 1_555
I2 Cu1 1_555 1_555
I3 Cu3 1_555 1_555
I4 Cu3 1_555 1_555
Cu1 P4 1_555 1_555
Cu2 I1 1_555 1_555
Cu3 P2 1_555 1_555
Cu4 I3 1_555 1_555
P1 N2 1_555 1_555
P2 O1 1_555 1_555
P3 Cu4 1_555 1_555
P4 N5 1_555 1_555
O1 C16 1_555 1_555
O2 P3 1_555 1_555
N2 H6 1_555 1_555
N3 P1 1_555 1_555
N4 P1 1_555 1_555
N5 P3 1_555 1_555
N6 P3 1_555 1_555
N7 P4 1_555 1_555
H7 N7 1_555 1_555
N8 Cu1 1_555 1_555
N9 Cu3 1_555 1_555
N10 Cu4 1_555 1_555
C4 N2 1_555 1_555
C5 C4 1_555 1_555
H8 C5 1_555 1_555
H9 C5 1_555 1_555
H10 C5 1_555 1_555
C6 C4 1_555 1_555
H11 C6 1_555 1_555
H12 C6 1_555 1_555
H13 C6 1_555 1_555
C7 C4 1_555 1_555
H14 C7 1_555 1_555
H15 C7 1_555 1_555
H16 C7 1_555 1_555
C8 N3 1_555 1_555
C9 C8 1_555 1_555
H17 C9 1_555 1_555
H18 C9 1_555 1_555
H19 C9 1_555 1_555
C10 C8 1_555 1_555
H20 C10 1_555 1_555
H21 C10 1_555 1_555
H22 C10 1_555 1_555
C11 C8 1_555 1_555
H23 C11 1_555 1_555
H24 C11 1_555 1_555
H25 C11 1_555 1_555
C12 N4 1_555 1_555
C13 C12 1_555 1_555
H26 C13 1_555 1_555
H27 C13 1_555 1_555
H28 C13 1_555 1_555
C14 C12 1_555 1_555
H29 C14 1_555 1_555
H30 C14 1_555 1_555
H31 C14 1_555 1_555
C15 C12 1_555 1_555
H32 C15 1_555 1_555
H33 C15 1_555 1_555
H34 C15 1_555 1_555
C16 C17 1_555 1_555
C17 H35 1_555 1_555
C18 C17 1_555 1_555
H36 C18 1_555 1_555
C19 C18 1_555 1_555
H37 C19 1_555 1_555
C20 O2 1_555 1_555
C21 C16 1_555 1_555
H38 C21 1_555 1_555
C22 N5 1_555 1_555
C23 C22 1_555 1_555
H39 C23 1_555 1_555
H40 C23 1_555 1_555
H41 C23 1_555 1_555
C24 C22 1_555 1_555
H42 C24 1_555 1_555
H43 C24 1_555 1_555
H44 C24 1_555 1_555
C25 C22 1_555 1_555
H45 C25 1_555 1_555
H46 C25 1_555 1_555
H47 C25 1_555 1_555
C26 N6 1_555 1_555
C27 C26 1_555 1_555
H48 C27 1_555 1_555
H49 C27 1_555 1_555
H50 C27 1_555 1_555
C28 C26 1_555 1_555
H51 C28 1_555 1_555
H52 C28 1_555 1_555
H53 C28 1_555 1_555
C29 C26 1_555 1_555
H54 C29 1_555 1_555
H55 C29 1_555 1_555
H56 C29 1_555 1_555
C30 N7 1_555 1_555
C31 C30 1_555 1_555
H57 C31 1_555 1_555
H58 C31 1_555 1_555
H59 C31 1_555 1_555
C32 C30 1_555 1_555
H60 C32 1_555 1_555
H61 C32 1_555 1_555
H62 C32 1_555 1_555
C33 C30 1_555 1_555
H63 C33 1_555 1_555
H64 C33 1_555 1_555
H65 C33 1_555 1_555
C34 N8 1_555 1_555
C35 C34 1_555 1_555
H66 C35 1_555 1_555
H67 C35 1_555 1_555
H68 C35 1_555 1_555
C36 N9 1_555 1_555
C37 C36 1_555 1_555
H69 C37 1_555 1_555
H70 C37 1_555 1_555
H71 C37 1_555 1_555
C38 N10 1_555 1_555
C39 C38 1_555 1_555
H72 C39 1_555 1_555
H73 C39 1_555 1_555
H74 C39 1_555 1_555
Cu2E P1 1_555 1_555
P1E Cu2 1_555 1_555
I2 Cu2 1_555 1_555
I4 Cu4 1_555 1_555
P2 N3 1_555 1_555
P2 N4 1_555 1_555
P4 N6 1_555 1_555
C19 C20 1_555 1_555
C20 C21 1_555 1_555

#END
