
#######################################################################
#
#                 Cambridge Crystallographic Data Centre
#                                CCDC 
#
#######################################################################
#
# If this CIF has been generated from an entry in the Cambridge 
# Structural Database, then it will include bibliographic, chemical, 
# crystal, experimental, refinement or atomic coordinate data resulting 
# from the CCDC's data processing and validation procedures.
#
#######################################################################

data_XAWVUN
_symmetry_cell_setting           orthorhombic
_symmetry_space_group_name_H-M   'C c c m'
_symmetry_Int_Tables_number      66
_space_group_name_Hall           '-C 2 2n'
loop_
_symmetry_equiv_pos_site_id
_symmetry_equiv_pos_as_xyz
1 x,y,z
2 1/2+x,1/2+y,z
3 -x,-y,z
4 -x,y,1/2-z
5 x,-y,1/2-z
6 1/2-x,1/2-y,z
7 1/2-x,1/2+y,1/2-z
8 1/2+x,1/2-y,1/2-z
9 -x,-y,-z
10 1/2-x,1/2-y,-z
11 x,y,-z
12 x,-y,1/2+z
13 -x,y,1/2+z
14 1/2+x,1/2+y,-z
15 1/2+x,1/2-y,1/2+z
16 1/2-x,1/2+y,1/2+z
_cell_length_a                   15.2563(12)
_cell_length_b                   28.288(2)
_cell_length_c                   23.5937(18)
_cell_angle_alpha                90
_cell_angle_beta                 90
_cell_angle_gamma                90
_cell_volume                     10182.3
loop_
_atom_site_label
_atom_site_type_symbol
_atom_site_fract_x
_atom_site_fract_y
_atom_site_fract_z
Cu1 Cu 0.18480(2) 0.280884(13) 0.5000
O1 O 0.13704(12) 0.23901(6) 0.44164(7)
O2 O 0.24633(12) 0.18640(6) 0.44163(7)
O3 O 0.0772(2) 0.32903(12) 0.5000
N1 N 0.0000 0.09965(9) 0.2500
C1 C 0.17424(19) 0.20260(9) 0.42401(10)
C2 C 0.12925(17) 0.17528(8) 0.37845(10)
C3 C 0.16682(18) 0.13474(9) 0.35618(11)
H1 H 0.2204 0.1240 0.3699
C4 C 0.12405(19) 0.10998(9) 0.31298(11)
H2 H 0.1502 0.0833 0.2973
C5 C 0.04298(19) 0.12482(8) 0.29343(10)
C6 C 0.00706(18) 0.16511(9) 0.31574(12)
H3 H -0.0469 0.1757 0.3026
C7 C 0.04975(19) 0.19018(9) 0.35739(12)
H4 H 0.0245 0.2177 0.3716
C8 C 0.0000 0.04979(11) 0.2500
C9 C -0.00185(17) 0.02439(8) 0.29995(10)
H5 H -0.0057 0.0404 0.3343
Cu1C Cu -0.18480(2) 0.280884(13) 0.0000
Cu1E Cu 0.31520(2) 0.219116(13) 0.5000
Cu1G Cu -0.31520(2) 0.219116(13) 0.0000
Cu1B Cu -0.18480(2) -0.280884(13) 0.5000
Cu1A Cu -0.31520(2) -0.219116(13) 0.5000
Cu1D Cu 0.18480(2) -0.280884(13) 0.0000
Cu1F Cu 0.31520(2) -0.219116(13) 0.0000
O1C O -0.13704(12) 0.23901(6) 0.05836(7)
O1B O -0.13704(12) -0.23901(6) 0.44164(7)
O1D O 0.13704(12) -0.23901(6) 0.05836(7)
O1J O 0.13704(12) 0.23901(6) 0.55836(7)
O1L O -0.13704(12) 0.23901(6) -0.05836(7)
O2C O -0.24633(12) 0.18640(6) 0.05837(7)
O2B O -0.24633(12) -0.18640(6) 0.44163(7)
O2D O 0.24633(12) -0.18640(6) 0.05837(7)
O2I O 0.25367(12) 0.31360(6) 0.55837(7)
O2E O 0.25367(12) 0.31360(6) 0.44163(7)
O2N O -0.25367(12) 0.31360(6) -0.05837(7)
O2G O -0.25367(12) 0.31360(6) 0.05837(7)
O3C O -0.0772(2) 0.32903(12) 0.0000
N1B N 0.0000 -0.09965(9) 0.2500
C1C C -0.17424(19) 0.20260(9) 0.07599(10)
C1B C -0.17424(19) -0.20260(9) 0.42401(10)
C1D C 0.17424(19) -0.20260(9) 0.07599(10)
C2C C -0.12925(17) 0.17528(8) 0.12155(10)
C2B C -0.12925(17) -0.17528(8) 0.37845(10)
C2D C 0.12925(17) -0.17528(8) 0.12155(10)
C3C C -0.16682(18) 0.13474(9) 0.14382(11)
C3B C -0.16682(18) -0.13474(9) 0.35618(11)
C3D C 0.16682(18) -0.13474(9) 0.14382(11)
H1C H -0.2204 0.1240 0.1301
H1B H -0.2204 -0.1240 0.3699
H1D H 0.2204 -0.1240 0.1301
C4C C -0.12405(19) 0.10998(9) 0.18702(11)
C4B C -0.12405(19) -0.10998(9) 0.31298(11)
C4D C 0.12405(19) -0.10998(9) 0.18702(11)
H2C H -0.1502 0.0833 0.2027
H2B H -0.1502 -0.0833 0.2973
H2D H 0.1502 -0.0833 0.2027
C5C C -0.04298(19) 0.12482(8) 0.20657(10)
C5B C -0.04298(19) -0.12482(8) 0.29343(10)
C5D C 0.04298(19) -0.12482(8) 0.20657(10)
C6C C -0.00706(18) 0.16511(9) 0.18426(12)
C6B C -0.00706(18) -0.16511(9) 0.31574(12)
C6D C 0.00706(18) -0.16511(9) 0.18426(12)
H3C H 0.0469 0.1757 0.1974
H3B H 0.0469 -0.1757 0.3026
H3D H -0.0469 -0.1757 0.1974
C7C C -0.04975(19) 0.19018(9) 0.14261(12)
C7B C -0.04975(19) -0.19018(9) 0.35739(12)
C7D C 0.04975(19) -0.19018(9) 0.14261(12)
H4C H -0.0245 0.2177 0.1284
H4B H -0.0245 -0.2177 0.3716
H4D H 0.0245 -0.2177 0.1284
C8B C 0.0000 -0.04979(11) 0.2500
C9B C 0.00185(17) -0.02439(8) 0.29995(10)
C9D C -0.00185(17) -0.02439(8) 0.20005(10)
C9C C 0.00185(17) 0.02439(8) 0.20005(10)
H5C H 0.0057 0.0404 0.1657
H5D H -0.0057 -0.0404 0.1657
H5B H 0.0057 -0.0404 0.3343
loop_
_geom_bond_atom_site_label_1
_geom_bond_atom_site_label_2
_geom_bond_site_symmetry_1
_geom_bond_site_symmetry_2
Cu1 O1 1_555 1_555
O1 C1 1_555 1_555
O2 C1 1_555 1_555
O3 Cu1 1_555 1_555
N1 C5 1_555 1_555
C1 C2 1_555 1_555
C2 C3 1_555 1_555
C3 H1 1_555 1_555
C4 C3 1_555 1_555
H2 C4 1_555 1_555
C5 C4 1_555 1_555
C6 C5 1_555 1_555
H3 C6 1_555 1_555
C7 C2 1_555 1_555
H4 C7 1_555 1_555
C8 N1 1_555 1_555
C9 C8 1_555 1_555
H5 C9 1_555 1_555
Cu1C Cu1G 1_555 1_555
Cu1E Cu1 1_555 1_555
Cu1G O2C 1_555 1_555
Cu1B Cu1A 1_555 1_555
Cu1A O2B 1_555 1_555
Cu1D Cu1F 1_555 1_555
Cu1F O2D 1_555 1_555
O1C Cu1C 1_555 1_555
O1B Cu1B 1_555 1_555
O1D Cu1D 1_555 1_555
O1J Cu1 1_555 1_555
O1L Cu1C 1_555 1_555
O2C C1C 1_555 1_555
O2B C1B 1_555 1_555
O2D C1D 1_555 1_555
O2I Cu1 1_555 1_555
O2E Cu1 1_555 1_555
O2N Cu1C 1_555 1_555
O2G Cu1C 1_555 1_555
O3C Cu1C 1_555 1_555
N1B C5B 1_555 1_555
C1C O1C 1_555 1_555
C1B O1B 1_555 1_555
C1D O1D 1_555 1_555
C2C C1C 1_555 1_555
C2B C1B 1_555 1_555
C2D C1D 1_555 1_555
C3C C2C 1_555 1_555
C3B C2B 1_555 1_555
C3D C2D 1_555 1_555
H1C C3C 1_555 1_555
H1B C3B 1_555 1_555
H1D C3D 1_555 1_555
C4C C3C 1_555 1_555
C4B C3B 1_555 1_555
C4D C3D 1_555 1_555
H2C C4C 1_555 1_555
H2B C4B 1_555 1_555
H2D C4D 1_555 1_555
C5C N1 1_555 1_555
C5B C4B 1_555 1_555
C5D N1B 1_555 1_555
C6C C5C 1_555 1_555
C6B C5B 1_555 1_555
C6D C5D 1_555 1_555
H3C C6C 1_555 1_555
H3B C6B 1_555 1_555
H3D C6D 1_555 1_555
C7C C2C 1_555 1_555
C7B C2B 1_555 1_555
C7D C2D 1_555 1_555
H4C C7C 1_555 1_555
H4B C7B 1_555 1_555
H4D C7D 1_555 1_555
C8B N1B 1_555 1_555
C9B C9 1_555 1_555
C9D C8B 1_555 1_555
C9C C8 1_555 1_555
H5C C9C 1_555 1_555
H5D C9D 1_555 1_555
H5B C9B 1_555 1_555
O2 Cu1E 1_555 1_555
C6 C7 1_555 1_555
C4C C5C 1_555 1_555
C4D C5D 1_555 1_555
C6C C7C 1_555 1_555
C6B C7B 1_555 1_555
C6D C7D 1_555 1_555
C8B C9B 1_555 1_555
C9D C9C 1_555 1_555

#END
