
#######################################################################
#
#                 Cambridge Crystallographic Data Centre
#                                CCDC 
#
#######################################################################
#
# If this CIF has been generated from an entry in the Cambridge 
# Structural Database, then it will include bibliographic, chemical, 
# crystal, experimental, refinement or atomic coordinate data resulting 
# from the CCDC's data processing and validation procedures.
#
#######################################################################

data_XAWYEA
_symmetry_cell_setting           monoclinic
_symmetry_space_group_name_H-M   'P 21/n'
_symmetry_Int_Tables_number      14
_space_group_name_Hall           '-P 2yn'
loop_
_symmetry_equiv_pos_site_id
_symmetry_equiv_pos_as_xyz
1 x,y,z
2 1/2-x,1/2+y,1/2-z
3 -x,-y,-z
4 1/2+x,1/2-y,1/2+z
_cell_length_a                   10.8248(2)
_cell_length_b                   12.6089(3)
_cell_length_c                   20.0674(5)
_cell_angle_alpha                90
_cell_angle_beta                 92.6808(10)
_cell_angle_gamma                90
_cell_volume                     2735.98
loop_
_atom_site_label
_atom_site_type_symbol
_atom_site_fract_x
_atom_site_fract_y
_atom_site_fract_z
Mg1 Mg 0.25885(16) -0.00461(16) 0.61675(9)
La1 La -0.25506(3) -0.00781(3) 0.844937(16)
O1 O 0.1026(4) 0.0090(3) 0.68176(19)
O2 O -0.0927(3) -0.0144(3) 0.94866(17)
O3 O 0.1128(3) 0.0031(3) 0.53970(17)
O4 O 0.3855(4) -0.0307(3) 0.52699(19)
O5 O -0.0342(3) -0.0361(3) 0.79576(19)
C1 C 0.0742(6) 0.0897(5) 0.7296(3)
H1 H -0.0049 0.1246 0.7159
H2 H 0.1400 0.1442 0.7312
C2 C 0.0643(6) 0.0414(5) 0.7972(3)
H3 H 0.1435 0.0068 0.8111
H4 H 0.0473 0.0975 0.8301
C3 C -0.0048(6) -0.1195(5) 0.7495(3)
H5 H -0.0718 -0.1730 0.7477
H6 H 0.0728 -0.1551 0.7651
C4 C 0.0102(6) -0.0744(5) 0.6811(3)
H7 H 0.0346 -0.1317 0.6507
H8 H -0.0701 -0.0455 0.6638
C5 C -0.1229(5) 0.0184(5) 1.0151(3)
H9 H -0.1404 -0.0447 1.0425
H10 H -0.1979 0.0634 1.0126
C6 C 0.0172(5) -0.0793(5) 0.9530(3)
H11 H 0.0384 -0.1020 0.9077
H12 H 0.0016 -0.1436 0.9796
C7 C 0.0922(6) -0.0741(5) 0.4871(3)
H13 H 0.1376 -0.1401 0.4989
H14 H 0.1247 -0.0462 0.4452
C8 C 0.0412(5) 0.0981(5) 0.5236(3)
H15 H 0.0721 0.1309 0.4828
H16 H 0.0526 0.1498 0.5605
C9 C 0.3909(6) 0.0442(5) 0.4733(3)
H17 H 0.3223 0.0957 0.4760
H18 H 0.3808 0.0065 0.4301
C10 C 0.4873(6) -0.1025(5) 0.5233(4)
H19 H 0.4792 -0.1428 0.4809
H20 H 0.4856 -0.1538 0.5605
C11 C -0.1932(7) 0.2059(5) 0.8308(4)
H21 H -0.1041 0.2211 0.8273
H22 H -0.2460 0.2466 0.7983
C12 C -0.2346(6) 0.2013(5) 0.8951(3)
H23 H -0.1707 0.2129 0.9320
C13 C -0.3472(6) 0.1617(5) 0.9138(4)
H24 H -0.4212 0.1962 0.8926
H25 H -0.3546 0.1505 0.9623
C14 C -0.3813(6) -0.1358(6) 0.9344(4)
H26 H -0.3775 -0.1120 0.9815
H27 H -0.4650 -0.1594 0.9189
C15 C -0.2883(11) -0.1962(7) 0.9164(5)
H28 H -0.2246 -0.2005 0.9540
C16 C -0.2376(7) -0.2233(5) 0.8601(4)
H29 H -0.2910 -0.2656 0.8287
H30 H -0.1524 -0.2517 0.8651
C17 C -0.3050(6) -0.0013(6) 0.7103(3)
H31 H -0.2599 0.0536 0.6859
H32 H -0.3066 -0.0707 0.6873
C18 C -0.4170(6) 0.0313(6) 0.7359(3)
H33 H -0.4421 0.1067 0.7278
C19 C -0.4834(6) -0.0244(6) 0.7783(3)
H34 H -0.5077 -0.0966 0.7634
H35 H -0.5518 0.0145 0.7984
C20 C 0.3386(6) 0.1523(5) 0.6395(3)
H36 H 0.3370 0.1636 0.6882
H37 H 0.4264 0.1511 0.6278
C21 C 0.2798(6) 0.2429(5) 0.6065(3)
H38 H 0.2943 0.2494 0.5604
C22 C 0.2093(6) 0.3177(5) 0.6308(4)
H39 H 0.1906 0.3167 0.6766
H40 H 0.1773 0.3726 0.6025
C23 C 0.3109(6) -0.1618(5) 0.6557(3)
H41 H 0.4023 -0.1654 0.6601
H42 H 0.2796 -0.1685 0.7011
C24 C 0.2671(6) -0.2523(5) 0.6168(3)
H43 H 0.3066 -0.2642 0.5762
C25 C 0.1784(6) -0.3206(5) 0.6310(4)
H44 H 0.1354 -0.3129 0.6709
H45 H 0.1580 -0.3771 0.6011
Mg1B Mg -0.25885(16) 0.00461(16) 0.38325(9)
Mg1B_2 Mg 0.74115(16) 0.00461(16) 0.38325(9)
La1B La 0.25506(3) 0.00781(3) 1.155063(16)
La1B_2 La 0.25506(3) 0.00781(3) 0.155063(16)
O1B O -0.1026(4) -0.0090(3) 0.31824(19)
O2B O 0.0927(3) 0.0144(3) 1.05134(17)
O3B O -0.1128(3) -0.0031(3) 0.46030(17)
O4B O 0.6145(4) 0.0307(3) 0.47301(19)
O4B_2 O -0.3855(4) 0.0307(3) 0.47301(19)
O5B O 0.0342(3) 0.0361(3) 0.20424(19)
O5B_2 O 0.0342(3) 0.0361(3) 1.20424(19)
C1B C -0.0742(6) -0.0897(5) 0.2704(3)
H1B H 0.0049 -0.1246 0.2841
H2B H -0.1400 -0.1442 0.2688
C2B C -0.0643(6) -0.0414(5) 0.2028(3)
H3B H -0.1435 -0.0068 0.1889
H4B H -0.0473 -0.0975 0.1699
C3B C 0.0048(6) 0.1195(5) 0.2505(3)
H5B H 0.0718 0.1730 0.2523
H6B H -0.0728 0.1551 0.2349
C4B C -0.0102(6) 0.0744(5) 0.3189(3)
H7B H -0.0346 0.1317 0.3493
H8B H 0.0701 0.0455 0.3362
C5B C 0.1229(5) -0.0184(5) 0.9849(3)
H9B H 0.1404 0.0447 0.9575
H10B H 0.1979 -0.0634 0.9874
C6B C -0.0172(5) 0.0793(5) 1.0470(3)
H11B H -0.0384 0.1020 1.0923
H12B H -0.0016 0.1436 1.0204
C7B C -0.0922(6) 0.0741(5) 0.5129(3)
H13B H -0.1376 0.1401 0.5011
H14B H -0.1247 0.0462 0.5548
C8B C -0.0412(5) -0.0981(5) 0.4764(3)
H15B H -0.0721 -0.1309 0.5172
H16B H -0.0526 -0.1498 0.4395
C9B C 0.6091(6) -0.0442(5) 0.5267(3)
H17B H 0.6777 -0.0957 0.5240
H18B H 0.6192 -0.0065 0.5699
C10B C 0.5127(6) 0.1025(5) 0.4767(4)
H19B H 0.5208 0.1428 0.5191
H20B H 0.5144 0.1538 0.4395
C11B C 0.1932(7) -0.2059(5) 1.1692(4)
H21B H 0.1041 -0.2211 1.1727
H22B H 0.2460 -0.2466 1.2017
C12B C 0.2346(6) -0.2013(5) 1.1049(3)
H23B H 0.1707 -0.2129 1.0680
C13B C 0.3472(6) -0.1617(5) 1.0862(4)
H24B H 0.4212 -0.1962 1.1074
H25B H 0.3546 -0.1505 1.0377
C14B C 0.3813(6) 0.1358(6) 1.0656(4)
H26B H 0.3775 0.1120 1.0185
H27B H 0.4650 0.1594 1.0811
C15B C 0.2883(11) 0.1962(7) 1.0836(5)
H28B H 0.2246 0.2005 1.0460
C16B C 0.2376(7) 0.2233(5) 1.1399(4)
H29B H 0.2910 0.2656 1.1713
H30B H 0.1524 0.2517 1.1349
C17B C 0.3050(6) 0.0013(6) 1.2897(3)
H31B H 0.2599 -0.0536 1.3141
H32B H 0.3066 0.0707 1.3127
C18B C 0.4170(6) -0.0313(6) 1.2641(3)
H33B H 0.4421 -0.1067 1.2722
C19B C 0.4834(6) 0.0244(6) 1.2217(3)
H34B H 0.5077 0.0966 1.2366
H35B H 0.5518 -0.0145 1.2016
C20B C -0.3386(6) -0.1523(5) 0.3605(3)
H36B H -0.3370 -0.1636 0.3118
H37B H -0.4264 -0.1511 0.3722
C21B C -0.2798(6) -0.2429(5) 0.3935(3)
H38B H -0.2943 -0.2494 0.4396
C22B C -0.2093(6) -0.3177(5) 0.3692(4)
H39B H -0.1906 -0.3167 0.3234
H40B H -0.1773 -0.3726 0.3975
C23B C -0.3109(6) 0.1618(5) 0.3443(3)
H41B H -0.4023 0.1654 0.3399
H42B H -0.2796 0.1685 0.2989
C24B C -0.2671(6) 0.2523(5) 0.3832(3)
H43B H -0.3066 0.2642 0.4238
C25B C -0.1784(6) 0.3206(5) 0.3690(4)
H44B H -0.1354 0.3129 0.3291
H45B H -0.1580 0.3771 0.3989
loop_
_geom_bond_atom_site_label_1
_geom_bond_atom_site_label_2
_geom_bond_site_symmetry_1
_geom_bond_site_symmetry_2
Mg1 O1 1_555 1_555
La1 O2 1_555 1_555
O1 C1 1_555 1_555
O2 C5 1_555 1_555
O3 Mg1 1_555 1_555
O4 Mg1 1_555 1_555
O5 La1 1_555 1_555
C1 H1 1_555 1_555
H2 C1 1_555 1_555
C2 O5 1_555 1_555
H3 C2 1_555 1_555
H4 C2 1_555 1_555
C3 O5 1_555 1_555
H5 C3 1_555 1_555
H6 C3 1_555 1_555
C4 O1 1_555 1_555
H7 C4 1_555 1_555
H8 C4 1_555 1_555
C5 H9 1_555 1_555
H10 C5 1_555 1_555
C6 O2 1_555 1_555
H11 C6 1_555 1_555
H12 C6 1_555 1_555
C7 O3 1_555 1_555
H13 C7 1_555 1_555
H14 C7 1_555 1_555
C8 O3 1_555 1_555
H15 C8 1_555 1_555
H16 C8 1_555 1_555
C9 O4 1_555 1_555
H17 C9 1_555 1_555
H18 C9 1_555 1_555
C10 O4 1_555 1_555
H19 C10 1_555 1_555
H20 C10 1_555 1_555
C11 La1 1_555 1_555
H21 C11 1_555 1_555
H22 C11 1_555 1_555
C12 La1 1_555 1_555
H23 C12 1_555 1_555
C13 La1 1_555 1_555
H24 C13 1_555 1_555
H25 C13 1_555 1_555
C14 La1 1_555 1_555
H26 C14 1_555 1_555
H27 C14 1_555 1_555
C15 La1 1_555 1_555
H28 C15 1_555 1_555
C16 La1 1_555 1_555
H29 C16 1_555 1_555
H30 C16 1_555 1_555
C17 La1 1_555 1_555
H31 C17 1_555 1_555
H32 C17 1_555 1_555
C18 La1 1_555 1_555
H33 C18 1_555 1_555
C19 La1 1_555 1_555
H34 C19 1_555 1_555
H35 C19 1_555 1_555
C20 Mg1 1_555 1_555
H36 C20 1_555 1_555
H37 C20 1_555 1_555
C21 C20 1_555 1_555
H38 C21 1_555 1_555
C22 C21 1_555 1_555
H39 C22 1_555 1_555
H40 C22 1_555 1_555
C23 Mg1 1_555 1_555
H41 C23 1_555 1_555
H42 C23 1_555 1_555
C24 C23 1_555 1_555
H43 C24 1_555 1_555
C25 C24 1_555 1_555
H44 C25 1_555 1_555
H45 C25 1_555 1_555
Mg1B O1B 1_555 1_555
Mg1B_2 O4B 1_555 1_555
La1B O2B 1_555 1_555
La1B_2 O5B 1_555 1_555
O1B C1B 1_555 1_555
O2B C5B 1_555 1_555
O3B Mg1B 1_555 1_555
O4B C9B 1_555 1_555
O4B_2 Mg1B 1_555 1_555
O5B C2B 1_555 1_555
O5B_2 La1B 1_555 1_555
C1B H1B 1_555 1_555
H2B C1B 1_555 1_555
C2B C1B 1_555 1_555
H3B C2B 1_555 1_555
H4B C2B 1_555 1_555
C3B O5B 1_555 1_555
H5B C3B 1_555 1_555
H6B C3B 1_555 1_555
C4B O1B 1_555 1_555
H7B C4B 1_555 1_555
H8B C4B 1_555 1_555
C5B C6 1_555 1_555
H9B C5B 1_555 1_555
H10B C5B 1_555 1_555
C6B C5 1_555 1_555
H11B C6B 1_555 1_555
H12B C6B 1_555 1_555
C7B C8 1_555 1_555
H13B C7B 1_555 1_555
H14B C7B 1_555 1_555
C8B C7 1_555 1_555
H15B C8B 1_555 1_555
H16B C8B 1_555 1_555
C9B C10 1_555 1_555
H17B C9B 1_555 1_555
H18B C9B 1_555 1_555
C10B C9 1_555 1_555
H19B C10B 1_555 1_555
H20B C10B 1_555 1_555
C11B La1B 1_555 1_555
H21B C11B 1_555 1_555
H22B C11B 1_555 1_555
C12B La1B 1_555 1_555
H23B C12B 1_555 1_555
C13B La1B 1_555 1_555
H24B C13B 1_555 1_555
H25B C13B 1_555 1_555
C14B La1B 1_555 1_555
H26B C14B 1_555 1_555
H27B C14B 1_555 1_555
C15B La1B 1_555 1_555
H28B C15B 1_555 1_555
C16B La1B 1_555 1_555
H29B C16B 1_555 1_555
H30B C16B 1_555 1_555
C17B La1B 1_555 1_555
H31B C17B 1_555 1_555
H32B C17B 1_555 1_555
C18B La1B 1_555 1_555
H33B C18B 1_555 1_555
C19B La1B 1_555 1_555
H34B C19B 1_555 1_555
H35B C19B 1_555 1_555
C20B Mg1B 1_555 1_555
H36B C20B 1_555 1_555
H37B C20B 1_555 1_555
C21B C20B 1_555 1_555
H38B C21B 1_555 1_555
C22B C21B 1_555 1_555
H39B C22B 1_555 1_555
H40B C22B 1_555 1_555
C23B Mg1B 1_555 1_555
H41B C23B 1_555 1_555
H42B C23B 1_555 1_555
C24B C23B 1_555 1_555
H43B C24B 1_555 1_555
C25B C24B 1_555 1_555
H44B C25B 1_555 1_555
H45B C25B 1_555 1_555
C1 C2 1_555 1_555
C3 C4 1_555 1_555
C11 C12 1_555 1_555
C12 C13 1_555 1_555
C14 C15 1_555 1_555
C15 C16 1_555 1_555
C17 C18 1_555 1_555
C18 C19 1_555 1_555
O2B C6B 1_555 1_555
O3B C7B 1_555 1_555
O3B C8B 1_555 1_555
O4B C10B 1_555 1_555
C3B C4B 1_555 1_555
C11B C12B 1_555 1_555
C12B C13B 1_555 1_555
C14B C15B 1_555 1_555
C15B C16B 1_555 1_555
C17B C18B 1_555 1_555
C18B C19B 1_555 1_555

#END
