
#######################################################################
#
#                 Cambridge Crystallographic Data Centre
#                                CCDC 
#
#######################################################################
#
# If this CIF has been generated from an entry in the Cambridge 
# Structural Database, then it will include bibliographic, chemical, 
# crystal, experimental, refinement or atomic coordinate data resulting 
# from the CCDC's data processing and validation procedures.
#
#######################################################################

data_XAWZEC
_symmetry_cell_setting           monoclinic
_symmetry_space_group_name_H-M   'C 2/c'
_symmetry_Int_Tables_number      15
_space_group_name_Hall           '-C 2yn'
loop_
_symmetry_equiv_pos_site_id
_symmetry_equiv_pos_as_xyz
1 x,y,z
2 -x,y,1/2-z
3 1/2+x,1/2+y,z
4 1/2-x,1/2+y,1/2-z
5 -x,-y,-z
6 x,-y,1/2+z
7 1/2-x,1/2-y,-z
8 1/2+x,1/2-y,1/2+z
_cell_length_a                   24.577(5)
_cell_length_b                   9.858(2)
_cell_length_c                   19.961(4)
_cell_angle_alpha                90
_cell_angle_beta                 109.71(3)
_cell_angle_gamma                90
_cell_volume                     4552.81
loop_
_atom_site_label
_atom_site_type_symbol
_atom_site_fract_x
_atom_site_fract_y
_atom_site_fract_z
Cd1 Cd 1.044729(16) 0.86263(4) 1.16629(2)
Cd2 Cd 0.999014(15) 0.50932(4) 1.100590(18)
O1 O 1.15864(15) 0.6604(4) 1.2649(2)
O2 O 1.07256(14) 0.6182(3) 1.18456(17)
O3 O 1.02166(14) 0.2553(3) 0.92848(19)
O4 O 1.06088(15) 0.0962(4) 0.88254(19)
O5 O 1.05780(15) 0.3410(4) 1.08886(19)
O6 O 1.06464(15) 0.4990(3) 1.01362(19)
O7 O 1.06612(17) 0.5469(4) 1.3307(2)
O8 O 1.04275(18) 0.3411(4) 1.3528(2)
O9 O 1.03376(19) 1.0991(4) 1.1544(3)
H1 H 1.0499 1.1272 1.1255
H2 H 0.9980 1.1185 1.1385
O10 O 1.0000 0.7564(5) 1.2500
H3 H 0.9722 0.7086 1.2215
O11 O 1.11113(15) 0.8925(4) 1.27584(19)
H4 H 1.1285 0.8186 1.2738
H5 H 1.0978 0.8926 1.3099
N1 N 1.11162(19) 0.8613(4) 1.1078(2)
C1 C 1.1229(2) 0.2100(5) 0.9858(3)
C2 C 1.1296(2) 0.3081(5) 1.0377(3)
C3 C 1.1845(2) 0.3280(5) 1.0899(3)
C4 C 1.2302(2) 0.2474(6) 1.0891(3)
H6 H 1.2664 0.2602 1.1235
C5 C 1.2230(2) 0.1474(6) 1.0377(3)
H7 H 1.2539 0.0924 1.0382
C6 C 1.1700(2) 0.1304(5) 0.9862(3)
H8 H 1.1653 0.0650 0.9512
C7 C 1.0656(2) 0.1853(5) 0.9286(2)
C8 C 1.0797(2) 0.3883(5) 1.0458(3)
C9 C 1.1701(2) 0.3685(5) 1.2178(3)
C10 C 1.1325(2) 0.4333(5) 1.2464(2)
C11 C 1.1112(2) 0.3598(5) 1.2927(3)
C12 C 1.1283(2) 0.2264(5) 1.3094(3)
H9 H 1.1125 0.1767 1.3379
C13 C 1.1684(2) 0.1661(5) 1.2842(3)
H10 H 1.1813 0.0784 1.2981
C14 C 1.1891(2) 0.2373(5) 1.2382(3)
H11 H 1.2160 0.1972 1.2208
C15 C 1.0703(2) 0.4214(6) 1.3268(3)
C16 C 1.1200(2) 0.5813(5) 1.2314(3)
C17 C 1.1674(2) 0.8890(7) 1.1420(3)
H12 H 1.1775 0.9274 1.1871
C18 C 1.2105(3) 0.8644(7) 1.1147(4)
H13 H 1.2484 0.8893 1.1402
C19 C 1.1979(3) 0.8029(7) 1.0495(4)
C20 C 1.1408(4) 0.7724(7) 1.0136(4)
H14 H 1.1302 0.7309 0.9692
C21 C 1.0993(3) 0.8036(7) 1.0437(3)
H15 H 1.0609 0.7834 1.0182
C22 C 1.2485(5) 0.7788(9) 1.0243(5)
H16 H 1.2832 0.8170 1.0530
S1 S 1.19472(6) 0.45743(14) 1.15555(7)
Cd1D Cd 0.955271(16) 0.13737(4) 0.83371(2)
Cd1A Cd 0.955271(16) 0.86263(4) 1.33371(2)
Cd1F Cd 1.455271(16) 0.63737(4) 0.83371(2)
Cd2D Cd 1.000986(15) 0.49068(4) 0.899410(18)
Cd2A Cd 1.000986(15) 0.50932(4) 1.399410(18)
Cd2E Cd 0.999014(15) 0.49068(4) 0.600590(18)
O1D O 0.84136(15) 0.3396(4) 0.7351(2)
O2D O 0.92744(14) 0.3818(3) 0.81544(17)
O3D O 0.97834(14) 0.7447(3) 1.07152(19)
O4D O 0.93912(15) 0.9038(4) 1.11746(19)
O5D O 0.94220(15) 0.6590(4) 0.91114(19)
O6D O 0.93536(15) 0.5010(3) 0.98638(19)
O7D O 0.93388(17) 0.4531(4) 0.6693(2)
O7A O 0.93388(17) 0.5469(4) 1.1693(2)
O7E O 1.06612(17) 0.4531(4) 0.8307(2)
O8D O 0.95725(18) 0.6589(4) 0.6472(2)
O8A O 0.95725(18) 0.3411(4) 1.1472(2)
O8E O 1.04275(18) 0.6589(4) 0.8528(2)
O9D O 0.96624(19) -0.0991(4) 0.8456(3)
H1D H 0.9501 -0.1272 0.8745
H2D H 1.0020 -0.1185 0.8615
O10D O 1.0000 0.2436(5) 0.7500
H3A H 1.0278 0.7086 1.2785
H3D H 1.0278 0.2914 0.7785
H3E H 0.9722 0.2914 0.7215
O11D O 0.88887(15) 0.1075(4) 0.72416(19)
H4D H 0.8715 0.1814 0.7262
H5D H 0.9022 0.1074 0.6901
N1F N 1.38838(19) 0.6387(4) 0.8922(2)
N1D N 0.88838(19) 0.1387(4) 0.8922(2)
C1D C 0.8771(2) 0.7900(5) 1.0142(3)
C2D C 0.8704(2) 0.6919(5) 0.9623(3)
C3D C 0.8155(2) 0.6720(5) 0.9101(3)
C4D C 0.7698(2) 0.7526(6) 0.9109(3)
H6D H 0.7336 0.7398 0.8765
C5D C 0.7770(2) 0.8526(6) 0.9623(3)
H7D H 0.7461 0.9076 0.9618
C6D C 0.8300(2) 0.8696(5) 1.0138(3)
H8D H 0.8347 0.9350 1.0488
C7D C 0.9344(2) 0.8147(5) 1.0714(2)
C8D C 0.9203(2) 0.6117(5) 0.9542(3)
C9D C 0.8299(2) 0.6315(5) 0.7822(3)
C10D C 0.8675(2) 0.5667(5) 0.7536(2)
C11D C 0.8888(2) 0.6402(5) 0.7073(3)
C12D C 0.8717(2) 0.7736(5) 0.6906(3)
H9D H 0.8875 0.8233 0.6621
C13D C 0.8316(2) 0.8339(5) 0.7158(3)
H10D H 0.8187 0.9216 0.7019
C14D C 0.8109(2) 0.7627(5) 0.7618(3)
H11D H 0.7840 0.8028 0.7792
C15D C 0.9297(2) 0.5786(6) 0.6732(3)
C16D C 0.8800(2) 0.4187(5) 0.7686(3)
C17F C 1.3326(2) 0.6110(7) 0.8580(3)
H12F H 1.3225 0.5726 0.8129
C18F C 1.2895(3) 0.6356(7) 0.8853(4)
H13F H 1.2516 0.6107 0.8598
C19F C 1.3021(3) 0.6971(7) 0.9505(4)
C20F C 1.3592(4) 0.7276(7) 0.9864(4)
H14F H 1.3698 0.7691 1.0308
C21F C 1.4007(3) 0.6964(7) 0.9563(3)
H15F H 1.4391 0.7166 0.9818
C22F C 1.2515(5) 0.7212(9) 0.9757(5)
H16F H 1.2168 0.6830 0.9470
S1D S 0.80528(6) 0.54257(14) 0.84445(7)
loop_
_geom_bond_atom_site_label_1
_geom_bond_atom_site_label_2
_geom_bond_site_symmetry_1
_geom_bond_site_symmetry_2
Cd1 O2 1_555 1_555
Cd2 O2 1_555 1_555
O1 C16 1_555 1_555
O2 C16 1_555 1_555
O3 C7 1_555 1_555
O4 C7 1_555 1_555
O5 Cd2 1_555 1_555
O6 C8 1_555 1_555
O7 C15 1_555 1_555
O8 C15 1_555 1_555
O9 Cd1 1_555 1_555
H1 O9 1_555 1_555
H2 O9 1_555 1_555
O10 Cd1 1_555 1_555
H3 O10 1_555 1_555
O11 Cd1 1_555 1_555
H4 O11 1_555 1_555
H5 O11 1_555 1_555
N1 Cd1 1_555 1_555
C1 C2 1_555 1_555
C2 C3 1_555 1_555
C3 C4 1_555 1_555
C4 H6 1_555 1_555
C5 C4 1_555 1_555
H7 C5 1_555 1_555
C6 C1 1_555 1_555
H8 C6 1_555 1_555
C7 C1 1_555 1_555
C8 O5 1_555 1_555
C9 C10 1_555 1_555
C10 C11 1_555 1_555
C11 C12 1_555 1_555
C12 H9 1_555 1_555
C13 C12 1_555 1_555
H10 C13 1_555 1_555
C14 C9 1_555 1_555
H11 C14 1_555 1_555
C15 C11 1_555 1_555
C16 C10 1_555 1_555
C17 N1 1_555 1_555
H12 C17 1_555 1_555
C18 C17 1_555 1_555
H13 C18 1_555 1_555
C19 C18 1_555 1_555
C20 C19 1_555 1_555
H14 C20 1_555 1_555
C21 N1 1_555 1_555
H15 C21 1_555 1_555
C22 C19 1_555 1_555
H16 C22 1_555 1_555
S1 C3 1_555 1_555
Cd1D O3 1_555 1_555
Cd1A O10 1_555 1_555
Cd1F N1F 1_555 1_555
Cd2D O3 1_555 1_555
Cd2A O7 1_555 1_555
Cd2E O7D 1_555 1_555
O1D C16D 1_555 1_555
O2D Cd1D 1_555 1_555
O3D Cd1 1_555 1_555
O4D Cd1 1_555 1_555
O5D Cd2D 1_555 1_555
O6D Cd2 1_555 1_555
O7D C15D 1_555 1_555
O7A Cd2 1_555 1_555
O7E Cd2D 1_555 1_555
O8D Cd2E 1_555 1_555
O8A Cd2 1_555 1_555
O8E Cd2D 1_555 1_555
O9D Cd1D 1_555 1_555
H1D O9D 1_555 1_555
H2D O9D 1_555 1_555
O10D Cd1D 1_555 1_555
H3A O10 1_555 1_555
H3D O10D 1_555 1_555
H3E O10D 1_555 1_555
O11D Cd1D 1_555 1_555
H4D O11D 1_555 1_555
H5D O11D 1_555 1_555
N1F C17F 1_555 1_555
N1D Cd1D 1_555 1_555
C1D C2D 1_555 1_555
C2D C3D 1_555 1_555
C3D C4D 1_555 1_555
C4D H6D 1_555 1_555
C5D C4D 1_555 1_555
H7D C5D 1_555 1_555
C6D C1D 1_555 1_555
H8D C6D 1_555 1_555
C7D O3D 1_555 1_555
C8D O5D 1_555 1_555
C9D C10D 1_555 1_555
C10D C11D 1_555 1_555
C11D C12D 1_555 1_555
C12D H9D 1_555 1_555
C13D C12D 1_555 1_555
H10D C13D 1_555 1_555
C14D C9D 1_555 1_555
H11D C14D 1_555 1_555
C15D O8D 1_555 1_555
C16D O2D 1_555 1_555
C17F H12F 1_555 1_555
C18F C17F 1_555 1_555
H13F C18F 1_555 1_555
C19F C18F 1_555 1_555
C20F C19F 1_555 1_555
H14F C20F 1_555 1_555
C21F N1F 1_555 1_555
H15F C21F 1_555 1_555
C22F C22 1_555 1_555
H16F C22F 1_555 1_555
S1D C3D 1_555 1_555
Cd2 O3D 1_555 1_555
O4 Cd1D 1_555 1_555
O6 Cd2D 1_555 1_555
O8 Cd2A 1_555 1_555
C2 C8 1_555 1_555
C5 C6 1_555 1_555
C9 S1 1_555 1_555
C13 C14 1_555 1_555
C20 C21 1_555 1_555
Cd2D O2D 1_555 1_555
O4D C7D 1_555 1_555
O6D C8D 1_555 1_555
C1D C7D 1_555 1_555
C2D C8D 1_555 1_555
C5D C6D 1_555 1_555
C9D S1D 1_555 1_555
C10D C16D 1_555 1_555
C11D C15D 1_555 1_555
C13D C14D 1_555 1_555
C19F C22F 1_555 1_555
C20F C21F 1_555 1_555

#END
