
#######################################################################
#
#                 Cambridge Crystallographic Data Centre
#                                CCDC 
#
#######################################################################
#
# If this CIF has been generated from an entry in the Cambridge 
# Structural Database, then it will include bibliographic, chemical, 
# crystal, experimental, refinement or atomic coordinate data resulting 
# from the CCDC's data processing and validation procedures.
#
#######################################################################

data_XAWZAY
_symmetry_cell_setting           monoclinic
_symmetry_space_group_name_H-M   'P 21/c'
_symmetry_Int_Tables_number      14
_space_group_name_Hall           '-P 2ybc'
loop_
_symmetry_equiv_pos_site_id
_symmetry_equiv_pos_as_xyz
1 x,y,z
2 -x,1/2+y,1/2-z
3 -x,-y,-z
4 x,1/2-y,1/2+z
_cell_length_a                   11.6973(2)
_cell_length_b                   10.2680(2)
_cell_length_c                   15.3761(3)
_cell_angle_alpha                90
_cell_angle_beta                 94.2943(19)
_cell_angle_gamma                90
_cell_volume                     1841.61
loop_
_atom_site_label
_atom_site_type_symbol
_atom_site_fract_x
_atom_site_fract_y
_atom_site_fract_z
O1 O 0.8660(3) 0.1919(4) 0.9444(3)
Cd1 Cd 0.96255(3) 0.13488(4) 1.09268(3)
Cd2 Cd 0.96276(3) 0.74447(4) 0.65546(3)
O2 O 0.8971(3) 0.7161(4) 0.8990(3)
O3 O 0.8955(3) 0.6350(4) 0.7649(2)
O4 O 0.7761(3) 0.4189(3) 0.6548(2)
O5 O 0.9245(3) 0.3542(3) 0.7387(2)
O6 O 0.9073(3) 0.0538(4) 0.8415(3)
O7 O 0.9053(3) -0.0639(3) 1.0190(2)
O8 O 0.7874(3) -0.2008(3) 1.0789(2)
O9 O 0.8535(4) 0.3440(4) 1.0860(3)
H1 H 0.8712 0.3873 1.1322
H2 H 0.8712 0.3876 1.0420
O10 O 0.8312(4) 0.9252(4) 0.6975(3)
H3 H 0.8549 0.9664 0.7433
H4 H 0.7963 0.8937 0.6604
O11 O 0.9743(4) 0.9107(4) 0.5602(3)
H5 H 0.9974 0.9789 0.5874
H6 H 0.9515 0.8736 0.5126
S1 S 0.65080(12) 0.19148(13) 0.76331(9)
C1 C 0.7794(4) 0.5330(5) 0.8623(3)
C2 C 0.7583(4) 0.4239(5) 0.8084(3)
C3 C 0.6767(4) 0.3312(5) 0.8310(3)
C4 C 0.6171(4) 0.3494(5) 0.9054(4)
H7 H 0.5619 0.2895 0.9196
C5 C 0.6406(5) 0.4566(5) 0.9579(4)
H8 H 0.6020 0.4680 1.0081
C6 C 0.7209(4) 0.5468(5) 0.9362(4)
H9 H 0.7360 0.6184 0.9723
C7 C 0.8635(4) 0.6373(5) 0.8395(4)
C8 C 0.8225(4) 0.3996(5) 0.7286(3)
C9 C 0.6350(4) 0.0672(5) 0.8433(3)
C10 C 0.7282(4) 0.0297(5) 0.9018(3)
C11 C 0.7108(4) -0.0704(5) 0.9613(3)
C12 C 0.6050(4) -0.1310(5) 0.9617(3)
H10 H 0.5941 -0.1965 1.0020
C13 C 0.5145(4) -0.0946(5) 0.9023(4)
H11 H 0.4442 -0.1368 0.9025
C14 C 0.5297(4) 0.0040(5) 0.8434(4)
H12 H 0.4696 0.0284 0.8037
C15 C 0.8436(4) 0.0965(6) 0.8960(4)
C16 C 0.8062(4) -0.1148(5) 1.0248(3)
Cd1B Cd 1.03745(3) 0.86512(4) 0.90732(3)
Cd1C Cd 0.96255(3) 0.36512(4) 0.59268(3)
Cd1B_2 Cd 1.03745(3) -0.13488(4) 0.90732(3)
Cd2A Cd 1.03724(3) 0.24447(4) 0.84454(3)
Cd2C Cd 0.96276(3) -0.24447(4) 1.15546(3)
O2B O 1.1029(3) 0.2839(4) 1.1010(3)
O4C O 0.7761(3) 0.0811(3) 1.1548(2)
O5C O 0.9245(3) 0.1458(3) 1.2387(2)
O5A O 1.0755(3) 0.8542(3) 0.7613(2)
O6A O 1.0927(3) 0.5538(4) 0.6585(3)
O7B O 1.0947(3) 0.0639(3) 0.9810(2)
O8C O 0.7874(3) 0.7008(3) 0.5789(2)
O12 O 0.6402(5) 0.7119(7) 0.2020(5)
H13 H 0.6929 0.7692 0.1858
H14 H 0.5717 0.7335 0.2101
loop_
_geom_bond_atom_site_label_1
_geom_bond_atom_site_label_2
_geom_bond_site_symmetry_1
_geom_bond_site_symmetry_2
O1 Cd1 1_555 1_555
Cd1 O7 1_555 1_555
Cd2 O3 1_555 1_555
O2 C7 1_555 1_555
O3 C7 1_555 1_555
O4 C8 1_555 1_555
O5 C8 1_555 1_555
O6 C15 1_555 1_555
O7 C16 1_555 1_555
O8 C16 1_555 1_555
O9 Cd1 1_555 1_555
H1 O9 1_555 1_555
H2 O9 1_555 1_555
O10 Cd2 1_555 1_555
H3 O10 1_555 1_555
H4 O10 1_555 1_555
O11 Cd2 1_555 1_555
H5 O11 1_555 1_555
H6 O11 1_555 1_555
S1 C3 1_555 1_555
C1 C2 1_555 1_555
C2 C3 1_555 1_555
C3 C4 1_555 1_555
C4 H7 1_555 1_555
C5 C4 1_555 1_555
H8 C5 1_555 1_555
C6 C1 1_555 1_555
H9 C6 1_555 1_555
C7 C1 1_555 1_555
C8 C2 1_555 1_555
C9 S1 1_555 1_555
C10 C9 1_555 1_555
C11 C10 1_555 1_555
C12 C11 1_555 1_555
H10 C12 1_555 1_555
C13 C12 1_555 1_555
H11 C13 1_555 1_555
C14 C9 1_555 1_555
H12 C14 1_555 1_555
C15 O1 1_555 1_555
C16 C11 1_555 1_555
O12 H13 1_555 1_555
H14 O12 1_555 1_555
Cd1B O2 1_555 1_555
Cd1C O4 1_555 1_555
Cd1B_2 O7 1_555 1_555
Cd2A O5 1_555 1_555
Cd2C O8 1_555 1_555
O2B Cd1 1_555 1_555
O4C Cd1 1_555 1_555
O5C Cd1 1_555 1_555
O5A Cd2 1_555 1_555
O6A Cd2 1_555 1_555
O7B Cd1 1_555 1_555
O8C Cd2 1_555 1_555
O5 Cd1C 1_555 1_555
O6 Cd2A 1_555 1_555
C5 C6 1_555 1_555
C10 C15 1_555 1_555
C13 C14 1_555 1_555
Cd1B O5A 1_555 1_555
Cd1B_2 O7B 1_555 1_555

#END
