
#######################################################################
#
#                 Cambridge Crystallographic Data Centre
#                                CCDC 
#
#######################################################################
#
# If this CIF has been generated from an entry in the Cambridge 
# Structural Database, then it will include bibliographic, chemical, 
# crystal, experimental, refinement or atomic coordinate data resulting 
# from the CCDC's data processing and validation procedures.
#
#######################################################################

data_XAXBUV
_symmetry_cell_setting           triclinic
_symmetry_space_group_name_H-M   'P -1'
_symmetry_Int_Tables_number      2
_space_group_name_Hall           '-P 1'
loop_
_symmetry_equiv_pos_site_id
_symmetry_equiv_pos_as_xyz
1 x,y,z
2 -x,-y,-z
_cell_length_a                   9.2705(5)
_cell_length_b                   9.7701(5)
_cell_length_c                   11.4534(6)
_cell_angle_alpha                72.887(1)
_cell_angle_beta                 80.2130(9)
_cell_angle_gamma                64.052(1)
_cell_volume                     890.475
loop_
_atom_site_label
_atom_site_type_symbol
_atom_site_fract_x
_atom_site_fract_y
_atom_site_fract_z
C1 C -0.1562(3) 1.7133(3) 0.7239(2)
C2 C -0.2938(3) 1.8476(3) 0.6825(2)
H1 H -0.3127 1.8854 0.5994
C3 C -0.4022(3) 1.9245(3) 0.7663(2)
C4 C -0.3746(3) 1.8677(3) 0.8905(2)
H2 H -0.4477 1.9195 0.9461
C5 C -0.2381(3) 1.7336(3) 0.93152(19)
C6 C -0.0419(3) 1.6234(3) 0.63497(19)
C7 C -0.5512(3) 2.0686(3) 0.7222(2)
C8 C -0.3109(3) 1.4500(3) 0.5692(2)
C9 C -0.1285(3) 1.6568(3) 0.8481(2)
H3 H -0.0365 1.5675 0.8754
H4 H -0.2242 1.3653 0.5469
C10 C -0.4264(3) 1.4377(3) 0.6564(2)
H5 H -0.4332 1.3456 0.7047
C11 C -0.4765(3) 1.6853(3) 0.5751(2)
H6 H -0.5263 1.7943 0.5589
C12 C -0.6693(3) 1.6326(4) 0.7461(3)
H7 H -0.6933 1.5420 0.7857
H8 H -0.7624 1.7135 0.7020
C13 C -0.6376(4) 1.6918(4) 0.8408(3)
H9 H -0.6319 1.7920 0.8022
H10 H -0.5340 1.6188 0.8740
C14 C -0.7652(3) 1.7124(4) 0.9456(3)
H11 H -0.8710 1.7633 0.9126
H12 H -0.7526 1.6100 0.9978
C15 C -0.7517(4) 1.8082(4) 1.0192(3)
H13 H -0.6443 1.7581 1.0493
H14 H -0.7655 1.9105 0.9663
C16 C -0.9651(3) 1.7554(3) 1.1710(2)
H15 H -0.9709 1.6810 1.1389
C17 C -1.0043(3) 1.9079(3) 1.2843(2)
H16 H -1.0441 1.9599 1.3468
C18 C -0.8930(4) 1.9280(3) 1.1968(3)
H17 H -0.8427 1.9948 1.1878
Co1 Co -0.19611(3) 1.69759(3) 0.38927(2)
N1 N -0.3426(2) 1.6057(2) 0.51803(18)
N2 N -0.5310(3) 1.5883(3) 0.65912(19)
N3 N -0.8686(3) 1.8305(3) 1.1239(2)
N4 N -1.0502(2) 1.7999(2) 1.26768(18)
O1 O 0.07331(19) 1.49690(18) 0.67900(14)
O2 O -0.06681(19) 1.6804(2) 0.52332(14)
O3 O -0.6105(2) 2.1759(2) 0.77840(18)
O4 O -0.61212(19) 2.0783(2) 0.62845(15)
N5 N -0.2069(2) 1.6718(2) 1.05292(15)
H18 H -0.2694 1.7400 1.0871
H19 H -0.2086 1.5847 1.0683
Co1_2 Co -1.19611(3) 1.69759(3) 1.38927(2)
Co1A Co 0.19611(3) 1.30241(3) 0.61073(2)
Co1A_2 Co -0.80389(3) 2.30241(3) 0.61073(2)
N4_2 N -0.0502(2) 1.7999(2) 0.26768(18)
O1A O -0.07331(19) 1.50310(18) 0.32100(14)
O4A O -0.38788(19) 1.9217(2) 0.37155(15)
loop_
_geom_bond_atom_site_label_1
_geom_bond_atom_site_label_2
_geom_bond_site_symmetry_1
_geom_bond_site_symmetry_2
C1 C2 1_555 1_555
C2 H1 1_555 1_555
C3 C2 1_555 1_555
C4 C3 1_555 1_555
H2 C4 1_555 1_555
C5 C4 1_555 1_555
C6 C1 1_555 1_555
C7 C3 1_555 1_555
C8 H4 1_555 1_555
C9 C1 1_555 1_555
H3 C9 1_555 1_555
C10 C8 1_555 1_555
H5 C10 1_555 1_555
C11 H6 1_555 1_555
C12 H7 1_555 1_555
H8 C12 1_555 1_555
C13 C12 1_555 1_555
H9 C13 1_555 1_555
H10 C13 1_555 1_555
C14 C13 1_555 1_555
H11 C14 1_555 1_555
H12 C14 1_555 1_555
C15 C14 1_555 1_555
H13 C15 1_555 1_555
H14 C15 1_555 1_555
C16 H15 1_555 1_555
C17 H16 1_555 1_555
C18 C17 1_555 1_555
H17 C18 1_555 1_555
Co1 N1 1_555 1_555
N1 C8 1_555 1_555
N2 C10 1_555 1_555
N3 C15 1_555 1_555
N4 C16 1_555 1_555
O1 C6 1_555 1_555
O2 C6 1_555 1_555
O3 C7 1_555 1_555
O4 C7 1_555 1_555
N5 C5 1_555 1_555
H18 N5 1_555 1_555
H19 N5 1_555 1_555
Co1_2 N4 1_555 1_555
Co1A O1 1_555 1_555
Co1A_2 O4 1_555 1_555
N4_2 Co1 1_555 1_555
O1A Co1 1_555 1_555
O4A Co1 1_555 1_555
C5 C9 1_555 1_555
C11 N1 1_555 1_555
C11 N2 1_555 1_555
C12 N2 1_555 1_555
C16 N3 1_555 1_555
C17 N4 1_555 1_555
C18 N3 1_555 1_555
Co1 O2 1_555 1_555

#END
