
#######################################################################
#
#                 Cambridge Crystallographic Data Centre
#                                CCDC 
#
#######################################################################
#
# If this CIF has been generated from an entry in the Cambridge 
# Structural Database, then it will include bibliographic, chemical, 
# crystal, experimental, refinement or atomic coordinate data resulting 
# from the CCDC's data processing and validation procedures.
#
#######################################################################

data_XAXCAC
_symmetry_cell_setting           monoclinic
_symmetry_space_group_name_H-M   'P 21/c'
_symmetry_Int_Tables_number      14
_space_group_name_Hall           '-P 2ybc'
loop_
_symmetry_equiv_pos_site_id
_symmetry_equiv_pos_as_xyz
1 x,y,z
2 -x,1/2+y,1/2-z
3 -x,-y,-z
4 x,1/2-y,1/2+z
_cell_length_a                   11.0663(5)
_cell_length_b                   7.6170(3)
_cell_length_c                   16.0392(7)
_cell_angle_alpha                90
_cell_angle_beta                 91.754(1)
_cell_angle_gamma                90
_cell_volume                     1351.34
loop_
_atom_site_label
_atom_site_type_symbol
_atom_site_fract_x
_atom_site_fract_y
_atom_site_fract_z
C1 C 0.6761(2) 0.2692(3) 0.14128(13)
C2 C 0.64808(19) 0.4443(3) 0.10377(13)
C3 C 0.60578(19) 0.5800(3) 0.15289(13)
H1 H 0.5979 0.5634 0.2099
C4 C 0.57538(19) 0.7402(3) 0.11687(12)
C5 C 0.59102(19) 0.7679(3) 0.03277(13)
H2 H 0.5726 0.8766 0.0092
C6 C 0.63449(19) 0.6327(3) -0.01672(13)
C7 C 0.66151(19) 0.4708(3) 0.01877(14)
H3 H 0.6887 0.3797 -0.0144
C8 C 0.64650(19) 0.6608(3) -0.10918(13)
C9 C 0.8812(3) 0.7072(4) 0.24186(17)
H4 H 0.8559 0.6671 0.2932
C10 C 0.9721(3) 0.6386(5) 0.1985(2)
H5 H 1.0210 0.5443 0.2143
C11 C 0.8926(2) 0.8556(4) 0.12907(16)
H6 H 0.8771 0.9374 0.0870
C12 C 1.0637(3) 0.7058(7) 0.0595(2)
H7 H 1.1358 0.6488 0.0823
H8 H 1.0875 0.8189 0.0375
C13 C 1.0111(4) 0.5948(6) -0.0112(2)
H9 H 0.9352 0.6467 -0.0305
H10 H 1.0659 0.5984 -0.0573
Co1 Co 0.68702(3) 0.98966(4) 0.229910(17)
N1 N 0.83221(18) 0.8453(3) 0.19821(12)
N2 N 0.9786(2) 0.7340(4) 0.12700(15)
N3 N 0.53466(17) 0.8789(2) 0.17004(11)
H11 H 0.5196 0.9812 0.1496
H12 H 0.5254 0.8595 0.2223
O1 O 0.70788(17) 0.1446(2) 0.09723(11)
O2 O 0.66469(15) 0.2492(2) 0.22009(9)
O3 O 0.68916(17) 0.5301(2) -0.14869(10)
O4 O 0.61592(17) 0.8009(2) -0.14168(10)
C1_2 C 0.6761(2) 1.2692(3) 0.14128(13)
C2_2 C 0.64808(19) 1.4443(3) 0.10377(13)
C3_2 C 0.60578(19) 1.5800(3) 0.15289(13)
H1_2 H 0.5979 1.5634 0.2099
C4_2 C 0.57538(19) 1.7402(3) 0.11687(12)
C5_2 C 0.59102(19) 1.7679(3) 0.03277(13)
H2_2 H 0.5726 1.8766 0.0092
C6_2 C 0.63449(19) 1.6327(3) -0.01672(13)
C7_2 C 0.66151(19) 1.4708(3) 0.01877(14)
H3_2 H 0.6887 1.3797 -0.0144
C8_2 C 0.64650(19) 1.6608(3) -0.10918(13)
C9B C 1.1188(3) 0.2928(4) -0.24186(17)
H4B H 1.1441 0.3329 -0.2932
C10B C 1.0279(3) 0.3614(5) -0.1985(2)
H5B H 0.9790 0.4557 -0.2143
C11B C 1.1074(2) 0.1444(4) -0.12907(16)
H6B H 1.1229 0.0626 -0.0870
C12B C 0.9363(3) 0.2942(7) -0.0595(2)
H7B H 0.8642 0.3512 -0.0823
H8B H 0.9125 0.1811 -0.0375
C13B C 0.9889(4) 0.4052(6) 0.0112(2)
H9B H 1.0648 0.3533 0.0305
H10B H 0.9341 0.4016 0.0573
Co1B Co 1.31298(3) 0.01034(4) -0.229910(17)
Co1_2 Co 0.68702(3) -0.01034(4) 0.229910(17)
Co1C Co 0.68702(3) 0.51034(4) -0.270090(17)
Co1_3 Co 0.68702(3) 1.98966(4) 0.229910(17)
Co1C_2 Co 0.68702(3) 1.51034(4) -0.270090(17)
N1B N 1.16779(18) 0.1547(3) -0.19821(12)
N2B N 1.0214(2) 0.2660(4) -0.12700(15)
N3_2 N 0.53466(17) 1.8789(2) 0.17004(11)
N3B N 1.46534(17) 0.1211(2) -0.17004(11)
H11_2 H 0.5196 1.9812 0.1496
H11B H 1.4804 0.0188 -0.1496
H12_2 H 0.5254 1.8595 0.2223
H12B H 1.4746 0.1405 -0.2223
O1_2 O 0.70788(17) 1.1446(2) 0.09723(11)
O1B O 1.29212(17) -0.1446(2) -0.09723(11)
O2_2 O 0.66469(15) 1.2492(2) 0.22009(9)
O2B O 1.33531(15) -0.2492(2) -0.22009(9)
O3_2 O 0.68916(17) 1.5301(2) -0.14869(10)
O3C O 0.68916(17) 0.9699(2) 0.35131(10)
O3A O 1.31084(17) 0.0301(2) -0.35131(10)
O4_2 O 0.61592(17) 1.8009(2) -0.14168(10)
loop_
_geom_bond_atom_site_label_1
_geom_bond_atom_site_label_2
_geom_bond_site_symmetry_1
_geom_bond_site_symmetry_2
C1 C2 1_555 1_555
C2 C3 1_555 1_555
C3 H1 1_555 1_555
C4 C3 1_555 1_555
C5 C4 1_555 1_555
H2 C5 1_555 1_555
C6 C5 1_555 1_555
C7 C2 1_555 1_555
H3 C7 1_555 1_555
C8 C6 1_555 1_555
C9 H4 1_555 1_555
C10 C9 1_555 1_555
H5 C10 1_555 1_555
C11 H6 1_555 1_555
C12 H7 1_555 1_555
H8 C12 1_555 1_555
C13 C12 1_555 1_555
H9 C13 1_555 1_555
H10 C13 1_555 1_555
Co1 N1 1_555 1_555
N1 C9 1_555 1_555
N2 C10 1_555 1_555
N3 C4 1_555 1_555
H11 N3 1_555 1_555
H12 N3 1_555 1_555
O1 C1 1_555 1_555
O2 C1 1_555 1_555
O3 C8 1_555 1_555
O4 C8 1_555 1_555
C1_2 C2_2 1_555 1_555
C2_2 C3_2 1_555 1_555
C3_2 H1_2 1_555 1_555
C4_2 C3_2 1_555 1_555
C5_2 C4_2 1_555 1_555
H2_2 C5_2 1_555 1_555
C6_2 C5_2 1_555 1_555
C7_2 C2_2 1_555 1_555
H3_2 C7_2 1_555 1_555
C8_2 C6_2 1_555 1_555
C9B H4B 1_555 1_555
C10B C9B 1_555 1_555
H5B C10B 1_555 1_555
C11B H6B 1_555 1_555
C12B H7B 1_555 1_555
H8B C12B 1_555 1_555
C13B C13 1_555 1_555
H9B C13B 1_555 1_555
H10B C13B 1_555 1_555
Co1B N1B 1_555 1_555
Co1_2 O1 1_555 1_555
Co1C O3 1_555 1_555
Co1_3 N3_2 1_555 1_555
Co1C_2 O3_2 1_555 1_555
N1B C9B 1_555 1_555
N2B C10B 1_555 1_555
N3_2 C4_2 1_555 1_555
N3B Co1B 1_555 1_555
H11_2 N3_2 1_555 1_555
H11B N3B 1_555 1_555
H12_2 N3_2 1_555 1_555
H12B N3B 1_555 1_555
O1_2 Co1 1_555 1_555
O1B Co1B 1_555 1_555
O2_2 Co1 1_555 1_555
O2B Co1B 1_555 1_555
O3_2 C8_2 1_555 1_555
O3C Co1 1_555 1_555
O3A Co1B 1_555 1_555
O4_2 C8_2 1_555 1_555
C6 C7 1_555 1_555
C11 N1 1_555 1_555
C11 N2 1_555 1_555
C12 N2 1_555 1_555
Co1 N3 1_555 1_555
O2 Co1_2 1_555 1_555
C1_2 O1_2 1_555 1_555
C1_2 O2_2 1_555 1_555
C6_2 C7_2 1_555 1_555
C11B N1B 1_555 1_555
C11B N2B 1_555 1_555
C12B C13B 1_555 1_555
C12B N2B 1_555 1_555

#END
