
#######################################################################
#
#                 Cambridge Crystallographic Data Centre
#                                CCDC 
#
#######################################################################
#
# If this CIF has been generated from an entry in the Cambridge 
# Structural Database, then it will include bibliographic, chemical, 
# crystal, experimental, refinement or atomic coordinate data resulting 
# from the CCDC's data processing and validation procedures.
#
#######################################################################

data_XAXCEG
_symmetry_cell_setting           triclinic
_symmetry_space_group_name_H-M   'P -1'
_symmetry_Int_Tables_number      2
_space_group_name_Hall           '-P 1'
loop_
_symmetry_equiv_pos_site_id
_symmetry_equiv_pos_as_xyz
1 x,y,z
2 -x,-y,-z
_cell_length_a                   10.195(2)
_cell_length_b                   10.242(5)
_cell_length_c                   12.011(2)
_cell_angle_alpha                100.37(4)
_cell_angle_beta                 95.68(3)
_cell_angle_gamma                115.82(2)
_cell_volume                     1088
loop_
_atom_site_label
_atom_site_type_symbol
_atom_site_fract_x
_atom_site_fract_y
_atom_site_fract_z
C1 C 0.9535(7) 0.8001(7) 0.6013(6)
H1 H 1.0373 0.8781 0.5850
C2 C 0.8080(7) 0.6493(7) 0.6936(7)
H2 H 0.7694 0.5996 0.7513
C3 C 0.7364(7) 0.6184(6) 0.5834(6)
H3 H 0.6369 0.5435 0.5518
C4 C 1.0695(7) 0.8390(8) 0.8067(6)
H4 H 1.1598 0.9109 0.7854
H5 H 1.0914 0.7623 0.8315
C5 C 1.0313(7) 0.9215(7) 0.9068(6)
C6 C 1.0006(9) 1.0372(9) 0.8963(7)
H6 H 1.0017 1.0653 0.8250
C7 C 1.0323(9) 0.8855(9) 1.0110(7)
H7 H 1.0555 0.8074 1.0207
C8 C 0.5942(8) 0.4628(7) 0.1642(7)
H8 H 0.5138 0.4359 0.2039
C9 C 0.7164(13) 0.4645(9) 0.0276(8)
H9 H 0.7422 0.4444 -0.0451
C10 C 0.8072(11) 0.5691(9) 0.1230(8)
H10 H 0.9103 0.6327 0.1301
C11 C 0.4537(10) 0.2563(8) -0.0184(8)
H11 H 0.4418 0.2626 -0.0997
H12 H 0.3622 0.2458 0.0093
C12 C 0.4770(8) 0.1227(7) -0.0107(6)
C13 C 0.4099(9) 0.0380(8) 0.0625(7)
H13 H 0.3475 0.0627 0.1062
C14 C 0.5680(9) 0.0836(8) -0.0736(7)
H14 H 0.6155 0.1413 -0.1248
C15 C 0.5981(6) 0.8049(6) 0.3535(5)
C16 C 0.5004(6) 0.8792(6) 0.3555(5)
C17 C 0.3510(6) 0.7980(6) 0.3560(5)
H15 H 0.3104 0.6953 0.3565
C18 C 0.2593(6) 0.8685(6) 0.3556(5)
C19 C 0.3188(6) 1.0168(6) 0.3550(5)
H16 H 0.2567 1.0641 0.3544
C20 C 0.4696(6) 1.0991(6) 0.3552(5)
C21 C 0.5594(6) 1.0303(6) 0.3576(5)
H17 H 0.6629 1.0869 0.3608
C22 C 0.0979(6) 0.7808(6) 0.3601(5)
Co1 Co 0.80421(8) 0.72985(8) 0.36132(7)
N1 N 0.8272(5) 0.7098(5) 0.5247(4)
N2 N 0.9472(5) 0.7666(6) 0.7055(5)
N3 N 0.5842(8) 0.3946(6) 0.0537(5)
N4 N 0.7279(6) 0.5697(5) 0.2088(5)
N5 N 0.5313(4) 1.2572(4) 0.3548(4)
H18 H 0.6268 1.3096 0.3561
H19 H 0.4730 1.3001 0.3532
O1 O 0.5497(4) 0.6721(4) 0.3574(4)
O2 O 0.7344(4) 0.8827(4) 0.3477(4)
O3 O 0.0514(5) 0.6503(5) 0.3748(5)
O4 O 0.0163(4) 0.8447(4) 0.3504(4)
C1A C 1.0465(7) 1.1999(7) 1.3987(6)
H1A H 0.9627 1.1219 1.4150
C2A C 1.1920(7) 1.3507(7) 1.3064(7)
H2A H 1.2306 1.4004 1.2487
C3A C 1.2636(7) 1.3816(6) 1.4166(6)
H3A H 1.3631 1.4565 1.4482
C4A C 0.9305(7) 1.1610(8) 1.1933(6)
H4A H 0.8402 1.0891 1.2146
H5A H 0.9086 1.2377 1.1685
C5A C 0.9687(7) 1.0785(7) 1.0932(6)
C6A C 0.9994(9) 0.9628(9) 1.1037(7)
H6A H 0.9983 0.9347 1.1750
C7A C 0.9677(9) 1.1145(9) 0.9890(7)
H7A H 0.9445 1.1926 0.9793
C8A C 0.4058(8) -0.4628(7) -0.1642(7)
H8A H 0.4862 -0.4359 -0.2039
C9A C 0.2836(13) -0.4645(9) -0.0276(8)
H9A H 0.2578 -0.4444 0.0451
C10A C 0.1928(11) -0.5691(9) -0.1230(8)
H10A H 0.0897 -0.6327 -0.1301
C11A C 0.5463(10) -0.2563(8) 0.0184(8)
H11A H 0.5582 -0.2626 0.0997
H12A H 0.6378 -0.2458 -0.0093
C12A C 0.5230(8) -0.1227(7) 0.0107(6)
C13A C 0.5901(9) -0.0380(8) -0.0625(7)
H13A H 0.6525 -0.0627 -0.1062
C14A C 0.4320(9) -0.0836(8) 0.0736(7)
H14A H 0.3845 -0.1413 0.1248
C15_2 C 1.5981(6) 0.8049(6) 0.3535(5)
C16_2 C 1.5004(6) 0.8792(6) 0.3555(5)
C17_2 C 1.3510(6) 0.7980(6) 0.3560(5)
H15_2 H 1.3104 0.6953 0.3565
C18_2 C 1.2593(6) 0.8685(6) 0.3556(5)
C19_2 C 1.3188(6) 1.0168(6) 0.3550(5)
H16_2 H 1.2567 1.0641 0.3544
C20_2 C 1.4696(6) 1.0991(6) 0.3552(5)
C21_2 C 1.5594(6) 1.0303(6) 0.3576(5)
H17_2 H 1.6629 1.0869 0.3608
C22_2 C 1.0979(6) 0.7808(6) 0.3601(5)
Co1A Co 1.19579(8) 1.27015(8) 1.63868(7)
Co1_2 Co -0.19579(8) 0.72985(8) 0.36132(7)
Co1A_2 Co 0.19579(8) -0.72985(8) -0.36132(7)
Co1_3 Co 1.80421(8) 0.72985(8) 0.36132(7)
N1A N 1.1728(5) 1.2902(5) 1.4753(4)
N2A N 1.0528(5) 1.2334(6) 1.2945(5)
N3A N 0.4158(8) -0.3946(6) -0.0537(5)
N4A N 0.2721(6) -0.5697(5) -0.2088(5)
N4A_2 N 1.2721(6) 1.4303(5) 1.7912(5)
N5_2 N 1.5313(4) 1.2572(4) 0.3548(4)
H18_2 H 1.6268 1.3096 0.3561
H19_2 H 1.4730 1.3001 0.3532
O1_2 O 1.5497(4) 0.6721(4) 0.3574(4)
O1A O 1.4503(4) 1.3279(4) 1.6426(4)
O2_2 O 1.7344(4) 0.8827(4) 0.3477(4)
O2A O 1.2656(4) 1.1173(4) 1.6523(4)
O3_2 O 1.0514(5) 0.6503(5) 0.3748(5)
O4_2 O 1.0163(4) 0.8447(4) 0.3504(4)
O4A O 0.9837(4) 1.1553(4) 1.6496(4)
O5 O 0.8265(5) 0.3760(5) 0.4002(5)
H20 H 0.8789 0.4511 0.3742
H21 H 0.8776 0.3549 0.4477
loop_
_geom_bond_atom_site_label_1
_geom_bond_atom_site_label_2
_geom_bond_site_symmetry_1
_geom_bond_site_symmetry_2
C1 H1 1_555 1_555
C2 H2 1_555 1_555
C3 C2 1_555 1_555
H3 C3 1_555 1_555
C4 H4 1_555 1_555
H5 C4 1_555 1_555
C5 C4 1_555 1_555
C6 C5 1_555 1_555
H6 C6 1_555 1_555
C7 C5 1_555 1_555
H7 C7 1_555 1_555
C8 H8 1_555 1_555
C9 H9 1_555 1_555
C10 C9 1_555 1_555
H10 C10 1_555 1_555
C11 H11 1_555 1_555
H12 C11 1_555 1_555
C12 C11 1_555 1_555
C13 C12 1_555 1_555
H13 C13 1_555 1_555
C14 C12 1_555 1_555
H14 C14 1_555 1_555
C15 C16 1_555 1_555
C16 C17 1_555 1_555
C17 H15 1_555 1_555
C18 C17 1_555 1_555
C19 C18 1_555 1_555
H16 C19 1_555 1_555
C20 C19 1_555 1_555
C21 C16 1_555 1_555
H17 C21 1_555 1_555
C22 C18 1_555 1_555
Co1 N1 1_555 1_555
N1 C1 1_555 1_555
N2 C1 1_555 1_555
N3 C8 1_555 1_555
N4 C8 1_555 1_555
N5 C20 1_555 1_555
H18 N5 1_555 1_555
H19 N5 1_555 1_555
O1 C15 1_555 1_555
O2 C15 1_555 1_555
O3 C22 1_555 1_555
O4 C22 1_555 1_555
O5 H20 1_555 1_555
H21 O5 1_555 1_555
C1A H1A 1_555 1_555
C2A H2A 1_555 1_555
C3A C2A 1_555 1_555
H3A C3A 1_555 1_555
C4A H4A 1_555 1_555
H5A C4A 1_555 1_555
C5A C4A 1_555 1_555
C6A C7 1_555 1_555
H6A C6A 1_555 1_555
C7A C6 1_555 1_555
H7A C7A 1_555 1_555
C8A H8A 1_555 1_555
C9A H9A 1_555 1_555
C10A C9A 1_555 1_555
H10A C10A 1_555 1_555
C11A H11A 1_555 1_555
H12A C11A 1_555 1_555
C12A C11A 1_555 1_555
C13A C14 1_555 1_555
H13A C13A 1_555 1_555
C14A C13 1_555 1_555
H14A C14A 1_555 1_555
C15_2 C16_2 1_555 1_555
C16_2 C17_2 1_555 1_555
C17_2 H15_2 1_555 1_555
C18_2 C17_2 1_555 1_555
C19_2 C18_2 1_555 1_555
H16_2 C19_2 1_555 1_555
C20_2 C19_2 1_555 1_555
C21_2 C16_2 1_555 1_555
H17_2 C21_2 1_555 1_555
C22_2 C18_2 1_555 1_555
Co1A N1A 1_555 1_555
Co1_2 O4 1_555 1_555
Co1A_2 N4A 1_555 1_555
Co1_3 O1_2 1_555 1_555
N1A C1A 1_555 1_555
N2A C1A 1_555 1_555
N3A C8A 1_555 1_555
N4A C8A 1_555 1_555
N4A_2 Co1A 1_555 1_555
N5_2 C20_2 1_555 1_555
H18_2 N5_2 1_555 1_555
H19_2 N5_2 1_555 1_555
O1_2 C15_2 1_555 1_555
O1A Co1A 1_555 1_555
O2_2 C15_2 1_555 1_555
O2A Co1A 1_555 1_555
O3_2 C22_2 1_555 1_555
O4_2 Co1 1_555 1_555
O4A Co1A 1_555 1_555
C2 N2 1_555 1_555
C3 N1 1_555 1_555
C4 N2 1_555 1_555
C9 N3 1_555 1_555
C10 N4 1_555 1_555
C11 N3 1_555 1_555
C20 C21 1_555 1_555
Co1 N4 1_555 1_555
Co1 O1 1_555 1_555
Co1 O2 1_555 1_555
C2A N2A 1_555 1_555
C3A N1A 1_555 1_555
C4A N2A 1_555 1_555
C5A C6A 1_555 1_555
C5A C7A 1_555 1_555
C9A N3A 1_555 1_555
C10A N4A 1_555 1_555
C11A N3A 1_555 1_555
C12A C13A 1_555 1_555
C12A C14A 1_555 1_555
C20_2 C21_2 1_555 1_555
C22_2 O4_2 1_555 1_555
Co1_3 O2_2 1_555 1_555

#END
