
#######################################################################
#
#                 Cambridge Crystallographic Data Centre
#                                CCDC 
#
#######################################################################
#
# If this CIF has been generated from an entry in the Cambridge 
# Structural Database, then it will include bibliographic, chemical, 
# crystal, experimental, refinement or atomic coordinate data resulting 
# from the CCDC's data processing and validation procedures.
#
#######################################################################

data_XAXGIO
_symmetry_cell_setting           tetragonal
_symmetry_space_group_name_H-M   'I 41/a'
_symmetry_Int_Tables_number      88
_space_group_name_Hall           '-I 4ad'
loop_
_symmetry_equiv_pos_site_id
_symmetry_equiv_pos_as_xyz
1 x,y,z
2 1/2-x,-y,1/2+z
3 3/4-y,1/4+x,1/4+z
4 3/4+y,3/4-x,3/4+z
5 1/2+x,1/2+y,1/2+z
6 -x,1/2-y,z
7 1/4-y,3/4+x,3/4+z
8 1/4+y,1/4-x,1/4+z
9 -x,-y,-z
10 1/2+x,y,1/2-z
11 1/4+y,3/4-x,3/4-z
12 1/4-y,1/4+x,1/4-z
13 1/2-x,1/2-y,1/2-z
14 x,1/2+y,-z
15 3/4+y,1/4-x,1/4-z
16 3/4-y,3/4+x,3/4-z
_cell_length_a                   17.723(3)
_cell_length_b                   17.723(3)
_cell_length_c                   20.014(4)
_cell_angle_alpha                90
_cell_angle_beta                 90
_cell_angle_gamma                90
_cell_volume                     6286.49
loop_
_atom_site_label
_atom_site_type_symbol
_atom_site_fract_x
_atom_site_fract_y
_atom_site_fract_z
Cu1 Cu 0.15334(3) 0.06360(3) 0.10700(2)
Cu2 Cu 0.02481(3) 0.33156(3) 0.07260(3)
Br1 Br 0.10350(2) 0.20317(2) 0.051619(17)
C1 C 0.2409(2) 0.0745(2) 0.23212(18)
C2 C 0.2941(3) 0.0062(3) 0.2145(2)
H1 H 0.3157 -0.0138 0.2554
H2 H 0.2643 -0.0335 0.1940
C3 C 0.3594(4) 0.0292(4) 0.1658(4)
H3 H 0.3822 0.0762 0.1801
H4 H 0.3401 0.0358 0.1208
C4 C 0.4198(5) -0.0375(4) 0.1677(5)
H5 H 0.3870 -0.0739 0.1892
H6 H 0.4159 -0.0503 0.1207
C5 C 0.4941(9) -0.0813(5) 0.1804(8)
H7 H 0.4936 -0.1252 0.1514
H8 H 0.4923 -0.0999 0.2260
C6 C 0.5730(7) -0.0413(6) 0.1709(6)
H9 H 0.6065 -0.0744 0.1470
H10 H 0.5942 -0.0298 0.2138
H11 H 0.5663 0.0044 0.1459
C7 C 0.19523(18) 0.16968(17) 0.27684(14)
C8 C 0.1804(2) 0.2314(2) 0.32612(17)
H12 H 0.2280 0.2553 0.3371
H13 H 0.1489 0.2691 0.3048
C9 C 0.1436(4) 0.2077(4) 0.3889(3)
H14 H 0.1827 0.1860 0.4170
H15 H 0.1265 0.2532 0.4111
C10 C 0.0834(5) 0.1574(5) 0.3895(4)
H16 H 0.1022 0.1117 0.3688
H17 H 0.0466 0.1782 0.3587
C11 C 0.0365(7) 0.1304(6) 0.4523(6)
H18 H 0.0755 0.1133 0.4827
H19 H 0.0186 0.1776 0.4711
C12 C -0.0305(9) 0.0746(9) 0.4676(10)
H20 H -0.0567 0.0630 0.4269
H21 H -0.0647 0.0978 0.4986
H22 H -0.0108 0.0289 0.4867
N1 N 0.15909(15) 0.16353(14) 0.22208(12)
N2 N 0.18818(16) 0.10138(16) 0.18992(13)
N3 N 0.24737(16) 0.11464(16) 0.28509(13)
Cu1G Cu 0.31360(3) 0.09666(3) 0.35700(2)
Cu2E Cu -0.02481(3) 0.16844(3) 0.07260(3)
Cu2N Cu 0.08156(3) 0.22519(3) 0.17740(3)
Br1E Br -0.10350(2) 0.29683(2) 0.051619(17)
Br1K Br 0.04683(2) 0.35350(2) 0.198381(17)
N1K N 0.08647(14) 0.40909(15) 0.02792(12)
N3F N 0.13536(16) -0.00263(16) 0.03509(13)
loop_
_geom_bond_atom_site_label_1
_geom_bond_atom_site_label_2
_geom_bond_site_symmetry_1
_geom_bond_site_symmetry_2
Cu1 Br1 1_555 1_555
Cu2 Br1 1_555 1_555
Br1 Cu2E 1_555 1_555
C1 C2 1_555 1_555
C2 H1 1_555 1_555
H2 C2 1_555 1_555
C3 C2 1_555 1_555
H3 C3 1_555 1_555
H4 C3 1_555 1_555
C4 C3 1_555 1_555
H5 C4 1_555 1_555
H6 C4 1_555 1_555
C5 C4 1_555 1_555
H7 C5 1_555 1_555
H8 C5 1_555 1_555
C6 C5 1_555 1_555
H9 C6 1_555 1_555
H10 C6 1_555 1_555
H11 C6 1_555 1_555
C7 C8 1_555 1_555
C8 H12 1_555 1_555
H13 C8 1_555 1_555
C9 C8 1_555 1_555
H14 C9 1_555 1_555
H15 C9 1_555 1_555
C10 C9 1_555 1_555
H16 C10 1_555 1_555
H17 C10 1_555 1_555
C11 C10 1_555 1_555
H18 C11 1_555 1_555
H19 C11 1_555 1_555
C12 C11 1_555 1_555
H20 C12 1_555 1_555
H21 C12 1_555 1_555
H22 C12 1_555 1_555
N1 C7 1_555 1_555
N2 Cu1 1_555 1_555
N3 C1 1_555 1_555
Cu1G N3 1_555 1_555
Cu2E Br1E 1_555 1_555
Cu2N Br1 1_555 1_555
Br1E Cu2 1_555 1_555
Br1K Cu2 1_555 1_555
N1K Cu2 1_555 1_555
N3F Cu1 1_555 1_555
C1 N2 1_555 1_555
C7 N3 1_555 1_555
N1 N2 1_555 1_555
N1 Cu2N 1_555 1_555
Cu2N Br1K 1_555 1_555

#END
