
#######################################################################
#
#                 Cambridge Crystallographic Data Centre
#                                CCDC 
#
#######################################################################
#
# If this CIF has been generated from an entry in the Cambridge 
# Structural Database, then it will include bibliographic, chemical, 
# crystal, experimental, refinement or atomic coordinate data resulting 
# from the CCDC's data processing and validation procedures.
#
#######################################################################

data_XAXHUB
_symmetry_cell_setting           triclinic
_symmetry_space_group_name_H-M   'P -1'
_symmetry_Int_Tables_number      2
_space_group_name_Hall           '-P 1'
loop_
_symmetry_equiv_pos_site_id
_symmetry_equiv_pos_as_xyz
1 x,y,z
2 -x,-y,-z
_cell_length_a                   10.9016(8)
_cell_length_b                   11.4566(12)
_cell_length_c                   12.3662(10)
_cell_angle_alpha                107.672(6)
_cell_angle_beta                 99.208(5)
_cell_angle_gamma                99.291(6)
_cell_volume                     1415.95
loop_
_atom_site_label
_atom_site_type_symbol
_atom_site_fract_x
_atom_site_fract_y
_atom_site_fract_z
Cd1 Cd 0.66234(3) 0.01098(3) 0.08046(3)
O1 O 0.6527(4) -0.3553(3) 0.3162(3)
O2 O 0.6813(4) 0.1026(3) 0.2832(3)
O3 O 0.5325(3) 0.1217(3) 1.0106(3)
O4 O 0.6993(3) 0.5960(3) 1.0282(3)
N1 N 0.6788(4) -0.2147(3) 0.2226(3)
H1 H 0.6870 -0.2740 0.1637
N2 N 0.6847(4) -0.0978(4) 0.2115(3)
N3 N 0.5722(4) 0.3303(3) 1.1027(3)
N4 N 0.6180(4) 0.4503(3) 1.1019(3)
H2 H 0.6189 0.5111 1.1635
N5 N 0.8318(4) 0.1661(4) 0.0811(4)
N6 N 0.7645(4) -0.0806(4) -0.0631(3)
C1 C 0.6620(4) 0.0656(4) 0.6153(4)
C2 C 0.6722(4) 0.0834(4) 0.5110(3)
H3 H 0.6795 0.1635 0.5059
C3 C 0.6714(4) -0.0185(4) 0.4128(3)
C4 C 0.6601(4) -0.1394(4) 0.4205(3)
C5 C 0.6465(5) -0.1578(4) 0.5245(4)
H4 H 0.6376 -0.2378 0.5298
C6 C 0.6463(5) -0.0578(4) 0.6186(4)
H5 H 0.6355 -0.0715 0.6872
C7 C 0.6614(5) -0.2445(4) 0.3178(4)
C8 C 0.6799(4) -0.0025(4) 0.3006(4)
C9 C 0.6623(4) 0.1736(4) 0.7190(4)
C10 C 0.6189(4) 0.1540(4) 0.8146(3)
H6 H 0.5914 0.0725 0.8138
C11 C 0.6168(4) 0.2557(4) 0.9108(3)
C12 C 0.6598(4) 0.3786(4) 0.9139(3)
C13 C 0.7026(5) 0.3986(4) 0.8191(4)
H7 H 0.7291 0.4801 0.8196
C14 C 0.7056(5) 0.2986(4) 0.7254(4)
H8 H 0.7371 0.3137 0.6641
C15 C 0.5722(4) 0.2364(4) 1.0114(4)
C16 C 0.6610(4) 0.4835(4) 1.0172(4)
C17 C 0.8622(5) 0.2845(5) 0.1489(5)
H9 H 0.8269 0.3077 0.2137
C18 C 0.9460(6) 0.3774(6) 0.1273(6)
H10 H 0.9649 0.4604 0.1767
C19 C 0.9995(6) 0.3439(7) 0.0322(6)
H11 H 1.0551 0.4042 0.0166
C20 C 0.9698(5) 0.2187(6) -0.0407(5)
C21 C 1.0231(6) 0.1747(8) -0.1402(6)
H12 H 1.0784 0.2325 -0.1588
C22 C 0.9961(6) 0.0534(8) -0.2074(6)
H13 H 1.0331 0.0284 -0.2709
C23 C 0.9100(5) -0.0381(6) -0.1811(4)
C24 C 0.8777(5) -0.1667(6) -0.2475(5)
H14 H 0.9155 -0.1965 -0.3097
C25 C 0.7933(6) -0.2465(6) -0.2221(5)
H15 H 0.7723 -0.3317 -0.2659
C26 C 0.7366(6) -0.2006(5) -0.1288(5)
H16 H 0.6769 -0.2566 -0.1123
C27 C 0.8833(4) 0.1313(5) -0.0134(4)
C28 C 0.8520(4) 0.0012(5) -0.0873(4)
Cd1_2 Cd 0.66234(3) 0.01098(3) -0.91954(3)
Cd1_3 Cd 0.66234(3) 0.01098(3) 1.08046(3)
Cd1A Cd 0.33766(3) -0.01098(3) 0.91954(3)
Cd1A_2 Cd 0.33766(3) -0.01098(3) -0.08046(3)
O1_2 O 0.6527(4) -0.3553(3) -0.6838(3)
O2_2 O 0.6813(4) 0.1026(3) -0.7168(3)
O3_2 O 0.5325(3) 0.1217(3) 0.0106(3)
O3A O 0.4675(3) -0.1217(3) -0.0106(3)
O3_3 O 0.5325(3) 0.1217(3) -0.9894(3)
O3A_2 O 0.4675(3) -0.1217(3) -1.0106(3)
O4_2 O 0.6993(3) 0.5960(3) 0.0282(3)
N1_2 N 0.6788(4) -0.2147(3) -0.7774(3)
H1_2 H 0.6870 -0.2740 -0.8363
N2_2 N 0.6847(4) -0.0978(4) -0.7885(3)
N3_2 N 0.5722(4) 0.3303(3) 0.1027(3)
N4_2 N 0.6180(4) 0.4503(3) 0.1019(3)
H2_2 H 0.6189 0.5111 0.1635
N5_2 N 0.8318(4) 0.1661(4) -0.9189(4)
N6_2 N 0.7645(4) -0.0806(4) -1.0631(3)
C1_2 C 0.6620(4) 0.0656(4) -0.3847(4)
C2_2 C 0.6722(4) 0.0834(4) -0.4890(3)
H3_2 H 0.6795 0.1635 -0.4941
C3_2 C 0.6714(4) -0.0185(4) -0.5872(3)
C4_2 C 0.6601(4) -0.1394(4) -0.5795(3)
C5_2 C 0.6465(5) -0.1578(4) -0.4755(4)
H4_2 H 0.6376 -0.2378 -0.4702
C6_2 C 0.6463(5) -0.0578(4) -0.3814(4)
H5_2 H 0.6355 -0.0715 -0.3128
C7_2 C 0.6614(5) -0.2445(4) -0.6822(4)
C8_2 C 0.6799(4) -0.0025(4) -0.6994(4)
C9_2 C 0.6623(4) 0.1736(4) -0.2810(4)
C10_2 C 0.6189(4) 0.1540(4) -0.1854(3)
H6_2 H 0.5914 0.0725 -0.1862
C11_2 C 0.6168(4) 0.2557(4) -0.0892(3)
C12_2 C 0.6598(4) 0.3786(4) -0.0861(3)
C13_2 C 0.7026(5) 0.3986(4) -0.1809(4)
H7_2 H 0.7291 0.4801 -0.1804
C14_2 C 0.7056(5) 0.2986(4) -0.2746(4)
H8_2 H 0.7371 0.3137 -0.3359
C15_2 C 0.5722(4) 0.2364(4) 0.0114(4)
C16_2 C 0.6610(4) 0.4835(4) 0.0172(4)
C17_2 C 0.8622(5) 0.2845(5) -0.8511(5)
H9_2 H 0.8269 0.3077 -0.7863
C18_2 C 0.9460(6) 0.3774(6) -0.8727(6)
H10_2 H 0.9649 0.4604 -0.8233
C19_2 C 0.9995(6) 0.3439(7) -0.9678(6)
H11_2 H 1.0551 0.4042 -0.9834
C20_2 C 0.9698(5) 0.2187(6) -1.0407(5)
C21_2 C 1.0231(6) 0.1747(8) -1.1402(6)
H12_2 H 1.0784 0.2325 -1.1588
C22_2 C 0.9961(6) 0.0534(8) -1.2074(6)
H13_2 H 1.0331 0.0284 -1.2709
C23_2 C 0.9100(5) -0.0381(6) -1.1811(4)
C24_2 C 0.8777(5) -0.1667(6) -1.2475(5)
H14_2 H 0.9155 -0.1965 -1.3097
C25_2 C 0.7933(6) -0.2465(6) -1.2221(5)
H15_2 H 0.7723 -0.3317 -1.2659
C26_2 C 0.7366(6) -0.2006(5) -1.1288(5)
H16_2 H 0.6769 -0.2566 -1.1123
C27_2 C 0.8833(4) 0.1313(5) -1.0134(4)
C28_2 C 0.8520(4) 0.0012(5) -1.0873(4)
O5 O 0.5477(6) 0.2896(7) 0.3198(6)
O6 O 0.8981(16) 0.3063(18) 0.4463(15)
O7 O 0.552(2) -0.502(2) -0.4016(18)
O8 O 0.928(3) 0.636(3) 0.374(3)
O9 O 1.0000 0.0000 -0.5000
O10 O 0.711(2) -0.498(3) 0.489(2)
O11 O 1.109(3) 0.518(3) 0.428(3)
loop_
_geom_bond_atom_site_label_1
_geom_bond_atom_site_label_2
_geom_bond_site_symmetry_1
_geom_bond_site_symmetry_2
Cd1 O2 1_555 1_555
O1 C7 1_555 1_555
O2 C8 1_555 1_555
O3 C15 1_555 1_555
O4 C16 1_555 1_555
N1 H1 1_555 1_555
N2 Cd1 1_555 1_555
N3 N4 1_555 1_555
N4 H2 1_555 1_555
N5 Cd1 1_555 1_555
N6 Cd1 1_555 1_555
C1 C2 1_555 1_555
C2 H3 1_555 1_555
C3 C2 1_555 1_555
C4 C3 1_555 1_555
C5 C4 1_555 1_555
H4 C5 1_555 1_555
C6 C1 1_555 1_555
H5 C6 1_555 1_555
C7 N1 1_555 1_555
C8 N2 1_555 1_555
C9 C1 1_555 1_555
C10 C9 1_555 1_555
H6 C10 1_555 1_555
C11 C10 1_555 1_555
C12 C11 1_555 1_555
C13 C12 1_555 1_555
H7 C13 1_555 1_555
C14 C9 1_555 1_555
H8 C14 1_555 1_555
C15 N3 1_555 1_555
C16 N4 1_555 1_555
C17 N5 1_555 1_555
H9 C17 1_555 1_555
C18 C17 1_555 1_555
H10 C18 1_555 1_555
C19 C18 1_555 1_555
H11 C19 1_555 1_555
C20 C19 1_555 1_555
C21 C20 1_555 1_555
H12 C21 1_555 1_555
C22 C21 1_555 1_555
H13 C22 1_555 1_555
C23 C22 1_555 1_555
C24 C23 1_555 1_555
H14 C24 1_555 1_555
C25 C24 1_555 1_555
H15 C25 1_555 1_555
C26 N6 1_555 1_555
H16 C26 1_555 1_555
C27 N5 1_555 1_555
C28 N6 1_555 1_555
Cd1_2 O2_2 1_555 1_555
Cd1_3 O3 1_555 1_555
Cd1A O3 1_555 1_555
Cd1A_2 O3_2 1_555 1_555
O1_2 C7_2 1_555 1_555
O2_2 C8_2 1_555 1_555
O3_2 Cd1 1_555 1_555
O3A Cd1 1_555 1_555
O3_3 Cd1_2 1_555 1_555
O3A_2 Cd1_2 1_555 1_555
O4_2 C16_2 1_555 1_555
N1_2 H1_2 1_555 1_555
N2_2 Cd1_2 1_555 1_555
N3_2 N4_2 1_555 1_555
N4_2 H2_2 1_555 1_555
N5_2 Cd1_2 1_555 1_555
N6_2 Cd1_2 1_555 1_555
C1_2 C2_2 1_555 1_555
C2_2 H3_2 1_555 1_555
C3_2 C2_2 1_555 1_555
C4_2 C3_2 1_555 1_555
C5_2 C4_2 1_555 1_555
H4_2 C5_2 1_555 1_555
C6_2 C1_2 1_555 1_555
H5_2 C6_2 1_555 1_555
C7_2 N1_2 1_555 1_555
C8_2 N2_2 1_555 1_555
C9_2 C1_2 1_555 1_555
C10_2 C9_2 1_555 1_555
H6_2 C10_2 1_555 1_555
C11_2 C10_2 1_555 1_555
C12_2 C11_2 1_555 1_555
C13_2 C12_2 1_555 1_555
H7_2 C13_2 1_555 1_555
C14_2 C9_2 1_555 1_555
H8_2 C14_2 1_555 1_555
C15_2 O3_2 1_555 1_555
C16_2 N4_2 1_555 1_555
C17_2 N5_2 1_555 1_555
H9_2 C17_2 1_555 1_555
C18_2 C17_2 1_555 1_555
H10_2 C18_2 1_555 1_555
C19_2 C18_2 1_555 1_555
H11_2 C19_2 1_555 1_555
C20_2 C19_2 1_555 1_555
C21_2 C20_2 1_555 1_555
H12_2 C21_2 1_555 1_555
C22_2 C21_2 1_555 1_555
H13_2 C22_2 1_555 1_555
C23_2 C22_2 1_555 1_555
C24_2 C23_2 1_555 1_555
H14_2 C24_2 1_555 1_555
C25_2 C24_2 1_555 1_555
H15_2 C25_2 1_555 1_555
C26_2 N6_2 1_555 1_555
H16_2 C26_2 1_555 1_555
C27_2 N5_2 1_555 1_555
C28_2 N6_2 1_555 1_555
N1 N2 1_555 1_555
C3 C8 1_555 1_555
C4 C7 1_555 1_555
C5 C6 1_555 1_555
C11 C15 1_555 1_555
C12 C16 1_555 1_555
C13 C14 1_555 1_555
C20 C27 1_555 1_555
C23 C28 1_555 1_555
C25 C26 1_555 1_555
C27 C28 1_555 1_555
Cd1A_2 O3A 1_555 1_555
N1_2 N2_2 1_555 1_555
N3_2 C15_2 1_555 1_555
C3_2 C8_2 1_555 1_555
C4_2 C7_2 1_555 1_555
C5_2 C6_2 1_555 1_555
C11_2 C15_2 1_555 1_555
C12_2 C16_2 1_555 1_555
C13_2 C14_2 1_555 1_555
C20_2 C27_2 1_555 1_555
C23_2 C28_2 1_555 1_555
C25_2 C26_2 1_555 1_555
C27_2 C28_2 1_555 1_555

#END
