
#######################################################################
#
#                 Cambridge Crystallographic Data Centre
#                                CCDC 
#
#######################################################################
#
# If this CIF has been generated from an entry in the Cambridge 
# Structural Database, then it will include bibliographic, chemical, 
# crystal, experimental, refinement or atomic coordinate data resulting 
# from the CCDC's data processing and validation procedures.
#
#######################################################################

data_XAXMIU
_symmetry_cell_setting           monoclinic
_symmetry_space_group_name_H-M   'P 21/c'
_symmetry_Int_Tables_number      14
_space_group_name_Hall           '-P 2ybc'
loop_
_symmetry_equiv_pos_site_id
_symmetry_equiv_pos_as_xyz
1 x,y,z
2 -x,1/2+y,1/2-z
3 -x,-y,-z
4 x,1/2-y,1/2+z
_cell_length_a                   12.1788(8)
_cell_length_b                   17.5654(12)
_cell_length_c                   15.7273(11)
_cell_angle_alpha                90
_cell_angle_beta                 110.683(3)
_cell_angle_gamma                90
_cell_volume                     3147.63
loop_
_atom_site_label
_atom_site_type_symbol
_atom_site_fract_x
_atom_site_fract_y
_atom_site_fract_z
Zn1 Zn 0.06383(3) 0.74054(2) 0.08544(2)
S1 S -0.04993(8) 0.65837(5) 0.12973(6)
S2 S 0.20235(9) 0.82574(5) 0.16621(6)
N1 N 0.20127(19) 0.49092(13) -0.21750(15)
N2 N 0.39017(19) 0.53623(13) -0.12856(15)
C1 C 0.5611(2) 0.49861(15) -0.16119(17)
C2 C 0.2534(2) 0.44973(16) -0.26267(18)
N3 N 0.13355(19) 0.67004(13) 0.01026(15)
C3 C 0.2239(2) 0.58088(14) -0.09532(18)
C4 C 0.2737(2) 0.53318(14) -0.15054(18)
C5 C 0.4327(2) 0.49387(15) -0.18016(18)
N4 N 0.3684(2) 0.44983(14) -0.24808(16)
N5 N 0.8016(2) 0.51222(16) -0.12642(19)
N6 N 0.0415(2) 0.30814(15) -0.47785(17)
C6 C 0.2923(2) 0.63515(17) -0.0368(2)
C7 C 0.1790(2) 0.40087(17) -0.33782(19)
C8 C 0.2446(3) 0.67936(17) 0.0137(2)
C9 C 0.6148(3) 0.45495(18) -0.2086(2)
C10 C -0.1449(3) 0.7190(2) 0.1619(2)
C11 C 0.7483(3) 0.5532(2) -0.0809(2)
C12 C 0.3008(3) 0.77283(18) 0.2580(2)
C13 C 0.6290(3) 0.54872(18) -0.0956(2)
C14 C 0.1077(2) 0.57151(17) -0.1001(2)
C15 C 0.0677(2) 0.61677(18) -0.0450(2)
C16 C 0.1585(3) 0.3097(2) -0.4546(3)
C17 C 0.2289(3) 0.3542(2) -0.3850(3)
C18 C 0.7361(3) 0.46371(19) -0.1875(2)
C19 C 0.0578(3) 0.3991(3) -0.3610(3)
C20 C 0.2630(4) 0.7182(2) 0.3050(3)
C21 C -0.3403(4) 0.7466(3) 0.1606(4)
C22 C 0.4994(4) 0.7547(3) 0.3618(4)
C23 C 0.4637(5) 0.7017(3) 0.4076(3)
C24 C -0.2647(3) 0.7005(2) 0.1321(2)
C25 C -0.1049(4) 0.7816(2) 0.2163(3)
C26 C 0.3428(5) 0.6816(3) 0.3800(3)
C27 C -0.2992(4) 0.8077(3) 0.2164(4)
C28 C 0.4204(3) 0.7911(2) 0.2860(3)
C29 C -0.1819(4) 0.8265(3) 0.2430(3)
C30 C -0.0070(3) 0.3512(3) -0.4314(3)
Zn1A Zn -0.06383(3) 0.24054(2) -0.58544(2)
N6A N -0.0415(2) 0.80814(15) -0.02215(17)
C31 C 0.398(4) 0.556(2) -0.433(2)
C32 C 0.280(2) 0.5103(11) -0.498(2)
O1 O 0.465(5) 0.5344(8) -0.4452(11)
O2 O 0.323(5) 0.4723(9) -0.5594(19)
loop_
_geom_bond_atom_site_label_1
_geom_bond_atom_site_label_2
_geom_bond_site_symmetry_1
_geom_bond_site_symmetry_2
Zn1 S1 1_555 1_555
S1 C10 1_555 1_555
S2 Zn1 1_555 1_555
N1 C2 1_555 1_555
N2 C4 1_555 1_555
C1 C5 1_555 1_555
C2 N4 1_555 1_555
N3 Zn1 1_555 1_555
C3 C4 1_555 1_555
C4 N1 1_555 1_555
C5 N2 1_555 1_555
N4 C5 1_555 1_555
N5 C11 1_555 1_555
N6 C16 1_555 1_555
C6 C3 1_555 1_555
C7 C2 1_555 1_555
C8 N3 1_555 1_555
C9 C1 1_555 1_555
C10 C24 1_555 1_555
C11 C13 1_555 1_555
C12 S2 1_555 1_555
C13 C1 1_555 1_555
C14 C3 1_555 1_555
C15 N3 1_555 1_555
C16 C17 1_555 1_555
C17 C7 1_555 1_555
C18 N5 1_555 1_555
C19 C7 1_555 1_555
C20 C12 1_555 1_555
C21 C24 1_555 1_555
C22 C23 1_555 1_555
C23 C26 1_555 1_555
C25 C10 1_555 1_555
C26 C20 1_555 1_555
C27 C21 1_555 1_555
C28 C12 1_555 1_555
C29 C25 1_555 1_555
C30 N6 1_555 1_555
C31 C32 1_555 1_555
C32 O2 1_555 1_555
O1 C31 1_555 1_555
Zn1A N6 1_555 1_555
N6A Zn1 1_555 1_555
C6 C8 1_555 1_555
C9 C18 1_555 1_555
C14 C15 1_555 1_555
C19 C30 1_555 1_555
C22 C28 1_555 1_555
C27 C29 1_555 1_555

#END
