
#######################################################################
#
#                 Cambridge Crystallographic Data Centre
#                                CCDC 
#
#######################################################################
#
# If this CIF has been generated from an entry in the Cambridge 
# Structural Database, then it will include bibliographic, chemical, 
# crystal, experimental, refinement or atomic coordinate data resulting 
# from the CCDC's data processing and validation procedures.
#
#######################################################################

data_XAXMOA
_symmetry_cell_setting           monoclinic
_symmetry_space_group_name_H-M   'P 21/c'
_symmetry_Int_Tables_number      14
_space_group_name_Hall           '-P 2ybc'
loop_
_symmetry_equiv_pos_site_id
_symmetry_equiv_pos_as_xyz
1 x,y,z
2 -x,1/2+y,1/2-z
3 -x,-y,-z
4 x,1/2-y,1/2+z
_cell_length_a                   8.6951(3)
_cell_length_b                   10.7292(4)
_cell_length_c                   30.1393(10)
_cell_angle_alpha                90
_cell_angle_beta                 96.711(2)
_cell_angle_gamma                90
_cell_volume                     2792.47
loop_
_atom_site_label
_atom_site_type_symbol
_atom_site_fract_x
_atom_site_fract_y
_atom_site_fract_z
Zn1 Zn 0.44115(8) 0.94907(6) 0.35376(2)
S1 S 0.4898(2) 0.76399(14) 0.39032(6)
S2 S 0.1966(2) 1.00525(17) 0.32558(6)
N1 N 0.5691(6) 1.5341(4) 0.79976(15)
N2 N 0.5123(6) 1.0926(5) 0.39831(16)
C1 C 0.7857(7) 1.5618(5) 0.5266(2)
C2 C 0.7435(7) 1.5556(5) 0.57015(19)
C3 C 0.6023(7) 1.2754(5) 0.46226(19)
C4 C 0.6529(7) 1.5450(5) 0.7122(2)
C5 C 0.7385(8) 1.4665(6) 0.4922(2)
C6 C 0.5650(8) 1.4438(5) 0.7267(2)
C7 C 0.5252(8) 1.4442(6) 0.7695(2)
C8 C 0.6463(8) 1.3705(6) 0.4975(2)
C9 C 0.6070(8) 1.1875(6) 0.3895(2)
C10 C 0.7933(7) 1.6468(5) 0.60136(18)
C11 C 0.6920(7) 1.5467(5) 0.66647(19)
C12 C 0.5051(8) 1.1791(6) 0.4719(2)
C13 C 0.6952(8) 0.7528(6) 0.3963(2)
C14 C 0.4646(8) 1.0907(6) 0.4388(2)
C15 C 0.7575(7) 1.6445(5) 0.64803(18)
C16 C 0.7038(8) 1.6367(5) 0.7445(2)
C17 C 0.6544(8) 1.2795(6) 0.4201(2)
C18 C 0.8871(8) 1.7471(6) 0.5889(2)
C19 C 0.6589(7) 1.6267(6) 0.7873(2)
C20 C 0.1664(7) 0.8990(6) 0.2802(2)
C21 C 0.9262(8) 1.7529(6) 0.5453(2)
C22 C 0.1780(8) 0.9395(6) 0.2368(2)
C23 C 0.8768(8) 1.6602(6) 0.5143(2)
C24 C 0.1556(9) 0.8537(8) 0.2001(2)
C25 C 0.1128(9) 0.7325(8) 0.2075(3)
C26 C 0.0961(8) 0.6943(7) 0.2499(3)
C27 C 0.1211(8) 0.7761(6) 0.2873(2)
C28 C 0.7889(9) 0.8525(6) 0.4122(2)
C29 C 0.7619(10) 0.6412(7) 0.3836(2)
C30 C 1.0207(10) 0.7277(11) 0.4043(3)
C31 C 0.9545(11) 0.8409(8) 0.4158(3)
C32 C 0.9226(12) 0.6304(9) 0.3878(3)
Zn1C Zn 0.44115(8) 1.55093(6) 0.85376(2)
N1C N 0.5691(6) 0.9659(4) 0.29976(15)
loop_
_geom_bond_atom_site_label_1
_geom_bond_atom_site_label_2
_geom_bond_site_symmetry_1
_geom_bond_site_symmetry_2
Zn1 S1 1_555 1_555
S1 C13 1_555 1_555
S2 Zn1 1_555 1_555
N1 C7 1_555 1_555
N2 Zn1 1_555 1_555
C1 C2 1_555 1_555
C2 C10 1_555 1_555
C3 C8 1_555 1_555
C4 C6 1_555 1_555
C5 C1 1_555 1_555
C6 C7 1_555 1_555
C8 C5 1_555 1_555
C9 N2 1_555 1_555
C10 C15 1_555 1_555
C11 C4 1_555 1_555
C12 C3 1_555 1_555
C13 C28 1_555 1_555
C14 N2 1_555 1_555
C15 C11 1_555 1_555
C16 C4 1_555 1_555
C17 C3 1_555 1_555
C18 C10 1_555 1_555
C19 N1 1_555 1_555
C20 S2 1_555 1_555
C21 C18 1_555 1_555
C22 C20 1_555 1_555
C23 C1 1_555 1_555
C24 C22 1_555 1_555
C25 C24 1_555 1_555
C26 C25 1_555 1_555
C27 C20 1_555 1_555
C28 C31 1_555 1_555
C29 C13 1_555 1_555
C30 C31 1_555 1_555
C32 C29 1_555 1_555
Zn1C N1 1_555 1_555
N1C Zn1 1_555 1_555
C9 C17 1_555 1_555
C12 C14 1_555 1_555
C16 C19 1_555 1_555
C21 C23 1_555 1_555
C26 C27 1_555 1_555
C30 C32 1_555 1_555

#END
