
#######################################################################
#
#                 Cambridge Crystallographic Data Centre
#                                CCDC 
#
#######################################################################
#
# If this CIF has been generated from an entry in the Cambridge 
# Structural Database, then it will include bibliographic, chemical, 
# crystal, experimental, refinement or atomic coordinate data resulting 
# from the CCDC's data processing and validation procedures.
#
#######################################################################

data_XAXNER
_symmetry_cell_setting           monoclinic
_symmetry_space_group_name_H-M   'P 21/m'
_symmetry_Int_Tables_number      11
_space_group_name_Hall           '-P 2yb'
loop_
_symmetry_equiv_pos_site_id
_symmetry_equiv_pos_as_xyz
1 x,y,z
2 -x,1/2+y,-z
3 -x,-y,-z
4 x,1/2-y,z
_cell_length_a                   8.0042(5)
_cell_length_b                   15.8757(10)
_cell_length_c                   10.9146(7)
_cell_angle_alpha                90
_cell_angle_beta                 110.452(4)
_cell_angle_gamma                90
_cell_volume                     1299.52
loop_
_atom_site_label
_atom_site_type_symbol
_atom_site_fract_x
_atom_site_fract_y
_atom_site_fract_z
Zn1 Zn 0.43328(4) -0.150977(18) 0.30474(3)
O1 O 0.5229(3) -0.18024(12) 0.49282(17)
O3 O 0.8338(2) -0.09620(11) 0.94722(17)
O5 O 1.2008(3) -0.12116(13) 1.06023(19)
O6 O 1.1810(3) -0.12468(15) 1.25711(19)
O7 O 0.4933(4) -0.2500 0.2250(3)
H4 H 0.604(6) -0.2500 0.235(16)
N1 N 0.5790(3) -0.04657(12) 0.3106(2)
C1 C 0.5606(4) -0.2500 0.5492(3)
C2 C 0.6569(4) -0.2500 0.6933(3)
C3 C 0.7015(3) -0.17401(15) 0.7592(2)
H5 H 0.6700 -0.1233 0.7143
C4 C 0.8411(5) -0.2500 0.9612(3)
H6 H 0.9036 -0.2500 1.0508
C5 C 0.7930(3) -0.17451(16) 0.8922(2)
C6 C 0.9215(3) -0.09006(19) 1.0849(2)
H7 H 0.8602 -0.1261 1.1274
H8 H 0.9112 -0.0326 1.1116
C7 C 1.1161(4) -0.11401(15) 1.1329(2)
C8 C 0.6871(4) -0.01462(19) 0.4242(3)
H9 H 0.6907 -0.0400 0.5019
C9 C 0.7925(4) 0.0543(2) 0.4296(3)
H10 H 0.8661 0.0748 0.5102
C10 C 0.7901(4) 0.09357(18) 0.3158(3)
C11 C 0.6735(4) 0.06181(18) 0.2005(3)
H11 H 0.6646 0.0872 0.1216
C12 C 0.5705(4) -0.00669(19) 0.2008(3)
H12 H 0.4914 -0.0264 0.1214
C13 C 0.9013(4) 0.17073(19) 0.3192(4)
H13 H 0.9350 0.1718 0.2420
H14 H 1.0096 0.1685 0.3955
C14 C 0.7981(6) 0.2500 0.3240(5)
H15 H 0.6863 0.2500 0.2506
H16 H 0.7705 0.2500 0.4037
Zn1C Zn 0.43328(4) -0.349023(18) 0.30474(3)
Zn1_2 Zn 1.43328(4) -0.150977(18) 1.30474(3)
Zn1C_2 Zn 1.43328(4) -0.349023(18) 1.30474(3)
Zn1C_3 Zn 0.43328(4) 0.650977(18) 0.30474(3)
O1C O 0.5229(3) -0.31976(12) 0.49282(17)
O3C O 0.8338(2) -0.40380(11) 0.94722(17)
O5C O 1.2008(3) -0.37884(13) 1.06023(19)
O6C O 1.1810(3) -0.37532(15) 1.25711(19)
O6_2 O 0.1810(3) -0.12468(15) 0.25711(19)
O6C_2 O 0.1810(3) -0.37532(15) 0.25711(19)
N1C N 0.5790(3) 0.54657(12) 0.3106(2)
N1C_2 N 0.5790(3) -0.45343(12) 0.3106(2)
C3C C 0.7015(3) -0.32599(15) 0.7592(2)
H5C H 0.6700 -0.3767 0.7143
C5C C 0.7930(3) -0.32549(16) 0.8922(2)
C6C C 0.9215(3) -0.40994(19) 1.0849(2)
H7C H 0.8602 -0.3739 1.1274
H8C H 0.9112 -0.4674 1.1116
C7C C 1.1161(4) -0.38599(15) 1.1329(2)
C8C C 0.6871(4) 0.51462(19) 0.4242(3)
H9C H 0.6907 0.5400 0.5019
C9C C 0.7925(4) 0.4457(2) 0.4296(3)
H10C H 0.8661 0.4252 0.5102
C10C C 0.7901(4) 0.40643(18) 0.3158(3)
C11C C 0.6735(4) 0.43819(18) 0.2005(3)
H11C H 0.6646 0.4128 0.1216
C12C C 0.5705(4) 0.50669(19) 0.2008(3)
H12C H 0.4914 0.5264 0.1214
C13C C 0.9013(4) 0.32927(19) 0.3192(4)
H13C H 0.9350 0.3282 0.2420
H14C H 1.0096 0.3315 0.3955
O2 O -0.1133(12) -0.2500 0.3471(10)
H1 H -0.0674 -0.2500 0.4297
H2 H -0.019(13) -0.2500 0.325(15)
O4 O 0.660(7) 0.2500 0.000(7)
H3 H 0.6975 0.2072 -0.0293
H3C H 0.6975 0.2928 -0.0293
loop_
_geom_bond_atom_site_label_1
_geom_bond_atom_site_label_2
_geom_bond_site_symmetry_1
_geom_bond_site_symmetry_2
Zn1 O1 1_555 1_555
O1 C1 1_555 1_555
O2 H1 1_555 1_555
H2 O2 1_555 1_555
O3 C5 1_555 1_555
O4 H3 1_555 1_555
O5 C7 1_555 1_555
O6 C7 1_555 1_555
O7 Zn1 1_555 1_555
H4 O7 1_555 1_555
N1 Zn1 1_555 1_555
C1 C2 1_555 1_555
C2 C3 1_555 1_555
C3 H5 1_555 1_555
C4 H6 1_555 1_555
C5 C3 1_555 1_555
C6 O3 1_555 1_555
H7 C6 1_555 1_555
H8 C6 1_555 1_555
C7 C6 1_555 1_555
C8 N1 1_555 1_555
H9 C8 1_555 1_555
C9 C8 1_555 1_555
H10 C9 1_555 1_555
C10 C9 1_555 1_555
C11 C10 1_555 1_555
H11 C11 1_555 1_555
C12 N1 1_555 1_555
H12 C12 1_555 1_555
C13 C10 1_555 1_555
H13 C13 1_555 1_555
H14 C13 1_555 1_555
C14 C13 1_555 1_555
H15 C14 1_555 1_555
H16 C14 1_555 1_555
Zn1C O7 1_555 1_555
Zn1_2 O6 1_555 1_555
Zn1C_2 O6C 1_555 1_555
Zn1C_3 N1C 1_555 1_555
O1C C1 1_555 1_555
O3C C5C 1_555 1_555
H3C O4 1_555 1_555
O5C C7C 1_555 1_555
O6C C7C 1_555 1_555
O6_2 Zn1 1_555 1_555
O6C_2 Zn1C 1_555 1_555
N1C C8C 1_555 1_555
N1C_2 Zn1C 1_555 1_555
C3C C2 1_555 1_555
H5C C3C 1_555 1_555
C5C C4 1_555 1_555
C6C O3C 1_555 1_555
H7C C6C 1_555 1_555
H8C C6C 1_555 1_555
C7C C6C 1_555 1_555
C8C H9C 1_555 1_555
C9C C8C 1_555 1_555
H10C C9C 1_555 1_555
C10C C9C 1_555 1_555
C11C C10C 1_555 1_555
H11C C11C 1_555 1_555
C12C N1C 1_555 1_555
H12C C12C 1_555 1_555
C13C C14 1_555 1_555
H13C C13C 1_555 1_555
H14C C13C 1_555 1_555
C4 C5 1_555 1_555
C11 C12 1_555 1_555
Zn1C O1C 1_555 1_555
C3C C5C 1_555 1_555
C10C C13C 1_555 1_555
C11C C12C 1_555 1_555

#END
