
#######################################################################
#
#                 Cambridge Crystallographic Data Centre
#                                CCDC 
#
#######################################################################
#
# If this CIF has been generated from an entry in the Cambridge 
# Structural Database, then it will include bibliographic, chemical, 
# crystal, experimental, refinement or atomic coordinate data resulting 
# from the CCDC's data processing and validation procedures.
#
#######################################################################

data_XAXNOB
_symmetry_cell_setting           monoclinic
_symmetry_space_group_name_H-M   'C 2/c'
_symmetry_Int_Tables_number      15
_space_group_name_Hall           '-C 2yn'
loop_
_symmetry_equiv_pos_site_id
_symmetry_equiv_pos_as_xyz
1 x,y,z
2 -x,y,1/2-z
3 1/2+x,1/2+y,z
4 1/2-x,1/2+y,1/2-z
5 -x,-y,-z
6 x,-y,1/2+z
7 1/2-x,1/2-y,-z
8 1/2+x,1/2-y,1/2+z
_cell_length_a                   20.7860(4)
_cell_length_b                   8.8946(2)
_cell_length_c                   33.8240(6)
_cell_angle_alpha                90
_cell_angle_beta                 95.764(2)
_cell_angle_gamma                90
_cell_volume                     6221.87
loop_
_atom_site_label
_atom_site_type_symbol
_atom_site_fract_x
_atom_site_fract_y
_atom_site_fract_z
Cd1 Cd 0.193531(13) 0.45021(3) 0.097787(8)
Cd2 Cd 0.5000 0.90314(5) 0.2500
O1 O 0.29857(15) 0.3025(4) 0.12000(9)
O2 O 0.16046(18) 0.2328(4) 0.12533(16)
H1 H 0.1244(17) 0.230(7) 0.1340(19)
H2 H 0.173(3) 0.143(3) 0.127(2)
O3 O 0.26769(15) 0.5015(4) 0.15206(9)
O4 O 0.5797(2) 0.7338(5) 0.24840(12)
H3 H 0.589(3) 0.736(8) 0.2250(7)
H4 H 0.6147(16) 0.737(8) 0.2624(13)
O6 O 0.55821(15) 0.7330(4) 0.16990(9)
O7 O 0.47110(16) 0.8689(4) 0.18119(9)
O9 O 0.58951(15) 0.0207(3) 0.11082(11)
O12 O 0.65059(14) 0.2078(3) 0.09573(10)
O13 O 0.50515(14) 0.6584(3) 0.09574(8)
O14 O 0.40790(13) 0.2683(3) 0.17094(8)
N1 N 0.15858(19) 0.3632(5) 0.03438(11)
N2 N 0.26106(18) 0.5430(4) 0.05112(11)
N3 N 0.55801(18) 1.1145(4) 0.23466(11)
C1 C 0.30495(19) 0.3905(5) 0.14821(12)
C2 C 0.35856(19) 0.3673(5) 0.18168(12)
H13 H 0.3777 0.4639 0.1892
H14 H 0.3401 0.3267 0.2046
C3 C 0.45125(17) 0.3224(4) 0.14616(11)
C4 C 0.49617(18) 0.2197(4) 0.13558(11)
H15 H 0.4940 0.1199 0.1436
C5 C 0.54466(18) 0.2660(4) 0.11293(11)
C6 C 0.59780(19) 0.1580(5) 0.10578(11)
C7 C 0.54631(19) 0.4140(4) 0.09982(12)
H16 H 0.5785 0.4451 0.0844
C8 C 0.49993(18) 0.5147(4) 0.10974(11)
C9 C 0.45207(18) 0.4706(4) 0.13290(12)
H17 H 0.4210 0.5388 0.1395
C10 C 0.5045(2) 0.7929(5) 0.15972(13)
C11 C 0.4760(2) 0.7769(4) 0.11622(12)
H18 H 0.4299 0.7580 0.1155
H19 H 0.4817 0.8710 0.1025
C12 C 0.1913(2) 0.4025(6) 0.00360(13)
C13 C 0.1058(3) 0.2774(7) 0.02737(18)
H20 H 0.0835 0.2491 0.0487
C14 C 0.0831(3) 0.2290(9) -0.0107(2)
H21 H 0.0452 0.1733 -0.0152
C15 C 0.1181(4) 0.2658(9) -0.04086(19)
H22 H 0.1052 0.2310 -0.0663
C16 C 0.1726(3) 0.3539(8) -0.03451(16)
H23 H 0.1961 0.3801 -0.0554
C17 C 0.2484(2) 0.5019(6) 0.01325(13)
C18 C 0.2864(3) 0.5539(7) -0.01539(16)
H24 H 0.2777 0.5237 -0.0417
C19 C 0.3365(3) 0.6488(9) -0.00489(18)
H25 H 0.3615 0.6856 -0.0241
C20 C 0.3500(3) 0.6901(8) 0.03438(17)
H26 H 0.3844 0.7535 0.0425
C21 C 0.3106(2) 0.6340(7) 0.06096(15)
H27 H 0.3191 0.6614 0.0875
C22 C 0.5295(2) 1.2471(5) 0.23922(12)
C23 C 0.5548(3) 1.3779(6) 0.22493(14)
H28 H 0.5345 1.4696 0.2282
C24 C 0.6101(3) 1.3710(7) 0.20587(16)
H29 H 0.6276 1.4581 0.1961
C25 C 0.6391(3) 1.2356(8) 0.20139(16)
H30 H 0.6768 1.2288 0.1888
C26 C 0.6116(2) 1.1098(7) 0.21579(15)
H31 H 0.6310 1.0171 0.2123
Cd1A Cd 0.806469(13) 0.45021(3) 0.402213(8)
Cd1B Cd 0.693531(13) -0.04979(3) 0.097787(8)
Cd1C Cd 0.306469(13) -0.04979(3) 0.402213(8)
O1A O 0.70143(15) 0.3025(4) 0.38000(9)
O2A O 0.83954(18) 0.2328(4) 0.37467(16)
H1A H 0.8756(17) 0.230(7) 0.3660(19)
H2A H 0.827(3) 0.143(3) 0.373(2)
O3A O 0.73231(15) 0.5015(4) 0.34794(9)
O4A O 0.4203(2) 0.7338(5) 0.25160(12)
H3A H 0.411(3) 0.736(8) 0.2750(7)
H4A H 0.3853(16) 0.737(8) 0.2376(13)
O6A O 0.44179(15) 0.7330(4) 0.33010(9)
O7A O 0.52890(16) 0.8689(4) 0.31881(9)
O9A O 0.41049(15) 0.0207(3) 0.38918(11)
O9B O 0.08951(15) 0.5207(3) 0.11082(11)
O9C O 0.91049(15) 0.5207(3) 0.38918(11)
O12A O 0.34941(14) 0.2078(3) 0.40427(10)
O12B O 0.15059(14) 0.7078(3) 0.09573(10)
O12C O 0.84941(14) 0.7078(3) 0.40427(10)
O13A O 0.49485(14) 0.6584(3) 0.40426(8)
O14A O 0.59210(13) 0.2683(3) 0.32906(8)
N1A N 0.84142(19) 0.3632(5) 0.46562(11)
N2A N 0.73894(18) 0.5430(4) 0.44888(11)
N3A N 0.44199(18) 1.1145(4) 0.26534(11)
C1A C 0.69505(19) 0.3905(5) 0.35179(12)
C2A C 0.64144(19) 0.3673(5) 0.31832(12)
H13A H 0.6223 0.4639 0.3108
H14A H 0.6599 0.3267 0.2954
C3A C 0.54875(17) 0.3224(4) 0.35384(11)
C4A C 0.50383(18) 0.2197(4) 0.36442(11)
H15A H 0.5060 0.1199 0.3564
C5A C 0.45534(18) 0.2660(4) 0.38707(11)
C6A C 0.40220(19) 0.1580(5) 0.39422(11)
C7A C 0.45369(19) 0.4140(4) 0.40018(12)
H16A H 0.4215 0.4451 0.4156
C8A C 0.50007(18) 0.5147(4) 0.39026(11)
C9A C 0.54793(18) 0.4706(4) 0.36710(12)
H17A H 0.5790 0.5388 0.3605
C10A C 0.4955(2) 0.7929(5) 0.34028(13)
C11A C 0.5240(2) 0.7769(4) 0.38378(12)
H18A H 0.5701 0.7580 0.3845
H19A H 0.5183 0.8710 0.3975
C12A C 0.8087(2) 0.4025(6) 0.49640(13)
C13A C 0.8942(3) 0.2774(7) 0.47263(18)
H20A H 0.9165 0.2491 0.4513
C14A C 0.9169(3) 0.2290(9) 0.5107(2)
H21A H 0.9548 0.1733 0.5152
C15A C 0.8819(4) 0.2658(9) 0.54086(19)
H22A H 0.8948 0.2310 0.5663
C16A C 0.8274(3) 0.3539(8) 0.53451(16)
H23A H 0.8039 0.3801 0.5554
C17A C 0.7516(2) 0.5019(6) 0.48675(13)
C18A C 0.7136(3) 0.5539(7) 0.51539(16)
H24A H 0.7223 0.5237 0.5417
C19A C 0.6635(3) 0.6488(9) 0.50489(18)
H25A H 0.6385 0.6856 0.5241
C20A C 0.6500(3) 0.6901(8) 0.46562(17)
H26A H 0.6156 0.7535 0.4575
C21A C 0.6894(2) 0.6340(7) 0.43904(15)
H27A H 0.6809 0.6614 0.4125
C22A C 0.4705(2) 1.2471(5) 0.26078(12)
C23A C 0.4452(3) 1.3779(6) 0.27507(14)
H28A H 0.4655 1.4696 0.2718
C24A C 0.3899(3) 1.3710(7) 0.29413(16)
H29A H 0.3724 1.4581 0.3039
C25A C 0.3609(3) 1.2356(8) 0.29861(16)
H30A H 0.3232 1.2288 0.3112
C26A C 0.3884(2) 1.1098(7) 0.28421(15)
H31A H 0.3690 1.0171 0.2877
O5 O 0.2175(2) -0.0372(5) 0.11881(19)
H5 H 0.214(4) -0.044(8) 0.1427(7)
H6 H 0.200(3) -0.118(5) 0.1100(18)
O8 O 0.1997(4) 1.2041(13) 0.2844(4)
H7 H 0.2232 1.1279 0.2810
H8 H 0.2043 1.2318 0.3086
O10 O -0.2347(6) 1.515(2) 0.2186(4)
H9 H -0.2676 1.4851 0.2292
H10 H -0.2455 1.5919 0.2043
O11 O -0.1503(2) 1.4810(6) 0.1397(3)
H11 H -0.163(5) 1.493(10) 0.1629(14)
H12 H -0.150(5) 1.572(4) 0.132(2)
loop_
_geom_bond_atom_site_label_1
_geom_bond_atom_site_label_2
_geom_bond_site_symmetry_1
_geom_bond_site_symmetry_2
Cd1 O1 1_555 1_555
Cd2 O4 1_555 1_555
O1 C1 1_555 1_555
O2 Cd1 1_555 1_555
H1 O2 1_555 1_555
H2 O2 1_555 1_555
O3 Cd1 1_555 1_555
O4 H3 1_555 1_555
H4 O4 1_555 1_555
O5 H5 1_555 1_555
H6 O5 1_555 1_555
O6 C10 1_555 1_555
O7 Cd2 1_555 1_555
O8 H7 1_555 1_555
H8 O8 1_555 1_555
O9 C6 1_555 1_555
O10 H9 1_555 1_555
H10 O10 1_555 1_555
O11 H11 1_555 1_555
H12 O11 1_555 1_555
O12 C6 1_555 1_555
O13 C8 1_555 1_555
O14 C2 1_555 1_555
N1 Cd1 1_555 1_555
N2 Cd1 1_555 1_555
N3 Cd2 1_555 1_555
C1 O3 1_555 1_555
C2 C1 1_555 1_555
H13 C2 1_555 1_555
H14 C2 1_555 1_555
C3 O14 1_555 1_555
C4 C3 1_555 1_555
H15 C4 1_555 1_555
C5 C4 1_555 1_555
C6 C5 1_555 1_555
C7 C5 1_555 1_555
H16 C7 1_555 1_555
C8 C7 1_555 1_555
C9 C3 1_555 1_555
H17 C9 1_555 1_555
C10 O7 1_555 1_555
C11 O13 1_555 1_555
H18 C11 1_555 1_555
H19 C11 1_555 1_555
C12 N1 1_555 1_555
C13 N1 1_555 1_555
H20 C13 1_555 1_555
C14 C13 1_555 1_555
H21 C14 1_555 1_555
C15 C14 1_555 1_555
H22 C15 1_555 1_555
C16 C12 1_555 1_555
H23 C16 1_555 1_555
C17 N2 1_555 1_555
C18 C17 1_555 1_555
H24 C18 1_555 1_555
C19 C18 1_555 1_555
H25 C19 1_555 1_555
C20 C19 1_555 1_555
H26 C20 1_555 1_555
C21 N2 1_555 1_555
H27 C21 1_555 1_555
C22 N3 1_555 1_555
C23 C22 1_555 1_555
H28 C23 1_555 1_555
C24 C23 1_555 1_555
H29 C24 1_555 1_555
C25 C24 1_555 1_555
H30 C25 1_555 1_555
C26 N3 1_555 1_555
H31 C26 1_555 1_555
Cd1A O1A 1_555 1_555
Cd1B O9 1_555 1_555
Cd1C O9A 1_555 1_555
O1A C1A 1_555 1_555
O2A Cd1A 1_555 1_555
H1A O2A 1_555 1_555
H2A O2A 1_555 1_555
O3A Cd1A 1_555 1_555
O4A Cd2 1_555 1_555
H3A O4A 1_555 1_555
H4A O4A 1_555 1_555
O6A C10A 1_555 1_555
O7A Cd2 1_555 1_555
O9A C6A 1_555 1_555
O9B Cd1 1_555 1_555
O9C Cd1A 1_555 1_555
O12A Cd1C 1_555 1_555
O12B Cd1 1_555 1_555
O12C Cd1A 1_555 1_555
O13A C8A 1_555 1_555
O14A C2A 1_555 1_555
N1A Cd1A 1_555 1_555
N2A Cd1A 1_555 1_555
N3A Cd2 1_555 1_555
C1A O3A 1_555 1_555
C2A C1A 1_555 1_555
H13A C2A 1_555 1_555
H14A C2A 1_555 1_555
C3A O14A 1_555 1_555
C4A C3A 1_555 1_555
H15A C4A 1_555 1_555
C5A C4A 1_555 1_555
C6A O12A 1_555 1_555
C7A C5A 1_555 1_555
H16A C7A 1_555 1_555
C8A C7A 1_555 1_555
C9A C3A 1_555 1_555
H17A C9A 1_555 1_555
C10A O7A 1_555 1_555
C11A O13A 1_555 1_555
H18A C11A 1_555 1_555
H19A C11A 1_555 1_555
C12A N1A 1_555 1_555
C13A N1A 1_555 1_555
H20A C13A 1_555 1_555
C14A C13A 1_555 1_555
H21A C14A 1_555 1_555
C15A C14A 1_555 1_555
H22A C15A 1_555 1_555
C16A C12A 1_555 1_555
H23A C16A 1_555 1_555
C17A N2A 1_555 1_555
C18A C17A 1_555 1_555
H24A C18A 1_555 1_555
C19A C18A 1_555 1_555
H25A C19A 1_555 1_555
C20A C19A 1_555 1_555
H26A C20A 1_555 1_555
C21A N2A 1_555 1_555
H27A C21A 1_555 1_555
C22A C22 1_555 1_555
C23A C22A 1_555 1_555
H28A C23A 1_555 1_555
C24A C23A 1_555 1_555
H29A C24A 1_555 1_555
C25A C24A 1_555 1_555
H30A C25A 1_555 1_555
C26A N3A 1_555 1_555
H31A C26A 1_555 1_555
O12 Cd1B 1_555 1_555
C8 C9 1_555 1_555
C10 C11 1_555 1_555
C12 C17 1_555 1_555
C15 C16 1_555 1_555
C20 C21 1_555 1_555
C25 C26 1_555 1_555
N3A C22A 1_555 1_555
C5A C6A 1_555 1_555
C8A C9A 1_555 1_555
C10A C11A 1_555 1_555
C12A C17A 1_555 1_555
C15A C16A 1_555 1_555
C20A C21A 1_555 1_555
C25A C26A 1_555 1_555

#END
