
#######################################################################
#
#                 Cambridge Crystallographic Data Centre
#                                CCDC 
#
#######################################################################
#
# If this CIF has been generated from an entry in the Cambridge 
# Structural Database, then it will include bibliographic, chemical, 
# crystal, experimental, refinement or atomic coordinate data resulting 
# from the CCDC's data processing and validation procedures.
#
#######################################################################

data_XAXNUH
_symmetry_cell_setting           monoclinic
_symmetry_space_group_name_H-M   'C 2/c'
_symmetry_Int_Tables_number      15
_space_group_name_Hall           '-C 2yn'
loop_
_symmetry_equiv_pos_site_id
_symmetry_equiv_pos_as_xyz
1 x,y,z
2 -x,y,1/2-z
3 1/2+x,1/2+y,z
4 1/2-x,1/2+y,1/2-z
5 -x,-y,-z
6 x,-y,1/2+z
7 1/2-x,1/2-y,-z
8 1/2+x,1/2-y,1/2+z
_cell_length_a                   16.3184(8)
_cell_length_b                   16.4470(8)
_cell_length_c                   10.7606(6)
_cell_angle_alpha                90
_cell_angle_beta                 114.015(3)
_cell_angle_gamma                90
_cell_volume                     2638.03
loop_
_atom_site_label
_atom_site_type_symbol
_atom_site_fract_x
_atom_site_fract_y
_atom_site_fract_z
Cd1 Cd 0.234460(9) 0.146195(7) 0.542925(12)
Na1 Na 0.23696(6) -0.03662(4) 0.36579(8)
O1 O 0.29748(11) 0.08975(8) 0.36857(16)
O3 O 0.27099(10) 0.21747(8) 0.39115(13)
O4 O 0.43159(10) 0.08749(8) 0.02318(14)
O5 O 0.36617(11) 0.37057(8) 0.07791(15)
O6 O 0.30747(10) 0.10827(9) -0.23513(15)
O7 O 0.40058(12) 0.16914(15) -0.30167(19)
O8 O 0.38539(10) 0.51735(8) -0.14992(14)
O9 O 0.31671(10) 0.51755(8) -0.00880(14)
O10 O 0.08682(11) 0.18089(10) 0.42084(16)
H2 H 0.0852(18) 0.2203(11) 0.374(2)
H3 H 0.0643(18) 0.1425(11) 0.369(2)
C1 C 0.30037(12) 0.16188(10) 0.33866(17)
C2 C 0.33841(11) 0.18564(10) 0.23747(16)
C3 C 0.33988(13) 0.26681(10) 0.20458(18)
H4 H 0.3195 0.3063 0.2470
C4 C 0.37198(12) 0.28904(10) 0.10771(17)
C5 C 0.40490(12) 0.23130(11) 0.04643(18)
H5 H 0.4280 0.2465 -0.0161
C6 C 0.40269(12) 0.14982(10) 0.08037(17)
C7 C 0.36964(12) 0.12622(11) 0.17526(17)
H6 H 0.3684 0.0716 0.1969
C8 C 0.46166(13) 0.10841(12) -0.08046(18)
H7 H 0.4940 0.0627 -0.0955
H8 H 0.5030 0.1538 -0.0493
C9 C 0.38494(13) 0.13116(12) -0.21447(19)
C10 C 0.39413(13) 0.39790(10) -0.02389(18)
H9 H 0.3690 0.3630 -0.1031
H10 H 0.4590 0.3952 0.0103
C11 C 0.36322(12) 0.48487(10) -0.06377(17)
Cd1F Cd 0.265540(9) 0.353805(7) 0.457075(12)
Cd1_2 Cd 0.234460(9) 0.146195(7) -0.457075(12)
Cd1C Cd 0.265540(9) 0.646195(7) -0.042925(12)
Cd1F_2 Cd 0.265540(9) 0.353805(7) 1.457075(12)
Cd1E Cd 0.234460(9) -0.146195(7) 1.042925(12)
Na1F Na 0.26304(6) 0.53662(4) 0.63421(8)
Na1C Na 0.26304(6) 0.46338(4) 0.13421(8)
Na1E Na 0.23696(6) 0.03662(4) -0.13421(8)
Na1F_2 Na 0.26304(6) 0.53662(4) -0.36579(8)
Na1E_2 Na 0.23696(6) 0.03662(4) 0.86579(8)
Na1C_2 Na 0.26304(6) 0.46338(4) 1.13421(8)
Na1_2 Na 0.23696(6) -0.03662(4) 1.36579(8)
O1F O 0.20252(11) 0.41025(8) 0.63143(16)
O3F O 0.22901(10) 0.28253(8) 0.60885(13)
O4F O 0.06841(10) 0.41251(8) 0.97682(14)
O5F O 0.13383(11) 0.12943(8) 0.92209(15)
O5C O 0.13383(11) -0.12943(8) 0.42209(15)
O5E O 0.36617(11) 0.62943(8) 0.57791(15)
O6F O 0.19253(10) 0.39173(9) 1.23513(15)
O6_2 O 0.30747(10) 0.10827(9) 0.76487(15)
O6E O 0.30747(10) -0.10827(9) 0.26487(15)
O6F_2 O 0.19253(10) 0.39173(9) 0.23513(15)
O6C O 0.19253(10) 0.60827(9) 0.73513(15)
O7F O 0.09942(12) 0.33086(15) 1.30167(19)
O7_2 O 0.40058(12) 0.16914(15) 0.69833(19)
O7F_2 O 0.09942(12) 0.33086(15) 0.30167(19)
O8F O 0.11461(10) -0.01735(8) 1.14992(14)
O8F_2 O 0.11461(10) -0.01735(8) 0.14992(14)
O8_2 O 0.38539(10) 0.51735(8) 0.85008(14)
O9F O 0.18329(10) -0.01755(8) 1.00880(14)
O9C O 0.18329(10) 0.01755(8) 0.50880(14)
O9E O 0.31671(10) 0.48245(8) 0.49120(14)
O10F O 0.41318(11) 0.31911(10) 0.57916(16)
H2F H 0.4148(18) 0.2797(11) 0.626(2)
H3F H 0.4357(18) 0.3575(11) 0.631(2)
C1F C 0.19963(12) 0.33812(10) 0.66134(17)
C2F C 0.16159(11) 0.31436(10) 0.76253(16)
C3F C 0.16012(13) 0.23319(10) 0.79542(18)
H4F H 0.1805 0.1937 0.7530
C4F C 0.12802(12) 0.21096(10) 0.89229(17)
C5F C 0.09510(12) 0.26870(11) 0.95357(18)
H5F H 0.0720 0.2535 1.0161
C6F C 0.09731(12) 0.35018(10) 0.91963(17)
C7F C 0.13036(12) 0.37378(11) 0.82474(17)
H6F H 0.1316 0.4284 0.8031
C8F C 0.03834(13) 0.39159(12) 1.08046(18)
H7F H 0.0060 0.4373 1.0955
H8F H -0.0030 0.3462 1.0493
C9F C 0.11506(13) 0.36884(12) 1.21447(19)
C10F C 0.10587(13) 0.10210(10) 1.02389(18)
H9F H 0.1310 0.1370 1.1031
H10F H 0.0410 0.1048 0.9897
C11F C 0.13678(12) 0.01513(10) 1.06377(17)
O2 O 0.0000 0.05656(14) 0.2500
H1 H 0.0312(17) 0.0285(16) 0.232(3)
H1A H -0.0312(17) 0.0285(16) 0.268(3)
loop_
_geom_bond_atom_site_label_1
_geom_bond_atom_site_label_2
_geom_bond_site_symmetry_1
_geom_bond_site_symmetry_2
Cd1 O1 1_555 1_555
Na1 O1 1_555 1_555
O1 C1 1_555 1_555
O2 H1 1_555 1_555
O3 Cd1 1_555 1_555
O4 C6 1_555 1_555
O5 C4 1_555 1_555
O6 C9 1_555 1_555
O7 C9 1_555 1_555
O8 C11 1_555 1_555
O9 C11 1_555 1_555
O10 Cd1 1_555 1_555
H2 O10 1_555 1_555
H3 O10 1_555 1_555
C1 O3 1_555 1_555
C2 C1 1_555 1_555
C3 C2 1_555 1_555
H4 C3 1_555 1_555
C4 C3 1_555 1_555
C5 C4 1_555 1_555
H5 C5 1_555 1_555
C6 C5 1_555 1_555
C7 C2 1_555 1_555
H6 C7 1_555 1_555
C8 O4 1_555 1_555
H7 C8 1_555 1_555
H8 C8 1_555 1_555
C9 C8 1_555 1_555
C10 O5 1_555 1_555
H9 C10 1_555 1_555
H10 C10 1_555 1_555
C11 C10 1_555 1_555
Cd1F O3 1_555 1_555
Cd1_2 O6 1_555 1_555
Cd1C O9 1_555 1_555
Cd1F_2 O6F 1_555 1_555
Cd1E O9F 1_555 1_555
Na1F O1F 1_555 1_555
Na1C O5 1_555 1_555
Na1E O6 1_555 1_555
Na1F_2 O8 1_555 1_555
Na1E_2 O5F 1_555 1_555
Na1C_2 O6F 1_555 1_555
Na1_2 O8F 1_555 1_555
O1F Cd1F 1_555 1_555
H1A O2 1_555 1_555
O3F Cd1 1_555 1_555
O4F C6F 1_555 1_555
O5F C4F 1_555 1_555
O5C Na1 1_555 1_555
O5E Na1F 1_555 1_555
O6F C9F 1_555 1_555
O6_2 Cd1 1_555 1_555
O6E Na1 1_555 1_555
O6F_2 Cd1F 1_555 1_555
O6C Na1F 1_555 1_555
O7F Cd1F_2 1_555 1_555
O7_2 Cd1 1_555 1_555
O7F_2 Cd1F 1_555 1_555
O8F C11F 1_555 1_555
O8F_2 Na1 1_555 1_555
O8_2 Na1F 1_555 1_555
O9F Na1E_2 1_555 1_555
O9C Cd1 1_555 1_555
O9E Cd1F 1_555 1_555
O10F Cd1F 1_555 1_555
H2F O10F 1_555 1_555
H3F O10F 1_555 1_555
C1F O1F 1_555 1_555
C2F C1F 1_555 1_555
C3F C2F 1_555 1_555
H4F C3F 1_555 1_555
C4F C3F 1_555 1_555
C5F C4F 1_555 1_555
H5F C5F 1_555 1_555
C6F C5F 1_555 1_555
C7F C2F 1_555 1_555
H6F C7F 1_555 1_555
C8F O4F 1_555 1_555
H7F C8F 1_555 1_555
H8F C8F 1_555 1_555
C9F O7F 1_555 1_555
C10F O5F 1_555 1_555
H9F C10F 1_555 1_555
H10F C10F 1_555 1_555
C11F O9F 1_555 1_555
Na1 O9C 1_555 1_555
O7 Cd1_2 1_555 1_555
O9 Na1C 1_555 1_555
C6 C7 1_555 1_555
Cd1F O3F 1_555 1_555
Na1F O9E 1_555 1_555
Na1C O6F_2 1_555 1_555
Na1E_2 O6_2 1_555 1_555
O3F C1F 1_555 1_555
C6F C7F 1_555 1_555
C8F C9F 1_555 1_555
C10F C11F 1_555 1_555

#END
