
#######################################################################
#
#                 Cambridge Crystallographic Data Centre
#                                CCDC 
#
#######################################################################
#
# If this CIF has been generated from an entry in the Cambridge 
# Structural Database, then it will include bibliographic, chemical, 
# crystal, experimental, refinement or atomic coordinate data resulting 
# from the CCDC's data processing and validation procedures.
#
#######################################################################

data_XAXNIV
_symmetry_cell_setting           monoclinic
_symmetry_space_group_name_H-M   'P 21/c'
_symmetry_Int_Tables_number      14
_space_group_name_Hall           '-P 2ybc'
loop_
_symmetry_equiv_pos_site_id
_symmetry_equiv_pos_as_xyz
1 x,y,z
2 -x,1/2+y,1/2-z
3 -x,-y,-z
4 x,1/2-y,1/2+z
_cell_length_a                   12.630(2)
_cell_length_b                   9.7446(16)
_cell_length_c                   22.836(3)
_cell_angle_alpha                90
_cell_angle_beta                 109.888(9)
_cell_angle_gamma                90
_cell_volume                     2642.9
loop_
_atom_site_label
_atom_site_type_symbol
_atom_site_fract_x
_atom_site_fract_y
_atom_site_fract_z
Cd1 Cd 0.91691(2) -0.15261(2) -0.196144(10)
Cd2 Cd 0.5000 0.5000 -0.5000
O1 O 0.7958(2) 0.5525(3) -0.45988(11)
O2 O 0.3595(2) 0.4263(3) -0.59223(12)
H1 H 0.303(2) 0.422(5) -0.5806(16)
H2 H 0.334(3) 0.461(4) -0.6272(11)
O3 O 0.65655(18) 0.4396(2) -0.52956(10)
O4 O 1.0986(2) -0.2487(3) -0.16800(13)
H3 H 1.099(3) -0.3310(19) -0.1757(19)
H4 H 1.138(3) -0.213(3) -0.1848(18)
O5 O 0.81003(18) 0.3168(2) -0.57810(9)
O6 O 1.0229(3) 0.0342(3) -0.14953(13)
H5 H 1.067(3) 0.034(4) -0.1131(10)
H6 H 1.042(4) 0.099(4) -0.1667(16)
O7 O 0.87950(19) -0.0015(2) -0.41227(9)
O9 O 0.9099(2) -0.2475(2) -0.29429(10)
O10 O 0.9042(2) -0.0243(2) -0.29302(10)
O11 O 0.91630(19) -0.2695(2) -0.59773(9)
O12 O 0.8430(2) -0.1327(2) -0.67757(10)
N1 N 0.7577(2) 1.5293(3) -0.70225(13)
N2 N 0.4917(2) 0.7145(3) -0.54182(14)
C1 C 0.7570(3) 0.4734(3) -0.50596(14)
C2 C 0.8436(3) 0.4259(3) -0.53410(14)
H9 H 0.9105 0.3972 -0.5005
H10 H 0.8643 0.5038 -0.5543
C3 C 0.8279(2) 0.1857(3) -0.55513(13)
C4 C 0.8322(2) 0.0843(3) -0.59707(13)
H11 H 0.8189 0.1061 -0.6386
C5 C 0.8563(2) -0.0497(3) -0.57634(13)
C6 C 0.8717(2) -0.0847(3) -0.51471(13)
H12 H 0.8867 -0.1749 -0.5010
C7 C 0.8641(2) 0.0173(3) -0.47465(13)
C8 C 0.8427(2) 0.1523(3) -0.49419(13)
H13 H 0.8383 0.2199 -0.4664
C9 C 0.8945(3) -0.1362(3) -0.38865(13)
H14 H 0.8312 -0.1928 -0.4122
H15 H 0.9625 -0.1753 -0.3925
C10 C 0.9034(3) -0.1331(3) -0.32063(14)
C11 C 0.8724(3) -0.1573(3) -0.61992(14)
C12 C 0.7380(3) 1.4047(4) -0.72760(16)
H16 H 0.7877 1.3698 -0.7460
C13 C 0.6481(3) 1.3251(4) -0.72796(16)
H17 H 0.6379 1.2386 -0.7462
C14 C 0.5722(3) 1.3748(4) -0.70082(15)
C15 C 0.5922(3) 1.5040(4) -0.67493(16)
H18 H 0.5434 1.5420 -0.6567
C16 C 0.6842(3) 1.5759(4) -0.67625(15)
H19 H 0.6966 1.6625 -0.6580
C17 C 0.4764(3) 1.2889(4) -0.69675(19)
H20 H 0.4261 1.3455 -0.6831
H21 H 0.4342 1.2528 -0.7376
C18 C 0.5204(4) 1.1695(4) -0.6508(2)
H22 H 0.5787 1.2036 -0.6138
H23 H 0.5543 1.1012 -0.6698
C19 C 0.4333(4) 1.1050(4) -0.6326(2)
H24 H 0.4110 1.1693 -0.6065
H25 H 0.3684 1.0914 -0.6699
C20 C 0.4588(3) 0.9700(4) -0.59856(18)
C21 C 0.3708(3) 0.8938(5) -0.5955(2)
H26 H 0.2977 0.9273 -0.6125
C22 C 0.3893(3) 0.7692(5) -0.5678(2)
H27 H 0.3274 0.7189 -0.5667
C23 C 0.5778(3) 0.7870(4) -0.54507(19)
H28 H 0.6498 0.7501 -0.5283
C24 C 0.5656(3) 0.9146(4) -0.5721(2)
H29 H 0.6285 0.9634 -0.5727
Cd1B Cd 0.08309(2) 1.15261(2) -0.803856(10)
Cd1C Cd 0.91691(2) -0.34739(2) -0.696144(10)
Cd1C_2 Cd 0.91691(2) 1.65261(2) -0.696144(10)
Cd1A Cd 0.08309(2) 1.34739(2) -0.303856(10)
Cd1A_2 Cd 0.08309(2) -0.65261(2) -0.303856(10)
O1B O 0.2042(2) 0.4475(3) -0.54012(11)
O2B O 0.6405(2) 0.5737(3) -0.40777(12)
H1B H 0.697(2) 0.578(5) -0.4194(16)
H2B H 0.666(3) 0.539(4) -0.3728(11)
O3B O 0.34345(18) 0.5604(2) -0.47044(10)
O4B O -0.0986(2) 1.2487(3) -0.83200(13)
H3B H -0.099(3) 1.3310(19) -0.8243(19)
H4B H -0.138(3) 1.213(3) -0.8152(18)
O5B O 0.18997(18) 0.6832(2) -0.42190(9)
O6B O -0.0229(3) 0.9658(3) -0.85047(13)
H5B H -0.067(3) 0.966(4) -0.8869(10)
H6B H -0.042(4) 0.901(4) -0.8333(16)
O7B O 0.12050(19) 1.0015(2) -0.58773(9)
O9B O 0.0901(2) 1.2475(2) -0.70571(10)
O10B O 0.0958(2) 1.0243(2) -0.70698(10)
O11B O 0.08370(19) 1.2695(2) -0.40227(9)
O11C O 0.91630(19) -0.2305(2) -0.09773(9)
O11A O 0.08370(19) 1.2305(2) -0.90227(9)
O12B O 0.1570(2) 1.1327(2) -0.32243(10)
O12C O 0.8430(2) -0.3673(2) -0.17757(10)
O12A O 0.1570(2) 1.3673(2) -0.82243(10)
N1B N 0.2423(2) -0.5293(3) -0.29775(13)
N1C N 0.7577(2) -0.0293(3) -0.20225(13)
N1A N 0.2423(2) 1.0293(3) -0.79775(13)
N2B N 0.5083(2) 0.2855(3) -0.45818(14)
C1B C 0.2430(3) 0.5266(3) -0.49404(14)
C2B C 0.1564(3) 0.5741(3) -0.46590(14)
H9B H 0.0895 0.6028 -0.4995
H10B H 0.1357 0.4962 -0.4457
C3B C 0.1721(2) 0.8143(3) -0.44487(13)
C4B C 0.1678(2) 0.9157(3) -0.40293(13)
H11B H 0.1811 0.8939 -0.3614
C5B C 0.1437(2) 1.0497(3) -0.42366(13)
C6B C 0.1283(2) 1.0847(3) -0.48529(13)
H12B H 0.1133 1.1749 -0.4990
C7B C 0.1359(2) 0.9827(3) -0.52535(13)
C8B C 0.1573(2) 0.8477(3) -0.50581(13)
H13B H 0.1617 0.7801 -0.5336
C9B C 0.1055(3) 1.1362(3) -0.61135(13)
H14B H 0.1688 1.1928 -0.5878
H15B H 0.0375 1.1753 -0.6075
C10B C 0.0966(3) 1.1331(3) -0.67937(14)
C11B C 0.1276(3) 1.1573(3) -0.38008(14)
C12B C 0.2620(3) -0.4047(4) -0.27240(16)
H16B H 0.2123 -0.3698 -0.2540
C13B C 0.3519(3) -0.3251(4) -0.27204(16)
H17B H 0.3621 -0.2386 -0.2538
C14B C 0.4278(3) -0.3748(4) -0.29918(15)
C15B C 0.4078(3) -0.5040(4) -0.32507(16)
H18B H 0.4566 -0.5420 -0.3433
C16B C 0.3158(3) -0.5759(4) -0.32375(15)
H19B H 0.3034 -0.6625 -0.3420
C17B C 0.5236(3) -0.2889(4) -0.30325(19)
H20B H 0.5739 -0.3455 -0.3169
H21B H 0.5658 -0.2528 -0.2624
C18B C 0.4796(4) -0.1695(4) -0.3492(2)
H22B H 0.4213 -0.2036 -0.3862
H23B H 0.4457 -0.1012 -0.3302
C19B C 0.5667(4) -0.1050(4) -0.3674(2)
H24B H 0.5890 -0.1693 -0.3935
H25B H 0.6316 -0.0914 -0.3301
C20B C 0.5412(3) 0.0300(4) -0.40144(18)
C21B C 0.6292(3) 0.1062(5) -0.4045(2)
H26B H 0.7023 0.0727 -0.3875
C22B C 0.6107(3) 0.2308(5) -0.4322(2)
H27B H 0.6726 0.2811 -0.4333
C23B C 0.4222(3) 0.2130(4) -0.45493(19)
H28B H 0.3502 0.2499 -0.4717
C24B C 0.4344(3) 0.0854(4) -0.4279(2)
H29B H 0.3715 0.0366 -0.4273
O8 O 0.2205(3) -0.0344(4) -0.21540(15)
H7 H 0.215(4) 0.001(5) -0.2497(14)
H8 H 0.271(4) -0.088(5) -0.208(2)
loop_
_geom_bond_atom_site_label_1
_geom_bond_atom_site_label_2
_geom_bond_site_symmetry_1
_geom_bond_site_symmetry_2
Cd1 O4 1_555 1_555
Cd2 O2 1_555 1_555
O1 C1 1_555 1_555
O2 H1 1_555 1_555
H2 O2 1_555 1_555
O3 Cd2 1_555 1_555
O4 H3 1_555 1_555
H4 O4 1_555 1_555
O5 C2 1_555 1_555
O6 Cd1 1_555 1_555
H5 O6 1_555 1_555
H6 O6 1_555 1_555
O7 C7 1_555 1_555
O8 H7 1_555 1_555
H8 O8 1_555 1_555
O9 Cd1 1_555 1_555
O10 Cd1 1_555 1_555
O11 C11 1_555 1_555
O12 C11 1_555 1_555
N1 C12 1_555 1_555
N2 Cd2 1_555 1_555
C1 O3 1_555 1_555
C2 C1 1_555 1_555
H9 C2 1_555 1_555
H10 C2 1_555 1_555
C3 O5 1_555 1_555
C4 C3 1_555 1_555
H11 C4 1_555 1_555
C5 C4 1_555 1_555
C6 C5 1_555 1_555
H12 C6 1_555 1_555
C7 C6 1_555 1_555
C8 C3 1_555 1_555
H13 C8 1_555 1_555
C9 O7 1_555 1_555
H14 C9 1_555 1_555
H15 C9 1_555 1_555
C10 O9 1_555 1_555
C11 C5 1_555 1_555
C12 H16 1_555 1_555
C13 C12 1_555 1_555
H17 C13 1_555 1_555
C14 C13 1_555 1_555
C15 C14 1_555 1_555
H18 C15 1_555 1_555
C16 N1 1_555 1_555
H19 C16 1_555 1_555
C17 C14 1_555 1_555
H20 C17 1_555 1_555
H21 C17 1_555 1_555
C18 C17 1_555 1_555
H22 C18 1_555 1_555
H23 C18 1_555 1_555
C19 C18 1_555 1_555
H24 C19 1_555 1_555
H25 C19 1_555 1_555
C20 C19 1_555 1_555
C21 C20 1_555 1_555
H26 C21 1_555 1_555
C22 N2 1_555 1_555
H27 C22 1_555 1_555
C23 N2 1_555 1_555
H28 C23 1_555 1_555
C24 C20 1_555 1_555
H29 C24 1_555 1_555
Cd1B O4B 1_555 1_555
Cd1C O11 1_555 1_555
Cd1C_2 N1 1_555 1_555
Cd1A O11B 1_555 1_555
Cd1A_2 N1B 1_555 1_555
O1B C1B 1_555 1_555
O2B Cd2 1_555 1_555
H1B O2B 1_555 1_555
H2B O2B 1_555 1_555
O3B Cd2 1_555 1_555
O4B H3B 1_555 1_555
H4B O4B 1_555 1_555
O5B C2B 1_555 1_555
O6B Cd1B 1_555 1_555
H5B O6B 1_555 1_555
H6B O6B 1_555 1_555
O7B C7B 1_555 1_555
O9B Cd1B 1_555 1_555
O10B Cd1B 1_555 1_555
O11B C11B 1_555 1_555
O11C Cd1 1_555 1_555
O11A Cd1B 1_555 1_555
O12B Cd1A 1_555 1_555
O12C Cd1 1_555 1_555
O12A Cd1B 1_555 1_555
N1B C12B 1_555 1_555
N1C Cd1 1_555 1_555
N1A Cd1B 1_555 1_555
N2B Cd2 1_555 1_555
C1B O3B 1_555 1_555
C2B C1B 1_555 1_555
H9B C2B 1_555 1_555
H10B C2B 1_555 1_555
C3B O5B 1_555 1_555
C4B C3B 1_555 1_555
H11B C4B 1_555 1_555
C5B C4B 1_555 1_555
C6B C5B 1_555 1_555
H12B C6B 1_555 1_555
C7B C6B 1_555 1_555
C8B C3B 1_555 1_555
H13B C8B 1_555 1_555
C9B O7B 1_555 1_555
H14B C9B 1_555 1_555
H15B C9B 1_555 1_555
C10B O9B 1_555 1_555
C11B O12B 1_555 1_555
C12B H16B 1_555 1_555
C13B C12B 1_555 1_555
H17B C13B 1_555 1_555
C14B C13B 1_555 1_555
C15B C14B 1_555 1_555
H18B C15B 1_555 1_555
C16B N1B 1_555 1_555
H19B C16B 1_555 1_555
C17B C14B 1_555 1_555
H20B C17B 1_555 1_555
H21B C17B 1_555 1_555
C18B C17B 1_555 1_555
H22B C18B 1_555 1_555
H23B C18B 1_555 1_555
C19B C18B 1_555 1_555
H24B C19B 1_555 1_555
H25B C19B 1_555 1_555
C20B C19B 1_555 1_555
C21B C20B 1_555 1_555
H26B C21B 1_555 1_555
C22B N2B 1_555 1_555
H27B C22B 1_555 1_555
C23B N2B 1_555 1_555
H28B C23B 1_555 1_555
C24B C20B 1_555 1_555
H29B C24B 1_555 1_555
O10 C10 1_555 1_555
O12 Cd1C 1_555 1_555
C7 C8 1_555 1_555
C9 C10 1_555 1_555
C15 C16 1_555 1_555
C21 C22 1_555 1_555
C23 C24 1_555 1_555
O10B C10B 1_555 1_555
C5B C11B 1_555 1_555
C7B C8B 1_555 1_555
C9B C10B 1_555 1_555
C15B C16B 1_555 1_555
C21B C22B 1_555 1_555
C23B C24B 1_555 1_555

#END
