
#######################################################################
#
#                 Cambridge Crystallographic Data Centre
#                                CCDC 
#
#######################################################################
#
# If this CIF has been generated from an entry in the Cambridge 
# Structural Database, then it will include bibliographic, chemical, 
# crystal, experimental, refinement or atomic coordinate data resulting 
# from the CCDC's data processing and validation procedures.
#
#######################################################################

data_XAXQIY
_symmetry_cell_setting           monoclinic
_symmetry_space_group_name_H-M   'C 2/c'
_symmetry_Int_Tables_number      15
_space_group_name_Hall           '-C 2yn'
loop_
_symmetry_equiv_pos_site_id
_symmetry_equiv_pos_as_xyz
1 x,y,z
2 -x,y,1/2-z
3 1/2+x,1/2+y,z
4 1/2-x,1/2+y,1/2-z
5 -x,-y,-z
6 x,-y,1/2+z
7 1/2-x,1/2-y,-z
8 1/2+x,1/2-y,1/2+z
_cell_length_a                   15.220(3)
_cell_length_b                   12.910(3)
_cell_length_c                   12.128(2)
_cell_angle_alpha                90
_cell_angle_beta                 95.37(3)
_cell_angle_gamma                90
_cell_volume                     2372.57
loop_
_atom_site_label
_atom_site_type_symbol
_atom_site_fract_x
_atom_site_fract_y
_atom_site_fract_z
O1 O 0.44513(14) 0.25998(19) 0.3707(3)
O2 O 0.3607(2) 0.2282(3) 0.2195(3)
In1 In 0.5000 0.35467(2) 0.2500
O3 O 0.07729(13) -0.07994(17) 0.40053(17)
O4 O 0.10667(14) -0.02246(18) 0.23875(18)
C1 C 0.19406(16) 0.0424(2) 0.3976(2)
C2 C 0.25032(17) 0.0965(2) 0.3345(3)
H1 H 0.2419 0.0938 0.2576
C3 C 0.3196(2) 0.1550(2) 0.3866(3)
C4 C 0.3316(3) 0.1583(3) 0.5016(4)
H2 H 0.3783 0.1958 0.5369
C5 C 0.2739(3) 0.1055(3) 0.5640(3)
H3 H 0.2812 0.1092 0.6409
C6 C 0.2061(2) 0.0480(3) 0.5125(3)
H4 H 0.1680 0.0125 0.5548
C7 C 0.12178(17) -0.0227(2) 0.3423(2)
C8 C 0.3780(2) 0.2167(3) 0.3189(4)
O1B O 0.94513(14) 0.75998(19) 0.3707(3)
O1A O 0.55487(14) 0.25998(19) 0.1293(3)
O2B O 0.8607(2) 0.7282(3) 0.2195(3)
In1B In 0.0000 -0.14533(2) 0.2500
In1B_2 In 1.0000 0.85467(2) 0.2500
O3B O 0.57729(13) 0.42006(17) 0.40053(17)
O3C O 0.42271(13) 0.42006(17) 0.09947(17)
O4B O 0.60667(14) 0.47754(18) 0.23875(18)
O4C O 0.39333(14) 0.47754(18) 0.26125(18)
C1B C 0.69406(16) 0.5424(2) 0.3976(2)
C2B C 0.75032(17) 0.5965(2) 0.3345(3)
H1B H 0.7419 0.5938 0.2576
C3B C 0.8196(2) 0.6550(2) 0.3866(3)
C4B C 0.8316(3) 0.6583(3) 0.5016(4)
H2B H 0.8783 0.6958 0.5369
C5B C 0.7739(3) 0.6055(3) 0.5640(3)
H3B H 0.7812 0.6092 0.6409
C6B C 0.7061(2) 0.5480(3) 0.5125(3)
H4B H 0.6680 0.5125 0.5548
C7B C 0.62178(17) 0.4773(2) 0.3423(2)
C8B C 0.8780(2) 0.7167(3) 0.3189(4)
loop_
_geom_bond_atom_site_label_1
_geom_bond_atom_site_label_2
_geom_bond_site_symmetry_1
_geom_bond_site_symmetry_2
O1 In1 1_555 1_555
O2 C8 1_555 1_555
In1 O1A 1_555 1_555
O3 C7 1_555 1_555
O4 C7 1_555 1_555
C1 C2 1_555 1_555
C2 H1 1_555 1_555
C3 C2 1_555 1_555
C4 C3 1_555 1_555
H2 C4 1_555 1_555
C5 C4 1_555 1_555
H3 C5 1_555 1_555
C6 C1 1_555 1_555
H4 C6 1_555 1_555
C7 C1 1_555 1_555
C8 O1 1_555 1_555
O1B In1B_2 1_555 1_555
O2B C8B 1_555 1_555
In1B O3 1_555 1_555
O3B In1 1_555 1_555
O3C In1 1_555 1_555
O4B In1 1_555 1_555
O4C In1 1_555 1_555
C1B C2B 1_555 1_555
C2B H1B 1_555 1_555
C3B C2B 1_555 1_555
C4B C3B 1_555 1_555
H2B C4B 1_555 1_555
C5B C4B 1_555 1_555
H3B C5B 1_555 1_555
C6B C1B 1_555 1_555
H4B C6B 1_555 1_555
C7B O3B 1_555 1_555
C8B O1B 1_555 1_555
O4 In1B 1_555 1_555
C3 C8 1_555 1_555
C5 C6 1_555 1_555
O4B C7B 1_555 1_555
C1B C7B 1_555 1_555
C3B C8B 1_555 1_555
C5B C6B 1_555 1_555

#END
