
#######################################################################
#
#                 Cambridge Crystallographic Data Centre
#                                CCDC 
#
#######################################################################
#
# If this CIF has been generated from an entry in the Cambridge 
# Structural Database, then it will include bibliographic, chemical, 
# crystal, experimental, refinement or atomic coordinate data resulting 
# from the CCDC's data processing and validation procedures.
#
#######################################################################

data_XAXQAQ
_symmetry_cell_setting           monoclinic
_symmetry_space_group_name_H-M   'C 2/c'
_symmetry_Int_Tables_number      15
_space_group_name_Hall           '-C 2yn'
loop_
_symmetry_equiv_pos_site_id
_symmetry_equiv_pos_as_xyz
1 x,y,z
2 -x,y,1/2-z
3 1/2+x,1/2+y,z
4 1/2-x,1/2+y,1/2-z
5 -x,-y,-z
6 x,-y,1/2+z
7 1/2-x,1/2-y,-z
8 1/2+x,1/2-y,1/2+z
_cell_length_a                   21.372(7)
_cell_length_b                   7.8278(16)
_cell_length_c                   16.441(3)
_cell_angle_alpha                90
_cell_angle_beta                 126.443(19)
_cell_angle_gamma                90
_cell_volume                     2212.64
loop_
_atom_site_label
_atom_site_type_symbol
_atom_site_fract_x
_atom_site_fract_y
_atom_site_fract_z
C11 C 0.2261(3) 0.1684(5) 0.5403(4)
H9 H 0.2608 0.1088 0.6040
H10 H 0.1711 0.1578 0.5103
N1 N 0.2485(3) 0.1826(6) 0.4744(5)
C11F C 0.2739(3) 0.3316(5) 0.4597(4)
H9F H 0.2392 0.3912 0.3960
H10F H 0.3289 0.3422 0.4897
N1F N 0.2515(3) 0.3174(6) 0.5256(5)
In1 In 0.0000 0.67476(4) -0.2500
O1 O 0.02298(13) 0.4744(3) -0.33162(19)
O2 O -0.09668(14) 0.5389(3) -0.39333(19)
O3 O -0.40124(17) 0.6726(3) -0.7212(2)
O4 O -0.51009(17) 0.6201(4) -0.8663(3)
C1 C -0.04841(18) 0.4568(4) -0.3989(2)
C2 C -0.0764(2) 0.3360(4) -0.4864(3)
H1 H -0.0439 0.3505 -0.5091
H2 H -0.0701 0.2194 -0.4627
C3 C -0.16026(19) 0.3637(4) -0.5749(2)
C4 C -0.1807(2) 0.4688(5) -0.6549(3)
H3 H -0.1420 0.5214 -0.6556
C5 C -0.2580(2) 0.4967(5) -0.7339(3)
H4 H -0.2702 0.5696 -0.7861
C6 C -0.31739(19) 0.4191(4) -0.7373(2)
C7 C -0.2971(2) 0.3113(4) -0.6577(3)
H5 H -0.3359 0.2560 -0.6583
C8 C -0.2198(2) 0.2851(4) -0.5777(3)
H6 H -0.2075 0.2137 -0.5248
C9 C -0.4016(2) 0.4517(5) -0.8232(3)
H7 H -0.4049 0.4827 -0.8828
H8 H -0.4304 0.3464 -0.8382
C10 C -0.4400(2) 0.5897(4) -0.8032(3)
In1F In -0.5000 0.82524(4) -0.7500
In1F_2 In 0.5000 0.82524(4) 0.2500
O1A O -0.02298(13) 0.4744(3) -0.16838(19)
O2A O 0.09668(14) 0.5389(3) -0.10667(19)
O3A O 0.40124(17) 0.6726(3) 0.2212(2)
O3F O -0.09876(17) 0.8274(3) -0.2788(2)
O3G O 0.09876(17) 0.8274(3) -0.2212(2)
O4A O 0.51009(17) 0.6201(4) 0.3663(3)
O4F O 0.01009(17) 0.8799(4) -0.1337(3)
O4G O -0.01009(17) 0.8799(4) -0.3663(3)
C1A C 0.04841(18) 0.4568(4) -0.1011(2)
C2A C 0.0764(2) 0.3360(4) -0.0136(3)
H1A H 0.0439 0.3505 0.0091
H2A H 0.0701 0.2194 -0.0373
C3A C 0.16026(19) 0.3637(4) 0.0749(2)
C4A C 0.1807(2) 0.4688(5) 0.1549(3)
H3A H 0.1420 0.5214 0.1556
C5A C 0.2580(2) 0.4967(5) 0.2339(3)
H4A H 0.2702 0.5696 0.2861
C6A C 0.31739(19) 0.4191(4) 0.2373(2)
C7A C 0.2971(2) 0.3113(4) 0.1577(3)
H5A H 0.3359 0.2560 0.1583
C8A C 0.2198(2) 0.2851(4) 0.0777(3)
H6A H 0.2075 0.2137 0.0248
C9A C 0.4016(2) 0.4517(5) 0.3232(3)
H7A H 0.4049 0.4827 0.3828
H8A H 0.4304 0.3464 0.3382
C10A C 0.4400(2) 0.5897(4) 0.3032(3)
loop_
_geom_bond_atom_site_label_1
_geom_bond_atom_site_label_2
_geom_bond_site_symmetry_1
_geom_bond_site_symmetry_2
In1 O1 1_555 1_555
O1 C1 1_555 1_555
O2 In1 1_555 1_555
O3 C10 1_555 1_555
O4 C10 1_555 1_555
C1 O2 1_555 1_555
C2 C1 1_555 1_555
H1 C2 1_555 1_555
H2 C2 1_555 1_555
C3 C2 1_555 1_555
C4 C3 1_555 1_555
H3 C4 1_555 1_555
C5 C4 1_555 1_555
H4 C5 1_555 1_555
C6 C5 1_555 1_555
C7 C6 1_555 1_555
H5 C7 1_555 1_555
C8 C3 1_555 1_555
H6 C8 1_555 1_555
C9 C6 1_555 1_555
H7 C9 1_555 1_555
H8 C9 1_555 1_555
C10 C9 1_555 1_555
C11 H9 1_555 1_555
H10 C11 1_555 1_555
N1 C11 1_555 1_555
In1F O3 1_555 1_555
In1F_2 O3A 1_555 1_555
O1A In1 1_555 1_555
O2A In1 1_555 1_555
O3A C10A 1_555 1_555
O3F In1 1_555 1_555
O3G In1 1_555 1_555
O4A In1F_2 1_555 1_555
O4F In1 1_555 1_555
O4G In1 1_555 1_555
C1A O1A 1_555 1_555
C2A C1A 1_555 1_555
H1A C2A 1_555 1_555
H2A C2A 1_555 1_555
C3A C2A 1_555 1_555
C4A C3A 1_555 1_555
H3A C4A 1_555 1_555
C5A C4A 1_555 1_555
H4A C5A 1_555 1_555
C6A C5A 1_555 1_555
C7A C6A 1_555 1_555
H5A C7A 1_555 1_555
C8A C3A 1_555 1_555
H6A C8A 1_555 1_555
C9A C6A 1_555 1_555
H7A C9A 1_555 1_555
H8A C9A 1_555 1_555
C10A O4A 1_555 1_555
C11F N1 1_555 1_555
H9F C11F 1_555 1_555
H10F C11F 1_555 1_555
N1F C11 1_555 1_555
O4 In1F 1_555 1_555
C7 C8 1_555 1_555
N1 N1F 1_555 1_555
O2A C1A 1_555 1_555
C7A C8A 1_555 1_555
C9A C10A 1_555 1_555
C11F N1F 1_555 1_555

#END
