
#######################################################################
#
#                 Cambridge Crystallographic Data Centre
#                                CCDC 
#
#######################################################################
#
# If this CIF has been generated from an entry in the Cambridge 
# Structural Database, then it will include bibliographic, chemical, 
# crystal, experimental, refinement or atomic coordinate data resulting 
# from the CCDC's data processing and validation procedures.
#
#######################################################################

data_XAXSIA
_symmetry_cell_setting           triclinic
_symmetry_space_group_name_H-M   'P -1'
_symmetry_Int_Tables_number      2
_space_group_name_Hall           '-P 1'
loop_
_symmetry_equiv_pos_site_id
_symmetry_equiv_pos_as_xyz
1 x,y,z
2 -x,-y,-z
_cell_length_a                   9.601(2)
_cell_length_b                   10.380(2)
_cell_length_c                   14.231(7)
_cell_angle_alpha                70.191(4)
_cell_angle_beta                 73.936(5)
_cell_angle_gamma                86.331(4)
_cell_volume                     1281.52
loop_
_atom_site_label
_atom_site_type_symbol
_atom_site_fract_x
_atom_site_fract_y
_atom_site_fract_z
C1 C 0.2629(5) 0.9725(5) 0.3205(3)
C2 C 0.1778(5) 0.9522(4) 0.4250(3)
H1 H 0.1390 0.8586 0.4556
H2 H 0.0962 1.0122 0.4227
C3 C 0.2546(5) 0.9770(4) 0.4928(3)
C4 C 0.4043(4) 0.6307(5) 0.4165(3)
C5 C 0.4388(5) 0.6505(5) 0.3081(3)
H3 H 0.3691 0.7117 0.2792
H4 H 0.4266 0.5631 0.3001
O1 O 0.6604(3) 0.7775(3) 0.2736(2)
C6 C 0.5830(5) 0.7057(5) 0.2476(4)
C7 C 1.0465(5) 1.3024(4) 0.1104(3)
C8 C 0.9322(5) 1.2020(4) 0.1702(3)
H5 H 0.9433 1.1669 0.2401
H6 H 0.8423 1.2508 0.1742
C9 C 0.9108(5) 1.0859(5) 0.1432(4)
N1 N 0.4153(4) 0.9720(4) 0.2809(3)
N2 N 0.4474(4) 1.0000(4) 0.1741(3)
N3 N 0.3128(4) 1.0157(4) 0.1479(3)
N4 N 0.1993(4) 1.0001(4) 0.2397(3)
N5 N 0.4327(4) 0.7363(4) 0.4584(3)
N6 N 0.3814(4) 0.6752(4) 0.5645(3)
N7 N 0.3012(4) 0.5549(4) 0.5901(3)
N8 N 0.3167(4) 0.5251(4) 0.4975(3)
N9 N 1.1271(4) 1.3234(4) 0.0078(3)
N10 N 1.2090(4) 1.4441(4) -0.0300(3)
N11 N 1.1755(4) 1.5018(4) 0.0507(3)
N12 N 1.0743(4) 1.4113(4) 0.1392(3)
Nd1 Nd 0.61696(3) 0.93424(3) 0.37323(2)
Nd2 Nd 0.87721(3) 0.81385(3) 0.11487(2)
O2 O 0.3840(3) 0.9982(3) 0.4717(2)
O3 O 0.1723(3) 0.9772(3) 0.5768(2)
O4 O 0.6305(3) 0.6984(3) 0.1586(2)
O5 O 0.8046(3) 1.0095(3) 0.1976(2)
O6 O 0.9978(3) 1.0482(3) 0.0771(2)
O7 O 0.5960(3) 1.1816(3) 0.3146(2)
H7 H 0.6566 1.2178 0.3326
H8 H 0.6133 1.2118 0.2488
O8 O 0.7421(3) 0.7423(3) 0.4756(2)
H9 H 0.6805 0.6930 0.5295
H10 H 0.7822 0.6940 0.4384
O9 O 0.7118(3) 0.9896(3) 0.0364(2)
H11 H 0.6626 0.9547 0.0092
H12 H 0.6547 1.0163 0.0831
O10 O 1.1325(3) 0.7492(3) 0.0659(2)
H13 H 1.1358 0.6725 0.0562
H14 H 1.1786 0.8100 0.0105
O11 O 0.9934(3) 0.7966(3) 0.2561(2)
H15 H 1.0709 0.8461 0.2305
H16 H 0.9354 0.8243 0.3019
O12 O 0.8825(3) 0.5696(3) 0.2241(2)
H17 H 0.8695 0.5181 0.1916
H18 H 0.9642 0.5539 0.2375
N9A N 0.8729(4) 0.6766(4) -0.0078(3)
Nd1A Nd 0.38304(3) 1.06576(3) 0.62677(2)
Nd2A Nd 1.12279(3) 1.18615(3) -0.11487(2)
O2A O 0.6160(3) 1.0018(3) 0.5283(2)
O3A O 0.8277(3) 1.0228(3) 0.4232(2)
O6A O 1.0022(3) 0.9518(3) -0.0771(2)
O13 O 0.4601(6) 0.7877(6) 0.0489(4)
H19 H 0.4252 0.8206 0.0974
H20 H 0.3913 0.7594 0.0332
O14 O 0.2311(11) 0.6134(10) 0.1764(8)
H21 H 0.3020 0.6676 0.1363
H22 H 0.2449 0.5782 0.2363
O15 O 0.0104(8) 0.6099(7) 0.4348(6)
H23 H 0.0627 0.6116 0.3754
H24 H 0.0634 0.5971 0.4759
O16 O 0.7418(11) 0.6800(9) 0.6759(7)
H25 H 0.7097 0.6802 0.7378
H26 H 0.7966 0.6125 0.6749
O17 O 0.3805(8) 0.6784(7) 0.9026(5)
H27 H 0.4555 0.6592 0.9248
H28 H 0.3557 0.6106 0.8894
loop_
_geom_bond_atom_site_label_1
_geom_bond_atom_site_label_2
_geom_bond_site_symmetry_1
_geom_bond_site_symmetry_2
C1 C2 1_555 1_555
C2 H1 1_555 1_555
H2 C2 1_555 1_555
C3 C2 1_555 1_555
C4 C5 1_555 1_555
C5 H3 1_555 1_555
H4 C5 1_555 1_555
O1 C6 1_555 1_555
C6 C5 1_555 1_555
C7 C8 1_555 1_555
C8 H5 1_555 1_555
H6 C8 1_555 1_555
C9 C8 1_555 1_555
N1 C1 1_555 1_555
N2 N1 1_555 1_555
N3 N2 1_555 1_555
N4 C1 1_555 1_555
N5 C4 1_555 1_555
N6 N5 1_555 1_555
N7 N6 1_555 1_555
N8 C4 1_555 1_555
N9 C7 1_555 1_555
N10 N9 1_555 1_555
N11 N10 1_555 1_555
N12 C7 1_555 1_555
Nd1 O1 1_555 1_555
Nd2 O1 1_555 1_555
O2 C3 1_555 1_555
O3 C3 1_555 1_555
O4 C6 1_555 1_555
O5 C9 1_555 1_555
O6 C9 1_555 1_555
O7 Nd1 1_555 1_555
H7 O7 1_555 1_555
H8 O7 1_555 1_555
O8 Nd1 1_555 1_555
H9 O8 1_555 1_555
H10 O8 1_555 1_555
O9 Nd2 1_555 1_555
H11 O9 1_555 1_555
H12 O9 1_555 1_555
O10 Nd2 1_555 1_555
H13 O10 1_555 1_555
H14 O10 1_555 1_555
O11 Nd2 1_555 1_555
H15 O11 1_555 1_555
H16 O11 1_555 1_555
O12 Nd2 1_555 1_555
H17 O12 1_555 1_555
H18 O12 1_555 1_555
O13 H19 1_555 1_555
H20 O13 1_555 1_555
O14 H21 1_555 1_555
H22 O14 1_555 1_555
O15 H23 1_555 1_555
H24 O15 1_555 1_555
O16 H25 1_555 1_555
H26 O16 1_555 1_555
O17 H27 1_555 1_555
H28 O17 1_555 1_555
N9A Nd2 1_555 1_555
Nd1A O2 1_555 1_555
Nd2A N9 1_555 1_555
O2A Nd1 1_555 1_555
O3A Nd1 1_555 1_555
O6A Nd2 1_555 1_555
N1 Nd1 1_555 1_555
N3 N4 1_555 1_555
N5 Nd1 1_555 1_555
N7 N8 1_555 1_555
N11 N12 1_555 1_555
Nd1 O2 1_555 1_555
Nd1 O5 1_555 1_555
Nd2 O4 1_555 1_555
Nd2 O5 1_555 1_555
Nd2 O6 1_555 1_555
O3 Nd1A 1_555 1_555
O6 Nd2A 1_555 1_555
Nd1A O2A 1_555 1_555
Nd2A O6A 1_555 1_555

#END
