
#######################################################################
#
#                 Cambridge Crystallographic Data Centre
#                                CCDC 
#
#######################################################################
#
# If this CIF has been generated from an entry in the Cambridge 
# Structural Database, then it will include bibliographic, chemical, 
# crystal, experimental, refinement or atomic coordinate data resulting 
# from the CCDC's data processing and validation procedures.
#
#######################################################################

data_XAXSOG
_symmetry_cell_setting           triclinic
_symmetry_space_group_name_H-M   'P -1'
_symmetry_Int_Tables_number      2
_space_group_name_Hall           '-P 1'
loop_
_symmetry_equiv_pos_site_id
_symmetry_equiv_pos_as_xyz
1 x,y,z
2 -x,-y,-z
_cell_length_a                   10.387(2)
_cell_length_b                   12.726(3)
_cell_length_c                   14.278(3)
_cell_angle_alpha                107.54(3)
_cell_angle_beta                 106.85(3)
_cell_angle_gamma                98.82(3)
_cell_volume                     1661.34
loop_
_atom_site_label
_atom_site_type_symbol
_atom_site_fract_x
_atom_site_fract_y
_atom_site_fract_z
C1 C 0.5311(5) 0.5563(4) 0.1427(4)
C2 C 0.6817(5) 0.5879(4) 0.2092(4)
H1 H 0.7335 0.6351 0.1832
H2 H 0.6928 0.6347 0.2801
C3 C 0.7470(5) 0.4931(4) 0.2150(4)
C4 C 0.4950(6) 0.5575(4) 0.3997(4)
C5 C 0.3476(5) 0.5613(5) 0.3478(4)
H3 H 0.3167 0.6048 0.4017
H4 H 0.3480 0.6019 0.3003
C6 C 0.2434(5) 0.4461(4) 0.2872(4)
C7 C 0.5224(6) 0.0394(4) 0.1370(4)
C8 C 0.3787(5) -0.0095(5) 0.1327(4)
H5 H 0.3502 -0.0891 0.0864
H6 H 0.3882 -0.0090 0.2024
C9 C 0.2633(5) 0.0378(4) 0.1005(4)
Dy1 Dy 0.45837(2) 0.307350(19) 0.191640(17)
Dy2 Dy 0.90510(2) 0.328330(19) 0.225930(17)
N1 N 0.4284(4) 0.4698(4) 0.1337(3)
N2 N 0.3070(4) 0.4742(4) 0.0653(3)
N3 N 0.3354(5) 0.5652(4) 0.0403(3)
N4 N 0.4720(5) 0.6137(4) 0.0800(3)
N5 N 0.5640(5) 0.4859(4) 0.3538(3)
N6 N 0.6878(5) 0.5149(4) 0.4216(3)
N7 N 0.7030(5) 0.6036(4) 0.5067(3)
N8 N 0.5809(5) 0.6292(4) 0.4911(3)
N9 N 0.5792(4) 0.1514(3) 0.1690(3)
N10 N 0.7045(4) 0.1554(4) 0.1629(3)
N11 N 0.7279(4) 0.0571(4) 0.1362(3)
N12 N 0.6033(5) -0.0216(4) 0.1120(4)
O1 O 0.6755(3) 0.3916(3) 0.1894(3)
O2 O 0.8773(3) 0.5182(3) 0.2468(2)
O3 O 0.2763(3) 0.3598(3) 0.2413(3)
O4 O 0.1213(4) 0.4483(3) 0.2781(3)
O5 O 0.2869(4) 0.1401(3) 0.1125(3)
O6 O 0.1395(4) -0.0277(3) 0.0610(3)
O7 O 0.4818(4) 0.2489(3) 0.3363(3)
H7 H 0.4412 0.2881 0.3720
H8 H 0.5683 0.2727 0.3734
O8 O 0.4148(4) 0.2427(3) 0.0077(2)
H9 H 0.3751 0.1715 -0.0202
H10 H 0.3622 0.2785 -0.0202
O9 O 0.8696(4) 0.3875(3) 0.3872(2)
H11 H 0.8874 0.4600 0.4100
H12 H 0.7835 0.3620 0.3750
O10 O 1.0425(4) 0.2521(3) 0.3401(2)
H13 H 1.1239 0.2672 0.3379
H14 H 1.0490 0.2918 0.4018
O11 O 0.9938(3) 0.1912(3) 0.1280(3)
H15 H 1.0485 0.2237 0.1050
H16 H 0.9267 0.1401 0.0767
O12 O 0.8458(4) 0.3253(3) 0.0550(2)
H17 H 0.8797 0.3911 0.0562
H18 H 0.7576 0.3070 0.0258
Dy2_2 Dy -0.09490(2) 0.328330(19) 0.225930(17)
O4_2 O 1.1213(4) 0.4483(3) 0.2781(3)
O13 O 0.0829(13) 0.7007(10) 0.1665(9)
H19 H 0.0131 0.6604 0.1112
H20 H 0.0670 0.6942 0.2199
O14 O 0.3049(11) 0.9956(9) 0.4112(8)
H21 H 0.2770 1.0182 0.4624
H22 H 0.2350 0.9590 0.3549
O15 O 0.5617(13) 0.8893(10) 0.3879(10)
H23 H 0.5687 0.9531 0.4333
H24 H 0.6072 0.9001 0.3493
O16 O 0.7140(8) 0.2405(6) 0.5010(5)
H25 H 0.6425 0.1844 0.4772
H26 H 0.7836 0.2122 0.5072
O17 O 0.0965(12) 0.1725(10) 0.5639(9)
H27 H 0.1195 0.2400 0.5649
H28 H 0.0479 0.1275 0.5013
O18 O 0.1279(13) 0.1438(10) 0.7390(9)
H29 H 0.1010 0.0730 0.7270
H30 H 0.2137 0.1691 0.7777
loop_
_geom_bond_atom_site_label_1
_geom_bond_atom_site_label_2
_geom_bond_site_symmetry_1
_geom_bond_site_symmetry_2
C1 C2 1_555 1_555
C2 H1 1_555 1_555
H2 C2 1_555 1_555
C3 C2 1_555 1_555
C4 C5 1_555 1_555
C5 H3 1_555 1_555
H4 C5 1_555 1_555
C6 C5 1_555 1_555
C7 C8 1_555 1_555
C8 H5 1_555 1_555
H6 C8 1_555 1_555
C9 C8 1_555 1_555
Dy1 N1 1_555 1_555
Dy2 N10 1_555 1_555
N1 C1 1_555 1_555
N2 N1 1_555 1_555
N3 N2 1_555 1_555
N4 C1 1_555 1_555
N5 C4 1_555 1_555
N6 N5 1_555 1_555
N7 N6 1_555 1_555
N8 C4 1_555 1_555
N9 C7 1_555 1_555
N10 N9 1_555 1_555
N11 N10 1_555 1_555
N12 C7 1_555 1_555
O1 C3 1_555 1_555
O2 C3 1_555 1_555
O3 C6 1_555 1_555
O4 C6 1_555 1_555
O5 C9 1_555 1_555
O6 C9 1_555 1_555
O7 Dy1 1_555 1_555
H7 O7 1_555 1_555
H8 O7 1_555 1_555
O8 Dy1 1_555 1_555
H9 O8 1_555 1_555
H10 O8 1_555 1_555
O9 Dy2 1_555 1_555
H11 O9 1_555 1_555
H12 O9 1_555 1_555
O10 Dy2 1_555 1_555
H13 O10 1_555 1_555
H14 O10 1_555 1_555
O11 Dy2 1_555 1_555
H15 O11 1_555 1_555
H16 O11 1_555 1_555
O12 Dy2 1_555 1_555
H17 O12 1_555 1_555
H18 O12 1_555 1_555
O13 H19 1_555 1_555
H20 O13 1_555 1_555
O14 H21 1_555 1_555
H22 O14 1_555 1_555
O15 H23 1_555 1_555
H24 O15 1_555 1_555
O16 H25 1_555 1_555
H26 O16 1_555 1_555
O17 H27 1_555 1_555
H28 O17 1_555 1_555
O18 H29 1_555 1_555
H30 O18 1_555 1_555
Dy2_2 O4 1_555 1_555
O4_2 Dy2 1_555 1_555
Dy1 N5 1_555 1_555
Dy1 N9 1_555 1_555
Dy1 O1 1_555 1_555
Dy1 O3 1_555 1_555
Dy1 O5 1_555 1_555
Dy2 O1 1_555 1_555
Dy2 O2 1_555 1_555
N3 N4 1_555 1_555
N7 N8 1_555 1_555
N11 N12 1_555 1_555

#END
