
#######################################################################
#
#                 Cambridge Crystallographic Data Centre
#                                CCDC 
#
#######################################################################
#
# If this CIF has been generated from an entry in the Cambridge 
# Structural Database, then it will include bibliographic, chemical, 
# crystal, experimental, refinement or atomic coordinate data resulting 
# from the CCDC's data processing and validation procedures.
#
#######################################################################

data_XAXVAU03
_symmetry_cell_setting           orthorhombic
_symmetry_space_group_name_H-M   'P c c n'
_symmetry_Int_Tables_number      56
_space_group_name_Hall           '-P 2ab 2ac'
loop_
_symmetry_equiv_pos_site_id
_symmetry_equiv_pos_as_xyz
1 x,y,z
2 1/2-x,1/2-y,z
3 1/2+x,-y,1/2-z
4 -x,1/2+y,1/2-z
5 -x,-y,-z
6 1/2+x,1/2+y,-z
7 1/2-x,y,1/2+z
8 x,1/2-y,1/2+z
_cell_length_a                   14.895(3)
_cell_length_b                   8.106(3)
_cell_length_c                   13.285(3)
_cell_angle_alpha                90
_cell_angle_beta                 90
_cell_angle_gamma                90
_cell_volume                     1604.02
loop_
_atom_site_label
_atom_site_type_symbol
_atom_site_fract_x
_atom_site_fract_y
_atom_site_fract_z
Ag1 Ag 0.29509(17) 0.0881(4) 1.3042(2)
C1 C 0.38886(16) 0.0845(3) 1.18864(18)
N1 N 0.43592(11) 0.0670(3) 1.11982(12)
Fe1 Fe 0.5000 0.0000 1.0000
N2 N 0.54892(13) 0.2265(2) 0.97754(14)
N3 N 0.39526(10) 0.0526(3) 0.92123(13)
C2 C 0.58671(16) 0.3118(4) 1.05253(18)
C3 C 0.54938(17) 0.2976(4) 0.88628(18)
C4 C 0.32911(16) 0.0733(4) 0.87685(18)
N4 N 0.62570(14) 0.4583(3) 1.04394(15)
H1 H 0.5857(5) 0.2556(8) 1.1264(4)
C5 C 0.58924(18) 0.4495(4) 0.87013(19)
H2 H 0.5169(5) 0.2308(8) 0.8255(4)
C6 C 0.6287(2) 0.5259(4) 0.9526(2)
H3 H 0.5904(5) 0.5047(9) 0.7960(5)
H4 H 0.6612(5) 0.6447(11) 0.9459(5)
N2D N 0.45108(13) -0.2265(2) 1.02246(14)
N1D N 0.56408(11) -0.0670(3) 0.88018(12)
N3D N 0.60474(10) -0.0526(3) 1.07877(13)
C2D C 0.41329(16) -0.3118(4) 0.94747(18)
C3D C 0.45062(17) -0.2976(4) 1.11372(18)
C1D C 0.61114(16) -0.0845(3) 0.81136(18)
C4D C 0.67089(16) -0.0733(4) 1.12315(18)
Ag1F Ag 0.20491(17) 0.0881(4) 0.8042(2)
N4D N 0.37430(14) -0.4583(3) 0.95606(15)
H1D H 0.4143(5) -0.2556(8) 0.8736(4)
C5D C 0.41076(18) -0.4495(4) 1.12987(19)
H2D H 0.4831(5) -0.2308(8) 1.1745(4)
Ag1D Ag 0.70491(17) -0.0881(4) 0.6958(2)
Ag1B Ag 0.79509(17) -0.0881(4) 1.1958(2)
Ag1C Ag 0.70491(17) 0.5881(4) 1.1958(2)
C6D C 0.3713(2) -0.5259(4) 1.0474(2)
Ag1G Ag 0.29509(17) -0.5881(4) 0.8042(2)
H3D H 0.4096(5) -0.5047(9) 1.2040(5)
C1C C 0.61114(16) 0.5845(3) 1.31136(18)
C4E C 0.82911(16) 0.5733(4) 1.12315(18)
H4D H 0.3388(5) -0.6447(11) 1.0541(5)
C1G C 0.38886(16) -0.5845(3) 0.68864(18)
C4A C 0.17089(16) -0.5733(4) 0.87685(18)
loop_
_geom_bond_atom_site_label_1
_geom_bond_atom_site_label_2
_geom_bond_site_symmetry_1
_geom_bond_site_symmetry_2
Ag1 C1 1_555 1_555
C1 N1 1_555 1_555
N1 Fe1 1_555 1_555
Fe1 N2 1_555 1_555
N2 C2 1_555 1_555
N3 Fe1 1_555 1_555
C2 N4 1_555 1_555
C3 N2 1_555 1_555
C4 N3 1_555 1_555
N4 C6 1_555 1_555
H1 C2 1_555 1_555
C5 C3 1_555 1_555
H2 C3 1_555 1_555
C6 C5 1_555 1_555
H3 C5 1_555 1_555
H4 C6 1_555 1_555
N2D Fe1 1_555 1_555
N1D Fe1 1_555 1_555
N3D Fe1 1_555 1_555
C2D N2D 1_555 1_555
C3D N2D 1_555 1_555
C1D N1D 1_555 1_555
C4D N3D 1_555 1_555
Ag1F C4 1_555 1_555
N4D C2D 1_555 1_555
H1D C2D 1_555 1_555
C5D C3D 1_555 1_555
H2D C3D 1_555 1_555
Ag1D C1D 1_555 1_555
Ag1B C4D 1_555 1_555
Ag1C N4 1_555 1_555
C6D N4D 1_555 1_555
Ag1G N4D 1_555 1_555
H3D C5D 1_555 1_555
C1C Ag1C 1_555 1_555
C4E Ag1C 1_555 1_555
H4D C6D 1_555 1_555
C1G Ag1G 1_555 1_555
C4A Ag1G 1_555 1_555
C5D C6D 1_555 1_555

#END
