
#######################################################################
#
#                 Cambridge Crystallographic Data Centre
#                                CCDC 
#
#######################################################################
#
# If this CIF has been generated from an entry in the Cambridge 
# Structural Database, then it will include bibliographic, chemical, 
# crystal, experimental, refinement or atomic coordinate data resulting 
# from the CCDC's data processing and validation procedures.
#
#######################################################################

data_XAXVAU14
_symmetry_cell_setting           orthorhombic
_symmetry_space_group_name_H-M   'P c c n'
_symmetry_Int_Tables_number      56
_space_group_name_Hall           '-P 2ab 2ac'
loop_
_symmetry_equiv_pos_site_id
_symmetry_equiv_pos_as_xyz
1 x,y,z
2 1/2-x,1/2-y,z
3 1/2+x,-y,1/2-z
4 -x,1/2+y,1/2-z
5 -x,-y,-z
6 1/2+x,1/2+y,-z
7 1/2-x,y,1/2+z
8 x,1/2-y,1/2+z
_cell_length_a                   15.782(3)
_cell_length_b                   8.242(3)
_cell_length_c                   13.320(3)
_cell_angle_alpha                90
_cell_angle_beta                 90
_cell_angle_gamma                90
_cell_volume                     1732.6
loop_
_atom_site_label
_atom_site_type_symbol
_atom_site_fract_x
_atom_site_fract_y
_atom_site_fract_z
Ag1 Ag 0.2901(8) 0.0861(18) 1.3047(9)
C1 C 0.3858(7) 0.0805(16) 1.1963(8)
N1 N 0.4362(5) 0.0694(13) 1.1344(6)
Fe1 Fe 0.5000 0.0000 1.0000
N2 N 0.5523(6) 0.2463(10) 0.9759(7)
N3 N 0.3902(6) 0.0605(13) 0.9146(6)
C2 C 0.5949(7) 0.3248(16) 1.0484(8)
C3 C 0.5492(8) 0.3209(19) 0.8862(10)
C4 C 0.3269(8) 0.0766(17) 0.8740(8)
N4 N 0.6307(6) 0.4686(12) 1.0403(7)
H1 H 0.5933(19) 0.263(4) 1.122(2)
C5 C 0.5866(9) 0.4672(18) 0.8697(10)
H2 H 0.514(2) 0.255(3) 0.829(2)
C6 C 0.6283(10) 0.537(2) 0.9494(11)
H3 H 0.589(2) 0.525(5) 0.794(3)
H4 H 0.661(3) 0.655(5) 0.944(2)
N2D N 0.4477(6) -0.2463(10) 1.0241(7)
N1D N 0.5638(5) -0.0694(13) 0.8656(6)
N3D N 0.6098(6) -0.0605(13) 1.0854(6)
C2D C 0.4051(7) -0.3248(16) 0.9516(8)
C3D C 0.4508(8) -0.3209(19) 1.1138(10)
C1D C 0.6142(7) -0.0805(16) 0.8037(8)
C4D C 0.6731(8) -0.0766(17) 1.1260(8)
Ag1F Ag 0.2099(8) 0.0861(18) 0.8047(9)
N4D N 0.3693(6) -0.4686(12) 0.9597(7)
H1D H 0.4067(19) -0.263(4) 0.878(2)
C5D C 0.4134(9) -0.4672(18) 1.1303(10)
H2D H 0.486(2) -0.255(3) 1.171(2)
Ag1D Ag 0.7099(8) -0.0861(18) 0.6953(9)
Ag1B Ag 0.7901(8) -0.0861(18) 1.1953(9)
Ag1C Ag 0.7099(8) 0.5861(18) 1.1953(9)
C6D C 0.3717(10) -0.537(2) 1.0506(11)
Ag1G Ag 0.2901(8) -0.5861(18) 0.8047(9)
H3D H 0.411(2) -0.525(5) 1.206(3)
C1C C 0.6142(7) 0.5805(16) 1.3037(8)
C4E C 0.8269(8) 0.5766(17) 1.1260(8)
H4D H 0.339(3) -0.655(5) 1.056(2)
C1G C 0.3858(7) -0.5805(16) 0.6963(8)
C4A C 0.1731(8) -0.5766(17) 0.8740(8)
loop_
_geom_bond_atom_site_label_1
_geom_bond_atom_site_label_2
_geom_bond_site_symmetry_1
_geom_bond_site_symmetry_2
Ag1 C1 1_555 1_555
C1 N1 1_555 1_555
N1 Fe1 1_555 1_555
Fe1 N2 1_555 1_555
N2 C2 1_555 1_555
N3 Fe1 1_555 1_555
C2 N4 1_555 1_555
C3 N2 1_555 1_555
C4 N3 1_555 1_555
N4 C6 1_555 1_555
H1 C2 1_555 1_555
C5 C3 1_555 1_555
H2 C3 1_555 1_555
C6 C5 1_555 1_555
H3 C5 1_555 1_555
H4 C6 1_555 1_555
N2D Fe1 1_555 1_555
N1D Fe1 1_555 1_555
N3D Fe1 1_555 1_555
C2D N2D 1_555 1_555
C3D N2D 1_555 1_555
C1D N1D 1_555 1_555
C4D N3D 1_555 1_555
Ag1F C4 1_555 1_555
N4D C2D 1_555 1_555
H1D C2D 1_555 1_555
C5D C3D 1_555 1_555
H2D C3D 1_555 1_555
Ag1D C1D 1_555 1_555
Ag1B C4D 1_555 1_555
Ag1C N4 1_555 1_555
C6D N4D 1_555 1_555
Ag1G N4D 1_555 1_555
H3D C5D 1_555 1_555
C1C Ag1C 1_555 1_555
C4E Ag1C 1_555 1_555
H4D C6D 1_555 1_555
C1G Ag1G 1_555 1_555
C4A Ag1G 1_555 1_555
C5D C6D 1_555 1_555

#END
