
#######################################################################
#
#                 Cambridge Crystallographic Data Centre
#                                CCDC 
#
#######################################################################
#
# If this CIF has been generated from an entry in the Cambridge 
# Structural Database, then it will include bibliographic, chemical, 
# crystal, experimental, refinement or atomic coordinate data resulting 
# from the CCDC's data processing and validation procedures.
#
#######################################################################

data_XAXVAU04
_symmetry_cell_setting           orthorhombic
_symmetry_space_group_name_H-M   'P c c n'
_symmetry_Int_Tables_number      56
_space_group_name_Hall           '-P 2ab 2ac'
loop_
_symmetry_equiv_pos_site_id
_symmetry_equiv_pos_as_xyz
1 x,y,z
2 1/2-x,1/2-y,z
3 1/2+x,-y,1/2-z
4 -x,1/2+y,1/2-z
5 -x,-y,-z
6 1/2+x,1/2+y,-z
7 1/2-x,y,1/2+z
8 x,1/2-y,1/2+z
_cell_length_a                   14.895(3)
_cell_length_b                   8.122(3)
_cell_length_c                   13.288(3)
_cell_angle_alpha                90
_cell_angle_beta                 90
_cell_angle_gamma                90
_cell_volume                     1607.54
loop_
_atom_site_label
_atom_site_type_symbol
_atom_site_fract_x
_atom_site_fract_y
_atom_site_fract_z
Ag1 Ag 0.7051(5) 0.0867(12) -0.3038(5)
C1 C 0.6111(5) 0.0859(11) -0.1884(5)
N1 N 0.5645(3) 0.0687(8) -0.1195(3)
Fe1 Fe 0.5000 0.0000 0.0000
N2 N 0.3949(3) -0.0535(8) -0.0788(4)
N3 N 0.4508(4) 0.2253(8) 0.0221(4)
C2 C 0.3299(4) -0.0727(11) -0.1235(5)
C3 C 0.4130(4) 0.3123(10) -0.0526(5)
C4 C 0.4503(5) 0.2987(11) 0.1134(5)
N4 N 0.3744(4) 0.4577(8) -0.0440(4)
H1 H 0.4147(13) 0.2541(18) -0.1261(11)
C5 C 0.4107(5) 0.4508(11) 0.1288(5)
H2 H 0.4838(13) 0.234(2) 0.1740(13)
C6 C 0.3707(7) 0.5234(12) 0.0472(6)
H3 H 0.4082(16) 0.505(3) 0.2026(12)
H4 H 0.3383(15) 0.645(3) 0.0523(16)
N1D N 0.4355(3) -0.0687(8) 0.1195(3)
N2D N 0.6051(3) 0.0535(8) 0.0788(4)
N3D N 0.5492(4) -0.2253(8) -0.0221(4)
C1D C 0.3889(5) -0.0859(11) 0.1884(5)
C2D C 0.6701(4) 0.0727(11) 0.1235(5)
C3D C 0.5870(4) -0.3123(10) 0.0526(5)
C4D C 0.5497(5) -0.2987(11) -0.1134(5)
Ag1D Ag 0.2949(5) -0.0867(12) 0.3038(5)
Ag1B Ag 0.2051(5) -0.0867(12) -0.1962(5)
Ag1F Ag 0.7949(5) 0.0867(12) 0.1962(5)
N4D N 0.6256(4) -0.4577(8) 0.0440(4)
H1D H 0.5853(13) -0.2541(18) 0.1261(11)
C5D C 0.5893(5) -0.4508(11) -0.1288(5)
H2D H 0.5162(13) -0.234(2) -0.1740(13)
Ag1C Ag 0.2949(5) 0.5867(12) -0.1962(5)
Ag1G Ag 0.7051(5) -0.5867(12) 0.1962(5)
C6D C 0.6293(7) -0.5234(12) -0.0472(6)
H3D H 0.5918(16) -0.505(3) -0.2026(12)
C1C C 0.3889(5) 0.5859(11) -0.3116(5)
C2A C 0.1701(4) 0.5727(11) -0.1235(5)
C1G C 0.6111(5) -0.5859(11) 0.3116(5)
C2E C 0.8299(4) -0.5727(11) 0.1235(5)
H4D H 0.6617(15) -0.645(3) -0.0523(16)
loop_
_geom_bond_atom_site_label_1
_geom_bond_atom_site_label_2
_geom_bond_site_symmetry_1
_geom_bond_site_symmetry_2
Ag1 C1 1_555 1_555
C1 N1 1_555 1_555
N1 Fe1 1_555 1_555
Fe1 N2 1_555 1_555
N2 C2 1_555 1_555
N3 Fe1 1_555 1_555
C2 Ag1B 1_555 1_555
C3 N3 1_555 1_555
C4 N3 1_555 1_555
N4 C3 1_555 1_555
H1 C3 1_555 1_555
C5 C4 1_555 1_555
H2 C4 1_555 1_555
C6 N4 1_555 1_555
H3 C5 1_555 1_555
H4 C6 1_555 1_555
N1D Fe1 1_555 1_555
N2D Fe1 1_555 1_555
N3D Fe1 1_555 1_555
C1D N1D 1_555 1_555
C2D N2D 1_555 1_555
C3D N3D 1_555 1_555
C4D N3D 1_555 1_555
Ag1D C1D 1_555 1_555
Ag1F C2D 1_555 1_555
N4D C3D 1_555 1_555
H1D C3D 1_555 1_555
C5D C4D 1_555 1_555
H2D C4D 1_555 1_555
Ag1C N4 1_555 1_555
Ag1G N4D 1_555 1_555
C6D N4D 1_555 1_555
H3D C5D 1_555 1_555
C1C Ag1C 1_555 1_555
C2A Ag1C 1_555 1_555
C1G Ag1G 1_555 1_555
C2E Ag1G 1_555 1_555
H4D C6D 1_555 1_555
C5 C6 1_555 1_555
C5D C6D 1_555 1_555

#END
