
#######################################################################
#
#                 Cambridge Crystallographic Data Centre
#                                CCDC 
#
#######################################################################
#
# If this CIF has been generated from an entry in the Cambridge 
# Structural Database, then it will include bibliographic, chemical, 
# crystal, experimental, refinement or atomic coordinate data resulting 
# from the CCDC's data processing and validation procedures.
#
#######################################################################

data_XAXVAU13
_symmetry_cell_setting           orthorhombic
_symmetry_space_group_name_H-M   'P c c n'
_symmetry_Int_Tables_number      56
_space_group_name_Hall           '-P 2ab 2ac'
loop_
_symmetry_equiv_pos_site_id
_symmetry_equiv_pos_as_xyz
1 x,y,z
2 1/2-x,1/2-y,z
3 1/2+x,-y,1/2-z
4 -x,1/2+y,1/2-z
5 -x,-y,-z
6 1/2+x,1/2+y,-z
7 1/2-x,y,1/2+z
8 x,1/2-y,1/2+z
_cell_length_a                   15.7820(15)
_cell_length_b                   8.2250(15)
_cell_length_c                   13.2980(15)
_cell_angle_alpha                90
_cell_angle_beta                 90
_cell_angle_gamma                90
_cell_volume                     1726.17
loop_
_atom_site_label
_atom_site_type_symbol
_atom_site_fract_x
_atom_site_fract_y
_atom_site_fract_z
Ag1 Ag 0.2911(2) 0.0851(6) 1.3053(3)
C1 C 0.3856(2) 0.0790(6) 1.1968(3)
N1 N 0.43573(17) 0.0711(4) 1.1348(2)
Fe1 Fe 0.5000 0.0000 1.0000
N2 N 0.55311(19) 0.2470(3) 0.9755(2)
N3 N 0.39087(16) 0.0608(4) 0.9150(2)
C2 C 0.5938(3) 0.3241(6) 1.0486(3)
C3 C 0.5493(3) 0.3207(6) 0.8867(3)
C4 C 0.3273(2) 0.0757(6) 0.8735(3)
N4 N 0.6316(2) 0.4678(5) 1.0403(3)
H1 H 0.5949(7) 0.2650(14) 1.1198(8)
C5 C 0.5870(3) 0.4695(7) 0.8701(4)
H2 H 0.5152(8) 0.2584(13) 0.8278(9)
C6 C 0.6287(3) 0.5402(7) 0.9506(4)
H3 H 0.5852(9) 0.5243(16) 0.7971(10)
H4 H 0.6601(9) 0.6579(16) 0.9446(9)
N2D N 0.44689(19) -0.2470(3) 1.0245(2)
N1D N 0.56427(17) -0.0711(4) 0.8652(2)
N3D N 0.60913(16) -0.0608(4) 1.0850(2)
C2D C 0.4062(3) -0.3241(6) 0.9514(3)
C3D C 0.4507(3) -0.3207(6) 1.1133(3)
C1D C 0.6144(2) -0.0790(6) 0.8032(3)
C4D C 0.6727(2) -0.0757(6) 1.1265(3)
Ag1F Ag 0.2089(2) 0.0851(6) 0.8053(3)
N4D N 0.3684(2) -0.4678(5) 0.9597(3)
H1D H 0.4051(7) -0.2650(14) 0.8802(8)
C5D C 0.4130(3) -0.4695(7) 1.1299(4)
H2D H 0.4848(8) -0.2584(13) 1.1722(9)
Ag1D Ag 0.7089(2) -0.0851(6) 0.6947(3)
Ag1B Ag 0.7911(2) -0.0851(6) 1.1947(3)
Ag1C Ag 0.7089(2) 0.5851(6) 1.1947(3)
C6D C 0.3713(3) -0.5402(7) 1.0494(4)
Ag1G Ag 0.2911(2) -0.5851(6) 0.8053(3)
H3D H 0.4148(9) -0.5243(16) 1.2029(10)
C4E C 0.8273(2) 0.5757(6) 1.1265(3)
C1C C 0.6144(2) 0.5790(6) 1.3032(3)
H4D H 0.3399(9) -0.6579(16) 1.0554(9)
C4A C 0.1727(2) -0.5757(6) 0.8735(3)
C1G C 0.3856(2) -0.5790(6) 0.6968(3)
loop_
_geom_bond_atom_site_label_1
_geom_bond_atom_site_label_2
_geom_bond_site_symmetry_1
_geom_bond_site_symmetry_2
Ag1 C1 1_555 1_555
C1 N1 1_555 1_555
N1 Fe1 1_555 1_555
Fe1 N2 1_555 1_555
N2 C2 1_555 1_555
N3 Fe1 1_555 1_555
C2 N4 1_555 1_555
C3 N2 1_555 1_555
C4 N3 1_555 1_555
N4 C6 1_555 1_555
H1 C2 1_555 1_555
C5 C3 1_555 1_555
H2 C3 1_555 1_555
C6 C5 1_555 1_555
H3 C5 1_555 1_555
H4 C6 1_555 1_555
N2D Fe1 1_555 1_555
N1D Fe1 1_555 1_555
N3D Fe1 1_555 1_555
C2D N2D 1_555 1_555
C3D N2D 1_555 1_555
C1D N1D 1_555 1_555
C4D N3D 1_555 1_555
Ag1F C4 1_555 1_555
N4D C2D 1_555 1_555
H1D C2D 1_555 1_555
C5D C3D 1_555 1_555
H2D C3D 1_555 1_555
Ag1D C1D 1_555 1_555
Ag1B C4D 1_555 1_555
Ag1C N4 1_555 1_555
C6D N4D 1_555 1_555
Ag1G N4D 1_555 1_555
H3D C5D 1_555 1_555
C4E Ag1C 1_555 1_555
C1C Ag1C 1_555 1_555
H4D C6D 1_555 1_555
C4A Ag1G 1_555 1_555
C1G Ag1G 1_555 1_555
C5D C6D 1_555 1_555

#END
