
#######################################################################
#
#                 Cambridge Crystallographic Data Centre
#                                CCDC 
#
#######################################################################
#
# If this CIF has been generated from an entry in the Cambridge 
# Structural Database, then it will include bibliographic, chemical, 
# crystal, experimental, refinement or atomic coordinate data resulting 
# from the CCDC's data processing and validation procedures.
#
#######################################################################

data_XAXVAU10
_symmetry_cell_setting           orthorhombic
_symmetry_space_group_name_H-M   'P c c n'
_symmetry_Int_Tables_number      56
_space_group_name_Hall           '-P 2ab 2ac'
loop_
_symmetry_equiv_pos_site_id
_symmetry_equiv_pos_as_xyz
1 x,y,z
2 1/2-x,1/2-y,z
3 1/2+x,-y,1/2-z
4 -x,1/2+y,1/2-z
5 -x,-y,-z
6 1/2+x,1/2+y,-z
7 1/2-x,y,1/2+z
8 x,1/2-y,1/2+z
_cell_length_a                   15.782(3)
_cell_length_b                   8.262(3)
_cell_length_c                   13.350(3)
_cell_angle_alpha                90
_cell_angle_beta                 90
_cell_angle_gamma                90
_cell_volume                     1740.72
loop_
_atom_site_label
_atom_site_type_symbol
_atom_site_fract_x
_atom_site_fract_y
_atom_site_fract_z
Ag1 Ag 0.2906(6) 0.0842(14) 1.3043(7)
C1 C 0.3858(6) 0.0792(13) 1.1962(6)
N1 N 0.4353(4) 0.0700(10) 1.1338(5)
Fe1 Fe 0.5000 0.0000 1.0000
N2 N 0.5530(5) 0.2461(8) 0.9762(5)
N3 N 0.3909(4) 0.0606(10) 0.9147(5)
C2 C 0.5940(6) 0.3236(14) 1.0490(7)
C3 C 0.5495(7) 0.3195(15) 0.8862(8)
C4 C 0.3278(6) 0.0762(13) 0.8728(6)
N4 N 0.6312(5) 0.4680(10) 1.0409(6)
H1 H 0.5930(16) 0.265(3) 1.1205(19)
C5 C 0.5872(7) 0.4672(15) 0.8704(9)
H2 H 0.5158(18) 0.259(3) 0.8274(19)
C6 C 0.6308(9) 0.5371(17) 0.9510(9)
H3 H 0.589(2) 0.527(4) 0.796(2)
H4 H 0.661(2) 0.656(4) 0.944(2)
N2D N 0.4470(5) -0.2461(8) 1.0238(5)
N1D N 0.5647(4) -0.0700(10) 0.8662(5)
N3D N 0.6091(4) -0.0606(10) 1.0853(5)
C2D C 0.4060(6) -0.3236(14) 0.9510(7)
C3D C 0.4505(7) -0.3195(15) 1.1138(8)
C1D C 0.6142(6) -0.0792(13) 0.8038(6)
C4D C 0.6722(6) -0.0762(13) 1.1272(6)
Ag1F Ag 0.2094(6) 0.0842(14) 0.8043(7)
N4D N 0.3688(5) -0.4680(10) 0.9591(6)
H1D H 0.4070(16) -0.265(3) 0.8795(19)
C5D C 0.4128(7) -0.4672(15) 1.1296(9)
H2D H 0.4842(18) -0.259(3) 1.1726(19)
Ag1D Ag 0.7094(6) -0.0842(14) 0.6957(7)
Ag1B Ag 0.7906(6) -0.0842(14) 1.1957(7)
Ag1C Ag 0.7094(6) 0.5842(14) 1.1957(7)
C6D C 0.3692(9) -0.5371(17) 1.0490(9)
Ag1G Ag 0.2906(6) -0.5842(14) 0.8043(7)
H3D H 0.411(2) -0.527(4) 1.204(2)
C4E C 0.8278(6) 0.5762(13) 1.1272(6)
C1C C 0.6142(6) 0.5792(13) 1.3038(6)
H4D H 0.339(2) -0.656(4) 1.056(2)
C4A C 0.1722(6) -0.5762(13) 0.8728(6)
C1G C 0.3858(6) -0.5792(13) 0.6962(6)
loop_
_geom_bond_atom_site_label_1
_geom_bond_atom_site_label_2
_geom_bond_site_symmetry_1
_geom_bond_site_symmetry_2
Ag1 C1 1_555 1_555
C1 N1 1_555 1_555
N1 Fe1 1_555 1_555
Fe1 N2 1_555 1_555
N2 C2 1_555 1_555
N3 Fe1 1_555 1_555
C2 N4 1_555 1_555
C3 N2 1_555 1_555
C4 N3 1_555 1_555
N4 C6 1_555 1_555
H1 C2 1_555 1_555
C5 C3 1_555 1_555
H2 C3 1_555 1_555
C6 C5 1_555 1_555
H3 C5 1_555 1_555
H4 C6 1_555 1_555
N2D Fe1 1_555 1_555
N1D Fe1 1_555 1_555
N3D Fe1 1_555 1_555
C2D N2D 1_555 1_555
C3D N2D 1_555 1_555
C1D N1D 1_555 1_555
C4D N3D 1_555 1_555
Ag1F C4 1_555 1_555
N4D C2D 1_555 1_555
H1D C2D 1_555 1_555
C5D C3D 1_555 1_555
H2D C3D 1_555 1_555
Ag1D C1D 1_555 1_555
Ag1B C4D 1_555 1_555
Ag1C N4 1_555 1_555
C6D N4D 1_555 1_555
Ag1G N4D 1_555 1_555
H3D C5D 1_555 1_555
C4E Ag1C 1_555 1_555
C1C Ag1C 1_555 1_555
H4D C6D 1_555 1_555
C4A Ag1G 1_555 1_555
C1G Ag1G 1_555 1_555
C5D C6D 1_555 1_555

#END
