
#######################################################################
#
#                 Cambridge Crystallographic Data Centre
#                                CCDC 
#
#######################################################################
#
# If this CIF has been generated from an entry in the Cambridge 
# Structural Database, then it will include bibliographic, chemical, 
# crystal, experimental, refinement or atomic coordinate data resulting 
# from the CCDC's data processing and validation procedures.
#
#######################################################################

data_XAXVAU15
_symmetry_cell_setting           orthorhombic
_symmetry_space_group_name_H-M   'P c c n'
_symmetry_Int_Tables_number      56
_space_group_name_Hall           '-P 2ab 2ac'
loop_
_symmetry_equiv_pos_site_id
_symmetry_equiv_pos_as_xyz
1 x,y,z
2 1/2-x,1/2-y,z
3 1/2+x,-y,1/2-z
4 -x,1/2+y,1/2-z
5 -x,-y,-z
6 1/2+x,1/2+y,-z
7 1/2-x,y,1/2+z
8 x,1/2-y,1/2+z
_cell_length_a                   15.7820(15)
_cell_length_b                   8.2430(15)
_cell_length_c                   13.3100(15)
_cell_angle_alpha                90
_cell_angle_beta                 90
_cell_angle_gamma                90
_cell_volume                     1731.51
loop_
_atom_site_label
_atom_site_type_symbol
_atom_site_fract_x
_atom_site_fract_y
_atom_site_fract_z
Ag1 Ag 0.2915(3) 0.0844(6) 0.3051(3)
C1 C 0.3857(2) 0.0795(6) 0.1965(3)
N1 N 0.43564(18) 0.0710(5) 0.1347(2)
Fe1 Fe 0.5000 0.0000 0.0000
N2 N 0.39086(17) 0.0610(5) -0.0850(2)
N3 N 0.5532(2) 0.2458(4) -0.0243(2)
C2 C 0.3274(2) 0.0760(6) -0.1265(3)
C3 C 0.5935(3) 0.3244(6) 0.0485(3)
C4 C 0.5496(3) 0.3203(7) -0.1137(3)
N4 N 0.6314(2) 0.4675(5) 0.0405(3)
H1 H 0.5953(8) 0.2643(15) 0.1200(8)
C5 C 0.5869(3) 0.4685(7) -0.1296(4)
H2 H 0.5138(8) 0.2582(14) -0.1714(9)
C6 C 0.6289(4) 0.5389(8) -0.0496(4)
H3 H 0.5851(10) 0.5259(18) -0.2041(11)
H4 H 0.6611(10) 0.6551(18) -0.0562(10)
N2D N 0.60914(17) -0.0610(5) 0.0850(2)
N1D N 0.56436(18) -0.0710(5) -0.1347(2)
N3D N 0.4468(2) -0.2458(4) 0.0243(2)
C2D C 0.6726(2) -0.0760(6) 0.1265(3)
C1D C 0.6143(2) -0.0795(6) -0.1965(3)
C3D C 0.4065(3) -0.3244(6) -0.0485(3)
C4D C 0.4504(3) -0.3203(7) 0.1137(3)
Ag1F Ag 0.2085(3) 0.0844(6) -0.1949(3)
Ag1B Ag 0.7915(3) -0.0844(6) 0.1949(3)
Ag1D Ag 0.7085(3) -0.0844(6) -0.3051(3)
N4D N 0.3686(2) -0.4675(5) -0.0405(3)
H1D H 0.4047(8) -0.2643(15) -0.1200(8)
C5D C 0.4131(3) -0.4685(7) 0.1296(4)
H2D H 0.4862(8) -0.2582(14) 0.1714(9)
Ag1C Ag 0.7085(3) 0.5844(6) 0.1949(3)
C6D C 0.3711(4) -0.5389(8) 0.0496(4)
Ag1G Ag 0.2915(3) -0.5844(6) -0.1949(3)
H3D H 0.4149(10) -0.5259(18) 0.2041(11)
C1C C 0.6143(2) 0.5795(6) 0.3035(3)
C2E C 0.8274(2) 0.5760(6) 0.1265(3)
H4D H 0.3389(10) -0.6551(18) 0.0562(10)
C1G C 0.3857(2) -0.5795(6) -0.3035(3)
C2A C 0.1726(2) -0.5760(6) -0.1265(3)
loop_
_geom_bond_atom_site_label_1
_geom_bond_atom_site_label_2
_geom_bond_site_symmetry_1
_geom_bond_site_symmetry_2
Ag1 C1 1_555 1_555
C1 N1 1_555 1_555
N1 Fe1 1_555 1_555
Fe1 N2 1_555 1_555
N2 C2 1_555 1_555
N3 Fe1 1_555 1_555
C2 Ag1F 1_555 1_555
C3 N3 1_555 1_555
C4 N3 1_555 1_555
N4 C3 1_555 1_555
H1 C3 1_555 1_555
C5 C4 1_555 1_555
H2 C4 1_555 1_555
C6 N4 1_555 1_555
H3 C5 1_555 1_555
H4 C6 1_555 1_555
N2D Fe1 1_555 1_555
N1D Fe1 1_555 1_555
N3D Fe1 1_555 1_555
C2D N2D 1_555 1_555
C1D N1D 1_555 1_555
C3D N3D 1_555 1_555
C4D N3D 1_555 1_555
Ag1B C2D 1_555 1_555
Ag1D C1D 1_555 1_555
N4D C3D 1_555 1_555
H1D C3D 1_555 1_555
C5D C4D 1_555 1_555
H2D C4D 1_555 1_555
Ag1C N4 1_555 1_555
C6D N4D 1_555 1_555
Ag1G N4D 1_555 1_555
H3D C5D 1_555 1_555
C1C Ag1C 1_555 1_555
C2E Ag1C 1_555 1_555
H4D C6D 1_555 1_555
C1G Ag1G 1_555 1_555
C2A Ag1G 1_555 1_555
C5 C6 1_555 1_555
C5D C6D 1_555 1_555

#END
