
#######################################################################
#
#                 Cambridge Crystallographic Data Centre
#                                CCDC 
#
#######################################################################
#
# If this CIF has been generated from an entry in the Cambridge 
# Structural Database, then it will include bibliographic, chemical, 
# crystal, experimental, refinement or atomic coordinate data resulting 
# from the CCDC's data processing and validation procedures.
#
#######################################################################

data_XAXVAU07
_symmetry_cell_setting           orthorhombic
_symmetry_space_group_name_H-M   'P c c n'
_symmetry_Int_Tables_number      56
_space_group_name_Hall           '-P 2ab 2ac'
loop_
_symmetry_equiv_pos_site_id
_symmetry_equiv_pos_as_xyz
1 x,y,z
2 1/2-x,1/2-y,z
3 1/2+x,-y,1/2-z
4 -x,1/2+y,1/2-z
5 -x,-y,-z
6 1/2+x,1/2+y,-z
7 1/2-x,y,1/2+z
8 x,1/2-y,1/2+z
_cell_length_a                   15.780(3)
_cell_length_b                   8.250(3)
_cell_length_c                   13.350(3)
_cell_angle_alpha                90
_cell_angle_beta                 90
_cell_angle_gamma                90
_cell_volume                     1737.97
loop_
_atom_site_label
_atom_site_type_symbol
_atom_site_fract_x
_atom_site_fract_y
_atom_site_fract_z
Ag1 Ag 0.29081(19) 0.0830(4) 1.3049(3)
C1 C 0.38492(18) 0.0786(4) 1.1965(2)
N1 N 0.43561(13) 0.0713(3) 1.13422(17)
Fe1 Fe 0.5000 0.0000 1.0000
N2 N 0.55374(14) 0.2462(3) 0.97579(19)
N3 N 0.39103(12) 0.0615(3) 0.91522(17)
C2 C 0.59351(19) 0.3249(4) 1.0487(2)
C3 C 0.5498(2) 0.3205(4) 0.8869(3)
C4 C 0.32727(16) 0.0750(4) 0.8729(2)
N4 N 0.63144(17) 0.4672(3) 1.0406(2)
H1 H 0.5952(6) 0.2641(10) 1.1219(6)
C5 C 0.5875(2) 0.4688(5) 0.8702(3)
H2 H 0.5149(6) 0.2582(9) 0.8289(7)
C6 C 0.6286(3) 0.5387(5) 0.9507(3)
H3 H 0.5851(7) 0.5267(12) 0.7998(9)
H4 H 0.6603(6) 0.6569(12) 0.9466(8)
N2D N 0.44626(14) -0.2462(3) 1.02421(19)
N1D N 0.56439(13) -0.0713(3) 0.86578(17)
N3D N 0.60897(12) -0.0615(3) 1.08478(17)
C2D C 0.40649(19) -0.3249(4) 0.9513(2)
C3D C 0.4502(2) -0.3205(4) 1.1131(3)
C1D C 0.61508(18) -0.0786(4) 0.8035(2)
C4D C 0.67273(16) -0.0750(4) 1.1271(2)
Ag1F Ag 0.20919(19) 0.0830(4) 0.8049(3)
N4D N 0.36856(17) -0.4672(3) 0.9594(2)
H1D H 0.4048(6) -0.2641(10) 0.8781(6)
C5D C 0.4125(2) -0.4688(5) 1.1298(3)
H2D H 0.4851(6) -0.2582(9) 1.1711(7)
Ag1D Ag 0.70919(19) -0.0830(4) 0.6951(3)
Ag1B Ag 0.79081(19) -0.0830(4) 1.1951(3)
Ag1C Ag 0.70919(19) 0.5830(4) 1.1951(3)
C6D C 0.3714(3) -0.5387(5) 1.0493(3)
Ag1G Ag 0.29081(19) -0.5830(4) 0.8049(3)
H3D H 0.4149(7) -0.5267(12) 1.2002(9)
C1C C 0.61508(18) 0.5786(4) 1.3035(2)
C4E C 0.82727(16) 0.5750(4) 1.1271(2)
H4D H 0.3397(6) -0.6569(12) 1.0534(8)
C1G C 0.38492(18) -0.5786(4) 0.6965(2)
C4A C 0.17273(16) -0.5750(4) 0.8729(2)
loop_
_geom_bond_atom_site_label_1
_geom_bond_atom_site_label_2
_geom_bond_site_symmetry_1
_geom_bond_site_symmetry_2
Ag1 C1 1_555 1_555
C1 N1 1_555 1_555
N1 Fe1 1_555 1_555
Fe1 N2 1_555 1_555
N2 C2 1_555 1_555
N3 Fe1 1_555 1_555
C2 N4 1_555 1_555
C3 N2 1_555 1_555
C4 N3 1_555 1_555
N4 C6 1_555 1_555
H1 C2 1_555 1_555
C5 C3 1_555 1_555
H2 C3 1_555 1_555
C6 C5 1_555 1_555
H3 C5 1_555 1_555
H4 C6 1_555 1_555
N2D Fe1 1_555 1_555
N1D Fe1 1_555 1_555
N3D Fe1 1_555 1_555
C2D N2D 1_555 1_555
C3D N2D 1_555 1_555
C1D N1D 1_555 1_555
C4D N3D 1_555 1_555
Ag1F C4 1_555 1_555
N4D C2D 1_555 1_555
H1D C2D 1_555 1_555
C5D C3D 1_555 1_555
H2D C3D 1_555 1_555
Ag1D C1D 1_555 1_555
Ag1B C4D 1_555 1_555
Ag1C N4 1_555 1_555
C6D N4D 1_555 1_555
Ag1G N4D 1_555 1_555
H3D C5D 1_555 1_555
C1C Ag1C 1_555 1_555
C4E Ag1C 1_555 1_555
H4D C6D 1_555 1_555
C1G Ag1G 1_555 1_555
C4A Ag1G 1_555 1_555
C5D C6D 1_555 1_555

#END
