
#######################################################################
#
#                 Cambridge Crystallographic Data Centre
#                                CCDC 
#
#######################################################################
#
# If this CIF has been generated from an entry in the Cambridge 
# Structural Database, then it will include bibliographic, chemical, 
# crystal, experimental, refinement or atomic coordinate data resulting 
# from the CCDC's data processing and validation procedures.
#
#######################################################################

data_XAXVAU09
_symmetry_cell_setting           orthorhombic
_symmetry_space_group_name_H-M   'P c c n'
_symmetry_Int_Tables_number      56
_space_group_name_Hall           '-P 2ab 2ac'
loop_
_symmetry_equiv_pos_site_id
_symmetry_equiv_pos_as_xyz
1 x,y,z
2 1/2-x,1/2-y,z
3 1/2+x,-y,1/2-z
4 -x,1/2+y,1/2-z
5 -x,-y,-z
6 1/2+x,1/2+y,-z
7 1/2-x,y,1/2+z
8 x,1/2-y,1/2+z
_cell_length_a                   15.782(3)
_cell_length_b                   8.235(3)
_cell_length_c                   13.325(3)
_cell_angle_alpha                90
_cell_angle_beta                 90
_cell_angle_gamma                90
_cell_volume                     1731.78
loop_
_atom_site_label
_atom_site_type_symbol
_atom_site_fract_x
_atom_site_fract_y
_atom_site_fract_z
Ag1 Ag 0.2901(11) 0.087(2) 1.3045(11)
C1 C 0.3878(10) 0.083(2) 1.1957(10)
N1 N 0.4369(7) 0.0673(17) 1.1340(8)
Fe1 Fe 0.5000 0.0000 1.0000
N2 N 0.5525(8) 0.2448(13) 0.9752(9)
N3 N 0.3907(8) 0.0590(17) 0.9138(8)
C2 C 0.5949(10) 0.325(2) 1.0500(11)
C3 C 0.5489(12) 0.320(3) 0.8849(15)
C4 C 0.3278(10) 0.077(2) 0.8743(11)
N4 N 0.6311(9) 0.4681(17) 1.0401(9)
H1 H 0.592(2) 0.264(5) 1.123(3)
C5 C 0.5871(11) 0.470(2) 0.8693(15)
H2 H 0.518(3) 0.261(4) 0.828(3)
C6 C 0.6307(15) 0.545(3) 0.9491(15)
H3 H 0.593(3) 0.521(6) 0.794(4)
H4 H 0.660(3) 0.650(8) 0.946(3)
N2D N 0.4475(8) -0.2448(13) 1.0248(9)
N1D N 0.5631(7) -0.0673(17) 0.8660(8)
N3D N 0.6093(8) -0.0590(17) 1.0862(8)
C2D C 0.4051(10) -0.325(2) 0.9500(11)
C3D C 0.4511(12) -0.320(3) 1.1151(15)
C1D C 0.6122(10) -0.083(2) 0.8043(10)
C4D C 0.6722(10) -0.077(2) 1.1257(11)
Ag1F Ag 0.2099(11) 0.087(2) 0.8045(11)
N4D N 0.3689(9) -0.4681(17) 0.9599(9)
H1D H 0.408(2) -0.264(5) 0.877(3)
C5D C 0.4129(11) -0.470(2) 1.1307(15)
H2D H 0.482(3) -0.261(4) 1.172(3)
Ag1D Ag 0.7099(11) -0.087(2) 0.6955(11)
Ag1B Ag 0.7901(11) -0.087(2) 1.1955(11)
Ag1C Ag 0.7099(11) 0.587(2) 1.1955(11)
C6D C 0.3693(15) -0.545(3) 1.0509(15)
Ag1G Ag 0.2901(11) -0.587(2) 0.8045(11)
H3D H 0.407(3) -0.521(6) 1.206(4)
C1C C 0.6122(10) 0.583(2) 1.3043(10)
C4E C 0.8278(10) 0.577(2) 1.1257(11)
H4D H 0.340(3) -0.650(8) 1.054(3)
C1G C 0.3878(10) -0.583(2) 0.6957(10)
C4A C 0.1722(10) -0.577(2) 0.8743(11)
loop_
_geom_bond_atom_site_label_1
_geom_bond_atom_site_label_2
_geom_bond_site_symmetry_1
_geom_bond_site_symmetry_2
Ag1 C1 1_555 1_555
C1 N1 1_555 1_555
N1 Fe1 1_555 1_555
Fe1 N2 1_555 1_555
N2 C2 1_555 1_555
N3 Fe1 1_555 1_555
C2 N4 1_555 1_555
C3 N2 1_555 1_555
C4 N3 1_555 1_555
N4 C6 1_555 1_555
H1 C2 1_555 1_555
C5 C3 1_555 1_555
H2 C3 1_555 1_555
C6 C5 1_555 1_555
H3 C5 1_555 1_555
H4 C6 1_555 1_555
N2D Fe1 1_555 1_555
N1D Fe1 1_555 1_555
N3D Fe1 1_555 1_555
C2D N2D 1_555 1_555
C3D N2D 1_555 1_555
C1D N1D 1_555 1_555
C4D N3D 1_555 1_555
Ag1F C4 1_555 1_555
N4D C2D 1_555 1_555
H1D C2D 1_555 1_555
C5D C3D 1_555 1_555
H2D C3D 1_555 1_555
Ag1D C1D 1_555 1_555
Ag1B C4D 1_555 1_555
Ag1C N4 1_555 1_555
C6D N4D 1_555 1_555
Ag1G N4D 1_555 1_555
H3D C5D 1_555 1_555
C1C Ag1C 1_555 1_555
C4E Ag1C 1_555 1_555
H4D C6D 1_555 1_555
C1G Ag1G 1_555 1_555
C4A Ag1G 1_555 1_555
C5D C6D 1_555 1_555

#END
