
#######################################################################
#
#                 Cambridge Crystallographic Data Centre
#                                CCDC 
#
#######################################################################
#
# If this CIF has been generated from an entry in the Cambridge 
# Structural Database, then it will include bibliographic, chemical, 
# crystal, experimental, refinement or atomic coordinate data resulting 
# from the CCDC's data processing and validation procedures.
#
#######################################################################

data_XAXVAU
_symmetry_cell_setting           orthorhombic
_symmetry_space_group_name_H-M   'P c c n'
_symmetry_Int_Tables_number      56
_space_group_name_Hall           '-P 2ab 2ac'
loop_
_symmetry_equiv_pos_site_id
_symmetry_equiv_pos_as_xyz
1 x,y,z
2 1/2-x,1/2-y,z
3 1/2+x,-y,1/2-z
4 -x,1/2+y,1/2-z
5 -x,-y,-z
6 1/2+x,1/2+y,-z
7 1/2-x,y,1/2+z
8 x,1/2-y,1/2+z
_cell_length_a                   14.8950(2)
_cell_length_b                   8.1580(4)
_cell_length_c                   13.3480(5)
_cell_angle_alpha                90
_cell_angle_beta                 90
_cell_angle_gamma                90
_cell_volume                     1621.96
loop_
_atom_site_label
_atom_site_type_symbol
_atom_site_fract_x
_atom_site_fract_y
_atom_site_fract_z
Ag1 Ag 0.205170(14) 0.41224(3) 0.196790(15)
Fe1 Fe 0.0000 1.0000 0.0000
C1 C 0.05012(18) 0.7029(4) -0.11301(19)
H1 H 0.0234 0.7563 -0.1668
N1 N 0.10488(15) 1.0519(3) 0.07905(16)
N2 N 0.04912(14) 0.7743(3) -0.02163(15)
N3 N 0.12588(17) 0.5432(3) 0.04530(18)
N4 N -0.06513(15) 0.9332(3) 0.11965(15)
C2 C -0.1111(2) 0.9156(4) 0.1877(2)
C3 C 0.1280(2) 0.4760(4) -0.0462(2)
H2 H 0.1558 0.3749 -0.0548
C4 C 0.1700(2) 1.0732(4) 0.1230(2)
C5 C 0.08665(19) 0.6895(4) 0.05283(18)
H3 H 0.0853 0.7370 0.1161
C6 C 0.0901(2) 0.5522(4) -0.1280(2)
H4 H 0.0913 0.5038 -0.1911
Ag1D Ag -0.205170(14) 1.58776(3) -0.196790(15)
Ag1C Ag -0.205170(14) 0.91224(3) 0.303210(15)
Ag1A Ag 0.294830(14) 1.08776(3) 0.196790(15)
Ag1E Ag -0.294830(14) 0.91224(3) -0.196790(15)
Ag1G Ag 0.205170(14) 1.08776(3) -0.303210(15)
C1D C -0.05012(18) 1.2971(4) 0.11301(19)
H1D H -0.0234 1.2437 0.1668
N1D N -0.10488(15) 0.9481(3) -0.07905(16)
N2D N -0.04912(14) 1.2257(3) 0.02163(15)
N3D N -0.12588(17) 1.4568(3) -0.04530(18)
N4D N 0.06513(15) 1.0668(3) -0.11965(15)
C2D C 0.1111(2) 1.0844(4) -0.1877(2)
C2C C 0.1111(2) 0.4156(4) 0.3123(2)
C2G C -0.1111(2) 1.5844(4) -0.3123(2)
C3D C -0.1280(2) 1.5240(4) 0.0462(2)
H2D H -0.1558 1.6251 0.0548
C4D C -0.1700(2) 0.9268(4) -0.1230(2)
C4A C 0.3300(2) 0.4268(4) 0.1230(2)
C4E C -0.3300(2) 1.5732(4) -0.1230(2)
C5D C -0.08665(19) 1.3105(4) -0.05283(18)
H3D H -0.0853 1.2630 -0.1161
C6D C -0.0901(2) 1.4478(4) 0.1280(2)
H4D H -0.0913 1.4962 0.1911
loop_
_geom_bond_atom_site_label_1
_geom_bond_atom_site_label_2
_geom_bond_site_symmetry_1
_geom_bond_site_symmetry_2
Ag1 N3 1_555 1_555
Fe1 N1 1_555 1_555
C1 H1 1_555 1_555
N1 C4 1_555 1_555
N2 Fe1 1_555 1_555
N3 C3 1_555 1_555
N4 Fe1 1_555 1_555
C2 N4 1_555 1_555
C3 H2 1_555 1_555
C4 Ag1A 1_555 1_555
C5 N2 1_555 1_555
H3 C5 1_555 1_555
C6 C1 1_555 1_555
H4 C6 1_555 1_555
Ag1D N3D 1_555 1_555
Ag1C C2 1_555 1_555
Ag1E C4D 1_555 1_555
Ag1G C2D 1_555 1_555
C1D H1D 1_555 1_555
N1D Fe1 1_555 1_555
N2D Fe1 1_555 1_555
N3D C3D 1_555 1_555
N4D Fe1 1_555 1_555
C2D N4D 1_555 1_555
C2C Ag1 1_555 1_555
C2G Ag1D 1_555 1_555
C3D H2D 1_555 1_555
C4D N1D 1_555 1_555
C4A Ag1 1_555 1_555
C4E Ag1D 1_555 1_555
C5D N2D 1_555 1_555
H3D C5D 1_555 1_555
C6D C1D 1_555 1_555
H4D C6D 1_555 1_555
C1 N2 1_555 1_555
N3 C5 1_555 1_555
C3 C6 1_555 1_555
C1D N2D 1_555 1_555
N3D C5D 1_555 1_555
C3D C6D 1_555 1_555

#END
