
#######################################################################
#
#                 Cambridge Crystallographic Data Centre
#                                CCDC 
#
#######################################################################
#
# If this CIF has been generated from an entry in the Cambridge 
# Structural Database, then it will include bibliographic, chemical, 
# crystal, experimental, refinement or atomic coordinate data resulting 
# from the CCDC's data processing and validation procedures.
#
#######################################################################

data_XAXVAU11
_symmetry_cell_setting           orthorhombic
_symmetry_space_group_name_H-M   'P c c n'
_symmetry_Int_Tables_number      56
_space_group_name_Hall           '-P 2ab 2ac'
loop_
_symmetry_equiv_pos_site_id
_symmetry_equiv_pos_as_xyz
1 x,y,z
2 1/2-x,1/2-y,z
3 1/2+x,-y,1/2-z
4 -x,1/2+y,1/2-z
5 -x,-y,-z
6 1/2+x,1/2+y,-z
7 1/2-x,y,1/2+z
8 x,1/2-y,1/2+z
_cell_length_a                   15.782(3)
_cell_length_b                   8.229(3)
_cell_length_c                   13.304(3)
_cell_angle_alpha                90
_cell_angle_beta                 90
_cell_angle_gamma                90
_cell_volume                     1727.79
loop_
_atom_site_label
_atom_site_type_symbol
_atom_site_fract_x
_atom_site_fract_y
_atom_site_fract_z
Ag1 Ag 0.2907(6) 0.0847(14) 1.3034(7)
C1 C 0.3859(6) 0.0801(13) 1.1955(6)
N1 N 0.4354(4) 0.0681(10) 1.1341(5)
Fe1 Fe 0.5000 0.0000 1.0000
N2 N 0.5529(5) 0.2465(8) 0.9760(5)
N3 N 0.3906(5) 0.0606(10) 0.9141(4)
C2 C 0.5938(6) 0.3268(13) 1.0481(7)
C3 C 0.5497(7) 0.3208(16) 0.8862(7)
C4 C 0.3275(6) 0.0737(13) 0.8739(6)
N4 N 0.6304(6) 0.4701(10) 1.0393(5)
H1 H 0.5932(14) 0.263(3) 1.1249(15)
C5 C 0.5870(7) 0.4697(14) 0.8692(9)
H2 H 0.5128(17) 0.257(2) 0.8273(18)
C6 C 0.6292(9) 0.5383(17) 0.9501(9)
H3 H 0.5879(17) 0.522(3) 0.798(2)
H4 H 0.6617(19) 0.657(4) 0.9412(19)
N2D N 0.4471(5) -0.2465(8) 1.0240(5)
N1D N 0.5646(4) -0.0681(10) 0.8659(5)
N3D N 0.6094(5) -0.0606(10) 1.0859(4)
C2D C 0.4062(6) -0.3268(13) 0.9519(7)
C3D C 0.4503(7) -0.3208(16) 1.1138(7)
C1D C 0.6141(6) -0.0801(13) 0.8045(6)
C4D C 0.6725(6) -0.0737(13) 1.1261(6)
Ag1F Ag 0.2093(6) 0.0847(14) 0.8034(7)
N4D N 0.3696(6) -0.4701(10) 0.9607(5)
H1D H 0.4068(14) -0.263(3) 0.8751(15)
C5D C 0.4130(7) -0.4697(14) 1.1308(9)
H2D H 0.4872(17) -0.257(2) 1.1727(18)
Ag1D Ag 0.7093(6) -0.0847(14) 0.6966(7)
Ag1B Ag 0.7907(6) -0.0847(14) 1.1966(7)
Ag1C Ag 0.7093(6) 0.5847(14) 1.1966(7)
C6D C 0.3708(9) -0.5383(17) 1.0499(9)
Ag1G Ag 0.2907(6) -0.5847(14) 0.8034(7)
H3D H 0.4121(17) -0.522(3) 1.202(2)
C4E C 0.8275(6) 0.5737(13) 1.1261(6)
C1C C 0.6141(6) 0.5801(13) 1.3045(6)
H4D H 0.3383(19) -0.657(4) 1.0588(19)
C4A C 0.1725(6) -0.5737(13) 0.8739(6)
C1G C 0.3859(6) -0.5801(13) 0.6955(6)
loop_
_geom_bond_atom_site_label_1
_geom_bond_atom_site_label_2
_geom_bond_site_symmetry_1
_geom_bond_site_symmetry_2
Ag1 C1 1_555 1_555
C1 N1 1_555 1_555
N1 Fe1 1_555 1_555
Fe1 N2 1_555 1_555
N2 C2 1_555 1_555
N3 Fe1 1_555 1_555
C2 N4 1_555 1_555
C3 N2 1_555 1_555
C4 N3 1_555 1_555
N4 C6 1_555 1_555
H1 C2 1_555 1_555
C5 C3 1_555 1_555
H2 C3 1_555 1_555
C6 C5 1_555 1_555
H3 C5 1_555 1_555
H4 C6 1_555 1_555
N2D Fe1 1_555 1_555
N1D Fe1 1_555 1_555
N3D Fe1 1_555 1_555
C2D N2D 1_555 1_555
C3D N2D 1_555 1_555
C1D N1D 1_555 1_555
C4D N3D 1_555 1_555
Ag1F C4 1_555 1_555
N4D C2D 1_555 1_555
H1D C2D 1_555 1_555
C5D C3D 1_555 1_555
H2D C3D 1_555 1_555
Ag1D C1D 1_555 1_555
Ag1B C4D 1_555 1_555
Ag1C N4 1_555 1_555
C6D N4D 1_555 1_555
Ag1G N4D 1_555 1_555
H3D C5D 1_555 1_555
C4E Ag1C 1_555 1_555
C1C Ag1C 1_555 1_555
H4D C6D 1_555 1_555
C4A Ag1G 1_555 1_555
C1G Ag1G 1_555 1_555
C5D C6D 1_555 1_555

#END
