
#######################################################################
#
#                 Cambridge Crystallographic Data Centre
#                                CCDC 
#
#######################################################################
#
# If this CIF has been generated from an entry in the Cambridge 
# Structural Database, then it will include bibliographic, chemical, 
# crystal, experimental, refinement or atomic coordinate data resulting 
# from the CCDC's data processing and validation procedures.
#
#######################################################################

data_XAXZEC
_symmetry_cell_setting           triclinic
_symmetry_space_group_name_H-M   'P -1'
_symmetry_Int_Tables_number      2
_space_group_name_Hall           '-P 1'
loop_
_symmetry_equiv_pos_site_id
_symmetry_equiv_pos_as_xyz
1 x,y,z
2 -x,-y,-z
_cell_length_a                   7.0076(5)
_cell_length_b                   11.0802(8)
_cell_length_c                   16.0917(12)
_cell_angle_alpha                91.7250(10)
_cell_angle_beta                 97.8200(10)
_cell_angle_gamma                90.3620(10)
_cell_volume                     1237.2
loop_
_atom_site_label
_atom_site_type_symbol
_atom_site_fract_x
_atom_site_fract_y
_atom_site_fract_z
Cu1 Cu -0.16930(4) -0.43275(3) -0.174320(17)
Na1 Na -0.74653(13) -0.99514(9) -0.49190(6)
Na2 Na -0.47995(13) -0.66350(9) -0.48141(6)
N1 N -0.2119(3) -0.28953(19) -0.10050(13)
C1 C -0.2043(4) -0.1744(2) -0.12165(18)
H1 H -0.193(4) -0.163(3) -0.177(2)
C2 C -0.2183(4) -0.0808(3) -0.06439(19)
H2 H -0.217(4) -0.005(3) -0.0825(18)
C3 C -0.2414(4) -0.1071(3) 0.01670(19)
H3 H -0.248(4) -0.042(3) 0.059(2)
C4 C -0.2496(4) -0.2260(3) 0.03928(17)
H4 H -0.263(4) -0.245(2) 0.0936(17)
C5 C -0.2351(3) -0.3160(2) -0.02118(15)
C6 C -0.2440(3) -0.4462(2) -0.00564(15)
C7 C -0.2740(4) -0.4942(3) 0.07030(17)
H5 H -0.287(4) -0.446(3) 0.1130(18)
C8 C -0.2822(4) -0.6178(3) 0.07640(17)
H6 H -0.296(4) -0.648(3) 0.126(2)
C9 C -0.2622(4) -0.6909(3) 0.00698(17)
H7 H -0.269(4) -0.772(3) 0.0080(18)
C10 C -0.2305(4) -0.6377(2) -0.06594(17)
H8 H -0.213(4) -0.678(3) -0.1067(19)
N2 N -0.2208(3) -0.51877(19) -0.07227(13)
P1 P 0.05692(8) -0.34675(5) -0.31868(4)
O1 O 0.0049(2) -0.28431(15) -0.39998(10)
O2 O 0.0683(2) -0.49023(15) -0.34185(11)
O3 O 0.2542(2) -0.31308(15) -0.27432(10)
O4 O -0.1025(2) -0.33267(14) -0.26294(10)
P2 P -0.07027(8) -0.59580(5) -0.31388(4)
O5 O -0.2657(2) -0.57884(16) -0.36316(11)
O6 O -0.0671(2) -0.57710(15) -0.21978(10)
O7 O 0.0285(2) -0.71156(14) -0.33455(10)
O8 O -0.4678(3) -0.48673(17) -0.24574(12)
H9 H -0.421(5) -0.509(3) -0.288(2)
H10 H -0.548(5) -0.451(3) -0.2573(19)
O11 O -0.5428(3) -0.9760(2) -0.59813(13)
H15 H -0.565(5) -1.012(4) -0.645(3)
H16 H -0.546(5) -0.915(3) -0.606(2)
O14 O -1.0202(3) -0.96549(18) -0.59967(12)
H21 H -1.011(5) -0.875(4) -0.612(2)
H22 H -1.010(5) -0.998(4) -0.636(2)
O15 O -0.2980(3) -0.49374(17) -0.52342(14)
H23 H -0.257(5) -0.506(3) -0.480(2)
H24 H -0.222(5) -0.490(3) -0.552(2)
O16 O -0.7481(3) -0.78397(16) -0.46308(13)
H25 H -0.817(6) -0.755(4) -0.504(3)
H26 H -0.803(4) -0.769(3) -0.425(2)
O17 O -0.2229(3) -0.79572(16) -0.48215(13)
H27 H -0.159(5) -0.773(3) -0.436(2)
H28 H -0.168(4) -0.767(3) -0.515(2)
O18 O -0.5517(3) -0.73324(17) -0.62895(12)
H29 H -0.465(5) -0.721(3) -0.653(2)
H30 H -0.648(5) -0.719(3) -0.659(2)
Na1A Na -0.25347(13) -1.00486(9) -0.50810(6)
Na1A_2 Na -1.25347(13) -1.00486(9) -0.50810(6)
Na2A Na -0.52005(13) -0.33650(9) -0.51859(6)
O11A O -0.4572(3) -1.0240(2) -0.40187(13)
H15A H -0.435(5) -0.988(4) -0.355(3)
H16A H -0.454(5) -1.085(3) -0.394(2)
O14A O -0.9798(3) -1.03451(18) -0.40033(12)
H21A H -0.989(5) -1.125(4) -0.388(2)
H22A H -0.990(5) -1.002(4) -0.364(2)
O15A O -0.7020(3) -0.50626(17) -0.47658(14)
H23A H -0.743(5) -0.494(3) -0.520(2)
H24A H -0.778(5) -0.510(3) -0.448(2)
O17A O -0.7771(3) -1.20428(16) -0.51785(13)
H27A H -0.841(5) -1.227(3) -0.564(2)
H28A H -0.832(4) -1.233(3) -0.485(2)
O9 O -0.4234(3) 0.0728(2) -0.23158(14)
H11 H -0.492(4) 0.024(3) -0.220(2)
H12 H -0.475(6) 0.130(4) -0.236(3)
O10 O 0.2856(3) -0.0818(2) -0.18833(13)
H13 H 0.280(4) -0.143(3) -0.215(2)
H14 H 0.199(5) -0.051(3) -0.202(2)
O12 O 0.3808(3) -0.7167(2) -0.22701(13)
H17 H 0.429(5) -0.660(3) -0.235(2)
H18 H 0.280(6) -0.720(4) -0.257(2)
O13 O -0.0270(3) -0.9184(2) -0.24255(14)
H19 H -0.130(5) -0.917(3) -0.235(2)
H20 H -0.024(5) -0.859(4) -0.259(3)
loop_
_geom_bond_atom_site_label_1
_geom_bond_atom_site_label_2
_geom_bond_site_symmetry_1
_geom_bond_site_symmetry_2
Cu1 N1 1_555 1_555
Na1 O11 1_555 1_555
Na2 O5 1_555 1_555
N1 C1 1_555 1_555
C1 H1 1_555 1_555
C2 C1 1_555 1_555
H2 C2 1_555 1_555
C3 C2 1_555 1_555
H3 C3 1_555 1_555
C4 C3 1_555 1_555
H4 C4 1_555 1_555
C5 N1 1_555 1_555
C6 C5 1_555 1_555
C7 C6 1_555 1_555
H5 C7 1_555 1_555
C8 C7 1_555 1_555
H6 C8 1_555 1_555
C9 C8 1_555 1_555
H7 C9 1_555 1_555
C10 C9 1_555 1_555
H8 C10 1_555 1_555
N2 Cu1 1_555 1_555
P1 O1 1_555 1_555
O2 P1 1_555 1_555
O3 P1 1_555 1_555
O4 Cu1 1_555 1_555
P2 O2 1_555 1_555
O5 P2 1_555 1_555
O6 Cu1 1_555 1_555
O7 P2 1_555 1_555
O8 Cu1 1_555 1_555
H9 O8 1_555 1_555
H10 O8 1_555 1_555
O9 H11 1_555 1_555
H12 O9 1_555 1_555
O10 H13 1_555 1_555
H14 O10 1_555 1_555
O11 H15 1_555 1_555
H16 O11 1_555 1_555
O12 H17 1_555 1_555
H18 O12 1_555 1_555
O13 H19 1_555 1_555
H20 O13 1_555 1_555
O14 Na1 1_555 1_555
H21 O14 1_555 1_555
H22 O14 1_555 1_555
O15 Na2 1_555 1_555
H23 O15 1_555 1_555
H24 O15 1_555 1_555
O16 Na1 1_555 1_555
H25 O16 1_555 1_555
H26 O16 1_555 1_555
O17 Na2 1_555 1_555
H27 O17 1_555 1_555
H28 O17 1_555 1_555
O18 Na2 1_555 1_555
H29 O18 1_555 1_555
H30 O18 1_555 1_555
Na1A O11 1_555 1_555
Na1A_2 O14 1_555 1_555
Na2A O15 1_555 1_555
O11A Na1 1_555 1_555
H15A O11A 1_555 1_555
H16A O11A 1_555 1_555
O14A Na1 1_555 1_555
H21A O14A 1_555 1_555
H22A O14A 1_555 1_555
O15A Na2 1_555 1_555
H23A O15A 1_555 1_555
H24A O15A 1_555 1_555
O17A Na1 1_555 1_555
H27A O17A 1_555 1_555
H28A O17A 1_555 1_555
Na2 O16 1_555 1_555
C4 C5 1_555 1_555
C6 N2 1_555 1_555
C10 N2 1_555 1_555
P1 O4 1_555 1_555
P2 O6 1_555 1_555
O17 Na1A 1_555 1_555
Na1A O11A 1_555 1_555
Na1A_2 O14A 1_555 1_555
Na2A O15A 1_555 1_555

#END
