
#######################################################################
#
#                 Cambridge Crystallographic Data Centre
#                                CCDC 
#
#######################################################################
#
# If this CIF has been generated from an entry in the Cambridge 
# Structural Database, then it will include bibliographic, chemical, 
# crystal, experimental, refinement or atomic coordinate data resulting 
# from the CCDC's data processing and validation procedures.
#
#######################################################################

data_XAYKAK
_symmetry_cell_setting           triclinic
_symmetry_space_group_name_H-M   'P -1'
_symmetry_Int_Tables_number      2
_space_group_name_Hall           '-P 1'
loop_
_symmetry_equiv_pos_site_id
_symmetry_equiv_pos_as_xyz
1 x,y,z
2 -x,-y,-z
_cell_length_a                   10.4236(12)
_cell_length_b                   10.8499(9)
_cell_length_c                   11.4483(15)
_cell_angle_alpha                109.435(6)
_cell_angle_beta                 92.016(4)
_cell_angle_gamma                112.162(3)
_cell_volume                     1111.46
loop_
_atom_site_label
_atom_site_type_symbol
_atom_site_fract_x
_atom_site_fract_y
_atom_site_fract_z
La1 La 0.58492(2) 0.49161(2) 0.334117(18)
N1 N 0.6190(4) 0.3106(4) 0.1232(3)
N2 N 0.8464(4) 0.5004(4) 0.3068(4)
O1 O 0.3358(3) 0.3047(3) 0.2626(3)
O2 O 0.4529(3) 0.5087(4) 0.1486(3)
O3 O -0.3150(4) -0.3022(4) 0.0945(3)
O4 O -0.2672(3) -0.3016(3) 0.2843(3)
O5 O 0.6058(4) 0.2884(4) 0.3794(4)
C1 C 0.2591(4) 0.2792(4) 0.3392(4)
C2 C 0.1311(4) 0.1411(4) 0.2986(3)
C3 C 0.0354(5) 0.0930(5) 0.1899(4)
H1 H 0.0525 0.1447 0.1373
C4 C -0.0857(4) -0.0316(5) 0.1585(4)
H2 H -0.1513 -0.0610 0.0869
C5 C -0.1103(4) -0.1131(4) 0.2328(3)
C6 C -0.2399(4) -0.2493(4) 0.2002(4)
C7 C -0.0110(4) -0.0669(5) 0.3389(4)
H3 H -0.0246 -0.1218 0.3885
C8 C 0.1080(4) 0.0596(5) 0.3720(4)
H4 H 0.1730 0.0901 0.4444
C9 C 0.5549(4) 0.2685(5) 0.4709(5)
C10 C 0.5278(4) 0.1304(4) 0.4880(4)
C11 C 0.4447(5) 0.0907(4) 0.5720(4)
H5 H 0.4073 0.1516 0.6207
C12 C 0.5829(5) 0.0390(4) 0.4161(4)
H6 H 0.6389 0.0650 0.3594
C13 C 0.5071(7) 0.2105(7) 0.0372(5)
H7 H 0.4182 0.2004 0.0553
C14 C 0.5153(11) 0.1204(11) -0.0777(7)
H8 H 0.4339 0.0510 -0.1347
C15 C 0.6401(13) 0.1345(12) -0.1050(7)
H9 H 0.6463 0.0753 -0.1828
C16 C 0.7647(10) 0.2371(10) -0.0195(7)
C17 C 0.8979(13) 0.2548(15) -0.0431(9)
H10 H 0.9082 0.1990 -0.1207
C18 C 1.0123(10) 0.3502(12) 0.0431(10)
H11 H 1.1006 0.3615 0.0228
C19 C 1.0039(7) 0.4378(9) 0.1685(9)
C20 C 1.1139(9) 0.5293(12) 0.2606(14)
H12 H 1.2041 0.5402 0.2462
C21 C 1.0976(7) 0.6086(9) 0.3768(12)
H13 H 1.1750 0.6723 0.4407
C22 C 0.9570(6) 0.5893(7) 0.3956(8)
H14 H 0.9439 0.6417 0.4733
C23 C 0.8679(6) 0.4235(6) 0.1934(6)
C24 C 0.7481(6) 0.3231(6) 0.0980(5)
O6 O 0.2809(6) 0.3628(4) 0.4512(3)
O7 O 0.5245(5) 0.3576(4) 0.5484(6)
H15 H 0.513(5) 0.562(6) 0.122(6)
H16 H 0.403(6) 0.446(5) 0.084(4)
La1_2 La 1.58492(2) 1.49161(2) 0.334117(18)
La1_3 La -0.41508(2) -0.50839(2) 0.334117(18)
La1A La 0.41508(2) 0.50839(2) 0.665883(18)
La1A_2 La 0.41508(2) -0.49161(2) 0.665883(18)
La1_4 La 0.58492(2) -0.50839(2) 0.334117(18)
La1A_3 La 1.41508(2) 1.50839(2) 0.665883(18)
N1_2 N 1.6190(4) 1.3106(4) 0.1232(3)
N2_2 N 1.8464(4) 1.5004(4) 0.3068(4)
O1_2 O 1.3358(3) 1.3047(3) 0.2626(3)
O2_2 O 1.4529(3) 1.5087(4) 0.1486(3)
O3_2 O 0.6850(4) 0.6978(4) 0.0945(3)
O4_2 O 0.7328(3) 0.6984(3) 0.2843(3)
O4_3 O 1.7328(3) 1.6984(3) 0.2843(3)
O5A O 0.3942(4) -0.2884(4) 0.6206(4)
O5_2 O 1.6058(4) 1.2884(4) 0.3794(4)
C1_2 C 1.2591(4) 1.2792(4) 0.3392(4)
C2_2 C 1.1311(4) 1.1411(4) 0.2986(3)
C3_2 C 1.0354(5) 1.0930(5) 0.1899(4)
H1_2 H 1.0525 1.1447 0.1373
C4_2 C 0.9143(4) 0.9684(5) 0.1585(4)
H2_2 H 0.8487 0.9390 0.0869
C5_2 C 0.8897(4) 0.8869(4) 0.2328(3)
C6_2 C 0.7601(4) 0.7507(4) 0.2002(4)
C7_2 C 0.9890(4) 0.9331(5) 0.3389(4)
H3_2 H 0.9754 0.8782 0.3885
C8_2 C 1.1080(4) 1.0596(5) 0.3720(4)
H4_2 H 1.1730 1.0901 0.4444
C9A C 0.4451(4) -0.2685(5) 0.5291(5)
C10A C 0.4722(4) -0.1304(4) 0.5120(4)
C11A C 0.5553(5) -0.0907(4) 0.4280(4)
H5A H 0.5927 -0.1516 0.3793
C12A C 0.4171(5) -0.0390(4) 0.5839(4)
H6A H 0.3611 -0.0650 0.6406
C13_2 C 1.5071(7) 1.2105(7) 0.0372(5)
H7_2 H 1.4182 1.2004 0.0553
C14_2 C 1.5153(11) 1.1204(11) -0.0777(7)
H8_2 H 1.4339 1.0510 -0.1347
C15_2 C 1.6401(13) 1.1345(12) -0.1050(7)
H9_2 H 1.6463 1.0753 -0.1828
C16_2 C 1.7647(10) 1.2371(10) -0.0195(7)
C17_2 C 1.8979(13) 1.2548(15) -0.0431(9)
H10_2 H 1.9082 1.1990 -0.1207
C18_2 C 2.0123(10) 1.3502(12) 0.0431(10)
H11_2 H 2.1006 1.3615 0.0228
C19_2 C 2.0039(7) 1.4378(9) 0.1685(9)
C20_2 C 2.1139(9) 1.5293(12) 0.2606(14)
H12_2 H 2.2041 1.5402 0.2462
C21_2 C 2.0976(7) 1.6086(9) 0.3768(12)
H13_2 H 2.1750 1.6723 0.4407
C22_2 C 1.9570(6) 1.5893(7) 0.3956(8)
H14_2 H 1.9439 1.6417 0.4733
C23_2 C 1.8679(6) 1.4235(6) 0.1934(6)
C24_2 C 1.7481(6) 1.3231(6) 0.0980(5)
O6_2 O 1.2809(6) 1.3628(4) 0.4512(3)
O6A O 0.7191(6) 0.6372(4) 0.5488(3)
O6A_2 O 1.7191(6) 1.6372(4) 0.5488(3)
O7A O 0.4755(5) -0.3576(4) 0.4516(6)
O7A_2 O 0.4755(5) 0.6424(4) 0.4516(6)
O7A_3 O 1.4755(5) 1.6424(4) 0.4516(6)
H15_2 H 1.513(5) 1.562(6) 0.122(6)
H16_2 H 1.403(6) 1.446(5) 0.084(4)
loop_
_geom_bond_atom_site_label_1
_geom_bond_atom_site_label_2
_geom_bond_site_symmetry_1
_geom_bond_site_symmetry_2
La1 N1 1_555 1_555
N1 C13 1_555 1_555
N2 La1 1_555 1_555
O1 La1 1_555 1_555
O2 La1 1_555 1_555
O3 C6 1_555 1_555
O4 C6 1_555 1_555
O5 La1 1_555 1_555
C1 O1 1_555 1_555
C2 C1 1_555 1_555
C3 C2 1_555 1_555
H1 C3 1_555 1_555
C4 C3 1_555 1_555
H2 C4 1_555 1_555
C5 C4 1_555 1_555
C6 C5 1_555 1_555
C7 C5 1_555 1_555
H3 C7 1_555 1_555
C8 C2 1_555 1_555
H4 C8 1_555 1_555
C9 O5 1_555 1_555
C10 C9 1_555 1_555
C11 C10 1_555 1_555
H5 C11 1_555 1_555
C12 C10 1_555 1_555
H6 C12 1_555 1_555
C13 H7 1_555 1_555
C14 C13 1_555 1_555
H8 C14 1_555 1_555
C15 C14 1_555 1_555
H9 C15 1_555 1_555
C16 C15 1_555 1_555
C17 C16 1_555 1_555
H10 C17 1_555 1_555
C18 C17 1_555 1_555
H11 C18 1_555 1_555
C19 C18 1_555 1_555
C20 C19 1_555 1_555
H12 C20 1_555 1_555
C21 C20 1_555 1_555
H13 C21 1_555 1_555
C22 N2 1_555 1_555
H14 C22 1_555 1_555
C23 N2 1_555 1_555
C24 N1 1_555 1_555
O6 C1 1_555 1_555
O7 C9 1_555 1_555
H15 O2 1_555 1_555
H16 O2 1_555 1_555
La1_2 N1_2 1_555 1_555
La1_3 O4 1_555 1_555
La1A O6 1_555 1_555
La1A_2 O5A 1_555 1_555
La1_4 O7A 1_555 1_555
La1A_3 O6_2 1_555 1_555
N1_2 C13_2 1_555 1_555
N2_2 La1_2 1_555 1_555
O1_2 La1_2 1_555 1_555
O2_2 La1_2 1_555 1_555
O3_2 C6_2 1_555 1_555
O4_2 La1 1_555 1_555
O4_3 La1_2 1_555 1_555
O5A C9A 1_555 1_555
O5_2 La1_2 1_555 1_555
C1_2 O1_2 1_555 1_555
C2_2 C1_2 1_555 1_555
C3_2 C2_2 1_555 1_555
H1_2 C3_2 1_555 1_555
C4_2 C3_2 1_555 1_555
H2_2 C4_2 1_555 1_555
C5_2 C4_2 1_555 1_555
C6_2 O4_2 1_555 1_555
C7_2 C5_2 1_555 1_555
H3_2 C7_2 1_555 1_555
C8_2 C2_2 1_555 1_555
H4_2 C8_2 1_555 1_555
C9A C10A 1_555 1_555
C10A C11A 1_555 1_555
C11A C12 1_555 1_555
H5A C11A 1_555 1_555
C12A C11 1_555 1_555
H6A C12A 1_555 1_555
C13_2 H7_2 1_555 1_555
C14_2 C13_2 1_555 1_555
H8_2 C14_2 1_555 1_555
C15_2 C14_2 1_555 1_555
H9_2 C15_2 1_555 1_555
C16_2 C15_2 1_555 1_555
C17_2 C16_2 1_555 1_555
H10_2 C17_2 1_555 1_555
C18_2 C17_2 1_555 1_555
H11_2 C18_2 1_555 1_555
C19_2 C18_2 1_555 1_555
C20_2 C19_2 1_555 1_555
H12_2 C20_2 1_555 1_555
C21_2 C20_2 1_555 1_555
H13_2 C21_2 1_555 1_555
C22_2 N2_2 1_555 1_555
H14_2 C22_2 1_555 1_555
C23_2 N2_2 1_555 1_555
C24_2 N1_2 1_555 1_555
O6_2 C1_2 1_555 1_555
O6A La1 1_555 1_555
O6A_2 La1_2 1_555 1_555
O7A C9A 1_555 1_555
O7A_2 La1 1_555 1_555
O7A_3 La1_2 1_555 1_555
H15_2 O2_2 1_555 1_555
H16_2 O2_2 1_555 1_555
C7 C8 1_555 1_555
C16 C24 1_555 1_555
C19 C23 1_555 1_555
C21 C22 1_555 1_555
C23 C24 1_555 1_555
O7 La1A 1_555 1_555
C5_2 C6_2 1_555 1_555
C7_2 C8_2 1_555 1_555
C10A C12A 1_555 1_555
C16_2 C24_2 1_555 1_555
C19_2 C23_2 1_555 1_555
C21_2 C22_2 1_555 1_555
C23_2 C24_2 1_555 1_555

#END
