
#######################################################################
#
#                 Cambridge Crystallographic Data Centre
#                                CCDC 
#
#######################################################################
#
# If this CIF has been generated from an entry in the Cambridge 
# Structural Database, then it will include bibliographic, chemical, 
# crystal, experimental, refinement or atomic coordinate data resulting 
# from the CCDC's data processing and validation procedures.
#
#######################################################################

data_XAYQIY
_symmetry_cell_setting           monoclinic
_symmetry_space_group_name_H-M   'P 21/c'
_symmetry_Int_Tables_number      14
_space_group_name_Hall           '-P 2ybc'
loop_
_symmetry_equiv_pos_site_id
_symmetry_equiv_pos_as_xyz
1 x,y,z
2 -x,1/2+y,1/2-z
3 -x,-y,-z
4 x,1/2-y,1/2+z
_cell_length_a                   11.373(4)
_cell_length_b                   7.713(3)
_cell_length_c                   16.862(4)
_cell_angle_alpha                90
_cell_angle_beta                 105.56(2)
_cell_angle_gamma                90
_cell_volume                     1424.92
loop_
_atom_site_label
_atom_site_type_symbol
_atom_site_fract_x
_atom_site_fract_y
_atom_site_fract_z
Ag1 Ag 0.99897(6) 0.28321(7) 0.32648(3)
S1 S 1.0019(3) 0.6019(3) 0.29741(13)
C1 C 0.9957(7) 0.7156(9) 0.3736(5)
N1 N 0.9935(8) 0.7971(8) 0.4260(4)
N2 N 0.8306(7) 0.1636(10) 0.3584(4)
C2 C 0.7409(11) 0.0531(11) 0.2935(8)
C3 C 0.6597(9) 0.1607(13) 0.2231(6)
C4 C 0.5884(8) 0.2930(13) 0.2484(6)
C5 C 0.6805(10) 0.3990(12) 0.3175(6)
C6 C 0.7614(10) 0.2871(14) 0.3868(6)
N3 N 1.1686(7) 0.1606(13) 0.4426(5)
C7 C 1.2583(11) 0.0384(13) 0.4255(8)
C8 C 1.3401(12) 0.1408(16) 0.3943(8)
C9 C 1.4037(11) 0.2811(16) 0.4451(8)
C10 C 1.3160(11) 0.3867(13) 0.4702(6)
C11 C 1.2341(13) 0.2811(19) 0.4992(8)
H1 H 0.87210 0.08475 0.39954
H2 H 0.68882 -0.00753 0.31988
H3 H 0.78478 -0.02599 0.27012
H4 H 0.70804 0.21263 0.19306
H5 H 0.60285 0.08128 0.18752
H6 H 0.52442 0.24320 0.26839
H7 H 0.54984 0.36587 0.20198
H8 H 0.73237 0.46248 0.29181
H9 H 0.63541 0.47774 0.34095
H10 H 0.70959 0.22872 0.41366
H11 H 0.81484 0.36196 0.42419
H12 H 1.11047 0.10129 0.46357
H13 H 1.30707 -0.01870 0.47411
H14 H 1.22330 -0.04966 0.38615
H15 H 1.28967 0.19395 0.34385
H16 H 1.39716 0.06724 0.37836
H17 H 1.45727 0.22745 0.49479
H18 H 1.45122 0.34429 0.41891
H19 H 1.26789 0.45181 0.42349
H20 H 1.35372 0.46888 0.51177
H21 H 1.28720 0.21468 0.54385
H22 H 1.18322 0.35068 0.51957
Ag1A Ag 1.00103(6) 0.78321(7) 0.17352(3)
S1A S 0.9981(3) 0.1019(3) 0.20259(13)
loop_
_geom_bond_atom_site_label_1
_geom_bond_atom_site_label_2
_geom_bond_site_symmetry_1
_geom_bond_site_symmetry_2
Ag1 S1 1_555 1_555
S1 C1 1_555 1_555
C1 N1 1_555 1_555
N2 Ag1 1_555 1_555
C2 N2 1_555 1_555
C3 C2 1_555 1_555
C4 C3 1_555 1_555
C5 C4 1_555 1_555
C6 N2 1_555 1_555
N3 Ag1 1_555 1_555
C7 N3 1_555 1_555
C8 C7 1_555 1_555
C9 C8 1_555 1_555
C10 C9 1_555 1_555
C11 N3 1_555 1_555
H1 N2 1_555 1_555
H2 C2 1_555 1_555
H3 C2 1_555 1_555
H4 C3 1_555 1_555
H5 C3 1_555 1_555
H6 C4 1_555 1_555
H7 C4 1_555 1_555
H8 C5 1_555 1_555
H9 C5 1_555 1_555
H10 C6 1_555 1_555
H11 C6 1_555 1_555
H12 N3 1_555 1_555
H13 C7 1_555 1_555
H14 C7 1_555 1_555
H15 C8 1_555 1_555
H16 C8 1_555 1_555
H17 C9 1_555 1_555
H18 C9 1_555 1_555
H19 C10 1_555 1_555
H20 C10 1_555 1_555
H21 C11 1_555 1_555
H22 C11 1_555 1_555
Ag1A S1 1_555 1_555
S1A Ag1 1_555 1_555
C5 C6 1_555 1_555
C10 C11 1_555 1_555

#END
