
#######################################################################
#
#                 Cambridge Crystallographic Data Centre
#                                CCDC 
#
#######################################################################
#
# If this CIF has been generated from an entry in the Cambridge 
# Structural Database, then it will include bibliographic, chemical, 
# crystal, experimental, refinement or atomic coordinate data resulting 
# from the CCDC's data processing and validation procedures.
#
#######################################################################

data_XAYQEU
_symmetry_cell_setting           orthorhombic
_symmetry_space_group_name_H-M   'P n m a'
_symmetry_Int_Tables_number      62
_space_group_name_Hall           '-P 2ac 2n'
loop_
_symmetry_equiv_pos_site_id
_symmetry_equiv_pos_as_xyz
1 x,y,z
2 1/2-x,-y,1/2+z
3 1/2+x,1/2-y,1/2-z
4 -x,1/2+y,-z
5 -x,-y,-z
6 1/2+x,y,1/2-z
7 1/2-x,1/2+y,1/2+z
8 x,1/2-y,z
_cell_length_a                   11.018(2)
_cell_length_b                   21.511(3)
_cell_length_c                   5.8964(9)
_cell_angle_alpha                90
_cell_angle_beta                 90
_cell_angle_gamma                90
_cell_volume                     1397.5
loop_
_atom_site_label
_atom_site_type_symbol
_atom_site_fract_x
_atom_site_fract_y
_atom_site_fract_z
Cu1 Cu 0.456750(18) 0.25000 0.07862(3)
S1 S 0.29663(4) 0.25000 -0.17367(7)
C1 C 0.36313(15) 0.25000 -0.4263(3)
N1 N 0.40468(15) 0.25000 -0.6067(2)
N2 N 0.57293(10) 0.17376(5) 0.00156(18)
C2 C 0.51958(15) 0.12241(7) -0.1310(3)
C3 C 0.61315(18) 0.07277(8) -0.1933(3)
C4 C 0.67636(16) 0.04766(7) 0.0175(3)
C5 C 0.73017(14) 0.10088(7) 0.1546(3)
C6 C 0.63434(13) 0.14974(6) 0.2069(2)
H1 H 0.6233(16) 0.1898(8) -0.077(3)
H2 H 0.4773(15) 0.1393(8) -0.265(4)
H3 H 0.4574(13) 0.1048(9) -0.041(3)
H4 H 0.6796(16) 0.0910(10) -0.286(3)
H5 H 0.5774(18) 0.0391(11) -0.276(4)
H6 H 0.738(2) 0.0199(10) -0.029(3)
H7 H 0.6188(19) 0.0265(10) 0.106(3)
H8 H 0.7923(16) 0.1188(9) 0.072(3)
H9 H 0.7722(16) 0.0878(9) 0.295(3)
H10 H 0.5675(13) 0.1316(8) 0.303(3)
H11 H 0.6675(14) 0.1838(8) 0.285(3)
Cu1_2 Cu 0.456750(18) 0.25000 -0.92138(3)
N1_2 N 0.40468(15) 0.25000 0.3933(2)
N2G N 0.57293(10) 0.32624(5) 0.00156(18)
C2G C 0.51958(15) 0.37759(7) -0.1310(3)
C3G C 0.61315(18) 0.42723(8) -0.1933(3)
C4G C 0.67636(16) 0.45234(7) 0.0175(3)
C5G C 0.73017(14) 0.39912(7) 0.1546(3)
C6G C 0.63434(13) 0.35026(6) 0.2069(2)
H1G H 0.6233(16) 0.3102(8) -0.077(3)
H2G H 0.4773(15) 0.3607(8) -0.265(4)
H3G H 0.4574(13) 0.3952(9) -0.041(3)
H4G H 0.6796(16) 0.4090(10) -0.286(3)
H5G H 0.5774(18) 0.4609(11) -0.276(4)
H6G H 0.738(2) 0.4801(10) -0.029(3)
H7G H 0.6188(19) 0.4735(10) 0.106(3)
H8G H 0.7923(16) 0.3812(9) 0.072(3)
H9G H 0.7722(16) 0.4122(9) 0.295(3)
H10G H 0.5675(13) 0.3684(8) 0.303(3)
H11G H 0.6675(14) 0.3162(8) 0.285(3)
loop_
_geom_bond_atom_site_label_1
_geom_bond_atom_site_label_2
_geom_bond_site_symmetry_1
_geom_bond_site_symmetry_2
Cu1 S1 1_555 1_555
S1 C1 1_555 1_555
C1 N1 1_555 1_555
N1 Cu1_2 1_555 1_555
N2 Cu1 1_555 1_555
C2 N2 1_555 1_555
C3 C2 1_555 1_555
C4 C3 1_555 1_555
C5 C4 1_555 1_555
C6 N2 1_555 1_555
H1 N2 1_555 1_555
H2 C2 1_555 1_555
H3 C2 1_555 1_555
H4 C3 1_555 1_555
H5 C3 1_555 1_555
H6 C4 1_555 1_555
H7 C4 1_555 1_555
H8 C5 1_555 1_555
H9 C5 1_555 1_555
H10 C6 1_555 1_555
H11 C6 1_555 1_555
N1_2 Cu1 1_555 1_555
N2G Cu1 1_555 1_555
C2G N2G 1_555 1_555
C3G C2G 1_555 1_555
C4G C3G 1_555 1_555
C5G C4G 1_555 1_555
C6G N2G 1_555 1_555
H1G N2G 1_555 1_555
H2G C2G 1_555 1_555
H3G C2G 1_555 1_555
H4G C3G 1_555 1_555
H5G C3G 1_555 1_555
H6G C4G 1_555 1_555
H7G C4G 1_555 1_555
H8G C5G 1_555 1_555
H9G C5G 1_555 1_555
H10G C6G 1_555 1_555
H11G C6G 1_555 1_555
C5 C6 1_555 1_555
C5G C6G 1_555 1_555

#END
