
#######################################################################
#
#                 Cambridge Crystallographic Data Centre
#                                CCDC 
#
#######################################################################
#
# If this CIF has been generated from an entry in the Cambridge 
# Structural Database, then it will include bibliographic, chemical, 
# crystal, experimental, refinement or atomic coordinate data resulting 
# from the CCDC's data processing and validation procedures.
#
#######################################################################

data_XAYSOG
_symmetry_cell_setting           orthorhombic
_symmetry_space_group_name_H-M   'P b c a'
_symmetry_Int_Tables_number      61
_space_group_name_Hall           '-P 2ac 2ab'
loop_
_symmetry_equiv_pos_site_id
_symmetry_equiv_pos_as_xyz
1 x,y,z
2 1/2-x,-y,1/2+z
3 -x,1/2+y,1/2-z
4 1/2+x,1/2-y,-z
5 -x,-y,-z
6 1/2+x,y,1/2-z
7 x,1/2-y,1/2+z
8 1/2-x,1/2+y,z
_cell_length_a                   9.6254(18)
_cell_length_b                   17.980(3)
_cell_length_c                   25.131(5)
_cell_angle_alpha                90
_cell_angle_beta                 90
_cell_angle_gamma                90
_cell_volume                     4349.29
loop_
_atom_site_label
_atom_site_type_symbol
_atom_site_fract_x
_atom_site_fract_y
_atom_site_fract_z
Ni1 Ni 0.5000 0.0000 0.5000
Ni2 Ni -0.07635(2) -0.499830(14) 0.633840(9)
O1 O 0.06851(15) -0.41892(8) 0.63059(5)
O2 O 0.65143(14) 0.01654(7) 0.55801(5)
O3 O 0.45021(15) -0.09846(7) 0.53191(5)
O4 O 0.13592(15) -0.44161(7) 0.54632(5)
O5 O 0.76763(15) -0.06312(8) 0.60734(5)
O6 O 0.44791(15) -0.08600(8) 0.62104(5)
N1 N -0.07394(18) -0.52146(10) 0.71450(7)
N2 N -0.21837(19) -0.42064(10) 0.66230(7)
C1 C 0.7616(2) -0.02339(11) 0.56683(8)
C2 C 0.3478(2) -0.19343(11) 0.58182(8)
C3 C 0.1312(2) -0.40289(10) 0.58746(7)
C4 C -0.1643(2) -0.48133(12) 0.74420(8)
C5 C 0.4217(2) -0.11967(11) 0.57803(8)
C6 C 0.2083(2) -0.32978(11) 0.58654(8)
C7 C 0.9956(2) -0.06148(12) 0.53373(8)
H1 H 0.9923 -0.1025 0.5562
C8 C 0.8876(2) 0.04849(12) 0.49706(8)
H2 H 0.8121 0.0807 0.4952
C9 C -0.2495(2) -0.42672(12) 0.71442(8)
C10 C -0.3532(3) -0.38399(13) 0.73778(9)
H3 H -0.3744 -0.3896 0.7736
C11 C 0.2765(3) -0.30800(12) 0.54043(9)
H4 H 0.2766 -0.3392 0.5109
C12 C 0.8834(2) -0.01298(11) 0.53097(8)
C13 C 0.0097(2) -0.57020(12) 0.73887(9)
H5 H 0.0704 -0.5985 0.7184
C14 C 0.3444(3) -0.24022(12) 0.53803(9)
H6 H 0.3882 -0.2259 0.5067
C15 C -0.0837(3) -0.54007(17) 0.82378(10)
H7 H -0.0871 -0.5464 0.8605
C16 C 0.0091(3) -0.58005(15) 0.79373(9)
H8 H 0.0704 -0.6131 0.8098
C17 C -0.4235(3) -0.33343(16) 0.70716(11)
H9 H -0.4941 -0.3048 0.7220
C18 C 0.2798(2) -0.21506(12) 0.62809(8)
H10 H 0.2812 -0.1842 0.6578
C19 C -0.1718(3) -0.49047(15) 0.79899(9)
H11 H -0.2358 -0.4634 0.8188
C20 C -0.2856(3) -0.37028(14) 0.63308(9)
H12 H -0.2624 -0.3652 0.5973
C21 C -0.3889(3) -0.32518(16) 0.65404(11)
H13 H -0.4339 -0.2902 0.6329
C22 C 0.2097(2) -0.28268(12) 0.63024(8)
H14 H 0.1634 -0.2964 0.6612
Ni1G Ni 0.0000 -0.5000 0.5000
Ni1_2 Ni 1.5000 0.0000 0.5000
Ni1G_2 Ni 1.0000 0.5000 0.5000
Ni2D Ni 1.07635(2) 0.499830(14) 0.366160(9)
Ni2G Ni 0.57635(2) 0.000170(14) 0.633840(9)
Ni2C Ni 1.42365(2) -0.000170(14) 0.366160(9)
Ni2C_2 Ni 0.42365(2) -0.000170(14) 0.366160(9)
O1D O 0.93149(15) 0.41892(8) 0.36941(5)
O2D O 1.34857(14) -0.01654(7) 0.44199(5)
O2D_2 O 0.34857(14) -0.01654(7) 0.44199(5)
O2G O -0.15143(14) -0.48346(7) 0.55801(5)
O2C O 1.15143(14) 0.48346(7) 0.44199(5)
O3D O 0.54979(15) 0.09846(7) 0.46809(5)
O4D O 0.86408(15) 0.44161(7) 0.45368(5)
O4G O 0.36408(15) 0.05839(7) 0.54632(5)
O4C O 0.63592(15) -0.05839(7) 0.45368(5)
O5D O 1.23237(15) 0.06312(8) 0.39266(5)
O5G O -0.26763(15) -0.56312(8) 0.60734(5)
O5C O 1.26763(15) 0.56312(8) 0.39266(5)
O6D O 0.55209(15) 0.08600(8) 0.37896(5)
O6G O 0.05209(15) -0.58600(8) 0.62104(5)
O6C O 0.94791(15) 0.58600(8) 0.37896(5)
N1D N 1.07394(18) 0.52146(10) 0.28550(7)
N2D N 1.21837(19) 0.42064(10) 0.33770(7)
C1D C 1.2384(2) 0.02339(11) 0.43317(8)
C2D C 0.6522(2) 0.19343(11) 0.41818(8)
C3D C 0.8688(2) 0.40289(10) 0.41254(7)
C4D C 1.1643(2) 0.48133(12) 0.25580(8)
C5D C 0.5783(2) 0.11967(11) 0.42197(8)
C6D C 0.7917(2) 0.32978(11) 0.41346(8)
C7D C 1.0044(2) 0.06148(12) 0.46627(8)
H1D H 1.0077 0.1025 0.4438
C8D C 1.1124(2) -0.04849(12) 0.50294(8)
H2D H 1.1879 -0.0807 0.5048
C9D C 1.2495(2) 0.42672(12) 0.28558(8)
C10D C 1.3532(3) 0.38399(13) 0.26222(9)
H3D H 1.3744 0.3896 0.2264
C11D C 0.7235(3) 0.30800(12) 0.45957(9)
H4D H 0.7234 0.3392 0.4891
C12D C 1.1166(2) 0.01298(11) 0.46903(8)
C13D C 0.9903(2) 0.57020(12) 0.26113(9)
H5D H 0.9296 0.5985 0.2816
C14D C 0.6556(3) 0.24022(12) 0.46197(9)
H6D H 0.6118 0.2259 0.4933
C15D C 1.0837(3) 0.54007(17) 0.17622(10)
H7D H 1.0871 0.5464 0.1395
C16D C 0.9909(3) 0.58005(15) 0.20627(9)
H8D H 0.9296 0.6131 0.1902
C17D C 1.4235(3) 0.33343(16) 0.29284(11)
H9D H 1.4941 0.3048 0.2780
C18D C 0.7202(2) 0.21506(12) 0.37191(8)
H10D H 0.7188 0.1842 0.3422
C19D C 1.1718(3) 0.49047(15) 0.20101(9)
H11D H 1.2358 0.4634 0.1812
C20D C 1.2856(3) 0.37028(14) 0.36692(9)
H12D H 1.2624 0.3652 0.4027
C21D C 1.3889(3) 0.32518(16) 0.34596(11)
H13D H 1.4339 0.2902 0.3671
C22D C 0.7903(2) 0.28268(12) 0.36976(8)
H14D H 0.8366 0.2964 0.3388
loop_
_geom_bond_atom_site_label_1
_geom_bond_atom_site_label_2
_geom_bond_site_symmetry_1
_geom_bond_site_symmetry_2
Ni1 O2 1_555 1_555
Ni2 O1 1_555 1_555
O1 C3 1_555 1_555
O2 C1 1_555 1_555
O3 Ni1 1_555 1_555
O4 C3 1_555 1_555
O5 C1 1_555 1_555
O6 C5 1_555 1_555
N1 Ni2 1_555 1_555
N2 Ni2 1_555 1_555
C1 C12 1_555 1_555
C2 C5 1_555 1_555
C3 C6 1_555 1_555
C4 N1 1_555 1_555
C5 O3 1_555 1_555
C6 C11 1_555 1_555
C7 H1 1_555 1_555
C8 H2 1_555 1_555
C9 N2 1_555 1_555
C10 C9 1_555 1_555
H3 C10 1_555 1_555
C11 H4 1_555 1_555
C12 C7 1_555 1_555
C13 N1 1_555 1_555
H5 C13 1_555 1_555
C14 C2 1_555 1_555
H6 C14 1_555 1_555
C15 H7 1_555 1_555
C16 C13 1_555 1_555
H8 C16 1_555 1_555
C17 C10 1_555 1_555
H9 C17 1_555 1_555
C18 C2 1_555 1_555
H10 C18 1_555 1_555
C19 C4 1_555 1_555
H11 C19 1_555 1_555
C20 N2 1_555 1_555
H12 C20 1_555 1_555
C21 C17 1_555 1_555
H13 C21 1_555 1_555
C22 C6 1_555 1_555
H14 C22 1_555 1_555
Ni1G O4 1_555 1_555
Ni1_2 O2D 1_555 1_555
Ni1G_2 O2C 1_555 1_555
Ni2D O1D 1_555 1_555
Ni2G O2 1_555 1_555
Ni2C O2D 1_555 1_555
Ni2C_2 O2D_2 1_555 1_555
O1D C3D 1_555 1_555
O2D C1D 1_555 1_555
O2D_2 Ni1 1_555 1_555
O2G Ni2 1_555 1_555
O2C Ni2D 1_555 1_555
O3D Ni1 1_555 1_555
O4D Ni1G_2 1_555 1_555
O4G Ni1 1_555 1_555
O4C Ni1 1_555 1_555
O5D Ni2C 1_555 1_555
O5G Ni2 1_555 1_555
O5C Ni2D 1_555 1_555
O6D Ni2C_2 1_555 1_555
O6G Ni2 1_555 1_555
O6C Ni2D 1_555 1_555
N1D Ni2D 1_555 1_555
N2D Ni2D 1_555 1_555
C1D O5D 1_555 1_555
C2D C5D 1_555 1_555
C3D O4D 1_555 1_555
C4D N1D 1_555 1_555
C5D O3D 1_555 1_555
C6D C3D 1_555 1_555
C7D C8 1_555 1_555
H1D C7D 1_555 1_555
C8D C7 1_555 1_555
H2D C8D 1_555 1_555
C9D N2D 1_555 1_555
C10D C9D 1_555 1_555
H3D C10D 1_555 1_555
C11D C6D 1_555 1_555
H4D C11D 1_555 1_555
C12D C1D 1_555 1_555
C13D N1D 1_555 1_555
H5D C13D 1_555 1_555
C14D C2D 1_555 1_555
H6D C14D 1_555 1_555
C15D H7D 1_555 1_555
C16D C13D 1_555 1_555
H8D C16D 1_555 1_555
C17D C10D 1_555 1_555
H9D C17D 1_555 1_555
C18D C2D 1_555 1_555
H10D C18D 1_555 1_555
C19D C4D 1_555 1_555
H11D C19D 1_555 1_555
C20D N2D 1_555 1_555
H12D C20D 1_555 1_555
C21D C17D 1_555 1_555
H13D C21D 1_555 1_555
C22D C6D 1_555 1_555
H14D C22D 1_555 1_555
O5 Ni2G 1_555 1_555
O6 Ni2G 1_555 1_555
C4 C9 1_555 1_555
C8 C12 1_555 1_555
C11 C14 1_555 1_555
C15 C16 1_555 1_555
C15 C19 1_555 1_555
C18 C22 1_555 1_555
C20 C21 1_555 1_555
Ni1G O2G 1_555 1_555
O6D C5D 1_555 1_555
C4D C9D 1_555 1_555
C7D C12D 1_555 1_555
C8D C12D 1_555 1_555
C11D C14D 1_555 1_555
C15D C16D 1_555 1_555
C15D C19D 1_555 1_555
C18D C22D 1_555 1_555
C20D C21D 1_555 1_555

#END
