
#######################################################################
#
#                 Cambridge Crystallographic Data Centre
#                                CCDC 
#
#######################################################################
#
# If this CIF has been generated from an entry in the Cambridge 
# Structural Database, then it will include bibliographic, chemical, 
# crystal, experimental, refinement or atomic coordinate data resulting 
# from the CCDC's data processing and validation procedures.
#
#######################################################################

data_XAYSUM
_symmetry_cell_setting           orthorhombic
_symmetry_space_group_name_H-M   'P b c n'
_symmetry_Int_Tables_number      60
_space_group_name_Hall           '-P 2n 2ab'
loop_
_symmetry_equiv_pos_site_id
_symmetry_equiv_pos_as_xyz
1 x,y,z
2 1/2-x,1/2-y,1/2+z
3 -x,y,1/2-z
4 1/2+x,1/2-y,-z
5 -x,-y,-z
6 1/2+x,1/2+y,1/2-z
7 x,-y,1/2+z
8 1/2-x,1/2+y,z
_cell_length_a                   14.266(2)
_cell_length_b                   10.6915(15)
_cell_length_c                   17.171(2)
_cell_angle_alpha                90
_cell_angle_beta                 90
_cell_angle_gamma                90
_cell_volume                     2619.01
loop_
_atom_site_label
_atom_site_type_symbol
_atom_site_fract_x
_atom_site_fract_y
_atom_site_fract_z
C1 C 0.96980(14) 0.45922(18) 0.11854(11)
H1 H 0.9076 0.4853 0.1196
C2 C 0.99512(16) 0.3661(2) 0.06717(16)
H2 H 0.9512 0.3312 0.0335
C3 C 1.08603(18) 0.3261(2) 0.06666(16)
H3 H 1.1044 0.2618 0.0335
C4 C 1.15028(16) 0.3815(2) 0.11537(14)
H4 H 1.2125 0.3554 0.1155
C5 C 1.12069(12) 0.47689(15) 0.16433(9)
C6 C 1.18562(11) 0.54664(15) 0.21587(9)
C7 C 1.28148(14) 0.5270(2) 0.21639(13)
H5 H 1.3080 0.4653 0.1852
C8 C 1.33723(15) 0.5999(3) 0.26364(14)
H6 H 1.4019 0.5887 0.2641
C9 C 1.29646(15) 0.6891(2) 0.31007(14)
H7 H 1.3328 0.7394 0.3424
C10 C 1.20018(13) 0.70254(18) 0.30757(11)
H8 H 1.1724 0.7624 0.3394
C11 C 1.05715(11) 0.81132(14) 0.11337(8)
C12 C 1.08541(11) 0.94029(15) -0.00745(10)
H9 H 1.1430 0.9005 -0.0128
C13 C 1.02756(11) 0.91058(14) 0.05524(8)
C14 C 0.94219(12) 0.97149(15) 0.06172(9)
H10 H 0.9028 0.9527 0.1032
O1 O 1.13377(8) 0.75915(12) 0.10377(7)
O2 O 0.99937(8) 0.79003(12) 0.16749(7)
Ni1 Ni 1.0000 0.65248(2) 0.2500
N1 N 1.03071(10) 0.51366(12) 0.16695(7)
N2 N 1.14529(10) 0.63360(13) 0.26168(7)
C1B C 1.03020(14) 0.45922(18) 0.38146(11)
H1B H 1.0924 0.4853 0.3804
C2B C 1.00488(16) 0.3661(2) 0.43283(16)
H2B H 1.0488 0.3312 0.4665
C3B C 0.91397(18) 0.3261(2) 0.43334(16)
H3B H 0.8956 0.2618 0.4665
C4B C 0.84972(16) 0.3815(2) 0.38463(14)
H4B H 0.7875 0.3554 0.3845
C5B C 0.87931(12) 0.47689(15) 0.33567(9)
C6B C 0.81438(11) 0.54664(15) 0.28413(9)
C7B C 0.71852(14) 0.5270(2) 0.28361(13)
H5B H 0.6920 0.4653 0.3148
C8B C 0.66277(15) 0.5999(3) 0.23636(14)
H6B H 0.5981 0.5887 0.2359
C9B C 0.70354(15) 0.6891(2) 0.18993(14)
H7B H 0.6672 0.7394 0.1576
C10B C 0.79982(13) 0.70254(18) 0.19243(11)
H8B H 0.8276 0.7624 0.1606
C11D C 0.94285(11) 1.18868(14) -0.11337(8)
C12D C 0.91459(11) 1.05971(15) 0.00745(10)
H9D H 0.8570 1.0995 0.0128
C13D C 0.97244(11) 1.08942(14) -0.05524(8)
C14D C 1.05781(12) 1.02851(15) -0.06172(9)
H10D H 1.0972 1.0473 -0.1032
O1D O 0.86623(8) 1.24085(12) -0.10377(7)
O2D O 1.00063(8) 1.20997(12) -0.16749(7)
O2B O 1.00063(8) 0.79003(12) 0.33251(7)
Ni1F Ni 1.0000 1.34752(2) -0.2500
N1B N 0.96929(10) 0.51366(12) 0.33305(7)
N2B N 0.85471(10) 0.63360(13) 0.23832(7)
O3 O 1.23013(16) 0.6454(2) -0.01508(14)
loop_
_geom_bond_atom_site_label_1
_geom_bond_atom_site_label_2
_geom_bond_site_symmetry_1
_geom_bond_site_symmetry_2
C1 H1 1_555 1_555
C2 C1 1_555 1_555
H2 C2 1_555 1_555
C3 C2 1_555 1_555
H3 C3 1_555 1_555
C4 C3 1_555 1_555
H4 C4 1_555 1_555
C5 C4 1_555 1_555
C6 C5 1_555 1_555
C7 C6 1_555 1_555
H5 C7 1_555 1_555
C8 C7 1_555 1_555
H6 C8 1_555 1_555
C9 C8 1_555 1_555
H7 C9 1_555 1_555
C10 C9 1_555 1_555
H8 C10 1_555 1_555
C11 C13 1_555 1_555
C12 H9 1_555 1_555
C13 C12 1_555 1_555
C14 C13 1_555 1_555
H10 C14 1_555 1_555
O1 C11 1_555 1_555
O2 C11 1_555 1_555
Ni1 O2 1_555 1_555
N1 C1 1_555 1_555
N2 C6 1_555 1_555
C1B H1B 1_555 1_555
C2B C1B 1_555 1_555
H2B C2B 1_555 1_555
C3B C2B 1_555 1_555
H3B C3B 1_555 1_555
C4B C3B 1_555 1_555
H4B C4B 1_555 1_555
C5B C4B 1_555 1_555
C6B C5B 1_555 1_555
C7B C6B 1_555 1_555
H5B C7B 1_555 1_555
C8B C7B 1_555 1_555
H6B C8B 1_555 1_555
C9B C8B 1_555 1_555
H7B C9B 1_555 1_555
C10B C9B 1_555 1_555
H8B C10B 1_555 1_555
C11D C13D 1_555 1_555
C12D C14 1_555 1_555
H9D C12D 1_555 1_555
C13D C12D 1_555 1_555
C14D C12 1_555 1_555
H10D C14D 1_555 1_555
O1D C11D 1_555 1_555
O2D C11D 1_555 1_555
O2B Ni1 1_555 1_555
Ni1F O2D 1_555 1_555
N1B Ni1 1_555 1_555
N2B Ni1 1_555 1_555
C5 N1 1_555 1_555
C10 N2 1_555 1_555
Ni1 N1 1_555 1_555
Ni1 N2 1_555 1_555
C1B N1B 1_555 1_555
C5B N1B 1_555 1_555
C6B N2B 1_555 1_555
C10B N2B 1_555 1_555
C13D C14D 1_555 1_555

#END
