
#######################################################################
#
#                 Cambridge Crystallographic Data Centre
#                                CCDC 
#
#######################################################################
#
# If this CIF has been generated from an entry in the Cambridge 
# Structural Database, then it will include bibliographic, chemical, 
# crystal, experimental, refinement or atomic coordinate data resulting 
# from the CCDC's data processing and validation procedures.
#
#######################################################################

data_XAYWIE
_symmetry_cell_setting           orthorhombic
_symmetry_space_group_name_H-M   'P n m n'
_symmetry_Int_Tables_number      58
_space_group_name_Hall           '-P 2n 2n'
loop_
_symmetry_equiv_pos_site_id
_symmetry_equiv_pos_as_xyz
1 x,y,z
2 1/2-x,1/2-y,1/2+z
3 1/2+x,1/2-y,1/2-z
4 -x,y,-z
5 -x,-y,-z
6 1/2+x,1/2+y,1/2-z
7 1/2-x,1/2+y,1/2+z
8 x,-y,z
_cell_length_a                   5.599(1)
_cell_length_b                   7.401(2)
_cell_length_c                   14.232(4)
_cell_angle_alpha                90
_cell_angle_beta                 90
_cell_angle_gamma                90
_cell_volume                     589.748
loop_
_atom_site_label
_atom_site_type_symbol
_atom_site_fract_x
_atom_site_fract_y
_atom_site_fract_z
Mn1 Mn 0.5000 0.0000 0.5000
C1 C 1.0000 0.1035(4) 0.5000
O1 O 0.8029(2) 0.1821(2) 0.4929(1)
N1 N 0.4843(4) 0.0000 0.34358(19)
N2 N 0.2786(5) 0.0000 0.2897(2)
C2 C 0.3469(7) 0.0000 0.2037(3)
H1 H 0.253(5) 0.0000 0.153(2)
N3 N 0.5889(5) 0.0000 0.1968(2)
C3 C 0.6627(7) 0.0000 0.2856(3)
H2 H 0.815(6) 0.0000 0.300(2)
N4 N 0.7420(6) 0.0000 0.1190(2)
H3 H 0.710(4) 0.096(3) 0.085(2)
Mn1_2 Mn 1.5000 0.0000 0.5000
C1G C 1.0000 -0.1035(4) 0.5000
O1G O 0.8029(2) -0.1821(2) 0.4929(1)
O1D O 1.1971(2) -0.1821(2) 0.5071(1)
O1C O 1.1971(2) 0.1821(2) 0.5071(1)
O1D_2 O 0.1971(2) -0.1821(2) 0.5071(1)
O1C_2 O 0.1971(2) 0.1821(2) 0.5071(1)
N1D N 0.5157(4) 0.0000 0.65642(19)
N2D N 0.7214(5) 0.0000 0.7103(2)
C2D C 0.6531(7) 0.0000 0.7963(3)
H1D H 0.747(5) 0.0000 0.847(2)
N3D N 0.4111(5) 0.0000 0.8032(2)
C3D C 0.3373(7) 0.0000 0.7144(3)
H2D H 0.185(6) 0.0000 0.700(2)
N4D N 0.2580(6) 0.0000 0.8810(2)
H3G H 0.710(4) -0.096(3) 0.085(2)
H3D H 0.290(4) -0.096(3) 0.915(2)
H3C H 0.290(4) 0.096(3) 0.915(2)
loop_
_geom_bond_atom_site_label_1
_geom_bond_atom_site_label_2
_geom_bond_site_symmetry_1
_geom_bond_site_symmetry_2
Mn1 O1 1_555 1_555
C1 O1 1_555 1_555
N1 Mn1 1_555 1_555
N2 N1 1_555 1_555
C2 N2 1_555 1_555
H1 C2 1_555 1_555
N3 C2 1_555 1_555
C3 N1 1_555 1_555
H2 C3 1_555 1_555
N4 N3 1_555 1_555
H3 N4 1_555 1_555
Mn1_2 O1D 1_555 1_555
C1G C1 1_555 1_555
O1G Mn1 1_555 1_555
O1D C1G 1_555 1_555
O1C C1 1_555 1_555
O1D_2 Mn1 1_555 1_555
O1C_2 Mn1 1_555 1_555
N1D Mn1 1_555 1_555
N2D N1D 1_555 1_555
C2D N2D 1_555 1_555
H1D C2D 1_555 1_555
N3D C2D 1_555 1_555
C3D N1D 1_555 1_555
H2D C3D 1_555 1_555
N4D N3D 1_555 1_555
H3G N4 1_555 1_555
H3D N4D 1_555 1_555
H3C N4D 1_555 1_555
N3 C3 1_555 1_555
Mn1_2 O1C 1_555 1_555
C1G O1G 1_555 1_555
N3D C3D 1_555 1_555

#END
