
#######################################################################
#
#                 Cambridge Crystallographic Data Centre
#                                CCDC 
#
#######################################################################
#
# If this CIF has been generated from an entry in the Cambridge 
# Structural Database, then it will include bibliographic, chemical, 
# crystal, experimental, refinement or atomic coordinate data resulting 
# from the CCDC's data processing and validation procedures.
#
#######################################################################

data_XAYWEZ
_symmetry_cell_setting           triclinic
_symmetry_space_group_name_H-M   'P -1'
_symmetry_Int_Tables_number      2
_space_group_name_Hall           '-P 1'
loop_
_symmetry_equiv_pos_site_id
_symmetry_equiv_pos_as_xyz
1 x,y,z
2 -x,-y,-z
_cell_length_a                   9.857(4)
_cell_length_b                   11.5153(12)
_cell_length_c                   16.900(3)
_cell_angle_alpha                79.537(10)
_cell_angle_beta                 88.57(2)
_cell_angle_gamma                63.69(2)
_cell_volume                     1687.59
loop_
_atom_site_label
_atom_site_type_symbol
_atom_site_fract_x
_atom_site_fract_y
_atom_site_fract_z
Ag1 Ag 0.89976(10) -0.84173(9) 0.57842(5)
S1 S 0.6903(3) -0.5642(3) 0.1306(2)
C1 C 0.6712(13) -0.6629(10) 0.2240(7)
H1 H 0.6546(13) -0.7341(10) 0.2104(7)
H2 H 0.7665(13) -0.7027(10) 0.2562(7)
C2 C 0.5471(12) -0.5905(12) 0.2747(7)
H3 H 0.4565(12) -0.5269(12) 0.2474(7)
C3 C 0.5521(11) -0.6070(11) 0.3534(7)
H4 H 0.4648(11) -0.5536(11) 0.3761(7)
C4 C 0.6837(11) -0.7030(10) 0.4110(6)
H5 H 0.7761(11) -0.7274(10) 0.3824(6)
H6 H 0.6712(11) -0.7823(10) 0.4293(6)
S2 S 0.7050(3) -0.6399(3) 0.4979(2)
C5 C 0.8047(16) -0.5388(13) 0.4605(8)
H7 H 0.7993(16) -0.4849(13) 0.4995(8)
H8 H 0.9109(16) -0.5972(13) 0.4564(8)
C6 C 0.7427(12) -0.4528(10) 0.3821(7)
C7 C 0.8010(12) -0.4972(11) 0.3112(7)
H9 H 0.8847(12) -0.5791(11) 0.3147(7)
C8 C 0.7380(12) -0.4233(11) 0.2368(7)
C9 C 0.7934(15) -0.4799(14) 0.1630(8)
H10 H 0.8998(15) -0.5420(14) 0.1730(8)
H11 H 0.7855(15) -0.4093(14) 0.1193(8)
C10 C 0.6195(13) -0.3250(12) 0.3741(8)
H12 H 0.5766(13) -0.2923(12) 0.4198(8)
C11 C 0.5640(13) -0.2502(12) 0.2995(8)
H13 H 0.4873(13) -0.1645(12) 0.2949(8)
C12 C 0.6185(14) -0.2983(12) 0.2311(8)
H14 H 0.5754(14) -0.2471(12) 0.1807(8)
S3 S 0.8197(4) -1.1013(4) 0.5748(3)
O1 O 0.7347(16) -0.9630(12) 0.5743(14)
O2 O 0.9292(15) -1.1742(13) 0.6396(9)
O3 O 0.8750(29) -1.1398(33) 0.5035(13)
C13 C 0.6712(35) -1.1562(21) 0.5966(14)
F1 F 0.5858(27) -1.0878(33) 0.6365(18)
F2 F 0.7352(32) -1.2738(20) 0.6136(22)
F3 F 0.5911(22) -1.1202(22) 0.5290(18)
Ag2 Ag 0.43635(12) -0.40901(10) 0.07458(6)
S4 S -0.0960(3) -0.0016(3) 0.3169(2)
C14 C 0.0059(13) 0.0173(10) 0.2283(6)
H15 H -0.0574(13) 0.0327(10) 0.1808(6)
H16 H 0.0214(13) 0.0952(10) 0.2266(6)
C15 C 0.1572(12) -0.0976(11) 0.2239(6)
H17 H 0.2157(12) -0.1376(11) 0.2723(6)
C16 C 0.2175(12) -0.1487(11) 0.1616(6)
H18 H 0.3130(12) -0.2205(11) 0.1712(6)
C17 C 0.1524(15) -0.1063(11) 0.0769(7)
H19 H 0.1923(15) -0.0485(11) 0.0479(7)
H20 H 0.0436(15) -0.0544(11) 0.0775(7)
S5 S 0.1865(4) -0.2351(3) 0.0203(2)
C18 C 0.0406(19) -0.2891(17) 0.0524(10)
H21 H -0.0567(19) -0.2237(17) 0.0264(10)
H22 H 0.0645(19) -0.3714(17) 0.0350(10)
C19 C 0.0285(15) -0.3087(14) 0.1434(9)
C20 C -0.0806(13) -0.2043(12) 0.1742(9)
H23 H -0.1478(13) -0.1285(12) 0.1395(9)
C21 C -0.0892(12) -0.2140(12) 0.2592(8)
C22 C -0.1936(12) -0.0932(13) 0.2898(9)
H24 H -0.2401(12) -0.1185(13) 0.3368(9)
H25 H -0.2739(12) -0.0362(13) 0.2487(9)
C23 C 0.1264(15) -0.4239(13) 0.1960(11)
H26 H 0.1997(15) -0.4942(13) 0.1758(11)
C24 C 0.1134(13) -0.4324(12) 0.2767(10)
H27 H 0.1758(13) -0.5101(12) 0.3116(10)
C25 C 0.0090(14) -0.3272(13) 0.3077(9)
H28 H 0.0057(14) -0.3340(13) 0.3634(9)
O3A O 1.1250(29) -0.8602(33) 0.4965(13)
Ag1A Ag 1.10024(10) -1.15827(9) 0.42158(5)
S4A S 1.0960(3) -0.9984(3) 0.6831(2)
Ag1A_2 Ag 0.10024(10) -0.15827(9) 0.42158(5)
S6 S 0.4452(17) -0.7592(9) 0.0648(4)
O4 O 0.5862(31) -0.8719(28) 0.1169(20)
O5 O 0.4183(15) -0.6408(12) 0.0786(8)
O6 O 0.4512(22) -0.7758(19) -0.0145(11)
C26 C 0.3122(40) -0.8161(36) 0.1133(23)
F4 F 0.3648(31) -0.9286(25) 0.1099(16)
F5 F 0.1920(31) -0.7285(36) 0.0928(23)
F6 F 0.3491(39) -0.8298(36) 0.1896(16)
loop_
_geom_bond_atom_site_label_1
_geom_bond_atom_site_label_2
_geom_bond_site_symmetry_1
_geom_bond_site_symmetry_2
Ag1 S2 1_555 1_555
S1 C1 1_555 1_555
C1 H1 1_555 1_555
H2 C1 1_555 1_555
C2 C1 1_555 1_555
H3 C2 1_555 1_555
C3 C2 1_555 1_555
H4 C3 1_555 1_555
C4 C3 1_555 1_555
H5 C4 1_555 1_555
H6 C4 1_555 1_555
S2 C4 1_555 1_555
C5 S2 1_555 1_555
H7 C5 1_555 1_555
H8 C5 1_555 1_555
C6 C5 1_555 1_555
C7 C6 1_555 1_555
H9 C7 1_555 1_555
C8 C7 1_555 1_555
C9 S1 1_555 1_555
H10 C9 1_555 1_555
H11 C9 1_555 1_555
C10 C6 1_555 1_555
H12 C10 1_555 1_555
C11 C10 1_555 1_555
H13 C11 1_555 1_555
C12 C8 1_555 1_555
H14 C12 1_555 1_555
S3 O1 1_555 1_555
O1 Ag1 1_555 1_555
O2 S3 1_555 1_555
O3 S3 1_555 1_555
C13 S3 1_555 1_555
F1 C13 1_555 1_555
F2 C13 1_555 1_555
F3 C13 1_555 1_555
Ag2 S1 1_555 1_555
S4 C14 1_555 1_555
C14 H15 1_555 1_555
H16 C14 1_555 1_555
C15 C14 1_555 1_555
H17 C15 1_555 1_555
C16 C15 1_555 1_555
H18 C16 1_555 1_555
C17 C16 1_555 1_555
H19 C17 1_555 1_555
H20 C17 1_555 1_555
S5 Ag2 1_555 1_555
C18 S5 1_555 1_555
H21 C18 1_555 1_555
H22 C18 1_555 1_555
C19 C18 1_555 1_555
C20 C19 1_555 1_555
H23 C20 1_555 1_555
C21 C20 1_555 1_555
C22 S4 1_555 1_555
H24 C22 1_555 1_555
H25 C22 1_555 1_555
C23 C19 1_555 1_555
H26 C23 1_555 1_555
C24 C23 1_555 1_555
H27 C24 1_555 1_555
C25 C21 1_555 1_555
H28 C25 1_555 1_555
S6 O4 1_555 1_555
O5 S6 1_555 1_555
O6 S6 1_555 1_555
C26 S6 1_555 1_555
F4 C26 1_555 1_555
F5 C26 1_555 1_555
F6 C26 1_555 1_555
O3A Ag1 1_555 1_555
Ag1A O3 1_555 1_555
S4A Ag1 1_555 1_555
Ag1A_2 S4 1_555 1_555
C8 C9 1_555 1_555
C11 C12 1_555 1_555
C17 S5 1_555 1_555
C21 C22 1_555 1_555
C24 C25 1_555 1_555

#END
