
#######################################################################
#
#                 Cambridge Crystallographic Data Centre
#                                CCDC 
#
#######################################################################
#
# If this CIF has been generated from an entry in the Cambridge 
# Structural Database, then it will include bibliographic, chemical, 
# crystal, experimental, refinement or atomic coordinate data resulting 
# from the CCDC's data processing and validation procedures.
#
#######################################################################

data_XAYYUR01
_symmetry_cell_setting           monoclinic
_symmetry_space_group_name_H-M   'P 21/c'
_symmetry_Int_Tables_number      14
_space_group_name_Hall           '-P 2ybc'
loop_
_symmetry_equiv_pos_site_id
_symmetry_equiv_pos_as_xyz
1 x,y,z
2 -x,1/2+y,1/2-z
3 -x,-y,-z
4 x,1/2-y,1/2+z
_cell_length_a                   8.3609(4)
_cell_length_b                   7.9369(4)
_cell_length_c                   15.8259(7)
_cell_angle_alpha                90
_cell_angle_beta                 104.6890(10)
_cell_angle_gamma                90
_cell_volume                     1015.88
loop_
_atom_site_label
_atom_site_type_symbol
_atom_site_fract_x
_atom_site_fract_y
_atom_site_fract_z
Zn1 Zn 0.11474(14) 0.38756(15) 0.83143(7)
Zn2 Zn 0.61096(14) 0.18996(14) 0.81714(7)
P1 P -0.0169(3) 0.0316(3) 0.86308(16)
H1 H 0.0418 -0.0461 0.9383
P2 P 0.4857(3) 0.5427(3) 0.87062(16)
H2 H 0.5634 0.6090 0.9464
O1 O 0.3405(9) 0.4468(13) 0.8874(6)
O2 O 0.1208(9) 0.1473(9) 0.8516(6)
O3 O -0.0580(11) -0.1066(11) 0.7947(5)
O4 O 0.6105(10) 0.4280(10) 0.8445(5)
O5 O -0.1630(9) 0.1304(12) 0.8738(6)
O6 O 0.4385(11) 0.6892(10) 0.8084(5)
N1 N -0.0377(10) 0.5380(10) 0.8779(5)
H3 H -0.0448 0.6370 0.8494
H4 H -0.1390 0.4912 0.8632
C1 C 0.0031(14) 0.5758(13) 0.9738(6)
H5 H 0.1130 0.6244 0.9916
H6 H -0.0746 0.6583 0.9850
N2 N 0.4755(10) 0.0470(11) 0.8788(5)
H7 H 0.3733 0.0907 0.8698
H8 H 0.4662 -0.0579 0.8565
C2 C 0.5537(12) 0.0392(15) 0.9742(6)
H9 H 0.5820 0.1526 0.9956
H10 H 0.6556 -0.0247 0.9837
C1B C -0.0031(14) 0.4242(13) 1.0262(6)
N1B N 0.0377(10) 0.4620(10) 1.1221(5)
H3B H 0.0448 0.3630 1.1506
H4B H 0.1390 0.5088 1.1368
H5B H -0.1130 0.3756 1.0084
H6B H 0.0746 0.3417 1.0150
C2B C 0.4463(12) -0.0392(15) 1.0258(6)
N2B N 0.5245(10) -0.0470(11) 1.1212(5)
H7B H 0.6267 -0.0907 1.1302
H8B H 0.5338 0.0579 1.1435
H9B H 0.4180 -0.1526 1.0044
H10B H 0.3444 0.0247 1.0163
P1A P 0.0169(3) 0.5316(3) 0.63692(16)
H1A H -0.0418 0.4539 0.5617
O2A O -0.1208(9) 0.6473(9) 0.6484(6)
O3A O 0.0580(11) 0.3934(11) 0.7053(5)
O5A O 0.1630(9) 0.6304(12) 0.6262(6)
Zn1A Zn -0.11474(14) 0.88756(15) 0.66857(7)
Zn2_2 Zn -0.38904(14) 0.18996(14) 0.81714(7)
P2A P 0.5143(3) 0.0427(3) 0.62938(16)
H2A H 0.4366 0.1090 0.5536
O1A O 0.6595(9) -0.0532(13) 0.6126(6)
O4A O 0.3895(10) -0.0720(10) 0.6555(5)
O6A O 0.5615(11) 0.1892(10) 0.6916(5)
O5_2 O 0.8370(9) 0.1304(12) 0.8738(6)
Zn1A_2 Zn -0.11474(14) -0.11244(15) 0.66857(7)
Zn2A Zn 0.38904(14) 0.68996(14) 0.68286(7)
Zn1B Zn -0.11474(14) 0.61244(15) 1.16857(7)
Zn2B Zn 0.38904(14) -0.18996(14) 1.18286(7)
O1A_2 O -0.3405(9) 0.9468(13) 0.6126(6)
O3_2 O -0.0580(11) 0.8934(11) 0.7947(5)
N1A N 0.0377(10) 1.0380(10) 0.6221(5)
O4_2 O -0.3895(10) 0.4280(10) 0.8445(5)
O6A_2 O -0.4385(11) 0.1892(10) 0.6916(5)
N2_2 N -0.5245(10) 0.0470(11) 0.8788(5)
Zn1A_3 Zn 0.88526(14) -0.11244(15) 0.66857(7)
Zn2A_2 Zn 0.38904(14) -0.31004(14) 0.68286(7)
H3A H 0.0448 1.1370 0.6506
H4A H 0.1390 0.9912 0.6368
H7_2 H -0.6267 0.0907 0.8698
H8_2 H -0.5338 -0.0579 0.8565
loop_
_geom_bond_atom_site_label_1
_geom_bond_atom_site_label_2
_geom_bond_site_symmetry_1
_geom_bond_site_symmetry_2
Zn1 O1 1_555 1_555
Zn2 O4 1_555 1_555
P1 H1 1_555 1_555
P2 H2 1_555 1_555
O1 P2 1_555 1_555
O2 Zn1 1_555 1_555
O3 P1 1_555 1_555
O4 P2 1_555 1_555
O5 P1 1_555 1_555
O6 P2 1_555 1_555
N1 Zn1 1_555 1_555
H3 N1 1_555 1_555
H4 N1 1_555 1_555
C1 N1 1_555 1_555
H5 C1 1_555 1_555
H6 C1 1_555 1_555
N2 Zn2 1_555 1_555
H7 N2 1_555 1_555
H8 N2 1_555 1_555
C2 N2 1_555 1_555
H9 C2 1_555 1_555
H10 C2 1_555 1_555
C1B C1 1_555 1_555
N1B C1B 1_555 1_555
H3B N1B 1_555 1_555
H4B N1B 1_555 1_555
H5B C1B 1_555 1_555
H6B C1B 1_555 1_555
C2B C2 1_555 1_555
N2B C2B 1_555 1_555
H7B N2B 1_555 1_555
H8B N2B 1_555 1_555
H9B C2B 1_555 1_555
H10B C2B 1_555 1_555
P1A H1A 1_555 1_555
O2A P1A 1_555 1_555
O3A Zn1 1_555 1_555
O5A P1A 1_555 1_555
Zn1A O2A 1_555 1_555
Zn2_2 O5 1_555 1_555
P2A H2A 1_555 1_555
O1A P2A 1_555 1_555
O4A P2A 1_555 1_555
O6A Zn2 1_555 1_555
O5_2 Zn2 1_555 1_555
Zn1A_2 O3 1_555 1_555
Zn2A O6 1_555 1_555
Zn1B N1B 1_555 1_555
Zn2B N2B 1_555 1_555
O1A_2 Zn1A 1_555 1_555
O3_2 Zn1A 1_555 1_555
N1A Zn1A 1_555 1_555
O4_2 Zn2_2 1_555 1_555
O6A_2 Zn2_2 1_555 1_555
N2_2 Zn2_2 1_555 1_555
Zn1A_3 O1A 1_555 1_555
Zn2A_2 O4A 1_555 1_555
H3A N1A 1_555 1_555
H4A N1A 1_555 1_555
H7_2 N2_2 1_555 1_555
H8_2 N2_2 1_555 1_555
P1 O2 1_555 1_555
P1A O3A 1_555 1_555
O5A Zn2A 1_555 1_555
P2A O6A 1_555 1_555

#END
