
#######################################################################
#
#                 Cambridge Crystallographic Data Centre
#                                CCDC 
#
#######################################################################
#
# If this CIF has been generated from an entry in the Cambridge 
# Structural Database, then it will include bibliographic, chemical, 
# crystal, experimental, refinement or atomic coordinate data resulting 
# from the CCDC's data processing and validation procedures.
#
#######################################################################

data_XAYZEC
_symmetry_cell_setting           rhombohedral
_symmetry_space_group_name_H-M   'R 3'
_symmetry_Int_Tables_number      146
_space_group_name_Hall           'R 3'
loop_
_symmetry_equiv_pos_site_id
_symmetry_equiv_pos_as_xyz
1 x,y,z
2 -y,x-y,z
3 -x+y,-x,z
4 2/3+x,1/3+y,1/3+z
5 2/3-y,1/3+x-y,1/3+z
6 2/3-x+y,1/3-x,1/3+z
7 1/3+x,2/3+y,2/3+z
8 1/3-y,2/3+x-y,2/3+z
9 1/3-x+y,2/3-x,2/3+z
_cell_length_a                   13.6687(2)
_cell_length_b                   13.6687(2)
_cell_length_c                   32.4627(8)
_cell_angle_alpha                90
_cell_angle_beta                 90
_cell_angle_gamma                120.00
_cell_volume                     5252.54
loop_
_atom_site_label
_atom_site_type_symbol
_atom_site_fract_x
_atom_site_fract_y
_atom_site_fract_z
Cu1 Cu 0.0000 0.0000 0.82913(3)
Cu2 Cu 0.6667 0.3333 0.72212(3)
P1 P 0.0000 0.0000 0.75999(6)
P2 P 0.6667 0.3333 0.65403(6)
N1 N 0.0136(3) -0.1323(3) 0.85740(12)
N2 N 0.1801(3) -0.0830(3) 0.82339(12)
H1 H 0.1916 -0.0151 0.8225
N3 N 0.5356(3) 0.1908(3) 0.74912(12)
C1 C -0.1322(4) -0.0247(4) 0.73667(16)
C2 C -0.1859(5) 0.0289(5) 0.75351(17)
H2 H -0.1528 0.0784 0.7755
C3 C -0.2871(5) 0.0098(6) 0.7382(2)
H3 H -0.3234 0.0448 0.7503
C4 C -0.3359(5) -0.0605(6) 0.7049(2)
H4 H -0.4052 -0.0737 0.6950
C5 C -0.2827(6) -0.1112(6) 0.6865(2)
H5 H -0.3143 -0.1561 0.6633
C6 C -0.1803(5) -0.0951(5) 0.70265(18)
H6 H -0.1448 -0.1311 0.6907
C7 C -0.0726(4) -0.2054(4) 0.88153(15)
H7 H -0.1246 -0.1851 0.8905
C8 C -0.0872(5) -0.3077(5) 0.89345(18)
H8 H -0.1455 -0.3542 0.9112
C9 C -0.0139(5) -0.3404(5) 0.87870(19)
H9 H -0.0252 -0.4117 0.8851
C10 C 0.0768(5) -0.2677(4) 0.85437(18)
H10 H 0.1281 -0.2880 0.8446
C11 C 0.0883(4) -0.1633(4) 0.84502(15)
C12 C 0.2581(4) -0.1077(4) 0.80208(19)
H11 H 0.2185 -0.1617 0.7802
H12 H 0.2870 -0.1417 0.8212
C13 C 0.3540(4) -0.0040(4) 0.78419(16)
C14 C 0.3936(4) -0.0051(4) 0.74520(17)
H13 H 0.3602 -0.0710 0.7296
C15 C 0.4831(4) 0.0921(4) 0.72959(16)
H14 H 0.5088 0.0886 0.7034
C16 C 0.4978(4) 0.1906(4) 0.78786(16)
H15 H 0.5333 0.2569 0.8032
C17 C 0.4090(4) 0.0962(5) 0.80532(17)
H16 H 0.3859 0.1004 0.8319
C18 C 0.5328(4) 0.2314(4) 0.63125(14)
C19 C 0.4349(4) 0.2241(5) 0.64673(16)
H17 H 0.4402 0.2720 0.6680
C20 C 0.3312(4) 0.1485(5) 0.63153(17)
H18 H 0.2671 0.1471 0.6420
C21 C 0.3206(5) 0.0756(5) 0.6014(2)
H19 H 0.2498 0.0244 0.5910
C22 C 0.4137(6) 0.0780(6) 0.5866(2)
H20 H 0.4059 0.0258 0.5666
C23 C 0.5201(5) 0.1554(6) 0.60020(19)
H21 H 0.5833 0.1570 0.5888
N1A N 0.1323(3) 0.1459(4) 0.85740(12)
N1B N -0.1459(4) -0.0136(3) 0.85740(12)
N3A N 0.8092(3) 0.3448(4) 0.74912(12)
N3B N 0.6552(4) 0.4644(3) 0.74912(12)
C1A C 0.0247(4) -0.1075(6) 0.73667(16)
C1B C 0.1075(6) 0.1322(4) 0.73667(16)
C18A C 0.7686(4) 0.3014(6) 0.63125(14)
C18B C 0.6986(6) 0.4672(4) 0.63125(14)
C2A C -0.0289(5) -0.2148(7) 0.75351(17)
C6A C 0.0951(5) -0.0852(7) 0.70265(18)
C2B C 0.2148(7) 0.1859(5) 0.75351(17)
C6B C 0.0852(7) 0.1803(5) 0.70265(18)
H2B H 0.2312 0.1528 0.7755
C3B C 0.2969(8) 0.2871(5) 0.7382(2)
C5B C 0.1715(8) 0.2827(6) 0.6865(2)
H6B H 0.0137 0.1448 0.6907
C5A C 0.1112(6) -0.1715(8) 0.6865(2)
H6A H 0.1311 -0.0137 0.6907
H2A H -0.0784 -0.2312 0.7755
C3A C -0.0098(6) -0.2969(8) 0.7382(2)
H3B H 0.3682 0.3234 0.7503
C4B C 0.2754(8) 0.3359(5) 0.7049(2)
H5B H 0.1582 0.3143 0.6633
C4A C 0.0605(6) -0.2754(8) 0.7049(2)
H5A H 0.1561 -0.1582 0.6633
H3A H -0.0448 -0.3682 0.7503
C7A C 0.2054(4) 0.1328(6) 0.88153(15)
C11A C 0.1633(4) 0.2516(6) 0.84502(15)
N2A N 0.0830(3) 0.2631(4) 0.82339(12)
C10A C 0.2677(4) 0.3445(6) 0.85437(18)
H7A H 0.1851 0.0605 0.8905
C8A C 0.3077(5) 0.2205(7) 0.89345(18)
C9A C 0.3404(5) 0.3265(7) 0.87870(19)
H10A H 0.2880 0.4161 0.8446
H8A H 0.3542 0.2087 0.9112
H1A H 0.0151 0.2067 0.8225
C12A C 0.1077(4) 0.3658(6) 0.80208(19)
H11A H 0.1617 0.3802 0.7802
H12A H 0.1417 0.4287 0.8212
C13A C 0.0040(4) 0.3580(6) 0.78419(16)
C14A C 0.0051(4) 0.3987(6) 0.74520(17)
C17A C -0.0962(5) 0.3128(6) 0.80532(17)
H13A H 0.0710 0.4312 0.7296
C15A C -0.0921(4) 0.3910(6) 0.72959(16)
C16A C -0.1906(4) 0.3072(6) 0.78786(16)
H16A H -0.1004 0.2855 0.8319
N3A_2 N -0.1908(3) 0.3448(4) 0.74912(12)
H14A H -0.0886 0.4202 0.7034
H15A H -0.2569 0.2764 0.8032
Cu2_2 Cu -0.3333 0.3333 0.72212(3)
C19B C 0.7892(6) 0.5651(4) 0.64673(16)
C23B C 0.6353(8) 0.4799(5) 0.60020(19)
C19A C 0.7759(5) 0.2108(6) 0.64673(16)
C23A C 0.8446(6) 0.3647(8) 0.60020(19)
H17A H 0.7280 0.1682 0.6680
C20A C 0.8515(5) 0.1827(6) 0.63153(17)
C22A C 0.9220(6) 0.3357(8) 0.5866(2)
H21A H 0.8430 0.4263 0.5888
H17B H 0.8318 0.5598 0.6680
C20B C 0.8173(6) 0.6688(4) 0.63153(17)
C22B C 0.6643(8) 0.5863(6) 0.5866(2)
H21B H 0.5737 0.4167 0.5888
H18A H 0.8529 0.1200 0.6420
C21A C 0.9244(5) 0.2450(7) 0.6014(2)
H20A H 0.9742 0.3801 0.5666
H18B H 0.8800 0.7329 0.6420
C21B C 0.7550(7) 0.6794(5) 0.6014(2)
H20B H 0.6199 0.5941 0.5666
C15A_2 C 0.9079(4) 0.3910(6) 0.72959(16)
C16A_2 C 0.8094(4) 0.3072(6) 0.78786(16)
H15A_2 H 0.7431 0.2764 0.8032
C17A_2 C 0.9038(5) 0.3128(6) 0.80532(17)
C14A_2 C 1.0051(4) 0.3987(6) 0.74520(17)
H14A_2 H 0.9114 0.4202 0.7034
C13A_2 C 1.0040(4) 0.3580(6) 0.78419(16)
H16A_2 H 0.8996 0.2855 0.8319
H13A_2 H 1.0710 0.4312 0.7296
C12A_2 C 1.1077(4) 0.3658(6) 0.80208(19)
N2A_2 N 1.0830(3) 0.2631(4) 0.82339(12)
H11A_2 H 1.1617 0.3802 0.7802
H12A_2 H 1.1417 0.4287 0.8212
H1A_2 H 1.0151 0.2067 0.8225
C11A_2 C 1.1633(4) 0.2516(6) 0.84502(15)
N1A_2 N 1.1323(3) 0.1459(4) 0.85740(12)
C10A_2 C 1.2677(4) 0.3445(6) 0.85437(18)
Cu1_2 Cu 1.0000 0.0000 0.82913(3)
C7A_2 C 1.2054(4) 0.1328(6) 0.88153(15)
C9A_2 C 1.3404(5) 0.3265(7) 0.87870(19)
H10A_2 H 1.2880 0.4161 0.8446
H7A_2 H 1.1851 0.0605 0.8905
C8A_2 C 1.3077(5) 0.2205(7) 0.89345(18)
H9A H 1.4117 0.3865 0.8851
H8A_2 H 1.3542 0.2087 0.9112
H19A H 0.9756 0.2254 0.5910
H4B H 0.3315 0.4052 0.6950
H4A H 0.0737 -0.3315 0.6950
H9A_2 H 0.4117 0.3865 0.8851
H19B H 0.7746 0.7502 0.5910
Cl1 Cl 0.6667 0.3333 0.90681(11)
O1 O 0.6667 0.3333 0.8757(6)
O2 O 0.6904(8) 0.2581(7) 0.9216(5)
O2A O 0.7419(7) 0.4323(11) 0.9216(5)
O2B O 0.5677(11) 0.3096(8) 0.9216(5)
Cl2 Cl 0.6667 0.3333 0.45180(9)
O3 O 0.6955(6) 0.2568(5) 0.4427(4)
O4 O 0.6667 0.3333 0.4895(7)
O3A O 0.7432(5) 0.4387(8) 0.4427(4)
O3B O 0.5613(8) 0.3045(6) 0.4427(4)
C24 C 0.6667 0.3333 0.3298(4)
H22 H 0.6667 0.3333 0.3600
Cl3 Cl 0.5300(2) 0.2369(2) 0.31233(8)
Cl3A Cl 0.7631(2) 0.2931(3) 0.31233(8)
Cl3B Cl 0.7069(3) 0.4700(2) 0.31233(8)
loop_
_geom_bond_atom_site_label_1
_geom_bond_atom_site_label_2
_geom_bond_site_symmetry_1
_geom_bond_site_symmetry_2
Cu1 P1 1_555 1_555
Cu2 P2 1_555 1_555
P1 C1 1_555 1_555
P2 C18 1_555 1_555
N1 Cu1 1_555 1_555
N2 H1 1_555 1_555
N3 Cu2 1_555 1_555
C1 C2 1_555 1_555
C2 H2 1_555 1_555
C3 C2 1_555 1_555
H3 C3 1_555 1_555
C4 C3 1_555 1_555
H4 C4 1_555 1_555
C5 C4 1_555 1_555
H5 C5 1_555 1_555
C6 C1 1_555 1_555
H6 C6 1_555 1_555
C7 N1 1_555 1_555
H7 C7 1_555 1_555
C8 C7 1_555 1_555
H8 C8 1_555 1_555
C9 C8 1_555 1_555
H9 C9 1_555 1_555
C10 C9 1_555 1_555
H10 C10 1_555 1_555
C11 N1 1_555 1_555
C12 N2 1_555 1_555
H11 C12 1_555 1_555
H12 C12 1_555 1_555
C13 C12 1_555 1_555
C14 C13 1_555 1_555
H13 C14 1_555 1_555
C15 N3 1_555 1_555
H14 C15 1_555 1_555
C16 N3 1_555 1_555
H15 C16 1_555 1_555
C17 C13 1_555 1_555
H16 C17 1_555 1_555
C18 C19 1_555 1_555
C19 H17 1_555 1_555
C20 C19 1_555 1_555
H18 C20 1_555 1_555
C21 C20 1_555 1_555
H19 C21 1_555 1_555
C22 C21 1_555 1_555
H20 C22 1_555 1_555
C23 C18 1_555 1_555
H21 C23 1_555 1_555
Cl1 O1 1_555 1_555
O2 Cl1 1_555 1_555
Cl2 O3 1_555 1_555
C24 H22 1_555 1_555
Cl3 C24 1_555 1_555
O4 Cl2 1_555 1_555
N1A Cu1 1_555 1_555
N1B Cu1 1_555 1_555
N3A Cu2 1_555 1_555
N3B Cu2 1_555 1_555
C1A P1 1_555 1_555
C1B P1 1_555 1_555
C18A P2 1_555 1_555
C18B P2 1_555 1_555
O2A Cl1 1_555 1_555
O2B Cl1 1_555 1_555
O3A Cl2 1_555 1_555
O3B Cl2 1_555 1_555
Cl3A C24 1_555 1_555
Cl3B C24 1_555 1_555
C2A C1A 1_555 1_555
C6A C1A 1_555 1_555
C2B C1B 1_555 1_555
C6B C1B 1_555 1_555
H2B C2B 1_555 1_555
C3B C2B 1_555 1_555
C5B C6B 1_555 1_555
H6B C6B 1_555 1_555
C5A C6A 1_555 1_555
H6A C6A 1_555 1_555
H2A C2A 1_555 1_555
C3A C2A 1_555 1_555
H3B C3B 1_555 1_555
C4B C3B 1_555 1_555
H5B C5B 1_555 1_555
C4A C5A 1_555 1_555
H5A C5A 1_555 1_555
H3A C3A 1_555 1_555
C7A N1A 1_555 1_555
C11A N1A 1_555 1_555
N2A C11A 1_555 1_555
C10A C11A 1_555 1_555
H7A C7A 1_555 1_555
C8A C7A 1_555 1_555
C9A C10A 1_555 1_555
H10A C10A 1_555 1_555
H8A C8A 1_555 1_555
H1A N2A 1_555 1_555
C12A N2A 1_555 1_555
H11A C12A 1_555 1_555
H12A C12A 1_555 1_555
C13A C12A 1_555 1_555
C14A C13A 1_555 1_555
C17A C13A 1_555 1_555
H13A C14A 1_555 1_555
C15A C14A 1_555 1_555
C16A C17A 1_555 1_555
H16A C17A 1_555 1_555
N3A_2 C15A 1_555 1_555
H14A C15A 1_555 1_555
H15A C16A 1_555 1_555
Cu2_2 N3A_2 1_555 1_555
C19B C18B 1_555 1_555
C23B C18B 1_555 1_555
C19A C18A 1_555 1_555
C23A C18A 1_555 1_555
H17A C19A 1_555 1_555
C20A C19A 1_555 1_555
C22A C23A 1_555 1_555
H21A C23A 1_555 1_555
H17B C19B 1_555 1_555
C20B C19B 1_555 1_555
C22B C23B 1_555 1_555
H21B C23B 1_555 1_555
H18A C20A 1_555 1_555
C21A C20A 1_555 1_555
H20A C22A 1_555 1_555
H18B C20B 1_555 1_555
C21B C20B 1_555 1_555
H20B C22B 1_555 1_555
C15A_2 N3A 1_555 1_555
C16A_2 N3A 1_555 1_555
H15A_2 C16A_2 1_555 1_555
C17A_2 C16A_2 1_555 1_555
C14A_2 C15A_2 1_555 1_555
H14A_2 C15A_2 1_555 1_555
C13A_2 C17A_2 1_555 1_555
H16A_2 C17A_2 1_555 1_555
H13A_2 C14A_2 1_555 1_555
C12A_2 C13A_2 1_555 1_555
N2A_2 C12A_2 1_555 1_555
H11A_2 C12A_2 1_555 1_555
H12A_2 C12A_2 1_555 1_555
H1A_2 N2A_2 1_555 1_555
C11A_2 N2A_2 1_555 1_555
N1A_2 C11A_2 1_555 1_555
C10A_2 C11A_2 1_555 1_555
Cu1_2 N1A_2 1_555 1_555
C7A_2 N1A_2 1_555 1_555
C9A_2 C10A_2 1_555 1_555
H10A_2 C10A_2 1_555 1_555
H7A_2 C7A_2 1_555 1_555
C8A_2 C7A_2 1_555 1_555
H9A C9A_2 1_555 1_555
H8A_2 C8A_2 1_555 1_555
H19A C21A 1_555 1_555
H4B C4B 1_555 1_555
H4A C4A 1_555 1_555
H9A_2 C9A 1_555 1_555
H19B C21B 1_555 1_555
N2 C11 1_555 1_555
C5 C6 1_555 1_555
C10 C11 1_555 1_555
C14 C15 1_555 1_555
C16 C17 1_555 1_555
C22 C23 1_555 1_555
C5B C4B 1_555 1_555
C3A C4A 1_555 1_555
C8A C9A 1_555 1_555
C16A N3A_2 1_555 1_555
C22A C21A 1_555 1_555
C22B C21B 1_555 1_555
C14A_2 C13A_2 1_555 1_555
C9A_2 C8A_2 1_555 1_555

#END
