
#######################################################################
#
#                 Cambridge Crystallographic Data Centre
#                                CCDC 
#
#######################################################################
#
# If this CIF has been generated from an entry in the Cambridge 
# Structural Database, then it will include bibliographic, chemical, 
# crystal, experimental, refinement or atomic coordinate data resulting 
# from the CCDC's data processing and validation procedures.
#
#######################################################################

data_XAZDEH01
_symmetry_cell_setting           orthorhombic
_symmetry_space_group_name_H-M   'P m m a'
_symmetry_Int_Tables_number      51
_space_group_name_Hall           '-P 2a 2a'
loop_
_symmetry_equiv_pos_site_id
_symmetry_equiv_pos_as_xyz
1 x,y,z
2 1/2-x,-y,z
3 -x,y,-z
4 1/2+x,-y,-z
5 -x,-y,-z
6 1/2+x,y,-z
7 x,-y,z
8 1/2-x,y,z
_cell_length_a                   12.848(2)
_cell_length_b                   6.2814(9)
_cell_length_c                   6.9210(10)
_cell_angle_alpha                90
_cell_angle_beta                 90
_cell_angle_gamma                90
_cell_volume                     558.548
loop_
_atom_site_label
_atom_site_type_symbol
_atom_site_fract_x
_atom_site_fract_y
_atom_site_fract_z
Ag1 Ag 0.7500 0.5000 0.36176(5)
Ag2 Ag 0.5000 1.0000 1.0000
O1 O 0.58975(16) 0.3330(3) 0.2269(3)
N1 N 0.7500 0.8056(4) 0.5864(4)
N2 N 0.6545(2) 1.0000 0.8352(4)
N3 N 0.5392(2) 0.5000 0.2018(5)
C1 C 0.65700(17) 0.8083(3) 0.7102(3)
H1 H 0.6564 0.6818 0.7905
H2 H 0.5952 0.8056 0.6298
C2 C 0.7500 1.0000 0.4662(7)
H3 H 0.8111 1.0000 0.3838
H4 H 0.6889 1.0000 0.3838
C3 C 0.7500 1.0000 0.9554(7)
H5 H 0.7500 1.1249 1.0379
H6 H 0.7500 0.8751 1.0379
O1F O 0.58975(16) 0.6670(3) 0.2269(3)
O1G O 0.91025(16) 0.3330(3) 0.2269(3)
N3G N 0.9608(2) 0.5000 0.2018(5)
O1A O 0.91025(16) 0.6670(3) 0.2269(3)
N2D N 0.3455(2) 1.0000 1.1648(4)
C1F C 0.65700(17) 1.1917(3) 0.7102(3)
C1G C 0.84300(17) 0.8083(3) 0.7102(3)
N1F N 0.7500 0.1944(4) 0.5864(4)
N1F_2 N 0.7500 1.1944(4) 0.5864(4)
N2G N 0.8455(2) 1.0000 0.8352(4)
Ag1_2 Ag 0.7500 1.5000 0.36176(5)
C1A C 0.84300(17) 1.1917(3) 0.7102(3)
H1F H 0.6564 1.3182 0.7905
H2F H 0.5952 1.1944 0.6298
Ag2E Ag 1.0000 1.0000 1.0000
H1G H 0.8436 0.6818 0.7905
H2G H 0.9048 0.8056 0.6298
H1A H 0.8436 1.3182 0.7905
H2A H 0.9048 1.1944 0.6298
loop_
_geom_bond_atom_site_label_1
_geom_bond_atom_site_label_2
_geom_bond_site_symmetry_1
_geom_bond_site_symmetry_2
Ag1 O1 1_555 1_555
Ag2 N2 1_555 1_555
O1 N3 1_555 1_555
N1 Ag1 1_555 1_555
N2 C1 1_555 1_555
N3 O1F 1_555 1_555
C1 N1 1_555 1_555
H1 C1 1_555 1_555
H2 C1 1_555 1_555
C2 N1 1_555 1_555
H3 C2 1_555 1_555
H4 C2 1_555 1_555
C3 N2 1_555 1_555
H5 C3 1_555 1_555
H6 C3 1_555 1_555
O1F Ag1 1_555 1_555
O1G Ag1 1_555 1_555
N3G O1G 1_555 1_555
O1A Ag1 1_555 1_555
N2D Ag2 1_555 1_555
C1F N2 1_555 1_555
C1G N1 1_555 1_555
N1F Ag1 1_555 1_555
N1F_2 C2 1_555 1_555
N2G C3 1_555 1_555
Ag1_2 N1F_2 1_555 1_555
C1A N1F_2 1_555 1_555
H1F C1F 1_555 1_555
H2F C1F 1_555 1_555
Ag2E N2G 1_555 1_555
H1G C1G 1_555 1_555
H2G C1G 1_555 1_555
H1A C1A 1_555 1_555
H2A C1A 1_555 1_555
N3G O1A 1_555 1_555
C1F N1F_2 1_555 1_555
C1G N2G 1_555 1_555
N2G C1A 1_555 1_555

#END
