
#######################################################################
#
#                 Cambridge Crystallographic Data Centre
#                                CCDC 
#
#######################################################################
#
# If this CIF has been generated from an entry in the Cambridge 
# Structural Database, then it will include bibliographic, chemical, 
# crystal, experimental, refinement or atomic coordinate data resulting 
# from the CCDC's data processing and validation procedures.
#
#######################################################################

data_XAZDUX
_symmetry_cell_setting           orthorhombic
_symmetry_space_group_name_H-M   'P b c a'
_symmetry_Int_Tables_number      61
_space_group_name_Hall           '-P 2ac 2ab'
loop_
_symmetry_equiv_pos_site_id
_symmetry_equiv_pos_as_xyz
1 x,y,z
2 1/2+x,y,1/2-z
3 x,1/2-y,1/2+z
4 1/2-x,1/2+y,z
5 -x,-y,-z
6 1/2-x,-y,1/2+z
7 -x,1/2+y,1/2-z
8 1/2+x,1/2-y,-z
_cell_length_a                   12.141(5)
_cell_length_b                   11.140(2)
_cell_length_c                   15.765(9)
_cell_angle_alpha                90
_cell_angle_beta                 90
_cell_angle_gamma                90
_cell_volume                     2132.23
loop_
_atom_site_label
_atom_site_type_symbol
_atom_site_fract_x
_atom_site_fract_y
_atom_site_fract_z
Ag1 Ag 0.13258(3) 0.19164(3) 0.23044(3)
N1 N 0.1136(3) 0.3945(3) 0.1913(3)
N2 N 0.2088(3) 0.5887(3) 0.1888(3)
N3 N -0.0074(3) 0.0810(3) 0.2963(2)
N4 N 0.0942(3) 0.5284(4) 0.0692(3)
C1 C 0.1021(4) 0.4034(4) 0.0973(3)
H1 H 0.0371 0.3605 0.0804
H2 H 0.1646 0.3659 0.0711
C2 C 0.0169(4) 0.4541(4) 0.2302(3)
H3 H 0.0249 0.4536 0.2908
H4 H -0.0492 0.4109 0.2165
C3 C 0.2142(4) 0.4615(4) 0.2159(3)
H5 H 0.2770 0.4228 0.1911
H6 H 0.2224 0.4592 0.2764
C4 C 0.1947(4) 0.5915(4) 0.0949(3)
H7 H -0.1866 0.1744 0.4205
H8 H -0.2581 0.0599 0.4338
C5 C -0.1104(4) 0.1432(4) 0.2715(3)
H9 H -0.1180 0.1409 0.2109
H10 H -0.1064 0.2258 0.2887
C6 C 0.0010(4) 0.0835(4) 0.3906(3)
H11 H 0.0054 0.1657 0.4086
H12 H 0.0670 0.0434 0.4086
C2F C -0.0169(4) -0.0459(4) 0.2698(3)
C6F C -0.0010(4) 0.5835(4) 0.1094(3)
N3F N 0.0074(3) 0.5810(3) 0.2037(2)
N2C N 0.2912(3) 0.0887(3) 0.1888(3)
N4F N -0.0942(3) 0.0284(4) 0.4308(3)
Ag1F Ag -0.13258(3) 0.69164(3) 0.26956(3)
C5F C 0.1104(4) 0.6432(4) 0.2285(3)
Ag1C Ag 0.36742(3) 0.69164(3) 0.23044(3)
N2F N -0.2088(3) 0.0887(3) 0.3112(3)
N1F N -0.1136(3) -0.1055(3) 0.3087(3)
H3F H -0.0249 -0.0464 0.2092
H4F H 0.0492 -0.0891 0.2835
C1F C -0.1021(4) -0.0966(4) 0.4027(3)
C4F C -0.1947(4) 0.0915(4) 0.4051(3)
Ag1F_2 Ag -0.13258(3) -0.30836(3) 0.26956(3)
C3F C -0.2142(4) -0.0385(4) 0.2841(3)
Ag1A Ag -0.36742(3) 0.19164(3) 0.26956(3)
H1F H -0.0371 -0.1395 0.4196
H2F H -0.1646 -0.1341 0.4289
N2A N -0.2912(3) -0.4113(3) 0.3112(3)
N3F_2 N 0.0074(3) -0.4190(3) 0.2037(2)
H7F H 0.1866 0.6744 0.0795
H8F H 0.2581 0.5599 0.0662
H11F H -0.0054 0.6657 0.0914
H12F H -0.0670 0.5434 0.0914
H9F H 0.1180 0.6409 0.2891
H10F H 0.1064 0.7258 0.2113
H5F H -0.2770 -0.0772 0.3089
H6F H -0.2224 -0.0408 0.2236
S1 S -0.0026(2) 0.0956(2) 0.0010(2)
O1 O 0.0234(5) 0.1281(4) 0.0860(3)
O2 O -0.1128(5) 0.1242(5) -0.0266(7)
O3 O 0.0800(5) 0.1317(5) -0.0578(4)
S1D S 0.0026(2) -0.0956(2) -0.0010(2)
O1D O -0.0234(5) -0.1281(4) -0.0860(3)
O2D O 0.1128(5) -0.1242(5) 0.0266(7)
O3D O -0.0800(5) -0.1317(5) 0.0578(4)
O6 O 0.2618(7) 0.2344(7) -0.1187(4)
H13 H 0.2134 0.1899 -0.1202
H14 H 0.2497 0.3064 -0.1088
S2? S -0.0408(8) 0.0787(7) 0.0154(6)
O4? O -0.140(2) 0.022(5) 0.054(2)
O5? O -0.073(4) 0.163(4) -0.047(3)
loop_
_geom_bond_atom_site_label_1
_geom_bond_atom_site_label_2
_geom_bond_site_symmetry_1
_geom_bond_site_symmetry_2
Ag1 N1 1_555 1_555
N1 C1 1_555 1_555
N2 C3 1_555 1_555
N3 Ag1 1_555 1_555
N4 C1 1_555 1_555
C1 H1 1_555 1_555
H2 C1 1_555 1_555
C2 N1 1_555 1_555
H3 C2 1_555 1_555
H4 C2 1_555 1_555
C3 N1 1_555 1_555
H5 C3 1_555 1_555
H6 C3 1_555 1_555
C4 N2 1_555 1_555
H7 C4F 1_555 1_555
H8 C4F 1_555 1_555
C5 N3 1_555 1_555
H9 C5 1_555 1_555
H10 C5 1_555 1_555
C6 N3 1_555 1_555
H11 C6 1_555 1_555
H12 C6 1_555 1_555
S1 O1 1_555 1_555
O2 S1 1_555 1_555
O3 S1 1_555 1_555
O6 H13 1_555 1_555
H14 O6 1_555 1_555
C2F N3 1_555 1_555
C6F N4 1_555 1_555
N3F C2 1_555 1_555
N2C Ag1 1_555 1_555
N4F C6 1_555 1_555
S1D S1 1_555 1_555
O1D S1D 1_555 1_555
O2D S1D 1_555 1_555
O3D S1D 1_555 1_555
Ag1F N3F 1_555 1_555
C5F N2 1_555 1_555
Ag1C N2 1_555 1_555
N2F C5 1_555 1_555
N1F C2F 1_555 1_555
H3F C2F 1_555 1_555
H4F C2F 1_555 1_555
C1F N4F 1_555 1_555
C4F N4F 1_555 1_555
Ag1F_2 N1F 1_555 1_555
C3F N2F 1_555 1_555
Ag1A N2F 1_555 1_555
H1F C1F 1_555 1_555
H2F C1F 1_555 1_555
N2A Ag1F_2 1_555 1_555
N3F_2 Ag1F_2 1_555 1_555
H7F C4 1_555 1_555
H8F C4 1_555 1_555
H11F C6F 1_555 1_555
H12F C6F 1_555 1_555
H9F C5F 1_555 1_555
H10F C5F 1_555 1_555
H5F C3F 1_555 1_555
H6F C3F 1_555 1_555
N4 C4 1_555 1_555
C6F N3F 1_555 1_555
N3F C5F 1_555 1_555
N2F C4F 1_555 1_555
N1F C3F 1_555 1_555
N1F C1F 1_555 1_555

#END
