
#######################################################################
#
#                 Cambridge Crystallographic Data Centre
#                                CCDC 
#
#######################################################################
#
# If this CIF has been generated from an entry in the Cambridge 
# Structural Database, then it will include bibliographic, chemical, 
# crystal, experimental, refinement or atomic coordinate data resulting 
# from the CCDC's data processing and validation procedures.
#
#######################################################################

data_XAZDEH
_symmetry_cell_setting           orthorhombic
_symmetry_space_group_name_H-M   'P m m a'
_symmetry_Int_Tables_number      51
_space_group_name_Hall           '-P 2a 2a'
loop_
_symmetry_equiv_pos_site_id
_symmetry_equiv_pos_as_xyz
1 x,y,z
2 1/2+x,y,-z
3 x,-y,z
4 1/2-x,y,z
5 -x,-y,-z
6 1/2-x,-y,z
7 -x,y,-z
8 1/2+x,-y,-z
_cell_length_a                   12.882(6)
_cell_length_b                   6.2920(10)
_cell_length_c                   6.945(4)
_cell_angle_alpha                90
_cell_angle_beta                 90
_cell_angle_gamma                90
_cell_volume                     562.917
loop_
_atom_site_label
_atom_site_type_symbol
_atom_site_fract_x
_atom_site_fract_y
_atom_site_fract_z
Ag1 Ag 0.2500 0.5000 0.36221(7)
Ag2 Ag 0.0000 0.0000 1.0000
N1 N 0.2500 0.1942(5) 0.5874(4)
N2 N 0.1543(3) 0.0000 0.8351(5)
C1 C 0.1572(2) 0.1916(4) 0.7100(4)
H1 H 0.0964 0.1938 0.6301
H2 H 0.1563 0.3167 0.7891
C2 C 0.2500 0.0000 0.4669(8)
H3 H 0.3103 0.0000 0.3857
C3 C 0.2500 0.0000 0.9571(8)
H4 H 0.2500 -0.1236 1.0382
N3 N 0.0394(3) 0.5000 0.2017(7)
O1 O 0.0899(2) 0.3332(4) 0.2265(4)
N1B N 0.2500 0.8058(5) 0.5874(4)
O1B O 0.0899(2) 0.6668(4) 0.2265(4)
O1C O 0.4101(2) 0.3332(4) 0.2265(4)
O1E O 0.4101(2) 0.6668(4) 0.2265(4)
N2D N -0.1543(3) 0.0000 1.1649(5)
C1C C 0.3428(2) 0.1916(4) 0.7100(4)
C1B C 0.1572(2) -0.1916(4) 0.7100(4)
H3C H 0.1897 0.0000 0.3857
N1B_2 N 0.2500 -0.1942(5) 0.5874(4)
H4B H 0.2500 0.1236 1.0382
N2C N 0.3457(3) 0.0000 0.8351(5)
Ag1_2 Ag 0.2500 -0.5000 0.36221(7)
C1E C 0.3428(2) -0.1916(4) 0.7100(4)
Ag2A Ag 0.5000 0.0000 1.0000
N3C N 0.4606(3) 0.5000 0.2017(7)
H1C H 0.4036 0.1938 0.6301
H2C H 0.3437 0.3167 0.7891
H1B H 0.0964 -0.1938 0.6301
H2B H 0.1563 -0.3167 0.7891
H1E H 0.4036 -0.1938 0.6301
H2E H 0.3437 -0.3167 0.7891
loop_
_geom_bond_atom_site_label_1
_geom_bond_atom_site_label_2
_geom_bond_site_symmetry_1
_geom_bond_site_symmetry_2
Ag1 N1 1_555 1_555
Ag2 N2 1_555 1_555
N1 C1 1_555 1_555
N2 C1 1_555 1_555
C1 H1 1_555 1_555
H2 C1 1_555 1_555
C2 N1 1_555 1_555
H3 C2 1_555 1_555
C3 N2 1_555 1_555
H4 C3 1_555 1_555
N3 O1 1_555 1_555
O1 Ag1 1_555 1_555
N1B Ag1 1_555 1_555
O1B Ag1 1_555 1_555
O1C Ag1 1_555 1_555
O1E Ag1 1_555 1_555
N2D Ag2 1_555 1_555
C1C N1 1_555 1_555
C1B N2 1_555 1_555
H3C C2 1_555 1_555
N1B_2 C2 1_555 1_555
H4B C3 1_555 1_555
N2C C3 1_555 1_555
Ag1_2 N1B_2 1_555 1_555
C1E N1B_2 1_555 1_555
Ag2A N2C 1_555 1_555
N3C O1C 1_555 1_555
H1C C1C 1_555 1_555
H2C C1C 1_555 1_555
H1B C1B 1_555 1_555
H2B C1B 1_555 1_555
H1E C1E 1_555 1_555
H2E C1E 1_555 1_555
N3 O1B 1_555 1_555
O1E N3C 1_555 1_555
C1C N2C 1_555 1_555
C1B N1B_2 1_555 1_555
N2C C1E 1_555 1_555

#END
