
#######################################################################
#
#                 Cambridge Crystallographic Data Centre
#                                CCDC 
#
#######################################################################
#
# If this CIF has been generated from an entry in the Cambridge 
# Structural Database, then it will include bibliographic, chemical, 
# crystal, experimental, refinement or atomic coordinate data resulting 
# from the CCDC's data processing and validation procedures.
#
#######################################################################

data_XAZFUZ
_symmetry_cell_setting           triclinic
_symmetry_space_group_name_H-M   'P -1'
_symmetry_Int_Tables_number      2
_space_group_name_Hall           '-P 1'
loop_
_symmetry_equiv_pos_site_id
_symmetry_equiv_pos_as_xyz
1 x,y,z
2 -x,-y,-z
_cell_length_a                   6.439(2)
_cell_length_b                   15.490(5)
_cell_length_c                   15.758(8)
_cell_angle_alpha                117.630(10)
_cell_angle_beta                 90.930(10)
_cell_angle_gamma                94.370(10)
_cell_volume                     1386.05
loop_
_atom_site_label
_atom_site_type_symbol
_atom_site_fract_x
_atom_site_fract_y
_atom_site_fract_z
Ag1 Ag 0.10613(10) -0.04558(5) 0.04652(5)
Ag2 Ag -0.42312(12) 0.00618(6) 0.41957(5)
Ag3 Ag 0.56282(13) -0.40198(6) 0.05286(7)
N1 N -0.2129(10) -0.0871(5) 0.1067(5)
N2 N -0.4006(10) -0.0663(5) 0.2477(5)
N3 N -0.4160(11) -0.2265(5) 0.1069(5)
N4 N -0.5944(10) -0.0953(5) 0.1011(5)
O1 O 0.2130(11) 0.1143(5) 0.1441(5)
O2 O -0.0836(11) 0.1601(5) 0.1087(5)
O3 O -0.2049(10) -0.0909(5) 0.4350(5)
O4 O -0.2606(11) -0.0538(5) 0.5857(5)
O5 O 0.2634(11) -0.3973(5) 0.1200(5)
O6 O 0.8207(10) -0.4402(5) -0.0397(5)
C1 C -0.6000(13) -0.2019(6) 0.0682(7)
H1 H -0.7219 -0.2219 0.0913
H2 H -0.6094 -0.2371 -0.0006
C2 C -0.3968(11) -0.0624(6) 0.0681(6)
H3 H -0.3999 -0.0948 -0.0007
H4 H -0.3881 0.0069 0.0901
C3 C -0.2097(13) -0.0356(6) 0.2132(6)
H5 H -0.1950 0.0341 0.2370
H6 H -0.0915 -0.0533 0.2375
C4 C -0.4073(14) -0.1728(6) 0.2123(6)
H7 H -0.5275 -0.1942 0.2352
H8 H -0.2850 -0.1872 0.2371
C5 C -0.2274(13) -0.1934(6) 0.0746(6)
H9 H -0.1098 -0.2062 0.1038
H10 H -0.2212 -0.2295 0.0062
C6 C -0.5850(13) -0.0429(6) 0.2075(6)
H11 H -0.5829 0.0265 0.2304
H12 H -0.7080 -0.0645 0.2286
C7 C 0.0881(18) 0.1760(8) 0.1586(7)
C8 C 0.1392(17) 0.2761(7) 0.2393(7)
C9 C 0.3238(19) 0.3015(8) 0.2936(8)
H13 H 0.4224 0.2535 0.2774
C10 C 0.367(3) 0.3930(10) 0.3687(10)
H14 H 0.4991 0.4100 0.4044
C11 C 0.231(3) 0.4605(9) 0.3910(10)
H15 H 0.2638 0.5241 0.4448
C12 C 0.045(3) 0.4394(10) 0.3395(10)
H16 H -0.0515 0.4885 0.3560
C13 C -0.0004(19) 0.3463(8) 0.2632(8)
H17 H -0.1323 0.3297 0.2275
C14 C -0.1659(15) -0.0928(7) 0.5114(7)
C15 C 0.0149(14) -0.1489(6) 0.5132(6)
C16 C 0.1633(15) -0.1675(7) 0.4469(7)
H18 H 0.1502 -0.1466 0.3986
C17 C 0.3306(18) -0.2180(8) 0.4500(9)
H19 H 0.4418 -0.2275 0.4076
C18 C 0.3399(17) -0.2525(9) 0.5149(10)
H20 H 0.4516 -0.2900 0.5154
C19 C 0.1943(19) -0.2354(9) 0.5800(9)
H21 H 0.2066 -0.2589 0.6264
C20 C 0.0250(16) -0.1838(8) 0.5780(8)
H22 H -0.0846 -0.1745 0.6212
C21 C 0.1484(16) -0.4741(8) 0.1001(7)
C22 C -0.0410(15) -0.4631(7) 0.1553(7)
C23 C -0.0720(17) -0.3738(8) 0.2315(8)
H23 H 0.0280 -0.3188 0.2466
C24 C -0.245(2) -0.3635(10) 0.2836(10)
H24 H -0.2608 -0.3018 0.3383
C25 C -0.3941(18) -0.4398(11) 0.2599(9)
H25 H -0.5167 -0.4320 0.2957
C26 C -0.3699(17) -0.5292(9) 0.1834(9)
H26 H -0.4729 -0.5839 0.1650
C27 C -0.1929(16) -0.5399(8) 0.1322(8)
H27 H -0.1727 -0.6022 0.0791
Ag1A Ag -0.10613(10) 0.04558(5) -0.04652(5)
N4_2 N 0.4056(10) -0.0953(5) 0.1011(5)
O2A O 0.0836(11) -0.1601(5) -0.1087(5)
Ag2A Ag -0.57688(12) -0.00618(6) 0.58043(5)
O4A O -0.7394(11) 0.0538(5) 0.4143(5)
Ag1_2 Ag -0.89387(10) -0.04558(5) 0.04652(5)
C7A C -0.0881(18) -0.1760(8) -0.1586(7)
N1A N 0.2129(10) 0.0871(5) -0.1067(5)
N4A N -0.4056(10) 0.0953(5) -0.1011(5)
O1A O -0.2130(11) -0.1143(5) -0.1441(5)
C8A C -0.1392(17) -0.2761(7) -0.2393(7)
C9A C -0.3238(19) -0.3015(8) -0.2936(8)
C13A C 0.0004(19) -0.3463(8) -0.2632(8)
C12A C -0.045(3) -0.4394(10) -0.3395(10)
H17A H 0.1323 -0.3297 -0.2275
H13A H -0.4224 -0.2535 -0.2774
C10A C -0.367(3) -0.3930(10) -0.3687(10)
C11A C -0.231(3) -0.4605(9) -0.3910(10)
H16A H 0.0515 -0.4885 -0.3560
H14A H -0.4991 -0.4100 -0.4044
H15A H -0.2638 -0.5241 -0.4448
C1_2 C 0.4000(13) -0.2019(6) 0.0682(7)
C2_2 C 0.6032(11) -0.0624(6) 0.0681(6)
C6_2 C 0.4150(13) -0.0429(6) 0.2075(6)
N2_2 N 0.5994(10) -0.0663(5) 0.2477(5)
H11_2 H 0.4171 0.0265 0.2304
H12_2 H 0.2920 -0.0645 0.2286
N3_2 N 0.5840(11) -0.2265(5) 0.1069(5)
H1_2 H 0.2781 -0.2219 0.0913
H2_2 H 0.3906 -0.2371 -0.0006
N1_2 N 0.7871(10) -0.0871(5) 0.1067(5)
H3_2 H 0.6001 -0.0948 -0.0007
H4_2 H 0.6119 0.0069 0.0901
Ag1_3 Ag 1.10613(10) -0.04558(5) 0.04652(5)
C3_2 C 0.7903(13) -0.0356(6) 0.2132(6)
C5_2 C 0.7726(13) -0.1934(6) 0.0746(6)
Ag3_2 Ag -0.43718(13) -0.40198(6) 0.05286(7)
C4_2 C 0.5927(14) -0.1728(6) 0.2123(6)
Ag2_2 Ag 0.57688(12) 0.00618(6) 0.41957(5)
H9_2 H 0.8902 -0.2062 0.1038
H10_2 H 0.7788 -0.2295 0.0062
H7_2 H 0.4725 -0.1942 0.2352
H8_2 H 0.7150 -0.1872 0.2371
Ag3A Ag 0.43718(13) -0.59802(6) -0.05286(7)
C21A C 0.8516(16) -0.5259(8) -0.1001(7)
N3A N 0.4160(11) -0.7735(5) -0.1069(5)
O5A O 0.7366(11) -0.6027(5) -0.1200(5)
O6A O 0.1793(10) -0.5598(5) 0.0397(5)
C22A C 1.0410(15) -0.5369(7) -0.1553(7)
C23A C 1.0720(17) -0.6262(8) -0.2315(8)
C27A C 1.1929(16) -0.4601(8) -0.1322(8)
C26A C 1.3699(17) -0.4708(9) -0.1834(9)
H27A H 1.1727 -0.3978 -0.0791
H23A H 0.9720 -0.6812 -0.2466
C24A C 1.245(2) -0.6365(10) -0.2836(10)
C25A C 1.3941(18) -0.5602(11) -0.2599(9)
H26A H 1.4729 -0.4161 -0.1650
H24A H 1.2608 -0.6982 -0.3383
H25A H 1.5167 -0.5680 -0.2957
C14A C -0.8341(15) 0.0928(7) 0.4886(7)
N2A N -0.5994(10) 0.0663(5) 0.7523(5)
O3A O -0.7951(10) 0.0909(5) 0.5650(5)
C15A C -1.0149(14) 0.1489(6) 0.4868(6)
C16A C -1.1633(15) 0.1675(7) 0.5531(7)
C20A C -1.0250(16) 0.1838(8) 0.4220(8)
C19A C -1.1943(19) 0.2354(9) 0.4200(9)
H22A H -0.9154 0.1745 0.3788
H18A H -1.1502 0.1466 0.6014
C17A C -1.3306(18) 0.2180(8) 0.5500(9)
H19A H -1.4418 0.2275 0.5924
C18A C -1.3399(17) 0.2525(9) 0.4851(10)
H21A H -1.2066 0.2589 0.3736
H20A H -1.4516 0.2900 0.4846
H5_2 H 0.8050 0.0341 0.2370
H6_2 H 0.9085 -0.0533 0.2375
loop_
_geom_bond_atom_site_label_1
_geom_bond_atom_site_label_2
_geom_bond_site_symmetry_1
_geom_bond_site_symmetry_2
Ag1 N1 1_555 1_555
Ag2 N2 1_555 1_555
Ag3 O5 1_555 1_555
N1 C2 1_555 1_555
N2 C3 1_555 1_555
N3 C1 1_555 1_555
N4 C1 1_555 1_555
O1 Ag1 1_555 1_555
O2 C7 1_555 1_555
O3 Ag2 1_555 1_555
O4 C14 1_555 1_555
O5 C21 1_555 1_555
O6 Ag3 1_555 1_555
C1 H1 1_555 1_555
H2 C1 1_555 1_555
C2 N4 1_555 1_555
H3 C2 1_555 1_555
H4 C2 1_555 1_555
C3 N1 1_555 1_555
H5 C3 1_555 1_555
H6 C3 1_555 1_555
C4 N2 1_555 1_555
H7 C4 1_555 1_555
H8 C4 1_555 1_555
C5 N1 1_555 1_555
H9 C5 1_555 1_555
H10 C5 1_555 1_555
C6 N2 1_555 1_555
H11 C6 1_555 1_555
H12 C6 1_555 1_555
C7 O1 1_555 1_555
C8 C7 1_555 1_555
C9 C8 1_555 1_555
H13 C9 1_555 1_555
C10 C9 1_555 1_555
H14 C10 1_555 1_555
C11 C10 1_555 1_555
H15 C11 1_555 1_555
C12 C11 1_555 1_555
H16 C12 1_555 1_555
C13 C8 1_555 1_555
H17 C13 1_555 1_555
C14 O3 1_555 1_555
C15 C14 1_555 1_555
C16 C15 1_555 1_555
H18 C16 1_555 1_555
C17 C16 1_555 1_555
H19 C17 1_555 1_555
C18 C17 1_555 1_555
H20 C18 1_555 1_555
C19 C18 1_555 1_555
H21 C19 1_555 1_555
C20 C15 1_555 1_555
H22 C20 1_555 1_555
C21 C22 1_555 1_555
C22 C23 1_555 1_555
C23 H23 1_555 1_555
C24 C23 1_555 1_555
H24 C24 1_555 1_555
C25 C24 1_555 1_555
H25 C25 1_555 1_555
C26 C25 1_555 1_555
H26 C26 1_555 1_555
C27 C22 1_555 1_555
H27 C27 1_555 1_555
Ag1A Ag1 1_555 1_555
N4_2 Ag1 1_555 1_555
O2A Ag1 1_555 1_555
Ag2A Ag2 1_555 1_555
O4A Ag2 1_555 1_555
Ag1_2 N4 1_555 1_555
C7A O2A 1_555 1_555
N1A Ag1A 1_555 1_555
N4A Ag1A 1_555 1_555
O1A Ag1A 1_555 1_555
C8A C7A 1_555 1_555
C9A C8A 1_555 1_555
C13A C8A 1_555 1_555
C12A C13A 1_555 1_555
H17A C13A 1_555 1_555
H13A C9A 1_555 1_555
C10A C9A 1_555 1_555
C11A C12A 1_555 1_555
H16A C12A 1_555 1_555
H14A C10A 1_555 1_555
H15A C11A 1_555 1_555
C1_2 N4_2 1_555 1_555
C2_2 N4_2 1_555 1_555
C6_2 N4_2 1_555 1_555
N2_2 C6_2 1_555 1_555
H11_2 C6_2 1_555 1_555
H12_2 C6_2 1_555 1_555
N3_2 Ag3 1_555 1_555
H1_2 C1_2 1_555 1_555
H2_2 C1_2 1_555 1_555
N1_2 C2_2 1_555 1_555
H3_2 C2_2 1_555 1_555
H4_2 C2_2 1_555 1_555
Ag1_3 N1_2 1_555 1_555
C3_2 N2_2 1_555 1_555
C5_2 N3_2 1_555 1_555
Ag3_2 N3 1_555 1_555
C4_2 N2_2 1_555 1_555
Ag2_2 N2_2 1_555 1_555
H9_2 C5_2 1_555 1_555
H10_2 C5_2 1_555 1_555
H7_2 C4_2 1_555 1_555
H8_2 C4_2 1_555 1_555
Ag3A Ag3 1_555 1_555
C21A O6 1_555 1_555
N3A Ag3A 1_555 1_555
O5A Ag3A 1_555 1_555
O6A C21 1_555 1_555
C22A C21A 1_555 1_555
C23A C22A 1_555 1_555
C27A C22A 1_555 1_555
C26A C27A 1_555 1_555
H27A C27A 1_555 1_555
H23A C23A 1_555 1_555
C24A C23A 1_555 1_555
C25A C26A 1_555 1_555
H26A C26A 1_555 1_555
H24A C24A 1_555 1_555
H25A C25A 1_555 1_555
C14A O4A 1_555 1_555
N2A Ag2A 1_555 1_555
O3A Ag2A 1_555 1_555
C15A C14A 1_555 1_555
C16A C15A 1_555 1_555
C20A C15A 1_555 1_555
C19A C20A 1_555 1_555
H22A C20A 1_555 1_555
H18A C16A 1_555 1_555
C17A C16A 1_555 1_555
H19A C17A 1_555 1_555
C18A C19A 1_555 1_555
H21A C19A 1_555 1_555
H20A C18A 1_555 1_555
H5_2 C3_2 1_555 1_555
H6_2 C3_2 1_555 1_555
N3 C4 1_555 1_555
N3 C5 1_555 1_555
N4 C6 1_555 1_555
O2 Ag1A 1_555 1_555
O4 Ag2A 1_555 1_555
C12 C13 1_555 1_555
C19 C20 1_555 1_555
C26 C27 1_555 1_555
C7A O1A 1_555 1_555
C10A C11A 1_555 1_555
C1_2 N3_2 1_555 1_555
N3_2 C4_2 1_555 1_555
N1_2 C3_2 1_555 1_555
N1_2 C5_2 1_555 1_555
Ag3A O6A 1_555 1_555
C21A O5A 1_555 1_555
C24A C25A 1_555 1_555
C14A O3A 1_555 1_555
C17A C18A 1_555 1_555

#END
