
#######################################################################
#
#                 Cambridge Crystallographic Data Centre
#                                CCDC 
#
#######################################################################
#
# If this CIF has been generated from an entry in the Cambridge 
# Structural Database, then it will include bibliographic, chemical, 
# crystal, experimental, refinement or atomic coordinate data resulting 
# from the CCDC's data processing and validation procedures.
#
#######################################################################

data_XAZFAF
_symmetry_cell_setting           monoclinic
_symmetry_space_group_name_H-M   'P 2/c'
_symmetry_Int_Tables_number      13
_space_group_name_Hall           '-P 2yc'
loop_
_symmetry_equiv_pos_site_id
_symmetry_equiv_pos_as_xyz
1 x,y,z
2 x,-y,1/2+z
3 -x,-y,-z
4 -x,y,1/2-z
_cell_length_a                   6.383(2)
_cell_length_b                   6.816(2)
_cell_length_c                   12.414(5)
_cell_angle_alpha                90
_cell_angle_beta                 92.95
_cell_angle_gamma                90
_cell_volume                     539.374
loop_
_atom_site_label
_atom_site_type_symbol
_atom_site_fract_x
_atom_site_fract_y
_atom_site_fract_z
Ag1 Ag 0.0000 0.0000 0.0000
Ag2 Ag -0.5000 -0.69951(10) 0.2500
N1 N -0.0091(9) -0.2416(8) 0.1511(4)
N2 N -0.1926(8) -0.4935(7) 0.2499(4)
C1 C 0.0000 -0.1187(14) 0.2500
H1 H -0.1218 -0.0360 0.2492
C2 C -0.1957(10) -0.3663(9) 0.1533(5)
H2 H -0.2049 -0.4454 0.0893
H3 H -0.3176 -0.2838 0.1529
C3 C 0.1789(10) -0.3665(10) 0.1535(5)
H4 H 0.3022 -0.2861 0.1518
H5 H 0.1730 -0.4480 0.0904
C4 C 0.0000 -0.6113(14) 0.2500
H6 H -0.0043 -0.6945 0.1875
C5 C 0.5074(10) 0.0731(9) 0.0493(5)
O1 O 0.3423(10) 0.1076(11) 0.0964(5)
O2 O 0.3194(9) -0.1435(9) -0.0762(5)
N1B N 0.0091(9) 0.2416(8) -0.1511(4)
O1B O -0.3423(10) -0.1076(11) -0.0964(5)
O2B O -0.3194(9) 0.1435(9) 0.0762(5)
N2C N -0.8074(8) -0.4935(7) 0.2501(4)
O1_2 O -0.6577(10) -0.8924(11) 0.0964(5)
O1C O -0.3423(10) -0.8924(11) 0.4036(5)
C3C C -0.1789(10) -0.3665(10) 0.3465(5)
H1C H 0.1218 -0.0360 0.2508
N1C N 0.0091(9) -0.2416(8) 0.3489(4)
N2C_2 N 0.1926(8) -0.4935(7) 0.2501(4)
H6C H 0.0043 -0.6945 0.3125
C5B C 0.4926(10) -0.0731(9) -0.0493(5)
O2B_2 O 0.6806(9) 0.1435(9) 0.0762(5)
Ag2_2 Ag 0.5000 0.30049(10) 0.2500
Ag1_2 Ag 1.0000 0.0000 0.0000
O1B_2 O 0.6577(10) -0.1076(11) -0.0964(5)
Ag2A Ag 0.5000 -0.30049(10) -0.2500
Ag2_3 Ag 0.5000 -0.69951(10) 0.2500
C2C C 0.1957(10) -0.3663(9) 0.3467(5)
Ag1A Ag 0.0000 0.0000 0.5000
H4C H -0.3022 -0.2861 0.3482
H5C H -0.1730 -0.4480 0.4096
H2C H 0.2049 -0.4454 0.4107
H3C H 0.3176 -0.2838 0.3471
loop_
_geom_bond_atom_site_label_1
_geom_bond_atom_site_label_2
_geom_bond_site_symmetry_1
_geom_bond_site_symmetry_2
Ag1 N1 1_555 1_555
Ag2 N2 1_555 1_555
N1 C1 1_555 1_555
N2 C2 1_555 1_555
C1 H1 1_555 1_555
C2 N1 1_555 1_555
H2 C2 1_555 1_555
H3 C2 1_555 1_555
C3 N1 1_555 1_555
H4 C3 1_555 1_555
H5 C3 1_555 1_555
C4 N2 1_555 1_555
H6 C4 1_555 1_555
C5 O1 1_555 1_555
O1 Ag1 1_555 1_555
O2 Ag1 1_555 1_555
N1B Ag1 1_555 1_555
O1B Ag1 1_555 1_555
O2B Ag1 1_555 1_555
N2C Ag2 1_555 1_555
O1_2 Ag2 1_555 1_555
O1C Ag2 1_555 1_555
C3C N2 1_555 1_555
H1C C1 1_555 1_555
N1C C1 1_555 1_555
N2C_2 C3 1_555 1_555
H6C C4 1_555 1_555
C5B C5 1_555 1_555
O2B_2 C5 1_555 1_555
Ag2_2 O1 1_555 1_555
Ag1_2 O2B_2 1_555 1_555
O1B_2 C5B 1_555 1_555
Ag2A O1B_2 1_555 1_555
Ag2_3 N2C_2 1_555 1_555
C2C N1C 1_555 1_555
Ag1A N1C 1_555 1_555
H4C C3C 1_555 1_555
H5C C3C 1_555 1_555
H2C C2C 1_555 1_555
H3C C2C 1_555 1_555
C4 N2C_2 1_555 1_555
O2 C5B 1_555 1_555
C3C N1C 1_555 1_555
N2C_2 C2C 1_555 1_555
Ag1_2 O1B_2 1_555 1_555

#END
