
#######################################################################
#
#                 Cambridge Crystallographic Data Centre
#                                CCDC 
#
#######################################################################
#
# If this CIF has been generated from an entry in the Cambridge 
# Structural Database, then it will include bibliographic, chemical, 
# crystal, experimental, refinement or atomic coordinate data resulting 
# from the CCDC's data processing and validation procedures.
#
#######################################################################

data_XAZFOT
_symmetry_cell_setting           monoclinic
_symmetry_space_group_name_H-M   'C 2/c'
_symmetry_Int_Tables_number      15
_space_group_name_Hall           '-C 2yn'
loop_
_symmetry_equiv_pos_site_id
_symmetry_equiv_pos_as_xyz
1 x,y,z
2 1/2+x,1/2+y,z
3 -x,y,1/2-z
4 1/2-x,1/2+y,1/2-z
5 -x,-y,-z
6 1/2-x,1/2-y,-z
7 x,-y,1/2+z
8 1/2+x,1/2-y,1/2+z
_cell_length_a                   12.587(7)
_cell_length_b                   22.311(10)
_cell_length_c                   13.063(7)
_cell_angle_alpha                90
_cell_angle_beta                 103.30
_cell_angle_gamma                90
_cell_volume                     3570.07
loop_
_atom_site_label
_atom_site_type_symbol
_atom_site_fract_x
_atom_site_fract_y
_atom_site_fract_z
Ag1 Ag 0.02143(4) 0.43905(2) -0.01455(4)
Ag2 Ag -0.25097(4) 0.25888(2) 0.21566(4)
N1 N -0.0045(4) 0.3944(2) 0.1561(4)
N2 N -0.0999(3) 0.31683(19) 0.2320(4)
N3 N -0.0966(3) 0.28618(18) -0.2474(4)
N4 N 0.0260(4) 0.3641(2) -0.1531(4)
O1 O 0.1932(4) 0.4719(2) 0.0072(4)
O2 O -0.1638(3) 0.4433(2) -0.0855(4)
O3 O 0.3190(4) 0.6771(2) 0.1135(4)
O4 O 0.3396(4) 0.6295(2) 0.2656(4)
C1 C 0.0000 0.4316(4) 0.2500
H1 H -0.0634 0.4569 0.2387
C2 C -0.1034(4) 0.3562(3) 0.1397(5)
H2 H -0.1081 0.3320 0.0780
H3 H -0.1671 0.3812 0.1287
C3 C 0.0932(4) 0.3555(3) 0.1737(5)
H4 H 0.0899 0.3308 0.1129
H5 H 0.1575 0.3799 0.1836
C4 C 0.0000 0.2793(4) 0.2500
H6 H -0.0030 0.2541 0.1899
C5 C 0.0000 0.2482(3) -0.2500
H7 H -0.0164 0.2229 -0.3111
C6 C -0.0685(4) 0.3245(2) -0.1532(4)
H8 H -0.1308 0.3486 -0.1499
H9 H -0.0520 0.2996 -0.0917
C7 C 0.1210(4) 0.3255(2) -0.1576(4)
H10 H 0.1394 0.3011 -0.0954
H11 H 0.1827 0.3504 -0.1597
C8 C 0.0000 0.4006(3) -0.2500
H12 H -0.0613 0.4259 -0.2485
C9 C 0.2241(4) 0.5197(3) 0.0566(4)
C10 C 0.3452(5) 0.5321(3) 0.0807(5)
H13 H 0.3902 0.5019 0.0596
C11 C 0.3949(5) 0.5801(3) 0.1282(5)
H14 H 0.4725 0.5819 0.1354
C12 C 0.3455(4) 0.6322(3) 0.1715(5)
Ag1D Ag -0.02143(4) 0.56095(2) 0.01455(4)
C3B C -0.0932(4) 0.3555(3) 0.3263(5)
C9D C -0.2241(4) 0.4803(3) -0.0566(4)
H1B H 0.0634 0.4569 0.2613
N1B N 0.0045(4) 0.3944(2) 0.3439(4)
N2B N 0.0999(3) 0.31683(19) 0.2680(4)
H6B H 0.0030 0.2541 0.3101
N3E N -0.4034(3) 0.21382(18) 0.2474(4)
N3B N 0.0966(3) 0.28618(18) -0.2526(4)
H12B H 0.0613 0.4259 -0.2515
N4B N -0.0260(4) 0.3641(2) -0.3469(4)
O2D O 0.1638(3) 0.5567(2) 0.0855(4)
N1D N 0.0045(4) 0.6056(2) -0.1561(4)
N4D N -0.0260(4) 0.6359(2) 0.1531(4)
O1D O -0.1932(4) 0.5281(2) -0.0072(4)
C10D C -0.3452(5) 0.4679(3) -0.0807(5)
O3A O -0.1810(4) 0.1771(2) 0.1135(4)
H13D H -0.3902 0.4981 -0.0596
C11D C -0.3949(5) 0.4199(3) -0.1282(5)
Ag2A Ag 0.24903(4) 0.75888(2) 0.21566(4)
H14D H -0.4725 0.4181 -0.1354
C12D C -0.3455(4) 0.3678(3) -0.1715(5)
O3D O -0.3190(4) 0.3229(2) -0.1135(4)
O4D O -0.3396(4) 0.3705(2) -0.2656(4)
Ag2E Ag -0.24903(4) 0.24112(2) -0.21566(4)
Ag1B Ag -0.02143(4) 0.43905(2) -0.48545(4)
C6B C 0.0685(4) 0.3245(2) -0.3468(4)
C7B C -0.1210(4) 0.3255(2) -0.3424(4)
Ag2G Ag 0.24903(4) 0.24112(2) -0.28434(4)
H8B H 0.1308 0.3486 -0.3501
H9B H 0.0520 0.2996 -0.4083
N2E N -0.4001(3) 0.18317(19) -0.2320(4)
Ag1B_2 Ag -0.02143(4) 0.43905(2) 0.51455(4)
C2B C 0.1034(4) 0.3562(3) 0.3603(5)
H4B H -0.0899 0.3308 0.3871
H5B H -0.1575 0.3799 0.3164
Ag2B Ag 0.25097(4) 0.25888(2) 0.28434(4)
H10B H -0.1394 0.3011 -0.4046
H11B H -0.1827 0.3504 -0.3403
H7B H 0.0164 0.2229 -0.1889
H2B H 0.1081 0.3320 0.4220
H3B H 0.1671 0.3812 0.3713
O5 O 0.1114(4) 0.8149(2) 0.0647(4)
H15 H 0.1175 0.8133 -0.0163
H16 H 0.1086 0.8516 0.1094
O6 O 0.2737(7) 0.5132(3) 0.3220(5)
H17 H 0.2993 0.5548 0.2938
H18 H 0.3048 0.5157 0.3991
O7 O 0.3952(7) 0.4095(3) 0.2982(6)
H19 H 0.3665 0.4478 0.2866
H20 H 0.4100 0.3997 0.2202
O8 O -0.1038(4) 0.7935(2) -0.0535(4)
H21 H -0.0198 0.7906 -0.0238
H22 H -0.1082 0.8197 -0.1088
O9 O 0.3128(7) 0.3628(4) 0.0936(6)
H23 H 0.3620 0.3482 0.0658
H24 H 0.2896 0.4032 0.0688
loop_
_geom_bond_atom_site_label_1
_geom_bond_atom_site_label_2
_geom_bond_site_symmetry_1
_geom_bond_site_symmetry_2
Ag1 N1 1_555 1_555
Ag2 N2 1_555 1_555
N1 C1 1_555 1_555
N2 C2 1_555 1_555
N3 C5 1_555 1_555
N4 Ag1 1_555 1_555
O1 Ag1 1_555 1_555
O2 Ag1 1_555 1_555
O3 C12 1_555 1_555
O4 C12 1_555 1_555
C1 H1 1_555 1_555
C2 N1 1_555 1_555
H2 C2 1_555 1_555
H3 C2 1_555 1_555
C3 N1 1_555 1_555
H4 C3 1_555 1_555
H5 C3 1_555 1_555
C4 N2 1_555 1_555
H6 C4 1_555 1_555
C5 H7 1_555 1_555
C6 N3 1_555 1_555
H8 C6 1_555 1_555
H9 C6 1_555 1_555
C7 N4 1_555 1_555
H10 C7 1_555 1_555
H11 C7 1_555 1_555
C8 N4 1_555 1_555
H12 C8 1_555 1_555
C9 O1 1_555 1_555
C10 C9 1_555 1_555
H13 C10 1_555 1_555
C11 C10 1_555 1_555
H14 C11 1_555 1_555
C12 C11 1_555 1_555
O5 H15 1_555 1_555
H16 O5 1_555 1_555
O6 H17 1_555 1_555
H18 O6 1_555 1_555
O7 H19 1_555 1_555
H20 O7 1_555 1_555
O8 H21 1_555 1_555
H22 O8 1_555 1_555
O9 H23 1_555 1_555
H24 O9 1_555 1_555
Ag1D Ag1 1_555 1_555
C3B N2 1_555 1_555
C9D O2 1_555 1_555
H1B C1 1_555 1_555
N1B C1 1_555 1_555
N2B C3 1_555 1_555
H6B C4 1_555 1_555
N3E Ag2 1_555 1_555
N3B C5 1_555 1_555
H12B C8 1_555 1_555
N4B C8 1_555 1_555
O2D C9 1_555 1_555
N1D Ag1D 1_555 1_555
N4D Ag1D 1_555 1_555
O1D Ag1D 1_555 1_555
C10D C9D 1_555 1_555
O3A Ag2 1_555 1_555
H13D C10D 1_555 1_555
C11D C10D 1_555 1_555
Ag2A O3 1_555 1_555
H14D C11D 1_555 1_555
C12D C11D 1_555 1_555
O3D C12D 1_555 1_555
O4D C12D 1_555 1_555
Ag2E N3 1_555 1_555
Ag1B N4B 1_555 1_555
C6B N3B 1_555 1_555
C7B N3 1_555 1_555
Ag2G N3B 1_555 1_555
H8B C6B 1_555 1_555
H9B C6B 1_555 1_555
N2E Ag2E 1_555 1_555
Ag1B_2 N1B 1_555 1_555
C2B N1B 1_555 1_555
H4B C3B 1_555 1_555
H5B C3B 1_555 1_555
Ag2B N2B 1_555 1_555
H10B C7B 1_555 1_555
H11B C7B 1_555 1_555
H7B C5 1_555 1_555
H2B C2B 1_555 1_555
H3B C2B 1_555 1_555
N4 C6 1_555 1_555
C4 N2B 1_555 1_555
C7 N3B 1_555 1_555
Ag1D O2D 1_555 1_555
C3B N1B 1_555 1_555
C9D O1D 1_555 1_555
N2B C2B 1_555 1_555
N4B C6B 1_555 1_555
N4B C7B 1_555 1_555
O3D Ag2E 1_555 1_555

#END
