
#######################################################################
#
#                 Cambridge Crystallographic Data Centre
#                                CCDC 
#
#######################################################################
#
# If this CIF has been generated from an entry in the Cambridge 
# Structural Database, then it will include bibliographic, chemical, 
# crystal, experimental, refinement or atomic coordinate data resulting 
# from the CCDC's data processing and validation procedures.
#
#######################################################################

data_XAZFEJ
_symmetry_cell_setting           orthorhombic
_symmetry_space_group_name_H-M   'P n n m'
_symmetry_Int_Tables_number      58
_space_group_name_Hall           '-P 2 2n'
loop_
_symmetry_equiv_pos_site_id
_symmetry_equiv_pos_as_xyz
1 x,y,z
2 x,y,-z
3 1/2+x,1/2-y,1/2+z
4 1/2-x,1/2+y,1/2+z
5 -x,-y,-z
6 -x,-y,z
7 1/2-x,1/2+y,1/2-z
8 1/2+x,1/2-y,1/2-z
_cell_length_a                   10.011(4)
_cell_length_b                   19.369(7)
_cell_length_c                   6.4140(10)
_cell_angle_alpha                90
_cell_angle_beta                 90
_cell_angle_gamma                90
_cell_volume                     1243.69
loop_
_atom_site_label
_atom_site_type_symbol
_atom_site_fract_x
_atom_site_fract_y
_atom_site_fract_z
S1 S -0.31762(18) 0.07309(9) 0.0000
O2 O -0.3805(8) 0.1395(3) 0.0000
O3 O -0.3020(9) 0.0493(4) 0.2200(12)
O4 O -0.4110(9) 0.0242(4) -0.1012(12)
O5 O -0.1949(9) 0.0698(9) -0.1082(17)
O4A O -0.4110(9) 0.0242(4) 0.1012(12)
O3A O -0.3020(9) 0.0493(4) -0.2200(12)
O5A O -0.1949(9) 0.0698(9) 0.1082(17)
O6 O -0.1299(10) 0.1201(6) 0.5000
H9 H -0.1740 0.0862 0.6088
H9A H -0.1740 0.0862 0.3912
Ag1 Ag 0.14116(5) 0.19616(3) 0.0000
Ag2 Ag 0.5000 0.0000 -0.5000
O1 O 0.0639(8) 0.0785(4) 0.0000
H1 H 0.0204 0.0995 0.1093
N1 N 0.2675(3) 0.18646(16) -0.3105(5)
N2 N 0.4090(5) 0.1061(3) -0.5000
N3 N 0.4620(5) 0.2285(3) -0.5000
C1 C 0.3263(4) 0.1164(2) -0.3130(7)
H2 H 0.2558 0.0828 -0.3115
H3 H 0.3797 0.1097 -0.1904
C2 C 0.3782(4) 0.2370(2) -0.3130(7)
H4 H 0.4323 0.2305 -0.1910
H5 H 0.3427 0.2830 -0.3093
C3 C 0.1873(6) 0.1956(3) -0.5000
H6 H 0.1189 0.1609 -0.5000
H7 H 0.1468 0.2406 -0.5000
C4 C 0.5169(6) 0.1573(3) -0.5000
H8 H 0.5717 0.1508 -0.6212
H1A H 0.0204 0.0995 -0.1093
C1A C 0.3263(4) 0.1164(2) -0.6870(7)
N1A N 0.2675(3) 0.18646(16) -0.6895(5)
C2A C 0.3782(4) 0.2370(2) -0.6870(7)
H8A H 0.5717 0.1508 -0.3788
H4A H 0.4323 0.2305 -0.8090
H5A H 0.3427 0.2830 -0.6907
H2A H 0.2558 0.0828 -0.6885
H3A H 0.3797 0.1097 -0.8096
N1D N 0.7325(3) -0.18646(16) -0.6895(5)
N2D N 0.5910(5) -0.1061(3) -0.5000
N3D N 0.5380(5) -0.2285(3) -0.5000
C1D C 0.6737(4) -0.1164(2) -0.6870(7)
H2D H 0.7442 -0.0828 -0.6885
H3D H 0.6203 -0.1097 -0.8096
C2D C 0.6218(4) -0.2370(2) -0.6870(7)
H4D H 0.5677 -0.2305 -0.8090
H5D H 0.6573 -0.2830 -0.6907
C3D C 0.8127(6) -0.1956(3) -0.5000
H6D H 0.8811 -0.1609 -0.5000
H7D H 0.8532 -0.2406 -0.5000
C4D C 0.4831(6) -0.1573(3) -0.5000
H8D H 0.4283 -0.1508 -0.3788
C1E C 0.6737(4) -0.1164(2) -0.3130(7)
N1E N 0.7325(3) -0.18646(16) -0.3105(5)
C2E C 0.6218(4) -0.2370(2) -0.3130(7)
H8E H 0.4283 -0.1508 -0.6212
H4E H 0.5677 -0.2305 -0.1910
H5E H 0.6573 -0.2830 -0.3093
H2E H 0.7442 -0.0828 -0.3115
H3E H 0.6203 -0.1097 -0.1904
Ag1A Ag 0.14116(5) 0.19616(3) -1.0000
N1A_2 N 0.2675(3) 0.18646(16) 0.3105(5)
N3B N -0.0380(5) 0.2715(3) 0.0000
Ag1B Ag 0.64116(5) 0.30384(3) -0.5000
Ag1D Ag 0.85884(5) -0.19616(3) -1.0000
Ag1C Ag 0.35884(5) -0.30384(3) -0.5000
Ag1D_2 Ag 0.85884(5) -0.19616(3) 0.0000
O1_2 O 0.0639(8) 0.0785(4) -1.0000
N1_2 N 0.2675(3) 0.18646(16) -1.3105(5)
N3B_2 N -0.0380(5) 0.2715(3) -1.0000
H1_2 H 0.0204 0.0995 -0.8907
H1A_2 H 0.0204 0.0995 -1.1093
H10? H -0.0366 0.0638 0.5000
loop_
_geom_bond_atom_site_label_1
_geom_bond_atom_site_label_2
_geom_bond_site_symmetry_1
_geom_bond_site_symmetry_2
Ag1 O1 1_555 1_555
Ag2 N2 1_555 1_555
O1 H1 1_555 1_555
N1 Ag1 1_555 1_555
N2 C1 1_555 1_555
N3 C2 1_555 1_555
C1 N1 1_555 1_555
H2 C1 1_555 1_555
H3 C1 1_555 1_555
C2 N1 1_555 1_555
H4 C2 1_555 1_555
H5 C2 1_555 1_555
C3 N1 1_555 1_555
H6 C3 1_555 1_555
H7 C3 1_555 1_555
C4 N2 1_555 1_555
H8 C4 1_555 1_555
S1 O2 1_555 1_555
O3 S1 1_555 1_555
O4 S1 1_555 1_555
O5 S1 1_555 1_555
O6 H9 1_555 1_555
H1A O1 1_555 1_555
C1A N2 1_555 1_555
N1A C3 1_555 1_555
C2A N3 1_555 1_555
H8A C4 1_555 1_555
H4A C2A 1_555 1_555
H5A C2A 1_555 1_555
H2A C1A 1_555 1_555
H3A C1A 1_555 1_555
O4A S1 1_555 1_555
O3A S1 1_555 1_555
O5A S1 1_555 1_555
H9A O6 1_555 1_555
N1D C1D 1_555 1_555
N2D Ag2 1_555 1_555
N3D C2D 1_555 1_555
C1D N2D 1_555 1_555
H2D C1D 1_555 1_555
H3D C1D 1_555 1_555
C2D N1D 1_555 1_555
H4D C2D 1_555 1_555
H5D C2D 1_555 1_555
C3D N1D 1_555 1_555
H6D C3D 1_555 1_555
H7D C3D 1_555 1_555
C4D N2D 1_555 1_555
H8D C4D 1_555 1_555
C1E N2D 1_555 1_555
N1E C3D 1_555 1_555
C2E N3D 1_555 1_555
H8E C4D 1_555 1_555
H4E C2E 1_555 1_555
H5E C2E 1_555 1_555
H2E C1E 1_555 1_555
H3E C1E 1_555 1_555
Ag1A N1A 1_555 1_555
N1A_2 Ag1 1_555 1_555
N3B Ag1 1_555 1_555
Ag1B N3 1_555 1_555
Ag1D N1D 1_555 1_555
Ag1C N3D 1_555 1_555
Ag1D_2 N1E 1_555 1_555
O1_2 Ag1A 1_555 1_555
N1_2 Ag1A 1_555 1_555
N3B_2 Ag1A 1_555 1_555
H1_2 O1_2 1_555 1_555
H1A_2 O1_2 1_555 1_555
N3 C4 1_555 1_555
O3 O4A 1_555 1_555
O3 O5A 1_555 1_555
O4 O3A 1_555 1_555
O4 O4A 1_555 1_555
O5 O5A 1_555 1_555
O5 O3A 1_555 1_555
C1A N1A 1_555 1_555
N1A C2A 1_555 1_555
N3D C4D 1_555 1_555
C1E N1E 1_555 1_555
N1E C2E 1_555 1_555

#END
