
#######################################################################
#
#                 Cambridge Crystallographic Data Centre
#                                CCDC 
#
#######################################################################
#
# If this CIF has been generated from an entry in the Cambridge 
# Structural Database, then it will include bibliographic, chemical, 
# crystal, experimental, refinement or atomic coordinate data resulting 
# from the CCDC's data processing and validation procedures.
#
#######################################################################

data_XAZMUH
_symmetry_cell_setting           monoclinic
_symmetry_space_group_name_H-M   'C 2/c'
_symmetry_Int_Tables_number      15
_space_group_name_Hall           '-C 2yn'
loop_
_symmetry_equiv_pos_site_id
_symmetry_equiv_pos_as_xyz
1 x,y,z
2 1/2+x,1/2+y,z
3 -x,y,1/2-z
4 1/2-x,1/2+y,1/2-z
5 -x,-y,-z
6 1/2-x,1/2-y,-z
7 x,-y,1/2+z
8 1/2+x,1/2-y,1/2+z
_cell_length_a                   24.1289(18)
_cell_length_b                   8.8057(7)
_cell_length_c                   19.9518(15)
_cell_angle_alpha                90
_cell_angle_beta                 123.5090(10)
_cell_angle_gamma                90
_cell_volume                     3534.64
loop_
_atom_site_label
_atom_site_type_symbol
_atom_site_fract_x
_atom_site_fract_y
_atom_site_fract_z
Cu1 Cu 0.145589(17) 0.14891(4) 0.08554(2)
C1 C 0.06862(16) 0.3176(3) -0.0627(2)
H1 H 0.1008 0.3898 -0.0312
C2 C 0.01889(17) 0.3574(4) -0.1379(2)
H2 H 0.0166 0.4551 -0.1569
C3 C -0.02865(17) 0.2497(4) -0.1861(2)
H3 H -0.0634 0.2740 -0.2381
C4 C -0.02386(15) 0.1078(4) -0.15625(18)
H4 H -0.0548 0.0337 -0.1882
C5 C 0.02800(13) 0.0740(3) -0.07719(16)
C6 C 0.07412(13) -0.1418(3) 0.02138(17)
C7 C 0.06593(15) -0.2983(3) 0.02495(19)
H5 H 0.0307 -0.3487 -0.0190
C8 C 0.10994(16) -0.3765(4) 0.0933(2)
H6 H 0.1052 -0.4806 0.0964
C9 C 0.16198(16) -0.2984(4) 0.1582(2)
H7 H 0.1930 -0.3492 0.2052
C10 C 0.16656(15) -0.1464(4) 0.15138(19)
H8 H 0.2012 -0.0945 0.1952
C11 C 0.25064(16) 0.2701(4) 0.10620(18)
C12 C 0.30094(16) 0.3782(4) 0.1098(2)
H9 H 0.3328 0.4053 0.1656
H10 H 0.3249 0.3256 0.0906
C13 C 0.36309(15) 0.7548(3) 0.29408(17)
C14 C 0.33802(17) 0.8350(4) 0.21584(19)
H11 H 0.3001 0.7795 0.1731
H12 H 0.3226 0.9353 0.2184
C15 C 0.38853(19) 0.8519(4) 0.1946(2)
H13 H 0.4287 0.8955 0.2401
H14 H 0.3715 0.9227 0.1501
C16 C 0.27226(15) 0.5205(4) 0.0623(2)
H15 H 0.2548 0.5813 0.0871
H16 H 0.2353 0.4937 0.0087
N1 N 0.07421(12) 0.1779(3) -0.03041(14)
N2 N 0.12345(11) -0.0657(3) 0.08427(13)
N3 N 0.02888(11) -0.0686(3) -0.04925(14)
H17 H -0.0053 -0.1227 -0.0821
O1 O 0.19526(11) 0.3262(2) 0.08800(15)
O2 O 0.26315(14) 0.1346(3) 0.11942(17)
O3 O 0.32079(11) 0.6822(3) 0.30018(13)
O4 O 0.42232(11) 0.7681(3) 0.35064(13)
S1 S 0.40965(4) 0.67566(10) 0.16695(5)
S2 S 0.33039(4) 0.63573(10) 0.05342(5)
Cu1C Cu 0.354411(17) 0.64891(4) 0.41446(2)
O3C O 0.17921(11) 0.1822(3) 0.19982(13)
O4C O 0.07768(11) 0.2681(3) 0.14936(13)
loop_
_geom_bond_atom_site_label_1
_geom_bond_atom_site_label_2
_geom_bond_site_symmetry_1
_geom_bond_site_symmetry_2
Cu1 N1 1_555 1_555
C1 H1 1_555 1_555
C2 C1 1_555 1_555
H2 C2 1_555 1_555
C3 C2 1_555 1_555
H3 C3 1_555 1_555
C4 C3 1_555 1_555
H4 C4 1_555 1_555
C5 C4 1_555 1_555
C6 C7 1_555 1_555
C7 H5 1_555 1_555
C8 C7 1_555 1_555
H6 C8 1_555 1_555
C9 C8 1_555 1_555
H7 C9 1_555 1_555
C10 C9 1_555 1_555
H8 C10 1_555 1_555
C11 C12 1_555 1_555
C12 H9 1_555 1_555
H10 C12 1_555 1_555
C13 C14 1_555 1_555
C14 H11 1_555 1_555
H12 C14 1_555 1_555
C15 C14 1_555 1_555
H13 C15 1_555 1_555
H14 C15 1_555 1_555
C16 C12 1_555 1_555
H15 C16 1_555 1_555
H16 C16 1_555 1_555
N1 C1 1_555 1_555
N2 Cu1 1_555 1_555
N3 C5 1_555 1_555
H17 N3 1_555 1_555
O1 Cu1 1_555 1_555
O2 Cu1 1_555 1_555
O3 C13 1_555 1_555
O4 C13 1_555 1_555
S1 C15 1_555 1_555
S2 C16 1_555 1_555
Cu1C O3 1_555 1_555
O3C Cu1 1_555 1_555
O4C Cu1 1_555 1_555
C5 N1 1_555 1_555
C6 N2 1_555 1_555
C6 N3 1_555 1_555
C10 N2 1_555 1_555
C11 O1 1_555 1_555
C11 O2 1_555 1_555
O4 Cu1C 1_555 1_555
S1 S2 1_555 1_555

#END
