
#######################################################################
#
#                 Cambridge Crystallographic Data Centre
#                                CCDC 
#
#######################################################################
#
# If this CIF has been generated from an entry in the Cambridge 
# Structural Database, then it will include bibliographic, chemical, 
# crystal, experimental, refinement or atomic coordinate data resulting 
# from the CCDC's data processing and validation procedures.
#
#######################################################################

data_XAZNER
_symmetry_cell_setting           orthorhombic
_symmetry_space_group_name_H-M   'P b c a'
_symmetry_Int_Tables_number      61
_space_group_name_Hall           '-P 2ac 2ab'
loop_
_symmetry_equiv_pos_site_id
_symmetry_equiv_pos_as_xyz
1 x,y,z
2 1/2+x,y,1/2-z
3 x,1/2-y,1/2+z
4 1/2-x,1/2+y,z
5 -x,-y,-z
6 1/2-x,-y,1/2+z
7 -x,1/2+y,1/2-z
8 1/2+x,1/2-y,-z
_cell_length_a                   6.8087(6)
_cell_length_b                   13.5438(12)
_cell_length_c                   30.999(3)
_cell_angle_alpha                90
_cell_angle_beta                 90
_cell_angle_gamma                90
_cell_volume                     2858.59
loop_
_atom_site_label
_atom_site_type_symbol
_atom_site_fract_x
_atom_site_fract_y
_atom_site_fract_z
Cs1 Cs -0.38496(5) 0.64912(2) -0.007681(10)
S1 S 0.0953(2) 0.60861(9) 0.07458(4)
S2 S -0.1104(2) 0.43075(9) 0.06357(4)
O1 O -0.0715(6) 0.6691(3) 0.06433(12)
O2 O 0.2816(6) 0.6437(3) 0.05956(12)
O3 O -0.0709(6) 0.3446(3) 0.03839(12)
O4 O -0.2916(6) 0.4806(3) 0.05533(13)
N1 N 0.0807(7) 0.4972(3) 0.05957(14)
C1 C 0.1099(8) 0.6068(4) 0.1318(2)
C2 C 0.2353(8) 0.5407(4) 0.1516(2)
H1 H 0.3132(8) 0.4970(4) 0.1348(2)
C3 C 0.2460(9) 0.5386(4) 0.1957(2)
H2 H 0.3315(9) 0.4933(4) 0.2097(2)
C4 C 0.1324(9) 0.6025(4) 0.2200(2)
H3 H 0.1394(9) 0.6006(4) 0.2506(2)
C5 C 0.0099(9) 0.6684(4) 0.2002(2)
H4 H -0.0671(9) 0.7124(4) 0.2170(2)
C6 C -0.0018(9) 0.6710(4) 0.1557(2)
H5 H -0.0865(9) 0.7168(4) 0.1418(2)
C7 C -0.1197(8) 0.3919(4) 0.1180(2)
C8 C -0.2349(9) 0.4426(4) 0.1472(2)
H6 H -0.3163(9) 0.4954(4) 0.1377(2)
C9 C -0.2309(10) 0.4161(4) 0.1900(2)
H7 H -0.3084(10) 0.4512(4) 0.2103(2)
C10 C -0.1153(10) 0.3392(4) 0.2034(2)
H8 H -0.1121(10) 0.3219(4) 0.2331(2)
C11 C -0.0038(10) 0.2869(4) 0.1743(2)
H9 H 0.0753(10) 0.2334(4) 0.1838(2)
C12 C -0.0076(9) 0.3128(4) 0.1310(2)
H10 H 0.0664(9) 0.2762(4) 0.1105(2)
Cs1D Cs -0.61504(5) 0.35088(2) 0.007681(10)
Cs1G Cs -0.88496(5) 0.85088(2) 0.007681(10)
Cs1G_2 Cs 0.11504(5) 0.85088(2) 0.007681(10)
O1G O -0.5715(6) 0.8309(3) -0.06433(12)
O2_2 O -0.7184(6) 0.6437(3) 0.05956(12)
O2G O -0.2184(6) 0.8563(3) -0.05956(12)
O3C O -0.4291(6) 0.8446(3) 0.03839(12)
O3D O 0.0709(6) 0.6554(3) -0.03839(12)
O4D O -0.7084(6) 0.5194(3) -0.05533(13)
Cs1_2 Cs 0.61504(5) 0.64912(2) -0.007681(10)
Cs1C Cs -0.11504(5) 0.14912(2) -0.007681(10)
Cs1D_2 Cs 0.38496(5) 0.35088(2) 0.007681(10)
loop_
_geom_bond_atom_site_label_1
_geom_bond_atom_site_label_2
_geom_bond_site_symmetry_1
_geom_bond_site_symmetry_2
Cs1 O1 1_555 1_555
S1 O1 1_555 1_555
S2 O3 1_555 1_555
O1 Cs1G_2 1_555 1_555
O2 S1 1_555 1_555
O3 Cs1C 1_555 1_555
O4 Cs1 1_555 1_555
N1 S1 1_555 1_555
C1 S1 1_555 1_555
C2 C1 1_555 1_555
H1 C2 1_555 1_555
C3 C2 1_555 1_555
H2 C3 1_555 1_555
C4 C3 1_555 1_555
H3 C4 1_555 1_555
C5 C4 1_555 1_555
H4 C5 1_555 1_555
C6 C1 1_555 1_555
H5 C6 1_555 1_555
C7 S2 1_555 1_555
C8 C7 1_555 1_555
H6 C8 1_555 1_555
C9 C8 1_555 1_555
H7 C9 1_555 1_555
C10 C9 1_555 1_555
H8 C10 1_555 1_555
C11 C10 1_555 1_555
H9 C11 1_555 1_555
C12 C7 1_555 1_555
H10 C12 1_555 1_555
Cs1D O4 1_555 1_555
Cs1G O1G 1_555 1_555
Cs1G_2 O2 1_555 1_555
O1G Cs1 1_555 1_555
O2_2 Cs1 1_555 1_555
O2G Cs1 1_555 1_555
O3C Cs1 1_555 1_555
O3D Cs1 1_555 1_555
O4D Cs1 1_555 1_555
Cs1_2 O2 1_555 1_555
Cs1D_2 O3 1_555 1_555
S2 N1 1_555 1_555
S2 O4 1_555 1_555
C5 C6 1_555 1_555
C11 C12 1_555 1_555
Cs1D O4D 1_555 1_555
Cs1G O2_2 1_555 1_555
Cs1G O3C 1_555 1_555
Cs1G_2 O2G 1_555 1_555
Cs1G_2 O3D 1_555 1_555

#END
