
#######################################################################
#
#                 Cambridge Crystallographic Data Centre
#                                CCDC 
#
#######################################################################
#
# If this CIF has been generated from an entry in the Cambridge 
# Structural Database, then it will include bibliographic, chemical, 
# crystal, experimental, refinement or atomic coordinate data resulting 
# from the CCDC's data processing and validation procedures.
#
#######################################################################

data_XAZRAS
_symmetry_cell_setting           monoclinic
_symmetry_space_group_name_H-M   'P 21/c'
_symmetry_Int_Tables_number      14
_space_group_name_Hall           '-P 2ybc'
loop_
_symmetry_equiv_pos_site_id
_symmetry_equiv_pos_as_xyz
1 x,y,z
2 -x,1/2+y,1/2-z
3 -x,-y,-z
4 x,1/2-y,1/2+z
_cell_length_a                   7.2260(10)
_cell_length_b                   15.230(3)
_cell_length_c                   18.222(4)
_cell_angle_alpha                90
_cell_angle_beta                 92.19(3)
_cell_angle_gamma                90
_cell_volume                     2003.9
loop_
_atom_site_label
_atom_site_type_symbol
_atom_site_fract_x
_atom_site_fract_y
_atom_site_fract_z
Cu1 Cu 0.43020(5) 0.75499(2) 0.48148(2)
S1 S 0.98859(12) 0.84555(6) 0.29926(5)
S2 S 1.02624(13) 0.70449(7) 0.18212(6)
S3 S 0.84385(12) 0.54647(6) 0.10634(5)
O1 O 0.5230(3) 0.81527(15) 0.39541(13)
O2 O 0.1509(4) 0.8140(3) 0.4827(2)
H1 H 0.041(3) 0.801(5) 0.469(4)
H2 H 0.151(9) 0.853(4) 0.516(3)
O3 O 0.8001(3) 0.76688(16) 0.43470(14)
N1 N 0.3515(4) 0.64695(18) 0.42210(15)
N2 N 0.3902(4) 0.66975(18) 0.56652(15)
N3 N 0.7377(4) 0.7219(2) 0.25759(17)
N4 N 0.7040(4) 0.6491(2) 0.21182(16)
C1 C 0.3382(5) 0.6378(2) 0.3495(2)
H3 H 0.3726 0.6842 0.3198
C2 C 0.2730(6) 0.5591(3) 0.3163(2)
H4 H 0.2644 0.5543 0.2654
C3 C 0.2223(6) 0.4898(3) 0.3596(3)
H5 H 0.1778 0.4382 0.3380
C4 C 0.2381(4) 0.4972(2) 0.4368(2)
C5 C 0.1963(5) 0.4279(2) 0.4881(3)
H6 H 0.1573 0.3735 0.4702
C6 C 0.2125(5) 0.4405(2) 0.5611(3)
H7 H 0.1820 0.3951 0.5926
C7 C 0.2762(5) 0.5228(2) 0.5915(2)
C8 C 0.2988(5) 0.5409(3) 0.6678(2)
H8 H 0.2684 0.4987 0.7022
C9 C 0.3664(5) 0.6217(3) 0.6906(2)
H9 H 0.3810 0.6343 0.7404
C10 C 0.4129(5) 0.6845(3) 0.63819(19)
H10 H 0.4610 0.7382 0.6540
C11 C 0.3234(4) 0.5908(2) 0.54331(19)
C12 C 0.3032(4) 0.5781(2) 0.46514(19)
C13 C 0.6996(4) 0.81329(19) 0.39506(16)
C14 C 0.7788(5) 0.8793(2) 0.34144(18)
H11 H 0.8027 0.9340 0.3674
H12 H 0.6856 0.8910 0.3030
C15 C 0.8990(5) 0.7557(2) 0.24900(19)
C16 C 0.8412(4) 0.6322(2) 0.17009(17)
C17 C 0.6030(5) 0.5183(2) 0.10691(19)
H13 H 0.5833 0.4659 0.0774
H14 H 0.5724 0.5038 0.1569
C18 C 0.4682(5) 0.5897(2) 0.07819(17)
O4 O 0.5378(3) 0.65280(16) 0.04436(14)
O5 O 0.3041(4) 0.5791(2) 0.0903(2)
Cu1C Cu 0.43020(5) 0.74501(2) -0.01852(2)
O4C O 0.5378(3) 0.84720(16) 0.54436(14)
loop_
_geom_bond_atom_site_label_1
_geom_bond_atom_site_label_2
_geom_bond_site_symmetry_1
_geom_bond_site_symmetry_2
Cu1 O1 1_555 1_555
S1 C14 1_555 1_555
S2 C15 1_555 1_555
S3 C16 1_555 1_555
O1 C13 1_555 1_555
O2 Cu1 1_555 1_555
H1 O2 1_555 1_555
H2 O2 1_555 1_555
O3 C13 1_555 1_555
N1 Cu1 1_555 1_555
N2 Cu1 1_555 1_555
N3 N4 1_555 1_555
N4 C16 1_555 1_555
C1 N1 1_555 1_555
H3 C1 1_555 1_555
C2 C1 1_555 1_555
H4 C2 1_555 1_555
C3 C2 1_555 1_555
H5 C3 1_555 1_555
C4 C3 1_555 1_555
C5 C4 1_555 1_555
H6 C5 1_555 1_555
C6 C5 1_555 1_555
H7 C6 1_555 1_555
C7 C6 1_555 1_555
C8 C7 1_555 1_555
H8 C8 1_555 1_555
C9 C8 1_555 1_555
H9 C9 1_555 1_555
C10 N2 1_555 1_555
H10 C10 1_555 1_555
C11 N2 1_555 1_555
C12 N1 1_555 1_555
C13 C14 1_555 1_555
C14 H11 1_555 1_555
H12 C14 1_555 1_555
C15 S1 1_555 1_555
C16 S2 1_555 1_555
C17 S3 1_555 1_555
H13 C17 1_555 1_555
H14 C17 1_555 1_555
C18 C17 1_555 1_555
O4 C18 1_555 1_555
O5 C18 1_555 1_555
Cu1C O4 1_555 1_555
O4C Cu1 1_555 1_555
N3 C15 1_555 1_555
C4 C12 1_555 1_555
C7 C11 1_555 1_555
C9 C10 1_555 1_555
C11 C12 1_555 1_555

#END
