
#######################################################################
#
#                 Cambridge Crystallographic Data Centre
#                                CCDC 
#
#######################################################################
#
# If this CIF has been generated from an entry in the Cambridge 
# Structural Database, then it will include bibliographic, chemical, 
# crystal, experimental, refinement or atomic coordinate data resulting 
# from the CCDC's data processing and validation procedures.
#
#######################################################################

data_XAZVAW
_symmetry_cell_setting           monoclinic
_symmetry_space_group_name_H-M   'P 21/c'
_symmetry_Int_Tables_number      14
_space_group_name_Hall           '-P 2ybc'
loop_
_symmetry_equiv_pos_site_id
_symmetry_equiv_pos_as_xyz
1 x,y,z
2 -x,1/2+y,1/2-z
3 -x,-y,-z
4 x,1/2-y,1/2+z
_cell_length_a                   12.4853(13)
_cell_length_b                   12.4689(13)
_cell_length_c                   9.6914(8)
_cell_angle_alpha                90
_cell_angle_beta                 92.952(7)
_cell_angle_gamma                90
_cell_volume                     1506.74
loop_
_atom_site_label
_atom_site_type_symbol
_atom_site_fract_x
_atom_site_fract_y
_atom_site_fract_z
Co1 Co 0.83110(5) 0.35774(5) 0.19420(6)
K1 K 0.75090(11) 0.57375(9) 0.42121(13)
O1 O 0.8801(3) 0.3649(2) 0.3852(3)
O2 O 1.0300(3) 0.3831(3) 0.5172(3)
C1 C 0.9823(4) 0.3742(3) 0.4046(5)
C2 C 1.0420(4) 0.3720(4) 0.2685(5)
H1 H 1.1123 0.3343 0.2841
N1 N 0.9735(3) 0.3124(3) 0.1647(4)
H2 H 0.9804 0.2396 0.1777
H3 H 0.9920 0.3289 0.0765
C3 C 1.0608(4) 0.4847(4) 0.2154(5)
H4 H 1.0981 0.5265 0.2902
H5 H 1.1096 0.4801 0.1382
C4 C 0.9615(4) 0.5457(4) 0.1658(5)
O3 O 0.8679(3) 0.5034(2) 0.1644(3)
O4 O 0.9747(3) 0.6394(2) 0.1257(3)
O5 O 0.7903(3) 0.2133(2) 0.2163(3)
O6 O 0.6924(4) 0.0825(3) 0.1201(4)
C5 C 0.7245(4) 0.1754(4) 0.1234(5)
C6 C 0.6882(5) 0.2621(5) 0.0140(6)
H6 H 0.6743 0.2280 -0.0785
N2 N 0.7764(3) 0.3441(3) 0.0074(4)
H7 H 0.7499 0.4085 -0.0257
H8 H 0.8290 0.3208 -0.0486
C7 C 0.5928(6) 0.3219(5) 0.0535(6)
H9 H 0.5632 0.3603 -0.0293
H10 H 0.5381 0.2692 0.0797
C8 C 0.6066(5) 0.3995(5) 0.1653(6)
O7 O 0.6932(3) 0.4104(3) 0.2403(3)
O8 O 0.5292(4) 0.4599(5) 0.1905(6)
O10 O 0.7698(4) 0.7853(3) 0.5047(6)
H13 H 0.7598 0.8298 0.4404
H14 H 0.8282 0.8038 0.5449
O11 O 0.6130(6) 0.6865(6) 0.2363(8)
H15 H 0.6556 0.6947 0.1728
H16 H 0.5893 0.6240 0.2237
K1B K 1.24910(11) 0.42625(9) 0.57879(13)
K1C K 0.75090(11) -0.07375(9) -0.07879(13)
O2B O 0.9700(3) 0.6169(3) 0.4828(3)
O6C O 0.6924(4) 0.4175(3) 0.6201(4)
O9 O 0.3163(3) 0.4669(3) 0.1357(5)
H11 H 0.3821 0.4518 0.1469
H12 H 0.3056 0.4986 0.2107
loop_
_geom_bond_atom_site_label_1
_geom_bond_atom_site_label_2
_geom_bond_site_symmetry_1
_geom_bond_site_symmetry_2
Co1 O1 1_555 1_555
K1 O1 1_555 1_555
O1 C1 1_555 1_555
O2 C1 1_555 1_555
C1 C2 1_555 1_555
C2 H1 1_555 1_555
N1 Co1 1_555 1_555
H2 N1 1_555 1_555
H3 N1 1_555 1_555
C3 C2 1_555 1_555
H4 C3 1_555 1_555
H5 C3 1_555 1_555
C4 C3 1_555 1_555
O3 Co1 1_555 1_555
O4 C4 1_555 1_555
O5 Co1 1_555 1_555
O6 C5 1_555 1_555
C5 O5 1_555 1_555
C6 C5 1_555 1_555
H6 C6 1_555 1_555
N2 Co1 1_555 1_555
H7 N2 1_555 1_555
H8 N2 1_555 1_555
C7 C6 1_555 1_555
H9 C7 1_555 1_555
H10 C7 1_555 1_555
C8 C7 1_555 1_555
O7 Co1 1_555 1_555
O8 C8 1_555 1_555
O9 H11 1_555 1_555
H12 O9 1_555 1_555
O10 K1 1_555 1_555
H13 O10 1_555 1_555
H14 O10 1_555 1_555
O11 K1 1_555 1_555
H15 O11 1_555 1_555
H16 O11 1_555 1_555
K1B O2 1_555 1_555
K1C O6 1_555 1_555
O2B K1 1_555 1_555
O6C K1 1_555 1_555
K1 O3 1_555 1_555
K1 O7 1_555 1_555
C2 N1 1_555 1_555
C4 O3 1_555 1_555
C6 N2 1_555 1_555
C8 O7 1_555 1_555

#END
