
#######################################################################
#
#                 Cambridge Crystallographic Data Centre
#                                CCDC 
#
#######################################################################
#
# If this CIF has been generated from an entry in the Cambridge 
# Structural Database, then it will include bibliographic, chemical, 
# crystal, experimental, refinement or atomic coordinate data resulting 
# from the CCDC's data processing and validation procedures.
#
#######################################################################

data_XEBDAK01
_symmetry_cell_setting           monoclinic
_symmetry_space_group_name_H-M   'P 21/c'
_symmetry_Int_Tables_number      14
_space_group_name_Hall           '-P 2ybc'
loop_
_symmetry_equiv_pos_site_id
_symmetry_equiv_pos_as_xyz
1 x,y,z
2 -x,1/2+y,1/2-z
3 -x,-y,-z
4 x,1/2-y,1/2+z
_cell_length_a                   9.2800(19)
_cell_length_b                   25.558(5)
_cell_length_c                   7.7981(16)
_cell_angle_alpha                90
_cell_angle_beta                 97.30(3)
_cell_angle_gamma                90
_cell_volume                     1834.55
loop_
_atom_site_label
_atom_site_type_symbol
_atom_site_fract_x
_atom_site_fract_y
_atom_site_fract_z
H1 H 1.190(6) 0.724(2) -0.143(7)
H2 H 1.233(5) 0.7605(9) -0.037(6)
O11 O 1.2454(3) 0.72726(13) -0.0630(4)
H3 H 1.146(6) 0.686(2) 0.107(7)
H4 H 1.036(5) 0.564(2) 0.683(6)
H5 H 0.945(6) 0.604(2) 0.733(7)
H6 H 1.018(6) 0.539(2) 0.319(7)
Eu1 Eu 0.987235(15) 0.650436(5) 0.412712(18)
Cu1 Cu 0.5000 0.5000 -0.5000
O1 O 1.0086(2) 0.70634(9) 0.6665(3)
O2 O 0.9079(3) 0.76574(9) 0.8224(3)
O3 O 0.2367(3) 0.65651(10) 0.5065(3)
O4 O 1.1011(3) 0.66375(13) 0.1516(3)
H7 H 1.0491 0.6514 0.0684
O5 O 1.0631(3) 0.56515(10) 0.3266(4)
H8 H 1.1520 0.5634 0.3415
O6 O 0.7946(2) 0.62296(9) 0.1988(3)
O7 O 0.8845(3) 0.61707(12) -0.0507(3)
O8 O 0.3581(3) 0.58874(9) 0.4110(3)
O9 O 0.1587(3) 0.50837(9) -0.2481(3)
O10 O 0.3091(3) 0.48354(10) -0.4364(3)
O12 O 0.9782(3) 0.59115(10) 0.6499(3)
N1 N 0.7489(3) 0.66637(10) 0.5459(3)
N2 N 0.5294(3) 0.53343(11) -0.2706(3)
C1 C 0.7527(3) 0.70497(12) 0.6629(4)
C2 C 0.6297(4) 0.72233(15) 0.7297(5)
H9 H 0.6357 0.7491 0.8111
C3 C 0.4971(4) 0.69895(15) 0.6725(5)
H10 H 0.4128 0.7100 0.7144
C4 C 0.4922(4) 0.65906(13) 0.5525(4)
C5 C 0.6216(3) 0.64354(12) 0.4937(4)
H11 H 0.6190 0.6162 0.4148
C6 C 0.9020(3) 0.72784(12) 0.7211(4)
C7 C 0.7879(4) 0.61020(13) 0.0430(4)
C8 C 0.6488(4) 0.55685(13) -0.1922(4)
H12 H 0.7347 0.5544 -0.2414
C9 C 0.6485(4) 0.58471(13) -0.0399(4)
C10 C 0.5183(4) 0.58890(14) 0.0296(5)
H13 H 0.5140 0.6080 0.1303
C11 C 0.3946(4) 0.56441(15) -0.0519(5)
H14 H 0.3069 0.5667 -0.0064
C12 C 0.4041(4) 0.53677(12) -0.2004(4)
C13 C 0.2783(4) 0.50736(12) -0.3018(4)
C14 C 0.3532(3) 0.63193(13) 0.4836(4)
H3B H -0.146(6) 0.314(2) -1.107(7)
H4B H -0.036(5) 0.436(2) -1.683(6)
H5B H 0.055(6) 0.396(2) -1.733(7)
H6B H -0.018(6) 0.461(2) -1.319(7)
Eu1B Eu 0.012765(15) 0.349564(5) -1.412712(18)
Eu1C Eu 0.987235(15) 0.849564(5) 0.912712(18)
Eu1_2 Eu -0.012765(15) 0.650436(5) 0.412712(18)
Eu1C_2 Eu 0.987235(15) 0.849564(5) -0.087288(18)
Eu1C_3 Eu -0.012765(15) 0.849564(5) -0.087288(18)
O1C O 1.0086(2) 0.79366(9) 0.1665(3)
O1B O -0.0086(2) 0.29366(9) -1.6665(3)
O2C O 0.9079(3) 0.73426(9) 0.3224(3)
O2A O 0.0921(3) 0.26574(9) -1.3224(3)
O3C O 0.2367(3) 0.84349(10) 0.0065(3)
O3_2 O 1.2367(3) 0.65651(10) 0.5065(3)
O3B O -0.2367(3) 0.34349(10) -1.5065(3)
O4B O -0.1011(3) 0.33625(13) -1.1516(3)
H7B H -0.0491 0.3486 -1.0684
O5B O -0.0631(3) 0.43485(10) -1.3266(4)
H8B H -0.1520 0.4366 -1.3415
O6B O 0.2054(2) 0.37704(9) -1.1988(3)
O7B O 0.1155(3) 0.38293(12) -0.9493(3)
O8C O 0.3581(3) 0.91126(9) -0.0890(3)
O9B O 0.8413(3) 0.49163(9) -0.7519(3)
O10B O 0.6909(3) 0.51646(10) -0.5636(3)
O12B O 0.0218(3) 0.40885(10) -1.6499(3)
N1C N 0.7489(3) 0.83363(10) 0.0459(3)
N1B N 0.2511(3) 0.33363(10) -1.5459(3)
N2B N 0.4706(3) 0.46657(11) -0.7294(3)
C1C C 0.7527(3) 0.79503(12) 0.1629(4)
C2C C 0.6297(4) 0.77767(15) 0.2297(5)
H9C H 0.6357 0.7509 0.3111
C3C C 0.4971(4) 0.80105(15) 0.1725(5)
H10C H 0.4128 0.7900 0.2144
C4C C 0.4922(4) 0.84094(13) 0.0525(4)
C5C C 0.6216(3) 0.85646(12) -0.0063(4)
H11C H 0.6190 0.8838 -0.0852
C6C C 0.9020(3) 0.77216(12) 0.2211(4)
C7B C 0.2121(4) 0.38980(13) -1.0430(4)
C8B C 0.3512(4) 0.44315(13) -0.8078(4)
H12B H 0.2653 0.4456 -0.7586
C9B C 0.3515(4) 0.41529(13) -0.9601(4)
C10B C 0.4817(4) 0.41110(14) -1.0296(5)
H13B H 0.4860 0.3920 -1.1303
C11B C 0.6054(4) 0.43559(15) -0.9481(5)
H14B H 0.6931 0.4333 -0.9936
C12B C 0.5959(4) 0.46323(12) -0.7996(4)
C13B C 0.7217(4) 0.49264(12) -0.6982(4)
C14C C 0.3532(3) 0.86807(13) -0.0164(4)
loop_
_geom_bond_atom_site_label_1
_geom_bond_atom_site_label_2
_geom_bond_site_symmetry_1
_geom_bond_site_symmetry_2
H1 O11 1_555 1_555
H2 O11 1_555 1_555
H3 O4 1_555 1_555
H4 O12 1_555 1_555
H5 O12 1_555 1_555
H6 O5 1_555 1_555
Eu1 O1 1_555 1_555
Cu1 O10 1_555 1_555
O1 C6 1_555 1_555
O2 C6 1_555 1_555
O3 C14 1_555 1_555
O4 Eu1 1_555 1_555
H7 O4 1_555 1_555
O5 Eu1 1_555 1_555
H8 O5 1_555 1_555
O6 Eu1 1_555 1_555
O7 C7 1_555 1_555
O8 C14 1_555 1_555
O9 C13 1_555 1_555
O10 C13 1_555 1_555
O12 Eu1 1_555 1_555
N1 Eu1 1_555 1_555
N2 Cu1 1_555 1_555
C1 N1 1_555 1_555
C2 C1 1_555 1_555
H9 C2 1_555 1_555
C3 C2 1_555 1_555
H10 C3 1_555 1_555
C4 C3 1_555 1_555
C5 N1 1_555 1_555
H11 C5 1_555 1_555
C6 C1 1_555 1_555
C7 O6 1_555 1_555
C8 N2 1_555 1_555
H12 C8 1_555 1_555
C9 C7 1_555 1_555
C10 C9 1_555 1_555
H13 C10 1_555 1_555
C11 C10 1_555 1_555
H14 C11 1_555 1_555
C12 N2 1_555 1_555
C13 C12 1_555 1_555
C14 C4 1_555 1_555
H3B O4B 1_555 1_555
H4B O12B 1_555 1_555
H5B O12B 1_555 1_555
H6B O5B 1_555 1_555
Eu1B O1B 1_555 1_555
Eu1C O2 1_555 1_555
Eu1_2 O3 1_555 1_555
Eu1C_2 O1C 1_555 1_555
Eu1C_3 O3C 1_555 1_555
O1C C6C 1_555 1_555
O2C Eu1 1_555 1_555
O2A Eu1B 1_555 1_555
O3C C14C 1_555 1_555
O3_2 Eu1 1_555 1_555
O3B Eu1B 1_555 1_555
O4B Eu1B 1_555 1_555
H7B O4B 1_555 1_555
O5B Eu1B 1_555 1_555
H8B O5B 1_555 1_555
O6B Eu1B 1_555 1_555
O7B C7B 1_555 1_555
O8C C14C 1_555 1_555
O9B C13B 1_555 1_555
O10B Cu1 1_555 1_555
O12B Eu1B 1_555 1_555
N1C Eu1C_2 1_555 1_555
N1B Eu1B 1_555 1_555
N2B Cu1 1_555 1_555
C1C N1C 1_555 1_555
C2C C1C 1_555 1_555
H9C C2C 1_555 1_555
C3C C2C 1_555 1_555
H10C C3C 1_555 1_555
C4C C3C 1_555 1_555
C5C N1C 1_555 1_555
H11C C5C 1_555 1_555
C6C O2C 1_555 1_555
C7B O6B 1_555 1_555
C8B N2B 1_555 1_555
H12B C8B 1_555 1_555
C9B C7B 1_555 1_555
C10B C9B 1_555 1_555
H13B C10B 1_555 1_555
C11B C10B 1_555 1_555
H14B C11B 1_555 1_555
C12B N2B 1_555 1_555
C13B O10B 1_555 1_555
C14C C4C 1_555 1_555
C4 C5 1_555 1_555
C8 C9 1_555 1_555
C11 C12 1_555 1_555
C1C C6C 1_555 1_555
C4C C5C 1_555 1_555
C8B C9B 1_555 1_555
C11B C12B 1_555 1_555
C12B C13B 1_555 1_555

#END
