
#######################################################################
#
#                 Cambridge Crystallographic Data Centre
#                                CCDC 
#
#######################################################################
#
# If this CIF has been generated from an entry in the Cambridge 
# Structural Database, then it will include bibliographic, chemical, 
# crystal, experimental, refinement or atomic coordinate data resulting 
# from the CCDC's data processing and validation procedures.
#
#######################################################################

data_XEBDAK
_symmetry_cell_setting           monoclinic
_symmetry_space_group_name_H-M   'P 21/c'
_symmetry_Int_Tables_number      14
_space_group_name_Hall           '-P 2ybc'
loop_
_symmetry_equiv_pos_site_id
_symmetry_equiv_pos_as_xyz
1 x,y,z
2 -x,1/2+y,1/2-z
3 -x,-y,-z
4 x,1/2-y,1/2+z
_cell_length_a                   9.271(3)
_cell_length_b                   25.548(8)
_cell_length_c                   7.793(2)
_cell_angle_alpha                90
_cell_angle_beta                 97.273(5)
_cell_angle_gamma                90
_cell_volume                     1830.96
loop_
_atom_site_label
_atom_site_type_symbol
_atom_site_fract_x
_atom_site_fract_y
_atom_site_fract_z
Eu1 Eu 0.513019(19) 0.849510(7) 0.58684(2)
Cu1 Cu 1.0000 1.0000 1.5000
O1 O 0.2635(3) 0.84351(12) 0.4930(4)
O2 O 0.1421(3) 0.91149(11) 0.5888(4)
O3 O -0.5086(3) 0.79367(11) 0.3328(3)
O4 O -0.4076(3) 0.73446(11) 0.1771(4)
O5 O 0.4372(3) 0.93468(11) 0.6735(4)
H1 H 0.3454 0.9384 0.6584
H2 H 0.4877 0.9625 0.6867
O6 O 0.5221(3) 0.90886(11) 0.3501(4)
H3 H 0.4619 0.9338 0.3232
H4 H 0.5393 0.8979 0.2528
O7 O 0.3996(3) 0.83595(13) 0.8486(4)
H5 H 0.4601 0.8515 0.9226
H6 H 0.3418 0.8145 0.8878
O8 O 0.7058(3) 0.87702(12) 0.8011(3)
O9 O 0.6148(3) 0.88309(15) 1.0504(4)
O10 O 1.3410(3) 0.99174(11) 1.2484(4)
O11 O 1.1908(3) 1.01655(12) 1.4354(4)
N1 N -0.2487(3) 0.83354(12) 0.4537(4)
N2 N 0.9699(4) 0.96668(13) 1.2707(4)
C1 C 0.1471(4) 0.86816(17) 0.5164(5)
C2 C 0.0086(4) 0.84122(15) 0.4470(5)
C3 C 0.0032(4) 0.80114(18) 0.3269(6)
H7 H 0.0876 0.7898 0.2854
C4 C -0.1291(4) 0.77804(18) 0.2692(6)
H8 H -0.1350 0.7515 0.1870
C5 C -0.2528(4) 0.79511(15) 0.3359(5)
C6 C -0.1215(4) 0.85646(15) 0.5056(5)
H9 H -0.1192 0.8839 0.5845
C7 C -0.4007(4) 0.77225(15) 0.2787(5)
C8 C 0.7124(4) 0.88962(16) 0.9573(5)
C9 C 0.8516(4) 0.91537(16) 1.0398(5)
C10 C 0.9817(5) 0.91160(18) 0.9701(6)
H10 H 0.9858 0.8928 0.8687
C11 C 1.1052(5) 0.93576(17) 1.0510(5)
H11 H 1.1929 0.9333 1.0054
C12 C 1.0959(4) 0.96352(15) 1.2001(5)
C13 C 0.8513(4) 0.94331(16) 1.1920(5)
H12 H 0.7652 0.9458 1.2410
C14 C 1.2213(4) 0.99255(15) 1.3018(5)
Eu1B Eu 1.486981(19) 1.150490(7) 2.41316(2)
Eu1_2 Eu -0.486981(19) 0.849510(7) 0.58684(2)
Eu1C Eu -0.486981(19) 0.650490(7) 0.08684(2)
Eu1_3 Eu 1.513019(19) 0.849510(7) 0.58684(2)
Eu1C_2 Eu 0.513019(19) 0.650490(7) 0.08684(2)
O1_2 O 1.2635(3) 0.84351(12) 0.4930(4)
O1B O 1.7365(3) 1.15649(12) 2.5070(4)
O2_2 O 1.1421(3) 0.91149(11) 0.5888(4)
O3_2 O 0.4914(3) 0.79367(11) 0.3328(3)
O3B O 1.5086(3) 1.20633(11) 2.6672(3)
O4_2 O 0.5924(3) 0.73446(11) 0.1771(4)
O4C O 0.5924(3) 0.76554(11) 0.6771(4)
O4A O 1.4076(3) 1.23446(11) 2.3229(4)
O5B O 1.5628(3) 1.06532(11) 2.3265(4)
H1B H 1.6546 1.0616 2.3416
H2B H 1.5123 1.0375 2.3133
O6B O 1.4779(3) 1.09114(11) 2.6499(4)
H3B H 1.5381 1.0662 2.6768
H4B H 1.4607 1.1021 2.7472
O7B O 1.6004(3) 1.16405(13) 2.1514(4)
H5B H 1.5399 1.1485 2.0774
H6B H 1.6582 1.1855 2.1122
O8B O 1.2942(3) 1.12298(12) 2.1989(3)
O9B O 1.3852(3) 1.11691(15) 1.9496(4)
O10B O 0.6590(3) 1.00826(11) 1.7516(4)
O11B O 0.8092(3) 0.98345(12) 1.5646(4)
N1_2 N 0.7513(3) 0.83354(12) 0.4537(4)
N1B N 1.2487(3) 1.16646(12) 2.5463(4)
N2B N 1.0301(4) 1.03332(13) 1.7293(4)
C1_2 C 1.1471(4) 0.86816(17) 0.5164(5)
C2_2 C 1.0086(4) 0.84122(15) 0.4470(5)
C3_2 C 1.0032(4) 0.80114(18) 0.3269(6)
H7_2 H 1.0876 0.7898 0.2854
C4_2 C 0.8709(4) 0.77804(18) 0.2692(6)
H8_2 H 0.8650 0.7515 0.1870
C5_2 C 0.7472(4) 0.79511(15) 0.3359(5)
C6_2 C 0.8785(4) 0.85646(15) 0.5056(5)
H9_2 H 0.8808 0.8839 0.5845
C7_2 C 0.5993(4) 0.77225(15) 0.2787(5)
C8B C 1.2876(4) 1.11038(16) 2.0427(5)
C9B C 1.1484(4) 1.08463(16) 1.9602(5)
C10B C 1.0183(5) 1.08840(18) 2.0299(6)
H10B H 1.0142 1.1072 2.1313
C11B C 0.8948(5) 1.06424(17) 1.9490(5)
H11B H 0.8071 1.0667 1.9946
C12B C 0.9041(4) 1.03648(15) 1.7999(5)
C13B C 1.1487(4) 1.05669(16) 1.8080(5)
H12B H 1.2348 1.0542 1.7590
C14B C 0.7787(4) 1.00745(15) 1.6982(5)
O12 O 0.2550(3) 0.77259(14) 0.0633(4)
H13 H 0.2501 0.7399 0.0423
H14 H 0.3119 0.7820 0.1525
loop_
_geom_bond_atom_site_label_1
_geom_bond_atom_site_label_2
_geom_bond_site_symmetry_1
_geom_bond_site_symmetry_2
Eu1 O1 1_555 1_555
Cu1 O11 1_555 1_555
O1 C1 1_555 1_555
O2 C1 1_555 1_555
O3 C7 1_555 1_555
O4 C7 1_555 1_555
O5 Eu1 1_555 1_555
H1 O5 1_555 1_555
H2 O5 1_555 1_555
O6 Eu1 1_555 1_555
H3 O6 1_555 1_555
H4 O6 1_555 1_555
O7 Eu1 1_555 1_555
H5 O7 1_555 1_555
H6 O7 1_555 1_555
O8 Eu1 1_555 1_555
O9 C8 1_555 1_555
O10 C14 1_555 1_555
O11 C14 1_555 1_555
N1 C5 1_555 1_555
N2 Cu1 1_555 1_555
C1 C2 1_555 1_555
C2 C3 1_555 1_555
C3 H7 1_555 1_555
C4 C3 1_555 1_555
H8 C4 1_555 1_555
C5 C4 1_555 1_555
C6 N1 1_555 1_555
H9 C6 1_555 1_555
C7 C5 1_555 1_555
C8 O8 1_555 1_555
C9 C8 1_555 1_555
C10 C9 1_555 1_555
H10 C10 1_555 1_555
C11 C10 1_555 1_555
H11 C11 1_555 1_555
C12 N2 1_555 1_555
C13 N2 1_555 1_555
H12 C13 1_555 1_555
C14 C12 1_555 1_555
O12 H13 1_555 1_555
H14 O12 1_555 1_555
Eu1B O1B 1_555 1_555
Eu1_2 O3 1_555 1_555
Eu1C O4 1_555 1_555
Eu1_3 O1_2 1_555 1_555
Eu1C_2 O4_2 1_555 1_555
O1_2 C1_2 1_555 1_555
O2_2 C1_2 1_555 1_555
O3_2 Eu1 1_555 1_555
O3B Eu1B 1_555 1_555
O4_2 C7_2 1_555 1_555
O4C Eu1 1_555 1_555
O4A Eu1B 1_555 1_555
O5B Eu1B 1_555 1_555
H1B O5B 1_555 1_555
H2B O5B 1_555 1_555
O6B Eu1B 1_555 1_555
H3B O6B 1_555 1_555
H4B O6B 1_555 1_555
O7B Eu1B 1_555 1_555
H5B O7B 1_555 1_555
H6B O7B 1_555 1_555
O8B Eu1B 1_555 1_555
O9B C8B 1_555 1_555
O10B C14B 1_555 1_555
O11B Cu1 1_555 1_555
N1_2 Eu1 1_555 1_555
N1B Eu1B 1_555 1_555
N2B Cu1 1_555 1_555
C1_2 C2_2 1_555 1_555
C2_2 C3_2 1_555 1_555
C3_2 H7_2 1_555 1_555
C4_2 C3_2 1_555 1_555
H8_2 C4_2 1_555 1_555
C5_2 N1_2 1_555 1_555
C6_2 N1_2 1_555 1_555
H9_2 C6_2 1_555 1_555
C7_2 O3_2 1_555 1_555
C8B O8B 1_555 1_555
C9B C8B 1_555 1_555
C10B C9B 1_555 1_555
H10B C10B 1_555 1_555
C11B C10B 1_555 1_555
H11B C11B 1_555 1_555
C12B N2B 1_555 1_555
C13B N2B 1_555 1_555
H12B C13B 1_555 1_555
C14B O11B 1_555 1_555
N1 Eu1_2 1_555 1_555
C2 C6 1_555 1_555
C9 C13 1_555 1_555
C11 C12 1_555 1_555
C2_2 C6_2 1_555 1_555
C4_2 C5_2 1_555 1_555
C5_2 C7_2 1_555 1_555
C9B C13B 1_555 1_555
C11B C12B 1_555 1_555
C12B C14B 1_555 1_555

#END
