
#######################################################################
#
#                 Cambridge Crystallographic Data Centre
#                                CCDC 
#
#######################################################################
#
# If this CIF has been generated from an entry in the Cambridge 
# Structural Database, then it will include bibliographic, chemical, 
# crystal, experimental, refinement or atomic coordinate data resulting 
# from the CCDC's data processing and validation procedures.
#
#######################################################################

data_XEBGIU
_symmetry_cell_setting           triclinic
_symmetry_space_group_name_H-M   'P -1'
_symmetry_Int_Tables_number      2
_space_group_name_Hall           '-P 1'
loop_
_symmetry_equiv_pos_site_id
_symmetry_equiv_pos_as_xyz
1 x,y,z
2 -x,-y,-z
_cell_length_a                   7.273(2)
_cell_length_b                   10.506(3)
_cell_length_c                   10.642(3)
_cell_angle_alpha                96.33(4)
_cell_angle_beta                 103.29(3)
_cell_angle_gamma                98.16(3)
_cell_volume                     774.703
loop_
_atom_site_label
_atom_site_type_symbol
_atom_site_fract_x
_atom_site_fract_y
_atom_site_fract_z
Ag1 Ag -1.03574(10) -0.08993(8) -0.27541(6)
N1 N -0.8327(9) -0.0948(7) -0.0919(6)
N3 N -0.2405(9) -0.0956(7) 0.5385(6)
C1 C -0.5984(10) -0.0973(7) 0.1567(7)
C3 C -0.6544(11) 0.0173(8) 0.1193(7)
H1 H -0.6148 0.0956 0.1777
C5 C -0.7684(11) 0.0145(8) -0.0038(7)
H5 H -0.8035 0.0928 -0.0280
C6 C -0.7751(12) -0.2034(8) -0.0561(8)
H6 H -0.8153 -0.2802 -0.1168
C7 C -0.6596(12) -0.2095(8) 0.0651(8)
H7 H -0.6229 -0.2885 0.0855
C8 C -0.4763(11) -0.0953(8) 0.2895(7)
C9 C -0.3600(11) 0.0168(8) 0.3623(7)
H8 H -0.3590 0.0960 0.3289
C10 C -0.2460(11) 0.0121(8) 0.4835(7)
H9 H -0.1674 0.0894 0.5304
C11 C -0.3537(12) -0.2064(8) 0.4701(8)
H10 H -0.3531 -0.2836 0.5071
C12 C -0.4700(12) -0.2089(8) 0.3476(7)
H11 H -0.5462 -0.2877 0.3021
N3_2 N -1.2405(9) -0.0956(7) -0.4615(6)
Ag1_2 Ag -0.03574(10) -0.08993(8) 0.72459(6)
N2 N -0.0321(12) -0.1786(9) 0.2407(8)
C2 C -0.0727(14) -0.2848(10) 0.2047(9)
C4 C -0.127(2) -0.4240(12) 0.1563(13)
H2 H -0.0128 -0.4641 0.1709
H3 H -0.1876 -0.4369 0.0636
H4 H -0.2153 -0.4634 0.2023
O1 O -0.9389(15) -0.3704(13) -0.4549(10)
H12 H -0.895(7) -0.311(4) -0.383(4)
H13 H -0.853(9) -0.424(7) -0.456(7)
B1 B -0.6385(17) 0.3950(10) 0.2140(11)
F1 F -0.4972(18) 0.3290(13) 0.2646(13)
F3 F -0.565(3) 0.4940(15) 0.1578(16)
F5 F -0.774(2) 0.3046(15) 0.1255(15)
F7 F -0.665(5) 0.460(3) 0.325(2)
F2? F -0.522(5) 0.459(3) 0.330(2)
F4? F -0.685(3) 0.5086(13) 0.1763(18)
F6? F -0.594(6) 0.344(4) 0.103(2)
F8? F -0.795(3) 0.343(2) 0.253(2)
loop_
_geom_bond_atom_site_label_1
_geom_bond_atom_site_label_2
_geom_bond_site_symmetry_1
_geom_bond_site_symmetry_2
Ag1 N1 1_555 1_555
N1 C5 1_555 1_555
N2 C2 1_555 1_555
N3 C10 1_555 1_555
C1 C3 1_555 1_555
C2 C4 1_555 1_555
C3 H1 1_555 1_555
C4 H2 1_555 1_555
H3 C4 1_555 1_555
H4 C4 1_555 1_555
C5 C3 1_555 1_555
H5 C5 1_555 1_555
C6 N1 1_555 1_555
H6 C6 1_555 1_555
C7 C1 1_555 1_555
H7 C7 1_555 1_555
C8 C1 1_555 1_555
C9 C8 1_555 1_555
H8 C9 1_555 1_555
C10 C9 1_555 1_555
H9 C10 1_555 1_555
C11 N3 1_555 1_555
H10 C11 1_555 1_555
C12 C8 1_555 1_555
H11 C12 1_555 1_555
O1 H12 1_555 1_555
H13 O1 1_555 1_555
B1 F1 1_555 1_555
F3 B1 1_555 1_555
F5 B1 1_555 1_555
F7 B1 1_555 1_555
N3_2 Ag1 1_555 1_555
Ag1_2 N3 1_555 1_555
C6 C7 1_555 1_555
C11 C12 1_555 1_555

#END
