
#######################################################################
#
#                 Cambridge Crystallographic Data Centre
#                                CCDC 
#
#######################################################################
#
# If this CIF has been generated from an entry in the Cambridge 
# Structural Database, then it will include bibliographic, chemical, 
# crystal, experimental, refinement or atomic coordinate data resulting 
# from the CCDC's data processing and validation procedures.
#
#######################################################################

data_XEBGUG
_symmetry_cell_setting           triclinic
_symmetry_space_group_name_H-M   'P -1'
_symmetry_Int_Tables_number      2
_space_group_name_Hall           '-P 1'
loop_
_symmetry_equiv_pos_site_id
_symmetry_equiv_pos_as_xyz
1 x,y,z
2 -x,-y,-z
_cell_length_a                   7.4930(15)
_cell_length_b                   8.2850(17)
_cell_length_c                   14.723(3)
_cell_angle_alpha                101.91(3)
_cell_angle_beta                 90.11(3)
_cell_angle_gamma                107.69(3)
_cell_volume                     849.982
loop_
_atom_site_label
_atom_site_type_symbol
_atom_site_fract_x
_atom_site_fract_y
_atom_site_fract_z
Ag1 Ag -0.65267(4) -0.43929(4) 0.452260(17)
N1 N -0.5335(4) -0.4417(4) 0.31681(18)
C1 C -0.4746(5) -0.2951(5) 0.2853(2)
H1 H -0.4890 -0.1942 0.3214
C2 C -0.3936(5) -0.2874(5) 0.2018(2)
H2 H -0.3540 -0.1831 0.1822
C3 C -0.3718(5) -0.4381(5) 0.1471(2)
C4 C -0.4338(5) -0.5912(5) 0.1792(2)
H3 H -0.4215 -0.6940 0.1444
C5 C -0.5141(5) -0.5875(5) 0.2637(2)
H4 H -0.5565 -0.6901 0.2847
N2 N 0.1862(4) -0.4297(4) -0.42424(18)
C6 C 0.1783(5) -0.2803(5) -0.3713(2)
H5 H 0.2329 -0.1782 -0.3914
C7 C 0.0927(5) -0.2703(5) -0.2880(2)
H6 H 0.0901 -0.1640 -0.2530
C8 C 0.0103(5) -0.4237(5) -0.2577(2)
C9 C 0.0144(5) -0.5795(5) -0.3142(2)
H7 H -0.0424 -0.6840 -0.2968
C10 C 0.1034(5) -0.5773(5) -0.3960(2)
H8 H 0.1061 -0.6820 -0.4330
C11 C -0.2874(5) -0.4343(5) 0.0598(2)
C12 C -0.2177(5) -0.4306(5) -0.0131(2)
C13 C -0.1397(5) -0.4253(5) -0.0969(2)
C14 C -0.0723(5) -0.4220(5) -0.1706(2)
N2_2 N -0.8138(4) -0.4297(4) 0.57576(18)
Ag1_2 Ag 0.34733(4) -0.43929(4) -0.547740(17)
P1 P -0.73573(13) -0.93762(12) 0.40473(6)
F1 F -0.7105(4) -1.0632(3) 0.46447(17)
F2 F -0.9525(4) -0.9944(3) 0.3982(2)
O1 O -0.6668(4) -0.7588(3) 0.45816(19)
O2 O -0.6750(5) -0.9904(4) 0.31228(19)
N3 N -0.2744(8) 0.0212(6) 0.0661(3)
C15 C -0.2469(7) 0.0448(6) -0.0049(3)
C16 C -0.2107(9) 0.0785(8) -0.0976(4)
H9 H -0.3240 0.0264 -0.1373
H10 H -0.1156 0.0297 -0.1226
H11 H -0.1686 0.2014 -0.0937
loop_
_geom_bond_atom_site_label_1
_geom_bond_atom_site_label_2
_geom_bond_site_symmetry_1
_geom_bond_site_symmetry_2
Ag1 N1 1_555 1_555
N1 C1 1_555 1_555
C1 H1 1_555 1_555
C2 C1 1_555 1_555
H2 C2 1_555 1_555
C3 C2 1_555 1_555
C4 C3 1_555 1_555
H3 C4 1_555 1_555
C5 N1 1_555 1_555
H4 C5 1_555 1_555
N2 C6 1_555 1_555
C6 H5 1_555 1_555
C7 C6 1_555 1_555
H6 C7 1_555 1_555
C8 C7 1_555 1_555
C9 C8 1_555 1_555
H7 C9 1_555 1_555
C10 N2 1_555 1_555
H8 C10 1_555 1_555
C11 C3 1_555 1_555
C12 C11 1_555 1_555
C13 C12 1_555 1_555
C14 C8 1_555 1_555
P1 F1 1_555 1_555
F2 P1 1_555 1_555
O1 P1 1_555 1_555
O2 P1 1_555 1_555
N3 C15 1_555 1_555
C15 C16 1_555 1_555
C16 H9 1_555 1_555
H10 C16 1_555 1_555
H11 C16 1_555 1_555
N2_2 Ag1 1_555 1_555
Ag1_2 N2 1_555 1_555
C4 C5 1_555 1_555
C9 C10 1_555 1_555
C13 C14 1_555 1_555

#END
