
#######################################################################
#
#                 Cambridge Crystallographic Data Centre
#                                CCDC 
#
#######################################################################
#
# If this CIF has been generated from an entry in the Cambridge 
# Structural Database, then it will include bibliographic, chemical, 
# crystal, experimental, refinement or atomic coordinate data resulting 
# from the CCDC's data processing and validation procedures.
#
#######################################################################

data_XEBGEQ
_symmetry_cell_setting           monoclinic
_symmetry_space_group_name_H-M   'P 2/c'
_symmetry_Int_Tables_number      13
_space_group_name_Hall           '-P 2yc'
loop_
_symmetry_equiv_pos_site_id
_symmetry_equiv_pos_as_xyz
1 x,y,z
2 x,-y,1/2+z
3 -x,-y,-z
4 -x,y,1/2-z
_cell_length_a                   8.175(3)
_cell_length_b                   7.147(2)
_cell_length_c                   14.917(4)
_cell_angle_alpha                90
_cell_angle_beta                 91.28(3)
_cell_angle_gamma                90
_cell_volume                     871.334
loop_
_atom_site_label
_atom_site_type_symbol
_atom_site_fract_x
_atom_site_fract_y
_atom_site_fract_z
Ag1 Ag 0.0000 0.5000 0.5000
N1 N 0.1337(5) 0.2414(5) 0.4995(3)
C1 C 0.2689(8) 0.0011(6) 0.4209(4)
H1 H 0.3047 -0.0452 0.3665
C2 C 0.4568(7) -0.4188(7) 0.5001(4)
C3 C 0.3821(6) -0.2733(7) 0.4993(4)
C4 C 0.2970(6) -0.0987(6) 0.4988(4)
C5 C 0.1601(7) 0.1455(8) 0.5734(4)
H2 H 0.1218 0.1947 0.6267
C6 C 0.2404(8) -0.0222(7) 0.5770(4)
H3 H 0.2565 -0.0837 0.6314
C7 C 0.1884(7) 0.1681(8) 0.4241(4)
H4 H 0.1709 0.2337 0.3709
C2B C 0.5432(7) -0.5812(7) 0.4999(4)
C3B C 0.6179(6) -0.7267(7) 0.5007(4)
C4B C 0.7030(6) -0.9013(6) 0.5012(4)
C1B C 0.7311(8) -1.0011(6) 0.5791(4)
H1B H 0.6953 -0.9548 0.6335
C7B C 0.8116(7) -1.1681(8) 0.5759(4)
N1B N 0.8663(5) -1.2414(5) 0.5005(3)
Ag1B Ag 1.0000 -1.5000 0.5000
C5B C 0.8399(7) -1.1455(8) 0.4266(4)
H2B H 0.8782 -1.1947 0.3733
C6B C 0.7596(8) -0.9778(7) 0.4230(4)
H3B H 0.7435 -0.9163 0.3686
H4B H 0.8291 -1.2337 0.6291
N1B_2 N -0.1337(5) 0.7586(5) 0.5005(3)
B1 B 0.0000 0.4909(12) 0.7500
F1 F 0.0962(6) 0.5937(8) 0.6966(3)
F2 F -0.0928(11) 0.3525(13) 0.7129(6)
F1C F -0.0962(6) 0.5937(8) 0.8034(3)
F2C F 0.0928(11) 0.3525(13) 0.7871(6)
N2 N -0.5000 0.414(4) 0.7500
C8 C -0.5000 0.578(4) 0.7500
C9 C -0.5000 0.778(4) 0.7500
F3? F -0.1063(9) 0.4122(12) 0.6828(5)
N3? N -0.5000 0.836(3) 0.7500
C10? C -0.5000 0.673(3) 0.7500
C11? C -0.5000 0.463(3) 0.7500
loop_
_geom_bond_atom_site_label_1
_geom_bond_atom_site_label_2
_geom_bond_site_symmetry_1
_geom_bond_site_symmetry_2
Ag1 N1 1_555 1_555
N1 C5 1_555 1_555
C1 H1 1_555 1_555
C2 C3 1_555 1_555
C3 C4 1_555 1_555
C4 C1 1_555 1_555
C5 H2 1_555 1_555
C6 C4 1_555 1_555
H3 C6 1_555 1_555
C7 N1 1_555 1_555
H4 C7 1_555 1_555
B1 F1 1_555 1_555
F2 B1 1_555 1_555
N2 C8 1_555 1_555
C8 C9 1_555 1_555
C2B C2 1_555 1_555
C3B C2B 1_555 1_555
C4B C3B 1_555 1_555
C1B C4B 1_555 1_555
H1B C1B 1_555 1_555
C7B C1B 1_555 1_555
N1B C7B 1_555 1_555
Ag1B N1B 1_555 1_555
C5B N1B 1_555 1_555
H2B C5B 1_555 1_555
C6B C4B 1_555 1_555
H3B C6B 1_555 1_555
H4B C7B 1_555 1_555
N1B_2 Ag1 1_555 1_555
F1C B1 1_555 1_555
F2C B1 1_555 1_555
C1 C7 1_555 1_555
C5 C6 1_555 1_555
C5B C6B 1_555 1_555

#END
