
#######################################################################
#
#                 Cambridge Crystallographic Data Centre
#                                CCDC 
#
#######################################################################
#
# If this CIF has been generated from an entry in the Cambridge 
# Structural Database, then it will include bibliographic, chemical, 
# crystal, experimental, refinement or atomic coordinate data resulting 
# from the CCDC's data processing and validation procedures.
#
#######################################################################

data_XEBGAM
_symmetry_cell_setting           orthorhombic
_symmetry_space_group_name_H-M   'P c c n'
_symmetry_Int_Tables_number      56
_space_group_name_Hall           '-P 2ab 2ac'
loop_
_symmetry_equiv_pos_site_id
_symmetry_equiv_pos_as_xyz
1 x,y,z
2 1/2+x,1/2+y,-z
3 x,1/2-y,1/2+z
4 1/2-x,y,1/2+z
5 -x,-y,-z
6 1/2-x,1/2-y,z
7 -x,1/2+y,1/2-z
8 1/2+x,-y,1/2-z
_cell_length_a                   18.4700(10)
_cell_length_b                   3.748(12)
_cell_length_c                   16.667(5)
_cell_angle_alpha                90
_cell_angle_beta                 90
_cell_angle_gamma                90
_cell_volume                     1153.78
loop_
_atom_site_label
_atom_site_type_symbol
_atom_site_fract_x
_atom_site_fract_y
_atom_site_fract_z
Ag1 Ag 0.7500 0.2500 0.39235(3)
N1 N 0.65689(19) 0.5751(10) 0.4332(2)
C1 C 0.6034(3) 0.6623(11) 0.3813(3)
H1 H 0.6095 0.6042 0.3262
C2 C 0.5403(2) 0.8310(11) 0.4042(3)
C3 C 0.5322(2) 0.9152(12) 0.4862(3)
C4 C 0.4827(2) 0.9217(13) 0.3496(3)
H2 H 0.4878 0.8665 0.2943
C5 C 0.4214(3) 1.0838(13) 0.3755(3)
H3 H 0.3840 1.1388 0.3384
C6 C 0.5871(2) 0.8274(11) 0.5415(3)
C7 C 0.6487(3) 0.6572(12) 0.5112(3)
H4 H 0.6865 0.5967 0.5475
N2 N 0.7500 0.2500 0.2164(3)
O1 O 0.69618(19) 0.1334(9) 0.2541(2)
O2 O 0.7500 0.2500 0.1414(3)
C3D C 0.4678(2) 1.0848(12) 0.5138(3)
C2D C 0.4597(2) 1.1690(11) 0.5958(3)
C1D C 0.3966(3) 1.3377(11) 0.6187(3)
N1D N 0.34311(19) 1.4249(10) 0.5668(2)
Ag1D Ag 0.2500 1.7500 0.60765(3)
C7D C 0.3513(3) 1.3428(12) 0.4888(3)
C6D C 0.4129(2) 1.1726(11) 0.4585(3)
H4D H 0.3135 1.4033 0.4525
H1D H 0.3905 1.3958 0.6738
C4D C 0.5173(2) 1.0783(13) 0.6504(3)
H2D H 0.5122 1.1335 0.7057
C5D C 0.5786(3) 0.9162(13) 0.6245(3)
H3D H 0.6160 0.8612 0.6616
N1E N 0.84311(19) -0.0751(10) 0.4332(2)
O1E O 0.80382(19) 0.3666(9) 0.2541(2)
loop_
_geom_bond_atom_site_label_1
_geom_bond_atom_site_label_2
_geom_bond_site_symmetry_1
_geom_bond_site_symmetry_2
Ag1 N1 1_555 1_555
N1 C1 1_555 1_555
C1 H1 1_555 1_555
C2 C1 1_555 1_555
C3 C2 1_555 1_555
C4 C2 1_555 1_555
H2 C4 1_555 1_555
C5 C4 1_555 1_555
H3 C5 1_555 1_555
C6 C3 1_555 1_555
C7 N1 1_555 1_555
H4 C7 1_555 1_555
N2 O1 1_555 1_555
O1 Ag1 1_555 1_555
O2 N2 1_555 1_555
C3D C3 1_555 1_555
C2D C3D 1_555 1_555
C1D C2D 1_555 1_555
N1D C1D 1_555 1_555
Ag1D N1D 1_555 1_555
C7D N1D 1_555 1_555
C6D C5 1_555 1_555
H4D C7D 1_555 1_555
H1D C1D 1_555 1_555
C4D C2D 1_555 1_555
H2D C4D 1_555 1_555
C5D C6 1_555 1_555
H3D C5D 1_555 1_555
N1E Ag1 1_555 1_555
O1E Ag1 1_555 1_555
C6 C7 1_555 1_555
N2 O1E 1_555 1_555
C3D C6D 1_555 1_555
C7D C6D 1_555 1_555
C4D C5D 1_555 1_555

#END
