
#######################################################################
#
#                 Cambridge Crystallographic Data Centre
#                                CCDC 
#
#######################################################################
#
# If this CIF has been generated from an entry in the Cambridge 
# Structural Database, then it will include bibliographic, chemical, 
# crystal, experimental, refinement or atomic coordinate data resulting 
# from the CCDC's data processing and validation procedures.
#
#######################################################################

data_XEBHAN
_symmetry_cell_setting           triclinic
_symmetry_space_group_name_H-M   'P -1'
_symmetry_Int_Tables_number      2
_space_group_name_Hall           '-P 1'
loop_
_symmetry_equiv_pos_site_id
_symmetry_equiv_pos_as_xyz
1 x,y,z
2 -x,-y,-z
_cell_length_a                   13.8638(12)
_cell_length_b                   14.1102(12)
_cell_length_c                   15.8947(13)
_cell_angle_alpha                82.284(2)
_cell_angle_beta                 89.338(2)
_cell_angle_gamma                72.359(2)
_cell_volume                     2934.89
loop_
_atom_site_label
_atom_site_type_symbol
_atom_site_fract_x
_atom_site_fract_y
_atom_site_fract_z
Ag1 Ag -0.01383(2) 0.42039(2) -0.081590(19)
N1 N 0.1166(2) 0.2844(2) -0.0699(2)
N2 N 0.8521(2) -0.4522(2) -0.0652(2)
C7 C 0.4292(3) -0.0575(3) -0.0583(3)
C8 C 0.3602(3) 0.0187(3) -0.0594(3)
C9 C 0.2781(3) 0.1091(3) -0.0615(2)
C10 C 0.1973(3) 0.1144(3) -0.0078(3)
H10 H 0.1961 0.0585 0.0324
C11 C 0.1188(3) 0.2033(3) -0.0145(2)
H11 H 0.0635 0.2071 0.0221
C12 C 0.1957(3) 0.2791(3) -0.1198(2)
H12 H 0.1958 0.3368 -0.1582
C13 C 0.2771(3) 0.1937(3) -0.1182(3)
H13 H 0.3317 0.1926 -0.1552
C14 C 0.5104(3) -0.1416(3) -0.0578(3)
C15 C 0.5835(3) -0.2136(3) -0.0581(3)
C16 C 0.6738(3) -0.2949(3) -0.0603(3)
C17 C 0.7504(3) -0.2856(3) -0.1149(3)
H14 H 0.7425 -0.2248 -0.1520
C18 C 0.8378(3) -0.3648(3) -0.1153(3)
H15 H 0.8898 -0.3570 -0.1525
C19 C 0.7783(3) -0.4618(3) -0.0128(3)
H16 H 0.7880 -0.5236 0.0232
C20 C 0.6886(3) -0.3857(3) -0.0087(3)
H17 H 0.6377 -0.3955 0.0290
N2_2 N -0.1479(2) 0.5478(2) -0.0652(2)
Ag1_2 Ag 0.98617(2) -0.57961(2) -0.081590(19)
Ag2 Ag -0.04408(2) 0.30895(2) -0.23254(2)
N3 N 0.0860(2) 0.1799(2) -0.2546(2)
N4 N 0.8225(2) -0.5569(2) -0.2502(2)
C21 C 0.4196(3) -0.1372(3) -0.2720(3)
C22 C 0.3455(3) -0.0659(3) -0.2716(3)
C23 C 0.2565(3) 0.0173(3) -0.2686(2)
C24 C 0.1760(3) 0.0059(3) -0.2202(3)
H18 H 0.1778 -0.0582 -0.1915
C25 C 0.0929(3) 0.0888(3) -0.2142(3)
H19 H 0.0386 0.0805 -0.1800
C26 C 0.1623(3) 0.1896(3) -0.3034(3)
H20 H 0.1569 0.2538 -0.3336
C27 C 0.2484(3) 0.1119(3) -0.3123(3)
H21 H 0.3010 0.1225 -0.3476
C28 C 0.5017(3) -0.2207(3) -0.2710(3)
C29 C 0.5725(3) -0.2957(3) -0.2692(3)
C30 C 0.6562(3) -0.3850(3) -0.2648(2)
C31 C 0.7356(3) -0.3921(3) -0.3199(3)
H22 H 0.7341 -0.3384 -0.3634
C32 C 0.8172(3) -0.4789(3) -0.3103(2)
H23 H 0.8718 -0.4833 -0.3478
C33 C 0.7450(3) -0.5512(3) -0.1990(3)
H24 H 0.7478 -0.6068 -0.1571
C34 C 0.6603(3) -0.4671(3) -0.2043(3)
H25 H 0.6060 -0.4656 -0.1670
N4_2 N -0.1775(2) 0.4431(2) -0.2502(2)
Ag2_2 Ag 0.95592(2) -0.69105(2) -0.23254(2)
Ag3 Ag 0.07367(2) 0.01719(2) -0.43531(2)
N5 N 0.2041(2) -0.1199(3) -0.4239(2)
N6 N 0.9467(2) -0.8533(2) -0.4104(2)
C35 C 0.5261(3) -0.4556(4) -0.4058(3)
C36 C 0.4536(3) -0.3824(4) -0.4090(4)
C37 C 0.3686(3) -0.2933(3) -0.4138(3)
C38 C 0.2839(4) -0.2902(4) -0.3656(4)
H26 H 0.2807 -0.3477 -0.3283
C39 C 0.2046(3) -0.2025(3) -0.3728(4)
H27 H 0.1471 -0.2010 -0.3393
C40 C 0.2857(3) -0.1234(4) -0.4693(3)
H28 H 0.2868 -0.0649 -0.5062
C41 C 0.3687(4) -0.2073(4) -0.4657(3)
H29 H 0.4258 -0.2059 -0.4990
C42 C 0.6100(3) -0.5381(4) -0.4025(3)
C43 C 0.6856(3) -0.6079(3) -0.4006(3)
C44 C 0.7755(3) -0.6898(3) -0.4008(3)
C45 C 0.8581(4) -0.6787(3) -0.4474(3)
H30 H 0.8569 -0.6150 -0.4765
C46 C 0.9412(3) -0.7611(3) -0.4508(3)
H31 H 0.9972 -0.7530 -0.4828
C47 C 0.8705(3) -0.8615(3) -0.3636(3)
H32 H 0.8750 -0.9253 -0.3327
C48 C 0.7841(3) -0.7829(3) -0.3567(3)
H33 H 0.7310 -0.7930 -0.3218
N6_2 N -0.0533(2) 0.1467(2) -0.4104(2)
Ag3_2 Ag 1.07367(2) -0.98281(2) -0.43531(2)
O1 O 0.0597(3) 0.5287(2) -0.1834(2)
O2 O 0.0660(2) 0.4364(2) -0.28724(19)
C1 C 0.0649(3) 0.5156(3) -0.2601(3)
C2 C 0.0663(6) 0.6042(4) -0.3242(4)
H1 H 0.1323 0.5901 -0.3509
H2 H 0.0546 0.6638 -0.2956
H3 H 0.0129 0.6162 -0.3678
O3 O -0.1209(2) 0.2018(2) -0.1292(2)
O4 O -0.1279(2) 0.3012(2) -0.0309(2)
C3 C -0.1314(3) 0.2215(3) -0.0543(3)
C4 C -0.1521(6) 0.1438(4) 0.0116(3)
H4 H -0.2153 0.1318 -0.0037
H5 H -0.1584 0.1677 0.0671
H6 H -0.0961 0.0811 0.0143
O5 O 0.1580(3) 0.1165(3) -0.5370(2)
O6 O 0.0456(3) 0.1003(3) -0.6259(2)
C5 C 0.1211(4) 0.1228(3) -0.6095(3)
C6 C 0.1781(6) 0.1603(6) -0.6830(4)
H7 H 0.2429 0.1634 -0.6615
H8 H 0.1375 0.2273 -0.7089
H9 H 0.1905 0.1141 -0.7256
O7 O 0.7718(4) 0.7341(4) -0.4973(3)
H34 H 0.813(5) 0.759(6) -0.476(4)
H35 H 0.755(6) 0.770(5) -0.545(3)
O8 O -0.0038(3) 0.1068(3) -0.7918(3)
H36 H 0.013(6) 0.108(5) -0.7407(16)
H37 H -0.020(6) 0.1680(17) -0.814(4)
O9 O -0.0900(4) 0.3020(3) -0.8635(3)
H38 H -0.076(6) 0.353(3) -0.853(4)
H39 H -0.105(6) 0.313(5) -0.9162(13)
O10 O -0.1696(3) 0.0358(3) -0.1645(2)
H40 H -0.1087(15) 0.002(4) -0.170(3)
H41 H -0.200(4) 0.038(5) -0.211(2)
O11 O 0.9195(5) 0.5690(4) -0.5416(3)
H42 H 0.949(6) 0.579(6) -0.587(3)
H43 H 0.869(5) 0.621(4) -0.541(5)
O12 O 0.3446(7) 0.9329(7) -0.7480(6)
C49 C 0.4063(12) 0.9716(12) -0.8134(11)
O13 O 0.4282(16) 0.7112(16) -0.8468(13)
C51 C 0.5062(17) 0.6188(18) -0.8238(14)
C55 C 0.6388(14) 0.6292(15) -0.6117(13)
O16 O 0.7013(14) 0.5941(14) -0.6729(12)
O15 O 0.5242(11) 0.7488(11) -0.6591(9)
O17 O 0.6144(11) 0.4441(11) -0.8394(9)
C56 C 0.6164(14) 0.3628(13) -0.9072(15)
C50? C 0.417(2) 0.971(2) 0.2275(18)
C52? C 0.431(3) 0.813(3) 0.173(3)
O14? O 0.560(3) 0.924(3) 0.501(3)
C53? C 0.583(2) 0.873(2) 0.479(2)
C54? C 0.425(2) 0.987(2) 0.393(2)
O18? O 0.6373(11) 0.4734(11) 0.1924(9)
O19? O 0.5972(10) 0.3799(10) 0.0490(9)
C57? C 0.6372(18) 0.3705(17) 0.1271(16)
O20? O 0.5309(9) 0.5356(9) 0.1226(7)
loop_
_geom_bond_atom_site_label_1
_geom_bond_atom_site_label_2
_geom_bond_site_symmetry_1
_geom_bond_site_symmetry_2
Ag1 N1 1_555 1_555
Ag2 N3 1_555 1_555
Ag3 N5 1_555 1_555
N1 C11 1_555 1_555
N2 C18 1_555 1_555
N3 C25 1_555 1_555
N4 C32 1_555 1_555
N5 C39 1_555 1_555
N6 C46 1_555 1_555
O1 C1 1_555 1_555
O2 C1 1_555 1_555
O3 C3 1_555 1_555
O4 C3 1_555 1_555
O5 C5 1_555 1_555
O6 C5 1_555 1_555
C1 C2 1_555 1_555
C2 H1 1_555 1_555
H2 C2 1_555 1_555
H3 C2 1_555 1_555
C3 C4 1_555 1_555
C4 H4 1_555 1_555
H5 C4 1_555 1_555
H6 C4 1_555 1_555
C5 C6 1_555 1_555
C6 H7 1_555 1_555
H8 C6 1_555 1_555
H9 C6 1_555 1_555
C7 C8 1_555 1_555
C8 C9 1_555 1_555
C9 C10 1_555 1_555
C10 H10 1_555 1_555
C11 C10 1_555 1_555
H11 C11 1_555 1_555
C12 N1 1_555 1_555
H12 C12 1_555 1_555
C13 C9 1_555 1_555
H13 C13 1_555 1_555
C14 C7 1_555 1_555
C15 C14 1_555 1_555
C16 C15 1_555 1_555
C17 C16 1_555 1_555
H14 C17 1_555 1_555
C18 C17 1_555 1_555
H15 C18 1_555 1_555
C19 N2 1_555 1_555
H16 C19 1_555 1_555
C20 C16 1_555 1_555
H17 C20 1_555 1_555
C21 C22 1_555 1_555
C22 C23 1_555 1_555
C23 C24 1_555 1_555
C24 H18 1_555 1_555
C25 C24 1_555 1_555
H19 C25 1_555 1_555
C26 N3 1_555 1_555
H20 C26 1_555 1_555
C27 C23 1_555 1_555
H21 C27 1_555 1_555
C28 C21 1_555 1_555
C29 C28 1_555 1_555
C30 C29 1_555 1_555
C31 C30 1_555 1_555
H22 C31 1_555 1_555
C32 C31 1_555 1_555
H23 C32 1_555 1_555
C33 N4 1_555 1_555
H24 C33 1_555 1_555
C34 C30 1_555 1_555
H25 C34 1_555 1_555
C35 C36 1_555 1_555
C36 C37 1_555 1_555
C37 C38 1_555 1_555
C38 H26 1_555 1_555
C39 C38 1_555 1_555
H27 C39 1_555 1_555
C40 N5 1_555 1_555
H28 C40 1_555 1_555
C41 C37 1_555 1_555
H29 C41 1_555 1_555
C42 C35 1_555 1_555
C43 C42 1_555 1_555
C44 C43 1_555 1_555
C45 C44 1_555 1_555
H30 C45 1_555 1_555
C46 C45 1_555 1_555
H31 C46 1_555 1_555
C47 N6 1_555 1_555
H32 C47 1_555 1_555
C48 C44 1_555 1_555
H33 C48 1_555 1_555
O7 H34 1_555 1_555
H35 O7 1_555 1_555
O8 H36 1_555 1_555
H37 O8 1_555 1_555
O9 H38 1_555 1_555
H39 O9 1_555 1_555
O10 H40 1_555 1_555
H41 O10 1_555 1_555
O11 H42 1_555 1_555
H43 O11 1_555 1_555
O12 C49 1_555 1_555
O13 C51 1_555 1_555
C55 O16 1_555 1_555
O17 C56 1_555 1_555
N2_2 Ag1 1_555 1_555
Ag1_2 N2 1_555 1_555
N4_2 Ag2 1_555 1_555
Ag2_2 N4 1_555 1_555
N6_2 Ag3 1_555 1_555
Ag3_2 N6 1_555 1_555
C12 C13 1_555 1_555
C19 C20 1_555 1_555
C26 C27 1_555 1_555
C33 C34 1_555 1_555
C40 C41 1_555 1_555
C47 C48 1_555 1_555

#END
