
#######################################################################
#
#                 Cambridge Crystallographic Data Centre
#                                CCDC 
#
#######################################################################
#
# If this CIF has been generated from an entry in the Cambridge 
# Structural Database, then it will include bibliographic, chemical, 
# crystal, experimental, refinement or atomic coordinate data resulting 
# from the CCDC's data processing and validation procedures.
#
#######################################################################

data_XEBHOB
_symmetry_cell_setting           monoclinic
_symmetry_space_group_name_H-M   'P 21/c'
_symmetry_Int_Tables_number      14
_space_group_name_Hall           '-P 2ybc'
loop_
_symmetry_equiv_pos_site_id
_symmetry_equiv_pos_as_xyz
1 x,y,z
2 x,1/2-y,1/2+z
3 -x,-y,-z
4 -x,1/2+y,1/2-z
_cell_length_a                   8.207(3)
_cell_length_b                   9.340(3)
_cell_length_c                   9.188(3)
_cell_angle_alpha                90
_cell_angle_beta                 104.906(6)
_cell_angle_gamma                90
_cell_volume                     680.591
loop_
_atom_site_label
_atom_site_type_symbol
_atom_site_fract_x
_atom_site_fract_y
_atom_site_fract_z
Mn1 Mn 0.0000 0.0000 0.0000
Mn2 Mn 0.07124(18) 0.36538(15) 0.11438(16)
P1 P -0.1233(3) 0.2114(3) 0.2687(3)
O1 O -0.0887(8) 0.1701(7) 0.1185(7)
O2 O -0.0158(9) 0.3489(7) 0.3176(7)
O3 O -0.0734(9) 0.0938(7) 0.3880(7)
C1 C -0.3442(12) 0.2536(10) 0.2406(13)
H1 H -0.3647 0.2801 0.3364
H2 H -0.3722 0.3353 0.1736
C2 C -0.4552(13) 0.1322(12) 0.1759(15)
H3 H -0.4339 0.0538 0.2477
H4 H -0.4257 0.0995 0.0858
C3 C -0.6436(13) 0.1673(12) 0.1358(12)
O4 O -0.7444(9) 0.0654(9) 0.0919(10)
O5 O -0.6873(10) 0.2961(9) 0.1462(11)
P1B P 0.1233(3) -0.2114(3) -0.2687(3)
O1B O 0.0887(8) -0.1701(7) -0.1185(7)
O2B O 0.0158(9) -0.3489(7) -0.3176(7)
O3B O 0.0734(9) -0.0938(7) -0.3880(7)
C1B C 0.3442(12) -0.2536(10) -0.2406(13)
H1B H 0.3647 -0.2801 -0.3364
H2B H 0.3722 -0.3353 -0.1736
C2B C 0.4552(13) -0.1322(12) -0.1759(15)
H3B H 0.4339 -0.0538 -0.2477
H4B H 0.4257 -0.0995 -0.0858
C3B C 0.6436(13) -0.1673(12) -0.1358(12)
O4B O 0.7444(9) -0.0654(9) -0.0919(10)
O5B O 0.6873(10) -0.2961(9) -0.1462(11)
Mn2B Mn -0.07124(18) -0.36538(15) -0.11438(16)
O2A O -0.0158(9) 0.1511(7) -0.1824(7)
O2C O 0.0158(9) -0.1511(7) 0.1824(7)
O4_2 O 0.2556(9) 0.0654(9) 0.0919(10)
O4B_2 O -0.2556(9) -0.0654(9) -0.0919(10)
O3A O -0.0734(9) 0.4062(7) -0.1120(7)
O3C O 0.0734(9) 0.5938(7) 0.1120(7)
O5_2 O 0.3127(10) 0.2961(9) 0.1462(11)
Mn1A Mn 0.0000 0.5000 0.5000
Mn2A Mn 0.07124(18) 0.13462(15) 0.61438(16)
Mn2C Mn -0.07124(18) -0.13462(15) 0.38562(16)
Mn1_2 Mn -1.0000 0.0000 0.0000
Mn2_2 Mn -0.92876(18) 0.36538(15) 0.11438(16)
Mn1A_2 Mn 0.0000 -0.5000 -0.5000
Mn2A_2 Mn 0.07124(18) 0.13462(15) -0.38562(16)
Mn2C_2 Mn -0.07124(18) -0.13462(15) -0.61438(16)
Mn1_3 Mn 1.0000 0.0000 0.0000
Mn2B_2 Mn 0.92876(18) -0.36538(15) -0.11438(16)
O3A_2 O -0.0734(9) -0.5938(7) -0.1120(7)
O3C_2 O 0.0734(9) -0.4062(7) 0.1120(7)
O5B_2 O -0.3127(10) -0.2961(9) -0.1462(11)
loop_
_geom_bond_atom_site_label_1
_geom_bond_atom_site_label_2
_geom_bond_site_symmetry_1
_geom_bond_site_symmetry_2
Mn1 O1 1_555 1_555
Mn2 O1 1_555 1_555
P1 O1 1_555 1_555
O2 Mn2 1_555 1_555
O3 P1 1_555 1_555
C1 P1 1_555 1_555
H1 C1 1_555 1_555
H2 C1 1_555 1_555
C2 C1 1_555 1_555
H3 C2 1_555 1_555
H4 C2 1_555 1_555
C3 C2 1_555 1_555
O4 C3 1_555 1_555
O5 C3 1_555 1_555
P1B O1B 1_555 1_555
O1B Mn1 1_555 1_555
O2B P1B 1_555 1_555
O3B P1B 1_555 1_555
C1B P1B 1_555 1_555
H1B C1B 1_555 1_555
H2B C1B 1_555 1_555
C2B C1B 1_555 1_555
H3B C2B 1_555 1_555
H4B C2B 1_555 1_555
C3B C2B 1_555 1_555
O4B C3B 1_555 1_555
O5B C3B 1_555 1_555
Mn2B O1B 1_555 1_555
O2A Mn1 1_555 1_555
O2C Mn1 1_555 1_555
O4_2 Mn1 1_555 1_555
O4B_2 Mn1 1_555 1_555
O3A Mn2 1_555 1_555
O3C Mn2 1_555 1_555
O5_2 Mn2 1_555 1_555
Mn1A O2 1_555 1_555
Mn2A O3 1_555 1_555
Mn2C O3 1_555 1_555
Mn1_2 O4 1_555 1_555
Mn2_2 O5 1_555 1_555
Mn1A_2 O2B 1_555 1_555
Mn2A_2 O3B 1_555 1_555
Mn2C_2 O3B 1_555 1_555
Mn1_3 O4B 1_555 1_555
Mn2B_2 O5B 1_555 1_555
O3A_2 Mn2B 1_555 1_555
O3C_2 Mn2B 1_555 1_555
O5B_2 Mn2B 1_555 1_555
P1 O2 1_555 1_555
O2B Mn2B 1_555 1_555
O2A Mn2A_2 1_555 1_555
O2C Mn2C 1_555 1_555

#END
