
#######################################################################
#
#                 Cambridge Crystallographic Data Centre
#                                CCDC 
#
#######################################################################
#
# If this CIF has been generated from an entry in the Cambridge 
# Structural Database, then it will include bibliographic, chemical, 
# crystal, experimental, refinement or atomic coordinate data resulting 
# from the CCDC's data processing and validation procedures.
#
#######################################################################

data_XEBHOC
_symmetry_cell_setting           orthorhombic
_symmetry_space_group_name_H-M   'I m m a'
_symmetry_Int_Tables_number      74
_space_group_name_Hall           '-I 2b 2'
loop_
_symmetry_equiv_pos_site_id
_symmetry_equiv_pos_as_xyz
1 x,y,z
2 1/2+x,1/2+y,1/2+z
3 -x,1/2-y,z
4 -x,1/2+y,-z
5 x,-y,-z
6 1/2-x,-y,1/2+z
7 1/2-x,y,1/2-z
8 1/2+x,1/2-y,1/2-z
9 -x,-y,-z
10 1/2-x,1/2-y,1/2-z
11 x,1/2+y,-z
12 x,1/2-y,z
13 -x,y,z
14 1/2+x,y,1/2-z
15 1/2+x,-y,1/2+z
16 1/2-x,1/2+y,1/2+z
_cell_length_a                   23.712(4)
_cell_length_b                   27.877(4)
_cell_length_c                   15.376(2)
_cell_angle_alpha                90
_cell_angle_beta                 90
_cell_angle_gamma                90
_cell_volume                     10163.8
loop_
_atom_site_label
_atom_site_type_symbol
_atom_site_fract_x
_atom_site_fract_y
_atom_site_fract_z
Cu1 Cu 0.0000 0.468000(11) -0.06300(2)
O1 O -0.05831(6) 0.50939(5) -0.11272(11)
O2 O -0.05801(6) 0.56382(5) -0.00670(12)
O3 O 0.0000 0.41685(11) -0.16586(19)
N1 N -0.2500 0.64918(9) -0.2500
C1 C -0.07550(9) 0.54713(8) -0.07778(17)
C2 C -0.12073(9) 0.57448(8) -0.12261(17)
C3 C -0.14149(11) 0.61659(9) -0.0891(2)
H1 H -0.1265 0.6287 -0.0377
C4 C -0.18436(11) 0.64133(9) -0.1306(2)
H2 H -0.1984 0.6695 -0.1064
C5 C -0.20619(10) 0.62427(8) -0.20784(19)
C6 C -0.18545(11) 0.58223(9) -0.2427(2)
H3 H -0.2001 0.5705 -0.2947
C7 C -0.14265(10) 0.55735(9) -0.20032(19)
H4 H -0.1287 0.5291 -0.2242
C8 C -0.2500 0.69996(10) -0.2500
C9 C -0.29861(10) 0.72542(8) -0.2328(2)
H5 H -0.3319 0.7090 -0.2210
C5F C -0.29381(10) 0.62427(8) -0.29216(19)
C4F C -0.31564(11) 0.64133(9) -0.3694(2)
C3F C -0.35851(11) 0.61659(9) -0.4109(2)
C2F C -0.37927(9) 0.57448(8) -0.37739(17)
C1F C -0.42450(9) 0.54713(8) -0.42222(17)
O1F O -0.44169(6) 0.50939(5) -0.38728(11)
O2F O -0.44199(6) 0.56382(5) -0.49330(12)
C7F C -0.35735(10) 0.55735(9) -0.29968(19)
C6F C -0.31455(11) 0.58223(9) -0.2573(2)
H3F H -0.2999 0.5705 -0.2053
H4F H -0.3713 0.5291 -0.2758
H1F H -0.3735 0.6287 -0.4623
H2F H -0.3016 0.6695 -0.3936
C9K C -0.29861(10) 0.77458(8) -0.2328(2)
C8K C -0.2500 0.80004(10) -0.2500
N1K N -0.2500 0.85082(9) -0.2500
C5K C -0.20619(10) 0.87573(8) -0.20784(19)
C4K C -0.18436(11) 0.85867(9) -0.1306(2)
C3K C -0.14149(11) 0.88341(9) -0.0891(2)
C2K C -0.12073(9) 0.92552(8) -0.12261(17)
C1K C -0.07550(9) 0.95287(8) -0.07778(17)
O1K O -0.05831(6) 0.99061(5) -0.11272(11)
O2K O -0.05801(6) 0.93618(5) -0.00670(12)
C7K C -0.14265(10) 0.94265(9) -0.20032(19)
C6K C -0.18545(11) 0.91777(9) -0.2427(2)
H3K H -0.2001 0.9295 -0.2947
H4K H -0.1287 0.9709 -0.2242
H1K H -0.1265 0.8713 -0.0377
H2K H -0.1984 0.8305 -0.1064
C5I C -0.29381(10) 0.87573(8) -0.29216(19)
C4I C -0.31564(11) 0.85867(9) -0.3694(2)
C3I C -0.35851(11) 0.88341(9) -0.4109(2)
C2I C -0.37927(9) 0.92552(8) -0.37739(17)
C1I C -0.42450(9) 0.95287(8) -0.42222(17)
O1I O -0.44169(6) 0.99061(5) -0.38728(11)
O2I O -0.44199(6) 0.93618(5) -0.49330(12)
C7I C -0.35735(10) 0.94265(9) -0.29968(19)
C6I C -0.31455(11) 0.91777(9) -0.2573(2)
H3I H -0.2999 0.9295 -0.2053
H4I H -0.3713 0.9709 -0.2758
H1I H -0.3735 0.8713 -0.4623
H2I H -0.3016 0.8305 -0.3936
C9I C -0.20139(10) 0.77458(8) -0.2672(2)
C9F C -0.20139(10) 0.72542(8) -0.2672(2)
H5F H -0.1681 0.7090 -0.2790
H5I H -0.1681 0.7910 -0.2790
H5K H -0.3319 0.7910 -0.2210
Cu1F Cu -0.5000 0.468000(11) -0.43700(2)
O3F O -0.5000 0.41685(11) -0.33414(19)
Cu1D Cu 0.0000 0.532000(11) 0.06300(2)
O1L O 0.05831(6) 0.50939(5) -0.11272(11)
O2D O -0.05801(6) 0.43618(5) 0.00670(12)
O2H O 0.05801(6) 0.43618(5) 0.00670(12)
Cu1E Cu -0.5000 0.532000(11) -0.56300(2)
Cu1B Cu 0.0000 1.032000(11) -0.06300(2)
Cu1C Cu 0.0000 0.968000(11) 0.06300(2)
Cu1G Cu -0.5000 1.032000(11) -0.43700(2)
Cu1A Cu -0.5000 0.968000(11) -0.56300(2)
O1M O -0.55831(6) 0.50939(5) -0.38728(11)
O2E O -0.44199(6) 0.43618(5) -0.50670(12)
O2N O -0.55801(6) 0.43618(5) -0.50670(12)
loop_
_geom_bond_atom_site_label_1
_geom_bond_atom_site_label_2
_geom_bond_site_symmetry_1
_geom_bond_site_symmetry_2
Cu1 O1 1_555 1_555
O1 C1 1_555 1_555
O2 C1 1_555 1_555
O3 Cu1 1_555 1_555
N1 C5 1_555 1_555
C1 C2 1_555 1_555
C2 C3 1_555 1_555
C3 H1 1_555 1_555
C4 C3 1_555 1_555
H2 C4 1_555 1_555
C5 C4 1_555 1_555
C6 C5 1_555 1_555
H3 C6 1_555 1_555
C7 C2 1_555 1_555
H4 C7 1_555 1_555
C8 N1 1_555 1_555
C9 C8 1_555 1_555
H5 C9 1_555 1_555
C5F N1 1_555 1_555
C4F C5F 1_555 1_555
C3F C4F 1_555 1_555
C2F C3F 1_555 1_555
C1F C2F 1_555 1_555
O1F C1F 1_555 1_555
O2F C1F 1_555 1_555
C7F C2F 1_555 1_555
C6F C5F 1_555 1_555
H3F C6F 1_555 1_555
H4F C7F 1_555 1_555
H1F C3F 1_555 1_555
H2F C4F 1_555 1_555
C9K C9 1_555 1_555
C8K C9K 1_555 1_555
N1K C8K 1_555 1_555
C5K N1K 1_555 1_555
C4K C5K 1_555 1_555
C3K C4K 1_555 1_555
C2K C3K 1_555 1_555
C1K C2K 1_555 1_555
O1K C1K 1_555 1_555
O2K C1K 1_555 1_555
C7K C2K 1_555 1_555
C6K C5K 1_555 1_555
H3K C6K 1_555 1_555
H4K C7K 1_555 1_555
H1K C3K 1_555 1_555
H2K C4K 1_555 1_555
C5I N1K 1_555 1_555
C4I C5I 1_555 1_555
C3I C4I 1_555 1_555
C2I C3I 1_555 1_555
C1I C2I 1_555 1_555
O1I C1I 1_555 1_555
O2I C1I 1_555 1_555
C7I C2I 1_555 1_555
C6I C5I 1_555 1_555
H3I C6I 1_555 1_555
H4I C7I 1_555 1_555
H1I C3I 1_555 1_555
H2I C4I 1_555 1_555
C9I C8K 1_555 1_555
C9F C8 1_555 1_555
H5F C9F 1_555 1_555
H5I C9I 1_555 1_555
H5K C9K 1_555 1_555
Cu1F O1F 1_555 1_555
O3F Cu1F 1_555 1_555
Cu1D Cu1 1_555 1_555
O1L Cu1 1_555 1_555
O2D Cu1 1_555 1_555
O2H Cu1 1_555 1_555
Cu1E O2F 1_555 1_555
Cu1B O1K 1_555 1_555
Cu1C O2K 1_555 1_555
Cu1G O1I 1_555 1_555
Cu1A O2I 1_555 1_555
O1M Cu1F 1_555 1_555
O2E Cu1F 1_555 1_555
O2N Cu1F 1_555 1_555
O2 Cu1D 1_555 1_555
C6 C7 1_555 1_555
C7F C6F 1_555 1_555
C7K C6K 1_555 1_555
C7I C6I 1_555 1_555
C9I C9F 1_555 1_555
Cu1F Cu1E 1_555 1_555
Cu1B Cu1C 1_555 1_555
Cu1G Cu1A 1_555 1_555

#END
