
#######################################################################
#
#                 Cambridge Crystallographic Data Centre
#                                CCDC 
#
#######################################################################
#
# If this CIF has been generated from an entry in the Cambridge 
# Structural Database, then it will include bibliographic, chemical, 
# crystal, experimental, refinement or atomic coordinate data resulting 
# from the CCDC's data processing and validation procedures.
#
#######################################################################

data_XEBHER
_symmetry_cell_setting           monoclinic
_symmetry_space_group_name_H-M   'C 2/c'
_symmetry_Int_Tables_number      15
_space_group_name_Hall           '-C 2yn'
loop_
_symmetry_equiv_pos_site_id
_symmetry_equiv_pos_as_xyz
1 x,y,z
2 1/2+x,1/2+y,z
3 x,-y,1/2+z
4 1/2+x,1/2-y,1/2+z
5 -x,-y,-z
6 1/2-x,1/2-y,-z
7 -x,y,1/2-z
8 1/2-x,1/2+y,1/2-z
_cell_length_a                   9.263(2)
_cell_length_b                   18.543(4)
_cell_length_c                   30.160(6)
_cell_angle_alpha                90
_cell_angle_beta                 91.93(3)
_cell_angle_gamma                90
_cell_volume                     5177.46
loop_
_atom_site_label
_atom_site_type_symbol
_atom_site_fract_x
_atom_site_fract_y
_atom_site_fract_z
Ag1 Ag -1.25353(3) 0.24185(2) 0.585640(10)
N1 N 0.0897(3) 0.26145(18) 0.13667(11)
N2 N -1.1026(3) 0.24114(17) 0.53307(11)
C1 C -0.3004(4) 0.2609(2) 0.26731(14)
C2 C -0.2169(4) 0.2617(2) 0.23832(14)
C3 C -0.1129(4) 0.2625(2) 0.20359(13)
C4 C -0.0648(4) 0.1980(2) 0.18566(13)
H1 H -0.0997 0.1531 0.1961
C5 C 0.0353(4) 0.2003(2) 0.15217(13)
H2 H 0.0663 0.1561 0.1398
C6 C 0.0436(4) 0.3239(2) 0.15406(13)
H3 H 0.0811 0.3680 0.1433
C7 C -0.0573(4) 0.3260(2) 0.18727(13)
H4 H -0.0878 0.3710 0.1987
C8 C -0.4017(4) 0.2589(2) 0.30231(13)
C9 C -0.4523(5) 0.1933(3) 0.31842(15)
H5 H -0.4188 0.1495 0.3062
C10 C -0.5509(4) 0.1911(3) 0.35203(15)
H6 H -0.5835 0.1461 0.3629
C11 C -0.6021(4) 0.2555(2) 0.36983(13)
C12 C -0.5494(5) 0.3212(3) 0.35435(15)
H7 H -0.5809 0.3651 0.3672
C13 C -0.4513(5) 0.3231(3) 0.32033(15)
H8 H -0.4183 0.3680 0.3095
C14 C -0.7065(5) 0.2539(2) 0.40372(15)
C15 C -0.7969(5) 0.2508(2) 0.43184(15)
C16 C -0.9009(4) 0.2471(2) 0.46541(13)
C17 C -0.9567(4) 0.1812(2) 0.47971(13)
H9 H -0.9269 0.1372 0.4667
C18 C -1.0566(4) 0.1808(2) 0.51331(13)
H10 H -1.0938 0.1358 0.5227
C19 C -1.0486(4) 0.3041(2) 0.51935(15)
H11 H -1.0785 0.3471 0.5335
C20 C -0.9508(5) 0.3094(2) 0.48540(15)
H12 H -0.9185 0.3554 0.4760
Ag1C Ag 0.24647(3) 0.25815(2) 0.085640(10)
N1C N -1.4103(3) 0.23855(18) 0.63667(11)
P1 P 0.26335(13) -0.00285(6) 0.42063(4)
F1 F 0.1886(6) 0.0585(3) 0.39142(19)
F2 F 0.3360(6) 0.0600(3) 0.44804(17)
F3 F 0.3963(5) -0.0034(2) 0.38864(17)
F4 F 0.1304(5) -0.0011(2) 0.45272(17)
F5 F 0.1896(6) -0.0655(3) 0.3929(2)
F6 F 0.3319(6) -0.0641(3) 0.4490(2)
C21 C 0.2453(10) -0.0300(4) 0.0621(3)
H13 H 0.1461 -0.0469 0.0565
H14 H 0.2927 -0.0602 0.0850
H15 H 0.2988 -0.0332 0.0347
C22 C 0.2429(5) 0.0451(3) 0.07730(16)
N3 N 0.2402(5) 0.1031(3) 0.08863(18)
loop_
_geom_bond_atom_site_label_1
_geom_bond_atom_site_label_2
_geom_bond_site_symmetry_1
_geom_bond_site_symmetry_2
Ag1 N2 1_555 1_555
N1 C5 1_555 1_555
N2 C18 1_555 1_555
C1 C2 1_555 1_555
C2 C3 1_555 1_555
C3 C4 1_555 1_555
C4 H1 1_555 1_555
C5 C4 1_555 1_555
H2 C5 1_555 1_555
C6 N1 1_555 1_555
H3 C6 1_555 1_555
C7 C3 1_555 1_555
H4 C7 1_555 1_555
C8 C1 1_555 1_555
C9 C8 1_555 1_555
H5 C9 1_555 1_555
C10 C9 1_555 1_555
H6 C10 1_555 1_555
C11 C10 1_555 1_555
C12 C11 1_555 1_555
H7 C12 1_555 1_555
C13 C8 1_555 1_555
H8 C13 1_555 1_555
C14 C11 1_555 1_555
C15 C14 1_555 1_555
C16 C15 1_555 1_555
C17 C16 1_555 1_555
H9 C17 1_555 1_555
C18 C17 1_555 1_555
H10 C18 1_555 1_555
C19 N2 1_555 1_555
H11 C19 1_555 1_555
C20 C16 1_555 1_555
H12 C20 1_555 1_555
P1 F1 1_555 1_555
F2 P1 1_555 1_555
F3 P1 1_555 1_555
F4 P1 1_555 1_555
F5 P1 1_555 1_555
F6 P1 1_555 1_555
C21 H13 1_555 1_555
H14 C21 1_555 1_555
H15 C21 1_555 1_555
C22 C21 1_555 1_555
N3 C22 1_555 1_555
Ag1C N1 1_555 1_555
N1C Ag1 1_555 1_555
C6 C7 1_555 1_555
C12 C13 1_555 1_555
C19 C20 1_555 1_555

#END
