
#######################################################################
#
#                 Cambridge Crystallographic Data Centre
#                                CCDC 
#
#######################################################################
#
# If this CIF has been generated from an entry in the Cambridge 
# Structural Database, then it will include bibliographic, chemical, 
# crystal, experimental, refinement or atomic coordinate data resulting 
# from the CCDC's data processing and validation procedures.
#
#######################################################################

data_XEBMIA
_symmetry_cell_setting           monoclinic
_symmetry_space_group_name_H-M   'P 21/c'
_symmetry_Int_Tables_number      14
_space_group_name_Hall           '-P 2ybc'
loop_
_symmetry_equiv_pos_site_id
_symmetry_equiv_pos_as_xyz
1 x,y,z
2 x,1/2-y,1/2+z
3 -x,-y,-z
4 -x,1/2+y,1/2-z
_cell_length_a                   4.0227(9)
_cell_length_b                   12.940(4)
_cell_length_c                   12.801(4)
_cell_angle_alpha                90
_cell_angle_beta                 96.83(2)
_cell_angle_gamma                90
_cell_volume                     661.611
loop_
_atom_site_label
_atom_site_type_symbol
_atom_site_fract_x
_atom_site_fract_y
_atom_site_fract_z
Br1 Br -0.93495(8) -0.30360(3) 0.45987(3)
Cu1 Cu -0.46834(12) -0.30539(3) 0.33670(3)
N1 N -0.4953(8) -0.6607(2) 0.2235(2)
N2 N -0.5013(8) -0.4515(2) 0.2814(2)
C1 C -0.6157(9) -0.6295(3) 0.3104(3)
H1 H -0.7019(9) -0.6785(3) 0.3530(3)
C2 C -0.6176(10) -0.5265(3) 0.3399(3)
H2 H -0.7017(10) -0.5087(3) 0.4021(3)
C3 C -0.3778(9) -0.4819(2) 0.1922(3)
C4 C -0.3744(9) -0.5858(3) 0.1654(3)
H3 H -0.2845(9) -0.6046(3) 0.1045(3)
C5 C -0.2504(10) -0.4009(3) 0.1252(3)
H4 H -0.1538(57) -0.4329(3) 0.0682(11)
H5 H -0.0831(45) -0.3605(12) 0.1665(6)
H6 H -0.4319(15) -0.3569(12) 0.0974(16)
Cu1C Cu -0.53166(12) -0.80539(3) 0.16330(3)
Cu1_2 Cu -1.46834(12) -0.30539(3) 0.33670(3)
Br1_2 Br 0.06505(8) -0.30360(3) 0.45987(3)
N1C N -0.5047(8) -0.1607(2) 0.2765(2)
loop_
_geom_bond_atom_site_label_1
_geom_bond_atom_site_label_2
_geom_bond_site_symmetry_1
_geom_bond_site_symmetry_2
Br1 Cu1 1_555 1_555
Cu1 N2 1_555 1_555
N1 C1 1_555 1_555
N2 C2 1_555 1_555
C1 H1 1_555 1_555
C2 C1 1_555 1_555
H2 C2 1_555 1_555
C3 N2 1_555 1_555
C4 N1 1_555 1_555
H3 C4 1_555 1_555
C5 C3 1_555 1_555
H4 C5 1_555 1_555
H5 C5 1_555 1_555
H6 C5 1_555 1_555
Cu1C N1 1_555 1_555
Cu1_2 Br1 1_555 1_555
Br1_2 Cu1 1_555 1_555
N1C Cu1 1_555 1_555
C3 C4 1_555 1_555

#END
