
#######################################################################
#
#                 Cambridge Crystallographic Data Centre
#                                CCDC 
#
#######################################################################
#
# If this CIF has been generated from an entry in the Cambridge 
# Structural Database, then it will include bibliographic, chemical, 
# crystal, experimental, refinement or atomic coordinate data resulting 
# from the CCDC's data processing and validation procedures.
#
#######################################################################

data_XEBMUM
_symmetry_cell_setting           monoclinic
_symmetry_space_group_name_H-M   'P 21/c'
_symmetry_Int_Tables_number      14
_space_group_name_Hall           '-P 2ybc'
loop_
_symmetry_equiv_pos_site_id
_symmetry_equiv_pos_as_xyz
1 x,y,z
2 x,1/2-y,1/2+z
3 -x,-y,-z
4 -x,1/2+y,1/2-z
_cell_length_a                   15.255(5)
_cell_length_b                   4.2279(9)
_cell_length_c                   16.142(4)
_cell_angle_alpha                90
_cell_angle_beta                 112.23(2)
_cell_angle_gamma                90
_cell_volume                     963.722
loop_
_atom_site_label
_atom_site_type_symbol
_atom_site_fract_x
_atom_site_fract_y
_atom_site_fract_z
I1 I 0.10156(3) 0.56678(9) 0.20797(3)
I2 I 0.42178(3) 0.07953(10) 0.82340(3)
Cu1 Cu 0.47657(6) 0.0778(2) 0.68649(6)
Cu2 Cu 0.07302(7) 0.0759(2) 0.29795(6)
N1 N 0.1889(4) 0.0848(13) 0.4189(3)
N2 N 0.3545(4) 0.0765(14) 0.5731(3)
C1 C 0.1923(4) 0.2298(16) 0.4930(4)
C2 C 0.2747(5) 0.2221(17) 0.5704(4)
H1 H 0.2746(5) 0.3206(17) 0.6219(4)
C3 C 0.3502(5) -0.0613(19) 0.4966(4)
H2 H 0.4037(5) -0.1612(19) 0.4946(4)
C4 C 0.2685(5) -0.0580(18) 0.4212(4)
H3 H 0.2682(5) -0.1582(18) 0.3698(4)
C5 C 0.1064(5) 0.3979(19) 0.4936(5)
H4 H 0.0553(17) 0.2499(40) 0.4809(53)
H5 H 0.0888(34) 0.561(13) 0.4488(37)
H6 H 0.1201(18) 0.491(16) 0.5514(17)
I1_2 I 0.10156(3) -0.43322(9) 0.20797(3)
I1C I -0.10156(3) 0.06678(9) 0.29203(3)
Cu2C Cu -0.07302(7) 0.5759(2) 0.20205(6)
Cu2_2 Cu 0.07302(7) 1.0759(2) 0.29795(6)
Cu1C Cu 0.52343(6) -0.4222(2) 0.81351(6)
Cu1C_2 Cu 0.52343(6) 0.5778(2) 0.81351(6)
I2C I 0.57822(3) 0.57953(10) 0.67660(3)
I2C_2 I 0.57822(3) -0.42047(10) 0.67660(3)
loop_
_geom_bond_atom_site_label_1
_geom_bond_atom_site_label_2
_geom_bond_site_symmetry_1
_geom_bond_site_symmetry_2
I1 Cu2 1_555 1_555
I2 Cu1 1_555 1_555
Cu1 N2 1_555 1_555
Cu2 N1 1_555 1_555
N1 C1 1_555 1_555
N2 C2 1_555 1_555
C1 C2 1_555 1_555
C2 H1 1_555 1_555
C3 N2 1_555 1_555
H2 C3 1_555 1_555
C4 N1 1_555 1_555
H3 C4 1_555 1_555
C5 C1 1_555 1_555
H4 C5 1_555 1_555
H5 C5 1_555 1_555
H6 C5 1_555 1_555
I1_2 Cu2 1_555 1_555
I1C Cu2 1_555 1_555
Cu2C I1 1_555 1_555
Cu2_2 I1 1_555 1_555
Cu1C I2 1_555 1_555
Cu1C_2 I2 1_555 1_555
I2C Cu1 1_555 1_555
I2C_2 Cu1 1_555 1_555
C3 C4 1_555 1_555
I1C Cu2C 1_555 1_555
Cu1C I2C_2 1_555 1_555
Cu1C_2 I2C 1_555 1_555

#END
