
#######################################################################
#
#                 Cambridge Crystallographic Data Centre
#                                CCDC 
#
#######################################################################
#
# If this CIF has been generated from an entry in the Cambridge 
# Structural Database, then it will include bibliographic, chemical, 
# crystal, experimental, refinement or atomic coordinate data resulting 
# from the CCDC's data processing and validation procedures.
#
#######################################################################

data_XEBMOG
_symmetry_cell_setting           monoclinic
_symmetry_space_group_name_H-M   'P 21/c'
_symmetry_Int_Tables_number      14
_space_group_name_Hall           '-P 2ybc'
loop_
_symmetry_equiv_pos_site_id
_symmetry_equiv_pos_as_xyz
1 x,y,z
2 x,1/2-y,1/2+z
3 -x,-y,-z
4 -x,1/2+y,1/2-z
_cell_length_a                   3.8609(6)
_cell_length_b                   12.887(3)
_cell_length_c                   12.585(3)
_cell_angle_alpha                90
_cell_angle_beta                 95.588(15)
_cell_angle_gamma                90
_cell_volume                     623.196
loop_
_atom_site_label
_atom_site_type_symbol
_atom_site_fract_x
_atom_site_fract_y
_atom_site_fract_z
Cu1 Cu 0.44956(11) 0.30269(3) 0.16050(3)
Cl1 Cl -0.0706(2) 0.30011(5) 0.04258(6)
N1 N 0.4910(6) 0.4494(2) 0.2163(2)
N2 N 0.5008(7) 0.6587(2) 0.2754(2)
C1 C 0.6136(8) 0.5237(2) 0.1552(2)
H1 H 0.6962(8) 0.5050(2) 0.0909(2)
C2 C 0.6210(8) 0.6270(2) 0.1848(2)
H2 H 0.7119(8) 0.6757(2) 0.1406(2)
C3 C 0.3746(8) 0.5844(2) 0.3360(2)
H3 H 0.2865(8) 0.6037(2) 0.3993(2)
C4 C 0.3700(7) 0.4803(2) 0.3084(2)
C5 C 0.2381(9) 0.3989(2) 0.3788(2)
H4 H 0.1350(56) 0.4315(2) 0.4367(11)
H5 H 0.4279(14) 0.3557(11) 0.4068(15)
H6 H 0.0667(45) 0.3573(12) 0.3381(5)
Cl1_2 Cl 0.9294(2) 0.30011(5) 0.04258(6)
Cu1_2 Cu -0.55044(11) 0.30269(3) 0.16050(3)
Cu1C Cu 0.55044(11) 0.80269(3) 0.33950(3)
N2C N 0.4992(7) 0.1587(2) 0.2246(2)
loop_
_geom_bond_atom_site_label_1
_geom_bond_atom_site_label_2
_geom_bond_site_symmetry_1
_geom_bond_site_symmetry_2
Cu1 Cl1 1_555 1_555
Cl1 Cu1_2 1_555 1_555
N1 Cu1 1_555 1_555
N2 C2 1_555 1_555
C1 N1 1_555 1_555
H1 C1 1_555 1_555
C2 C1 1_555 1_555
H2 C2 1_555 1_555
C3 N2 1_555 1_555
H3 C3 1_555 1_555
C4 N1 1_555 1_555
C5 C4 1_555 1_555
H4 C5 1_555 1_555
H5 C5 1_555 1_555
H6 C5 1_555 1_555
Cl1_2 Cu1 1_555 1_555
Cu1C N2 1_555 1_555
N2C Cu1 1_555 1_555
C3 C4 1_555 1_555

#END
