
#######################################################################
#
#                 Cambridge Crystallographic Data Centre
#                                CCDC 
#
#######################################################################
#
# If this CIF has been generated from an entry in the Cambridge 
# Structural Database, then it will include bibliographic, chemical, 
# crystal, experimental, refinement or atomic coordinate data resulting 
# from the CCDC's data processing and validation procedures.
#
#######################################################################

data_XEBNEX
_symmetry_cell_setting           orthorhombic
_symmetry_space_group_name_H-M   'P 21 21 21'
_symmetry_Int_Tables_number      19
_space_group_name_Hall           'P 2ac 2ab'
loop_
_symmetry_equiv_pos_site_id
_symmetry_equiv_pos_as_xyz
1 x,y,z
2 1/2-x,-y,1/2+z
3 -x,1/2+y,1/2-z
4 1/2+x,1/2-y,-z
_cell_length_a                   7.249(2)
_cell_length_b                   9.090(2)
_cell_length_c                   12.132(3)
_cell_angle_alpha                90
_cell_angle_beta                 90
_cell_angle_gamma                90
_cell_volume                     799.419
loop_
_atom_site_label
_atom_site_type_symbol
_atom_site_fract_x
_atom_site_fract_y
_atom_site_fract_z
I1 I -0.77127(9) 0.59681(7) 0.52667(6)
Cu1 Cu -0.4685(2) 0.67176(15) 0.38020(13)
N1 N -0.2816(11) 0.5029(8) 0.3956(6)
N2 N -0.3793(12) 0.2612(8) 0.2475(8)
C1 C -0.3565(16) 0.3646(11) 0.4382(9)
H1 H -0.4271(16) 0.3834(11) 0.5046(9)
H2 H -0.2564(16) 0.2982(11) 0.4566(9)
C2 C -0.4820(15) 0.2931(10) 0.3503(8)
H3 H -0.5329(15) 0.2024(10) 0.3794(8)
H4 H -0.5838(15) 0.3588(10) 0.3339(8)
C3 C -0.2849(14) 0.3995(11) 0.2101(8)
H5 H -0.3782(14) 0.4695(11) 0.1869(8)
H6 H -0.2096(14) 0.3767(11) 0.1462(8)
C4 C -0.1642(14) 0.4717(12) 0.2963(8)
H7 H -0.0671(14) 0.4022(12) 0.3176(8)
C5 C -0.0753(16) 0.6092(13) 0.2554(10)
H8 H -0.1688(16) 0.6785(31) 0.2345(52)
H9 H 0.0004(74) 0.5868(18) 0.1926(35)
H10 H -0.0002(73) 0.6507(40) 0.3127(20)
Cu1C Cu -0.9685(2) 0.82824(15) 0.61980(13)
I1C I -0.27127(9) 0.90319(7) 0.47333(6)
Cu1B Cu -0.5315(2) 0.17176(15) 0.11980(13)
N2B N -0.6207(12) 0.7612(8) 0.2525(8)
loop_
_geom_bond_atom_site_label_1
_geom_bond_atom_site_label_2
_geom_bond_site_symmetry_1
_geom_bond_site_symmetry_2
I1 Cu1 1_555 1_555
Cu1 N1 1_555 1_555
N1 C1 1_555 1_555
N2 C2 1_555 1_555
C1 H1 1_555 1_555
H2 C1 1_555 1_555
C2 C1 1_555 1_555
H3 C2 1_555 1_555
H4 C2 1_555 1_555
C3 N2 1_555 1_555
H5 C3 1_555 1_555
H6 C3 1_555 1_555
C4 N1 1_555 1_555
H7 C4 1_555 1_555
C5 C4 1_555 1_555
H8 C5 1_555 1_555
H9 C5 1_555 1_555
H10 C5 1_555 1_555
Cu1C I1 1_555 1_555
I1C Cu1 1_555 1_555
Cu1B N2 1_555 1_555
N2B Cu1 1_555 1_555
C3 C4 1_555 1_555

#END
