
#######################################################################
#
#                 Cambridge Crystallographic Data Centre
#                                CCDC 
#
#######################################################################
#
# If this CIF has been generated from an entry in the Cambridge 
# Structural Database, then it will include bibliographic, chemical, 
# crystal, experimental, refinement or atomic coordinate data resulting 
# from the CCDC's data processing and validation procedures.
#
#######################################################################

data_XEBXIL
_symmetry_cell_setting           monoclinic
_symmetry_space_group_name_H-M   'P 21/n'
_symmetry_Int_Tables_number      14
_space_group_name_Hall           '-P 2yn'
loop_
_symmetry_equiv_pos_site_id
_symmetry_equiv_pos_as_xyz
1 x,y,z
2 1/2-x,1/2+y,1/2-z
3 -x,-y,-z
4 1/2+x,1/2-y,1/2+z
_cell_length_a                   5.811(1)
_cell_length_b                   17.884(4)
_cell_length_c                   8.417(2)
_cell_angle_alpha                90
_cell_angle_beta                 101.04(1)
_cell_angle_gamma                90
_cell_volume                     858.54
loop_
_atom_site_label
_atom_site_type_symbol
_atom_site_fract_x
_atom_site_fract_y
_atom_site_fract_z
Mn1 Mn 0.0000 0.0000 0.0000
V1 V 0.21920(5) -0.176110(15) 0.13889(4)
V2 V 0.21896(5) 0.114154(16) -0.29406(3)
O1 O 0.1417(2) -0.11290(7) -0.00913(16)
O2 O 0.2093(2) 0.04372(7) -0.16673(17)
O3 O 0.2680(3) -0.25473(8) 0.0553(2)
O4 O -0.0196(2) -0.18681(7) 0.24850(17)
O5 O 0.4816(2) -0.14619(8) 0.27030(17)
O6 O 0.1327(2) 0.08329(8) -0.47723(17)
N1 N 0.2775(3) 0.03021(9) 0.2165(2)
H1 H 0.3790 -0.0082 0.2371
H2 H 0.2079 0.0352 0.3027
C1 C 0.4121(3) 0.09877(11) 0.2025(2)
H3 H 0.3084 0.1410 0.1944
H4 H 0.4734 0.0963 0.1045
C2 C 0.6137(3) 0.11062(10) 0.3442(2)
H5 H 0.7018 0.0652 0.3664
H6 H 0.5533 0.1239 0.4389
N2 N 0.7697(3) 0.17171(9) 0.3048(2)
H7 H 0.8190 0.1605 0.2126
H8 H 0.8964 0.1760 0.3846
H9 H 0.6904 0.2152 0.2929
V2B V -0.21896(5) -0.114154(16) 0.29406(3)
O2B O -0.2093(2) -0.04372(7) 0.16673(17)
O1B O -0.1417(2) 0.11290(7) 0.00913(16)
V1B V -0.21920(5) 0.176110(15) -0.13889(4)
O3B O -0.2680(3) 0.25473(8) -0.0553(2)
O4B O 0.0196(2) 0.18681(7) -0.24850(17)
N1B N -0.2775(3) -0.03021(9) -0.2165(2)
H1B H -0.3790 0.0082 -0.2371
H2B H -0.2079 -0.0352 -0.3027
C1B C -0.4121(3) -0.09877(11) -0.2025(2)
H3B H -0.3084 -0.1410 -0.1944
H4B H -0.4734 -0.0963 -0.1045
C2B C -0.6137(3) -0.11062(10) -0.3442(2)
H5B H -0.7018 -0.0652 -0.3664
H6B H -0.5533 -0.1239 -0.4389
N2B N -0.7697(3) -0.17171(9) -0.3048(2)
H7B H -0.8190 -0.1605 -0.2126
H8B H -0.8964 -0.1760 -0.3846
H9B H -0.6904 -0.2152 -0.2929
O5B O 0.5184(2) 0.14619(8) -0.27030(17)
V1B_2 V 0.78080(5) 0.176110(15) -0.13889(4)
O5B_2 O -0.4816(2) 0.14619(8) -0.27030(17)
O5_2 O -0.5184(2) -0.14619(8) 0.27030(17)
O6B O -0.1327(2) -0.08329(8) 0.47723(17)
V2B_2 V 0.78104(5) -0.114154(16) 0.29406(3)
loop_
_geom_bond_atom_site_label_1
_geom_bond_atom_site_label_2
_geom_bond_site_symmetry_1
_geom_bond_site_symmetry_2
Mn1 O1 1_555 1_555
V1 O1 1_555 1_555
V2 O2 1_555 1_555
O2 Mn1 1_555 1_555
O3 V1 1_555 1_555
O4 V1 1_555 1_555
O5 V1 1_555 1_555
O6 V2 1_555 1_555
N1 Mn1 1_555 1_555
H1 N1 1_555 1_555
H2 N1 1_555 1_555
C1 N1 1_555 1_555
H3 C1 1_555 1_555
H4 C1 1_555 1_555
C2 C1 1_555 1_555
H5 C2 1_555 1_555
H6 C2 1_555 1_555
N2 C2 1_555 1_555
H7 N2 1_555 1_555
H8 N2 1_555 1_555
H9 N2 1_555 1_555
V2B O4 1_555 1_555
O2B Mn1 1_555 1_555
O1B Mn1 1_555 1_555
V1B O1B 1_555 1_555
O3B V1B 1_555 1_555
O4B V2 1_555 1_555
N1B Mn1 1_555 1_555
H1B N1B 1_555 1_555
H2B N1B 1_555 1_555
C1B N1B 1_555 1_555
H3B C1B 1_555 1_555
H4B C1B 1_555 1_555
C2B C1B 1_555 1_555
H5B C2B 1_555 1_555
H6B C2B 1_555 1_555
N2B C2B 1_555 1_555
H7B N2B 1_555 1_555
H8B N2B 1_555 1_555
H9B N2B 1_555 1_555
O5B V2 1_555 1_555
V1B_2 O5B 1_555 1_555
O5B_2 V1B 1_555 1_555
O5_2 V2B 1_555 1_555
O6B V2B 1_555 1_555
V2B_2 O5 1_555 1_555
V2B O2B 1_555 1_555
V1B O4B 1_555 1_555

#END
