
#######################################################################
#
#                 Cambridge Crystallographic Data Centre
#                                CCDC 
#
#######################################################################
#
# If this CIF has been generated from an entry in the Cambridge 
# Structural Database, then it will include bibliographic, chemical, 
# crystal, experimental, refinement or atomic coordinate data resulting 
# from the CCDC's data processing and validation procedures.
#
#######################################################################

data_XECBUD
_symmetry_cell_setting           triclinic
_symmetry_space_group_name_H-M   'P -1'
_symmetry_Int_Tables_number      2
_space_group_name_Hall           '-P 1'
loop_
_symmetry_equiv_pos_site_id
_symmetry_equiv_pos_as_xyz
1 x,y,z
2 -x,-y,-z
_cell_length_a                   11.558(7)
_cell_length_b                   11.617(7)
_cell_length_c                   11.841(7)
_cell_angle_alpha                64.110(10)
_cell_angle_beta                 81.057(11)
_cell_angle_gamma                72.690(10)
_cell_volume                     1364.93
loop_
_atom_site_label
_atom_site_type_symbol
_atom_site_fract_x
_atom_site_fract_y
_atom_site_fract_z
Zn1 Zn 0.0000 0.0000 -0.5000
Zn2 Zn 0.0000 0.0000 -1.0000
Zn3 Zn 0.0000 -0.5000 -0.5000
O1 O 0.0393(3) -0.0776(3) -0.3103(3)
O2 O 0.0508(3) -0.1045(3) -0.1169(3)
C1 C 0.0392(4) -0.0326(5) -0.2333(4)
N1 N 0.0087(4) -0.1529(4) -0.8283(4)
N2 N 0.1745(4) -0.1254(4) -0.5241(4)
C2 C -0.0200(4) -0.1121(5) -0.7309(5)
N3 N -0.1931(4) 0.0038(5) -1.0138(4)
C3 C 0.2488(5) -0.0813(6) -0.6221(5)
H1 H 0.2190 -0.0006 -0.6885
C4 C 0.5441(5) -0.3407(5) -0.5308(5)
C5 C 0.4145(5) -0.2718(5) -0.5326(5)
C6 C 0.3345(5) -0.3167(6) -0.4344(6)
H2 H 0.3602 -0.3988 -0.3680
C7 C 0.2188(5) -0.2430(5) -0.4332(5)
H3 H 0.1680 -0.2767 -0.3649
C8 C 0.3671(5) -0.1495(6) -0.6295(5)
H4 H 0.4157 -0.1141 -0.6993
C9 C -0.3409(5) -0.1118(6) -0.9865(6)
H5 H -0.3570 -0.1912 -0.9715
C10 C 0.6009(5) -0.4291(6) -0.4180(6)
H6 H 0.5555 -0.4528 -0.3431
C11 C -0.4354(5) 0.0011(6) -1.0031(5)
C12 C -0.5976(6) -0.1156(7) -0.9708(7)
H7 H -0.5385 -0.1947 -0.9555
C13 C 0.6174(5) -0.3189(7) -0.6382(6)
H8 H 0.5836 -0.2646 -0.7165
C14 C -0.2246(5) -0.1042(7) -0.9926(6)
H9 H -0.8371 0.1808 -1.0191
C15 C -0.7178(6) -0.1119(7) -0.9673(7)
H10 H -0.7376 -0.1899 -0.9508
O3 O -0.0825(3) -0.1525(4) -0.4536(3)
O4 O -0.0468(4) -0.3639(3) -0.4127(3)
C16 C 0.0216(4) -0.2810(5) -0.7731(5)
H11 H 0.0415 -0.3339 -0.8173
C17 C -0.0229(4) -0.2219(5) -0.6214(5)
C18 C -0.0515(4) -0.2461(5) -0.4861(4)
C19 C 0.7397(5) -0.3772(6) -0.6299(6)
H12 H 0.7865 -0.3624 -0.7038
C20 C 0.7241(5) -0.4808(6) -0.4180(6)
H13 H 0.7603 -0.5381 -0.3415
N4 N 0.0043(4) -0.3296(4) -0.6500(4)
N5 N 0.7945(4) -0.4537(5) -0.5211(5)
Zn2_2 Zn 0.0000 0.0000 0.0000
Zn2_3 Zn -1.0000 0.0000 -1.0000
Zn3_2 Zn 1.0000 -0.5000 -0.5000
Zn3_3 Zn 0.0000 0.5000 -0.5000
Zn3_4 Zn -1.0000 0.5000 -0.5000
O1A O -0.0393(3) 0.0776(3) -0.6897(3)
O2A O -0.0508(3) 0.1045(3) -0.8831(3)
O2_2 O 0.0508(3) -0.1045(3) -1.1169(3)
C1A C -0.0392(4) 0.0326(5) -0.7667(4)
N1A N -0.0087(4) 0.1529(4) -1.1717(4)
N1A_2 N -0.0087(4) 0.1529(4) -0.1717(4)
N2A N -0.1745(4) 0.1254(4) -0.4759(4)
C2A C 0.0200(4) 0.1121(5) -0.2691(5)
N3A N -0.8069(4) -0.0038(5) -0.9862(4)
N3A_2 N 0.1931(4) -0.0038(5) -0.9862(4)
C3A C -0.2488(5) 0.0813(6) -0.3779(5)
H1A H -0.2190 0.0006 -0.3115
C4A C -0.5441(5) 0.3407(5) -0.4692(5)
C5A C -0.4145(5) 0.2718(5) -0.4674(5)
C6A C -0.3345(5) 0.3167(6) -0.5656(6)
H2A H -0.3602 0.3988 -0.6320
C7A C -0.2188(5) 0.2430(5) -0.5668(5)
H3A H -0.1680 0.2767 -0.6351
C8A C -0.3671(5) 0.1495(6) -0.3705(5)
H4A H -0.4157 0.1141 -0.3007
C9A C -0.6591(5) 0.1118(6) -1.0135(6)
H5A H -0.6430 0.1912 -1.0285
C10A C -0.6009(5) 0.4291(6) -0.5820(6)
H6A H -0.5555 0.4528 -0.6569
C11A C -0.5646(5) -0.0011(6) -0.9969(5)
C12A C -0.4024(6) 0.1156(7) -1.0292(7)
H7A H -0.4615 0.1947 -1.0445
C13A C -0.6174(5) 0.3189(7) -0.3618(6)
H8A H -0.5836 0.2646 -0.2835
C14A C -0.7754(5) 0.1042(7) -1.0074(6)
H9A H -0.1629 -0.1808 -0.9809
C15A C -0.2822(6) 0.1119(7) -1.0327(7)
H10A H -0.2624 0.1899 -1.0492
O3A O 0.0825(3) 0.1525(4) -0.5464(3)
O4A O 0.0468(4) -0.6361(3) -0.5873(3)
O4A_2 O 0.0468(4) 0.3639(3) -0.5873(3)
C16A C -0.0216(4) 0.2810(5) -0.2269(5)
H11A H -0.0415 0.3339 -0.1827
C17A C 0.0229(4) 0.2219(5) -0.3786(5)
C18A C 0.0515(4) 0.2461(5) -0.5139(4)
C19A C -0.7397(5) 0.3772(6) -0.3701(6)
H12A H -0.7865 0.3624 -0.2962
C20A C -0.7241(5) 0.4808(6) -0.5820(6)
H13A H -0.7603 0.5381 -0.6585
N4A N -0.0043(4) -0.6704(4) -0.3500(4)
N4A_2 N -0.0043(4) 0.3296(4) -0.3500(4)
N5A N 0.2055(4) -0.5463(5) -0.4789(5)
N5_2 N -0.2055(4) -0.4537(5) -0.5211(5)
N5A_2 N -0.7945(4) 0.4537(5) -0.4789(5)
O5 O 0.0457(11) 0.3272(10) 0.1796(7)
O6 O -0.3898(10) 0.5696(8) 0.1385(8)
O7 O 0.1818(19) 0.6307(19) -0.0128(19)
O8 O -0.1422(17) 0.5609(14) 0.0726(18)
C21 C -0.4054(16) 0.7637(13) 0.7474(18)
H14 H -0.3353 0.7026 0.7871
N6 N -0.517(2) 0.7612(14) 0.8105(11)
C22 C -0.6218(15) 0.8526(18) 0.7512(14)
H15 H -0.6966 0.8509 0.7934
C23 C -0.6147(8) 0.9464(15) 0.6288(13)
H16 H -0.6847 1.0075 0.5891
C24 C -0.5029(11) 0.9489(13) 0.5657(11)
C25 C -0.3982(8) 0.8575(16) 0.6250(18)
H17 H -0.3234 0.8592 0.5828
C21A C -0.5946(16) 1.2363(13) 0.2526(18)
H14A H -0.6647 1.2974 0.2129
N6A N -0.483(2) 1.2388(14) 0.1895(11)
C22A C -0.3782(15) 1.1474(18) 0.2488(14)
H15A H -0.3034 1.1491 0.2066
C23A C -0.3853(8) 1.0536(15) 0.3712(13)
H16A H -0.3153 0.9925 0.4109
C24A C -0.4971(11) 1.0511(13) 0.4343(11)
C25A C -0.6018(8) 1.1425(16) 0.3750(18)
H17A H -0.6766 1.1408 0.4172
loop_
_geom_bond_atom_site_label_1
_geom_bond_atom_site_label_2
_geom_bond_site_symmetry_1
_geom_bond_site_symmetry_2
Zn1 O1 1_555 1_555
Zn2 N1 1_555 1_555
Zn3 O4 1_555 1_555
O1 C1 1_555 1_555
O2 C1 1_555 1_555
C1 C2A 1_555 1_555
N1 C2 1_555 1_555
N2 Zn1 1_555 1_555
C2 C17 1_555 1_555
N3 Zn2 1_555 1_555
C3 N2 1_555 1_555
H1 C3 1_555 1_555
C4 C5 1_555 1_555
C5 C6 1_555 1_555
C6 H2 1_555 1_555
C7 N2 1_555 1_555
H3 C7 1_555 1_555
C8 C3 1_555 1_555
H4 C8 1_555 1_555
C9 H5 1_555 1_555
C10 C4 1_555 1_555
H6 C10 1_555 1_555
C11 C9 1_555 1_555
C12 H7 1_555 1_555
C13 C4 1_555 1_555
H8 C13 1_555 1_555
C14 N3 1_555 1_555
H9 C14A 1_555 1_555
C15 C12 1_555 1_555
H10 C15 1_555 1_555
O3 Zn1 1_555 1_555
O4 C18 1_555 1_555
C16 N1 1_555 1_555
H11 C16 1_555 1_555
C17 C18 1_555 1_555
C18 O3 1_555 1_555
C19 C13 1_555 1_555
H12 C19 1_555 1_555
C20 C10 1_555 1_555
H13 C20 1_555 1_555
N4 Zn3 1_555 1_555
N5 C19 1_555 1_555
C21 H14 1_555 1_555
N6 C21 1_555 1_555
C22 N6 1_555 1_555
H15 C22 1_555 1_555
C23 C22 1_555 1_555
H16 C23 1_555 1_555
C24 C23 1_555 1_555
C25 C21 1_555 1_555
H17 C25 1_555 1_555
Zn2_2 O2 1_555 1_555
Zn2_3 N3A 1_555 1_555
Zn3_2 N5 1_555 1_555
Zn3_3 O4A_2 1_555 1_555
Zn3_4 N5A_2 1_555 1_555
O1A Zn1 1_555 1_555
O2A Zn2 1_555 1_555
O2_2 Zn2 1_555 1_555
C1A C2 1_555 1_555
N1A Zn2 1_555 1_555
N1A_2 Zn2_2 1_555 1_555
N2A Zn1 1_555 1_555
C2A N1A_2 1_555 1_555
N3A C15 1_555 1_555
N3A_2 Zn2 1_555 1_555
C3A N2A 1_555 1_555
H1A C3A 1_555 1_555
C4A C5A 1_555 1_555
C5A C6A 1_555 1_555
C6A H2A 1_555 1_555
C7A N2A 1_555 1_555
H3A C7A 1_555 1_555
C8A C3A 1_555 1_555
H4A C8A 1_555 1_555
C9A H5A 1_555 1_555
C10A C4A 1_555 1_555
H6A C10A 1_555 1_555
C11A C11 1_555 1_555
C12A C11 1_555 1_555
H7A C12A 1_555 1_555
C13A C4A 1_555 1_555
H8A C13A 1_555 1_555
C14A N3A 1_555 1_555
H9A C14 1_555 1_555
C15A N3 1_555 1_555
H10A C15A 1_555 1_555
O3A Zn1 1_555 1_555
O4A Zn3 1_555 1_555
O4A_2 C18A 1_555 1_555
C16A N1A_2 1_555 1_555
H11A C16A 1_555 1_555
C17A C2A 1_555 1_555
C18A O3A 1_555 1_555
C19A C13A 1_555 1_555
H12A C19A 1_555 1_555
C20A C10A 1_555 1_555
H13A C20A 1_555 1_555
N4A Zn3 1_555 1_555
N4A_2 Zn3_3 1_555 1_555
N5A Zn3 1_555 1_555
N5_2 Zn3 1_555 1_555
N5A_2 C19A 1_555 1_555
C21A H14A 1_555 1_555
N6A C21A 1_555 1_555
C22A N6A 1_555 1_555
H15A C22A 1_555 1_555
C23A C22A 1_555 1_555
H16A C23A 1_555 1_555
C24A C24 1_555 1_555
C25A C21A 1_555 1_555
H17A C25A 1_555 1_555
C5 C8 1_555 1_555
C6 C7 1_555 1_555
C9 C14 1_555 1_555
C12 C11A 1_555 1_555
C16 N4 1_555 1_555
C17 N4 1_555 1_555
C20 N5 1_555 1_555
C24 C25 1_555 1_555
O1A C1A 1_555 1_555
O2A C1A 1_555 1_555
C5A C8A 1_555 1_555
C6A C7A 1_555 1_555
C9A C11A 1_555 1_555
C9A C14A 1_555 1_555
C12A C15A 1_555 1_555
C16A N4A_2 1_555 1_555
C17A C18A 1_555 1_555
C17A N4A_2 1_555 1_555
C20A N5A_2 1_555 1_555
C23A C24A 1_555 1_555
C24A C25A 1_555 1_555

#END
