
#######################################################################
#
#                 Cambridge Crystallographic Data Centre
#                                CCDC 
#
#######################################################################
#
# If this CIF has been generated from an entry in the Cambridge 
# Structural Database, then it will include bibliographic, chemical, 
# crystal, experimental, refinement or atomic coordinate data resulting 
# from the CCDC's data processing and validation procedures.
#
#######################################################################

data_XECBIR
_symmetry_cell_setting           orthorhombic
_symmetry_space_group_name_H-M   'P n n m'
_symmetry_Int_Tables_number      58
_space_group_name_Hall           '-P 2 2n'
loop_
_symmetry_equiv_pos_site_id
_symmetry_equiv_pos_as_xyz
1 x,y,z
2 -x,-y,z
3 1/2-x,1/2+y,1/2-z
4 1/2+x,1/2-y,1/2-z
5 -x,-y,-z
6 x,y,-z
7 1/2+x,1/2-y,1/2+z
8 1/2-x,1/2+y,1/2+z
_cell_length_a                   20.195(2)
_cell_length_b                   15.8339(18)
_cell_length_c                   16.2758(19)
_cell_angle_alpha                90
_cell_angle_beta                 90
_cell_angle_gamma                90
_cell_volume                     5204.44
loop_
_atom_site_label
_atom_site_type_symbol
_atom_site_fract_x
_atom_site_fract_y
_atom_site_fract_z
Cd1 Cd 0.09131(2) 0.46005(3) 0.20651(3)
Cd2 Cd 0.19539(2) 0.27504(3) 0.29553(3)
Cd3 Cd 0.0000 0.5000 0.5000
C1 C 0.0412(4) 0.6546(4) 0.2121(5)
C2 C 0.1142(3) 0.6548(4) 0.2180(4)
C3 C 0.1592(4) 0.7193(4) 0.2189(5)
C4 C 0.1517(4) 0.8119(5) 0.2124(5)
C5 C 0.2116(3) 0.6033(4) 0.2303(5)
H1 H 0.2462 0.5651 0.2365
C6 C 0.0863(5) 0.4823(7) 0.0000
H2 H 0.0616 0.5318 0.0000
C7 C 0.1390(3) 0.3741(4) 0.0423(4)
C8 C 0.1681(4) 0.3158(5) 0.1016(4)
C9 C 0.1151(3) 0.4160(4) 0.3918(4)
C10 C 0.1459(3) 0.3627(4) 0.4574(4)
C11 C 0.2048(5) 0.2590(6) 0.5000
H3 H 0.2315 0.2111 0.5000
C12 C 0.1064(4) 0.1199(5) 0.2264(5)
H4 H 0.1320 0.1306 0.1801
C13 C 0.0616(4) 0.0542(5) 0.2243(5)
H5 H 0.0566 0.0223 0.1767
C14 C 0.0241(4) 0.0359(5) 0.2935(5)
C15 C 0.0319(6) 0.0881(8) 0.3582(7)
H6 H 0.0059 0.0807 0.4048
C16 C 0.0778(6) 0.1519(7) 0.3562(6)
H7 H 0.0832 0.1852 0.4028
C17 C 0.0529(7) 0.6779(8) 0.4290(6)
H8 H 0.0385 0.6533 0.3803
C18 C 0.0874(7) 0.7557(8) 0.4258(6)
H9 H 0.0957 0.7823 0.3759
C19 C 0.1085(6) 0.7911(6) 0.5000
C20 C 0.1474(7) 0.8761(8) 0.5000
C21 C 0.1633(6) 0.9120(7) 0.4244(6)
H10 H 0.1526 0.8867 0.3746
C22 C 0.1969(6) 0.9894(8) 0.4296(6)
H11 H 0.2084 1.0157 0.3805
N1 N 0.1479(3) 0.5803(3) 0.2252(4)
N2 N 0.2204(3) 0.6865(4) 0.2256(4)
N3 N 0.1057(3) 0.4435(4) 0.0690(4)
N4 N 0.1839(3) 0.2966(4) 0.4320(3)
N5 N 0.1143(3) 0.1683(4) 0.2918(4)
N6 N 0.0405(5) 0.6391(5) 0.5000
N7 N 0.2137(7) 1.0289(8) 0.5000
O1 O 0.0144(2) 0.5822(3) 0.2102(3)
O2 O 0.0106(3) 0.7222(4) 0.2100(5)
O3 O 0.0920(3) 0.8422(4) 0.2103(6)
H17 H 0.0660 0.8049 0.1967
O4 O 0.2005(3) 0.8577(3) 0.2110(4)
O5 O 0.1626(3) 0.3335(3) 0.1749(3)
O6 O 0.1980(3) 0.2505(4) 0.0763(4)
O7 O 0.1302(3) 0.3944(3) 0.3188(3)
O8 O 0.0781(3) 0.4745(3) 0.4048(3)
Cd1E Cd 0.09131(2) 0.46005(3) 0.79349(3)
Cd1D Cd -0.09131(2) 0.53995(3) 0.79349(3)
Cd1A Cd -0.09131(2) 0.53995(3) 0.20651(3)
Cd1E_2 Cd 0.09131(2) 0.46005(3) -0.20651(3)
Cd1B Cd 0.40869(2) -0.03995(3) 0.29349(3)
Cd1C Cd 0.59131(2) 0.03995(3) 0.29349(3)
Cd1_2 Cd 0.09131(2) 0.46005(3) 1.20651(3)
Cd2E Cd 0.19539(2) 0.27504(3) 0.70447(3)
Cd2D Cd -0.19539(2) 0.72496(3) 0.70447(3)
Cd2A Cd -0.19539(2) 0.72496(3) 0.29553(3)
Cd2B Cd 0.30461(2) 0.77504(3) 0.20447(3)
Cd2E_2 Cd 0.19539(2) 0.27504(3) -0.29553(3)
Cd2A_2 Cd -0.19539(2) -0.27504(3) 0.29553(3)
Cd2C Cd -0.30461(2) 0.22496(3) 0.20447(3)
Cd2G Cd 0.30461(2) 0.77504(3) 0.79553(3)
Cd2_2 Cd 0.19539(2) 0.27504(3) 1.29553(3)
Cd2D_2 Cd -0.19539(2) -0.27504(3) 0.70447(3)
C1A C -0.0412(4) 0.3454(4) 0.2121(5)
C1B C 0.4588(4) 0.1546(4) 0.2879(5)
C1E C 0.0412(4) 0.6546(4) 0.7879(5)
C2A C -0.1142(3) 0.3452(4) 0.2180(4)
C2B C 0.3858(3) 0.1548(4) 0.2820(4)
C2E C 0.1142(3) 0.6548(4) 0.7820(4)
C3A C -0.1592(4) 0.2807(4) 0.2189(5)
C3B C 0.3408(4) 0.2193(4) 0.2811(5)
C3E C 0.1592(4) 0.7193(4) 0.7811(5)
C4A C -0.1517(4) 0.1881(5) 0.2124(5)
C4B C 0.3483(4) 0.3119(5) 0.2876(5)
C4E C 0.1517(4) 0.8119(5) 0.7876(5)
C5A C -0.2116(3) 0.3967(4) 0.2303(5)
C5B C 0.2884(3) 0.1033(4) 0.2697(5)
C5E C 0.2116(3) 0.6033(4) 0.7697(5)
H1A H -0.2462 0.4349 0.2365
H1B H 0.2538 0.0651 0.2635
H1E H 0.2462 0.5651 0.7635
C6_2 C 0.0863(5) 0.4823(7) 1.0000
H2_2 H 0.0616 0.5318 1.0000
C7E C 0.1390(3) 0.3741(4) -0.0423(4)
C7E_2 C 0.1390(3) 0.3741(4) 0.9577(4)
C7_2 C 0.1390(3) 0.3741(4) 1.0423(4)
C8E C 0.1681(4) 0.3158(5) -0.1016(4)
C8E_2 C 0.1681(4) 0.3158(5) 0.8984(4)
C8_2 C 0.1681(4) 0.3158(5) 1.1016(4)
C9E C 0.1151(3) 0.4160(4) 0.6082(4)
C9D C -0.1151(3) 0.5840(4) 0.6082(4)
C9A C -0.1151(3) 0.5840(4) 0.3918(4)
C10E C 0.1459(3) 0.3627(4) 0.5426(4)
C10D C -0.1459(3) 0.6373(4) 0.5426(4)
C10A C -0.1459(3) 0.6373(4) 0.4574(4)
C11D C -0.2048(5) 0.7410(6) 0.5000
H3D H -0.2315 0.7889 0.5000
C12A C -0.1064(4) -0.1199(5) 0.2264(5)
C12E C 0.1064(4) 0.1199(5) 0.7736(5)
C12D C -0.1064(4) -0.1199(5) 0.7736(5)
H4A H -0.1320 -0.1306 0.1801
H4E H 0.1320 0.1306 0.8199
H4D H -0.1320 -0.1306 0.8199
C13A C -0.0616(4) -0.0542(5) 0.2243(5)
C13E C 0.0616(4) 0.0542(5) 0.7757(5)
C13D C -0.0616(4) -0.0542(5) 0.7757(5)
H5A H -0.0566 -0.0223 0.1767
H5E H 0.0566 0.0223 0.8233
H5D H -0.0566 -0.0223 0.8233
C14A C -0.0241(4) -0.0359(5) 0.2935(5)
C14E C 0.0241(4) 0.0359(5) 0.7065(5)
C14D C -0.0241(4) -0.0359(5) 0.7065(5)
C15A C -0.0319(6) -0.0881(8) 0.3582(7)
C15E C 0.0319(6) 0.0881(8) 0.6418(7)
C15D C -0.0319(6) -0.0881(8) 0.6418(7)
H6A H -0.0059 -0.0807 0.4048
H6E H 0.0059 0.0807 0.5952
H6D H -0.0059 -0.0807 0.5952
C16A C -0.0778(6) -0.1519(7) 0.3562(6)
C16E C 0.0778(6) 0.1519(7) 0.6438(6)
C16D C -0.0778(6) -0.1519(7) 0.6438(6)
H7A H -0.0832 -0.1852 0.4028
H7E H 0.0832 0.1852 0.5972
H7D H -0.0832 -0.1852 0.5972
C17E C 0.0529(7) 0.6779(8) 0.5710(6)
C17D C -0.0529(7) 0.3221(8) 0.5710(6)
C17A C -0.0529(7) 0.3221(8) 0.4290(6)
H8E H 0.0385 0.6533 0.6197
H8D H -0.0385 0.3467 0.6197
H8A H -0.0385 0.3467 0.3803
C18E C 0.0874(7) 0.7557(8) 0.5742(6)
C18D C -0.0874(7) 0.2443(8) 0.5742(6)
C18A C -0.0874(7) 0.2443(8) 0.4258(6)
H9E H 0.0957 0.7823 0.6241
H9D H -0.0957 0.2177 0.6241
H9A H -0.0957 0.2177 0.3759
C19D C -0.1085(6) 0.2089(6) 0.5000
C20D C -0.1474(7) 0.1239(8) 0.5000
C21E C 0.1633(6) 0.9120(7) 0.5756(6)
C21D C -0.1633(6) 0.0880(7) 0.5756(6)
C21A C -0.1633(6) 0.0880(7) 0.4244(6)
H10E H 0.1526 0.8867 0.6254
H10D H -0.1526 0.1133 0.6254
H10A H -0.1526 0.1133 0.3746
C22E C 0.1969(6) 0.9894(8) 0.5704(6)
C22D C -0.1969(6) 0.0106(8) 0.5704(6)
C22A C -0.1969(6) 0.0106(8) 0.4296(6)
H11E H 0.2084 1.0157 0.6195
H11D H -0.2084 -0.0157 0.6195
H11A H -0.2084 -0.0157 0.3805
N1A N -0.1479(3) 0.4197(3) 0.2252(4)
N1B N 0.3521(3) 0.0803(3) 0.2748(4)
N1E N 0.1479(3) 0.5803(3) 0.7748(4)
N1D N -0.1479(3) 0.4197(3) 0.7748(4)
N2A N -0.2204(3) 0.3135(4) 0.2256(4)
N2B N 0.2796(3) 0.1865(4) 0.2744(4)
N2E N 0.2204(3) 0.6865(4) 0.7744(4)
N2G N 0.2796(3) 0.1865(4) 0.7256(4)
N2F N -0.2796(3) 0.8135(4) 0.7256(4)
N2C N -0.2796(3) 0.8135(4) 0.2744(4)
N3E N 0.1057(3) 0.4435(4) -0.0690(4)
N3E_2 N 0.1057(3) 0.4435(4) 0.9310(4)
N3_2 N 0.1057(3) 0.4435(4) 1.0690(4)
N3D N -0.1057(3) 0.5565(4) 0.9310(4)
N3A N -0.1057(3) 0.5565(4) 0.0690(4)
N4E N 0.1839(3) 0.2966(4) 0.5680(3)
N4D N -0.1839(3) 0.7034(4) 0.5680(3)
N4A N -0.1839(3) 0.7034(4) 0.4320(3)
N5A N -0.1143(3) -0.1683(4) 0.2918(4)
N5E N 0.1143(3) 0.1683(4) 0.7082(4)
N5D N -0.1143(3) -0.1683(4) 0.7082(4)
N5D_2 N -0.1143(3) 0.8317(4) 0.7082(4)
N5A_2 N -0.1143(3) 0.8317(4) 0.2918(4)
N6D N -0.0405(5) 0.3609(5) 0.5000
N7D N -0.2137(7) -0.0289(8) 0.5000
O1A O -0.0144(2) 0.4178(3) 0.2102(3)
O1B O 0.4856(2) 0.0822(3) 0.2898(3)
O1E O 0.0144(2) 0.5822(3) 0.7898(3)
O1D O -0.0144(2) 0.4178(3) 0.7898(3)
O2A O -0.0106(3) 0.2778(4) 0.2100(5)
O2B O 0.4894(3) 0.2222(4) 0.2900(5)
O2E O 0.0106(3) 0.7222(4) 0.7900(5)
O3A O -0.0920(3) 0.1578(4) 0.2103(6)
O3B O 0.4080(3) 0.3422(4) 0.2897(6)
O3E O 0.0920(3) 0.8422(4) 0.7897(6)
H17A H -0.0660 0.1951 0.1967
H17B H 0.4340 0.3049 0.3033
H17E H 0.0660 0.8049 0.8033
O4A O -0.2005(3) 0.1423(3) 0.2110(4)
O4B O 0.2995(3) 0.3577(3) 0.2890(4)
O4E O 0.2005(3) 0.8577(3) 0.7890(4)
O4G O 0.2995(3) 0.3577(3) 0.7110(4)
O4F O -0.2995(3) 0.6423(3) 0.7110(4)
O4C O -0.2995(3) 0.6423(3) 0.2890(4)
O5E O 0.1626(3) 0.3335(3) -0.1749(3)
O5E_2 O 0.1626(3) 0.3335(3) 0.8251(3)
O5_2 O 0.1626(3) 0.3335(3) 1.1749(3)
O5D O -0.1626(3) 0.6665(3) 0.8251(3)
O5A O -0.1626(3) 0.6665(3) 0.1749(3)
O6E O 0.1980(3) 0.2505(4) -0.0763(4)
O6E_2 O 0.1980(3) 0.2505(4) 0.9237(4)
O6_2 O 0.1980(3) 0.2505(4) 1.0763(4)
O7E O 0.1302(3) 0.3944(3) 0.6812(3)
O7D O -0.1302(3) 0.6056(3) 0.6812(3)
O7A O -0.1302(3) 0.6056(3) 0.3188(3)
O8E O 0.0781(3) 0.4745(3) 0.5952(3)
O8D O -0.0781(3) 0.5255(3) 0.5952(3)
O8A O -0.0781(3) 0.5255(3) 0.4048(3)
C23 C -0.0141(17) 0.8032(8) 0.0000
H12 H -0.0461 0.7608 0.0000
C24 C -0.0334(10) 0.8873(7) 0.0000
H13 H -0.0784 0.8999 0.0000
C25 C 0.0112(5) 0.9529(3) 0.0000
C26 C 0.0760(7) 0.9284(12) 0.0000
H14 H 0.1086 0.9698 0.0000
C27 C 0.0953(13) 0.8437(15) 0.0000
H15 H 0.1400 0.8298 0.0000
N8 N 0.0496(19) 0.7827(9) 0.0000
H16 H 0.053(4) 0.7240(11) 0.0000
C23D C 0.0141(17) 1.1968(8) 0.0000
H12D H 0.0461 1.2392 0.0000
C24D C 0.0334(10) 1.1127(7) 0.0000
H13D H 0.0784 1.1001 0.0000
C25D C -0.0112(5) 1.0471(3) 0.0000
C26D C -0.0760(7) 1.0716(12) 0.0000
H14D H -0.1086 1.0302 0.0000
C27D C -0.0953(13) 1.1563(15) 0.0000
H15D H -0.1400 1.1702 0.0000
N8D N -0.0496(19) 1.2173(9) 0.0000
H16D H -0.053(4) 1.2760(11) 0.0000
O9 O 0.2071(9) 0.0048(11) 0.1000(12)
O10 O 0.3373(9) 0.1607(11) 0.5000(12)
O11 O 0.2915(9) 0.1026(11) 0.0637(12)
loop_
_geom_bond_atom_site_label_1
_geom_bond_atom_site_label_2
_geom_bond_site_symmetry_1
_geom_bond_site_symmetry_2
Cd1 N1 1_555 1_555
Cd2 N4 1_555 1_555
Cd3 N6 1_555 1_555
C1 C2 1_555 1_555
C2 C3 1_555 1_555
C3 C4 1_555 1_555
C4 O3 1_555 1_555
C5 H1 1_555 1_555
C6 H2 1_555 1_555
C7 C8 1_555 1_555
C8 O5 1_555 1_555
C9 C10 1_555 1_555
C10 N4 1_555 1_555
C11 H3 1_555 1_555
C12 H4 1_555 1_555
C13 C12 1_555 1_555
H5 C13 1_555 1_555
C14 C13 1_555 1_555
C15 C14 1_555 1_555
H6 C15 1_555 1_555
C16 C15 1_555 1_555
H7 C16 1_555 1_555
C17 H8 1_555 1_555
C18 C17 1_555 1_555
H9 C18 1_555 1_555
C19 C18 1_555 1_555
C20 C19 1_555 1_555
C21 C20 1_555 1_555
H10 C21 1_555 1_555
C22 C21 1_555 1_555
H11 C22 1_555 1_555
C23 H12 1_555 1_555
C24 C23 1_555 1_555
H13 C24 1_555 1_555
C25 C24 1_555 1_555
C26 C25 1_555 1_555
H14 C26 1_555 1_555
C27 C26 1_555 1_555
H15 C27 1_555 1_555
N1 C2 1_555 1_555
N2 C3 1_555 1_555
N3 Cd1 1_555 1_555
N4 C11 1_555 1_555
N5 Cd2 1_555 1_555
N6 C17 1_555 1_555
N7 C22 1_555 1_555
N8 C23 1_555 1_555
H16 N8 1_555 1_555
O1 Cd1 1_555 1_555
O2 C1 1_555 1_555
O3 H17 1_555 1_555
O4 C4 1_555 1_555
O5 Cd1 1_555 1_555
O6 C8 1_555 1_555
O7 Cd1 1_555 1_555
O8 Cd3 1_555 1_555
Cd1E N1E 1_555 1_555
Cd1D N1D 1_555 1_555
Cd1A O1 1_555 1_555
Cd1E_2 N3E 1_555 1_555
Cd1B N1B 1_555 1_555
Cd1C O1B 1_555 1_555
Cd1_2 N3_2 1_555 1_555
Cd2E N2G 1_555 1_555
Cd2D N2F 1_555 1_555
Cd2A N2C 1_555 1_555
Cd2B N2 1_555 1_555
Cd2E_2 O5E 1_555 1_555
Cd2A_2 N5A 1_555 1_555
Cd2C N2A 1_555 1_555
Cd2G N2E 1_555 1_555
Cd2_2 O5_2 1_555 1_555
Cd2D_2 N5D 1_555 1_555
C1A C2A 1_555 1_555
C1B C2B 1_555 1_555
C1E C2E 1_555 1_555
C2A C3A 1_555 1_555
C2B C3B 1_555 1_555
C2E C3E 1_555 1_555
C3A C4A 1_555 1_555
C3B C4B 1_555 1_555
C3E C4E 1_555 1_555
C4A O3A 1_555 1_555
C4B O3B 1_555 1_555
C4E O3E 1_555 1_555
C5A H1A 1_555 1_555
C5B H1B 1_555 1_555
C5E H1E 1_555 1_555
C6_2 H2_2 1_555 1_555
C7E C7 1_555 1_555
C7E_2 C7_2 1_555 1_555
C7_2 C8_2 1_555 1_555
C8E C7E 1_555 1_555
C8E_2 C7E_2 1_555 1_555
C8_2 O5_2 1_555 1_555
C9E C10E 1_555 1_555
C9D C10D 1_555 1_555
C9A C10A 1_555 1_555
C10E C10 1_555 1_555
C10D C10A 1_555 1_555
C10A N4A 1_555 1_555
C11D H3D 1_555 1_555
C12A H4A 1_555 1_555
C12E H4E 1_555 1_555
C12D H4D 1_555 1_555
C13A C12A 1_555 1_555
C13E C12E 1_555 1_555
C13D C12D 1_555 1_555
H5A C13A 1_555 1_555
H5E C13E 1_555 1_555
H5D C13D 1_555 1_555
C14A C14 1_555 1_555
C14E C13E 1_555 1_555
C14D C13D 1_555 1_555
C15A C14A 1_555 1_555
C15E C14E 1_555 1_555
C15D C14D 1_555 1_555
H6A C15A 1_555 1_555
H6E C15E 1_555 1_555
H6D C15D 1_555 1_555
C16A C15A 1_555 1_555
C16E C15E 1_555 1_555
C16D C15D 1_555 1_555
H7A C16A 1_555 1_555
H7E C16E 1_555 1_555
H7D C16D 1_555 1_555
C17E N6 1_555 1_555
C17D H8D 1_555 1_555
C17A H8A 1_555 1_555
H8E C17E 1_555 1_555
C18E C19 1_555 1_555
C18D C17D 1_555 1_555
C18A C17A 1_555 1_555
H9E C18E 1_555 1_555
H9D C18D 1_555 1_555
H9A C18A 1_555 1_555
C19D C18D 1_555 1_555
C20D C19D 1_555 1_555
C21E C20 1_555 1_555
C21D C20D 1_555 1_555
C21A C20D 1_555 1_555
H10E C21E 1_555 1_555
H10D C21D 1_555 1_555
H10A C21A 1_555 1_555
C22E N7 1_555 1_555
C22D C21D 1_555 1_555
C22A C21A 1_555 1_555
H11E C22E 1_555 1_555
H11D C22D 1_555 1_555
H11A C22A 1_555 1_555
C23D H12D 1_555 1_555
C24D C23D 1_555 1_555
H13D C24D 1_555 1_555
C25D C25 1_555 1_555
C26D C25D 1_555 1_555
H14D C26D 1_555 1_555
C27D C26D 1_555 1_555
H15D C27D 1_555 1_555
N1A Cd1A 1_555 1_555
N1B C2B 1_555 1_555
N1E C2E 1_555 1_555
N2A C3A 1_555 1_555
N2B Cd2 1_555 1_555
N2E C3E 1_555 1_555
N3E C6 1_555 1_555
N3E_2 Cd1E 1_555 1_555
N3_2 C6_2 1_555 1_555
N3D Cd1D 1_555 1_555
N3A Cd1A 1_555 1_555
N4E C11 1_555 1_555
N4D Cd2D 1_555 1_555
N4A Cd2A 1_555 1_555
N5A C12A 1_555 1_555
N5E Cd2E 1_555 1_555
N5D C12D 1_555 1_555
N5D_2 Cd2D 1_555 1_555
N5A_2 Cd2A 1_555 1_555
N6D Cd3 1_555 1_555
N7D C22D 1_555 1_555
N8D C23D 1_555 1_555
H16D N8D 1_555 1_555
O1A Cd1 1_555 1_555
O1B Cd1B 1_555 1_555
O1E Cd1E 1_555 1_555
O1D Cd1E 1_555 1_555
O2A C1A 1_555 1_555
O2B C1B 1_555 1_555
O2E C1E 1_555 1_555
O3A H17A 1_555 1_555
O3B H17B 1_555 1_555
O3E H17E 1_555 1_555
O4A Cd2C 1_555 1_555
O4B Cd2 1_555 1_555
O4E Cd2G 1_555 1_555
O4G Cd2E 1_555 1_555
O4F Cd2D 1_555 1_555
O4C Cd2A 1_555 1_555
O5E Cd1E_2 1_555 1_555
O5E_2 Cd1E 1_555 1_555
O5_2 Cd1_2 1_555 1_555
O5D Cd1D 1_555 1_555
O5A Cd1A 1_555 1_555
O6E C8E 1_555 1_555
O6E_2 C8E_2 1_555 1_555
O6_2 C8_2 1_555 1_555
O7E Cd1E 1_555 1_555
O7D Cd1D 1_555 1_555
O7A Cd1A 1_555 1_555
O8E Cd3 1_555 1_555
O8D Cd3 1_555 1_555
O8A Cd3 1_555 1_555
Cd2 O5 1_555 1_555
Cd2 O7 1_555 1_555
C1 O1 1_555 1_555
C5 N1 1_555 1_555
C5 N2 1_555 1_555
C6 N3 1_555 1_555
C7 N3 1_555 1_555
C9 O7 1_555 1_555
C9 O8 1_555 1_555
C12 N5 1_555 1_555
C16 N5 1_555 1_555
C27 N8 1_555 1_555
O4 Cd2B 1_555 1_555
Cd1D O1E 1_555 1_555
Cd1D O1D 1_555 1_555
Cd1A O1A 1_555 1_555
Cd2E N4E 1_555 1_555
Cd2E O5E_2 1_555 1_555
Cd2E O7E 1_555 1_555
Cd2D O5D 1_555 1_555
Cd2D O7D 1_555 1_555
Cd2A O5A 1_555 1_555
Cd2A O7A 1_555 1_555
C1A O1A 1_555 1_555
C1B O1B 1_555 1_555
C1E O1E 1_555 1_555
C2A N1A 1_555 1_555
C3B N2B 1_555 1_555
C4A O4A 1_555 1_555
C4B O4B 1_555 1_555
C4E O4E 1_555 1_555
C5A N1A 1_555 1_555
C5A N2A 1_555 1_555
C5B N1B 1_555 1_555
C5B N2B 1_555 1_555
C5E N1E 1_555 1_555
C5E N2E 1_555 1_555
C6_2 N3E_2 1_555 1_555
C7E N3E 1_555 1_555
C7E_2 N3E_2 1_555 1_555
C7_2 N3_2 1_555 1_555
C8E O5E 1_555 1_555
C8E_2 O5E_2 1_555 1_555
C9E O7E 1_555 1_555
C9E O8E 1_555 1_555
C9D O7D 1_555 1_555
C9D O8D 1_555 1_555
C9A O7A 1_555 1_555
C9A O8A 1_555 1_555
C10E N4E 1_555 1_555
C10D N4D 1_555 1_555
C11D N4D 1_555 1_555
C11D N4A 1_555 1_555
C12E N5E 1_555 1_555
C13A C14A 1_555 1_555
C14E C14D 1_555 1_555
C16A N5A 1_555 1_555
C16E N5E 1_555 1_555
C16D N5D 1_555 1_555
C17E C18E 1_555 1_555
C17D N6D 1_555 1_555
C17A N6D 1_555 1_555
C18A C19D 1_555 1_555
C21E C22E 1_555 1_555
C22A N7D 1_555 1_555
C24D C25D 1_555 1_555
C27D N8D 1_555 1_555

#END
