
#######################################################################
#
#                 Cambridge Crystallographic Data Centre
#                                CCDC 
#
#######################################################################
#
# If this CIF has been generated from an entry in the Cambridge 
# Structural Database, then it will include bibliographic, chemical, 
# crystal, experimental, refinement or atomic coordinate data resulting 
# from the CCDC's data processing and validation procedures.
#
#######################################################################

data_XECBOX
_symmetry_cell_setting           monoclinic
_symmetry_space_group_name_H-M   'P 21/c'
_symmetry_Int_Tables_number      14
_space_group_name_Hall           '-P 2ybc'
loop_
_symmetry_equiv_pos_site_id
_symmetry_equiv_pos_as_xyz
1 x,y,z
2 -x,1/2+y,1/2-z
3 -x,-y,-z
4 x,1/2-y,1/2+z
_cell_length_a                   16.084(5)
_cell_length_b                   8.319(3)
_cell_length_c                   8.501(3)
_cell_angle_alpha                90
_cell_angle_beta                 90.284(6)
_cell_angle_gamma                90
_cell_volume                     1137.44
loop_
_atom_site_label
_atom_site_type_symbol
_atom_site_fract_x
_atom_site_fract_y
_atom_site_fract_z
Zn1 Zn 1.0000 0.0000 1.0000
Zn2 Zn 0.721275(18) -0.01088(3) 0.57192(3)
O1 O 0.91379(11) 0.1348(2) 0.8588(2)
O2 O 0.79628(11) 0.1112(2) 0.7256(2)
N1 N 0.64725(13) 0.1835(3) 0.5271(3)
N2 N 0.91119(12) -0.1662(2) 0.9653(3)
O3 O 0.65429(11) -0.3521(2) 0.8936(2)
C1 C 0.78282(15) -0.2253(3) 0.8888(3)
O4 O 0.66458(11) -0.1444(2) 0.7338(2)
N3 N 0.81348(13) -0.3536(2) 0.9740(3)
C2 C 0.53133(16) 0.4338(3) 0.5037(3)
C3 C 0.69529(16) -0.2396(3) 0.8339(3)
C4 C 0.85052(15) 0.0563(3) 0.8170(3)
C5 C 0.84393(15) -0.1088(3) 0.8828(3)
O5 O 0.93571(14) 0.0710(3) 1.2245(3)
H1 H 0.8996 0.0085 1.2670
H2 H 0.9253 0.1664 1.2593
C6 C 0.57379(17) 0.1625(3) 0.4570(4)
H3 H 0.5614 0.0616 0.4158
C7 C 0.60915(18) 0.4562(3) 0.5706(4)
H4 H 0.6241 0.5569 0.6087
C8 C 0.89022(15) -0.3108(3) 1.0159(3)
H5 H 0.9255 -0.3760 1.0749
C9 C 0.51505(17) 0.2827(3) 0.4423(4)
H6 H 0.4648 0.2623 0.3915
C10 C 0.66442(17) 0.3307(3) 0.5811(4)
H7 H 0.7160 0.3490 0.6277
Zn2B Zn 1.278725(18) 0.01088(3) 1.42808(3)
Zn2C Zn 0.721275(18) -0.48912(3) 1.07192(3)
Zn2B_2 Zn 0.278725(18) 1.01088(3) 0.42808(3)
Zn2A Zn 1.278725(18) 0.48912(3) 0.92808(3)
O1B O 1.08621(11) -0.1348(2) 1.1412(2)
O2B O 1.20372(11) -0.1112(2) 1.2744(2)
N1B N 0.35275(13) 0.8165(3) 0.4729(3)
N1B_2 N 1.35275(13) -0.1835(3) 1.4729(3)
N2B N 1.08881(12) 0.1662(2) 1.0347(3)
O3B O 1.34571(11) 0.3521(2) 1.1064(2)
O3C O 0.65429(11) -0.1479(2) 0.3936(2)
O3A O 1.34571(11) 0.1479(2) 1.6064(2)
C1B C 1.21718(15) 0.2253(3) 1.1112(3)
O4B O 1.33542(11) 0.1444(2) 1.2662(2)
N3B N 1.18652(13) 0.3536(2) 1.0260(3)
N3C N 0.81348(13) -0.1464(2) 0.4740(3)
N3A N 1.18652(13) 0.1464(2) 1.5260(3)
C2B C 0.46867(16) 0.5662(3) 0.4963(3)
C3B C 1.30471(16) 0.2396(3) 1.1661(3)
C4B C 1.14948(15) -0.0563(3) 1.1830(3)
C5B C 1.15607(15) 0.1088(3) 1.1172(3)
O5B O 1.06429(14) -0.0710(3) 0.7755(3)
H1B H 1.1004 -0.0085 0.7330
H2B H 1.0747 -0.1664 0.7407
C6B C 0.42621(17) 0.8375(3) 0.5430(4)
H3B H 0.4386 0.9384 0.5842
C7B C 0.39085(18) 0.5438(3) 0.4294(4)
H4B H 0.3759 0.4431 0.3913
C8B C 1.10978(15) 0.3108(3) 0.9841(3)
H5B H 1.0745 0.3760 0.9251
C9B C 0.48495(17) 0.7173(3) 0.5577(4)
H6B H 0.5352 0.7377 0.6085
C10B C 0.33558(17) 0.6693(3) 0.4189(4)
H7B H 0.2840 0.6510 0.3723
loop_
_geom_bond_atom_site_label_1
_geom_bond_atom_site_label_2
_geom_bond_site_symmetry_1
_geom_bond_site_symmetry_2
Zn1 O1 1_555 1_555
Zn2 O2 1_555 1_555
O1 C4 1_555 1_555
O2 C4 1_555 1_555
N1 Zn2 1_555 1_555
N2 Zn1 1_555 1_555
O3 C3 1_555 1_555
C1 N3 1_555 1_555
O4 Zn2 1_555 1_555
N3 C8 1_555 1_555
C2 C7 1_555 1_555
C3 C1 1_555 1_555
C4 C5 1_555 1_555
C5 N2 1_555 1_555
O5 Zn1 1_555 1_555
H1 O5 1_555 1_555
H2 O5 1_555 1_555
C6 N1 1_555 1_555
H3 C6 1_555 1_555
C7 H4 1_555 1_555
C8 N2 1_555 1_555
H5 C8 1_555 1_555
C9 C2 1_555 1_555
H6 C9 1_555 1_555
C10 N1 1_555 1_555
H7 C10 1_555 1_555
Zn2B O2B 1_555 1_555
Zn2C O3 1_555 1_555
Zn2B_2 N1B 1_555 1_555
Zn2A O3B 1_555 1_555
O1B Zn1 1_555 1_555
O2B C4B 1_555 1_555
N1B C6B 1_555 1_555
N1B_2 Zn2B 1_555 1_555
N2B Zn1 1_555 1_555
O3B C3B 1_555 1_555
O3C Zn2 1_555 1_555
O3A Zn2B 1_555 1_555
C1B N3B 1_555 1_555
O4B Zn2B 1_555 1_555
N3B Zn2A 1_555 1_555
N3C Zn2 1_555 1_555
N3A Zn2B 1_555 1_555
C2B C2 1_555 1_555
C3B C1B 1_555 1_555
C4B O1B 1_555 1_555
C5B N2B 1_555 1_555
O5B Zn1 1_555 1_555
H1B O5B 1_555 1_555
H2B O5B 1_555 1_555
C6B H3B 1_555 1_555
C7B C2B 1_555 1_555
H4B C7B 1_555 1_555
C8B N2B 1_555 1_555
H5B C8B 1_555 1_555
C9B C2B 1_555 1_555
H6B C9B 1_555 1_555
C10B N1B 1_555 1_555
H7B C10B 1_555 1_555
C1 C5 1_555 1_555
O4 C3 1_555 1_555
N3 Zn2C 1_555 1_555
C6 C9 1_555 1_555
C7 C10 1_555 1_555
C1B C5B 1_555 1_555
O4B C3B 1_555 1_555
N3B C8B 1_555 1_555
C4B C5B 1_555 1_555
C6B C9B 1_555 1_555
C7B C10B 1_555 1_555

#END
