
#######################################################################
#
#                 Cambridge Crystallographic Data Centre
#                                CCDC 
#
#######################################################################
#
# If this CIF has been generated from an entry in the Cambridge 
# Structural Database, then it will include bibliographic, chemical, 
# crystal, experimental, refinement or atomic coordinate data resulting 
# from the CCDC's data processing and validation procedures.
#
#######################################################################

data_XECCEO
_symmetry_cell_setting           monoclinic
_symmetry_space_group_name_H-M   'P 21/c'
_symmetry_Int_Tables_number      14
_space_group_name_Hall           '-P 2ybc'
loop_
_symmetry_equiv_pos_site_id
_symmetry_equiv_pos_as_xyz
1 x,y,z
2 -x,1/2+y,1/2-z
3 -x,-y,-z
4 x,1/2-y,1/2+z
_cell_length_a                   16.7519(13)
_cell_length_b                   18.5679(14)
_cell_length_c                   21.6105(16)
_cell_angle_alpha                90
_cell_angle_beta                 107.36(10)
_cell_angle_gamma                90
_cell_volume                     6415.7
loop_
_atom_site_label
_atom_site_type_symbol
_atom_site_fract_x
_atom_site_fract_y
_atom_site_fract_z
Cd1 Cd 0.441140(9) -0.264868(8) 0.190053(7)
Cd2 Cd 0.956103(9) 0.221661(8) 0.166408(7)
O1 O 0.78187(10) 0.02432(8) 0.39242(7)
O2 O 0.93711(10) 0.09496(8) 0.18082(7)
O3 O 0.89253(9) 0.17357(8) 0.23918(7)
O4 O 0.73183(9) -0.10964(8) 0.49772(7)
O5 O 0.57091(10) -0.28799(9) 0.25895(8)
O6 O 0.50787(9) -0.19857(8) 0.29305(7)
O7 O 0.92376(9) -0.02155(8) 0.54398(7)
O8 O 1.02377(10) -0.28727(8) 0.43464(7)
O9 O 1.02156(9) -0.17858(8) 0.39294(7)
O10 O 0.27286(9) -0.50395(8) 0.38399(7)
O11 O 0.43635(11) -0.40731(9) 0.18410(8)
O12 O 0.37421(10) -0.33867(8) 0.23936(8)
O13 O 0.24338(9) -0.64236(8) 0.47575(7)
O14 O 0.09980(10) -0.80528(9) 0.22481(8)
O15 O 0.03530(10) -0.71973(8) 0.26158(7)
O16 O 0.42041(9) -0.53946(8) 0.53393(7)
O17 O 0.58225(11) -0.76933(8) 0.42140(8)
O18 O 0.52108(10) -0.67140(9) 0.37129(7)
N1 N 0.76499(10) 0.03596(9) 0.51213(8)
N2 N 0.25921(11) -0.49899(9) 0.50557(8)
C1 C 0.72529(13) 0.09034(11) 0.46036(10)
H1 H 0.7225 0.1368 0.4801
H2 H 0.6687 0.0754 0.4373
C2 C 0.77626(13) 0.09660(11) 0.41349(10)
H3 H 0.7485 0.1274 0.3772
H4 H 0.8314 0.1160 0.4349
C3 C 0.82307(12) 0.01257(11) 0.34681(9)
C4 C 0.83921(14) -0.05880(12) 0.33624(10)
H5 H 0.8236 -0.0951 0.3599
C5 C 0.87866(14) -0.07587(12) 0.29019(11)
H6 H 0.8906 -0.1237 0.2837
C6 C 0.90053(13) -0.02185(12) 0.25370(10)
H7 H 0.9260 -0.0334 0.2222
C7 C 0.88399(12) 0.04945(11) 0.26460(10)
C8 C 0.84611(12) 0.06712(11) 0.31205(9)
H8 H 0.8365 0.1150 0.3202
C9 C 0.90599(12) 0.10895(11) 0.22602(10)
C10 C 0.70079(13) -0.00021(11) 0.53807(10)
H9 H 0.7271 -0.0176 0.5818
H10 H 0.6575 0.0339 0.5394
C11 C 0.66314(13) -0.06239(12) 0.49403(11)
H11 H 0.6207 -0.0865 0.5088
H12 H 0.6380 -0.0459 0.4499
C12 C 0.72238(13) -0.16218(11) 0.45106(10)
C13 C 0.79352(13) -0.20341(11) 0.45629(11)
H13 H 0.8412 -0.1970 0.4913
C14 C 0.79288(14) -0.25397(12) 0.40906(11)
H14 H 0.8409 -0.2804 0.4116
C15 C 0.72058(14) -0.26534(12) 0.35770(11)
H15 H 0.7206 -0.2987 0.3256
C16 C 0.64853(13) -0.22662(11) 0.35458(10)
C17 C 0.64896(13) -0.17420(11) 0.40134(10)
H16 H 0.6009 -0.1479 0.3991
C18 C 0.57023(13) -0.23829(11) 0.29933(10)
C19 C 0.83695(13) 0.06745(11) 0.56472(10)
H17 H 0.8162 0.0907 0.5971
H18 H 0.8653 0.1034 0.5464
C20 C 0.89718(13) 0.00831(11) 0.59580(10)
H19 H 0.9444 0.0275 0.6295
H20 H 0.8697 -0.0280 0.6146
C21 C 0.95762(12) -0.08961(11) 0.55157(10)
C22 C 0.97133(12) -0.13085(11) 0.60731(10)
H21 H 0.9602 -0.1120 0.6437
C23 C 1.00185(13) -0.20053(12) 0.60828(10)
H22 H 1.0118 -0.2281 0.6458
C24 C 1.01763(13) -0.22949(11) 0.55389(10)
H23 H 1.0367 -0.2766 0.5546
C25 C 1.00480(12) -0.18771(11) 0.49831(9)
C26 C 0.97617(12) -0.11708(11) 0.49740(10)
H24 H 0.9695 -0.0885 0.4609
C27 C 1.01764(12) -0.21930(11) 0.43824(10)
C28 C 0.21613(13) -0.44374(11) 0.45566(10)
H25 H 0.2116 -0.3985 0.4767
H26 H 0.1602 -0.4600 0.4324
C29 C 0.26689(14) -0.43340(11) 0.40888(10)
H27 H 0.2389 -0.4006 0.3742
H28 H 0.3219 -0.4144 0.4311
C30 C 0.31257(12) -0.51066(11) 0.33702(10)
C31 C 0.32732(14) -0.58062(12) 0.32019(11)
H29 H 0.3121 -0.6196 0.3413
C32 C 0.36476(15) -0.59195(12) 0.27195(11)
H30 H 0.3745 -0.6387 0.2607
C33 C 0.38799(13) -0.53413(12) 0.24013(10)
H31 H 0.4127 -0.5421 0.2075
C34 C 0.37388(12) -0.46435(11) 0.25755(10)
C35 C 0.33615(13) -0.45250(11) 0.30628(10)
H32 H 0.3269 -0.4058 0.3180
C36 C 0.39700(13) -0.40061(12) 0.22413(10)
C37 C 0.19792(14) -0.54611(12) 0.52539(11)
H33 H 0.1506 -0.5178 0.5284
H34 H 0.2245 -0.5676 0.5674
C38 C 0.16901(14) -0.60417(12) 0.47463(11)
H35 H 0.1290 -0.6359 0.4853
H36 H 0.1432 -0.5832 0.4322
C39 C 0.23969(13) -0.69104(11) 0.42691(10)
C40 C 0.31209(14) -0.73098(11) 0.43405(11)
H37 H 0.3577 -0.7255 0.4709
C41 C 0.31587(15) -0.77906(12) 0.38580(12)
H38 H 0.3645 -0.8053 0.3900
C42 C 0.24725(15) -0.78814(13) 0.33115(11)
H39 H 0.2501 -0.8202 0.2988
C43 C 0.17426(14) -0.74915(12) 0.32496(10)
C44 C 0.17024(13) -0.70027(11) 0.37314(10)
H40 H 0.1216 -0.6742 0.3692
C45 C 0.09882(14) -0.75866(12) 0.26696(11)
C46 C 0.32428(13) -0.46566(12) 0.56225(10)
H41 H 0.2992 -0.4524 0.5957
H42 H 0.3467 -0.4225 0.5484
C47 C 0.39349(14) -0.51952(13) 0.58862(10)
H43 H 0.4391 -0.4980 0.6223
H44 H 0.3730 -0.5612 0.6063
C48 C 0.47090(12) -0.59912(11) 0.53978(10)
C49 C 0.50386(13) -0.63706(11) 0.59734(10)
H45 H 0.4922 -0.6228 0.6350
C50 C 0.55434(14) -0.69646(12) 0.59783(10)
H46 H 0.5773 -0.7215 0.6363
C51 C 0.57108(13) -0.71907(11) 0.54197(10)
H47 H 0.6052 -0.7588 0.5429
C52 C 0.53610(12) -0.68135(11) 0.48389(10)
C53 C 0.48714(12) -0.62084(11) 0.48316(10)
H48 H 0.4653 -0.5950 0.4450
C54 C 0.54701(13) -0.70819(11) 0.42134(10)
O19 O 0.32389(11) -0.19090(10) 0.17027(9)
O33 O 0.81390(10) 0.23534(9) 0.10265(8)
H59 H 0.8021 0.2371 0.0627
H60 H 0.7802 0.2654 0.1096
H63 H 0.3400(19) -0.1500(18) 0.1851(15)
H64 H 0.292(2) -0.2036(18) 0.1871(16)
Cd1A Cd 0.558860(9) -0.764868(8) 0.309947(7)
Cd2A Cd 1.043897(9) -0.278339(8) 0.333592(7)
Cd2_2 Cd -0.043897(9) -0.778339(8) 0.166408(7)
O8A O 0.97623(10) 0.21273(8) 0.06536(7)
O9A O 0.97844(9) 0.32142(8) 0.10706(7)
O14_2 O 1.09980(10) 0.19472(9) 0.22481(8)
O15_2 O 1.03530(10) 0.28027(8) 0.26158(7)
O17A O 0.41775(11) -0.26933(8) 0.07860(8)
O18A O 0.47892(10) -0.17140(9) 0.12871(7)
O20 O 0.75466(10) 0.24118(9) 0.25056(9)
H49 H 0.7171 0.2064 0.2500
H50 H 0.7993 0.2211 0.2507
O21 O 0.72202(11) 0.33884(10) 0.15126(9)
H65 H 0.672(2) 0.3468(17) 0.1380(15)
H66 H 0.7298(19) 0.3089(17) 0.1832(16)
O22 O 0.44382(10) -0.11962(10) 0.38394(8)
H67 H 0.4419(19) -0.0763(18) 0.3764(15)
H68 H 0.4608(19) -0.1412(17) 0.3574(15)
O23 O 0.57198(19) -0.47425(12) 0.12422(11)
H51 H 0.5299 -0.4488 0.0926
H52 H 0.5915 -0.4553 0.1663
O24 O 0.64141(13) -0.42686(11) 0.26586(16)
H53 H 0.6978 -0.4218 0.2785
H54 H 0.6159 -0.3856 0.2646
O25 O 0.39887(12) -0.06869(10) 0.22556(10)
H55 H 0.3964 -0.0234 0.2325
H56 H 0.4518 -0.0795 0.2390
O26 O 0.82555(13) 0.04347(11) 0.71239(10)
H57 H 0.7757 0.0737 0.6968
H58 H 0.8085 0.0046 0.7366
O27 O 0.81762(12) -0.42440(11) 0.29959(10)
H69 H 0.858(2) -0.4429(17) 0.3251(16)
H70 H 0.8415(19) -0.3832(18) 0.2944(15)
O28 O 1.02948(12) 0.00852(10) 0.12831(9)
H71 H 1.0046(19) 0.0355(17) 0.1497(15)
H72 H 1.0273(19) -0.0328(18) 0.1381(15)
O29 O -0.06439(15) -0.62459(10) 0.31035(10)
H73 H -0.0974(19) -0.6035(17) 0.2732(16)
H74 H -0.017(2) -0.6307(18) 0.3164(16)
O30 O 0.15177(12) -0.11627(10) 0.08674(10)
H75 H 0.1392(19) -0.1223(17) 0.1213(16)
H76 H 0.107(2) -0.1007(17) 0.0605(16)
O31 O 1.00819(12) -0.41750(10) 0.48936(9)
H77 H 0.9975(19) -0.4472(18) 0.4595(16)
H78 H 1.0076(19) -0.3778(18) 0.4724(15)
O32 O 0.77520(12) 0.22992(10) -0.03186(9)
H79 H 0.800(2) 0.2020(18) -0.0482(15)
H80 H 0.725(2) 0.2284(16) -0.0571(16)
O34 O 0.4710 -0.3891 0.0222
H61 H 0.4662 -0.3816 -0.0174
H62 H 0.4533 -0.3509 0.0331
loop_
_geom_bond_atom_site_label_1
_geom_bond_atom_site_label_2
_geom_bond_site_symmetry_1
_geom_bond_site_symmetry_2
Cd1 O5 1_555 1_555
Cd2 O2 1_555 1_555
O1 C2 1_555 1_555
O2 C9 1_555 1_555
O3 Cd2 1_555 1_555
O4 C11 1_555 1_555
O5 C18 1_555 1_555
O6 C18 1_555 1_555
O7 C20 1_555 1_555
O8 C27 1_555 1_555
O9 C27 1_555 1_555
O10 C29 1_555 1_555
O11 C36 1_555 1_555
O12 Cd1 1_555 1_555
O13 C38 1_555 1_555
O14 C45 1_555 1_555
O15 C45 1_555 1_555
O16 C47 1_555 1_555
O17 C54 1_555 1_555
O18 C54 1_555 1_555
N1 C1 1_555 1_555
N2 C28 1_555 1_555
C1 H1 1_555 1_555
H2 C1 1_555 1_555
C2 C1 1_555 1_555
H3 C2 1_555 1_555
H4 C2 1_555 1_555
C3 O1 1_555 1_555
C4 C3 1_555 1_555
H5 C4 1_555 1_555
C5 C4 1_555 1_555
H6 C5 1_555 1_555
C6 C5 1_555 1_555
H7 C6 1_555 1_555
C7 C6 1_555 1_555
C8 C3 1_555 1_555
H8 C8 1_555 1_555
C9 O3 1_555 1_555
C10 N1 1_555 1_555
H9 C10 1_555 1_555
H10 C10 1_555 1_555
C11 C10 1_555 1_555
H11 C11 1_555 1_555
H12 C11 1_555 1_555
C12 O4 1_555 1_555
C13 C12 1_555 1_555
H13 C13 1_555 1_555
C14 C13 1_555 1_555
H14 C14 1_555 1_555
C15 C14 1_555 1_555
H15 C15 1_555 1_555
C16 C15 1_555 1_555
C17 C12 1_555 1_555
H16 C17 1_555 1_555
C18 C16 1_555 1_555
C19 N1 1_555 1_555
H17 C19 1_555 1_555
H18 C19 1_555 1_555
C20 C19 1_555 1_555
H19 C20 1_555 1_555
H20 C20 1_555 1_555
C21 O7 1_555 1_555
C22 C21 1_555 1_555
H21 C22 1_555 1_555
C23 C22 1_555 1_555
H22 C23 1_555 1_555
C24 C23 1_555 1_555
H23 C24 1_555 1_555
C25 C24 1_555 1_555
C26 C21 1_555 1_555
H24 C26 1_555 1_555
C27 C25 1_555 1_555
C28 H25 1_555 1_555
H26 C28 1_555 1_555
C29 C28 1_555 1_555
H27 C29 1_555 1_555
H28 C29 1_555 1_555
C30 O10 1_555 1_555
C31 C30 1_555 1_555
H29 C31 1_555 1_555
C32 C31 1_555 1_555
H30 C32 1_555 1_555
C33 C32 1_555 1_555
H31 C33 1_555 1_555
C34 C33 1_555 1_555
C35 C30 1_555 1_555
H32 C35 1_555 1_555
C36 O12 1_555 1_555
C37 N2 1_555 1_555
H33 C37 1_555 1_555
H34 C37 1_555 1_555
C38 C37 1_555 1_555
H35 C38 1_555 1_555
H36 C38 1_555 1_555
C39 O13 1_555 1_555
C40 C39 1_555 1_555
H37 C40 1_555 1_555
C41 C40 1_555 1_555
H38 C41 1_555 1_555
C42 C41 1_555 1_555
H39 C42 1_555 1_555
C43 C42 1_555 1_555
C44 C39 1_555 1_555
H40 C44 1_555 1_555
C45 C43 1_555 1_555
C46 N2 1_555 1_555
H41 C46 1_555 1_555
H42 C46 1_555 1_555
C47 C46 1_555 1_555
H43 C47 1_555 1_555
H44 C47 1_555 1_555
C48 O16 1_555 1_555
C49 C48 1_555 1_555
H45 C49 1_555 1_555
C50 C49 1_555 1_555
H46 C50 1_555 1_555
C51 C50 1_555 1_555
H47 C51 1_555 1_555
C52 C51 1_555 1_555
C53 C48 1_555 1_555
H48 C53 1_555 1_555
C54 C52 1_555 1_555
O19 Cd1 1_555 1_555
O20 H49 1_555 1_555
H50 O20 1_555 1_555
O21 H65 1_555 1_555
O22 H67 1_555 1_555
O23 H51 1_555 1_555
H52 O23 1_555 1_555
O24 H53 1_555 1_555
H54 O24 1_555 1_555
O25 H55 1_555 1_555
H56 O25 1_555 1_555
O26 H57 1_555 1_555
H58 O26 1_555 1_555
O27 H69 1_555 1_555
O28 H71 1_555 1_555
O29 H73 1_555 1_555
O30 H75 1_555 1_555
O31 H77 1_555 1_555
O32 H79 1_555 1_555
O33 Cd2 1_555 1_555
H59 O33 1_555 1_555
H60 O33 1_555 1_555
O34 H61 1_555 1_555
H62 O34 1_555 1_555
H63 O19 1_555 1_555
H64 O19 1_555 1_555
H66 O21 1_555 1_555
H68 O22 1_555 1_555
H70 O27 1_555 1_555
H72 O28 1_555 1_555
H74 O29 1_555 1_555
H76 O30 1_555 1_555
H78 O31 1_555 1_555
H80 O32 1_555 1_555
Cd1A O17 1_555 1_555
Cd2A O8 1_555 1_555
Cd2_2 O14 1_555 1_555
O8A Cd2 1_555 1_555
O9A Cd2 1_555 1_555
O14_2 Cd2 1_555 1_555
O15_2 Cd2 1_555 1_555
O17A Cd1 1_555 1_555
O18A Cd1 1_555 1_555
O9 Cd2A 1_555 1_555
O15 Cd2_2 1_555 1_555
O18 Cd1A 1_555 1_555
C7 C8 1_555 1_555
C7 C9 1_555 1_555
C16 C17 1_555 1_555
C25 C26 1_555 1_555
C34 C35 1_555 1_555
C34 C36 1_555 1_555
C43 C44 1_555 1_555
C52 C53 1_555 1_555

#END
