
#######################################################################
#
#                 Cambridge Crystallographic Data Centre
#                                CCDC 
#
#######################################################################
#
# If this CIF has been generated from an entry in the Cambridge 
# Structural Database, then it will include bibliographic, chemical, 
# crystal, experimental, refinement or atomic coordinate data resulting 
# from the CCDC's data processing and validation procedures.
#
#######################################################################

data_XECCAK
_symmetry_cell_setting           triclinic
_symmetry_space_group_name_H-M   'P -1'
_symmetry_Int_Tables_number      2
_space_group_name_Hall           '-P 1'
loop_
_symmetry_equiv_pos_site_id
_symmetry_equiv_pos_as_xyz
1 x,y,z
2 -x,-y,-z
_cell_length_a                   10.2233(7)
_cell_length_b                   11.4655(8)
_cell_length_c                   12.3312(8)
_cell_angle_alpha                93.430(10)
_cell_angle_beta                 96.670(10)
_cell_angle_gamma                95.080(10)
_cell_volume                     1426.39
loop_
_atom_site_label
_atom_site_type_symbol
_atom_site_fract_x
_atom_site_fract_y
_atom_site_fract_z
Cd1 Cd -0.11266(4) 0.49710(4) 0.33830(4)
N1 N -0.3471(5) -0.2604(4) -0.2393(4)
O1 O -0.3408(5) -0.0878(4) -0.0782(4)
O2 O -0.5000(4) -0.1046(4) -0.3373(4)
O3 O -0.1539(4) -0.1001(4) -0.2864(4)
O4 O -0.0528(4) 0.3744(4) 0.1989(4)
O5 O -0.2659(5) 0.4025(4) 0.1820(4)
O6 O -0.8353(4) 0.3303(4) -0.2688(4)
O7 O -0.7310(5) 0.3861(4) -0.4059(4)
O8 O -0.0929(4) 0.4338(4) -0.4087(4)
O9 O -0.1391(5) 0.3380(4) -0.5742(4)
C1 C -0.3585(6) -0.2888(5) -0.1222(5)
H1 H -0.4508 -0.2960 -0.1098
H2 H -0.3228 -0.3628 -0.1084
C2 C -0.2824(7) -0.1914(5) -0.0461(5)
H3 H -0.2922 -0.2045 0.0297
H4 H -0.1891 -0.1855 -0.0551
C3 C -0.2866(6) 0.0181(5) -0.0259(5)
C4 C -0.1695(6) 0.0326(5) 0.0429(5)
H5 H -0.1189 -0.0302 0.0541
C5 C -0.1277(6) 0.1427(5) 0.0954(5)
H6 H -0.0469 0.1540 0.1398
C6 C -0.2053(6) 0.2364(5) 0.0824(5)
C7 C -0.3223(6) 0.2205(5) 0.0105(5)
H7 H -0.3737 0.2828 0.0003
C8 C -0.3625(6) 0.1128(6) -0.0457(5)
H8 H -0.4386 0.1031 -0.0958
C9 C -0.1726(6) 0.3460(5) 0.1568(5)
C10 C -0.4703(6) -0.3014(5) -0.3147(5)
H9 H -0.5078 -0.3766 -0.2948
H10 H -0.4501 -0.3103 -0.3896
C11 C -0.5672(6) -0.2107(5) -0.3049(6)
H11 H -0.6487 -0.2333 -0.3529
H12 H -0.5875 -0.2005 -0.2302
C12 C -0.5627(6) -0.0033(5) -0.3297(5)
C13 C -0.6754(6) 0.0058(5) -0.2778(5)
H13 H -0.7117 -0.0576 -0.2439
C14 C -0.7329(6) 0.1107(5) -0.2776(5)
H14 H -0.8074 0.1179 -0.2420
C15 C -0.6818(6) 0.2049(5) -0.3292(5)
C16 C -0.5670(6) 0.1962(5) -0.3794(5)
H15 H -0.5307 0.2600 -0.4127
C17 C -0.5071(6) 0.0919(5) -0.3794(5)
H16 H -0.4305 0.0857 -0.4124
C18 C -0.7520(6) 0.3139(5) -0.3351(5)
C19 C -0.2229(6) -0.2979(5) -0.2799(5)
H17 H -0.2410 -0.3745 -0.3193
H18 H -0.1556 -0.3031 -0.2186
C20 C -0.1748(6) -0.2084(5) -0.3547(5)
H19 H -0.0931 -0.2283 -0.3808
H20 H -0.2406 -0.2030 -0.4170
C21 C -0.1451(6) 0.0041(5) -0.3371(5)
C22 C -0.1367(6) 0.1065(5) -0.2662(5)
H21 H -0.1364 0.1013 -0.1912
C23 C -0.1287(6) 0.2148(5) -0.3103(5)
H22 H -0.1238 0.2827 -0.2642
C24 C -0.1280(6) 0.2243(5) -0.4214(5)
C25 C -0.1378(6) 0.1213(5) -0.4907(5)
H23 H -0.1390 0.1265 -0.5658
C26 C -0.1458(6) 0.0111(5) -0.4480(5)
H24 H -0.1515 -0.0568 -0.4941
C27 C -0.1185(6) 0.3405(5) -0.4713(5)
Cd1A Cd -0.88734(4) 0.50290(4) -0.33830(4)
Cd1A_2 Cd 0.11266(4) 0.50290(4) -0.33830(4)
Cd1_2 Cd -0.11266(4) 0.49710(4) -0.66170(4)
O6A O -0.1647(4) 0.6697(4) 0.2688(4)
O7A O -0.2690(5) 0.6139(4) 0.4059(4)
O8A O 0.0929(4) 0.5662(4) 0.4087(4)
O9_2 O -0.1391(5) 0.3380(4) 0.4258(4)
O10 O -0.9139(6) 0.3425(5) -0.0602(4)
H25 H -0.8947 0.4012 -0.0777
H26 H -0.9050 0.3109 -0.1242
O11 O 0.1320(5) 0.5230(4) 0.1060(4)
H27 H 0.1309 0.4410 0.0507
H28 H 0.0730 0.5602 0.0970
O12 O -0.3784(5) -0.5675(5) -0.2354(5)
H29 H -0.2967 -0.5744 -0.1904
H30 H -0.4543 -0.5849 -0.1949
O13 O -0.6049(5) 0.5567(4) -0.5405(4)
H31 H -0.5931 0.5695 -0.6159
H32 H -0.6274 0.5959 -0.5139
O14 O -0.4323(5) 0.5719(5) 0.0884(4)
H33 H -0.4606 0.5445 0.0411
H34 H -0.3591 0.5299 0.1156
loop_
_geom_bond_atom_site_label_1
_geom_bond_atom_site_label_2
_geom_bond_site_symmetry_1
_geom_bond_site_symmetry_2
Cd1 O4 1_555 1_555
N1 C1 1_555 1_555
O1 C2 1_555 1_555
O2 C11 1_555 1_555
O3 C20 1_555 1_555
O4 C9 1_555 1_555
O5 C9 1_555 1_555
O6 C18 1_555 1_555
O7 C18 1_555 1_555
O8 C27 1_555 1_555
O9 C27 1_555 1_555
C1 H1 1_555 1_555
H2 C1 1_555 1_555
C2 C1 1_555 1_555
H3 C2 1_555 1_555
H4 C2 1_555 1_555
C3 O1 1_555 1_555
C4 C3 1_555 1_555
H5 C4 1_555 1_555
C5 C4 1_555 1_555
H6 C5 1_555 1_555
C6 C5 1_555 1_555
C7 C6 1_555 1_555
H7 C7 1_555 1_555
C8 C3 1_555 1_555
H8 C8 1_555 1_555
C9 C6 1_555 1_555
C10 N1 1_555 1_555
H9 C10 1_555 1_555
H10 C10 1_555 1_555
C11 C10 1_555 1_555
H11 C11 1_555 1_555
H12 C11 1_555 1_555
C12 O2 1_555 1_555
C13 C12 1_555 1_555
H13 C13 1_555 1_555
C14 C13 1_555 1_555
H14 C14 1_555 1_555
C15 C14 1_555 1_555
C16 C15 1_555 1_555
H15 C16 1_555 1_555
C17 C12 1_555 1_555
H16 C17 1_555 1_555
C18 C15 1_555 1_555
C19 N1 1_555 1_555
H17 C19 1_555 1_555
H18 C19 1_555 1_555
C20 C19 1_555 1_555
H19 C20 1_555 1_555
H20 C20 1_555 1_555
C21 O3 1_555 1_555
C22 C21 1_555 1_555
H21 C22 1_555 1_555
C23 C22 1_555 1_555
H22 C23 1_555 1_555
C24 C23 1_555 1_555
C25 C24 1_555 1_555
H23 C25 1_555 1_555
C26 C21 1_555 1_555
H24 C26 1_555 1_555
C27 C24 1_555 1_555
O10 H25 1_555 1_555
H26 O10 1_555 1_555
O11 H27 1_555 1_555
H28 O11 1_555 1_555
O12 H29 1_555 1_555
H30 O12 1_555 1_555
O13 H31 1_555 1_555
H32 O13 1_555 1_555
O14 H33 1_555 1_555
H34 O14 1_555 1_555
Cd1A O6 1_555 1_555
Cd1A_2 O8 1_555 1_555
Cd1_2 O9 1_555 1_555
O6A Cd1 1_555 1_555
O7A Cd1 1_555 1_555
O8A Cd1 1_555 1_555
O9_2 Cd1 1_555 1_555
O7 Cd1A 1_555 1_555
C7 C8 1_555 1_555
C16 C17 1_555 1_555
C25 C26 1_555 1_555

#END
