
#######################################################################
#
#                 Cambridge Crystallographic Data Centre
#                                CCDC 
#
#######################################################################
#
# If this CIF has been generated from an entry in the Cambridge 
# Structural Database, then it will include bibliographic, chemical, 
# crystal, experimental, refinement or atomic coordinate data resulting 
# from the CCDC's data processing and validation procedures.
#
#######################################################################

data_XECDOY
_symmetry_cell_setting           monoclinic
_symmetry_space_group_name_H-M   'P 21'
_symmetry_Int_Tables_number      4
_space_group_name_Hall           'P 2yb'
loop_
_symmetry_equiv_pos_site_id
_symmetry_equiv_pos_as_xyz
1 x,y,z
2 -x,1/2+y,-z
_cell_length_a                   5.196(1)
_cell_length_b                   12.740(3)
_cell_length_c                   9.716(2)
_cell_angle_alpha                90
_cell_angle_beta                 94.820(3)
_cell_angle_gamma                90
_cell_volume                     640.896
loop_
_atom_site_label
_atom_site_type_symbol
_atom_site_fract_x
_atom_site_fract_y
_atom_site_fract_z
O1 O 0.226(2) -0.2329(8) 0.429(1)
O2 O 0.198(2) 0.1111(9) 0.190(2)
O3 O -0.132(2) -0.1851(8) 0.301(1)
O4 O 0.577(2) 0.0577(8) 0.299(1)
O5 O 0.225(2) -0.5814(9) 0.410(1)
O6 O 0.250(3) 0.4355(9) 0.013(1)
N1 N 0.046(3) -0.4259(9) 0.471(1)
N2 N 0.382(3) 0.3110(9) 0.171(2)
C1 C 0.065(3) -0.511(1) 0.388(2)
C2 C 0.383(3) 0.360(1) 0.050(2)
C3 C -0.142(4) -0.500(2) 0.271(3)
C4 C 0.589(4) 0.308(1) -0.032(2)
C5 C 0.668(3) 0.210(1) 0.046(2)
C6 C -0.281(4) -0.401(1) 0.290(3)
C7 C -0.137(3) -0.347(1) 0.414(2)
C8 C 0.565(3) 0.223(1) 0.189(2)
C9 C 0.435(3) 0.123(1) 0.227(2)
C10 C 0.003(3) -0.245(1) 0.378(2)
H1 H -0.2830 -0.3593 0.2108
H2 H -0.4554 -0.4164 0.3101
H3 H -0.2554 -0.5581 0.2724
H4 H -0.0624 -0.4982 0.1875
H5 H 0.8472 0.2026 0.0546
H6 H 0.5889 0.1499 0.0010
H7 H 0.5126 0.2929 -0.1231
H8 H 0.7285 0.3547 -0.0380
H9 H -0.2540 -0.3308 0.4823
H10 H 0.7018 0.2397 0.2555
H11 H 0.1438 -0.4187 0.5587
H12 H 0.2702 0.3315 0.2398
Ag1 Ag -0.0117(2) -0.0367 0.2130(1)
Ag2 Ag 0.4460(2) -0.0942(1) 0.3880(1)
Ag1A Ag 0.0117(2) 0.4633 -0.2130(1)
O6A O -0.250(3) -0.0645(9) -0.013(1)
loop_
_geom_bond_atom_site_label_1
_geom_bond_atom_site_label_2
_geom_bond_site_symmetry_1
_geom_bond_site_symmetry_2
O1 C10 1_555 1_555
O2 C9 1_555 1_555
O3 C10 1_555 1_555
O4 C9 1_555 1_555
O5 C1 1_555 1_555
O6 C2 1_555 1_555
N1 C1 1_555 1_555
N2 C2 1_555 1_555
C1 C3 1_555 1_555
C2 C4 1_555 1_555
C3 C6 1_555 1_555
C4 C5 1_555 1_555
C5 C8 1_555 1_555
C6 C7 1_555 1_555
C7 N1 1_555 1_555
C8 N2 1_555 1_555
C9 C8 1_555 1_555
C10 C7 1_555 1_555
H1 C6 1_555 1_555
H2 C6 1_555 1_555
H3 C3 1_555 1_555
H4 C3 1_555 1_555
H5 C5 1_555 1_555
H6 C5 1_555 1_555
H7 C4 1_555 1_555
H8 C4 1_555 1_555
H9 C7 1_555 1_555
H10 C8 1_555 1_555
H11 N1 1_555 1_555
H12 N2 1_555 1_555
Ag1 O2 1_555 1_555
Ag2 O1 1_555 1_555
Ag1A O6 1_555 1_555
O6A Ag1 1_555 1_555
O3 Ag1 1_555 1_555
O4 Ag2 1_555 1_555
Ag1 Ag2 1_555 1_555

#END
