
#######################################################################
#
#                 Cambridge Crystallographic Data Centre
#                                CCDC 
#
#######################################################################
#
# If this CIF has been generated from an entry in the Cambridge 
# Structural Database, then it will include bibliographic, chemical, 
# crystal, experimental, refinement or atomic coordinate data resulting 
# from the CCDC's data processing and validation procedures.
#
#######################################################################

data_XECDUE
_symmetry_cell_setting           monoclinic
_symmetry_space_group_name_H-M   'P 21/n'
_symmetry_Int_Tables_number      14
_space_group_name_Hall           '-P 2yn'
loop_
_symmetry_equiv_pos_site_id
_symmetry_equiv_pos_as_xyz
1 x,y,z
2 1/2+x,1/2-y,1/2+z
3 -x,-y,-z
4 1/2-x,1/2+y,1/2-z
_cell_length_a                   7.459(1)
_cell_length_b                   5.312(5)
_cell_length_c                   15.961(1)
_cell_angle_alpha                90
_cell_angle_beta                 92.11(1)
_cell_angle_gamma                90
_cell_volume                     631.981
loop_
_atom_site_label
_atom_site_type_symbol
_atom_site_fract_x
_atom_site_fract_y
_atom_site_fract_z
Ag1 Ag 0.01671(7) -0.2865(1) -0.05453(3)
O1 O -0.1826(5) -0.1465(8) 0.0317(2)
O2 O 0.2166(5) -0.5218(8) -0.1156(3)
O3 O -0.5686(6) -0.4217(9) 0.3111(3)
N1 N -0.4142(6) -0.173(1) 0.2223(3)
C1 C -0.5409(8) -0.336(1) 0.2405(4)
C2 C -0.6427(8) -0.405(1) 0.1613(4)
C3 C -0.5818(8) -0.214(2) 0.0976(4)
C4 C -0.4015(8) -0.116(1) 0.1338(4)
C5 C -0.2512(7) -0.259(1) 0.0921(3)
H1 H -0.5669 -0.2910 0.0447
H2 H -0.6661 -0.0804 0.0919
H3 H 0.3905 -1.0604 -0.1250
H4 H -0.6132 -0.5714 0.1443
H5 H -0.7681 -0.3936 0.1683
H6 H 0.3357 -0.9016 -0.2638
Ag1A Ag -0.48329(7) -0.2135(1) 0.44547(3)
Ag1B Ag -0.01671(7) -0.7135(1) 0.05453(3)
O1B O 0.1826(5) -0.8535(8) -0.0317(2)
C5B C 0.2512(7) -0.741(1) -0.0921(3)
O3A O -0.0686(6) -0.0783(9) -0.1889(3)
C4B C 0.4015(8) -0.884(1) -0.1338(4)
N1B N 0.4142(6) -0.827(1) -0.2223(3)
C1B C 0.5409(8) -0.664(1) -0.2405(4)
O3B O 0.5686(6) -0.5783(9) -0.3111(3)
Ag1C Ag 0.48329(7) -0.7865(1) -0.44547(3)
C2B C 0.6427(8) -0.595(1) -0.1613(4)
C3B C 0.5818(8) -0.786(2) -0.0976(4)
H1B H 0.5669 -0.7090 -0.0447
H2B H 0.6661 -0.9196 -0.0919
H4B H 0.6132 -0.4286 -0.1443
H5B H 0.7681 -0.6064 -0.1683
O2B O -0.2166(5) -0.4782(8) 0.1156(3)
O3C O 0.0686(6) -0.9217(9) 0.1889(3)
H3B H -0.3905 0.0604 0.1250
H6B H -0.3357 -0.0984 0.2638
loop_
_geom_bond_atom_site_label_1
_geom_bond_atom_site_label_2
_geom_bond_site_symmetry_1
_geom_bond_site_symmetry_2
Ag1 O1 1_555 1_555
O1 C5 1_555 1_555
O2 Ag1 1_555 1_555
O3 C1 1_555 1_555
N1 C1 1_555 1_555
C1 C2 1_555 1_555
C2 C3 1_555 1_555
C3 C4 1_555 1_555
C4 N1 1_555 1_555
C5 C4 1_555 1_555
H1 C3 1_555 1_555
H2 C3 1_555 1_555
H3 C4B 1_555 1_555
H4 C2 1_555 1_555
H5 C2 1_555 1_555
H6 N1B 1_555 1_555
Ag1A O3 1_555 1_555
Ag1B Ag1 1_555 1_555
O1B Ag1B 1_555 1_555
C5B O2 1_555 1_555
O3A Ag1 1_555 1_555
C4B C5B 1_555 1_555
N1B C4B 1_555 1_555
C1B N1B 1_555 1_555
O3B C1B 1_555 1_555
Ag1C O3B 1_555 1_555
C2B C1B 1_555 1_555
C3B C4B 1_555 1_555
H1B C3B 1_555 1_555
H2B C3B 1_555 1_555
H4B C2B 1_555 1_555
H5B C2B 1_555 1_555
O2B C5 1_555 1_555
O3C Ag1B 1_555 1_555
H3B C4 1_555 1_555
H6B N1 1_555 1_555
Ag1B O2B 1_555 1_555
O1B C5B 1_555 1_555
C2B C3B 1_555 1_555

#END
