
#######################################################################
#
#                 Cambridge Crystallographic Data Centre
#                                CCDC 
#
#######################################################################
#
# If this CIF has been generated from an entry in the Cambridge 
# Structural Database, then it will include bibliographic, chemical, 
# crystal, experimental, refinement or atomic coordinate data resulting 
# from the CCDC's data processing and validation procedures.
#
#######################################################################

data_XECFUI
_symmetry_cell_setting           triclinic
_symmetry_space_group_name_H-M   'P -1'
_symmetry_Int_Tables_number      2
_space_group_name_Hall           '-P 1'
loop_
_symmetry_equiv_pos_site_id
_symmetry_equiv_pos_as_xyz
1 x,y,z
2 -x,-y,-z
_cell_length_a                   7.9592(8)
_cell_length_b                   7.9598(8)
_cell_length_c                   13.3712(13)
_cell_angle_alpha                105.062(2)
_cell_angle_beta                 101.287(2)
_cell_angle_gamma                99.131(2)
_cell_volume                     782.303
loop_
_atom_site_label
_atom_site_type_symbol
_atom_site_fract_x
_atom_site_fract_y
_atom_site_fract_z
Zn1 Zn 0.23205(5) 0.62227(5) 0.17319(3)
N1 N 0.4701(4) 0.5448(4) 0.2254(2)
N2 N 0.2790(4) 0.7239(4) 0.3405(2)
O1 O 0.3084(3) 0.7402(4) 0.0701(2)
O2 O 0.5273(5) 0.9248(5) 0.1989(2)
O3 O 0.1288(3) 0.3764(3) 0.06832(19)
O4 O 0.0871(4) 0.2719(3) 0.2021(2)
O5 O -0.0117(4) 0.6855(4) 0.1476(2)
C1 C 0.4810(5) 0.9623(5) 0.0304(3)
C2 C 0.4356(5) 0.8714(5) 0.1069(3)
C3 C 0.1800(6) 0.8060(5) 0.3967(3)
H1 H 0.0747 0.8234 0.3609
C4 C 0.2293(7) 0.8677(6) 0.5091(3)
H2 H 0.1567 0.9244 0.5464
C5 C 0.3816(7) 0.8450(6) 0.5629(3)
H3 H 0.4151 0.8868 0.6371
C6 C 0.4893(6) 0.7575(5) 0.5058(3)
C7 C 0.6539(7) 0.7268(7) 0.5552(4)
H4 H 0.6943 0.7677 0.6293
C8 C 0.7501(6) 0.6408(7) 0.4972(4)
H5 H 0.8569 0.6246 0.5319
C9 C 0.6940(5) 0.5727(6) 0.3829(4)
C10 C 0.7835(6) 0.4750(6) 0.3164(5)
H6 H 0.8896 0.4513 0.3461
C11 C 0.7161(6) 0.4151(6) 0.2092(5)
H7 H 0.7741 0.3486 0.1650
C12 C 0.5598(5) 0.4544(5) 0.1665(3)
H8 H 0.5159 0.4152 0.0926
C13 C 0.5344(4) 0.6041(5) 0.3325(3)
C14 C 0.4315(5) 0.6990(4) 0.3941(3)
C15 C 0.0839(4) 0.2526(4) 0.1076(3)
C16 C 0.0234(5) 0.0720(4) 0.0302(3)
H9 H -0.051(5) 0.662(6) 0.0818(16)
H10 H -0.029(6) 0.775(4) 0.188(3)
Zn1A Zn -0.23205(5) -0.62227(5) -0.17319(3)
Zn1A_2 Zn 0.76795(5) 1.37773(5) -0.17319(3)
N1A N -0.4701(4) -0.5448(4) -0.2254(2)
N2A N -0.2790(4) -0.7239(4) -0.3405(2)
O1A O 0.6916(3) 1.2598(4) -0.0701(2)
O1A_2 O -0.3084(3) -0.7402(4) -0.0701(2)
O2A O 0.4727(5) 1.0752(5) -0.1989(2)
O3A O -0.1288(3) -0.3764(3) -0.06832(19)
O4A O -0.0871(4) -0.2719(3) -0.2021(2)
O5A O 0.0117(4) -0.6855(4) -0.1476(2)
C1A C 0.5190(5) 1.0377(5) -0.0304(3)
C2A C 0.5644(5) 1.1286(5) -0.1069(3)
C3A C -0.1800(6) -0.8060(5) -0.3967(3)
H1A H -0.0747 -0.8234 -0.3609
C4A C -0.2293(7) -0.8677(6) -0.5091(3)
H2A H -0.1567 -0.9244 -0.5464
C5A C -0.3816(7) -0.8450(6) -0.5629(3)
H3A H -0.4151 -0.8868 -0.6371
C6A C -0.4893(6) -0.7575(5) -0.5058(3)
C7A C -0.6539(7) -0.7268(7) -0.5552(4)
H4A H -0.6943 -0.7677 -0.6293
C8A C -0.7501(6) -0.6408(7) -0.4972(4)
H5A H -0.8569 -0.6246 -0.5319
C9A C -0.6940(5) -0.5727(6) -0.3829(4)
C10A C -0.7835(6) -0.4750(6) -0.3164(5)
H6A H -0.8896 -0.4513 -0.3461
C11A C -0.7161(6) -0.4151(6) -0.2092(5)
H7A H -0.7741 -0.3486 -0.1650
C12A C -0.5598(5) -0.4544(5) -0.1665(3)
H8A H -0.5159 -0.4152 -0.0926
C13A C -0.5344(4) -0.6041(5) -0.3325(3)
C14A C -0.4315(5) -0.6990(4) -0.3941(3)
C15A C -0.0839(4) -0.2526(4) -0.1076(3)
C16A C -0.0234(5) -0.0720(4) -0.0302(3)
H9A H 0.051(5) -0.662(6) -0.0818(16)
H10A H 0.029(6) -0.775(4) -0.188(3)
O6 O 0.9009(5) -0.0096(5) 0.2544(3)
H11 H 0.795(3) -0.030(8) 0.226(4)
H12 H 0.946(6) 0.084(4) 0.242(4)
loop_
_geom_bond_atom_site_label_1
_geom_bond_atom_site_label_2
_geom_bond_site_symmetry_1
_geom_bond_site_symmetry_2
Zn1 N1 1_555 1_555
N1 C12 1_555 1_555
N2 Zn1 1_555 1_555
O1 Zn1 1_555 1_555
O2 C2 1_555 1_555
O3 Zn1 1_555 1_555
O4 C15 1_555 1_555
O5 Zn1 1_555 1_555
O6 H11 1_555 1_555
C1 C2 1_555 1_555
C2 O1 1_555 1_555
C3 N2 1_555 1_555
H1 C3 1_555 1_555
C4 C3 1_555 1_555
H2 C4 1_555 1_555
C5 C4 1_555 1_555
H3 C5 1_555 1_555
C6 C5 1_555 1_555
C7 C6 1_555 1_555
H4 C7 1_555 1_555
C8 C7 1_555 1_555
H5 C8 1_555 1_555
C9 C8 1_555 1_555
C10 C9 1_555 1_555
H6 C10 1_555 1_555
C11 C10 1_555 1_555
H7 C11 1_555 1_555
C12 C11 1_555 1_555
H8 C12 1_555 1_555
C13 N1 1_555 1_555
C14 N2 1_555 1_555
C15 O3 1_555 1_555
C16 C15 1_555 1_555
H9 O5 1_555 1_555
H10 O5 1_555 1_555
H12 O6 1_555 1_555
Zn1A N1A 1_555 1_555
Zn1A_2 O1A 1_555 1_555
N1A C12A 1_555 1_555
N2A Zn1A 1_555 1_555
O1A C2A 1_555 1_555
O1A_2 Zn1A 1_555 1_555
O2A C2A 1_555 1_555
O3A Zn1A 1_555 1_555
O4A C15A 1_555 1_555
O5A Zn1A 1_555 1_555
C1A C1 1_555 1_555
C2A C1A 1_555 1_555
C3A N2A 1_555 1_555
H1A C3A 1_555 1_555
C4A C3A 1_555 1_555
H2A C4A 1_555 1_555
C5A C4A 1_555 1_555
H3A C5A 1_555 1_555
C6A C5A 1_555 1_555
C7A C6A 1_555 1_555
H4A C7A 1_555 1_555
C8A C7A 1_555 1_555
H5A C8A 1_555 1_555
C9A C8A 1_555 1_555
C10A C9A 1_555 1_555
H6A C10A 1_555 1_555
C11A C10A 1_555 1_555
H7A C11A 1_555 1_555
C12A C11A 1_555 1_555
H8A C12A 1_555 1_555
C13A N1A 1_555 1_555
C14A N2A 1_555 1_555
C15A O3A 1_555 1_555
C16A C16 1_555 1_555
H9A O5A 1_555 1_555
H10A O5A 1_555 1_555
C6 C14 1_555 1_555
C9 C13 1_555 1_555
C13 C14 1_555 1_555
C6A C14A 1_555 1_555
C9A C13A 1_555 1_555
C13A C14A 1_555 1_555
C15A C16A 1_555 1_555

#END
