
#######################################################################
#
#                 Cambridge Crystallographic Data Centre
#                                CCDC 
#
#######################################################################
#
# If this CIF has been generated from an entry in the Cambridge 
# Structural Database, then it will include bibliographic, chemical, 
# crystal, experimental, refinement or atomic coordinate data resulting 
# from the CCDC's data processing and validation procedures.
#
#######################################################################

data_XECFES
_symmetry_cell_setting           triclinic
_symmetry_space_group_name_H-M   'P -1'
_symmetry_Int_Tables_number      2
_space_group_name_Hall           '-P 1'
loop_
_symmetry_equiv_pos_site_id
_symmetry_equiv_pos_as_xyz
1 x,y,z
2 -x,-y,-z
_cell_length_a                   9.7372(7)
_cell_length_b                   10.1619(5)
_cell_length_c                   11.6637(5)
_cell_angle_alpha                74.171(4)
_cell_angle_beta                 74.379(5)
_cell_angle_gamma                79.748(5)
_cell_volume                     1062.5
loop_
_atom_site_label
_atom_site_type_symbol
_atom_site_fract_x
_atom_site_fract_y
_atom_site_fract_z
O7 O -0.4185(4) 0.4130(4) 0.2070(4)
H2 H -0.3910 0.3488 0.1693
H3 H -0.4854 0.4627 0.1757
Pb1 Pb -0.189696(15) 0.566058(12) 0.178131(11)
S1 S -0.22096(9) 0.50968(9) -0.11157(7)
O1 O -0.2783(3) 0.6120(3) -0.0395(2)
O2 O -0.3283(3) 0.4327(3) -0.1171(3)
O3 O -0.0989(3) 0.4227(3) -0.0720(3)
O4 O 0.0031(3) 0.8311(3) -0.6124(2)
H1 H 0.0007 0.7914 -0.6642
O5 O -0.2292(3) 0.5109(3) -0.5720(2)
O6 O -0.1091(3) 0.6817(3) -0.6945(2)
N1 N -0.1815(3) 0.8100(3) 0.0604(2)
N2 N -0.4095(3) 0.7169(3) 0.2443(3)
C1 C -0.2972(4) 0.9009(3) 0.0878(3)
C2 C -0.0744(4) 0.8541(4) -0.0323(3)
H4 H 0.0063 0.7922 -0.0504
C3 C -0.0764(4) 0.9872(4) -0.1034(3)
H5 H -0.0005 1.0124 -0.1701
C4 C -0.1901(5) 1.0810(4) -0.0751(3)
H6 H -0.1906 1.1718 -0.1205
C5 C -0.3070(4) 1.0411(4) 0.0225(3)
C6 C -0.4306(5) 1.1315(4) 0.0569(4)
H7 H -0.4355 1.2236 0.0150
C7 C -0.5421(5) 1.0859(4) 0.1502(4)
H8 H -0.6222 1.1473 0.1713
C8 C -0.5379(4) 0.9447(4) 0.2165(3)
C9 C -0.6530(4) 0.8928(4) 0.3116(4)
H9 H -0.7353 0.9509 0.3348
C10 C -0.6423(4) 0.7554(4) 0.3696(4)
H10 H -0.7175 0.7194 0.4322
C11 C -0.5202(4) 0.6720(4) 0.3344(3)
H11 H -0.5140 0.5795 0.3752
C12 C -0.4181(4) 0.8535(3) 0.1859(3)
C13 C -0.1267(4) 0.6431(3) -0.4810(3)
C14 C -0.0492(4) 0.7546(4) -0.5000(3)
C15 C -0.0285(4) 0.7905(4) -0.3998(3)
H12 H 0.0212 0.8651 -0.4117
C16 C -0.0813(4) 0.7162(4) -0.2825(3)
H13 H -0.0666 0.7406 -0.2158
C17 C -0.1568(4) 0.6044(3) -0.2634(3)
C18 C -0.1787(3) 0.5690(3) -0.3625(3)
H14 H -0.2289 0.4945 -0.3499
C19 C -0.1577(4) 0.6066(4) -0.5883(3)
Pb1A Pb 0.189696(15) 0.433942(12) -0.178131(11)
Pb1_2 Pb -0.189696(15) 0.566058(12) -0.821869(11)
O3A O 0.0989(3) 0.5773(3) 0.0720(3)
O5_2 O -0.2292(3) 0.5109(3) 0.4280(2)
O6_2 O -0.1091(3) 0.6817(3) 0.3055(2)
O8? O 0.47406(15) 0.9857(5) 0.5233(3)
H15? H 0.5334 0.9176 0.5307
O9? O 0.4631(3) 1.1886(4) 0.4228(5)
C20? C 0.6843(9) 1.0520(4) 0.3752(6)
H16? H 0.7031 1.1044 0.2917
H17? H 0.7470 1.0730 0.4171
H18? H 0.7007 0.9555 0.3769
C21? C 0.5334(8) 1.0874(7) 0.4366(7)
loop_
_geom_bond_atom_site_label_1
_geom_bond_atom_site_label_2
_geom_bond_site_symmetry_1
_geom_bond_site_symmetry_2
Pb1 O1 1_555 1_555
S1 O1 1_555 1_555
O2 S1 1_555 1_555
O3 S1 1_555 1_555
O4 H1 1_555 1_555
O5 C19 1_555 1_555
O6 C19 1_555 1_555
O7 H2 1_555 1_555
H3 O7 1_555 1_555
N1 Pb1 1_555 1_555
N2 Pb1 1_555 1_555
C1 N1 1_555 1_555
C2 N1 1_555 1_555
H4 C2 1_555 1_555
C3 C2 1_555 1_555
H5 C3 1_555 1_555
C4 C3 1_555 1_555
H6 C4 1_555 1_555
C5 C1 1_555 1_555
C6 C5 1_555 1_555
H7 C6 1_555 1_555
C7 C6 1_555 1_555
H8 C7 1_555 1_555
C8 C7 1_555 1_555
C9 C8 1_555 1_555
H9 C9 1_555 1_555
C10 C9 1_555 1_555
H10 C10 1_555 1_555
C11 N2 1_555 1_555
H11 C11 1_555 1_555
C12 N2 1_555 1_555
C13 C14 1_555 1_555
C14 O4 1_555 1_555
C15 C14 1_555 1_555
H12 C15 1_555 1_555
C16 C15 1_555 1_555
H13 C16 1_555 1_555
C17 S1 1_555 1_555
C18 C13 1_555 1_555
H14 C18 1_555 1_555
C19 C13 1_555 1_555
Pb1A O3 1_555 1_555
Pb1_2 O5 1_555 1_555
O3A Pb1 1_555 1_555
O5_2 Pb1 1_555 1_555
O6_2 Pb1 1_555 1_555
O6 Pb1_2 1_555 1_555
C1 C12 1_555 1_555
C4 C5 1_555 1_555
C8 C12 1_555 1_555
C10 C11 1_555 1_555
C16 C17 1_555 1_555
C17 C18 1_555 1_555

#END
