
#######################################################################
#
#                 Cambridge Crystallographic Data Centre
#                                CCDC 
#
#######################################################################
#
# If this CIF has been generated from an entry in the Cambridge 
# Structural Database, then it will include bibliographic, chemical, 
# crystal, experimental, refinement or atomic coordinate data resulting 
# from the CCDC's data processing and validation procedures.
#
#######################################################################

data_XECGAP
_symmetry_cell_setting           orthorhombic
_symmetry_space_group_name_H-M   'P b c a'
_symmetry_Int_Tables_number      61
_space_group_name_Hall           '-P 2ac 2ab'
loop_
_symmetry_equiv_pos_site_id
_symmetry_equiv_pos_as_xyz
1 x,y,z
2 1/2-x,-y,1/2+z
3 -x,1/2+y,1/2-z
4 1/2+x,1/2-y,-z
5 -x,-y,-z
6 1/2+x,y,1/2-z
7 x,1/2-y,1/2+z
8 1/2-x,1/2+y,z
_cell_length_a                   8.2957(10)
_cell_length_b                   22.104(3)
_cell_length_c                   22.110(3)
_cell_angle_alpha                90
_cell_angle_beta                 90
_cell_angle_gamma                90
_cell_volume                     4054.27
loop_
_atom_site_label
_atom_site_type_symbol
_atom_site_fract_x
_atom_site_fract_y
_atom_site_fract_z
La1 La 0.78367(4) 0.242463(15) 0.537359(15)
Br1 Br 0.86777(13) -0.05046(5) 0.66282(5)
Cl1 Cl 0.57034(19) 0.18099(7) 0.45631(7)
Cl2 Cl 0.46216(18) 0.27765(8) 0.57361(7)
N1 N 0.6683(7) 0.1654(3) 0.6202(2)
N2 N 0.8088(7) 0.2724(3) 0.6548(2)
O1 O 0.9829(5) 0.16436(19) 0.5594(2)
O2 O 1.2182(5) 0.1607(2) 0.5117(2)
O3 O 1.3579(7) 0.0573(2) 0.4954(3)
H1 H 1.3282 0.0899 0.4818
C1 C 0.5984(9) 0.1136(3) 0.6047(4)
H2 H 0.5907 0.1048 0.5637
C2 C 0.5357(10) 0.0711(4) 0.6451(4)
H3 H 0.4911 0.0349 0.6317
C3 C 0.5428(11) 0.0852(5) 0.7052(4)
H4 H 0.5001 0.0585 0.7334
C4 C 0.6131(10) 0.1391(4) 0.7249(3)
C5 C 0.6262(12) 0.1591(5) 0.7881(3)
H5 H 0.5853 0.1341 0.8184
C6 C 0.6954(12) 0.2124(5) 0.8043(4)
H6 H 0.7022 0.2228 0.8450
C7 C 0.7564(11) 0.2516(4) 0.7606(4)
C8 C 0.8293(11) 0.3067(4) 0.7754(4)
H7 H 0.8383 0.3182 0.8157
C9 C 0.8855(11) 0.3424(4) 0.7323(4)
H8 H 0.9332 0.3792 0.7419
C10 C 0.8721(9) 0.3240(3) 0.6727(3)
H9 H 0.9107 0.3501 0.6431
C11 C 0.7488(9) 0.2351(3) 0.6985(3)
C12 C 0.6755(8) 0.1795(3) 0.6812(3)
C13 C 1.0177(9) -0.0158(3) 0.6085(3)
C14 C 1.1393(10) -0.0516(3) 0.5865(4)
H10 H 1.1465 -0.0922 0.5971
C15 C 1.2497(11) -0.0257(4) 0.5485(4)
H11 H 1.3323 -0.0496 0.5331
C16 C 1.2430(9) 0.0348(3) 0.5321(3)
C17 C 1.1162(8) 0.0710(3) 0.5553(3)
C18 C 1.0040(8) 0.0436(3) 0.5932(3)
H12 H 0.9185 0.0662 0.6083
C19 C 1.1035(8) 0.1364(3) 0.5407(3)
La1C La 0.28367(4) 0.257537(15) 0.462641(15)
La1C_2 La 1.28367(4) 0.257537(15) 0.462641(15)
Cl1C Cl 1.07034(19) 0.31901(7) 0.54369(7)
Cl2C Cl 0.96216(18) 0.22235(8) 0.42639(7)
O2C O 0.7182(5) 0.3393(2) 0.4883(2)
loop_
_geom_bond_atom_site_label_1
_geom_bond_atom_site_label_2
_geom_bond_site_symmetry_1
_geom_bond_site_symmetry_2
La1 Cl1 1_555 1_555
Br1 C13 1_555 1_555
Cl1 La1C 1_555 1_555
Cl2 La1 1_555 1_555
N1 La1 1_555 1_555
N2 La1 1_555 1_555
O1 La1 1_555 1_555
O2 C19 1_555 1_555
O3 H1 1_555 1_555
C1 N1 1_555 1_555
H2 C1 1_555 1_555
C2 C1 1_555 1_555
H3 C2 1_555 1_555
C3 C2 1_555 1_555
H4 C3 1_555 1_555
C4 C3 1_555 1_555
C5 C4 1_555 1_555
H5 C5 1_555 1_555
C6 C5 1_555 1_555
H6 C6 1_555 1_555
C7 C6 1_555 1_555
C8 C7 1_555 1_555
H7 C8 1_555 1_555
C9 C8 1_555 1_555
H8 C9 1_555 1_555
C10 N2 1_555 1_555
H9 C10 1_555 1_555
C11 N2 1_555 1_555
C12 N1 1_555 1_555
C13 C14 1_555 1_555
C14 H10 1_555 1_555
C15 C14 1_555 1_555
H11 C15 1_555 1_555
C16 O3 1_555 1_555
C17 C16 1_555 1_555
C18 C13 1_555 1_555
H12 C18 1_555 1_555
C19 O1 1_555 1_555
La1C Cl2 1_555 1_555
La1C_2 O2 1_555 1_555
Cl1C La1 1_555 1_555
Cl2C La1 1_555 1_555
O2C La1 1_555 1_555
C4 C12 1_555 1_555
C7 C11 1_555 1_555
C9 C10 1_555 1_555
C11 C12 1_555 1_555
C15 C16 1_555 1_555
C17 C18 1_555 1_555
C17 C19 1_555 1_555
La1C_2 Cl1C 1_555 1_555
La1C_2 Cl2C 1_555 1_555

#END
