
#######################################################################
#
#                 Cambridge Crystallographic Data Centre
#                                CCDC 
#
#######################################################################
#
# If this CIF has been generated from an entry in the Cambridge 
# Structural Database, then it will include bibliographic, chemical, 
# crystal, experimental, refinement or atomic coordinate data resulting 
# from the CCDC's data processing and validation procedures.
#
#######################################################################

data_XECGET
_symmetry_cell_setting           triclinic
_symmetry_space_group_name_H-M   'P -1'
_symmetry_Int_Tables_number      2
_space_group_name_Hall           '-P 1'
loop_
_symmetry_equiv_pos_site_id
_symmetry_equiv_pos_as_xyz
1 x,y,z
2 -x,-y,-z
_cell_length_a                   7.7349(13)
_cell_length_b                   9.4467(16)
_cell_length_c                   11.2063(18)
_cell_angle_alpha                102.284(2)
_cell_angle_beta                 106.059(2)
_cell_angle_gamma                107.003(2)
_cell_volume                     713.037
loop_
_atom_site_label
_atom_site_type_symbol
_atom_site_fract_x
_atom_site_fract_y
_atom_site_fract_z
Cd1 Cd 0.04544(4) 0.84510(4) 0.07477(3)
N1 N 0.2174(5) 1.0166(4) 0.2915(4)
N2 N -0.0501(5) 0.7203(4) 0.2200(4)
C1 C -0.1372(7) 0.5878(6) 0.4074(5)
H1 H -0.1662 0.5412 0.4702
C2 C 0.3403(6) 1.1629(5) 0.3271(4)
H2 H 0.3565 1.2070 0.2604
C3 C -0.1898(7) 0.5807(5) 0.1841(5)
H3 H -0.2601 0.5262 0.0933
C4 C 0.4480(7) 1.2563(5) 0.4588(5)
H4 H 0.5356 1.3604 0.4803
C5 C 0.0091(7) 0.7368(6) 0.4475(4)
C6 C 0.0472(6) 0.7983(5) 0.3497(4)
C7 C 0.1893(6) 0.9555(5) 0.3877(4)
C8 C 0.1133(7) 0.8288(6) 0.5828(4)
H5 H 0.0885 0.7863 0.6487
C9 C 0.2449(7) 0.9734(6) 0.6180(5)
H6 H 0.3107 1.0318 0.7084
C10 C 0.2890(6) 1.0423(5) 0.5221(4)
C11 C 0.4230(7) 1.1927(5) 0.5559(5)
H7 H 0.4973 1.2515 0.6454
C12 C -0.2371(7) 0.5112(6) 0.2757(5)
H8 H -0.3380 0.4114 0.2467
O1 O 0.2864(5) 0.7375(4) 0.1138(3)
O2 O 0.0112(4) 0.7484(4) -0.1567(3)
O3 O -0.1556(5) 0.5788(4) -0.0899(3)
N3 N -0.1132(5) 0.6148(4) -0.1844(4)
O4 O -0.1930(5) 0.5236(4) -0.2976(3)
O5 O -0.1906(4) 0.9255(4) -0.0170(3)
O6 O -0.3962(5) 0.7674(4) 0.0468(3)
C13 C -0.3553(6) 0.8680(5) -0.0059(4)
C14 C -0.5043(6) 0.9368(5) -0.0573(4)
H9 H -0.6357 0.8539 -0.0978
H10 H -0.4758 0.9823 -0.1247
H11 H 0.238(7) 0.6402(19) 0.106(5)
H12 H 0.373(5) 0.736(6) 0.080(5)
Cd1A Cd -1.04544(4) 1.15490(4) -0.07477(3)
Cd1A_2 Cd -0.04544(4) 1.15490(4) -0.07477(3)
Cd1_2 Cd -0.95456(4) 0.84510(4) 0.07477(3)
N1A N -1.2174(5) 0.9834(4) -0.2915(4)
N2A N -0.9499(5) 1.2797(4) -0.2200(4)
C1A C -0.8628(7) 1.4122(6) -0.4074(5)
H1A H -0.8338 1.4588 -0.4702
C2A C -1.3403(6) 0.8371(5) -0.3271(4)
H2A H -1.3565 0.7930 -0.2604
C3A C -0.8102(7) 1.4193(5) -0.1841(5)
H3A H -0.7399 1.4738 -0.0933
C4A C -1.4480(7) 0.7437(5) -0.4588(5)
H4A H -1.5356 0.6396 -0.4803
C5A C -1.0091(7) 1.2632(6) -0.4475(4)
C6A C -1.0472(6) 1.2017(5) -0.3497(4)
C7A C -1.1893(6) 1.0445(5) -0.3877(4)
C8A C -1.1133(7) 1.1712(6) -0.5828(4)
H5A H -1.0885 1.2137 -0.6487
C9A C -1.2449(7) 1.0266(6) -0.6180(5)
H6A H -1.3107 0.9682 -0.7084
C10A C -1.2890(6) 0.9577(5) -0.5221(4)
C11A C -1.4230(7) 0.8073(5) -0.5559(5)
H7A H -1.4973 0.7485 -0.6454
C12A C -0.7629(7) 1.4888(6) -0.2757(5)
H8A H -0.6620 1.5886 -0.2467
O1A O -1.2864(5) 1.2625(4) -0.1138(3)
O2A O -1.0112(4) 1.2516(4) 0.1567(3)
O3A O -0.8444(5) 1.4212(4) 0.0899(3)
N3A N -0.8868(5) 1.3852(4) 0.1844(4)
O4A O -0.8070(5) 1.4764(4) 0.2976(3)
O5A O -0.8094(4) 1.0745(4) 0.0170(3)
O5A_2 O 0.1906(4) 1.0745(4) 0.0170(3)
O5_2 O -1.1906(4) 0.9255(4) -0.0170(3)
O6A O -0.6038(5) 1.2326(4) -0.0468(3)
C13A C -0.6447(6) 1.1320(5) 0.0059(4)
C14A C -0.4957(6) 1.0632(5) 0.0573(4)
H9A H -0.3643 1.1461 0.0978
H10A H -0.5242 1.0177 0.1247
H11A H -1.238(7) 1.3598(19) -0.106(5)
H12A H -1.373(5) 1.264(6) -0.080(5)
loop_
_geom_bond_atom_site_label_1
_geom_bond_atom_site_label_2
_geom_bond_site_symmetry_1
_geom_bond_site_symmetry_2
Cd1 N1 1_555 1_555
N1 C2 1_555 1_555
N2 Cd1 1_555 1_555
C1 H1 1_555 1_555
C2 H2 1_555 1_555
C3 N2 1_555 1_555
H3 C3 1_555 1_555
C4 C2 1_555 1_555
H4 C4 1_555 1_555
C5 C1 1_555 1_555
C6 N2 1_555 1_555
C7 N1 1_555 1_555
C8 C5 1_555 1_555
H5 C8 1_555 1_555
C9 C8 1_555 1_555
H6 C9 1_555 1_555
C10 C7 1_555 1_555
C11 C4 1_555 1_555
H7 C11 1_555 1_555
C12 C1 1_555 1_555
H8 C12 1_555 1_555
O1 Cd1 1_555 1_555
O2 Cd1 1_555 1_555
O3 Cd1 1_555 1_555
N3 O2 1_555 1_555
O4 N3 1_555 1_555
O5 Cd1 1_555 1_555
O6 C13 1_555 1_555
C13 O5 1_555 1_555
C14 C13 1_555 1_555
H9 C14 1_555 1_555
H10 C14 1_555 1_555
H11 O1 1_555 1_555
H12 O1 1_555 1_555
Cd1A N1A 1_555 1_555
Cd1A_2 O5 1_555 1_555
Cd1_2 O5A 1_555 1_555
N1A C2A 1_555 1_555
N2A Cd1A 1_555 1_555
C1A H1A 1_555 1_555
C2A H2A 1_555 1_555
C3A N2A 1_555 1_555
H3A C3A 1_555 1_555
C4A C2A 1_555 1_555
H4A C4A 1_555 1_555
C5A C1A 1_555 1_555
C6A N2A 1_555 1_555
C7A N1A 1_555 1_555
C8A C5A 1_555 1_555
H5A C8A 1_555 1_555
C9A C8A 1_555 1_555
H6A C9A 1_555 1_555
C10A C7A 1_555 1_555
C11A C4A 1_555 1_555
H7A C11A 1_555 1_555
C12A C1A 1_555 1_555
H8A C12A 1_555 1_555
O1A Cd1A 1_555 1_555
O2A Cd1A 1_555 1_555
O3A Cd1A 1_555 1_555
N3A O2A 1_555 1_555
O4A N3A 1_555 1_555
O5A Cd1A 1_555 1_555
O5A_2 Cd1 1_555 1_555
O5_2 Cd1A 1_555 1_555
O6A C13A 1_555 1_555
C13A O5A 1_555 1_555
C14A C14 1_555 1_555
H9A C14A 1_555 1_555
H10A C14A 1_555 1_555
H11A O1A 1_555 1_555
H12A O1A 1_555 1_555
C3 C12 1_555 1_555
C5 C6 1_555 1_555
C6 C7 1_555 1_555
C9 C10 1_555 1_555
C10 C11 1_555 1_555
O3 N3 1_555 1_555
Cd1A_2 O5A_2 1_555 1_555
Cd1_2 O5_2 1_555 1_555
C3A C12A 1_555 1_555
C5A C6A 1_555 1_555
C6A C7A 1_555 1_555
C9A C10A 1_555 1_555
C10A C11A 1_555 1_555
O3A N3A 1_555 1_555
C13A C14A 1_555 1_555

#END
