
#######################################################################
#
#                 Cambridge Crystallographic Data Centre
#                                CCDC 
#
#######################################################################
#
# If this CIF has been generated from an entry in the Cambridge 
# Structural Database, then it will include bibliographic, chemical, 
# crystal, experimental, refinement or atomic coordinate data resulting 
# from the CCDC's data processing and validation procedures.
#
#######################################################################

data_XECJAQ
_symmetry_cell_setting           tetragonal
_symmetry_space_group_name_H-M   'I 4 m m'
_symmetry_Int_Tables_number      107
_space_group_name_Hall           'I 4 -2'
loop_
_symmetry_equiv_pos_site_id
_symmetry_equiv_pos_as_xyz
1 x,y,z
2 -y,x,z
3 -x,y,z
4 -x,-y,z
5 -y,-x,z
6 y,-x,z
7 x,-y,z
8 y,x,z
9 1/2+x,1/2+y,1/2+z
10 1/2-y,1/2+x,1/2+z
11 1/2-x,1/2+y,1/2+z
12 1/2-x,1/2-y,1/2+z
13 1/2-y,1/2-x,1/2+z
14 1/2+y,1/2-x,1/2+z
15 1/2+x,1/2-y,1/2+z
16 1/2+y,1/2+x,1/2+z
_cell_length_a                   15.646(3)
_cell_length_b                   15.646(3)
_cell_length_c                   6.705(3)
_cell_angle_alpha                90
_cell_angle_beta                 90
_cell_angle_gamma                90
_cell_volume                     1641.37
loop_
_atom_site_label
_atom_site_type_symbol
_atom_site_fract_x
_atom_site_fract_y
_atom_site_fract_z
Cu1 Cu -0.19073(11) 0.19073(11) 0.4303(3)
Br1 Br -0.20101(8) 0.20101(8) 0.0563(3)
Br2 Br 0.0000 0.38192(15) 0.9971(4)
N1 N -0.0762(6) 0.2369(6) 0.5297(19)
N2 N 0.0000 0.1693(13) 0.2844(31)
H1 H -0.0536(42) 0.1669(69) 0.229(22)
C1 C 0.0000 0.2138(12) 0.4501(33)
C2 C -0.0749(8) 0.2850(8) 0.6926(20)
H2 H -0.1275(8) 0.3007(8) 0.7531(20)
C3 C 0.0000 0.3128(11) 0.7761(52)
N1B N 0.0762(6) 0.2369(6) 0.5297(19)
C2B C 0.0749(8) 0.2850(8) 0.6926(20)
H2B H 0.1275(8) 0.3007(8) 0.7531(20)
H1B H 0.0536(42) 0.1669(69) 0.229(22)
Br1K Br -0.29899(8) 0.29899(8) 0.5563(3)
N1D N -0.2369(6) 0.0762(6) 0.5297(19)
Cu1K Cu -0.30927(11) 0.30927(11) -0.0697(3)
Cu1B Cu 0.19073(11) 0.19073(11) 0.4303(3)
O1 O -0.0674(31) 0.0674(31) -0.090(13)
O2? O -0.0317(36) 0.0317(36) -0.208(16)
loop_
_geom_bond_atom_site_label_1
_geom_bond_atom_site_label_2
_geom_bond_site_symmetry_1
_geom_bond_site_symmetry_2
Cu1 Br1 1_555 1_555
Br1 Cu1K 1_555 1_555
Br2 C3 1_555 1_555
N1 Cu1 1_555 1_555
N2 H1 1_555 1_555
C1 N1 1_555 1_555
C2 N1 1_555 1_555
H2 C2 1_555 1_555
C3 C2 1_555 1_555
N1B C1 1_555 1_555
C2B C3 1_555 1_555
H2B C2B 1_555 1_555
H1B N2 1_555 1_555
Br1K Cu1 1_555 1_555
N1D Cu1 1_555 1_555
Cu1B N1B 1_555 1_555
N2 C1 1_555 1_555
N1B C2B 1_555 1_555

#END
