
#######################################################################
#
#                 Cambridge Crystallographic Data Centre
#                                CCDC 
#
#######################################################################
#
# If this CIF has been generated from an entry in the Cambridge 
# Structural Database, then it will include bibliographic, chemical, 
# crystal, experimental, refinement or atomic coordinate data resulting 
# from the CCDC's data processing and validation procedures.
#
#######################################################################

data_XECKEX
_symmetry_cell_setting           monoclinic
_symmetry_space_group_name_H-M   'P 21/c'
_symmetry_Int_Tables_number      14
_space_group_name_Hall           '-P 2ybc'
loop_
_symmetry_equiv_pos_site_id
_symmetry_equiv_pos_as_xyz
1 x,y,z
2 -x,1/2+y,1/2-z
3 -x,-y,-z
4 x,1/2-y,1/2+z
_cell_length_a                   9.4480(11)
_cell_length_b                   23.959(3)
_cell_length_c                   12.3083(13)
_cell_angle_alpha                90
_cell_angle_beta                 110.029(2)
_cell_angle_gamma                90
_cell_volume                     2617.65
loop_
_atom_site_label
_atom_site_type_symbol
_atom_site_fract_x
_atom_site_fract_y
_atom_site_fract_z
Zn1 Zn 0.55041(5) -0.072654(19) 0.85116(4)
Si1 Si 0.77758(13) 0.22634(5) 0.67361(9)
O1 O 0.6985(3) -0.01204(12) 0.8930(2)
O2 O 0.5877(4) 0.01169(15) 0.7116(3)
O3 O 0.4631(3) 0.13056(12) 0.2612(2)
O4 O 0.2206(4) 0.13460(18) 0.2361(3)
N1 N 0.6888(3) -0.10157(14) 1.2029(2)
N2 N 0.5830(4) -0.09931(13) 1.0146(3)
N3 N 1.3262(4) -0.05579(14) 1.7877(3)
C1 C 0.6826(5) 0.02014(18) 0.8076(4)
C2 C 0.7819(4) 0.07052(16) 0.8297(3)
C3 C 0.9083(4) 0.07470(16) 0.9284(3)
H1 H 0.9347 0.0450 0.9802
C4 C 0.9954(4) 0.12246(17) 0.9508(3)
H2 H 1.0812 0.1247 1.0166
C5 C 0.9539(4) 0.16695(17) 0.8745(3)
H3 H 1.0122 0.1992 0.8908
C6 C 0.8268(4) 0.16490(15) 0.7735(3)
C7 C 0.7439(4) 0.11537(16) 0.7529(3)
H4 H 0.6606 0.1122 0.6857
C8 C 0.9110(5) 0.2296(2) 0.5922(4)
H5 H 0.9026 0.1961 0.5476
H6 H 1.0121 0.2332 0.6456
H7 H 0.8871 0.2613 0.5413
C9 C 0.7933(6) 0.29139(19) 0.7606(4)
H8 H 0.7244 0.2895 0.8026
H9 H 0.7692 0.3231 0.7100
H10 H 0.8943 0.2950 0.8141
C10 C 0.5782(4) 0.21887(15) 0.5732(3)
C11 C 0.4595(5) 0.24408(19) 0.5982(4)
H11 H 0.4807 0.2645 0.6662
C12 C 0.2791(5) 0.2091(2) 0.4252(4)
H12 H 0.1797 0.2062 0.3759
C13 C 0.3906(4) 0.18279(17) 0.3963(3)
C14 C 0.5394(4) 0.18807(16) 0.4710(3)
H13 H 0.6153 0.1704 0.4519
C15 C 0.3508(5) 0.14646(18) 0.2886(3)
C16 C 0.5100(5) -0.13739(19) 1.0587(3)
H14 H 0.4282 -0.1588 1.0149
C17 C 0.5730(5) -0.13969(19) 1.1743(4)
H15 H 0.5444 -0.1623 1.2246
C18 C 0.6897(4) -0.07880(16) 1.1052(3)
H16 H 0.7576 -0.0515 1.1011
C19 C 0.7923(4) -0.08999(16) 1.3165(3)
C20 C 0.9402(4) -0.08007(18) 1.3314(3)
H17 H 0.9718 -0.0797 1.2676
C21 C 0.7454(5) -0.0894(2) 1.4111(4)
H18 H 0.6444 -0.0950 1.4012
C22 C 0.8485(5) -0.0804(2) 1.5203(3)
H19 H 0.8169 -0.0801 1.5840
C23 C 0.9971(4) -0.07189(16) 1.5350(3)
C24 C 1.0435(5) -0.07055(19) 1.4409(3)
H20 H 1.1437 -0.0633 1.4506
C25 C 1.0798(5) -0.06543(18) 1.7533(3)
H21 H 0.9875 -0.0691 1.7640
C26 C 1.2541(4) -0.05871(17) 1.6749(3)
H22 H 1.3011 -0.0569 1.6198
C27 C 1.2151(5) -0.05982(18) 1.8359(3)
H23 H 1.2315 -0.0588 1.9148
N4 N 1.1048(3) -0.06458(13) 1.6492(2)
C28 C 0.3113(5) 0.2396(2) 0.5253(4)
H26 H 0.2346 0.2571 0.5438
Zn1B Zn 0.44959(5) 0.072654(19) 0.14884(4)
Zn1_2 Zn 1.55041(5) -0.072654(19) 1.85116(4)
O3B O 0.5369(3) -0.13056(12) 0.7388(2)
N3_2 N 0.3262(4) -0.05579(14) 0.7877(3)
O5 O 0.4293(9) -0.0453(4) 0.5016(6)
H24 H 0.4808 -0.0308 0.5580
H25 H 0.4248 -0.0348 0.4393
loop_
_geom_bond_atom_site_label_1
_geom_bond_atom_site_label_2
_geom_bond_site_symmetry_1
_geom_bond_site_symmetry_2
Zn1 O1 1_555 1_555
Si1 C6 1_555 1_555
O1 C1 1_555 1_555
O2 C1 1_555 1_555
O3 C15 1_555 1_555
O4 C15 1_555 1_555
N1 C17 1_555 1_555
N2 Zn1 1_555 1_555
N3 C26 1_555 1_555
C1 C2 1_555 1_555
C2 C3 1_555 1_555
C3 H1 1_555 1_555
C4 C3 1_555 1_555
H2 C4 1_555 1_555
C5 C4 1_555 1_555
H3 C5 1_555 1_555
C6 C5 1_555 1_555
C7 C2 1_555 1_555
H4 C7 1_555 1_555
C8 Si1 1_555 1_555
H5 C8 1_555 1_555
H6 C8 1_555 1_555
H7 C8 1_555 1_555
C9 Si1 1_555 1_555
H8 C9 1_555 1_555
H9 C9 1_555 1_555
H10 C9 1_555 1_555
C10 Si1 1_555 1_555
C11 C10 1_555 1_555
H11 C11 1_555 1_555
C12 H12 1_555 1_555
C13 C12 1_555 1_555
C14 C10 1_555 1_555
H13 C14 1_555 1_555
C15 C13 1_555 1_555
C16 N2 1_555 1_555
H14 C16 1_555 1_555
C17 C16 1_555 1_555
H15 C17 1_555 1_555
C18 N1 1_555 1_555
H16 C18 1_555 1_555
C19 N1 1_555 1_555
C20 C19 1_555 1_555
H17 C20 1_555 1_555
C21 C19 1_555 1_555
H18 C21 1_555 1_555
C22 C21 1_555 1_555
H19 C22 1_555 1_555
C23 C22 1_555 1_555
C24 C20 1_555 1_555
H20 C24 1_555 1_555
C25 H21 1_555 1_555
C26 H22 1_555 1_555
C27 N3 1_555 1_555
H23 C27 1_555 1_555
N4 C23 1_555 1_555
O5 H24 1_555 1_555
H25 O5 1_555 1_555
C28 C11 1_555 1_555
H26 C28 1_555 1_555
Zn1B O3 1_555 1_555
Zn1_2 N3 1_555 1_555
O3B Zn1 1_555 1_555
N3_2 Zn1 1_555 1_555
N2 C18 1_555 1_555
C6 C7 1_555 1_555
C12 C28 1_555 1_555
C13 C14 1_555 1_555
C23 C24 1_555 1_555
C25 C27 1_555 1_555
C25 N4 1_555 1_555
C26 N4 1_555 1_555

#END
