
#######################################################################
#
#                 Cambridge Crystallographic Data Centre
#                                CCDC 
#
#######################################################################
#
# If this CIF has been generated from an entry in the Cambridge 
# Structural Database, then it will include bibliographic, chemical, 
# crystal, experimental, refinement or atomic coordinate data resulting 
# from the CCDC's data processing and validation procedures.
#
#######################################################################

data_XECPIG
_symmetry_cell_setting           monoclinic
_symmetry_space_group_name_H-M   'P 21/c'
_symmetry_Int_Tables_number      14
_space_group_name_Hall           '-P 2ybc'
loop_
_symmetry_equiv_pos_site_id
_symmetry_equiv_pos_as_xyz
1 x,y,z
2 -x,1/2+y,1/2-z
3 -x,-y,-z
4 x,1/2-y,1/2+z
_cell_length_a                   8.8560(2)
_cell_length_b                   13.8093(4)
_cell_length_c                   23.6960(7)
_cell_angle_alpha                90
_cell_angle_beta                 96.7020(10)
_cell_angle_gamma                90
_cell_volume                     2878.1
loop_
_atom_site_label
_atom_site_type_symbol
_atom_site_fract_x
_atom_site_fract_y
_atom_site_fract_z
Hg1 Hg 0.62651(2) 0.770720(10) 0.340930(10)
Hg2 Hg 0.40107(2) 1.032300(10) 0.291930(10)
Cl1 Cl 0.68420(11) 0.94448(7) 0.31308(5)
Cl2 Cl 0.47008(11) 0.68234(8) 0.25964(5)
Cl3 Cl 0.37878(15) 1.09629(9) 0.38169(5)
Cl4 Cl 0.29001(14) 0.94051(8) 0.21557(5)
N1 N 0.7872(3) 0.8179(2) 0.47703(13)
N2 N 0.6483(4) 0.8111(2) 0.44313(12)
N3 N 0.3796(3) 0.8157(2) 0.37525(13)
N4 N 0.7524(3) 0.5949(2) 0.44393(12)
N5 N 0.7914(4) 0.6422(2) 0.39605(12)
N6 N 0.8447(3) 0.7191(2) 0.29480(13)
C1 C 0.9891(4) 0.7451(3) 0.53615(14)
C2 C 1.0814(4) 0.6645(3) 0.54636(16)
C3 C 1.2180(5) 0.6703(4) 0.58042(18)
C4 C 1.2655(5) 0.7574(4) 0.60399(18)
C5 C 1.1760(5) 0.8389(3) 0.59423(16)
C6 C 1.0372(4) 0.8329(3) 0.56081(15)
C7 C 0.8431(4) 0.7388(3) 0.49870(14)
C8 C 0.7681(4) 0.6415(3) 0.49102(15)
C9 C 0.7156(4) 0.5941(3) 0.54105(15)
C10 C 0.6896(5) 0.4958(3) 0.54188(18)
C11 C 0.6362(5) 0.4532(3) 0.5883(2)
C12 C 0.6057(5) 0.5077(4) 0.6335(2)
C13 C 0.6267(5) 0.6055(4) 0.63283(17)
C14 C 0.6849(4) 0.6493(3) 0.58726(16)
C15 C 0.5333(5) 0.8437(3) 0.46300(16)
C16 C 0.3852(4) 0.8468(3) 0.42897(15)
C17 C 0.2613(5) 0.8829(3) 0.45179(19)
C18 C 0.1243(5) 0.8889(3) 0.4169(2)
C19 C 0.1184(5) 0.8602(3) 0.3623(2)
C20 C 0.2472(5) 0.8220(3) 0.34252(18)
C21 C 0.8909(4) 0.6034(3) 0.36920(16)
C22 C 0.9269(4) 0.6436(3) 0.31518(15)
C23 C 1.0385(4) 0.6025(3) 0.28678(18)
C24 C 1.0661(5) 0.6424(4) 0.23574(19)
C25 C 0.9829(5) 0.7200(3) 0.21479(18)
C26 C 0.8728(5) 0.7570(3) 0.24518(17)
H1 H 1.05060 0.60550 0.52990
H2 H 1.27800 0.61530 0.58740
H3 H 1.35840 0.76160 0.62660
H4 H 1.20890 0.89790 0.61010
H5 H 0.97610 0.88760 0.55490
H6 H 0.70800 0.45790 0.51100
H7 H 0.62100 0.38660 0.58880
H8 H 0.57050 0.47830 0.66480
H9 H 0.60190 0.64300 0.66300
H10 H 0.70330 0.71560 0.58770
H11 H 0.54270 0.86640 0.50020
H12 H 0.26880 0.90280 0.48950
H13 H 0.03770 0.91240 0.43100
H14 H 0.02840 0.86610 0.33800
H15 H 0.24080 0.80000 0.30520
H16 H 0.94200 0.54850 0.38400
H17 H 1.09360 0.54930 0.30180
H18 H 1.14100 0.61660 0.21570
H19 H 1.00020 0.74760 0.18030
H20 H 0.81620 0.81000 0.23070
Hg2A Hg 0.59893(2) 0.532300(10) 0.208070(10)
Cl2A Cl 0.52992(11) 1.18234(8) 0.24036(5)
loop_
_geom_bond_atom_site_label_1
_geom_bond_atom_site_label_2
_geom_bond_site_symmetry_1
_geom_bond_site_symmetry_2
Hg1 Cl1 1_555 1_555
Hg2 Cl1 1_555 1_555
Cl2 Hg1 1_555 1_555
Cl3 Hg2 1_555 1_555
Cl4 Hg2 1_555 1_555
N1 N2 1_555 1_555
N2 Hg1 1_555 1_555
N3 Hg1 1_555 1_555
N4 N5 1_555 1_555
N5 Hg1 1_555 1_555
N6 Hg1 1_555 1_555
C1 C2 1_555 1_555
C2 C3 1_555 1_555
C3 C4 1_555 1_555
C4 C5 1_555 1_555
C5 C6 1_555 1_555
C6 C1 1_555 1_555
C7 N1 1_555 1_555
C8 N4 1_555 1_555
C9 C8 1_555 1_555
C10 C9 1_555 1_555
C11 C10 1_555 1_555
C12 C11 1_555 1_555
C13 C12 1_555 1_555
C14 C9 1_555 1_555
C15 N2 1_555 1_555
C16 N3 1_555 1_555
C17 C16 1_555 1_555
C18 C17 1_555 1_555
C19 C18 1_555 1_555
C20 N3 1_555 1_555
C21 N5 1_555 1_555
C22 N6 1_555 1_555
C23 C22 1_555 1_555
C24 C23 1_555 1_555
C25 C24 1_555 1_555
C26 N6 1_555 1_555
H1 C2 1_555 1_555
H2 C3 1_555 1_555
H3 C4 1_555 1_555
H4 C5 1_555 1_555
H5 C6 1_555 1_555
H6 C10 1_555 1_555
H7 C11 1_555 1_555
H8 C12 1_555 1_555
H9 C13 1_555 1_555
H10 C14 1_555 1_555
H11 C15 1_555 1_555
H12 C17 1_555 1_555
H13 C18 1_555 1_555
H14 C19 1_555 1_555
H15 C20 1_555 1_555
H16 C21 1_555 1_555
H17 C23 1_555 1_555
H18 C24 1_555 1_555
H19 C25 1_555 1_555
H20 C26 1_555 1_555
Hg2A Cl2 1_555 1_555
Cl2A Hg2 1_555 1_555
C1 C7 1_555 1_555
C7 C8 1_555 1_555
C13 C14 1_555 1_555
C15 C16 1_555 1_555
C19 C20 1_555 1_555
C21 C22 1_555 1_555
C25 C26 1_555 1_555

#END
