
#######################################################################
#
#                 Cambridge Crystallographic Data Centre
#                                CCDC 
#
#######################################################################
#
# If this CIF has been generated from an entry in the Cambridge 
# Structural Database, then it will include bibliographic, chemical, 
# crystal, experimental, refinement or atomic coordinate data resulting 
# from the CCDC's data processing and validation procedures.
#
#######################################################################

data_XECPEC
_symmetry_cell_setting           monoclinic
_symmetry_space_group_name_H-M   'C 2/m'
_symmetry_Int_Tables_number      12
_space_group_name_Hall           '-C 2y'
loop_
_symmetry_equiv_pos_site_id
_symmetry_equiv_pos_as_xyz
1 x,y,z
2 -x,y,-z
3 1/2+x,1/2+y,z
4 1/2-x,1/2+y,-z
5 -x,-y,-z
6 x,-y,z
7 1/2-x,1/2-y,-z
8 1/2+x,1/2-y,z
_cell_length_a                   7.3335(13)
_cell_length_b                   20.155(4)
_cell_length_c                   10.4450(18)
_cell_angle_alpha                90
_cell_angle_beta                 103.325(3)
_cell_angle_gamma                90
_cell_volume                     1502.28
loop_
_atom_site_label
_atom_site_type_symbol
_atom_site_fract_x
_atom_site_fract_y
_atom_site_fract_z
Mg1 Mg 0.0000 0.0000 0.0000
Na1 Na 0.31699(13) 0.0000 0.32732(8)
O1 O 0.30603(18) 0.11183(5) 0.30357(11)
C1 C 0.5000 0.18685(9) 0.5000
H1 H 0.5000 0.1407 0.5000
O2 O 0.20225(19) 0.31210(6) 0.17351(10)
C2 C 0.5000 0.32051(9) 0.5000
H2 H 0.5000 0.3667 0.5000
O3 O 0.20002(18) 0.19389(6) 0.17286(10)
H3 H 0.2132 0.2456 0.1607
C3 C 0.39709(18) 0.28869(6) 0.38857(12)
O4 O 0.31030(15) 0.39579(5) 0.30165(10)
C4 C 0.39692(18) 0.21864(6) 0.38884(12)
O5 O 0.28991(19) 0.0000 0.08188(14)
H4 H 0.3530 0.0340 0.0564
C5 C 0.2960(2) 0.17086(7) 0.28270(14)
O6 O 0.3317(3) 0.0000 0.56419(17)
H5 H 0.2884 -0.0368 0.5963
C6 C 0.29702(19) 0.33570(7) 0.28103(13)
O7 O 0.0000 0.10073(7) 0.0000
H6 H -0.0681 0.1262 -0.0560
O8 O 0.0320(2) 0.0000 -0.19461(14)
H7 H 0.0897 0.0325 -0.2191
Na1A Na -0.31699(13) 0.0000 -0.32732(8)
Na1A_2 Na 0.68301(13) 0.0000 0.67268(8)
O1A O 0.69397(18) 0.11183(5) 0.69643(11)
O1E O 0.30603(18) -0.11183(5) 0.30357(11)
O1D O 0.69397(18) -0.11183(5) 0.69643(11)
O1A_2 O -0.30603(18) 0.11183(5) -0.30357(11)
O1D_2 O -0.30603(18) -0.11183(5) -0.30357(11)
C1D C 0.5000 -0.18685(9) 0.5000
H1D H 0.5000 -0.1407 0.5000
O2A O 0.79775(19) 0.31210(6) 0.82649(10)
O2E O 0.20225(19) -0.31210(6) 0.17351(10)
O2D O 0.79775(19) -0.31210(6) 0.82649(10)
C2D C 0.5000 -0.32051(9) 0.5000
H2D H 0.5000 -0.3667 0.5000
O3A O 0.79998(18) 0.19389(6) 0.82714(10)
O3E O 0.20002(18) -0.19389(6) 0.17286(10)
O3D O 0.79998(18) -0.19389(6) 0.82714(10)
H3A H 0.7868 0.2456 0.8393
H3E H 0.2132 -0.2456 0.1607
H3D H 0.7868 -0.2456 0.8393
C3A C 0.60291(18) 0.28869(6) 0.61143(12)
C3E C 0.39709(18) -0.28869(6) 0.38857(12)
C3D C 0.60291(18) -0.28869(6) 0.61143(12)
O4A O 0.68970(15) 0.39579(5) 0.69835(10)
O4E O 0.31030(15) -0.39579(5) 0.30165(10)
O4D O 0.68970(15) -0.39579(5) 0.69835(10)
C4A C 0.60308(18) 0.21864(6) 0.61116(12)
C4E C 0.39692(18) -0.21864(6) 0.38884(12)
C4D C 0.60308(18) -0.21864(6) 0.61116(12)
O5A O -0.28991(19) 0.0000 -0.08188(14)
H4E H 0.3530 -0.0340 0.0564
H4A H -0.3530 0.0340 -0.0564
H4D H -0.3530 -0.0340 -0.0564
C5A C 0.7040(2) 0.17086(7) 0.71730(14)
C5E C 0.2960(2) -0.17086(7) 0.28270(14)
C5D C 0.7040(2) -0.17086(7) 0.71730(14)
O6A O 0.6683(3) 0.0000 0.43581(17)
O6A_2 O -0.3317(3) 0.0000 -0.56419(17)
O6_2 O -0.6683(3) 0.0000 -0.43581(17)
H5E H 0.2884 0.0368 0.5963
H5A H 0.7116 -0.0368 0.4037
H5D H 0.7116 0.0368 0.4037
H5A_2 H -0.2884 -0.0368 -0.5963
H5D_2 H -0.2884 0.0368 -0.5963
H5_2 H -0.7116 -0.0368 -0.4037
H5E_2 H -0.7116 0.0368 -0.4037
C6A C 0.70298(19) 0.33570(7) 0.71897(13)
C6E C 0.29702(19) -0.33570(7) 0.28103(13)
C6D C 0.70298(19) -0.33570(7) 0.71897(13)
O7D O 0.0000 -0.10073(7) 0.0000
H6A H 0.0681 0.1262 0.0560
H6D H 0.0681 -0.1262 0.0560
H6E H -0.0681 -0.1262 -0.0560
O8A O -0.0320(2) 0.0000 0.19461(14)
H7E H 0.0897 -0.0325 -0.2191
H7A H -0.0897 0.0325 0.2191
H7D H -0.0897 -0.0325 0.2191
O9 O 0.5000 0.09605(7) 0.0000
H8 H 0.4367 0.1223 -0.0590
H8A H 0.5633 0.1223 0.0590
loop_
_geom_bond_atom_site_label_1
_geom_bond_atom_site_label_2
_geom_bond_site_symmetry_1
_geom_bond_site_symmetry_2
Mg1 O5 1_555 1_555
Na1 O1 1_555 1_555
O1 C5 1_555 1_555
C1 H1 1_555 1_555
O2 C6 1_555 1_555
C2 H2 1_555 1_555
O3 H3 1_555 1_555
C3 C2 1_555 1_555
O4 C6 1_555 1_555
C4 C1 1_555 1_555
O5 Na1 1_555 1_555
H4 O5 1_555 1_555
C5 O3 1_555 1_555
O6 Na1 1_555 1_555
H5 O6 1_555 1_555
C6 C3 1_555 1_555
O7 Mg1 1_555 1_555
H6 O7 1_555 1_555
O8 Mg1 1_555 1_555
H7 O8 1_555 1_555
O9 H8 1_555 1_555
Na1A O8 1_555 1_555
Na1A_2 O6 1_555 1_555
O1A Na1A_2 1_555 1_555
O1E Na1 1_555 1_555
O1D Na1A_2 1_555 1_555
O1A_2 Na1A 1_555 1_555
O1D_2 Na1A 1_555 1_555
C1D H1D 1_555 1_555
O2A C6A 1_555 1_555
O2E C6E 1_555 1_555
O2D C6D 1_555 1_555
C2D H2D 1_555 1_555
O3A H3A 1_555 1_555
O3E H3E 1_555 1_555
O3D H3D 1_555 1_555
C3A C2 1_555 1_555
C3E C2D 1_555 1_555
C3D C2D 1_555 1_555
O4A C6A 1_555 1_555
O4E C6E 1_555 1_555
O4D C6D 1_555 1_555
C4A C1 1_555 1_555
C4E C1D 1_555 1_555
C4D C1D 1_555 1_555
O5A Mg1 1_555 1_555
H4E O5 1_555 1_555
H4A O5A 1_555 1_555
H4D O5A 1_555 1_555
C5A O1A 1_555 1_555
C5E O1E 1_555 1_555
C5D O1D 1_555 1_555
O6A Na1 1_555 1_555
O6A_2 Na1A 1_555 1_555
O6_2 Na1A 1_555 1_555
H5E O6 1_555 1_555
H5A O6A 1_555 1_555
H5D O6A 1_555 1_555
H5A_2 O6A_2 1_555 1_555
H5D_2 O6A_2 1_555 1_555
H5_2 O6_2 1_555 1_555
H5E_2 O6_2 1_555 1_555
C6A C3A 1_555 1_555
C6E C3E 1_555 1_555
C6D C3D 1_555 1_555
O7D Mg1 1_555 1_555
H6A O7 1_555 1_555
H6D O7D 1_555 1_555
H6E O7D 1_555 1_555
O8A Mg1 1_555 1_555
H7E O8 1_555 1_555
H7A O8A 1_555 1_555
H7D O8A 1_555 1_555
H8A O9 1_555 1_555
Na1 O8A 1_555 1_555
C3 C4 1_555 1_555
C4 C5 1_555 1_555
Na1A O5A 1_555 1_555
Na1A_2 O6A 1_555 1_555
O3A C5A 1_555 1_555
O3E C5E 1_555 1_555
O3D C5D 1_555 1_555
C3A C4A 1_555 1_555
C3E C4E 1_555 1_555
C3D C4D 1_555 1_555
C4A C5A 1_555 1_555
C4E C5E 1_555 1_555
C4D C5D 1_555 1_555

#END
