
#######################################################################
#
#                 Cambridge Crystallographic Data Centre
#                                CCDC 
#
#######################################################################
#
# If this CIF has been generated from an entry in the Cambridge 
# Structural Database, then it will include bibliographic, chemical, 
# crystal, experimental, refinement or atomic coordinate data resulting 
# from the CCDC's data processing and validation procedures.
#
#######################################################################

data_XECQON
_symmetry_cell_setting           monoclinic
_symmetry_space_group_name_H-M   'P 21/c'
_symmetry_Int_Tables_number      14
_space_group_name_Hall           '-P 2ybc'
loop_
_symmetry_equiv_pos_site_id
_symmetry_equiv_pos_as_xyz
1 x,y,z
2 -x,1/2+y,1/2-z
3 -x,-y,-z
4 x,1/2-y,1/2+z
_cell_length_a                   12.8455(4)
_cell_length_b                   21.5944(7)
_cell_length_c                   8.2681(3)
_cell_angle_alpha                90
_cell_angle_beta                 93.712(2)
_cell_angle_gamma                90
_cell_volume                     2288.68
loop_
_atom_site_label
_atom_site_type_symbol
_atom_site_fract_x
_atom_site_fract_y
_atom_site_fract_z
C1 C 0.30225(18) 0.17206(10) 0.3731(3)
C2 C 0.29999(18) 0.23603(10) 0.3655(3)
H1 H 0.3516 0.2588 0.4226
C3 C 0.22127(18) 0.26696(10) 0.2732(3)
C4 C 0.1448(2) 0.23178(13) 0.1905(3)
H2 H 0.0917 0.2513 0.1278
C5 C 0.1469(2) 0.16794(13) 0.2007(4)
H3 H 0.0942 0.1450 0.1465
C6 C 0.2257(2) 0.13783(11) 0.2896(3)
H4 H 0.2274 0.0948 0.2933
C7 C 0.3846(2) 0.08228(10) 0.4912(3)
H5 H 0.3142 0.0692 0.5105
H6 H 0.4282 0.0733 0.5885
C8 C 0.42315(18) 0.04390(11) 0.3518(3)
C9 C 0.21649(18) 0.33439(11) 0.2639(3)
H7 H 0.1681 0.3509 0.1872
C10 C 0.27286(19) 0.37450(11) 0.3519(3)
H8 H 0.3202 0.3598 0.4327
C11 C 0.2635(2) 0.44275(11) 0.3265(3)
C12 C 0.8386(2) 0.06615(14) -0.0461(4)
H9 H 0.8277 0.0236 -0.0436
C13 C 0.9260(3) 0.08874(17) -0.1225(4)
H10 H 0.9721 0.0617 -0.1683
C14 C 0.9410(2) 0.15085(16) -0.1275(4)
H11 H 0.9983 0.1667 -0.1771
C15 C 0.87155(19) 0.19118(13) -0.0591(3)
C16 C 0.78703(17) 0.16457(11) 0.0156(3)
C17 C 0.8803(2) 0.25730(14) -0.0638(3)
H12 H 0.9364 0.2750 -0.1124
C18 C 0.8103(2) 0.29410(13) -0.0002(3)
H13 H 0.8184 0.3368 -0.0056
C19 C 0.72305(19) 0.26889(11) 0.0762(3)
C20 C 0.71149(17) 0.20406(10) 0.0847(3)
C21 C 0.6466(2) 0.30519(11) 0.1432(3)
H14 H 0.6516 0.3481 0.1407
C22 C 0.5655(2) 0.27787(12) 0.2118(3)
H15 H 0.5141 0.3018 0.2556
C23 C 0.5599(2) 0.21306(11) 0.2158(3)
H16 H 0.5042 0.1947 0.2639
Mn1 Mn 0.62539(3) 0.071726(15) 0.14801(4)
N1 N 0.77147(16) 0.10253(9) 0.0220(2)
N2 N 0.63039(14) 0.17695(8) 0.1542(2)
O1 O 0.38426(13) 0.14746(7) 0.46548(19)
O2 O 0.48009(14) 0.06992(8) 0.2560(2)
O3 O 0.39735(14) -0.01191(7) 0.34978(19)
O4 O 0.18729(16) 0.46409(9) 0.2449(3)
O5 O 0.33793(14) 0.47531(7) 0.3879(2)
O6 O 0.70675(16) 0.06432(8) 0.3947(2)
H17 H 0.674(2) 0.0477(14) 0.467(3)
H18 H 0.7569(19) 0.0409(14) 0.374(4)
O7 O 0.53707(14) 0.07366(7) -0.0852(2)
H19 H 0.4737(14) 0.0643(13) -0.080(4)
H20 H 0.559(2) 0.0562(13) -0.165(3)
Mn1A Mn 0.37461(3) 0.571726(15) 0.35199(4)
O5A O 0.66207(14) -0.02469(7) 0.1121(2)
O8 O 0.0161(11) 0.5474(5) 0.0875(16)
loop_
_geom_bond_atom_site_label_1
_geom_bond_atom_site_label_2
_geom_bond_site_symmetry_1
_geom_bond_site_symmetry_2
C1 C2 1_555 1_555
C2 H1 1_555 1_555
C3 C2 1_555 1_555
C4 C3 1_555 1_555
H2 C4 1_555 1_555
C5 C4 1_555 1_555
H3 C5 1_555 1_555
C6 C1 1_555 1_555
H4 C6 1_555 1_555
C7 H5 1_555 1_555
H6 C7 1_555 1_555
C8 C7 1_555 1_555
C9 C3 1_555 1_555
H7 C9 1_555 1_555
C10 C9 1_555 1_555
H8 C10 1_555 1_555
C11 C10 1_555 1_555
C12 H9 1_555 1_555
C13 C12 1_555 1_555
H10 C13 1_555 1_555
C14 C13 1_555 1_555
H11 C14 1_555 1_555
C15 C14 1_555 1_555
C16 C15 1_555 1_555
C17 C15 1_555 1_555
H12 C17 1_555 1_555
C18 C17 1_555 1_555
H13 C18 1_555 1_555
C19 C18 1_555 1_555
C20 C16 1_555 1_555
C21 C19 1_555 1_555
H14 C21 1_555 1_555
C22 C21 1_555 1_555
H15 C22 1_555 1_555
C23 C22 1_555 1_555
H16 C23 1_555 1_555
Mn1 N1 1_555 1_555
N1 C12 1_555 1_555
N2 C20 1_555 1_555
O1 C1 1_555 1_555
O2 C8 1_555 1_555
O3 C8 1_555 1_555
O4 C11 1_555 1_555
O5 C11 1_555 1_555
O6 Mn1 1_555 1_555
H17 O6 1_555 1_555
H18 O6 1_555 1_555
O7 Mn1 1_555 1_555
H19 O7 1_555 1_555
H20 O7 1_555 1_555
Mn1A O5 1_555 1_555
O5A Mn1 1_555 1_555
C5 C6 1_555 1_555
C7 O1 1_555 1_555
C16 N1 1_555 1_555
C19 C20 1_555 1_555
C23 N2 1_555 1_555
Mn1 N2 1_555 1_555
Mn1 O2 1_555 1_555

#END
