
#######################################################################
#
#                 Cambridge Crystallographic Data Centre
#                                CCDC 
#
#######################################################################
#
# If this CIF has been generated from an entry in the Cambridge 
# Structural Database, then it will include bibliographic, chemical, 
# crystal, experimental, refinement or atomic coordinate data resulting 
# from the CCDC's data processing and validation procedures.
#
#######################################################################

data_XECSUV
_symmetry_cell_setting           orthorhombic
_symmetry_space_group_name_H-M   'P c a 21'
_symmetry_Int_Tables_number      29
_space_group_name_Hall           'P 2c -2ac'
loop_
_symmetry_equiv_pos_site_id
_symmetry_equiv_pos_as_xyz
1 x,y,z
2 -x,-y,1/2+z
3 1/2+x,-y,z
4 1/2-x,y,1/2+z
_cell_length_a                   24.433(5)
_cell_length_b                   4.7861(10)
_cell_length_c                   5.6385(11)
_cell_angle_alpha                90
_cell_angle_beta                 90
_cell_angle_gamma                90
_cell_volume                     659.359
loop_
_atom_site_label
_atom_site_type_symbol
_atom_site_fract_x
_atom_site_fract_y
_atom_site_fract_z
O1 O 0.28627(9) 1.1874(4) 0.7415(4)
O2 O 0.35150(10) 1.3781(5) 0.5168(5)
N1 N 0.36091(10) 0.8665(5) 0.9601(5)
C1 C 0.37639(11) 1.0110(5) 0.7680(5)
C2 C 0.33500(11) 1.2093(5) 0.6658(5)
C3 C 0.44910(14) 0.6601(7) 0.9486(7)
H1 H 0.4735 0.5346 1.0167
N2 N 0.46487(12) 0.8025(6) 0.7586(6)
C4 C 0.39802(14) 0.6901(7) 1.0492(6)
H2 H 0.3892 0.5851 1.1825
C5 C 0.42814(12) 0.9788(7) 0.6705(6)
H3 H 0.4375 1.0848 0.5383
Li1 Li 0.2739(2) 0.9324(11) 1.0354(10)
O3 O 0.22904(9) 0.6809(4) 0.8254(4)
H4 H 0.247(3) 0.538(8) 0.796(9)
H5 H 0.1986(18) 0.599(8) 0.901(7)
O1C O 0.21373(9) 1.1874(4) 1.2415(4)
Li1C Li 0.2261(2) 0.9324(11) 0.5354(10)
O3C O 0.27096(9) 0.6809(4) 1.3254(4)
H4C H 0.253(3) 0.538(8) 1.296(9)
H5C H 0.3014(18) 0.599(8) 1.401(7)
loop_
_geom_bond_atom_site_label_1
_geom_bond_atom_site_label_2
_geom_bond_site_symmetry_1
_geom_bond_site_symmetry_2
O1 C2 1_555 1_555
O2 C2 1_555 1_555
N1 C1 1_555 1_555
C1 C2 1_555 1_555
C3 H1 1_555 1_555
N2 C3 1_555 1_555
C4 N1 1_555 1_555
H2 C4 1_555 1_555
C5 C1 1_555 1_555
H3 C5 1_555 1_555
Li1 O1 1_555 1_555
O3 Li1 1_555 1_555
H4 O3 1_555 1_555
H5 O3 1_555 1_555
O1C Li1 1_555 1_555
Li1C O1 1_555 1_555
O3C Li1 1_555 1_555
H4C O3C 1_555 1_555
H5C O3C 1_555 1_555
N1 Li1 1_555 1_555
C3 C4 1_555 1_555
N2 C5 1_555 1_555
O3 Li1C 1_555 1_555

#END
