
#######################################################################
#
#                 Cambridge Crystallographic Data Centre
#                                CCDC 
#
#######################################################################
#
# If this CIF has been generated from an entry in the Cambridge 
# Structural Database, then it will include bibliographic, chemical, 
# crystal, experimental, refinement or atomic coordinate data resulting 
# from the CCDC's data processing and validation procedures.
#
#######################################################################

data_XECWIN
_symmetry_cell_setting           monoclinic
_symmetry_space_group_name_H-M   'P 21/c'
_symmetry_Int_Tables_number      14
_space_group_name_Hall           '-P 2ybc'
loop_
_symmetry_equiv_pos_site_id
_symmetry_equiv_pos_as_xyz
1 x,y,z
2 -x,1/2+y,1/2-z
3 -x,-y,-z
4 x,1/2-y,1/2+z
_cell_length_a                   11.2255(16)
_cell_length_b                   8.4153(13)
_cell_length_c                   9.7252(14)
_cell_angle_alpha                90
_cell_angle_beta                 92.355(2)
_cell_angle_gamma                90
_cell_volume                     917.924
loop_
_atom_site_label
_atom_site_type_symbol
_atom_site_fract_x
_atom_site_fract_y
_atom_site_fract_z
C1 C 0.32095(18) 0.3515(2) 0.3203(2)
C2 C 0.44180(17) 0.2999(2) 0.37593(19)
C3 C 0.47029(17) 0.1544(2) 0.43842(19)
C4 C 0.58569(16) 0.1290(2) 0.49497(19)
C5 C 0.67291(17) 0.2464(2) 0.4857(2)
C6 C 0.64515(18) 0.3863(2) 0.4181(2)
H1 H 0.7036 0.4632 0.4081
C7 C 0.53093(18) 0.4128(2) 0.3654(2)
H2 H 0.5133 0.5087 0.3217
C8 C 0.79987(17) 0.2271(2) 0.5408(2)
C9 C 0.38273(18) 0.0223(2) 0.4344(2)
Mn1 Mn 0.14215(3) 0.50978(3) 0.21336(3)
O1 O 0.31881(13) 0.4118(2) 0.20209(15)
O2 O 0.23044(12) 0.35278(18) 0.39148(15)
O3 O 0.87242(12) 0.15778(18) 0.46563(15)
O4 O 0.82943(13) 0.28802(18) 0.65405(15)
O5 O 0.28972(13) 0.03344(17) 0.36714(16)
O6 O 0.09489(15) 0.2961(2) 0.08600(17)
O7 O -0.04028(17) 0.5190(3) 0.2639(2)
H3 H 0.143(3) 0.273(4) 0.034(3)
H4 H 0.024(3) 0.306(4) 0.042(4)
H5 H -0.064(3) 0.590(3) 0.312(3)
H6 H -0.091(3) 0.457(5) 0.239(5)
C1B C 0.67905(18) -0.3515(2) 0.6797(2)
C2B C 0.55820(17) -0.2999(2) 0.62407(19)
C3B C 0.52971(17) -0.1544(2) 0.56158(19)
C4B C 0.41431(16) -0.1290(2) 0.50503(19)
C5B C 0.32709(17) -0.2464(2) 0.5143(2)
C6B C 0.35485(18) -0.3863(2) 0.5819(2)
H1B H 0.2964 -0.4632 0.5919
C7B C 0.46907(18) -0.4128(2) 0.6346(2)
H2B H 0.4867 -0.5087 0.6783
C8B C 0.20013(17) -0.2271(2) 0.4592(2)
C9B C 0.61727(18) -0.0223(2) 0.5656(2)
Mn1B Mn 0.85785(3) -0.50978(3) 0.78664(3)
Mn1_2 Mn 0.14215(3) -0.49022(3) 0.21336(3)
Mn1A Mn 0.85785(3) 0.00978(3) 0.28664(3)
Mn1B_2 Mn 0.85785(3) 0.49022(3) 0.78664(3)
Mn1C Mn 0.14215(3) -0.00978(3) 0.71336(3)
O1B O 0.68119(13) -0.4118(2) 0.79791(15)
O2B O 0.76956(12) -0.35278(18) 0.60852(15)
O3B O 0.12758(12) -0.15778(18) 0.53437(15)
O3A O 0.12758(12) 0.65778(18) 0.03437(15)
O3C O 0.87242(12) -0.65778(18) 0.96563(15)
O4B O 0.17057(13) -0.28802(18) 0.34595(15)
O4_2 O 0.82943(13) -0.71198(18) 0.65405(15)
O4B_2 O 0.17057(13) 0.71198(18) 0.34595(15)
O5B O 0.71028(13) -0.03344(17) 0.63286(16)
O6B O 0.90511(15) -0.2961(2) 0.91400(17)
O7B O 1.04028(17) -0.5190(3) 0.7361(2)
H3B H 0.857(3) -0.273(4) 0.966(3)
H4B H 0.976(3) -0.306(4) 0.958(4)
H5B H 1.064(3) -0.590(3) 0.688(3)
H6B H 1.091(3) -0.457(5) 0.761(5)
loop_
_geom_bond_atom_site_label_1
_geom_bond_atom_site_label_2
_geom_bond_site_symmetry_1
_geom_bond_site_symmetry_2
C1 C2 1_555 1_555
C2 C3 1_555 1_555
C3 C4 1_555 1_555
C4 C5 1_555 1_555
C5 C6 1_555 1_555
C6 H1 1_555 1_555
C7 C2 1_555 1_555
H2 C7 1_555 1_555
C8 C5 1_555 1_555
C9 C3 1_555 1_555
Mn1 O1 1_555 1_555
O1 C1 1_555 1_555
O2 C1 1_555 1_555
O3 C8 1_555 1_555
O4 C8 1_555 1_555
O5 C9 1_555 1_555
O6 Mn1 1_555 1_555
O7 Mn1 1_555 1_555
H3 O6 1_555 1_555
H4 O6 1_555 1_555
H5 O7 1_555 1_555
H6 O7 1_555 1_555
C1B C2B 1_555 1_555
C2B C3B 1_555 1_555
C3B C4B 1_555 1_555
C4B C9 1_555 1_555
C5B C4B 1_555 1_555
C6B C5B 1_555 1_555
H1B C6B 1_555 1_555
C7B C2B 1_555 1_555
H2B C7B 1_555 1_555
C8B C5B 1_555 1_555
C9B C4 1_555 1_555
Mn1B O1B 1_555 1_555
Mn1_2 O4B 1_555 1_555
Mn1A O3 1_555 1_555
Mn1B_2 O4 1_555 1_555
Mn1C O3B 1_555 1_555
O1B C1B 1_555 1_555
O2B C1B 1_555 1_555
O3B C8B 1_555 1_555
O3A Mn1 1_555 1_555
O3C Mn1B 1_555 1_555
O4B C8B 1_555 1_555
O4_2 Mn1B 1_555 1_555
O4B_2 Mn1 1_555 1_555
O5B C9B 1_555 1_555
O6B Mn1B 1_555 1_555
O7B Mn1B 1_555 1_555
H3B O6B 1_555 1_555
H4B O6B 1_555 1_555
H5B O7B 1_555 1_555
H6B O7B 1_555 1_555
C6 C7 1_555 1_555
Mn1 O2 1_555 1_555
C3B C9B 1_555 1_555
C6B C7B 1_555 1_555
Mn1B O2B 1_555 1_555

#END
