
#######################################################################
#
#                 Cambridge Crystallographic Data Centre
#                                CCDC 
#
#######################################################################
#
# If this CIF has been generated from an entry in the Cambridge 
# Structural Database, then it will include bibliographic, chemical, 
# crystal, experimental, refinement or atomic coordinate data resulting 
# from the CCDC's data processing and validation procedures.
#
#######################################################################

data_XEDBOZ
_symmetry_cell_setting           orthorhombic
_symmetry_space_group_name_H-M   'I b a m'
_symmetry_Int_Tables_number      72
_space_group_name_Hall           '-I 2 2c'
loop_
_symmetry_equiv_pos_site_id
_symmetry_equiv_pos_as_xyz
1 x,y,z
2 -x,-y,z
3 1/2-x,1/2+y,-z
4 1/2+x,1/2-y,-z
5 1/2+x,1/2+y,1/2+z
6 1/2-x,1/2-y,1/2+z
7 -x,y,1/2-z
8 x,-y,1/2-z
9 -x,-y,-z
10 x,y,-z
11 1/2+x,1/2-y,z
12 1/2-x,1/2+y,z
13 1/2-x,1/2-y,1/2-z
14 1/2+x,1/2+y,1/2-z
15 x,-y,1/2+z
16 -x,y,1/2+z
_cell_length_a                   8.6830(17)
_cell_length_b                   10.797(2)
_cell_length_c                   16.158(3)
_cell_angle_alpha                90
_cell_angle_beta                 90
_cell_angle_gamma                90
_cell_volume                     1514.82
loop_
_atom_site_label
_atom_site_type_symbol
_atom_site_fract_x
_atom_site_fract_y
_atom_site_fract_z
Ga1 Ga 0.5000 0.5000 0.59085(2)
O1 O 0.3677(2) 0.42047(17) 0.67803(11)
H1 H 0.3488 0.3398 0.6730
O2 O 0.3489(2) 0.63361(18) 0.60822(12)
O3 O 0.1354(2) 0.68818(19) 0.67612(14)
O4 O 0.5962(3) 0.5850(3) 0.5000
H2 H 0.6917 0.6148 0.5000
C1 C 0.2355(3) 0.4887(2) 0.70276(16)
H3 H 0.1423 0.4434 0.6870
C2 C 0.2388(3) 0.6141(3) 0.65840(16)
Ga1H Ga 0.5000 0.5000 0.40915(2)
Ga1F Ga 0.5000 0.5000 0.90915(2)
O1G O 0.3677(2) 0.57953(17) 0.82197(11)
O1A O 0.6323(2) 0.57953(17) 0.67803(11)
H1G H 0.3488 0.6602 0.8270
H1A H 0.6512 0.6602 0.6730
O2G O 0.3489(2) 0.36639(18) 0.89178(12)
O2A O 0.6511(2) 0.36639(18) 0.60822(12)
O3G O 0.1354(2) 0.31182(19) 0.82388(14)
O4A O 0.4038(3) 0.4150(3) 0.5000
H2A H 0.3083 0.3852 0.5000
C1G C 0.2355(3) 0.5113(2) 0.79724(16)
H3G H 0.1423 0.5566 0.8130
C2G C 0.2388(3) 0.3859(3) 0.84160(16)
O5 O 0.4116(5) 0.8743(5) 0.5000
H4 H 0.4511 0.8331 0.5428
H4I H 0.4511 0.8331 0.4572
loop_
_geom_bond_atom_site_label_1
_geom_bond_atom_site_label_2
_geom_bond_site_symmetry_1
_geom_bond_site_symmetry_2
Ga1 O1 1_555 1_555
O1 H1 1_555 1_555
O2 Ga1 1_555 1_555
O3 C2 1_555 1_555
O4 Ga1 1_555 1_555
H2 O4 1_555 1_555
C1 O1 1_555 1_555
H3 C1 1_555 1_555
C2 O2 1_555 1_555
O5 H4 1_555 1_555
Ga1H O4 1_555 1_555
Ga1F O1G 1_555 1_555
O1G H1G 1_555 1_555
O1A Ga1 1_555 1_555
H1A O1A 1_555 1_555
O2G Ga1F 1_555 1_555
O2A Ga1 1_555 1_555
O3G C2G 1_555 1_555
O4A Ga1 1_555 1_555
H2A O4A 1_555 1_555
C1G C1 1_555 1_555
H3G C1G 1_555 1_555
C2G O2G 1_555 1_555
H4I O5 1_555 1_555
C1 C2 1_555 1_555
Ga1H O4A 1_555 1_555
O1G C1G 1_555 1_555
C1G C2G 1_555 1_555

#END
