
#######################################################################
#
#                 Cambridge Crystallographic Data Centre
#                                CCDC 
#
#######################################################################
#
# If this CIF has been generated from an entry in the Cambridge 
# Structural Database, then it will include bibliographic, chemical, 
# crystal, experimental, refinement or atomic coordinate data resulting 
# from the CCDC's data processing and validation procedures.
#
#######################################################################

data_XEDBOY
_symmetry_cell_setting           orthorhombic
_symmetry_space_group_name_H-M   'P c c n'
_symmetry_Int_Tables_number      56
_space_group_name_Hall           '-P 2ab 2ac'
loop_
_symmetry_equiv_pos_site_id
_symmetry_equiv_pos_as_xyz
1 x,y,z
2 1/2-x,1/2-y,z
3 1/2+x,-y,1/2-z
4 -x,1/2+y,1/2-z
5 -x,-y,-z
6 1/2+x,1/2+y,-z
7 1/2-x,y,1/2+z
8 x,1/2-y,1/2+z
_cell_length_a                   19.085(5)
_cell_length_b                   21.093(6)
_cell_length_c                   14.986(4)
_cell_angle_alpha                90
_cell_angle_beta                 90
_cell_angle_gamma                90
_cell_volume                     6032.76
loop_
_atom_site_label
_atom_site_type_symbol
_atom_site_fract_x
_atom_site_fract_y
_atom_site_fract_z
C17 C -0.5000 0.0000 0.5000
O1 O -0.4686(10) 0.0340(11) 0.4348(10)
O1D O -0.5314(10) -0.0340(11) 0.5652(10)
P1 P 0.09682(10) 0.37130(9) 0.03555(12)
F1 F 0.0628(8) 0.4331(6) 0.0689(15)
F2 F 0.1302(15) 0.3094(6) 0.009(2)
F3 F 0.0968(14) 0.3435(10) 0.1290(8)
F4 F 0.0992(11) 0.4026(7) -0.0564(5)
F5 F 0.1678(6) 0.4009(10) 0.0529(12)
F6 F 0.0241(5) 0.3448(7) 0.0171(15)
F13 F -0.3269(3) 0.1752(3) 0.4310(6)
F14 F -0.2915(3) 0.1132(4) 0.3192(3)
F15 F -0.2186(3) 0.1310(3) 0.4360(4)
F16 F -0.3656(5) 0.0761(5) 0.4164(9)
F17 F -0.3019(6) 0.0957(5) 0.5200(6)
F18 F -0.2594(5) 0.0385(4) 0.4108(7)
P2 P -0.29306(10) 0.10987(10) 0.42196(13)
Ag1 Ag -0.53605(3) 0.19746(2) 0.31619(4)
Ag2 Ag -0.50920(3) 0.54285(2) 0.24574(4)
C1 C -0.5794(3) 0.4039(3) 0.2415(4)
C2 C -0.6378(3) 0.4362(3) 0.2081(5)
H1 H -0.6356 0.4798 0.1994
C3 C -0.6977(4) 0.4043(4) 0.1882(5)
H2 H -0.7360 0.4261 0.1652
C4 C -0.7019(4) 0.3396(3) 0.2019(5)
H3 H -0.7433 0.3186 0.1882
C5 C -0.6466(3) 0.3058(3) 0.2353(5)
H4 H -0.6504 0.2623 0.2440
C6 C -0.5840(3) 0.3374(3) 0.2561(4)
C7 C -0.4704(3) 0.3354(2) 0.3060(3)
C8 C -0.4643(3) 0.4021(2) 0.2882(3)
C9 C -0.3960(3) 0.4377(3) 0.3006(5)
H5 H -0.3677 0.4166 0.3454
H6 H -0.4055 0.4805 0.3209
C10 C -0.3525(3) 0.5200(3) 0.1665(4)
C11 C -0.3320(3) 0.6225(3) 0.1053(4)
C12 C -0.3080(5) 0.6804(3) 0.0576(6)
H7 H -0.3384 0.7152 0.0719
H8 H -0.3090 0.6730 -0.0056
H9 H -0.2610 0.6904 0.0756
C13 C -0.4088(3) 0.2992(2) 0.3415(4)
H10 H -0.4248 0.2593 0.3664
H11 H -0.3869 0.3233 0.3890
C14 C -0.3745(3) 0.2120(3) 0.2110(4)
C15 C -0.3824(3) 0.1134(3) 0.1346(4)
C16 C -0.3776(4) 0.0555(3) 0.0779(5)
H12 H -0.4119 0.0251 0.0971
H13 H -0.3316 0.0374 0.0832
H14 H -0.3863 0.0666 0.0167
C18 C -0.4870(7) 0.1862(6) 0.5511(6)
H15 H -0.4526 0.1613 0.5819
H16 H -0.5328 0.1760 0.5734
H17 H -0.4778 0.2304 0.5608
N1 N -0.5283(2) 0.3044(2) 0.2890(3)
N2 N -0.5186(2) 0.4349(2) 0.2585(3)
N3 N -0.4243(2) 0.1767(2) 0.2432(3)
N4 N -0.4269(2) 0.1193(2) 0.1990(3)
N5 N -0.3985(2) 0.5611(2) 0.1922(4)
N6 N -0.3861(3) 0.6206(2) 0.1566(3)
O2 O -0.4842(5) 0.1737(5) 0.4651(5)
S1 S -0.34828(10) 0.44029(7) 0.19435(16)
S2 S -0.34526(8) 0.28395(7) 0.25429(14)
S3 S -0.33046(9) 0.17966(8) 0.12215(13)
S4 S -0.29033(9) 0.55057(7) 0.09541(14)
Ag1C Ag -0.46395(3) -0.30254(2) 0.18381(4)
Ag1C_2 Ag -0.46395(3) 0.69746(2) 0.18381(4)
Ag2C Ag -0.49080(3) 0.04285(2) 0.25426(4)
Ag2_2 Ag -0.50920(3) -0.45715(2) 0.24574(4)
C1C C -0.4206(3) -0.0961(3) 0.2585(4)
C2C C -0.3622(3) -0.0638(3) 0.2919(5)
H1C H -0.3644 -0.0202 0.3006
C3C C -0.3023(4) -0.0957(4) 0.3118(5)
H2C H -0.2640 -0.0739 0.3348
C4C C -0.2981(4) -0.1604(3) 0.2981(5)
H3C H -0.2567 -0.1814 0.3118
C5C C -0.3534(3) -0.1942(3) 0.2647(5)
H4C H -0.3496 -0.2377 0.2560
C6C C -0.4160(3) -0.1626(3) 0.2439(4)
C7C C -0.5296(3) -0.1646(2) 0.1940(3)
C8C C -0.5357(3) -0.0979(2) 0.2118(3)
C9C C -0.6040(3) -0.0623(3) 0.1994(5)
H5C H -0.6323 -0.0834 0.1546
H6C H -0.5945 -0.0195 0.1791
C10C C -0.6475(3) 0.0200(3) 0.3335(4)
C11C C -0.6680(3) 0.1225(3) 0.3947(4)
C12C C -0.6920(5) 0.1804(3) 0.4424(6)
H7C H -0.6616 0.2152 0.4281
H8C H -0.6910 0.1730 0.5056
H9C H -0.7390 0.1904 0.4244
C13C C -0.5912(3) -0.2008(2) 0.1585(4)
H10C H -0.5752 -0.2407 0.1336
H11C H -0.6131 -0.1767 0.1110
C14C C -0.6255(3) -0.2880(3) 0.2890(4)
C15C C -0.6176(3) -0.3866(3) 0.3654(4)
C16C C -0.6224(4) -0.4445(3) 0.4221(5)
H12C H -0.5881 -0.4749 0.4029
H13C H -0.6684 -0.4626 0.4168
H14C H -0.6137 -0.4334 0.4833
C18C C -0.5130(7) -0.3138(6) -0.0511(6)
H15C H -0.5474 -0.3387 -0.0819
H16C H -0.4672 -0.3240 -0.0734
H17C H -0.5222 -0.2696 -0.0608
N1C N -0.4717(2) -0.1956(2) 0.2110(3)
N2C N -0.4814(2) -0.0651(2) 0.2415(3)
N3C N -0.5757(2) -0.3233(2) 0.2568(3)
N4C N -0.5731(2) -0.3807(2) 0.3010(3)
N4C_2 N -0.5731(2) 0.6193(2) 0.3010(3)
N5C N -0.6015(2) 0.0611(2) 0.3078(4)
N6C N -0.6139(3) 0.1206(2) 0.3434(3)
N6_2 N -0.3861(3) -0.3794(2) 0.1566(3)
O2C O -0.5158(5) -0.3263(5) 0.0349(5)
S1C S -0.65172(10) -0.05971(7) 0.30565(16)
S2C S -0.65474(8) -0.21605(7) 0.24571(14)
S3C S -0.66954(9) -0.32034(8) 0.37785(13)
S4C S -0.70967(9) 0.05057(7) 0.40459(14)
F7? F 0.1655(11) 0.356(3) 0.079(3)
F8? F 0.0261(9) 0.3776(17) -0.0074(18)
F9? F 0.140(2) 0.4025(14) -0.035(3)
F10? F 0.1068(17) 0.3116(9) -0.0187(17)
F11? F 0.080(2) 0.4318(10) 0.086(2)
F12? F 0.0637(9) 0.3379(9) 0.1151(9)
loop_
_geom_bond_atom_site_label_1
_geom_bond_atom_site_label_2
_geom_bond_site_symmetry_1
_geom_bond_site_symmetry_2
Ag1 N1 1_555 1_555
Ag2 N2 1_555 1_555
C1 C2 1_555 1_555
C2 H1 1_555 1_555
C3 C2 1_555 1_555
H2 C3 1_555 1_555
C4 C3 1_555 1_555
H3 C4 1_555 1_555
C5 C4 1_555 1_555
H4 C5 1_555 1_555
C6 C1 1_555 1_555
C7 C8 1_555 1_555
C8 C9 1_555 1_555
C9 H5 1_555 1_555
H6 C9 1_555 1_555
C10 N5 1_555 1_555
C11 C12 1_555 1_555
C12 H7 1_555 1_555
H8 C12 1_555 1_555
H9 C12 1_555 1_555
C13 C7 1_555 1_555
H10 C13 1_555 1_555
H11 C13 1_555 1_555
C14 N3 1_555 1_555
C15 C16 1_555 1_555
C16 H12 1_555 1_555
H13 C16 1_555 1_555
H14 C16 1_555 1_555
C17 O1 1_555 1_555
C18 H15 1_555 1_555
H16 C18 1_555 1_555
H17 C18 1_555 1_555
N1 C6 1_555 1_555
N2 C1 1_555 1_555
N3 Ag1 1_555 1_555
N4 C15 1_555 1_555
N5 Ag2 1_555 1_555
N6 C11 1_555 1_555
O2 Ag1 1_555 1_555
P1 F1 1_555 1_555
F2 P1 1_555 1_555
F3 P1 1_555 1_555
F4 P1 1_555 1_555
F5 P1 1_555 1_555
F6 P1 1_555 1_555
F13 P2 1_555 1_555
F14 P2 1_555 1_555
F15 P2 1_555 1_555
F16 P2 1_555 1_555
F17 P2 1_555 1_555
F18 P2 1_555 1_555
S1 C9 1_555 1_555
S2 C13 1_555 1_555
S3 C14 1_555 1_555
S4 C10 1_555 1_555
Ag1C N1C 1_555 1_555
Ag1C_2 N6 1_555 1_555
Ag2C N4 1_555 1_555
Ag2_2 N4C 1_555 1_555
C1C C2C 1_555 1_555
C2C H1C 1_555 1_555
C3C C2C 1_555 1_555
H2C C3C 1_555 1_555
C4C C3C 1_555 1_555
H3C C4C 1_555 1_555
C5C C4C 1_555 1_555
H4C C5C 1_555 1_555
C6C C1C 1_555 1_555
C7C C8C 1_555 1_555
C8C C9C 1_555 1_555
C9C H5C 1_555 1_555
H6C C9C 1_555 1_555
C10C N5C 1_555 1_555
C11C C12C 1_555 1_555
C12C H7C 1_555 1_555
H8C C12C 1_555 1_555
H9C C12C 1_555 1_555
C13C C7C 1_555 1_555
H10C C13C 1_555 1_555
H11C C13C 1_555 1_555
C14C N3C 1_555 1_555
C15C C16C 1_555 1_555
C16C H12C 1_555 1_555
H13C C16C 1_555 1_555
H14C C16C 1_555 1_555
C18C H15C 1_555 1_555
H16C C18C 1_555 1_555
H17C C18C 1_555 1_555
N1C C6C 1_555 1_555
N2C Ag2C 1_555 1_555
N3C Ag1C 1_555 1_555
N4C C15C 1_555 1_555
N4C_2 Ag2 1_555 1_555
N5C Ag2C 1_555 1_555
N6C Ag1 1_555 1_555
N6_2 Ag1C 1_555 1_555
O1D C17 1_555 1_555
O2C Ag1C 1_555 1_555
S1C C9C 1_555 1_555
S2C C13C 1_555 1_555
S3C C14C 1_555 1_555
S4C C10C 1_555 1_555
C5 C6 1_555 1_555
C7 N1 1_555 1_555
C8 N2 1_555 1_555
C10 S1 1_555 1_555
C11 S4 1_555 1_555
C14 S2 1_555 1_555
C15 S3 1_555 1_555
C18 O2 1_555 1_555
N3 N4 1_555 1_555
N5 N6 1_555 1_555
C1C N2C 1_555 1_555
C5C C6C 1_555 1_555
C7C N1C 1_555 1_555
C8C N2C 1_555 1_555
C10C S1C 1_555 1_555
C11C N6C 1_555 1_555
C11C S4C 1_555 1_555
C14C S2C 1_555 1_555
C15C S3C 1_555 1_555
C18C O2C 1_555 1_555
N3C N4C 1_555 1_555
N5C N6C 1_555 1_555

#END
