
#######################################################################
#
#                 Cambridge Crystallographic Data Centre
#                                CCDC 
#
#######################################################################
#
# If this CIF has been generated from an entry in the Cambridge 
# Structural Database, then it will include bibliographic, chemical, 
# crystal, experimental, refinement or atomic coordinate data resulting 
# from the CCDC's data processing and validation procedures.
#
#######################################################################

data_XEDBIS
_symmetry_cell_setting           monoclinic
_symmetry_space_group_name_H-M   'C 2/c'
_symmetry_Int_Tables_number      15
_space_group_name_Hall           '-C 2yn'
loop_
_symmetry_equiv_pos_site_id
_symmetry_equiv_pos_as_xyz
1 x,y,z
2 -x,y,1/2-z
3 1/2+x,1/2+y,z
4 1/2-x,1/2+y,1/2-z
5 -x,-y,-z
6 x,-y,1/2+z
7 1/2-x,1/2-y,-z
8 1/2+x,1/2-y,1/2+z
_cell_length_a                   20.423(7)
_cell_length_b                   12.372(5)
_cell_length_c                   18.104(6)
_cell_angle_alpha                90.00
_cell_angle_beta                 108.185(5)
_cell_angle_gamma                90.00
_cell_volume                     4345.92
loop_
_atom_site_label
_atom_site_type_symbol
_atom_site_fract_x
_atom_site_fract_y
_atom_site_fract_z
Ag1 Ag 0.42848(2) 0.40209(3) 0.45500(3)
S1 S 0.47306(6) 0.85047(9) 0.40973(8)
S2 S 0.34317(7) 0.75554(10) 0.43849(9)
S3 S 0.31962(8) 1.12335(11) 0.47127(11)
S4 S 0.34734(13) 1.18816(15) 0.63456(12)
N1 N 0.4047(2) 0.5764(3) 0.4572(2)
N2 N 0.44808(19) 1.2560(3) 0.3852(2)
N3 N 0.5059(2) 1.0544(3) 0.3749(2)
N4 N 0.45107(19) 0.6498(3) 0.4444(2)
N5 N 0.3792(2) 1.3106(3) 0.5394(3)
N6 N 0.3985(3) 1.3677(4) 0.6093(3)
C1 C 0.5090(2) 1.2490(3) 0.3691(3)
C2 C 0.3426(2) 1.1785(4) 0.3912(3)
H1 H 0.3128 1.1457 0.3440
H2 H 0.3320 1.2551 0.3884
C3 C 0.5367(2) 1.1468(4) 0.3607(3)
C4 C 0.4256(2) 0.7464(3) 0.4329(3)
C5 C 0.3472(2) 0.6196(4) 0.4573(3)
C6 C 0.4150(2) 1.1664(3) 0.3907(3)
C7 C 0.4473(2) 1.0637(3) 0.3893(3)
C8 C 0.3524(3) 1.2174(4) 0.5438(3)
C9 C 0.5967(3) 1.1398(4) 0.3386(3)
H3 H 0.6145 1.0728 0.3317
C10 C 0.4157(3) 0.9624(4) 0.4092(4)
H4 H 0.3711 0.9497 0.3710
H5 H 0.4094 0.9696 0.4599
C11 C 0.2896(3) 0.5580(5) 0.4718(4)
H6 H 0.3025 0.4834 0.4809
H7 H 0.2492 0.5637 0.4272
H8 H 0.2801 0.5873 0.5165
C12 C 0.3858(4) 1.3138(6) 0.6646(4)
C13 C 0.6025(3) 1.3333(4) 0.3377(3)
H9 H 0.6255 1.3954 0.3305
C14 C 0.6283(3) 1.2326(5) 0.3275(3)
H10 H 0.6680 1.2283 0.3128
C15 C 0.5438(3) 1.3424(4) 0.3582(3)
H11 H 0.5270 1.4104 0.3649
C16 C 0.4018(5) 1.3533(7) 0.7457(4)
H12 H 0.4225 1.4236 0.7499
H13 H 0.4332 1.3042 0.7803
H14 H 0.3601 1.3576 0.7593
Ag1_2 Ag 0.42848(2) 1.40209(3) 0.45500(3)
Ag1D Ag 0.57152(2) 0.59791(3) 0.54500(3)
N2_2 N 0.44808(19) 0.2560(3) 0.3852(2)
N4D N 0.54893(19) 0.3502(3) 0.5556(2)
N5_2 N 0.3792(2) 0.3106(3) 0.5394(3)
Cl1 Cl 0.24468(7) 0.94328(12) 0.25032(8)
O1 O 0.2378(2) 0.9734(4) 0.3231(2)
O2 O 0.2879(4) 1.0147(5) 0.2297(3)
O3 O 0.2739(3) 0.8377(5) 0.2593(3)
O4 O 0.1803(3) 0.9360(5) 0.1936(3)
loop_
_geom_bond_atom_site_label_1
_geom_bond_atom_site_label_2
_geom_bond_site_symmetry_1
_geom_bond_site_symmetry_2
Ag1 N1 1_555 1_555
S1 C4 1_555 1_555
S2 C4 1_555 1_555
Cl1 O1 1_555 1_555
S3 C2 1_555 1_555
S4 C8 1_555 1_555
N1 N4 1_555 1_555
N2 C1 1_555 1_555
N3 C3 1_555 1_555
N4 C4 1_555 1_555
N5 N6 1_555 1_555
N6 C12 1_555 1_555
C1 C3 1_555 1_555
C2 H1 1_555 1_555
H2 C2 1_555 1_555
C3 C9 1_555 1_555
C5 S2 1_555 1_555
C6 N2 1_555 1_555
C7 N3 1_555 1_555
C8 S3 1_555 1_555
O2 Cl1 1_555 1_555
C9 H3 1_555 1_555
O3 Cl1 1_555 1_555
C10 S1 1_555 1_555
H4 C10 1_555 1_555
H5 C10 1_555 1_555
C11 C5 1_555 1_555
H6 C11 1_555 1_555
H7 C11 1_555 1_555
H8 C11 1_555 1_555
C12 S4 1_555 1_555
C13 H9 1_555 1_555
O4 Cl1 1_555 1_555
C14 C9 1_555 1_555
H10 C14 1_555 1_555
C15 C1 1_555 1_555
H11 C15 1_555 1_555
C16 C12 1_555 1_555
H12 C16 1_555 1_555
H13 C16 1_555 1_555
H14 C16 1_555 1_555
Ag1_2 N2 1_555 1_555
Ag1D N4 1_555 1_555
N2_2 Ag1 1_555 1_555
N4D Ag1 1_555 1_555
N5_2 Ag1 1_555 1_555
N1 C5 1_555 1_555
N5 C8 1_555 1_555
N5 Ag1_2 1_555 1_555
C2 C6 1_555 1_555
C6 C7 1_555 1_555
C7 C10 1_555 1_555
C13 C14 1_555 1_555
C13 C15 1_555 1_555

#END
