
#######################################################################
#
#                 Cambridge Crystallographic Data Centre
#                                CCDC 
#
#######################################################################
#
# If this CIF has been generated from an entry in the Cambridge 
# Structural Database, then it will include bibliographic, chemical, 
# crystal, experimental, refinement or atomic coordinate data resulting 
# from the CCDC's data processing and validation procedures.
#
#######################################################################

data_XEDCIT
_symmetry_cell_setting           monoclinic
_symmetry_space_group_name_H-M   'P 21/c'
_symmetry_Int_Tables_number      14
_space_group_name_Hall           '-P 2ybc'
loop_
_symmetry_equiv_pos_site_id
_symmetry_equiv_pos_as_xyz
1 x,y,z
2 -x,1/2+y,1/2-z
3 -x,-y,-z
4 x,1/2-y,1/2+z
_cell_length_a                   11.4296(3)
_cell_length_b                   24.4512(7)
_cell_length_c                   13.3378(5)
_cell_angle_alpha                90.00
_cell_angle_beta                 91.5850(10)
_cell_angle_gamma                90.00
_cell_volume                     3726.05
loop_
_atom_site_label
_atom_site_type_symbol
_atom_site_fract_x
_atom_site_fract_y
_atom_site_fract_z
Ag1 Ag 0.18636(7) 0.57068(4) 0.08182(7)
S1 S 0.1722(3) 0.69055(14) -0.0885(2)
O1 O 0.1806(7) 0.6290(4) -0.0841(5)
N1 N -0.0032(7) 0.5587(4) 0.0815(7)
C1 C -0.4422(8) 0.5385(4) 0.1599(8)
H1 H -0.4023 0.5236 0.2171
S2 S 0.2276(3) 0.67025(14) 0.2973(2)
O2 O 0.2099(10) 0.6538(4) 0.1880(6)
N2 N -0.6261(7) 0.5603(4) 0.0761(7)
C2 C -0.4431(9) 0.5792(5) -0.0005(8)
H2 H -0.4045 0.5936 -0.0568
C3 C -0.3782(8) 0.5583(4) 0.0795(7)
C4 C -0.2495(8) 0.5583(4) 0.0819(7)
C5 C -0.1823(9) 0.5481(5) 0.1671(8)
H3 H -0.2202 0.5411 0.2282
C6 C -0.0639(9) 0.5476(5) 0.1665(8)
H4 H -0.0215 0.5394 0.2269
C7 C -0.1845(8) 0.5674(4) -0.0057(7)
H5 H -0.2255 0.5730 -0.0678
C8 C -0.0682(8) 0.5683(4) -0.0039(8)
H6 H -0.0290 0.5759 -0.0642
C9 C -0.5603(9) 0.5405(5) 0.1565(8)
H7 H -0.6007 0.5274 0.2130
C10 C -0.5646(9) 0.5791(5) 0.0010(8)
H8 H -0.6063 0.5935 -0.0557
C11 C 0.0605(13) 0.7102(6) -0.0009(10)
H9 H -0.0154 0.6956 -0.0239
H10 H 0.0561 0.7502 0.0028
H11 H 0.0806 0.6954 0.0657
C12 C 0.2957(14) 0.7163(6) -0.0208(11)
H12 H 0.2973 0.7014 0.0473
H13 H 0.2910 0.7563 -0.0177
H14 H 0.3672 0.7056 -0.0547
C13 C 0.1125(15) 0.6400(8) 0.3594(12)
H15 H 0.0382 0.6500 0.3258
H16 H 0.1127 0.6527 0.4290
H17 H 0.1217 0.6001 0.3583
C14 C 0.3393(12) 0.6295(6) 0.3483(10)
H18 H 0.3265 0.5914 0.3278
H19 H 0.3394 0.6320 0.4216
H20 H 0.4148 0.6421 0.3240
Ag1_2 Ag -0.81364(7) 0.57068(4) 0.08182(7)
N2_2 N 0.3739(7) 0.5603(4) 0.0761(7)
Co1 Co 0.27062(11) 0.33760(5) 0.34017(9)
C17 C 0.2743(8) 0.3738(4) 0.4806(7)
H27 H 0.2977 0.3412 0.5365
C18 C 0.3709(9) 0.3976(4) 0.4070(7)
H28 H 0.4636 0.3827 0.4104
C19 C 0.2514(10) 0.2587(4) 0.3849(8)
H29 H 0.2159 0.2605 0.4623
C20 C 0.3844(9) 0.2753(4) 0.3650(8)
H30 H 0.4464 0.2893 0.4263
B1 B 0.1370(10) 0.3737(5) 0.4235(9)
H31 H 0.0654 0.3436 0.4376
B2 B 0.1551(10) 0.4024(6) 0.3032(8)
H32 H 0.0952 0.3931 0.2376
B3 B 0.3086(10) 0.4158(5) 0.2900(9)
H33 H 0.3521 0.4148 0.2157
B4 B 0.1773(11) 0.4233(5) 0.5204(8)
H34 H 0.1346 0.4246 0.5949
B5 B 0.1061(12) 0.4434(5) 0.4067(10)
H35 H 0.0142 0.4593 0.4077
B6 B 0.2120(10) 0.4705(5) 0.3242(9)
H36 H 0.1914 0.5044 0.2702
B7 B 0.3496(10) 0.4662(5) 0.3875(9)
H37 H 0.4213 0.4965 0.3753
B8 B 0.3293(12) 0.4372(5) 0.5084(10)
H38 H 0.3865 0.4476 0.5752
B9 B 0.2245(11) 0.4827(6) 0.4554(11)
H39 H 0.2116 0.5246 0.4870
B10 B 0.3995(9) 0.3031(5) 0.2511(9)
H40 H 0.4670 0.3340 0.2301
B11 B 0.2542(10) 0.3039(5) 0.1939(9)
H41 H 0.2238 0.3339 0.1353
B12 B 0.1605(11) 0.2757(5) 0.2889(10)
H42 H 0.0665 0.2880 0.2943
B13 B 0.3438(12) 0.2064(6) 0.3682(10)
H43 H 0.3707 0.1758 0.4269
B14 B 0.2058(13) 0.2057(5) 0.3126(9)
H44 H 0.1410 0.1737 0.3339
B15 B 0.2102(11) 0.2312(5) 0.1887(9)
H45 H 0.1498 0.2158 0.1275
B16 B 0.3590(11) 0.2498(5) 0.1667(8)
H46 H 0.3973 0.2466 0.0906
B17 B 0.4431(10) 0.2345(6) 0.2783(9)
H47 H 0.5371 0.2217 0.2776
B18 B 0.3257(12) 0.1898(6) 0.2386(9)
H48 H 0.3424 0.1477 0.2095
S3 S 0.3028(2) 0.65036(13) 0.6859(2)
O3 O 0.1519(13) 0.6464(8) 0.6576(11)
C15 C 0.3294(13) 0.5807(5) 0.7136(10)
H21 H 0.3180 0.5588 0.6525
H22 H 0.2749 0.5683 0.7643
H23 H 0.4100 0.5763 0.7393
C16 C 0.3598(7) 0.6600(4) 0.5861(6)
H24 H 0.3333 0.6320 0.5380
H25 H 0.4451 0.6579 0.5952
H26 H 0.3379 0.6962 0.5605
loop_
_geom_bond_atom_site_label_1
_geom_bond_atom_site_label_2
_geom_bond_site_symmetry_1
_geom_bond_site_symmetry_2
Ag1 O1 1_555 1_555
Co1 C17 1_555 1_555
S1 O1 1_555 1_555
N1 Ag1 1_555 1_555
C1 H1 1_555 1_555
S2 O2 1_555 1_555
O2 Ag1 1_555 1_555
N2 C9 1_555 1_555
C2 H2 1_555 1_555
S3 O3 1_555 1_555
C3 C1 1_555 1_555
C4 C3 1_555 1_555
C5 C4 1_555 1_555
H3 C5 1_555 1_555
C6 N1 1_555 1_555
H4 C6 1_555 1_555
C7 C4 1_555 1_555
H5 C7 1_555 1_555
C8 N1 1_555 1_555
H6 C8 1_555 1_555
C9 C1 1_555 1_555
H7 C9 1_555 1_555
C10 N2 1_555 1_555
H8 C10 1_555 1_555
C11 S1 1_555 1_555
H9 C11 1_555 1_555
H10 C11 1_555 1_555
H11 C11 1_555 1_555
C12 S1 1_555 1_555
H12 C12 1_555 1_555
H13 C12 1_555 1_555
H14 C12 1_555 1_555
C13 S2 1_555 1_555
H15 C13 1_555 1_555
H16 C13 1_555 1_555
H17 C13 1_555 1_555
C14 S2 1_555 1_555
H18 C14 1_555 1_555
H19 C14 1_555 1_555
H20 C14 1_555 1_555
C15 S3 1_555 1_555
H21 C15 1_555 1_555
H22 C15 1_555 1_555
H23 C15 1_555 1_555
C16 S3 1_555 1_555
H24 C16 1_555 1_555
H25 C16 1_555 1_555
H26 C16 1_555 1_555
C17 H27 1_555 1_555
C18 Co1 1_555 1_555
H28 C18 1_555 1_555
C19 Co1 1_555 1_555
H29 C19 1_555 1_555
C20 Co1 1_555 1_555
H30 C20 1_555 1_555
B1 Co1 1_555 1_555
H31 B1 1_555 1_555
B2 Co1 1_555 1_555
H32 B2 1_555 1_555
B3 Co1 1_555 1_555
H33 B3 1_555 1_555
B4 C17 1_555 1_555
H34 B4 1_555 1_555
B5 B1 1_555 1_555
H35 B5 1_555 1_555
B6 B2 1_555 1_555
H36 B6 1_555 1_555
B7 C18 1_555 1_555
H37 B7 1_555 1_555
B8 C17 1_555 1_555
H38 B8 1_555 1_555
B9 B4 1_555 1_555
H39 B9 1_555 1_555
B10 Co1 1_555 1_555
H40 B10 1_555 1_555
B11 Co1 1_555 1_555
H41 B11 1_555 1_555
B12 Co1 1_555 1_555
H42 B12 1_555 1_555
B13 C19 1_555 1_555
H43 B13 1_555 1_555
B14 C19 1_555 1_555
H44 B14 1_555 1_555
B15 B11 1_555 1_555
H45 B15 1_555 1_555
B16 B10 1_555 1_555
H46 B16 1_555 1_555
B17 C20 1_555 1_555
H47 B17 1_555 1_555
B18 B13 1_555 1_555
H48 B18 1_555 1_555
Ag1_2 N2 1_555 1_555
N2_2 Ag1 1_555 1_555
C2 C3 1_555 1_555
C2 C10 1_555 1_555
C5 C6 1_555 1_555
C7 C8 1_555 1_555
C17 C18 1_555 1_555
C17 B1 1_555 1_555
C18 B3 1_555 1_555
C18 B8 1_555 1_555
C19 C20 1_555 1_555
C19 B12 1_555 1_555
C20 B10 1_555 1_555
C20 B13 1_555 1_555
B1 B2 1_555 1_555
B1 B4 1_555 1_555
B2 B3 1_555 1_555
B2 B5 1_555 1_555
B3 B6 1_555 1_555
B3 B7 1_555 1_555
B4 B5 1_555 1_555
B4 B8 1_555 1_555
B5 B6 1_555 1_555
B5 B9 1_555 1_555
B6 B7 1_555 1_555
B6 B9 1_555 1_555
B7 B8 1_555 1_555
B7 B9 1_555 1_555
B8 B9 1_555 1_555
B10 B11 1_555 1_555
B10 B17 1_555 1_555
B11 B12 1_555 1_555
B11 B16 1_555 1_555
B12 B14 1_555 1_555
B12 B15 1_555 1_555
B13 B14 1_555 1_555
B13 B17 1_555 1_555
B14 B15 1_555 1_555
B14 B18 1_555 1_555
B15 B16 1_555 1_555
B15 B18 1_555 1_555
B16 B17 1_555 1_555
B16 B18 1_555 1_555
B17 B18 1_555 1_555

#END
