
#######################################################################
#
#                 Cambridge Crystallographic Data Centre
#                                CCDC 
#
#######################################################################
#
# If this CIF has been generated from an entry in the Cambridge 
# Structural Database, then it will include bibliographic, chemical, 
# crystal, experimental, refinement or atomic coordinate data resulting 
# from the CCDC's data processing and validation procedures.
#
#######################################################################

data_XEDCEP
_symmetry_cell_setting           triclinic
_symmetry_space_group_name_H-M   'P -1'
_symmetry_Int_Tables_number      2
_space_group_name_Hall           '-P 1'
loop_
_symmetry_equiv_pos_site_id
_symmetry_equiv_pos_as_xyz
1 x,y,z
2 -x,-y,-z
_cell_length_a                   7.2351(5)
_cell_length_b                   11.4767(7)
_cell_length_c                   17.6132(9)
_cell_angle_alpha                105.897(2)
_cell_angle_beta                 93.141(2)
_cell_angle_gamma                95.617(3)
_cell_volume                     1394.73
loop_
_atom_site_label
_atom_site_type_symbol
_atom_site_fract_x
_atom_site_fract_y
_atom_site_fract_z
Ag1 Ag 0.243185(14) 0.343505(8) 0.020813(6)
C1 C 0.24789(16) -0.22395(11) 0.01307(6)
C2 C 0.25146(15) -0.09406(10) 0.01410(6)
N1 N 0.25562(15) 0.15297(10) 0.01629(6)
N2 N 0.24357(15) -0.47010(10) 0.01362(6)
C3 C 0.19872(17) -0.06099(11) -0.05413(6)
C5 C 0.20397(18) 0.06212(11) -0.05080(7)
C6 C 0.21032(17) -0.26098(11) 0.08068(6)
C7 C 0.2796(2) -0.43505(12) -0.05214(7)
C10 C 0.28126(19) -0.31509(11) -0.05506(7)
C11 C 0.30615(17) 0.00085(11) 0.08390(7)
C12 C 0.30537(18) 0.12127(11) 0.08265(7)
N3 N 0.1803(3) 0.39404(15) 0.17038(9)
C14 C 0.20816(18) -0.38326(11) 0.07837(7)
C15 C 0.1942(2) 0.43076(14) 0.23760(9)
C16 C 0.2114(3) 0.4784(2) 0.32379(10)
H19 H 0.310(3) -0.4984(18) -0.0966(11)
H21 H 0.182(3) -0.4101(18) 0.1223(11)
H22 H 0.186(3) -0.2034(18) 0.1270(11)
H23 H 0.347(2) -0.0166(17) 0.1325(10)
H24 H 0.343(2) 0.1859(16) 0.1299(10)
H26 H 0.306(3) -0.3004(19) -0.1045(12)
H29 H 0.166(2) 0.0843(16) -0.0955(10)
H30 H 0.158(2) -0.1209(16) -0.1027(10)
H31 H 0.322(5) 0.487(3) 0.3476(18)
H32 H 0.133(5) 0.531(3) 0.343(2)
H33 H 0.137(7) 0.430(5) 0.352(3)
Ag1_2 Ag 0.243185(14) -0.656495(8) 0.020813(6)
N2_2 N 0.24357(15) 0.52990(10) 0.01362(6)
Co1 Co 0.27373(2) 0.006643(14) -0.335339(8)
C4 C 0.41391(16) 0.17614(12) -0.31991(7)
B1 B 0.03802(18) 0.09518(13) -0.35276(7)
B2 B 0.18603(19) 0.25619(13) -0.20106(7)
B3 B -0.00713(19) 0.22334(13) -0.27476(7)
B4 B 0.0796(2) 0.24786(14) -0.36229(8)
C8 C 0.23835(17) 0.14551(11) -0.38656(6)
B5 B 0.3267(2) -0.12104(14) -0.27334(7)
C9 C 0.20006(18) -0.14532(12) -0.42866(7)
B6 B 0.1310(2) -0.16158(13) -0.34339(8)
B7 B 0.34869(18) 0.14931(13) -0.23311(7)
B8 B 0.1696(2) 0.34790(14) -0.26809(8)
C13 C 0.4255(2) -0.09503(14) -0.42066(8)
B9 B 0.38860(19) 0.30136(13) -0.24446(8)
B10 B 0.10013(18) 0.10015(13) -0.25153(7)
B11 B 0.4879(2) -0.22739(15) -0.31213(8)
B12 B 0.3209(2) 0.29750(14) -0.34338(8)
B13 B 0.3478(2) -0.24812(15) -0.47172(8)
B14 B 0.1586(2) -0.29179(15) -0.42178(9)
B15 B 0.51929(19) -0.07762(14) -0.32441(8)
B16 B 0.2447(3) -0.27841(15) -0.32280(9)
B17 B 0.5520(2) -0.20869(15) -0.40480(9)
B18 B 0.3839(2) -0.33329(15) -0.40282(9)
H1 H 0.398(3) 0.345(2) -0.3784(12)
H2 H 0.011(3) 0.2724(19) -0.4099(11)
H3 H 0.270(2) 0.1218(16) -0.4386(10)
H4 H 0.340(3) -0.2769(19) -0.5347(12)
H5 H -0.150(3) 0.2448(18) -0.2573(11)
H6 H 0.533(3) 0.1740(17) -0.3366(10)
H7 H 0.409(3) -0.428(2) -0.4234(12)
H8 H -0.071(3) 0.0337(18) -0.3949(11)
H9 H 0.035(3) -0.349(2) -0.4506(13)
H10 H 0.684(3) -0.221(2) -0.4296(13)
H11 H 0.023(2) 0.0439(16) -0.2182(10)
H12 H 0.581(3) -0.2573(19) -0.2728(12)
H13 H 0.145(3) 0.4434(19) -0.2491(12)
H14 H 0.509(3) 0.3662(18) -0.2155(11)
H15 H 0.012(3) -0.157(2) -0.3350(12)
H16 H 0.118(3) -0.1276(18) -0.4659(11)
H17 H 0.178(3) -0.334(2) -0.2924(13)
H18 H 0.449(2) 0.1322(17) -0.1913(10)
H20 H 0.479(3) -0.042(2) -0.4611(12)
H25 H 0.640(3) -0.0174(19) -0.3012(12)
H27 H 0.320(3) -0.092(2) -0.2102(12)
H28 H 0.169(3) 0.2915(18) -0.1395(11)
loop_
_geom_bond_atom_site_label_1
_geom_bond_atom_site_label_2
_geom_bond_site_symmetry_1
_geom_bond_site_symmetry_2
Ag1 N1 1_555 1_555
Co1 C4 1_555 1_555
C1 C2 1_555 1_555
C2 C3 1_555 1_555
N1 C5 1_555 1_555
N2 C7 1_555 1_555
C3 C5 1_555 1_555
C4 C8 1_555 1_555
B1 Co1 1_555 1_555
B2 B3 1_555 1_555
C5 H29 1_555 1_555
B3 B1 1_555 1_555
C6 C1 1_555 1_555
C7 C10 1_555 1_555
B4 B1 1_555 1_555
C8 Co1 1_555 1_555
B5 Co1 1_555 1_555
C9 Co1 1_555 1_555
B6 Co1 1_555 1_555
B7 Co1 1_555 1_555
B8 B2 1_555 1_555
C10 C1 1_555 1_555
C11 C2 1_555 1_555
C12 N1 1_555 1_555
C13 Co1 1_555 1_555
B9 C4 1_555 1_555
B10 Co1 1_555 1_555
B11 B5 1_555 1_555
B12 C4 1_555 1_555
N3 Ag1 1_555 1_555
B13 C9 1_555 1_555
B14 C9 1_555 1_555
B15 Co1 1_555 1_555
B16 B5 1_555 1_555
B17 C13 1_555 1_555
B18 B11 1_555 1_555
C14 N2 1_555 1_555
C15 N3 1_555 1_555
C16 C15 1_555 1_555
H1 B12 1_555 1_555
H2 B4 1_555 1_555
H3 C8 1_555 1_555
H4 B13 1_555 1_555
H5 B3 1_555 1_555
H6 C4 1_555 1_555
H7 B18 1_555 1_555
H8 B1 1_555 1_555
H9 B14 1_555 1_555
H10 B17 1_555 1_555
H11 B10 1_555 1_555
H12 B11 1_555 1_555
H13 B8 1_555 1_555
H14 B9 1_555 1_555
H15 B6 1_555 1_555
H16 C9 1_555 1_555
H17 B16 1_555 1_555
H18 B7 1_555 1_555
H19 C7 1_555 1_555
H20 C13 1_555 1_555
H21 C14 1_555 1_555
H22 C6 1_555 1_555
H23 C11 1_555 1_555
H24 C12 1_555 1_555
H25 B15 1_555 1_555
H26 C10 1_555 1_555
H27 B5 1_555 1_555
H28 B2 1_555 1_555
H30 C3 1_555 1_555
H31 C16 1_555 1_555
H32 C16 1_555 1_555
H33 C16 1_555 1_555
Ag1_2 N2 1_555 1_555
N2_2 Ag1 1_555 1_555
C4 B7 1_555 1_555
B1 C8 1_555 1_555
B1 B10 1_555 1_555
B2 B7 1_555 1_555
B2 B9 1_555 1_555
B2 B10 1_555 1_555
B3 B4 1_555 1_555
B3 B8 1_555 1_555
B3 B10 1_555 1_555
C6 C14 1_555 1_555
B4 C8 1_555 1_555
B4 B8 1_555 1_555
B4 B12 1_555 1_555
C8 B12 1_555 1_555
B5 B6 1_555 1_555
B5 B15 1_555 1_555
C9 B6 1_555 1_555
C9 C13 1_555 1_555
B6 B14 1_555 1_555
B6 B16 1_555 1_555
B7 B9 1_555 1_555
B7 B10 1_555 1_555
B8 B9 1_555 1_555
B8 B12 1_555 1_555
C11 C12 1_555 1_555
C13 B13 1_555 1_555
C13 B15 1_555 1_555
B9 B12 1_555 1_555
B11 B15 1_555 1_555
B11 B16 1_555 1_555
B11 B17 1_555 1_555
B13 B14 1_555 1_555
B13 B17 1_555 1_555
B13 B18 1_555 1_555
B14 B16 1_555 1_555
B14 B18 1_555 1_555
B15 B17 1_555 1_555
B16 B18 1_555 1_555
B17 B18 1_555 1_555

#END
