
#######################################################################
#
#                 Cambridge Crystallographic Data Centre
#                                CCDC 
#
#######################################################################
#
# If this CIF has been generated from an entry in the Cambridge 
# Structural Database, then it will include bibliographic, chemical, 
# crystal, experimental, refinement or atomic coordinate data resulting 
# from the CCDC's data processing and validation procedures.
#
#######################################################################

data_XEDCEP01
_symmetry_cell_setting           monoclinic
_symmetry_space_group_name_H-M   'P 21/n'
_symmetry_Int_Tables_number      14
_space_group_name_Hall           '-P 2yn'
loop_
_symmetry_equiv_pos_site_id
_symmetry_equiv_pos_as_xyz
1 x,y,z
2 1/2-x,1/2+y,1/2-z
3 -x,-y,-z
4 1/2+x,1/2-y,1/2+z
_cell_length_a                   20.2221(2)
_cell_length_b                   7.02180(10)
_cell_length_c                   21.8604(3)
_cell_angle_alpha                90.00
_cell_angle_beta                 114.4580(10)
_cell_angle_gamma                90.00
_cell_volume                     2825.53
loop_
_atom_site_label
_atom_site_type_symbol
_atom_site_fract_x
_atom_site_fract_y
_atom_site_fract_z
Ag1 Ag 0.175968(19) 0.78579(6) 0.160854(16)
N1 N 0.2664(2) 0.7906(6) 0.25831(19)
C1 C 0.5142(3) 0.6935(7) 0.5639(2)
N2 N 0.5797(2) 0.7393(5) 0.56797(19)
C2 C 0.3954(3) 0.7767(7) 0.3204(2)
H1 H 0.4418 0.7708 0.3193
C3 C 0.3896(2) 0.7777(7) 0.3811(2)
C4 C 0.3330(3) 0.7844(7) 0.2610(2)
H2 H 0.3384 0.7854 0.2198
C5 C 0.4555(2) 0.7656(6) 0.4459(2)
C6 C 0.2990(3) 0.8375(8) 0.0733(2)
C7 C 0.5842(3) 0.7998(7) 0.5105(2)
C9 C 0.4511(3) 0.7021(7) 0.5045(2)
C12 C 0.2598(3) 0.7920(8) 0.3176(2)
H7 H 0.2125 0.7977 0.3169
N3 N 0.2550(3) 0.8320(8) 0.0926(2)
C14 C 0.5243(3) 0.8148(7) 0.4499(2)
C15 C 0.3199(3) 0.7855(8) 0.3795(2)
C16 C 0.3555(3) 0.8420(9) 0.0485(3)
H19 H 0.4031 0.8271 0.0863
H20 H 0.3537 0.9641 0.0262
H21 H 0.3478 0.7379 0.0164
H24 H 0.638(2) 0.824(7) 0.514(2)
H26 H 0.530(2) 0.866(6) 0.409(2)
H29 H 0.410(2) 0.677(6) 0.504(2)
H30 H 0.310(3) 0.788(7) 0.422(3)
H31 H 0.512(2) 0.649(7) 0.603(2)
Ag1C Ag 0.675968(19) 0.71421(6) 0.660854(16)
N2C N 0.0797(2) 0.7607(5) 0.06797(19)
Co1 Co -0.11311(3) 0.73904(9) 0.21000(3)
B1 B -0.1540(3) 0.6589(9) 0.1093(3)
C8 C -0.2196(2) 0.7933(7) 0.1884(2)
H3 H -0.2205 0.9052 0.2246
B2 B -0.0023(3) 0.9931(9) 0.3437(3)
B3 B 0.0581(3) 0.8619(8) 0.2532(3)
H4 H 0.1004 0.8806 0.2331
C10 C -0.0646(3) 0.8092(7) 0.3101(2)
H5 H -0.1067 0.7957 0.3307
C11 C -0.0662(2) 0.9839(7) 0.2609(2)
H6 H -0.1100 1.0946 0.2459
B4 B -0.2208(3) 0.4788(9) 0.0815(3)
H8 H -0.2210 0.3701 0.0440
B5 B 0.0224(3) 0.7507(9) 0.3621(3)
B6 B 0.0776(3) 0.9069(9) 0.3395(3)
B7 B -0.0339(3) 0.9201(8) 0.2045(2)
H9 H -0.0518 0.9830 0.1531
C13 C -0.1976(2) 0.8472(8) 0.1275(2)
H10 H -0.1830 0.9961 0.1195
B8 B -0.2888(3) 0.8072(10) 0.1089(3)
B9 B -0.0066(3) 0.6763(8) 0.2222(2)
H11 H -0.0044 0.5749 0.1835
B10 B 0.0188(3) 1.0619(9) 0.2768(3)
H12 H 0.0340 1.2131 0.2723
B11 B 0.0604(3) 0.6693(9) 0.3070(3)
H13 H 0.1043 0.5590 0.3233
B12 B -0.2463(3) 0.4200(9) 0.1487(3)
H14 H -0.2637 0.2737 0.1563
B13 B -0.1524(3) 0.4700(9) 0.1655(3)
H15 H -0.1105 0.3543 0.1819
B14 B -0.0300(3) 0.6060(9) 0.2909(2)
H16 H -0.0447 0.4566 0.2982
B15 B -0.2860(3) 0.6273(9) 0.1653(3)
H17 H -0.3291 0.6193 0.1848
B16 B -0.3042(3) 0.5699(10) 0.0808(3)
B17 B -0.2478(3) 0.7165(9) 0.0574(3)
B18 B -0.1936(3) 0.5684(9) 0.2182(3)
H18 H -0.1779 0.5198 0.2711
H22 H 0.039(3) 0.695(8) 0.412(3)
H23 H -0.361(2) 0.518(7) 0.047(2)
H25 H -0.263(3) 0.794(6) 0.006(2)
H27 H -0.008(2) 1.102(7) 0.378(2)
H28 H -0.328(2) 0.930(7) 0.095(2)
H32 H -0.122(2) 0.680(7) 0.087(2)
H33 H 0.128(3) 0.960(8) 0.375(2)
loop_
_geom_bond_atom_site_label_1
_geom_bond_atom_site_label_2
_geom_bond_site_symmetry_1
_geom_bond_site_symmetry_2
Ag1 N1 1_555 1_555
Co1 B1 1_555 1_555
N1 C4 1_555 1_555
C1 N2 1_555 1_555
N2 C7 1_555 1_555
C2 H1 1_555 1_555
C3 C2 1_555 1_555
C4 C2 1_555 1_555
H2 C4 1_555 1_555
C5 C3 1_555 1_555
C6 N3 1_555 1_555
B1 B4 1_555 1_555
C7 C14 1_555 1_555
C8 Co1 1_555 1_555
H3 C8 1_555 1_555
C9 C1 1_555 1_555
B2 C10 1_555 1_555
B3 H4 1_555 1_555
C10 Co1 1_555 1_555
H5 C10 1_555 1_555
C11 Co1 1_555 1_555
H6 C11 1_555 1_555
C12 N1 1_555 1_555
H7 C12 1_555 1_555
B4 H8 1_555 1_555
B5 B2 1_555 1_555
B6 B2 1_555 1_555
B7 Co1 1_555 1_555
H9 B7 1_555 1_555
C13 Co1 1_555 1_555
H10 C13 1_555 1_555
N3 Ag1 1_555 1_555
C14 C5 1_555 1_555
C15 C3 1_555 1_555
B8 C8 1_555 1_555
B9 Co1 1_555 1_555
H11 B9 1_555 1_555
B10 B2 1_555 1_555
H12 B10 1_555 1_555
B11 B3 1_555 1_555
H13 B11 1_555 1_555
B12 B4 1_555 1_555
H14 B12 1_555 1_555
B13 Co1 1_555 1_555
H15 B13 1_555 1_555
B14 Co1 1_555 1_555
H16 B14 1_555 1_555
B15 C8 1_555 1_555
H17 B15 1_555 1_555
B16 B4 1_555 1_555
B17 B1 1_555 1_555
B18 Co1 1_555 1_555
H18 B18 1_555 1_555
C16 C6 1_555 1_555
H19 C16 1_555 1_555
H20 C16 1_555 1_555
H21 C16 1_555 1_555
H22 B5 1_555 1_555
H23 B16 1_555 1_555
H24 C7 1_555 1_555
H25 B17 1_555 1_555
H26 C14 1_555 1_555
H27 B2 1_555 1_555
H28 B8 1_555 1_555
H29 C9 1_555 1_555
H30 C15 1_555 1_555
H31 C1 1_555 1_555
H32 B1 1_555 1_555
H33 B6 1_555 1_555
Ag1C N2 1_555 1_555
N2C Ag1 1_555 1_555
C5 C9 1_555 1_555
B1 C13 1_555 1_555
B1 B13 1_555 1_555
C8 C13 1_555 1_555
C8 B18 1_555 1_555
B2 C11 1_555 1_555
B3 B6 1_555 1_555
B3 B7 1_555 1_555
B3 B9 1_555 1_555
B3 B10 1_555 1_555
C10 C11 1_555 1_555
C10 B5 1_555 1_555
C10 B14 1_555 1_555
C11 B7 1_555 1_555
C11 B10 1_555 1_555
C12 C15 1_555 1_555
B4 B13 1_555 1_555
B4 B17 1_555 1_555
B5 B6 1_555 1_555
B5 B11 1_555 1_555
B5 B14 1_555 1_555
B6 B10 1_555 1_555
B6 B11 1_555 1_555
B7 B9 1_555 1_555
B7 B10 1_555 1_555
C13 B8 1_555 1_555
C13 B17 1_555 1_555
B8 B15 1_555 1_555
B8 B16 1_555 1_555
B8 B17 1_555 1_555
B9 B11 1_555 1_555
B9 B14 1_555 1_555
B11 B14 1_555 1_555
B12 B13 1_555 1_555
B12 B15 1_555 1_555
B12 B16 1_555 1_555
B12 B18 1_555 1_555
B13 B18 1_555 1_555
B15 B16 1_555 1_555
B15 B18 1_555 1_555
B16 B17 1_555 1_555

#END
