
#######################################################################
#
#                 Cambridge Crystallographic Data Centre
#                                CCDC 
#
#######################################################################
#
# If this CIF has been generated from an entry in the Cambridge 
# Structural Database, then it will include bibliographic, chemical, 
# crystal, experimental, refinement or atomic coordinate data resulting 
# from the CCDC's data processing and validation procedures.
#
#######################################################################

data_XEDCAL
_symmetry_cell_setting           monoclinic
_symmetry_space_group_name_H-M   'P 21/n'
_symmetry_Int_Tables_number      14
_space_group_name_Hall           '-P 2yn'
loop_
_symmetry_equiv_pos_site_id
_symmetry_equiv_pos_as_xyz
1 x,y,z
2 1/2-x,1/2+y,1/2-z
3 -x,-y,-z
4 1/2+x,1/2-y,1/2+z
_cell_length_a                   18.7880(3)
_cell_length_b                   7.1410(1)
_cell_length_c                   20.1990(4)
_cell_angle_alpha                90.00
_cell_angle_beta                 102.2350(7)
_cell_angle_gamma                90.00
_cell_volume                     2648.45
loop_
_atom_site_label
_atom_site_type_symbol
_atom_site_fract_x
_atom_site_fract_y
_atom_site_fract_z
Ag1 Ag -0.139353(14) -0.16476(3) 0.312908(13)
N1 N -0.17100(13) -0.4705(3) 0.29669(13)
C1 C -0.19991(16) -0.5674(4) 0.34058(16)
H1 H -0.2206 -0.5020 0.3729
N2 N -0.17376(13) -0.8613(3) 0.29609(13)
C2 C -0.14633(16) -0.5699(4) 0.25026(15)
H3 H -0.1271 -0.5058 0.2167
N3 N -0.07993(16) -0.1705(4) 0.21489(16)
C3 C -0.14790(16) -0.7631(4) 0.24962(16)
H5 H -0.1302 -0.8283 0.2154
N4 N -0.05154(17) -0.1775(4) 0.41407(17)
C4 C -0.20059(17) -0.7617(4) 0.34047(16)
H7 H -0.2210 -0.8254 0.3733
C5 C -0.05178(18) -0.1776(4) 0.17101(18)
C6 C -0.0153(2) -0.1851(5) 0.11395(19)
H10 H -0.0515 -0.2050 0.0719
H11 H 0.0198 -0.2884 0.1206
H12 H 0.0103 -0.0667 0.1111
C7 C -0.0048(2) -0.2228(5) 0.45579(19)
C8 C 0.05559(18) -0.2826(5) 0.5096(2)
H15 H 0.0828 -0.1724 0.5301
H16 H 0.0880 -0.3647 0.4907
H17 H 0.0365 -0.3506 0.5443
Ag1_2 Ag -0.139353(14) -1.16476(3) 0.312908(13)
N2_2 N -0.17376(13) 0.1387(3) 0.29609(13)
Co1 Co 0.21377(2) 0.25251(5) 0.400141(19)
B1 B 0.2151(2) 0.4106(5) 0.31398(18)
H2 H 0.2707 0.4692 0.3152
B2 B 0.1580(2) 0.5030(5) 0.3665(2)
H4 H 0.1738 0.6247 0.4014
B3 B 0.10307(19) 0.3105(5) 0.3845(2)
H6 H 0.0828 0.3020 0.4327
B4 B 0.0657(2) 0.4727(7) 0.3203(2)
H8 H 0.0219 0.5726 0.3274
B5 B 0.1358(2) 0.5360(6) 0.2763(2)
H9 H 0.1392 0.6782 0.2538
B6 B 0.1037(2) 0.1473(6) 0.2523(2)
H13 H 0.0868 0.0302 0.2155
B7 B 0.0475(2) 0.2316(7) 0.3056(2)
H14 H -0.0075 0.1684 0.3037
B8 B 0.1586(2) 0.3337(5) 0.2353(2)
H18 H 0.1778 0.3399 0.1865
C9 C 0.12732(16) 0.1248(4) 0.33938(16)
H19 H 0.1240 -0.0205 0.3594
B9 B 0.0657(2) 0.3744(6) 0.2395(2)
H20 H 0.0226 0.4107 0.1939
C10 C 0.19027(16) 0.1825(4) 0.29950(15)
H21 H 0.2322 0.0794 0.2908
B10 B 0.21183(18) 0.0896(5) 0.48557(18)
H22 H 0.1569 0.0256 0.4832
C11 C 0.27281(16) 0.0211(4) 0.43893(15)
H23 H 0.2573 -0.0959 0.4017
B11 B 0.22938(18) 0.3360(5) 0.50210(17)
H24 H 0.1873 0.4373 0.5118
C12 C 0.32251(15) 0.1950(4) 0.42371(16)
H25 H 0.3426 0.2026 0.3754
B12 B 0.30088(18) 0.3998(5) 0.45851(17)
H26 H 0.3064 0.5438 0.4382
B13 B 0.26716(19) 0.1617(5) 0.56392(18)
H27 H 0.2477 0.1493 0.6125
B14 B 0.3804(2) 0.2661(6) 0.49552(19)
H28 H 0.4362 0.3241 0.4977
B15 B 0.32189(18) 0.3518(5) 0.54737(18)
H29 H 0.3391 0.4666 0.5852
B16 B 0.3635(2) 0.0256(6) 0.48103(19)
H30 H 0.4067 -0.0749 0.4732
B17 B 0.2930(2) -0.0388(5) 0.52217(19)
H31 H 0.2903 -0.1844 0.5421
B18 B 0.3607(2) 0.1229(5) 0.5608(2)
H32 H 0.4027 0.0872 0.6073
loop_
_geom_bond_atom_site_label_1
_geom_bond_atom_site_label_2
_geom_bond_site_symmetry_1
_geom_bond_site_symmetry_2
Ag1 N1 1_555 1_555
Co1 B1 1_555 1_555
N1 C1 1_555 1_555
C1 H1 1_555 1_555
B1 H2 1_555 1_555
N2 C3 1_555 1_555
C2 N1 1_555 1_555
H3 C2 1_555 1_555
B2 Co1 1_555 1_555
H4 B2 1_555 1_555
N3 Ag1 1_555 1_555
C3 C2 1_555 1_555
H5 C3 1_555 1_555
B3 Co1 1_555 1_555
H6 B3 1_555 1_555
N4 Ag1 1_555 1_555
C4 C1 1_555 1_555
H7 C4 1_555 1_555
B4 B2 1_555 1_555
H8 B4 1_555 1_555
C5 N3 1_555 1_555
B5 B1 1_555 1_555
H9 B5 1_555 1_555
C6 C5 1_555 1_555
H10 C6 1_555 1_555
H11 C6 1_555 1_555
H12 C6 1_555 1_555
B6 H13 1_555 1_555
C7 N4 1_555 1_555
B7 B3 1_555 1_555
H14 B7 1_555 1_555
C8 C7 1_555 1_555
H15 C8 1_555 1_555
H16 C8 1_555 1_555
H17 C8 1_555 1_555
B8 B1 1_555 1_555
H18 B8 1_555 1_555
C9 Co1 1_555 1_555
H19 C9 1_555 1_555
B9 B4 1_555 1_555
H20 B9 1_555 1_555
C10 Co1 1_555 1_555
H21 C10 1_555 1_555
B10 Co1 1_555 1_555
H22 B10 1_555 1_555
C11 Co1 1_555 1_555
H23 C11 1_555 1_555
B11 Co1 1_555 1_555
H24 B11 1_555 1_555
C12 Co1 1_555 1_555
H25 C12 1_555 1_555
B12 Co1 1_555 1_555
H26 B12 1_555 1_555
B13 B10 1_555 1_555
H27 B13 1_555 1_555
B14 C12 1_555 1_555
H28 B14 1_555 1_555
B15 B11 1_555 1_555
H29 B15 1_555 1_555
B16 C11 1_555 1_555
H30 B16 1_555 1_555
B17 B10 1_555 1_555
H31 B17 1_555 1_555
B18 B13 1_555 1_555
H32 B18 1_555 1_555
Ag1_2 N2 1_555 1_555
N2_2 Ag1 1_555 1_555
B1 B2 1_555 1_555
B1 C10 1_555 1_555
N2 C4 1_555 1_555
B2 B3 1_555 1_555
B2 B5 1_555 1_555
B3 B4 1_555 1_555
B3 C9 1_555 1_555
B4 B5 1_555 1_555
B4 B7 1_555 1_555
B5 B8 1_555 1_555
B5 B9 1_555 1_555
B6 B7 1_555 1_555
B6 B8 1_555 1_555
B6 C9 1_555 1_555
B6 B9 1_555 1_555
B6 C10 1_555 1_555
B7 C9 1_555 1_555
B7 B9 1_555 1_555
B8 B9 1_555 1_555
B8 C10 1_555 1_555
C9 C10 1_555 1_555
B10 C11 1_555 1_555
B10 B11 1_555 1_555
C11 C12 1_555 1_555
C11 B17 1_555 1_555
B11 B12 1_555 1_555
B11 B13 1_555 1_555
C12 B12 1_555 1_555
C12 B16 1_555 1_555
B12 B14 1_555 1_555
B12 B15 1_555 1_555
B13 B15 1_555 1_555
B13 B17 1_555 1_555
B14 B15 1_555 1_555
B14 B16 1_555 1_555
B14 B18 1_555 1_555
B15 B18 1_555 1_555
B16 B17 1_555 1_555
B16 B18 1_555 1_555
B17 B18 1_555 1_555

#END
