
#######################################################################
#
#                 Cambridge Crystallographic Data Centre
#                                CCDC 
#
#######################################################################
#
# If this CIF has been generated from an entry in the Cambridge 
# Structural Database, then it will include bibliographic, chemical, 
# crystal, experimental, refinement or atomic coordinate data resulting 
# from the CCDC's data processing and validation procedures.
#
#######################################################################

data_XEDCOZ
_symmetry_cell_setting           monoclinic
_symmetry_space_group_name_H-M   'P c'
_symmetry_Int_Tables_number      7
_space_group_name_Hall           'P -2yc'
loop_
_symmetry_equiv_pos_site_id
_symmetry_equiv_pos_as_xyz
1 x,y,z
2 x,-y,1/2+z
_cell_length_a                   14.2050(2)
_cell_length_b                   12.3412(2)
_cell_length_c                   23.7398(3)
_cell_angle_alpha                90.00
_cell_angle_beta                 105.3250(10)
_cell_angle_gamma                90.00
_cell_volume                     4013.76
loop_
_atom_site_label
_atom_site_type_symbol
_atom_site_fract_x
_atom_site_fract_y
_atom_site_fract_z
Ag1 Ag 0.48397(3) 0.37023(3) 0.330089(16)
Ag2 Ag 0.49129(2) 0.60914(3) 0.155597(15)
N1 N 0.6255(3) 0.4373(3) 0.3910(2)
N2 N 0.5388(4) 0.6981(3) 0.3715(2)
N3 N 0.5305(4) 0.6772(3) 0.25376(19)
N4 N 0.6102(4) 0.4982(3) 0.2160(2)
N5 N 0.3634(4) 0.4793(3) 0.2679(2)
N6 N 0.4457(4) 0.2981(3) 0.2318(2)
N7 N 0.4410(4) 0.2774(4) 0.1142(2)
N8 N 0.3521(3) 0.5377(3) 0.09617(19)
N9 N 0.5528(4) 0.2426(3) 0.6115(2)
N10 N 0.5392(4) 0.4368(4) 0.5476(2)
N11 N 0.4253(4) 0.4274(3) 0.4320(2)
N12 N 0.4232(4) 0.2253(3) 0.3770(2)
C1 C 0.6772(5) 0.3696(4) 0.4321(3)
H1 H 0.6664 0.2939 0.4266
C2 C 0.7452(5) 0.4042(5) 0.4819(3)
H2 H 0.7804 0.3536 0.5097
C3 C 0.7606(5) 0.5143(5) 0.4903(3)
H3 H 0.8060 0.5405 0.5244
C4 C 0.7099(5) 0.5850(5) 0.4490(3)
H4 H 0.7199 0.6608 0.4540
C5 C 0.6431(4) 0.5443(4) 0.3992(2)
C6 C 0.5880(5) 0.6186(4) 0.3525(3)
C7 C 0.4855(5) 0.7646(4) 0.3314(3)
H5 H 0.4496 0.8212 0.3432
C8 C 0.4813(5) 0.7533(4) 0.2728(3)
H6 H 0.4418 0.8018 0.2455
C9 C 0.5887(4) 0.6108(4) 0.2940(2)
C10 C 0.6491(4) 0.5331(4) 0.2709(2)
C11 C 0.7399(5) 0.4986(4) 0.3029(2)
H7 H 0.7666 0.5260 0.3412
C12 C 0.7927(5) 0.4240(4) 0.2796(3)
H8 H 0.8553 0.4001 0.3013
C13 C 0.7512(5) 0.3860(4) 0.2241(3)
H9 H 0.7837 0.3327 0.2073
C14 C 0.6624(5) 0.4261(4) 0.1935(3)
H10 H 0.6361 0.4022 0.1544
C15 C 0.3107(5) 0.5515(4) 0.2883(3)
H11 H 0.3369 0.5810 0.3261
C16 C 0.2193(5) 0.5851(5) 0.2562(3)
H12 H 0.1849 0.6396 0.2709
C17 C 0.1793(4) 0.5383(5) 0.2031(2)
H13 H 0.1148 0.5567 0.1818
C18 C 0.2322(4) 0.4646(4) 0.1805(2)
H14 H 0.2053 0.4315 0.1436
C19 C 0.3263(4) 0.4404(4) 0.2133(2)
C20 C 0.3904(4) 0.3632(4) 0.1922(3)
C21 C 0.4971(5) 0.2215(4) 0.2133(3)
H15 H 0.5394 0.1756 0.2410
C22 C 0.4895(5) 0.2083(4) 0.1542(3)
H16 H 0.5201 0.1476 0.1420
C23 C 0.3900(5) 0.3554(4) 0.1321(2)
C24 C 0.3370(5) 0.4306(4) 0.0866(3)
C25 C 0.2763(5) 0.3902(5) 0.0359(3)
H17 H 0.2681 0.3143 0.0302
C26 C 0.2272(6) 0.4621(6) -0.0068(3)
H18 H 0.1858 0.4364 -0.0425
C27 C 0.2397(5) 0.5705(5) 0.0037(3)
H19 H 0.2054 0.6214 -0.0243
C28 C 0.3028(5) 0.6062(4) 0.0553(3)
H20 H 0.3113 0.6819 0.0620
C29 C 0.5941(5) 0.1585(5) 0.6439(3)
H21 H 0.5919 0.1568 0.6836
C30 C 0.6392(6) 0.0748(5) 0.6243(3)
H22 H 0.6648 0.0150 0.6488
C31 C 0.6467(6) 0.0799(5) 0.5670(3)
H23 H 0.6821 0.0263 0.5525
C32 C 0.6016(5) 0.1645(4) 0.5316(3)
H24 H 0.6028 0.1675 0.4918
C33 C 0.5549(5) 0.2442(4) 0.5547(3)
C34 C 0.5141(5) 0.3413(4) 0.5206(3)
C35 C 0.5074(5) 0.5262(4) 0.5166(3)
H25 H 0.5221 0.5949 0.5349
C36 C 0.4542(5) 0.5220(5) 0.4592(2)
H26 H 0.4373 0.5877 0.4381
C37 C 0.4552(4) 0.3367(4) 0.4631(2)
C38 C 0.4138(4) 0.2343(4) 0.4322(3)
C39 C 0.3685(5) 0.1575(4) 0.4579(3)
H27 H 0.3650 0.1664 0.4971
C40 C 0.3282(6) 0.0673(5) 0.4261(3)
H28 H 0.2955 0.0138 0.4427
C41 C 0.3364(6) 0.0566(5) 0.3698(3)
H29 H 0.3092 -0.0043 0.3467
C42 C 0.3848(5) 0.1361(4) 0.3477(3)
H30 H 0.3912 0.1270 0.3091
Ag2A Ag 0.49129(2) 0.39086(3) 0.655597(15)
N9A N 0.5528(4) 0.7574(3) 0.1115(2)
Co1 Co 0.08707(5) 0.06913(5) 0.13141(3)
C49 C 0.0040(5) 0.1287(4) 0.1829(3)
H40 H 0.0283 0.0880 0.2265
C50 C -0.0591(4) 0.0648(4) 0.1259(3)
H41 H -0.0800 -0.0223 0.1284
C51 C 0.1265(5) -0.0788(4) 0.1704(3)
H42 H 0.0704 -0.1030 0.1934
C52 C 0.1047(5) -0.0802(4) 0.0996(2)
H43 H 0.0314 -0.1057 0.0719
B1 B 0.0780(5) 0.2230(5) 0.1644(3)
H48 H 0.1503 0.2497 0.1929
B2 B 0.0535(5) 0.2170(5) 0.0863(3)
H49 H 0.1080 0.2413 0.0621
B3 B -0.0345(5) 0.1093(5) 0.0635(3)
H50 H -0.0382 0.0590 0.0238
B4 B -0.0756(5) 0.2452(5) 0.0569(3)
H51 H -0.1040 0.2842 0.0130
B5 B -0.1430(5) 0.1470(5) 0.0823(3)
H52 H -0.2163 0.1201 0.0552
B6 B -0.1193(5) 0.1541(5) 0.1598(3)
H53 H -0.1743 0.1320 0.1840
B7 B -0.0312(6) 0.2611(5) 0.1828(3)
H54 H -0.0289 0.3106 0.2227
B8 B -0.0056(5) 0.3169(5) 0.1195(3)
H55 H 0.0126 0.4048 0.1171
B9 B -0.1258(6) 0.2755(5) 0.1165(3)
H56 H -0.1864 0.3355 0.1123
B10 B 0.1671(5) 0.0192(5) 0.0736(3)
H57 H 0.1427 0.0614 0.0304
B11 B 0.2382(5) 0.0855(5) 0.1382(3)
H58 H 0.2628 0.1718 0.1386
B12 B 0.2067(6) 0.0220(5) 0.1992(3)
H59 H 0.2088 0.0671 0.2404
B13 B 0.2913(5) -0.0179(6) 0.1038(3)
H60 H 0.3485 0.0029 0.0809
B14 B 0.3158(5) -0.0167(5) 0.1814(3)
H61 H 0.3892 0.0049 0.2105
B15 B 0.2442(6) -0.1167(5) 0.2015(3)
H62 H 0.2687 -0.1613 0.2439
B16 B 0.1762(5) -0.1829(5) 0.1375(3)
H63 H 0.1548 -0.2704 0.1367
B17 B 0.2040(5) -0.1201(5) 0.0774(3)
H64 H 0.2010 -0.1669 0.0366
B18 B 0.2965(6) -0.1420(5) 0.1431(3)
H65 H 0.3565 -0.2024 0.1464
Co2 Co 0.87967(5) 0.90584(5) 0.35203(3)
C53 C 0.8477(5) 1.0641(4) 0.3280(3)
H44 H 0.9097 1.0983 0.3127
C54 C 0.8573(4) 1.0399(4) 0.3964(2)
H45 H 0.9272 1.0561 0.4305
C55 C 1.0282(4) 0.9111(5) 0.3706(3)
H46 H 1.0512 0.9967 0.3828
C56 C 0.9887(4) 0.8329(5) 0.4137(2)
H47 H 0.9830 0.8629 0.4572
B19 B 0.7882(5) 0.9350(5) 0.4056(2)
H66 H 0.8056 0.8792 0.4442
B20 B 0.7282(5) 0.8885(5) 0.3349(3)
H67 H 0.7036 0.8027 0.3251
B21 B 0.7700(5) 0.9721(5) 0.2847(3)
H68 H 0.7743 0.9425 0.2409
B22 B 0.6667(5) 0.9754(5) 0.3742(3)
H69 H 0.6041 0.9454 0.3903
B23 B 0.6561(5) 0.9996(5) 0.2989(3)
H70 H 0.5861 0.9855 0.2646
B24 B 0.7343(6) 1.1093(5) 0.2939(4)
H71 H 0.7176 1.1679 0.2566
B25 B 0.7925(5) 1.1514(5) 0.3649(3)
H72 H 0.8153 1.2377 0.3751
B26 B 0.7526(5) 1.0690(5) 0.4144(3)
H73 H 0.7486 1.1008 0.4579
B27 B 0.6707(6) 1.1103(5) 0.3485(3)
H74 H 0.6103 1.1692 0.3475
B28 B 0.9738(6) 0.8833(5) 0.2987(3)
H75 H 0.9592 0.9426 0.2617
B29 B 0.8942(5) 0.7716(5) 0.3001(3)
H76 H 0.8273 0.7550 0.2639
B30 B 0.9037(5) 0.7432(5) 0.3760(3)
H77 H 0.8416 0.7079 0.3908
B31 B 1.0145(5) 0.7494(5) 0.2910(3)
H78 H 1.0247 0.7204 0.2483
B32 B 0.9694(5) 0.6630(5) 0.3379(3)
H79 H 0.9491 0.5766 0.3264
B33 B 1.0249(5) 0.7043(6) 0.4111(3)
H80 H 1.0404 0.6468 0.4489
B34 B 1.1047(5) 0.8114(6) 0.4087(3)
H81 H 1.1728 0.8256 0.4445
B35 B 1.0967(6) 0.8406(6) 0.3344(3)
H82 H 1.1606 0.8742 0.3209
B36 B 1.0941(5) 0.7054(6) 0.3583(3)
H83 H 1.1555 0.6475 0.3602
N13 N 0.3640(8) 0.2229(8) -0.0634(5)
C43 C 0.4456(13) 0.1796(11) -0.0293(7)
C44 C 0.5255(17) 0.1430(14) 0.0000(7)
H31 H 0.5657 0.1231 -0.0262
H32 H 0.5141 0.0788 0.0216
H33 H 0.5593 0.1983 0.0276
N14 N -0.1068(6) 0.7796(6) 0.1112(3)
C45 C -0.1374(6) 0.7081(6) 0.1306(3)
C46 C -0.1737(10) 0.6177(6) 0.1546(4)
H34 H -0.2435 0.6278 0.1509
H35 H -0.1388 0.6105 0.1959
H36 H -0.1641 0.5521 0.1335
N15 N 0.0862(8) 0.1789(8) 0.3642(6)
C47 C 0.1584(8) 0.3486(7) 0.3327(4)
H37 H 0.1178 0.4114 0.3356
H38 H 0.1613 0.3401 0.2921
H39 H 0.2245 0.3596 0.3579
C48 C 0.1174(7) 0.2538(7) 0.3506(5)
C57 C 1.0088(11) 0.4190(15) 0.5258(8)
H84 H 1.0792 0.4191 0.5443
H85 H 0.9774 0.3626 0.5436
H86 H 0.9813 0.4899 0.5313
N16 N 0.9779(9) 0.3968(10) 0.4171(6)
C58 C 0.9911(10) 0.3970(14) 0.4623(8)
loop_
_geom_bond_atom_site_label_1
_geom_bond_atom_site_label_2
_geom_bond_site_symmetry_1
_geom_bond_site_symmetry_2
Ag1 N1 1_555 1_555
Ag2 N3 1_555 1_555
Co1 C49 1_555 1_555
Co2 C53 1_555 1_555
N1 C1 1_555 1_555
N2 C6 1_555 1_555
N3 C8 1_555 1_555
N4 Ag2 1_555 1_555
N5 Ag1 1_555 1_555
N6 Ag1 1_555 1_555
N7 C22 1_555 1_555
N8 Ag2 1_555 1_555
N9 C29 1_555 1_555
N10 C34 1_555 1_555
N11 C36 1_555 1_555
N12 Ag1 1_555 1_555
N13 C43 1_555 1_555
N14 C45 1_555 1_555
N15 C48 1_555 1_555
C1 H1 1_555 1_555
C2 C1 1_555 1_555
H2 C2 1_555 1_555
C3 C2 1_555 1_555
H3 C3 1_555 1_555
C4 C3 1_555 1_555
H4 C4 1_555 1_555
C5 N1 1_555 1_555
C6 C5 1_555 1_555
C7 N2 1_555 1_555
H5 C7 1_555 1_555
C8 C7 1_555 1_555
H6 C8 1_555 1_555
C9 N3 1_555 1_555
C10 N4 1_555 1_555
C11 C10 1_555 1_555
H7 C11 1_555 1_555
C12 C11 1_555 1_555
H8 C12 1_555 1_555
C13 C12 1_555 1_555
H9 C13 1_555 1_555
C14 N4 1_555 1_555
H10 C14 1_555 1_555
C15 N5 1_555 1_555
H11 C15 1_555 1_555
C16 C15 1_555 1_555
H12 C16 1_555 1_555
C17 C16 1_555 1_555
H13 C17 1_555 1_555
C18 C17 1_555 1_555
H14 C18 1_555 1_555
C19 N5 1_555 1_555
C20 N6 1_555 1_555
C21 N6 1_555 1_555
H15 C21 1_555 1_555
C22 C21 1_555 1_555
H16 C22 1_555 1_555
C23 N7 1_555 1_555
C24 N8 1_555 1_555
C25 C24 1_555 1_555
H17 C25 1_555 1_555
C26 C25 1_555 1_555
H18 C26 1_555 1_555
C27 C26 1_555 1_555
H19 C27 1_555 1_555
C28 N8 1_555 1_555
H20 C28 1_555 1_555
C29 H21 1_555 1_555
C30 C29 1_555 1_555
H22 C30 1_555 1_555
C31 C30 1_555 1_555
H23 C31 1_555 1_555
C32 C31 1_555 1_555
H24 C32 1_555 1_555
C33 N9 1_555 1_555
C34 C33 1_555 1_555
C35 N10 1_555 1_555
H25 C35 1_555 1_555
C36 C35 1_555 1_555
H26 C36 1_555 1_555
C37 N11 1_555 1_555
C38 N12 1_555 1_555
C39 C38 1_555 1_555
H27 C39 1_555 1_555
C40 C39 1_555 1_555
H28 C40 1_555 1_555
C41 C40 1_555 1_555
H29 C41 1_555 1_555
C42 N12 1_555 1_555
H30 C42 1_555 1_555
C43 C44 1_555 1_555
C44 H31 1_555 1_555
H32 C44 1_555 1_555
H33 C44 1_555 1_555
C45 C46 1_555 1_555
C46 H34 1_555 1_555
H35 C46 1_555 1_555
H36 C46 1_555 1_555
C47 H37 1_555 1_555
H38 C47 1_555 1_555
H39 C47 1_555 1_555
C48 C47 1_555 1_555
C49 H40 1_555 1_555
C50 Co1 1_555 1_555
H41 C50 1_555 1_555
C51 Co1 1_555 1_555
H42 C51 1_555 1_555
C52 Co1 1_555 1_555
H43 C52 1_555 1_555
C53 H44 1_555 1_555
C54 Co2 1_555 1_555
H45 C54 1_555 1_555
C55 Co2 1_555 1_555
H46 C55 1_555 1_555
C56 Co2 1_555 1_555
H47 C56 1_555 1_555
B1 Co1 1_555 1_555
H48 B1 1_555 1_555
B2 Co1 1_555 1_555
H49 B2 1_555 1_555
B3 Co1 1_555 1_555
H50 B3 1_555 1_555
B4 B2 1_555 1_555
H51 B4 1_555 1_555
B5 C50 1_555 1_555
H52 B5 1_555 1_555
B6 C49 1_555 1_555
H53 B6 1_555 1_555
B7 C49 1_555 1_555
H54 B7 1_555 1_555
B8 B1 1_555 1_555
H55 B8 1_555 1_555
B9 B4 1_555 1_555
H56 B9 1_555 1_555
B10 Co1 1_555 1_555
H57 B10 1_555 1_555
B11 Co1 1_555 1_555
H58 B11 1_555 1_555
B12 Co1 1_555 1_555
H59 B12 1_555 1_555
B13 B10 1_555 1_555
H60 B13 1_555 1_555
B14 B11 1_555 1_555
H61 B14 1_555 1_555
B15 C51 1_555 1_555
H62 B15 1_555 1_555
B16 C51 1_555 1_555
H63 B16 1_555 1_555
B17 C52 1_555 1_555
H64 B17 1_555 1_555
B18 B13 1_555 1_555
H65 B18 1_555 1_555
B19 Co2 1_555 1_555
H66 B19 1_555 1_555
B20 Co2 1_555 1_555
H67 B20 1_555 1_555
B21 Co2 1_555 1_555
H68 B21 1_555 1_555
B22 B19 1_555 1_555
H69 B22 1_555 1_555
B23 B20 1_555 1_555
H70 B23 1_555 1_555
B24 C53 1_555 1_555
H71 B24 1_555 1_555
B25 C53 1_555 1_555
H72 B25 1_555 1_555
B26 C54 1_555 1_555
H73 B26 1_555 1_555
B27 B22 1_555 1_555
H74 B27 1_555 1_555
B28 Co2 1_555 1_555
H75 B28 1_555 1_555
B29 Co2 1_555 1_555
H76 B29 1_555 1_555
B30 Co2 1_555 1_555
H77 B30 1_555 1_555
B31 B28 1_555 1_555
H78 B31 1_555 1_555
B32 B29 1_555 1_555
H79 B32 1_555 1_555
B33 C56 1_555 1_555
H80 B33 1_555 1_555
B34 C55 1_555 1_555
H81 B34 1_555 1_555
B35 C55 1_555 1_555
H82 B35 1_555 1_555
B36 B31 1_555 1_555
H83 B36 1_555 1_555
C57 H84 1_555 1_555
H85 C57 1_555 1_555
H86 C57 1_555 1_555
N16 C58 1_555 1_555
C58 C57 1_555 1_555
Ag2A N9 1_555 1_555
N9A Ag2 1_555 1_555
C4 C5 1_555 1_555
C6 C9 1_555 1_555
C9 C10 1_555 1_555
C13 C14 1_555 1_555
C18 C19 1_555 1_555
C19 C20 1_555 1_555
C20 C23 1_555 1_555
C23 C24 1_555 1_555
C27 C28 1_555 1_555
C32 C33 1_555 1_555
C34 C37 1_555 1_555
C37 C38 1_555 1_555
C41 C42 1_555 1_555
C49 C50 1_555 1_555
C49 B1 1_555 1_555
C50 B3 1_555 1_555
C50 B6 1_555 1_555
C51 C52 1_555 1_555
C51 B12 1_555 1_555
C52 B10 1_555 1_555
C52 B16 1_555 1_555
C53 C54 1_555 1_555
C53 B21 1_555 1_555
C54 B19 1_555 1_555
C54 B25 1_555 1_555
C55 C56 1_555 1_555
C55 B28 1_555 1_555
C56 B30 1_555 1_555
C56 B34 1_555 1_555
B1 B2 1_555 1_555
B1 B7 1_555 1_555
B2 B3 1_555 1_555
B2 B8 1_555 1_555
B3 B4 1_555 1_555
B3 B5 1_555 1_555
B4 B5 1_555 1_555
B4 B8 1_555 1_555
B5 B6 1_555 1_555
B5 B9 1_555 1_555
B6 B7 1_555 1_555
B6 B9 1_555 1_555
B7 B8 1_555 1_555
B7 B9 1_555 1_555
B8 B9 1_555 1_555
B10 B11 1_555 1_555
B10 B17 1_555 1_555
B11 B12 1_555 1_555
B11 B13 1_555 1_555
B12 B14 1_555 1_555
B12 B15 1_555 1_555
B13 B14 1_555 1_555
B13 B17 1_555 1_555
B14 B15 1_555 1_555
B14 B18 1_555 1_555
B15 B16 1_555 1_555
B15 B18 1_555 1_555
B16 B17 1_555 1_555
B16 B18 1_555 1_555
B17 B18 1_555 1_555
B19 B20 1_555 1_555
B19 B26 1_555 1_555
B20 B21 1_555 1_555
B20 B22 1_555 1_555
B21 B23 1_555 1_555
B21 B24 1_555 1_555
B22 B23 1_555 1_555
B22 B26 1_555 1_555
B23 B24 1_555 1_555
B23 B27 1_555 1_555
B24 B25 1_555 1_555
B24 B27 1_555 1_555
B25 B26 1_555 1_555
B25 B27 1_555 1_555
B26 B27 1_555 1_555
B28 B29 1_555 1_555
B28 B35 1_555 1_555
B29 B30 1_555 1_555
B29 B31 1_555 1_555
B30 B32 1_555 1_555
B30 B33 1_555 1_555
B31 B32 1_555 1_555
B31 B35 1_555 1_555
B32 B33 1_555 1_555
B32 B36 1_555 1_555
B33 B34 1_555 1_555
B33 B36 1_555 1_555
B34 B35 1_555 1_555
B34 B36 1_555 1_555
B35 B36 1_555 1_555

#END
