
#######################################################################
#
#                 Cambridge Crystallographic Data Centre
#                                CCDC 
#
#######################################################################
#
# If this CIF has been generated from an entry in the Cambridge 
# Structural Database, then it will include bibliographic, chemical, 
# crystal, experimental, refinement or atomic coordinate data resulting 
# from the CCDC's data processing and validation procedures.
#
#######################################################################

data_XEDDAN
_symmetry_cell_setting           triclinic
_symmetry_space_group_name_H-M   'P -1'
_symmetry_Int_Tables_number      2
_space_group_name_Hall           '-P 1'
loop_
_symmetry_equiv_pos_site_id
_symmetry_equiv_pos_as_xyz
1 x,y,z
2 -x,-y,-z
_cell_length_a                   9.8343(13)
_cell_length_b                   11.3087(15)
_cell_length_c                   13.723(2)
_cell_angle_alpha                73.914(2)
_cell_angle_beta                 70.6710(10)
_cell_angle_gamma                83.965(2)
_cell_volume                     1383.61
loop_
_atom_site_label
_atom_site_type_symbol
_atom_site_fract_x
_atom_site_fract_y
_atom_site_fract_z
Ag1 Ag 1.04960(5) 1.30998(4) 0.01447(3)
N1 N 1.1196(5) 1.3945(5) -0.1587(4)
C1 C 1.3868(7) 1.7756(6) -0.9102(5)
C2 C 1.3587(7) 1.6471(6) -0.8476(5)
C3 C 1.3163(8) 1.6261(6) -0.7341(6)
H1 H 1.3088 1.6906 -0.7026
C4 C 1.2868(7) 1.5064(6) -0.6725(5)
C5 C 1.2826(7) 1.4137(7) -0.7169(6)
H2 H 1.2614 1.3345 -0.6731
C6 C 1.3089(7) 1.4344(6) -0.8249(5)
C7 C 1.3509(7) 1.5518(6) -0.8920(6)
H3 H 1.3734 1.5662 -0.9656
C8 C 1.2794(7) 1.3470(6) -0.8795(5)
C9 C 1.2932(7) 1.5305(6) -0.5011(4)
C10 C 1.2362(6) 1.4795(5) -0.3813(4)
C11 C 1.3136(7) 1.4793(6) -0.3167(5)
H4 H 1.4068 1.5096 -0.3459
C12 C 1.2550(8) 1.4341(6) -0.2060(5)
H5 H 1.3125 1.4313 -0.1636
C13 C 1.0468(8) 1.3953(6) -0.2228(5)
H6 H 0.9537 1.3649 -0.1913
C14 C 1.0931(7) 1.4361(7) -0.3307(5)
H7 H 1.0329 1.4357 -0.3705
C15 C 0.3121(8) 1.0833(6) 0.9041(5)
C16 C 0.2768(8) 1.1040(6) 0.8032(5)
C17 C 0.1427(7) 1.0716(7) 0.8095(5)
H8 H 0.0730 1.0425 0.8752
C18 C 0.1136(7) 1.0844(7) 0.7096(5)
C19 C 0.2151(8) 1.1266(6) 0.6153(5)
H9 H 0.1951 1.1397 0.5515
C20 C 0.3512(7) 1.1504(6) 0.6155(5)
C21 C 0.3801(6) 1.1449(6) 0.7074(5)
H10 H 0.4693 1.1688 0.7046
C22 C -0.0289(7) 1.0459(5) 0.7172(5)
C23 C 0.4874(7) 1.1543(6) 0.4272(5)
C24 C 0.6258(7) 1.1979(6) 0.3365(5)
C25 C 0.6156(7) 1.2202(6) 0.2338(5)
H11 H 0.5284 1.2121 0.2238
C26 C 0.7390(7) 1.2549(6) 0.1470(6)
H12 H 0.7324 1.2708 0.0785
C27 C 0.8703(7) 1.2411(7) 0.2579(5)
H13 H 0.9591 1.2431 0.2677
C28 C 0.7498(7) 1.2132(6) 0.3449(5)
H14 H 0.7569 1.2049 0.4123
Ho1 Ho 1.34584(3) 1.06199(3) -0.89071(2)
N2 N 1.2485(7) 1.4741(6) -0.5589(5)
H15 H 1.1916 1.4130 -0.5243
N3 N 0.8624(6) 1.2658(6) 0.1574(4)
N4 N 0.4619(6) 1.1984(5) 0.5160(4)
H16 H 0.5143 1.2571 0.5118
O1 O 1.2805(5) 1.2273(4) -0.8271(4)
O2 O 1.2510(5) 1.3806(5) -0.9617(4)
O3 O 1.4852(5) 1.7904(4) -0.9994(4)
O4 O 1.3161(5) 1.8618(4) -0.8755(3)
O5 O 1.3783(5) 1.6113(5) -0.5374(4)
O6 O 0.2220(5) 1.1194(5) 0.9793(4)
O7 O 0.4297(5) 1.0367(4) 0.9108(4)
O8 O -0.1050(5) 0.9720(4) 0.8033(4)
O9 O -0.0714(5) 1.0863(5) 0.6377(4)
O10 O 0.4053(6) 1.0890(5) 0.4210(3)
O11 O 1.3331(5) 0.9853(5) -0.7113(4)
H17 H 1.2912 0.9176 -0.6749
H18 H 1.3707 1.0249 -0.6826
Ag1_2 Ag 1.04960(5) 1.30998(4) -0.98553(3)
Ho1A Ho 1.65416(3) 1.93801(3) -1.10929(2)
Ho1_2 Ho 1.34584(3) 2.06199(3) -0.89071(2)
Ho1_3 Ho 0.34584(3) 1.06199(3) 1.10929(2)
Ho1A_2 Ho 0.65416(3) 0.93801(3) 0.89071(2)
Ho1A_3 Ho -0.34584(3) 0.93801(3) 0.89071(2)
O2_2 O 1.2510(5) 1.3806(5) 0.0383(4)
O3A O 1.5148(5) 1.2096(4) -1.0006(4)
O4_2 O 1.3161(5) 0.8618(4) -0.8755(3)
O6_2 O 1.2220(5) 1.1194(5) -1.0207(4)
O7_2 O 1.4297(5) 1.0367(4) -1.0892(4)
O7A O 1.5703(5) 0.9633(4) -0.9108(4)
O8A O 1.1050(5) 1.0280(4) -0.8033(4)
O12 O 0.0736(6) 0.1475(5) 0.3881(5)
H19 H 0.0917 0.1841 0.4287
H20 H 0.1332 0.0882 0.3796
O13 O 0.9981(5) 0.3256(4) 0.5043(4)
H21 H 0.9205 0.3620 0.4971
H22 H 0.9858 0.2911 0.5700
loop_
_geom_bond_atom_site_label_1
_geom_bond_atom_site_label_2
_geom_bond_site_symmetry_1
_geom_bond_site_symmetry_2
Ag1 N1 1_555 1_555
N1 C12 1_555 1_555
C1 C2 1_555 1_555
C2 C3 1_555 1_555
C3 H1 1_555 1_555
C4 C3 1_555 1_555
C5 C4 1_555 1_555
H2 C5 1_555 1_555
C6 C5 1_555 1_555
C7 C2 1_555 1_555
H3 C7 1_555 1_555
C8 C6 1_555 1_555
C9 C10 1_555 1_555
C10 C11 1_555 1_555
C11 H4 1_555 1_555
C12 C11 1_555 1_555
H5 C12 1_555 1_555
C13 N1 1_555 1_555
H6 C13 1_555 1_555
C14 C10 1_555 1_555
H7 C14 1_555 1_555
C15 C16 1_555 1_555
C16 C17 1_555 1_555
C17 H8 1_555 1_555
C18 C17 1_555 1_555
C19 C18 1_555 1_555
H9 C19 1_555 1_555
C20 C19 1_555 1_555
C21 C16 1_555 1_555
H10 C21 1_555 1_555
C22 C18 1_555 1_555
C23 C24 1_555 1_555
C24 C25 1_555 1_555
C25 H11 1_555 1_555
C26 C25 1_555 1_555
H12 C26 1_555 1_555
C27 H13 1_555 1_555
C28 C24 1_555 1_555
H14 C28 1_555 1_555
Ho1 O1 1_555 1_555
N2 C4 1_555 1_555
H15 N2 1_555 1_555
N3 Ag1 1_555 1_555
N4 C20 1_555 1_555
H16 N4 1_555 1_555
O1 C8 1_555 1_555
O2 C8 1_555 1_555
O3 C1 1_555 1_555
O4 C1 1_555 1_555
O5 C9 1_555 1_555
O6 C15 1_555 1_555
O7 C15 1_555 1_555
O8 C22 1_555 1_555
O9 C22 1_555 1_555
O10 C23 1_555 1_555
O11 Ho1 1_555 1_555
H17 O11 1_555 1_555
H18 O11 1_555 1_555
O12 H19 1_555 1_555
H20 O12 1_555 1_555
O13 H21 1_555 1_555
H22 O13 1_555 1_555
Ag1_2 O2 1_555 1_555
Ho1A O3 1_555 1_555
Ho1_2 O4 1_555 1_555
Ho1_3 O6 1_555 1_555
Ho1A_2 O7 1_555 1_555
Ho1A_3 O8 1_555 1_555
O2_2 Ag1 1_555 1_555
O3A Ho1 1_555 1_555
O4_2 Ho1 1_555 1_555
O6_2 Ho1 1_555 1_555
O7_2 Ho1 1_555 1_555
O7A Ho1 1_555 1_555
O8A Ho1 1_555 1_555
C6 C7 1_555 1_555
C9 N2 1_555 1_555
C13 C14 1_555 1_555
C20 C21 1_555 1_555
C23 N4 1_555 1_555
C26 N3 1_555 1_555
C27 C28 1_555 1_555
C27 N3 1_555 1_555
O7 Ho1_3 1_555 1_555

#END
