
#######################################################################
#
#                 Cambridge Crystallographic Data Centre
#                                CCDC 
#
#######################################################################
#
# If this CIF has been generated from an entry in the Cambridge 
# Structural Database, then it will include bibliographic, chemical, 
# crystal, experimental, refinement or atomic coordinate data resulting 
# from the CCDC's data processing and validation procedures.
#
#######################################################################

data_XEDFER
_symmetry_cell_setting           monoclinic
_symmetry_space_group_name_H-M   'P 21/c'
_symmetry_Int_Tables_number      14
_space_group_name_Hall           '-P 2ybc'
loop_
_symmetry_equiv_pos_site_id
_symmetry_equiv_pos_as_xyz
1 x,y,z
2 -x,1/2+y,1/2-z
3 -x,-y,-z
4 x,1/2-y,1/2+z
_cell_length_a                   9.8175(17)
_cell_length_b                   8.3947(5)
_cell_length_c                   20.654(4)
_cell_angle_alpha                90
_cell_angle_beta                 94.886(9)
_cell_angle_gamma                90
_cell_volume                     1696.01
loop_
_atom_site_label
_atom_site_type_symbol
_atom_site_fract_x
_atom_site_fract_y
_atom_site_fract_z
I1 I 0.140441(16) 0.102118(17) 0.223807(7)
I2 I 0.291594(18) 0.04066(2) 0.024125(8)
Zn1 Zn 0.24585(2) 0.20288(3) 0.122518(11)
S1 S 0.14298(5) 0.44416(6) 0.08347(2)
O1 O 0.57190(12) 0.78500(16) 0.33129(6)
N1 N 0.46411(15) 0.81985(18) 0.36406(7)
N2 N 0.26294(15) 0.64963(18) 0.24842(7)
N3 N 0.25084(16) 0.54380(18) 0.19855(7)
H1 H 0.2996 0.4586 0.1999
N4 N 0.09657(16) 0.71080(18) 0.14667(8)
H2 H 0.1158 0.7722 0.1795
C1 C 0.4730(2) 0.9446(3) 0.40540(11)
H3 H 0.5550 0.9996 0.4135
C2 C 0.3576(2) 0.9899(4) 0.43586(12)
H4 H 0.3640 1.0744 0.4651
C3 C 0.2372(2) 0.9140(4) 0.42388(12)
H5 H 0.1609 0.9447 0.4445
C4 C 0.2300(2) 0.7858(3) 0.37888(10)
H6 H 0.1483 0.7306 0.3701
C5 C 0.34538(17) 0.7422(2) 0.34767(8)
C6 C 0.34511(18) 0.6142(2) 0.29972(9)
C7 C 0.16037(16) 0.5745(2) 0.14632(8)
C8 C -0.0037(3) 0.7677(3) 0.09668(14)
H7 H 0.0337 0.8554 0.0742
H8 H -0.0840 0.8022 0.1162
H9 H -0.0275 0.6833 0.0665
C9 C 0.4265(3) 0.4676(3) 0.31110(14)
H10 H 0.3861 0.3832 0.2846
H11 H 0.4280 0.4381 0.3561
H12 H 0.5182 0.4861 0.3001
O1A O 0.42810(12) 0.28500(16) 0.16871(6)
Zn1A Zn 0.75415(2) 0.70288(3) 0.377482(11)
loop_
_geom_bond_atom_site_label_1
_geom_bond_atom_site_label_2
_geom_bond_site_symmetry_1
_geom_bond_site_symmetry_2
I1 Zn1 1_555 1_555
I2 Zn1 1_555 1_555
Zn1 S1 1_555 1_555
S1 C7 1_555 1_555
O1 N1 1_555 1_555
N1 C1 1_555 1_555
N2 N3 1_555 1_555
N3 H1 1_555 1_555
N4 H2 1_555 1_555
C1 H3 1_555 1_555
C2 C1 1_555 1_555
H4 C2 1_555 1_555
C3 C2 1_555 1_555
H5 C3 1_555 1_555
C4 C3 1_555 1_555
H6 C4 1_555 1_555
C5 N1 1_555 1_555
C6 N2 1_555 1_555
C7 N3 1_555 1_555
C8 N4 1_555 1_555
H7 C8 1_555 1_555
H8 C8 1_555 1_555
H9 C8 1_555 1_555
C9 C6 1_555 1_555
H10 C9 1_555 1_555
H11 C9 1_555 1_555
H12 C9 1_555 1_555
O1A Zn1 1_555 1_555
Zn1A O1 1_555 1_555
N4 C7 1_555 1_555
C4 C5 1_555 1_555
C5 C6 1_555 1_555

#END
