
#######################################################################
#
#                 Cambridge Crystallographic Data Centre
#                                CCDC 
#
#######################################################################
#
# If this CIF has been generated from an entry in the Cambridge 
# Structural Database, then it will include bibliographic, chemical, 
# crystal, experimental, refinement or atomic coordinate data resulting 
# from the CCDC's data processing and validation procedures.
#
#######################################################################

data_XEDHUJ
_symmetry_cell_setting           triclinic
_symmetry_space_group_name_H-M   'P -1'
_symmetry_Int_Tables_number      2
_space_group_name_Hall           '-P 1'
loop_
_symmetry_equiv_pos_site_id
_symmetry_equiv_pos_as_xyz
1 x,y,z
2 -x,-y,-z
_cell_length_a                   6.500(1)
_cell_length_b                   7.957(4)
_cell_length_c                   16.507(2)
_cell_angle_alpha                76.73(2)
_cell_angle_beta                 89.38(1)
_cell_angle_gamma                85.06(2)
_cell_volume                     827.833
loop_
_atom_site_label
_atom_site_type_symbol
_atom_site_fract_x
_atom_site_fract_y
_atom_site_fract_z
Pd1 Pd 0.50612(5) 0.27489(4) -0.53818(2)
Co1 Co 0.01881(7) -0.17262(7) -0.02771(3)
Co2 Co 0.5000 0.0000 0.0000
O1 O 0.7401(5) 0.3307(5) -0.4765(2)
O2 O 0.8533(5) 0.3101(5) -0.3479(2)
O3 O 0.1251(4) -0.0674(4) -0.1453(2)
O4 O 0.4595(4) -0.0667(4) -0.1165(2)
O5 O 0.2758(5) 0.2233(4) -0.6060(2)
O6 O 0.1623(5) 0.2709(4) -0.7365(2)
O7 O 0.5699(4) -0.2639(3) 0.0590(2)
O8 O 0.9081(4) -0.3027(4) 0.0872(2)
O9 O -0.1854(4) -0.2962(4) -0.0948(2)
O10 O 0.2473(4) -0.3844(4) -0.0137(2)
O11 O 0.2011(4) -0.0366(3) 0.03472(15)
H1 H 0.2068(4) -0.1001(3) 0.09314(15)
N1 N 0.4158(6) 0.1604(5) -0.4232(2)
N2 N 0.6032(6) 0.3925(5) -0.6496(2)
C1 C 0.5514(6) 0.1740(5) -0.3648(2)
C2 C 0.5253(6) 0.1030(5) -0.2822(2)
H2 H 0.6244(6) 0.1113(5) -0.2434(2)
C3 C 0.3504(6) 0.0187(5) -0.2569(2)
C4 C 0.2088(6) 0.0061(6) -0.3178(2)
H3 H 0.0891(6) -0.0492(6) -0.3029(2)
C5 C 0.2484(7) 0.0768(6) -0.4004(2)
H4 H 0.1558(7) 0.0657(6) -0.4410(2)
C6 C 0.7327(6) 0.2781(6) -0.3965(3)
C7 C 0.3079(6) -0.0465(5) -0.1651(2)
C8 C 0.4703(6) 0.3944(5) -0.7117(2)
C9 C 0.5040(6) 0.4831(5) -0.7917(2)
H5 H 0.4082(6) 0.4865(5) -0.8336(2)
C10 C 0.6830(6) 0.5676(5) -0.8094(2)
C11 C 0.8221(7) 0.5586(6) -0.7450(2)
H6 H 0.9459(7) 0.6098(6) -0.7556(2)
C12 C 0.7759(6) 0.4736(6) -0.6655(2)
H7 H 0.8663(6) 0.4726(6) -0.6221(2)
C13 C 0.2870(6) 0.2896(6) -0.6847(2)
C14 C 0.7255(6) -0.3261(5) 0.1049(2)
O11A O -0.2011(4) 0.0366(3) -0.03472(15)
O4A O 0.5405(4) 0.0667(4) 0.1165(2)
O7A O 0.4301(4) 0.2639(3) -0.0590(2)
O11A_2 O 0.7989(4) 0.0366(3) -0.03472(15)
Co1A Co -0.01881(7) 0.17262(7) 0.02771(3)
C14_2 C 0.7255(6) 0.6739(5) -0.8951(2)
O8_2 O -0.0919(4) -0.3027(4) 0.0872(2)
C10_2 C 0.6830(6) -0.4324(5) 0.1906(2)
O7_2 O 0.5699(4) 0.7361(3) -0.9410(2)
O8_3 O 0.9081(4) 0.6973(4) -0.9128(2)
Co1_2 Co 1.01881(7) 0.82738(7) -1.02771(3)
Co2_2 Co 0.5000 1.0000 -1.0000
Co1_3 Co 1.01881(7) -0.17262(7) -0.02771(3)
Co1A_2 Co 0.98119(7) 0.17262(7) 0.02771(3)
H1A H 0.7932(4) 0.1001(3) -0.09314(15)
O3A O 0.8749(4) 0.0674(4) 0.1453(2)
O8A O 1.0919(4) 0.3027(4) -0.0872(2)
O9A O 1.1854(4) 0.2962(4) 0.0948(2)
O10A O 0.7527(4) 0.3844(4) 0.0137(2)
O11_2 O 1.2011(4) -0.0366(3) 0.03472(15)
H1_2 H 1.2068(4) -0.1001(3) 0.09314(15)
C9_2 C 0.5040(6) -0.5169(5) 0.2083(2)
C11_2 C 0.8221(7) -0.4414(6) 0.2550(2)
H6_2 H 0.9459(7) -0.3902(6) 0.2444(2)
C12_2 C 0.7759(6) -0.5264(6) 0.3345(2)
C8_2 C 0.4703(6) -0.6056(5) 0.2883(2)
H5_2 H 0.4082(6) -0.5135(5) 0.1664(2)
N2_2 N 0.6032(6) -0.6075(5) 0.3504(2)
H7_2 H 0.8663(6) -0.5274(6) 0.3779(2)
C13_2 C 0.2870(6) -0.7104(6) 0.3153(2)
Pd1_2 Pd 0.50612(5) -0.72511(4) 0.46182(2)
O5_2 O 0.2758(5) -0.7767(4) 0.3940(2)
O6_2 O 0.1623(5) -0.7291(4) 0.2635(2)
O1_2 O 0.7401(5) -0.6693(5) 0.5235(2)
N1_2 N 0.4158(6) -0.8396(5) 0.5768(2)
C6_2 C 0.7327(6) -0.7219(6) 0.6035(3)
C1_2 C 0.5514(6) -0.8260(5) 0.6352(2)
C5_2 C 0.2484(7) -0.9232(6) 0.5996(2)
C2_2 C 0.5253(6) -0.8970(5) 0.7178(2)
O2_2 O 0.8533(5) -0.6899(5) 0.6521(2)
C4_2 C 0.2088(6) -0.9939(6) 0.6822(2)
H4_2 H 0.1558(7) -0.9343(6) 0.5590(2)
H2_2 H 0.6244(6) -0.8887(5) 0.7566(2)
C3_2 C 0.3504(6) -0.9813(5) 0.7431(2)
H3_2 H 0.0891(6) -1.0492(6) 0.6971(2)
C7_2 C 0.3079(6) -1.0465(5) 0.8349(2)
O3_2 O 0.1251(4) -1.0674(4) 0.8547(2)
O4_2 O 0.4595(4) -1.0667(4) 0.8835(2)
Co2_3 Co 0.5000 -1.0000 1.0000
Co1_4 Co 0.01881(7) -1.17262(7) 0.97229(3)
H1A_2 H -0.2068(4) 0.1001(3) -0.09314(15)
loop_
_geom_bond_atom_site_label_1
_geom_bond_atom_site_label_2
_geom_bond_site_symmetry_1
_geom_bond_site_symmetry_2
Pd1 O1 1_555 1_555
Co1 O3 1_555 1_555
Co2 O4 1_555 1_555
O1 C6 1_555 1_555
O2 C6 1_555 1_555
O3 C7 1_555 1_555
O4 C7 1_555 1_555
O5 Pd1 1_555 1_555
O6 C13 1_555 1_555
O7 Co2 1_555 1_555
O8 C14 1_555 1_555
O9 Co1 1_555 1_555
O10 Co1 1_555 1_555
O11 Co1 1_555 1_555
H1 O11 1_555 1_555
N1 Pd1 1_555 1_555
N2 Pd1 1_555 1_555
C1 N1 1_555 1_555
C2 C1 1_555 1_555
H2 C2 1_555 1_555
C3 C2 1_555 1_555
C4 C3 1_555 1_555
H3 C4 1_555 1_555
C5 N1 1_555 1_555
H4 C5 1_555 1_555
C6 C1 1_555 1_555
C7 C3 1_555 1_555
C8 N2 1_555 1_555
C9 C8 1_555 1_555
H5 C9 1_555 1_555
C10 C9 1_555 1_555
C11 C10 1_555 1_555
H6 C11 1_555 1_555
C12 N2 1_555 1_555
H7 C12 1_555 1_555
C13 O5 1_555 1_555
C14 O7 1_555 1_555
O11A Co1 1_555 1_555
O4A Co2 1_555 1_555
O7A Co2 1_555 1_555
O11A_2 Co2 1_555 1_555
Co1A O11 1_555 1_555
C14_2 C10 1_555 1_555
O8_2 Co1 1_555 1_555
C10_2 C14 1_555 1_555
O7_2 C14_2 1_555 1_555
O8_3 C14_2 1_555 1_555
Co1_2 O8_3 1_555 1_555
Co2_2 O7_2 1_555 1_555
Co1_3 O8 1_555 1_555
Co1A_2 O11A_2 1_555 1_555
H1A O11A_2 1_555 1_555
O3A Co1A_2 1_555 1_555
O8A Co1A_2 1_555 1_555
O9A Co1A_2 1_555 1_555
O10A Co1A_2 1_555 1_555
O11_2 Co1_3 1_555 1_555
H1_2 O11_2 1_555 1_555
C9_2 C10_2 1_555 1_555
C11_2 C10_2 1_555 1_555
H6_2 C11_2 1_555 1_555
C12_2 C11_2 1_555 1_555
C8_2 C9_2 1_555 1_555
H5_2 C9_2 1_555 1_555
N2_2 C12_2 1_555 1_555
H7_2 C12_2 1_555 1_555
C13_2 C8_2 1_555 1_555
Pd1_2 N2_2 1_555 1_555
O5_2 C13_2 1_555 1_555
O6_2 C13_2 1_555 1_555
O1_2 Pd1_2 1_555 1_555
N1_2 Pd1_2 1_555 1_555
C6_2 O1_2 1_555 1_555
C1_2 N1_2 1_555 1_555
C5_2 N1_2 1_555 1_555
C2_2 C1_2 1_555 1_555
O2_2 C6_2 1_555 1_555
C4_2 C5_2 1_555 1_555
H4_2 C5_2 1_555 1_555
H2_2 C2_2 1_555 1_555
C3_2 C2_2 1_555 1_555
H3_2 C4_2 1_555 1_555
C7_2 C3_2 1_555 1_555
O3_2 C7_2 1_555 1_555
O4_2 C7_2 1_555 1_555
Co2_3 O4_2 1_555 1_555
Co1_4 O3_2 1_555 1_555
H1A_2 O11A 1_555 1_555
Co2 O11 1_555 1_555
C4 C5 1_555 1_555
C8 C13 1_555 1_555
C11 C12 1_555 1_555
O11A Co1A 1_555 1_555
O11A_2 Co1_3 1_555 1_555
Co1A_2 O11_2 1_555 1_555
C8_2 N2_2 1_555 1_555
Pd1_2 O5_2 1_555 1_555
C6_2 C1_2 1_555 1_555
C4_2 C3_2 1_555 1_555

#END
