
#######################################################################
#
#                 Cambridge Crystallographic Data Centre
#                                CCDC 
#
#######################################################################
#
# If this CIF has been generated from an entry in the Cambridge 
# Structural Database, then it will include bibliographic, chemical, 
# crystal, experimental, refinement or atomic coordinate data resulting 
# from the CCDC's data processing and validation procedures.
#
#######################################################################

data_XEDJOH
_symmetry_cell_setting           monoclinic
_symmetry_space_group_name_H-M   'P 21'
_symmetry_Int_Tables_number      4
_space_group_name_Hall           'P 2yb'
loop_
_symmetry_equiv_pos_site_id
_symmetry_equiv_pos_as_xyz
1 x,y,z
2 -x,1/2+y,-z
_cell_length_a                   9.5302(10)
_cell_length_b                   9.0426(9)
_cell_length_c                   14.3609(15)
_cell_angle_alpha                90
_cell_angle_beta                 95.873(2)
_cell_angle_gamma                90
_cell_volume                     1231.09
loop_
_atom_site_label
_atom_site_type_symbol
_atom_site_fract_x
_atom_site_fract_y
_atom_site_fract_z
V1 V 0.60358(8) 0.79899(9) 0.73746(6)
V2 V 0.70865(9) 1.15646(11) 0.99437(6)
V3 V 1.10839(8) 1.08850(9) 0.75910(7)
P1 P 0.78076(13) 1.10621(15) 0.78038(9)
P2 P 0.28812(13) 0.77682(14) 0.78340(9)
C1 C 0.7671(5) 1.2452(6) 0.6922(3)
C2 C 0.6658(6) 1.2303(8) 0.6158(4)
H1 H 0.6077 1.1475 0.6109
C3 C 0.6514(7) 1.3376(8) 0.5475(4)
H2 H 0.5825 1.3262 0.4973
C4 C 0.7335(8) 1.4575(8) 0.5514(4)
H3 H 0.7234 1.5270 0.5034
C5 C 0.8363(6) 1.4785(7) 0.6291(4)
H4 H 0.8903 1.5643 0.6343
C6 C 0.8547(5) 1.3712(6) 0.6960(4)
C7 C 0.9687(6) 1.3968(7) 0.7765(4)
C8 C 0.2670(5) 0.6477(6) 0.6885(3)
C9 C 0.1650(5) 0.6662(7) 0.6154(4)
H5 H 0.1078 0.7496 0.6141
C10 C 0.1439(7) 0.5638(9) 0.5428(4)
H6 H 0.0775 0.5801 0.4917
C11 C 0.2269(7) 0.4352(9) 0.5497(4)
H7 H 0.2126 0.3624 0.5040
C12 C 0.3266(7) 0.4163(7) 0.6217(4)
H8 H 0.3792 0.3295 0.6256
C13 C 0.3530(5) 0.5233(6) 0.6906(3)
C14 C 0.4712(6) 0.5004(6) 0.7666(4)
O1 O 0.6556(4) 1.0059(4) 0.7629(3)
O2 O 0.9157(4) 1.0171(4) 0.7719(3)
O3 O 0.7856(4) 1.1820(5) 0.8742(2)
O4 O 0.4216(4) 0.8666(5) 0.7737(3)
O5 O 0.3039(4) 0.6852(5) 0.8710(2)
O6 O 0.1600(4) 0.8781(5) 0.7775(3)
O7 O 0.9748(4) 1.5162(5) 0.8157(3)
O8 O 1.0578(4) 1.2930(4) 0.7982(3)
O9 O 0.5619(4) 0.5989(4) 0.7860(3)
O10 O 0.4779(4) 0.3767(5) 0.8098(3)
O11 O 0.5918(5) 0.7797(5) 0.6283(3)
O12 O 0.5689(4) 1.0662(5) 0.9668(3)
O13 O 1.1096(5) 1.1097(5) 0.6507(3)
O14 O 0.8059(4) 0.7504(5) 0.7859(3)
H9 H 0.8590 0.8226 0.7750
H10 H 0.8313 0.6738 0.7577
O15 O 0.8337(5) 0.9772(5) 1.0251(3)
H11 H 0.7839 0.8994 1.0164
H12 H 0.8680 0.9815 1.0820
O16 O 0.9199(4) 1.2661(5) 1.0371(3)
H13 H 0.9815 1.2000 1.0523
H14 H 0.9125 1.3228 1.0835
O17 O 0.6327(5) 1.3663(5) 0.9711(3)
H15 H 0.5453 1.3616 0.9522
H16 H 0.6440 1.4154 1.0218
O18 O 1.3134(4) 1.1394(5) 0.8029(3)
H17 H 1.3163 1.2156 0.8377
H18 H 1.3510 1.0668 0.8337
V2A V 0.29135(9) 0.65646(11) 1.00563(6)
V3_2 V 0.10839(8) 1.08850(9) 0.75910(7)
O5A O 0.6961(4) 1.1852(5) 1.1290(2)
O6_2 O 1.1600(4) 0.8781(5) 0.7775(3)
O19 O 1.1008(5) 1.0652(6) 0.9255(3)
H19 H 1.0179 1.0421 0.9371
H20 H 1.1237 1.1477 0.9511
O20 O 0.6842(6) 0.7167(7) 0.9769(4)
H21 H 0.6119 0.6731 0.9936
H22 H 0.6753 0.7271 0.9177
loop_
_geom_bond_atom_site_label_1
_geom_bond_atom_site_label_2
_geom_bond_site_symmetry_1
_geom_bond_site_symmetry_2
V1 O1 1_555 1_555
V2 O3 1_555 1_555
V3 O2 1_555 1_555
P1 C1 1_555 1_555
P2 C8 1_555 1_555
C1 C2 1_555 1_555
C2 H1 1_555 1_555
C3 C2 1_555 1_555
H2 C3 1_555 1_555
C4 C3 1_555 1_555
H3 C4 1_555 1_555
C5 C4 1_555 1_555
H4 C5 1_555 1_555
C6 C1 1_555 1_555
C7 C6 1_555 1_555
C8 C9 1_555 1_555
C9 H5 1_555 1_555
C10 C9 1_555 1_555
H6 C10 1_555 1_555
C11 C10 1_555 1_555
H7 C11 1_555 1_555
C12 C11 1_555 1_555
H8 C12 1_555 1_555
C13 C8 1_555 1_555
C14 C13 1_555 1_555
O1 P1 1_555 1_555
O2 P1 1_555 1_555
O3 P1 1_555 1_555
O4 V1 1_555 1_555
O5 P2 1_555 1_555
O6 P2 1_555 1_555
O7 C7 1_555 1_555
O8 V3 1_555 1_555
O9 V1 1_555 1_555
O10 C14 1_555 1_555
O11 V1 1_555 1_555
O12 V2 1_555 1_555
O13 V3 1_555 1_555
O14 V1 1_555 1_555
H9 O14 1_555 1_555
H10 O14 1_555 1_555
O15 V2 1_555 1_555
H11 O15 1_555 1_555
H12 O15 1_555 1_555
O16 V2 1_555 1_555
H13 O16 1_555 1_555
H14 O16 1_555 1_555
O17 V2 1_555 1_555
H15 O17 1_555 1_555
H16 O17 1_555 1_555
O18 V3 1_555 1_555
H17 O18 1_555 1_555
H18 O18 1_555 1_555
O19 H19 1_555 1_555
H20 O19 1_555 1_555
O20 H21 1_555 1_555
H22 O20 1_555 1_555
V2A O5 1_555 1_555
V3_2 O6 1_555 1_555
O5A V2 1_555 1_555
O6_2 V3 1_555 1_555
P2 O4 1_555 1_555
C5 C6 1_555 1_555
C7 O8 1_555 1_555
C12 C13 1_555 1_555
C14 O9 1_555 1_555

#END
