
#######################################################################
#
#                 Cambridge Crystallographic Data Centre
#                                CCDC 
#
#######################################################################
#
# If this CIF has been generated from an entry in the Cambridge 
# Structural Database, then it will include bibliographic, chemical, 
# crystal, experimental, refinement or atomic coordinate data resulting 
# from the CCDC's data processing and validation procedures.
#
#######################################################################

data_XEDJAR
_symmetry_cell_setting           triclinic
_symmetry_space_group_name_H-M   'P -1'
_symmetry_Int_Tables_number      2
_space_group_name_Hall           '-P 1'
loop_
_symmetry_equiv_pos_site_id
_symmetry_equiv_pos_as_xyz
1 x,y,z
2 -x,-y,-z
_cell_length_a                   6.529(1)
_cell_length_b                   8.124(2)
_cell_length_c                   16.719(3)
_cell_angle_alpha                75.94(3)
_cell_angle_beta                 88.73(3)
_cell_angle_gamma                84.78(3)
_cell_volume                     856.668
loop_
_atom_site_label
_atom_site_type_symbol
_atom_site_fract_x
_atom_site_fract_y
_atom_site_fract_z
Pd1 Pd -0.50650(7) -0.27528(6) 0.03825(3)
Zn1 Zn -0.02109(9) 0.17211(8) -0.47230(4)
Zn2 Zn -0.5000 0.0000 -0.5000
N1 N -0.4170(7) -0.1604(6) -0.0764(3)
N2 N -0.6024(7) -0.3946(6) 0.1489(3)
O1 O -0.7416(6) -0.3291(6) -0.0229(3)
O2 O -0.8513(7) -0.3118(6) -0.1519(3)
O3 O -0.1239(6) 0.0702(5) -0.3535(2)
O4 O -0.4606(5) 0.0687(5) -0.3826(2)
O5 O -0.2749(6) -0.2247(6) 0.1054(2)
O6 O -0.1629(6) -0.2717(6) 0.2360(3)
O7 O -0.5696(6) 0.2648(5) -0.5594(2)
O8 O -0.9096(6) 0.3043(5) -0.5863(2)
O9 O 0.1846(6) 0.2979(5) -0.4053(2)
O10 O -0.2490(6) 0.3848(5) -0.4861(2)
O11 O -0.2029(5) 0.0340(4) -0.5340(2)
H1 H -0.2079(5) 0.0973(4) -0.5920(2)
C1 C -0.5519(9) -0.1726(7) -0.1345(4)
C2 C -0.5256(8) -0.1031(7) -0.2181(3)
H2 H -0.6219(8) -0.1127(7) -0.2566(3)
C3 C -0.3498(8) -0.0185(7) -0.2425(3)
C4 C -0.2097(9) -0.0047(8) -0.1816(4)
H3 H -0.0921(9) 0.0520(8) -0.1968(4)
C5 C -0.2485(9) -0.0759(8) -0.0991(4)
H4 H -0.1574(9) -0.0652(8) -0.0590(4)
C6 C -0.7311(9) -0.2787(8) -0.1040(4)
C7 C -0.3069(8) 0.0467(7) -0.3340(3)
C8 C -0.4680(8) -0.3963(7) 0.2111(3)
C9 C -0.5037(8) -0.4833(7) 0.2916(3)
H5 H -0.4106(8) -0.4855(7) 0.3333(3)
C10 C -0.6846(8) -0.5684(7) 0.3090(3)
C11 C -0.8215(9) -0.5606(7) 0.2450(3)
H6 H -0.9437(9) -0.6124(7) 0.2560(3)
C12 C -0.7757(9) -0.4760(8) 0.1652(4)
H7 H -0.8649(9) -0.4752(8) 0.1224(4)
C13 C -0.2840(9) -0.2900(7) 0.1849(4)
C14 C -0.7264(8) 0.3268(7) -0.6053(3)
O11A O 0.2029(5) -0.0340(4) -0.4660(2)
O4A O -0.5394(5) -0.0687(5) -0.6174(2)
O7A O -0.4304(6) -0.2648(5) -0.4406(2)
O11A_2 O -0.7971(5) -0.0340(4) -0.4660(2)
Zn1A Zn 0.02109(9) -0.17211(8) -0.52770(4)
C14_2 C -0.7264(8) -0.6732(7) 0.3947(3)
O8_2 O 0.0904(6) 0.3043(5) -0.5863(2)
C10_2 C -0.6846(8) 0.4316(7) -0.6910(3)
O7_2 O -0.5696(6) -0.7352(5) 0.4406(2)
O8_3 O -0.9096(6) -0.6957(5) 0.4137(2)
Zn1_2 Zn -1.02109(9) -0.82789(8) 0.52770(4)
Zn2_2 Zn -0.5000 -1.0000 0.5000
Zn1_3 Zn -1.02109(9) 0.17211(8) -0.47230(4)
Zn1A_2 Zn -0.97891(9) -0.17211(8) -0.52770(4)
H1A H -0.7921(5) -0.0973(4) -0.4080(2)
O3A O -0.8761(6) -0.0702(5) -0.6465(2)
O8A O -1.0904(6) -0.3043(5) -0.4137(2)
O9A O -1.1846(6) -0.2979(5) -0.5947(2)
O10A O -0.7510(6) -0.3848(5) -0.5139(2)
O11_2 O -1.2029(5) 0.0340(4) -0.5340(2)
H1_2 H -1.2079(5) 0.0973(4) -0.5920(2)
C9_2 C -0.5037(8) 0.5167(7) -0.7084(3)
C11_2 C -0.8215(9) 0.4394(7) -0.7550(3)
H6_2 H -0.9437(9) 0.3876(7) -0.7440(3)
C12_2 C -0.7757(9) 0.5240(8) -0.8348(4)
C8_2 C -0.4680(8) 0.6037(7) -0.7889(3)
H5_2 H -0.4106(8) 0.5145(7) -0.6667(3)
N2_2 N -0.6024(7) 0.6054(6) -0.8511(3)
H7_2 H -0.8649(9) 0.5248(8) -0.8776(4)
C13_2 C -0.2840(9) 0.7100(7) -0.8151(4)
Pd1_2 Pd -0.50650(7) 0.72472(6) -0.96175(3)
O5_2 O -0.2749(6) 0.7753(6) -0.8946(2)
O6_2 O -0.1629(6) 0.7283(6) -0.7640(3)
N1_2 N -0.4170(7) 0.8396(6) -1.0764(3)
O1_2 O -0.7416(6) 0.6709(6) -1.0229(3)
C6_2 C -0.7311(9) 0.7213(8) -1.1040(4)
C1_2 C -0.5519(9) 0.8274(7) -1.1345(4)
C5_2 C -0.2485(9) 0.9241(8) -1.0991(4)
C2_2 C -0.5256(8) 0.8969(7) -1.2181(3)
O2_2 O -0.8513(7) 0.6882(6) -1.1519(3)
C4_2 C -0.2097(9) 0.9953(8) -1.1816(4)
H4_2 H -0.1574(9) 0.9348(8) -1.0590(4)
H2_2 H -0.6219(8) 0.8873(7) -1.2566(3)
C3_2 C -0.3498(8) 0.9815(7) -1.2425(3)
H3_2 H -0.0921(9) 1.0520(8) -1.1968(4)
C7_2 C -0.3069(8) 1.0467(7) -1.3340(3)
O3_2 O -0.1239(6) 1.0702(5) -1.3535(2)
O4_2 O -0.4606(5) 1.0687(5) -1.3826(2)
Zn2_3 Zn -0.5000 1.0000 -1.5000
Zn1_4 Zn -0.02109(9) 1.17211(8) -1.47230(4)
H1A_2 H 0.2079(5) -0.0973(4) -0.4080(2)
loop_
_geom_bond_atom_site_label_1
_geom_bond_atom_site_label_2
_geom_bond_site_symmetry_1
_geom_bond_site_symmetry_2
Pd1 N1 1_555 1_555
Zn1 O3 1_555 1_555
Zn2 O4 1_555 1_555
N1 C1 1_555 1_555
N2 Pd1 1_555 1_555
O1 Pd1 1_555 1_555
O2 C6 1_555 1_555
O3 C7 1_555 1_555
O4 C7 1_555 1_555
O5 Pd1 1_555 1_555
O6 C13 1_555 1_555
O7 Zn2 1_555 1_555
O8 C14 1_555 1_555
O9 Zn1 1_555 1_555
O10 Zn1 1_555 1_555
O11 Zn1 1_555 1_555
H1 O11 1_555 1_555
C1 C2 1_555 1_555
C2 H2 1_555 1_555
C3 C2 1_555 1_555
C4 C3 1_555 1_555
H3 C4 1_555 1_555
C5 N1 1_555 1_555
H4 C5 1_555 1_555
C6 O1 1_555 1_555
C7 C3 1_555 1_555
C8 N2 1_555 1_555
C9 C8 1_555 1_555
H5 C9 1_555 1_555
C10 C9 1_555 1_555
C11 C10 1_555 1_555
H6 C11 1_555 1_555
C12 N2 1_555 1_555
H7 C12 1_555 1_555
C13 O5 1_555 1_555
C14 O7 1_555 1_555
O11A Zn1 1_555 1_555
O4A Zn2 1_555 1_555
O7A Zn2 1_555 1_555
O11A_2 Zn2 1_555 1_555
Zn1A O11 1_555 1_555
C14_2 C10 1_555 1_555
O8_2 Zn1 1_555 1_555
C10_2 C14 1_555 1_555
O7_2 C14_2 1_555 1_555
O8_3 C14_2 1_555 1_555
Zn1_2 O8_3 1_555 1_555
Zn2_2 O7_2 1_555 1_555
Zn1_3 O8 1_555 1_555
Zn1A_2 O11A_2 1_555 1_555
H1A O11A_2 1_555 1_555
O3A Zn1A_2 1_555 1_555
O8A Zn1A_2 1_555 1_555
O9A Zn1A_2 1_555 1_555
O10A Zn1A_2 1_555 1_555
O11_2 Zn1_3 1_555 1_555
H1_2 O11_2 1_555 1_555
C9_2 C10_2 1_555 1_555
C11_2 C10_2 1_555 1_555
H6_2 C11_2 1_555 1_555
C12_2 C11_2 1_555 1_555
C8_2 C9_2 1_555 1_555
H5_2 C9_2 1_555 1_555
N2_2 C12_2 1_555 1_555
H7_2 C12_2 1_555 1_555
C13_2 C8_2 1_555 1_555
Pd1_2 N2_2 1_555 1_555
O5_2 C13_2 1_555 1_555
O6_2 C13_2 1_555 1_555
N1_2 Pd1_2 1_555 1_555
O1_2 Pd1_2 1_555 1_555
C6_2 O1_2 1_555 1_555
C1_2 N1_2 1_555 1_555
C5_2 N1_2 1_555 1_555
C2_2 C1_2 1_555 1_555
O2_2 C6_2 1_555 1_555
C4_2 C5_2 1_555 1_555
H4_2 C5_2 1_555 1_555
H2_2 C2_2 1_555 1_555
C3_2 C2_2 1_555 1_555
H3_2 C4_2 1_555 1_555
C7_2 C3_2 1_555 1_555
O3_2 C7_2 1_555 1_555
O4_2 C7_2 1_555 1_555
Zn2_3 O4_2 1_555 1_555
Zn1_4 O3_2 1_555 1_555
H1A_2 O11A 1_555 1_555
Zn2 O11 1_555 1_555
C1 C6 1_555 1_555
C4 C5 1_555 1_555
C8 C13 1_555 1_555
C11 C12 1_555 1_555
O11A Zn1A 1_555 1_555
O11A_2 Zn1_3 1_555 1_555
Zn1A_2 O11_2 1_555 1_555
C8_2 N2_2 1_555 1_555
Pd1_2 O5_2 1_555 1_555
C6_2 C1_2 1_555 1_555
C4_2 C3_2 1_555 1_555

#END
