
#######################################################################
#
#                 Cambridge Crystallographic Data Centre
#                                CCDC 
#
#######################################################################
#
# If this CIF has been generated from an entry in the Cambridge 
# Structural Database, then it will include bibliographic, chemical, 
# crystal, experimental, refinement or atomic coordinate data resulting 
# from the CCDC's data processing and validation procedures.
#
#######################################################################

data_XEDLUN01
_symmetry_cell_setting           monoclinic
_symmetry_space_group_name_H-M   'P 21/n'
_symmetry_Int_Tables_number      14
_space_group_name_Hall           '-P 2yn'
loop_
_symmetry_equiv_pos_site_id
_symmetry_equiv_pos_as_xyz
1 x,y,z
2 1/2-x,1/2+y,1/2-z
3 -x,-y,-z
4 1/2+x,1/2-y,1/2+z
_cell_length_a                   10.137(2)
_cell_length_b                   15.988(3)
_cell_length_c                   15.745(3)
_cell_angle_alpha                90
_cell_angle_beta                 107.76(3)
_cell_angle_gamma                90
_cell_volume                     2430.19
loop_
_atom_site_label
_atom_site_type_symbol
_atom_site_fract_x
_atom_site_fract_y
_atom_site_fract_z
C2 C 0.4154 0.0850 -0.0307
C3 C 0.5491 0.0668 -0.0025
C4 C 0.3908 -0.0026 -0.0658
C4B C 0.6092 0.0026 0.0658
C2B C 0.5846 -0.0850 0.0307
C3B C 0.4509 -0.0668 0.0025
Ti1 Ti 0.3822 -0.03808 0.4076
O1 O 0.4446 -0.0394 0.5446
O2 O -0.0052 -0.3691 0.9061
O3 O 0.3574 -0.0030 0.2929
O4 O 0.2862 0.0752 0.4278
O5 O 0.2274 -0.0913 0.3980
C1 C 0.3822 -0.0862 0.5946
C5 C 0.3055 -0.0456 0.6428
C6 C 0.2420 -0.0930 0.6934
C7 C 0.2536 -0.1802 0.6982
C8 C 0.1839 -0.2286 0.7520
C9 C 0.1626 -0.1968 0.8278
C10 C 0.0970 -0.2440 0.8778
C11 C 0.0486 -0.3226 0.8524
C12 C 0.0657 -0.3548 0.7740
C13 C 0.1305 -0.3082 0.7245
C14 C 0.3296 -0.2189 0.6496
C15 C 0.3958 -0.1710 0.5993
C16 C 0.2637 -0.0040 0.2147
C17 C 0.1742 -0.0722 0.1812
C18 C 0.0748 -0.0717 0.0985
C19 C 0.0528 -0.0012 0.0430
C20 C 0.1489 0.0614 0.0726
C21 C 0.2442 0.0630 0.1540
C22 C 0.1871 0.1261 0.3818
C23 C 0.0988 0.1572 0.4456
C24 C 0.2192 0.2026 0.3592
C25 C 0.1148 -0.1414 0.4043
C26 C -0.0198 -0.1018 0.3496
C27 C 0.1330 -0.2285 0.3764
H1 H 0.3252 0.0954 0.4856
H2 H 0.2970 0.0135 0.6412
H3 H 0.1898 -0.0655 0.7256
H4 H 0.1926 -0.1416 0.8464
H5 H 0.0857 -0.2209 0.9306
H6 H 0.0324 -0.4092 0.7546
H7 H 0.1392 -0.3306 0.6707
H8 H 0.3372 -0.2782 0.6502
H9 H 0.4506 -0.1984 0.5682
H10 H 0.1830 -0.1208 0.2171
H11 H 0.0202 -0.1202 0.0789
H12 H 0.1486 0.1064 0.0332
H13 H 0.3008 0.1110 0.1709
H14 H 0.1256 0.0966 0.3286
H15 H 0.0616 0.1091 0.4684
H16 H 0.0224 0.1926 0.4115
H17 H 0.1594 0.1889 0.4951
H18 H 0.2736 0.1976 0.3188
H19 H 0.2733 0.2324 0.4124
H20 H 0.1340 0.2328 0.3300
H21 H 0.1164 -0.1425 0.4680
H22 H -0.0260 -0.0449 0.3710
H23 H -0.0976 -0.1350 0.3556
H24 H -0.0230 -0.1000 0.2868
H25 H 0.2208 -0.2510 0.4144
H26 H 0.1336 -0.2286 0.3144
H27 H 0.0566 -0.2632 0.3820
C19B C -0.0528 0.0012 -0.0430
C18B C -0.0748 0.0717 -0.0985
C17B C -0.1742 0.0722 -0.1812
C16B C -0.2637 0.0040 -0.2147
O3B O -0.3574 0.0030 -0.2929
C21B C -0.2442 -0.0630 -0.1540
C20B C -0.1489 -0.0614 -0.0726
H12B H -0.1486 -0.1064 -0.0332
H13B H -0.3008 -0.1110 -0.1709
H10B H -0.1830 0.1208 -0.2171
H11B H -0.0202 0.1202 -0.0789
O1B O 0.5554 0.0394 0.4554
O2B O 1.0052 0.3691 0.0939
C1B C 0.6178 0.0862 0.4054
C5B C 0.6945 0.0456 0.3572
C6B C 0.7580 0.0930 0.3066
C7B C 0.7464 0.1802 0.3018
C8B C 0.8161 0.2286 0.2480
C9B C 0.8374 0.1968 0.1722
C10B C 0.9030 0.2440 0.1222
C11B C 0.9514 0.3226 0.1476
C12B C 0.9343 0.3548 0.2260
C13B C 0.8695 0.3082 0.2755
C14B C 0.6704 0.2189 0.3504
C15B C 0.6042 0.1710 0.4007
H2B H 0.7030 -0.0135 0.3588
H3B H 0.8102 0.0655 0.2744
H4B H 0.8074 0.1416 0.1536
H5B H 0.9143 0.2209 0.0694
H6B H 0.9676 0.4092 0.2454
H7B H 0.8608 0.3306 0.3293
H8B H 0.6628 0.2782 0.3498
H9B H 0.5494 0.1984 0.4318
Ti1B Ti 0.6178 0.03808 0.5924
O4B O 0.7138 -0.0752 0.5722
C22B C 0.8129 -0.1261 0.6182
C23B C 0.9012 -0.1572 0.5544
C24B C 0.7808 -0.2026 0.6408
H1B H 0.6748 -0.0954 0.5144
H14B H 0.8744 -0.0966 0.6714
H15B H 0.9384 -0.1091 0.5316
H16B H 0.9776 -0.1926 0.5885
H17B H 0.8406 -0.1889 0.5049
H18B H 0.7264 -0.1976 0.6812
H19B H 0.7267 -0.2324 0.5876
H20B H 0.8660 -0.2328 0.6700
O5B O 0.7726 0.0913 0.6020
C25B C 0.8852 0.1414 0.5957
C26B C 1.0198 0.1018 0.6504
C27B C 0.8670 0.2285 0.6236
H21B H 0.8836 0.1425 0.5320
H22B H 1.0260 0.0449 0.6290
H23B H 1.0976 0.1350 0.6444
H24B H 1.0230 0.1000 0.7132
H25B H 0.7792 0.2510 0.5856
H26B H 0.8664 0.2286 0.6856
H27B H 0.9434 0.2632 0.6180
O2C O 0.4948 -0.1309 0.4061
Ti1C Ti -0.1178 -0.46192 0.9076
Ti1B_2 Ti -0.3822 0.03808 -0.4076
Ti1A Ti 1.1178 0.46192 0.0924
O2A O 0.5052 0.1309 0.5939
O3B_2 O 0.6426 0.0030 0.7071
loop_
_geom_bond_atom_site_label_1
_geom_bond_atom_site_label_2
_geom_bond_site_symmetry_1
_geom_bond_site_symmetry_2
Ti1 O1 1_555 1_555
O1 C1 1_555 1_555
O2 C11 1_555 1_555
O3 Ti1 1_555 1_555
O4 Ti1 1_555 1_555
O5 Ti1 1_555 1_555
C1 C5 1_555 1_555
C2 C3 1_555 1_555
C3 C4B 1_555 1_555
C4 C2 1_555 1_555
C5 C6 1_555 1_555
C6 C7 1_555 1_555
C7 C8 1_555 1_555
C8 C9 1_555 1_555
C9 C10 1_555 1_555
C10 C11 1_555 1_555
C11 C12 1_555 1_555
C12 C13 1_555 1_555
C13 C8 1_555 1_555
C14 C7 1_555 1_555
C15 C1 1_555 1_555
C16 O3 1_555 1_555
C17 C16 1_555 1_555
C18 C17 1_555 1_555
C19 C18 1_555 1_555
C20 C19 1_555 1_555
C21 C16 1_555 1_555
C22 O4 1_555 1_555
C23 C22 1_555 1_555
C24 C22 1_555 1_555
C25 O5 1_555 1_555
C26 C25 1_555 1_555
C27 C25 1_555 1_555
H1 O4 1_555 1_555
H2 C5 1_555 1_555
H3 C6 1_555 1_555
H4 C9 1_555 1_555
H5 C10 1_555 1_555
H6 C12 1_555 1_555
H7 C13 1_555 1_555
H8 C14 1_555 1_555
H9 C15 1_555 1_555
H10 C17 1_555 1_555
H11 C18 1_555 1_555
H12 C20 1_555 1_555
H13 C21 1_555 1_555
H14 C22 1_555 1_555
H15 C23 1_555 1_555
H16 C23 1_555 1_555
H17 C23 1_555 1_555
H18 C24 1_555 1_555
H19 C24 1_555 1_555
H20 C24 1_555 1_555
H21 C25 1_555 1_555
H22 C26 1_555 1_555
H23 C26 1_555 1_555
H24 C26 1_555 1_555
H25 C27 1_555 1_555
H26 C27 1_555 1_555
H27 C27 1_555 1_555
C19B C19 1_555 1_555
C18B C19B 1_555 1_555
C17B C18B 1_555 1_555
C16B C17B 1_555 1_555
O3B C16B 1_555 1_555
C21B C16B 1_555 1_555
C20B C19B 1_555 1_555
H12B C20B 1_555 1_555
H13B C21B 1_555 1_555
H10B C17B 1_555 1_555
H11B C18B 1_555 1_555
C4B C2B 1_555 1_555
C2B C3B 1_555 1_555
C3B C4 1_555 1_555
O1B Ti1 1_555 1_555
O2B C11B 1_555 1_555
C1B O1B 1_555 1_555
C5B C1B 1_555 1_555
C6B C5B 1_555 1_555
C7B C6B 1_555 1_555
C8B C7B 1_555 1_555
C9B C8B 1_555 1_555
C10B C9B 1_555 1_555
C11B C10B 1_555 1_555
C12B C11B 1_555 1_555
C13B C8B 1_555 1_555
C14B C7B 1_555 1_555
C15B C1B 1_555 1_555
H2B C5B 1_555 1_555
H3B C6B 1_555 1_555
H4B C9B 1_555 1_555
H5B C10B 1_555 1_555
H6B C12B 1_555 1_555
H7B C13B 1_555 1_555
H8B C14B 1_555 1_555
H9B C15B 1_555 1_555
Ti1B O1 1_555 1_555
O4B Ti1B 1_555 1_555
C22B O4B 1_555 1_555
C23B C22B 1_555 1_555
C24B C22B 1_555 1_555
H1B O4B 1_555 1_555
H14B C22B 1_555 1_555
H15B C23B 1_555 1_555
H16B C23B 1_555 1_555
H17B C23B 1_555 1_555
H18B C24B 1_555 1_555
H19B C24B 1_555 1_555
H20B C24B 1_555 1_555
O5B Ti1B 1_555 1_555
C25B O5B 1_555 1_555
C26B C25B 1_555 1_555
C27B C25B 1_555 1_555
H21B C25B 1_555 1_555
H22B C26B 1_555 1_555
H23B C26B 1_555 1_555
H24B C26B 1_555 1_555
H25B C27B 1_555 1_555
H26B C27B 1_555 1_555
H27B C27B 1_555 1_555
O2C Ti1 1_555 1_555
Ti1C O2 1_555 1_555
Ti1B_2 O3B 1_555 1_555
Ti1A O2B 1_555 1_555
O2A Ti1B 1_555 1_555
O3B_2 Ti1B 1_555 1_555
C14 C15 1_555 1_555
C20 C21 1_555 1_555
C21B C20B 1_555 1_555
O1B Ti1B 1_555 1_555
C12B C13B 1_555 1_555
C14B C15B 1_555 1_555

#END
