
#######################################################################
#
#                 Cambridge Crystallographic Data Centre
#                                CCDC 
#
#######################################################################
#
# If this CIF has been generated from an entry in the Cambridge 
# Structural Database, then it will include bibliographic, chemical, 
# crystal, experimental, refinement or atomic coordinate data resulting 
# from the CCDC's data processing and validation procedures.
#
#######################################################################

data_XEDMAU
_symmetry_cell_setting           monoclinic
_symmetry_space_group_name_H-M   'P 21/c'
_symmetry_Int_Tables_number      14
_space_group_name_Hall           '-P 2ybc'
loop_
_symmetry_equiv_pos_site_id
_symmetry_equiv_pos_as_xyz
1 x,y,z
2 -x,1/2+y,1/2-z
3 -x,-y,-z
4 x,1/2-y,1/2+z
_cell_length_a                   11.955(2)
_cell_length_b                   16.275(3)
_cell_length_c                   11.028(2)
_cell_angle_alpha                90
_cell_angle_beta                 113.25(3)
_cell_angle_gamma                90
_cell_volume                     1971.44
loop_
_atom_site_label
_atom_site_type_symbol
_atom_site_fract_x
_atom_site_fract_y
_atom_site_fract_z
Ti1 Ti -0.49317(4) -0.41460(3) 0.42052(4)
O1 O -0.6016(2) -0.38012(11) 0.2599(2)
O2 O -0.5507(2) -0.14578(12) 0.0318(2)
O3 O -0.3640(2) -0.35081(12) 0.4396(2)
O4 O 0.0592(2) -0.32755(15) 0.5499(2)
H1 H 0.0416(2) -0.37022(15) 0.5069(2)
O5 O -0.3966(2) -0.48823(11) 0.5769(2)
O6 O 0.0157(2) -0.55106(15) 0.6478(2)
H2 H -0.0196(2) -0.57583(15) 0.5783(2)
O7 O -0.4291(2) -0.50932(11) 0.3234(2)
H3 H -0.3904(2) -0.55372(11) 0.3764(2)
C1 C -0.6420(2) -0.3316(2) 0.1514(3)
C2 C -0.7546(2) -0.3486(2) 0.0499(3)
H4 H -0.8018(2) -0.3924(2) 0.0564(3)
C3 C -0.7949(2) -0.2980(2) -0.0616(3)
H5 H -0.8686(2) -0.3096(2) -0.1309(3)
C4 C -0.7269(3) -0.2308(2) -0.0711(3)
H6 H -0.7554(3) -0.1975(2) -0.1456(3)
C5 C -0.6153(2) -0.2137(2) 0.0325(3)
C6 C -0.5714(2) -0.2655(2) 0.1430(3)
H7 H -0.4956(2) -0.2558(2) 0.2102(3)
C7 C -0.2591(3) -0.3082(2) 0.5000(3)
C8 C -0.2596(3) -0.2355(2) 0.5660(3)
H8 H -0.3313(3) -0.2157(2) 0.5695(3)
C9 C -0.1501(3) -0.1927(2) 0.6270(3)
H9 H -0.1492(3) -0.1441(2) 0.6717(3)
C10 C -0.0431(3) -0.2215(2) 0.6221(3)
H10 H 0.0292(3) -0.1925(2) 0.6630(3)
C11 C -0.0449(3) -0.2938(2) 0.5559(3)
C12 C -0.1527(3) -0.3377(2) 0.4940(3)
H11 H -0.1532(3) -0.3862(2) 0.4491(3)
C13 C -0.2740(2) -0.4827(2) 0.6523(3)
C14 C -0.2325(3) -0.4370(2) 0.7685(3)
H12 H -0.2871(3) -0.4103(2) 0.7961(3)
C15 C -0.1074(3) -0.4318(2) 0.8428(3)
H13 H -0.0789(3) -0.4015(2) 0.9206(3)
C16 C -0.0252(3) -0.4709(2) 0.8027(3)
H14 H 0.0579(3) -0.4671(2) 0.8534(3)
C17 C -0.0673(3) -0.5158(2) 0.6867(3)
C18 C -0.1926(3) -0.5224(2) 0.6111(3)
H15 H -0.2209(3) -0.5533(2) 0.5339(3)
C19 C -0.4379(3) -0.5135(2) 0.1885(3)
H16 H -0.5155(3) -0.4892(2) 0.1301(3)
C20 C -0.4348(3) -0.6020(2) 0.1500(3)
H17 H -0.5019(3) -0.6310(2) 0.1569(3)
H18 H -0.3597(3) -0.6266(2) 0.2077(3)
H19 H -0.4408(3) -0.6046(2) 0.0606(3)
C21 C -0.3358(3) -0.4631(2) 0.1807(3)
H20 H -0.3424(3) -0.4076(2) 0.2064(3)
H21 H -0.3404(3) -0.4637(2) 0.0918(3)
H22 H -0.2593(3) -0.4858(2) 0.2388(3)
O2C O -0.5507(2) -0.35422(12) 0.5318(2)
Ti1C Ti -0.49317(4) -0.08540(3) -0.07948(4)
Ti1A Ti -0.50683(4) -0.91460(3) 0.07948(4)
O1A O -0.3984(2) -0.88012(11) 0.2401(2)
C1A C -0.3580(2) -0.8316(2) 0.3486(3)
C2A C -0.2454(2) -0.8486(2) 0.4501(3)
H4A H -0.1982(2) -0.8924(2) 0.4436(3)
C3A C -0.2051(2) -0.7980(2) 0.5616(3)
H5A H -0.1314(2) -0.8096(2) 0.6309(3)
C4A C -0.2731(3) -0.7308(2) 0.5711(3)
H6A H -0.2446(3) -0.6975(2) 0.6456(3)
C5A C -0.3847(2) -0.7137(2) 0.4675(3)
O2A O -0.4493(2) -0.64578(12) 0.4682(2)
Ti1B Ti -0.50683(4) -0.58540(3) 0.57948(4)
O1B O -0.3984(2) -0.61988(11) 0.7401(2)
O3B O -0.6360(2) -0.64919(12) 0.5604(2)
C7B C -0.7409(3) -0.6918(2) 0.5000(3)
C8B C -0.7404(3) -0.7645(2) 0.4340(3)
H8B H -0.6687(3) -0.7843(2) 0.4305(3)
C9B C -0.8499(3) -0.8073(2) 0.3730(3)
H9B H -0.8508(3) -0.8559(2) 0.3283(3)
C10B C -0.9569(3) -0.7785(2) 0.3779(3)
H10B H -1.0292(3) -0.8075(2) 0.3370(3)
C11B C -0.9551(3) -0.7062(2) 0.4441(3)
O4B O -1.0592(2) -0.67245(15) 0.4501(2)
H1B H -1.0416(2) -0.62978(15) 0.4931(2)
C12B C -0.8473(3) -0.6623(2) 0.5060(3)
H11B H -0.8468(3) -0.6138(2) 0.5509(3)
O5B O -0.6034(2) -0.51177(11) 0.4231(2)
C13B C -0.7260(2) -0.5173(2) 0.3477(3)
C14B C -0.7675(3) -0.5630(2) 0.2315(3)
H12B H -0.7129(3) -0.5897(2) 0.2039(3)
C15B C -0.8926(3) -0.5682(2) 0.1572(3)
H13B H -0.9211(3) -0.5985(2) 0.0794(3)
C16B C -0.9748(3) -0.5291(2) 0.1973(3)
H14B H -1.0579(3) -0.5329(2) 0.1466(3)
C17B C -0.9327(3) -0.4842(2) 0.3133(3)
O6B O -1.0157(2) -0.44894(15) 0.3522(2)
H2B H -0.9804(2) -0.42417(15) 0.4217(2)
C18B C -0.8074(3) -0.4776(2) 0.3889(3)
H15B H -0.7791(3) -0.4467(2) 0.4661(3)
O7B O -0.5709(2) -0.49068(11) 0.6766(2)
H3B H -0.6096(2) -0.44628(11) 0.6236(2)
C19B C -0.5621(3) -0.4865(2) 0.8115(3)
H16B H -0.4845(3) -0.5108(2) 0.8699(3)
C20B C -0.5652(3) -0.3980(2) 0.8500(3)
H17B H -0.4981(3) -0.3690(2) 0.8431(3)
H18B H -0.6403(3) -0.3734(2) 0.7923(3)
H19B H -0.5592(3) -0.3954(2) 0.9394(3)
C21B C -0.6642(3) -0.5369(2) 0.8193(3)
H20B H -0.6576(3) -0.5924(2) 0.7936(3)
H21B H -0.6596(3) -0.5363(2) 0.9082(3)
H22B H -0.7407(3) -0.5142(2) 0.7612(3)
C6A C -0.4286(2) -0.7655(2) 0.3570(3)
H7A H -0.5044(2) -0.7558(2) 0.2898(3)
loop_
_geom_bond_atom_site_label_1
_geom_bond_atom_site_label_2
_geom_bond_site_symmetry_1
_geom_bond_site_symmetry_2
Ti1 O1 1_555 1_555
O1 C1 1_555 1_555
O2 C5 1_555 1_555
O3 Ti1 1_555 1_555
O4 H1 1_555 1_555
O5 Ti1 1_555 1_555
O6 H2 1_555 1_555
O7 Ti1 1_555 1_555
H3 O7 1_555 1_555
C1 C2 1_555 1_555
C2 H4 1_555 1_555
C3 C2 1_555 1_555
H5 C3 1_555 1_555
C4 C3 1_555 1_555
H6 C4 1_555 1_555
C5 C4 1_555 1_555
C6 C1 1_555 1_555
H7 C6 1_555 1_555
C7 O3 1_555 1_555
C8 C7 1_555 1_555
H8 C8 1_555 1_555
C9 C8 1_555 1_555
H9 C9 1_555 1_555
C10 C9 1_555 1_555
H10 C10 1_555 1_555
C11 O4 1_555 1_555
C12 C7 1_555 1_555
H11 C12 1_555 1_555
C13 O5 1_555 1_555
C14 C13 1_555 1_555
H12 C14 1_555 1_555
C15 C14 1_555 1_555
H13 C15 1_555 1_555
C16 C15 1_555 1_555
H14 C16 1_555 1_555
C17 O6 1_555 1_555
C18 C13 1_555 1_555
H15 C18 1_555 1_555
C19 O7 1_555 1_555
H16 C19 1_555 1_555
C20 C19 1_555 1_555
H17 C20 1_555 1_555
H18 C20 1_555 1_555
H19 C20 1_555 1_555
C21 C19 1_555 1_555
H20 C21 1_555 1_555
H21 C21 1_555 1_555
H22 C21 1_555 1_555
O2C Ti1 1_555 1_555
Ti1C O2 1_555 1_555
Ti1A O1A 1_555 1_555
O1A C1A 1_555 1_555
C1A C2A 1_555 1_555
C2A H4A 1_555 1_555
C3A C2A 1_555 1_555
H5A C3A 1_555 1_555
C4A C3A 1_555 1_555
H6A C4A 1_555 1_555
C5A C4A 1_555 1_555
O2A C5A 1_555 1_555
Ti1B O5 1_555 1_555
O1B Ti1B 1_555 1_555
O3B Ti1B 1_555 1_555
C7B O3B 1_555 1_555
C8B C7B 1_555 1_555
H8B C8B 1_555 1_555
C9B C8B 1_555 1_555
H9B C9B 1_555 1_555
C10B C9B 1_555 1_555
H10B C10B 1_555 1_555
C11B C10B 1_555 1_555
O4B C11B 1_555 1_555
H1B O4B 1_555 1_555
C12B C7B 1_555 1_555
H11B C12B 1_555 1_555
O5B Ti1 1_555 1_555
C13B O5B 1_555 1_555
C14B C13B 1_555 1_555
H12B C14B 1_555 1_555
C15B C14B 1_555 1_555
H13B C15B 1_555 1_555
C16B C15B 1_555 1_555
H14B C16B 1_555 1_555
C17B C16B 1_555 1_555
O6B C17B 1_555 1_555
H2B O6B 1_555 1_555
C18B C13B 1_555 1_555
H15B C18B 1_555 1_555
O7B Ti1B 1_555 1_555
H3B O7B 1_555 1_555
C19B O7B 1_555 1_555
H16B C19B 1_555 1_555
C20B C19B 1_555 1_555
H17B C20B 1_555 1_555
H18B C20B 1_555 1_555
H19B C20B 1_555 1_555
C21B C19B 1_555 1_555
H20B C21B 1_555 1_555
H21B C21B 1_555 1_555
H22B C21B 1_555 1_555
C6A C1A 1_555 1_555
H7A C6A 1_555 1_555
C5 C6 1_555 1_555
C10 C11 1_555 1_555
C11 C12 1_555 1_555
C16 C17 1_555 1_555
C17 C18 1_555 1_555
C5A C6A 1_555 1_555
O2A Ti1B 1_555 1_555
Ti1B O5B 1_555 1_555
C11B C12B 1_555 1_555
C17B C18B 1_555 1_555

#END
