
#######################################################################
#
#                 Cambridge Crystallographic Data Centre
#                                CCDC 
#
#######################################################################
#
# If this CIF has been generated from an entry in the Cambridge 
# Structural Database, then it will include bibliographic, chemical, 
# crystal, experimental, refinement or atomic coordinate data resulting 
# from the CCDC's data processing and validation procedures.
#
#######################################################################

data_XEDPED
_symmetry_cell_setting           hexagonal
_symmetry_space_group_name_H-M   'P 63/m m c'
_symmetry_Int_Tables_number      194
_space_group_name_Hall           "-P 6c 2'c"
loop_
_symmetry_equiv_pos_site_id
_symmetry_equiv_pos_as_xyz
1 x,y,z
2 -y,x-y,z
3 -x+y,-x,z
4 -x,-y,1/2+z
5 y,-x+y,1/2+z
6 x-y,x,1/2+z
7 y,x,-z
8 x-y,-y,-z
9 -x,-x+y,-z
10 -y,-x,1/2-z
11 -x+y,y,1/2-z
12 x,x-y,1/2-z
13 -x,-y,-z
14 y,-x+y,-z
15 x-y,x,-z
16 x,y,1/2-z
17 -y,x-y,1/2-z
18 -x+y,-x,1/2-z
19 -y,-x,z
20 -x+y,y,z
21 x,x-y,z
22 y,x,1/2+z
23 x-y,-y,1/2+z
24 -x,-x+y,1/2+z
_cell_length_a                   26.884(10)
_cell_length_b                   26.884(10)
_cell_length_c                   18.121(10)
_cell_angle_alpha                90
_cell_angle_beta                 90
_cell_angle_gamma                120
_cell_volume                     11342.3
loop_
_atom_site_label
_atom_site_type_symbol
_atom_site_fract_x
_atom_site_fract_y
_atom_site_fract_z
Zn1 Zn 0.11057(7) 0.44222(9) 0.58395(11)
C1 C 0.2225(5) 0.4449(9) 0.5814(8)
H1 H 0.2249 0.4498 0.6335
N1 N 0.1790(5) 0.4413(5) 0.5417(6)
C2 C 0.1912(6) 0.4356(7) 0.4722(8)
C3 C 0.1655(9) 0.4330(10) 0.4071(7)
H2 H 0.1291 0.4307 0.4057
C4 C 0.1918(10) 0.4338(14) 0.3458(11)
H3 H 0.1749 0.4345 0.3000
C5 C 0.0000 0.3874(7) 0.5000
H4 H 0.0000 0.4228 0.5000
N2 N 0.0412(5) 0.3792(5) 0.5287(7)
C6 C 0.0253(6) 0.3231(6) 0.5208(9)
C7 C 0.0519(9) 0.2939(9) 0.5344(11)
H5 H 0.0898 0.3122 0.5539
C8 C 0.0230(11) 0.2370(8) 0.5194(13)
H6 H 0.0372 0.2134 0.5382
N3 N 0.0945(5) 0.4118(5) 0.6885(6)
C9 C 0.0513(7) 0.3632(7) 0.7126(8)
H7 H 0.0243 0.3329 0.6823
C10 C 0.1209(8) 0.4402(8) 0.7500
N4 N 0.1706(6) 0.4963(7) 0.7500
O1 O 0.1888(4) 0.5181(4) 0.6897(5)
N5 N 0.1225(6) 0.5198(5) 0.5541(8)
C11 C 0.1609(15) 0.5546(12) 0.5064(18)
H8 H 0.1848 0.5459 0.4768
C12 C 0.0992(8) 0.5496(4) 0.5811(13)
N6 N 0.0543(11) 0.5272(6) 0.635(2)
O2 O 0.0387(11) 0.4768(10) 0.6537(19)
Zn1S Zn 0.33165(11) 0.44222(9) 0.58395(11)
Zn1H Zn -0.11057(7) 0.33165(11) 0.41605(11)
Zn1O Zn 0.11057(7) 0.44222(9) 0.91605(11)
Zn1T Zn 0.11057(7) 0.66835(11) 0.58395(11)
N1S N 0.2623(7) 0.4413(5) 0.5417(6)
C2S C 0.2444(9) 0.4356(7) 0.4722(8)
C3S C 0.2675(13) 0.4330(10) 0.4071(7)
H2S H 0.3016 0.4307 0.4057
C4S C 0.2420(17) 0.4338(14) 0.3458(11)
H3S H 0.2596 0.4345 0.3000
N2H N -0.0412(5) 0.3380(7) 0.4713(7)
N2S N 0.3380(7) 0.3792(5) 0.5287(7)
C6H C -0.0253(6) 0.2978(8) 0.4792(9)
C7H C -0.0519(9) 0.2420(13) 0.4656(11)
H5H H -0.0898 0.2224 0.4461
C8H C -0.0230(11) 0.2140(14) 0.4806(13)
H6H H -0.0372 0.1762 0.4618
N3O N 0.0945(5) 0.4118(5) 0.8115(6)
N3S N 0.3173(7) 0.4118(5) 0.6885(6)
C9O C 0.0513(7) 0.3632(7) 0.7874(8)
H7O H 0.0243 0.3329 0.8177
O1O O 0.1888(4) 0.5181(4) 0.8103(5)
N5T N 0.1225(6) 0.6027(8) 0.5541(8)
N5S N 0.3973(8) 0.5198(5) 0.5541(8)
C11T C 0.1609(15) 0.6063(19) 0.5064(18)
H8T H 0.1848 0.6389 0.4768
O2T O 0.0387(11) 0.5619(15) 0.6537(19)
O3 O 0.1956(5) 0.3912(11) 0.7500
loop_
_geom_bond_atom_site_label_1
_geom_bond_atom_site_label_2
_geom_bond_site_symmetry_1
_geom_bond_site_symmetry_2
Zn1 N1 1_555 1_555
C1 H1 1_555 1_555
N1 C1 1_555 1_555
C2 N1 1_555 1_555
C3 C2 1_555 1_555
H2 C3 1_555 1_555
C4 C3 1_555 1_555
H3 C4 1_555 1_555
C5 H4 1_555 1_555
N2 Zn1 1_555 1_555
C6 N2 1_555 1_555
C7 C6 1_555 1_555
H5 C7 1_555 1_555
C8 C7 1_555 1_555
H6 C8 1_555 1_555
N3 Zn1 1_555 1_555
C9 N3 1_555 1_555
H7 C9 1_555 1_555
C10 N3 1_555 1_555
N4 C10 1_555 1_555
O1 N4 1_555 1_555
N5 Zn1 1_555 1_555
C11 N5 1_555 1_555
H8 C11 1_555 1_555
C12 N5 1_555 1_555
N6 C12 1_555 1_555
O2 N6 1_555 1_555
Zn1S N1S 1_555 1_555
Zn1H N2H 1_555 1_555
Zn1O N3O 1_555 1_555
Zn1T N5T 1_555 1_555
N1S C1 1_555 1_555
C2S C2 1_555 1_555
C3S C2S 1_555 1_555
H2S C3S 1_555 1_555
C4S C4 1_555 1_555
H3S C4S 1_555 1_555
N2H C5 1_555 1_555
N2S Zn1S 1_555 1_555
C6H C6 1_555 1_555
C7H C6H 1_555 1_555
H5H C7H 1_555 1_555
C8H C8 1_555 1_555
H6H C8H 1_555 1_555
N3O C10 1_555 1_555
N3S Zn1S 1_555 1_555
C9O C9 1_555 1_555
H7O C9O 1_555 1_555
O1O N4 1_555 1_555
N5T C12 1_555 1_555
N5S Zn1S 1_555 1_555
C11T C11 1_555 1_555
H8T C11T 1_555 1_555
O2T N6 1_555 1_555
C5 N2 1_555 1_555
N1S C2S 1_555 1_555
C3S C4S 1_555 1_555
N2H C6H 1_555 1_555
C7H C8H 1_555 1_555
N3O C9O 1_555 1_555
N5T C11T 1_555 1_555

#END
