
#######################################################################
#
#                 Cambridge Crystallographic Data Centre
#                                CCDC 
#
#######################################################################
#
# If this CIF has been generated from an entry in the Cambridge 
# Structural Database, then it will include bibliographic, chemical, 
# crystal, experimental, refinement or atomic coordinate data resulting 
# from the CCDC's data processing and validation procedures.
#
#######################################################################

data_XEDPON
_symmetry_cell_setting           tetragonal
_symmetry_space_group_name_H-M   'I -4'
_symmetry_Int_Tables_number      82
_space_group_name_Hall           'I -4'
loop_
_symmetry_equiv_pos_site_id
_symmetry_equiv_pos_as_xyz
1 x,y,z
2 y,-x,-z
3 -x,-y,z
4 -y,x,-z
5 1/2+x,1/2+y,1/2+z
6 1/2+y,1/2-x,1/2-z
7 1/2-x,1/2-y,1/2+z
8 1/2-y,1/2+x,1/2-z
_cell_length_a                   15.02(3)
_cell_length_b                   15.02(3)
_cell_length_c                   9.570(19)
_cell_angle_alpha                90
_cell_angle_beta                 90
_cell_angle_gamma                90
_cell_volume                     2159
loop_
_atom_site_label
_atom_site_type_symbol
_atom_site_fract_x
_atom_site_fract_y
_atom_site_fract_z
Zn1 Zn -0.32137(6) -0.15392(5) -0.45684(9)
N1 N -0.3190(5) -0.2033(5) -0.2621(7)
C1 C -0.2485(5) -0.2429(6) -0.2010(10)
H1 H -0.1917 -0.2422 -0.2398
N2 N -0.2669(4) -0.2830(4) -0.0806(7)
C2 C -0.3556(5) -0.2711(5) -0.0612(8)
N3 N -0.4038(4) -0.2992(4) 0.0467(8)
C3 C -0.4884(5) -0.2750(6) 0.0420(10)
H2 H -0.5255 -0.2947 0.1134
N4 N -0.5252(4) -0.2236(5) -0.0594(8)
C4 C -0.4770(5) -0.1957(6) -0.1689(9)
H3 H -0.5022 -0.1615 -0.2396
C5 C -0.3869(5) -0.2204(5) -0.1722(8)
O1 O -0.4267(12) -0.1892(12) -0.572(3)
O2 O -0.4769(12) -0.0794(12) -0.444(2)
C6 C -0.4797(13) -0.1287(17) -0.549(3)
C7 C -0.5707(14) -0.133(2) -0.628(3)
H4 H -0.6042 -0.0801 -0.6099
H5 H -0.6037 -0.1842 -0.5964
H6 H -0.5601 -0.1385 -0.7268
Zn1E Zn -0.65392(5) -0.17863(6) -0.04316(9)
Zn1G Zn -0.34608(5) 0.17863(6) -0.04316(9)
Zn1B Zn -0.67863(6) 0.15392(5) -0.45684(9)
Zn1A Zn -0.15392(5) 0.32137(6) -0.54316(9)
Zn1C Zn -0.84608(5) -0.32137(6) -0.54316(9)
Zn1D Zn -0.82137(6) 0.34608(5) 0.04316(9)
Zn1F Zn -0.17863(6) -0.34608(5) 0.04316(9)
N1E N -0.7033(5) -0.1810(5) -0.2379(7)
N1G N -0.2967(5) 0.1810(5) -0.2379(7)
N1B N -0.6810(5) 0.2033(5) -0.2621(7)
C1E C -0.7429(6) -0.2515(5) -0.2990(10)
C1G C -0.2571(6) 0.2515(5) -0.2990(10)
C1B C -0.7515(5) 0.2429(6) -0.2010(10)
H1E H -0.7422 -0.3083 -0.2602
H1G H -0.2578 0.3083 -0.2602
H1B H -0.8083 0.2422 -0.2398
N2E N -0.7830(4) -0.2331(4) -0.4194(7)
N2G N -0.2170(4) 0.2331(4) -0.4194(7)
N2B N -0.7331(4) 0.2830(4) -0.0806(7)
N2A N -0.2830(4) 0.2669(4) 0.0806(7)
N2C N -0.7170(4) -0.2669(4) 0.0806(7)
N2D N -0.7669(4) 0.2170(4) -0.5806(7)
N2F N -0.2331(4) -0.2170(4) -0.5806(7)
C2E C -0.7711(5) -0.1444(5) -0.4388(8)
C2G C -0.2289(5) 0.1444(5) -0.4388(8)
C2B C -0.6444(5) 0.2711(5) -0.0612(8)
N3E N -0.7992(4) -0.0962(4) -0.5467(8)
N3G N -0.2008(4) 0.0962(4) -0.5467(8)
N3B N -0.5962(4) 0.2992(4) 0.0467(8)
C3E C -0.7750(6) -0.0116(5) -0.5420(10)
C3G C -0.2250(6) 0.0116(5) -0.5420(10)
C3B C -0.5116(5) 0.2750(6) 0.0420(10)
H2E H -0.7947 0.0255 -0.6134
H2G H -0.2053 -0.0255 -0.6134
H2B H -0.4745 0.2947 0.1134
N4E N -0.7236(5) 0.0252(4) -0.4406(8)
N4G N -0.2764(5) -0.0252(4) -0.4406(8)
N4B N -0.4748(4) 0.2236(5) -0.0594(8)
C4E C -0.6957(6) -0.0230(5) -0.3311(9)
C4G C -0.3043(6) 0.0230(5) -0.3311(9)
C4B C -0.5230(5) 0.1957(6) -0.1689(9)
H3E H -0.6615 0.0022 -0.2604
H3G H -0.3385 -0.0022 -0.2604
H3B H -0.4978 0.1615 -0.2396
C5E C -0.7204(5) -0.1131(5) -0.3278(8)
C5G C -0.2796(5) 0.1131(5) -0.3278(8)
C5B C -0.6131(5) 0.2204(5) -0.1722(8)
O1E O -0.6892(12) -0.0733(12) 0.072(3)
O1G O -0.3108(12) 0.0733(12) 0.072(3)
O1B O -0.5733(12) 0.1892(12) -0.572(3)
O2E O -0.5794(12) -0.0231(12) -0.056(2)
O2G O -0.4206(12) 0.0231(12) -0.056(2)
O2B O -0.5231(12) 0.0794(12) -0.444(2)
C6E C -0.6287(17) -0.0203(13) 0.049(3)
C6G C -0.3713(17) 0.0203(13) 0.049(3)
C6B C -0.5203(13) 0.1287(17) -0.549(3)
C7E C -0.633(2) 0.0707(14) 0.128(3)
C7G C -0.367(2) -0.0707(14) 0.128(3)
C7B C -0.4293(14) 0.133(2) -0.628(3)
H4E H -0.5801 0.1042 0.1099
H4G H -0.4199 -0.1042 0.1099
H4B H -0.3958 0.0801 -0.6099
H5E H -0.6842 0.1037 0.0964
H5G H -0.3158 -0.1037 0.0964
H5B H -0.3963 0.1842 -0.5964
H6E H -0.6385 0.0601 0.2268
H6G H -0.3615 -0.0601 0.2268
H6B H -0.4399 0.1385 -0.7268
loop_
_geom_bond_atom_site_label_1
_geom_bond_atom_site_label_2
_geom_bond_site_symmetry_1
_geom_bond_site_symmetry_2
Zn1 N1 1_555 1_555
N1 C1 1_555 1_555
C1 H1 1_555 1_555
N2 C1 1_555 1_555
C2 N2 1_555 1_555
N3 C2 1_555 1_555
C3 N3 1_555 1_555
H2 C3 1_555 1_555
N4 C3 1_555 1_555
C4 N4 1_555 1_555
H3 C4 1_555 1_555
C5 N1 1_555 1_555
O1 Zn1 1_555 1_555
O2 C6 1_555 1_555
C6 O1 1_555 1_555
C7 C6 1_555 1_555
H4 C7 1_555 1_555
H5 C7 1_555 1_555
H6 C7 1_555 1_555
Zn1E N4 1_555 1_555
Zn1G N1G 1_555 1_555
Zn1B N1B 1_555 1_555
Zn1A N2G 1_555 1_555
Zn1C N2E 1_555 1_555
Zn1D N2B 1_555 1_555
Zn1F N2 1_555 1_555
N1E Zn1E 1_555 1_555
N1G C1G 1_555 1_555
N1B C1B 1_555 1_555
C1E N1E 1_555 1_555
C1G H1G 1_555 1_555
C1B H1B 1_555 1_555
H1E C1E 1_555 1_555
N2E C1E 1_555 1_555
N2G C1G 1_555 1_555
N2B C1B 1_555 1_555
N2A Zn1G 1_555 1_555
N2C Zn1E 1_555 1_555
N2D Zn1B 1_555 1_555
N2F Zn1 1_555 1_555
C2E N2E 1_555 1_555
C2G N2G 1_555 1_555
C2B N2B 1_555 1_555
N3E C2E 1_555 1_555
N3G C2G 1_555 1_555
N3B C2B 1_555 1_555
C3E N3E 1_555 1_555
C3G N3G 1_555 1_555
C3B N3B 1_555 1_555
H2E C3E 1_555 1_555
H2G C3G 1_555 1_555
H2B C3B 1_555 1_555
N4E Zn1B 1_555 1_555
N4G Zn1 1_555 1_555
N4B Zn1G 1_555 1_555
C4E N4E 1_555 1_555
C4G N4G 1_555 1_555
C4B N4B 1_555 1_555
H3E C4E 1_555 1_555
H3G C4G 1_555 1_555
H3B C4B 1_555 1_555
C5E N1E 1_555 1_555
C5G N1G 1_555 1_555
C5B N1B 1_555 1_555
O1E Zn1E 1_555 1_555
O1G Zn1G 1_555 1_555
O1B Zn1B 1_555 1_555
O2E C6E 1_555 1_555
O2G C6G 1_555 1_555
O2B C6B 1_555 1_555
C6E O1E 1_555 1_555
C6G O1G 1_555 1_555
C6B O1B 1_555 1_555
C7E C6E 1_555 1_555
C7G C6G 1_555 1_555
C7B C6B 1_555 1_555
H4E C7E 1_555 1_555
H4G C7G 1_555 1_555
H4B C7B 1_555 1_555
H5E C7E 1_555 1_555
H5G C7G 1_555 1_555
H5B C7B 1_555 1_555
H6E C7E 1_555 1_555
H6G C7G 1_555 1_555
H6B C7B 1_555 1_555
C2 C5 1_555 1_555
C4 C5 1_555 1_555
C2E C5E 1_555 1_555
C2G C5G 1_555 1_555
C2B C5B 1_555 1_555
C3E N4E 1_555 1_555
C3G N4G 1_555 1_555
C3B N4B 1_555 1_555
C4E C5E 1_555 1_555
C4G C5G 1_555 1_555
C4B C5B 1_555 1_555

#END
