
#######################################################################
#
#                 Cambridge Crystallographic Data Centre
#                                CCDC 
#
#######################################################################
#
# If this CIF has been generated from an entry in the Cambridge 
# Structural Database, then it will include bibliographic, chemical, 
# crystal, experimental, refinement or atomic coordinate data resulting 
# from the CCDC's data processing and validation procedures.
#
#######################################################################

data_XEDWOU
_symmetry_cell_setting           triclinic
_symmetry_space_group_name_H-M   'P -1'
_symmetry_Int_Tables_number      2
_space_group_name_Hall           '-P 1'
loop_
_symmetry_equiv_pos_site_id
_symmetry_equiv_pos_as_xyz
1 x,y,z
2 -x,-y,-z
_cell_length_a                   9.917(2)
_cell_length_b                   10.030(2)
_cell_length_c                   10.069(2)
_cell_angle_alpha                69.16(3)
_cell_angle_beta                 79.21(3)
_cell_angle_gamma                86.22(3)
_cell_volume                     919.466
loop_
_atom_site_label
_atom_site_type_symbol
_atom_site_fract_x
_atom_site_fract_y
_atom_site_fract_z
Co1 Co 1.12791(2) 0.53997(2) 0.14233(2)
C1 C 0.93693(18) 0.79357(19) 0.0248(2)
H1 H 0.9694 0.7764 -0.0604
C2 C 0.84451(18) 0.90324(19) 0.0213(2)
H2 H 0.8166 0.9577 -0.0652
C3 C 0.79319(18) 0.93272(19) 0.1449(2)
C4 C 0.8383(2) 0.8454(2) 0.2698(2)
H3 H 0.8060 0.8598 0.3565
C5 C 0.93085(19) 0.73735(19) 0.26609(19)
H4 H 0.9589 0.6804 0.3517
C6 C 0.69399(19) 1.0527(2) 0.1437(2)
H5 H 0.7090 1.1257 0.0484
H6 H 0.7124 1.0948 0.2116
C7 C 0.54504(17) 1.00606(18) 0.1826(2)
H7 H 0.5284 0.9579 0.1190
H8 H 0.5285 0.9379 0.2805
C8 C 0.44487(17) 1.12780(18) 0.17167(18)
C9 C 0.46073(17) 1.25267(18) 0.05178(18)
H9 H 0.5322 1.2612 -0.0251
C10 C 0.37003(16) 1.36415(18) 0.04711(18)
H10 H 0.3833 1.4469 -0.0339
C11 C 0.24707(17) 1.23785(18) 0.26790(18)
H11 H 0.1734 1.2313 0.3422
C12 C 0.33403(17) 1.12186(18) 0.28097(19)
H12 H 0.3183 1.0400 0.3628
C13 C 1.23317(16) 0.58459(17) 0.33023(17)
C14 C 1.28729(16) 0.61600(17) 0.44531(17)
C15 C 1.42259(17) 0.65675(17) 0.42481(17)
H13 H 1.4806 0.6680 0.3375
C16 C 1.47151(17) 0.68087(18) 0.53524(18)
H14 H 1.5627 0.7069 0.5222
C17 C 1.38480(17) 0.66617(17) 0.66416(18)
H15 H 1.4181 0.6815 0.7380
C18 C 1.24733(16) 0.62847(17) 0.68434(17)
C19 C 1.19992(17) 0.60266(17) 0.57412(17)
H16 H 1.1089 0.5762 0.5870
C20 C 1.15153(16) 0.61260(16) 0.82333(17)
N1 N 0.98226(14) 0.71044(15) 0.14527(15)
N2 N 0.26397(13) 1.35956(14) 0.15299(14)
O1 O 1.13683(11) 0.49527(12) 0.36721(12)
O2 O 1.28167(12) 0.64876(12) 0.19903(12)
O3 O 1.02583(11) 0.59527(12) 0.82925(12)
O4 O 1.20227(11) 0.62098(12) 0.92608(11)
Co1_2 Co 0.12791(2) 1.53997(2) 0.14233(2)
Co1A Co 0.87209(2) 0.46003(2) 0.85767(2)
Co1_3 Co 1.12791(2) 0.53997(2) 1.14233(2)
N2_2 N 1.26397(13) 0.35956(14) 0.15299(14)
O3A O 0.97417(11) 0.40473(12) 0.17075(12)
O4_2 O 1.20227(11) 0.62098(12) -0.07392(11)
loop_
_geom_bond_atom_site_label_1
_geom_bond_atom_site_label_2
_geom_bond_site_symmetry_1
_geom_bond_site_symmetry_2
Co1 N1 1_555 1_555
C1 H1 1_555 1_555
C2 C1 1_555 1_555
H2 C2 1_555 1_555
C3 C2 1_555 1_555
C4 C3 1_555 1_555
H3 C4 1_555 1_555
C5 C4 1_555 1_555
H4 C5 1_555 1_555
C6 C3 1_555 1_555
H5 C6 1_555 1_555
H6 C6 1_555 1_555
C7 C6 1_555 1_555
H7 C7 1_555 1_555
H8 C7 1_555 1_555
C8 C7 1_555 1_555
C9 C8 1_555 1_555
H9 C9 1_555 1_555
C10 C9 1_555 1_555
H10 C10 1_555 1_555
C11 H11 1_555 1_555
C12 C8 1_555 1_555
H12 C12 1_555 1_555
C13 C14 1_555 1_555
C14 C15 1_555 1_555
C15 H13 1_555 1_555
C16 C15 1_555 1_555
H14 C16 1_555 1_555
C17 C16 1_555 1_555
H15 C17 1_555 1_555
C18 C17 1_555 1_555
C19 C14 1_555 1_555
H16 C19 1_555 1_555
C20 C18 1_555 1_555
N1 C1 1_555 1_555
N2 C10 1_555 1_555
O1 Co1 1_555 1_555
O2 Co1 1_555 1_555
O3 C20 1_555 1_555
O4 C20 1_555 1_555
Co1_2 N2 1_555 1_555
Co1A O3 1_555 1_555
Co1_3 O4 1_555 1_555
N2_2 Co1 1_555 1_555
O3A Co1 1_555 1_555
O4_2 Co1 1_555 1_555
C5 N1 1_555 1_555
C11 C12 1_555 1_555
C11 N2 1_555 1_555
C13 O1 1_555 1_555
C13 O2 1_555 1_555
C18 C19 1_555 1_555

#END
