
#######################################################################
#
#                 Cambridge Crystallographic Data Centre
#                                CCDC 
#
#######################################################################
#
# If this CIF has been generated from an entry in the Cambridge 
# Structural Database, then it will include bibliographic, chemical, 
# crystal, experimental, refinement or atomic coordinate data resulting 
# from the CCDC's data processing and validation procedures.
#
#######################################################################

data_XEDZUB
_symmetry_cell_setting           monoclinic
_symmetry_space_group_name_H-M   'P 21/c'
_symmetry_Int_Tables_number      14
_space_group_name_Hall           '-P 2ybc'
loop_
_symmetry_equiv_pos_site_id
_symmetry_equiv_pos_as_xyz
1 x,y,z
2 x,1/2-y,1/2+z
3 -x,-y,-z
4 -x,1/2+y,1/2-z
_cell_length_a                   10.483(4)
_cell_length_b                   8.9330(10)
_cell_length_c                   13.707(2)
_cell_angle_alpha                90.000(10)
_cell_angle_beta                 104.72(2)
_cell_angle_gamma                90.00(2)
_cell_volume                     1241.46
loop_
_atom_site_label
_atom_site_type_symbol
_atom_site_fract_x
_atom_site_fract_y
_atom_site_fract_z
Ag1 Ag -0.07976(4) 0.12977(6) -0.08084(3)
N1 N -0.2560(4) 0.0072(5) -0.1485(3)
N2 N -0.0952(4) -0.2384(5) -0.4670(3)
O1 O -0.3960(4) -0.1793(6) -0.3880(3)
C1 C -0.3535(6) -0.0159(8) -0.1047(4)
H1 H -0.3457 0.0218 -0.0402
C2 C -0.4648(6) -0.0930(9) -0.1508(5)
H2 H -0.5306 -0.1080 -0.1173
C3 C -0.4800(5) -0.1486(7) -0.2466(5)
H3 H -0.5555 -0.2006 -0.2795
C4 C -0.3780(5) -0.1237(6) -0.2918(4)
C5 C -0.2681(5) -0.0470(7) -0.2410(4)
H4 H -0.1997 -0.0324 -0.2720
C6 C -0.2979(5) -0.1589(7) -0.4391(4)
C7 C -0.3185(6) -0.0614(9) -0.5181(5)
H5 H -0.3926 -0.0001 -0.5343
C8 C -0.2252(7) -0.0572(9) -0.5731(5)
H6 H -0.2365 0.0056 -0.6288
C9 C 0.1869(5) -0.7451(7) -0.0862(4)
H7 H 0.1744 -0.8095 -0.1411
C10 C -0.1163(6) -0.1459(7) -0.5451(5)
H8 H 0.0538 -0.6414 0.0826
N2C N 0.0952(4) 0.2616(5) -0.0330(3)
Ag1C Ag 0.07976(4) -0.37023(6) -0.41916(3)
N1C N 0.2560(4) -0.4928(5) -0.3515(3)
C1C C 0.3535(6) -0.5159(8) -0.3953(4)
H1C H 0.3457 -0.4782 -0.4598
C2C C 0.4648(6) -0.5930(9) -0.3492(5)
H2C H 0.5306 -0.6080 -0.3827
C3C C 0.4800(5) -0.6486(7) -0.2534(5)
H3C H 0.5555 -0.7006 -0.2205
C4C C 0.3780(5) -0.6237(6) -0.2082(4)
O1C O 0.3960(4) -0.6793(6) -0.1120(3)
C6C C 0.2979(5) -0.6589(7) -0.0609(4)
C7C C 0.3185(6) -0.5614(9) 0.0181(5)
H5C H 0.3926 -0.5001 0.0343
C8C C 0.2252(7) -0.5572(9) 0.0731(5)
H6C H 0.2365 -0.4944 0.1288
C10C C 0.1163(6) -0.6459(7) 0.0451(5)
N2C_2 N 0.0952(4) -0.7384(5) -0.0330(3)
Ag1_2 Ag -0.07976(4) -0.87023(6) -0.08084(3)
C5C C 0.2681(5) -0.5470(7) -0.2590(4)
H4C H 0.1997 -0.5324 -0.2280
C9C C -0.1869(5) -0.2451(7) -0.4138(4)
H7C H -0.1744 -0.3095 -0.3589
H8C H -0.0538 -0.1414 -0.5826
B1 B -0.1479(7) 0.3170(10) -0.3289(5)
F1 F -0.2167(7) 0.3446(10) -0.2649(5)
F2 F -0.0679(6) 0.1951(8) -0.2952(5)
F3 F -0.2312(11) 0.2744(14) -0.4143(6)
F4 F -0.0833(11) 0.4152(9) -0.3646(10)
loop_
_geom_bond_atom_site_label_1
_geom_bond_atom_site_label_2
_geom_bond_site_symmetry_1
_geom_bond_site_symmetry_2
Ag1 N1 1_555 1_555
N1 C1 1_555 1_555
N2 C10 1_555 1_555
O1 C4 1_555 1_555
C1 H1 1_555 1_555
C2 C1 1_555 1_555
H2 C2 1_555 1_555
C3 C2 1_555 1_555
H3 C3 1_555 1_555
C4 C3 1_555 1_555
C5 N1 1_555 1_555
H4 C5 1_555 1_555
C6 O1 1_555 1_555
C7 C6 1_555 1_555
H5 C7 1_555 1_555
C8 C7 1_555 1_555
H6 C8 1_555 1_555
C9 H7 1_555 1_555
C10 C8 1_555 1_555
H8 C10C 1_555 1_555
B1 F1 1_555 1_555
F2 B1 1_555 1_555
F3 B1 1_555 1_555
F4 B1 1_555 1_555
N2C Ag1 1_555 1_555
Ag1C N2 1_555 1_555
N1C Ag1C 1_555 1_555
C1C N1C 1_555 1_555
H1C C1C 1_555 1_555
C2C C1C 1_555 1_555
H2C C2C 1_555 1_555
C3C C2C 1_555 1_555
H3C C3C 1_555 1_555
C4C C3C 1_555 1_555
O1C C4C 1_555 1_555
C6C C9 1_555 1_555
C7C C6C 1_555 1_555
H5C C7C 1_555 1_555
C8C C7C 1_555 1_555
H6C C8C 1_555 1_555
C10C C8C 1_555 1_555
N2C_2 C9 1_555 1_555
Ag1_2 N2C_2 1_555 1_555
C5C N1C 1_555 1_555
H4C C5C 1_555 1_555
C9C N2 1_555 1_555
H7C C9C 1_555 1_555
H8C C10 1_555 1_555
C4 C5 1_555 1_555
C6 C9C 1_555 1_555
C4C C5C 1_555 1_555
O1C C6C 1_555 1_555
C10C N2C_2 1_555 1_555

#END
