
#######################################################################
#
#                 Cambridge Crystallographic Data Centre
#                                CCDC 
#
#######################################################################
#
# If this CIF has been generated from an entry in the Cambridge 
# Structural Database, then it will include bibliographic, chemical, 
# crystal, experimental, refinement or atomic coordinate data resulting 
# from the CCDC's data processing and validation procedures.
#
#######################################################################

data_XEDZOV
_symmetry_cell_setting           monoclinic
_symmetry_space_group_name_H-M   'P 21/c'
_symmetry_Int_Tables_number      14
_space_group_name_Hall           '-P 2ybc'
loop_
_symmetry_equiv_pos_site_id
_symmetry_equiv_pos_as_xyz
1 x,y,z
2 x,1/2-y,1/2+z
3 -x,-y,-z
4 -x,1/2+y,1/2-z
_cell_length_a                   11.0210(10)
_cell_length_b                   7.430(2)
_cell_length_c                   13.721(2)
_cell_angle_alpha                90.00(2)
_cell_angle_beta                 99.040(10)
_cell_angle_gamma                90.00(2)
_cell_volume                     1109.6
loop_
_atom_site_label
_atom_site_type_symbol
_atom_site_fract_x
_atom_site_fract_y
_atom_site_fract_z
Ag1 Ag -0.43099(3) 0.15817(6) -0.42400(3)
O1 O -0.1094(3) -0.1268(5) -0.1220(2)
N1 N -0.2574(3) 0.0483(5) -0.3595(3)
N2 N -0.3951(3) -0.2169(5) -0.0284(3)
C1 C -0.1638(4) 0.0287(7) -0.4102(3)
H1 H -0.1741 0.0655 -0.4758
C2 C -0.0529(4) -0.0440(7) -0.3686(3)
H2 H 0.0105 -0.0557 -0.4056
C3 C -0.0367(4) -0.0990(7) -0.2721(3)
H3 H 0.0372 -0.1500 -0.2428
C4 C -0.1326(4) -0.0767(6) -0.2194(3)
C5 C -0.2415(4) -0.0019(6) -0.2655(3)
H4 H -0.3056 0.0138 -0.2295
C6 C -0.3691(4) -0.1354(6) 0.0598(3)
H5 H -0.4270 -0.1397 0.1024
C7 C -0.2607(4) -0.0462(7) 0.0895(3)
H6 H -0.2454 0.0084 0.1512
C8 C -0.1749(4) -0.0384(7) 0.0268(3)
H7 H -0.1010 0.0224 0.0448
C9 C -0.2014(4) -0.1227(6) -0.0628(3)
C10 C -0.3106(4) -0.2115(6) -0.0885(3)
H8 H -0.3265 -0.2694 -0.1493
N2C N -0.6049(3) 0.2831(5) -0.4716(3)
Ag1C Ag -0.56901(3) -0.34183(6) -0.07600(3)
N1C N -0.7426(3) -0.4517(5) -0.1405(3)
C6C C -0.6309(4) 0.3646(6) -0.5598(3)
C10C C -0.6894(4) 0.2885(6) -0.4115(3)
H5C H -0.5730 0.3603 -0.6024
C7C C -0.7393(4) 0.4538(7) -0.5895(3)
C9C C -0.7986(4) 0.3773(6) -0.4372(3)
H8C H -0.6735 0.2306 -0.3507
H6C H -0.7546 0.5084 -0.6512
C8C C -0.8251(4) 0.4616(7) -0.5268(3)
O1C O -0.8906(3) 0.3732(5) -0.3780(2)
H7C H -0.8990 0.5224 -0.5448
C4C C -0.8674(4) 0.4233(6) -0.2806(3)
C3C C -0.9633(4) 0.4010(7) -0.2279(3)
C5C C -0.7585(4) 0.4981(6) -0.2345(3)
C2C C -0.9471(4) 0.4560(7) -0.1314(3)
H3C H -1.0372 0.3500 -0.2572
N1C_2 N -0.7426(3) 0.5483(5) -0.1405(3)
H4C H -0.6944 0.5138 -0.2705
C1C C -0.8362(4) 0.5287(7) -0.0898(3)
H2C H -1.0105 0.4443 -0.0944
Ag1C_2 Ag -0.56901(3) 0.65817(6) -0.07600(3)
H1C H -0.8259 0.5655 -0.0242
O2 O -0.3633(5) 0.2305(8) -0.5976(3)
O3 O -0.2422(4) 0.0985(7) -0.6774(3)
O4 O -0.4329(5) 0.0834(10) -0.7270(4)
N3 N -0.3482(4) 0.1363(6) -0.6679(3)
loop_
_geom_bond_atom_site_label_1
_geom_bond_atom_site_label_2
_geom_bond_site_symmetry_1
_geom_bond_site_symmetry_2
Ag1 N1 1_555 1_555
O1 C4 1_555 1_555
O2 N3 1_555 1_555
O3 N3 1_555 1_555
O4 N3 1_555 1_555
N1 C1 1_555 1_555
N2 C6 1_555 1_555
C1 H1 1_555 1_555
C2 C1 1_555 1_555
H2 C2 1_555 1_555
C3 C2 1_555 1_555
H3 C3 1_555 1_555
C4 C3 1_555 1_555
C5 N1 1_555 1_555
H4 C5 1_555 1_555
C6 H5 1_555 1_555
C7 C6 1_555 1_555
H6 C7 1_555 1_555
C8 C7 1_555 1_555
H7 C8 1_555 1_555
C9 O1 1_555 1_555
C10 N2 1_555 1_555
H8 C10 1_555 1_555
N2C Ag1 1_555 1_555
Ag1C N2 1_555 1_555
N1C Ag1C 1_555 1_555
C6C N2C 1_555 1_555
C10C N2C 1_555 1_555
H5C C6C 1_555 1_555
C7C C6C 1_555 1_555
C9C C10C 1_555 1_555
H8C C10C 1_555 1_555
H6C C7C 1_555 1_555
C8C C7C 1_555 1_555
O1C C9C 1_555 1_555
H7C C8C 1_555 1_555
C4C O1C 1_555 1_555
C3C C4C 1_555 1_555
C5C C4C 1_555 1_555
C2C C3C 1_555 1_555
H3C C3C 1_555 1_555
N1C_2 C5C 1_555 1_555
H4C C5C 1_555 1_555
C1C C2C 1_555 1_555
H2C C2C 1_555 1_555
Ag1C_2 N1C_2 1_555 1_555
H1C C1C 1_555 1_555
C4 C5 1_555 1_555
C8 C9 1_555 1_555
C9 C10 1_555 1_555
C9C C8C 1_555 1_555
N1C_2 C1C 1_555 1_555

#END
