
#######################################################################
#
#                 Cambridge Crystallographic Data Centre
#                                CCDC 
#
#######################################################################
#
# If this CIF has been generated from an entry in the Cambridge 
# Structural Database, then it will include bibliographic, chemical, 
# crystal, experimental, refinement or atomic coordinate data resulting 
# from the CCDC's data processing and validation procedures.
#
#######################################################################

data_XEFBAL
_symmetry_cell_setting           monoclinic
_symmetry_space_group_name_H-M   'P 21/c'
_symmetry_Int_Tables_number      14
_space_group_name_Hall           '-P 2ybc'
loop_
_symmetry_equiv_pos_site_id
_symmetry_equiv_pos_as_xyz
1 x,y,z
2 x,1/2-y,1/2+z
3 -x,-y,-z
4 -x,1/2+y,1/2-z
_cell_length_a                   10.5530(10)
_cell_length_b                   9.034(2)
_cell_length_c                   13.708(2)
_cell_angle_alpha                90.00(2)
_cell_angle_beta                 106.700(10)
_cell_angle_gamma                90.000(10)
_cell_volume                     1251.74
loop_
_atom_site_label
_atom_site_type_symbol
_atom_site_fract_x
_atom_site_fract_y
_atom_site_fract_z
Ag1 Ag -0.57919(4) 0.12939(5) 0.41661(3)
O1 O -0.1012(3) 0.3057(5) 0.3884(3)
N1 N -0.4007(4) 0.2581(5) 0.4653(3)
N2 N -0.2425(4) 0.5074(5) 0.1513(3)
C1 C -0.3108(4) 0.2462(6) 0.4135(3)
H1 H -0.3258 0.1799 0.3595
C2 C -0.1981(4) 0.3287(6) 0.4381(3)
C3 C -0.1746(6) 0.4281(7) 0.5166(4)
H2 H -0.0989 0.4866 0.5337
C4 C -0.2670(6) 0.4383(8) 0.5694(5)
H3 H -0.2541 0.5039 0.6236
C5 C -0.3778(5) 0.3520(6) 0.5420(4)
H4 H -0.4391 0.3597 0.5788
C6 C -0.2303(4) 0.4463(5) 0.2434(3)
H5 H -0.7014 0.9571 0.2269
C7 C -0.1199(4) 0.3688(5) 0.2937(3)
C8 C -0.0198(5) 0.3489(6) 0.2495(4)
H6 H 0.0550 0.2940 0.2821
C9 C -0.0329(5) 0.4119(7) 0.1558(4)
H7 H 0.0338 0.4015 0.1242
C10 C -0.8561(5) 0.9895(6) 0.3901(4)
H8 H -0.8484 1.0320 0.4533
N2C N -0.7575(4) 0.0074(5) 0.3487(3)
Ag1C Ag -0.42081(4) 0.62939(5) 0.08339(3)
N1C N -0.5993(4) 0.7581(5) 0.0347(3)
C1C C -0.6892(4) 0.7462(6) 0.0865(3)
H1C H -0.6742 0.6799 0.1405
C2C C -0.8019(4) 0.8287(6) 0.0619(3)
O1C O -0.8988(3) 0.8057(5) 0.1116(3)
C7C C -0.8801(4) 0.8688(5) 0.2063(3)
C6C C -0.7697(4) 0.9463(5) 0.2566(3)
N2C_2 N -0.7575(4) 1.0074(5) 0.3487(3)
Ag1_2 Ag -0.57919(4) 1.12939(5) 0.41661(3)
C9C C -0.9671(5) 0.9119(7) 0.3442(4)
C8C C -0.9802(5) 0.8489(6) 0.2505(4)
H6C H -1.0550 0.7940 0.2179
H7C H -1.0338 0.9015 0.3758
C3C C -0.8254(6) 0.9281(7) -0.0166(4)
H2C H -0.9011 0.9866 -0.0337
C4C C -0.7330(6) 0.9383(8) -0.0694(5)
H3C H -0.7459 1.0039 -0.1236
C5C C -0.6222(5) 0.8520(6) -0.0420(4)
H4C H -0.5609 0.8597 -0.0788
C10C C -0.1439(5) 0.4895(6) 0.1099(4)
H8C H -0.1516 0.5320 0.0467
H5C H -0.2986 0.4571 0.2731
Cl1 Cl -0.64843(12) 0.19447(16) 0.66679(9)
O2 O -0.5646(5) 0.3190(6) 0.7040(4)
O3 O -0.5824(8) 0.0953(6) 0.6230(6)
O4 O -0.6989(8) 0.1375(8) 0.7394(5)
O5 O -0.7571(7) 0.2411(8) 0.5870(5)
loop_
_geom_bond_atom_site_label_1
_geom_bond_atom_site_label_2
_geom_bond_site_symmetry_1
_geom_bond_site_symmetry_2
Ag1 N1 1_555 1_555
O1 C2 1_555 1_555
N1 C1 1_555 1_555
N2 C6 1_555 1_555
Cl1 O2 1_555 1_555
O3 Cl1 1_555 1_555
O4 Cl1 1_555 1_555
O5 Cl1 1_555 1_555
C1 H1 1_555 1_555
C2 C1 1_555 1_555
C3 C2 1_555 1_555
H2 C3 1_555 1_555
C4 C3 1_555 1_555
H3 C4 1_555 1_555
C5 N1 1_555 1_555
H4 C5 1_555 1_555
C6 C7 1_555 1_555
H5 C6C 1_555 1_555
C7 O1 1_555 1_555
C8 C7 1_555 1_555
H6 C8 1_555 1_555
C9 C8 1_555 1_555
H7 C9 1_555 1_555
C10 H8 1_555 1_555
N2C Ag1 1_555 1_555
Ag1C N2 1_555 1_555
N1C Ag1C 1_555 1_555
C1C N1C 1_555 1_555
H1C C1C 1_555 1_555
C2C C1C 1_555 1_555
O1C C2C 1_555 1_555
C7C O1C 1_555 1_555
C6C C7C 1_555 1_555
N2C_2 C10 1_555 1_555
Ag1_2 N2C_2 1_555 1_555
C9C C10 1_555 1_555
C8C C7C 1_555 1_555
H6C C8C 1_555 1_555
H7C C9C 1_555 1_555
C3C C2C 1_555 1_555
H2C C3C 1_555 1_555
C4C C3C 1_555 1_555
H3C C4C 1_555 1_555
C5C N1C 1_555 1_555
H4C C5C 1_555 1_555
C10C N2 1_555 1_555
H8C C10C 1_555 1_555
H5C C6 1_555 1_555
C4 C5 1_555 1_555
C9 C10C 1_555 1_555
C6C N2C_2 1_555 1_555
C9C C8C 1_555 1_555
C4C C5C 1_555 1_555

#END
