
#######################################################################
#
#                 Cambridge Crystallographic Data Centre
#                                CCDC 
#
#######################################################################
#
# If this CIF has been generated from an entry in the Cambridge 
# Structural Database, then it will include bibliographic, chemical, 
# crystal, experimental, refinement or atomic coordinate data resulting 
# from the CCDC's data processing and validation procedures.
#
#######################################################################

data_XEFCUH01
_symmetry_cell_setting           monoclinic
_symmetry_space_group_name_H-M   'C 2/c'
_symmetry_Int_Tables_number      15
_space_group_name_Hall           '-C 2yn'
loop_
_symmetry_equiv_pos_site_id
_symmetry_equiv_pos_as_xyz
1 x,y,z
2 -x,y,1/2-z
3 1/2+x,1/2+y,z
4 1/2-x,1/2+y,1/2-z
5 -x,-y,-z
6 x,-y,1/2+z
7 1/2-x,1/2-y,-z
8 1/2+x,1/2-y,1/2+z
_cell_length_a                   23.945(4)
_cell_length_b                   7.4886(11)
_cell_length_c                   24.771(4)
_cell_angle_alpha                90
_cell_angle_beta                 111.612(3)
_cell_angle_gamma                90
_cell_volume                     4129.54
loop_
_atom_site_label
_atom_site_type_symbol
_atom_site_fract_x
_atom_site_fract_y
_atom_site_fract_z
Ag1 Ag 0.27906 0.0697 0.00641
N1 N 0.3304 0.220 0.0906
N2 N 0.2120 0.389 0.0894
N3 N 0.1114 0.472 -0.0239
N4 N 0.2810 0.900 0.2162
N5 N 0.1978 0.902 -0.0135
C1 C 0.3876 0.235 0.1012
C2 C 0.4300 0.284 0.1525
H1 H 0.4697 0.296 0.1562
C3 C 0.4123 0.312 0.1993
H2 H 0.4400 0.340 0.2358
C4 C 0.3539 0.296 0.1896
H3 H 0.3410 0.317 0.2201
C5 C 0.3120 0.2500 0.1364
C6 C 0.2468 0.238 0.1235
H4 H 0.2318 0.128 0.1022
H5 H 0.2401 0.230 0.1598
C7 C 0.1475 0.362 0.0782
H6 H 0.1416 0.378 0.1144
H7 H 0.1372 0.240 0.0661
C8 C 0.1046 0.483 0.0340
H8 H 0.1117 0.605 0.0478
H9 H 0.0639 0.452 0.0294
C9 C 0.4066 0.204 0.0492
H10 H 0.4499 0.215 0.0616
H11 H 0.3885 0.294 0.0200
C10 C 0.2342 0.562 0.1156
H12 H 0.2762 0.572 0.1204
H13 H 0.2128 0.654 0.0882
C11 C 0.2295 0.605 0.1744
H14 H 0.2484 0.510 0.2015
H15 H 0.1876 0.610 0.1698
C12 C 0.2576 0.772 0.1979
C13 C 0.0731 0.606 -0.0636
H16 H 0.0320 0.583 -0.0676
H17 H 0.0755 0.589 -0.1014
C14 C 0.0864 0.800 -0.0467
H18 H 0.0640 0.872 -0.0796
H19 H 0.0724 0.827 -0.0160
C15 C 0.1507 0.851 -0.0278
Ag1F Ag 0.22094 0.4303 -0.00641
Ag1_2 Ag 0.27906 1.0697 0.00641
Ag1F_2 Ag 0.22094 -0.5697 -0.00641
N1F N 0.1696 0.280 -0.0906
N2F N 0.2880 0.111 -0.0894
N3F N 0.3886 0.028 0.0239
N4F N 0.2190 -0.400 -0.2162
N5F N 0.3022 -0.402 0.0135
N5_2 N 0.1978 -0.098 -0.0135
N5F_2 N 0.3022 0.598 0.0135
C1F C 0.1124 0.265 -0.1012
C2F C 0.0700 0.216 -0.1525
H1F H 0.0303 0.204 -0.1562
C3F C 0.0877 0.188 -0.1993
H2F H 0.0600 0.160 -0.2358
C4F C 0.1461 0.204 -0.1896
H3F H 0.1590 0.183 -0.2201
C5F C 0.1880 0.2500 -0.1364
C6F C 0.2532 0.262 -0.1235
H4F H 0.2682 0.372 -0.1022
H5F H 0.2599 0.270 -0.1598
C7F C 0.3525 0.138 -0.0782
H6F H 0.3584 0.122 -0.1144
H7F H 0.3628 0.260 -0.0661
C8F C 0.3954 0.017 -0.0340
H8F H 0.3883 -0.105 -0.0478
H9F H 0.4361 0.048 -0.0294
C9F C 0.0934 0.296 -0.0492
H10F H 0.0501 0.285 -0.0616
H11F H 0.1115 0.206 -0.0200
C10F C 0.2658 -0.062 -0.1156
H12F H 0.2238 -0.072 -0.1204
H13F H 0.2872 -0.154 -0.0882
C11F C 0.2705 -0.105 -0.1744
H14F H 0.2516 -0.010 -0.2015
H15F H 0.3124 -0.110 -0.1698
C12F C 0.2424 -0.272 -0.1979
C13F C 0.4269 -0.106 0.0636
H16F H 0.4680 -0.083 0.0676
H17F H 0.4245 -0.089 0.1014
C14F C 0.4136 -0.300 0.0467
H18F H 0.4360 -0.372 0.0796
H19F H 0.4276 -0.327 0.0160
C15F C 0.3493 -0.351 0.0278
C16 C 0.4300 0.878 0.2843
C17 C 0.4179 0.809 0.2247
N6 N 0.4086 0.753 0.1814
Cl1 Cl 0.0876 0.919 0.1248
O1 O 0.1202 0.992 0.1768
O2 O 0.0416 1.021 0.0967
O3 O 0.1274 0.912 0.0947
O4 O 0.0716 0.749 0.1336
loop_
_geom_bond_atom_site_label_1
_geom_bond_atom_site_label_2
_geom_bond_site_symmetry_1
_geom_bond_site_symmetry_2
Ag1 N1 1_555 1_555
N1 C1 1_555 1_555
N2 C6 1_555 1_555
N3 C8 1_555 1_555
N4 C12 1_555 1_555
N5 C15 1_555 1_555
C1 C2 1_555 1_555
C2 H1 1_555 1_555
C3 C2 1_555 1_555
H2 C3 1_555 1_555
C4 C3 1_555 1_555
H3 C4 1_555 1_555
C5 N1 1_555 1_555
C6 C5 1_555 1_555
H4 C6 1_555 1_555
H5 C6 1_555 1_555
C7 N2 1_555 1_555
H6 C7 1_555 1_555
H7 C7 1_555 1_555
C8 C7 1_555 1_555
H8 C8 1_555 1_555
H9 C8 1_555 1_555
C9 C1 1_555 1_555
H10 C9 1_555 1_555
H11 C9 1_555 1_555
C10 N2 1_555 1_555
H12 C10 1_555 1_555
H13 C10 1_555 1_555
C11 C10 1_555 1_555
H14 C11 1_555 1_555
H15 C11 1_555 1_555
C12 C11 1_555 1_555
C13 N3 1_555 1_555
H16 C13 1_555 1_555
H17 C13 1_555 1_555
C14 C13 1_555 1_555
H18 C14 1_555 1_555
H19 C14 1_555 1_555
C15 C14 1_555 1_555
C16 C17 1_555 1_555
C17 N6 1_555 1_555
Cl1 O1 1_555 1_555
O2 Cl1 1_555 1_555
O3 Cl1 1_555 1_555
O4 Cl1 1_555 1_555
Ag1F N2 1_555 1_555
Ag1_2 N5 1_555 1_555
Ag1F_2 N5F 1_555 1_555
N1F Ag1F 1_555 1_555
N2F Ag1 1_555 1_555
N3F Ag1 1_555 1_555
N4F C12F 1_555 1_555
N5F C15F 1_555 1_555
N5_2 Ag1 1_555 1_555
N5F_2 Ag1F 1_555 1_555
C1F N1F 1_555 1_555
C2F C1F 1_555 1_555
H1F C2F 1_555 1_555
C3F C2F 1_555 1_555
H2F C3F 1_555 1_555
C4F C3F 1_555 1_555
H3F C4F 1_555 1_555
C5F N1F 1_555 1_555
C6F N2F 1_555 1_555
H4F C6F 1_555 1_555
H5F C6F 1_555 1_555
C7F N2F 1_555 1_555
H6F C7F 1_555 1_555
H7F C7F 1_555 1_555
C8F N3F 1_555 1_555
H8F C8F 1_555 1_555
H9F C8F 1_555 1_555
C9F N3 1_555 1_555
H10F C9F 1_555 1_555
H11F C9F 1_555 1_555
C10F N2F 1_555 1_555
H12F C10F 1_555 1_555
H13F C10F 1_555 1_555
C11F C10F 1_555 1_555
H14F C11F 1_555 1_555
H15F C11F 1_555 1_555
C12F C11F 1_555 1_555
C13F N3F 1_555 1_555
H16F C13F 1_555 1_555
H17F C13F 1_555 1_555
C14F C13F 1_555 1_555
H18F C14F 1_555 1_555
H19F C14F 1_555 1_555
C15F C14F 1_555 1_555
N3 Ag1F 1_555 1_555
C4 C5 1_555 1_555
C9 N3F 1_555 1_555
C1F C9F 1_555 1_555
C4F C5F 1_555 1_555
C5F C6F 1_555 1_555
C7F C8F 1_555 1_555

#END
