
#######################################################################
#
#                 Cambridge Crystallographic Data Centre
#                                CCDC 
#
#######################################################################
#
# If this CIF has been generated from an entry in the Cambridge 
# Structural Database, then it will include bibliographic, chemical, 
# crystal, experimental, refinement or atomic coordinate data resulting 
# from the CCDC's data processing and validation procedures.
#
#######################################################################

data_XEFGAQ
_symmetry_cell_setting           tetragonal
_symmetry_space_group_name_H-M   'I 41/a'
_symmetry_Int_Tables_number      88
_space_group_name_Hall           '-I 4ad'
loop_
_symmetry_equiv_pos_site_id
_symmetry_equiv_pos_as_xyz
1 x,y,z
2 3/4-y,1/4+x,1/4+z
3 1/2+x,1/2+y,1/2+z
4 1/4-y,3/4+x,3/4+z
5 1/4+y,1/4-x,1/4+z
6 1/2+x,y,1/2-z
7 1/4-y,1/4+x,1/4-z
8 x,1/2+y,-z
9 -x,-y,-z
10 1/4+y,3/4-x,3/4-z
11 1/2-x,1/2-y,1/2-z
12 3/4+y,1/4-x,1/4-z
13 3/4-y,3/4+x,3/4-z
14 1/2-x,-y,1/2+z
15 3/4+y,3/4-x,3/4+z
16 -x,1/2-y,z
_cell_length_a                   17.327(3)
_cell_length_b                   17.327(3)
_cell_length_c                   7.7288(16)
_cell_angle_alpha                90
_cell_angle_beta                 90
_cell_angle_gamma                90
_cell_volume                     2320.38
loop_
_atom_site_label
_atom_site_type_symbol
_atom_site_fract_x
_atom_site_fract_y
_atom_site_fract_z
B1 B -0.2194(9) 0.4828(12) 0.3829(16)
F1 F -0.1861(4) 0.4974(4) 0.5467(13)
F2 F -0.1858(4) 0.4584(4) 0.2276(15)
F1C F -0.2474(4) 0.5639(4) 0.2967(13)
F2D F -0.2916(4) 0.4358(4) 0.4776(15)
B1D B -0.2672(12) 0.4694(9) 0.6329(16)
B1C B -0.2328(12) 0.5306(9) 0.1329(16)
F1D F -0.2526(4) 0.4361(4) 0.7967(13)
F2M F -0.3142(4) 0.5416(4) 0.7276(15)
F1M F -0.3139(4) 0.5026(4) 0.0467(13)
F2C F -0.2084(4) 0.5642(4) -0.0224(15)
B1M B -0.2806(9) 0.5172(12) 0.8829(16)
B1M_2 B -0.2806(9) 0.5172(12) -0.1171(16)
F1M_2 F -0.3139(4) 0.5026(4) 1.0467(13)
F2C_2 F -0.2084(4) 0.5642(4) 0.9776(15)
F1D_2 F -0.2526(4) 0.4361(4) -0.2033(13)
F2M_2 F -0.3142(4) 0.5416(4) -0.2724(15)
B1C_2 B -0.2328(12) 0.5306(9) 1.1329(16)
B1D_2 B -0.2672(12) 0.4694(9) -0.3671(16)
F1C_2 F -0.2474(4) 0.5639(4) 1.2967(13)
F2_2 F -0.1858(4) 0.4584(4) 1.2276(15)
F1_2 F -0.1861(4) 0.4974(4) -0.4533(13)
F2D_2 F -0.2916(4) 0.4358(4) -0.5224(15)
B1_2 B -0.2194(9) 0.4828(12) 1.3829(16)
B1_3 B -0.2194(9) 0.4828(12) -0.6171(16)
F1_3 F -0.1861(4) 0.4974(4) 1.5467(13)
F2D_3 F -0.2916(4) 0.4358(4) 1.4776(15)
F1C_3 F -0.2474(4) 0.5639(4) -0.7033(13)
F2_3 F -0.1858(4) 0.4584(4) -0.7724(15)
B1D_3 B -0.2672(12) 0.4694(9) 1.6329(16)
B1C_3 B -0.2328(12) 0.5306(9) -0.8671(16)
F1D_3 F -0.2526(4) 0.4361(4) 1.7967(13)
F2M_3 F -0.3142(4) 0.5416(4) 1.7276(15)
F1M_3 F -0.3139(4) 0.5026(4) -0.9533(13)
F2C_3 F -0.2084(4) 0.5642(4) -1.0224(15)
B1M_3 B -0.2806(9) 0.5172(12) 1.8829(16)
B1M_4 B -0.2806(9) 0.5172(12) -1.1171(16)
F1M_4 F -0.3139(4) 0.5026(4) 2.0467(13)
F2C_4 F -0.2084(4) 0.5642(4) 1.9776(15)
F1D_4 F -0.2526(4) 0.4361(4) -1.2033(13)
F2M_4 F -0.3142(4) 0.5416(4) -1.2724(15)
B1C_4 B -0.2328(12) 0.5306(9) 2.1329(16)
B1D_4 B -0.2672(12) 0.4694(9) -1.3671(16)
Cu1 Cu 0.0000 0.2500 0.1250
N1 N 0.00159(17) 0.34230(17) -0.0376(4)
C1 C -0.0054(2) 0.4529(2) -0.2971(5)
N2 N -0.01177(18) 0.51111(17) -0.4274(4)
C2 C -0.0575(2) 0.4540(2) -0.1628(5)
H1 H -0.0959 0.4930 -0.1562
C3 C -0.0529(2) 0.3973(2) -0.0381(5)
H2 H -0.0902 0.3971 0.0520
C4 C 0.0535(2) 0.3441(2) -0.1651(5)
H3 H 0.0932 0.3064 -0.1648
C5 C 0.0528(2) 0.3976(2) -0.2969(5)
H4 H 0.0910 0.3967 -0.3851
N1F N -0.09230(17) 0.25159(17) 0.2876(4)
N1K N 0.09230(17) 0.24841(17) 0.2876(4)
N1O N -0.00159(17) 0.15770(17) -0.0376(4)
N2H N 0.01177(18) 0.48889(17) -0.5726(4)
C3F C -0.1473(2) 0.1971(2) 0.2881(5)
C4F C -0.0941(2) 0.3035(2) 0.4151(5)
C1H C 0.0054(2) 0.5471(2) -0.7029(5)
C2F C -0.2040(2) 0.1925(2) 0.4128(5)
H2F H -0.1471 0.1598 0.1980
H3F H -0.0564 0.3432 0.4148
C5F C -0.1476(2) 0.3028(2) 0.5469(5)
C2H C 0.0575(2) 0.5460(2) -0.8372(5)
C5H C -0.0528(2) 0.6024(2) -0.7031(5)
C1F C -0.2029(2) 0.2446(2) 0.5471(5)
H1F H -0.2430 0.1541 0.4062
H4F H -0.1467 0.3410 0.6351
H1H H 0.0959 0.5070 -0.8438
C3H C 0.0529(2) 0.6027(2) -0.9619(5)
C4H C -0.0535(2) 0.6559(2) -0.8349(5)
H4H H -0.0910 0.6033 -0.6149
N2F N -0.26111(17) 0.23823(18) 0.6774(4)
N1H N -0.00159(17) 0.65770(17) -0.9624(4)
H2H H 0.0902 0.6029 -1.0520
H3H H -0.0932 0.6936 -0.8352
N2D N -0.23889(17) 0.26177(18) 0.8226(4)
Cu1C Cu 0.0000 0.7500 -1.1250
C1D C -0.2971(2) 0.2554(2) 0.9529(5)
C2D C -0.2960(2) 0.3075(2) 1.0872(5)
C5D C -0.3524(2) 0.1972(2) 0.9531(5)
H1D H -0.2570 0.3459 1.0938
C3D C -0.3527(2) 0.3029(2) 1.2119(5)
C4D C -0.4059(2) 0.1965(2) 1.0849(5)
H4D H -0.3533 0.1590 0.8649
N1D N -0.40770(17) 0.24841(17) 1.2124(4)
H2D H -0.3529 0.3402 1.3020
H3D H -0.4436 0.1568 1.0852
Cu1A Cu -0.5000 0.2500 1.3750
loop_
_geom_bond_atom_site_label_1
_geom_bond_atom_site_label_2
_geom_bond_site_symmetry_1
_geom_bond_site_symmetry_2
Cu1 N1 1_555 1_555
N1 C3 1_555 1_555
C1 N2 1_555 1_555
N2 N2H 1_555 1_555
C2 C1 1_555 1_555
H1 C2 1_555 1_555
C3 C2 1_555 1_555
H2 C3 1_555 1_555
C4 N1 1_555 1_555
H3 C4 1_555 1_555
C5 C1 1_555 1_555
H4 C5 1_555 1_555
B1 F1 1_555 1_555
F1 B1D 1_555 1_555
F2 B1 1_555 1_555
N1F Cu1 1_555 1_555
N1K Cu1 1_555 1_555
N1O Cu1 1_555 1_555
N2H C1H 1_555 1_555
F1C B1 1_555 1_555
F2D B1 1_555 1_555
B1D F2D 1_555 1_555
B1C F2 1_555 1_555
C3F N1F 1_555 1_555
C4F N1F 1_555 1_555
C1H C2H 1_555 1_555
F1D B1D 1_555 1_555
F2M B1D 1_555 1_555
F1M B1C 1_555 1_555
F2C B1C 1_555 1_555
C2F C3F 1_555 1_555
H2F C3F 1_555 1_555
H3F C4F 1_555 1_555
C5F C4F 1_555 1_555
C2H H1H 1_555 1_555
C5H C1H 1_555 1_555
B1M F1D 1_555 1_555
B1M_2 F1M 1_555 1_555
C1F C2F 1_555 1_555
H1F C2F 1_555 1_555
H4F C5F 1_555 1_555
C3H C2H 1_555 1_555
C4H C5H 1_555 1_555
H4H C5H 1_555 1_555
F1M_2 B1M 1_555 1_555
F2C_2 B1M 1_555 1_555
F1D_2 B1M_2 1_555 1_555
F2M_2 B1M_2 1_555 1_555
N2F C1F 1_555 1_555
N1H C3H 1_555 1_555
H2H C3H 1_555 1_555
H3H C4H 1_555 1_555
B1C_2 F1M_2 1_555 1_555
B1D_2 F1D_2 1_555 1_555
N2D N2F 1_555 1_555
Cu1C N1H 1_555 1_555
F1C_2 B1C_2 1_555 1_555
F2_2 B1C_2 1_555 1_555
F1_2 B1D_2 1_555 1_555
F2D_2 B1D_2 1_555 1_555
C1D N2D 1_555 1_555
B1_2 F1C_2 1_555 1_555
B1_3 F1_2 1_555 1_555
C2D C1D 1_555 1_555
C5D C1D 1_555 1_555
F1_3 B1_2 1_555 1_555
F2D_3 B1_2 1_555 1_555
F1C_3 B1_3 1_555 1_555
F2_3 B1_3 1_555 1_555
H1D C2D 1_555 1_555
C3D C2D 1_555 1_555
C4D C5D 1_555 1_555
H4D C5D 1_555 1_555
B1D_3 F1_3 1_555 1_555
B1C_3 F1C_3 1_555 1_555
N1D C3D 1_555 1_555
H2D C3D 1_555 1_555
H3D C4D 1_555 1_555
F1D_3 B1D_3 1_555 1_555
F2M_3 B1D_3 1_555 1_555
F1M_3 B1C_3 1_555 1_555
F2C_3 B1C_3 1_555 1_555
Cu1A N1D 1_555 1_555
B1M_3 F1D_3 1_555 1_555
B1M_4 F1M_3 1_555 1_555
F1M_4 B1M_3 1_555 1_555
F2C_4 B1M_3 1_555 1_555
F1D_4 B1M_4 1_555 1_555
F2M_4 B1M_4 1_555 1_555
B1C_4 F1M_4 1_555 1_555
B1D_4 F1D_4 1_555 1_555
C4 C5 1_555 1_555
F1C B1C 1_555 1_555
F2M B1M 1_555 1_555
F2C B1M_2 1_555 1_555
C5F C1F 1_555 1_555
C4H N1H 1_555 1_555
F2C_2 B1C_2 1_555 1_555
F2M_2 B1D_2 1_555 1_555
F2_2 B1_2 1_555 1_555
F2D_2 B1_3 1_555 1_555
F2D_3 B1D_3 1_555 1_555
F2_3 B1C_3 1_555 1_555
C4D N1D 1_555 1_555
F2M_3 B1M_3 1_555 1_555
F2C_3 B1M_4 1_555 1_555
F2C_4 B1C_4 1_555 1_555
F2M_4 B1D_4 1_555 1_555

#END
