
#######################################################################
#
#                 Cambridge Crystallographic Data Centre
#                                CCDC 
#
#######################################################################
#
# If this CIF has been generated from an entry in the Cambridge 
# Structural Database, then it will include bibliographic, chemical, 
# crystal, experimental, refinement or atomic coordinate data resulting 
# from the CCDC's data processing and validation procedures.
#
#######################################################################

data_XEFKIC
_symmetry_cell_setting           triclinic
_symmetry_space_group_name_H-M   'P -1'
_symmetry_Int_Tables_number      2
_space_group_name_Hall           '-P 1'
loop_
_symmetry_equiv_pos_site_id
_symmetry_equiv_pos_as_xyz
1 x,y,z
2 -x,-y,-z
_cell_length_a                   7.961(2)
_cell_length_b                   9.176(3)
_cell_length_c                   11.601(3)
_cell_angle_alpha                105.18(2)
_cell_angle_beta                 96.53(2)
_cell_angle_gamma                100.41(3)
_cell_volume                     792.762
loop_
_atom_site_label
_atom_site_type_symbol
_atom_site_fract_x
_atom_site_fract_y
_atom_site_fract_z
Ag1 Ag 0.30993(6) -0.50618(6) 0.54406(4)
N1 N 0.1361(6) -0.4871(5) 0.3950(3)
C1 C 0.1334(9) -0.3551(8) 0.3728(5)
H1 H 0.2052(9) -0.2663(8) 0.4266(5)
C2 C 0.0308(9) -0.3389(7) 0.2746(5)
H2 H 0.0303(9) -0.2414(7) 0.2651(5)
C3 C -0.0669(7) -0.4648(7) 0.1943(5)
C4 C -0.0692(8) -0.6083(7) 0.2134(5)
H3 H -0.1381(8) -0.6988(7) 0.1597(5)
C5 C 0.0352(9) -0.6100(7) 0.3156(5)
H4 H 0.0344(9) -0.7054(7) 0.3296(5)
N2 N -0.1697(6) -0.4425(5) 0.0920(4)
N3 N -0.2484(7) -0.5635(6) 0.0158(4)
C6 C -0.5385(8) -0.6579(7) -0.2739(5)
H5 H -0.6048(8) -0.7468(7) -0.3310(5)
C7 C -0.4418(9) -0.6705(7) -0.1721(5)
H6 H -0.4418(9) -0.7677(7) -0.1619(5)
C8 C -0.3465(7) -0.5419(6) -0.0865(4)
C9 C -0.3507(9) -0.4004(7) -0.1063(5)
H7 H -0.2863(9) -0.3097(7) -0.0501(5)
C10 C -0.4494(8) -0.3939(7) -0.2082(5)
H8 H -0.4545(8) -0.2981(7) -0.2197(5)
N4 N -0.5384(6) -0.5223(6) -0.2915(4)
N4_2 N 0.4616(6) -0.5223(6) 0.7085(4)
Ag1_2 Ag -0.69007(6) -0.50618(6) -0.45594(4)
N5 N -0.3207(5) -0.1322(4) 0.5908(7)
O1 O -0.1901(5) -0.1576(7) 0.5475(7)
O2 O -0.3255(8) 0.0028(4) 0.6445(9)
O3 O -0.4577(5) -0.2318(6) 0.5579(8)
O4 O 0.2523(40) -0.0492(27) 0.6624(22)
H9 H 0.3066(40) -0.0690(27) 0.7302(22)
H10 H 0.2760(40) 0.0090(27) 0.6091(22)
O5 O 0.9889(21) 0.0110(12) 0.9251(13)
H11 H 0.8919(21) 0.0205(12) 0.8924(13)
C11 C 1.1253(28) 0.0103(18) 0.8928(19)
H12 H 1.1140(28) 0.0246(18) 0.8134(19)
H13 H 1.2128(28) 0.0934(18) 0.9473(19)
H14 H 1.1578(28) -0.0864(18) 0.8891(19)
N6? N 0.4917(5) 0.8772(4) 0.6204(9)
O6? O 0.5849(5) 0.7826(5) 0.5963(10)
O7? O 0.3490(5) 0.8367(7) 0.6489(9)
O8? O 0.5592(10) 1.0176(4) 0.6480(14)
O9? O 0.0016(39) 0.9434(27) 0.5873(21)
H15? H 0.1032(39) 1.0108(27) 0.6325(21)
H16? H -0.0264(39) 0.9019(27) 0.5036(21)
O10? O 1.4297(24) 1.0017(14) 0.9521(12)
H17? H 1.5438(24) 1.0062(14) 0.9372(12)
C12? C 1.2860(30) 0.9985(20) 0.9763(22)
H18? H 1.3811(30) 0.9910(20) 1.0316(22)
H19? H 1.2661(30) 0.9144(20) 0.9033(22)
H20? H 1.3129(30) 1.0950(20) 0.9574(22)
O11? O 1.1655(27) 0.9921(15) 1.0642(17)
H21? H 1.1681(27) 0.9826(15) 1.1353(17)
H22? H 1.0000 1.0000 1.0000
loop_
_geom_bond_atom_site_label_1
_geom_bond_atom_site_label_2
_geom_bond_site_symmetry_1
_geom_bond_site_symmetry_2
Ag1 N1 1_555 1_555
N1 C1 1_555 1_555
C1 H1 1_555 1_555
C2 C1 1_555 1_555
H2 C2 1_555 1_555
C3 C2 1_555 1_555
C4 C3 1_555 1_555
H3 C4 1_555 1_555
C5 N1 1_555 1_555
H4 C5 1_555 1_555
N2 C3 1_555 1_555
N3 N2 1_555 1_555
C6 H5 1_555 1_555
C7 C6 1_555 1_555
H6 C7 1_555 1_555
C8 N3 1_555 1_555
C9 C8 1_555 1_555
H7 C9 1_555 1_555
C10 C9 1_555 1_555
H8 C10 1_555 1_555
N4 C6 1_555 1_555
N5 O1 1_555 1_555
O2 N5 1_555 1_555
O3 N5 1_555 1_555
O4 H9 1_555 1_555
H10 O4 1_555 1_555
O5 H11 1_555 1_555
C11 O5 1_555 1_555
H12 C11 1_555 1_555
H13 C11 1_555 1_555
H14 C11 1_555 1_555
N4_2 Ag1 1_555 1_555
Ag1_2 N4 1_555 1_555
C4 C5 1_555 1_555
C7 C8 1_555 1_555
C10 N4 1_555 1_555

#END
