
#######################################################################
#
#                 Cambridge Crystallographic Data Centre
#                                CCDC 
#
#######################################################################
#
# If this CIF has been generated from an entry in the Cambridge 
# Structural Database, then it will include bibliographic, chemical, 
# crystal, experimental, refinement or atomic coordinate data resulting 
# from the CCDC's data processing and validation procedures.
#
#######################################################################

data_XEFKOI
_symmetry_cell_setting           tetragonal
_symmetry_space_group_name_H-M   'I -4'
_symmetry_Int_Tables_number      82
_space_group_name_Hall           'I -4'
loop_
_symmetry_equiv_pos_site_id
_symmetry_equiv_pos_as_xyz
1 x,y,z
2 -x,-y,z
3 y,-x,-z
4 -y,x,-z
5 1/2+x,1/2+y,1/2+z
6 1/2-x,1/2-y,1/2+z
7 1/2+y,1/2-x,1/2-z
8 1/2-y,1/2+x,1/2-z
_cell_length_a                   17.765(9)
_cell_length_b                   17.765(9)
_cell_length_c                   7.567(6)
_cell_angle_alpha                90
_cell_angle_beta                 90
_cell_angle_gamma                90
_cell_volume                     2388.11
loop_
_atom_site_label
_atom_site_type_symbol
_atom_site_fract_x
_atom_site_fract_y
_atom_site_fract_z
Cu1 Cu 0.5000 0.0000 0.7500
N1 N 0.5003(4) 0.0922(4) 0.5862(9)
C1 C 0.5514(4) 0.1468(4) 0.5879(12)
H1 H 0.5869(4) 0.1470(4) 0.6782(12)
C2 C 0.5547(5) 0.2037(5) 0.4617(11)
H2 H 0.5898(5) 0.2424(5) 0.4703(11)
C3 C 0.5043(5) 0.2009(6) 0.3239(12)
C4 C 0.4502(5) 0.1455(4) 0.3241(11)
H3 H 0.4158(5) 0.1424(4) 0.2318(11)
C5 C 0.4472(5) 0.0947(5) 0.4615(10)
H4 H 0.4070(5) 0.0613(5) 0.4677(10)
N2 N 0.5126(6) 0.2608(5) 0.1963(13)
N3 N 0.4901(5) 0.2400(5) 0.0479(13)
C6 C 0.5496(6) 0.4080(6) -0.2023(14)
H5 H 0.5824(6) 0.4483(6) -0.1869(14)
C7 C 0.5535(6) 0.3493(6) -0.0860(19)
H6 H 0.5938(6) 0.3446(6) -0.0083(19)
C8 C 0.4963(5) 0.2979(5) -0.0872(14)
C9 C 0.4431(6) 0.3010(5) -0.2179(13)
H7 H 0.4046(6) 0.2656(5) -0.2233(13)
C10 C 0.4482(6) 0.3574(6) -0.3404(15)
H8 H 0.4129(6) 0.3591(6) -0.4311(15)
N4 N 0.5018(5) 0.4103(6) -0.3350(12)
Cu2 Cu 0.5000 0.5000 -0.5000
N1A N 0.4997(4) -0.0922(4) 0.5862(9)
C1A C 0.4486(4) -0.1468(4) 0.5879(12)
H1A H 0.4131(4) -0.1470(4) 0.6782(12)
C2A C 0.4453(5) -0.2037(5) 0.4617(11)
H2A H 0.4102(5) -0.2424(5) 0.4703(11)
C3A C 0.4957(5) -0.2009(6) 0.3239(12)
C4A C 0.5498(5) -0.1455(4) 0.3241(11)
H3A H 0.5842(5) -0.1424(4) 0.2318(11)
C5A C 0.5528(5) -0.0947(5) 0.4615(10)
H4A H 0.5930(5) -0.0613(5) 0.4677(10)
N2A N 0.4874(6) -0.2608(5) 0.1963(13)
N3A N 0.5099(5) -0.2400(5) 0.0479(13)
C6A C 0.4504(6) -0.4080(6) -0.2023(14)
H5A H 0.4176(6) -0.4483(6) -0.1869(14)
C7A C 0.4465(6) -0.3493(6) -0.0860(19)
H6A H 0.4062(6) -0.3446(6) -0.0083(19)
C8A C 0.5037(5) -0.2979(5) -0.0872(14)
C9A C 0.5569(6) -0.3010(5) -0.2179(13)
H7A H 0.5954(6) -0.2656(5) -0.2233(13)
C10A C 0.5518(6) -0.3574(6) -0.3404(15)
H8A H 0.5871(6) -0.3591(6) -0.4311(15)
N4A N 0.4982(5) -0.4103(6) -0.3350(12)
N1F N 0.5922(4) -0.0003(4) 0.9138(9)
C1F C 0.6468(4) -0.0514(4) 0.9121(12)
H1F H 0.6470(4) -0.0869(4) 0.8218(12)
C2F C 0.7037(5) -0.0547(5) 1.0383(11)
H2F H 0.7424(5) -0.0898(5) 1.0297(11)
C3F C 0.7009(6) -0.0043(5) 1.1761(12)
C4F C 0.6455(4) 0.0498(5) 1.1759(11)
H3F H 0.6424(4) 0.0842(5) 1.2682(11)
C5F C 0.5947(5) 0.0528(5) 1.0385(10)
H4F H 0.5613(5) 0.0930(5) 1.0323(10)
N2F N 0.7608(5) -0.0126(6) 1.3037(13)
N3F N 0.7400(5) 0.0099(5) 1.4521(13)
C6F C 0.9080(6) -0.0496(6) 1.7023(14)
H5F H 0.9483(6) -0.0824(6) 1.6869(14)
C7F C 0.8493(6) -0.0535(6) 1.5860(19)
H6F H 0.8446(6) -0.0938(6) 1.5083(19)
C8F C 0.7979(5) 0.0037(5) 1.5872(14)
C9F C 0.8010(5) 0.0569(6) 1.7179(13)
H7F H 0.7656(5) 0.0954(6) 1.7233(13)
C10F C 0.8574(6) 0.0518(6) 1.8404(15)
H8F H 0.8591(6) 0.0871(6) 1.9311(15)
N4F N 0.9103(6) -0.0018(5) 1.8350(12)
N1G N 0.4078(4) 0.0003(4) 0.9138(9)
C1G C 0.3532(4) 0.0514(4) 0.9121(12)
H1G H 0.3530(4) 0.0869(4) 0.8218(12)
C2G C 0.2963(5) 0.0547(5) 1.0383(11)
H2G H 0.2576(5) 0.0898(5) 1.0297(11)
C3G C 0.2991(6) 0.0043(5) 1.1761(12)
C4G C 0.3545(4) -0.0498(5) 1.1759(11)
H3G H 0.3576(4) -0.0842(5) 1.2682(11)
C5G C 0.4053(5) -0.0528(5) 1.0385(10)
H4G H 0.4387(5) -0.0930(5) 1.0323(10)
N2G N 0.2392(5) 0.0126(6) 1.3037(13)
N3G N 0.2600(5) -0.0099(5) 1.4521(13)
C6G C 0.0920(6) 0.0496(6) 1.7023(14)
H5G H 0.0517(6) 0.0824(6) 1.6869(14)
C7G C 0.1507(6) 0.0535(6) 1.5860(19)
H6G H 0.1554(6) 0.0938(6) 1.5083(19)
C8G C 0.2021(5) -0.0037(5) 1.5872(14)
C9G C 0.1990(5) -0.0569(6) 1.7179(13)
H7G H 0.2344(5) -0.0954(6) 1.7233(13)
C10G C 0.1426(6) -0.0518(6) 1.8404(15)
H8G H 0.1409(6) -0.0871(6) 1.9311(15)
N4G N 0.0897(6) 0.0018(5) 1.8350(12)
N4A_2 N 0.4982(5) 0.5897(6) -0.3350(12)
N4B N 0.4103(6) 0.4982(5) -0.6650(12)
N4C N 0.5897(6) 0.5018(5) -0.6650(12)
Cu2_2 Cu 0.5000 -0.5000 -0.5000
Cu2D Cu 1.0000 0.0000 2.0000
Cu2D_2 Cu 0.0000 0.0000 2.0000
Cl1 Cl 0.2716(4) 0.2705(4) 0.2230(11)
O1 O 0.2120(6) 0.3206(7) 0.1766(26)
O2 O 0.3136(9) 0.3008(11) 0.3664(19)
O3 O 0.3201(8) 0.2618(10) 0.0731(17)
O4 O 0.2421(10) 0.1986(6) 0.2686(28)
loop_
_geom_bond_atom_site_label_1
_geom_bond_atom_site_label_2
_geom_bond_site_symmetry_1
_geom_bond_site_symmetry_2
Cu1 N1 1_555 1_555
N1 C1 1_555 1_555
C1 H1 1_555 1_555
C2 C1 1_555 1_555
H2 C2 1_555 1_555
C3 C2 1_555 1_555
C4 C3 1_555 1_555
H3 C4 1_555 1_555
C5 N1 1_555 1_555
H4 C5 1_555 1_555
N2 C3 1_555 1_555
N3 N2 1_555 1_555
C6 H5 1_555 1_555
C7 C6 1_555 1_555
H6 C7 1_555 1_555
C8 N3 1_555 1_555
C9 C8 1_555 1_555
H7 C9 1_555 1_555
C10 C9 1_555 1_555
H8 C10 1_555 1_555
N4 C6 1_555 1_555
Cu2 N4 1_555 1_555
Cl1 O1 1_555 1_555
O2 Cl1 1_555 1_555
O3 Cl1 1_555 1_555
O4 Cl1 1_555 1_555
N1A Cu1 1_555 1_555
C1A N1A 1_555 1_555
H1A C1A 1_555 1_555
C2A C1A 1_555 1_555
H2A C2A 1_555 1_555
C3A C2A 1_555 1_555
C4A C3A 1_555 1_555
H3A C4A 1_555 1_555
C5A N1A 1_555 1_555
H4A C5A 1_555 1_555
N2A C3A 1_555 1_555
N3A N2A 1_555 1_555
C6A H5A 1_555 1_555
C7A C6A 1_555 1_555
H6A C7A 1_555 1_555
C8A N3A 1_555 1_555
C9A C8A 1_555 1_555
H7A C9A 1_555 1_555
C10A C9A 1_555 1_555
H8A C10A 1_555 1_555
N4A C6A 1_555 1_555
N1F Cu1 1_555 1_555
C1F N1F 1_555 1_555
H1F C1F 1_555 1_555
C2F C1F 1_555 1_555
H2F C2F 1_555 1_555
C3F C2F 1_555 1_555
C4F C3F 1_555 1_555
H3F C4F 1_555 1_555
C5F N1F 1_555 1_555
H4F C5F 1_555 1_555
N2F C3F 1_555 1_555
N3F N2F 1_555 1_555
C6F H5F 1_555 1_555
C7F C6F 1_555 1_555
H6F C7F 1_555 1_555
C8F N3F 1_555 1_555
C9F C8F 1_555 1_555
H7F C9F 1_555 1_555
C10F C9F 1_555 1_555
H8F C10F 1_555 1_555
N4F C6F 1_555 1_555
N1G Cu1 1_555 1_555
C1G N1G 1_555 1_555
H1G C1G 1_555 1_555
C2G C1G 1_555 1_555
H2G C2G 1_555 1_555
C3G C2G 1_555 1_555
C4G C3G 1_555 1_555
H3G C4G 1_555 1_555
C5G N1G 1_555 1_555
H4G C5G 1_555 1_555
N2G C3G 1_555 1_555
N3G N2G 1_555 1_555
C6G H5G 1_555 1_555
C7G C6G 1_555 1_555
H6G C7G 1_555 1_555
C8G N3G 1_555 1_555
C9G C8G 1_555 1_555
H7G C9G 1_555 1_555
C10G C9G 1_555 1_555
H8G C10G 1_555 1_555
N4G C6G 1_555 1_555
N4A_2 Cu2 1_555 1_555
N4B Cu2 1_555 1_555
N4C Cu2 1_555 1_555
Cu2_2 N4A 1_555 1_555
Cu2D N4F 1_555 1_555
Cu2D_2 N4G 1_555 1_555
C4 C5 1_555 1_555
C7 C8 1_555 1_555
C10 N4 1_555 1_555
C4A C5A 1_555 1_555
C7A C8A 1_555 1_555
C10A N4A 1_555 1_555
C4F C5F 1_555 1_555
C7F C8F 1_555 1_555
C10F N4F 1_555 1_555
C4G C5G 1_555 1_555
C7G C8G 1_555 1_555
C10G N4G 1_555 1_555

#END
