
#######################################################################
#
#                 Cambridge Crystallographic Data Centre
#                                CCDC 
#
#######################################################################
#
# If this CIF has been generated from an entry in the Cambridge 
# Structural Database, then it will include bibliographic, chemical, 
# crystal, experimental, refinement or atomic coordinate data resulting 
# from the CCDC's data processing and validation procedures.
#
#######################################################################

data_XEFPII
_symmetry_cell_setting           triclinic
_symmetry_space_group_name_H-M   'P -1'
_symmetry_Int_Tables_number      2
_space_group_name_Hall           '-P 1'
loop_
_symmetry_equiv_pos_site_id
_symmetry_equiv_pos_as_xyz
1 x,y,z
2 -x,-y,-z
_cell_length_a                   7.6176(19)
_cell_length_b                   10.630(3)
_cell_length_c                   12.750(3)
_cell_angle_alpha                88.969(3)
_cell_angle_beta                 82.149(3)
_cell_angle_gamma                75.600(3)
_cell_volume                     990.486
loop_
_atom_site_label
_atom_site_type_symbol
_atom_site_fract_x
_atom_site_fract_y
_atom_site_fract_z
Zn1 Zn 0.28406(4) 0.20598(3) 0.09351(2)
N1 N 0.3950(3) 0.3010(2) -0.03908(19)
N2 N 0.1680(3) 0.4016(2) 0.12961(18)
O1 O 0.2293(4) 0.0910(3) -0.02087(19)
O2 O 0.1080(3) 0.1437(2) 0.20288(15)
O3 O -0.1085(3) 0.1414(3) 0.10292(18)
O4 O 0.2022(3) -0.1877(2) 0.46534(19)
O5 O -0.0065(3) -0.2944(2) 0.52302(19)
O6 O -0.4960(3) 0.24699(19) 0.24474(17)
O7 O -0.4957(3) 0.08518(18) 0.13994(15)
C1 C 0.5043(5) 0.2425(3) -0.1240(3)
H1 H 0.5510 0.1530 -0.1232
C2 C 0.5510(5) 0.3086(4) -0.2127(3)
H2 H 0.6250 0.2646 -0.2715
C3 C 0.4865(5) 0.4401(4) -0.2127(3)
H3 H 0.5190 0.4873 -0.2711
C4 C 0.3730(4) 0.5028(3) -0.1260(3)
H4 H 0.3273 0.5925 -0.1254
C5 C 0.3280(4) 0.4308(3) -0.0401(2)
C6 C 0.2029(4) 0.4877(2) 0.0557(2)
C7 C 0.1236(5) 0.6194(3) 0.0704(3)
H5 H 0.1461 0.6778 0.0182
C8 C 0.0115(5) 0.6626(3) 0.1630(3)
H6 H -0.0435 0.7507 0.1738
C9 C -0.0191(5) 0.5756(3) 0.2392(3)
H7 H -0.0919 0.6038 0.3032
C10 C 0.0599(4) 0.4454(3) 0.2195(3)
H8 H 0.0370 0.3859 0.2707
C11 C -0.0372(4) 0.1173(2) 0.1852(2)
C12 C -0.1235(3) 0.0416(2) 0.26906(19)
C13 C -0.0139(4) -0.0373(2) 0.3346(2)
H9 H 0.1083 -0.0356 0.3307
C14 C -0.0830(4) -0.1189(2) 0.4059(2)
C15 C -0.2662(4) -0.1187(3) 0.4133(2)
H10 H -0.3138 -0.1732 0.4607
C16 C -0.3779(4) -0.0380(3) 0.3508(2)
H11 H -0.5014 -0.0368 0.3575
C17 C -0.3080(3) 0.0420(2) 0.2777(2)
C18 C -0.4399(3) 0.1334(3) 0.2158(2)
C19 C 0.0401(4) -0.2086(3) 0.4711(2)
H13 H 0.131(3) 0.069(3) -0.005(3)
H14 H 0.305(4) 0.027(2) -0.053(3)
H18 H 0.259(5) -0.226(3) 0.498(3)
Zn1_2 Zn -0.71594(4) 0.20598(3) 0.09351(2)
O7_2 O 0.5043(3) 0.08518(18) 0.13994(15)
O8 O 0.4075(4) 0.6635(2) 0.5788(2)
H12 H 0.431(4) 0.698(3) 0.6337(18)
H15 H 0.511(3) 0.628(4) 0.545(3)
O9 O 0.7507(5) 0.5553(3) 0.4910(4)
H16 H 0.747(4) 0.524(3) 0.5523(11)
H17 H 0.807(11) 0.489(3) 0.452(3)
loop_
_geom_bond_atom_site_label_1
_geom_bond_atom_site_label_2
_geom_bond_site_symmetry_1
_geom_bond_site_symmetry_2
Zn1 N1 1_555 1_555
N1 C1 1_555 1_555
N2 Zn1 1_555 1_555
O1 Zn1 1_555 1_555
O2 Zn1 1_555 1_555
O3 C11 1_555 1_555
O4 C19 1_555 1_555
O5 C19 1_555 1_555
O6 C18 1_555 1_555
O7 C18 1_555 1_555
O8 H12 1_555 1_555
O9 H16 1_555 1_555
C1 H1 1_555 1_555
C2 C1 1_555 1_555
H2 C2 1_555 1_555
C3 C2 1_555 1_555
H3 C3 1_555 1_555
C4 C3 1_555 1_555
H4 C4 1_555 1_555
C5 N1 1_555 1_555
C6 N2 1_555 1_555
C7 C6 1_555 1_555
H5 C7 1_555 1_555
C8 C7 1_555 1_555
H6 C8 1_555 1_555
C9 C8 1_555 1_555
H7 C9 1_555 1_555
C10 N2 1_555 1_555
H8 C10 1_555 1_555
C11 O2 1_555 1_555
C12 C11 1_555 1_555
C13 C12 1_555 1_555
H9 C13 1_555 1_555
C14 C13 1_555 1_555
C15 C14 1_555 1_555
H10 C15 1_555 1_555
C16 C15 1_555 1_555
H11 C16 1_555 1_555
C17 C12 1_555 1_555
C18 C17 1_555 1_555
C19 C14 1_555 1_555
H13 O1 1_555 1_555
H14 O1 1_555 1_555
H15 O8 1_555 1_555
H17 O9 1_555 1_555
H18 O4 1_555 1_555
Zn1_2 O7 1_555 1_555
O7_2 Zn1 1_555 1_555
C4 C5 1_555 1_555
C5 C6 1_555 1_555
C9 C10 1_555 1_555
C16 C17 1_555 1_555

#END
