
#######################################################################
#
#                 Cambridge Crystallographic Data Centre
#                                CCDC 
#
#######################################################################
#
# If this CIF has been generated from an entry in the Cambridge 
# Structural Database, then it will include bibliographic, chemical, 
# crystal, experimental, refinement or atomic coordinate data resulting 
# from the CCDC's data processing and validation procedures.
#
#######################################################################

data_XEGGEW
_symmetry_cell_setting           monoclinic
_symmetry_space_group_name_H-M   'P 21'
_symmetry_Int_Tables_number      4
_space_group_name_Hall           'P 2yb'
loop_
_symmetry_equiv_pos_site_id
_symmetry_equiv_pos_as_xyz
1 x,y,z
2 -x,1/2+y,-z
_cell_length_a                   7.701(3)
_cell_length_b                   10.977(2)
_cell_length_c                   8.943(5)
_cell_angle_alpha                90
_cell_angle_beta                 97.15(2)
_cell_angle_gamma                90
_cell_volume                     750.108
loop_
_atom_site_label
_atom_site_type_symbol
_atom_site_fract_x
_atom_site_fract_y
_atom_site_fract_z
Co1 Co 0.19008(4) 0.00369(3) 0.79801(3)
Cl1 Cl 0.39023(9) -0.01820(6) 0.63705(7)
Cl2 Cl 0.08575(9) -0.17455(6) 0.87095(7)
N1 N 0.2971(3) 0.0821(2) 0.9934(2)
N2 N 0.4223(3) 0.1681(2) 1.0223(2)
N3 N 0.1380(3) 0.5720(2) 0.4058(2)
N4 N 0.0168(3) 0.6047(2) 0.2884(2)
C1 C 0.2582(4) 0.0448(3) 1.1279(3)
H1 H 0.1641 -0.0252 1.1446
C2 C 0.3570(4) 0.1095(3) 1.2440(3)
H2 H 0.3529 0.1008 1.3638
C3 C 0.4603(4) 0.1867(3) 1.1715(3)
H3 H 0.5549 0.2508 1.2250
C4 C 0.4921(3) 0.2336(2) 0.9012(3)
H4 H 0.5083 0.1712 0.8107
H5 H 0.6192 0.2702 0.9426
C5 C 0.3723(3) 0.3364(3) 0.8414(3)
C6 C 0.3089(3) 0.4188(3) 0.9394(3)
H6 H 0.3475 0.4104 1.0593
C7 C 0.1962(3) 0.5117(3) 0.8845(3)
H7 H 0.1486 0.5758 0.9615
C8 C 0.1447(4) 0.5222(3) 0.7304(3)
H8 H 0.0543 0.5931 0.6883
C9 C 0.2090(3) 0.4417(3) 0.6300(3)
C10 C 0.3236(3) 0.3494(3) 0.6858(3)
H9 H 0.3752 0.2874 0.6086
C11 C 0.1450(4) 0.4471(3) 0.4627(3)
H10 H 0.2315 0.3941 0.4021
H11 H 0.0161 0.4071 0.4424
C12 C 0.2486(4) 0.6643(3) 0.4441(3)
H12 H 0.3572 0.6629 0.5331
C13 C 0.2000(4) 0.7612(3) 0.3505(3)
H13 H 0.2603 0.8500 0.3513
C14 C 0.0554(4) 0.7192(2) 0.2540(3)
H14 H -0.0152 0.7720 0.1643
Co1A Co -0.19008(4) 0.50369(3) 0.20199(3)
N4A N -0.0168(3) 0.1047(2) 0.7116(2)
loop_
_geom_bond_atom_site_label_1
_geom_bond_atom_site_label_2
_geom_bond_site_symmetry_1
_geom_bond_site_symmetry_2
Co1 Cl1 1_555 1_555
Cl2 Co1 1_555 1_555
N1 Co1 1_555 1_555
N2 N1 1_555 1_555
N3 N4 1_555 1_555
N4 C14 1_555 1_555
C1 N1 1_555 1_555
H1 C1 1_555 1_555
C2 C1 1_555 1_555
H2 C2 1_555 1_555
C3 N2 1_555 1_555
H3 C3 1_555 1_555
C4 N2 1_555 1_555
H4 C4 1_555 1_555
H5 C4 1_555 1_555
C5 C4 1_555 1_555
C6 C5 1_555 1_555
H6 C6 1_555 1_555
C7 C6 1_555 1_555
H7 C7 1_555 1_555
C8 C7 1_555 1_555
H8 C8 1_555 1_555
C9 C8 1_555 1_555
C10 C5 1_555 1_555
H9 C10 1_555 1_555
C11 N3 1_555 1_555
H10 C11 1_555 1_555
H11 C11 1_555 1_555
C12 N3 1_555 1_555
H12 C12 1_555 1_555
C13 C12 1_555 1_555
H13 C13 1_555 1_555
C14 C13 1_555 1_555
H14 C14 1_555 1_555
Co1A N4 1_555 1_555
N4A Co1 1_555 1_555
C2 C3 1_555 1_555
C9 C10 1_555 1_555
C9 C11 1_555 1_555

#END
