
#######################################################################
#
#                 Cambridge Crystallographic Data Centre
#                                CCDC 
#
#######################################################################
#
# If this CIF has been generated from an entry in the Cambridge 
# Structural Database, then it will include bibliographic, chemical, 
# crystal, experimental, refinement or atomic coordinate data resulting 
# from the CCDC's data processing and validation procedures.
#
#######################################################################

data_XEGGIA
_symmetry_cell_setting           triclinic
_symmetry_space_group_name_H-M   'P -1'
_symmetry_Int_Tables_number      2
_space_group_name_Hall           '-P 1'
loop_
_symmetry_equiv_pos_site_id
_symmetry_equiv_pos_as_xyz
1 x,y,z
2 -x,-y,-z
_cell_length_a                   8.607(3)
_cell_length_b                   8.977(2)
_cell_length_c                   10.856(5)
_cell_angle_alpha                75.089(1)
_cell_angle_beta                 75.351(3)
_cell_angle_gamma                87.992(2)
_cell_volume                     783.791
loop_
_atom_site_label
_atom_site_type_symbol
_atom_site_fract_x
_atom_site_fract_y
_atom_site_fract_z
Cd1 Cd 0.035192(18) 0.020120(17) 0.174001(15)
Cl1 Cl -0.21000(6) -0.04761(6) 0.04657(5)
Cl2 Cl -0.13454(6) 0.22316(6) 0.23509(6)
N1 N -0.0633(2) -0.2110(2) 0.30603(19)
N2 N -0.0487(2) -0.3489(2) 0.27606(18)
N3 N 0.3893(2) -0.9287(2) 0.24587(18)
N4 N 0.2345(2) -0.9833(2) 0.29045(19)
C1 C -0.1645(3) -0.2359(3) 0.4250(2)
H1 H -0.2021 -0.1481 0.4771
C2 C -0.2155(3) -0.3900(3) 0.4731(2)
H2 H -0.2970 -0.4438 0.5665
C3 C -0.1389(3) -0.4589(3) 0.3751(2)
H3 H -0.1493 -0.5791 0.3773
C4 C 0.0548(3) -0.3678(3) 0.1514(2)
H4 H 0.0745 -0.2571 0.0801
H5 H -0.0064 -0.4432 0.1144
C5 C 0.2161(3) -0.4340(2) 0.1646(2)
C6 C 0.3302(3) -0.3481(3) 0.1909(2)
H6 H 0.3041 -0.2334 0.2030
C7 C 0.4779(3) -0.4111(3) 0.2015(2)
H7 H 0.5655 -0.3459 0.2239
C8 C 0.5130(3) -0.5575(3) 0.1836(2)
H8 H 0.6281 -0.6050 0.1916
C9 C 0.4016(3) -0.6433(2) 0.1553(2)
C10 C 0.2525(3) -0.5803(2) 0.1466(2)
H9 H 0.1644 -0.6463 0.1257
C11 C 0.4413(3) -0.7994(2) 0.1288(2)
H10 H 0.3847 -0.8130 0.0541
H11 H 0.5696 -0.8033 0.0904
C12 C 0.4785(3) -0.9992(3) 0.3278(2)
H12 H 0.6047 -0.9767 0.3154
C13 C 0.3804(3) -1.1055(3) 0.4306(2)
H13 H 0.4125 -1.1827 0.5139
C14 C 0.2306(3) -1.0908(3) 0.4027(2)
H14 H 0.1244 -1.1578 0.4640
Cd1A Cd -0.035192(18) -0.020120(17) -0.174001(15)
Cd1_2 Cd 0.035192(18) -0.979880(17) 0.174001(15)
Cl1A Cl 0.21000(6) 0.04761(6) -0.04657(5)
N4_2 N 0.2345(2) 0.0167(2) 0.29045(19)
loop_
_geom_bond_atom_site_label_1
_geom_bond_atom_site_label_2
_geom_bond_site_symmetry_1
_geom_bond_site_symmetry_2
Cd1 Cl1 1_555 1_555
Cl1 Cd1A 1_555 1_555
Cl2 Cd1 1_555 1_555
N1 Cd1 1_555 1_555
N2 N1 1_555 1_555
N3 N4 1_555 1_555
N4 C14 1_555 1_555
C1 N1 1_555 1_555
H1 C1 1_555 1_555
C2 C1 1_555 1_555
H2 C2 1_555 1_555
C3 N2 1_555 1_555
H3 C3 1_555 1_555
C4 N2 1_555 1_555
H4 C4 1_555 1_555
H5 C4 1_555 1_555
C5 C4 1_555 1_555
C6 C5 1_555 1_555
H6 C6 1_555 1_555
C7 C6 1_555 1_555
H7 C7 1_555 1_555
C8 C7 1_555 1_555
H8 C8 1_555 1_555
C9 C8 1_555 1_555
C10 C5 1_555 1_555
H9 C10 1_555 1_555
C11 N3 1_555 1_555
H10 C11 1_555 1_555
H11 C11 1_555 1_555
C12 N3 1_555 1_555
H12 C12 1_555 1_555
C13 C12 1_555 1_555
H13 C13 1_555 1_555
C14 C13 1_555 1_555
H14 C14 1_555 1_555
Cd1A Cl1A 1_555 1_555
Cd1_2 N4 1_555 1_555
Cl1A Cd1 1_555 1_555
N4_2 Cd1 1_555 1_555
C2 C3 1_555 1_555
C9 C10 1_555 1_555
C9 C11 1_555 1_555

#END
