
#######################################################################
#
#                 Cambridge Crystallographic Data Centre
#                                CCDC 
#
#######################################################################
#
# If this CIF has been generated from an entry in the Cambridge 
# Structural Database, then it will include bibliographic, chemical, 
# crystal, experimental, refinement or atomic coordinate data resulting 
# from the CCDC's data processing and validation procedures.
#
#######################################################################

data_XEGHOH
_symmetry_cell_setting           monoclinic
_symmetry_space_group_name_H-M   'C 2/c'
_symmetry_Int_Tables_number      15
_space_group_name_Hall           '-C 2yn'
loop_
_symmetry_equiv_pos_site_id
_symmetry_equiv_pos_as_xyz
1 x,y,z
2 1/2+x,1/2+y,z
3 -x,y,1/2-z
4 1/2-x,1/2+y,1/2-z
5 -x,-y,-z
6 1/2-x,1/2-y,-z
7 x,-y,1/2+z
8 1/2+x,1/2-y,1/2+z
_cell_length_a                   17.142(19)
_cell_length_b                   9.788(12)
_cell_length_c                   12.889(14)
_cell_angle_alpha                90
_cell_angle_beta                 123.935(10)
_cell_angle_gamma                90
_cell_volume                     1794.24
loop_
_atom_site_label
_atom_site_type_symbol
_atom_site_fract_x
_atom_site_fract_y
_atom_site_fract_z
Co1 Co 0.7500 0.2500 0.5000
S1 S 0.94114(10) 0.86106(14) 0.75222(14)
C1 C 0.8795(3) 0.7117(4) 0.6646(4)
C2 C 0.8892(3) 0.6516(5) 0.5756(4)
H1 H 0.9258(3) 0.6927(5) 0.5517(4)
C3 C 0.8436(3) 0.5291(6) 0.5222(4)
H2 H 0.8503(3) 0.4904(6) 0.4616(4)
N1 N 0.7905(2) 0.4628(4) 0.5525(3)
C4 C 0.7784(3) 0.5264(6) 0.6357(5)
H3 H 0.7390(3) 0.4856(6) 0.6551(5)
C5 C 0.8209(3) 0.6475(5) 0.6934(5)
H4 H 0.8109(3) 0.6865(5) 0.7508(5)
N2 N 0.6221(2) 0.2886(4) 0.4880(3)
C6 C 0.5433(3) 0.3058(5) 0.4444(4)
N3 N 0.4570(2) 0.3296(6) 0.4070(4)
C7 C 0.3876(2) 0.3093(5) 0.2914(4)
N4 N 0.3216(2) 0.2988(4) 0.1940(3)
Co1G Co 0.2500 0.2500 0.0000
Co1G_2 Co 1.2500 0.2500 1.0000
S1B S 1.05886(10) 0.86106(14) 0.74778(14)
C1B C 1.1205(3) 0.7117(4) 0.8354(4)
C2B C 1.1108(3) 0.6516(5) 0.9244(4)
H1B H 1.0742(3) 0.6927(5) 0.9483(4)
C3B C 1.1564(3) 0.5291(6) 0.9778(4)
H2B H 1.1497(3) 0.4904(6) 1.0384(4)
N1B N 1.2095(2) 0.4628(4) 0.9475(3)
N1E N 0.7095(2) 0.0372(4) 0.4475(3)
C4B C 1.2216(3) 0.5264(6) 0.8643(5)
H3B H 1.2610(3) 0.4856(6) 0.8449(5)
C5B C 1.1791(3) 0.6475(5) 0.8066(5)
H4B H 1.1891(3) 0.6865(5) 0.7492(5)
N2E N 0.8779(2) 0.2114(4) 0.5120(3)
C6E C 0.9567(3) 0.1942(5) 0.5556(4)
N3E N 1.0430(2) 0.1704(6) 0.5930(4)
C7E C 1.1124(2) 0.1907(5) 0.7086(4)
N4E N 1.1784(2) 0.2012(4) 0.8060(3)
N4G N 0.8216(2) 0.2012(4) 0.6940(3)
N4B N 0.6784(2) 0.2988(4) 0.3060(3)
loop_
_geom_bond_atom_site_label_1
_geom_bond_atom_site_label_2
_geom_bond_site_symmetry_1
_geom_bond_site_symmetry_2
Co1 N1 1_555 1_555
S1 C1 1_555 1_555
C1 C2 1_555 1_555
C2 H1 1_555 1_555
C3 C2 1_555 1_555
H2 C3 1_555 1_555
N1 C3 1_555 1_555
C4 N1 1_555 1_555
H3 C4 1_555 1_555
C5 C1 1_555 1_555
H4 C5 1_555 1_555
N2 Co1 1_555 1_555
C6 N2 1_555 1_555
N3 C6 1_555 1_555
C7 N3 1_555 1_555
N4 C7 1_555 1_555
Co1G N4 1_555 1_555
Co1G_2 N1B 1_555 1_555
S1B S1 1_555 1_555
C1B S1B 1_555 1_555
C2B C1B 1_555 1_555
H1B C2B 1_555 1_555
C3B C2B 1_555 1_555
H2B C3B 1_555 1_555
N1B C3B 1_555 1_555
N1E Co1 1_555 1_555
C4B N1B 1_555 1_555
H3B C4B 1_555 1_555
C5B C1B 1_555 1_555
H4B C5B 1_555 1_555
N2E Co1 1_555 1_555
C6E N2E 1_555 1_555
N3E C6E 1_555 1_555
C7E N3E 1_555 1_555
N4E Co1G_2 1_555 1_555
N4G Co1 1_555 1_555
N4B Co1 1_555 1_555
C4 C5 1_555 1_555
C4B C5B 1_555 1_555
C7E N4E 1_555 1_555

#END
