
#######################################################################
#
#                 Cambridge Crystallographic Data Centre
#                                CCDC 
#
#######################################################################
#
# If this CIF has been generated from an entry in the Cambridge 
# Structural Database, then it will include bibliographic, chemical, 
# crystal, experimental, refinement or atomic coordinate data resulting 
# from the CCDC's data processing and validation procedures.
#
#######################################################################

data_XEGHIB
_symmetry_cell_setting           monoclinic
_symmetry_space_group_name_H-M   'C 2/c'
_symmetry_Int_Tables_number      15
_space_group_name_Hall           '-C 2yn'
loop_
_symmetry_equiv_pos_site_id
_symmetry_equiv_pos_as_xyz
1 x,y,z
2 1/2+x,1/2+y,z
3 -x,y,1/2-z
4 1/2-x,1/2+y,1/2-z
5 -x,-y,-z
6 1/2-x,1/2-y,-z
7 x,-y,1/2+z
8 1/2+x,1/2-y,1/2+z
_cell_length_a                   12.8849(17)
_cell_length_b                   7.1243(7)
_cell_length_c                   16.5493(17)
_cell_angle_alpha                90
_cell_angle_beta                 103.944(3)
_cell_angle_gamma                90
_cell_volume                     1474.39
loop_
_atom_site_label
_atom_site_type_symbol
_atom_site_fract_x
_atom_site_fract_y
_atom_site_fract_z
Co1 Co 0.2500 0.2500 0.5000
O1 O 0.25125(12) 0.1274(2) 0.61444(9)
H1 H 0.302(2) 0.047(4) 0.6325(18)
H2 H 0.195(3) 0.081(4) 0.612(2)
N1 N 0.29235(13) -0.0113(3) 0.45521(12)
N2 N 0.58421(13) -0.3045(3) 0.45718(11)
N3 N 0.38911(16) -0.2752(3) 0.41307(16)
C1 C 0.34160(13) -0.1326(2) 0.43774(11)
C2 C 0.49297(16) -0.2865(3) 0.43824(12)
Co1A Co 0.7500 -0.2500 0.5000
Co1A_2 Co -0.2500 0.7500 0.5000
O1E O 0.24875(12) 0.3726(2) 0.38556(9)
H1E H 0.198(2) 0.453(4) 0.3675(18)
H2E H 0.305(3) 0.419(4) 0.388(2)
N1E N 0.20765(13) 0.5113(3) 0.54479(12)
N2E N -0.08421(13) 0.8045(3) 0.54282(11)
N2A N 0.08421(13) 0.1955(3) 0.45718(11)
N2D N 0.41579(13) 0.3045(3) 0.54282(11)
N3E N 0.11089(16) 0.7752(3) 0.58693(16)
C1E C 0.15840(13) 0.6326(2) 0.56226(11)
C2E C 0.00703(16) 0.7865(3) 0.56176(12)
C3 C 0.0298(2) 0.7294(3) 0.35529(14)
H3 H -0.0031 0.6520 0.3904
H4 H 0.0833 0.8077 0.3912
C4 C 0.0000 0.9635(5) 0.2500
H5 H -0.0532 1.0437 0.2150
H6 H 0.0532 1.0437 0.2850
C5 C 0.0000 0.4927(4) 0.2500
H7 H -0.0336 0.4125 0.2837
H8 H 0.0336 0.4125 0.2163
C6 C 0.1308(2) 0.7278(4) 0.25141(17)
H9 H 0.1856 0.8055 0.2862
H10 H 0.1649 0.6492 0.2175
N4 N 0.08235(13) 0.6075(2) 0.30490(10)
N5 N -0.05166(17) 0.8490(3) 0.30310(11)
C3B C -0.0298(2) 0.7294(3) 0.14471(14)
H3B H 0.0031 0.6520 0.1096
H4B H -0.0833 0.8077 0.1088
C6B C -0.1308(2) 0.7278(4) 0.24859(17)
H9B H -0.1856 0.8055 0.2138
H10B H -0.1649 0.6492 0.2825
N4B N -0.08235(13) 0.6075(2) 0.19510(10)
N5B N 0.05166(17) 0.8490(3) 0.19690(11)
loop_
_geom_bond_atom_site_label_1
_geom_bond_atom_site_label_2
_geom_bond_site_symmetry_1
_geom_bond_site_symmetry_2
Co1 O1 1_555 1_555
O1 H1 1_555 1_555
H2 O1 1_555 1_555
N1 Co1 1_555 1_555
N2 C2 1_555 1_555
N3 C1 1_555 1_555
C1 N1 1_555 1_555
C2 N3 1_555 1_555
C3 H3 1_555 1_555
H4 C3 1_555 1_555
C4 H5 1_555 1_555
H6 C4 1_555 1_555
C5 H7 1_555 1_555
H8 C5 1_555 1_555
C6 H9 1_555 1_555
H10 C6 1_555 1_555
N4 C3 1_555 1_555
N5 C3 1_555 1_555
Co1A N2 1_555 1_555
Co1A_2 N2E 1_555 1_555
O1E Co1 1_555 1_555
H1E O1E 1_555 1_555
H2E O1E 1_555 1_555
N1E Co1 1_555 1_555
N2E C2E 1_555 1_555
N2A Co1 1_555 1_555
N2D Co1 1_555 1_555
N3E C1E 1_555 1_555
C1E N1E 1_555 1_555
C2E N3E 1_555 1_555
C3B H3B 1_555 1_555
H4B C3B 1_555 1_555
C6B N5 1_555 1_555
H9B C6B 1_555 1_555
H10B C6B 1_555 1_555
N4B C5 1_555 1_555
N5B C4 1_555 1_555
C4 N5 1_555 1_555
C5 N4 1_555 1_555
C6 N4 1_555 1_555
C6 N5B 1_555 1_555
C3B N4B 1_555 1_555
C3B N5B 1_555 1_555
C6B N4B 1_555 1_555

#END
