
#######################################################################
#
#                 Cambridge Crystallographic Data Centre
#                                CCDC 
#
#######################################################################
#
# If this CIF has been generated from an entry in the Cambridge 
# Structural Database, then it will include bibliographic, chemical, 
# crystal, experimental, refinement or atomic coordinate data resulting 
# from the CCDC's data processing and validation procedures.
#
#######################################################################

data_XEGJOK
_symmetry_cell_setting           monoclinic
_symmetry_space_group_name_H-M   'C 2/c'
_symmetry_Int_Tables_number      15
_space_group_name_Hall           '-C 2yn'
loop_
_symmetry_equiv_pos_site_id
_symmetry_equiv_pos_as_xyz
1 x,y,z
2 -x,y,1/2-z
3 1/2+x,1/2+y,z
4 1/2-x,1/2+y,1/2-z
5 -x,-y,-z
6 x,-y,1/2+z
7 1/2-x,1/2-y,-z
8 1/2+x,1/2-y,1/2+z
_cell_length_a                   24.428(7)
_cell_length_b                   30.251(7)
_cell_length_c                   13.356(3)
_cell_angle_alpha                90
_cell_angle_beta                 96.131(6)
_cell_angle_gamma                90
_cell_volume                     9813.25
loop_
_atom_site_label
_atom_site_type_symbol
_atom_site_fract_x
_atom_site_fract_y
_atom_site_fract_z
Gd1 Gd 0.77698(3) 0.761765(18) 0.64753(5)
O1 O 0.7754(4) 0.6857(3) 0.6084(7)
O2 O 0.7296(4) 0.6728(2) 0.4555(7)
O3 O 0.7714(5) 0.3189(3) 0.7612(8)
O4 O 0.6813(5) 0.3231(3) 0.7512(8)
O5 O 0.7991(7) 0.5671(5) 0.8429(10)
O6 O 0.7913(9) 0.5024(4) 0.8038(12)
O7 O 0.6576(8) 0.5282(5) 0.3808(12)
O8 O 0.6974(8) 0.4720(3) 0.4446(9)
O9 O 0.8378(7) 0.4933(4) 0.5624(14)
O10 O 0.8651(7) 0.4280(5) 0.5796(13)
O11 O 0.6507(6) 0.5251(4) 0.6855(13)
O12 O 0.5978(7) 0.4680(5) 0.6683(13)
O13 O 0.6947(4) 0.7544(3) 0.5403(7)
O14 O 0.6325(4) 0.7350(3) 0.4178(8)
O15 O 0.5574(13) 0.7936(13) 0.890(2)
O16 O 0.6200(10) 0.8191(9) 0.8410(17)
O17 O 0.4414(7) 0.6807(5) 0.6618(13)
O18 O 0.4521(8) 0.6915(8) 0.5101(16)
O19 O 0.7212(5) 0.7281(4) 0.7644(10)
O20 O 0.8365(6) 0.7268(3) 0.7725(9)
N1 N 0.7880(8) 0.5401(4) 0.7795(11)
N2 N 0.6948(7) 0.5093(4) 0.4427(11)
N3 N 0.8336(7) 0.4564(4) 0.5929(12)
N4 N 0.6441(8) 0.4855(5) 0.6716(12)
N5 N 0.5788(7) 0.7986(6) 0.8163(12)
N6 N 0.4671(7) 0.6960(7) 0.6003(17)
N7 N 0.6982(8) 0.6812(6) 0.8905(14)
N8 N 0.9135(12) 0.6955(9) 0.8533(18)
C1 C 0.7530(7) 0.6618(4) 0.5419(13)
C2 C 0.7507(7) 0.6126(4) 0.5625(10)
C3 C 0.7702(6) 0.5966(4) 0.6556(10)
H1 H 0.7856 0.6163 0.7041
C4 C 0.7678(7) 0.5533(4) 0.6796(11)
C5 C 0.7452(7) 0.5220(4) 0.6114(10)
C6 C 0.7241(7) 0.5387(4) 0.5196(11)
C7 C 0.7255(7) 0.5838(4) 0.4926(11)
H2 H 0.7100 0.5936 0.4299
C8 C 0.7397(7) 0.4732(4) 0.6352(11)
C9 C 0.7817(7) 0.4426(4) 0.6322(11)
C10 C 0.7779(7) 0.4000(4) 0.6625(10)
H3 H 0.8074 0.3808 0.6598
C11 C 0.7302(6) 0.3857(4) 0.6970(9)
C12 C 0.6866(6) 0.4132(4) 0.6962(10)
H4 H 0.6534 0.4029 0.7153
C13 C 0.6913(6) 0.4569(4) 0.6668(11)
C14 C 0.7268(9) 0.3388(5) 0.7374(11)
C15 C 0.6463(7) 0.7452(4) 0.5046(12)
C16 C 0.6038(6) 0.7456(4) 0.5795(11)
C17 C 0.6103(6) 0.7711(5) 0.6643(11)
H5 H 0.6418 0.7884 0.6777
C18 C 0.5702(6) 0.7715(5) 0.7306(11)
C19 C 0.5231(7) 0.7462(6) 0.7152(14)
C20 C 0.5149(7) 0.7228(5) 0.6240(12)
C21 C 0.5541(7) 0.7239(5) 0.5558(12)
H6 H 0.5468 0.7101 0.4936
C22 C 0.7106(10) 0.6933(6) 0.7946(17)
H7 H 0.7104 0.6703 0.7483
C23 C 0.6872(13) 0.6358(7) 0.911(2)
H8 H 0.6587 0.6250 0.8618
H9 H 0.6755 0.6332 0.9769
H10 H 0.7201 0.6187 0.9073
C24 C 0.6920(17) 0.7113(12) 0.975(3)
H11 H 0.6538 0.7135 0.9849
H12 H 0.7057 0.7401 0.9593
H13 H 0.7126 0.7002 1.0346
C25 C 0.8855(9) 0.7273(12) 0.789(2)
H14 H 0.9056 0.7487 0.7589
C26 C 0.971(2) 0.680(4) 0.849(5)
H15 H 0.9962 0.7031 0.8745
H16 H 0.9769 0.6740 0.7802
H17 H 0.9777 0.6541 0.8888
C27 C 0.8901(19) 0.6529(11) 0.881(4)
H18 H 0.8700 0.6398 0.8231
H19 H 0.8658 0.6577 0.9322
H20 H 0.9194 0.6334 0.9070
Gd1F Gd 0.72302(3) 0.738235(18) 0.35247(5)
Gd1C Gd 0.72302(3) 0.261765(18) 0.85247(5)
Gd1A Gd 0.22302(3) 0.761765(18) 0.85247(5)
Gd1G Gd 0.27698(3) 0.738235(18) 1.14753(5)
Gd1E Gd 0.77698(3) 1.238235(18) 0.14753(5)
O1F O 0.7246(4) 0.8143(3) 0.3916(7)
O2F O 0.7704(4) 0.8272(2) 0.5445(7)
O3F O 0.7286(5) 1.1811(3) 0.2388(8)
O3C O 0.7286(5) 0.8189(3) 0.7388(8)
O3E O 0.7714(5) 0.6811(3) 0.2612(8)
O4F O 0.8187(5) 1.1769(3) 0.2488(8)
O4C O 0.8187(5) 0.8231(3) 0.7488(8)
O4E O 0.6813(5) 0.6769(3) 0.2512(8)
O5F O 0.7009(7) 0.9329(5) 0.1571(10)
O6F O 0.7087(9) 0.9976(4) 0.1962(12)
O7F O 0.8424(8) 0.9718(5) 0.6192(12)
O8F O 0.8026(8) 1.0280(3) 0.5554(9)
O9F O 0.6622(7) 1.0067(4) 0.4376(14)
O10F O 0.6349(7) 1.0720(5) 0.4204(13)
O11F O 0.8493(6) 0.9749(4) 0.3145(13)
O12F O 0.9022(7) 1.0320(5) 0.3317(13)
O13A O 0.3053(4) 0.7544(3) 0.9597(7)
O13F O 0.8053(4) 0.7456(3) 0.4597(7)
O14A O 0.3675(4) 0.7350(3) 1.0822(8)
O14F O 0.8675(4) 0.7650(3) 0.5822(8)
O15A O 0.4426(13) 0.7936(13) 0.610(2)
O16A O 0.3800(10) 0.8191(9) 0.6590(17)
O17A O 0.5586(7) 0.6807(5) 0.8382(13)
O18A O 0.5479(8) 0.6915(8) 0.9899(16)
O19F O 0.7788(5) 0.7719(4) 0.2356(10)
O20F O 0.6635(6) 0.7732(3) 0.2275(9)
N1F N 0.7120(8) 0.9599(4) 0.2205(11)
N2F N 0.8052(7) 0.9907(4) 0.5573(11)
N3F N 0.6664(7) 1.0436(4) 0.4071(12)
N4F N 0.8559(8) 1.0145(5) 0.3284(12)
N5A N 0.4212(7) 0.7986(6) 0.6837(12)
N6A N 0.5329(7) 0.6960(7) 0.8997(17)
N7F N 0.8018(8) 0.8188(6) 0.1095(14)
N8F N 0.5865(12) 0.8045(9) 0.1467(18)
C1F C 0.7470(7) 0.8382(4) 0.4581(13)
C2F C 0.7493(7) 0.8874(4) 0.4375(10)
C3F C 0.7298(6) 0.9034(4) 0.3444(10)
H1F H 0.7144 0.8837 0.2959
C4F C 0.7322(7) 0.9467(4) 0.3204(11)
C5F C 0.7548(7) 0.9780(4) 0.3886(10)
C6F C 0.7759(7) 0.9613(4) 0.4804(11)
C7F C 0.7745(7) 0.9162(4) 0.5074(11)
H2F H 0.7900 0.9064 0.5701
C8F C 0.7603(7) 1.0268(4) 0.3648(11)
C9F C 0.7183(7) 1.0574(4) 0.3678(11)
C10F C 0.7221(7) 1.1000(4) 0.3375(10)
H3F H 0.6926 1.1192 0.3402
C11F C 0.7698(6) 1.1143(4) 0.3030(9)
C12F C 0.8134(6) 1.0868(4) 0.3038(10)
H4F H 0.8466 1.0971 0.2847
C13F C 0.8087(6) 1.0431(4) 0.3332(11)
C14F C 0.7732(9) 1.1612(5) 0.2626(11)
C15A C 0.3537(7) 0.7452(4) 0.9954(12)
C16A C 0.3962(6) 0.7456(4) 0.9205(11)
C17A C 0.3897(6) 0.7711(5) 0.8357(11)
H5A H 0.3582 0.7884 0.8223
C18A C 0.4298(6) 0.7715(5) 0.7694(11)
C19A C 0.4769(7) 0.7462(6) 0.7848(14)
C20A C 0.4851(7) 0.7228(5) 0.8760(12)
C21A C 0.4459(7) 0.7239(5) 0.9442(12)
H6A H 0.4532 0.7101 1.0064
C22F C 0.7894(10) 0.8067(6) 0.2054(17)
H7F H 0.7896 0.8297 0.2517
C23F C 0.8128(13) 0.8642(7) 0.089(2)
H8F H 0.8413 0.8750 0.1382
H9F H 0.8245 0.8668 0.0231
H10F H 0.7799 0.8813 0.0927
C24F C 0.8080(17) 0.7887(12) 0.025(3)
H11F H 0.8462 0.7865 0.0151
H12F H 0.7943 0.7599 0.0407
H13F H 0.7874 0.7998 -0.0346
C25F C 0.6145(9) 0.7727(12) 0.211(2)
H14F H 0.5944 0.7513 0.2411
C26F C 0.529(2) 0.820(4) 0.151(5)
H15F H 0.5038 0.7969 0.1255
H16F H 0.5231 0.8260 0.2198
H17F H 0.5223 0.8459 0.1112
C27F C 0.6099(19) 0.8471(11) 0.119(4)
H18F H 0.6300 0.8602 0.1769
H19F H 0.6342 0.8423 0.0678
H20F H 0.5806 0.8666 0.0930
O21 O 0.563(3) 0.611(2) 0.299(4)
C28 C 0.600(2) 0.6249(19) 0.356(3)
H21 H 0.6300 0.6391 0.3329
C29 C 0.5964(17) 0.6193(12) 0.459(2)
C30 C 0.630(2) 0.635(2) 0.537(3)
H22 H 0.6604 0.6519 0.5252
C31 C 0.6197(13) 0.6271(11) 0.633(2)
H23 H 0.6421 0.6385 0.6881
C32 C 0.5755(19) 0.6017(17) 0.646(3)
H24 H 0.5680 0.5950 0.7111
C33 C 0.5415(17) 0.5854(15) 0.567(4)
H25 H 0.5115 0.5681 0.5796
C34 C 0.5509(18) 0.5941(13) 0.471(4)
H26 H 0.5279 0.5836 0.4167
O22 O 0.5000 0.697(2) 0.2500
O23 O 0.597(2) 0.883(2) 0.560(5)
loop_
_geom_bond_atom_site_label_1
_geom_bond_atom_site_label_2
_geom_bond_site_symmetry_1
_geom_bond_site_symmetry_2
Gd1 O1 1_555 1_555
O1 C1 1_555 1_555
O2 C1 1_555 1_555
O3 C14 1_555 1_555
O4 C14 1_555 1_555
O5 N1 1_555 1_555
O6 N1 1_555 1_555
O7 N2 1_555 1_555
O8 N2 1_555 1_555
O9 N3 1_555 1_555
O10 N3 1_555 1_555
O11 N4 1_555 1_555
O12 N4 1_555 1_555
O13 Gd1 1_555 1_555
O14 C15 1_555 1_555
O15 N5 1_555 1_555
O16 N5 1_555 1_555
O17 N6 1_555 1_555
O18 N6 1_555 1_555
O19 Gd1 1_555 1_555
O20 Gd1 1_555 1_555
O21 C28 1_555 1_555
N1 C4 1_555 1_555
N2 C6 1_555 1_555
N3 C9 1_555 1_555
N4 C13 1_555 1_555
N5 C18 1_555 1_555
N6 C20 1_555 1_555
N7 C22 1_555 1_555
N8 C25 1_555 1_555
C1 C2 1_555 1_555
C2 C3 1_555 1_555
C3 H1 1_555 1_555
C4 C3 1_555 1_555
C5 C4 1_555 1_555
C6 C5 1_555 1_555
C7 C2 1_555 1_555
H2 C7 1_555 1_555
C8 C5 1_555 1_555
C9 C8 1_555 1_555
C10 C9 1_555 1_555
H3 C10 1_555 1_555
C11 C10 1_555 1_555
C12 C11 1_555 1_555
H4 C12 1_555 1_555
C13 C8 1_555 1_555
C14 C11 1_555 1_555
C15 O13 1_555 1_555
C16 C15 1_555 1_555
C17 C16 1_555 1_555
H5 C17 1_555 1_555
C18 C17 1_555 1_555
C19 C18 1_555 1_555
C20 C19 1_555 1_555
C21 C16 1_555 1_555
H6 C21 1_555 1_555
C22 O19 1_555 1_555
H7 C22 1_555 1_555
C23 N7 1_555 1_555
H8 C23 1_555 1_555
H9 C23 1_555 1_555
H10 C23 1_555 1_555
C24 N7 1_555 1_555
H11 C24 1_555 1_555
H12 C24 1_555 1_555
H13 C24 1_555 1_555
C25 O20 1_555 1_555
H14 C25 1_555 1_555
C26 N8 1_555 1_555
H15 C26 1_555 1_555
H16 C26 1_555 1_555
H17 C26 1_555 1_555
C27 N8 1_555 1_555
H18 C27 1_555 1_555
H19 C27 1_555 1_555
H20 C27 1_555 1_555
C28 H21 1_555 1_555
C29 C28 1_555 1_555
C30 C29 1_555 1_555
H22 C30 1_555 1_555
C31 C30 1_555 1_555
H23 C31 1_555 1_555
C32 C31 1_555 1_555
H24 C32 1_555 1_555
C33 C32 1_555 1_555
H25 C33 1_555 1_555
C34 C29 1_555 1_555
H26 C34 1_555 1_555
Gd1F O2 1_555 1_555
Gd1C O3 1_555 1_555
Gd1A O13A 1_555 1_555
Gd1G O13A 1_555 1_555
Gd1E O3F 1_555 1_555
O1F Gd1F 1_555 1_555
O2F Gd1 1_555 1_555
O3F C14F 1_555 1_555
O3C Gd1 1_555 1_555
O3E Gd1F 1_555 1_555
O4F Gd1E 1_555 1_555
O4C Gd1 1_555 1_555
O4E Gd1F 1_555 1_555
O5F N1F 1_555 1_555
O6F N1F 1_555 1_555
O7F N2F 1_555 1_555
O8F N2F 1_555 1_555
O9F N3F 1_555 1_555
O10F N3F 1_555 1_555
O11F N4F 1_555 1_555
O12F N4F 1_555 1_555
O13A C15A 1_555 1_555
O13F Gd1 1_555 1_555
O14A Gd1G 1_555 1_555
O14F Gd1 1_555 1_555
O15A N5A 1_555 1_555
O16A N5A 1_555 1_555
O17A N6A 1_555 1_555
O18A N6A 1_555 1_555
O19F Gd1F 1_555 1_555
O20F Gd1F 1_555 1_555
N1F C4F 1_555 1_555
N2F C6F 1_555 1_555
N3F C9F 1_555 1_555
N4F C13F 1_555 1_555
N5A C18A 1_555 1_555
N6A C20A 1_555 1_555
N7F C22F 1_555 1_555
N8F C25F 1_555 1_555
C1F O1F 1_555 1_555
C2F C1F 1_555 1_555
C3F C2F 1_555 1_555
H1F C3F 1_555 1_555
C4F C3F 1_555 1_555
C5F C4F 1_555 1_555
C6F C5F 1_555 1_555
C7F C2F 1_555 1_555
H2F C7F 1_555 1_555
C8F C5F 1_555 1_555
C9F C8F 1_555 1_555
C10F C9F 1_555 1_555
H3F C10F 1_555 1_555
C11F C10F 1_555 1_555
C12F C11F 1_555 1_555
H4F C12F 1_555 1_555
C13F C8F 1_555 1_555
C14F O4F 1_555 1_555
C15A O14A 1_555 1_555
C16A C15A 1_555 1_555
C17A C16A 1_555 1_555
H5A C17A 1_555 1_555
C18A C17A 1_555 1_555
C19A C19 1_555 1_555
C20A C19A 1_555 1_555
C21A C16A 1_555 1_555
H6A C21A 1_555 1_555
C22F O19F 1_555 1_555
H7F C22F 1_555 1_555
C23F N7F 1_555 1_555
H8F C23F 1_555 1_555
H9F C23F 1_555 1_555
H10F C23F 1_555 1_555
C24F N7F 1_555 1_555
H11F C24F 1_555 1_555
H12F C24F 1_555 1_555
H13F C24F 1_555 1_555
C25F O20F 1_555 1_555
H14F C25F 1_555 1_555
C26F N8F 1_555 1_555
H15F C26F 1_555 1_555
H16F C26F 1_555 1_555
H17F C26F 1_555 1_555
C27F N8F 1_555 1_555
H18F C27F 1_555 1_555
H19F C27F 1_555 1_555
H20F C27F 1_555 1_555
O4 Gd1C 1_555 1_555
O13 Gd1F 1_555 1_555
O14 Gd1F 1_555 1_555
C6 C7 1_555 1_555
C12 C13 1_555 1_555
C20 C21 1_555 1_555
C33 C34 1_555 1_555
Gd1F O13F 1_555 1_555
O2F C1F 1_555 1_555
C6F C7F 1_555 1_555
C11F C14F 1_555 1_555
C12F C13F 1_555 1_555
C18A C19A 1_555 1_555
C20A C21A 1_555 1_555

#END
