
#######################################################################
#
#                 Cambridge Crystallographic Data Centre
#                                CCDC 
#
#######################################################################
#
# If this CIF has been generated from an entry in the Cambridge 
# Structural Database, then it will include bibliographic, chemical, 
# crystal, experimental, refinement or atomic coordinate data resulting 
# from the CCDC's data processing and validation procedures.
#
#######################################################################

data_XEGJUQ
_symmetry_cell_setting           monoclinic
_symmetry_space_group_name_H-M   'P 21/n'
_symmetry_Int_Tables_number      14
_space_group_name_Hall           '-P 2yn'
loop_
_symmetry_equiv_pos_site_id
_symmetry_equiv_pos_as_xyz
1 x,y,z
2 1/2-x,1/2+y,1/2-z
3 -x,-y,-z
4 1/2+x,1/2-y,1/2+z
_cell_length_a                   13.307(6)
_cell_length_b                   30.217(5)
_cell_length_c                   23.947(7)
_cell_angle_alpha                90
_cell_angle_beta                 98.155(5)
_cell_angle_gamma                90
_cell_volume                     9531.66
loop_
_atom_site_label
_atom_site_type_symbol
_atom_site_fract_x
_atom_site_fract_y
_atom_site_fract_z
Gd1 Gd 0.14519(5) 0.22873(2) 0.27035(3)
Gd2 Gd -0.15186(5) 0.25145(2) 0.20980(3)
O1 O 0.0830(8) 0.2248(3) 0.3617(4)
O2 O -0.0460(8) 0.2420(3) 0.2961(4)
O3 O -0.5876(9) 0.2411(3) 0.6187(4)
O4 O -0.4648(7) 0.2620(3) 0.6851(4)
O5 O -0.3586(15) 0.2965(7) 0.3649(9)
O6 O -0.3538(13) 0.3111(6) 0.4477(7)
O7 O -0.0003(17) 0.1877(9) 0.5487(7)
O8 O -0.1510(14) 0.1826(6) 0.5620(6)
O9 O -0.3308(15) 0.1747(6) 0.4405(7)
O10 O -0.4827(19) 0.1884(10) 0.4418(9)
O11 O -0.0993(18) 0.2883(9) 0.5649(10)
O12 O -0.1754(15) 0.3320(7) 0.6008(8)
O13 O 0.2619(8) 0.6739(3) 0.2784(4)
O14 O 0.2518(8) 0.6661(3) 0.1862(5)
O15 O 0.1014(7) 0.3043(3) 0.2736(4)
O16 O -0.0522(8) 0.3188(3) 0.2237(5)
O17 O 0.0962(16) 0.5619(5) 0.3800(7)
O18 O 0.0646(13) 0.4980(4) 0.3482(6)
O19 O 0.1634(15) 0.4678(5) 0.1509(7)
O20 O 0.1484(19) 0.5227(7) 0.1046(9)
O21 O 0.2993(15) 0.4865(5) 0.3031(14)
O22 O 0.3416(11) 0.4216(5) 0.3081(8)
O23 O -0.0623(9) 0.5215(4) 0.2048(7)
O24 O -0.1275(11) 0.4655(5) 0.1594(7)
O25 O 0.0437(8) 0.1632(3) 0.2574(5)
O26 O -0.1100(8) 0.1750(3) 0.2085(4)
O27 O -0.2533(8) -0.1943(3) 0.2422(5)
O28 O -0.2480(9) -0.1836(3) 0.3324(4)
O29 O 0.1232(14) 0.0203(6) 0.3378(9)
O30 O 0.0606(10) -0.0373(4) 0.2975(9)
O31 O -0.3494(12) 0.0565(5) 0.1863(8)
O32 O -0.3104(11) -0.0113(4) 0.2067(8)
O33 O -0.1691(13) 0.0186(4) 0.3496(6)
O34 O -0.1500(15) -0.0357(5) 0.4048(7)
O35 O -0.0845(15) -0.0226(4) 0.1521(6)
O36 O -0.0784(17) -0.0903(5) 0.1376(7)
O37 O 0.2760(9) 0.2613(3) 0.3335(6)
O38 O 0.2572(9) 0.2662(4) 0.2149(5)
O39 O -0.2667(11) 0.2141(4) 0.2621(6)
O40 O -0.2807(10) 0.2196(4) 0.1461(7)
N1 N -0.3226(13) 0.2912(6) 0.4114(6)
N2 N -0.0895(17) 0.1956(7) 0.5344(7)
N3 N -0.3962(19) 0.1919(8) 0.4594(8)
N4 N -0.1763(13) 0.3002(6) 0.5762(7)
N5 N 0.0972(14) 0.5343(6) 0.3442(7)
N6 N 0.1593(14) 0.5067(6) 0.1484(8)
N7 N 0.2780(14) 0.4491(5) 0.2988(9)
N8 N -0.0651(11) 0.4819(5) 0.1962(8)
N9 N 0.0618(12) -0.0006(5) 0.2979(9)
N10 N -0.2859(13) 0.0268(5) 0.2032(8)
N11 N -0.1587(12) -0.0207(5) 0.3582(7)
N12 N -0.1024(15) -0.0591(5) 0.1643(8)
N13 N 0.3532(11) 0.2940(6) 0.4112(7)
N14 N 0.3673(15) 0.3184(6) 0.1995(7)
N15 N -0.382(2) 0.1679(9) 0.2864(12)
N16 N -0.3573(14) 0.1905(8) 0.0635(10)
C1 C -0.0068(14) 0.2342(4) 0.3474(6)
C2 C -0.0753(12) 0.2388(4) 0.3911(6)
C3 C -0.1630(11) 0.2627(5) 0.3809(6)
H1 H -0.1800 0.2774 0.3467
C4 C -0.2281(12) 0.2650(4) 0.4229(6)
C5 C -0.2047(13) 0.2437(5) 0.4741(6)
C6 C -0.1177(13) 0.2201(6) 0.4816(6)
C7 C -0.0513(13) 0.2180(5) 0.4425(6)
H2 H 0.0094 0.2025 0.4507
C8 C -0.2782(12) 0.2455(6) 0.5180(6)
C9 C -0.3706(14) 0.2217(6) 0.5103(7)
C10 C -0.4418(13) 0.2228(6) 0.5459(7)
H3 H -0.5012 0.2063 0.5384
C11 C -0.4230(11) 0.2496(5) 0.5942(6)
C12 C -0.3351(11) 0.2748(5) 0.6030(6)
H4 H -0.3221 0.2932 0.6343
C13 C -0.2663(11) 0.2722(5) 0.5641(5)
C14 C -0.4954(13) 0.2507(5) 0.6346(6)
C15 C 0.2374(11) 0.6525(4) 0.2335(7)
C16 C 0.1977(11) 0.6072(4) 0.2383(6)
C17 C 0.1652(12) 0.5913(5) 0.2873(7)
H5 H 0.1654 0.6098 0.3183
C18 C 0.1320(12) 0.5470(5) 0.2897(7)
C19 C 0.1330(12) 0.5174(5) 0.2471(7)
C20 C 0.1629(11) 0.5343(4) 0.1979(7)
C21 C 0.1940(11) 0.5780(5) 0.1940(7)
H6 H 0.2129 0.5879 0.1602
C22 C 0.1030(12) 0.4688(5) 0.2508(7)
C23 C 0.1736(13) 0.4373(5) 0.2741(8)
C24 C 0.1491(12) 0.3934(5) 0.2758(7)
H7 H 0.1969 0.3735 0.2930
C25 C 0.0556(14) 0.3785(5) 0.2527(7)
C26 C -0.0128(11) 0.4088(4) 0.2279(7)
H8 H -0.0766 0.3996 0.2109
C27 C 0.0128(10) 0.4528(4) 0.2281(7)
C28 C 0.0279(12) 0.3296(4) 0.2489(7)
C29 C -0.0418(13) 0.1508(4) 0.2326(6)
C30 C -0.0647(11) 0.1020(4) 0.2361(7)
C31 C 0.0075(12) 0.0727(5) 0.2617(7)
H9 H 0.0726 0.0826 0.2752
C32 C -0.0167(12) 0.0296(4) 0.2669(7)
C33 C -0.1114(13) 0.0107(5) 0.2493(8)
C34 C -0.1809(13) 0.0419(5) 0.2247(7)
C35 C -0.1594(12) 0.0866(5) 0.2181(7)
H10 H -0.2097 0.1057 0.2014
C36 C -0.1367(11) -0.0367(4) 0.2591(7)
C37 C -0.1617(11) -0.0509(4) 0.3098(6)
C38 C -0.1901(12) -0.0943(4) 0.3203(7)
H11 H -0.2063 -0.1022 0.3555
C39 C -0.1935(10) -0.1247(4) 0.2779(7)
C40 C -0.1656(12) -0.1123(4) 0.2272(7)
H12 H -0.1670 -0.1329 0.1982
C41 C -0.1356(13) -0.0699(5) 0.2192(7)
C42 C -0.2306(11) -0.1704(4) 0.2859(7)
C43 C 0.2996(15) 0.2627(6) 0.3840(10)
H13 H 0.2778 0.2397 0.4051
C44 C 0.3765(19) 0.2948(9) 0.4731(10)
H14 H 0.3297 0.2760 0.4889
H15 H 0.3706 0.3245 0.4864
H16 H 0.4445 0.2843 0.4844
C45 C 0.3903(19) 0.3312(6) 0.3825(10)
H17 H 0.3759 0.3267 0.3424
H18 H 0.4622 0.3340 0.3934
H19 H 0.3573 0.3578 0.3924
C46 C 0.292(2) 0.2966(10) 0.2078(9)
H20 H 0.2401 0.3174 0.2075
C47 C 0.459(3) 0.2887(11) 0.2034(14)
H21 H 0.4419 0.2599 0.2162
H22 H 0.5131 0.3010 0.2295
H23 H 0.4805 0.2861 0.1669
C48 C 0.395(3) 0.3637(9) 0.1914(13)
H24 H 0.3476 0.3828 0.2066
H25 H 0.3922 0.3694 0.1518
H26 H 0.4619 0.3690 0.2104
C49 C -0.298(3) 0.1849(9) 0.2824(11)
H27 H -0.2457 0.1683 0.3022
C50 C -0.472(3) 0.1930(11) 0.2921(17)
H28 H -0.4530 0.2218 0.3072
H29 H -0.5105 0.1778 0.3171
H30 H -0.5123 0.1962 0.2558
C51 C -0.394(3) 0.1248(9) 0.310(2)
H31 H -0.4308 0.1275 0.3415
H32 H -0.3289 0.1120 0.3221
H33 H -0.4316 0.1062 0.2818
C52 C -0.3041(19) 0.2228(8) 0.0976(13)
H34 H -0.2863 0.2486 0.0803
C53 C -0.380(2) 0.1462(9) 0.0899(13)
H35 H -0.3542 0.1226 0.0692
H36 H -0.4519 0.1429 0.0887
H37 H -0.3477 0.1454 0.1284
C54 C -0.389(2) 0.1978(11) -0.0016(12)
H38 H -0.4608 0.2020 -0.0095
H39 H -0.3696 0.1724 -0.0217
H40 H -0.3548 0.2236 -0.0132
Gd1C Gd -0.35481(5) 0.27127(2) 0.77035(3)
Gd1A Gd 0.35481(5) 0.72873(2) 0.22965(3)
Gd2C Gd -0.65186(5) 0.24855(2) 0.70980(3)
Gd2A Gd -0.34814(5) -0.24855(2) 0.29020(3)
O3C O -0.0876(9) 0.2589(3) 0.1187(4)
O4C O 0.0352(7) 0.2380(3) 0.1851(4)
O13A O 0.2381(8) 0.1739(3) 0.2216(4)
O14A O 0.2482(8) 0.1661(3) 0.3138(5)
O27A O -0.2467(8) 0.3057(3) 0.2578(5)
O28A O -0.2520(9) 0.3164(3) 0.1676(4)
O41 O 0.5769(11) 0.0869(4) 0.4825(7)
N17 N 0.6227(14) 0.1402(8) 0.6304(12)
C55 C 0.249(3) 0.1659(13) 0.476(2)
H41 H 0.1904 0.1808 0.4599
C56 C 0.273(2) 0.1604(10) 0.532(2)
H42 H 0.2303 0.1720 0.5562
C57 C 0.360(2) 0.1378(10) 0.5544(14)
H43 H 0.3777 0.1369 0.5934
C58 C 0.4205(3) 0.1161(10) 0.5205(2)
C59 C 0.398(4) 0.1241(15) 0.4635(8)
H44 H 0.4401 0.1128 0.4390
C60 C 0.315(3) 0.1486(18) 0.4427(17)
H45 H 0.3027 0.1537 0.4040
C61 C 0.5291(14) 0.0969(6) 0.5345(7)
C62 C 0.5807(10) 0.1224(16) 0.5879(9)
H46 H 0.5256 0.0698 0.5428
H47 H 0.629(5) 0.071(3) 0.479(5)
O42 O -0.558(4) 0.1023(18) -0.091(3)
O43 O -0.075(4) 0.1167(16) 0.391(3)
O44 O 0.545(5) 0.411(2) 0.567(3)
loop_
_geom_bond_atom_site_label_1
_geom_bond_atom_site_label_2
_geom_bond_site_symmetry_1
_geom_bond_site_symmetry_2
Gd1 O1 1_555 1_555
Gd2 O2 1_555 1_555
O1 C1 1_555 1_555
O2 Gd1 1_555 1_555
O3 C14 1_555 1_555
O4 C14 1_555 1_555
O5 N1 1_555 1_555
O6 N1 1_555 1_555
O7 N2 1_555 1_555
O8 N2 1_555 1_555
O9 N3 1_555 1_555
O10 N3 1_555 1_555
O11 N4 1_555 1_555
O12 N4 1_555 1_555
O13 C15 1_555 1_555
O14 C15 1_555 1_555
O15 Gd1 1_555 1_555
O16 Gd2 1_555 1_555
O17 N5 1_555 1_555
O18 N5 1_555 1_555
O19 N6 1_555 1_555
O20 N6 1_555 1_555
O21 N7 1_555 1_555
O22 N7 1_555 1_555
O23 N8 1_555 1_555
O24 N8 1_555 1_555
O25 Gd1 1_555 1_555
O26 Gd2 1_555 1_555
O27 C42 1_555 1_555
O28 C42 1_555 1_555
O29 N9 1_555 1_555
O30 N9 1_555 1_555
O31 N10 1_555 1_555
O32 N10 1_555 1_555
O33 N11 1_555 1_555
O34 N11 1_555 1_555
O35 N12 1_555 1_555
O36 N12 1_555 1_555
O37 Gd1 1_555 1_555
O38 Gd1 1_555 1_555
O39 Gd2 1_555 1_555
O40 Gd2 1_555 1_555
O41 C61 1_555 1_555
N1 C4 1_555 1_555
N2 C6 1_555 1_555
N3 C9 1_555 1_555
N4 C13 1_555 1_555
N5 C18 1_555 1_555
N6 C20 1_555 1_555
N7 C23 1_555 1_555
N8 C27 1_555 1_555
N9 C32 1_555 1_555
N10 C34 1_555 1_555
N11 C37 1_555 1_555
N12 C41 1_555 1_555
N13 C43 1_555 1_555
N14 C46 1_555 1_555
N15 C49 1_555 1_555
N16 C52 1_555 1_555
N17 C62 1_555 1_555
C1 O2 1_555 1_555
C2 C1 1_555 1_555
C3 C2 1_555 1_555
H1 C3 1_555 1_555
C4 C3 1_555 1_555
C5 C4 1_555 1_555
C6 C5 1_555 1_555
C7 C2 1_555 1_555
H2 C7 1_555 1_555
C8 C5 1_555 1_555
C9 C8 1_555 1_555
C10 C9 1_555 1_555
H3 C10 1_555 1_555
C11 C10 1_555 1_555
C12 C11 1_555 1_555
H4 C12 1_555 1_555
C13 C8 1_555 1_555
C14 C11 1_555 1_555
C15 C16 1_555 1_555
C16 C17 1_555 1_555
C17 H5 1_555 1_555
C18 C17 1_555 1_555
C19 C18 1_555 1_555
C20 C19 1_555 1_555
C21 C16 1_555 1_555
H6 C21 1_555 1_555
C22 C19 1_555 1_555
C23 C22 1_555 1_555
C24 C23 1_555 1_555
H7 C24 1_555 1_555
C25 C24 1_555 1_555
C26 C25 1_555 1_555
H8 C26 1_555 1_555
C27 C22 1_555 1_555
C28 O15 1_555 1_555
C29 O25 1_555 1_555
C30 C29 1_555 1_555
C31 C30 1_555 1_555
H9 C31 1_555 1_555
C32 C31 1_555 1_555
C33 C32 1_555 1_555
C34 C33 1_555 1_555
C35 C30 1_555 1_555
H10 C35 1_555 1_555
C36 C33 1_555 1_555
C37 C36 1_555 1_555
C38 C37 1_555 1_555
H11 C38 1_555 1_555
C39 C38 1_555 1_555
C40 C39 1_555 1_555
H12 C40 1_555 1_555
C41 C36 1_555 1_555
C42 C39 1_555 1_555
C43 O37 1_555 1_555
H13 C43 1_555 1_555
C44 N13 1_555 1_555
H14 C44 1_555 1_555
H15 C44 1_555 1_555
H16 C44 1_555 1_555
C45 N13 1_555 1_555
H17 C45 1_555 1_555
H18 C45 1_555 1_555
H19 C45 1_555 1_555
C46 O38 1_555 1_555
H20 C46 1_555 1_555
C47 N14 1_555 1_555
H21 C47 1_555 1_555
H22 C47 1_555 1_555
H23 C47 1_555 1_555
C48 N14 1_555 1_555
H24 C48 1_555 1_555
H25 C48 1_555 1_555
H26 C48 1_555 1_555
C49 O39 1_555 1_555
H27 C49 1_555 1_555
C50 N15 1_555 1_555
H28 C50 1_555 1_555
H29 C50 1_555 1_555
H30 C50 1_555 1_555
C51 N15 1_555 1_555
H31 C51 1_555 1_555
H32 C51 1_555 1_555
H33 C51 1_555 1_555
C52 O40 1_555 1_555
H34 C52 1_555 1_555
C53 N16 1_555 1_555
H35 C53 1_555 1_555
H36 C53 1_555 1_555
H37 C53 1_555 1_555
C54 N16 1_555 1_555
H38 C54 1_555 1_555
H39 C54 1_555 1_555
H40 C54 1_555 1_555
C55 H41 1_555 1_555
C56 C55 1_555 1_555
H42 C56 1_555 1_555
C57 C56 1_555 1_555
H43 C57 1_555 1_555
C58 C57 1_555 1_555
C59 C58 1_555 1_555
H44 C59 1_555 1_555
C60 C55 1_555 1_555
H45 C60 1_555 1_555
C61 C58 1_555 1_555
C62 C61 1_555 1_555
H46 C61 1_555 1_555
H47 O41 1_555 1_555
Gd1C O4 1_555 1_555
Gd1A O13 1_555 1_555
Gd2C O3 1_555 1_555
Gd2A O27 1_555 1_555
O3C Gd2 1_555 1_555
O4C Gd1 1_555 1_555
O13A Gd1 1_555 1_555
O14A Gd1 1_555 1_555
O27A Gd2 1_555 1_555
O28A Gd2 1_555 1_555
Gd2 O4C 1_555 1_555
O4 Gd2C 1_555 1_555
O14 Gd1A 1_555 1_555
O16 C28 1_555 1_555
O26 C29 1_555 1_555
O28 Gd2A 1_555 1_555
C6 C7 1_555 1_555
C12 C13 1_555 1_555
C20 C21 1_555 1_555
C25 C28 1_555 1_555
C26 C27 1_555 1_555
C34 C35 1_555 1_555
C40 C41 1_555 1_555
C59 C60 1_555 1_555

#END
