
#######################################################################
#
#                 Cambridge Crystallographic Data Centre
#                                CCDC 
#
#######################################################################
#
# If this CIF has been generated from an entry in the Cambridge 
# Structural Database, then it will include bibliographic, chemical, 
# crystal, experimental, refinement or atomic coordinate data resulting 
# from the CCDC's data processing and validation procedures.
#
#######################################################################

data_XEGJIE
_symmetry_cell_setting           monoclinic
_symmetry_space_group_name_H-M   'P 21/n'
_symmetry_Int_Tables_number      14
_space_group_name_Hall           '-P 2yn'
loop_
_symmetry_equiv_pos_site_id
_symmetry_equiv_pos_as_xyz
1 x,y,z
2 1/2-x,1/2+y,1/2-z
3 -x,-y,-z
4 1/2+x,1/2-y,1/2+z
_cell_length_a                   13.103(4)
_cell_length_b                   30.424(6)
_cell_length_c                   23.434(5)
_cell_angle_alpha                90
_cell_angle_beta                 101.392(5)
_cell_angle_gamma                90
_cell_volume                     9157.82
loop_
_atom_site_label
_atom_site_type_symbol
_atom_site_fract_x
_atom_site_fract_y
_atom_site_fract_z
Gd1 Gd 0.14953(2) 0.230671(8) 0.271487(12)
Gd2 Gd -0.15218(2) 0.258308(8) 0.203412(12)
O1 O 0.0923(3) 0.22773(12) 0.36266(17)
O2 O -0.0434(3) 0.24378(12) 0.29406(17)
O3 O -0.4660(3) 0.25868(11) 0.68147(16)
O4 O -0.5812(3) 0.22641(13) 0.61350(17)
O5 O -0.3639(5) 0.2872(3) 0.3582(3)
O6 O -0.3633(5) 0.2960(2) 0.4478(2)
O7 O -0.1231(4) 0.1756(2) 0.5649(2)
O8 O 0.0320(4) 0.1859(2) 0.5542(2)
O9 O -0.3022(4) 0.16125(15) 0.4452(2)
O10 O -0.4664(4) 0.17538(16) 0.4353(2)
O11 O -0.0822(4) 0.2807(2) 0.5741(3)
O12 O -0.1818(4) 0.33084(17) 0.5959(3)
O13 O 0.1113(3) 0.30693(12) 0.28463(18)
O14 O -0.0394(3) 0.32137(11) 0.22301(17)
O15 O 0.2524(3) 0.66398(12) 0.18296(17)
O16 O 0.2507(3) 0.67867(12) 0.27497(18)
O17 O -0.1295(3) 0.46841(13) 0.16616(19)
O18 O -0.0619(3) 0.52316(13) 0.2185(2)
O19 O 0.3594(4) 0.42344(15) 0.3255(3)
O20 O 0.3124(4) 0.49068(16) 0.3279(4)
O21 O 0.0790(4) 0.50355(14) 0.3604(2)
O22 O 0.1308(6) 0.56685(18) 0.3935(2)
O23 O 0.1810(4) 0.46549(14) 0.1630(2)
O24 O 0.1354(4) 0.51979(15) 0.1054(2)
O25 O 0.0429(3) 0.16615(11) 0.25259(18)
O26 O -0.1198(3) 0.18005(12) 0.20505(18)
O27 O -0.2414(3) -0.17612(12) 0.33111(17)
O28 O -0.2764(3) -0.18666(12) 0.23549(18)
O29 O 0.1226(4) 0.02020(15) 0.3329(2)
O30 O 0.0635(4) -0.03295(15) 0.2753(3)
O31 O -0.3673(4) 0.06384(15) 0.1744(3)
O32 O -0.3260(4) -0.00414(14) 0.1884(3)
O33 O -0.1709(4) 0.02350(13) 0.3452(2)
O34 O -0.1068(4) -0.02998(16) 0.4018(2)
O35 O -0.1039(6) -0.01754(16) 0.1390(3)
O36 O -0.1420(10) -0.0812(2) 0.1138(3)
O37 O 0.2981(3) 0.25735(13) 0.33503(19)
O38 O 0.2446(4) 0.27460(13) 0.21423(19)
O39 O -0.2733(4) 0.22828(14) 0.1258(2)
O40 O -0.2863(3) 0.22662(13) 0.2451(2)
N1 N -0.3256(4) 0.28208(18) 0.4080(2)
N2 N -0.0604(4) 0.19162(19) 0.5387(2)
N3 N -0.3751(4) 0.17922(17) 0.4604(2)
N4 N -0.1686(4) 0.29550(19) 0.5777(2)
N5 N -0.0636(4) 0.48460(15) 0.2048(2)
N6 N 0.2933(4) 0.45264(17) 0.3156(3)
N7 N 0.1165(5) 0.53953(16) 0.3550(2)
N8 N 0.1607(4) 0.50407(15) 0.1541(2)
N9 N 0.0607(4) 0.00466(16) 0.2908(3)
N10 N -0.3040(4) 0.03469(17) 0.1896(3)
N11 N -0.1445(4) -0.01454(17) 0.3539(3)
N12 N -0.1348(5) -0.05281(17) 0.1482(2)
N13 N 0.3670(4) 0.29008(17) 0.4204(2)
N14 N 0.3553(5) 0.3300(2) 0.2045(3)
N15 N -0.3530(4) 0.19070(17) 0.0461(2)
N16 N -0.3899(4) 0.17315(18) 0.2682(3)
C1 C -0.0027(4) 0.23583(16) 0.3466(2)
C2 C -0.0700(4) 0.23714(17) 0.3912(3)
C3 C -0.1660(4) 0.25757(17) 0.3798(3)
H1 H -0.1898 0.2711 0.3441
C4 C -0.2266(5) 0.25774(19) 0.4220(3)
C5 C -0.1963(5) 0.23643(18) 0.4759(3)
C6 C -0.0991(5) 0.21663(19) 0.4856(3)
C7 C -0.0345(4) 0.21750(17) 0.4450(2)
H2 H 0.0316 0.2051 0.4538
C8 C -0.2672(5) 0.23548(19) 0.5191(3)
C9 C -0.3546(5) 0.20884(19) 0.5108(3)
C10 C -0.4277(5) 0.21018(18) 0.5460(2)
H3 H -0.4858 0.1920 0.5386
C11 C -0.4127(4) 0.23931(17) 0.5929(2)
C12 C -0.3285(5) 0.26683(18) 0.6023(3)
H4 H -0.3194 0.2869 0.6328
C13 C -0.2567(5) 0.26464(19) 0.5660(3)
C14 C -0.4928(4) 0.24132(16) 0.6317(2)
C15 C 0.0439(4) 0.33192(17) 0.2564(2)
C16 C 0.0675(4) 0.38084(17) 0.2612(2)
C17 C -0.0067(5) 0.41082(17) 0.2343(2)
H5 H -0.0720 0.4013 0.2153
C18 C 0.0178(4) 0.45498(17) 0.2362(3)
C19 C 0.1138(5) 0.47167(17) 0.2628(3)
C20 C 0.1860(5) 0.43998(18) 0.2893(3)
C21 C 0.1627(4) 0.39523(18) 0.2892(3)
H6 H 0.2119 0.3754 0.3082
C22 C 0.1419(4) 0.51901(17) 0.2554(3)
C23 C 0.1443(4) 0.55128(18) 0.2991(3)
C24 C 0.1723(4) 0.59413(18) 0.2918(3)
H7 H 0.1746 0.6143 0.3219
C25 C 0.1970(4) 0.60735(17) 0.2397(2)
C26 C 0.1903(4) 0.57756(18) 0.1947(3)
H8 H 0.2034 0.5864 0.1589
C27 C 0.1640(4) 0.53413(18) 0.2035(3)
C28 C 0.2342(4) 0.65317(17) 0.2319(3)
C29 C -0.0473(5) 0.15556(17) 0.2296(3)
C30 C -0.0733(4) 0.10665(18) 0.2305(3)
C31 C 0.0022(5) 0.07764(17) 0.2568(3)
H9 H 0.0692 0.0875 0.2720
C32 C -0.0225(5) 0.03356(18) 0.2604(3)
C33 C -0.1217(4) 0.01642(17) 0.2390(3)
C34 C -0.1950(4) 0.04753(18) 0.2137(3)
C35 C -0.1718(5) 0.09185(19) 0.2091(3)
H10 H -0.2232 0.1113 0.1916
C36 C -0.1461(5) -0.03066(18) 0.2491(3)
C37 C -0.1584(4) -0.04528(18) 0.3033(3)
C38 C -0.1833(4) -0.08811(18) 0.3146(3)
H11 H -0.1876 -0.0965 0.3522
C39 C -0.2017(4) -0.11838(17) 0.2699(3)
C40 C -0.1857(5) -0.10609(18) 0.2152(3)
H12 H -0.1953 -0.1263 0.1849
C41 C -0.1554(5) -0.06369(19) 0.2063(3)
C42 C -0.2418(4) -0.16374(17) 0.2794(3)
C43 C 0.3224(5) 0.2571(2) 0.3888(3)
H13 H 0.3080 0.2318 0.4081
C44 C 0.3888(5) 0.3311(2) 0.3926(3)
H14 H 0.3703 0.3279 0.3511
H15 H 0.4617 0.3378 0.4036
H16 H 0.3489 0.3545 0.4048
C45 C 0.3921(6) 0.2886(3) 0.4837(3)
H17 H 0.3745 0.2602 0.4968
H18 H 0.3531 0.3108 0.4992
H19 H 0.4652 0.2938 0.4969
C46 C 0.3256(6) 0.2934(3) 0.2232(3)
H20 H 0.3778 0.2787 0.2489
C47 C 0.2706(7) 0.3567(3) 0.1683(4)
H21 H 0.2710 0.3522 0.1278
H22 H 0.2818 0.3873 0.1776
H23 H 0.2045 0.3478 0.1763
C48 C 0.4508(10) 0.3494(4) 0.2146(5)
H24 H 0.5025 0.3285 0.2319
H25 H 0.4510 0.3738 0.2406
H26 H 0.4662 0.3597 0.1785
C49 C -0.3043(5) 0.2258(2) 0.0727(3)
H27 H -0.2933 0.2497 0.0500
C50 C -0.3759(6) 0.1532(2) 0.0800(4)
H28 H -0.3347 0.1285 0.0726
H29 H -0.4484 0.1459 0.0690
H30 H -0.3596 0.1604 0.1206
C51 C -0.3842(6) 0.1894(3) -0.0171(3)
H31 H -0.3704 0.2173 -0.0330
H32 H -0.4572 0.1830 -0.0277
H33 H -0.3454 0.1669 -0.0323
C52 C -0.3001(5) 0.1913(2) 0.2685(3)
H34 H -0.2413 0.1765 0.2879
C53 C -0.4018(6) 0.1319(2) 0.2978(3)
H35 H -0.3344 0.1209 0.3157
H36 H -0.4364 0.1109 0.2700
H37 H -0.4424 0.1368 0.3271
C54 C -0.4831(8) 0.1929(5) 0.2356(9)
H38 H -0.4649 0.2172 0.2134
H39 H -0.5255 0.2032 0.2619
H40 H -0.5212 0.1715 0.2097
Gd1C Gd -0.35047(2) 0.269329(8) 0.771487(12)
Gd1A Gd 0.35047(2) 0.730671(8) 0.228513(12)
Gd2C Gd -0.65218(2) 0.241692(8) 0.703412(12)
Gd2A Gd -0.34782(2) -0.241692(8) 0.296588(12)
O3C O 0.0340(3) 0.24132(11) 0.18147(16)
O4C O -0.0812(3) 0.27359(13) 0.11350(17)
O15A O 0.2476(3) 0.16398(12) 0.31704(17)
O16A O 0.2493(3) 0.17867(12) 0.22503(18)
O27A O -0.2586(3) 0.32388(12) 0.16889(17)
O28A O -0.2236(3) 0.31334(12) 0.26451(18)
O41 O -1.3791(4) 0.10723(16) 0.5363(2)
N17 N -1.3011(5) 0.0502(2) 0.4981(3)
C55 C -1.3097(6) 0.0798(2) 0.5398(3)
H41 H -1.2591 0.0793 0.5737
C56 C -1.3757(7) 0.0487(4) 0.4444(5)
H42 H -1.4216 0.0242 0.4450
H43 H -1.3400 0.0453 0.4126
H44 H -1.4153 0.0754 0.4396
C57 C -1.2221(8) 0.0165(3) 0.5088(4)
H45 H -1.1795 0.0206 0.5467
H46 H -1.1797 0.0183 0.4798
H47 H -1.2548 -0.0119 0.5068
O42 O -1.1291(4) 0.13331(16) 0.3505(2)
N18 N -1.0091(4) 0.10745(17) 0.4267(3)
C58 C -1.1057(6) 0.1155(2) 0.3978(3)
H48 H -1.1600 0.1067 0.4154
C59 C -0.9897(9) 0.0850(3) 0.4821(4)
H49 H -1.0516 0.0855 0.4983
H50 H -0.9342 0.0994 0.5083
H51 H -0.9706 0.0550 0.4767
C60 C -0.9197(6) 0.1185(2) 0.4008(3)
H52 H -0.8835 0.0920 0.3944
H53 H -0.8736 0.1375 0.4265
H54 H -0.9433 0.1331 0.3642
O43 O -0.1608(7) 0.3450(3) 0.4495(5)
N19 N -0.0777(7) 0.4085(3) 0.4396(3)
C61 C -0.1338(8) 0.3820(3) 0.4669(5)
H55 H -0.1533 0.3921 0.5006
C62 C -0.0413(17) 0.4495(5) 0.4647(7)
H56 H -0.0602 0.4524 0.5020
H57 H -0.0721 0.4729 0.4397
H58 H 0.0331 0.4508 0.4693
C63 C -0.0457(8) 0.3970(4) 0.3860(4)
H59 H 0.0287 0.3941 0.3930
H60 H -0.0674 0.4195 0.3575
H61 H -0.0772 0.3695 0.3718
O44 O -0.7632(3) 0.19280(15) 0.48612(19)
N20 N -0.6684(4) 0.13351(17) 0.5241(2)
C64 C -0.7271(5) 0.1693(2) 0.5271(3)
H62 H -0.7413 0.1767 0.5633
C65 C -0.6471(6) 0.1176(2) 0.4692(3)
H63 H -0.6846 0.0907 0.4587
H64 H -0.5738 0.1123 0.4732
H65 H -0.6688 0.1392 0.4395
C66 C -0.6233(7) 0.1082(2) 0.5754(3)
H66 H -0.6381 0.1225 0.6094
H67 H -0.5493 0.1063 0.5784
H68 H -0.6527 0.0792 0.5723
O45 O 0.262(2) 0.4126(7) 0.4634(19)
O46 O -0.4452(15) 0.3955(11) 0.6105(8)
O47 O -0.411(2) 0.3990(9) 0.5386(9)
loop_
_geom_bond_atom_site_label_1
_geom_bond_atom_site_label_2
_geom_bond_site_symmetry_1
_geom_bond_site_symmetry_2
Gd1 O1 1_555 1_555
Gd2 O2 1_555 1_555
O1 C1 1_555 1_555
O2 Gd1 1_555 1_555
O3 C14 1_555 1_555
O4 C14 1_555 1_555
O5 N1 1_555 1_555
O6 N1 1_555 1_555
O7 N2 1_555 1_555
O8 N2 1_555 1_555
O9 N3 1_555 1_555
O10 N3 1_555 1_555
O11 N4 1_555 1_555
O12 N4 1_555 1_555
O13 Gd1 1_555 1_555
O14 Gd2 1_555 1_555
O15 C28 1_555 1_555
O16 C28 1_555 1_555
O17 N5 1_555 1_555
O18 N5 1_555 1_555
O19 N6 1_555 1_555
O20 N6 1_555 1_555
O21 N7 1_555 1_555
O22 N7 1_555 1_555
O23 N8 1_555 1_555
O24 N8 1_555 1_555
O25 Gd1 1_555 1_555
O26 Gd2 1_555 1_555
O27 C42 1_555 1_555
O28 C42 1_555 1_555
O29 N9 1_555 1_555
O30 N9 1_555 1_555
O31 N10 1_555 1_555
O32 N10 1_555 1_555
O33 N11 1_555 1_555
O34 N11 1_555 1_555
O35 N12 1_555 1_555
O36 N12 1_555 1_555
O37 Gd1 1_555 1_555
O38 Gd1 1_555 1_555
O39 Gd2 1_555 1_555
O40 Gd2 1_555 1_555
N1 C4 1_555 1_555
N2 C6 1_555 1_555
N3 C9 1_555 1_555
N4 C13 1_555 1_555
N5 C18 1_555 1_555
N6 C20 1_555 1_555
N7 C23 1_555 1_555
N8 C27 1_555 1_555
N9 C32 1_555 1_555
N10 C34 1_555 1_555
N11 C37 1_555 1_555
N12 C41 1_555 1_555
N13 C43 1_555 1_555
N14 C46 1_555 1_555
N15 C49 1_555 1_555
N16 C52 1_555 1_555
C1 O2 1_555 1_555
C2 C1 1_555 1_555
C3 C2 1_555 1_555
H1 C3 1_555 1_555
C4 C3 1_555 1_555
C5 C4 1_555 1_555
C6 C5 1_555 1_555
C7 C2 1_555 1_555
H2 C7 1_555 1_555
C8 C5 1_555 1_555
C9 C8 1_555 1_555
C10 C9 1_555 1_555
H3 C10 1_555 1_555
C11 C10 1_555 1_555
C12 C11 1_555 1_555
H4 C12 1_555 1_555
C13 C8 1_555 1_555
C14 C11 1_555 1_555
C15 O13 1_555 1_555
C16 C15 1_555 1_555
C17 C16 1_555 1_555
H5 C17 1_555 1_555
C18 C17 1_555 1_555
C19 C18 1_555 1_555
C20 C19 1_555 1_555
C21 C16 1_555 1_555
H6 C21 1_555 1_555
C22 C19 1_555 1_555
C23 C22 1_555 1_555
C24 C23 1_555 1_555
H7 C24 1_555 1_555
C25 C24 1_555 1_555
C26 C25 1_555 1_555
H8 C26 1_555 1_555
C27 C22 1_555 1_555
C28 C25 1_555 1_555
C29 O25 1_555 1_555
C30 C29 1_555 1_555
C31 C30 1_555 1_555
H9 C31 1_555 1_555
C32 C31 1_555 1_555
C33 C32 1_555 1_555
C34 C33 1_555 1_555
C35 C30 1_555 1_555
H10 C35 1_555 1_555
C36 C33 1_555 1_555
C37 C36 1_555 1_555
C38 C37 1_555 1_555
H11 C38 1_555 1_555
C39 C38 1_555 1_555
C40 C39 1_555 1_555
H12 C40 1_555 1_555
C41 C36 1_555 1_555
C42 C39 1_555 1_555
C43 O37 1_555 1_555
H13 C43 1_555 1_555
C44 N13 1_555 1_555
H14 C44 1_555 1_555
H15 C44 1_555 1_555
H16 C44 1_555 1_555
C45 N13 1_555 1_555
H17 C45 1_555 1_555
H18 C45 1_555 1_555
H19 C45 1_555 1_555
C46 O38 1_555 1_555
H20 C46 1_555 1_555
C47 N14 1_555 1_555
H21 C47 1_555 1_555
H22 C47 1_555 1_555
H23 C47 1_555 1_555
C48 N14 1_555 1_555
H24 C48 1_555 1_555
H25 C48 1_555 1_555
H26 C48 1_555 1_555
C49 O39 1_555 1_555
H27 C49 1_555 1_555
C50 N15 1_555 1_555
H28 C50 1_555 1_555
H29 C50 1_555 1_555
H30 C50 1_555 1_555
C51 N15 1_555 1_555
H31 C51 1_555 1_555
H32 C51 1_555 1_555
H33 C51 1_555 1_555
C52 O40 1_555 1_555
H34 C52 1_555 1_555
C53 N16 1_555 1_555
H35 C53 1_555 1_555
H36 C53 1_555 1_555
H37 C53 1_555 1_555
C54 N16 1_555 1_555
H38 C54 1_555 1_555
H39 C54 1_555 1_555
H40 C54 1_555 1_555
O41 C55 1_555 1_555
N17 C55 1_555 1_555
C55 H41 1_555 1_555
C56 N17 1_555 1_555
H42 C56 1_555 1_555
H43 C56 1_555 1_555
H44 C56 1_555 1_555
C57 N17 1_555 1_555
H45 C57 1_555 1_555
H46 C57 1_555 1_555
H47 C57 1_555 1_555
O42 C58 1_555 1_555
N18 C58 1_555 1_555
C58 H48 1_555 1_555
C59 N18 1_555 1_555
H49 C59 1_555 1_555
H50 C59 1_555 1_555
H51 C59 1_555 1_555
C60 N18 1_555 1_555
H52 C60 1_555 1_555
H53 C60 1_555 1_555
H54 C60 1_555 1_555
O43 C61 1_555 1_555
N19 C61 1_555 1_555
C61 H55 1_555 1_555
C62 N19 1_555 1_555
H56 C62 1_555 1_555
H57 C62 1_555 1_555
H58 C62 1_555 1_555
C63 N19 1_555 1_555
H59 C63 1_555 1_555
H60 C63 1_555 1_555
H61 C63 1_555 1_555
O44 C64 1_555 1_555
N20 C64 1_555 1_555
C64 H62 1_555 1_555
C65 N20 1_555 1_555
H63 C65 1_555 1_555
H64 C65 1_555 1_555
H65 C65 1_555 1_555
C66 N20 1_555 1_555
H66 C66 1_555 1_555
H67 C66 1_555 1_555
H68 C66 1_555 1_555
Gd1C O3 1_555 1_555
Gd1A O15 1_555 1_555
Gd2C O3 1_555 1_555
Gd2A O27 1_555 1_555
O3C Gd1 1_555 1_555
O4C Gd2 1_555 1_555
O15A Gd1 1_555 1_555
O16A Gd1 1_555 1_555
O27A Gd2 1_555 1_555
O28A Gd2 1_555 1_555
Gd2 O3C 1_555 1_555
O4 Gd2C 1_555 1_555
O14 C15 1_555 1_555
O16 Gd1A 1_555 1_555
O26 C29 1_555 1_555
O28 Gd2A 1_555 1_555
C6 C7 1_555 1_555
C12 C13 1_555 1_555
C20 C21 1_555 1_555
C26 C27 1_555 1_555
C34 C35 1_555 1_555
C40 C41 1_555 1_555

#END
