
#######################################################################
#
#                 Cambridge Crystallographic Data Centre
#                                CCDC 
#
#######################################################################
#
# If this CIF has been generated from an entry in the Cambridge 
# Structural Database, then it will include bibliographic, chemical, 
# crystal, experimental, refinement or atomic coordinate data resulting 
# from the CCDC's data processing and validation procedures.
#
#######################################################################

data_XEGKAX
_symmetry_cell_setting           monoclinic
_symmetry_space_group_name_H-M   'P 21/n'
_symmetry_Int_Tables_number      14
_space_group_name_Hall           '-P 2yn'
loop_
_symmetry_equiv_pos_site_id
_symmetry_equiv_pos_as_xyz
1 x,y,z
2 1/2-x,1/2+y,1/2-z
3 -x,-y,-z
4 1/2+x,1/2-y,1/2+z
_cell_length_a                   13.652(2)
_cell_length_b                   30.143(5)
_cell_length_c                   24.698(4)
_cell_angle_alpha                90
_cell_angle_beta                 94.935(3)
_cell_angle_gamma                90
_cell_volume                     10125.9
loop_
_atom_site_label
_atom_site_type_symbol
_atom_site_fract_x
_atom_site_fract_y
_atom_site_fract_z
Gd1 Gd 0.64237(4) 0.253651(17) 0.77778(3)
Gd2 Gd 0.36000(4) 0.226330(17) 0.72268(3)
O1 O 0.5680(6) 0.2701(3) 0.8622(3)
O2 O 0.4611(6) 0.2388(2) 0.8037(3)
O3 O -0.0694(6) 0.2792(3) 1.1362(3)
O4 O 0.0532(6) 0.2580(3) 1.1947(3)
O5 O 0.1717(11) 0.1740(5) 0.8848(6)
O6 O 0.1484(11) 0.1844(5) 0.9627(6)
O7 O 0.4201(10) 0.3508(4) 1.0058(5)
O8 O 0.3441(10) 0.3136(4) 1.0577(5)
O9 O 0.1118(10) 0.2886(6) 0.9174(4)
O10 O 0.0199(10) 0.3284(5) 0.9593(5)
O11 O 0.3628(10) 0.1984(5) 1.0401(5)
O12 O 0.3528(11) 0.2041(7) 1.1207(6)
O13 O 0.6093(5) 0.1761(2) 0.7808(3)
O14 O 0.4636(6) 0.1628(2) 0.7330(3)
O15 O 0.7560(6) -0.1955(3) 0.7731(3)
O16 O 0.7578(6) -0.1835(3) 0.6853(4)
O17 O 0.3860(7) 0.0160(3) 0.6745(4)
O18 O 0.4594(7) -0.0414(3) 0.7095(5)
O19 O 0.8309(7) 0.0542(3) 0.8225(5)
O20 O 0.7650(8) -0.0094(3) 0.8390(5)
O21 O 0.6738(10) 0.0157(3) 0.6618(5)
O22 O 0.7612(16) -0.0318(4) 0.6324(7)
O23 O 0.5446(7) -0.0232(3) 0.8474(4)
O24 O 0.5670(9) -0.0894(3) 0.8733(4)
O25 O 0.5460(6) 0.3192(3) 0.7567(3)
O26 O 0.3994(6) 0.3014(3) 0.7164(4)
O27 O 0.2405(6) 0.6632(3) 0.8123(4)
O28 O 0.2220(7) 0.6710(3) 0.7227(4)
O29 O 0.1803(7) 0.4823(3) 0.7030(4)
O30 O 0.1471(7) 0.4119(3) 0.7029(4)
O31 O 0.5310(9) 0.5148(5) 0.7960(10)
O32 O 0.6274(9) 0.4805(4) 0.7527(6)
O33 O 0.3501(12) 0.5543(4) 0.6119(5)
O34 O 0.4324(10) 0.5014(4) 0.6483(5)
O35 O 0.3252(9) 0.5178(3) 0.8860(4)
O36 O 0.3054(9) 0.4609(3) 0.8347(4)
O37 O 0.7481(11) 0.2256(3) 0.8483(6)
O38 O 0.7659(9) 0.2131(4) 0.7319(7)
O39 O 0.2488(8) 0.2639(4) 0.7743(4)
O40 O 0.2379(6) 0.2580(3) 0.6583(4)
N1 N 0.1897(8) 0.1923(4) 0.9252(5)
N2 N 0.3706(10) 0.3201(5) 1.0140(5)
N3 N 0.0820(10) 0.3007(5) 0.9589(5)
N4 N 0.3196(9) 0.2100(5) 1.0746(5)
N5 N 0.4512(7) -0.0016(3) 0.7040(4)
N6 N 0.7643(9) 0.0279(4) 0.8168(5)
N7 N 0.7048(8) -0.0201(3) 0.6636(5)
N8 N 0.5771(8) -0.0600(3) 0.8405(4)
N9 N 0.2044(8) 0.4432(3) 0.7073(5)
N10 N 0.5469(9) 0.4842(4) 0.7732(7)
N11 N 0.3787(10) 0.5331(4) 0.6504(6)
N12 N 0.3181(8) 0.5006(4) 0.8424(5)
N13 N 0.8612(9) 0.1782(3) 0.8816(6)
N14 N 0.9314(6) 0.1939(7) 0.7310(4)
N15 N 0.1401(13) 0.3206(6) 0.7984(7)
N16 N 0.1943(11) 0.3145(4) 0.5992(6)
C1 C 0.4843(9) 0.2550(4) 0.8497(5)
C2 C 0.4092(9) 0.2557(4) 0.8906(5)
C3 C 0.3305(9) 0.2261(4) 0.8877(5)
H1 H 0.3205 0.2065 0.8586
C4 C 0.2681(9) 0.2262(4) 0.9283(5)
C5 C 0.2765(10) 0.2557(4) 0.9722(5)
C6 C 0.3532(10) 0.2858(4) 0.9716(5)
C7 C 0.4192(9) 0.2858(4) 0.9324(5)
H2 H 0.4705 0.3062 0.9343
C8 C 0.2064(9) 0.2563(4) 1.0161(5)
C9 C 0.1172(10) 0.2788(4) 1.0110(5)
C10 C 0.0561(9) 0.2828(4) 1.0519(5)
H3 H -0.0023 0.2987 1.0467
C11 C 0.0842(9) 0.2621(4) 1.1022(5)
C12 C 0.1695(9) 0.2395(4) 1.1083(5)
H4 H 0.1887 0.2262 1.1414
C13 C 0.2293(9) 0.2358(4) 1.0658(5)
C14 C 0.0178(9) 0.2670(4) 1.1477(5)
C15 C 0.5451(9) 0.1516(4) 0.7584(5)
C16 C 0.5667(8) 0.1022(4) 0.7599(5)
C17 C 0.5011(8) 0.0725(4) 0.7339(5)
H5 H 0.4421 0.0828 0.7167
C18 C 0.5223(8) 0.0283(4) 0.7332(5)
C19 C 0.6095(9) 0.0105(4) 0.7597(5)
C20 C 0.6708(9) 0.0416(4) 0.7861(5)
C21 C 0.6524(9) 0.0865(4) 0.7857(5)
H6 H 0.6978 0.1060 0.8029
C22 C 0.6388(8) -0.0372(4) 0.7524(5)
C23 C 0.6842(9) -0.0514(4) 0.7077(6)
C24 C 0.7130(8) -0.0948(4) 0.7003(5)
H7 H 0.7400 -0.1029 0.6684
C25 C 0.7019(8) -0.1253(4) 0.7394(5)
C26 C 0.6578(8) -0.1137(4) 0.7848(5)
H8 H 0.6491 -0.1348 0.8115
C27 C 0.6259(9) -0.0705(4) 0.7911(5)
C28 C 0.7403(8) -0.1717(4) 0.7316(5)
C29 C 0.4644(9) 0.3290(4) 0.7355(5)
C30 C 0.4337(9) 0.3776(4) 0.7338(5)
C31 C 0.3385(9) 0.3891(4) 0.7182(5)
H9 H 0.2931 0.3677 0.7056
C32 C 0.3108(9) 0.4330(4) 0.7214(5)
C33 C 0.3759(8) 0.4664(4) 0.7388(5)
C34 C 0.4712(9) 0.4524(4) 0.7531(5)
C35 C 0.5014(9) 0.4089(4) 0.7508(6)
H10 H 0.5664 0.4011 0.7607
C36 C 0.3457(9) 0.5139(4) 0.7446(5)
C37 C 0.3462(9) 0.5447(4) 0.7036(5)
C38 C 0.3132(9) 0.5878(4) 0.7085(6)
H11 H 0.3088 0.6068 0.6787
C39 C 0.2867(8) 0.6023(4) 0.7584(5)
C40 C 0.2906(8) 0.5735(4) 0.8015(5)
H12 H 0.2741 0.5831 0.8353
C41 C 0.3192(8) 0.5300(4) 0.7944(5)
C42 C 0.2475(8) 0.6486(4) 0.7646(5)
C43 C 0.7653(14) 0.1943(9) 0.8721(13)
H13 H 0.7141 0.1787 0.8858
C44 C 0.936(3) 0.2124(13) 0.877(4)
H14 H 0.9177 0.2302 0.8450
H15 H 0.9982 0.1987 0.8730
H16 H 0.9399 0.2309 0.9084
C45 C 0.894(2) 0.1377(7) 0.9086(14)
H17 H 0.8378 0.1190 0.9129
H18 H 0.9259 0.1446 0.9437
H19 H 0.9386 0.1226 0.8872
C46 C 0.836(3) 0.206(4) 0.7065(16)
H20 H 0.8270 0.2074 0.6688
C47 C 0.9837(18) 0.2080(8) 0.6806(10)
H21 H 0.9445 0.2299 0.6604
H22 H 0.9920 0.1826 0.6580
H23 H 1.0468 0.2204 0.6921
C48 C 0.9486(5) 0.1516(3) 0.7654(6)
H24 H 0.9170 0.1546 0.7985
H25 H 1.0179 0.1473 0.7739
H26 H 0.9216 0.1265 0.7453
C49 C 0.1774(18) 0.2830(7) 0.7749(8)
H27 H 0.1282 0.2692 0.7526
C50 C 0.0375(16) 0.3220(19) 0.7890(12)
H28 H 0.0188 0.3161 0.7514
H29 H 0.0144 0.3509 0.7982
H30 H 0.0090 0.3001 0.8111
C51 C 0.208(2) 0.3512(11) 0.8317(13)
H31 H 0.2740 0.3395 0.8337
H32 H 0.1875 0.3536 0.8678
H33 H 0.2074 0.3800 0.8151
C52 C 0.2576(12) 0.2810(5) 0.6211(7)
H34 H 0.3171 0.2765 0.6061
C53 C 0.217(2) 0.3402(9) 0.5512(12)
H35 H 0.2815 0.3324 0.5415
H36 H 0.2153 0.3713 0.5594
H37 H 0.1695 0.3337 0.5214
C54 C 0.1017(13) 0.3238(6) 0.6197(9)
H38 H 0.0504 0.3085 0.5981
H39 H 0.0895 0.3552 0.6181
H40 H 0.1029 0.3140 0.6567
Gd1C Gd 0.14237(4) 0.246349(17) 1.27778(3)
Gd1A Gd 0.85763(4) -0.246349(17) 0.72222(3)
Gd2C Gd -0.14000(4) 0.273670(17) 1.22268(3)
Gd2A Gd 0.14000(4) 0.726330(17) 0.77732(3)
O3C O 0.4306(6) 0.2208(3) 0.6362(3)
O4C O 0.5532(6) 0.2420(3) 0.6947(3)
O15A O 0.7440(6) 0.3045(3) 0.7269(3)
O16A O 0.7422(6) 0.3165(3) 0.8147(4)
O27A O 0.2595(6) 0.1632(3) 0.6877(4)
O28A O 0.2780(7) 0.1710(3) 0.7773(4)
N17 N 0.281(2) -0.1193(9) 0.5135(14)
N18 N 0.5588(17) -0.0753(8) 0.5936(10)
C55 C 0.4986(17) 0.0388(8) 0.5717(10)
H41 H 0.5420 0.0150 0.5711
C56 C 0.531(2) 0.0808(8) 0.5934(10)
H42 H 0.5969 0.0852 0.6045
C57 C 0.466(3) 0.1141(6) 0.5980(9)
H43 H 0.4869 0.1405 0.6150
C58 C 0.367(2) 0.1089(8) 0.5765(9)
H44 H 0.3221 0.1321 0.5786
C59 C 0.336(2) 0.0686(8) 0.5524(13)
H45 H 0.2720 0.0649 0.5370
C60 C 0.4038(19) 0.0344(7) 0.5521(10)
C61 C 0.3556(19) -0.0090(7) 0.5383(12)
H46 H 0.2934 -0.0071 0.5200
C62 C 0.3898(17) -0.0524(7) 0.5488(12)
C63 C 0.326(2) -0.0882(9) 0.5326(16)
C64 C 0.4812(18) -0.0636(9) 0.5767(11)
N19 N 0.3217(14) -0.0671(7) 1.0811(7)
N20 N 0.277(2) -0.0522(7) 0.9075(8)
C65 C 0.4012(12) 0.0492(7) 0.9102(7)
H47 H 0.3830 0.0212 0.8972
C66 C 0.4219(14) 0.0811(8) 0.8758(8)
H48 H 0.4176 0.0749 0.8388
C67 C 0.4499(15) 0.1238(7) 0.8933(7)
H49 H 0.4637 0.1457 0.8685
C68 C 0.4566(15) 0.1326(6) 0.9489(7)
H50 H 0.4761 0.1606 0.9617
C69 C 0.4341(13) 0.0998(6) 0.9850(7)
H51 H 0.4371 0.1057 1.0221
C70 C 0.4070(12) 0.0579(6) 0.9653(7)
C71 C 0.3851(12) 0.0250(6) 1.0052(7)
H52 H 0.4027 0.0331 1.0411
C72 C 0.3434(14) -0.0154(7) 0.9989(7)
C73 C 0.3320(14) -0.0432(7) 1.0460(8)
C74 C 0.3073(18) -0.0339(7) 0.9472(8)
N21 N 0.252(2) -0.1318(7) 0.3258(13)
N22 N -0.0257(16) -0.0908(9) 0.3910(13)
C75 C 0.2085(19) -0.1081(7) 0.3515(10)
C76 C 0.1641(15) -0.0782(7) 0.3906(10)
H53 H 0.1939 -0.0839 0.4270
H54 H 0.1772 -0.0476 0.3815
C77 C 0.0592(16) -0.0852(9) 0.3889(12)
N23 N 0.109(2) 0.0006(11) 0.4700(9)
N24 N 0.035(4) 0.1160(16) 0.3757(18)
C78 C 0.055(10) 0.027(4) 0.456(6)
C79 C -0.018(2) 0.0620(10) 0.4494(16)
H55 H -0.0139 0.0792 0.4827
H56 H -0.0826 0.0485 0.4452
C80 C -0.009(4) 0.0939(14) 0.4020(14)
N25 N -0.144(7) 0.240(4) 1.006(4)
N26 N -0.329(2) 0.3611(11) 0.9854(15)
C81 C -0.1782(9) 0.2676(7) 0.9785(3)
C82 C -0.228(4) 0.3002(13) 0.9418(19)
H57 H -0.2644 0.2836 0.9131
H58 H -0.1769 0.3162 0.9250
C83 C -0.298(6) 0.335(5) 0.961(7)
O41 O 0.517(4) 0.3580(16) 0.6070(12)
O42 O 0.860(4) -0.0888(13) 0.9117(17)
O43 O 0.069(2) -0.016(3) 1.018(2)
O44 O 0.0816(17) 0.2361(8) 0.5354(10)
O45 O 0.0801(18) 0.1939(9) 0.6027(17)
loop_
_geom_bond_atom_site_label_1
_geom_bond_atom_site_label_2
_geom_bond_site_symmetry_1
_geom_bond_site_symmetry_2
Gd1 O1 1_555 1_555
Gd2 O2 1_555 1_555
O1 C1 1_555 1_555
O2 Gd1 1_555 1_555
O3 C14 1_555 1_555
O4 C14 1_555 1_555
O5 N1 1_555 1_555
O6 N1 1_555 1_555
O7 N2 1_555 1_555
O8 N2 1_555 1_555
O9 N3 1_555 1_555
O10 N3 1_555 1_555
O11 N4 1_555 1_555
O12 N4 1_555 1_555
O13 Gd1 1_555 1_555
O14 Gd2 1_555 1_555
O15 C28 1_555 1_555
O16 C28 1_555 1_555
O17 N5 1_555 1_555
O18 N5 1_555 1_555
O19 N6 1_555 1_555
O20 N6 1_555 1_555
O21 N7 1_555 1_555
O22 N7 1_555 1_555
O23 N8 1_555 1_555
O24 N8 1_555 1_555
O25 Gd1 1_555 1_555
O26 Gd2 1_555 1_555
O27 C42 1_555 1_555
O28 C42 1_555 1_555
O29 N9 1_555 1_555
O30 N9 1_555 1_555
O31 N10 1_555 1_555
O32 N10 1_555 1_555
O33 N11 1_555 1_555
O34 N11 1_555 1_555
O35 N12 1_555 1_555
O36 N12 1_555 1_555
O37 Gd1 1_555 1_555
O38 Gd1 1_555 1_555
O39 Gd2 1_555 1_555
O40 Gd2 1_555 1_555
N1 C4 1_555 1_555
N2 C6 1_555 1_555
N3 C9 1_555 1_555
N4 C13 1_555 1_555
N5 C18 1_555 1_555
N6 C20 1_555 1_555
N7 C23 1_555 1_555
N8 C27 1_555 1_555
N9 C32 1_555 1_555
N10 C34 1_555 1_555
N11 C37 1_555 1_555
N12 C41 1_555 1_555
N13 C43 1_555 1_555
N14 C46 1_555 1_555
N15 C49 1_555 1_555
N16 C52 1_555 1_555
N17 C63 1_555 1_555
N18 C64 1_555 1_555
N19 C73 1_555 1_555
N20 C74 1_555 1_555
N21 C75 1_555 1_555
N22 C77 1_555 1_555
N23 C78 1_555 1_555
N24 C80 1_555 1_555
N25 C81 1_555 1_555
N26 C83 1_555 1_555
C1 O2 1_555 1_555
C2 C1 1_555 1_555
C3 C2 1_555 1_555
H1 C3 1_555 1_555
C4 C3 1_555 1_555
C5 C4 1_555 1_555
C6 C5 1_555 1_555
C7 C2 1_555 1_555
H2 C7 1_555 1_555
C8 C5 1_555 1_555
C9 C8 1_555 1_555
C10 C9 1_555 1_555
H3 C10 1_555 1_555
C11 C10 1_555 1_555
C12 C11 1_555 1_555
H4 C12 1_555 1_555
C13 C8 1_555 1_555
C14 C11 1_555 1_555
C15 O13 1_555 1_555
C16 C15 1_555 1_555
C17 C16 1_555 1_555
H5 C17 1_555 1_555
C18 C17 1_555 1_555
C19 C18 1_555 1_555
C20 C19 1_555 1_555
C21 C16 1_555 1_555
H6 C21 1_555 1_555
C22 C19 1_555 1_555
C23 C22 1_555 1_555
C24 C23 1_555 1_555
H7 C24 1_555 1_555
C25 C24 1_555 1_555
C26 C25 1_555 1_555
H8 C26 1_555 1_555
C27 C22 1_555 1_555
C28 C25 1_555 1_555
C29 O25 1_555 1_555
C30 C29 1_555 1_555
C31 C30 1_555 1_555
H9 C31 1_555 1_555
C32 C31 1_555 1_555
C33 C32 1_555 1_555
C34 C33 1_555 1_555
C35 C30 1_555 1_555
H10 C35 1_555 1_555
C36 C33 1_555 1_555
C37 C36 1_555 1_555
C38 C37 1_555 1_555
H11 C38 1_555 1_555
C39 C38 1_555 1_555
C40 C39 1_555 1_555
H12 C40 1_555 1_555
C41 C36 1_555 1_555
C42 C39 1_555 1_555
C43 O37 1_555 1_555
H13 C43 1_555 1_555
C44 N13 1_555 1_555
H14 C44 1_555 1_555
H15 C44 1_555 1_555
H16 C44 1_555 1_555
C45 N13 1_555 1_555
H17 C45 1_555 1_555
H18 C45 1_555 1_555
H19 C45 1_555 1_555
C46 O38 1_555 1_555
H20 C46 1_555 1_555
C47 N14 1_555 1_555
H21 C47 1_555 1_555
H22 C47 1_555 1_555
H23 C47 1_555 1_555
C48 N14 1_555 1_555
H24 C48 1_555 1_555
H25 C48 1_555 1_555
H26 C48 1_555 1_555
C49 O39 1_555 1_555
H27 C49 1_555 1_555
C50 N15 1_555 1_555
H28 C50 1_555 1_555
H29 C50 1_555 1_555
H30 C50 1_555 1_555
C51 N15 1_555 1_555
H31 C51 1_555 1_555
H32 C51 1_555 1_555
H33 C51 1_555 1_555
C52 O40 1_555 1_555
H34 C52 1_555 1_555
C53 N16 1_555 1_555
H35 C53 1_555 1_555
H36 C53 1_555 1_555
H37 C53 1_555 1_555
C54 N16 1_555 1_555
H38 C54 1_555 1_555
H39 C54 1_555 1_555
H40 C54 1_555 1_555
C55 H41 1_555 1_555
C56 C55 1_555 1_555
H42 C56 1_555 1_555
C57 C56 1_555 1_555
H43 C57 1_555 1_555
C58 C57 1_555 1_555
H44 C58 1_555 1_555
C59 C58 1_555 1_555
H45 C59 1_555 1_555
C60 C55 1_555 1_555
C61 C60 1_555 1_555
H46 C61 1_555 1_555
C62 C61 1_555 1_555
C63 C62 1_555 1_555
C64 C62 1_555 1_555
C65 H47 1_555 1_555
C66 C65 1_555 1_555
H48 C66 1_555 1_555
C67 C66 1_555 1_555
H49 C67 1_555 1_555
C68 C67 1_555 1_555
H50 C68 1_555 1_555
C69 C68 1_555 1_555
H51 C69 1_555 1_555
C70 C65 1_555 1_555
C71 C70 1_555 1_555
H52 C71 1_555 1_555
C72 C71 1_555 1_555
C73 C72 1_555 1_555
C74 C72 1_555 1_555
C75 C76 1_555 1_555
C76 H53 1_555 1_555
H54 C76 1_555 1_555
C77 C76 1_555 1_555
C78 C79 1_555 1_555
C79 H55 1_555 1_555
H56 C79 1_555 1_555
C80 C79 1_555 1_555
C81 C82 1_555 1_555
C82 H57 1_555 1_555
H58 C82 1_555 1_555
C83 C82 1_555 1_555
Gd1C O4 1_555 1_555
Gd1A O15 1_555 1_555
Gd2C O3 1_555 1_555
Gd2A O27 1_555 1_555
O3C Gd2 1_555 1_555
O4C Gd1 1_555 1_555
O15A Gd1 1_555 1_555
O16A Gd1 1_555 1_555
O27A Gd2 1_555 1_555
O28A Gd2 1_555 1_555
Gd2 O4C 1_555 1_555
O4 Gd2C 1_555 1_555
O14 C15 1_555 1_555
O16 Gd1A 1_555 1_555
O26 C29 1_555 1_555
O28 Gd2A 1_555 1_555
C6 C7 1_555 1_555
C12 C13 1_555 1_555
C20 C21 1_555 1_555
C26 C27 1_555 1_555
C34 C35 1_555 1_555
C40 C41 1_555 1_555
C59 C60 1_555 1_555
C69 C70 1_555 1_555

#END
