
#######################################################################
#
#                 Cambridge Crystallographic Data Centre
#                                CCDC 
#
#######################################################################
#
# If this CIF has been generated from an entry in the Cambridge 
# Structural Database, then it will include bibliographic, chemical, 
# crystal, experimental, refinement or atomic coordinate data resulting 
# from the CCDC's data processing and validation procedures.
#
#######################################################################

data_XEGKOL
_symmetry_cell_setting           monoclinic
_symmetry_space_group_name_H-M   'C 2/c'
_symmetry_Int_Tables_number      15
_space_group_name_Hall           '-C 2yn'
loop_
_symmetry_equiv_pos_site_id
_symmetry_equiv_pos_as_xyz
1 x,y,z
2 -x,y,1/2-z
3 1/2+x,1/2+y,z
4 1/2-x,1/2+y,1/2-z
5 -x,-y,-z
6 x,-y,1/2+z
7 1/2-x,1/2-y,-z
8 1/2+x,1/2-y,1/2+z
_cell_length_a                   24.447(4)
_cell_length_b                   29.784(7)
_cell_length_c                   14.636(5)
_cell_angle_alpha                90
_cell_angle_beta                 94.258(5)
_cell_angle_gamma                90
_cell_volume                     10627.5
loop_
_atom_site_label
_atom_site_type_symbol
_atom_site_fract_x
_atom_site_fract_y
_atom_site_fract_z
O21 O -0.0325(6) 0.4550(6) 0.0580(12)
N9 N 0.0972(7) 0.3777(6) -0.1461(12)
C31 C 0.0808(9) 0.4219(7) -0.1383(14)
H19 H 0.0967 0.4430 -0.1750
C32 C 0.0433(7) 0.4372(7) -0.0812(13)
H20 H 0.0335 0.4673 -0.0782
C33 C 0.0206(7) 0.4041(6) -0.0273(11)
C34 C 0.0374(7) 0.3583(6) -0.0267(13)
H21 H 0.0229 0.3374 0.0120
C35 C 0.0761(7) 0.3465(7) -0.0860(13)
H22 H 0.0886 0.3170 -0.0863
C36 C -0.0159(6) 0.4160(7) 0.0453(11)
H23 H -0.0270 0.3932 0.0833
O22 O 0.0845(6) 0.5421(5) 0.1557(10)
N10 N 0.1087(6) 0.3764(5) 0.1992(11)
C37 C 0.0797(7) 0.4068(6) 0.2408(13)
H24 H 0.0580 0.3974 0.2869
C38 C 0.0803(7) 0.4496(6) 0.2192(12)
H25 H 0.0630 0.4703 0.2549
C39 C 0.1060(6) 0.4640(6) 0.1451(12)
C40 C 0.1370(7) 0.4327(6) 0.0998(11)
H26 H 0.1572 0.4412 0.0512
C41 C 0.1365(7) 0.3893(7) 0.1294(14)
H27 H 0.1564 0.3679 0.0995
C42 C 0.1048(7) 0.5119(6) 0.1159(12)
H28 H 0.1211 0.5190 0.0623
O23 O 0.5689(13) 0.4638(11) 0.017(2)
N11 N 0.3918(9) 0.3757(7) -0.076(2)
C43 C 0.4338(10) 0.3980(8) -0.1131(18)
H29 H 0.4294 0.3993 -0.1767
C44 C 0.4828(10) 0.4199(9) -0.077(2)
H30 H 0.5064 0.4361 -0.1118
C45 C 0.4901(12) 0.4135(13) 0.018(2)
C46 C 0.4467(13) 0.3963(13) 0.0638(19)
H31 H 0.4502 0.3971 0.1275
C47 C 0.3981(14) 0.3779(13) 0.022(2)
H32 H 0.3706 0.3674 0.0569
C48 C 0.5436(13) 0.4325(12) 0.058(2)
H33 H 0.5588 0.4215 0.1140
Gd1 Gd -0.21887(2) 0.236402(17) 0.63125(4)
O1 O -0.2386(3) 0.1707(3) 0.5381(5)
O2 O -0.2855(3) 0.1863(2) 0.4052(5)
O3 O -0.2594(3) -0.1844(2) 0.2324(5)
O4 O -0.1740(3) -0.1704(3) 0.2043(5)
O5 O -0.1701(4) 0.0205(3) 0.5937(6)
O6 O -0.2113(5) -0.0340(3) 0.5230(6)
O7 O -0.2857(5) 0.0801(3) 0.1669(6)
O8 O -0.2785(4) 0.0087(3) 0.1920(6)
O9 O -0.1498(5) 0.0333(3) 0.2901(9)
O10 O -0.0968(4) -0.0237(3) 0.2664(7)
O11 O -0.3376(4) -0.0091(3) 0.4010(7)
O12 O -0.3435(4) -0.0790(3) 0.4367(6)
O13 O -0.1969(3) 0.2504(3) 0.4467(5)
O14 O -0.1338(3) 0.2335(3) 0.5562(6)
O15 O -0.1281(5) 0.2990(4) 0.1519(7)
O16 O -0.0434(4) 0.3146(4) 0.1502(7)
O17 O 0.0510(7) 0.1752(5) 0.3229(13)
O18 O 0.0475(5) 0.1871(6) 0.4604(13)
O19 O -0.1567(4) 0.2634(3) 0.7467(6)
O20 O -0.3297(5) 0.3498(4) 1.0462(7)
N1 N -0.1998(5) 0.0050(4) 0.5316(7)
N2 N -0.2771(5) 0.0472(4) 0.2178(7)
N3 N -0.1403(5) -0.0075(4) 0.2856(8)
N4 N -0.3206(4) -0.0478(4) 0.3997(7)
N5 N -0.0819(5) 0.2978(4) 0.1843(8)
N6 N 0.0323(6) 0.1954(5) 0.3881(14)
N7 N -0.1241(8) 0.3056(6) 0.8680(12)
N8 N -0.2736(4) 0.2814(3) 0.7516(6)
C1 C -0.2607(5) 0.1608(4) 0.4610(7)
C2 C -0.2550(5) 0.1132(4) 0.4329(8)
C3 C -0.2315(5) 0.0810(4) 0.4923(8)
H1 H -0.2207 0.0886 0.5526
C4 C -0.2241(5) 0.0368(4) 0.4609(8)
C5 C -0.2399(5) 0.0231(4) 0.3734(8)
C6 C -0.2618(5) 0.0562(4) 0.3155(7)
C7 C -0.2700(5) 0.0999(4) 0.3447(8)
H2 H -0.2860 0.1206 0.3035
C8 C -0.2312(5) -0.0249(4) 0.3418(9)
C9 C -0.1869(5) -0.0385(4) 0.3002(7)
C10 C -0.1802(5) -0.0816(4) 0.2682(7)
H3 H -0.1481 -0.0898 0.2420
C11 C -0.2222(5) -0.1128(4) 0.2756(8)
C12 C -0.2684(5) -0.1011(4) 0.3193(7)
H4 H -0.2960 -0.1219 0.3273
C13 C -0.2724(5) -0.0581(4) 0.3506(8)
C14 C -0.2184(5) -0.1590(4) 0.2337(8)
C15 C -0.1483(5) 0.2431(4) 0.4763(7)
C16 C -0.1044(5) 0.2462(4) 0.4081(8)
C17 C -0.1126(5) 0.2698(4) 0.3284(8)
H5 H -0.1451 0.2854 0.3143
C18 C -0.0704(5) 0.2699(4) 0.2684(8)
C19 C -0.0225(6) 0.2475(4) 0.2836(10)
C20 C -0.0149(5) 0.2238(5) 0.3653(11)
C21 C -0.0556(5) 0.2235(4) 0.4287(9)
H6 H -0.0498 0.2082 0.4839
C22 C -0.1431(7) 0.2991(6) 0.7820(12)
H7 H -0.1464 0.3244 0.7446
C23 C -0.095(5) 0.2652(16) 0.921(3)
H8 H -0.1045 0.2376 0.8901
H9 H -0.0560 0.2693 0.9241
H10 H -0.1069 0.2640 0.9824
C24 C -0.1105(11) 0.3511(8) 0.898(2)
H11 H -0.1195 0.3717 0.8491
H12 H -0.1310 0.3586 0.9496
H13 H -0.0720 0.3529 0.9161
C25 C -0.2638(6) 0.2720(4) 0.8417(10)
H14 H -0.2427 0.2467 0.8567
C26 C -0.2817(6) 0.2959(6) 0.9119(9)
H15 H -0.2728 0.2874 0.9724
C27 C -0.3140(6) 0.3337(5) 0.8910(10)
C28 C -0.3256(5) 0.3444(4) 0.8009(8)
H16 H -0.3470 0.3693 0.7844
C29 C -0.3049(5) 0.3176(4) 0.7346(8)
H17 H -0.3134 0.3253 0.6736
C30 C -0.3380(6) 0.3592(6) 0.9656(11)
H18 H -0.3605 0.3836 0.9498
Gd1F Gd -0.28113(2) 0.263598(17) 0.36875(4)
Gd1E Gd -0.21887(2) -0.236402(17) 0.13125(4)
Gd1A Gd 0.21887(2) 0.236402(17) -0.13125(4)
Gd1G Gd 0.28113(2) 0.263598(17) 0.13125(4)
Gd1C Gd -0.28113(2) 0.736402(17) 0.86875(4)
O1F O -0.2614(3) 0.3293(3) 0.4619(5)
O2F O -0.2145(3) 0.3137(2) 0.5948(5)
O3F O -0.2406(3) 0.6844(2) 0.7676(5)
O3E O -0.2594(3) 0.1844(2) 0.7324(5)
O3C O -0.2406(3) 0.3156(2) 0.2676(5)
O4F O -0.3260(3) 0.6704(3) 0.7957(5)
O4E O -0.1740(3) 0.1704(3) 0.7043(5)
O4C O -0.3260(3) 0.3296(3) 0.2957(5)
O5F O -0.3299(4) 0.4795(3) 0.4063(6)
O6F O -0.2887(5) 0.5340(3) 0.4770(6)
O7F O -0.2143(5) 0.4199(3) 0.8331(6)
O8F O -0.2215(4) 0.4913(3) 0.8080(6)
O9F O -0.3502(5) 0.4667(3) 0.7099(9)
O10F O -0.4032(4) 0.5237(3) 0.7336(7)
O11F O -0.1624(4) 0.5091(3) 0.5990(7)
O12F O -0.1565(4) 0.5790(3) 0.5633(6)
O13A O 0.1969(3) 0.2504(3) 0.0533(5)
O13F O -0.3031(3) 0.2496(3) 0.5533(5)
O14A O 0.1338(3) 0.2335(3) -0.0562(6)
O14F O -0.3662(3) 0.2665(3) 0.4438(6)
O15A O 0.1281(5) 0.2990(4) 0.3481(7)
O16A O 0.0434(4) 0.3146(4) 0.3498(7)
O17A O -0.0510(7) 0.1752(5) 0.1771(13)
O18A O -0.0475(5) 0.1871(6) 0.0396(13)
O19F O -0.3433(4) 0.2366(3) 0.2533(6)
O20F O -0.1703(5) 0.1502(4) -0.0462(7)
N1F N -0.3002(5) 0.4950(4) 0.4684(7)
N2F N -0.2229(5) 0.4528(4) 0.7822(7)
N3F N -0.3597(5) 0.5075(4) 0.7144(8)
N4F N -0.1794(4) 0.5478(4) 0.6003(7)
N5A N 0.0819(5) 0.2978(4) 0.3157(8)
N6A N -0.0323(6) 0.1954(5) 0.1119(14)
N7F N -0.3759(8) 0.1944(6) 0.1320(12)
N8F N -0.2264(4) 0.2186(3) 0.2484(6)
C1F C -0.2393(5) 0.3392(4) 0.5390(7)
C2F C -0.2450(5) 0.3868(4) 0.5671(8)
C3F C -0.2685(5) 0.4190(4) 0.5077(8)
H1F H -0.2793 0.4114 0.4474
C4F C -0.2759(5) 0.4632(4) 0.5391(8)
C5F C -0.2601(5) 0.4769(4) 0.6266(8)
C6F C -0.2382(5) 0.4438(4) 0.6845(7)
C7F C -0.2300(5) 0.4001(4) 0.6553(8)
H2F H -0.2140 0.3794 0.6965
C8F C -0.2688(5) 0.5249(4) 0.6582(9)
C9F C -0.3131(5) 0.5385(4) 0.6998(7)
C10F C -0.3198(5) 0.5816(4) 0.7318(7)
H3F H -0.3519 0.5898 0.7580
C11F C -0.2778(5) 0.6128(4) 0.7244(8)
C12F C -0.2316(5) 0.6011(4) 0.6807(7)
H4F H -0.2040 0.6219 0.6727
C13F C -0.2276(5) 0.5581(4) 0.6494(8)
C14F C -0.2816(5) 0.6590(4) 0.7663(8)
C15A C 0.1483(5) 0.2431(4) 0.0237(7)
C16A C 0.1044(5) 0.2462(4) 0.0919(8)
C17A C 0.1126(5) 0.2698(4) 0.1716(8)
H5A H 0.1451 0.2854 0.1857
C18A C 0.0704(5) 0.2699(4) 0.2316(8)
C19A C 0.0225(6) 0.2475(4) 0.2164(10)
C20A C 0.0149(5) 0.2238(5) 0.1347(11)
C21A C 0.0556(5) 0.2235(4) 0.0713(9)
H6A H 0.0498 0.2082 0.0161
C22F C -0.3569(7) 0.2009(6) 0.2180(12)
H7F H -0.3536 0.1756 0.2554
C23F C -0.405(5) 0.2348(16) 0.079(3)
H8F H -0.3955 0.2624 0.1099
H9F H -0.4440 0.2307 0.0759
H10F H -0.3931 0.2360 0.0176
C24F C -0.3895(11) 0.1489(8) 0.102(2)
H11F H -0.3805 0.1283 0.1509
H12F H -0.3690 0.1414 0.0504
H13F H -0.4280 0.1471 0.0839
C25F C -0.2362(6) 0.2280(4) 0.1583(10)
H14F H -0.2573 0.2533 0.1433
C26F C -0.2183(6) 0.2041(6) 0.0881(9)
H15F H -0.2272 0.2126 0.0276
C27F C -0.1860(6) 0.1663(5) 0.1090(10)
C28F C -0.1744(5) 0.1556(4) 0.1991(8)
H16F H -0.1530 0.1307 0.2156
C29F C -0.1951(5) 0.1824(4) 0.2654(8)
H17F H -0.1866 0.1747 0.3264
C30F C -0.1620(6) 0.1408(6) 0.0344(11)
H18F H -0.1395 0.1164 0.0502
O24? O 0.4772(11) 0.2703(9) 0.1961(8)
N12? N 0.4553(11) 0.3277(4) 0.2504(13)
C49? C 0.5000(12) 0.2962(10) 0.2500(11)
C50? C 0.4354(14) 0.3379(13) 0.1543(10)
C51? C 0.4762(13) 0.3557(12) 0.3282(8)
loop_
_geom_bond_atom_site_label_1
_geom_bond_atom_site_label_2
_geom_bond_site_symmetry_1
_geom_bond_site_symmetry_2
Gd1 O1 1_555 1_555
O1 C1 1_555 1_555
O2 C1 1_555 1_555
O3 C14 1_555 1_555
O4 C14 1_555 1_555
O5 N1 1_555 1_555
O6 N1 1_555 1_555
O7 N2 1_555 1_555
O8 N2 1_555 1_555
O9 N3 1_555 1_555
O10 N3 1_555 1_555
O11 N4 1_555 1_555
O12 N4 1_555 1_555
O13 Gd1 1_555 1_555
O14 Gd1 1_555 1_555
O15 N5 1_555 1_555
O16 N5 1_555 1_555
O17 N6 1_555 1_555
O18 N6 1_555 1_555
O19 Gd1 1_555 1_555
O20 C30 1_555 1_555
O21 C36 1_555 1_555
O22 C42 1_555 1_555
O23 C48 1_555 1_555
N1 C4 1_555 1_555
N2 C6 1_555 1_555
N3 C9 1_555 1_555
N4 C13 1_555 1_555
N5 C18 1_555 1_555
N6 C20 1_555 1_555
N7 C22 1_555 1_555
N8 Gd1 1_555 1_555
N9 C31 1_555 1_555
N10 C37 1_555 1_555
N11 C43 1_555 1_555
C1 C2 1_555 1_555
C2 C3 1_555 1_555
C3 H1 1_555 1_555
C4 C3 1_555 1_555
C5 C4 1_555 1_555
C6 C5 1_555 1_555
C7 C2 1_555 1_555
H2 C7 1_555 1_555
C8 C5 1_555 1_555
C9 C8 1_555 1_555
C10 C9 1_555 1_555
H3 C10 1_555 1_555
C11 C10 1_555 1_555
C12 C11 1_555 1_555
H4 C12 1_555 1_555
C13 C8 1_555 1_555
C14 C11 1_555 1_555
C15 O13 1_555 1_555
C16 C15 1_555 1_555
C17 C16 1_555 1_555
H5 C17 1_555 1_555
C18 C17 1_555 1_555
C19 C18 1_555 1_555
C20 C19 1_555 1_555
C21 C16 1_555 1_555
H6 C21 1_555 1_555
C22 O19 1_555 1_555
H7 C22 1_555 1_555
C23 N7 1_555 1_555
H8 C23 1_555 1_555
H9 C23 1_555 1_555
H10 C23 1_555 1_555
C24 N7 1_555 1_555
H11 C24 1_555 1_555
H12 C24 1_555 1_555
H13 C24 1_555 1_555
C25 N8 1_555 1_555
H14 C25 1_555 1_555
C26 C25 1_555 1_555
H15 C26 1_555 1_555
C27 C26 1_555 1_555
C28 C27 1_555 1_555
H16 C28 1_555 1_555
C29 N8 1_555 1_555
H17 C29 1_555 1_555
C30 C27 1_555 1_555
H18 C30 1_555 1_555
C31 H19 1_555 1_555
C32 C31 1_555 1_555
H20 C32 1_555 1_555
C33 C32 1_555 1_555
C34 C33 1_555 1_555
H21 C34 1_555 1_555
C35 N9 1_555 1_555
H22 C35 1_555 1_555
C36 C33 1_555 1_555
H23 C36 1_555 1_555
C37 H24 1_555 1_555
C38 C37 1_555 1_555
H25 C38 1_555 1_555
C39 C38 1_555 1_555
C40 C39 1_555 1_555
H26 C40 1_555 1_555
C41 N10 1_555 1_555
H27 C41 1_555 1_555
C42 C39 1_555 1_555
H28 C42 1_555 1_555
C43 H29 1_555 1_555
C44 C43 1_555 1_555
H30 C44 1_555 1_555
C45 C44 1_555 1_555
C46 C45 1_555 1_555
H31 C46 1_555 1_555
C47 N11 1_555 1_555
H32 C47 1_555 1_555
C48 C45 1_555 1_555
H33 C48 1_555 1_555
Gd1F O2 1_555 1_555
Gd1E O3 1_555 1_555
Gd1A O13A 1_555 1_555
Gd1G O13A 1_555 1_555
Gd1C O3F 1_555 1_555
O1F Gd1F 1_555 1_555
O2F Gd1 1_555 1_555
O3F C14F 1_555 1_555
O3E Gd1 1_555 1_555
O3C Gd1F 1_555 1_555
O4F Gd1C 1_555 1_555
O4E Gd1 1_555 1_555
O4C Gd1F 1_555 1_555
O5F N1F 1_555 1_555
O6F N1F 1_555 1_555
O7F N2F 1_555 1_555
O8F N2F 1_555 1_555
O9F N3F 1_555 1_555
O10F N3F 1_555 1_555
O11F N4F 1_555 1_555
O12F N4F 1_555 1_555
O13A C15A 1_555 1_555
O13F Gd1 1_555 1_555
O14A Gd1A 1_555 1_555
O14F Gd1F 1_555 1_555
O15A N5A 1_555 1_555
O16A N5A 1_555 1_555
O17A N6A 1_555 1_555
O18A N6A 1_555 1_555
O19F Gd1F 1_555 1_555
O20F C30F 1_555 1_555
N1F C4F 1_555 1_555
N2F C6F 1_555 1_555
N3F C9F 1_555 1_555
N4F C13F 1_555 1_555
N5A C18A 1_555 1_555
N6A C20A 1_555 1_555
N7F C22F 1_555 1_555
N8F Gd1F 1_555 1_555
C1F O1F 1_555 1_555
C2F C1F 1_555 1_555
C3F C2F 1_555 1_555
H1F C3F 1_555 1_555
C4F C3F 1_555 1_555
C5F C4F 1_555 1_555
C6F C5F 1_555 1_555
C7F C2F 1_555 1_555
H2F C7F 1_555 1_555
C8F C5F 1_555 1_555
C9F C8F 1_555 1_555
C10F C9F 1_555 1_555
H3F C10F 1_555 1_555
C11F C10F 1_555 1_555
C12F C11F 1_555 1_555
H4F C12F 1_555 1_555
C13F C8F 1_555 1_555
C14F O4F 1_555 1_555
C15A O14A 1_555 1_555
C16A C15A 1_555 1_555
C17A C16A 1_555 1_555
H5A C17A 1_555 1_555
C18A C17A 1_555 1_555
C19A C19 1_555 1_555
C20A C19A 1_555 1_555
C21A C16A 1_555 1_555
H6A C21A 1_555 1_555
C22F O19F 1_555 1_555
H7F C22F 1_555 1_555
C23F N7F 1_555 1_555
H8F C23F 1_555 1_555
H9F C23F 1_555 1_555
H10F C23F 1_555 1_555
C24F N7F 1_555 1_555
H11F C24F 1_555 1_555
H12F C24F 1_555 1_555
H13F C24F 1_555 1_555
C25F N8F 1_555 1_555
H14F C25F 1_555 1_555
C26F C25F 1_555 1_555
H15F C26F 1_555 1_555
C27F C26F 1_555 1_555
C28F C27F 1_555 1_555
H16F C28F 1_555 1_555
C29F N8F 1_555 1_555
H17F C29F 1_555 1_555
C30F C27F 1_555 1_555
H18F C30F 1_555 1_555
O4 Gd1E 1_555 1_555
O13 Gd1F 1_555 1_555
O14 C15 1_555 1_555
C6 C7 1_555 1_555
C12 C13 1_555 1_555
C20 C21 1_555 1_555
C28 C29 1_555 1_555
C34 C35 1_555 1_555
C40 C41 1_555 1_555
C46 C47 1_555 1_555
Gd1F O13F 1_555 1_555
O2F C1F 1_555 1_555
C6F C7F 1_555 1_555
C11F C14F 1_555 1_555
C12F C13F 1_555 1_555
C18A C19A 1_555 1_555
C20A C21A 1_555 1_555
C28F C29F 1_555 1_555

#END
