
#######################################################################
#
#                 Cambridge Crystallographic Data Centre
#                                CCDC 
#
#######################################################################
#
# If this CIF has been generated from an entry in the Cambridge 
# Structural Database, then it will include bibliographic, chemical, 
# crystal, experimental, refinement or atomic coordinate data resulting 
# from the CCDC's data processing and validation procedures.
#
#######################################################################

data_XEGLOL
_symmetry_cell_setting           monoclinic
_symmetry_space_group_name_H-M   'P 21/c'
_symmetry_Int_Tables_number      14
_space_group_name_Hall           '-P 2ybc'
loop_
_symmetry_equiv_pos_site_id
_symmetry_equiv_pos_as_xyz
1 x,y,z
2 -x,1/2+y,1/2-z
3 -x,-y,-z
4 x,1/2-y,1/2+z
_cell_length_a                   7.4052(5)
_cell_length_b                   15.1376(12)
_cell_length_c                   12.5619(8)
_cell_angle_alpha                90.00
_cell_angle_beta                 104.043(7)
_cell_angle_gamma                90.00
_cell_volume                     1366.07
loop_
_atom_site_label
_atom_site_type_symbol
_atom_site_fract_x
_atom_site_fract_y
_atom_site_fract_z
Cu1 Cu 0.64458(4) 0.20055(2) 0.29730(3)
N1 N 0.5087(3) 0.30932(15) 0.2297(2)
N2 N 0.3946(3) 0.14200(16) 0.2543(2)
N3 N 0.7289(4) 0.08978(16) 0.3805(2)
N4 N 0.8826(3) 0.26344(15) 0.3523(2)
N5 N 1.0976(3) 0.36485(14) 0.47385(19)
N6 N 1.2921(3) 0.64463(14) 0.38263(18)
N7 N 1.4717(4) 0.74152(16) 0.5307(2)
O1 O 1.3516(3) 0.52001(13) 0.60507(16)
O2 O 1.0548(3) 0.48478(13) 0.24469(16)
C1 C 0.3118(4) 0.28765(18) 0.1778(3)
H1 H 0.2991 0.2713 0.1017
H2 H 0.2338 0.3388 0.1798
C2 C 0.2511(4) 0.21198(19) 0.2392(2)
H3 H 0.2368 0.2321 0.3100
H4 H 0.1323 0.1891 0.1980
C3 C 0.3911(4) 0.07586(19) 0.3386(2)
H5 H 0.2872 0.0358 0.3137
H6 H 0.3778 0.1043 0.4055
C4 C 0.5731(4) 0.02592(18) 0.3593(2)
H7 H 0.5844 -0.0129 0.4220
H8 H 0.5766 -0.0100 0.2959
C5 C 0.9828(4) 0.31502(16) 0.4045(2)
C6 C 1.1526(3) 0.44258(17) 0.4432(2)
C7 C 1.2680(4) 0.51101(17) 0.5081(2)
C8 C 1.2415(4) 0.56446(17) 0.4078(2)
C9 C 1.1323(4) 0.49497(17) 0.3436(2)
C10 C 1.3890(4) 0.69209(17) 0.4662(2)
H11 H 0.381(4) 0.117(2) 0.199(3)
H12 H 0.816(5) 0.068(2) 0.365(3)
H13 H 0.761(4) 0.104(2) 0.447(3)
H14 H 0.566(6) 0.333(3) 0.178(4)
H15 H 0.522(5) 0.343(2) 0.284(3)
Cu1A Cu 1.35542(4) 0.70055(2) 0.20270(3)
Cu1B Cu 1.35542(4) 0.79945(2) 0.70270(3)
N6A N 0.7079(3) 0.14463(14) 0.11737(18)
N7B N 0.5283(4) 0.25848(16) 0.4693(2)
O3 O 0.8221(3) 0.36856(18) 0.11913(18)
H9 H 0.900(7) 0.406(3) 0.166(4)
H10 H 0.845(6) 0.323(3) 0.140(4)
loop_
_geom_bond_atom_site_label_1
_geom_bond_atom_site_label_2
_geom_bond_site_symmetry_1
_geom_bond_site_symmetry_2
Cu1 N1 1_555 1_555
N1 C1 1_555 1_555
N2 Cu1 1_555 1_555
N3 Cu1 1_555 1_555
N4 Cu1 1_555 1_555
N5 C5 1_555 1_555
N6 C8 1_555 1_555
N7 C10 1_555 1_555
O1 C7 1_555 1_555
O2 C9 1_555 1_555
C1 H1 1_555 1_555
H2 C1 1_555 1_555
C2 N2 1_555 1_555
H3 C2 1_555 1_555
H4 C2 1_555 1_555
C3 N2 1_555 1_555
H5 C3 1_555 1_555
H6 C3 1_555 1_555
C4 N3 1_555 1_555
H7 C4 1_555 1_555
H8 C4 1_555 1_555
C5 N4 1_555 1_555
C6 N5 1_555 1_555
C7 C6 1_555 1_555
C8 C7 1_555 1_555
C9 C6 1_555 1_555
C10 N6 1_555 1_555
O3 H9 1_555 1_555
H10 O3 1_555 1_555
H11 N2 1_555 1_555
H12 N3 1_555 1_555
H13 N3 1_555 1_555
H14 N1 1_555 1_555
H15 N1 1_555 1_555
Cu1A N6 1_555 1_555
Cu1B N7 1_555 1_555
N6A Cu1 1_555 1_555
N7B Cu1 1_555 1_555
C1 C2 1_555 1_555
C3 C4 1_555 1_555
C8 C9 1_555 1_555

#END
