
#######################################################################
#
#                 Cambridge Crystallographic Data Centre
#                                CCDC 
#
#######################################################################
#
# If this CIF has been generated from an entry in the Cambridge 
# Structural Database, then it will include bibliographic, chemical, 
# crystal, experimental, refinement or atomic coordinate data resulting 
# from the CCDC's data processing and validation procedures.
#
#######################################################################

data_XEGRAC
_symmetry_cell_setting           monoclinic
_symmetry_space_group_name_H-M   'C 2/m'
_symmetry_Int_Tables_number      12
_space_group_name_Hall           '-C 2y'
loop_
_symmetry_equiv_pos_site_id
_symmetry_equiv_pos_as_xyz
1 x,y,z
2 1/2+x,1/2+y,z
3 -x,y,-z
4 1/2-x,1/2+y,-z
5 -x,-y,-z
6 1/2-x,1/2-y,-z
7 x,-y,z
8 1/2+x,1/2-y,z
_cell_length_a                   12.282(3)
_cell_length_b                   12.407(3)
_cell_length_c                   4.2191(8)
_cell_angle_alpha                90
_cell_angle_beta                 95.55(3)
_cell_angle_gamma                90
_cell_volume                     639.904
loop_
_atom_site_label
_atom_site_type_symbol
_atom_site_fract_x
_atom_site_fract_y
_atom_site_fract_z
Pb1 Pb -0.5000 1.0000 0.5000
Br1 Br -0.67493(13) 1.0000 -0.0508(4)
C1 C -0.4173(11) 0.7290(11) 0.396(5)
H1 H -0.3597 0.7664 0.3195
C2 C -0.4141(10) 0.6196(10) 0.397(4)
H2 H -0.3538 0.5845 0.3290
C3 C -0.5000 0.5590(12) 0.5000
N1 N -0.5000 0.7857(11) 0.5000
C2B C -0.5859(10) 0.6196(10) 0.603(4)
C1B C -0.5827(11) 0.7290(11) 0.604(5)
H1B H -0.6403 0.7664 0.6805
H2B H -0.6462 0.5845 0.6710
C3F C -0.5000 0.4410(12) 0.5000
C2F C -0.4141(10) 0.3804(10) 0.397(4)
C1F C -0.4173(11) 0.2710(11) 0.396(5)
H1F H -0.3597 0.2336 0.3195
N1F N -0.5000 0.2143(11) 0.5000
C1D C -0.5827(11) 0.2710(11) 0.604(5)
H1D H -0.6403 0.2336 0.6805
C2D C -0.5859(10) 0.3804(10) 0.603(4)
H2D H -0.6462 0.4155 0.6710
H2F H -0.3538 0.4155 0.3290
Br1_2 Br -0.67493(13) 1.0000 0.9492(4)
Br1D Br -0.32507(13) 1.0000 0.0508(4)
Br1D_2 Br -0.32507(13) 1.0000 1.0508(4)
N1F_2 N -0.5000 1.2143(11) 0.5000
Pb1_2 Pb -0.5000 1.0000 -0.5000
Pb1_3 Pb -0.5000 0.0000 0.5000
Pb1_4 Pb -0.5000 1.0000 1.5000
loop_
_geom_bond_atom_site_label_1
_geom_bond_atom_site_label_2
_geom_bond_site_symmetry_1
_geom_bond_site_symmetry_2
Pb1 Br1 1_555 1_555
Br1 Pb1_2 1_555 1_555
C1 H1 1_555 1_555
C2 C1 1_555 1_555
H2 C2 1_555 1_555
C3 C2 1_555 1_555
N1 Pb1 1_555 1_555
C2B C3 1_555 1_555
C1B N1 1_555 1_555
H1B C1B 1_555 1_555
H2B C2B 1_555 1_555
C3F C3 1_555 1_555
C2F C3F 1_555 1_555
C1F C2F 1_555 1_555
H1F C1F 1_555 1_555
N1F C1F 1_555 1_555
C1D N1F 1_555 1_555
H1D C1D 1_555 1_555
C2D C3F 1_555 1_555
H2D C2D 1_555 1_555
H2F C2F 1_555 1_555
Br1_2 Pb1 1_555 1_555
Br1D Pb1 1_555 1_555
Br1D_2 Pb1 1_555 1_555
N1F_2 Pb1 1_555 1_555
Pb1_2 Br1D 1_555 1_555
Pb1_3 N1F 1_555 1_555
Pb1_4 Br1_2 1_555 1_555
C1 N1 1_555 1_555
C2B C1B 1_555 1_555
C1D C2D 1_555 1_555
Br1D_2 Pb1_4 1_555 1_555

#END
