
#######################################################################
#
#                 Cambridge Crystallographic Data Centre
#                                CCDC 
#
#######################################################################
#
# If this CIF has been generated from an entry in the Cambridge 
# Structural Database, then it will include bibliographic, chemical, 
# crystal, experimental, refinement or atomic coordinate data resulting 
# from the CCDC's data processing and validation procedures.
#
#######################################################################

data_XEGRAC02
_symmetry_cell_setting           monoclinic
_symmetry_space_group_name_H-M   'C 2/m'
_symmetry_Int_Tables_number      12
_space_group_name_Hall           '-C 2y'
loop_
_symmetry_equiv_pos_site_id
_symmetry_equiv_pos_as_xyz
1 x,y,z
2 -x,y,-z
3 1/2+x,1/2+y,z
4 1/2-x,1/2+y,-z
5 -x,-y,-z
6 x,-y,z
7 1/2-x,1/2-y,-z
8 1/2+x,1/2-y,z
_cell_length_a                   12.245(4)
_cell_length_b                   12.405(4)
_cell_length_c                   4.2184(14)
_cell_angle_alpha                90
_cell_angle_beta                 95.748(5)
_cell_angle_gamma                90
_cell_volume                     637.55
loop_
_atom_site_label
_atom_site_type_symbol
_atom_site_fract_x
_atom_site_fract_y
_atom_site_fract_z
Pb1 Pb 0.0000 0.5000 1.0000
Br1 Br -0.17495(15) 0.5000 0.4492(4)
N1 N 0.0000 0.2869(13) 1.0000
C1 C 0.0809(13) 0.2291(12) 0.898(5)
H1 H 0.1383 0.2667 0.8203
C2 C 0.0870(11) 0.1188(12) 0.897(4)
H2 H 0.1479 0.0841 0.8294
C3 C 0.0000 0.0593(14) 1.0000
Pb1_2 Pb 0.0000 0.5000 0.0000
Pb1_3 Pb 0.0000 -0.5000 1.0000
Pb1_4 Pb 0.0000 0.5000 2.0000
Br1_2 Br -0.17495(15) 0.5000 1.4492(4)
Br1A Br 0.17495(15) 0.5000 0.5508(4)
Br1A_2 Br 0.17495(15) 0.5000 1.5508(4)
N1D N 0.0000 -0.2869(13) 1.0000
N1D_2 N 0.0000 0.7131(13) 1.0000
C1A C -0.0809(13) 0.2291(12) 1.102(5)
C1D C -0.0809(13) -0.2291(12) 1.102(5)
C1E C 0.0809(13) -0.2291(12) 0.898(5)
H1A H -0.1383 0.2667 1.1797
H1E H 0.1383 -0.2667 0.8203
H1D H -0.1383 -0.2667 1.1797
C2A C -0.0870(11) 0.1188(12) 1.103(4)
C2D C -0.0870(11) -0.1188(12) 1.103(4)
C2E C 0.0870(11) -0.1188(12) 0.897(4)
H2A H -0.1479 0.0841 1.1706
H2E H 0.1479 -0.0841 0.8294
H2D H -0.1479 -0.0841 1.1706
C3D C 0.0000 -0.0593(14) 1.0000
loop_
_geom_bond_atom_site_label_1
_geom_bond_atom_site_label_2
_geom_bond_site_symmetry_1
_geom_bond_site_symmetry_2
Pb1 Br1 1_555 1_555
Br1 Pb1_2 1_555 1_555
N1 Pb1 1_555 1_555
C1 N1 1_555 1_555
H1 C1 1_555 1_555
C2 C1 1_555 1_555
H2 C2 1_555 1_555
C3 C2 1_555 1_555
Pb1_2 Br1A 1_555 1_555
Pb1_3 N1D 1_555 1_555
Pb1_4 Br1_2 1_555 1_555
Br1_2 Pb1 1_555 1_555
Br1A Pb1 1_555 1_555
Br1A_2 Pb1 1_555 1_555
N1D C1D 1_555 1_555
N1D_2 Pb1 1_555 1_555
C1A N1 1_555 1_555
C1D H1D 1_555 1_555
C1E N1D 1_555 1_555
H1A C1A 1_555 1_555
H1E C1E 1_555 1_555
C2A C3 1_555 1_555
C2D C1D 1_555 1_555
C2E C1E 1_555 1_555
H2A C2A 1_555 1_555
H2E C2E 1_555 1_555
H2D C2D 1_555 1_555
C3D C3 1_555 1_555
Pb1_4 Br1A_2 1_555 1_555
C1A C2A 1_555 1_555
C2D C3D 1_555 1_555
C2E C3D 1_555 1_555

#END
