
#######################################################################
#
#                 Cambridge Crystallographic Data Centre
#                                CCDC 
#
#######################################################################
#
# If this CIF has been generated from an entry in the Cambridge 
# Structural Database, then it will include bibliographic, chemical, 
# crystal, experimental, refinement or atomic coordinate data resulting 
# from the CCDC's data processing and validation procedures.
#
#######################################################################

data_XEGRUX
_symmetry_cell_setting           monoclinic
_symmetry_space_group_name_H-M   'P 21/n'
_symmetry_Int_Tables_number      14
_space_group_name_Hall           '-P 2yn'
loop_
_symmetry_equiv_pos_site_id
_symmetry_equiv_pos_as_xyz
1 x,y,z
2 1/2-x,1/2+y,1/2-z
3 -x,-y,-z
4 1/2+x,1/2-y,1/2+z
_cell_length_a                   7.6720(3)
_cell_length_b                   11.1502(4)
_cell_length_c                   16.8908(6)
_cell_angle_alpha                90
_cell_angle_beta                 91.267(1)
_cell_angle_gamma                90
_cell_volume                     1444.56
loop_
_atom_site_label
_atom_site_type_symbol
_atom_site_fract_x
_atom_site_fract_y
_atom_site_fract_z
Cd1 Cd 0.01430(3) 0.07784(2) 0.095631(12)
O1 O 0.3057(2) 0.06940(18) 0.09196(10)
O2 O 0.7185(2) 0.0765(2) 0.09467(11)
O3 O 0.7136(3) 0.2363(2) -0.06804(12)
O4 O 0.2921(3) 0.22261(19) -0.07226(11)
O5 O -0.0009(3) 0.1184(2) -0.03967(12)
H1 H 0.074(4) 0.158(3) -0.0461(19)
H2 H -0.098(5) 0.165(3) -0.050(2)
N1 N 0.0223(3) 0.2656(2) 0.15138(14)
N2 N -0.0788(3) 0.2005(2) 0.27650(13)
H3 H -0.1469 0.2269 0.3123
N3 N 0.0131(3) 0.0152(2) 0.22383(13)
C1 C 0.4148(4) 0.1158(3) 0.04688(16)
C2 C 0.6045(4) 0.1198(3) 0.04830(16)
C3 C 0.6009(4) 0.1906(3) -0.02451(16)
C4 C 0.4113(4) 0.1843(3) -0.02589(16)
C5 C 0.0734(5) 0.3572(3) 0.1059(2)
H4 H 0.1065 0.3403 0.0545
C6 C 0.0798(5) 0.4737(4) 0.1307(2)
H5 H 0.1169 0.5346 0.0974
C7 C 0.0292(6) 0.4976(3) 0.2068(2)
H6 H 0.0309 0.5760 0.2256
C8 C -0.0236(5) 0.4064(3) 0.2545(2)
H7 H -0.0587 0.4222 0.3058
C9 C -0.0242(4) 0.2902(3) 0.22574(18)
C10 C -0.0493(4) 0.0792(3) 0.28282(16)
C11 C -0.0904(5) 0.0251(3) 0.35548(18)
H8 H -0.1356 0.0709 0.3962
C12 C -0.0640(6) -0.0929(4) 0.3654(2)
H9 H -0.0931 -0.1295 0.4128
C13 C 0.0058(6) -0.1595(3) 0.3059(2)
H10 H 0.0273 -0.2410 0.3124
C14 C 0.0424(5) -0.1029(3) 0.23718(19)
H11 H 0.0906 -0.1480 0.1968
Cd1_2 Cd 1.01430(3) 0.07784(2) 0.095631(12)
Cd1B Cd -0.01430(3) -0.07784(2) -0.095631(12)
O2_2 O -0.2815(2) 0.0765(2) 0.09467(11)
O5B O 0.0009(3) -0.1184(2) 0.03967(12)
H1B H -0.074(4) -0.158(3) 0.0461(19)
H2B H 0.098(5) -0.165(3) 0.050(2)
loop_
_geom_bond_atom_site_label_1
_geom_bond_atom_site_label_2
_geom_bond_site_symmetry_1
_geom_bond_site_symmetry_2
Cd1 O1 1_555 1_555
O1 C1 1_555 1_555
O2 C2 1_555 1_555
O3 C3 1_555 1_555
O4 C4 1_555 1_555
O5 Cd1 1_555 1_555
H1 O5 1_555 1_555
H2 O5 1_555 1_555
N1 Cd1 1_555 1_555
N2 H3 1_555 1_555
N3 Cd1 1_555 1_555
C1 C2 1_555 1_555
C2 C3 1_555 1_555
C3 C4 1_555 1_555
C4 C1 1_555 1_555
C5 N1 1_555 1_555
H4 C5 1_555 1_555
C6 C5 1_555 1_555
H5 C6 1_555 1_555
C7 C6 1_555 1_555
H6 C7 1_555 1_555
C8 C7 1_555 1_555
H7 C8 1_555 1_555
C9 N1 1_555 1_555
C10 N2 1_555 1_555
C11 C10 1_555 1_555
H8 C11 1_555 1_555
C12 C11 1_555 1_555
H9 C12 1_555 1_555
C13 C12 1_555 1_555
H10 C13 1_555 1_555
C14 N3 1_555 1_555
H11 C14 1_555 1_555
Cd1_2 O2 1_555 1_555
Cd1B O5 1_555 1_555
O2_2 Cd1 1_555 1_555
O5B Cd1 1_555 1_555
H1B O5B 1_555 1_555
H2B O5B 1_555 1_555
N2 C9 1_555 1_555
N3 C10 1_555 1_555
C8 C9 1_555 1_555
C13 C14 1_555 1_555
Cd1B O5B 1_555 1_555

#END
