
#######################################################################
#
#                 Cambridge Crystallographic Data Centre
#                                CCDC 
#
#######################################################################
#
# If this CIF has been generated from an entry in the Cambridge 
# Structural Database, then it will include bibliographic, chemical, 
# crystal, experimental, refinement or atomic coordinate data resulting 
# from the CCDC's data processing and validation procedures.
#
#######################################################################

data_XEGSAE
_symmetry_cell_setting           triclinic
_symmetry_space_group_name_H-M   'P -1'
_symmetry_Int_Tables_number      2
_space_group_name_Hall           '-P 1'
loop_
_symmetry_equiv_pos_site_id
_symmetry_equiv_pos_as_xyz
1 x,y,z
2 -x,-y,-z
_cell_length_a                   12.5115(11)
_cell_length_b                   14.6376(12)
_cell_length_c                   24.260(2)
_cell_angle_alpha                89.413(2)
_cell_angle_beta                 80.832(2)
_cell_angle_gamma                87.561(2)
_cell_volume                     4382.18
loop_
_atom_site_label
_atom_site_type_symbol
_atom_site_fract_x
_atom_site_fract_y
_atom_site_fract_z
Ag1 Ag 0.27766(5) 0.50862(4) 0.21609(2)
C1 C 0.3922(5) 0.6504(4) 0.3346(3)
C2 C 0.3734(4) 0.6769(4) 0.3903(3)
H1 H 0.3685 0.7389 0.3987
C3 C 0.3617(5) 0.6137(4) 0.4341(3)
C4 C 0.3610(5) 0.5227(4) 0.4203(2)
H2 H 0.3486 0.4796 0.4488
C5 C 0.3780(4) 0.4933(4) 0.3657(3)
C6 C 0.4005(4) 0.5593(4) 0.3233(2)
C7 C 0.3418(5) 0.6430(4) 0.4934(3)
C8 C 0.2848(6) 0.7249(4) 0.5116(3)
H3 H 0.2593 0.7647 0.4861
C9 C 0.2672(7) 0.7455(5) 0.5677(3)
H4 H 0.2300 0.8000 0.5794
C10 C 0.3022(7) 0.6891(6) 0.6066(3)
H5 H 0.2882 0.7045 0.6443
C11 C 0.3575(6) 0.6104(5) 0.5900(3)
H6 H 0.3829 0.5717 0.6161
C12 C 0.3761(5) 0.5873(5) 0.5345(3)
H7 H 0.4132 0.5322 0.5239
C13 C 0.3621(5) 0.3926(4) 0.3543(2)
H8 H 0.4015 0.3541 0.3777
H9 H 0.3903 0.3786 0.3156
C14 C 0.2406(5) 0.3729(4) 0.3666(2)
C15 C 0.1928(5) 0.3608(4) 0.4203(2)
H10 H 0.2357 0.3547 0.4482
C16 C 0.0786(5) 0.3573(4) 0.4347(2)
C17 C 0.0152(5) 0.3750(3) 0.3929(2)
H11 H -0.0597 0.3819 0.4024
C18 C 0.0624(5) 0.3824(4) 0.3375(2)
C19 C 0.1770(5) 0.3789(4) 0.3245(2)
C20 C 0.0302(5) 0.3398(4) 0.4936(2)
C21 C 0.0753(5) 0.2713(4) 0.5238(3)
H12 H 0.1346 0.2358 0.5068
C22 C 0.0320(5) 0.2557(4) 0.5793(3)
H13 H 0.0611 0.2085 0.5990
C23 C -0.0530(5) 0.3093(5) 0.6052(3)
H14 H -0.0797 0.2994 0.6427
C24 C -0.0987(5) 0.3760(5) 0.5772(3)
H15 H -0.1574 0.4111 0.5952
C25 C -0.0574(5) 0.3930(4) 0.5201(3)
H16 H -0.0888 0.4393 0.5007
C26 C -0.0087(5) 0.3999(4) 0.2928(3)
H17 H -0.0738 0.3656 0.3020
H18 H 0.0298 0.3777 0.2573
C27 C -0.0409(5) 0.5007(4) 0.2868(2)
C28 C -0.1231(5) 0.5396(4) 0.3247(3)
H19 H -0.1587 0.5027 0.3526
C29 C -0.1563(5) 0.6337(4) 0.3233(2)
C30 C -0.0934(5) 0.6854(4) 0.2833(2)
H20 H -0.1093 0.7480 0.2825
C31 C -0.0079(5) 0.6501(4) 0.2442(2)
C32 C 0.0108(5) 0.5566(4) 0.2450(3)
C33 C -0.2469(5) 0.6746(5) 0.3638(3)
C34 C -0.2808(5) 0.6377(5) 0.4159(3)
H21 H -0.2478 0.5831 0.4258
C35 C -0.3587(5) 0.6773(5) 0.4525(3)
H22 H -0.3797 0.6487 0.4867
C36 C -0.4090(5) 0.7589(5) 0.4415(3)
H23 H -0.4619 0.7872 0.4679
C37 C -0.3770(6) 0.7976(5) 0.3886(3)
H24 H -0.4106 0.8521 0.3792
C38 C -0.2977(5) 0.7570(5) 0.3507(3)
H25 H -0.2774 0.7842 0.3160
C39 C 0.0589(5) 0.7148(4) 0.2056(2)
H26 H 0.0116 0.7591 0.1903
H27 H 0.1011 0.6810 0.1748
C40 C 0.1344(5) 0.7641(4) 0.2376(2)
C41 C 0.0945(5) 0.8420(4) 0.2694(2)
H28 H 0.0261 0.8665 0.2659
C42 C 0.1511(5) 0.8829(4) 0.3051(3)
C43 C 0.2546(5) 0.8435(4) 0.3113(3)
H29 H 0.2927 0.8677 0.3373
C44 C 0.2995(5) 0.7686(4) 0.2789(2)
C45 C 0.2398(5) 0.7352(4) 0.2407(2)
C46 C 0.1084(5) 0.9695(4) 0.3361(2)
C47 C -0.0007(6) 0.9803(5) 0.3553(3)
H30 H -0.0461 0.9341 0.3490
C48 C -0.0453(6) 1.0581(5) 0.3839(3)
H31 H -0.1193 1.0642 0.3970
C49 C 0.0225(7) 1.1255(5) 0.3923(3)
H32 H -0.0052 1.1783 0.4114
C50 C 0.1345(8) 1.1156(5) 0.3721(3)
H33 H 0.1803 1.1620 0.3775
C51 C 0.1744(6) 1.0398(4) 0.3454(3)
H34 H 0.2485 1.0336 0.3326
C52 C 0.4058(5) 0.7241(4) 0.2897(3)
H35 H 0.4507 0.7709 0.3007
H36 H 0.4434 0.6973 0.2552
C53 C 0.0476(10) 0.5093(8) 0.1487(5)
H37 H -0.0203 0.5446 0.1509
H38 H 0.0991 0.5368 0.1198
C54 C 0.0304(15) 0.4178(10) 0.1316(6)
H39 H -0.0285 0.3918 0.1569
H40 H 0.0953 0.3794 0.1321
C55 C 0.0028(9) 0.4231(10) 0.0727(3)
H41 H -0.0104 0.3630 0.0606
H42 H 0.0623 0.4476 0.0478
H43 H -0.0608 0.4621 0.0725
C56 C 0.5459(8) 0.5290(7) 0.2460(4)
H44 H 0.5539 0.5544 0.2086
H45 H 0.5795 0.5700 0.2686
C57 C 0.6052(9) 0.4426(9) 0.2434(7)
H46 H 0.5719 0.3990 0.2223
H47 H 0.6056 0.4182 0.2808
C58 C 0.7216(6) 0.4591(8) 0.2148(4)
H48 H 0.7659 0.4043 0.2167
H49 H 0.7505 0.5077 0.2334
H50 H 0.7212 0.4755 0.1764
C59 C 0.3562(6) 0.6977(5) 0.1551(3)
H51 H 0.4287 0.7042 0.1634
H52 H 0.3293 0.7568 0.1435
C60 C 0.3579(7) 0.6274(5) 0.1086(3)
H53 H 0.2862 0.6249 0.0984
H54 H 0.4075 0.6458 0.0758
C61 C 0.3945(7) 0.4714(5) 0.0879(3)
H55 H 0.4534 0.4803 0.0574
H56 H 0.3274 0.4721 0.0727
C62 C 0.4113(6) 0.3818(5) 0.1153(3)
H57 H 0.4206 0.3336 0.0876
H58 H 0.4763 0.3822 0.1323
C63 C 0.3414(7) 0.2987(5) 0.1959(3)
H59 H 0.4056 0.3141 0.2109
H60 H 0.3562 0.2401 0.1774
C64 C 0.2505(6) 0.2902(4) 0.2424(3)
H61 H 0.2700 0.2461 0.2696
H62 H 0.1872 0.2694 0.2285
O1 O 0.0887(4) 0.5182(3) 0.20405(17)
O2 O 0.2861(3) 0.6657(3) 0.20381(16)
O3 O 0.3904(4) 0.5415(3) 0.12612(18)
O4 O 0.3209(4) 0.3649(3) 0.15658(19)
O5 O 0.2264(3) 0.3820(3) 0.26877(16)
O6 O 0.4283(3) 0.5289(3) 0.26857(17)
Ag2 Ag 0.45118(5) 1.17322(4) 0.98916(3)
Ag3 Ag 0.62770(5) 1.01015(4) 1.01520(3)
Ag4 Ag 0.82763(5) 1.05004(5) 1.08882(3)
Ag5 Ag 0.92751(7) 0.84672(5) 0.98905(3)
Ag6 Ag 0.20816(6) 1.20791(7) 1.08875(3)
C65 C 0.6562(6) 1.2184(5) 1.0419(3)
C66 C 0.7130(8) 1.2882(6) 1.0730(8)
C67 C 0.3997(6) 1.0453(6) 1.0995(3)
C68 C 0.3891(11) 1.0241(8) 1.1614(4)
C69 C 0.3343(6) 1.1303(5) 0.8900(3)
C70 C 0.3066(8) 1.1506(6) 0.8336(4)
C71 C 0.8750(6) 1.0472(6) 0.9583(3)
C72 C 0.8923(10) 1.0990(8) 0.9037(5)
C73 C 0.2313(6) 1.3057(5) 0.9780(3)
C74 C 0.2720(7) 1.3860(5) 0.9411(5)
C75 C 1.0021(6) 1.1536(5) 1.1533(3)
C76 C 0.8960(14) 1.1499(10) 1.2043(4)
F1 F 0.7875(7) 1.2692(5) 1.0916(4)
F2 F 0.6799(6) 1.3653(4) 1.0740(4)
F3 F 0.7972(7) 1.3197(7) 1.0180(5)
F4 F 0.3884(9) 0.9405(4) 1.1761(3)
F5 F 0.3094(7) 1.0654(5) 1.1915(2)
F6 F 0.4782(9) 1.0565(8) 1.1788(3)
F7 F 0.3618(6) 1.1975(7) 0.8003(3)
F8 F 0.2090(7) 1.1836(9) 0.8357(3)
F9 F 0.2945(9) 1.0808(6) 0.8049(3)
F10 F 0.8749(11) 1.0598(10) 0.8615(3)
F11 F 0.9906(7) 1.1175(7) 0.8890(4)
F12 F 0.8406(8) 1.1709(6) 0.9047(4)
F13 F 0.2482(7) 1.3894(5) 0.8930(3)
F14 F 0.3746(5) 1.3936(4) 0.9360(3)
F15 F 0.2343(6) 1.4634(4) 0.9646(3)
F16 F 0.8452(7) 1.0912(7) 1.2011(3)
F17 F 0.9579(10) 1.1098(13) 1.2390(4)
F18 F 0.8930(8) 1.2077(7) 1.2331(4)
O7 O 0.6750(4) 1.1415(4) 1.0560(2)
O8 O 0.5877(4) 1.2498(3) 1.0140(2)
O9 O 0.3815(4) 1.1260(3) 1.0878(2)
O10 O 0.4252(4) 0.9811(4) 1.0699(2)
O11 O 0.3955(4) 1.1836(3) 0.9038(2)
O12 O 0.2952(5) 1.0641(4) 0.9131(2)
O13 O 0.8201(5) 0.9815(4) 0.9594(2)
O14 O 0.9190(5) 1.0783(5) 0.9961(3)
O15 O 0.1492(4) 1.2712(3) 0.9658(2)
O16 O 0.2815(4) 1.2885(4) 1.0166(2)
O17 O 0.9753(4) 1.1254(4) 1.1095(2)
O18 O 1.0798(5) 1.1945(5) 1.1602(2)
Ag2A Ag 0.54882(5) 0.82678(4) 1.01084(3)
Ag3A Ag 0.37230(5) 0.98985(4) 0.98480(3)
Ag4A Ag 0.17237(5) 0.94996(5) 0.91118(3)
Ag5A Ag 0.07249(7) 1.15328(5) 1.01095(3)
Ag5A_2 Ag 1.07249(7) 1.15328(5) 1.01095(3)
Ag6A Ag 0.79184(6) 0.79209(7) 0.91125(3)
Ag6_2 Ag 1.20816(6) 1.20791(7) 1.08875(3)
O10A O 0.5748(4) 1.0189(4) 0.9301(2)
O12A O 0.7048(5) 0.9359(4) 1.0869(2)
O14A O 1.0810(5) 0.9217(5) 1.0039(3)
O15A O 0.8508(4) 0.7288(3) 1.0342(2)
O17A O 1.0247(4) 0.8746(4) 0.8905(2)
O18_2 O 0.0798(5) 1.1945(5) 1.1602(2)
Ag7 Ag 1.00648(5) 0.90955(5) 0.47266(3)
C77 C 1.2174(5) 0.9927(5) 0.4849(3)
C78 C 1.3389(6) 0.9939(5) 0.4778(3)
F19 F 1.3886(4) 0.9368(4) 0.4395(3)
F20 F 1.3778(4) 1.0722(4) 0.4610(3)
F21 F 1.3733(4) 0.9732(6) 0.5238(3)
O19 O 1.1811(3) 0.9224(3) 0.46935(19)
O20 O 1.1720(4) 1.0618(3) 0.5067(2)
Ag7A Ag 0.99352(5) 1.09045(5) 0.52734(3)
O20A O 0.8280(4) 0.9382(3) 0.4933(2)
C79 C 0.4164(9) 0.9229(7) 0.7094(7)
H63 H 0.3866 0.9277 0.7492
Cl1 Cl 0.5062(4) 1.0065(4) 0.6943(2)
Cl2 Cl 0.4749(6) 0.8191(4) 0.6990(4)
Cl3 Cl 0.3138(4) 0.9382(3) 0.67409(17)
loop_
_geom_bond_atom_site_label_1
_geom_bond_atom_site_label_2
_geom_bond_site_symmetry_1
_geom_bond_site_symmetry_2
Ag1 O1 1_555 1_555
Ag2 O8 1_555 1_555
Ag3 O7 1_555 1_555
Ag4 O7 1_555 1_555
Ag5 O13 1_555 1_555
Ag6 O9 1_555 1_555
Ag7 O19 1_555 1_555
C1 C2 1_555 1_555
C2 H1 1_555 1_555
C3 C2 1_555 1_555
C4 C3 1_555 1_555
H2 C4 1_555 1_555
C5 C4 1_555 1_555
C6 C1 1_555 1_555
C7 C3 1_555 1_555
C8 C7 1_555 1_555
H3 C8 1_555 1_555
C9 C8 1_555 1_555
H4 C9 1_555 1_555
C10 C9 1_555 1_555
H5 C10 1_555 1_555
C11 C10 1_555 1_555
H6 C11 1_555 1_555
C12 C7 1_555 1_555
H7 C12 1_555 1_555
C13 C5 1_555 1_555
H8 C13 1_555 1_555
H9 C13 1_555 1_555
C14 C13 1_555 1_555
C15 C14 1_555 1_555
H10 C15 1_555 1_555
C16 C15 1_555 1_555
C17 C16 1_555 1_555
H11 C17 1_555 1_555
C18 C17 1_555 1_555
C19 C14 1_555 1_555
C20 C16 1_555 1_555
C21 C20 1_555 1_555
H12 C21 1_555 1_555
C22 C21 1_555 1_555
H13 C22 1_555 1_555
C23 C22 1_555 1_555
H14 C23 1_555 1_555
C24 C23 1_555 1_555
H15 C24 1_555 1_555
C25 C20 1_555 1_555
H16 C25 1_555 1_555
C26 C18 1_555 1_555
H17 C26 1_555 1_555
H18 C26 1_555 1_555
C27 C26 1_555 1_555
C28 C27 1_555 1_555
H19 C28 1_555 1_555
C29 C28 1_555 1_555
C30 C29 1_555 1_555
H20 C30 1_555 1_555
C31 C30 1_555 1_555
C32 C27 1_555 1_555
C33 C29 1_555 1_555
C34 C33 1_555 1_555
H21 C34 1_555 1_555
C35 C34 1_555 1_555
H22 C35 1_555 1_555
C36 C35 1_555 1_555
H23 C36 1_555 1_555
C37 C36 1_555 1_555
H24 C37 1_555 1_555
C38 C33 1_555 1_555
H25 C38 1_555 1_555
C39 C31 1_555 1_555
H26 C39 1_555 1_555
H27 C39 1_555 1_555
C40 C39 1_555 1_555
C41 C40 1_555 1_555
H28 C41 1_555 1_555
C42 C41 1_555 1_555
C43 C42 1_555 1_555
H29 C43 1_555 1_555
C44 C43 1_555 1_555
C45 C40 1_555 1_555
C46 C42 1_555 1_555
C47 C46 1_555 1_555
H30 C47 1_555 1_555
C48 C47 1_555 1_555
H31 C48 1_555 1_555
C49 C48 1_555 1_555
H32 C49 1_555 1_555
C50 C49 1_555 1_555
H33 C50 1_555 1_555
C51 C46 1_555 1_555
H34 C51 1_555 1_555
C52 C1 1_555 1_555
H35 C52 1_555 1_555
H36 C52 1_555 1_555
C53 H37 1_555 1_555
H38 C53 1_555 1_555
C54 C53 1_555 1_555
H39 C54 1_555 1_555
H40 C54 1_555 1_555
C55 C54 1_555 1_555
H41 C55 1_555 1_555
H42 C55 1_555 1_555
H43 C55 1_555 1_555
C56 H44 1_555 1_555
H45 C56 1_555 1_555
C57 C56 1_555 1_555
H46 C57 1_555 1_555
H47 C57 1_555 1_555
C58 C57 1_555 1_555
H48 C58 1_555 1_555
H49 C58 1_555 1_555
H50 C58 1_555 1_555
C59 H51 1_555 1_555
H52 C59 1_555 1_555
C60 C59 1_555 1_555
H53 C60 1_555 1_555
H54 C60 1_555 1_555
C61 H55 1_555 1_555
H56 C61 1_555 1_555
C62 C61 1_555 1_555
H57 C62 1_555 1_555
H58 C62 1_555 1_555
C63 H59 1_555 1_555
H60 C63 1_555 1_555
C64 C63 1_555 1_555
H61 C64 1_555 1_555
H62 C64 1_555 1_555
C65 C66 1_555 1_555
C66 F1 1_555 1_555
C67 C68 1_555 1_555
C68 F4 1_555 1_555
C69 C70 1_555 1_555
C70 F7 1_555 1_555
C71 C72 1_555 1_555
C72 F10 1_555 1_555
C73 C74 1_555 1_555
C74 F13 1_555 1_555
C75 C76 1_555 1_555
C76 F16 1_555 1_555
C77 C78 1_555 1_555
C78 F19 1_555 1_555
C79 H63 1_555 1_555
Cl1 C79 1_555 1_555
Cl2 C79 1_555 1_555
Cl3 C79 1_555 1_555
F2 C66 1_555 1_555
F3 C66 1_555 1_555
F5 C68 1_555 1_555
F6 C68 1_555 1_555
F8 C70 1_555 1_555
F9 C70 1_555 1_555
F11 C72 1_555 1_555
F12 C72 1_555 1_555
F14 C74 1_555 1_555
F15 C74 1_555 1_555
F17 C76 1_555 1_555
F18 C76 1_555 1_555
F20 C78 1_555 1_555
F21 C78 1_555 1_555
O1 C32 1_555 1_555
O2 Ag1 1_555 1_555
O3 Ag1 1_555 1_555
O4 Ag1 1_555 1_555
O5 Ag1 1_555 1_555
O6 Ag1 1_555 1_555
O7 C65 1_555 1_555
O8 C65 1_555 1_555
O9 Ag2 1_555 1_555
O10 C67 1_555 1_555
O11 Ag2 1_555 1_555
O12 C69 1_555 1_555
O13 C71 1_555 1_555
O14 Ag4 1_555 1_555
O15 C73 1_555 1_555
O16 Ag6 1_555 1_555
O17 Ag4 1_555 1_555
O18 C75 1_555 1_555
O19 C77 1_555 1_555
O20 C77 1_555 1_555
Ag2A Ag3 1_555 1_555
Ag3A Ag2 1_555 1_555
Ag4A O12 1_555 1_555
Ag5A Ag6 1_555 1_555
Ag5A_2 O14 1_555 1_555
Ag6A Ag5 1_555 1_555
Ag6_2 O18 1_555 1_555
Ag7A O20 1_555 1_555
O10A Ag3 1_555 1_555
O12A Ag3 1_555 1_555
O14A Ag5 1_555 1_555
O15A Ag5 1_555 1_555
O17A Ag5 1_555 1_555
O18_2 Ag6 1_555 1_555
O20A Ag7 1_555 1_555
Ag4 O12A 1_555 1_555
C5 C6 1_555 1_555
C6 O6 1_555 1_555
C11 C12 1_555 1_555
C18 C19 1_555 1_555
C19 O5 1_555 1_555
C24 C25 1_555 1_555
C31 C32 1_555 1_555
C37 C38 1_555 1_555
C44 C45 1_555 1_555
C44 C52 1_555 1_555
C45 O2 1_555 1_555
C50 C51 1_555 1_555
C53 O1 1_555 1_555
C56 O6 1_555 1_555
C59 O2 1_555 1_555
C60 O3 1_555 1_555
C61 O3 1_555 1_555
C62 O4 1_555 1_555
C63 O4 1_555 1_555
C64 O5 1_555 1_555
C67 O9 1_555 1_555
C69 O11 1_555 1_555
C71 O14 1_555 1_555
C73 O16 1_555 1_555
C75 O17 1_555 1_555
O10 Ag3A 1_555 1_555
O12 Ag3A 1_555 1_555
O15 Ag5A 1_555 1_555
O17 Ag5A_2 1_555 1_555
Ag5A_2 Ag6_2 1_555 1_555

#END
