
#######################################################################
#
#                 Cambridge Crystallographic Data Centre
#                                CCDC 
#
#######################################################################
#
# If this CIF has been generated from an entry in the Cambridge 
# Structural Database, then it will include bibliographic, chemical, 
# crystal, experimental, refinement or atomic coordinate data resulting 
# from the CCDC's data processing and validation procedures.
#
#######################################################################

data_XEGXUE
_symmetry_cell_setting           trigonal
_symmetry_space_group_name_H-M   'P 31 2 1'
_symmetry_Int_Tables_number      152
_space_group_name_Hall           'P 31 2"'
loop_
_symmetry_equiv_pos_site_id
_symmetry_equiv_pos_as_xyz
1 x,y,z
2 -y,x-y,1/3+z
3 -x+y,-x,2/3+z
4 x-y,-y,2/3-z
5 -x,-x+y,1/3-z
6 y,x,-z
_cell_length_a                   19.3608(3)
_cell_length_b                   19.3608(3)
_cell_length_c                   36.6284(13)
_cell_angle_alpha                90
_cell_angle_beta                 90
_cell_angle_gamma                120
_cell_volume                     11890.4
loop_
_atom_site_label
_atom_site_type_symbol
_atom_site_fract_x
_atom_site_fract_y
_atom_site_fract_z
Cl1 Cl 0.22085(18) 0.78723(17) 0.92721(8)
C2 C 0.7297(10) 0.9200(9) 0.9445(3)
H1 H 0.7390 0.9649 0.9610
C3 C 0.6254(8) 0.9273(7) 0.9124(3)
C4 C 0.5827(6) 0.9162(5) 0.8759(3)
C5 C 0.5172(7) 0.9197(6) 0.8669(3)
C6 C 0.5648(6) 0.8875(6) 0.8206(2)
C7 C 0.4587(10) 0.9340(10) 0.8861(4)
H2 H 0.4055 0.8870 0.8836
H3 H 0.4588 0.9804 0.8753
H4 H 0.4729 0.9441 0.9120
C8 C 0.5629(6) 0.8577(5) 0.7808(2)
H5 H 0.5660 0.8993 0.7637
C9 C 0.6724(6) 0.8630(5) 0.7459(2)
C10 C 0.7500(6) 0.8630(5) 0.7486(2)
C11 C 0.7966(6) 0.8618(6) 0.7220(2)
C12 C 0.8479(6) 0.8656(6) 0.7751(3)
C13 C 0.7908(7) 0.8582(7) 0.6807(3)
H6 H 0.7754 0.8042 0.6725
H7 H 0.8426 0.8964 0.6702
H8 H 0.7505 0.8716 0.6728
C14 C 0.9093(7) 0.8691(7) 0.8003(4)
H9 H 0.9598 0.9193 0.7942
C15 C 0.9349(9) 0.9121(8) 0.8654(4)
C16 C 0.8966(8) 0.9243(7) 0.8977(3)
C17 C 0.9250(10) 0.9461(7) 0.9325(4)
C18 C 0.8058(7) 0.9263(8) 0.9285(3)
C19 C 1.0012(12) 0.9670(10) 0.9496(4)
H10 H 1.0315 0.9514 0.9335
H11 H 0.9915 0.9390 0.9729
H12 H 1.0317 1.0247 0.9538
C20 C 0.6990(15) 0.8385(11) 0.9640(6)
H13 H 0.6941 0.7990 0.9455
H14 H 0.7403 0.8442 0.9817
C21 C 0.6203(16) 0.8042(11) 0.9842(6)
H15 H 0.5769 0.7935 0.9667
H16 H 0.6229 0.8430 1.0025
N1 N 0.3481(7) 0.6225(8) 1.05183(18)
C22 C 0.3887(9) 0.6987(8) 1.03699(17)
H17 H 0.3639 0.7304 1.0360
C23 C 0.4656(8) 0.7286(5) 1.02355(16)
H18 H 0.4934 0.7807 1.0134
C24 C 0.5019(6) 0.6822(8) 1.02495(19)
C25 C 0.4613(9) 0.6060(8) 1.0398(2)
H19 H 0.4861 0.5743 1.0408
C26 C 0.3844(9) 0.5761(6) 1.05323(18)
H20 H 0.3566 0.5240 1.0634
C27 C 0.4867(6) 0.7789(6) 0.77198(17)
H21 H 0.4399 0.7865 0.7739
H22 H 0.4894 0.7628 0.7466
C28 C 0.4767(7) 0.7131(6) 0.7984(3)
H23 H 0.4749 0.7301 0.8237
H24 H 0.5238 0.7061 0.7963
C29 C 0.3142(7) 0.6224(7) 0.8163(2)
C30 C 0.2437(7) 0.5514(7) 0.8223(3)
H25 H 0.2343 0.5043 0.8100
C31 C 0.1875(7) 0.5489(6) 0.8460(2)
H26 H 0.1393 0.5001 0.8499
C32 C 0.2652(6) 0.6848(6) 0.8565(2)
H27 H 0.2714 0.7321 0.8674
C33 C 0.3237(6) 0.6900(6) 0.8333(2)
H28 H 0.3705 0.7399 0.8292
C34 C 0.9443(9) 0.6392(8) 0.8222(5)
C35 C 1.0100(9) 0.7050(8) 0.8401(5)
H29 H 1.0176 0.7570 0.8367
C36 C 1.0619(9) 0.6958(8) 0.8618(5)
H30 H 1.1053 0.7408 0.8731
C37 C 0.9920(9) 0.5607(8) 0.8493(5)
H31 H 0.9856 0.5092 0.8529
C38 C 0.9421(9) 0.5667(8) 0.8268(5)
H32 H 0.9042 0.5211 0.8136
C39 C 0.3005(5) 0.6322(6) 0.9321(3)
C40 C 0.3310(6) 0.5850(7) 0.9151(3)
H33 H 0.2974 0.5291 0.9121
C41 C 0.4089(8) 0.6221(9) 0.9035(4)
H34 H 0.4285 0.5912 0.8922
C42 C 0.4592(7) 0.7025(8) 0.9079(4)
H35 H 0.5124 0.7266 0.8991
C43 C 0.4331(7) 0.7477(7) 0.9248(3)
H36 H 0.4683 0.8031 0.9283
C44 C 0.3541(6) 0.7118(6) 0.9369(3)
H37 H 0.3368 0.7440 0.9489
C45 C 0.1664(6) 0.4825(7) 0.9563(3)
C46 C 0.1136(5) 0.4230(6) 0.9328(2)
H38 H 0.0914 0.4364 0.9127
C47 C 0.0926(7) 0.3425(6) 0.9387(3)
H39 H 0.0558 0.3014 0.9231
C48 C 0.1257(8) 0.3261(7) 0.9667(4)
H40 H 0.1109 0.2719 0.9705
C49 C 0.1797(11) 0.3817(9) 0.9906(5)
H41 H 0.2019 0.3671 1.0102
C50 C 0.2003(9) 0.4611(8) 0.9844(4)
H42 H 0.2386 0.5015 0.9998
C51 C 0.2083(7) 0.6323(7) 0.9927(3)
H43 H 0.2414 0.6186 1.0083
H44 H 0.2370 0.6910 0.9898
C52 C 0.1279(7) 0.6061(8) 1.0124(2)
H45 H 0.0973 0.5471 1.0134
H46 H 0.1393 0.6258 1.0378
C53 C 0.0749(7) 0.6359(7) 0.9943(3)
H47 H 0.1073 0.6943 0.9910
H48 H 0.0308 0.6253 1.0112
C54 C -0.0272(7) 0.6373(7) 0.9404(4)
C55 C 0.0073(10) 0.7201(9) 0.9431(7)
H49 H 0.0599 0.7511 0.9524
C56 C -0.0323(10) 0.7552(9) 0.9329(7)
H50 H -0.0074 0.8117 0.9338
C57 C -0.1158(12) 0.7075(10) 0.9199(6)
H51 H -0.1460 0.7322 0.9138
C58 C -0.1475(9) 0.6277(9) 0.9171(4)
H52 H -0.2006 0.5951 0.9088
C59 C -0.1001(7) 0.5932(7) 0.9269(3)
H53 H -0.1212 0.5375 0.9238
C60 C -0.0373(5) 0.4863(5) 0.9609(2)
C61 C -0.0706(6) 0.4634(7) 0.9955(3)
H54 H -0.0623 0.5026 1.0132
C62 C -0.1154(7) 0.3843(6) 1.0039(3)
H55 H -0.1370 0.3691 1.0277
C63 C -0.1303(6) 0.3240(6) 0.9777(3)
H56 H -0.1608 0.2689 0.9836
C64 C -0.0986(6) 0.3490(5) 0.9432(3)
H57 H -0.1097 0.3104 0.9248
C65 C -0.0514(6) 0.4285(7) 0.9350(3)
H58 H -0.0282 0.4439 0.9114
N2 N 0.6776(6) 0.9094(7) 0.9119(2)
H59 H 0.6851 0.8896 0.8916
N3 N 0.6119(5) 0.8959(5) 0.8456(2)
N4 N 0.6372(5) 0.8554(5) 0.7775(2)
H60 H 0.6588 0.8486 0.7973
N5 N 0.7830(5) 0.8672(4) 0.7820(2)
N6 N 0.8828(6) 0.8833(6) 0.8369(3)
H61 H 0.8334 0.8728 0.8398
N7 N 0.8172(7) 0.9135(5) 0.8974(2)
N8 N 0.2002(4) 0.6154(4) 0.86385(19)
N9 N 1.0506(8) 0.6211(6) 0.8673(4)
O4 O 0.5980(5) 0.9484(6) 0.9394(2)
O5 O 0.5036(4) 0.8995(4) 0.83027(18)
O6 O 0.6470(4) 0.8721(4) 0.71672(16)
O7 O 0.8598(4) 0.8631(4) 0.73785(19)
O8 O 0.9998(7) 0.9238(7) 0.8667(3)
O9 O 0.8660(7) 0.9469(5) 0.9529(2)
P1 P 0.19830(15) 0.58690(15) 0.94764(6)
P2 P 0.03357(15) 0.59109(14) 0.95134(7)
Pd1 Pd 0.12124(4) 0.60610(4) 0.906403(17)
S2 S 0.5998(5) 0.7135(4) 1.00627(18)
S3 S 0.38829(19) 0.61899(19) 0.78999(9)
S4 S 0.8592(4) 0.6409(3) 0.80465(19)
C66 C 0.9256(12) 0.8004(9) 0.7931(7)
H62 H 0.9187 0.7857 0.7669
H63 H 0.9802 0.8148 0.8008
C67 C 0.8644 0.7338(7) 0.8159(6)
H64 H 0.8116 0.7290 0.8118
H65 H 0.8781 0.7460 0.8420
N9_2 N 0.0506(8) 0.6211(6) 0.8673(4)
Pd1_2 Pd 1.12124(4) 0.60610(4) 0.906403(17)
C1 C -0.0129(10) 0.3469(12) 0.5489(4)
O1 O 0.0791(8) 0.4635(7) 0.5110(4)
O2 O -0.0084(7) 0.3532(8) 0.4796(3)
O3 O 0.0948(7) 0.3551(8) 0.5098(3)
F1 F -0.0756(7) 0.3548(9) 0.5519(3)
F2 F -0.0312(7) 0.2665(9) 0.5530(3)
F3 F 0.0340(7) 0.3813(9) 0.5776(3)
S1 S 0.0383(2) 0.3728(2) 0.50705(8)
C68? C 0.897(3) 0.7845(17) 0.8068(14)
C69? C 0.928(3) 0.7552(14) 0.7757(13)
H66? H 0.9245 0.7849 0.8296
H67? H 0.8393 0.7466 0.8101
H68? H 0.9866 0.7901 0.7748
H69? H 0.9065 0.7636 0.7526
S5? S 0.9072(9) 0.6540(8) 0.7759(5)
loop_
_geom_bond_atom_site_label_1
_geom_bond_atom_site_label_2
_geom_bond_site_symmetry_1
_geom_bond_site_symmetry_2
C1 F1 1_555 1_555
O1 S1 1_555 1_555
O2 S1 1_555 1_555
O3 S1 1_555 1_555
F2 C1 1_555 1_555
F3 C1 1_555 1_555
S1 C1 1_555 1_555
C2 H1 1_555 1_555
C3 C4 1_555 1_555
C4 C5 1_555 1_555
C5 C7 1_555 1_555
C6 C8 1_555 1_555
C7 H2 1_555 1_555
H3 C7 1_555 1_555
H4 C7 1_555 1_555
C8 H5 1_555 1_555
C9 C10 1_555 1_555
C10 C11 1_555 1_555
C11 C13 1_555 1_555
C12 C14 1_555 1_555
C13 H6 1_555 1_555
H7 C13 1_555 1_555
H8 C13 1_555 1_555
C14 H9 1_555 1_555
C15 C16 1_555 1_555
C16 C17 1_555 1_555
C17 C19 1_555 1_555
C18 C2 1_555 1_555
C19 H10 1_555 1_555
H11 C19 1_555 1_555
H12 C19 1_555 1_555
C20 C2 1_555 1_555
H13 C20 1_555 1_555
H14 C20 1_555 1_555
C21 C20 1_555 1_555
H15 C21 1_555 1_555
H16 C21 1_555 1_555
N1 C22 1_555 1_555
C22 H17 1_555 1_555
C23 C22 1_555 1_555
H18 C23 1_555 1_555
C24 C23 1_555 1_555
C25 C24 1_555 1_555
H19 C25 1_555 1_555
C26 N1 1_555 1_555
H20 C26 1_555 1_555
C27 C8 1_555 1_555
H21 C27 1_555 1_555
H22 C27 1_555 1_555
C28 C27 1_555 1_555
H23 C28 1_555 1_555
H24 C28 1_555 1_555
C29 C30 1_555 1_555
C30 H25 1_555 1_555
C31 C30 1_555 1_555
H26 C31 1_555 1_555
C32 H27 1_555 1_555
C33 C29 1_555 1_555
H28 C33 1_555 1_555
C34 C35 1_555 1_555
C35 H29 1_555 1_555
C36 C35 1_555 1_555
H30 C36 1_555 1_555
C37 H31 1_555 1_555
C38 C34 1_555 1_555
H32 C38 1_555 1_555
C39 C40 1_555 1_555
C40 H33 1_555 1_555
C41 C40 1_555 1_555
H34 C41 1_555 1_555
C42 C41 1_555 1_555
H35 C42 1_555 1_555
C43 C42 1_555 1_555
H36 C43 1_555 1_555
C44 C39 1_555 1_555
H37 C44 1_555 1_555
C45 C46 1_555 1_555
C46 H38 1_555 1_555
C47 C46 1_555 1_555
H39 C47 1_555 1_555
C48 C47 1_555 1_555
H40 C48 1_555 1_555
C49 C48 1_555 1_555
H41 C49 1_555 1_555
C50 C45 1_555 1_555
H42 C50 1_555 1_555
C51 H43 1_555 1_555
H44 C51 1_555 1_555
C52 C51 1_555 1_555
H45 C52 1_555 1_555
H46 C52 1_555 1_555
C53 C52 1_555 1_555
H47 C53 1_555 1_555
H48 C53 1_555 1_555
C54 C55 1_555 1_555
C55 H49 1_555 1_555
C56 C55 1_555 1_555
H50 C56 1_555 1_555
C57 C56 1_555 1_555
H51 C57 1_555 1_555
C58 C57 1_555 1_555
H52 C58 1_555 1_555
C59 C54 1_555 1_555
H53 C59 1_555 1_555
C60 C61 1_555 1_555
C61 H54 1_555 1_555
C62 C61 1_555 1_555
H55 C62 1_555 1_555
C63 C62 1_555 1_555
H56 C63 1_555 1_555
C64 C63 1_555 1_555
H57 C64 1_555 1_555
C65 C60 1_555 1_555
H58 C65 1_555 1_555
N2 C2 1_555 1_555
H59 N2 1_555 1_555
N3 C4 1_555 1_555
N4 C8 1_555 1_555
H60 N4 1_555 1_555
N5 C10 1_555 1_555
N6 C14 1_555 1_555
H61 N6 1_555 1_555
N7 C16 1_555 1_555
N8 C31 1_555 1_555
N9 C36 1_555 1_555
O4 C3 1_555 1_555
O5 C5 1_555 1_555
O6 C9 1_555 1_555
O7 C11 1_555 1_555
O8 C15 1_555 1_555
O9 C17 1_555 1_555
P1 C39 1_555 1_555
P2 C53 1_555 1_555
Pd1 N8 1_555 1_555
S2 C21 1_555 1_555
S3 C28 1_555 1_555
S4 C34 1_555 1_555
C66 C14 1_555 1_555
H62 C66 1_555 1_555
H63 C66 1_555 1_555
C67 S4 1_555 1_555
H64 C67 1_555 1_555
H65 C67 1_555 1_555
N9_2 Pd1 1_555 1_555
Pd1_2 N9 1_555 1_555
C3 N2 1_555 1_555
C6 N3 1_555 1_555
C6 O5 1_555 1_555
C9 N4 1_555 1_555
C12 N5 1_555 1_555
C12 O7 1_555 1_555
C15 N6 1_555 1_555
C18 N7 1_555 1_555
C18 O9 1_555 1_555
C24 S2 1_555 1_555
C25 C26 1_555 1_555
C29 S3 1_555 1_555
C32 C33 1_555 1_555
C32 N8 1_555 1_555
C37 C38 1_555 1_555
C37 N9 1_555 1_555
C43 C44 1_555 1_555
C45 P1 1_555 1_555
C49 C50 1_555 1_555
C51 P1 1_555 1_555
C54 P2 1_555 1_555
C58 C59 1_555 1_555
C60 P2 1_555 1_555
C64 C65 1_555 1_555
P1 Pd1 1_555 1_555
P2 Pd1 1_555 1_555
C66 C67 1_555 1_555

#END
