
#######################################################################
#
#                 Cambridge Crystallographic Data Centre
#                                CCDC 
#
#######################################################################
#
# If this CIF has been generated from an entry in the Cambridge 
# Structural Database, then it will include bibliographic, chemical, 
# crystal, experimental, refinement or atomic coordinate data resulting 
# from the CCDC's data processing and validation procedures.
#
#######################################################################

data_XEHFUL
_symmetry_cell_setting           orthorhombic
_symmetry_space_group_name_H-M   'C 2 2 21'
_symmetry_Int_Tables_number      20
_space_group_name_Hall           'C 2n 2'
loop_
_symmetry_equiv_pos_site_id
_symmetry_equiv_pos_as_xyz
1 x,y,z
2 -x,-y,1/2+z
3 x,-y,-z
4 -x,y,1/2-z
5 1/2+x,1/2+y,z
6 1/2-x,1/2-y,1/2+z
7 1/2+x,1/2-y,-z
8 1/2-x,1/2+y,1/2-z
_cell_length_a                   7.8198(5)
_cell_length_b                   14.9490(10)
_cell_length_c                   9.4908(5)
_cell_angle_alpha                90
_cell_angle_beta                 90
_cell_angle_gamma                90
_cell_volume                     1109.46
loop_
_atom_site_label
_atom_site_type_symbol
_atom_site_fract_x
_atom_site_fract_y
_atom_site_fract_z
Y1 Y 0.0000 0.29284(7) 0.2500
Y2 Y 0.0000 0.70723(7) 0.2500
C1 C -0.0993(5) 0.5011(6) 0.2573(5)
O1 O -0.1703(11) 0.4274(3) 0.2630(9)
O2 O -0.1685(11) 0.5772(3) 0.2639(8)
C2 C -0.3049(5) 0.2246(3) 0.4995(11)
O3 O -0.2441(10) 0.2466(4) 0.3803(7)
O4 O -0.4457(4) 0.1802(2) 0.4968(8)
O5 O -0.2441(10) 0.2474(4) 0.6186(7)
O6 O 0.0000 0.1358(7) 0.2500
O7 O 0.0000 0.8630(7) 0.2500
H1 H 0.101(6) 0.898(4) 0.226(7)
H2 H 0.065(8) 0.101(4) 0.317(6)
C1C C 0.0993(5) 0.5011(6) 0.2427(5)
O1C O 0.1703(11) 0.4274(3) 0.2370(9)
O2C O 0.1685(11) 0.5772(3) 0.2361(8)
H2C H -0.065(8) 0.101(4) 0.183(6)
H1C H -0.101(6) 0.898(4) 0.274(7)
C2C C 0.3049(5) 0.2246(3) 0.0005(11)
O3C O 0.2441(10) 0.2466(4) 0.1197(7)
O4C O 0.4457(4) 0.1802(2) 0.0032(8)
O5C O 0.2441(10) 0.2474(4) -0.1186(7)
O4E O -0.0543(4) 0.3198(2) -0.0032(8)
O4F O 0.0543(4) 0.3198(2) 0.5032(8)
O5E O -0.2559(10) 0.2526(4) 0.1186(7)
O5F O 0.2559(10) 0.2526(4) 0.3814(7)
O3D O 0.2559(10) 0.7466(4) 0.3803(7)
O3G O -0.2559(10) 0.7466(4) 0.1197(7)
O4D O 0.0543(4) 0.6802(2) 0.4968(8)
O4G O -0.0543(4) 0.6802(2) 0.0032(8)
O5A O 0.2441(10) 0.7526(4) 0.1186(7)
O5B O -0.2441(10) 0.7526(4) 0.3814(7)
Y2D Y -0.5000 0.20723(7) 0.2500
Y1E Y -0.5000 0.20716(7) 0.7500
Y2A Y 0.0000 0.29277(7) 0.7500
Y2D_2 Y 0.5000 0.20723(7) 0.2500
Y1E_2 Y 0.5000 0.20716(7) -0.2500
Y2A_2 Y 0.0000 0.29277(7) -0.2500
loop_
_geom_bond_atom_site_label_1
_geom_bond_atom_site_label_2
_geom_bond_site_symmetry_1
_geom_bond_site_symmetry_2
Y1 O1 1_555 1_555
Y2 O2 1_555 1_555
C1 O1 1_555 1_555
O2 C1 1_555 1_555
C2 O3 1_555 1_555
O3 Y1 1_555 1_555
O4 C2 1_555 1_555
O5 C2 1_555 1_555
O6 Y1 1_555 1_555
O7 Y2 1_555 1_555
H1 O7 1_555 1_555
H2 O6 1_555 1_555
C1C C1 1_555 1_555
O1C Y1 1_555 1_555
O2C Y2 1_555 1_555
H2C O6 1_555 1_555
H1C O7 1_555 1_555
C2C O3C 1_555 1_555
O3C Y1 1_555 1_555
O4C C2C 1_555 1_555
O5C C2C 1_555 1_555
O4E Y1 1_555 1_555
O4F Y1 1_555 1_555
O5E Y1 1_555 1_555
O5F Y1 1_555 1_555
O3D Y2 1_555 1_555
O3G Y2 1_555 1_555
O4D Y2 1_555 1_555
O4G Y2 1_555 1_555
O5A Y2 1_555 1_555
O5B Y2 1_555 1_555
Y2D O3 1_555 1_555
Y1E O4 1_555 1_555
Y2A O5 1_555 1_555
Y2D_2 O3C 1_555 1_555
Y1E_2 O4C 1_555 1_555
Y2A_2 O5C 1_555 1_555
O4 Y2D 1_555 1_555
O5 Y1E 1_555 1_555
C1C O1C 1_555 1_555
C1C O2C 1_555 1_555
O4C Y2D_2 1_555 1_555
O5C Y1E_2 1_555 1_555
O4E Y2A_2 1_555 1_555
O4F Y2A 1_555 1_555
O5E Y2D 1_555 1_555
O5F Y2D_2 1_555 1_555

#END
