
#######################################################################
#
#                 Cambridge Crystallographic Data Centre
#                                CCDC 
#
#######################################################################
#
# If this CIF has been generated from an entry in the Cambridge 
# Structural Database, then it will include bibliographic, chemical, 
# crystal, experimental, refinement or atomic coordinate data resulting 
# from the CCDC's data processing and validation procedures.
#
#######################################################################

data_XEHFAT
_symmetry_cell_setting           triclinic
_symmetry_space_group_name_H-M   'P -1'
_symmetry_Int_Tables_number      2
_space_group_name_Hall           '-P 1'
loop_
_symmetry_equiv_pos_site_id
_symmetry_equiv_pos_as_xyz
1 x,y,z
2 -x,-y,-z
_cell_length_a                   11.8120(2)
_cell_length_b                   14.7920(3)
_cell_length_c                   21.6160(4)
_cell_angle_alpha                70.8300(10)
_cell_angle_beta                 82.2460(10)
_cell_angle_gamma                82.4880(10)
_cell_volume                     3519.66
loop_
_atom_site_label
_atom_site_type_symbol
_atom_site_fract_x
_atom_site_fract_y
_atom_site_fract_z
W1 W 0.636407(13) 0.774566(12) 0.041559(8)
W2 W 0.415527(13) 0.767556(12) 0.556057(8)
Cu1 Cu 1.00000 1.00000 0.00000
Cu2 Cu 1.00000 0.50000 0.00000
Cu3 Cu 0.51289(5) 0.87942(4) 0.27727(3)
Cu4 Cu 0.00000 1.00000 0.50000
N1 N 0.8267(3) 0.9240(3) 0.0312(2)
N2 N 0.7017(4) 0.9019(4) -0.1137(2)
N3 N 0.3941(4) 0.8906(4) -0.0155(2)
N4 N 0.5316(4) 0.8832(3) 0.1520(2)
N5 N 0.8671(3) 0.6500(3) -0.0033(2)
N6 N 0.5588(4) 0.6451(3) -0.0419(2)
N7 N 0.4563(4) 0.6287(4) 0.1436(2)
N8 N 0.7760(4) 0.6670(3) 0.1728(2)
N9 N 0.2944(3) 0.6555(3) 0.4758(2)
N10 N 0.2319(4) 0.6232(4) 0.6568(2)
N11 N 0.5512(4) 0.6459(4) 0.6875(2)
N12 N 0.6315(3) 0.6273(3) 0.5120(2)
N13 N 0.4864(3) 0.8784(3) 0.3975(2)
N14 N 0.1827(3) 0.9082(3) 0.5060(2)
N15 N 0.3132(4) 0.8877(4) 0.6598(3)
N16 N 0.6160(4) 0.9032(4) 0.5572(2)
N17 N 0.9431(3) 1.0757(3) 0.06284(19)
N18 N 0.8321(4) 1.1004(4) 0.0783(3)
H1 H 0.7758 1.0827 0.065
N19 N 1.0758(3) 0.8943(3) 0.0720(2)
N20 N 1.1831(4) 0.8890(4) 0.0872(3)
H2 H 1.2308 0.9313 0.0676
N21 N 0.9468(4) 0.4474(3) 0.0958(2)
N22 N 0.8406(5) 0.4293(4) 0.1230(3)
H3 H 0.7832 0.4374 0.1005
N23 N 1.1296(3) 0.5550(3) 0.0219(2)
N24 N 1.2347(3) 0.5099(3) 0.0327(2)
H4 H 1.255 0.4515 0.0336
N25 N 0.6823(3) 0.8834(3) 0.2736(2)
N26 N 0.7336(3) 0.9528(3) 0.2835(2)
H5 H 0.6977 0.9988 0.2965
N27 N 0.4953(3) 1.0227(3) 0.24603(19)
N28 N 0.5191(4) 1.0774(4) 0.1833(2)
H6 H 0.5408 1.0574 0.1501
N29 N 0.3436(3) 0.8768(3) 0.27868(19)
N30 N 0.2773(3) 0.9426(3) 0.23622(19)
H7 H 0.3021 0.9905 0.2045
N31 N 0.5317(3) 0.7366(3) 0.30579(19)
N32 N 0.5116(4) 0.6789(4) 0.2722(2)
H8 H 0.4927 0.6987 0.2326
N33 N -0.0674(3) 0.9055(3) 0.47043(19)
N34 N -0.1784(4) 0.9043(4) 0.4650(3)
H9 H -0.2323 0.9429 0.4759
N35 N -0.0482(3) 0.9313(3) 0.59648(19)
N36 N 0.0234(5) 0.8954(4) 0.6443(3)
H10 H 0.0968 0.8963 0.6394
C1 C 0.7602(4) 0.8730(3) 0.0361(2)
C2 C 0.6773(4) 0.8579(4) -0.0605(2)
C3 C 0.4767(4) 0.8517(4) 0.0060(2)
C4 C 0.5662(4) 0.8481(3) 0.1123(2)
C5 C 0.7895(4) 0.6952(3) 0.0121(2)
C6 C 0.5845(4) 0.6896(3) -0.0127(2)
C7 C 0.5183(4) 0.6783(3) 0.1081(2)
C8 C 0.7269(4) 0.7019(3) 0.1279(2)
C9 C 0.3412(4) 0.6932(3) 0.5023(2)
C10 C 0.2955(4) 0.6745(4) 0.6220(2)
C11 C 0.5026(4) 0.6892(4) 0.6430(2)
C12 C 0.5569(4) 0.6748(4) 0.5289(2)
C13 C 0.4617(3) 0.8431(3) 0.4526(2)
C14 C 0.2634(4) 0.8591(3) 0.5227(2)
C15 C 0.3507(4) 0.8447(4) 0.6257(2)
C16 C 0.5478(4) 0.8584(4) 0.5538(2)
C17 C 0.8202(6) 1.1568(5) 0.1175(4)
H11 H 0.7517 1.1825 0.1345
C18 C 0.9250(6) 1.1683(5) 0.1268(3)
H12 H 0.9441 1.2029 0.1523
C19 C 1.0016(4) 1.1193(4) 0.0915(2)
H13 H 1.0811 1.1173 0.0884
C20 C 1.2064(8) 0.8092(7) 0.1371(4)
H14 H 1.2755 0.7898 0.1558
C21 C 1.1127(8) 0.7629(6) 0.1549(3)
H15 H 1.1031 0.7055 0.1888
C22 C 1.0325(5) 0.8161(4) 0.1134(3)
H16 H 0.9588 0.7996 0.1144
C23 C 0.8320(7) 0.3968(5) 0.1898(3)
H17 H 0.7662 0.3806 0.2184
C24 C 0.9399(7) 0.3932(6) 0.2059(3)
H18 H 0.964 0.3736 0.2479
C25 C 1.0052(5) 0.4241(5) 0.1478(3)
H19 H 1.0837 0.4285 0.1447
C26 C 1.3039(5) 0.5687(5) 0.0419(3)
H20 H 1.3805 0.5534 0.0504
C27 C 1.2441(5) 0.6517(5) 0.0370(4)
H21 H 1.2699 0.7059 0.0412
C28 C 1.1357(5) 0.6426(4) 0.0242(3)
H22 H 1.0756 0.691 0.018
C29 C 0.8464(4) 0.9415(5) 0.2709(3)
H23 H 0.8987 0.981 0.2742
C30 C 0.8716(4) 0.8614(6) 0.2521(3)
H24 H 0.9437 0.8349 0.2402
C31 C 0.7671(4) 0.8280(5) 0.2544(3)
H25 H 0.7575 0.7736 0.2439
C32 C 0.5020(8) 1.1715(6) 0.1824(6)
H26 H 0.5108 1.2252 0.1453
C33 C 0.4713(9) 1.1726(7) 0.2423(7)
H27 H 0.456 1.2269 0.2558
C34 C 0.4654(4) 1.0791(5) 0.2819(3)
H28 H 0.4436 1.0593 0.3269
C35 C 0.1685(4) 0.9233(4) 0.2500(3)
H29 H 0.1075 0.9584 0.227
C36 C 0.1617(5) 0.8437(5) 0.3032(3)
H30 H 0.0961 0.8139 0.3243
C37 C 0.2728(5) 0.8160(5) 0.3196(3)
H31 H 0.2949 0.7626 0.3543
C38 C 0.5251(6) 0.5856(5) 0.3095(4)
H32 H 0.5156 0.5326 0.2972
C39 C 0.5554(6) 0.5840(5) 0.3683(3)
H33 H 0.57 0.5298 0.4042
C40 C 0.5602(4) 0.6772(4) 0.3645(2)
H34 H 0.5804 0.6969 0.3979
C41 C -0.1951(5) 0.8352(4) 0.4405(3)
H35 H -0.265 0.8219 0.4317
C42 C -0.0918(5) 0.7888(4) 0.4311(3)
H36 H -0.0754 0.7368 0.4152
C43 C -0.0156(4) 0.8350(4) 0.4501(3)
H37 H 0.0631 0.8182 0.4487
C44 C -0.0448(10) 0.8560(5) 0.7041(3)
H38 H -0.0189 0.8266 0.7455
C45 C -0.1515(9) 0.8689(6) 0.6899(5)
H39 H -0.2151 0.8503 0.7199
C46 C -0.1538(4) 0.9137(4) 0.6249(3)
H40 H -0.2197 0.93 0.6029
W1A W 1.363593(13) 1.225434(12) -0.041559(8)
W2A W 1.584473(13) 1.232444(12) -0.556057(8)
Cu2_2 Cu 1.00000 1.50000 0.00000
Cu3A Cu 1.48711(5) 1.12058(4) -0.27727(3)
Cu4_2 Cu 2.00000 1.00000 -0.50000
N1A N 1.1733(3) 1.0760(3) -0.0312(2)
N2A N 1.2983(4) 1.0981(4) 0.1137(2)
N3A N 1.6059(4) 1.1094(4) 0.0155(2)
N4A N 1.4684(4) 1.1168(3) -0.1520(2)
N5A N 1.1329(3) 1.3500(3) 0.0033(2)
N5A_2 N 1.1329(3) 0.3500(3) 0.0033(2)
N6A N 1.4412(4) 1.3549(3) 0.0419(2)
N7A N 1.5437(4) 1.3713(4) -0.1436(2)
N8A N 1.2240(4) 1.3330(3) -0.1728(2)
N9A N 1.7056(3) 1.3445(3) -0.4758(2)
N10A N 1.7681(4) 1.3768(4) -0.6568(2)
N11A N 1.4488(4) 1.3541(4) -0.6875(2)
N12A N 1.3685(3) 1.3727(3) -0.5120(2)
N13A N 1.5136(3) 1.1216(3) -0.3975(2)
N14A N 1.8173(3) 1.0918(3) -0.5060(2)
N14A_2 N -0.1827(3) 1.0918(3) 0.4940(2)
N15A N 1.6868(4) 1.1123(4) -0.6598(3)
N16A N 1.3840(4) 1.0968(4) -0.5572(2)
N17A N 1.0569(3) 0.9243(3) -0.06284(19)
N18A N 1.1679(4) 0.8996(4) -0.0783(3)
H1A H 1.2242 0.9173 -0.065
N19A N 0.9242(3) 1.1057(3) -0.0720(2)
N20A N 0.8169(4) 1.1110(4) -0.0872(3)
H2A H 0.7692 1.0687 -0.0676
N21A N 1.0532(4) 0.5526(3) -0.0958(2)
N22A N 1.1594(5) 0.5707(4) -0.1230(3)
H3A H 1.2168 0.5626 -0.1005
N23A N 0.8704(3) 0.4450(3) -0.0219(2)
N24A N 0.7653(3) 0.4901(3) -0.0327(2)
H4A H 0.745 0.5485 -0.0336
N25A N 1.3177(3) 1.1166(3) -0.2736(2)
N26A N 1.2664(3) 1.0472(3) -0.2835(2)
H5A H 1.3023 1.0012 -0.2965
N27A N 1.5047(3) 0.9773(3) -0.24603(19)
N28A N 1.4809(4) 0.9226(4) -0.1833(2)
H6A H 1.4592 0.9426 -0.1501
N29A N 1.6564(3) 1.1232(3) -0.27868(19)
N30A N 1.7227(3) 1.0574(3) -0.23622(19)
H7A H 1.6979 1.0095 -0.2045
N31A N 1.4683(3) 1.2634(3) -0.30579(19)
N32A N 1.4884(4) 1.3211(4) -0.2722(2)
H8A H 1.5073 1.3013 -0.2326
N33A N 0.0674(3) 1.0945(3) 0.52957(19)
N34A N 0.1784(4) 1.0957(4) 0.5350(3)
H9A H 0.2323 1.0571 0.5241
N35A N 0.0482(3) 1.0687(3) 0.40352(19)
N36A N -0.0234(5) 1.1046(4) 0.3557(3)
H10A H -0.0968 1.1037 0.3606
C1A C 1.2398(4) 1.1270(3) -0.0361(2)
C2A C 1.3227(4) 1.1421(4) 0.0605(2)
C3A C 1.5233(4) 1.1483(4) -0.0060(2)
C4A C 1.4338(4) 1.1519(3) -0.1123(2)
C5A C 1.2105(4) 1.3048(3) -0.0121(2)
C6A C 1.4155(4) 1.3104(3) 0.0127(2)
C7A C 1.4817(4) 1.3217(3) -0.1081(2)
C8A C 1.2731(4) 1.2981(3) -0.1279(2)
C9A C 1.6588(4) 1.3068(3) -0.5023(2)
C10A C 1.7045(4) 1.3255(4) -0.6220(2)
C11A C 1.4974(4) 1.3108(4) -0.6430(2)
C12A C 1.4431(4) 1.3252(4) -0.5289(2)
C13A C 1.5383(3) 1.1569(3) -0.4526(2)
C14A C 1.7366(4) 1.1409(3) -0.5227(2)
C15A C 1.6493(4) 1.1553(4) -0.6257(2)
C16A C 1.4522(4) 1.1416(4) -0.5538(2)
C17A C 1.1798(6) 0.8432(5) -0.1175(4)
H11A H 1.2483 0.8175 -0.1345
C18A C 1.0750(6) 0.8317(5) -0.1268(3)
H12A H 1.0559 0.7971 -0.1523
C19A C 0.9984(4) 0.8807(4) -0.0915(2)
H13A H 0.9189 0.8827 -0.0884
C20A C 0.7936(8) 1.1908(7) -0.1371(4)
H14A H 0.7245 1.2102 -0.1558
C21A C 0.8873(8) 1.2371(6) -0.1549(3)
H15A H 0.8969 1.2945 -0.1888
C22A C 0.9675(5) 1.1839(4) -0.1134(3)
H16A H 1.0412 1.2004 -0.1144
C23A C 1.1680(7) 0.6032(5) -0.1898(3)
H17A H 1.2338 0.6194 -0.2184
C24A C 1.0601(7) 0.6068(6) -0.2059(3)
H18A H 1.036 0.6264 -0.2479
C25A C 0.9948(5) 0.5759(5) -0.1478(3)
H19A H 0.9163 0.5715 -0.1447
C26A C 0.6961(5) 0.4313(5) -0.0419(3)
H20A H 0.6195 0.4466 -0.0504
C27A C 0.7559(5) 0.3483(5) -0.0370(4)
H21A H 0.7301 0.2941 -0.0412
C28A C 0.8643(5) 0.3574(4) -0.0242(3)
H22A H 0.9244 0.309 -0.018
C29A C 1.1536(4) 1.0585(5) -0.2709(3)
H23A H 1.1013 1.019 -0.2742
C30A C 1.1284(4) 1.1386(6) -0.2521(3)
H24A H 1.0563 1.1651 -0.2402
C31A C 1.2329(4) 1.1720(5) -0.2544(3)
H25A H 1.2425 1.2264 -0.2439
C32A C 1.4980(8) 0.8285(6) -0.1824(6)
H26A H 1.4892 0.7748 -0.1453
C33A C 1.5287(9) 0.8274(7) -0.2423(7)
H27A H 1.544 0.7731 -0.2558
C34A C 1.5346(4) 0.9209(5) -0.2819(3)
H28A H 1.5564 0.9407 -0.3269
C35A C 1.8315(4) 1.0767(4) -0.2500(3)
H29A H 1.8925 1.0416 -0.227
C36A C 1.8383(5) 1.1563(5) -0.3032(3)
H30A H 1.9039 1.1861 -0.3243
C37A C 1.7272(5) 1.1840(5) -0.3196(3)
H31A H 1.7051 1.2374 -0.3543
C38A C 1.4749(6) 1.4144(5) -0.3095(4)
H32A H 1.4844 1.4674 -0.2972
C39A C 1.4446(6) 1.4160(5) -0.3683(3)
H33A H 1.43 1.4702 -0.4042
C40A C 1.4398(4) 1.3228(4) -0.3645(2)
H34A H 1.4196 1.3031 -0.3979
C41A C 0.1951(5) 1.1648(4) 0.5595(3)
H35A H 0.265 1.1781 0.5683
C42A C 0.0918(5) 1.2112(4) 0.5689(3)
H36A H 0.0754 1.2632 0.5848
C43A C 0.0156(4) 1.1650(4) 0.5499(3)
H37A H -0.0631 1.1818 0.5513
C44A C 0.0448(10) 1.1440(5) 0.2959(3)
H38A H 0.0189 1.1734 0.2545
C45A C 0.1515(9) 1.1311(6) 0.3101(5)
H39A H 0.2151 1.1497 0.2801
C46A C 0.1538(4) 1.0863(4) 0.3751(3)
H40A H 0.2197 1.07 0.3971
Cu5 Cu 0.00000 0.50000 0.50000
O1 O 0.1073(3) 0.5907(3) 0.43567(16)
H41 H 0.1157 0.5919 0.3919
H42 H 0.1829 0.586 0.4465
O2 O -0.1574(3) 0.5684(3) 0.43266(18)
H43 H -0.2292 0.5639 0.4555
H44 H -0.1531 0.5755 0.3886
N37 N 0.0427(3) 0.4116(3) 0.44851(18)
N38 N -0.0259(4) 0.3698(3) 0.4239(2)
H45 H -0.0997 0.3753 0.4297
C47 C 0.0395(5) 0.3161(4) 0.3877(3)
H46 H 0.0131 0.2802 0.3654
C48 C 0.1496(5) 0.3269(4) 0.3919(3)
H47 H 0.214 0.2993 0.3726
C49 C 0.1498(3) 0.3843(3) 0.4286(2)
H48 H 0.2155 0.4025 0.4388
O1A O -0.1073(3) 0.4093(3) 0.56433(16)
H41A H -0.1157 0.4081 0.6081
H42A H -0.1829 0.414 0.5535
O2A O 0.1574(3) 0.4316(3) 0.56734(18)
H43A H 0.2292 0.4361 0.5445
H44A H 0.1531 0.4245 0.6114
N37A N -0.0427(3) 0.5884(3) 0.55149(18)
N38A N 0.0259(4) 0.6302(3) 0.5761(2)
H45A H 0.0997 0.6247 0.5703
C47A C -0.0395(5) 0.6839(4) 0.6123(3)
H46A H -0.0131 0.7198 0.6346
C48A C -0.1496(5) 0.6731(4) 0.6081(3)
H47A H -0.214 0.7007 0.6274
C49A C -0.1498(3) 0.6157(3) 0.5714(2)
H48A H -0.2155 0.5975 0.5612
O3 O 0.8726(3) 0.5598(3) 0.29975(17)
H49 H 0.8411 0.605 0.2638
H50 H 0.8484 0.5011 0.3005
O4 O 0.1041(3) 0.5926(3) 0.31071(18)
H51 H 0.0461 0.5554 0.3063
H52 H 0.1683 0.5558 0.2958
O5 O 0.2823(4) 0.5054(4) 0.2382(2)
H53 H 0.3268 0.5417 0.2039
H54 H 0.3314 0.4522 0.2555
O6 O 0.6073(7) 0.4239(7) 0.1122(5)
H55 H 0.5682 0.4209 0.0798
H56 H 0.5586 0.4143 0.1538
loop_
_geom_bond_atom_site_label_1
_geom_bond_atom_site_label_2
_geom_bond_site_symmetry_1
_geom_bond_site_symmetry_2
W1 C1 1_555 1_555
W2 C9 1_555 1_555
Cu1 N1 1_555 1_555
Cu2 N5 1_555 1_555
Cu3 N4 1_555 1_555
Cu4 N14 1_555 1_555
N1 C1 1_555 1_555
N2 C2 1_555 1_555
N3 C3 1_555 1_555
N4 C4 1_555 1_555
N5 C5 1_555 1_555
N6 C6 1_555 1_555
N7 C7 1_555 1_555
N8 C8 1_555 1_555
N9 C9 1_555 1_555
N10 C10 1_555 1_555
N11 C11 1_555 1_555
N12 C12 1_555 1_555
N13 Cu3 1_555 1_555
N14 C14 1_555 1_555
N15 C15 1_555 1_555
N16 C16 1_555 1_555
N17 Cu1 1_555 1_555
N18 N17 1_555 1_555
H1 N18 1_555 1_555
N19 Cu1 1_555 1_555
N20 N19 1_555 1_555
H2 N20 1_555 1_555
N21 Cu2 1_555 1_555
N22 N21 1_555 1_555
H3 N22 1_555 1_555
N23 Cu2 1_555 1_555
N24 N23 1_555 1_555
H4 N24 1_555 1_555
N25 Cu3 1_555 1_555
N26 N25 1_555 1_555
H5 N26 1_555 1_555
N27 Cu3 1_555 1_555
N28 N27 1_555 1_555
H6 N28 1_555 1_555
N29 Cu3 1_555 1_555
N30 N29 1_555 1_555
H7 N30 1_555 1_555
N31 Cu3 1_555 1_555
N32 N31 1_555 1_555
H8 N32 1_555 1_555
N33 Cu4 1_555 1_555
N34 N33 1_555 1_555
H9 N34 1_555 1_555
N35 Cu4 1_555 1_555
N36 N35 1_555 1_555
H10 N36 1_555 1_555
C2 W1 1_555 1_555
C3 W1 1_555 1_555
C4 W1 1_555 1_555
C5 W1 1_555 1_555
C6 W1 1_555 1_555
C7 W1 1_555 1_555
C8 W1 1_555 1_555
C10 W2 1_555 1_555
C11 W2 1_555 1_555
C12 W2 1_555 1_555
C13 W2 1_555 1_555
C14 W2 1_555 1_555
C15 W2 1_555 1_555
C16 W2 1_555 1_555
C17 N18 1_555 1_555
H11 C17 1_555 1_555
C18 C17 1_555 1_555
H12 C18 1_555 1_555
C19 N17 1_555 1_555
H13 C19 1_555 1_555
C20 N20 1_555 1_555
H14 C20 1_555 1_555
C21 C20 1_555 1_555
H15 C21 1_555 1_555
C22 N19 1_555 1_555
H16 C22 1_555 1_555
C23 N22 1_555 1_555
H17 C23 1_555 1_555
C24 C23 1_555 1_555
H18 C24 1_555 1_555
C25 N21 1_555 1_555
H19 C25 1_555 1_555
C26 N24 1_555 1_555
H20 C26 1_555 1_555
C27 C26 1_555 1_555
H21 C27 1_555 1_555
C28 N23 1_555 1_555
H22 C28 1_555 1_555
C29 N26 1_555 1_555
H23 C29 1_555 1_555
C30 C29 1_555 1_555
H24 C30 1_555 1_555
C31 N25 1_555 1_555
H25 C31 1_555 1_555
C32 N28 1_555 1_555
H26 C32 1_555 1_555
C33 C32 1_555 1_555
H27 C33 1_555 1_555
C34 N27 1_555 1_555
H28 C34 1_555 1_555
C35 N30 1_555 1_555
H29 C35 1_555 1_555
C36 C35 1_555 1_555
H30 C36 1_555 1_555
C37 N29 1_555 1_555
H31 C37 1_555 1_555
C38 N32 1_555 1_555
H32 C38 1_555 1_555
C39 C38 1_555 1_555
H33 C39 1_555 1_555
C40 N31 1_555 1_555
H34 C40 1_555 1_555
C41 N34 1_555 1_555
H35 C41 1_555 1_555
C42 C41 1_555 1_555
H36 C42 1_555 1_555
C43 N33 1_555 1_555
H37 C43 1_555 1_555
C44 N36 1_555 1_555
H38 C44 1_555 1_555
C45 C44 1_555 1_555
H39 C45 1_555 1_555
C46 N35 1_555 1_555
H40 C46 1_555 1_555
Cu5 O1 1_555 1_555
O1 H41 1_555 1_555
H42 O1 1_555 1_555
O2 Cu5 1_555 1_555
H43 O2 1_555 1_555
H44 O2 1_555 1_555
N37 Cu5 1_555 1_555
N38 N37 1_555 1_555
H45 N38 1_555 1_555
C47 N38 1_555 1_555
H46 C47 1_555 1_555
C48 C47 1_555 1_555
H47 C48 1_555 1_555
C49 N37 1_555 1_555
H48 C49 1_555 1_555
O3 H49 1_555 1_555
H50 O3 1_555 1_555
O4 H51 1_555 1_555
H52 O4 1_555 1_555
O5 H53 1_555 1_555
H54 O5 1_555 1_555
O6 H55 1_555 1_555
H56 O6 1_555 1_555
W1A C1A 1_555 1_555
W2A C9A 1_555 1_555
Cu2_2 N5A 1_555 1_555
Cu3A N4A 1_555 1_555
Cu4_2 N14A 1_555 1_555
N1A Cu1 1_555 1_555
N2A C2A 1_555 1_555
N3A C3A 1_555 1_555
N4A C4A 1_555 1_555
N5A C5A 1_555 1_555
N5A_2 Cu2 1_555 1_555
N6A C6A 1_555 1_555
N7A C7A 1_555 1_555
N8A C8A 1_555 1_555
N9A C9A 1_555 1_555
N10A C10A 1_555 1_555
N11A C11A 1_555 1_555
N12A C12A 1_555 1_555
N13A Cu3A 1_555 1_555
N14A C14A 1_555 1_555
N14A_2 Cu4 1_555 1_555
N15A C15A 1_555 1_555
N16A C16A 1_555 1_555
N17A Cu1 1_555 1_555
N18A N17A 1_555 1_555
H1A N18A 1_555 1_555
N19A Cu1 1_555 1_555
N20A N19A 1_555 1_555
H2A N20A 1_555 1_555
N21A Cu2 1_555 1_555
N22A N21A 1_555 1_555
H3A N22A 1_555 1_555
N23A Cu2 1_555 1_555
N24A N23A 1_555 1_555
H4A N24A 1_555 1_555
N25A Cu3A 1_555 1_555
N26A N25A 1_555 1_555
H5A N26A 1_555 1_555
N27A Cu3A 1_555 1_555
N28A N27A 1_555 1_555
H6A N28A 1_555 1_555
N29A Cu3A 1_555 1_555
N30A N29A 1_555 1_555
H7A N30A 1_555 1_555
N31A Cu3A 1_555 1_555
N32A N31A 1_555 1_555
H8A N32A 1_555 1_555
N33A Cu4 1_555 1_555
N34A N33A 1_555 1_555
H9A N34A 1_555 1_555
N35A Cu4 1_555 1_555
N36A N35A 1_555 1_555
H10A N36A 1_555 1_555
C1A N1A 1_555 1_555
C2A W1A 1_555 1_555
C3A W1A 1_555 1_555
C4A W1A 1_555 1_555
C5A W1A 1_555 1_555
C6A W1A 1_555 1_555
C7A W1A 1_555 1_555
C8A W1A 1_555 1_555
C10A W2A 1_555 1_555
C11A W2A 1_555 1_555
C12A W2A 1_555 1_555
C13A W2A 1_555 1_555
C14A W2A 1_555 1_555
C15A W2A 1_555 1_555
C16A W2A 1_555 1_555
C17A N18A 1_555 1_555
H11A C17A 1_555 1_555
C18A C17A 1_555 1_555
H12A C18A 1_555 1_555
C19A N17A 1_555 1_555
H13A C19A 1_555 1_555
C20A N20A 1_555 1_555
H14A C20A 1_555 1_555
C21A C20A 1_555 1_555
H15A C21A 1_555 1_555
C22A N19A 1_555 1_555
H16A C22A 1_555 1_555
C23A N22A 1_555 1_555
H17A C23A 1_555 1_555
C24A C23A 1_555 1_555
H18A C24A 1_555 1_555
C25A N21A 1_555 1_555
H19A C25A 1_555 1_555
C26A N24A 1_555 1_555
H20A C26A 1_555 1_555
C27A C26A 1_555 1_555
H21A C27A 1_555 1_555
C28A N23A 1_555 1_555
H22A C28A 1_555 1_555
C29A N26A 1_555 1_555
H23A C29A 1_555 1_555
C30A C29A 1_555 1_555
H24A C30A 1_555 1_555
C31A N25A 1_555 1_555
H25A C31A 1_555 1_555
C32A N28A 1_555 1_555
H26A C32A 1_555 1_555
C33A C32A 1_555 1_555
H27A C33A 1_555 1_555
C34A N27A 1_555 1_555
H28A C34A 1_555 1_555
C35A N30A 1_555 1_555
H29A C35A 1_555 1_555
C36A C35A 1_555 1_555
H30A C36A 1_555 1_555
C37A N29A 1_555 1_555
H31A C37A 1_555 1_555
C38A N32A 1_555 1_555
H32A C38A 1_555 1_555
C39A C38A 1_555 1_555
H33A C39A 1_555 1_555
C40A N31A 1_555 1_555
H34A C40A 1_555 1_555
C41A N34A 1_555 1_555
H35A C41A 1_555 1_555
C42A C41A 1_555 1_555
H36A C42A 1_555 1_555
C43A N33A 1_555 1_555
H37A C43A 1_555 1_555
C44A N36A 1_555 1_555
H38A C44A 1_555 1_555
C45A C44A 1_555 1_555
H39A C45A 1_555 1_555
C46A N35A 1_555 1_555
H40A C46A 1_555 1_555
O1A Cu5 1_555 1_555
H41A O1A 1_555 1_555
H42A O1A 1_555 1_555
O2A Cu5 1_555 1_555
H43A O2A 1_555 1_555
H44A O2A 1_555 1_555
N37A Cu5 1_555 1_555
N38A N37A 1_555 1_555
H45A N38A 1_555 1_555
C47A N38A 1_555 1_555
H46A C47A 1_555 1_555
C48A C47A 1_555 1_555
H47A C48A 1_555 1_555
C49A N37A 1_555 1_555
H48A C49A 1_555 1_555
N13 C13 1_555 1_555
C18 C19 1_555 1_555
C21 C22 1_555 1_555
C24 C25 1_555 1_555
C27 C28 1_555 1_555
C30 C31 1_555 1_555
C33 C34 1_555 1_555
C36 C37 1_555 1_555
C39 C40 1_555 1_555
C42 C43 1_555 1_555
C45 C46 1_555 1_555
C48 C49 1_555 1_555
N13A C13A 1_555 1_555
C18A C19A 1_555 1_555
C21A C22A 1_555 1_555
C24A C25A 1_555 1_555
C27A C28A 1_555 1_555
C30A C31A 1_555 1_555
C33A C34A 1_555 1_555
C36A C37A 1_555 1_555
C39A C40A 1_555 1_555
C42A C43A 1_555 1_555
C45A C46A 1_555 1_555
C48A C49A 1_555 1_555

#END
