
#######################################################################
#
#                 Cambridge Crystallographic Data Centre
#                                CCDC 
#
#######################################################################
#
# If this CIF has been generated from an entry in the Cambridge 
# Structural Database, then it will include bibliographic, chemical, 
# crystal, experimental, refinement or atomic coordinate data resulting 
# from the CCDC's data processing and validation procedures.
#
#######################################################################

data_XEHFEX
_symmetry_cell_setting           triclinic
_symmetry_space_group_name_H-M   'P -1'
_symmetry_Int_Tables_number      2
_space_group_name_Hall           '-P 1'
loop_
_symmetry_equiv_pos_site_id
_symmetry_equiv_pos_as_xyz
1 x,y,z
2 -x,-y,-z
_cell_length_a                   14.7530(2)
_cell_length_b                   16.5290(2)
_cell_length_c                   16.6930(3)
_cell_angle_alpha                61.9300(10)
_cell_angle_beta                 87.2970(10)
_cell_angle_gamma                87.6650(10)
_cell_volume                     3587.02
loop_
_atom_site_label
_atom_site_type_symbol
_atom_site_fract_x
_atom_site_fract_y
_atom_site_fract_z
W1 W 0.500594(11) 0.000540(11) 0.249879(11)
W2 W 0.993810(12) 0.508950(12) -0.758020(11)
Cu1 Cu 0.54575(4) 0.23440(4) -0.12333(4)
Cu2 Cu 0.90727(4) 0.72473(4) -1.10084(4)
Cu3 Cu 0.27641(4) 0.07169(4) 0.46487(4)
Cu4 Cu 0.77972(4) 0.46064(4) -0.47352(4)
O1 O 0.8649(3) 0.8057(3) -1.2255(2)
O2 O 0.8682(3) 0.9195(3) -1.3652(3)
O3 O 0.6567(3) 0.4362(3) -0.4171(3)
O4 O 0.5722(3) 0.3629(4) -0.2906(3)
N1 N 0.2905(3) 0.0401(3) 0.1783(3)
N2 N 0.3682(3) 0.0604(3) 0.3786(3)
N3 N 0.5801(4) 0.1990(3) 0.2149(3)
N4 N 0.5115(3) 0.1322(3) 0.0276(3)
N5 N 0.4289(4) -0.1987(3) 0.4109(4)
N6 N 0.6204(3) -0.0524(3) 0.4308(3)
N7 N 0.7100(3) -0.0355(4) 0.1916(4)
N8 N 0.4793(3) -0.1435(3) 0.1668(3)
N9 N 0.9554(3) 0.7162(3) -0.7782(3)
N10 N 0.8575(3) 0.4730(3) -0.5824(3)
N11 N 0.8027(4) 0.4321(4) -0.7899(4)
N12 N 0.9388(3) 0.6503(3) -0.9698(3)
N13 N 1.1958(4) 0.5880(4) -0.8456(4)
N14 N 0.8772(3) 0.4878(3) -0.3971(3)
N15 N 1.0315(4) 0.2915(4) -0.6176(4)
N16 N 1.0580(3) 0.3959(3) -0.8706(3)
N17 N 0.5776(3) 0.3336(3) -0.0925(3)
N18 N 0.5639(3) 0.4250(3) -0.1439(3)
H1 H 0.5452 0.4507 -0.1986
N19 N 0.6734(3) 0.1861(3) -0.1034(3)
N20 N 0.7479(3) 0.2361(4) -0.1157(3)
H2 H 0.7469 0.2942 -0.1337
N21 N 0.4158(3) 0.2754(3) -0.1449(3)
N22 N 0.3836(4) 0.3531(4) -0.2107(4)
H3 H 0.4167 0.396 -0.2509
N23 N 0.7779(3) 0.6878(3) -1.0680(3)
N24 N 0.7067(4) 0.7411(4) -1.1070(4)
H4 H 0.7097 0.7963 -1.1506
N25 N 1.0332(3) 0.7710(3) -1.1291(3)
N26 N 1.0650(5) 0.8314(4) -1.1067(4)
H5 H 1.033 0.8598 -1.0829
N27 N 0.2544(3) -0.0615(3) 0.5173(3)
N28 N 0.1746(4) -0.0913(4) 0.5060(5)
H6 H 0.132 -0.0565 0.4726
N29 N 0.1777(3) 0.0767(3) 0.5500(3)
N30 N 0.1091(4) 0.1371(4) 0.5256(3)
H7 H 0.1 0.1786 0.4708
N31 N 0.2823(3) 0.2087(3) 0.3958(3)
N32 N 0.2458(3) 0.2615(3) 0.3158(3)
H8 H 0.2127 0.241 0.2885
N33 N 0.7456(4) 0.5920(3) -0.5430(4)
N34 N 0.6612(4) 0.6256(4) -0.5621(4)
H9 H 0.6128 0.5939 -0.5408
N35 N 0.8098(3) 0.3262(3) -0.4062(3)
N36 N 0.7555(4) 0.2589(4) -0.3909(6)
H10 H 0.7037 0.2666 -0.4153
C1 C 0.3624(3) 0.0244(3) 0.2036(3)
C2 C 0.4160(3) 0.0416(3) 0.3348(3)
C3 C 0.5534(4) 0.1315(3) 0.2249(3)
C4 C 0.5088(3) 0.0862(3) 0.1044(3)
C5 C 0.4521(4) -0.1293(3) 0.3554(3)
C6 C 0.5790(3) -0.0342(3) 0.3682(3)
C7 C 0.6386(3) -0.0226(3) 0.2133(3)
C8 C 0.4887(3) -0.0929(3) 0.1938(3)
C9 C 0.9683(3) 0.6448(3) -0.7707(3)
C10 C 0.9027(4) 0.4858(3) -0.6436(3)
C11 C 0.8680(3) 0.4586(3) -0.7784(3)
C12 C 0.9592(3) 0.6024(3) -0.8978(3)
C13 C 1.1248(4) 0.5617(4) -0.8177(4)
C14 C 0.9219(4) 0.4907(4) -0.3452(3)
C15 C 1.0182(4) 0.3666(3) -0.6650(3)
C16 C 1.0363(3) 0.4382(3) -0.8357(3)
C17 C 0.5833(5) 0.4705(4) -0.0978(5)
H11 H 0.579 0.5336 -0.1192
C18 C 0.6101(5) 0.4072(5) -0.0145(4)
H12 H 0.6273 0.418 0.0324
C19 C 0.6065(4) 0.3234(4) -0.0135(4)
H13 H 0.6222 0.2675 0.0355
C20 C 0.8235(4) 0.1834(6) -0.0960(5)
H14 H 0.8824 0.2031 -0.0994
C21 C 0.7987(5) 0.0969(5) -0.0704(5)
H15 H 0.8366 0.0454 -0.053
C22 C 0.7043(4) 0.1006(4) -0.0753(5)
H16 H 0.6682 0.0505 -0.0611
C23 C 0.2923(5) 0.3562(6) -0.2064(6)
H17 H 0.2552 0.404 -0.2455
C24 C 0.2649(5) 0.2789(6) -0.1364(6)
H18 H 0.2054 0.2615 -0.1165
C25 C 0.3432(4) 0.2296(5) -0.0991(5)
H19 H 0.3448 0.1719 -0.0486
C26 C 0.6289(4) 0.6970(6) -1.0690(6)
H20 H 0.5704 0.7197 -1.0862
C27 C 0.6517(5) 0.6145(5) -1.0019(5)
H21 H 0.6125 0.569 -0.9625
C28 C 0.7444(4) 0.6107(4) -1.0031(4)
H22 H 0.7792 0.5607 -0.9637
C29 C 1.1553(7) 0.8420(8) -1.1266(6)
H23 H 1.1921 0.8808 -1.117
C30 C 1.1819(6) 0.7889(7) -1.1612(7)
H24 H 1.2402 0.7822 -1.1814
C31 C 1.1038(5) 0.7438(5) -1.1614(6)
H25 H 1.1022 0.7003 -1.1818
C32 C 0.8963(5) 0.8787(4) -1.2874(4)
H26 H 0.9444 0.9042 -1.2736
C33 C 0.1710(8) -0.1832(7) 0.5543(7)
H27 H 0.1225 -0.2187 0.557
C34 C 0.2484(9) -0.2147(5) 0.5975(6)
H28 H 0.2646 -0.2752 0.6366
C35 C 0.2998(6) -0.1369(5) 0.5712(5)
H29 H 0.3586 -0.1379 0.5893
C36 C 0.0566(5) 0.1254(6) 0.5965(5)
H30 H 0.0049 0.1602 0.5951
C37 C 0.0905(5) 0.0545(6) 0.6711(5)
H31 H 0.0679 0.0298 0.7307
C38 C 0.1675(4) 0.0269(5) 0.6382(4)
H32 H 0.2067 -0.0208 0.6741
C39 C 0.2655(5) 0.3481(4) 0.2828(5)
H33 H 0.247 0.3962 0.228
C40 C 0.3181(7) 0.3543(5) 0.3440(6)
H34 H 0.3426 0.407 0.3401
C41 C 0.3276(6) 0.2644(5) 0.4142(5)
H35 H 0.3608 0.2469 0.4661
C42 C 0.6625(7) 0.7170(6) -0.6203(6)
H36 H 0.612 0.7552 -0.6439
C43 C 0.7491(7) 0.7426(5) -0.6379(6)
H37 H 0.7708 0.8011 -0.6751
C44 C 0.7996(6) 0.6627(5) -0.5884(6)
H38 H 0.8626 0.6592 -0.5874
C45 C 0.7905(6) 0.1765(5) -0.3327(7)
H39 H 0.7635 0.12 -0.3119
C46 C 0.8692(6) 0.1914(5) -0.3113(5)
H40 H 0.9098 0.1474 -0.2725
C47 C 0.8811(5) 0.2845(5) -0.3570(5)
H41 H 0.9321 0.314 -0.3537
C48 C 0.6422(5) 0.3953(5) -0.3310(4)
H42 H 0.6912 0.3901 -0.2957
W2A W 1.006190(12) 0.491050(12) -0.241980(11)
Cu1A Cu 0.45425(4) -0.23440(4) 0.12333(4)
Cu2A Cu 1.09273(4) 0.27527(4) -0.89916(4)
Cu3A Cu 0.72359(4) -0.07169(4) 0.53513(4)
N6A N 0.3796(3) 0.0524(3) 0.5692(3)
N8A N 0.5207(3) 0.1435(3) -0.1668(3)
N16A N 0.9420(3) 0.6041(3) -1.1294(3)
C14A C 1.0781(4) 0.5093(4) -0.6548(3)
O5 O 0.1273(4) 0.1252(5) 0.0710(5)
H43 H 0.0899 0.0975 0.0515
H44 H 0.1701 0.0917 0.1113
O6 O 0.5231(4) 0.3957(4) 0.4911(4)
H45 H 0.571 0.4289 0.502
H46 H 0.5435 0.3351 0.5224
O7 O 0.5341(4) 0.4693(4) 0.3029(4)
H47 H 0.5499 0.4312 0.3626
H48 H 0.5576 0.4341 0.2767
O8 O 0.6141(3) 0.3787(3) 0.2136(4)
H49 H 0.678 0.3834 0.2176
H50 H 0.6148 0.3289 0.2
O9 O 0.1133(5) 0.0934(4) 0.8784(5)
H51 H 0.0913 0.15 0.8411
H52 H 0.1657 0.0785 0.859
O10 O 0.0059(8) 0.0533(8) 0.0265(8)
H53 H 0.023 0.0699 -0.0358
H54 H -0.0159 -0.0072 0.0629
loop_
_geom_bond_atom_site_label_1
_geom_bond_atom_site_label_2
_geom_bond_site_symmetry_1
_geom_bond_site_symmetry_2
W1 C1 1_555 1_555
W2 C9 1_555 1_555
Cu1 O4 1_555 1_555
Cu2 O1 1_555 1_555
Cu3 N2 1_555 1_555
Cu4 O3 1_555 1_555
O1 C32 1_555 1_555
O2 C32 1_555 1_555
O3 C48 1_555 1_555
O4 C48 1_555 1_555
N1 C1 1_555 1_555
N2 C2 1_555 1_555
N3 C3 1_555 1_555
N4 Cu1 1_555 1_555
N5 C5 1_555 1_555
N6 C6 1_555 1_555
N7 C7 1_555 1_555
N8 C8 1_555 1_555
N9 C9 1_555 1_555
N10 Cu4 1_555 1_555
N11 C11 1_555 1_555
N12 Cu2 1_555 1_555
N13 C13 1_555 1_555
N14 Cu4 1_555 1_555
N15 C15 1_555 1_555
N16 C16 1_555 1_555
N17 Cu1 1_555 1_555
N18 N17 1_555 1_555
H1 N18 1_555 1_555
N19 Cu1 1_555 1_555
N20 N19 1_555 1_555
H2 N20 1_555 1_555
N21 Cu1 1_555 1_555
N22 N21 1_555 1_555
H3 N22 1_555 1_555
N23 Cu2 1_555 1_555
N24 N23 1_555 1_555
H4 N24 1_555 1_555
N25 Cu2 1_555 1_555
N26 N25 1_555 1_555
H5 N26 1_555 1_555
N27 Cu3 1_555 1_555
N28 N27 1_555 1_555
H6 N28 1_555 1_555
N29 Cu3 1_555 1_555
N30 N29 1_555 1_555
H7 N30 1_555 1_555
N31 Cu3 1_555 1_555
N32 N31 1_555 1_555
H8 N32 1_555 1_555
N33 Cu4 1_555 1_555
N34 N33 1_555 1_555
H9 N34 1_555 1_555
N35 Cu4 1_555 1_555
N36 N35 1_555 1_555
H10 N36 1_555 1_555
C2 W1 1_555 1_555
C3 W1 1_555 1_555
C4 W1 1_555 1_555
C5 W1 1_555 1_555
C6 W1 1_555 1_555
C7 W1 1_555 1_555
C8 W1 1_555 1_555
C10 W2 1_555 1_555
C11 W2 1_555 1_555
C12 W2 1_555 1_555
C13 W2 1_555 1_555
C14 N14 1_555 1_555
C15 W2 1_555 1_555
C16 W2 1_555 1_555
C17 N18 1_555 1_555
H11 C17 1_555 1_555
C18 C17 1_555 1_555
H12 C18 1_555 1_555
C19 N17 1_555 1_555
H13 C19 1_555 1_555
C20 N20 1_555 1_555
H14 C20 1_555 1_555
C21 C20 1_555 1_555
H15 C21 1_555 1_555
C22 N19 1_555 1_555
H16 C22 1_555 1_555
C23 N22 1_555 1_555
H17 C23 1_555 1_555
C24 C23 1_555 1_555
H18 C24 1_555 1_555
C25 N21 1_555 1_555
H19 C25 1_555 1_555
C26 N24 1_555 1_555
H20 C26 1_555 1_555
C27 C26 1_555 1_555
H21 C27 1_555 1_555
C28 N23 1_555 1_555
H22 C28 1_555 1_555
C29 N26 1_555 1_555
H23 C29 1_555 1_555
C30 C29 1_555 1_555
H24 C30 1_555 1_555
C31 N25 1_555 1_555
H25 C31 1_555 1_555
C32 H26 1_555 1_555
C33 N28 1_555 1_555
H27 C33 1_555 1_555
C34 C33 1_555 1_555
H28 C34 1_555 1_555
C35 N27 1_555 1_555
H29 C35 1_555 1_555
C36 N30 1_555 1_555
H30 C36 1_555 1_555
C37 C36 1_555 1_555
H31 C37 1_555 1_555
C38 N29 1_555 1_555
H32 C38 1_555 1_555
C39 N32 1_555 1_555
H33 C39 1_555 1_555
C40 C39 1_555 1_555
H34 C40 1_555 1_555
C41 N31 1_555 1_555
H35 C41 1_555 1_555
C42 N34 1_555 1_555
H36 C42 1_555 1_555
C43 C42 1_555 1_555
H37 C43 1_555 1_555
C44 N33 1_555 1_555
H38 C44 1_555 1_555
C45 N36 1_555 1_555
H39 C45 1_555 1_555
C46 C45 1_555 1_555
H40 C46 1_555 1_555
C47 N35 1_555 1_555
H41 C47 1_555 1_555
C48 H42 1_555 1_555
O5 H43 1_555 1_555
H44 O5 1_555 1_555
O6 H45 1_555 1_555
H46 O6 1_555 1_555
O7 H47 1_555 1_555
H48 O7 1_555 1_555
O8 H49 1_555 1_555
H50 O8 1_555 1_555
O9 H51 1_555 1_555
H52 O9 1_555 1_555
O10 H53 1_555 1_555
H54 O10 1_555 1_555
W2A C14 1_555 1_555
Cu1A N8 1_555 1_555
Cu2A N16 1_555 1_555
Cu3A N6 1_555 1_555
N6A Cu3 1_555 1_555
N8A Cu1 1_555 1_555
N16A Cu2 1_555 1_555
C14A W2 1_555 1_555
N4 C4 1_555 1_555
N10 C10 1_555 1_555
N12 C12 1_555 1_555
C18 C19 1_555 1_555
C21 C22 1_555 1_555
C24 C25 1_555 1_555
C27 C28 1_555 1_555
C30 C31 1_555 1_555
C34 C35 1_555 1_555
C37 C38 1_555 1_555
C40 C41 1_555 1_555
C43 C44 1_555 1_555
C46 C47 1_555 1_555

#END
