
#######################################################################
#
#                 Cambridge Crystallographic Data Centre
#                                CCDC 
#
#######################################################################
#
# If this CIF has been generated from an entry in the Cambridge 
# Structural Database, then it will include bibliographic, chemical, 
# crystal, experimental, refinement or atomic coordinate data resulting 
# from the CCDC's data processing and validation procedures.
#
#######################################################################

data_XEHFUL01
_symmetry_cell_setting           orthorhombic
_symmetry_space_group_name_H-M   'C 2 2 21'
_symmetry_Int_Tables_number      20
_space_group_name_Hall           'C 2n 2'
loop_
_symmetry_equiv_pos_site_id
_symmetry_equiv_pos_as_xyz
1 x,y,z
2 -x,-y,1/2+z
3 x,-y,-z
4 -x,y,1/2-z
5 1/2+x,1/2+y,z
6 1/2-x,1/2-y,1/2+z
7 1/2+x,1/2-y,-z
8 1/2-x,1/2+y,1/2-z
_cell_length_a                   7.8177(7)
_cell_length_b                   14.9430(10)
_cell_length_c                   9.4845(7)
_cell_angle_alpha                90
_cell_angle_beta                 90
_cell_angle_gamma                90
_cell_volume                     1107.98
loop_
_atom_site_label
_atom_site_type_symbol
_atom_site_fract_x
_atom_site_fract_y
_atom_site_fract_z
Y1 Y 0.0000 0.2932(5) 0.2500
Y2 Y 0.0000 0.7074(5) 0.2500
C1 C -0.1000(10) 0.5070(10) 0.253(5)
O1 O -0.169(2) 0.4290(9) 0.246(3)
O2 O -0.166(3) 0.5815(9) 0.283(2)
C2 C -0.3080(10) 0.2250(10) 0.503(2)
O3 O -0.253(2) 0.2630(10) 0.3870(10)
O4 O -0.4502(9) 0.1851(6) 0.505(2)
O5 O -0.230(2) 0.2370(10) 0.6230(10)
O6 O 0.0000 0.143(3) 0.2500
O7 O 0.0000 0.871(3) 0.2500
C1C C 0.1000(10) 0.5070(10) 0.247(5)
O1C O 0.169(2) 0.4290(9) 0.254(3)
O2C O 0.166(3) 0.5815(9) 0.217(2)
C2C C 0.3080(10) 0.2250(10) -0.003(2)
O3C O 0.253(2) 0.2630(10) 0.1130(10)
O4C O 0.4502(9) 0.1851(6) -0.005(2)
O5C O 0.230(2) 0.2370(10) -0.1230(10)
O4E O -0.0498(9) 0.3149(6) 0.005(2)
O4F O 0.0498(9) 0.3149(6) 0.495(2)
O5E O -0.270(2) 0.2630(10) 0.1230(10)
O5F O 0.270(2) 0.2630(10) 0.3770(10)
O3D O 0.247(2) 0.7630(10) 0.3870(10)
O3G O -0.247(2) 0.7630(10) 0.1130(10)
O4D O 0.0498(9) 0.6851(6) 0.505(2)
O4G O -0.0498(9) 0.6851(6) -0.005(2)
O5A O 0.230(2) 0.7630(10) 0.1230(10)
O5B O -0.230(2) 0.7630(10) 0.3770(10)
Y2D Y -0.5000 0.2074(5) 0.2500
Y1E Y -0.5000 0.2068(5) 0.7500
Y2A Y 0.0000 0.2926(5) 0.7500
Y2D_2 Y 0.5000 0.2074(5) 0.2500
Y1E_2 Y 0.5000 0.2068(5) -0.2500
Y2A_2 Y 0.0000 0.2926(5) -0.2500
loop_
_geom_bond_atom_site_label_1
_geom_bond_atom_site_label_2
_geom_bond_site_symmetry_1
_geom_bond_site_symmetry_2
Y1 O1 1_555 1_555
Y2 O2 1_555 1_555
C1 O1 1_555 1_555
O2 C1 1_555 1_555
C2 O3 1_555 1_555
O3 Y1 1_555 1_555
O4 C2 1_555 1_555
O5 C2 1_555 1_555
O6 Y1 1_555 1_555
O7 Y2 1_555 1_555
C1C C1 1_555 1_555
O1C Y1 1_555 1_555
O2C Y2 1_555 1_555
C2C O3C 1_555 1_555
O3C Y1 1_555 1_555
O4C C2C 1_555 1_555
O5C C2C 1_555 1_555
O4E Y1 1_555 1_555
O4F Y1 1_555 1_555
O5E Y1 1_555 1_555
O5F Y1 1_555 1_555
O3D Y2 1_555 1_555
O3G Y2 1_555 1_555
O4D Y2 1_555 1_555
O4G Y2 1_555 1_555
O5A Y2 1_555 1_555
O5B Y2 1_555 1_555
Y2D O3 1_555 1_555
Y1E O4 1_555 1_555
Y2A O5 1_555 1_555
Y2D_2 O3C 1_555 1_555
Y1E_2 O4C 1_555 1_555
Y2A_2 O5C 1_555 1_555
O4 Y2D 1_555 1_555
O5 Y1E 1_555 1_555
C1C O1C 1_555 1_555
C1C O2C 1_555 1_555
O4C Y2D_2 1_555 1_555
O5C Y1E_2 1_555 1_555
O4E Y2A_2 1_555 1_555
O4F Y2A 1_555 1_555
O5E Y2D 1_555 1_555
O5F Y2D_2 1_555 1_555

#END
