
#######################################################################
#
#                 Cambridge Crystallographic Data Centre
#                                CCDC 
#
#######################################################################
#
# If this CIF has been generated from an entry in the Cambridge 
# Structural Database, then it will include bibliographic, chemical, 
# crystal, experimental, refinement or atomic coordinate data resulting 
# from the CCDC's data processing and validation procedures.
#
#######################################################################

data_XEHFOH
_symmetry_cell_setting           monoclinic
_symmetry_space_group_name_H-M   'P 21/m'
_symmetry_Int_Tables_number      11
_space_group_name_Hall           '-P 2yb'
loop_
_symmetry_equiv_pos_site_id
_symmetry_equiv_pos_as_xyz
1 x,y,z
2 -x,1/2+y,-z
3 -x,-y,-z
4 x,1/2-y,z
_cell_length_a                   5.5325(7)
_cell_length_b                   15.434(2)
_cell_length_c                   7.7007(10)
_cell_angle_alpha                90
_cell_angle_beta                 91.425(2)
_cell_angle_gamma                90
_cell_volume                     657.349
loop_
_atom_site_label
_atom_site_type_symbol
_atom_site_fract_x
_atom_site_fract_y
_atom_site_fract_z
Cu1 Cu 1.04553(7) 0.34902(2) 0.61522(5)
I1 I 1.00747(5) 0.2500 0.91038(3)
N1 N 0.7185(4) 0.56260(15) 0.3144(3)
N2 N 0.8244(4) 0.29461(15) 0.4522(3)
C1 C 0.7546(5) 0.47817(18) 0.3476(4)
H1 H 0.8994 0.4623 0.4027
C2 C 0.5099(5) 0.58492(19) 0.2322(4)
H2 H 0.4806 0.6431 0.2079
C3 C 0.3390(5) 0.52442(19) 0.1830(4)
H3 H 0.1981 0.5418 0.1246
C4 C 0.3767(5) 0.43762(19) 0.2206(4)
H4 H 0.2608 0.3964 0.1896
C5 C 0.5910(5) 0.41313(18) 0.3056(3)
C6 C 0.6420(5) 0.32115(18) 0.3446(4)
C7 C 0.5224(7) 0.2500 0.2771(6)
H5 H 0.3886 0.2500 0.2015
Cu1B Cu 0.95447(7) 0.65098(2) 0.38478(5)
Cu1A Cu 0.95447(7) -0.15098(2) 0.38478(5)
Cu1C Cu 1.04553(7) 0.15098(2) 0.61522(5)
I1A I 0.99253(5) 0.7500 0.08962(3)
N1C N 0.7185(4) -0.06260(15) 0.3144(3)
N1B N 1.2815(4) 0.43740(15) 0.6856(3)
N2C N 0.8244(4) 0.20539(15) 0.4522(3)
N2B N 1.1756(4) 0.70539(15) 0.5478(3)
C1C C 0.7546(5) 0.02183(18) 0.3476(4)
H1C H 0.8994 0.0377 0.4027
C2C C 0.5099(5) -0.08492(19) 0.2322(4)
H2C H 0.4806 -0.1431 0.2079
C3C C 0.3390(5) -0.02442(19) 0.1830(4)
H3C H 0.1981 -0.0418 0.1246
C4C C 0.3767(5) 0.06238(19) 0.2206(4)
H4C H 0.2608 0.1036 0.1896
C5C C 0.5910(5) 0.08687(18) 0.3056(3)
C6C C 0.6420(5) 0.17885(18) 0.3446(4)
loop_
_geom_bond_atom_site_label_1
_geom_bond_atom_site_label_2
_geom_bond_site_symmetry_1
_geom_bond_site_symmetry_2
Cu1 I1 1_555 1_555
I1 Cu1C 1_555 1_555
N1 C1 1_555 1_555
N2 Cu1 1_555 1_555
C1 H1 1_555 1_555
C2 N1 1_555 1_555
H2 C2 1_555 1_555
C3 C2 1_555 1_555
H3 C3 1_555 1_555
C4 C3 1_555 1_555
H4 C4 1_555 1_555
C5 C1 1_555 1_555
C6 N2 1_555 1_555
C7 C6 1_555 1_555
H5 C7 1_555 1_555
Cu1B N1 1_555 1_555
Cu1A N1C 1_555 1_555
Cu1C N2C 1_555 1_555
I1A Cu1B 1_555 1_555
N1C C1C 1_555 1_555
N1B Cu1 1_555 1_555
N2C N2 1_555 1_555
N2B Cu1B 1_555 1_555
C1C H1C 1_555 1_555
C2C N1C 1_555 1_555
H2C C2C 1_555 1_555
C3C C2C 1_555 1_555
H3C C3C 1_555 1_555
C4C C3C 1_555 1_555
H4C C4C 1_555 1_555
C5C C1C 1_555 1_555
C6C C7 1_555 1_555
C4 C5 1_555 1_555
C5 C6 1_555 1_555
N2C C6C 1_555 1_555
C4C C5C 1_555 1_555
C5C C6C 1_555 1_555

#END
