
#######################################################################
#
#                 Cambridge Crystallographic Data Centre
#                                CCDC 
#
#######################################################################
#
# If this CIF has been generated from an entry in the Cambridge 
# Structural Database, then it will include bibliographic, chemical, 
# crystal, experimental, refinement or atomic coordinate data resulting 
# from the CCDC's data processing and validation procedures.
#
#######################################################################

data_XEHGAU
_symmetry_cell_setting           triclinic
_symmetry_space_group_name_H-M   'P -1'
_symmetry_Int_Tables_number      2
_space_group_name_Hall           '-P 1'
loop_
_symmetry_equiv_pos_site_id
_symmetry_equiv_pos_as_xyz
1 x,y,z
2 -x,-y,-z
_cell_length_a                   8.8528(18)
_cell_length_b                   9.3074(19)
_cell_length_c                   9.786(2)
_cell_angle_alpha                62.417(3)
_cell_angle_beta                 76.962(3)
_cell_angle_gamma                66.016(3)
_cell_volume                     652.283
loop_
_atom_site_label
_atom_site_type_symbol
_atom_site_fract_x
_atom_site_fract_y
_atom_site_fract_z
Cu1 Cu 0.73419(5) 0.18312(5) 0.08060(4)
Cu2 Cu 0.73923(5) 0.00810(5) 0.45279(4)
Cl1 Cl 0.68839(12) -0.06876(11) 0.26953(10)
N1 N 0.7646(4) 0.8240(3) -0.3400(3)
N2 N 0.7333(3) 0.3203(3) 0.1818(3)
N3 N 0.7346(3) 0.2422(3) 0.3392(3)
N4 N 0.7560(4) 0.2060(4) 0.8694(3)
C1 C 0.8378(4) 0.7093(4) -0.0801(3)
H1 H 0.8913 0.7127 -0.0106
C2 C 0.8401(4) 0.8194(4) -0.2340(4)
H2 H 0.8976 0.8948 -0.2657
C3 C 0.6821(4) 0.7145(4) -0.2918(4)
H3 H 0.6279 0.7160 -0.3638
C4 C 0.6744(4) 0.5989(4) -0.1386(3)
H4 H 0.6152 0.5257 -0.1095
C5 C 0.7554(4) 0.5930(4) -0.0289(3)
C6 C 0.7530(4) 0.4720(4) 0.1351(3)
C7 C 0.7699(4) 0.4936(4) 0.2615(3)
H5 H 0.7877 0.5854 0.2615
C8 C 0.7543(4) 0.3481(4) 0.3868(3)
C9 C 0.7549(4) 0.2991(4) 0.5538(3)
C10 C 0.8781(5) 0.3049(5) 0.6138(4)
H6 H 0.9628 0.3404 0.5493
C11 C 0.8745(5) 0.2575(5) 0.7704(4)
H7 H 0.9588 0.2616 0.8090
C12 C 0.6392(5) 0.1972(4) 0.8112(4)
H8 H 0.5573 0.1584 0.8783
C13 C 0.6339(4) 0.2429(4) 0.6560(3)
H9 H 0.5493 0.2359 0.6204
Cu1_2 Cu 0.73419(5) 0.18312(5) 1.08060(4)
Cu2_2 Cu 0.73923(5) 1.00810(5) -0.54721(4)
N1_2 N 0.7646(4) -0.1760(3) 0.6600(3)
N4_2 N 0.7560(4) 0.2060(4) -0.1306(3)
loop_
_geom_bond_atom_site_label_1
_geom_bond_atom_site_label_2
_geom_bond_site_symmetry_1
_geom_bond_site_symmetry_2
Cu1 Cl1 1_555 1_555
Cu2 Cl1 1_555 1_555
N1 C2 1_555 1_555
N2 Cu1 1_555 1_555
N3 Cu2 1_555 1_555
N4 C11 1_555 1_555
C1 H1 1_555 1_555
C2 C1 1_555 1_555
H2 C2 1_555 1_555
C3 N1 1_555 1_555
H3 C3 1_555 1_555
C4 C3 1_555 1_555
H4 C4 1_555 1_555
C5 C1 1_555 1_555
C6 N2 1_555 1_555
C7 C6 1_555 1_555
H5 C7 1_555 1_555
C8 N3 1_555 1_555
C9 C8 1_555 1_555
C10 C9 1_555 1_555
H6 C10 1_555 1_555
C11 C10 1_555 1_555
H7 C11 1_555 1_555
C12 N4 1_555 1_555
H8 C12 1_555 1_555
C13 C9 1_555 1_555
H9 C13 1_555 1_555
Cu1_2 N4 1_555 1_555
Cu2_2 N1 1_555 1_555
N1_2 Cu2 1_555 1_555
N4_2 Cu1 1_555 1_555
N2 N3 1_555 1_555
C4 C5 1_555 1_555
C5 C6 1_555 1_555
C7 C8 1_555 1_555
C12 C13 1_555 1_555

#END
