
#######################################################################
#
#                 Cambridge Crystallographic Data Centre
#                                CCDC 
#
#######################################################################
#
# If this CIF has been generated from an entry in the Cambridge 
# Structural Database, then it will include bibliographic, chemical, 
# crystal, experimental, refinement or atomic coordinate data resulting 
# from the CCDC's data processing and validation procedures.
#
#######################################################################

data_XEHGOI
_symmetry_cell_setting           monoclinic
_symmetry_space_group_name_H-M   'C 2/c'
_symmetry_Int_Tables_number      15
_space_group_name_Hall           '-C 2yn'
loop_
_symmetry_equiv_pos_site_id
_symmetry_equiv_pos_as_xyz
1 x,y,z
2 -x,y,1/2-z
3 1/2+x,1/2+y,z
4 1/2-x,1/2+y,1/2-z
5 -x,-y,-z
6 x,-y,1/2+z
7 1/2-x,1/2-y,-z
8 1/2+x,1/2-y,1/2+z
_cell_length_a                   15.2169(16)
_cell_length_b                   12.7604(14)
_cell_length_c                   14.1543(15)
_cell_angle_alpha                90
_cell_angle_beta                 95.614(2)
_cell_angle_gamma                90
_cell_volume                     2735.21
loop_
_atom_site_label
_atom_site_type_symbol
_atom_site_fract_x
_atom_site_fract_y
_atom_site_fract_z
Cu1 Cu 0.11315(2) 0.26356(3) 0.61928(3)
Cu2 Cu -0.07312(2) 0.35742(3) 0.51098(3)
Cu3 Cu 0.0000 0.34225(5) 0.7500
Cl1 Cl 0.03310(4) 0.44511(6) 0.62634(5)
Cl2 Cl 0.0000 0.17025(10) 0.7500
N1 N -0.01417(13) 0.24297(16) 0.45804(16)
N2 N 0.06340(13) 0.20508(17) 0.50165(15)
N3 N -0.28211(15) 0.21652(19) 0.20827(16)
N4 N 0.31629(14) -0.06702(18) 0.51315(16)
C1 C 0.24016(16) 0.0953(2) 0.52411(19)
H1 H 0.2423 0.1651 0.5429
C2 C 0.31440(16) 0.0333(2) 0.53935(19)
H2 H 0.3656 0.0628 0.5693
C3 C 0.24022(18) -0.1079(2) 0.4725(2)
H3 H 0.2398 -0.1780 0.4546
C4 C 0.16314(17) -0.0516(2) 0.45587(18)
H4 H 0.1121 -0.0837 0.4282
C5 C 0.16224(16) 0.0534(2) 0.48070(17)
C6 C 0.08197(16) 0.1148(2) 0.45727(18)
C7 C 0.01539(17) 0.0929(2) 0.38599(19)
H5 H 0.0109 0.0350 0.3458
C8 C -0.04241(16) 0.1754(2) 0.38776(18)
C9 C -0.12428(16) 0.1916(2) 0.32568(18)
C10 C -0.17348(18) 0.1059(2) 0.28962(19)
H6 H -0.1542 0.0382 0.3046
C11 C -0.25027(18) 0.1211(2) 0.2321(2)
H7 H -0.2817 0.0627 0.2085
C12 C -0.23394(18) 0.2993(2) 0.2419(2)
H8 H -0.2546 0.3662 0.2258
C13 C -0.15579(18) 0.2901(2) 0.2989(2)
H9 H -0.1243 0.3497 0.3194
Cu1A Cu -0.11315(2) 0.26356(3) 0.88072(3)
Cu1G Cu -0.38685(2) 0.23644(3) 0.11928(3)
Cu1G_2 Cu 0.61315(2) 0.23644(3) 1.11928(3)
Cu2A Cu 0.07312(2) 0.35742(3) 0.98902(3)
Cu2B Cu 0.42688(2) -0.14258(3) 0.51098(3)
Cu2G Cu 0.42688(2) 0.14258(3) 1.01098(3)
Cu2E Cu 0.92688(2) 0.64258(3) 1.01098(3)
Cl1A Cl -0.03310(4) 0.44511(6) 0.87366(5)
N1G N 0.48583(13) 0.25703(16) 0.95804(16)
N1A N 0.01417(13) 0.24297(16) 1.04196(16)
N2G N 0.56340(13) 0.29492(17) 1.00165(15)
N2A N -0.06340(13) 0.20508(17) 0.99835(15)
N3G N 0.21789(15) 0.28348(19) 0.70827(16)
N3F N -0.21789(15) 0.28348(19) 0.79173(16)
N4G N 0.81629(14) 0.56702(18) 1.01315(16)
N4B N -0.18371(14) 0.43298(18) 0.51315(16)
N4C N 0.18371(14) 0.43298(18) 0.98685(16)
C1G C 0.74016(16) 0.4047(2) 1.02411(19)
H1G H 0.7423 0.3349 1.0429
C2G C 0.81440(16) 0.4667(2) 1.03935(19)
H2G H 0.8656 0.4372 1.0693
C3G C 0.74022(18) 0.6079(2) 0.9725(2)
H3G H 0.7398 0.6780 0.9546
C4G C 0.66314(17) 0.5516(2) 0.95587(18)
H4G H 0.6121 0.5837 0.9282
C5G C 0.66224(16) 0.4466(2) 0.98070(17)
C6G C 0.58197(16) 0.3852(2) 0.95727(18)
C7G C 0.51539(17) 0.4071(2) 0.88599(19)
H5G H 0.5109 0.4650 0.8458
C8G C 0.45759(16) 0.3246(2) 0.88776(18)
C9G C 0.37572(16) 0.3084(2) 0.82568(18)
C10G C 0.32652(18) 0.3941(2) 0.78962(19)
H6G H 0.3458 0.4618 0.8046
C11G C 0.24973(18) 0.3789(2) 0.7321(2)
H7G H 0.2183 0.4373 0.7085
C12G C 0.26606(18) 0.2007(2) 0.7419(2)
H8G H 0.2454 0.1338 0.7258
C13G C 0.34421(18) 0.2099(2) 0.7989(2)
H9G H 0.3757 0.1503 0.8194
loop_
_geom_bond_atom_site_label_1
_geom_bond_atom_site_label_2
_geom_bond_site_symmetry_1
_geom_bond_site_symmetry_2
Cu1 Cl1 1_555 1_555
Cu2 Cl1 1_555 1_555
Cu3 Cl1 1_555 1_555
Cl2 Cu3 1_555 1_555
N1 Cu2 1_555 1_555
N2 Cu1 1_555 1_555
N3 C11 1_555 1_555
N4 C2 1_555 1_555
C1 H1 1_555 1_555
C2 C1 1_555 1_555
H2 C2 1_555 1_555
C3 N4 1_555 1_555
H3 C3 1_555 1_555
C4 C3 1_555 1_555
H4 C4 1_555 1_555
C5 C1 1_555 1_555
C6 N2 1_555 1_555
C7 C6 1_555 1_555
H5 C7 1_555 1_555
C8 N1 1_555 1_555
C9 C8 1_555 1_555
C10 C9 1_555 1_555
H6 C10 1_555 1_555
C11 C10 1_555 1_555
H7 C11 1_555 1_555
C12 N3 1_555 1_555
H8 C12 1_555 1_555
C13 C9 1_555 1_555
H9 C13 1_555 1_555
Cu1A Cl1A 1_555 1_555
Cu1G N3 1_555 1_555
Cu1G_2 N2G 1_555 1_555
Cu2A Cl1A 1_555 1_555
Cu2B N4 1_555 1_555
Cu2G N1G 1_555 1_555
Cu2E N4G 1_555 1_555
Cl1A Cu3 1_555 1_555
N1G N2G 1_555 1_555
N1A Cu2A 1_555 1_555
N2G C6G 1_555 1_555
N2A Cu1A 1_555 1_555
N3G Cu1 1_555 1_555
N3F Cu1A 1_555 1_555
N4G C2G 1_555 1_555
N4B Cu2 1_555 1_555
N4C Cu2A 1_555 1_555
C1G H1G 1_555 1_555
C2G C1G 1_555 1_555
H2G C2G 1_555 1_555
C3G N4G 1_555 1_555
H3G C3G 1_555 1_555
C4G C3G 1_555 1_555
H4G C4G 1_555 1_555
C5G C1G 1_555 1_555
C6G C5G 1_555 1_555
C7G C6G 1_555 1_555
H5G C7G 1_555 1_555
C8G N1G 1_555 1_555
C9G C8G 1_555 1_555
C10G C9G 1_555 1_555
H6G C10G 1_555 1_555
C11G N3G 1_555 1_555
H7G C11G 1_555 1_555
C12G N3G 1_555 1_555
H8G C12G 1_555 1_555
C13G C9G 1_555 1_555
H9G C13G 1_555 1_555
N1 N2 1_555 1_555
C4 C5 1_555 1_555
C5 C6 1_555 1_555
C7 C8 1_555 1_555
C12 C13 1_555 1_555
N1A N2A 1_555 1_555
C4G C5G 1_555 1_555
C7G C8G 1_555 1_555
C10G C11G 1_555 1_555
C12G C13G 1_555 1_555

#END
