
#######################################################################
#
#                 Cambridge Crystallographic Data Centre
#                                CCDC 
#
#######################################################################
#
# If this CIF has been generated from an entry in the Cambridge 
# Structural Database, then it will include bibliographic, chemical, 
# crystal, experimental, refinement or atomic coordinate data resulting 
# from the CCDC's data processing and validation procedures.
#
#######################################################################

data_XEHGIC
_symmetry_cell_setting           monoclinic
_symmetry_space_group_name_H-M   'C 2/c'
_symmetry_Int_Tables_number      15
_space_group_name_Hall           '-C 2yn'
loop_
_symmetry_equiv_pos_site_id
_symmetry_equiv_pos_as_xyz
1 x,y,z
2 -x,y,1/2-z
3 1/2+x,1/2+y,z
4 1/2-x,1/2+y,1/2-z
5 -x,-y,-z
6 x,-y,1/2+z
7 1/2-x,1/2-y,-z
8 1/2+x,1/2-y,1/2+z
_cell_length_a                   15.1822(16)
_cell_length_b                   12.9042(14)
_cell_length_c                   14.4740(16)
_cell_angle_alpha                90
_cell_angle_beta                 95.845(2)
_cell_angle_gamma                90
_cell_volume                     2820.92
loop_
_atom_site_label
_atom_site_type_symbol
_atom_site_fract_x
_atom_site_fract_y
_atom_site_fract_z
Cu1 Cu -0.07936(2) 0.85773(3) 1.01078(3)
Cu2 Cu 0.11032(2) 0.76528(3) 1.11938(3)
Cu3 Cu 0.0000 0.84334(4) 1.2500
Br1 Br 0.034341(18) 0.95303(2) 1.12525(2)
Br2 Br 0.0000 0.66338(3) 1.2500
N1 N -0.01875(14) 0.74476(16) 0.96001(16)
N2 N 0.05885(13) 0.70734(17) 1.00369(16)
N3 N 0.31042(15) 0.43368(18) 1.01616(18)
N4 N -0.28291(15) 0.71698(19) 0.70635(17)
C1 C 0.23708(17) 0.5968(2) 1.0270(2)
H1 H 0.2404 0.6658 1.0456
C2 C 0.31092(18) 0.5335(2) 1.0422(2)
H2 H 0.3629 0.5613 1.0716
C3 C 0.23385(18) 0.3954(2) 0.9764(2)
H3 H 0.2322 0.3260 0.9589
C4 C 0.15766(18) 0.4524(2) 0.9597(2)
H4 H 0.1060 0.4215 0.9326
C5 C 0.15816(17) 0.55734(19) 0.98394(18)
C6 C 0.07829(16) 0.6193(2) 0.95972(18)
C7 C 0.01362(18) 0.5985(2) 0.8881(2)
H5 H 0.0105 0.5422 0.8478
C8 C -0.04569(16) 0.6799(2) 0.88947(18)
C9 C -0.12690(17) 0.6951(2) 0.82675(19)
C10 C -0.17208(19) 0.6097(2) 0.7870(2)
H6 H -0.1510 0.5431 0.8003
C11 C -0.24809(19) 0.6238(2) 0.7277(2)
H7 H -0.2766 0.5656 0.7013
C12 C -0.2390(2) 0.7987(2) 0.7447(2)
H8 H -0.2621 0.8643 0.7309
C13 C -0.16180(19) 0.7919(2) 0.8032(2)
H9 H -0.1334 0.8516 0.8266
Cu1A Cu 0.07936(2) 0.85773(3) 1.48922(3)
Cu1B Cu 0.42064(2) 0.35773(3) 1.01078(3)
Cu1B_2 Cu -0.57936(2) 1.35773(3) 1.01078(3)
Cu2A Cu -0.11032(2) 0.76528(3) 1.38062(3)
Cu2G Cu -0.38968(2) 0.73472(3) 0.61938(3)
Cu2B Cu -0.38968(2) 1.26528(3) 1.11938(3)
Cu2E Cu -0.88968(2) 1.23472(3) 0.61938(3)
Br1A Br -0.034341(18) 0.95303(2) 1.37475(2)
N1B N -0.51875(14) 1.24476(16) 0.96001(16)
N1A N 0.01875(14) 0.74476(16) 1.53999(16)
N2B N -0.44115(13) 1.20734(17) 1.00369(16)
N2A N -0.05885(13) 0.70734(17) 1.49631(16)
N3B N -0.18958(15) 0.93368(18) 1.01616(18)
N3C N 0.18958(15) 0.93368(18) 1.48384(18)
N4B N -0.78291(15) 1.21698(19) 0.70635(17)
N4G N 0.21709(15) 0.78302(19) 1.20635(17)
N4F N -0.21709(15) 0.78302(19) 1.29365(17)
C1B C -0.26292(17) 1.0968(2) 1.0270(2)
H1B H -0.2596 1.1658 1.0456
C2B C -0.18908(18) 1.0335(2) 1.0422(2)
H2B H -0.1371 1.0613 1.0716
C3B C -0.26615(18) 0.8954(2) 0.9764(2)
H3B H -0.2678 0.8260 0.9589
C4B C -0.34234(18) 0.9524(2) 0.9597(2)
H4B H -0.3940 0.9215 0.9326
C5B C -0.34184(17) 1.05734(19) 0.98394(18)
C6B C -0.42171(16) 1.1193(2) 0.95972(18)
C7B C -0.48638(18) 1.0985(2) 0.8881(2)
H5B H -0.4895 1.0422 0.8478
C8B C -0.54569(16) 1.1799(2) 0.88947(18)
C9B C -0.62690(17) 1.1951(2) 0.82675(19)
C10B C -0.67208(19) 1.1097(2) 0.7870(2)
H6B H -0.6510 1.0431 0.8003
C11B C -0.74809(19) 1.1238(2) 0.7277(2)
H7B H -0.7766 1.0656 0.7013
C12B C -0.7390(2) 1.2987(2) 0.7447(2)
H8B H -0.7621 1.3643 0.7309
C13B C -0.66180(19) 1.2919(2) 0.8032(2)
H9B H -0.6334 1.3516 0.8266
loop_
_geom_bond_atom_site_label_1
_geom_bond_atom_site_label_2
_geom_bond_site_symmetry_1
_geom_bond_site_symmetry_2
Cu1 Br1 1_555 1_555
Cu2 Br1 1_555 1_555
Cu3 Br1 1_555 1_555
Br2 Cu3 1_555 1_555
N1 Cu1 1_555 1_555
N2 Cu2 1_555 1_555
N3 C2 1_555 1_555
N4 C11 1_555 1_555
C1 H1 1_555 1_555
C2 C1 1_555 1_555
H2 C2 1_555 1_555
C3 N3 1_555 1_555
H3 C3 1_555 1_555
C4 C3 1_555 1_555
H4 C4 1_555 1_555
C5 C1 1_555 1_555
C6 N2 1_555 1_555
C7 C6 1_555 1_555
H5 C7 1_555 1_555
C8 N1 1_555 1_555
C9 C8 1_555 1_555
C10 C9 1_555 1_555
H6 C10 1_555 1_555
C11 C10 1_555 1_555
H7 C11 1_555 1_555
C12 N4 1_555 1_555
H8 C12 1_555 1_555
C13 C9 1_555 1_555
H9 C13 1_555 1_555
Cu1A Br1A 1_555 1_555
Cu1B N3 1_555 1_555
Cu1B_2 N1B 1_555 1_555
Cu2A Br1A 1_555 1_555
Cu2G N4 1_555 1_555
Cu2B N2B 1_555 1_555
Cu2E N4B 1_555 1_555
Br1A Cu3 1_555 1_555
N1B N2B 1_555 1_555
N1A Cu1A 1_555 1_555
N2B C6B 1_555 1_555
N2A Cu2A 1_555 1_555
N3B Cu1 1_555 1_555
N3C Cu1A 1_555 1_555
N4B C11B 1_555 1_555
N4G Cu2 1_555 1_555
N4F Cu2A 1_555 1_555
C1B H1B 1_555 1_555
C2B N3B 1_555 1_555
H2B C2B 1_555 1_555
C3B N3B 1_555 1_555
H3B C3B 1_555 1_555
C4B C3B 1_555 1_555
H4B C4B 1_555 1_555
C5B C1B 1_555 1_555
C6B C5B 1_555 1_555
C7B C6B 1_555 1_555
H5B C7B 1_555 1_555
C8B N1B 1_555 1_555
C9B C8B 1_555 1_555
C10B C9B 1_555 1_555
H6B C10B 1_555 1_555
C11B C10B 1_555 1_555
H7B C11B 1_555 1_555
C12B N4B 1_555 1_555
H8B C12B 1_555 1_555
C13B C9B 1_555 1_555
H9B C13B 1_555 1_555
N1 N2 1_555 1_555
C4 C5 1_555 1_555
C5 C6 1_555 1_555
C7 C8 1_555 1_555
C12 C13 1_555 1_555
N1A N2A 1_555 1_555
C1B C2B 1_555 1_555
C4B C5B 1_555 1_555
C7B C8B 1_555 1_555
C12B C13B 1_555 1_555

#END
