
#######################################################################
#
#                 Cambridge Crystallographic Data Centre
#                                CCDC 
#
#######################################################################
#
# If this CIF has been generated from an entry in the Cambridge 
# Structural Database, then it will include bibliographic, chemical, 
# crystal, experimental, refinement or atomic coordinate data resulting 
# from the CCDC's data processing and validation procedures.
#
#######################################################################

data_XEHGEY
_symmetry_cell_setting           tetragonal
_symmetry_space_group_name_H-M   'I 41/a c d'
_symmetry_Int_Tables_number      142
_space_group_name_Hall           '-I 4bd 2c'
loop_
_symmetry_equiv_pos_site_id
_symmetry_equiv_pos_as_xyz
1 x,y,z
2 1/2-x,-y,1/2+z
3 1/4-y,3/4+x,1/4+z
4 1/4+y,1/4-x,3/4+z
5 1/2-x,y,-z
6 x,-y,1/2-z
7 1/4+y,3/4+x,3/4-z
8 1/4-y,1/4-x,1/4-z
9 1/2+x,1/2+y,1/2+z
10 -x,1/2-y,z
11 3/4-y,1/4+x,3/4+z
12 3/4+y,3/4-x,1/4+z
13 -x,1/2+y,1/2-z
14 1/2+x,1/2-y,-z
15 3/4+y,1/4+x,1/4-z
16 3/4-y,3/4-x,3/4-z
17 -x,-y,-z
18 1/2+x,y,1/2-z
19 3/4+y,1/4-x,3/4-z
20 3/4-y,3/4+x,1/4-z
21 1/2+x,-y,z
22 -x,y,1/2+z
23 3/4-y,1/4-x,1/4+z
24 3/4+y,3/4+x,3/4+z
25 1/2-x,1/2-y,1/2-z
26 x,1/2+y,-z
27 1/4+y,3/4-x,1/4-z
28 1/4-y,1/4+x,3/4-z
29 x,1/2-y,1/2+z
30 1/2-x,1/2+y,z
31 1/4-y,3/4-x,3/4+z
32 1/4+y,1/4+x,1/4+z
_cell_length_a                   15.7482(9)
_cell_length_b                   15.7482(9)
_cell_length_c                   21.281(2)
_cell_angle_alpha                90
_cell_angle_beta                 90
_cell_angle_gamma                90
_cell_volume                     5277.81
loop_
_atom_site_label
_atom_site_type_symbol
_atom_site_fract_x
_atom_site_fract_y
_atom_site_fract_z
Cu1 Cu 0.351919(16) 0.297526(17) 0.043653(12)
N1 N 0.48799(13) 0.47840(11) 0.14397(9)
N2 N 0.28694(11) 0.39854(10) 0.01700(8)
N3 N 0.46451(13) 0.25932(13) 0.03818(9)
C1 C 0.53549(13) 0.24068(13) 0.03818(9)
C2 C 0.42856(17) 0.57800(17) 0.04671(12)
H1 H 0.4090 0.6119 0.0140
C3 C 0.5005(2) 0.60081(16) 0.07940(13)
H2 H 0.5296 0.6503 0.0693
C4 C 0.52846(16) 0.54952(16) 0.12701(13)
H3 H 0.5776 0.5647 0.1484
C5 C 0.41729(14) 0.45739(14) 0.11228(10)
H4 H 0.3882 0.4086 0.1243
C6 C 0.38541(14) 0.50465(14) 0.06261(10)
C7 C 0.30865(14) 0.48011(13) 0.02760(10)
C8 C 0.2500 0.53364(19) 0.0000
H5 H 0.2500 0.5927 0.0000
Cu1D Cu 0.148081(16) 0.297526(17) -0.043653(12)
Cu1Z Cu 0.547526(17) 0.398081(16) 0.206347(12)
Cu1I Cu 0.648081(16) 0.202474(17) 0.043653(12)
Cu1DA Cu -0.047526(17) 0.398081(16) -0.206347(12)
Cu1M Cu -0.148081(16) 0.202474(17) -0.043653(12)
N1D N 0.01201(13) 0.47840(11) -0.14397(9)
N1S N 0.27160(11) 0.23799(13) 0.10603(9)
N1W N 0.22840(11) 0.23799(13) -0.10603(9)
N2D N 0.21306(11) 0.39854(10) -0.01700(8)
N3D N 0.03549(13) 0.25932(13) -0.03818(9)
C1D C -0.03549(13) 0.24068(13) -0.03818(9)
C2D C 0.07144(17) 0.57800(17) -0.04671(12)
H1D H 0.0910 0.6119 -0.0140
C3D C -0.0005(2) 0.60081(16) -0.07940(13)
H2D H -0.0296 0.6503 -0.0693
C4D C -0.02846(16) 0.54952(16) -0.12701(13)
H3D H -0.0776 0.5647 -0.1484
C5D C 0.08271(14) 0.45739(14) -0.11228(10)
H4D H 0.1118 0.4086 -0.1243
C6D C 0.11459(14) 0.50465(14) -0.06261(10)
C7D C 0.19135(14) 0.48011(13) -0.02760(10)
loop_
_geom_bond_atom_site_label_1
_geom_bond_atom_site_label_2
_geom_bond_site_symmetry_1
_geom_bond_site_symmetry_2
Cu1 N2 1_555 1_555
N1 C4 1_555 1_555
N2 C7 1_555 1_555
N3 Cu1 1_555 1_555
C1 N3 1_555 1_555
C2 H1 1_555 1_555
C3 C2 1_555 1_555
H2 C3 1_555 1_555
C4 C3 1_555 1_555
H3 C4 1_555 1_555
C5 N1 1_555 1_555
H4 C5 1_555 1_555
C6 C2 1_555 1_555
C7 C6 1_555 1_555
C8 C7 1_555 1_555
H5 C8 1_555 1_555
Cu1D N1W 1_555 1_555
Cu1Z N1 1_555 1_555
Cu1I C1 1_555 1_555
Cu1DA N1D 1_555 1_555
Cu1M C1D 1_555 1_555
N1D C4D 1_555 1_555
N1S Cu1 1_555 1_555
N2D N2 1_555 1_555
N3D Cu1D 1_555 1_555
C1D N3D 1_555 1_555
C2D H1D 1_555 1_555
C3D C2D 1_555 1_555
H2D C3D 1_555 1_555
C4D C3D 1_555 1_555
H3D C4D 1_555 1_555
C5D N1D 1_555 1_555
H4D C5D 1_555 1_555
C6D C2D 1_555 1_555
C7D C8 1_555 1_555
C5 C6 1_555 1_555
Cu1D N2D 1_555 1_555
N2D C7D 1_555 1_555
C5D C6D 1_555 1_555
C6D C7D 1_555 1_555

#END
