
#######################################################################
#
#                 Cambridge Crystallographic Data Centre
#                                CCDC 
#
#######################################################################
#
# If this CIF has been generated from an entry in the Cambridge 
# Structural Database, then it will include bibliographic, chemical, 
# crystal, experimental, refinement or atomic coordinate data resulting 
# from the CCDC's data processing and validation procedures.
#
#######################################################################

data_XEHHEY
_symmetry_cell_setting           monoclinic
_symmetry_space_group_name_H-M   'C 2/c'
_symmetry_Int_Tables_number      15
_space_group_name_Hall           '-C 2yn'
loop_
_symmetry_equiv_pos_site_id
_symmetry_equiv_pos_as_xyz
1 x,y,z
2 1/2+x,1/2+y,z
3 -x,y,1/2-z
4 1/2-x,1/2+y,1/2-z
5 -x,-y,-z
6 1/2-x,1/2-y,-z
7 x,-y,1/2+z
8 1/2+x,1/2-y,1/2+z
_cell_length_a                   21.649(4)
_cell_length_b                   11.271(2)
_cell_length_c                   11.050(2)
_cell_angle_alpha                90
_cell_angle_beta                 92.59(3)
_cell_angle_gamma                90
_cell_volume                     2693.51
loop_
_atom_site_label
_atom_site_type_symbol
_atom_site_fract_x
_atom_site_fract_y
_atom_site_fract_z
Ni1 Ni 0.0000 0.05002(3) 0.2500
S1 S 0.14634(3) 0.20241(6) -0.05321(6)
N1 N 0.0000 0.23474(19) 0.2500
N2 N 0.0000 0.86487(19) 0.2500
O1 O 0.15004(8) 0.1089(2) 0.27308(17)
O2 O 0.05634(7) 0.05989(13) 0.40683(14)
H1 H 0.0636(11) 0.0061(19) 0.455(2)
H2 H 0.0912(9) 0.073(2) 0.377(2)
O3 O 0.07573(6) 0.05358(11) 0.13888(13)
C1 C 0.19654(15) 0.7095(3) 0.1132(3)
H3 H 0.1815 0.7630 0.0510
H4 H 0.2402 0.7208 0.1274
H5 H 0.1758 0.7250 0.1865
C2 C 0.18418(12) 0.5832(3) 0.0734(2)
C3 C 0.15479(12) 0.5561(3) -0.0373(3)
H6 H 0.1423 0.6174 -0.0893
C4 C 0.14359(11) 0.4399(2) -0.0721(2)
H7 H 0.1241 0.4240 -0.1471
C5 C 0.16121(10) 0.3467(2) 0.0043(2)
C6 C 0.18997(12) 0.3730(3) 0.1156(2)
H8 H 0.2013 0.3121 0.1689
C7 C 0.20176(12) 0.4891(3) 0.1475(2)
H9 H 0.2223 0.5048 0.2215
C8 C 0.17392(10) 0.1034(2) 0.0652(2)
H10 H 0.1813 0.0262 0.0299
H11 H 0.2132 0.1329 0.0983
C9 C 0.13020(10) 0.0880(2) 0.1690(2)
C10 C 0.01972(10) 0.29726(18) 0.15610(19)
H12 H 0.0331 0.2560 0.0892
C11 C 0.02130(10) 0.41928(17) 0.15342(19)
H13 H 0.0366 0.4582 0.0869
C12 C 0.0000 0.4846(2) 0.2500
C13 C 0.0000 0.6157(2) 0.2500
C14 C -0.03052(11) 0.68065(18) 0.3350(2)
H14 H -0.0518 0.6417 0.3945
C15 C -0.02947(11) 0.80322(19) 0.3318(2)
H15 H -0.0505 0.8446 0.3900
Ni1_2 Ni 0.0000 1.05002(3) 0.2500
S1B S -0.14634(3) 0.20241(6) 0.55321(6)
N2_2 N 0.0000 -0.13513(19) 0.2500
O1B O -0.15004(8) 0.1089(2) 0.22692(17)
O2B O -0.05634(7) 0.05989(13) 0.09317(14)
H1B H -0.0636(11) 0.0061(19) 0.045(2)
H2B H -0.0912(9) 0.073(2) 0.123(2)
O3B O -0.07573(6) 0.05358(11) 0.36112(13)
C1B C -0.19654(15) 0.7095(3) 0.3868(3)
H3B H -0.1815 0.7630 0.4490
H4B H -0.2402 0.7208 0.3726
H5B H -0.1758 0.7250 0.3135
C2B C -0.18418(12) 0.5832(3) 0.4266(2)
C3B C -0.15479(12) 0.5561(3) 0.5373(3)
H6B H -0.1423 0.6174 0.5893
C4B C -0.14359(11) 0.4399(2) 0.5721(2)
H7B H -0.1241 0.4240 0.6471
C5B C -0.16121(10) 0.3467(2) 0.4957(2)
C6B C -0.18997(12) 0.3730(3) 0.3844(2)
H8B H -0.2013 0.3121 0.3311
C7B C -0.20176(12) 0.4891(3) 0.3525(2)
H9B H -0.2223 0.5048 0.2785
C8B C -0.17392(10) 0.1034(2) 0.4348(2)
H10B H -0.1813 0.0262 0.4701
H11B H -0.2132 0.1329 0.4017
C9B C -0.13020(10) 0.0880(2) 0.3310(2)
C10B C -0.01972(10) 0.29726(18) 0.34390(19)
H12B H -0.0331 0.2560 0.4108
C11B C -0.02130(10) 0.41928(17) 0.34658(19)
H13B H -0.0366 0.4582 0.4131
C14B C 0.03052(11) 0.68065(18) 0.1650(2)
H14B H 0.0518 0.6417 0.1055
C15B C 0.02947(11) 0.80322(19) 0.1682(2)
H15B H 0.0505 0.8446 0.1100
loop_
_geom_bond_atom_site_label_1
_geom_bond_atom_site_label_2
_geom_bond_site_symmetry_1
_geom_bond_site_symmetry_2
Ni1 N1 1_555 1_555
S1 C5 1_555 1_555
N1 C10 1_555 1_555
N2 C15 1_555 1_555
O1 C9 1_555 1_555
O2 Ni1 1_555 1_555
H1 O2 1_555 1_555
H2 O2 1_555 1_555
O3 Ni1 1_555 1_555
C1 H3 1_555 1_555
H4 C1 1_555 1_555
H5 C1 1_555 1_555
C2 C1 1_555 1_555
C3 C2 1_555 1_555
H6 C3 1_555 1_555
C4 C3 1_555 1_555
H7 C4 1_555 1_555
C5 C4 1_555 1_555
C6 C5 1_555 1_555
H8 C6 1_555 1_555
C7 C2 1_555 1_555
H9 C7 1_555 1_555
C8 S1 1_555 1_555
H10 C8 1_555 1_555
H11 C8 1_555 1_555
C9 O3 1_555 1_555
C10 H12 1_555 1_555
C11 C10 1_555 1_555
H13 C11 1_555 1_555
C12 C11 1_555 1_555
C13 C12 1_555 1_555
C14 C13 1_555 1_555
H14 C14 1_555 1_555
C15 C14 1_555 1_555
H15 C15 1_555 1_555
Ni1_2 N2 1_555 1_555
S1B C5B 1_555 1_555
N2_2 Ni1 1_555 1_555
O1B C9B 1_555 1_555
O2B Ni1 1_555 1_555
H1B O2B 1_555 1_555
H2B O2B 1_555 1_555
O3B Ni1 1_555 1_555
C1B H3B 1_555 1_555
H4B C1B 1_555 1_555
H5B C1B 1_555 1_555
C2B C1B 1_555 1_555
C3B C2B 1_555 1_555
H6B C3B 1_555 1_555
C4B C3B 1_555 1_555
H7B C4B 1_555 1_555
C5B C4B 1_555 1_555
C6B C5B 1_555 1_555
H8B C6B 1_555 1_555
C7B C2B 1_555 1_555
H9B C7B 1_555 1_555
C8B S1B 1_555 1_555
H10B C8B 1_555 1_555
H11B C8B 1_555 1_555
C9B O3B 1_555 1_555
C10B N1 1_555 1_555
H12B C10B 1_555 1_555
C11B C12 1_555 1_555
H13B C11B 1_555 1_555
C14B C13 1_555 1_555
H14B C14B 1_555 1_555
C15B N2 1_555 1_555
H15B C15B 1_555 1_555
C6 C7 1_555 1_555
C8 C9 1_555 1_555
C6B C7B 1_555 1_555
C8B C9B 1_555 1_555
C10B C11B 1_555 1_555
C14B C15B 1_555 1_555

#END
