
#######################################################################
#
#                 Cambridge Crystallographic Data Centre
#                                CCDC 
#
#######################################################################
#
# If this CIF has been generated from an entry in the Cambridge 
# Structural Database, then it will include bibliographic, chemical, 
# crystal, experimental, refinement or atomic coordinate data resulting 
# from the CCDC's data processing and validation procedures.
#
#######################################################################

data_XEHLED
_symmetry_cell_setting           tetragonal
_symmetry_space_group_name_H-M   'I 41/a'
_symmetry_Int_Tables_number      88
_space_group_name_Hall           '-I 4ad'
loop_
_symmetry_equiv_pos_site_id
_symmetry_equiv_pos_as_xyz
1 x,y,z
2 -x,1/2-y,z
3 3/4-y,1/4+x,1/4+z
4 1/4+y,1/4-x,1/4+z
5 1/2+x,1/2+y,1/2+z
6 1/2-x,-y,1/2+z
7 1/4-y,3/4+x,3/4+z
8 3/4+y,3/4-x,3/4+z
9 -x,-y,-z
10 x,1/2+y,-z
11 1/4+y,3/4-x,3/4-z
12 3/4-y,3/4+x,3/4-z
13 1/2-x,1/2-y,1/2-z
14 1/2+x,y,1/2-z
15 3/4+y,1/4-x,1/4-z
16 1/4-y,1/4+x,1/4-z
_cell_length_a                   20.7511(2)
_cell_length_b                   20.7511(2)
_cell_length_c                   43.0804(15)
_cell_angle_alpha                90
_cell_angle_beta                 90
_cell_angle_gamma                90
_cell_volume                     18550.8
loop_
_atom_site_label
_atom_site_type_symbol
_atom_site_fract_x
_atom_site_fract_y
_atom_site_fract_z
Cu1 Cu 0.68214(13) 0.16477(8) 0.53148(4)
C1 C 0.5816(9) 0.2440(8) 0.5449(5)
H1 H 0.5534 0.2118 0.5385
C2 C 0.6620(8) 0.2930(6) 0.5543(4)
H2 H 0.7052 0.3049 0.5554
C3 C 0.6045(8) 0.3995(6) 0.5673(4)
H3 H 0.5601 0.4070 0.5735
H4 H 0.6315 0.4097 0.5850
C4 C 0.6213(7) 0.4461(5) 0.5407(3)
H5 H 0.6013 0.4876 0.5445
H6 H 0.6046 0.4293 0.5213
C5 C 0.6898(7) 0.4538(6) 0.5385(4)
H7 H 0.7071 0.4601 0.5591
H8 H 0.7082 0.4144 0.5302
C6 C 0.6752(7) 0.5446(6) 0.5001(3)
H9 H 0.6318 0.5388 0.4954
C7 C 0.7686(8) 0.5799(6) 0.5023(4)
H10 H 0.8044 0.6057 0.4984
N1 N 0.6433(6) 0.2380(4) 0.5471(3)
N2 N 0.5646(7) 0.3027(7) 0.5531(4)
N3 N 0.6118(6) 0.3340(4) 0.5604(3)
N4 N 0.7098(6) 0.5071(4) 0.5191(2)
N5 N 0.7699(6) 0.5315(6) 0.5204(3)
N6 N 0.7117(6) 0.5903(4) 0.4893(2)
Cu1I Cu 0.68214(13) -0.33523(8) 0.46852(4)
Cu1I_2 Cu 0.68214(13) 0.66477(8) 0.46852(4)
C1I C 0.5816(9) -0.2560(8) 0.4551(5)
H1I H 0.5534 -0.2882 0.4615
C2I C 0.6620(8) -0.2070(6) 0.4457(4)
H2I H 0.7052 -0.1951 0.4446
C3I C 0.6045(8) -0.1005(6) 0.4327(4)
H3I H 0.5601 -0.0930 0.4265
H4I H 0.6315 -0.0903 0.4150
C4I C 0.6213(7) -0.0539(5) 0.4593(3)
H5I H 0.6013 -0.0124 0.4555
H6I H 0.6046 -0.0707 0.4787
C5I C 0.6898(7) -0.0462(6) 0.4615(4)
H7I H 0.7071 -0.0399 0.4409
H8I H 0.7082 -0.0856 0.4698
C6I C 0.6752(7) 0.0446(6) 0.4999(3)
H9I H 0.6318 0.0388 0.5046
C7I C 0.7686(8) 0.0799(6) 0.4977(4)
H10I H 0.8044 0.1057 0.5016
N1I N 0.6433(6) -0.2620(4) 0.4529(3)
N2I N 0.5646(7) -0.1973(7) 0.4469(4)
N3I N 0.6118(6) -0.1660(4) 0.4396(3)
N4I N 0.7098(6) 0.0071(4) 0.4809(2)
N5I N 0.7699(6) 0.0315(6) 0.4796(3)
N6I N 0.7117(6) 0.0903(4) 0.5107(2)
N6_2 N 0.7117(6) -0.4097(4) 0.4893(2)
Cu2 Cu 0.20151(5) 0.03456(6) 0.38856(3)
C8 C 0.2879(6) -0.0509(5) 0.3572(4)
H11 H 0.2719 -0.0422 0.3375
C9 C 0.3046(6) -0.0530(5) 0.4039(4)
H12 H 0.2995 -0.0454 0.4250
C10 C 0.3749(7) -0.1287(6) 0.3443(4)
H13 H 0.3637 -0.1197 0.3229
H14 H 0.3659 -0.1738 0.3484
C11 C 0.4454(8) -0.1157(7) 0.3493(5)
H15 H 0.4532 -0.0703 0.3453
H16 H 0.4552 -0.1235 0.3710
C12 C 0.4874(7) -0.1505(7) 0.3318(5)
H17 H 0.4847 -0.1361 0.3104
H18 H 0.4749 -0.1955 0.3323
C13 C 0.5875(5) -0.0923(5) 0.3465(3)
H19 H 0.5707 -0.0508 0.3456
C14 C 0.6493(5) -0.1712(5) 0.3519(2)
H20 H 0.6859 -0.1957 0.3558
N7 N 0.2664(3) -0.0273(3) 0.3828(2)
N8 N 0.3496(6) -0.0895(6) 0.3931(4)
N9 N 0.3373(5) -0.0905(4) 0.3639(4)
N10 N 0.5547(5) -0.1443(4) 0.3426(3)
N11 N 0.5924(4) -0.1964(4) 0.3459(3)
N12 N 0.6488(3) -0.1066(3) 0.35179(17)
Cu2J Cu 0.28456(6) 0.54849(5) 0.36144(3)
Cu2K Cu 0.71544(6) -0.04849(5) 0.36144(3)
C8J C 0.1991(5) 0.4621(6) 0.3928(4)
H11J H 0.2078 0.4781 0.4125
C9J C 0.1970(5) 0.4454(6) 0.3461(4)
H12J H 0.2046 0.4505 0.3250
C10J C 0.1213(6) 0.3751(7) 0.4057(4)
H13J H 0.1303 0.3863 0.4271
H14J H 0.0762 0.3841 0.4016
C11J C 0.1343(7) 0.3046(8) 0.4007(5)
H15J H 0.1797 0.2968 0.4047
H16J H 0.1265 0.2948 0.3790
C12J C 0.0995(7) 0.2626(7) 0.4182(5)
H17J H 0.1139 0.2653 0.4396
H18J H 0.0545 0.2751 0.4177
C13J C 0.1577(5) 0.1625(5) 0.4035(3)
H19J H 0.1992 0.1793 0.4044
C14J C 0.0788(5) 0.1007(5) 0.3981(2)
H20J H 0.0543 0.0641 0.3942
N7J N 0.2227(3) 0.4836(3) 0.3672(2)
N8J N 0.1605(6) 0.4004(6) 0.3569(4)
N9J N 0.1595(4) 0.4127(5) 0.3861(4)
N10J N 0.1057(4) 0.1953(5) 0.4074(3)
N11J N 0.0536(4) 0.1576(4) 0.4041(3)
N12J N 0.1434(3) 0.1012(3) 0.39821(17)
N12A N 0.3512(3) 0.6066(3) 0.35179(17)
As1 As 0.39242(3) 0.21504(3) 0.413782(17)
Mo1 Mo 0.52686(3) 0.16503(3) 0.460990(16)
Mo2 Mo 0.47477(3) 0.06178(3) 0.405608(17)
Mo3 Mo 0.63020(3) 0.11145(3) 0.404610(16)
C15 C 0.3232(3) 0.1882(4) 0.44030(17)
C16 C 0.3068(4) 0.1243(4) 0.4405(2)
H21 H 0.3283 0.0957 0.4275
C17 C 0.2587(4) 0.1019(5) 0.4598(2)
H22 H 0.2481 0.0583 0.4600
C18 C 0.2262(5) 0.1451(5) 0.4788(3)
H23 H 0.1944 0.1305 0.4923
C19 C 0.2417(5) 0.2103(5) 0.4776(2)
H24 H 0.2190 0.2395 0.4898
C20 C 0.2913(4) 0.2323(4) 0.4582(2)
H25 H 0.3023 0.2758 0.4575
O1 O 0.4556(2) 0.1658(2) 0.42055(11)
O2 O 0.5000 0.2500 0.46776(17)
O3 O 0.5956(3) 0.1620(3) 0.48282(14)
O4 O 0.4735(3) 0.1236(3) 0.48292(14)
O5 O 0.5511(2) 0.0923(2) 0.43105(11)
O6 O 0.5093(3) -0.0055(2) 0.39077(15)
O7 O 0.4320(3) 0.0327(3) 0.43593(14)
O8 O 0.4088(2) 0.0790(2) 0.37657(13)
O9 O 0.6844(3) 0.1158(3) 0.43407(14)
O10 O 0.6404(2) 0.0350(3) 0.39149(14)
O11 O 0.3714(2) 0.2088(2) 0.37600(11)
O12 O 0.4119(2) 0.2923(2) 0.42135(11)
As1A As 0.60758(3) 0.28496(3) 0.413782(17)
Mo1A Mo 0.47314(3) 0.33497(3) 0.460990(16)
Mo2A Mo 0.52523(3) 0.43822(3) 0.405608(17)
Mo2J Mo 0.31178(3) 0.27523(3) 0.344392(17)
Mo2K Mo 0.68822(3) 0.22477(3) 0.344392(17)
Mo3J Mo 0.36145(3) 0.11980(3) 0.345390(16)
Mo3A Mo 0.36980(3) 0.38855(3) 0.404610(16)
Mo3K Mo 0.63855(3) 0.38020(3) 0.345390(16)
C15A C 0.6768(3) 0.3118(4) 0.44030(17)
C16A C 0.6932(4) 0.3757(4) 0.4405(2)
H21A H 0.6717 0.4043 0.4275
C17A C 0.7413(4) 0.3981(5) 0.4598(2)
H22A H 0.7519 0.4417 0.4600
C18A C 0.7738(5) 0.3549(5) 0.4788(3)
H23A H 0.8056 0.3695 0.4923
C19A C 0.7583(5) 0.2897(5) 0.4776(2)
H24A H 0.7810 0.2605 0.4898
C20A C 0.7087(4) 0.2677(4) 0.4582(2)
H25A H 0.6977 0.2242 0.4575
O1A O 0.5444(2) 0.3342(2) 0.42055(11)
O3A O 0.4044(3) 0.3380(3) 0.48282(14)
O4A O 0.5265(3) 0.3764(3) 0.48292(14)
O5A O 0.4489(2) 0.4077(2) 0.43105(11)
O5J O 0.3423(2) 0.1989(2) 0.31895(11)
O6A O 0.4907(3) 0.5055(2) 0.39077(15)
O7A O 0.5680(3) 0.4673(3) 0.43593(14)
O8K O 0.6710(2) 0.1588(2) 0.37343(13)
O8A O 0.5912(2) 0.4210(2) 0.37657(13)
O9J O 0.3658(3) 0.0656(3) 0.31593(14)
O10J O 0.2850(3) 0.1096(2) 0.35851(14)
O11A O 0.6286(2) 0.2912(2) 0.37600(11)
O11K O 0.5412(2) 0.1214(2) 0.37400(11)
O11J O 0.4588(2) 0.3786(2) 0.37400(11)
O12A O 0.5881(2) 0.2077(2) 0.42135(11)
O12K O 0.4577(2) 0.1619(2) 0.32865(11)
As2 As 0.88714(3) 0.26777(3) 0.663890(17)
Mo4 Mo 0.98753(3) 0.16175(3) 0.711224(15)
Mo5 Mo 0.89258(3) 0.09431(3) 0.655614(16)
Mo6 Mo 1.05252(3) 0.06681(3) 0.654270(16)
C21 C 0.8107(3) 0.2783(3) 0.68885(18)
C22 C 0.7695(4) 0.2271(4) 0.6922(2)
H26 H 0.7786 0.1878 0.6829
C23 C 0.7144(5) 0.2349(4) 0.7097(2)
H27 H 0.6865 0.2003 0.7125
C24 C 0.7004(5) 0.2933(4) 0.7229(2)
H28 H 0.6627 0.2985 0.7344
C25 C 0.7423(5) 0.3439(5) 0.7193(2)
H29 H 0.7329 0.3834 0.7284
C26 C 0.7980(4) 0.3367(4) 0.7023(2)
H30 H 0.8265 0.3710 0.7000
O13 O 0.9216(2) 0.1953(2) 0.67101(11)
O14 O 0.9200(3) 0.1495(3) 0.73241(13)
O15 O 1.0000 0.2500 0.71771(16)
O16 O 1.0461(3) 0.1279(3) 0.73336(13)
O17 O 0.9745(2) 0.0858(2) 0.68120(12)
O18 O 0.8901(2) 0.0180(3) 0.64116(16)
O19 O 0.8409(3) 0.0888(3) 0.68561(14)
O20 O 0.8432(2) 0.1381(2) 0.62608(13)
O21 O 1.1014(3) 0.0440(2) 0.68408(14)
O22 O 1.0283(3) -0.0044(2) 0.63968(14)
O23 O 0.8677(2) 0.2715(2) 0.62567(11)
O24 O 0.9396(2) 0.3277(2) 0.67167(11)
As2A As 1.11286(3) 0.23223(3) 0.663890(17)
Mo4A Mo 1.01247(3) 0.33825(3) 0.711224(15)
Mo5A Mo 1.10742(3) 0.40569(3) 0.655614(16)
Mo5N Mo 0.84431(3) 0.35742(3) 0.594386(16)
Mo5O Mo 1.15569(3) 0.14258(3) 0.594386(16)
Mo6N Mo 0.81681(3) 0.19748(3) 0.595730(16)
Mo6A Mo 0.94748(3) 0.43319(3) 0.654270(16)
Mo6O Mo 1.18319(3) 0.30252(3) 0.595730(16)
C21A C 1.1893(3) 0.2217(3) 0.68885(18)
C22A C 1.2305(4) 0.2729(4) 0.6922(2)
H26A H 1.2214 0.3122 0.6829
C23A C 1.2856(5) 0.2651(4) 0.7097(2)
H27A H 1.3135 0.2997 0.7125
C24A C 1.2996(5) 0.2067(4) 0.7229(2)
H28A H 1.3373 0.2015 0.7344
C25A C 1.2577(5) 0.1561(5) 0.7193(2)
H29A H 1.2671 0.1166 0.7284
C26A C 1.2020(4) 0.1633(4) 0.7023(2)
H30A H 1.1735 0.1290 0.7000
O13A O 1.0784(2) 0.3047(2) 0.67101(11)
O14A O 1.0800(3) 0.3505(3) 0.73241(13)
O16A O 0.9539(3) 0.3721(3) 0.73336(13)
O17A O 1.0255(2) 0.4142(2) 0.68120(12)
O17N O 0.8358(2) 0.2755(2) 0.56880(12)
O18A O 1.1099(2) 0.4820(3) 0.64116(16)
O19A O 1.1591(3) 0.4112(3) 0.68561(14)
O20O O 1.1119(2) 0.0932(2) 0.62392(13)
O20A O 1.1568(2) 0.3619(2) 0.62608(13)
O21N O 0.7940(2) 0.1486(3) 0.56592(14)
O22N O 0.7456(2) 0.2217(3) 0.61032(14)
O23A O 1.1323(2) 0.2285(2) 0.62567(11)
O23O O 0.9785(2) 0.1177(2) 0.62433(11)
O23N O 1.0215(2) 0.3823(2) 0.62433(11)
O24A O 1.0604(2) 0.1723(2) 0.67167(11)
O24O O 0.9223(2) 0.1896(2) 0.57833(11)
O25 O 0.4388(15) 0.9060(13) 0.4571(8)
loop_
_geom_bond_atom_site_label_1
_geom_bond_atom_site_label_2
_geom_bond_site_symmetry_1
_geom_bond_site_symmetry_2
Cu1 N1 1_555 1_555
C1 H1 1_555 1_555
C2 H2 1_555 1_555
C3 H3 1_555 1_555
H4 C3 1_555 1_555
C4 C3 1_555 1_555
H5 C4 1_555 1_555
H6 C4 1_555 1_555
C5 C4 1_555 1_555
H7 C5 1_555 1_555
H8 C5 1_555 1_555
C6 H9 1_555 1_555
C7 H10 1_555 1_555
N1 C1 1_555 1_555
N2 C1 1_555 1_555
N3 C2 1_555 1_555
N4 C5 1_555 1_555
N5 C7 1_555 1_555
N6 C6 1_555 1_555
Cu2 N7 1_555 1_555
C8 H11 1_555 1_555
C9 H12 1_555 1_555
C10 H13 1_555 1_555
H14 C10 1_555 1_555
C11 C10 1_555 1_555
H15 C11 1_555 1_555
H16 C11 1_555 1_555
C12 C11 1_555 1_555
H17 C12 1_555 1_555
H18 C12 1_555 1_555
C13 H19 1_555 1_555
C14 H20 1_555 1_555
N7 C8 1_555 1_555
N8 C9 1_555 1_555
N9 C8 1_555 1_555
N10 C12 1_555 1_555
N11 C14 1_555 1_555
N12 C13 1_555 1_555
As1 C15 1_555 1_555
Mo1 O1 1_555 1_555
Mo2 O1 1_555 1_555
Mo3 O5 1_555 1_555
C15 C16 1_555 1_555
C16 H21 1_555 1_555
C17 C16 1_555 1_555
H22 C17 1_555 1_555
C18 C17 1_555 1_555
H23 C18 1_555 1_555
C19 C18 1_555 1_555
H24 C19 1_555 1_555
C20 C15 1_555 1_555
H25 C20 1_555 1_555
O1 As1 1_555 1_555
O2 Mo1 1_555 1_555
O3 Mo1 1_555 1_555
O4 Mo1 1_555 1_555
O5 Mo1 1_555 1_555
O6 Mo2 1_555 1_555
O7 Mo2 1_555 1_555
O8 Mo2 1_555 1_555
O9 Mo3 1_555 1_555
O10 Mo3 1_555 1_555
O11 As1 1_555 1_555
O12 As1 1_555 1_555
As2 C21 1_555 1_555
Mo4 O13 1_555 1_555
Mo5 O13 1_555 1_555
Mo6 O17 1_555 1_555
C21 C22 1_555 1_555
C22 H26 1_555 1_555
C23 C22 1_555 1_555
H27 C23 1_555 1_555
C24 C23 1_555 1_555
H28 C24 1_555 1_555
C25 C24 1_555 1_555
H29 C25 1_555 1_555
C26 C21 1_555 1_555
H30 C26 1_555 1_555
O13 As2 1_555 1_555
O14 Mo4 1_555 1_555
O15 Mo4 1_555 1_555
O16 Mo4 1_555 1_555
O17 Mo4 1_555 1_555
O18 Mo5 1_555 1_555
O19 Mo5 1_555 1_555
O20 Mo5 1_555 1_555
O21 Mo6 1_555 1_555
O22 Mo6 1_555 1_555
O23 As2 1_555 1_555
O24 As2 1_555 1_555
Cu1I N1I 1_555 1_555
Cu1I_2 N6 1_555 1_555
C1I H1I 1_555 1_555
C2I H2I 1_555 1_555
C3I H3I 1_555 1_555
H4I C3I 1_555 1_555
C4I C3I 1_555 1_555
H5I C4I 1_555 1_555
H6I C4I 1_555 1_555
C5I C4I 1_555 1_555
H7I C5I 1_555 1_555
H8I C5I 1_555 1_555
C6I H9I 1_555 1_555
C7I H10I 1_555 1_555
N1I C1I 1_555 1_555
N2I C1I 1_555 1_555
N3I C2I 1_555 1_555
N4I C5I 1_555 1_555
N5I C7I 1_555 1_555
N6I Cu1 1_555 1_555
N6_2 Cu1I 1_555 1_555
Cu2J N7J 1_555 1_555
Cu2K N12 1_555 1_555
C8J H11J 1_555 1_555
C9J H12J 1_555 1_555
C10J H13J 1_555 1_555
H14J C10J 1_555 1_555
C11J C10J 1_555 1_555
H15J C11J 1_555 1_555
H16J C11J 1_555 1_555
C12J C11J 1_555 1_555
H17J C12J 1_555 1_555
H18J C12J 1_555 1_555
C13J H19J 1_555 1_555
C14J H20J 1_555 1_555
N7J C8J 1_555 1_555
N8J C9J 1_555 1_555
N9J C8J 1_555 1_555
N10J C12J 1_555 1_555
N11J C14J 1_555 1_555
N12J Cu2 1_555 1_555
N12A Cu2J 1_555 1_555
As1A C15A 1_555 1_555
Mo1A O2 1_555 1_555
Mo2A O1A 1_555 1_555
Mo2J O11 1_555 1_555
Mo2K O8K 1_555 1_555
Mo3J O8 1_555 1_555
Mo3A O12 1_555 1_555
Mo3K O8A 1_555 1_555
C15A C16A 1_555 1_555
C16A H21A 1_555 1_555
C17A C16A 1_555 1_555
H22A C17A 1_555 1_555
C18A C17A 1_555 1_555
H23A C18A 1_555 1_555
C19A C18A 1_555 1_555
H24A C19A 1_555 1_555
C20A C15A 1_555 1_555
H25A C20A 1_555 1_555
O1A As1A 1_555 1_555
O3A Mo1A 1_555 1_555
O4A Mo1A 1_555 1_555
O5A Mo1A 1_555 1_555
O5J Mo2J 1_555 1_555
O6A Mo2A 1_555 1_555
O7A Mo2A 1_555 1_555
O8K Mo3 1_555 1_555
O8A Mo2A 1_555 1_555
O9J Mo3J 1_555 1_555
O10J Mo3J 1_555 1_555
O11A As1A 1_555 1_555
O11K Mo2 1_555 1_555
O11J Mo2A 1_555 1_555
O12A Mo1 1_555 1_555
O12K Mo3J 1_555 1_555
As2A C21A 1_555 1_555
Mo4A O15 1_555 1_555
Mo5A O13A 1_555 1_555
Mo5N O23 1_555 1_555
Mo5O O20O 1_555 1_555
Mo6N O20 1_555 1_555
Mo6A O24 1_555 1_555
Mo6O O20A 1_555 1_555
C21A C22A 1_555 1_555
C22A H26A 1_555 1_555
C23A C22A 1_555 1_555
H27A C23A 1_555 1_555
C24A C23A 1_555 1_555
H28A C24A 1_555 1_555
C25A C24A 1_555 1_555
H29A C25A 1_555 1_555
C26A C21A 1_555 1_555
H30A C26A 1_555 1_555
O13A As2A 1_555 1_555
O14A Mo4A 1_555 1_555
O16A Mo4A 1_555 1_555
O17A Mo4A 1_555 1_555
O17N Mo5N 1_555 1_555
O18A Mo5A 1_555 1_555
O19A Mo5A 1_555 1_555
O20O Mo6 1_555 1_555
O20A Mo5A 1_555 1_555
O21N Mo6N 1_555 1_555
O22N Mo6N 1_555 1_555
O23A As2A 1_555 1_555
O23O Mo5 1_555 1_555
O23N Mo5A 1_555 1_555
O24A Mo4 1_555 1_555
O24O Mo6N 1_555 1_555
C2 N1 1_555 1_555
C3 N3 1_555 1_555
C6 N4 1_555 1_555
C7 N6 1_555 1_555
N2 N3 1_555 1_555
N4 N5 1_555 1_555
C9 N7 1_555 1_555
C10 N9 1_555 1_555
C13 N10 1_555 1_555
C14 N12 1_555 1_555
N8 N9 1_555 1_555
N10 N11 1_555 1_555
Mo2 O5 1_555 1_555
Mo3 O11K 1_555 1_555
Mo3 O12A 1_555 1_555
C19 C20 1_555 1_555
O11 Mo3J 1_555 1_555
O12 Mo1A 1_555 1_555
Mo5 O17 1_555 1_555
Mo6 O23O 1_555 1_555
Mo6 O24A 1_555 1_555
C25 C26 1_555 1_555
O23 Mo6N 1_555 1_555
O24 Mo4A 1_555 1_555
C2I N1I 1_555 1_555
C3I N3I 1_555 1_555
C6I N4I 1_555 1_555
C6I N6I 1_555 1_555
C7I N6I 1_555 1_555
N2I N3I 1_555 1_555
N4I N5I 1_555 1_555
C9J N7J 1_555 1_555
C10J N9J 1_555 1_555
C13J N10J 1_555 1_555
C13J N12J 1_555 1_555
C14J N12J 1_555 1_555
N8J N9J 1_555 1_555
N10J N11J 1_555 1_555
As1A O12A 1_555 1_555
Mo1A O1A 1_555 1_555
Mo2A O5A 1_555 1_555
Mo2K O11A 1_555 1_555
Mo3J O5J 1_555 1_555
Mo3A O5A 1_555 1_555
Mo3A O11J 1_555 1_555
Mo3K O11A 1_555 1_555
C19A C20A 1_555 1_555
As2A O24A 1_555 1_555
Mo4A O13A 1_555 1_555
Mo5A O17A 1_555 1_555
Mo5O O23A 1_555 1_555
Mo6N O17N 1_555 1_555
Mo6A O17A 1_555 1_555
Mo6A O23N 1_555 1_555
Mo6O O23A 1_555 1_555
C25A C26A 1_555 1_555

#END
