
#######################################################################
#
#                 Cambridge Crystallographic Data Centre
#                                CCDC 
#
#######################################################################
#
# If this CIF has been generated from an entry in the Cambridge 
# Structural Database, then it will include bibliographic, chemical, 
# crystal, experimental, refinement or atomic coordinate data resulting 
# from the CCDC's data processing and validation procedures.
#
#######################################################################

data_XEHLUT
_symmetry_cell_setting           triclinic
_symmetry_space_group_name_H-M   'P -1'
_symmetry_Int_Tables_number      2
_space_group_name_Hall           '-P 1'
loop_
_symmetry_equiv_pos_site_id
_symmetry_equiv_pos_as_xyz
1 x,y,z
2 -x,-y,-z
_cell_length_a                   9.5104(13)
_cell_length_b                   12.7291(17)
_cell_length_c                   19.131(3)
_cell_angle_alpha                100.348(2)
_cell_angle_beta                 97.0900(10)
_cell_angle_gamma                107.7160(10)
_cell_volume                     2130.71
loop_
_atom_site_label
_atom_site_type_symbol
_atom_site_fract_x
_atom_site_fract_y
_atom_site_fract_z
Cd1 Cd 0.80208(3) 0.94448(2) 0.432486(15)
Cd2 Cd -0.19533(3) 0.82555(3) 0.007770(15)
O1 O 0.8643(4) 1.5217(3) 0.56240(19)
O2 O 1.3704(4) 1.2222(3) 0.12864(16)
O3 O -0.2611(4) 0.9843(3) 0.0170(2)
H1 H -0.3028 1.0240 0.0420
H2 H -0.194(4) 1.035(3) -0.001(3)
O4 O 0.8114(4) 0.3876(2) 0.29525(16)
O5 O 0.5614(3) 0.8554(3) 0.36321(14)
O6 O 0.0688(3) 0.8645(2) 0.03962(15)
O7 O 1.1851(4) 0.3665(3) 0.02623(17)
O8 O 1.1268(3) 1.1361(3) 0.09411(15)
O9 O 0.7092(3) 0.9648(2) 0.30591(14)
O10 O -0.0689(3) 0.8259(2) 0.12221(15)
O11 O 1.0541(3) 1.0551(2) 0.44106(14)
O12 O 1.3013(3) 1.1098(2) 0.47129(14)
N1 N 1.0209(4) 0.4697(3) 0.25252(19)
N2 N 1.1400(4) 0.4652(3) 0.12576(19)
N3 N 0.8589(4) 0.7880(3) 0.38209(17)
N4 N 1.5868(4) 0.7200(3) 0.03941(17)
N5 N 0.7672(4) 1.1164(3) 0.46490(17)
N6 N 0.6140(4) 1.4666(3) 0.5308(3)
C1 C 1.4520(6) 0.6873(4) -0.0025(3)
H3 H 1.4394 0.7217 -0.0418
C2 C 1.5988(5) 0.6722(4) 0.0952(2)
H4 H 1.6936 0.6961 0.1268
C3 C 1.3304(5) 0.6057(4) 0.0089(3)
H5 H 1.2362 0.5843 -0.0228
C4 C 1.1506(5) 0.5747(3) 0.1715(2)
H6 H 1.0654 0.5977 0.1529
H7 H 1.2450 0.6334 0.1691
C5 C 0.7464(5) 1.4485(4) 0.5363(2)
C6 C 1.1480(5) 0.5667(4) 0.2491(2)
H8 H 1.2430 0.5584 0.2708
H9 H 1.1396 0.6371 0.2773
C7 C 1.4810(5) 0.5899(4) 0.1096(2)
H10 H 1.4954 0.5579 0.1499
C8 C 0.9066(5) 0.6178(3) 0.3948(2)
H11 H 0.9237 0.5700 0.4253
C9 C 1.2166(5) 0.4554(4) 0.0714(2)
C10 C 1.0189(5) 0.3672(3) 0.1328(2)
H12 H 1.0285 0.2972 0.1048
H13 H 0.9209 0.3723 0.1126
C11 C 1.0238(6) 0.3613(3) 0.2109(2)
H14 H 0.9362 0.2982 0.2153
H15 H 1.1166 0.3475 0.2300
C12 C 0.3325(5) 0.8801(3) 0.1344(2)
H16 H 0.3414 0.8836 0.0859
C13 C 0.8511(5) 0.7571(4) 0.3110(2)
H17 H 0.8306 0.8050 0.2813
C14 C 0.9097(5) 0.4732(4) 0.2886(2)
C15 C 0.8175(5) 1.3072(3) 0.4536(2)
H18 H 0.8624 1.3651 0.4301
C16 C 0.6922(5) 1.1379(3) 0.5179(2)
H19 H 0.6469 1.0784 0.5402
C17 C 1.3433(5) 0.5547(3) 0.0654(2)
C18 C 0.9014(5) 0.5877(3) 0.3218(2)
C19 C 0.1834(5) 0.8565(3) 0.2262(2)
H20 H 0.0893 0.8459 0.2410
C20 C 0.8271(5) 1.2007(3) 0.4332(2)
H21 H 0.8785 1.1863 0.3950
C21 C 0.7418(5) 1.3289(3) 0.5086(2)
C22 C 0.3075(5) 0.8665(3) 0.2752(2)
H22 H 0.2982 0.8600 0.3233
C23 C 0.4590(5) 0.8933(3) 0.1845(2)
H23 H 0.5542 0.9074 0.1704
C24 C 0.8869(4) 0.7183(3) 0.4232(2)
H24 H 0.8932 0.7395 0.4740
C25 C 1.2305(5) 1.1471(3) 0.2142(2)
C26 C 1.3565(5) 1.1649(3) 0.2657(2)
H25 H 1.4538 1.1914 0.2544
C27 C 0.8716(5) 0.6580(3) 0.2788(2)
H26 H 0.8653 0.6384 0.2280
C28 C 0.0558(5) 0.8507(3) 0.1019(2)
C29 C 0.1941(5) 0.8619(3) 0.1545(2)
C30 C 1.2447(6) 1.1703(4) 0.1405(2)
C31 C 1.1988(5) 1.1073(3) 0.3510(2)
C32 C 1.0738(5) 1.0878(3) 0.2988(2)
H27 H 0.9763 1.0610 0.3099
C33 C 1.3414(5) 1.1443(3) 0.3338(2)
H28 H 1.4280 1.1553 0.3686
C34 C 0.5818(5) 0.9030(3) 0.3113(2)
C35 C 0.4468(5) 0.8860(3) 0.2547(2)
C36 C 1.1836(5) 1.0884(3) 0.4252(2)
C37 C 1.0886(5) 1.1067(3) 0.2309(2)
H29 H 1.0015 1.0920 0.1955
C38 C 0.6784(5) 1.2416(3) 0.5410(2)
H30 H 0.6257 1.2537 0.5791
C39 C 0.4649(6) 1.3827(4) 0.4984(3)
H31 H 0.4755 1.3087 0.4787
H32 H 0.4023 1.3731 0.5360
C40 C 0.6087(6) 1.5801(4) 0.5596(3)
H33 H 0.5521 1.5781 0.5997
H34 H 0.7120 1.6340 0.5787
Cd1A Cd 1.19792(3) 1.05552(2) 0.567514(15)
Cd1A_2 Cd 0.19792(3) 2.05552(2) 0.567514(15)
Cd1A_3 Cd 0.19792(3) 0.05552(2) -0.432486(15)
Cd2A Cd 1.19533(3) 0.17445(3) -0.007770(15)
Cd2A_2 Cd 1.19533(3) 1.17445(3) -0.007770(15)
Cd2_2 Cd 1.80467(3) 0.82555(3) 0.007770(15)
Cd2_3 Cd 0.80467(3) 0.82555(3) 1.007770(15)
Cd2A_3 Cd -0.80467(3) 0.17445(3) -0.007770(15)
Cd2A_4 Cd 2.19533(3) 1.17445(3) 0.992230(15)
O1A O 0.1357(4) 1.4783(3) 0.43760(19)
O2A O 0.6296(4) 0.7778(3) 0.87136(16)
O3A O 1.2611(4) 0.0157(3) -0.0170(2)
H1A H 1.3028 -0.0240 -0.0420
H2A H 1.194(4) -0.035(3) 0.001(3)
O4A O 0.1886(4) 0.6124(2) -0.29525(16)
O5A O 1.4386(3) 1.1446(3) 0.63679(14)
O6A O 1.9312(3) 1.1355(2) 0.96038(15)
O6A_2 O 0.9312(3) 0.1355(2) -0.03962(15)
O7A O -0.1851(4) 0.6335(3) -0.02623(17)
O8A O 0.8732(3) 0.8639(3) 0.90589(15)
O8A_2 O -0.1268(3) 0.8639(3) -0.09411(15)
O8_2 O 1.1268(3) 0.1361(3) 0.09411(15)
O9A O 1.2908(3) 1.0352(2) 0.69409(14)
O10A O 2.0689(3) 1.1741(2) 0.87779(15)
O10A_2 O 1.0689(3) 0.1741(2) -0.12221(15)
O11A O 0.9459(3) 0.9449(2) 0.55894(14)
O12A O 0.6987(3) 0.8902(2) 0.52871(14)
N1A N -0.0209(4) 0.5303(3) -0.25252(19)
N2A N -0.1400(4) 0.5348(3) -0.12576(19)
N3A N 0.1411(4) 0.2120(3) -0.38209(17)
N3A_2 N 1.1411(4) 1.2120(3) 0.61791(17)
N4A N -0.5868(4) 0.2800(3) -0.03941(17)
N4_2 N -0.4132(4) 0.7200(3) 0.03941(17)
N4A_2 N 1.4132(4) 0.2800(3) -0.03941(17)
N5A N 0.2328(4) 1.8836(3) 0.53510(17)
N5A_2 N 1.2328(4) 0.8836(3) 0.53510(17)
N6A N 0.3860(4) 1.5334(3) 0.4692(3)
C1A C -0.4520(6) 0.3127(4) 0.0025(3)
H3A H -0.4394 0.2783 0.0418
C2A C -0.5988(5) 0.3278(4) -0.0952(2)
H4A H -0.6936 0.3039 -0.1268
C3A C -0.3304(5) 0.3943(4) -0.0089(3)
H5A H -0.2362 0.4157 0.0228
C4A C -0.1506(5) 0.4253(3) -0.1715(2)
H6A H -0.0654 0.4023 -0.1529
H7A H -0.2450 0.3666 -0.1691
C5A C 0.2536(5) 1.5515(4) 0.4637(2)
C6A C -0.1480(5) 0.4333(4) -0.2491(2)
H8A H -0.2430 0.4416 -0.2708
H9A H -0.1396 0.3629 -0.2773
C7A C -0.4810(5) 0.4101(4) -0.1096(2)
H10A H -0.4954 0.4421 -0.1499
C8A C 0.0934(5) 0.3822(3) -0.3948(2)
H11A H 0.0763 0.4300 -0.4253
C9A C -0.2166(5) 0.5446(4) -0.0714(2)
C10A C -0.0189(5) 0.6328(3) -0.1328(2)
H12A H -0.0285 0.7028 -0.1048
H13A H 0.0791 0.6277 -0.1126
C11A C -0.0238(6) 0.6387(3) -0.2109(2)
H14A H 0.0638 0.7018 -0.2153
H15A H -0.1166 0.6525 -0.2300
C12A C 1.6675(5) 1.1199(3) 0.8656(2)
H16A H 1.6586 1.1164 0.9141
C13A C 0.1489(5) 0.2429(4) -0.3110(2)
H17A H 0.1694 0.1950 -0.2813
C14A C 0.0903(5) 0.5268(4) -0.2886(2)
C15A C 0.1825(5) 1.6928(3) 0.5464(2)
H18A H 0.1376 1.6349 0.5699
C16A C 0.3078(5) 1.8621(3) 0.4821(2)
H19A H 0.3531 1.9216 0.4598
C17A C -0.3433(5) 0.4453(3) -0.0654(2)
C18A C 0.0986(5) 0.4123(3) -0.3218(2)
C19A C 1.8166(5) 1.1435(3) 0.7738(2)
H20A H 1.9107 1.1541 0.7590
C20A C 0.1729(5) 1.7993(3) 0.5668(2)
H21A H 0.1215 1.8137 0.6050
C21A C 0.2582(5) 1.6711(3) 0.4914(2)
C22A C 1.6925(5) 1.1335(3) 0.7248(2)
H22A H 1.7018 1.1400 0.6767
C23A C 1.5410(5) 1.1067(3) 0.8155(2)
H23A H 1.4458 1.0926 0.8296
C24A C 0.1131(4) 0.2817(3) -0.4232(2)
H24A H 0.1068 0.2605 -0.4740
C25A C 0.7695(5) 0.8529(3) 0.7858(2)
C26A C 0.6435(5) 0.8351(3) 0.7343(2)
H25A H 0.5462 0.8086 0.7456
C27A C 0.1284(5) 0.3420(3) -0.2788(2)
H26A H 0.1347 0.3616 -0.2280
C28A C 1.9442(5) 1.1493(3) 0.8981(2)
C29A C 1.8059(5) 1.1381(3) 0.8455(2)
C30A C 0.7553(6) 0.8297(4) 0.8595(2)
C31A C 0.8012(5) 0.8927(3) 0.6490(2)
C32A C 0.9262(5) 0.9122(3) 0.7012(2)
H27A H 1.0237 0.9390 0.6901
C33A C 0.6586(5) 0.8557(3) 0.6662(2)
H28A H 0.5720 0.8447 0.6314
C34A C 1.4182(5) 1.0970(3) 0.6887(2)
C35A C 1.5532(5) 1.1140(3) 0.7453(2)
C36A C 0.8164(5) 0.9116(3) 0.5748(2)
C37A C 0.9114(5) 0.8933(3) 0.7691(2)
H29A H 0.9985 0.9080 0.8045
C38A C 0.3216(5) 1.7584(3) 0.4590(2)
H30A H 0.3743 1.7463 0.4209
C39A C 0.5351(6) 1.6173(4) 0.5016(3)
H31A H 0.5245 1.6913 0.5213
H32A H 0.5977 1.6269 0.4640
C40A C 0.3913(6) 1.4199(4) 0.4404(3)
H33A H 0.4479 1.4219 0.4003
H34A H 0.2880 1.3660 0.4213
O13 O 0.4540(6) 0.5718(3) 0.7757(2)
H35 H 0.500(6) 0.637(3) 0.809(2)
H36 H 0.409(6) 0.599(4) 0.744(2)
O14 O 0.5128(7) 0.4065(5) 0.6727(4)
H37 H 0.445(5) 0.3450(17) 0.687(2)
H38 H 0.5010 0.4603 0.7115
O15 O 0.6051(5) 1.1091(4) 1.0947(2)
H39 H 0.639(5) 1.119(4) 1.1421(12)
H40 H 0.518(3) 1.119(4) 1.094(3)
O16 O 0.7223(5) 1.1477(3) 0.23903(18)
H41 H 0.747(6) 1.2166(19) 0.264(2)
H42 H 0.718(6) 1.095(3) 0.264(2)
loop_
_geom_bond_atom_site_label_1
_geom_bond_atom_site_label_2
_geom_bond_site_symmetry_1
_geom_bond_site_symmetry_2
Cd1 O5 1_555 1_555
Cd2 O3 1_555 1_555
O1 C5 1_555 1_555
O2 C30 1_555 1_555
O3 H1 1_555 1_555
H2 O3 1_555 1_555
O4 C14 1_555 1_555
O5 C34 1_555 1_555
O6 Cd2 1_555 1_555
O7 C9 1_555 1_555
O8 C30 1_555 1_555
O9 Cd1 1_555 1_555
O10 Cd2 1_555 1_555
O11 Cd1 1_555 1_555
O12 C36 1_555 1_555
N1 C6 1_555 1_555
N2 C4 1_555 1_555
N3 Cd1 1_555 1_555
N4 C1 1_555 1_555
N5 Cd1 1_555 1_555
N6 C5 1_555 1_555
C1 H3 1_555 1_555
C2 N4 1_555 1_555
H4 C2 1_555 1_555
C3 C1 1_555 1_555
H5 C3 1_555 1_555
C4 H6 1_555 1_555
H7 C4 1_555 1_555
C5 C21 1_555 1_555
C6 C4 1_555 1_555
H8 C6 1_555 1_555
H9 C6 1_555 1_555
C7 C2 1_555 1_555
H10 C7 1_555 1_555
C8 H11 1_555 1_555
C9 N2 1_555 1_555
C10 N2 1_555 1_555
H12 C10 1_555 1_555
H13 C10 1_555 1_555
C11 N1 1_555 1_555
H14 C11 1_555 1_555
H15 C11 1_555 1_555
C12 H16 1_555 1_555
C13 N3 1_555 1_555
H17 C13 1_555 1_555
C14 N1 1_555 1_555
C15 H18 1_555 1_555
C16 N5 1_555 1_555
H19 C16 1_555 1_555
C17 C3 1_555 1_555
C18 C8 1_555 1_555
C19 H20 1_555 1_555
C20 N5 1_555 1_555
H21 C20 1_555 1_555
C21 C15 1_555 1_555
C22 C19 1_555 1_555
H22 C22 1_555 1_555
C23 C12 1_555 1_555
H23 C23 1_555 1_555
C24 N3 1_555 1_555
H24 C24 1_555 1_555
C25 C26 1_555 1_555
C26 H25 1_555 1_555
C27 C13 1_555 1_555
H26 C27 1_555 1_555
C28 O6 1_555 1_555
C29 C12 1_555 1_555
C30 C25 1_555 1_555
C31 C32 1_555 1_555
C32 H27 1_555 1_555
C33 C26 1_555 1_555
H28 C33 1_555 1_555
C34 O9 1_555 1_555
C35 C22 1_555 1_555
C36 O11 1_555 1_555
C37 C25 1_555 1_555
H29 C37 1_555 1_555
C38 C16 1_555 1_555
H30 C38 1_555 1_555
C39 N6 1_555 1_555
H31 C39 1_555 1_555
H32 C39 1_555 1_555
C40 N6 1_555 1_555
H33 C40 1_555 1_555
H34 C40 1_555 1_555
O13 H35 1_555 1_555
H36 O13 1_555 1_555
O14 H37 1_555 1_555
H38 O14 1_555 1_555
O15 H39 1_555 1_555
H40 O15 1_555 1_555
O16 H41 1_555 1_555
H42 O16 1_555 1_555
Cd1A O12 1_555 1_555
Cd1A_2 N5A 1_555 1_555
Cd1A_3 N3A 1_555 1_555
Cd2A O7 1_555 1_555
Cd2A_2 O8 1_555 1_555
Cd2_2 N4 1_555 1_555
Cd2_3 O8A 1_555 1_555
Cd2A_3 N4A 1_555 1_555
Cd2A_4 O6A 1_555 1_555
O1A C5A 1_555 1_555
O2A C30A 1_555 1_555
O3A Cd2A 1_555 1_555
H1A O3A 1_555 1_555
H2A O3A 1_555 1_555
O4A C14A 1_555 1_555
O5A Cd1A 1_555 1_555
O6A C28A 1_555 1_555
O6A_2 Cd2A 1_555 1_555
O7A Cd2 1_555 1_555
O8A C30A 1_555 1_555
O8A_2 Cd2 1_555 1_555
O8_2 Cd2A 1_555 1_555
O9A Cd1A 1_555 1_555
O10A Cd2A_4 1_555 1_555
O10A_2 Cd2A 1_555 1_555
O11A Cd1A 1_555 1_555
O12A Cd1 1_555 1_555
N1A C6A 1_555 1_555
N2A C4A 1_555 1_555
N3A C13A 1_555 1_555
N3A_2 Cd1A 1_555 1_555
N4A C1A 1_555 1_555
N4_2 Cd2 1_555 1_555
N4A_2 Cd2A 1_555 1_555
N5A C16A 1_555 1_555
N5A_2 Cd1A 1_555 1_555
N6A C5A 1_555 1_555
C1A H3A 1_555 1_555
C2A N4A 1_555 1_555
H4A C2A 1_555 1_555
C3A C1A 1_555 1_555
H5A C3A 1_555 1_555
C4A H6A 1_555 1_555
H7A C4A 1_555 1_555
C5A C21A 1_555 1_555
C6A C4A 1_555 1_555
H8A C6A 1_555 1_555
H9A C6A 1_555 1_555
C7A C2A 1_555 1_555
H10A C7A 1_555 1_555
C8A H11A 1_555 1_555
C9A O7A 1_555 1_555
C10A N2A 1_555 1_555
H12A C10A 1_555 1_555
H13A C10A 1_555 1_555
C11A N1A 1_555 1_555
H14A C11A 1_555 1_555
H15A C11A 1_555 1_555
C12A H16A 1_555 1_555
C13A H17A 1_555 1_555
C14A N1A 1_555 1_555
C15A H18A 1_555 1_555
C16A H19A 1_555 1_555
C17A C3A 1_555 1_555
C18A C8A 1_555 1_555
C19A H20A 1_555 1_555
C20A N5A 1_555 1_555
H21A C20A 1_555 1_555
C21A C15A 1_555 1_555
C22A C19A 1_555 1_555
H22A C22A 1_555 1_555
C23A C12A 1_555 1_555
H23A C23A 1_555 1_555
C24A N3A 1_555 1_555
H24A C24A 1_555 1_555
C25A C26A 1_555 1_555
C26A H25A 1_555 1_555
C27A C13A 1_555 1_555
H26A C27A 1_555 1_555
C28A O10A 1_555 1_555
C29A C12A 1_555 1_555
C30A C25A 1_555 1_555
C31A C32A 1_555 1_555
C32A H27A 1_555 1_555
C33A C26A 1_555 1_555
H28A C33A 1_555 1_555
C34A O5A 1_555 1_555
C35A C22A 1_555 1_555
C36A O11A 1_555 1_555
C37A C25A 1_555 1_555
H29A C37A 1_555 1_555
C38A C16A 1_555 1_555
H30A C38A 1_555 1_555
C39A C40 1_555 1_555
H31A C39A 1_555 1_555
H32A C39A 1_555 1_555
C40A C39 1_555 1_555
H33A C40A 1_555 1_555
H34A C40A 1_555 1_555
O10 C28 1_555 1_555
C7 C17 1_555 1_555
C8 C24 1_555 1_555
C9 C17 1_555 1_555
C10 C11 1_555 1_555
C14 C18 1_555 1_555
C15 C20 1_555 1_555
C18 C27 1_555 1_555
C19 C29 1_555 1_555
C21 C38 1_555 1_555
C23 C35 1_555 1_555
C28 C29 1_555 1_555
C31 C33 1_555 1_555
C31 C36 1_555 1_555
C32 C37 1_555 1_555
C34 C35 1_555 1_555
O9A C34A 1_555 1_555
O12A C36A 1_555 1_555
N2A C9A 1_555 1_555
N6A C39A 1_555 1_555
N6A C40A 1_555 1_555
C7A C17A 1_555 1_555
C8A C24A 1_555 1_555
C9A C17A 1_555 1_555
C10A C11A 1_555 1_555
C14A C18A 1_555 1_555
C15A C20A 1_555 1_555
C18A C27A 1_555 1_555
C19A C29A 1_555 1_555
C21A C38A 1_555 1_555
C23A C35A 1_555 1_555
C28A C29A 1_555 1_555
C31A C33A 1_555 1_555
C31A C36A 1_555 1_555
C32A C37A 1_555 1_555
C34A C35A 1_555 1_555

#END
