
#######################################################################
#
#                 Cambridge Crystallographic Data Centre
#                                CCDC 
#
#######################################################################
#
# If this CIF has been generated from an entry in the Cambridge 
# Structural Database, then it will include bibliographic, chemical, 
# crystal, experimental, refinement or atomic coordinate data resulting 
# from the CCDC's data processing and validation procedures.
#
#######################################################################

data_XEHMEE
_symmetry_cell_setting           monoclinic
_symmetry_space_group_name_H-M   'P 21/c'
_symmetry_Int_Tables_number      14
_space_group_name_Hall           '-P 2ybc'
loop_
_symmetry_equiv_pos_site_id
_symmetry_equiv_pos_as_xyz
1 x,y,z
2 -x,1/2+y,1/2-z
3 -x,-y,-z
4 x,1/2-y,1/2+z
_cell_length_a                   11.114(3)
_cell_length_b                   11.991(3)
_cell_length_c                   11.422(3)
_cell_angle_alpha                90
_cell_angle_beta                 119.11
_cell_angle_gamma                90
_cell_volume                     1329.92
loop_
_atom_site_label
_atom_site_type_symbol
_atom_site_fract_x
_atom_site_fract_y
_atom_site_fract_z
Zn1 Zn 0.0000 0.0000 0.0000
O1 O -0.14635(15) 0.13290(13) -0.07584(15)
H1 H -0.139(2) 0.149(2) -0.145(2)
H2 H -0.2329(18) 0.126(2) -0.106(2)
O2 O 0.56558(16) 0.37080(15) 0.30189(15)
O3 O 0.09229(17) -0.15161(13) 0.27596(15)
O4 O 0.00740(16) 0.01443(11) 0.18438(15)
N1 N 0.15667(17) 0.12793(14) 0.05856(17)
N2 N 0.47212(18) 0.45028(15) 0.09640(18)
C1 C 0.3512(2) 0.20403(19) 0.0499(2)
H3 H 0.4146 0.1992 0.0168
C2 C 0.2492(2) 0.12502(18) 0.0152(2)
H4 H 0.2443 0.0657 -0.0421
C3 C 0.3618(2) 0.4659(2) -0.0406(2)
H5 H 0.3147 0.5377 -0.0476
H6 H 0.2933 0.4053 -0.0646
C4 C 0.0507(2) -0.06883(18) 0.6116(2)
H7 H 0.0853 -0.1163 0.6877
C5 C 0.2638(2) 0.29446(17) 0.1794(2)
H8 H 0.2666 0.3526 0.2372
C6 C 0.0211(2) -0.02699(18) 0.3925(2)
C7 C 0.3595(2) 0.29061(17) 0.1340(2)
C8 C 0.5813(2) 0.5342(2) 0.1376(2)
H9 H 0.6560 0.5174 0.2293
H10 H 0.5438 0.6089 0.1388
C9 C 0.4741(2) 0.37491(18) 0.1831(2)
C10 C 0.0421(2) -0.05771(17) 0.2760(2)
C11 C 0.0721(2) -0.09555(18) 0.5051(2)
H11 H 0.1219 -0.1611 0.5089
C12 C 0.1646(2) 0.21207(17) 0.1389(2)
H12 H 0.0990 0.2153 0.1695
Zn1_2 Zn 0.0000 0.0000 1.0000
Zn1_3 Zn 1.0000 1.0000 0.0000
O1B O 0.14635(15) -0.13290(13) 0.07584(15)
H1B H 0.139(2) -0.149(2) 0.145(2)
H2B H 0.2329(18) -0.126(2) 0.106(2)
O2B O 0.43442(16) 0.62920(15) -0.30189(15)
O3B O -0.09229(17) 0.15161(13) 0.72404(15)
O4B O -0.00740(16) -0.01443(11) 0.81562(15)
O4B_2 O -0.00740(16) -0.01443(11) -0.18438(15)
N1B N 0.84333(17) 0.87207(14) -0.05856(17)
N1B_2 N -0.15667(17) -0.12793(14) -0.05856(17)
N2B N 0.52788(18) 0.54972(15) -0.09640(18)
C1B C 0.6488(2) 0.79597(19) -0.0499(2)
H3B H 0.5854 0.8008 -0.0168
C2B C 0.7508(2) 0.87498(18) -0.0152(2)
H4B H 0.7557 0.9343 0.0421
C3B C 0.6382(2) 0.5341(2) 0.0406(2)
H5B H 0.6853 0.4623 0.0476
H6B H 0.7067 0.5947 0.0646
C4B C -0.0507(2) 0.06883(18) 0.3884(2)
H7B H -0.0853 0.1163 0.3123
C5B C 0.7362(2) 0.70554(17) -0.1794(2)
H8B H 0.7334 0.6474 -0.2372
C6B C -0.0211(2) 0.02699(18) 0.6075(2)
C7B C 0.6405(2) 0.70939(17) -0.1340(2)
C8B C 0.4187(2) 0.4658(2) -0.1376(2)
H9B H 0.3440 0.4826 -0.2293
H10B H 0.4562 0.3911 -0.1388
C9B C 0.5259(2) 0.62509(18) -0.1831(2)
C10B C -0.0421(2) 0.05771(17) 0.7240(2)
C11B C -0.0721(2) 0.09555(18) 0.4949(2)
H11B H -0.1219 0.1611 0.4911
C12B C 0.8354(2) 0.78793(17) -0.1389(2)
H12B H 0.9010 0.7847 -0.1695
O5 O 0.34190(19) -0.26650(16) 0.43925(19)
H13 H 0.258(2) -0.244(3) 0.399(3)
H14 H 0.361(3) -0.290(2) 0.517(2)
O6 O 0.3841(4) 0.5185(3) 0.3619(6)
H15 H 0.372(5) 0.5939(19) 0.367(6)
H16 H 0.477(3) 0.510(4) 0.389(6)
loop_
_geom_bond_atom_site_label_1
_geom_bond_atom_site_label_2
_geom_bond_site_symmetry_1
_geom_bond_site_symmetry_2
Zn1 O1 1_555 1_555
O1 H1 1_555 1_555
H2 O1 1_555 1_555
O2 C9 1_555 1_555
O3 C10 1_555 1_555
O4 Zn1 1_555 1_555
N1 Zn1 1_555 1_555
N2 C3 1_555 1_555
C1 H3 1_555 1_555
C2 N1 1_555 1_555
H4 C2 1_555 1_555
C3 H5 1_555 1_555
H6 C3 1_555 1_555
C4 H7 1_555 1_555
C5 H8 1_555 1_555
C6 C10 1_555 1_555
C7 C1 1_555 1_555
C8 N2 1_555 1_555
H9 C8 1_555 1_555
H10 C8 1_555 1_555
C9 N2 1_555 1_555
C10 O4 1_555 1_555
C11 C4 1_555 1_555
H11 C11 1_555 1_555
C12 N1 1_555 1_555
H12 C12 1_555 1_555
O5 H13 1_555 1_555
H14 O5 1_555 1_555
O6 H15 1_555 1_555
H16 O6 1_555 1_555
Zn1_2 O4B 1_555 1_555
Zn1_3 N1B 1_555 1_555
O1B Zn1 1_555 1_555
H1B O1B 1_555 1_555
H2B O1B 1_555 1_555
O2B C9B 1_555 1_555
O3B C10B 1_555 1_555
O4B C10B 1_555 1_555
O4B_2 Zn1 1_555 1_555
N1B C2B 1_555 1_555
N1B_2 Zn1 1_555 1_555
N2B C3B 1_555 1_555
C1B H3B 1_555 1_555
C2B C1B 1_555 1_555
H4B C2B 1_555 1_555
C3B C8 1_555 1_555
H5B C3B 1_555 1_555
H6B C3B 1_555 1_555
C4B C6 1_555 1_555
H7B C4B 1_555 1_555
C5B H8B 1_555 1_555
C6B C4 1_555 1_555
C7B C1B 1_555 1_555
C8B C3 1_555 1_555
H9B C8B 1_555 1_555
H10B C8B 1_555 1_555
C9B N2B 1_555 1_555
C10B C6B 1_555 1_555
C11B C4B 1_555 1_555
H11B C11B 1_555 1_555
C12B N1B 1_555 1_555
H12B C12B 1_555 1_555
C1 C2 1_555 1_555
C5 C7 1_555 1_555
C5 C12 1_555 1_555
C6 C11 1_555 1_555
C7 C9 1_555 1_555
N2B C8B 1_555 1_555
C5B C7B 1_555 1_555
C5B C12B 1_555 1_555
C6B C11B 1_555 1_555
C7B C9B 1_555 1_555

#END
