
#######################################################################
#
#                 Cambridge Crystallographic Data Centre
#                                CCDC 
#
#######################################################################
#
# If this CIF has been generated from an entry in the Cambridge 
# Structural Database, then it will include bibliographic, chemical, 
# crystal, experimental, refinement or atomic coordinate data resulting 
# from the CCDC's data processing and validation procedures.
#
#######################################################################

data_XEHMAA
_symmetry_cell_setting           monoclinic
_symmetry_space_group_name_H-M   'P 21/n'
_symmetry_Int_Tables_number      14
_space_group_name_Hall           '-P 2yn'
loop_
_symmetry_equiv_pos_site_id
_symmetry_equiv_pos_as_xyz
1 x,y,z
2 1/2-x,1/2+y,1/2-z
3 -x,-y,-z
4 1/2+x,1/2-y,1/2+z
_cell_length_a                   11.120(3)
_cell_length_b                   12.006(3)
_cell_length_c                   11.406(3)
_cell_angle_alpha                90
_cell_angle_beta                 119.161(3)
_cell_angle_gamma                90
_cell_volume                     1329.77
loop_
_atom_site_label
_atom_site_type_symbol
_atom_site_fract_x
_atom_site_fract_y
_atom_site_fract_z
Co1 Co 0.5000 0.0000 0.5000
O1 O 0.4313(3) 0.1317(2) 0.5753(3)
H1 H 0.511(2) 0.144(4) 0.641(3)
H2 H 0.376(3) 0.125(4) 0.608(4)
O2 O 0.7658(3) 0.3698(3) 0.1980(3)
O3 O 0.3154(3) -0.1533(2) 0.2239(3)
O4 O 0.3248(3) 0.0140(2) 0.3167(3)
N1 N 0.5987(3) 0.1269(3) 0.4425(3)
N2 N 0.8760(3) 0.4501(3) 0.4033(3)
C1 C 0.9019(4) 0.4662(4) 0.5410(4)
H3 H 0.8574 0.4057 0.5650
H4 H 0.8619 0.5380 0.5477
C2 C 0.9428(4) 0.5342(4) 0.3617(4)
H5 H 0.9043 0.6086 0.3612
H6 H 0.9253 0.5177 0.2696
C3 C 0.8017(4) 0.2031(4) 0.4498(4)
H7 H 0.8981 0.1978 0.4823
C4 C 0.7353(4) 0.1250(3) 0.4855(4)
H8 H 0.7883 0.0664 0.5437
C5 C 0.5854(4) 0.2935(3) 0.3214(4)
H9 H 0.5304 0.3517 0.2638
C6 C 0.5269(4) 0.2121(3) 0.3617(4)
H10 H 0.4308 0.2160 0.3311
C7 C 0.0617(4) 0.0687(3) 0.1126(4)
H11 H 0.1038 0.1155 0.1894
C8 C 0.1285(4) -0.0278(3) 0.1070(4)
C9 C 0.2665(4) -0.0585(3) 0.2236(4)
C10 C 0.7914(4) 0.3739(3) 0.3173(4)
C11 C 0.0669(4) -0.0964(3) -0.0056(4)
H12 H 0.1125 -0.1620 -0.0095
C12 C 0.7264(4) 0.2899(3) 0.3656(4)
Co1_2 Co -0.5000 0.0000 -0.5000
Co1_3 Co 1.5000 1.0000 0.5000
O1B O 0.5687(3) -0.1317(2) 0.4247(3)
H1B H 0.489(2) -0.144(4) 0.359(3)
H2B H 0.624(3) -0.125(4) 0.392(4)
O2B O 1.2342(3) 0.6302(3) 0.8020(3)
O3B O -0.3154(3) 0.1533(2) -0.2239(3)
O4B O -0.3248(3) -0.0140(2) -0.3167(3)
O4B_2 O 0.6752(3) -0.0140(2) 0.6833(3)
N1B N 1.4013(3) 0.8731(3) 0.5575(3)
N1B_2 N 0.4013(3) -0.1269(3) 0.5575(3)
N2B N 1.1240(3) 0.5499(3) 0.5967(3)
C1B C 1.0981(4) 0.5338(4) 0.4590(4)
H3B H 1.1426 0.5943 0.4350
H4B H 1.1381 0.4620 0.4523
C2B C 1.0572(4) 0.4658(4) 0.6383(4)
H5B H 1.0957 0.3914 0.6388
H6B H 1.0747 0.4823 0.7304
C3B C 1.1983(4) 0.7969(4) 0.5502(4)
H7B H 1.1019 0.8022 0.5177
C4B C 1.2647(4) 0.8750(3) 0.5145(4)
H8B H 1.2117 0.9336 0.4563
C5B C 1.4146(4) 0.7065(3) 0.6786(4)
H9B H 1.4696 0.6483 0.7362
C6B C 1.4731(4) 0.7879(3) 0.6383(4)
H10B H 1.5692 0.7840 0.6689
C7B C -0.0617(4) -0.0687(3) -0.1126(4)
H11B H -0.1038 -0.1155 -0.1894
C8B C -0.1285(4) 0.0278(3) -0.1070(4)
C9B C -0.2665(4) 0.0585(3) -0.2236(4)
C10B C 1.2086(4) 0.6261(3) 0.6827(4)
C11B C -0.0669(4) 0.0964(3) 0.0056(4)
H12B H -0.1125 0.1620 0.0095
C12B C 1.2736(4) 0.7101(3) 0.6344(4)
O5 O 0.0971(3) 0.2337(3) 0.4394(3)
H13 H 0.159(4) 0.209(4) 0.516(3)
H14 H 0.138(4) 0.261(5) 0.400(4)
O6 O -0.0250(7) 0.0203(5) 0.3598(8)
loop_
_geom_bond_atom_site_label_1
_geom_bond_atom_site_label_2
_geom_bond_site_symmetry_1
_geom_bond_site_symmetry_2
Co1 O1 1_555 1_555
O1 H1 1_555 1_555
H2 O1 1_555 1_555
O2 C10 1_555 1_555
O3 C9 1_555 1_555
O4 Co1 1_555 1_555
N1 Co1 1_555 1_555
N2 C1 1_555 1_555
C1 H3 1_555 1_555
H4 C1 1_555 1_555
C2 N2 1_555 1_555
H5 C2 1_555 1_555
H6 C2 1_555 1_555
C3 H7 1_555 1_555
C4 N1 1_555 1_555
H8 C4 1_555 1_555
C5 H9 1_555 1_555
C6 N1 1_555 1_555
H10 C6 1_555 1_555
C7 H11 1_555 1_555
C8 C7 1_555 1_555
C9 O4 1_555 1_555
C10 N2 1_555 1_555
C11 C8 1_555 1_555
H12 C11 1_555 1_555
C12 C3 1_555 1_555
O5 H13 1_555 1_555
H14 O5 1_555 1_555
Co1_2 O4B 1_555 1_555
Co1_3 N1B 1_555 1_555
O1B Co1 1_555 1_555
H1B O1B 1_555 1_555
H2B O1B 1_555 1_555
O2B C10B 1_555 1_555
O3B C9B 1_555 1_555
O4B C9B 1_555 1_555
O4B_2 Co1 1_555 1_555
N1B C4B 1_555 1_555
N1B_2 Co1 1_555 1_555
N2B C1B 1_555 1_555
C1B C2 1_555 1_555
H3B C1B 1_555 1_555
H4B C1B 1_555 1_555
C2B C1 1_555 1_555
H5B C2B 1_555 1_555
H6B C2B 1_555 1_555
C3B H7B 1_555 1_555
C4B C3B 1_555 1_555
H8B C4B 1_555 1_555
C5B H9B 1_555 1_555
C6B N1B 1_555 1_555
H10B C6B 1_555 1_555
C7B C11 1_555 1_555
H11B C7B 1_555 1_555
C8B C7B 1_555 1_555
C9B C8B 1_555 1_555
C10B N2B 1_555 1_555
C11B C7 1_555 1_555
H12B C11B 1_555 1_555
C12B C3B 1_555 1_555
C3 C4 1_555 1_555
C5 C6 1_555 1_555
C5 C12 1_555 1_555
C8 C9 1_555 1_555
C10 C12 1_555 1_555
N2B C2B 1_555 1_555
C5B C6B 1_555 1_555
C5B C12B 1_555 1_555
C8B C11B 1_555 1_555
C10B C12B 1_555 1_555

#END
