
#######################################################################
#
#                 Cambridge Crystallographic Data Centre
#                                CCDC 
#
#######################################################################
#
# If this CIF has been generated from an entry in the Cambridge 
# Structural Database, then it will include bibliographic, chemical, 
# crystal, experimental, refinement or atomic coordinate data resulting 
# from the CCDC's data processing and validation procedures.
#
#######################################################################

data_XEHMII
_symmetry_cell_setting           monoclinic
_symmetry_space_group_name_H-M   'P 21/c'
_symmetry_Int_Tables_number      14
_space_group_name_Hall           '-P 2ybc'
loop_
_symmetry_equiv_pos_site_id
_symmetry_equiv_pos_as_xyz
1 x,y,z
2 -x,1/2+y,1/2-z
3 -x,-y,-z
4 x,1/2-y,1/2+z
_cell_length_a                   10.4159(8)
_cell_length_b                   18.6675(15)
_cell_length_c                   10.0697(8)
_cell_angle_alpha                90
_cell_angle_beta                 98.7340(10)
_cell_angle_gamma                90
_cell_volume                     1935.24
loop_
_atom_site_label
_atom_site_type_symbol
_atom_site_fract_x
_atom_site_fract_y
_atom_site_fract_z
Zn1 Zn 0.33103(4) 0.15618(2) 0.90538(4)
Cl1 Cl 0.23040(9) 0.26106(5) 0.86068(9)
O1 O 0.3688(2) 0.11975(12) 0.7347(2)
O2 O 0.4620(2) 0.02787(13) 0.8524(2)
O3 O 0.8482(3) 0.28842(13) 1.3664(3)
O4 O 1.1132(2) 0.00075(13) 1.7330(2)
N1 N 0.7776(3) -0.09558(14) 1.9840(3)
N2 N 0.8482(3) 0.17650(15) 1.4518(3)
N3 N 0.9484(3) 0.07565(15) 1.6561(3)
N4 N 0.4886(3) 0.18076(14) 1.0486(3)
C1 C 0.6890(4) 0.14700(19) 1.1810(3)
H1 H 0.7576 0.1132 1.1992
C2 C 0.5876(4) 0.13500(19) 1.0782(3)
H2 H 0.5881 0.0925 1.0265
C3 C 0.4293(3) 0.05986(19) 0.7450(4)
C4 C 1.0347(3) 0.11954(19) 1.5862(4)
H3 H 1.0546 0.0938 1.5058
H4 H 1.1175 0.1285 1.6465
C5 C 0.9991(3) 0.01978(18) 1.7289(3)
C6 C 0.4895(4) 0.24081(18) 1.1224(3)
H5 H 0.4194 0.2736 1.1030
C7 C 0.8517(4) -0.12926(19) 1.9061(3)
H6 H 0.8564 -0.1801 1.9096
C8 C 0.5402(3) -0.03322(18) 0.6220(3)
H7 H 0.5673 -0.0562 0.7058
C9 C 0.7763(3) 0.11147(19) 1.4778(3)
H8 H 0.7999 0.0717 1.4212
H9 H 0.6817 0.1201 1.4548
C10 C 0.5885(3) 0.25638(18) 1.2251(3)
H10 H 0.5872 0.2998 1.2741
C11 C 0.8402(3) 0.01566(18) 1.8967(3)
H11 H 0.8352 0.0665 1.8962
C12 C 0.8090(3) 0.09158(19) 1.6240(3)
H12 H 0.7865 0.1317 1.6806
H13 H 0.7578 0.0491 1.6430
C13 C 0.8013(3) 0.22829(19) 1.3650(3)
C14 C 0.4237(3) 0.06141(18) 0.4930(3)
H14 H 0.3710 0.1032 0.4879
C15 C 0.9690(3) 0.18968(18) 1.5449(3)
H15 H 0.9491 0.2153 1.6254
H16 H 1.0278 0.2201 1.5007
C16 C 0.7720(3) -0.02391(18) 1.9780(3)
H17 H 0.7190 0.0006 2.0321
C17 C 0.9216(4) -0.09332(18) 1.8211(3)
H18 H 0.9730 -0.1191 1.7670
C18 C 0.6896(3) 0.20848(17) 1.2568(3)
C19 C 0.4640(3) 0.02889(17) 0.6173(3)
C20 C 0.9162(3) -0.01942(18) 1.8154(3)
Zn1B Zn 0.66897(4) -0.15618(2) 0.09462(4)
Zn1_2 Zn 0.33103(4) 0.15618(2) -1.09462(4)
Zn1B_2 Zn 0.66897(4) -0.15618(2) 2.09462(4)
Cl1B Cl 0.76960(9) -0.26106(5) 0.13932(9)
O1B O 0.6312(2) -0.11975(12) 0.2653(2)
O2B O 0.5380(2) -0.02787(13) 0.1476(2)
O3B O 0.1518(3) -0.28842(13) -0.3664(3)
O4B O -0.1132(2) -0.00075(13) -0.7330(2)
N1B N 0.2224(3) 0.09558(14) -0.9840(3)
N1_2 N 0.7776(3) -0.09558(14) -0.0160(3)
N1B_2 N 0.2224(3) 0.09558(14) 1.0160(3)
N2B N 0.1518(3) -0.17650(15) -0.4518(3)
N3B N 0.0516(3) -0.07565(15) -0.6561(3)
N4B N 0.5114(3) -0.18076(14) -0.0486(3)
C1B C 0.3110(4) -0.14700(19) -0.1810(3)
H1B H 0.2424 -0.1132 -0.1992
C2B C 0.4124(4) -0.13500(19) -0.0782(3)
H2B H 0.4119 -0.0925 -0.0265
C3B C 0.5707(3) -0.05986(19) 0.2550(4)
C4B C -0.0347(3) -0.11954(19) -0.5862(4)
H3B H -0.0546 -0.0938 -0.5058
H4B H -0.1175 -0.1285 -0.6465
C5B C 0.0009(3) -0.01978(18) -0.7289(3)
C6B C 0.5105(4) -0.24081(18) -0.1224(3)
H5B H 0.5806 -0.2736 -0.1030
C7B C 0.1483(4) 0.12926(19) -0.9061(3)
H6B H 0.1436 0.1801 -0.9096
C8B C 0.4598(3) 0.03322(18) 0.3780(3)
H7B H 0.4327 0.0562 0.2942
C9B C 0.2237(3) -0.11147(19) -0.4778(3)
H8B H 0.2001 -0.0717 -0.4212
H9B H 0.3183 -0.1201 -0.4548
C10B C 0.4115(3) -0.25638(18) -0.2251(3)
H10B H 0.4128 -0.2998 -0.2741
C11B C 0.1598(3) -0.01566(18) -0.8967(3)
H11B H 0.1648 -0.0665 -0.8962
C12B C 0.1910(3) -0.09158(19) -0.6240(3)
H12B H 0.2135 -0.1317 -0.6806
H13B H 0.2422 -0.0491 -0.6430
C13B C 0.1987(3) -0.22829(19) -0.3650(3)
C14B C 0.5763(3) -0.06141(18) 0.5070(3)
H14B H 0.6290 -0.1032 0.5121
C15B C 0.0310(3) -0.18968(18) -0.5449(3)
H15B H 0.0509 -0.2153 -0.6254
H16B H -0.0278 -0.2201 -0.5007
C16B C 0.2280(3) 0.02391(18) -0.9780(3)
H17B H 0.2810 -0.0006 -1.0321
C17B C 0.0784(4) 0.09332(18) -0.8211(3)
H18B H 0.0270 0.1191 -0.7670
C18B C 0.3104(3) -0.20848(17) -0.2568(3)
C19B C 0.5360(3) -0.02889(17) 0.3827(3)
C20B C 0.0838(3) 0.01942(18) -0.8154(3)
loop_
_geom_bond_atom_site_label_1
_geom_bond_atom_site_label_2
_geom_bond_site_symmetry_1
_geom_bond_site_symmetry_2
Zn1 Cl1 1_555 1_555
O1 Zn1 1_555 1_555
O2 C3 1_555 1_555
O3 C13 1_555 1_555
O4 C5 1_555 1_555
N1 C7 1_555 1_555
N2 C9 1_555 1_555
N3 C4 1_555 1_555
N4 Zn1 1_555 1_555
C1 H1 1_555 1_555
C2 N4 1_555 1_555
H2 C2 1_555 1_555
C3 O1 1_555 1_555
C4 H3 1_555 1_555
H4 C4 1_555 1_555
C5 N3 1_555 1_555
C6 N4 1_555 1_555
H5 C6 1_555 1_555
C7 H6 1_555 1_555
C8 H7 1_555 1_555
C9 H8 1_555 1_555
H9 C9 1_555 1_555
C10 C6 1_555 1_555
H10 C10 1_555 1_555
C11 H11 1_555 1_555
C12 N3 1_555 1_555
H12 C12 1_555 1_555
H13 C12 1_555 1_555
C13 N2 1_555 1_555
C14 H14 1_555 1_555
C15 N2 1_555 1_555
H15 C15 1_555 1_555
H16 C15 1_555 1_555
C16 N1 1_555 1_555
H17 C16 1_555 1_555
C17 C7 1_555 1_555
H18 C17 1_555 1_555
C18 C1 1_555 1_555
C19 C3 1_555 1_555
C20 C5 1_555 1_555
Zn1B Cl1B 1_555 1_555
Zn1_2 N1B 1_555 1_555
Zn1B_2 N1 1_555 1_555
O1B Zn1B 1_555 1_555
O2B C3B 1_555 1_555
O3B C13B 1_555 1_555
O4B C5B 1_555 1_555
N1B C7B 1_555 1_555
N1_2 Zn1B 1_555 1_555
N1B_2 Zn1 1_555 1_555
N2B C9B 1_555 1_555
N3B C4B 1_555 1_555
N4B Zn1B 1_555 1_555
C1B H1B 1_555 1_555
C2B N4B 1_555 1_555
H2B C2B 1_555 1_555
C3B O1B 1_555 1_555
C4B H3B 1_555 1_555
H4B C4B 1_555 1_555
C5B N3B 1_555 1_555
C6B N4B 1_555 1_555
H5B C6B 1_555 1_555
C7B H6B 1_555 1_555
C8B C14 1_555 1_555
H7B C8B 1_555 1_555
C9B H8B 1_555 1_555
H9B C9B 1_555 1_555
C10B C6B 1_555 1_555
H10B C10B 1_555 1_555
C11B H11B 1_555 1_555
C12B N3B 1_555 1_555
H12B C12B 1_555 1_555
H13B C12B 1_555 1_555
C13B N2B 1_555 1_555
C14B C8 1_555 1_555
H14B C14B 1_555 1_555
C15B N2B 1_555 1_555
H15B C15B 1_555 1_555
H16B C15B 1_555 1_555
C16B N1B 1_555 1_555
H17B C16B 1_555 1_555
C17B C7B 1_555 1_555
H18B C17B 1_555 1_555
C18B C1B 1_555 1_555
C19B C3B 1_555 1_555
C20B C5B 1_555 1_555
C1 C2 1_555 1_555
C4 C15 1_555 1_555
C8 C19 1_555 1_555
C9 C12 1_555 1_555
C10 C18 1_555 1_555
C11 C16 1_555 1_555
C11 C20 1_555 1_555
C13 C18 1_555 1_555
C14 C19 1_555 1_555
C17 C20 1_555 1_555
C1B C2B 1_555 1_555
C4B C15B 1_555 1_555
C8B C19B 1_555 1_555
C9B C12B 1_555 1_555
C10B C18B 1_555 1_555
C11B C16B 1_555 1_555
C11B C20B 1_555 1_555
C13B C18B 1_555 1_555
C14B C19B 1_555 1_555
C17B C20B 1_555 1_555

#END
