
#######################################################################
#
#                 Cambridge Crystallographic Data Centre
#                                CCDC 
#
#######################################################################
#
# If this CIF has been generated from an entry in the Cambridge 
# Structural Database, then it will include bibliographic, chemical, 
# crystal, experimental, refinement or atomic coordinate data resulting 
# from the CCDC's data processing and validation procedures.
#
#######################################################################

data_XEHQUW
_symmetry_cell_setting           monoclinic
_symmetry_space_group_name_H-M   'P 21/c'
_symmetry_Int_Tables_number      14
_space_group_name_Hall           '-P 2ybc'
loop_
_symmetry_equiv_pos_site_id
_symmetry_equiv_pos_as_xyz
1 x,y,z
2 x,1/2-y,1/2+z
3 -x,-y,-z
4 -x,1/2+y,1/2-z
_cell_length_a                   13.691(9)
_cell_length_b                   33.228(14)
_cell_length_c                   13.363(9)
_cell_angle_alpha                90
_cell_angle_beta                 117.82(2)
_cell_angle_gamma                90
_cell_volume                     5376.52
loop_
_atom_site_label
_atom_site_type_symbol
_atom_site_fract_x
_atom_site_fract_y
_atom_site_fract_z
I1 I -1.42715(18) -0.12342(6) -0.02100(20)
I2 I -1.39451(13) -0.04350(5) -0.04782(14)
I3 I -1.37076(13) 0.05092(5) -0.08224(14)
I4 I -1.12482(13) 0.05066(5) 0.03704(14)
I5 I -0.89054(15) 0.04666(6) 0.14628(18)
I6 I -0.89707(13) 0.13285(6) 0.02082(15)
I7 I -0.91451(15) 0.20485(6) -0.08746(16)
I8 I -1.68756(14) 0.23279(5) -0.81993(16)
I9 I -1.55720(14) 0.25391(5) -0.59929(16)
I10 I -1.40660(15) 0.27906(7) -0.32957(17)
I11 I -1.18526(15) 0.29066(5) -0.28887(15)
I12 I -0.94517(17) 0.29726(5) -0.22848(20)
I13 I -0.94932(13) 0.38446(5) -0.12878(15)
I14 I -0.96010(14) 0.46076(5) -0.05565(17)
I14B I -1.03990(14) 0.53924(5) 0.05565(17)
I8_2 I -0.68756(14) 0.23279(5) 0.18007(16)
Fe1 Fe -0.26655(22) 0.10573(8) 0.55792(25)
N1 N -0.1086(12) 0.0933(5) 0.6486(13)
N2 N -0.2117(13) 0.1572(4) 0.5390(13)
C1 C -0.0594(17) 0.0611(6) 0.7083(18)
C2 C 0.0559(18) 0.0559(7) 0.7660(19)
C3 C 0.1232(18) 0.0863(8) 0.7589(20)
C4 C 0.0733(18) 0.1203(7) 0.6969(20)
C5 C 0.1285(18) 0.1541(8) 0.6795(21)
C6 C 0.0820(20) 0.1874(8) 0.6265(21)
C7 C -0.0376(18) 0.1913(7) 0.5753(19)
C8 C -0.1006(21) 0.2254(7) 0.5183(19)
C9 C -0.2085(20) 0.2255(6) 0.4788(18)
C10 C -0.2637(17) 0.1902(6) 0.4868(17)
C11 C -0.0981(17) 0.1579(6) 0.5835(17)
C12 C -0.0407(17) 0.1235(6) 0.6455(17)
N3 N -0.2844(12) 0.1278(4) 0.6840(13)
N4 N -0.4247(12) 0.1201(4) 0.4703(14)
C13 C -0.2094(17) 0.1339(6) 0.7935(18)
C14 C -0.2422(18) 0.1504(6) 0.8685(18)
C15 C -0.3484(19) 0.1594(7) 0.8422(19)
C16 C -0.4285(17) 0.1539(6) 0.7255(19)
C17 C -0.5407(19) 0.1621(6) 0.6874(20)
C18 C -0.6152(17) 0.1580(6) 0.5747(21)
C19 C -0.5800(16) 0.1444(6) 0.4934(19)
C20 C -0.6518(16) 0.1402(6) 0.3784(20)
C21 C -0.6053(17) 0.1267(6) 0.3107(18)
C22 C -0.4922(16) 0.1181(6) 0.3618(17)
C23 C -0.4669(16) 0.1345(5) 0.5387(18)
C24 C -0.3930(17) 0.1380(6) 0.6522(18)
N5 N -0.3119(12) 0.0510(5) 0.5719(14)
N6 N -0.2645(12) 0.0821(5) 0.4232(13)
C25 C -0.3345(16) 0.0354(6) 0.6544(18)
C26 C -0.3657(17) -0.0037(6) 0.6509(20)
C27 C -0.3768(17) -0.0292(6) 0.5640(21)
C28 C -0.3535(16) -0.0151(6) 0.4834(19)
C29 C -0.3611(17) -0.0377(6) 0.3871(21)
C30 C -0.3388(17) -0.0203(7) 0.3073(19)
C31 C -0.3053(16) 0.0198(6) 0.3185(18)
C32 C -0.2833(17) 0.0394(7) 0.2359(18)
C33 C -0.2540(17) 0.0790(7) 0.2490(18)
C34 C -0.2466(16) 0.1005(6) 0.3432(17)
C35 C -0.2960(15) 0.0432(6) 0.4057(17)
C36 C -0.3234(15) 0.0251(6) 0.4882(18)
H1 H -0.1067 0.0390 0.7128
H2 H 0.0891 0.0310 0.8112
H3 H 0.2054 0.0835 0.7978
H4 H 0.2104 0.1520 0.7108
H5 H 0.1279 0.2099 0.6214
H6 H -0.0630 0.2496 0.5079
H7 H -0.2518 0.2504 0.4431
H8 H -0.3462 0.1905 0.4508
H9 H -0.1303 0.1265 0.8205
H10 H -0.1836 0.1562 0.9473
H11 H -0.3695 0.1692 0.9002
H12 H -0.5668 0.1710 0.7424
H13 H -0.6947 0.1646 0.5484
H14 H -0.7323 0.1464 0.3458
H15 H -0.6521 0.1233 0.2273
H16 H -0.4604 0.1097 0.3112
H17 H -0.3278 0.0530 0.7179
H18 H -0.3810 -0.0142 0.7123
H19 H -0.4018 -0.0576 0.5615
H20 H -0.3831 -0.0667 0.3789
H21 H -0.3466 -0.0364 0.2407
H22 H -0.2893 0.0241 0.1688
H23 H -0.2379 0.0928 0.1918
H24 H -0.2277 0.1298 0.3509
loop_
_geom_bond_atom_site_label_1
_geom_bond_atom_site_label_2
_geom_bond_site_symmetry_1
_geom_bond_site_symmetry_2
Fe1 N1 1_555 1_555
N1 C1 1_555 1_555
N2 Fe1 1_555 1_555
C1 C2 1_555 1_555
C2 C3 1_555 1_555
C3 C4 1_555 1_555
C4 C5 1_555 1_555
C5 C6 1_555 1_555
C6 C7 1_555 1_555
C7 C8 1_555 1_555
C8 C9 1_555 1_555
C9 C10 1_555 1_555
C10 N2 1_555 1_555
C11 N2 1_555 1_555
C12 N1 1_555 1_555
N3 Fe1 1_555 1_555
N4 Fe1 1_555 1_555
C13 N3 1_555 1_555
C14 C13 1_555 1_555
C15 C14 1_555 1_555
C16 C15 1_555 1_555
C17 C16 1_555 1_555
C18 C17 1_555 1_555
C19 C18 1_555 1_555
C20 C19 1_555 1_555
C21 C20 1_555 1_555
C22 N4 1_555 1_555
C23 N4 1_555 1_555
C24 N3 1_555 1_555
N5 Fe1 1_555 1_555
N6 Fe1 1_555 1_555
C25 N5 1_555 1_555
C26 C25 1_555 1_555
C27 C26 1_555 1_555
C28 C27 1_555 1_555
C29 C28 1_555 1_555
C30 C29 1_555 1_555
C31 C30 1_555 1_555
C32 C31 1_555 1_555
C33 C32 1_555 1_555
C34 N6 1_555 1_555
C35 N6 1_555 1_555
C36 N5 1_555 1_555
I1 I2 1_555 1_555
I2 I3 1_555 1_555
I3 I4 1_555 1_555
I4 I5 1_555 1_555
I5 I6 1_555 1_555
I6 I7 1_555 1_555
I7 I12 1_555 1_555
I8 I9 1_555 1_555
I9 I10 1_555 1_555
I10 I11 1_555 1_555
I11 I12 1_555 1_555
I12 I13 1_555 1_555
I13 I14 1_555 1_555
I14 I14B 1_555 1_555
H1 C1 1_555 1_555
H2 C2 1_555 1_555
H3 C3 1_555 1_555
H4 C5 1_555 1_555
H5 C6 1_555 1_555
H6 C8 1_555 1_555
H7 C9 1_555 1_555
H8 C10 1_555 1_555
H9 C13 1_555 1_555
H10 C14 1_555 1_555
H11 C15 1_555 1_555
H12 C17 1_555 1_555
H13 C18 1_555 1_555
H14 C20 1_555 1_555
H15 C21 1_555 1_555
H16 C22 1_555 1_555
H17 C25 1_555 1_555
H18 C26 1_555 1_555
H19 C27 1_555 1_555
H20 C29 1_555 1_555
H21 C30 1_555 1_555
H22 C32 1_555 1_555
H23 C33 1_555 1_555
H24 C34 1_555 1_555
I8_2 I7 1_555 1_555
C4 C12 1_555 1_555
C7 C11 1_555 1_555
C11 C12 1_555 1_555
C16 C24 1_555 1_555
C19 C23 1_555 1_555
C21 C22 1_555 1_555
C23 C24 1_555 1_555
C28 C36 1_555 1_555
C31 C35 1_555 1_555
C33 C34 1_555 1_555
C35 C36 1_555 1_555

#END
