
#######################################################################
#
#                 Cambridge Crystallographic Data Centre
#                                CCDC 
#
#######################################################################
#
# If this CIF has been generated from an entry in the Cambridge 
# Structural Database, then it will include bibliographic, chemical, 
# crystal, experimental, refinement or atomic coordinate data resulting 
# from the CCDC's data processing and validation procedures.
#
#######################################################################

data_XEHRUY
_symmetry_cell_setting           monoclinic
_symmetry_space_group_name_H-M   'P 21/n'
_symmetry_Int_Tables_number      14
_space_group_name_Hall           '-P 2yn'
loop_
_symmetry_equiv_pos_site_id
_symmetry_equiv_pos_as_xyz
1 x,y,z
2 1/2-x,1/2+y,1/2-z
3 -x,-y,-z
4 1/2+x,1/2-y,1/2+z
_cell_length_a                   11.3805(4)
_cell_length_b                   9.8406(3)
_cell_length_c                   14.5057(5)
_cell_angle_alpha                90
_cell_angle_beta                 91.429(2)
_cell_angle_gamma                90
_cell_volume                     1624
loop_
_atom_site_label
_atom_site_type_symbol
_atom_site_fract_x
_atom_site_fract_y
_atom_site_fract_z
Mg1 Mg 0.25647(4) 0.41905(5) 0.63437(4)
Mg2 Mg 0.0000 0.5000 0.5000
Mg3 Mg 0.23929(5) 0.60922(5) 0.81060(4)
Mg4 Mg 0.5000 0.5000 0.5000
O1 O 0.13109(9) 0.50375(10) 0.71982(8)
O2 O -0.03690(10) 0.50172(12) 0.63788(8)
O3 O 0.15722(9) 0.24187(10) 0.61046(8)
O4 O 0.01837(10) 0.29229(11) 0.50396(8)
O5 O 0.39986(9) 0.34726(10) 0.56333(8)
O6 O 0.39008(10) 0.12511(11) 0.59708(8)
O7 O 0.30748(9) 0.29732(10) 0.74687(7)
O8 O 0.31286(10) 0.44012(11) 0.86741(8)
O9 O 0.18277(9) 0.52389(11) 0.52466(8)
O10 O 0.34981(10) 0.60195(11) 0.46589(9)
O11 O 0.34829(9) 0.57942(10) 0.69661(8)
O12 O 0.51428(10) 0.61049(12) 0.61969(9)
C1 C 0.02053(13) 0.51646(15) 0.71069(11)
H1 H -0.0208 0.5387 0.7631
C2 C 0.07663(14) 0.21114(14) 0.55138(11)
H2 H 0.0602 0.1193 0.5432
C3 C 0.43339(13) 0.22355(14) 0.55705(11)
H3 H 0.4961 0.2060 0.5189
C4 C 0.32876(13) 0.32743(14) 0.83125(11)
H4 H 0.3589 0.2588 0.8690
C5 C 0.24174(13) 0.59788(15) 0.46970(11)
H5 H 0.1993 0.6534 0.4291
C6 C 0.44822(14) 0.63435(15) 0.68384(11)
H6 H 0.4736 0.6985 0.7270
Mg1B Mg -0.25647(4) 0.58095(5) 0.36563(4)
Mg1A Mg 0.24353(4) 0.91905(5) 0.86563(4)
Mg1B_2 Mg 0.74353(4) 0.58095(5) 0.36563(4)
Mg3B Mg -0.23929(5) 0.39078(5) 0.18940(4)
Mg3A Mg 0.26071(5) 0.10922(5) 0.68940(4)
Mg3C Mg -0.26071(5) 0.89078(5) 0.31060(4)
Mg3A_2 Mg 0.26071(5) 1.10922(5) 0.68940(4)
Mg3B_2 Mg 0.76071(5) 0.39078(5) 0.18940(4)
Mg4_2 Mg -0.5000 0.5000 0.5000
Mg4C Mg 0.0000 1.0000 1.0000
O1B O -0.13109(9) 0.49625(10) 0.28018(8)
O2B O 0.03690(10) 0.49828(12) 0.36212(8)
O3B O -0.15722(9) 0.75813(10) 0.38954(8)
O3A O 0.34278(9) 0.74187(10) 0.88954(8)
O3C O -0.34278(9) 0.25813(10) 0.11046(8)
O4B O -0.01837(10) 0.70771(11) 0.49604(8)
O5A O 0.10014(9) 0.84726(10) 0.93667(8)
O5B O 0.60014(9) 0.65274(10) 0.43667(8)
O5B_2 O -0.39986(9) 0.65274(10) 0.43667(8)
O6A O 0.10992(10) 0.62511(11) 0.90292(8)
O6C O -0.10992(10) 0.37489(11) 0.09708(8)
O7A O 0.19252(9) 0.79732(10) 0.75313(7)
O7B O -0.30748(9) 0.70268(10) 0.25313(7)
O7C O -0.19252(9) 0.20268(10) 0.24687(7)
O8A O 0.18714(10) 0.94012(11) 0.63259(8)
O8B O -0.31286(10) 0.55988(11) 0.13259(8)
O9B O -0.18277(9) 0.47611(11) 0.47534(8)
O10B O -0.34981(10) 0.39805(11) 0.53411(9)
O10B_2 O 0.65019(10) 0.39805(11) 0.53411(9)
O11B O 0.65171(9) 0.42058(10) 0.30339(8)
O11B_2 O -0.34829(9) 0.42058(10) 0.30339(8)
O12B O 0.48572(10) 0.38951(12) 0.38031(9)
C1B C -0.02053(13) 0.48354(15) 0.28931(11)
H1B H 0.0208 0.4613 0.2369
C2B C -0.07663(14) 0.78886(14) 0.44862(11)
H2B H -0.0602 0.8807 0.4568
C3A C 0.06661(13) 0.72355(14) 0.94295(11)
H3A H 0.0039 0.7060 0.9811
C4A C 0.17124(13) 0.82743(14) 0.66875(11)
H4A H 0.1411 0.7588 0.6310
C5B C -0.24174(13) 0.40212(15) 0.53030(11)
H5B H -0.1993 0.3466 0.5709
C6B C 0.55178(14) 0.36565(15) 0.31616(11)
H6B H 0.5264 0.3015 0.2730
O13 O 0.7188(4) 0.1645(4) 0.7007(3)
C7 C 0.6485(4) 0.3675(5) 0.7860(4)
H7 H 0.6528 0.4205 0.7306
H8 H 0.6654 0.4244 0.8385
H9 H 0.5710 0.3301 0.7907
C8 C 0.7364(4) 0.2545(5) 0.7833(5)
H10 H 0.7305 0.2002 0.8388
H11 H 0.8149 0.2929 0.7826
C9 C 0.7802(7) 0.0494(8) 0.6928(5)
H12 H 0.7747 -0.0024 0.7494
H13 H 0.8623 0.0716 0.6845
C10 C 0.7373(9) -0.0363(12) 0.6134(6)
H14 H 0.6542 -0.0503 0.6177
H15 H 0.7768 -0.1225 0.6151
H16 H 0.7536 0.0090 0.5565
C11? C 0.8623(8) -0.0292(9) 0.6359(8)
H17? H 0.9226 0.0169 0.6713
H18? H 0.8912 -0.0511 0.5761
H19? H 0.8408 -0.1112 0.6670
C12? C 0.7630(10) 0.0559(11) 0.6260(8)
H20? H 0.6969 -0.0042 0.6139
H21? H 0.7740 0.1070 0.5697
loop_
_geom_bond_atom_site_label_1
_geom_bond_atom_site_label_2
_geom_bond_site_symmetry_1
_geom_bond_site_symmetry_2
Mg1 O1 1_555 1_555
Mg2 O2 1_555 1_555
Mg3 O1 1_555 1_555
Mg4 O5 1_555 1_555
O1 C1 1_555 1_555
O2 C1 1_555 1_555
O3 Mg1 1_555 1_555
O4 Mg2 1_555 1_555
O5 Mg1 1_555 1_555
O6 C3 1_555 1_555
O7 Mg1 1_555 1_555
O8 Mg3 1_555 1_555
O9 Mg1 1_555 1_555
O10 Mg4 1_555 1_555
O11 Mg1 1_555 1_555
O12 Mg4 1_555 1_555
C1 H1 1_555 1_555
C2 O3 1_555 1_555
H2 C2 1_555 1_555
C3 O5 1_555 1_555
H3 C3 1_555 1_555
C4 O7 1_555 1_555
H4 C4 1_555 1_555
C5 O9 1_555 1_555
H5 C5 1_555 1_555
C6 O11 1_555 1_555
H6 C6 1_555 1_555
O13 C8 1_555 1_555
C7 H7 1_555 1_555
H8 C7 1_555 1_555
H9 C7 1_555 1_555
C8 C7 1_555 1_555
H10 C8 1_555 1_555
H11 C8 1_555 1_555
C9 O13 1_555 1_555
H12 C9 1_555 1_555
H13 C9 1_555 1_555
C10 C9 1_555 1_555
H14 C10 1_555 1_555
H15 C10 1_555 1_555
H16 C10 1_555 1_555
Mg1B O1B 1_555 1_555
Mg1A O3A 1_555 1_555
Mg1B_2 O5B 1_555 1_555
Mg3B O1B 1_555 1_555
Mg3A O3 1_555 1_555
Mg3C O3B 1_555 1_555
Mg3A_2 O8A 1_555 1_555
Mg3B_2 O11B 1_555 1_555
Mg4_2 O5B_2 1_555 1_555
Mg4C O5A 1_555 1_555
O1B C1B 1_555 1_555
O2B Mg2 1_555 1_555
O3B Mg1B 1_555 1_555
O3A Mg3 1_555 1_555
O3C Mg3B 1_555 1_555
O4B Mg2 1_555 1_555
O5A Mg1A 1_555 1_555
O5B Mg4 1_555 1_555
O5B_2 Mg1B 1_555 1_555
O6A Mg3 1_555 1_555
O6C Mg3B 1_555 1_555
O7A Mg3 1_555 1_555
O7B Mg1B 1_555 1_555
O7C Mg3B 1_555 1_555
O8A C4A 1_555 1_555
O8B Mg3B 1_555 1_555
O9B Mg2 1_555 1_555
O10B Mg4_2 1_555 1_555
O10B_2 Mg4 1_555 1_555
O11B Mg1B_2 1_555 1_555
O11B_2 Mg1B 1_555 1_555
O12B Mg4 1_555 1_555
C1B O2B 1_555 1_555
H1B C1B 1_555 1_555
C2B O3B 1_555 1_555
H2B C2B 1_555 1_555
C3A O5A 1_555 1_555
H3A C3A 1_555 1_555
C4A O7A 1_555 1_555
H4A C4A 1_555 1_555
C5B O9B 1_555 1_555
H5B C5B 1_555 1_555
C6B O11B 1_555 1_555
H6B C6B 1_555 1_555
Mg2 O9 1_555 1_555
Mg3 O11 1_555 1_555
O4 C2 1_555 1_555
O6 Mg3A 1_555 1_555
O7 Mg3A 1_555 1_555
O8 C4 1_555 1_555
O10 C5 1_555 1_555
O12 C6 1_555 1_555
Mg1B O9B 1_555 1_555
Mg1A O7A 1_555 1_555
Mg3B O11B_2 1_555 1_555
Mg3C O7B 1_555 1_555
O4B C2B 1_555 1_555
O6A C3A 1_555 1_555
O10B C5B 1_555 1_555
O12B C6B 1_555 1_555

#END
