
#######################################################################
#
#                 Cambridge Crystallographic Data Centre
#                                CCDC 
#
#######################################################################
#
# If this CIF has been generated from an entry in the Cambridge 
# Structural Database, then it will include bibliographic, chemical, 
# crystal, experimental, refinement or atomic coordinate data resulting 
# from the CCDC's data processing and validation procedures.
#
#######################################################################

data_XEHTUA
_symmetry_cell_setting           monoclinic
_symmetry_space_group_name_H-M   'P 21/c'
_symmetry_Int_Tables_number      14
_space_group_name_Hall           '-P 2ybc'
loop_
_symmetry_equiv_pos_site_id
_symmetry_equiv_pos_as_xyz
1 x,y,z
2 -x,1/2+y,1/2-z
3 -x,-y,-z
4 x,1/2-y,1/2+z
_cell_length_a                   9.2565(13)
_cell_length_b                   10.2110(14)
_cell_length_c                   10.1356(14)
_cell_angle_alpha                90
_cell_angle_beta                 104.530(2)
_cell_angle_gamma                90
_cell_volume                     927.358
loop_
_atom_site_label
_atom_site_type_symbol
_atom_site_fract_x
_atom_site_fract_y
_atom_site_fract_z
Zn1 Zn 0.11464(3) 0.16457(2) 0.61994(2)
N1 N 0.2423(2) 0.67741(19) 0.5598(2)
H1 H 0.3270 0.7192 0.5974
H2 H 0.2356 0.6646 0.4716
H3 H 0.1653 0.7253 0.5693
O1 O 0.31431(18) 0.24426(15) 0.70170(16)
O2 O 0.3371(2) 0.20080(18) 0.9442(2)
O3 O 0.51658(19) 0.36115(17) 0.87660(18)
O4 O 0.00365(18) 0.31465(15) 0.67781(15)
O5 O 0.01091(18) 0.31707(16) 0.92846(16)
O6 O -0.06005(18) 0.51944(15) 0.78215(16)
O7 O 0.2589(2) 0.47221(17) 1.00030(16)
P1 P 0.36026(6) 0.30884(5) 0.84112(6)
P2 P 0.03242(6) 0.39553(5) 0.80699(5)
C1 C 0.2322(2) 0.4437(2) 0.8558(2)
C2 C 0.2628(3) 0.5674(2) 0.7801(2)
H4 H 0.3647 0.5953 0.8192
H5 H 0.1974 0.6368 0.7953
C3 C 0.2409(3) 0.5496(2) 0.6280(2)
H6 H 0.1465 0.5060 0.5903
H7 H 0.3199 0.4947 0.6113
H8 H 0.323(3) 0.509(3) 1.025(3)
H9 H 0.361(4) 0.221(4) 1.012(4)
Zn1C Zn 0.11464(3) 0.33543(2) 1.11994(2)
Zn1A Zn -0.11464(3) 0.66457(2) 0.88006(2)
O5C O 0.01091(18) 0.18293(16) 0.42846(16)
O6A O 0.06005(18) 0.01944(15) 0.71785(16)
O7C O 0.2589(2) 0.02779(17) 0.50030(16)
H8C H 0.323(3) -0.009(3) 0.525(3)
O8 O 0.6346(4) 0.0898(3) 0.1518(3)
loop_
_geom_bond_atom_site_label_1
_geom_bond_atom_site_label_2
_geom_bond_site_symmetry_1
_geom_bond_site_symmetry_2
Zn1 O1 1_555 1_555
N1 H1 1_555 1_555
H2 N1 1_555 1_555
H3 N1 1_555 1_555
O1 P1 1_555 1_555
O2 P1 1_555 1_555
O3 P1 1_555 1_555
O4 Zn1 1_555 1_555
O5 P2 1_555 1_555
O6 P2 1_555 1_555
O7 C1 1_555 1_555
P1 C1 1_555 1_555
P2 O4 1_555 1_555
C1 P2 1_555 1_555
C2 C1 1_555 1_555
H4 C2 1_555 1_555
H5 C2 1_555 1_555
C3 N1 1_555 1_555
H6 C3 1_555 1_555
H7 C3 1_555 1_555
H8 O7 1_555 1_555
H9 O2 1_555 1_555
Zn1C O5 1_555 1_555
Zn1A O6 1_555 1_555
O5C Zn1 1_555 1_555
O6A Zn1 1_555 1_555
O7C Zn1 1_555 1_555
H8C O7C 1_555 1_555
O7 Zn1C 1_555 1_555
C2 C3 1_555 1_555

#END
