
#######################################################################
#
#                 Cambridge Crystallographic Data Centre
#                                CCDC 
#
#######################################################################
#
# If this CIF has been generated from an entry in the Cambridge 
# Structural Database, then it will include bibliographic, chemical, 
# crystal, experimental, refinement or atomic coordinate data resulting 
# from the CCDC's data processing and validation procedures.
#
#######################################################################

data_XEHTIO
_symmetry_cell_setting           monoclinic
_symmetry_space_group_name_H-M   'P 21/n'
_symmetry_Int_Tables_number      14
_space_group_name_Hall           '-P 2yn'
loop_
_symmetry_equiv_pos_site_id
_symmetry_equiv_pos_as_xyz
1 x,y,z
2 1/2-x,1/2+y,1/2-z
3 -x,-y,-z
4 1/2+x,1/2-y,1/2+z
_cell_length_a                   10.232(4)
_cell_length_b                   7.961(3)
_cell_length_c                   11.016(4)
_cell_angle_alpha                90
_cell_angle_beta                 101.448(5)
_cell_angle_gamma                90
_cell_volume                     879.478
loop_
_atom_site_label
_atom_site_type_symbol
_atom_site_fract_x
_atom_site_fract_y
_atom_site_fract_z
Cu1 Cu 0.61389(4) 0.08150(5) 0.20544(3)
Cu2 Cu 1.0000 0.0000 0.0000
N1 N 0.8231(3) 0.5830(5) -0.0940(3)
O1 O 0.6495(2) -0.1003(3) 0.0417(2)
O2 O 0.8174(2) -0.0399(3) -0.0948(2)
O3 O 0.5734(2) -0.0162(3) -0.1837(2)
O4 O 0.8005(2) 0.1501(3) 0.2155(2)
O5 O 0.9536(2) 0.2102(3) 0.0636(2)
O6 O 0.8361(2) 0.4475(3) 0.1415(2)
O7 O 0.5734(3) 0.2485(3) 0.0494(2)
O8 O 0.5939(3) 0.3244(4) 0.3229(3)
P1 P 0.68107(8) 0.00237(11) -0.06591(8)
P2 P 0.82943(8) 0.26098(11) 0.11086(7)
C1 C 0.6841(3) 0.2246(4) -0.0156(3)
C2 C 0.6696(4) 0.3383(5) -0.1299(3)
H1 H 0.7360 0.3031 -0.1765
H2 H 0.5830 0.3157 -0.1815
C3 C 0.6819(3) 0.5254(4) -0.1134(3)
H3 H 0.6309 0.5804 -0.1862
H4 H 0.6444 0.5584 -0.0428
H5 H 0.493(5) 0.224(6) 0.003(4)
H6 H 0.588(4) 0.408(6) 0.277(4)
H7 H 0.667(5) 0.321(7) 0.364(4)
H8 H 0.829(5) 0.692(7) -0.097(4)
H9 H 0.871(4) 0.545(6) -0.153(4)
H10 H 0.863(5) 0.536(6) -0.021(5)
Cu1B Cu 1.38611(4) -0.08150(5) -0.20544(3)
Cu1B_2 Cu 0.38611(4) -0.08150(5) -0.20544(3)
Cu1A Cu 0.88611(4) 0.58150(5) 0.29456(3)
Cu1_2 Cu 1.61389(4) 0.08150(5) 0.20544(3)
Cu1C Cu 1.11389(4) -0.58150(5) -0.29456(3)
N1B N 1.1769(3) -0.5830(5) 0.0940(3)
O1B O 1.3505(2) 0.1003(3) -0.0417(2)
O2B O 1.1826(2) 0.0399(3) 0.0948(2)
O3B O 1.4266(2) 0.0162(3) 0.1837(2)
O3B_2 O 0.4266(2) 0.0162(3) 0.1837(2)
O3_2 O 1.5734(2) -0.0162(3) -0.1837(2)
O4B O 1.1995(2) -0.1501(3) -0.2155(2)
O5B O 1.0464(2) -0.2102(3) -0.0636(2)
O6B O 1.1639(2) -0.4475(3) -0.1415(2)
O6A O 0.6639(2) -0.0525(3) 0.3585(2)
O6C O 1.3361(2) 0.0525(3) -0.3585(2)
O7B O 1.4266(3) -0.2485(3) -0.0494(2)
O8B O 1.4061(3) -0.3244(4) -0.3229(3)
P1B P 1.31893(8) -0.00237(11) 0.06591(8)
P2B P 1.17057(8) -0.26098(11) -0.11086(7)
C1B C 1.3159(3) -0.2246(4) 0.0156(3)
C2B C 1.3304(4) -0.3383(5) 0.1299(3)
H1B H 1.2640 -0.3031 0.1765
H2B H 1.4170 -0.3157 0.1815
C3B C 1.3181(3) -0.5254(4) 0.1134(3)
H3B H 1.3691 -0.5804 0.1862
H4B H 1.3556 -0.5584 0.0428
H5B H 1.507(5) -0.224(6) -0.003(4)
H6B H 1.412(4) -0.408(6) -0.277(4)
H7B H 1.333(5) -0.321(7) -0.364(4)
H8B H 1.171(5) -0.692(7) 0.097(4)
H9B H 1.129(4) -0.545(6) 0.153(4)
H10B H 1.137(5) -0.536(6) 0.021(5)
loop_
_geom_bond_atom_site_label_1
_geom_bond_atom_site_label_2
_geom_bond_site_symmetry_1
_geom_bond_site_symmetry_2
Cu1 O1 1_555 1_555
Cu2 O2 1_555 1_555
N1 C3 1_555 1_555
O1 P1 1_555 1_555
O2 P1 1_555 1_555
O3 P1 1_555 1_555
O4 Cu1 1_555 1_555
O5 Cu2 1_555 1_555
O6 P2 1_555 1_555
O7 Cu1 1_555 1_555
O8 Cu1 1_555 1_555
P1 C1 1_555 1_555
P2 O4 1_555 1_555
C1 O7 1_555 1_555
C2 C1 1_555 1_555
H1 C2 1_555 1_555
H2 C2 1_555 1_555
C3 C2 1_555 1_555
H3 C3 1_555 1_555
H4 C3 1_555 1_555
H5 O7 1_555 1_555
H6 O8 1_555 1_555
H7 O8 1_555 1_555
H8 N1 1_555 1_555
H9 N1 1_555 1_555
H10 N1 1_555 1_555
Cu1B O1B 1_555 1_555
Cu1B_2 O3 1_555 1_555
Cu1A O6 1_555 1_555
Cu1_2 O3B 1_555 1_555
Cu1C O6B 1_555 1_555
N1B C3B 1_555 1_555
O1B P1B 1_555 1_555
O2B Cu2 1_555 1_555
O3B P1B 1_555 1_555
O3B_2 Cu1 1_555 1_555
O3_2 Cu1B 1_555 1_555
O4B Cu1B 1_555 1_555
O5B Cu2 1_555 1_555
O6B P2B 1_555 1_555
O6A Cu1 1_555 1_555
O6C Cu1B 1_555 1_555
O7B Cu1B 1_555 1_555
O8B Cu1B 1_555 1_555
P1B O2B 1_555 1_555
P2B O4B 1_555 1_555
C1B O7B 1_555 1_555
C2B C1B 1_555 1_555
H1B C2B 1_555 1_555
H2B C2B 1_555 1_555
C3B C2B 1_555 1_555
H3B C3B 1_555 1_555
H4B C3B 1_555 1_555
H5B O7B 1_555 1_555
H6B O8B 1_555 1_555
H7B O8B 1_555 1_555
H8B N1B 1_555 1_555
H9B N1B 1_555 1_555
H10B N1B 1_555 1_555
O5 P2 1_555 1_555
P2 C1 1_555 1_555
O5B P2B 1_555 1_555
P1B C1B 1_555 1_555
P2B C1B 1_555 1_555

#END
