
#######################################################################
#
#                 Cambridge Crystallographic Data Centre
#                                CCDC 
#
#######################################################################
#
# If this CIF has been generated from an entry in the Cambridge 
# Structural Database, then it will include bibliographic, chemical, 
# crystal, experimental, refinement or atomic coordinate data resulting 
# from the CCDC's data processing and validation procedures.
#
#######################################################################

data_XEHTAG
_symmetry_cell_setting           triclinic
_symmetry_space_group_name_H-M   'P -1'
_symmetry_Int_Tables_number      2
_space_group_name_Hall           '-P 1'
loop_
_symmetry_equiv_pos_site_id
_symmetry_equiv_pos_as_xyz
1 x,y,z
2 -x,-y,-z
_cell_length_a                   5.570(11)
_cell_length_b                   8.883(18)
_cell_length_c                   9.84(2)
_cell_angle_alpha                92.03(3)
_cell_angle_beta                 104.30(3)
_cell_angle_gamma                97.45(3)
_cell_volume                     466.645
loop_
_atom_site_label
_atom_site_type_symbol
_atom_site_fract_x
_atom_site_fract_y
_atom_site_fract_z
Mn1 Mn 0.38120(16) 0.90317(10) 0.61773(10)
N1 N 0.8131(9) 0.3027(5) 0.7695(5)
H1 H 0.8922 0.2691 0.7088
H2 H 0.6497 0.2927 0.7290
H3 H 0.8394 0.2488 0.8450
O1 O 0.7462(7) 0.9677(4) 0.7709(4)
O2 O 1.1954(7) 0.9064(4) 0.7893(4)
O3 O 0.9432(8) 0.7849(5) 0.9411(4)
O4 O 0.6154(7) 0.8802(4) 0.4628(4)
O5 O 0.6506(7) 0.6184(4) 0.3778(4)
O6 O 1.0467(7) 0.8027(4) 0.4744(4)
O7 O 0.5296(7) 0.6690(4) 0.6708(4)
P1 P 0.9263(3) 0.85390(17) 0.79304(16)
P2 P 0.7787(3) 0.75249(17) 0.48073(16)
C1 C 0.7881(10) 0.6949(6) 0.6608(6)
C2 C 0.9185(11) 0.5538(6) 0.6814(6)
H4 H 1.0931 0.5843 0.6836
H5 H 0.8468 0.4840 0.5990
C3 C 0.9093(12) 0.4649(7) 0.8122(7)
H6 H 1.0758 0.4739 0.8748
H7 H 0.8014 0.5074 0.8625
H8 H 0.804(8) 0.793(9) 0.958(9)
H9 H 0.476(11) 0.576(3) 0.650(7)
Mn1_2 Mn 1.38120(16) 0.90317(10) 0.61773(10)
Mn1A Mn 0.61880(16) 1.09683(10) 0.38227(10)
O2_2 O 0.1954(7) 0.9064(4) 0.7893(4)
O4A O 0.3846(7) 1.1198(4) 0.5372(4)
O6_2 O 0.0467(7) 0.8027(4) 0.4744(4)
O8 O 0.4445(10) 0.1847(6) 0.9580(6)
H10 H 0.562(9) 0.162(8) 1.022(5)
H11 H 0.380(14) 0.106(6) 0.905(7)
loop_
_geom_bond_atom_site_label_1
_geom_bond_atom_site_label_2
_geom_bond_site_symmetry_1
_geom_bond_site_symmetry_2
Mn1 O1 1_555 1_555
N1 H1 1_555 1_555
H2 N1 1_555 1_555
H3 N1 1_555 1_555
O1 P1 1_555 1_555
O2 P1 1_555 1_555
O3 P1 1_555 1_555
O4 Mn1 1_555 1_555
O5 P2 1_555 1_555
O6 P2 1_555 1_555
O7 Mn1 1_555 1_555
O8 H10 1_555 1_555
P1 C1 1_555 1_555
P2 O4 1_555 1_555
C1 O7 1_555 1_555
C2 C1 1_555 1_555
H4 C2 1_555 1_555
H5 C2 1_555 1_555
C3 N1 1_555 1_555
H6 C3 1_555 1_555
H7 C3 1_555 1_555
H8 O3 1_555 1_555
H9 O7 1_555 1_555
H11 O8 1_555 1_555
Mn1_2 O2 1_555 1_555
Mn1A O4 1_555 1_555
O2_2 Mn1 1_555 1_555
O4A Mn1 1_555 1_555
O6_2 Mn1 1_555 1_555
O6 Mn1_2 1_555 1_555
P2 C1 1_555 1_555
C2 C3 1_555 1_555
Mn1A O4A 1_555 1_555

#END
