
#######################################################################
#
#                 Cambridge Crystallographic Data Centre
#                                CCDC 
#
#######################################################################
#
# If this CIF has been generated from an entry in the Cambridge 
# Structural Database, then it will include bibliographic, chemical, 
# crystal, experimental, refinement or atomic coordinate data resulting 
# from the CCDC's data processing and validation procedures.
#
#######################################################################

data_XEHTEK
_symmetry_cell_setting           triclinic
_symmetry_space_group_name_H-M   'P -1'
_symmetry_Int_Tables_number      2
_space_group_name_Hall           '-P 1'
loop_
_symmetry_equiv_pos_site_id
_symmetry_equiv_pos_as_xyz
1 x,y,z
2 -x,-y,-z
_cell_length_a                   5.4483(19)
_cell_length_b                   8.828(3)
_cell_length_c                   9.809(4)
_cell_angle_alpha                91.748(5)
_cell_angle_beta                 103.976(5)
_cell_angle_gamma                97.928(5)
_cell_volume                     452.446
loop_
_atom_site_label
_atom_site_type_symbol
_atom_site_fract_x
_atom_site_fract_y
_atom_site_fract_z
Co1 Co -0.11020(10) 0.90208(6) 0.11406(6)
N1 N 0.3110(8) 0.3022(4) 0.2724(4)
H1 H 0.2716 0.2693 0.1853
H2 H 0.2955 0.2395 0.3362
O1 O 0.2373(6) 0.9701(3) 0.2647(3)
O2 O 0.4497(6) 0.7933(4) 0.4381(3)
H3 H 0.3211 0.8036 0.4648
O3 O 0.7002(6) 0.9139(4) 0.2807(3)
O4 O 0.1176(6) 0.8845(3) -0.0376(3)
O5 O 0.5613(6) 0.8066(3) -0.0242(3)
O6 O 0.1563(6) 0.6220(3) -0.1235(3)
H4 H 0.1541 0.6463 -0.2037
O7 O 0.0205(6) 0.6714(3) 0.1678(3)
P1 P 0.4271(2) 0.85869(12) 0.28803(11)
P2 P 0.2851(2) 0.75622(12) -0.02030(11)
C1 C 0.2866(8) 0.6970(5) 0.1591(4)
C2 C 0.4164(9) 0.5541(5) 0.1811(5)
H5 H 0.5950 0.5837 0.1820
H6 H 0.3410 0.4830 0.0996
C3 C 0.4060(10) 0.4674(5) 0.3126(5)
H7 H 0.5755 0.4790 0.3759
H8 H 0.2933 0.5096 0.3614
H9 H -0.036(13) 0.577(3) 0.147(7)
Co1_2 Co 0.88980(10) 0.90208(6) 0.11406(6)
Co1A Co 0.11020(10) 1.09792(6) -0.11406(6)
O3_2 O -0.2998(6) 0.9139(4) 0.2807(3)
O4A O -0.1176(6) 1.1155(3) 0.0376(3)
O5_2 O -0.4387(6) 0.8066(3) -0.0242(3)
O8 O 0.9454(8) 0.1833(4) 0.4602(4)
H10 H 0.882(10) 0.110(5) 0.401(4)
H11 H 1.045(11) 0.151(6) 0.529(4)
loop_
_geom_bond_atom_site_label_1
_geom_bond_atom_site_label_2
_geom_bond_site_symmetry_1
_geom_bond_site_symmetry_2
Co1 O1 1_555 1_555
N1 H1 1_555 1_555
H2 N1 1_555 1_555
O1 P1 1_555 1_555
O2 H3 1_555 1_555
O3 P1 1_555 1_555
O4 Co1 1_555 1_555
O5 P2 1_555 1_555
O6 H4 1_555 1_555
O7 Co1 1_555 1_555
O8 H10 1_555 1_555
P1 O2 1_555 1_555
P2 O4 1_555 1_555
C1 O7 1_555 1_555
C2 C1 1_555 1_555
H5 C2 1_555 1_555
H6 C2 1_555 1_555
C3 N1 1_555 1_555
H7 C3 1_555 1_555
H8 C3 1_555 1_555
H9 O7 1_555 1_555
H11 O8 1_555 1_555
Co1_2 O3 1_555 1_555
Co1A O4 1_555 1_555
O3_2 Co1 1_555 1_555
O4A Co1 1_555 1_555
O5_2 Co1 1_555 1_555
O5 Co1_2 1_555 1_555
O6 P2 1_555 1_555
P1 C1 1_555 1_555
P2 C1 1_555 1_555
C2 C3 1_555 1_555
Co1A O4A 1_555 1_555

#END
