
#######################################################################
#
#                 Cambridge Crystallographic Data Centre
#                                CCDC 
#
#######################################################################
#
# If this CIF has been generated from an entry in the Cambridge 
# Structural Database, then it will include bibliographic, chemical, 
# crystal, experimental, refinement or atomic coordinate data resulting 
# from the CCDC's data processing and validation procedures.
#
#######################################################################

data_XEHWOY
_symmetry_cell_setting           monoclinic
_symmetry_space_group_name_H-M   'P 21/c'
_symmetry_Int_Tables_number      14
_space_group_name_Hall           '-P 2ybc'
loop_
_symmetry_equiv_pos_site_id
_symmetry_equiv_pos_as_xyz
1 x,y,z
2 -x,1/2+y,1/2-z
3 -x,-y,-z
4 x,1/2-y,1/2+z
_cell_length_a                   8.2743(7)
_cell_length_b                   30.419(3)
_cell_length_c                   8.7122(8)
_cell_angle_alpha                90
_cell_angle_beta                 96.0760(10)
_cell_angle_gamma                90
_cell_volume                     2180.51
loop_
_atom_site_label
_atom_site_type_symbol
_atom_site_fract_x
_atom_site_fract_y
_atom_site_fract_z
O1 O 0.174(4) 0.0085(6) 0.253(3)
Hg1 Hg 0.24946(15) -0.07879(3) 0.18107(11)
Hg2 Hg 0.22381(18) 0.24926(3) 0.31554(13)
I1 I -0.0239(3) -0.11478(8) 0.2479(2)
I2 I 0.5455(3) -0.06693(8) 0.3197(2)
I3 I -0.0075(3) 0.24929(6) 0.00667(19)
I4 I 0.4810(3) 0.28701(7) 0.2180(3)
N1 N 0.238(3) -0.0215(6) -0.025(2)
N2 N 0.230(3) 0.0239(7) 0.012(3)
H1 H 0.2386 0.0441 -0.0592
N3 N 0.258(2) -0.1075(5) -0.0837(17)
C1 C 0.271(3) -0.1517(5) -0.1116(17)
H2 H 0.2705 -0.1721 -0.0291
C2 C 0.283(3) -0.1664(5) -0.2587(19)
H3 H 0.2912 -0.1970 -0.2781
C3 C 0.283(3) -0.1369(6) -0.3779(19)
H4 H 0.2914 -0.1471 -0.4798
C4 C 0.271(3) -0.0928(6) -0.3500(18)
H5 H 0.2708 -0.0723 -0.4325
C5 C 0.258(3) -0.0780(5) -0.2029(19)
C6 C 0.250(3) -0.0313(10) -0.160(3)
H6 H 0.2544 -0.0090 -0.2359
C7 C 0.209(4) 0.0353(8) 0.154(3)
C8 C 0.232(3) 0.0833(5) 0.1946(18)
C9 C 0.307(3) 0.1125(5) 0.1043(18)
H7 H 0.3536 0.1023 0.0159
C10 C 0.313(3) 0.1564(5) 0.1419(18)
H8 H 0.3646 0.1766 0.0796
N4 N 0.245(2) 0.1711(5) 0.2698(17)
C11 C 0.171(3) 0.1419(5) 0.3601(17)
H9 H 0.1236 0.1520 0.4485
C12 C 0.164(3) 0.0979(5) 0.3225(19)
H10 H 0.1127 0.0778 0.3848
Hg2C Hg 0.22381(18) 0.25074(3) -0.18446(13)
I3C I -0.0075(3) 0.25071(6) 0.50667(19)
loop_
_geom_bond_atom_site_label_1
_geom_bond_atom_site_label_2
_geom_bond_site_symmetry_1
_geom_bond_site_symmetry_2
O1 C7 1_555 1_555
Hg1 I1 1_555 1_555
Hg2 I3 1_555 1_555
I2 Hg1 1_555 1_555
I3 Hg2C 1_555 1_555
I4 Hg2 1_555 1_555
N1 Hg1 1_555 1_555
N2 N1 1_555 1_555
H1 N2 1_555 1_555
N3 Hg1 1_555 1_555
C1 N3 1_555 1_555
H2 C1 1_555 1_555
C2 C1 1_555 1_555
H3 C2 1_555 1_555
C3 C2 1_555 1_555
H4 C3 1_555 1_555
C4 C3 1_555 1_555
H5 C4 1_555 1_555
C5 N3 1_555 1_555
C6 N1 1_555 1_555
H6 C6 1_555 1_555
C7 N2 1_555 1_555
C8 C7 1_555 1_555
C9 C8 1_555 1_555
H7 C9 1_555 1_555
C10 C9 1_555 1_555
H8 C10 1_555 1_555
N4 Hg2 1_555 1_555
C11 N4 1_555 1_555
H9 C11 1_555 1_555
C12 C8 1_555 1_555
H10 C12 1_555 1_555
I3C Hg2 1_555 1_555
C4 C5 1_555 1_555
C5 C6 1_555 1_555
C10 N4 1_555 1_555
C11 C12 1_555 1_555

#END
