
#######################################################################
#
#                 Cambridge Crystallographic Data Centre
#                                CCDC 
#
#######################################################################
#
# If this CIF has been generated from an entry in the Cambridge 
# Structural Database, then it will include bibliographic, chemical, 
# crystal, experimental, refinement or atomic coordinate data resulting 
# from the CCDC's data processing and validation procedures.
#
#######################################################################

data_XEHXIT
_symmetry_cell_setting           monoclinic
_symmetry_space_group_name_H-M   'P 21/c'
_symmetry_Int_Tables_number      14
_space_group_name_Hall           '-P 2ybc'
loop_
_symmetry_equiv_pos_site_id
_symmetry_equiv_pos_as_xyz
1 x,y,z
2 -x,1/2+y,1/2-z
3 -x,-y,-z
4 x,1/2-y,1/2+z
_cell_length_a                   9.8877(17)
_cell_length_b                   14.390(2)
_cell_length_c                   21.021(4)
_cell_angle_alpha                90
_cell_angle_beta                 101.117(3)
_cell_angle_gamma                90
_cell_volume                     2934.83
loop_
_atom_site_label
_atom_site_type_symbol
_atom_site_fract_x
_atom_site_fract_y
_atom_site_fract_z
Br1 Br 0.70144(8) -0.03095(5) 1.01490(4)
Br2 Br 1.47511(7) -0.07511(6) 0.84105(3)
Br3 Br 1.55148(8) 0.22582(6) 0.96021(3)
C1 C 0.9153(6) 0.0127(4) 0.8676(3)
C2 C 0.9718(6) 0.1003(4) 0.8814(3)
H1 H 1.0241 0.1269 0.8539
C3 C 0.9519(5) 0.1480(4) 0.9352(3)
C4 C 0.8719(6) 0.1078(4) 0.9766(3)
H2 H 0.8577 0.1392 1.0134
C5 C 0.8152(6) 0.0214(4) 0.9618(3)
C6 C 0.8361(6) -0.0276(4) 0.9088(3)
H3 H 0.7984 -0.0865 0.9003
C7 C 0.9329(6) -0.0386(4) 0.8073(3)
C8 C 1.0051(6) 0.2449(4) 0.9463(3)
C9 C 1.5295(6) -0.0638(4) 0.6514(3)
C10 C 1.3977(5) -0.0507(4) 0.6164(3)
H4 H 1.3821 -0.0457 0.5715
C11 C 1.2874(5) -0.0452(4) 0.6496(3)
C12 C 1.3114(6) -0.0526(4) 0.7159(3)
H5 H 1.2388 -0.0484 0.7380
C13 C 1.4439(6) -0.0663(4) 0.7492(3)
C14 C 1.5540(6) -0.0717(4) 0.7185(3)
H6 H 1.6429 -0.0804 0.7420
C15 C 1.6475(6) -0.0696(4) 0.6154(3)
C16 C 1.1448(6) -0.0338(4) 0.6129(3)
C17 C 1.6142(6) 0.2003(4) 0.7727(3)
C18 C 1.4826(6) 0.1846(4) 0.7371(3)
H7 H 1.4694 0.1728 0.6929
C19 C 1.3708(6) 0.1867(4) 0.7682(3)
C20 C 1.3925(6) 0.1967(4) 0.8353(3)
H8 H 1.3181 0.1950 0.8565
C21 C 1.5214(7) 0.2087(4) 0.8696(3)
C22 C 1.6348(6) 0.2135(4) 0.8392(3)
H9 H 1.7225 0.2253 0.8630
C23 C 1.7391(6) 0.1995(5) 0.7404(3)
C24 C 1.2270(6) 0.1770(4) 0.7314(3)
Ca1 Ca 0.95858(13) 0.11386(9) 0.67975(6)
Ca2 Ca 1.04174(11) 0.33309(8) 0.79774(5)
Ca3 Ca 1.14232(11) 0.42354(8) 0.96279(5)
O1 O 0.8999(5) -0.1230(3) 0.8023(2)
O2 O 0.9784(5) 0.0029(3) 0.7638(2)
O3 O 1.0691(5) 0.2789(3) 0.90605(19)
O4 O 0.9864(4) 0.2905(3) 0.9946(2)
O5 O 1.7653(4) -0.0902(3) 0.6465(2)
O6 O 1.6252(4) -0.0532(3) 0.5564(2)
O7 O 1.1203(4) -0.0120(3) 0.55430(19)
O8 O 1.0462(4) -0.0432(3) 0.64342(19)
O9 O 1.8415(4) 0.2466(3) 0.7654(2)
O10 O 1.7331(5) 0.1503(3) 0.6920(2)
O11 O 1.1292(4) 0.1959(3) 0.75977(19)
O12 O 1.2043(4) 0.1481(3) 0.6739(2)
O13 O 0.8395(4) 0.0907(3) 0.56502(19)
H10 H 0.8058 0.1372 0.5425
H11 H 0.8325 0.0366 0.5485
O14 O 0.9601(6) 0.2563(3) 0.6188(2)
H12 H 0.9766 0.3078 0.6385
H13 H 0.9443 0.2548 0.5776
O15 O 1.2801(5) 0.3308(3) 1.0467(2)
H14 H 1.2071 0.3083 1.0563
H15 H 1.3028 0.3526 1.0849
Ca1_2 Ca 1.95858(13) 0.11386(9) 0.67975(6)
Ca2A Ca 0.95826(11) -0.16691(8) 0.70226(5)
Ca2A_2 Ca 1.95826(11) -0.16691(8) 0.70226(5)
Ca2_2 Ca 2.04174(11) 0.33309(8) 0.79774(5)
Ca3A Ca 1.85768(11) -0.07646(8) 0.53721(5)
Ca3A_2 Ca 0.85768(11) -0.07646(8) 0.53721(5)
Ca3C Ca 1.14232(11) 0.07646(8) 0.46279(5)
O1A O 1.1001(5) 0.3770(3) 0.6977(2)
O2A O 1.0216(5) 0.5029(3) 0.7362(2)
O5A O 1.2347(4) 0.4098(3) 0.8535(2)
O6A O 1.3748(4) 0.4468(3) 0.9436(2)
O7A O 0.8797(4) 0.4880(3) 0.94570(19)
O7C O 1.1203(4) 0.5120(3) 1.05430(19)
O8A O 0.9538(4) 0.4568(3) 0.85658(19)
O9_2 O 0.8415(4) 0.2466(3) 0.7654(2)
O10_2 O 0.7331(5) 0.1503(3) 0.6920(2)
O13A O 1.1605(4) 0.5907(3) 0.93498(19)
H10A H 1.1942 0.6372 0.9575
H11A H 1.1675 0.5366 0.9515
O16 O 0.5686(5) 0.3592(3) 0.0733(2)
H16 H 0.5635 0.4164 0.0631
H17 H 0.5483 0.3180 0.0441
loop_
_geom_bond_atom_site_label_1
_geom_bond_atom_site_label_2
_geom_bond_site_symmetry_1
_geom_bond_site_symmetry_2
Br1 C5 1_555 1_555
Br2 C13 1_555 1_555
Br3 C21 1_555 1_555
C1 C2 1_555 1_555
C2 H1 1_555 1_555
C3 C2 1_555 1_555
C4 C3 1_555 1_555
H2 C4 1_555 1_555
C5 C4 1_555 1_555
C6 C1 1_555 1_555
H3 C6 1_555 1_555
C7 C1 1_555 1_555
C8 C3 1_555 1_555
C9 C10 1_555 1_555
C10 H4 1_555 1_555
C11 C10 1_555 1_555
C12 C11 1_555 1_555
H5 C12 1_555 1_555
C13 C12 1_555 1_555
C14 C9 1_555 1_555
H6 C14 1_555 1_555
C15 C9 1_555 1_555
C16 C11 1_555 1_555
C17 C18 1_555 1_555
C18 H7 1_555 1_555
C19 C18 1_555 1_555
C20 C19 1_555 1_555
H8 C20 1_555 1_555
C21 C20 1_555 1_555
C22 C17 1_555 1_555
H9 C22 1_555 1_555
C23 C17 1_555 1_555
C24 C19 1_555 1_555
Ca1 O2 1_555 1_555
Ca2 O3 1_555 1_555
Ca3 O3 1_555 1_555
O1 C7 1_555 1_555
O2 C7 1_555 1_555
O3 C8 1_555 1_555
O4 C8 1_555 1_555
O5 C15 1_555 1_555
O6 C15 1_555 1_555
O7 C16 1_555 1_555
O8 C16 1_555 1_555
O9 C23 1_555 1_555
O10 C23 1_555 1_555
O11 C24 1_555 1_555
O12 C24 1_555 1_555
O13 Ca1 1_555 1_555
H10 O13 1_555 1_555
H11 O13 1_555 1_555
O14 Ca1 1_555 1_555
H12 O14 1_555 1_555
H13 O14 1_555 1_555
O15 Ca3 1_555 1_555
H14 O15 1_555 1_555
H15 O15 1_555 1_555
O16 H16 1_555 1_555
H17 O16 1_555 1_555
Ca1_2 O10 1_555 1_555
Ca2A O1 1_555 1_555
Ca2A_2 O5 1_555 1_555
Ca2_2 O9 1_555 1_555
Ca3A O5 1_555 1_555
Ca3A_2 O7 1_555 1_555
Ca3C O7 1_555 1_555
O1A Ca2 1_555 1_555
O2A Ca2 1_555 1_555
O5A Ca2 1_555 1_555
O6A Ca3 1_555 1_555
O7A Ca3 1_555 1_555
O7C Ca3 1_555 1_555
O8A Ca2 1_555 1_555
O9_2 Ca2 1_555 1_555
O10_2 Ca1 1_555 1_555
O13A Ca3 1_555 1_555
H10A O13A 1_555 1_555
H11A O13A 1_555 1_555
C5 C6 1_555 1_555
C13 C14 1_555 1_555
C21 C22 1_555 1_555
Ca1 O8 1_555 1_555
Ca1 O11 1_555 1_555
Ca1 O12 1_555 1_555
Ca2 O11 1_555 1_555
Ca3 O4 1_555 1_555
Ca3 O5A 1_555 1_555
Ca3 O8A 1_555 1_555
O2 Ca2A 1_555 1_555
O6 Ca3A 1_555 1_555
O8 Ca2A 1_555 1_555
O8 Ca3A_2 1_555 1_555
O13 Ca3A_2 1_555 1_555

#END
