
#######################################################################
#
#                 Cambridge Crystallographic Data Centre
#                                CCDC 
#
#######################################################################
#
# If this CIF has been generated from an entry in the Cambridge 
# Structural Database, then it will include bibliographic, chemical, 
# crystal, experimental, refinement or atomic coordinate data resulting 
# from the CCDC's data processing and validation procedures.
#
#######################################################################

data_XEHXOY
_symmetry_cell_setting           triclinic
_symmetry_space_group_name_H-M   'P -1'
_symmetry_Int_Tables_number      2
_space_group_name_Hall           '-P 1'
loop_
_symmetry_equiv_pos_site_id
_symmetry_equiv_pos_as_xyz
1 x,y,z
2 -x,-y,-z
_cell_length_a                   8.2156(16)
_cell_length_b                   8.8229(18)
_cell_length_c                   15.840(3)
_cell_angle_alpha                102.88(3)
_cell_angle_beta                 97.93(3)
_cell_angle_gamma                94.94(3)
_cell_volume                     1100.43
loop_
_atom_site_label
_atom_site_type_symbol
_atom_site_fract_x
_atom_site_fract_y
_atom_site_fract_z
W1 W 0.06855(5) -0.16738(5) 0.83071(3)
Se1 Se 0.03444(14) -0.21993(13) 0.67444(7)
Se2 Se -0.12249(15) 0.01032(13) 0.88590(8)
Se3 Se 0.34666(15) -0.05100(14) 0.89200(8)
Cu1 Cu -0.16439(18) -0.05379(16) 0.72785(10)
Cu2 Cu 0.30753(18) -0.07874(16) 0.73558(10)
Cu3 Cu 0.15368(19) 0.11322(17) 0.94738(10)
I1 I -0.46181(9) -0.22866(8) 0.66888(5)
O1 O 0.0294(9) -0.3533(10) 0.8612(5)
N1 N -0.1847(12) 0.1303(11) 0.6717(7)
N2 N 0.3085(12) 0.1297(11) 0.6944(7)
N3 N 0.2426(13) 0.3242(11) 1.0137(6)
C1 C -0.1822(18) 0.1143(15) 0.5856(8)
H1 H -0.1645 0.0178 0.5524
C2 C -0.2052(17) 0.2365(17) 0.5435(9)
H2 H -0.2037 0.2217 0.4837
C3 C -0.2300(16) 0.3792(15) 0.5933(9)
H3 H -0.2456 0.4628 0.5674
C4 C -0.2317(18) 0.3971(15) 0.6821(10)
H4 H -0.2483 0.4927 0.7166
C5 C -0.2082(16) 0.2711(14) 0.7189(7)
H5 H -0.2088 0.2842 0.7787
C6 C 0.3628(16) 0.1465(14) 0.6214(9)
H6 H 0.4211 0.0693 0.5939
C7 C 0.3385(17) 0.2698(15) 0.5840(9)
H7 H 0.3789 0.2752 0.5325
C8 C 0.2537(17) 0.3853(15) 0.6234(10)
H8 H 0.2362 0.4710 0.5996
C9 C 0.1947(15) 0.3721(13) 0.6992(9)
H9 H 0.1370 0.4492 0.7274
C10 C 0.2230(16) 0.2404(14) 0.7336(9)
H10 H 0.1817 0.2302 0.7841
C11 C 0.2053(18) 0.4509(14) 0.9826(9)
H11 H 0.1231 0.4386 0.9342
C12 C 0.2895(17) 0.5997(16) 1.0230(9)
H12 H 0.2672 0.6842 0.9990
C13 C 0.4044(17) 0.6221(14) 1.0973(9)
H13 H 0.4610 0.7206 1.1245
C14 C 0.4328(16) 0.4940(15) 1.1301(10)
H14 H 0.5057 0.5064 1.1823
C15 C 0.3553(16) 0.3475(16) 1.0871(10)
H15 H 0.3814 0.2619 1.1092
Cu2_2 Cu -0.69247(18) -0.07874(16) 0.73558(10)
I1_2 I 0.53819(9) -0.22866(8) 0.66888(5)
loop_
_geom_bond_atom_site_label_1
_geom_bond_atom_site_label_2
_geom_bond_site_symmetry_1
_geom_bond_site_symmetry_2
W1 Se1 1_555 1_555
Se1 Cu1 1_555 1_555
Se2 W1 1_555 1_555
Se3 W1 1_555 1_555
Cu1 Se2 1_555 1_555
Cu2 Se1 1_555 1_555
Cu3 Se2 1_555 1_555
I1 Cu1 1_555 1_555
O1 W1 1_555 1_555
N1 Cu1 1_555 1_555
N2 Cu2 1_555 1_555
N3 Cu3 1_555 1_555
C1 N1 1_555 1_555
H1 C1 1_555 1_555
C2 C1 1_555 1_555
H2 C2 1_555 1_555
C3 C2 1_555 1_555
H3 C3 1_555 1_555
C4 C3 1_555 1_555
H4 C4 1_555 1_555
C5 N1 1_555 1_555
H5 C5 1_555 1_555
C6 N2 1_555 1_555
H6 C6 1_555 1_555
C7 C6 1_555 1_555
H7 C7 1_555 1_555
C8 C7 1_555 1_555
H8 C8 1_555 1_555
C9 C8 1_555 1_555
H9 C9 1_555 1_555
C10 N2 1_555 1_555
H10 C10 1_555 1_555
C11 N3 1_555 1_555
H11 C11 1_555 1_555
C12 C11 1_555 1_555
H12 C12 1_555 1_555
C13 C12 1_555 1_555
H13 C13 1_555 1_555
C14 C13 1_555 1_555
H14 C14 1_555 1_555
C15 N3 1_555 1_555
H15 C15 1_555 1_555
Cu2_2 I1 1_555 1_555
I1_2 Cu2 1_555 1_555
Se3 Cu2 1_555 1_555
Se3 Cu3 1_555 1_555
C4 C5 1_555 1_555
C9 C10 1_555 1_555
C14 C15 1_555 1_555

#END
