
#######################################################################
#
#                 Cambridge Crystallographic Data Centre
#                                CCDC 
#
#######################################################################
#
# If this CIF has been generated from an entry in the Cambridge 
# Structural Database, then it will include bibliographic, chemical, 
# crystal, experimental, refinement or atomic coordinate data resulting 
# from the CCDC's data processing and validation procedures.
#
#######################################################################

data_XEHXIS
_symmetry_cell_setting           tetragonal
_symmetry_space_group_name_H-M   'I -4 2 d'
_symmetry_Int_Tables_number      122
_space_group_name_Hall           'I -4 2bw'
loop_
_symmetry_equiv_pos_site_id
_symmetry_equiv_pos_as_xyz
1 x,y,z
2 -x,-y,z
3 y,-x,-z
4 -y,x,-z
5 1/2-x,y,3/4-z
6 1/2+x,-y,3/4-z
7 1/2-y,-x,3/4+z
8 1/2+y,x,3/4+z
9 1/2+x,1/2+y,1/2+z
10 1/2-x,1/2-y,1/2+z
11 1/2+y,1/2-x,1/2-z
12 1/2-y,1/2+x,1/2-z
13 -x,1/2+y,1/4-z
14 x,1/2-y,1/4-z
15 -y,1/2-x,1/4+z
16 y,1/2+x,1/4+z
_cell_length_a                   14.811(2)
_cell_length_b                   14.811(2)
_cell_length_c                   15.595(3)
_cell_angle_alpha                90
_cell_angle_beta                 90
_cell_angle_gamma                90
_cell_volume                     3421.01
loop_
_atom_site_label
_atom_site_type_symbol
_atom_site_fract_x
_atom_site_fract_y
_atom_site_fract_z
W1 W 0.0000 0.0000 0.0000
I1 I 0.0000 0.0000 0.33272(4)
I2 I 0.2500 0.00183(6) -0.1250
Cu1 Cu 0.0000 0.0000 0.17490(9)
Se1 Se 0.13148(4) -0.00378(5) 0.08973(4)
Cu2 Cu 0.14835(6) 0.10756(6) -0.02395(6)
C1 C 0.3089(6) 0.2120(6) 0.0085(5)
H1 H 0.3350 0.1539 0.0159
C2 C 0.1864(5) 0.3014(6) -0.0226(5)
H2 H 0.1241 0.3060 -0.0362
C3 C 0.3268(5) 0.3743(6) 0.0052(6)
H3 H 0.3628 0.4271 0.0111
C4 C 0.3629(5) 0.2887(6) 0.0179(6)
H4 H 0.4247 0.2823 0.0331
C5 C 0.2359(5) 0.3794(5) -0.0164(5)
H5 H 0.2084 0.4363 -0.0268
N1 N 0.2216(5) 0.2188(5) -0.0105(4)
I1B I 0.0000 0.0000 -0.33272(4)
I2A I -0.2500 -0.00183(6) -0.1250
I2B I 0.00183(6) -0.2500 0.1250
I2C I -0.00183(6) 0.2500 0.1250
Cu1B Cu 0.0000 0.0000 -0.17490(9)
Se1A Se -0.13148(4) 0.00378(5) 0.08973(4)
Se1B Se -0.00378(5) -0.13148(4) -0.08973(4)
Se1C Se 0.00378(5) 0.13148(4) -0.08973(4)
Cu2A Cu -0.14835(6) -0.10756(6) -0.02395(6)
Cu2B Cu 0.10756(6) -0.14835(6) 0.02395(6)
Cu2C Cu -0.10756(6) 0.14835(6) 0.02395(6)
Cu2D Cu 0.35165(6) 0.10756(6) -0.22605(6)
Cu2E Cu -0.35165(6) -0.10756(6) -0.22605(6)
C1A C -0.3089(6) -0.2120(6) 0.0085(5)
C1B C 0.2120(6) -0.3089(6) -0.0085(5)
C1C C -0.2120(6) 0.3089(6) -0.0085(5)
H1A H -0.3350 -0.1539 0.0159
H1B H 0.1539 -0.3350 -0.0159
H1C H -0.1539 0.3350 -0.0159
C2A C -0.1864(5) -0.3014(6) -0.0226(5)
C2B C 0.3014(6) -0.1864(5) 0.0226(5)
C2C C -0.3014(6) 0.1864(5) 0.0226(5)
H2A H -0.1241 -0.3060 -0.0362
H2B H 0.3060 -0.1241 0.0362
H2C H -0.3060 0.1241 0.0362
C3A C -0.3268(5) -0.3743(6) 0.0052(6)
C3B C 0.3743(6) -0.3268(5) -0.0052(6)
C3C C -0.3743(6) 0.3268(5) -0.0052(6)
H3A H -0.3628 -0.4271 0.0111
H3B H 0.4271 -0.3628 -0.0111
H3C H -0.4271 0.3628 -0.0111
C4A C -0.3629(5) -0.2887(6) 0.0179(6)
C4B C 0.2887(6) -0.3629(5) -0.0179(6)
C4C C -0.2887(6) 0.3629(5) -0.0179(6)
H4A H -0.4247 -0.2823 0.0331
H4B H 0.2823 -0.4247 -0.0331
H4C H -0.2823 0.4247 -0.0331
C5A C -0.2359(5) -0.3794(5) -0.0164(5)
C5B C 0.3794(5) -0.2359(5) 0.0164(5)
C5C C -0.3794(5) 0.2359(5) 0.0164(5)
H5A H -0.2084 -0.4363 -0.0268
H5B H 0.4363 -0.2084 0.0268
H5C H -0.4363 0.2084 0.0268
N1A N -0.2216(5) -0.2188(5) -0.0105(4)
N1B N 0.2188(5) -0.2216(5) 0.0105(4)
N1C N -0.2188(5) 0.2216(5) 0.0105(4)
loop_
_geom_bond_atom_site_label_1
_geom_bond_atom_site_label_2
_geom_bond_site_symmetry_1
_geom_bond_site_symmetry_2
W1 Se1 1_555 1_555
I1 Cu1 1_555 1_555
I2 Cu2 1_555 1_555
Cu1 Se1 1_555 1_555
Se1 Cu2 1_555 1_555
Cu2 N1 1_555 1_555
C1 H1 1_555 1_555
C2 H2 1_555 1_555
C3 H3 1_555 1_555
C4 C1 1_555 1_555
H4 C4 1_555 1_555
C5 C2 1_555 1_555
H5 C5 1_555 1_555
N1 C1 1_555 1_555
I1B Cu1B 1_555 1_555
I2A Cu2A 1_555 1_555
I2B Cu2B 1_555 1_555
I2C Cu2C 1_555 1_555
Cu1B Se1B 1_555 1_555
Se1A W1 1_555 1_555
Se1B W1 1_555 1_555
Se1C W1 1_555 1_555
Cu2A Se1A 1_555 1_555
Cu2B Se1 1_555 1_555
Cu2C Se1A 1_555 1_555
Cu2D I2 1_555 1_555
Cu2E I2A 1_555 1_555
C1A H1A 1_555 1_555
C1B H1B 1_555 1_555
C1C H1C 1_555 1_555
C2A H2A 1_555 1_555
C2B H2B 1_555 1_555
C2C H2C 1_555 1_555
C3A H3A 1_555 1_555
C3B H3B 1_555 1_555
C3C H3C 1_555 1_555
C4A C1A 1_555 1_555
C4B C1B 1_555 1_555
C4C C1C 1_555 1_555
H4A C4A 1_555 1_555
H4B C4B 1_555 1_555
H4C C4C 1_555 1_555
C5A C2A 1_555 1_555
C5B C2B 1_555 1_555
C5C C2C 1_555 1_555
H5A C5A 1_555 1_555
H5B C5B 1_555 1_555
H5C C5C 1_555 1_555
N1A Cu2A 1_555 1_555
N1B Cu2B 1_555 1_555
N1C Cu2C 1_555 1_555
Cu1 Se1A 1_555 1_555
Cu2 Se1C 1_555 1_555
C2 N1 1_555 1_555
C3 C4 1_555 1_555
C3 C5 1_555 1_555
Cu1B Se1C 1_555 1_555
Se1B Cu2A 1_555 1_555
Se1B Cu2B 1_555 1_555
Se1C Cu2C 1_555 1_555
C1A N1A 1_555 1_555
C1B N1B 1_555 1_555
C1C N1C 1_555 1_555
C2A N1A 1_555 1_555
C2B N1B 1_555 1_555
C2C N1C 1_555 1_555
C3A C4A 1_555 1_555
C3A C5A 1_555 1_555
C3B C4B 1_555 1_555
C3B C5B 1_555 1_555
C3C C4C 1_555 1_555
C3C C5C 1_555 1_555

#END
