
#######################################################################
#
#                 Cambridge Crystallographic Data Centre
#                                CCDC 
#
#######################################################################
#
# If this CIF has been generated from an entry in the Cambridge 
# Structural Database, then it will include bibliographic, chemical, 
# crystal, experimental, refinement or atomic coordinate data resulting 
# from the CCDC's data processing and validation procedures.
#
#######################################################################

data_XEHXUE
_symmetry_cell_setting           orthorhombic
_symmetry_space_group_name_H-M   'C m c m'
_symmetry_Int_Tables_number      63
_space_group_name_Hall           '-C 2n 2'
loop_
_symmetry_equiv_pos_site_id
_symmetry_equiv_pos_as_xyz
1 x,y,z
2 1/2+x,1/2+y,z
3 x,-y,-z
4 1/2+x,1/2-y,-z
5 -x,y,1/2-z
6 1/2-x,1/2+y,1/2-z
7 -x,-y,1/2+z
8 1/2-x,1/2-y,1/2+z
9 -x,-y,-z
10 1/2-x,1/2-y,-z
11 -x,y,z
12 1/2-x,1/2+y,z
13 x,-y,1/2+z
14 1/2+x,1/2-y,1/2+z
15 x,y,1/2-z
16 1/2+x,1/2+y,1/2-z
_cell_length_a                   14.3106(15)
_cell_length_b                   6.9974(13)
_cell_length_c                   11.4990(8)
_cell_angle_alpha                90
_cell_angle_beta                 90
_cell_angle_gamma                90
_cell_volume                     1151.48
loop_
_atom_site_label
_atom_site_type_symbol
_atom_site_fract_x
_atom_site_fract_y
_atom_site_fract_z
Co1 Co 0.00000 0.32430(10) 0.75000
V1 V 0.21251(3) 0.36479(6) 0.60329(4)
O1 O 0.22754(15) 0.3707(3) 0.43030(17)
O2 O 0.10107(13) 0.3242(3) 0.62226(16)
O3 O 0.25845(20) 0.3824(3) 0.75000
N1 N 0.00000 0.0221(7) 0.75000
N2 N 0.00000 -0.3739(6) 0.75000
C1 C 0.00000 -0.0777(7) 0.8456(4)
C2 C 0.00000 -0.2734(7) 0.8475(4)
H1 H 0.000 -0.006 0.917
H2 H 0.000 -0.343 0.919
Co1_2 Co 0.00000 -0.67570(10) 0.75000
V1J V -0.21251(3) 0.36479(6) 0.60329(4)
V1N V 0.21251(3) 0.36479(6) 0.89671(4)
V1D V -0.21251(3) 0.36479(6) 0.89671(4)
V1I V 0.28749(3) 0.13521(6) 0.39671(4)
V1B V 0.21251(3) 0.63521(6) 0.39671(4)
V1K V 0.28749(3) -0.13521(6) 0.60329(4)
V1K_2 V 0.28749(3) 0.86479(6) 0.60329(4)
V1H V -0.21251(3) 0.63521(6) 0.39671(4)
V1C V -0.28749(3) 0.13521(6) 0.39671(4)
O1I O 0.27246(15) 0.1293(3) 0.56970(17)
O1B O 0.22754(15) 0.6293(3) 0.56970(17)
O1J O -0.22754(15) 0.3707(3) 0.43030(17)
O1H O -0.22754(15) 0.6293(3) 0.56970(17)
O1C O -0.27246(15) 0.1293(3) 0.56970(17)
O1L O 0.22754(15) 0.6293(3) 0.93030(17)
O1N O 0.22754(15) 0.3707(3) 1.06970(17)
O1G O 0.27246(15) 0.1293(3) 0.93030(17)
O1M O -0.27246(15) 0.1293(3) 0.93030(17)
O1D O -0.22754(15) 0.3707(3) 1.06970(17)
O1F O -0.22754(15) 0.6293(3) 0.93030(17)
O2J O -0.10107(13) 0.3242(3) 0.62226(16)
O2N O 0.10107(13) 0.3242(3) 0.87774(16)
O2D O -0.10107(13) 0.3242(3) 0.87774(16)
O3J O -0.25845(20) 0.3824(3) 0.75000
N2_2 N 0.00000 0.6261(6) 0.75000
C1N C 0.00000 -0.0777(7) 0.6544(4)
C2N C 0.00000 -0.2734(7) 0.6525(4)
H1N H 0.000 -0.006 0.583
H2N H 0.000 -0.343 0.581
loop_
_geom_bond_atom_site_label_1
_geom_bond_atom_site_label_2
_geom_bond_site_symmetry_1
_geom_bond_site_symmetry_2
Co1 O2 1_555 1_555
V1 O1 1_555 1_555
O1 V1I 1_555 1_555
O2 V1 1_555 1_555
O3 V1 1_555 1_555
N1 Co1 1_555 1_555
N2 C2 1_555 1_555
C1 N1 1_555 1_555
C2 C1 1_555 1_555
H1 C1 1_555 1_555
H2 C2 1_555 1_555
Co1_2 N2 1_555 1_555
V1J O1J 1_555 1_555
V1N O3 1_555 1_555
V1D O1M 1_555 1_555
V1I O1I 1_555 1_555
V1B O1 1_555 1_555
V1K O1I 1_555 1_555
V1K_2 O1B 1_555 1_555
V1H O1J 1_555 1_555
V1C O1J 1_555 1_555
O1I V1 1_555 1_555
O1B V1 1_555 1_555
O1H V1J 1_555 1_555
O1C V1J 1_555 1_555
O1L V1N 1_555 1_555
O1N V1N 1_555 1_555
O1G V1N 1_555 1_555
O1D V1D 1_555 1_555
O1F V1D 1_555 1_555
O2J Co1 1_555 1_555
O2N Co1 1_555 1_555
O2D Co1 1_555 1_555
O3J V1J 1_555 1_555
N2_2 Co1 1_555 1_555
C1N N1 1_555 1_555
C2N N2 1_555 1_555
H1N C1N 1_555 1_555
H2N C2N 1_555 1_555
V1J O2J 1_555 1_555
V1N O2N 1_555 1_555
V1D O2D 1_555 1_555
V1D O3J 1_555 1_555
V1B O1B 1_555 1_555
V1H O1H 1_555 1_555
V1C O1C 1_555 1_555
C1N C2N 1_555 1_555

#END
