
#######################################################################
#
#                 Cambridge Crystallographic Data Centre
#                                CCDC 
#
#######################################################################
#
# If this CIF has been generated from an entry in the Cambridge 
# Structural Database, then it will include bibliographic, chemical, 
# crystal, experimental, refinement or atomic coordinate data resulting 
# from the CCDC's data processing and validation procedures.
#
#######################################################################

data_XEHXUE01
_symmetry_cell_setting           orthorhombic
_symmetry_space_group_name_H-M   'C m c m'
_symmetry_Int_Tables_number      63
_space_group_name_Hall           '-C 2n 2'
loop_
_symmetry_equiv_pos_site_id
_symmetry_equiv_pos_as_xyz
1 x,y,z
2 1/2+x,1/2+y,z
3 -x,-y,1/2+z
4 -x,y,1/2-z
5 x,-y,-z
6 1/2-x,1/2-y,1/2+z
7 1/2-x,1/2+y,1/2-z
8 1/2+x,1/2-y,-z
9 -x,-y,-z
10 1/2-x,1/2-y,-z
11 x,y,1/2-z
12 x,-y,1/2+z
13 -x,y,z
14 1/2+x,1/2+y,1/2-z
15 1/2+x,1/2-y,1/2+z
16 1/2-x,1/2+y,z
_cell_length_a                   14.3071(6)
_cell_length_b                   6.9965(3)
_cell_length_c                   11.4510(5)
_cell_angle_alpha                90
_cell_angle_beta                 90
_cell_angle_gamma                90
_cell_volume                     1146.24
loop_
_atom_site_label
_atom_site_type_symbol
_atom_site_fract_x
_atom_site_fract_y
_atom_site_fract_z
Co1 Co 0.0000 0.17479(17) 0.2500
V1 V 0.21250(5) 0.13527(10) 0.39686(6)
O1 O 0.1004(2) 0.1752(5) 0.3778(3)
O2 O 0.2282(3) 0.1287(4) 0.5693(3)
O3 O 0.2592(3) 0.1177(6) 0.2500
N1 N 0.0000 0.4757(11) 0.2500
N2 N 0.0000 0.8745(11) 0.2500
C1 C 0.0000 0.7739(12) 0.3464(7)
H1 H 0.0000 0.8376 0.4177
C2 C 0.0000 0.5752(12) 0.3459(7)
H2 H 0.0000 0.5109 0.4170
Co1_2 Co 0.0000 1.17479(17) 0.2500
V1J V 0.21250(5) 0.13527(10) 0.10314(6)
V1L V -0.21250(5) 0.13527(10) 0.39686(6)
V1C V -0.21250(5) 0.13527(10) 0.10314(6)
V1I V 0.28750(5) 0.36473(10) 0.60314(6)
V1D V 0.21250(5) -0.13527(10) 0.60314(6)
V1O V 0.28750(5) 0.63527(10) 0.39686(6)
V1O_2 V 0.28750(5) -0.36473(10) 0.39686(6)
V1K V 0.21250(5) -0.13527(10) -0.10314(6)
V1E V 0.28750(5) 0.36473(10) -0.10314(6)
O1J O 0.1004(2) 0.1752(5) 0.1222(3)
O1L O -0.1004(2) 0.1752(5) 0.3778(3)
O1C O -0.1004(2) 0.1752(5) 0.1222(3)
O2I O 0.2718(3) 0.3713(4) 0.4307(3)
O2D O 0.2282(3) -0.1287(4) 0.4307(3)
O2J O 0.2282(3) 0.1287(4) -0.0693(3)
O2K O 0.2282(3) -0.1287(4) 0.0693(3)
O2E O 0.2718(3) 0.3713(4) 0.0693(3)
O2L O -0.2282(3) 0.1287(4) 0.5693(3)
O2H O -0.2282(3) -0.1287(4) 0.4307(3)
O2G O -0.2718(3) 0.3713(4) 0.4307(3)
O2N O -0.2718(3) 0.3713(4) 0.0693(3)
O2B O -0.2282(3) -0.1287(4) 0.0693(3)
O2C O -0.2282(3) 0.1287(4) -0.0693(3)
O3L O -0.2592(3) 0.1177(6) 0.2500
N2_2 N 0.0000 -0.1255(11) 0.2500
C1J C 0.0000 0.7739(12) 0.1536(7)
H1J H 0.0000 0.8376 0.0823
C2J C 0.0000 0.5752(12) 0.1541(7)
H2J H 0.0000 0.5109 0.0830
loop_
_geom_bond_atom_site_label_1
_geom_bond_atom_site_label_2
_geom_bond_site_symmetry_1
_geom_bond_site_symmetry_2
Co1 O1 1_555 1_555
V1 O1 1_555 1_555
O2 V1 1_555 1_555
O3 V1 1_555 1_555
N1 Co1 1_555 1_555
N2 C1 1_555 1_555
C1 H1 1_555 1_555
C2 N1 1_555 1_555
H2 C2 1_555 1_555
Co1_2 N2 1_555 1_555
V1J O3 1_555 1_555
V1L O1L 1_555 1_555
V1C O1C 1_555 1_555
V1I O2 1_555 1_555
V1D O2 1_555 1_555
V1O O2I 1_555 1_555
V1O_2 O2D 1_555 1_555
V1K O2J 1_555 1_555
V1E O2J 1_555 1_555
O1J Co1 1_555 1_555
O1L Co1 1_555 1_555
O1C Co1 1_555 1_555
O2I V1 1_555 1_555
O2D V1 1_555 1_555
O2J V1J 1_555 1_555
O2K V1J 1_555 1_555
O2E V1J 1_555 1_555
O2L V1L 1_555 1_555
O2H V1L 1_555 1_555
O2G V1L 1_555 1_555
O2N V1C 1_555 1_555
O2B V1C 1_555 1_555
O2C V1C 1_555 1_555
O3L V1L 1_555 1_555
N2_2 Co1 1_555 1_555
C1J N2 1_555 1_555
H1J C1J 1_555 1_555
C2J N1 1_555 1_555
H2J C2J 1_555 1_555
C1 C2 1_555 1_555
V1J O1J 1_555 1_555
V1C O3L 1_555 1_555
V1I O2I 1_555 1_555
V1D O2D 1_555 1_555
V1K O2K 1_555 1_555
V1E O2E 1_555 1_555
C1J C2J 1_555 1_555

#END
