
#######################################################################
#
#                 Cambridge Crystallographic Data Centre
#                                CCDC 
#
#######################################################################
#
# If this CIF has been generated from an entry in the Cambridge 
# Structural Database, then it will include bibliographic, chemical, 
# crystal, experimental, refinement or atomic coordinate data resulting 
# from the CCDC's data processing and validation procedures.
#
#######################################################################

data_XEHXEP
_symmetry_cell_setting           monoclinic
_symmetry_space_group_name_H-M   'P 21/n'
_symmetry_Int_Tables_number      14
_space_group_name_Hall           '-P 2yn'
loop_
_symmetry_equiv_pos_site_id
_symmetry_equiv_pos_as_xyz
1 x,y,z
2 1/2-x,1/2+y,1/2-z
3 -x,-y,-z
4 1/2+x,1/2-y,1/2+z
_cell_length_a                   8.8276(18)
_cell_length_b                   23.476(5)
_cell_length_c                   12.346(3)
_cell_angle_alpha                90
_cell_angle_beta                 91.01(3)
_cell_angle_gamma                90
_cell_volume                     2558.15
loop_
_atom_site_label
_atom_site_type_symbol
_atom_site_fract_x
_atom_site_fract_y
_atom_site_fract_z
Cu1 Cu 0.65970(3) 0.143702(13) 0.43578(2)
Cu2 Cu 0.14553(3) 0.224540(15) 0.31554(2)
O1 O 0.33911(19) 0.19717(9) 0.37784(13)
O2 O 0.16802(17) 0.27352(7) 0.48764(13)
N1 N 0.7885(2) 0.08498(10) 0.36328(18)
N2 N 0.6296(3) 0.07984(10) 0.54238(18)
C1 C 0.3890(3) 0.21095(11) 0.46906(18)
C2 C 0.3033(2) 0.25203(11) 0.54000(18)
H1 H 0.3696 0.2842 0.5587
C3 C 0.7013(4) -0.01915(14) 0.5742(3)
C4 C 0.7033(3) 0.03120(12) 0.5141(2)
C5 C 0.7902(3) 0.03431(12) 0.4167(2)
C6 C 0.8706(3) 0.09017(15) 0.2750(3)
H2 H 0.8705 0.1248 0.2382
C7 C 0.5511(4) 0.07906(15) 0.6339(2)
H3 H 0.5014 0.1120 0.6552
C8 C 0.9582(4) 0.04466(17) 0.2351(3)
H4 H 1.0167 0.0496 0.1739
C9 C 0.9562(4) -0.00651(16) 0.2870(3)
H5 H 1.0097 -0.0372 0.2595
C10 C 0.5410(4) 0.03065(17) 0.6982(3)
H6 H 0.4841 0.0314 0.7608
C11 C 0.8730(4) -0.01287(14) 0.3826(3)
C12 C 0.6153(4) -0.01833(16) 0.6693(3)
H7 H 0.6088 -0.0508 0.7122
O3 O 0.02084(19) 0.18073(8) 0.42020(13)
O4 O 0.51065(18) 0.19193(8) 0.51038(13)
O5 O -0.15822(19) 0.18793(9) 0.54326(14)
O6 O 0.2428(2) 0.29313(10) 0.24757(15)
O7 O 0.2183(2) 0.15522(10) 0.18661(17)
C13 C 0.0382(3) 0.25739(11) 0.54918(18)
H8 H -0.0348 0.2889 0.5479
C14 C -0.0373(3) 0.20474(11) 0.50068(18)
C15 C 0.8683(4) -0.06370(14) 0.4486(4)
H9 H 0.9241 -0.0954 0.4278
C16 C 0.7866(4) -0.06667(15) 0.5383(4)
H10 H 0.7854 -0.1003 0.5779
C17 C 0.2548(2) 0.22235(11) 0.64499(18)
H11 H 0.2390 0.1819 0.6290
C18 C 0.0984(2) 0.24950(11) 0.66576(18)
H12 H 0.0344 0.2221 0.7037
O8 O 0.0480(2) 0.34978(8) 0.69466(15)
O9 O 0.3755(2) 0.19119(9) 0.80981(15)
C19 C 0.3758(3) 0.22694(11) 0.73573(19)
C20 C 0.1058(3) 0.30550(11) 0.73024(19)
O10 O 0.17115(18) 0.29981(8) 0.82273(13)
O11 O 0.46973(19) 0.26663(8) 0.72429(14)
Cu1_2 Cu -0.34030(3) 0.143702(13) 0.43578(2)
Cu1C Cu 0.15970(3) 0.356298(13) 0.93578(2)
Cu2C Cu 0.64553(3) 0.275460(15) 0.81554(2)
O5_2 O 0.84178(19) 0.18793(9) 0.54326(14)
O10C O 0.67115(18) 0.20019(8) 0.32273(13)
O11C O -0.03027(19) 0.23337(8) 0.22429(14)
O12 O 1.1582(3) 0.19161(11) 0.9694(2)
O13 O 1.4156(5) 0.36735(16) 0.3611(3)
C21 C 0.9734(10) 0.3988(3) 0.4448(7)
H13 H 0.9000 0.4269 0.4648
H14 H 0.9398 0.3618 0.4673
H15 H 0.9851 0.3991 0.3677
C22 C 1.1702(13) 0.4164(3) 0.5165(6)
H16 H 1.1498 0.4425 0.5753
H17 H 1.2068 0.3813 0.5493
O14 O 1.323(3) 0.4456(11) 0.4422(12)
H18 H 1.2975 0.4486 0.3782
O15 O 1.2688(16) 0.5408(4) 0.5285(10)
loop_
_geom_bond_atom_site_label_1
_geom_bond_atom_site_label_2
_geom_bond_site_symmetry_1
_geom_bond_site_symmetry_2
Cu1 N1 1_555 1_555
Cu2 O1 1_555 1_555
O1 C1 1_555 1_555
O2 Cu2 1_555 1_555
N1 C5 1_555 1_555
N2 Cu1 1_555 1_555
C1 C2 1_555 1_555
C2 O2 1_555 1_555
H1 C2 1_555 1_555
C3 C4 1_555 1_555
C4 N2 1_555 1_555
C5 C4 1_555 1_555
C6 N1 1_555 1_555
H2 C6 1_555 1_555
C7 N2 1_555 1_555
H3 C7 1_555 1_555
C8 C6 1_555 1_555
H4 C8 1_555 1_555
C9 C8 1_555 1_555
H5 C9 1_555 1_555
C10 C7 1_555 1_555
H6 C10 1_555 1_555
C11 C5 1_555 1_555
C12 C3 1_555 1_555
H7 C12 1_555 1_555
O3 Cu2 1_555 1_555
O4 Cu1 1_555 1_555
O5 C14 1_555 1_555
O6 Cu2 1_555 1_555
O7 Cu2 1_555 1_555
C13 O2 1_555 1_555
H8 C13 1_555 1_555
C14 O3 1_555 1_555
C15 C11 1_555 1_555
H9 C15 1_555 1_555
C16 C3 1_555 1_555
H10 C16 1_555 1_555
C17 C2 1_555 1_555
H11 C17 1_555 1_555
C18 C13 1_555 1_555
H12 C18 1_555 1_555
O8 C20 1_555 1_555
O9 C19 1_555 1_555
C19 C17 1_555 1_555
C20 C18 1_555 1_555
O10 C20 1_555 1_555
O11 C19 1_555 1_555
C21 H13 1_555 1_555
H14 C21 1_555 1_555
H15 C21 1_555 1_555
C22 C21 1_555 1_555
H16 C22 1_555 1_555
H17 C22 1_555 1_555
O14 C22 1_555 1_555
H18 O14 1_555 1_555
Cu1_2 O5 1_555 1_555
Cu1C O10 1_555 1_555
Cu2C O11 1_555 1_555
O5_2 Cu1 1_555 1_555
O10C Cu1 1_555 1_555
O11C Cu2 1_555 1_555
C1 O4 1_555 1_555
C9 C11 1_555 1_555
C10 C12 1_555 1_555
C13 C14 1_555 1_555
C15 C16 1_555 1_555
C17 C18 1_555 1_555

#END
