
#######################################################################
#
#                 Cambridge Crystallographic Data Centre
#                                CCDC 
#
#######################################################################
#
# If this CIF has been generated from an entry in the Cambridge 
# Structural Database, then it will include bibliographic, chemical, 
# crystal, experimental, refinement or atomic coordinate data resulting 
# from the CCDC's data processing and validation procedures.
#
#######################################################################

data_XEHYAL
_symmetry_cell_setting           orthorhombic
_symmetry_space_group_name_H-M   'C m c m'
_symmetry_Int_Tables_number      63
_space_group_name_Hall           '-C 2n 2'
loop_
_symmetry_equiv_pos_site_id
_symmetry_equiv_pos_as_xyz
1 x,y,z
2 1/2+x,1/2+y,z
3 -x,-y,1/2+z
4 -x,y,1/2-z
5 x,-y,-z
6 1/2-x,1/2-y,1/2+z
7 1/2-x,1/2+y,1/2-z
8 1/2+x,1/2-y,-z
9 -x,-y,-z
10 1/2-x,1/2-y,-z
11 x,y,1/2-z
12 x,-y,1/2+z
13 -x,y,z
14 1/2+x,1/2+y,1/2-z
15 1/2+x,1/2-y,1/2+z
16 1/2-x,1/2+y,z
_cell_length_a                   14.2372(4)
_cell_length_b                   6.9008(2)
_cell_length_c                   11.5102(3)
_cell_angle_alpha                90
_cell_angle_beta                 90
_cell_angle_gamma                90
_cell_volume                     1130.85
loop_
_atom_site_label
_atom_site_type_symbol
_atom_site_fract_x
_atom_site_fract_y
_atom_site_fract_z
Ni1 Ni 0.5000 0.31609(5) 0.7500
V1 V 0.288779(17) 0.36349(3) 0.60384(2)
O1 O 0.40026(7) 0.31578(16) 0.62390(9)
O2 O 0.22372(9) 0.13096(14) 0.57004(10)
O3 O 0.24251(11) 0.3843(2) 0.7500
N1 N 0.5000 0.6152(3) 0.7500
N2 N 0.5000 1.0178(4) 0.7500
C1 C 0.5000 0.7157(3) 0.8484(2)
H1 H 0.5000 0.6557 0.9199
H2 H 0.5000 0.9801 0.9165
C2 C 0.5000 0.9164(4) 0.8468(2)
Ni1_2 Ni 0.5000 1.31609(5) 0.7500
V1J V 0.288779(17) 0.36349(3) 0.89616(2)
V1L V 0.711221(17) 0.36349(3) 0.60384(2)
V1C V 0.711221(17) 0.36349(3) 0.89616(2)
V1O V 0.211221(17) -0.13651(3) 0.60384(2)
V1I V 0.211221(17) 0.13651(3) 0.39616(2)
V1O_2 V 0.211221(17) 0.86349(3) 0.60384(2)
V1D V 0.288779(17) 0.63651(3) 0.39616(2)
V1E V 0.211221(17) 0.13651(3) 1.10384(2)
V1F V 0.211221(17) -0.13651(3) 0.89616(2)
O1J O 0.40026(7) 0.31578(16) 0.87610(9)
O1L O 0.59974(7) 0.31578(16) 0.62390(9)
O1C O 0.59974(7) 0.31578(16) 0.87610(9)
O2O O 0.27628(9) 0.63096(14) 0.57004(10)
O2I O 0.27628(9) 0.36904(14) 0.42996(10)
O2J O 0.22372(9) 0.13096(14) 0.92996(10)
O2E O 0.27628(9) 0.36904(14) 1.07004(10)
O2F O 0.27628(9) 0.63096(14) 0.92996(10)
O2A O 0.72372(9) 0.63096(14) 0.57004(10)
O2L O 0.77628(9) 0.13096(14) 0.57004(10)
O2G O 0.72372(9) 0.36904(14) 0.42996(10)
O2M O 0.72372(9) 0.63096(14) 0.92996(10)
O2N O 0.72372(9) 0.36904(14) 1.07004(10)
O2C O 0.77628(9) 0.13096(14) 0.92996(10)
O3L O 0.75749(11) 0.3843(2) 0.7500
N2_2 N 0.5000 0.0178(4) 0.7500
C1J C 0.5000 0.7157(3) 0.6516(2)
H1J H 0.5000 0.6557 0.5801
H2J H 0.5000 0.9801 0.5835
C2J C 0.5000 0.9164(4) 0.6532(2)
loop_
_geom_bond_atom_site_label_1
_geom_bond_atom_site_label_2
_geom_bond_site_symmetry_1
_geom_bond_site_symmetry_2
Ni1 O1 1_555 1_555
V1 O1 1_555 1_555
O2 V1 1_555 1_555
O3 V1 1_555 1_555
N1 Ni1 1_555 1_555
N2 C2 1_555 1_555
C1 N1 1_555 1_555
H1 C1 1_555 1_555
H2 C2 1_555 1_555
C2 C1 1_555 1_555
Ni1_2 N2 1_555 1_555
V1J O3 1_555 1_555
V1L O1L 1_555 1_555
V1C O1C 1_555 1_555
V1O O2 1_555 1_555
V1I O2 1_555 1_555
V1O_2 O2O 1_555 1_555
V1D O2O 1_555 1_555
V1E O2J 1_555 1_555
V1F O2J 1_555 1_555
O1J Ni1 1_555 1_555
O1L Ni1 1_555 1_555
O1C Ni1 1_555 1_555
O2O V1 1_555 1_555
O2I V1 1_555 1_555
O2J V1J 1_555 1_555
O2E V1J 1_555 1_555
O2F V1J 1_555 1_555
O2A V1L 1_555 1_555
O2L V1L 1_555 1_555
O2G V1L 1_555 1_555
O2M V1C 1_555 1_555
O2N V1C 1_555 1_555
O2C V1C 1_555 1_555
O3L V1L 1_555 1_555
N2_2 Ni1 1_555 1_555
C1J N1 1_555 1_555
H1J C1J 1_555 1_555
H2J C2J 1_555 1_555
C2J N2 1_555 1_555
V1J O1J 1_555 1_555
V1C O3L 1_555 1_555
V1I O2I 1_555 1_555
V1D O2I 1_555 1_555
V1E O2E 1_555 1_555
C1J C2J 1_555 1_555

#END
