
#######################################################################
#
#                 Cambridge Crystallographic Data Centre
#                                CCDC 
#
#######################################################################
#
# If this CIF has been generated from an entry in the Cambridge 
# Structural Database, then it will include bibliographic, chemical, 
# crystal, experimental, refinement or atomic coordinate data resulting 
# from the CCDC's data processing and validation procedures.
#
#######################################################################

data_XEHYAM
_symmetry_cell_setting           triclinic
_symmetry_space_group_name_H-M   'P -1'
_symmetry_Int_Tables_number      2
_space_group_name_Hall           '-P 1'
loop_
_symmetry_equiv_pos_site_id
_symmetry_equiv_pos_as_xyz
1 x,y,z
2 -x,-y,-z
_cell_length_a                   9.412(5)
_cell_length_b                   13.851(5)
_cell_length_c                   14.934(5)
_cell_angle_alpha                99.435(5)
_cell_angle_beta                 92.211(5)
_cell_angle_gamma                99.059(5)
_cell_volume                     1892.44
loop_
_atom_site_label
_atom_site_type_symbol
_atom_site_fract_x
_atom_site_fract_y
_atom_site_fract_z
Zn1 Zn 1.03207(5) 0.28582(4) 0.19431(4)
Zn2 Zn 0.35522(5) 0.27468(4) -0.31571(4)
O1 O 1.0377(3) 0.4168(3) 0.3145(2)
O2 O 0.4950(3) 0.2907(2) -0.2107(2)
C1 C 0.7972(4) 0.4009(3) 0.0091(3)
C2 C 0.1348(4) 0.1025(3) -0.3531(3)
C3 C 1.1655(4) 0.0080(3) 0.1164(3)
O3 O 0.4526(3) 0.3524(2) 0.6021(2)
O4 O 0.5371(4) 0.2220(3) 0.5314(3)
N1 N 0.7901(4) 0.6499(3) 0.5352(3)
N2 N -0.1946(4) -0.0926(3) -0.3890(3)
O5 O 0.4110(3) 0.4323(2) -0.1966(2)
C4 C 0.9245(5) 0.3652(3) 0.3318(3)
N3 N 1.0204(4) 0.1352(3) 0.1560(3)
C5 C 0.6449(4) 0.3810(3) 0.5075(3)
N4 N 0.1390(3) 0.2761(3) -0.2994(2)
N5 N 1.3103(4) -0.0099(3) 0.1086(3)
C6 C 0.7429(5) 0.5622(3) 0.0022(3)
C7 C 0.6632(5) 0.4819(3) 0.5376(3)
C8 C 1.2762(4) 0.1844(3) 0.1735(3)
O6 O 0.9767(3) 0.3714(2) 0.1119(2)
C9 C 0.8265(5) 0.5023(3) 0.0391(3)
N6 N 0.7726(5) 0.6695(3) 0.0358(3)
N7 N -0.3110(4) 0.0322(3) -0.3399(3)
N8 N 1.5540(4) 0.0197(3) 0.1248(3)
C10 C 0.0591(5) 0.0051(3) -0.3779(3)
O7 O 0.8911(4) 0.7032(2) 0.5092(3)
O8 O 0.7063(4) 0.6825(2) 0.5887(2)
C11 C 0.4966(5) 0.3815(3) -0.1734(3)
C12 C 1.5031(5) 0.3333(3) 0.2289(4)
C13 C 0.7292(4) 0.3436(3) 0.4403(3)
C14 C 0.6340(5) 0.5226(4) -0.0636(3)
C15 C 0.8577(5) 0.5066(3) 0.4384(3)
O9 O 0.8800(4) 0.2793(2) 0.2884(2)
O10 O 0.8805(4) 0.7039(2) 0.0866(3)
N9 N 1.3602(4) -0.0965(3) 0.0783(3)
C16 C 0.8721(5) 0.3320(3) 0.0545(3)
C17 C -0.1656(4) 0.0674(3) -0.3396(3)
O11 O 0.8273(4) 0.2422(2) 0.0372(3)
N10 N 0.2786(4) 0.1255(3) -0.3576(3)
C18 C 0.6098(4) 0.4234(3) -0.0977(3)
C19 C -0.0918(4) 0.1676(3) -0.3154(3)
O12 O 0.6880(5) 0.7194(3) 0.0109(3)
C20 C 1.4300(4) 0.0612(3) 0.1364(4)
C21 C 1.1518(4) 0.1073(3) 0.1471(3)
C22 C 0.8353(4) 0.4051(3) 0.4060(3)
C23 C 1.3611(5) 0.3493(3) 0.2294(3)
C24 C 0.5371(5) 0.3113(3) 0.5486(3)
C25 C 0.6918(5) 0.3626(3) -0.0607(3)
N11 N 1.2499(4) 0.2778(3) 0.2017(2)
C26 C -0.0906(5) -0.0086(3) -0.3697(3)
C27 C -0.3203(6) -0.0629(4) -0.3700(4)
C28 C 0.0592(4) 0.1845(3) -0.3212(3)
C29 C 1.4160(4) 0.1618(3) 0.1707(3)
C30 C 0.7690(5) 0.5430(3) 0.5031(3)
C31 C 0.1405(5) -0.0688(4) -0.4121(4)
C32 C 1.0407(5) -0.0630(4) 0.0986(4)
C33 C 1.5310(5) 0.2394(4) 0.2001(4)
C34 C 0.0732(5) 0.3522(4) -0.2718(3)
C35 C 0.3514(6) 0.0545(4) -0.3886(4)
C36 C 0.9097(5) -0.0340(4) 0.1108(4)
C37 C -0.1574(5) 0.2510(4) -0.2859(4)
C38 C -0.0752(5) 0.3428(4) -0.2647(4)
C39 C 0.9031(5) 0.0664(4) 0.1386(4)
C40 C 0.2843(6) -0.0436(4) -0.4176(4)
C41 C 1.5051(5) -0.0732(4) 0.0896(5)
H1 H 1.580(4) 0.391(3) 0.248(3)
H2 H 0.820(5) -0.082(3) 0.104(3)
H3 H 1.051(4) -0.127(3) 0.080(3)
H4 H 1.344(4) 0.411(3) 0.245(3)
H5 H 0.809(5) 0.087(3) 0.144(3)
H6 H 1.310(5) -0.162(4) 0.050(3)
H7 H 1.625(5) 0.234(3) 0.200(3)
H8 H 1.567(6) -0.126(4) 0.080(4)
H9 H 0.721(4) 0.276(3) 0.419(3)
H10 H 0.931(5) 0.544(3) 0.415(3)
H11 H 0.604(5) 0.503(3) 0.582(3)
H12 H 0.670(4) 0.298(3) -0.085(3)
H13 H 0.907(5) 0.538(3) 0.085(3)
H14 H 0.597(5) 0.563(3) -0.081(3)
H15 H 0.129(4) 0.408(3) -0.257(2)
H16 H -0.409(6) -0.100(4) -0.375(3)
H17 H -0.122(5) 0.403(3) -0.248(3)
H18 H 0.446(5) 0.069(3) -0.388(3)
H19 H 0.328(5) -0.097(4) -0.434(4)
H20 H 0.098(5) -0.137(4) -0.436(3)
H21 H -0.261(5) 0.246(3) -0.280(3)
H22 H -0.187(5) -0.146(4) -0.415(3)
Zn2_2 Zn 0.35522(5) 0.27468(4) 0.68429(4)
O3_2 O 0.4526(3) 0.3524(2) -0.3979(2)
loop_
_geom_bond_atom_site_label_1
_geom_bond_atom_site_label_2
_geom_bond_site_symmetry_1
_geom_bond_site_symmetry_2
Zn1 O1 1_555 1_555
Zn2 O2 1_555 1_555
O1 C4 1_555 1_555
O2 C11 1_555 1_555
C1 C9 1_555 1_555
C2 C10 1_555 1_555
C3 N5 1_555 1_555
O3 C24 1_555 1_555
O4 C24 1_555 1_555
N1 O7 1_555 1_555
N2 C26 1_555 1_555
O5 C11 1_555 1_555
C4 O9 1_555 1_555
N3 Zn1 1_555 1_555
C5 C7 1_555 1_555
N4 Zn2 1_555 1_555
N5 N9 1_555 1_555
C6 C9 1_555 1_555
C7 C30 1_555 1_555
C8 C21 1_555 1_555
O6 Zn1 1_555 1_555
C9 H13 1_555 1_555
N6 C6 1_555 1_555
N7 C17 1_555 1_555
N8 C20 1_555 1_555
C10 C26 1_555 1_555
O8 N1 1_555 1_555
C11 C18 1_555 1_555
C12 C23 1_555 1_555
C13 C5 1_555 1_555
C14 C6 1_555 1_555
C15 C22 1_555 1_555
O9 Zn1 1_555 1_555
O10 N6 1_555 1_555
N9 C41 1_555 1_555
C16 C1 1_555 1_555
C17 C19 1_555 1_555
O11 C16 1_555 1_555
N10 Zn2 1_555 1_555
C18 C14 1_555 1_555
C19 C28 1_555 1_555
O12 N6 1_555 1_555
C20 N5 1_555 1_555
C21 C3 1_555 1_555
C22 C4 1_555 1_555
C23 N11 1_555 1_555
C24 C5 1_555 1_555
C25 C1 1_555 1_555
N11 Zn1 1_555 1_555
C26 C17 1_555 1_555
C27 N2 1_555 1_555
C28 C2 1_555 1_555
C29 C8 1_555 1_555
C30 N1 1_555 1_555
C31 C10 1_555 1_555
C32 C3 1_555 1_555
C33 C12 1_555 1_555
C34 N4 1_555 1_555
C35 N10 1_555 1_555
C36 C32 1_555 1_555
C37 C19 1_555 1_555
C38 C34 1_555 1_555
C39 N3 1_555 1_555
C40 C31 1_555 1_555
C41 N8 1_555 1_555
H1 C12 1_555 1_555
H2 C36 1_555 1_555
H3 C32 1_555 1_555
H4 C23 1_555 1_555
H5 C39 1_555 1_555
H6 N9 1_555 1_555
H7 C33 1_555 1_555
H8 C41 1_555 1_555
H9 C13 1_555 1_555
H10 C15 1_555 1_555
H11 C7 1_555 1_555
H12 C25 1_555 1_555
H14 C14 1_555 1_555
H15 C34 1_555 1_555
H16 C27 1_555 1_555
H17 C38 1_555 1_555
H18 C35 1_555 1_555
H19 C40 1_555 1_555
H20 C31 1_555 1_555
H21 C37 1_555 1_555
H22 N2 1_555 1_555
Zn2_2 O3 1_555 1_555
O3_2 Zn2 1_555 1_555
C2 N10 1_555 1_555
N3 C21 1_555 1_555
N4 C28 1_555 1_555
C8 N11 1_555 1_555
O6 C16 1_555 1_555
N7 C27 1_555 1_555
C13 C22 1_555 1_555
C15 C30 1_555 1_555
C18 C25 1_555 1_555
C20 C29 1_555 1_555
C29 C33 1_555 1_555
C35 C40 1_555 1_555
C36 C39 1_555 1_555
C37 C38 1_555 1_555

#END
