
#######################################################################
#
#                 Cambridge Crystallographic Data Centre
#                                CCDC 
#
#######################################################################
#
# If this CIF has been generated from an entry in the Cambridge 
# Structural Database, then it will include bibliographic, chemical, 
# crystal, experimental, refinement or atomic coordinate data resulting 
# from the CCDC's data processing and validation procedures.
#
#######################################################################

data_XEJCEW
_symmetry_cell_setting           monoclinic
_symmetry_space_group_name_H-M   'P 21/n'
_symmetry_Int_Tables_number      14
_space_group_name_Hall           '-P 2yn'
loop_
_symmetry_equiv_pos_site_id
_symmetry_equiv_pos_as_xyz
1 x,y,z
2 1/2-x,1/2+y,1/2-z
3 -x,-y,-z
4 1/2+x,1/2-y,1/2+z
_cell_length_a                   14.3830(19)
_cell_length_b                   20.469(3)
_cell_length_c                   16.184(2)
_cell_angle_alpha                90
_cell_angle_beta                 100.312(2)
_cell_angle_gamma                90
_cell_volume                     4687.7
loop_
_atom_site_label
_atom_site_type_symbol
_atom_site_fract_x
_atom_site_fract_y
_atom_site_fract_z
Nd1 Nd 0.856952(7) 0.849088(5) 0.700976(6)
K1 K 1.08154(3) 0.76187(2) 0.92327(3)
K2 K 0.61965(4) 0.92831(3) 0.53832(3)
K3 K 1.10620(3) 0.93229(2) 1.01304(3)
O1 O 0.91573(10) 0.75817(7) 0.80465(9)
O2 O 0.89241(12) 0.68024(8) 0.89534(11)
O3 O 0.71026(10) 0.91464(7) 0.70428(9)
O4 O 0.91930(10) 0.91570(7) 0.82588(9)
O5 O 0.99342(12) 1.00358(7) 0.88784(10)
O6 O 0.81691(10) 0.88927(7) 0.55451(9)
O7 O 0.74089(9) 0.76792(7) 0.62895(9)
O8 O 0.70231(10) 0.67713(7) 0.55406(10)
O9 O 1.03008(10) 0.84797(7) 0.70409(10)
N1 N 0.90408(11) 0.96722(8) 0.67616(11)
N2 N 0.92086(11) 0.75313(8) 0.62490(10)
N3 N 0.74790(12) 0.80953(8) 0.80358(10)
C1 C 0.86628(15) 0.72933(10) 0.85032(13)
C2 C 0.76921(15) 0.75684(10) 0.85073(13)
C3 C 0.70563(18) 0.72954(12) 0.89827(15)
H1 H 0.7222 0.6920 0.9311
C4 C 0.61992(19) 0.75844(13) 0.89573(16)
H2 H 0.5774 0.7409 0.9277
C5 C 0.59373(16) 0.81449(12) 0.84581(15)
C6 C 0.50681(18) 0.84753(14) 0.83890(19)
H3 H 0.4601 0.8323 0.8680
C7 C 0.49103(17) 0.90195(14) 0.78934(18)
H4 H 0.4331 0.9240 0.7856
C8 C 0.55854(16) 0.92641(13) 0.74350(16)
H5 H 0.5450 0.9643 0.7107
C9 C 0.64480(14) 0.89487(11) 0.74666(14)
C10 C 0.66248(15) 0.83844(10) 0.79955(13)
C11 C 0.95481(14) 0.97282(10) 0.82494(13)
C12 C 0.94736(14) 1.00317(9) 0.73929(14)
C13 C 0.98295(17) 1.06606(11) 0.72650(17)
H6 H 1.0135 1.0910 0.7721
C14 C 0.97208(17) 1.08961(11) 0.64703(18)
H7 H 0.9956 1.1313 0.6378
C15 C 0.92636(15) 1.05289(11) 0.57794(16)
C16 C 0.91456(18) 1.07212(13) 0.49275(18)
H8 H 0.9365 1.1131 0.4784
C17 C 0.87145(18) 1.03116(13) 0.43185(16)
H9 H 0.8648 1.0444 0.3755
C18 C 0.83611(17) 0.96935(12) 0.44979(14)
H10 H 0.8053 0.9430 0.4056
C19 C 0.84640(14) 0.94704(10) 0.53211(13)
C20 C 0.89253(14) 0.99011(10) 0.59668(13)
C21 C 0.76049(14) 0.71686(9) 0.59021(12)
C22 C 0.86453(14) 0.70608(9) 0.59015(12)
C23 C 0.89871(17) 0.64984(10) 0.55603(15)
H11 H 0.8569 0.6171 0.5313
C24 C 0.99370(18) 0.64360(12) 0.55946(16)
H12 H 1.0175 0.6062 0.5368
C25 C 1.05681(15) 0.69253(11) 0.59655(14)
C26 C 1.15643(17) 0.69004(13) 0.60460(17)
H13 H 1.1856 0.6540 0.5838
C27 C 1.20963(17) 0.74027(14) 0.64273(17)
H14 H 1.2756 0.7385 0.6470
C28 C 1.16939(16) 0.79445(12) 0.67584(16)
H15 H 1.2090 0.8280 0.7014
C29 C 1.07229(14) 0.79978(10) 0.67178(13)
C30 C 1.01584(14) 0.74761(10) 0.62937(12)
O10 O 0.94743(11) 0.85293(7) 0.97293(10)
H16 H 0.9422 0.8749 0.9292
C31 C 0.87073(18) 0.86637(13) 1.01359(17)
H17 H 0.8290 0.8288 1.0089
H18 H 0.8363 0.9039 0.9875
H19 H 0.8941 0.8756 1.0724
O11 O 1.24935(12) 0.69652(9) 0.93283(11)
H20 H 1.2709 0.6683 0.9680
C32 C 1.3191(2) 0.71538(17) 0.8880(2)
H21 H 1.3224 0.6838 0.8440
H22 H 1.3796 0.7174 0.9257
H23 H 1.3037 0.7580 0.8632
O12 O 1.13721(11) 0.87936(9) 0.85293(10)
H24 H 1.1036 0.8717 0.8067
C33 C 1.2118(2) 0.9211(2) 0.8419(2)
H25 H 1.2534 0.9277 0.8954
H26 H 1.1864 0.9628 0.8202
H27 H 1.2471 0.9015 0.8025
O13 O 1.06403(11) 0.69515(8) 1.07342(11)
H28 H 1.1187 0.7064 1.0943
C34 C 0.9988(2) 0.73012(14) 1.1125(2)
H29 H 1.0244 0.7729 1.1293
H30 H 0.9397 0.7350 1.0733
H31 H 0.9876 0.7064 1.1616
O14 O 0.59441(18) 1.06368(10) 0.50594(15)
H32 H 0.6216 1.0833 0.5483
C35 C 0.6378(3) 1.07911(18) 0.4376(3)
H33 H 0.6326 1.0422 0.3994
H34 H 0.7040 1.0890 0.4576
H35 H 0.6069 1.1168 0.4085
O15 O 0.54853(17) 0.89153(13) 0.37516(13)
H36 H 0.4973 0.8726 0.3741
C36 C 0.5727(3) 0.8894(2) 0.2954(2)
H37 H 0.6273 0.9169 0.2944
H38 H 0.5200 0.9049 0.2541
H39 H 0.5874 0.8447 0.2822
O16 O 1.27488(12) 0.99061(8) 1.04650(11)
H40 H 1.2751 0.9896 1.0978
C37 C 1.3534(2) 1.02508(14) 1.0311(2)
H41 H 1.3555 1.0237 0.9716
H42 H 1.4104 1.0054 1.0624
H43 H 1.3491 1.0701 1.0487
K1C K 0.58154(3) 0.73813(2) 0.42327(3)
K2C K 1.11965(4) 0.57169(3) 1.03832(3)
K3B K 0.89380(3) 1.06771(2) 0.98696(3)
K3C K 0.60620(3) 0.56771(2) 0.51304(3)
O5B O 1.00658(12) 0.99642(7) 1.11216(10)
O8C O 1.20231(10) 0.82287(7) 1.05406(10)
O13C O 0.56403(11) 0.80485(8) 0.57342(11)
H28C H 0.6187 0.7936 0.5943
O17 O 0.24393(12) 0.97223(8) 0.20381(11)
H44 H 0.2561 1.0065 0.2310
C38 C 0.2765(2) 0.91820(14) 0.25528(19)
H45 H 0.3394 0.9273 0.2861
H46 H 0.2784 0.8798 0.2205
H47 H 0.2340 0.9104 0.2945
loop_
_geom_bond_atom_site_label_1
_geom_bond_atom_site_label_2
_geom_bond_site_symmetry_1
_geom_bond_site_symmetry_2
Nd1 O1 1_555 1_555
K1 O1 1_555 1_555
K2 O3 1_555 1_555
K3 O5 1_555 1_555
O1 C1 1_555 1_555
O2 C1 1_555 1_555
O3 Nd1 1_555 1_555
O4 Nd1 1_555 1_555
O5 C11 1_555 1_555
O6 Nd1 1_555 1_555
O7 Nd1 1_555 1_555
O8 C21 1_555 1_555
O9 Nd1 1_555 1_555
N1 Nd1 1_555 1_555
N2 Nd1 1_555 1_555
N3 Nd1 1_555 1_555
C1 C2 1_555 1_555
C2 N3 1_555 1_555
C3 C2 1_555 1_555
H1 C3 1_555 1_555
C4 C3 1_555 1_555
H2 C4 1_555 1_555
C5 C4 1_555 1_555
C6 C5 1_555 1_555
H3 C6 1_555 1_555
C7 C6 1_555 1_555
H4 C7 1_555 1_555
C8 C7 1_555 1_555
H5 C8 1_555 1_555
C9 O3 1_555 1_555
C10 N3 1_555 1_555
C11 O4 1_555 1_555
C12 N1 1_555 1_555
C13 C12 1_555 1_555
H6 C13 1_555 1_555
C14 C13 1_555 1_555
H7 C14 1_555 1_555
C15 C14 1_555 1_555
C16 C15 1_555 1_555
H8 C16 1_555 1_555
C17 C16 1_555 1_555
H9 C17 1_555 1_555
C18 C17 1_555 1_555
H10 C18 1_555 1_555
C19 O6 1_555 1_555
C20 N1 1_555 1_555
C21 O7 1_555 1_555
C22 N2 1_555 1_555
C23 C22 1_555 1_555
H11 C23 1_555 1_555
C24 C23 1_555 1_555
H12 C24 1_555 1_555
C25 C24 1_555 1_555
C26 C25 1_555 1_555
H13 C26 1_555 1_555
C27 C26 1_555 1_555
H14 C27 1_555 1_555
C28 C27 1_555 1_555
H15 C28 1_555 1_555
C29 O9 1_555 1_555
C30 N2 1_555 1_555
O10 K1 1_555 1_555
H16 O10 1_555 1_555
C31 O10 1_555 1_555
H17 C31 1_555 1_555
H18 C31 1_555 1_555
H19 C31 1_555 1_555
O11 K1 1_555 1_555
H20 O11 1_555 1_555
C32 O11 1_555 1_555
H21 C32 1_555 1_555
H22 C32 1_555 1_555
H23 C32 1_555 1_555
O12 K1 1_555 1_555
H24 O12 1_555 1_555
C33 O12 1_555 1_555
H25 C33 1_555 1_555
H26 C33 1_555 1_555
H27 C33 1_555 1_555
O13 K1 1_555 1_555
H28 O13 1_555 1_555
C34 O13 1_555 1_555
H29 C34 1_555 1_555
H30 C34 1_555 1_555
H31 C34 1_555 1_555
O14 K2 1_555 1_555
H32 O14 1_555 1_555
C35 O14 1_555 1_555
H33 C35 1_555 1_555
H34 C35 1_555 1_555
H35 C35 1_555 1_555
O15 K2 1_555 1_555
H36 O15 1_555 1_555
C36 O15 1_555 1_555
H37 C36 1_555 1_555
H38 C36 1_555 1_555
H39 C36 1_555 1_555
O16 K3 1_555 1_555
H40 O16 1_555 1_555
C37 O16 1_555 1_555
H41 C37 1_555 1_555
H42 C37 1_555 1_555
H43 C37 1_555 1_555
O17 H44 1_555 1_555
C38 O17 1_555 1_555
H45 C38 1_555 1_555
H46 C38 1_555 1_555
H47 C38 1_555 1_555
K1C O8 1_555 1_555
K2C O13 1_555 1_555
K3B O5 1_555 1_555
K3C O8 1_555 1_555
O5B K3 1_555 1_555
O8C K1 1_555 1_555
O13C K2 1_555 1_555
H28C O13C 1_555 1_555
K2 O6 1_555 1_555
K3 O10 1_555 1_555
K3 O12 1_555 1_555
K3 O8C 1_555 1_555
C5 C10 1_555 1_555
C8 C9 1_555 1_555
C9 C10 1_555 1_555
C11 C12 1_555 1_555
C15 C20 1_555 1_555
C18 C19 1_555 1_555
C19 C20 1_555 1_555
C21 C22 1_555 1_555
C25 C30 1_555 1_555
C28 C29 1_555 1_555
C29 C30 1_555 1_555
K1C O13C 1_555 1_555
K3B O5B 1_555 1_555

#END
