
#######################################################################
#
#                 Cambridge Crystallographic Data Centre
#                                CCDC 
#
#######################################################################
#
# If this CIF has been generated from an entry in the Cambridge 
# Structural Database, then it will include bibliographic, chemical, 
# crystal, experimental, refinement or atomic coordinate data resulting 
# from the CCDC's data processing and validation procedures.
#
#######################################################################

data_XEJFEY
_symmetry_cell_setting           monoclinic
_symmetry_space_group_name_H-M   'P 21/c'
_symmetry_Int_Tables_number      14
_space_group_name_Hall           '-P 2ybc'
loop_
_symmetry_equiv_pos_site_id
_symmetry_equiv_pos_as_xyz
1 x,y,z
2 -x,1/2+y,1/2-z
3 -x,-y,-z
4 x,1/2-y,1/2+z
_cell_length_a                   9.267(5)
_cell_length_b                   16.749(5)
_cell_length_c                   14.159(5)
_cell_angle_alpha                90
_cell_angle_beta                 90.890(5)
_cell_angle_gamma                90
_cell_volume                     2197.4
loop_
_atom_site_label
_atom_site_type_symbol
_atom_site_fract_x
_atom_site_fract_y
_atom_site_fract_z
Zn1 Zn -0.44912(11) 0.24904(7) 0.11115(7)
C1 C 0.3059(9) 0.2649(5) 0.2092(6)
O1 O 0.4326(6) 0.2391(4) 0.2216(4)
N1 N -0.4375(9) 0.3435(4) 0.0193(5)
O2 O -0.2520(7) 0.2116(4) 0.1424(4)
O3 O -0.0046(8) 0.3829(4) 0.4024(4)
H1 H -0.0327 0.3954 0.4606
O4 O 0.2635(7) 0.2944(4) 0.1345(4)
N2 N -0.4972(8) 0.6628(4) -0.5125(5)
O5 O -0.2246(7) 0.3270(4) 0.2181(5)
O6 O -0.0568(8) 0.2559(4) 0.4249(5)
C2 C -0.4496(10) 0.5476(5) -0.3745(6)
C3 C -0.0316(9) 0.2341(5) 0.2241(6)
H2 H 0.0208 0.2215 0.1672
H3 H -0.0390 0.1852 0.2605
C4 C -0.5651(10) 0.5963(6) -0.3701(6)
H4 H -0.6299 0.5916 -0.3208
C5 C -0.0091(10) 0.3088(6) 0.3761(6)
C6 C -0.4177(12) 0.4562(6) -0.1242(6)
C7 C -0.5863(10) 0.6534(5) -0.4399(6)
H5 H -0.6662 0.6867 -0.4360
C8 C -0.1815(9) 0.2603(6) 0.1958(6)
C9 C -0.3805(10) 0.6152(5) -0.5139(6)
H6 H -0.3144 0.6221 -0.5620
C10 C 0.0566(9) 0.2938(5) 0.2813(6)
H7 H 0.0595 0.3443 0.2464
C11 C -0.3543(11) 0.5570(5) -0.4479(6)
H8 H -0.2736 0.5243 -0.4523
C12 C 0.2122(9) 0.2638(5) 0.2966(6)
H9 H 0.2583 0.2964 0.3450
H10 H 0.2086 0.2095 0.3203
C13 C -0.4309(12) 0.4830(6) -0.2989(6)
H11 H -0.5159 0.4492 -0.2990
H12 H -0.3486 0.4499 -0.3143
C14 C -0.3137(11) 0.3755(6) -0.0044(7)
H13 H -0.2316 0.3598 0.0294
C15 C -0.2968(12) 0.4309(7) -0.0761(8)
H14 H -0.2060 0.4503 -0.0911
C16 C -0.5531(11) 0.3676(6) -0.0292(7)
H15 H -0.6423 0.3452 -0.0157
C17 C -0.5454(11) 0.4257(7) -0.1002(7)
H16 H -0.6293 0.4431 -0.1307
C18 C -0.4084(13) 0.5176(6) -0.2016(7)
H17 H -0.4806 0.5585 -0.1913
H18 H -0.3143 0.5429 -0.1983
Zn1_2 Zn 0.55088(11) 0.24904(7) 0.11115(7)
Zn1A Zn -0.55088(11) 0.74904(7) -0.61115(7)
O1_2 O -0.5674(6) 0.2391(4) 0.2216(4)
N2A N -0.5028(8) 0.1628(4) 0.0125(5)
O7 O 0.9028(8) 0.0882(4) 0.0682(4)
H19 H 0.8531 0.1264 0.0909
H20 H 0.9589 0.0672 0.1088
O8 O 1.0534(8) 0.3732(4) 0.0295(5)
H21 H 1.1203 0.3471 0.0570
H22 H 1.0113 0.3407 -0.0079
O9 O 0.9179(11) 0.5143(5) 0.1197(6)
H23 H 0.9307 0.5531 0.0819
H24 H 0.9672 0.4735 0.1035
O10 O 0.8813(11) 0.5315(5) 0.3123(5)
H25 H 0.9239 0.4910 0.3384
H26 H 0.8893 0.5245 0.2525
loop_
_geom_bond_atom_site_label_1
_geom_bond_atom_site_label_2
_geom_bond_site_symmetry_1
_geom_bond_site_symmetry_2
Zn1 N1 1_555 1_555
C1 O1 1_555 1_555
O1 Zn1_2 1_555 1_555
N1 C14 1_555 1_555
O2 Zn1 1_555 1_555
O3 H1 1_555 1_555
O4 C1 1_555 1_555
N2 C7 1_555 1_555
O5 C8 1_555 1_555
O6 C5 1_555 1_555
C2 C4 1_555 1_555
C3 H2 1_555 1_555
H3 C3 1_555 1_555
C4 H4 1_555 1_555
C5 O3 1_555 1_555
C6 C15 1_555 1_555
C7 C4 1_555 1_555
H5 C7 1_555 1_555
C8 O2 1_555 1_555
C9 N2 1_555 1_555
H6 C9 1_555 1_555
C10 C3 1_555 1_555
H7 C10 1_555 1_555
C11 C2 1_555 1_555
H8 C11 1_555 1_555
C12 C1 1_555 1_555
H9 C12 1_555 1_555
H10 C12 1_555 1_555
C13 C2 1_555 1_555
H11 C13 1_555 1_555
H12 C13 1_555 1_555
C14 H13 1_555 1_555
C15 C14 1_555 1_555
H14 C15 1_555 1_555
C16 N1 1_555 1_555
H15 C16 1_555 1_555
C17 C6 1_555 1_555
H16 C17 1_555 1_555
C18 C6 1_555 1_555
H17 C18 1_555 1_555
H18 C18 1_555 1_555
O7 H19 1_555 1_555
H20 O7 1_555 1_555
O8 H21 1_555 1_555
H22 O8 1_555 1_555
O9 H23 1_555 1_555
H24 O9 1_555 1_555
O10 H25 1_555 1_555
H26 O10 1_555 1_555
Zn1A N2 1_555 1_555
O1_2 Zn1 1_555 1_555
N2A Zn1 1_555 1_555
C3 C8 1_555 1_555
C5 C10 1_555 1_555
C9 C11 1_555 1_555
C10 C12 1_555 1_555
C13 C18 1_555 1_555
C16 C17 1_555 1_555

#END
