
#######################################################################
#
#                 Cambridge Crystallographic Data Centre
#                                CCDC 
#
#######################################################################
#
# If this CIF has been generated from an entry in the Cambridge 
# Structural Database, then it will include bibliographic, chemical, 
# crystal, experimental, refinement or atomic coordinate data resulting 
# from the CCDC's data processing and validation procedures.
#
#######################################################################

data_XEJFAU
_symmetry_cell_setting           monoclinic
_symmetry_space_group_name_H-M   'P 21/n'
_symmetry_Int_Tables_number      14
_space_group_name_Hall           '-P 2yn'
loop_
_symmetry_equiv_pos_site_id
_symmetry_equiv_pos_as_xyz
1 x,y,z
2 1/2-x,1/2+y,1/2-z
3 -x,-y,-z
4 1/2+x,1/2-y,1/2+z
_cell_length_a                   9.4390(10)
_cell_length_b                   11.5890(10)
_cell_length_c                   17.4940(10)
_cell_angle_alpha                90
_cell_angle_beta                 105.600(10)
_cell_angle_gamma                90
_cell_volume                     1843.15
loop_
_atom_site_label
_atom_site_type_symbol
_atom_site_fract_x
_atom_site_fract_y
_atom_site_fract_z
Zn1 Zn 0.32690(4) 0.04099(3) -0.24629(2)
O1 O -0.4960(3) 0.1126(3) -0.25967(16)
O2 O -0.5973(3) 0.1604(3) -0.38457(17)
O3 O 0.1734(3) 0.1545(2) -0.26405(17)
O4 O 0.0582(3) 0.0388(2) -0.20054(18)
O5 O -0.1377(4) 0.0596(3) -0.4008(2)
C1 C 0.0571(4) -0.2185(3) -0.3867(2)
H1 H -0.0347 -0.2496 -0.3886
N1 N 0.2513(3) -0.0923(3) -0.32352(18)
C2 C 0.1310(4) -0.2512(3) -0.4425(2)
N2 N -0.0778(3) -0.4613(2) -0.64098(17)
C3 C 0.0601(4) -0.3271(3) -0.5100(2)
C4 C -0.2151(4) 0.1341(3) -0.2924(2)
H2 H -0.2271 0.0957 -0.2446
C5 C 0.1388(4) -0.4039(3) -0.5428(2)
H3 H 0.2397 -0.4117 -0.5212
O6 O -0.2963(5) -0.0430(3) -0.3566(3)
C6 C 0.1217(4) -0.1395(3) -0.3287(2)
H4 H 0.0718 -0.1187 -0.2916
C7 C -0.0729(4) 0.2017(3) -0.2700(3)
H5 H -0.0759 0.2558 -0.2281
H6 H -0.0643 0.2460 -0.3156
C8 C -0.3473(4) 0.2150(3) -0.3237(2)
H7 H -0.3346 0.2832 -0.2904
H8 H -0.3492 0.2397 -0.3770
C9 C 0.0676(4) -0.4689(3) -0.6075(2)
H9 H 0.1224 -0.5202 -0.6290
C10 C 0.2697(4) -0.2060(3) -0.4341(2)
H10 H 0.3255 -0.2296 -0.4677
C11 C -0.1536(4) -0.3877(4) -0.6090(2)
H11 H -0.2545 -0.3817 -0.6314
C12 C 0.3247(4) -0.1257(4) -0.3756(2)
H12 H 0.4164 -0.0933 -0.3721
C13 C -0.0896(4) -0.3202(4) -0.5442(3)
H13 H -0.1469 -0.2700 -0.5236
C14 C 0.0616(4) 0.1252(3) -0.2421(2)
C15 C -0.4926(4) 0.1590(3) -0.3254(2)
C16 C -0.2147(4) 0.0424(3) -0.3541(2)
H14 H -0.1477 0.0285 -0.4316
Zn1_2 Zn -0.67310(4) 0.04099(3) -0.24629(2)
Zn1C Zn -0.17310(4) -0.54099(3) -0.74629(2)
O1_2 O 0.5040(3) 0.1126(3) -0.25967(16)
N2C N 0.4222(3) -0.0387(2) -0.14098(17)
O7 O -1.3707(5) -0.2183(4) -0.4597(2)
H15 H -1.4172 -0.1727 -0.4359
H16 H -1.3714 -0.1845 -0.5036
O8 O -1.4341(5) -0.4420(4) -0.4300(3)
H17 H -1.4947 -0.4516 -0.4017
H18 H -1.5085 -0.3815 -0.4604
O9 O -1.1247(7) -0.0572(5) -0.5263(4)
H19 H -1.0808 -0.1240 -0.5201
H20 H -1.1322 -0.0397 -0.5758
loop_
_geom_bond_atom_site_label_1
_geom_bond_atom_site_label_2
_geom_bond_site_symmetry_1
_geom_bond_site_symmetry_2
Zn1 O3 1_555 1_555
O1 C15 1_555 1_555
O2 C15 1_555 1_555
O3 C14 1_555 1_555
O4 C14 1_555 1_555
O5 C16 1_555 1_555
C1 H1 1_555 1_555
N1 Zn1 1_555 1_555
C2 C1 1_555 1_555
N2 C9 1_555 1_555
C3 C2 1_555 1_555
C4 H2 1_555 1_555
C5 C3 1_555 1_555
H3 C5 1_555 1_555
O6 C16 1_555 1_555
C6 C1 1_555 1_555
H4 C6 1_555 1_555
C7 C4 1_555 1_555
H5 C7 1_555 1_555
H6 C7 1_555 1_555
C8 C4 1_555 1_555
H7 C8 1_555 1_555
H8 C8 1_555 1_555
C9 C5 1_555 1_555
H9 C9 1_555 1_555
C10 C2 1_555 1_555
H10 C10 1_555 1_555
C11 N2 1_555 1_555
H11 C11 1_555 1_555
C12 N1 1_555 1_555
H12 C12 1_555 1_555
C13 C3 1_555 1_555
H13 C13 1_555 1_555
C14 C7 1_555 1_555
C15 C8 1_555 1_555
C16 C4 1_555 1_555
H14 O5 1_555 1_555
O7 H15 1_555 1_555
H16 O7 1_555 1_555
O8 H17 1_555 1_555
H18 O8 1_555 1_555
O9 H19 1_555 1_555
H20 O9 1_555 1_555
Zn1_2 O1 1_555 1_555
Zn1C N2 1_555 1_555
O1_2 Zn1 1_555 1_555
N2C Zn1 1_555 1_555
N1 C6 1_555 1_555
C10 C12 1_555 1_555
C11 C13 1_555 1_555

#END
