
#######################################################################
#
#                 Cambridge Crystallographic Data Centre
#                                CCDC 
#
#######################################################################
#
# If this CIF has been generated from an entry in the Cambridge 
# Structural Database, then it will include bibliographic, chemical, 
# crystal, experimental, refinement or atomic coordinate data resulting 
# from the CCDC's data processing and validation procedures.
#
#######################################################################

data_XEJHID01
_symmetry_cell_setting           triclinic
_symmetry_space_group_name_H-M   'P -1'
_symmetry_Int_Tables_number      2
_space_group_name_Hall           '-P 1'
loop_
_symmetry_equiv_pos_site_id
_symmetry_equiv_pos_as_xyz
1 x,y,z
2 -x,-y,-z
_cell_length_a                   7.4125(10)
_cell_length_b                   14.019(2)
_cell_length_c                   15.523(2)
_cell_angle_alpha                88.125(13)
_cell_angle_beta                 81.434(10)
_cell_angle_gamma                83.318(11)
_cell_volume                     1584.06
loop_
_atom_site_label
_atom_site_type_symbol
_atom_site_fract_x
_atom_site_fract_y
_atom_site_fract_z
Rb1 Rb 0.22636(3) 0.55638(2) 0.55401(2)
P1 P 0.17695(8) 0.49962(4) 0.31838(4)
P2 P 0.37390(9) 0.33928(5) 0.38604(4)
O1 O 0.0886(2) 0.56047(13) 0.39174(12)
O2 O 0.4120(2) 0.38978(14) 0.46215(12)
O3 O 0.3669(2) 0.53679(12) 0.27333(11)
O4 O 0.0400(2) 0.51480(12) 0.24723(11)
O5 O 0.3318(2) 0.23122(12) 0.40633(13)
O6 O 0.5691(2) 0.31691(13) 0.32553(12)
N1 N 0.2210(3) 0.38775(14) 0.33205(14)
C1 C 0.3910(3) 0.6343(2) 0.2608(2)
C2 C 0.5533(4) 0.6621(2) 0.2802(2)
H1 H 0.6391(4) 0.6163(2) 0.3032(2)
C3 C 0.5917(4) 0.7569(2) 0.2662(2)
C4 C 0.4646(4) 0.8238(2) 0.2324(2)
C5 C 0.3037(4) 0.7932(2) 0.2133(2)
H2 H 0.2168(4) 0.8384(2) 0.1904(2)
C6 C 0.2657(4) 0.6989(2) 0.2267(2)
H3 H 0.1553(4) 0.6795(2) 0.2125(2)
C7 C 0.7692(5) 0.7849(2) 0.2889(3)
H4 H 0.7425(5) 0.8298(14) 0.3373(11)
H5 H 0.8355(16) 0.8156(16) 0.2381(5)
H6 H 0.8449(15) 0.7273(3) 0.3059(16)
C8 C 0.5002(6) 0.9275(2) 0.2168(3)
H7 H 0.6151(21) 0.9303(3) 0.1769(15)
H8 H 0.5099(40) 0.9564(6) 0.2723(4)
H9 H 0.3987(20) 0.9628(5) 0.1911(18)
C9 C 0.0543(4) 0.4610(2) 0.1712(2)
C10 C 0.2162(4) 0.4445(2) 0.1143(2)
H10 H 0.3241(4) 0.4681(2) 0.1272(2)
C11 C 0.2225(4) 0.3937(2) 0.0383(2)
C12 C 0.0628(5) 0.3594(2) 0.0200(2)
C13 C -0.0975(5) 0.3783(2) 0.0777(2)
H11 H -0.2065(5) 0.3558(2) 0.0650(2)
C14 C -0.1046(4) 0.4292(2) 0.1534(2)
H12 H -0.2165(4) 0.4417(2) 0.1920(2)
C15 C 0.3993(5) 0.3779(3) -0.0239(2)
H13 H 0.3841(13) 0.4114(16) -0.0793(7)
H14 H 0.4313(20) 0.3090(3) -0.0342(14)
H15 H 0.4976(10) 0.4031(18) 0.0012(8)
C16 C 0.0651(6) 0.3027(3) -0.0615(2)
H16 H 0.1537(28) 0.2451(11) -0.0612(9)
H17 H 0.1005(37) 0.3424(7) -0.1130(2)
H18 H -0.0575(11) 0.2837(17) -0.0632(9)
C17 C 0.1577(3) 0.2033(2) 0.4346(2)
C18 C 0.1092(4) 0.1256(2) 0.3944(2)
H19 H 0.1916(4) 0.0949(2) 0.3481(2)
C19 C -0.0613(4) 0.0920(2) 0.4216(2)
C20 C -0.1803(4) 0.1375(2) 0.4896(2)
C21 C -0.1269(4) 0.2141(2) 0.5291(2)
H20 H -0.2080(4) 0.2448(2) 0.5758(2)
C22 C 0.0415(4) 0.2476(2) 0.5028(2)
H21 H 0.0762(4) 0.3001(2) 0.5313(2)
C23 C -0.1114(6) 0.0071(2) 0.3764(2)
H22 H -0.0079(15) -0.0171(13) 0.3328(13)
H23 H -0.2190(24) 0.0272(5) 0.3475(16)
H24 H -0.1399(38) -0.0438(8) 0.4193(4)
C24 C -0.3663(5) 0.1036(3) 0.5212(3)
H25 H -0.3491(5) 0.0398(10) 0.5486(18)
H26 H -0.4331(17) 0.1001(20) 0.4716(4)
H27 H -0.4369(16) 0.1489(12) 0.5638(14)
C25 C 0.6032(4) 0.2557(2) 0.2538(2)
C26 C 0.7823(4) 0.2121(2) 0.2348(2)
H28 H 0.8702(4) 0.2226(2) 0.2712(2)
C27 C 0.8336(4) 0.1534(2) 0.1630(2)
C28 C 0.7045(4) 0.1376(2) 0.1101(2)
C29 C 0.5264(4) 0.1820(2) 0.1309(2)
H29 H 0.4377(4) 0.1713(2) 0.0950(2)
C30 C 0.4737(4) 0.2412(2) 0.2020(2)
H30 H 0.3512(4) 0.2711(2) 0.2147(2)
C31 C 1.0311(5) 0.1093(3) 0.1434(3)
H31 H 1.0859(13) 0.1323(16) 0.0863(9)
H32 H 1.0354(6) 0.0392(3) 0.1431(18)
H33 H 1.0999(10) 0.1278(17) 0.1883(11)
C32 C 0.7541(5) 0.0753(3) 0.0303(2)
H34 H 0.6448(10) 0.0727(16) 0.0022(10)
H35 H 0.8003(35) 0.0102(6) 0.0477(3)
H36 H 0.8491(27) 0.1026(11) -0.0106(8)
Rb1A Rb -0.22636(3) 0.44362(2) 0.44599(2)
Rb1A_2 Rb 0.77364(3) 0.44362(2) 0.44599(2)
O1A O -0.0886(2) 0.43953(13) 0.60826(12)
O2A O 0.5880(2) 0.61022(14) 0.53785(12)
O6A O 0.4309(2) 0.68309(13) 0.67447(12)
C21A C 0.1269(4) 0.7859(2) 0.4709(2)
C22A C -0.0415(4) 0.7524(2) 0.4972(2)
H20A H 0.2080(4) 0.7552(2) 0.4242(2)
H21A H -0.0762(4) 0.6999(2) 0.4687(2)
P1A P -0.17695(8) 0.50038(4) 0.68162(4)
O3A O -0.3669(2) 0.46321(12) 0.72667(11)
O4A O -0.0400(2) 0.48520(12) 0.75277(11)
N1A N -0.2210(3) 0.61225(14) 0.66795(14)
C1A C -0.3910(3) 0.3657(2) 0.7392(2)
C9A C -0.0543(4) 0.5390(2) 0.8288(2)
P2A P -0.37390(9) 0.66072(5) 0.61396(4)
C2A C -0.5533(4) 0.3379(2) 0.7198(2)
C6A C -0.2657(4) 0.3011(2) 0.7733(2)
C10A C -0.2162(4) 0.5555(2) 0.8857(2)
C14A C 0.1046(4) 0.5708(2) 0.8466(2)
H1A H -0.6391(4) 0.3837(2) 0.6968(2)
C3A C -0.5917(4) 0.2431(2) 0.7338(2)
C5A C -0.3037(4) 0.2068(2) 0.7867(2)
H3A H -0.1553(4) 0.3205(2) 0.7875(2)
H10A H -0.3241(4) 0.5319(2) 0.8728(2)
C11A C -0.2225(4) 0.6063(2) 0.9617(2)
C13A C 0.0975(5) 0.6217(2) 0.9223(2)
H12A H 0.2165(4) 0.5583(2) 0.8080(2)
C4A C -0.4646(4) 0.1762(2) 0.7676(2)
C7A C -0.7692(5) 0.2151(2) 0.7111(3)
H2A H -0.2168(4) 0.1616(2) 0.8096(2)
C12A C -0.0628(5) 0.6406(2) 0.9800(2)
C15A C -0.3993(5) 0.6221(3) 1.0239(2)
H11A H 0.2065(5) 0.6442(2) 0.9350(2)
C16A C -0.0651(6) 0.6973(3) 1.0615(2)
H13A H -0.3841(13) 0.5886(16) 1.0793(7)
H14A H -0.4313(20) 0.6910(3) 1.0342(14)
H15A H -0.4976(10) 0.5969(18) 0.9988(8)
C8A C -0.5002(6) 0.0725(2) 0.7832(3)
H4A H -0.7425(5) 0.1702(14) 0.6627(11)
H5A H -0.8355(16) 0.1844(16) 0.7619(5)
H6A H -0.8449(15) 0.2727(3) 0.6941(16)
H7A H -0.6151(21) 0.0697(3) 0.8231(15)
H8A H -0.5099(40) 0.0436(6) 0.7277(4)
H9A H -0.3987(20) 0.0372(5) 0.8089(18)
H16A H -0.1537(28) 0.7549(11) 1.0612(9)
H17A H -0.1005(37) 0.6576(7) 1.1130(2)
H18A H 0.0575(11) 0.7163(17) 1.0632(9)
O2A_2 O -0.4120(2) 0.61022(14) 0.53785(12)
O5A O -0.3318(2) 0.76878(12) 0.59367(13)
O6A_2 O -0.5691(2) 0.68309(13) 0.67447(12)
Rb1_2 Rb -0.77364(3) 0.55638(2) 0.55401(2)
O2_2 O -0.5880(2) 0.38978(14) 0.46215(12)
C25A C -0.6032(4) 0.7443(2) 0.7462(2)
C17A C -0.1577(3) 0.7967(2) 0.5654(2)
C26A C -0.7823(4) 0.7879(2) 0.7652(2)
C30A C -0.4737(4) 0.7588(2) 0.7980(2)
C18A C -0.1092(4) 0.8744(2) 0.6056(2)
H28A H -0.8702(4) 0.7774(2) 0.7288(2)
C27A C -0.8336(4) 0.8466(2) 0.8370(2)
C29A C -0.5264(4) 0.8180(2) 0.8691(2)
H30A H -0.3512(4) 0.7289(2) 0.7853(2)
H19A H -0.1916(4) 0.9051(2) 0.6519(2)
C19A C 0.0613(4) 0.9080(2) 0.5784(2)
C20A C 0.1803(4) 0.8625(2) 0.5104(2)
C24A C 0.3663(5) 0.8964(3) 0.4788(3)
C23A C 0.1114(6) 0.9929(2) 0.6236(2)
H22A H 0.0079(15) 1.0171(13) 0.6672(13)
H23A H 0.2190(24) 0.9728(5) 0.6525(16)
H24A H 0.1399(38) 1.0438(8) 0.5807(4)
H25A H 0.3491(5) 0.9602(10) 0.4514(18)
H26A H 0.4331(17) 0.8999(20) 0.5284(4)
H27A H 0.4369(16) 0.8511(12) 0.4362(14)
C28A C -0.7045(4) 0.8624(2) 0.8899(2)
C31A C -1.0311(5) 0.8907(3) 0.8566(3)
H29A H -0.4377(4) 0.8287(2) 0.9050(2)
C32A C -0.7541(5) 0.9247(3) 0.9697(2)
H31A H -1.0859(13) 0.8677(16) 0.9137(9)
H32A H -1.0354(6) 0.9608(3) 0.8569(18)
H33A H -1.0999(10) 0.8722(17) 0.8117(11)
O6_2 O -0.4309(2) 0.31691(13) 0.32553(12)
H34A H -0.6448(10) 0.9273(16) 0.9978(10)
H35A H -0.8003(35) 0.9898(6) 0.9523(3)
H36A H -0.8491(27) 0.8974(11) 1.0106(8)
loop_
_geom_bond_atom_site_label_1
_geom_bond_atom_site_label_2
_geom_bond_site_symmetry_1
_geom_bond_site_symmetry_2
Rb1 O1 1_555 1_555
P1 O1 1_555 1_555
P2 O2 1_555 1_555
O1 Rb1A 1_555 1_555
O2 Rb1 1_555 1_555
O3 P1 1_555 1_555
O4 P1 1_555 1_555
O5 P2 1_555 1_555
O6 P2 1_555 1_555
N1 P1 1_555 1_555
C1 O3 1_555 1_555
C2 C1 1_555 1_555
H1 C2 1_555 1_555
C3 C2 1_555 1_555
C4 C3 1_555 1_555
C5 C4 1_555 1_555
H2 C5 1_555 1_555
C6 C1 1_555 1_555
H3 C6 1_555 1_555
C7 C3 1_555 1_555
H4 C7 1_555 1_555
H5 C7 1_555 1_555
H6 C7 1_555 1_555
C8 C4 1_555 1_555
H7 C8 1_555 1_555
H8 C8 1_555 1_555
H9 C8 1_555 1_555
C9 O4 1_555 1_555
C10 C9 1_555 1_555
H10 C10 1_555 1_555
C11 C10 1_555 1_555
C12 C11 1_555 1_555
C13 C12 1_555 1_555
H11 C13 1_555 1_555
C14 C9 1_555 1_555
H12 C14 1_555 1_555
C15 C11 1_555 1_555
H13 C15 1_555 1_555
H14 C15 1_555 1_555
H15 C15 1_555 1_555
C16 C12 1_555 1_555
H16 C16 1_555 1_555
H17 C16 1_555 1_555
H18 C16 1_555 1_555
C17 O5 1_555 1_555
C18 C17 1_555 1_555
H19 C18 1_555 1_555
C19 C18 1_555 1_555
C20 C19 1_555 1_555
C21 C20 1_555 1_555
H20 C21 1_555 1_555
C22 C17 1_555 1_555
H21 C22 1_555 1_555
C23 C19 1_555 1_555
H22 C23 1_555 1_555
H23 C23 1_555 1_555
H24 C23 1_555 1_555
C24 C20 1_555 1_555
H25 C24 1_555 1_555
H26 C24 1_555 1_555
H27 C24 1_555 1_555
C25 O6 1_555 1_555
C26 C25 1_555 1_555
H28 C26 1_555 1_555
C27 C26 1_555 1_555
C28 C27 1_555 1_555
C29 C28 1_555 1_555
H29 C29 1_555 1_555
C30 C25 1_555 1_555
H30 C30 1_555 1_555
C31 C27 1_555 1_555
H31 C31 1_555 1_555
H32 C31 1_555 1_555
H33 C31 1_555 1_555
C32 C28 1_555 1_555
H34 C32 1_555 1_555
H35 C32 1_555 1_555
H36 C32 1_555 1_555
Rb1A C21 1_555 1_555
Rb1A_2 O2 1_555 1_555
O1A Rb1 1_555 1_555
O2A Rb1 1_555 1_555
O6A Rb1 1_555 1_555
C21A Rb1 1_555 1_555
C22A Rb1 1_555 1_555
H20A C21A 1_555 1_555
H21A C22A 1_555 1_555
P1A O1A 1_555 1_555
O3A P1A 1_555 1_555
O4A P1A 1_555 1_555
N1A P1A 1_555 1_555
C1A O3A 1_555 1_555
C9A O4A 1_555 1_555
P2A N1A 1_555 1_555
C2A C1A 1_555 1_555
C6A C1A 1_555 1_555
C10A C9A 1_555 1_555
C14A C9A 1_555 1_555
H1A C2A 1_555 1_555
C3A C2A 1_555 1_555
C5A C6A 1_555 1_555
H3A C6A 1_555 1_555
H10A C10A 1_555 1_555
C11A C10A 1_555 1_555
C13A C14A 1_555 1_555
H12A C14A 1_555 1_555
C4A C3A 1_555 1_555
C7A C3A 1_555 1_555
H2A C5A 1_555 1_555
C12A C11A 1_555 1_555
C15A C11A 1_555 1_555
H11A C13A 1_555 1_555
C16A C12A 1_555 1_555
H13A C15A 1_555 1_555
H14A C15A 1_555 1_555
H15A C15A 1_555 1_555
C8A C4A 1_555 1_555
H4A C7A 1_555 1_555
H5A C7A 1_555 1_555
H6A C7A 1_555 1_555
H7A C8A 1_555 1_555
H8A C8A 1_555 1_555
H9A C8A 1_555 1_555
H16A C16A 1_555 1_555
H17A C16A 1_555 1_555
H18A C16A 1_555 1_555
O2A_2 Rb1A 1_555 1_555
O5A P2A 1_555 1_555
O6A_2 P2A 1_555 1_555
Rb1_2 O2A_2 1_555 1_555
O2_2 Rb1A 1_555 1_555
C25A O6A_2 1_555 1_555
C17A C22A 1_555 1_555
C26A C25A 1_555 1_555
C30A C25A 1_555 1_555
C18A C17A 1_555 1_555
H28A C26A 1_555 1_555
C27A C26A 1_555 1_555
C29A C30A 1_555 1_555
H30A C30A 1_555 1_555
H19A C18A 1_555 1_555
C19A C18A 1_555 1_555
C20A C21A 1_555 1_555
C24A C20A 1_555 1_555
C23A C19A 1_555 1_555
H22A C23A 1_555 1_555
H23A C23A 1_555 1_555
H24A C23A 1_555 1_555
H25A C24A 1_555 1_555
H26A C24A 1_555 1_555
H27A C24A 1_555 1_555
C28A C27A 1_555 1_555
C31A C27A 1_555 1_555
H29A C29A 1_555 1_555
C32A C28A 1_555 1_555
H31A C31A 1_555 1_555
H32A C31A 1_555 1_555
H33A C31A 1_555 1_555
O6_2 Rb1A 1_555 1_555
H34A C32A 1_555 1_555
H35A C32A 1_555 1_555
H36A C32A 1_555 1_555
P2 N1 1_555 1_555
O6 Rb1A_2 1_555 1_555
C5 C6 1_555 1_555
C13 C14 1_555 1_555
C21 C22 1_555 1_555
C22 Rb1A 1_555 1_555
C29 C30 1_555 1_555
Rb1A O1A 1_555 1_555
Rb1A_2 O2A 1_555 1_555
C21A C22A 1_555 1_555
P2A O2A_2 1_555 1_555
C5A C4A 1_555 1_555
C13A C12A 1_555 1_555
O5A C17A 1_555 1_555
O6A_2 Rb1_2 1_555 1_555
Rb1_2 O2_2 1_555 1_555
C29A C28A 1_555 1_555
C19A C20A 1_555 1_555

#END
