
#######################################################################
#
#                 Cambridge Crystallographic Data Centre
#                                CCDC 
#
#######################################################################
#
# If this CIF has been generated from an entry in the Cambridge 
# Structural Database, then it will include bibliographic, chemical, 
# crystal, experimental, refinement or atomic coordinate data resulting 
# from the CCDC's data processing and validation procedures.
#
#######################################################################

data_XEJJOM
_symmetry_cell_setting           triclinic
_symmetry_space_group_name_H-M   'P -1'
_symmetry_Int_Tables_number      2
_space_group_name_Hall           '-P 1'
loop_
_symmetry_equiv_pos_site_id
_symmetry_equiv_pos_as_xyz
1 x,y,z
2 -x,-y,-z
_cell_length_a                   7.648(4)
_cell_length_b                   9.676(4)
_cell_length_c                   10.562(5)
_cell_angle_alpha                106.672(14)
_cell_angle_beta                 105.283(16)
_cell_angle_gamma                100.706(14)
_cell_volume                     692.776
loop_
_atom_site_label
_atom_site_type_symbol
_atom_site_fract_x
_atom_site_fract_y
_atom_site_fract_z
Dy1 Dy 0.24668(3) 0.032076(19) 0.45167(2)
O1 O 0.5985(3) 0.1556(2) 0.5839(3)
O2 O 0.4120(3) 0.2971(2) 0.5583(3)
O3 O 0.9344(3) 0.8616(2) 1.4036(3)
O4 O 1.0426(4) 0.8319(2) 1.2277(3)
O5 O 0.6077(3) 0.9317(2) 0.7094(3)
O6 O 0.3150(4) 0.9601(3) 0.6551(3)
O7 O 0.0384(4) 0.1431(2) 0.3248(3)
C1 C 0.6915(5) 0.5414(3) 0.7941(4)
C2 C 0.7407(5) 0.5535(3) 0.9334(4)
H1 H 0.8143 0.4926 0.9637
C3 C 0.6869(5) 0.6508(3) 1.0303(4)
C4 C 0.5764(5) 0.7357(4) 0.9824(4)
H2 H 0.5367 0.8024 1.0469
C5 C 0.5215(5) 0.7269(3) 0.8433(4)
C6 C 0.5829(5) 0.6293(3) 0.7503(4)
H3 H 0.5495 0.6231 0.6552
C7 C 0.7404(5) 0.4253(3) 0.6898(4)
H4 H 0.8482 0.3967 0.7404
H5 H 0.7799 0.4697 0.6246
C8 C 0.5735(6) 0.2850(4) 0.6056(4)
C9 C 0.7399(6) 0.6657(4) 1.1803(4)
H6 H 0.7615 0.5705 1.1887
H7 H 0.6332 0.6818 1.2135
C10 C 0.9160(5) 0.7944(4) 1.2744(4)
C11 C 0.3866(6) 0.8102(4) 0.7936(5)
H8 H 0.3664 0.8752 0.8766
H9 H 0.2636 0.7354 0.7334
C12 C 0.4429(5) 0.9076(4) 0.7125(4)
Dy1A Dy 0.75332(3) -0.032076(19) 0.54833(2)
Dy1_2 Dy 1.24668(3) 1.032076(19) 1.45167(2)
Dy1A_2 Dy 0.75332(3) 0.967924(19) 1.54833(2)
Dy1A_3 Dy 0.75332(3) 0.967924(19) 0.54833(2)
Dy1_3 Dy 0.24668(3) 1.032076(19) 0.45167(2)
O1A O 0.4015(3) -0.1556(2) 0.4161(3)
O3_2 O -0.0656(3) -0.1384(2) 0.4036(3)
O3A O 0.0656(3) 0.1384(2) 0.5964(3)
O4_2 O 0.0426(4) -0.1681(2) 0.2277(3)
O5A O 0.3923(3) 0.0683(2) 0.2906(3)
O6_2 O 0.3150(4) -0.0399(3) 0.6551(3)
O8 O 0.0737(5) 0.8711(3) 0.9638(4)
O9 O 0.1368(14) 0.4596(9) 0.5553(11)
loop_
_geom_bond_atom_site_label_1
_geom_bond_atom_site_label_2
_geom_bond_site_symmetry_1
_geom_bond_site_symmetry_2
Dy1 O1 1_555 1_555
O1 C8 1_555 1_555
O2 Dy1 1_555 1_555
O3 C10 1_555 1_555
O4 C10 1_555 1_555
O5 C12 1_555 1_555
O6 C12 1_555 1_555
O7 Dy1 1_555 1_555
C1 C2 1_555 1_555
C2 H1 1_555 1_555
C3 C2 1_555 1_555
C4 C3 1_555 1_555
H2 C4 1_555 1_555
C5 C4 1_555 1_555
C6 C1 1_555 1_555
H3 C6 1_555 1_555
C7 C1 1_555 1_555
H4 C7 1_555 1_555
H5 C7 1_555 1_555
C8 O2 1_555 1_555
C9 C3 1_555 1_555
H6 C9 1_555 1_555
H7 C9 1_555 1_555
C10 C9 1_555 1_555
C11 C5 1_555 1_555
H8 C11 1_555 1_555
H9 C11 1_555 1_555
C12 C11 1_555 1_555
Dy1A O1 1_555 1_555
Dy1_2 O3 1_555 1_555
Dy1A_2 O3 1_555 1_555
Dy1A_3 O5 1_555 1_555
Dy1_3 O6 1_555 1_555
O1A Dy1 1_555 1_555
O3_2 Dy1 1_555 1_555
O3A Dy1 1_555 1_555
O4_2 Dy1 1_555 1_555
O5A Dy1 1_555 1_555
O6_2 Dy1 1_555 1_555
O4 Dy1_2 1_555 1_555
C5 C6 1_555 1_555
C7 C8 1_555 1_555
Dy1A O1A 1_555 1_555

#END
