
#######################################################################
#
#                 Cambridge Crystallographic Data Centre
#                                CCDC 
#
#######################################################################
#
# If this CIF has been generated from an entry in the Cambridge 
# Structural Database, then it will include bibliographic, chemical, 
# crystal, experimental, refinement or atomic coordinate data resulting 
# from the CCDC's data processing and validation procedures.
#
#######################################################################

data_XEJNEH
_symmetry_cell_setting           triclinic
_symmetry_space_group_name_H-M   'P -1'
_symmetry_Int_Tables_number      2
_space_group_name_Hall           '-P 1'
loop_
_symmetry_equiv_pos_site_id
_symmetry_equiv_pos_as_xyz
1 x,y,z
2 -x,-y,-z
_cell_length_a                   13.6916(11)
_cell_length_b                   15.9050(12)
_cell_length_c                   17.5187(13)
_cell_angle_alpha                96.560(1)
_cell_angle_beta                 109.334(1)
_cell_angle_gamma                114.127(1)
_cell_volume                     3144.35
loop_
_atom_site_label
_atom_site_type_symbol
_atom_site_fract_x
_atom_site_fract_y
_atom_site_fract_z
Eu1 Eu 0.96297(2) 0.690071(18) 0.729834(17)
C1 C 1.0614(4) 0.8947(3) 0.6636(3)
C2 C 1.1699(4) 0.9637(3) 0.6636(3)
C3 C 1.1847(4) 1.0442(3) 0.6395(3)
H1 H 1.2571 1.0861 0.6411
C4 C 1.0910(5) 1.0637(4) 0.6124(3)
C5 C 0.9845(5) 1.0034(4) 0.6116(3)
H2 H 0.9223 1.0172 0.5940
C6 C 0.9711(4) 0.9220(3) 0.6372(3)
C7 C 1.2074(5) -0.0401(5) 0.8804(4)
H3 H 1.1966 -0.1022 0.8777
C8 C 1.1152(5) -0.0210(4) 0.8738(3)
C9 C 1.1311(6) 0.0717(5) 0.8796(4)
C10 C 1.3148(6) 0.0317(7) 0.8907(4)
H4 H 1.3773 0.0192 0.8971
C11 C 1.3273(7) 0.1207(7) 0.8914(5)
H5 H 1.3988 0.1682 0.8959
C12 C 1.2419(8) 0.1443(5) 0.8858(5)
H6 H 1.2542 0.2063 0.8860
C13 C 0.5888(4) 0.4900(4) 0.6942(3)
C14 C 0.7123(4) 0.5507(3) 0.7439(3)
C15 C 0.7562(4) 0.5242(3) 0.8191(3)
C16 C 0.6867(4) 0.4469(3) 0.8387(3)
H7 H 0.7187 0.4328 0.8881
C17 C 0.5713(4) 0.3914(3) 0.7856(3)
C18 C 0.5195(4) 0.4119(3) 0.7125(3)
H8 H 0.4401 0.3736 0.6770
C19 C 1.2331(4) 0.7094(3) 0.8215(3)
C20 C 1.3462(5) 0.6586(3) 0.7615(3)
H9 H 1.3566 0.6384 0.7143
C21 C 1.3200(4) 0.7213(4) 0.9017(3)
C22 C 1.4219(5) 0.6692(4) 0.8408(4)
C23 C 1.4100(5) 0.7016(4) 0.9119(4)
H10 H 1.4626 0.7097 0.9655
C24 C 1.2541(4) 0.6782(3) 0.7525(3)
C25 C 0.7030(6) 0.3876(4) 0.5846(4)
H11 H 0.7490 0.4411 0.5720
C26 C 0.7522(4) 0.3704(3) 0.6603(3)
C27 C 0.6809(5) 0.2893(4) 0.6776(4)
C28 C 0.5646(5) 0.2292(4) 0.6205(5)
H12 H 0.5171 0.1751 0.6316
C29 C 0.6756(6) 0.1822(4) 0.7668(5)
H13 H 0.6439 0.1308 0.7158
H14 H 0.6120 0.1761 0.7826
C30 C 0.8748(4) 0.4417(3) 0.7189(3)
C31 C 1.0528(4) 0.4815(4) 0.8452(3)
H15 H 1.0498 0.4839 0.8999
H16 H 1.0763 0.5457 0.8387
C32 C 1.1448(4) 0.4530(3) 0.8438(3)
C33 C 1.1502(6) 0.4202(4) 0.7700(4)
H17 H 1.0947 0.4136 0.7184
C34 C 1.2298(5) 0.4628(4) 0.9190(4)
H18 H 1.2273 0.4842 0.9697
C35 C 0.7706(7) 0.1766(5) 0.8373(5)
H19 H 0.8033 0.2304 0.8866
H20 H 0.7351 0.1179 0.8520
C36 C 0.8243(6) 0.0927(4) 0.7471(4)
H21 H 0.7582 0.0388 0.7485
H22 H 0.8870 0.0759 0.7559
C37 C 0.7873(5) 0.1084(4) 0.6611(4)
C38 C 0.8545(6) 0.1905(5) 0.6472(4)
H23 H 0.9239 0.2373 0.6918
C39 C 0.6872(6) 0.0385(5) 0.5934(5)
H24 H 0.6412 -0.0194 0.6006
C40 C 0.8230(8) 0.2062(6) 0.5696(6)
H25 H 0.8700 0.2635 0.5622
C41 C 0.7244(10) 0.1388(9) 0.5043(6)
H26 H 0.7034 0.1499 0.4518
C42 C 0.6544(8) 0.0542(7) 0.5137(5)
H27 H 0.5860 0.0078 0.4681
C43 C 0.8018(5) -0.1775(4) 0.8509(5)
H28 H 0.7836 -0.2302 0.8056
H29 H 0.8072 -0.1992 0.9010
C44 C 1.0008(5) -0.1068(4) 0.8578(3)
C45 C 1.2375(8) 0.3970(6) 0.7722(6)
H30 H 1.2387 0.3724 0.7220
C46 C 1.3227(8) 0.4099(6) 0.8483(8)
H31 H 1.3834 0.3968 0.8496
C47 C 1.3178(6) 0.4416(6) 0.9206(6)
H32 H 1.3745 0.4493 0.9721
C48 C 0.5882(8) 0.3279(6) 0.5276(5)
H33 H 0.5574 0.3399 0.4768
C49 C 0.5207(7) 0.2513(6) 0.5469(5)
H34 H 0.4423 0.2122 0.5093
C50 C 0.6940(4) -0.0998(3) 0.8893(2)
H35 H 0.7447 -0.0828 0.9458
C51 C 0.7068(3) -0.1511(3) 0.8269(3)
C52 C 0.6309(5) -0.1764(3) 0.7425(3)
H36 H 0.6395 -0.2107 0.7008
C53 C 0.5422(4) -0.1505(4) 0.7205(3)
H37 H 0.4914 -0.1674 0.6641
C54 C 0.5293(4) -0.0992(4) 0.7829(5)
H38 H 0.4699 -0.0818 0.7682
C55 C 0.6052(5) -0.0738(3) 0.8673(4)
H39 H 0.5966 -0.0395 0.9090
C56 C 0.9582(9) 0.1870(6) 0.8975(5)
H40 H 0.9847 0.2468 0.9385
H41 H 0.9228 0.1347 0.9194
C57 C 0.8564(6) 0.6432(5) 0.5087(4)
H42 H 0.9350 0.6968 0.5284
H43 H 0.8010 0.6616 0.4744
C58 C 0.8478(8) 0.5597(7) 0.4579(5)
H44 H 0.9021 0.5412 0.4921
H45 H 0.8664 0.5751 0.4114
H46 H 0.7691 0.5074 0.4367
C59 C 1.0606(8) 0.1856(5) 0.8902(5)
H47 H 1.0715 0.2091 0.8434
H48 H 1.1307 0.2269 0.9416
N1 N 1.1770(4) 0.6645(3) 0.6671(3)
N2 N 1.3046(5) 0.7542(5) 0.9766(3)
N3 N 0.5293(5) 0.5127(4) 0.6201(3)
N4 N 0.8783(4) 0.5799(3) 0.8806(3)
N5 N 0.4998(5) 0.3084(4) 0.8064(4)
N6 N 1.2728(4) 0.9484(4) 0.6901(3)
N7 N 1.1063(6) 1.1490(4) 0.5848(4)
N8 N 0.8551(4) 0.8605(3) 0.6341(3)
N9 N 1.5171(5) 0.6455(4) 0.8507(4)
N10 N 0.8655(5) 0.1780(3) 0.8170(3)
N11 N 0.9353(3) 0.4163(3) 0.7796(3)
H49 H 0.9028 0.3574 0.7801
N12 N 0.9158(4) -0.0951(3) 0.8680(3)
H50 H 0.9271 -0.0377 0.8851
O1 O 0.7755(3) 0.6205(2) 0.7247(2)
O2 O 1.0765(3) 0.6530(3) 0.6516(2)
O3 O 1.1504(3) 0.7271(2) 0.8187(2)
O4 O 0.9202(3) 0.5243(2) 0.7112(2)
O5 O 0.8314(3) 0.6225(3) 0.5805(2)
O6 O 1.0498(3) 0.8197(2) 0.6858(2)
O7 O 0.9523(3) 0.6387(2) 0.8633(2)
O8 O 0.9898(3) -0.1886(2) 0.8366(2)
O9 O 1.2126(4) 0.6638(3) 0.6123(2)
O10 O 1.3587(6) 0.8365(4) 1.0134(4)
O11 O 1.2362(5) 0.6922(4) 0.9964(3)
O12 O 0.9052(4) 0.5650(4) 0.9493(3)
O13 O 0.4012(4) 0.2537(3) 0.7549(3)
O14 O 0.5848(5) 0.5681(4) 0.5908(3)
O15 O 1.2620(4) 0.8710(4) 0.6984(4)
O16 O 1.3673(3) 1.0126(3) 0.7008(3)
O17 O 1.2011(4) 1.1990(4) 0.5842(4)
O18 O 1.0214(5) 1.1619(4) 0.5582(4)
O19 O 0.7774(4) 0.8770(4) 0.6009(4)
O20 O 0.8396(4) 0.7929(3) 0.6636(3)
O21 O 0.4253(4) 0.4729(5) 0.5886(4)
O22 O 1.5233(4) 0.6134(4) 0.7875(4)
O23 O 1.5864(4) 0.6604(4) 0.9221(4)
O24 O 0.5429(4) 0.2999(4) 0.8760(4)
O25 O 0.7297(3) 0.2746(2) 0.7531(2)
O26 O 1.0411(4) 0.0887(3) 0.8764(3)
H51 H 0.762(3) 0.583(3) 0.586(3)
Eu1_2 Eu 0.96297(2) -0.309929(18) 0.729834(17)
O8_2 O 0.9898(3) 0.8114(2) 0.8366(2)
loop_
_geom_bond_atom_site_label_1
_geom_bond_atom_site_label_2
_geom_bond_site_symmetry_1
_geom_bond_site_symmetry_2
Eu1 O1 1_555 1_555
C1 C2 1_555 1_555
C2 C3 1_555 1_555
C3 H1 1_555 1_555
C4 C3 1_555 1_555
C5 C4 1_555 1_555
H2 C5 1_555 1_555
C6 C1 1_555 1_555
C7 H3 1_555 1_555
C8 C7 1_555 1_555
C9 C8 1_555 1_555
C10 C7 1_555 1_555
H4 C10 1_555 1_555
C11 C10 1_555 1_555
H5 C11 1_555 1_555
C12 C9 1_555 1_555
H6 C12 1_555 1_555
C13 C14 1_555 1_555
C14 C15 1_555 1_555
C15 C16 1_555 1_555
C16 H7 1_555 1_555
C17 C16 1_555 1_555
C18 C13 1_555 1_555
H8 C18 1_555 1_555
C19 C21 1_555 1_555
C20 H9 1_555 1_555
C21 C23 1_555 1_555
C22 C20 1_555 1_555
C23 C22 1_555 1_555
H10 C23 1_555 1_555
C24 C19 1_555 1_555
C25 H11 1_555 1_555
C26 C25 1_555 1_555
C27 C26 1_555 1_555
C28 C27 1_555 1_555
H12 C28 1_555 1_555
C29 H13 1_555 1_555
H14 C29 1_555 1_555
C30 C26 1_555 1_555
C31 H15 1_555 1_555
H16 C31 1_555 1_555
C32 C31 1_555 1_555
C33 C32 1_555 1_555
H17 C33 1_555 1_555
C34 C32 1_555 1_555
H18 C34 1_555 1_555
C35 C29 1_555 1_555
H19 C35 1_555 1_555
H20 C35 1_555 1_555
C36 H21 1_555 1_555
H22 C36 1_555 1_555
C37 C36 1_555 1_555
C38 C37 1_555 1_555
H23 C38 1_555 1_555
C39 C37 1_555 1_555
H24 C39 1_555 1_555
C40 C38 1_555 1_555
H25 C40 1_555 1_555
C41 C40 1_555 1_555
H26 C41 1_555 1_555
C42 C39 1_555 1_555
H27 C42 1_555 1_555
C43 H28 1_555 1_555
H29 C43 1_555 1_555
C44 C8 1_555 1_555
C45 C33 1_555 1_555
H30 C45 1_555 1_555
C46 C45 1_555 1_555
H31 C46 1_555 1_555
C47 C34 1_555 1_555
H32 C47 1_555 1_555
C48 C25 1_555 1_555
H33 C48 1_555 1_555
C49 C28 1_555 1_555
H34 C49 1_555 1_555
C50 H35 1_555 1_555
C51 C43 1_555 1_555
C52 C51 1_555 1_555
H36 C52 1_555 1_555
C53 C52 1_555 1_555
H37 C53 1_555 1_555
C54 C53 1_555 1_555
H38 C54 1_555 1_555
C55 C50 1_555 1_555
H39 C55 1_555 1_555
C56 H40 1_555 1_555
H41 C56 1_555 1_555
C57 H42 1_555 1_555
H43 C57 1_555 1_555
C58 C57 1_555 1_555
H44 C58 1_555 1_555
H45 C58 1_555 1_555
H46 C58 1_555 1_555
C59 C56 1_555 1_555
H47 C59 1_555 1_555
H48 C59 1_555 1_555
N1 C24 1_555 1_555
N2 C21 1_555 1_555
N3 C13 1_555 1_555
N4 C15 1_555 1_555
N5 C17 1_555 1_555
N6 C2 1_555 1_555
N7 C4 1_555 1_555
N8 C6 1_555 1_555
N9 C22 1_555 1_555
N10 C35 1_555 1_555
N11 C30 1_555 1_555
H49 N11 1_555 1_555
N12 C43 1_555 1_555
H50 N12 1_555 1_555
O1 C14 1_555 1_555
O2 Eu1 1_555 1_555
O3 Eu1 1_555 1_555
O4 Eu1 1_555 1_555
O5 Eu1 1_555 1_555
O6 Eu1 1_555 1_555
O7 Eu1 1_555 1_555
O8 C44 1_555 1_555
O9 N1 1_555 1_555
O10 N2 1_555 1_555
O11 N2 1_555 1_555
O12 N4 1_555 1_555
O13 N5 1_555 1_555
O14 N3 1_555 1_555
O15 N6 1_555 1_555
O16 N6 1_555 1_555
O17 N7 1_555 1_555
O18 N7 1_555 1_555
O19 N8 1_555 1_555
O20 Eu1 1_555 1_555
O21 N3 1_555 1_555
O22 N9 1_555 1_555
O23 N9 1_555 1_555
O24 N5 1_555 1_555
O25 C27 1_555 1_555
O26 C9 1_555 1_555
H51 O5 1_555 1_555
Eu1_2 O8 1_555 1_555
O8_2 Eu1 1_555 1_555
C1 O6 1_555 1_555
C5 C6 1_555 1_555
C11 C12 1_555 1_555
C17 C18 1_555 1_555
C19 O3 1_555 1_555
C20 C24 1_555 1_555
C29 O25 1_555 1_555
C30 O4 1_555 1_555
C31 N11 1_555 1_555
C36 N10 1_555 1_555
C41 C42 1_555 1_555
C44 N12 1_555 1_555
C46 C47 1_555 1_555
C48 C49 1_555 1_555
C50 C51 1_555 1_555
C54 C55 1_555 1_555
C56 N10 1_555 1_555
C57 O5 1_555 1_555
C59 O26 1_555 1_555
N1 O2 1_555 1_555
N4 O7 1_555 1_555
N8 O20 1_555 1_555

#END
