
#######################################################################
#
#                 Cambridge Crystallographic Data Centre
#                                CCDC 
#
#######################################################################
#
# If this CIF has been generated from an entry in the Cambridge 
# Structural Database, then it will include bibliographic, chemical, 
# crystal, experimental, refinement or atomic coordinate data resulting 
# from the CCDC's data processing and validation procedures.
#
#######################################################################

data_XEJNOR
_symmetry_cell_setting           triclinic
_symmetry_space_group_name_H-M   'P -1'
_symmetry_Int_Tables_number      2
_space_group_name_Hall           '-P 1'
loop_
_symmetry_equiv_pos_site_id
_symmetry_equiv_pos_as_xyz
1 x,y,z
2 -x,-y,-z
_cell_length_a                   13.7022(10)
_cell_length_b                   15.7923(11)
_cell_length_c                   17.4802(12)
_cell_angle_alpha                96.643(1)
_cell_angle_beta                 108.935(1)
_cell_angle_gamma                114.149(1)
_cell_volume                     3126.56
loop_
_atom_site_label
_atom_site_type_symbol
_atom_site_fract_x
_atom_site_fract_y
_atom_site_fract_z
C1 C 1.1449(3) 0.4502(3) 0.8443(3)
C2 C 1.1509(4) 0.4183(3) 0.7702(3)
H1 H 1.0956 0.4117 0.7188
C3 C 1.2289(4) 0.4598(3) 0.9186(3)
H2 H 1.2261 0.4813 0.9692
C4 C 1.2389(5) 0.3961(4) 0.7720(4)
H3 H 1.2420 0.3736 0.7218
C5 C 1.3177(4) 0.4384(4) 0.9206(4)
H4 H 1.3739 0.4455 0.9718
C6 C 1.3212(5) 0.4070(4) 0.8471(5)
H5 H 1.3808 0.3926 0.8476
C7 C 1.1662(3) 0.9637(3) 0.6675(2)
C8 C 1.0566(3) 0.8952(3) 0.6669(2)
C9 C 0.9669(3) 0.9231(3) 0.6367(2)
C10 C 0.9820(4) 1.0044(3) 0.6106(2)
H6 H 0.9201 1.0180 0.5905
C11 C 1.0910(4) 1.0655(3) 0.6148(3)
C12 C 0.8533(4) 0.6498(3) 0.5153(3)
H7 H 0.9293 0.7056 0.5316
H8 H 0.7936 0.6660 0.4846
C13 C 1.1821(4) 1.0445(3) 0.6425(2)
H9 H 1.2547 1.0859 0.6440
C14 C 1.1082(4) -0.0212(3) 0.8754(3)
C15 C 1.2033(4) -0.0354(3) 0.8826(3)
H10 H 1.1956 -0.0972 0.8795
C16 C 1.1231(5) 0.0722(4) 0.8820(3)
C17 C 1.3204(6) 0.1292(5) 0.8966(4)
H11 H 1.3911 0.1792 0.9022
C18 C 1.3095(4) 0.0394(5) 0.8943(3)
H12 H 1.3731 0.0286 0.9006
C19 C 1.2300(5) 0.1473(4) 0.8906(4)
H13 H 1.2389 0.2092 0.8923
C20 C 0.7581(3) 0.3749(3) 0.6588(3)
C21 C 0.6833(4) 0.2930(3) 0.6732(3)
C22 C 0.7158(4) 0.3949(3) 0.5839(3)
H14 H 0.7652 0.4488 0.5733
C23 C 0.5672(4) 0.2361(3) 0.6142(4)
H15 H 0.5161 0.1828 0.6244
C24 C 0.5294(5) 0.2599(4) 0.5408(4)
H16 H 0.4522 0.2219 0.5014
C25 C 0.6024(5) 0.3375(4) 0.5246(3)
H17 H 0.5762 0.3517 0.4741
C26 C 0.5959(3) 0.4908(3) 0.6963(2)
C27 C 0.7199(3) 0.5516(3) 0.7470(2)
C28 C 0.5767(4) 0.3916(3) 0.7870(3)
C29 C 0.7620(3) 0.5250(3) 0.8209(2)
C30 C 0.5272(3) 0.4128(3) 0.7155(3)
H18 H 0.4479 0.3747 0.6805
C31 C 0.6928(3) 0.4471(3) 0.8402(2)
H19 H 0.7244 0.4321 0.8891
C32 C 0.5393(6) -0.1555(6) 0.7215(5)
H20 H 0.4873 -0.1747 0.6653
C33 C 0.6260(5) -0.1805(4) 0.7418(4)
H21 H 0.6349 -0.2146 0.6998
C34 C 0.7005(4) -0.1550(3) 0.8248(3)
C35 C 0.6858(4) -0.1049(3) 0.8849(3)
H22 H 0.7350 -0.0883 0.9416
C36 C 0.5978(6) -0.0784(4) 0.8624(5)
H23 H 0.5883 -0.0434 0.9034
C37 C 0.5264(7) -0.1040(6) 0.7801(7)
H24 H 0.4679 -0.0858 0.7641
C38 C 1.2292(3) 0.7092(3) 0.8217(2)
C39 C 1.2475(3) 0.6759(3) 0.7506(3)
C40 C 1.3388(4) 0.6553(3) 0.7588(3)
H25 H 1.3490 0.6350 0.7111
C41 C 1.4133(3) 0.6649(3) 0.8366(3)
C42 C 1.3151(3) 0.7205(3) 0.8996(3)
C43 C 1.4042(3) 0.6990(3) 0.9091(3)
H26 H 1.4569 0.7070 0.9623
C44 C 0.8803(3) 0.4450(3) 0.7196(3)
C45 C 1.0525(3) 0.4786(3) 0.8466(3)
H27 H 1.0469 0.4775 0.9004
H28 H 1.0778 0.5445 0.8433
C46 C 0.9974(3) -0.1086(3) 0.8575(3)
C47 C 0.7971(4) -0.1822(3) 0.8502(3)
H29 H 0.8013 -0.2040 0.9003
H30 H 0.7800 -0.2352 0.8053
C48 C 0.7842(4) 0.1055(3) 0.6568(3)
C49 C 0.8197(4) 0.0898(3) 0.7433(3)
H31 H 0.7544 0.0342 0.7442
H32 H 0.8843 0.0752 0.7537
C50 C 0.8521(4) 0.1878(4) 0.6424(4)
H33 H 0.9212 0.2349 0.6868
C51 C 0.8224(6) 0.2035(5) 0.5655(5)
H34 H 0.8705 0.2610 0.5582
C52 C 0.7226(8) 0.1357(6) 0.4988(5)
H35 H 0.7014 0.1467 0.4462
C53 C 0.6543(6) 0.0513(6) 0.5105(4)
H36 H 0.5867 0.0038 0.4653
C54 C 0.6848(5) 0.0358(4) 0.5893(4)
H37 H 0.6377 -0.0221 0.5966
C55 C 0.7558(5) 0.1725(4) 0.8282(4)
H38 H 0.7856 0.2250 0.8782
H39 H 0.7170 0.1122 0.8404
C56 C 0.6679(4) 0.1811(3) 0.7579(4)
H40 H 0.6389 0.1310 0.7064
H41 H 0.6022 0.1747 0.7711
C57 C 0.8446(4) 0.5666(4) 0.4592(3)
H42 H 0.8963 0.5448 0.4913
H43 H 0.8665 0.5864 0.4148
H44 H 0.7654 0.5148 0.4352
C58 C 0.9422(7) 0.1829(4) 0.8936(4)
H45 H 0.9646 0.2419 0.9345
H46 H 0.9042 0.1289 0.9135
C59 C 1.0460(6) 0.1841(4) 0.8920(4)
H47 H 1.1122 0.2253 0.9452
H48 H 1.0620 0.2099 0.8471
Er1 Er 0.966324(16) 0.691347(13) 0.733535(13)
N1 N 1.3032(4) 0.7555(4) 0.9761(3)
N2 N 1.1701(3) 0.6629(2) 0.6662(2)
N3 N 0.8493(3) 0.8618(3) 0.6308(3)
N4 N 1.2678(3) 0.9465(3) 0.6952(2)
N5 N 1.1090(4) 1.1526(3) 0.5877(3)
N6 N 0.8843(3) 0.5812(3) 0.8823(2)
N7 N 0.5054(4) 0.3083(3) 0.8082(3)
N8 N 0.5373(3) 0.5142(3) 0.6223(3)
N9 N 1.5093(4) 0.6408(3) 0.8456(3)
N10 N 0.9371(3) 0.4162(2) 0.7792(2)
H49 H 0.9028 0.3563 0.7777
N11 N 0.8555(4) 0.1748(3) 0.8118(3)
N12 N 0.9105(3) -0.0991(2) 0.8677(2)
H50 H 0.9208 -0.0417 0.8853
O1 O 1.0728(2) 0.65680(19) 0.65234(17)
O2 O 1.1467(2) 0.72862(17) 0.81944(16)
O3 O 1.0417(2) 0.82008(18) 0.68961(17)
O4 O 0.7825(2) 0.62140(18) 0.72620(16)
O5 O 0.8389(3) 0.6288(2) 0.5898(2)
O6 O 0.9287(2) 0.52962(18) 0.71478(16)
O7 O 0.9874(2) -0.19060(19) 0.83548(17)
O8 O 0.9577(2) 0.64087(19) 0.86510(17)
O9 O 1.3624(3) 1.0119(2) 0.7065(2)
O10 O 1.2032(3) 0.6583(2) 0.6094(2)
O11 O 1.2344(3) 0.6953(3) 0.9961(2)
O12 O 1.3575(4) 0.8384(3) 1.0123(3)
O13 O 1.2557(3) 0.8692(3) 0.7050(3)
O14 O 0.7714(3) 0.8719(3) 0.5888(4)
O15 O 0.8329(3) 0.7998(3) 0.6665(3)
O16 O 1.2055(3) 1.2049(3) 0.5919(3)
O17 O 0.4076(3) 0.2527(2) 0.7565(2)
O18 O 0.9105(3) 0.5658(3) 0.9511(2)
O19 O 0.5942(3) 0.5684(3) 0.5914(2)
O20 O 0.4326(3) 0.4773(3) 0.5934(2)
O21 O 0.5462(3) 0.3000(3) 0.8780(3)
O22 O 1.0257(4) 1.1658(3) 0.5573(3)
O23 O 1.5776(3) 0.6552(3) 0.9169(3)
O24 O 1.5122(3) 0.6067(3) 0.7813(3)
O25 O 0.7267(2) 0.27552(19) 0.7478(2)
O26 O 1.0298(3) 0.0864(2) 0.8780(2)
H51 H 0.777(3) 0.610(2) 0.588(2)
Er1_2 Er 0.966324(16) -0.308653(13) 0.733535(13)
O7_2 O 0.9874(2) 0.80940(19) 0.83548(17)
loop_
_geom_bond_atom_site_label_1
_geom_bond_atom_site_label_2
_geom_bond_site_symmetry_1
_geom_bond_site_symmetry_2
C1 C2 1_555 1_555
C2 H1 1_555 1_555
C3 C1 1_555 1_555
H2 C3 1_555 1_555
C4 C2 1_555 1_555
H3 C4 1_555 1_555
C5 C3 1_555 1_555
H4 C5 1_555 1_555
C6 C4 1_555 1_555
H5 C6 1_555 1_555
C7 C8 1_555 1_555
C8 C9 1_555 1_555
C9 C10 1_555 1_555
C10 H6 1_555 1_555
C11 C10 1_555 1_555
C12 H7 1_555 1_555
H8 C12 1_555 1_555
C13 C7 1_555 1_555
H9 C13 1_555 1_555
C14 C15 1_555 1_555
C15 H10 1_555 1_555
C16 C14 1_555 1_555
C17 H11 1_555 1_555
C18 C15 1_555 1_555
H12 C18 1_555 1_555
C19 C16 1_555 1_555
H13 C19 1_555 1_555
C20 C21 1_555 1_555
C21 C23 1_555 1_555
C22 C20 1_555 1_555
H14 C22 1_555 1_555
C23 H15 1_555 1_555
C24 C23 1_555 1_555
H16 C24 1_555 1_555
C25 C22 1_555 1_555
H17 C25 1_555 1_555
C26 C27 1_555 1_555
C27 C29 1_555 1_555
C28 C30 1_555 1_555
C29 C31 1_555 1_555
C30 C26 1_555 1_555
H18 C30 1_555 1_555
C31 C28 1_555 1_555
H19 C31 1_555 1_555
C32 H20 1_555 1_555
C33 C32 1_555 1_555
H21 C33 1_555 1_555
C34 C33 1_555 1_555
C35 C34 1_555 1_555
H22 C35 1_555 1_555
C36 C35 1_555 1_555
H23 C36 1_555 1_555
C37 C32 1_555 1_555
H24 C37 1_555 1_555
C38 C39 1_555 1_555
C39 C40 1_555 1_555
C40 H25 1_555 1_555
C41 C40 1_555 1_555
C42 C38 1_555 1_555
C43 C41 1_555 1_555
H26 C43 1_555 1_555
C44 C20 1_555 1_555
C45 C1 1_555 1_555
H27 C45 1_555 1_555
H28 C45 1_555 1_555
C46 C14 1_555 1_555
C47 C34 1_555 1_555
H29 C47 1_555 1_555
H30 C47 1_555 1_555
C48 C49 1_555 1_555
C49 H31 1_555 1_555
H32 C49 1_555 1_555
C50 C48 1_555 1_555
H33 C50 1_555 1_555
C51 C50 1_555 1_555
H34 C51 1_555 1_555
C52 C51 1_555 1_555
H35 C52 1_555 1_555
C53 C52 1_555 1_555
H36 C53 1_555 1_555
C54 C48 1_555 1_555
H37 C54 1_555 1_555
C55 H38 1_555 1_555
H39 C55 1_555 1_555
C56 C55 1_555 1_555
H40 C56 1_555 1_555
H41 C56 1_555 1_555
C57 C12 1_555 1_555
H42 C57 1_555 1_555
H43 C57 1_555 1_555
H44 C57 1_555 1_555
C58 H45 1_555 1_555
H46 C58 1_555 1_555
C59 C58 1_555 1_555
H47 C59 1_555 1_555
H48 C59 1_555 1_555
Er1 O1 1_555 1_555
N1 C42 1_555 1_555
N2 C39 1_555 1_555
N3 C9 1_555 1_555
N4 C7 1_555 1_555
N5 C11 1_555 1_555
N6 C29 1_555 1_555
N7 C28 1_555 1_555
N8 C26 1_555 1_555
N9 C41 1_555 1_555
N10 C44 1_555 1_555
H49 N10 1_555 1_555
N11 C49 1_555 1_555
N12 C46 1_555 1_555
H50 N12 1_555 1_555
O1 N2 1_555 1_555
O2 C38 1_555 1_555
O3 C8 1_555 1_555
O4 C27 1_555 1_555
O5 C12 1_555 1_555
O6 C44 1_555 1_555
O7 C46 1_555 1_555
O8 Er1 1_555 1_555
O9 N4 1_555 1_555
O10 N2 1_555 1_555
O11 N1 1_555 1_555
O12 N1 1_555 1_555
O13 N4 1_555 1_555
O14 N3 1_555 1_555
O15 N3 1_555 1_555
O16 N5 1_555 1_555
O17 N7 1_555 1_555
O18 N6 1_555 1_555
O19 N8 1_555 1_555
O20 N8 1_555 1_555
O21 N7 1_555 1_555
O22 N5 1_555 1_555
O23 N9 1_555 1_555
O24 N9 1_555 1_555
O25 C21 1_555 1_555
O26 C16 1_555 1_555
H51 O5 1_555 1_555
Er1_2 O7 1_555 1_555
O7_2 Er1 1_555 1_555
C5 C6 1_555 1_555
C11 C13 1_555 1_555
C17 C18 1_555 1_555
C17 C19 1_555 1_555
C24 C25 1_555 1_555
C36 C37 1_555 1_555
C42 C43 1_555 1_555
C45 N10 1_555 1_555
C47 N12 1_555 1_555
C53 C54 1_555 1_555
C55 N11 1_555 1_555
C56 O25 1_555 1_555
C58 N11 1_555 1_555
C59 O26 1_555 1_555
Er1 O2 1_555 1_555
Er1 O3 1_555 1_555
Er1 O4 1_555 1_555
Er1 O5 1_555 1_555
Er1 O6 1_555 1_555
N6 O8 1_555 1_555

#END
