
#######################################################################
#
#                 Cambridge Crystallographic Data Centre
#                                CCDC 
#
#######################################################################
#
# If this CIF has been generated from an entry in the Cambridge 
# Structural Database, then it will include bibliographic, chemical, 
# crystal, experimental, refinement or atomic coordinate data resulting 
# from the CCDC's data processing and validation procedures.
#
#######################################################################

data_XEJQAG
_symmetry_cell_setting           monoclinic
_symmetry_space_group_name_H-M   'P 21/n'
_symmetry_Int_Tables_number      14
_space_group_name_Hall           '-P 2yn'
loop_
_symmetry_equiv_pos_site_id
_symmetry_equiv_pos_as_xyz
1 x,y,z
2 1/2-x,1/2+y,1/2-z
3 -x,-y,-z
4 1/2+x,1/2-y,1/2+z
_cell_length_a                   11.711(3)
_cell_length_b                   13.103(4)
_cell_length_c                   19.499(6)
_cell_angle_alpha                90
_cell_angle_beta                 96.755(4)
_cell_angle_gamma                90
_cell_volume                     2971.34
loop_
_atom_site_label
_atom_site_type_symbol
_atom_site_fract_x
_atom_site_fract_y
_atom_site_fract_z
Yb1 Yb -0.130849(12) 0.063202(11) 0.651541(8)
Cu1 Cu 0.16149(4) 0.41797(3) 0.84517(3)
Cu2 Cu 0.0000 0.0000 1.0000
O1 O 0.1777(2) -0.03865(17) 0.65170(14)
O2 O 0.06689(19) 0.09749(17) 0.65513(13)
O3 O 0.1208(2) 0.2973(2) 0.59583(14)
O4 O 0.1436(2) 0.3529(2) 0.70409(14)
O5 O 0.00207(18) 0.37636(17) 0.84020(12)
O6 O -0.10739(18) 0.23763(18) 0.84012(12)
O7 O -0.0672(2) 0.04996(17) 0.76364(12)
O8 O -0.0359(2) -0.00998(19) 0.86954(12)
O9 O -0.1581(2) -0.04761(16) 0.99621(13)
O10 O -0.26269(18) -0.18933(18) 0.98975(12)
O11 O -0.1905(2) -0.42409(17) 1.02826(12)
O12 O -0.20121(19) -0.39107(18) 0.91538(12)
O13 O -0.2282(2) 0.18012(18) 0.71418(12)
H1 H -0.2394(19) 0.2391(5) 0.6982(7)
H2 H -0.1845(9) 0.1754(14) 0.7515(4)
O14 O -0.0949(2) 0.21876(19) 0.60406(14)
H3 H -0.1406(7) 0.2642(6) 0.5870(8)
H4 H -0.0519(6) 0.1943(10) 0.5764(5)
O15 O -0.2647(2) -0.04908(18) 0.68342(12)
H5 H -0.3126(8) -0.0724(11) 0.6521(4)
H6 H -0.2863(11) -0.0414(19) 0.7225(3)
O16 O -0.1127(2) 0.0028(2) 0.54176(13)
H7 H -0.1661(7) 0.0207(10) 0.5115(5)
H8 H -0.0797(8) -0.0528(5) 0.5347(11)
O17 O -0.0419(2) -0.09952(19) 0.66654(14)
H9 H 0.0298(4) -0.0897(15) 0.6708(12)
H10 H -0.0650(12) -0.1373(7) 0.6328(4)
N1 N 0.3668(2) 0.06413(19) 0.67328(15)
N2 N 0.1917(2) 0.2709(2) 0.84979(14)
N3 N 0.0349(2) -0.1475(2) 0.99729(13)
C1 C 0.1625(3) 0.0570(2) 0.65540(17)
C2 C 0.2695(3) 0.1220(2) 0.66593(16)
C3 C 0.2727(3) 0.2267(3) 0.67172(18)
C4 C 0.1667(3) 0.2972(3) 0.65655(18)
C5 C 0.3783(3) 0.2714(3) 0.6886(2)
H21 H 0.3830 0.3418 0.6947
C6 C 0.4778(3) 0.2137(3) 0.6967(2)
H22 H 0.5491 0.2442 0.7085
C7 C 0.4687(3) 0.1105(3) 0.68695(19)
H23 H 0.5354 0.0714 0.6899
C8 C -0.0136(3) 0.2799(2) 0.83871(16)
C9 C 0.0930(3) 0.2153(2) 0.83996(15)
C10 C 0.0947(3) 0.1108(3) 0.83444(17)
C11 C -0.0132(3) 0.0451(2) 0.82194(18)
C12 C 0.2023(3) 0.0631(3) 0.8401(2)
H24 H 0.2065 -0.0076 0.8369
C13 C 0.3021(3) 0.1197(3) 0.8503(2)
H25 H 0.3738 0.0885 0.8538
C14 C 0.2921(3) 0.2231(3) 0.85509(18)
H26 H 0.3589 0.2619 0.8624
C15 C -0.1692(3) -0.1435(2) 0.99185(16)
C16 C -0.0614(3) -0.2049(2) 0.99156(15)
C17 C -0.0554(3) -0.3097(2) 0.98735(16)
C18 C -0.1591(3) -0.3788(2) 0.97744(17)
C19 C 0.0531(3) -0.3548(3) 0.99020(18)
H27 H 0.0600 -0.4254 0.9877
C20 C 0.1495(3) -0.2943(3) 0.99676(19)
H28 H 0.2222 -0.3237 0.9998
C21 C 0.1379(3) -0.1907(3) 0.99883(18)
H29 H 0.2030 -0.1497 1.0014
Yb1B Yb 0.130849(12) -0.063202(11) 1.348459(8)
Yb1A Yb -0.369151(12) -0.436798(11) 0.848459(8)
Yb1C Yb 0.369151(12) 0.436798(11) 1.151541(8)
Yb1A_2 Yb 0.630849(12) 0.563202(11) 0.848459(8)
Cu1B Cu -0.16149(4) -0.41797(3) 1.15483(3)
Cu1A Cu 0.33851(4) -0.08203(3) 0.65483(3)
O1A O 0.3223(2) 0.46135(17) 0.84830(14)
O1C O -0.3223(2) -0.46135(17) 1.15170(14)
O2A O 0.43311(19) 0.59749(17) 0.84487(13)
O2B O -0.06689(19) -0.09749(17) 1.34487(13)
O3A O 0.3792(2) 0.7973(2) 0.90417(14)
O4A O 0.3564(2) 0.8529(2) 0.79591(14)
O5B O -0.00207(18) -0.37636(17) 1.15980(12)
O6B O 0.10739(18) -0.23763(18) 1.15988(12)
O7B O 0.0672(2) -0.04996(17) 1.23636(12)
O8B O 0.0359(2) 0.00998(19) 1.13046(12)
O9B O 0.1581(2) 0.04761(16) 1.00379(13)
O10B O 0.26269(18) 0.18933(18) 1.01025(12)
O11B O 0.1905(2) 0.42409(17) 0.97174(12)
O12B O 0.20121(19) 0.39107(18) 1.08462(12)
O12A O -0.29879(19) 0.10893(18) 0.58462(12)
O12C O 0.29879(19) -0.10893(18) 1.41538(12)
O13B O 0.2282(2) -0.18012(18) 1.28582(12)
H1B H 0.2394(19) -0.2391(5) 1.3018(7)
H2B H 0.1845(9) -0.1754(14) 1.2485(4)
O14B O 0.0949(2) -0.21876(19) 1.39594(14)
H3B H 0.1406(7) -0.2642(6) 1.4130(8)
H4B H 0.0519(6) -0.1943(10) 1.4236(5)
O15B O 0.2647(2) 0.04908(18) 1.31658(12)
H5B H 0.3126(8) 0.0724(11) 1.3479(4)
H6B H 0.2863(11) 0.0414(19) 1.2775(3)
O16B O 0.1127(2) -0.0028(2) 1.45824(13)
H7B H 0.1661(7) -0.0207(10) 1.4885(5)
H8B H 0.0797(8) 0.0528(5) 1.4653(11)
O17B O 0.0419(2) 0.09952(19) 1.33346(14)
H9B H -0.0298(4) 0.0897(15) 1.3292(12)
H10B H 0.0650(12) 0.1373(7) 1.3672(4)
N1A N 0.1332(2) 0.56413(19) 0.82672(15)
N1C N -0.1332(2) -0.56413(19) 1.17328(15)
N2B N -0.1917(2) -0.2709(2) 1.15021(14)
N3B N -0.0349(2) 0.1475(2) 1.00271(13)
C1A C 0.3375(3) 0.5570(2) 0.84460(17)
C2A C 0.2305(3) 0.6220(2) 0.83407(16)
C3A C 0.2273(3) 0.7267(3) 0.82828(18)
C4A C 0.3333(3) 0.7972(3) 0.84345(18)
C5A C 0.1217(3) 0.7714(3) 0.8114(2)
H21A H 0.1170 0.8418 0.8053
C6A C 0.0222(3) 0.7137(3) 0.8033(2)
H22A H -0.0491 0.7442 0.7915
C7A C 0.0313(3) 0.6105(3) 0.81305(19)
H23A H -0.0354 0.5714 0.8101
C8B C 0.0136(3) -0.2799(2) 1.16129(16)
C9B C -0.0930(3) -0.2153(2) 1.16004(15)
C10B C -0.0947(3) -0.1108(3) 1.16556(17)
C11B C 0.0132(3) -0.0451(2) 1.17806(18)
C12B C -0.2023(3) -0.0631(3) 1.1599(2)
H24B H -0.2065 0.0076 1.1631
C13B C -0.3021(3) -0.1197(3) 1.1497(2)
H25B H -0.3738 -0.0885 1.1462
C14B C -0.2921(3) -0.2231(3) 1.14491(18)
H26B H -0.3589 -0.2619 1.1376
C15B C 0.1692(3) 0.1435(2) 1.00815(16)
C16B C 0.0614(3) 0.2049(2) 1.00844(15)
C17B C 0.0554(3) 0.3097(2) 1.01265(16)
C18B C 0.1591(3) 0.3788(2) 1.02256(17)
C19B C -0.0531(3) 0.3548(3) 1.00980(18)
H27B H -0.0600 0.4254 1.0123
C20B C -0.1495(3) 0.2943(3) 1.00324(19)
H28B H -0.2222 0.3237 1.0002
C21B C -0.1379(3) 0.1907(3) 1.00117(18)
H29B H -0.2030 0.1497 0.9986
O18 O 0.8957(4) 0.5323(3) 0.5159(2)
H11 H 0.9236(11) 0.5896(5) 0.5054(7)
H12 H 0.8873(17) 0.5298(17) 0.5587(3)
O19 O 0.7662(2) 0.8832(2) 0.81730(14)
H13 H 0.8198(6) 0.9258(7) 0.8165(11)
H14 H 0.7159(6) 0.8990(15) 0.8426(5)
O20 O 0.5583(3) 0.9726(2) 0.84347(18)
H15 H 0.5934(7) 0.9855(13) 0.8093(4)
H16 H 0.5098(7) 0.9248(6) 0.8375(12)
O21 O 0.9637(4) 0.8125(4) 0.5233(3)
H17 H 0.9206(8) 0.7738(8) 0.4983(7)
H18 H 1.0174(6) 0.8430(9) 0.5079(8)
O22 O 0.8495(3) 0.7134(3) 0.63795(15)
H19 H 0.8917(9) 0.6649(6) 0.6546(6)
H20 H 0.855(2) 0.7238(14) 0.5954(3)
loop_
_geom_bond_atom_site_label_1
_geom_bond_atom_site_label_2
_geom_bond_site_symmetry_1
_geom_bond_site_symmetry_2
Yb1 O2 1_555 1_555
Cu1 O5 1_555 1_555
Cu2 O8 1_555 1_555
O1 C1 1_555 1_555
O2 C1 1_555 1_555
O3 C4 1_555 1_555
O4 C4 1_555 1_555
O5 C8 1_555 1_555
O6 C8 1_555 1_555
O7 Yb1 1_555 1_555
O8 C11 1_555 1_555
O9 Cu2 1_555 1_555
O10 C15 1_555 1_555
O11 C18 1_555 1_555
O12 C18 1_555 1_555
O13 Yb1 1_555 1_555
H1 O13 1_555 1_555
H2 O13 1_555 1_555
O14 Yb1 1_555 1_555
H3 O14 1_555 1_555
H4 O14 1_555 1_555
O15 Yb1 1_555 1_555
H5 O15 1_555 1_555
H6 O15 1_555 1_555
O16 Yb1 1_555 1_555
H7 O16 1_555 1_555
H8 O16 1_555 1_555
O17 Yb1 1_555 1_555
H9 O17 1_555 1_555
H10 O17 1_555 1_555
O18 H11 1_555 1_555
H12 O18 1_555 1_555
O19 H13 1_555 1_555
H14 O19 1_555 1_555
O20 H15 1_555 1_555
H16 O20 1_555 1_555
O21 H17 1_555 1_555
H18 O21 1_555 1_555
O22 H19 1_555 1_555
H20 O22 1_555 1_555
N1 C2 1_555 1_555
N2 Cu1 1_555 1_555
N3 Cu2 1_555 1_555
C1 C2 1_555 1_555
C2 C3 1_555 1_555
C3 C4 1_555 1_555
C5 C3 1_555 1_555
H21 C5 1_555 1_555
C6 C5 1_555 1_555
H22 C6 1_555 1_555
C7 N1 1_555 1_555
H23 C7 1_555 1_555
C8 C9 1_555 1_555
C9 N2 1_555 1_555
C10 C9 1_555 1_555
C11 O7 1_555 1_555
C12 C10 1_555 1_555
H24 C12 1_555 1_555
C13 C12 1_555 1_555
H25 C13 1_555 1_555
C14 N2 1_555 1_555
H26 C14 1_555 1_555
C15 O9 1_555 1_555
C16 N3 1_555 1_555
C17 C16 1_555 1_555
C18 C17 1_555 1_555
C19 C17 1_555 1_555
H27 C19 1_555 1_555
C20 C19 1_555 1_555
H28 C20 1_555 1_555
C21 N3 1_555 1_555
H29 C21 1_555 1_555
Yb1B O2B 1_555 1_555
Yb1A O12 1_555 1_555
Yb1C O12B 1_555 1_555
Yb1A_2 O2A 1_555 1_555
Cu1B O11 1_555 1_555
Cu1A O1 1_555 1_555
O1A Cu1 1_555 1_555
O1C Cu1B 1_555 1_555
O2A C1A 1_555 1_555
O3A C4A 1_555 1_555
O4A C4A 1_555 1_555
O5B Cu1B 1_555 1_555
O6B C8B 1_555 1_555
O7B Yb1B 1_555 1_555
O8B Cu2 1_555 1_555
O9B Cu2 1_555 1_555
O10B C15B 1_555 1_555
O11B Cu1 1_555 1_555
O12B C18B 1_555 1_555
O12A Yb1 1_555 1_555
O12C Yb1B 1_555 1_555
O13B Yb1B 1_555 1_555
H1B O13B 1_555 1_555
H2B O13B 1_555 1_555
O14B Yb1B 1_555 1_555
H3B O14B 1_555 1_555
H4B O14B 1_555 1_555
O15B Yb1B 1_555 1_555
H5B O15B 1_555 1_555
H6B O15B 1_555 1_555
O16B Yb1B 1_555 1_555
H7B O16B 1_555 1_555
H8B O16B 1_555 1_555
O17B Yb1B 1_555 1_555
H9B O17B 1_555 1_555
H10B O17B 1_555 1_555
N1A Cu1 1_555 1_555
N1C Cu1B 1_555 1_555
N2B Cu1B 1_555 1_555
N3B Cu2 1_555 1_555
C1A O1A 1_555 1_555
C2A N1A 1_555 1_555
C3A C2A 1_555 1_555
C4A C3A 1_555 1_555
C5A C3A 1_555 1_555
H21A C5A 1_555 1_555
C6A C5A 1_555 1_555
H22A C6A 1_555 1_555
C7A N1A 1_555 1_555
H23A C7A 1_555 1_555
C8B O5B 1_555 1_555
C9B N2B 1_555 1_555
C10B C9B 1_555 1_555
C11B O7B 1_555 1_555
C12B C10B 1_555 1_555
H24B C12B 1_555 1_555
C13B C12B 1_555 1_555
H25B C13B 1_555 1_555
C14B N2B 1_555 1_555
H26B C14B 1_555 1_555
C15B O9B 1_555 1_555
C16B N3B 1_555 1_555
C17B C16B 1_555 1_555
C18B O11B 1_555 1_555
C19B C17B 1_555 1_555
H27B C19B 1_555 1_555
C20B C19B 1_555 1_555
H28B C20B 1_555 1_555
C21B N3B 1_555 1_555
H29B C21B 1_555 1_555
N1 Cu1A 1_555 1_555
C6 C7 1_555 1_555
C10 C11 1_555 1_555
C13 C14 1_555 1_555
C15 C16 1_555 1_555
C20 C21 1_555 1_555
O8B C11B 1_555 1_555
C1A C2A 1_555 1_555
C6A C7A 1_555 1_555
C8B C9B 1_555 1_555
C10B C11B 1_555 1_555
C13B C14B 1_555 1_555
C15B C16B 1_555 1_555
C17B C18B 1_555 1_555
C20B C21B 1_555 1_555

#END
