
#######################################################################
#
#                 Cambridge Crystallographic Data Centre
#                                CCDC 
#
#######################################################################
#
# If this CIF has been generated from an entry in the Cambridge 
# Structural Database, then it will include bibliographic, chemical, 
# crystal, experimental, refinement or atomic coordinate data resulting 
# from the CCDC's data processing and validation procedures.
#
#######################################################################

data_XEJQIO
_symmetry_cell_setting           monoclinic
_symmetry_space_group_name_H-M   'P 21/n'
_symmetry_Int_Tables_number      14
_space_group_name_Hall           '-P 2yn'
loop_
_symmetry_equiv_pos_site_id
_symmetry_equiv_pos_as_xyz
1 x,y,z
2 1/2-x,1/2+y,1/2-z
3 -x,-y,-z
4 1/2+x,1/2-y,1/2+z
_cell_length_a                   11.669(2)
_cell_length_b                   13.086(3)
_cell_length_c                   19.396(4)
_cell_angle_alpha                90
_cell_angle_beta                 96.208(3)
_cell_angle_gamma                90
_cell_volume                     2944.41
loop_
_atom_site_label
_atom_site_type_symbol
_atom_site_fract_x
_atom_site_fract_y
_atom_site_fract_z
Lu1 Lu -0.129636(17) 0.062685(17) 0.649895(11)
Cu1 Cu 0.16044(5) 0.41751(5) 0.84398(4)
Cu2 Cu 0.0000 0.0000 1.0000
O1 O 0.1794(3) -0.0389(2) 0.65332(19)
O2 O 0.0685(3) 0.0963(3) 0.65344(18)
O3 O 0.1220(3) 0.2957(3) 0.5946(2)
O4 O 0.1401(3) 0.3528(3) 0.7029(2)
O5 O 0.0000(3) 0.3759(2) 0.83983(17)
O6 O -0.1091(2) 0.2368(3) 0.83881(17)
O7 O -0.0668(3) 0.0495(3) 0.76195(17)
O8 O -0.0364(3) -0.0120(3) 0.86831(17)
O9 O -0.1575(3) -0.0476(2) 0.99678(17)
O10 O -0.2631(2) -0.1890(3) 0.98952(17)
O11 O -0.1920(3) -0.4242(3) 1.02961(17)
O12 O -0.2031(3) -0.3919(3) 0.91570(17)
O13 O -0.2252(3) 0.1802(3) 0.71330(17)
H1 H -0.2477(14) 0.2377(5) 0.6981(7)
H2 H -0.1854(10) 0.1799(16) 0.7523(4)
O14 O -0.0923(3) 0.2161(3) 0.60109(19)
H3 H -0.1377(7) 0.2627(6) 0.5854(9)
H4 H -0.0496(7) 0.1906(10) 0.5733(5)
O15 O -0.2638(3) -0.0491(3) 0.68264(15)
H5 H -0.3132(8) -0.0730(12) 0.6519(4)
H6 H -0.2903(8) -0.0416(13) 0.7212(3)
O16 O -0.1109(3) 0.0027(3) 0.53946(19)
H7 H -0.1642(7) 0.0175(11) 0.5083(5)
H8 H -0.0791(9) -0.0545(5) 0.5362(14)
O17 O -0.0424(3) -0.1003(3) 0.66340(19)
H9 H 0.0291(5) -0.0888(15) 0.6699(12)
H10 H -0.0622(12) -0.1395(5) 0.6295(4)
N1 N 0.3685(3) 0.0642(3) 0.6741(2)
N2 N 0.1905(3) 0.2703(3) 0.8489(2)
N3 N 0.0338(3) -0.1468(3) 0.99714(18)
C1 C 0.1635(4) 0.0555(4) 0.6568(3)
C2 C 0.2707(4) 0.1227(4) 0.6658(2)
C3 C 0.2713(4) 0.2271(4) 0.6713(3)
C4 C 0.1667(4) 0.2987(4) 0.6569(3)
C5 C 0.3806(4) 0.2724(4) 0.6877(3)
H21 H 0.3867 0.3429 0.6930
C6 C 0.4779(5) 0.2128(4) 0.6958(3)
H22 H 0.5495 0.2430 0.7074
C7 C 0.4701(4) 0.1098(4) 0.6870(3)
H23 H 0.5370 0.0707 0.6901
C8 C -0.0158(4) 0.2790(4) 0.8388(2)
C9 C 0.0934(4) 0.2147(4) 0.8401(2)
C10 C 0.0952(4) 0.1117(4) 0.8336(2)
C11 C -0.0119(4) 0.0443(3) 0.8200(3)
C12 C 0.2015(4) 0.0636(4) 0.8395(3)
H24 H 0.2050 -0.0073 0.8367
C13 C 0.3022(4) 0.1192(4) 0.8495(3)
H25 H 0.3739 0.0875 0.8527
C14 C 0.2922(4) 0.2228(4) 0.8545(3)
H26 H 0.3590 0.2618 0.8621
C15 C -0.1690(4) -0.1443(4) 0.9926(2)
C16 C -0.0603(3) -0.2050(3) 0.9915(2)
C17 C -0.0553(4) -0.3111(3) 0.9882(2)
C18 C -0.1603(4) -0.3796(3) 0.9773(3)
C19 C 0.0529(4) -0.3554(4) 0.9906(3)
H27 H 0.0602 -0.4261 0.9885
C20 C 0.1488(4) -0.2949(4) 0.9959(3)
H28 H 0.2216 -0.3242 0.9976
C21 C 0.1372(4) -0.1914(4) 0.9987(3)
H29 H 0.2030 -0.1507 1.0018
Lu1B Lu 0.129636(17) -0.062685(17) 1.350105(11)
Lu1A Lu -0.370364(17) -0.437315(17) 0.850105(11)
Lu1C Lu 0.370364(17) 0.437315(17) 1.149895(11)
Lu1A_2 Lu 0.629636(17) 0.562685(17) 0.850105(11)
Cu1B Cu -0.16044(5) -0.41751(5) 1.15602(4)
Cu1A Cu 0.33956(5) -0.08249(5) 0.65602(4)
O1A O 0.3206(3) 0.4611(2) 0.84668(19)
O1C O -0.3206(3) -0.4611(2) 1.15332(19)
O2A O 0.4315(3) 0.5963(3) 0.84656(18)
O2B O -0.0685(3) -0.0963(3) 1.34656(18)
O3A O 0.3780(3) 0.7957(3) 0.9054(2)
O4A O 0.3599(3) 0.8528(3) 0.7971(2)
O5B O 0.0000(3) -0.3759(2) 1.16017(17)
O6B O 0.1091(2) -0.2368(3) 1.16119(17)
O7B O 0.0668(3) -0.0495(3) 1.23805(17)
O8B O 0.0364(3) 0.0120(3) 1.13169(17)
O9B O 0.1575(3) 0.0476(2) 1.00322(17)
O10B O 0.2631(2) 0.1890(3) 1.01048(17)
O11B O 0.1920(3) 0.4242(3) 0.97039(17)
O12B O 0.2031(3) 0.3919(3) 1.08430(17)
O12A O -0.2969(3) 0.1081(3) 0.58430(17)
O12C O 0.2969(3) -0.1081(3) 1.41570(17)
O13B O 0.2252(3) -0.1802(3) 1.28670(17)
H1B H 0.2477(14) -0.2377(5) 1.3019(7)
H2B H 0.1854(10) -0.1799(16) 1.2477(4)
O14B O 0.0923(3) -0.2161(3) 1.39891(19)
H3B H 0.1377(7) -0.2627(6) 1.4146(9)
H4B H 0.0496(7) -0.1906(10) 1.4267(5)
O15B O 0.2638(3) 0.0491(3) 1.31736(15)
H5B H 0.3132(8) 0.0730(12) 1.3481(4)
H6B H 0.2903(8) 0.0416(13) 1.2788(3)
O16B O 0.1109(3) -0.0027(3) 1.46054(19)
H7B H 0.1642(7) -0.0175(11) 1.4917(5)
H8B H 0.0791(9) 0.0545(5) 1.4638(14)
O17B O 0.0424(3) 0.1003(3) 1.33660(19)
H9B H -0.0291(5) 0.0888(15) 1.3301(12)
H10B H 0.0622(12) 0.1395(5) 1.3705(4)
N1A N 0.1315(3) 0.5642(3) 0.8259(2)
N1C N -0.1315(3) -0.5642(3) 1.1741(2)
N2B N -0.1905(3) -0.2703(3) 1.1511(2)
N3B N -0.0338(3) 0.1468(3) 1.00286(18)
C1A C 0.3365(4) 0.5555(4) 0.8432(3)
C2A C 0.2293(4) 0.6227(4) 0.8342(2)
C3A C 0.2287(4) 0.7271(4) 0.8287(3)
C4A C 0.3333(4) 0.7987(4) 0.8431(3)
C5A C 0.1194(4) 0.7724(4) 0.8123(3)
H21A H 0.1133 0.8429 0.8070
C6A C 0.0221(5) 0.7128(4) 0.8042(3)
H22A H -0.0495 0.7430 0.7926
C7A C 0.0299(4) 0.6098(4) 0.8130(3)
H23A H -0.0370 0.5707 0.8099
C8B C 0.0158(4) -0.2790(4) 1.1612(2)
C9B C -0.0934(4) -0.2147(4) 1.1599(2)
C10B C -0.0952(4) -0.1117(4) 1.1664(2)
C11B C 0.0119(4) -0.0443(3) 1.1800(3)
C12B C -0.2015(4) -0.0636(4) 1.1605(3)
H24B H -0.2050 0.0073 1.1633
C13B C -0.3022(4) -0.1192(4) 1.1505(3)
H25B H -0.3739 -0.0875 1.1473
C14B C -0.2922(4) -0.2228(4) 1.1455(3)
H26B H -0.3590 -0.2618 1.1379
C15B C 0.1690(4) 0.1443(4) 1.0074(2)
C16B C 0.0603(3) 0.2050(3) 1.0085(2)
C17B C 0.0553(4) 0.3111(3) 1.0118(2)
C18B C 0.1603(4) 0.3796(3) 1.0227(3)
C19B C -0.0529(4) 0.3554(4) 1.0094(3)
H27B H -0.0602 0.4261 1.0115
C20B C -0.1488(4) 0.2949(4) 1.0041(3)
H28B H -0.2216 0.3242 1.0024
C21B C -0.1372(4) 0.1914(4) 1.0013(3)
H29B H -0.2030 0.1507 0.9982
O18 O 0.8966(5) 0.5326(3) 0.5156(2)
H11 H 0.9190(14) 0.5922(5) 0.5063(8)
H12 H 0.890(2) 0.5241(15) 0.5583(3)
O19 O 0.7656(3) 0.8833(3) 0.81619(19)
H13 H 0.8183(6) 0.9243(7) 0.8092(9)
H14 H 0.7200(6) 0.9022(14) 0.8444(5)
O20 O 0.5581(3) 0.9721(3) 0.8452(2)
H15 H 0.5945(7) 0.9804(16) 0.8103(4)
H16 H 0.5071(7) 0.9258(7) 0.8396(12)
O21 O 0.9580(4) 0.8016(5) 0.5258(3)
H17 H 0.9203(9) 0.7703(9) 0.4931(5)
H18 H 1.0151(6) 0.8356(9) 0.5160(10)
O22 O 0.8517(4) 0.7116(3) 0.63941(19)
H19 H 0.8953(9) 0.6653(6) 0.6575(6)
H20 H 0.8628(18) 0.7285(12) 0.5986(3)
loop_
_geom_bond_atom_site_label_1
_geom_bond_atom_site_label_2
_geom_bond_site_symmetry_1
_geom_bond_site_symmetry_2
Lu1 O2 1_555 1_555
Cu1 O5 1_555 1_555
Cu2 O8 1_555 1_555
O1 C1 1_555 1_555
O2 C1 1_555 1_555
O3 C4 1_555 1_555
O4 C4 1_555 1_555
O5 C8 1_555 1_555
O6 C8 1_555 1_555
O7 Lu1 1_555 1_555
O8 C11 1_555 1_555
O9 Cu2 1_555 1_555
O10 C15 1_555 1_555
O11 C18 1_555 1_555
O12 C18 1_555 1_555
O13 Lu1 1_555 1_555
H1 O13 1_555 1_555
H2 O13 1_555 1_555
O14 Lu1 1_555 1_555
H3 O14 1_555 1_555
H4 O14 1_555 1_555
O15 Lu1 1_555 1_555
H5 O15 1_555 1_555
H6 O15 1_555 1_555
O16 Lu1 1_555 1_555
H7 O16 1_555 1_555
H8 O16 1_555 1_555
O17 Lu1 1_555 1_555
H9 O17 1_555 1_555
H10 O17 1_555 1_555
O18 H11 1_555 1_555
H12 O18 1_555 1_555
O19 H13 1_555 1_555
H14 O19 1_555 1_555
O20 H15 1_555 1_555
H16 O20 1_555 1_555
O21 H17 1_555 1_555
H18 O21 1_555 1_555
O22 H19 1_555 1_555
H20 O22 1_555 1_555
N1 C2 1_555 1_555
N2 Cu1 1_555 1_555
N3 Cu2 1_555 1_555
C1 C2 1_555 1_555
C2 C3 1_555 1_555
C3 C4 1_555 1_555
C5 C3 1_555 1_555
H21 C5 1_555 1_555
C6 C5 1_555 1_555
H22 C6 1_555 1_555
C7 N1 1_555 1_555
H23 C7 1_555 1_555
C8 C9 1_555 1_555
C9 N2 1_555 1_555
C10 C9 1_555 1_555
C11 O7 1_555 1_555
C12 C10 1_555 1_555
H24 C12 1_555 1_555
C13 C12 1_555 1_555
H25 C13 1_555 1_555
C14 N2 1_555 1_555
H26 C14 1_555 1_555
C15 O9 1_555 1_555
C16 N3 1_555 1_555
C17 C16 1_555 1_555
C18 C17 1_555 1_555
C19 C17 1_555 1_555
H27 C19 1_555 1_555
C20 C19 1_555 1_555
H28 C20 1_555 1_555
C21 N3 1_555 1_555
H29 C21 1_555 1_555
Lu1B O2B 1_555 1_555
Lu1A O12 1_555 1_555
Lu1C O12B 1_555 1_555
Lu1A_2 O2A 1_555 1_555
Cu1B O11 1_555 1_555
Cu1A O1 1_555 1_555
O1A Cu1 1_555 1_555
O1C Cu1B 1_555 1_555
O2A C1A 1_555 1_555
O3A C4A 1_555 1_555
O4A C4A 1_555 1_555
O5B Cu1B 1_555 1_555
O6B C8B 1_555 1_555
O7B Lu1B 1_555 1_555
O8B Cu2 1_555 1_555
O9B Cu2 1_555 1_555
O10B C15B 1_555 1_555
O11B Cu1 1_555 1_555
O12B C18B 1_555 1_555
O12A Lu1 1_555 1_555
O12C Lu1B 1_555 1_555
O13B Lu1B 1_555 1_555
H1B O13B 1_555 1_555
H2B O13B 1_555 1_555
O14B Lu1B 1_555 1_555
H3B O14B 1_555 1_555
H4B O14B 1_555 1_555
O15B Lu1B 1_555 1_555
H5B O15B 1_555 1_555
H6B O15B 1_555 1_555
O16B Lu1B 1_555 1_555
H7B O16B 1_555 1_555
H8B O16B 1_555 1_555
O17B Lu1B 1_555 1_555
H9B O17B 1_555 1_555
H10B O17B 1_555 1_555
N1A Cu1 1_555 1_555
N1C Cu1B 1_555 1_555
N2B Cu1B 1_555 1_555
N3B Cu2 1_555 1_555
C1A O1A 1_555 1_555
C2A N1A 1_555 1_555
C3A C2A 1_555 1_555
C4A C3A 1_555 1_555
C5A C3A 1_555 1_555
H21A C5A 1_555 1_555
C6A C5A 1_555 1_555
H22A C6A 1_555 1_555
C7A N1A 1_555 1_555
H23A C7A 1_555 1_555
C8B O5B 1_555 1_555
C9B N2B 1_555 1_555
C10B C9B 1_555 1_555
C11B O7B 1_555 1_555
C12B C10B 1_555 1_555
H24B C12B 1_555 1_555
C13B C12B 1_555 1_555
H25B C13B 1_555 1_555
C14B N2B 1_555 1_555
H26B C14B 1_555 1_555
C15B O9B 1_555 1_555
C16B N3B 1_555 1_555
C17B C16B 1_555 1_555
C18B O11B 1_555 1_555
C19B C17B 1_555 1_555
H27B C19B 1_555 1_555
C20B C19B 1_555 1_555
H28B C20B 1_555 1_555
C21B N3B 1_555 1_555
H29B C21B 1_555 1_555
N1 Cu1A 1_555 1_555
C6 C7 1_555 1_555
C10 C11 1_555 1_555
C13 C14 1_555 1_555
C15 C16 1_555 1_555
C20 C21 1_555 1_555
O8B C11B 1_555 1_555
C1A C2A 1_555 1_555
C6A C7A 1_555 1_555
C8B C9B 1_555 1_555
C10B C11B 1_555 1_555
C13B C14B 1_555 1_555
C15B C16B 1_555 1_555
C17B C18B 1_555 1_555
C20B C21B 1_555 1_555

#END
