
#######################################################################
#
#                 Cambridge Crystallographic Data Centre
#                                CCDC 
#
#######################################################################
#
# If this CIF has been generated from an entry in the Cambridge 
# Structural Database, then it will include bibliographic, chemical, 
# crystal, experimental, refinement or atomic coordinate data resulting 
# from the CCDC's data processing and validation procedures.
#
#######################################################################

data_XEJQOU
_symmetry_cell_setting           triclinic
_symmetry_space_group_name_H-M   'P -1'
_symmetry_Int_Tables_number      2
_space_group_name_Hall           '-P 1'
loop_
_symmetry_equiv_pos_site_id
_symmetry_equiv_pos_as_xyz
1 x,y,z
2 -x,-y,-z
_cell_length_a                   11.117(3)
_cell_length_b                   11.992(3)
_cell_length_c                   13.420(4)
_cell_angle_alpha                66.193(3)
_cell_angle_beta                 88.151(4)
_cell_angle_gamma                78.300(4)
_cell_volume                     1600.39
loop_
_atom_site_label
_atom_site_type_symbol
_atom_site_fract_x
_atom_site_fract_y
_atom_site_fract_z
La1 La 0.08815(3) 1.19993(3) 0.08867(2)
Cu1 Cu 0.56047(6) 1.15730(6) 0.53409(5)
Cu2 Cu 0.5000 1.5000 0.0000
O1 O 0.1651(3) 0.9886(3) 0.2433(3)
O2 O 0.2804(4) 0.9394(4) 0.3930(3)
O3 O 0.2305(3) 1.0655(3) 0.0214(3)
O4 O 0.2411(4) 0.8732(4) 0.0373(3)
O5 O 0.3958(4) 1.2324(4) 0.4697(3)
O6 O 0.2904(4) 1.3118(3) 0.3111(3)
O7 O 0.2957(4) 1.1852(3) 0.1639(3)
O8 O 0.3971(4) 1.3232(4) 0.0570(3)
O9 O 0.6546(4) 1.4052(3) 0.0863(3)
O10 O 0.7472(4) 1.3446(4) 0.2491(3)
O11 O 0.6407(4) 1.3278(4) 0.4793(3)
O12 O 0.7139(4) 1.4967(4) 0.3897(4)
O13 O -0.0419(3) 1.1833(4) 0.2521(3)
H1 H -0.0025(7) 1.1862(12) 0.2853(7)
H2 H -0.1080(6) 1.2305(16) 0.2200(9)
O14 O 0.1042(3) 1.3845(3) 0.1527(3)
H3 H 0.1503(9) 1.3316(8) 0.2061(7)
H4 H 0.0498(9) 1.4369(8) 0.1643(11)
O15 O 0.1845(3) 1.3629(3) -0.0598(3)
H5 H 0.2473(6) 1.335(2) -0.0304(12)
O16 O -0.1028(3) 1.3766(3) 0.0249(3)
H6 H -0.1686(6) 1.380(2) 0.0571(9)
H7 H -0.0894(12) 1.4445(8) -0.0214(13)
O17 O -0.0055(4) 1.2398(3) -0.1021(3)
H8 H 0.0333(8) 1.2880(9) -0.1489(11)
H9 H -0.0342(9) 1.1907(6) -0.1203(9)
O18 O -0.0503(4) 1.0498(3) 0.1036(3)
H10 H -0.0584(14) 1.0619(10) 0.0378(4)
H11 H -0.029(4) 0.9758(7) 0.1492(10)
N1 N 0.4756(4) 0.8453(4) 0.3201(3)
N2 N 0.5851(4) 1.1241(4) 0.4008(3)
N3 N 0.4557(4) 1.5253(4) 0.1349(3)
C1 C 0.2649(4) 0.9469(4) 0.2961(4)
C2 C 0.3780(5) 0.8968(4) 0.2492(4)
C3 C 0.3828(4) 0.9012(4) 0.1443(4)
C4 C 0.2745(5) 0.9512(4) 0.0619(4)
C5 C 0.4956(6) 0.8513(5) 0.1157(4)
H23 H 0.5020 0.8518 0.0463
C6 C 0.5969(6) 0.8020(6) 0.1852(4)
H24 H 0.6727 0.7724 0.1638
C7 C 0.5823(5) 0.7975(5) 0.2915(5)
H25 H 0.6488 0.7604 0.3425
C8 C 0.3805(5) 1.2477(5) 0.3710(4)
C9 C 0.4882(5) 1.1797(4) 0.3298(4)
C10 C 0.4918(5) 1.1792(4) 0.2268(4)
C11 C 0.3867(5) 1.2363(4) 0.1424(4)
C12 C 0.5994(5) 1.1199(5) 0.2006(4)
H26 H 0.6061 1.1213 0.1309
C13 C 0.6970(5) 1.0588(5) 0.2756(4)
H27 H 0.7682 1.0156 0.2584
C14 C 0.6878(5) 1.0625(5) 0.3761(5)
H28 H 0.7534 1.0219 0.4277
C15 C 0.6586(5) 1.3999(4) 0.1830(4)
C16 C 0.5476(5) 1.4727(4) 0.2124(4)
C17 C 0.5364(5) 1.4807(5) 0.3134(4)
C18 C 0.6413(6) 1.4286(5) 0.4001(4)
C19 C 0.4276(6) 1.5466(5) 0.3309(4)
H29 H 0.4167 1.5544 0.3969
C20 C 0.3358(6) 1.6004(5) 0.2513(4)
H30 H 0.2621 1.6448 0.2632
C21 C 0.3512(5) 1.5898(5) 0.1531(4)
H31 H 0.2881 1.6279 0.0990
H32 H 0.1504(13) 1.4285(8) -0.095(2)
La1A La 0.91185(3) 1.80007(3) -0.08867(2)
La1A_2 La 0.91185(3) 0.80007(3) 0.91133(2)
Cu1A Cu 0.43953(6) 1.84270(6) -0.53409(5)
Cu1A_2 Cu 0.43953(6) 0.84270(6) 0.46591(5)
O1A O 0.8349(3) 1.0114(3) 0.7567(3)
O1A_2 O 0.8349(3) 2.0114(3) -0.2433(3)
O2A O 0.7196(4) 1.0606(4) 0.6070(3)
O2_2 O 0.2804(4) 1.9394(4) -0.6070(3)
O3A O 0.7695(3) 0.9345(3) 0.9786(3)
O3A_2 O 0.7695(3) 1.9345(3) -0.0214(3)
O4A O 0.7589(4) 1.1268(4) 0.9627(3)
O5A O 0.6042(4) 1.7676(4) -0.4697(3)
O6A O 0.7096(4) 1.6882(3) -0.3111(3)
O7A O 0.7043(4) 1.8148(3) -0.1639(3)
O8A O 0.6029(4) 1.6768(4) -0.0570(3)
O9A O 0.3454(4) 1.5948(3) -0.0863(3)
O10A O 0.2528(4) 1.6554(4) -0.2491(3)
O11A O 0.3593(4) 1.6722(4) -0.4793(3)
O12A O 0.2861(4) 1.5033(4) -0.3897(4)
O13A O 1.0419(3) 1.8167(4) -0.2521(3)
H1A H 1.0025(7) 1.8138(12) -0.2853(7)
H2A H 1.1080(6) 1.7695(16) -0.2200(9)
O14A O 0.8958(3) 1.6155(3) -0.1527(3)
H3A H 0.8497(9) 1.6684(8) -0.2061(7)
H4A H 0.9502(9) 1.5631(8) -0.1643(11)
O15A O 0.8155(3) 1.6371(3) 0.0598(3)
H5A H 0.7527(6) 1.665(2) 0.0304(12)
O16A O 1.1028(3) 1.6234(3) -0.0249(3)
H6A H 1.1686(6) 1.620(2) -0.0571(9)
H7A H 1.0894(12) 1.5555(8) 0.0214(13)
O17A O 1.0055(4) 1.7602(3) 0.1021(3)
H8A H 0.9667(8) 1.7120(9) 0.1489(11)
H9A H 1.0342(9) 1.8093(6) 0.1203(9)
O18A O 1.0503(4) 1.9502(3) -0.1036(3)
H10A H 1.0584(14) 1.9381(10) -0.0378(4)
H11A H 1.029(4) 2.0242(7) -0.1492(10)
N1A N 0.5244(4) 1.1547(4) 0.6799(3)
N1_2 N 0.4756(4) 1.8453(4) -0.6799(3)
N2A N 0.4149(4) 1.8759(4) -0.4008(3)
N3A N 0.5443(4) 1.4747(4) -0.1349(3)
C1A C 0.7351(4) 1.0531(4) 0.7039(4)
C2A C 0.6220(5) 1.1032(4) 0.7508(4)
C3A C 0.6172(4) 1.0988(4) 0.8557(4)
C4A C 0.7255(5) 1.0488(4) 0.9381(4)
C5A C 0.5044(6) 1.1487(5) 0.8843(4)
H23A H 0.4980 1.1482 0.9537
C6A C 0.4031(6) 1.1980(6) 0.8148(4)
H24A H 0.3273 1.2276 0.8362
C7A C 0.4177(5) 1.2025(5) 0.7085(5)
H25A H 0.3512 1.2396 0.6575
C8A C 0.6195(5) 1.7523(5) -0.3710(4)
C9A C 0.5118(5) 1.8203(4) -0.3298(4)
C10A C 0.5082(5) 1.8208(4) -0.2268(4)
C11A C 0.6133(5) 1.7637(4) -0.1424(4)
C12A C 0.4006(5) 1.8801(5) -0.2006(4)
H26A H 0.3939 1.8787 -0.1309
C13A C 0.3030(5) 1.9412(5) -0.2756(4)
H27A H 0.2318 1.9844 -0.2584
C14A C 0.3122(5) 1.9375(5) -0.3761(5)
H28A H 0.2466 1.9781 -0.4277
C15A C 0.3414(5) 1.6001(4) -0.1830(4)
C16A C 0.4524(5) 1.5273(4) -0.2124(4)
C17A C 0.4636(5) 1.5193(5) -0.3134(4)
C18A C 0.3587(6) 1.5714(5) -0.4001(4)
C19A C 0.5724(6) 1.4534(5) -0.3309(4)
H29A H 0.5833 1.4456 -0.3969
C20A C 0.6642(6) 1.3996(5) -0.2513(4)
H30A H 0.7379 1.3552 -0.2632
C21A C 0.6488(5) 1.4102(5) -0.1531(4)
H31A H 0.7119 1.3721 -0.0990
H32A H 0.8496(13) 1.5715(8) 0.095(2)
O19 O 0.1639(5) 0.4238(6) 0.4725(4)
H12 H 0.0974(7) 0.453(4) 0.4338(9)
H13 H 0.163(2) 0.3672(13) 0.5352(7)
O20 O 0.0503(5) 0.1779(4) 0.7195(4)
H14 H 0.0131(9) 0.1597(8) 0.6762(7)
H15 H 0.0767(9) 0.2445(6) 0.6906(19)
O21 O 0.0665(4) 0.5097(5) 0.7289(4)
H16 H 0.0990(9) 0.5285(9) 0.7661(7)
H33 H 0.0071(6) 0.531(3) 0.6939(9)
O22 O 0.0931(5) 0.7502(4) 0.4743(3)
H17 H 0.123(2) 0.7023(7) 0.4436(6)
H18 H 0.1270(13) 0.7365(13) 0.5346(6)
O24 O 0.9149(5) 0.8310(4) 0.5632(4)
H21 H 0.8696(9) 0.8117(19) 0.6169(6)
H22 H 0.933(3) 0.7786(6) 0.5349(7)
O23? O 0.0288(7) 0.0123(5) 0.4535(5)
H19? H -0.0060(12) 0.0514(14) 0.4103(9)
H20? H 0.062(2) -0.0634(6) 0.472(3)
loop_
_geom_bond_atom_site_label_1
_geom_bond_atom_site_label_2
_geom_bond_site_symmetry_1
_geom_bond_site_symmetry_2
La1 O1 1_555 1_555
Cu1 O5 1_555 1_555
Cu2 O8 1_555 1_555
O1 C1 1_555 1_555
O2 C1 1_555 1_555
O3 La1 1_555 1_555
O4 C4 1_555 1_555
O5 C8 1_555 1_555
O6 C8 1_555 1_555
O7 La1 1_555 1_555
O8 C11 1_555 1_555
O9 Cu2 1_555 1_555
O10 C15 1_555 1_555
O11 Cu1 1_555 1_555
O12 C18 1_555 1_555
O13 La1 1_555 1_555
H1 O13 1_555 1_555
H2 O13 1_555 1_555
O14 La1 1_555 1_555
H3 O14 1_555 1_555
H4 O14 1_555 1_555
O15 La1 1_555 1_555
H5 O15 1_555 1_555
O16 La1 1_555 1_555
H6 O16 1_555 1_555
H7 O16 1_555 1_555
O17 La1 1_555 1_555
H8 O17 1_555 1_555
H9 O17 1_555 1_555
O18 La1 1_555 1_555
H10 O18 1_555 1_555
H11 O18 1_555 1_555
O19 H12 1_555 1_555
H13 O19 1_555 1_555
O20 H14 1_555 1_555
H15 O20 1_555 1_555
O21 H16 1_555 1_555
O22 H17 1_555 1_555
H18 O22 1_555 1_555
O24 H21 1_555 1_555
H22 O24 1_555 1_555
N1 C2 1_555 1_555
N2 Cu1 1_555 1_555
N3 Cu2 1_555 1_555
C1 C2 1_555 1_555
C2 C3 1_555 1_555
C3 C4 1_555 1_555
C4 O3 1_555 1_555
C5 C3 1_555 1_555
H23 C5 1_555 1_555
C6 C5 1_555 1_555
H24 C6 1_555 1_555
C7 N1 1_555 1_555
H25 C7 1_555 1_555
C8 C9 1_555 1_555
C9 N2 1_555 1_555
C10 C9 1_555 1_555
C11 O7 1_555 1_555
C12 C10 1_555 1_555
H26 C12 1_555 1_555
C13 C12 1_555 1_555
H27 C13 1_555 1_555
C14 N2 1_555 1_555
H28 C14 1_555 1_555
C15 O9 1_555 1_555
C16 N3 1_555 1_555
C17 C16 1_555 1_555
C18 O11 1_555 1_555
C19 C17 1_555 1_555
H29 C19 1_555 1_555
C20 C19 1_555 1_555
H30 C20 1_555 1_555
C21 N3 1_555 1_555
H31 C21 1_555 1_555
H32 O15 1_555 1_555
H33 O21 1_555 1_555
La1A O1A_2 1_555 1_555
La1A_2 O1A 1_555 1_555
Cu1A O2_2 1_555 1_555
Cu1A_2 O2 1_555 1_555
O1A C1A 1_555 1_555
O2A Cu1 1_555 1_555
O3A La1A_2 1_555 1_555
O3A_2 La1A 1_555 1_555
O4A C4A 1_555 1_555
O5A Cu1A 1_555 1_555
O6A C8A 1_555 1_555
O7A La1A 1_555 1_555
O8A Cu2 1_555 1_555
O9A Cu2 1_555 1_555
O10A C15A 1_555 1_555
O11A Cu1A 1_555 1_555
O12A C18A 1_555 1_555
O13A La1A 1_555 1_555
H1A O13A 1_555 1_555
H2A O13A 1_555 1_555
O14A La1A 1_555 1_555
H3A O14A 1_555 1_555
H4A O14A 1_555 1_555
O15A La1A 1_555 1_555
H5A O15A 1_555 1_555
O16A La1A 1_555 1_555
H6A O16A 1_555 1_555
H7A O16A 1_555 1_555
O17A La1A 1_555 1_555
H8A O17A 1_555 1_555
H9A O17A 1_555 1_555
O18A La1A 1_555 1_555
H10A O18A 1_555 1_555
H11A O18A 1_555 1_555
N1A Cu1 1_555 1_555
N1_2 Cu1A 1_555 1_555
N2A Cu1A 1_555 1_555
N3A Cu2 1_555 1_555
C1A O2A 1_555 1_555
C2A N1A 1_555 1_555
C3A C2A 1_555 1_555
C4A O3A 1_555 1_555
C5A C3A 1_555 1_555
H23A C5A 1_555 1_555
C6A C5A 1_555 1_555
H24A C6A 1_555 1_555
C7A N1A 1_555 1_555
H25A C7A 1_555 1_555
C8A O5A 1_555 1_555
C9A N2A 1_555 1_555
C10A C9A 1_555 1_555
C11A O7A 1_555 1_555
C12A C10A 1_555 1_555
H26A C12A 1_555 1_555
C13A C12A 1_555 1_555
H27A C13A 1_555 1_555
C14A N2A 1_555 1_555
H28A C14A 1_555 1_555
C15A O9A 1_555 1_555
C16A N3A 1_555 1_555
C17A C16A 1_555 1_555
C18A O11A 1_555 1_555
C19A C17A 1_555 1_555
H29A C19A 1_555 1_555
C20A C19A 1_555 1_555
H30A C20A 1_555 1_555
C21A N3A 1_555 1_555
H31A C21A 1_555 1_555
H32A O15A 1_555 1_555
N1 Cu1A_2 1_555 1_555
C6 C7 1_555 1_555
C10 C11 1_555 1_555
C13 C14 1_555 1_555
C15 C16 1_555 1_555
C17 C18 1_555 1_555
C20 C21 1_555 1_555
O8A C11A 1_555 1_555
C1A C2A 1_555 1_555
C3A C4A 1_555 1_555
C6A C7A 1_555 1_555
C8A C9A 1_555 1_555
C10A C11A 1_555 1_555
C13A C14A 1_555 1_555
C15A C16A 1_555 1_555
C17A C18A 1_555 1_555
C20A C21A 1_555 1_555

#END
