
#######################################################################
#
#                 Cambridge Crystallographic Data Centre
#                                CCDC 
#
#######################################################################
#
# If this CIF has been generated from an entry in the Cambridge 
# Structural Database, then it will include bibliographic, chemical, 
# crystal, experimental, refinement or atomic coordinate data resulting 
# from the CCDC's data processing and validation procedures.
#
#######################################################################

data_XEJQEK
_symmetry_cell_setting           monoclinic
_symmetry_space_group_name_H-M   'P 21/n'
_symmetry_Int_Tables_number      14
_space_group_name_Hall           '-P 2yn'
loop_
_symmetry_equiv_pos_site_id
_symmetry_equiv_pos_as_xyz
1 x,y,z
2 1/2-x,1/2+y,1/2-z
3 -x,-y,-z
4 1/2+x,1/2-y,1/2+z
_cell_length_a                   11.7154(14)
_cell_length_b                   13.1026(16)
_cell_length_c                   19.534(2)
_cell_angle_alpha                90
_cell_angle_beta                 96.545(1)
_cell_angle_gamma                90
_cell_volume                     2978.97
loop_
_atom_site_label
_atom_site_type_symbol
_atom_site_fract_x
_atom_site_fract_y
_atom_site_fract_z
Er1 Er -0.129958(13) 0.062700(12) 0.650520(8)
Cu1 Cu 0.16031(4) 0.41745(4) 0.84479(3)
Cu2 Cu 0.0000 0.0000 1.0000
O1 O 0.1796(2) -0.03953(18) 0.65255(15)
O2 O 0.06806(19) 0.09673(19) 0.65337(14)
O3 O 0.1222(2) 0.2978(2) 0.59565(15)
O4 O 0.1410(2) 0.3533(2) 0.70335(15)
O5 O 0.00043(19) 0.37529(18) 0.83989(13)
O6 O -0.10792(19) 0.2364(2) 0.83991(13)
O7 O -0.0667(2) 0.04892(19) 0.76328(13)
O8 O -0.0355(2) -0.0105(2) 0.86935(13)
O9 O -0.15755(19) -0.04759(17) 0.99666(13)
O10 O -0.26239(19) -0.18844(19) 0.99016(12)
O11 O -0.1905(2) -0.42374(19) 1.02898(13)
O12 O -0.2009(2) -0.39159(19) 0.91629(12)
O13 O -0.2270(2) 0.1807(2) 0.71409(13)
H1 H -0.2498(13) 0.2379(5) 0.6987(7)
H2 H -0.1889(10) 0.1802(16) 0.7532(4)
O14 O -0.0930(2) 0.2192(2) 0.60247(15)
H3 H -0.1379(7) 0.2654(6) 0.5861(9)
H4 H -0.0481(6) 0.1960(10) 0.5756(5)
O15 O -0.2653(2) -0.0502(2) 0.68380(13)
H5 H -0.3153(8) -0.0724(12) 0.6529(4)
H6 H -0.2921(8) -0.0366(11) 0.7211(3)
O16 O -0.1119(2) 0.0017(2) 0.53939(14)
H7 H -0.1643(7) 0.0174(11) 0.5083(5)
H8 H -0.0785(8) -0.0545(5) 0.5356(13)
O17 O -0.0420(2) -0.1014(2) 0.66477(15)
H9 H 0.0287(5) -0.0871(13) 0.6691(11)
H10 H -0.0628(12) -0.1385(6) 0.6301(4)
N1 N 0.3671(2) 0.0648(2) 0.67298(17)
N2 N 0.1905(2) 0.2709(2) 0.84940(15)
N3 N 0.0343(2) -0.1465(2) 0.99721(15)
C1 C 0.1644(3) 0.0569(3) 0.65572(18)
C2 C 0.2704(3) 0.1207(3) 0.66573(18)
C3 C 0.2725(3) 0.2263(3) 0.6710(2)
C4 C 0.1682(3) 0.2978(3) 0.6569(2)
C5 C 0.3801(3) 0.2715(3) 0.6871(2)
H11 H 0.3852 0.3420 0.6919
C6 C 0.4782(3) 0.2142(3) 0.6958(2)
H12 H 0.5491 0.2454 0.7074
C7 C 0.4710(3) 0.1096(3) 0.6872(2)
H13 H 0.5374 0.0702 0.6913
C8 C -0.0154(3) 0.2781(3) 0.83946(17)
C9 C 0.0929(3) 0.2158(3) 0.84004(17)
C10 C 0.0952(3) 0.1095(3) 0.83426(17)
C11 C -0.0117(3) 0.0439(3) 0.82154(19)
C12 C 0.2022(3) 0.0629(3) 0.8402(2)
H14 H 0.2072 -0.0078 0.8380
C13 C 0.3012(3) 0.1205(3) 0.8493(2)
H15 H 0.3729 0.0895 0.8515
C14 C 0.2919(3) 0.2235(3) 0.8550(2)
H16 H 0.3586 0.2623 0.8630
C15 C -0.1700(3) -0.1441(3) 0.99277(17)
C16 C -0.0594(3) -0.2045(3) 0.99192(17)
C17 C -0.0554(3) -0.3095(3) 0.98850(18)
C18 C -0.1593(3) -0.3791(3) 0.97759(19)
C19 C 0.0527(3) -0.3543(3) 0.98985(19)
H17 H 0.0594 -0.4248 0.9868
C20 C 0.1492(3) -0.2944(3) 0.9957(2)
H18 H 0.2218 -0.3237 0.9977
C21 C 0.1371(3) -0.1912(3) 0.99859(18)
H19 H 0.2024 -0.1504 1.0016
Er1B Er 0.129958(13) -0.062700(12) 1.349480(8)
Er1A Er -0.370042(13) -0.437300(12) 0.849480(8)
Er1C Er 0.370042(13) 0.437300(12) 1.150520(8)
Er1A_2 Er 0.629958(13) 0.562700(12) 0.849480(8)
Cu1B Cu -0.16031(4) -0.41745(4) 1.15521(3)
Cu1A Cu 0.33969(4) -0.08255(4) 0.65521(3)
O1A O 0.3204(2) 0.46047(18) 0.84745(15)
O1C O -0.3204(2) -0.46047(18) 1.15255(15)
O2A O 0.43194(19) 0.59673(19) 0.84663(14)
O2B O -0.06806(19) -0.09673(19) 1.34663(14)
O3A O 0.3778(2) 0.7978(2) 0.90435(15)
O4A O 0.3590(2) 0.8533(2) 0.79665(15)
O5B O -0.00043(19) -0.37529(18) 1.16011(13)
O6B O 0.10792(19) -0.2364(2) 1.16009(13)
O7B O 0.0667(2) -0.04892(19) 1.23672(13)
O8B O 0.0355(2) 0.0105(2) 1.13065(13)
O9B O 0.15755(19) 0.04759(17) 1.00334(13)
O10B O 0.26239(19) 0.18844(19) 1.00984(12)
O11B O 0.1905(2) 0.42374(19) 0.97102(13)
O12B O 0.2009(2) 0.39159(19) 1.08371(12)
O12A O -0.2991(2) 0.10841(19) 0.58371(12)
O12C O 0.2991(2) -0.10841(19) 1.41629(12)
O13B O 0.2270(2) -0.1807(2) 1.28591(13)
H1B H 0.2498(13) -0.2379(5) 1.3013(7)
H2B H 0.1889(10) -0.1802(16) 1.2468(4)
O14B O 0.0930(2) -0.2192(2) 1.39753(15)
H3B H 0.1379(7) -0.2654(6) 1.4139(9)
H4B H 0.0481(6) -0.1960(10) 1.4244(5)
O15B O 0.2653(2) 0.0502(2) 1.31620(13)
H5B H 0.3153(8) 0.0724(12) 1.3471(4)
H6B H 0.2921(8) 0.0366(11) 1.2789(3)
O16B O 0.1119(2) -0.0017(2) 1.46061(14)
H7B H 0.1643(7) -0.0174(11) 1.4917(5)
H8B H 0.0785(8) 0.0545(5) 1.4644(13)
O17B O 0.0420(2) 0.1014(2) 1.33523(15)
H9B H -0.0287(5) 0.0871(13) 1.3309(11)
H10B H 0.0628(12) 0.1385(6) 1.3699(4)
N1A N 0.1329(2) 0.5648(2) 0.82702(17)
N1C N -0.1329(2) -0.5648(2) 1.17298(17)
N2B N -0.1905(2) -0.2709(2) 1.15060(15)
N3B N -0.0343(2) 0.1465(2) 1.00279(15)
C1A C 0.3356(3) 0.5569(3) 0.84428(18)
C2A C 0.2296(3) 0.6207(3) 0.83427(18)
C3A C 0.2275(3) 0.7263(3) 0.8290(2)
C4A C 0.3318(3) 0.7978(3) 0.8431(2)
C5A C 0.1199(3) 0.7715(3) 0.8129(2)
H11A H 0.1148 0.8420 0.8081
C6A C 0.0218(3) 0.7142(3) 0.8042(2)
H12A H -0.0491 0.7454 0.7926
C7A C 0.0290(3) 0.6096(3) 0.8128(2)
H13A H -0.0374 0.5702 0.8087
C8B C 0.0154(3) -0.2781(3) 1.16054(17)
C9B C -0.0929(3) -0.2158(3) 1.15996(17)
C10B C -0.0952(3) -0.1095(3) 1.16574(17)
C11B C 0.0117(3) -0.0439(3) 1.17846(19)
C12B C -0.2022(3) -0.0629(3) 1.1598(2)
H14B H -0.2072 0.0078 1.1620
C13B C -0.3012(3) -0.1205(3) 1.1507(2)
H15B H -0.3729 -0.0895 1.1485
C14B C -0.2919(3) -0.2235(3) 1.1450(2)
H16B H -0.3586 -0.2623 1.1370
C15B C 0.1700(3) 0.1441(3) 1.00723(17)
C16B C 0.0594(3) 0.2045(3) 1.00808(17)
C17B C 0.0554(3) 0.3095(3) 1.01150(18)
C18B C 0.1593(3) 0.3791(3) 1.02241(19)
C19B C -0.0527(3) 0.3543(3) 1.01015(19)
H17B H -0.0594 0.4248 1.0132
C20B C -0.1492(3) 0.2944(3) 1.0043(2)
H18B H -0.2218 0.3237 1.0023
C21B C -0.1371(3) 0.1912(3) 1.00141(18)
H19B H -0.2024 0.1504 0.9984
O18 O 0.8955(4) 0.5327(3) 0.5160(2)
H20 H 0.9180(13) 0.5928(5) 0.5078(8)
H21 H 0.8875(18) 0.5239(14) 0.5583(3)
O19 O 0.7654(2) 0.8839(2) 0.81837(15)
H22 H 0.8169(6) 0.9241(7) 0.8091(8)
H23 H 0.7199(6) 0.9037(13) 0.8458(4)
O20 O 0.5579(3) 0.9716(3) 0.84373(19)
H24 H 0.5953(7) 0.9801(16) 0.8097(4)
H25 H 0.5071(6) 0.9252(6) 0.8369(12)
O21 O 0.9592(4) 0.8021(4) 0.5247(3)
H26 H 0.9203(9) 0.7711(9) 0.4928(5)
H27 H 1.0154(6) 0.8365(9) 0.5153(10)
O22 O 0.8507(3) 0.7103(3) 0.63900(16)
H28 H 0.8966(8) 0.6653(7) 0.6565(6)
H29 H 0.8605(17) 0.7275(11) 0.5983(3)
loop_
_geom_bond_atom_site_label_1
_geom_bond_atom_site_label_2
_geom_bond_site_symmetry_1
_geom_bond_site_symmetry_2
Er1 O2 1_555 1_555
Cu1 O5 1_555 1_555
Cu2 O8 1_555 1_555
O1 C1 1_555 1_555
O2 C1 1_555 1_555
O3 C4 1_555 1_555
O4 C4 1_555 1_555
O5 C8 1_555 1_555
O6 C8 1_555 1_555
O7 Er1 1_555 1_555
O8 C11 1_555 1_555
O9 Cu2 1_555 1_555
O10 C15 1_555 1_555
O11 C18 1_555 1_555
O12 C18 1_555 1_555
O13 Er1 1_555 1_555
H1 O13 1_555 1_555
H2 O13 1_555 1_555
O14 Er1 1_555 1_555
H3 O14 1_555 1_555
H4 O14 1_555 1_555
O15 Er1 1_555 1_555
H5 O15 1_555 1_555
H6 O15 1_555 1_555
O16 Er1 1_555 1_555
H7 O16 1_555 1_555
H8 O16 1_555 1_555
O17 Er1 1_555 1_555
H9 O17 1_555 1_555
H10 O17 1_555 1_555
N1 C2 1_555 1_555
N2 Cu1 1_555 1_555
N3 Cu2 1_555 1_555
C1 C2 1_555 1_555
C2 C3 1_555 1_555
C3 C4 1_555 1_555
C5 C3 1_555 1_555
H11 C5 1_555 1_555
C6 C5 1_555 1_555
H12 C6 1_555 1_555
C7 N1 1_555 1_555
H13 C7 1_555 1_555
C8 C9 1_555 1_555
C9 N2 1_555 1_555
C10 C9 1_555 1_555
C11 O7 1_555 1_555
C12 C10 1_555 1_555
H14 C12 1_555 1_555
C13 C12 1_555 1_555
H15 C13 1_555 1_555
C14 N2 1_555 1_555
H16 C14 1_555 1_555
C15 O9 1_555 1_555
C16 N3 1_555 1_555
C17 C16 1_555 1_555
C18 C17 1_555 1_555
C19 C17 1_555 1_555
H17 C19 1_555 1_555
C20 C19 1_555 1_555
H18 C20 1_555 1_555
C21 N3 1_555 1_555
H19 C21 1_555 1_555
O18 H20 1_555 1_555
H21 O18 1_555 1_555
O19 H22 1_555 1_555
H23 O19 1_555 1_555
O20 H24 1_555 1_555
H25 O20 1_555 1_555
O21 H26 1_555 1_555
H27 O21 1_555 1_555
O22 H28 1_555 1_555
H29 O22 1_555 1_555
Er1B O2B 1_555 1_555
Er1A O12 1_555 1_555
Er1C O12B 1_555 1_555
Er1A_2 O2A 1_555 1_555
Cu1B O11 1_555 1_555
Cu1A O1 1_555 1_555
O1A Cu1 1_555 1_555
O1C Cu1B 1_555 1_555
O2A C1A 1_555 1_555
O3A C4A 1_555 1_555
O4A C4A 1_555 1_555
O5B Cu1B 1_555 1_555
O6B C8B 1_555 1_555
O7B Er1B 1_555 1_555
O8B Cu2 1_555 1_555
O9B Cu2 1_555 1_555
O10B C15B 1_555 1_555
O11B Cu1 1_555 1_555
O12B C18B 1_555 1_555
O12A Er1 1_555 1_555
O12C Er1B 1_555 1_555
O13B Er1B 1_555 1_555
H1B O13B 1_555 1_555
H2B O13B 1_555 1_555
O14B Er1B 1_555 1_555
H3B O14B 1_555 1_555
H4B O14B 1_555 1_555
O15B Er1B 1_555 1_555
H5B O15B 1_555 1_555
H6B O15B 1_555 1_555
O16B Er1B 1_555 1_555
H7B O16B 1_555 1_555
H8B O16B 1_555 1_555
O17B Er1B 1_555 1_555
H9B O17B 1_555 1_555
H10B O17B 1_555 1_555
N1A Cu1 1_555 1_555
N1C Cu1B 1_555 1_555
N2B Cu1B 1_555 1_555
N3B Cu2 1_555 1_555
C1A O1A 1_555 1_555
C2A N1A 1_555 1_555
C3A C2A 1_555 1_555
C4A C3A 1_555 1_555
C5A C3A 1_555 1_555
H11A C5A 1_555 1_555
C6A C5A 1_555 1_555
H12A C6A 1_555 1_555
C7A N1A 1_555 1_555
H13A C7A 1_555 1_555
C8B O5B 1_555 1_555
C9B N2B 1_555 1_555
C10B C9B 1_555 1_555
C11B O7B 1_555 1_555
C12B C10B 1_555 1_555
H14B C12B 1_555 1_555
C13B C12B 1_555 1_555
H15B C13B 1_555 1_555
C14B N2B 1_555 1_555
H16B C14B 1_555 1_555
C15B O9B 1_555 1_555
C16B N3B 1_555 1_555
C17B C16B 1_555 1_555
C18B O11B 1_555 1_555
C19B C17B 1_555 1_555
H17B C19B 1_555 1_555
C20B C19B 1_555 1_555
H18B C20B 1_555 1_555
C21B N3B 1_555 1_555
H19B C21B 1_555 1_555
N1 Cu1A 1_555 1_555
C6 C7 1_555 1_555
C10 C11 1_555 1_555
C13 C14 1_555 1_555
C15 C16 1_555 1_555
C20 C21 1_555 1_555
O8B C11B 1_555 1_555
C1A C2A 1_555 1_555
C6A C7A 1_555 1_555
C8B C9B 1_555 1_555
C10B C11B 1_555 1_555
C13B C14B 1_555 1_555
C15B C16B 1_555 1_555
C17B C18B 1_555 1_555
C20B C21B 1_555 1_555

#END
