
#######################################################################
#
#                 Cambridge Crystallographic Data Centre
#                                CCDC 
#
#######################################################################
#
# If this CIF has been generated from an entry in the Cambridge 
# Structural Database, then it will include bibliographic, chemical, 
# crystal, experimental, refinement or atomic coordinate data resulting 
# from the CCDC's data processing and validation procedures.
#
#######################################################################

data_XEJRAH
_symmetry_cell_setting           triclinic
_symmetry_space_group_name_H-M   'P -1'
_symmetry_Int_Tables_number      2
_space_group_name_Hall           '-P 1'
loop_
_symmetry_equiv_pos_site_id
_symmetry_equiv_pos_as_xyz
1 x,y,z
2 -x,-y,-z
_cell_length_a                   7.717(4)
_cell_length_b                   10.129(6)
_cell_length_c                   20.476(11)
_cell_angle_alpha                80.309(7)
_cell_angle_beta                 88.798(7)
_cell_angle_gamma                79.428(7)
_cell_volume                     1550.82
loop_
_atom_site_label
_atom_site_type_symbol
_atom_site_fract_x
_atom_site_fract_y
_atom_site_fract_z
Sm1 Sm -0.21373(3) -1.17564(2) 0.719528(12)
Cu1 Cu -0.36153(8) -1.51345(6) 1.08494(3)
Cu2 Cu 0.0000 -0.5000 0.5000
O1 O -0.3254(5) -1.3445(4) 1.03078(17)
O2 O -0.1815(5) -1.2636(3) 0.94222(17)
O3 O -0.1589(4) -1.3694(3) 0.81069(16)
O4 O 0.1158(4) -1.4291(4) 0.84908(17)
O5 O -0.5694(4) -1.3217(3) 0.86551(17)
O6 O -0.4904(5) -1.2345(4) 0.76583(18)
O7 O -0.2740(5) -1.3474(4) 0.66674(19)
O8 O -0.4962(7) -1.4125(6) 0.6232(3)
O9 O -0.0872(5) -0.9686(3) 0.69972(17)
O10 O 0.2027(5) -1.0261(4) 0.6870(2)
O11 O -0.0013(6) -0.8929(4) 0.55005(19)
O12 O -0.0081(7) -0.6870(4) 0.49098(19)
O13 O -0.1855(5) -1.0900(4) 0.8242(2)
H1 H -0.1167(8) -1.0338(7) 0.8202(6)
H2 H -0.2873(7) -1.0649(15) 0.8388(5)
O14 O 0.1010(4) -1.2638(3) 0.72711(15)
H3 H 0.1487(12) -1.1955(7) 0.7155(9)
H4 H 0.125(3) -1.3080(12) 0.7653(3)
O15 O -0.4563(4) -0.9932(3) 0.67994(18)
H5 H -0.5608(7) -1.0033(16) 0.6878(11)
H6 H -0.4421(18) -0.9316(9) 0.6483(5)
O16 O -0.1238(5) -1.1295(3) 0.60389(16)
H7 H -0.1500(18) -1.1784(7) 0.5776(4)
H8 H -0.111(2) -1.0502(6) 0.5872(9)
O18 O -0.3338(7) -0.4653(5) 0.5090(4)
H11 H -0.340(2) -0.3815(6) 0.5086(17)
H12 H -0.4271(9) -0.4910(11) 0.5004(13)
N1 N -0.2585(5) -1.5927(4) 1.00817(19)
N2 N -0.5131(5) -1.5703(4) 0.8433(2)
N3 N 0.0500(6) -0.5801(4) 0.5934(2)
C1 C -0.2369(6) -1.3565(5) 0.9782(2)
C2 C -0.1986(6) -1.4989(5) 0.9614(2)
C3 C -0.1053(6) -1.5365(5) 0.9063(2)
C4 C -0.0450(6) -1.4352(5) 0.8522(2)
C5 C -0.0736(7) -1.6732(5) 0.9016(3)
H19 H -0.0087 -1.7018 0.8661
C6 C -0.1355(8) -1.7689(6) 0.9482(3)
H20 H -0.1152 -1.8606 0.9442
C7 C -0.2290(8) -1.7227(5) 1.0010(3)
H21 H -0.2726 -1.7852 1.0326
C8 C -0.5146(6) -1.3340(5) 0.8078(2)
C9 C -0.4786(6) -1.4767(5) 0.7917(3)
C10 C -0.4215(7) -1.5141(6) 0.7319(3)
C11 C -0.3970(8) -1.4148(7) 0.6696(3)
C12 C -0.3917(9) -1.6500(7) 0.7274(3)
H22 H -0.3533 -1.6775 0.6876
C13 C -0.4180(9) -1.7467(6) 0.7812(3)
H23 H -0.3920 -1.8392 0.7791
C14 C -0.4833(8) -1.7016(6) 0.8374(3)
H24 H -0.5081 -1.7650 0.8731
C15 C 0.0073(9) -0.7719(5) 0.5454(3)
C16 C 0.0433(7) -0.7158(5) 0.6064(3)
C17 C 0.0741(6) -0.7921(5) 0.6693(2)
C18 C 0.0613(7) -0.9412(5) 0.6858(2)
C19 C 0.1230(8) -0.7261(6) 0.7187(3)
H25 H 0.1490 -0.7745 0.7611
C20 C 0.1332(8) -0.5899(5) 0.7051(3)
H26 H 0.1642 -0.5456 0.7382
C21 C 0.0965(8) -0.5209(5) 0.6417(3)
H27 H 0.1047 -0.4292 0.6323
Sm1A Sm 0.21373(3) 0.17564(2) 0.280472(12)
Cu1A Cu 0.36153(8) 0.51345(6) -0.08494(3)
Cu1A_2 Cu 0.36153(8) -1.48655(6) 0.91506(3)
Cu1A_3 Cu -0.63847(8) -1.48655(6) 0.91506(3)
Cu1_2 Cu -0.36153(8) 0.48655(6) 0.08494(3)
Cu1_3 Cu 0.63847(8) 0.48655(6) 0.08494(3)
O1A O 0.3254(5) 0.3445(4) -0.03078(17)
O2A O 0.1815(5) 0.2636(3) 0.05778(17)
O3A O 0.1589(4) 0.3694(3) 0.18931(16)
O4A O -0.1158(4) 0.4291(4) 0.15092(17)
O4A_2 O -0.1158(4) -1.5709(4) 1.15092(17)
O4_2 O 0.1158(4) 0.5709(4) -0.15092(17)
O5A O 0.5694(4) 0.3217(3) 0.13449(17)
O5A_2 O -0.4306(4) -1.6783(3) 1.13449(17)
O5_2 O 0.4306(4) 0.6783(3) -0.13449(17)
O6A O 0.4904(5) 0.2345(4) 0.23417(18)
O7A O 0.2740(5) 0.3474(4) 0.33326(19)
O8A O 0.4962(7) 0.4125(6) 0.3768(3)
O9A O 0.0872(5) -0.0314(3) 0.30028(17)
O10A O -0.2027(5) 0.0261(4) 0.3130(2)
O11A O 0.0013(6) -0.1071(4) 0.44995(19)
O12A O 0.0081(7) -0.3130(4) 0.50902(19)
O13A O 0.1855(5) 0.0900(4) 0.1758(2)
H1A H 0.1167(8) 0.0338(7) 0.1798(6)
H2A H 0.2873(7) 0.0649(15) 0.1612(5)
O14A O -0.1010(4) 0.2638(3) 0.27289(15)
H3A H -0.1487(12) 0.1955(7) 0.2845(9)
H4A H -0.125(3) 0.3080(12) 0.2347(3)
O15A O 0.4563(4) -0.0068(3) 0.32006(18)
H5A H 0.5608(7) 0.0033(16) 0.3122(11)
H6A H 0.4421(18) -0.0684(9) 0.3517(5)
O16A O 0.1238(5) 0.1295(3) 0.39611(16)
H7A H 0.1500(18) 0.1784(7) 0.4224(4)
H8A H 0.111(2) 0.0502(6) 0.4128(9)
O18A O 0.3338(7) -0.5347(5) 0.4910(4)
H11A H 0.340(2) -0.6185(6) 0.4914(17)
H12A H 0.4271(9) -0.5090(11) 0.4996(13)
N1A N 0.2585(5) 0.5927(4) -0.00817(19)
N2A N 0.5131(5) 0.5703(4) 0.1567(2)
N2A_2 N -0.4869(5) -1.4297(4) 1.1567(2)
N2_2 N 0.4869(5) 0.4297(4) -0.1567(2)
N3A N -0.0500(6) -0.4199(4) 0.4066(2)
C1A C 0.2369(6) 0.3565(5) 0.0218(2)
C2A C 0.1986(6) 0.4989(5) 0.0386(2)
C3A C 0.1053(6) 0.5365(5) 0.0937(2)
C4A C 0.0450(6) 0.4352(5) 0.1478(2)
C5A C 0.0736(7) 0.6732(5) 0.0984(3)
H19A H 0.0087 0.7018 0.1339
C6A C 0.1355(8) 0.7689(6) 0.0518(3)
H20A H 0.1152 0.8606 0.0558
C7A C 0.2290(8) 0.7227(5) -0.0010(3)
H21A H 0.2726 0.7852 -0.0326
C8A C 0.5146(6) 0.3340(5) 0.1922(2)
C9A C 0.4786(6) 0.4767(5) 0.2083(3)
C10A C 0.4215(7) 0.5141(6) 0.2681(3)
C11A C 0.3970(8) 0.4148(7) 0.3304(3)
C12A C 0.3917(9) 0.6500(7) 0.2726(3)
H22A H 0.3533 0.6775 0.3124
C13A C 0.4180(9) 0.7467(6) 0.2188(3)
H23A H 0.3920 0.8392 0.2209
C14A C 0.4833(8) 0.7016(6) 0.1626(3)
H24A H 0.5081 0.7650 0.1269
C15A C -0.0073(9) -0.2281(5) 0.4546(3)
C16A C -0.0433(7) -0.2842(5) 0.3936(3)
C17A C -0.0741(6) -0.2079(5) 0.3307(2)
C18A C -0.0613(7) -0.0588(5) 0.3142(2)
C19A C -0.1230(8) -0.2739(6) 0.2813(3)
H25A H -0.1490 -0.2255 0.2389
C20A C -0.1332(8) -0.4101(5) 0.2949(3)
H26A H -0.1642 -0.4544 0.2618
C21A C -0.0965(8) -0.4791(5) 0.3583(3)
H27A H -0.1047 -0.5708 0.3677
O17 O 0.7045(6) 0.1366(6) 0.4469(3)
H9 H 0.6067(8) 0.147(3) 0.4657(6)
H10 H 0.7323(16) 0.2031(9) 0.4216(7)
O19 O 0.5408(7) 0.2262(6) 0.5786(3)
H13 H 0.542(2) 0.1869(10) 0.5455(4)
H14 H 0.6384(8) 0.2373(16) 0.5919(7)
O20 O 0.7833(3) -0.0119(3) 0.14029(14)
H15 H 0.6745(6) 0.001(3) 0.1449(13)
H16 H 0.8504(9) 0.0224(10) 0.1605(6)
O21 O 0.6929(6) 0.9602(8) 0.0309(2)
H17 H 0.6489(14) 0.975(5) -0.0075(3)
H18 H 0.7962(9) 0.9159(19) 0.0355(11)
loop_
_geom_bond_atom_site_label_1
_geom_bond_atom_site_label_2
_geom_bond_site_symmetry_1
_geom_bond_site_symmetry_2
Sm1 O3 1_555 1_555
Cu1 O1 1_555 1_555
Cu2 O12 1_555 1_555
O1 C1 1_555 1_555
O2 C1 1_555 1_555
O3 C4 1_555 1_555
O4 C4 1_555 1_555
O5 C8 1_555 1_555
O6 Sm1 1_555 1_555
O7 Sm1 1_555 1_555
O8 C11 1_555 1_555
O9 Sm1 1_555 1_555
O10 C18 1_555 1_555
O11 C15 1_555 1_555
O12 C15 1_555 1_555
O13 Sm1 1_555 1_555
H1 O13 1_555 1_555
H2 O13 1_555 1_555
O14 Sm1 1_555 1_555
H3 O14 1_555 1_555
H4 O14 1_555 1_555
O15 Sm1 1_555 1_555
H5 O15 1_555 1_555
H6 O15 1_555 1_555
O16 Sm1 1_555 1_555
H7 O16 1_555 1_555
H8 O16 1_555 1_555
O17 H9 1_555 1_555
H10 O17 1_555 1_555
O18 Cu2 1_555 1_555
H11 O18 1_555 1_555
H12 O18 1_555 1_555
O19 H13 1_555 1_555
H14 O19 1_555 1_555
O20 H15 1_555 1_555
H16 O20 1_555 1_555
O21 H17 1_555 1_555
H18 O21 1_555 1_555
N1 Cu1 1_555 1_555
N2 C9 1_555 1_555
N3 Cu2 1_555 1_555
C1 C2 1_555 1_555
C2 N1 1_555 1_555
C3 C2 1_555 1_555
C4 C3 1_555 1_555
C5 C3 1_555 1_555
H19 C5 1_555 1_555
C6 C5 1_555 1_555
H20 C6 1_555 1_555
C7 N1 1_555 1_555
H21 C7 1_555 1_555
C8 O6 1_555 1_555
C9 C8 1_555 1_555
C10 C9 1_555 1_555
C11 O7 1_555 1_555
C12 C10 1_555 1_555
H22 C12 1_555 1_555
C13 C12 1_555 1_555
H23 C13 1_555 1_555
C14 N2 1_555 1_555
H24 C14 1_555 1_555
C15 C16 1_555 1_555
C16 N3 1_555 1_555
C17 C16 1_555 1_555
C18 O9 1_555 1_555
C19 C17 1_555 1_555
H25 C19 1_555 1_555
C20 C19 1_555 1_555
H26 C20 1_555 1_555
C21 N3 1_555 1_555
H27 C21 1_555 1_555
Sm1A O3A 1_555 1_555
Cu1A O1A 1_555 1_555
Cu1A_2 O4 1_555 1_555
Cu1A_3 O5 1_555 1_555
Cu1_2 O4A 1_555 1_555
Cu1_3 O5A 1_555 1_555
O1A C1A 1_555 1_555
O2A C1A 1_555 1_555
O3A C4A 1_555 1_555
O4A C4A 1_555 1_555
O4A_2 Cu1 1_555 1_555
O4_2 Cu1A 1_555 1_555
O5A C8A 1_555 1_555
O5A_2 Cu1 1_555 1_555
O5_2 Cu1A 1_555 1_555
O6A Sm1A 1_555 1_555
O7A Sm1A 1_555 1_555
O8A C11A 1_555 1_555
O9A Sm1A 1_555 1_555
O10A C18A 1_555 1_555
O11A C15A 1_555 1_555
O12A Cu2 1_555 1_555
O13A Sm1A 1_555 1_555
H1A O13A 1_555 1_555
H2A O13A 1_555 1_555
O14A Sm1A 1_555 1_555
H3A O14A 1_555 1_555
H4A O14A 1_555 1_555
O15A Sm1A 1_555 1_555
H5A O15A 1_555 1_555
H6A O15A 1_555 1_555
O16A Sm1A 1_555 1_555
H7A O16A 1_555 1_555
H8A O16A 1_555 1_555
O18A Cu2 1_555 1_555
H11A O18A 1_555 1_555
H12A O18A 1_555 1_555
N1A Cu1A 1_555 1_555
N2A Cu1_3 1_555 1_555
N2A_2 Cu1 1_555 1_555
N2_2 Cu1A 1_555 1_555
N3A Cu2 1_555 1_555
C1A C2A 1_555 1_555
C2A N1A 1_555 1_555
C3A C2A 1_555 1_555
C4A C3A 1_555 1_555
C5A C3A 1_555 1_555
H19A C5A 1_555 1_555
C6A C5A 1_555 1_555
H20A C6A 1_555 1_555
C7A N1A 1_555 1_555
H21A C7A 1_555 1_555
C8A O6A 1_555 1_555
C9A N2A 1_555 1_555
C10A C9A 1_555 1_555
C11A O7A 1_555 1_555
C12A C10A 1_555 1_555
H22A C12A 1_555 1_555
C13A C12A 1_555 1_555
H23A C13A 1_555 1_555
C14A N2A 1_555 1_555
H24A C14A 1_555 1_555
C15A O12A 1_555 1_555
C16A N3A 1_555 1_555
C17A C16A 1_555 1_555
C18A O9A 1_555 1_555
C19A C17A 1_555 1_555
H25A C19A 1_555 1_555
C20A C19A 1_555 1_555
H26A C20A 1_555 1_555
C21A N3A 1_555 1_555
H27A C21A 1_555 1_555
N2 Cu1A_3 1_555 1_555
C6 C7 1_555 1_555
C10 C11 1_555 1_555
C13 C14 1_555 1_555
C17 C18 1_555 1_555
C20 C21 1_555 1_555
C6A C7A 1_555 1_555
C8A C9A 1_555 1_555
C10A C11A 1_555 1_555
C13A C14A 1_555 1_555
C15A C16A 1_555 1_555
C17A C18A 1_555 1_555
C20A C21A 1_555 1_555

#END
