
#######################################################################
#
#                 Cambridge Crystallographic Data Centre
#                                CCDC 
#
#######################################################################
#
# If this CIF has been generated from an entry in the Cambridge 
# Structural Database, then it will include bibliographic, chemical, 
# crystal, experimental, refinement or atomic coordinate data resulting 
# from the CCDC's data processing and validation procedures.
#
#######################################################################

data_XEJROV
_symmetry_cell_setting           triclinic
_symmetry_space_group_name_H-M   'P -1'
_symmetry_Int_Tables_number      2
_space_group_name_Hall           '-P 1'
loop_
_symmetry_equiv_pos_site_id
_symmetry_equiv_pos_as_xyz
1 x,y,z
2 -x,-y,-z
_cell_length_a                   7.6784(18)
_cell_length_b                   10.039(2)
_cell_length_c                   20.341(5)
_cell_angle_alpha                80.473(4)
_cell_angle_beta                 87.111(4)
_cell_angle_gamma                78.902(3)
_cell_volume                     1517.13
loop_
_atom_site_label
_atom_site_type_symbol
_atom_site_fract_x
_atom_site_fract_y
_atom_site_fract_z
Gd1 Gd -0.18990(4) -1.17300(3) 0.719948(16)
Cu1 Cu -0.36889(10) -1.51759(7) 1.08302(4)
Cu2 Cu 0.0000 -0.5000 0.5000
O1 O -0.3294(6) -1.3463(4) 1.0308(2)
O2 O -0.1771(6) -1.2629(4) 0.9427(2)
O3 O -0.1407(5) -1.3693(4) 0.8096(2)
O4 O 0.1337(5) -1.4255(4) 0.8493(2)
O5 O -0.5578(6) -1.3172(4) 0.8695(2)
O6 O -0.4669(6) -1.2265(4) 0.7695(2)
O7 O -0.2526(6) -1.3414(4) 0.6672(2)
O8 O -0.4871(8) -1.3945(6) 0.6272(3)
O9 O -0.0646(6) -0.9664(4) 0.7000(2)
O10 O 0.2303(6) -1.0223(4) 0.6924(3)
O11 O 0.0351(7) -0.8995(4) 0.5509(2)
O12 O 0.0030(7) -0.6900(4) 0.4918(2)
O13 O -0.1707(5) -1.0892(4) 0.8242(2)
H1 H -0.0935(8) -1.0412(8) 0.8251(6)
H2 H -0.2682(8) -1.0692(16) 0.8440(5)
O14 O 0.1211(5) -1.2597(3) 0.7274(2)
H3 H 0.1730(12) -1.1923(6) 0.7231(13)
H4 H 0.150(3) -1.3214(8) 0.7604(4)
O15 O -0.4300(4) -0.9910(4) 0.6824(2)
H5 H -0.5338(7) -1.0067(13) 0.6840(16)
H6 H -0.4110(16) -0.9319(8) 0.6568(6)
O16 O -0.0944(5) -1.1315(3) 0.60632(19)
H7 H -0.1097(18) -1.1816(7) 0.5788(4)
H8 H -0.0400(11) -1.0670(7) 0.5927(11)
O18 O 0.3247(6) -0.5183(7) 0.4828(3)
H11 H 0.2722(13) -0.474(2) 0.4485(4)
H12 H 0.4202(8) -0.4965(15) 0.4916(8)
N1 N -0.2571(6) -1.5942(5) 1.0051(2)
N2 N -0.4997(6) -1.5646(5) 0.8439(2)
N3 N 0.0722(7) -0.5791(5) 0.5922(3)
C1 C -0.2382(7) -1.3568(6) 0.9773(3)
C2 C -0.1916(7) -1.5029(6) 0.9597(3)
C3 C -0.0940(7) -1.5367(6) 0.9044(3)
C4 C -0.0270(8) -1.4324(5) 0.8506(3)
C5 C -0.0577(8) -1.6758(6) 0.8980(3)
H19 H 0.0101 -1.7035 0.8617
C6 C -0.1192(9) -1.7714(6) 0.9436(3)
H20 H -0.0931 -1.8639 0.9392
C7 C -0.2241(9) -1.7270(6) 0.9979(3)
H21 H -0.2706 -1.7907 1.0289
C8 C -0.4969(7) -1.3301(6) 0.8100(3)
C9 C -0.4635(7) -1.4697(6) 0.7918(3)
C10 C -0.4012(8) -1.5051(6) 0.7326(3)
C11 C -0.3705(9) -1.4101(8) 0.6709(4)
C12 C -0.3690(10) -1.6459(8) 0.7279(4)
H22 H -0.3245 -1.6742 0.6881
C13 C -0.4015(9) -1.7417(7) 0.7803(4)
H23 H -0.3798 -1.8346 0.7766
C14 C -0.4668(8) -1.6988(6) 0.8386(4)
H24 H -0.4887 -1.7632 0.8750
C15 C 0.0296(10) -0.7764(6) 0.5465(3)
C16 C 0.0602(8) -0.7152(6) 0.6067(3)
C17 C 0.0998(7) -0.7886(5) 0.6687(3)
C18 C 0.0871(8) -0.9387(6) 0.6879(3)
C19 C 0.1496(9) -0.7204(6) 0.7156(3)
H25 H 0.1763 -0.7681 0.7581
C20 C 0.1612(9) -0.5854(6) 0.7017(3)
H26 H 0.2009 -0.5421 0.7336
C21 C 0.1123(8) -0.5130(6) 0.6388(3)
H27 H 0.1079 -0.4185 0.6296
Gd1A Gd 0.18990(4) 0.17300(3) 0.280052(16)
Cu1A Cu 0.36889(10) 0.51759(7) -0.08302(4)
Cu1A_2 Cu 0.36889(10) -1.48241(7) 0.91698(4)
Cu1A_3 Cu -0.63111(10) -1.48241(7) 0.91698(4)
Cu1_2 Cu -0.36889(10) 0.48241(7) 0.08302(4)
Cu1_3 Cu 0.63111(10) 0.48241(7) 0.08302(4)
O1A O 0.3294(6) 0.3463(4) -0.0308(2)
O2A O 0.1771(6) 0.2629(4) 0.0573(2)
O3A O 0.1407(5) 0.3693(4) 0.1904(2)
O4A O -0.1337(5) 0.4255(4) 0.1507(2)
O4A_2 O -0.1337(5) -1.5745(4) 1.1507(2)
O4_2 O 0.1337(5) 0.5745(4) -0.1507(2)
O5A O 0.5578(6) 0.3172(4) 0.1305(2)
O5A_2 O -0.4422(6) -1.6828(4) 1.1305(2)
O5_2 O 0.4422(6) 0.6828(4) -0.1305(2)
O6A O 0.4669(6) 0.2265(4) 0.2305(2)
O7A O 0.2526(6) 0.3414(4) 0.3328(2)
O8A O 0.4871(8) 0.3945(6) 0.3728(3)
O9A O 0.0646(6) -0.0336(4) 0.3000(2)
O10A O -0.2303(6) 0.0223(4) 0.3076(3)
O11A O -0.0351(7) -0.1005(4) 0.4491(2)
O12A O -0.0030(7) -0.3100(4) 0.5082(2)
O13A O 0.1707(5) 0.0892(4) 0.1758(2)
H1A H 0.0935(8) 0.0412(8) 0.1749(6)
H2A H 0.2682(8) 0.0692(16) 0.1560(5)
O14A O -0.1211(5) 0.2597(3) 0.2726(2)
H3A H -0.1730(12) 0.1923(6) 0.2769(13)
H4A H -0.150(3) 0.3214(8) 0.2396(4)
O15A O 0.4300(4) -0.0090(4) 0.3176(2)
H5A H 0.5338(7) 0.0067(13) 0.3160(16)
H6A H 0.4110(16) -0.0681(8) 0.3432(6)
O16A O 0.0944(5) 0.1315(3) 0.39368(19)
H7A H 0.1097(18) 0.1816(7) 0.4212(4)
H8A H 0.0400(11) 0.0670(7) 0.4073(11)
O18A O -0.3247(6) -0.4817(7) 0.5172(3)
H11A H -0.2722(13) -0.526(2) 0.5515(4)
H12A H -0.4202(8) -0.5035(15) 0.5084(8)
N1A N 0.2571(6) 0.5942(5) -0.0051(2)
N2A N 0.4997(6) 0.5646(5) 0.1561(2)
N2A_2 N -0.5003(6) -1.4354(5) 1.1561(2)
N2_2 N 0.5003(6) 0.4354(5) -0.1561(2)
N3A N -0.0722(7) -0.4209(5) 0.4078(3)
C1A C 0.2382(7) 0.3568(6) 0.0227(3)
C2A C 0.1916(7) 0.5029(6) 0.0403(3)
C3A C 0.0940(7) 0.5367(6) 0.0956(3)
C4A C 0.0270(8) 0.4324(5) 0.1494(3)
C5A C 0.0577(8) 0.6758(6) 0.1020(3)
H19A H -0.0101 0.7035 0.1383
C6A C 0.1192(9) 0.7714(6) 0.0564(3)
H20A H 0.0931 0.8639 0.0608
C7A C 0.2241(9) 0.7270(6) 0.0021(3)
H21A H 0.2706 0.7907 -0.0289
C8A C 0.4969(7) 0.3301(6) 0.1900(3)
C9A C 0.4635(7) 0.4697(6) 0.2082(3)
C10A C 0.4012(8) 0.5051(6) 0.2674(3)
C11A C 0.3705(9) 0.4101(8) 0.3291(4)
C12A C 0.3690(10) 0.6459(8) 0.2721(4)
H22A H 0.3245 0.6742 0.3119
C13A C 0.4015(9) 0.7417(7) 0.2197(4)
H23A H 0.3798 0.8346 0.2234
C14A C 0.4668(8) 0.6988(6) 0.1614(4)
H24A H 0.4887 0.7632 0.1250
C15A C -0.0296(10) -0.2236(6) 0.4535(3)
C16A C -0.0602(8) -0.2848(6) 0.3933(3)
C17A C -0.0998(7) -0.2114(5) 0.3313(3)
C18A C -0.0871(8) -0.0613(6) 0.3121(3)
C19A C -0.1496(9) -0.2796(6) 0.2844(3)
H25A H -0.1763 -0.2319 0.2419
C20A C -0.1612(9) -0.4146(6) 0.2983(3)
H26A H -0.2009 -0.4579 0.2664
C21A C -0.1123(8) -0.4870(6) 0.3612(3)
H27A H -0.1079 -0.5815 0.3704
O17 O 0.6165(6) 0.1269(6) 0.4645(3)
H9 H 0.5764(12) 0.0718(8) 0.4452(6)
H10 H 0.7049(8) 0.1573(11) 0.4466(9)
O19 O 0.5676(7) 0.2242(9) 0.5740(2)
H13 H 0.578(3) 0.2106(19) 0.5340(3)
H14 H 0.6508(9) 0.207(6) 0.5940(5)
O20 O 0.8006(5) 0.0022(4) 0.1501(3)
H15 H 0.6892(7) 0.015(2) 0.1476(16)
H16 H 0.8455(12) 0.0622(8) 0.1637(7)
O21 O 0.6834(11) 0.9649(6) 0.0232(2)
H17 H 0.655(2) 0.9425(14) -0.0121(4)
H18 H 0.733(2) 0.9039(13) 0.0530(5)
loop_
_geom_bond_atom_site_label_1
_geom_bond_atom_site_label_2
_geom_bond_site_symmetry_1
_geom_bond_site_symmetry_2
Gd1 O3 1_555 1_555
Cu1 O1 1_555 1_555
Cu2 O12 1_555 1_555
O1 C1 1_555 1_555
O2 C1 1_555 1_555
O3 C4 1_555 1_555
O4 C4 1_555 1_555
O5 C8 1_555 1_555
O6 Gd1 1_555 1_555
O7 Gd1 1_555 1_555
O8 C11 1_555 1_555
O9 Gd1 1_555 1_555
O10 C18 1_555 1_555
O11 C15 1_555 1_555
O12 C15 1_555 1_555
O13 Gd1 1_555 1_555
H1 O13 1_555 1_555
H2 O13 1_555 1_555
O14 Gd1 1_555 1_555
H3 O14 1_555 1_555
H4 O14 1_555 1_555
O15 Gd1 1_555 1_555
H5 O15 1_555 1_555
H6 O15 1_555 1_555
O16 Gd1 1_555 1_555
H7 O16 1_555 1_555
H8 O16 1_555 1_555
O17 H9 1_555 1_555
H10 O17 1_555 1_555
O18 Cu2 1_555 1_555
H11 O18 1_555 1_555
H12 O18 1_555 1_555
O19 H13 1_555 1_555
H14 O19 1_555 1_555
O20 H15 1_555 1_555
H16 O20 1_555 1_555
O21 H17 1_555 1_555
H18 O21 1_555 1_555
N1 Cu1 1_555 1_555
N2 C9 1_555 1_555
N3 Cu2 1_555 1_555
C1 C2 1_555 1_555
C2 N1 1_555 1_555
C3 C2 1_555 1_555
C4 C3 1_555 1_555
C5 C3 1_555 1_555
H19 C5 1_555 1_555
C6 C5 1_555 1_555
H20 C6 1_555 1_555
C7 N1 1_555 1_555
H21 C7 1_555 1_555
C8 O6 1_555 1_555
C9 C8 1_555 1_555
C10 C9 1_555 1_555
C11 O7 1_555 1_555
C12 C10 1_555 1_555
H22 C12 1_555 1_555
C13 C12 1_555 1_555
H23 C13 1_555 1_555
C14 N2 1_555 1_555
H24 C14 1_555 1_555
C15 C16 1_555 1_555
C16 N3 1_555 1_555
C17 C16 1_555 1_555
C18 O9 1_555 1_555
C19 C17 1_555 1_555
H25 C19 1_555 1_555
C20 C19 1_555 1_555
H26 C20 1_555 1_555
C21 N3 1_555 1_555
H27 C21 1_555 1_555
Gd1A O3A 1_555 1_555
Cu1A O1A 1_555 1_555
Cu1A_2 O4 1_555 1_555
Cu1A_3 O5 1_555 1_555
Cu1_2 O4A 1_555 1_555
Cu1_3 O5A 1_555 1_555
O1A C1A 1_555 1_555
O2A C1A 1_555 1_555
O3A C4A 1_555 1_555
O4A C4A 1_555 1_555
O4A_2 Cu1 1_555 1_555
O4_2 Cu1A 1_555 1_555
O5A C8A 1_555 1_555
O5A_2 Cu1 1_555 1_555
O5_2 Cu1A 1_555 1_555
O6A Gd1A 1_555 1_555
O7A Gd1A 1_555 1_555
O8A C11A 1_555 1_555
O9A Gd1A 1_555 1_555
O10A C18A 1_555 1_555
O11A C15A 1_555 1_555
O12A Cu2 1_555 1_555
O13A Gd1A 1_555 1_555
H1A O13A 1_555 1_555
H2A O13A 1_555 1_555
O14A Gd1A 1_555 1_555
H3A O14A 1_555 1_555
H4A O14A 1_555 1_555
O15A Gd1A 1_555 1_555
H5A O15A 1_555 1_555
H6A O15A 1_555 1_555
O16A Gd1A 1_555 1_555
H7A O16A 1_555 1_555
H8A O16A 1_555 1_555
O18A Cu2 1_555 1_555
H11A O18A 1_555 1_555
H12A O18A 1_555 1_555
N1A Cu1A 1_555 1_555
N2A Cu1_3 1_555 1_555
N2A_2 Cu1 1_555 1_555
N2_2 Cu1A 1_555 1_555
N3A Cu2 1_555 1_555
C1A C2A 1_555 1_555
C2A N1A 1_555 1_555
C3A C2A 1_555 1_555
C4A C3A 1_555 1_555
C5A C3A 1_555 1_555
H19A C5A 1_555 1_555
C6A C5A 1_555 1_555
H20A C6A 1_555 1_555
C7A N1A 1_555 1_555
H21A C7A 1_555 1_555
C8A O6A 1_555 1_555
C9A N2A 1_555 1_555
C10A C9A 1_555 1_555
C11A O7A 1_555 1_555
C12A C10A 1_555 1_555
H22A C12A 1_555 1_555
C13A C12A 1_555 1_555
H23A C13A 1_555 1_555
C14A N2A 1_555 1_555
H24A C14A 1_555 1_555
C15A O12A 1_555 1_555
C16A N3A 1_555 1_555
C17A C16A 1_555 1_555
C18A O9A 1_555 1_555
C19A C17A 1_555 1_555
H25A C19A 1_555 1_555
C20A C19A 1_555 1_555
H26A C20A 1_555 1_555
C21A N3A 1_555 1_555
H27A C21A 1_555 1_555
N2 Cu1A_3 1_555 1_555
C6 C7 1_555 1_555
C10 C11 1_555 1_555
C13 C14 1_555 1_555
C17 C18 1_555 1_555
C20 C21 1_555 1_555
C6A C7A 1_555 1_555
C8A C9A 1_555 1_555
C10A C11A 1_555 1_555
C13A C14A 1_555 1_555
C15A C16A 1_555 1_555
C17A C18A 1_555 1_555
C20A C21A 1_555 1_555

#END
