
#######################################################################
#
#                 Cambridge Crystallographic Data Centre
#                                CCDC 
#
#######################################################################
#
# If this CIF has been generated from an entry in the Cambridge 
# Structural Database, then it will include bibliographic, chemical, 
# crystal, experimental, refinement or atomic coordinate data resulting 
# from the CCDC's data processing and validation procedures.
#
#######################################################################

data_XEJSUC
_symmetry_cell_setting           tetragonal
_symmetry_space_group_name_H-M   'I -4'
_symmetry_Int_Tables_number      82
_space_group_name_Hall           'I -4'
loop_
_symmetry_equiv_pos_site_id
_symmetry_equiv_pos_as_xyz
1 x,y,z
2 -x,-y,z
3 y,-x,-z
4 -y,x,-z
5 1/2+x,1/2+y,1/2+z
6 1/2-x,1/2-y,1/2+z
7 1/2+y,1/2-x,1/2-z
8 1/2-y,1/2+x,1/2-z
_cell_length_a                   6.9611(4)
_cell_length_b                   6.9611(4)
_cell_length_c                   25.5150(14)
_cell_angle_alpha                90
_cell_angle_beta                 90
_cell_angle_gamma                90
_cell_volume                     1236.38
loop_
_atom_site_label
_atom_site_type_symbol
_atom_site_fract_x
_atom_site_fract_y
_atom_site_fract_z
Li1 Li 1.0000 0.0000 1.0000
Al1 Al 0.5000 1.0000 0.7500
N1 N 0.83773(17) 0.18914(17) 0.95664(4)
O1 O 0.68879(13) 0.91127(13) 0.78726(4)
C1 C 0.70832(15) 0.76394(16) 0.82063(4)
C2 C 0.70752(17) 0.79942(17) 0.87469(4)
H1 H 0.6891 0.9265 0.8873
C3 C 0.73344(17) 0.64976(17) 0.90995(4)
H2 H 0.7324 0.6744 0.9466
C4 C 0.76105(15) 0.46290(16) 0.89147(4)
C5 C 0.75952(16) 0.42564(16) 0.83750(4)
H3 H 0.7771 0.2984 0.8250
C6 C 0.73230(17) 0.57535(17) 0.80257(4)
H4 H 0.7299 0.5500 0.7660
C7 C 0.79959(16) 0.30996(17) 0.92768(4)
Li1_2 Li 0.0000 2.0000 1.0000
Li1D Li -0.5000 0.5000 0.5000
Li1D_2 Li 1.5000 1.5000 0.5000
N1A N 1.16227(17) -0.18914(17) 0.95664(4)
N1B N 1.18914(17) 0.16227(17) 1.04336(4)
N1C N 0.81086(17) -0.16227(17) 1.04336(4)
N1A_2 N 0.16227(17) 1.81086(17) 0.95664(4)
N1F N -0.31086(17) 0.66227(17) 0.54336(4)
N1G N 1.31086(17) 1.33773(17) 0.54336(4)
O1A O 0.31121(13) 1.08873(13) 0.78726(4)
O1F O 0.41127(13) 0.81121(13) 0.71274(4)
O1G O 0.58873(13) 1.18879(13) 0.71274(4)
C1A C 0.29168(15) 1.23606(16) 0.82063(4)
C1F C 0.26394(16) 0.79168(15) 0.67937(4)
C1G C 0.73606(16) 1.20832(15) 0.67937(4)
C2A C 0.29248(17) 1.20058(17) 0.87469(4)
C2F C 0.29942(17) 0.79248(17) 0.62531(4)
C2G C 0.70058(17) 1.20752(17) 0.62531(4)
H1A H 0.3109 1.0735 0.8873
H1F H 0.4265 0.8109 0.6127
H1G H 0.5735 1.1891 0.6127
C3A C 0.26656(17) 1.35024(17) 0.90995(4)
C3F C 0.14976(17) 0.76656(17) 0.59005(4)
C3G C 0.85024(17) 1.23344(17) 0.59005(4)
H2A H 0.2676 1.3256 0.9466
H2F H 0.1744 0.7676 0.5534
H2G H 0.8256 1.2324 0.5534
C4A C 0.23895(15) 1.53710(16) 0.89147(4)
C4F C -0.03710(16) 0.73895(15) 0.60853(4)
C4G C 1.03710(16) 1.26105(15) 0.60853(4)
C5A C 0.24048(16) 1.57436(16) 0.83750(4)
C5F C -0.07436(16) 0.74048(16) 0.66250(4)
C5G C 1.07436(16) 1.25952(16) 0.66250(4)
H3A H 0.2229 1.7016 0.8250
H3F H -0.2016 0.7229 0.6750
H3G H 1.2016 1.2771 0.6750
C6A C 0.26770(17) 1.42465(17) 0.80257(4)
C6F C 0.07535(17) 0.76770(17) 0.69743(4)
C6G C 0.92465(17) 1.23230(17) 0.69743(4)
H4A H 0.2701 1.4500 0.7660
H4F H 0.0500 0.7701 0.7340
H4G H 0.9500 1.2299 0.7340
C7A C 0.20041(16) 1.69004(17) 0.92768(4)
C7F C -0.19004(17) 0.70041(16) 0.57232(4)
C7G C 1.19004(17) 1.29959(16) 0.57232(4)
loop_
_geom_bond_atom_site_label_1
_geom_bond_atom_site_label_2
_geom_bond_site_symmetry_1
_geom_bond_site_symmetry_2
Li1 N1 1_555 1_555
Al1 O1 1_555 1_555
N1 C7 1_555 1_555
O1 C1 1_555 1_555
C1 C2 1_555 1_555
C2 H1 1_555 1_555
C3 C2 1_555 1_555
H2 C3 1_555 1_555
C4 C3 1_555 1_555
C5 C4 1_555 1_555
H3 C5 1_555 1_555
C6 C1 1_555 1_555
H4 C6 1_555 1_555
C7 C4 1_555 1_555
Li1_2 N1A_2 1_555 1_555
Li1D N1F 1_555 1_555
Li1D_2 N1G 1_555 1_555
N1A Li1 1_555 1_555
N1B Li1 1_555 1_555
N1C Li1 1_555 1_555
N1A_2 C7A 1_555 1_555
N1F C7F 1_555 1_555
N1G C7G 1_555 1_555
O1A Al1 1_555 1_555
O1F Al1 1_555 1_555
O1G Al1 1_555 1_555
C1A O1A 1_555 1_555
C1F O1F 1_555 1_555
C1G O1G 1_555 1_555
C2A C1A 1_555 1_555
C2F C1F 1_555 1_555
C2G C1G 1_555 1_555
H1A C2A 1_555 1_555
H1F C2F 1_555 1_555
H1G C2G 1_555 1_555
C3A C2A 1_555 1_555
C3F C2F 1_555 1_555
C3G C2G 1_555 1_555
H2A C3A 1_555 1_555
H2F C3F 1_555 1_555
H2G C3G 1_555 1_555
C4A C3A 1_555 1_555
C4F C3F 1_555 1_555
C4G C3G 1_555 1_555
C5A C4A 1_555 1_555
C5F C4F 1_555 1_555
C5G C4G 1_555 1_555
H3A C5A 1_555 1_555
H3F C5F 1_555 1_555
H3G C5G 1_555 1_555
C6A C1A 1_555 1_555
C6F C1F 1_555 1_555
C6G C1G 1_555 1_555
H4A C6A 1_555 1_555
H4F C6F 1_555 1_555
H4G C6G 1_555 1_555
C7A C4A 1_555 1_555
C7F C4F 1_555 1_555
C7G C4G 1_555 1_555
C5 C6 1_555 1_555
C5A C6A 1_555 1_555
C5F C6F 1_555 1_555
C5G C6G 1_555 1_555

#END
