
#######################################################################
#
#                 Cambridge Crystallographic Data Centre
#                                CCDC 
#
#######################################################################
#
# If this CIF has been generated from an entry in the Cambridge 
# Structural Database, then it will include bibliographic, chemical, 
# crystal, experimental, refinement or atomic coordinate data resulting 
# from the CCDC's data processing and validation procedures.
#
#######################################################################

data_XEJSAH
_symmetry_cell_setting           triclinic
_symmetry_space_group_name_H-M   'P -1'
_symmetry_Int_Tables_number      2
_space_group_name_Hall           '-P 1'
loop_
_symmetry_equiv_pos_site_id
_symmetry_equiv_pos_as_xyz
1 x,y,z
2 -x,-y,-z
_cell_length_a                   14.0012(16)
_cell_length_b                   14.1336(16)
_cell_length_c                   18.328(2)
_cell_angle_alpha                72.259(2)
_cell_angle_beta                 88.496(2)
_cell_angle_gamma                83.084(2)
_cell_volume                     3429.05
loop_
_atom_site_label
_atom_site_type_symbol
_atom_site_fract_x
_atom_site_fract_y
_atom_site_fract_z
Cu1 Cu 0.47381(3) -0.88527(3) 0.71807(2)
Cu2 Cu -0.08388(3) -0.30199(3) 0.51653(2)
Cu3 Cu -0.03115(3) -0.70392(3) 1.10544(2)
O1 O 0.56805(18) -0.87425(18) 0.63722(14)
O2 O 0.40008(18) -0.75977(18) 0.66172(14)
O3 O 0.02038(18) -0.40690(18) 0.52372(13)
O4 O -0.06549(18) -0.24027(18) 0.40807(14)
O5 O -0.19858(18) -0.20828(19) 0.50521(14)
O6 O -0.11092(17) -0.36735(18) 0.62353(13)
O7 O -0.05531(19) -0.60553(19) 1.00697(14)
O8 O -0.1233(2) -0.6346(2) 1.15662(14)
O9 O 0.00342(19) -0.7977(2) 1.20427(14)
O10 O 0.06886(19) -0.7641(2) 1.05451(14)
O11 O 0.40810(18) -0.86999(18) 0.80925(14)
O12 O 0.55452(17) -1.00552(18) 0.77594(14)
C1 C 0.7139(3) -0.7423(3) 0.5264(3)
H1 H 0.7685 -0.7444 0.4921
H2 H 0.7374 -0.7626 0.5795
H3 H 0.6807 -0.6741 0.5131
C2 C 0.6448(3) -0.8132(3) 0.5181(2)
H4 H 0.6216 -0.7932 0.4644
H5 H 0.6786 -0.8820 0.5307
C3 C 0.5601(3) -0.8115(3) 0.5708(2)
C4 C 0.4814(3) -0.7376(3) 0.5443(2)
H6 H 0.4794 -0.6999 0.4915
C5 C 0.4061(2) -0.7160(3) 0.5902(2)
C6 C 0.3250(3) -0.6352(3) 0.5565(2)
C7 C 0.3208(3) -0.5752(3) 0.4802(2)
H7 H 0.3724 -0.5834 0.4470
C8 C 0.2430(3) -0.5041(3) 0.4519(2)
H8 H 0.2414 -0.4654 0.3994
C9 C 0.1672(3) -0.4885(3) 0.4991(2)
C10 C 0.1711(3) -0.5482(3) 0.5750(2)
H9 H 0.1198 -0.5396 0.6082
C11 C 0.2486(3) -0.6205(3) 0.6032(2)
H10 H 0.2494 -0.6606 0.6553
C12 C 0.0833(3) -0.4099(3) 0.4730(2)
C13 C 0.0773(3) -0.3442(3) 0.3978(2)
H11 H 0.1267 -0.3541 0.3634
C14 C 0.0047(3) -0.2660(3) 0.3697(2)
C15 C 0.0041(3) -0.2050(3) 0.2862(2)
H12 H 0.0709 -0.2055 0.2669
H13 H -0.0217 -0.1348 0.2808
C16 C -0.0572(4) -0.2470(4) 0.2385(3)
H14 H -0.0569 -0.2060 0.1847
H15 H -0.1234 -0.2461 0.2573
H16 H -0.0307 -0.3160 0.2429
C17 C -0.4115(3) -0.0981(3) 0.5885(2)
H17 H -0.4590 -0.0410 0.5640
H18 H -0.3827 -0.0869 0.6329
H19 H -0.4433 -0.1591 0.6054
C18 C -0.3336(3) -0.1093(3) 0.5317(2)
H20 H -0.3048 -0.0456 0.5138
H21 H -0.3648 -0.1180 0.4867
C19 C -0.2520(3) -0.1939(3) 0.5586(2)
C20 C -0.2395(3) -0.2483(3) 0.6357(2)
H22 H -0.2816 -0.2289 0.6715
C21 C -0.1687(3) -0.3300(3) 0.6640(2)
C22 C -0.1576(3) -0.3784(3) 0.74895(19)
C23 C -0.2029(3) -0.3374(3) 0.8023(2)
H23 H -0.2429 -0.2755 0.7850
C24 C -0.1913(3) -0.3843(3) 0.8802(2)
H24 H -0.2233 -0.3543 0.9154
C25 C -0.1330(3) -0.4757(3) 0.9076(2)
C26 C -0.0846(3) -0.5152(3) 0.8543(2)
H25 H -0.0423 -0.5755 0.8716
C27 C -0.0972(3) -0.4681(3) 0.7769(2)
H26 H -0.0640 -0.4972 0.7417
C28 C -0.1215(3) -0.5317(3) 0.9907(2)
C29 C -0.1816(3) -0.5047(3) 1.0451(2)
H27 H -0.2275 -0.4473 1.0274
C30 C -0.1794(3) -0.5555(3) 1.1231(2)
C31 C -0.2456(3) -0.5141(4) 1.1756(2)
H28 H -0.2966 -0.4645 1.1448
H29 H -0.2768 -0.5690 1.2114
C32 C -0.1900(4) -0.4650(4) 1.2205(3)
H30 H -0.2338 -0.4392 1.2545
H31 H -0.1603 -0.4097 1.1851
H32 H -0.1397 -0.5142 1.2513
C33 C 0.1692(3) -1.0101(3) 1.3246(2)
H33 H 0.1694 -1.0426 1.3801
H34 H 0.2298 -0.9814 1.3098
H35 H 0.1625 -1.0596 1.2981
C34 C 0.0857(3) -0.9277(3) 1.3027(2)
H36 H 0.0258 -0.9580 1.3204
H37 H 0.0930 -0.8800 1.3314
C35 C 0.0724(3) -0.8687(3) 1.2188(2)
C36 C 0.1339(3) -0.8933(3) 1.1639(2)
H38 H 0.1816 -0.9492 1.1808
C37 C 0.1288(3) -0.8404(3) 1.0857(2)
C38 C 0.1999(3) -0.8694(3) 1.0319(2)
C39 C 0.2531(3) -0.9640(3) 1.0498(2)
H39 H 0.2429 -1.0131 1.0970
C40 C 0.3205(3) -0.9866(3) 0.9992(2)
H40 H 0.3567 -1.0509 1.0125
C41 C 0.3362(3) -0.9168(3) 0.9293(2)
C42 C 0.2818(3) -0.8232(3) 0.9112(2)
H41 H 0.2911 -0.7747 0.8635
C43 C 0.2148(3) -0.7998(3) 0.9613(2)
H42 H 0.1784 -0.7356 0.9476
C44 C 0.4074(3) -0.9389(3) 0.87268(19)
C45 C 0.4671(3) -1.0295(3) 0.8913(2)
H43 H 0.4596 -1.0760 0.9403
C46 C 0.5370(3) -1.0573(3) 0.8436(2)
C47 C 0.5958(3) -1.1581(3) 0.8733(2)
H44 H 0.5973 -1.1790 0.9300
H45 H 0.6628 -1.1528 0.8552
C48 C 0.5551(4) -1.2365(4) 0.8469(3)
H46 H 0.5950 -1.3009 0.8672
H47 H 0.5547 -1.2166 0.7908
H48 H 0.4892 -1.2428 0.8655
N1 N 0.3623(2) -0.9734(2) 0.69089(16)
N2 N 0.0254(2) -1.2184(2) 0.55793(17)
C49 C 0.3821(3) -1.0701(3) 0.6947(2)
H49 H 0.4436 -1.1035 0.7135
C50 C 0.3183(3) -1.1236(3) 0.6730(2)
H50 H 0.3352 -1.1923 0.6776
C51 C 0.2286(3) -1.0752(3) 0.64411(19)
C52 C 0.2067(3) -0.9758(3) 0.64152(19)
H51 H 0.1456 -0.9406 0.6232
C53 C 0.2744(3) -0.9288(3) 0.6658(2)
H52 H 0.2579 -0.8612 0.6647
C54 C 0.1597(3) -1.1265(3) 0.6146(2)
C55 C 0.1367(3) -1.2213(3) 0.6562(2)
H53 H 0.1670 -1.2563 0.7042
C56 C 0.0691(3) -1.2634(3) 0.6262(2)
H54 H 0.0527 -1.3272 0.6553
C57 C 0.0496(3) -1.1286(3) 0.5179(2)
H55 H 0.0206 -1.0967 0.4689
C58 C 0.1140(3) -1.0801(3) 0.54371(19)
H56 H 0.1276 -1.0155 0.5137
O13 O -0.1497(2) -0.7963(2) 1.07387(17)
C69 C -0.1225(4) -0.8567(4) 1.0252(3)
H65 H -0.0684 -0.8314 0.9921
H66 H -0.1773 -0.8572 0.9923
C70 C -0.0924(4) -0.9612(4) 1.0794(3)
H67 H -0.1111 -1.0130 1.0582
H68 H -0.0220 -0.9724 1.0885
C71 C -0.1459(4) -0.9630(4) 1.1523(3)
H69 H -0.1006 -0.9776 1.1960
H70 H -0.1913 -1.0141 1.1643
C72 C -0.1995(4) -0.8591(4) 1.1359(3)
H71 H -0.2671 -0.8586 1.1211
H72 H -0.1990 -0.8358 1.1816
Cu2_2 Cu -0.08388(3) -1.30199(3) 0.51653(2)
N2_2 N 0.0254(2) -0.2184(2) 0.55793(17)
N3 N 0.4234(3) -0.3625(3) 0.6645(2)
N4 N 0.7618(3) -0.7983(3) 0.8035(3)
C59 C 0.5034(5) -0.3633(4) 0.7003(3)
H57 H 0.5139 -0.3031 0.7102
C60 C 0.5737(5) -0.4433(4) 0.7250(4)
H58 H 0.6311 -0.4360 0.7482
C61 C 0.5607(3) -0.5323(3) 0.7160(2)
C62 C 0.4762(4) -0.5350(4) 0.6813(3)
H59 H 0.4618 -0.5959 0.6748
C63 C 0.4114(4) -0.4490(4) 0.6556(3)
H60 H 0.3547 -0.4531 0.6298
C64 C 0.6323(3) -0.6236(3) 0.7439(3)
C65 C 0.7147(4) -0.6256(4) 0.7846(3)
H61 H 0.7297 -0.5658 0.7927
C66 C 0.7745(4) -0.7117(4) 0.8132(3)
H62 H 0.8291 -0.7095 0.8420
C67 C 0.6854(4) -0.7966(4) 0.7630(4)
H63 H 0.6730 -0.8576 0.7553
C68 C 0.6218(5) -0.7124(4) 0.7306(4)
H64 H 0.5704 -0.7158 0.6990
O14 O 0.5955(6) -0.7327(6) 0.9739(5)
C73 C 0.5069(10) -0.6869(11) 0.9266(6)
H73 H 0.5153 -0.6902 0.8736
H74 H 0.4505 -0.7210 0.9493
C74 C 0.4955(7) -0.5826(12) 0.9280(7)
H75 H 0.4632 -0.5381 0.8804
H76 H 0.4557 -0.5764 0.9722
C75 C 0.5884(7) -0.5549(7) 0.9345(6)
H77 H 0.5854 -0.5002 0.9580
H78 H 0.6196 -0.5340 0.8839
C76 C 0.6392(7) -0.6488(7) 0.9850(5)
H79 H 0.7083 -0.6541 0.9721
H80 H 0.6333 -0.6497 1.0392
loop_
_geom_bond_atom_site_label_1
_geom_bond_atom_site_label_2
_geom_bond_site_symmetry_1
_geom_bond_site_symmetry_2
Cu1 O1 1_555 1_555
Cu2 O3 1_555 1_555
Cu3 O7 1_555 1_555
O1 C3 1_555 1_555
O2 Cu1 1_555 1_555
O3 C12 1_555 1_555
O4 Cu2 1_555 1_555
O5 Cu2 1_555 1_555
O6 Cu2 1_555 1_555
O7 C28 1_555 1_555
O8 Cu3 1_555 1_555
O9 Cu3 1_555 1_555
O10 Cu3 1_555 1_555
O11 Cu1 1_555 1_555
O12 Cu1 1_555 1_555
C1 H1 1_555 1_555
H2 C1 1_555 1_555
H3 C1 1_555 1_555
C2 C1 1_555 1_555
H4 C2 1_555 1_555
H5 C2 1_555 1_555
C3 C2 1_555 1_555
C4 C3 1_555 1_555
H6 C4 1_555 1_555
C5 O2 1_555 1_555
C6 C5 1_555 1_555
C7 C6 1_555 1_555
H7 C7 1_555 1_555
C8 C7 1_555 1_555
H8 C8 1_555 1_555
C9 C8 1_555 1_555
C10 C9 1_555 1_555
H9 C10 1_555 1_555
C11 C6 1_555 1_555
H10 C11 1_555 1_555
C12 C9 1_555 1_555
C13 C12 1_555 1_555
H11 C13 1_555 1_555
C14 O4 1_555 1_555
C15 C14 1_555 1_555
H12 C15 1_555 1_555
H13 C15 1_555 1_555
C16 C15 1_555 1_555
H14 C16 1_555 1_555
H15 C16 1_555 1_555
H16 C16 1_555 1_555
C17 H17 1_555 1_555
H18 C17 1_555 1_555
H19 C17 1_555 1_555
C18 C17 1_555 1_555
H20 C18 1_555 1_555
H21 C18 1_555 1_555
C19 O5 1_555 1_555
C20 C19 1_555 1_555
H22 C20 1_555 1_555
C21 O6 1_555 1_555
C22 C21 1_555 1_555
C23 C22 1_555 1_555
H23 C23 1_555 1_555
C24 C23 1_555 1_555
H24 C24 1_555 1_555
C25 C24 1_555 1_555
C26 C25 1_555 1_555
H25 C26 1_555 1_555
C27 C22 1_555 1_555
H26 C27 1_555 1_555
C28 C25 1_555 1_555
C29 C28 1_555 1_555
H27 C29 1_555 1_555
C30 O8 1_555 1_555
C31 C30 1_555 1_555
H28 C31 1_555 1_555
H29 C31 1_555 1_555
C32 C31 1_555 1_555
H30 C32 1_555 1_555
H31 C32 1_555 1_555
H32 C32 1_555 1_555
C33 H33 1_555 1_555
H34 C33 1_555 1_555
H35 C33 1_555 1_555
C34 C33 1_555 1_555
H36 C34 1_555 1_555
H37 C34 1_555 1_555
C35 O9 1_555 1_555
C36 C35 1_555 1_555
H38 C36 1_555 1_555
C37 O10 1_555 1_555
C38 C37 1_555 1_555
C39 C38 1_555 1_555
H39 C39 1_555 1_555
C40 C39 1_555 1_555
H40 C40 1_555 1_555
C41 C40 1_555 1_555
C42 C41 1_555 1_555
H41 C42 1_555 1_555
C43 C38 1_555 1_555
H42 C43 1_555 1_555
C44 O11 1_555 1_555
C45 C44 1_555 1_555
H43 C45 1_555 1_555
C46 O12 1_555 1_555
C47 C46 1_555 1_555
H44 C47 1_555 1_555
H45 C47 1_555 1_555
C48 C47 1_555 1_555
H46 C48 1_555 1_555
H47 C48 1_555 1_555
H48 C48 1_555 1_555
N1 Cu1 1_555 1_555
N2 C56 1_555 1_555
C49 N1 1_555 1_555
H49 C49 1_555 1_555
C50 C49 1_555 1_555
H50 C50 1_555 1_555
C51 C50 1_555 1_555
C52 C51 1_555 1_555
H51 C52 1_555 1_555
C53 N1 1_555 1_555
H52 C53 1_555 1_555
C54 C51 1_555 1_555
C55 C54 1_555 1_555
H53 C55 1_555 1_555
C56 C55 1_555 1_555
H54 C56 1_555 1_555
C57 N2 1_555 1_555
H55 C57 1_555 1_555
C58 C54 1_555 1_555
H56 C58 1_555 1_555
N3 C59 1_555 1_555
N4 C66 1_555 1_555
C59 H57 1_555 1_555
C60 C59 1_555 1_555
H58 C60 1_555 1_555
C61 C60 1_555 1_555
C62 C61 1_555 1_555
H59 C62 1_555 1_555
C63 N3 1_555 1_555
H60 C63 1_555 1_555
C64 C61 1_555 1_555
C65 C64 1_555 1_555
H61 C65 1_555 1_555
C66 C65 1_555 1_555
H62 C66 1_555 1_555
C67 N4 1_555 1_555
H63 C67 1_555 1_555
C68 C64 1_555 1_555
H64 C68 1_555 1_555
O13 Cu3 1_555 1_555
C69 O13 1_555 1_555
H65 C69 1_555 1_555
H66 C69 1_555 1_555
C70 C69 1_555 1_555
H67 C70 1_555 1_555
H68 C70 1_555 1_555
C71 C70 1_555 1_555
H69 C71 1_555 1_555
H70 C71 1_555 1_555
C72 O13 1_555 1_555
H71 C72 1_555 1_555
H72 C72 1_555 1_555
O14 C73 1_555 1_555
C73 H73 1_555 1_555
H74 C73 1_555 1_555
C74 C73 1_555 1_555
H75 C74 1_555 1_555
H76 C74 1_555 1_555
C75 C74 1_555 1_555
H77 C75 1_555 1_555
H78 C75 1_555 1_555
C76 O14 1_555 1_555
H79 C76 1_555 1_555
H80 C76 1_555 1_555
Cu2_2 N2 1_555 1_555
N2_2 Cu2 1_555 1_555
C4 C5 1_555 1_555
C10 C11 1_555 1_555
C13 C14 1_555 1_555
C18 C19 1_555 1_555
C20 C21 1_555 1_555
C26 C27 1_555 1_555
C29 C30 1_555 1_555
C34 C35 1_555 1_555
C36 C37 1_555 1_555
C41 C44 1_555 1_555
C42 C43 1_555 1_555
C45 C46 1_555 1_555
C52 C53 1_555 1_555
C57 C58 1_555 1_555
C62 C63 1_555 1_555
C67 C68 1_555 1_555
C71 C72 1_555 1_555
C75 C76 1_555 1_555

#END
