
#######################################################################
#
#                 Cambridge Crystallographic Data Centre
#                                CCDC 
#
#######################################################################
#
# If this CIF has been generated from an entry in the Cambridge 
# Structural Database, then it will include bibliographic, chemical, 
# crystal, experimental, refinement or atomic coordinate data resulting 
# from the CCDC's data processing and validation procedures.
#
#######################################################################

data_XEJTEN
_symmetry_cell_setting           tetragonal
_symmetry_space_group_name_H-M   'I -4'
_symmetry_Int_Tables_number      82
_space_group_name_Hall           'I -4'
loop_
_symmetry_equiv_pos_site_id
_symmetry_equiv_pos_as_xyz
1 x,y,z
2 -x,-y,z
3 y,-x,-z
4 -y,x,-z
5 1/2+x,1/2+y,1/2+z
6 1/2-x,1/2-y,1/2+z
7 1/2+y,1/2-x,1/2-z
8 1/2-y,1/2+x,1/2-z
_cell_length_a                   6.9541(3)
_cell_length_b                   6.9541(3)
_cell_length_c                   26.2002(15)
_cell_angle_alpha                90
_cell_angle_beta                 90
_cell_angle_gamma                90
_cell_volume                     1267.03
loop_
_atom_site_label
_atom_site_type_symbol
_atom_site_fract_x
_atom_site_fract_y
_atom_site_fract_z
Ag1 Ag 1.5000 1.0000 0.7500
Al1 Al 0.5000 0.5000 1.0000
N1 N 1.2915(3) 0.8111(3) 0.79509(5)
O1 O 0.5759(2) 0.6935(2) 0.96328(5)
C1 C 0.7225(3) 0.7119(3) 0.93053(6)
C2 C 0.9108(3) 0.7327(3) 0.94701(6)
H1 H 0.9379 0.7314 0.9825
C3 C 1.0595(3) 0.7551(3) 0.91266(6)
H2 H 1.1879 0.7699 0.9244
C4 C 1.0185(3) 0.7556(2) 0.86017(6)
C5 C 0.8313(3) 0.7337(3) 0.84296(6)
H3 H 0.8048 0.7328 0.8074
C6 C 0.6835(3) 0.7132(3) 0.87771(7)
H4 H 0.5549 0.6998 0.8660
C7 C 1.1706(3) 0.7849(3) 0.82385(6)
Ag1_2 Ag -0.5000 0.0000 0.7500
Ag1B Ag 0.0000 1.5000 1.2500
Ag1B_2 Ag 1.0000 -0.5000 1.2500
N1A N -0.2915(3) 0.1889(3) 0.79509(5)
N1B N 0.8111(3) -0.2915(3) 1.20491(5)
N1C N 0.1889(3) 1.2915(3) 1.20491(5)
N1A_2 N 1.7085(3) 1.1889(3) 0.79509(5)
N1F N 1.3111(3) 1.2085(3) 0.70491(5)
N1G N 1.6889(3) 0.7915(3) 0.70491(5)
O1A O 0.4241(2) 0.3065(2) 0.96328(5)
O1B O 0.6935(2) 0.4241(2) 1.03672(5)
O1C O 0.3065(2) 0.5759(2) 1.03672(5)
C1A C 0.2775(3) 0.2881(3) 0.93053(6)
C1B C 0.7119(3) 0.2775(3) 1.06947(6)
C1C C 0.2881(3) 0.7225(3) 1.06947(6)
C2A C 0.0892(3) 0.2673(3) 0.94701(6)
C2B C 0.7327(3) 0.0892(3) 1.05299(6)
C2C C 0.2673(3) 0.9108(3) 1.05299(6)
H1A H 0.0621 0.2686 0.9825
H1B H 0.7314 0.0621 1.0175
H1C H 0.2686 0.9379 1.0175
C3A C -0.0595(3) 0.2449(3) 0.91266(6)
C3B C 0.7551(3) -0.0595(3) 1.08734(6)
C3C C 0.2449(3) 1.0595(3) 1.08734(6)
H2A H -0.1879 0.2301 0.9244
H2B H 0.7699 -0.1879 1.0756
H2C H 0.2301 1.1879 1.0756
C4A C -0.0185(3) 0.2444(2) 0.86017(6)
C4B C 0.7556(2) -0.0185(3) 1.13983(6)
C4C C 0.2444(2) 1.0185(3) 1.13983(6)
C5A C 0.1687(3) 0.2663(3) 0.84296(6)
C5B C 0.7337(3) 0.1687(3) 1.15704(6)
C5C C 0.2663(3) 0.8313(3) 1.15704(6)
H3A H 0.1952 0.2672 0.8074
H3B H 0.7328 0.1952 1.1926
H3C H 0.2672 0.8048 1.1926
C6A C 0.3165(3) 0.2868(3) 0.87771(7)
C6B C 0.7132(3) 0.3165(3) 1.12229(7)
C6C C 0.2868(3) 0.6835(3) 1.12229(7)
H4A H 0.4451 0.3002 0.8660
H4B H 0.6998 0.4451 1.1340
H4C H 0.3002 0.5549 1.1340
C7A C -0.1706(3) 0.2151(3) 0.82385(6)
C7B C 0.7849(3) -0.1706(3) 1.17615(6)
C7C C 0.2151(3) 1.1706(3) 1.17615(6)
loop_
_geom_bond_atom_site_label_1
_geom_bond_atom_site_label_2
_geom_bond_site_symmetry_1
_geom_bond_site_symmetry_2
Ag1 N1 1_555 1_555
Al1 O1 1_555 1_555
N1 C7 1_555 1_555
O1 C1 1_555 1_555
C1 C2 1_555 1_555
C2 H1 1_555 1_555
C3 C2 1_555 1_555
H2 C3 1_555 1_555
C4 C3 1_555 1_555
C5 C4 1_555 1_555
H3 C5 1_555 1_555
C6 C1 1_555 1_555
H4 C6 1_555 1_555
C7 C4 1_555 1_555
Ag1_2 N1A 1_555 1_555
Ag1B N1C 1_555 1_555
Ag1B_2 N1B 1_555 1_555
N1A C7A 1_555 1_555
N1B C7B 1_555 1_555
N1C C7C 1_555 1_555
N1A_2 Ag1 1_555 1_555
N1F Ag1 1_555 1_555
N1G Ag1 1_555 1_555
O1A Al1 1_555 1_555
O1B Al1 1_555 1_555
O1C Al1 1_555 1_555
C1A O1A 1_555 1_555
C1B O1B 1_555 1_555
C1C O1C 1_555 1_555
C2A C1A 1_555 1_555
C2B C1B 1_555 1_555
C2C C1C 1_555 1_555
H1A C2A 1_555 1_555
H1B C2B 1_555 1_555
H1C C2C 1_555 1_555
C3A C2A 1_555 1_555
C3B C2B 1_555 1_555
C3C C2C 1_555 1_555
H2A C3A 1_555 1_555
H2B C3B 1_555 1_555
H2C C3C 1_555 1_555
C4A C3A 1_555 1_555
C4B C3B 1_555 1_555
C4C C3C 1_555 1_555
C5A C4A 1_555 1_555
C5B C4B 1_555 1_555
C5C C4C 1_555 1_555
H3A C5A 1_555 1_555
H3B C5B 1_555 1_555
H3C C5C 1_555 1_555
C6A C1A 1_555 1_555
C6B C1B 1_555 1_555
C6C C1C 1_555 1_555
H4A C6A 1_555 1_555
H4B C6B 1_555 1_555
H4C C6C 1_555 1_555
C7A C4A 1_555 1_555
C7B C4B 1_555 1_555
C7C C4C 1_555 1_555
C5 C6 1_555 1_555
C5A C6A 1_555 1_555
C5B C6B 1_555 1_555
C5C C6C 1_555 1_555

#END
