
#######################################################################
#
#                 Cambridge Crystallographic Data Centre
#                                CCDC 
#
#######################################################################
#
# If this CIF has been generated from an entry in the Cambridge 
# Structural Database, then it will include bibliographic, chemical, 
# crystal, experimental, refinement or atomic coordinate data resulting 
# from the CCDC's data processing and validation procedures.
#
#######################################################################

data_XEJVAL
_symmetry_cell_setting           monoclinic
_symmetry_space_group_name_H-M   'P 21/c'
_symmetry_Int_Tables_number      14
_space_group_name_Hall           '-P 2ybc'
loop_
_symmetry_equiv_pos_site_id
_symmetry_equiv_pos_as_xyz
1 x,y,z
2 -x,1/2+y,1/2-z
3 -x,-y,-z
4 x,1/2-y,1/2+z
_cell_length_a                   6.9562(14)
_cell_length_b                   13.499(3)
_cell_length_c                   6.8675(14)
_cell_angle_alpha                90
_cell_angle_beta                 109.36(3)
_cell_angle_gamma                90
_cell_volume                     608.406
loop_
_atom_site_label
_atom_site_type_symbol
_atom_site_fract_x
_atom_site_fract_y
_atom_site_fract_z
Sr1 Sr 0.38595(3) 0.544891(14) 0.22353(3)
O1 O 0.6163(2) 0.38641(11) 0.4181(3)
O2 O 0.6087(2) 0.22450(11) 0.3525(3)
O3 O 0.3183(2) 0.07229(12) 0.4144(3)
O4 O -0.0156(2) 0.08785(13) 0.3537(3)
N1 N 0.2302(3) 0.39733(14) 0.3828(3)
N2 N -0.0051(3) 0.28552(14) 0.3611(3)
H1 H -0.118(2) 0.2581(18) 0.355(4)
C1 C 0.0389(3) 0.38197(17) 0.3703(4)
H2 H -0.0535 0.4321 0.3683
C2 C 0.1660(3) 0.23309(15) 0.3682(3)
C3 C 0.3121(3) 0.30456(15) 0.3800(3)
C4 C 0.5280(3) 0.30306(15) 0.3843(3)
C5 C 0.1555(3) 0.12300(16) 0.3768(3)
Sr1B Sr 0.61405(3) 0.455109(14) 0.77647(3)
Sr1A Sr 0.61405(3) 0.044891(14) 0.27647(3)
Sr1C Sr 0.38595(3) -0.044891(14) 0.72353(3)
Sr1A_2 Sr -0.38595(3) 0.044891(14) 0.27647(3)
O1B O 0.3837(2) 0.61359(11) 0.5819(3)
O2A O 0.3913(2) 0.72450(11) 0.1475(3)
O3A O 0.6817(2) 0.57229(12) 0.0856(3)
O3C O 0.3183(2) 0.42771(12) -0.0856(3)
O4A O 0.0156(2) 0.58785(13) 0.1463(3)
loop_
_geom_bond_atom_site_label_1
_geom_bond_atom_site_label_2
_geom_bond_site_symmetry_1
_geom_bond_site_symmetry_2
Sr1 O1 1_555 1_555
O1 C4 1_555 1_555
O2 C4 1_555 1_555
O3 C5 1_555 1_555
O4 C5 1_555 1_555
N1 Sr1 1_555 1_555
N2 H1 1_555 1_555
C1 N1 1_555 1_555
H2 C1 1_555 1_555
C2 N2 1_555 1_555
C3 N1 1_555 1_555
C4 C3 1_555 1_555
C5 C2 1_555 1_555
Sr1B O1 1_555 1_555
Sr1A O2 1_555 1_555
Sr1C O3 1_555 1_555
Sr1A_2 O4 1_555 1_555
O1B Sr1 1_555 1_555
O2A Sr1 1_555 1_555
O3A Sr1 1_555 1_555
O3C Sr1 1_555 1_555
O4A Sr1 1_555 1_555
O3 Sr1A 1_555 1_555
N2 C1 1_555 1_555
C2 C3 1_555 1_555
Sr1B O1B 1_555 1_555

#END
