
#######################################################################
#
#                 Cambridge Crystallographic Data Centre
#                                CCDC 
#
#######################################################################
#
# If this CIF has been generated from an entry in the Cambridge 
# Structural Database, then it will include bibliographic, chemical, 
# crystal, experimental, refinement or atomic coordinate data resulting 
# from the CCDC's data processing and validation procedures.
#
#######################################################################

data_XEJVIT
_symmetry_cell_setting           orthorhombic
_symmetry_space_group_name_H-M   'F d d 2'
_symmetry_Int_Tables_number      43
_space_group_name_Hall           'F 2 -2d'
loop_
_symmetry_equiv_pos_site_id
_symmetry_equiv_pos_as_xyz
1 x,y,z
2 -x,-y,z
3 1/4+x,1/4-y,1/4+z
4 1/4-x,1/4+y,1/4+z
5 x,1/2+y,1/2+z
6 -x,1/2-y,1/2+z
7 1/4+x,3/4-y,3/4+z
8 1/4-x,3/4+y,3/4+z
9 1/2+x,y,1/2+z
10 1/2-x,-y,1/2+z
11 3/4+x,1/4-y,3/4+z
12 3/4-x,1/4+y,3/4+z
13 1/2+x,1/2+y,z
14 1/2-x,1/2-y,z
15 3/4+x,3/4-y,1/4+z
16 3/4-x,3/4+y,1/4+z
_cell_length_a                   25.521(5)
_cell_length_b                   25.696(5)
_cell_length_c                   11.103(2)
_cell_angle_alpha                90
_cell_angle_beta                 90
_cell_angle_gamma                90
_cell_volume                     7281.21
loop_
_atom_site_label
_atom_site_type_symbol
_atom_site_fract_x
_atom_site_fract_y
_atom_site_fract_z
Sr1 Sr 0.276437(16) 0.528186(15) 0.68824(5)
Sr2 Sr 0.5000 0.5000 0.31154(6)
O1 O 0.33972(14) 0.49533(13) 0.5305(4)
O2 O 0.42120(14) 0.48480(12) 0.4641(4)
O3 O 0.26971(12) 0.42851(11) 0.6785(4)
O4 O 0.26730(12) 0.34174(11) 0.6773(4)
O5 O 0.37190(15) 0.53870(14) 0.7661(4)
O6 O 0.44768(15) 0.57759(13) 0.7922(4)
H1 H 0.455(3) 0.6096(8) 0.781(7)
O7 O 0.48453(13) 0.66480(13) 0.7603(4)
O8 O 0.46466(14) 0.73611(12) 0.6569(4)
O9 O 0.67745(12) 0.51892(12) 0.1943(4)
O10 O 0.58992(13) 0.51581(12) 0.1963(4)
H2 H 0.6092(18) 0.4890(13) 0.180(6)
O11 O 0.74397(14) 0.59221(13) 0.3416(4)
O12 O 0.73404(14) 0.67217(13) 0.4098(3)
N1 N 0.42673(14) 0.38507(14) 0.5499(4)
H3 H 0.4555(12) 0.392(2) 0.513(5)
N2 N 0.37099(15) 0.33422(13) 0.6356(4)
N3 N 0.32794(16) 0.62129(14) 0.6560(4)
N4 N 0.36112(16) 0.69937(15) 0.6222(4)
H4 H 0.357(2) 0.7314(8) 0.600(5)
N5 N 0.58341(15) 0.62058(15) 0.2367(4)
H5 H 0.5551(13) 0.6107(19) 0.201(5)
N6 N 0.63278(16) 0.67703(15) 0.3242(4)
C1 C 0.41933(18) 0.33745(17) 0.5932(4)
H6 H 0.4440 0.3108 0.5937
C2 C 0.38123(18) 0.41351(16) 0.5651(5)
C3 C 0.34543(19) 0.38162(16) 0.6182(4)
C4 C 0.38026(19) 0.46955(17) 0.5169(5)
C5 C 0.28987(19) 0.38488(16) 0.6603(5)
C6 C 0.31852(19) 0.66846(18) 0.6134(6)
H7 H 0.2866 0.6790 0.5813
C7 C 0.37860(19) 0.62275(17) 0.6951(5)
C8 C 0.40021(17) 0.67094(16) 0.6740(5)
C9 C 0.4007(2) 0.57664(17) 0.7526(5)
C10 C 0.45299(17) 0.69302(16) 0.6961(5)
C11 C 0.58551(18) 0.66867(17) 0.2785(5)
H8 H 0.5583 0.6927 0.2763
C12 C 0.63078(19) 0.59710(19) 0.2553(5)
C13 C 0.66207(18) 0.63249(18) 0.3091(5)
C14 C 0.6348(2) 0.53907(19) 0.2147(5)
C15 C 0.71803(18) 0.63191(18) 0.3573(5)
Sr1A Sr 0.723563(16) 0.471814(15) 0.68824(5)
Sr1B Sr 0.526437(16) 0.721814(15) 0.93824(5)
Sr1K Sr 0.473563(16) 0.778186(15) 0.43824(5)
Sr1H Sr 0.776437(16) 0.528186(15) 0.18824(5)
Sr1I Sr 0.223563(16) 0.471814(15) 0.18824(5)
Sr1J Sr 0.026437(16) 0.721814(15) 0.43824(5)
Sr2N Sr 0.2500 0.2500 0.56154(6)
Sr2B Sr 0.7500 0.7500 0.56154(6)
O1A O 0.66028(14) 0.50467(13) 0.5305(4)
O2A O 0.57880(14) 0.51520(12) 0.4641(4)
O3A O 0.73029(12) 0.57149(11) 0.6785(4)
O4A O 0.73270(12) 0.65826(11) 0.6773(4)
O4F O 0.51730(12) 0.40826(11) 0.4273(4)
O4K O 0.48270(12) 0.59174(11) 0.4273(4)
O5J O 0.12190(15) 0.71130(14) 0.5161(4)
O5A O 0.62810(15) 0.46130(14) 0.7661(4)
O6J O 0.19768(15) 0.67241(13) 0.5422(4)
H1J H 0.205(3) 0.6404(8) 0.531(7)
O7J O 0.23453(13) 0.58520(13) 0.5103(4)
O7G O 0.76547(13) 0.41480(13) 0.5103(4)
O8J O 0.21466(14) 0.51389(12) 0.4069(4)
O8O O 0.28534(14) 0.48611(12) 0.9069(4)
O8B O 0.71466(14) 0.51389(12) 0.9069(4)
O9A O 0.32255(12) 0.48108(12) 0.1943(4)
O9H O 0.17745(12) 0.51892(12) 0.6943(4)
O9I O 0.82255(12) 0.48108(12) 0.6943(4)
O10A O 0.41008(13) 0.48419(12) 0.1963(4)
H2A H 0.3908(18) 0.5110(13) 0.180(6)
O11A O 0.25603(14) 0.40779(13) 0.3416(4)
O11H O 0.24397(14) 0.59221(13) 0.8416(4)
O11I O 0.75603(14) 0.40779(13) 0.8416(4)
O12A O 0.26596(14) 0.32783(13) 0.4098(3)
O12J O 0.48404(14) 0.57783(13) 0.1598(3)
O12G O 0.51596(14) 0.42217(13) 0.1598(3)
N1A N 0.57327(14) 0.61493(14) 0.5499(4)
H3A H 0.5445(12) 0.608(2) 0.513(5)
N2A N 0.62901(15) 0.66578(13) 0.6356(4)
N3J N 0.07794(16) 0.62871(14) 0.4060(4)
N3A N 0.67206(16) 0.37871(14) 0.6560(4)
N4J N 0.11112(16) 0.55063(15) 0.3722(4)
H4J H 0.107(2) 0.5186(8) 0.350(5)
N5A N 0.41659(15) 0.37942(15) 0.2367(4)
H5A H 0.4449(13) 0.3893(19) 0.201(5)
N6A N 0.36722(16) 0.32297(15) 0.3242(4)
C1A C 0.58067(18) 0.66255(17) 0.5932(4)
H6A H 0.5560 0.6892 0.5937
C2A C 0.61877(18) 0.58649(16) 0.5651(5)
C3A C 0.65457(19) 0.61838(16) 0.6182(4)
C4A C 0.61974(19) 0.53045(17) 0.5169(5)
C5A C 0.71013(19) 0.61512(16) 0.6603(5)
C6J C 0.06852(19) 0.58154(18) 0.3634(6)
H7J H 0.0366 0.5710 0.3313
C7J C 0.12860(19) 0.62725(17) 0.4451(5)
C8J C 0.15021(17) 0.57906(16) 0.4240(5)
C9J C 0.1507(2) 0.67336(17) 0.5026(5)
C10J C 0.20299(17) 0.55698(16) 0.4461(5)
C11A C 0.41449(18) 0.33133(17) 0.2785(5)
H8A H 0.4417 0.3073 0.2763
C12A C 0.36922(19) 0.40290(19) 0.2553(5)
C13A C 0.33793(18) 0.36751(18) 0.3091(5)
C14A C 0.3652(2) 0.46093(19) 0.2147(5)
C15A C 0.28197(18) 0.36809(18) 0.3573(5)
loop_
_geom_bond_atom_site_label_1
_geom_bond_atom_site_label_2
_geom_bond_site_symmetry_1
_geom_bond_site_symmetry_2
Sr1 O1 1_555 1_555
Sr2 O2 1_555 1_555
O1 C4 1_555 1_555
O2 C4 1_555 1_555
O3 Sr1 1_555 1_555
O4 C5 1_555 1_555
O5 Sr1 1_555 1_555
O6 H1 1_555 1_555
O7 C10 1_555 1_555
O8 C10 1_555 1_555
O9 C14 1_555 1_555
O10 Sr2 1_555 1_555
H2 O10 1_555 1_555
O11 C15 1_555 1_555
O12 C15 1_555 1_555
N1 H3 1_555 1_555
N2 C1 1_555 1_555
N3 Sr1 1_555 1_555
N4 H4 1_555 1_555
N5 H5 1_555 1_555
N6 C11 1_555 1_555
C1 N1 1_555 1_555
H6 C1 1_555 1_555
C2 N1 1_555 1_555
C3 N2 1_555 1_555
C4 C2 1_555 1_555
C5 O3 1_555 1_555
C6 N3 1_555 1_555
H7 C6 1_555 1_555
C7 N3 1_555 1_555
C8 N4 1_555 1_555
C9 O5 1_555 1_555
C10 C8 1_555 1_555
C11 N5 1_555 1_555
H8 C11 1_555 1_555
C12 N5 1_555 1_555
C13 N6 1_555 1_555
C14 O10 1_555 1_555
C15 C13 1_555 1_555
Sr1A O1A 1_555 1_555
Sr1B O7 1_555 1_555
Sr1K O8 1_555 1_555
Sr1H O9 1_555 1_555
Sr1I O8J 1_555 1_555
Sr1J O5J 1_555 1_555
Sr2N O4 1_555 1_555
Sr2B O12 1_555 1_555
O1A C4A 1_555 1_555
O2A Sr2 1_555 1_555
O3A Sr1A 1_555 1_555
O4A Sr2B 1_555 1_555
O4F Sr2 1_555 1_555
O4K Sr2 1_555 1_555
O5J C9J 1_555 1_555
O5A Sr1A 1_555 1_555
O6J H1J 1_555 1_555
O7J Sr1 1_555 1_555
O7G Sr1A 1_555 1_555
O8J C10J 1_555 1_555
O8O Sr1 1_555 1_555
O8B Sr1A 1_555 1_555
O9A Sr1I 1_555 1_555
O9H Sr1 1_555 1_555
O9I Sr1A 1_555 1_555
O10A Sr2 1_555 1_555
H2A O10A 1_555 1_555
O11A Sr1I 1_555 1_555
O11H Sr1 1_555 1_555
O11I Sr1A 1_555 1_555
O12A Sr2N 1_555 1_555
O12J Sr2 1_555 1_555
O12G Sr2 1_555 1_555
N1A H3A 1_555 1_555
N2A C1A 1_555 1_555
N3J Sr1J 1_555 1_555
N3A Sr1A 1_555 1_555
N4J H4J 1_555 1_555
N5A H5A 1_555 1_555
N6A C11A 1_555 1_555
C1A N1A 1_555 1_555
H6A C1A 1_555 1_555
C2A N1A 1_555 1_555
C3A N2A 1_555 1_555
C4A O2A 1_555 1_555
C5A O3A 1_555 1_555
C6J N3J 1_555 1_555
H7J C6J 1_555 1_555
C7J N3J 1_555 1_555
C8J N4J 1_555 1_555
C9J O6J 1_555 1_555
C10J O7J 1_555 1_555
C11A N5A 1_555 1_555
H8A C11A 1_555 1_555
C12A N5A 1_555 1_555
C13A N6A 1_555 1_555
C14A O9A 1_555 1_555
C15A O11A 1_555 1_555
O6 C9 1_555 1_555
O11 Sr1H 1_555 1_555
N4 C6 1_555 1_555
C2 C3 1_555 1_555
C3 C5 1_555 1_555
C7 C8 1_555 1_555
C7 C9 1_555 1_555
C12 C13 1_555 1_555
C12 C14 1_555 1_555
O4A C5A 1_555 1_555
O10A C14A 1_555 1_555
O12A C15A 1_555 1_555
N4J C6J 1_555 1_555
C2A C3A 1_555 1_555
C2A C4A 1_555 1_555
C3A C5A 1_555 1_555
C7J C8J 1_555 1_555
C7J C9J 1_555 1_555
C8J C10J 1_555 1_555
C12A C13A 1_555 1_555
C12A C14A 1_555 1_555
C13A C15A 1_555 1_555

#END
