
#######################################################################
#
#                 Cambridge Crystallographic Data Centre
#                                CCDC 
#
#######################################################################
#
# If this CIF has been generated from an entry in the Cambridge 
# Structural Database, then it will include bibliographic, chemical, 
# crystal, experimental, refinement or atomic coordinate data resulting 
# from the CCDC's data processing and validation procedures.
#
#######################################################################

data_XEKCAT01
_symmetry_cell_setting           monoclinic
_symmetry_space_group_name_H-M   'P 21/c'
_symmetry_Int_Tables_number      14
_space_group_name_Hall           '-P 2ybc'
loop_
_symmetry_equiv_pos_site_id
_symmetry_equiv_pos_as_xyz
1 x,y,z
2 -x,1/2+y,1/2-z
3 -x,-y,-z
4 x,1/2-y,1/2+z
_cell_length_a                   17.566(4)
_cell_length_b                   11.961(2)
_cell_length_c                   18.514(4)
_cell_angle_alpha                90
_cell_angle_beta                 116.65(3)
_cell_angle_gamma                90
_cell_volume                     3476.67
loop_
_atom_site_label
_atom_site_type_symbol
_atom_site_fract_x
_atom_site_fract_y
_atom_site_fract_z
Mg1 Mg 0.28724(9) 0.41852(12) 0.02746(8)
Mg2 Mg 0.28781(9) 0.55240(12) 0.19953(9)
O1 O 0.30491(18) 0.4054(2) 0.15088(17)
O2 O 0.32096(19) 0.1175(3) 0.44045(18)
O3 O 0.3730(2) 0.2903(3) 0.10858(18)
O4 O 0.61469(19) 0.0343(3) 0.43342(19)
O5 O 0.2857(2) 0.2948(3) 0.4019(2)
O6 O 0.6279(2) 0.1229(3) 0.3335(2)
C1 C 0.3768(3) 0.2027(4) 0.3594(3)
C2 C 0.3488(3) 0.2661(4) 0.2897(3)
H1 H 0.2997 0.3090 0.2735
C3 C 0.3932(3) 0.2664(4) 0.2437(3)
C4 C 0.4531(3) 0.1429(4) 0.3860(3)
H2 H 0.4714 0.0984 0.4319
C5 C 0.3569(3) 0.3244(4) 0.1638(3)
C6 C 0.3242(3) 0.2051(4) 0.4049(3)
C7 C 0.4697(3) 0.2101(4) 0.2722(3)
H3 H 0.5007 0.2125 0.2426
C8 C 0.5018(3) 0.1497(4) 0.3440(3)
C9 C 0.5879(3) 0.0977(4) 0.3725(3)
O7 O 0.3879(2) 0.5254(3) 0.3146(2)
O8 O 0.2760(2) 0.7044(3) 0.2482(2)
C10 C 0.2128(4) 0.7361(5) 0.2531(4)
H4 H 0.1617 0.7014 0.2193
N1 N 0.2095(4) 0.8147(4) 0.3013(4)
C11 C 0.1286(7) 0.8435(8) 0.3020(7)
H5 H 0.0822 0.8265 0.2503
H6 H 0.1280 0.9219 0.3130
H7 H 0.1227 0.8010 0.3432
O9 O 0.18676(19) 0.2866(3) -0.00975(18)
N2 N 0.4322(3) 0.6032(5) 0.4372(3)
C12 C 0.3803(3) 0.5400(5) 0.3764(3)
H8 H 0.3355 0.5046 0.3809
C13 C 0.4186(5) 0.6223(7) 0.5086(4)
H9 H 0.4714 0.6126 0.5564
H10 H 0.3774 0.5699 0.5090
H11 H 0.3981 0.6970 0.5072
C14 C 0.5010(5) 0.6656(7) 0.4322(4)
H12 H 0.5517 0.6590 0.4824
H13 H 0.4852 0.7429 0.4217
H14 H 0.5113 0.6359 0.3893
O10 O 0.0627(2) 0.2178(3) -0.09433(19)
C15 C 0.1073(3) 0.2737(4) -0.0321(3)
C16 C 0.1161(3) 0.3541(4) 0.0967(3)
H15 H 0.1746 0.3426 0.1204
C17 C 0.0661(3) 0.3227(4) 0.0163(3)
C18 C 0.0790(3) 0.4025(4) 0.1413(3)
Mg3 Mg 0.16582(10) 0.17878(13) -0.11854(9)
O11 O 0.2005(2) 0.0431(3) -0.0391(2)
O12 O 0.1369(3) 0.3167(4) -0.1975(3)
N3 N 0.2772(3) -0.0425(4) 0.0807(3)
N4 N 0.0720(3) 0.4035(4) -0.3183(3)
C19 C 0.2573(4) 0.0438(4) 0.0312(3)
H16 H 0.2883 0.1094 0.0504
C20 C 0.2318(5) -0.1473(5) 0.0551(4)
H17 H 0.1762 -0.1397 0.0526
H18 H 0.2627 -0.2049 0.0931
H19 H 0.2262 -0.1668 0.0027
C21 C 0.0773(5) 0.3476(6) -0.2541(5)
H20 H 0.0254 0.3307 -0.2546
C22 C -0.0204(3) 0.3412(4) -0.0185(3)
H21 H -0.0540 0.3180 -0.0713
C23 C 0.3467(4) -0.0391(6) 0.1617(4)
H22 H 0.3877 -0.0957 0.1671
H23 H 0.3250 -0.0525 0.2002
H24 H 0.3733 0.0331 0.1714
C24 C -0.1514(3) 0.4268(4) -0.0213(3)
C25 C -0.0081(3) 0.4222(4) 0.1043(3)
H25 H -0.0331 0.4551 0.1339
C26 C -0.0586(3) 0.3941(4) 0.0241(3)
C27 C 0.1435(6) 0.4292(8) -0.3309(6)
H26 H 0.1945 0.4062 -0.2847
H27 H 0.1455 0.5084 -0.3385
H28 H 0.1393 0.3907 -0.3780
C28 C -0.0109(5) 0.4319(8) -0.3775(6)
H29 H -0.0494 0.4311 -0.3537
H30 H -0.0294 0.3786 -0.4209
H31 H -0.0100 0.5052 -0.3982
O13 O -0.18677(18) 0.4056(3) -0.09475(18)
O14 O -0.18513(19) 0.4760(3) 0.01737(18)
O15 O 0.20657(19) 0.4791(3) 0.24270(18)
C29 C 0.1363(3) 0.4358(4) 0.2277(3)
O16 O 0.1109(2) 0.4163(3) 0.28056(19)
C30 C 0.2881(6) 0.8664(8) 0.3590(5)
H32 H 0.3028 0.8380 0.4122
H33 H 0.2806 0.9459 0.3585
H34 H 0.3330 0.8494 0.3447
Mg1C Mg 0.28724(9) 0.08148(12) 0.52746(8)
Mg1A Mg 0.71276(9) -0.08148(12) 0.47254(8)
Mg1B Mg -0.28724(9) 0.58148(12) -0.02746(8)
Mg2A Mg 0.71219(9) 0.05240(12) 0.30047(9)
Mg2B Mg -0.28781(9) 0.44760(12) -0.19953(9)
O2C O 0.32096(19) 0.3825(3) -0.05955(18)
O4A O 0.38531(19) 0.5343(3) 0.06658(19)
O5C O 0.2857(2) 0.2052(3) -0.0981(2)
O6A O 0.3721(2) 0.6229(3) 0.1665(2)
Mg3C Mg 0.16582(10) 0.32122(13) 0.38146(9)
O13B O 0.18677(18) 0.5944(3) 0.09475(18)
O14B O 0.18513(19) 0.5240(3) -0.01737(18)
O16C O 0.1109(2) 0.0837(3) -0.21944(19)
loop_
_geom_bond_atom_site_label_1
_geom_bond_atom_site_label_2
_geom_bond_site_symmetry_1
_geom_bond_site_symmetry_2
Mg1 O1 1_555 1_555
Mg2 O1 1_555 1_555
O1 C5 1_555 1_555
O2 C6 1_555 1_555
O3 Mg1 1_555 1_555
O4 C9 1_555 1_555
O5 C6 1_555 1_555
O6 C9 1_555 1_555
C1 C2 1_555 1_555
C2 H1 1_555 1_555
C3 C2 1_555 1_555
C4 C1 1_555 1_555
H2 C4 1_555 1_555
C5 O3 1_555 1_555
C6 C1 1_555 1_555
C7 C3 1_555 1_555
H3 C7 1_555 1_555
C8 C4 1_555 1_555
C9 C8 1_555 1_555
O7 Mg2 1_555 1_555
O8 Mg2 1_555 1_555
C10 O8 1_555 1_555
H4 C10 1_555 1_555
N1 C10 1_555 1_555
C11 N1 1_555 1_555
H5 C11 1_555 1_555
H6 C11 1_555 1_555
H7 C11 1_555 1_555
O9 Mg1 1_555 1_555
N2 C12 1_555 1_555
C12 O7 1_555 1_555
H8 C12 1_555 1_555
C13 N2 1_555 1_555
H9 C13 1_555 1_555
H10 C13 1_555 1_555
H11 C13 1_555 1_555
C14 N2 1_555 1_555
H12 C14 1_555 1_555
H13 C14 1_555 1_555
H14 C14 1_555 1_555
O10 C15 1_555 1_555
C15 O9 1_555 1_555
C16 H15 1_555 1_555
C17 C15 1_555 1_555
C18 C16 1_555 1_555
Mg3 O9 1_555 1_555
O11 Mg3 1_555 1_555
O12 Mg3 1_555 1_555
N3 C19 1_555 1_555
N4 C21 1_555 1_555
C19 O11 1_555 1_555
H16 C19 1_555 1_555
C20 N3 1_555 1_555
H17 C20 1_555 1_555
H18 C20 1_555 1_555
H19 C20 1_555 1_555
C21 O12 1_555 1_555
H20 C21 1_555 1_555
C22 C17 1_555 1_555
H21 C22 1_555 1_555
C23 N3 1_555 1_555
H22 C23 1_555 1_555
H23 C23 1_555 1_555
H24 C23 1_555 1_555
C24 C26 1_555 1_555
C25 C18 1_555 1_555
H25 C25 1_555 1_555
C26 C22 1_555 1_555
C27 N4 1_555 1_555
H26 C27 1_555 1_555
H27 C27 1_555 1_555
H28 C27 1_555 1_555
C28 N4 1_555 1_555
H29 C28 1_555 1_555
H30 C28 1_555 1_555
H31 C28 1_555 1_555
O13 C24 1_555 1_555
O14 C24 1_555 1_555
O15 Mg2 1_555 1_555
C29 C18 1_555 1_555
O16 C29 1_555 1_555
C30 N1 1_555 1_555
H32 C30 1_555 1_555
H33 C30 1_555 1_555
H34 C30 1_555 1_555
Mg1C O2 1_555 1_555
Mg1A O4 1_555 1_555
Mg1B O14 1_555 1_555
Mg2A O6 1_555 1_555
Mg2B O13 1_555 1_555
O2C Mg1 1_555 1_555
O4A Mg1 1_555 1_555
O5C Mg3 1_555 1_555
O6A Mg2 1_555 1_555
Mg3C O5 1_555 1_555
O13B Mg2 1_555 1_555
O14B Mg1 1_555 1_555
O16C Mg3 1_555 1_555
C3 C5 1_555 1_555
C7 C8 1_555 1_555
O10 Mg3 1_555 1_555
C16 C17 1_555 1_555
C25 C26 1_555 1_555
O15 C29 1_555 1_555
O16 Mg3C 1_555 1_555

#END
