
#######################################################################
#
#                 Cambridge Crystallographic Data Centre
#                                CCDC 
#
#######################################################################
#
# If this CIF has been generated from an entry in the Cambridge 
# Structural Database, then it will include bibliographic, chemical, 
# crystal, experimental, refinement or atomic coordinate data resulting 
# from the CCDC's data processing and validation procedures.
#
#######################################################################

data_XEKDOI
_symmetry_cell_setting           monoclinic
_symmetry_space_group_name_H-M   'P 21/c'
_symmetry_Int_Tables_number      14
_space_group_name_Hall           '-P 2ybc'
loop_
_symmetry_equiv_pos_site_id
_symmetry_equiv_pos_as_xyz
1 x,y,z
2 -x,1/2+y,1/2-z
3 -x,-y,-z
4 x,1/2-y,1/2+z
_cell_length_a                   9.334(6)
_cell_length_b                   29.102(18)
_cell_length_c                   7.702(5)
_cell_angle_alpha                90
_cell_angle_beta                 108.395(9)
_cell_angle_gamma                90
_cell_volume                     1985.25
loop_
_atom_site_label
_atom_site_type_symbol
_atom_site_fract_x
_atom_site_fract_y
_atom_site_fract_z
Cu1 Cu 1.0000 0.0000 0.5000
Cu2 Cu 0.66907(8) -0.00164(3) 0.51519(10)
C1 C 0.8509(8) 0.0882(2) 0.5317(9)
C2 C 0.8731(8) 0.1399(2) 0.5327(9)
C3 C 0.7542(9) 0.1691(2) 0.5324(11)
H1 H 0.6630 0.1568 0.5351
C4 C 0.7711(9) 0.2161(2) 0.5282(12)
H2 H 0.6896 0.2348 0.5256
C5 C 0.9049(8) 0.2366(2) 0.5277(9)
C6 C 1.0221(8) 0.2064(2) 0.5293(10)
H3 H 1.1140 0.2187 0.5288
C7 C 1.0074(8) 0.1594(2) 0.5315(10)
H4 H 1.0883 0.1407 0.5322
C8 C 0.9227(8) 0.2863(2) 0.5297(9)
C9 C 0.8138(8) 0.3159(2) 0.5596(11)
H5 H 0.7255 0.3036 0.5718
C10 C 0.8353(9) 0.3629(2) 0.5713(11)
H6 H 0.7641 0.3818 0.5966
C11 C 1.0616(9) 0.3539(3) 0.5090(11)
H7 H 1.1454 0.3673 0.4887
C12 C 1.0480(9) 0.3071(2) 0.4996(10)
H8 H 1.1214 0.2893 0.4736
C13 C 0.9902(8) 0.4315(2) 0.5693(10)
H9 H 0.9036 0.4466 0.5881
H10 H 1.0038 0.4439 0.4587
C14 C 1.1309(8) 0.4417(2) 0.7321(10)
N1 N 0.9604(7) 0.38140(18) 0.5458(8)
N2 N 0.7880(6) -0.01104(19) 0.3490(8)
N3 N 0.7615(7) -0.0406(3) 0.2354(12)
N4 N 0.7331(10) -0.0712(4) 0.1244(14)
N5 N 0.5351(6) 0.0010(2) 0.6728(8)
N6 N 0.5775(7) 0.0199(2) 0.8181(10)
N7 N 0.6185(8) 0.0370(3) 0.9586(10)
O1 O 0.9611(5) 0.06567(15) 0.5116(7)
O2 O 0.7333(6) 0.07247(15) 0.5482(7)
O3 O 1.1424(5) 0.48419(16) 0.7738(6)
O4 O 1.2177(5) 0.41092(17) 0.8077(7)
Cu2B Cu 1.33093(8) 0.00164(3) 0.48481(10)
Cu2B_2 Cu 0.33093(8) 0.00164(3) 0.48481(10)
Cu2A Cu 1.33093(8) 0.49836(3) 0.98481(10)
Cu2C Cu 0.66907(8) -0.49836(3) 0.01519(10)
C1B C 1.1491(8) -0.0882(2) 0.4683(9)
C2B C 1.1269(8) -0.1399(2) 0.4673(9)
C3B C 1.2458(9) -0.1691(2) 0.4676(11)
H1B H 1.3370 -0.1568 0.4649
C4B C 1.2289(9) -0.2161(2) 0.4718(12)
H2B H 1.3104 -0.2348 0.4744
C5B C 1.0951(8) -0.2366(2) 0.4723(9)
C6B C 0.9779(8) -0.2064(2) 0.4707(10)
H3B H 0.8860 -0.2187 0.4712
C7B C 0.9926(8) -0.1594(2) 0.4685(10)
H4B H 0.9117 -0.1407 0.4678
C8B C 1.0773(8) -0.2863(2) 0.4703(9)
C9B C 1.1862(8) -0.3159(2) 0.4404(11)
H5B H 1.2745 -0.3036 0.4282
C10B C 1.1647(9) -0.3629(2) 0.4287(11)
H6B H 1.2359 -0.3818 0.4034
C11B C 0.9384(9) -0.3539(3) 0.4910(11)
H7B H 0.8546 -0.3673 0.5113
C12B C 0.9520(9) -0.3071(2) 0.5004(10)
H8B H 0.8786 -0.2893 0.5264
C13B C 1.0098(8) -0.4315(2) 0.4307(10)
H9B H 1.0964 -0.4466 0.4119
H10B H 0.9962 -0.4439 0.5413
C14B C 0.8691(8) -0.4417(2) 0.2679(10)
N1B N 1.0396(7) -0.38140(18) 0.4542(8)
N2B N 1.2120(6) 0.01104(19) 0.6510(8)
N3B N 1.2385(7) 0.0406(3) 0.7646(12)
N4B N 1.2669(10) 0.0712(4) 0.8756(14)
N5B N 0.4649(6) -0.0010(2) 0.3272(8)
N5B_2 N 1.4649(6) -0.0010(2) 0.3272(8)
N5_2 N 1.5351(6) 0.0010(2) 0.6728(8)
N6B N 0.4225(7) -0.0199(2) 0.1819(10)
N7B N 0.3815(8) -0.0370(3) 0.0414(10)
O1B O 1.0389(5) -0.06567(15) 0.4884(7)
O2B O 1.2667(6) -0.07247(15) 0.4518(7)
O3B O 0.8576(5) -0.48419(16) 0.2262(6)
O3A O 0.8576(5) -0.01581(16) 0.7262(6)
O3C O 1.1424(5) 0.01581(16) 0.2738(6)
O4B O 0.7823(5) -0.41092(17) 0.1923(7)
O5 O 1.4561(10) 0.1123(3) 0.6078(12)
O6 O 0.4899(12) -0.1168(4) -0.1746(14)
O7 O 1.437(2) 0.2902(6) 0.580(2)
O8 O 1.4367(19) 0.2054(6) 0.721(2)
O9? O 1.373(4) 0.2532(12) 0.400(6)
loop_
_geom_bond_atom_site_label_1
_geom_bond_atom_site_label_2
_geom_bond_site_symmetry_1
_geom_bond_site_symmetry_2
Cu1 N2 1_555 1_555
Cu2 N2 1_555 1_555
C1 C2 1_555 1_555
C2 C3 1_555 1_555
C3 H1 1_555 1_555
C4 C3 1_555 1_555
H2 C4 1_555 1_555
C5 C4 1_555 1_555
C6 C5 1_555 1_555
H3 C6 1_555 1_555
C7 C2 1_555 1_555
H4 C7 1_555 1_555
C8 C5 1_555 1_555
C9 C8 1_555 1_555
H5 C9 1_555 1_555
C10 C9 1_555 1_555
H6 C10 1_555 1_555
C11 H7 1_555 1_555
C12 C8 1_555 1_555
H8 C12 1_555 1_555
C13 H9 1_555 1_555
H10 C13 1_555 1_555
C14 C13 1_555 1_555
N1 C10 1_555 1_555
N2 N3 1_555 1_555
N3 N4 1_555 1_555
N5 Cu2 1_555 1_555
N6 N5 1_555 1_555
N7 N6 1_555 1_555
O1 Cu1 1_555 1_555
O2 Cu2 1_555 1_555
O3 C14 1_555 1_555
O4 C14 1_555 1_555
Cu2B N2B 1_555 1_555
Cu2B_2 N5 1_555 1_555
Cu2A O3 1_555 1_555
Cu2C O3B 1_555 1_555
C1B C2B 1_555 1_555
C2B C3B 1_555 1_555
C3B H1B 1_555 1_555
C4B C3B 1_555 1_555
H2B C4B 1_555 1_555
C5B C4B 1_555 1_555
C6B C5B 1_555 1_555
H3B C6B 1_555 1_555
C7B C2B 1_555 1_555
H4B C7B 1_555 1_555
C8B C5B 1_555 1_555
C9B C8B 1_555 1_555
H5B C9B 1_555 1_555
C10B C9B 1_555 1_555
H6B C10B 1_555 1_555
C11B H7B 1_555 1_555
C12B C8B 1_555 1_555
H8B C12B 1_555 1_555
C13B H9B 1_555 1_555
H10B C13B 1_555 1_555
C14B C13B 1_555 1_555
N1B C10B 1_555 1_555
N2B Cu1 1_555 1_555
N3B N2B 1_555 1_555
N4B N3B 1_555 1_555
N5B Cu2 1_555 1_555
N5B_2 Cu2B 1_555 1_555
N5_2 Cu2B 1_555 1_555
N6B N5B 1_555 1_555
N7B N6B 1_555 1_555
O1B Cu1 1_555 1_555
O2B Cu2B 1_555 1_555
O3B C14B 1_555 1_555
O3A Cu2 1_555 1_555
O3C Cu2B 1_555 1_555
O4B C14B 1_555 1_555
C1 O1 1_555 1_555
C1 O2 1_555 1_555
C6 C7 1_555 1_555
C11 C12 1_555 1_555
C11 N1 1_555 1_555
C13 N1 1_555 1_555
Cu2B_2 N5B 1_555 1_555
C1B O1B 1_555 1_555
C1B O2B 1_555 1_555
C6B C7B 1_555 1_555
C11B C12B 1_555 1_555
C11B N1B 1_555 1_555
C13B N1B 1_555 1_555

#END
