
#######################################################################
#
#                 Cambridge Crystallographic Data Centre
#                                CCDC 
#
#######################################################################
#
# If this CIF has been generated from an entry in the Cambridge 
# Structural Database, then it will include bibliographic, chemical, 
# crystal, experimental, refinement or atomic coordinate data resulting 
# from the CCDC's data processing and validation procedures.
#
#######################################################################

data_XEKDAU
_symmetry_cell_setting           monoclinic
_symmetry_space_group_name_H-M   'P 21/c'
_symmetry_Int_Tables_number      14
_space_group_name_Hall           '-P 2ybc'
loop_
_symmetry_equiv_pos_site_id
_symmetry_equiv_pos_as_xyz
1 x,y,z
2 -x,1/2+y,1/2-z
3 -x,-y,-z
4 x,1/2-y,1/2+z
_cell_length_a                   11.186(2)
_cell_length_b                   7.8121(14)
_cell_length_c                   12.710(2)
_cell_angle_alpha                90
_cell_angle_beta                 117.012(14)
_cell_angle_gamma                90
_cell_volume                     989.516
loop_
_atom_site_label
_atom_site_type_symbol
_atom_site_fract_x
_atom_site_fract_y
_atom_site_fract_z
Ag1 Ag 0.92335(3) 0.58802(3) 0.74097(2)
Ag2 Ag 0.91757(3) 0.36156(4) 0.50680(2)
S1 S 1.16349(8) 0.40342(9) 0.97659(7)
O1 O 1.0795(2) 0.3852(3) 0.7002(2)
O2 O 1.2280(3) 0.5511(3) 0.6736(2)
O3 O 1.0576(2) 0.2777(3) 0.9163(2)
O4 O 1.1262(3) 0.5764(3) 0.9274(2)
O5 O 1.2127(2) 0.3996(3) 1.1045(2)
O6 O 1.6199(3) 0.0962(4) 1.2236(2)
H1 H 1.6843 0.0438 1.2734
O7 O 1.7420(3) 0.0890(3) 1.1246(2)
C1 C 1.1961(3) 0.4479(4) 0.7314(3)
C2 C 1.3094(3) 0.3805(4) 0.8453(3)
C3 C 1.3035(3) 0.3440(4) 0.9517(3)
C4 C 1.4113(3) 0.2669(4) 1.0442(3)
H2 H 1.4070 0.2450 1.1144
C5 C 1.5268(3) 0.2214(4) 1.0344(3)
C6 C 1.5359(3) 0.2633(4) 0.9320(3)
H3 H 1.6129 0.2368 0.9249
C7 C 1.4292(3) 0.3451(4) 0.8404(3)
H4 H 1.4377 0.3773 0.7736
C8 C 1.6411(3) 0.1299(4) 1.1321(3)
Ag1C Ag 1.92335(3) -0.08802(3) 1.24097(2)
Ag2B Ag 1.08243(3) 0.63844(4) 0.49320(2)
O2B O 0.7720(3) 0.4489(3) 0.3264(2)
O7C O 0.7420(3) 0.4110(3) 0.6246(2)
loop_
_geom_bond_atom_site_label_1
_geom_bond_atom_site_label_2
_geom_bond_site_symmetry_1
_geom_bond_site_symmetry_2
Ag1 O4 1_555 1_555
Ag2 O1 1_555 1_555
S1 O3 1_555 1_555
O1 C1 1_555 1_555
O2 C1 1_555 1_555
O4 S1 1_555 1_555
O5 S1 1_555 1_555
O6 H1 1_555 1_555
O7 C8 1_555 1_555
C1 C2 1_555 1_555
C2 C3 1_555 1_555
C3 S1 1_555 1_555
C4 C3 1_555 1_555
H2 C4 1_555 1_555
C5 C4 1_555 1_555
C6 C5 1_555 1_555
H3 C6 1_555 1_555
C7 C2 1_555 1_555
H4 C7 1_555 1_555
C8 O6 1_555 1_555
Ag1C O7 1_555 1_555
Ag2B O2 1_555 1_555
O2B Ag2 1_555 1_555
O7C Ag1 1_555 1_555
C5 C8 1_555 1_555
C6 C7 1_555 1_555

#END
