
#######################################################################
#
#                 Cambridge Crystallographic Data Centre
#                                CCDC 
#
#######################################################################
#
# If this CIF has been generated from an entry in the Cambridge 
# Structural Database, then it will include bibliographic, chemical, 
# crystal, experimental, refinement or atomic coordinate data resulting 
# from the CCDC's data processing and validation procedures.
#
#######################################################################

data_XEKHAY
_symmetry_cell_setting           monoclinic
_symmetry_space_group_name_H-M   'P 21/c'
_symmetry_Int_Tables_number      14
_space_group_name_Hall           '-P 2ybc'
loop_
_symmetry_equiv_pos_site_id
_symmetry_equiv_pos_as_xyz
1 x,y,z
2 -x,1/2+y,1/2-z
3 -x,-y,-z
4 x,1/2-y,1/2+z
_cell_length_a                   10.52999(14)
_cell_length_b                   11.13677(15)
_cell_length_c                   8.09356(12)
_cell_angle_alpha                90
_cell_angle_beta                 99.9107(14)
_cell_angle_gamma                90
_cell_volume                     934.969
loop_
_atom_site_label
_atom_site_type_symbol
_atom_site_fract_x
_atom_site_fract_y
_atom_site_fract_z
Cu1 Cu 0.38253(3) 0.60300(3) 0.15835(3)
O1 O 0.21771(13) 0.64566(13) 0.01533(17)
N1 N 0.32791(16) 0.45960(16) 0.2675(2)
N2 N 0.21692(17) 0.43067(16) 0.2502(2)
N3 N 0.11158(19) 0.39805(18) 0.2394(3)
N4 N 0.12732(16) 0.76343(16) -0.1996(2)
H1 H 0.1404 0.7952 -0.2949
H2 H 0.0610 0.7246 -0.1943
N5 N 0.35021(16) 0.75888(15) -0.1284(2)
N6 N 0.44121(16) 0.70475(15) -0.0109(2)
N7 N 0.57317(16) 0.57019(16) 0.2151(2)
C1 C 0.23327(19) 0.72000(18) -0.1007(2)
C2 C 0.56353(19) 0.71030(18) -0.0091(3)
H3 H 0.5996 0.7567 -0.0847
C3 C 0.64147(19) 0.63757(18) 0.1215(2)
C4 C 0.7753(2) 0.63488(19) 0.1474(3)
H4 H 0.8208 0.6810 0.0817
C5 C 0.8397(2) 0.5618(2) 0.2737(3)
H5 H 0.9293 0.5590 0.2942
C6 C 0.7697(2) 0.49322(19) 0.3690(3)
H6 H 0.8115 0.4439 0.4540
C7 C 0.6361(2) 0.49930(19) 0.3354(2)
H7 H 0.5889 0.4526 0.3984
Cu1C Cu 0.38253(3) 0.89700(3) -0.34165(3)
N5C N 0.35021(16) 0.74112(15) 0.3716(2)
loop_
_geom_bond_atom_site_label_1
_geom_bond_atom_site_label_2
_geom_bond_site_symmetry_1
_geom_bond_site_symmetry_2
Cu1 O1 1_555 1_555
O1 C1 1_555 1_555
N1 Cu1 1_555 1_555
N2 N1 1_555 1_555
N3 N2 1_555 1_555
N4 H1 1_555 1_555
H2 N4 1_555 1_555
N5 N6 1_555 1_555
N6 Cu1 1_555 1_555
N7 Cu1 1_555 1_555
C1 N4 1_555 1_555
C2 N6 1_555 1_555
H3 C2 1_555 1_555
C3 N7 1_555 1_555
C4 C3 1_555 1_555
H4 C4 1_555 1_555
C5 C4 1_555 1_555
H5 C5 1_555 1_555
C6 C5 1_555 1_555
H6 C6 1_555 1_555
C7 N7 1_555 1_555
H7 C7 1_555 1_555
Cu1C N5 1_555 1_555
N5C Cu1 1_555 1_555
N5 C1 1_555 1_555
C2 C3 1_555 1_555
C6 C7 1_555 1_555

#END
