
#######################################################################
#
#                 Cambridge Crystallographic Data Centre
#                                CCDC 
#
#######################################################################
#
# If this CIF has been generated from an entry in the Cambridge 
# Structural Database, then it will include bibliographic, chemical, 
# crystal, experimental, refinement or atomic coordinate data resulting 
# from the CCDC's data processing and validation procedures.
#
#######################################################################

data_XEKMOR
_symmetry_cell_setting           triclinic
_symmetry_space_group_name_H-M   'P 1'
_symmetry_Int_Tables_number      1
_space_group_name_Hall           'P 1'
loop_
_symmetry_equiv_pos_site_id
_symmetry_equiv_pos_as_xyz
1 x,y,z
_cell_length_a                   5.5897(4)
_cell_length_b                   16.5961(10)
_cell_length_c                   16.6125(11)
_cell_angle_alpha                73.622(4)
_cell_angle_beta                 85.665(4)
_cell_angle_gamma                82.482(4)
_cell_volume                     1464.64
loop_
_atom_site_label
_atom_site_type_symbol
_atom_site_fract_x
_atom_site_fract_y
_atom_site_fract_z
Mn1 Mn 0.10262(19) 0.94492(7) 0.12544(7)
C9 C 0.514(2) 0.3249(6) 0.2604(6)
H5 H 0.4597 0.2719 0.2805
C10 C 0.6726(16) 0.4793(5) 0.2007(5)
C11 C 0.3572(19) 0.5559(5) 0.2546(6)
C12 C 0.4634(16) 0.4703(5) 0.2494(5)
C13 C 0.3754(19) 0.3935(5) 0.2804(6)
H6 H 0.2322 0.3876 0.3127
C14 C 0.724(2) 0.3317(5) 0.2128(7)
H7 H 0.8093 0.2839 0.2013
C15 C 0.7057(16) 0.5685(5) 0.1721(5)
C16 C 0.812(2) 0.4089(6) 0.1815(6)
H8 H 0.9555 0.4145 0.1493
N1 N 0.5117(14) 0.6119(4) 0.2023(4)
O2 O 0.8750(14) 0.6023(4) 0.1265(5)
O4 O 0.1825(14) 0.5769(4) 0.2923(4)
O5 O -0.8029(12) 1.3260(4) 0.0634(4)
N3 N -0.4465(12) 1.2977(4) -0.0102(4)
C23 C -0.5348(15) 1.4347(5) 0.0035(5)
C24 C -0.6244(17) 1.3493(6) 0.0250(5)
C25 C -0.3154(16) 1.4289(5) -0.0430(5)
C26 C -0.6336(17) 1.5073(6) 0.0202(6)
H13 H -0.7805 1.5102 0.0501
C27 C -0.4834(17) 1.2114(5) -0.0054(5)
H14 H -0.3819 1.1932 -0.0485
H15 H -0.6502 1.2102 -0.0170
C28 C -0.2629(14) 1.3418(5) -0.0524(5)
O12 O -0.0908(12) 1.3134(4) -0.0897(4)
C31 C -0.1902(17) 1.4978(6) -0.0729(5)
H18 H -0.0442 1.4946 -0.1033
C32 C -0.4266(17) 1.1490(6) 0.0799(5)
H19 H -0.4865 1.0960 0.0827
H20 H -0.5121 1.1711 0.1236
C37 C -0.1501(15) 1.1313(4) 0.0980(5)
H26 H -0.0812 1.1852 0.0825
C38 C -0.1201(17) 1.0904(5) 0.1903(5)
O15 O -0.1978(13) 1.1328(4) 0.2405(4)
O16 O -0.0207(13) 1.0770(4) 0.0515(4)
O17 O -0.0300(13) 1.0139(4) 0.2142(3)
O24 O 0.145(3) 0.9109(9) 0.0087(7)
H32 H 0.0667 0.9467 -0.0271
C43 C -0.291(2) 1.5730(6) -0.0558(6)
H33 H -0.2123 1.6212 -0.0760
C44 C -0.5085(19) 1.5770(6) -0.0088(6)
H34 H -0.5698 1.6275 0.0031
C45 C 0.4617(18) 0.7041(5) 0.1867(6)
H35 H 0.2887 0.7205 0.1866
H36 H 0.5308 0.7320 0.1322
C46 C 0.569(2) 0.7312(6) 0.2541(6)
H37 H 0.7434 0.7190 0.2509
H38 H 0.5111 0.6992 0.3088
O26 O 0.2467(13) 0.8481(4) 0.2408(4)
O27 O 0.4831(14) 0.9389(4) 0.1170(5)
C47 C 0.5008(17) 0.8270(5) 0.2446(6)
H39 H 0.5561 0.8407 0.2932
C48 C 0.6157(19) 0.8815(7) 0.1645(8)
O28 O 0.8340(15) 0.8647(5) 0.1573(6)
Mn1_2 Mn 1.10262(19) 0.94492(7) 0.12544(7)
O28_2 O -0.1660(15) 0.8647(5) 0.1573(6)
Mn2 Mn 0.65852(19) 0.94327(6) 0.46402(7)
C1 C 0.4048(19) 1.3127(6) 0.5340(5)
C2 C 0.4707(17) 1.4002(5) 0.5112(5)
C3 C 0.6841(17) 1.3997(6) 0.4651(5)
C4 C 0.3521(16) 1.4700(6) 0.5305(6)
H1 H 0.2077 1.4681 0.5623
C5 C 0.788(2) 1.4748(6) 0.4348(6)
H2 H 0.9305 1.4769 0.4021
C6 C 0.4630(18) 1.5461(6) 0.4988(6)
H3 H 0.3894 1.5961 0.5088
C7 C 0.7553(17) 1.3150(5) 0.4573(5)
C8 C 0.6748(19) 1.5453(6) 0.4542(6)
H4 H 0.7471 1.5951 0.4360
N2 N 0.5867(16) 1.2656(4) 0.5016(5)
O1 O 0.2344(15) 1.2844(5) 0.5790(5)
O3 O 0.9433(12) 1.2910(4) 0.4193(5)
C17 C 0.461(2) 0.3180(6) 0.7654(6)
H9 H 0.3790 0.2704 0.7847
C18 C 0.679(2) 0.3127(6) 0.7195(6)
H10 H 0.7395 0.2623 0.7073
C19 C 0.3627(18) 0.3932(6) 0.7831(6)
H11 H 0.2175 0.3968 0.8138
C20 C 0.7112(15) 0.4564(5) 0.7075(5)
C21 C 0.4936(15) 0.4632(5) 0.7522(5)
C22 C 0.808(2) 0.3829(6) 0.6919(5)
H12 H 0.9566 0.3793 0.6634
O6 O 0.7819(11) 0.8109(3) 0.5434(4)
O7 O 0.5269(14) 1.0497(5) 0.3698(4)
H16 H 0.4491 1.0842 0.3914
O8 O 0.4127(14) 0.9686(5) 0.5594(5)
O9 O 0.9699(11) 0.9338(4) 0.3800(4)
H17 H 1.0835 0.9054 0.4069
N4 N 0.6309(12) 0.5925(4) 0.7190(4)
C29 C 0.7984(16) 0.5406(5) 0.6838(5)
C30 C 0.4436(17) 0.5515(6) 0.7598(5)
O10 O 0.9796(13) 0.5650(4) 0.6430(4)
O11 O 0.2754(13) 0.5806(4) 0.7976(4)
C33 C 0.5923(13) 0.7550(4) 0.5600(5)
H21 H 0.6643 0.7000 0.5533
C34 C 0.4945(16) 0.7418(5) 0.6496(5)
H22 H 0.4666 0.7962 0.6617
H23 H 0.3398 0.7199 0.6546
C35 C 0.3952(15) 0.7891(5) 0.4978(5)
C36 C 0.6518(18) 0.6845(6) 0.7122(5)
H24 H 0.6102 0.6950 0.7663
H25 H 0.8178 0.6956 0.6972
O13 O 0.4038(12) 0.8628(4) 0.4464(4)
O14 O 0.2271(12) 0.7457(4) 0.5007(5)
C39 C 0.724(3) 1.1258(7) 0.5846(7)
H27 H 0.6454 1.1423 0.6325
H28 H 0.8869 1.1413 0.5786
C40 C 0.596(2) 1.1738(5) 0.5100(6)
H29 H 0.4331 1.1583 0.5142
H30 H 0.6777 1.1609 0.4608
C41 C 0.474(3) 1.0053(8) 0.6098(9)
O22 O 0.354(2) 1.0143(6) 0.6739(5)
O23 O 0.8664(15) 0.9986(4) 0.5384(4)
C42 C 0.738(3) 1.0297(6) 0.6034(7)
H31 H 0.8165 1.0029 0.6569
O18 O 0.0302(14) 0.7259(5) 0.3639(4)
O19 O 0.1144(16) 0.1512(6) 0.3561(6)
O20 O 0.985(3) 0.7537(7) 0.0075(8)
O21 O 0.048(3) 0.1447(8) 0.8896(6)
O25 O 0.121(3) 0.7357(7) 0.8460(7)
loop_
_geom_bond_atom_site_label_1
_geom_bond_atom_site_label_2
_geom_bond_site_symmetry_1
_geom_bond_site_symmetry_2
Mn1 O16 1_555 1_555
Mn2 O6 1_555 1_555
C1 C2 1_555 1_555
C2 C3 1_555 1_555
C3 C5 1_555 1_555
C4 C2 1_555 1_555
H1 C4 1_555 1_555
C5 H2 1_555 1_555
C6 C4 1_555 1_555
H3 C6 1_555 1_555
C7 C3 1_555 1_555
C8 C5 1_555 1_555
H4 C8 1_555 1_555
C9 H5 1_555 1_555
C10 C12 1_555 1_555
C11 C12 1_555 1_555
C12 C13 1_555 1_555
C13 C9 1_555 1_555
H6 C13 1_555 1_555
C14 C9 1_555 1_555
H7 C14 1_555 1_555
C15 C10 1_555 1_555
C16 C10 1_555 1_555
H8 C16 1_555 1_555
N1 C11 1_555 1_555
N2 C1 1_555 1_555
O1 C1 1_555 1_555
O2 C15 1_555 1_555
O3 C7 1_555 1_555
O4 C11 1_555 1_555
C17 H9 1_555 1_555
C18 C17 1_555 1_555
H10 C18 1_555 1_555
C19 C17 1_555 1_555
H11 C19 1_555 1_555
C20 C21 1_555 1_555
C21 C19 1_555 1_555
C22 C18 1_555 1_555
H12 C22 1_555 1_555
O5 C24 1_555 1_555
N3 C24 1_555 1_555
C23 C24 1_555 1_555
C25 C23 1_555 1_555
C26 C23 1_555 1_555
H13 C26 1_555 1_555
C27 N3 1_555 1_555
H14 C27 1_555 1_555
H15 C27 1_555 1_555
C28 N3 1_555 1_555
O6 C33 1_555 1_555
O7 Mn2 1_555 1_555
H16 O7 1_555 1_555
O8 Mn2 1_555 1_555
O9 Mn2 1_555 1_555
H17 O9 1_555 1_555
N4 C29 1_555 1_555
C29 C20 1_555 1_555
C30 C21 1_555 1_555
O10 C29 1_555 1_555
O11 C30 1_555 1_555
O12 C28 1_555 1_555
C31 C25 1_555 1_555
H18 C31 1_555 1_555
C32 C27 1_555 1_555
H19 C32 1_555 1_555
H20 C32 1_555 1_555
C33 H21 1_555 1_555
C34 C33 1_555 1_555
H22 C34 1_555 1_555
H23 C34 1_555 1_555
C35 C33 1_555 1_555
C36 N4 1_555 1_555
H24 C36 1_555 1_555
H25 C36 1_555 1_555
O13 Mn2 1_555 1_555
O14 C35 1_555 1_555
C37 C32 1_555 1_555
H26 C37 1_555 1_555
C38 C37 1_555 1_555
O15 C38 1_555 1_555
O16 C37 1_555 1_555
O17 Mn1 1_555 1_555
C39 H27 1_555 1_555
H28 C39 1_555 1_555
C40 N2 1_555 1_555
H29 C40 1_555 1_555
H30 C40 1_555 1_555
C41 O8 1_555 1_555
O22 C41 1_555 1_555
O23 Mn2 1_555 1_555
C42 C39 1_555 1_555
H31 C42 1_555 1_555
O24 Mn1 1_555 1_555
H32 O24 1_555 1_555
C43 C31 1_555 1_555
H33 C43 1_555 1_555
C44 C26 1_555 1_555
H34 C44 1_555 1_555
C45 N1 1_555 1_555
H35 C45 1_555 1_555
H36 C45 1_555 1_555
C46 C45 1_555 1_555
H37 C46 1_555 1_555
H38 C46 1_555 1_555
O26 Mn1 1_555 1_555
O27 Mn1 1_555 1_555
C47 C46 1_555 1_555
H39 C47 1_555 1_555
C48 O27 1_555 1_555
O28 C48 1_555 1_555
Mn1_2 O28 1_555 1_555
O28_2 Mn1 1_555 1_555
C6 C8 1_555 1_555
C7 N2 1_555 1_555
C14 C16 1_555 1_555
C15 N1 1_555 1_555
C20 C22 1_555 1_555
C25 C28 1_555 1_555
N4 C30 1_555 1_555
C34 C36 1_555 1_555
C35 O13 1_555 1_555
C38 O17 1_555 1_555
C39 C40 1_555 1_555
C41 C42 1_555 1_555
O23 C42 1_555 1_555
C43 C44 1_555 1_555
O26 C47 1_555 1_555
C47 C48 1_555 1_555

#END
