
#######################################################################
#
#                 Cambridge Crystallographic Data Centre
#                                CCDC 
#
#######################################################################
#
# If this CIF has been generated from an entry in the Cambridge 
# Structural Database, then it will include bibliographic, chemical, 
# crystal, experimental, refinement or atomic coordinate data resulting 
# from the CCDC's data processing and validation procedures.
#
#######################################################################

data_XEKMUX
_symmetry_cell_setting           triclinic
_symmetry_space_group_name_H-M   'P 1'
_symmetry_Int_Tables_number      1
_space_group_name_Hall           'P 1'
loop_
_symmetry_equiv_pos_site_id
_symmetry_equiv_pos_as_xyz
1 x,y,z
_cell_length_a                   5.0612(3)
_cell_length_b                   10.1638(6)
_cell_length_c                   16.0051(9)
_cell_angle_alpha                83.651(3)
_cell_angle_beta                 88.514(3)
_cell_angle_gamma                87.149(3)
_cell_volume                     817.083
loop_
_atom_site_label
_atom_site_type_symbol
_atom_site_fract_x
_atom_site_fract_y
_atom_site_fract_z
Zn1 Zn 0.69173(4) 0.15361(3) 0.22131(3)
O1 O 0.4285(8) 0.0596(4) 0.3093(3)
C1 C 0.9988(14) 0.3209(8) -0.1589(5)
C2 C 1.0032(15) 0.3848(8) -0.2480(5)
C3 C 0.8088(16) 0.4798(9) -0.2571(4)
C4 C 0.6645(14) 0.4850(8) -0.1753(4)
O2 O 1.1450(12) 0.2373(6) -0.1249(4)
O3 O 0.4765(12) 0.5538(6) -0.1552(3)
N1 N 0.7879(10) 0.3856(6) -0.1214(3)
O4 O 0.4256(7) 0.3061(4) 0.1818(3)
C5 C 0.5067(10) 0.4131(6) 0.1428(4)
C6 C 0.8335(10) 0.4542(6) 0.0207(4)
H1 H 0.7496 0.5415 0.0070
H2 H 1.0207 0.4600 0.0070
C7 C 0.7991(9) 0.4134(5) 0.1148(3)
H3 H 0.8848 0.4785 0.1446
C8 C 0.7177(12) 0.3592(7) -0.0322(4)
H4 H 0.7792 0.2697 -0.0121
H5 H 0.5266 0.3645 -0.0256
O5 O 0.3688(7) 0.5136(4) 0.1252(3)
N2 N 0.5917(12) 0.0280(6) 0.1316(3)
N3 N -0.0630(10) 0.0121(5) 0.5610(3)
C9 C -0.0587(12) 0.0486(6) 0.4717(4)
H6 H -0.2391 0.0647 0.4526
H7 H 0.0197 -0.0246 0.4441
C10 C 0.0968(11) 0.1722(6) 0.4457(4)
H8 H 0.0219 0.2453 0.4741
H9 H 0.2791 0.1557 0.4627
O6 O -0.4038(11) 0.1531(7) 0.5960(3)
C11 C -0.1820(14) -0.0039(9) 0.7008(4)
C12 C -0.2402(12) 0.0682(8) 0.6157(4)
C13 C 1.171(2) 0.3545(11) -0.3135(6)
H10 H 1.3001 0.2862 -0.3074
C14 C 0.1875(9) 0.0990(5) 0.3016(3)
C15 C 0.0888(10) 0.2095(6) 0.3510(4)
H11 H 0.2047 0.2836 0.3370
C17 C 0.600(3) -0.1962(9) 0.1000(6)
H13 H 0.6715 -0.2823 0.1111
C18 C 0.941(3) 0.5304(16) -0.3979(6)
H14 H 0.9244 0.5795 -0.4502
C19 C 1.133(3) 0.4316(14) -0.3876(8)
H15 H 1.2426 0.4161 -0.4333
C20 C 0.764(2) 0.5614(11) -0.3308(5)
H16 H 0.6331 0.6291 -0.3362
O7 O 0.9270(8) 0.2883(4) 0.1373(3)
C23 C 0.691(2) -0.0945(8) 0.1404(6)
H19 H 0.8316 -0.1142 0.1764
C24 C 0.407(2) -0.1674(10) 0.0442(6)
H20 H 0.3422 -0.2333 0.0156
C25 C -0.3021(19) 0.0104(12) 0.7763(5)
H21 H -0.4381 0.0739 0.7822
C26 C -0.005(3) -0.1641(13) 0.8366(6)
H22 H 0.0586 -0.2155 0.8842
C27 C -0.210(3) -0.0756(16) 0.8447(6)
H23 H -0.2920 -0.0719 0.8971
C30 C 0.0220(15) -0.0967(8) 0.6919(4)
C31 C 0.113(2) -0.1799(10) 0.7587(5)
H26 H 0.2473 -0.2441 0.7525
C32 C 0.4024(15) 0.0539(8) 0.0745(4)
H27 H 0.3313 0.1402 0.0645
C33 C 0.3088(18) -0.0412(11) 0.0302(6)
H28 H 0.1780 -0.0189 -0.0093
C34 C 0.1041(15) -0.0866(7) 0.6028(4)
O8 O 0.2785(14) -0.1482(6) 0.5687(3)
O9 O 0.0291(8) 0.0476(4) 0.2556(2)
O10 O -0.1734(8) 0.2540(4) 0.3250(3)
Zn1_2 Zn -0.30827(4) 0.15361(3) 0.22131(3)
O9_2 O 1.0291(8) 0.0476(4) 0.2556(2)
O10_2 O 0.8266(8) 0.2540(4) 0.3250(3)
C16 C 0.7597(16) 0.5089(7) 0.3469(5)
H12 H 0.7909 0.4239 0.3314
C21 C 0.906(2) 0.6037(11) 0.3172(6)
H17 H 1.0462 0.5869 0.2808
C22 C 0.5689(19) 0.5340(9) 0.3989(7)
H18 H 0.4651 0.4636 0.4181
C28 C 0.636(3) 0.7528(13) 0.3936(11)
H24 H 0.5819 0.8378 0.4052
C29 C 0.852(4) 0.7372(12) 0.3401(7)
H25 H 0.9561 0.8073 0.3203
N4 N 0.503(2) 0.6523(14) 0.4288(10)
loop_
_geom_bond_atom_site_label_1
_geom_bond_atom_site_label_2
_geom_bond_site_symmetry_1
_geom_bond_site_symmetry_2
Zn1 O1 1_555 1_555
O1 C14 1_555 1_555
C1 C2 1_555 1_555
C2 C3 1_555 1_555
C3 C4 1_555 1_555
C4 O3 1_555 1_555
O2 C1 1_555 1_555
N1 C1 1_555 1_555
O4 Zn1 1_555 1_555
C5 O4 1_555 1_555
C6 H1 1_555 1_555
H2 C6 1_555 1_555
C7 C5 1_555 1_555
H3 C7 1_555 1_555
C8 N1 1_555 1_555
H4 C8 1_555 1_555
H5 C8 1_555 1_555
O5 C5 1_555 1_555
N2 Zn1 1_555 1_555
N3 C9 1_555 1_555
C9 H6 1_555 1_555
H7 C9 1_555 1_555
C10 C9 1_555 1_555
H8 C10 1_555 1_555
H9 C10 1_555 1_555
O6 C12 1_555 1_555
C11 C12 1_555 1_555
C12 N3 1_555 1_555
C13 C2 1_555 1_555
H10 C13 1_555 1_555
C14 C15 1_555 1_555
C15 C10 1_555 1_555
H11 C15 1_555 1_555
C16 H12 1_555 1_555
C17 H13 1_555 1_555
C18 H14 1_555 1_555
C19 C13 1_555 1_555
H15 C19 1_555 1_555
C20 C3 1_555 1_555
H16 C20 1_555 1_555
O7 Zn1 1_555 1_555
C21 C16 1_555 1_555
H17 C21 1_555 1_555
C22 C16 1_555 1_555
H18 C22 1_555 1_555
C23 N2 1_555 1_555
H19 C23 1_555 1_555
C24 C17 1_555 1_555
H20 C24 1_555 1_555
C25 C11 1_555 1_555
H21 C25 1_555 1_555
C26 H22 1_555 1_555
C27 C25 1_555 1_555
H23 C27 1_555 1_555
C28 H24 1_555 1_555
C29 C21 1_555 1_555
H25 C29 1_555 1_555
N4 C22 1_555 1_555
C30 C11 1_555 1_555
C31 C26 1_555 1_555
H26 C31 1_555 1_555
C32 N2 1_555 1_555
H27 C32 1_555 1_555
C33 C24 1_555 1_555
H28 C33 1_555 1_555
C34 N3 1_555 1_555
O8 C34 1_555 1_555
O9 C14 1_555 1_555
O10 C15 1_555 1_555
Zn1_2 O9 1_555 1_555
O9_2 Zn1 1_555 1_555
O10_2 Zn1 1_555 1_555
C4 N1 1_555 1_555
C6 C7 1_555 1_555
C6 C8 1_555 1_555
C7 O7 1_555 1_555
C17 C23 1_555 1_555
C18 C19 1_555 1_555
C18 C20 1_555 1_555
C26 C27 1_555 1_555
C28 C29 1_555 1_555
C28 N4 1_555 1_555
C30 C31 1_555 1_555
C30 C34 1_555 1_555
C32 C33 1_555 1_555
O10 Zn1_2 1_555 1_555

#END
