
#######################################################################
#
#                 Cambridge Crystallographic Data Centre
#                                CCDC 
#
#######################################################################
#
# If this CIF has been generated from an entry in the Cambridge 
# Structural Database, then it will include bibliographic, chemical, 
# crystal, experimental, refinement or atomic coordinate data resulting 
# from the CCDC's data processing and validation procedures.
#
#######################################################################

data_XEKNUY
_symmetry_cell_setting           monoclinic
_symmetry_space_group_name_H-M   'C 2/c'
_symmetry_Int_Tables_number      15
_space_group_name_Hall           '-C 2yn'
loop_
_symmetry_equiv_pos_site_id
_symmetry_equiv_pos_as_xyz
1 x,y,z
2 -x,y,1/2-z
3 1/2+x,1/2+y,z
4 1/2-x,1/2+y,1/2-z
5 -x,-y,-z
6 x,-y,1/2+z
7 1/2-x,1/2-y,-z
8 1/2+x,1/2-y,1/2+z
_cell_length_a                   25.0246(15)
_cell_length_b                   6.2508(4)
_cell_length_c                   22.7773(13)
_cell_angle_alpha                90
_cell_angle_beta                 95.951(2)
_cell_angle_gamma                90
_cell_volume                     3543.71
loop_
_atom_site_label
_atom_site_type_symbol
_atom_site_fract_x
_atom_site_fract_y
_atom_site_fract_z
Br1 Br -0.176985(18) 0.16515(7) -0.019806(18)
Co1 Co 0.0000 0.92307(8) 0.2500
O1 O -0.04851(10) 0.9009(5) 0.16534(10)
N1 N 0.05104(8) 1.1243(4) 0.21002(9)
C1 C -0.14847(12) 0.3447(5) 0.04309(13)
O2 O -0.05852(14) 0.6563(4) 0.22997(10)
N2 N 0.06575(8) 1.4058(3) 0.15393(8)
C2 C -0.14082(12) 0.2641(5) 0.09968(14)
H1 H -0.1520 0.1264 0.1078
C3 C -0.11616(12) 0.3917(5) 0.14432(13)
H2 H -0.1108 0.3392 0.1827
C4 C -0.09945(10) 0.5962(5) 0.13232(11)
C5 C -0.06789(11) 0.7286(5) 0.17872(12)
C6 C 0.03115(10) 1.3008(4) 0.18498(10)
H3 H -0.0036 1.3485 0.1884
C7 C 0.11280(9) 1.2885(4) 0.15925(10)
C8 C 0.10350(9) 1.1120(4) 0.19418(10)
C9 C 0.14413(10) 0.9601(4) 0.20627(11)
H4 H 0.1385 0.8403 0.2290
C10 C 0.19284(10) 0.9902(4) 0.18392(12)
C11 C 0.20201(10) 1.1736(4) 0.14982(12)
C12 C 0.16185(10) 1.3230(4) 0.13722(11)
H5 H 0.1674 1.4434 0.1146
C13 C 0.25592(12) 1.2118(6) 0.12717(17)
H6 H 0.2548 1.3430 0.1051
H7 H 0.2640 1.0953 0.1021
H8 H 0.2832 1.2214 0.1599
C14 C 0.23651(12) 0.8239(5) 0.19625(16)
H9 H 0.2237 0.7109 0.2197
H10 H 0.2676 0.8890 0.2173
H11 H 0.2459 0.7664 0.1596
C15 C 0.05370(10) 1.5930(4) 0.11705(10)
H12 H 0.0869 1.6685 0.1125
H13 H 0.0307 1.6884 0.1368
C16 C 0.02621(9) 1.5388(4) 0.05642(10)
C17 C 0.02044(11) 1.6997(4) 0.01411(11)
H14 H 0.0341 1.8353 0.0234
C18 C 0.00541(11) 1.3389(4) 0.04155(11)
H15 H 0.0088 1.2291 0.0693
C19 C -0.10868(11) 0.6753(5) 0.07484(12)
H16 H -0.0978 0.8133 0.0665
C20 C -0.13381(12) 0.5505(5) 0.03039(12)
H17 H -0.1408 0.6045 -0.0077
Br1A Br 0.176985(18) 0.16515(7) 0.519806(18)
Co1D Co 0.0000 2.07693(8) -0.2500
O1A O 0.04851(10) 0.9009(5) 0.33466(10)
N1D N -0.05104(8) 1.8757(4) -0.21002(9)
N1A N -0.05104(8) 1.1243(4) 0.28998(9)
C1A C 0.14847(12) 0.3447(5) 0.45691(13)
O2A O 0.05852(14) 0.6563(4) 0.27003(10)
N2D N -0.06575(8) 1.5942(3) -0.15393(8)
C2A C 0.14082(12) 0.2641(5) 0.40032(14)
H1A H 0.1520 0.1264 0.3922
C3A C 0.11616(12) 0.3917(5) 0.35568(13)
H2A H 0.1108 0.3392 0.3173
C4A C 0.09945(10) 0.5962(5) 0.36768(11)
C5A C 0.06789(11) 0.7286(5) 0.32128(12)
C6D C -0.03115(10) 1.6992(4) -0.18498(10)
H3D H 0.0036 1.6515 -0.1884
C7D C -0.11280(9) 1.7115(4) -0.15925(10)
C8D C -0.10350(9) 1.8880(4) -0.19418(10)
C9D C -0.14413(10) 2.0399(4) -0.20627(11)
H4D H -0.1385 2.1597 -0.2290
C10D C -0.19284(10) 2.0098(4) -0.18392(12)
C11D C -0.20201(10) 1.8264(4) -0.14982(12)
C12D C -0.16185(10) 1.6770(4) -0.13722(11)
H5D H -0.1674 1.5566 -0.1146
C13D C -0.25592(12) 1.7882(6) -0.12717(17)
H6D H -0.2548 1.6570 -0.1051
H7D H -0.2640 1.9047 -0.1021
H8D H -0.2832 1.7786 -0.1599
C14D C -0.23651(12) 2.1761(5) -0.19625(16)
H9D H -0.2237 2.2891 -0.2197
H10D H -0.2676 2.1110 -0.2173
H11D H -0.2459 2.2336 -0.1596
C15D C -0.05370(10) 1.4070(4) -0.11705(10)
H12D H -0.0869 1.3315 -0.1125
H13D H -0.0307 1.3116 -0.1368
C16D C -0.02621(9) 1.4612(4) -0.05642(10)
C17D C -0.02044(11) 1.3003(4) -0.01411(11)
H14D H -0.0341 1.1647 -0.0234
C18D C -0.00541(11) 1.6611(4) -0.04155(11)
H15D H -0.0088 1.7709 -0.0693
C19A C 0.10868(11) 0.6753(5) 0.42516(12)
H16A H 0.0978 0.8133 0.4335
C20A C 0.13381(12) 0.5505(5) 0.46961(12)
H17A H 0.1408 0.6045 0.5077
loop_
_geom_bond_atom_site_label_1
_geom_bond_atom_site_label_2
_geom_bond_site_symmetry_1
_geom_bond_site_symmetry_2
Br1 C1 1_555 1_555
Co1 O1 1_555 1_555
O1 C5 1_555 1_555
N1 Co1 1_555 1_555
C1 C2 1_555 1_555
O2 Co1 1_555 1_555
N2 C6 1_555 1_555
C2 H1 1_555 1_555
C3 C2 1_555 1_555
H2 C3 1_555 1_555
C4 C3 1_555 1_555
C5 O2 1_555 1_555
C6 N1 1_555 1_555
H3 C6 1_555 1_555
C7 N2 1_555 1_555
C8 N1 1_555 1_555
C9 C8 1_555 1_555
H4 C9 1_555 1_555
C10 C9 1_555 1_555
C11 C10 1_555 1_555
C12 C7 1_555 1_555
H5 C12 1_555 1_555
C13 C11 1_555 1_555
H6 C13 1_555 1_555
H7 C13 1_555 1_555
H8 C13 1_555 1_555
C14 C10 1_555 1_555
H9 C14 1_555 1_555
H10 C14 1_555 1_555
H11 C14 1_555 1_555
C15 N2 1_555 1_555
H12 C15 1_555 1_555
H13 C15 1_555 1_555
C16 C15 1_555 1_555
C17 C16 1_555 1_555
H14 C17 1_555 1_555
C18 C16 1_555 1_555
H15 C18 1_555 1_555
C19 C4 1_555 1_555
H16 C19 1_555 1_555
C20 C1 1_555 1_555
H17 C20 1_555 1_555
Br1A C1A 1_555 1_555
Co1D N1D 1_555 1_555
O1A Co1 1_555 1_555
N1D C6D 1_555 1_555
N1A Co1 1_555 1_555
C1A C2A 1_555 1_555
O2A Co1 1_555 1_555
N2D C6D 1_555 1_555
C2A H1A 1_555 1_555
C3A C2A 1_555 1_555
H2A C3A 1_555 1_555
C4A C3A 1_555 1_555
C5A O1A 1_555 1_555
C6D H3D 1_555 1_555
C7D N2D 1_555 1_555
C8D N1D 1_555 1_555
C9D C8D 1_555 1_555
H4D C9D 1_555 1_555
C10D C9D 1_555 1_555
C11D C10D 1_555 1_555
C12D C7D 1_555 1_555
H5D C12D 1_555 1_555
C13D C11D 1_555 1_555
H6D C13D 1_555 1_555
H7D C13D 1_555 1_555
H8D C13D 1_555 1_555
C14D C10D 1_555 1_555
H9D C14D 1_555 1_555
H10D C14D 1_555 1_555
H11D C14D 1_555 1_555
C15D N2D 1_555 1_555
H12D C15D 1_555 1_555
H13D C15D 1_555 1_555
C16D C15D 1_555 1_555
C17D C18 1_555 1_555
H14D C17D 1_555 1_555
C18D C17 1_555 1_555
H15D C18D 1_555 1_555
C19A C4A 1_555 1_555
H16A C19A 1_555 1_555
C20A C1A 1_555 1_555
H17A C20A 1_555 1_555
C4 C5 1_555 1_555
C7 C8 1_555 1_555
C11 C12 1_555 1_555
C19 C20 1_555 1_555
O2A C5A 1_555 1_555
C4A C5A 1_555 1_555
C7D C8D 1_555 1_555
C11D C12D 1_555 1_555
C16D C17D 1_555 1_555
C16D C18D 1_555 1_555
C19A C20A 1_555 1_555

#END
