
#######################################################################
#
#                 Cambridge Crystallographic Data Centre
#                                CCDC 
#
#######################################################################
#
# If this CIF has been generated from an entry in the Cambridge 
# Structural Database, then it will include bibliographic, chemical, 
# crystal, experimental, refinement or atomic coordinate data resulting 
# from the CCDC's data processing and validation procedures.
#
#######################################################################

data_XEKNOS
_symmetry_cell_setting           monoclinic
_symmetry_space_group_name_H-M   'C 2'
_symmetry_Int_Tables_number      5
_space_group_name_Hall           'C 2y'
loop_
_symmetry_equiv_pos_site_id
_symmetry_equiv_pos_as_xyz
1 x,y,z
2 -x,y,-z
3 1/2+x,1/2+y,z
4 1/2-x,1/2+y,-z
_cell_length_a                   22.432(4)
_cell_length_b                   6.2562(12)
_cell_length_c                   11.100(2)
_cell_angle_alpha                90
_cell_angle_beta                 99.851(3)
_cell_angle_gamma                90
_cell_volume                     1534.8
loop_
_atom_site_label
_atom_site_type_symbol
_atom_site_fract_x
_atom_site_fract_y
_atom_site_fract_z
Co1 Co 0.5000 0.39263(12) 0.5000
N1 N 0.5554(2) 0.5874(10) 0.6159(5)
C1 C 0.5361(4) 0.7625(13) 0.6601(7)
H1 H 0.4974 0.8170 0.6355
O1 O 0.4288(3) 0.1280(13) 0.4960(7)
N2 N 0.5774(3) 0.8549(13) 0.7437(5)
O2 O 0.4430(3) 0.3490(15) 0.6374(6)
C2 C 0.6268(5) 0.7264(18) 0.7547(9)
H2 H 0.6632 0.7470 0.8075
O3 O 0.2884(3) -0.4621(13) 0.5439(8)
C3 C 0.6136(3) 0.5648(15) 0.6760(9)
H3 H 0.6398 0.4545 0.6640
N3 N 0.2732(4) -0.3774(16) 0.6310(8)
C4 C 0.5707(5) 1.0564(14) 0.8046(7)
H4 H 0.5519 1.1588 0.7443
H5 H 0.6106 1.1103 0.8385
N4 N 0.3108(4) 0.185(2) 0.9438(7)
O4 O 0.3329(4) 0.355(3) 0.9738(7)
C5 C 0.5153(11) 0.866(2) 0.9511(14)
H6 H 0.5231 0.7361 0.9164
C6 C 0.5338(5) 1.0431(13) 0.9051(6)
C7 C 0.5163(4) 1.2244(13) 0.9537(9)
H7 H 0.5269 1.3547 0.9229
C8 C 0.3726(3) 0.0967(13) 0.6581(6)
C9 C 0.3622(3) 0.1864(15) 0.7673(7)
H8 H 0.3822 0.3104 0.7978
C10 C 0.3220(3) 0.0878(16) 0.8287(6)
C11 C 0.2921(3) -0.099(2) 0.7886(6)
H9 H 0.2653 -0.1654 0.8320
C12 C 0.3045(3) -0.1801(12) 0.6806(7)
C13 C 0.3443(3) -0.088(2) 0.6153(6)
H10 H 0.3518 -0.1494 0.5432
C14 C 0.4177(4) 0.1984(16) 0.5905(8)
O5 O 0.2354(4) -0.4508(19) 0.6847(9)
O6 O 0.2817(5) 0.084(3) 1.0050(8)
Co1_2 Co 0.5000 0.39263(12) 1.5000
N1A N 0.4446(2) 0.5874(10) 1.3841(5)
N1A_2 N 0.4446(2) 0.5874(10) 0.3841(5)
C1A C 0.4639(4) 0.7625(13) 1.3399(7)
H1A H 0.5026 0.8170 1.3645
O1A O 0.5712(3) 0.1280(13) 0.5040(7)
N2A N 0.4226(3) 0.8549(13) 1.2563(5)
O2A O 0.5570(3) 0.3490(15) 0.3626(6)
C2A C 0.3732(5) 0.7264(18) 1.2453(9)
H2A H 0.3368 0.7470 1.1925
O3A O 0.7116(3) -0.4621(13) 0.4561(8)
C3A C 0.3864(3) 0.5648(15) 1.3240(9)
H3A H 0.3602 0.4545 1.3360
N3A N 0.7268(4) -0.3774(16) 0.3690(8)
C4A C 0.4293(5) 1.0564(14) 1.1954(7)
H4A H 0.4481 1.1588 1.2557
H5A H 0.3894 1.1103 1.1615
N4A N 0.6892(4) 0.185(2) 0.0562(7)
O4A O 0.6671(4) 0.355(3) 0.0262(7)
C5A C 0.4847(11) 0.866(2) 1.0489(14)
H6A H 0.4769 0.7361 1.0836
C6A C 0.4662(5) 1.0431(13) 1.0949(6)
C7A C 0.4837(4) 1.2244(13) 1.0463(9)
H7A H 0.4731 1.3547 1.0771
C8A C 0.6274(3) 0.0967(13) 0.3419(6)
C9A C 0.6378(3) 0.1864(15) 0.2327(7)
H8A H 0.6178 0.3104 0.2022
C10A C 0.6780(3) 0.0878(16) 0.1713(6)
C11A C 0.7079(3) -0.099(2) 0.2114(6)
H9A H 0.7347 -0.1654 0.1680
C12A C 0.6955(3) -0.1801(12) 0.3194(7)
C13A C 0.6557(3) -0.088(2) 0.3847(6)
H10A H 0.6482 -0.1494 0.4568
C14A C 0.5823(4) 0.1984(16) 0.4095(8)
O5A O 0.7646(4) -0.4508(19) 0.3153(9)
O6A O 0.7183(5) 0.084(3) -0.0050(8)
loop_
_geom_bond_atom_site_label_1
_geom_bond_atom_site_label_2
_geom_bond_site_symmetry_1
_geom_bond_site_symmetry_2
Co1 N1 1_555 1_555
N1 C1 1_555 1_555
C1 H1 1_555 1_555
O1 Co1 1_555 1_555
N2 C1 1_555 1_555
O2 Co1 1_555 1_555
C2 N2 1_555 1_555
H2 C2 1_555 1_555
O3 N3 1_555 1_555
C3 N1 1_555 1_555
H3 C3 1_555 1_555
N3 C12 1_555 1_555
C4 N2 1_555 1_555
H4 C4 1_555 1_555
H5 C4 1_555 1_555
N4 O4 1_555 1_555
C5 H6 1_555 1_555
C6 C4 1_555 1_555
C7 C6 1_555 1_555
H7 C7 1_555 1_555
C8 C9 1_555 1_555
C9 H8 1_555 1_555
C10 N4 1_555 1_555
C11 C10 1_555 1_555
H9 C11 1_555 1_555
C12 C11 1_555 1_555
C13 C8 1_555 1_555
H10 C13 1_555 1_555
C14 O1 1_555 1_555
O5 N3 1_555 1_555
O6 N4 1_555 1_555
Co1_2 N1A 1_555 1_555
N1A C1A 1_555 1_555
N1A_2 Co1 1_555 1_555
C1A H1A 1_555 1_555
O1A Co1 1_555 1_555
N2A C1A 1_555 1_555
O2A Co1 1_555 1_555
C2A N2A 1_555 1_555
H2A C2A 1_555 1_555
O3A N3A 1_555 1_555
C3A N1A 1_555 1_555
H3A C3A 1_555 1_555
N3A C12A 1_555 1_555
C4A N2A 1_555 1_555
H4A C4A 1_555 1_555
H5A C4A 1_555 1_555
N4A O4A 1_555 1_555
C5A C5 1_555 1_555
H6A C5A 1_555 1_555
C6A C4A 1_555 1_555
C7A C7 1_555 1_555
H7A C7A 1_555 1_555
C8A C9A 1_555 1_555
C9A H8A 1_555 1_555
C10A N4A 1_555 1_555
C11A C10A 1_555 1_555
H9A C11A 1_555 1_555
C12A C11A 1_555 1_555
C13A C8A 1_555 1_555
H10A C13A 1_555 1_555
C14A O1A 1_555 1_555
O5A N3A 1_555 1_555
O6A N4A 1_555 1_555
O2 C14 1_555 1_555
C2 C3 1_555 1_555
C5 C6 1_555 1_555
C8 C14 1_555 1_555
C9 C10 1_555 1_555
C12 C13 1_555 1_555
O2A C14A 1_555 1_555
C2A C3A 1_555 1_555
C5A C6A 1_555 1_555
C6A C7A 1_555 1_555
C8A C14A 1_555 1_555
C9A C10A 1_555 1_555
C12A C13A 1_555 1_555

#END
