
#######################################################################
#
#                 Cambridge Crystallographic Data Centre
#                                CCDC 
#
#######################################################################
#
# If this CIF has been generated from an entry in the Cambridge 
# Structural Database, then it will include bibliographic, chemical, 
# crystal, experimental, refinement or atomic coordinate data resulting 
# from the CCDC's data processing and validation procedures.
#
#######################################################################

data_XEKREM
_symmetry_cell_setting           triclinic
_symmetry_space_group_name_H-M   'P -1'
_symmetry_Int_Tables_number      2
_space_group_name_Hall           '-P 1'
loop_
_symmetry_equiv_pos_site_id
_symmetry_equiv_pos_as_xyz
1 x,y,z
2 -x,-y,-z
_cell_length_a                   11.3454(18)
_cell_length_b                   13.476(2)
_cell_length_c                   13.524(2)
_cell_angle_alpha                67.947(2)
_cell_angle_beta                 84.063(2)
_cell_angle_gamma                76.911(2)
_cell_volume                     1866.24
loop_
_atom_site_label
_atom_site_type_symbol
_atom_site_fract_x
_atom_site_fract_y
_atom_site_fract_z
N1 N 0.3174(3) 0.6742(3) 1.2320(3)
C1 C 0.2313(5) 0.7465(4) 1.1667(4)
H1 H 0.1712 0.7891 1.1944
C2 C 0.4046(5) 0.6295(5) 1.0827(5)
H2 H 0.4673 0.5890 1.0551
C3 C 0.2268(5) 0.7613(4) 1.0617(4)
H3 H 0.1644 0.8127 1.0201
C4 C 0.3128(5) 0.7014(4) 1.0169(4)
C5 C 0.3128(6) 0.7101(5) 0.9029(4)
H4 H 0.2494 0.7709 0.8657
H5 H 0.3895 0.7259 0.8690
O1 O -0.0419(3) 0.6450(3) 0.3588(3)
O2 O 0.4995(3) 0.6524(3) 0.3797(3)
H6 H 0.5194 0.7206 0.3607
H7 H 0.5603 0.5905 0.3894
O3 O 0.2570(3) -0.1972(2) 0.3652(3)
C6 C 0.3068(4) -0.1172(4) 0.3340(4)
O4 O -0.0270(3) -0.1233(3) 0.3502(3)
C7 C 0.0413(4) -0.0886(4) 0.3922(4)
C8 C 0.0985(4) 0.0042(4) 0.3189(4)
C9 C 0.2217(4) -0.0060(4) 0.2971(4)
C10 C 0.0228(4) 0.1058(4) 0.2783(4)
H8 H -0.0598 0.1124 0.2939
C11 C 0.2693(4) 0.0869(4) 0.2368(4)
H9 H 0.3524 0.0811 0.2249
Co1 Co 0.31737(5) 0.63828(5) 0.40074(5)
Co2 Co 0.13460(5) 0.23875(5) 0.57552(5)
S1 S 0.24577(13) 0.30542(10) 0.11598(10)
O5 O 0.1390(3) 0.6103(3) 0.4266(3)
O6 O 0.3658(3) 0.4686(2) 0.4353(3)
O7 O 0.2639(3) 0.3381(3) 0.5179(3)
O8 O 0.0194(3) 0.3082(3) 0.4423(3)
H10 H -0.0014 0.2594 0.4304
N2 N 0.3183(3) 0.6105(3) 0.5687(3)
O9 O 0.0595(3) -0.1213(3) 0.4911(3)
N3 N 0.2434(3) 0.1609(3) 0.7125(3)
O10 O 0.2346(3) 0.1439(3) 0.4874(3)
H11 H 0.2252 0.0806 0.5156
C12 C 0.2848(4) 0.4168(3) 0.4382(4)
C13 C 0.0667(4) 0.6006(3) 0.3671(4)
C14 C 0.2173(4) 0.4439(3) 0.3368(4)
O11 O 0.3754(3) 0.2773(3) 0.1153(3)
O12 O 0.1841(4) 0.3534(3) 0.0164(3)
C15 C 0.2567(4) 0.3778(4) 0.2781(4)
H12 H 0.3239 0.3210 0.2997
C16 C 0.1962(4) 0.3958(4) 0.1864(4)
O13 O 0.4187(3) -0.1222(3) 0.3294(4)
C17 C 0.1144(4) 0.5284(3) 0.3049(4)
C18 C 0.1907(4) 0.1878(4) 0.1950(4)
C19 C 0.0659(5) 0.1962(4) 0.2163(5)
H13 H 0.0131 0.2633 0.1881
C20 C 0.0566(4) 0.5446(4) 0.2121(4)
H14 H -0.0105 0.6013 0.1897
C21 C 0.3757(4) 0.6728(4) 0.5964(4)
H15 H 0.4208 0.7173 0.5443
C22 C 0.0958(4) 0.4791(4) 0.1527(4)
H16 H 0.0557 0.4907 0.0915
C23 C 0.4047(5) 0.6168(5) 1.1888(4)
H17 H 0.4671 0.5670 1.2315
C24 C 0.2488(5) 0.5427(4) 0.7503(4)
H18 H 0.2054 0.4955 0.8014
C25 C 0.3048(5) 0.6095(4) 0.7785(4)
C26 C 0.3712(5) 0.6742(4) 0.6983(4)
H19 H 0.4130 0.7187 0.7132
C27 C 0.2572(4) 0.5459(4) 0.6467(4)
H20 H 0.2181 0.5005 0.6303
C28 C 0.2937(6) 0.6088(5) 0.8913(4)
H21 H 0.2137 0.5972 0.9194
H22 H 0.3520 0.5471 0.9348
C29 C 0.2700(5) 0.2187(5) 0.7649(5)
H23 H 0.2445 0.2943 0.7368
C30 C 0.2862(5) 0.0525(4) 0.7518(5)
H24 H 0.2707 0.0103 0.7157
C31 C 0.3721(6) 0.0613(6) 0.9026(6)
C32 C 0.3330(6) 0.1730(6) 0.8583(5)
H25 H 0.3493 0.2175 0.8915
C33 C 0.3521(6) 0.0014(5) 0.8435(6)
H26 H 0.3835 -0.0734 0.8662
C34 C 0.4392(6) 0.0027(8) 1.0106(7)
H27 H 0.4115 0.0433 1.0575
H28 H 0.4229 -0.0703 1.0456
H29 H -0.041(2) 0.329(4) 0.481(4)
H30 H 0.3099 0.1463 0.4779
N1A N -0.3174(3) -0.6742(3) -0.2320(3)
N1_2 N 0.3174(3) 0.6742(3) 0.2320(3)
N1A_2 N -0.3174(3) -0.6742(3) 0.7680(3)
C1A C -0.2313(5) -0.7465(4) -0.1667(4)
H1A H -0.1712 -0.7891 -0.1944
C2A C -0.4046(5) -0.6295(5) -0.0827(5)
H2A H -0.4673 -0.5890 -0.0551
C3A C -0.2268(5) -0.7613(4) -0.0617(4)
H3A H -0.1644 -0.8127 -0.0201
C4A C -0.3128(5) -0.7014(4) -0.0169(4)
C5A C -0.3128(6) -0.7101(5) 0.0971(4)
H4A H -0.2494 -0.7709 0.1343
H5A H -0.3895 -0.7259 0.1310
O1A O 0.0419(3) -0.6450(3) 0.6412(3)
O1_2 O -0.0419(3) -0.3550(3) 0.3588(3)
O1A_2 O 0.0419(3) 0.3550(3) 0.6412(3)
O2A O -0.4995(3) -0.6524(3) 0.6203(3)
H6A H -0.5194 -0.7206 0.6393
H7A H -0.5603 -0.5905 0.6106
O3A O -0.2570(3) 0.1972(2) 0.6348(3)
O3_2 O 0.2570(3) 0.8028(2) 0.3652(3)
O3A_2 O -0.2570(3) -0.8028(2) 0.6348(3)
C6A C -0.3068(4) 0.1172(4) 0.6660(4)
O4A O 0.0270(3) 0.1233(3) 0.6498(3)
C7A C -0.0413(4) 0.0886(4) 0.6078(4)
C8A C -0.0985(4) -0.0042(4) 0.6811(4)
C9A C -0.2217(4) 0.0060(4) 0.7029(4)
C10A C -0.0228(4) -0.1058(4) 0.7217(4)
H8A H 0.0598 -0.1124 0.7061
C11A C -0.2693(4) -0.0869(4) 0.7632(4)
H9A H -0.3524 -0.0811 0.7751
Co1A Co -0.31737(5) -0.63828(5) 0.59926(5)
Co1_2 Co 0.31737(5) -0.36172(5) 0.40074(5)
Co1_3 Co 0.31737(5) 0.63828(5) 1.40074(5)
Co1A_2 Co -0.31737(5) -0.63828(5) -0.40074(5)
Co1A_3 Co -0.31737(5) 0.36172(5) 0.59926(5)
Co2A Co -0.13460(5) -0.23875(5) 0.42448(5)
Co2_2 Co 0.13460(5) -0.76125(5) 0.57552(5)
Co2A_2 Co -0.13460(5) 0.76125(5) 0.42448(5)
Co2A_3 Co 0.86540(5) -0.23875(5) 1.42448(5)
S1A S -0.24577(13) -0.30542(10) 0.88402(10)
O5A O -0.1390(3) -0.6103(3) 0.5734(3)
O6A O -0.3658(3) -0.4686(2) 0.5647(3)
O7A O -0.2639(3) -0.3381(3) 0.4821(3)
O8A O -0.0194(3) -0.3082(3) 0.5577(3)
H10A H 0.0014 -0.2594 0.5696
N2A N -0.3183(3) -0.6105(3) 0.4313(3)
O9A O -0.0595(3) 0.1213(3) 0.5089(3)
N3A N 0.7566(3) -0.1609(3) 1.2875(3)
N3A_2 N -0.2434(3) -0.1609(3) 0.2875(3)
O10A O -0.2346(3) -0.1439(3) 0.5126(3)
H11A H -0.2252 -0.0806 0.4844
C12A C -0.2848(4) -0.4168(3) 0.5618(4)
C13A C -0.0667(4) -0.6006(3) 0.6329(4)
C14A C -0.2173(4) -0.4439(3) 0.6632(4)
O11A O -0.3754(3) -0.2773(3) 0.8847(3)
O12A O -0.1841(4) -0.3534(3) 0.9836(3)
C15A C -0.2567(4) -0.3778(4) 0.7219(4)
H12A H -0.3239 -0.3210 0.7003
C16A C -0.1962(4) -0.3958(4) 0.8136(4)
O13A O -0.4187(3) 0.1222(3) 0.6706(4)
C17A C -0.1144(4) -0.5284(3) 0.6951(4)
C18A C -0.1907(4) -0.1878(4) 0.8050(4)
C19A C -0.0659(5) -0.1962(4) 0.7837(5)
H13A H -0.0131 -0.2633 0.8119
C20A C -0.0566(4) -0.5446(4) 0.7879(4)
H14A H 0.0105 -0.6013 0.8103
C21A C -0.3757(4) -0.6728(4) 0.4036(4)
H15A H -0.4208 -0.7173 0.4557
C22A C -0.0958(4) -0.4791(4) 0.8473(4)
H16A H -0.0557 -0.4907 0.9085
C23A C -0.4047(5) -0.6168(5) -0.1888(4)
H17A H -0.4671 -0.5670 -0.2315
C24A C -0.2488(5) -0.5427(4) 0.2497(4)
H18A H -0.2054 -0.4955 0.1986
C25A C -0.3048(5) -0.6095(4) 0.2215(4)
C26A C -0.3712(5) -0.6742(4) 0.3017(4)
H19A H -0.4130 -0.7187 0.2868
C27A C -0.2572(4) -0.5459(4) 0.3533(4)
H20A H -0.2181 -0.5005 0.3697
C28A C -0.2937(6) -0.6088(5) 0.1087(4)
H21A H -0.2137 -0.5972 0.0806
H22A H -0.3520 -0.5471 0.0652
C29A C 0.7300(5) -0.2187(5) 1.2351(5)
H23A H 0.7555 -0.2943 1.2632
C30A C 0.7138(5) -0.0525(4) 1.2482(5)
H24A H 0.7293 -0.0103 1.2843
C31A C 0.6279(6) -0.0613(6) 1.0974(6)
C32A C 0.6670(6) -0.1730(6) 1.1417(5)
H25A H 0.6507 -0.2175 1.1085
C33A C 0.6479(6) -0.0014(5) 1.1565(6)
H26A H 0.6165 0.0734 1.1338
C34A C 0.5608(6) -0.0027(8) 0.9894(7)
H27A H 0.5885 -0.0433 0.9425
H28A H 0.5771 0.0703 0.9544
H29A H 0.041(2) -0.329(4) 0.519(4)
H30A H -0.3099 -0.1463 0.5221
O14 O 0.2377(3) 0.9313(3) 0.5681(3)
O15 O 0.4921(3) 0.1060(4) 0.4969(4)
O16 O 0.9750(9) 0.9624(11) 0.1286(9)
O17 O 0.9162(15) 0.8700(16) -0.0019(15)
loop_
_geom_bond_atom_site_label_1
_geom_bond_atom_site_label_2
_geom_bond_site_symmetry_1
_geom_bond_site_symmetry_2
N1 C1 1_555 1_555
C1 H1 1_555 1_555
C2 H2 1_555 1_555
C3 C1 1_555 1_555
H3 C3 1_555 1_555
C4 C2 1_555 1_555
C5 C4 1_555 1_555
H4 C5 1_555 1_555
H5 C5 1_555 1_555
O1 C13 1_555 1_555
O2 H6 1_555 1_555
H7 O2 1_555 1_555
O3 C6 1_555 1_555
C6 C9 1_555 1_555
O4 C7 1_555 1_555
C7 C8 1_555 1_555
C8 C9 1_555 1_555
C9 C11 1_555 1_555
C10 C8 1_555 1_555
H8 C10 1_555 1_555
C11 H9 1_555 1_555
Co1 O2 1_555 1_555
Co2 O7 1_555 1_555
S1 O11 1_555 1_555
O5 Co1 1_555 1_555
O6 Co1 1_555 1_555
O7 C12 1_555 1_555
O8 Co2 1_555 1_555
H10 O8 1_555 1_555
N2 Co1 1_555 1_555
O9 C7 1_555 1_555
N3 Co2 1_555 1_555
O10 Co2 1_555 1_555
H11 O10 1_555 1_555
C12 O6 1_555 1_555
C13 O5 1_555 1_555
C14 C12 1_555 1_555
O12 S1 1_555 1_555
C15 C14 1_555 1_555
H12 C15 1_555 1_555
C16 S1 1_555 1_555
O13 C6 1_555 1_555
C17 C13 1_555 1_555
C18 C11 1_555 1_555
C19 C10 1_555 1_555
H13 C19 1_555 1_555
C20 C17 1_555 1_555
H14 C20 1_555 1_555
C21 N2 1_555 1_555
H15 C21 1_555 1_555
C22 C16 1_555 1_555
H16 C22 1_555 1_555
C23 N1 1_555 1_555
H17 C23 1_555 1_555
C24 H18 1_555 1_555
C25 C24 1_555 1_555
C26 C21 1_555 1_555
H19 C26 1_555 1_555
C27 N2 1_555 1_555
H20 C27 1_555 1_555
C28 C5 1_555 1_555
H21 C28 1_555 1_555
H22 C28 1_555 1_555
C29 N3 1_555 1_555
H23 C29 1_555 1_555
C30 N3 1_555 1_555
H24 C30 1_555 1_555
C31 C32 1_555 1_555
C32 C29 1_555 1_555
H25 C32 1_555 1_555
C33 C30 1_555 1_555
H26 C33 1_555 1_555
C34 C31 1_555 1_555
H27 C34 1_555 1_555
H28 C34 1_555 1_555
H29 O8 1_555 1_555
H30 O10 1_555 1_555
N1A C1A 1_555 1_555
N1_2 Co1 1_555 1_555
N1A_2 Co1A 1_555 1_555
C1A H1A 1_555 1_555
C2A H2A 1_555 1_555
C3A C1A 1_555 1_555
H3A C3A 1_555 1_555
C4A C2A 1_555 1_555
C5A C4A 1_555 1_555
H4A C5A 1_555 1_555
H5A C5A 1_555 1_555
O1A Co2_2 1_555 1_555
O1_2 Co2A 1_555 1_555
O1A_2 Co2 1_555 1_555
O2A H6A 1_555 1_555
H7A O2A 1_555 1_555
O3A C6A 1_555 1_555
O3_2 Co1 1_555 1_555
O3A_2 Co1A 1_555 1_555
C6A C9A 1_555 1_555
O4A Co2 1_555 1_555
C7A O4A 1_555 1_555
C8A C7A 1_555 1_555
C9A C8A 1_555 1_555
C10A C8A 1_555 1_555
H8A C10A 1_555 1_555
C11A C9A 1_555 1_555
H9A C11A 1_555 1_555
Co1A O2A 1_555 1_555
Co1_2 O3 1_555 1_555
Co1_3 N1 1_555 1_555
Co1A_2 N1A 1_555 1_555
Co1A_3 O3A 1_555 1_555
Co2A O4 1_555 1_555
Co2A_2 O1 1_555 1_555
Co2A_3 N3A 1_555 1_555
S1A O11A 1_555 1_555
O5A Co1A 1_555 1_555
O6A Co1A 1_555 1_555
O7A Co2A 1_555 1_555
O8A Co2A 1_555 1_555
H10A O8A 1_555 1_555
N2A Co1A 1_555 1_555
O9A C7A 1_555 1_555
N3A C29A 1_555 1_555
N3A_2 Co2A 1_555 1_555
O10A Co2A 1_555 1_555
H11A O10A 1_555 1_555
C12A O6A 1_555 1_555
C13A O1A 1_555 1_555
C14A C12A 1_555 1_555
O12A S1A 1_555 1_555
C15A C14A 1_555 1_555
H12A C15A 1_555 1_555
C16A S1A 1_555 1_555
O13A C6A 1_555 1_555
C17A C13A 1_555 1_555
C18A C11A 1_555 1_555
C19A C10A 1_555 1_555
H13A C19A 1_555 1_555
C20A C17A 1_555 1_555
H14A C20A 1_555 1_555
C21A N2A 1_555 1_555
H15A C21A 1_555 1_555
C22A C16A 1_555 1_555
H16A C22A 1_555 1_555
C23A N1A 1_555 1_555
H17A C23A 1_555 1_555
C24A H18A 1_555 1_555
C25A C24A 1_555 1_555
C26A C21A 1_555 1_555
H19A C26A 1_555 1_555
C27A N2A 1_555 1_555
H20A C27A 1_555 1_555
C28A C5A 1_555 1_555
H21A C28A 1_555 1_555
H22A C28A 1_555 1_555
C29A H23A 1_555 1_555
C30A N3A 1_555 1_555
H24A C30A 1_555 1_555
C31A C32A 1_555 1_555
C32A C29A 1_555 1_555
H25A C32A 1_555 1_555
C33A C30A 1_555 1_555
H26A C33A 1_555 1_555
C34A C34 1_555 1_555
H27A C34A 1_555 1_555
H28A C34A 1_555 1_555
H29A O8A 1_555 1_555
H30A O10A 1_555 1_555
C2 C23 1_555 1_555
C3 C4 1_555 1_555
S1 C18 1_555 1_555
C14 C17 1_555 1_555
C15 C16 1_555 1_555
C18 C19 1_555 1_555
C20 C22 1_555 1_555
C24 C27 1_555 1_555
C25 C26 1_555 1_555
C25 C28 1_555 1_555
C31 C33 1_555 1_555
C2A C23A 1_555 1_555
C3A C4A 1_555 1_555
S1A C18A 1_555 1_555
O5A C13A 1_555 1_555
O7A C12A 1_555 1_555
C14A C17A 1_555 1_555
C15A C16A 1_555 1_555
C18A C19A 1_555 1_555
C20A C22A 1_555 1_555
C24A C27A 1_555 1_555
C25A C26A 1_555 1_555
C25A C28A 1_555 1_555
C31A C33A 1_555 1_555
C31A C34A 1_555 1_555

#END
