
#######################################################################
#
#                 Cambridge Crystallographic Data Centre
#                                CCDC 
#
#######################################################################
#
# If this CIF has been generated from an entry in the Cambridge 
# Structural Database, then it will include bibliographic, chemical, 
# crystal, experimental, refinement or atomic coordinate data resulting 
# from the CCDC's data processing and validation procedures.
#
#######################################################################

data_XEKXIV01
_symmetry_cell_setting           triclinic
_symmetry_space_group_name_H-M   'P -1'
_symmetry_Int_Tables_number      2
_space_group_name_Hall           '-P 1'
loop_
_symmetry_equiv_pos_site_id
_symmetry_equiv_pos_as_xyz
1 x,y,z
2 -x,-y,-z
_cell_length_a                   10.500(1)
_cell_length_b                   11.485(1)
_cell_length_c                   12.514(2)
_cell_angle_alpha                105.676(4)
_cell_angle_beta                 113.006(3)
_cell_angle_gamma                97.514(3)
_cell_volume                     1288.95
loop_
_atom_site_label
_atom_site_type_symbol
_atom_site_fract_x
_atom_site_fract_y
_atom_site_fract_z
Cu1 Cu 0.00782(4) 0.06730(3) 0.11205(3)
Cu2 Cu 0.41851(4) 0.49795(3) 0.55950(3)
Cl1 Cl -0.23404(9) 0.21339(8) -0.31859(7)
Cl2 Cl 0.47366(8) 0.15294(7) 0.00492(7)
Cl3 Cl 0.16270(8) 0.42522(7) 0.04045(7)
Cl4 Cl 0.53443(9) 0.05044(7) 0.33288(8)
N1 N -0.0183(3) 0.1810(2) 0.2701(2)
N2 N 0.2070(3) 0.3070(2) 0.7028(2)
O1 O -0.0892(2) 0.16180(19) 0.00526(19)
O2 O -0.1039(2) 0.05057(19) -0.18321(19)
O3 O 0.1988(2) 0.16260(19) 0.14598(19)
O4 O 0.1796(2) 0.05378(19) -0.04491(19)
O5 O 0.2587(2) 0.46803(19) 0.39380(19)
O6 O 0.3954(2) 0.46546(19) 0.29052(19)
O7 O 0.4160(2) 0.31863(18) 0.50953(19)
O8 O 0.5533(2) 0.32091(19) 0.40732(19)
O9 O 0.2820(2) 0.46412(18) 0.64611(19)
C1 C -0.1257(3) 0.1371(3) -0.1112(3)
C2 C -0.2098(4) 0.2234(3) -0.1641(3)
H1 H -0.1596 0.3111 -0.1071
H2 H -0.3056 0.2035 -0.1663
C3 C 0.2452(3) 0.1359(3) 0.0641(3)
C4 C 0.3944(3) 0.2141(3) 0.1049(3)
H3 H 0.4568 0.2190 0.1900
H4 H 0.3902 0.3004 0.1076
C5 C 0.2788(3) 0.4592(2) 0.2973(3)
C6 C 0.1404(3) 0.4380(3) 0.1799(3)
H5 H 0.0974 0.5084 0.1970
H6 H 0.0713 0.3602 0.1633
C7 C 0.4757(3) 0.2668(3) 0.4447(3)
C8 C 0.4408(3) 0.1254(3) 0.4116(3)
H7 H 0.3363 0.0895 0.3584
H8 H 0.4646 0.1064 0.4887
C9 C 0.0842(3) 0.2287(3) 0.3897(3)
H9 H 0.1733 0.2083 0.4077
C10 C 0.0673(3) 0.3069(3) 0.4893(3)
C11 C -0.0638(3) 0.3354(3) 0.4625(3)
H10 H -0.0804 0.3880 0.5259
C12 C -0.1710(3) 0.2847(3) 0.3393(3)
H11 H -0.2616 0.3024 0.3189
C13 C -0.1452(3) 0.2082(3) 0.2463(3)
H12 H -0.2197 0.1743 0.1637
C14 C 0.1933(3) 0.3643(3) 0.6189(3)
C15 C 0.1061(3) 0.1890(3) 0.6762(3)
H13 H 0.0152 0.1759 0.6028
H14 H 0.0843 0.1964 0.7475
C16 C 0.1648(4) 0.0763(3) 0.6520(4)
H15 H 0.0941 0.0006 0.6350
H16 H 0.2538 0.0880 0.7250
H17 H 0.1846 0.0674 0.5803
C17 C 0.3351(3) 0.3609(3) 0.8274(3)
H18 H 0.3165 0.3247 0.8850
H19 H 0.3498 0.4527 0.8609
C18 C 0.4706(3) 0.3345(3) 0.8212(3)
H20 H 0.5516 0.3715 0.9044
H21 H 0.4904 0.3714 0.7654
H22 H 0.4574 0.2436 0.7900
Cu1A Cu -0.00782(4) -0.06730(3) -0.11205(3)
Cu2A Cu 0.58149(4) 0.50205(3) 0.44050(3)
O2A O 0.1039(2) -0.05057(19) 0.18321(19)
O4A O -0.1796(2) -0.05378(19) 0.04491(19)
O6A O 0.6046(2) 0.53454(19) 0.70948(19)
O8A O 0.4467(2) 0.67909(19) 0.59268(19)
loop_
_geom_bond_atom_site_label_1
_geom_bond_atom_site_label_2
_geom_bond_site_symmetry_1
_geom_bond_site_symmetry_2
Cu1 N1 1_555 1_555
Cu2 O5 1_555 1_555
Cl1 C2 1_555 1_555
Cl2 C4 1_555 1_555
Cl3 C6 1_555 1_555
Cl4 C8 1_555 1_555
N1 C9 1_555 1_555
N2 C14 1_555 1_555
O1 Cu1 1_555 1_555
O2 C1 1_555 1_555
O3 Cu1 1_555 1_555
O4 C3 1_555 1_555
O5 C5 1_555 1_555
O6 C5 1_555 1_555
O7 Cu2 1_555 1_555
O8 C7 1_555 1_555
O9 Cu2 1_555 1_555
C1 O1 1_555 1_555
C2 C1 1_555 1_555
H1 C2 1_555 1_555
H2 C2 1_555 1_555
C3 O3 1_555 1_555
C4 C3 1_555 1_555
H3 C4 1_555 1_555
H4 C4 1_555 1_555
C5 C6 1_555 1_555
C6 H5 1_555 1_555
H6 C6 1_555 1_555
C7 O7 1_555 1_555
C8 C7 1_555 1_555
H7 C8 1_555 1_555
H8 C8 1_555 1_555
C9 H9 1_555 1_555
C10 C9 1_555 1_555
C11 C10 1_555 1_555
H10 C11 1_555 1_555
C12 C11 1_555 1_555
H11 C12 1_555 1_555
C13 N1 1_555 1_555
H12 C13 1_555 1_555
C14 O9 1_555 1_555
C15 N2 1_555 1_555
H13 C15 1_555 1_555
H14 C15 1_555 1_555
C16 C15 1_555 1_555
H15 C16 1_555 1_555
H16 C16 1_555 1_555
H17 C16 1_555 1_555
C17 N2 1_555 1_555
H18 C17 1_555 1_555
H19 C17 1_555 1_555
C18 C17 1_555 1_555
H20 C18 1_555 1_555
H21 C18 1_555 1_555
H22 C18 1_555 1_555
Cu1A O2 1_555 1_555
Cu2A O6 1_555 1_555
O2A Cu1 1_555 1_555
O4A Cu1 1_555 1_555
O6A Cu2 1_555 1_555
O8A Cu2 1_555 1_555
O4 Cu1A 1_555 1_555
O8 Cu2A 1_555 1_555
C10 C14 1_555 1_555
C12 C13 1_555 1_555

#END
