
#######################################################################
#
#                 Cambridge Crystallographic Data Centre
#                                CCDC 
#
#######################################################################
#
# If this CIF has been generated from an entry in the Cambridge 
# Structural Database, then it will include bibliographic, chemical, 
# crystal, experimental, refinement or atomic coordinate data resulting 
# from the CCDC's data processing and validation procedures.
#
#######################################################################

data_XEKYUI01
_symmetry_cell_setting           monoclinic
_symmetry_space_group_name_H-M   'C 2/c'
_symmetry_Int_Tables_number      15
_space_group_name_Hall           '-C 2yn'
loop_
_symmetry_equiv_pos_site_id
_symmetry_equiv_pos_as_xyz
1 x,y,z
2 1/2+x,1/2+y,z
3 -x,y,1/2-z
4 1/2-x,1/2+y,1/2-z
5 -x,-y,-z
6 1/2-x,1/2-y,-z
7 x,-y,1/2+z
8 1/2+x,1/2-y,1/2+z
_cell_length_a                   9.69800(10)
_cell_length_b                   24.1479(2)
_cell_length_c                   8.598
_cell_angle_alpha                90
_cell_angle_beta                 114.888(5)
_cell_angle_gamma                90
_cell_volume                     1826.54
loop_
_atom_site_label
_atom_site_type_symbol
_atom_site_fract_x
_atom_site_fract_y
_atom_site_fract_z
La1 La 0.5000 0.007317(6) 0.2500
Co1 Co 0.5000 0.162415(16) 0.2500
O1 O 0.56862(17) 0.09796(6) 0.13550(18)
O2 O 0.6273(2) 0.08068(6) -0.0859(2)
O3 O 0.70806(19) 0.17060(7) 0.4571(2)
O4 O 0.9519(2) 0.18656(8) 0.5206(3)
O5 O 0.35309(16) 0.02238(7) -0.09385(19)
O6 O 0.21048(17) 0.04348(7) 0.04023(19)
N1 N 0.6176(2) 0.20906(7) 0.1284(2)
H2 H 0.5655 0.2408 0.0838
N2 N 0.0000 0.10003(11) -0.2500
H3 H -0.0395 0.1221 -0.3428
C1 C 0.6057(2) 0.11224(9) 0.0156(3)
C2 C 0.8131(3) 0.19023(9) 0.4241(3)
C3 C 0.6171(3) 0.17409(10) -0.0110(3)
H4 H 0.7096 0.1811 -0.0253
H5 H 0.5321 0.1849 -0.1165
C4 C 0.7689(3) 0.22287(11) 0.2592(3)
H6 H 0.7720 0.2621 0.2850
H7 H 0.8431 0.2159 0.2133
C5 C 0.2337(2) 0.04305(8) -0.0913(3)
C6 C 0.1252(2) 0.06764(10) -0.2604(3)
H8 H 0.1820 0.0915 -0.3033
H9 H 0.0820 0.0379 -0.3425
La1F La 0.5000 -0.007317(6) -0.2500
La1_2 La -0.5000 0.007317(6) -0.7500
La1F_2 La -0.5000 -0.007317(6) -0.2500
La1F_3 La 0.5000 -0.007317(6) 0.7500
O1B O 0.43138(17) 0.09796(6) 0.36450(18)
O2B O 0.3727(2) 0.08068(6) 0.5859(2)
O2F O 0.6273(2) -0.08068(6) 0.4141(2)
O2D O 0.3727(2) -0.08068(6) 0.0859(2)
O3B O 0.29194(19) 0.17060(7) 0.0429(2)
O4B O 0.0481(2) 0.18656(8) -0.0206(3)
O5B O -0.35309(16) 0.02238(7) -0.40615(19)
O5F O 0.35309(16) -0.02238(7) 0.40615(19)
O5D O 0.64691(16) -0.02238(7) 0.09385(19)
O5B_2 O 0.64691(16) 0.02238(7) 0.59385(19)
O6B O -0.21048(17) 0.04348(7) -0.54023(19)
O6B_2 O 0.78952(17) 0.04348(7) 0.45977(19)
N1B N 0.3824(2) 0.20906(7) 0.3716(2)
H2B H 0.4345 0.2408 0.4162
H3B H 0.0395 0.1221 -0.1572
C1B C 0.3943(2) 0.11224(9) 0.4844(3)
C2B C 0.1869(3) 0.19023(9) 0.0759(3)
C3B C 0.3829(3) 0.17409(10) 0.5110(3)
H4B H 0.2904 0.1811 0.5253
H5B H 0.4679 0.1849 0.6165
C4B C 0.2311(3) 0.22287(11) 0.2408(3)
H6B H 0.2280 0.2621 0.2150
H7B H 0.1569 0.2159 0.2867
C5B C -0.2337(2) 0.04305(8) -0.4087(3)
C6B C -0.1252(2) 0.06764(10) -0.2396(3)
H8B H -0.1820 0.0915 -0.1967
H9B H -0.0820 0.0379 -0.1575
O7 O 0.0000 0.0802(5) 0.2500
H1 H 0.0449 0.0598 0.2052
H1B H -0.0449 0.0598 0.2948
loop_
_geom_bond_atom_site_label_1
_geom_bond_atom_site_label_2
_geom_bond_site_symmetry_1
_geom_bond_site_symmetry_2
La1 O1 1_555 1_555
Co1 O1 1_555 1_555
O1 C1 1_555 1_555
O2 C1 1_555 1_555
O3 Co1 1_555 1_555
O4 C2 1_555 1_555
O5 La1 1_555 1_555
O6 La1 1_555 1_555
O7 H1 1_555 1_555
N1 Co1 1_555 1_555
H2 N1 1_555 1_555
N2 H3 1_555 1_555
C1 C3 1_555 1_555
C2 O3 1_555 1_555
C3 N1 1_555 1_555
H4 C3 1_555 1_555
H5 C3 1_555 1_555
C4 N1 1_555 1_555
H6 C4 1_555 1_555
H7 C4 1_555 1_555
C5 O5 1_555 1_555
C6 N2 1_555 1_555
H8 C6 1_555 1_555
H9 C6 1_555 1_555
La1F O2 1_555 1_555
La1_2 O5B 1_555 1_555
La1F_2 O5B 1_555 1_555
La1F_3 O2B 1_555 1_555
O1B La1 1_555 1_555
O2B C1B 1_555 1_555
O2F La1 1_555 1_555
O2D La1 1_555 1_555
O3B Co1 1_555 1_555
O4B C2B 1_555 1_555
O5B C5B 1_555 1_555
O5F La1 1_555 1_555
O5D La1 1_555 1_555
O5B_2 La1 1_555 1_555
O6B La1_2 1_555 1_555
O6B_2 La1 1_555 1_555
H1B O7 1_555 1_555
N1B Co1 1_555 1_555
H2B N1B 1_555 1_555
H3B N2 1_555 1_555
C1B O1B 1_555 1_555
C2B O3B 1_555 1_555
C3B N1B 1_555 1_555
H4B C3B 1_555 1_555
H5B C3B 1_555 1_555
C4B N1B 1_555 1_555
H6B C4B 1_555 1_555
H7B C4B 1_555 1_555
C5B O6B 1_555 1_555
C6B N2 1_555 1_555
H8B C6B 1_555 1_555
H9B C6B 1_555 1_555
Co1 O1B 1_555 1_555
O5 La1F 1_555 1_555
O6 C5 1_555 1_555
C2 C4 1_555 1_555
C5 C6 1_555 1_555
La1F O5D 1_555 1_555
La1F_3 O5F 1_555 1_555
La1F_3 O5B_2 1_555 1_555
C1B C3B 1_555 1_555
C2B C4B 1_555 1_555
C5B C6B 1_555 1_555

#END
