
#######################################################################
#
#                 Cambridge Crystallographic Data Centre
#                                CCDC 
#
#######################################################################
#
# If this CIF has been generated from an entry in the Cambridge 
# Structural Database, then it will include bibliographic, chemical, 
# crystal, experimental, refinement or atomic coordinate data resulting 
# from the CCDC's data processing and validation procedures.
#
#######################################################################

data_XEKYUI
_symmetry_cell_setting           monoclinic
_symmetry_space_group_name_H-M   'C 2/c'
_symmetry_Int_Tables_number      15
_space_group_name_Hall           '-C 2yn'
loop_
_symmetry_equiv_pos_site_id
_symmetry_equiv_pos_as_xyz
1 x,y,z
2 1/2+x,1/2+y,z
3 -x,y,1/2-z
4 1/2-x,1/2+y,1/2-z
5 -x,-y,-z
6 1/2-x,1/2-y,-z
7 x,-y,1/2+z
8 1/2+x,1/2-y,1/2+z
_cell_length_a                   9.7078(19)
_cell_length_b                   24.128(5)
_cell_length_c                   8.5964(17)
_cell_angle_alpha                90
_cell_angle_beta                 114.91(3)
_cell_angle_gamma                90
_cell_volume                     1826.22
loop_
_atom_site_label
_atom_site_type_symbol
_atom_site_fract_x
_atom_site_fract_y
_atom_site_fract_z
La1 La 0.0000 0.492692(4) 0.2500
Co1 Co 0.0000 0.337502(11) 0.2500
O1 O 0.06862(13) 0.40198(4) 0.13546(14)
O2 O 0.12732(15) 0.41916(5) -0.08574(16)
O3 O 0.20792(15) 0.32949(5) 0.45721(15)
O4 O 0.45126(16) 0.31372(6) 0.52036(19)
O5 O -0.14662(12) 0.47759(5) -0.09355(14)
O6 O -0.28959(12) 0.45657(5) 0.03998(14)
N1 N 0.11736(16) 0.29080(5) 0.12836(17)
H1 H 0.0654 0.2590 0.0840
N2 N -0.5000 0.40014(8) -0.2500
H2 H -0.4604 0.3781 -0.1572
H3 H -0.5396 0.3781 -0.3428
C1 C 0.1164(2) 0.32573(7) -0.0114(2)
H4 H 0.0311 0.3149 -0.1166
H5 H 0.2085 0.3186 -0.0263
C2 C 0.10565(16) 0.38766(6) 0.01550(18)
C3 C 0.2689(2) 0.27703(8) 0.2593(2)
H6 H 0.3430 0.2840 0.2132
H7 H 0.2723 0.2378 0.2854
C4 C 0.3133(2) 0.30986(7) 0.4244(2)
C5 C -0.37527(17) 0.43257(7) -0.2607(2)
H8 H -0.4186 0.4624 -0.3425
H9 H -0.3188 0.4088 -0.3040
C6 C -0.26628(16) 0.45709(6) -0.09105(18)
La1F La 0.0000 0.507308(4) -0.2500
La1_2 La -1.0000 0.492692(4) -0.7500
La1F_2 La -1.0000 0.507308(4) -0.2500
La1F_3 La 0.0000 0.507308(4) 0.7500
O1B O -0.06862(13) 0.40198(4) 0.36454(14)
O2B O -0.12732(15) 0.41916(5) 0.58574(16)
O2F O 0.12732(15) 0.58084(5) 0.41426(16)
O2D O -0.12732(15) 0.58084(5) 0.08574(16)
O3B O -0.20792(15) 0.32949(5) 0.04279(15)
O4B O -0.45126(16) 0.31372(6) -0.02036(19)
O5B O -0.85338(12) 0.47759(5) -0.40645(14)
O5F O -0.14662(12) 0.52241(5) 0.40645(14)
O5D O 0.14662(12) 0.52241(5) 0.09355(14)
O5B_2 O 0.14662(12) 0.47759(5) 0.59355(14)
O6B O -0.71041(12) 0.45657(5) -0.53998(14)
O6B_2 O 0.28959(12) 0.45657(5) 0.46002(14)
N1B N -0.11736(16) 0.29080(5) 0.37164(17)
H1B H -0.0654 0.2590 0.4160
C1B C -0.1164(2) 0.32573(7) 0.5114(2)
H4B H -0.0311 0.3149 0.6166
H5B H -0.2085 0.3186 0.5263
C2B C -0.10565(16) 0.38766(6) 0.48450(18)
C3B C -0.2689(2) 0.27703(8) 0.2407(2)
H6B H -0.3430 0.2840 0.2868
H7B H -0.2723 0.2378 0.2146
C4B C -0.3133(2) 0.30986(7) 0.0756(2)
C5B C -0.62473(17) 0.43257(7) -0.2393(2)
H8B H -0.5814 0.4624 -0.1575
H9B H -0.6812 0.4088 -0.1960
C6B C -0.73372(16) 0.45709(6) -0.40895(18)
O7 O -0.5000 0.4228(5) 0.2500
loop_
_geom_bond_atom_site_label_1
_geom_bond_atom_site_label_2
_geom_bond_site_symmetry_1
_geom_bond_site_symmetry_2
La1 O1 1_555 1_555
Co1 O1 1_555 1_555
O1 C2 1_555 1_555
O2 C2 1_555 1_555
O3 Co1 1_555 1_555
O4 C4 1_555 1_555
O5 La1 1_555 1_555
O6 La1 1_555 1_555
N1 Co1 1_555 1_555
H1 N1 1_555 1_555
N2 H2 1_555 1_555
H3 N2 1_555 1_555
C1 N1 1_555 1_555
H4 C1 1_555 1_555
H5 C1 1_555 1_555
C2 C1 1_555 1_555
C3 N1 1_555 1_555
H6 C3 1_555 1_555
H7 C3 1_555 1_555
C4 O3 1_555 1_555
C5 N2 1_555 1_555
H8 C5 1_555 1_555
H9 C5 1_555 1_555
C6 O5 1_555 1_555
La1F O2 1_555 1_555
La1_2 O5B 1_555 1_555
La1F_2 O5B 1_555 1_555
La1F_3 O2B 1_555 1_555
O1B La1 1_555 1_555
O2B C2B 1_555 1_555
O2F La1 1_555 1_555
O2D La1 1_555 1_555
O3B Co1 1_555 1_555
O4B C4B 1_555 1_555
O5B C6B 1_555 1_555
O5F La1 1_555 1_555
O5D La1 1_555 1_555
O5B_2 La1 1_555 1_555
O6B La1_2 1_555 1_555
O6B_2 La1 1_555 1_555
N1B Co1 1_555 1_555
H1B N1B 1_555 1_555
C1B N1B 1_555 1_555
H4B C1B 1_555 1_555
H5B C1B 1_555 1_555
C2B O1B 1_555 1_555
C3B N1B 1_555 1_555
H6B C3B 1_555 1_555
H7B C3B 1_555 1_555
C4B O3B 1_555 1_555
C5B N2 1_555 1_555
H8B C5B 1_555 1_555
H9B C5B 1_555 1_555
C6B O6B 1_555 1_555
Co1 O1B 1_555 1_555
O5 La1F 1_555 1_555
O6 C6 1_555 1_555
C3 C4 1_555 1_555
C5 C6 1_555 1_555
La1F O5D 1_555 1_555
La1F_3 O5F 1_555 1_555
La1F_3 O5B_2 1_555 1_555
C1B C2B 1_555 1_555
C3B C4B 1_555 1_555
C5B C6B 1_555 1_555

#END
