
#######################################################################
#
#                 Cambridge Crystallographic Data Centre
#                                CCDC 
#
#######################################################################
#
# If this CIF has been generated from an entry in the Cambridge 
# Structural Database, then it will include bibliographic, chemical, 
# crystal, experimental, refinement or atomic coordinate data resulting 
# from the CCDC's data processing and validation procedures.
#
#######################################################################

data_XELGIG
_symmetry_cell_setting           monoclinic
_symmetry_space_group_name_H-M   'P 21/c'
_symmetry_Int_Tables_number      14
_space_group_name_Hall           '-P 2ybc'
loop_
_symmetry_equiv_pos_site_id
_symmetry_equiv_pos_as_xyz
1 x,y,z
2 -x,1/2+y,1/2-z
3 -x,-y,-z
4 x,1/2-y,1/2+z
_cell_length_a                   8.7537(18)
_cell_length_b                   12.638(3)
_cell_length_c                   11.391(2)
_cell_angle_alpha                90
_cell_angle_beta                 92.22(3)
_cell_angle_gamma                90
_cell_volume                     1259.23
loop_
_atom_site_label
_atom_site_type_symbol
_atom_site_fract_x
_atom_site_fract_y
_atom_site_fract_z
La1 La 0.11284(3) 0.562380(18) 0.18188(2)
Cl1 Cl -0.07450(13) 0.39697(8) 0.07564(9)
Cl2 Cl 0.23407(12) 0.77338(8) 0.15144(10)
Cl3 Cl -0.18213(13) 0.66758(8) 0.15764(10)
O1 O -0.0475(4) 0.4779(2) 0.3433(3)
H1 H -0.110(5) 0.428(3) 0.343(5)
O2 O 0.3027(4) 0.4519(2) 0.0653(3)
H2 H 0.299(7) 0.435(4) -0.005(2)
O3 O 0.2450(4) 0.4034(3) 0.2932(3)
H3 H 0.223(6) 0.342(2) 0.312(5)
O4 O 0.3931(4) 0.5763(2) 0.2540(3)
H4 H 0.423(6) 0.630(3) 0.288(5)
O5 O 0.0865(4) 0.6574(2) 0.3754(3)
H5 H 0.108(6) 0.7219(18) 0.378(5)
C1 C 0.3769(5) 0.3617(3) 0.1196(4)
H6 H 0.318(6) 0.300(4) 0.107(5)
C2 C 0.3956(5) 0.3865(4) 0.2489(4)
H7 H 0.441(6) 0.327(4) 0.291(5)
C3 C -0.0632(5) 0.5227(3) 0.4578(4)
H8 H -0.169(6) 0.509(4) 0.488(5)
C4 C 0.4859(6) 0.4854(4) 0.2827(5)
H9 H 0.508(7) 0.487(5) 0.357(6)
H10 H 0.586(7) 0.494(5) 0.245(5)
O6 O 0.5540(4) 0.2248(3) 0.0731(3)
H11 H 0.607(6) 0.207(4) 0.018(4)
C5 C -0.0485(5) 0.6404(4) 0.4412(4)
H12 H -0.148(6) 0.667(4) 0.383(5)
H13 H -0.032(6) 0.672(4) 0.517(5)
C6 C 0.5213(6) 0.3355(4) 0.0570(5)
H14 H 0.610(7) 0.371(5) 0.088(5)
H15 H 0.499(7) 0.349(5) -0.025(5)
La1B La -0.11284(3) 0.437620(18) -0.18188(2)
La1B_2 La -0.11284(3) 0.437620(18) 0.81812(2)
Cl1B Cl 0.07450(13) 0.60303(8) -0.07564(9)
Cl2B Cl -0.23407(12) 0.22662(8) -0.15144(10)
Cl3B Cl 0.18213(13) 0.33242(8) -0.15764(10)
O1B O 0.0475(4) 0.5221(2) 0.6567(3)
O1B_2 O 0.0475(4) 0.5221(2) -0.3433(3)
H1B H 0.110(5) 0.572(3) 0.657(5)
H1B_2 H 0.110(5) 0.572(3) -0.343(5)
O2B O -0.3027(4) 0.5481(2) -0.0653(3)
H2B H -0.299(7) 0.565(4) 0.005(2)
O3B O -0.2450(4) 0.5966(3) -0.2932(3)
H3B H -0.223(6) 0.658(2) -0.312(5)
O4B O -0.3931(4) 0.4237(2) -0.2540(3)
H4B H -0.423(6) 0.370(3) -0.288(5)
O5B O -0.0865(4) 0.3426(2) 0.6246(3)
O5B_2 O -0.0865(4) 0.3426(2) -0.3754(3)
H5B H -0.108(6) 0.2781(18) 0.622(5)
H5B_2 H -0.108(6) 0.2781(18) -0.378(5)
C1B C -0.3769(5) 0.6383(3) -0.1196(4)
H6B H -0.318(6) 0.700(4) -0.107(5)
C2B C -0.3956(5) 0.6135(4) -0.2489(4)
H7B H -0.441(6) 0.673(4) -0.291(5)
C3B C 0.0632(5) 0.4773(3) 0.5422(4)
H8B H 0.169(6) 0.491(4) 0.512(5)
C4B C -0.4859(6) 0.5146(4) -0.2827(5)
H9B H -0.508(7) 0.513(5) -0.357(6)
H10B H -0.586(7) 0.506(5) -0.245(5)
O6B O -0.5540(4) 0.7752(3) -0.0731(3)
H11B H -0.607(6) 0.793(4) -0.018(4)
C5B C 0.0485(5) 0.3596(4) 0.5588(4)
H12B H 0.148(6) 0.333(4) 0.617(5)
H13B H 0.032(6) 0.328(4) 0.483(5)
C6B C -0.5213(6) 0.6645(4) -0.0570(5)
H14B H -0.610(7) 0.629(5) -0.088(5)
H15B H -0.499(7) 0.651(5) 0.025(5)
loop_
_geom_bond_atom_site_label_1
_geom_bond_atom_site_label_2
_geom_bond_site_symmetry_1
_geom_bond_site_symmetry_2
La1 Cl1 1_555 1_555
Cl1 La1B 1_555 1_555
Cl2 La1 1_555 1_555
Cl3 La1 1_555 1_555
O1 La1 1_555 1_555
H1 O1 1_555 1_555
O2 La1 1_555 1_555
H2 O2 1_555 1_555
O3 La1 1_555 1_555
H3 O3 1_555 1_555
O4 La1 1_555 1_555
H4 O4 1_555 1_555
O5 La1 1_555 1_555
H5 O5 1_555 1_555
C1 O2 1_555 1_555
H6 C1 1_555 1_555
C2 O3 1_555 1_555
H7 C2 1_555 1_555
C3 O1 1_555 1_555
H8 C3 1_555 1_555
C4 O4 1_555 1_555
H9 C4 1_555 1_555
H10 C4 1_555 1_555
O6 H11 1_555 1_555
C5 O5 1_555 1_555
H12 C5 1_555 1_555
H13 C5 1_555 1_555
C6 C1 1_555 1_555
H14 C6 1_555 1_555
H15 C6 1_555 1_555
La1B Cl1B 1_555 1_555
La1B_2 O1B 1_555 1_555
Cl1B La1 1_555 1_555
Cl2B La1B 1_555 1_555
Cl3B La1B 1_555 1_555
O1B H1B 1_555 1_555
O1B_2 La1B 1_555 1_555
H1B_2 O1B_2 1_555 1_555
O2B La1B 1_555 1_555
H2B O2B 1_555 1_555
O3B La1B 1_555 1_555
H3B O3B 1_555 1_555
O4B La1B 1_555 1_555
H4B O4B 1_555 1_555
O5B La1B_2 1_555 1_555
O5B_2 La1B 1_555 1_555
H5B O5B 1_555 1_555
H5B_2 O5B_2 1_555 1_555
C1B O2B 1_555 1_555
H6B C1B 1_555 1_555
C2B O3B 1_555 1_555
H7B C2B 1_555 1_555
C3B C3 1_555 1_555
H8B C3B 1_555 1_555
C4B O4B 1_555 1_555
H9B C4B 1_555 1_555
H10B C4B 1_555 1_555
O6B H11B 1_555 1_555
C5B O5B 1_555 1_555
H12B C5B 1_555 1_555
H13B C5B 1_555 1_555
C6B C1B 1_555 1_555
H14B C6B 1_555 1_555
H15B C6B 1_555 1_555
C1 C2 1_555 1_555
C2 C4 1_555 1_555
C3 C5 1_555 1_555
O6 C6 1_555 1_555
O1B C3B 1_555 1_555
C1B C2B 1_555 1_555
C2B C4B 1_555 1_555
C3B C5B 1_555 1_555
O6B C6B 1_555 1_555

#END
