
#######################################################################
#
#                 Cambridge Crystallographic Data Centre
#                                CCDC 
#
#######################################################################
#
# If this CIF has been generated from an entry in the Cambridge 
# Structural Database, then it will include bibliographic, chemical, 
# crystal, experimental, refinement or atomic coordinate data resulting 
# from the CCDC's data processing and validation procedures.
#
#######################################################################

data_XELHUT
_symmetry_cell_setting           orthorhombic
_symmetry_space_group_name_H-M   'P 21 21 21'
_symmetry_Int_Tables_number      19
_space_group_name_Hall           'P 2ac 2ab'
loop_
_symmetry_equiv_pos_site_id
_symmetry_equiv_pos_as_xyz
1 x,y,z
2 1/2-x,-y,1/2+z
3 -x,1/2+y,1/2-z
4 1/2+x,1/2-y,-z
_cell_length_a                   6.0936(12)
_cell_length_b                   11.713(2)
_cell_length_c                   19.423(4)
_cell_angle_alpha                90
_cell_angle_beta                 90
_cell_angle_gamma                90
_cell_volume                     1386.3
loop_
_atom_site_label
_atom_site_type_symbol
_atom_site_fract_x
_atom_site_fract_y
_atom_site_fract_z
Cd1 Cd 0.56408(6) 1.03845(3) 0.359231(16)
I1 I 0.43193(9) 1.24471(3) 0.40342(2)
I2 I 0.29919(6) 0.86420(3) 0.32471(2)
N1 N 0.8010(8) 1.0646(4) 0.26997(19)
N2 N 1.2920(8) 1.0443(4) 0.0635(2)
N3 N 1.4655(8) 1.0661(4) 0.0190(2)
N4 N 1.7394(8) 1.1411(4) -0.0373(3)
N5 N 1.7022(7) 1.0313(4) -0.06084(19)
C1 C 0.9461(10) 1.0111(5) 0.1608(2)
H1 H 0.9364 0.9654 0.1218
C2 C 0.7971(11) 1.0010(5) 0.2129(3)
H2 H 0.6864 0.9468 0.2083
C3 C 0.9597(9) 1.1413(5) 0.2759(2)
H3 H 0.9644 1.1863 0.3153
C4 C 1.1168(9) 1.1572(5) 0.2265(3)
H4 H 1.2258 1.2118 0.2326
C5 C 1.1121(8) 1.0910(4) 0.1674(3)
C6 C 1.2865(9) 1.1067(4) 0.1156(3)
H5 H 1.3923 1.1630 0.1217
C7 C 1.5930(11) 1.1588(5) 0.0099(3)
H6 H 1.5779 1.2267 0.0344
C8 C 1.5383(10) 0.9883(5) -0.0273(3)
H7 H 1.4800 0.9157 -0.0339
Cd1A Cd 1.93592(6) 0.96155(3) -0.140769(16)
N5A N 0.7978(7) 0.9687(4) 0.43916(19)
loop_
_geom_bond_atom_site_label_1
_geom_bond_atom_site_label_2
_geom_bond_site_symmetry_1
_geom_bond_site_symmetry_2
Cd1 I1 1_555 1_555
I2 Cd1 1_555 1_555
N1 Cd1 1_555 1_555
N2 N3 1_555 1_555
N3 C7 1_555 1_555
N4 N5 1_555 1_555
N5 C8 1_555 1_555
C1 H1 1_555 1_555
C2 N1 1_555 1_555
H2 C2 1_555 1_555
C3 N1 1_555 1_555
H3 C3 1_555 1_555
C4 C3 1_555 1_555
H4 C4 1_555 1_555
C5 C1 1_555 1_555
C6 N2 1_555 1_555
H5 C6 1_555 1_555
C7 N4 1_555 1_555
H6 C7 1_555 1_555
C8 N3 1_555 1_555
H7 C8 1_555 1_555
Cd1A N5 1_555 1_555
N5A Cd1 1_555 1_555
C1 C2 1_555 1_555
C4 C5 1_555 1_555
C5 C6 1_555 1_555

#END
