
#######################################################################
#
#                 Cambridge Crystallographic Data Centre
#                                CCDC 
#
#######################################################################
#
# If this CIF has been generated from an entry in the Cambridge 
# Structural Database, then it will include bibliographic, chemical, 
# crystal, experimental, refinement or atomic coordinate data resulting 
# from the CCDC's data processing and validation procedures.
#
#######################################################################

data_XELLIL
_symmetry_cell_setting           monoclinic
_symmetry_space_group_name_H-M   'P 21/c'
_symmetry_Int_Tables_number      14
_space_group_name_Hall           '-P 2ybc'
loop_
_symmetry_equiv_pos_site_id
_symmetry_equiv_pos_as_xyz
1 x,y,z
2 -x,1/2+y,1/2-z
3 -x,-y,-z
4 x,1/2-y,1/2+z
_cell_length_a                   17.3944(5)
_cell_length_b                   8.2657(2)
_cell_length_c                   13.8451(4)
_cell_angle_alpha                90
_cell_angle_beta                 97.228(2)
_cell_angle_gamma                90
_cell_volume                     1974.79
loop_
_atom_site_label
_atom_site_type_symbol
_atom_site_fract_x
_atom_site_fract_y
_atom_site_fract_z
Cu1 Cu 0.400512(16) 0.63383(3) 0.14673(2)
N1 N 0.09503(13) 0.3346(3) -0.10541(17)
O1 O 0.47729(10) 0.4138(2) 0.16102(14)
O2 O 0.56135(9) 0.2355(2) 0.23094(13)
N2 N 0.34119(11) 0.5603(2) 0.02054(15)
C1 C 0.24857(13) 0.5040(3) 0.12727(17)
N3 N 0.30258(11) 0.5614(2) 0.19764(14)
C2 C 0.26912(13) 0.5053(3) 0.02978(17)
N4 N 0.51415(12) 0.2574(3) 0.40565(16)
H1 H 0.4855 0.1900 0.4376
H2 H 0.5345 0.3339 0.4476
C3 C 0.36300(15) 0.5627(3) -0.0680(2)
H3 H 0.4122 0.6007 -0.0754
C4 C 0.31534(17) 0.5107(4) -0.1499(2)
H4 H 0.3324 0.5150 -0.2108
C5 C 0.24292(16) 0.4528(3) -0.14034(19)
H5 H 0.2106 0.4159 -0.1945
C6 C 0.21828(14) 0.4501(3) -0.04850(18)
C7 C 0.14250(14) 0.3887(3) -0.03018(18)
C8 C 0.12233(14) 0.3857(3) 0.06634(19)
N5 N 0.05493(12) 0.3289(3) 0.08622(17)
C9 C 0.00612(16) 0.2713(4) 0.0100(2)
C10 C 0.02609(15) 0.2752(4) -0.0863(2)
C11 C -0.02664(17) 0.2131(4) -0.1634(3)
H6 H -0.0142 0.2141 -0.2268
C12 C -0.0954(2) 0.1520(5) -0.1444(3)
H7 H -0.1300 0.1112 -0.1953
C13 C -0.1154(2) 0.1492(5) -0.0497(3)
H8 H -0.1631 0.1070 -0.0387
C14 C -0.06644(18) 0.2070(5) 0.0261(3)
H9 H -0.0805 0.2044 0.0887
C15 C 0.17694(13) 0.4472(3) 0.14697(18)
C16 C 0.28682(14) 0.5623(3) 0.28898(18)
H10 H 0.3239 0.6017 0.3376
C17 C 0.21696(15) 0.5067(4) 0.31430(19)
H11 H 0.2076 0.5087 0.3790
C18 C 0.16187(15) 0.4487(4) 0.24353(19)
H12 H 0.1148 0.4107 0.2597
C19 C 0.46520(15) 0.3334(3) 0.3233(2)
H13 H 0.4549 0.4448 0.3396
H14 H 0.4160 0.2770 0.3122
C20 C 0.50343(13) 0.3294(3) 0.23170(19)
Cu1A Cu 0.599488(16) 0.13383(3) 0.35327(2)
O2A O 0.43865(9) 0.7355(2) 0.26906(13)
N4A N 0.48585(12) 0.7574(3) 0.09435(16)
H1A H 0.5145 0.6900 0.0624
H2A H 0.4655 0.8339 0.0524
Cl1 Cl 0.33283(4) 1.06822(8) 0.06742(5)
O3 O 0.2684(3) 1.1329(5) 0.1050(5)
O4 O 0.3973(2) 1.0640(5) 0.1394(4)
O5 O 0.3492(3) 1.1698(5) -0.0123(2)
O6 O 0.3166(3) 0.9086(4) 0.0328(4)
O7? O 0.3102(6) 0.9015(12) 0.0999(14)
O8? O 0.3561(16) 1.149(2) 0.1536(8)
O9? O 0.3869(10) 1.055(2) 0.0099(12)
O10? O 0.2580(10) 1.1312(14) 0.0289(15)
loop_
_geom_bond_atom_site_label_1
_geom_bond_atom_site_label_2
_geom_bond_site_symmetry_1
_geom_bond_site_symmetry_2
Cu1 O1 1_555 1_555
N1 C7 1_555 1_555
O1 C20 1_555 1_555
O2 C20 1_555 1_555
N2 Cu1 1_555 1_555
C1 N3 1_555 1_555
N3 Cu1 1_555 1_555
C2 N2 1_555 1_555
N4 H1 1_555 1_555
H2 N4 1_555 1_555
C3 N2 1_555 1_555
H3 C3 1_555 1_555
C4 C3 1_555 1_555
H4 C4 1_555 1_555
C5 C4 1_555 1_555
H5 C5 1_555 1_555
C6 C2 1_555 1_555
C7 C6 1_555 1_555
C8 C7 1_555 1_555
N5 C8 1_555 1_555
C9 N5 1_555 1_555
C10 N1 1_555 1_555
C11 C10 1_555 1_555
H6 C11 1_555 1_555
C12 C11 1_555 1_555
H7 C12 1_555 1_555
C13 C12 1_555 1_555
H8 C13 1_555 1_555
C14 C9 1_555 1_555
H9 C14 1_555 1_555
C15 C1 1_555 1_555
C16 N3 1_555 1_555
H10 C16 1_555 1_555
C17 C16 1_555 1_555
H11 C17 1_555 1_555
C18 C15 1_555 1_555
H12 C18 1_555 1_555
C19 N4 1_555 1_555
H13 C19 1_555 1_555
H14 C19 1_555 1_555
C20 C19 1_555 1_555
Cl1 O3 1_555 1_555
O4 Cl1 1_555 1_555
O5 Cl1 1_555 1_555
O6 Cl1 1_555 1_555
Cu1A O2 1_555 1_555
O2A Cu1 1_555 1_555
N4A Cu1 1_555 1_555
H1A N4A 1_555 1_555
H2A N4A 1_555 1_555
C1 C2 1_555 1_555
N4 Cu1A 1_555 1_555
C5 C6 1_555 1_555
C8 C15 1_555 1_555
C9 C10 1_555 1_555
C13 C14 1_555 1_555
C17 C18 1_555 1_555

#END
