
#######################################################################
#
#                 Cambridge Crystallographic Data Centre
#                                CCDC 
#
#######################################################################
#
# If this CIF has been generated from an entry in the Cambridge 
# Structural Database, then it will include bibliographic, chemical, 
# crystal, experimental, refinement or atomic coordinate data resulting 
# from the CCDC's data processing and validation procedures.
#
#######################################################################

data_XELNOS
_symmetry_cell_setting           tetragonal
_symmetry_space_group_name_H-M   'P -4 21 c'
_symmetry_Int_Tables_number      114
_space_group_name_Hall           'P -4 2n'
loop_
_symmetry_equiv_pos_site_id
_symmetry_equiv_pos_as_xyz
1 x,y,z
2 -x,-y,z
3 y,-x,-z
4 -y,x,-z
5 1/2-x,1/2+y,1/2-z
6 1/2+x,1/2-y,1/2-z
7 1/2-y,1/2-x,1/2+z
8 1/2+y,1/2+x,1/2+z
_cell_length_a                   10.0580(5)
_cell_length_b                   10.0580(5)
_cell_length_c                   16.6150(15)
_cell_angle_alpha                90
_cell_angle_beta                 90
_cell_angle_gamma                90
_cell_volume                     1680.83
loop_
_atom_site_label
_atom_site_type_symbol
_atom_site_fract_x
_atom_site_fract_y
_atom_site_fract_z
Zn1 Zn -0.27825(5) 0.23886(5) -0.03068(3)
N1 N -0.2675(3) 0.2779(4) 0.08841(19)
O1 O -0.4843(3) 0.2419(4) 0.00718(18)
O2 O -0.6155(3) 0.2982(4) 0.1098(2)
O3 O -0.0587(3) 0.2437(4) -0.00390(17)
O4 O 0.0793(3) 0.2967(4) 0.0966(2)
O5 O -0.2522(4) 0.4485(4) 0.31137(19)
H1 H -0.3278 0.4607 0.3284
C1 C -0.3801(4) 0.3049(5) 0.1280(3)
C2 C -0.3799(5) 0.3591(5) 0.2039(3)
H2 H -0.4591 0.3751 0.2312
C3 C -0.2582(5) 0.3894(4) 0.2387(3)
C4 C -0.1404(5) 0.3591(5) 0.1979(3)
H3 H -0.0578 0.3750 0.2211
C5 C -0.1515(4) 0.3045(4) 0.1214(3)
C6 C -0.5029(4) 0.2798(5) 0.0781(3)
C7 C -0.0340(4) 0.2803(5) 0.0665(3)
Zn1C Zn -0.23886(5) 0.72175(5) 0.03068(3)
Zn1B Zn -0.76114(5) 0.27825(5) 0.03068(3)
Zn1B_2 Zn 0.23886(5) 0.27825(5) 0.03068(3)
Zn1_2 Zn -0.27825(5) 1.23886(5) -0.03068(3)
N1C N -0.2779(4) 0.7325(3) -0.08841(19)
O1C O -0.2419(4) 0.5157(3) -0.00718(18)
O2C O -0.2982(4) 0.3845(3) -0.1098(2)
O2A O -0.3845(3) 0.7018(4) 0.1098(2)
O3C O -0.2437(4) 0.9413(3) 0.00390(17)
O4C O -0.2967(4) 1.0793(3) -0.0966(2)
O4C_2 O -0.2967(4) 0.0793(3) -0.0966(2)
O4A O -0.0793(3) 0.7033(4) 0.0966(2)
O5C O -0.4485(4) 0.7478(4) -0.31137(19)
H1C H -0.4607 0.6722 -0.3284
C1C C -0.3049(5) 0.6199(4) -0.1280(3)
C2C C -0.3591(5) 0.6201(5) -0.2039(3)
H2C H -0.3751 0.5409 -0.2312
C3C C -0.3894(4) 0.7418(5) -0.2387(3)
C4C C -0.3591(5) 0.8596(5) -0.1979(3)
H3C H -0.3750 0.9422 -0.2211
C5C C -0.3045(4) 0.8485(4) -0.1214(3)
C6C C -0.2798(5) 0.4971(4) -0.0781(3)
C7C C -0.2803(5) 0.9660(4) -0.0665(3)
O6 O 0.5000 0.0000 -0.3745(4)
O7 O 0.5000 0.5000 -0.3808(4)
loop_
_geom_bond_atom_site_label_1
_geom_bond_atom_site_label_2
_geom_bond_site_symmetry_1
_geom_bond_site_symmetry_2
Zn1 N1 1_555 1_555
N1 C1 1_555 1_555
O1 Zn1 1_555 1_555
O2 C6 1_555 1_555
O3 Zn1 1_555 1_555
O4 C7 1_555 1_555
O5 H1 1_555 1_555
C1 C2 1_555 1_555
C2 H2 1_555 1_555
C3 O5 1_555 1_555
C4 C3 1_555 1_555
H3 C4 1_555 1_555
C5 N1 1_555 1_555
C6 O1 1_555 1_555
C7 O3 1_555 1_555
Zn1C N1C 1_555 1_555
Zn1B O2 1_555 1_555
Zn1B_2 O4 1_555 1_555
Zn1_2 O4C 1_555 1_555
N1C C1C 1_555 1_555
O1C Zn1C 1_555 1_555
O2C Zn1 1_555 1_555
O2A Zn1C 1_555 1_555
O3C Zn1C 1_555 1_555
O4C C7C 1_555 1_555
O4C_2 Zn1 1_555 1_555
O4A Zn1C 1_555 1_555
O5C H1C 1_555 1_555
C1C C2C 1_555 1_555
C2C H2C 1_555 1_555
C3C O5C 1_555 1_555
C4C C3C 1_555 1_555
H3C C4C 1_555 1_555
C5C N1C 1_555 1_555
C6C O1C 1_555 1_555
C7C O3C 1_555 1_555
C1 C6 1_555 1_555
C2 C3 1_555 1_555
C4 C5 1_555 1_555
C5 C7 1_555 1_555
O2C C6C 1_555 1_555
C1C C6C 1_555 1_555
C2C C3C 1_555 1_555
C4C C5C 1_555 1_555
C5C C7C 1_555 1_555

#END
