
#######################################################################
#
#                 Cambridge Crystallographic Data Centre
#                                CCDC 
#
#######################################################################
#
# If this CIF has been generated from an entry in the Cambridge 
# Structural Database, then it will include bibliographic, chemical, 
# crystal, experimental, refinement or atomic coordinate data resulting 
# from the CCDC's data processing and validation procedures.
#
#######################################################################

data_XELQOV
_symmetry_cell_setting           monoclinic
_symmetry_space_group_name_H-M   'P 21/n'
_symmetry_Int_Tables_number      14
_space_group_name_Hall           '-P 2yn'
loop_
_symmetry_equiv_pos_site_id
_symmetry_equiv_pos_as_xyz
1 x,y,z
2 1/2-x,1/2+y,1/2-z
3 -x,-y,-z
4 1/2+x,1/2-y,1/2+z
_cell_length_a                   11.590(2)
_cell_length_b                   3.9882(8)
_cell_length_c                   26.593(5)
_cell_angle_alpha                90
_cell_angle_beta                 91.42(3)
_cell_angle_gamma                90
_cell_volume                     1228.84
loop_
_atom_site_label
_atom_site_type_symbol
_atom_site_fract_x
_atom_site_fract_y
_atom_site_fract_z
C1 C 0.7938(15) 0.801(4) 0.8358(6)
C2 C 1.0147(16) 0.684(3) 0.8478(7)
C3 C 1.0075(15) 0.830(4) 0.8029(7)
C4 C 1.1080(19) 0.389(4) 0.9351(8)
H1 H 1.0853 0.5709 0.9577
H2 H 1.1735 0.2672 0.9502
H3 H 1.0429 0.2353 0.9299
C5 C 1.0930(15) 0.784(5) 0.7053(6)
H4 H 1.0829 0.5403 0.7077
H5 H 1.1558 0.8338 0.6825
H6 H 1.0213 0.8858 0.6924
Cl1 Cl 0.4419(4) 0.3553(8) 0.93278(17)
Cl2 Cl 0.7432(4) 0.1211(9) 0.97234(18)
Hg1 Hg 0.60077(6) 0.73802(19) 0.94194(3)
S1 S 0.6539(4) 0.8346(10) 0.84023(18)
S2 S 0.8867(4) 0.6308(9) 0.87990(17)
S3 S 0.8675(4) 0.9447(9) 0.78274(17)
S4 S 1.1484(4) 0.5617(11) 0.87598(19)
S5 S 1.1284(4) 0.9546(10) 0.76791(18)
Cl1_2 Cl 0.4419(4) 1.3553(8) 0.93278(17)
Cl2_2 Cl 0.7432(4) 1.1211(9) 0.97234(18)
Hg1_2 Hg 0.60077(6) -0.26198(19) 0.94194(3)
loop_
_geom_bond_atom_site_label_1
_geom_bond_atom_site_label_2
_geom_bond_site_symmetry_1
_geom_bond_site_symmetry_2
C1 S1 1_555 1_555
C2 C3 1_555 1_555
C3 S3 1_555 1_555
C4 H1 1_555 1_555
H2 C4 1_555 1_555
H3 C4 1_555 1_555
C5 H4 1_555 1_555
H5 C5 1_555 1_555
H6 C5 1_555 1_555
Cl1 Hg1 1_555 1_555
Cl2 Hg1 1_555 1_555
Hg1 S1 1_555 1_555
S2 C1 1_555 1_555
S3 C1 1_555 1_555
S4 C2 1_555 1_555
S5 C3 1_555 1_555
Cl1_2 Hg1 1_555 1_555
Cl2_2 Hg1 1_555 1_555
Hg1_2 Cl1 1_555 1_555
C2 S2 1_555 1_555
C4 S4 1_555 1_555
C5 S5 1_555 1_555
Cl2 Hg1_2 1_555 1_555

#END
