
#######################################################################
#
#                 Cambridge Crystallographic Data Centre
#                                CCDC 
#
#######################################################################
#
# If this CIF has been generated from an entry in the Cambridge 
# Structural Database, then it will include bibliographic, chemical, 
# crystal, experimental, refinement or atomic coordinate data resulting 
# from the CCDC's data processing and validation procedures.
#
#######################################################################

data_XELSUD
_symmetry_cell_setting           orthorhombic
_symmetry_space_group_name_H-M   'P b c a'
_symmetry_Int_Tables_number      61
_space_group_name_Hall           '-P 2ac 2ab'
loop_
_symmetry_equiv_pos_site_id
_symmetry_equiv_pos_as_xyz
1 x,y,z
2 1/2-x,-y,1/2+z
3 -x,1/2+y,1/2-z
4 1/2+x,1/2-y,-z
5 -x,-y,-z
6 1/2+x,y,1/2-z
7 x,1/2-y,1/2+z
8 1/2-x,1/2+y,z
_cell_length_a                   17.086(5)
_cell_length_b                   13.036(4)
_cell_length_c                   25.926(8)
_cell_angle_alpha                90
_cell_angle_beta                 90
_cell_angle_gamma                90
_cell_volume                     5774.58
loop_
_atom_site_label
_atom_site_type_symbol
_atom_site_fract_x
_atom_site_fract_y
_atom_site_fract_z
Cd1 Cd 0.35434(3) 0.47231(5) 0.83653(2)
Cd2 Cd 0.36541(3) 0.73472(5) 0.65934(2)
N1 N 0.3415(3) 0.4877(4) 0.9320(2)
N2 N 0.2154(3) 0.4734(4) 0.8536(2)
N3 N 0.2255(4) 0.7342(5) 0.6684(2)
N4 N 0.3143(4) 0.7421(4) 0.5712(2)
N5 N 0.3874(6) 0.7269(6) 0.7445(3)
N6 N 0.5107(4) 0.2382(5) 0.8712(4)
N7 N 0.3311(5) 0.4745(5) 0.7509(3)
N8 N 0.4854(4) 0.4810(6) 0.8386(4)
O1 O 0.0984(4) 0.5072(6) 1.0196(2)
O2 O 0.0415(5) 0.7458(6) 0.5311(4)
S1 S 0.34624(12) 0.68228(17) 0.84566(9)
S2 S 0.35231(10) 0.26524(16) 0.84978(8)
S3 S 0.35747(10) 0.52597(15) 0.64827(7)
S4 S 0.64430(9) 0.44516(16) 0.83401(8)
C1 C 0.3882(4) 0.4958(6) 0.9731(3)
H1 H 0.4420 0.4969 0.9678
C2 C 0.3608(5) 0.5026(6) 1.0236(3)
H2 H 0.3962 0.5066 1.0507
C3 C 0.2816(5) 0.5033(5) 1.0335(3)
H3 H 0.2622 0.5066 1.0670
C4 C 0.2327(4) 0.4989(5) 0.9918(3)
C5 C 0.2649(4) 0.4909(5) 0.9423(3)
C6 C 0.2028(4) 0.4842(5) 0.9038(3)
C7 C 0.1308(4) 0.4909(6) 0.9286(3)
C8 C 0.0653(5) 0.4848(6) 0.8986(3)
H4 H 0.0157 0.4872 0.9132
C9 C 0.0747(4) 0.4751(6) 0.8454(3)
H5 H 0.0324 0.4633 0.8237
C10 C 0.1483(4) 0.4837(9) 0.8270(3)
H6 H 0.1532 0.4984 0.7921
C11 C 0.1456(4) 0.4994(6) 0.9861(3)
C12 C 0.1738(6) 0.7300(7) 0.7088(4)
H7 H 0.1942 0.7281 0.7420
C13 C 0.0962(6) 0.7285(8) 0.7034(5)
H8 H 0.0645 0.7222 0.7323
C14 C 0.0616(5) 0.7364(7) 0.6538(5)
H9 H 0.0077 0.7391 0.6491
C15 C 0.1134(5) 0.7399(6) 0.6130(4)
C16 C 0.1918(4) 0.7397(5) 0.6224(3)
C17 C 0.2373(5) 0.7444(5) 0.5746(3)
C18 C 0.1852(6) 0.7496(5) 0.5325(3)
C19 C 0.2156(11) 0.7526(7) 0.4837(4)
H10 H 0.1836 0.7567 0.4548
C20 C 0.2968(9) 0.7492(6) 0.4795(4)
H11 H 0.3197 0.7497 0.4469
C21 C 0.3441(7) 0.7450(5) 0.5225(4)
H12 H 0.3981 0.7443 0.5182
C22 C 0.1036(6) 0.7467(6) 0.5547(5)
C23 C 0.3694(4) 0.7067(6) 0.7866(3)
C24 C 0.4453(4) 0.2507(5) 0.8618(3)
C25 C 0.3434(4) 0.4971(5) 0.7089(3)
C26 C 0.5498(4) 0.4635(6) 0.8359(3)
Cd2B Cd 0.63459(3) 0.23472(5) 0.84066(2)
N6B N 0.4893(4) 0.7382(5) 0.6288(4)
S4B S 0.35570(9) 0.94516(16) 0.66599(8)
loop_
_geom_bond_atom_site_label_1
_geom_bond_atom_site_label_2
_geom_bond_site_symmetry_1
_geom_bond_site_symmetry_2
Cd1 N1 1_555 1_555
Cd2 N3 1_555 1_555
N1 C1 1_555 1_555
N2 Cd1 1_555 1_555
N3 C12 1_555 1_555
N4 Cd2 1_555 1_555
N5 Cd2 1_555 1_555
N6 C24 1_555 1_555
N7 Cd1 1_555 1_555
N8 Cd1 1_555 1_555
O1 C11 1_555 1_555
O2 C22 1_555 1_555
S1 Cd1 1_555 1_555
S2 Cd1 1_555 1_555
S3 Cd2 1_555 1_555
S4 C26 1_555 1_555
C1 H1 1_555 1_555
C2 C1 1_555 1_555
H2 C2 1_555 1_555
C3 C2 1_555 1_555
H3 C3 1_555 1_555
C4 C3 1_555 1_555
C5 N1 1_555 1_555
C6 N2 1_555 1_555
C7 C6 1_555 1_555
C8 C7 1_555 1_555
H4 C8 1_555 1_555
C9 C8 1_555 1_555
H5 C9 1_555 1_555
C10 N2 1_555 1_555
H6 C10 1_555 1_555
C11 C4 1_555 1_555
C12 H7 1_555 1_555
C13 C12 1_555 1_555
H8 C13 1_555 1_555
C14 C13 1_555 1_555
H9 C14 1_555 1_555
C15 C14 1_555 1_555
C16 N3 1_555 1_555
C17 N4 1_555 1_555
C18 C17 1_555 1_555
C19 C18 1_555 1_555
H10 C19 1_555 1_555
C20 C19 1_555 1_555
H11 C20 1_555 1_555
C21 N4 1_555 1_555
H12 C21 1_555 1_555
C22 C15 1_555 1_555
C23 N5 1_555 1_555
C24 S2 1_555 1_555
C25 N7 1_555 1_555
C26 N8 1_555 1_555
Cd2B N6 1_555 1_555
N6B Cd2 1_555 1_555
S4B Cd2 1_555 1_555
S1 C23 1_555 1_555
S3 C25 1_555 1_555
S4 Cd2B 1_555 1_555
C4 C5 1_555 1_555
C5 C6 1_555 1_555
C7 C11 1_555 1_555
C9 C10 1_555 1_555
C15 C16 1_555 1_555
C16 C17 1_555 1_555
C18 C22 1_555 1_555
C20 C21 1_555 1_555

#END
