
#######################################################################
#
#                 Cambridge Crystallographic Data Centre
#                                CCDC 
#
#######################################################################
#
# If this CIF has been generated from an entry in the Cambridge 
# Structural Database, then it will include bibliographic, chemical, 
# crystal, experimental, refinement or atomic coordinate data resulting 
# from the CCDC's data processing and validation procedures.
#
#######################################################################

data_XELSUD01
_symmetry_cell_setting           orthorhombic
_symmetry_space_group_name_H-M   'P b c a'
_symmetry_Int_Tables_number      61
_space_group_name_Hall           '-P 2ac 2ab'
loop_
_symmetry_equiv_pos_site_id
_symmetry_equiv_pos_as_xyz
1 x,y,z
2 1/2-x,-y,1/2+z
3 -x,1/2+y,1/2-z
4 1/2+x,1/2-y,-z
5 -x,-y,-z
6 1/2+x,y,1/2-z
7 x,1/2-y,1/2+z
8 1/2-x,1/2+y,z
_cell_length_a                   17.1019(5)
_cell_length_b                   13.0350(4)
_cell_length_c                   25.8627(7)
_cell_angle_alpha                90
_cell_angle_beta                 90
_cell_angle_gamma                90
_cell_volume                     5765.4
loop_
_atom_site_label
_atom_site_type_symbol
_atom_site_fract_x
_atom_site_fract_y
_atom_site_fract_z
C1 C 0.1575(3) 0.2556(3) 0.02272(16)
H1 H 0.1036 0.2578 0.0181
C2 C 0.2062(5) 0.2497(3) -0.02057(16)
H2 H 0.1843 0.2475 -0.0534
C3 C 0.2867(4) 0.2470(3) -0.01517(18)
H3 H 0.3193 0.2429 -0.0439
C4 C 0.3162(3) 0.2507(3) 0.03349(16)
C5 C 0.2636(2) 0.2557(3) 0.07427(13)
C6 C 0.30752(18) 0.2612(3) 0.12275(14)
C7 C 0.3873(2) 0.2606(3) 0.11327(19)
C8 C 0.4370(2) 0.2663(3) 0.1556(2)
H4 H 0.4911 0.2655 0.1516
C9 C 0.4032(3) 0.2732(4) 0.2034(2)
H5 H 0.4349 0.2782 0.2325
C10 C 0.3243(2) 0.2729(3) 0.20914(16)
H6 H 0.3036 0.2769 0.2423
C11 C 0.3983(3) 0.2533(3) 0.0557(2)
C12 C -0.1119(2) 0.0052(3) 0.02694(14)
H7 H -0.0582 0.0062 0.0324
C13 C -0.1386(2) -0.0036(3) -0.02326(14)
H8 H -0.1031 -0.0089 -0.0503
C14 C -0.2179(2) -0.0044(3) -0.03342(13)
H9 H -0.2369 -0.0088 -0.0670
C15 C -0.26765(19) 0.0015(3) 0.00842(13)
C16 C -0.23490(18) 0.0098(2) 0.05751(12)
C17 C -0.29690(18) 0.0167(2) 0.09636(12)
C18 C -0.36922(19) 0.0107(3) 0.07235(15)
C19 C -0.4349(2) 0.0152(3) 0.10196(16)
H10 H -0.4846 0.0121 0.0874
C20 C -0.4242(2) 0.0247(3) 0.15508(16)
H11 H -0.4676 0.0272 0.1768
C21 C -0.3490(2) 0.0305(3) 0.17621(16)
H12 H -0.3436 0.0371 0.2118
C22 C -0.3545(2) 0.0006(3) 0.01456(15)
C23 C 0.0504(2) 0.0354(3) 0.16382(15)
C24 C -0.0538(2) 0.2492(3) 0.13712(15)
C25 C -0.1301(2) -0.2076(3) 0.21411(15)
C26 C 0.1571(2) 0.5034(3) 0.20844(14)
N1 N 0.18690(18) 0.2581(2) 0.07090(11)
N2 N 0.27454(16) 0.2670(2) 0.16877(11)
N3 N -0.15908(15) 0.0125(2) 0.06829(11)
N4 N -0.28420(15) 0.0269(2) 0.14668(11)
N5 N 0.01117(19) 0.2619(3) 0.12766(17)
N6 N -0.0149(2) 0.0187(3) 0.16166(19)
N7 N -0.1107(3) -0.2259(3) 0.25610(14)
N8 N 0.1683(3) 0.5251(3) 0.25076(13)
O1 O 0.4588(2) 0.2537(3) 0.03184(19)
O2 O -0.40209(17) -0.0064(3) -0.01934(11)
S1 S 0.14442(5) 0.05596(8) 0.16611(4)
S2 S 0.14212(5) 0.47555(7) 0.14743(3)
S3 S -0.14711(5) 0.23460(8) 0.14996(4)
S4 S -0.15391(6) -0.18236(8) 0.15475(4)
Cd1 Cd 0.134026(14) 0.26665(2) 0.158724(10)
Cd2 Cd -0.145423(13) 0.02810(2) 0.163811(10)
N7B N 0.1107(3) 0.2741(3) 0.24390(14)
N8B N -0.1683(3) 0.0251(3) 0.24924(13)
Cd1B Cd -0.134026(14) -0.23335(2) 0.341276(10)
Cd2B Cd 0.145423(13) 0.52810(2) 0.336189(10)
loop_
_geom_bond_atom_site_label_1
_geom_bond_atom_site_label_2
_geom_bond_site_symmetry_1
_geom_bond_site_symmetry_2
C1 H1 1_555 1_555
C2 C1 1_555 1_555
H2 C2 1_555 1_555
C3 C2 1_555 1_555
H3 C3 1_555 1_555
C4 C3 1_555 1_555
C5 C4 1_555 1_555
C6 C5 1_555 1_555
C7 C6 1_555 1_555
C8 C7 1_555 1_555
H4 C8 1_555 1_555
C9 C8 1_555 1_555
H5 C9 1_555 1_555
C10 C9 1_555 1_555
H6 C10 1_555 1_555
C11 C4 1_555 1_555
C12 H7 1_555 1_555
C13 C12 1_555 1_555
H8 C13 1_555 1_555
C14 C13 1_555 1_555
H9 C14 1_555 1_555
C15 C14 1_555 1_555
C16 C15 1_555 1_555
C17 C16 1_555 1_555
C18 C17 1_555 1_555
C19 C18 1_555 1_555
H10 C19 1_555 1_555
C20 C19 1_555 1_555
H11 C20 1_555 1_555
C21 C20 1_555 1_555
H12 C21 1_555 1_555
C22 C15 1_555 1_555
C23 N6 1_555 1_555
C24 N5 1_555 1_555
C25 N7 1_555 1_555
C26 N8 1_555 1_555
N1 C1 1_555 1_555
N2 C6 1_555 1_555
N3 C12 1_555 1_555
N4 C17 1_555 1_555
N5 Cd1 1_555 1_555
N6 Cd2 1_555 1_555
N7 Cd1B 1_555 1_555
N8 Cd2B 1_555 1_555
O1 C11 1_555 1_555
O2 C22 1_555 1_555
S1 C23 1_555 1_555
S2 C26 1_555 1_555
S3 C24 1_555 1_555
S4 C25 1_555 1_555
Cd1 N1 1_555 1_555
Cd2 N3 1_555 1_555
N7B Cd1 1_555 1_555
N8B Cd2 1_555 1_555
C5 N1 1_555 1_555
C7 C11 1_555 1_555
C10 N2 1_555 1_555
C16 N3 1_555 1_555
C18 C22 1_555 1_555
C21 N4 1_555 1_555
N2 Cd1 1_555 1_555
N4 Cd2 1_555 1_555
S1 Cd1 1_555 1_555
S2 Cd1 1_555 1_555
S3 Cd2 1_555 1_555
S4 Cd2 1_555 1_555

#END
