
#######################################################################
#
#                 Cambridge Crystallographic Data Centre
#                                CCDC 
#
#######################################################################
#
# If this CIF has been generated from an entry in the Cambridge 
# Structural Database, then it will include bibliographic, chemical, 
# crystal, experimental, refinement or atomic coordinate data resulting 
# from the CCDC's data processing and validation procedures.
#
#######################################################################

data_XELVUG
_symmetry_cell_setting           triclinic
_symmetry_space_group_name_H-M   'P -1'
_symmetry_Int_Tables_number      2
_space_group_name_Hall           '-P 1'
loop_
_symmetry_equiv_pos_site_id
_symmetry_equiv_pos_as_xyz
1 x,y,z
2 -x,-y,-z
_cell_length_a                   7.2840(15)
_cell_length_b                   7.6870(15)
_cell_length_c                   7.8270(16)
_cell_angle_alpha                65.05(3)
_cell_angle_beta                 74.80(3)
_cell_angle_gamma                86.85(3)
_cell_volume                     382.674
loop_
_atom_site_label
_atom_site_type_symbol
_atom_site_fract_x
_atom_site_fract_y
_atom_site_fract_z
Ag1 Ag 0.5000 0.5000 0.0000
N1 N 0.2159(8) 0.5708(7) 0.1356(7)
N2 N 0.5287(7) 0.8143(7) 0.0338(7)
N3 N 0.3212(7) 1.0615(7) 0.0394(7)
C1 C 0.0686(9) 0.4439(9) 0.2098(9)
H1 H 0.0883 0.3242 0.2014
C2 C -0.1117(10) 0.4758(10) 0.2983(10)
H2 H -0.2143 0.3821 0.3463
C3 C -0.1397(10) 0.6479(10) 0.3159(10)
H3 H -0.2617 0.6730 0.3791
C4 C 0.0121(9) 0.7824(9) 0.2401(9)
H4 H -0.0041 0.9025 0.2481
C5 C 0.1890(9) 0.7389(9) 0.1520(8)
C6 C 0.3552(9) 0.8793(8) 0.0704(8)
Ag1_2 Ag 0.5000 1.5000 0.0000
N1A N 0.7841(8) 1.4292(7) -0.1356(7)
N1A_2 N 0.7841(8) 0.4292(7) -0.1356(7)
N2A N 0.4713(7) 1.1857(7) -0.0338(7)
N2A_2 N 0.4713(7) 0.1857(7) -0.0338(7)
N3A N 0.6788(7) 0.9385(7) -0.0394(7)
C1A C 0.9314(9) 1.5561(9) -0.2098(9)
H1A H 0.9117 1.6758 -0.2014
C2A C 1.1117(10) 1.5242(10) -0.2983(10)
H2A H 1.2143 1.6179 -0.3463
C3A C 1.1397(10) 1.3521(10) -0.3159(10)
H3A H 1.2617 1.3270 -0.3791
C4A C 0.9879(9) 1.2176(9) -0.2401(9)
H4A H 1.0041 1.0975 -0.2481
C5A C 0.8110(9) 1.2611(9) -0.1520(8)
C6A C 0.6448(9) 1.1207(8) -0.0704(8)
P1 P -0.5000 0.0000 0.5000
F1 F -0.6291(10) 0.1552(10) 0.3902(8)
F2 F -0.4540(7) 0.1363(7) 0.5920(7)
F3 F -0.3242(7) 0.0885(7) 0.3157(7)
F1A F -0.3709(10) -0.1552(10) 0.6098(8)
F2A F -0.5460(7) -0.1363(7) 0.4080(7)
F3A F -0.6758(7) -0.0885(7) 0.6843(7)
loop_
_geom_bond_atom_site_label_1
_geom_bond_atom_site_label_2
_geom_bond_site_symmetry_1
_geom_bond_site_symmetry_2
Ag1 N1 1_555 1_555
P1 F1 1_555 1_555
F2 P1 1_555 1_555
F3 P1 1_555 1_555
N1 C1 1_555 1_555
N2 Ag1 1_555 1_555
N3 C6 1_555 1_555
C1 H1 1_555 1_555
C2 C1 1_555 1_555
H2 C2 1_555 1_555
C3 C2 1_555 1_555
H3 C3 1_555 1_555
C4 C3 1_555 1_555
H4 C4 1_555 1_555
C5 N1 1_555 1_555
C6 N2 1_555 1_555
Ag1_2 N1A 1_555 1_555
F1A P1 1_555 1_555
F2A P1 1_555 1_555
F3A P1 1_555 1_555
N1A C1A 1_555 1_555
N1A_2 Ag1 1_555 1_555
N2A N3 1_555 1_555
N2A_2 Ag1 1_555 1_555
N3A N2 1_555 1_555
C1A H1A 1_555 1_555
C2A C1A 1_555 1_555
H2A C2A 1_555 1_555
C3A C2A 1_555 1_555
H3A C3A 1_555 1_555
C4A C3A 1_555 1_555
H4A C4A 1_555 1_555
C5A N1A 1_555 1_555
C6A N2A 1_555 1_555
C4 C5 1_555 1_555
C5 C6 1_555 1_555
Ag1_2 N2A 1_555 1_555
N3A C6A 1_555 1_555
C4A C5A 1_555 1_555
C5A C6A 1_555 1_555

#END
