
#######################################################################
#
#                 Cambridge Crystallographic Data Centre
#                                CCDC 
#
#######################################################################
#
# If this CIF has been generated from an entry in the Cambridge 
# Structural Database, then it will include bibliographic, chemical, 
# crystal, experimental, refinement or atomic coordinate data resulting 
# from the CCDC's data processing and validation procedures.
#
#######################################################################

data_XELWUI
_symmetry_cell_setting           monoclinic
_symmetry_space_group_name_H-M   'P 21/c'
_symmetry_Int_Tables_number      14
_space_group_name_Hall           '-P 2ybc'
loop_
_symmetry_equiv_pos_site_id
_symmetry_equiv_pos_as_xyz
1 x,y,z
2 -x,1/2+y,1/2-z
3 -x,-y,-z
4 x,1/2-y,1/2+z
_cell_length_a                   7.1682(10)
_cell_length_b                   29.639(6)
_cell_length_c                   6.6770(12)
_cell_angle_alpha                90
_cell_angle_beta                 112.3(7)
_cell_angle_gamma                90
_cell_volume                     1312.49
loop_
_atom_site_label
_atom_site_type_symbol
_atom_site_fract_x
_atom_site_fract_y
_atom_site_fract_z
U1 U 0.30206(5) 0.159463(12) 0.74178(6)
Li1 Li 0.813(2) 0.1595(6) 1.237(3)
C1 C 0.0132(14) 0.1153(3) 0.9662(16)
C2 C 0.1068(16) 0.0746(4) 0.8942(18)
C3 C 0.6057(14) 0.1330(4) 0.5029(15)
C4 C 0.6041(14) 0.1853(4) 0.5014(15)
O1 O 0.5056(10) 0.1596(3) 0.9961(10)
O2 O 0.1007(10) 0.1614(3) 0.4848(10)
O3 O 0.0618(10) 0.1534(2) 0.9109(11)
O4 O 0.2255(11) 0.0841(2) 0.8001(12)
O5 O 0.4938(11) 0.1152(2) 0.5913(12)
O6 O 0.4920(10) 0.2036(2) 0.5879(11)
O7 O 0.2333(10) 0.2350(2) 0.8121(11)
H1 H 0.3209 0.2430 0.9336
H2 H 0.1477 0.2553 0.7475
O8 O -0.0969(11) 0.1093(2) 1.0685(12)
O9 O 0.0586(14) 0.0370(3) 0.9302(15)
O10 O 0.7105(11) 0.1131(3) 0.4205(11)
O11 O 0.7047(11) 0.2050(2) 0.4112(11)
O12 O 0.9050(10) 0.2165(2) 1.0931(11)
H3 H 0.8052 0.2303 1.0013
H4 H 0.9542 0.2184 0.9959
Li1_2 Li -0.187(2) 0.1595(6) 0.237(3)
Li1_3 Li -0.187(2) 0.1595(6) 1.237(3)
Li1_4 Li 0.813(2) 0.1595(6) 0.237(3)
O2_2 O 1.1007(10) 0.1614(3) 1.4848(10)
O8_2 O 0.9031(11) 0.1093(2) 1.0685(12)
O10_2 O 0.7105(11) 0.1131(3) 1.4205(11)
O11_2 O 0.7047(11) 0.2050(2) 1.4112(11)
O13 O 0.566(3) 0.0254(7) 0.744(3)
H5 H 0.5446 0.0525 0.6989
H6 H 0.4920 0.0020 0.7075
H7 H 0.6926 0.0283 0.7917
O14 O 0.798(3) 0.0263(7) 0.315(3)
H8 H 0.8220 0.0219 0.2019
H9 H 0.7067 0.0465 0.2752
H10 H 0.7105 0.0078 0.3247
O15 O 0.210(4) 0.0333(10) 0.396(5)
H11 H 0.3365 0.0356 0.4664
H12 H 0.1790 0.0581 0.3267
H13 H 0.1892 0.0074 0.3375
loop_
_geom_bond_atom_site_label_1
_geom_bond_atom_site_label_2
_geom_bond_site_symmetry_1
_geom_bond_site_symmetry_2
U1 O1 1_555 1_555
Li1 O1 1_555 1_555
C1 C2 1_555 1_555
C2 O4 1_555 1_555
C3 C4 1_555 1_555
C4 O6 1_555 1_555
O2 U1 1_555 1_555
O3 U1 1_555 1_555
O4 U1 1_555 1_555
O5 U1 1_555 1_555
O6 U1 1_555 1_555
O7 U1 1_555 1_555
H1 O7 1_555 1_555
H2 O7 1_555 1_555
O8 C1 1_555 1_555
O9 C2 1_555 1_555
O10 C3 1_555 1_555
O11 C4 1_555 1_555
O12 Li1 1_555 1_555
H3 O12 1_555 1_555
H4 O12 1_555 1_555
O13 H5 1_555 1_555
H6 O13 1_555 1_555
H7 O13 1_555 1_555
O14 H8 1_555 1_555
H9 O14 1_555 1_555
H10 O14 1_555 1_555
O15 H11 1_555 1_555
H12 O15 1_555 1_555
H13 O15 1_555 1_555
Li1_2 O2 1_555 1_555
Li1_3 O8 1_555 1_555
Li1_4 O10 1_555 1_555
O2_2 Li1 1_555 1_555
O8_2 Li1 1_555 1_555
O10_2 Li1 1_555 1_555
O11_2 Li1 1_555 1_555
C1 O3 1_555 1_555
C3 O5 1_555 1_555
O11 Li1_4 1_555 1_555

#END
