
#######################################################################
#
#                 Cambridge Crystallographic Data Centre
#                                CCDC 
#
#######################################################################
#
# If this CIF has been generated from an entry in the Cambridge 
# Structural Database, then it will include bibliographic, chemical, 
# crystal, experimental, refinement or atomic coordinate data resulting 
# from the CCDC's data processing and validation procedures.
#
#######################################################################

data_XELXET
_symmetry_cell_setting           triclinic
_symmetry_space_group_name_H-M   'P -1'
_symmetry_Int_Tables_number      2
_space_group_name_Hall           '-P 1'
loop_
_symmetry_equiv_pos_site_id
_symmetry_equiv_pos_as_xyz
1 x,y,z
2 -x,-y,-z
_cell_length_a                   10.6375(7)
_cell_length_b                   10.7488(7)
_cell_length_c                   13.3040(8)
_cell_angle_alpha                92.837(1)
_cell_angle_beta                 108.254(1)
_cell_angle_gamma                110.448(1)
_cell_volume                     1331.84
loop_
_atom_site_label
_atom_site_type_symbol
_atom_site_fract_x
_atom_site_fract_y
_atom_site_fract_z
Co1 Co 0.82050(2) 0.00143(2) 0.186846(15)
N1 N 0.92197(16) -0.00580(15) 0.06745(11)
N2 N 0.62935(15) 0.00025(13) 0.06844(10)
O1 O 1.03999(12) 0.06892(12) 0.30409(9)
O2 O 0.95767(13) 0.20931(12) 0.21994(10)
O3 O 0.73682(12) 0.04052(13) 0.29652(9)
O4 O 0.88024(13) 0.03284(12) 0.45660(9)
O5 O 0.74703(14) -0.20187(12) 0.15691(10)
O6 O 0.88609(16) -0.22453(13) 0.31256(10)
C1 C 1.05894(18) 0.18703(17) 0.28420(13)
C2 C 1.2080(2) 0.2986(2) 0.33422(18)
C3 C 1.1974(3) 0.4365(2) 0.3325(3)
H1 H 1.1443 0.4477 0.3783
H2 H 1.1471 0.4429 0.2586
H3 H 1.2940 0.5074 0.3595
C4 C 1.2815(3) 0.2815(3) 0.4474(2)
H4 H 1.2866 0.1921 0.4453
H5 H 1.2267 0.2900 0.4926
H6 H 1.3787 0.3512 0.4774
C5 C 1.2920(3) 0.2817(3) 0.2643(3)
H7 H 1.2998 0.1936 0.2662
H8 H 1.3882 0.3533 0.2916
H9 H 1.2422 0.2874 0.1901
C6 C 0.79055(17) 0.07341(16) 0.39809(12)
C7 C 0.7464(2) 0.1737(2) 0.44988(15)
C8 C 0.7442(3) 0.1483(3) 0.56148(18)
H10 H 0.6693 0.0601 0.5548
H11 H 0.7243 0.2190 0.5951
H12 H 0.8376 0.1495 0.6061
C9 C 0.6015(3) 0.1697(3) 0.3782(2)
H13 H 0.5272 0.0810 0.3710
H14 H 0.6046 0.1858 0.3069
H15 H 0.5794 0.2398 0.4103
C10 C 0.8645(3) 0.3129(2) 0.4623(2)
H16 H 0.8664 0.3310 0.3912
H17 H 0.9577 0.3134 0.5067
H18 H 0.8444 0.3827 0.4969
C11 C 0.80498(18) -0.26967(17) 0.21806(14)
C12 C 0.7683(2) -0.41595(19) 0.17036(16)
C13 C 0.8980(3) -0.4533(3) 0.2163(3)
H19 H 0.9756 -0.3985 0.1932
H20 H 0.8715 -0.5491 0.1901
H21 H 0.9302 -0.4364 0.2950
C14 C 0.6456(4) -0.5047(3) 0.2033(3)
H22 H 0.6186 -0.5995 0.1739
H23 H 0.5629 -0.4793 0.1751
H24 H 0.6767 -0.4921 0.2819
C15 C 0.7180(4) -0.4390(3) 0.0488(2)
H25 H 0.7957 -0.3835 0.0260
H26 H 0.6351 -0.4139 0.0205
H27 H 0.6906 -0.5344 0.0210
C16 C 1.0124(2) -0.0689(2) 0.08027(14)
H28 H 1.0242 -0.1186 0.1372
C17 C 0.9107(2) 0.0639(2) -0.01301(14)
H29 H 0.8483 0.1112 -0.0242
C18 C 0.5350(2) -0.10629(18) -0.00596(14)
H30 H 0.5564 -0.1844 -0.0127
C19 C 0.5942(2) 0.10652(18) 0.07422(14)
H31 H 0.6591 0.1848 0.1264
Co1A Co 1.17950(2) -0.00143(2) -0.186846(15)
Co1A_2 Co 0.17950(2) -0.00143(2) -0.186846(15)
N1A N 1.07803(16) 0.00580(15) -0.06745(11)
N2A N 0.37065(15) -0.00025(13) -0.06844(10)
N2A_2 N 1.37065(15) -0.00025(13) -0.06844(10)
O1A O 0.96001(12) -0.06892(12) -0.30409(9)
O2A O 1.04233(13) -0.20931(12) -0.21994(10)
O3A O 1.26318(12) -0.04052(13) -0.29652(9)
O4A O 1.11976(13) -0.03284(12) -0.45660(9)
O5A O 1.25297(14) 0.20187(12) -0.15691(10)
O6A O 1.11391(16) 0.22453(13) -0.31256(10)
C1A C 0.94106(18) -0.18703(17) -0.28420(13)
C2A C 0.7920(2) -0.2986(2) -0.33422(18)
C3A C 0.8026(3) -0.4365(2) -0.3325(3)
H1A H 0.8557 -0.4477 -0.3783
H2A H 0.8529 -0.4429 -0.2586
H3A H 0.7060 -0.5074 -0.3595
C4A C 0.7185(3) -0.2815(3) -0.4474(2)
H4A H 0.7134 -0.1921 -0.4453
H5A H 0.7733 -0.2900 -0.4926
H6A H 0.6213 -0.3512 -0.4774
C5A C 0.7080(3) -0.2817(3) -0.2643(3)
H7A H 0.7002 -0.1936 -0.2662
H8A H 0.6118 -0.3533 -0.2916
H9A H 0.7578 -0.2874 -0.1901
C6A C 1.20945(17) -0.07341(16) -0.39809(12)
C7A C 1.2536(2) -0.1737(2) -0.44988(15)
C8A C 1.2558(3) -0.1483(3) -0.56148(18)
H10A H 1.3307 -0.0601 -0.5548
H11A H 1.2757 -0.2190 -0.5951
H12A H 1.1624 -0.1495 -0.6061
C9A C 1.3985(3) -0.1697(3) -0.3782(2)
H13A H 1.4728 -0.0810 -0.3710
H14A H 1.3954 -0.1858 -0.3069
H15A H 1.4206 -0.2398 -0.4103
C10A C 1.1355(3) -0.3129(2) -0.4623(2)
H16A H 1.1336 -0.3310 -0.3912
H17A H 1.0423 -0.3134 -0.5067
H18A H 1.1556 -0.3827 -0.4969
C11A C 1.19502(18) 0.26967(17) -0.21806(14)
C12A C 1.2317(2) 0.41595(19) -0.17036(16)
C13A C 1.1020(3) 0.4533(3) -0.2163(3)
H19A H 1.0244 0.3985 -0.1932
H20A H 1.1285 0.5491 -0.1901
H21A H 1.0698 0.4364 -0.2950
C14A C 1.3544(4) 0.5047(3) -0.2033(3)
H22A H 1.3814 0.5995 -0.1739
H23A H 1.4371 0.4793 -0.1751
H24A H 1.3233 0.4921 -0.2819
C15A C 1.2820(4) 0.4390(3) -0.0488(2)
H25A H 1.2043 0.3835 -0.0260
H26A H 1.3649 0.4139 -0.0205
H27A H 1.3094 0.5344 -0.0210
C16A C 0.9876(2) 0.0689(2) -0.08027(14)
H28A H 0.9758 0.1186 -0.1372
C17A C 1.0893(2) -0.0639(2) 0.01301(14)
H29A H 1.1517 -0.1112 0.0242
C18A C 0.4650(2) 0.10629(18) 0.00596(14)
H30A H 0.4436 0.1844 0.0127
C19A C 0.4058(2) -0.10652(18) -0.07422(14)
H31A H 0.3409 -0.1848 -0.1264
Li1 Li 0.9884(3) -0.0512(3) 0.4010(2)
N3 N 0.6914(6) 0.2006(6) -0.1503(4)
C20 C 0.6103(5) 0.2237(4) -0.2099(3)
C21 C 0.5028(3) 0.2514(3) -0.2884(3)
H32 H 0.5377 0.3479 -0.2914
H33 H 0.4165 0.2262 -0.2692
H34 H 0.4797 0.1993 -0.3588
loop_
_geom_bond_atom_site_label_1
_geom_bond_atom_site_label_2
_geom_bond_site_symmetry_1
_geom_bond_site_symmetry_2
Co1 N1 1_555 1_555
N1 C16 1_555 1_555
N2 Co1 1_555 1_555
O1 Co1 1_555 1_555
O2 Co1 1_555 1_555
O3 Co1 1_555 1_555
O4 C6 1_555 1_555
O5 Co1 1_555 1_555
O6 C11 1_555 1_555
C1 O1 1_555 1_555
C2 C1 1_555 1_555
C3 C2 1_555 1_555
H1 C3 1_555 1_555
H2 C3 1_555 1_555
H3 C3 1_555 1_555
C4 C2 1_555 1_555
H4 C4 1_555 1_555
H5 C4 1_555 1_555
H6 C4 1_555 1_555
C5 C2 1_555 1_555
H7 C5 1_555 1_555
H8 C5 1_555 1_555
H9 C5 1_555 1_555
C6 O3 1_555 1_555
C7 C6 1_555 1_555
C8 C7 1_555 1_555
H10 C8 1_555 1_555
H11 C8 1_555 1_555
H12 C8 1_555 1_555
C9 C7 1_555 1_555
H13 C9 1_555 1_555
H14 C9 1_555 1_555
H15 C9 1_555 1_555
C10 C7 1_555 1_555
H16 C10 1_555 1_555
H17 C10 1_555 1_555
H18 C10 1_555 1_555
C11 O5 1_555 1_555
C12 C11 1_555 1_555
C13 C12 1_555 1_555
H19 C13 1_555 1_555
H20 C13 1_555 1_555
H21 C13 1_555 1_555
C14 C12 1_555 1_555
H22 C14 1_555 1_555
H23 C14 1_555 1_555
H24 C14 1_555 1_555
C15 C12 1_555 1_555
H25 C15 1_555 1_555
H26 C15 1_555 1_555
H27 C15 1_555 1_555
C16 H28 1_555 1_555
C17 N1 1_555 1_555
H29 C17 1_555 1_555
C18 N2 1_555 1_555
H30 C18 1_555 1_555
C19 N2 1_555 1_555
H31 C19 1_555 1_555
N3 C20 1_555 1_555
C20 C21 1_555 1_555
C21 H32 1_555 1_555
H33 C21 1_555 1_555
H34 C21 1_555 1_555
Co1A N1A 1_555 1_555
Co1A_2 N2A 1_555 1_555
N1A C16A 1_555 1_555
N2A C18A 1_555 1_555
N2A_2 Co1A 1_555 1_555
O1A Co1A 1_555 1_555
O2A Co1A 1_555 1_555
O3A Co1A 1_555 1_555
O4A C6A 1_555 1_555
O5A Co1A 1_555 1_555
O6A C11A 1_555 1_555
C1A O1A 1_555 1_555
C2A C1A 1_555 1_555
C3A C2A 1_555 1_555
H1A C3A 1_555 1_555
H2A C3A 1_555 1_555
H3A C3A 1_555 1_555
C4A C2A 1_555 1_555
H4A C4A 1_555 1_555
H5A C4A 1_555 1_555
H6A C4A 1_555 1_555
C5A C2A 1_555 1_555
H7A C5A 1_555 1_555
H8A C5A 1_555 1_555
H9A C5A 1_555 1_555
C6A O3A 1_555 1_555
C7A C6A 1_555 1_555
C8A C7A 1_555 1_555
H10A C8A 1_555 1_555
H11A C8A 1_555 1_555
H12A C8A 1_555 1_555
C9A C7A 1_555 1_555
H13A C9A 1_555 1_555
H14A C9A 1_555 1_555
H15A C9A 1_555 1_555
C10A C7A 1_555 1_555
H16A C10A 1_555 1_555
H17A C10A 1_555 1_555
H18A C10A 1_555 1_555
C11A O5A 1_555 1_555
C12A C11A 1_555 1_555
C13A C12A 1_555 1_555
H19A C13A 1_555 1_555
H20A C13A 1_555 1_555
H21A C13A 1_555 1_555
C14A C12A 1_555 1_555
H22A C14A 1_555 1_555
H23A C14A 1_555 1_555
H24A C14A 1_555 1_555
C15A C12A 1_555 1_555
H25A C15A 1_555 1_555
H26A C15A 1_555 1_555
H27A C15A 1_555 1_555
C16A C17 1_555 1_555
H28A C16A 1_555 1_555
C17A C16 1_555 1_555
H29A C17A 1_555 1_555
C18A C19 1_555 1_555
H30A C18A 1_555 1_555
C19A C18 1_555 1_555
H31A C19A 1_555 1_555
O2 C1 1_555 1_555
N1A C17A 1_555 1_555
N2A C19A 1_555 1_555
O2A C1A 1_555 1_555

#END
