
#######################################################################
#
#                 Cambridge Crystallographic Data Centre
#                                CCDC 
#
#######################################################################
#
# If this CIF has been generated from an entry in the Cambridge 
# Structural Database, then it will include bibliographic, chemical, 
# crystal, experimental, refinement or atomic coordinate data resulting 
# from the CCDC's data processing and validation procedures.
#
#######################################################################

data_XEMBUN
_symmetry_cell_setting           orthorhombic
_symmetry_space_group_name_H-M   'C m c 21'
_symmetry_Int_Tables_number      36
_space_group_name_Hall           'C 2n -2'
loop_
_symmetry_equiv_pos_site_id
_symmetry_equiv_pos_as_xyz
1 x,y,z
2 -x,-y,1/2+z
3 x,-y,1/2+z
4 -x,y,z
5 1/2+x,1/2+y,z
6 1/2-x,1/2-y,1/2+z
7 1/2+x,1/2-y,1/2+z
8 1/2-x,1/2+y,z
_cell_length_a                   6.4361(11)
_cell_length_b                   13.337(2)
_cell_length_c                   19.600(3)
_cell_angle_alpha                90
_cell_angle_beta                 90
_cell_angle_gamma                90
_cell_volume                     1682.43
loop_
_atom_site_label
_atom_site_type_symbol
_atom_site_fract_x
_atom_site_fract_y
_atom_site_fract_z
Au1 Au -0.5000 0.29594(3) 0.06491(2)
Pt1 Pt 0.0000 0.35479(3) 0.09017(2)
Cl1 Cl 0.0000 0.5073(3) 0.0357(2)
N1 N 0.0000 0.4029(7) 0.1878(5)
N2 N 0.0000 0.2276(7) 0.1372(5)
N3 N 0.0000 0.2616(7) 0.0073(5)
N4 N -0.5000 0.3294(11) -0.0348(6)
N5 N -0.5000 0.2708(8) 0.1688(10)
C1 C 0.0000 0.5008(9) 0.2086(7)
H1 H 0.0000 0.5532 0.1758
C2 C 0.0000 0.5236(9) 0.2783(6)
H2 H 0.0000 0.5915 0.2928
C3 C 0.0000 0.4473(10) 0.3261(6)
H3 H 0.0000 0.4628 0.3734
C4 C 0.0000 0.3480(8) 0.3050(6)
H4 H 0.0000 0.2946 0.3371
C5 C 0.0000 0.3296(9) 0.2354(6)
C6 C 0.0000 0.2275(8) 0.2065(6)
C7 C 0.0000 0.1346(9) 0.2402(7)
H5 H 0.0000 0.1316 0.2886
C8 C 0.0000 0.0492(10) 0.2025(7)
H6 H 0.0000 -0.0138 0.2251
C9 C 0.0000 0.0517(9) 0.1314(6)
H7 H 0.0000 -0.0085 0.1056
C10 C 0.0000 0.1430(9) 0.0999(5)
C11 C 0.0000 0.1642(8) 0.0261(6)
C12 C 0.0000 0.0889(10) -0.0221(7)
H8 H 0.0000 0.0204 -0.0088
C13 C 0.0000 0.1165(11) -0.0920(7)
H9 H 0.0000 0.0662 -0.1263
C14 C 0.0000 0.2155(10) -0.1098(7)
H10 H 0.0000 0.2349 -0.1564
C15 C 0.0000 0.2880(10) -0.0579(7)
H11 H 0.0000 0.3571 -0.0697
C16 C -0.5000 0.3518(8) -0.0901(6)
C17 C -0.5000 0.2581(9) 0.2212(6)
Au1_2 Au 0.5000 0.29594(3) 0.06491(2)
Pt1_2 Pt -1.0000 0.35479(3) 0.09017(2)
loop_
_geom_bond_atom_site_label_1
_geom_bond_atom_site_label_2
_geom_bond_site_symmetry_1
_geom_bond_site_symmetry_2
Au1 Pt1 1_555 1_555
Pt1 Cl1 1_555 1_555
N1 Pt1 1_555 1_555
N2 Pt1 1_555 1_555
N3 Pt1 1_555 1_555
N4 Au1 1_555 1_555
N5 Au1 1_555 1_555
C1 N1 1_555 1_555
H1 C1 1_555 1_555
C2 C1 1_555 1_555
H2 C2 1_555 1_555
C3 C2 1_555 1_555
H3 C3 1_555 1_555
C4 C3 1_555 1_555
H4 C4 1_555 1_555
C5 N1 1_555 1_555
C6 N2 1_555 1_555
C7 C6 1_555 1_555
H5 C7 1_555 1_555
C8 C7 1_555 1_555
H6 C8 1_555 1_555
C9 C8 1_555 1_555
H7 C9 1_555 1_555
C10 N2 1_555 1_555
C11 N3 1_555 1_555
C12 C11 1_555 1_555
H8 C12 1_555 1_555
C13 C12 1_555 1_555
H9 C13 1_555 1_555
C14 C13 1_555 1_555
H10 C14 1_555 1_555
C15 N3 1_555 1_555
H11 C15 1_555 1_555
C16 N4 1_555 1_555
C17 N5 1_555 1_555
Au1_2 Pt1 1_555 1_555
Pt1_2 Au1 1_555 1_555
C4 C5 1_555 1_555
C5 C6 1_555 1_555
C9 C10 1_555 1_555
C10 C11 1_555 1_555
C14 C15 1_555 1_555

#END
