
#######################################################################
#
#                 Cambridge Crystallographic Data Centre
#                                CCDC 
#
#######################################################################
#
# If this CIF has been generated from an entry in the Cambridge 
# Structural Database, then it will include bibliographic, chemical, 
# crystal, experimental, refinement or atomic coordinate data resulting 
# from the CCDC's data processing and validation procedures.
#
#######################################################################

data_XEMDAW
_symmetry_cell_setting           monoclinic
_symmetry_space_group_name_H-M   'C c'
_symmetry_Int_Tables_number      9
_space_group_name_Hall           'C -2yc'
loop_
_symmetry_equiv_pos_site_id
_symmetry_equiv_pos_as_xyz
1 x,y,z
2 x,-y,1/2+z
3 1/2+x,1/2+y,z
4 1/2+x,1/2-y,1/2+z
_cell_length_a                   11.4604(8)
_cell_length_b                   31.4795(19)
_cell_length_c                   9.5863(5)
_cell_angle_alpha                90
_cell_angle_beta                 107.754(5)
_cell_angle_gamma                90
_cell_volume                     3293.72
loop_
_atom_site_label
_atom_site_type_symbol
_atom_site_fract_x
_atom_site_fract_y
_atom_site_fract_z
Zn1 Zn 0.99058(5) 0.976270(18) 0.49068(5)
Br1 Br 0.73397(5) 0.84710(2) 0.34037(7)
Br2 Br 1.15605(8) 0.74282(2) 0.54558(10)
O1 O 0.9589(3) 0.99050(9) 0.2806(3)
C1 C 0.9796(5) 1.08938(14) 0.5009(6)
N1 N 1.1190(3) 1.03024(13) 0.5846(4)
O2 O 0.9207(3) 0.91612(11) 0.4502(3)
N2 N 1.1552(4) 0.94852(14) 0.5982(4)
N3 N 1.1665(4) 1.09672(14) 0.6958(5)
H1 H 1.1412 1.1220 0.7043
O3 O 0.8531(3) 1.00366(10) 0.0506(3)
C2 C 0.9750(6) 0.88006(17) 0.4728(6)
N4 N 1.2529(3) 0.97303(15) 0.6833(4)
C3 C 1.0930(5) 1.06975(17) 0.5987(5)
C4 C 1.2293(5) 1.01380(19) 0.6765(6)
C5 C 1.0832(7) 0.7976(2) 0.5125(7)
C6 C 0.8567(5) 0.99136(14) 0.1767(6)
C7 C 1.1826(5) 0.90877(19) 0.6031(5)
H2 H 1.2638 0.9019 0.6518
F1 F 1.4847(3) 0.99374(11) 0.8351(4)
C8 C 1.2818(5) 1.08442(19) 0.7819(5)
C9 C 0.9502(5) 1.08650(15) 0.3500(6)
H3 H 1.0010 1.0711 0.3094
C10 C 1.3598(6) 1.11453(18) 0.8703(6)
H4 H 1.3335 1.1422 0.8763
C11 C 1.1530(6) 0.83303(17) 0.5594(6)
H5 H 1.2368 0.8299 0.6041
C12 C 1.3188(5) 1.04271(18) 0.7687(5)
C13 C 0.9051(5) 0.84115(19) 0.4262(5)
C14 C 0.9021(6) 1.1123(2) 0.5593(6)
H6 H 0.9199 1.1146 0.6604
C15 C 0.9575(7) 0.8018(2) 0.4477(6)
H7 H 0.9090 0.7777 0.4190
C16 C 0.7978(5) 1.13202(19) 0.4678(7)
H8 H 0.7450 1.1470 0.5069
C17 C 0.7744(5) 1.1289(2) 0.3192(7)
H9 H 0.7069 1.1429 0.2572
C18 C 1.1026(5) 0.87363(17) 0.5424(5)
C19 C 0.7430(5) 0.97812(19) 0.2054(5)
H10 H 0.6755 0.9807 0.1172
H11 H 0.7289 0.9959 0.2799
H12 H 0.7504 0.9491 0.2378
C20 C 0.8493(6) 1.10555(18) 0.2603(6)
H13 H 0.8306 1.1028 0.1592
C21 C 1.4754(6) 1.1022(2) 0.9474(6)
H14 H 1.5262 1.1216 1.0108
C22 C 1.4407(6) 1.0333(2) 0.8489(7)
C23 C 1.5206(6) 1.0617(2) 0.9352(7)
H15 H 1.6014 1.0544 0.9837
Zn1A Zn 0.99058(5) 1.023730(18) -0.00932(5)
O3A O 0.8531(3) 0.99634(10) 0.5506(3)
N5 N 1.4306(6) 1.1324(3) 1.4385(8)
O4 O 1.4655(6) 1.1650(2) 1.2466(8)
C24 C 1.4416(8) 1.0931(3) 1.5146(9)
H16 H 1.4806 1.0726 1.4694
H17 H 1.3616 1.0830 1.5109
H18 H 1.4899 1.0970 1.6149
C25 C 1.3647(10) 1.1640(3) 1.4815(13)
H19 H 1.3643 1.1892 1.4250
H20 H 1.4021 1.1701 1.5836
H21 H 1.2821 1.1545 1.4660
C26 C 1.4758(7) 1.1358(4) 1.3255(12)
H22 H 1.5198 1.1126 1.3077
O5 O 0.1422(5) 0.81525(17) 0.1620(7)
N6 N 0.0418(6) 0.7665(2) 0.0028(9)
C27 C -0.0247(13) 0.7318(4) -0.0269(19)
H23 H -0.0280 0.7190 0.0628
H24 H 0.0115 0.7122 -0.0785
H25 H -0.1061 0.7388 -0.0866
C28 C 0.0432(12) 0.7919(5) -0.1194(15)
H26 H 0.0993 0.8151 -0.0867
H27 H -0.0375 0.8028 -0.1660
H28 H 0.0688 0.7749 -0.1880
C29 C 0.0834(13) 0.7836(5) 0.1323(17)
H29 H 0.0653 0.7696 0.2088
C30? C 0.065(3) 0.8052(10) 0.034(4)
H30? H 0.0337 0.8258 -0.0416
C31? C 0.115(3) 0.7345(9) 0.102(3)
H31? H 0.1606 0.7468 0.1947
H32? H 0.0539 0.7157 0.1166
H33? H 0.1700 0.7189 0.0632
C32? C -0.038(2) 0.7476(9) -0.137(2)
H34? H -0.0764 0.7698 -0.2034
H35? H 0.0167 0.7320 -0.1764
H36? H -0.0994 0.7288 -0.1230
loop_
_geom_bond_atom_site_label_1
_geom_bond_atom_site_label_2
_geom_bond_site_symmetry_1
_geom_bond_site_symmetry_2
Zn1 O1 1_555 1_555
Br1 C13 1_555 1_555
Br2 C5 1_555 1_555
O1 C6 1_555 1_555
C1 C3 1_555 1_555
N1 Zn1 1_555 1_555
O2 Zn1 1_555 1_555
N2 Zn1 1_555 1_555
N3 H1 1_555 1_555
O3 C6 1_555 1_555
C2 O2 1_555 1_555
N4 N2 1_555 1_555
C3 N1 1_555 1_555
C4 N1 1_555 1_555
C5 C11 1_555 1_555
C6 C19 1_555 1_555
C7 N2 1_555 1_555
H2 C7 1_555 1_555
F1 C22 1_555 1_555
C8 N3 1_555 1_555
C9 C1 1_555 1_555
H3 C9 1_555 1_555
C10 C8 1_555 1_555
H4 C10 1_555 1_555
C11 H5 1_555 1_555
C12 C4 1_555 1_555
C13 C2 1_555 1_555
C14 C1 1_555 1_555
H6 C14 1_555 1_555
C15 C5 1_555 1_555
H7 C15 1_555 1_555
C16 C14 1_555 1_555
H8 C16 1_555 1_555
C17 C16 1_555 1_555
H9 C17 1_555 1_555
C18 C2 1_555 1_555
C19 H10 1_555 1_555
H11 C19 1_555 1_555
H12 C19 1_555 1_555
C20 C9 1_555 1_555
H13 C20 1_555 1_555
C21 C10 1_555 1_555
H14 C21 1_555 1_555
C22 C12 1_555 1_555
C23 C21 1_555 1_555
H15 C23 1_555 1_555
N5 C24 1_555 1_555
O4 C26 1_555 1_555
C24 H16 1_555 1_555
H17 C24 1_555 1_555
H18 C24 1_555 1_555
C25 N5 1_555 1_555
H19 C25 1_555 1_555
H20 C25 1_555 1_555
H21 C25 1_555 1_555
C26 N5 1_555 1_555
H22 C26 1_555 1_555
O5 C29 1_555 1_555
N6 C27 1_555 1_555
C27 H23 1_555 1_555
H24 C27 1_555 1_555
H25 C27 1_555 1_555
C28 N6 1_555 1_555
H26 C28 1_555 1_555
H27 C28 1_555 1_555
H28 C28 1_555 1_555
C29 N6 1_555 1_555
H29 C29 1_555 1_555
Zn1A O3 1_555 1_555
O3A Zn1 1_555 1_555
N3 C3 1_555 1_555
N4 C4 1_555 1_555
C7 C18 1_555 1_555
C8 C12 1_555 1_555
C11 C18 1_555 1_555
C13 C15 1_555 1_555
C17 C20 1_555 1_555
C22 C23 1_555 1_555

#END
