
#######################################################################
#
#                 Cambridge Crystallographic Data Centre
#                                CCDC 
#
#######################################################################
#
# If this CIF has been generated from an entry in the Cambridge 
# Structural Database, then it will include bibliographic, chemical, 
# crystal, experimental, refinement or atomic coordinate data resulting 
# from the CCDC's data processing and validation procedures.
#
#######################################################################

data_XEMDEA
_symmetry_cell_setting           orthorhombic
_symmetry_space_group_name_H-M   'P 21 21 21'
_symmetry_Int_Tables_number      19
_space_group_name_Hall           'P 2ac 2ab'
loop_
_symmetry_equiv_pos_site_id
_symmetry_equiv_pos_as_xyz
1 x,y,z
2 1/2-x,-y,1/2+z
3 -x,1/2+y,1/2-z
4 1/2+x,1/2-y,-z
_cell_length_a                   7.890(1)
_cell_length_b                   15.403(1)
_cell_length_c                   17.534(1)
_cell_angle_alpha                90
_cell_angle_beta                 90
_cell_angle_gamma                90
_cell_volume                     2130.9
loop_
_atom_site_label
_atom_site_type_symbol
_atom_site_fract_x
_atom_site_fract_y
_atom_site_fract_z
Pr1 Pr -0.39208(2) 0.257620(12) -0.364220(12)
O1 O -0.6438(4) 0.18851(18) -0.30674(17)
O2 O -0.4495(4) 0.36255(18) -0.25501(17)
Pr2 Pr -0.34955(2) 0.604720(11) -0.531370(11)
O3 O -0.2175(4) 0.49951(18) -0.62687(18)
O4 O -0.5047(4) 0.46183(18) -0.52777(18)
O5 O -0.2088(3) 0.12693(17) -0.36165(17)
O6 O -0.0299(4) 0.0358(2) -0.30396(18)
C1 C -0.1399(4) 0.0947(2) -0.3029(2)
C2 C -0.1947(4) 0.1268(2) -0.2249(2)
H1 H -0.0908 0.1385 -0.1939
O7 O -0.2879(3) 0.20657(17) -0.23250(17)
C3 C -0.2965(5) 0.0553(2) -0.1856(2)
H2 H -0.2248 0.0018 -0.1849
O8 O -0.4459(4) 0.0359(2) -0.22700(19)
C4 C -0.3335(5) 0.0803(2) -0.1024(2)
O9 O -0.4877(3) 0.09786(18) -0.08689(16)
O10 O -0.2100(4) 0.0814(2) -0.05771(18)
O11 O -0.3354(3) 0.40478(17) -0.40487(18)
O12 O -0.1733(3) 0.50845(17) -0.45708(17)
C5 C -0.1942(4) 0.4379(2) -0.4228(2)
C6 C -0.0349(4) 0.3868(2) -0.4021(2)
H3 H 0.0304 0.4204 -0.3631
O13 O -0.0825(3) 0.30611(16) -0.37008(17)
C7 C 0.0756(4) 0.3764(2) -0.4739(2)
H4 H 0.1273 0.4342 -0.4856
O14 O -0.0226(3) 0.35039(17) -0.53901(17)
C8 C 0.2196(4) 0.3120(2) -0.4606(2)
O15 O 0.2196(3) 0.24462(18) -0.50240(17)
O16 O 0.3302(3) 0.32915(18) -0.41126(18)
O17 O -0.4522(3) 0.75526(18) -0.50659(17)
O18 O -0.5790(3) 0.83129(18) -0.41425(18)
C9 C -0.4617(5) 0.7837(2) -0.4399(2)
C10 C -0.3172(4) 0.7595(2) -0.3852(2)
H5 H -0.3679 0.7365 -0.3370
O19 O -0.2143(3) 0.69360(17) -0.41794(17)
C11 C -0.2142(4) 0.8418(2) -0.3658(2)
H6 H -0.2884 0.8840 -0.3382
O20 O -0.1480(3) 0.88182(17) -0.43225(16)
C12 C -0.0653(5) 0.8163(2) -0.3147(2)
O21 O 0.0835(3) 0.82591(17) -0.34054(17)
O22 O -0.1008(4) 0.7859(2) -0.25028(17)
Pr1C Pr 0.10792(2) 0.242380(12) -0.635780(12)
Pr1_2 Pr 0.60792(2) 0.257620(12) -0.364220(12)
Pr2B Pr -0.65045(2) 0.104720(11) 0.031370(11)
Pr2C Pr -0.84955(2) 0.895280(11) -0.468630(11)
Pr2C_2 Pr 0.15045(2) 0.895280(11) -0.468630(11)
O9B O -0.5123(3) 0.59786(18) -0.41311(16)
O14C O -0.5226(3) 0.14961(17) -0.46099(17)
O15C O -0.2804(3) 0.25538(18) -0.49760(17)
O16_2 O -0.6698(3) 0.32915(18) -0.41126(18)
O18C O -0.0790(3) 0.66871(18) -0.58575(18)
O20C O -0.6480(3) 0.61818(17) -0.56775(16)
O21C O -0.4165(3) 0.67409(17) -0.65946(17)
O23 O -0.7739(4) 0.0707(2) -0.2030(2)
loop_
_geom_bond_atom_site_label_1
_geom_bond_atom_site_label_2
_geom_bond_site_symmetry_1
_geom_bond_site_symmetry_2
Pr1 O1 1_555 1_555
O2 Pr1 1_555 1_555
Pr2 O3 1_555 1_555
O4 Pr2 1_555 1_555
O5 Pr1 1_555 1_555
O6 C1 1_555 1_555
C1 O5 1_555 1_555
C2 C1 1_555 1_555
H1 C2 1_555 1_555
O7 Pr1 1_555 1_555
C3 C2 1_555 1_555
H2 C3 1_555 1_555
O8 C3 1_555 1_555
C4 C3 1_555 1_555
O9 C4 1_555 1_555
O10 C4 1_555 1_555
O11 Pr1 1_555 1_555
O12 Pr2 1_555 1_555
C5 O11 1_555 1_555
C6 C5 1_555 1_555
H3 C6 1_555 1_555
O13 Pr1 1_555 1_555
C7 C6 1_555 1_555
H4 C7 1_555 1_555
O14 C7 1_555 1_555
C8 C7 1_555 1_555
O15 C8 1_555 1_555
O16 C8 1_555 1_555
O17 Pr2 1_555 1_555
O18 C9 1_555 1_555
C9 O17 1_555 1_555
C10 C9 1_555 1_555
H5 C10 1_555 1_555
O19 Pr2 1_555 1_555
C11 C10 1_555 1_555
H6 C11 1_555 1_555
O20 C11 1_555 1_555
C12 C11 1_555 1_555
O21 C12 1_555 1_555
O22 C12 1_555 1_555
Pr1C O14 1_555 1_555
Pr1_2 O16 1_555 1_555
Pr2B O9 1_555 1_555
Pr2C O18 1_555 1_555
Pr2C_2 O20 1_555 1_555
O9B Pr2 1_555 1_555
O14C Pr1 1_555 1_555
O15C Pr1 1_555 1_555
O16_2 Pr1 1_555 1_555
O18C Pr2 1_555 1_555
O20C Pr2 1_555 1_555
O21C Pr2 1_555 1_555
C2 O7 1_555 1_555
O12 C5 1_555 1_555
C6 O13 1_555 1_555
O15 Pr1C 1_555 1_555
C10 O19 1_555 1_555
O21 Pr2C_2 1_555 1_555

#END
