
#######################################################################
#
#                 Cambridge Crystallographic Data Centre
#                                CCDC 
#
#######################################################################
#
# If this CIF has been generated from an entry in the Cambridge 
# Structural Database, then it will include bibliographic, chemical, 
# crystal, experimental, refinement or atomic coordinate data resulting 
# from the CCDC's data processing and validation procedures.
#
#######################################################################

data_XEMJIK
_symmetry_cell_setting           monoclinic
_symmetry_space_group_name_H-M   'C 2/c'
_symmetry_Int_Tables_number      15
_space_group_name_Hall           '-C 2yn'
loop_
_symmetry_equiv_pos_site_id
_symmetry_equiv_pos_as_xyz
1 x,y,z
2 -x,y,1/2-z
3 1/2+x,1/2+y,z
4 1/2-x,1/2+y,1/2-z
5 -x,-y,-z
6 x,-y,1/2+z
7 1/2-x,1/2-y,-z
8 1/2+x,1/2-y,1/2+z
_cell_length_a                   17.250(10)
_cell_length_b                   7.214(4)
_cell_length_c                   16.506(7)
_cell_angle_alpha                90
_cell_angle_beta                 125.53(4)
_cell_angle_gamma                90
_cell_volume                     1671.59
loop_
_atom_site_label
_atom_site_type_symbol
_atom_site_fract_x
_atom_site_fract_y
_atom_site_fract_z
Ni1 Ni 0.0000 0.54319(7) 0.2500
O1 O 0.07393(15) 0.7672(3) 0.23168(14)
O2 O -0.03814(14) 0.6010(3) 0.10882(14)
N1 N 0.10636(15) 0.3589(3) 0.29797(16)
N2 N 0.20097(16) 0.1267(4) 0.38434(18)
C1 C 0.01675(19) 0.7383(4) 0.1406(2)
C2 C 0.00923(18) 0.8722(4) 0.06768(19)
C3 C 0.0574(2) 1.0386(4) 0.1003(2)
H1 H 0.0962 1.0656 0.1680
C4 C -0.04777(19) 0.8351(4) -0.03227(19)
H2 H -0.0805 0.7232 -0.0546
C5 C 0.2330(2) -0.0482(5) 0.4385(3)
H3 H 0.1848 -0.0958 0.4449
H4 H 0.2908 -0.0282 0.5035
H5 H 0.2445 -0.1357 0.4028
C6 C 0.2477(2) 0.2357(5) 0.3611(3)
H6 H 0.3090 0.2167 0.3786
C7 C 0.1899(2) 0.3781(5) 0.3076(3)
H7 H 0.2046 0.4746 0.2814
C8 C 0.11670(19) 0.2056(4) 0.3454(2)
H8 H 0.0702 0.1570 0.3512
Ni1D Ni 0.0000 1.45681(7) -0.2500
O1D O -0.07393(15) 1.2328(3) -0.23168(14)
O1A O -0.07393(15) 0.7672(3) 0.26832(14)
O2D O 0.03814(14) 1.3990(3) -0.10882(14)
O2A O 0.03814(14) 0.6010(3) 0.39118(14)
N1A N -0.10636(15) 0.3589(3) 0.20203(16)
N2A N -0.20097(16) 0.1267(4) 0.11566(18)
C1D C -0.01675(19) 1.2617(4) -0.1406(2)
C2D C -0.00923(18) 1.1278(4) -0.06768(19)
C3D C -0.0574(2) 0.9614(4) -0.1003(2)
H1D H -0.0962 0.9344 -0.1680
C4D C 0.04777(19) 1.1649(4) 0.03227(19)
H2D H 0.0805 1.2768 0.0546
C5A C -0.2330(2) -0.0482(5) 0.0615(3)
H3A H -0.1848 -0.0958 0.0551
H4A H -0.2908 -0.0282 -0.0035
H5A H -0.2445 -0.1357 0.0972
C6A C -0.2477(2) 0.2357(5) 0.1389(3)
H6A H -0.3090 0.2167 0.1214
C7A C -0.1899(2) 0.3781(5) 0.1924(3)
H7A H -0.2046 0.4746 0.2186
C8A C -0.11670(19) 0.2056(4) 0.1546(2)
H8A H -0.0702 0.1570 0.1488
loop_
_geom_bond_atom_site_label_1
_geom_bond_atom_site_label_2
_geom_bond_site_symmetry_1
_geom_bond_site_symmetry_2
Ni1 O1 1_555 1_555
O1 C1 1_555 1_555
O2 Ni1 1_555 1_555
N1 Ni1 1_555 1_555
N2 C5 1_555 1_555
C1 O2 1_555 1_555
C2 C1 1_555 1_555
C3 C2 1_555 1_555
H1 C3 1_555 1_555
C4 C2 1_555 1_555
H2 C4 1_555 1_555
C5 H3 1_555 1_555
H4 C5 1_555 1_555
H5 C5 1_555 1_555
C6 N2 1_555 1_555
H6 C6 1_555 1_555
C7 N1 1_555 1_555
H7 C7 1_555 1_555
C8 N1 1_555 1_555
H8 C8 1_555 1_555
Ni1D O1D 1_555 1_555
O1D C1D 1_555 1_555
O1A Ni1 1_555 1_555
O2D Ni1D 1_555 1_555
O2A Ni1 1_555 1_555
N1A Ni1 1_555 1_555
N2A C5A 1_555 1_555
C1D O2D 1_555 1_555
C2D C1D 1_555 1_555
C3D C4 1_555 1_555
H1D C3D 1_555 1_555
C4D C3 1_555 1_555
H2D C4D 1_555 1_555
C5A H3A 1_555 1_555
H4A C5A 1_555 1_555
H5A C5A 1_555 1_555
C6A N2A 1_555 1_555
H6A C6A 1_555 1_555
C7A N1A 1_555 1_555
H7A C7A 1_555 1_555
C8A N1A 1_555 1_555
H8A C8A 1_555 1_555
N2 C8 1_555 1_555
C6 C7 1_555 1_555
N2A C8A 1_555 1_555
C2D C3D 1_555 1_555
C2D C4D 1_555 1_555
C6A C7A 1_555 1_555

#END
