
#######################################################################
#
#                 Cambridge Crystallographic Data Centre
#                                CCDC 
#
#######################################################################
#
# If this CIF has been generated from an entry in the Cambridge 
# Structural Database, then it will include bibliographic, chemical, 
# crystal, experimental, refinement or atomic coordinate data resulting 
# from the CCDC's data processing and validation procedures.
#
#######################################################################

data_XEMJOP
_symmetry_cell_setting           monoclinic
_symmetry_space_group_name_H-M   'C 2/c'
_symmetry_Int_Tables_number      15
_space_group_name_Hall           '-C 2yn'
loop_
_symmetry_equiv_pos_site_id
_symmetry_equiv_pos_as_xyz
1 x,y,z
2 1/2+x,1/2+y,z
3 -x,y,1/2-z
4 1/2-x,1/2+y,1/2-z
5 -x,-y,-z
6 1/2-x,1/2-y,-z
7 x,-y,1/2+z
8 1/2+x,1/2-y,1/2+z
_cell_length_a                   13.4585(4)
_cell_length_b                   13.4881(4)
_cell_length_c                   6.3617(2)
_cell_angle_alpha                90
_cell_angle_beta                 100.036(2)
_cell_angle_gamma                90
_cell_volume                     1137.17
loop_
_atom_site_label
_atom_site_type_symbol
_atom_site_fract_x
_atom_site_fract_y
_atom_site_fract_z
Cu1 Cu 0.24776(3) 0.32815(3) 0.17790(7)
Cl1 Cl 0.30465(6) 0.16106(5) 0.20035(11)
N1 N 0.1104(2) 0.32109(18) 0.2729(4)
O1 O 0.4031(2) 0.47258(19) 0.3574(4)
C1 C 0.3437(2) 0.4182(3) 0.2865(5)
C2 C 0.0496(2) 0.4107(2) 0.2088(5)
C3 C 0.0494(2) 0.2318(2) 0.2081(6)
H1 H 0.120(3) 0.322(2) 0.387(6)
H2 H 0.033(2) 0.413(2) 0.037(5)
H3 H 0.088(2) 0.463(2) 0.246(5)
H4 H 0.036(2) 0.234(2) 0.058(6)
H5 H 0.084(3) 0.180(2) 0.235(6)
Cu1E Cu 0.25224(3) 0.17185(3) -0.17790(7)
Cu1B Cu -0.24776(3) 0.32815(3) 0.32210(7)
Cl1E Cl 0.19535(6) 0.33894(5) -0.20035(11)
N1B N -0.1104(2) 0.32109(18) 0.2271(4)
N1E N 0.3896(2) 0.17891(18) -0.2729(4)
O1E O 0.0969(2) 0.02742(19) -0.3574(4)
C1E C 0.1563(2) 0.0818(3) -0.2865(5)
C2B C -0.0496(2) 0.4107(2) 0.2912(5)
C3B C -0.0494(2) 0.2318(2) 0.2919(6)
H1B H -0.120(3) 0.322(2) 0.113(6)
H1E H 0.380(3) 0.178(2) -0.387(6)
H2B H -0.033(2) 0.413(2) 0.463(5)
H3B H -0.088(2) 0.463(2) 0.254(5)
H4B H -0.036(2) 0.234(2) 0.442(6)
H5B H -0.084(3) 0.180(2) 0.265(6)
loop_
_geom_bond_atom_site_label_1
_geom_bond_atom_site_label_2
_geom_bond_site_symmetry_1
_geom_bond_site_symmetry_2
Cu1 Cl1 1_555 1_555
Cl1 Cu1E 1_555 1_555
N1 Cu1 1_555 1_555
O1 C1 1_555 1_555
C1 Cu1 1_555 1_555
C2 N1 1_555 1_555
C3 N1 1_555 1_555
H1 N1 1_555 1_555
H2 C2 1_555 1_555
H3 C2 1_555 1_555
H4 C3 1_555 1_555
H5 C3 1_555 1_555
Cu1E Cl1E 1_555 1_555
Cu1B N1B 1_555 1_555
Cl1E Cu1 1_555 1_555
N1B C2B 1_555 1_555
N1E Cu1E 1_555 1_555
O1E C1E 1_555 1_555
C1E Cu1E 1_555 1_555
C2B C2 1_555 1_555
C3B C3 1_555 1_555
H1B N1B 1_555 1_555
H1E N1E 1_555 1_555
H2B C2B 1_555 1_555
H3B C2B 1_555 1_555
H4B C3B 1_555 1_555
H5B C3B 1_555 1_555
N1B C3B 1_555 1_555

#END
