
#######################################################################
#
#                 Cambridge Crystallographic Data Centre
#                                CCDC 
#
#######################################################################
#
# If this CIF has been generated from an entry in the Cambridge 
# Structural Database, then it will include bibliographic, chemical, 
# crystal, experimental, refinement or atomic coordinate data resulting 
# from the CCDC's data processing and validation procedures.
#
#######################################################################

data_XEMJEG
_symmetry_cell_setting           monoclinic
_symmetry_space_group_name_H-M   'P 21/c'
_symmetry_Int_Tables_number      14
_space_group_name_Hall           '-P 2ybc'
loop_
_symmetry_equiv_pos_site_id
_symmetry_equiv_pos_as_xyz
1 x,y,z
2 -x,1/2+y,1/2-z
3 -x,-y,-z
4 x,1/2-y,1/2+z
_cell_length_a                   7.8108(10)
_cell_length_b                   18.1233(19)
_cell_length_c                   8.2006(10)
_cell_angle_alpha                90
_cell_angle_beta                 94.976(6)
_cell_angle_gamma                90
_cell_volume                     1156.48
loop_
_atom_site_label
_atom_site_type_symbol
_atom_site_fract_x
_atom_site_fract_y
_atom_site_fract_z
Cu1 Cu 0.02508(6) 0.45998(2) 0.18378(5)
S1 S 0.24602(12) 0.46808(5) 0.59735(11)
C1 C -0.2997(5) 0.6237(2) 0.9778(4)
H1 H -0.3489 0.5784 0.9990
C2 C -0.3804(6) 0.6877(2) 1.0232(5)
H2 H -0.4821 0.6850 1.0740
C3 C -0.3089(6) 0.7549(2) 0.9925(6)
H3 H -0.3624 0.7985 1.0201
C4 C -0.1551(6) 0.7566(2) 0.9193(5)
H4 H -0.1025 0.8013 0.8988
C5 C -0.0826(5) 0.6915(2) 0.8783(4)
C6 C 0.0803(5) 0.6855(2) 0.8010(5)
H5 H 0.1446 0.7272 0.7812
C7 C 0.2929(5) 0.6127(2) 0.6870(5)
H6 H 0.3340 0.6603 0.6531
H7 H 0.3789 0.5919 0.7664
C8 C 0.2675(5) 0.5625(2) 0.5411(4)
H8 H 0.1653 0.5776 0.4739
H9 H 0.3648 0.5674 0.4760
O1 O 0.4021(4) 0.44604(18) 0.6876(3)
O2 O 0.2065(4) 0.42843(17) 0.4461(3)
O3 O 0.0974(3) 0.46427(13) 0.6998(3)
N1 N -0.1545(4) 0.62503(16) 0.9050(3)
N2 N 0.1298(4) 0.62225(16) 0.7627(3)
N3 N 0.1715(4) 0.53379(16) 0.0896(4)
N4 N 0.1946(4) 0.59530(17) 0.1388(4)
N5 N 0.2201(5) 0.65554(19) 0.1781(4)
Cu1B Cu -0.02508(6) 0.54002(2) 0.81622(5)
Cu1B_2 Cu -0.02508(6) 0.54002(2) -0.18378(5)
O3B O -0.0974(3) 0.53573(13) 0.3002(3)
N1B N 0.1545(4) 0.37497(16) 0.0950(3)
N2B N -0.1298(4) 0.37775(16) 0.2373(3)
N3B N -0.1715(4) 0.46621(16) -0.0896(4)
loop_
_geom_bond_atom_site_label_1
_geom_bond_atom_site_label_2
_geom_bond_site_symmetry_1
_geom_bond_site_symmetry_2
Cu1 O2 1_555 1_555
S1 C8 1_555 1_555
C1 H1 1_555 1_555
C2 C1 1_555 1_555
H2 C2 1_555 1_555
C3 C2 1_555 1_555
H3 C3 1_555 1_555
C4 C3 1_555 1_555
H4 C4 1_555 1_555
C5 C4 1_555 1_555
C6 C5 1_555 1_555
H5 C6 1_555 1_555
C7 H6 1_555 1_555
H7 C7 1_555 1_555
C8 C7 1_555 1_555
H8 C8 1_555 1_555
H9 C8 1_555 1_555
O1 S1 1_555 1_555
O2 S1 1_555 1_555
O3 S1 1_555 1_555
N1 C1 1_555 1_555
N2 C6 1_555 1_555
N3 Cu1 1_555 1_555
N4 N3 1_555 1_555
N5 N4 1_555 1_555
Cu1B O3 1_555 1_555
Cu1B_2 N3 1_555 1_555
O3B Cu1 1_555 1_555
N1B Cu1 1_555 1_555
N2B Cu1 1_555 1_555
N3B Cu1 1_555 1_555
C5 N1 1_555 1_555
C7 N2 1_555 1_555
N1 Cu1B 1_555 1_555
N2 Cu1B 1_555 1_555
Cu1B_2 N3B 1_555 1_555

#END
