
#######################################################################
#
#                 Cambridge Crystallographic Data Centre
#                                CCDC 
#
#######################################################################
#
# If this CIF has been generated from an entry in the Cambridge 
# Structural Database, then it will include bibliographic, chemical, 
# crystal, experimental, refinement or atomic coordinate data resulting 
# from the CCDC's data processing and validation procedures.
#
#######################################################################

data_XEMKIK
_symmetry_cell_setting           monoclinic
_symmetry_space_group_name_H-M   'P 21/c'
_symmetry_Int_Tables_number      14
_space_group_name_Hall           '-P 2ybc'
loop_
_symmetry_equiv_pos_site_id
_symmetry_equiv_pos_as_xyz
1 x,y,z
2 -x,1/2+y,1/2-z
3 -x,-y,-z
4 x,1/2-y,1/2+z
_cell_length_a                   9.651(2)
_cell_length_b                   10.380(2)
_cell_length_c                   9.368(2)
_cell_angle_alpha                90
_cell_angle_beta                 112.905(5)
_cell_angle_gamma                90
_cell_volume                     864.465
loop_
_atom_site_label
_atom_site_type_symbol
_atom_site_fract_x
_atom_site_fract_y
_atom_site_fract_z
Cu1 Cu 1.0000 0.5000 0.5000
O1 O 1.00124(14) 0.44011(12) 0.30120(14)
O2 O 1.00323(16) 0.62845(13) 0.18448(16)
O3 O 0.88286(17) 0.71634(14) 0.40721(18)
H1 H 0.920(3) 0.764(3) 0.474(4)
H2 H 0.923(3) 0.725(3) 0.346(3)
N1 N 0.60385(15) 0.29615(13) 0.34610(16)
N2 N 0.56668(16) 0.38361(14) 0.43398(17)
N3 N 0.79620(15) 0.42324(13) 0.43885(16)
C1 C 0.68651(19) 0.45806(17) 0.4875(2)
H3 H 0.6952 0.5294 0.5539
C2 C 0.73972(18) 0.32084(16) 0.34953(19)
H4 H 0.7891 0.2730 0.2966
C3 C 0.50138(19) 0.18994(16) 0.27138(19)
H5 H 0.5332 0.1486 0.1938
H6 H 0.3984 0.2242 0.2165
C4 C 0.50026(18) 0.09068(15) 0.38916(19)
C5 C 0.3867(2) 0.09112(17) 0.4452(2)
H7 H 0.3083 0.1531 0.4081
C6 C 0.6131(2) -0.00124(15) 0.4444(3)
H8 H 0.6912 -0.0028 0.4065
C7 C 0.9991(3) 0.51021(17) 0.1910(2)
H9 H 0.9935 0.4658 0.1003
Cu1_2 Cu 0.0000 -0.5000 0.5000
O1B O 0.99876(14) 0.55989(12) 0.69880(14)
O2B O 0.99677(16) 0.37155(13) 0.81552(16)
O3B O 1.11714(17) 0.28366(14) 0.59279(18)
H1B H 1.080(3) 0.236(3) 0.526(4)
H2B H 1.077(3) 0.275(3) 0.654(3)
N1B N 0.39615(15) -0.29615(13) 0.65390(16)
N2B N 0.43332(16) -0.38361(14) 0.56602(17)
N3B N 0.20380(15) -0.42324(13) 0.56115(16)
N3B_2 N 1.20380(15) 0.57676(13) 0.56115(16)
C1B C 0.31349(19) -0.45806(17) 0.5125(2)
H3B H 0.3048 -0.5294 0.4461
C2B C 0.26028(18) -0.32084(16) 0.65047(19)
H4B H 0.2109 -0.2730 0.7034
C3B C 0.49862(19) -0.18994(16) 0.72862(19)
H5B H 0.4668 -0.1486 0.8062
H6B H 0.6016 -0.2242 0.7835
C4B C 0.49974(18) -0.09068(15) 0.61084(19)
C5B C 0.6133(2) -0.09112(17) 0.5548(2)
H7B H 0.6917 -0.1531 0.5919
C6B C 0.3869(2) 0.00124(15) 0.5556(3)
H8B H 0.3088 0.0028 0.5935
C7B C 1.0009(3) 0.48979(17) 0.8090(2)
H9B H 1.0065 0.5342 0.8997
loop_
_geom_bond_atom_site_label_1
_geom_bond_atom_site_label_2
_geom_bond_site_symmetry_1
_geom_bond_site_symmetry_2
Cu1 O1 1_555 1_555
O1 C7 1_555 1_555
O2 C7 1_555 1_555
O3 Cu1 1_555 1_555
H1 O3 1_555 1_555
H2 O3 1_555 1_555
N1 N2 1_555 1_555
N2 C1 1_555 1_555
N3 Cu1 1_555 1_555
C1 N3 1_555 1_555
H3 C1 1_555 1_555
C2 N1 1_555 1_555
H4 C2 1_555 1_555
C3 N1 1_555 1_555
H5 C3 1_555 1_555
H6 C3 1_555 1_555
C4 C3 1_555 1_555
C5 C4 1_555 1_555
H7 C5 1_555 1_555
C6 C4 1_555 1_555
H8 C6 1_555 1_555
C7 H9 1_555 1_555
Cu1_2 N3B 1_555 1_555
O1B Cu1 1_555 1_555
O2B C7B 1_555 1_555
O3B Cu1 1_555 1_555
H1B O3B 1_555 1_555
H2B O3B 1_555 1_555
N1B N2B 1_555 1_555
N2B C1B 1_555 1_555
N3B C1B 1_555 1_555
N3B_2 Cu1 1_555 1_555
C1B H3B 1_555 1_555
C2B N1B 1_555 1_555
H4B C2B 1_555 1_555
C3B N1B 1_555 1_555
H5B C3B 1_555 1_555
H6B C3B 1_555 1_555
C4B C3B 1_555 1_555
C5B C6 1_555 1_555
H7B C5B 1_555 1_555
C6B C5 1_555 1_555
H8B C6B 1_555 1_555
C7B O1B 1_555 1_555
H9B C7B 1_555 1_555
N3 C2 1_555 1_555
N3B C2B 1_555 1_555
C4B C5B 1_555 1_555
C4B C6B 1_555 1_555

#END
