
#######################################################################
#
#                 Cambridge Crystallographic Data Centre
#                                CCDC 
#
#######################################################################
#
# If this CIF has been generated from an entry in the Cambridge 
# Structural Database, then it will include bibliographic, chemical, 
# crystal, experimental, refinement or atomic coordinate data resulting 
# from the CCDC's data processing and validation procedures.
#
#######################################################################

data_XEMKEG
_symmetry_cell_setting           monoclinic
_symmetry_space_group_name_H-M   'P 21/n'
_symmetry_Int_Tables_number      14
_space_group_name_Hall           '-P 2yn'
loop_
_symmetry_equiv_pos_site_id
_symmetry_equiv_pos_as_xyz
1 x,y,z
2 1/2-x,1/2+y,1/2-z
3 -x,-y,-z
4 1/2+x,1/2-y,1/2+z
_cell_length_a                   5.5079(5)
_cell_length_b                   15.0973(13)
_cell_length_c                   9.9825(9)
_cell_angle_alpha                90
_cell_angle_beta                 90.2380(10)
_cell_angle_gamma                90
_cell_volume                     830.082
loop_
_atom_site_label
_atom_site_type_symbol
_atom_site_fract_x
_atom_site_fract_y
_atom_site_fract_z
Ni1 Ni 0.0000 0.0000 1.0000
O1 O 0.2380(2) 0.01535(8) 0.83667(12)
O2 O 0.0099(2) 0.09647(9) 0.69879(13)
O3 O 0.2843(2) -0.06451(8) 1.09880(12)
N1 N 0.0945(3) 0.12270(9) 1.07863(14)
N2 N 0.2748(3) 0.24789(12) 1.12552(19)
H1 H 0.3811 0.2896 1.1247
C1 C 0.2851(4) 0.17207(13) 1.0570(2)
H2 H 0.4123 0.1563 1.0008
C2 C 0.0664(5) 0.24690(15) 1.1963(3)
H3 H 0.0106 0.2907 1.2539
C3 C -0.0439(4) 0.17009(14) 1.1668(2)
H4 H -0.1923 0.1518 1.2012
C4 C 0.1866(3) 0.04724(11) 0.72201(17)
C5 C 0.3505(3) 0.02283(12) 0.60775(17)
C6 C 0.5249(3) -0.04333(13) 0.62081(18)
H5 H 0.5423 -0.0728 0.7021
C7 C 0.3278(3) 0.06572(12) 0.48524(18)
H6 H 0.2120 0.1100 0.4746
H7 H 0.416(2) -0.0369(13) 1.1146(18)
H8 H 0.206(3) -0.0806(15) 1.1680(11)
Ni1_2 Ni 1.0000 0.0000 0.0000
O1B O 0.7620(2) -0.01535(8) 0.16333(12)
O1B_2 O -0.2380(2) -0.01535(8) 1.16333(12)
O2B O 0.9901(2) -0.09647(9) 0.30121(13)
O3B O -0.2843(2) 0.06451(8) 0.90120(12)
N1B N -0.0945(3) -0.12270(9) 0.92137(14)
N2B N -0.2748(3) -0.24789(12) 0.87448(19)
H1B H -0.3811 -0.2896 0.8753
C1B C -0.2851(4) -0.17207(13) 0.9430(2)
H2B H -0.4123 -0.1563 0.9992
C2B C -0.0664(5) -0.24690(15) 0.8037(3)
H3B H -0.0106 -0.2907 0.7461
C3B C 0.0439(4) -0.17009(14) 0.8332(2)
H4B H 0.1923 -0.1518 0.7988
C4B C 0.8134(3) -0.04724(11) 0.27799(17)
C5B C 0.6495(3) -0.02283(12) 0.39225(17)
C6B C 0.4751(3) 0.04333(13) 0.37919(18)
H5B H 0.4577 0.0728 0.2979
C7B C 0.6722(3) -0.06572(12) 0.51476(18)
H6B H 0.7880 -0.1100 0.5254
H7B H -0.416(2) 0.0369(13) 0.8854(18)
H8B H -0.206(3) 0.0806(15) 0.8320(11)
loop_
_geom_bond_atom_site_label_1
_geom_bond_atom_site_label_2
_geom_bond_site_symmetry_1
_geom_bond_site_symmetry_2
Ni1 O1 1_555 1_555
O1 C4 1_555 1_555
O2 C4 1_555 1_555
O3 Ni1 1_555 1_555
N1 Ni1 1_555 1_555
N2 H1 1_555 1_555
C1 N1 1_555 1_555
H2 C1 1_555 1_555
C2 N2 1_555 1_555
H3 C2 1_555 1_555
C3 N1 1_555 1_555
H4 C3 1_555 1_555
C4 C5 1_555 1_555
C5 C6 1_555 1_555
C6 H5 1_555 1_555
C7 C5 1_555 1_555
H6 C7 1_555 1_555
H7 O3 1_555 1_555
H8 O3 1_555 1_555
Ni1_2 O1B 1_555 1_555
O1B C4B 1_555 1_555
O1B_2 Ni1 1_555 1_555
O2B C4B 1_555 1_555
O3B Ni1 1_555 1_555
N1B Ni1 1_555 1_555
N2B H1B 1_555 1_555
C1B N1B 1_555 1_555
H2B C1B 1_555 1_555
C2B N2B 1_555 1_555
H3B C2B 1_555 1_555
C3B N1B 1_555 1_555
H4B C3B 1_555 1_555
C4B C5B 1_555 1_555
C5B C6B 1_555 1_555
C6B C7 1_555 1_555
H5B C6B 1_555 1_555
C7B C6 1_555 1_555
H6B C7B 1_555 1_555
H7B O3B 1_555 1_555
H8B O3B 1_555 1_555
N2 C1 1_555 1_555
C2 C3 1_555 1_555
N2B C1B 1_555 1_555
C2B C3B 1_555 1_555
C5B C7B 1_555 1_555

#END
