
#######################################################################
#
#                 Cambridge Crystallographic Data Centre
#                                CCDC 
#
#######################################################################
#
# If this CIF has been generated from an entry in the Cambridge 
# Structural Database, then it will include bibliographic, chemical, 
# crystal, experimental, refinement or atomic coordinate data resulting 
# from the CCDC's data processing and validation procedures.
#
#######################################################################

data_XEMLEI
_symmetry_cell_setting           triclinic
_symmetry_space_group_name_H-M   'P -1'
_symmetry_Int_Tables_number      2
_space_group_name_Hall           '-P 1'
loop_
_symmetry_equiv_pos_site_id
_symmetry_equiv_pos_as_xyz
1 x,y,z
2 -x,-y,-z
_cell_length_a                   8.0128(14)
_cell_length_b                   8.3557(15)
_cell_length_c                   9.6402(17)
_cell_angle_alpha                98.184(2)
_cell_angle_beta                 100.418(2)
_cell_angle_gamma                102.385(2)
_cell_volume                     608.901
loop_
_atom_site_label
_atom_site_type_symbol
_atom_site_fract_x
_atom_site_fract_y
_atom_site_fract_z
Nd1 Nd 0.72833(3) 0.21102(2) 0.12305(2)
O1 O 0.4562(4) -0.0236(3) 0.1207(3)
O2 O 0.3348(4) -0.2655(4) 0.1716(3)
O3 O 0.9833(4) 0.2939(4) 0.3368(3)
O4 O 1.0820(4) 0.3392(4) 0.5756(3)
O5 O 0.9956(4) 0.2094(3) 0.0067(3)
O6 O 1.1697(4) 0.0665(4) -0.0859(3)
O7 O 0.4589(4) 0.3312(4) 0.0417(4)
H1 H 0.3864 0.3862 0.0631
H2 H 0.3655 0.2657 -0.0105
O8 O 0.6457(4) 0.3875(4) 0.3344(3)
H3 H 0.5493 0.4155 0.3310
H4 H 0.7273 0.4746 0.3719
O9 O 0.8775(4) 0.5213(4) 0.1348(3)
H5 H 0.9193 0.5899 0.2139
H6 H 0.9156 0.5735 0.0729
N1 N 0.7125(4) 0.0528(4) 0.3466(3)
C1 C 0.5860(5) -0.0832(5) 0.3416(4)
C2 C 0.5790(5) -0.1672(5) 0.4564(4)
H9 H 0.4930 -0.2646 0.4485
C3 C 0.7044(6) -0.1006(5) 0.5831(4)
H10 H 0.7017 -0.1516 0.6626
C4 C 0.8334(5) 0.0420(5) 0.5901(4)
H11 H 0.9173 0.0888 0.6744
C5 C 0.8354(5) 0.1142(5) 0.4687(4)
C6 C 0.4481(5) -0.1312(5) 0.2035(4)
C7 C 0.9783(5) 0.2625(5) 0.4619(4)
C8 C 1.0476(5) 0.0800(5) -0.0230(4)
Nd1A Nd 0.27167(3) -0.21102(2) -0.12305(2)
Nd1A_2 Nd 1.27167(3) -0.21102(2) -0.12305(2)
O1A O 0.5438(4) 0.0236(3) -0.1207(3)
O2A O 0.6652(4) 0.2655(4) -0.1716(3)
O3A O 0.0167(4) -0.2939(4) -0.3368(3)
O4A O -0.0820(4) -0.3392(4) -0.5756(3)
O5A O 1.0044(4) -0.2094(3) -0.0067(3)
O5A_2 O 0.0044(4) -0.2094(3) -0.0067(3)
O6A O 0.8303(4) -0.0665(4) 0.0859(3)
O6_2 O 0.1697(4) 0.0665(4) -0.0859(3)
O7A O 0.5411(4) -0.3312(4) -0.0417(4)
H1A H 0.6136 -0.3862 -0.0631
H2A H 0.6345 -0.2657 0.0105
O8A O 0.3543(4) -0.3875(4) -0.3344(3)
H3A H 0.4507 -0.4155 -0.3310
H4A H 0.2727 -0.4746 -0.3719
O9A O 0.1225(4) -0.5213(4) -0.1348(3)
H5A H 0.0807 -0.5899 -0.2139
H6A H 0.0844 -0.5735 -0.0729
N1A N 0.2875(4) -0.0528(4) -0.3466(3)
C1A C 0.4140(5) 0.0832(5) -0.3416(4)
C2A C 0.4210(5) 0.1672(5) -0.4564(4)
H9A H 0.5070 0.2646 -0.4485
C3A C 0.2956(6) 0.1006(5) -0.5831(4)
H10A H 0.2983 0.1516 -0.6626
C4A C 0.1666(5) -0.0420(5) -0.5901(4)
H11A H 0.0827 -0.0888 -0.6744
C5A C 0.1646(5) -0.1142(5) -0.4687(4)
C6A C 0.5519(5) 0.1312(5) -0.2035(4)
C7A C 0.0217(5) -0.2625(5) -0.4619(4)
C8A C 0.9524(5) -0.0800(5) 0.0230(4)
O10 O 0.3124(4) 0.4533(4) 0.2922(4)
H7 H 0.3028 0.5424 0.2621
H8 H 0.2141 0.4277 0.3156
loop_
_geom_bond_atom_site_label_1
_geom_bond_atom_site_label_2
_geom_bond_site_symmetry_1
_geom_bond_site_symmetry_2
Nd1 O1 1_555 1_555
O1 C6 1_555 1_555
O2 C6 1_555 1_555
O3 Nd1 1_555 1_555
O4 C7 1_555 1_555
O5 Nd1 1_555 1_555
O6 C8 1_555 1_555
O7 Nd1 1_555 1_555
H1 O7 1_555 1_555
H2 O7 1_555 1_555
O8 Nd1 1_555 1_555
H3 O8 1_555 1_555
H4 O8 1_555 1_555
O9 Nd1 1_555 1_555
H5 O9 1_555 1_555
H6 O9 1_555 1_555
O10 H7 1_555 1_555
H8 O10 1_555 1_555
N1 Nd1 1_555 1_555
C1 N1 1_555 1_555
C2 C1 1_555 1_555
H9 C2 1_555 1_555
C3 C2 1_555 1_555
H10 C3 1_555 1_555
C4 C3 1_555 1_555
H11 C4 1_555 1_555
C5 N1 1_555 1_555
C6 C1 1_555 1_555
C7 O3 1_555 1_555
C8 O5 1_555 1_555
Nd1A O1 1_555 1_555
Nd1A_2 O6 1_555 1_555
O1A Nd1 1_555 1_555
O2A Nd1 1_555 1_555
O3A Nd1A 1_555 1_555
O4A C7A 1_555 1_555
O5A Nd1A_2 1_555 1_555
O5A_2 Nd1A 1_555 1_555
O6A Nd1 1_555 1_555
O6_2 Nd1A 1_555 1_555
O7A Nd1A 1_555 1_555
H1A O7A 1_555 1_555
H2A O7A 1_555 1_555
O8A Nd1A 1_555 1_555
H3A O8A 1_555 1_555
H4A O8A 1_555 1_555
O9A Nd1A 1_555 1_555
H5A O9A 1_555 1_555
H6A O9A 1_555 1_555
N1A Nd1A 1_555 1_555
C1A N1A 1_555 1_555
C2A C1A 1_555 1_555
H9A C2A 1_555 1_555
C3A C2A 1_555 1_555
H10A C3A 1_555 1_555
C4A C3A 1_555 1_555
H11A C4A 1_555 1_555
C5A N1A 1_555 1_555
C6A O1A 1_555 1_555
C7A O3A 1_555 1_555
C8A C8 1_555 1_555
O2 Nd1A 1_555 1_555
C4 C5 1_555 1_555
C5 C7 1_555 1_555
Nd1A O1A 1_555 1_555
O2A C6A 1_555 1_555
O5A C8A 1_555 1_555
O6A C8A 1_555 1_555
C1A C6A 1_555 1_555
C4A C5A 1_555 1_555
C5A C7A 1_555 1_555

#END
