
#######################################################################
#
#                 Cambridge Crystallographic Data Centre
#                                CCDC 
#
#######################################################################
#
# If this CIF has been generated from an entry in the Cambridge 
# Structural Database, then it will include bibliographic, chemical, 
# crystal, experimental, refinement or atomic coordinate data resulting 
# from the CCDC's data processing and validation procedures.
#
#######################################################################

data_XEMMAE
_symmetry_cell_setting           triclinic
_symmetry_space_group_name_H-M   'P -1'
_symmetry_Int_Tables_number      2
_space_group_name_Hall           '-P 1'
loop_
_symmetry_equiv_pos_site_id
_symmetry_equiv_pos_as_xyz
1 x,y,z
2 -x,-y,-z
_cell_length_a                   7.80360(10)
_cell_length_b                   12.7458(4)
_cell_length_c                   14.0208(3)
_cell_angle_alpha                81.610(8)
_cell_angle_beta                 79.406(8)
_cell_angle_gamma                77.567(7)
_cell_volume                     1330.4
loop_
_atom_site_label
_atom_site_type_symbol
_atom_site_fract_x
_atom_site_fract_y
_atom_site_fract_z
Eu1 Eu 0.221735(17) 0.523194(11) 0.535554(10)
Cl1 Cl 0.1798(2) 1.15316(15) 0.10349(14)
Cl2 Cl 0.99858(18) 0.31785(13) -0.12709(9)
Cl3 Cl 0.4838(2) -0.17235(10) 0.67051(16)
O1 O -0.1485(4) 0.8975(2) 0.4436(2)
O2 O 0.1110(3) 0.72055(18) 0.48510(18)
O3 O -0.0368(3) 0.60770(17) 0.44891(15)
O4 O 0.4511(3) 0.4302(2) 0.20799(16)
O5 O 0.2818(3) 0.44529(19) 0.38313(15)
O6 O 0.0254(3) 0.42307(19) 0.34143(16)
O7 O 0.5166(3) 0.2429(2) 0.79075(17)
O8 O 0.2955(3) 0.3891(2) 0.67785(17)
O9 O 0.5218(3) 0.41432(17) 0.56627(15)
O10 O 0.3357(3) 0.62572(19) 0.63423(17)
C1 C 0.0846(7) 1.0742(5) 0.2045(4)
C2 C 0.0696(7) 0.9708(5) 0.1939(4)
H1 H 0.1093 0.9435 0.1340
C3 C -0.0058(6) 0.9073(4) 0.2739(4)
H2 H -0.0153 0.8371 0.2680
C4 C -0.0656(5) 0.9499(3) 0.3612(3)
C5 C -0.0473(5) 1.0539(3) 0.3706(4)
H3 H -0.0861 1.0820 0.4302
C6 C 0.0287(6) 1.1152(4) 0.2914(4)
H4 H 0.0415 1.1847 0.2975
C7 C -0.1788(5) 0.7927(3) 0.4393(4)
H5 H -0.2812 0.7805 0.4873
H6 H -0.2067 0.7893 0.3754
C8 C -0.0221(4) 0.7033(3) 0.4580(2)
C9 C 0.8308(5) 0.3473(3) -0.0278(3)
C10 C 0.8660(5) 0.3981(4) 0.0444(3)
H7 H 0.9782 0.4136 0.0411
C11 C 0.7360(5) 0.4258(3) 0.1211(3)
H8 H 0.7589 0.4614 0.1694
C12 C 0.5705(4) 0.4007(3) 0.1270(2)
C13 C 0.5351(5) 0.3489(3) 0.0546(2)
H9 H 0.4235 0.3325 0.0581
C14 C 0.6684(6) 0.3218(4) -0.0232(3)
H10 H 0.6469 0.2863 -0.0720
C15 C 0.2775(4) 0.4075(3) 0.2215(2)
H11 H 0.2840 0.3328 0.2121
H12 H 0.2101 0.4535 0.1742
C16 C 0.1869(4) 0.4281(2) 0.3242(2)
C17 C 0.4899(6) -0.0459(3) 0.7036(5)
C18 C 0.4194(6) -0.0229(4) 0.7969(5)
H13 H 0.3662 -0.0727 0.8412
C19 C 0.4286(6) 0.0753(3) 0.8238(3)
H14 H 0.3823 0.0921 0.8870
C20 C 0.5075(5) 0.1491(3) 0.7561(3)
C21 C 0.5746(5) 0.1243(3) 0.6624(3)
H15 H 0.6256 0.1740 0.6168
C22 C 0.5659(5) 0.0255(3) 0.6362(4)
H16 H 0.6115 0.0080 0.5732
C23 C 0.5850(5) 0.3218(3) 0.7213(2)
H17 H 0.6954 0.2878 0.6842
H18 H 0.6113 0.3761 0.7552
C24 C 0.4579(4) 0.3763(2) 0.6517(2)
H19 H 0.4408 0.6060 0.6544
H20 H 0.2770 0.6809 0.6608
Eu1A Eu -0.221735(17) 0.476806(11) 0.464446(10)
Eu1A_2 Eu 0.778265(17) 0.476806(11) 0.464446(10)
O3A O 0.0368(3) 0.39230(17) 0.55109(15)
O6A O -0.0254(3) 0.57693(19) 0.65857(16)
O9A O 0.4782(3) 0.58568(17) 0.43373(15)
loop_
_geom_bond_atom_site_label_1
_geom_bond_atom_site_label_2
_geom_bond_site_symmetry_1
_geom_bond_site_symmetry_2
Eu1 O2 1_555 1_555
Cl1 C1 1_555 1_555
Cl2 C9 1_555 1_555
Cl3 C17 1_555 1_555
O1 C4 1_555 1_555
O2 C8 1_555 1_555
O3 Eu1 1_555 1_555
O4 C12 1_555 1_555
O5 Eu1 1_555 1_555
O6 C16 1_555 1_555
O7 C20 1_555 1_555
O8 Eu1 1_555 1_555
O9 Eu1 1_555 1_555
O10 Eu1 1_555 1_555
C1 C2 1_555 1_555
C2 H1 1_555 1_555
C3 C2 1_555 1_555
H2 C3 1_555 1_555
C4 C3 1_555 1_555
C5 C4 1_555 1_555
H3 C5 1_555 1_555
C6 C1 1_555 1_555
H4 C6 1_555 1_555
C7 O1 1_555 1_555
H5 C7 1_555 1_555
H6 C7 1_555 1_555
C8 O3 1_555 1_555
C9 C10 1_555 1_555
C10 H7 1_555 1_555
C11 C10 1_555 1_555
H8 C11 1_555 1_555
C12 C11 1_555 1_555
C13 C12 1_555 1_555
H9 C13 1_555 1_555
C14 C9 1_555 1_555
H10 C14 1_555 1_555
C15 O4 1_555 1_555
H11 C15 1_555 1_555
H12 C15 1_555 1_555
C16 O5 1_555 1_555
C17 C18 1_555 1_555
C18 H13 1_555 1_555
C19 C18 1_555 1_555
H14 C19 1_555 1_555
C20 C19 1_555 1_555
C21 C20 1_555 1_555
H15 C21 1_555 1_555
C22 C17 1_555 1_555
H16 C22 1_555 1_555
C23 O7 1_555 1_555
H17 C23 1_555 1_555
H18 C23 1_555 1_555
C24 O8 1_555 1_555
H19 O10 1_555 1_555
H20 O10 1_555 1_555
Eu1A O3 1_555 1_555
Eu1A_2 O9 1_555 1_555
O3A Eu1 1_555 1_555
O6A Eu1 1_555 1_555
O9A Eu1 1_555 1_555
O6 Eu1A 1_555 1_555
O9 C24 1_555 1_555
C5 C6 1_555 1_555
C7 C8 1_555 1_555
C13 C14 1_555 1_555
C15 C16 1_555 1_555
C21 C22 1_555 1_555
C23 C24 1_555 1_555
Eu1A O3A 1_555 1_555
Eu1A_2 O9A 1_555 1_555

#END
