
#######################################################################
#
#                 Cambridge Crystallographic Data Centre
#                                CCDC 
#
#######################################################################
#
# If this CIF has been generated from an entry in the Cambridge 
# Structural Database, then it will include bibliographic, chemical, 
# crystal, experimental, refinement or atomic coordinate data resulting 
# from the CCDC's data processing and validation procedures.
#
#######################################################################

data_XEMNOS
_symmetry_cell_setting           orthorhombic
_symmetry_space_group_name_H-M   'P c a 21'
_symmetry_Int_Tables_number      29
_space_group_name_Hall           'P 2c -2ac'
loop_
_symmetry_equiv_pos_site_id
_symmetry_equiv_pos_as_xyz
1 x,y,z
2 -x,-y,1/2+z
3 1/2+x,-y,z
4 1/2-x,y,1/2+z
_cell_length_a                   13.2390(15)
_cell_length_b                   7.8355(10)
_cell_length_c                   14.209(2)
_cell_angle_alpha                90
_cell_angle_beta                 90
_cell_angle_gamma                90
_cell_volume                     1473.96
loop_
_atom_site_label
_atom_site_type_symbol
_atom_site_fract_x
_atom_site_fract_y
_atom_site_fract_z
La1 La 0.24650(5) -0.37121(9) -0.24974(13)
C1 C 0.4964(10) 0.0390(18) -0.2625(13)
C2 C 0.3916(10) 0.0254(18) -0.2442(12)
O1 O 0.3281(7) -0.0870(14) -0.2333(7)
C3 C 0.3823(9) 0.2231(17) -0.2432(11)
O2 O 0.3150(7) 0.3208(14) -0.2292(7)
C4 C 0.4945(10) 0.2220(19) -0.2634(12)
O3 O 0.5561(7) 0.3406(14) -0.2799(7)
C5 C 0.5759(10) -0.0919(21) -0.2749(12)
H1 H 0.5789(10) -0.1263(21) -0.3412(12)
H2 H 0.5601(10) -0.1915(21) -0.2359(12)
H3 H 0.6413(10) -0.0447(21) -0.2559(12)
O4 O 0.4103(7) -0.4138(14) -0.3392(8)
O5 O 0.3792(8) -0.3790(13) -0.1225(8)
O6 O 0.1934(8) -0.5725(13) -0.3818(8)
O7 O 0.2229(8) -0.1880(16) -0.3977(8)
O8 O 0.1709(8) -0.1758(16) -0.1215(8)
O9 O 0.1483(8) -0.5512(15) -0.1291(8)
O2_2 O 0.3150(7) -0.6792(14) -0.2292(7)
O3B O 0.0561(7) -0.3406(14) -0.2799(7)
La1B La 0.74650(5) 0.37121(9) -0.24974(13)
La1_2 La 0.24650(5) 0.62879(9) -0.24974(13)
O10 O 0.0550(7) -0.1093(13) -0.5106(9)
Cl1 Cl 0.5212(3) -0.3089(5) -0.5228(2)
Cl2 Cl 0.3206(3) -0.8575(5) -0.4833(3)
loop_
_geom_bond_atom_site_label_1
_geom_bond_atom_site_label_2
_geom_bond_site_symmetry_1
_geom_bond_site_symmetry_2
La1 O1 1_555 1_555
C1 C2 1_555 1_555
C2 O1 1_555 1_555
C3 C2 1_555 1_555
O2 C3 1_555 1_555
C4 C1 1_555 1_555
O3 C4 1_555 1_555
C5 C1 1_555 1_555
H1 C5 1_555 1_555
H2 C5 1_555 1_555
H3 C5 1_555 1_555
O4 La1 1_555 1_555
O5 La1 1_555 1_555
O6 La1 1_555 1_555
O7 La1 1_555 1_555
O8 La1 1_555 1_555
O9 La1 1_555 1_555
O2_2 La1 1_555 1_555
O3B La1 1_555 1_555
La1B O3 1_555 1_555
La1_2 O2 1_555 1_555
C3 C4 1_555 1_555

#END
