
#######################################################################
#
#                 Cambridge Crystallographic Data Centre
#                                CCDC 
#
#######################################################################
#
# If this CIF has been generated from an entry in the Cambridge 
# Structural Database, then it will include bibliographic, chemical, 
# crystal, experimental, refinement or atomic coordinate data resulting 
# from the CCDC's data processing and validation procedures.
#
#######################################################################

data_XEMPEK
_symmetry_cell_setting           monoclinic
_symmetry_space_group_name_H-M   'P 21/c'
_symmetry_Int_Tables_number      14
_space_group_name_Hall           '-P 2ybc'
loop_
_symmetry_equiv_pos_site_id
_symmetry_equiv_pos_as_xyz
1 x,y,z
2 x,1/2-y,1/2+z
3 -x,-y,-z
4 -x,1/2+y,1/2-z
_cell_length_a                   14.543(2)
_cell_length_b                   8.3964(11)
_cell_length_c                   15.251(2)
_cell_angle_alpha                90
_cell_angle_beta                 109.372(8)
_cell_angle_gamma                90
_cell_volume                     1756.85
loop_
_atom_site_label
_atom_site_type_symbol
_atom_site_fract_x
_atom_site_fract_y
_atom_site_fract_z
Gd1 Gd -0.29226(2) 0.25235(5) -0.07450(2)
C1 C -0.3924(5) 0.5166(8) 0.1464(5)
C2 C -0.3914(5) 0.4031(9) 0.0787(5)
O1 O -0.3823(4) 0.4052(7) 0.0014(4)
C3 C -0.4011(5) 0.2702(9) 0.1422(5)
O2 O -0.4115(5) 0.1257(6) 0.1378(4)
C4 C -0.3951(5) 0.3987(9) 0.2133(5)
O3 O -0.3910(4) 0.3984(6) 0.2963(3)
C5 C -0.3888(7) 0.6900(10) 0.1488(7)
H1 H -0.3265(7) 0.7245(10) 0.1900(7)
H2 H -0.4393(7) 0.7296(10) 0.1707(7)
H3 H -0.3986(7) 0.7303(10) 0.0875(7)
C6 C -0.1269(5) 0.7526(10) -0.0258(6)
C7 C -0.1973(6) 0.6311(9) -0.0408(6)
O4 O -0.1941(4) 0.4821(6) -0.0330(4)
C8 C -0.2777(5) 0.7510(10) -0.0710(5)
O5 O -0.3660(3) 0.7510(7) -0.1001(4)
C9 C -0.1982(6) 0.8744(9) -0.0526(6)
O6 O -0.1962(4) 1.0217(6) -0.0592(4)
C10 C -0.0191(6) 0.7524(13) 0.0060(9)
H4 H 0.0029(6) 0.7417(13) -0.0465(9)
H5 H 0.0048(6) 0.6645(13) 0.0477(9)
H6 H 0.0051(6) 0.8503(13) 0.0378(9)
O7 O -0.2092(4) 0.2758(7) -0.1847(4)
H7 H -0.1724(75) 0.1906(92) -0.1868(95)
H8 H -0.1837(74) 0.3716(60) -0.1900(79)
O8 O -0.3895(5) 0.0595(6) -0.0291(4)
H9 H -0.4115(79) 0.090(16) 0.0170(57)
H10 H -0.3757(79) -0.0422(44) -0.0387(83)
O9 O -0.3908(4) 0.4462(6) -0.1790(4)
H11 H -0.4143(93) 0.5450(66) -0.178(10)
H12 H -0.3898(73) 0.456(13) -0.2374(25)
O10 O -0.1994(4) 0.2296(7) 0.0872(4)
H13 H -0.1676(67) 0.1402(71) 0.1127(70)
H14 H -0.1725(92) 0.307(12) 0.1287(74)
O3A O -0.3910(4) 0.1016(6) -0.2037(3)
O6_2 O -0.1962(4) 0.0217(6) -0.0592(4)
Gd1A Gd -0.29226(2) 0.24765(5) 0.42550(2)
Gd1_2 Gd -0.29226(2) 1.25235(5) -0.07450(2)
N1 N -0.1306(7) -0.1161(11) 0.2241(7)
O11 O -0.0901(8) -0.0062(13) 0.2009(11)
O12 O -0.1966(9) -0.0800(15) 0.2470(10)
O13 O -0.0930(14) -0.2358(13) 0.2321(16)
O14 O -0.1158(5) -0.5618(8) 0.2355(6)
H15 H -0.1033(72) -0.4587(47) 0.251(10)
H16 H -0.0551(31) -0.596(11) 0.2426(84)
loop_
_geom_bond_atom_site_label_1
_geom_bond_atom_site_label_2
_geom_bond_site_symmetry_1
_geom_bond_site_symmetry_2
Gd1 O1 1_555 1_555
C1 C2 1_555 1_555
C2 O1 1_555 1_555
C3 C2 1_555 1_555
O2 C3 1_555 1_555
C4 C1 1_555 1_555
O3 C4 1_555 1_555
C5 C1 1_555 1_555
H1 C5 1_555 1_555
H2 C5 1_555 1_555
H3 C5 1_555 1_555
C6 C7 1_555 1_555
C7 O4 1_555 1_555
O4 Gd1 1_555 1_555
C8 C7 1_555 1_555
O5 C8 1_555 1_555
C9 C6 1_555 1_555
O6 C9 1_555 1_555
C10 C6 1_555 1_555
H4 C10 1_555 1_555
H5 C10 1_555 1_555
H6 C10 1_555 1_555
O7 Gd1 1_555 1_555
H7 O7 1_555 1_555
H8 O7 1_555 1_555
O8 Gd1 1_555 1_555
H9 O8 1_555 1_555
H10 O8 1_555 1_555
O9 Gd1 1_555 1_555
H11 O9 1_555 1_555
H12 O9 1_555 1_555
O10 Gd1 1_555 1_555
H13 O10 1_555 1_555
H14 O10 1_555 1_555
N1 O11 1_555 1_555
O12 N1 1_555 1_555
O13 N1 1_555 1_555
O14 H15 1_555 1_555
H16 O14 1_555 1_555
O3A Gd1 1_555 1_555
O6_2 Gd1 1_555 1_555
Gd1A O3 1_555 1_555
Gd1_2 O6 1_555 1_555
C3 C4 1_555 1_555
C8 C9 1_555 1_555

#END
