
#######################################################################
#
#                 Cambridge Crystallographic Data Centre
#                                CCDC 
#
#######################################################################
#
# If this CIF has been generated from an entry in the Cambridge 
# Structural Database, then it will include bibliographic, chemical, 
# crystal, experimental, refinement or atomic coordinate data resulting 
# from the CCDC's data processing and validation procedures.
#
#######################################################################

data_XEMPIO
_symmetry_cell_setting           monoclinic
_symmetry_space_group_name_H-M   'P 21/c'
_symmetry_Int_Tables_number      14
_space_group_name_Hall           '-P 2ybc'
loop_
_symmetry_equiv_pos_site_id
_symmetry_equiv_pos_as_xyz
1 x,y,z
2 x,1/2-y,1/2+z
3 -x,-y,-z
4 -x,1/2+y,1/2-z
_cell_length_a                   14.574(2)
_cell_length_b                   8.3967(11)
_cell_length_c                   15.272(2)
_cell_angle_alpha                90
_cell_angle_beta                 109.428(7)
_cell_angle_gamma                90
_cell_volume                     1762.47
loop_
_atom_site_label
_atom_site_type_symbol
_atom_site_fract_x
_atom_site_fract_y
_atom_site_fract_z
Tb1 Tb -0.29243(2) 0.25249(4) -0.07444(2)
C1 C -0.3916(5) 0.5176(8) 0.1475(5)
C2 C -0.3899(5) 0.4033(8) 0.0793(4)
O1 O -0.3817(4) 0.4064(6) 0.0008(3)
C3 C -0.4004(5) 0.2684(8) 0.1425(4)
O2 O -0.4105(4) 0.1266(6) 0.1385(4)
C4 C -0.3931(5) 0.3992(8) 0.2140(4)
O3 O -0.3905(4) 0.3978(6) 0.2958(3)
C5 C -0.3906(7) 0.6912(9) 0.1480(6)
H1 H -0.3283(7) 0.7256(9) 0.1892(6)
H2 H -0.4410(7) 0.7308(9) 0.1699(6)
H3 H -0.4004(7) 0.7314(9) 0.0867(6)
C6 C -0.1282(5) 0.7538(10) -0.0251(5)
C7 C -0.1980(6) 0.6283(8) -0.0413(5)
O4 O -0.1955(4) 0.4820(6) -0.0332(4)
C8 C -0.2783(4) 0.7541(9) -0.0716(4)
O5 O -0.3671(3) 0.7505(7) -0.1006(4)
C9 C -0.1980(6) 0.8740(9) -0.0520(5)
O6 O -0.1960(4) 1.0235(6) -0.0583(4)
C10 C -0.0196(6) 0.7520(14) 0.0087(10)
H4 H 0.0024(6) 0.7413(14) -0.0439(10)
H5 H 0.0043(6) 0.6641(14) 0.0503(10)
H6 H 0.0046(6) 0.8499(14) 0.0404(10)
O7 O -0.2096(4) 0.2756(6) -0.1839(4)
H7 H -0.1830(44) 0.1975(53) -0.2080(42)
H8 H -0.1838(51) 0.3726(40) -0.1855(49)
O8 O -0.3883(5) 0.0597(6) -0.0287(4)
H9 H -0.4035(71) 0.057(13) 0.0238(38)
H10 H -0.3909(68) -0.0359(48) -0.0561(57)
O9 O -0.3925(4) 0.4445(6) -0.1793(3)
H11 H -0.414(12) 0.5393(95) -0.166(12)
H12 H -0.4083(91) 0.460(16) -0.2409(16)
O10 O -0.2001(5) 0.2305(7) 0.0868(3)
H13 H -0.1611(77) 0.148(10) 0.1127(82)
H14 H -0.1752(58) 0.3057(70) 0.1302(41)
O3A O -0.3905(4) 0.1022(6) -0.2042(3)
O6_2 O -0.1960(4) 0.0235(6) -0.0583(4)
Tb1A Tb -0.29243(2) 0.24751(4) 0.42556(2)
Tb1_2 Tb -0.29243(2) 1.25249(4) -0.07444(2)
N1 N -0.1303(7) -0.1172(10) 0.2256(6)
O11 O -0.0897(9) -0.0037(15) 0.2007(12)
O12 O -0.1948(9) -0.0814(16) 0.2496(11)
O13 O -0.0931(16) -0.2346(14) 0.2296(16)
O14 O -0.1173(6) -0.5622(8) 0.2348(5)
H15 H -0.1048(76) -0.4628(46) 0.2578(65)
H16 H -0.0549(39) -0.585(22) 0.242(12)
loop_
_geom_bond_atom_site_label_1
_geom_bond_atom_site_label_2
_geom_bond_site_symmetry_1
_geom_bond_site_symmetry_2
Tb1 O1 1_555 1_555
C1 C2 1_555 1_555
C2 O1 1_555 1_555
C3 C2 1_555 1_555
O2 C3 1_555 1_555
C4 C1 1_555 1_555
O3 C4 1_555 1_555
C5 C1 1_555 1_555
H1 C5 1_555 1_555
H2 C5 1_555 1_555
H3 C5 1_555 1_555
C6 C7 1_555 1_555
C7 O4 1_555 1_555
O4 Tb1 1_555 1_555
C8 C7 1_555 1_555
O5 C8 1_555 1_555
C9 C6 1_555 1_555
O6 C9 1_555 1_555
C10 C6 1_555 1_555
H4 C10 1_555 1_555
H5 C10 1_555 1_555
H6 C10 1_555 1_555
O7 Tb1 1_555 1_555
H7 O7 1_555 1_555
H8 O7 1_555 1_555
O8 Tb1 1_555 1_555
H9 O8 1_555 1_555
H10 O8 1_555 1_555
O9 Tb1 1_555 1_555
H11 O9 1_555 1_555
H12 O9 1_555 1_555
O10 Tb1 1_555 1_555
H13 O10 1_555 1_555
H14 O10 1_555 1_555
N1 O11 1_555 1_555
O12 N1 1_555 1_555
O13 N1 1_555 1_555
O14 H15 1_555 1_555
H16 O14 1_555 1_555
O3A Tb1 1_555 1_555
O6_2 Tb1 1_555 1_555
Tb1A O3 1_555 1_555
Tb1_2 O6 1_555 1_555
C3 C4 1_555 1_555
C8 C9 1_555 1_555

#END
