
#######################################################################
#
#                 Cambridge Crystallographic Data Centre
#                                CCDC 
#
#######################################################################
#
# If this CIF has been generated from an entry in the Cambridge 
# Structural Database, then it will include bibliographic, chemical, 
# crystal, experimental, refinement or atomic coordinate data resulting 
# from the CCDC's data processing and validation procedures.
#
#######################################################################

data_XEMQOV
_symmetry_cell_setting           monoclinic
_symmetry_space_group_name_H-M   'C 2/c'
_symmetry_Int_Tables_number      15
_space_group_name_Hall           '-C 2yn'
loop_
_symmetry_equiv_pos_site_id
_symmetry_equiv_pos_as_xyz
1 x,y,z
2 x,-y,1/2+z
3 1/2+x,1/2+y,z
4 1/2+x,1/2-y,1/2+z
5 -x,-y,-z
6 -x,y,1/2-z
7 1/2-x,1/2-y,-z
8 1/2-x,1/2+y,1/2-z
_cell_length_a                   30.049(19)
_cell_length_b                   4.936(2)
_cell_length_c                   19.077(9)
_cell_angle_alpha                90
_cell_angle_beta                 128.61(5)
_cell_angle_gamma                90
_cell_volume                     2211.03
loop_
_atom_site_label
_atom_site_type_symbol
_atom_site_fract_x
_atom_site_fract_y
_atom_site_fract_z
Eu1 Eu 0.5000 0.55955(12) 0.7500
S1 S 0.45725(7) 0.0622(5) 0.63290(12)
F1 F 0.3746(2) 0.4676(10) 0.6060(3)
F2 F 0.2626(2) 0.5081(12) 0.4682(4)
F3 F 0.21209(19) 0.1586(14) 0.3282(3)
F4 F 0.27574(19) -0.2343(12) 0.3281(3)
F5 F 0.38670(18) -0.2830(11) 0.4662(3)
O1 O 0.5670(2) 0.6380(13) 0.7124(3)
C1 C 0.3846(3) 0.0891(17) 0.5423(4)
C2 C 0.3509(3) 0.2877(18) 0.5383(5)
C3 C 0.2934(3) 0.3173(19) 0.4673(5)
C4 C 0.2683(3) 0.142(2) 0.3971(5)
C5 C 0.3000(3) -0.0592(18) 0.3970(5)
C6 C 0.3571(3) -0.0833(16) 0.4690(5)
C7 C 0.6113(3) 0.840(2) 0.7505(5)
H1 H 0.6455 0.7841 0.8108
H2 H 0.5979 1.0166 0.7555
C8 C 0.6246(3) 0.860(2) 0.6862(5)
H3 H 0.6383 1.0429 0.6870
H4 H 0.6535 0.7243 0.7007
C9 C 0.5677(3) 0.800(2) 0.5966(5)
H5 H 0.5428 0.9620 0.5721
H6 H 0.5723 0.7338 0.5525
C10 C 0.5447(4) 0.583(2) 0.6210(6)
H7 H 0.5025 0.5881 0.5801
H8 H 0.5572 0.4025 0.6169
S1_2 S 0.45725(7) 1.0622(5) 0.63290(12)
S1E S 0.54275(7) 0.0622(5) 0.86710(12)
S1E_2 S 0.54275(7) 1.0622(5) 0.86710(12)
F1E F 0.6254(2) 0.4676(10) 0.8940(3)
O1E O 0.4330(2) 0.6380(13) 0.7876(3)
Eu1_2 Eu 0.5000 -0.44045(12) 0.7500
C7E C 0.3887(3) 0.840(2) 0.7495(5)
C10E C 0.4553(4) 0.583(2) 0.8790(6)
H1E H 0.3545 0.7841 0.6892
H2E H 0.4021 1.0166 0.7445
C8E C 0.3754(3) 0.860(2) 0.8138(5)
C9E C 0.4323(3) 0.800(2) 0.9034(5)
H7E H 0.4975 0.5881 0.9199
H8E H 0.4428 0.4025 0.8831
H3E H 0.3617 1.0429 0.8130
H4E H 0.3465 0.7243 0.7993
H5E H 0.4572 0.9620 0.9279
H6E H 0.4277 0.7338 0.9475
Eu1_3 Eu 0.5000 1.55955(12) 0.7500
C1E C 0.6154(3) 1.0891(17) 0.9577(4)
C2E C 0.6491(3) 1.2877(18) 0.9617(5)
C6E C 0.6429(3) 0.9167(16) 1.0310(5)
F5E F 0.61330(18) 0.7170(11) 1.0338(3)
C5E C 0.7000(3) 0.9408(18) 1.1030(5)
F1E_2 F 0.6254(2) 1.4676(10) 0.8940(3)
C3E C 0.7066(3) 1.3173(19) 1.0327(5)
F4E F 0.72426(19) 0.7657(12) 1.1719(3)
C4E C 0.7317(3) 1.142(2) 1.1029(5)
F2E F 0.7374(2) 1.5081(12) 1.0318(4)
F3E F 0.78791(19) 1.1586(14) 1.1718(3)
loop_
_geom_bond_atom_site_label_1
_geom_bond_atom_site_label_2
_geom_bond_site_symmetry_1
_geom_bond_site_symmetry_2
Eu1 S1 1_555 1_555
S1 C1 1_555 1_555
F1 Eu1 1_555 1_555
F2 C3 1_555 1_555
F3 C4 1_555 1_555
F4 C5 1_555 1_555
F5 C6 1_555 1_555
O1 Eu1 1_555 1_555
C1 C2 1_555 1_555
C2 F1 1_555 1_555
C3 C2 1_555 1_555
C4 C3 1_555 1_555
C5 C4 1_555 1_555
C6 C1 1_555 1_555
C7 O1 1_555 1_555
H1 C7 1_555 1_555
H2 C7 1_555 1_555
C8 C7 1_555 1_555
H3 C8 1_555 1_555
H4 C8 1_555 1_555
C9 C8 1_555 1_555
H5 C9 1_555 1_555
H6 C9 1_555 1_555
C10 O1 1_555 1_555
H7 C10 1_555 1_555
H8 C10 1_555 1_555
S1_2 Eu1 1_555 1_555
S1E Eu1 1_555 1_555
S1E_2 Eu1 1_555 1_555
F1E Eu1 1_555 1_555
O1E Eu1 1_555 1_555
Eu1_2 S1 1_555 1_555
C7E O1E 1_555 1_555
C10E O1E 1_555 1_555
H1E C7E 1_555 1_555
H2E C7E 1_555 1_555
C8E C7E 1_555 1_555
C9E C10E 1_555 1_555
H7E C10E 1_555 1_555
H8E C10E 1_555 1_555
H3E C8E 1_555 1_555
H4E C8E 1_555 1_555
H5E C9E 1_555 1_555
H6E C9E 1_555 1_555
Eu1_3 S1_2 1_555 1_555
C1E S1E_2 1_555 1_555
C2E C1E 1_555 1_555
C6E C1E 1_555 1_555
F5E C6E 1_555 1_555
C5E C6E 1_555 1_555
F1E_2 Eu1_3 1_555 1_555
C3E C2E 1_555 1_555
F4E C5E 1_555 1_555
C4E C5E 1_555 1_555
F2E C3E 1_555 1_555
F3E C4E 1_555 1_555
C5 C6 1_555 1_555
C9 C10 1_555 1_555
S1E Eu1_2 1_555 1_555
S1E_2 Eu1_3 1_555 1_555
C8E C9E 1_555 1_555
C2E F1E_2 1_555 1_555
C3E C4E 1_555 1_555

#END
