
#######################################################################
#
#                 Cambridge Crystallographic Data Centre
#                                CCDC 
#
#######################################################################
#
# If this CIF has been generated from an entry in the Cambridge 
# Structural Database, then it will include bibliographic, chemical, 
# crystal, experimental, refinement or atomic coordinate data resulting 
# from the CCDC's data processing and validation procedures.
#
#######################################################################

data_XEMWUH
_symmetry_cell_setting           monoclinic
_symmetry_space_group_name_H-M   'P 21/c'
_symmetry_Int_Tables_number      14
_space_group_name_Hall           '-P 2ybc'
loop_
_symmetry_equiv_pos_site_id
_symmetry_equiv_pos_as_xyz
1 x,y,z
2 x,1/2-y,1/2+z
3 -x,-y,-z
4 -x,1/2+y,1/2-z
_cell_length_a                   13.323(7)
_cell_length_b                   6.699(2)
_cell_length_c                   18.090(8)
_cell_angle_alpha                90
_cell_angle_beta                 100.96(4)
_cell_angle_gamma                90
_cell_volume                     1585.1
loop_
_atom_site_label
_atom_site_type_symbol
_atom_site_fract_x
_atom_site_fract_y
_atom_site_fract_z
V1 V 0.85709(3) 0.74680(7) 0.13497(2)
O1 O 0.86364(13) 0.8830(3) 0.21032(10)
O2 O 0.96384(13) 0.6180(3) 0.14401(11)
O3 O 0.88867(13) 0.9302(3) 0.06230(11)
O4 O 0.77845(13) 0.5094(3) 0.15384(10)
N1 N 0.70396(16) 0.7932(3) 0.07522(12)
N2 N 0.63032(16) 0.6551(3) 0.08915(12)
C1 C 0.8390(2) 1.0857(4) 0.02652(14)
C2 C 0.8956(2) 1.2335(4) -0.00189(16)
H1 H 0.967(2) 1.218(5) 0.0068(18)
C3 C 0.8476(2) 1.3933(5) -0.04160(17)
H2 H 0.884(2) 1.490(5) -0.0618(17)
C4 C 0.7411(2) 1.4107(5) -0.05480(18)
H3 H 0.709(2) 1.517(5) -0.0787(16)
C5 C 0.6845(2) 1.2661(4) -0.02727(16)
H4 H 0.618(2) 1.273(4) -0.0345(16)
C6 C 0.7313(2) 1.1030(4) 0.01340(14)
C7 C 0.6683(2) 0.9494(4) 0.03729(14)
H5 H 0.598(2) 0.966(4) 0.0247(15)
C8 C 0.67839(19) 0.5131(4) 0.13083(14)
C9 C 0.61886(19) 0.3440(4) 0.15268(14)
C10 C 0.5161(2) 0.3194(4) 0.12027(16)
H6 H 0.485(2) 0.408(4) 0.0852(15)
C11 C 0.4616(2) 0.1587(5) 0.14091(16)
H7 H 0.392(2) 0.149(4) 0.1177(16)
C12 C 0.5084(2) 0.0196(4) 0.19239(17)
H8 H 0.471(2) -0.094(5) 0.2063(16)
C13 C 0.6105(2) 0.0426(4) 0.22443(17)
H9 H 0.641(2) -0.048(5) 0.2572(17)
C14 C 0.6654(2) 0.2039(4) 0.20534(17)
H10 H 0.730(2) 0.220(4) 0.2281(16)
C15 C 0.8124(3) 1.5744(5) 0.3425(2)
H11 H 0.763(3) 1.466(6) 0.351(2)
H12 H 0.822(3) 1.649(6) 0.388(2)
H13 H 0.785(3) 1.656(6) 0.305(2)
O5 O 0.90528(16) 1.4924(4) 0.32762(14)
H14 H 0.928(3) 1.430(6) 0.361(2)
K1 K 0.94646(4) 1.25682(9) 0.20482(3)
K1C K 1.05354(4) 0.75682(9) 0.29518(3)
K1_2 K 0.94646(4) 0.25682(9) 0.20482(3)
K1C_2 K 1.05354(4) 1.75682(9) 0.29518(3)
O1C O 1.13636(13) 1.3830(3) 0.28968(10)
O2_2 O 0.96384(13) 1.6180(3) 0.14401(11)
O2C O 1.03616(13) 1.1180(3) 0.35599(11)
O4_2 O 0.77845(13) 1.5094(3) 0.15384(10)
O5C O 1.09472(16) 0.9924(4) 0.17238(14)
H14C H 1.072(3) 0.930(6) 0.139(2)
loop_
_geom_bond_atom_site_label_1
_geom_bond_atom_site_label_2
_geom_bond_site_symmetry_1
_geom_bond_site_symmetry_2
V1 O1 1_555 1_555
O1 K1 1_555 1_555
O2 V1 1_555 1_555
O3 V1 1_555 1_555
O4 V1 1_555 1_555
N1 V1 1_555 1_555
N2 N1 1_555 1_555
C1 O3 1_555 1_555
C2 C1 1_555 1_555
H1 C2 1_555 1_555
C3 C2 1_555 1_555
H2 C3 1_555 1_555
C4 C3 1_555 1_555
H3 C4 1_555 1_555
C5 C4 1_555 1_555
H4 C5 1_555 1_555
C6 C1 1_555 1_555
C7 N1 1_555 1_555
H5 C7 1_555 1_555
C8 O4 1_555 1_555
C9 C8 1_555 1_555
C10 C9 1_555 1_555
H6 C10 1_555 1_555
C11 C10 1_555 1_555
H7 C11 1_555 1_555
C12 C11 1_555 1_555
H8 C12 1_555 1_555
C13 C12 1_555 1_555
H9 C13 1_555 1_555
C14 C9 1_555 1_555
H10 C14 1_555 1_555
C15 H11 1_555 1_555
H12 C15 1_555 1_555
H13 C15 1_555 1_555
O5 C15 1_555 1_555
H14 O5 1_555 1_555
K1 O5 1_555 1_555
K1C O1 1_555 1_555
K1_2 O2 1_555 1_555
K1C_2 O5 1_555 1_555
O1C K1 1_555 1_555
O2_2 K1 1_555 1_555
O2C K1 1_555 1_555
O4_2 K1 1_555 1_555
O5C K1 1_555 1_555
H14C O5C 1_555 1_555
O2 K1C 1_555 1_555
O4 K1_2 1_555 1_555
N2 C8 1_555 1_555
C5 C6 1_555 1_555
C6 C7 1_555 1_555
C13 C14 1_555 1_555
K1C O2C 1_555 1_555
K1C O5C 1_555 1_555
K1C_2 O1C 1_555 1_555
K1C_2 O2_2 1_555 1_555

#END
