
#######################################################################
#
#                 Cambridge Crystallographic Data Centre
#                                CCDC 
#
#######################################################################
#
# If this CIF has been generated from an entry in the Cambridge 
# Structural Database, then it will include bibliographic, chemical, 
# crystal, experimental, refinement or atomic coordinate data resulting 
# from the CCDC's data processing and validation procedures.
#
#######################################################################

data_XEMWAP
_symmetry_cell_setting           monoclinic
_symmetry_space_group_name_H-M   'C 2/c'
_symmetry_Int_Tables_number      15
_space_group_name_Hall           '-C 2yn'
loop_
_symmetry_equiv_pos_site_id
_symmetry_equiv_pos_as_xyz
1 x,y,z
2 -x,y,1/2-z
3 1/2+x,1/2+y,z
4 1/2-x,1/2+y,1/2-z
5 -x,-y,-z
6 x,-y,1/2+z
7 1/2-x,1/2-y,-z
8 1/2+x,1/2-y,1/2+z
_cell_length_a                   14.158(2)
_cell_length_b                   9.8050(14)
_cell_length_c                   11.413(3)
_cell_angle_alpha                90
_cell_angle_beta                 127.987(1)
_cell_angle_gamma                90
_cell_volume                     1248.7
loop_
_atom_site_label
_atom_site_type_symbol
_atom_site_fract_x
_atom_site_fract_y
_atom_site_fract_z
Cu1 Cu 0.5000 0.613623(16) 0.2500
N1 N 0.35010(6) 0.51256(10) 0.10950(8)
N2 N 0.29080(6) 0.45972(10) 0.15994(8)
C1 C 0.19520(7) 0.40506(10) 0.03919(9)
N3 N 0.18386(7) 0.41595(10) -0.08614(9)
C2 C 0.28448(8) 0.48473(12) -0.03498(10)
H1 H 0.3060 0.5102 -0.0941
N4 N 0.02853(6) 0.22794(9) 0.12774(8)
N5 N -0.06257(7) 0.26000(11) -0.01968(9)
C3 C -0.01122(8) 0.32526(13) -0.06668(11)
H2 H -0.0512 0.3590 -0.1626
N6 N 0.10924(6) 0.33725(9) 0.04425(8)
C4 C 0.13021(7) 0.27424(11) 0.16333(9)
H3 H 0.2048 0.2651 0.2558
Cu1B Cu 0.0000 0.113623(16) 0.2500
Cu1B_2 Cu 1.0000 0.113623(16) 0.2500
N1A N 0.64990(6) 0.51256(10) 0.39050(8)
N2A N 0.70920(6) 0.45972(10) 0.34006(8)
C1A C 0.80480(7) 0.40506(10) 0.46081(9)
N3A N 0.81614(7) 0.41595(10) 0.58614(9)
C2A C 0.71552(8) 0.48473(12) 0.53498(10)
H1A H 0.6940 0.5102 0.5941
N4A N 0.97147(6) 0.22794(9) 0.37226(8)
N4B N 0.52853(6) 0.72794(9) 0.12774(8)
N4C N 0.47147(6) 0.72794(9) 0.37226(8)
N5A N 1.06257(7) 0.26000(11) 0.51968(9)
C3A C 1.01122(8) 0.32526(13) 0.56668(11)
H2A H 1.0512 0.3590 0.6626
N6A N 0.89076(6) 0.33725(9) 0.45575(8)
C4A C 0.86979(7) 0.27424(11) 0.33667(9)
H3A H 0.7952 0.2651 0.2442
loop_
_geom_bond_atom_site_label_1
_geom_bond_atom_site_label_2
_geom_bond_site_symmetry_1
_geom_bond_site_symmetry_2
Cu1 N1 1_555 1_555
N1 N2 1_555 1_555
N2 C1 1_555 1_555
C1 N3 1_555 1_555
N3 C2 1_555 1_555
C2 N1 1_555 1_555
H1 C2 1_555 1_555
N4 N5 1_555 1_555
N5 C3 1_555 1_555
C3 H2 1_555 1_555
N6 C1 1_555 1_555
C4 N4 1_555 1_555
H3 C4 1_555 1_555
Cu1B N4 1_555 1_555
Cu1B_2 N4A 1_555 1_555
N1A Cu1 1_555 1_555
N2A N1A 1_555 1_555
C1A N2A 1_555 1_555
N3A C1A 1_555 1_555
C2A N1A 1_555 1_555
H1A C2A 1_555 1_555
N4A N5A 1_555 1_555
N4B Cu1 1_555 1_555
N4C Cu1 1_555 1_555
N5A C3A 1_555 1_555
C3A H2A 1_555 1_555
N6A C1A 1_555 1_555
C4A N4A 1_555 1_555
H3A C4A 1_555 1_555
C3 N6 1_555 1_555
N6 C4 1_555 1_555
N3A C2A 1_555 1_555
C3A N6A 1_555 1_555
N6A C4A 1_555 1_555

#END
