
#######################################################################
#
#                 Cambridge Crystallographic Data Centre
#                                CCDC 
#
#######################################################################
#
# If this CIF has been generated from an entry in the Cambridge 
# Structural Database, then it will include bibliographic, chemical, 
# crystal, experimental, refinement or atomic coordinate data resulting 
# from the CCDC's data processing and validation procedures.
#
#######################################################################

data_XEMXUK
_symmetry_cell_setting           monoclinic
_symmetry_space_group_name_H-M   'P 21/n'
_symmetry_Int_Tables_number      14
_space_group_name_Hall           '-P 2yn'
loop_
_symmetry_equiv_pos_site_id
_symmetry_equiv_pos_as_xyz
1 x,y,z
2 1/2-x,1/2+y,1/2-z
3 -x,-y,-z
4 1/2+x,1/2-y,1/2+z
_cell_length_a                   7.5025(3)
_cell_length_b                   11.5188(6)
_cell_length_c                   13.0518(6)
_cell_angle_alpha                90
_cell_angle_beta                 97.877(4)
_cell_angle_gamma                90
_cell_volume                     1117.29
loop_
_atom_site_label
_atom_site_type_symbol
_atom_site_fract_x
_atom_site_fract_y
_atom_site_fract_z
U1 U 0.16017(2) -0.325380(15) 0.182770(12)
Cr1 Cr 0.13112(12) -0.63357(9) 0.08077(7)
O1 O -0.0478(6) -0.2943(4) 0.2247(3)
O2 O 0.3702(6) -0.3566(4) 0.1411(3)
O3 O 0.0574(6) -0.5114(4) 0.1273(3)
O4 O 0.1725(7) -0.7291(5) 0.1754(3)
O5 O 0.3092(7) -0.6090(5) 0.0298(4)
O6 O -0.0273(7) -0.6866(4) -0.0092(4)
O7 O 0.2120(7) -0.4569(4) 0.3235(3)
O8 O 0.3200(7) -0.6306(4) 0.3707(3)
C1 C 0.2602(8) -0.5334(5) 0.3891(4)
C2 C 0.1735(8) -0.3665(6) 0.6263(5)
H1 H 0.1209 -0.2954 0.6437
C3 C 0.2508(7) -0.5001(5) 0.5014(4)
C4 C 0.1734(8) -0.3956(5) 0.5235(5)
H2 H 0.1217 -0.3454 0.4698
N1 N 0.2461(7) -0.4367(5) 0.7005(4)
H3 H 0.2465 -0.4153 0.7652
C5 C 0.3200(8) -0.5402(6) 0.6810(5)
H4 H 0.3695 -0.5890 0.7363
C6 C 0.3224(8) -0.5736(6) 0.5803(5)
H5 H 0.3725 -0.6463 0.5650
U1A U 0.33983(2) -0.825380(15) 0.317230(12)
U1B U -0.16017(2) -0.674620(15) -0.182770(12)
O4A O 0.3275(7) -0.2291(5) 0.3246(3)
O6B O 0.0273(7) -0.3134(4) 0.0092(4)
O8A O 0.1800(7) -0.1306(4) 0.1293(3)
O9 O 0.3261(7) -0.3750(6) 0.8958(4)
H6 H 0.451(5) -0.378(8) 0.932(6)
H7 H 0.260(11) -0.385(8) 0.955(5)
loop_
_geom_bond_atom_site_label_1
_geom_bond_atom_site_label_2
_geom_bond_site_symmetry_1
_geom_bond_site_symmetry_2
U1 O1 1_555 1_555
Cr1 O3 1_555 1_555
O2 U1 1_555 1_555
O3 U1 1_555 1_555
O4 Cr1 1_555 1_555
O5 Cr1 1_555 1_555
O6 Cr1 1_555 1_555
O7 U1 1_555 1_555
O8 C1 1_555 1_555
C1 O7 1_555 1_555
C2 H1 1_555 1_555
C3 C1 1_555 1_555
C4 C2 1_555 1_555
H2 C4 1_555 1_555
N1 C2 1_555 1_555
H3 N1 1_555 1_555
C5 N1 1_555 1_555
H4 C5 1_555 1_555
C6 C3 1_555 1_555
H5 C6 1_555 1_555
O9 H6 1_555 1_555
H7 O9 1_555 1_555
U1A O4 1_555 1_555
U1B O6 1_555 1_555
O4A U1 1_555 1_555
O6B U1 1_555 1_555
O8A U1 1_555 1_555
O8 U1A 1_555 1_555
C3 C4 1_555 1_555
C5 C6 1_555 1_555

#END
