
#######################################################################
#
#                 Cambridge Crystallographic Data Centre
#                                CCDC 
#
#######################################################################
#
# If this CIF has been generated from an entry in the Cambridge 
# Structural Database, then it will include bibliographic, chemical, 
# crystal, experimental, refinement or atomic coordinate data resulting 
# from the CCDC's data processing and validation procedures.
#
#######################################################################

data_XEMYUL
_symmetry_cell_setting           triclinic
_symmetry_space_group_name_H-M   'P -1'
_symmetry_Int_Tables_number      2
_space_group_name_Hall           '-P 1'
loop_
_symmetry_equiv_pos_site_id
_symmetry_equiv_pos_as_xyz
1 x,y,z
2 -x,-y,-z
_cell_length_a                   7.1169(12)
_cell_length_b                   7.4874(10)
_cell_length_c                   8.9748(14)
_cell_angle_alpha                88.243(6)
_cell_angle_beta                 74.546(6)
_cell_angle_gamma                81.445(6)
_cell_volume                     455.801
loop_
_atom_site_label
_atom_site_type_symbol
_atom_site_fract_x
_atom_site_fract_y
_atom_site_fract_z
U1 U 0.15152(3) 0.74149(3) 0.19411(3)
Se1 Se 0.28386(10) 0.32521(9) -0.04009(8)
C1 C -0.1050(10) 0.9741(9) 0.5153(9)
O1 O 0.1512(8) 0.5625(7) 0.3266(6)
O2 O 0.1602(8) 0.9223(7) 0.0615(6)
O3 O -0.1309(7) 0.8773(7) 0.4140(6)
O4 O -0.2269(7) 1.0330(7) 0.6381(6)
O5 O 0.2512(7) 0.5534(6) -0.0169(6)
O6 O 0.5107(8) 0.2874(8) -0.1602(7)
O7 O 0.1480(7) 0.3106(7) -0.1647(6)
U1A U -0.15152(3) 1.25851(3) 0.80589(3)
U1A_2 U 0.84848(3) 0.25851(3) -0.19411(3)
U1A_3 U -0.15152(3) 0.25851(3) -0.19411(3)
U1_2 U 1.15152(3) 0.74149(3) 0.19411(3)
Se1A Se 0.71614(10) 0.67479(9) 0.04009(8)
C1A C 0.1050(10) 1.0259(9) 0.4847(9)
O1A O -0.1512(8) 1.4375(7) 0.6734(6)
O2A O -0.1602(8) 1.0777(7) 0.9385(6)
O3A O 0.1309(7) 1.1227(7) 0.5860(6)
O4A O 0.2269(7) 0.9670(7) 0.3619(6)
O5A O 0.7488(7) 0.4466(6) 0.0169(6)
O5A_2 O -0.2512(7) 1.4466(6) 1.0169(6)
O6A O 0.4893(8) 0.7126(8) 0.1602(7)
O6_2 O -0.4893(8) 1.2874(8) 0.8398(7)
O7A O 0.8520(7) 0.6894(7) 0.1647(6)
O7A_2 O -0.1480(7) 0.6894(7) 0.1647(6)
O7_2 O 0.1480(7) 1.3106(7) 0.8353(6)
C2 C 0.6036(11) 0.2592(10) 0.3749(9)
N1 N 0.5630(10) 0.1672(8) 0.2642(7)
H1 H 0.4532 0.1195 0.2841
H2 H 0.6461 0.1545 0.1717
N2 N 0.7737(9) 0.3273(8) 0.3427(8)
H3 H 0.8038 0.3859 0.4147
H4 H 0.8552 0.3134 0.2497
N3 N 0.4810(9) 0.2784(9) 0.5121(7)
H5 H 0.5095 0.3368 0.5850
H6 H 0.3698 0.2331 0.5318
loop_
_geom_bond_atom_site_label_1
_geom_bond_atom_site_label_2
_geom_bond_site_symmetry_1
_geom_bond_site_symmetry_2
U1 O1 1_555 1_555
Se1 O5 1_555 1_555
C1 O3 1_555 1_555
O2 U1 1_555 1_555
O3 U1 1_555 1_555
O4 C1 1_555 1_555
O5 U1 1_555 1_555
O6 Se1 1_555 1_555
O7 Se1 1_555 1_555
C2 N1 1_555 1_555
N1 H1 1_555 1_555
H2 N1 1_555 1_555
N2 C2 1_555 1_555
H3 N2 1_555 1_555
H4 N2 1_555 1_555
N3 C2 1_555 1_555
H5 N3 1_555 1_555
H6 N3 1_555 1_555
U1A O4 1_555 1_555
U1A_2 O6 1_555 1_555
U1A_3 O7 1_555 1_555
U1_2 O7A 1_555 1_555
Se1A O5A 1_555 1_555
C1A C1 1_555 1_555
O1A U1A 1_555 1_555
O2A U1A 1_555 1_555
O3A U1A 1_555 1_555
O4A U1 1_555 1_555
O5A U1A_2 1_555 1_555
O5A_2 U1A 1_555 1_555
O6A U1 1_555 1_555
O6_2 U1A 1_555 1_555
O7A Se1A 1_555 1_555
O7A_2 U1 1_555 1_555
O7_2 U1A 1_555 1_555
Se1A O6A 1_555 1_555
C1A O3A 1_555 1_555
C1A O4A 1_555 1_555

#END
