
#######################################################################
#
#                 Cambridge Crystallographic Data Centre
#                                CCDC 
#
#######################################################################
#
# If this CIF has been generated from an entry in the Cambridge 
# Structural Database, then it will include bibliographic, chemical, 
# crystal, experimental, refinement or atomic coordinate data resulting 
# from the CCDC's data processing and validation procedures.
#
#######################################################################

data_XEMYUK
_symmetry_cell_setting           monoclinic
_symmetry_space_group_name_H-M   'C 2/c'
_symmetry_Int_Tables_number      15
_space_group_name_Hall           '-C 2yn'
loop_
_symmetry_equiv_pos_site_id
_symmetry_equiv_pos_as_xyz
1 x,y,z
2 1/2+x,1/2+y,z
3 -x,y,1/2-z
4 1/2-x,1/2+y,1/2-z
5 -x,-y,-z
6 1/2-x,1/2-y,-z
7 x,-y,1/2+z
8 1/2+x,1/2-y,1/2+z
_cell_length_a                   25.430(3)
_cell_length_b                   10.7493(19)
_cell_length_c                   7.7480(12)
_cell_angle_alpha                90
_cell_angle_beta                 104.715(12)
_cell_angle_gamma                90
_cell_volume                     2048.49
loop_
_atom_site_label
_atom_site_type_symbol
_atom_site_fract_x
_atom_site_fract_y
_atom_site_fract_z
Pb1 Pb 0.5000 0.865740(19) 0.7500
S1 S 0.38522(8) 0.49828(16) 0.4639(2)
N1 N 0.45246(17) 0.6677(4) 0.6127(6)
N2 N 0.37555(19) 0.7414(5) 0.3984(8)
H1 H 0.3863 0.8174 0.4127
H2 H 0.3454 0.7234 0.3229
N3 N 0.7642(2) 0.8307(6) 0.7004(8)
O1 O 0.56095(18) 0.8354(4) 0.5445(7)
O2 O 0.58305(17) 1.0251(4) 0.4677(8)
C1 C 0.4055(2) 0.6517(5) 0.4929(9)
C2 C 0.4437(3) 0.4543(5) 0.6163(9)
H3 H 0.4531 0.3724 0.6483
C3 C 0.4745(2) 0.5543(4) 0.6841(7)
C4 C 0.5942(2) 0.9174(6) 0.5240(9)
C5 C 0.6535(2) 0.8832(4) 0.5808(6)
C6 C 0.69237(19) 0.9533(5) 0.5281(7)
H4 H 0.6822 1.0204 0.4511
C7 C 0.7458(2) 0.9224(6) 0.5913(8)
H5 H 0.7712 0.9704 0.5536
C8 C 0.7267(3) 0.7636(6) 0.7494(8)
H6 H 0.7385 0.6975 0.8269
C9 C 0.6712(3) 0.7848(4) 0.6938(7)
H7 H 0.6468 0.7340 0.7317
Pb1F Pb 0.5000 1.134260(19) 0.2500
Pb1F_2 Pb 0.5000 1.134260(19) 1.2500
S1B S 0.61478(8) 0.49828(16) 1.0361(2)
N1B N 0.54754(17) 0.6677(4) 0.8873(6)
N2B N 0.62445(19) 0.7414(5) 1.1016(8)
H1B H 0.6137 0.8174 1.0873
H2B H 0.6546 0.7234 1.1771
N3B N 0.2358(2) 0.8307(6) 0.7996(8)
O1B O 0.43905(18) 0.8354(4) 0.9555(7)
O2B O 0.41695(17) 1.0251(4) 1.0323(8)
O2F O 0.58305(17) 0.9749(4) 0.9677(8)
O2D O 0.41695(17) 0.9749(4) 0.5323(8)
C1B C 0.5945(2) 0.6517(5) 1.0071(9)
C2B C 0.5563(3) 0.4543(5) 0.8837(9)
H3B H 0.5469 0.3724 0.8517
C3B C 0.5255(2) 0.5543(4) 0.8159(7)
C4B C 0.4058(2) 0.9174(6) 0.9760(9)
C5B C 0.3465(2) 0.8832(4) 0.9192(6)
C6B C 0.30763(19) 0.9533(5) 0.9719(7)
H4B H 0.3178 1.0204 1.0489
C7B C 0.2542(2) 0.9224(6) 0.9087(8)
H5B H 0.2288 0.9704 0.9464
C8B C 0.2733(3) 0.7636(6) 0.7506(8)
H6B H 0.2615 0.6975 0.6731
C9B C 0.3288(3) 0.7848(4) 0.8062(7)
H7B H 0.3532 0.7340 0.7683
loop_
_geom_bond_atom_site_label_1
_geom_bond_atom_site_label_2
_geom_bond_site_symmetry_1
_geom_bond_site_symmetry_2
Pb1 N1 1_555 1_555
S1 C1 1_555 1_555
N1 C1 1_555 1_555
N2 H1 1_555 1_555
H2 N2 1_555 1_555
N3 C7 1_555 1_555
O1 Pb1 1_555 1_555
O2 C4 1_555 1_555
C1 N2 1_555 1_555
C2 S1 1_555 1_555
H3 C2 1_555 1_555
C3 N1 1_555 1_555
C4 O1 1_555 1_555
C5 C4 1_555 1_555
C6 C5 1_555 1_555
H4 C6 1_555 1_555
C7 C6 1_555 1_555
H5 C7 1_555 1_555
C8 N3 1_555 1_555
H6 C8 1_555 1_555
C9 C5 1_555 1_555
H7 C9 1_555 1_555
Pb1F O2 1_555 1_555
Pb1F_2 O2B 1_555 1_555
S1B C1B 1_555 1_555
N1B Pb1 1_555 1_555
N2B H1B 1_555 1_555
H2B N2B 1_555 1_555
N3B C7B 1_555 1_555
O1B Pb1 1_555 1_555
O2B C4B 1_555 1_555
O2F Pb1 1_555 1_555
O2D Pb1 1_555 1_555
C1B N1B 1_555 1_555
C2B S1B 1_555 1_555
H3B C2B 1_555 1_555
C3B C3 1_555 1_555
C4B O1B 1_555 1_555
C5B C4B 1_555 1_555
C6B C5B 1_555 1_555
H4B C6B 1_555 1_555
C7B C6B 1_555 1_555
H5B C7B 1_555 1_555
C8B N3B 1_555 1_555
H6B C8B 1_555 1_555
C9B C5B 1_555 1_555
H7B C9B 1_555 1_555
C2 C3 1_555 1_555
C8 C9 1_555 1_555
N1B C3B 1_555 1_555
N2B C1B 1_555 1_555
C2B C3B 1_555 1_555
C8B C9B 1_555 1_555

#END
