
#######################################################################
#
#                 Cambridge Crystallographic Data Centre
#                                CCDC 
#
#######################################################################
#
# If this CIF has been generated from an entry in the Cambridge 
# Structural Database, then it will include bibliographic, chemical, 
# crystal, experimental, refinement or atomic coordinate data resulting 
# from the CCDC's data processing and validation procedures.
#
#######################################################################

data_XENBUN
_symmetry_cell_setting           triclinic
_symmetry_space_group_name_H-M   'P -1'
_symmetry_Int_Tables_number      2
_space_group_name_Hall           '-P 1'
loop_
_symmetry_equiv_pos_site_id
_symmetry_equiv_pos_as_xyz
1 x,y,z
2 -x,-y,-z
_cell_length_a                   8.574(5)
_cell_length_b                   8.863(5)
_cell_length_c                   9.006(5)
_cell_angle_alpha                112.649(5)
_cell_angle_beta                 93.209(5)
_cell_angle_gamma                90.088(5)
_cell_volume                     630.411
loop_
_atom_site_label
_atom_site_type_symbol
_atom_site_fract_x
_atom_site_fract_y
_atom_site_fract_z
Ru1 Ru -0.004436(19) -0.12718(2) -0.104333(19)
N1 N 0.0118(2) 0.3797(2) 0.3416(2)
O1 O -0.21818(19) -0.1738(2) -0.03322(18)
O2 O 0.21098(19) -0.0749(2) -0.16804(19)
O3 O -0.09863(19) -0.0204(2) -0.25513(19)
O4 O 0.09132(19) -0.2267(2) 0.05241(19)
F1 F -0.3927(2) -0.1279(3) 0.2821(2)
F2 F -0.5213(2) 0.0168(2) 0.1787(3)
F3 F -0.4954(2) -0.2356(3) 0.0432(2)
F4 F -0.0597(2) 0.2191(3) -0.4002(2)
F5 F -0.2871(2) 0.1158(3) -0.4170(2)
F6 F -0.2310(3) 0.3537(2) -0.2428(2)
C1 C -0.2700(3) -0.0636(3) 0.0879(3)
C2 C -0.4227(3) -0.1039(3) 0.1481(3)
C3 C -0.1175(3) 0.1311(3) -0.1962(3)
C4 C -0.1753(3) 0.2062(3) -0.3157(3)
C5 C 0.1323(3) 0.4147(3) 0.4537(3)
C6 C 0.2757(3) 0.3321(3) 0.4131(3)
H1 H 0.2873 0.2580 0.3084
C7 C 0.3963(3) 0.3607(3) 0.5269(3)
H2 H 0.4892 0.3055 0.4991
C8 C 0.3812(3) 0.4739(3) 0.6872(3)
H3 H 0.4634 0.4902 0.7640
C9 C 0.2483(3) 0.5586(3) 0.7297(3)
H4 H 0.2409 0.6337 0.8348
C10 C 0.1194(3) 0.5337(3) 0.6144(3)
Ru1A Ru 0.004436(19) 0.12718(2) 0.104333(19)
N1A N -0.0118(2) -0.3797(2) -0.3416(2)
N1A_2 N -0.0118(2) 0.6203(2) 0.6584(2)
Ru1_2 Ru -0.004436(19) 0.87282(2) 0.895667(19)
C5A C -0.1323(3) 0.5853(3) 0.5463(3)
C6A C -0.2757(3) 0.6679(3) 0.5869(3)
H1A H -0.2873 0.7420 0.6916
C7A C -0.3963(3) 0.6393(3) 0.4731(3)
H2A H -0.4892 0.6945 0.5009
C8A C -0.3812(3) 0.5261(3) 0.3128(3)
H3A H -0.4634 0.5098 0.2360
C9A C -0.2483(3) 0.4414(3) 0.2703(3)
H4A H -0.2409 0.3663 0.1652
C10A C -0.1194(3) 0.4663(3) 0.3856(3)
O1A O 0.21818(19) 0.1738(2) 0.03322(18)
O2A O -0.21098(19) 0.0749(2) 0.16804(19)
O3A O 0.09863(19) 0.0204(2) 0.25513(19)
O4A O -0.09132(19) 0.2267(2) -0.05241(19)
C1A C 0.2700(3) 0.0636(3) -0.0879(3)
C3A C 0.1175(3) -0.1311(3) 0.1962(3)
C2A C 0.4227(3) 0.1039(3) -0.1481(3)
F1A F 0.3927(2) 0.1279(3) -0.2821(2)
F2A F 0.5213(2) -0.0168(2) -0.1787(3)
F3A F 0.4954(2) 0.2356(3) -0.0432(2)
C4A C 0.1753(3) -0.2062(3) 0.3157(3)
F4A F 0.0597(2) -0.2191(3) 0.4002(2)
F5A F 0.2871(2) -0.1158(3) 0.4170(2)
F6A F 0.2310(3) -0.3537(2) 0.2428(2)
loop_
_geom_bond_atom_site_label_1
_geom_bond_atom_site_label_2
_geom_bond_site_symmetry_1
_geom_bond_site_symmetry_2
Ru1 O1 1_555 1_555
N1 C5 1_555 1_555
O1 C1 1_555 1_555
O2 Ru1 1_555 1_555
O3 Ru1 1_555 1_555
O4 Ru1 1_555 1_555
F1 C2 1_555 1_555
F2 C2 1_555 1_555
F3 C2 1_555 1_555
F4 C4 1_555 1_555
F5 C4 1_555 1_555
F6 C4 1_555 1_555
C1 C2 1_555 1_555
C3 O3 1_555 1_555
C4 C3 1_555 1_555
C5 C6 1_555 1_555
C6 H1 1_555 1_555
C7 C6 1_555 1_555
H2 C7 1_555 1_555
C8 C7 1_555 1_555
H3 C8 1_555 1_555
C9 C8 1_555 1_555
H4 C9 1_555 1_555
C10 C5 1_555 1_555
Ru1A Ru1 1_555 1_555
N1A Ru1 1_555 1_555
N1A_2 C10 1_555 1_555
Ru1_2 N1A_2 1_555 1_555
C5A N1A_2 1_555 1_555
C6A C5A 1_555 1_555
H1A C6A 1_555 1_555
C7A C6A 1_555 1_555
H2A C7A 1_555 1_555
C8A C7A 1_555 1_555
H3A C8A 1_555 1_555
C9A C8A 1_555 1_555
H4A C9A 1_555 1_555
C10A N1 1_555 1_555
O1A Ru1A 1_555 1_555
O2A C1 1_555 1_555
O3A Ru1A 1_555 1_555
O4A C3 1_555 1_555
C1A O2 1_555 1_555
C3A O4 1_555 1_555
C2A C1A 1_555 1_555
F1A C2A 1_555 1_555
F2A C2A 1_555 1_555
F3A C2A 1_555 1_555
C4A C3A 1_555 1_555
F4A C4A 1_555 1_555
F5A C4A 1_555 1_555
F6A C4A 1_555 1_555
N1 Ru1A 1_555 1_555
C9 C10 1_555 1_555
Ru1A O2A 1_555 1_555
Ru1A O4A 1_555 1_555
C5A C10A 1_555 1_555
C9A C10A 1_555 1_555
O1A C1A 1_555 1_555
O3A C3A 1_555 1_555

#END
