
#######################################################################
#
#                 Cambridge Crystallographic Data Centre
#                                CCDC 
#
#######################################################################
#
# If this CIF has been generated from an entry in the Cambridge 
# Structural Database, then it will include bibliographic, chemical, 
# crystal, experimental, refinement or atomic coordinate data resulting 
# from the CCDC's data processing and validation procedures.
#
#######################################################################

data_XENCUO
_symmetry_cell_setting           triclinic
_symmetry_space_group_name_H-M   'P -1'
_symmetry_Int_Tables_number      2
_space_group_name_Hall           '-P 1'
loop_
_symmetry_equiv_pos_site_id
_symmetry_equiv_pos_as_xyz
1 x,y,z
2 -x,-y,-z
_cell_length_a                   10.537(6)
_cell_length_b                   10.760(6)
_cell_length_c                   11.272(8)
_cell_angle_alpha                80.660(10)
_cell_angle_beta                 63.27(2)
_cell_angle_gamma                63.860(10)
_cell_volume                     1023.66
loop_
_atom_site_label
_atom_site_type_symbol
_atom_site_fract_x
_atom_site_fract_y
_atom_site_fract_z
Zn1 Zn 0.28873(6) 0.50316(5) 0.28303(5)
Zn2 Zn 0.25238(6) -0.22874(5) 1.09817(5)
V1 V 0.15873(9) 0.03819(8) 1.28532(7)
V2 V 0.19975(9) 0.77012(7) 0.46156(8)
N1 N 0.2975(4) 0.3537(4) 0.4149(4)
N2 N 0.3014(4) -0.1447(4) 0.9125(4)
O1 O 0.1517(4) 0.4949(3) 0.2146(3)
O2 O 0.1161(4) 0.6914(3) 0.1020(3)
O3 O -0.5358(4) 0.6875(4) 0.0893(3)
O4 O -0.4943(4) 0.4831(3) 0.1858(3)
O5 O 0.1280(4) -0.0505(4) 1.1990(4)
O6 O 0.0222(5) 0.8270(4) 0.6093(4)
O7 O 0.2782(5) 0.1034(5) 1.1851(4)
O8 O 0.2470(4) 0.9140(3) 0.3861(3)
O9 O 0.3400(4) 0.6582(4) 0.4962(4)
O10 O 0.1808(4) 0.6948(3) 0.3518(4)
C1 C 0.0802(5) 0.5918(4) 0.1561(4)
C2 C -0.0576(4) 0.5878(4) 0.1485(4)
C3 C -0.1125(5) 0.4879(4) 0.2159(4)
H1 H -0.0616 0.4213 0.2660
C4 C -0.2398(5) 0.4844(4) 0.2110(4)
H2 H -0.2760 0.4146 0.2561
C5 C -0.3159(4) 0.5834(4) 0.1391(4)
C6 C -0.2621(5) 0.6838(4) 0.0727(4)
H3 H -0.3143 0.7517 0.0242
C7 C -0.1330(5) 0.6849(4) 0.0773(4)
H4 H -0.0951 0.7533 0.0306
C8 C -0.4582(5) 0.5841(4) 0.1375(4)
C9 C 0.1986(6) 0.2922(5) 0.4561(5)
H5 H 0.1222 0.3212 0.4213
C10 C 0.2034(6) 0.1886(5) 0.5475(5)
H6 H 0.1315 0.1465 0.5746
C11 C 0.3138(5) 0.1448(4) 0.6005(4)
C12 C 0.4141(5) 0.2101(5) 0.5572(5)
H7 H 0.4914 0.1839 0.5905
C13 C 0.4031(5) 0.3127(5) 0.4658(5)
H8 H 0.4730 0.3570 0.4376
C14 C 0.3172(5) 0.0372(4) 0.7025(4)
C15 C 0.2132(6) -0.0252(5) 0.7473(5)
H9 H 0.1450 -0.0062 0.7057
C16 C 0.2081(6) -0.1133(6) 0.8504(5)
H10 H 0.1354 -0.1549 0.8795
C17 C 0.4068(5) -0.0915(5) 0.8663(5)
H11 H 0.4769 -0.1160 0.9071
C18 C 0.4186(5) -0.0007(5) 0.7623(5)
H12 H 0.4965 0.0350 0.7316
O2_2 O 0.1161(4) -0.3086(3) 1.1020(3)
O3_2 O 0.4642(4) -0.3125(4) 1.0893(3)
V1A V -0.15873(9) 0.96181(8) 0.71468(7)
O6A O -0.0222(5) 0.1730(4) 1.3907(4)
O8_2 O 0.2470(4) -0.0860(3) 1.3861(3)
V1_2 V 0.15873(9) 1.03819(8) 0.28532(7)
Zn2_2 Zn 0.25238(6) 0.77126(5) 0.09817(5)
O4_2 O 0.5057(4) 0.4831(3) 0.1858(3)
Zn2_3 Zn -0.74762(6) 0.77126(5) 0.09817(5)
Zn1_2 Zn -0.71127(6) 0.50316(5) 0.28303(5)
loop_
_geom_bond_atom_site_label_1
_geom_bond_atom_site_label_2
_geom_bond_site_symmetry_1
_geom_bond_site_symmetry_2
Zn1 N1 1_555 1_555
Zn2 N2 1_555 1_555
V1 O5 1_555 1_555
V2 O6 1_555 1_555
N1 C9 1_555 1_555
N2 C16 1_555 1_555
O1 Zn1 1_555 1_555
O2 C1 1_555 1_555
O3 C8 1_555 1_555
O4 C8 1_555 1_555
O5 Zn2 1_555 1_555
O6 V1A 1_555 1_555
O7 V1 1_555 1_555
O8 V2 1_555 1_555
O9 V2 1_555 1_555
O10 Zn1 1_555 1_555
C1 O1 1_555 1_555
C2 C1 1_555 1_555
C3 C2 1_555 1_555
H1 C3 1_555 1_555
C4 C3 1_555 1_555
H2 C4 1_555 1_555
C5 C4 1_555 1_555
C6 C5 1_555 1_555
H3 C6 1_555 1_555
C7 C2 1_555 1_555
H4 C7 1_555 1_555
C8 C5 1_555 1_555
C9 H5 1_555 1_555
C10 C9 1_555 1_555
H6 C10 1_555 1_555
C11 C10 1_555 1_555
C12 C11 1_555 1_555
H7 C12 1_555 1_555
C13 N1 1_555 1_555
H8 C13 1_555 1_555
C14 C11 1_555 1_555
C15 C14 1_555 1_555
H9 C15 1_555 1_555
C16 C15 1_555 1_555
H10 C16 1_555 1_555
C17 N2 1_555 1_555
H11 C17 1_555 1_555
C18 C14 1_555 1_555
H12 C18 1_555 1_555
O2_2 Zn2 1_555 1_555
O3_2 Zn2 1_555 1_555
O6A V1 1_555 1_555
O8_2 V1 1_555 1_555
V1_2 O8 1_555 1_555
Zn2_2 O2 1_555 1_555
O4_2 Zn1 1_555 1_555
Zn2_3 O3 1_555 1_555
Zn1_2 O4 1_555 1_555
V2 O10 1_555 1_555
C6 C7 1_555 1_555
C12 C13 1_555 1_555
C17 C18 1_555 1_555

#END
