
#######################################################################
#
#                 Cambridge Crystallographic Data Centre
#                                CCDC 
#
#######################################################################
#
# If this CIF has been generated from an entry in the Cambridge 
# Structural Database, then it will include bibliographic, chemical, 
# crystal, experimental, refinement or atomic coordinate data resulting 
# from the CCDC's data processing and validation procedures.
#
#######################################################################

data_XENCAU
_symmetry_cell_setting           tetragonal
_symmetry_space_group_name_H-M   'I 41/a'
_symmetry_Int_Tables_number      88
_space_group_name_Hall           '-I 4ad'
loop_
_symmetry_equiv_pos_site_id
_symmetry_equiv_pos_as_xyz
1 x,y,z
2 3/4-y,1/4+x,1/4+z
3 1/2+x,1/2+y,1/2+z
4 1/4-y,3/4+x,3/4+z
5 1/4+y,1/4-x,1/4+z
6 1/2+x,y,1/2-z
7 1/4-y,1/4+x,1/4-z
8 x,1/2+y,-z
9 -x,-y,-z
10 1/4+y,3/4-x,3/4-z
11 1/2-x,1/2-y,1/2-z
12 3/4+y,1/4-x,1/4-z
13 3/4-y,3/4+x,3/4-z
14 1/2-x,-y,1/2+z
15 3/4+y,3/4-x,3/4+z
16 -x,1/2-y,z
_cell_length_a                   22.3175(7)
_cell_length_b                   22.3175(7)
_cell_length_c                   21.0429(10)
_cell_angle_alpha                90
_cell_angle_beta                 90
_cell_angle_gamma                90
_cell_volume                     10480.9
loop_
_atom_site_label
_atom_site_type_symbol
_atom_site_fract_x
_atom_site_fract_y
_atom_site_fract_z
Co1 Co 0.0000 0.5000 0.0000
O1 O 0.06421(12) 0.55780(12) 0.03992(15)
O2 O 0.0354(2) 0.60896(13) 0.1251(2)
N1 N -0.02657(14) 0.46622(14) 0.0935(2)
N2 N -0.0307(2) 0.5047(2) 0.1434(2)
H1 H -0.0154(23) 0.5388(27) 0.1383(24)
N3 N -0.17658(15) 0.31481(14) 0.2478(2)
N4 N -0.1287(2) 0.30970(15) 0.2872(2)
H2 H 0.0357(27) 0.3836(22) -0.0642(30)
C1 C -0.0494(2) 0.4144(2) 0.1154(2)
C2 C -0.0688(2) 0.4207(2) 0.1784(2)
C3 C -0.0555(2) 0.4795(2) 0.1952(2)
C4 C -0.0655(2) 0.5129(2) 0.2553(2)
H3 H -0.0499(2) 0.5527(2) 0.2511(2)
H4 H -0.1078(2) 0.5148(2) 0.2633(2)
H5 H -0.0460(2) 0.4930(2) 0.2900(2)
C5 C -0.0505(2) 0.3582(2) 0.0773(2)
H6 H -0.0345(2) 0.3655(2) 0.0357(2)
H7 H -0.0271(2) 0.3281(2) 0.0982(2)
H8 H -0.0912(2) 0.3448(2) 0.0736(2)
C6 C -0.0827(2) 0.3452(2) 0.2696(2)
C7 C -0.1014(2) 0.3757(2) 0.2169(2)
C8 C 0.1052(2) 0.4099(2) 0.0462(2)
C9 C 0.1252(2) 0.4494(2) 0.0989(2)
H9 H 0.1044(2) 0.4869(2) 0.0958(2)
H10 H 0.1676(2) 0.4563(2) 0.0961(2)
H11 H 0.1160(2) 0.4307(2) 0.1387(2)
C10 C 0.0957(3) 0.2749(2) -0.0553(2)
H12 H 0.0678(3) 0.2768(2) -0.0900(2)
H13 H 0.0852(3) 0.2423(2) -0.0278(2)
H14 H 0.1354(3) 0.2688(2) -0.0716(2)
C11 C 0.0739(2) 0.5935(2) 0.0845(2)
C12 C 0.1354(2) 0.6210(2) 0.0879(3)
C13 C 0.1754(3) 0.6152(3) 0.0386(3)
H15 H 0.1657(3) 0.5912(3) 0.0022(3)
C14 C 0.2295(3) 0.6446(4) 0.0416(6)
H16 H 0.2569(3) 0.6424(4) 0.0065(6)
C15 C 0.2456(4) 0.6766(4) 0.0929(8)
H17 H 0.2846(4) 0.6948(4) 0.0938(8)
C16 C 0.2085(5) 0.6807(3) 0.1426(6)
H18 H 0.2211(5) 0.7038(3) 0.1786(6)
C17 C 0.1517(3) 0.6543(2) 0.1418(4)
H19 H 0.1243(3) 0.6582(2) 0.1767(4)
O1H O -0.06421(12) 0.44220(12) -0.03992(15)
C11H C -0.0739(2) 0.4065(2) -0.0845(2)
O2H O -0.0354(2) 0.39104(13) -0.1251(2)
C12H C -0.1354(2) 0.3790(2) -0.0879(3)
C13H C -0.1754(3) 0.3848(3) -0.0386(3)
H15H H -0.1657(3) 0.4088(3) -0.0022(3)
C14H C -0.2295(3) 0.3554(4) -0.0416(6)
H16H H -0.2569(3) 0.3576(4) -0.0065(6)
C15H C -0.2456(4) 0.3234(4) -0.0929(8)
H17H H -0.2846(4) 0.3052(4) -0.0938(8)
C16H C -0.2085(5) 0.3193(3) -0.1426(6)
H18H H -0.2211(5) 0.2962(3) -0.1786(6)
C17H C -0.1517(3) 0.3457(2) -0.1418(4)
H19H H -0.1243(3) 0.3418(2) -0.1767(4)
N3C N -0.06481(14) 0.57342(15) -0.0022(2)
Co1D Co -0.2500 0.2500 0.2500
Co1K Co 0.2500 0.2500 0.2500
N1K N 0.21622(14) 0.27657(14) 0.1565(2)
N2K N 0.2547(2) 0.2807(2) 0.1066(2)
H1K H 0.2888(27) 0.2654(23) 0.1117(24)
C3K C 0.2295(2) 0.3055(2) 0.0548(2)
C2K C 0.1707(2) 0.3188(2) 0.0716(2)
C1K C 0.1644(2) 0.2994(2) 0.1346(2)
C5K C 0.1082(2) 0.3005(2) 0.1727(2)
H6K H 0.1155(2) 0.2845(2) 0.2143(2)
H7K H 0.0781(2) 0.2771(2) 0.1518(2)
H8K H 0.0948(2) 0.3412(2) 0.1764(2)
C7K C 0.1257(2) 0.3514(2) 0.0331(2)
C6K C 0.0952(2) 0.3327(2) -0.0196(2)
N4K N 0.05970(15) 0.3787(2) -0.0372(2)
N3K N 0.06481(14) 0.42658(15) 0.0022(2)
N1H N 0.02657(14) 0.53378(14) -0.0935(2)
C4K C 0.2629(2) 0.3155(2) -0.0053(2)
H3K H 0.3027(2) 0.2999(2) -0.0011(2)
H4K H 0.2648(2) 0.3578(2) -0.0133(2)
H5K H 0.2430(2) 0.2960(2) -0.0400(2)
C8F C -0.1599(2) 0.3552(2) 0.2038(2)
C9F C -0.1994(2) 0.3752(2) 0.1511(2)
H9F H -0.2369(2) 0.3544(2) 0.1542(2)
H10F H -0.2063(2) 0.4176(2) 0.1539(2)
H11F H -0.1807(2) 0.3660(2) 0.1113(2)
H2F H -0.1336(22) 0.2857(27) 0.3142(30)
C10F C -0.0249(2) 0.3457(3) 0.3053(2)
H12F H -0.0268(2) 0.3178(3) 0.3400(2)
H13F H 0.0077(2) 0.3352(3) 0.2778(2)
H14F H -0.0188(2) 0.3854(3) 0.3216(2)
Br3 Br 0.2596(5) 0.4961(4) -0.0447(5)
C18 C 0.2671(5) 0.3786(7) -0.1708(8)
C19 C 0.2068(6) 0.3666(7) -0.1811(9)
C20 C 0.1632(4) 0.4009(7) -0.1508(8)
C21 C 0.1801(4) 0.4471(6) -0.1103(7)
C22 C 0.2404(5) 0.4591(6) -0.1000(7)
C23 C 0.2839(4) 0.4248(7) -0.1303(8)
Br5 Br 0.3768(7) 0.2903(8) -0.1473(10)
C30 C 0.3777(6) 0.2299(5) -0.2109(7)
C31 C 0.4383(6) 0.2350(7) -0.2252(9)
C32 C 0.4624(7) 0.2028(7) -0.2757(10)
C33 C 0.4259(8) 0.1656(7) -0.3118(9)
C34 C 0.3653(8) 0.1605(6) -0.2975(9)
C35 C 0.3412(7) 0.1926(5) -0.2470(8)
Br1? Br 0.3405(2) 0.3428(3) -0.1766(2)
Br2? Br 0.2008(8) 0.3568(5) -0.2091(3)
Br4? Br 0.1668(3) 0.3240(5) -0.2280(4)
Br6? Br 0.5064(11) 0.2014(15) -0.2850(13)
C24? C 0.2133(4) 0.3918(4) -0.1576(5)
C25? C 0.1696(4) 0.4250(5) -0.1263(6)
C26? C 0.1861(4) 0.4692(5) -0.0832(5)
C27? C 0.2464(4) 0.4802(5) -0.0713(5)
C28? C 0.2901(4) 0.4470(5) -0.1025(6)
C29? C 0.2735(3) 0.4028(4) -0.1457(4)
loop_
_geom_bond_atom_site_label_1
_geom_bond_atom_site_label_2
_geom_bond_site_symmetry_1
_geom_bond_site_symmetry_2
Co1 O1 1_555 1_555
O1 C11 1_555 1_555
O2 C11 1_555 1_555
N1 Co1 1_555 1_555
N2 N1 1_555 1_555
H1 N2 1_555 1_555
N3 N4 1_555 1_555
N4 C6 1_555 1_555
H2 N4K 1_555 1_555
C1 N1 1_555 1_555
C2 C1 1_555 1_555
C3 N2 1_555 1_555
C4 C3 1_555 1_555
H3 C4 1_555 1_555
H4 C4 1_555 1_555
H5 C4 1_555 1_555
C5 C1 1_555 1_555
H6 C5 1_555 1_555
H7 C5 1_555 1_555
H8 C5 1_555 1_555
C6 C7 1_555 1_555
C7 C2 1_555 1_555
C8 C9 1_555 1_555
C9 H9 1_555 1_555
H10 C9 1_555 1_555
H11 C9 1_555 1_555
C10 H12 1_555 1_555
H13 C10 1_555 1_555
H14 C10 1_555 1_555
C11 C12 1_555 1_555
C12 C13 1_555 1_555
C13 H15 1_555 1_555
C14 C13 1_555 1_555
H16 C14 1_555 1_555
C15 C14 1_555 1_555
H17 C15 1_555 1_555
C16 C15 1_555 1_555
H18 C16 1_555 1_555
C17 C12 1_555 1_555
H19 C17 1_555 1_555
Br3 C22 1_555 1_555
Br5 C30 1_555 1_555
C18 C19 1_555 1_555
C19 C20 1_555 1_555
C20 C21 1_555 1_555
C21 C22 1_555 1_555
C22 C23 1_555 1_555
C23 C18 1_555 1_555
C30 C31 1_555 1_555
C31 C32 1_555 1_555
C32 C33 1_555 1_555
C33 C34 1_555 1_555
C34 C35 1_555 1_555
C35 C30 1_555 1_555
O1H Co1 1_555 1_555
C11H O1H 1_555 1_555
O2H C11H 1_555 1_555
C12H C11H 1_555 1_555
C13H C12H 1_555 1_555
H15H C13H 1_555 1_555
C14H C13H 1_555 1_555
H16H C14H 1_555 1_555
C15H C14H 1_555 1_555
H17H C15H 1_555 1_555
C16H C15H 1_555 1_555
H18H C16H 1_555 1_555
C17H C12H 1_555 1_555
H19H C17H 1_555 1_555
N3C Co1 1_555 1_555
Co1D N3 1_555 1_555
Co1K N1K 1_555 1_555
N1K N2K 1_555 1_555
N2K H1K 1_555 1_555
C3K N2K 1_555 1_555
C2K C3K 1_555 1_555
C1K N1K 1_555 1_555
C5K C1K 1_555 1_555
H6K C5K 1_555 1_555
H7K C5K 1_555 1_555
H8K C5K 1_555 1_555
C7K C8 1_555 1_555
C6K C10 1_555 1_555
N4K C6K 1_555 1_555
N3K Co1 1_555 1_555
N1H Co1 1_555 1_555
C4K C3K 1_555 1_555
H3K C4K 1_555 1_555
H4K C4K 1_555 1_555
H5K C4K 1_555 1_555
C8F N3 1_555 1_555
C9F C8F 1_555 1_555
H9F C9F 1_555 1_555
H10F C9F 1_555 1_555
H11F C9F 1_555 1_555
H2F N4 1_555 1_555
C10F C6 1_555 1_555
H12F C10F 1_555 1_555
H13F C10F 1_555 1_555
H14F C10F 1_555 1_555
C2 C3 1_555 1_555
C7 C8F 1_555 1_555
C8 N3K 1_555 1_555
C16 C17 1_555 1_555
C16H C17H 1_555 1_555
C2K C1K 1_555 1_555
C2K C7K 1_555 1_555
C7K C6K 1_555 1_555
N4K N3K 1_555 1_555

#END
