
#######################################################################
#
#                 Cambridge Crystallographic Data Centre
#                                CCDC 
#
#######################################################################
#
# If this CIF has been generated from an entry in the Cambridge 
# Structural Database, then it will include bibliographic, chemical, 
# crystal, experimental, refinement or atomic coordinate data resulting 
# from the CCDC's data processing and validation procedures.
#
#######################################################################

data_XENCEZ
_symmetry_cell_setting           triclinic
_symmetry_space_group_name_H-M   'P -1'
_symmetry_Int_Tables_number      2
_space_group_name_Hall           '-P 1'
loop_
_symmetry_equiv_pos_site_id
_symmetry_equiv_pos_as_xyz
1 x,y,z
2 -x,-y,-z
_cell_length_a                   6.8178(7)
_cell_length_b                   7.4015(8)
_cell_length_c                   8.5079(9)
_cell_angle_alpha                104.775(2)
_cell_angle_beta                 90.733(2)
_cell_angle_gamma                111.497(2)
_cell_volume                     383.549
loop_
_atom_site_label
_atom_site_type_symbol
_atom_site_fract_x
_atom_site_fract_y
_atom_site_fract_z
Cu1 Cu 0.20375(6) 0.21538(6) -1.44429(4)
C1 C 0.1269(5) 0.2246(4) -0.7818(4)
C2 C 0.2191(5) 0.2345(5) -0.9387(3)
C3 C 0.4144(5) 0.2379(5) -0.9806(4)
H1 H 0.5236 0.2363 -0.9151
C4 C 0.4122(5) 0.2444(5) -1.1431(4)
C5 C 0.5736(5) 0.2577(4) -1.2605(4)
N1 N 0.1108(4) 0.2372(4) -1.0721(3)
H2 H -0.0158 0.2362 -1.0755
N2 N 0.2265(4) 0.2417(4) -1.1976(3)
O1 O -0.0515(3) 0.2356(4) -0.7681(3)
O2 O 0.2399(3) 0.1995(3) -0.6785(3)
O3 O 0.7484(4) 0.2569(4) -1.2215(3)
O4 O 0.5160(3) 0.2674(3) -1.3999(2)
O5 O 0.1234(3) -0.1056(3) -1.5007(3)
O6 O 0.2415(4) 0.5106(4) -1.4014(3)
H3 H 0.175(6) -0.160(6) -1.580(3)
H4 H 0.174(6) 0.572(5) -1.343(4)
H5 H 0.309(6) 0.576(5) -1.464(4)
H6 H 0.142(7) -0.141(6) -1.417(3)
Cu1_2 Cu 0.20375(6) 0.21538(6) -0.44429(4)
Cu1A Cu -0.20375(6) -0.21538(6) -1.55571(4)
O2_2 O 0.2399(3) 0.1995(3) -1.6785(3)
O5A O -0.1234(3) 0.1056(3) -1.4993(3)
H3A H -0.175(6) 0.160(6) -1.420(3)
H6A H -0.142(7) 0.141(6) -1.583(3)
loop_
_geom_bond_atom_site_label_1
_geom_bond_atom_site_label_2
_geom_bond_site_symmetry_1
_geom_bond_site_symmetry_2
Cu1 N2 1_555 1_555
C1 C2 1_555 1_555
C2 C3 1_555 1_555
C3 H1 1_555 1_555
C4 C3 1_555 1_555
C5 C4 1_555 1_555
N1 C2 1_555 1_555
H2 N1 1_555 1_555
N2 C4 1_555 1_555
O1 C1 1_555 1_555
O2 C1 1_555 1_555
O3 C5 1_555 1_555
O4 Cu1 1_555 1_555
O5 Cu1 1_555 1_555
O6 Cu1 1_555 1_555
H3 O5 1_555 1_555
H4 O6 1_555 1_555
H5 O6 1_555 1_555
H6 O5 1_555 1_555
Cu1_2 O2 1_555 1_555
Cu1A O5 1_555 1_555
O2_2 Cu1 1_555 1_555
O5A Cu1 1_555 1_555
H3A O5A 1_555 1_555
H6A O5A 1_555 1_555
C5 O4 1_555 1_555
N1 N2 1_555 1_555
Cu1A O5A 1_555 1_555

#END
