
#######################################################################
#
#                 Cambridge Crystallographic Data Centre
#                                CCDC 
#
#######################################################################
#
# If this CIF has been generated from an entry in the Cambridge 
# Structural Database, then it will include bibliographic, chemical, 
# crystal, experimental, refinement or atomic coordinate data resulting 
# from the CCDC's data processing and validation procedures.
#
#######################################################################

data_XENGON
_symmetry_cell_setting           orthorhombic
_symmetry_space_group_name_H-M   'P n a 21'
_symmetry_Int_Tables_number      33
_space_group_name_Hall           'P 2c -2n'
loop_
_symmetry_equiv_pos_site_id
_symmetry_equiv_pos_as_xyz
1 x,y,z
2 -x,-y,1/2+z
3 1/2+x,1/2-y,z
4 1/2-x,1/2+y,1/2+z
_cell_length_a                   9.1922(5)
_cell_length_b                   9.1265(5)
_cell_length_c                   14.1060(7)
_cell_angle_alpha                90
_cell_angle_beta                 90
_cell_angle_gamma                90
_cell_volume                     1183.39
loop_
_atom_site_label
_atom_site_type_symbol
_atom_site_fract_x
_atom_site_fract_y
_atom_site_fract_z
Zn1 Zn 0.38151(5) 0.58966(5) 0.25330(13)
N1 N 0.4492(5) 0.4009(5) 0.3303(3)
N2 N 0.3019(5) 0.4123(6) 0.1696(3)
O1 O 0.4960(5) 0.7390(4) 0.3397(3)
O2 O 0.5714(3) 0.6164(4) 0.1730(2)
O3 O 0.7757(5) 0.7475(4) 0.1729(3)
O4 O 0.6970(3) 0.8734(3) 0.3353(2)
C1 C 0.5187(6) 0.4014(7) 0.4134(4)
H1 H 0.5386 0.4909 0.4422
C2 C 0.5616(9) 0.2762(8) 0.4576(6)
H2 H 0.6114 0.2812 0.5149
C3 C 0.5316(8) 0.1435(7) 0.4181(5)
H3 H 0.5595 0.0567 0.4475
C4 C 0.4593(8) 0.1427(8) 0.3342(5)
H4 H 0.4386 0.0533 0.3057
C5 C 0.4153(9) 0.2713(7) 0.2895(5)
C6 C 0.3354(9) 0.2790(8) 0.1981(5)
C7 C 0.2962(8) 0.1529(7) 0.1498(4)
H5 H 0.3204 0.0601 0.1720
C8 C 0.2196(8) 0.1731(8) 0.0672(5)
H6 H 0.1922 0.0915 0.0320
C9 C 0.1829(8) 0.3079(8) 0.0358(5)
H7 H 0.1313 0.3205 -0.0203
C10 C 0.2257(6) 0.4277(7) 0.0910(4)
H8 H 0.1996 0.5214 0.0715
C11 C 0.6129(7) 0.7787(6) 0.3027(4)
C12 C 0.6591(7) 0.7084(6) 0.2068(4)
Zn1B Zn 0.88151(5) 0.91034(5) 0.25330(13)
O3B O 0.2757(5) 0.7525(4) 0.1729(3)
O4B O 0.1970(3) 0.6266(3) 0.3353(2)
loop_
_geom_bond_atom_site_label_1
_geom_bond_atom_site_label_2
_geom_bond_site_symmetry_1
_geom_bond_site_symmetry_2
Zn1 N1 1_555 1_555
N1 C1 1_555 1_555
N2 Zn1 1_555 1_555
O1 Zn1 1_555 1_555
O2 Zn1 1_555 1_555
O3 C12 1_555 1_555
O4 C11 1_555 1_555
C1 H1 1_555 1_555
C2 C1 1_555 1_555
H2 C2 1_555 1_555
C3 C2 1_555 1_555
H3 C3 1_555 1_555
C4 C3 1_555 1_555
H4 C4 1_555 1_555
C5 N1 1_555 1_555
C6 N2 1_555 1_555
C7 C6 1_555 1_555
H5 C7 1_555 1_555
C8 C7 1_555 1_555
H6 C8 1_555 1_555
C9 C8 1_555 1_555
H7 C9 1_555 1_555
C10 N2 1_555 1_555
H8 C10 1_555 1_555
C11 O1 1_555 1_555
C12 O2 1_555 1_555
Zn1B O3 1_555 1_555
O3B Zn1 1_555 1_555
O4B Zn1 1_555 1_555
O4 Zn1B 1_555 1_555
C4 C5 1_555 1_555
C5 C6 1_555 1_555
C9 C10 1_555 1_555
C11 C12 1_555 1_555

#END
