
#######################################################################
#
#                 Cambridge Crystallographic Data Centre
#                                CCDC 
#
#######################################################################
#
# If this CIF has been generated from an entry in the Cambridge 
# Structural Database, then it will include bibliographic, chemical, 
# crystal, experimental, refinement or atomic coordinate data resulting 
# from the CCDC's data processing and validation procedures.
#
#######################################################################

data_XENKUW
_symmetry_cell_setting           monoclinic
_symmetry_space_group_name_H-M   'P 21/c'
_symmetry_Int_Tables_number      14
_space_group_name_Hall           '-P 2ybc'
loop_
_symmetry_equiv_pos_site_id
_symmetry_equiv_pos_as_xyz
1 x,y,z
2 x,1/2-y,1/2+z
3 -x,-y,-z
4 -x,1/2+y,1/2-z
_cell_length_a                   9.0800(10)
_cell_length_b                   8.942(2)
_cell_length_c                   20.653(4)
_cell_angle_alpha                90
_cell_angle_beta                 103.54(2)
_cell_angle_gamma                90
_cell_volume                     1630.28
loop_
_atom_site_label
_atom_site_type_symbol
_atom_site_fract_x
_atom_site_fract_y
_atom_site_fract_z
Cu1 Cu 0.16780(4) -0.99610(4) 0.202470(16)
N1 N -0.1516(3) -0.6978(3) 0.26153(14)
C1 C -0.1506(3) -0.7980(3) 0.22715(14)
S1 S -0.14827(9) -0.94200(10) 0.17841(4)
N2 N 0.2040(3) -0.9126(3) 0.29174(13)
C2 C 0.2452(4) -0.9153(4) 0.34845(15)
S2 S 0.30371(15) -0.91636(19) 0.42881(5)
N3 N 0.2226(3) -0.8025(3) 0.16257(11)
C3 C 0.1621(4) -0.6694(3) 0.17005(16)
H1 H 0.0878 -0.6632 0.1942
C4 C 0.2066(5) -0.5407(4) 0.14294(19)
H2 H 0.1620 -0.4493 0.1483
C5 C 0.3176(5) -0.5493(4) 0.10788(19)
H3 H 0.3497 -0.4637 0.0896
C6 C 0.3806(4) -0.6861(4) 0.10016(16)
H4 H 0.4556 -0.6943 0.0764
C7 C 0.3310(3) -0.8110(3) 0.12816(13)
C8 C 0.3913(3) -0.9680(3) 0.12157(14)
O1 O 0.4328(2) -1.0205(2) 0.18792(10)
C9 C 0.4937(4) -1.1708(4) 0.1954(2)
H5 H 0.4210 -1.2388 0.1698
H6 H 0.5152 -1.1990 0.2415
H7 H 0.5853 -1.1742 0.1798
O2 O 0.5093(2) -0.9693(3) 0.08964(11)
H8 H 0.5886 -0.9482 0.1164
C10 C 0.2630(3) -1.0635(3) 0.08079(13)
C11 C 0.2651(4) -1.1245(4) 0.01976(15)
H9 H 0.3463 -1.1082 0.0003
C12 C 0.1425(5) -1.2109(4) -0.01181(17)
H10 H 0.1407 -1.2543 -0.0529
C13 C 0.0237(4) -1.2322(4) 0.01789(17)
H11 H -0.0596 -1.2892 -0.0030
C14 C 0.0297(3) -1.1679(3) 0.07887(15)
H12 H -0.0505 -1.1831 0.0991
N4 N 0.1468(2) -1.0844(3) 0.11010(11)
Cu1C Cu -0.16780(4) -0.49610(4) 0.297530(16)
N1C N 0.1516(3) -1.1978(3) 0.23847(14)
loop_
_geom_bond_atom_site_label_1
_geom_bond_atom_site_label_2
_geom_bond_site_symmetry_1
_geom_bond_site_symmetry_2
Cu1 S1 1_555 1_555
N1 C1 1_555 1_555
C1 S1 1_555 1_555
N2 Cu1 1_555 1_555
C2 N2 1_555 1_555
S2 C2 1_555 1_555
N3 Cu1 1_555 1_555
C3 N3 1_555 1_555
H1 C3 1_555 1_555
C4 C3 1_555 1_555
H2 C4 1_555 1_555
C5 C4 1_555 1_555
H3 C5 1_555 1_555
C6 C5 1_555 1_555
H4 C6 1_555 1_555
C7 N3 1_555 1_555
C8 C7 1_555 1_555
O1 Cu1 1_555 1_555
C9 O1 1_555 1_555
H5 C9 1_555 1_555
H6 C9 1_555 1_555
H7 C9 1_555 1_555
O2 C8 1_555 1_555
H8 O2 1_555 1_555
C10 C8 1_555 1_555
C11 C10 1_555 1_555
H9 C11 1_555 1_555
C12 C11 1_555 1_555
H10 C12 1_555 1_555
C13 C12 1_555 1_555
H11 C13 1_555 1_555
C14 C13 1_555 1_555
H12 C14 1_555 1_555
N4 Cu1 1_555 1_555
Cu1C N1 1_555 1_555
N1C Cu1 1_555 1_555
C6 C7 1_555 1_555
C8 O1 1_555 1_555
C10 N4 1_555 1_555
C14 N4 1_555 1_555

#END
