
#######################################################################
#
#                 Cambridge Crystallographic Data Centre
#                                CCDC 
#
#######################################################################
#
# If this CIF has been generated from an entry in the Cambridge 
# Structural Database, then it will include bibliographic, chemical, 
# crystal, experimental, refinement or atomic coordinate data resulting 
# from the CCDC's data processing and validation procedures.
#
#######################################################################

data_XENKUX
_symmetry_cell_setting           monoclinic
_symmetry_space_group_name_H-M   'P 21/n'
_symmetry_Int_Tables_number      14
_space_group_name_Hall           '-P 2yn'
loop_
_symmetry_equiv_pos_site_id
_symmetry_equiv_pos_as_xyz
1 x,y,z
2 1/2-x,1/2+y,1/2-z
3 -x,-y,-z
4 1/2+x,1/2-y,1/2+z
_cell_length_a                   5.4085(4)
_cell_length_b                   11.3846(7)
_cell_length_c                   13.6955(9)
_cell_angle_alpha                90
_cell_angle_beta                 94.1290(10)
_cell_angle_gamma                90
_cell_volume                     841.093
loop_
_atom_site_label
_atom_site_type_symbol
_atom_site_fract_x
_atom_site_fract_y
_atom_site_fract_z
Zn1 Zn 0.08063(3) -0.362870(16) -0.037730(12)
C1 C 0.1631(3) -0.19367(14) 0.12232(11)
C2 C 0.1368(3) -0.10078(15) 0.18661(12)
C3 C -0.0591(3) -0.02286(16) 0.16670(13)
C4 C -0.2211(3) -0.04071(16) 0.08540(14)
C5 C -0.1833(3) -0.13522(16) 0.02496(13)
N1 N 0.0051(3) -0.20973(13) 0.04298(10)
C6 C 0.3772(3) -0.28059(14) 0.13374(12)
C7 C 0.3128(3) -0.07400(15) 0.27437(12)
O1 O 0.3743(2) -0.36338(11) 0.07102(9)
O2 O 0.5407(2) -0.26520(12) 0.19947(9)
O3 O 0.2935(2) -0.13442(11) 0.35194(9)
O4 O 0.4530(2) 0.01065(12) 0.26508(9)
O5 O -0.1722(2) -0.45809(11) 0.06474(9)
O6 O 0.3183(3) -0.27845(13) -0.13230(10)
H1 H -0.099(5) -0.457(3) 0.134(2)
H2 H -0.339(5) -0.428(2) 0.0626(19)
H3 H -0.079(4) 0.048(2) 0.2102(17)
H4 H -0.369(4) 0.013(2) 0.0698(16)
H5 H -0.291(4) -0.1491(19) -0.0376(16)
H6 H 0.253(6) -0.264(3) -0.198(2)
H7 H 0.493(6) -0.306(3) -0.143(2)
Zn1C Zn 0.58063(3) -0.137130(16) 0.462270(12)
Zn1B Zn -0.08063(3) -0.637130(16) 0.037730(12)
O3C O -0.2065(2) -0.36558(11) -0.14806(9)
O5B O 0.1722(2) -0.54191(11) -0.06474(9)
H1B H 0.099(5) -0.543(3) -0.134(2)
H2B H 0.339(5) -0.572(2) -0.0626(19)
loop_
_geom_bond_atom_site_label_1
_geom_bond_atom_site_label_2
_geom_bond_site_symmetry_1
_geom_bond_site_symmetry_2
Zn1 N1 1_555 1_555
C1 C2 1_555 1_555
C2 C3 1_555 1_555
C3 C4 1_555 1_555
C4 C5 1_555 1_555
C5 N1 1_555 1_555
N1 C1 1_555 1_555
C6 C1 1_555 1_555
C7 C2 1_555 1_555
O1 Zn1 1_555 1_555
O2 C6 1_555 1_555
O3 C7 1_555 1_555
O4 C7 1_555 1_555
O5 Zn1 1_555 1_555
O6 Zn1 1_555 1_555
H1 O5 1_555 1_555
H2 O5 1_555 1_555
H3 C3 1_555 1_555
H4 C4 1_555 1_555
H5 C5 1_555 1_555
H6 O6 1_555 1_555
H7 O6 1_555 1_555
Zn1C O3 1_555 1_555
Zn1B O5 1_555 1_555
O3C Zn1 1_555 1_555
O5B Zn1 1_555 1_555
H1B O5B 1_555 1_555
H2B O5B 1_555 1_555
C6 O1 1_555 1_555
Zn1B O5B 1_555 1_555

#END
