
#######################################################################
#
#                 Cambridge Crystallographic Data Centre
#                                CCDC 
#
#######################################################################
#
# If this CIF has been generated from an entry in the Cambridge 
# Structural Database, then it will include bibliographic, chemical, 
# crystal, experimental, refinement or atomic coordinate data resulting 
# from the CCDC's data processing and validation procedures.
#
#######################################################################

data_XENREO
_symmetry_cell_setting           monoclinic
_symmetry_space_group_name_H-M   'C 2/c'
_symmetry_Int_Tables_number      15
_space_group_name_Hall           '-C 2yn'
loop_
_symmetry_equiv_pos_site_id
_symmetry_equiv_pos_as_xyz
1 x,y,z
2 1/2+x,1/2+y,z
3 -x,y,1/2-z
4 1/2-x,1/2+y,1/2-z
5 -x,-y,-z
6 1/2-x,1/2-y,-z
7 x,-y,1/2+z
8 1/2+x,1/2-y,1/2+z
_cell_length_a                   13.4327(12)
_cell_length_b                   8.5454(8)
_cell_length_c                   11.9576(11)
_cell_angle_alpha                90
_cell_angle_beta                 114.1510(10)
_cell_angle_gamma                90
_cell_volume                     1252.44
loop_
_atom_site_label
_atom_site_type_symbol
_atom_site_fract_x
_atom_site_fract_y
_atom_site_fract_z
K1 K 0.11418(2) 1.11051(3) -0.03645(3)
N1 N 0.17317(9) 1.55959(14) -0.07320(10)
N2 N 0.15792(9) 1.40430(13) -0.11901(10)
C1 C 0.12270(10) 1.41346(15) -0.23815(12)
N3 N 0.09473(9) 1.29649(13) -0.32736(10)
N4 N 0.12860(9) 1.16201(14) -0.27667(10)
O1 O 0.10328(8) 1.04901(12) -0.35408(9)
N5 N 0.11349(9) 1.56790(13) -0.27399(10)
N6 N 0.08595(10) 1.63172(14) -0.39151(11)
H1 H 0.0153(16) 1.627(2) -0.4311(17)
H2 H 0.1178(15) 1.574(2) -0.4267(17)
C2 C 0.14827(10) 1.65379(16) -0.16851(12)
N7 N 0.15263(10) 1.81251(14) -0.16464(11)
H3 H 0.1397(14) 1.858(2) -0.2335(18)
H4 H 0.2054(15) 1.849(2) -0.1030(18)
K1F K 0.11418(2) 0.88949(3) -0.53645(3)
K1B K -0.11418(2) 1.11051(3) -0.46355(3)
O1F O 0.10328(8) 0.95099(12) 0.14592(9)
O1B O -0.10328(8) 1.04901(12) -0.14592(9)
loop_
_geom_bond_atom_site_label_1
_geom_bond_atom_site_label_2
_geom_bond_site_symmetry_1
_geom_bond_site_symmetry_2
K1 N2 1_555 1_555
N1 N2 1_555 1_555
N2 C1 1_555 1_555
C1 N3 1_555 1_555
N3 N4 1_555 1_555
N4 O1 1_555 1_555
O1 K1F 1_555 1_555
N5 C1 1_555 1_555
N6 N5 1_555 1_555
H1 N6 1_555 1_555
H2 N6 1_555 1_555
C2 N1 1_555 1_555
N7 C2 1_555 1_555
H3 N7 1_555 1_555
H4 N7 1_555 1_555
K1B O1 1_555 1_555
O1F K1 1_555 1_555
O1B K1 1_555 1_555
N5 C2 1_555 1_555

#END
