
#######################################################################
#
#                 Cambridge Crystallographic Data Centre
#                                CCDC 
#
#######################################################################
#
# If this CIF has been generated from an entry in the Cambridge 
# Structural Database, then it will include bibliographic, chemical, 
# crystal, experimental, refinement or atomic coordinate data resulting 
# from the CCDC's data processing and validation procedures.
#
#######################################################################

data_XENTIV
_symmetry_cell_setting           monoclinic
_symmetry_space_group_name_H-M   'P 21/c'
_symmetry_Int_Tables_number      14
_space_group_name_Hall           '-P 2ybc'
loop_
_symmetry_equiv_pos_site_id
_symmetry_equiv_pos_as_xyz
1 x,y,z
2 -x,1/2+y,1/2-z
3 -x,-y,-z
4 x,1/2-y,1/2+z
_cell_length_a                   6.9519(6)
_cell_length_b                   14.9904(13)
_cell_length_c                   12.8623(13)
_cell_angle_alpha                90
_cell_angle_beta                 103.276(6)
_cell_angle_gamma                90
_cell_volume                     1304.58
loop_
_atom_site_label
_atom_site_type_symbol
_atom_site_fract_x
_atom_site_fract_y
_atom_site_fract_z
Ag1 Ag 0.29189(7) 0.37029(3) -0.06074(4)
N1 N 0.3035(8) 0.4780(4) -0.2214(5)
C1 C 0.3202(10) 0.4651(4) -0.3050(6)
C2 C 0.3373(11) 0.4471(5) -0.4129(6)
H1 H 0.3151 0.5023 -0.4548
H2 H 0.2385 0.4026 -0.4455
H3 H 0.4699 0.4243 -0.4116
N2 N 0.2694(7) 0.4772(3) 0.0436(4)
C3 C 0.2357(9) 0.4738(4) 0.1419(5)
N3 N 0.1924(7) 0.5561(3) 0.1727(4)
H4 H 0.152(8) 0.564(4) 0.237(5)
C4 C 0.2003(9) 0.6145(4) 0.0910(5)
H5 H 0.1783 0.6771 0.0900
C5 C 0.2454(8) 0.5649(4) 0.0135(5)
H6 H 0.2589 0.5874 -0.0535
N4 N 0.2777(8) 0.2465(3) 0.3423(4)
C6 C 0.1430(10) 0.3120(4) 0.3437(5)
H7 H 0.0564 0.3060 0.3906
C7 C 0.1270(9) 0.3859(4) 0.2807(5)
H8 H 0.0326 0.4305 0.2858
C8 C 0.2460(9) 0.3964(4) 0.2099(5)
C9 C 0.3835(8) 0.3286(4) 0.2068(5)
H9 H 0.4702 0.3329 0.1597
C10 C 0.3914(9) 0.2559(4) 0.2724(5)
H10 H 0.4828 0.2097 0.2678
Ag1C Ag 0.29189(7) 0.12971(3) 0.43926(4)
N4C N 0.2777(8) 0.2535(3) -0.1577(4)
Cl1 Cl 0.1701(16) 0.6759(8) 0.4243(8)
O1 O 0.1471(18) 0.5848(7) 0.3839(10)
O2 O 0.2784(15) 0.6693(7) 0.5333(8)
O3 O -0.0184(14) 0.7169(8) 0.4172(10)
O4 O 0.2841(15) 0.7227(6) 0.3607(9)
Cl2? Cl 0.1731(18) 0.6827(9) 0.4094(9)
O5? O 0.115(2) 0.5903(8) 0.3806(12)
O6? O 0.3330(16) 0.6897(8) 0.5015(10)
O7? O 0.0073(18) 0.7281(9) 0.4324(11)
O8? O 0.2198(17) 0.7252(7) 0.3169(10)
loop_
_geom_bond_atom_site_label_1
_geom_bond_atom_site_label_2
_geom_bond_site_symmetry_1
_geom_bond_site_symmetry_2
Ag1 N1 1_555 1_555
Cl1 O1 1_555 1_555
O2 Cl1 1_555 1_555
O3 Cl1 1_555 1_555
O4 Cl1 1_555 1_555
N1 C1 1_555 1_555
C1 C2 1_555 1_555
C2 H1 1_555 1_555
H2 C2 1_555 1_555
H3 C2 1_555 1_555
N2 Ag1 1_555 1_555
C3 N2 1_555 1_555
N3 C3 1_555 1_555
H4 N3 1_555 1_555
C4 N3 1_555 1_555
H5 C4 1_555 1_555
C5 N2 1_555 1_555
H6 C5 1_555 1_555
N4 C6 1_555 1_555
C6 H7 1_555 1_555
C7 C6 1_555 1_555
H8 C7 1_555 1_555
C8 C3 1_555 1_555
C9 C8 1_555 1_555
H9 C9 1_555 1_555
C10 N4 1_555 1_555
H10 C10 1_555 1_555
Ag1C N4 1_555 1_555
N4C Ag1 1_555 1_555
C4 C5 1_555 1_555
C7 C8 1_555 1_555
C9 C10 1_555 1_555

#END
