
#######################################################################
#
#                 Cambridge Crystallographic Data Centre
#                                CCDC 
#
#######################################################################
#
# If this CIF has been generated from an entry in the Cambridge 
# Structural Database, then it will include bibliographic, chemical, 
# crystal, experimental, refinement or atomic coordinate data resulting 
# from the CCDC's data processing and validation procedures.
#
#######################################################################

data_XENYAQ
_symmetry_cell_setting           monoclinic
_symmetry_space_group_name_H-M   'P 21/c'
_symmetry_Int_Tables_number      14
_space_group_name_Hall           '-P 2ybc'
loop_
_symmetry_equiv_pos_site_id
_symmetry_equiv_pos_as_xyz
1 x,y,z
2 x,1/2-y,1/2+z
3 -x,-y,-z
4 -x,1/2+y,1/2-z
_cell_length_a                   9.2590(10)
_cell_length_b                   18.225(2)
_cell_length_c                   9.3338(7)
_cell_angle_alpha                90
_cell_angle_beta                 118.617(6)
_cell_angle_gamma                90
_cell_volume                     1382.63
loop_
_atom_site_label
_atom_site_type_symbol
_atom_site_fract_x
_atom_site_fract_y
_atom_site_fract_z
Li1 Li -0.0324(11) 0.0171(5) 0.3642(10)
Si1 Si -0.28897(18) 0.10921(8) 0.42364(18)
N1 N -0.0898(5) 0.0779(2) 0.5122(5)
N2 N -0.0177(6) 0.0567(2) 0.1642(5)
C1 C 0.0377(6) 0.1215(3) 0.6328(6)
C2 C 0.1998(7) 0.1124(3) 0.6630(7)
H1 H 0.2218 0.0794 0.5971
C3 C 0.3287(7) 0.1502(4) 0.7865(8)
H2 H 0.4376 0.1419 0.8049
C4 C 0.3026(9) 0.1993(3) 0.8829(8)
H3 H 0.3917 0.2256 0.9664
C5 C 0.1447(8) 0.2095(3) 0.8560(7)
H4 H 0.1244 0.2428 0.9228
C6 C 0.0153(7) 0.1722(3) 0.7334(6)
H5 H -0.0929 0.181 0.7165
C7 C -0.3037(7) 0.2073(3) 0.3530(7)
H6 H -0.2353 0.2387 0.4466
H7 H -0.4183 0.2237 0.3036
H8 H -0.2649 0.2105 0.2722
C8 C -0.3936(7) 0.1054(4) 0.5528(7)
H9 H -0.5051 0.1254 0.4912
H10 H -0.3309 0.1346 0.6519
H11 H -0.3993 0.0544 0.5827
C9 C -0.4214(7) 0.0520(3) 0.2402(7)
H12 H -0.4268 0.0018 0.2748
H13 H -0.3741 0.0515 0.166
H14 H -0.5324 0.0729 0.1839
C10 C -0.0161(7) -0.0072(3) 0.0719(6)
H15 H -0.1236 -0.0323 0.0298
H16 H 0.0692 -0.0415 0.1478
C11 C 0.1430(9) 0.0946(4) 0.2399(9)
H17 H 0.2285 0.061 0.3147
H18 H 0.1379 0.1375 0.3005
H19 H 0.1691 0.1104 0.1546
C12 C -0.1493(10) 0.1094(4) 0.0623(9)
H20 H -0.1324 0.1262 -0.0284
H21 H -0.1457 0.1516 0.129
H22 H -0.2567 0.0853 0.0189
C10B C 0.0161(7) 0.0072(3) -0.0719(6)
N2B N 0.0177(6) -0.0567(2) -0.1642(5)
C11B C -0.1430(9) -0.0946(4) -0.2399(9)
H17B H -0.2285 -0.061 -0.3147
H18B H -0.1379 -0.1375 -0.3005
H19B H -0.1691 -0.1104 -0.1546
C12B C 0.1493(10) -0.1094(4) -0.0623(9)
H20B H 0.1324 -0.1262 0.0284
H21B H 0.1457 -0.1516 -0.129
H22B H 0.2567 -0.0853 -0.0189
H15B H 0.1236 0.0323 -0.0298
H16B H -0.0692 0.0415 -0.1478
Si1B Si 0.28897(18) -0.10921(8) 0.57636(18)
N1B N 0.0898(5) -0.0779(2) 0.4878(5)
C1B C -0.0377(6) -0.1215(3) 0.3672(6)
C2B C -0.1998(7) -0.1124(3) 0.3370(7)
H1B H -0.2218 -0.0794 0.4029
C3B C -0.3287(7) -0.1502(4) 0.2135(8)
H2B H -0.4376 -0.1419 0.1951
C4B C -0.3026(9) -0.1993(3) 0.1171(8)
H3B H -0.3917 -0.2256 0.0336
C5B C -0.1447(8) -0.2095(3) 0.1440(7)
H4B H -0.1244 -0.2428 0.0772
C6B C -0.0153(7) -0.1722(3) 0.2666(6)
H5B H 0.0929 -0.181 0.2835
C7B C 0.3037(7) -0.2073(3) 0.6470(7)
H6B H 0.2353 -0.2387 0.5534
H7B H 0.4183 -0.2237 0.6964
H8B H 0.2649 -0.2105 0.7278
C8B C 0.3936(7) -0.1054(4) 0.4472(7)
H9B H 0.5051 -0.1254 0.5088
H10B H 0.3309 -0.1346 0.3481
H11B H 0.3993 -0.0544 0.4173
C9B C 0.4214(7) -0.0520(3) 0.7598(7)
H12B H 0.4268 -0.0018 0.7252
H13B H 0.3741 -0.0515 0.834
H14B H 0.5324 -0.0729 0.8161
Li1B Li 0.0324(11) -0.0171(5) 0.6358(10)
Li1B_2 Li 0.0324(11) -0.0171(5) -0.3642(10)
N2B_2 N 0.0177(6) -0.0567(2) 0.8358(5)
loop_
_geom_bond_atom_site_label_1
_geom_bond_atom_site_label_2
_geom_bond_site_symmetry_1
_geom_bond_site_symmetry_2
Li1 N1 1_555 1_555
Si1 N1 1_555 1_555
N1 C1 1_555 1_555
N2 Li1 1_555 1_555
C1 C2 1_555 1_555
C2 H1 1_555 1_555
C3 C2 1_555 1_555
H2 C3 1_555 1_555
C4 C3 1_555 1_555
H3 C4 1_555 1_555
C5 C4 1_555 1_555
H4 C5 1_555 1_555
C6 C1 1_555 1_555
H5 C6 1_555 1_555
C7 Si1 1_555 1_555
H6 C7 1_555 1_555
H7 C7 1_555 1_555
H8 C7 1_555 1_555
C8 Si1 1_555 1_555
H9 C8 1_555 1_555
H10 C8 1_555 1_555
H11 C8 1_555 1_555
C9 Si1 1_555 1_555
H12 C9 1_555 1_555
H13 C9 1_555 1_555
H14 C9 1_555 1_555
C10 N2 1_555 1_555
H15 C10 1_555 1_555
H16 C10 1_555 1_555
C11 N2 1_555 1_555
H17 C11 1_555 1_555
H18 C11 1_555 1_555
H19 C11 1_555 1_555
C12 N2 1_555 1_555
H20 C12 1_555 1_555
H21 C12 1_555 1_555
H22 C12 1_555 1_555
C10B C10 1_555 1_555
N2B C10B 1_555 1_555
C11B N2B 1_555 1_555
H17B C11B 1_555 1_555
H18B C11B 1_555 1_555
H19B C11B 1_555 1_555
C12B N2B 1_555 1_555
H20B C12B 1_555 1_555
H21B C12B 1_555 1_555
H22B C12B 1_555 1_555
H15B C10B 1_555 1_555
H16B C10B 1_555 1_555
Si1B N1B 1_555 1_555
N1B Li1 1_555 1_555
C1B N1B 1_555 1_555
C2B C1B 1_555 1_555
H1B C2B 1_555 1_555
C3B C2B 1_555 1_555
H2B C3B 1_555 1_555
C4B C3B 1_555 1_555
H3B C4B 1_555 1_555
C5B C4B 1_555 1_555
H4B C5B 1_555 1_555
C6B C1B 1_555 1_555
H5B C6B 1_555 1_555
C7B Si1B 1_555 1_555
H6B C7B 1_555 1_555
H7B C7B 1_555 1_555
H8B C7B 1_555 1_555
C8B Si1B 1_555 1_555
H9B C8B 1_555 1_555
H10B C8B 1_555 1_555
H11B C8B 1_555 1_555
C9B Si1B 1_555 1_555
H12B C9B 1_555 1_555
H13B C9B 1_555 1_555
H14B C9B 1_555 1_555
Li1B N1 1_555 1_555
Li1B_2 N2B 1_555 1_555
N2B_2 Li1B 1_555 1_555
C5 C6 1_555 1_555
N1B Li1B 1_555 1_555
C5B C6B 1_555 1_555

#END
