
#######################################################################
#
#                 Cambridge Crystallographic Data Centre
#                                CCDC 
#
#######################################################################
#
# If this CIF has been generated from an entry in the Cambridge 
# Structural Database, then it will include bibliographic, chemical, 
# crystal, experimental, refinement or atomic coordinate data resulting 
# from the CCDC's data processing and validation procedures.
#
#######################################################################

data_XENZUN
_symmetry_cell_setting           rhombohedral
_symmetry_space_group_name_H-M   'R -3'
_symmetry_Int_Tables_number      148
_space_group_name_Hall           '-R 3'
loop_
_symmetry_equiv_pos_site_id
_symmetry_equiv_pos_as_xyz
1 x,y,z
2 -y,x-y,z
3 -x+y,-x,z
4 2/3+x,1/3+y,1/3+z
5 2/3-y,1/3+x-y,1/3+z
6 2/3-x+y,1/3-x,1/3+z
7 1/3+x,2/3+y,2/3+z
8 1/3-y,2/3+x-y,2/3+z
9 1/3-x+y,2/3-x,2/3+z
10 -x,-y,-z
11 y,-x+y,-z
12 x-y,x,-z
13 1/3-x,2/3-y,2/3-z
14 1/3+y,2/3-x+y,2/3-z
15 1/3+x-y,2/3+x,2/3-z
16 2/3-x,1/3-y,1/3-z
17 2/3+y,1/3-x+y,1/3-z
18 2/3+x-y,1/3+x,1/3-z
_cell_length_a                   20.463(4)
_cell_length_b                   20.463(4)
_cell_length_c                   27.880(7)
_cell_angle_alpha                90
_cell_angle_beta                 90
_cell_angle_gamma                120
_cell_volume                     10110.3
loop_
_atom_site_label
_atom_site_type_symbol
_atom_site_fract_x
_atom_site_fract_y
_atom_site_fract_z
Na1 Na 0.39915(5) 0.28033(5) 0.13472(3)
V1 V 0.411901(18) 0.098582(18) 0.120184(12)
C1 C 0.24457(12) -0.12733(12) 0.03103(7)
H1 H 0.2879 -0.1014 0.0125
C2 C 0.30926(11) -0.03094(11) 0.09438(7)
C3 C 0.11975(12) -0.23163(12) 0.04161(7)
H2 H 0.0782 -0.2750 0.0298
C4 C 0.18264(11) -0.19122(11) 0.01253(7)
C5 C 0.24282(11) -0.10159(11) 0.07675(7)
C6 C 0.58324(11) 0.17007(11) 0.11739(7)
C7 C 0.58875(11) 0.29575(11) 0.12075(8)
H3 H 0.5363 0.2703 0.1204
C8 C 0.62643(11) 0.25484(10) 0.12099(8)
C9 C 0.05044(12) -0.25286(12) 0.11917(7)
C10 C 0.17916(11) -0.14134(11) 0.10508(7)
H4 H 0.1772 -0.1235 0.1354
C11 C 0.11823(11) -0.20784(11) 0.08820(7)
C12 C 0.18459(12) -0.21324(12) -0.03856(7)
O1 O 0.61340(8) 0.13323(8) 0.12818(6)
O2 O 0.30009(7) 0.01197(8) 0.12355(5)
O3 O 0.51607(7) 0.14182(7) 0.09999(5)
O4 O 0.37403(8) -0.01170(8) 0.07976(5)
O5 O 0.40076(8) 0.15778(8) 0.15147(5)
O6 O 0.05621(7) -0.22687(8) 0.16159(5)
O7 O -0.00501(9) -0.30924(9) 0.10290(6)
O8 O 0.12235(8) -0.26754(8) -0.05443(5)
O9 O 0.24333(9) -0.17899(9) -0.06147(5)
V1P V 0.765249(18) 0.020014(25) 0.213149(12)
V1K V 0.313319(25) 0.411901(18) -0.120184(12)
V1Q V -0.020014(25) -0.254766(18) 0.213149(12)
V1J V 0.098582(18) -0.313319(25) -0.120184(12)
V1B V 0.686681(25) 0.588099(18) 0.120184(12)
V1A V 0.901418(18) 0.313319(25) 0.120184(12)
V1E V 0.353348(25) -0.078568(18) 0.453517(12)
V1G V 0.234751(18) -0.020014(25) -0.213149(12)
C1P C 0.53934(12) -0.03857(17) 0.30230(7)
C1K C 0.37190(17) 0.24457(12) -0.03103(7)
H1P H 0.5653 -0.0560 0.3208
H1K H 0.3893 0.2879 -0.0125
C2P C 0.63573(11) -0.00687(16) 0.23895(7)
C2K C 0.34020(16) 0.30926(11) -0.09438(7)
C3P C 0.43504(12) -0.01805(17) 0.29172(7)
C3K C 0.35138(17) 0.11975(12) -0.04161(7)
H2P H 0.3917 -0.0199 0.3035
H2K H 0.3532 0.0782 -0.0298
C4P C 0.47545(11) -0.04053(16) 0.32080(7)
C4K C 0.37386(16) 0.18264(11) -0.01253(7)
C5P C 0.56508(11) -0.01108(16) 0.25658(7)
C5K C 0.34441(16) 0.24282(11) -0.07675(7)
C6B C 0.58683(16) 0.41676(11) 0.11739(7)
C6A C 0.82993(11) 0.41317(16) 0.11739(7)
C7B C 0.70700(16) 0.41125(11) 0.12075(8)
C7A C 0.70425(11) 0.29300(16) 0.12075(8)
H3B H 0.7340 0.4637 0.1204
H3A H 0.7297 0.2660 0.1204
C8B C 0.62841(15) 0.37357(11) 0.12099(8)
C8A C 0.74516(10) 0.37159(15) 0.12099(8)
C9P C 0.41381(12) 0.03003(17) 0.21416(7)
C9K C 0.30330(17) 0.05044(12) -0.11917(7)
C10P C 0.52533(11) 0.01283(16) 0.22825(7)
C10K C 0.32050(16) 0.17916(11) -0.10508(7)
H4P H 0.5432 0.0326 0.1979
H4K H 0.3007 0.1772 -0.1354
C11P C 0.45883(11) 0.00726(16) 0.24513(7)
C11K C 0.32607(16) 0.11823(11) -0.08820(7)
C12P C 0.45343(12) -0.06450(17) 0.37189(7)
C12K C 0.39783(17) 0.18459(12) 0.03856(7)
O1B O 0.51983(11) 0.38660(8) 0.12818(6)
O1A O 0.86677(8) 0.48017(11) 0.12818(6)
O2P O 0.67864(8) 0.04521(11) 0.20978(5)
O2K O 0.28812(11) 0.30009(7) -0.12355(5)
O3B O 0.62575(10) 0.48393(7) 0.09999(5)
O3A O 0.85818(7) 0.37425(10) 0.09999(5)
O3P O 0.80849(7) -0.04092(10) 0.23334(5)
O3K O 0.37425(10) 0.51607(7) -0.09999(5)
O4P O 0.65497(8) -0.05240(11) 0.25357(5)
O4K O 0.38573(11) 0.37403(8) -0.07976(5)
O5P O 0.82445(8) 0.09035(11) 0.18186(5)
O5K O 0.24298(11) 0.40076(8) -0.15147(5)
O6P O 0.43980(8) 0.05025(11) 0.17174(5)
O6K O 0.28308(11) 0.05621(7) -0.16159(5)
O6B O 0.71692(11) -0.05621(7) 0.16159(5)
O6F O 0.38954(7) 0.43980(8) -0.17174(5)
O7P O 0.35743(9) 0.02910(13) 0.23043(6)
O7K O 0.30423(13) -0.00501(9) -0.10290(6)
O8P O 0.39913(8) -0.05656(11) 0.38776(5)
O8K O 0.38989(11) 0.12235(8) 0.05443(5)
O8C O 0.78902(8) 0.06579(8) 0.27890(5)
O8A O 0.26754(8) 0.38989(11) -0.05443(5)
O9P O 0.48768(9) -0.08899(13) 0.39480(5)
O9K O 0.42232(13) 0.24333(9) 0.06147(5)
loop_
_geom_bond_atom_site_label_1
_geom_bond_atom_site_label_2
_geom_bond_site_symmetry_1
_geom_bond_site_symmetry_2
V1 O2 1_555 1_555
C1 H1 1_555 1_555
C2 C5 1_555 1_555
C3 H2 1_555 1_555
C4 C1 1_555 1_555
C5 C1 1_555 1_555
C6 C8 1_555 1_555
C7 H3 1_555 1_555
C8 C7 1_555 1_555
C9 C11 1_555 1_555
C10 C5 1_555 1_555
H4 C10 1_555 1_555
C11 C3 1_555 1_555
C12 C4 1_555 1_555
O1 C6 1_555 1_555
O2 C2 1_555 1_555
O3 V1 1_555 1_555
O4 V1 1_555 1_555
O5 V1 1_555 1_555
O6 C9 1_555 1_555
O7 C9 1_555 1_555
O8 C12 1_555 1_555
O9 C12 1_555 1_555
V1P O2P 1_555 1_555
V1K O2K 1_555 1_555
V1Q O6 1_555 1_555
V1J O8 1_555 1_555
V1B O3B 1_555 1_555
V1A O3A 1_555 1_555
V1E O8P 1_555 1_555
V1G O6K 1_555 1_555
C1P H1P 1_555 1_555
C1K H1K 1_555 1_555
C2P C5P 1_555 1_555
C2K C5K 1_555 1_555
C3P H2P 1_555 1_555
C3K H2K 1_555 1_555
C4P C1P 1_555 1_555
C4K C1K 1_555 1_555
C5P C1P 1_555 1_555
C5K C1K 1_555 1_555
C6B C8B 1_555 1_555
C6A C8A 1_555 1_555
C7B H3B 1_555 1_555
C7A C8 1_555 1_555
H3A C7A 1_555 1_555
C8B C7 1_555 1_555
C8A C7B 1_555 1_555
C9P C11P 1_555 1_555
C9K C11K 1_555 1_555
C10P C5P 1_555 1_555
C10K C5K 1_555 1_555
H4P C10P 1_555 1_555
H4K C10K 1_555 1_555
C11P C3P 1_555 1_555
C11K C3K 1_555 1_555
C12P C4P 1_555 1_555
C12K C4K 1_555 1_555
O1B C6B 1_555 1_555
O1A C6A 1_555 1_555
O2P C2P 1_555 1_555
O2K C2K 1_555 1_555
O3B C6B 1_555 1_555
O3A C6A 1_555 1_555
O3P V1P 1_555 1_555
O3K V1K 1_555 1_555
O4P V1P 1_555 1_555
O4K V1K 1_555 1_555
O5P V1P 1_555 1_555
O5K V1K 1_555 1_555
O6P V1 1_555 1_555
O6K C9K 1_555 1_555
O6B V1P 1_555 1_555
O6F V1K 1_555 1_555
O7P C9P 1_555 1_555
O7K C9K 1_555 1_555
O8P C12P 1_555 1_555
O8K V1 1_555 1_555
O8C V1P 1_555 1_555
O8A V1K 1_555 1_555
O9P C12P 1_555 1_555
O9K C12K 1_555 1_555
C2 O4 1_555 1_555
C3 C4 1_555 1_555
C6 O3 1_555 1_555
C10 C11 1_555 1_555
C2P O4P 1_555 1_555
C2K O4K 1_555 1_555
C3P C4P 1_555 1_555
C3K C4K 1_555 1_555
C7B C8B 1_555 1_555
C7A C8A 1_555 1_555
C9P O6P 1_555 1_555
C10P C11P 1_555 1_555
C10K C11K 1_555 1_555
C12K O8K 1_555 1_555

#END
