
#######################################################################
#
#                 Cambridge Crystallographic Data Centre
#                                CCDC 
#
#######################################################################
#
# If this CIF has been generated from an entry in the Cambridge 
# Structural Database, then it will include bibliographic, chemical, 
# crystal, experimental, refinement or atomic coordinate data resulting 
# from the CCDC's data processing and validation procedures.
#
#######################################################################

data_XENZAT
_symmetry_cell_setting           monoclinic
_symmetry_space_group_name_H-M   'P 21/n'
_symmetry_Int_Tables_number      14
_space_group_name_Hall           '-P 2yn'
loop_
_symmetry_equiv_pos_site_id
_symmetry_equiv_pos_as_xyz
1 x,y,z
2 1/2-x,1/2+y,1/2-z
3 -x,-y,-z
4 1/2+x,1/2-y,1/2+z
_cell_length_a                   5.9638(15)
_cell_length_b                   12.926(3)
_cell_length_c                   9.457(2)
_cell_angle_alpha                90
_cell_angle_beta                 92.710(5)
_cell_angle_gamma                90
_cell_volume                     728.207
loop_
_atom_site_label
_atom_site_type_symbol
_atom_site_fract_x
_atom_site_fract_y
_atom_site_fract_z
Cu1 Cu 0.13322(13) 0.94209(8) 0.72315(10)
N1 N 0.4481(10) 0.9773(5) 0.7239(7)
C1 C 0.6306(11) 0.9372(5) 0.6645(8)
C2 C 0.8160(11) 0.8348(5) 0.4792(8)
H1 H 0.9473 0.8729 0.4943
C3 C 0.5303(15) 1.0509(6) 0.8158(9)
H2 H 0.4448 1.0911 0.8745
C4 C 0.6274(12) 0.8559(6) 0.5571(8)
N2 N 0.8224(9) 0.9838(5) 0.7127(7)
C5 C 0.7528(14) 1.0559(5) 0.8082(10)
H3 H 0.8464 1.1012 0.8595
C6 C 0.4435(12) 0.7197(6) 0.4220(8)
H4 H 0.3154 0.6797 0.4052
C7 C 0.8040(12) 0.7578(6) 0.3812(8)
H5 H 0.9324 0.7446 0.3321
C8 C 0.4358(12) 0.7991(6) 0.5238(8)
H6 H 0.3032 0.8131 0.5681
N3 N 0.6210(10) 0.6986(5) 0.3490(7)
Cu1_2 Cu 1.13322(13) 0.94209(8) 0.72315(10)
Cu1C Cu 0.63322(13) 0.55791(8) 0.22315(10)
N2_2 N -0.1776(9) 0.9838(5) 0.7127(7)
N3C N 0.1210(10) 0.8014(5) 0.8490(7)
loop_
_geom_bond_atom_site_label_1
_geom_bond_atom_site_label_2
_geom_bond_site_symmetry_1
_geom_bond_site_symmetry_2
Cu1 N1 1_555 1_555
N1 C1 1_555 1_555
C1 C4 1_555 1_555
C2 H1 1_555 1_555
C3 N1 1_555 1_555
H2 C3 1_555 1_555
C4 C2 1_555 1_555
N2 C1 1_555 1_555
C5 C3 1_555 1_555
H3 C5 1_555 1_555
C6 H4 1_555 1_555
C7 C2 1_555 1_555
H5 C7 1_555 1_555
C8 C4 1_555 1_555
H6 C8 1_555 1_555
N3 C6 1_555 1_555
Cu1_2 N2 1_555 1_555
Cu1C N3 1_555 1_555
N2_2 Cu1 1_555 1_555
N3C Cu1 1_555 1_555
N2 C5 1_555 1_555
C6 C8 1_555 1_555
C7 N3 1_555 1_555

#END
