
#######################################################################
#
#                 Cambridge Crystallographic Data Centre
#                                CCDC 
#
#######################################################################
#
# If this CIF has been generated from an entry in the Cambridge 
# Structural Database, then it will include bibliographic, chemical, 
# crystal, experimental, refinement or atomic coordinate data resulting 
# from the CCDC's data processing and validation procedures.
#
#######################################################################

data_XEPBUQ
_symmetry_cell_setting           monoclinic
_symmetry_space_group_name_H-M   'P 21/n'
_symmetry_Int_Tables_number      14
_space_group_name_Hall           '-P 2yn'
loop_
_symmetry_equiv_pos_site_id
_symmetry_equiv_pos_as_xyz
1 x,y,z
2 1/2+x,1/2-y,1/2+z
3 -x,-y,-z
4 1/2-x,1/2+y,1/2-z
_cell_length_a                   12.056(2)
_cell_length_b                   10.058(2)
_cell_length_c                   15.141(3)
_cell_angle_alpha                90
_cell_angle_beta                 90.58(3)
_cell_angle_gamma                90
_cell_volume                     1835.89
loop_
_atom_site_label
_atom_site_type_symbol
_atom_site_fract_x
_atom_site_fract_y
_atom_site_fract_z
Cu1 Cu -0.10400(3) 0.23763(4) 0.20103(3)
N1 N -0.0933(2) 0.1715(3) 0.07357(18)
N2 N -0.0862(3) 0.1039(3) -0.06438(19)
H1 H -0.1041 0.0593 -0.1141
N3 N 0.0314(2) 0.3421(3) 0.1619(2)
N4 N -0.0464(2) 0.2471(3) 0.32721(19)
N5 N -0.1947(2) 0.0895(3) 0.25055(18)
N6 N -0.2869(2) -0.0896(3) 0.30110(18)
C1 C -0.1388(3) 0.0943(4) 0.0136(2)
H2 H -0.2018 0.0382 0.0238
C2 C -0.0015(3) 0.1923(4) -0.0552(2)
C3 C 0.0751(4) 0.2270(5) -0.1277(3)
H3 H 0.0543 0.1790 -0.1802
H4 H 0.0711 0.3208 -0.1391
H5 H 0.1496 0.2036 -0.1109
C4 C -0.0065(3) 0.2333(4) 0.0310(2)
C5 C 0.0593(3) 0.3242(4) 0.0826(2)
H6 H 0.1218 0.3694 0.0578
C6 C 0.0949(3) 0.4328(4) 0.2177(2)
H7 H 0.0513 0.5107 0.2290
H8 H 0.1603 0.4602 0.1869
C7 C 0.1287(3) 0.3703(4) 0.3050(2)
H9 H 0.1773 0.4315 0.3349
C8 C 0.0320(3) 0.3430(4) 0.3653(2)
H10 H 0.0595 0.3092 0.4206
H11 H -0.0061 0.4249 0.3768
C9 C -0.0823(3) 0.1514(4) 0.3744(2)
H12 H -0.0564 0.1396 0.4340
C10 C -0.1611(3) 0.0633(3) 0.3366(2)
C11 C -0.2174(3) -0.0453(4) 0.3667(2)
C12 C -0.2098(4) -0.1103(4) 0.4555(3)
H13 H -0.1564 -0.0642 0.4916
H14 H -0.2810 -0.1071 0.4833
H15 H -0.1874 -0.2013 0.4487
C13 C -0.2688(3) -0.0049(3) 0.2338(2)
H16 H -0.3066 -0.0124 0.1779
O1 O 0.1869(2) 0.2482(3) 0.2945(2)
H17 H 0.2418 0.2610 0.2607
N6C N -0.2131(2) 0.4104(3) 0.19890(18)
Cu1C Cu -0.39600(3) -0.26237(4) 0.29897(3)
Cl1 Cl 0.38881(15) 0.23416(13) 0.10854(9)
O2 O 0.3957(6) 0.3707(4) 0.0933(3)
O3 O 0.4882(5) 0.1735(5) 0.0848(3)
O4 O 0.3028(6) 0.1760(7) 0.0629(4)
O5 O 0.3788(4) 0.2169(4) 0.2011(2)
O6 O 0.3885(3) 0.5087(3) 0.27221(18)
H18 H 0.3745 0.5956 0.2469
H19 H 0.4220 0.4710 0.2216
loop_
_geom_bond_atom_site_label_1
_geom_bond_atom_site_label_2
_geom_bond_site_symmetry_1
_geom_bond_site_symmetry_2
Cu1 N1 1_555 1_555
N1 C1 1_555 1_555
N2 H1 1_555 1_555
N3 Cu1 1_555 1_555
N4 Cu1 1_555 1_555
N5 Cu1 1_555 1_555
N6 C11 1_555 1_555
C1 N2 1_555 1_555
H2 C1 1_555 1_555
C2 N2 1_555 1_555
C3 C2 1_555 1_555
H3 C3 1_555 1_555
H4 C3 1_555 1_555
H5 C3 1_555 1_555
C4 N1 1_555 1_555
C5 N3 1_555 1_555
H6 C5 1_555 1_555
C6 N3 1_555 1_555
H7 C6 1_555 1_555
H8 C6 1_555 1_555
C7 C6 1_555 1_555
H9 C7 1_555 1_555
C8 N4 1_555 1_555
H10 C8 1_555 1_555
H11 C8 1_555 1_555
C9 N4 1_555 1_555
H12 C9 1_555 1_555
C10 N5 1_555 1_555
C11 C10 1_555 1_555
C12 C11 1_555 1_555
H13 C12 1_555 1_555
H14 C12 1_555 1_555
H15 C12 1_555 1_555
C13 N5 1_555 1_555
H16 C13 1_555 1_555
O1 C7 1_555 1_555
H17 O1 1_555 1_555
Cl1 O2 1_555 1_555
O3 Cl1 1_555 1_555
O4 Cl1 1_555 1_555
O5 Cl1 1_555 1_555
O6 H18 1_555 1_555
H19 O6 1_555 1_555
N6C Cu1 1_555 1_555
Cu1C N6 1_555 1_555
N6 C13 1_555 1_555
C2 C4 1_555 1_555
C4 C5 1_555 1_555
C7 C8 1_555 1_555
C9 C10 1_555 1_555

#END
