
#######################################################################
#
#                 Cambridge Crystallographic Data Centre
#                                CCDC 
#
#######################################################################
#
# If this CIF has been generated from an entry in the Cambridge 
# Structural Database, then it will include bibliographic, chemical, 
# crystal, experimental, refinement or atomic coordinate data resulting 
# from the CCDC's data processing and validation procedures.
#
#######################################################################

data_XEPBAX
_symmetry_cell_setting           orthorhombic
_symmetry_space_group_name_H-M   'P n a 21'
_symmetry_Int_Tables_number      33
_space_group_name_Hall           'P 2c -2n'
loop_
_symmetry_equiv_pos_site_id
_symmetry_equiv_pos_as_xyz
1 x,y,z
2 -x,-y,1/2+z
3 1/2-x,1/2+y,1/2+z
4 1/2+x,1/2-y,z
_cell_length_a                   18.079(4)
_cell_length_b                   16.435(3)
_cell_length_c                   11.603(2)
_cell_angle_alpha                90
_cell_angle_beta                 90
_cell_angle_gamma                90
_cell_volume                     3447.58
loop_
_atom_site_label
_atom_site_type_symbol
_atom_site_fract_x
_atom_site_fract_y
_atom_site_fract_z
V1 V 0.30264(3) 0.08712(4) 0.62800(6)
O1 O 0.3038(2) 0.0859(2) 0.4209(3)
O2 O 0.30015(17) -0.02063(17) 0.5326(2)
O3 O 0.30007(17) 0.04415(18) 0.7516(2)
O4 O 0.20176(19) -0.29463(19) 0.1665(2)
O5 O 0.40865(17) 0.10413(19) 0.5985(2)
O6 O 0.2214(2) 0.0737(2) 0.0194(3)
O7 O 0.1912(3) -0.0443(3) -0.0598(3)
O8 O 0.4622(2) 0.1446(3) 0.7617(3)
O9 O 0.2247(2) -0.2901(2) 0.3566(3)
O10 O 0.64580(19) 0.3680(2) 0.7545(3)
O11 O 0.69638(17) 0.3993(2) 0.5856(3)
O12 O 0.5321(3) 0.3621(3) 0.2409(4)
O13 O 0.4681(3) 0.2486(3) 0.2315(3)
C1 C 0.2928(2) 0.0121(3) 0.4338(4)
C2 C 0.2672(2) -0.0401(3) 0.3340(4)
C3 C 0.2513(3) -0.0005(3) 0.2305(4)
H1 H 0.2589 0.0553 0.2241
C4 C 0.2240(2) -0.0443(3) 0.1364(4)
C5 C 0.2131(2) -0.1273(3) 0.1477(4)
H2 H 0.1951 -0.1568 0.0853
C6 C 0.2284(2) -0.1676(3) 0.2505(4)
C7 C 0.2566(2) -0.1230(3) 0.3428(4)
H3 H 0.2683 -0.1495 0.4112
C8 C 0.2114(2) -0.0019(3) 0.0218(4)
C9 C 0.4805(2) 0.2256(3) 0.4726(4)
H4 H 0.4447 0.1948 0.4351
C11 C 0.6472(2) 0.3655(3) 0.6475(4)
C12 C 0.5481(2) 0.2594(3) 0.6451(4)
H8 H 0.5565 0.2516 0.7234
C13 C 0.4518(2) 0.1506(3) 0.6578(4)
C18 C 0.2175(2) -0.2575(3) 0.2608(4)
C19 C 0.5196(3) 0.2853(3) 0.4122(4)
C20 C 0.4951(2) 0.2123(3) 0.5887(4)
C21 C 0.5051(3) 0.2996(4) 0.2836(4)
C29 C 0.5882(2) 0.3174(3) 0.5861(4)
C30 C 0.5741(3) 0.3299(3) 0.4687(4)
H42 H 0.6014 0.3684 0.4281
V1B V 0.19736(3) -0.41288(4) 0.12800(6)
V1C V 0.80264(3) 0.41288(4) 0.62800(6)
O4B O 0.29824(19) 0.20537(19) 0.6665(2)
O11C O 0.19638(17) 0.1007(2) 0.5856(3)
Li1 Li 0.2262(5) 0.1026(5) 0.8606(7)
C10 C 0.5399(4) 0.5579(5) 0.3227(6)
H5 H 0.5795 0.5906 0.2928
H6 H 0.4966 0.5653 0.2759
H7 H 0.5542 0.5017 0.3216
C15 C 0.5856(5) 0.5662(6) 0.5203(9)
H12 H 0.6273 0.5988 0.4979
H13 H 0.5985 0.5097 0.5152
H14 H 0.5720 0.5790 0.5982
C22 C 0.4992(7) 0.6654(6) 0.4511(8)
H21 H 0.5379 0.7008 0.4251
H22 H 0.4870 0.6781 0.5296
H23 H 0.4562 0.6728 0.4035
C23 C 0.4630(5) 0.5342(8) 0.4853(9)
H24 H 0.4510 0.5501 0.5627
H25 H 0.4772 0.4779 0.4845
H26 H 0.4207 0.5418 0.4366
N1 N 0.5233(3) 0.5831(3) 0.4436(4)
C14 C 0.1735(4) 0.3522(5) 0.2960(8)
H9 H 0.1349 0.3199 0.3296
H10 H 0.1540 0.3824 0.2320
H11 H 0.1925 0.3893 0.3527
C16 C 0.2029(5) 0.2409(7) 0.1695(9)
H15 H 0.1649 0.2084 0.2044
H16 H 0.2420 0.2062 0.1425
H17 H 0.1826 0.2706 0.1057
C17 C 0.2927(4) 0.3509(4) 0.2041(6)
H18 H 0.3327 0.3169 0.1787
H19 H 0.3106 0.3886 0.2608
H20 H 0.2730 0.3804 0.1395
C28 C 0.2643(6) 0.2538(6) 0.3519(7)
H39 H 0.2266 0.2204 0.3861
H40 H 0.2830 0.2911 0.4084
H41 H 0.3038 0.2199 0.3245
N2 N 0.2330(3) 0.2990(3) 0.2561(4)
C24 C 0.1037(3) 0.6345(3) 0.5320(5)
H27 H 0.1050 0.6497 0.4522
H28 H 0.1508 0.6124 0.5540
H29 H 0.0932 0.6816 0.5781
C25 C -0.0274(3) 0.6071(4) 0.5205(6)
H30 H -0.0282 0.6208 0.4400
H31 H -0.0359 0.6553 0.5654
H32 H -0.0654 0.5680 0.5365
C26 C 0.0450(4) 0.5498(5) 0.6760(5)
H33 H 0.0077 0.5093 0.6897
H34 H 0.0345 0.5972 0.7215
H35 H 0.0926 0.5285 0.6969
C27 C 0.0624(5) 0.5010(4) 0.4788(6)
H36 H 0.0615 0.5162 0.3989
H37 H 0.0262 0.4593 0.4923
H38 H 0.1106 0.4809 0.4984
N3 N 0.0451(3) 0.5724(3) 0.5503(4)
loop_
_geom_bond_atom_site_label_1
_geom_bond_atom_site_label_2
_geom_bond_site_symmetry_1
_geom_bond_site_symmetry_2
V1 O1 1_555 1_555
O1 C1 1_555 1_555
O2 V1 1_555 1_555
O3 V1 1_555 1_555
O4 C18 1_555 1_555
O5 V1 1_555 1_555
O6 C8 1_555 1_555
O7 C8 1_555 1_555
O8 C13 1_555 1_555
O9 C18 1_555 1_555
O10 C11 1_555 1_555
O11 C11 1_555 1_555
O12 C21 1_555 1_555
O13 C21 1_555 1_555
C1 O2 1_555 1_555
C2 C1 1_555 1_555
C3 C2 1_555 1_555
H1 C3 1_555 1_555
C4 C3 1_555 1_555
C5 C4 1_555 1_555
H2 C5 1_555 1_555
C6 C5 1_555 1_555
C7 C2 1_555 1_555
H3 C7 1_555 1_555
C8 C4 1_555 1_555
C9 H4 1_555 1_555
C10 H5 1_555 1_555
H6 C10 1_555 1_555
H7 C10 1_555 1_555
C11 C29 1_555 1_555
C12 H8 1_555 1_555
C13 O5 1_555 1_555
C14 H9 1_555 1_555
H10 C14 1_555 1_555
H11 C14 1_555 1_555
C15 H12 1_555 1_555
H13 C15 1_555 1_555
H14 C15 1_555 1_555
C16 H15 1_555 1_555
H16 C16 1_555 1_555
H17 C16 1_555 1_555
C17 H18 1_555 1_555
H19 C17 1_555 1_555
H20 C17 1_555 1_555
C18 C6 1_555 1_555
C19 C9 1_555 1_555
C20 C9 1_555 1_555
C21 C19 1_555 1_555
C22 H21 1_555 1_555
H22 C22 1_555 1_555
H23 C22 1_555 1_555
C23 H24 1_555 1_555
H25 C23 1_555 1_555
H26 C23 1_555 1_555
C24 H27 1_555 1_555
H28 C24 1_555 1_555
H29 C24 1_555 1_555
C25 H30 1_555 1_555
H31 C25 1_555 1_555
H32 C25 1_555 1_555
C26 H33 1_555 1_555
H34 C26 1_555 1_555
H35 C26 1_555 1_555
C27 H36 1_555 1_555
H37 C27 1_555 1_555
H38 C27 1_555 1_555
C28 H39 1_555 1_555
H40 C28 1_555 1_555
H41 C28 1_555 1_555
C29 C12 1_555 1_555
C30 C19 1_555 1_555
H42 C30 1_555 1_555
N1 C10 1_555 1_555
N2 C14 1_555 1_555
N3 C24 1_555 1_555
V1B O4 1_555 1_555
V1C O11 1_555 1_555
O4B V1 1_555 1_555
O11C V1 1_555 1_555
C6 C7 1_555 1_555
C12 C20 1_555 1_555
C13 C20 1_555 1_555
C15 N1 1_555 1_555
C16 N2 1_555 1_555
C17 N2 1_555 1_555
C22 N1 1_555 1_555
C23 N1 1_555 1_555
C25 N3 1_555 1_555
C26 N3 1_555 1_555
C27 N3 1_555 1_555
C28 N2 1_555 1_555
C29 C30 1_555 1_555

#END
