
#######################################################################
#
#                 Cambridge Crystallographic Data Centre
#                                CCDC 
#
#######################################################################
#
# If this CIF has been generated from an entry in the Cambridge 
# Structural Database, then it will include bibliographic, chemical, 
# crystal, experimental, refinement or atomic coordinate data resulting 
# from the CCDC's data processing and validation procedures.
#
#######################################################################

data_XEPCIG
_symmetry_cell_setting           triclinic
_symmetry_space_group_name_H-M   'P -1'
_symmetry_Int_Tables_number      2
_space_group_name_Hall           '-P 1'
loop_
_symmetry_equiv_pos_site_id
_symmetry_equiv_pos_as_xyz
1 x,y,z
2 -x,-y,-z
_cell_length_a                   9.478(2)
_cell_length_b                   9.956(3)
_cell_length_c                   11.461(4)
_cell_angle_alpha                85.54(2)
_cell_angle_beta                 82.98(2)
_cell_angle_gamma                63.499(16)
_cell_volume                     960.274
loop_
_atom_site_label
_atom_site_type_symbol
_atom_site_fract_x
_atom_site_fract_y
_atom_site_fract_z
Zn1 Zn 0.61185(5) -0.00405(5) 0.31303(4)
O1 O 0.4908(3) 0.1767(3) 0.4082(3)
O2 O 0.3392(4) 0.2422(4) 0.2625(3)
O3 O -0.2080(3) 0.8760(3) 0.4058(2)
O4 O -0.1470(4) 0.7160(3) 0.2639(3)
O5 O 0.2020(5) 0.7930(4) 0.6601(4)
O6 O 0.3752(4) 0.5684(4) 0.6977(3)
N1 N 0.7690(4) 0.1444(4) -0.0032(3)
N2 N 0.8158(5) 0.0014(4) -0.0359(3)
N3 N 0.6981(4) 0.0383(4) 0.1487(3)
N4 N 0.6243(4) 0.2393(4) -0.2273(3)
N5 N 0.7313(5) 0.1621(5) -0.3164(3)
N6 N 0.5242(4) 0.1075(4) -0.2965(3)
N7 N 0.2660(5) 0.6574(4) 0.6435(4)
C1 C 0.7934(6) 0.2529(6) -0.0884(4)
H1 H 0.8864 0.1998 -0.1424
H2 H 0.8124 0.3235 -0.0468
C2 C 0.6527(6) 0.3377(5) -0.1571(4)
H3 H 0.5595 0.3901 -0.1030
H4 H 0.6704 0.4122 -0.2081
C3 C 0.7710(6) -0.0574(5) 0.0599(4)
H5 H 0.7884 -0.1572 0.0656
C4 C 0.6998(5) 0.1632(5) 0.1050(4)
H6 H 0.6579 0.2528 0.1450
C5 C 0.6660(5) 0.0854(5) -0.3548(4)
H7 H 0.7130 0.0205 -0.4172
C6 C 0.5024(5) 0.2050(5) -0.2171(4)
H8 H 0.4147 0.2443 -0.1618
C7 C 0.2674(4) 0.4159(4) 0.4127(3)
C8 C 0.1273(4) 0.5105(4) 0.3655(3)
H9 H 0.0975 0.4789 0.3025
C9 C 0.0302(4) 0.6522(4) 0.4108(3)
C10 C 0.0757(4) 0.6993(4) 0.5034(4)
H10 H 0.0131 0.7937 0.5344
C11 C 0.2153(5) 0.6042(4) 0.5492(4)
C12 C 0.3122(5) 0.4615(4) 0.5075(3)
H11 H 0.4040 0.3985 0.5419
C13 C 0.3717(5) 0.2676(4) 0.3571(4)
C14 C -0.1188(4) 0.7529(4) 0.3556(3)
Zn1_2 Zn -0.38815(5) 0.99595(5) 0.31303(4)
Zn1A Zn 0.38815(5) 0.00405(5) -0.31303(4)
O3_2 O 0.7920(3) -0.1240(3) 0.4058(2)
N6A N 0.4758(4) -0.1075(4) 0.2965(3)
O7 O 0.3432(6) 0.3706(5) 0.0344(4)
O8 O 0.0646(7) 0.2394(7) 0.2005(5)
O9 O 0.8984(10) 0.5109(7) 0.1032(6)
loop_
_geom_bond_atom_site_label_1
_geom_bond_atom_site_label_2
_geom_bond_site_symmetry_1
_geom_bond_site_symmetry_2
Zn1 O1 1_555 1_555
O1 C13 1_555 1_555
O2 C13 1_555 1_555
O3 C14 1_555 1_555
O4 C14 1_555 1_555
O5 N7 1_555 1_555
O6 N7 1_555 1_555
N1 N2 1_555 1_555
N2 C3 1_555 1_555
N3 Zn1 1_555 1_555
N4 N5 1_555 1_555
N5 C5 1_555 1_555
N6 C5 1_555 1_555
N7 C11 1_555 1_555
C1 N1 1_555 1_555
H1 C1 1_555 1_555
H2 C1 1_555 1_555
C2 N4 1_555 1_555
H3 C2 1_555 1_555
H4 C2 1_555 1_555
C3 N3 1_555 1_555
H5 C3 1_555 1_555
C4 N1 1_555 1_555
H6 C4 1_555 1_555
C5 H7 1_555 1_555
C6 N4 1_555 1_555
H8 C6 1_555 1_555
C7 C8 1_555 1_555
C8 H9 1_555 1_555
C9 C8 1_555 1_555
C10 C9 1_555 1_555
H10 C10 1_555 1_555
C11 C10 1_555 1_555
C12 C7 1_555 1_555
H11 C12 1_555 1_555
C13 C7 1_555 1_555
C14 C9 1_555 1_555
Zn1_2 O3 1_555 1_555
Zn1A N6 1_555 1_555
O3_2 Zn1 1_555 1_555
N6A Zn1 1_555 1_555
N3 C4 1_555 1_555
N6 C6 1_555 1_555
C1 C2 1_555 1_555
C11 C12 1_555 1_555

#END
