
#######################################################################
#
#                 Cambridge Crystallographic Data Centre
#                                CCDC 
#
#######################################################################
#
# If this CIF has been generated from an entry in the Cambridge 
# Structural Database, then it will include bibliographic, chemical, 
# crystal, experimental, refinement or atomic coordinate data resulting 
# from the CCDC's data processing and validation procedures.
#
#######################################################################

data_XEPCOL
_symmetry_cell_setting           monoclinic
_symmetry_space_group_name_H-M   'C 2/c'
_symmetry_Int_Tables_number      15
_space_group_name_Hall           '-C 2yn'
loop_
_symmetry_equiv_pos_site_id
_symmetry_equiv_pos_as_xyz
1 x,y,z
2 1/2+x,1/2+y,z
3 -x,y,1/2-z
4 1/2-x,1/2+y,1/2-z
5 -x,-y,-z
6 1/2-x,1/2-y,-z
7 x,-y,1/2+z
8 1/2+x,1/2-y,1/2+z
_cell_length_a                   21.397(5)
_cell_length_b                   14.159(3)
_cell_length_c                   20.368(5)
_cell_angle_alpha                90
_cell_angle_beta                 120.154(4)
_cell_angle_gamma                90
_cell_volume                     5335.66
loop_
_atom_site_label
_atom_site_type_symbol
_atom_site_fract_x
_atom_site_fract_y
_atom_site_fract_z
O6 O 0.5000 0.8750(6) 0.2500
O7 O 0.9562(8) 0.8868(10) 0.1873(8)
Co1 Co 0.17773(4) 0.61815(5) 0.24049(4)
O1 O 0.2031(2) 0.4907(3) 0.3055(2)
O2 O 0.1189(3) 0.4896(3) 0.3384(3)
O3 O 0.1449(2) 0.7420(3) 0.17348(19)
O4 O 0.0745(3) 0.8092(3) 0.2108(3)
O5 O 0.08082(19) 0.6245(3) 0.24019(19)
H1 H 0.0703 0.5819 0.2625
H2 H 0.0516 0.6697 0.2177
N1 N 0.1278(2) 0.5369(3) 0.1391(2)
N2 N 0.2597(2) 0.1856(3) 0.1510(2)
N3 N 0.2752(2) 0.6178(3) 0.2354(2)
C1 C 0.0959(3) 0.4549(4) 0.1347(3)
H3 H 0.0915 0.4358 0.1758
C2 C 0.0691(3) 0.3970(4) 0.0723(3)
H4 H 0.0471 0.3401 0.0720
C3 C 0.0746(3) 0.4225(5) 0.0106(3)
C4 C 0.1055(3) 0.5078(5) 0.0140(3)
H5 H 0.1097 0.5287 -0.0270
C5 C 0.1309(3) 0.5635(4) 0.0783(3)
H6 H 0.1509 0.6220 0.0790
C6 C 0.0495(3) 0.3578(5) -0.0570(3)
H7 H 0.0180 0.3924 -0.1032
H8 H 0.0222 0.3059 -0.0529
C7 C 0.1150(3) 0.3183(5) -0.0616(3)
H9 H 0.0979 0.2739 -0.1033
H10 H 0.1392 0.3696 -0.0713
C8 C 0.1673(3) 0.2698(5) 0.0111(3)
C9 C 0.1530(3) 0.1819(5) 0.0293(3)
H11 H 0.1121 0.1489 -0.0055
C10 C 0.1989(3) 0.1434(4) 0.0982(3)
H12 H 0.1875 0.0844 0.1094
C11 C 0.2742(3) 0.2708(4) 0.1332(3)
H13 H 0.3163 0.3017 0.1683
C12 C 0.2289(3) 0.3145(4) 0.0643(3)
H14 H 0.2403 0.3742 0.0543
C13 C 0.3024(3) 0.5409(5) 0.2219(3)
H15 H 0.2794 0.4836 0.2175
C14 C 0.3621(3) 0.5409(5) 0.2141(4)
H16 H 0.3778 0.4848 0.2034
C15 C 0.3994(3) 0.6235(5) 0.2221(3)
C16 C 0.3726(3) 0.7033(5) 0.2387(4)
H17 H 0.3968 0.7606 0.2473
C17 C 0.3108(3) 0.6982(4) 0.2425(3)
H18 H 0.2924 0.7538 0.2505
C18 C 0.4663(3) 0.6272(5) 0.2137(4)
H19 H 0.4659 0.5731 0.1842
H20 H 0.4643 0.6837 0.1858
C19 C 0.1760(4) 0.4599(4) 0.3432(3)
C20 C 0.2149(5) 0.3825(5) 0.4001(3)
C21 C 0.1741(5) 0.3322(5) 0.4259(4)
C22 C 0.2109(5) 0.2566(7) 0.4830(6)
C23 C 0.2784(6) 0.3629(10) 0.4321(8)
C24 C 0.1865(7) 0.2068(10) 0.5110(8)
C25 C 0.0991(3) 0.8002(4) 0.1664(3)
C26 C 0.0681(3) 0.8660(4) 0.0986(3)
C27 C 0.0319(4) 0.9459(5) 0.0976(4)
C28 C 0.0002(4) 1.0116(5) 0.0339(4)
C29 C 0.0630(8) 0.8502(8) 0.0371(8)
C30 C -0.0292(8) 1.0909(8) 0.0275(7)
Co1E Co 0.32227(4) -0.11815(5) 0.75951(4)
Co1C Co 0.32227(4) 0.11815(5) 0.25951(4)
Co1D Co -0.17773(4) 1.38185(5) -0.24049(4)
Co1B Co 0.82227(4) 0.61815(5) 0.25951(4)
Co1C_2 Co 0.32227(4) 1.11815(5) 0.25951(4)
O1E O 0.2969(2) 0.0093(3) 0.6945(2)
O2E O 0.3811(3) 0.0104(3) 0.6616(3)
O3D O -0.1449(2) 1.2580(3) -0.17348(19)
O3E O 0.3551(2) -0.2420(3) 0.82652(19)
O4D O -0.0745(3) 1.1908(3) -0.2108(3)
O5E O 0.41918(19) -0.1245(3) 0.75981(19)
H1E H 0.4297 -0.0819 0.7375
H2E H 0.4484 -0.1697 0.7823
N1C N 0.3722(2) 1.0369(3) 0.3609(2)
N1E N 0.3722(2) -0.0369(3) 0.8609(2)
N2C N 0.2403(2) 0.6856(3) 0.3490(2)
N2F N 0.2597(2) -0.1856(3) 0.6510(2)
N3B N 0.7248(2) 0.6178(3) 0.2646(2)
N3E N 0.2248(2) -0.1178(3) 0.7646(2)
C1C C 0.4041(3) 0.9549(4) 0.3653(3)
H3C H 0.4085 0.9358 0.3242
C2C C 0.4309(3) 0.8970(4) 0.4277(3)
H4C H 0.4529 0.8401 0.4280
C3C C 0.4254(3) 0.9225(5) 0.4894(3)
C4C C 0.3945(3) 1.0078(5) 0.4860(3)
H5C H 0.3903 1.0287 0.5270
C5C C 0.3691(3) 1.0635(4) 0.4217(3)
H6C H 0.3491 1.1220 0.4210
C6C C 0.4505(3) 0.8578(5) 0.5570(3)
H7C H 0.4820 0.8924 0.6032
H8C H 0.4778 0.8059 0.5529
C7C C 0.3850(3) 0.8183(5) 0.5616(3)
H9C H 0.4021 0.7739 0.6033
H10C H 0.3608 0.8696 0.5713
C8C C 0.3327(3) 0.7698(5) 0.4889(3)
C9C C 0.3470(3) 0.6819(5) 0.4707(3)
H11C H 0.3879 0.6489 0.5055
C10C C 0.3011(3) 0.6434(4) 0.4018(3)
H12C H 0.3125 0.5844 0.3906
C11C C 0.2258(3) 0.7708(4) 0.3668(3)
H13C H 0.1837 0.8017 0.3317
C12C C 0.2711(3) 0.8145(4) 0.4357(3)
H14C H 0.2597 0.8742 0.4457
C13B C 0.6976(3) 0.5409(5) 0.2781(3)
H15B H 0.7206 0.4836 0.2825
C14B C 0.6379(3) 0.5409(5) 0.2859(4)
H16B H 0.6222 0.4848 0.2966
C15B C 0.6006(3) 0.6235(5) 0.2779(3)
C16B C 0.6274(3) 0.7033(5) 0.2613(4)
H17B H 0.6032 0.7606 0.2527
C17B C 0.6892(3) 0.6982(4) 0.2575(3)
H18B H 0.7076 0.7538 0.2495
C18B C 0.5337(3) 0.6272(5) 0.2863(4)
H19B H 0.5341 0.5731 0.3158
H20B H 0.5357 0.6837 0.3142
C19E C 0.3240(4) 0.0401(4) 0.6568(3)
C20E C 0.2851(5) 0.1175(5) 0.5999(3)
C21E C 0.3259(5) 0.1678(5) 0.5741(4)
C22E C 0.2891(5) 0.2434(7) 0.5170(6)
C23E C 0.2216(6) 0.1371(10) 0.5679(8)
C24E C 0.3135(7) 0.2932(10) 0.4890(8)
C25D C -0.0991(3) 1.1998(4) -0.1664(3)
C26D C -0.0681(3) 1.1340(4) -0.0986(3)
C27D C -0.0319(4) 1.0541(5) -0.0976(4)
C28D C -0.0002(4) 0.9884(5) -0.0339(4)
C29D C -0.0630(8) 1.1498(8) -0.0371(8)
C30D C 0.0292(8) 0.9091(8) -0.0275(7)
loop_
_geom_bond_atom_site_label_1
_geom_bond_atom_site_label_2
_geom_bond_site_symmetry_1
_geom_bond_site_symmetry_2
Co1 O1 1_555 1_555
O1 C19 1_555 1_555
O2 C19 1_555 1_555
O3 Co1 1_555 1_555
O4 C25 1_555 1_555
O5 Co1 1_555 1_555
H1 O5 1_555 1_555
H2 O5 1_555 1_555
N1 Co1 1_555 1_555
N2 C10 1_555 1_555
N3 Co1 1_555 1_555
C1 N1 1_555 1_555
H3 C1 1_555 1_555
C2 C1 1_555 1_555
H4 C2 1_555 1_555
C3 C2 1_555 1_555
C4 C3 1_555 1_555
H5 C4 1_555 1_555
C5 N1 1_555 1_555
H6 C5 1_555 1_555
C6 C3 1_555 1_555
H7 C6 1_555 1_555
H8 C6 1_555 1_555
C7 C6 1_555 1_555
H9 C7 1_555 1_555
H10 C7 1_555 1_555
C8 C7 1_555 1_555
C9 C8 1_555 1_555
H11 C9 1_555 1_555
C10 C9 1_555 1_555
H12 C10 1_555 1_555
C11 N2 1_555 1_555
H13 C11 1_555 1_555
C12 C8 1_555 1_555
H14 C12 1_555 1_555
C13 N3 1_555 1_555
H15 C13 1_555 1_555
C14 C13 1_555 1_555
H16 C14 1_555 1_555
C15 C14 1_555 1_555
C16 C15 1_555 1_555
H17 C16 1_555 1_555
C17 N3 1_555 1_555
H18 C17 1_555 1_555
C18 C15 1_555 1_555
H19 C18 1_555 1_555
H20 C18 1_555 1_555
C19 C20 1_555 1_555
C20 C21 1_555 1_555
C21 C22 1_555 1_555
C22 C24 1_555 1_555
C23 C20 1_555 1_555
C24 C23E 1_555 1_555
C25 O3 1_555 1_555
C26 C25 1_555 1_555
C27 C26 1_555 1_555
C28 C27 1_555 1_555
C29 C26 1_555 1_555
C30 C28 1_555 1_555
Co1E O1E 1_555 1_555
Co1C N2 1_555 1_555
Co1D O3D 1_555 1_555
Co1B N3B 1_555 1_555
Co1C_2 N1C 1_555 1_555
O1E C19E 1_555 1_555
O2E C19E 1_555 1_555
O3D C25D 1_555 1_555
O3E Co1E 1_555 1_555
O4D C25D 1_555 1_555
O5E Co1E 1_555 1_555
H1E O5E 1_555 1_555
H2E O5E 1_555 1_555
N1C C1C 1_555 1_555
N1E Co1E 1_555 1_555
N2C Co1 1_555 1_555
N2F Co1E 1_555 1_555
N3B C13B 1_555 1_555
N3E Co1E 1_555 1_555
C1C H3C 1_555 1_555
C2C C1C 1_555 1_555
H4C C2C 1_555 1_555
C3C C2C 1_555 1_555
C4C C3C 1_555 1_555
H5C C4C 1_555 1_555
C5C N1C 1_555 1_555
H6C C5C 1_555 1_555
C6C C3C 1_555 1_555
H7C C6C 1_555 1_555
H8C C6C 1_555 1_555
C7C C6C 1_555 1_555
H9C C7C 1_555 1_555
H10C C7C 1_555 1_555
C8C C7C 1_555 1_555
C9C C8C 1_555 1_555
H11C C9C 1_555 1_555
C10C N2C 1_555 1_555
H12C C10C 1_555 1_555
C11C N2C 1_555 1_555
H13C C11C 1_555 1_555
C12C C8C 1_555 1_555
H14C C12C 1_555 1_555
C13B H15B 1_555 1_555
C14B C13B 1_555 1_555
H16B C14B 1_555 1_555
C15B C14B 1_555 1_555
C16B C15B 1_555 1_555
H17B C16B 1_555 1_555
C17B N3B 1_555 1_555
H18B C17B 1_555 1_555
C18B C18 1_555 1_555
H19B C18B 1_555 1_555
H20B C18B 1_555 1_555
C19E C20E 1_555 1_555
C20E C21E 1_555 1_555
C21E C22E 1_555 1_555
C22E C22 1_555 1_555
C23E C20E 1_555 1_555
C24E C23 1_555 1_555
C25D C26D 1_555 1_555
C26D C27D 1_555 1_555
C27D C28D 1_555 1_555
C28D C28 1_555 1_555
C29D C30 1_555 1_555
C30D C29 1_555 1_555
C4 C5 1_555 1_555
C11 C12 1_555 1_555
C16 C17 1_555 1_555
C4C C5C 1_555 1_555
C9C C10C 1_555 1_555
C11C C12C 1_555 1_555
C15B C18B 1_555 1_555
C16B C17B 1_555 1_555
C22E C24E 1_555 1_555
C26D C29D 1_555 1_555
C28D C30D 1_555 1_555

#END
