
#######################################################################
#
#                 Cambridge Crystallographic Data Centre
#                                CCDC 
#
#######################################################################
#
# If this CIF has been generated from an entry in the Cambridge 
# Structural Database, then it will include bibliographic, chemical, 
# crystal, experimental, refinement or atomic coordinate data resulting 
# from the CCDC's data processing and validation procedures.
#
#######################################################################

data_XEPCIF
_symmetry_cell_setting           orthorhombic
_symmetry_space_group_name_H-M   'P c c n'
_symmetry_Int_Tables_number      56
_space_group_name_Hall           '-P 2ab 2ac'
loop_
_symmetry_equiv_pos_site_id
_symmetry_equiv_pos_as_xyz
1 x,y,z
2 1/2-x,1/2-y,z
3 -x,1/2+y,1/2-z
4 1/2+x,-y,1/2-z
5 -x,-y,-z
6 1/2+x,1/2+y,-z
7 x,1/2-y,1/2+z
8 1/2-x,y,1/2+z
_cell_length_a                   19.4595(17)
_cell_length_b                   13.1661(11)
_cell_length_c                   16.1182(14)
_cell_angle_alpha                90
_cell_angle_beta                 90
_cell_angle_gamma                90
_cell_volume                     4129.58
loop_
_atom_site_label
_atom_site_type_symbol
_atom_site_fract_x
_atom_site_fract_y
_atom_site_fract_z
Ni1 Ni 0.50341(2) 0.46632(3) 0.16302(3)
O1 O 0.43324(12) 0.45087(17) 0.25659(14)
O2 O 0.33231(14) 0.4732(2) 0.19369(18)
O3 O 0.45928(13) 0.11591(16) 0.31476(14)
O4 O 0.42367(12) 0.02600(16) 0.42055(14)
O5 O 0.42735(13) 0.52723(18) 0.08508(15)
H1 H 0.4316(16) 0.502(2) 0.0367(10)
H2 H 0.3922(12) 0.509(3) 0.1126(17)
N1 N 0.57629(14) 0.40021(19) 0.24344(16)
N2 N 0.49097(15) 0.3250(2) 0.11015(17)
C1 C 0.36900(19) 0.4599(2) 0.2562(2)
C2 C 0.33302(18) 0.4545(3) 0.3385(2)
C3 C 0.2931(2) 0.5382(3) 0.3620(3)
H3 H 0.2901 0.5939 0.3267
C4 C 0.2583(2) 0.5396(3) 0.4364(3)
H4 H 0.2323 0.5961 0.4511
C5 C 0.2619(2) 0.4579(3) 0.4888(3)
H5 H 0.2384 0.4589 0.5391
C6 C 0.30036(19) 0.3743(3) 0.4669(2)
H6 H 0.3025 0.3191 0.5029
C7 C 0.33632(18) 0.3704(2) 0.3916(2)
C8 C 0.37607(18) 0.2803(2) 0.3683(2)
H7 H 0.3993 0.2836 0.3179
C9 C 0.38271(18) 0.1950(3) 0.4104(2)
H8 H 0.3604 0.1888 0.4611
C10 C 0.42418(17) 0.1092(2) 0.3800(2)
C11 C 0.63884(19) 0.4350(3) 0.2594(2)
H9 H 0.6524 0.4953 0.2340
C12 C 0.68532(18) 0.3871(3) 0.3115(2)
H10 H 0.7282 0.4158 0.3211
C13 C 0.66767(17) 0.2963(2) 0.3491(2)
C14 C 0.60247(17) 0.2594(3) 0.3319(2)
H11 H 0.5878 0.1987 0.3555
C15 C 0.55964(19) 0.3125(3) 0.2800(2)
H12 H 0.5162 0.2857 0.2697
C16 C 0.71124(16) 0.2407(3) 0.4114(2)
H13 H 0.7038 0.1686 0.4034
H14 H 0.6941 0.2575 0.4662
C17 C 0.5444(2) 0.2836(3) 0.0718(2)
H15 H 0.5817 0.3249 0.0590
C18 C 0.5476(2) 0.1830(3) 0.0500(3)
H16 H 0.5866 0.1571 0.0243
C19 C 0.4923(2) 0.1206(3) 0.0667(2)
C20 C 0.4367(2) 0.1633(3) 0.1047(2)
H17 H 0.3984 0.1239 0.1171
C21 C 0.43775(19) 0.2650(2) 0.1248(2)
H18 H 0.3991 0.2929 0.1498
C22 C 0.4933(2) 0.0090(3) 0.0443(3)
H19 H 0.5286 -0.0248 0.0768
H20 H 0.4494 -0.0210 0.0590
Ni1B Ni 0.49659(2) 0.96632(3) 0.33698(3)
Ni1B_2 Ni 0.49659(2) -0.03368(3) 0.33698(3)
Ni1A Ni 0.99659(2) 0.03368(3) 0.16302(3)
Ni1D Ni 0.49659(2) -0.46632(3) -0.16302(3)
O1B O 0.56676(12) 0.95087(17) 0.24341(14)
O2B O 0.66769(14) 0.9732(2) 0.30631(18)
O3B O 0.54072(13) 0.61591(16) 0.18524(14)
O3_2 O 0.45928(13) 1.11591(16) 0.31476(14)
O4B O 0.57633(12) 0.52600(16) 0.07945(14)
O4_2 O 0.42367(12) 1.02600(16) 0.42055(14)
O5B O 0.57265(13) 1.02723(18) 0.41492(15)
H1B H 0.5684(16) 1.002(2) 0.4633(10)
H2B H 0.6078(12) 1.009(3) 0.3874(17)
N1A N 0.92371(14) 0.09979(19) 0.24344(16)
N1B N 0.42371(14) 0.90021(19) 0.25656(16)
N2D N 0.50903(15) -0.3250(2) -0.11015(17)
N2B N 0.50903(15) 0.8250(2) 0.38985(17)
C1B C 0.63100(19) 0.9599(2) 0.2438(2)
C2B C 0.66698(18) 0.9545(3) 0.1615(2)
C3B C 0.7069(2) 1.0382(3) 0.1380(3)
H3B H 0.7099 1.0939 0.1733
C4B C 0.7417(2) 1.0396(3) 0.0636(3)
H4B H 0.7677 1.0961 0.0489
C5B C 0.7381(2) 0.9579(3) 0.0112(3)
H5B H 0.7616 0.9589 -0.0391
C6B C 0.69964(19) 0.8743(3) 0.0331(2)
H6B H 0.6975 0.8191 -0.0029
C7B C 0.66368(18) 0.8704(2) 0.1084(2)
C8B C 0.62393(18) 0.7803(2) 0.1317(2)
H7B H 0.6007 0.7836 0.1821
C9B C 0.61729(18) 0.6950(3) 0.0896(2)
H8B H 0.6396 0.6888 0.0389
C10B C 0.57582(17) 0.6092(2) 0.1200(2)
C11A C 0.86116(19) 0.0650(3) 0.2594(2)
H9A H 0.8476 0.0047 0.2340
C12A C 0.81468(18) 0.1129(3) 0.3115(2)
H10A H 0.7718 0.0842 0.3211
C13A C 0.83233(17) 0.2037(2) 0.3491(2)
C14A C 0.89753(17) 0.2406(3) 0.3319(2)
H11A H 0.9122 0.3013 0.3555
C15A C 0.94036(19) 0.1875(3) 0.2800(2)
H12A H 0.9838 0.2143 0.2697
C16A C 0.78876(16) 0.2593(3) 0.4114(2)
H13A H 0.7962 0.3314 0.4034
H14A H 0.8059 0.2425 0.4662
C17D C 0.4556(2) -0.2836(3) -0.0718(2)
H15D H 0.4183 -0.3249 -0.0590
C18D C 0.4524(2) -0.1830(3) -0.0500(3)
H16D H 0.4134 -0.1571 -0.0243
C19D C 0.5077(2) -0.1206(3) -0.0667(2)
C20D C 0.5633(2) -0.1633(3) -0.1047(2)
H17D H 0.6016 -0.1239 -0.1171
C21D C 0.56225(19) -0.2650(2) -0.1248(2)
H18D H 0.6009 -0.2929 -0.1498
C22D C 0.5067(2) -0.0090(3) -0.0443(3)
H19D H 0.4714 0.0248 -0.0768
H20D H 0.5506 0.0210 -0.0590
O6 O 0.2500 0.2500 0.6591(10)
O7? O 0.2771(7) 0.3373(10) 0.6924(12)
loop_
_geom_bond_atom_site_label_1
_geom_bond_atom_site_label_2
_geom_bond_site_symmetry_1
_geom_bond_site_symmetry_2
Ni1 O1 1_555 1_555
O1 C1 1_555 1_555
O2 C1 1_555 1_555
O3 C10 1_555 1_555
O4 C10 1_555 1_555
O5 Ni1 1_555 1_555
H1 O5 1_555 1_555
H2 O5 1_555 1_555
N1 Ni1 1_555 1_555
N2 Ni1 1_555 1_555
C1 C2 1_555 1_555
C2 C3 1_555 1_555
C3 H3 1_555 1_555
C4 C3 1_555 1_555
H4 C4 1_555 1_555
C5 C4 1_555 1_555
H5 C5 1_555 1_555
C6 C5 1_555 1_555
H6 C6 1_555 1_555
C7 C2 1_555 1_555
C8 C7 1_555 1_555
H7 C8 1_555 1_555
C9 C8 1_555 1_555
H8 C9 1_555 1_555
C10 C9 1_555 1_555
C11 N1 1_555 1_555
H9 C11 1_555 1_555
C12 C11 1_555 1_555
H10 C12 1_555 1_555
C13 C12 1_555 1_555
C14 C13 1_555 1_555
H11 C14 1_555 1_555
C15 N1 1_555 1_555
H12 C15 1_555 1_555
C16 C13 1_555 1_555
H13 C16 1_555 1_555
H14 C16 1_555 1_555
C17 N2 1_555 1_555
H15 C17 1_555 1_555
C18 C17 1_555 1_555
H16 C18 1_555 1_555
C19 C18 1_555 1_555
C20 C19 1_555 1_555
H17 C20 1_555 1_555
C21 N2 1_555 1_555
H18 C21 1_555 1_555
C22 C19 1_555 1_555
H19 C22 1_555 1_555
H20 C22 1_555 1_555
Ni1B O1B 1_555 1_555
Ni1B_2 O3 1_555 1_555
Ni1A N1A 1_555 1_555
Ni1D N2D 1_555 1_555
O1B C1B 1_555 1_555
O2B C1B 1_555 1_555
O3B Ni1 1_555 1_555
O3_2 Ni1B 1_555 1_555
O4B Ni1 1_555 1_555
O4_2 Ni1B 1_555 1_555
O5B Ni1B 1_555 1_555
H1B O5B 1_555 1_555
H2B O5B 1_555 1_555
N1A C11A 1_555 1_555
N1B Ni1B 1_555 1_555
N2D C17D 1_555 1_555
N2B Ni1B 1_555 1_555
C1B C2B 1_555 1_555
C2B C3B 1_555 1_555
C3B H3B 1_555 1_555
C4B C3B 1_555 1_555
H4B C4B 1_555 1_555
C5B C4B 1_555 1_555
H5B C5B 1_555 1_555
C6B C5B 1_555 1_555
H6B C6B 1_555 1_555
C7B C2B 1_555 1_555
C8B C7B 1_555 1_555
H7B C8B 1_555 1_555
C9B C8B 1_555 1_555
H8B C9B 1_555 1_555
C10B O3B 1_555 1_555
C11A H9A 1_555 1_555
C12A C11A 1_555 1_555
H10A C12A 1_555 1_555
C13A C12A 1_555 1_555
C14A C13A 1_555 1_555
H11A C14A 1_555 1_555
C15A N1A 1_555 1_555
H12A C15A 1_555 1_555
C16A C16 1_555 1_555
H13A C16A 1_555 1_555
H14A C16A 1_555 1_555
C17D H15D 1_555 1_555
C18D C17D 1_555 1_555
H16D C18D 1_555 1_555
C19D C18D 1_555 1_555
C20D C19D 1_555 1_555
H17D C20D 1_555 1_555
C21D N2D 1_555 1_555
H18D C21D 1_555 1_555
C22D C22 1_555 1_555
H19D C22D 1_555 1_555
H20D C22D 1_555 1_555
O4 Ni1B_2 1_555 1_555
C6 C7 1_555 1_555
C14 C15 1_555 1_555
C20 C21 1_555 1_555
O4B C10B 1_555 1_555
C6B C7B 1_555 1_555
C9B C10B 1_555 1_555
C13A C16A 1_555 1_555
C14A C15A 1_555 1_555
C19D C22D 1_555 1_555
C20D C21D 1_555 1_555

#END
