
#######################################################################
#
#                 Cambridge Crystallographic Data Centre
#                                CCDC 
#
#######################################################################
#
# If this CIF has been generated from an entry in the Cambridge 
# Structural Database, then it will include bibliographic, chemical, 
# crystal, experimental, refinement or atomic coordinate data resulting 
# from the CCDC's data processing and validation procedures.
#
#######################################################################

data_XEPCOM
_symmetry_cell_setting           monoclinic
_symmetry_space_group_name_H-M   'C 2/c'
_symmetry_Int_Tables_number      15
_space_group_name_Hall           '-C 2yn'
loop_
_symmetry_equiv_pos_site_id
_symmetry_equiv_pos_as_xyz
1 x,y,z
2 -x,y,1/2-z
3 1/2+x,1/2+y,z
4 1/2-x,1/2+y,1/2-z
5 -x,-y,-z
6 x,-y,1/2+z
7 1/2-x,1/2-y,-z
8 1/2+x,1/2-y,1/2+z
_cell_length_a                   20.910(4)
_cell_length_b                   10.2807(13)
_cell_length_c                   20.029(3)
_cell_angle_alpha                90
_cell_angle_beta                 120.564(3)
_cell_angle_gamma                90
_cell_volume                     3707.41
loop_
_atom_site_label
_atom_site_type_symbol
_atom_site_fract_x
_atom_site_fract_y
_atom_site_fract_z
Zn1 Zn 0.13166(3) 0.42564(4) 0.41673(3)
I1 I 0.03956(2) -0.07719(3) 0.097894(19)
O1 O 0.10775(17) 0.2820(3) 0.33233(19)
O2 O 0.14484(19) 0.1816(3) 0.44223(18)
O3 O 0.1465(3) -0.3007(3) 0.4511(2)
O4 O 0.10635(18) -0.4154(3) 0.3451(2)
O5 O 0.24059(18) 0.4371(3) 0.4370(2)
H1 H 0.260(2) 0.514(3) 0.437(3)
H2 H 0.2796(19) 0.399(4) 0.478(2)
N1 N 0.21217(19) 0.4930(4) 0.6544(2)
N2 N 0.2006(3) 0.3617(4) 0.6572(2)
N3 N 0.1730(2) 0.4235(3) 0.5379(2)
N4 N 0.1021(2) 0.5991(4) 0.6839(2)
N5 N 0.0855(2) 0.6864(4) 0.6258(3)
N6 N -0.0186(2) 0.5935(3) 0.6115(2)
C1 C 0.2340(3) 0.5774(5) 0.7211(3)
H5 H 0.2402 0.6654 0.7079
H6 H 0.2815 0.5486 0.7637
C2 C 0.1776(3) 0.5777(5) 0.7469(3)
H7 H 0.1799 0.4949 0.7713
H8 H 0.1906 0.6453 0.7855
C3 C 0.1781(3) 0.3268(5) 0.5863(3)
H9 H 0.1662 0.2410 0.5699
C4 C 0.1960(3) 0.5252(5) 0.5848(3)
H10 H 0.2002 0.6090 0.5699
C5 C 0.0135(3) 0.6793(6) 0.5841(3)
H11 H -0.0143 0.7284 0.5394
C6 C 0.0401(2) 0.5501(5) 0.6747(3)
H12 H 0.0380 0.4915 0.7089
C7 C 0.1108(2) 0.0511(4) 0.3315(2)
C8 C 0.1229(2) -0.0655(4) 0.3725(3)
H13 H 0.1390 -0.0628 0.4251
C9 C 0.1113(2) -0.1846(4) 0.3357(2)
C10 C 0.0878(2) -0.1887(4) 0.2570(3)
H14 H 0.0806 -0.2681 0.2319
C11 C 0.0754(3) -0.0721(4) 0.2164(3)
C12 C 0.0862(2) 0.0474(4) 0.2532(3)
H15 H 0.0770 0.1243 0.2252
C13 C 0.1221(2) 0.1804(4) 0.3721(3)
C14 C 0.1225(2) -0.3080(4) 0.3810(3)
Zn1_2 Zn 0.13166(3) -0.57436(4) 0.41673(3)
Zn1D Zn -0.13166(3) 0.57436(4) 0.58327(3)
O4_2 O 0.10635(18) 0.5846(3) 0.3451(2)
N6D N 0.0186(2) 0.4065(3) 0.3885(2)
O6 O 0.1891(3) -0.1496(4) 0.5801(2)
H3 H 0.165(3) -0.188(2) 0.5352(14)
H4 H 0.160(3) -0.158(7) 0.601(3)
loop_
_geom_bond_atom_site_label_1
_geom_bond_atom_site_label_2
_geom_bond_site_symmetry_1
_geom_bond_site_symmetry_2
Zn1 O1 1_555 1_555
I1 C11 1_555 1_555
O1 C13 1_555 1_555
O2 C13 1_555 1_555
O3 C14 1_555 1_555
O4 C14 1_555 1_555
O5 Zn1 1_555 1_555
H1 O5 1_555 1_555
H2 O5 1_555 1_555
O6 H3 1_555 1_555
H4 O6 1_555 1_555
N1 N2 1_555 1_555
N2 C3 1_555 1_555
N3 Zn1 1_555 1_555
N4 N5 1_555 1_555
N5 C5 1_555 1_555
N6 C5 1_555 1_555
C1 N1 1_555 1_555
H5 C1 1_555 1_555
H6 C1 1_555 1_555
C2 N4 1_555 1_555
H7 C2 1_555 1_555
H8 C2 1_555 1_555
C3 N3 1_555 1_555
H9 C3 1_555 1_555
C4 N1 1_555 1_555
H10 C4 1_555 1_555
C5 H11 1_555 1_555
C6 N4 1_555 1_555
H12 C6 1_555 1_555
C7 C8 1_555 1_555
C8 H13 1_555 1_555
C9 C8 1_555 1_555
C10 C9 1_555 1_555
H14 C10 1_555 1_555
C11 C10 1_555 1_555
C12 C7 1_555 1_555
H15 C12 1_555 1_555
C13 C7 1_555 1_555
C14 C9 1_555 1_555
Zn1_2 O4 1_555 1_555
Zn1D N6 1_555 1_555
O4_2 Zn1 1_555 1_555
N6D Zn1 1_555 1_555
N3 C4 1_555 1_555
N6 C6 1_555 1_555
C1 C2 1_555 1_555
C11 C12 1_555 1_555

#END
