
#######################################################################
#
#                 Cambridge Crystallographic Data Centre
#                                CCDC 
#
#######################################################################
#
# If this CIF has been generated from an entry in the Cambridge 
# Structural Database, then it will include bibliographic, chemical, 
# crystal, experimental, refinement or atomic coordinate data resulting 
# from the CCDC's data processing and validation procedures.
#
#######################################################################

data_XEPCUS
_symmetry_cell_setting           monoclinic
_symmetry_space_group_name_H-M   'P 21/c'
_symmetry_Int_Tables_number      14
_space_group_name_Hall           '-P 2ybc'
loop_
_symmetry_equiv_pos_site_id
_symmetry_equiv_pos_as_xyz
1 x,y,z
2 -x,1/2+y,1/2-z
3 -x,-y,-z
4 x,1/2-y,1/2+z
_cell_length_a                   13.178(4)
_cell_length_b                   14.361(4)
_cell_length_c                   16.553(4)
_cell_angle_alpha                90
_cell_angle_beta                 101.428(6)
_cell_angle_gamma                90
_cell_volume                     3070.54
loop_
_atom_site_label
_atom_site_type_symbol
_atom_site_fract_x
_atom_site_fract_y
_atom_site_fract_z
Zn1 Zn 0.43628(4) 0.21803(4) 0.75335(3)
O1 O 0.4336(4) 0.3422(3) 0.8182(3)
H1 H 0.402(4) 0.383(4) 0.802(3)
H2 H 0.450(5) 0.345(4) 0.864(4)
O2 O 0.4498(3) 0.0853(3) 0.6953(2)
H3 H 0.512(5) 0.059(5) 0.706(4)
H4 H 0.412(7) 0.075(6) 0.639(6)
N1 N 0.6966(3) 0.2957(3) 0.6444(2)
N2 N 0.6972(3) 0.3706(3) 0.6946(3)
N3 N 0.5766(3) 0.2679(3) 0.7149(2)
N4 N 0.6545(3) 0.3655(3) 0.4675(2)
N5 N 0.5701(3) 0.4075(3) 0.4886(3)
N6 N 0.5290(3) 0.3420(3) 0.3634(2)
N7 N 0.2238(3) 0.3440(3) 0.5522(2)
N8 N 0.3124(3) 0.3768(4) 0.5323(3)
N9 N 0.3477(3) 0.2858(3) 0.6450(2)
N10 N 0.1749(3) 0.3366(3) 0.3656(2)
N11 N 0.1788(3) 0.4230(3) 0.3326(3)
N12 N 0.2948(3) 0.3281(3) 0.2921(2)
C1 C 0.7677(3) 0.2897(3) 0.5868(3)
H14 H 0.7572 0.2306 0.5580
H15 H 0.8383 0.2908 0.6179
C2 C 0.7540(4) 0.3676(3) 0.5242(3)
H16 H 0.7612 0.4267 0.5530
H17 H 0.8086 0.3635 0.4927
C3 C 0.6244(4) 0.3508(3) 0.7351(3)
H18 H 0.6068 0.3903 0.7747
C4 C 0.6258(4) 0.2358(3) 0.6580(3)
H19 H 0.6123 0.1788 0.6314
C5 C 0.4972(4) 0.3912(4) 0.4239(3)
H20 H 0.4293 0.4116 0.4198
C6 C 0.6287(3) 0.3268(3) 0.3936(3)
H21 H 0.6735 0.2942 0.3669
C7 C 0.1241(4) 0.3683(4) 0.5009(3)
H22 H 0.1229 0.4345 0.4893
H23 H 0.0696 0.3553 0.5311
C8 C 0.1027(4) 0.3150(4) 0.4205(3)
H24 H 0.1063 0.2489 0.4325
H25 H 0.0328 0.3288 0.3917
C9 C 0.3835(5) 0.3401(5) 0.5899(4)
H26 H 0.4537 0.3505 0.5927
C10 C 0.2458(4) 0.2915(3) 0.6186(3)
H27 H 0.1969 0.2624 0.6435
C11 C 0.2517(4) 0.4136(3) 0.2886(3)
H28 H 0.2716 0.4619 0.2578
C12 C 0.2440(4) 0.2816(3) 0.3415(3)
H29 H 0.2554 0.2196 0.3568
Zn1C Zn 0.43628(4) 0.28197(4) 0.25335(3)
N6C N 0.5290(3) 0.1580(3) 0.8634(2)
N12C N 0.2948(3) 0.1719(3) 0.7921(2)
S1 S 0.26985(10) 0.01908(9) 0.48123(8)
O3 O 0.1538(3) -0.2624(2) 0.6494(2)
O4 O 0.0530(3) -0.2063(2) 0.7315(2)
O5 O -0.0397(3) 0.1331(2) 0.7087(2)
H5 H -0.049(6) 0.187(3) 0.732(5)
O6 O 0.0114(3) 0.2176(2) 0.6115(2)
O7 O 0.2777(4) -0.0612(3) 0.4334(3)
O8 O 0.3646(4) 0.0342(5) 0.5383(3)
O9 O 0.2355(5) 0.0971(4) 0.4321(4)
C13 C 0.1056(3) -0.1040(3) 0.6343(3)
C14 C 0.0464(3) -0.0301(3) 0.6534(3)
H30 H 0.0016 -0.0393 0.6895
C15 C 0.0533(3) 0.0572(3) 0.6191(3)
C16 C 0.1184(3) 0.0695(3) 0.5628(3)
H31 H 0.1221 0.1275 0.5384
C17 C 0.1770(4) -0.0030(3) 0.5429(3)
C18 C 0.1708(4) -0.0901(3) 0.5790(3)
H32 H 0.2106 -0.1392 0.5658
C19 C 0.1048(4) -0.1980(3) 0.6750(3)
C20 C 0.0033(3) 0.1437(3) 0.6451(3)
O10 O 0.3403(4) 0.5121(3) 0.7791(4)
H6 H 0.309(5) 0.515(5) 0.811(4)
H7 H 0.305(7) 0.526(7) 0.736(6)
O11 O 0.1758(3) 0.5434(3) 0.6531(3)
H8 H 0.165(5) 0.604(5) 0.668(4)
H9 H 0.117(7) 0.510(7) 0.655(6)
O12 O 0.5111(4) 0.3513(3) 0.9805(3)
H10 H 0.461(4) 0.374(4) 1.002(3)
H11 H 0.567(5) 0.386(6) 0.993(6)
O13 O -0.0126(3) 0.4378(3) 0.6461(3)
H12 H -0.062(3) 0.476(3) 0.654(4)
H13 H -0.014(10) 0.388(6) 0.679(7)
loop_
_geom_bond_atom_site_label_1
_geom_bond_atom_site_label_2
_geom_bond_site_symmetry_1
_geom_bond_site_symmetry_2
Zn1 O1 1_555 1_555
S1 O7 1_555 1_555
O1 H1 1_555 1_555
H2 O1 1_555 1_555
O2 Zn1 1_555 1_555
H3 O2 1_555 1_555
H4 O2 1_555 1_555
O3 C19 1_555 1_555
O4 C19 1_555 1_555
O5 H5 1_555 1_555
O6 C20 1_555 1_555
O8 S1 1_555 1_555
O9 S1 1_555 1_555
O10 H6 1_555 1_555
H7 O10 1_555 1_555
O11 H8 1_555 1_555
H9 O11 1_555 1_555
O12 H10 1_555 1_555
H11 O12 1_555 1_555
O13 H12 1_555 1_555
H13 O13 1_555 1_555
N1 N2 1_555 1_555
N2 C3 1_555 1_555
N3 Zn1 1_555 1_555
N4 N5 1_555 1_555
N5 C5 1_555 1_555
N6 C5 1_555 1_555
N7 N8 1_555 1_555
N8 C9 1_555 1_555
N9 Zn1 1_555 1_555
N10 N11 1_555 1_555
N11 C11 1_555 1_555
N12 C11 1_555 1_555
C1 N1 1_555 1_555
H14 C1 1_555 1_555
H15 C1 1_555 1_555
C2 N4 1_555 1_555
H16 C2 1_555 1_555
H17 C2 1_555 1_555
C3 N3 1_555 1_555
H18 C3 1_555 1_555
C4 N1 1_555 1_555
H19 C4 1_555 1_555
C5 H20 1_555 1_555
C6 N4 1_555 1_555
H21 C6 1_555 1_555
C7 N7 1_555 1_555
H22 C7 1_555 1_555
H23 C7 1_555 1_555
C8 N10 1_555 1_555
H24 C8 1_555 1_555
H25 C8 1_555 1_555
C9 N9 1_555 1_555
H26 C9 1_555 1_555
C10 N7 1_555 1_555
H27 C10 1_555 1_555
C11 H28 1_555 1_555
C12 N10 1_555 1_555
H29 C12 1_555 1_555
C13 C14 1_555 1_555
C14 H30 1_555 1_555
C15 C14 1_555 1_555
C16 C15 1_555 1_555
H31 C16 1_555 1_555
C17 S1 1_555 1_555
C18 C13 1_555 1_555
H32 C18 1_555 1_555
C19 C13 1_555 1_555
C20 O5 1_555 1_555
Zn1C N6 1_555 1_555
N6C Zn1 1_555 1_555
N12C Zn1 1_555 1_555
N3 C4 1_555 1_555
N6 C6 1_555 1_555
N9 C10 1_555 1_555
N12 C12 1_555 1_555
N12 Zn1C 1_555 1_555
C1 C2 1_555 1_555
C7 C8 1_555 1_555
C15 C20 1_555 1_555
C16 C17 1_555 1_555
C17 C18 1_555 1_555

#END
