
#######################################################################
#
#                 Cambridge Crystallographic Data Centre
#                                CCDC 
#
#######################################################################
#
# If this CIF has been generated from an entry in the Cambridge 
# Structural Database, then it will include bibliographic, chemical, 
# crystal, experimental, refinement or atomic coordinate data resulting 
# from the CCDC's data processing and validation procedures.
#
#######################################################################

data_XEPCEB
_symmetry_cell_setting           orthorhombic
_symmetry_space_group_name_H-M   'P c c n'
_symmetry_Int_Tables_number      56
_space_group_name_Hall           '-P 2ab 2ac'
loop_
_symmetry_equiv_pos_site_id
_symmetry_equiv_pos_as_xyz
1 x,y,z
2 1/2-x,1/2-y,z
3 -x,1/2+y,1/2-z
4 1/2+x,-y,1/2-z
5 -x,-y,-z
6 1/2+x,1/2+y,-z
7 x,1/2-y,1/2+z
8 1/2-x,y,1/2+z
_cell_length_a                   19.511(3)
_cell_length_b                   13.258(2)
_cell_length_c                   16.241(3)
_cell_angle_alpha                90
_cell_angle_beta                 90
_cell_angle_gamma                90
_cell_volume                     4201.17
loop_
_atom_site_label
_atom_site_type_symbol
_atom_site_fract_x
_atom_site_fract_y
_atom_site_fract_z
C23 C 0.7500 0.7500 0.1552(12)
O6 O 0.7784(8) 0.8331(11) 0.1937(12)
O6A O 0.7216(8) 0.6669(11) 0.1937(12)
Co1 Co 0.49860(3) 0.96651(4) 0.16504(4)
O1 O 0.56949(16) 0.9507(2) 0.25756(19)
O2 O 0.67089(19) 0.9659(3) 0.1952(2)
O3 O 0.54170(17) 0.6155(2) 0.3158(2)
O4 O 0.57485(17) 0.5267(2) 0.4224(2)
O5 O 0.5777(2) 1.0249(3) 0.0856(2)
N1 N 0.42385(19) 0.8987(3) 0.2458(2)
N2 N 0.5088(2) 0.8233(3) 0.1102(2)
C1 C 0.6338(3) 0.9554(3) 0.2575(3)
C2 C 0.6694(2) 0.9511(4) 0.3399(3)
C3 C 0.7097(3) 1.0336(4) 0.3628(3)
H1 H 0.7139 1.0882 0.3271
C4 C 0.7434(3) 1.0352(5) 0.4381(4)
H2 H 0.7696 1.0910 0.4526
C5 C 0.7384(3) 0.9544(4) 0.4916(4)
H3 H 0.7607 0.9558 0.5422
C6 C 0.7000(2) 0.8721(4) 0.4690(3)
H4 H 0.6972 0.8173 0.5045
C7 C 0.6648(2) 0.8686(3) 0.3936(3)
C8 C 0.6247(2) 0.7785(4) 0.3702(3)
H5 H 0.6024 0.7817 0.3196
C9 C 0.6167(3) 0.6941(4) 0.4121(3)
H6 H 0.6378 0.6882 0.4632
C10 C 0.5756(2) 0.6086(3) 0.3813(3)
C11 C 0.3613(3) 0.9337(4) 0.2627(3)
H7 H 0.3478 0.9939 0.2380
C12 C 0.3152(2) 0.8862(4) 0.3145(3)
H8 H 0.2728 0.9155 0.3248
C13 C 0.3320(2) 0.7952(3) 0.3512(3)
C14 C 0.3966(2) 0.7585(4) 0.3334(3)
H9 H 0.4111 0.6980 0.3566
C15 C 0.4397(3) 0.8106(4) 0.2818(3)
H10 H 0.4826 0.7831 0.2712
C16 C 0.2886(2) 0.7402(4) 0.4134(3)
H11 H 0.3060 0.7568 0.4678
H12 H 0.2956 0.6685 0.4055
C17 C 0.4547(3) 0.7826(4) 0.0718(4)
H13 H 0.4180 0.8244 0.0589
C18 C 0.4506(3) 0.6826(4) 0.0504(4)
H14 H 0.4115 0.6581 0.0245
C19 C 0.5050(3) 0.6181(3) 0.0675(3)
C20 C 0.5607(3) 0.6600(4) 0.1056(3)
H15 H 0.5983 0.6199 0.1187
C21 C 0.5615(3) 0.7610(4) 0.1248(3)
H16 H 0.6006 0.7875 0.1493
C22 C 0.5021(4) 0.5079(4) 0.0451(3)
H17 H 0.5427 0.4744 0.0661
H18 H 0.4625 0.4773 0.0712
H19 H 0.613(2) 1.009(6) 0.114(3)
H20 H 0.576(3) 1.002(4) 0.0366(13)
Co1B Co 0.50140(3) 1.46651(4) 0.33496(4)
Co1B_2 Co 0.50140(3) 0.46651(4) 0.33496(4)
Co1A Co 0.00140(3) 0.53349(4) 0.16504(4)
Co1D Co 0.50140(3) 0.03349(4) -0.16504(4)
O1B O 0.43051(16) 1.4507(2) 0.24244(19)
O2B O 0.32911(19) 1.4659(3) 0.3048(2)
O3B O 0.45830(17) 1.1155(2) 0.1842(2)
O3_2 O 0.54170(17) 1.6155(2) 0.3158(2)
O4B O 0.42515(17) 1.0267(2) 0.0776(2)
O4_2 O 0.57485(17) 1.5267(2) 0.4224(2)
O5B O 0.4223(2) 1.5249(3) 0.4144(2)
N1A N 0.07615(19) 0.6013(3) 0.2458(2)
N1B N 0.57615(19) 1.3987(3) 0.2542(2)
N2D N 0.4912(2) 0.1767(3) -0.1102(2)
N2B N 0.4912(2) 1.3233(3) 0.3898(2)
C1B C 0.3662(3) 1.4554(3) 0.2425(3)
C2B C 0.3306(2) 1.4511(4) 0.1601(3)
C3B C 0.2903(3) 1.5336(4) 0.1372(3)
H1B H 0.2861 1.5882 0.1729
C4B C 0.2566(3) 1.5352(5) 0.0619(4)
H2B H 0.2304 1.5910 0.0474
C5B C 0.2616(3) 1.4544(4) 0.0084(4)
H3B H 0.2393 1.4558 -0.0422
C6B C 0.3000(2) 1.3721(4) 0.0310(3)
H4B H 0.3028 1.3173 -0.0045
C7B C 0.3352(2) 1.3686(3) 0.1064(3)
C8B C 0.3753(2) 1.2785(4) 0.1298(3)
H5B H 0.3976 1.2817 0.1804
C9B C 0.3833(3) 1.1941(4) 0.0879(3)
H6B H 0.3622 1.1882 0.0368
C10B C 0.4244(2) 1.1086(3) 0.1187(3)
C11A C 0.1387(3) 0.5663(4) 0.2627(3)
H7A H 0.1522 0.5061 0.2380
C12A C 0.1848(2) 0.6138(4) 0.3145(3)
H8A H 0.2272 0.5845 0.3248
C13A C 0.1680(2) 0.7048(3) 0.3512(3)
C14A C 0.1034(2) 0.7415(4) 0.3334(3)
H9A H 0.0889 0.8020 0.3566
C15A C 0.0603(3) 0.6894(4) 0.2818(3)
H10A H 0.0174 0.7169 0.2712
C16A C 0.2114(2) 0.7598(4) 0.4134(3)
H11A H 0.1940 0.7432 0.4678
H12A H 0.2044 0.8315 0.4055
C17D C 0.5453(3) 0.2174(4) -0.0718(4)
H13D H 0.5820 0.1756 -0.0589
C18D C 0.5494(3) 0.3174(4) -0.0504(4)
H14D H 0.5885 0.3419 -0.0245
C19D C 0.4950(3) 0.3819(3) -0.0675(3)
C20D C 0.4393(3) 0.3400(4) -0.1056(3)
H15D H 0.4017 0.3801 -0.1187
C21D C 0.4385(3) 0.2390(4) -0.1248(3)
H16D H 0.3994 0.2125 -0.1493
C22D C 0.4979(4) 0.4921(4) -0.0451(3)
H17D H 0.4573 0.5256 -0.0661
H18D H 0.5375 0.5227 -0.0712
H19B H 0.387(2) 1.509(6) 0.386(3)
H20B H 0.424(3) 1.502(4) 0.4634(13)
loop_
_geom_bond_atom_site_label_1
_geom_bond_atom_site_label_2
_geom_bond_site_symmetry_1
_geom_bond_site_symmetry_2
Co1 O1 1_555 1_555
O1 C1 1_555 1_555
O2 C1 1_555 1_555
O3 C10 1_555 1_555
O4 C10 1_555 1_555
O5 Co1 1_555 1_555
N1 Co1 1_555 1_555
N2 Co1 1_555 1_555
C1 C2 1_555 1_555
C2 C3 1_555 1_555
C3 H1 1_555 1_555
C4 C3 1_555 1_555
H2 C4 1_555 1_555
C5 C4 1_555 1_555
H3 C5 1_555 1_555
C6 C5 1_555 1_555
H4 C6 1_555 1_555
C7 C2 1_555 1_555
C8 C7 1_555 1_555
H5 C8 1_555 1_555
C9 C8 1_555 1_555
H6 C9 1_555 1_555
C10 C9 1_555 1_555
C11 N1 1_555 1_555
H7 C11 1_555 1_555
C12 C11 1_555 1_555
H8 C12 1_555 1_555
C13 C12 1_555 1_555
C14 C13 1_555 1_555
H9 C14 1_555 1_555
C15 N1 1_555 1_555
H10 C15 1_555 1_555
C16 C13 1_555 1_555
H11 C16 1_555 1_555
H12 C16 1_555 1_555
C17 N2 1_555 1_555
H13 C17 1_555 1_555
C18 C17 1_555 1_555
H14 C18 1_555 1_555
C19 C18 1_555 1_555
C20 C19 1_555 1_555
H15 C20 1_555 1_555
C21 N2 1_555 1_555
H16 C21 1_555 1_555
C22 C19 1_555 1_555
H17 C22 1_555 1_555
H18 C22 1_555 1_555
C23 O6 1_555 1_555
H19 O5 1_555 1_555
H20 O5 1_555 1_555
Co1B O1B 1_555 1_555
Co1B_2 O3 1_555 1_555
Co1A N1A 1_555 1_555
Co1D N2D 1_555 1_555
O1B C1B 1_555 1_555
O2B C1B 1_555 1_555
O3B Co1 1_555 1_555
O3_2 Co1B 1_555 1_555
O4B Co1 1_555 1_555
O4_2 Co1B 1_555 1_555
O5B Co1B 1_555 1_555
N1A C11A 1_555 1_555
N1B Co1B 1_555 1_555
N2D C17D 1_555 1_555
N2B Co1B 1_555 1_555
C1B C2B 1_555 1_555
C2B C3B 1_555 1_555
C3B H1B 1_555 1_555
C4B C3B 1_555 1_555
H2B C4B 1_555 1_555
C5B C4B 1_555 1_555
H3B C5B 1_555 1_555
C6B C5B 1_555 1_555
H4B C6B 1_555 1_555
C7B C2B 1_555 1_555
C8B C7B 1_555 1_555
H5B C8B 1_555 1_555
C9B C8B 1_555 1_555
H6B C9B 1_555 1_555
C10B O3B 1_555 1_555
C11A H7A 1_555 1_555
C12A C11A 1_555 1_555
H8A C12A 1_555 1_555
C13A C12A 1_555 1_555
C14A C13A 1_555 1_555
H9A C14A 1_555 1_555
C15A N1A 1_555 1_555
H10A C15A 1_555 1_555
C16A C16 1_555 1_555
H11A C16A 1_555 1_555
H12A C16A 1_555 1_555
C17D H13D 1_555 1_555
C18D C17D 1_555 1_555
H14D C18D 1_555 1_555
C19D C18D 1_555 1_555
C20D C19D 1_555 1_555
H15D C20D 1_555 1_555
C21D N2D 1_555 1_555
H16D C21D 1_555 1_555
C22D C22 1_555 1_555
H17D C22D 1_555 1_555
H18D C22D 1_555 1_555
O6A C23 1_555 1_555
H19B O5B 1_555 1_555
H20B O5B 1_555 1_555
O4 Co1B_2 1_555 1_555
C6 C7 1_555 1_555
C14 C15 1_555 1_555
C20 C21 1_555 1_555
O4B C10B 1_555 1_555
C6B C7B 1_555 1_555
C9B C10B 1_555 1_555
C13A C16A 1_555 1_555
C14A C15A 1_555 1_555
C19D C22D 1_555 1_555
C20D C21D 1_555 1_555

#END
