
#######################################################################
#
#                 Cambridge Crystallographic Data Centre
#                                CCDC 
#
#######################################################################
#
# If this CIF has been generated from an entry in the Cambridge 
# Structural Database, then it will include bibliographic, chemical, 
# crystal, experimental, refinement or atomic coordinate data resulting 
# from the CCDC's data processing and validation procedures.
#
#######################################################################

data_XEPDAZ
_symmetry_cell_setting           monoclinic
_symmetry_space_group_name_H-M   'P 21/n'
_symmetry_Int_Tables_number      14
_space_group_name_Hall           '-P 2yn'
loop_
_symmetry_equiv_pos_site_id
_symmetry_equiv_pos_as_xyz
1 x,y,z
2 1/2-x,1/2+y,1/2-z
3 -x,-y,-z
4 1/2+x,1/2-y,1/2+z
_cell_length_a                   7.0083(16)
_cell_length_b                   16.147(3)
_cell_length_c                   17.274(4)
_cell_angle_alpha                90
_cell_angle_beta                 93.804(6)
_cell_angle_gamma                90
_cell_volume                     1950.47
loop_
_atom_site_label
_atom_site_type_symbol
_atom_site_fract_x
_atom_site_fract_y
_atom_site_fract_z
Zn1 Zn 0.82684(6) 0.32155(3) 0.75859(3)
O1 O 0.9460(4) 0.26118(18) 0.67495(16)
O2 O 0.6555(4) 0.2835(2) 0.62060(17)
O3 O 0.5012(4) 0.18462(18) 0.35214(17)
O4 O 0.6928(4) 0.0965(2) 0.29673(17)
O5 O 1.3061(4) 0.0156(2) 0.44110(17)
O6 O 1.3807(4) 0.0737(2) 0.55665(19)
N1 N 0.5734(5) 0.5447(2) 0.6981(2)
N2 N 0.7128(5) 0.5758(2) 0.7474(2)
N3 N 0.7422(5) 0.4381(2) 0.73598(19)
N4 N 0.1269(5) 0.6680(2) 0.7004(2)
N5 N 0.0275(5) 0.6580(2) 0.6297(2)
N6 N -0.1110(5) 0.7534(2) 0.7015(2)
C1 C 0.4198(7) 0.5984(3) 0.6654(3)
H1 H 0.3522 0.5716 0.6206
H2 H 0.4724 0.6511 0.6484
C2 C 0.2869(7) 0.6127(3) 0.7279(3)
H3 H 0.2354 0.5596 0.7443
H4 H 0.3572 0.6379 0.7729
C3 C 0.8122(6) 0.5097(3) 0.7673(2)
H5 H 0.9235 0.5118 0.8007
C4 C 0.5896(6) 0.4626(3) 0.6933(3)
H6 H 0.5053 0.4276 0.6640
C5 C -0.1142(6) 0.7103(3) 0.6334(3)
H7 H -0.2093 0.7176 0.5930
C6 C 0.0426(6) 0.7247(3) 0.7414(3)
H8 H 0.0854 0.7421 0.7915
C7 C 0.8688(6) 0.2014(2) 0.5513(2)
C8 C 0.7419(6) 0.1941(2) 0.4859(2)
H9 H 0.6244 0.2224 0.4842
C9 C 0.7876(5) 0.1454(2) 0.4230(2)
C10 C 0.9574(5) 0.1019(2) 0.4267(2)
H10 H 0.9863 0.0671 0.3855
C11 C 1.0861(5) 0.1093(2) 0.4912(2)
C12 C 1.0420(6) 0.1597(2) 0.5531(2)
H11 H 1.1301 0.1654 0.5963
C13 C 0.8173(6) 0.2526(2) 0.6197(2)
C14 C 0.6525(5) 0.1406(2) 0.3513(2)
C15 C 1.2693(5) 0.0629(3) 0.4948(2)
H12 H 1.484(4) 0.041(2) 0.558(3)
Zn1A Zn -0.32684(6) 0.82155(3) 0.74141(3)
Zn1C Zn 0.32684(6) 0.17845(3) 0.25859(3)
O3C O 1.0012(4) 0.31538(18) 0.85214(17)
N6A N 0.6110(5) 0.2534(2) 0.7985(2)
O7 O 1.1664(7) 0.4242(3) 0.6342(3)
H13 H 1.221(6) 0.378(2) 0.616(3)
H14 H 1.059(4) 0.430(3) 0.603(2)
O8 O 0.3624(9) 0.3385(4) 0.5216(3)
O9 O -0.1142(10) 0.4312(5) 0.5154(4)
O10 O 1.5000 0.5000 0.5000
loop_
_geom_bond_atom_site_label_1
_geom_bond_atom_site_label_2
_geom_bond_site_symmetry_1
_geom_bond_site_symmetry_2
Zn1 O1 1_555 1_555
O1 C13 1_555 1_555
O2 C13 1_555 1_555
O3 C14 1_555 1_555
O4 C14 1_555 1_555
O5 C15 1_555 1_555
O6 C15 1_555 1_555
O7 H13 1_555 1_555
N1 N2 1_555 1_555
N2 C3 1_555 1_555
N3 Zn1 1_555 1_555
N4 N5 1_555 1_555
N5 C5 1_555 1_555
N6 C5 1_555 1_555
C1 N1 1_555 1_555
H1 C1 1_555 1_555
H2 C1 1_555 1_555
C2 N4 1_555 1_555
H3 C2 1_555 1_555
H4 C2 1_555 1_555
C3 N3 1_555 1_555
H5 C3 1_555 1_555
C4 N1 1_555 1_555
H6 C4 1_555 1_555
C5 H7 1_555 1_555
C6 N4 1_555 1_555
H8 C6 1_555 1_555
C7 C8 1_555 1_555
C8 H9 1_555 1_555
C9 C8 1_555 1_555
C10 C9 1_555 1_555
H10 C10 1_555 1_555
C11 C10 1_555 1_555
C12 C7 1_555 1_555
H11 C12 1_555 1_555
C13 C7 1_555 1_555
C14 C9 1_555 1_555
C15 C11 1_555 1_555
H12 O6 1_555 1_555
H14 O7 1_555 1_555
Zn1A N6 1_555 1_555
Zn1C O3 1_555 1_555
O3C Zn1 1_555 1_555
N6A Zn1 1_555 1_555
N3 C4 1_555 1_555
N6 C6 1_555 1_555
C1 C2 1_555 1_555
C11 C12 1_555 1_555

#END
