
#######################################################################
#
#                 Cambridge Crystallographic Data Centre
#                                CCDC 
#
#######################################################################
#
# If this CIF has been generated from an entry in the Cambridge 
# Structural Database, then it will include bibliographic, chemical, 
# crystal, experimental, refinement or atomic coordinate data resulting 
# from the CCDC's data processing and validation procedures.
#
#######################################################################

data_XEPDED
_symmetry_cell_setting           monoclinic
_symmetry_space_group_name_H-M   'C 2/c'
_symmetry_Int_Tables_number      15
_space_group_name_Hall           '-C 2yn'
loop_
_symmetry_equiv_pos_site_id
_symmetry_equiv_pos_as_xyz
1 x,y,z
2 -x,y,1/2-z
3 1/2+x,1/2+y,z
4 1/2-x,1/2+y,1/2-z
5 -x,-y,-z
6 x,-y,1/2+z
7 1/2-x,1/2-y,-z
8 1/2+x,1/2-y,1/2+z
_cell_length_a                   17.860(2)
_cell_length_b                   9.6438(10)
_cell_length_c                   23.297(3)
_cell_angle_alpha                90
_cell_angle_beta                 104.683(3)
_cell_angle_gamma                90
_cell_volume                     3881.59
loop_
_atom_site_label
_atom_site_type_symbol
_atom_site_fract_x
_atom_site_fract_y
_atom_site_fract_z
Zn1 Zn 0.5000 0.68838(9) 0.7500
Zn2 Zn 0.78406(4) 0.95101(7) 0.51472(3)
O1 O 0.6995(2) 0.9436(4) 0.55507(17)
O2 O 0.6764(2) 1.1465(4) 0.51132(18)
O3 O 0.4191(2) 1.3652(4) 0.49382(18)
O4 O 0.3443(2) 1.2901(4) 0.54984(18)
O5 O 0.4287(2) 0.8930(6) 0.6872(2)
O6 O 0.5297(2) 0.7723(4) 0.68092(16)
O7 O 0.8523(2) 1.1134(4) 0.55024(17)
H1 H 0.850(4) 1.189(4) 0.532(2)
H2 H 0.8984(15) 1.092(6) 0.565(3)
N1 N 0.6557(3) 0.3734(5) 0.7452(2)
N2 N 0.6857(3) 0.3967(6) 0.8044(2)
N3 N 0.5865(3) 0.5416(5) 0.7670(2)
N4 N 0.7546(3) 0.4203(5) 0.6575(2)
N5 N 0.7428(3) 0.5562(5) 0.6685(2)
N6 N 0.7408(3) 0.5232(5) 0.57319(19)
C1 C 0.6907(4) 0.2675(6) 0.7152(3)
H5 H 0.6544 0.2435 0.6774
H6 H 0.7003 0.1837 0.7397
C2 C 0.7654(4) 0.3158(7) 0.7036(3)
H7 H 0.7984 0.3538 0.7404
H8 H 0.7923 0.2360 0.6921
C3 C 0.6419(4) 0.4982(7) 0.8154(3)
H9 H 0.6483 0.5373 0.8534
C4 C 0.5975(4) 0.4599(6) 0.7241(3)
H10 H 0.5683 0.4629 0.6844
C5 C 0.7341(3) 0.6140(6) 0.6157(3)
H11 H 0.7244 0.7090 0.6086
C6 C 0.7538(3) 0.4021(6) 0.6016(2)
H12 H 0.7613 0.3169 0.5842
C7 C 0.5857(3) 1.0607(5) 0.5622(2)
C8 C 0.5327(3) 1.1653(6) 0.5405(2)
H13 H 0.5436 1.2312 0.5140
C9 C 0.4640(3) 1.1737(6) 0.5575(2)
C10 C 0.4489(3) 1.0794(6) 0.5981(2)
H14 H 0.4028 1.0864 0.6104
C11 C 0.5018(3) 0.9740(6) 0.6208(2)
C12 C 0.5701(3) 0.9638(6) 0.6025(2)
H15 H 0.6056 0.8922 0.6171
C13 C 0.6581(3) 1.0515(6) 0.5413(2)
C14 C 0.4066(3) 1.2840(6) 0.5311(2)
C15 C 0.4842(3) 0.8745(6) 0.6655(2)
Zn2A Zn 0.21594(4) 0.95101(7) 0.98528(3)
Zn2B Zn 0.28406(4) 1.45101(7) 0.51472(3)
Zn2F Zn 0.71594(4) 0.54899(7) 0.48528(3)
Zn2C Zn 0.71594(4) 1.45101(7) 0.98528(3)
Zn2G Zn 0.28406(4) 0.54899(7) 1.01472(3)
O1A O 0.3005(2) 0.9436(4) 0.94493(17)
O2A O 0.3236(2) 1.1465(4) 0.98868(18)
O3A O 0.5809(2) 1.3652(4) 1.00618(18)
O4A O 0.6557(2) 1.2901(4) 0.95016(18)
O4B O 0.8443(2) 0.7901(4) 0.54984(18)
O4C O 0.1557(2) 0.7901(4) 0.95016(18)
O5A O 0.5713(2) 0.8930(6) 0.8128(2)
O6A O 0.4703(2) 0.7723(4) 0.81908(16)
O7A O 0.1477(2) 1.1134(4) 0.94976(17)
H1A H 0.150(4) 1.189(4) 0.968(2)
H2A H 0.1016(15) 1.092(6) 0.935(3)
N1A N 0.3443(3) 0.3734(5) 0.7548(2)
N2A N 0.3143(3) 0.3967(6) 0.6956(2)
N3A N 0.4135(3) 0.5416(5) 0.7330(2)
N4A N 0.2454(3) 0.4203(5) 0.8425(2)
N5A N 0.2572(3) 0.5562(5) 0.8315(2)
N6A N 0.2592(3) 0.5232(5) 0.92681(19)
N6F N 0.7592(3) 0.9768(5) 0.42681(19)
N6G N 0.2408(3) 0.9768(5) 1.07319(19)
C1A C 0.3093(4) 0.2675(6) 0.7848(3)
H5A H 0.3456 0.2435 0.8226
H6A H 0.2997 0.1837 0.7603
C2A C 0.2346(4) 0.3158(7) 0.7964(3)
H7A H 0.2016 0.3538 0.7596
H8A H 0.2077 0.2360 0.8079
C3A C 0.3581(4) 0.4982(7) 0.6846(3)
H9A H 0.3517 0.5373 0.6466
C4A C 0.4025(4) 0.4599(6) 0.7759(3)
H10A H 0.4317 0.4629 0.8156
C5A C 0.2659(3) 0.6140(6) 0.8843(3)
H11A H 0.2756 0.7090 0.8914
C6A C 0.2462(3) 0.4021(6) 0.8984(2)
H12A H 0.2387 0.3169 0.9158
C7A C 0.4143(3) 1.0607(5) 0.9378(2)
C8A C 0.4673(3) 1.1653(6) 0.9595(2)
H13A H 0.4564 1.2312 0.9860
C9A C 0.5360(3) 1.1737(6) 0.9425(2)
C10A C 0.5511(3) 1.0794(6) 0.9019(2)
H14A H 0.5972 1.0864 0.8896
C11A C 0.4982(3) 0.9740(6) 0.8792(2)
C12A C 0.4299(3) 0.9638(6) 0.8975(2)
H15A H 0.3944 0.8922 0.8829
C13A C 0.3419(3) 1.0515(6) 0.9587(2)
C14A C 0.5934(3) 1.2840(6) 0.9689(2)
C15A C 0.5158(3) 0.8745(6) 0.8345(2)
O8 O 0.5054(2) 0.5747(4) 0.59170(18)
H3 H 0.527(3) 0.640(5) 0.615(2)
H4 H 0.524(3) 0.583(6) 0.5619(16)
O9 O 1.0000 0.3166(12) 0.2500
loop_
_geom_bond_atom_site_label_1
_geom_bond_atom_site_label_2
_geom_bond_site_symmetry_1
_geom_bond_site_symmetry_2
Zn1 O6 1_555 1_555
Zn2 O1 1_555 1_555
O1 C13 1_555 1_555
O2 C13 1_555 1_555
O3 C14 1_555 1_555
O4 C14 1_555 1_555
O5 C15 1_555 1_555
O6 C15 1_555 1_555
O7 Zn2 1_555 1_555
H1 O7 1_555 1_555
H2 O7 1_555 1_555
O8 H3 1_555 1_555
H4 O8 1_555 1_555
N1 N2 1_555 1_555
N2 C3 1_555 1_555
N3 Zn1 1_555 1_555
N4 N5 1_555 1_555
N5 C5 1_555 1_555
N6 C5 1_555 1_555
C1 N1 1_555 1_555
H5 C1 1_555 1_555
H6 C1 1_555 1_555
C2 N4 1_555 1_555
H7 C2 1_555 1_555
H8 C2 1_555 1_555
C3 N3 1_555 1_555
H9 C3 1_555 1_555
C4 N1 1_555 1_555
H10 C4 1_555 1_555
C5 H11 1_555 1_555
C6 N4 1_555 1_555
H12 C6 1_555 1_555
C7 C8 1_555 1_555
C8 H13 1_555 1_555
C9 C8 1_555 1_555
C10 C9 1_555 1_555
H14 C10 1_555 1_555
C11 C10 1_555 1_555
C12 C7 1_555 1_555
H15 C12 1_555 1_555
C13 C7 1_555 1_555
C14 C9 1_555 1_555
C15 C11 1_555 1_555
Zn2A O1A 1_555 1_555
Zn2B O4 1_555 1_555
Zn2F N6 1_555 1_555
Zn2C O4A 1_555 1_555
Zn2G N6A 1_555 1_555
O1A C13A 1_555 1_555
O2A C13A 1_555 1_555
O3A C14A 1_555 1_555
O4A C14A 1_555 1_555
O4B Zn2 1_555 1_555
O4C Zn2A 1_555 1_555
O5A C15A 1_555 1_555
O6A Zn1 1_555 1_555
O7A Zn2A 1_555 1_555
H1A O7A 1_555 1_555
H2A O7A 1_555 1_555
N1A N2A 1_555 1_555
N2A C3A 1_555 1_555
N3A Zn1 1_555 1_555
N4A N5A 1_555 1_555
N5A C5A 1_555 1_555
N6A C5A 1_555 1_555
N6F Zn2 1_555 1_555
N6G Zn2A 1_555 1_555
C1A N1A 1_555 1_555
H5A C1A 1_555 1_555
H6A C1A 1_555 1_555
C2A N4A 1_555 1_555
H7A C2A 1_555 1_555
H8A C2A 1_555 1_555
C3A N3A 1_555 1_555
H9A C3A 1_555 1_555
C4A N1A 1_555 1_555
H10A C4A 1_555 1_555
C5A H11A 1_555 1_555
C6A N4A 1_555 1_555
H12A C6A 1_555 1_555
C7A C8A 1_555 1_555
C8A H13A 1_555 1_555
C9A C8A 1_555 1_555
C10A C9A 1_555 1_555
H14A C10A 1_555 1_555
C11A C10A 1_555 1_555
C12A C7A 1_555 1_555
H15A C12A 1_555 1_555
C13A C7A 1_555 1_555
C14A C9A 1_555 1_555
C15A O6A 1_555 1_555
N3 C4 1_555 1_555
N6 C6 1_555 1_555
C1 C2 1_555 1_555
C11 C12 1_555 1_555
N3A C4A 1_555 1_555
N6A C6A 1_555 1_555
C1A C2A 1_555 1_555
C11A C12A 1_555 1_555
C11A C15A 1_555 1_555

#END
