
#######################################################################
#
#                 Cambridge Crystallographic Data Centre
#                                CCDC 
#
#######################################################################
#
# If this CIF has been generated from an entry in the Cambridge 
# Structural Database, then it will include bibliographic, chemical, 
# crystal, experimental, refinement or atomic coordinate data resulting 
# from the CCDC's data processing and validation procedures.
#
#######################################################################

data_XEPDAY
_symmetry_cell_setting           monoclinic
_symmetry_space_group_name_H-M   'P 21/n'
_symmetry_Int_Tables_number      14
_space_group_name_Hall           '-P 2yn'
loop_
_symmetry_equiv_pos_site_id
_symmetry_equiv_pos_as_xyz
1 x,y,z
2 1/2-x,1/2+y,1/2-z
3 -x,-y,-z
4 1/2+x,1/2-y,1/2+z
_cell_length_a                   13.6274(17)
_cell_length_b                   8.8097(11)
_cell_length_c                   15.457(2)
_cell_angle_alpha                90
_cell_angle_beta                 90.720(2)
_cell_angle_gamma                90
_cell_volume                     1855.52
loop_
_atom_site_label
_atom_site_type_symbol
_atom_site_fract_x
_atom_site_fract_y
_atom_site_fract_z
Co1 Co 1.26888(2) 0.89736(3) 0.15695(2)
O1 O 1.26992(12) 0.85044(18) 0.02672(10)
O2 O 1.37879(13) 0.6733(2) -0.01166(14)
O3 O 1.26149(11) 0.65782(17) 0.18325(10)
O4 O 1.22041(11) 0.41828(17) 0.21015(10)
O5 O 1.27069(13) 1.13646(18) 0.12736(13)
N1 N 1.11108(13) 0.9164(2) 0.16438(13)
N2 N 0.42654(13) 0.8861(2) 0.15742(13)
C1 C 1.29517(18) 0.7164(3) 0.00685(15)
C2 C 1.21489(17) 0.5988(3) 0.00025(15)
C3 C 1.17278(19) 0.5733(3) -0.08098(16)
H1 H 1.1921 0.6328 -0.1275
C4 C 1.1032(2) 0.4619(3) -0.09404(17)
H2 H 1.0752 0.4474 -0.1486
C5 C 1.07532(18) 0.3725(3) -0.02569(18)
H3 H 1.0292 0.2959 -0.0342
C6 C 1.11580(17) 0.3962(3) 0.05547(16)
H4 H 1.0963 0.3353 0.1013
C7 C 1.18522(16) 0.5097(2) 0.07013(15)
C8 C 1.22587(15) 0.5329(2) 0.16035(14)
C9 C 1.05985(17) 1.0046(3) 0.10931(16)
H5 H 1.0936 1.0542 0.0657
C10 C 0.95989(17) 1.0255(3) 0.11390(17)
H6 H 0.9279 1.0879 0.0740
C11 C 0.90692(17) 0.9535(3) 0.17790(16)
C12 C 0.95990(18) 0.8631(3) 0.23514(18)
H7 H 0.9279 0.8129 0.2796
C13 C 1.06024(18) 0.8475(3) 0.22618(18)
H8 H 1.0940 0.7857 0.2653
C14 C 0.79743(18) 0.9726(4) 0.18384(19)
H9 H 0.7795 1.0721 0.1619
H10 H 0.7789 0.9680 0.2442
C15 C 0.74053(17) 0.8531(3) 0.1337(2)
H11 H 0.7562 0.8617 0.0729
H12 H 0.7613 0.7534 0.1533
C16 C 0.63102(16) 0.8668(3) 0.14392(17)
C17 C 0.5797(2) 0.9848(4) 0.1117(3)
H13 H 0.6123 1.0637 0.0842
C18 C 0.4794(2) 0.9895(4) 0.1191(3)
H14 H 0.4467 1.0723 0.0950
C19 C 0.4761(2) 0.7743(4) 0.1905(3)
H15 H 0.4421 0.6992 0.2200
C20 C 0.5769(2) 0.7607(4) 0.1841(3)
H16 H 0.6080 0.6765 0.2082
H17 H 1.305(2) 1.184(3) 0.0901(14)
H18 H 1.249(2) 1.191(3) 0.1689(13)
Co1A Co 1.23112(2) 0.39736(3) 0.34305(2)
Co1_2 Co 0.26888(2) 0.89736(3) 0.15695(2)
O4A O 1.27959(11) 0.91828(17) 0.28985(10)
N2_2 N 1.42654(13) 0.8861(2) 0.15742(13)
O6 O 0.40959(17) 0.3418(3) 0.04469(17)
H19 H 0.4687(13) 0.318(4) 0.033(3)
H20 H 0.393(2) 0.431(2) 0.031(2)
loop_
_geom_bond_atom_site_label_1
_geom_bond_atom_site_label_2
_geom_bond_site_symmetry_1
_geom_bond_site_symmetry_2
Co1 O1 1_555 1_555
O1 C1 1_555 1_555
O2 C1 1_555 1_555
O3 Co1 1_555 1_555
O4 C8 1_555 1_555
O5 Co1 1_555 1_555
N1 Co1 1_555 1_555
N2 C18 1_555 1_555
C1 C2 1_555 1_555
C2 C3 1_555 1_555
C3 H1 1_555 1_555
C4 C3 1_555 1_555
H2 C4 1_555 1_555
C5 C4 1_555 1_555
H3 C5 1_555 1_555
C6 C5 1_555 1_555
H4 C6 1_555 1_555
C7 C2 1_555 1_555
C8 O3 1_555 1_555
C9 N1 1_555 1_555
H5 C9 1_555 1_555
C10 C9 1_555 1_555
H6 C10 1_555 1_555
C11 C10 1_555 1_555
C12 C11 1_555 1_555
H7 C12 1_555 1_555
C13 N1 1_555 1_555
H8 C13 1_555 1_555
C14 C11 1_555 1_555
H9 C14 1_555 1_555
H10 C14 1_555 1_555
C15 C14 1_555 1_555
H11 C15 1_555 1_555
H12 C15 1_555 1_555
C16 C15 1_555 1_555
C17 C16 1_555 1_555
H13 C17 1_555 1_555
C18 C17 1_555 1_555
H14 C18 1_555 1_555
C19 N2 1_555 1_555
H15 C19 1_555 1_555
C20 C16 1_555 1_555
H16 C20 1_555 1_555
O6 H19 1_555 1_555
H17 O5 1_555 1_555
H18 O5 1_555 1_555
H20 O6 1_555 1_555
Co1A O4 1_555 1_555
Co1_2 N2 1_555 1_555
O4A Co1 1_555 1_555
N2_2 Co1 1_555 1_555
C6 C7 1_555 1_555
C7 C8 1_555 1_555
C12 C13 1_555 1_555
C19 C20 1_555 1_555

#END
