
#######################################################################
#
#                 Cambridge Crystallographic Data Centre
#                                CCDC 
#
#######################################################################
#
# If this CIF has been generated from an entry in the Cambridge 
# Structural Database, then it will include bibliographic, chemical, 
# crystal, experimental, refinement or atomic coordinate data resulting 
# from the CCDC's data processing and validation procedures.
#
#######################################################################

data_XEPFAA
_symmetry_cell_setting           monoclinic
_symmetry_space_group_name_H-M   'C 2/c'
_symmetry_Int_Tables_number      15
_space_group_name_Hall           '-C 2yn'
loop_
_symmetry_equiv_pos_site_id
_symmetry_equiv_pos_as_xyz
1 x,y,z
2 1/2+x,1/2+y,z
3 -x,y,1/2-z
4 1/2-x,1/2+y,1/2-z
5 -x,-y,-z
6 1/2-x,1/2-y,-z
7 x,-y,1/2+z
8 1/2+x,1/2-y,1/2+z
_cell_length_a                   9.232(3)
_cell_length_b                   11.3174(18)
_cell_length_c                   12.626(2)
_cell_angle_alpha                90
_cell_angle_beta                 108.190(17)
_cell_angle_gamma                90
_cell_volume                     1253.27
loop_
_atom_site_label
_atom_site_type_symbol
_atom_site_fract_x
_atom_site_fract_y
_atom_site_fract_z
Co1 Co 1.0000 0.5000 0.5000
N1 N 0.7773(3) 0.5392(3) 0.4813(3)
N2 N 0.6571(4) 0.5821(3) 0.4590(3)
N3 N 0.5315(3) 0.6255(3) 0.4353(3)
N4 N 0.9901(3) 0.6193(2) 0.34520(19)
N5 N 0.8613(3) 0.7729(2) 0.2123(2)
C1 C 0.8542(3) 0.6961(3) 0.3051(2)
H1 H 0.7636 0.6472 0.2804
H2 H 0.8462 0.7449 0.3662
C2 C 1.0000 0.5460(4) 0.2500
H3 H 1.091(5) 0.505(3) 0.272(3)
C3 C 1.1260(3) 0.6973(3) 0.3793(2)
H4 H 1.1205 0.7470 0.4405
H5 H 1.2169 0.6490 0.4059
C4 C 1.0000 0.8467(4) 0.2500
H6 H 1.000(4) 0.895(3) 0.309(3)
O1 O 0.9325(3) 0.3567(2) 0.3900(2)
H7 H 0.982(5) 0.306(4) 0.413(4)
H8 H 0.833(6) 0.344(4) 0.355(4)
Co1F Co 1.0000 0.5000 0.0000
N1D N 1.2227(3) 0.4608(3) 0.5187(3)
N2D N 1.3429(4) 0.4179(3) 0.5410(3)
N3D N 1.4685(3) 0.3745(3) 0.5647(3)
N4B N 1.0099(3) 0.6193(2) 0.15480(19)
N4D N 1.0099(3) 0.3807(2) 0.65480(19)
N5B N 1.1387(3) 0.7729(2) 0.2877(2)
C1B C 1.1458(3) 0.6961(3) 0.1949(2)
H1B H 1.2364 0.6472 0.2196
H2B H 1.1538 0.7449 0.1338
H3B H 0.909(5) 0.505(3) 0.228(3)
C3B C 0.8740(3) 0.6973(3) 0.1207(2)
H4B H 0.8795 0.7470 0.0595
H5B H 0.7831 0.6490 0.0941
H6B H 1.000(4) 0.895(3) 0.191(3)
O1D O 1.0675(3) 0.6433(2) 0.6100(2)
H7D H 1.018(5) 0.694(4) 0.587(4)
H8D H 1.167(6) 0.656(4) 0.645(4)
loop_
_geom_bond_atom_site_label_1
_geom_bond_atom_site_label_2
_geom_bond_site_symmetry_1
_geom_bond_site_symmetry_2
Co1 N1 1_555 1_555
N1 N2 1_555 1_555
N2 N3 1_555 1_555
N4 Co1 1_555 1_555
N5 C1 1_555 1_555
C1 N4 1_555 1_555
H1 C1 1_555 1_555
H2 C1 1_555 1_555
C2 N4 1_555 1_555
H3 C2 1_555 1_555
C3 N4 1_555 1_555
H4 C3 1_555 1_555
H5 C3 1_555 1_555
C4 N5 1_555 1_555
H6 C4 1_555 1_555
O1 Co1 1_555 1_555
H7 O1 1_555 1_555
H8 O1 1_555 1_555
Co1F N4B 1_555 1_555
N1D Co1 1_555 1_555
N2D N1D 1_555 1_555
N3D N2D 1_555 1_555
N4B C2 1_555 1_555
N4D Co1 1_555 1_555
N5B C3 1_555 1_555
C1B N4B 1_555 1_555
H1B C1B 1_555 1_555
H2B C1B 1_555 1_555
H3B C2 1_555 1_555
C3B N5 1_555 1_555
H4B C3B 1_555 1_555
H5B C3B 1_555 1_555
H6B C4 1_555 1_555
O1D Co1 1_555 1_555
H7D O1D 1_555 1_555
H8D O1D 1_555 1_555
C4 N5B 1_555 1_555
N4B C3B 1_555 1_555
N5B C1B 1_555 1_555

#END
