
#######################################################################
#
#                 Cambridge Crystallographic Data Centre
#                                CCDC 
#
#######################################################################
#
# If this CIF has been generated from an entry in the Cambridge 
# Structural Database, then it will include bibliographic, chemical, 
# crystal, experimental, refinement or atomic coordinate data resulting 
# from the CCDC's data processing and validation procedures.
#
#######################################################################

data_XEPGOO
_symmetry_cell_setting           monoclinic
_symmetry_space_group_name_H-M   'P 21/n'
_symmetry_Int_Tables_number      14
_space_group_name_Hall           '-P 2yn'
loop_
_symmetry_equiv_pos_site_id
_symmetry_equiv_pos_as_xyz
1 x,y,z
2 1/2+x,1/2-y,1/2+z
3 -x,-y,-z
4 1/2-x,1/2+y,1/2-z
_cell_length_a                   8.390(9)
_cell_length_b                   9.631(10)
_cell_length_c                   14.001(15)
_cell_angle_alpha                90
_cell_angle_beta                 90.00(2)
_cell_angle_gamma                90
_cell_volume                     1131.34
loop_
_atom_site_label
_atom_site_type_symbol
_atom_site_fract_x
_atom_site_fract_y
_atom_site_fract_z
O4 O 0.50666(19) 0.33518(17) 0.80297(11)
H14 H 0.5111 0.4015 0.7605
H15 H 0.4162 0.2874 0.7917
Cu1 Cu 0.0000 0.5000 0.5000
S1 S 0.36219(4) 0.62909(4) 0.64548(3)
O1 O 0.28775(16) 0.68925(14) 0.73037(9)
O2 O 0.25253(15) 0.55024(15) 0.58767(10)
O3 O 0.50578(14) 0.55107(14) 0.66579(9)
N1 N 0.13601(17) 0.41496(17) 0.39544(10)
H1 H 0.2386 0.4122 0.4140
H2 H 0.1036 0.3276 0.3836
N2 N -0.00038(18) 0.32737(16) 0.58785(10)
H3 H 0.0939 0.3306 0.6199
C1 C -0.0097(3) 0.1856(2) 0.54788(17)
H4 H -0.0079 0.1191 0.5990
H5 H 0.0795 0.1699 0.5064
H6 H -0.1069 0.1757 0.5124
C2 C -0.1258(2) 0.3505(2) 0.66206(14)
H7 H -0.1062 0.2913 0.7169
H8 H -0.2300 0.3280 0.6363
C3 C 0.1203(2) 0.5000(2) 0.30870(14)
H9 H 0.0201 0.4799 0.2770
H10 H 0.2066 0.4797 0.2648
C4 C 0.5684(2) 0.84373(16) 0.43158(11)
H11 H 0.6238 0.8228 0.3759
C5 C 0.51238(19) 0.73790(18) 0.48772(11)
H12 H 0.5291 0.6460 0.4701
C6 C 0.42809(18) 0.76990(16) 0.57358(10)
C7 C 0.39938(18) 0.90370(17) 0.60027(10)
H13 H 0.3423 0.9220 0.6558
C8 C 0.54330(19) 0.98418(15) 0.45681(11)
O2B O -0.25253(15) 0.44976(15) 0.41233(10)
N1B N -0.13601(17) 0.58504(17) 0.60456(10)
N2B N 0.00038(18) 0.67263(16) 0.41215(10)
C3B C -0.1203(2) 0.5000(2) 0.69130(14)
C2B C 0.1258(2) 0.6495(2) 0.33794(14)
C8B C 0.45670(19) 1.01582(15) 0.54319(11)
C7B C 0.60062(18) 1.09630(17) 0.39973(10)
loop_
_geom_bond_atom_site_label_1
_geom_bond_atom_site_label_2
_geom_bond_site_symmetry_1
_geom_bond_site_symmetry_2
Cu1 O2 1_555 1_555
S1 O1 1_555 1_555
O2 S1 1_555 1_555
O3 S1 1_555 1_555
N1 Cu1 1_555 1_555
H1 N1 1_555 1_555
H2 N1 1_555 1_555
N2 Cu1 1_555 1_555
H3 N2 1_555 1_555
C1 N2 1_555 1_555
H4 C1 1_555 1_555
H5 C1 1_555 1_555
H6 C1 1_555 1_555
C2 N2 1_555 1_555
H7 C2 1_555 1_555
H8 C2 1_555 1_555
C3 N1 1_555 1_555
H9 C3 1_555 1_555
H10 C3 1_555 1_555
C4 H11 1_555 1_555
C5 C4 1_555 1_555
H12 C5 1_555 1_555
C6 S1 1_555 1_555
C7 C6 1_555 1_555
H13 C7 1_555 1_555
C8 C4 1_555 1_555
O4 H14 1_555 1_555
H15 O4 1_555 1_555
O2B Cu1 1_555 1_555
N1B Cu1 1_555 1_555
N2B Cu1 1_555 1_555
C3B C2 1_555 1_555
C2B C3 1_555 1_555
C8B C7 1_555 1_555
C7B C8 1_555 1_555
C5 C6 1_555 1_555
C8 C8B 1_555 1_555
N1B C3B 1_555 1_555
N2B C2B 1_555 1_555

#END
