
#######################################################################
#
#                 Cambridge Crystallographic Data Centre
#                                CCDC 
#
#######################################################################
#
# If this CIF has been generated from an entry in the Cambridge 
# Structural Database, then it will include bibliographic, chemical, 
# crystal, experimental, refinement or atomic coordinate data resulting 
# from the CCDC's data processing and validation procedures.
#
#######################################################################

data_XEPHAB
_symmetry_cell_setting           monoclinic
_symmetry_space_group_name_H-M   'P 21/c'
_symmetry_Int_Tables_number      14
_space_group_name_Hall           '-P 2ybc'
loop_
_symmetry_equiv_pos_site_id
_symmetry_equiv_pos_as_xyz
1 x,y,z
2 x,1/2-y,1/2+z
3 -x,-y,-z
4 -x,1/2+y,1/2-z
_cell_length_a                   8.568(6)
_cell_length_b                   10.521(8)
_cell_length_c                   12.839(9)
_cell_angle_alpha                90
_cell_angle_beta                 91.869(15)
_cell_angle_gamma                90
_cell_volume                     1156.74
loop_
_atom_site_label
_atom_site_type_symbol
_atom_site_fract_x
_atom_site_fract_y
_atom_site_fract_z
Cu1 Cu 0.5000 0.0000 1.0000
S1 S 0.2510(2) 0.2496(2) 0.97364(18)
N1 N 0.6217(10) 0.1216(8) 0.9147(7)
H1 H 0.5640 0.1941 0.9094
N2 N 0.6457(9) 0.0498(9) 1.1194(7)
H2 H 0.7197 -0.0121 1.1252
O1 O 0.3206(8) 0.1736(7) 1.0563(6)
O2 O 0.1477(10) 0.1770(8) 0.9044(7)
O3 O 0.3648(9) 0.3216(7) 0.9172(7)
C1 C 0.6522(13) 0.0811(11) 0.8073(9)
H3 H 0.7162 0.0051 0.8098
H4 H 0.7108 0.1472 0.7732
C2 C 0.5066(15) 0.0545(11) 0.7441(9)
H5 H 0.5330 0.0456 0.6716
H6 H 0.4368 0.1267 0.7492
C3 C 0.7637(12) 0.1537(11) 0.9769(10)
H7 H 0.8412 0.0874 0.9694
H8 H 0.8072 0.2327 0.9519
C4 C 0.7261(14) 0.1667(11) 1.0855(10)
H9 H 0.6589 0.2398 1.0944
H10 H 0.8210 0.1795 1.1275
C5 C 0.5780(15) 0.0634(12) 1.2225(9)
H11 H 0.5057 0.1344 1.2210
H12 H 0.6607 0.0826 1.2735
C6 C 0.0542(11) 0.4650(9) 0.8649(8)
H13 H 0.1127 0.4059 0.8291
C7 C 0.0485(10) 0.4561(8) 0.9732(7)
C8 C 0.1292(10) 0.3619(8) 1.0331(7)
C9 C 0.1159(10) 0.3569(9) 1.1391(8)
H14 H 0.1701 0.2950 1.1773
C10 C -0.0229(12) 0.5571(12) 0.8101(7)
H15 H -0.0133 0.5625 0.7383
N1B N 0.3783(10) -0.1216(8) 1.0853(7)
N2B N 0.3543(9) -0.0498(9) 0.8806(7)
O1B O 0.6794(8) -0.1736(7) 0.9437(6)
C5B C 0.4220(15) -0.0634(12) 0.7775(9)
C2B C 0.4934(15) -0.0545(11) 1.2559(9)
C7B C -0.0485(10) 0.5439(8) 1.0268(7)
C10B C 0.0229(12) 0.4429(12) 1.1899(7)
C9B C -0.1159(10) 0.6431(9) 0.8609(8)
C6B C -0.0542(11) 0.5350(9) 1.1351(8)
H15B H 0.0133 0.4375 1.2617
C8B C -0.1292(10) 0.6381(8) 0.9669(7)
H14B H -0.1701 0.7050 0.8227
S1B S -0.2510(2) 0.7504(2) 1.02636(18)
H13B H -0.1127 0.5941 1.1709
O1B_2 O -0.3206(8) 0.8264(7) 0.9437(6)
O2B O -0.1477(10) 0.8230(8) 1.0956(7)
O3B O -0.3648(9) 0.6784(7) 1.0828(7)
Cu1_2 Cu -0.5000 1.0000 1.0000
H1B H 0.4360 -0.1941 1.0906
C1B C 0.3478(13) -0.0811(11) 1.1927(9)
C3B C 0.2363(12) -0.1537(11) 1.0231(10)
H7B H 0.1588 -0.0874 1.0306
H8B H 0.1928 -0.2327 1.0481
C4B C 0.2739(14) -0.1667(11) 0.9145(10)
H3B H 0.2838 -0.0051 1.1902
H4B H 0.2892 -0.1472 1.2268
H9B H 0.3411 -0.2398 0.9056
H10B H 0.1790 -0.1795 0.8725
H5B H 0.4670 -0.0456 1.3284
H6B H 0.5632 -0.1267 1.2508
H2B H 0.2803 0.0121 0.8748
H11B H 0.4943 -0.1344 0.7790
H12B H 0.3393 -0.0826 0.7265
loop_
_geom_bond_atom_site_label_1
_geom_bond_atom_site_label_2
_geom_bond_site_symmetry_1
_geom_bond_site_symmetry_2
Cu1 N1 1_555 1_555
S1 O1 1_555 1_555
N1 H1 1_555 1_555
N2 Cu1 1_555 1_555
H2 N2 1_555 1_555
O1 Cu1 1_555 1_555
O2 S1 1_555 1_555
O3 S1 1_555 1_555
C1 N1 1_555 1_555
H3 C1 1_555 1_555
H4 C1 1_555 1_555
C2 C1 1_555 1_555
H5 C2 1_555 1_555
H6 C2 1_555 1_555
C3 N1 1_555 1_555
H7 C3 1_555 1_555
H8 C3 1_555 1_555
C4 N2 1_555 1_555
H9 C4 1_555 1_555
H10 C4 1_555 1_555
C5 N2 1_555 1_555
H11 C5 1_555 1_555
H12 C5 1_555 1_555
C6 H13 1_555 1_555
C7 C6 1_555 1_555
C8 S1 1_555 1_555
C9 C8 1_555 1_555
H14 C9 1_555 1_555
C10 C6 1_555 1_555
H15 C10 1_555 1_555
N1B Cu1 1_555 1_555
N2B Cu1 1_555 1_555
O1B Cu1 1_555 1_555
C5B C2 1_555 1_555
C2B C5 1_555 1_555
C7B C7 1_555 1_555
C10B C9 1_555 1_555
C9B C10 1_555 1_555
C6B C7B 1_555 1_555
H15B C10B 1_555 1_555
C8B C7B 1_555 1_555
H14B C9B 1_555 1_555
S1B C8B 1_555 1_555
H13B C6B 1_555 1_555
O1B_2 S1B 1_555 1_555
O2B S1B 1_555 1_555
O3B S1B 1_555 1_555
Cu1_2 O1B_2 1_555 1_555
H1B N1B 1_555 1_555
C1B N1B 1_555 1_555
C3B N1B 1_555 1_555
H7B C3B 1_555 1_555
H8B C3B 1_555 1_555
C4B N2B 1_555 1_555
H3B C1B 1_555 1_555
H4B C1B 1_555 1_555
H9B C4B 1_555 1_555
H10B C4B 1_555 1_555
H5B C2B 1_555 1_555
H6B C2B 1_555 1_555
H2B N2B 1_555 1_555
H11B C5B 1_555 1_555
H12B C5B 1_555 1_555
C3 C4 1_555 1_555
C7 C8 1_555 1_555
N2B C5B 1_555 1_555
C2B C1B 1_555 1_555
C10B C6B 1_555 1_555
C9B C8B 1_555 1_555
C3B C4B 1_555 1_555

#END
