
#######################################################################
#
#                 Cambridge Crystallographic Data Centre
#                                CCDC 
#
#######################################################################
#
# If this CIF has been generated from an entry in the Cambridge 
# Structural Database, then it will include bibliographic, chemical, 
# crystal, experimental, refinement or atomic coordinate data resulting 
# from the CCDC's data processing and validation procedures.
#
#######################################################################

data_XEPJEI
_symmetry_cell_setting           monoclinic
_symmetry_space_group_name_H-M   'P 21/n'
_symmetry_Int_Tables_number      14
_space_group_name_Hall           '-P 2yn'
loop_
_symmetry_equiv_pos_site_id
_symmetry_equiv_pos_as_xyz
1 x,y,z
2 1/2-x,1/2+y,1/2-z
3 -x,-y,-z
4 1/2+x,1/2-y,1/2+z
_cell_length_a                   9.5055(9)
_cell_length_b                   8.7994(6)
_cell_length_c                   9.9916(12)
_cell_angle_alpha                90
_cell_angle_beta                 103.905(7)
_cell_angle_gamma                90
_cell_volume                     811.234
loop_
_atom_site_label
_atom_site_type_symbol
_atom_site_fract_x
_atom_site_fract_y
_atom_site_fract_z
Zn1 Zn 0.0000 0.0000 0.0000
O1 O -0.0474(2) 0.2246(2) 0.0484(2)
O2 O -0.2214(2) 0.2811(2) -0.1394(2)
O3 O -0.1083(2) 0.0244(3) -0.2140(2)
N1 N -0.3022(3) 0.4248(3) 0.4496(3)
C1 C -0.0864(4) 0.5023(4) 0.1848(3)
C2 C -0.1766(4) 0.4589(4) 0.0422(3)
C3 C -0.1456(3) 0.3093(3) -0.0195(3)
C4 C -0.2588(3) 0.4766(4) 0.3392(3)
C5 C -0.1320(3) 0.4316(3) 0.3058(3)
C6 C -0.0465(3) 0.3262(4) 0.3908(4)
C7 C -0.0884(4) 0.2725(4) 0.5049(4)
C8 C -0.2160(3) 0.3246(4) 0.5314(3)
H1 H 0.022(5) 0.464(5) 0.201(4)
H2 H -0.092(4) 0.616(4) 0.192(4)
H3 H -0.167(4) 0.545(5) -0.027(4)
H4 H -0.277(4) 0.458(5) 0.037(4)
H5 H -0.165(4) 0.107(5) -0.210(4)
H6 H -0.161(4) -0.047(4) -0.254(4)
H7 H -0.326(3) 0.557(4) 0.282(3)
H8 H 0.042(4) 0.293(4) 0.372(4)
H9 H -0.036(4) 0.201(4) 0.566(4)
H10 H -0.250(3) 0.292(4) 0.611(4)
Zn1C Zn -0.5000 0.5000 0.5000
Zn1C_2 Zn 0.5000 -0.5000 -0.5000
O1B O 0.0474(2) -0.2246(2) -0.0484(2)
O2B O 0.2214(2) -0.2811(2) 0.1394(2)
O3B O 0.1083(2) -0.0244(3) 0.2140(2)
N1C N 0.1978(3) 0.0752(3) -0.0504(3)
N1A N -0.1978(3) -0.0752(3) 0.0504(3)
N1B N 0.3022(3) -0.4248(3) -0.4496(3)
C1B C 0.0864(4) -0.5023(4) -0.1848(3)
C2B C 0.1766(4) -0.4589(4) -0.0422(3)
C3B C 0.1456(3) -0.3093(3) 0.0195(3)
C4B C 0.2588(3) -0.4766(4) -0.3392(3)
C5B C 0.1320(3) -0.4316(3) -0.3058(3)
C6B C 0.0465(3) -0.3262(4) -0.3908(4)
C7B C 0.0884(4) -0.2725(4) -0.5049(4)
C8B C 0.2160(3) -0.3246(4) -0.5314(3)
H1B H -0.022(5) -0.464(5) -0.201(4)
H2B H 0.092(4) -0.616(4) -0.192(4)
H3B H 0.167(4) -0.545(5) 0.027(4)
H4B H 0.277(4) -0.458(5) -0.037(4)
H5B H 0.165(4) -0.107(5) 0.210(4)
H6B H 0.161(4) 0.047(4) 0.254(4)
H7B H 0.326(3) -0.557(4) -0.282(3)
H8B H -0.042(4) -0.293(4) -0.372(4)
H9B H 0.036(4) -0.201(4) -0.566(4)
H10B H 0.250(3) -0.292(4) -0.611(4)
loop_
_geom_bond_atom_site_label_1
_geom_bond_atom_site_label_2
_geom_bond_site_symmetry_1
_geom_bond_site_symmetry_2
Zn1 O1 1_555 1_555
O1 C3 1_555 1_555
O2 C3 1_555 1_555
O3 Zn1 1_555 1_555
N1 C4 1_555 1_555
C1 C2 1_555 1_555
C2 C3 1_555 1_555
C4 C5 1_555 1_555
C5 C1 1_555 1_555
C6 C5 1_555 1_555
C7 C6 1_555 1_555
C8 N1 1_555 1_555
H1 C1 1_555 1_555
H2 C1 1_555 1_555
H3 C2 1_555 1_555
H4 C2 1_555 1_555
H5 O3 1_555 1_555
H6 O3 1_555 1_555
H7 C4 1_555 1_555
H8 C6 1_555 1_555
H9 C7 1_555 1_555
H10 C8 1_555 1_555
Zn1C N1 1_555 1_555
Zn1C_2 N1B 1_555 1_555
O1B Zn1 1_555 1_555
O2B C3B 1_555 1_555
O3B Zn1 1_555 1_555
N1C Zn1 1_555 1_555
N1A Zn1 1_555 1_555
N1B C4B 1_555 1_555
C1B C2B 1_555 1_555
C2B C3B 1_555 1_555
C3B O1B 1_555 1_555
C4B C5B 1_555 1_555
C5B C1B 1_555 1_555
C6B C5B 1_555 1_555
C7B C6B 1_555 1_555
C8B N1B 1_555 1_555
H1B C1B 1_555 1_555
H2B C1B 1_555 1_555
H3B C2B 1_555 1_555
H4B C2B 1_555 1_555
H5B O3B 1_555 1_555
H6B O3B 1_555 1_555
H7B C4B 1_555 1_555
H8B C6B 1_555 1_555
H9B C7B 1_555 1_555
H10B C8B 1_555 1_555
C7 C8 1_555 1_555
C7B C8B 1_555 1_555

#END
