
#######################################################################
#
#                 Cambridge Crystallographic Data Centre
#                                CCDC 
#
#######################################################################
#
# If this CIF has been generated from an entry in the Cambridge 
# Structural Database, then it will include bibliographic, chemical, 
# crystal, experimental, refinement or atomic coordinate data resulting 
# from the CCDC's data processing and validation procedures.
#
#######################################################################

data_XEPJEJ
_symmetry_cell_setting           rhombohedral
_symmetry_space_group_name_H-M   'R 3 2'
_symmetry_Int_Tables_number      155
_space_group_name_Hall           'R 3 2"'
loop_
_symmetry_equiv_pos_site_id
_symmetry_equiv_pos_as_xyz
1 x,y,z
2 -y,x-y,z
3 -x+y,-x,z
4 y,x,-z
5 x-y,-y,-z
6 -x,-x+y,-z
7 2/3+x,1/3+y,1/3+z
8 2/3-y,1/3+x-y,1/3+z
9 2/3-x+y,1/3-x,1/3+z
10 2/3+y,1/3+x,1/3-z
11 2/3+x-y,1/3-y,1/3-z
12 2/3-x,1/3-x+y,1/3-z
13 1/3+x,2/3+y,2/3+z
14 1/3-y,2/3+x-y,2/3+z
15 1/3-x+y,2/3-x,2/3+z
16 1/3+y,2/3+x,2/3-z
17 1/3+x-y,2/3-y,2/3-z
18 1/3-x,2/3-x+y,2/3-z
_cell_length_a                   9.6100(14)
_cell_length_b                   9.6100(14)
_cell_length_c                   20.501(4)
_cell_angle_alpha                90
_cell_angle_beta                 90
_cell_angle_gamma                120
_cell_volume                     1639.65
loop_
_atom_site_label
_atom_site_type_symbol
_atom_site_fract_x
_atom_site_fract_y
_atom_site_fract_z
Dy1 Dy 0.3333 0.6667 0.900510(19)
O1 O 0.1036(7) 0.7029(7) 0.9057(3)
O2 O -0.1528(7) 0.6113(8) 0.9307(3)
O3 O 0.1364(6) 0.5230(6) 0.9868(3)
H1 H 0.1431 0.4626 1.0132
O4 O 0.4996(7) 0.6520(7) 0.8187(3)
C1 C -0.0205(9) 0.6218(9) 0.9397(3)
C2 C 0.0000 0.5350(9) 1.0000
Dy1E Dy -0.3333 0.3334 1.099490(19)
Dy1D Dy 0.6666 0.3333 1.099490(19)
Dy1C Dy 0.6667 1.3333 1.099490(19)
O1E O -0.1036(7) 0.5993(10) 1.0943(3)
O1A O 0.2971(7) 0.4007(10) 0.9057(3)
O1D O 0.4007(10) 0.2971(7) 1.0943(3)
O1B O 0.5993(10) 0.8964(7) 0.9057(3)
O1C O 0.7029(7) 1.1036(7) 1.0943(3)
O1C_2 O -0.2971(7) 0.1036(7) 1.0943(3)
O1D_2 O -0.5993(10) 0.2971(7) 1.0943(3)
O2E O 0.1528(7) 0.7641(11) 1.0693(3)
O2A O 0.3887(8) 0.2359(11) 0.9307(3)
O2D O 0.2359(11) 0.3887(8) 1.0693(3)
O2B O 0.7641(11) 1.1528(7) 0.9307(3)
O2C O 0.6113(8) 0.8472(7) 1.0693(3)
O3E O -0.1364(6) 0.3866(8) 1.0132(3)
O3A O 0.4770(6) 0.6134(8) 0.9868(3)
O3D O 0.6134(8) 0.4770(6) 1.0132(3)
O3B O 0.3866(8) 0.8636(6) 0.9868(3)
O3C O 0.5230(6) 1.1364(6) 1.0132(3)
O3C_2 O -0.4770(6) 0.1364(6) 1.0132(3)
O3D_2 O -0.3866(8) 0.4770(6) 1.0132(3)
H1E H -0.1431 0.3195 0.9868
H1A H 0.5374 0.6805 1.0132
H1D H 0.6805 0.5374 0.9868
H1B H 0.3195 0.8569 1.0132
H1C H 0.4626 1.1431 0.9868
H1C_2 H -0.5374 0.1431 0.9868
H1D_2 H -0.3195 0.5374 0.9868
O4A O 0.3480(7) 0.8476(10) 0.8187(3)
O4B O 0.1524(10) 0.5004(7) 0.8187(3)
O4E O -0.4996(7) 0.1524(10) 1.1813(3)
O4C O -0.3480(7) 0.4996(7) 1.1813(3)
O4D O -0.1524(10) 0.3480(7) 1.1813(3)
C1E C 0.0205(9) 0.6423(13) 1.0603(3)
C1A C 0.3782(9) 0.3577(13) 0.9397(3)
C1D C 0.3577(13) 0.3782(9) 1.0603(3)
C1B C 0.6423(13) 1.0205(9) 0.9397(3)
C1C C 0.6218(9) 0.9795(9) 1.0603(3)
C2A C 0.4650(9) 0.4650(9) 1.0000
C2B C 0.5350(9) 1.0000 1.0000
O5 O 0.3333 0.6667 0.6667
loop_
_geom_bond_atom_site_label_1
_geom_bond_atom_site_label_2
_geom_bond_site_symmetry_1
_geom_bond_site_symmetry_2
Dy1 O1 1_555 1_555
O1 C1 1_555 1_555
O2 C1 1_555 1_555
O3 Dy1 1_555 1_555
H1 O3 1_555 1_555
O4 Dy1 1_555 1_555
C1 C2 1_555 1_555
C2 O3 1_555 1_555
Dy1E O1E 1_555 1_555
Dy1D O1D 1_555 1_555
Dy1C O1C 1_555 1_555
O1E C1E 1_555 1_555
O1A Dy1 1_555 1_555
O1D C1D 1_555 1_555
O1B Dy1 1_555 1_555
O1C C1C 1_555 1_555
O1C_2 Dy1E 1_555 1_555
O1D_2 Dy1E 1_555 1_555
O2E C1E 1_555 1_555
O2A C1A 1_555 1_555
O2D C1D 1_555 1_555
O2B C1B 1_555 1_555
O2C C1C 1_555 1_555
O3E C2 1_555 1_555
O3A Dy1 1_555 1_555
O3D Dy1D 1_555 1_555
O3B Dy1 1_555 1_555
O3C Dy1C 1_555 1_555
O3C_2 Dy1E 1_555 1_555
O3D_2 Dy1E 1_555 1_555
H1E O3E 1_555 1_555
H1A O3A 1_555 1_555
H1D O3D 1_555 1_555
H1B O3B 1_555 1_555
H1C O3C 1_555 1_555
H1C_2 O3C_2 1_555 1_555
H1D_2 O3D_2 1_555 1_555
O4A Dy1 1_555 1_555
O4B Dy1 1_555 1_555
O4E Dy1E 1_555 1_555
O4C Dy1E 1_555 1_555
O4D Dy1E 1_555 1_555
C1E C2 1_555 1_555
C1A O1A 1_555 1_555
C1D C2A 1_555 1_555
C1B O1B 1_555 1_555
C1C C2B 1_555 1_555
C2A O3A 1_555 1_555
C2B O3B 1_555 1_555
Dy1E O3E 1_555 1_555
O3D C2A 1_555 1_555
O3C C2B 1_555 1_555
C1A C2A 1_555 1_555
C1B C2B 1_555 1_555

#END
