
#######################################################################
#
#                 Cambridge Crystallographic Data Centre
#                                CCDC 
#
#######################################################################
#
# If this CIF has been generated from an entry in the Cambridge 
# Structural Database, then it will include bibliographic, chemical, 
# crystal, experimental, refinement or atomic coordinate data resulting 
# from the CCDC's data processing and validation procedures.
#
#######################################################################

data_XEPJUZ
_symmetry_cell_setting           rhombohedral
_symmetry_space_group_name_H-M   'R 3 2'
_symmetry_Int_Tables_number      155
_space_group_name_Hall           'R 3 2"'
loop_
_symmetry_equiv_pos_site_id
_symmetry_equiv_pos_as_xyz
1 x,y,z
2 -y,x-y,z
3 -x+y,-x,z
4 y,x,-z
5 x-y,-y,-z
6 -x,-x+y,-z
7 2/3+x,1/3+y,1/3+z
8 2/3-y,1/3+x-y,1/3+z
9 2/3-x+y,1/3-x,1/3+z
10 2/3+y,1/3+x,1/3-z
11 2/3+x-y,1/3-y,1/3-z
12 2/3-x,1/3-x+y,1/3-z
13 1/3+x,2/3+y,2/3+z
14 1/3-y,2/3+x-y,2/3+z
15 1/3-x+y,2/3-x,2/3+z
16 1/3+y,2/3+x,2/3-z
17 1/3+x-y,2/3-y,2/3-z
18 1/3-x,2/3-x+y,2/3-z
_cell_length_a                   9.6010(14)
_cell_length_b                   9.6010(14)
_cell_length_c                   20.439(4)
_cell_angle_alpha                90
_cell_angle_beta                 90
_cell_angle_gamma                120
_cell_volume                     1631.64
loop_
_atom_site_label
_atom_site_type_symbol
_atom_site_fract_x
_atom_site_fract_y
_atom_site_fract_z
Ho1 Ho 0.3333 0.6667 0.90108(2)
O1 O 0.2965(8) 0.8956(7) 0.9055(3)
O2 O 0.3885(8) 1.1533(7) 0.9302(3)
O3 O 0.4772(6) 0.8626(7) 0.9872(3)
H1 H 0.5292 0.8510 1.0163
O4 O 0.3470(7) 0.5007(7) 0.8199(3)
H2 H 0.4396 0.5410 0.8064
H3 H 0.2754 0.4501 0.7942
C1 C 0.3780(10) 1.0201(10) 0.9393(4)
C2 C 0.4654(10) 1.0000 1.0000
Ho1D Ho 0.6666 1.3333 1.09892(2)
Ho1C Ho -0.3333 0.3333 1.09892(2)
Ho1E Ho 0.6667 0.3334 1.09892(2)
O1D O 0.4009(11) 1.1044(7) 1.0945(3)
O1A O 0.1044(7) 0.4009(11) 0.9055(3)
O1C O -0.1044(7) 0.2965(8) 1.0945(3)
O1B O 0.5991(11) 0.7035(8) 0.9055(3)
O1E O 0.7035(8) 0.5991(11) 1.0945(3)
O1E_2 O 0.7035(8) 1.5991(11) 1.0945(3)
O1C_2 O 0.8956(7) 1.2965(8) 1.0945(3)
O2D O 0.2352(11) 0.8467(7) 1.0698(3)
O2A O -0.1533(7) 0.2352(11) 0.9302(3)
O2C O 0.1533(7) 0.3885(8) 1.0698(3)
O2B O 0.7648(11) 0.6115(8) 0.9302(3)
O2E O 0.6115(8) 0.7648(11) 1.0698(3)
O3D O 0.6146(9) 1.1374(7) 1.0128(3)
O3A O 0.1374(7) 0.6146(9) 0.9872(3)
O3C O -0.1374(7) 0.4772(6) 1.0128(3)
O3B O 0.3854(9) 0.5228(6) 0.9872(3)
O3E O 0.5228(6) 0.3854(9) 1.0128(3)
O3E_2 O 0.5228(6) 1.3854(9) 1.0128(3)
O3C_2 O 0.8626(7) 1.4772(6) 1.0128(3)
H1D H 0.6782 1.1490 0.9837
H1A H 0.1490 0.6782 1.0163
H1C H -0.1490 0.5292 0.9837
H1B H 0.3218 0.4708 1.0163
H1E H 0.4708 0.3218 0.9837
H1E_2 H 0.4708 1.3218 0.9837
H1C_2 H 0.8510 1.5292 0.9837
O4A O 0.4993(7) 0.8463(10) 0.8199(3)
O4B O 0.1537(10) 0.6530(7) 0.8199(3)
O4D O 0.8463(10) 1.4993(7) 1.1801(3)
O4E O 0.6530(7) 1.1537(10) 1.1801(3)
O4C O 0.5007(7) 1.3470(7) 1.1801(3)
H2A H 0.4590 0.8986 0.8064
H2B H 0.1014 0.5604 0.8064
H2D H 0.8986 1.4590 1.1936
H2E H 0.5604 1.1014 1.1936
H2C H 0.5410 1.4396 1.1936
H3A H 0.5499 0.8253 0.7942
H3B H 0.1747 0.7246 0.7942
H3D H 0.8253 1.5499 1.2058
H3E H 0.7246 1.1747 1.2058
H3C H 0.4501 1.2754 1.2058
C1D C 0.3579(14) 0.9799(10) 1.0607(4)
C1A C -0.0201(10) 0.3579(14) 0.9393(4)
C1C C 0.0201(10) 0.3780(10) 1.0607(4)
C1B C 0.6421(14) 0.6220(10) 0.9393(4)
C1E C 0.6220(10) 0.6421(14) 1.0607(4)
C2A C 0.0000 0.4654(10) 1.0000
C2B C 0.5346(10) 0.5346(10) 1.0000
O5 O 0.3333 0.6667 0.6667
loop_
_geom_bond_atom_site_label_1
_geom_bond_atom_site_label_2
_geom_bond_site_symmetry_1
_geom_bond_site_symmetry_2
Ho1 O1 1_555 1_555
O1 C1 1_555 1_555
O2 C1 1_555 1_555
O3 Ho1 1_555 1_555
H1 O3 1_555 1_555
O4 Ho1 1_555 1_555
H2 O4 1_555 1_555
H3 O4 1_555 1_555
C1 C2 1_555 1_555
C2 O3 1_555 1_555
Ho1D O1D 1_555 1_555
Ho1C O1C 1_555 1_555
Ho1E O1E 1_555 1_555
O1D C1D 1_555 1_555
O1A Ho1 1_555 1_555
O1C C1C 1_555 1_555
O1B Ho1 1_555 1_555
O1E C1E 1_555 1_555
O1E_2 Ho1D 1_555 1_555
O1C_2 Ho1D 1_555 1_555
O2D C1D 1_555 1_555
O2A C1A 1_555 1_555
O2C C1C 1_555 1_555
O2B C1B 1_555 1_555
O2E C1E 1_555 1_555
O3D C2 1_555 1_555
O3A Ho1 1_555 1_555
O3C Ho1C 1_555 1_555
O3B Ho1 1_555 1_555
O3E Ho1E 1_555 1_555
O3E_2 Ho1D 1_555 1_555
O3C_2 Ho1D 1_555 1_555
H1D O3D 1_555 1_555
H1A O3A 1_555 1_555
H1C O3C 1_555 1_555
H1B O3B 1_555 1_555
H1E O3E 1_555 1_555
H1E_2 O3E_2 1_555 1_555
H1C_2 O3C_2 1_555 1_555
O4A Ho1 1_555 1_555
O4B Ho1 1_555 1_555
O4D Ho1D 1_555 1_555
O4E Ho1D 1_555 1_555
O4C Ho1D 1_555 1_555
H2A O4A 1_555 1_555
H2B O4B 1_555 1_555
H2D O4D 1_555 1_555
H2E O4E 1_555 1_555
H2C O4C 1_555 1_555
H3A O4A 1_555 1_555
H3B O4B 1_555 1_555
H3D O4D 1_555 1_555
H3E O4E 1_555 1_555
H3C O4C 1_555 1_555
C1D C2 1_555 1_555
C1A O1A 1_555 1_555
C1C C2A 1_555 1_555
C1B O1B 1_555 1_555
C1E C2B 1_555 1_555
C2A O3A 1_555 1_555
C2B O3B 1_555 1_555
Ho1D O3D 1_555 1_555
O3C C2A 1_555 1_555
O3E C2B 1_555 1_555
C1A C2A 1_555 1_555
C1B C2B 1_555 1_555

#END
