
#######################################################################
#
#                 Cambridge Crystallographic Data Centre
#                                CCDC 
#
#######################################################################
#
# If this CIF has been generated from an entry in the Cambridge 
# Structural Database, then it will include bibliographic, chemical, 
# crystal, experimental, refinement or atomic coordinate data resulting 
# from the CCDC's data processing and validation procedures.
#
#######################################################################

data_XEPJIN
_symmetry_cell_setting           rhombohedral
_symmetry_space_group_name_H-M   'R 3 2'
_symmetry_Int_Tables_number      155
_space_group_name_Hall           'R 3 2"'
loop_
_symmetry_equiv_pos_site_id
_symmetry_equiv_pos_as_xyz
1 x,y,z
2 -y,x-y,z
3 -x+y,-x,z
4 y,x,-z
5 x-y,-y,-z
6 -x,-x+y,-z
7 2/3+x,1/3+y,1/3+z
8 2/3-y,1/3+x-y,1/3+z
9 2/3-x+y,1/3-x,1/3+z
10 2/3+y,1/3+x,1/3-z
11 2/3+x-y,1/3-y,1/3-z
12 2/3-x,1/3-x+y,1/3-z
13 1/3+x,2/3+y,2/3+z
14 1/3-y,2/3+x-y,2/3+z
15 1/3-x+y,2/3-x,2/3+z
16 1/3+y,2/3+x,2/3-z
17 1/3+x-y,2/3-y,2/3-z
18 1/3-x,2/3-x+y,2/3-z
_cell_length_a                   9.5835(14)
_cell_length_b                   9.5835(14)
_cell_length_c                   20.423(4)
_cell_angle_alpha                90
_cell_angle_beta                 90
_cell_angle_gamma                120
_cell_volume                     1624.42
loop_
_atom_site_label
_atom_site_type_symbol
_atom_site_fract_x
_atom_site_fract_y
_atom_site_fract_z
Er1 Er 0.6667 0.3333 0.59864(3)
O1 O 0.8948(8) 0.5996(8) 0.5944(3)
O2 O 1.1531(8) 0.7644(9) 0.5699(3)
O3 O 0.8627(8) 0.3860(7) 0.5128(3)
H1 H 0.8540 0.3208 0.4848
O4 O 0.5010(8) 0.1527(9) 0.6795(3)
H2 H 0.5376 0.0952 0.6907
H3 H 0.4601 0.1842 0.7184
C1 C 1.0193(12) 0.6421(12) 0.5610(5)
C2 C 1.0000 0.5352(12) 0.5000
Er1E Er 1.3333 0.6666 0.40136(3)
Er1C Er 0.3333 -0.3333 0.40136(3)
Er1D Er 0.3334 0.6667 0.40136(3)
O1E O 1.1052(8) 0.7048(11) 0.4056(3)
O1B O 0.7048(11) 0.1052(8) 0.5944(3)
O1C O 0.5996(8) -0.1052(8) 0.4056(3)
O1A O 0.4004(8) 0.2952(11) 0.5944(3)
O1D O 0.2952(11) 0.4004(8) 0.4056(3)
O1D_2 O 1.2952(11) 0.4004(8) 0.4056(3)
O1C_2 O 1.5996(8) 0.8948(8) 0.4056(3)
O2E O 0.8469(8) 0.6113(12) 0.4301(3)
O2B O 0.6113(12) -0.1531(8) 0.5699(3)
O2C O 0.7644(9) 0.1531(8) 0.4301(3)
O2A O 0.2356(9) 0.3887(12) 0.5699(3)
O2D O 0.3887(12) 0.2356(9) 0.4301(3)
O3E O 1.1373(8) 0.5233(11) 0.4872(3)
O3B O 0.5233(11) 0.1373(8) 0.5128(3)
O3C O 0.3860(7) -0.1373(8) 0.4872(3)
O3A O 0.6140(7) 0.4767(11) 0.5128(3)
O3D O 0.4767(11) 0.6140(7) 0.4872(3)
O3D_2 O 1.4767(11) 0.6140(7) 0.4872(3)
O3C_2 O 1.3860(7) 0.8627(8) 0.4872(3)
H1E H 1.1460 0.4668 0.5152
H1B H 0.4668 0.1460 0.4848
H1C H 0.3208 -0.1460 0.5152
H1A H 0.6792 0.5332 0.4848
H1D H 0.5332 0.6792 0.5152
H1D_2 H 1.5332 0.6792 0.5152
H1C_2 H 1.3208 0.8540 0.5152
O4A O 0.8473(9) 0.3483(12) 0.6795(3)
O4B O 0.6517(12) 0.4990(8) 0.6795(3)
O4E O 1.4990(8) 0.6517(12) 0.3205(3)
O4C O 1.1527(9) 0.5010(8) 0.3205(3)
O4D O 1.3483(12) 0.8473(9) 0.3205(3)
H2A H 0.9048 0.4424 0.6907
H2B H 0.5576 0.4624 0.6907
H2E H 1.4624 0.5576 0.3093
H2C H 1.0952 0.5376 0.3093
H2D H 1.4424 0.9048 0.3093
H3A H 0.8158 0.2759 0.7184
H3B H 0.7241 0.5399 0.7184
H3E H 1.5399 0.7241 0.2816
H3C H 1.1842 0.4601 0.2816
H3D H 1.2759 0.8158 0.2816
C1E C 0.9807(12) 0.6228(17) 0.4390(5)
C1B C 0.6228(17) -0.0193(12) 0.5610(5)
C1C C 0.6421(12) 0.0193(12) 0.4390(5)
C1A C 0.3579(12) 0.3772(17) 0.5610(5)
C1D C 0.3772(17) 0.3579(12) 0.4390(5)
C2B C 0.5352(12) 0.0000 0.5000
C2A C 0.4648(12) 0.4648(12) 0.5000
O5 O 0.6667 0.3333 0.8333
loop_
_geom_bond_atom_site_label_1
_geom_bond_atom_site_label_2
_geom_bond_site_symmetry_1
_geom_bond_site_symmetry_2
Er1 O1 1_555 1_555
O1 C1 1_555 1_555
O2 C1 1_555 1_555
O3 Er1 1_555 1_555
H1 O3 1_555 1_555
O4 Er1 1_555 1_555
H2 O4 1_555 1_555
H3 O4 1_555 1_555
C1 C2 1_555 1_555
C2 O3 1_555 1_555
Er1E O1E 1_555 1_555
Er1C O1C 1_555 1_555
Er1D O1D 1_555 1_555
O1E C1E 1_555 1_555
O1B Er1 1_555 1_555
O1C C1C 1_555 1_555
O1A Er1 1_555 1_555
O1D C1D 1_555 1_555
O1D_2 Er1E 1_555 1_555
O1C_2 Er1E 1_555 1_555
O2E C1E 1_555 1_555
O2B C1B 1_555 1_555
O2C C1C 1_555 1_555
O2A C1A 1_555 1_555
O2D C1D 1_555 1_555
O3E C2 1_555 1_555
O3B Er1 1_555 1_555
O3C Er1C 1_555 1_555
O3A Er1 1_555 1_555
O3D Er1D 1_555 1_555
O3D_2 Er1E 1_555 1_555
O3C_2 Er1E 1_555 1_555
H1E O3E 1_555 1_555
H1B O3B 1_555 1_555
H1C O3C 1_555 1_555
H1A O3A 1_555 1_555
H1D O3D 1_555 1_555
H1D_2 O3D_2 1_555 1_555
H1C_2 O3C_2 1_555 1_555
O4A Er1 1_555 1_555
O4B Er1 1_555 1_555
O4E Er1E 1_555 1_555
O4C Er1E 1_555 1_555
O4D Er1E 1_555 1_555
H2A O4A 1_555 1_555
H2B O4B 1_555 1_555
H2E O4E 1_555 1_555
H2C O4C 1_555 1_555
H2D O4D 1_555 1_555
H3A O4A 1_555 1_555
H3B O4B 1_555 1_555
H3E O4E 1_555 1_555
H3C O4C 1_555 1_555
H3D O4D 1_555 1_555
C1E C2 1_555 1_555
C1B O1B 1_555 1_555
C1C C2B 1_555 1_555
C1A O1A 1_555 1_555
C1D C2A 1_555 1_555
C2B O3B 1_555 1_555
C2A O3A 1_555 1_555
Er1E O3E 1_555 1_555
O3C C2B 1_555 1_555
O3D C2A 1_555 1_555
C1B C2B 1_555 1_555
C1A C2A 1_555 1_555

#END
