
#######################################################################
#
#                 Cambridge Crystallographic Data Centre
#                                CCDC 
#
#######################################################################
#
# If this CIF has been generated from an entry in the Cambridge 
# Structural Database, then it will include bibliographic, chemical, 
# crystal, experimental, refinement or atomic coordinate data resulting 
# from the CCDC's data processing and validation procedures.
#
#######################################################################

data_XEPJAE
_symmetry_cell_setting           triclinic
_symmetry_space_group_name_H-M   'P -1'
_symmetry_Int_Tables_number      2
_space_group_name_Hall           '-P 1'
loop_
_symmetry_equiv_pos_site_id
_symmetry_equiv_pos_as_xyz
1 x,y,z
2 -x,-y,-z
_cell_length_a                   4.8828(11)
_cell_length_b                   8.2018(18)
_cell_length_c                   11.813(3)
_cell_angle_alpha                100.538(4)
_cell_angle_beta                 98.494(3)
_cell_angle_gamma                104.797(4)
_cell_volume                     440.174
loop_
_atom_site_label
_atom_site_type_symbol
_atom_site_fract_x
_atom_site_fract_y
_atom_site_fract_z
Ag1 Ag 0.73529(6) 0.94341(4) -0.09045(2)
O1 O 0.6250(5) 0.8156(3) 0.0561(2)
O2 O 1.0220(5) 0.8981(3) 0.1965(2)
N1 N -0.2861(6) 0.2324(4) 0.2096(2)
C1 C 0.7619(7) 0.8149(4) 0.1536(3)
C2 C 0.6011(7) 0.7058(5) 0.2283(3)
C3 C 0.3411(7) 0.5614(5) 0.1558(3)
C4 C -0.1017(7) 0.3358(4) 0.1615(3)
C5 C 0.1615(7) 0.4505(4) 0.2227(3)
C6 C 0.2377(8) 0.4537(5) 0.3404(3)
C7 C 0.0516(9) 0.3447(5) 0.3911(3)
C8 C -0.2067(8) 0.2371(5) 0.3235(3)
H2 H 0.544(8) 0.778(5) 0.278(3)
H3 H 0.751(9) 0.649(5) 0.276(4)
H4 H 0.218(9) 0.613(5) 0.114(4)
H5 H 0.404(9) 0.482(5) 0.100(4)
H6 H -0.163(7) 0.331(4) 0.081(3)
H7 H 0.401(10) 0.525(6) 0.385(4)
H8 H 0.085(10) 0.338(6) 0.472(4)
H9 H -0.340(8) 0.165(5) 0.358(3)
Ag1A Ag 1.26471(6) 1.05659(4) 0.09045(2)
Ag1A_2 Ag -0.73529(6) 0.05659(4) 0.09045(2)
O2A O 0.9780(5) 1.1019(3) -0.1965(2)
N1A N 0.2861(6) 0.7676(4) -0.2096(2)
O3 O 0.2097(7) 0.9516(5) 0.4445(3)
H1 H 0.1730 0.9494 0.3745
loop_
_geom_bond_atom_site_label_1
_geom_bond_atom_site_label_2
_geom_bond_site_symmetry_1
_geom_bond_site_symmetry_2
Ag1 O1 1_555 1_555
O1 C1 1_555 1_555
O2 C1 1_555 1_555
O3 H1 1_555 1_555
N1 C4 1_555 1_555
C1 C2 1_555 1_555
C2 C3 1_555 1_555
C3 C5 1_555 1_555
C4 C5 1_555 1_555
C5 C6 1_555 1_555
C6 C7 1_555 1_555
C7 C8 1_555 1_555
C8 N1 1_555 1_555
H2 C2 1_555 1_555
H3 C2 1_555 1_555
H4 C3 1_555 1_555
H5 C3 1_555 1_555
H6 C4 1_555 1_555
H7 C6 1_555 1_555
H8 C7 1_555 1_555
H9 C8 1_555 1_555
Ag1A Ag1 1_555 1_555
Ag1A_2 N1 1_555 1_555
O2A Ag1 1_555 1_555
N1A Ag1 1_555 1_555
O2 Ag1A 1_555 1_555

#END
