
#######################################################################
#
#                 Cambridge Crystallographic Data Centre
#                                CCDC 
#
#######################################################################
#
# If this CIF has been generated from an entry in the Cambridge 
# Structural Database, then it will include bibliographic, chemical, 
# crystal, experimental, refinement or atomic coordinate data resulting 
# from the CCDC's data processing and validation procedures.
#
#######################################################################

data_XEPKAG
_symmetry_cell_setting           rhombohedral
_symmetry_space_group_name_H-M   'R 3 2'
_symmetry_Int_Tables_number      155
_space_group_name_Hall           'R 3 2"'
loop_
_symmetry_equiv_pos_site_id
_symmetry_equiv_pos_as_xyz
1 x,y,z
2 -y,x-y,z
3 -x+y,-x,z
4 y,x,-z
5 x-y,-y,-z
6 -x,-x+y,-z
7 2/3+x,1/3+y,1/3+z
8 2/3-y,1/3+x-y,1/3+z
9 2/3-x+y,1/3-x,1/3+z
10 2/3+y,1/3+x,1/3-z
11 2/3+x-y,1/3-y,1/3-z
12 2/3-x,1/3-x+y,1/3-z
13 1/3+x,2/3+y,2/3+z
14 1/3-y,2/3+x-y,2/3+z
15 1/3-x+y,2/3-x,2/3+z
16 1/3+y,2/3+x,2/3-z
17 1/3+x-y,2/3-y,2/3-z
18 1/3-x,2/3-x+y,2/3-z
_cell_length_a                   9.6935(14)
_cell_length_b                   9.6935(14)
_cell_length_c                   20.838(4)
_cell_angle_alpha                90
_cell_angle_beta                 90
_cell_angle_gamma                120
_cell_volume                     1695.7
loop_
_atom_site_label
_atom_site_type_symbol
_atom_site_fract_x
_atom_site_fract_y
_atom_site_fract_z
Nd1 Nd 0.6667 0.3333 0.101471(15)
O1 O 0.6999(3) 0.6018(3) 0.09388(15)
O2 O 0.6126(4) 0.7669(3) 0.06638(15)
O3 O 0.5242(3) 0.3894(3) 0.01387(13)
H1 H 0.4931 0.3326 -0.0181
O4 O 0.6546(3) 0.1513(3) 0.18503(14)
H2 H 0.7389 0.1925 0.2049
H3 H 0.5552 0.0658 0.2023
C1 C 0.6222(5) 0.6446(5) 0.0593(2)
C2 C 0.5373(5) 0.5373(5) 0.0000
Nd1C Nd 0.3333 0.6667 -0.101471(15)
Nd1D Nd 1.3334 0.6667 -0.101471(15)
Nd1E Nd 0.3333 -0.3334 -0.101471(15)
O1C O 0.6018(3) 0.6999(3) -0.09388(15)
O1B O 0.9019(4) 0.3001(3) 0.09388(15)
O1D O 1.0981(4) 0.3982(3) -0.09388(15)
O1A O 0.3982(3) 0.0981(4) 0.09388(15)
O1E O 0.3001(3) -0.0981(4) -0.09388(15)
O1E_2 O 0.3001(3) 0.9019(4) -0.09388(15)
O1D_2 O 0.0981(4) 0.3982(3) -0.09388(15)
O2C O 0.7669(3) 0.6126(4) -0.06638(15)
O2B O 1.1543(5) 0.3874(4) 0.06638(15)
O2D O 0.8457(5) 0.2331(3) -0.06638(15)
O2A O 0.2331(3) -0.1543(5) 0.06638(15)
O2E O 0.3874(4) 0.1543(5) -0.06638(15)
O3C O 0.3894(3) 0.5242(3) -0.01387(13)
O3B O 0.8652(4) 0.4758(3) 0.01387(13)
O3D O 1.1348(4) 0.6106(3) -0.01387(13)
O3A O 0.6106(3) 0.1348(4) 0.01387(13)
O3E O 0.4758(3) -0.1348(4) -0.01387(13)
O3E_2 O 0.4758(3) 0.8652(4) -0.01387(13)
O3D_2 O 0.1348(4) 0.6106(3) -0.01387(13)
H1C H 0.3326 0.4931 0.0181
H1B H 0.8395 0.5069 -0.0181
H1D H 1.1605 0.6674 0.0181
H1A H 0.6674 0.1605 -0.0181
H1E H 0.5069 -0.1605 0.0181
H1E_2 H 0.5069 0.8395 0.0181
H1D_2 H 0.1605 0.6674 0.0181
O4A O 0.8487(3) 0.5033(4) 0.18503(14)
O4B O 0.4967(4) 0.3454(3) 0.18503(14)
O4C O 0.1513(3) 0.6546(3) -0.18503(14)
O4D O 0.5033(4) 0.8487(3) -0.18503(14)
O4E O 0.3454(3) 0.4967(4) -0.18503(14)
H2A H 0.8075 0.5464 0.2049
H2B H 0.4536 0.2611 0.2049
H2C H 0.1925 0.7389 -0.2049
H2D H 0.5464 0.8075 -0.2049
H2E H 0.2611 0.4536 -0.2049
H3A H 0.9342 0.4894 0.2023
H3B H 0.5106 0.4448 0.2023
H3C H 0.0658 0.5552 -0.2023
H3D H 0.4894 0.9342 -0.2023
H3E H 0.4448 0.5106 -0.2023
C1C C 0.6446(5) 0.6222(5) -0.0593(2)
C1B C 1.0224(7) 0.3778(5) 0.0593(2)
C1D C 0.9776(7) 0.3554(5) -0.0593(2)
C1A C 0.3554(5) -0.0224(7) 0.0593(2)
C1E C 0.3778(5) 0.0224(7) -0.0593(2)
C2B C 1.0000(7) 0.4627(5) 0.0000
C2A C 0.4627(5) 0.0000(7) 0.0000
O5 O 0.6667 0.3333 0.3333
loop_
_geom_bond_atom_site_label_1
_geom_bond_atom_site_label_2
_geom_bond_site_symmetry_1
_geom_bond_site_symmetry_2
Nd1 O1 1_555 1_555
O1 C1 1_555 1_555
O2 C1 1_555 1_555
O3 Nd1 1_555 1_555
H1 O3 1_555 1_555
O4 Nd1 1_555 1_555
H2 O4 1_555 1_555
H3 O4 1_555 1_555
C1 C2 1_555 1_555
C2 O3 1_555 1_555
Nd1C O1C 1_555 1_555
Nd1D O1D 1_555 1_555
Nd1E O1E 1_555 1_555
O1C C1C 1_555 1_555
O1B Nd1 1_555 1_555
O1D C1D 1_555 1_555
O1A Nd1 1_555 1_555
O1E C1E 1_555 1_555
O1E_2 Nd1C 1_555 1_555
O1D_2 Nd1C 1_555 1_555
O2C C1C 1_555 1_555
O2B C1B 1_555 1_555
O2D C1D 1_555 1_555
O2A C1A 1_555 1_555
O2E C1E 1_555 1_555
O3C C2 1_555 1_555
O3B Nd1 1_555 1_555
O3D Nd1D 1_555 1_555
O3A Nd1 1_555 1_555
O3E Nd1E 1_555 1_555
O3E_2 Nd1C 1_555 1_555
O3D_2 Nd1C 1_555 1_555
H1C O3C 1_555 1_555
H1B O3B 1_555 1_555
H1D O3D 1_555 1_555
H1A O3A 1_555 1_555
H1E O3E 1_555 1_555
H1E_2 O3E_2 1_555 1_555
H1D_2 O3D_2 1_555 1_555
O4A Nd1 1_555 1_555
O4B Nd1 1_555 1_555
O4C Nd1C 1_555 1_555
O4D Nd1C 1_555 1_555
O4E Nd1C 1_555 1_555
H2A O4A 1_555 1_555
H2B O4B 1_555 1_555
H2C O4C 1_555 1_555
H2D O4D 1_555 1_555
H2E O4E 1_555 1_555
H3A O4A 1_555 1_555
H3B O4B 1_555 1_555
H3C O4C 1_555 1_555
H3D O4D 1_555 1_555
H3E O4E 1_555 1_555
C1C C2 1_555 1_555
C1B O1B 1_555 1_555
C1D C2B 1_555 1_555
C1A O1A 1_555 1_555
C1E C2A 1_555 1_555
C2B O3B 1_555 1_555
C2A O3A 1_555 1_555
Nd1C O3C 1_555 1_555
O3D C2B 1_555 1_555
O3E C2A 1_555 1_555
C1B C2B 1_555 1_555
C1A C2A 1_555 1_555

#END
