
#######################################################################
#
#                 Cambridge Crystallographic Data Centre
#                                CCDC 
#
#######################################################################
#
# If this CIF has been generated from an entry in the Cambridge 
# Structural Database, then it will include bibliographic, chemical, 
# crystal, experimental, refinement or atomic coordinate data resulting 
# from the CCDC's data processing and validation procedures.
#
#######################################################################

data_XEPKIO
_symmetry_cell_setting           rhombohedral
_symmetry_space_group_name_H-M   'R 3 2'
_symmetry_Int_Tables_number      155
_space_group_name_Hall           'R 3 2"'
loop_
_symmetry_equiv_pos_site_id
_symmetry_equiv_pos_as_xyz
1 x,y,z
2 -y,x-y,z
3 -x+y,-x,z
4 y,x,-z
5 x-y,-y,-z
6 -x,-x+y,-z
7 2/3+x,1/3+y,1/3+z
8 2/3-y,1/3+x-y,1/3+z
9 2/3-x+y,1/3-x,1/3+z
10 2/3+y,1/3+x,1/3-z
11 2/3+x-y,1/3-y,1/3-z
12 2/3-x,1/3-x+y,1/3-z
13 1/3+x,2/3+y,2/3+z
14 1/3-y,2/3+x-y,2/3+z
15 1/3-x+y,2/3-x,2/3+z
16 1/3+y,2/3+x,2/3-z
17 1/3+x-y,2/3-y,2/3-z
18 1/3-x,2/3-x+y,2/3-z
_cell_length_a                   9.6212(14)
_cell_length_b                   9.6212(14)
_cell_length_c                   20.522(4)
_cell_angle_alpha                90
_cell_angle_beta                 90
_cell_angle_gamma                120
_cell_volume                     1645.16
loop_
_atom_site_label
_atom_site_type_symbol
_atom_site_fract_x
_atom_site_fract_y
_atom_site_fract_z
Tb1 Tb 0.6667 0.3333 0.09968(2)
O1 O 0.3997(7) 0.2972(7) 0.0944(3)
O2 O 0.2347(7) 0.3883(8) 0.0689(3)
O3 O 0.6131(6) 0.4770(6) 0.0130(3)
H1 H 0.6705 0.5112 -0.0193
O4 O 0.8459(8) 0.3453(7) 0.1817(3)
H2 H 0.9098 0.4394 0.1903
H3 H 0.8039 0.2572 0.2056
C1 C 0.3570(9) 0.3780(9) 0.0603(4)
C2 C 0.4649(10) 0.4649(10) 0.0000
Tb1C Tb 0.3333 0.6667 -0.09968(2)
Tb1D Tb 1.3334 0.6667 -0.09968(2)
Tb1E Tb 0.3333 -0.3334 -0.09968(2)
O1C O 0.2972(7) 0.3997(7) -0.0944(3)
O1B O 0.8975(10) 0.6003(7) 0.0944(3)
O1D O 1.1025(10) 0.7028(7) -0.0944(3)
O1A O 0.7028(7) 0.1025(10) 0.0944(3)
O1E O 0.6003(7) -0.1025(10) -0.0944(3)
O1E_2 O 0.6003(7) 0.8975(10) -0.0944(3)
O1D_2 O 0.1025(10) 0.7028(7) -0.0944(3)
O2C O 0.3883(8) 0.2347(7) -0.0689(3)
O2B O 1.1536(11) 0.7653(7) 0.0689(3)
O2D O 0.8464(11) 0.6117(8) -0.0689(3)
O2A O 0.6117(8) -0.1536(11) 0.0689(3)
O2E O 0.7653(7) 0.1536(11) -0.0689(3)
O3C O 0.4770(6) 0.6131(6) -0.0130(3)
O3B O 0.8639(8) 0.3869(6) 0.0130(3)
O3D O 1.1361(8) 0.5230(6) -0.0130(3)
O3A O 0.5230(6) 0.1361(8) 0.0130(3)
O3E O 0.3869(6) -0.1361(8) -0.0130(3)
O3E_2 O 0.3869(6) 0.8639(8) -0.0130(3)
O3D_2 O 0.1361(8) 0.5230(6) -0.0130(3)
H1C H 0.5112 0.6705 0.0193
H1B H 0.8407 0.3295 -0.0193
H1D H 1.1593 0.4888 0.0193
H1A H 0.4888 0.1593 -0.0193
H1E H 0.3295 -0.1593 0.0193
H1E_2 H 0.3295 0.8407 0.0193
H1D_2 H 0.1593 0.4888 0.0193
O4A O 0.6547(7) 0.5006(11) 0.1817(3)
O4B O 0.4994(11) 0.1541(8) 0.1817(3)
O4C O 0.3453(7) 0.8459(8) -0.1817(3)
O4D O 0.5006(11) 0.6547(7) -0.1817(3)
O4E O 0.1541(8) 0.4994(11) -0.1817(3)
H2A H 0.5606 0.4704 0.1903
H2B H 0.5296 0.0902 0.1903
H2C H 0.4394 0.9098 -0.1903
H2D H 0.4704 0.5606 -0.1903
H2E H 0.0902 0.5296 -0.1903
H3A H 0.7428 0.5467 0.2056
H3B H 0.4533 0.1961 0.2056
H3C H 0.2572 0.8039 -0.2056
H3D H 0.5467 0.7428 -0.2056
H3E H 0.1961 0.4533 -0.2056
C1C C 0.3780(9) 0.3570(9) -0.0603(4)
C1B C 1.0210(13) 0.6430(9) 0.0603(4)
C1D C 0.9790(13) 0.6220(9) -0.0603(4)
C1A C 0.6220(9) -0.0210(13) 0.0603(4)
C1E C 0.6430(9) 0.0210(13) -0.0603(4)
C2B C 1.0000(14) 0.5351(10) 0.0000
C2A C 0.5351(10) 0.0000(14) 0.0000
O5 O 0.6667 0.3333 0.3333
loop_
_geom_bond_atom_site_label_1
_geom_bond_atom_site_label_2
_geom_bond_site_symmetry_1
_geom_bond_site_symmetry_2
Tb1 O1 1_555 1_555
O1 C1 1_555 1_555
O2 C1 1_555 1_555
O3 Tb1 1_555 1_555
H1 O3 1_555 1_555
O4 Tb1 1_555 1_555
H2 O4 1_555 1_555
H3 O4 1_555 1_555
C1 C2 1_555 1_555
C2 O3 1_555 1_555
Tb1C O1C 1_555 1_555
Tb1D O1D 1_555 1_555
Tb1E O1E 1_555 1_555
O1C C1C 1_555 1_555
O1B Tb1 1_555 1_555
O1D C1D 1_555 1_555
O1A Tb1 1_555 1_555
O1E C1E 1_555 1_555
O1E_2 Tb1C 1_555 1_555
O1D_2 Tb1C 1_555 1_555
O2C C1C 1_555 1_555
O2B C1B 1_555 1_555
O2D C1D 1_555 1_555
O2A C1A 1_555 1_555
O2E C1E 1_555 1_555
O3C C2 1_555 1_555
O3B Tb1 1_555 1_555
O3D Tb1D 1_555 1_555
O3A Tb1 1_555 1_555
O3E Tb1E 1_555 1_555
O3E_2 Tb1C 1_555 1_555
O3D_2 Tb1C 1_555 1_555
H1C O3C 1_555 1_555
H1B O3B 1_555 1_555
H1D O3D 1_555 1_555
H1A O3A 1_555 1_555
H1E O3E 1_555 1_555
H1E_2 O3E_2 1_555 1_555
H1D_2 O3D_2 1_555 1_555
O4A Tb1 1_555 1_555
O4B Tb1 1_555 1_555
O4C Tb1C 1_555 1_555
O4D Tb1C 1_555 1_555
O4E Tb1C 1_555 1_555
H2A O4A 1_555 1_555
H2B O4B 1_555 1_555
H2C O4C 1_555 1_555
H2D O4D 1_555 1_555
H2E O4E 1_555 1_555
H3A O4A 1_555 1_555
H3B O4B 1_555 1_555
H3C O4C 1_555 1_555
H3D O4D 1_555 1_555
H3E O4E 1_555 1_555
C1C C2 1_555 1_555
C1B O1B 1_555 1_555
C1D C2B 1_555 1_555
C1A O1A 1_555 1_555
C1E C2A 1_555 1_555
C2B O3B 1_555 1_555
C2A O3A 1_555 1_555
Tb1C O3C 1_555 1_555
O3D C2B 1_555 1_555
O3E C2A 1_555 1_555
C1B C2B 1_555 1_555
C1A C2A 1_555 1_555

#END
