
#######################################################################
#
#                 Cambridge Crystallographic Data Centre
#                                CCDC 
#
#######################################################################
#
# If this CIF has been generated from an entry in the Cambridge 
# Structural Database, then it will include bibliographic, chemical, 
# crystal, experimental, refinement or atomic coordinate data resulting 
# from the CCDC's data processing and validation procedures.
#
#######################################################################

data_XEPKOU
_symmetry_cell_setting           rhombohedral
_symmetry_space_group_name_H-M   'R 3 2'
_symmetry_Int_Tables_number      155
_space_group_name_Hall           'R 3 2"'
loop_
_symmetry_equiv_pos_site_id
_symmetry_equiv_pos_as_xyz
1 x,y,z
2 -y,x-y,z
3 -x+y,-x,z
4 y,x,-z
5 x-y,-y,-z
6 -x,-x+y,-z
7 2/3+x,1/3+y,1/3+z
8 2/3-y,1/3+x-y,1/3+z
9 2/3-x+y,1/3-x,1/3+z
10 2/3+y,1/3+x,1/3-z
11 2/3+x-y,1/3-y,1/3-z
12 2/3-x,1/3-x+y,1/3-z
13 1/3+x,2/3+y,2/3+z
14 1/3-y,2/3+x-y,2/3+z
15 1/3-x+y,2/3-x,2/3+z
16 1/3+y,2/3+x,2/3-z
17 1/3+x-y,2/3-y,2/3-z
18 1/3-x,2/3-x+y,2/3-z
_cell_length_a                   9.6939(14)
_cell_length_b                   9.6939(14)
_cell_length_c                   20.980(4)
_cell_angle_alpha                90
_cell_angle_beta                 90
_cell_angle_gamma                120
_cell_volume                     1707.39
loop_
_atom_site_label
_atom_site_type_symbol
_atom_site_fract_x
_atom_site_fract_y
_atom_site_fract_z
Nd1 Nd 0.3333 0.6667 0.899040(11)
O1 O 0.3001(4) 0.3980(4) 0.90687(14)
O2 O 0.3858(5) 0.2331(4) 0.93411(15)
O3 O 0.4755(3) 0.6099(3) 0.98677(13)
H1 H 0.5064 0.6663 1.0187
O4 O 0.3452(4) 0.8488(5) 0.81570(17)
H2 H 0.2609 0.8075 0.7959
H3 H 0.4446 0.9343 0.7984
C1 C 0.3782(5) 0.3559(5) 0.94106(18)
C2 C 0.4631(5) 0.4631(5) 1.0000
Nd1C Nd 0.6667 0.3333 1.100960(11)
Nd1D Nd -0.3334 0.3333 1.100960(11)
Nd1E Nd 0.6667 1.3334 1.100960(11)
O1C O 0.3980(4) 0.3001(4) 1.09313(14)
O1B O 0.0979(6) 0.6999(4) 0.90687(14)
O1D O -0.0979(6) 0.6020(4) 1.09313(14)
O1A O 0.6020(4) 0.9021(6) 0.90687(14)
O1E O 0.6999(4) 1.0979(6) 1.09313(14)
O1E_2 O 0.6999(4) 0.0979(6) 1.09313(14)
O1D_2 O 0.9021(6) 0.6020(4) 1.09313(14)
O2C O 0.2331(4) 0.3858(5) 1.06589(15)
O2B O -0.1527(6) 0.6142(5) 0.93411(15)
O2D O 0.1527(6) 0.7669(4) 1.06589(15)
O2A O 0.7669(4) 1.1527(6) 0.93411(15)
O2E O 0.6142(5) 0.8473(6) 1.06589(15)
O3C O 0.6099(3) 0.4755(3) 1.01323(13)
O3B O 0.1344(4) 0.5245(3) 0.98677(13)
O3D O -0.1344(4) 0.3901(3) 1.01323(13)
O3A O 0.3901(3) 0.8656(4) 0.98677(13)
O3E O 0.5245(3) 1.1344(4) 1.01323(13)
O3E_2 O 0.5245(3) 0.1344(4) 1.01323(13)
O3D_2 O 0.8656(4) 0.3901(3) 1.01323(13)
H1C H 0.6663 0.5064 0.9813
H1B H 0.1599 0.4936 1.0187
H1D H -0.1599 0.3337 0.9813
H1A H 0.3337 0.8401 1.0187
H1E H 0.4936 1.1599 0.9813
H1E_2 H 0.4936 0.1599 0.9813
H1D_2 H 0.8401 0.3337 0.9813
O4A O 0.1512(5) 0.4964(6) 0.81570(17)
O4B O 0.5036(6) 0.6548(4) 0.81570(17)
O4C O 0.8488(5) 0.3452(4) 1.18430(17)
O4D O 0.4964(6) 0.1512(5) 1.18430(17)
O4E O 0.6548(4) 0.5036(6) 1.18430(17)
H2A H 0.1925 0.4534 0.7959
H2B H 0.5466 0.7391 0.7959
H2C H 0.8075 0.2609 1.2041
H2D H 0.4534 0.1925 1.2041
H2E H 0.7391 0.5466 1.2041
H3A H 0.0657 0.5103 0.7984
H3B H 0.4897 0.5554 0.7984
H3C H 0.9343 0.4446 1.2016
H3D H 0.5103 0.0657 1.2016
H3E H 0.5554 0.4897 1.2016
C1C C 0.3559(5) 0.3782(5) 1.05894(18)
C1B C -0.0223(7) 0.6218(5) 0.94106(18)
C1D C 0.0223(7) 0.6441(5) 1.05894(18)
C1A C 0.6441(5) 1.0223(7) 0.94106(18)
C1E C 0.6218(5) 0.9777(7) 1.05894(18)
C2B C 0.0000(7) 0.5369(5) 1.0000
C2A C 0.5369(5) 1.0000(7) 1.0000
O5 O 0.3333 0.6667 0.6667
loop_
_geom_bond_atom_site_label_1
_geom_bond_atom_site_label_2
_geom_bond_site_symmetry_1
_geom_bond_site_symmetry_2
Nd1 O1 1_555 1_555
O1 C1 1_555 1_555
O2 C1 1_555 1_555
O3 Nd1 1_555 1_555
H1 O3 1_555 1_555
O4 Nd1 1_555 1_555
H2 O4 1_555 1_555
H3 O4 1_555 1_555
C1 C2 1_555 1_555
C2 O3 1_555 1_555
Nd1C O1C 1_555 1_555
Nd1D O1D 1_555 1_555
Nd1E O1E 1_555 1_555
O1C C1C 1_555 1_555
O1B Nd1 1_555 1_555
O1D C1D 1_555 1_555
O1A Nd1 1_555 1_555
O1E C1E 1_555 1_555
O1E_2 Nd1C 1_555 1_555
O1D_2 Nd1C 1_555 1_555
O2C C1C 1_555 1_555
O2B C1B 1_555 1_555
O2D C1D 1_555 1_555
O2A C1A 1_555 1_555
O2E C1E 1_555 1_555
O3C C2 1_555 1_555
O3B Nd1 1_555 1_555
O3D Nd1D 1_555 1_555
O3A Nd1 1_555 1_555
O3E Nd1E 1_555 1_555
O3E_2 Nd1C 1_555 1_555
O3D_2 Nd1C 1_555 1_555
H1C O3C 1_555 1_555
H1B O3B 1_555 1_555
H1D O3D 1_555 1_555
H1A O3A 1_555 1_555
H1E O3E 1_555 1_555
H1E_2 O3E_2 1_555 1_555
H1D_2 O3D_2 1_555 1_555
O4A Nd1 1_555 1_555
O4B Nd1 1_555 1_555
O4C Nd1C 1_555 1_555
O4D Nd1C 1_555 1_555
O4E Nd1C 1_555 1_555
H2A O4A 1_555 1_555
H2B O4B 1_555 1_555
H2C O4C 1_555 1_555
H2D O4D 1_555 1_555
H2E O4E 1_555 1_555
H3A O4A 1_555 1_555
H3B O4B 1_555 1_555
H3C O4C 1_555 1_555
H3D O4D 1_555 1_555
H3E O4E 1_555 1_555
C1C C2 1_555 1_555
C1B O1B 1_555 1_555
C1D C2B 1_555 1_555
C1A O1A 1_555 1_555
C1E C2A 1_555 1_555
C2B O3B 1_555 1_555
C2A O3A 1_555 1_555
Nd1C O3C 1_555 1_555
O3D C2B 1_555 1_555
O3E C2A 1_555 1_555
C1B C2B 1_555 1_555
C1A C2A 1_555 1_555

#END
