
#######################################################################
#
#                 Cambridge Crystallographic Data Centre
#                                CCDC 
#
#######################################################################
#
# If this CIF has been generated from an entry in the Cambridge 
# Structural Database, then it will include bibliographic, chemical, 
# crystal, experimental, refinement or atomic coordinate data resulting 
# from the CCDC's data processing and validation procedures.
#
#######################################################################

data_XEPKUA
_symmetry_cell_setting           monoclinic
_symmetry_space_group_name_H-M   'C 2/c'
_symmetry_Int_Tables_number      15
_space_group_name_Hall           '-C 2yn'
loop_
_symmetry_equiv_pos_site_id
_symmetry_equiv_pos_as_xyz
1 x,y,z
2 -x,y,1/2-z
3 1/2+x,1/2+y,z
4 1/2-x,1/2+y,1/2-z
5 -x,-y,-z
6 x,-y,1/2+z
7 1/2-x,1/2-y,-z
8 1/2+x,1/2-y,1/2+z
_cell_length_a                   32.465(4)
_cell_length_b                   10.527(3)
_cell_length_c                   31.845(3)
_cell_angle_alpha                90
_cell_angle_beta                 95.524(6)
_cell_angle_gamma                90
_cell_volume                     10832.8
loop_
_atom_site_label
_atom_site_type_symbol
_atom_site_fract_x
_atom_site_fract_y
_atom_site_fract_z
Zn1 Zn -0.018612(8) 1.39694(3) 0.075874(8)
Zn2 Zn -0.244860(9) 2.09456(3) 0.226570(9)
Zn3 Zn 0.181229(9) 1.32632(3) 0.402801(9)
O1 O -0.20027(6) 2.09411(17) 0.16443(6)
O2 O -0.21043(6) 1.94696(18) 0.21177(5)
O3 O 0.18670(5) 1.41938(17) 0.32547(5)
O4 O 0.13516(6) 1.33867(17) 0.35770(5)
O5 O 0.20550(5) 0.87499(18) -0.03067(5)
O6 O 0.15030(5) 0.76432(17) -0.05784(5)
O7 O -0.19858(6) 1.21341(18) -0.18249(6)
O8 O -0.20320(5) 1.42284(17) -0.19116(5)
O9 O -0.05575(5) 1.25611(16) 0.10671(5)
N1 N -0.06736(6) 1.50119(18) 0.04837(6)
N2 N -0.01608(6) 1.51402(18) 0.12786(6)
N3 N 0.03748(6) 1.31934(18) 0.09825(6)
N4 N -0.01193(6) 1.31505(17) 0.01784(6)
N5 N 0.20973(7) 1.4967(2) 0.42104(7)
H3 H 0.1979 1.5619 0.4061
H4 H 0.2081 1.5114 0.4487
N6 N 0.23883(7) 1.2584(2) 0.39915(7)
H5 H 0.2415 1.1801 0.4104
H6 H 0.2448 1.2550 0.3722
N7 N -0.22457(7) 2.2691(2) 0.24519(7)
H7 H -0.2460 2.3227 0.2464
H8 H -0.2076 2.3007 0.2271
N8 N -0.24212(7) 2.0566(2) 0.29162(6)
H9 H -0.2238 1.9940 0.2985
H10 H -0.2671 2.0320 0.2986
C1 C -0.08914(7) 1.4751(2) 0.01055(7)
C2 C -0.12838(8) 1.5418(3) 0.00784(8)
H11 H -0.1493 1.5378 -0.0142
C3 C -0.12870(7) 1.6111(2) 0.04364(8)
H12 H -0.1498 1.6645 0.0506
C4 C -0.09017(7) 1.5867(2) 0.06899(7)
C5 C -0.07910(7) 1.6424(2) 0.10887(7)
C6 C -0.04301(7) 1.6099(2) 0.13528(7)
C7 C -0.02993(8) 1.6675(2) 0.17510(8)
H13 H -0.0425 1.7361 0.1871
C8 C 0.00379(8) 1.6049(2) 0.19207(8)
H14 H 0.0187 1.6216 0.2179
C9 C 0.01228(7) 1.5076(2) 0.16270(7)
C10 C 0.04362(7) 1.4182(2) 0.16890(7)
C11 C 0.05510(7) 1.3293(2) 0.13919(7)
C12 C 0.08799(8) 1.2379(2) 0.14631(8)
H15 H 0.1045 1.2242 0.1714
C13 C 0.09026(8) 1.1754(2) 0.10913(7)
H16 H 0.1087 1.1106 0.1042
C14 C 0.05918(7) 1.2274(2) 0.07894(7)
C15 C 0.05283(7) 1.1946(2) 0.03627(7)
C16 C 0.02031(7) 1.2415(2) 0.00800(7)
C17 C 0.01620(7) 1.2170(2) -0.03713(7)
H17 H 0.0344 1.1710 -0.0520
C18 C -0.01879(7) 1.2731(2) -0.05314(7)
H18 H -0.0294 1.2733 -0.0813
C19 C -0.03712(7) 1.3336(2) -0.01851(7)
C20 C -0.07479(7) 1.3994(2) -0.02133(7)
C21 C -0.10848(8) 1.7333(2) 0.12568(7)
C22 C -0.12589(8) 1.7030(2) 0.16301(8)
H19 H -0.1191 1.6266 0.1766
C23 C -0.15274(8) 1.7846(3) 0.17961(8)
H20 H -0.1641 1.7616 0.2042
C24 C -0.16361(8) 1.9000(2) 0.16108(7)
C25 C -0.14572(8) 1.9304(2) 0.12429(8)
H21 H -0.1517 2.0084 0.1114
C26 C -0.11909(7) 1.8471(2) 0.10635(8)
H22 H -0.1084 1.8685 0.0812
C27 C -0.19303(8) 1.9876(3) 0.17934(9)
C28 C 0.07023(8) 1.4165(2) 0.21081(7)
C29 C 0.05837(12) 1.3482(4) 0.24392(11)
H23 H 0.0328 1.3076 0.2416
C30 C 0.08418(12) 1.3389(4) 0.28110(12)
H24 H 0.0759 1.2903 0.3032
C31 C 0.12108(8) 1.3990(2) 0.28588(8)
C32 C 0.13177(8) 1.4703(3) 0.25362(8)
H25 H 0.1568 1.5140 0.2565
C33 C 0.10650(8) 1.4803(3) 0.21614(7)
H26 H 0.1146 1.5312 0.1945
C34 C 0.14983(8) 1.3855(2) 0.32563(8)
C35 C 0.08220(7) 1.1035(2) 0.01976(7)
C36 C 0.06879(7) 0.9895(2) 0.00003(7)
H27 H 0.0409 0.9677 -0.0016
C37 C 0.09670(8) 0.9091(2) -0.01701(7)
H28 H 0.0872 0.8349 -0.0305
C38 C 0.13828(7) 0.9380(2) -0.01410(7)
C39 C 0.15217(7) 1.0478(2) 0.00631(7)
H29 H 0.1803 1.0666 0.0089
C40 C 0.12501(7) 1.1293(2) 0.02274(7)
H30 H 0.1350 1.2031 0.0361
C41 C 0.16792(8) 0.8534(2) -0.03517(7)
C42 C -0.10267(7) 1.3827(2) -0.06198(7)
C43 C -0.12008(7) 1.4862(2) -0.08466(7)
H31 H -0.1135 1.5684 -0.0757
C44 C -0.14730(7) 1.4665(2) -0.12071(7)
H32 H -0.1589 1.5361 -0.1354
C45 C -0.15724(7) 1.3455(2) -0.13484(7)
C46 C -0.13851(7) 1.2434(2) -0.11339(7)
H33 H -0.1437 1.1616 -0.1236
C47 C -0.11240(7) 1.2603(2) -0.07743(7)
H34 H -0.1010 1.1898 -0.0631
C48 C -0.18831(7) 1.3233(2) -0.17220(7)
C49 C 0.25248(9) 1.4801(3) 0.41228(9)
H35 H 0.2699 1.5410 0.4285
H36 H 0.2549 1.4951 0.3826
C50 C 0.26622(9) 1.3495(3) 0.42357(9)
H37 H 0.2946 1.3375 0.4172
H38 H 0.2650 1.3356 0.4535
C51 C -0.20237(9) 2.2524(3) 0.28724(8)
H39 H -0.1763 2.2092 0.2849
H40 H -0.1965 2.3346 0.3002
C52 C -0.22909(10) 2.1743(3) 0.31419(9)
H41 H -0.2532 2.2230 0.3200
H42 H -0.2135 2.1535 0.3408
C53 C -0.04342(13) 1.1240(4) 0.11545(12)
H43 H -0.0672 1.0711 0.1070
H44 H -0.0224 1.1031 0.0969
C54 C -0.02859(16) 1.0872(4) 0.15549(15)
H45 H -0.0219 0.9984 0.1555
H46 H -0.0493 1.1024 0.1745
H47 H -0.0042 1.1352 0.1645
Zn2F Zn -0.255140(9) 1.40544(3) -0.226570(9)
Zn3E Zn 0.181229(9) 0.67368(3) -0.097199(9)
O6E O 0.15030(5) 1.23568(17) 0.44216(5)
O8F O -0.29680(5) 2.07716(17) 0.19116(5)
O10 O -0.08218(16) 1.1074(5) -0.2075(2)
H1 H -0.0672 1.1103 -0.2268
C55 C -0.11693(13) 1.0286(5) -0.21951(14)
H48 H -0.1305 1.0630 -0.2455
H49 H -0.1063 0.9457 -0.2262
C56 C -0.14388(8) 1.0117(3) -0.19550(9)
H50 H -0.1651 0.9576 -0.2088
H51 H -0.1558 1.0920 -0.1889
H52 H -0.1319 0.9725 -0.1700
O11 O 0.26299(6) 1.0554(2) -0.01031(6)
H2 H 0.2454 1.0013 -0.0169
C57 C 0.26196(16) 1.1498(5) -0.04231(14)
H53 H 0.2384 1.2038 -0.0384
H54 H 0.2865 1.2017 -0.0360
C58 C 0.2600(2) 1.1246(5) -0.08194(15)
H55 H 0.2598 1.2025 -0.0977
H56 H 0.2352 1.0776 -0.0901
H57 H 0.2837 1.0750 -0.0876
loop_
_geom_bond_atom_site_label_1
_geom_bond_atom_site_label_2
_geom_bond_site_symmetry_1
_geom_bond_site_symmetry_2
Zn1 O9 1_555 1_555
Zn2 O2 1_555 1_555
Zn3 O4 1_555 1_555
O1 C27 1_555 1_555
O2 C27 1_555 1_555
O3 C34 1_555 1_555
O4 C34 1_555 1_555
O5 C41 1_555 1_555
O6 C41 1_555 1_555
O7 C48 1_555 1_555
O8 C48 1_555 1_555
O9 C53 1_555 1_555
O10 H1 1_555 1_555
O11 H2 1_555 1_555
N1 Zn1 1_555 1_555
N2 Zn1 1_555 1_555
N3 Zn1 1_555 1_555
N4 Zn1 1_555 1_555
N5 Zn3 1_555 1_555
H3 N5 1_555 1_555
H4 N5 1_555 1_555
N6 Zn3 1_555 1_555
H5 N6 1_555 1_555
H6 N6 1_555 1_555
N7 Zn2 1_555 1_555
H7 N7 1_555 1_555
H8 N7 1_555 1_555
N8 Zn2 1_555 1_555
H9 N8 1_555 1_555
H10 N8 1_555 1_555
C1 N1 1_555 1_555
C2 C1 1_555 1_555
H11 C2 1_555 1_555
C3 C2 1_555 1_555
H12 C3 1_555 1_555
C4 N1 1_555 1_555
C5 C4 1_555 1_555
C6 N2 1_555 1_555
C7 C6 1_555 1_555
H13 C7 1_555 1_555
C8 C7 1_555 1_555
H14 C8 1_555 1_555
C9 N2 1_555 1_555
C10 C9 1_555 1_555
C11 N3 1_555 1_555
C12 C11 1_555 1_555
H15 C12 1_555 1_555
C13 C12 1_555 1_555
H16 C13 1_555 1_555
C14 N3 1_555 1_555
C15 C14 1_555 1_555
C16 N4 1_555 1_555
C17 C16 1_555 1_555
H17 C17 1_555 1_555
C18 C17 1_555 1_555
H18 C18 1_555 1_555
C19 N4 1_555 1_555
C20 C1 1_555 1_555
C21 C5 1_555 1_555
C22 C21 1_555 1_555
H19 C22 1_555 1_555
C23 C22 1_555 1_555
H20 C23 1_555 1_555
C24 C23 1_555 1_555
C25 C24 1_555 1_555
H21 C25 1_555 1_555
C26 C21 1_555 1_555
H22 C26 1_555 1_555
C27 C24 1_555 1_555
C28 C10 1_555 1_555
C29 C28 1_555 1_555
H23 C29 1_555 1_555
C30 C29 1_555 1_555
H24 C30 1_555 1_555
C31 C30 1_555 1_555
C32 C31 1_555 1_555
H25 C32 1_555 1_555
C33 C28 1_555 1_555
H26 C33 1_555 1_555
C34 C31 1_555 1_555
C35 C15 1_555 1_555
C36 C35 1_555 1_555
H27 C36 1_555 1_555
C37 C36 1_555 1_555
H28 C37 1_555 1_555
C38 C37 1_555 1_555
C39 C38 1_555 1_555
H29 C39 1_555 1_555
C40 C35 1_555 1_555
H30 C40 1_555 1_555
C41 C38 1_555 1_555
C42 C20 1_555 1_555
C43 C42 1_555 1_555
H31 C43 1_555 1_555
C44 C43 1_555 1_555
H32 C44 1_555 1_555
C45 C44 1_555 1_555
C46 C45 1_555 1_555
H33 C46 1_555 1_555
C47 C42 1_555 1_555
H34 C47 1_555 1_555
C48 C45 1_555 1_555
C49 N5 1_555 1_555
H35 C49 1_555 1_555
H36 C49 1_555 1_555
C50 N6 1_555 1_555
H37 C50 1_555 1_555
H38 C50 1_555 1_555
C51 N7 1_555 1_555
H39 C51 1_555 1_555
H40 C51 1_555 1_555
C52 N8 1_555 1_555
H41 C52 1_555 1_555
H42 C52 1_555 1_555
C53 H43 1_555 1_555
H44 C53 1_555 1_555
C54 C53 1_555 1_555
H45 C54 1_555 1_555
H46 C54 1_555 1_555
H47 C54 1_555 1_555
C55 O10 1_555 1_555
H48 C55 1_555 1_555
H49 C55 1_555 1_555
C56 C55 1_555 1_555
H50 C56 1_555 1_555
H51 C56 1_555 1_555
H52 C56 1_555 1_555
C57 O11 1_555 1_555
H53 C57 1_555 1_555
H54 C57 1_555 1_555
C58 C57 1_555 1_555
H55 C58 1_555 1_555
H56 C58 1_555 1_555
H57 C58 1_555 1_555
Zn2F O8 1_555 1_555
Zn3E O6 1_555 1_555
O6E Zn3 1_555 1_555
O8F Zn2 1_555 1_555
C3 C4 1_555 1_555
C5 C6 1_555 1_555
C8 C9 1_555 1_555
C10 C11 1_555 1_555
C13 C14 1_555 1_555
C15 C16 1_555 1_555
C18 C19 1_555 1_555
C19 C20 1_555 1_555
C25 C26 1_555 1_555
C32 C33 1_555 1_555
C39 C40 1_555 1_555
C46 C47 1_555 1_555
C49 C50 1_555 1_555
C51 C52 1_555 1_555

#END
