
#######################################################################
#
#                 Cambridge Crystallographic Data Centre
#                                CCDC 
#
#######################################################################
#
# If this CIF has been generated from an entry in the Cambridge 
# Structural Database, then it will include bibliographic, chemical, 
# crystal, experimental, refinement or atomic coordinate data resulting 
# from the CCDC's data processing and validation procedures.
#
#######################################################################

data_XEPLIP
_symmetry_cell_setting           monoclinic
_symmetry_space_group_name_H-M   'C 2/c'
_symmetry_Int_Tables_number      15
_space_group_name_Hall           '-C 2yn'
loop_
_symmetry_equiv_pos_site_id
_symmetry_equiv_pos_as_xyz
1 x,y,z
2 -x,y,1/2-z
3 1/2+x,1/2+y,z
4 1/2-x,1/2+y,1/2-z
5 -x,-y,-z
6 x,-y,1/2+z
7 1/2-x,1/2-y,-z
8 1/2+x,1/2-y,1/2+z
_cell_length_a                   17.684(7)
_cell_length_b                   8.778(3)
_cell_length_c                   22.576(8)
_cell_angle_alpha                90
_cell_angle_beta                 103.921(5)
_cell_angle_gamma                90
_cell_volume                     3401.54
loop_
_atom_site_label
_atom_site_type_symbol
_atom_site_fract_x
_atom_site_fract_y
_atom_site_fract_z
Co1 Co 1.04906(2) 0.28717(4) 0.610694(14)
N1 N 1.01887(12) 0.2773(2) 0.69639(8)
N2 N 1.15782(13) 0.2730(2) 0.67742(9)
N3 N 0.92860(12) 0.3249(2) 0.59002(9)
N4 N 1.07915(16) 0.2775(3) 0.52969(10)
N5 N 1.1130(2) 0.2369(3) 0.43268(14)
N6 N 1.15544(18) 0.0119(3) 0.38901(13)
N7 N 1.05026(14) 0.0438(3) 0.61197(10)
N8 N 1.10843(17) -0.2071(3) 0.61392(16)
N9 N 1.06292(13) -0.4691(2) 0.61102(9)
C1 C 0.94343(15) 0.2882(2) 0.69666(10)
C2 C 1.07601(15) 0.2658(3) 0.74686(10)
C3 C 1.15298(15) 0.2326(3) 0.73425(10)
C4 C 1.21333(16) 0.1575(3) 0.77365(12)
H1 H 1.2076 0.1221 0.8112
C5 C 1.28277(16) 0.1357(3) 0.75621(12)
H2 H 1.3244 0.0864 0.7821
C6 C 1.28911(17) 0.1875(3) 0.70055(13)
H3 H 1.3360 0.1788 0.6890
C7 C 1.22529(16) 0.2528(3) 0.66190(13)
H4 H 1.2293 0.2841 0.6234
C8 C 0.89202(15) 0.3287(3) 0.63581(11)
C9 C 0.81552(16) 0.3768(3) 0.62587(12)
H5 H 0.7914 0.3830 0.6581
C10 C 0.77521(17) 0.4157(3) 0.56741(13)
H6 H 0.7235 0.4471 0.5599
C11 C 0.81240(18) 0.4075(3) 0.52061(12)
H7 H 0.7862 0.4308 0.4808
C12 C 0.88919(17) 0.3640(3) 0.53405(11)
H8 H 0.9149 0.3616 0.5026
C13 C 1.0966(2) 0.2494(3) 0.48530(14)
C14 C 1.13635(18) 0.1106(3) 0.41313(13)
C15 C 1.07244(17) -0.0783(3) 0.61255(12)
C16 C 1.07859(17) -0.3428(3) 0.61231(12)
Co1A Co 0.95094(2) 0.28717(4) 0.889306(14)
Co1_2 Co 1.04906(2) -0.71283(4) 0.610694(14)
Co1_3 Co 1.04906(2) 1.28717(4) 0.610694(14)
N1A N 0.98113(12) 0.2773(2) 0.80361(8)
N2A N 0.84218(13) 0.2730(2) 0.82258(9)
N3A N 1.07140(12) 0.3249(2) 0.90998(9)
N4A N 0.92085(16) 0.2775(3) 0.97031(10)
N5A N 0.8870(2) 0.2369(3) 1.06732(14)
N6A N 0.84456(18) 0.0119(3) 1.11099(13)
N7_2 N 1.05026(14) 1.0438(3) 0.61197(10)
N7A N 0.94974(14) 0.0438(3) 0.88803(10)
N8_2 N 1.10843(17) 0.7929(3) 0.61392(16)
N9_2 N 1.06292(13) 0.5309(2) 0.61102(9)
N9A N 0.93708(13) 0.5309(2) 0.88898(9)
C1A C 1.05657(15) 0.2882(2) 0.80334(10)
C2A C 0.92399(15) 0.2658(3) 0.75314(10)
C3A C 0.84702(15) 0.2326(3) 0.76575(10)
C4A C 0.78667(16) 0.1575(3) 0.72635(12)
H1A H 0.7924 0.1221 0.6888
C5A C 0.71723(16) 0.1357(3) 0.74379(12)
H2A H 0.6756 0.0864 0.7179
C6A C 0.71089(17) 0.1875(3) 0.79945(13)
H3A H 0.6640 0.1788 0.8110
C7A C 0.77471(16) 0.2528(3) 0.83810(13)
H4A H 0.7707 0.2841 0.8766
C8A C 1.10798(15) 0.3287(3) 0.86419(11)
C9A C 1.18448(16) 0.3768(3) 0.87413(12)
H5A H 1.2086 0.3830 0.8419
C10A C 1.22479(17) 0.4157(3) 0.93259(13)
H6A H 1.2765 0.4471 0.9401
C11A C 1.18760(18) 0.4075(3) 0.97939(12)
H7A H 1.2138 0.4308 1.0192
C12A C 1.11081(17) 0.3640(3) 0.96595(11)
H8A H 1.0851 0.3616 0.9974
C13A C 0.9034(2) 0.2494(3) 1.01470(14)
C14A C 0.86365(18) 0.1106(3) 1.08687(13)
C15_2 C 1.07244(17) 0.9217(3) 0.61255(12)
C16_2 C 1.07859(17) 0.6572(3) 0.61231(12)
C17 C 0.0000 0.7337(5) 0.7500
C18 C 0.0000 0.8983(5) 0.7500
N10 N 0.0000 0.6078(5) 0.7500
H9? H 0.0516 0.9347 0.7678
H10? H -0.0350 0.9347 0.7734
H11? H -0.0166 0.9347 0.7088
loop_
_geom_bond_atom_site_label_1
_geom_bond_atom_site_label_2
_geom_bond_site_symmetry_1
_geom_bond_site_symmetry_2
Co1 N1 1_555 1_555
N1 C1 1_555 1_555
N2 Co1 1_555 1_555
N3 Co1 1_555 1_555
N4 Co1 1_555 1_555
N5 C13 1_555 1_555
N6 C14 1_555 1_555
N7 Co1 1_555 1_555
N8 C15 1_555 1_555
N9 C16 1_555 1_555
C1 C8 1_555 1_555
C2 N1 1_555 1_555
C3 N2 1_555 1_555
C4 C3 1_555 1_555
H1 C4 1_555 1_555
C5 C4 1_555 1_555
H2 C5 1_555 1_555
C6 C5 1_555 1_555
H3 C6 1_555 1_555
C7 N2 1_555 1_555
H4 C7 1_555 1_555
C8 N3 1_555 1_555
C9 C8 1_555 1_555
H5 C9 1_555 1_555
C10 C9 1_555 1_555
H6 C10 1_555 1_555
C11 C10 1_555 1_555
H7 C11 1_555 1_555
C12 N3 1_555 1_555
H8 C12 1_555 1_555
C13 N4 1_555 1_555
C14 N5 1_555 1_555
C15 N7 1_555 1_555
C16 N8 1_555 1_555
C17 C18 1_555 1_555
N10 C17 1_555 1_555
Co1A N1A 1_555 1_555
Co1_2 N9 1_555 1_555
Co1_3 N7_2 1_555 1_555
N1A C1A 1_555 1_555
N2A Co1A 1_555 1_555
N3A Co1A 1_555 1_555
N4A Co1A 1_555 1_555
N5A C13A 1_555 1_555
N6A C14A 1_555 1_555
N7_2 C15_2 1_555 1_555
N7A Co1A 1_555 1_555
N8_2 C15_2 1_555 1_555
N9_2 Co1 1_555 1_555
N9A Co1A 1_555 1_555
C1A C2 1_555 1_555
C2A C1 1_555 1_555
C3A N2A 1_555 1_555
C4A C3A 1_555 1_555
H1A C4A 1_555 1_555
C5A C4A 1_555 1_555
H2A C5A 1_555 1_555
C6A C5A 1_555 1_555
H3A C6A 1_555 1_555
C7A N2A 1_555 1_555
H4A C7A 1_555 1_555
C8A N3A 1_555 1_555
C9A C8A 1_555 1_555
H5A C9A 1_555 1_555
C10A C9A 1_555 1_555
H6A C10A 1_555 1_555
C11A C10A 1_555 1_555
H7A C11A 1_555 1_555
C12A N3A 1_555 1_555
H8A C12A 1_555 1_555
C13A N4A 1_555 1_555
C14A N5A 1_555 1_555
C16_2 N8_2 1_555 1_555
C2 C3 1_555 1_555
C6 C7 1_555 1_555
C11 C12 1_555 1_555
N1A C2A 1_555 1_555
N9_2 C16_2 1_555 1_555
C1A C8A 1_555 1_555
C2A C3A 1_555 1_555
C6A C7A 1_555 1_555
C11A C12A 1_555 1_555

#END
