
#######################################################################
#
#                 Cambridge Crystallographic Data Centre
#                                CCDC 
#
#######################################################################
#
# If this CIF has been generated from an entry in the Cambridge 
# Structural Database, then it will include bibliographic, chemical, 
# crystal, experimental, refinement or atomic coordinate data resulting 
# from the CCDC's data processing and validation procedures.
#
#######################################################################

data_XEPMAI
_symmetry_cell_setting           monoclinic
_symmetry_space_group_name_H-M   'C 2/c'
_symmetry_Int_Tables_number      15
_space_group_name_Hall           '-C 2yn'
loop_
_symmetry_equiv_pos_site_id
_symmetry_equiv_pos_as_xyz
1 x,y,z
2 -x,y,1/2-z
3 1/2+x,1/2+y,z
4 1/2-x,1/2+y,1/2-z
5 -x,-y,-z
6 x,-y,1/2+z
7 1/2-x,1/2-y,-z
8 1/2+x,1/2-y,1/2+z
_cell_length_a                   21.148(2)
_cell_length_b                   11.9883(13)
_cell_length_c                   7.9194(9)
_cell_angle_alpha                90
_cell_angle_beta                 99.3030(10)
_cell_angle_gamma                90
_cell_volume                     1981.39
loop_
_atom_site_label
_atom_site_type_symbol
_atom_site_fract_x
_atom_site_fract_y
_atom_site_fract_z
Pb1 Pb 0.0000 -0.08951(3) 0.2500
N1 N 0.0722(3) 0.2765(6) 0.9223(8)
O1 O 0.1140(2) 0.0157(5) 0.3100(6)
O2 O 0.0373(2) 0.0817(4) 0.4420(7)
O3 O 0.1148(2) 0.2155(4) 0.6386(6)
C1 C 0.0946(4) 0.0789(5) 0.4154(9)
C2 C 0.1413(3) 0.1573(6) 0.5132(8)
H1 H 0.1784 0.1158 0.5676
H2 H 0.1555 0.2103 0.4347
C3 C 0.1545(3) 0.2783(5) 0.7529(8)
C4 C 0.2153(3) 0.3084(6) 0.7331(8)
H3 H 0.2308 0.2865 0.6347
C5 C 0.2556(3) 0.3722(6) 0.8585(9)
H4 H 0.2974 0.3892 0.8448
C6 C 0.2318(4) 0.4081(5) 0.9996(10)
H5 H 0.2572 0.4517 1.0809
C7 C 0.1687(3) 0.3798(6) 1.0233(9)
C8 C 0.1427(5) 0.4128(6) 1.1669(11)
H6 H 0.1660 0.4596 1.2477
C9 C 0.0855(5) 0.3781(9) 1.1885(13)
H7 H 0.0682 0.3990 1.2846
C10 C 0.0509(4) 0.3083(8) 1.0618(12)
H8 H 0.0107 0.2834 1.0783
C11 C 0.1306(3) 0.3124(5) 0.9012(8)
Pb1D Pb 0.0000 0.08951(3) 0.7500
Pb1D_2 Pb 0.0000 0.08951(3) -0.2500
N1A N -0.0722(3) 0.2765(6) -0.4223(8)
O1A O -0.1140(2) 0.0157(5) 0.1900(6)
O2A O -0.0373(2) 0.0817(4) 0.0580(7)
O2D O -0.0373(2) -0.0817(4) 0.5580(7)
O2E O 0.0373(2) -0.0817(4) -0.0580(7)
O3A O -0.1148(2) 0.2155(4) -0.1386(6)
C1A C -0.0946(4) 0.0789(5) 0.0846(9)
C2A C -0.1413(3) 0.1573(6) -0.0132(8)
H1A H -0.1784 0.1158 -0.0676
H2A H -0.1555 0.2103 0.0653
C3A C -0.1545(3) 0.2783(5) -0.2529(8)
C4A C -0.2153(3) 0.3084(6) -0.2331(8)
H3A H -0.2308 0.2865 -0.1347
C5A C -0.2556(3) 0.3722(6) -0.3585(9)
H4A H -0.2974 0.3892 -0.3448
C6A C -0.2318(4) 0.4081(5) -0.4996(10)
H5A H -0.2572 0.4517 -0.5809
C7A C -0.1687(3) 0.3798(6) -0.5233(9)
C8A C -0.1427(5) 0.4128(6) -0.6669(11)
H6A H -0.1660 0.4596 -0.7477
C9A C -0.0855(5) 0.3781(9) -0.6885(13)
H7A H -0.0682 0.3990 -0.7846
C10A C -0.0509(4) 0.3083(8) -0.5618(12)
H8A H -0.0107 0.2834 -0.5783
C11A C -0.1306(3) 0.3124(5) -0.4012(8)
loop_
_geom_bond_atom_site_label_1
_geom_bond_atom_site_label_2
_geom_bond_site_symmetry_1
_geom_bond_site_symmetry_2
Pb1 O1 1_555 1_555
N1 C10 1_555 1_555
O1 C1 1_555 1_555
O2 Pb1 1_555 1_555
O3 C2 1_555 1_555
C1 O2 1_555 1_555
C2 C1 1_555 1_555
H1 C2 1_555 1_555
H2 C2 1_555 1_555
C3 O3 1_555 1_555
C4 C3 1_555 1_555
H3 C4 1_555 1_555
C5 C4 1_555 1_555
H4 C5 1_555 1_555
C6 C5 1_555 1_555
H5 C6 1_555 1_555
C7 C6 1_555 1_555
C8 C7 1_555 1_555
H6 C8 1_555 1_555
C9 C8 1_555 1_555
H7 C9 1_555 1_555
C10 C9 1_555 1_555
H8 C10 1_555 1_555
C11 N1 1_555 1_555
Pb1D O2 1_555 1_555
Pb1D_2 O2A 1_555 1_555
N1A C10A 1_555 1_555
O1A Pb1 1_555 1_555
O2A Pb1 1_555 1_555
O2D Pb1 1_555 1_555
O2E Pb1 1_555 1_555
O3A C2A 1_555 1_555
C1A O1A 1_555 1_555
C2A C1A 1_555 1_555
H1A C2A 1_555 1_555
H2A C2A 1_555 1_555
C3A O3A 1_555 1_555
C4A C3A 1_555 1_555
H3A C4A 1_555 1_555
C5A C4A 1_555 1_555
H4A C5A 1_555 1_555
C6A C5A 1_555 1_555
H5A C6A 1_555 1_555
C7A C6A 1_555 1_555
C8A C7A 1_555 1_555
H6A C8A 1_555 1_555
C9A C8A 1_555 1_555
H7A C9A 1_555 1_555
C10A C9A 1_555 1_555
H8A C10A 1_555 1_555
C11A N1A 1_555 1_555
C3 C11 1_555 1_555
C7 C11 1_555 1_555
Pb1D O2D 1_555 1_555
Pb1D_2 O2E 1_555 1_555
O2A C1A 1_555 1_555
C3A C11A 1_555 1_555
C7A C11A 1_555 1_555

#END
