
#######################################################################
#
#                 Cambridge Crystallographic Data Centre
#                                CCDC 
#
#######################################################################
#
# If this CIF has been generated from an entry in the Cambridge 
# Structural Database, then it will include bibliographic, chemical, 
# crystal, experimental, refinement or atomic coordinate data resulting 
# from the CCDC's data processing and validation procedures.
#
#######################################################################

data_XEPMAI01
_symmetry_cell_setting           monoclinic
_symmetry_space_group_name_H-M   'C 2/c'
_symmetry_Int_Tables_number      15
_space_group_name_Hall           '-C 2yn'
loop_
_symmetry_equiv_pos_site_id
_symmetry_equiv_pos_as_xyz
1 x,y,z
2 -x,y,1/2-z
3 1/2+x,1/2+y,z
4 1/2-x,1/2+y,1/2-z
5 -x,-y,-z
6 x,-y,1/2+z
7 1/2-x,1/2-y,-z
8 1/2+x,1/2-y,1/2+z
_cell_length_a                   21.132(2)
_cell_length_b                   11.8986(13)
_cell_length_c                   7.9073(10)
_cell_angle_alpha                90
_cell_angle_beta                 99.081(3)
_cell_angle_gamma                90
_cell_volume                     1963.3
loop_
_atom_site_label
_atom_site_type_symbol
_atom_site_fract_x
_atom_site_fract_y
_atom_site_fract_z
Pb1 Pb 0.5000 0.590343(19) 0.7500
O1 O 0.46329(13) 0.4170(2) 0.5594(3)
O2 O 0.38647(13) 0.4850(3) 0.6915(4)
O3 O 0.38528(11) 0.2834(2) 0.3614(3)
N1 N 0.42914(16) 0.2232(4) 0.0765(5)
C1 C 0.40617(18) 0.4206(4) 0.5854(5)
C2 C 0.35747(18) 0.3429(4) 0.4883(5)
H1 H 0.3425 0.2893 0.5675
H2 H 0.3205 0.3863 0.4332
C3 C 0.34454(17) 0.2213(4) 0.2478(5)
C4 C 0.28331(18) 0.1911(4) 0.2671(5)
H3 H 0.2671 0.2136 0.3659
C5 C 0.24429(18) 0.1268(4) 0.1415(6)
H4 H 0.2025 0.1076 0.1573
C6 C 0.26664(19) 0.0923(3) -0.0026(5)
H5 H 0.2402 0.0499 -0.0859
C7 C 0.32987(19) 0.1206(4) -0.0263(5)
C8 C 0.3567(2) 0.0868(4) -0.1716(6)
H6 H 0.3328 0.0419 -0.2565
C9 C 0.4172(2) 0.1198(5) -0.1878(7)
H7 H 0.4361 0.0957 -0.2814
C10 C 0.4506(2) 0.1899(5) -0.0629(7)
H8 H 0.4913 0.2151 -0.0795
C11 C 0.36924(17) 0.1873(3) 0.0967(5)
O1A O 0.53671(13) 0.4170(2) 0.9406(3)
O2A O 0.61353(13) 0.4850(3) 0.8085(4)
O3A O 0.61472(11) 0.2834(2) 1.1386(3)
N1A N 0.57086(16) 0.2232(4) 1.4235(5)
C1A C 0.59383(18) 0.4206(4) 0.9146(5)
C2A C 0.64253(18) 0.3429(4) 1.0117(5)
H1A H 0.6575 0.2893 0.9325
H2A H 0.6795 0.3863 1.0668
C3A C 0.65546(17) 0.2213(4) 1.2522(5)
C4A C 0.71669(18) 0.1911(4) 1.2329(5)
H3A H 0.7329 0.2136 1.1341
C5A C 0.75571(18) 0.1268(4) 1.3585(6)
H4A H 0.7975 0.1076 1.3427
C6A C 0.73336(19) 0.0923(3) 1.5026(5)
H5A H 0.7598 0.0499 1.5859
C7A C 0.67013(19) 0.1206(4) 1.5263(5)
C8A C 0.6433(2) 0.0868(4) 1.6716(6)
H6A H 0.6672 0.0419 1.7565
C9A C 0.5828(2) 0.1198(5) 1.6878(7)
H7A H 0.5639 0.0957 1.7814
C10A C 0.5494(2) 0.1899(5) 1.5629(7)
H8A H 0.5087 0.2151 1.5795
C11A C 0.63076(17) 0.1873(3) 1.4033(5)
Pb1D Pb 0.5000 0.409657(19) 0.2500
Pb1D_2 Pb 0.5000 0.409657(19) 1.2500
O1D O 0.53671(13) 0.5830(2) 0.4406(3)
O1E O 0.46329(13) 0.5830(2) 1.0594(3)
N1D N 0.57086(16) 0.7768(4) 0.9235(5)
N1E N 0.42914(16) 0.7768(4) 0.5765(5)
loop_
_geom_bond_atom_site_label_1
_geom_bond_atom_site_label_2
_geom_bond_site_symmetry_1
_geom_bond_site_symmetry_2
Pb1 O1 1_555 1_555
O1 C1 1_555 1_555
O2 Pb1 1_555 1_555
O3 C2 1_555 1_555
N1 C10 1_555 1_555
C1 O2 1_555 1_555
C2 C1 1_555 1_555
H1 C2 1_555 1_555
H2 C2 1_555 1_555
C3 O3 1_555 1_555
C4 C3 1_555 1_555
H3 C4 1_555 1_555
C5 C4 1_555 1_555
H4 C5 1_555 1_555
C6 C5 1_555 1_555
H5 C6 1_555 1_555
C7 C6 1_555 1_555
C8 C7 1_555 1_555
H6 C8 1_555 1_555
C9 C8 1_555 1_555
H7 C9 1_555 1_555
C10 C9 1_555 1_555
H8 C10 1_555 1_555
C11 N1 1_555 1_555
O1A Pb1 1_555 1_555
O2A Pb1 1_555 1_555
O3A C2A 1_555 1_555
N1A C10A 1_555 1_555
C1A O1A 1_555 1_555
C2A C1A 1_555 1_555
H1A C2A 1_555 1_555
H2A C2A 1_555 1_555
C3A O3A 1_555 1_555
C4A C3A 1_555 1_555
H3A C4A 1_555 1_555
C5A C4A 1_555 1_555
H4A C5A 1_555 1_555
C6A C5A 1_555 1_555
H5A C6A 1_555 1_555
C7A C6A 1_555 1_555
C8A C7A 1_555 1_555
H6A C8A 1_555 1_555
C9A C8A 1_555 1_555
H7A C9A 1_555 1_555
C10A C9A 1_555 1_555
H8A C10A 1_555 1_555
C11A N1A 1_555 1_555
Pb1D O1 1_555 1_555
Pb1D_2 O1A 1_555 1_555
O1D Pb1 1_555 1_555
O1E Pb1 1_555 1_555
N1D Pb1 1_555 1_555
N1E Pb1 1_555 1_555
N1 Pb1D 1_555 1_555
C3 C11 1_555 1_555
C7 C11 1_555 1_555
O2A C1A 1_555 1_555
N1A Pb1D_2 1_555 1_555
C3A C11A 1_555 1_555
C7A C11A 1_555 1_555
Pb1D O1D 1_555 1_555
Pb1D_2 O1E 1_555 1_555

#END
