
#######################################################################
#
#                 Cambridge Crystallographic Data Centre
#                                CCDC 
#
#######################################################################
#
# If this CIF has been generated from an entry in the Cambridge 
# Structural Database, then it will include bibliographic, chemical, 
# crystal, experimental, refinement or atomic coordinate data resulting 
# from the CCDC's data processing and validation procedures.
#
#######################################################################

data_XEPMIP
_symmetry_cell_setting           trigonal
_symmetry_space_group_name_H-M   'P 31 2 1'
_symmetry_Int_Tables_number      152
_space_group_name_Hall           'P 31 2"'
loop_
_symmetry_equiv_pos_site_id
_symmetry_equiv_pos_as_xyz
1 x,y,z
2 -y,x-y,1/3+z
3 -x+y,-x,2/3+z
4 y,x,-z
5 x-y,-y,2/3-z
6 -x,-x+y,1/3-z
_cell_length_a                   18.6823(8)
_cell_length_b                   18.6823(8)
_cell_length_c                   25.475(2)
_cell_angle_alpha                90
_cell_angle_beta                 90
_cell_angle_gamma                120
_cell_volume                     7700.26
loop_
_atom_site_label
_atom_site_type_symbol
_atom_site_fract_x
_atom_site_fract_y
_atom_site_fract_z
Ni1 Ni 1.0000 0.02454(11) 0.1667
Cl1 Cl 0.8690(2) -0.0369(2) 0.11848(11)
O1 O 1.2867(13) -0.3633(12) -0.2474(5)
O2 O 1.4441(12) -0.2257(10) -0.1846(8)
N1 N 1.0453(9) -0.0334(8) 0.1153(3)
N2 N 1.0482(8) -0.8733(7) 0.1154(4)
C1 C 1.0232(9) -0.0470(8) 0.0633(4)
H1 H 0.9862 -0.0301 0.0506
C2 C 1.0503(11) -0.0822(9) 0.0298(4)
H2 H 1.0329 -0.0896 -0.0058
C3 C 1.1061(13) -0.1094(10) 0.0475(5)
C4 C 1.1270(13) -0.0981(11) 0.1005(5)
H3 H 1.1640 -0.1142 0.1145
C5 C 1.0943(12) -0.0645(11) 0.1311(5)
H4 H 1.1061 -0.0617 0.1676
C6 C 1.1368(13) -0.1535(10) 0.0142(5)
H5 H 1.1769 -0.1649 0.0285
C7 C 1.1108(12) -0.1783(10) -0.0358(5)
H6 H 1.0656 -0.1740 -0.0491
C8 C 1.1503(19) -0.2114(13) -0.0697(6)
C9 C 1.2189(18) -0.2252(10) -0.0509(7)
H7 H 1.2408 -0.2074 -0.0167
C10 C 1.2514(16) -0.2635(11) -0.0825(8)
H8 H 1.2888 -0.2778 -0.0670
C11 C 1.126(3) -0.2295(18) -0.1211(6)
H9 H 1.0812 -0.2252 -0.1353
C12 C 1.1780(17) -0.2578(16) -0.1544(5)
C13 C 1.2322(12) -0.2813(10) -0.1342(3)
C14 C 1.2648(12) -0.3177(11) -0.1667(4)
C15 C 1.2431(16) -0.3305(13) -0.2195(4)
C16 C 1.1888(17) -0.3069(16) -0.2397(4)
H10 H 1.1740 -0.3157 -0.2758
C17 C 1.1563(17) -0.2706(18) -0.2072(5)
H11 H 1.1192 -0.2545 -0.2210
C18 C 1.2801(17) -0.3677(16) -0.3026(6)
H12 H 1.2214 -0.3921 -0.3129
H13 H 1.3111 -0.3113 -0.3176
C19 C 1.3118(19) -0.4162(16) -0.3228(7)
H14 H 1.3050 -0.4202 -0.3610
H15 H 1.2819 -0.4716 -0.3074
H16 H 1.3706 -0.3906 -0.3141
C20 C 1.517(4) -0.134(2) -0.2521(15)
H17 H 1.5622 -0.1175 -0.2776
H18 H 1.5305 -0.0882 -0.2281
H19 H 1.4657 -0.1494 -0.2707
C21 C 1.507(2) -0.2076(18) -0.2211(12)
H20 H 1.4920 -0.2555 -0.2445
H21 H 1.5595 -0.1939 -0.2029
C22 C 1.3228(12) -0.3488(10) -0.1455(6)
C23 C 1.4074(12) -0.3052(9) -0.1550(6)
C24 C 1.4579(9) -0.3330(14) -0.1341(8)
H22 H 1.5158 -0.3032 -0.1406
C25 C 1.4239(14) -0.4043(14) -0.1037(8)
H23 H 1.4584 -0.4232 -0.0894
C26 C 1.3393(15) -0.4478(9) -0.0942(5)
C27 C 1.2888(10) -0.4201(9) -0.1151(6)
C28 C 1.315(2) -0.5117(15) -0.0674(7)
H24 H 1.3512 -0.5316 -0.0587
C29 C 1.237(2) -0.5514(11) -0.0513(6)
C30 C 1.1774(16) -0.5322(13) -0.0674(7)
H25 H 1.1220 -0.5622 -0.0551
C31 C 1.202(2) -0.4691(14) -0.1011(7)
H26 H 1.1630 -0.4565 -0.1158
C32 C 1.2017(14) -0.6286(10) -0.0131(6)
H27 H 1.2433 -0.6412 -0.0035
C33 C 1.1386(13) -0.6738(10) 0.0063(6)
H28 H 1.0965 -0.6638 -0.0062
C34 C 1.0023(10) -0.8408(9) 0.1026(5)
H29 H 0.9497 -0.8610 0.1185
C35 C 1.0296(13) -0.7779(11) 0.0663(7)
H30 H 0.9927 -0.7592 0.0563
C36 C 1.1051(14) -0.7409(10) 0.0439(6)
C37 C 1.1554(12) -0.7748(11) 0.0585(5)
H31 H 1.2093 -0.7527 0.0441
C38 C 1.1247(9) -0.8431(9) 0.0955(5)
H32 H 1.1580 -0.8661 0.1054
Ni1_2 Ni 1.0000 -0.97546(11) 0.1667
Cl1E Cl 1.1310(2) 0.0941(3) 0.21485(11)
O1E O 0.7133(13) -0.6500(18) 0.5807(5)
O2E O 0.5559(12) -0.6698(16) 0.5179(8)
N1E N 0.9547(9) -0.0787(12) 0.2180(3)
N2E N 0.9518(8) -0.9215(11) 0.2179(4)
N2_2 N 1.0482(8) 0.1267(7) 0.1154(4)
N2E_2 N 0.9518(8) 0.0785(11) 0.2179(4)
C1E C 0.9768(9) -0.0702(12) 0.2700(4)
H1E H 1.0138 -0.0163 0.2827
C2E C 0.9497(11) -0.1325(14) 0.3035(4)
H2E H 0.9671 -0.1225 0.3391
C3E C 0.8939(13) -0.2155(16) 0.2858(5)
C4E C 0.8730(13) -0.2251(17) 0.2328(5)
H3E H 0.8360 -0.2782 0.2188
C5E C 0.9057(12) -0.1588(16) 0.2022(5)
H4E H 0.8939 -0.1678 0.1657
C6E C 0.8632(13) -0.2903(16) 0.3191(5)
H5E H 0.8231 -0.3418 0.3048
C7E C 0.8892(12) -0.2891(16) 0.3691(5)
H6E H 0.9344 -0.2396 0.3824
C8E C 0.8497(19) -0.3617(23) 0.4030(6)
C9E C 0.7811(18) -0.4441(21) 0.3842(7)
H7E H 0.7592 -0.4482 0.3500
C10E C 0.7486(16) -0.5149(19) 0.4158(8)
H8E H 0.7112 -0.5666 0.4003
C11E C 0.874(3) -0.3555(35) 0.4544(6)
H9E H 0.9188 -0.3064 0.4686
C12E C 0.8220(17) -0.4358(23) 0.4877(5)
C13E C 0.7678(12) -0.5135(16) 0.4675(3)
C14E C 0.7352(12) -0.5825(16) 0.5000(4)
C15E C 0.7569(16) -0.5736(21) 0.5528(4)
C16E C 0.8112(17) -0.4957(23) 0.5730(4)
H10E H 0.8260 -0.4897 0.6091
C17E C 0.8437(17) -0.4269(25) 0.5405(5)
H11E H 0.8808 -0.3737 0.5543
C18E C 0.7199(17) -0.6478(23) 0.6359(6)
H12E H 0.7786 -0.6135 0.6462
H13E H 0.6889 -0.6224 0.6509
C19E C 0.6882(19) -0.7280(25) 0.6561(7)
H14E H 0.6950 -0.7252 0.6943
H15E H 0.7181 -0.7535 0.6407
H16E H 0.6294 -0.7612 0.6474
C20E C 0.483(4) -0.651(4) 0.5854(15)
H17E H 0.4378 -0.6797 0.6109
H18E H 0.4695 -0.6187 0.5614
H19E H 0.5343 -0.6151 0.6040
C21E C 0.493(2) -0.7146(27) 0.5544(12)
H20E H 0.5080 -0.7475 0.5778
H21E H 0.4405 -0.7534 0.5362
C22E C 0.6772(12) -0.6716(16) 0.4788(6)
C23E C 0.5926(12) -0.7126(15) 0.4883(6)
C24E C 0.5421(9) -0.7909(17) 0.4674(8)
H22E H 0.4842 -0.8190 0.4739
C25E C 0.5761(14) -0.8282(20) 0.4370(8)
H23E H 0.5416 -0.8816 0.4227
C26E C 0.6607(15) -0.7871(17) 0.4275(5)
C27E C 0.7112(10) -0.7089(13) 0.4484(6)
C28E C 0.685(2) -0.8267(25) 0.4007(7)
H24E H 0.6488 -0.8828 0.3920
C29E C 0.763(2) -0.7884(23) 0.3846(6)
C30E C 0.8226(16) -0.7096(21) 0.4007(7)
H25E H 0.8780 -0.6842 0.3884
C31E C 0.798(2) -0.6711(24) 0.4344(7)
H26E H 0.8370 -0.6195 0.4491
C32E C 0.7983(14) -0.8303(17) 0.3464(6)
H27E H 0.7567 -0.8845 0.3368
C33E C 0.8614(13) -0.8124(16) 0.3270(6)
H28E H 0.9035 -0.7603 0.3395
C34E C 0.9977(10) -0.8431(13) 0.2307(5)
H29E H 1.0503 -0.8107 0.2148
C35E C 0.9704(13) -0.8075(17) 0.2670(7)
H30E H 1.0073 -0.7519 0.2770
C36E C 0.8949(14) -0.8460(17) 0.2894(6)
C37E C 0.8446(12) -0.9302(16) 0.2748(5)
H31E H 0.7907 -0.9620 0.2892
C38E C 0.8753(9) -0.9678(13) 0.2378(5)
H32E H 0.8420 -1.0241 0.2279
O3 O 1.036(4) 0.545(3) 0.370(2)
C39 C 1.052(3) 0.500(3) 0.3945(18)
C40 C 1.0958(19) 0.4519(19) 0.4042(11)
O4 O 1.127(3) 0.353(3) 0.8141(18)
H33 H 1.1703 0.3494 0.8143
C41 C 1.074(3) 0.429(3) 0.7776(19)
H34 H 1.0945 0.4770 0.7544
H35 H 1.0599 0.4426 0.8119
H36 H 1.0248 0.3823 0.7621
C42 C 1.136(4) 0.407(5) 0.784(4)
H37 H 1.1472 0.3925 0.7491
H38 H 1.1869 0.4582 0.7952
C43 C 1.742(3) 0.844(3) 0.982(2)
H39 H 1.7613 0.8181 1.0073
H40 H 1.6927 0.8434 0.9953
H41 H 1.7859 0.9016 0.9760
C44 C 1.722(4) 0.798(4) 0.931(2)
H42 H 1.7734 0.8030 0.9162
H43 H 1.6831 0.7390 0.9378
O9 O 1.692(3) 0.824(4) 0.899(2)
H44 H 1.6807 0.7966 0.8717
O7 O 1.408(4) 0.006(4) 0.7389(19)
O8 O 1.336(3) 0.936(3) 0.8302(15)
O5? O 1.0033(16) 0.6184(16) 0.7022(10)
O6? O 1.035(7) 0.468(6) 0.682(5)
loop_
_geom_bond_atom_site_label_1
_geom_bond_atom_site_label_2
_geom_bond_site_symmetry_1
_geom_bond_site_symmetry_2
Ni1 Cl1 1_555 1_555
O1 C15 1_555 1_555
O2 C21 1_555 1_555
N1 Ni1 1_555 1_555
N2 C34 1_555 1_555
C1 N1 1_555 1_555
H1 C1 1_555 1_555
C2 C1 1_555 1_555
H2 C2 1_555 1_555
C3 C2 1_555 1_555
C4 C3 1_555 1_555
H3 C4 1_555 1_555
C5 N1 1_555 1_555
H4 C5 1_555 1_555
C6 C3 1_555 1_555
H5 C6 1_555 1_555
C7 C6 1_555 1_555
H6 C7 1_555 1_555
C8 C7 1_555 1_555
C9 C8 1_555 1_555
H7 C9 1_555 1_555
C10 C9 1_555 1_555
H8 C10 1_555 1_555
C11 C8 1_555 1_555
H9 C11 1_555 1_555
C12 C11 1_555 1_555
C13 C10 1_555 1_555
C14 C13 1_555 1_555
C15 C14 1_555 1_555
C16 C15 1_555 1_555
H10 C16 1_555 1_555
C17 C12 1_555 1_555
H11 C17 1_555 1_555
C18 O1 1_555 1_555
H12 C18 1_555 1_555
H13 C18 1_555 1_555
C19 C18 1_555 1_555
H14 C19 1_555 1_555
H15 C19 1_555 1_555
H16 C19 1_555 1_555
C20 H17 1_555 1_555
H18 C20 1_555 1_555
H19 C20 1_555 1_555
C21 C20 1_555 1_555
H20 C21 1_555 1_555
H21 C21 1_555 1_555
C22 C14 1_555 1_555
C23 O2 1_555 1_555
C24 C23 1_555 1_555
H22 C24 1_555 1_555
C25 C24 1_555 1_555
H23 C25 1_555 1_555
C26 C25 1_555 1_555
C27 C22 1_555 1_555
C28 C26 1_555 1_555
H24 C28 1_555 1_555
C29 C28 1_555 1_555
C30 C29 1_555 1_555
H25 C30 1_555 1_555
C31 C27 1_555 1_555
H26 C31 1_555 1_555
C32 C29 1_555 1_555
H27 C32 1_555 1_555
C33 C32 1_555 1_555
H28 C33 1_555 1_555
C34 H29 1_555 1_555
C35 C34 1_555 1_555
H30 C35 1_555 1_555
C36 C33 1_555 1_555
C37 C36 1_555 1_555
H31 C37 1_555 1_555
C38 N2 1_555 1_555
H32 C38 1_555 1_555
O3 C39 1_555 1_555
C39 C40 1_555 1_555
O4 H33 1_555 1_555
C41 H34 1_555 1_555
H35 C41 1_555 1_555
H36 C41 1_555 1_555
C42 O4 1_555 1_555
H37 C42 1_555 1_555
H38 C42 1_555 1_555
C43 H39 1_555 1_555
H40 C43 1_555 1_555
H41 C43 1_555 1_555
C44 C43 1_555 1_555
H42 C44 1_555 1_555
H43 C44 1_555 1_555
O9 C44 1_555 1_555
H44 O9 1_555 1_555
Ni1_2 N2 1_555 1_555
Cl1E Ni1 1_555 1_555
O1E C15E 1_555 1_555
O2E C21E 1_555 1_555
N1E Ni1 1_555 1_555
N2E Ni1_2 1_555 1_555
N2_2 Ni1 1_555 1_555
N2E_2 Ni1 1_555 1_555
C1E N1E 1_555 1_555
H1E C1E 1_555 1_555
C2E C1E 1_555 1_555
H2E C2E 1_555 1_555
C3E C2E 1_555 1_555
C4E C3E 1_555 1_555
H3E C4E 1_555 1_555
C5E N1E 1_555 1_555
H4E C5E 1_555 1_555
C6E C3E 1_555 1_555
H5E C6E 1_555 1_555
C7E C6E 1_555 1_555
H6E C7E 1_555 1_555
C8E C7E 1_555 1_555
C9E C8E 1_555 1_555
H7E C9E 1_555 1_555
C10E C9E 1_555 1_555
H8E C10E 1_555 1_555
C11E C8E 1_555 1_555
H9E C11E 1_555 1_555
C12E C11E 1_555 1_555
C13E C10E 1_555 1_555
C14E C13E 1_555 1_555
C15E C14E 1_555 1_555
C16E C15E 1_555 1_555
H10E C16E 1_555 1_555
C17E C12E 1_555 1_555
H11E C17E 1_555 1_555
C18E O1E 1_555 1_555
H12E C18E 1_555 1_555
H13E C18E 1_555 1_555
C19E C18E 1_555 1_555
H14E C19E 1_555 1_555
H15E C19E 1_555 1_555
H16E C19E 1_555 1_555
C20E H17E 1_555 1_555
H18E C20E 1_555 1_555
H19E C20E 1_555 1_555
C21E C20E 1_555 1_555
H20E C21E 1_555 1_555
H21E C21E 1_555 1_555
C22E C14E 1_555 1_555
C23E O2E 1_555 1_555
C24E C23E 1_555 1_555
H22E C24E 1_555 1_555
C25E C24E 1_555 1_555
H23E C25E 1_555 1_555
C26E C25E 1_555 1_555
C27E C22E 1_555 1_555
C28E C26E 1_555 1_555
H24E C28E 1_555 1_555
C29E C28E 1_555 1_555
C30E C29E 1_555 1_555
H25E C30E 1_555 1_555
C31E C27E 1_555 1_555
H26E C31E 1_555 1_555
C32E C29E 1_555 1_555
H27E C32E 1_555 1_555
C33E C32E 1_555 1_555
H28E C33E 1_555 1_555
C34E N2E 1_555 1_555
H29E C34E 1_555 1_555
C35E C34E 1_555 1_555
H30E C35E 1_555 1_555
C36E C33E 1_555 1_555
C37E C36E 1_555 1_555
H31E C37E 1_555 1_555
C38E N2E 1_555 1_555
H32E C38E 1_555 1_555
C4 C5 1_555 1_555
C12 C13 1_555 1_555
C16 C17 1_555 1_555
C22 C23 1_555 1_555
C26 C27 1_555 1_555
C30 C31 1_555 1_555
C35 C36 1_555 1_555
C37 C38 1_555 1_555
C41 C42 1_555 1_555
C4E C5E 1_555 1_555
C12E C13E 1_555 1_555
C16E C17E 1_555 1_555
C22E C23E 1_555 1_555
C26E C27E 1_555 1_555
C30E C31E 1_555 1_555
C35E C36E 1_555 1_555
C37E C38E 1_555 1_555

#END
