
#######################################################################
#
#                 Cambridge Crystallographic Data Centre
#                                CCDC 
#
#######################################################################
#
# If this CIF has been generated from an entry in the Cambridge 
# Structural Database, then it will include bibliographic, chemical, 
# crystal, experimental, refinement or atomic coordinate data resulting 
# from the CCDC's data processing and validation procedures.
#
#######################################################################

data_XEPNAI
_symmetry_cell_setting           monoclinic
_symmetry_space_group_name_H-M   'C 2'
_symmetry_Int_Tables_number      5
_space_group_name_Hall           'C 2y'
loop_
_symmetry_equiv_pos_site_id
_symmetry_equiv_pos_as_xyz
1 x,y,z
2 -x,y,-z
3 1/2+x,1/2+y,z
4 1/2-x,1/2+y,-z
_cell_length_a                   42.00(13)
_cell_length_b                   12.93(3)
_cell_length_c                   19.36(5)
_cell_angle_alpha                90
_cell_angle_beta                 104.80(6)
_cell_angle_gamma                90
_cell_volume                     10164.8
loop_
_atom_site_label
_atom_site_type_symbol
_atom_site_fract_x
_atom_site_fract_y
_atom_site_fract_z
Cd1 Cd 0.63809(2) 0.37543(11) -0.10407(4)
O1 O 0.4322(3) 0.9733(9) 0.3046(5)
O2 O 0.4839(4) 1.1198(9) 0.2919(6)
O3 O 0.8197(3) -0.3141(7) -0.5205(5)
O4 O 0.8646(2) -0.1347(12) -0.4558(5)
O5 O 0.5942(3) 0.2566(9) -0.1155(6)
O6 O 0.6832(3) 0.4948(9) -0.0905(6)
N1 N 0.6149(3) 0.4873(11) -0.0364(6)
N2 N 0.6100(3) 0.4623(9) 0.7928(6)
N3 N 0.6641(3) 0.2720(9) -0.1722(5)
N4 N 0.6662(3) 0.2928(11) -1.0005(5)
C1 C 0.5836(4) 0.4938(14) -0.0470(9)
H1 H 0.5701 0.4572 -0.0863
C2 C 0.5683(4) 0.5515(16) -0.0042(10)
H2 H 0.5451 0.5481 -0.0120
C3 C 0.5865(4) 0.6134(12) 0.0493(8)
C4 C 0.6203(5) 0.6080(18) 0.0580(11)
H3 H 0.6341 0.6480 0.0950
C5 C 0.6344(6) 0.550(2) 0.0178(15)
H4 H 0.6576 0.5508 0.0253
C6 C 0.5713(5) 0.6744(14) 0.0955(7)
H5 H 0.5859 0.7089 0.1342
C7 C 0.5403(5) 0.6871(13) 0.0899(7)
H6 H 0.5254 0.6510 0.0525
C8 C 0.5260(4) 0.7522(12) 0.1362(8)
C9 C 0.4925(5) 0.7565(13) 0.1224(7)
H7 H 0.4797 0.7219 0.0814
C10 C 0.4760(5) 0.8106(10) 0.1667(7)
C11 C 0.4408(5) 0.8185(12) 0.1500(9)
H8 H 0.4279 0.7894 0.1069
C12 C 0.4260(4) 0.8667(17) 0.1951(7)
H9 H 0.4026 0.8685 0.1856
C13 C 0.4455(4) 0.9138(11) 0.2560(8)
C14 C 0.4794(4) 0.9111(8) 0.2764(7)
C15 C 0.4957(4) 0.8638(17) 0.2295(7)
C16 C 0.5299(4) 0.8508(10) 0.2431(7)
H10 H 0.5432 0.8785 0.2863
C17 C 0.5451(4) 0.8016(12) 0.1988(8)
H11 H 0.5685 0.8001 0.2095
C18 C 0.4043(5) 1.0360(14) 0.2733(9)
H12 H 0.3841 0.9932 0.2605
H13 H 0.4072 1.0700 0.2295
C19 C 0.4017(5) 1.1125(17) 0.3258(12)
H14 H 0.3829 1.1579 0.3060
H15 H 0.4219 1.1538 0.3385
H16 H 0.3985 1.0779 0.3686
C20 C 0.4747(11) 1.262(4) 0.2189(16)
H17 H 0.4713 1.3372 0.2193
H18 H 0.4534 1.2275 0.2018
H19 H 0.4888 1.2456 0.1871
C21 C 0.4904(9) 1.227(2) 0.2906(15)
H20 H 0.5144 1.2398 0.3020
H21 H 0.4812 1.2640 0.3260
C22 C 0.5000(4) 0.9600(11) 0.3446(7)
C23 C 0.5014(4) 1.0640(13) 0.3490(8)
C24 C 0.5196(4) 1.1138(13) 0.4127(10)
H22 H 0.5211 1.1871 0.4149
C25 C 0.5338(5) 1.0597(15) 0.4665(10)
H23 H 0.5442 1.0941 0.5097
C26 C 0.5349(4) 0.9481(12) 0.4645(8)
C27 C 0.5510(3) 0.8895(13) 0.5248(6)
H24 H 0.5627 0.9247 0.5666
C28 C 0.5503(4) 0.7835(14) 0.5251(7)
C29 C 0.5320(4) 0.7323(11) 0.4594(8)
H25 H 0.5318 0.6589 0.4570
C30 C 0.5151(3) 0.7889(12) 0.4007(7)
H26 H 0.5025 0.7549 0.3590
C31 C 0.5168(3) 0.8993(11) 0.4038(7)
C32 C 0.5655(4) 0.7241(13) 0.5888(6)
H27 H 0.5786 0.7630 0.6273
C33 C 0.5636(3) 0.6242(12) 0.6010(7)
H28 H 0.5511 0.5826 0.5634
C34 C 0.6113(4) 0.5658(12) 0.7886(6)
H29 H 0.6230 0.6029 0.8296
C35 C 0.5967(4) 0.6211(11) 0.7280(7)
H30 H 0.5988 0.6942 0.7286
C36 C 0.5793(3) 0.5737(11) 0.6671(6)
C37 C 0.5769(3) 0.4660(13) 0.6720(6)
H31 H 0.5641 0.4286 0.6322
C38 C 0.5927(3) 0.4121(10) 0.7335(6)
H32 H 0.5913 0.3388 0.7339
C39 C 0.6699(3) 0.1706(12) -0.1646(7)
H33 H 0.6621 0.1380 -0.1280
C40 C 0.6854(3) 0.1072(12) -0.2023(8)
H34 H 0.6871 0.0346 -0.1947
C41 C 0.6990(4) 0.1597(13) -0.2550(8)
C42 C 0.6924(4) 0.2676(14) -0.2641(8)
H35 H 0.6996 0.3046 -0.2998
C43 C 0.6754(4) 0.3199(11) -0.2210(7)
H36 H 0.6720 0.3923 -0.2272
C44 C 0.7184(5) 0.1105(15) -0.2983(13)
H37 H 0.7263 0.1570 -0.3281
C45 C 0.7260(5) 0.026(2) -0.3030(10)
H38 H 0.7196 -0.0206 -0.2709
C46 C 0.7450(4) -0.024(2) -0.3534(7)
C47 C 0.7488(5) -0.126(2) -0.3538(10)
H39 H 0.7390 -0.1681 -0.3245
C48 C 0.7661(4) -0.1709(15) -0.3943(7)
C49 C 0.7707(8) -0.2796(19) -0.3942(13)
H40 H 0.7608 -0.3196 -0.3643
C50 C 0.7884(6) -0.3318(14) -0.4339(10)
H41 H 0.7909 -0.4048 -0.4317
C51 C 0.8025(4) -0.2697(13) -0.4779(7)
C52 C 0.7984(3) -0.1649(11) -0.4825(6)
C53 C 0.7808(3) -0.1097(15) -0.4408(6)
C54 C 0.7781(4) -0.0048(13) -0.4398(7)
H42 H 0.7887 0.0367 -0.4678
C55 C 0.7599(5) 0.0410(16) -0.3981(9)
H43 H 0.7571 0.1140 -0.3984
C56 C 0.8312(5) -0.4161(15) -0.5033(11)
H44 H 0.8354 -0.4264 -0.4511
H45 H 0.8139 -0.4656 -0.5271
C57 C 0.8598(7) -0.438(2) -0.5238(17)
H46 H 0.8665 -0.5095 -0.5116
H47 H 0.8774 -0.3910 -0.4989
H48 H 0.8559 -0.4280 -0.5755
C58 C 0.9188(8) -0.184(3) -0.3812(17)
H49 H 0.9425 -0.1831 -0.3779
H50 H 0.9114 -0.2564 -0.3814
H51 H 0.9145 -0.1483 -0.3400
C59 C 0.9015(5) -0.135(3) -0.4451(10)
H52 H 0.9067 -0.1699 -0.4863
H53 H 0.9092 -0.0623 -0.4445
C60 C 0.8140(3) -0.1042(11) -0.5326(5)
C61 C 0.7935(4) -0.0614(10) -0.5972(6)
C62 C 0.7597(4) -0.0727(10) -0.6186(7)
H54 H 0.7490 -0.1125 -0.5901
C63 C 0.7415(4) -0.0282(13) -0.6797(8)
H55 H 0.7183 -0.0380 -0.6944
C64 C 0.7584(7) 0.0354(13) -0.7223(7)
C65 C 0.7907(6) 0.0424(14) -0.7019(8)
H56 H 0.8016 0.0814 -0.7306
C66 C 0.8091(5) -0.0032(10) -0.6423(7)
C67 C 0.8436(6) 0.0013(15) -0.6228(11)
H57 H 0.8542 0.0353 -0.6542
C68 C 0.8623(5) -0.0387(15) -0.5633(9)
H58 H 0.8855 -0.0287 -0.5512
C69 C 0.8473(4) -0.0970(15) -0.5175(7)
C70 C 0.7417(7) 0.1038(18) -0.7919(13)
H59 H 0.7548 0.1406 -0.8172
C71 C 0.7119(6) 0.106(2) -0.8106(12)
H60 H 0.6968 0.0712 -0.7897
C72 C 0.6510(5) 0.2389(13) -0.9605(8)
H61 H 0.6277 0.2356 -0.9710
C73 C 0.6714(8) 0.1856(14) -0.9005(8)
H62 H 0.6601 0.1471 -0.8725
C74 C 0.7033(7) 0.1826(17) -0.8790(10)
C75 C 0.7152(5) 0.230(2) -0.9224(10)
H63 H 0.7384 0.2281 -0.9142
C76 C 0.6976(4) 0.2844(18) -0.9822(9)
H64 H 0.7097 0.3176 -1.0111
Cd1_2 Cd 0.63809(2) 0.37543(11) -1.10407(4)
Cd1_3 Cd 0.63809(2) 0.37543(11) 0.89593(4)
O1_2 O 0.4322(3) 0.9733(9) -0.6954(5)
O2_2 O 0.4839(4) 1.1198(9) -0.7081(6)
O3_2 O 0.8197(3) -0.3141(7) 0.4795(5)
O4_2 O 0.8646(2) -0.1347(12) 0.5442(5)
O5_2 O 0.5942(3) 0.2566(9) -1.1155(6)
O6_2 O 0.6832(3) 0.4948(9) -1.0905(6)
N1_2 N 0.6149(3) 0.4873(11) -1.0364(6)
N2_2 N 0.6100(3) 0.4623(9) -0.2072(6)
N2_3 N 0.6100(3) 0.4623(9) -1.2072(6)
N3_2 N 0.6641(3) 0.2720(9) 0.8278(5)
N3_3 N 0.6641(3) 0.2720(9) -1.1722(5)
N4_2 N 0.6662(3) 0.2928(11) -0.0005(5)
C1_2 C 0.5836(4) 0.4938(14) -1.0470(9)
H1_2 H 0.5701 0.4572 -1.0863
C2_2 C 0.5683(4) 0.5515(16) -1.0042(10)
H2_2 H 0.5451 0.5481 -1.0120
C3_2 C 0.5865(4) 0.6134(12) -0.9507(8)
C4_2 C 0.6203(5) 0.6080(18) -0.9420(11)
H3_2 H 0.6341 0.6480 -0.9050
C5_2 C 0.6344(6) 0.550(2) -0.9822(15)
H4_2 H 0.6576 0.5508 -0.9747
C6_2 C 0.5713(5) 0.6744(14) -0.9045(7)
H5_2 H 0.5859 0.7089 -0.8658
C7_2 C 0.5403(5) 0.6871(13) -0.9101(7)
H6_2 H 0.5254 0.6510 -0.9475
C8_2 C 0.5260(4) 0.7522(12) -0.8638(8)
C9_2 C 0.4925(5) 0.7565(13) -0.8776(7)
H7_2 H 0.4797 0.7219 -0.9186
C10_2 C 0.4760(5) 0.8106(10) -0.8333(7)
C11_2 C 0.4408(5) 0.8185(12) -0.8500(9)
H8_2 H 0.4279 0.7894 -0.8931
C12_2 C 0.4260(4) 0.8667(17) -0.8049(7)
H9_2 H 0.4026 0.8685 -0.8144
C13_2 C 0.4455(4) 0.9138(11) -0.7440(8)
C14_2 C 0.4794(4) 0.9111(8) -0.7236(7)
C15_2 C 0.4957(4) 0.8638(17) -0.7705(7)
C16_2 C 0.5299(4) 0.8508(10) -0.7569(7)
H10_2 H 0.5432 0.8785 -0.7137
C17_2 C 0.5451(4) 0.8016(12) -0.8012(8)
H11_2 H 0.5685 0.8001 -0.7905
C18_2 C 0.4043(5) 1.0360(14) -0.7267(9)
H12_2 H 0.3841 0.9932 -0.7395
H13_2 H 0.4072 1.0700 -0.7705
C19_2 C 0.4017(5) 1.1125(17) -0.6742(12)
H14_2 H 0.3829 1.1579 -0.6940
H15_2 H 0.4219 1.1538 -0.6615
H16_2 H 0.3985 1.0779 -0.6314
C20_2 C 0.4747(11) 1.262(4) -0.7811(16)
H17_2 H 0.4713 1.3372 -0.7807
H18_2 H 0.4534 1.2275 -0.7982
H19_2 H 0.4888 1.2456 -0.8129
C21_2 C 0.4904(9) 1.227(2) -0.7094(15)
H20_2 H 0.5144 1.2398 -0.6980
H21_2 H 0.4812 1.2640 -0.6740
C22_2 C 0.5000(4) 0.9600(11) -0.6554(7)
C23_2 C 0.5014(4) 1.0640(13) -0.6510(8)
C24_2 C 0.5196(4) 1.1138(13) -0.5873(10)
H22_2 H 0.5211 1.1871 -0.5851
C25_2 C 0.5338(5) 1.0597(15) -0.5335(10)
H23_2 H 0.5442 1.0941 -0.4903
C26_2 C 0.5349(4) 0.9481(12) -0.5355(8)
C27_2 C 0.5510(3) 0.8895(13) -0.4752(6)
H24_2 H 0.5627 0.9247 -0.4334
C28_2 C 0.5503(4) 0.7835(14) -0.4749(7)
C29_2 C 0.5320(4) 0.7323(11) -0.5406(8)
H25_2 H 0.5318 0.6589 -0.5430
C30_2 C 0.5151(3) 0.7889(12) -0.5993(7)
H26_2 H 0.5025 0.7549 -0.6410
C31_2 C 0.5168(3) 0.8993(11) -0.5962(7)
C32_2 C 0.5655(4) 0.7241(13) -0.4112(6)
H27_2 H 0.5786 0.7630 -0.3727
C33_2 C 0.5636(3) 0.6242(12) -0.3990(7)
H28_2 H 0.5511 0.5826 -0.4366
C34_2 C 0.6113(4) 0.5658(12) -0.2114(6)
H29_2 H 0.6230 0.6029 -0.1704
C35_2 C 0.5967(4) 0.6211(11) -0.2720(7)
H30_2 H 0.5988 0.6942 -0.2714
C36_2 C 0.5793(3) 0.5737(11) -0.3329(6)
C37_2 C 0.5769(3) 0.4660(13) -0.3280(6)
H31_2 H 0.5641 0.4286 -0.3678
C38_2 C 0.5927(3) 0.4121(10) -0.2665(6)
H32_2 H 0.5913 0.3388 -0.2661
C39_2 C 0.6699(3) 0.1706(12) 0.8354(7)
H33_2 H 0.6621 0.1380 0.8720
C40_2 C 0.6854(3) 0.1072(12) 0.7977(8)
H34_2 H 0.6871 0.0346 0.8053
C41_2 C 0.6990(4) 0.1597(13) 0.7450(8)
C42_2 C 0.6924(4) 0.2676(14) 0.7359(8)
H35_2 H 0.6996 0.3046 0.7002
C43_2 C 0.6754(4) 0.3199(11) 0.7790(7)
H36_2 H 0.6720 0.3923 0.7728
C44_2 C 0.7184(5) 0.1105(15) 0.7017(13)
H37_2 H 0.7263 0.1570 0.6719
C45_2 C 0.7260(5) 0.026(2) 0.6970(10)
H38_2 H 0.7196 -0.0206 0.7291
C46_2 C 0.7450(4) -0.024(2) 0.6466(7)
C47_2 C 0.7488(5) -0.126(2) 0.6462(10)
H39_2 H 0.7390 -0.1681 0.6755
C48_2 C 0.7661(4) -0.1709(15) 0.6057(7)
C49_2 C 0.7707(8) -0.2796(19) 0.6058(13)
H40_2 H 0.7608 -0.3196 0.6357
C50_2 C 0.7884(6) -0.3318(14) 0.5661(10)
H41_2 H 0.7909 -0.4048 0.5683
C51_2 C 0.8025(4) -0.2697(13) 0.5221(7)
C52_2 C 0.7984(3) -0.1649(11) 0.5175(6)
C53_2 C 0.7808(3) -0.1097(15) 0.5592(6)
C54_2 C 0.7781(4) -0.0048(13) 0.5602(7)
H42_2 H 0.7887 0.0367 0.5322
C55_2 C 0.7599(5) 0.0410(16) 0.6019(9)
H43_2 H 0.7571 0.1140 0.6016
C56_2 C 0.8312(5) -0.4161(15) 0.4967(11)
H44_2 H 0.8354 -0.4264 0.5489
H45_2 H 0.8139 -0.4656 0.4729
C57_2 C 0.8598(7) -0.438(2) 0.4762(17)
H46_2 H 0.8665 -0.5095 0.4884
H47_2 H 0.8774 -0.3910 0.5011
H48_2 H 0.8559 -0.4280 0.4245
C58_2 C 0.9188(8) -0.184(3) 0.6188(17)
H49_2 H 0.9425 -0.1831 0.6221
H50_2 H 0.9114 -0.2564 0.6186
H51_2 H 0.9145 -0.1483 0.6600
C59_2 C 0.9015(5) -0.135(3) 0.5549(10)
H52_2 H 0.9067 -0.1699 0.5137
H53_2 H 0.9092 -0.0623 0.5555
C60_2 C 0.8140(3) -0.1042(11) 0.4674(5)
C61_2 C 0.7935(4) -0.0614(10) 0.4028(6)
C62_2 C 0.7597(4) -0.0727(10) 0.3814(7)
H54_2 H 0.7490 -0.1125 0.4099
C63_2 C 0.7415(4) -0.0282(13) 0.3203(8)
H55_2 H 0.7183 -0.0380 0.3056
C64_2 C 0.7584(7) 0.0354(13) 0.2777(7)
C65_2 C 0.7907(6) 0.0424(14) 0.2981(8)
H56_2 H 0.8016 0.0814 0.2694
C66_2 C 0.8091(5) -0.0032(10) 0.3577(7)
C67_2 C 0.8436(6) 0.0013(15) 0.3772(11)
H57_2 H 0.8542 0.0353 0.3458
C68_2 C 0.8623(5) -0.0387(15) 0.4367(9)
H58_2 H 0.8855 -0.0287 0.4488
C69_2 C 0.8473(4) -0.0970(15) 0.4825(7)
C70_2 C 0.7417(7) 0.1038(18) 0.2081(13)
H59_2 H 0.7548 0.1406 0.1828
C71_2 C 0.7119(6) 0.106(2) 0.1894(12)
H60_2 H 0.6968 0.0712 0.2103
C72_2 C 0.6510(5) 0.2389(13) 0.0395(8)
H61_2 H 0.6277 0.2356 0.0290
C73_2 C 0.6714(8) 0.1856(14) 0.0995(8)
H62_2 H 0.6601 0.1471 0.1275
C74_2 C 0.7033(7) 0.1826(17) 0.1210(10)
C75_2 C 0.7152(5) 0.230(2) 0.0776(10)
H63_2 H 0.7384 0.2281 0.0858
C76_2 C 0.6976(4) 0.2844(18) 0.0178(9)
H64_2 H 0.7097 0.3176 -0.0111
Cl1 Cl 0.5000 0.3915(5) 0.5000
O7 O 0.4720(4) 0.3282(12) 0.4702(8)
O8 O 0.5101(5) 0.4516(17) 0.4489(11)
O7A O 0.5280(4) 0.3282(12) 0.5298(8)
O8A O 0.4899(5) 0.4516(17) 0.5511(11)
N5 N 0.4805(5) 0.5304(14) 0.7646(11)
O9 O 0.5022(5) 0.4714(15) 0.8760(11)
C77 C 0.5111(6) 0.547(2) 0.7531(14)
H65 H 0.5282 0.5251 0.7951
H66 H 0.5138 0.6214 0.7448
H67 H 0.5132 0.5080 0.7112
C78 C 0.4530(8) 0.557(2) 0.7042(16)
H68 H 0.4322 0.5370 0.7147
H69 H 0.4553 0.5209 0.6613
H70 H 0.4529 0.6321 0.6960
C79 C 0.4785(6) 0.487(2) 0.8208(14)
H71 H 0.4573 0.4642 0.8228
C80 C 0.7544(6) 0.458(4) -0.041(3)
C81 C 0.7529(19) 0.519(6) 0.024(3)
O15 O 0.7465(11) 0.402(4) -0.094(3)
C82 C 0.8324(9) 0.307(3) 0.4529(18)
N6 N 0.8493(8) 0.289(3) 0.5328(18)
C83 C 0.8147(9) 0.297(3) 0.545(2)
O10 O 0.8423(13) 0.281(4) 0.395(2)
C88 C 0.8839(9) 0.307(3) 0.588(2)
O11 O 0.6303(7) 0.978(2) 0.2240(15)
C84 C 0.6380(13) 0.894(5) 0.207(3)
C85 C 0.6505(16) 0.796(5) 0.233(3)
O12 O 0.6438(15) 0.212(3) 0.274(3)
O13 O 1.0000 0.850(4) 0.0000
O14 O 0.5627(10) 0.269(4) 0.014(2)
O16 O 0.6453(11) 0.433(3) 0.250(3)
C86 C 0.6206(13) 0.411(3) 0.199(3)
C87 C 0.5950(10) 0.339(3) 0.154(2)
Cl2 Cl 0.68186(19) 0.7908(5) 0.8322(8)
O17 O 0.6574(5) 0.8418(19) 0.8458(14)
O18 O 0.6705(10) 0.765(3) 0.7574(12)
O19 O 0.6897(8) 0.7021(18) 0.865(2)
O20 O 0.7073(5) 0.8531(19) 0.8348(13)
O21 O 0.8838(5) 0.5634(17) 0.0769(12)
O22 O 0.8711(13) 0.433(3) 0.000(2)
O23 O 0.9231(10) 0.471(11) 0.050(8)
O24 O 0.893(5) 0.577(6) -0.030(4)
Cl3 Cl 0.8927(11) 0.513(4) 0.025(3)
loop_
_geom_bond_atom_site_label_1
_geom_bond_atom_site_label_2
_geom_bond_site_symmetry_1
_geom_bond_site_symmetry_2
Cd1 O5 1_555 1_555
O1 C13 1_555 1_555
O2 C21 1_555 1_555
O3 C51 1_555 1_555
O4 C59 1_555 1_555
O6 Cd1 1_555 1_555
N1 Cd1 1_555 1_555
N2 C34 1_555 1_555
N3 Cd1 1_555 1_555
N4 C72 1_555 1_555
C1 N1 1_555 1_555
H1 C1 1_555 1_555
C2 C1 1_555 1_555
H2 C2 1_555 1_555
C3 C2 1_555 1_555
C4 C3 1_555 1_555
H3 C4 1_555 1_555
C5 N1 1_555 1_555
H4 C5 1_555 1_555
C6 C3 1_555 1_555
H5 C6 1_555 1_555
C7 C6 1_555 1_555
H6 C7 1_555 1_555
C8 C7 1_555 1_555
C9 C8 1_555 1_555
H7 C9 1_555 1_555
C10 C9 1_555 1_555
C11 C10 1_555 1_555
H8 C11 1_555 1_555
C12 C11 1_555 1_555
H9 C12 1_555 1_555
C13 C12 1_555 1_555
C14 C13 1_555 1_555
C15 C10 1_555 1_555
C16 C15 1_555 1_555
H10 C16 1_555 1_555
C17 C8 1_555 1_555
H11 C17 1_555 1_555
C18 O1 1_555 1_555
H12 C18 1_555 1_555
H13 C18 1_555 1_555
C19 C18 1_555 1_555
H14 C19 1_555 1_555
H15 C19 1_555 1_555
H16 C19 1_555 1_555
C20 H17 1_555 1_555
H18 C20 1_555 1_555
H19 C20 1_555 1_555
C21 C20 1_555 1_555
H20 C21 1_555 1_555
H21 C21 1_555 1_555
C22 C14 1_555 1_555
C23 O2 1_555 1_555
C24 C23 1_555 1_555
H22 C24 1_555 1_555
C25 C24 1_555 1_555
H23 C25 1_555 1_555
C26 C25 1_555 1_555
C27 C26 1_555 1_555
H24 C27 1_555 1_555
C28 C27 1_555 1_555
C29 C28 1_555 1_555
H25 C29 1_555 1_555
C30 C29 1_555 1_555
H26 C30 1_555 1_555
C31 C22 1_555 1_555
C32 C28 1_555 1_555
H27 C32 1_555 1_555
C33 C32 1_555 1_555
H28 C33 1_555 1_555
C34 H29 1_555 1_555
C35 C34 1_555 1_555
H30 C35 1_555 1_555
C36 C33 1_555 1_555
C37 C36 1_555 1_555
H31 C37 1_555 1_555
C38 N2 1_555 1_555
H32 C38 1_555 1_555
C39 N3 1_555 1_555
H33 C39 1_555 1_555
C40 C39 1_555 1_555
H34 C40 1_555 1_555
C41 C40 1_555 1_555
C42 C41 1_555 1_555
H35 C42 1_555 1_555
C43 N3 1_555 1_555
H36 C43 1_555 1_555
C44 C41 1_555 1_555
H37 C44 1_555 1_555
C45 C44 1_555 1_555
H38 C45 1_555 1_555
C46 C45 1_555 1_555
C47 C46 1_555 1_555
H39 C47 1_555 1_555
C48 C47 1_555 1_555
C49 C48 1_555 1_555
H40 C49 1_555 1_555
C50 C49 1_555 1_555
H41 C50 1_555 1_555
C51 C50 1_555 1_555
C52 C51 1_555 1_555
C53 C48 1_555 1_555
C54 C53 1_555 1_555
H42 C54 1_555 1_555
C55 C46 1_555 1_555
H43 C55 1_555 1_555
C56 O3 1_555 1_555
H44 C56 1_555 1_555
H45 C56 1_555 1_555
C57 C56 1_555 1_555
H46 C57 1_555 1_555
H47 C57 1_555 1_555
H48 C57 1_555 1_555
C58 H49 1_555 1_555
H50 C58 1_555 1_555
H51 C58 1_555 1_555
C59 C58 1_555 1_555
H52 C59 1_555 1_555
H53 C59 1_555 1_555
C60 C52 1_555 1_555
C61 C60 1_555 1_555
C62 C61 1_555 1_555
H54 C62 1_555 1_555
C63 C62 1_555 1_555
H55 C63 1_555 1_555
C64 C63 1_555 1_555
C65 C64 1_555 1_555
H56 C65 1_555 1_555
C66 C61 1_555 1_555
C67 C66 1_555 1_555
H57 C67 1_555 1_555
C68 C67 1_555 1_555
H58 C68 1_555 1_555
C69 O4 1_555 1_555
C70 C64 1_555 1_555
H59 C70 1_555 1_555
C71 C70 1_555 1_555
H60 C71 1_555 1_555
C72 H61 1_555 1_555
C73 C72 1_555 1_555
H62 C73 1_555 1_555
C74 C71 1_555 1_555
C75 C74 1_555 1_555
H63 C75 1_555 1_555
C76 N4 1_555 1_555
H64 C76 1_555 1_555
Cl1 O7 1_555 1_555
O8 Cl1 1_555 1_555
N5 C77 1_555 1_555
O9 C79 1_555 1_555
C77 H65 1_555 1_555
H66 C77 1_555 1_555
H67 C77 1_555 1_555
C78 N5 1_555 1_555
H68 C78 1_555 1_555
H69 C78 1_555 1_555
H70 C78 1_555 1_555
C79 N5 1_555 1_555
H71 C79 1_555 1_555
C80 C81 1_555 1_555
C82 N6 1_555 1_555
N6 C83 1_555 1_555
O10 C82 1_555 1_555
O11 C84 1_555 1_555
C84 C85 1_555 1_555
O15 C80 1_555 1_555
O16 C86 1_555 1_555
C86 C87 1_555 1_555
Cl2 O17 1_555 1_555
O18 Cl2 1_555 1_555
O19 Cl2 1_555 1_555
O20 Cl2 1_555 1_555
O21 Cl3 1_555 1_555
O22 Cl3 1_555 1_555
O23 Cl3 1_555 1_555
O24 Cl3 1_555 1_555
C88 N6 1_555 1_555
Cd1_2 N4 1_555 1_555
Cd1_3 N2 1_555 1_555
O1_2 C13_2 1_555 1_555
O2_2 C21_2 1_555 1_555
O3_2 C51_2 1_555 1_555
O4_2 C59_2 1_555 1_555
O5_2 Cd1_2 1_555 1_555
O6_2 Cd1_2 1_555 1_555
N1_2 Cd1_2 1_555 1_555
N2_2 Cd1 1_555 1_555
N2_3 Cd1_2 1_555 1_555
N3_2 Cd1_3 1_555 1_555
N3_3 Cd1_2 1_555 1_555
N4_2 Cd1 1_555 1_555
C1_2 N1_2 1_555 1_555
H1_2 C1_2 1_555 1_555
C2_2 C1_2 1_555 1_555
H2_2 C2_2 1_555 1_555
C3_2 C2_2 1_555 1_555
C4_2 C3_2 1_555 1_555
H3_2 C4_2 1_555 1_555
C5_2 N1_2 1_555 1_555
H4_2 C5_2 1_555 1_555
C6_2 C3_2 1_555 1_555
H5_2 C6_2 1_555 1_555
C7_2 C6_2 1_555 1_555
H6_2 C7_2 1_555 1_555
C8_2 C7_2 1_555 1_555
C9_2 C8_2 1_555 1_555
H7_2 C9_2 1_555 1_555
C10_2 C9_2 1_555 1_555
C11_2 C10_2 1_555 1_555
H8_2 C11_2 1_555 1_555
C12_2 C11_2 1_555 1_555
H9_2 C12_2 1_555 1_555
C13_2 C12_2 1_555 1_555
C14_2 C13_2 1_555 1_555
C15_2 C10_2 1_555 1_555
C16_2 C15_2 1_555 1_555
H10_2 C16_2 1_555 1_555
C17_2 C8_2 1_555 1_555
H11_2 C17_2 1_555 1_555
C18_2 O1_2 1_555 1_555
H12_2 C18_2 1_555 1_555
H13_2 C18_2 1_555 1_555
C19_2 C18_2 1_555 1_555
H14_2 C19_2 1_555 1_555
H15_2 C19_2 1_555 1_555
H16_2 C19_2 1_555 1_555
C20_2 H17_2 1_555 1_555
H18_2 C20_2 1_555 1_555
H19_2 C20_2 1_555 1_555
C21_2 C20_2 1_555 1_555
H20_2 C21_2 1_555 1_555
H21_2 C21_2 1_555 1_555
C22_2 C14_2 1_555 1_555
C23_2 O2_2 1_555 1_555
C24_2 C23_2 1_555 1_555
H22_2 C24_2 1_555 1_555
C25_2 C24_2 1_555 1_555
H23_2 C25_2 1_555 1_555
C26_2 C25_2 1_555 1_555
C27_2 C26_2 1_555 1_555
H24_2 C27_2 1_555 1_555
C28_2 C27_2 1_555 1_555
C29_2 C28_2 1_555 1_555
H25_2 C29_2 1_555 1_555
C30_2 C29_2 1_555 1_555
H26_2 C30_2 1_555 1_555
C31_2 C22_2 1_555 1_555
C32_2 C28_2 1_555 1_555
H27_2 C32_2 1_555 1_555
C33_2 C32_2 1_555 1_555
H28_2 C33_2 1_555 1_555
C34_2 N2_2 1_555 1_555
H29_2 C34_2 1_555 1_555
C35_2 C34_2 1_555 1_555
H30_2 C35_2 1_555 1_555
C36_2 C33_2 1_555 1_555
C37_2 C36_2 1_555 1_555
H31_2 C37_2 1_555 1_555
C38_2 N2_2 1_555 1_555
H32_2 C38_2 1_555 1_555
C39_2 N3_2 1_555 1_555
H33_2 C39_2 1_555 1_555
C40_2 C39_2 1_555 1_555
H34_2 C40_2 1_555 1_555
C41_2 C40_2 1_555 1_555
C42_2 C41_2 1_555 1_555
H35_2 C42_2 1_555 1_555
C43_2 N3_2 1_555 1_555
H36_2 C43_2 1_555 1_555
C44_2 C41_2 1_555 1_555
H37_2 C44_2 1_555 1_555
C45_2 C44_2 1_555 1_555
H38_2 C45_2 1_555 1_555
C46_2 C45_2 1_555 1_555
C47_2 C46_2 1_555 1_555
H39_2 C47_2 1_555 1_555
C48_2 C47_2 1_555 1_555
C49_2 C48_2 1_555 1_555
H40_2 C49_2 1_555 1_555
C50_2 C49_2 1_555 1_555
H41_2 C50_2 1_555 1_555
C51_2 C50_2 1_555 1_555
C52_2 C51_2 1_555 1_555
C53_2 C48_2 1_555 1_555
C54_2 C53_2 1_555 1_555
H42_2 C54_2 1_555 1_555
C55_2 C46_2 1_555 1_555
H43_2 C55_2 1_555 1_555
C56_2 O3_2 1_555 1_555
H44_2 C56_2 1_555 1_555
H45_2 C56_2 1_555 1_555
C57_2 C56_2 1_555 1_555
H46_2 C57_2 1_555 1_555
H47_2 C57_2 1_555 1_555
H48_2 C57_2 1_555 1_555
C58_2 H49_2 1_555 1_555
H50_2 C58_2 1_555 1_555
H51_2 C58_2 1_555 1_555
C59_2 C58_2 1_555 1_555
H52_2 C59_2 1_555 1_555
H53_2 C59_2 1_555 1_555
C60_2 C52_2 1_555 1_555
C61_2 C60_2 1_555 1_555
C62_2 C61_2 1_555 1_555
H54_2 C62_2 1_555 1_555
C63_2 C62_2 1_555 1_555
H55_2 C63_2 1_555 1_555
C64_2 C63_2 1_555 1_555
C65_2 C64_2 1_555 1_555
H56_2 C65_2 1_555 1_555
C66_2 C61_2 1_555 1_555
C67_2 C66_2 1_555 1_555
H57_2 C67_2 1_555 1_555
C68_2 C67_2 1_555 1_555
H58_2 C68_2 1_555 1_555
C69_2 O4_2 1_555 1_555
C70_2 C64_2 1_555 1_555
H59_2 C70_2 1_555 1_555
C71_2 C70_2 1_555 1_555
H60_2 C71_2 1_555 1_555
C72_2 N4_2 1_555 1_555
H61_2 C72_2 1_555 1_555
C73_2 C72_2 1_555 1_555
H62_2 C73_2 1_555 1_555
C74_2 C71_2 1_555 1_555
C75_2 C74_2 1_555 1_555
H63_2 C75_2 1_555 1_555
C76_2 N4_2 1_555 1_555
H64_2 C76_2 1_555 1_555
O7A Cl1 1_555 1_555
O8A Cl1 1_555 1_555
C4 C5 1_555 1_555
C14 C15 1_555 1_555
C16 C17 1_555 1_555
C22 C23 1_555 1_555
C26 C31 1_555 1_555
C30 C31 1_555 1_555
C35 C36 1_555 1_555
C37 C38 1_555 1_555
C42 C43 1_555 1_555
C52 C53 1_555 1_555
C54 C55 1_555 1_555
C60 C69 1_555 1_555
C65 C66 1_555 1_555
C68 C69 1_555 1_555
C73 C74 1_555 1_555
C75 C76 1_555 1_555
C4_2 C5_2 1_555 1_555
C14_2 C15_2 1_555 1_555
C16_2 C17_2 1_555 1_555
C22_2 C23_2 1_555 1_555
C26_2 C31_2 1_555 1_555
C30_2 C31_2 1_555 1_555
C35_2 C36_2 1_555 1_555
C37_2 C38_2 1_555 1_555
C42_2 C43_2 1_555 1_555
C52_2 C53_2 1_555 1_555
C54_2 C55_2 1_555 1_555
C60_2 C69_2 1_555 1_555
C65_2 C66_2 1_555 1_555
C68_2 C69_2 1_555 1_555
C73_2 C74_2 1_555 1_555
C75_2 C76_2 1_555 1_555

#END
