
#######################################################################
#
#                 Cambridge Crystallographic Data Centre
#                                CCDC 
#
#######################################################################
#
# If this CIF has been generated from an entry in the Cambridge 
# Structural Database, then it will include bibliographic, chemical, 
# crystal, experimental, refinement or atomic coordinate data resulting 
# from the CCDC's data processing and validation procedures.
#
#######################################################################

data_XEPRER
_symmetry_cell_setting           triclinic
_symmetry_space_group_name_H-M   'P -1'
_symmetry_Int_Tables_number      2
_space_group_name_Hall           '-P 1'
loop_
_symmetry_equiv_pos_site_id
_symmetry_equiv_pos_as_xyz
1 x,y,z
2 -x,-y,-z
_cell_length_a                   7.4030(4)
_cell_length_b                   14.4078(7)
_cell_length_c                   14.8293(6)
_cell_angle_alpha                110.419(3)
_cell_angle_beta                 91.214(4)
_cell_angle_gamma                99.765(4)
_cell_volume                     1455.31
loop_
_atom_site_label
_atom_site_type_symbol
_atom_site_fract_x
_atom_site_fract_y
_atom_site_fract_z
Ca1 Ca 0.74762(7) -0.00379(4) 0.45754(3)
C1 C 0.9067(3) 0.14454(19) 0.76272(18)
C2 C 0.9844(4) 0.0822(2) 0.79926(19)
H1 H 1.0345 0.0298 0.7580
C3 C 0.9874(4) 0.0979(2) 0.8960(2)
H2 H 1.0367 0.0555 0.9206
C4 C 0.9165(4) 0.1770(2) 0.95586(19)
C5 C 0.8424(5) 0.2411(2) 0.9223(2)
H3 H 0.7976 0.2952 0.9645
C6 C 0.8359(4) 0.2236(2) 0.82538(19)
H4 H 0.7834 0.2654 0.8012
C7 C 0.8879(3) 0.12253(17) 0.65607(17)
O1 O 0.7666(2) 0.15630(14) 0.62301(13)
O2 O 0.9828(2) 0.06574(14) 0.60223(12)
N1 N 0.9193(5) 0.1941(3) 1.0598(2)
O3 O 0.8873(5) 0.2733(3) 1.11392(19)
O4 O 0.9526(5) 0.1286(3) 1.08707(19)
C8 C 0.3977(3) 0.13745(19) 0.32932(18)
C9 C 0.4874(4) 0.0814(2) 0.2539(2)
H5 H 0.5440 0.0312 0.2609
C10 C 0.4932(4) 0.0996(2) 0.1687(2)
H6 H 0.5519 0.0617 0.1178
C11 C 0.4106(4) 0.1750(2) 0.1608(2)
C12 C 0.3219(5) 0.2324(2) 0.2344(2)
H7 H 0.2676 0.2834 0.2272
C13 C 0.3152(4) 0.2129(2) 0.3188(2)
H8 H 0.2549 0.2506 0.3692
C14 C 0.3782(3) 0.11238(18) 0.41901(18)
O5 O 0.4797(2) 0.05759(14) 0.43665(13)
O6 O 0.2552(3) 0.14211(15) 0.47194(14)
N2 N 0.4149(4) 0.1947(3) 0.0701(2)
O7 O 0.4700(5) 0.1364(3) 0.0007(2)
O8 O 0.3613(5) 0.2688(3) 0.0673(2)
O9 O 0.8930(3) 0.11732(14) 0.39689(14)
H25 H 0.8477 0.1682 0.4108
H26 H 1.0019 0.1335 0.4172
O10 O 0.5931(3) -0.12598(14) 0.31603(14)
H27 H 0.6156 -0.1799 0.2804
H28 H 0.4844 -0.1392 0.3252
Ca1A Ca 1.25238(7) 0.00379(4) 0.54246(3)
Ca1A_2 Ca 0.25238(7) 0.00379(4) 0.54246(3)
O2A O 1.0172(2) -0.06574(14) 0.39777(12)
O5A O 0.5203(2) -0.05759(14) 0.56335(13)
O6A O 0.7448(3) -0.14211(15) 0.52806(14)
N3 N 0.3110(4) 0.33914(19) 0.89791(19)
H9 H 0.3422 0.3080 0.9340
N4 N 0.3121(4) 0.30389(18) 0.80085(19)
C15 C 0.2550(4) 0.3722(2) 0.7723(2)
C16 C 0.2200(5) 0.4515(2) 0.8531(2)
H10 H 0.1798 0.5092 0.8529
C17 C 0.2562(4) 0.4279(2) 0.9318(2)
C18 C 0.2419(6) 0.4791(3) 1.0371(3)
H11 H 0.1610 0.4348 1.0605
H12 H 0.1939 0.5395 1.0473
H13 H 0.3616 0.4960 1.0711
C19 C 0.2329(6) 0.3561(3) 0.6679(3)
H14 H 0.2640 0.2925 0.6309
H15 H 0.3127 0.4093 0.6554
H16 H 0.1075 0.3562 0.6500
N5 N 0.7546(4) 0.32468(19) 0.5613(2)
H17 H 0.7536 0.2834 0.5916
N6 N 0.7728(4) 0.29930(19) 0.4659(2)
C20 C 0.7664(5) 0.3818(2) 0.4476(3)
C21 C 0.7442(6) 0.4586(3) 0.5320(3)
H18 H 0.7350 0.5241 0.5381
C22 C 0.7383(5) 0.4207(2) 0.6036(3)
C23 C 0.7842(8) 0.3821(3) 0.3476(3)
H19 H 0.8054 0.3176 0.3061
H20 H 0.8856 0.4336 0.3483
H21 H 0.6729 0.3952 0.3242
C24 C 0.7254(7) 0.4655(4) 0.7101(3)
H22 H 0.6667 0.4141 0.7328
H23 H 0.6545 0.5180 0.7235
H24 H 0.8467 0.4931 0.7423
loop_
_geom_bond_atom_site_label_1
_geom_bond_atom_site_label_2
_geom_bond_site_symmetry_1
_geom_bond_site_symmetry_2
Ca1 O1 1_555 1_555
C1 C2 1_555 1_555
C2 H1 1_555 1_555
C3 C2 1_555 1_555
H2 C3 1_555 1_555
C4 C3 1_555 1_555
C5 C4 1_555 1_555
H3 C5 1_555 1_555
C6 C1 1_555 1_555
H4 C6 1_555 1_555
C7 C1 1_555 1_555
O1 C7 1_555 1_555
O2 Ca1 1_555 1_555
N1 C4 1_555 1_555
O3 N1 1_555 1_555
O4 N1 1_555 1_555
C8 C9 1_555 1_555
C9 H5 1_555 1_555
C10 C9 1_555 1_555
H6 C10 1_555 1_555
C11 C10 1_555 1_555
C12 C11 1_555 1_555
H7 C12 1_555 1_555
C13 C8 1_555 1_555
H8 C13 1_555 1_555
C14 C8 1_555 1_555
O5 Ca1 1_555 1_555
O6 C14 1_555 1_555
N2 C11 1_555 1_555
O7 N2 1_555 1_555
O8 N2 1_555 1_555
N3 H9 1_555 1_555
N4 N3 1_555 1_555
C15 N4 1_555 1_555
C16 C15 1_555 1_555
H10 C16 1_555 1_555
C17 N3 1_555 1_555
C18 C17 1_555 1_555
H11 C18 1_555 1_555
H12 C18 1_555 1_555
H13 C18 1_555 1_555
C19 C15 1_555 1_555
H14 C19 1_555 1_555
H15 C19 1_555 1_555
H16 C19 1_555 1_555
N5 H17 1_555 1_555
N6 N5 1_555 1_555
C20 N6 1_555 1_555
C21 C20 1_555 1_555
H18 C21 1_555 1_555
C22 N5 1_555 1_555
C23 C20 1_555 1_555
H19 C23 1_555 1_555
H20 C23 1_555 1_555
H21 C23 1_555 1_555
C24 C22 1_555 1_555
H22 C24 1_555 1_555
H23 C24 1_555 1_555
H24 C24 1_555 1_555
O9 Ca1 1_555 1_555
H25 O9 1_555 1_555
H26 O9 1_555 1_555
O10 Ca1 1_555 1_555
H27 O10 1_555 1_555
H28 O10 1_555 1_555
Ca1A O2 1_555 1_555
Ca1A_2 O5 1_555 1_555
O2A Ca1 1_555 1_555
O5A Ca1 1_555 1_555
O6A Ca1 1_555 1_555
C5 C6 1_555 1_555
C7 O2 1_555 1_555
C12 C13 1_555 1_555
C14 O5 1_555 1_555
O6 Ca1A_2 1_555 1_555
C16 C17 1_555 1_555
C21 C22 1_555 1_555
Ca1A O2A 1_555 1_555
Ca1A_2 O5A 1_555 1_555

#END
