
#######################################################################
#
#                 Cambridge Crystallographic Data Centre
#                                CCDC 
#
#######################################################################
#
# If this CIF has been generated from an entry in the Cambridge 
# Structural Database, then it will include bibliographic, chemical, 
# crystal, experimental, refinement or atomic coordinate data resulting 
# from the CCDC's data processing and validation procedures.
#
#######################################################################

data_XEPVIX
_symmetry_cell_setting           orthorhombic
_symmetry_space_group_name_H-M   'P n n 2'
_symmetry_Int_Tables_number      34
_space_group_name_Hall           'P 2 -2n'
loop_
_symmetry_equiv_pos_site_id
_symmetry_equiv_pos_as_xyz
1 x,y,z
2 -x,-y,z
3 1/2-x,1/2+y,1/2+z
4 1/2+x,1/2-y,1/2+z
_cell_length_a                   17.860(4)
_cell_length_b                   4.924(1)
_cell_length_c                   11.660(2)
_cell_angle_alpha                90
_cell_angle_beta                 90
_cell_angle_gamma                90
_cell_volume                     1025.41
loop_
_atom_site_label
_atom_site_type_symbol
_atom_site_fract_x
_atom_site_fract_y
_atom_site_fract_z
Na1 Na -0.5000 0.5000 0.0000
Na2 Na -0.3960(3) 0.0103(12) 0.5021(15)
Na3 Na -0.3248(3) 0.5543(11) 0.0017(19)
O1 O -0.4087(14) 0.344(4) 0.1406(19)
O2 O -0.3694(11) 0.162(3) 0.303(2)
O3 O -0.4368(6) 0.523(3) 0.4283(10)
O4 O -0.4171(11) 0.324(3) 0.8643(19)
O5 O -0.3698(11) 0.146(4) 0.700(2)
O6 O -0.4991(8) 0.266(2) 0.5826(8)
C1 C -0.4115(11) 0.289(4) 0.2490(19)
C2 C -0.4590(11) 0.529(4) 0.3120(14)
C3 C -0.420(2) 0.313(5) 0.759(3)
C4 C -0.4916(10) 0.340(4) 0.6989(14)
B1 B -0.5000 0.5000 0.487(4)
O7 O -0.2215(6) 0.261(2) -0.005(3)
O8 O -0.5807(5) 0.1231(18) 0.002(3)
O9 O -0.2789(14) 0.837(6) 0.158(3)
O10 O -0.2701(12) 0.831(4) -0.149(3)
H1 H -0.4487 0.7538 0.2841
H2 H -0.5510 0.2987 0.7389
Na3A Na -0.6752(3) 0.4457(11) 0.0017(19)
O1A O -0.5913(14) 0.656(4) 0.1406(19)
O4_2 O -0.4171(11) 0.324(3) -0.1357(19)
O8A O -0.4193(5) 0.8769(18) 0.002(3)
O3_2 O -0.4368(6) -0.477(3) 0.4283(10)
O6A O -0.5009(8) -0.266(2) 0.5826(8)
O7B O -0.2785(6) -0.239(2) 0.495(3)
Na2_2 Na -0.3960(3) 1.0103(12) 0.5021(15)
Na2A Na -0.6040(3) -0.0103(12) 0.5021(15)
C2A C -0.5410(11) 0.471(4) 0.3120(14)
O3A O -0.5632(6) 0.477(3) 0.4283(10)
O6A_2 O -0.5009(8) 0.734(2) 0.5826(8)
Na2B Na -0.1040(3) 0.5103(12) 0.0021(15)
C1A C -0.5885(11) 0.711(4) 0.2490(19)
Na3B Na -0.1752(3) 0.0543(11) 0.5017(19)
O4A O -0.5829(11) 0.676(3) -0.1357(19)
H1A H -0.5513 0.2462 0.2841
Na2A_2 Na -0.6040(3) 0.9897(12) 0.5021(15)
C4A C -0.5084(10) 0.660(4) 0.6989(14)
O2A O -0.6306(11) 0.838(3) 0.303(2)
Na1_2 Na -0.5000 0.5000 1.0000
Na3_2 Na -0.3248(3) 0.5543(11) 1.0017(19)
C3A C -0.580(2) 0.687(5) 0.759(3)
H2A H -0.4490 0.7013 0.7389
O4A_2 O -0.5829(11) 0.676(3) 0.8643(19)
O5A O -0.6302(11) 0.854(4) 0.700(2)
Na3A_2 Na -0.6752(3) 0.4457(11) 1.0017(19)
O7A O -0.7785(6) 0.739(2) -0.005(3)
O9A O -0.7211(14) 0.163(6) 0.158(3)
O10A O -0.7299(12) 0.169(4) -0.149(3)
O6_2 O -0.4991(8) 1.266(2) 0.5826(8)
O3A_2 O -0.5632(6) 1.477(3) 0.4283(10)
O7C O -0.7215(6) 1.239(2) 0.495(3)
loop_
_geom_bond_atom_site_label_1
_geom_bond_atom_site_label_2
_geom_bond_site_symmetry_1
_geom_bond_site_symmetry_2
Na1 O1 1_555 1_555
Na2 O2 1_555 1_555
Na3 O1 1_555 1_555
O1 C1 1_555 1_555
O2 C1 1_555 1_555
O3 Na2 1_555 1_555
O4 C3 1_555 1_555
O5 Na2 1_555 1_555
O6 Na2 1_555 1_555
C1 C2 1_555 1_555
C2 O3 1_555 1_555
C3 O5 1_555 1_555
C4 O6 1_555 1_555
B1 O3 1_555 1_555
O7 Na3 1_555 1_555
O8 Na1 1_555 1_555
O9 Na3 1_555 1_555
O10 Na3 1_555 1_555
H1 C2 1_555 1_555
H2 C4 1_555 1_555
Na3A O8 1_555 1_555
O1A Na1 1_555 1_555
O4_2 Na1 1_555 1_555
O8A Na1 1_555 1_555
O3_2 Na2 1_555 1_555
O6A Na2 1_555 1_555
O7B Na2 1_555 1_555
Na2_2 O3 1_555 1_555
Na2A O6 1_555 1_555
C2A C2 1_555 1_555
O3A B1 1_555 1_555
O6A_2 B1 1_555 1_555
Na2B O7 1_555 1_555
C1A O1A 1_555 1_555
Na3B O7B 1_555 1_555
O4A Na1 1_555 1_555
H1A C2A 1_555 1_555
Na2A_2 O3A 1_555 1_555
C4A C4 1_555 1_555
O2A C1A 1_555 1_555
Na1_2 O4 1_555 1_555
Na3_2 O4 1_555 1_555
C3A C4A 1_555 1_555
H2A C4A 1_555 1_555
O4A_2 Na1_2 1_555 1_555
O5A Na2A_2 1_555 1_555
Na3A_2 O4A_2 1_555 1_555
O7A Na3A 1_555 1_555
O9A Na3A 1_555 1_555
O10A Na3A 1_555 1_555
O6_2 Na2_2 1_555 1_555
O3A_2 Na2A_2 1_555 1_555
O7C Na2A_2 1_555 1_555
Na3 O4_2 1_555 1_555
Na3 O8A 1_555 1_555
O6 B1 1_555 1_555
C3 C4 1_555 1_555
Na3A O4A 1_555 1_555
Na3A O1A 1_555 1_555
O6A Na2A 1_555 1_555
Na2_2 O6A_2 1_555 1_555
Na2A O3A 1_555 1_555
C2A O3A 1_555 1_555
C2A C1A 1_555 1_555
O6A_2 C4A 1_555 1_555
O6A_2 Na2A_2 1_555 1_555
Na2A_2 O2A 1_555 1_555
Na2A_2 O6_2 1_555 1_555
C3A O4A_2 1_555 1_555
C3A O5A 1_555 1_555

#END
