
#######################################################################
#
#                 Cambridge Crystallographic Data Centre
#                                CCDC 
#
#######################################################################
#
# If this CIF has been generated from an entry in the Cambridge 
# Structural Database, then it will include bibliographic, chemical, 
# crystal, experimental, refinement or atomic coordinate data resulting 
# from the CCDC's data processing and validation procedures.
#
#######################################################################

data_XEPZUP
_symmetry_cell_setting           triclinic
_symmetry_space_group_name_H-M   'P -1'
_symmetry_Int_Tables_number      2
_space_group_name_Hall           '-P 1'
loop_
_symmetry_equiv_pos_site_id
_symmetry_equiv_pos_as_xyz
1 x,y,z
2 -x,-y,-z
_cell_length_a                   9.4522(8)
_cell_length_b                   9.6130(9)
_cell_length_c                   13.2728(12)
_cell_angle_alpha                105.3150(10)
_cell_angle_beta                 106.8240(10)
_cell_angle_gamma                118.8890(10)
_cell_volume                     885.585
loop_
_atom_site_label
_atom_site_type_symbol
_atom_site_fract_x
_atom_site_fract_y
_atom_site_fract_z
Br1 Br 0.84398(5) 0.07760(4) 0.40460(3)
Co1 Co 0.5000 0.0000 0.0000
Br2 Br 0.99169(5) 0.33886(4) 0.68844(3)
O1 O 0.7274(3) 0.0331(3) -0.01851(16)
H1 H 0.7224 -0.0600 -0.0261
H2 H 0.7213 0.0447 -0.0807
O2 O 0.9630(3) 0.2635(3) 0.21410(17)
C1 C 0.8530(4) 0.2650(4) 0.2456(2)
C2 C 0.9325(4) 0.3878(4) 0.3787(2)
O3 O 0.6822(3) 0.1814(3) 0.18285(15)
C3 C 0.4416(5) -0.4482(4) 0.1404(3)
C4 C 0.4702(5) -0.3534(5) 0.3871(3)
H3 H 0.3440 -0.4506 0.3627
H4 H 0.4631 -0.2829 0.3481
C5 C 0.9336(4) 0.3216(4) 0.4599(2)
N1 N 0.4576(4) -0.2187(3) 0.0407(2)
N2 N 0.7407(4) -0.0137(4) 0.7700(2)
C6 C 0.5094(5) -0.1430(5) 0.5690(3)
H5 H 0.4097 -0.1527 0.5182
C7 C 0.7240(5) -0.2052(5) 0.6032(3)
H6 H 0.7734 -0.2605 0.5763
C8 C 1.0001(4) 0.4327(4) 0.5796(2)
C9 C 0.6037(5) -0.2169(4) 0.0923(3)
H7 H 0.7137 -0.1368 0.0951
C10 C 0.5539(5) -0.4377(5) 0.3402(3)
H8 H 0.5601 -0.5104 0.3775
H9 H 0.6798 -0.3420 0.3629
C11 C 0.3014(5) -0.3416(5) 0.0340(3)
H10 H 0.1953 -0.3517 -0.0056
C12 C 0.5711(4) -0.2324(4) 0.5216(3)
C13 C 0.2882(5) -0.4555(5) 0.0828(3)
H11 H 0.1757 -0.5374 0.0768
C14 C 0.8031(5) -0.0970(5) 0.7239(3)
H12 H 0.9062 -0.0809 0.7764
C15 C 0.5941(5) -0.0397(5) 0.6909(3)
H13 H 0.5462 0.0157 0.7202
C16 C 0.5993(5) -0.3271(4) 0.1410(3)
H14 H 0.7051 -0.3198 0.1753
C17 C 0.4402(6) -0.5580(5) 0.2024(3)
H15 H 0.4921 -0.6174 0.1774
H16 H 0.3131 -0.6513 0.1791
Br1A Br 1.15602(5) 0.92240(4) 0.59540(3)
Co1_2 Co 1.5000 1.0000 1.0000
Br2A Br 1.00831(5) 0.66114(4) 0.31156(3)
O1A O 0.2726(3) -0.0331(3) 0.01851(16)
H1A H 0.2776 0.0600 0.0261
H2A H 0.2787 -0.0447 0.0807
O2A O 1.0370(3) 0.7365(3) 0.78590(17)
C1A C 1.1470(4) 0.7350(4) 0.7544(2)
C2A C 1.0675(4) 0.6122(4) 0.6213(2)
O3A O 1.3178(3) 0.8186(3) 0.81715(15)
O3A_2 O 0.3178(3) -0.1814(3) -0.18285(15)
C3A C 0.5584(5) 0.4482(4) -0.1404(3)
C4A C 0.5298(5) 0.3534(5) -0.3871(3)
H3A H 0.6560 0.4506 -0.3627
H4A H 0.5369 0.2829 -0.3481
C5A C 1.0664(4) 0.6784(4) 0.5401(2)
N1A N 0.5424(4) 0.2187(3) -0.0407(2)
N2A N 0.2593(4) 0.0137(4) -0.7700(2)
C6A C 0.4906(5) 0.1430(5) -0.5690(3)
H5A H 0.5903 0.1527 -0.5182
C7A C 0.2760(5) 0.2052(5) -0.6032(3)
H6A H 0.2266 0.2605 -0.5763
C8A C 0.9999(4) 0.5673(4) 0.4204(2)
C9A C 0.3963(5) 0.2169(4) -0.0923(3)
H7A H 0.2863 0.1368 -0.0951
C10A C 0.4461(5) 0.4377(5) -0.3402(3)
H8A H 0.4399 0.5104 -0.3775
H9A H 0.3202 0.3420 -0.3629
C11A C 0.6986(5) 0.3416(5) -0.0340(3)
H10A H 0.8047 0.3517 0.0056
C12A C 0.4289(4) 0.2324(4) -0.5216(3)
C13A C 0.7118(5) 0.4555(5) -0.0828(3)
H11A H 0.8243 0.5374 -0.0768
C14A C 0.1969(5) 0.0970(5) -0.7239(3)
H12A H 0.0938 0.0809 -0.7764
C15A C 0.4059(5) 0.0397(5) -0.6909(3)
H13A H 0.4538 -0.0157 -0.7202
C16A C 0.4007(5) 0.3271(4) -0.1410(3)
H14A H 0.2949 0.3198 -0.1753
C17A C 0.5598(6) 0.5580(5) -0.2024(3)
H15A H 0.5079 0.6174 -0.1774
H16A H 0.6869 0.6513 -0.1791
loop_
_geom_bond_atom_site_label_1
_geom_bond_atom_site_label_2
_geom_bond_site_symmetry_1
_geom_bond_site_symmetry_2
Br1 C5 1_555 1_555
Co1 O1 1_555 1_555
Br2 C8 1_555 1_555
O1 H1 1_555 1_555
H2 O1 1_555 1_555
O2 C1 1_555 1_555
C1 C2 1_555 1_555
C2 C5 1_555 1_555
O3 Co1 1_555 1_555
C3 C13 1_555 1_555
C4 H3 1_555 1_555
H4 C4 1_555 1_555
C5 C8 1_555 1_555
N1 Co1 1_555 1_555
N2 C14 1_555 1_555
C6 H5 1_555 1_555
C7 H6 1_555 1_555
C8 C2A 1_555 1_555
C9 N1 1_555 1_555
H7 C9 1_555 1_555
C10 C4 1_555 1_555
H8 C10 1_555 1_555
H9 C10 1_555 1_555
C11 N1 1_555 1_555
H10 C11 1_555 1_555
C12 C4 1_555 1_555
C13 C11 1_555 1_555
H11 C13 1_555 1_555
C14 C7 1_555 1_555
H12 C14 1_555 1_555
C15 N2 1_555 1_555
H13 C15 1_555 1_555
C16 C3 1_555 1_555
H14 C16 1_555 1_555
C17 C3 1_555 1_555
H15 C17 1_555 1_555
H16 C17 1_555 1_555
Br1A C5A 1_555 1_555
Co1_2 O3A 1_555 1_555
Br2A C8A 1_555 1_555
O1A Co1 1_555 1_555
H1A O1A 1_555 1_555
H2A O1A 1_555 1_555
O2A C1A 1_555 1_555
C1A C2A 1_555 1_555
C2A C5A 1_555 1_555
O3A C1A 1_555 1_555
O3A_2 Co1 1_555 1_555
C3A C13A 1_555 1_555
C4A H3A 1_555 1_555
H4A C4A 1_555 1_555
C5A C8A 1_555 1_555
N1A Co1 1_555 1_555
N2A C14A 1_555 1_555
C6A H5A 1_555 1_555
C7A H6A 1_555 1_555
C8A C2 1_555 1_555
C9A N1A 1_555 1_555
H7A C9A 1_555 1_555
C10A C4A 1_555 1_555
H8A C10A 1_555 1_555
H9A C10A 1_555 1_555
C11A N1A 1_555 1_555
H10A C11A 1_555 1_555
C12A C4A 1_555 1_555
C13A C11A 1_555 1_555
H11A C13A 1_555 1_555
C14A C7A 1_555 1_555
H12A C14A 1_555 1_555
C15A N2A 1_555 1_555
H13A C15A 1_555 1_555
C16A C3A 1_555 1_555
H14A C16A 1_555 1_555
C17A C3A 1_555 1_555
H15A C17A 1_555 1_555
H16A C17A 1_555 1_555
C1 O3 1_555 1_555
C6 C12 1_555 1_555
C6 C15 1_555 1_555
C7 C12 1_555 1_555
C9 C16 1_555 1_555
C10 C17 1_555 1_555
C6A C12A 1_555 1_555
C6A C15A 1_555 1_555
C7A C12A 1_555 1_555
C9A C16A 1_555 1_555
C10A C17A 1_555 1_555

#END
