
#######################################################################
#
#                 Cambridge Crystallographic Data Centre
#                                CCDC 
#
#######################################################################
#
# If this CIF has been generated from an entry in the Cambridge 
# Structural Database, then it will include bibliographic, chemical, 
# crystal, experimental, refinement or atomic coordinate data resulting 
# from the CCDC's data processing and validation procedures.
#
#######################################################################

data_XEPZOJ
_symmetry_cell_setting           triclinic
_symmetry_space_group_name_H-M   'P -1'
_symmetry_Int_Tables_number      2
_space_group_name_Hall           '-P 1'
loop_
_symmetry_equiv_pos_site_id
_symmetry_equiv_pos_as_xyz
1 x,y,z
2 -x,-y,-z
_cell_length_a                   9.4671(11)
_cell_length_b                   9.6578(14)
_cell_length_c                   11.5218(14)
_cell_angle_alpha                77.576(2)
_cell_angle_beta                 84.697(2)
_cell_angle_gamma                60.649(2)
_cell_volume                     896.618
loop_
_atom_site_label
_atom_site_type_symbol
_atom_site_fract_x
_atom_site_fract_y
_atom_site_fract_z
Br1 Br 0.26059(4) 0.67404(4) 0.40144(3)
Br2 Br 0.14804(4) 0.64975(4) 0.68372(3)
Mn1 Mn 0.0000 1.0000 0.0000
O1 O 0.0020(3) 1.0003(3) 0.18593(16)
O2 O -0.19848(10) 0.94170(11) 0.01704(7)
H1 H -0.1597 0.8410 0.0182
H2 H -0.2484 0.9643 0.0815
C1 C 0.08843(9) 1.02091(10) 0.24818(8)
C2 C 0.11094(9) 0.86206(10) 0.45891(7)
C3 C 0.06487(9) 0.85279(10) 0.57737(7)
C4 C 0.32978(9) 0.68322(9) 0.09036(8)
H3 H 0.3595 0.7621 0.0894
C5 C 0.04491(9) 1.01002(10) 0.38007(8)
N1 N 0.18826(10) 0.72809(11) 0.04139(8)
O3 O 0.20090(9) 1.05144(10) 0.21635(8)
C6 C 0.33218(9) 0.25459(8) 0.39236(7)
H4 H 0.2545 0.3625 0.3529
H5 H 0.3057 0.1791 0.3692
N2 N 0.25978(9) 0.21714(9) 0.77140(6)
C7 C 0.39882(10) 0.40442(10) 0.14579(8)
C8 C 0.30917(9) 0.24449(8) 0.52463(6)
C9 C 0.43523(9) 0.19243(8) 0.60494(6)
H6 H 0.5396 0.1648 0.5780
C10 C 0.15876(9) 0.28472(8) 0.57293(6)
H7 H 0.0698 0.3228 0.5235
C11 C 0.49867(9) 0.21999(8) 0.34595(7)
H8 H 0.5778 0.1117 0.3836
H9 H 0.5264 0.2959 0.3669
C12 C 0.43478(9) 0.52547(9) 0.14257(8)
H10 H 0.5318 0.5014 0.1761
C13 C 0.15498(10) 0.60949(12) 0.04066(8)
H11 H 0.0596 0.6361 0.0032
C14 C 0.40313(9) 0.18250(9) 0.72417(6)
H12 H 0.4889 0.1488 0.7757
C15 C 0.50695(9) 0.23374(10) 0.20979(8)
H13 H 0.6179 0.1999 0.1848
H14 H 0.4743 0.1616 0.1884
C16 C 0.13927(9) 0.26891(9) 0.69428(6)
H15 H 0.0362 0.2959 0.7241
C17 C 0.25315(10) 0.44972(11) 0.09202(8)
H16 H 0.2220 0.3725 0.0907
Br1A Br -0.26059(4) 1.32596(4) 0.59856(3)
Br2A Br -0.14804(4) 1.35025(4) 0.31628(3)
Mn1_2 Mn 0.0000 1.0000 1.0000
O1A O -0.0020(3) 0.9997(3) 0.81407(16)
O1A_2 O -0.0020(3) 0.9997(3) -0.18593(16)
O2A O 0.19848(10) 1.05830(11) -0.01704(7)
H1A H 0.1597 1.1590 -0.0182
H2A H 0.2484 1.0357 -0.0815
C1A C -0.08843(9) 0.97909(10) 0.75182(8)
C2A C -0.11094(9) 1.13794(10) 0.54109(7)
C3A C -0.06487(9) 1.14721(10) 0.42263(7)
C4A C -0.32978(9) 1.31678(9) -0.09036(8)
H3A H -0.3595 1.2379 -0.0894
C5A C -0.04491(9) 0.98998(10) 0.61993(8)
N1A N -0.18826(10) 1.27191(11) -0.04139(8)
O3A O -0.20090(9) 0.94856(10) 0.78365(8)
C6A C -0.33218(9) 1.74541(8) -0.39236(7)
H4A H -0.2545 1.6375 -0.3529
H5A H -0.3057 1.8209 -0.3692
N2A N -0.25978(9) 1.78286(9) -0.77140(6)
C7A C -0.39882(10) 1.59558(10) -0.14579(8)
C8A C -0.30917(9) 1.75551(8) -0.52463(6)
C9A C -0.43523(9) 1.80757(8) -0.60494(6)
H6A H -0.5396 1.8352 -0.5780
C10A C -0.15876(9) 1.71528(8) -0.57293(6)
H7A H -0.0698 1.6772 -0.5235
C11A C -0.49867(9) 1.78001(8) -0.34595(7)
H8A H -0.5778 1.8883 -0.3836
H9A H -0.5264 1.7041 -0.3669
C12A C -0.43478(9) 1.47453(9) -0.14257(8)
H10A H -0.5318 1.4986 -0.1761
C13A C -0.15498(10) 1.39051(12) -0.04066(8)
H11A H -0.0596 1.3639 -0.0032
C14A C -0.40313(9) 1.81750(9) -0.72417(6)
H12A H -0.4889 1.8512 -0.7757
C15A C -0.50695(9) 1.76626(10) -0.20979(8)
H13A H -0.6179 1.8001 -0.1848
H14A H -0.4743 1.8384 -0.1884
C16A C -0.13927(9) 1.73109(9) -0.69428(6)
H15A H -0.0362 1.7041 -0.7241
C17A C -0.25315(10) 1.55028(11) -0.09202(8)
H16A H -0.2220 1.6275 -0.0907
loop_
_geom_bond_atom_site_label_1
_geom_bond_atom_site_label_2
_geom_bond_site_symmetry_1
_geom_bond_site_symmetry_2
Br1 C2 1_555 1_555
Br2 C3 1_555 1_555
Mn1 O1 1_555 1_555
O1 C1 1_555 1_555
O2 Mn1 1_555 1_555
H1 O2 1_555 1_555
H2 O2 1_555 1_555
C1 C5 1_555 1_555
C2 C3 1_555 1_555
C3 C5A 1_555 1_555
C4 H3 1_555 1_555
C5 C2 1_555 1_555
N1 Mn1 1_555 1_555
O3 C1 1_555 1_555
C6 H4 1_555 1_555
H5 C6 1_555 1_555
N2 C14 1_555 1_555
C7 C12 1_555 1_555
C8 C6 1_555 1_555
C9 C8 1_555 1_555
H6 C9 1_555 1_555
C10 C8 1_555 1_555
H7 C10 1_555 1_555
C11 C6 1_555 1_555
H8 C11 1_555 1_555
H9 C11 1_555 1_555
C12 C4 1_555 1_555
H10 C12 1_555 1_555
C13 N1 1_555 1_555
H11 C13 1_555 1_555
C14 C9 1_555 1_555
H12 C14 1_555 1_555
C15 C7 1_555 1_555
H13 C15 1_555 1_555
H14 C15 1_555 1_555
C16 N2 1_555 1_555
H15 C16 1_555 1_555
C17 C7 1_555 1_555
H16 C17 1_555 1_555
Br1A C2A 1_555 1_555
Br2A C3A 1_555 1_555
Mn1_2 O1A 1_555 1_555
O1A C1A 1_555 1_555
O1A_2 Mn1 1_555 1_555
O2A Mn1 1_555 1_555
H1A O2A 1_555 1_555
H2A O2A 1_555 1_555
C1A C5A 1_555 1_555
C2A C3A 1_555 1_555
C3A C5 1_555 1_555
C4A H3A 1_555 1_555
C5A C2A 1_555 1_555
N1A Mn1 1_555 1_555
O3A C1A 1_555 1_555
C6A H4A 1_555 1_555
H5A C6A 1_555 1_555
N2A C14A 1_555 1_555
C7A C12A 1_555 1_555
C8A C6A 1_555 1_555
C9A C8A 1_555 1_555
H6A C9A 1_555 1_555
C10A C8A 1_555 1_555
H7A C10A 1_555 1_555
C11A C6A 1_555 1_555
H8A C11A 1_555 1_555
H9A C11A 1_555 1_555
C12A C4A 1_555 1_555
H10A C12A 1_555 1_555
C13A N1A 1_555 1_555
H11A C13A 1_555 1_555
C14A C9A 1_555 1_555
H12A C14A 1_555 1_555
C15A C7A 1_555 1_555
H13A C15A 1_555 1_555
H14A C15A 1_555 1_555
C16A N2A 1_555 1_555
H15A C16A 1_555 1_555
C17A C7A 1_555 1_555
H16A C17A 1_555 1_555
C4 N1 1_555 1_555
C10 C16 1_555 1_555
C11 C15 1_555 1_555
C13 C17 1_555 1_555
C4A N1A 1_555 1_555
C10A C16A 1_555 1_555
C11A C15A 1_555 1_555
C13A C17A 1_555 1_555

#END
