
#######################################################################
#
#                 Cambridge Crystallographic Data Centre
#                                CCDC 
#
#######################################################################
#
# If this CIF has been generated from an entry in the Cambridge 
# Structural Database, then it will include bibliographic, chemical, 
# crystal, experimental, refinement or atomic coordinate data resulting 
# from the CCDC's data processing and validation procedures.
#
#######################################################################

data_XEQBAY
_symmetry_cell_setting           trigonal
_symmetry_space_group_name_H-M   'P -3'
_symmetry_Int_Tables_number      147
_space_group_name_Hall           '-P 3'
loop_
_symmetry_equiv_pos_site_id
_symmetry_equiv_pos_as_xyz
1 x,y,z
2 -y,x-y,z
3 -x+y,-x,z
4 -x,-y,-z
5 y,-x+y,-z
6 x-y,x,-z
_cell_length_a                   13.969(4)
_cell_length_b                   13.969(4)
_cell_length_c                   8.096(5)
_cell_angle_alpha                90
_cell_angle_beta                 90
_cell_angle_gamma                120
_cell_volume                     1368.14
loop_
_atom_site_label
_atom_site_type_symbol
_atom_site_fract_x
_atom_site_fract_y
_atom_site_fract_z
C1 C -0.1721(16) -0.0471(16) 0.844(2)
H1 H -0.450(5) -0.501(5) 1.189(7)
H2 H -0.472(5) -0.272(5) 1.134(8)
H3 H -0.561(5) -0.413(5) 0.472(7)
Co1 Co -0.23349(4) -0.21991(4) 0.60128(6)
O1 O -0.1846(2) -0.0499(2) 0.6160(3)
O2 O -0.3753(2) -0.2532(2) 0.4827(4)
O3 O -0.3288(3) -0.2531(3) 0.8224(4)
O4 O -0.0874(2) 0.1045(2) 0.7650(3)
O5 O -0.3851(2) -0.1017(2) 0.4230(4)
C2 C -0.4266(3) -0.2023(3) 0.4586(4)
C3 C -0.5513(3) -0.2700(3) 0.4691(4)
C4 C -0.6035(3) -0.3854(3) 0.4688(4)
C5 C -0.4900(5) -0.3367(5) 1.0636(7)
N1 N -0.3970(3) -0.3568(3) 1.0533(5)
C6 C -0.3815(5) -0.4179(5) 1.1884(6)
C7 C -0.1449(3) 0.0035(3) 0.7490(4)
C8 C -0.3244(4) -0.3125(4) 0.9318(5)
C1E C -0.1250(23) -0.1721(16) 0.156(2)
C1A C 0.0471(16) -0.1250(23) 0.844(2)
H1E H 0.051(7) -0.450(5) -0.189(7)
H1A H 0.501(5) 0.051(7) 1.189(7)
H2E H -0.200(7) -0.472(5) -0.134(8)
H2A H 0.272(5) -0.200(7) 1.134(8)
H3A H -0.587(5) -0.148(7) 0.472(7)
H3B H -0.852(7) -0.439(5) 0.472(7)
Co1E Co -0.01358(6) -0.23349(4) 0.39872(6)
Co1A Co 0.21991(4) -0.01358(6) 0.60128(6)
Co1D Co -0.21991(4) 0.01358(6) 0.39872(6)
Co1B Co 0.01358(6) 0.23349(4) 0.60128(6)
Co1A_2 Co -0.78009(4) -0.01358(6) 0.60128(6)
Co1E_2 Co -1.01358(6) -0.23349(4) 0.39872(6)
Co1B_2 Co -0.98642(6) -0.76651(4) 0.60128(6)
Co1C Co -0.76651(4) -0.78009(4) 0.39872(6)
O1E O -0.1347(3) -0.1846(2) 0.3840(3)
O1A O 0.0499(2) -0.1347(3) 0.6160(3)
O1C O 0.1846(2) 0.0499(2) 0.3840(3)
O2A O -0.7468(2) -0.1221(3) 0.4827(4)
O2B O -0.8779(3) -0.6247(2) 0.4827(4)
O2E O -0.1221(3) -0.3753(2) 0.5173(4)
O2A_2 O 0.2532(2) -0.1221(3) 0.4827(4)
O3E O -0.0757(4) -0.3288(3) 0.1776(4)
O3A O 0.2531(3) -0.0757(4) 0.8224(4)
O4E O -0.1919(3) -0.0874(2) 0.2350(3)
O4A O -0.1045(2) -0.1919(3) 0.7650(3)
O4C O 0.0874(2) -0.1045(2) 0.2350(3)
O4B O 0.1919(3) 0.0874(2) 0.7650(3)
O5A O -0.8983(2) -0.2834(3) 0.4230(4)
O5B O -0.7166(3) -0.6149(2) 0.4230(4)
O5E O -0.2834(3) -0.3851(2) 0.5770(4)
O5A_2 O 0.1017(2) -0.2834(3) 0.4230(4)
O5C O 0.3851(2) 0.1017(2) 0.5770(4)
C2A C -0.7977(3) -0.2243(4) 0.4586(4)
C2B C -0.7757(4) -0.5734(3) 0.4586(4)
C3A C -0.7300(3) -0.2813(4) 0.4691(4)
C3B C -0.7187(4) -0.4487(3) 0.4691(4)
C4A C -0.6146(3) -0.2181(4) 0.4688(4)
C4B C -0.7819(4) -0.3965(3) 0.4688(4)
C5E C -0.1533(7) -0.4900(5) -0.0636(7)
C5A C 0.3367(5) -0.1533(7) 1.0636(7)
N1E N -0.0402(4) -0.3970(3) -0.0533(5)
N1A N 0.3568(3) -0.0402(4) 1.0533(5)
C6E C 0.0364(7) -0.3815(5) -0.1884(6)
C6A C 0.4179(5) 0.0364(7) 1.1884(6)
C7E C -0.1484(4) -0.1449(3) 0.2510(4)
C7A C -0.0035(3) -0.1484(4) 0.7490(4)
C8E C -0.0119(6) -0.3244(4) 0.0682(5)
C8A C 0.3125(4) -0.0119(6) 0.9318(5)
loop_
_geom_bond_atom_site_label_1
_geom_bond_atom_site_label_2
_geom_bond_site_symmetry_1
_geom_bond_site_symmetry_2
C1 C7 1_555 1_555
H1 C6 1_555 1_555
H2 C5 1_555 1_555
H3 C4 1_555 1_555
Co1 O1 1_555 1_555
O1 C7 1_555 1_555
O2 Co1 1_555 1_555
O3 Co1 1_555 1_555
O4 C7 1_555 1_555
O5 C2 1_555 1_555
C2 O2 1_555 1_555
C3 C2 1_555 1_555
C4 C3 1_555 1_555
C5 N1 1_555 1_555
N1 C6 1_555 1_555
C8 O3 1_555 1_555
C1E C7E 1_555 1_555
C1A C7A 1_555 1_555
H1E C6E 1_555 1_555
H1A C6A 1_555 1_555
H2E C5E 1_555 1_555
H2A C5A 1_555 1_555
H3A C4A 1_555 1_555
H3B C4B 1_555 1_555
Co1E O1E 1_555 1_555
Co1A O1A 1_555 1_555
Co1D O1 1_555 1_555
Co1B O4 1_555 1_555
Co1A_2 O2A 1_555 1_555
Co1E_2 O5A 1_555 1_555
Co1B_2 O2B 1_555 1_555
Co1C O5B 1_555 1_555
O1E Co1 1_555 1_555
O1A Co1E 1_555 1_555
O1C Co1A 1_555 1_555
O2A C2A 1_555 1_555
O2B C2B 1_555 1_555
O2E Co1E 1_555 1_555
O2A_2 Co1A 1_555 1_555
O3E Co1E 1_555 1_555
O3A Co1A 1_555 1_555
O4E Co1D 1_555 1_555
O4A Co1 1_555 1_555
O4C Co1E 1_555 1_555
O4B Co1A 1_555 1_555
O5A C2A 1_555 1_555
O5B C2B 1_555 1_555
O5E Co1 1_555 1_555
O5A_2 Co1E 1_555 1_555
O5C Co1A 1_555 1_555
C2A C3A 1_555 1_555
C2B C3B 1_555 1_555
C3A C4A 1_555 1_555
C3B C4 1_555 1_555
C4A C3 1_555 1_555
C4B C3A 1_555 1_555
C5E N1E 1_555 1_555
C5A N1A 1_555 1_555
N1E C6E 1_555 1_555
N1A C6A 1_555 1_555
C7E O1E 1_555 1_555
C7A O1A 1_555 1_555
C8E O3E 1_555 1_555
C8A O3A 1_555 1_555
O5 Co1D 1_555 1_555
N1 C8 1_555 1_555
O4E C7E 1_555 1_555
O4A C7A 1_555 1_555
C3B C4B 1_555 1_555
N1E C8E 1_555 1_555
N1A C8A 1_555 1_555

#END
