
#######################################################################
#
#                 Cambridge Crystallographic Data Centre
#                                CCDC 
#
#######################################################################
#
# If this CIF has been generated from an entry in the Cambridge 
# Structural Database, then it will include bibliographic, chemical, 
# crystal, experimental, refinement or atomic coordinate data resulting 
# from the CCDC's data processing and validation procedures.
#
#######################################################################

data_XEQDED
_symmetry_cell_setting           trigonal
_symmetry_space_group_name_H-M   'P 3 c 1'
_symmetry_Int_Tables_number      158
_space_group_name_Hall           'P 3 -2"c'
loop_
_symmetry_equiv_pos_site_id
_symmetry_equiv_pos_as_xyz
1 x,y,z
2 -y,x-y,z
3 -x+y,-x,z
4 -y,-x,1/2+z
5 x,x-y,1/2+z
6 -x+y,y,1/2+z
_cell_length_a                   13.749(2)
_cell_length_b                   13.749(2)
_cell_length_c                   16.889(3)
_cell_angle_alpha                90
_cell_angle_beta                 90
_cell_angle_gamma                120
_cell_volume                     2764.88
loop_
_atom_site_label
_atom_site_type_symbol
_atom_site_fract_x
_atom_site_fract_y
_atom_site_fract_z
Cd1 Cd 0.62682(3) 0.51323(3) 0.540198(17)
O1 O 0.5686(3) 0.3240(3) 0.5216(2)
N1 N 0.7376(5) 0.7224(4) 0.5074(3)
N2 N 0.7588(5) 0.5928(4) 0.6369(3)
H1 H 0.7244 0.5959 0.6828
H2 H 0.7891 0.5474 0.6464
N3 N 0.6245(5) 0.5236(5) 0.4059(3)
H3 H 0.6299 0.4651 0.3843
H4 H 0.5573 0.5166 0.3900
N4 N 0.5680(5) 0.8483(4) 0.5844(4)
N5 N 0.5274(4) 0.9837(4) 0.5860(3)
C1 C 0.8518(6) 0.7395(7) 0.5371(5)
H5 H 0.8744 0.6957 0.5028
H6 H 0.9093 0.8198 0.5313
C2 C 0.8506(6) 0.7066(6) 0.6179(5)
H7 H 0.8442 0.7610 0.6528
H8 H 0.9231 0.7108 0.6297
C3 C 0.7470(7) 0.7272(6) 0.4200(4)
H9 H 0.7023 0.7602 0.3998
H10 H 0.8264 0.7799 0.4064
C4 C 0.7130(11) 0.6255(9) 0.3778(4)
H11 H 0.6930 0.6363 0.3235
H12 H 0.7797 0.6163 0.3731
C5 C 0.7122(8) 0.8039(6) 0.5390(6)
H13 H 0.7517 0.8311 0.5902
H14 H 0.7420 0.8688 0.5024
C6 C 0.5954(7) 0.7633(6) 0.5511(7)
H15 H 0.5656 0.6983 0.5876
H16 H 0.5560 0.7361 0.4999
C7 C 0.5452(6) 0.9161(5) 0.5393(4)
H17 H 0.5425 0.9155 0.4830
C8 C 0.5394(6) 0.9581(6) 0.6620(4)
H18 H 0.5304 0.9922 0.7082
C9 C 0.5662(7) 0.8761(7) 0.6608(5)
H19 H 0.5812 0.8439 0.7056
C10 C 0.6667 0.3333 0.5194(4)
Cd1B Cd 0.88641(4) 0.37318(3) 0.540198(17)
Cd1A Cd 0.48677(3) 0.11359(4) 0.540198(17)
Cd1A_2 Cd 0.48677(3) 1.11359(4) 0.540198(17)
Cd1B_2 Cd -0.11359(4) 0.37318(3) 0.540198(17)
Cd1_2 Cd 1.62682(3) 0.51323(3) 0.540198(17)
O1B O 0.7554(4) 0.4314(3) 0.5216(2)
O1A O 0.6760(3) 0.2446(4) 0.5216(2)
N1B N -0.0152(6) 0.2624(5) 0.5074(3)
N1B_2 N 0.9848(6) 0.2624(5) 0.5074(3)
N1A N 0.2776(4) 0.0152(6) 0.5074(3)
N2B N -0.1660(6) 0.2412(5) 0.6369(3)
N2B_2 N 0.8340(6) 0.2412(5) 0.6369(3)
N2A N 0.4072(4) 0.1660(6) 0.6369(3)
H1B H -0.1285 0.2756 0.6828
H1B_2 H 0.8715 0.2756 0.6828
H1A H 0.4041 0.1285 0.6828
H2B H -0.2417 0.2109 0.6464
H2B_2 H 0.7583 0.2109 0.6464
H2A H 0.4526 0.2417 0.6464
N3B N -0.1009(7) 0.3755(5) 0.4059(3)
N3B_2 N 0.8991(7) 0.3755(5) 0.4059(3)
N3A N 0.4764(5) 0.1009(7) 0.4059(3)
H3B H -0.1648 0.3701 0.3843
H3B_2 H 0.8352 0.3701 0.3843
H3A H 0.5349 0.1648 0.3843
H4B H -0.0407 0.4427 0.3900
H4B_2 H 0.9593 0.4427 0.3900
H4A H 0.4834 0.0407 0.3900
N4B N 0.2803(6) 0.4320(5) 0.5844(4)
N4B_2 N 1.2803(6) 0.4320(5) 0.5844(4)
N5B N 0.4563(6) 0.4726(4) 0.5860(3)
N5B_2 N 1.4563(6) 0.4726(4) 0.5860(3)
N5A N 1.0163(4) 0.5437(6) 0.5860(3)
N5_2 N 0.5274(4) -0.0163(4) 0.5860(3)
C1B C -0.1123(9) 0.1482(6) 0.5371(5)
C1B_2 C 0.8877(9) 0.1482(6) 0.5371(5)
H5B H -0.1787 0.1256 0.5028
H5B_2 H 0.8213 0.1256 0.5028
H6B H -0.0895 0.0907 0.5313
H6B_2 H 0.9105 0.0907 0.5313
C2B C -0.1440(8) 0.1494(6) 0.6179(5)
C2B_2 C 0.8560(8) 0.1494(6) 0.6179(5)
H7B H -0.0832 0.1558 0.6528
H7B_2 H 0.9168 0.1558 0.6528
H8B H -0.2123 0.0769 0.6297
H8B_2 H 0.7877 0.0769 0.6297
C3B C -0.0198(9) 0.2530(7) 0.4200(4)
C3B_2 C 0.9802(9) 0.2530(7) 0.4200(4)
H9B H 0.0579 0.2977 0.3998
H9B_2 H 1.0579 0.2977 0.3998
H10B H -0.0465 0.1736 0.4064
H10B_2 H 0.9535 0.1736 0.4064
C4B C -0.0875(14) 0.2870(11) 0.3778(4)
C4B_2 C 0.9125(14) 0.2870(11) 0.3778(4)
H11B H -0.0567 0.3070 0.3235
H11B_2 H 0.9433 0.3070 0.3235
H12B H -0.1634 0.2203 0.3731
H12B_2 H 0.8366 0.2203 0.3731
C5B C 0.0917(10) 0.2878(8) 0.5390(6)
C5B_2 C 1.0917(10) 0.2878(8) 0.5390(6)
H13B H 0.0794 0.2483 0.5902
H13B_2 H 1.0794 0.2483 0.5902
H14B H 0.1268 0.2580 0.5024
H14B_2 H 1.1268 0.2580 0.5024
C6B C 0.1679(9) 0.4046(7) 0.5511(7)
C6B_2 C 1.1679(9) 0.4046(7) 0.5511(7)
H15B H 0.1327 0.4344 0.5876
H15B_2 H 1.1327 0.4344 0.5876
H16B H 0.1801 0.4440 0.4999
H16B_2 H 1.1801 0.4440 0.4999
C7B C 0.3709(8) 0.4548(6) 0.5393(4)
C7B_2 C 1.3709(8) 0.4548(6) 0.5393(4)
H17B H 0.3730 0.4575 0.4830
H17B_2 H 1.3730 0.4575 0.4830
C8B C 0.4187(8) 0.4606(6) 0.6620(4)
C8B_2 C 1.4187(8) 0.4606(6) 0.6620(4)
H18B H 0.4618 0.4696 0.7082
H18B_2 H 1.4618 0.4696 0.7082
C9B C 0.3099(10) 0.4338(7) 0.6608(5)
C9B_2 C 1.3099(10) 0.4338(7) 0.6608(5)
H19B H 0.2627 0.4188 0.7056
H19B_2 H 1.2627 0.4188 0.7056
Cl1 Cl 0.6667 0.3333 0.25162(12)
O2 O 0.5942(4) 0.2205(3) 0.2236(3)
O3 O 0.6667 0.3333 0.3371(4)
O2A O 0.7795(3) 0.3737(5) 0.2236(3)
O2B O 0.6263(5) 0.4058(4) 0.2236(3)
Cl2 Cl 0.29447(18) 0.33685(17) 0.31965(10)
O4 O 0.2412(12) 0.2634(12) 0.3875(7)
O5 O 0.2357(18) 0.2941(17) 0.2502(8)
O6 O 0.362(2) 0.4496(15) 0.3496(12)
O7 O 0.375(3) 0.292(3) 0.3164(17)
N6 N 0.0000 0.0000 0.1445(11)
C11 C 0.0000 0.0000 0.2115(13)
C12 C 0.0000 0.0000 0.2964(15)
H20 H -0.0776 -0.0368 0.3158
H21 H 0.0407 0.0776 0.3158
H22 H 0.0368 -0.0407 0.3158
N7 N 0.3333 0.6667 0.4602(11)
C13 C 0.3333 0.6667 0.3873(16)
C14 C 0.3333 0.6667 0.3007(13)
H23 H 0.3150 0.7228 0.2813
H24 H 0.2772 0.5922 0.2813
H25 H 0.4078 0.6850 0.2813
O8? O 0.216(2) 0.236(2) 0.3505(16)
O9? O 0.3154(19) 0.368(2) 0.2338(10)
O10? O 0.2570(15) 0.4189(12) 0.3386(7)
O11? O 0.4047(14) 0.372(2) 0.3190(14)
loop_
_geom_bond_atom_site_label_1
_geom_bond_atom_site_label_2
_geom_bond_site_symmetry_1
_geom_bond_site_symmetry_2
Cd1 O1 1_555 1_555
Cl1 O2 1_555 1_555
Cl2 O4 1_555 1_555
O1 C10 1_555 1_555
O3 Cl1 1_555 1_555
O5 Cl2 1_555 1_555
O6 Cl2 1_555 1_555
O7 Cl2 1_555 1_555
N1 Cd1 1_555 1_555
N2 Cd1 1_555 1_555
H1 N2 1_555 1_555
H2 N2 1_555 1_555
N3 Cd1 1_555 1_555
H3 N3 1_555 1_555
H4 N3 1_555 1_555
N4 C6 1_555 1_555
N5 C7 1_555 1_555
N6 C11 1_555 1_555
N7 C13 1_555 1_555
C1 N1 1_555 1_555
H5 C1 1_555 1_555
H6 C1 1_555 1_555
C2 N2 1_555 1_555
H7 C2 1_555 1_555
H8 C2 1_555 1_555
C3 N1 1_555 1_555
H9 C3 1_555 1_555
H10 C3 1_555 1_555
C4 N3 1_555 1_555
H11 C4 1_555 1_555
H12 C4 1_555 1_555
C5 N1 1_555 1_555
H13 C5 1_555 1_555
H14 C5 1_555 1_555
C6 C5 1_555 1_555
H15 C6 1_555 1_555
H16 C6 1_555 1_555
C7 N4 1_555 1_555
H17 C7 1_555 1_555
C8 N5 1_555 1_555
H18 C8 1_555 1_555
C9 N4 1_555 1_555
H19 C9 1_555 1_555
C10 O1B 1_555 1_555
C11 C12 1_555 1_555
C12 H20 1_555 1_555
H21 C12 1_555 1_555
H22 C12 1_555 1_555
C13 C14 1_555 1_555
C14 H23 1_555 1_555
H24 C14 1_555 1_555
H25 C14 1_555 1_555
Cd1B O1B 1_555 1_555
Cd1A O1 1_555 1_555
Cd1A_2 N5 1_555 1_555
Cd1B_2 N1B 1_555 1_555
Cd1_2 N5B_2 1_555 1_555
O1B Cd1 1_555 1_555
O1A C10 1_555 1_555
O2A Cl1 1_555 1_555
O2B Cl1 1_555 1_555
N1B C1B 1_555 1_555
N1B_2 Cd1B 1_555 1_555
N1A Cd1A 1_555 1_555
N2B Cd1B_2 1_555 1_555
N2B_2 Cd1B 1_555 1_555
N2A Cd1A 1_555 1_555
H1B N2B 1_555 1_555
H1B_2 N2B_2 1_555 1_555
H1A N2A 1_555 1_555
H2B N2B 1_555 1_555
H2B_2 N2B_2 1_555 1_555
H2A N2A 1_555 1_555
N3B Cd1B_2 1_555 1_555
N3B_2 Cd1B 1_555 1_555
N3A Cd1A 1_555 1_555
H3B N3B 1_555 1_555
H3B_2 N3B_2 1_555 1_555
H3A N3A 1_555 1_555
H4B N3B 1_555 1_555
H4B_2 N3B_2 1_555 1_555
H4A N3A 1_555 1_555
N4B C6B 1_555 1_555
N4B_2 C6B_2 1_555 1_555
N5B Cd1 1_555 1_555
N5B_2 C7B_2 1_555 1_555
N5A Cd1B 1_555 1_555
N5_2 Cd1A 1_555 1_555
C1B H5B 1_555 1_555
C1B_2 N1B_2 1_555 1_555
H5B_2 C1B_2 1_555 1_555
H6B C1B 1_555 1_555
H6B_2 C1B_2 1_555 1_555
C2B N2B 1_555 1_555
C2B_2 N2B_2 1_555 1_555
H7B C2B 1_555 1_555
H7B_2 C2B_2 1_555 1_555
H8B C2B 1_555 1_555
H8B_2 C2B_2 1_555 1_555
C3B N1B 1_555 1_555
C3B_2 N1B_2 1_555 1_555
H9B C3B 1_555 1_555
H9B_2 C3B_2 1_555 1_555
H10B C3B 1_555 1_555
H10B_2 C3B_2 1_555 1_555
C4B N3B 1_555 1_555
C4B_2 N3B_2 1_555 1_555
H11B C4B 1_555 1_555
H11B_2 C4B_2 1_555 1_555
H12B C4B 1_555 1_555
H12B_2 C4B_2 1_555 1_555
C5B N1B 1_555 1_555
C5B_2 N1B_2 1_555 1_555
H13B C5B 1_555 1_555
H13B_2 C5B_2 1_555 1_555
H14B C5B 1_555 1_555
H14B_2 C5B_2 1_555 1_555
C6B C5B 1_555 1_555
C6B_2 C5B_2 1_555 1_555
H15B C6B 1_555 1_555
H15B_2 C6B_2 1_555 1_555
H16B C6B 1_555 1_555
H16B_2 C6B_2 1_555 1_555
C7B N4B 1_555 1_555
C7B_2 N4B_2 1_555 1_555
H17B C7B 1_555 1_555
H17B_2 C7B_2 1_555 1_555
C8B N5B 1_555 1_555
C8B_2 N5B_2 1_555 1_555
H18B C8B 1_555 1_555
H18B_2 C8B_2 1_555 1_555
C9B N4B 1_555 1_555
C9B_2 N4B_2 1_555 1_555
H19B C9B 1_555 1_555
H19B_2 C9B_2 1_555 1_555
C1 C2 1_555 1_555
C3 C4 1_555 1_555
C8 C9 1_555 1_555
Cd1B O1A 1_555 1_555
Cd1A O1A 1_555 1_555
N5B C7B 1_555 1_555
C1B C2B 1_555 1_555
C1B_2 C2B_2 1_555 1_555
C3B C4B 1_555 1_555
C3B_2 C4B_2 1_555 1_555
C8B C9B 1_555 1_555
C8B_2 C9B_2 1_555 1_555

#END
