
#######################################################################
#
#                 Cambridge Crystallographic Data Centre
#                                CCDC 
#
#######################################################################
#
# If this CIF has been generated from an entry in the Cambridge 
# Structural Database, then it will include bibliographic, chemical, 
# crystal, experimental, refinement or atomic coordinate data resulting 
# from the CCDC's data processing and validation procedures.
#
#######################################################################

data_XEQDON
_symmetry_cell_setting           monoclinic
_symmetry_space_group_name_H-M   'P 21/c'
_symmetry_Int_Tables_number      14
_space_group_name_Hall           '-P 2ybc'
loop_
_symmetry_equiv_pos_site_id
_symmetry_equiv_pos_as_xyz
1 x,y,z
2 -x,1/2+y,1/2-z
3 -x,-y,-z
4 x,1/2-y,1/2+z
_cell_length_a                   10.607(6)
_cell_length_b                   9.852(6)
_cell_length_c                   16.643(10)
_cell_angle_alpha                90
_cell_angle_beta                 90.37(5)
_cell_angle_gamma                90
_cell_volume                     1739.16
loop_
_atom_site_label
_atom_site_type_symbol
_atom_site_fract_x
_atom_site_fract_y
_atom_site_fract_z
Cu1 Cu 0.22078(2) 0.33971(2) 0.619504(13)
O1 O 0.37955(17) 0.43005(19) 0.53713(11)
H1 H 0.364(3) 0.502(3) 0.5170(16)
H2 H 0.418(3) 0.383(3) 0.5059(17)
N1 N 0.26979(15) 0.43471(16) 0.72231(9)
N2 N 0.34309(17) 0.19409(17) 0.65711(11)
H3 H 0.2998 0.1148 0.6664
H4 H 0.4012 0.1777 0.6175
N3 N 0.11966(16) 0.51053(18) 0.59699(10)
H5 H 0.1446 0.5475 0.5489
H6 H 0.0354 0.4891 0.5929
N4 N 0.13289(17) 0.40275(17) 0.92817(9)
N5 N 0.14255(16) 0.27021(18) 1.03399(10)
C1 C 0.40075(19) 0.3895(2) 0.74162(13)
H7 H 0.4227 0.4153 0.7975
H8 H 0.4611 0.4346 0.7051
C2 C 0.4097(2) 0.2367(2) 0.73199(14)
H9 H 0.4994 0.2091 0.7294
H10 H 0.3712 0.1914 0.7789
C3 C 0.26328(19) 0.58214(19) 0.70362(12)
H11 H 0.3337 0.6078 0.6680
H12 H 0.2705 0.6357 0.7538
C4 C 0.1388(2) 0.6115(2) 0.66265(12)
H13 H 0.0694 0.6049 0.7019
H14 H 0.1392 0.7045 0.6402
C5 C 0.17702(19) 0.3924(2) 0.78440(11)
H15 H 0.1954 0.2976 0.8004
H16 H 0.0915 0.3940 0.7602
C6 C 0.1773(2) 0.4815(2) 0.85970(11)
H17 H 0.1217 0.5610 0.8511
H18 H 0.2638 0.5150 0.8706
C7 C 0.2086(2) 0.3410(2) 0.98123(12)
H19 H 0.2980 0.3471 0.9811
C8 C 0.0170(2) 0.2875(2) 1.01241(12)
H20 H -0.0530 0.2484 1.0392
C9 C 0.0105(2) 0.3692(2) 0.94686(12)
H21 H -0.0637 0.3976 0.9194
Cu1C Cu 0.22078(2) 0.16029(2) 1.119504(13)
N5C N 0.14255(16) 0.22979(18) 0.53399(10)
Cl1 Cl 0.38407(5) 0.81341(5) 0.52428(3)
O2 O 0.31961(18) 0.90906(18) 0.57315(12)
O3 O 0.48986(16) 0.75699(19) 0.56752(11)
O4 O 0.29910(16) 0.70510(18) 0.50310(11)
O5 O 0.42909(17) 0.87709(19) 0.45240(11)
Cl2 Cl 0.18466(5) 0.94354(6) 0.80926(4)
O6 O 0.10543(16) 0.82603(17) 0.81717(11)
O7 O 0.17050(19) 1.0266(2) 0.87953(13)
O8 O 0.14366(18) 1.0190(2) 0.73955(12)
O9 O 0.31284(17) 0.9034(2) 0.79999(14)
loop_
_geom_bond_atom_site_label_1
_geom_bond_atom_site_label_2
_geom_bond_site_symmetry_1
_geom_bond_site_symmetry_2
Cu1 O1 1_555 1_555
Cl1 O2 1_555 1_555
Cl2 O6 1_555 1_555
O1 H1 1_555 1_555
H2 O1 1_555 1_555
O3 Cl1 1_555 1_555
O4 Cl1 1_555 1_555
O5 Cl1 1_555 1_555
O7 Cl2 1_555 1_555
O8 Cl2 1_555 1_555
O9 Cl2 1_555 1_555
N1 Cu1 1_555 1_555
N2 Cu1 1_555 1_555
H3 N2 1_555 1_555
H4 N2 1_555 1_555
N3 Cu1 1_555 1_555
H5 N3 1_555 1_555
H6 N3 1_555 1_555
N4 C6 1_555 1_555
N5 C7 1_555 1_555
C1 N1 1_555 1_555
H7 C1 1_555 1_555
H8 C1 1_555 1_555
C2 N2 1_555 1_555
H9 C2 1_555 1_555
H10 C2 1_555 1_555
C3 N1 1_555 1_555
H11 C3 1_555 1_555
H12 C3 1_555 1_555
C4 N3 1_555 1_555
H13 C4 1_555 1_555
H14 C4 1_555 1_555
C5 N1 1_555 1_555
H15 C5 1_555 1_555
H16 C5 1_555 1_555
C6 C5 1_555 1_555
H17 C6 1_555 1_555
H18 C6 1_555 1_555
C7 N4 1_555 1_555
H19 C7 1_555 1_555
C8 N5 1_555 1_555
H20 C8 1_555 1_555
C9 N4 1_555 1_555
H21 C9 1_555 1_555
Cu1C N5 1_555 1_555
N5C Cu1 1_555 1_555
C1 C2 1_555 1_555
C3 C4 1_555 1_555
C8 C9 1_555 1_555

#END
