
#######################################################################
#
#                 Cambridge Crystallographic Data Centre
#                                CCDC 
#
#######################################################################
#
# If this CIF has been generated from an entry in the Cambridge 
# Structural Database, then it will include bibliographic, chemical, 
# crystal, experimental, refinement or atomic coordinate data resulting 
# from the CCDC's data processing and validation procedures.
#
#######################################################################

data_XEQDUT
_symmetry_cell_setting           tetragonal
_symmetry_space_group_name_H-M   'P 42/n'
_symmetry_Int_Tables_number      86
_space_group_name_Hall           '-P 4bc'
loop_
_symmetry_equiv_pos_site_id
_symmetry_equiv_pos_as_xyz
1 x,y,z
2 -y,1/2+x,1/2+z
3 1/2+y,-x,1/2+z
4 1/2-x,1/2-y,z
5 -x,-y,-z
6 y,1/2-x,1/2-z
7 1/2-y,x,1/2-z
8 1/2+x,1/2+y,-z
_cell_length_a                   22.477(3)
_cell_length_b                   22.477(3)
_cell_length_c                   6.4602(11)
_cell_angle_alpha                90
_cell_angle_beta                 90
_cell_angle_gamma                90
_cell_volume                     3263.79
loop_
_atom_site_label
_atom_site_type_symbol
_atom_site_fract_x
_atom_site_fract_y
_atom_site_fract_z
Cl1 Cl 0.70483(5) 0.42020(6) 0.46870(19)
Cu1 Cu 0.70981(2) 0.48162(2) 0.13756(8)
N1 N 0.79677(14) 0.51249(15) 0.1250(5)
N2 N 0.69170(15) 0.56097(16) 0.2618(6)
H1 H 0.6696 0.5825 0.1730
H2 H 0.6706 0.5560 0.3789
N3 N 0.74175(16) 0.41723(18) -0.0491(6)
H3 H 0.7394 0.3819 0.0163
H4 H 0.7193 0.4151 -0.1641
N5 N 0.96379(15) 0.37538(14) 0.5725(5)
N6 N 0.92965(14) 0.45542(14) 0.4212(5)
C1 C 0.7473(2) 0.5931(2) 0.3086(8)
H5 H 0.7617 0.5819 0.4447
H6 H 0.7401 0.6357 0.3081
C2 C 0.7928(2) 0.5776(2) 0.1471(8)
H7 H 0.7816 0.5952 0.0157
H8 H 0.8312 0.5934 0.1869
C3 C 0.8145(2) 0.4942(2) -0.0840(7)
H9 H 0.8563 0.5032 -0.1060
H10 H 0.7914 0.5158 -0.1861
C4 C 0.8044(2) 0.4290(3) -0.1077(8)
H11 H 0.8114 0.4169 -0.2498
H12 H 0.8312 0.4069 -0.0185
C5 C 0.83326(17) 0.48505(19) 0.2896(7)
H13 H 0.8239 0.4430 0.2957
H14 H 0.8219 0.5024 0.4212
C6 C 0.90072(18) 0.4918(2) 0.2640(8)
H15 H 0.9127 0.4788 0.1270
H16 H 0.9121 0.5332 0.2806
C7 C 0.94222(19) 0.39750(19) 0.4013(7)
H17 H 0.9363 0.3757 0.2807
C8 C 0.96518(18) 0.42176(18) 0.7097(7)
H18 H 0.9784 0.4194 0.8458
C9 C 0.94452(17) 0.47126(18) 0.6181(7)
H19 H 0.9411 0.5088 0.6772
Cu1B Cu 0.98162(2) 0.29019(2) 0.63756(8)
N5A N 0.62462(14) 0.46379(15) 0.0725(5)
N4 N 0.63149(18) 0.58709(19) 0.7676(7)
O1 O 0.59991(15) 0.57178(17) 0.6180(5)
O2 O 0.68504(16) 0.5745(2) 0.7653(7)
O3 O 0.60947(16) 0.61163(17) 0.9187(6)
O4 O 0.6941(8) 0.2831(8) 0.960(4)
O5 O 0.7180(8) 0.2078(10) 0.036(5)
O6? O 0.7500 0.7500 0.645(5)
loop_
_geom_bond_atom_site_label_1
_geom_bond_atom_site_label_2
_geom_bond_site_symmetry_1
_geom_bond_site_symmetry_2
Cl1 Cu1 1_555 1_555
Cu1 N1 1_555 1_555
N1 C2 1_555 1_555
N2 Cu1 1_555 1_555
H1 N2 1_555 1_555
H2 N2 1_555 1_555
N3 Cu1 1_555 1_555
H3 N3 1_555 1_555
H4 N3 1_555 1_555
N4 O1 1_555 1_555
N5 C7 1_555 1_555
N6 C6 1_555 1_555
C1 N2 1_555 1_555
H5 C1 1_555 1_555
H6 C1 1_555 1_555
O2 N4 1_555 1_555
O3 N4 1_555 1_555
C2 C1 1_555 1_555
H7 C2 1_555 1_555
H8 C2 1_555 1_555
C3 N1 1_555 1_555
H9 C3 1_555 1_555
H10 C3 1_555 1_555
C4 N3 1_555 1_555
H11 C4 1_555 1_555
H12 C4 1_555 1_555
C5 N1 1_555 1_555
H13 C5 1_555 1_555
H14 C5 1_555 1_555
C6 C5 1_555 1_555
H15 C6 1_555 1_555
H16 C6 1_555 1_555
C7 N6 1_555 1_555
H17 C7 1_555 1_555
C8 N5 1_555 1_555
H18 C8 1_555 1_555
C9 N6 1_555 1_555
H19 C9 1_555 1_555
Cu1B N5 1_555 1_555
N5A Cu1 1_555 1_555
C3 C4 1_555 1_555
C8 C9 1_555 1_555

#END
