
#######################################################################
#
#                 Cambridge Crystallographic Data Centre
#                                CCDC 
#
#######################################################################
#
# If this CIF has been generated from an entry in the Cambridge 
# Structural Database, then it will include bibliographic, chemical, 
# crystal, experimental, refinement or atomic coordinate data resulting 
# from the CCDC's data processing and validation procedures.
#
#######################################################################

data_XEQDIH
_symmetry_cell_setting           monoclinic
_symmetry_space_group_name_H-M   'P 21'
_symmetry_Int_Tables_number      4
_space_group_name_Hall           'P 2yb'
loop_
_symmetry_equiv_pos_site_id
_symmetry_equiv_pos_as_xyz
1 x,y,z
2 -x,1/2+y,-z
_cell_length_a                   9.2743(14)
_cell_length_b                   7.6104(11)
_cell_length_c                   11.8112(18)
_cell_angle_alpha                90
_cell_angle_beta                 104.755(3)
_cell_angle_gamma                90
_cell_volume                     806.157
loop_
_atom_site_label
_atom_site_type_symbol
_atom_site_fract_x
_atom_site_fract_y
_atom_site_fract_z
Cd1 Cd 0.36742(6) 0.3107(7) 0.86566(6)
N1 N 0.5378(10) 0.2178(16) 0.7430(9)
N2 N 0.3066(11) 0.4827(17) 0.7051(9)
H1 H 0.2374 0.4288 0.6484
H2 H 0.2683 0.5849 0.7223
N3 N 0.2722(14) 0.0389(19) 0.7788(12)
H3 H 0.3017 -0.0489 0.8305
H4 H 0.1718 0.0419 0.7587
N4 N 0.9142(11) 0.3655(9) 0.9032(10)
N5 N 1.1595(9) 0.334(2) 0.9293(9)
C1 C 0.5042(12) 0.331(2) 0.6415(10)
H5 H 0.4308 0.2741 0.5793
H6 H 0.5940 0.3468 0.6148
C2 C 0.4437(13) 0.5170(16) 0.6638(11)
H7 H 0.5172 0.5803 0.7228
H8 H 0.4197 0.5856 0.5922
C3 C 0.4962(17) 0.038(2) 0.7079(14)
H9 H 0.5430 -0.0408 0.7714
H10 H 0.5340 0.0082 0.6408
C4 C 0.3260(15) 0.008(2) 0.6759(12)
H11 H 0.2774 0.0872 0.6137
H12 H 0.3033 -0.1119 0.6487
C5 C 0.7098(17) 0.2164(19) 0.8111(17)
H13 H 0.7256 0.1437 0.8807
H14 H 0.7694 0.1700 0.7614
C6 C 0.7530(19) 0.404(2) 0.844(2)
H15 H 0.7415 0.4799 0.7767
H16 H 0.6996 0.4524 0.8979
C7 C 1.0274(12) 0.3806(18) 0.8521(12)
H17 H 1.0178 0.4176 0.7755
C8 C 1.1265(11) 0.2894(12) 1.0322(9)
H18 H 1.1959 0.2533 1.0997
C9 C 0.9812(12) 0.3054(14) 1.0218(10)
H19 H 0.9316 0.2825 1.0795
Cl4 Cl 0.5367(10) 0.4384(11) 1.0497(8)
Cd1_2 Cd 1.36742(6) 0.3107(7) 0.86566(6)
Cd1A Cd 0.63258(6) 0.8107(7) 1.13434(6)
N5_2 N 0.1595(9) 0.334(2) 0.9293(9)
Cl4A Cl 0.4633(10) -0.0616(11) 0.9503(8)
Cl2 Cl 0.0985(3) 0.3015(12) 0.3740(3)
O5 O 0.079(2) 0.341(3) 0.4878(11)
O6 O 0.234(2) 0.385(4) 0.365(3)
O7 O -0.024(2) 0.380(4) 0.2872(18)
O8 O 0.105(4) 0.118(3) 0.358(3)
O9 O -0.160(7) 0.258(4) 0.569(3)
Cl1? Cl 0.0985(3) 0.3015(12) 0.3740(3)
O1? O 0.133(3) 0.264(4) 0.4968(10)
O2? O 0.2248(19) 0.256(4) 0.329(2)
O3? O 0.072(3) 0.4863(17) 0.357(3)
O4? O -0.0299(19) 0.202(3) 0.315(2)
Cl3? Cl 0.5388(12) 0.1886(12) 1.0505(8)
loop_
_geom_bond_atom_site_label_1
_geom_bond_atom_site_label_2
_geom_bond_site_symmetry_1
_geom_bond_site_symmetry_2
Cd1 N1 1_555 1_555
N1 C1 1_555 1_555
N2 Cd1 1_555 1_555
H1 N2 1_555 1_555
H2 N2 1_555 1_555
N3 Cd1 1_555 1_555
H3 N3 1_555 1_555
H4 N3 1_555 1_555
N4 C6 1_555 1_555
N5 C7 1_555 1_555
C1 H5 1_555 1_555
H6 C1 1_555 1_555
C2 N2 1_555 1_555
H7 C2 1_555 1_555
H8 C2 1_555 1_555
C3 N1 1_555 1_555
H9 C3 1_555 1_555
H10 C3 1_555 1_555
C4 N3 1_555 1_555
H11 C4 1_555 1_555
H12 C4 1_555 1_555
C5 N1 1_555 1_555
H13 C5 1_555 1_555
H14 C5 1_555 1_555
C6 C5 1_555 1_555
H15 C6 1_555 1_555
H16 C6 1_555 1_555
C7 N4 1_555 1_555
H17 C7 1_555 1_555
C8 N5 1_555 1_555
H18 C8 1_555 1_555
C9 N4 1_555 1_555
H19 C9 1_555 1_555
Cl2 O5 1_555 1_555
O6 Cl2 1_555 1_555
O7 Cl2 1_555 1_555
O8 Cl2 1_555 1_555
Cl4 Cd1 1_555 1_555
Cd1_2 N5 1_555 1_555
Cd1A Cl4 1_555 1_555
N5_2 Cd1 1_555 1_555
Cl4A Cd1 1_555 1_555
C1 C2 1_555 1_555
C3 C4 1_555 1_555
C8 C9 1_555 1_555

#END
