
#######################################################################
#
#                 Cambridge Crystallographic Data Centre
#                                CCDC 
#
#######################################################################
#
# If this CIF has been generated from an entry in the Cambridge 
# Structural Database, then it will include bibliographic, chemical, 
# crystal, experimental, refinement or atomic coordinate data resulting 
# from the CCDC's data processing and validation procedures.
#
#######################################################################

data_XEQFOQ
_symmetry_cell_setting           triclinic
_symmetry_space_group_name_H-M   'P -1'
_symmetry_Int_Tables_number      2
_space_group_name_Hall           '-P 1'
loop_
_symmetry_equiv_pos_site_id
_symmetry_equiv_pos_as_xyz
1 x,y,z
2 -x,-y,-z
_cell_length_a                   9.6317(6)
_cell_length_b                   10.0666(6)
_cell_length_c                   13.2230(8)
_cell_angle_alpha                100.8150(10)
_cell_angle_beta                 108.2140(10)
_cell_angle_gamma                102.0740(10)
_cell_volume                     1145.87
loop_
_atom_site_label
_atom_site_type_symbol
_atom_site_fract_x
_atom_site_fract_y
_atom_site_fract_z
C1 C 0.9009(3) 0.3389(3) 0.0494(2)
H1 H 0.9915 0.3416 0.0374
C2 C 0.8907(3) 0.4506(2) 0.12230(19)
H2 H 0.9759 0.5283 0.1606
C3 C 0.7561(2) 0.4494(2) 0.13956(18)
H3 H 0.7515 0.5261 0.1887
C4 C 0.6269(2) 0.3330(2) 0.08336(16)
C5 C 0.6393(2) 0.2185(2) 0.01184(17)
H4 H 0.5557 0.1388 -0.0243
C6 C 0.7734(3) 0.2218(2) -0.00583(18)
H5 H 0.7789 0.1455 -0.0549
C7 C 0.4758(2) 0.4306(2) 0.18213(16)
C8 C 0.5753(2) 0.4581(2) 0.29168(17)
H6 H 0.6409 0.4031 0.3096
C9 C 0.5761(2) 0.5672(2) 0.37331(17)
H7 H 0.6437 0.5856 0.4456
C10 C 0.4768(2) 0.6500(2) 0.34875(17)
C11 C 0.3720(2) 0.6165(2) 0.24079(17)
H8 H 0.3016 0.6674 0.2241
C12 C 0.3712(2) 0.5091(2) 0.15845(17)
H9 H 0.3009 0.4887 0.0869
C13 C 0.3459(2) 0.2539(2) 0.00368(17)
C14 C 0.2211(2) 0.1827(2) 0.02339(17)
H10 H 0.2307 0.1768 0.0945
C15 C 0.0822(2) 0.1204(2) -0.06381(17)
H11 H -0.0018 0.0748 -0.0502
C16 C 0.0663(2) 0.1251(2) -0.17110(17)
C17 C 0.1945(2) 0.1897(2) -0.19071(17)
H12 H 0.1869 0.1896 -0.2626
C18 C 0.3329(2) 0.2542(2) -0.10405(17)
H13 H 0.4175 0.2978 -0.1179
C19 C 0.4884(2) 0.7761(2) 0.43329(18)
C20 C -0.0869(2) 0.0690(2) -0.26371(17)
C21 C 0.4036(3) 0.9081(2) 0.76659(17)
H14 H 0.4820 0.9150 0.8317
C22 C 0.2532(2) 0.8611(2) 0.74717(17)
H15 H 0.2093 0.8295 0.7949
C23 C 0.2833(2) 0.9194(2) 0.60231(18)
H16 H 0.2616 0.9348 0.5325
C24 C 0.0168(2) 0.7965(2) 0.57346(19)
H17 H -0.0155 0.8354 0.5111
H18 H -0.0470 0.8087 0.6165
C25 C 0.0017(2) 0.6406(2) 0.53248(18)
C26 C -0.0503(3) 0.5444(2) 0.58396(19)
H19 H -0.0847 0.5737 0.6403
C27 C 0.0517(3) 0.5958(2) 0.44770(19)
H20 H 0.0862 0.6596 0.4122
N1 N 0.48469(19) 0.32894(18) 0.09589(14)
N2 N 0.4236(2) 0.94421(18) 0.67545(14)
N3 N 0.17777(19) 0.86968(18) 0.64236(14)
O1 O 0.59707(17) 0.81237(16) 0.52626(12)
O2 O 0.39080(17) 0.84372(15) 0.40896(12)
O3 O -0.20117(16) 0.02013(16) -0.23637(12)
O4 O -0.09833(17) 0.07279(16) -0.35891(12)
Zn1 Zn 0.61132(3) 0.98055(2) 0.637839(19)
C1A C 0.0991(3) 1.6611(3) 0.9506(2)
H1A H 0.0085 1.6584 0.9626
C2A C 0.1093(3) 1.5494(2) 0.87770(19)
H2A H 0.0241 1.4717 0.8394
C3A C 0.2439(2) 1.5506(2) 0.86044(18)
H3A H 0.2485 1.4739 0.8113
C4A C 0.3731(2) 1.6670(2) 0.91664(16)
C5A C 0.3607(2) 1.7815(2) 0.98816(17)
H4A H 0.4443 1.8612 1.0243
C6A C 0.2266(3) 1.7782(2) 1.00583(18)
H5A H 0.2211 1.8545 1.0549
C7A C 0.5242(2) 1.5694(2) 0.81787(16)
C8A C 0.4247(2) 1.5419(2) 0.70832(17)
H6A H 0.3591 1.5969 0.6904
C9A C 0.4239(2) 1.4328(2) 0.62669(17)
H7A H 0.3563 1.4144 0.5544
C10A C 0.5232(2) 1.3500(2) 0.65125(17)
C11A C 0.6280(2) 1.3835(2) 0.75921(17)
H8A H 0.6984 1.3326 0.7759
C12A C 0.6288(2) 1.4909(2) 0.84155(17)
H9A H 0.6991 1.5113 0.9131
C13A C 0.6541(2) 1.7461(2) 0.99632(17)
C14A C 0.7789(2) 1.8173(2) 0.97661(17)
H10A H 0.7693 1.8232 0.9055
C15A C 0.9178(2) 1.8796(2) 1.06381(17)
H11A H 1.0018 1.9252 1.0502
C16A C 0.9337(2) 1.8749(2) 1.17110(17)
C17A C 0.8055(2) 1.8103(2) 1.19071(17)
H12A H 0.8131 1.8104 1.2626
C18A C 0.6671(2) 1.7458(2) 1.10405(17)
H13A H 0.5825 1.7022 1.1179
C19A C 0.5116(2) 1.2239(2) 0.56671(18)
C20A C 1.0869(2) 1.9310(2) 1.26371(17)
C21A C -0.4036(3) 0.0919(2) 0.23341(17)
H14A H -0.4820 0.0850 0.1683
C22A C -0.2532(2) 0.1389(2) 0.25283(17)
H15A H -0.2093 0.1705 0.2051
C23A C -0.2833(2) 0.0806(2) 0.39769(18)
H16A H -0.2616 0.0652 0.4675
C24A C -0.0168(2) 0.2035(2) 0.42654(19)
H17A H 0.0155 0.1646 0.4889
H18A H 0.0470 0.1913 0.3835
C25A C -0.0017(2) 0.3594(2) 0.46752(18)
C26A C 0.0503(3) 0.4556(2) 0.41604(19)
H19A H 0.0847 0.4263 0.3597
C27A C -0.0517(3) 0.4042(2) 0.55230(19)
H20A H -0.0862 0.3404 0.5878
N1A N 0.51531(19) 1.67106(18) 0.90411(14)
N2A N -0.4236(2) 0.05579(18) 0.32455(14)
N3A N -0.17777(19) 0.13032(18) 0.35764(14)
O1A O 0.40293(17) 1.18763(16) 0.47374(12)
O1A_2 O -0.59707(17) 0.18763(16) 0.47374(12)
O2A O 0.60920(17) 1.15628(15) 0.59104(12)
O2_2 O -0.60920(17) -0.15628(15) 0.40896(12)
O3A O 1.20117(16) 1.97987(16) 1.23637(12)
O3_2 O 0.79883(16) 1.02013(16) 0.76363(12)
O3A_2 O -0.79883(16) -0.02013(16) 0.23637(12)
O4A O 1.09833(17) 1.92721(16) 1.35891(12)
Zn1A Zn -0.61132(3) 0.01945(2) 0.362161(19)
Zn1A_2 Zn 0.38868(3) 1.01945(2) 0.362161(19)
Zn1_2 Zn -0.38868(3) -0.01945(2) -0.362161(19)
Zn1A_3 Zn 1.38868(3) 2.01945(2) 1.362161(19)
loop_
_geom_bond_atom_site_label_1
_geom_bond_atom_site_label_2
_geom_bond_site_symmetry_1
_geom_bond_site_symmetry_2
C1 H1 1_555 1_555
C2 C1 1_555 1_555
H2 C2 1_555 1_555
C3 C2 1_555 1_555
H3 C3 1_555 1_555
C4 C3 1_555 1_555
C5 C4 1_555 1_555
H4 C5 1_555 1_555
C6 C1 1_555 1_555
H5 C6 1_555 1_555
C7 C8 1_555 1_555
C8 H6 1_555 1_555
C9 C8 1_555 1_555
H7 C9 1_555 1_555
C10 C9 1_555 1_555
C11 C10 1_555 1_555
H8 C11 1_555 1_555
C12 C7 1_555 1_555
H9 C12 1_555 1_555
C13 C14 1_555 1_555
C14 H10 1_555 1_555
C15 C14 1_555 1_555
H11 C15 1_555 1_555
C16 C15 1_555 1_555
C17 C16 1_555 1_555
H12 C17 1_555 1_555
C18 C13 1_555 1_555
H13 C18 1_555 1_555
C19 C10 1_555 1_555
C20 C16 1_555 1_555
C21 H14 1_555 1_555
C22 C21 1_555 1_555
H15 C22 1_555 1_555
C23 H16 1_555 1_555
C24 H17 1_555 1_555
H18 C24 1_555 1_555
C25 C24 1_555 1_555
C26 C25 1_555 1_555
H19 C26 1_555 1_555
C27 C25 1_555 1_555
H20 C27 1_555 1_555
N1 C4 1_555 1_555
N2 C21 1_555 1_555
N3 C22 1_555 1_555
O1 C19 1_555 1_555
O2 C19 1_555 1_555
O3 C20 1_555 1_555
O4 C20 1_555 1_555
Zn1 N2 1_555 1_555
C1A H1A 1_555 1_555
C2A C1A 1_555 1_555
H2A C2A 1_555 1_555
C3A C2A 1_555 1_555
H3A C3A 1_555 1_555
C4A C3A 1_555 1_555
C5A C4A 1_555 1_555
H4A C5A 1_555 1_555
C6A C1A 1_555 1_555
H5A C6A 1_555 1_555
C7A C8A 1_555 1_555
C8A H6A 1_555 1_555
C9A C8A 1_555 1_555
H7A C9A 1_555 1_555
C10A C9A 1_555 1_555
C11A C10A 1_555 1_555
H8A C11A 1_555 1_555
C12A C7A 1_555 1_555
H9A C12A 1_555 1_555
C13A C14A 1_555 1_555
C14A H10A 1_555 1_555
C15A C14A 1_555 1_555
H11A C15A 1_555 1_555
C16A C15A 1_555 1_555
C17A C16A 1_555 1_555
H12A C17A 1_555 1_555
C18A C13A 1_555 1_555
H13A C18A 1_555 1_555
C19A C10A 1_555 1_555
C20A C16A 1_555 1_555
C21A H14A 1_555 1_555
C22A C21A 1_555 1_555
H15A C22A 1_555 1_555
C23A H16A 1_555 1_555
C24A H17A 1_555 1_555
H18A C24A 1_555 1_555
C25A C24A 1_555 1_555
C26A C27 1_555 1_555
H19A C26A 1_555 1_555
C27A C26 1_555 1_555
H20A C27A 1_555 1_555
N1A C4A 1_555 1_555
N2A C21A 1_555 1_555
N3A C22A 1_555 1_555
O1A C19A 1_555 1_555
O1A_2 Zn1A 1_555 1_555
O2A Zn1 1_555 1_555
O2_2 Zn1A 1_555 1_555
O3A C20A 1_555 1_555
O3_2 Zn1 1_555 1_555
O3A_2 Zn1A 1_555 1_555
O4A C20A 1_555 1_555
Zn1A N2A 1_555 1_555
Zn1A_2 O2 1_555 1_555
Zn1_2 O3 1_555 1_555
Zn1A_3 O3A 1_555 1_555
C5 C6 1_555 1_555
C7 N1 1_555 1_555
C11 C12 1_555 1_555
C13 N1 1_555 1_555
C17 C18 1_555 1_555
C23 N2 1_555 1_555
C23 N3 1_555 1_555
C24 N3 1_555 1_555
O1 Zn1 1_555 1_555
C5A C6A 1_555 1_555
C7A N1A 1_555 1_555
C11A C12A 1_555 1_555
C13A N1A 1_555 1_555
C17A C18A 1_555 1_555
C19A O2A 1_555 1_555
C23A N2A 1_555 1_555
C23A N3A 1_555 1_555
C24A N3A 1_555 1_555
C25A C26A 1_555 1_555
C25A C27A 1_555 1_555
O1A Zn1A_2 1_555 1_555

#END
