
#######################################################################
#
#                 Cambridge Crystallographic Data Centre
#                                CCDC 
#
#######################################################################
#
# If this CIF has been generated from an entry in the Cambridge 
# Structural Database, then it will include bibliographic, chemical, 
# crystal, experimental, refinement or atomic coordinate data resulting 
# from the CCDC's data processing and validation procedures.
#
#######################################################################

data_XEQFUW
_symmetry_cell_setting           monoclinic
_symmetry_space_group_name_H-M   'C 2/c'
_symmetry_Int_Tables_number      15
_space_group_name_Hall           '-C 2yn'
loop_
_symmetry_equiv_pos_site_id
_symmetry_equiv_pos_as_xyz
1 x,y,z
2 -x,y,1/2-z
3 1/2+x,1/2+y,z
4 1/2-x,1/2+y,1/2-z
5 -x,-y,-z
6 x,-y,1/2+z
7 1/2-x,1/2-y,-z
8 1/2+x,1/2-y,1/2+z
_cell_length_a                   28.3656(16)
_cell_length_b                   11.4712(6)
_cell_length_c                   18.2929(10)
_cell_angle_alpha                90
_cell_angle_beta                 102.8760(10)
_cell_angle_gamma                90
_cell_volume                     5802.61
loop_
_atom_site_label
_atom_site_type_symbol
_atom_site_fract_x
_atom_site_fract_y
_atom_site_fract_z
O1 O 0.69932(5) 0.73165(13) 1.26717(8)
O2 O 0.64065(6) 0.75554(14) 1.32589(8)
Co1 Co 0.715420(9) 0.73058(2) 1.390110(13)
O3 O 0.28842(5) 0.78388(12) 0.89457(8)
O4 O 0.30369(5) 0.71426(13) 1.01044(8)
N1 N 0.71863(6) 0.92007(16) 1.39405(9)
N2 N 0.71282(6) 1.54064(16) 1.38674(9)
N3 N 0.52071(6) 0.8150(2) 0.98532(9)
C1 C 0.31742(7) 0.75438(16) 0.95476(11)
C2 C 0.37041(7) 0.76813(17) 0.95987(11)
C3 C 0.40347(8) 0.7174(2) 1.01966(12)
H1 H 0.3920 0.6749 1.0554
C4 C 0.45240(8) 0.7290(2) 1.02672(12)
H2 H 0.4735 0.6917 1.0659
C5 C 0.47094(7) 0.7959(2) 0.97592(11)
C6 C 0.43818(8) 0.8460(2) 0.91502(11)
H3 H 0.4496 0.8899 0.8798
C7 C 0.38901(7) 0.8305(2) 0.90728(11)
H4 H 0.3678 0.8624 0.8659
C8 C 0.55370(8) 0.8010(2) 1.05586(11)
C9 C 0.54211(8) 0.8335(2) 1.12277(11)
H5 H 0.5123 0.8675 1.1222
C10 C 0.57477(8) 0.8157(2) 1.19041(11)
H6 H 0.5660 0.8344 1.2350
C11 C 0.62046(8) 0.77028(19) 1.19267(11)
C12 C 0.63244(9) 0.7416(3) 1.12551(13)
H7 H 0.6631 0.7126 1.1258
C13 C 0.59922(9) 0.7557(3) 1.05786(13)
H8 H 0.6076 0.7344 1.0134
C14 C 0.65552(8) 0.75136(17) 1.26624(11)
C15 C 0.54092(8) 0.8466(2) 0.92261(11)
C16 C 0.53882(10) 0.7718(3) 0.86327(14)
H9 H 0.5239 0.6996 0.8627
C17 C 0.55926(12) 0.8052(3) 0.80394(15)
H10 H 0.5585 0.7543 0.7641
C18 C 0.58044(10) 0.9122(3) 0.80377(15)
H11 H 0.5935 0.9342 0.7635
C19 C 0.58257(11) 0.9870(3) 0.86268(15)
H12 H 0.5971 1.0596 0.8626
C20 C 0.56306(9) 0.9542(2) 0.92213(13)
H13 H 0.5648 1.0049 0.9623
C21 C 0.70194(10) 0.9837(2) 1.44337(13)
H14 H 0.6908 0.9449 1.4808
C22 C 0.70017(10) 1.1037(2) 1.44248(13)
H15 H 0.6884 1.1432 1.4791
C23 C 0.71565(7) 1.16509(19) 1.38798(11)
C24 C 0.73354(11) 1.1006(2) 1.33679(15)
H16 H 0.7446 1.1376 1.2986
C25 C 0.73495(11) 0.9795(2) 1.34250(15)
H17 H 0.7481 0.9379 1.3082
C26 C 0.71389(8) 1.2950(2) 1.38512(12)
C27 C 0.68398(10) 1.3573(2) 1.42112(17)
H18 H 0.6636 1.3179 1.4460
C28 C 0.68424(10) 1.4780(2) 1.42035(16)
H19 H 0.6634 1.5174 1.4445
C29 C 0.74150(9) 1.48024(19) 1.35112(12)
H20 H 0.7616 1.5218 1.3266
C30 C 0.74290(9) 1.36015(19) 1.34876(12)
H21 H 0.7633 1.3229 1.3228
Co1G Co 0.215420(9) 0.76942(2) 0.890110(13)
Co1A Co 0.284580(9) 0.73058(2) 1.109890(13)
Co1_2 Co 0.715420(9) 1.73058(2) 1.390110(13)
O3G O 0.78842(5) 0.71612(12) 1.39457(8)
O4A O 0.69631(5) 0.71426(13) 1.48956(8)
N2_2 N 0.71282(6) 0.54064(16) 1.38674(9)
O5 O 0.5134(2) 0.5057(4) 0.1252(3)
N4 N 0.58469(19) 0.4771(4) 0.1981(4)
C31 C 0.5565(2) 0.4787(5) 0.1362(4)
H22 H 0.5686 0.4581 0.0948
C32 C 0.6337(2) 0.4441(5) 0.1997(3)
H23 H 0.6385 0.4416 0.1494
H24 H 0.6400 0.3686 0.2223
H25 H 0.6553 0.5002 0.2283
C33 C 0.5694(3) 0.5196(7) 0.2759(5)
H26 H 0.5952 0.5648 0.3055
H27 H 0.5635 0.4524 0.3039
H28 H 0.5406 0.5662 0.2635
loop_
_geom_bond_atom_site_label_1
_geom_bond_atom_site_label_2
_geom_bond_site_symmetry_1
_geom_bond_site_symmetry_2
O1 Co1 1_555 1_555
O2 Co1 1_555 1_555
Co1 N1 1_555 1_555
O3 C1 1_555 1_555
O4 C1 1_555 1_555
N1 C21 1_555 1_555
N2 C28 1_555 1_555
N3 C5 1_555 1_555
C1 C2 1_555 1_555
C2 C3 1_555 1_555
C3 H1 1_555 1_555
C4 C3 1_555 1_555
H2 C4 1_555 1_555
C5 C4 1_555 1_555
C6 C5 1_555 1_555
H3 C6 1_555 1_555
C7 C2 1_555 1_555
H4 C7 1_555 1_555
C8 N3 1_555 1_555
C9 C8 1_555 1_555
H5 C9 1_555 1_555
C10 C9 1_555 1_555
H6 C10 1_555 1_555
C11 C10 1_555 1_555
C12 C11 1_555 1_555
H7 C12 1_555 1_555
C13 C8 1_555 1_555
H8 C13 1_555 1_555
C14 O1 1_555 1_555
C15 N3 1_555 1_555
C16 C15 1_555 1_555
H9 C16 1_555 1_555
C17 C16 1_555 1_555
H10 C17 1_555 1_555
C18 C17 1_555 1_555
H11 C18 1_555 1_555
C19 C18 1_555 1_555
H12 C19 1_555 1_555
C20 C15 1_555 1_555
H13 C20 1_555 1_555
C21 H14 1_555 1_555
C22 C21 1_555 1_555
H15 C22 1_555 1_555
C23 C22 1_555 1_555
C24 C23 1_555 1_555
H16 C24 1_555 1_555
C25 N1 1_555 1_555
H17 C25 1_555 1_555
C26 C23 1_555 1_555
C27 C26 1_555 1_555
H18 C27 1_555 1_555
C28 C27 1_555 1_555
H19 C28 1_555 1_555
C29 N2 1_555 1_555
H20 C29 1_555 1_555
C30 C26 1_555 1_555
H21 C30 1_555 1_555
O5 C31 1_555 1_555
N4 C31 1_555 1_555
C31 H22 1_555 1_555
C32 N4 1_555 1_555
H23 C32 1_555 1_555
H24 C32 1_555 1_555
H25 C32 1_555 1_555
C33 N4 1_555 1_555
H26 C33 1_555 1_555
H27 C33 1_555 1_555
H28 C33 1_555 1_555
Co1G O3 1_555 1_555
Co1A O4 1_555 1_555
Co1_2 N2 1_555 1_555
O3G Co1 1_555 1_555
O4A Co1 1_555 1_555
N2_2 Co1 1_555 1_555
O2 C14 1_555 1_555
C6 C7 1_555 1_555
C11 C14 1_555 1_555
C12 C13 1_555 1_555
C19 C20 1_555 1_555
C24 C25 1_555 1_555
C29 C30 1_555 1_555

#END
