
#######################################################################
#
#                 Cambridge Crystallographic Data Centre
#                                CCDC 
#
#######################################################################
#
# If this CIF has been generated from an entry in the Cambridge 
# Structural Database, then it will include bibliographic, chemical, 
# crystal, experimental, refinement or atomic coordinate data resulting 
# from the CCDC's data processing and validation procedures.
#
#######################################################################

data_XEQGAD
_symmetry_cell_setting           monoclinic
_symmetry_space_group_name_H-M   'C 2/c'
_symmetry_Int_Tables_number      15
_space_group_name_Hall           '-C 2yn'
loop_
_symmetry_equiv_pos_site_id
_symmetry_equiv_pos_as_xyz
1 x,y,z
2 -x,y,1/2-z
3 1/2+x,1/2+y,z
4 1/2-x,1/2+y,1/2-z
5 -x,-y,-z
6 x,-y,1/2+z
7 1/2-x,1/2-y,-z
8 1/2+x,1/2-y,1/2+z
_cell_length_a                   28.676(4)
_cell_length_b                   11.7344(15)
_cell_length_c                   17.820(3)
_cell_angle_alpha                90
_cell_angle_beta                 101.202(2)
_cell_angle_gamma                90
_cell_volume                     5882.11
loop_
_atom_site_label
_atom_site_type_symbol
_atom_site_fract_x
_atom_site_fract_y
_atom_site_fract_z
C1 C 0.15170(16) 0.2425(3) 0.2646(2)
C2 C 0.11623(16) 0.2269(4) 0.1931(3)
C3 C 0.07076(17) 0.1893(5) 0.1911(2)
H1 H 0.0614 0.1732 0.2371
C4 C 0.03838(17) 0.1745(5) 0.1241(2)
H2 H 0.0082 0.1465 0.1253
C5 C 0.05055(17) 0.2011(5) 0.0547(3)
C6 C 0.0960(2) 0.2404(5) 0.0560(3)
H3 H 0.1048 0.2603 0.0101
C7 C 0.12846(19) 0.2509(5) 0.1225(3)
H4 H 0.1592 0.2744 0.1209
C8 C -0.02997(16) 0.2005(5) -0.0276(2)
C9 C -0.05113(17) 0.2633(4) 0.0223(3)
H5 H -0.0323 0.2993 0.0640
C10 C -0.09995(16) 0.2728(4) 0.0108(2)
H6 H -0.1137 0.3122 0.0462
C11 C -0.12890(15) 0.2246(4) -0.0529(2)
C12 C -0.10710(16) 0.1623(4) -0.1035(2)
H7 H -0.1257 0.1299 -0.1469
C13 C -0.05862(17) 0.1483(5) -0.0900(3)
H8 H -0.0449 0.1035 -0.1228
C14 C -0.18122(14) 0.2388(3) -0.0684(2)
C15 C 0.04078(17) 0.1519(5) -0.0788(3)
C16 C 0.0417(3) 0.2248(6) -0.1391(3)
H9 H 0.0287 0.2975 -0.1391
C17 C 0.0618(3) 0.1901(8) -0.1987(3)
H10 H 0.0619 0.2387 -0.2398
C18 C 0.0822(2) 0.0816(6) -0.1981(3)
H11 H 0.0962 0.0584 -0.2385
C19 C 0.0816(2) 0.0111(6) -0.1389(3)
H12 H 0.0948 -0.0613 -0.1386
C20 C 0.06129(18) 0.0457(5) -0.0786(3)
H13 H 0.0615 -0.0031 -0.0375
C21 C 0.2363(2) -0.0012(4) 0.3473(3)
H14 H 0.2522 0.0383 0.3146
C22 C 0.2343(2) -0.1171(4) 0.3417(3)
H15 H 0.2473 -0.1538 0.3042
C23 C 0.21347(15) -0.1797(4) 0.3909(2)
C24 C 0.19490(19) -0.1167(4) 0.4439(3)
H16 H 0.1810 -0.1541 0.4801
C25 C 0.19670(18) -0.0011(4) 0.4437(3)
H17 H 0.1829 0.0382 0.4791
C26 C 0.21286(15) -0.3054(4) 0.3906(2)
C27 C 0.2399(2) -0.3680(4) 0.3487(3)
H18 H 0.2576 -0.3306 0.3176
C28 C 0.2406(2) -0.4843(4) 0.3526(3)
H19 H 0.2594 -0.5241 0.3244
C29 C 0.19064(19) -0.4848(4) 0.4365(3)
H20 H 0.1736 -0.5244 0.4675
C30 C 0.1885(2) -0.3681(4) 0.4362(3)
H21 H 0.1705 -0.3308 0.4669
Cd1 Cd 0.219067(9) 0.257021(19) 0.393666(14)
N1 N 0.01973(14) 0.1875(5) -0.0157(2)
N2 N 0.21696(11) 0.0586(3) 0.39616(17)
N3 N 0.21554(13) -0.5437(3) 0.39533(18)
O1 O 0.13813(12) 0.2382(3) 0.32735(18)
O2 O 0.19408(11) 0.2559(2) 0.26083(17)
O3 O -0.20160(11) 0.2685(2) -0.01481(17)
O4 O -0.20455(11) 0.2199(3) -0.13345(17)
Cd1_2 Cd 0.219067(9) -0.742979(19) 0.393666(14)
Cd1A Cd -0.219067(9) 0.257021(19) 0.106334(14)
Cd1G Cd -0.280933(9) 0.242979(19) -0.106334(14)
N3_2 N 0.21554(13) 0.4563(3) 0.39533(18)
O3A O 0.20160(11) 0.2685(2) 0.51481(17)
O3G O 0.29840(11) 0.2315(2) 0.48519(17)
O4G O 0.29545(11) 0.2801(3) 0.36655(17)
loop_
_geom_bond_atom_site_label_1
_geom_bond_atom_site_label_2
_geom_bond_site_symmetry_1
_geom_bond_site_symmetry_2
C1 C2 1_555 1_555
C2 C3 1_555 1_555
C3 H1 1_555 1_555
C4 C3 1_555 1_555
H2 C4 1_555 1_555
C5 C4 1_555 1_555
C6 C5 1_555 1_555
H3 C6 1_555 1_555
C7 C2 1_555 1_555
H4 C7 1_555 1_555
C8 C9 1_555 1_555
C9 H5 1_555 1_555
C10 C9 1_555 1_555
H6 C10 1_555 1_555
C11 C10 1_555 1_555
C12 C11 1_555 1_555
H7 C12 1_555 1_555
C13 C8 1_555 1_555
H8 C13 1_555 1_555
C14 C11 1_555 1_555
C15 C16 1_555 1_555
C16 H9 1_555 1_555
C17 C16 1_555 1_555
H10 C17 1_555 1_555
C18 C17 1_555 1_555
H11 C18 1_555 1_555
C19 C18 1_555 1_555
H12 C19 1_555 1_555
C20 C15 1_555 1_555
H13 C20 1_555 1_555
C21 H14 1_555 1_555
C22 C21 1_555 1_555
H15 C22 1_555 1_555
C23 C22 1_555 1_555
C24 C23 1_555 1_555
H16 C24 1_555 1_555
C25 C24 1_555 1_555
H17 C25 1_555 1_555
C26 C23 1_555 1_555
C27 C26 1_555 1_555
H18 C27 1_555 1_555
C28 C27 1_555 1_555
H19 C28 1_555 1_555
C29 H20 1_555 1_555
C30 C26 1_555 1_555
H21 C30 1_555 1_555
Cd1 N2 1_555 1_555
N1 C5 1_555 1_555
N2 C21 1_555 1_555
N3 C28 1_555 1_555
O1 C1 1_555 1_555
O2 C1 1_555 1_555
O3 C14 1_555 1_555
O4 C14 1_555 1_555
Cd1_2 N3 1_555 1_555
Cd1A O3 1_555 1_555
Cd1G O3 1_555 1_555
N3_2 Cd1 1_555 1_555
O3A Cd1 1_555 1_555
O3G Cd1 1_555 1_555
O4G Cd1 1_555 1_555
C6 C7 1_555 1_555
C8 N1 1_555 1_555
C12 C13 1_555 1_555
C15 N1 1_555 1_555
C19 C20 1_555 1_555
C25 N2 1_555 1_555
C29 C30 1_555 1_555
C29 N3 1_555 1_555
Cd1 O1 1_555 1_555
Cd1 O2 1_555 1_555
O4 Cd1G 1_555 1_555

#END
