
#######################################################################
#
#                 Cambridge Crystallographic Data Centre
#                                CCDC 
#
#######################################################################
#
# If this CIF has been generated from an entry in the Cambridge 
# Structural Database, then it will include bibliographic, chemical, 
# crystal, experimental, refinement or atomic coordinate data resulting 
# from the CCDC's data processing and validation procedures.
#
#######################################################################

data_XEQMOV
_symmetry_cell_setting           orthorhombic
_symmetry_space_group_name_H-M   'P b c n'
_symmetry_Int_Tables_number      60
_space_group_name_Hall           '-P 2n 2ab'
loop_
_symmetry_equiv_pos_site_id
_symmetry_equiv_pos_as_xyz
1 x,y,z
2 1/2-x,1/2-y,1/2+z
3 1/2+x,1/2-y,-z
4 -x,y,1/2-z
5 -x,-y,-z
6 1/2+x,1/2+y,1/2-z
7 1/2-x,1/2+y,z
8 x,-y,1/2+z
_cell_length_a                   28.373(6)
_cell_length_b                   7.3176(15)
_cell_length_c                   7.9145(16)
_cell_angle_alpha                90
_cell_angle_beta                 90
_cell_angle_gamma                90
_cell_volume                     1643.23
loop_
_atom_site_label
_atom_site_type_symbol
_atom_site_fract_x
_atom_site_fract_y
_atom_site_fract_z
Ca1 Ca 0.0000 0.1731(1) 0.2500
O1 O 0.0603(1) 0.2177(2) 0.4447(2)
C1 C 0.0738(1) 0.1671(2) 0.5889(2)
N1 N 0.1308(1) 0.4670(2) 0.4481(2)
O2 O 0.0481(1) 0.0852(2) 0.6939(2)
C2 C 0.1241(1) 0.2038(2) 0.6378(2)
C3 C 0.1511(1) 0.3450(2) 0.5627(2)
O3 O 0.0000 0.5022(3) 0.2500
C4 C 0.1980(1) 0.3671(3) 0.6139(3)
O4 O 0.0487(1) 0.2685(2) 0.0044(2)
C5 C 0.2179(1) 0.2547(3) 0.7346(3)
C6 C 0.1913(1) 0.1167(3) 0.8103(3)
C7 C 0.1450(1) 0.0929(3) 0.7606(2)
H1 H 0.1065(8) 0.4210(3) 0.3900(3)
H2 H 0.1524(9) 0.5260(4) 0.3890(3)
H3 H -0.0057(8) 0.5640(3) 0.1720(3)
H4 H 0.2152(7) 0.4550(3) 0.5720(3)
H5 H 0.0533(9) 0.1980(4) -0.0830(4)
H6 H 0.0731(10) 0.3300(4) 0.0080(3)
H7 H 0.2504(10) 0.2670(3) 0.7700(3)
H8 H 0.2049(8) 0.0390(3) 0.8940(3)
H9 H 0.1256(7) -0.0020(3) 0.8080(3)
O2D O -0.0481(1) -0.0852(2) 0.3061(2)
Ca1D Ca 0.0000 -0.1731(1) 0.7500
O1C O -0.0603(1) 0.2177(2) 0.0553(2)
C1C C -0.0738(1) 0.1671(2) -0.0889(2)
O2C O -0.0481(1) 0.0852(2) -0.1939(2)
Ca1G Ca 0.0000 -0.1731(1) -0.2500
O2G O 0.0481(1) -0.0852(2) 0.1939(2)
H3C H 0.0057(8) 0.5640(3) 0.3280(3)
O4C O -0.0487(1) 0.2685(2) 0.4956(2)
H5C H -0.0533(9) 0.1980(4) 0.5830(4)
H6C H -0.0731(10) 0.3300(4) 0.4920(3)
C2C C -0.1241(1) 0.2038(2) -0.1378(2)
C3C C -0.1511(1) 0.3450(2) -0.0627(2)
N1C N -0.1308(1) 0.4670(2) 0.0519(2)
H1C H -0.1065(8) 0.4210(3) 0.1100(3)
H2C H -0.1524(9) 0.5260(4) 0.1110(3)
C4C C -0.1980(1) 0.3671(3) -0.1139(3)
C5C C -0.2179(1) 0.2547(3) -0.2346(3)
C6C C -0.1913(1) 0.1167(3) -0.3103(3)
C7C C -0.1450(1) 0.0929(3) -0.2606(2)
H9C H -0.1256(7) -0.0020(3) -0.3080(3)
H8C H -0.2049(8) 0.0390(3) -0.3940(3)
H7C H -0.2504(10) 0.2670(3) -0.2700(3)
H4C H -0.2152(7) 0.4550(3) -0.0720(3)
loop_
_geom_bond_atom_site_label_1
_geom_bond_atom_site_label_2
_geom_bond_site_symmetry_1
_geom_bond_site_symmetry_2
Ca1 O1 1_555 1_555
O1 C1 1_555 1_555
C1 O2 1_555 1_555
N1 C3 1_555 1_555
O2 Ca1D 1_555 1_555
C2 C1 1_555 1_555
C3 C2 1_555 1_555
O3 Ca1 1_555 1_555
C4 C3 1_555 1_555
O4 Ca1 1_555 1_555
C5 C4 1_555 1_555
C6 C5 1_555 1_555
C7 C2 1_555 1_555
H1 N1 1_555 1_555
H2 N1 1_555 1_555
H3 O3 1_555 1_555
H4 C4 1_555 1_555
H5 O4 1_555 1_555
H6 O4 1_555 1_555
H7 C5 1_555 1_555
H8 C6 1_555 1_555
H9 C7 1_555 1_555
O2D Ca1 1_555 1_555
O1C Ca1 1_555 1_555
C1C O1C 1_555 1_555
O2C C1C 1_555 1_555
Ca1G O2C 1_555 1_555
O2G Ca1 1_555 1_555
H3C O3 1_555 1_555
O4C Ca1 1_555 1_555
H5C O4C 1_555 1_555
H6C O4C 1_555 1_555
C2C C1C 1_555 1_555
C3C C2C 1_555 1_555
N1C C3C 1_555 1_555
H1C N1C 1_555 1_555
H2C N1C 1_555 1_555
C4C C3C 1_555 1_555
C5C C4C 1_555 1_555
C6C C5C 1_555 1_555
C7C C2C 1_555 1_555
H9C C7C 1_555 1_555
H8C C6C 1_555 1_555
H7C C5C 1_555 1_555
H4C C4C 1_555 1_555
C6 C7 1_555 1_555
C6C C7C 1_555 1_555

#END
