
#######################################################################
#
#                 Cambridge Crystallographic Data Centre
#                                CCDC 
#
#######################################################################
#
# If this CIF has been generated from an entry in the Cambridge 
# Structural Database, then it will include bibliographic, chemical, 
# crystal, experimental, refinement or atomic coordinate data resulting 
# from the CCDC's data processing and validation procedures.
#
#######################################################################

data_XEQNEM
_symmetry_cell_setting           monoclinic
_symmetry_space_group_name_H-M   'P 21/c'
_symmetry_Int_Tables_number      14
_space_group_name_Hall           '-P 2ybc'
loop_
_symmetry_equiv_pos_site_id
_symmetry_equiv_pos_as_xyz
1 x,y,z
2 -x,1/2+y,1/2-z
3 -x,-y,-z
4 x,1/2-y,1/2+z
_cell_length_a                   9.489(2)
_cell_length_b                   9.429(2)
_cell_length_c                   12.487(2)
_cell_angle_alpha                90
_cell_angle_beta                 96.77(1)
_cell_angle_gamma                90
_cell_volume                     1109.44
loop_
_atom_site_label
_atom_site_type_symbol
_atom_site_fract_x
_atom_site_fract_y
_atom_site_fract_z
Fe1 Fe -0.1176(1) 0.2074(1) 0.1663(1)
Fe2 Fe 0.1696(1) 0.1816(1) -0.1544(1)
Fe3 Fe 0.0001 0.0000 0.0000
O1 O -0.1287(3) 0.1926(3) -0.0127(2)
O2 O -0.0508(3) 0.2724(3) -0.1627(2)
O3 O 0.1317(3) 0.2533(3) 0.1772(2)
O4 O -0.0530(3) 0.0043(3) 0.1605(2)
O5 O -0.1674(3) -0.1390(3) -0.0277(2)
O6 O -0.6420(3) 0.0776(4) -0.1526(2)
O7 O -0.6652(3) -0.1582(3) -0.1608(2)
O8 O -0.1500(3) 0.4225(3) 0.1625(2)
O9 O -0.2528(4) 0.6259(4) 0.1096(3)
C1 C -0.2333(4) 0.4963(4) 0.0988(3)
C2 C -0.1275(4) 0.2831(4) -0.0870(3)
C3 C 0.2137(4) 0.2012(4) 0.1154(3)
C4 C -0.5934(4) -0.0465(4) -0.1530(3)
C5 C 0.3725(5) 0.2058(5) 0.1411(4)
C6 C -0.3147(5) 0.4266(5) 0.0015(3)
C7 C -0.4336(5) -0.0562(5) -0.1456(4)
C8 C -0.2216(6) 0.4105(6) -0.0898(4)
O1B O 0.1287(3) -0.1926(3) 0.0127(2)
Fe1B Fe 0.1176(1) -0.2074(1) -0.1663(1)
O2A O 0.0508(3) -0.2276(3) -0.3373(2)
Fe2A Fe -0.1696(1) -0.3184(1) -0.3456(1)
O3B O -0.1317(3) -0.2533(3) -0.1772(2)
O4B O 0.0530(3) -0.0043(3) -0.1605(2)
Fe2C Fe 0.1696(1) 0.3184(1) 0.3456(1)
O2C O -0.0508(3) 0.2276(3) 0.3373(2)
Fe1C Fe -0.1176(1) 0.2926(1) -0.3337(1)
O3C O 0.1317(3) 0.2467(3) -0.3228(2)
O5B O 0.1674(3) 0.1390(3) 0.0277(2)
O6B O -0.3580(3) -0.0776(4) 0.1526(2)
Fe2B Fe -0.1696(1) -0.1816(1) 0.1544(1)
O2B O 0.0508(3) -0.2724(3) 0.1627(2)
O3A O -0.1317(3) -0.2467(3) 0.3228(2)
C3B C -0.2137(4) -0.2012(4) -0.1154(3)
C5B C -0.3725(5) -0.2058(5) -0.1411(4)
Fe2_2 Fe -0.8304(1) 0.1816(1) -0.1544(1)
O7B O -0.3348(3) 0.1582(3) 0.1608(2)
O9_2 O -0.2528(4) -0.3741(4) 0.1096(3)
O6_2 O 0.3580(3) 0.0776(4) -0.1526(2)
O9B O 0.2528(4) 0.3741(4) -0.1096(3)
O7_2 O 0.3348(3) -0.1582(3) -0.1608(2)
O8B O 0.1500(3) -0.4225(3) -0.1625(2)
C2B C 0.1275(4) -0.2831(4) 0.0870(3)
C7B C 0.4336(5) 0.0562(5) 0.1456(4)
C8B C 0.2216(6) -0.4105(6) 0.0898(4)
Fe1A Fe 0.1176(1) -0.2926(1) 0.3337(1)
Fe1B_2 Fe -0.8824(1) -0.2074(1) -0.1663(1)
Fe2B_2 Fe -0.1696(1) 0.8184(1) 0.1544(1)
Fe2_3 Fe 0.1696(1) -0.8184(1) -0.1544(1)
C1B C 0.2333(4) -0.4963(4) -0.0988(3)
C4B C 0.5934(4) 0.0465(4) 0.1530(3)
C6B C 0.3147(5) -0.4266(5) -0.0015(3)
O9B_2 O 0.2528(4) -0.6259(4) -0.1096(3)
O6B_2 O 0.6420(3) -0.0776(4) 0.1526(2)
O7B_2 O 0.6652(3) 0.1582(3) 0.1608(2)
Fe2B_3 Fe 0.8304(1) -0.1816(1) 0.1544(1)
Fe1_2 Fe 0.8824(1) 0.2074(1) 0.1663(1)
loop_
_geom_bond_atom_site_label_1
_geom_bond_atom_site_label_2
_geom_bond_site_symmetry_1
_geom_bond_site_symmetry_2
Fe1 O1 1_555 1_555
Fe2 O2 1_555 1_555
Fe3 O1 1_555 1_555
O1 C2 1_555 1_555
O2 C2 1_555 1_555
O3 Fe1 1_555 1_555
O4 Fe1 1_555 1_555
O5 Fe3 1_555 1_555
O6 C4 1_555 1_555
O7 C4 1_555 1_555
O8 Fe1 1_555 1_555
O9 C1 1_555 1_555
C1 O8 1_555 1_555
C2 C8 1_555 1_555
C3 O3 1_555 1_555
C4 C7 1_555 1_555
C5 C3 1_555 1_555
C6 C1 1_555 1_555
C7 C5B 1_555 1_555
C8 C6 1_555 1_555
O1B Fe3 1_555 1_555
Fe1B O1B 1_555 1_555
O2A Fe1B 1_555 1_555
Fe2A O2A 1_555 1_555
O3B Fe1B 1_555 1_555
O4B Fe2 1_555 1_555
Fe2C O3 1_555 1_555
O2C Fe1 1_555 1_555
Fe1C O2 1_555 1_555
O3C Fe2 1_555 1_555
O5B Fe2 1_555 1_555
O6B Fe2B 1_555 1_555
Fe2B O4 1_555 1_555
O2B Fe2B 1_555 1_555
O3A Fe2B 1_555 1_555
C3B O5 1_555 1_555
C5B C3B 1_555 1_555
Fe2_2 O6 1_555 1_555
O7B Fe1 1_555 1_555
O9_2 Fe2B 1_555 1_555
O6_2 Fe2 1_555 1_555
O9B Fe2 1_555 1_555
O7_2 Fe1B 1_555 1_555
O8B Fe1B 1_555 1_555
C2B O1B 1_555 1_555
C7B C5 1_555 1_555
C8B C2B 1_555 1_555
Fe1A O2B 1_555 1_555
Fe1B_2 O7 1_555 1_555
Fe2B_2 O9 1_555 1_555
Fe2_3 O9B_2 1_555 1_555
C1B O8B 1_555 1_555
C4B C7B 1_555 1_555
C6B C8B 1_555 1_555
O9B_2 C1B 1_555 1_555
O6B_2 C4B 1_555 1_555
O7B_2 C4B 1_555 1_555
Fe2B_3 O6B_2 1_555 1_555
Fe1_2 O7B_2 1_555 1_555
Fe3 O4 1_555 1_555
Fe3 O4B 1_555 1_555
Fe3 O5B 1_555 1_555
O5 Fe2B 1_555 1_555
C3 O5B 1_555 1_555
Fe1B O4B 1_555 1_555
Fe2A O3B 1_555 1_555
O3B C3B 1_555 1_555
Fe2C O2C 1_555 1_555
Fe1C O3C 1_555 1_555
O2B C2B 1_555 1_555
O3A Fe1A 1_555 1_555
C1B C6B 1_555 1_555

#END
