
#######################################################################
#
#                 Cambridge Crystallographic Data Centre
#                                CCDC 
#
#######################################################################
#
# If this CIF has been generated from an entry in the Cambridge 
# Structural Database, then it will include bibliographic, chemical, 
# crystal, experimental, refinement or atomic coordinate data resulting 
# from the CCDC's data processing and validation procedures.
#
#######################################################################

data_XEQNEM02
_symmetry_cell_setting           monoclinic
_symmetry_space_group_name_H-M   'P 21/c'
_symmetry_Int_Tables_number      14
_space_group_name_Hall           '-P 2ybc'
loop_
_symmetry_equiv_pos_site_id
_symmetry_equiv_pos_as_xyz
1 x,y,z
2 -x,1/2+y,1/2-z
3 -x,-y,-z
4 x,1/2-y,1/2+z
_cell_length_a                   9.4796(5)
_cell_length_b                   9.4223(4)
_cell_length_c                   12.4759(6)
_cell_angle_alpha                90
_cell_angle_beta                 96.722(3)
_cell_angle_gamma                90
_cell_volume                     1106.68
loop_
_atom_site_label
_atom_site_type_symbol
_atom_site_fract_x
_atom_site_fract_y
_atom_site_fract_z
Fe1 Fe 0.5000 0.0000 0.0000
Fe2 Fe 0.61737(6) 0.20725(6) -0.16637(4)
Fe3 Fe 0.66951(6) -0.18177(5) -0.15437(4)
O1 O 0.5516(3) 0.0039(3) -0.1605(2)
O2 O 0.6314(3) -0.2534(3) 0.1772(2)
O3 O 1.1658(3) -0.1581(3) 0.1609(3)
O4 O 0.6486(3) 0.4223(3) -0.1628(2)
O5 O 0.7528(4) 0.6256(3) -0.1105(3)
O6 O 0.5505(3) 0.2725(3) 0.1625(2)
O7 O 0.6283(3) 0.1921(3) 0.0123(2)
O8 O 0.6673(3) -0.1391(3) 0.0271(2)
O9 O 1.1415(3) 0.0781(3) 0.1529(3)
C1 C 0.7342(4) 0.4960(4) -0.0990(3)
C2 C 0.7231(7) 0.4097(6) 0.0892(4)
H1 H 0.7848 0.4077 0.1569
H2 H 0.6645 0.4941 0.0899
C3 C 0.6271(4) 0.2825(4) 0.0862(3)
C4 C 0.8156(5) 0.4255(5) -0.0014(3)
H3 H 0.8985 0.4821 0.0235
H4 H 0.8480 0.3327 -0.0216
C5 C 0.7138(4) -0.2013(4) 0.1150(3)
C6 C 0.8728(4) -0.2059(4) 0.1409(4)
H5 H 0.9136 -0.2602 0.0862
H6 H 0.8975 -0.2524 0.2099
C7 C 0.9331(5) -0.0562(5) 0.1454(4)
H7 H 0.8932 -0.0058 0.0811
H8 H 0.9017 -0.0079 0.2071
C8 C 1.0930(4) -0.0461(4) 0.1535(3)
Fe2B Fe 0.38263(6) -0.20725(6) 0.16637(4)
Fe3B Fe 0.33049(6) 0.18177(5) 0.15437(4)
O1B O 0.4484(3) -0.0039(3) 0.1605(2)
O2B O 0.3686(3) 0.2534(3) -0.1772(2)
O3B O -0.1658(3) 0.1581(3) -0.1609(3)
O4B O 0.3514(3) -0.4223(3) 0.1628(2)
O5B O 0.2472(4) -0.6256(3) 0.1105(3)
O6B O 0.4495(3) -0.2725(3) -0.1625(2)
O7B O 0.3717(3) -0.1921(3) -0.0123(2)
O8B O 0.3327(3) 0.1391(3) -0.0271(2)
O9B O -0.1415(3) -0.0781(3) -0.1529(3)
C1B C 0.2658(4) -0.4960(4) 0.0990(3)
C2B C 0.2769(7) -0.4097(6) -0.0892(4)
H1B H 0.2152 -0.4077 -0.1569
H2B H 0.3355 -0.4941 -0.0899
C3B C 0.3729(4) -0.2825(4) -0.0862(3)
C4B C 0.1844(5) -0.4255(5) 0.0014(3)
H3B H 0.1015 -0.4821 -0.0235
H4B H 0.1520 -0.3327 0.0216
C5B C 0.2862(4) 0.2013(4) -0.1150(3)
C6B C 0.1272(4) 0.2059(4) -0.1409(4)
H5B H 0.0864 0.2602 -0.0862
H6B H 0.1025 0.2524 -0.2099
C7B C 0.0669(5) 0.0562(5) -0.1454(4)
H7B H 0.1068 0.0058 -0.0811
H8B H 0.0983 0.0079 -0.2071
C8B C -0.0930(4) 0.0461(4) -0.1535(3)
Fe2_2 Fe -0.38263(6) 0.20725(6) -0.16637(4)
Fe2A Fe 0.38263(6) -0.29275(6) -0.33363(4)
Fe2B_2 Fe 1.38263(6) -0.20725(6) 0.16637(4)
Fe2C Fe 0.61737(6) 0.29275(6) 0.33363(4)
Fe3_2 Fe -0.33049(6) -0.18177(5) -0.15437(4)
Fe3_3 Fe 0.66951(6) 0.81823(5) -0.15437(4)
Fe3A Fe 0.33049(6) 0.31823(5) -0.34563(4)
Fe3B_2 Fe 0.33049(6) -0.81823(5) 0.15437(4)
Fe3B_3 Fe 1.33049(6) 0.18177(5) 0.15437(4)
Fe3C Fe 0.66951(6) -0.31823(5) 0.34563(4)
O2A O 0.3686(3) 0.2466(3) 0.3228(2)
O2C O 0.6314(3) -0.2466(3) -0.3228(2)
O3_2 O 0.1658(3) -0.1581(3) 0.1609(3)
O3B_2 O 0.8342(3) 0.1581(3) -0.1609(3)
O5_2 O 0.7528(4) -0.3744(3) -0.1105(3)
O5B_2 O 0.2472(4) 0.3744(3) 0.1105(3)
O6A O 0.4495(3) -0.2275(3) 0.3375(2)
O6C O 0.5505(3) 0.2275(3) -0.3375(2)
O9_2 O 0.1415(3) 0.0781(3) 0.1529(3)
O9B_2 O 0.8585(3) -0.0781(3) -0.1529(3)
loop_
_geom_bond_atom_site_label_1
_geom_bond_atom_site_label_2
_geom_bond_site_symmetry_1
_geom_bond_site_symmetry_2
Fe1 O1 1_555 1_555
Fe2 O1 1_555 1_555
Fe3 O1 1_555 1_555
O2 C5 1_555 1_555
O3 C8 1_555 1_555
O4 Fe2 1_555 1_555
O5 C1 1_555 1_555
O6 C3 1_555 1_555
O7 Fe1 1_555 1_555
O8 Fe1 1_555 1_555
O9 C8 1_555 1_555
C1 O4 1_555 1_555
C2 H1 1_555 1_555
H2 C2 1_555 1_555
C3 O7 1_555 1_555
C4 C1 1_555 1_555
H3 C4 1_555 1_555
H4 C4 1_555 1_555
C5 O8 1_555 1_555
C6 C5 1_555 1_555
H5 C6 1_555 1_555
H6 C6 1_555 1_555
C7 C6 1_555 1_555
H7 C7 1_555 1_555
H8 C7 1_555 1_555
C8 C7 1_555 1_555
Fe2B O2 1_555 1_555
Fe3B O6 1_555 1_555
O1B Fe1 1_555 1_555
O2B Fe2 1_555 1_555
O3B C8B 1_555 1_555
O4B Fe2B 1_555 1_555
O5B C1B 1_555 1_555
O6B Fe3 1_555 1_555
O7B Fe1 1_555 1_555
O8B Fe1 1_555 1_555
O9B C8B 1_555 1_555
C1B O4B 1_555 1_555
C2B H1B 1_555 1_555
H2B C2B 1_555 1_555
C3B O6B 1_555 1_555
C4B C1B 1_555 1_555
H3B C4B 1_555 1_555
H4B C4B 1_555 1_555
C5B O2B 1_555 1_555
C6B C5B 1_555 1_555
H5B C6B 1_555 1_555
H6B C6B 1_555 1_555
C7B C6B 1_555 1_555
H7B C7B 1_555 1_555
H8B C7B 1_555 1_555
C8B C7B 1_555 1_555
Fe2_2 O3B 1_555 1_555
Fe2A O6B 1_555 1_555
Fe2B_2 O3 1_555 1_555
Fe2C O6 1_555 1_555
Fe3_2 O9B 1_555 1_555
Fe3_3 O5 1_555 1_555
Fe3A O2B 1_555 1_555
Fe3B_2 O5B 1_555 1_555
Fe3B_3 O9 1_555 1_555
Fe3C O2 1_555 1_555
O2A Fe3B 1_555 1_555
O2C Fe3 1_555 1_555
O3_2 Fe2B 1_555 1_555
O3B_2 Fe2 1_555 1_555
O5_2 Fe3 1_555 1_555
O5B_2 Fe3B 1_555 1_555
O6A Fe2B 1_555 1_555
O6C Fe2 1_555 1_555
O9_2 Fe3B 1_555 1_555
O9B_2 Fe3 1_555 1_555
Fe2 O7 1_555 1_555
Fe3 O8 1_555 1_555
C2 C3 1_555 1_555
C2 C4 1_555 1_555
Fe2B O1B 1_555 1_555
Fe2B O7B 1_555 1_555
Fe3B O1B 1_555 1_555
Fe3B O8B 1_555 1_555
O7B C3B 1_555 1_555
O8B C5B 1_555 1_555
C2B C3B 1_555 1_555
C2B C4B 1_555 1_555
Fe2A O2C 1_555 1_555
Fe2C O2A 1_555 1_555
Fe3A O6C 1_555 1_555
Fe3C O6A 1_555 1_555

#END
