
#######################################################################
#
#                 Cambridge Crystallographic Data Centre
#                                CCDC 
#
#######################################################################
#
# If this CIF has been generated from an entry in the Cambridge 
# Structural Database, then it will include bibliographic, chemical, 
# crystal, experimental, refinement or atomic coordinate data resulting 
# from the CCDC's data processing and validation procedures.
#
#######################################################################

data_XEQTAP
_symmetry_cell_setting           monoclinic
_symmetry_space_group_name_H-M   'C 2/c'
_symmetry_Int_Tables_number      15
_space_group_name_Hall           '-C 2yn'
loop_
_symmetry_equiv_pos_site_id
_symmetry_equiv_pos_as_xyz
1 x,y,z
2 1/2+x,1/2+y,z
3 -x,y,1/2-z
4 1/2-x,1/2+y,1/2-z
5 -x,-y,-z
6 1/2-x,1/2-y,-z
7 x,-y,1/2+z
8 1/2+x,1/2-y,1/2+z
_cell_length_a                   10.5339(17)
_cell_length_b                   14.565(2)
_cell_length_c                   16.131(3)
_cell_angle_alpha                90
_cell_angle_beta                 102.799(2)
_cell_angle_gamma                90
_cell_volume                     2413.43
loop_
_atom_site_label
_atom_site_type_symbol
_atom_site_fract_x
_atom_site_fract_y
_atom_site_fract_z
Ni1 Ni 0.5000 0.27666(3) 0.7500
N1 N 0.4814(3) 0.3698(2) 0.8460(2)
H1 H 0.4632 0.3352 0.8890
N2 N 0.7033(3) 0.3105(2) 0.7945(2)
H2 H 0.7513 0.2581 0.7994
N3 N 0.5095(3) 0.16714(18) 0.66240(17)
C1 C 0.3677(4) 0.4297(3) 0.8174(3)
H3 H 0.3889 0.4782 0.7815
H4 H 0.3430 0.4577 0.8660
C2 C 0.6041(5) 0.4166(3) 0.8819(3)
H5 H 0.6063 0.4352 0.9400
H6 H 0.6122 0.4711 0.8489
C3 C 0.7146(4) 0.3513(3) 0.8800(3)
H7 H 0.7966 0.3840 0.8962
H8 H 0.7148 0.3027 0.9211
C4 C 0.2557(4) 0.3723(3) 0.7677(3)
H9 H 0.2196 0.3357 0.8072
H10 H 0.1877 0.4128 0.7379
C5 C 0.6090(3) 0.1544(2) 0.6252(3)
H11 H 0.6826 0.1907 0.6429
C6 C 0.6097(3) 0.0907(2) 0.5620(3)
H12 H 0.6816 0.0858 0.5377
C7 C 0.5026(3) 0.03383(19) 0.53486(19)
C8 C 0.4012(3) 0.0448(3) 0.5762(2)
H13 H 0.3282 0.0072 0.5619
C9 C 0.4075(3) 0.1103(3) 0.6379(2)
H14 H 0.3378 0.1157 0.6643
Ni1F Ni 0.5000 -0.27666(3) 0.2500
N1B N 0.5186(3) 0.3698(2) 0.6540(2)
H1B H 0.5368 0.3352 0.6110
N2B N 0.2967(3) 0.3105(2) 0.7055(2)
H2B H 0.2487 0.2581 0.7006
N3D N 0.4905(3) -0.16714(18) 0.33760(17)
N3B N 0.4905(3) 0.16714(18) 0.83760(17)
C1B C 0.6323(4) 0.4297(3) 0.6826(3)
H3B H 0.6111 0.4782 0.7185
H4B H 0.6570 0.4577 0.6340
C2B C 0.3959(5) 0.4166(3) 0.6181(3)
H5B H 0.3937 0.4352 0.5600
H6B H 0.3878 0.4711 0.6511
C3B C 0.2854(4) 0.3513(3) 0.6200(3)
H7B H 0.2034 0.3840 0.6038
H8B H 0.2852 0.3027 0.5789
C4B C 0.7443(4) 0.3723(3) 0.7323(3)
H9B H 0.7804 0.3357 0.6928
H10B H 0.8123 0.4128 0.7621
C5D C 0.3910(3) -0.1544(2) 0.3748(3)
H11D H 0.3174 -0.1907 0.3571
C6D C 0.3903(3) -0.0907(2) 0.4380(3)
H12D H 0.3184 -0.0858 0.4623
C7D C 0.4974(3) -0.03383(19) 0.46514(19)
C8D C 0.5988(3) -0.0448(3) 0.4238(2)
H13D H 0.6718 -0.0072 0.4381
C9D C 0.5925(3) -0.1103(3) 0.3621(2)
H14D H 0.6622 -0.1157 0.3357
Cl1 Cl 0.48102(12) 0.31002(10) 0.09189(10)
O1 O 0.4268(15) 0.2307(8) 0.1122(11)
O2 O 0.4094(10) 0.3749(7) 0.0311(7)
O3 O 0.5926(9) 0.3457(7) 0.1499(6)
O4 O 0.5582(11) 0.2716(7) 0.0270(6)
O5? O 0.4805(9) 0.2144(4) 0.1147(7)
O6? O 0.4118(6) 0.3542(5) 0.1554(4)
O7? O 0.6050(6) 0.3467(7) 0.1061(7)
O8? O 0.3916(8) 0.3285(7) 0.0131(5)
loop_
_geom_bond_atom_site_label_1
_geom_bond_atom_site_label_2
_geom_bond_site_symmetry_1
_geom_bond_site_symmetry_2
Ni1 N1 1_555 1_555
N1 H1 1_555 1_555
N2 Ni1 1_555 1_555
H2 N2 1_555 1_555
N3 Ni1 1_555 1_555
C1 N1 1_555 1_555
H3 C1 1_555 1_555
H4 C1 1_555 1_555
C2 N1 1_555 1_555
H5 C2 1_555 1_555
H6 C2 1_555 1_555
C3 N2 1_555 1_555
H7 C3 1_555 1_555
H8 C3 1_555 1_555
C4 C1 1_555 1_555
H9 C4 1_555 1_555
H10 C4 1_555 1_555
C5 N3 1_555 1_555
H11 C5 1_555 1_555
C6 C5 1_555 1_555
H12 C6 1_555 1_555
C7 C6 1_555 1_555
C8 C7 1_555 1_555
H13 C8 1_555 1_555
C9 N3 1_555 1_555
H14 C9 1_555 1_555
Cl1 O1 1_555 1_555
O2 Cl1 1_555 1_555
O3 Cl1 1_555 1_555
O4 Cl1 1_555 1_555
Ni1F N3D 1_555 1_555
N1B Ni1 1_555 1_555
H1B N1B 1_555 1_555
N2B Ni1 1_555 1_555
H2B N2B 1_555 1_555
N3D C5D 1_555 1_555
N3B Ni1 1_555 1_555
C1B N1B 1_555 1_555
H3B C1B 1_555 1_555
H4B C1B 1_555 1_555
C2B N1B 1_555 1_555
H5B C2B 1_555 1_555
H6B C2B 1_555 1_555
C3B N2B 1_555 1_555
H7B C3B 1_555 1_555
H8B C3B 1_555 1_555
C4B N2 1_555 1_555
H9B C4B 1_555 1_555
H10B C4B 1_555 1_555
C5D H11D 1_555 1_555
C6D C5D 1_555 1_555
H12D C6D 1_555 1_555
C7D C7 1_555 1_555
C8D C7D 1_555 1_555
H13D C8D 1_555 1_555
C9D N3D 1_555 1_555
H14D C9D 1_555 1_555
C2 C3 1_555 1_555
C4 N2B 1_555 1_555
C8 C9 1_555 1_555
C1B C4B 1_555 1_555
C2B C3B 1_555 1_555
C6D C7D 1_555 1_555
C8D C9D 1_555 1_555

#END
