
#######################################################################
#
#                 Cambridge Crystallographic Data Centre
#                                CCDC 
#
#######################################################################
#
# If this CIF has been generated from an entry in the Cambridge 
# Structural Database, then it will include bibliographic, chemical, 
# crystal, experimental, refinement or atomic coordinate data resulting 
# from the CCDC's data processing and validation procedures.
#
#######################################################################

data_XERHUX
_symmetry_cell_setting           orthorhombic
_symmetry_space_group_name_H-M   'P n n m'
_symmetry_Int_Tables_number      58
_space_group_name_Hall           '-P 2 2n'
loop_
_symmetry_equiv_pos_site_id
_symmetry_equiv_pos_as_xyz
1 x,y,z
2 -x,-y,z
3 1/2+x,1/2-y,1/2-z
4 1/2-x,1/2+y,1/2-z
5 -x,-y,-z
6 x,y,-z
7 1/2-x,1/2+y,1/2+z
8 1/2+x,1/2-y,1/2+z
_cell_length_a                   12.420(3)
_cell_length_b                   16.501(4)
_cell_length_c                   6.980(4)
_cell_angle_alpha                90
_cell_angle_beta                 90
_cell_angle_gamma                90
_cell_volume                     1430.5
loop_
_atom_site_label
_atom_site_type_symbol
_atom_site_fract_x
_atom_site_fract_y
_atom_site_fract_z
Rb1 Rb -0.2996(1) 0.2875(1) 0.0000
La1 La -0.4384(1) 0.3774(1) 0.5000
O1 O -0.4269(4) 0.2355(2) 0.3449(5)
C1 C -0.4342(6) 0.1986(5) 0.5000
C2 C -0.4555(10) 0.1059(6) 0.5000
O2 O -0.2503(3) 0.3677(3) 0.3445(5)
C3 C -0.2028(5) 0.3579(5) 0.5000
C4 C -0.0875(8) 0.3336(11) 0.5000
O3 O -0.1082(3) 0.0252(3) 0.0000
O4 O -0.1443(4) 0.1555(3) 0.0000
C5 C -0.1749(5) 0.0834(4) 0.0000
C6 C -0.2930(6) 0.0647(6) 0.0000
O5 O -0.4746(3) 0.3947(2) 0.1568(4)
C7 C -0.5224(6) 0.4007(4) 0.0000
C8 C -0.6413(7) 0.4146(8) 0.0000
O1E O -0.4269(4) 0.2355(2) -0.3449(5)
La1_2 La -0.4384(1) 0.3774(1) -0.5000
O2E O -0.2503(3) 0.3677(3) -0.3445(5)
O1E_2 O -0.4269(4) 0.2355(2) 0.6551(5)
O2E_2 O -0.2503(3) 0.3677(3) 0.6555(5)
O3C O -0.3918(3) 0.5252(3) 0.5000
O3B O -0.6082(3) 0.4748(3) 0.5000
O4B O -0.6443(4) 0.3445(3) 0.5000
La1B La 0.0616(1) 0.1226(1) 0.0000
La1C La -0.0616(1) -0.1226(1) 0.0000
O5E O -0.4746(3) 0.3947(2) -0.1568(4)
O5E_2 O -0.4746(3) 0.3947(2) 0.8432(4)
Rb1_2 Rb -0.2996(1) 0.2875(1) 1.0000
loop_
_geom_bond_atom_site_label_1
_geom_bond_atom_site_label_2
_geom_bond_site_symmetry_1
_geom_bond_site_symmetry_2
Rb1 O1 1_555 1_555
La1 O1 1_555 1_555
O1 C1 1_555 1_555
C1 C2 1_555 1_555
O2 Rb1 1_555 1_555
C3 O2 1_555 1_555
C4 C3 1_555 1_555
O3 C5 1_555 1_555
O4 Rb1 1_555 1_555
C5 O4 1_555 1_555
C6 C5 1_555 1_555
O5 Rb1 1_555 1_555
C7 O5 1_555 1_555
C8 C7 1_555 1_555
O1E Rb1 1_555 1_555
La1_2 O1E 1_555 1_555
O2E Rb1 1_555 1_555
O1E_2 La1 1_555 1_555
O2E_2 La1 1_555 1_555
O3C La1 1_555 1_555
O3B La1 1_555 1_555
O4B La1 1_555 1_555
La1B O3 1_555 1_555
La1C O3 1_555 1_555
O5E Rb1 1_555 1_555
O5E_2 La1 1_555 1_555
Rb1_2 O1E_2 1_555 1_555
La1 O5 1_555 1_555
La1 O2 1_555 1_555
C1 O1E_2 1_555 1_555
C3 O2E_2 1_555 1_555
O4 La1B 1_555 1_555
C7 O5E 1_555 1_555
La1_2 O2E 1_555 1_555
La1_2 O5E 1_555 1_555
O2E_2 Rb1_2 1_555 1_555
O5E_2 Rb1_2 1_555 1_555

#END
