
#######################################################################
#
#                 Cambridge Crystallographic Data Centre
#                                CCDC 
#
#######################################################################
#
# If this CIF has been generated from an entry in the Cambridge 
# Structural Database, then it will include bibliographic, chemical, 
# crystal, experimental, refinement or atomic coordinate data resulting 
# from the CCDC's data processing and validation procedures.
#
#######################################################################

data_XERMIR
_symmetry_cell_setting           monoclinic
_symmetry_space_group_name_H-M   'C 2/c'
_symmetry_Int_Tables_number      15
_space_group_name_Hall           '-C 2yn'
loop_
_symmetry_equiv_pos_site_id
_symmetry_equiv_pos_as_xyz
1 x,y,z
2 1/2+x,1/2+y,z
3 -x,y,1/2-z
4 1/2-x,1/2+y,1/2-z
5 -x,-y,-z
6 1/2-x,1/2-y,-z
7 x,-y,1/2+z
8 1/2+x,1/2-y,1/2+z
_cell_length_a                   15.1415(4)
_cell_length_b                   14.9749(4)
_cell_length_c                   18.3887(5)
_cell_angle_alpha                90
_cell_angle_beta                 114.129(1)
_cell_angle_gamma                90
_cell_volume                     3805.2
loop_
_atom_site_label
_atom_site_type_symbol
_atom_site_fract_x
_atom_site_fract_y
_atom_site_fract_z
La1 La 0.5000 0.070023(6) 0.2500
P1 P 0.59122(2) 0.10107(2) 0.082619(18)
P2 P 0.33153(2) 0.26534(2) 0.129724(19)
O1 O 0.54663(7) 0.10823(7) 0.14038(6)
O2 O 0.55907(8) 0.18435(7) 0.02621(6)
O3 O 0.70432(7) 0.10617(7) 0.11933(7)
O4 O 0.39618(7) 0.20299(6) 0.19054(6)
O5 O 0.37981(7) 0.35640(7) 0.12455(7)
O6 O 0.24297(8) 0.30023(8) 0.14437(7)
O7 O 0.69227(8) 0.03607(8) 0.29489(7)
O8 O 0.63538(8) 0.00986(8) 0.38281(6)
O9 O 0.78897(10) -0.00384(14) 0.41487(10)
O10 O 0.45998(9) -0.09133(7) 0.28714(7)
O11 O 0.5000 -0.21753(11) 0.2500
N1 N 0.70808(9) 0.01356(9) 0.36489(8)
N2 N 0.5000 -0.13561(11) 0.2500
C1 C 0.55516(10) 0.00126(9) 0.02405(8)
H1 H 0.5877 -0.0015 -0.0129
H2 H 0.5756 -0.0515 0.0595
C2 C 0.28404(12) 0.21789(10) 0.03185(8)
H3 H 0.3384 0.2014 0.0178
H4 H 0.2482 0.1626 0.0319
C3 C 0.59728(17) 0.20137(13) -0.03395(11)
H5 H 0.5559 0.1719 -0.0847
H6 H 0.6636 0.1769 -0.0159
C4 C 0.5986(3) 0.29864(17) -0.04594(18)
H7 H 0.5336 0.3230 -0.0600
H8 H 0.6191 0.3108 -0.0891
H9 H 0.6440 0.3267 0.0033
C5 C 0.76657(12) 0.02779(11) 0.14635(11)
H10 H 0.7798 0.0032 0.1018
H11 H 0.7337 -0.0189 0.1643
C6 C 0.85946(12) 0.05355(12) 0.21350(11)
H12 H 0.8875 0.1050 0.1977
H13 H 0.9048 0.0033 0.2267
H14 H 0.8470 0.0692 0.2602
C7 C 0.47729(13) 0.35698(12) 0.12635(13)
H15 H 0.4869 0.3035 0.0987
H16 H 0.5261 0.3560 0.1822
C8 C 0.48852(15) 0.43956(14) 0.08567(14)
H17 H 0.4412 0.4391 0.0300
H18 H 0.5541 0.4418 0.0874
H19 H 0.4777 0.4921 0.1128
C9 C 0.21024(12) 0.25783(11) 0.20105(11)
H20 H 0.2288 0.1940 0.2070
H21 H 0.1388 0.2613 0.1801
C10 C 0.25380(14) 0.30244(13) 0.28018(11)
H22 H 0.3238 0.2922 0.3040
H23 H 0.2253 0.2778 0.3151
H24 H 0.2409 0.3667 0.2736
La1F La 0.5000 -0.070023(6) -0.2500
La1G La 0.0000 0.429977(6) -0.2500
P1D P 0.40878(2) -0.10107(2) -0.082619(18)
P2E P 0.16847(2) 0.23466(2) -0.129724(19)
O1D O 0.45337(7) -0.10823(7) -0.14038(6)
O1B O 0.45337(7) 0.10823(7) 0.35962(6)
O2D O 0.44093(8) -0.18435(7) -0.02621(6)
O3D O 0.29568(7) -0.10617(7) -0.11933(7)
O4E O 0.10382(7) 0.29701(6) -0.19054(6)
O4B O 0.60382(7) 0.20299(6) 0.30946(6)
O5E O 0.12019(7) 0.14360(7) -0.12455(7)
O6E O 0.25703(8) 0.19977(8) -0.14437(7)
O7B O 0.30773(8) 0.03607(8) 0.20511(7)
O8B O 0.36462(8) 0.00986(8) 0.11719(6)
O9B O 0.21103(10) -0.00384(14) 0.08513(10)
O10B O 0.54002(9) -0.09133(7) 0.21286(7)
N1B N 0.29192(9) 0.01356(9) 0.13511(8)
C1D C 0.44484(10) -0.00126(9) -0.02405(8)
H1D H 0.4123 0.0015 0.0129
H2D H 0.4244 0.0515 -0.0595
C2E C 0.21596(12) 0.28211(10) -0.03185(8)
H3E H 0.1616 0.2986 -0.0178
H4E H 0.2518 0.3374 -0.0319
C3D C 0.40272(17) -0.20137(13) 0.03395(11)
H5D H 0.4441 -0.1719 0.0847
H6D H 0.3364 -0.1769 0.0159
C4D C 0.4014(3) -0.29864(17) 0.04594(18)
H7D H 0.4664 -0.3230 0.0600
H8D H 0.3809 -0.3108 0.0891
H9D H 0.3560 -0.3267 -0.0033
C5D C 0.23343(12) -0.02779(11) -0.14635(11)
H10D H 0.2202 -0.0032 -0.1018
H11D H 0.2663 0.0189 -0.1643
C6D C 0.14054(12) -0.05355(12) -0.21350(11)
H12D H 0.1125 -0.1050 -0.1977
H13D H 0.0952 -0.0033 -0.2267
H14D H 0.1530 -0.0692 -0.2602
C7E C 0.02271(13) 0.14302(12) -0.12635(13)
H15E H 0.0131 0.1965 -0.0987
H16E H -0.0261 0.1440 -0.1822
C8E C 0.01148(15) 0.06044(14) -0.08567(14)
H17E H 0.0588 0.0609 -0.0300
H18E H -0.0541 0.0582 -0.0874
H19E H 0.0223 0.0079 -0.1128
C9E C 0.28976(12) 0.24217(11) -0.20105(11)
H20E H 0.2712 0.3060 -0.2070
H21E H 0.3612 0.2387 -0.1801
C10E C 0.24620(14) 0.19756(13) -0.28018(11)
H22E H 0.1762 0.2078 -0.3040
H23E H 0.2747 0.2222 -0.3151
H24E H 0.2591 0.1333 -0.2736
loop_
_geom_bond_atom_site_label_1
_geom_bond_atom_site_label_2
_geom_bond_site_symmetry_1
_geom_bond_site_symmetry_2
La1 O1 1_555 1_555
P1 O1 1_555 1_555
P2 O4 1_555 1_555
O2 P1 1_555 1_555
O3 P1 1_555 1_555
O4 La1 1_555 1_555
O5 P2 1_555 1_555
O6 P2 1_555 1_555
O7 La1 1_555 1_555
O8 La1 1_555 1_555
O9 N1 1_555 1_555
O10 La1 1_555 1_555
O11 N2 1_555 1_555
N1 O7 1_555 1_555
N2 O10 1_555 1_555
C1 P1 1_555 1_555
H1 C1 1_555 1_555
H2 C1 1_555 1_555
C2 P2 1_555 1_555
H3 C2 1_555 1_555
H4 C2 1_555 1_555
C3 O2 1_555 1_555
H5 C3 1_555 1_555
H6 C3 1_555 1_555
C4 C3 1_555 1_555
H7 C4 1_555 1_555
H8 C4 1_555 1_555
H9 C4 1_555 1_555
C5 O3 1_555 1_555
H10 C5 1_555 1_555
H11 C5 1_555 1_555
C6 C5 1_555 1_555
H12 C6 1_555 1_555
H13 C6 1_555 1_555
H14 C6 1_555 1_555
C7 O5 1_555 1_555
H15 C7 1_555 1_555
H16 C7 1_555 1_555
C8 C7 1_555 1_555
H17 C8 1_555 1_555
H18 C8 1_555 1_555
H19 C8 1_555 1_555
C9 O6 1_555 1_555
H20 C9 1_555 1_555
H21 C9 1_555 1_555
C10 C9 1_555 1_555
H22 C10 1_555 1_555
H23 C10 1_555 1_555
H24 C10 1_555 1_555
La1F O1D 1_555 1_555
La1G O4E 1_555 1_555
P1D O1D 1_555 1_555
P2E O4E 1_555 1_555
O1B La1 1_555 1_555
O2D P1D 1_555 1_555
O3D P1D 1_555 1_555
O4B La1 1_555 1_555
O5E P2E 1_555 1_555
O6E P2E 1_555 1_555
O7B La1 1_555 1_555
O8B La1 1_555 1_555
O9B N1B 1_555 1_555
O10B La1 1_555 1_555
N1B O7B 1_555 1_555
C1D C1 1_555 1_555
H1D C1D 1_555 1_555
H2D C1D 1_555 1_555
C2E C2 1_555 1_555
H3E C2E 1_555 1_555
H4E C2E 1_555 1_555
C3D O2D 1_555 1_555
H5D C3D 1_555 1_555
H6D C3D 1_555 1_555
C4D C3D 1_555 1_555
H7D C4D 1_555 1_555
H8D C4D 1_555 1_555
H9D C4D 1_555 1_555
C5D O3D 1_555 1_555
H10D C5D 1_555 1_555
H11D C5D 1_555 1_555
C6D C5D 1_555 1_555
H12D C6D 1_555 1_555
H13D C6D 1_555 1_555
H14D C6D 1_555 1_555
C7E O5E 1_555 1_555
H15E C7E 1_555 1_555
H16E C7E 1_555 1_555
C8E C7E 1_555 1_555
H17E C8E 1_555 1_555
H18E C8E 1_555 1_555
H19E C8E 1_555 1_555
C9E O6E 1_555 1_555
H20E C9E 1_555 1_555
H21E C9E 1_555 1_555
C10E C9E 1_555 1_555
H22E C10E 1_555 1_555
H23E C10E 1_555 1_555
H24E C10E 1_555 1_555
O8 N1 1_555 1_555
N2 O10B 1_555 1_555
P1D C1D 1_555 1_555
P2E C2E 1_555 1_555
O8B N1B 1_555 1_555

#END
