
#######################################################################
#
#                 Cambridge Crystallographic Data Centre
#                                CCDC 
#
#######################################################################
#
# If this CIF has been generated from an entry in the Cambridge 
# Structural Database, then it will include bibliographic, chemical, 
# crystal, experimental, refinement or atomic coordinate data resulting 
# from the CCDC's data processing and validation procedures.
#
#######################################################################

data_XERMUE
_symmetry_cell_setting           monoclinic
_symmetry_space_group_name_H-M   'P 21/n'
_symmetry_Int_Tables_number      14
_space_group_name_Hall           '-P 2yn'
loop_
_symmetry_equiv_pos_site_id
_symmetry_equiv_pos_as_xyz
1 x,y,z
2 1/2-x,1/2+y,1/2-z
3 -x,-y,-z
4 1/2+x,1/2-y,1/2+z
_cell_length_a                   9.3200(19)
_cell_length_b                   16.041(3)
_cell_length_c                   14.167(3)
_cell_angle_alpha                90
_cell_angle_beta                 107.49(3)
_cell_angle_gamma                90
_cell_volume                     2020.08
loop_
_atom_site_label
_atom_site_type_symbol
_atom_site_fract_x
_atom_site_fract_y
_atom_site_fract_z
C1 C 0.7652(3) 0.06998(15) 0.10916(18)
H1 H 0.7200 0.0192 0.1141
C2 C 0.8940(3) 0.06981(15) 0.07885(19)
H2 H 0.9354 0.0199 0.0662
C3 C 0.9588(2) 0.14440(15) 0.06799(18)
H3 H 1.0426 0.1459 0.0453
C4 C 0.8975(2) 0.21849(13) 0.09151(15)
C5 C 0.9540(2) 0.29997(14) 0.08681(16)
C6 C 1.0838(3) 0.40986(16) 0.07352(18)
H4 H 1.1587 0.4429 0.0618
C7 C 0.8900(2) 0.37107(13) 0.11074(16)
C8 C 0.7578(2) 0.36700(13) 0.14240(18)
C9 C 0.6845(3) 0.43679(16) 0.1662(2)
H5 H 0.7197 0.4903 0.1610
C10 C 0.5609(3) 0.42478(16) 0.1972(3)
H6 H 0.5114 0.4701 0.2142
C11 C 0.5101(3) 0.34484(16) 0.2031(3)
H7 H 0.4246 0.3378 0.2231
C12 C 0.6995(2) 0.28771(13) 0.15045(15)
C13 C 0.7682(2) 0.21267(13) 0.12419(15)
C14 C 0.2879(2) -0.33203(13) 0.21980(16)
C15 C 0.3599(2) -0.27073(13) 0.16931(15)
C16 C 0.3253(2) -0.18707(13) 0.17488(15)
H8 H 0.2539 -0.1720 0.2056
C17 C 0.3947(2) -0.12566(12) 0.13567(15)
C18 C 0.5013(2) -0.14936(13) 0.08948(15)
H9 H 0.5487 -0.1088 0.0627
C19 C 0.5372(2) -0.23247(13) 0.08309(15)
C20 C 0.4665(2) -0.29374(13) 0.12328(15)
H10 H 0.4906 -0.3496 0.1193
C21 C 0.6527(2) -0.25787(16) 0.03299(17)
C22 C 0.3581(2) -0.03546(13) 0.14631(16)
N1 N 0.70388(19) 0.13863(11) 0.13132(14)
N2 N 0.5767(2) 0.27725(12) 0.18175(15)
N3 N 1.0793(2) 0.32715(13) 0.06291(15)
H11 H 1.1422 0.2967 0.0447
N4 N 0.9723(2) 0.44036(12) 0.10222(15)
O1 O 0.21768(18) -0.30704(10) 0.27472(12)
O2 O 0.30983(19) -0.41009(9) 0.20458(13)
H12 H 0.2664 -0.4391 0.2351
O3 O 0.5617(3) 0.09901(15) 0.32212(16)
O4 O 0.26003(19) -0.01918(10) 0.18704(14)
O5 O 0.4317(2) 0.01634(10) 0.11344(14)
O6 O 0.69330(17) -0.20357(12) -0.01916(12)
O7 O 0.7008(2) -0.33051(13) 0.04516(15)
Cd1 Cd 0.468713(16) 0.145508(9) 0.162831(12)
H13 H 0.554(3) 0.054(2) 0.345(2)
H14 H 0.634(4) 0.119(3) 0.356(3)
O1A O 0.28232(18) 0.19296(10) 0.22528(12)
O6B O 0.30670(17) 0.20357(12) 0.01916(12)
Cd1A Cd 0.031287(16) -0.354492(9) 0.337169(12)
Cd1B Cd 0.531287(16) -0.145508(9) -0.162831(12)
loop_
_geom_bond_atom_site_label_1
_geom_bond_atom_site_label_2
_geom_bond_site_symmetry_1
_geom_bond_site_symmetry_2
C1 H1 1_555 1_555
C2 C1 1_555 1_555
H2 C2 1_555 1_555
C3 C2 1_555 1_555
H3 C3 1_555 1_555
C4 C3 1_555 1_555
C5 C4 1_555 1_555
C6 H4 1_555 1_555
C7 C5 1_555 1_555
C8 C7 1_555 1_555
C9 C8 1_555 1_555
H5 C9 1_555 1_555
C10 C9 1_555 1_555
H6 C10 1_555 1_555
C11 C10 1_555 1_555
H7 C11 1_555 1_555
C12 C8 1_555 1_555
C13 C4 1_555 1_555
C14 C15 1_555 1_555
C15 C16 1_555 1_555
C16 H8 1_555 1_555
C17 C16 1_555 1_555
C18 C17 1_555 1_555
H9 C18 1_555 1_555
C19 C18 1_555 1_555
C20 C15 1_555 1_555
H10 C20 1_555 1_555
C21 C19 1_555 1_555
C22 C17 1_555 1_555
N1 C1 1_555 1_555
N2 C11 1_555 1_555
N3 C5 1_555 1_555
H11 N3 1_555 1_555
N4 C6 1_555 1_555
O1 C14 1_555 1_555
O2 C14 1_555 1_555
H12 O2 1_555 1_555
O3 Cd1 1_555 1_555
O4 C22 1_555 1_555
O5 C22 1_555 1_555
O6 C21 1_555 1_555
O7 C21 1_555 1_555
Cd1 N1 1_555 1_555
H13 O3 1_555 1_555
H14 O3 1_555 1_555
O1A Cd1 1_555 1_555
O6B Cd1 1_555 1_555
Cd1A O1 1_555 1_555
Cd1B O6 1_555 1_555
C6 N3 1_555 1_555
C7 N4 1_555 1_555
C12 C13 1_555 1_555
C12 N2 1_555 1_555
C13 N1 1_555 1_555
C19 C20 1_555 1_555
N2 Cd1 1_555 1_555
O5 Cd1 1_555 1_555

#END
