
#######################################################################
#
#                 Cambridge Crystallographic Data Centre
#                                CCDC 
#
#######################################################################
#
# If this CIF has been generated from an entry in the Cambridge 
# Structural Database, then it will include bibliographic, chemical, 
# crystal, experimental, refinement or atomic coordinate data resulting 
# from the CCDC's data processing and validation procedures.
#
#######################################################################

data_XERNAL
_symmetry_cell_setting           triclinic
_symmetry_space_group_name_H-M   'P -1'
_symmetry_Int_Tables_number      2
_space_group_name_Hall           '-P 1'
loop_
_symmetry_equiv_pos_site_id
_symmetry_equiv_pos_as_xyz
1 x,y,z
2 -x,-y,-z
_cell_length_a                   9.6373(19)
_cell_length_b                   12.802(3)
_cell_length_c                   14.049(3)
_cell_angle_alpha                98.04(3)
_cell_angle_beta                 91.10(3)
_cell_angle_gamma                106.72(3)
_cell_volume                     1640.49
loop_
_atom_site_label
_atom_site_type_symbol
_atom_site_fract_x
_atom_site_fract_y
_atom_site_fract_z
C1 C 0.1387(5) 0.0777(4) 0.1135(4)
H1 H 0.0571 0.1023 0.1111
C2 C 0.1201(5) -0.0320(4) 0.1237(4)
H2 H 0.0273 -0.0800 0.1246
C3 C 0.2382(5) -0.0684(4) 0.1322(4)
H3 H 0.2271 -0.1406 0.1419
C4 C 0.3765(5) 0.0036(3) 0.1261(3)
C5 C 0.5094(5) -0.0233(3) 0.1297(3)
C6 C 0.6835(6) -0.1000(4) 0.1414(4)
H4 H 0.7308 -0.1522 0.1500
C7 C 0.6430(5) 0.0485(3) 0.1196(3)
C8 C 0.6558(5) 0.1595(3) 0.1034(3)
C9 C 0.7874(5) 0.2364(4) 0.0895(4)
H5 H 0.8736 0.2174 0.0902
C10 C 0.7873(5) 0.3394(4) 0.0751(4)
H6 H 0.8735 0.3914 0.0650
C11 C 0.6581(5) 0.3659(4) 0.0754(4)
H7 H 0.6599 0.4367 0.0658
C12 C 0.5282(4) 0.1909(3) 0.1019(3)
C13 C 0.3867(4) 0.1130(3) 0.1119(3)
C14 C 0.1303(5) 0.0712(4) -0.6230(4)
H8 H 0.0467 0.0934 -0.6252
C15 C 0.1171(5) -0.0373(4) -0.6119(4)
H9 H 0.0262 -0.0864 -0.6068
C16 C 0.2389(5) -0.0710(3) -0.6088(3)
H10 H 0.2320 -0.1428 -0.5996
C17 C 0.3739(4) 0.0029(3) -0.6194(3)
C18 C 0.5091(4) -0.0223(3) -0.6193(3)
C19 C 0.6862(5) -0.0958(4) -0.6172(3)
H11 H 0.7352 -0.1484 -0.6151
C20 C 0.6402(4) 0.0549(3) -0.6256(3)
C21 C 0.6478(4) 0.1670(3) -0.6350(3)
C22 C 0.7788(5) 0.2495(4) -0.6437(4)
H12 H 0.8671 0.2336 -0.6422
C23 C 0.7737(5) 0.3523(4) -0.6545(5)
H13 H 0.8585 0.4075 -0.6611
C24 C 0.6398(5) 0.3740(4) -0.6557(4)
H14 H 0.6373 0.4445 -0.6633
C25 C 0.5179(4) 0.1948(3) -0.6367(3)
C26 C 0.3797(4) 0.1127(3) -0.6294(3)
C27 C 0.1906(4) 0.3413(3) -0.0820(3)
C28 C 0.1185(4) 0.3447(3) -0.1758(3)
C29 C 0.1903(4) 0.3459(3) -0.2608(3)
H15 H 0.2872 0.3470 -0.2597
C30 C 0.1170(4) 0.3454(3) -0.3479(3)
C31 C -0.0271(4) 0.3428(3) -0.3493(3)
H16 H -0.0753 0.3435 -0.4071
C32 C -0.1019(4) 0.3391(3) -0.2640(3)
C33 C -0.0280(4) 0.3409(3) -0.1784(3)
H17 H -0.0762 0.3395 -0.1217
C34 C -0.2634(4) 0.3236(3) -0.2684(3)
C35 C 0.1898(4) 0.3407(3) -0.4410(3)
N1 N 0.2682(4) 0.1488(3) 0.1071(3)
N2 N 0.5307(4) 0.2949(3) 0.0888(3)
N3 N 0.5369(4) -0.1210(3) 0.1443(3)
H18 H 0.4747 -0.1816 0.1532
N4 N 0.7524(4) -0.0004(3) 0.1255(3)
N5 N 0.2576(4) 0.1447(3) -0.6305(2)
N6 N 0.5155(4) 0.2978(3) -0.6462(3)
N7 N 0.5417(4) -0.1192(3) -0.6135(3)
H19 H 0.4814 -0.1821 -0.6085
N8 N 0.7522(4) 0.0076(3) -0.6240(3)
O1 O 0.3256(3) 0.3576(3) -0.0745(2)
O2 O 0.1153(4) 0.3196(4) -0.0118(2)
O3 O 0.4346(5) 0.5141(3) 0.1399(4)
O4 O 0.1160(3) 0.3355(3) -0.5175(2)
O5 O 0.4041(5) 0.5192(3) -0.5844(3)
O6 O 0.3206(3) 0.3419(2) -0.4404(2)
O7 O -0.3261(3) 0.3123(3) -0.1920(2)
O8 O -0.3232(3) 0.3183(3) -0.3496(2)
Cd1 Cd 0.30948(3) 0.33406(2) 0.09379(2)
Cd2 Cd 0.29526(3) 0.33474(2) -0.62073(2)
Cl1 Cl 0.15123(11) 0.35544(10) 0.23575(7)
H20 H 0.375(5) 0.547(5) 0.156(5)
H21 H 0.511(5) 0.537(7) 0.120(5)
H22 H 0.470(7) 0.519(5) -0.626(4)
H23 H 0.359(7) 0.561(5) -0.593(4)
Cd2_2 Cd 0.29526(3) 0.33474(2) 0.37927(2)
Cl1_2 Cl 0.15123(11) 0.35544(10) -0.76425(7)
loop_
_geom_bond_atom_site_label_1
_geom_bond_atom_site_label_2
_geom_bond_site_symmetry_1
_geom_bond_site_symmetry_2
C1 H1 1_555 1_555
C2 C1 1_555 1_555
H2 C2 1_555 1_555
C3 C2 1_555 1_555
H3 C3 1_555 1_555
C4 C3 1_555 1_555
C5 C4 1_555 1_555
C6 H4 1_555 1_555
C7 C5 1_555 1_555
C8 C7 1_555 1_555
C9 C8 1_555 1_555
H5 C9 1_555 1_555
C10 C9 1_555 1_555
H6 C10 1_555 1_555
C11 C10 1_555 1_555
H7 C11 1_555 1_555
C12 C8 1_555 1_555
C13 C4 1_555 1_555
C14 H8 1_555 1_555
C15 C14 1_555 1_555
H9 C15 1_555 1_555
C16 C15 1_555 1_555
H10 C16 1_555 1_555
C17 C16 1_555 1_555
C18 C17 1_555 1_555
C19 H11 1_555 1_555
C20 C18 1_555 1_555
C21 C20 1_555 1_555
C22 C21 1_555 1_555
H12 C22 1_555 1_555
C23 C22 1_555 1_555
H13 C23 1_555 1_555
C24 C23 1_555 1_555
H14 C24 1_555 1_555
C25 C21 1_555 1_555
C26 C17 1_555 1_555
C27 C28 1_555 1_555
C28 C29 1_555 1_555
C29 H15 1_555 1_555
C30 C29 1_555 1_555
C31 C30 1_555 1_555
H16 C31 1_555 1_555
C32 C31 1_555 1_555
C33 C28 1_555 1_555
H17 C33 1_555 1_555
C34 C32 1_555 1_555
C35 C30 1_555 1_555
N1 C1 1_555 1_555
N2 C11 1_555 1_555
N3 C5 1_555 1_555
H18 N3 1_555 1_555
N4 C6 1_555 1_555
N5 C14 1_555 1_555
N6 C24 1_555 1_555
N7 C18 1_555 1_555
H19 N7 1_555 1_555
N8 C19 1_555 1_555
O1 C27 1_555 1_555
O2 C27 1_555 1_555
O3 Cd1 1_555 1_555
O4 C35 1_555 1_555
O5 Cd2 1_555 1_555
O6 C35 1_555 1_555
O7 C34 1_555 1_555
O8 C34 1_555 1_555
Cd1 N1 1_555 1_555
Cd2 N5 1_555 1_555
Cl1 Cd1 1_555 1_555
H20 O3 1_555 1_555
H21 O3 1_555 1_555
H22 O5 1_555 1_555
H23 O5 1_555 1_555
Cd2_2 Cl1 1_555 1_555
Cl1_2 Cd2 1_555 1_555
C6 N3 1_555 1_555
C7 N4 1_555 1_555
C12 C13 1_555 1_555
C12 N2 1_555 1_555
C13 N1 1_555 1_555
C19 N7 1_555 1_555
C20 N8 1_555 1_555
C25 C26 1_555 1_555
C25 N6 1_555 1_555
C26 N5 1_555 1_555
C32 C33 1_555 1_555
N2 Cd1 1_555 1_555
N6 Cd2 1_555 1_555
O1 Cd1 1_555 1_555
O2 Cd1 1_555 1_555
O4 Cd2 1_555 1_555
O6 Cd2 1_555 1_555

#END
