
#######################################################################
#
#                 Cambridge Crystallographic Data Centre
#                                CCDC 
#
#######################################################################
#
# If this CIF has been generated from an entry in the Cambridge 
# Structural Database, then it will include bibliographic, chemical, 
# crystal, experimental, refinement or atomic coordinate data resulting 
# from the CCDC's data processing and validation procedures.
#
#######################################################################

data_XERNIT
_symmetry_cell_setting           monoclinic
_symmetry_space_group_name_H-M   'P 21/c'
_symmetry_Int_Tables_number      14
_space_group_name_Hall           '-P 2ybc'
loop_
_symmetry_equiv_pos_site_id
_symmetry_equiv_pos_as_xyz
1 x,y,z
2 -x,1/2+y,1/2-z
3 -x,-y,-z
4 x,1/2-y,1/2+z
_cell_length_a                   8.8932(18)
_cell_length_b                   16.118(3)
_cell_length_c                   14.415(3)
_cell_angle_alpha                90
_cell_angle_beta                 107.75(3)
_cell_angle_gamma                90
_cell_volume                     1967.89
loop_
_atom_site_label
_atom_site_type_symbol
_atom_site_fract_x
_atom_site_fract_y
_atom_site_fract_z
C1 C 0.6577(3) -0.42936(15) -0.1041(2)
H1 H 0.6102 -0.4811 -0.1075
C2 C 0.8217(3) -0.42462(16) -0.0693(2)
H2 H 0.8815 -0.4728 -0.0524
C3 C 0.8953(3) -0.34868(16) -0.0601(2)
H3 H 1.0047 -0.3447 -0.0362
C4 C 0.8014(3) -0.27715(14) -0.08779(17)
C5 C 0.8577(3) -0.19399(15) -0.08460(18)
C6 C 0.9932(3) -0.07962(16) -0.0740(2)
H4 H 1.0792 -0.0439 -0.0617
C7 C 0.7587(3) -0.12637(14) -0.11468(19)
C8 C 0.5919(3) -0.13632(15) -0.1549(2)
C9 C 0.4850(3) -0.07156(16) -0.1924(3)
H5 H 0.5193 -0.0168 -0.1878
C10 C 0.3294(3) -0.09051(18) -0.2359(3)
H6 H 0.2567 -0.0486 -0.2617
C11 C 0.2809(3) -0.17251(18) -0.2411(3)
H7 H 0.1755 -0.1845 -0.2731
C12 C 0.5328(2) -0.21752(14) -0.16097(18)
C13 C 0.6362(3) -0.28808(14) -0.12545(17)
C14 C 0.1946(3) -0.53201(13) -0.16243(18)
C15 C 0.2514(2) -0.62060(13) -0.14605(17)
C16 C 0.1484(2) -0.68490(14) -0.18724(18)
H8 H 0.0455 -0.6725 -0.2244
C17 C 0.1960(2) -0.76723(13) -0.17407(17)
C18 C 0.3513(3) -0.78589(13) -0.12027(17)
H9 H 0.3849 -0.8408 -0.1118
C19 C 0.4561(2) -0.72188(14) -0.07917(16)
C20 C 0.4053(3) -0.63994(13) -0.09171(17)
H10 H 0.4752 -0.5975 -0.0634
C21 C 0.6254(3) -0.73945(15) -0.02050(18)
C22 C 0.0754(3) -0.83254(14) -0.21963(18)
N1 N 0.5661(2) -0.36339(12) -0.13259(15)
N2 N 0.3774(2) -0.23489(13) -0.20260(18)
N3 N 1.0077(2) -0.16211(14) -0.05882(17)
H11 H 1.0943 -0.1895 -0.0371
N4 N 0.8462(2) -0.05437(13) -0.10781(17)
O1 O 0.2985(2) -0.47677(10) -0.13809(14)
O2 O 0.04922(19) -0.52060(10) -0.19879(16)
O3 O 0.2756(3) -0.39736(14) -0.31837(17)
O4 O 0.69950(19) -0.68404(11) 0.03743(13)
O5 O 0.6831(2) -0.80724(12) -0.03246(15)
O6 O -0.05747(18) -0.81267(10) -0.26990(14)
O7 O 0.1237(2) -0.90850(10) -0.20346(15)
H12 H 0.0514 -0.9401 -0.2306
Zn1 Zn 0.30663(3) -0.357320(15) -0.17594(2)
H13 H 0.297(4) -0.372(2) -0.355(3)
H14 H 0.230(5) -0.441(3) -0.341(3)
O4B O 0.30050(19) -0.31596(11) -0.03743(13)
O6A O 0.05747(18) -0.31267(10) -0.23010(14)
Zn1A Zn -0.30663(3) -0.857320(15) -0.32406(2)
Zn1B Zn 0.69337(3) -0.642680(15) 0.17594(2)
loop_
_geom_bond_atom_site_label_1
_geom_bond_atom_site_label_2
_geom_bond_site_symmetry_1
_geom_bond_site_symmetry_2
C1 H1 1_555 1_555
C2 C1 1_555 1_555
H2 C2 1_555 1_555
C3 C2 1_555 1_555
H3 C3 1_555 1_555
C4 C3 1_555 1_555
C5 C4 1_555 1_555
C6 H4 1_555 1_555
C7 C5 1_555 1_555
C8 C7 1_555 1_555
C9 C8 1_555 1_555
H5 C9 1_555 1_555
C10 C9 1_555 1_555
H6 C10 1_555 1_555
C11 C10 1_555 1_555
H7 C11 1_555 1_555
C12 C8 1_555 1_555
C13 C4 1_555 1_555
C14 C15 1_555 1_555
C15 C16 1_555 1_555
C16 H8 1_555 1_555
C17 C16 1_555 1_555
C18 C17 1_555 1_555
H9 C18 1_555 1_555
C19 C18 1_555 1_555
C20 C15 1_555 1_555
H10 C20 1_555 1_555
C21 C19 1_555 1_555
C22 C17 1_555 1_555
N1 C1 1_555 1_555
N2 C11 1_555 1_555
N3 C5 1_555 1_555
H11 N3 1_555 1_555
N4 C6 1_555 1_555
O1 C14 1_555 1_555
O2 C14 1_555 1_555
O3 Zn1 1_555 1_555
O4 C21 1_555 1_555
O5 C21 1_555 1_555
O6 C22 1_555 1_555
O7 C22 1_555 1_555
H12 O7 1_555 1_555
Zn1 N1 1_555 1_555
H13 O3 1_555 1_555
H14 O3 1_555 1_555
O4B Zn1 1_555 1_555
O6A Zn1 1_555 1_555
Zn1A O6 1_555 1_555
Zn1B O4 1_555 1_555
C6 N3 1_555 1_555
C7 N4 1_555 1_555
C12 C13 1_555 1_555
C12 N2 1_555 1_555
C13 N1 1_555 1_555
C19 C20 1_555 1_555
N2 Zn1 1_555 1_555
O1 Zn1 1_555 1_555

#END
