
#######################################################################
#
#                 Cambridge Crystallographic Data Centre
#                                CCDC 
#
#######################################################################
#
# If this CIF has been generated from an entry in the Cambridge 
# Structural Database, then it will include bibliographic, chemical, 
# crystal, experimental, refinement or atomic coordinate data resulting 
# from the CCDC's data processing and validation procedures.
#
#######################################################################

data_XERSET
_symmetry_cell_setting           triclinic
_symmetry_space_group_name_H-M   'P -1'
_symmetry_Int_Tables_number      2
_space_group_name_Hall           '-P 1'
loop_
_symmetry_equiv_pos_site_id
_symmetry_equiv_pos_as_xyz
1 x,y,z
2 -x,-y,-z
_cell_length_a                   7.0119(14)
_cell_length_b                   13.788(3)
_cell_length_c                   14.968(3)
_cell_angle_alpha                107.54(3)
_cell_angle_beta                 102.01(3)
_cell_angle_gamma                97.36(3)
_cell_volume                     1321.07
loop_
_atom_site_label
_atom_site_type_symbol
_atom_site_fract_x
_atom_site_fract_y
_atom_site_fract_z
Pb1 Pb 0.22201(5) 0.46900(3) 0.47123(3)
Pb2 Pb 0.51862(6) 0.48831(3) 0.71651(3)
Pb3 Pb 0.45962(6) 0.73146(3) 0.49091(3)
C1 C 0.7422(16) 0.7365(9) 0.7078(9)
C2 C 0.6685(18) 0.8564(9) 0.8558(9)
C3 C 0.0339(17) 0.4323(9) 0.6912(8)
C4 C 0.9574(18) 0.7777(9) 0.8709(10)
H1 H 1.0307 0.7319 0.8417
O1 O 0.1582(11) 0.4517(6) 0.6470(6)
C5 C 1.018(2) 0.8286(11) 0.9704(11)
H2 H 1.1346 0.8205 1.0076
C6 C 0.7882(16) 0.7941(8) 0.8137(8)
O2 O 0.3875(13) 0.6532(6) 0.7481(7)
C7 C 0.727(2) 0.9063(9) 0.9564(9)
H3 H 0.6492 0.9495 0.9857
O3 O 0.5000(10) 0.5644(5) 0.4431(5)
O4 O -0.1493(11) 0.4161(7) 0.6547(6)
C8 C 0.3354(18) 0.8105(9) 0.7224(8)
C9 C 0.489(2) 0.8821(9) 0.7993(9)
C10 C 0.181(2) 0.8460(10) 0.6788(10)
H4 H 0.0822 0.7987 0.6267
C11 C 0.898(2) 0.8926(9) 1.0134(9)
H5 H 0.9334 0.9260 1.0803
O5 O 0.2851(13) 0.6504(6) 0.5972(6)
O6 O 0.2140(14) 0.2276(7) 0.5273(7)
O7 O 0.6912(13) 0.7798(7) 0.6483(7)
O8 O 0.3786(13) 0.2929(6) 0.6871(7)
O9 O 0.7565(14) 0.6411(7) 0.6840(7)
C12 C 0.1043(16) 0.4254(10) 0.7912(7)
C13 C 0.3376(16) 0.6969(10) 0.6905(8)
C14 C 0.0403(19) 0.1982(9) 0.6359(9)
C15 C 0.310(2) 1.0196(10) 0.7803(10)
H6 H 0.3001 1.0890 0.7988
C16 C -0.079(2) 0.1077(9) 0.5611(10)
H7 H -0.0459 0.0862 0.5021
C17 C 0.477(2) 0.9879(9) 0.8271(10)
H8 H 0.5784 1.0371 0.8762
C18 C 0.083(2) 0.3291(12) 0.8044(10)
C19 C 0.229(2) 0.2466(10) 0.6184(10)
C20 C 0.191(2) 0.5164(12) 0.8678(9)
H9 H 0.2119 0.5796 0.8575
C21 C 0.245(2) 0.5113(13) 0.9614(10)
H10 H 0.2968 0.5719 1.0147
C22 C 0.144(3) 0.3269(16) 0.8975(12)
H11 H 0.1331 0.2632 0.9075
C23 C -0.016(2) 0.2337(10) 0.7220(10)
C24 C -0.298(2) 0.0853(11) 0.6586(12)
H12 H -0.4097 0.0479 0.6664
C25 C -0.243(2) 0.0503(11) 0.5732(13)
H13 H -0.3143 -0.0109 0.5244
C26 C 0.166(2) 0.9454(11) 0.7075(11)
H14 H 0.0548 0.9647 0.6773
C27 C -0.192(2) 0.1739(14) 0.7323(12)
H15 H -0.2320 0.1959 0.7892
C28 C 0.221(3) 0.4153(15) 0.9743(12)
H16 H 0.2580 0.4117 1.0365
Pb1A Pb 0.77799(5) 0.53100(3) 0.52877(3)
Pb2A Pb 0.48138(6) 0.51169(3) 0.28349(3)
Pb3A Pb 0.54038(6) 0.26854(3) 0.50909(3)
O3A O 0.5000(10) 0.4356(5) 0.5569(5)
O6A O 0.7860(14) 0.7724(7) 0.4727(7)
O9A O 0.2435(14) 0.3589(7) 0.3160(7)
loop_
_geom_bond_atom_site_label_1
_geom_bond_atom_site_label_2
_geom_bond_site_symmetry_1
_geom_bond_site_symmetry_2
Pb1 O3 1_555 1_555
Pb2 O1 1_555 1_555
Pb3 O3 1_555 1_555
C1 C6 1_555 1_555
C2 C6 1_555 1_555
C3 O1 1_555 1_555
C4 H1 1_555 1_555
C5 C4 1_555 1_555
H2 C5 1_555 1_555
C6 C4 1_555 1_555
O2 Pb2 1_555 1_555
C7 C2 1_555 1_555
H3 C7 1_555 1_555
O3 Pb1A 1_555 1_555
O4 C3 1_555 1_555
C8 C9 1_555 1_555
C9 C2 1_555 1_555
C10 C8 1_555 1_555
H4 C10 1_555 1_555
C11 C5 1_555 1_555
H5 C11 1_555 1_555
O5 Pb1 1_555 1_555
O6 C19 1_555 1_555
O7 Pb3 1_555 1_555
O8 Pb2 1_555 1_555
O9 Pb2 1_555 1_555
C12 C3 1_555 1_555
C13 O2 1_555 1_555
C14 C16 1_555 1_555
C15 H6 1_555 1_555
C16 H7 1_555 1_555
C17 C9 1_555 1_555
H8 C17 1_555 1_555
C18 C12 1_555 1_555
C19 O8 1_555 1_555
C20 C12 1_555 1_555
H9 C20 1_555 1_555
C21 C20 1_555 1_555
H10 C21 1_555 1_555
C22 C18 1_555 1_555
H11 C22 1_555 1_555
C23 C14 1_555 1_555
C24 H12 1_555 1_555
C25 C16 1_555 1_555
H13 C25 1_555 1_555
C26 C10 1_555 1_555
H14 C26 1_555 1_555
C27 C23 1_555 1_555
H15 C27 1_555 1_555
C28 C21 1_555 1_555
H16 C28 1_555 1_555
Pb1A O9 1_555 1_555
Pb2A O3 1_555 1_555
Pb3A O6 1_555 1_555
O3A Pb1 1_555 1_555
O6A Pb3 1_555 1_555
O9A Pb1 1_555 1_555
Pb2 O3A 1_555 1_555
Pb3 O5 1_555 1_555
C1 O7 1_555 1_555
C1 O9 1_555 1_555
C7 C11 1_555 1_555
C8 C13 1_555 1_555
O5 C13 1_555 1_555
C14 C19 1_555 1_555
C15 C17 1_555 1_555
C15 C26 1_555 1_555
C18 C23 1_555 1_555
C22 C28 1_555 1_555
C24 C25 1_555 1_555
C24 C27 1_555 1_555
Pb1A O3A 1_555 1_555
Pb2A O9A 1_555 1_555
Pb3A O3A 1_555 1_555

#END
