
#######################################################################
#
#                 Cambridge Crystallographic Data Centre
#                                CCDC 
#
#######################################################################
#
# If this CIF has been generated from an entry in the Cambridge 
# Structural Database, then it will include bibliographic, chemical, 
# crystal, experimental, refinement or atomic coordinate data resulting 
# from the CCDC's data processing and validation procedures.
#
#######################################################################

data_XERVIA
_symmetry_cell_setting           monoclinic
_symmetry_space_group_name_H-M   'P 21/n'
_symmetry_Int_Tables_number      14
_space_group_name_Hall           '-P 2yn'
loop_
_symmetry_equiv_pos_site_id
_symmetry_equiv_pos_as_xyz
1 x,y,z
2 1/2-x,1/2+y,1/2-z
3 -x,-y,-z
4 1/2+x,1/2-y,1/2+z
_cell_length_a                   8.7649(5)
_cell_length_b                   33.821(2)
_cell_length_c                   10.9321(8)
_cell_angle_alpha                90
_cell_angle_beta                 92.1164(14)
_cell_angle_gamma                90
_cell_volume                     3238.48
loop_
_atom_site_label
_atom_site_type_symbol
_atom_site_fract_x
_atom_site_fract_y
_atom_site_fract_z
Pt1 Pt 0.10452(6) 0.36918(2) 0.71061(5)
Pt2 Pt 0.10610(6) 0.37199(2) 0.20669(5)
Br1 Br 0.10874(18) 0.36793(5) 0.48194(13)
Br2 Br 0.10627(18) 0.36850(5) 0.93991(13)
N1 N -0.0977(14) 0.4003(4) 0.7008(11)
N2 N -0.0333(15) 0.3206(4) 0.7064(13)
N3 N 0.2817(15) 0.3279(4) 0.7203(13)
N4 N 0.2420(13) 0.4187(4) 0.7174(11)
N5 N -0.0930(14) 0.4042(4) 0.1967(11)
N6 N -0.0328(14) 0.3242(4) 0.1990(14)
N7 N 0.2804(15) 0.3312(4) 0.2189(14)
N8 N 0.7550(14) 0.5791(4) 0.7830(11)
C1 C -0.2283(18) 0.3717(5) 0.6929(18)
C2 C -0.184(2) 0.3324(7) 0.726(4)
C3 C 0.054(2) 0.2870(8) 0.737(4)
C4 C 0.210(2) 0.2883(5) 0.719(2)
C5 C 0.3650(16) 0.4214(4) 0.6508(13)
C6 C 0.4676(19) 0.4518(5) 0.6585(14)
C7 C 0.4438(16) 0.4824(5) 0.7428(13)
C8 C 0.308(2) 0.4802(5) 0.8081(15)
C9 C 0.2130(17) 0.4485(4) 0.7928(14)
C10 C -0.225(2) 0.3751(5) 0.1862(19)
C11 C -0.182(2) 0.3367(6) 0.239(2)
C12 C 0.050(2) 0.2901(6) 0.252(2)
C13 C 0.211(2) 0.2901(5) 0.2135(19)
C14 C 0.7715(18) 0.5522(4) 0.6963(14)
C15 C 0.6734(19) 0.5208(4) 0.6796(14)
C16 C 0.5499(17) 0.5169(5) 0.7554(13)
C17 C 0.5362(18) 0.5451(5) 0.8494(13)
C18 C 0.6381(17) 0.5752(4) 0.8571(13)
H1 H -0.1053 0.4159 0.7691
H2 H -0.1002 0.4164 0.6329
H3 H 0.3434 0.3308 0.6546
H4 H 0.3401 0.3314 0.7912
H5 H -0.3087 0.3807 0.7477
H6 H -0.2723 0.3716 0.6082
H7 H -0.2022 0.3289 0.8142
H8 H -0.2527 0.3139 0.6807
H9 H 0.0398 0.2813 0.8251
H10 H 0.0105 0.2644 0.6903
H11 H 0.2284 0.2758 0.6386
H12 H 0.2622 0.2719 0.7824
H13 H -0.0413 0.3169 0.6221
H14 H 0.3829 0.4009 0.5938
H15 H 0.5535 0.4522 0.6080
H16 H 0.2829 0.5009 0.8628
H17 H 0.1223 0.4476 0.8378
H18 H -0.1010 0.4195 0.2657
H19 H -0.0940 0.4206 0.1296
H20 H 0.3450 0.3346 0.1553
H21 H 0.3359 0.3345 0.2913
H22 H -0.3136 0.3859 0.2293
H23 H -0.2566 0.3717 0.0989
H24 H -0.1803 0.3386 0.3294
H25 H -0.2599 0.3167 0.2138
H26 H -0.0009 0.2654 0.2240
H27 H 0.0475 0.2912 0.3420
H28 H 0.2149 0.2798 0.1290
H29 H 0.2718 0.2722 0.2678
H30 H -0.0468 0.3185 0.1162
H31 H 0.8547 0.5546 0.6436
H32 H 0.6896 0.5020 0.6169
H33 H 0.4571 0.5431 0.9061
H34 H 0.6258 0.5947 0.9186
Pt2_2 Pt 0.10610(6) 0.37199(2) 1.20669(5)
Pt2B Pt 0.89390(6) 0.62801(2) 0.79331(5)
Br2_2 Br 0.10627(18) 0.36850(5) -0.06009(13)
N8B N 0.2450(14) 0.4209(4) 0.2170(11)
Br3 Br 0.5016(2) 0.30753(8) 0.97433(18)
Br4 Br -0.2040(2) 0.45062(6) 0.93611(14)
Br5 Br -0.2091(2) 0.44710(6) 0.44566(16)
Br6 Br 0.0010(2) 0.80675(8) 0.02137(18)
O1 O 0.357(2) 0.2193(7) -0.015(2)
O2 O 0.144(2) 0.7182(8) 0.022(2)
loop_
_geom_bond_atom_site_label_1
_geom_bond_atom_site_label_2
_geom_bond_site_symmetry_1
_geom_bond_site_symmetry_2
Pt1 Br1 1_555 1_555
Pt2 Br1 1_555 1_555
Br2 Pt1 1_555 1_555
N1 Pt1 1_555 1_555
N2 Pt1 1_555 1_555
N3 Pt1 1_555 1_555
N4 Pt1 1_555 1_555
N5 Pt2 1_555 1_555
N6 Pt2 1_555 1_555
N7 Pt2 1_555 1_555
N8 C14 1_555 1_555
C1 N1 1_555 1_555
C2 N2 1_555 1_555
C3 N2 1_555 1_555
C4 N3 1_555 1_555
C5 N4 1_555 1_555
C6 C5 1_555 1_555
C7 C6 1_555 1_555
C8 C7 1_555 1_555
C9 N4 1_555 1_555
C10 N5 1_555 1_555
C11 N6 1_555 1_555
C12 N6 1_555 1_555
C13 N7 1_555 1_555
C14 C15 1_555 1_555
C15 C16 1_555 1_555
C16 C7 1_555 1_555
C17 C16 1_555 1_555
C18 N8 1_555 1_555
H1 N1 1_555 1_555
H2 N1 1_555 1_555
H3 N3 1_555 1_555
H4 N3 1_555 1_555
H5 C1 1_555 1_555
H6 C1 1_555 1_555
H7 C2 1_555 1_555
H8 C2 1_555 1_555
H9 C3 1_555 1_555
H10 C3 1_555 1_555
H11 C4 1_555 1_555
H12 C4 1_555 1_555
H13 N2 1_555 1_555
H14 C5 1_555 1_555
H15 C6 1_555 1_555
H16 C8 1_555 1_555
H17 C9 1_555 1_555
H18 N5 1_555 1_555
H19 N5 1_555 1_555
H20 N7 1_555 1_555
H21 N7 1_555 1_555
H22 C10 1_555 1_555
H23 C10 1_555 1_555
H24 C11 1_555 1_555
H25 C11 1_555 1_555
H26 C12 1_555 1_555
H27 C12 1_555 1_555
H28 C13 1_555 1_555
H29 C13 1_555 1_555
H30 N6 1_555 1_555
H31 C14 1_555 1_555
H32 C15 1_555 1_555
H33 C17 1_555 1_555
H34 C18 1_555 1_555
Pt2_2 Br2 1_555 1_555
Pt2B N8 1_555 1_555
Br2_2 Pt2 1_555 1_555
N8B Pt2 1_555 1_555
C1 C2 1_555 1_555
C3 C4 1_555 1_555
C8 C9 1_555 1_555
C10 C11 1_555 1_555
C12 C13 1_555 1_555
C17 C18 1_555 1_555

#END
