
#######################################################################
#
#                 Cambridge Crystallographic Data Centre
#                                CCDC 
#
#######################################################################
#
# If this CIF has been generated from an entry in the Cambridge 
# Structural Database, then it will include bibliographic, chemical, 
# crystal, experimental, refinement or atomic coordinate data resulting 
# from the CCDC's data processing and validation procedures.
#
#######################################################################

data_XESBUT
_symmetry_cell_setting           triclinic
_symmetry_space_group_name_H-M   'P -1'
_symmetry_Int_Tables_number      2
_space_group_name_Hall           '-P 1'
loop_
_symmetry_equiv_pos_site_id
_symmetry_equiv_pos_as_xyz
1 x,y,z
2 -x,-y,-z
_cell_length_a                   5.025(3)
_cell_length_b                   7.867(5)
_cell_length_c                   8.898(8)
_cell_angle_alpha                103.38(6)
_cell_angle_beta                 89.94(6)
_cell_angle_gamma                103.22(5)
_cell_volume                     332.636
loop_
_atom_site_label
_atom_site_type_symbol
_atom_site_fract_x
_atom_site_fract_y
_atom_site_fract_z
Cd1 Cd 0.0000 0.0000 0.0000
O1 O 0.4269(10) 0.1902(7) 0.1061(7)
O2 O 0.7784(12) 0.1247(8) 0.2071(8)
N1 N 0.0488(13) -0.1983(9) 0.1423(8)
N2 N 0.2208(14) -0.3078(9) 0.1063(8)
H1 H 0.3389 -0.3004 0.0367
C1 C 0.1867(19) -0.4290(12) 0.1912(12)
H2 H 0.2829 -0.5181 0.1848
C2 C -0.017(2) -0.3987(13) 0.2901(13)
H3 H -0.0860 -0.4607 0.3642
C3 C -0.0955(17) -0.2516(12) 0.2533(11)
H4 H -0.2315 -0.1993 0.3012
C4 C 0.5575(14) 0.1661(10) 0.2185(10)
C5 C 0.431(2) 0.1945(14) 0.3735(11)
H5 H 0.2598 0.2272 0.3634
H6 H 0.5523 0.2889 0.4469
H7 H 0.3987 0.0854 0.4087
Cd1_2 Cd 1.0000 0.0000 0.0000
Cd1_3 Cd -1.0000 0.0000 0.0000
O1A O -0.4269(10) -0.1902(7) -0.1061(7)
O2A O -0.7784(12) -0.1247(8) -0.2071(8)
O2_2 O -0.2216(12) 0.1247(8) 0.2071(8)
O2A_2 O 0.2216(12) -0.1247(8) -0.2071(8)
N1A N -0.0488(13) 0.1983(9) -0.1423(8)
N2A N -0.2208(14) 0.3078(9) -0.1063(8)
H1A H -0.3389 0.3004 -0.0367
C1A C -0.1867(19) 0.4290(12) -0.1912(12)
H2A H -0.2829 0.5181 -0.1848
C2A C 0.017(2) 0.3987(13) -0.2901(13)
H3A H 0.0860 0.4607 -0.3642
C3A C 0.0955(17) 0.2516(12) -0.2533(11)
H4A H 0.2315 0.1993 -0.3012
C4A C -0.5575(14) -0.1661(10) -0.2185(10)
C5A C -0.431(2) -0.1945(14) -0.3735(11)
H5A H -0.2598 -0.2272 -0.3634
H6A H -0.5523 -0.2889 -0.4469
H7A H -0.3987 -0.0854 -0.4087
loop_
_geom_bond_atom_site_label_1
_geom_bond_atom_site_label_2
_geom_bond_site_symmetry_1
_geom_bond_site_symmetry_2
Cd1 O1 1_555 1_555
O1 C4 1_555 1_555
O2 C4 1_555 1_555
N1 Cd1 1_555 1_555
N2 N1 1_555 1_555
H1 N2 1_555 1_555
C1 N2 1_555 1_555
H2 C1 1_555 1_555
C2 C1 1_555 1_555
H3 C2 1_555 1_555
C3 N1 1_555 1_555
H4 C3 1_555 1_555
C4 C5 1_555 1_555
C5 H5 1_555 1_555
H6 C5 1_555 1_555
H7 C5 1_555 1_555
Cd1_2 O2 1_555 1_555
Cd1_3 O2A 1_555 1_555
O1A Cd1 1_555 1_555
O2A C4A 1_555 1_555
O2_2 Cd1 1_555 1_555
O2A_2 Cd1 1_555 1_555
N1A Cd1 1_555 1_555
N2A N1A 1_555 1_555
H1A N2A 1_555 1_555
C1A N2A 1_555 1_555
H2A C1A 1_555 1_555
C2A C1A 1_555 1_555
H3A C2A 1_555 1_555
C3A N1A 1_555 1_555
H4A C3A 1_555 1_555
C4A O1A 1_555 1_555
C5A C4A 1_555 1_555
H5A C5A 1_555 1_555
H6A C5A 1_555 1_555
H7A C5A 1_555 1_555
C2 C3 1_555 1_555
C2A C3A 1_555 1_555

#END
