
#######################################################################
#
#                 Cambridge Crystallographic Data Centre
#                                CCDC 
#
#######################################################################
#
# If this CIF has been generated from an entry in the Cambridge 
# Structural Database, then it will include bibliographic, chemical, 
# crystal, experimental, refinement or atomic coordinate data resulting 
# from the CCDC's data processing and validation procedures.
#
#######################################################################

data_XESCOO
_symmetry_cell_setting           rhombohedral
_symmetry_space_group_name_H-M   'R -3'
_symmetry_Int_Tables_number      148
_space_group_name_Hall           '-R 3'
loop_
_symmetry_equiv_pos_site_id
_symmetry_equiv_pos_as_xyz
1 x,y,z
2 -y,x-y,z
3 -x+y,-x,z
4 1/3+x,2/3+y,2/3+z
5 1/3-y,2/3+x-y,2/3+z
6 1/3-x+y,2/3-x,2/3+z
7 2/3+x,1/3+y,1/3+z
8 2/3-y,1/3+x-y,1/3+z
9 2/3-x+y,1/3-x,1/3+z
10 -x,-y,-z
11 y,-x+y,-z
12 x-y,x,-z
13 2/3-x,1/3-y,1/3-z
14 2/3+y,1/3-x+y,1/3-z
15 2/3+x-y,1/3+x,1/3-z
16 1/3-x,2/3-y,2/3-z
17 1/3+y,2/3-x+y,2/3-z
18 1/3+x-y,2/3+x,2/3-z
_cell_length_a                   28.9170(24)
_cell_length_b                   28.9170(24)
_cell_length_c                   16.6994(19)
_cell_angle_alpha                90
_cell_angle_beta                 90
_cell_angle_gamma                120.0
_cell_volume                     12093.1
loop_
_atom_site_label
_atom_site_type_symbol
_atom_site_fract_x
_atom_site_fract_y
_atom_site_fract_z
Hg1 Hg -0.186912 -0.111866 -0.752038
Hg2 Hg -0.276402 -0.118656 -0.613625
Hg3 Hg -0.214498 -0.190289 -0.588994
C1 C -0.215640 -0.030889 -0.816423
H1 H -0.193609 -0.021833 -0.861110
C2 C -0.244565 -0.006603 -0.795670
H2 H -0.245464 0.021425 -0.821507
C3 C -0.271707 -0.033437 -0.728175
H3 H -0.295708 -0.027056 -0.699968
C4 C -0.331590 -0.182096 -0.462346
H4 H -0.351813 -0.165867 -0.452284
C5 C -0.333037 -0.223152 -0.418523
H5 H -0.354209 -0.240195 -0.374150
C6 C -0.296710 -0.233436 -0.454233
H6 H -0.288783 -0.259326 -0.437369
C7 C -0.120950 -0.197686 -0.662426
H7 H -0.117917 -0.217778 -0.621452
C8 C -0.090864 -0.182017 -0.730763
H8 H -0.063355 -0.188256 -0.744915
C9 C -0.11018 -0.155261 -0.773337
H9 H -0.097956 -0.140484 -0.823744
N1 N -0.223235 -0.068819 -0.764440
N2 N -0.258163 -0.070873 -0.708442
N3 N -0.296147 -0.169455 -0.521735
N4 N -0.274447 -0.201671 -0.516013
N5 N -0.155497 -0.179574 -0.663845
N6 N -0.148481 -0.152936 -0.734047
C10 C -0.379910 -0.090890 -0.583040
C11 C -0.414920 -0.095980 -0.517310
O1 O -0.343370 -0.099770 -0.572130
O2 O -0.387000 -0.077740 -0.649250
C12 C -0.151010 -0.027510 -0.568320
C13 C -0.096000 0.003830 -0.594610
O3 O -0.178820 -0.073120 -0.592420
O4 O -0.169480 -0.008280 -0.52212
C14 C -0.139130 -0.047450 -0.909990
C15 C -0.184450 -0.086320 -0.956160
O5 O -0.114050 -0.001120 -0.932240
O6 O -0.126080 -0.061080 -0.848900
Hg3O Hg -0.452169 -0.143044 -0.744339
Hg3J Hg -0.190289 0.024209 -0.411006
O2O O -0.279667 -0.255593 -0.684083
O4K O -0.161200 -0.169480 -0.47788
loop_
_geom_bond_atom_site_label_1
_geom_bond_atom_site_label_2
_geom_bond_site_symmetry_1
_geom_bond_site_symmetry_2
Hg1 N1 1_555 1_555
Hg2 N2 1_555 1_555
Hg3 N4 1_555 1_555
C1 H1 1_555 1_555
C2 C1 1_555 1_555
H2 C2 1_555 1_555
C3 C2 1_555 1_555
H3 C3 1_555 1_555
C4 H4 1_555 1_555
C5 C4 1_555 1_555
H5 C5 1_555 1_555
C6 C5 1_555 1_555
H6 C6 1_555 1_555
C7 H7 1_555 1_555
C8 C7 1_555 1_555
H8 C8 1_555 1_555
C9 C8 1_555 1_555
H9 C9 1_555 1_555
N1 C1 1_555 1_555
N2 C3 1_555 1_555
N3 Hg2 1_555 1_555
N4 C6 1_555 1_555
N5 Hg3 1_555 1_555
N6 Hg1 1_555 1_555
C10 C11 1_555 1_555
O1 Hg2 1_555 1_555
O2 C10 1_555 1_555
C12 C13 1_555 1_555
O3 Hg2 1_555 1_555
O4 C12 1_555 1_555
C14 C15 1_555 1_555
O5 C14 1_555 1_555
O6 Hg1 1_555 1_555
Hg3O O2 1_555 1_555
Hg3J O4 1_555 1_555
O2O Hg3 1_555 1_555
O4K Hg3 1_555 1_555
C4 N3 1_555 1_555
C7 N5 1_555 1_555
C9 N6 1_555 1_555
N1 N2 1_555 1_555
N3 N4 1_555 1_555
N5 N6 1_555 1_555
C10 O1 1_555 1_555
C12 O3 1_555 1_555
C14 O6 1_555 1_555

#END
