
#######################################################################
#
#                 Cambridge Crystallographic Data Centre
#                                CCDC 
#
#######################################################################
#
# If this CIF has been generated from an entry in the Cambridge 
# Structural Database, then it will include bibliographic, chemical, 
# crystal, experimental, refinement or atomic coordinate data resulting 
# from the CCDC's data processing and validation procedures.
#
#######################################################################

data_XESCUU
_symmetry_cell_setting           monoclinic
_symmetry_space_group_name_H-M   'P 21/c'
_symmetry_Int_Tables_number      14
_space_group_name_Hall           '-P 2ybc'
loop_
_symmetry_equiv_pos_site_id
_symmetry_equiv_pos_as_xyz
1 x,y,z
2 -x,1/2+y,1/2-z
3 -x,-y,-z
4 x,1/2-y,1/2+z
_cell_length_a                   10.8287(11)
_cell_length_b                   12.2835(10)
_cell_length_c                   7.25448(82)
_cell_angle_alpha                90
_cell_angle_beta                 91.606(11)
_cell_angle_gamma                90
_cell_volume                     964.571
loop_
_atom_site_label
_atom_site_type_symbol
_atom_site_fract_x
_atom_site_fract_y
_atom_site_fract_z
Hg1 Hg 0.97955(35) 0.28553(23) 0.27016(78)
C1 C 1.065970 0.13734 0.23003
C2 C 1.183090 0.12054 0.173340
N1 N 1.201450 0.011290 0.160920
N2 N 1.095660 -0.039440 0.209920
C3 C 1.011930 0.03847 0.252640
H1 H 1.27542 -0.023590 0.124310
C4 C 1.277690 0.209080 0.130960
C5 C 0.879990 0.018390 0.315190
C6 C 0.67277 0.26609 -0.00632
C7 C 0.566310 0.336700 0.009750
O1 O 0.776500 0.302030 0.022530
O2 O 0.658610 0.170740 -0.048690
Hg1A Hg 1.02045(35) -0.21447(23) 0.22984(78)
N2A N 0.904340 0.460560 0.290080
loop_
_geom_bond_atom_site_label_1
_geom_bond_atom_site_label_2
_geom_bond_site_symmetry_1
_geom_bond_site_symmetry_2
Hg1 C1 1_555 1_555
C1 C2 1_555 1_555
C2 N1 1_555 1_555
N1 N2 1_555 1_555
N2 C3 1_555 1_555
C3 C1 1_555 1_555
H1 N1 1_555 1_555
C4 C2 1_555 1_555
C5 C3 1_555 1_555
C6 C7 1_555 1_555
O1 Hg1 1_555 1_555
O2 C6 1_555 1_555
Hg1A N2 1_555 1_555
N2A Hg1 1_555 1_555
C6 O1 1_555 1_555

#END
