
#######################################################################
#
#                 Cambridge Crystallographic Data Centre
#                                CCDC 
#
#######################################################################
#
# If this CIF has been generated from an entry in the Cambridge 
# Structural Database, then it will include bibliographic, chemical, 
# crystal, experimental, refinement or atomic coordinate data resulting 
# from the CCDC's data processing and validation procedures.
#
#######################################################################

data_XESCII
_symmetry_cell_setting           triclinic
_symmetry_space_group_name_H-M   'P -1'
_symmetry_Int_Tables_number      2
_space_group_name_Hall           '-P 1'
loop_
_symmetry_equiv_pos_site_id
_symmetry_equiv_pos_as_xyz
1 x,y,z
2 -x,-y,-z
_cell_length_a                   9.00966(74)
_cell_length_b                   10.24044(84)
_cell_length_c                   10.65759(83)
_cell_angle_alpha                71.0959(46)
_cell_angle_beta                 101.2425(53)
_cell_angle_gamma                85.9013(66)
_cell_volume                     902.756
loop_
_atom_site_label
_atom_site_type_symbol
_atom_site_fract_x
_atom_site_fract_y
_atom_site_fract_z
Cd1 Cd 0.77827(79) 0.41890(75) 0.59683(64)
C1 C 1.133850 0.363970 0.990130
C2 C 0.994620 0.342840 0.928490
N1 N 1.005420 0.331990 0.806230
N2 N 1.151320 0.346420 0.792300
H1 H 1.190760 0.343260 0.716640
C3 C 1.230690 0.366180 0.905950
H2 H 1.158980 0.375180 1.076590
C4 C 0.853020 0.333130 0.985720
C5 C 1.397020 0.386930 0.933780
C6 C 0.631560 0.012000 0.789290
C7 C 0.744610 0.091290 0.762150
N3 N 0.682140 0.228180 0.718740
N4 N 0.530480 0.233500 0.719060
H3 H 0.459090 0.315870 0.693390
C8 C 0.499210 0.099890 0.762660
H4 H 0.642990 -0.087130 0.821180
C9 C 0.910290 0.036920 0.777490
C10 C 0.344790 0.056730 0.778690
C11 C 0.93651 0.67255 0.53242
C12 C 0.904420 0.728490 0.634650
O1 O 0.841180 0.616250 0.478990
O2 O 1.058840 0.681780 0.499830
C13 C 0.50993 0.39581 0.36476
C14 C 0.592710 0.280840 0.343770
O3 O 0.579720 0.475780 0.408280
O4 O 0.37049 0.412570 0.338890
Cd1A Cd 1.22173(79) 0.58110(75) 0.40317(64)
Cd1A_2 Cd 0.22173(79) 0.58110(75) 0.40317(64)
O2A O 0.941160 0.318220 0.500170
O4A O 0.62951 0.587430 0.661110
loop_
_geom_bond_atom_site_label_1
_geom_bond_atom_site_label_2
_geom_bond_site_symmetry_1
_geom_bond_site_symmetry_2
Cd1 N1 1_555 1_555
C1 C2 1_555 1_555
C2 N1 1_555 1_555
N1 N2 1_555 1_555
N2 H1 1_555 1_555
C3 C1 1_555 1_555
H2 C1 1_555 1_555
C4 C2 1_555 1_555
C5 C3 1_555 1_555
C6 C7 1_555 1_555
C7 N3 1_555 1_555
N3 Cd1 1_555 1_555
N4 N3 1_555 1_555
H3 N4 1_555 1_555
C8 C6 1_555 1_555
H4 C6 1_555 1_555
C9 C7 1_555 1_555
C10 C8 1_555 1_555
C11 C12 1_555 1_555
O1 Cd1 1_555 1_555
O2 C11 1_555 1_555
C13 C14 1_555 1_555
O3 Cd1 1_555 1_555
O4 C13 1_555 1_555
Cd1A O2 1_555 1_555
Cd1A_2 O4 1_555 1_555
O2A Cd1 1_555 1_555
O4A Cd1 1_555 1_555
N2 C3 1_555 1_555
N4 C8 1_555 1_555
C11 O1 1_555 1_555
C13 O3 1_555 1_555

#END
