
#######################################################################
#
#                 Cambridge Crystallographic Data Centre
#                                CCDC 
#
#######################################################################
#
# If this CIF has been generated from an entry in the Cambridge 
# Structural Database, then it will include bibliographic, chemical, 
# crystal, experimental, refinement or atomic coordinate data resulting 
# from the CCDC's data processing and validation procedures.
#
#######################################################################

data_XESDAA
_symmetry_cell_setting           orthorhombic
_symmetry_space_group_name_H-M   'C m c 21'
_symmetry_Int_Tables_number      36
_space_group_name_Hall           'C 2n -2'
loop_
_symmetry_equiv_pos_site_id
_symmetry_equiv_pos_as_xyz
1 x,y,z
2 -x,-y,1/2+z
3 x,-y,1/2+z
4 -x,y,z
5 1/2+x,1/2+y,z
6 1/2-x,1/2-y,1/2+z
7 1/2+x,1/2-y,1/2+z
8 1/2-x,1/2+y,z
_cell_length_a                   18.920(4)
_cell_length_b                   14.370(3)
_cell_length_c                   10.989(2)
_cell_angle_alpha                90
_cell_angle_beta                 90
_cell_angle_gamma                90
_cell_volume                     2987.69
loop_
_atom_site_label
_atom_site_type_symbol
_atom_site_fract_x
_atom_site_fract_y
_atom_site_fract_z
B1 B 0.276(4) -0.041(5) 0.168(7)
Rh1 Rh 0.0000 0.00669(15) 0.26160(13)
Rh2 Rh 0.0000 0.0043(2) 0.50417(12)
O1 O 0.0718(8) -0.0989(10) 0.278(2)
O2 O 0.0750(7) -0.0913(10) 0.485(2)
C1 C 0.0984(8) -0.1219(10) 0.373(3)
C2 C 0.1584(11) -0.1957(14) 0.377(3)
N1 N 0.0678(8) 0.1157(8) 0.237(3)
C3 C 0.1411(8) 0.1232(12) 0.236(3)
C4 C 0.1728(6) 0.2102(16) 0.228(3)
C5 C 0.1312(10) 0.2898(11) 0.220(3)
C6 C 0.0580(10) 0.2823(8) 0.221(3)
C7 C 0.0263(6) 0.1953(11) 0.229(2)
N2 N 0.0728(6) 0.1073(9) 0.522(2)
C8 C 0.1449(7) 0.0896(9) 0.528(2)
C9 C 0.1923(6) 0.1628(13) 0.541(2)
C10 C 0.1676(10) 0.2537(10) 0.548(3)
C11 C 0.0954(11) 0.2714(8) 0.542(3)
C12 C 0.0480(7) 0.1982(11) 0.529(2)
C7C C -0.0263(6) 0.1953(11) 0.229(2)
N1C N -0.0678(8) 0.1157(8) 0.237(3)
C3C C -0.1411(8) 0.1232(12) 0.236(3)
C4C C -0.1728(6) 0.2102(16) 0.228(3)
C5C C -0.1312(10) 0.2898(11) 0.220(3)
C6C C -0.0580(10) 0.2823(8) 0.221(3)
C12C C -0.0480(7) 0.1982(11) 0.529(2)
N2C N -0.0728(6) 0.1073(9) 0.522(2)
C8C C -0.1449(7) 0.0896(9) 0.528(2)
C9C C -0.1923(6) 0.1628(13) 0.541(2)
C10C C -0.1676(10) 0.2537(10) 0.548(3)
C11C C -0.0954(11) 0.2714(8) 0.542(3)
O1C O -0.0718(8) -0.0989(10) 0.278(2)
O2C O -0.0750(7) -0.0913(10) 0.485(2)
C1C C -0.0984(8) -0.1219(10) 0.373(3)
C2C C -0.1584(11) -0.1957(14) 0.377(3)
Rh2A Rh 0.0000 -0.0043(2) 0.00417(12)
Rh1A Rh 0.0000 -0.00669(15) 0.76160(13)
B2? B 0.282(4) -0.033(6) 0.350(7)
B3? B 0.303(3) 0.095(3) 0.298(5)
loop_
_geom_bond_atom_site_label_1
_geom_bond_atom_site_label_2
_geom_bond_site_symmetry_1
_geom_bond_site_symmetry_2
Rh1 Rh2 1_555 1_555
Rh2 O2 1_555 1_555
O1 Rh1 1_555 1_555
O2 C1 1_555 1_555
C1 O1 1_555 1_555
C2 C1 1_555 1_555
N1 Rh1 1_555 1_555
C3 N1 1_555 1_555
C4 C3 1_555 1_555
C5 C4 1_555 1_555
C6 C5 1_555 1_555
C7 N1 1_555 1_555
N2 Rh2 1_555 1_555
C8 N2 1_555 1_555
C9 C8 1_555 1_555
C10 C9 1_555 1_555
C11 C10 1_555 1_555
C12 N2 1_555 1_555
C7C C7 1_555 1_555
N1C Rh1 1_555 1_555
C3C N1C 1_555 1_555
C4C C3C 1_555 1_555
C5C C4C 1_555 1_555
C6C C7C 1_555 1_555
C12C C12 1_555 1_555
N2C Rh2 1_555 1_555
C8C N2C 1_555 1_555
C9C C8C 1_555 1_555
C10C C9C 1_555 1_555
C11C C12C 1_555 1_555
O1C Rh1 1_555 1_555
O2C Rh2 1_555 1_555
C1C O1C 1_555 1_555
C2C C1C 1_555 1_555
Rh2A Rh1 1_555 1_555
Rh1A Rh2 1_555 1_555
C6 C7 1_555 1_555
C11 C12 1_555 1_555
C7C N1C 1_555 1_555
C5C C6C 1_555 1_555
C12C N2C 1_555 1_555
C10C C11C 1_555 1_555
O2C C1C 1_555 1_555

#END
