
#######################################################################
#
#                 Cambridge Crystallographic Data Centre
#                                CCDC 
#
#######################################################################
#
# If this CIF has been generated from an entry in the Cambridge 
# Structural Database, then it will include bibliographic, chemical, 
# crystal, experimental, refinement or atomic coordinate data resulting 
# from the CCDC's data processing and validation procedures.
#
#######################################################################

data_XESFUX
_symmetry_cell_setting           monoclinic
_symmetry_space_group_name_H-M   'I 2/a'
_symmetry_Int_Tables_number      15
_space_group_name_Hall           '-I 2ya'
loop_
_symmetry_equiv_pos_site_id
_symmetry_equiv_pos_as_xyz
1 x,y,z
2 1/2+x,1/2+y,1/2+z
3 1/2-x,y,-z
4 -x,1/2+y,1/2-z
5 -x,-y,-z
6 1/2-x,1/2-y,1/2-z
7 1/2+x,-y,z
8 x,1/2-y,1/2+z
_cell_length_a                   13.894(4)
_cell_length_b                   7.809(2)
_cell_length_c                   17.421(6)
_cell_angle_alpha                90
_cell_angle_beta                 101.04(2)
_cell_angle_gamma                90
_cell_volume                     1855.17
loop_
_atom_site_label
_atom_site_type_symbol
_atom_site_fract_x
_atom_site_fract_y
_atom_site_fract_z
Eu1 Eu 0.461189(10) 0.216244(16) 0.231464(8)
O1 O 0.31798(17) 0.3884(3) 0.16686(16)
H1 H 0.2602(19) 0.355(5) 0.169(3)
H2 H 0.318(3) 0.493(2) 0.173(3)
O2 O 0.62896(19) 0.2423(3) 0.30447(17)
O3 O 0.66201(18) 0.5233(3) 0.31944(16)
O4 O 0.85695(19) 0.7349(3) 0.33110(16)
O5 O 0.94787(17) 0.5182(3) 0.31305(13)
C1 C 0.6845(2) 0.3690(4) 0.33026(17)
C2 C 0.7851(2) 0.3263(4) 0.3780(2)
H3 H 0.8212 0.2610 0.3455
H4 H 0.7768 0.2540 0.4215
C3 C 0.8463(2) 0.4834(4) 0.41007(18)
H5 H 0.8064 0.5583 0.4355
H6 H 0.9015 0.4459 0.4494
C4 C 0.8844(2) 0.5837(4) 0.34841(17)
O6 O 0.48364(16) -0.0186(3) 0.32467(12)
O7 O 0.5255(2) -0.2283(3) 0.40718(14)
C5 C 0.5012(2) -0.0767(4) 0.39528(17)
C6 C 0.4915(3) 0.0433(4) 0.46036(18)
H7 H 0.4263 0.0930 0.4500
H8 H 0.5384 0.1358 0.4616
Eu1C Eu 0.538811(10) -0.283756(16) 0.268536(8)
Eu1C_2 Eu 0.538811(10) 0.716244(16) 0.268536(8)
Eu1F Eu 0.961189(10) 0.783756(16) 0.231464(8)
Eu1E Eu 1.038811(10) 0.283756(16) 0.268536(8)
Eu1G Eu 0.461189(10) 0.283756(16) 0.731464(8)
Eu1D Eu 0.538811(10) -0.216244(16) 0.768536(8)
Eu1E_2 Eu 0.038811(10) 0.283756(16) 0.268536(8)
Eu1F_2 Eu -0.038811(10) -0.216244(16) 0.231464(8)
O1C O 0.68202(17) -0.1116(3) 0.33314(16)
H1C H 0.7398(19) -0.145(5) 0.331(3)
H2C H 0.682(3) -0.007(2) 0.327(3)
O2C O 0.37104(19) -0.2577(3) 0.19553(17)
O3C O 0.33799(18) 0.0233(3) 0.18056(16)
O3_2 O 0.66201(18) -0.4767(3) 0.31944(16)
O4C O 0.14305(19) 0.2349(3) 0.16890(16)
O4F O 0.35695(19) 0.2651(3) 0.33110(16)
O4E O 0.64305(19) -0.2349(3) 0.16890(16)
O5C O 0.05213(17) 0.0182(3) 0.18695(13)
O5F O 0.44787(17) 0.4818(3) 0.31305(13)
O5E O 0.55213(17) -0.0182(3) 0.18695(13)
O5F_2 O 0.44787(17) -0.5182(3) 0.31305(13)
C1C C 0.3155(2) -0.1310(4) 0.16974(17)
C2C C 0.2149(2) -0.1737(4) 0.1220(2)
H3C H 0.1788 -0.2390 0.1545
H4C H 0.2232 -0.2460 0.0785
C3C C 0.1537(2) -0.0166(4) 0.08993(18)
H5C H 0.1936 0.0583 0.0645
H6C H 0.0985 -0.0541 0.0506
C4C C 0.1156(2) 0.0837(4) 0.15159(17)
O6D O 0.51636(16) 0.0186(3) 0.67533(12)
O6C O 0.51636(16) 0.4814(3) 0.17533(12)
O6C_2 O 0.51636(16) -0.5186(3) 0.17533(12)
O7D O 0.4745(2) 0.2283(3) 0.59282(14)
O7C O 0.4745(2) 0.2717(3) 0.09282(14)
C5D C 0.4988(2) 0.0767(4) 0.60472(17)
C6D C 0.5085(3) -0.0433(4) 0.53964(18)
H7D H 0.5737 -0.0930 0.5500
H8D H 0.4616 -0.1358 0.5384
O8 O 0.2500 0.4793(14) 0.0000
H9 H 0.271(9) 0.414(7) 0.0387(6)
H9B H 0.229(9) 0.414(7) -0.0387(6)
loop_
_geom_bond_atom_site_label_1
_geom_bond_atom_site_label_2
_geom_bond_site_symmetry_1
_geom_bond_site_symmetry_2
Eu1 O1 1_555 1_555
O1 H1 1_555 1_555
H2 O1 1_555 1_555
O2 Eu1 1_555 1_555
O3 C1 1_555 1_555
O4 C4 1_555 1_555
O5 C4 1_555 1_555
C1 O2 1_555 1_555
C2 C1 1_555 1_555
H3 C2 1_555 1_555
H4 C2 1_555 1_555
C3 C2 1_555 1_555
H5 C3 1_555 1_555
H6 C3 1_555 1_555
C4 C3 1_555 1_555
O6 Eu1 1_555 1_555
O7 C5 1_555 1_555
C5 O6 1_555 1_555
C6 C5 1_555 1_555
H7 C6 1_555 1_555
H8 C6 1_555 1_555
O8 H9 1_555 1_555
Eu1C O6 1_555 1_555
Eu1C_2 O3 1_555 1_555
Eu1F O4 1_555 1_555
Eu1E O5 1_555 1_555
Eu1G O6D 1_555 1_555
Eu1D O6D 1_555 1_555
Eu1E_2 O4C 1_555 1_555
Eu1F_2 O5C 1_555 1_555
O1C Eu1C 1_555 1_555
H1C O1C 1_555 1_555
H2C O1C 1_555 1_555
O2C Eu1C 1_555 1_555
O3C Eu1 1_555 1_555
O3_2 Eu1C 1_555 1_555
O4C C4C 1_555 1_555
O4F Eu1 1_555 1_555
O4E Eu1C 1_555 1_555
O5C Eu1E_2 1_555 1_555
O5F Eu1 1_555 1_555
O5E Eu1 1_555 1_555
O5F_2 Eu1C 1_555 1_555
C1C O2C 1_555 1_555
C2C C1C 1_555 1_555
H3C C2C 1_555 1_555
H4C C2C 1_555 1_555
C3C C2C 1_555 1_555
H5C C3C 1_555 1_555
H6C C3C 1_555 1_555
C4C O5C 1_555 1_555
O6D C5D 1_555 1_555
O6C Eu1 1_555 1_555
O6C_2 Eu1C 1_555 1_555
O7D Eu1G 1_555 1_555
O7C Eu1 1_555 1_555
C5D O7D 1_555 1_555
C6D C6 1_555 1_555
H7D C6D 1_555 1_555
H8D C6D 1_555 1_555
H9B O8 1_555 1_555
O5 Eu1F 1_555 1_555
O7 Eu1C 1_555 1_555
Eu1C O5E 1_555 1_555
Eu1C_2 O5F 1_555 1_555
Eu1C_2 O6C 1_555 1_555
O3C C1C 1_555 1_555
C3C C4C 1_555 1_555
C5D C6D 1_555 1_555

#END
