
#######################################################################
#
#                 Cambridge Crystallographic Data Centre
#                                CCDC 
#
#######################################################################
#
# If this CIF has been generated from an entry in the Cambridge 
# Structural Database, then it will include bibliographic, chemical, 
# crystal, experimental, refinement or atomic coordinate data resulting 
# from the CCDC's data processing and validation procedures.
#
#######################################################################

data_XESFIL
_symmetry_cell_setting           monoclinic
_symmetry_space_group_name_H-M   'I 2/a'
_symmetry_Int_Tables_number      15
_space_group_name_Hall           '-I 2ya'
loop_
_symmetry_equiv_pos_site_id
_symmetry_equiv_pos_as_xyz
1 x,y,z
2 1/2+x,1/2+y,1/2+z
3 1/2-x,y,-z
4 -x,1/2+y,1/2-z
5 -x,-y,-z
6 1/2-x,1/2-y,1/2-z
7 1/2+x,-y,z
8 x,1/2-y,1/2+z
_cell_length_a                   13.981(3)
_cell_length_b                   7.910(2)
_cell_length_c                   17.561(4)
_cell_angle_alpha                90
_cell_angle_beta                 101.71(2)
_cell_angle_gamma                90
_cell_volume                     1901.65
loop_
_atom_site_label
_atom_site_type_symbol
_atom_site_fract_x
_atom_site_fract_y
_atom_site_fract_z
Nd1 Nd 0.46109(3) 0.21584(5) 0.23140(2)
O1 O 0.3147(4) 0.3913(7) 0.1663(3)
H1 H 0.257(3) 0.361(11) 0.169(6)
H2 H 0.316(6) 0.497(3) 0.175(6)
O2 O 0.6322(4) 0.2415(8) 0.3054(4)
O3 O 0.6637(4) 0.5182(7) 0.3195(4)
O4 O 0.8581(4) 0.7327(7) 0.3323(3)
O5 O 0.9479(4) 0.5174(7) 0.3137(3)
C1 C 0.6870(5) 0.3661(10) 0.3306(4)
C2 C 0.7881(5) 0.3275(11) 0.3782(5)
H3 H 0.8240 0.2635 0.3462
H4 H 0.7811 0.2564 0.4218
C3 C 0.8482(5) 0.4835(10) 0.4097(4)
H5 H 0.8082 0.5568 0.4346
H6 H 0.9035 0.4475 0.4491
C4 C 0.8853(5) 0.5834(10) 0.3489(4)
O6 O 0.4854(4) -0.0179(7) 0.3262(3)
O7 O 0.5282(5) -0.2264(7) 0.4081(3)
C5 C 0.5028(5) -0.0772(10) 0.3965(4)
C6 C 0.4922(6) 0.0394(10) 0.4611(4)
H7 H 0.5384 0.1315 0.4628
H8 H 0.4271 0.0878 0.4495
Nd1C Nd 0.53891(3) -0.28416(5) 0.26860(2)
Nd1C_2 Nd 0.53891(3) 0.71584(5) 0.26860(2)
Nd1F Nd 0.96109(3) 0.78416(5) 0.23140(2)
Nd1E Nd 1.03891(3) 0.28416(5) 0.26860(2)
Nd1G Nd 0.46109(3) 0.28416(5) 0.73140(2)
Nd1D Nd 0.53891(3) -0.21584(5) 0.76860(2)
Nd1E_2 Nd 0.03891(3) 0.28416(5) 0.26860(2)
Nd1F_2 Nd -0.03891(3) -0.21584(5) 0.23140(2)
O1C O 0.6853(4) -0.1087(7) 0.3337(3)
H1C H 0.743(3) -0.139(11) 0.331(6)
H2C H 0.684(6) -0.003(3) 0.325(6)
O2C O 0.3678(4) -0.2585(8) 0.1946(4)
O3C O 0.3363(4) 0.0182(7) 0.1805(4)
O3_2 O 0.6637(4) -0.4818(7) 0.3195(4)
O4C O 0.1419(4) 0.2327(7) 0.1677(3)
O4F O 0.3581(4) 0.2673(7) 0.3323(3)
O4E O 0.6419(4) -0.2327(7) 0.1677(3)
O5C O 0.0521(4) 0.0174(7) 0.1863(3)
O5F O 0.4479(4) 0.4826(7) 0.3137(3)
O5E O 0.5521(4) -0.0174(7) 0.1863(3)
O5F_2 O 0.4479(4) -0.5174(7) 0.3137(3)
C1C C 0.3130(5) -0.1339(10) 0.1694(4)
C2C C 0.2119(5) -0.1725(11) 0.1218(5)
H3C H 0.1760 -0.2365 0.1538
H4C H 0.2189 -0.2436 0.0782
C3C C 0.1518(5) -0.0165(10) 0.0903(4)
H5C H 0.1918 0.0568 0.0654
H6C H 0.0965 -0.0525 0.0509
C4C C 0.1147(5) 0.0834(10) 0.1511(4)
O6D O 0.5146(4) 0.0179(7) 0.6738(3)
O6C O 0.5146(4) 0.4821(7) 0.1738(3)
O6C_2 O 0.5146(4) -0.5179(7) 0.1738(3)
O7D O 0.4718(5) 0.2264(7) 0.5919(3)
O7C O 0.4718(5) 0.2736(7) 0.0919(3)
C5D C 0.4972(5) 0.0772(10) 0.6035(4)
C6D C 0.5078(6) -0.0394(10) 0.5389(4)
H7D H 0.4616 -0.1315 0.5372
H8D H 0.5729 -0.0878 0.5505
O8 O 0.2500 0.482(2) 0.0000
H9 H 0.260(16) 0.413(5) 0.0383(6)
H9B H 0.240(16) 0.413(5) -0.0383(6)
loop_
_geom_bond_atom_site_label_1
_geom_bond_atom_site_label_2
_geom_bond_site_symmetry_1
_geom_bond_site_symmetry_2
Nd1 O1 1_555 1_555
O1 H1 1_555 1_555
H2 O1 1_555 1_555
O2 Nd1 1_555 1_555
O3 C1 1_555 1_555
O4 C4 1_555 1_555
O5 C4 1_555 1_555
C1 O2 1_555 1_555
C2 C1 1_555 1_555
H3 C2 1_555 1_555
H4 C2 1_555 1_555
C3 C2 1_555 1_555
H5 C3 1_555 1_555
H6 C3 1_555 1_555
C4 C3 1_555 1_555
O6 Nd1 1_555 1_555
O7 C5 1_555 1_555
C5 O6 1_555 1_555
C6 C5 1_555 1_555
H7 C6 1_555 1_555
H8 C6 1_555 1_555
O8 H9 1_555 1_555
Nd1C O6 1_555 1_555
Nd1C_2 O3 1_555 1_555
Nd1F O4 1_555 1_555
Nd1E O5 1_555 1_555
Nd1G O6D 1_555 1_555
Nd1D O6D 1_555 1_555
Nd1E_2 O4C 1_555 1_555
Nd1F_2 O5C 1_555 1_555
O1C Nd1C 1_555 1_555
H1C O1C 1_555 1_555
H2C O1C 1_555 1_555
O2C Nd1C 1_555 1_555
O3C Nd1 1_555 1_555
O3_2 Nd1C 1_555 1_555
O4C C4C 1_555 1_555
O4F Nd1 1_555 1_555
O4E Nd1C 1_555 1_555
O5C Nd1E_2 1_555 1_555
O5F Nd1 1_555 1_555
O5E Nd1 1_555 1_555
O5F_2 Nd1C 1_555 1_555
C1C O2C 1_555 1_555
C2C C1C 1_555 1_555
H3C C2C 1_555 1_555
H4C C2C 1_555 1_555
C3C C2C 1_555 1_555
H5C C3C 1_555 1_555
H6C C3C 1_555 1_555
C4C O5C 1_555 1_555
O6D C5D 1_555 1_555
O6C Nd1 1_555 1_555
O6C_2 Nd1C 1_555 1_555
O7D Nd1G 1_555 1_555
O7C Nd1 1_555 1_555
C5D O7D 1_555 1_555
C6D C6 1_555 1_555
H7D C6D 1_555 1_555
H8D C6D 1_555 1_555
H9B O8 1_555 1_555
O5 Nd1F 1_555 1_555
O7 Nd1C 1_555 1_555
Nd1C O5E 1_555 1_555
Nd1C_2 O5F 1_555 1_555
Nd1C_2 O6C 1_555 1_555
O3C C1C 1_555 1_555
C3C C4C 1_555 1_555
C5D C6D 1_555 1_555

#END
