
#######################################################################
#
#                 Cambridge Crystallographic Data Centre
#                                CCDC 
#
#######################################################################
#
# If this CIF has been generated from an entry in the Cambridge 
# Structural Database, then it will include bibliographic, chemical, 
# crystal, experimental, refinement or atomic coordinate data resulting 
# from the CCDC's data processing and validation procedures.
#
#######################################################################

data_XESFOR
_symmetry_cell_setting           monoclinic
_symmetry_space_group_name_H-M   'I 2/a'
_symmetry_Int_Tables_number      15
_space_group_name_Hall           '-I 2ya'
loop_
_symmetry_equiv_pos_site_id
_symmetry_equiv_pos_as_xyz
1 x,y,z
2 1/2+x,1/2+y,1/2+z
3 1/2-x,y,-z
4 -x,1/2+y,1/2-z
5 -x,-y,-z
6 1/2-x,1/2-y,1/2-z
7 1/2+x,-y,z
8 x,1/2-y,1/2+z
_cell_length_a                   13.919(3)
_cell_length_b                   7.842(2)
_cell_length_c                   17.457(4)
_cell_angle_alpha                90.00
_cell_angle_beta                 101.15(3)
_cell_angle_gamma                90.00
_cell_volume                     1869.51
loop_
_atom_site_label
_atom_site_type_symbol
_atom_site_fract_x
_atom_site_fract_y
_atom_site_fract_z
Sm1 Sm 0.461225(15) 0.21607(3) 0.231438(12)
O1 O 0.3171(2) 0.3899(4) 0.1665(2)
H1 H 0.2559(18) 0.381(7) 0.167(4)
H2 H 0.324(4) 0.501(3) 0.172(4)
O2 O 0.6303(3) 0.2431(5) 0.3047(2)
O3 O 0.6624(3) 0.5209(4) 0.3196(2)
O4 O 0.8570(3) 0.7342(4) 0.3314(2)
O5 O 0.9477(2) 0.5174(4) 0.31315(19)
C1 C 0.6854(3) 0.3676(6) 0.3306(3)
C2 C 0.7861(3) 0.3257(6) 0.3779(3)
H3 H 0.8222 0.2615 0.3452
H4 H 0.7783 0.2531 0.4213
C3 C 0.8466(3) 0.4822(6) 0.4100(3)
H5 H 0.8063 0.5565 0.4352
H6 H 0.9015 0.4452 0.4495
C4 C 0.8849(3) 0.5827(6) 0.3486(3)
O6 O 0.4841(2) -0.0183(4) 0.32498(17)
O7 O 0.5253(3) -0.2271(4) 0.4075(2)
C5 C 0.5016(3) -0.0772(6) 0.3952(3)
C6 C 0.4925(5) 0.0427(7) 0.4606(3)
H7 H 0.4280 0.0943 0.4498
H8 H 0.5404 0.1332 0.4624
Sm1C Sm 0.538775(15) -0.28393(3) 0.268562(12)
Sm1C_2 Sm 0.538775(15) 0.71607(3) 0.268562(12)
Sm1F Sm 0.961225(15) 0.78393(3) 0.231438(12)
Sm1E Sm 1.038775(15) 0.28393(3) 0.268562(12)
Sm1G Sm 0.461225(15) 0.28393(3) 0.731438(12)
Sm1D Sm 0.538775(15) -0.21607(3) 0.768562(12)
Sm1E_2 Sm 0.038775(15) 0.28393(3) 0.268562(12)
Sm1F_2 Sm -0.038775(15) -0.21607(3) 0.231438(12)
O1C O 0.6829(2) -0.1101(4) 0.3335(2)
H1C H 0.7441(18) -0.119(7) 0.333(4)
H2C H 0.676(4) 0.001(3) 0.328(4)
O2C O 0.3697(3) -0.2569(5) 0.1953(2)
O3C O 0.3376(3) 0.0209(4) 0.1804(2)
O3_2 O 0.6624(3) -0.4791(4) 0.3196(2)
O4C O 0.1430(3) 0.2342(4) 0.1686(2)
O4F O 0.3570(3) 0.2658(4) 0.3314(2)
O4E O 0.6430(3) -0.2342(4) 0.1686(2)
O5C O 0.0523(2) 0.0174(4) 0.18685(19)
O5F O 0.4477(2) 0.4826(4) 0.31315(19)
O5E O 0.5523(2) -0.0174(4) 0.18685(19)
O5F_2 O 0.4477(2) -0.5174(4) 0.31315(19)
C1C C 0.3146(3) -0.1324(6) 0.1694(3)
C2C C 0.2139(3) -0.1743(6) 0.1221(3)
H3C H 0.1778 -0.2385 0.1548
H4C H 0.2217 -0.2469 0.0787
C3C C 0.1534(3) -0.0178(6) 0.0900(3)
H5C H 0.1937 0.0565 0.0648
H6C H 0.0985 -0.0548 0.0505
C4C C 0.1151(3) 0.0827(6) 0.1514(3)
O6D O 0.5159(2) 0.0183(4) 0.67502(17)
O6C O 0.5159(2) 0.4817(4) 0.17502(17)
O6C_2 O 0.5159(2) -0.5183(4) 0.17502(17)
O7D O 0.4747(3) 0.2271(4) 0.5925(2)
O7C O 0.4747(3) 0.2729(4) 0.0925(2)
C5D C 0.4984(3) 0.0772(6) 0.6048(3)
C6D C 0.5075(5) -0.0427(7) 0.5394(3)
H7D H 0.5720 -0.0943 0.5502
H8D H 0.4596 -0.1332 0.5376
O8 O 0.2500 0.4802(17) 0.0000
H9 H 0.262(13) 0.550(5) 0.0386(6)
H9B H 0.238(13) 0.550(5) -0.0386(6)
loop_
_geom_bond_atom_site_label_1
_geom_bond_atom_site_label_2
_geom_bond_site_symmetry_1
_geom_bond_site_symmetry_2
Sm1 O1 1_555 1_555
O1 H1 1_555 1_555
H2 O1 1_555 1_555
O2 Sm1 1_555 1_555
O3 C1 1_555 1_555
O4 C4 1_555 1_555
O5 C4 1_555 1_555
C1 O2 1_555 1_555
C2 C1 1_555 1_555
H3 C2 1_555 1_555
H4 C2 1_555 1_555
C3 C2 1_555 1_555
H5 C3 1_555 1_555
H6 C3 1_555 1_555
C4 C3 1_555 1_555
O6 Sm1 1_555 1_555
O7 C5 1_555 1_555
C5 O6 1_555 1_555
C6 C5 1_555 1_555
H7 C6 1_555 1_555
H8 C6 1_555 1_555
O8 H9 1_555 1_555
Sm1C O6 1_555 1_555
Sm1C_2 O3 1_555 1_555
Sm1F O4 1_555 1_555
Sm1E O5 1_555 1_555
Sm1G O6D 1_555 1_555
Sm1D O6D 1_555 1_555
Sm1E_2 O4C 1_555 1_555
Sm1F_2 O5C 1_555 1_555
O1C Sm1C 1_555 1_555
H1C O1C 1_555 1_555
H2C O1C 1_555 1_555
O2C Sm1C 1_555 1_555
O3C Sm1 1_555 1_555
O3_2 Sm1C 1_555 1_555
O4C C4C 1_555 1_555
O4F Sm1 1_555 1_555
O4E Sm1C 1_555 1_555
O5C Sm1E_2 1_555 1_555
O5F Sm1 1_555 1_555
O5E Sm1 1_555 1_555
O5F_2 Sm1C 1_555 1_555
C1C O2C 1_555 1_555
C2C C1C 1_555 1_555
H3C C2C 1_555 1_555
H4C C2C 1_555 1_555
C3C C2C 1_555 1_555
H5C C3C 1_555 1_555
H6C C3C 1_555 1_555
C4C O5C 1_555 1_555
O6D C5D 1_555 1_555
O6C Sm1 1_555 1_555
O6C_2 Sm1C 1_555 1_555
O7D Sm1G 1_555 1_555
O7C Sm1 1_555 1_555
C5D O7D 1_555 1_555
C6D C6 1_555 1_555
H7D C6D 1_555 1_555
H8D C6D 1_555 1_555
H9B O8 1_555 1_555
O5 Sm1F 1_555 1_555
O7 Sm1C 1_555 1_555
Sm1C O5E 1_555 1_555
Sm1C_2 O5F 1_555 1_555
Sm1C_2 O6C 1_555 1_555
O3C C1C 1_555 1_555
C3C C4C 1_555 1_555
C5D C6D 1_555 1_555

#END
