
#######################################################################
#
#                 Cambridge Crystallographic Data Centre
#                                CCDC 
#
#######################################################################
#
# If this CIF has been generated from an entry in the Cambridge 
# Structural Database, then it will include bibliographic, chemical, 
# crystal, experimental, refinement or atomic coordinate data resulting 
# from the CCDC's data processing and validation procedures.
#
#######################################################################

data_XESGAE
_symmetry_cell_setting           monoclinic
_symmetry_space_group_name_H-M   'I 2/a'
_symmetry_Int_Tables_number      15
_space_group_name_Hall           '-I 2ya'
loop_
_symmetry_equiv_pos_site_id
_symmetry_equiv_pos_as_xyz
1 x,y,z
2 1/2+x,1/2+y,1/2+z
3 1/2-x,y,-z
4 -x,1/2+y,1/2-z
5 -x,-y,-z
6 1/2-x,1/2-y,1/2-z
7 1/2+x,-y,z
8 x,1/2-y,1/2+z
_cell_length_a                   13.825(2)
_cell_length_b                   7.7180(7)
_cell_length_c                   17.321(3)
_cell_angle_alpha                90
_cell_angle_beta                 101.02(2)
_cell_angle_gamma                90
_cell_volume                     1814.09
loop_
_atom_site_label
_atom_site_type_symbol
_atom_site_fract_x
_atom_site_fract_y
_atom_site_fract_z
Dy1 Dy 0.461068(10) 0.216949(18) 0.231432(8)
O1 O 0.31928(17) 0.3871(4) 0.16741(16)
H1 H 0.260(2) 0.357(6) 0.171(3)
H2 H 0.317(3) 0.495(3) 0.172(3)
O2 O 0.6264(2) 0.2424(4) 0.30384(18)
O3 O 0.66117(18) 0.5261(3) 0.31947(16)
O4 O 0.8574(2) 0.7361(3) 0.33017(17)
O5 O 0.94945(17) 0.5169(3) 0.31270(14)
C1 C 0.6828(2) 0.3699(4) 0.32999(18)
C2 C 0.7838(2) 0.3255(5) 0.3774(2)
H3 H 0.8196 0.2594 0.3444
H4 H 0.7755 0.2519 0.4211
C3 C 0.8460(2) 0.4832(5) 0.40986(18)
H5 H 0.8062 0.5598 0.4354
H6 H 0.9012 0.4444 0.4494
C4 C 0.8850(2) 0.5838(4) 0.34748(17)
O6 O 0.48314(17) -0.0184(3) 0.32342(13)
O7 O 0.5267(2) -0.2303(3) 0.40650(15)
C5 C 0.5012(2) -0.0773(4) 0.39459(18)
C6 C 0.4909(3) 0.0436(5) 0.46020(19)
H7 H 0.4250 0.0922 0.4500
H8 H 0.5372 0.1384 0.4612
Dy1C Dy 0.538932(10) -0.283051(18) 0.268568(8)
Dy1C_2 Dy 0.538932(10) 0.716949(18) 0.268568(8)
Dy1F Dy 0.961068(10) 0.783051(18) 0.231432(8)
Dy1E Dy 1.038932(10) 0.283051(18) 0.268568(8)
Dy1G Dy 0.461068(10) 0.283051(18) 0.731432(8)
Dy1D Dy 0.538932(10) -0.216949(18) 0.768568(8)
Dy1E_2 Dy 0.038932(10) 0.283051(18) 0.268568(8)
Dy1F_2 Dy -0.038932(10) -0.216949(18) 0.231432(8)
O1C O 0.68072(17) -0.1129(4) 0.33259(16)
H1C H 0.740(2) -0.143(6) 0.329(3)
H2C H 0.683(3) -0.005(3) 0.328(3)
O2C O 0.3736(2) -0.2576(4) 0.19616(18)
O3C O 0.33883(18) 0.0261(3) 0.18053(16)
O3_2 O 0.66117(18) -0.4739(3) 0.31947(16)
O4C O 0.1426(2) 0.2361(3) 0.16983(17)
O4F O 0.3574(2) 0.2639(3) 0.33017(17)
O4E O 0.6426(2) -0.2361(3) 0.16983(17)
O5C O 0.05055(17) 0.0169(3) 0.18730(14)
O5F O 0.44945(17) 0.4831(3) 0.31270(14)
O5E O 0.55055(17) -0.0169(3) 0.18730(14)
O5F_2 O 0.44945(17) -0.5169(3) 0.31270(14)
C1C C 0.3172(2) -0.1301(4) 0.17001(18)
C2C C 0.2162(2) -0.1745(5) 0.1226(2)
H3C H 0.1804 -0.2406 0.1556
H4C H 0.2245 -0.2481 0.0789
C3C C 0.1540(2) -0.0168(5) 0.09014(18)
H5C H 0.1938 0.0598 0.0646
H6C H 0.0988 -0.0556 0.0506
C4C C 0.1150(2) 0.0838(4) 0.15252(17)
O6D O 0.51686(17) 0.0184(3) 0.67658(13)
O6C O 0.51686(17) 0.4816(3) 0.17658(13)
O6C_2 O 0.51686(17) -0.5184(3) 0.17658(13)
O7D O 0.4733(2) 0.2303(3) 0.59350(15)
O7C O 0.4733(2) 0.2697(3) 0.09350(15)
C5D C 0.4988(2) 0.0773(4) 0.60541(18)
C6D C 0.5091(3) -0.0436(5) 0.53980(19)
H7D H 0.5750 -0.0922 0.5500
H8D H 0.4628 -0.1384 0.5388
O8 O 0.2500 0.4710(16) 0.0000
H9 H 0.270(10) 0.402(7) 0.0389(6)
H9B H 0.230(10) 0.402(7) -0.0389(6)
loop_
_geom_bond_atom_site_label_1
_geom_bond_atom_site_label_2
_geom_bond_site_symmetry_1
_geom_bond_site_symmetry_2
Dy1 O1 1_555 1_555
O1 H1 1_555 1_555
H2 O1 1_555 1_555
O2 Dy1 1_555 1_555
O3 C1 1_555 1_555
O4 C4 1_555 1_555
O5 C4 1_555 1_555
C1 O2 1_555 1_555
C2 C1 1_555 1_555
H3 C2 1_555 1_555
H4 C2 1_555 1_555
C3 C2 1_555 1_555
H5 C3 1_555 1_555
H6 C3 1_555 1_555
C4 C3 1_555 1_555
O6 Dy1 1_555 1_555
O7 C5 1_555 1_555
C5 O6 1_555 1_555
C6 C5 1_555 1_555
H7 C6 1_555 1_555
H8 C6 1_555 1_555
O8 H9 1_555 1_555
Dy1C O6 1_555 1_555
Dy1C_2 O3 1_555 1_555
Dy1F O4 1_555 1_555
Dy1E O5 1_555 1_555
Dy1G O6D 1_555 1_555
Dy1D O6D 1_555 1_555
Dy1E_2 O4C 1_555 1_555
Dy1F_2 O5C 1_555 1_555
O1C Dy1C 1_555 1_555
H1C O1C 1_555 1_555
H2C O1C 1_555 1_555
O2C Dy1C 1_555 1_555
O3C Dy1 1_555 1_555
O3_2 Dy1C 1_555 1_555
O4C C4C 1_555 1_555
O4F Dy1 1_555 1_555
O4E Dy1C 1_555 1_555
O5C Dy1E_2 1_555 1_555
O5F Dy1 1_555 1_555
O5E Dy1 1_555 1_555
O5F_2 Dy1C 1_555 1_555
C1C O2C 1_555 1_555
C2C C1C 1_555 1_555
H3C C2C 1_555 1_555
H4C C2C 1_555 1_555
C3C C2C 1_555 1_555
H5C C3C 1_555 1_555
H6C C3C 1_555 1_555
C4C O5C 1_555 1_555
O6D C5D 1_555 1_555
O6C Dy1 1_555 1_555
O6C_2 Dy1C 1_555 1_555
O7D Dy1G 1_555 1_555
O7C Dy1 1_555 1_555
C5D O7D 1_555 1_555
C6D C6 1_555 1_555
H7D C6D 1_555 1_555
H8D C6D 1_555 1_555
H9B O8 1_555 1_555
O5 Dy1F 1_555 1_555
O7 Dy1C 1_555 1_555
Dy1C O5E 1_555 1_555
Dy1C_2 O5F 1_555 1_555
Dy1C_2 O6C 1_555 1_555
O3C C1C 1_555 1_555
C3C C4C 1_555 1_555
C5D C6D 1_555 1_555

#END
