
#######################################################################
#
#                 Cambridge Crystallographic Data Centre
#                                CCDC 
#
#######################################################################
#
# If this CIF has been generated from an entry in the Cambridge 
# Structural Database, then it will include bibliographic, chemical, 
# crystal, experimental, refinement or atomic coordinate data resulting 
# from the CCDC's data processing and validation procedures.
#
#######################################################################

data_XESJEK
_symmetry_cell_setting           monoclinic
_symmetry_space_group_name_H-M   'P 21/c'
_symmetry_Int_Tables_number      14
_space_group_name_Hall           '-P 2ybc'
loop_
_symmetry_equiv_pos_site_id
_symmetry_equiv_pos_as_xyz
1 x,y,z
2 x,1/2-y,1/2+z
3 -x,-y,-z
4 -x,1/2+y,1/2-z
_cell_length_a                   11.8910(10)
_cell_length_b                   11.8460(10)
_cell_length_c                   11.8040(10)
_cell_angle_alpha                90
_cell_angle_beta                 110.352(2)
_cell_angle_gamma                90
_cell_volume                     1558.92
loop_
_atom_site_label
_atom_site_type_symbol
_atom_site_fract_x
_atom_site_fract_y
_atom_site_fract_z
Zn1 Zn -0.36930(2) 0.51777(2) 0.32935(2)
N1 N -0.4328(3) 0.6319(2) 0.4819(2)
O1 O -0.44124(18) 0.67182(19) 0.38237(18)
O2 O -0.3839(3) 0.5361(2) 0.5044(2)
O3 O -0.4764(3) 0.6803(3) 0.5465(2)
N2 N -0.19077(19) 0.64102(18) 0.3128(2)
O4 O -0.28737(16) 0.60876(17) 0.23005(17)
O5 O -0.17516(18) 0.60837(17) 0.41785(17)
O6 O -0.11904(18) 0.70026(18) 0.28793(19)
N3 N -0.28546(16) 0.36596(16) 0.34901(17)
C1 C -0.31991(19) 0.28983(19) 0.2601(2)
H1 H -0.3962 0.2989 0.1986
C2 C -0.25071(19) 0.19908(19) 0.25301(19)
H2 H -0.2787 0.1464 0.1886
C3 C -0.13850(19) 0.18628(18) 0.34257(19)
C4 C -0.1048(2) 0.26151(19) 0.43870(19)
H3 H -0.0310 0.2520 0.5037
C5 C -0.1800(2) 0.3503(2) 0.4385(2)
H4 H -0.1562 0.4022 0.5039
C6 C -0.05628(19) 0.09482(19) 0.33680(19)
N4 N 0.04994(17) 0.09094(16) 0.42521(16)
C7 C 0.1240(2) 0.01049(19) 0.4138(2)
N5 N 0.09678(18) -0.06581(18) 0.32515(18)
C8 C -0.0130(2) -0.0547(2) 0.2436(2)
H5 H -0.0367 -0.1086 0.1800
N6 N -0.09253(18) 0.02403(17) 0.24247(19)
C9 C 0.2448(2) 0.00743(18) 0.5086(2)
C10 C 0.3278(2) -0.0754(2) 0.5098(2)
H6 H 0.3085 -0.1318 0.4488
C11 C 0.4382(2) -0.0750(2) 0.6002(2)
H7 H 0.4949 -0.1312 0.5992
N7 N 0.46948(18) 0.00148(16) 0.68995(19)
C12 C 0.3889(2) 0.0801(2) 0.6890(2)
H8 H 0.4096 0.1346 0.7521
C13 C 0.2769(2) 0.0859(2) 0.6006(2)
H9 H 0.2222 0.1435 0.6031
N7A N -0.53052(18) 0.49852(16) 0.18995(19)
Zn1A Zn 0.63070(2) -0.01777(2) 0.82935(2)
loop_
_geom_bond_atom_site_label_1
_geom_bond_atom_site_label_2
_geom_bond_site_symmetry_1
_geom_bond_site_symmetry_2
Zn1 O1 1_555 1_555
N1 O1 1_555 1_555
O2 Zn1 1_555 1_555
O3 N1 1_555 1_555
N2 O4 1_555 1_555
O4 Zn1 1_555 1_555
O5 Zn1 1_555 1_555
O6 N2 1_555 1_555
N3 Zn1 1_555 1_555
C1 N3 1_555 1_555
H1 C1 1_555 1_555
C2 C1 1_555 1_555
H2 C2 1_555 1_555
C3 C2 1_555 1_555
C4 C3 1_555 1_555
H3 C4 1_555 1_555
C5 N3 1_555 1_555
H4 C5 1_555 1_555
C6 C3 1_555 1_555
N4 C6 1_555 1_555
C7 N4 1_555 1_555
N5 C7 1_555 1_555
C8 N5 1_555 1_555
H5 C8 1_555 1_555
N6 C6 1_555 1_555
C9 C7 1_555 1_555
C10 C9 1_555 1_555
H6 C10 1_555 1_555
C11 C10 1_555 1_555
H7 C11 1_555 1_555
N7 C11 1_555 1_555
C12 N7 1_555 1_555
H8 C12 1_555 1_555
C13 C9 1_555 1_555
H9 C13 1_555 1_555
N7A Zn1 1_555 1_555
Zn1A N7 1_555 1_555
N1 O2 1_555 1_555
N2 O5 1_555 1_555
C4 C5 1_555 1_555
C8 N6 1_555 1_555
C12 C13 1_555 1_555

#END
