
#######################################################################
#
#                 Cambridge Crystallographic Data Centre
#                                CCDC 
#
#######################################################################
#
# If this CIF has been generated from an entry in the Cambridge 
# Structural Database, then it will include bibliographic, chemical, 
# crystal, experimental, refinement or atomic coordinate data resulting 
# from the CCDC's data processing and validation procedures.
#
#######################################################################

data_XESJEL
_symmetry_cell_setting           orthorhombic
_symmetry_space_group_name_H-M   'P b c a'
_symmetry_Int_Tables_number      61
_space_group_name_Hall           '-P 2ac 2ab'
loop_
_symmetry_equiv_pos_site_id
_symmetry_equiv_pos_as_xyz
1 x,y,z
2 1/2-x,-y,1/2+z
3 -x,1/2+y,1/2-z
4 1/2+x,1/2-y,-z
5 -x,-y,-z
6 1/2+x,y,1/2-z
7 x,1/2-y,1/2+z
8 1/2-x,1/2+y,z
_cell_length_a                   10.305(2)
_cell_length_b                   9.4931(18)
_cell_length_c                   15.603(3)
_cell_angle_alpha                90
_cell_angle_beta                 90
_cell_angle_gamma                90
_cell_volume                     1526.39
loop_
_atom_site_label
_atom_site_type_symbol
_atom_site_fract_x
_atom_site_fract_y
_atom_site_fract_z
Zn1 Zn 0.37827(5) 0.09258(6) 0.26355(4)
P1 P 0.60500(12) 0.25355(14) 0.19831(8)
N1 N 0.4001(4) 0.1114(4) 0.1337(2)
O1 O 0.5375(3) 0.2057(4) 0.2789(2)
O2 O 0.6113(4) 0.4110(4) 0.1868(2)
O3 O 0.7348(3) 0.1862(4) 0.1842(2)
C1 C 0.5022(4) 0.1915(5) 0.1106(3)
C2 C 0.5265(4) 0.2231(5) 0.0264(3)
H1 H 0.5980 0.2777 0.0115
C3 C 0.4438(5) 0.1729(6) -0.0360(3)
H2 H 0.4576 0.1954 -0.0932
C4 C 0.3409(5) 0.0894(6) -0.0127(3)
H3 H 0.2856 0.0532 -0.0543
C5 C 0.3199(5) 0.0596(5) 0.0731(3)
C6 C 0.2117(5) -0.0335(6) 0.1023(4)
H4 H 0.2469 -0.1197 0.1246
H5 H 0.1558 -0.0542 0.0548
H6 H 0.1631 0.0135 0.1463
Zn1B Zn 0.62173(5) 0.59258(6) 0.23645(4)
Zn1E Zn 0.87827(5) 0.09258(6) 0.23645(4)
O2B O 0.3887(4) -0.0890(4) 0.3132(2)
O3E O 0.2348(3) 0.1862(4) 0.3158(2)
loop_
_geom_bond_atom_site_label_1
_geom_bond_atom_site_label_2
_geom_bond_site_symmetry_1
_geom_bond_site_symmetry_2
Zn1 N1 1_555 1_555
P1 O1 1_555 1_555
N1 C1 1_555 1_555
O1 Zn1 1_555 1_555
O2 P1 1_555 1_555
O3 P1 1_555 1_555
C1 P1 1_555 1_555
C2 C1 1_555 1_555
H1 C2 1_555 1_555
C3 C2 1_555 1_555
H2 C3 1_555 1_555
C4 C3 1_555 1_555
H3 C4 1_555 1_555
C5 N1 1_555 1_555
C6 C5 1_555 1_555
H4 C6 1_555 1_555
H5 C6 1_555 1_555
H6 C6 1_555 1_555
Zn1B O2 1_555 1_555
Zn1E O3 1_555 1_555
O2B Zn1 1_555 1_555
O3E Zn1 1_555 1_555
C4 C5 1_555 1_555

#END
