
#######################################################################
#
#                 Cambridge Crystallographic Data Centre
#                                CCDC 
#
#######################################################################
#
# If this CIF has been generated from an entry in the Cambridge 
# Structural Database, then it will include bibliographic, chemical, 
# crystal, experimental, refinement or atomic coordinate data resulting 
# from the CCDC's data processing and validation procedures.
#
#######################################################################

data_XESKOX
_symmetry_cell_setting           rhombohedral
_symmetry_space_group_name_H-M   'R -3'
_symmetry_Int_Tables_number      148
_space_group_name_Hall           '-R 3'
loop_
_symmetry_equiv_pos_site_id
_symmetry_equiv_pos_as_xyz
1 x,y,z
2 -y,x-y,z
3 -x+y,-x,z
4 1/3+x,2/3+y,2/3+z
5 1/3-y,2/3+x-y,2/3+z
6 1/3-x+y,2/3-x,2/3+z
7 2/3+x,1/3+y,1/3+z
8 2/3-y,1/3+x-y,1/3+z
9 2/3-x+y,1/3-x,1/3+z
10 -x,-y,-z
11 y,-x+y,-z
12 x-y,x,-z
13 2/3-x,1/3-y,1/3-z
14 2/3+y,1/3-x+y,1/3-z
15 2/3+x-y,1/3+x,1/3-z
16 1/3-x,2/3-y,2/3-z
17 1/3+y,2/3-x+y,2/3-z
18 1/3+x-y,2/3+x,2/3-z
_cell_length_a                   26.0701(18)
_cell_length_b                   26.0701(18)
_cell_length_c                   5.9630(6)
_cell_angle_alpha                90
_cell_angle_beta                 90
_cell_angle_gamma                120
_cell_volume                     3509.79
loop_
_atom_site_label
_atom_site_type_symbol
_atom_site_fract_x
_atom_site_fract_y
_atom_site_fract_z
Mn1 Mn 0.28852(33) 0.02433(28) -0.2761(12)
P1 P 0.2753(5) 0.0362(6) 0.1880(21)
O1 O 0.2274(10) 0.0089(8) 0.0146(31)
O2 O 0.2733(5) -0.0083(8) 0.3565(21)
O3 O 0.3304(5) 0.0728(5) 0.0502(23)
N1 N 0.2950(7) 0.1093(7) 0.5641(24)
C1 C 0.2565(6) 0.0846(7) 0.3562(26)
C2 C 0.3538(8) 0.1550(7) 0.4563(19)
C3 C 0.2696(8) 0.14229(28) 0.6916(31)
Mn1L Mn 0.37815(33) 0.30900(28) 1.6094(12)
Mn1D Mn 0.30900(28) -0.06914(43) 0.3906(12)
Mn1_2 Mn 0.28852(33) 0.02433(28) 0.7239(12)
Mn1H Mn 0.40248(43) 0.04481(33) 0.0572(12)
Mn1L_2 Mn 0.37815(33) 0.30900(28) 0.6094(12)
Mn1P Mn 0.35766(28) 0.40248(43) 0.9428(12)
Mn1K Mn 0.26419(43) 0.28852(33) 1.2761(12)
P1L P 0.3914(5) 0.2971(6) 1.1453(21)
O1L O 0.4393(10) 0.3244(8) 1.3187(31)
O2L O 0.3934(5) 0.3416(8) 0.9768(21)
O2H O 0.3851(9) 0.0600(5) -0.3102(21)
O2_2 O 0.2733(5) -0.0083(8) -0.6435(21)
O2K O 0.2816(9) 0.2733(5) 1.6435(21)
O2L_2 O 0.3934(5) 0.3416(8) 1.9768(21)
O3L O 0.3363(5) 0.2605(5) 1.2831(23)
O3D O 0.2605(5) -0.0757(7) -0.2831(23)
O3P O 0.4061(5) 0.4091(7) 1.6165(23)
N1L N 0.3717(7) 0.2240(7) 0.7692(24)
N1_2 N 0.2950(7) 0.1093(7) -0.4359(24)
N1L_2 N 0.3717(7) 0.2240(7) 1.7692(24)
C1L C 0.4102(6) 0.2487(7) 0.9771(26)
C2L C 0.3129(8) 0.1783(7) 0.8770(19)
C3L C 0.3971(8) 0.19104(28) 0.6417(31)
loop_
_geom_bond_atom_site_label_1
_geom_bond_atom_site_label_2
_geom_bond_site_symmetry_1
_geom_bond_site_symmetry_2
Mn1 O1 1_555 1_555
P1 O1 1_555 1_555
O2 P1 1_555 1_555
O3 Mn1 1_555 1_555
N1 C1 1_555 1_555
C1 P1 1_555 1_555
C2 N1 1_555 1_555
C3 N1 1_555 1_555
Mn1L O1L 1_555 1_555
Mn1D O2 1_555 1_555
Mn1_2 O2 1_555 1_555
Mn1H O3 1_555 1_555
Mn1L_2 O2L 1_555 1_555
Mn1P O2L 1_555 1_555
Mn1K O2K 1_555 1_555
P1L O1L 1_555 1_555
O2L P1L 1_555 1_555
O2H Mn1 1_555 1_555
O2_2 Mn1 1_555 1_555
O2K Mn1L 1_555 1_555
O2L_2 Mn1L 1_555 1_555
O3L Mn1L 1_555 1_555
O3D Mn1 1_555 1_555
O3P Mn1L 1_555 1_555
N1L Mn1L_2 1_555 1_555
N1_2 Mn1 1_555 1_555
N1L_2 Mn1L 1_555 1_555
C1L P1L 1_555 1_555
C2L C3 1_555 1_555
C3L C2 1_555 1_555
P1 O3 1_555 1_555
N1 Mn1_2 1_555 1_555
Mn1H O2H 1_555 1_555
Mn1K O3L 1_555 1_555
P1L O3L 1_555 1_555
N1L C1L 1_555 1_555
N1L C2L 1_555 1_555
N1L C3L 1_555 1_555

#END
