
#######################################################################
#
#                 Cambridge Crystallographic Data Centre
#                                CCDC 
#
#######################################################################
#
# If this CIF has been generated from an entry in the Cambridge 
# Structural Database, then it will include bibliographic, chemical, 
# crystal, experimental, refinement or atomic coordinate data resulting 
# from the CCDC's data processing and validation procedures.
#
#######################################################################

data_XESKEN
_symmetry_cell_setting           rhombohedral
_symmetry_space_group_name_H-M   'R -3'
_symmetry_Int_Tables_number      148
_space_group_name_Hall           '-R 3'
loop_
_symmetry_equiv_pos_site_id
_symmetry_equiv_pos_as_xyz
1 x,y,z
2 -y,x-y,z
3 -x+y,-x,z
4 1/3+x,2/3+y,2/3+z
5 1/3-y,2/3+x-y,2/3+z
6 1/3-x+y,2/3-x,2/3+z
7 2/3+x,1/3+y,1/3+z
8 2/3-y,1/3+x-y,1/3+z
9 2/3-x+y,1/3-x,1/3+z
10 -x,-y,-z
11 y,-x+y,-z
12 x-y,x,-z
13 2/3-x,1/3-y,1/3-z
14 2/3+y,1/3-x+y,1/3-z
15 2/3+x-y,1/3+x,1/3-z
16 1/3-x,2/3-y,2/3-z
17 1/3+y,2/3-x+y,2/3-z
18 1/3+x-y,2/3+x,2/3-z
_cell_length_a                   28.2453(10)
_cell_length_b                   28.2453(10)
_cell_length_c                   6.22022(17)
_cell_angle_alpha                90
_cell_angle_beta                 90
_cell_angle_gamma                120
_cell_volume                     4297.63
loop_
_atom_site_label
_atom_site_type_symbol
_atom_site_fract_x
_atom_site_fract_y
_atom_site_fract_z
Mg1 Mg 0.03103(27) 0.64076(25) -0.0673(10)
P1 P 0.04042(21) 0.61565(20) 0.4133(7)
O1 O 0.09566(27) 0.62349(34) 0.4717(14)
O2 O 0.0499(4) 0.66230(26) 0.2638(11)
O3 O 0.01245(29) 0.6195(4) 0.6146(10)
O4 O 0.1143(4) 0.66541(32) -0.1493(15)
N1 N 0.0036(5) 0.55181(26) 0.0439(13)
C1 C -0.0069(4) 0.54912(29) 0.2830(12)
C2 C -0.0458(4) 0.5074(5) -0.0753(15)
C3 C 0.05540(27) 0.5479(4) 0.0081(19)
Mg1I Mg -0.03103(27) 0.35924(25) -0.9327(10)
Mg1_2 Mg 0.03103(27) 0.64076(25) 0.9327(10)
Mg1I_2 Mg -0.03103(27) 0.35924(25) 0.0673(10)
Mg1E Mg -0.05694(37) 0.63564(27) 0.5994(10)
Mg1N Mg 0.05694(37) 0.36436(27) -0.5994(10)
Mg1G Mg 0.02591(25) 0.72360(37) 0.2660(10)
Mg1P Mg -0.02591(25) 0.27640(37) -0.2660(10)
P1I P -0.04042(21) 0.38435(20) -0.4133(7)
O1I O -0.09566(27) 0.37651(34) -0.4717(14)
O2I O -0.0499(4) 0.33770(26) -0.2638(11)
O2E O -0.05427(48) 0.6168(4) -0.0695(11)
O2N O 0.05427(48) 0.3832(4) -0.9305(11)
O2I_2 O -0.0499(4) 0.33770(26) -1.2638(11)
O3I O -0.01245(29) 0.3805(4) -0.6146(10)
O3_2 O 0.01245(29) 0.6195(4) -0.3854(10)
O3G O 0.0472(4) 0.72628(49) -0.0521(10)
O3P O -0.0472(4) 0.27372(49) -0.9479(10)
O4I O -0.1143(4) 0.33459(32) -0.8507(15)
N1I N -0.0036(5) 0.44819(26) -0.0439(13)
N1I_2 N -0.0036(5) 0.44819(26) -1.0439(13)
C1I C 0.0069(4) 0.45088(29) -0.2830(12)
C2I C 0.0458(4) 0.4926(5) 0.0753(15)
C3I C -0.05540(27) 0.4521(4) -0.0081(19)
loop_
_geom_bond_atom_site_label_1
_geom_bond_atom_site_label_2
_geom_bond_site_symmetry_1
_geom_bond_site_symmetry_2
Mg1 O2 1_555 1_555
P1 O1 1_555 1_555
O2 P1 1_555 1_555
O3 P1 1_555 1_555
O4 Mg1 1_555 1_555
N1 Mg1 1_555 1_555
C1 P1 1_555 1_555
C2 N1 1_555 1_555
C3 N1 1_555 1_555
Mg1I O2N 1_555 1_555
Mg1_2 O3 1_555 1_555
Mg1I_2 O2I 1_555 1_555
Mg1E O3 1_555 1_555
Mg1N O2N 1_555 1_555
Mg1G O2 1_555 1_555
Mg1P O2I 1_555 1_555
P1I O1I 1_555 1_555
O2I P1I 1_555 1_555
O2E Mg1 1_555 1_555
O2I_2 Mg1I 1_555 1_555
O3I Mg1I 1_555 1_555
O3_2 Mg1 1_555 1_555
O3G Mg1 1_555 1_555
O3P Mg1I 1_555 1_555
O4I Mg1I 1_555 1_555
N1I Mg1I_2 1_555 1_555
N1I_2 Mg1I 1_555 1_555
C1I P1I 1_555 1_555
C2I C3 1_555 1_555
C3I C2 1_555 1_555
N1 C1 1_555 1_555
Mg1N O3I 1_555 1_555
Mg1G O3G 1_555 1_555
P1I O3I 1_555 1_555
N1I C1I 1_555 1_555
N1I C2I 1_555 1_555
N1I C3I 1_555 1_555

#END
