
#######################################################################
#
#                 Cambridge Crystallographic Data Centre
#                                CCDC 
#
#######################################################################
#
# If this CIF has been generated from an entry in the Cambridge 
# Structural Database, then it will include bibliographic, chemical, 
# crystal, experimental, refinement or atomic coordinate data resulting 
# from the CCDC's data processing and validation procedures.
#
#######################################################################

data_XESLAK
_symmetry_cell_setting           rhombohedral
_symmetry_space_group_name_H-M   'R -3'
_symmetry_Int_Tables_number      148
_space_group_name_Hall           '-R 3'
loop_
_symmetry_equiv_pos_site_id
_symmetry_equiv_pos_as_xyz
1 x,y,z
2 -y,x-y,z
3 -x+y,-x,z
4 1/3+x,2/3+y,2/3+z
5 1/3-y,2/3+x-y,2/3+z
6 1/3-x+y,2/3-x,2/3+z
7 2/3+x,1/3+y,1/3+z
8 2/3-y,1/3+x-y,1/3+z
9 2/3-x+y,1/3-x,1/3+z
10 -x,-y,-z
11 y,-x+y,-z
12 x-y,x,-z
13 2/3-x,1/3-y,1/3-z
14 2/3+y,1/3-x+y,1/3-z
15 2/3+x-y,1/3+x,1/3-z
16 1/3-x,2/3-y,2/3-z
17 1/3+y,2/3-x+y,2/3-z
18 1/3+x-y,2/3+x,2/3-z
_cell_length_a                   28.0942(19)
_cell_length_b                   28.0942(19)
_cell_length_c                   6.28460(34)
_cell_angle_alpha                90
_cell_angle_beta                 90
_cell_angle_gamma                120
_cell_volume                     4295.78
loop_
_atom_site_label
_atom_site_type_symbol
_atom_site_fract_x
_atom_site_fract_y
_atom_site_fract_z
Co1 Co 0.3068(4) 0.03248(34) -0.2832(15)
P1 P 0.4224(5) 0.0310(7) -0.4295(19)
O1 O 0.4747(6) 0.0825(8) -0.478(4)
O2 O 0.3896(4) 0.0445(5) -0.2815(19)
O3 O 0.3850(4) 0.0029(4) -0.6158(18)
O4 O 0.2281(7) 0.0175(7) -0.221(4)
N1 N 0.44779(34) -0.0056(6) -0.0443(26)
C1 C 0.4394(13) -0.0153(10) -0.2827(27)
C2 C 0.4975(8) 0.0508(5) 0.001(5)
C3 C 0.4515(6) -0.0503(7) 0.080(4)
Co1I Co 0.6932(4) -0.03248(34) 0.2832(15)
Co1H Co 0.39235(52) 0.0265(4) 0.0501(15)
Co1H_2 Co 0.39235(52) 0.0265(4) -0.9499(15)
Co1D Co 0.30085(34) -0.05901(52) -0.6165(15)
Co1Q Co 0.60765(52) -0.0265(4) -0.0501(15)
Co1Q_2 Co 0.60765(52) -0.0265(4) 0.9499(15)
Co1M Co 0.69915(34) 0.05901(52) 0.6165(15)
P1I P 0.5776(5) -0.0310(7) 0.4295(19)
O1I O 0.5253(6) -0.0825(8) 0.478(4)
O2I O 0.6104(4) -0.0445(5) 0.2815(19)
O2D O 0.2888(5) 0.0118(6) -0.6148(19)
O2M O 0.7112(5) -0.0118(6) 0.6148(19)
O3I O 0.6150(4) -0.0029(4) 0.6158(18)
O3D O 0.3304(4) 0.0488(6) 0.0509(18)
O3H O 0.2846(6) -0.0517(4) -0.2825(18)
O3M O 0.6696(4) -0.0488(6) -0.0509(18)
O3Q O 0.7154(6) 0.0517(4) 0.2825(18)
O4I O 0.7719(7) -0.0175(7) 0.221(4)
N1I N 0.55221(34) 0.0056(6) 0.0443(26)
N1D N 0.3389(6) 0.12006(69) -0.3776(26)
N1M N 0.6611(6) -0.12006(69) 0.3776(26)
C1I C 0.5606(13) 0.0153(10) 0.2827(27)
C2I C 0.5025(8) -0.0508(5) -0.001(5)
C3I C 0.5485(6) 0.0503(7) -0.080(4)
O5 O 0.4164(15) -0.1450(16) -0.504(6)
O6 O 0.3482(4) -0.2766(6) -0.1657(14)
O7 O 0.3862(19) -0.2058(15) -0.870(6)
loop_
_geom_bond_atom_site_label_1
_geom_bond_atom_site_label_2
_geom_bond_site_symmetry_1
_geom_bond_site_symmetry_2
Co1 O2 1_555 1_555
P1 O1 1_555 1_555
O2 P1 1_555 1_555
O3 P1 1_555 1_555
O4 Co1 1_555 1_555
N1 C1 1_555 1_555
C1 P1 1_555 1_555
C2 N1 1_555 1_555
C3 N1 1_555 1_555
Co1I O2I 1_555 1_555
Co1H O2 1_555 1_555
Co1H_2 O3 1_555 1_555
Co1D O3 1_555 1_555
Co1Q O2I 1_555 1_555
Co1Q_2 O3I 1_555 1_555
Co1M O2M 1_555 1_555
P1I O1I 1_555 1_555
O2I P1I 1_555 1_555
O2D Co1 1_555 1_555
O2M Co1I 1_555 1_555
O3I Co1M 1_555 1_555
O3D Co1 1_555 1_555
O3H Co1 1_555 1_555
O3M Co1I 1_555 1_555
O3Q Co1I 1_555 1_555
O4I Co1I 1_555 1_555
N1I Co1Q 1_555 1_555
N1D Co1 1_555 1_555
N1M Co1I 1_555 1_555
C1I P1I 1_555 1_555
C2I C3 1_555 1_555
C3I C2 1_555 1_555
N1 Co1H 1_555 1_555
Co1H O3D 1_555 1_555
Co1D O2D 1_555 1_555
Co1D O3H 1_555 1_555
Co1Q O3M 1_555 1_555
Co1M O3Q 1_555 1_555
P1I O3I 1_555 1_555
N1I C1I 1_555 1_555
N1I C2I 1_555 1_555
N1I C3I 1_555 1_555

#END
