
#######################################################################
#
#                 Cambridge Crystallographic Data Centre
#                                CCDC 
#
#######################################################################
#
# If this CIF has been generated from an entry in the Cambridge 
# Structural Database, then it will include bibliographic, chemical, 
# crystal, experimental, refinement or atomic coordinate data resulting 
# from the CCDC's data processing and validation procedures.
#
#######################################################################

data_XESNEQ
_symmetry_cell_setting           orthorhombic
_symmetry_space_group_name_H-M   'P c c a'
_symmetry_Int_Tables_number      54
_space_group_name_Hall           '-P 2a 2ac'
loop_
_symmetry_equiv_pos_site_id
_symmetry_equiv_pos_as_xyz
1 x,y,z
2 1/2-x,-y,z
3 -x,y,1/2-z
4 1/2+x,-y,1/2-z
5 -x,-y,-z
6 1/2+x,y,-z
7 x,-y,1/2+z
8 1/2-x,y,1/2+z
_cell_length_a                   14.0650(12)
_cell_length_b                   9.9088(8)
_cell_length_c                   28.933(2)
_cell_angle_alpha                90
_cell_angle_beta                 90
_cell_angle_gamma                90
_cell_volume                     4032.31
loop_
_atom_site_label
_atom_site_type_symbol
_atom_site_fract_x
_atom_site_fract_y
_atom_site_fract_z
Cd1 Cd 0.86913(2) 0.61568(3) 0.601233(10)
N1 N 0.8707(2) 0.8260(4) 0.63534(12)
N2 N 0.8720(2) 0.5854(4) 0.68046(11)
N3 N 0.8777(2) 0.8508(4) 0.82506(12)
H1 H 0.8789 0.7945 0.8477
N4 N 0.8754(3) 1.0478(4) 0.78662(13)
O1 O 0.9842(2) 0.6288(4) 0.55184(10)
O2 O 1.0849(3) 0.6512(4) 0.60901(10)
O3 O 1.1729(2) 0.6061(3) 0.40687(10)
O4 O 1.2741(2) 0.6857(4) 0.45752(10)
C1 C 0.8704(3) 0.9418(5) 0.61255(16)
H2 H 0.8683 0.9397 0.5804
C2 C 0.8730(3) 1.0679(5) 0.63482(17)
H3 H 0.8739 1.1475 0.6178
C3 C 0.8743(3) 1.0708(5) 0.68206(17)
H4 H 0.8750 1.1529 0.6976
C4 C 0.8745(3) 0.9503(4) 0.70664(14)
C5 C 0.8749(3) 0.9419(5) 0.75596(15)
C6 C 0.8768(3) 0.9880(5) 0.82779(16)
C7 C 0.8797(3) 1.0619(6) 0.87148(17)
C8 C 0.8840(5) 1.1999(7) 0.8710(2)
H5 H 0.8836 1.2457 0.8430
C9 C 0.8892(5) 1.2716(8) 0.9120(3)
H6 H 0.8926 1.3652 0.9111
C10 C 0.8892(4) 1.2085(8) 0.9533(2)
H7 H 0.8940 1.2575 0.9806
C11 C 0.8823(5) 1.0733(9) 0.9541(2)
H8 H 0.8808 1.0288 0.9824
C12 C 0.8773(4) 0.9984(7) 0.91333(19)
H9 H 0.8723 0.9049 0.9147
C13 C 0.8765(3) 0.8205(5) 0.77851(14)
C14 C 0.8757(3) 0.6935(4) 0.75540(13)
C15 C 0.8771(3) 0.5655(5) 0.77628(14)
H10 H 0.8790 0.5580 0.8083
C16 C 0.8756(3) 0.4527(5) 0.74950(16)
H11 H 0.8765 0.3675 0.7630
C17 C 0.8725(3) 0.4664(5) 0.70107(15)
H12 H 0.8708 0.3889 0.6829
C18 C 0.8732(3) 0.7001(4) 0.70620(13)
C19 C 0.8729(3) 0.8282(5) 0.68258(13)
C20 C 1.0664(3) 0.6427(5) 0.56707(15)
C21 C 1.1458(3) 0.6450(6) 0.53155(15)
H13 H 1.1886 0.7185 0.5391
H14 H 1.1816 0.5616 0.5342
C22 C 1.1148(3) 0.6608(6) 0.48248(15)
H15 H 1.0847 0.7483 0.4791
H16 H 1.0672 0.5927 0.4758
C23 C 1.1927(3) 0.6496(5) 0.44711(14)
Cd1D Cd 1.13087(2) 0.38432(3) 0.398767(10)
Cd1E Cd 1.36913(2) 0.61568(3) 0.398767(10)
O3D O 0.8271(2) 0.3939(3) 0.59313(10)
O3E O 0.6729(2) 0.6061(3) 0.59313(10)
O4E O 0.7741(2) 0.6857(4) 0.54248(10)
loop_
_geom_bond_atom_site_label_1
_geom_bond_atom_site_label_2
_geom_bond_site_symmetry_1
_geom_bond_site_symmetry_2
Cd1 N1 1_555 1_555
N1 C1 1_555 1_555
N2 Cd1 1_555 1_555
N3 H1 1_555 1_555
N4 C5 1_555 1_555
O1 Cd1 1_555 1_555
O2 C20 1_555 1_555
O3 C23 1_555 1_555
O4 C23 1_555 1_555
C1 H2 1_555 1_555
C2 C1 1_555 1_555
H3 C2 1_555 1_555
C3 C2 1_555 1_555
H4 C3 1_555 1_555
C4 C3 1_555 1_555
C5 C4 1_555 1_555
C6 N3 1_555 1_555
C7 C6 1_555 1_555
C8 C7 1_555 1_555
H5 C8 1_555 1_555
C9 C8 1_555 1_555
H6 C9 1_555 1_555
C10 C9 1_555 1_555
H7 C10 1_555 1_555
C11 C10 1_555 1_555
H8 C11 1_555 1_555
C12 C7 1_555 1_555
H9 C12 1_555 1_555
C13 N3 1_555 1_555
C14 C13 1_555 1_555
C15 C14 1_555 1_555
H10 C15 1_555 1_555
C16 C15 1_555 1_555
H11 C16 1_555 1_555
C17 N2 1_555 1_555
H12 C17 1_555 1_555
C18 N2 1_555 1_555
C19 N1 1_555 1_555
C20 O1 1_555 1_555
C21 C20 1_555 1_555
H13 C21 1_555 1_555
H14 C21 1_555 1_555
C22 C21 1_555 1_555
H15 C22 1_555 1_555
H16 C22 1_555 1_555
C23 C22 1_555 1_555
Cd1D O3 1_555 1_555
Cd1E O3 1_555 1_555
O3D Cd1 1_555 1_555
O3E Cd1 1_555 1_555
O4E Cd1 1_555 1_555
N4 C6 1_555 1_555
O4 Cd1E 1_555 1_555
C4 C19 1_555 1_555
C5 C13 1_555 1_555
C11 C12 1_555 1_555
C14 C18 1_555 1_555
C16 C17 1_555 1_555
C18 C19 1_555 1_555

#END
