
#######################################################################
#
#                 Cambridge Crystallographic Data Centre
#                                CCDC 
#
#######################################################################
#
# If this CIF has been generated from an entry in the Cambridge 
# Structural Database, then it will include bibliographic, chemical, 
# crystal, experimental, refinement or atomic coordinate data resulting 
# from the CCDC's data processing and validation procedures.
#
#######################################################################

data_XESPOC
_symmetry_cell_setting           monoclinic
_symmetry_space_group_name_H-M   'P 21'
_symmetry_Int_Tables_number      4
_space_group_name_Hall           'P 2yb'
loop_
_symmetry_equiv_pos_site_id
_symmetry_equiv_pos_as_xyz
1 x,y,z
2 -x,1/2+y,-z
_cell_length_a                   11.3214(10)
_cell_length_b                   14.8781(14)
_cell_length_c                   11.5946(11)
_cell_angle_alpha                90
_cell_angle_beta                 94.7710(10)
_cell_angle_gamma                90
_cell_volume                     1946.24
loop_
_atom_site_label
_atom_site_type_symbol
_atom_site_fract_x
_atom_site_fract_y
_atom_site_fract_z
Mn1 Mn 0.62729(6) -0.00045(3) 0.39776(6)
O1 O 0.5072(4) 0.1052(4) 0.3698(4)
O2 O 0.4881(3) -0.0904(3) 0.3796(3)
O3 O 0.7613(5) 0.0924(4) 0.4110(5)
N1 N 0.6241(4) -0.0032(4) 0.5913(4)
N2 N 0.6347(4) -0.0041(5) 1.2016(4)
C1 C 0.6289(4) 0.0034(4) 0.8330(4)
C2 C 0.7246(5) -0.0296(5) 0.7773(5)
H1 H 0.7929 -0.0488 0.8204
C3 C 0.7361(4) 0.0183(4) 1.0300(4)
H2 H 0.8069 0.0293 0.9971
C4 C 0.5362(5) -0.0173(5) 1.1350(5)
H3 H 0.4682 -0.0344 1.1693
C5 C 0.7172(5) -0.0335(4) 0.6578(4)
H4 H 0.7801 -0.0585 0.6222
C6 C 0.6317(4) 0.0027(4) 0.9610(4)
O4 O 0.7483(3) -0.1054(3) 0.4161(3)
C7 C 0.7319(5) 0.0169(4) 1.1513(4)
H5 H 0.8001 0.0314 1.1978
C8 C 0.5343(5) 0.0313(4) 0.6462(4)
H6 H 0.4695 0.0548 0.6016
C9 C 0.5329(5) 0.0338(4) 0.7638(4)
H7 H 0.4669 0.0561 0.7970
C10 C 0.4982(6) -0.1717(5) 0.3650(6)
C11 C 0.7191(6) -0.1858(4) 0.4010(6)
C12 C 0.6461(6) 0.2179(4) 0.3745(7)
H8 H 0.6542 0.2785 0.3570
C13 C 0.8128(6) -0.2542(7) 0.4284(10)
H9 H 0.8524 -0.2418 0.5032
H10 H 0.8692 -0.2521 0.3710
H11 H 0.7776 -0.3128 0.4288
C14 C 0.3874(7) -0.2164(6) 0.3162(9)
H12 H 0.3250 -0.2049 0.3655
H13 H 0.4004 -0.2800 0.3113
H14 H 0.3653 -0.1930 0.2403
C15 C 0.5299(5) -0.0065(5) 1.0162(5)
H15 H 0.4565 -0.0056 0.9737
C16 C 0.6003(7) -0.2192(8) 0.3800(10)
H16 H 0.5924 -0.2814 0.3762
C17 C 0.4272(7) 0.2452(6) 0.3268(9)
H17 H 0.3566 0.2092 0.3186
H18 H 0.4380 0.2746 0.2547
H19 H 0.4198 0.2896 0.3859
C18 C 0.7502(7) 0.1742(6) 0.4111(6)
C19 C 0.5333(6) 0.1855(5) 0.3602(6)
C20 C 0.8660(5) 0.2299(6) 0.4331(7)
H20 H 0.8685 0.2753 0.3745
H21 H 0.9333 0.1909 0.4304
H22 H 0.8678 0.2579 0.5078
Mn1_2 Mn 0.62729(6) -0.00045(3) 1.39776(6)
N2_2 N 0.6347(4) -0.0041(5) 0.2016(4)
Mn2 Mn 0.87249(6) 0.48817(3) 0.10227(6)
O5 O 0.9956(4) 0.3856(3) 0.1189(3)
O6 O 1.0090(4) 0.5767(4) 0.1261(4)
O7 O 0.7365(3) 0.3977(3) 0.0797(3)
C21 C 0.8694(5) 0.4877(5) -0.4623(5)
C22 C 0.8693(4) 0.4899(5) -0.3342(5)
O8 O 0.7570(5) 0.5974(4) 0.0955(5)
N3 N 0.8757(4) 0.4870(4) -0.0901(3)
N4 N 0.8648(4) 0.4832(4) -0.7023(3)
C23 C 0.7759(4) 0.5206(4) -0.2777(4)
H23 H 0.7084 0.5430 -0.3192
C24 C 0.7651(5) 0.4758(6) -0.5312(5)
H24 H 0.6937 0.4697 -0.4977
C25 C 0.9686(6) 0.3064(5) 0.1352(6)
C26 C 0.7832(5) 0.5179(6) -0.1571(5)
H25 H 0.7186 0.5393 -0.1207
C27 C 0.7674(5) 0.4732(5) -0.6501(5)
H26 H 0.6966 0.4639 -0.6952
C28 C 0.9675(6) 0.4558(6) -0.2649(5)
H27 H 1.0331 0.4334 -0.2988
C29 C 0.9650(5) 0.4561(5) -0.1451(5)
H28 H 1.0303 0.4330 -0.1009
C30 C 0.9711(5) 0.5049(4) -0.5164(4)
H29 H 1.0414 0.5211 -0.4742
C31 C 0.9647(5) 0.4972(6) -0.6368(5)
H30 H 1.0346 0.5021 -0.6731
C32 C 0.7469(6) 0.3159(5) 0.0930(6)
C33 C 0.8946(6) 0.7080(4) 0.1294(6)
H31 H 0.9016 0.7694 0.1430
C34 C 1.0651(6) 0.2426(7) 0.1811(8)
H32 H 1.0845 0.2540 0.2620
H33 H 1.1342 0.2514 0.1398
H34 H 1.0378 0.1818 0.1708
C35 C 0.6386(8) 0.2647(7) 0.0581(10)
H35 H 0.5751 0.2855 0.1012
H36 H 0.6523 0.2020 0.0735
H37 H 0.6176 0.2732 -0.0231
C36 C 0.8510(7) 0.2684(7) 0.1123(10)
H38 H 0.8454 0.2060 0.1105
C37 C 1.1178(5) 0.7115(6) 0.1761(7)
H39 H 1.1829 0.6700 0.1839
H40 H 1.1125 0.7429 0.2479
H41 H 1.1302 0.7539 0.1160
C38 C 1.0000(6) 0.6588(6) 0.1446(5)
C39 C 0.7823(6) 0.6776(5) 0.0971(6)
C40 C 0.6762(7) 0.7411(6) 0.0753(8)
H42 H 0.6048 0.7065 0.0618
H43 H 0.6868 0.7777 0.0088
H44 H 0.6705 0.7789 0.1417
Mn2_2 Mn 0.87249(6) 0.48817(3) -0.89773(6)
N4_2 N 0.8648(4) 0.4832(4) 0.2977(3)
loop_
_geom_bond_atom_site_label_1
_geom_bond_atom_site_label_2
_geom_bond_site_symmetry_1
_geom_bond_site_symmetry_2
Mn1 O1 1_555 1_555
O1 C19 1_555 1_555
O2 Mn1 1_555 1_555
O3 Mn1 1_555 1_555
N1 Mn1 1_555 1_555
N2 C4 1_555 1_555
C1 C2 1_555 1_555
C2 H1 1_555 1_555
C3 H2 1_555 1_555
C4 H3 1_555 1_555
C5 N1 1_555 1_555
H4 C5 1_555 1_555
C6 C1 1_555 1_555
O4 Mn1 1_555 1_555
C7 N2 1_555 1_555
H5 C7 1_555 1_555
C8 N1 1_555 1_555
H6 C8 1_555 1_555
C9 C1 1_555 1_555
H7 C9 1_555 1_555
C10 O2 1_555 1_555
C11 O4 1_555 1_555
C12 H8 1_555 1_555
C13 C11 1_555 1_555
H9 C13 1_555 1_555
H10 C13 1_555 1_555
H11 C13 1_555 1_555
C14 C10 1_555 1_555
H12 C14 1_555 1_555
H13 C14 1_555 1_555
H14 C14 1_555 1_555
C15 C4 1_555 1_555
H15 C15 1_555 1_555
C16 C10 1_555 1_555
H16 C16 1_555 1_555
C17 H17 1_555 1_555
H18 C17 1_555 1_555
H19 C17 1_555 1_555
C18 O3 1_555 1_555
C19 C12 1_555 1_555
C20 C18 1_555 1_555
H20 C20 1_555 1_555
H21 C20 1_555 1_555
H22 C20 1_555 1_555
Mn2 O5 1_555 1_555
O5 C25 1_555 1_555
O6 Mn2 1_555 1_555
O7 Mn2 1_555 1_555
C21 C22 1_555 1_555
C22 C23 1_555 1_555
O8 Mn2 1_555 1_555
N3 Mn2 1_555 1_555
N4 C27 1_555 1_555
C23 H23 1_555 1_555
C24 C21 1_555 1_555
H24 C24 1_555 1_555
C25 C34 1_555 1_555
C26 N3 1_555 1_555
H25 C26 1_555 1_555
C27 C24 1_555 1_555
H26 C27 1_555 1_555
C28 C22 1_555 1_555
H27 C28 1_555 1_555
C29 N3 1_555 1_555
H28 C29 1_555 1_555
C30 C21 1_555 1_555
H29 C30 1_555 1_555
C31 N4 1_555 1_555
H30 C31 1_555 1_555
C32 O7 1_555 1_555
C33 H31 1_555 1_555
C34 H32 1_555 1_555
H33 C34 1_555 1_555
H34 C34 1_555 1_555
C35 C32 1_555 1_555
H35 C35 1_555 1_555
H36 C35 1_555 1_555
H37 C35 1_555 1_555
C36 C25 1_555 1_555
H38 C36 1_555 1_555
C37 H39 1_555 1_555
H40 C37 1_555 1_555
H41 C37 1_555 1_555
C38 O6 1_555 1_555
C39 O8 1_555 1_555
C40 C39 1_555 1_555
H42 C40 1_555 1_555
H43 C40 1_555 1_555
H44 C40 1_555 1_555
Mn1_2 N2 1_555 1_555
N2_2 Mn1 1_555 1_555
Mn2_2 N4 1_555 1_555
N4_2 Mn2 1_555 1_555
C2 C5 1_555 1_555
C3 C6 1_555 1_555
C3 C7 1_555 1_555
C6 C15 1_555 1_555
C8 C9 1_555 1_555
C11 C16 1_555 1_555
C12 C18 1_555 1_555
C17 C19 1_555 1_555
C23 C26 1_555 1_555
C28 C29 1_555 1_555
C30 C31 1_555 1_555
C32 C36 1_555 1_555
C33 C38 1_555 1_555
C33 C39 1_555 1_555
C37 C38 1_555 1_555

#END
