
#######################################################################
#
#                 Cambridge Crystallographic Data Centre
#                                CCDC 
#
#######################################################################
#
# If this CIF has been generated from an entry in the Cambridge 
# Structural Database, then it will include bibliographic, chemical, 
# crystal, experimental, refinement or atomic coordinate data resulting 
# from the CCDC's data processing and validation procedures.
#
#######################################################################

data_XESSOE
_symmetry_cell_setting           triclinic
_symmetry_space_group_name_H-M   'P -1'
_symmetry_Int_Tables_number      2
_space_group_name_Hall           '-P 1'
loop_
_symmetry_equiv_pos_site_id
_symmetry_equiv_pos_as_xyz
1 x,y,z
2 -x,-y,-z
_cell_length_a                   6.836(6)
_cell_length_b                   9.705(12)
_cell_length_c                   11.504(13)
_cell_angle_alpha                107.70(9)
_cell_angle_beta                 103.57(7)
_cell_angle_gamma                99.80(9)
_cell_volume                     682.322
loop_
_atom_site_label
_atom_site_type_symbol
_atom_site_fract_x
_atom_site_fract_y
_atom_site_fract_z
Cu1 Cu 0.0000 0.0000 0.0000
O1 O 0.0992(4) 0.0652(3) 0.2187(2)
O2 O 0.2863(4) -0.1827(2) 0.6107(2)
O3 O 0.1157(5) -0.1503(3) 0.2390(2)
O4 O 0.1924(4) -0.2536(2) 0.4028(3)
O5 O 0.0690(4) 0.2147(3) 0.0151(3)
O6 O 0.3636(5) 0.4761(3) 0.8575(2)
O7 O 0.5320(5) 0.3170(3) 0.9079(3)
O8 O 0.2145(5) 0.5304(4) 0.5746(3)
O9 O 0.5462(5) 0.5696(3) 0.6762(3)
C1 C 0.2527(5) 0.2271(4) 0.4670(3)
C2 C 0.3643(5) 0.2634(4) 0.6894(3)
C3 C 0.2211(5) 0.0723(3) 0.4313(3)
C4 C 0.3260(5) 0.3239(3) 0.5939(3)
C5 C 0.1390(5) -0.0095(4) 0.2856(3)
C6 C 0.3744(6) 0.4887(4) 0.6211(3)
C7 C 0.4213(6) 0.3621(4) 0.8263(3)
C8 C 0.2666(5) 0.0118(3) 0.5284(3)
C9 C 0.2472(5) -0.1511(4) 0.5144(3)
C10 C 0.3357(5) 0.1101(4) 0.6558(3)
N1 N -0.2974(4) 0.0007(3) 0.0003(2)
C11 C -0.3385(6) 0.1005(4) 0.0943(3)
C12 C -0.4589(5) -0.0993(4) -0.0936(3)
H1 H -0.4346(50) -0.1667(37) -0.1588(34)
H2 H -0.2262(53) 0.1695(36) 0.1585(32)
H3 H 0.3573(49) 0.0673(36) 0.7152(34)
H4 H 0.2262(44) 0.2669(33) 0.4081(30)
H5 H 0.0194(67) 0.2229(47) -0.0509(47)
H6 H 0.2420(71) 0.6064(53) 0.5773(43)
H7 H 0.0566(67) 0.2855(54) 0.0762(47)
H8 H 0.1587(76) -0.2150(55) 0.3283(53)
H9 H 0.5603(79) 0.3791(56) 0.9791(53)
Cu1_2 Cu -1.0000 0.0000 0.0000
O1A O -0.0992(4) -0.0652(3) -0.2187(2)
O2A O -0.2863(4) 0.1827(2) -0.6107(2)
O3A O -0.1157(5) 0.1503(3) -0.2390(2)
O4A O -0.1924(4) 0.2536(2) -0.4028(3)
O5A O -0.0690(4) -0.2147(3) -0.0151(3)
O6A O -0.3636(5) -0.4761(3) -0.8575(2)
O7A O -0.5320(5) -0.3170(3) -0.9079(3)
O8A O -0.2145(5) -0.5304(4) -0.5746(3)
O9A O -0.5462(5) -0.5696(3) -0.6762(3)
C1A C -0.2527(5) -0.2271(4) -0.4670(3)
C2A C -0.3643(5) -0.2634(4) -0.6894(3)
C3A C -0.2211(5) -0.0723(3) -0.4313(3)
C4A C -0.3260(5) -0.3239(3) -0.5939(3)
C5A C -0.1390(5) 0.0095(4) -0.2856(3)
C6A C -0.3744(6) -0.4887(4) -0.6211(3)
C7A C -0.4213(6) -0.3621(4) -0.8263(3)
C8A C -0.2666(5) -0.0118(3) -0.5284(3)
C9A C -0.2472(5) 0.1511(4) -0.5144(3)
C10A C -0.3357(5) -0.1101(4) -0.6558(3)
N1A N -0.7026(4) -0.0007(3) -0.0003(2)
N1A_2 N 0.2974(4) -0.0007(3) -0.0003(2)
C11A C -0.6615(6) -0.1005(4) -0.0943(3)
C12A C -0.5411(5) 0.0993(4) 0.0936(3)
H1A H -0.5654(50) 0.1667(37) 0.1588(34)
H2A H -0.7738(53) -0.1695(36) -0.1585(32)
H3A H -0.3573(49) -0.0673(36) -0.7152(34)
H4A H -0.2262(44) -0.2669(33) -0.4081(30)
H5A H -0.0194(67) -0.2229(47) 0.0509(47)
H6A H -0.2420(71) -0.6064(53) -0.5773(43)
H7A H -0.0566(67) -0.2855(54) -0.0762(47)
H8A H -0.1587(76) 0.2150(55) -0.3283(53)
H9A H -0.5603(79) -0.3791(56) -0.9791(53)
O10 O 0.0417(6) 0.4290(5) 0.2128(4)
H10 H 0.0817(76) 0.4821(54) 0.1733(47)
H11 H 0.166(13) 0.4810(89) 0.2866(76)
loop_
_geom_bond_atom_site_label_1
_geom_bond_atom_site_label_2
_geom_bond_site_symmetry_1
_geom_bond_site_symmetry_2
Cu1 O1 1_555 1_555
O1 C5 1_555 1_555
O2 C9 1_555 1_555
O3 C5 1_555 1_555
O4 C9 1_555 1_555
O5 Cu1 1_555 1_555
O6 C7 1_555 1_555
O7 C7 1_555 1_555
O8 C6 1_555 1_555
O9 C6 1_555 1_555
C1 C3 1_555 1_555
C2 C4 1_555 1_555
C3 C5 1_555 1_555
C4 C1 1_555 1_555
C6 C4 1_555 1_555
C7 C2 1_555 1_555
C8 C3 1_555 1_555
C9 C8 1_555 1_555
C10 C2 1_555 1_555
N1 Cu1 1_555 1_555
C11 N1 1_555 1_555
C12 N1 1_555 1_555
H1 C12 1_555 1_555
H2 C11 1_555 1_555
H3 C10 1_555 1_555
H4 C1 1_555 1_555
H5 O5 1_555 1_555
H6 O8 1_555 1_555
H7 O5 1_555 1_555
H8 O4 1_555 1_555
H9 O7 1_555 1_555
O10 H10 1_555 1_555
H11 O10 1_555 1_555
Cu1_2 N1A 1_555 1_555
O1A Cu1 1_555 1_555
O2A C9A 1_555 1_555
O3A C5A 1_555 1_555
O4A C9A 1_555 1_555
O5A Cu1 1_555 1_555
O6A C7A 1_555 1_555
O7A C7A 1_555 1_555
O8A C6A 1_555 1_555
O9A C6A 1_555 1_555
C1A C3A 1_555 1_555
C2A C4A 1_555 1_555
C3A C5A 1_555 1_555
C4A C1A 1_555 1_555
C5A O1A 1_555 1_555
C6A C4A 1_555 1_555
C7A C2A 1_555 1_555
C8A C3A 1_555 1_555
C9A C8A 1_555 1_555
C10A C2A 1_555 1_555
N1A C11A 1_555 1_555
N1A_2 Cu1 1_555 1_555
C11A C12 1_555 1_555
C12A C11 1_555 1_555
H1A C12A 1_555 1_555
H2A C11A 1_555 1_555
H3A C10A 1_555 1_555
H4A C1A 1_555 1_555
H5A O5A 1_555 1_555
H6A O8A 1_555 1_555
H7A O5A 1_555 1_555
H8A O4A 1_555 1_555
H9A O7A 1_555 1_555
C8 C10 1_555 1_555
C8A C10A 1_555 1_555
N1A C12A 1_555 1_555

#END
