
#######################################################################
#
#                 Cambridge Crystallographic Data Centre
#                                CCDC 
#
#######################################################################
#
# If this CIF has been generated from an entry in the Cambridge 
# Structural Database, then it will include bibliographic, chemical, 
# crystal, experimental, refinement or atomic coordinate data resulting 
# from the CCDC's data processing and validation procedures.
#
#######################################################################

data_XESSUK
_symmetry_cell_setting           monoclinic
_symmetry_space_group_name_H-M   'P 21/c'
_symmetry_Int_Tables_number      14
_space_group_name_Hall           '-P 2ybc'
loop_
_symmetry_equiv_pos_site_id
_symmetry_equiv_pos_as_xyz
1 x,y,z
2 -x,1/2+y,1/2-z
3 -x,-y,-z
4 x,1/2-y,1/2+z
_cell_length_a                   11.0433(10)
_cell_length_b                   9.5065(9)
_cell_length_c                   32.266(3)
_cell_angle_alpha                90
_cell_angle_beta                 96.365(4)
_cell_angle_gamma                90
_cell_volume                     3366.51
loop_
_atom_site_label
_atom_site_type_symbol
_atom_site_fract_x
_atom_site_fract_y
_atom_site_fract_z
Cu1 Cu 0.01146(3) 0.20442(4) 0.125149(10)
C1 C 0.3850(2) 0.1859(3) 0.10860(8)
C2 C 0.4273(2) 0.1759(3) 0.15078(8)
H1 H 0.3705 0.1610 0.1704
C3 C 0.5506(2) 0.1870(3) 0.16493(7)
C4 C 0.6337(2) 0.2120(3) 0.13608(7)
C5 C 0.5910(2) 0.2231(3) 0.09371(7)
H2 H 0.6476 0.2387 0.0741
C6 C 0.4673(2) 0.2119(3) 0.07962(7)
O1 O 0.18596(15) 0.2212(2) 0.12310(5)
C7 C 0.2495(2) 0.1707(3) 0.09657(8)
N1 N -0.0943(2) 0.7365(3) 0.01813(7)
H3 H -0.1488 0.7340 -0.0039
H4 H -0.0575 0.8161 0.0257
O2 O 0.21142(16) 0.1081(2) 0.06330(6)
N2 N -0.01797(19) 0.3730(3) 0.08897(7)
C8 C 0.0414(2) 0.4947(3) 0.09842(8)
H5 H 0.1014 0.4964 0.1219
C9 C 0.0195(2) 0.6170(3) 0.07576(8)
H6 H 0.0632 0.7003 0.0841
C10 C -0.0672(2) 0.6185(3) 0.04039(8)
C11 C -0.1237(2) 0.4891(3) 0.02953(8)
H7 H -0.1792 0.4820 0.0049
C12 C -0.0990(2) 0.3735(3) 0.05416(8)
H8 H -0.1410 0.2887 0.0465
O3 O 0.53383(17) 0.2385(2) 0.23580(6)
C13 C 0.5897(2) 0.1654(3) 0.21111(8)
N3 N 0.0978(2) -0.3377(3) 0.22977(7)
H9 H 0.0565 -0.4140 0.2218
H10 H 0.1508 -0.3397 0.2522
O4 O 0.67025(16) 0.0763(2) 0.22124(6)
N4 N 0.04037(19) 0.0327(2) 0.16050(6)
C14 C 0.1214(2) 0.0262(3) 0.19517(8)
H11 H 0.1658 0.1089 0.2035
C15 C 0.1433(2) -0.0927(3) 0.21913(8)
H12 H 0.2008 -0.0905 0.2433
C16 C 0.0798(2) -0.2175(3) 0.20756(8)
C17 C -0.0042(2) -0.2112(3) 0.17158(8)
H13 H -0.0493 -0.2925 0.1623
C18 C -0.0209(2) -0.0872(3) 0.14990(8)
H14 H -0.0793 -0.0857 0.1259
O5 O 0.46953(18) 0.1603(2) 0.00776(5)
C24 C 0.4268(2) 0.2412(3) 0.03401(8)
O6 O 0.35769(17) 0.3435(2) 0.02533(5)
O11 O 0.83614(15) 0.1772(2) 0.12414(5)
C30 C 0.7683(2) 0.2326(3) 0.14890(8)
O12 O 0.80153(16) 0.3059(2) 0.18026(5)
Cu1_2 Cu 1.01146(3) 0.20442(4) 0.125149(10)
O11_2 O -0.16386(15) 0.1772(2) 0.12414(5)
N5 N 0.2710(2) 0.3894(3) 0.81380(7)
H15 H 0.272(3) 0.338(3) 0.7924(9)
H16 H 0.256(3) 0.483(4) 0.8108(10)
C19 C 0.3038(2) 0.3345(3) 0.85158(8)
C20 C 0.3335(3) 0.1920(3) 0.85733(8)
H17 H 0.3275 0.1298 0.8341
C21 C 0.3712(3) 0.1426(3) 0.89670(8)
H18 H 0.3923 0.0461 0.9004
N6 N 0.3790(2) 0.2278(3) 0.93003(7)
H19 H 0.399(3) 0.205(4) 0.9515(10)
C22 C 0.3481(2) 0.3637(3) 0.92590(8)
H20 H 0.3539 0.4223 0.9499
C23 C 0.3086(3) 0.4192(3) 0.88786(8)
H21 H 0.2843 0.5150 0.8857
N7 N 0.6660(2) 0.1310(3) 0.44276(7)
H22 H 0.6863 0.2012 0.4599
H23 H 0.6561 0.0460 0.4527
C25 C 0.6502(2) 0.1536(3) 0.40163(8)
C26 C 0.6162(3) 0.0426(3) 0.37342(9)
H24 H 0.6077 -0.0501 0.3837
C27 C 0.5956(3) 0.0680(3) 0.33166(9)
H25 H 0.5731 -0.0074 0.3130
N8 N 0.6068(2) 0.1984(3) 0.31658(7)
H26 H 0.5907 0.2137 0.2896
C28 C 0.6420(3) 0.3049(3) 0.34185(8)
H27 H 0.6515 0.3955 0.3302
C29 C 0.6649(3) 0.2881(3) 0.38421(8)
H28 H 0.6904 0.3657 0.4016
O7 O 0.71166(19) 0.8109(2) 0.25629(6)
H29 H 0.635(3) 0.792(3) 0.2602(9)
H30 H 0.699(3) 0.891(4) 0.2453(10)
O8 O 0.0459(2) 0.3723(2) 0.19029(6)
H31 H 0.098(4) 0.340(4) 0.2073(12)
H32 H -0.029(4) 0.346(4) 0.1993(12)
O9 O 0.2791(2) 0.8960(3) 0.00587(7)
H33 H 0.358(4) 0.886(4) 0.0037(11)
H34 H 0.270(4) 0.962(5) 0.0221(15)
O10 O 0.9699(2) 0.0214(2) 0.05301(7)
H35 H 1.045(3) 0.055(4) 0.0529(11)
H36 H 0.915(4) 0.071(4) 0.0380(12)
loop_
_geom_bond_atom_site_label_1
_geom_bond_atom_site_label_2
_geom_bond_site_symmetry_1
_geom_bond_site_symmetry_2
Cu1 O1 1_555 1_555
C1 C2 1_555 1_555
C2 H1 1_555 1_555
C3 C2 1_555 1_555
C4 C3 1_555 1_555
C5 C4 1_555 1_555
H2 C5 1_555 1_555
C6 C1 1_555 1_555
O1 C7 1_555 1_555
C7 C1 1_555 1_555
N1 H3 1_555 1_555
H4 N1 1_555 1_555
O2 C7 1_555 1_555
N2 Cu1 1_555 1_555
C8 N2 1_555 1_555
H5 C8 1_555 1_555
C9 C8 1_555 1_555
H6 C9 1_555 1_555
C10 N1 1_555 1_555
C11 C10 1_555 1_555
H7 C11 1_555 1_555
C12 N2 1_555 1_555
H8 C12 1_555 1_555
O3 C13 1_555 1_555
C13 C3 1_555 1_555
N3 H9 1_555 1_555
H10 N3 1_555 1_555
O4 C13 1_555 1_555
N4 Cu1 1_555 1_555
C14 N4 1_555 1_555
H11 C14 1_555 1_555
C15 C14 1_555 1_555
H12 C15 1_555 1_555
C16 N3 1_555 1_555
C17 C16 1_555 1_555
H13 C17 1_555 1_555
C18 N4 1_555 1_555
H14 C18 1_555 1_555
N5 H15 1_555 1_555
H16 N5 1_555 1_555
C19 N5 1_555 1_555
C20 C19 1_555 1_555
H17 C20 1_555 1_555
C21 C20 1_555 1_555
H18 C21 1_555 1_555
N6 C21 1_555 1_555
H19 N6 1_555 1_555
C22 N6 1_555 1_555
H20 C22 1_555 1_555
C23 C19 1_555 1_555
H21 C23 1_555 1_555
O5 C24 1_555 1_555
C24 C6 1_555 1_555
N7 H22 1_555 1_555
H23 N7 1_555 1_555
O6 C24 1_555 1_555
C25 N7 1_555 1_555
C26 C25 1_555 1_555
H24 C26 1_555 1_555
C27 C26 1_555 1_555
H25 C27 1_555 1_555
N8 C27 1_555 1_555
H26 N8 1_555 1_555
C28 N8 1_555 1_555
H27 C28 1_555 1_555
C29 C25 1_555 1_555
H28 C29 1_555 1_555
O7 H29 1_555 1_555
H30 O7 1_555 1_555
O8 H31 1_555 1_555
H32 O8 1_555 1_555
O9 H33 1_555 1_555
H34 O9 1_555 1_555
O10 H35 1_555 1_555
H36 O10 1_555 1_555
O11 C30 1_555 1_555
C30 C4 1_555 1_555
O12 C30 1_555 1_555
Cu1_2 O11 1_555 1_555
O11_2 Cu1 1_555 1_555
C5 C6 1_555 1_555
C9 C10 1_555 1_555
C11 C12 1_555 1_555
C15 C16 1_555 1_555
C17 C18 1_555 1_555
C22 C23 1_555 1_555
C28 C29 1_555 1_555

#END
