
#######################################################################
#
#                 Cambridge Crystallographic Data Centre
#                                CCDC 
#
#######################################################################
#
# If this CIF has been generated from an entry in the Cambridge 
# Structural Database, then it will include bibliographic, chemical, 
# crystal, experimental, refinement or atomic coordinate data resulting 
# from the CCDC's data processing and validation procedures.
#
#######################################################################

data_XESWUO
_symmetry_cell_setting           monoclinic
_symmetry_space_group_name_H-M   'P 21/n'
_symmetry_Int_Tables_number      14
_space_group_name_Hall           '-P 2yn'
loop_
_symmetry_equiv_pos_site_id
_symmetry_equiv_pos_as_xyz
1 x,y,z
2 1/2-x,1/2+y,1/2-z
3 -x,-y,-z
4 1/2+x,1/2-y,1/2+z
_cell_length_a                   11.809(3)
_cell_length_b                   11.243(3)
_cell_length_c                   12.933(3)
_cell_angle_alpha                90
_cell_angle_beta                 108.712(5)
_cell_angle_gamma                90
_cell_volume                     1626.34
loop_
_atom_site_label
_atom_site_type_symbol
_atom_site_fract_x
_atom_site_fract_y
_atom_site_fract_z
Zn1 Zn 0.0000 0.0000 0.5000
S1 S -0.19705(6) 0.06014(7) 0.52511(6)
S2 S -0.05145(7) -0.19684(7) 0.57289(6)
P1 P -0.18488(7) -0.10211(7) 0.59145(6)
O1 O -0.1666(2) -0.0984(2) 0.71783(17)
O2 O -0.31083(19) -0.1673(2) 0.54779(17)
N1 N 0.0971(2) 0.0659(2) 0.6675(2)
N2 N 0.4483(2) 0.0355(2) 0.9795(2)
C1 C -0.2475(4) -0.0309(4) 0.7608(3)
H1 H -0.2990 0.0233 0.7036
C2 C -0.1700(6) 0.0393(5) 0.8562(5)
H2 H -0.1232 0.0974 0.8305
H3 H -0.1158 -0.0147 0.9086
H4 H -0.2205 0.0811 0.8916
C3 C -0.3229(5) -0.1198(6) 0.7965(5)
H5 H -0.3738 -0.1630 0.7327
H6 H -0.3732 -0.0780 0.8321
H7 H -0.2708 -0.1761 0.8480
C4 C -0.3825(3) -0.1747(3) 0.4330(3)
H8 H -0.3746 -0.0998 0.3942
C5 C -0.5110(4) -0.1869(6) 0.4376(5)
H9 H -0.5312 -0.1163 0.4725
H10 H -0.5163 -0.2578 0.4799
H11 H -0.5671 -0.1944 0.3633
C6 C -0.3505(4) -0.2757(5) 0.3800(4)
H12 H -0.2685 -0.2660 0.3787
H13 H -0.4053 -0.2816 0.3051
H14 H -0.3558 -0.3482 0.4202
C7 C 0.1965(3) 0.0119(3) 0.7300(2)
H15 H 0.2192 -0.0610 0.7051
C8 C 0.2683(3) 0.0572(3) 0.8298(2)
C9 C 0.2326(3) 0.1620(3) 0.8677(2)
H16 H 0.2789 0.1953 0.9356
C10 C 0.1287(3) 0.2168(3) 0.8047(3)
H17 H 0.1017 0.2877 0.8292
C11 C 0.0641(3) 0.1666(3) 0.7049(3)
H18 H -0.0065 0.2056 0.6614
C12 C 0.3795(3) -0.0047(3) 0.8897(3)
H19 H 0.4003 -0.0760 0.8607
Zn1_2 Zn 1.0000 0.0000 1.5000
S1B S 0.19705(6) -0.06014(7) 0.47489(6)
S2B S 0.05145(7) 0.19684(7) 0.42711(6)
P1B P 0.18488(7) 0.10211(7) 0.40855(6)
O1B O 0.1666(2) 0.0984(2) 0.28217(17)
O2B O 0.31083(19) 0.1673(2) 0.45221(17)
N1B N 0.9029(2) -0.0659(2) 1.3325(2)
N1B_2 N -0.0971(2) -0.0659(2) 0.3325(2)
N2B N 0.5517(2) -0.0355(2) 1.0205(2)
C1B C 0.2475(4) 0.0309(4) 0.2392(3)
H1B H 0.2990 -0.0233 0.2964
C2B C 0.1700(6) -0.0393(5) 0.1438(5)
H2B H 0.1232 -0.0974 0.1695
H3B H 0.1158 0.0147 0.0914
H4B H 0.2205 -0.0811 0.1084
C3B C 0.3229(5) 0.1198(6) 0.2035(5)
H5B H 0.3738 0.1630 0.2673
H6B H 0.3732 0.0780 0.1679
H7B H 0.2708 0.1761 0.1520
C4B C 0.3825(3) 0.1747(3) 0.5670(3)
H8B H 0.3746 0.0998 0.6058
C5B C 0.5110(4) 0.1869(6) 0.5624(5)
H9B H 0.5312 0.1163 0.5275
H10B H 0.5163 0.2578 0.5201
H11B H 0.5671 0.1944 0.6367
C6B C 0.3505(4) 0.2757(5) 0.6200(4)
H12B H 0.2685 0.2660 0.6213
H13B H 0.4053 0.2816 0.6949
H14B H 0.3558 0.3482 0.5798
C7B C 0.8035(3) -0.0119(3) 1.2700(2)
H15B H 0.7808 0.0610 1.2949
C8B C 0.7317(3) -0.0572(3) 1.1702(2)
C9B C 0.7674(3) -0.1620(3) 1.1323(2)
H16B H 0.7211 -0.1953 1.0644
C10B C 0.8713(3) -0.2168(3) 1.1953(3)
H17B H 0.8983 -0.2877 1.1708
C11B C 0.9359(3) -0.1666(3) 1.2951(3)
H18B H 1.0065 -0.2056 1.3386
C12B C 0.6205(3) 0.0047(3) 1.1103(3)
H19B H 0.5997 0.0760 1.1393
loop_
_geom_bond_atom_site_label_1
_geom_bond_atom_site_label_2
_geom_bond_site_symmetry_1
_geom_bond_site_symmetry_2
Zn1 S1 1_555 1_555
S1 P1 1_555 1_555
S2 Zn1 1_555 1_555
P1 S2 1_555 1_555
O1 P1 1_555 1_555
O2 P1 1_555 1_555
N1 Zn1 1_555 1_555
N2 C12 1_555 1_555
C1 O1 1_555 1_555
H1 C1 1_555 1_555
C2 C1 1_555 1_555
H2 C2 1_555 1_555
H3 C2 1_555 1_555
H4 C2 1_555 1_555
C3 C1 1_555 1_555
H5 C3 1_555 1_555
H6 C3 1_555 1_555
H7 C3 1_555 1_555
C4 O2 1_555 1_555
H8 C4 1_555 1_555
C5 C4 1_555 1_555
H9 C5 1_555 1_555
H10 C5 1_555 1_555
H11 C5 1_555 1_555
C6 C4 1_555 1_555
H12 C6 1_555 1_555
H13 C6 1_555 1_555
H14 C6 1_555 1_555
C7 N1 1_555 1_555
H15 C7 1_555 1_555
C8 C7 1_555 1_555
C9 C8 1_555 1_555
H16 C9 1_555 1_555
C10 C9 1_555 1_555
H17 C10 1_555 1_555
C11 N1 1_555 1_555
H18 C11 1_555 1_555
C12 C8 1_555 1_555
H19 C12 1_555 1_555
Zn1_2 N1B 1_555 1_555
S1B Zn1 1_555 1_555
S2B Zn1 1_555 1_555
P1B S1B 1_555 1_555
O1B P1B 1_555 1_555
O2B P1B 1_555 1_555
N1B C7B 1_555 1_555
N1B_2 Zn1 1_555 1_555
N2B N2 1_555 1_555
C1B O1B 1_555 1_555
H1B C1B 1_555 1_555
C2B C1B 1_555 1_555
H2B C2B 1_555 1_555
H3B C2B 1_555 1_555
H4B C2B 1_555 1_555
C3B C1B 1_555 1_555
H5B C3B 1_555 1_555
H6B C3B 1_555 1_555
H7B C3B 1_555 1_555
C4B O2B 1_555 1_555
H8B C4B 1_555 1_555
C5B C4B 1_555 1_555
H9B C5B 1_555 1_555
H10B C5B 1_555 1_555
H11B C5B 1_555 1_555
C6B C4B 1_555 1_555
H12B C6B 1_555 1_555
H13B C6B 1_555 1_555
H14B C6B 1_555 1_555
C7B H15B 1_555 1_555
C8B C7B 1_555 1_555
C9B C8B 1_555 1_555
H16B C9B 1_555 1_555
C10B C9B 1_555 1_555
H17B C10B 1_555 1_555
C11B N1B 1_555 1_555
H18B C11B 1_555 1_555
C12B N2B 1_555 1_555
H19B C12B 1_555 1_555
C10 C11 1_555 1_555
S2B P1B 1_555 1_555
C8B C12B 1_555 1_555
C10B C11B 1_555 1_555

#END
