
#######################################################################
#
#                 Cambridge Crystallographic Data Centre
#                                CCDC 
#
#######################################################################
#
# If this CIF has been generated from an entry in the Cambridge 
# Structural Database, then it will include bibliographic, chemical, 
# crystal, experimental, refinement or atomic coordinate data resulting 
# from the CCDC's data processing and validation procedures.
#
#######################################################################

data_XETGEK
_symmetry_cell_setting           triclinic
_symmetry_space_group_name_H-M   'P -1'
_symmetry_Int_Tables_number      2
_space_group_name_Hall           '-P 1'
loop_
_symmetry_equiv_pos_site_id
_symmetry_equiv_pos_as_xyz
1 x,y,z
2 -x,-y,-z
_cell_length_a                   9.594(5)
_cell_length_b                   11.921(8)
_cell_length_c                   13.227(7)
_cell_angle_alpha                93.933(13)
_cell_angle_beta                 106.926(10)
_cell_angle_gamma                113.703(8)
_cell_volume                     1295.06
loop_
_atom_site_label
_atom_site_type_symbol
_atom_site_fract_x
_atom_site_fract_y
_atom_site_fract_z
Co1 Co 0.14602(5) 0.60022(4) 0.53719(4)
S1 S -0.31064(10) 0.80496(8) 0.95123(7)
O1 O 0.0432(3) 0.6606(2) 0.6298(2)
O2 O -0.2015(3) 0.4950(2) 0.5645(2)
O3 O -0.4852(3) 0.7475(2) 0.9150(2)
O4 O -0.2230(3) 0.9395(2) 0.9790(2)
O5 O -0.2066(3) 0.4893(2) 1.3436(2)
O6 O 0.0346(3) 0.6598(2) 1.4107(2)
N1 N 0.3656(3) 0.7572(3) 0.5864(2)
N2 N 0.8498(3) 0.9924(3) 0.5077(2)
C1 C -0.0998(4) 0.5991(3) 0.6269(3)
C2 C -0.1546(4) 0.6529(3) 0.7043(3)
C3 C -0.3181(4) 0.5996(3) 0.6950(3)
H1 H -0.3939 0.5319 0.6387
C4 C -0.3680(4) 0.6467(3) 0.7685(3)
H2 H -0.4768 0.6122 0.7622
C5 C -0.2519(4) 0.7469(3) 0.8520(3)
C6 C -0.0885(4) 0.8021(3) 0.8624(3)
H3 H -0.0130 0.8700 0.9187
C7 C -0.0409(4) 0.7546(3) 0.7880(3)
H4 H 0.0677 0.7905 0.7937
C8 C -0.2404(4) 0.7462(3) 1.0650(3)
C9 C -0.3019(4) 0.6167(3) 1.0551(3)
H5 H -0.3712 0.5633 0.9884
C10 C -0.2596(4) 0.5678(3) 1.1443(3)
H6 H -0.3017 0.4815 1.1383
C11 C -0.1530(4) 0.6489(3) 1.2440(3)
C12 C -0.0892(4) 0.7772(3) 1.2518(3)
H7 H -0.0155 0.8309 1.3174
C13 C -0.1344(4) 0.8269(3) 1.1624(3)
H8 H -0.0935 0.9131 1.1683
C14 C -0.1041(4) 0.5959(3) 1.3407(3)
C15 C 0.4482(4) 0.7939(3) 0.5198(3)
H9 H 0.4057 0.7444 0.4507
C16 C 0.5941(4) 0.9018(3) 0.5471(3)
C17 C 0.6541(4) 0.9731(3) 0.6516(3)
H10 H 0.7504 1.0467 0.6739
C18 C 0.5719(4) 0.9350(3) 0.7214(3)
H11 H 0.6134 0.9818 0.7915
C19 C 0.4270(4) 0.8271(3) 0.6875(3)
H12 H 0.3710 0.8022 0.7350
C20 C 0.6732(4) 0.9433(4) 0.4650(3)
H13 H 0.6293 0.8727 0.4052
H14 H 0.6456 1.0076 0.4369
C21 C 0.9189(4) 1.0573(3) 0.4312(3)
H15 H 0.8892 1.1254 0.4199
H16 H 0.8740 0.9994 0.3622
C22 C 0.8988(4) 0.8913(3) 0.5276(3)
H17 H 0.8533 0.8292 0.4610
H18 H 0.8565 0.8504 0.5803
N1A N 1.6344(3) 1.2428(3) 0.4136(2)
N2A N 1.1502(3) 1.0076(3) 0.4923(2)
C15A C 1.5518(4) 1.2061(3) 0.4802(3)
H9A H 1.5943 1.2556 0.5493
C16A C 1.4059(4) 1.0982(3) 0.4529(3)
C17A C 1.3459(4) 1.0269(3) 0.3484(3)
H10A H 1.2496 0.9533 0.3261
C18A C 1.4281(4) 1.0650(3) 0.2786(3)
H11A H 1.3866 1.0182 0.2085
C19A C 1.5730(4) 1.1729(3) 0.3125(3)
H12A H 1.6290 1.1978 0.2650
C20A C 1.3268(4) 1.0567(4) 0.5350(3)
H13A H 1.3707 1.1273 0.5948
H14A H 1.3544 0.9924 0.5631
C21A C 1.0811(4) 0.9427(3) 0.5688(3)
H15A H 1.1108 0.8746 0.5801
H16A H 1.1260 1.0006 0.6378
C22A C 1.1012(4) 1.1087(3) 0.4724(3)
H17A H 1.1467 1.1708 0.5390
H18A H 1.1435 1.1496 0.4197
Co1A Co -0.14602(5) 0.39978(4) 0.46281(4)
S1A S 0.31064(10) 0.19504(8) 0.04877(7)
O1A O -0.0432(3) 0.3394(2) 0.3702(2)
O2A O 0.2015(3) 0.5050(2) 0.4355(2)
O3A O 0.4852(3) 0.2525(2) 0.0850(2)
O4A O 0.2230(3) 0.0605(2) 0.0210(2)
O5A O 0.2066(3) 0.5107(2) -0.3436(2)
O6A O -0.0346(3) 0.3402(2) -0.4107(2)
C1A C 0.0998(4) 0.4009(3) 0.3731(3)
C2A C 0.1546(4) 0.3471(3) 0.2957(3)
C3A C 0.3181(4) 0.4004(3) 0.3050(3)
H1A H 0.3939 0.4681 0.3613
C4A C 0.3680(4) 0.3533(3) 0.2315(3)
H2A H 0.4768 0.3878 0.2378
C5A C 0.2519(4) 0.2531(3) 0.1480(3)
C6A C 0.0885(4) 0.1979(3) 0.1376(3)
H3A H 0.0130 0.1300 0.0813
C7A C 0.0409(4) 0.2454(3) 0.2120(3)
H4A H -0.0677 0.2095 0.2063
C8A C 0.2404(4) 0.2538(3) -0.0650(3)
C9A C 0.3019(4) 0.3833(3) -0.0551(3)
H5A H 0.3712 0.4367 0.0116
C10A C 0.2596(4) 0.4322(3) -0.1443(3)
H6A H 0.3017 0.5185 -0.1383
C11A C 0.1530(4) 0.3511(3) -0.2440(3)
C12A C 0.0892(4) 0.2228(3) -0.2518(3)
H7A H 0.0155 0.1691 -0.3174
C13A C 0.1344(4) 0.1731(3) -0.1624(3)
H8A H 0.0935 0.0869 -0.1683
C14A C 0.1041(4) 0.4041(3) -0.3407(3)
Co1_2 Co 0.14602(5) 0.60022(4) -0.46281(4)
Co1_3 Co 0.14602(5) 0.60022(4) 1.53719(4)
Co1A_2 Co -0.14602(5) 0.39978(4) -0.53719(4)
Co1A_3 Co -0.14602(5) 0.39978(4) 1.46281(4)
Co1A_4 Co 1.85398(5) 1.39978(4) 0.46281(4)
O5_2 O -0.2066(3) 0.4893(2) 0.3436(2)
O5A_2 O 0.2066(3) 0.5107(2) 0.6564(2)
O6_2 O 0.0346(3) 0.6598(2) 0.4107(2)
O6A_2 O -0.0346(3) 0.3402(2) 0.5893(2)
N1A_2 N -0.3656(3) 0.2428(3) 0.4136(2)
O7 O 0.3650(6) 0.7101(5) 0.2345(4)
C23 C 0.4107(8) 0.7392(10) 0.1456(5)
H19 H 0.4458 0.6795 0.1220
H20 H 0.5015 0.8220 0.1660
C24 C 0.2695(8) 0.7362(9) 0.0528(6)
H21 H 0.2951 0.8177 0.0341
H22 H 0.2401 0.6744 -0.0109
C25 C 0.1444(8) 0.7022(8) 0.0976(6)
H23 H 0.0425 0.6398 0.0450
H24 H 0.1301 0.7748 0.1198
C26 C 0.1980(8) 0.6497(9) 0.1932(7)
H25 H 0.1536 0.6640 0.2473
H26 H 0.1606 0.5601 0.1714
loop_
_geom_bond_atom_site_label_1
_geom_bond_atom_site_label_2
_geom_bond_site_symmetry_1
_geom_bond_site_symmetry_2
Co1 O1 1_555 1_555
S1 O3 1_555 1_555
O1 C1 1_555 1_555
O2 C1 1_555 1_555
O4 S1 1_555 1_555
O5 C14 1_555 1_555
O6 C14 1_555 1_555
N1 Co1 1_555 1_555
N2 C20 1_555 1_555
C1 C2 1_555 1_555
C2 C3 1_555 1_555
C3 H1 1_555 1_555
C4 C3 1_555 1_555
H2 C4 1_555 1_555
C5 S1 1_555 1_555
C6 C5 1_555 1_555
H3 C6 1_555 1_555
C7 C2 1_555 1_555
H4 C7 1_555 1_555
C8 S1 1_555 1_555
C9 C8 1_555 1_555
H5 C9 1_555 1_555
C10 C9 1_555 1_555
H6 C10 1_555 1_555
C11 C10 1_555 1_555
C12 C11 1_555 1_555
H7 C12 1_555 1_555
C13 C8 1_555 1_555
H8 C13 1_555 1_555
C14 C11 1_555 1_555
C15 N1 1_555 1_555
H9 C15 1_555 1_555
C16 C15 1_555 1_555
C17 C16 1_555 1_555
H10 C17 1_555 1_555
C18 C17 1_555 1_555
H11 C18 1_555 1_555
C19 N1 1_555 1_555
H12 C19 1_555 1_555
C20 C16 1_555 1_555
H13 C20 1_555 1_555
H14 C20 1_555 1_555
C21 N2 1_555 1_555
H15 C21 1_555 1_555
H16 C21 1_555 1_555
C22 N2 1_555 1_555
H17 C22 1_555 1_555
H18 C22 1_555 1_555
O7 C23 1_555 1_555
C23 H19 1_555 1_555
H20 C23 1_555 1_555
C24 C23 1_555 1_555
H21 C24 1_555 1_555
H22 C24 1_555 1_555
C25 C24 1_555 1_555
H23 C25 1_555 1_555
H24 C25 1_555 1_555
C26 O7 1_555 1_555
H25 C26 1_555 1_555
H26 C26 1_555 1_555
N1A C15A 1_555 1_555
N2A C20A 1_555 1_555
C15A H9A 1_555 1_555
C16A C15A 1_555 1_555
C17A C16A 1_555 1_555
H10A C17A 1_555 1_555
C18A C17A 1_555 1_555
H11A C18A 1_555 1_555
C19A N1A 1_555 1_555
H12A C19A 1_555 1_555
C20A C16A 1_555 1_555
H13A C20A 1_555 1_555
H14A C20A 1_555 1_555
C21A C22 1_555 1_555
H15A C21A 1_555 1_555
H16A C21A 1_555 1_555
C22A C21 1_555 1_555
H17A C22A 1_555 1_555
H18A C22A 1_555 1_555
Co1A Co1 1_555 1_555
S1A O3A 1_555 1_555
O1A Co1A 1_555 1_555
O2A Co1 1_555 1_555
O4A S1A 1_555 1_555
O5A C14A 1_555 1_555
O6A C14A 1_555 1_555
C1A O1A 1_555 1_555
C2A C1A 1_555 1_555
C3A C2A 1_555 1_555
H1A C3A 1_555 1_555
C4A C3A 1_555 1_555
H2A C4A 1_555 1_555
C5A S1A 1_555 1_555
C6A C5A 1_555 1_555
H3A C6A 1_555 1_555
C7A C2A 1_555 1_555
H4A C7A 1_555 1_555
C8A S1A 1_555 1_555
C9A C8A 1_555 1_555
H5A C9A 1_555 1_555
C10A C9A 1_555 1_555
H6A C10A 1_555 1_555
C11A C10A 1_555 1_555
C12A C11A 1_555 1_555
H7A C12A 1_555 1_555
C13A C8A 1_555 1_555
H8A C13A 1_555 1_555
C14A C11A 1_555 1_555
Co1_2 O5A 1_555 1_555
Co1_3 O6 1_555 1_555
Co1A_2 O6A 1_555 1_555
Co1A_3 O5 1_555 1_555
Co1A_4 N1A 1_555 1_555
O5_2 Co1A 1_555 1_555
O5A_2 Co1 1_555 1_555
O6_2 Co1 1_555 1_555
O6A_2 Co1A 1_555 1_555
N1A_2 Co1A 1_555 1_555
O2 Co1A 1_555 1_555
C4 C5 1_555 1_555
C6 C7 1_555 1_555
C12 C13 1_555 1_555
C18 C19 1_555 1_555
C25 C26 1_555 1_555
N2A C21A 1_555 1_555
N2A C22A 1_555 1_555
C18A C19A 1_555 1_555
O2A C1A 1_555 1_555
C4A C5A 1_555 1_555
C6A C7A 1_555 1_555
C12A C13A 1_555 1_555
Co1_2 Co1A_2 1_555 1_555
Co1_3 Co1A_3 1_555 1_555

#END
