
#######################################################################
#
#                 Cambridge Crystallographic Data Centre
#                                CCDC 
#
#######################################################################
#
# If this CIF has been generated from an entry in the Cambridge 
# Structural Database, then it will include bibliographic, chemical, 
# crystal, experimental, refinement or atomic coordinate data resulting 
# from the CCDC's data processing and validation procedures.
#
#######################################################################

data_XETGIO
_symmetry_cell_setting           triclinic
_symmetry_space_group_name_H-M   'P -1'
_symmetry_Int_Tables_number      2
_space_group_name_Hall           '-P 1'
loop_
_symmetry_equiv_pos_site_id
_symmetry_equiv_pos_as_xyz
1 x,y,z
2 -x,-y,-z
_cell_length_a                   10.172(6)
_cell_length_b                   14.001(8)
_cell_length_c                   17.235(10)
_cell_angle_alpha                100.546(11)
_cell_angle_beta                 94.864(11)
_cell_angle_gamma                105.435(11)
_cell_volume                     2302.88
loop_
_atom_site_label
_atom_site_type_symbol
_atom_site_fract_x
_atom_site_fract_y
_atom_site_fract_z
Zn1 Zn 0.81180(12) 0.35396(9) 1.26374(7)
Zn2 Zn 0.66983(11) 0.10532(9) 0.39636(6)
Br1 Br 1.36024(13) 0.36461(12) 1.57970(7)
Br2 Br 1.13523(13) 0.11204(12) 0.09011(7)
Br3 Br 0.71911(15) 0.83620(12) 1.08100(8)
O1 O 0.9718(6) 0.3511(5) 1.3389(4)
O2 O 1.0694(7) 0.3594(6) 1.2301(4)
O3 O 1.5547(8) 0.3668(8) 1.2329(5)
O4 O 1.6699(7) 0.3401(6) 1.3359(4)
O5 O 0.8639(8) 0.4866(6) 1.2377(5)
O6 O 0.7897(11) 0.4679(7) 1.1063(6)
O7 O 1.0139(10) 0.8094(8) 1.4139(5)
H1 H 1.0265 0.8349 1.4616
O8 O 0.8785(8) 0.9096(6) 1.4086(5)
O9 O 0.6597(6) -0.0270(5) 0.4307(4)
O10 O 0.8030(6) 0.0992(5) 0.3211(4)
O11 O 0.9436(7) 0.1399(6) 0.4359(4)
O12 O 1.4020(7) 0.0649(6) 0.4303(4)
O13 O 1.5021(6) 0.0885(5) 0.3243(4)
N1 N 0.7555(8) 0.2346(6) 1.1701(4)
N2 N 0.7611(8) 0.1750(7) 0.8939(4)
N3 N 0.6843(7) 0.2673(6) 0.7669(4)
H2 H 0.7518 0.3274 0.7817
N4 N 0.7108(7) 0.2204(6) 0.4938(4)
C1 C 1.0756(10) 0.3548(7) 1.3008(6)
C2 C 1.2074(10) 0.3551(7) 1.3471(6)
C3 C 1.3209(9) 0.3556(7) 1.3086(6)
H3 H 1.3143 0.3567 1.2547
C4 C 1.4458(10) 0.3544(8) 1.3487(6)
C5 C 1.4569(10) 0.3563(8) 1.4288(6)
H4 H 1.5395 0.3564 1.4566
C6 C 1.3474(10) 0.3579(8) 1.4668(6)
C7 C 1.2190(11) 0.3548(7) 1.4293(6)
H5 H 1.1442 0.3527 1.4572
C8 C 1.5642(11) 0.3543(9) 1.3030(7)
C9 C 0.8229(12) 0.5151(10) 1.1759(9)
C10 C 0.8268(10) 0.6285(8) 1.1975(6)
C11 C 0.8741(10) 0.6851(8) 1.2735(6)
H6 H 0.9089 0.6558 1.3118
C12 C 0.8712(10) 0.7828(8) 1.2938(6)
C13 C 0.8153(12) 0.8263(11) 1.2351(7)
H7 H 0.8058 0.8913 1.2483
C14 C 0.7770(10) 0.7712(9) 1.1608(6)
C15 C 0.7785(10) 0.6721(8) 1.1402(6)
H8 H 0.7472 0.6350 1.0883
C16 C 0.9192(12) 0.8394(9) 1.3779(7)
C17 C 0.6560(11) 0.1492(9) 1.1688(6)
H9 H 0.6112 0.1442 1.2134
C18 C 0.6178(11) 0.0697(9) 1.1053(7)
H10 H 0.5487 0.0116 1.1070
C19 C 0.6804(11) 0.0753(8) 1.0396(6)
H11 H 0.6563 0.0204 0.9964
C20 C 0.7829(10) 0.1651(8) 1.0369(6)
C21 C 0.8149(10) 0.2385(7) 1.1032(5)
H12 H 0.8842 0.2972 1.1032
C22 C 0.8580(10) 0.1767(10) 0.9652(6)
H13 H 0.9309 0.2403 0.9777
H14 H 0.8997 0.1220 0.9529
C23 C 0.6948(10) 0.2571(8) 0.9081(6)
H15 H 0.7652 0.3219 0.9237
H16 H 0.6411 0.2491 0.9517
C24 C 0.6027(10) 0.2566(8) 0.8354(6)
H17 H 0.5623 0.3123 0.8463
H18 H 0.5285 0.1937 0.8215
C25 C 0.7527(10) 0.1864(8) 0.7537(5)
H19 H 0.8096 0.1958 0.7118
H20 H 0.6837 0.1210 0.7368
C26 C 0.8398(10) 0.1878(8) 0.8281(5)
H21 H 0.8834 0.1338 0.8179
H22 H 0.9120 0.2517 0.8430
C27 C 0.5954(11) 0.2728(10) 0.6943(6)
H23 H 0.5562 0.3287 0.7078
H24 H 0.5200 0.2108 0.6784
C28 C 0.6752(11) 0.2874(9) 0.6245(6)
C29 C 0.7704(13) 0.3765(10) 0.6243(6)
H25 H 0.7889 0.4300 0.6684
C30 C 0.8376(12) 0.3882(9) 0.5618(6)
H26 H 0.9044 0.4486 0.5627
C31 C 0.8069(11) 0.3098(9) 0.4964(6)
H27 H 0.8530 0.3181 0.4527
C32 C 0.6475(10) 0.2132(8) 0.5583(5)
H28 H 0.5800 0.1532 0.5574
C33 C 0.9221(10) 0.1166(7) 0.3619(6)
C34 C 1.0372(8) 0.1019(6) 0.3161(6)
C35 C 1.1567(8) 0.0917(7) 0.3562(5)
H29 H 1.1607 0.0879 0.4096
C36 C 1.2682(9) 0.0874(7) 0.3173(5)
C37 C 1.2592(9) 0.0910(8) 0.2387(5)
H30 H 1.3330 0.0861 0.2114
C38 C 1.1436(10) 0.1018(8) 0.1994(5)
C39 C 1.0288(10) 0.1045(7) 0.2361(5)
H31 H 0.9486 0.1081 0.2080
C40 C 1.3992(10) 0.0785(7) 0.3622(6)
Zn1_2 Zn 1.81180(12) 0.35396(9) 1.26374(7)
Zn2_2 Zn 1.66983(11) 0.10532(9) 0.39636(6)
O4_2 O 0.6699(7) 0.3401(6) 1.3359(4)
O13_2 O 0.5021(6) 0.0885(5) 0.3243(4)
O14 O 0.8303(11) 0.4667(7) 0.8308(5)
loop_
_geom_bond_atom_site_label_1
_geom_bond_atom_site_label_2
_geom_bond_site_symmetry_1
_geom_bond_site_symmetry_2
Zn1 O1 1_555 1_555
Zn2 O9 1_555 1_555
Br1 C6 1_555 1_555
Br2 C38 1_555 1_555
Br3 C14 1_555 1_555
O1 C1 1_555 1_555
O2 C1 1_555 1_555
O3 C8 1_555 1_555
O4 C8 1_555 1_555
O5 Zn1 1_555 1_555
O6 C9 1_555 1_555
O7 H1 1_555 1_555
O8 C16 1_555 1_555
O10 Zn2 1_555 1_555
O11 C33 1_555 1_555
O12 C40 1_555 1_555
O13 C40 1_555 1_555
N1 Zn1 1_555 1_555
N2 C22 1_555 1_555
N3 H2 1_555 1_555
N4 Zn2 1_555 1_555
C1 C2 1_555 1_555
C2 C3 1_555 1_555
C3 H3 1_555 1_555
C4 C3 1_555 1_555
C5 C4 1_555 1_555
H4 C5 1_555 1_555
C6 C5 1_555 1_555
C7 C2 1_555 1_555
H5 C7 1_555 1_555
C8 C4 1_555 1_555
C9 O5 1_555 1_555
C10 C9 1_555 1_555
C11 C10 1_555 1_555
H6 C11 1_555 1_555
C12 C11 1_555 1_555
C13 C12 1_555 1_555
H7 C13 1_555 1_555
C14 C13 1_555 1_555
C15 C10 1_555 1_555
H8 C15 1_555 1_555
C16 O7 1_555 1_555
C17 N1 1_555 1_555
H9 C17 1_555 1_555
C18 C17 1_555 1_555
H10 C18 1_555 1_555
C19 C18 1_555 1_555
H11 C19 1_555 1_555
C20 C19 1_555 1_555
C21 N1 1_555 1_555
H12 C21 1_555 1_555
C22 C20 1_555 1_555
H13 C22 1_555 1_555
H14 C22 1_555 1_555
C23 N2 1_555 1_555
H15 C23 1_555 1_555
H16 C23 1_555 1_555
C24 N3 1_555 1_555
H17 C24 1_555 1_555
H18 C24 1_555 1_555
C25 N3 1_555 1_555
H19 C25 1_555 1_555
H20 C25 1_555 1_555
C26 N2 1_555 1_555
H21 C26 1_555 1_555
H22 C26 1_555 1_555
C27 N3 1_555 1_555
H23 C27 1_555 1_555
H24 C27 1_555 1_555
C28 C27 1_555 1_555
C29 C28 1_555 1_555
H25 C29 1_555 1_555
C30 C29 1_555 1_555
H26 C30 1_555 1_555
C31 N4 1_555 1_555
H27 C31 1_555 1_555
C32 N4 1_555 1_555
H28 C32 1_555 1_555
C33 O10 1_555 1_555
C34 C33 1_555 1_555
C35 C34 1_555 1_555
H29 C35 1_555 1_555
C36 C35 1_555 1_555
C37 C36 1_555 1_555
H30 C37 1_555 1_555
C38 C37 1_555 1_555
C39 C34 1_555 1_555
H31 C39 1_555 1_555
C40 C36 1_555 1_555
Zn1_2 O4 1_555 1_555
Zn2_2 O13 1_555 1_555
O4_2 Zn1 1_555 1_555
O13_2 Zn2 1_555 1_555
C6 C7 1_555 1_555
C12 C16 1_555 1_555
C14 C15 1_555 1_555
C20 C21 1_555 1_555
C23 C24 1_555 1_555
C25 C26 1_555 1_555
C28 C32 1_555 1_555
C30 C31 1_555 1_555
C38 C39 1_555 1_555

#END
