
#######################################################################
#
#                 Cambridge Crystallographic Data Centre
#                                CCDC 
#
#######################################################################
#
# If this CIF has been generated from an entry in the Cambridge 
# Structural Database, then it will include bibliographic, chemical, 
# crystal, experimental, refinement or atomic coordinate data resulting 
# from the CCDC's data processing and validation procedures.
#
#######################################################################

data_XETGOU
_symmetry_cell_setting           monoclinic
_symmetry_space_group_name_H-M   'P 21/n'
_symmetry_Int_Tables_number      14
_space_group_name_Hall           '-P 2yn'
loop_
_symmetry_equiv_pos_site_id
_symmetry_equiv_pos_as_xyz
1 x,y,z
2 1/2-x,1/2+y,1/2-z
3 -x,-y,-z
4 1/2+x,1/2-y,1/2+z
_cell_length_a                   10.0496(14)
_cell_length_b                   13.6781(19)
_cell_length_c                   23.552(3)
_cell_angle_alpha                90
_cell_angle_beta                 94.541(3)
_cell_angle_gamma                90
_cell_volume                     3227.28
loop_
_atom_site_label
_atom_site_type_symbol
_atom_site_fract_x
_atom_site_fract_y
_atom_site_fract_z
Co1 Co 0.74668(8) 0.03849(6) -0.10647(4)
Br1 Br 1.22435(7) -0.15582(5) -0.31611(3)
O1 O 0.8563(4) -0.0314(3) -0.17324(18)
O2 O 0.9653(4) 0.0337(3) -0.09812(18)
O3 O 1.5697(4) 0.0065(3) -0.15017(18)
O4 O 1.4432(5) 0.0911(4) -0.0939(2)
N1 N 0.7481(5) 0.1139(4) -0.0259(2)
N2 N 0.9077(5) 0.3228(3) 0.1449(2)
N3 N 1.0820(5) 0.4769(4) 0.1881(2)
N4 N 1.2431(5) 0.8178(3) 0.1455(2)
N5 N 0.7419(5) -0.1016(4) -0.0662(2)
N6 N 0.6152(5) -0.4430(4) -0.0122(2)
C1 C 0.9631(6) -0.0079(4) -0.1462(3)
C2 C 1.0937(6) -0.0237(4) -0.1723(3)
C3 C 1.0967(6) -0.0707(4) -0.2243(3)
H1 H 1.0184 -0.0919 -0.2443
C4 C 1.2201(7) -0.0854(5) -0.2459(3)
C5 C 1.3374(6) -0.0532(4) -0.2187(3)
H2 H 1.4180 -0.0637 -0.2346
C6 C 1.3346(6) -0.0047(4) -0.1670(3)
C7 C 1.2120(6) 0.0096(4) -0.1445(3)
H3 H 1.2094 0.0422 -0.1100
C8 C 1.4591(6) 0.0359(5) -0.1340(3)
C9 C 0.8627(6) 0.1560(5) -0.0058(3)
H4 H 0.9364 0.1494 -0.0270
C10 C 0.8787(6) 0.2081(5) 0.0441(3)
H5 H 0.9610 0.2352 0.0560
C11 C 0.7703(7) 0.2198(5) 0.0764(3)
C12 C 0.6516(6) 0.1781(4) 0.0557(3)
H6 H 0.5759 0.1859 0.0756
C13 C 0.6438(7) 0.1249(4) 0.0059(3)
H7 H 0.5632 0.0953 -0.0061
C14 C 0.7800(7) 0.2736(5) 0.1319(3)
H8 H 0.7092 0.3218 0.1311
H9 H 0.7658 0.2276 0.1622
C15 C 0.9115(6) 0.4171(4) 0.1161(3)
H10 H 0.8443 0.4601 0.1299
H11 H 0.8915 0.4080 0.0755
C16 C 1.0489(7) 0.4634(5) 0.1272(3)
H12 H 1.1153 0.4219 0.1117
H13 H 1.0500 0.5262 0.1081
C17 C 1.0739(6) 0.3833(5) 0.2170(3)
H14 H 1.0924 0.3926 0.2577
H15 H 1.1410 0.3394 0.2040
C18 C 0.9375(7) 0.3377(5) 0.2054(3)
H16 H 0.9348 0.2755 0.2251
H17 H 0.8705 0.3801 0.2199
C19 C 1.2156(7) 0.5177(4) 0.1989(3)
H18 H 1.2779 0.4786 0.1791
H19 H 1.2420 0.5137 0.2394
C20 C 1.2245(7) 0.6222(5) 0.1800(3)
C21 C 1.3348(6) 0.6575(5) 0.1541(3)
H20 H 1.4051 0.6158 0.1477
C22 C 1.3397(6) 0.7540(5) 0.1380(3)
H21 H 1.4147 0.7758 0.1210
C23 C 1.1376(7) 0.7845(5) 0.1704(3)
H22 H 1.0684 0.8278 0.1759
C24 C 1.1255(7) 0.6895(5) 0.1883(3)
H23 H 1.0502 0.6705 0.2061
C25 C 0.7818(6) -0.1201(5) -0.0123(3)
H24 H 0.8120 -0.0679 0.0105
C26 C 0.7814(7) -0.2119(5) 0.0123(3)
H25 H 0.8095 -0.2200 0.0506
C27 C 0.7391(6) -0.2910(5) -0.0204(3)
C28 C 0.6984(6) -0.2727(4) -0.0766(3)
H26 H 0.6689 -0.3240 -0.1003
C29 C 0.7011(6) -0.1790(4) -0.0982(3)
H27 H 0.6735 -0.1690 -0.1363
C30 C 0.7410(6) -0.3933(5) 0.0042(3)
H28 H 0.8145 -0.4300 -0.0096
H29 H 0.7545 -0.3899 0.0454
C31 C 0.6235(7) -0.5472(5) -0.0014(3)
H30 H 0.6460 -0.5584 0.0389
H31 H 0.6940 -0.5750 -0.0222
C32 C 0.4924(6) -0.5980(5) -0.0195(3)
H32 H 0.4710 -0.5890 -0.0600
H33 H 0.5006 -0.6675 -0.0120
N5B N 0.2581(5) -0.8984(4) 0.0662(2)
N6B N 0.3848(5) -0.5570(4) 0.0122(2)
C25B C 0.2182(6) -0.8799(5) 0.0123(3)
H24B H 0.1880 -0.9321 -0.0105
C26B C 0.2186(7) -0.7881(5) -0.0123(3)
H25B H 0.1905 -0.7800 -0.0506
C27B C 0.2609(6) -0.7090(5) 0.0204(3)
C28B C 0.3016(6) -0.7273(4) 0.0766(3)
H26B H 0.3311 -0.6760 0.1003
C29B C 0.2989(6) -0.8210(4) 0.0982(3)
H27B H 0.3265 -0.8310 0.1363
C30B C 0.2590(6) -0.6067(5) -0.0042(3)
H28B H 0.1855 -0.5700 0.0096
H29B H 0.2455 -0.6101 -0.0454
C31B C 0.3765(7) -0.4528(5) 0.0014(3)
H30B H 0.3540 -0.4416 -0.0389
H31B H 0.3060 -0.4250 0.0222
C32B C 0.5076(6) -0.4020(5) 0.0195(3)
H32B H 0.5290 -0.4110 0.0600
H33B H 0.4994 -0.3325 0.0120
Co1B Co 0.25332(8) -1.03849(6) 0.10647(4)
Br1B Br -0.22435(7) -0.84418(5) 0.31611(3)
O1B O 0.1437(4) -0.9686(3) 0.17324(18)
O2B O 0.0347(4) -1.0337(3) 0.09812(18)
O3B O -0.5697(4) -1.0065(3) 0.15017(18)
O4B O -0.4432(5) -1.0911(4) 0.0939(2)
N1B N 0.2519(5) -1.1139(4) 0.0259(2)
N2B N 0.0923(5) -1.3228(3) -0.1449(2)
N3B N -0.0820(5) -1.4769(4) -0.1881(2)
N4B N -0.2431(5) -1.8178(3) -0.1455(2)
C1B C 0.0369(6) -0.9921(4) 0.1462(3)
C2B C -0.0937(6) -0.9763(4) 0.1723(3)
C3B C -0.0967(6) -0.9293(4) 0.2243(3)
H1B H -0.0184 -0.9081 0.2443
C4B C -0.2201(7) -0.9146(5) 0.2459(3)
C5B C -0.3374(6) -0.9468(4) 0.2187(3)
H2B H -0.4180 -0.9363 0.2346
C6B C -0.3346(6) -0.9953(4) 0.1670(3)
C7B C -0.2120(6) -1.0096(4) 0.1445(3)
H3B H -0.2094 -1.0422 0.1100
C8B C -0.4591(6) -1.0359(5) 0.1340(3)
C9B C 0.1373(6) -1.1560(5) 0.0058(3)
H4B H 0.0636 -1.1494 0.0270
C10B C 0.1213(6) -1.2081(5) -0.0441(3)
H5B H 0.0390 -1.2352 -0.0560
C11B C 0.2297(7) -1.2198(5) -0.0764(3)
C12B C 0.3484(6) -1.1781(4) -0.0557(3)
H6B H 0.4241 -1.1859 -0.0756
C13B C 0.3562(7) -1.1249(4) -0.0059(3)
H7B H 0.4368 -1.0953 0.0061
C14B C 0.2200(7) -1.2736(5) -0.1319(3)
H8B H 0.2908 -1.3218 -0.1311
H9B H 0.2342 -1.2276 -0.1622
C15B C 0.0885(6) -1.4171(4) -0.1161(3)
H10B H 0.1557 -1.4601 -0.1299
H11B H 0.1085 -1.4080 -0.0755
C16B C -0.0489(7) -1.4634(5) -0.1272(3)
H12B H -0.1153 -1.4219 -0.1117
H13B H -0.0500 -1.5262 -0.1081
C17B C -0.0739(6) -1.3833(5) -0.2170(3)
H14B H -0.0924 -1.3926 -0.2577
H15B H -0.1410 -1.3394 -0.2040
C18B C 0.0625(7) -1.3377(5) -0.2054(3)
H16B H 0.0652 -1.2755 -0.2251
H17B H 0.1295 -1.3801 -0.2199
C19B C -0.2156(7) -1.5177(4) -0.1989(3)
H18B H -0.2779 -1.4786 -0.1791
H19B H -0.2420 -1.5137 -0.2394
C20B C -0.2245(7) -1.6222(5) -0.1800(3)
C21B C -0.3348(6) -1.6575(5) -0.1541(3)
H20B H -0.4051 -1.6158 -0.1477
C22B C -0.3397(6) -1.7540(5) -0.1380(3)
H21B H -0.4147 -1.7758 -0.1210
C23B C -0.1376(7) -1.7845(5) -0.1704(3)
H22B H -0.0684 -1.8278 -0.1759
C24B C -0.1255(7) -1.6895(5) -0.1883(3)
H23B H -0.0502 -1.6705 -0.2061
Co1_2 Co -0.25332(8) -1.96151(6) -0.10647(4)
Co1_3 Co 1.74668(8) 0.03849(6) -0.10647(4)
Co1B_2 Co -0.74668(8) -1.03849(6) 0.10647(4)
Co1B_3 Co 1.25332(8) 0.96151(6) 0.10647(4)
O3_2 O 0.5697(4) 0.0065(3) -0.15017(18)
O3B_2 O 0.4303(4) -1.0065(3) 0.15017(18)
N4_2 N 0.2431(5) -1.1822(3) 0.1455(2)
N4B_2 N 0.7569(5) 0.1822(3) -0.1455(2)
loop_
_geom_bond_atom_site_label_1
_geom_bond_atom_site_label_2
_geom_bond_site_symmetry_1
_geom_bond_site_symmetry_2
Co1 O1 1_555 1_555
Br1 C4 1_555 1_555
O1 C1 1_555 1_555
O2 Co1 1_555 1_555
O3 C8 1_555 1_555
O4 C8 1_555 1_555
N1 Co1 1_555 1_555
N2 C14 1_555 1_555
N3 C16 1_555 1_555
N4 C22 1_555 1_555
N5 Co1 1_555 1_555
N6 C30 1_555 1_555
C1 O2 1_555 1_555
C2 C1 1_555 1_555
C3 C2 1_555 1_555
H1 C3 1_555 1_555
C4 C3 1_555 1_555
C5 C4 1_555 1_555
H2 C5 1_555 1_555
C6 C5 1_555 1_555
C7 C2 1_555 1_555
H3 C7 1_555 1_555
C8 C6 1_555 1_555
C9 N1 1_555 1_555
H4 C9 1_555 1_555
C10 C9 1_555 1_555
H5 C10 1_555 1_555
C11 C10 1_555 1_555
C12 C11 1_555 1_555
H6 C12 1_555 1_555
C13 N1 1_555 1_555
H7 C13 1_555 1_555
C14 C11 1_555 1_555
H8 C14 1_555 1_555
H9 C14 1_555 1_555
C15 N2 1_555 1_555
H10 C15 1_555 1_555
H11 C15 1_555 1_555
C16 C15 1_555 1_555
H12 C16 1_555 1_555
H13 C16 1_555 1_555
C17 N3 1_555 1_555
H14 C17 1_555 1_555
H15 C17 1_555 1_555
C18 N2 1_555 1_555
H16 C18 1_555 1_555
H17 C18 1_555 1_555
C19 N3 1_555 1_555
H18 C19 1_555 1_555
H19 C19 1_555 1_555
C20 C19 1_555 1_555
C21 C20 1_555 1_555
H20 C21 1_555 1_555
C22 C21 1_555 1_555
H21 C22 1_555 1_555
C23 N4 1_555 1_555
H22 C23 1_555 1_555
C24 C20 1_555 1_555
H23 C24 1_555 1_555
C25 N5 1_555 1_555
H24 C25 1_555 1_555
C26 C25 1_555 1_555
H25 C26 1_555 1_555
C27 C26 1_555 1_555
C28 C27 1_555 1_555
H26 C28 1_555 1_555
C29 N5 1_555 1_555
H27 C29 1_555 1_555
C30 C27 1_555 1_555
H28 C30 1_555 1_555
H29 C30 1_555 1_555
C31 N6 1_555 1_555
H30 C31 1_555 1_555
H31 C31 1_555 1_555
C32 C31 1_555 1_555
H32 C32 1_555 1_555
H33 C32 1_555 1_555
N5B C25B 1_555 1_555
N6B C32 1_555 1_555
C25B H24B 1_555 1_555
C26B C25B 1_555 1_555
H25B C26B 1_555 1_555
C27B C26B 1_555 1_555
C28B C27B 1_555 1_555
H26B C28B 1_555 1_555
C29B N5B 1_555 1_555
H27B C29B 1_555 1_555
C30B N6B 1_555 1_555
H28B C30B 1_555 1_555
H29B C30B 1_555 1_555
C31B N6B 1_555 1_555
H30B C31B 1_555 1_555
H31B C31B 1_555 1_555
C32B N6 1_555 1_555
H32B C32B 1_555 1_555
H33B C32B 1_555 1_555
Co1B N5B 1_555 1_555
Br1B C4B 1_555 1_555
O1B Co1B 1_555 1_555
O2B Co1B 1_555 1_555
O3B C8B 1_555 1_555
O4B C8B 1_555 1_555
N1B Co1B 1_555 1_555
N2B C14B 1_555 1_555
N3B C16B 1_555 1_555
N4B C22B 1_555 1_555
C1B O1B 1_555 1_555
C2B C1B 1_555 1_555
C3B C2B 1_555 1_555
H1B C3B 1_555 1_555
C4B C3B 1_555 1_555
C5B C4B 1_555 1_555
H2B C5B 1_555 1_555
C6B C5B 1_555 1_555
C7B C2B 1_555 1_555
H3B C7B 1_555 1_555
C8B C6B 1_555 1_555
C9B N1B 1_555 1_555
H4B C9B 1_555 1_555
C10B C9B 1_555 1_555
H5B C10B 1_555 1_555
C11B C10B 1_555 1_555
C12B C11B 1_555 1_555
H6B C12B 1_555 1_555
C13B N1B 1_555 1_555
H7B C13B 1_555 1_555
C14B C11B 1_555 1_555
H8B C14B 1_555 1_555
H9B C14B 1_555 1_555
C15B N2B 1_555 1_555
H10B C15B 1_555 1_555
H11B C15B 1_555 1_555
C16B C15B 1_555 1_555
H12B C16B 1_555 1_555
H13B C16B 1_555 1_555
C17B N3B 1_555 1_555
H14B C17B 1_555 1_555
H15B C17B 1_555 1_555
C18B N2B 1_555 1_555
H16B C18B 1_555 1_555
H17B C18B 1_555 1_555
C19B N3B 1_555 1_555
H18B C19B 1_555 1_555
H19B C19B 1_555 1_555
C20B C19B 1_555 1_555
C21B C20B 1_555 1_555
H20B C21B 1_555 1_555
C22B C21B 1_555 1_555
H21B C22B 1_555 1_555
C23B N4B 1_555 1_555
H22B C23B 1_555 1_555
C24B C20B 1_555 1_555
H23B C24B 1_555 1_555
Co1_2 N4B 1_555 1_555
Co1_3 O3 1_555 1_555
Co1B_2 O3B 1_555 1_555
Co1B_3 N4 1_555 1_555
O3_2 Co1 1_555 1_555
O3B_2 Co1B 1_555 1_555
N4_2 Co1B 1_555 1_555
N4B_2 Co1 1_555 1_555
C6 C7 1_555 1_555
C12 C13 1_555 1_555
C17 C18 1_555 1_555
C23 C24 1_555 1_555
C28 C29 1_555 1_555
C27B C30B 1_555 1_555
C28B C29B 1_555 1_555
C31B C32B 1_555 1_555
O2B C1B 1_555 1_555
C6B C7B 1_555 1_555
C12B C13B 1_555 1_555
C17B C18B 1_555 1_555
C23B C24B 1_555 1_555

#END
