
#######################################################################
#
#                 Cambridge Crystallographic Data Centre
#                                CCDC 
#
#######################################################################
#
# If this CIF has been generated from an entry in the Cambridge 
# Structural Database, then it will include bibliographic, chemical, 
# crystal, experimental, refinement or atomic coordinate data resulting 
# from the CCDC's data processing and validation procedures.
#
#######################################################################

data_XETGAG
_symmetry_cell_setting           triclinic
_symmetry_space_group_name_H-M   'P -1'
_symmetry_Int_Tables_number      2
_space_group_name_Hall           '-P 1'
loop_
_symmetry_equiv_pos_site_id
_symmetry_equiv_pos_as_xyz
1 x,y,z
2 -x,-y,-z
_cell_length_a                   11.2894(16)
_cell_length_b                   11.4307(16)
_cell_length_c                   12.8725(18)
_cell_angle_alpha                98.167(3)
_cell_angle_beta                 95.654(3)
_cell_angle_gamma                109.315(2)
_cell_volume                     1532.8
loop_
_atom_site_label
_atom_site_type_symbol
_atom_site_fract_x
_atom_site_fract_y
_atom_site_fract_z
Co1 Co 0.88404(4) 0.51747(4) 0.49072(4)
N1 N 0.7364(3) 0.5806(3) 0.5134(2)
O1 O 0.8120(2) 0.3750(2) 0.3646(2)
O2 O 0.9997(2) 0.3465(2) 0.3813(2)
O3 O 0.8475(3) 0.4000(2) -0.4044(2)
O4 O 1.0325(2) 0.3667(2) -0.3931(2)
C1 C 0.7184(3) 0.6161(3) 0.6132(3)
C2 C 0.6662(3) 0.6028(3) 0.4341(3)
C3 C 0.8893(3) 0.3237(3) 0.3347(3)
H1 H 0.7637 0.5979 0.6692
C4 C 0.6355(3) 0.6785(3) 0.6359(3)
C5 C 0.5812(3) 0.6648(3) 0.4517(3)
H2 H 0.6746 0.5757 0.3645
C6 C 0.8466(3) 0.2282(3) 0.2325(3)
H3 H 0.6258 0.7017 0.7059
C7 C 0.5664(3) 0.7063(3) 0.5533(3)
H4 H 0.5339 0.6784 0.3943
C8 C 0.7229(3) 0.1909(4) 0.1802(3)
C9 C 0.9338(4) 0.1822(3) 0.1887(3)
C10 C 0.4770(4) 0.7765(3) 0.5780(3)
H5 H 0.6644 0.2208 0.2102
C11 C 0.6867(3) 0.1088(3) 0.0828(3)
C12 C 0.8987(3) 0.1011(3) 0.0901(3)
H6 H 1.0158 0.2054 0.2252
N2 N 0.4836(3) 0.8715(3) 0.5104(3)
H7 H 0.3907 0.7168 0.5672
H8 H 0.4988 0.8179 0.6520
H9 H 0.6038 0.0829 0.0475
C13 C 0.7753(3) 0.0660(3) 0.0386(3)
H10 H 0.9571 0.0713 0.0597
C14 C 0.3872(3) 0.9279(3) 0.5340(3)
C15 C 0.6086(3) 0.9708(3) 0.5313(3)
S1 S 0.73425(8) -0.02940(8) -0.08900(7)
H11 H 0.4027 0.9645 0.6090
H12 H 0.3035 0.8629 0.5182
H13 H 0.6287 1.0085 0.6062
H14 H 0.6723 0.9344 0.5143
O5 O 0.5985(2) -0.0824(2) -0.1143(2)
O6 O 0.8077(2) -0.1114(2) -0.0948(2)
C16 C 0.7901(3) 0.0830(3) -0.1701(3)
C17 C 0.7212(4) 0.1582(4) -0.1948(3)
C18 C 0.9031(4) 0.0949(4) -0.2083(3)
H15 H 0.6457 0.1499 -0.1683
C19 C 0.7643(4) 0.2446(4) -0.2580(3)
C20 C 0.9468(4) 0.1828(4) -0.2712(3)
H16 H 0.9490 0.0441 -0.1915
H17 H 0.7174 0.2944 -0.2751
C21 C 0.8783(3) 0.2587(3) -0.2973(3)
H18 H 1.0229 0.1917 -0.2967
C22 C 0.9231(4) 0.3485(3) -0.3691(3)
N1A N 0.2636(3) 1.4194(3) 0.4866(2)
C1A C 0.2816(3) 1.3839(3) 0.3868(3)
C2A C 0.3338(3) 1.3972(3) 0.5659(3)
H1A H 0.2363 1.4021 0.3308
C4A C 0.3645(3) 1.3215(3) 0.3641(3)
C5A C 0.4188(3) 1.3352(3) 0.5483(3)
H2A H 0.3254 1.4243 0.6355
H3A H 0.3742 1.2983 0.2941
C7A C 0.4336(3) 1.2937(3) 0.4467(3)
H4A H 0.4661 1.3216 0.6057
C10A C 0.5230(4) 1.2235(3) 0.4220(3)
N2A N 0.5164(3) 1.1285(3) 0.4896(3)
H7A H 0.6093 1.2832 0.4328
H8A H 0.5012 1.1821 0.3480
C14A C 0.6128(3) 1.0721(3) 0.4660(3)
C15A C 0.3914(3) 1.0292(3) 0.4687(3)
H11A H 0.5973 1.0355 0.3910
H12A H 0.6965 1.1371 0.4818
H13A H 0.3713 0.9915 0.3938
H14A H 0.3277 1.0656 0.4857
Co1A Co 0.11596(4) 1.48253(4) 0.50928(4)
O1A O 0.1880(2) 1.6250(2) 0.6354(2)
O2A O 0.0003(2) 1.6535(2) 0.6187(2)
O3A O 0.1525(3) 1.6000(2) 1.4044(2)
O4A O -0.0325(2) 1.6333(2) 1.3931(2)
C3A C 0.1107(3) 1.6763(3) 0.6653(3)
C6A C 0.1534(3) 1.7718(3) 0.7675(3)
C8A C 0.2771(3) 1.8091(4) 0.8198(3)
C9A C 0.0662(4) 1.8178(3) 0.8113(3)
H5A H 0.3356 1.7792 0.7898
C11A C 0.3133(3) 1.8912(3) 0.9172(3)
C12A C 0.1013(3) 1.8989(3) 0.9099(3)
H6A H -0.0158 1.7946 0.7748
H9A H 0.3962 1.9171 0.9525
C13A C 0.2247(3) 1.9340(3) 0.9614(3)
H10A H 0.0429 1.9287 0.9403
S1A S 0.26575(8) 2.02940(8) 1.08900(7)
O5A O 0.4015(2) 2.0824(2) 1.1143(2)
O6A O 0.1923(2) 2.1114(2) 1.0948(2)
C16A C 0.2099(3) 1.9170(3) 1.1701(3)
C17A C 0.2788(4) 1.8418(4) 1.1948(3)
C18A C 0.0969(4) 1.9051(4) 1.2083(3)
H15A H 0.3543 1.8501 1.1683
C19A C 0.2357(4) 1.7554(4) 1.2580(3)
C20A C 0.0532(4) 1.8172(4) 1.2712(3)
H16A H 0.0510 1.9559 1.1915
H17A H 0.2826 1.7056 1.2751
C21A C 0.1217(3) 1.7413(3) 1.2973(3)
H18A H -0.0229 1.8083 1.2967
C22A C 0.0769(4) 1.6515(3) 1.3691(3)
Co1_2 Co -0.11596(4) 1.51747(4) 0.49072(4)
Co1_3 Co -0.11596(4) 1.51747(4) 1.49072(4)
Co1_4 Co 0.88404(4) 0.51747(4) -0.50928(4)
Co1A_2 Co 0.11596(4) 1.48253(4) 1.50928(4)
Co1A_3 Co 1.11596(4) 0.48253(4) -0.49072(4)
Co1A_4 Co 1.11596(4) 0.48253(4) 0.50928(4)
O2_2 O -0.0003(2) 1.3465(2) 0.3813(2)
O2A_2 O 1.0003(2) 0.6535(2) 0.6187(2)
O3_2 O 0.8475(3) 0.4000(2) 0.5956(2)
O3A_2 O 0.1525(3) 1.6000(2) 0.4044(2)
O4_2 O 0.0325(2) 1.3667(2) 0.6069(2)
O4A_2 O 0.9675(2) 0.6333(2) 0.3931(2)
loop_
_geom_bond_atom_site_label_1
_geom_bond_atom_site_label_2
_geom_bond_site_symmetry_1
_geom_bond_site_symmetry_2
Co1 N1 1_555 1_555
N1 C1 1_555 1_555
O1 Co1 1_555 1_555
O2 C3 1_555 1_555
O3 C22 1_555 1_555
O4 C22 1_555 1_555
C1 H1 1_555 1_555
C2 N1 1_555 1_555
C3 O1 1_555 1_555
C4 C1 1_555 1_555
C5 C2 1_555 1_555
H2 C2 1_555 1_555
C6 C3 1_555 1_555
H3 C4 1_555 1_555
C7 C4 1_555 1_555
H4 C5 1_555 1_555
C8 C6 1_555 1_555
C9 C6 1_555 1_555
C10 C7 1_555 1_555
H5 C8 1_555 1_555
C11 C8 1_555 1_555
C12 C9 1_555 1_555
H6 C9 1_555 1_555
N2 C10 1_555 1_555
H7 C10 1_555 1_555
H8 C10 1_555 1_555
H9 C11 1_555 1_555
C13 C11 1_555 1_555
H10 C12 1_555 1_555
C14 N2 1_555 1_555
C15 N2 1_555 1_555
S1 C13 1_555 1_555
H11 C14 1_555 1_555
H12 C14 1_555 1_555
H13 C15 1_555 1_555
H14 C15 1_555 1_555
O5 S1 1_555 1_555
O6 S1 1_555 1_555
C16 S1 1_555 1_555
C17 C16 1_555 1_555
C18 C16 1_555 1_555
H15 C17 1_555 1_555
C19 C17 1_555 1_555
C20 C18 1_555 1_555
H16 C18 1_555 1_555
H17 C19 1_555 1_555
C21 C19 1_555 1_555
H18 C20 1_555 1_555
C22 C21 1_555 1_555
N1A C1A 1_555 1_555
C1A H1A 1_555 1_555
C2A N1A 1_555 1_555
C4A C1A 1_555 1_555
C5A C2A 1_555 1_555
H2A C2A 1_555 1_555
H3A C4A 1_555 1_555
C7A C4A 1_555 1_555
H4A C5A 1_555 1_555
C10A C7A 1_555 1_555
N2A C10A 1_555 1_555
H7A C10A 1_555 1_555
H8A C10A 1_555 1_555
C14A C15 1_555 1_555
C15A C14 1_555 1_555
H11A C14A 1_555 1_555
H12A C14A 1_555 1_555
H13A C15A 1_555 1_555
H14A C15A 1_555 1_555
Co1A N1A 1_555 1_555
O1A Co1A 1_555 1_555
O2A C3A 1_555 1_555
O3A C22A 1_555 1_555
O4A C22A 1_555 1_555
C3A O1A 1_555 1_555
C6A C3A 1_555 1_555
C8A C6A 1_555 1_555
C9A C6A 1_555 1_555
H5A C8A 1_555 1_555
C11A C8A 1_555 1_555
C12A C9A 1_555 1_555
H6A C9A 1_555 1_555
H9A C11A 1_555 1_555
C13A C11A 1_555 1_555
H10A C12A 1_555 1_555
S1A C13A 1_555 1_555
O5A S1A 1_555 1_555
O6A S1A 1_555 1_555
C16A S1A 1_555 1_555
C17A C16A 1_555 1_555
C18A C16A 1_555 1_555
H15A C17A 1_555 1_555
C19A C17A 1_555 1_555
C20A C18A 1_555 1_555
H16A C18A 1_555 1_555
H17A C19A 1_555 1_555
C21A C19A 1_555 1_555
H18A C20A 1_555 1_555
C22A C21A 1_555 1_555
Co1_2 O2A 1_555 1_555
Co1_3 O4A 1_555 1_555
Co1_4 O3 1_555 1_555
Co1A_2 O3A 1_555 1_555
Co1A_3 O4 1_555 1_555
Co1A_4 O2 1_555 1_555
O2_2 Co1A 1_555 1_555
O2A_2 Co1 1_555 1_555
O3_2 Co1 1_555 1_555
O3A_2 Co1A 1_555 1_555
O4_2 Co1A 1_555 1_555
O4A_2 Co1 1_555 1_555
C5 C7 1_555 1_555
C12 C13 1_555 1_555
C20 C21 1_555 1_555
C5A C7A 1_555 1_555
N2A C14A 1_555 1_555
N2A C15A 1_555 1_555
C12A C13A 1_555 1_555
C20A C21A 1_555 1_555

#END
