
#######################################################################
#
#                 Cambridge Crystallographic Data Centre
#                                CCDC 
#
#######################################################################
#
# If this CIF has been generated from an entry in the Cambridge 
# Structural Database, then it will include bibliographic, chemical, 
# crystal, experimental, refinement or atomic coordinate data resulting 
# from the CCDC's data processing and validation procedures.
#
#######################################################################

data_XETGIN
_symmetry_cell_setting           triclinic
_symmetry_space_group_name_H-M   'P -1'
_symmetry_Int_Tables_number      2
_space_group_name_Hall           '-P 1'
loop_
_symmetry_equiv_pos_site_id
_symmetry_equiv_pos_as_xyz
1 x,y,z
2 -x,-y,-z
_cell_length_a                   6.8117(4)
_cell_length_b                   7.4177(4)
_cell_length_c                   8.6722(4)
_cell_angle_alpha                109.167(2)
_cell_angle_beta                 105.528(3)
_cell_angle_gamma                103.121(3)
_cell_volume                     374.151
loop_
_atom_site_label
_atom_site_type_symbol
_atom_site_fract_x
_atom_site_fract_y
_atom_site_fract_z
Cu1 Cu 0.00000 0.00000 0.00000
Cu2 Cu 0.50000 0.00000 0.00000
Cl1 Cl -0.4152(8) -0.2739(6) -0.1161(6)
Cl2 Cl -0.0624(7) 0.1695(6) 0.2365(6)
N1 N 0.2835(6) -0.2559(13) 0.3294(10)
N2 N 0.4575(6) -0.1981(17) 0.2868(11)
N3 N 0.4033(6) -0.1280(18) 0.1694(13)
N4 N 0.1911(5) -0.1504(18) 0.1370(9)
C1 C 0.1267(2) -0.1947(5) 0.2549(4)
C2 C -0.0950(8) -0.2674(18) 0.2506(17)
H1 H -0.0895 -0.2860 0.3560
H2 H -0.1772 -0.3946 0.1502
H3 H -0.1633 -0.1691 0.2430
C3 C 0.305(3) -0.3481(19) 0.4562(14)
H4 H 0.4404 -0.3722 0.4804
H5 H 0.1873 -0.4748 0.4080
H6 H 0.3018 -0.2577 0.5633
Cu2_2 Cu -0.50000 0.00000 0.00000
Cl1A Cl 0.4152(8) 0.2739(6) 0.1161(6)
Cl1_2 Cl 0.5848(8) -0.2739(6) -0.1161(6)
Cl2A Cl 0.0624(7) -0.1695(6) -0.2365(6)
Cl2_2 Cl 0.9376(7) 0.1695(6) 0.2365(6)
N1A N -0.2835(6) 0.2559(13) -0.3294(10)
N2A N -0.4575(6) 0.1981(17) -0.2868(11)
N3A N 0.5967(6) 0.1280(18) -0.1694(13)
N3A_2 N -0.4033(6) 0.1280(18) -0.1694(13)
N4A N -0.1911(5) 0.1504(18) -0.1370(9)
C1A C -0.1267(2) 0.1947(5) -0.2549(4)
C2A C 0.0950(8) 0.2674(18) -0.2506(17)
H1A H 0.0895 0.2860 -0.3560
H2A H 0.1772 0.3946 -0.1502
H3A H 0.1633 0.1691 -0.2430
C3A C -0.305(3) 0.3481(19) -0.4562(14)
H4A H -0.4404 0.3722 -0.4804
H5A H -0.1873 0.4748 -0.4080
H6A H -0.3018 0.2577 -0.5633
loop_
_geom_bond_atom_site_label_1
_geom_bond_atom_site_label_2
_geom_bond_site_symmetry_1
_geom_bond_site_symmetry_2
Cu1 Cl1 1_555 1_555
Cu2 N3 1_555 1_555
Cl1 Cu2_2 1_555 1_555
Cl2 Cu1 1_555 1_555
N1 N2 1_555 1_555
N2 N3 1_555 1_555
N3 N4 1_555 1_555
N4 Cu1 1_555 1_555
C1 N1 1_555 1_555
C2 C1 1_555 1_555
H1 C2 1_555 1_555
H2 C2 1_555 1_555
H3 C2 1_555 1_555
C3 N1 1_555 1_555
H4 C3 1_555 1_555
H5 C3 1_555 1_555
H6 C3 1_555 1_555
Cu2_2 Cl2 1_555 1_555
Cl1A Cu1 1_555 1_555
Cl1_2 Cu2 1_555 1_555
Cl2A Cu1 1_555 1_555
Cl2_2 Cu2 1_555 1_555
N1A N2A 1_555 1_555
N2A N3A_2 1_555 1_555
N3A Cu2 1_555 1_555
N3A_2 Cu2_2 1_555 1_555
N4A Cu1 1_555 1_555
C1A N1A 1_555 1_555
C2A C1A 1_555 1_555
H1A C2A 1_555 1_555
H2A C2A 1_555 1_555
H3A C2A 1_555 1_555
C3A N1A 1_555 1_555
H4A C3A 1_555 1_555
H5A C3A 1_555 1_555
H6A C3A 1_555 1_555
Cu2 Cl1A 1_555 1_555
Cu2 Cl2A 1_555 1_555
N4 C1 1_555 1_555
N3A_2 N4A 1_555 1_555
N4A C1A 1_555 1_555

#END
