
#######################################################################
#
#                 Cambridge Crystallographic Data Centre
#                                CCDC 
#
#######################################################################
#
# If this CIF has been generated from an entry in the Cambridge 
# Structural Database, then it will include bibliographic, chemical, 
# crystal, experimental, refinement or atomic coordinate data resulting 
# from the CCDC's data processing and validation procedures.
#
#######################################################################

data_XETGUZ
_symmetry_cell_setting           orthorhombic
_symmetry_space_group_name_H-M   'P b c n'
_symmetry_Int_Tables_number      60
_space_group_name_Hall           '-P 2n 2ab'
loop_
_symmetry_equiv_pos_site_id
_symmetry_equiv_pos_as_xyz
1 x,y,z
2 1/2-x,1/2-y,1/2+z
3 1/2+x,1/2-y,-z
4 -x,y,1/2-z
5 -x,-y,-z
6 1/2+x,1/2+y,1/2-z
7 1/2-x,1/2+y,z
8 x,-y,1/2+z
_cell_length_a                   11.6450(2)
_cell_length_b                   15.1490(2)
_cell_length_c                   15.1940(2)
_cell_angle_alpha                90
_cell_angle_beta                 90
_cell_angle_gamma                90
_cell_volume                     2680.38
loop_
_atom_site_label
_atom_site_type_symbol
_atom_site_fract_x
_atom_site_fract_y
_atom_site_fract_z
Cd1 Cd 0.5000 0.256617(12) 0.2500
O1 O 0.45642(11) 0.21948(8) 0.39961(8)
O2 O 0.5000 0.10611(16) 0.2500
H1 H 0.522(3) 0.073(2) 0.207(2)
O3 O 0.47473(12) 0.36168(9) 0.37437(9)
O4 O 0.10817(13) 0.58653(9) 0.49414(9)
H2 H 0.084(2) 0.6258(17) 0.4607(16)
O5 O 0.09878(15) 0.50486(10) 0.37250(10)
N1 N 0.30290(17) 0.26912(12) 0.23973(10)
C1 C 0.24431(16) 0.34095(12) 0.21330(11)
H3 H 0.2854 0.3890 0.1919
C2 C 0.12610(16) 0.34671(12) 0.21650(12)
H4 H 0.0888 0.3978 0.1981
C3 C 0.06353(19) 0.27500(15) 0.24769(10)
C4 C 0.12410(17) 0.19982(13) 0.27414(13)
H5 H 0.0851 0.1504 0.2947
C5 C 0.24177(17) 0.19979(13) 0.26945(12)
H6 H 0.2811 0.1496 0.2876
C6 C 0.38757(16) 0.31591(12) 0.51290(11)
H7 H 0.4254 0.2769 0.5554
C7 C 0.39910(16) 0.41027(13) 0.54771(12)
H8 H 0.4784 0.4290 0.5415
H9 H 0.3808 0.4106 0.6100
C8 C 0.32157(16) 0.47705(12) 0.50065(12)
H10 H 0.3484 0.4850 0.4407
H11 H 0.3265 0.5336 0.5304
C9 C 0.19544(15) 0.44625(12) 0.49916(12)
H12 H 0.1666 0.4435 0.5597
C10 C 0.18713(15) 0.35465(11) 0.45781(12)
H13 H 0.2134 0.3571 0.3973
H14 H 0.1077 0.3354 0.4577
C11 C 0.26005(16) 0.28859(12) 0.50920(12)
H15 H 0.2539 0.2310 0.4817
H16 H 0.2305 0.2838 0.5687
C12 C 0.44409(14) 0.29972(12) 0.42342(11)
C13 C 0.12770(15) 0.51430(12) 0.44886(12)
Cd1_2 Cd -0.5000 0.256617(12) 0.2500
O1C O 0.54358(11) 0.21948(8) 0.10039(8)
H1C H 0.478(3) 0.073(2) 0.293(2)
O3C O 0.52527(12) 0.36168(9) 0.12563(9)
O4C O 0.89183(13) 0.58653(9) 0.00586(9)
H2C H 0.916(2) 0.6258(17) 0.0393(16)
O5C O 0.90122(15) 0.50486(10) 0.12750(10)
N1C N -0.30290(17) 0.26912(12) 0.26027(10)
N1C_2 N 0.69710(17) 0.26912(12) 0.26027(10)
C1C C -0.24431(16) 0.34095(12) 0.28670(11)
H3C H -0.2854 0.3890 0.3081
C2C C -0.12610(16) 0.34671(12) 0.28350(12)
H4C H -0.0888 0.3978 0.3019
C3C C -0.06353(19) 0.27500(15) 0.25231(10)
C4C C -0.12410(17) 0.19982(13) 0.22586(13)
H5C H -0.0851 0.1504 0.2053
C5C C -0.24177(17) 0.19979(13) 0.23055(12)
H6C H -0.2811 0.1496 0.2124
C6C C 0.61243(16) 0.31591(12) -0.01290(11)
H7C H 0.5746 0.2769 -0.0554
C7C C 0.60090(16) 0.41027(13) -0.04771(12)
H8C H 0.5216 0.4290 -0.0415
H9C H 0.6192 0.4106 -0.1100
C8C C 0.67843(16) 0.47705(12) -0.00065(12)
H10C H 0.6516 0.4850 0.0593
H11C H 0.6735 0.5336 -0.0304
C9C C 0.80456(15) 0.44625(12) 0.00084(12)
H12C H 0.8334 0.4435 -0.0597
C10C C 0.81287(15) 0.35465(11) 0.04219(12)
H13C H 0.7866 0.3571 0.1027
H14C H 0.8923 0.3354 0.0423
C11C C 0.73995(16) 0.28859(12) -0.00920(12)
H15C H 0.7461 0.2310 0.0183
H16C H 0.7695 0.2838 -0.0687
C12C C 0.55591(14) 0.29972(12) 0.07658(11)
C13C C 0.87230(15) 0.51430(12) 0.05114(12)
O6 O 0.5000 0.50188(17) 0.2500
H17 H 0.492(2) 0.466(2) 0.296(2)
H17C H 0.508(2) 0.466(2) 0.204(2)
loop_
_geom_bond_atom_site_label_1
_geom_bond_atom_site_label_2
_geom_bond_site_symmetry_1
_geom_bond_site_symmetry_2
Cd1 O1 1_555 1_555
O1 C12 1_555 1_555
O2 Cd1 1_555 1_555
H1 O2 1_555 1_555
O3 Cd1 1_555 1_555
O4 H2 1_555 1_555
O5 C13 1_555 1_555
N1 Cd1 1_555 1_555
C1 N1 1_555 1_555
H3 C1 1_555 1_555
C2 C1 1_555 1_555
H4 C2 1_555 1_555
C3 C2 1_555 1_555
C4 C3 1_555 1_555
H5 C4 1_555 1_555
C5 N1 1_555 1_555
H6 C5 1_555 1_555
C6 H7 1_555 1_555
C7 C6 1_555 1_555
H8 C7 1_555 1_555
H9 C7 1_555 1_555
C8 C7 1_555 1_555
H10 C8 1_555 1_555
H11 C8 1_555 1_555
C9 C8 1_555 1_555
H12 C9 1_555 1_555
C10 C9 1_555 1_555
H13 C10 1_555 1_555
H14 C10 1_555 1_555
C11 C6 1_555 1_555
H15 C11 1_555 1_555
H16 C11 1_555 1_555
C12 O3 1_555 1_555
C13 O4 1_555 1_555
O6 H17 1_555 1_555
Cd1_2 N1C 1_555 1_555
O1C Cd1 1_555 1_555
H1C O2 1_555 1_555
O3C Cd1 1_555 1_555
O4C H2C 1_555 1_555
O5C C13C 1_555 1_555
N1C C1C 1_555 1_555
N1C_2 Cd1 1_555 1_555
C1C H3C 1_555 1_555
C2C C1C 1_555 1_555
H4C C2C 1_555 1_555
C3C C3 1_555 1_555
C4C C3C 1_555 1_555
H5C C4C 1_555 1_555
C5C N1C 1_555 1_555
H6C C5C 1_555 1_555
C6C H7C 1_555 1_555
C7C C6C 1_555 1_555
H8C C7C 1_555 1_555
H9C C7C 1_555 1_555
C8C C7C 1_555 1_555
H10C C8C 1_555 1_555
H11C C8C 1_555 1_555
C9C C8C 1_555 1_555
H12C C9C 1_555 1_555
C10C C9C 1_555 1_555
H13C C10C 1_555 1_555
H14C C10C 1_555 1_555
C11C C6C 1_555 1_555
H15C C11C 1_555 1_555
H16C C11C 1_555 1_555
C12C O1C 1_555 1_555
C13C O4C 1_555 1_555
H17C O6 1_555 1_555
C4 C5 1_555 1_555
C6 C12 1_555 1_555
C9 C13 1_555 1_555
C10 C11 1_555 1_555
O3C C12C 1_555 1_555
C2C C3C 1_555 1_555
C4C C5C 1_555 1_555
C6C C12C 1_555 1_555
C9C C13C 1_555 1_555
C10C C11C 1_555 1_555

#END
