
#######################################################################
#
#                 Cambridge Crystallographic Data Centre
#                                CCDC 
#
#######################################################################
#
# If this CIF has been generated from an entry in the Cambridge 
# Structural Database, then it will include bibliographic, chemical, 
# crystal, experimental, refinement or atomic coordinate data resulting 
# from the CCDC's data processing and validation procedures.
#
#######################################################################

data_XETHAF
_symmetry_cell_setting           orthorhombic
_symmetry_space_group_name_H-M   'P 21 21 21'
_symmetry_Int_Tables_number      19
_space_group_name_Hall           'P 2ac 2ab'
loop_
_symmetry_equiv_pos_site_id
_symmetry_equiv_pos_as_xyz
1 x,y,z
2 1/2-x,-y,1/2+z
3 1/2+x,1/2-y,-z
4 -x,1/2+y,1/2-z
_cell_length_a                   11.670(3)
_cell_length_b                   16.785(2)
_cell_length_c                   7.928(3)
_cell_angle_alpha                90
_cell_angle_beta                 90
_cell_angle_gamma                90
_cell_volume                     1552.94
loop_
_atom_site_label
_atom_site_type_symbol
_atom_site_fract_x
_atom_site_fract_y
_atom_site_fract_z
Cr1 Cr 0.25360(4) 0.00314(2) 0.22154(5)
O1 O 0.4188(2) 0.0119(1) 0.2192(3)
O2 O 0.2530(2) 0.1183(1) 0.2193(2)
N1 N 0.2252(2) -0.0182(1) 0.0347(3)
N2 N 0.2713(2) -0.1120(1) 0.3027(3)
N3 N 0.0880(2) 0.0064(1) 0.3031(3)
C1 C 0.4931(2) -0.0259(2) 0.3122(4)
C2 C 0.6046(3) 0.0058(2) 0.3310(5)
C3 C 0.6846(3) -0.0309(3) 0.4309(6)
C4 C 0.6616(3) -0.1010(3) 0.5133(6)
C5 C 0.5548(3) -0.1352(2) 0.4942(5)
C6 C 0.4693(2) -0.0985(2) 0.3957(4)
C7 C 0.3624(3) -0.1393(2) 0.3731(4)
C8 C 0.1748(3) -0.1676(2) 0.2814(5)
C9 C 0.0656(3) -0.1376(2) 0.3620(4)
C10 C 0.0161(2) -0.0645(2) 0.2786(5)
C11 C 0.0413(3) 0.0673(2) 0.3751(4)
C12 C 0.0916(3) 0.1447(2) 0.3976(4)
C13 C 0.0321(3) 0.2009(2) 0.4971(5)
C14 C 0.0719(4) 0.2767(2) 0.5170(5)
C15 C 0.1711(4) 0.2992(2) 0.4325(5)
C16 C 0.2304(3) 0.2470(2) 0.3315(4)
C17 C 0.1945(3) 0.1670(2) 0.3132(4)
H1 H 0.6265 0.0526 0.2715
H2 H 0.7576 -0.0066 0.4423
H3 H 0.7200 -0.1261 0.5826
H4 H 0.5365 -0.1837 0.5542
H5 H 0.3582 -0.1925 0.4154
H6 H 0.1960 -0.2168 0.3367
H7 H 0.1631 -0.1769 0.1670
H8 H 0.0094 -0.1787 0.3571
H9 H 0.0798 -0.1247 0.4774
H10 H -0.0582 -0.0542 0.3241
H11 H 0.0091 -0.0744 0.1609
H12 H -0.0349 0.0607 0.4176
H13 H -0.0371 0.1850 0.5508
H14 H 0.0325 0.3135 0.5862
H15 H 0.1972 0.3522 0.4458
H16 H 0.2984 0.2653 0.2727
N1A N 0.2748(2) 0.0182(1) 0.5347(3)
Cr1A Cr 0.24640(4) -0.00314(2) -0.27846(5)
loop_
_geom_bond_atom_site_label_1
_geom_bond_atom_site_label_2
_geom_bond_site_symmetry_1
_geom_bond_site_symmetry_2
Cr1 O1 1_555 1_555
O1 C1 1_555 1_555
O2 Cr1 1_555 1_555
N1 Cr1 1_555 1_555
N2 Cr1 1_555 1_555
N3 Cr1 1_555 1_555
C1 C2 1_555 1_555
C2 C3 1_555 1_555
C3 C4 1_555 1_555
C4 C5 1_555 1_555
C5 C6 1_555 1_555
C6 C1 1_555 1_555
C7 N2 1_555 1_555
C8 N2 1_555 1_555
C9 C8 1_555 1_555
C10 N3 1_555 1_555
C11 N3 1_555 1_555
C12 C11 1_555 1_555
C13 C12 1_555 1_555
C14 C13 1_555 1_555
C15 C14 1_555 1_555
C16 C15 1_555 1_555
C17 O2 1_555 1_555
H1 C2 1_555 1_555
H2 C3 1_555 1_555
H3 C4 1_555 1_555
H4 C5 1_555 1_555
H5 C7 1_555 1_555
H6 C8 1_555 1_555
H7 C8 1_555 1_555
H8 C9 1_555 1_555
H9 C9 1_555 1_555
H10 C10 1_555 1_555
H11 C10 1_555 1_555
H12 C11 1_555 1_555
H13 C13 1_555 1_555
H14 C14 1_555 1_555
H15 C15 1_555 1_555
H16 C16 1_555 1_555
N1A Cr1 1_555 1_555
Cr1A N1 1_555 1_555
C6 C7 1_555 1_555
C9 C10 1_555 1_555
C12 C17 1_555 1_555
C16 C17 1_555 1_555

#END
