
#######################################################################
#
#                 Cambridge Crystallographic Data Centre
#                                CCDC 
#
#######################################################################
#
# If this CIF has been generated from an entry in the Cambridge 
# Structural Database, then it will include bibliographic, chemical, 
# crystal, experimental, refinement or atomic coordinate data resulting 
# from the CCDC's data processing and validation procedures.
#
#######################################################################

data_XETJEM
_symmetry_cell_setting           triclinic
_symmetry_space_group_name_H-M   'P -1'
_symmetry_Int_Tables_number      2
_space_group_name_Hall           '-P 1'
loop_
_symmetry_equiv_pos_site_id
_symmetry_equiv_pos_as_xyz
1 x,y,z
2 -x,-y,-z
_cell_length_a                   5.6035(11)
_cell_length_b                   8.9812(18)
_cell_length_c                   12.119(2)
_cell_angle_alpha                86.31(3)
_cell_angle_beta                 77.38(3)
_cell_angle_gamma                77.56(3)
_cell_volume                     581.099
loop_
_atom_site_label
_atom_site_type_symbol
_atom_site_fract_x
_atom_site_fract_y
_atom_site_fract_z
Cu1 Cu 0.0000 0.5000 0.0000
Cu2 Cu 0.55058(3) 0.40277(2) -0.101510(16)
O1 O 0.2605(2) 0.26015(13) 0.00790(10)
O2 O -0.4192(2) 0.57428(15) 0.23745(10)
O3 O 0.7609(3) 0.20455(16) -0.15307(15)
O4 O -0.0093(2) 0.52533(15) 0.16065(10)
O5 O 0.3095(2) 0.58101(12) -0.03048(10)
C1 C -0.1349(4) 0.5628(3) 0.35708(16)
C2 C -0.1931(3) 0.55212(19) 0.24294(14)
H1 H 0.240(4) 0.199(2) -0.0368(13)
H2 H 0.275(4) 0.217(2) 0.0704(10)
H3 H 0.693(4) 0.128(2) -0.151(2)
H4 H 0.9150(19) 0.174(3) -0.155(2)
H5 H 0.290(4) 0.6599(16) -0.0691(16)
H6 H -0.1314 0.6665 0.3701
H7 H 0.0251 0.4990 0.3596
H8 H -0.2611 0.5296 0.4145
Cu1_2 Cu 1.0000 0.5000 0.0000
Cu1_3 Cu -1.0000 0.5000 0.0000
Cu2A Cu -0.55058(3) 0.59723(2) 0.101510(16)
Cu2_2 Cu -0.44942(3) 0.40277(2) -0.101510(16)
Cu2A_2 Cu 0.44942(3) 0.59723(2) 0.101510(16)
O1A O -0.2605(2) 0.73985(13) -0.00790(10)
O2A O 0.4192(2) 0.42572(15) -0.23745(10)
O3A O -0.7609(3) 0.79545(16) 0.15307(15)
O4A O 0.0093(2) 0.47467(15) -0.16065(10)
O4A_2 O 1.0093(2) 0.47467(15) -0.16065(10)
O4_2 O -1.0093(2) 0.52533(15) 0.16065(10)
O5A O -0.3095(2) 0.41899(12) 0.03048(10)
O5A_2 O 0.6905(2) 0.41899(12) 0.03048(10)
O5_2 O -0.6905(2) 0.58101(12) -0.03048(10)
C1A C 0.1349(4) 0.4372(3) -0.35708(16)
C2A C 0.1931(3) 0.44788(19) -0.24294(14)
H1A H -0.240(4) 0.801(2) 0.0368(13)
H2A H -0.275(4) 0.783(2) -0.0704(10)
H3A H -0.693(4) 0.872(2) 0.151(2)
H4A H -0.9150(19) 0.826(3) 0.155(2)
H5A H -0.290(4) 0.3401(16) 0.0691(16)
H5A_2 H 0.710(4) 0.3401(16) 0.0691(16)
H5_2 H -0.710(4) 0.6599(16) -0.0691(16)
H6A H 0.1314 0.3335 -0.3701
H7A H -0.0251 0.5010 -0.3596
H8A H 0.2611 0.4704 -0.4145
S1 S 0.62943(7) 0.05016(5) 0.21041(3)
O6 O 0.7430(3) -0.10937(15) 0.18383(11)
O7 O 0.7775(3) 0.15290(15) 0.14736(11)
O8 O 0.3702(2) 0.08289(17) 0.19848(11)
C3 C 0.4926(3) -0.01090(19) 0.44311(13)
C4 C 0.3437(4) -0.1107(2) 0.42213(15)
C5 C 0.2120(4) -0.1828(3) 0.50936(17)
C6 C 0.7776(4) 0.1622(2) 0.37827(16)
C7 C 0.6317(3) 0.06955(19) 0.35512(13)
H9 H 0.3357 -0.1271 0.3482
H10 H 0.1136 -0.2468 0.4940
H11 H 0.8698 0.2115 0.3197
S1A S 0.37057(7) -0.05016(5) 0.78959(3)
O6A O 0.2570(3) 0.10937(15) 0.81617(11)
O7A O 0.2225(3) -0.15290(15) 0.85264(11)
O8A O 0.6298(2) -0.08289(17) 0.80152(11)
C3A C 0.5074(3) 0.01090(19) 0.55689(13)
C4A C 0.6563(4) 0.1107(2) 0.57787(15)
C5A C 0.7880(4) 0.1828(3) 0.49064(17)
C6A C 0.2224(4) -0.1622(2) 0.62173(16)
C7A C 0.3683(3) -0.06955(19) 0.64488(13)
H9A H 0.6643 0.1271 0.6518
H10A H 0.8864 0.2468 0.5060
H11A H 0.1302 -0.2115 0.6803
loop_
_geom_bond_atom_site_label_1
_geom_bond_atom_site_label_2
_geom_bond_site_symmetry_1
_geom_bond_site_symmetry_2
Cu1 O1 1_555 1_555
Cu2 O1 1_555 1_555
O1 H1 1_555 1_555
O2 C2 1_555 1_555
O3 Cu2 1_555 1_555
O4 Cu1 1_555 1_555
O5 Cu1 1_555 1_555
C1 C2 1_555 1_555
C2 O4 1_555 1_555
H2 O1 1_555 1_555
H3 O3 1_555 1_555
H4 O3 1_555 1_555
H5 O5 1_555 1_555
H6 C1 1_555 1_555
H7 C1 1_555 1_555
H8 C1 1_555 1_555
S1 O6 1_555 1_555
O7 S1 1_555 1_555
O8 S1 1_555 1_555
C3 C4 1_555 1_555
C4 C5 1_555 1_555
C5 H10 1_555 1_555
C6 C7 1_555 1_555
C7 S1 1_555 1_555
H9 C4 1_555 1_555
H11 C6 1_555 1_555
Cu1_2 O4A_2 1_555 1_555
Cu1_3 O4_2 1_555 1_555
Cu2A O2 1_555 1_555
Cu2_2 O4A 1_555 1_555
Cu2A_2 O4 1_555 1_555
O1A Cu1 1_555 1_555
O2A Cu2 1_555 1_555
O3A Cu2A 1_555 1_555
O4A Cu1 1_555 1_555
O4A_2 Cu2 1_555 1_555
O4_2 Cu2A 1_555 1_555
O5A Cu1 1_555 1_555
O5A_2 Cu2 1_555 1_555
O5_2 Cu1_3 1_555 1_555
C1A C2A 1_555 1_555
C2A O2A 1_555 1_555
H1A O1A 1_555 1_555
H2A O1A 1_555 1_555
H3A O3A 1_555 1_555
H4A O3A 1_555 1_555
H5A O5A 1_555 1_555
H5A_2 O5A_2 1_555 1_555
H5_2 O5_2 1_555 1_555
H6A C1A 1_555 1_555
H7A C1A 1_555 1_555
H8A C1A 1_555 1_555
S1A O6A 1_555 1_555
O7A S1A 1_555 1_555
O8A S1A 1_555 1_555
C3A C3 1_555 1_555
C4A C3A 1_555 1_555
C5A C6 1_555 1_555
C6A C5 1_555 1_555
C7A S1A 1_555 1_555
H9A C4A 1_555 1_555
H10A C5A 1_555 1_555
H11A C6A 1_555 1_555
Cu2 O5 1_555 1_555
O5 Cu2A_2 1_555 1_555
C3 C7 1_555 1_555
Cu1_2 O5A_2 1_555 1_555
Cu2A O1A 1_555 1_555
Cu2A O5A 1_555 1_555
Cu2A O5_2 1_555 1_555
Cu2_2 O5A 1_555 1_555
Cu2_2 O5_2 1_555 1_555
Cu2A_2 O5A_2 1_555 1_555
O4A C2A 1_555 1_555
C3A C7A 1_555 1_555
C4A C5A 1_555 1_555
C6A C7A 1_555 1_555

#END
