
#######################################################################
#
#                 Cambridge Crystallographic Data Centre
#                                CCDC 
#
#######################################################################
#
# If this CIF has been generated from an entry in the Cambridge 
# Structural Database, then it will include bibliographic, chemical, 
# crystal, experimental, refinement or atomic coordinate data resulting 
# from the CCDC's data processing and validation procedures.
#
#######################################################################

data_XETMOY
_symmetry_cell_setting           triclinic
_symmetry_space_group_name_H-M   'P -1'
_symmetry_Int_Tables_number      2
_space_group_name_Hall           '-P 1'
loop_
_symmetry_equiv_pos_site_id
_symmetry_equiv_pos_as_xyz
1 x,y,z
2 -x,-y,-z
_cell_length_a                   6.7729(3)
_cell_length_b                   11.7016(5)
_cell_length_c                   11.7080(5)
_cell_angle_alpha                85.725(2)
_cell_angle_beta                 78.736(2)
_cell_angle_gamma                78.5590(10)
_cell_volume                     891.328
loop_
_atom_site_label
_atom_site_type_symbol
_atom_site_fract_x
_atom_site_fract_y
_atom_site_fract_z
Cu1 Cu 0.78008(8) 0.51825(4) 0.11017(4)
Cu2 Cu 0.27271(7) 0.97833(4) 0.44873(4)
Cl1 Cl 0.8597(2) 0.38356(9) 0.24569(10)
Cl2 Cl 0.8835(2) 0.39128(9) -0.03842(9)
Cl3 Cl 0.0604(2) 1.14522(9) 0.51210(9)
Cl4 Cl 0.3700(2) 0.92738(9) 0.62153(8)
N1 N 0.6274(5) 0.6436(3) 0.0090(3)
N2 N 0.6431(5) 0.6369(3) 0.2356(3)
N3 N 0.4363(5) 0.8256(3) 0.3745(3)
N4 N 0.2203(5) 1.0134(3) 0.2814(3)
N5 N 0.2010(5) 1.0306(3) 0.0426(3)
N6 N 0.4075(5) 0.8396(3) -0.0974(3)
C1 C 0.6172(6) 0.6478(4) -0.1034(3)
H7 H 0.6856(6) 0.5834(4) -0.1499(3)
C2 C 0.5066(6) 0.7463(4) -0.1547(3)
H8 H 0.5032(6) 0.7455(4) -0.2354(3)
C3 C 0.4158(6) 0.8360(3) 0.0173(3)
C4 C 0.5250(6) 0.7390(3) 0.0695(3)
C5 C 0.5355(6) 0.7334(3) 0.1913(3)
C6 C 0.6435(6) 0.6351(4) 0.3496(4)
H9 H 0.7148(6) 0.5679(4) 0.3850(4)
C7 C 0.5407(6) 0.7306(4) 0.4189(3)
H10 H 0.5466(6) 0.7264(4) 0.4995(3)
C8 C 0.4322(6) 0.8269(3) 0.2597(3)
C9 C 0.3193(6) 0.9273(3) 0.2079(3)
C10 C 0.3093(6) 0.9345(3) 0.0897(3)
C11 C 0.1018(6) 1.1133(4) 0.1159(3)
H11 H 0.0223(6) 1.1811(4) 0.0862(3)
C12 C 0.1091(6) 1.1051(3) 0.2356(3)
H12 H 0.0331(6) 1.1662(3) 0.2843(3)
Cl2A Cl 1.1165(2) 0.60872(9) 0.03842(9)
Cl3A Cl -0.0604(2) 0.85478(9) 0.48790(9)
Cl4A Cl 0.6300(2) 1.07262(9) 0.37847(8)
Cu1A Cu 1.21992(8) 0.48175(4) -0.11017(4)
Cu2A Cu -0.27271(7) 1.02167(4) 0.55127(4)
Cu2A_2 Cu 0.72729(7) 1.02167(4) 0.55127(4)
O1 O 1.2292(8) 0.4196(4) 0.3957(4)
H1 H 1.1810(8) 0.5021(4) 0.3783(4)
H2 H 1.1275(8) 0.3906(4) 0.3609(4)
O2 O 1.1342(6) 0.6504(3) 0.3087(3)
H3 H 1.0994(6) 0.6628(3) 0.2287(3)
H4 H 1.0578(6) 0.7165(3) 0.3575(3)
O3 O 0.1224(5) 1.1273(3) -0.1930(3)
H5 H 0.1840(5) 1.0832(3) -0.2380(3)
H6 H 0.1737(5) 1.1031(3) -0.1190(3)
loop_
_geom_bond_atom_site_label_1
_geom_bond_atom_site_label_2
_geom_bond_site_symmetry_1
_geom_bond_site_symmetry_2
Cu1 Cl1 1_555 1_555
Cu2 Cl3 1_555 1_555
Cl2 Cu1 1_555 1_555
Cl3 Cu2A 1_555 1_555
Cl4 Cu2 1_555 1_555
O1 H1 1_555 1_555
H2 O1 1_555 1_555
O2 H3 1_555 1_555
H4 O2 1_555 1_555
O3 H5 1_555 1_555
H6 O3 1_555 1_555
N1 Cu1 1_555 1_555
N2 Cu1 1_555 1_555
N3 Cu2 1_555 1_555
N4 Cu2 1_555 1_555
N5 C10 1_555 1_555
N6 C2 1_555 1_555
C1 N1 1_555 1_555
H7 C1 1_555 1_555
C2 C1 1_555 1_555
H8 C2 1_555 1_555
C3 N6 1_555 1_555
C4 N1 1_555 1_555
C5 N2 1_555 1_555
C6 N2 1_555 1_555
H9 C6 1_555 1_555
C7 N3 1_555 1_555
H10 C7 1_555 1_555
C8 N3 1_555 1_555
C9 N4 1_555 1_555
C10 C3 1_555 1_555
C11 N5 1_555 1_555
H11 C11 1_555 1_555
C12 N4 1_555 1_555
H12 C12 1_555 1_555
Cl2A Cu1 1_555 1_555
Cl3A Cu2 1_555 1_555
Cl4A Cu2 1_555 1_555
Cu1A Cl2 1_555 1_555
Cu2A Cl3A 1_555 1_555
Cu2A_2 Cl4 1_555 1_555
C3 C4 1_555 1_555
C4 C5 1_555 1_555
C5 C8 1_555 1_555
C6 C7 1_555 1_555
C8 C9 1_555 1_555
C9 C10 1_555 1_555
C11 C12 1_555 1_555
Cl2A Cu1A 1_555 1_555
Cl4A Cu2A_2 1_555 1_555

#END
