
#######################################################################
#
#                 Cambridge Crystallographic Data Centre
#                                CCDC 
#
#######################################################################
#
# If this CIF has been generated from an entry in the Cambridge 
# Structural Database, then it will include bibliographic, chemical, 
# crystal, experimental, refinement or atomic coordinate data resulting 
# from the CCDC's data processing and validation procedures.
#
#######################################################################

data_XETMUE
_symmetry_cell_setting           monoclinic
_symmetry_space_group_name_H-M   'P 21/n'
_symmetry_Int_Tables_number      14
_space_group_name_Hall           '-P 2yn'
loop_
_symmetry_equiv_pos_site_id
_symmetry_equiv_pos_as_xyz
1 x,y,z
2 1/2+x,1/2-y,1/2+z
3 -x,-y,-z
4 1/2-x,1/2+y,1/2-z
_cell_length_a                   9.3161(3)
_cell_length_b                   15.9239(4)
_cell_length_c                   10.1922(3)
_cell_angle_alpha                90
_cell_angle_beta                 91.8540(10)
_cell_angle_gamma                90
_cell_volume                     1511.21
loop_
_atom_site_label
_atom_site_type_symbol
_atom_site_fract_x
_atom_site_fract_y
_atom_site_fract_z
Cu1 Cu 0.97266(4) 0.24201(2) 0.29978(3)
O1 O 1.0674(2) 0.32177(13) 0.1786(2)
H1 H 1.0241(2) 0.36672(13) 0.1784(2)
H2 H 1.0601(2) 0.30892(13) 0.1061(2)
O2 O 1.1177(2) 0.13797(14) 0.2201(2)
H3 H 1.1184(2) 0.09030(14) 0.2508(2)
H4 H 1.1874(2) 0.15974(14) 0.2247(2)
N1 N 0.9105(3) 0.15412(15) 0.4363(2)
N2 N 1.1174(3) 0.27153(14) 0.4467(2)
N3 N 1.3159(3) 0.27860(15) 0.6585(2)
N4 N 1.3024(3) 0.1630(2) 0.8555(2)
N5 N 1.0801(3) 0.0431(2) 0.8563(2)
N6 N 0.8858(3) 0.0341(2) 0.6385(3)
C1 C 0.8078(3) 0.0963(2) 0.4317(3)
H5 H 0.7415(3) 0.0947(2) 0.3589(3)
C2 C 0.7962(3) 0.0367(2) 0.5344(3)
H6 H 0.7205(3) -0.0032(2) 0.5285(3)
C3 C 0.9885(3) 0.0949(2) 0.6449(3)
C4 C 0.9995(3) 0.1544(2) 0.5442(3)
C5 C 1.1108(3) 0.2176(2) 0.5497(3)
C6 C 1.2212(3) 0.3292(2) 0.4516(3)
H7 H 1.2283(3) 0.3686(2) 0.3821(3)
C7 C 1.3204(3) 0.3323(2) 0.5589(3)
H8 H 1.3929(3) 0.3743(2) 0.5601(3)
C8 C 1.2091(3) 0.2204(2) 0.6543(3)
C9 C 1.2004(3) 0.1587(2) 0.7581(3)
C10 C 1.0916(3) 0.0983(2) 0.7557(3)
C11 C 1.1779(4) 0.0498(2) 0.9528(3)
H9 H 1.1716(4) 0.0132(2) 1.0259(3)
C12 C 1.2911(4) 0.1087(2) 0.9525(3)
H10 H 1.3603(4) 0.1092(2) 1.0231(3)
N3A N 0.8159(3) 0.22140(15) 0.1585(2)
N4A N 0.8024(3) 0.3370(2) 0.3555(2)
Cu1A Cu 1.47266(4) 0.25799(2) 0.79978(3)
O3 O 1.5512(3) 0.2273(2) 0.4208(2)
O4 O 1.3931(3) 0.2242(2) 0.2584(2)
O5 O 1.3749(3) 0.13877(14) 0.4227(2)
N7 N 1.4399(3) 0.1958(2) 0.3661(3)
O6 O 1.1061(3) 0.4939(2) 0.3237(3)
O7 O 0.9209(3) 0.5759(2) 0.3207(2)
O8 O 0.9321(3) 0.47191(14) 0.1839(2)
N8 N 0.9866(3) 0.5144(2) 0.2771(3)
loop_
_geom_bond_atom_site_label_1
_geom_bond_atom_site_label_2
_geom_bond_site_symmetry_1
_geom_bond_site_symmetry_2
Cu1 O1 1_555 1_555
O1 H1 1_555 1_555
H2 O1 1_555 1_555
O2 Cu1 1_555 1_555
H3 O2 1_555 1_555
H4 O2 1_555 1_555
O3 N7 1_555 1_555
O4 N7 1_555 1_555
O5 N7 1_555 1_555
O6 N8 1_555 1_555
O7 N8 1_555 1_555
O8 N8 1_555 1_555
N1 Cu1 1_555 1_555
N2 Cu1 1_555 1_555
N3 C7 1_555 1_555
N4 C9 1_555 1_555
N5 C10 1_555 1_555
N6 C2 1_555 1_555
C1 N1 1_555 1_555
H5 C1 1_555 1_555
C2 C1 1_555 1_555
H6 C2 1_555 1_555
C3 N6 1_555 1_555
C4 N1 1_555 1_555
C5 N2 1_555 1_555
C6 N2 1_555 1_555
H7 C6 1_555 1_555
C7 C6 1_555 1_555
H8 C7 1_555 1_555
C8 N3 1_555 1_555
C9 C8 1_555 1_555
C10 C3 1_555 1_555
C11 N5 1_555 1_555
H9 C11 1_555 1_555
C12 N4 1_555 1_555
H10 C12 1_555 1_555
N3A Cu1 1_555 1_555
N4A Cu1 1_555 1_555
Cu1A N3 1_555 1_555
N4 Cu1A 1_555 1_555
C3 C4 1_555 1_555
C4 C5 1_555 1_555
C5 C8 1_555 1_555
C9 C10 1_555 1_555
C11 C12 1_555 1_555

#END
