
#######################################################################
#
#                 Cambridge Crystallographic Data Centre
#                                CCDC 
#
#######################################################################
#
# If this CIF has been generated from an entry in the Cambridge 
# Structural Database, then it will include bibliographic, chemical, 
# crystal, experimental, refinement or atomic coordinate data resulting 
# from the CCDC's data processing and validation procedures.
#
#######################################################################

data_XETPOC
_symmetry_cell_setting           monoclinic
_symmetry_space_group_name_H-M   'I 2/a'
_symmetry_Int_Tables_number      15
_space_group_name_Hall           '-I 2ya'
loop_
_symmetry_equiv_pos_site_id
_symmetry_equiv_pos_as_xyz
1 x,y,z
2 1/2+x,1/2+y,1/2+z
3 1/2-x,y,-z
4 -x,1/2+y,1/2-z
5 -x,-y,-z
6 1/2-x,1/2-y,1/2-z
7 1/2+x,-y,z
8 x,1/2-y,1/2+z
_cell_length_a                   13.865(4)
_cell_length_b                   7.787(2)
_cell_length_c                   17.381(3)
_cell_angle_alpha                90
_cell_angle_beta                 101.02(2)
_cell_angle_gamma                90
_cell_volume                     1841.97
loop_
_atom_site_label
_atom_site_type_symbol
_atom_site_fract_x
_atom_site_fract_y
_atom_site_fract_z
Gd1 Gd 0.460996(12) 0.216152(19) 0.231670(10)
O1 O 0.3179(2) 0.3876(3) 0.16741(19)
H1 H 0.260(2) 0.354(6) 0.171(3)
H2 H 0.316(3) 0.495(3) 0.175(3)
O2 O 0.6279(2) 0.2426(3) 0.30477(19)
O3 O 0.66239(19) 0.5237(3) 0.31926(18)
O4 O 0.8578(2) 0.7350(3) 0.33169(19)
O5 O 0.94822(19) 0.5171(3) 0.31281(15)
C1 C 0.6840(3) 0.3682(4) 0.3301(2)
C2 C 0.7853(3) 0.3256(5) 0.3779(2)
H3 H 0.8215 0.2604 0.3452
H4 H 0.7772 0.2528 0.4215
C3 C 0.8467(3) 0.4828(5) 0.4103(2)
H5 H 0.8068 0.5575 0.4361
H6 H 0.9022 0.4449 0.4493
C4 C 0.8841(2) 0.5836(5) 0.3486(2)
O6 O 0.48377(19) -0.0197(3) 0.32462(14)
O7 O 0.5268(2) -0.2303(3) 0.40683(17)
C5 C 0.5015(3) -0.0766(5) 0.3955(2)
C6 C 0.4917(4) 0.0410(5) 0.4606(2)
H7 H 0.4263 0.0904 0.4501
H8 H 0.5383 0.1343 0.4617
Gd1C Gd 0.539004(12) -0.283848(19) 0.268330(10)
Gd1C_2 Gd 0.539004(12) 0.716152(19) 0.268330(10)
Gd1F Gd 0.960996(12) 0.783848(19) 0.231670(10)
Gd1E Gd 1.039004(12) 0.283848(19) 0.268330(10)
Gd1G Gd 0.460996(12) 0.283848(19) 0.731670(10)
Gd1D Gd 0.539004(12) -0.216152(19) 0.768330(10)
Gd1E_2 Gd 0.039004(12) 0.283848(19) 0.268330(10)
Gd1F_2 Gd -0.039004(12) -0.216152(19) 0.231670(10)
O1C O 0.6821(2) -0.1124(3) 0.33259(19)
H1C H 0.740(2) -0.146(6) 0.329(3)
H2C H 0.684(3) -0.005(3) 0.325(3)
O2C O 0.3721(2) -0.2574(3) 0.19523(19)
O3C O 0.33761(19) 0.0237(3) 0.18074(18)
O3_2 O 0.66239(19) -0.4763(3) 0.31926(18)
O4C O 0.1422(2) 0.2350(3) 0.16831(19)
O4F O 0.3578(2) 0.2650(3) 0.33169(19)
O4E O 0.6422(2) -0.2350(3) 0.16831(19)
O5C O 0.05178(19) 0.0171(3) 0.18719(15)
O5F O 0.44822(19) 0.4829(3) 0.31281(15)
O5E O 0.55178(19) -0.0171(3) 0.18719(15)
O5F_2 O 0.44822(19) -0.5171(3) 0.31281(15)
C1C C 0.3160(3) -0.1318(4) 0.1699(2)
C2C C 0.2147(3) -0.1744(5) 0.1221(2)
H3C H 0.1785 -0.2396 0.1548
H4C H 0.2228 -0.2472 0.0785
C3C C 0.1533(3) -0.0172(5) 0.0897(2)
H5C H 0.1932 0.0575 0.0639
H6C H 0.0978 -0.0551 0.0507
C4C C 0.1159(2) 0.0836(5) 0.1514(2)
O6D O 0.51623(19) 0.0197(3) 0.67538(14)
O6C O 0.51623(19) 0.4803(3) 0.17538(14)
O6C_2 O 0.51623(19) -0.5197(3) 0.17538(14)
O7D O 0.4732(2) 0.2303(3) 0.59317(17)
O7C O 0.4732(2) 0.2697(3) 0.09317(17)
C5D C 0.4985(3) 0.0766(5) 0.6045(2)
C6D C 0.5083(4) -0.0410(5) 0.5394(2)
H7D H 0.5737 -0.0904 0.5499
H8D H 0.4617 -0.1343 0.5383
O8 O 0.2500 0.4742(16) 0.0000
H9 H 0.274(10) 0.410(8) 0.0388(6)
H9B H 0.226(10) 0.410(8) -0.0388(6)
loop_
_geom_bond_atom_site_label_1
_geom_bond_atom_site_label_2
_geom_bond_site_symmetry_1
_geom_bond_site_symmetry_2
Gd1 O1 1_555 1_555
O1 H1 1_555 1_555
H2 O1 1_555 1_555
O2 Gd1 1_555 1_555
O3 C1 1_555 1_555
O4 C4 1_555 1_555
O5 C4 1_555 1_555
C1 O2 1_555 1_555
C2 C1 1_555 1_555
H3 C2 1_555 1_555
H4 C2 1_555 1_555
C3 C2 1_555 1_555
H5 C3 1_555 1_555
H6 C3 1_555 1_555
C4 C3 1_555 1_555
O6 Gd1 1_555 1_555
O7 C5 1_555 1_555
C5 O6 1_555 1_555
C6 C5 1_555 1_555
H7 C6 1_555 1_555
H8 C6 1_555 1_555
O8 H9 1_555 1_555
Gd1C O6 1_555 1_555
Gd1C_2 O3 1_555 1_555
Gd1F O4 1_555 1_555
Gd1E O5 1_555 1_555
Gd1G O6D 1_555 1_555
Gd1D O6D 1_555 1_555
Gd1E_2 O4C 1_555 1_555
Gd1F_2 O5C 1_555 1_555
O1C Gd1C 1_555 1_555
H1C O1C 1_555 1_555
H2C O1C 1_555 1_555
O2C Gd1C 1_555 1_555
O3C Gd1 1_555 1_555
O3_2 Gd1C 1_555 1_555
O4C C4C 1_555 1_555
O4F Gd1 1_555 1_555
O4E Gd1C 1_555 1_555
O5C Gd1E_2 1_555 1_555
O5F Gd1 1_555 1_555
O5E Gd1 1_555 1_555
O5F_2 Gd1C 1_555 1_555
C1C O2C 1_555 1_555
C2C C1C 1_555 1_555
H3C C2C 1_555 1_555
H4C C2C 1_555 1_555
C3C C2C 1_555 1_555
H5C C3C 1_555 1_555
H6C C3C 1_555 1_555
C4C O5C 1_555 1_555
O6D C5D 1_555 1_555
O6C Gd1 1_555 1_555
O6C_2 Gd1C 1_555 1_555
O7D Gd1G 1_555 1_555
O7C Gd1 1_555 1_555
C5D O7D 1_555 1_555
C6D C6 1_555 1_555
H7D C6D 1_555 1_555
H8D C6D 1_555 1_555
H9B O8 1_555 1_555
O5 Gd1F 1_555 1_555
O7 Gd1C 1_555 1_555
Gd1C O5E 1_555 1_555
Gd1C_2 O5F 1_555 1_555
Gd1C_2 O6C 1_555 1_555
O3C C1C 1_555 1_555
C3C C4C 1_555 1_555
C5D C6D 1_555 1_555

#END
