
#######################################################################
#
#                 Cambridge Crystallographic Data Centre
#                                CCDC 
#
#######################################################################
#
# If this CIF has been generated from an entry in the Cambridge 
# Structural Database, then it will include bibliographic, chemical, 
# crystal, experimental, refinement or atomic coordinate data resulting 
# from the CCDC's data processing and validation procedures.
#
#######################################################################

data_XETPIW
_symmetry_cell_setting           monoclinic
_symmetry_space_group_name_H-M   'I 2/a'
_symmetry_Int_Tables_number      15
_space_group_name_Hall           '-I 2ya'
loop_
_symmetry_equiv_pos_site_id
_symmetry_equiv_pos_as_xyz
1 x,y,z
2 1/2+x,1/2+y,1/2+z
3 1/2-x,y,-z
4 -x,1/2+y,1/2-z
5 -x,-y,-z
6 1/2-x,1/2-y,1/2-z
7 1/2+x,-y,z
8 x,1/2-y,1/2+z
_cell_length_a                   14.015(3)
_cell_length_b                   7.944(2)
_cell_length_c                   17.615(4)
_cell_angle_alpha                90
_cell_angle_beta                 102.05(2)
_cell_angle_gamma                90
_cell_volume                     1917.96
loop_
_atom_site_label
_atom_site_type_symbol
_atom_site_fract_x
_atom_site_fract_y
_atom_site_fract_z
Pr1 Pr 0.461103(12) 0.21555(2) 0.231188(10)
O1 O 0.31388(19) 0.3902(4) 0.16520(18)
H1 H 0.257(2) 0.356(6) 0.167(3)
H2 H 0.318(3) 0.491(3) 0.178(3)
O2 O 0.6338(2) 0.2410(4) 0.30476(19)
O3 O 0.66374(19) 0.5181(3) 0.31967(19)
O4 O 0.8572(2) 0.7324(3) 0.33224(18)
O5 O 0.94747(18) 0.5174(3) 0.31407(15)
C1 C 0.6878(2) 0.3667(4) 0.3307(2)
C2 C 0.7889(3) 0.3284(5) 0.3782(2)
H3 H 0.8248 0.2655 0.3461
H4 H 0.7823 0.2569 0.4214
C3 C 0.8489(2) 0.4850(5) 0.4103(2)
H5 H 0.8089 0.5581 0.4349
H6 H 0.9045 0.4498 0.4497
C4 C 0.8850(2) 0.5833(4) 0.34877(19)
O6 O 0.48563(19) -0.0172(3) 0.32658(14)
O7 O 0.5278(2) -0.2247(3) 0.40841(16)
C5 C 0.5031(2) -0.0750(4) 0.3966(2)
C6 C 0.4928(3) 0.0414(5) 0.4612(2)
H7 H 0.5399 0.1318 0.4639
H8 H 0.4282 0.0912 0.4493
Pr1C Pr 0.538897(12) -0.28445(2) 0.268812(10)
Pr1C_2 Pr 0.538897(12) 0.71555(2) 0.268812(10)
Pr1F Pr 0.961103(12) 0.78445(2) 0.231188(10)
Pr1E Pr 1.038897(12) 0.28445(2) 0.268812(10)
Pr1G Pr 0.461103(12) 0.28445(2) 0.731188(10)
Pr1D Pr 0.538897(12) -0.21555(2) 0.768812(10)
Pr1E_2 Pr 0.038897(12) 0.28445(2) 0.268812(10)
Pr1F_2 Pr -0.038897(12) -0.21555(2) 0.231188(10)
O1C O 0.68612(19) -0.1098(4) 0.33480(18)
H1C H 0.743(2) -0.144(6) 0.333(3)
H2C H 0.682(3) -0.009(3) 0.322(3)
O2C O 0.3662(2) -0.2590(4) 0.19524(19)
O3C O 0.33626(19) 0.0181(3) 0.18033(19)
O3_2 O 0.66374(19) -0.4819(3) 0.31967(19)
O4C O 0.1428(2) 0.2324(3) 0.16776(18)
O4F O 0.3572(2) 0.2676(3) 0.33224(18)
O4E O 0.6428(2) -0.2324(3) 0.16776(18)
O5C O 0.05253(18) 0.0174(3) 0.18593(15)
O5F O 0.44747(18) 0.4826(3) 0.31407(15)
O5E O 0.55253(18) -0.0174(3) 0.18593(15)
O5F_2 O 0.44747(18) -0.5174(3) 0.31407(15)
C1C C 0.3122(2) -0.1333(4) 0.1693(2)
C2C C 0.2111(3) -0.1716(5) 0.1218(2)
H3C H 0.1752 -0.2345 0.1539
H4C H 0.2177 -0.2431 0.0786
C3C C 0.1511(2) -0.0150(5) 0.0897(2)
H5C H 0.1911 0.0581 0.0651
H6C H 0.0955 -0.0502 0.0503
C4C C 0.1150(2) 0.0833(4) 0.15123(19)
O6D O 0.51437(19) 0.0172(3) 0.67342(14)
O6C O 0.51437(19) 0.4828(3) 0.17342(14)
O6C_2 O 0.51437(19) -0.5172(3) 0.17342(14)
O7D O 0.4722(2) 0.2247(3) 0.59159(16)
O7C O 0.4722(2) 0.2753(3) 0.09159(16)
C5D C 0.4969(2) 0.0750(4) 0.6034(2)
C6D C 0.5072(3) -0.0414(5) 0.5388(2)
H7D H 0.4601 -0.1318 0.5361
H8D H 0.5718 -0.0912 0.5507
O8 O 0.2500 0.4906(11) 0.0000
H9 H 0.262(8) 0.425(4) 0.0379(6)
H9B H 0.238(8) 0.425(4) -0.0379(6)
loop_
_geom_bond_atom_site_label_1
_geom_bond_atom_site_label_2
_geom_bond_site_symmetry_1
_geom_bond_site_symmetry_2
Pr1 O1 1_555 1_555
O1 H1 1_555 1_555
H2 O1 1_555 1_555
O2 Pr1 1_555 1_555
O3 C1 1_555 1_555
O4 C4 1_555 1_555
O5 C4 1_555 1_555
C1 O2 1_555 1_555
C2 C1 1_555 1_555
H3 C2 1_555 1_555
H4 C2 1_555 1_555
C3 C2 1_555 1_555
H5 C3 1_555 1_555
H6 C3 1_555 1_555
C4 C3 1_555 1_555
O6 Pr1 1_555 1_555
O7 C5 1_555 1_555
C5 O6 1_555 1_555
C6 C5 1_555 1_555
H7 C6 1_555 1_555
H8 C6 1_555 1_555
O8 H9 1_555 1_555
Pr1C O6 1_555 1_555
Pr1C_2 O3 1_555 1_555
Pr1F O4 1_555 1_555
Pr1E O5 1_555 1_555
Pr1G O6D 1_555 1_555
Pr1D O6D 1_555 1_555
Pr1E_2 O4C 1_555 1_555
Pr1F_2 O5C 1_555 1_555
O1C Pr1C 1_555 1_555
H1C O1C 1_555 1_555
H2C O1C 1_555 1_555
O2C Pr1C 1_555 1_555
O3C Pr1 1_555 1_555
O3_2 Pr1C 1_555 1_555
O4C C4C 1_555 1_555
O4F Pr1 1_555 1_555
O4E Pr1C 1_555 1_555
O5C Pr1E_2 1_555 1_555
O5F Pr1 1_555 1_555
O5E Pr1 1_555 1_555
O5F_2 Pr1C 1_555 1_555
C1C O2C 1_555 1_555
C2C C1C 1_555 1_555
H3C C2C 1_555 1_555
H4C C2C 1_555 1_555
C3C C2C 1_555 1_555
H5C C3C 1_555 1_555
H6C C3C 1_555 1_555
C4C O5C 1_555 1_555
O6D C5D 1_555 1_555
O6C Pr1 1_555 1_555
O6C_2 Pr1C 1_555 1_555
O7D Pr1G 1_555 1_555
O7C Pr1 1_555 1_555
C5D O7D 1_555 1_555
C6D C6 1_555 1_555
H7D C6D 1_555 1_555
H8D C6D 1_555 1_555
H9B O8 1_555 1_555
O5 Pr1F 1_555 1_555
O7 Pr1C 1_555 1_555
Pr1C O5E 1_555 1_555
Pr1C_2 O5F 1_555 1_555
Pr1C_2 O6C 1_555 1_555
O3C C1C 1_555 1_555
C3C C4C 1_555 1_555
C5D C6D 1_555 1_555

#END
