
#######################################################################
#
#                 Cambridge Crystallographic Data Centre
#                                CCDC 
#
#######################################################################
#
# If this CIF has been generated from an entry in the Cambridge 
# Structural Database, then it will include bibliographic, chemical, 
# crystal, experimental, refinement or atomic coordinate data resulting 
# from the CCDC's data processing and validation procedures.
#
#######################################################################

data_XETQUI
_symmetry_cell_setting           monoclinic
_symmetry_space_group_name_H-M   'P 21/c'
_symmetry_Int_Tables_number      14
_space_group_name_Hall           '-P 2ybc'
loop_
_symmetry_equiv_pos_site_id
_symmetry_equiv_pos_as_xyz
1 x,y,z
2 -x,1/2+y,1/2-z
3 -x,-y,-z
4 x,1/2-y,1/2+z
_cell_length_a                   10.388(1)
_cell_length_b                   7.6749(7)
_cell_length_c                   16.702(1)
_cell_angle_alpha                90
_cell_angle_beta                 102.516(1)
_cell_angle_gamma                90
_cell_volume                     1299.95
loop_
_atom_site_label
_atom_site_type_symbol
_atom_site_fract_x
_atom_site_fract_y
_atom_site_fract_z
Co1 Co 0.0000 0.0000 0.0000
V1 V 0.1135(1) -0.2872(1) -0.1485(1)
V2 V 0.0994(1) 0.2666(1) -0.1555(1)
N1 N 0.1942(5) 0.0024(7) 0.0727(3)
N2 N 0.5723(5) -0.0012(10) 0.2236(3)
N3 N 0.7253(5) -0.0309(6) 0.4709(3)
C1 C 0.2135(6) 0.0364(8) 0.1540(3)
C2 C 0.3339(6) 0.0328(7) 0.2076(3)
C3 C 0.4456(5) -0.0077(8) 0.1770(3)
C4 C 0.4269(6) -0.0435(8) 0.0932(3)
C5 C 0.3016(6) -0.0355(7) 0.0443(3)
C6 C 0.6184(6) -0.0102(8) 0.3061(3)
C7 C 0.5444(6) -0.0815(8) 0.3606(3)
C8 C 0.6040(7) -0.0898(9) 0.4422(4)
C9 C 0.7989(6) 0.0347(8) 0.4211(4)
C10 C 0.7487(6) 0.0434(9) 0.3387(4)
O1 O 0.0545(4) -0.1966(7) -0.0754(2)
O2 O 0.0122(6) -0.2472(6) -0.2474(3)
O3 O 0.2616(5) -0.2152(9) -0.1423(3)
O4 O 0.0849(10) -0.5098(12) -0.1197(5)
O5 O 0.2574(12) 0.2270(20) -0.1421(8)
O6 O 0.0406(5) 0.1791(8) -0.0818(3)
H1 H 0.1401 0.0642 0.1749
H2 H 0.3412 0.0566 0.2630
H3 H 0.4983 -0.0724 0.0706
H4 H 0.2915 -0.0578 -0.0114
H5 H 0.4586 -0.1210 0.3415
H6 H 0.5579 -0.1383 0.4786
H7 H 0.8840 0.0741 0.4428
H8 H 0.8008 0.0849 0.3040
H9 H 0.6250(60) 0.0130(80) 0.2030(30)
H10 H 0.7578 -0.0349 0.5228
N1B N -0.1942(5) -0.0024(7) -0.0727(3)
N2B N -0.5723(5) 0.0012(10) -0.2236(3)
N3B N -0.7253(5) 0.0309(6) -0.4709(3)
C1B C -0.2135(6) -0.0364(8) -0.1540(3)
C2B C -0.3339(6) -0.0328(7) -0.2076(3)
C3B C -0.4456(5) 0.0077(8) -0.1770(3)
C4B C -0.4269(6) 0.0435(8) -0.0932(3)
C5B C -0.3016(6) 0.0355(7) -0.0443(3)
C6B C -0.6184(6) 0.0102(8) -0.3061(3)
C7B C -0.5444(6) 0.0815(8) -0.3606(3)
C8B C -0.6040(7) 0.0898(9) -0.4422(4)
C9B C -0.7989(6) -0.0347(8) -0.4211(4)
C10B C -0.7487(6) -0.0434(9) -0.3387(4)
H1B H -0.1401 -0.0642 -0.1749
H2B H -0.3412 -0.0566 -0.2630
H3B H -0.4983 0.0724 -0.0706
H4B H -0.2915 0.0578 0.0114
H5B H -0.4586 0.1210 -0.3415
H6B H -0.5579 0.1383 -0.4786
H7B H -0.8840 -0.0741 -0.4428
H8B H -0.8008 -0.0849 -0.3040
H9B H -0.6250(60) -0.0130(80) -0.2030(30)
H10B H -0.7578 0.0349 -0.5228
O1B O -0.0545(4) 0.1966(7) 0.0754(2)
O6B O -0.0406(5) -0.1791(8) 0.0818(3)
V1B V -0.1135(1) 0.2872(1) 0.1485(1)
V2B V -0.0994(1) -0.2666(1) 0.1555(1)
O2A O -0.0122(6) 0.2528(6) -0.2526(3)
O4_2 O 0.0849(10) 0.4902(12) -0.1197(5)
O3B O -0.2616(5) 0.2152(9) 0.1423(3)
O5B O -0.2574(12) -0.2270(20) 0.1421(8)
V2A V -0.0994(1) -0.2334(1) -0.3445(1)
V2_2 V 0.0994(1) -0.7334(1) -0.1555(1)
O2B O -0.0122(6) 0.2472(6) 0.2474(3)
O4B O -0.0849(10) 0.5098(12) 0.1197(5)
O2C O 0.0122(6) -0.2528(6) 0.2526(3)
O4B_2 O -0.0849(10) -0.4902(12) 0.1197(5)
V1A V -0.1135(1) 0.2128(1) -0.3515(1)
V1_2 V 0.1135(1) 0.7128(1) -0.1485(1)
loop_
_geom_bond_atom_site_label_1
_geom_bond_atom_site_label_2
_geom_bond_site_symmetry_1
_geom_bond_site_symmetry_2
Co1 N1 1_555 1_555
V1 O1 1_555 1_555
V2 O5 1_555 1_555
N1 C1 1_555 1_555
N2 C3 1_555 1_555
N3 C8 1_555 1_555
C1 C2 1_555 1_555
C2 C3 1_555 1_555
C3 C4 1_555 1_555
C4 C5 1_555 1_555
C5 N1 1_555 1_555
C6 N2 1_555 1_555
C7 C6 1_555 1_555
C8 C7 1_555 1_555
C9 N3 1_555 1_555
C10 C6 1_555 1_555
O1 Co1 1_555 1_555
O2 V1 1_555 1_555
O3 V1 1_555 1_555
O4 V1 1_555 1_555
O6 Co1 1_555 1_555
H1 C1 1_555 1_555
H2 C2 1_555 1_555
H3 C4 1_555 1_555
H4 C5 1_555 1_555
H5 C7 1_555 1_555
H6 C8 1_555 1_555
H7 C9 1_555 1_555
H8 C10 1_555 1_555
H9 N2 1_555 1_555
H10 N3 1_555 1_555
N1B Co1 1_555 1_555
N2B C3B 1_555 1_555
N3B C8B 1_555 1_555
C1B N1B 1_555 1_555
C2B C1B 1_555 1_555
C3B C2B 1_555 1_555
C4B C3B 1_555 1_555
C5B N1B 1_555 1_555
C6B N2B 1_555 1_555
C7B C6B 1_555 1_555
C8B C7B 1_555 1_555
C9B N3B 1_555 1_555
C10B C6B 1_555 1_555
H1B C1B 1_555 1_555
H2B C2B 1_555 1_555
H3B C4B 1_555 1_555
H4B C5B 1_555 1_555
H5B C7B 1_555 1_555
H6B C8B 1_555 1_555
H7B C9B 1_555 1_555
H8B C10B 1_555 1_555
H9B N2B 1_555 1_555
H10B N3B 1_555 1_555
O1B Co1 1_555 1_555
O6B Co1 1_555 1_555
V1B O1B 1_555 1_555
V2B O6B 1_555 1_555
O2A V2 1_555 1_555
O4_2 V2 1_555 1_555
O3B V1B 1_555 1_555
O5B V2B 1_555 1_555
V2A O2 1_555 1_555
V2_2 O4 1_555 1_555
O2B V1B 1_555 1_555
O4B V1B 1_555 1_555
O2C V2B 1_555 1_555
O4B_2 V2B 1_555 1_555
V1A O2A 1_555 1_555
V1_2 O4_2 1_555 1_555
V2 O6 1_555 1_555
C9 C10 1_555 1_555
C4B C5B 1_555 1_555
C9B C10B 1_555 1_555

#END
