
#######################################################################
#
#                 Cambridge Crystallographic Data Centre
#                                CCDC 
#
#######################################################################
#
# If this CIF has been generated from an entry in the Cambridge 
# Structural Database, then it will include bibliographic, chemical, 
# crystal, experimental, refinement or atomic coordinate data resulting 
# from the CCDC's data processing and validation procedures.
#
#######################################################################

data_XETQIX
_symmetry_cell_setting           orthorhombic
_symmetry_space_group_name_H-M   'P b c a'
_symmetry_Int_Tables_number      61
_space_group_name_Hall           '-P 2ac 2ab'
loop_
_symmetry_equiv_pos_site_id
_symmetry_equiv_pos_as_xyz
1 x,y,z
2 1/2-x,-y,1/2+z
3 -x,1/2+y,1/2-z
4 1/2+x,1/2-y,-z
5 -x,-y,-z
6 1/2+x,y,1/2-z
7 x,1/2-y,1/2+z
8 1/2-x,1/2+y,z
_cell_length_a                   10.99200(10)
_cell_length_b                   8.71290(10)
_cell_length_c                   28.4137(3)
_cell_angle_alpha                90
_cell_angle_beta                 90
_cell_angle_gamma                90
_cell_volume                     2721.24
loop_
_atom_site_label
_atom_site_type_symbol
_atom_site_fract_x
_atom_site_fract_y
_atom_site_fract_z
Ag1 Ag 0.22344(2) 0.19657(2) 0.725911(7)
S1 S 0.00325(7) 0.24051(8) 0.69716(2)
S2 S -0.20372(7) 0.43808(8) 0.73323(2)
S3 S 0.43077(7) 0.26403(8) 0.64076(2)
O1 O 0.3306(2) 0.1623(2) 0.65540(7)
O2 O 0.4305(2) 0.4075(2) 0.66706(7)
O3 O 0.5468(2) 0.1847(2) 0.64062(8)
C1 C 0.4001(3) 0.3146(3) 0.58144(10)
C2 C 0.3127(3) 0.4259(4) 0.57230(11)
H1 H 0.2711 0.4751 0.5974
C3 C 0.2869(3) 0.4641(4) 0.52605(11)
H2 H 0.2261 0.5388 0.5198
C4 C 0.3480(3) 0.3958(4) 0.48848(10)
C5 C 0.4365(3) 0.2873(4) 0.49856(11)
H3 H 0.4799 0.2406 0.4735
C6 C 0.4630(3) 0.2452(4) 0.54495(11)
H4 H 0.5233 0.1699 0.5513
C7 C 0.3175(4) 0.4405(4) 0.43855(11)
H5 H 0.3929 0.4564 0.4208
H6 H 0.2699 0.5356 0.4387
H7 H 0.2699 0.3584 0.4238
C8 C 0.0320(3) 0.2966(4) 0.63673(10)
H8 H -0.0452 0.3206 0.6212
H9 H 0.0723 0.2122 0.6201
H10 H 0.0846 0.3874 0.6363
C9 C -0.2591(3) 0.4425(3) 0.67326(10)
H11 H -0.2159 0.5224 0.6556
H12 H -0.3465 0.4649 0.6733
H13 H -0.2449 0.3426 0.6584
C10 C -0.0402(3) 0.4204(3) 0.72392(9)
H14 H -0.0125 0.5057 0.7035
H15 H 0.0018 0.4305 0.7546
Ag1E Ag -0.27656(2) 0.19657(2) 0.774089(7)
Ag1B Ag -0.22344(2) 0.69657(2) 0.774089(7)
S2E S 0.29628(7) 0.43808(8) 0.76677(2)
S2B S 0.20372(7) -0.06192(8) 0.76677(2)
loop_
_geom_bond_atom_site_label_1
_geom_bond_atom_site_label_2
_geom_bond_site_symmetry_1
_geom_bond_site_symmetry_2
Ag1 S1 1_555 1_555
S1 C8 1_555 1_555
S2 C9 1_555 1_555
S3 O1 1_555 1_555
O1 Ag1 1_555 1_555
O2 S3 1_555 1_555
O3 S3 1_555 1_555
C1 S3 1_555 1_555
C2 C1 1_555 1_555
H1 C2 1_555 1_555
C3 C2 1_555 1_555
H2 C3 1_555 1_555
C4 C3 1_555 1_555
C5 C4 1_555 1_555
H3 C5 1_555 1_555
C6 C1 1_555 1_555
H4 C6 1_555 1_555
C7 C4 1_555 1_555
H5 C7 1_555 1_555
H6 C7 1_555 1_555
H7 C7 1_555 1_555
C8 H8 1_555 1_555
H9 C8 1_555 1_555
H10 C8 1_555 1_555
C9 H11 1_555 1_555
H12 C9 1_555 1_555
H13 C9 1_555 1_555
C10 S1 1_555 1_555
H14 C10 1_555 1_555
H15 C10 1_555 1_555
Ag1E S2 1_555 1_555
Ag1B S2 1_555 1_555
S2E Ag1 1_555 1_555
S2B Ag1 1_555 1_555
S2 C10 1_555 1_555
C5 C6 1_555 1_555

#END
