
#######################################################################
#
#                 Cambridge Crystallographic Data Centre
#                                CCDC 
#
#######################################################################
#
# If this CIF has been generated from an entry in the Cambridge 
# Structural Database, then it will include bibliographic, chemical, 
# crystal, experimental, refinement or atomic coordinate data resulting 
# from the CCDC's data processing and validation procedures.
#
#######################################################################

data_XETROE
_symmetry_cell_setting           triclinic
_symmetry_space_group_name_H-M   'P -1'
_symmetry_Int_Tables_number      2
_space_group_name_Hall           '-P 1'
loop_
_symmetry_equiv_pos_site_id
_symmetry_equiv_pos_as_xyz
1 x,y,z
2 -x,-y,-z
_cell_length_a                   6.7508(2)
_cell_length_b                   8.3046(3)
_cell_length_c                   10.8924(4)
_cell_angle_alpha                87.794(2)
_cell_angle_beta                 83.849(2)
_cell_angle_gamma                83.473(2)
_cell_volume                     602.992
loop_
_atom_site_label
_atom_site_type_symbol
_atom_site_fract_x
_atom_site_fract_y
_atom_site_fract_z
Ag1 Ag -0.18359(4) 0.02187(3) 0.92693(2)
S1 S -0.04203(12) 0.26234(9) 0.82627(7)
S2 S 0.34795(11) 0.18401(9) 0.94017(7)
F1 F 0.5352(3) -0.2868(3) 0.48767(19)
F2 F 0.3381(3) -0.0794(2) 0.56429(19)
F3 F 0.4658(3) -0.4520(2) 0.71378(19)
F4 F 0.2122(3) -0.3856(2) 0.60612(19)
O1 O 0.8005(4) -0.2524(4) 0.6356(3)
H1 H 0.8848 -0.2285 0.6786
O2 O 0.6114(4) -0.0378(3) 0.7196(2)
O3 O 0.0451(4) -0.1784(3) 0.7769(3)
O4 O 0.3154(4) -0.2298(3) 0.8791(2)
C1 C 0.6383(5) -0.1561(4) 0.6572(3)
C2 C 0.4652(5) -0.2122(4) 0.5933(3)
C3 C 0.3384(5) -0.3242(4) 0.6762(3)
C4 C 0.2212(5) -0.2373(4) 0.7902(3)
C5 C -0.0968(6) 0.2667(5) 0.6669(4)
H2 H -0.0513 0.1634 0.6313
H3 H -0.0295 0.3495 0.6213
H4 H -0.2388 0.2897 0.6635
C6 C 0.2710(5) 0.3756(4) 1.0128(3)
H5 H 0.2998 0.4624 0.9552
H6 H 0.3425 0.3821 1.0837
H7 H 0.1296 0.3844 1.0381
C7 C 0.2278(5) 0.2107(4) 0.8002(3)
H8 H 0.2554 0.1114 0.7544
H9 H 0.2853 0.2960 0.7497
Ag1A Ag 0.18359(4) -0.02187(3) 1.07307(2)
S2A S -0.34795(11) -0.18401(9) 1.05983(7)
loop_
_geom_bond_atom_site_label_1
_geom_bond_atom_site_label_2
_geom_bond_site_symmetry_1
_geom_bond_site_symmetry_2
Ag1 S1 1_555 1_555
S1 C5 1_555 1_555
S2 C6 1_555 1_555
F1 C2 1_555 1_555
F2 C2 1_555 1_555
F3 C3 1_555 1_555
F4 C3 1_555 1_555
O1 H1 1_555 1_555
O2 C1 1_555 1_555
O3 Ag1 1_555 1_555
O4 C4 1_555 1_555
C1 O1 1_555 1_555
C2 C1 1_555 1_555
C3 C2 1_555 1_555
C4 O3 1_555 1_555
C5 H2 1_555 1_555
H3 C5 1_555 1_555
H4 C5 1_555 1_555
C6 H5 1_555 1_555
H6 C6 1_555 1_555
H7 C6 1_555 1_555
C7 S1 1_555 1_555
H8 C7 1_555 1_555
H9 C7 1_555 1_555
Ag1A Ag1 1_555 1_555
S2A Ag1 1_555 1_555
S2 C7 1_555 1_555
S2 Ag1A 1_555 1_555
C3 C4 1_555 1_555

#END
