
#######################################################################
#
#                 Cambridge Crystallographic Data Centre
#                                CCDC 
#
#######################################################################
#
# If this CIF has been generated from an entry in the Cambridge 
# Structural Database, then it will include bibliographic, chemical, 
# crystal, experimental, refinement or atomic coordinate data resulting 
# from the CCDC's data processing and validation procedures.
#
#######################################################################

data_XETRET
_symmetry_cell_setting           triclinic
_symmetry_space_group_name_H-M   'P -1'
_symmetry_Int_Tables_number      2
_space_group_name_Hall           '-P 1'
loop_
_symmetry_equiv_pos_site_id
_symmetry_equiv_pos_as_xyz
1 x,y,z
2 -x,-y,-z
_cell_length_a                   10.264(3)
_cell_length_b                   11.729(2)
_cell_length_c                   10.239(2)
_cell_angle_alpha                115.87(1)
_cell_angle_beta                 119.92(2)
_cell_angle_gamma                67.51(2)
_cell_volume                     939.56
loop_
_atom_site_label
_atom_site_type_symbol
_atom_site_fract_x
_atom_site_fract_y
_atom_site_fract_z
Mn1 Mn 0.2498(1) 0.2501(1) 0.1922(1)
O1 O 0.4621(5) 0.1908(5) 0.2663(5)
O2 O 0.0389(5) 0.3079(5) 0.1131(6)
O3 O 0.2649(7) 0.3480(6) 0.0593(7)
O4 O 0.2354(7) 0.1508(6) -0.0545(7)
N1 N 0.2818(7) 0.4031(6) 0.4101(7)
N2 N 0.2175(7) 0.0969(6) 0.2253(6)
C1 C 0.5758(8) 0.2205(7) 0.4063(8)
C2 C 0.7216(8) 0.1389(8) 0.4287(9)
C3 C 0.8430(9) 0.1636(9) 0.573(1)
C4 C 0.8245(9) 0.270(1) 0.698(1)
C5 C 0.6853(10) 0.3539(8) 0.6775(9)
C6 C 0.5576(8) 0.3289(8) 0.5324(8)
C7 C 0.4115(9) 0.4169(7) 0.5257(8)
C8 C 0.1477(9) 0.5021(7) 0.4360(9)
C9 C 0.0768(8) 0.4556(7) 0.4988(8)
C10 C 0.4228(8) 0.0455(7) 0.4672(8)
C11 C 0.3523(9) -0.0030(7) 0.2855(9)
C12 C 0.0884(9) 0.0829(7) 0.1972(8)
C13 C -0.0590(8) 0.1706(8) 0.1458(8)
C14 C -0.1857(10) 0.1462(8) 0.1383(9)
C15 C -0.3267(9) 0.2288(10) 0.1005(10)
C16 C -0.3427(9) 0.3360(10) 0.0658(10)
C17 C -0.2211(9) 0.3620(8) 0.0699(9)
C18 C -0.0750(8) 0.2788(7) 0.1099(8)
C19 C 0.2503(9) 0.2516(9) -0.0572(10)
C20 C 0.250(1) 0.2493(10) -0.2025(9)
H1 H 0.7357 0.0621 0.3414
H2 H 0.9451 0.1053 0.5893
H3 H 0.9101 0.2865 0.8008
H4 H 0.6746 0.4306 0.7664
H5 H 0.4074 0.4921 0.6183
H6 H 0.1753 0.5842 0.5104
H7 H 0.0698 0.5202 0.3382
H8 H 0.1634 0.4546 0.6118
H9 H 0.0589 0.3773 0.4360
H10 H 0.4622 0.1183 0.5082
H11 H 0.3501 0.0362 0.5026
H12 H 0.4282 -0.0208 0.2462
H13 H 0.3225 -0.0845 0.2490
H14 H 0.0911 0.0052 0.2137
H15 H -0.1730 0.0677 0.1608
H16 H -0.4139 0.2152 0.1029
H17 H -0.4444 0.3935 0.0374
H18 H -0.2356 0.4382 0.0444
H19 H 0.1566 0.2316 -0.2947
H20 H 0.2621 0.3313 -0.1936
H21 H 0.3339 0.1840 -0.2280
C9A C -0.0768(8) 0.5444(7) 0.5012(8)
C8A C -0.1477(9) 0.4979(7) 0.5640(9)
N1A N -0.2818(7) 0.5969(6) 0.5899(7)
C7A C -0.4115(9) 0.5831(7) 0.4743(8)
C6A C -0.5576(8) 0.6711(8) 0.4676(8)
C1A C -0.5758(8) 0.7795(7) 0.5937(8)
O1A O -0.4621(5) 0.8092(5) 0.7337(5)
C2A C -0.7216(8) 0.8611(8) 0.5713(9)
C3A C -0.8430(9) 0.8364(9) 0.427(1)
C4A C -0.8245(9) 0.730(1) 0.302(1)
C5A C -0.6853(10) 0.6461(8) 0.3225(9)
H4A H -0.6746 0.5694 0.2336
H3A H -0.9101 0.7135 0.1992
H2A H -0.9451 0.8947 0.4107
H1A H -0.7357 0.9379 0.6586
H5A H -0.4074 0.5079 0.3817
H6A H -0.1753 0.4158 0.4896
H7A H -0.0698 0.4798 0.6618
H8A H -0.1634 0.5454 0.3882
H9A H -0.0589 0.6227 0.5640
C10A C 0.5772(8) -0.0455(7) 0.5328(8)
C11A C 0.6477(9) 0.0030(7) 0.7145(9)
N2A N 0.7825(7) -0.0969(6) 0.7747(6)
C12A C 0.9116(9) -0.0829(7) 0.8028(8)
C13A C 1.0590(8) -0.1706(8) 0.8542(8)
C14A C 1.1857(10) -0.1462(8) 0.8617(9)
C15A C 1.3267(9) -0.2288(10) 0.8995(10)
C16A C 1.3427(9) -0.3360(10) 0.9342(10)
C17A C 1.2211(9) -0.3620(8) 0.9301(9)
C18A C 1.0750(8) -0.2788(7) 0.8901(8)
O2A O 0.9611(5) -0.3079(5) 0.8869(6)
H18A H 1.2356 -0.4382 0.9556
H17A H 1.4444 -0.3935 0.9626
H16A H 1.4139 -0.2152 0.8971
H15A H 1.1730 -0.0677 0.8392
H14A H 0.9089 -0.0052 0.7863
H12A H 0.5718 0.0208 0.7538
H13A H 0.6775 0.0845 0.7510
H10A H 0.5378 -0.1183 0.4918
H11A H 0.6499 -0.0362 0.4974
Mn1A Mn -0.2498(1) 0.7499(1) 0.8078(1)
O3A O -0.2649(7) 0.6520(6) 0.9407(7)
O4A O -0.2354(7) 0.8492(6) 1.0545(7)
C19A C -0.2503(9) 0.7484(9) 1.0572(10)
C20A C -0.250(1) 0.7507(10) 1.2025(9)
H19A H -0.1566 0.7684 1.2947
H20A H -0.2621 0.6687 1.1936
H21A H -0.3339 0.8160 1.2280
Mn1A_2 Mn 0.7502(1) -0.2501(1) 0.8078(1)
O2A_2 O -0.0389(5) 0.6921(5) 0.8869(6)
N2A_2 N -0.2175(7) 0.9031(6) 0.7747(6)
loop_
_geom_bond_atom_site_label_1
_geom_bond_atom_site_label_2
_geom_bond_site_symmetry_1
_geom_bond_site_symmetry_2
Mn1 O1 1_555 1_555
O1 C1 1_555 1_555
O2 Mn1 1_555 1_555
O3 Mn1 1_555 1_555
O4 Mn1 1_555 1_555
N1 Mn1 1_555 1_555
N2 Mn1 1_555 1_555
C1 C2 1_555 1_555
C2 C3 1_555 1_555
C3 C4 1_555 1_555
C4 C5 1_555 1_555
C5 C6 1_555 1_555
C6 C1 1_555 1_555
C7 N1 1_555 1_555
C8 N1 1_555 1_555
C9 C8 1_555 1_555
C10 C11 1_555 1_555
C11 N2 1_555 1_555
C12 N2 1_555 1_555
C13 C12 1_555 1_555
C14 C13 1_555 1_555
C15 C14 1_555 1_555
C16 C15 1_555 1_555
C17 C16 1_555 1_555
C18 O2 1_555 1_555
C19 O3 1_555 1_555
C20 C19 1_555 1_555
H1 C2 1_555 1_555
H2 C3 1_555 1_555
H3 C4 1_555 1_555
H4 C5 1_555 1_555
H5 C7 1_555 1_555
H6 C8 1_555 1_555
H7 C8 1_555 1_555
H8 C9 1_555 1_555
H9 C9 1_555 1_555
H10 C10 1_555 1_555
H11 C10 1_555 1_555
H12 C11 1_555 1_555
H13 C11 1_555 1_555
H14 C12 1_555 1_555
H15 C14 1_555 1_555
H16 C15 1_555 1_555
H17 C16 1_555 1_555
H18 C17 1_555 1_555
H19 C20 1_555 1_555
H20 C20 1_555 1_555
H21 C20 1_555 1_555
C9A C9 1_555 1_555
C8A C9A 1_555 1_555
N1A C8A 1_555 1_555
C7A N1A 1_555 1_555
C6A C7A 1_555 1_555
C1A C6A 1_555 1_555
O1A C1A 1_555 1_555
C2A C1A 1_555 1_555
C3A C2A 1_555 1_555
C4A C3A 1_555 1_555
C5A C6A 1_555 1_555
H4A C5A 1_555 1_555
H3A C4A 1_555 1_555
H2A C3A 1_555 1_555
H1A C2A 1_555 1_555
H5A C7A 1_555 1_555
H6A C8A 1_555 1_555
H7A C8A 1_555 1_555
H8A C9A 1_555 1_555
H9A C9A 1_555 1_555
C10A C10 1_555 1_555
C11A C10A 1_555 1_555
N2A C11A 1_555 1_555
C12A N2A 1_555 1_555
C13A C12A 1_555 1_555
C14A C13A 1_555 1_555
C15A C14A 1_555 1_555
C16A C15A 1_555 1_555
C17A C16A 1_555 1_555
C18A C13A 1_555 1_555
O2A C18A 1_555 1_555
H18A C17A 1_555 1_555
H17A C16A 1_555 1_555
H16A C15A 1_555 1_555
H15A C14A 1_555 1_555
H14A C12A 1_555 1_555
H12A C11A 1_555 1_555
H13A C11A 1_555 1_555
H10A C10A 1_555 1_555
H11A C10A 1_555 1_555
Mn1A N1A 1_555 1_555
O3A Mn1A 1_555 1_555
O4A Mn1A 1_555 1_555
C19A O3A 1_555 1_555
C20A C19A 1_555 1_555
H19A C20A 1_555 1_555
H20A C20A 1_555 1_555
H21A C20A 1_555 1_555
Mn1A_2 N2A 1_555 1_555
O2A_2 Mn1A 1_555 1_555
N2A_2 Mn1A 1_555 1_555
O4 C19 1_555 1_555
C6 C7 1_555 1_555
C13 C18 1_555 1_555
C17 C18 1_555 1_555
O1A Mn1A 1_555 1_555
C4A C5A 1_555 1_555
C17A C18A 1_555 1_555
O2A Mn1A_2 1_555 1_555
O4A C19A 1_555 1_555

#END
