
#######################################################################
#
#                 Cambridge Crystallographic Data Centre
#                                CCDC 
#
#######################################################################
#
# If this CIF has been generated from an entry in the Cambridge 
# Structural Database, then it will include bibliographic, chemical, 
# crystal, experimental, refinement or atomic coordinate data resulting 
# from the CCDC's data processing and validation procedures.
#
#######################################################################

data_XETSIZ
_symmetry_cell_setting           monoclinic
_symmetry_space_group_name_H-M   'P 21'
_symmetry_Int_Tables_number      4
_space_group_name_Hall           'P 2yb'
loop_
_symmetry_equiv_pos_site_id
_symmetry_equiv_pos_as_xyz
1 x,y,z
2 -x,1/2+y,-z
_cell_length_a                   10.941(2)
_cell_length_b                   21.255(4)
_cell_length_c                   13.487(3)
_cell_angle_alpha                90
_cell_angle_beta                 100.21(3)
_cell_angle_gamma                90
_cell_volume                     3086.75
loop_
_atom_site_label
_atom_site_type_symbol
_atom_site_fract_x
_atom_site_fract_y
_atom_site_fract_z
Mo1 Mo 0.37176(5) 0.01310(2) 0.01304(4)
Mo2 Mo 0.35461(5) 0.08596(3) 0.26077(4)
Mo3 Mo 0.07456(5) 0.08658(3) 0.34148(4)
Mo4 Mo 0.32716(5) -0.08827(3) 0.23572(4)
Mo5 Mo 0.04799(5) -0.08565(3) 0.31492(4)
P1 P 0.08705(16) 0.01293(9) 0.11002(14)
Mo6 Mo 0.11099(5) -0.05331(2) -0.12689(4)
Mo7 Mo -0.18876(5) -0.05254(3) -0.03260(4)
Mo8 Mo 0.13142(5) 0.10540(2) -0.09967(4)
Mo9 Mo -0.20668(5) 0.01611(3) 0.19261(4)
Mo10 Mo -0.16951(5) 0.10678(3) -0.00787(4)
Mo11 Mo 0.06612(5) -0.15446(3) 0.09235(4)
Mo12 Mo 0.11646(5) 0.17789(3) 0.14334(4)
O1 O 0.2899(4) -0.0462(2) -0.0901(3)
O2 O 0.4949(4) 0.1071(2) 0.3238(4)
O3 O -0.0328(4) 0.1037(2) -0.0889(3)
O4 O -0.0876(4) 0.0730(2) 0.2746(4)
O5 O -0.0512(4) -0.0479(2) -0.1095(3)
O6 O 0.0271(4) -0.1544(2) 0.2246(3)
O7 O -0.1048(4) -0.0502(2) 0.2592(3)
O8 O -0.0832(4) -0.1169(2) 0.0369(4)
O9 O -0.2460(4) 0.0878(2) 0.1006(3)
O10 O -0.0540(4) 0.0187(2) 0.0796(3)
O11 O 0.1666(4) 0.1526(2) 0.0185(4)
O12 O 0.0577(4) 0.1104(2) 0.4581(4)
O13 O 0.1478(4) 0.0170(2) 0.0162(3)
O14 O 0.5159(4) 0.0080(2) -0.0113(4)
O15 O 0.1358(4) 0.0670(2) 0.1817(3)
O16 O 0.3073(4) 0.0788(2) -0.0734(4)
O17 O 0.0988(4) -0.0970(2) -0.2338(4)
O18 O 0.0193(4) -0.1182(3) 0.4229(4)
O19 O 0.2586(4) 0.0922(2) 0.3615(3)
O20 O 0.3556(4) -0.0052(2) 0.2764(3)
O21 O 0.4597(4) -0.1233(2) 0.2892(4)
O22 O 0.3874(4) 0.0628(2) 0.1279(4)
O23 O -0.2620(4) -0.0380(2) 0.0812(3)
O24 O -0.2619(4) 0.1637(2) -0.0674(4)
O25 O 0.1125(4) 0.0281(2) -0.1811(3)
O26 O 0.1394(4) -0.1188(2) -0.0206(3)
O27 O -0.2311(4) 0.0332(2) -0.0773(3)
Cu2 Cu 0.06502(8) -0.15338(5) -0.39888(7)
Cu3 Cu 0.09954(8) 0.18302(5) -0.37147(8)
O28 O 0.2266(4) -0.1021(2) 0.3325(3)
O29 O 0.0446(5) -0.2305(2) 0.0626(4)
O30 O 0.0943(4) 0.0005(2) 0.3581(4)
O31 O 0.1169(4) -0.0502(2) 0.1631(3)
O32 O 0.1350(4) 0.1588(2) -0.1918(4)
O33 O 0.1155(5) 0.2566(2) 0.1324(4)
O34 O -0.2998(4) -0.0937(2) -0.1084(4)
O35 O 0.0799(4) 0.1673(2) 0.2761(4)
O36 O -0.0437(4) 0.1554(2) 0.0813(4)
O37 O 0.2419(4) -0.1572(2) 0.1568(3)
O38 O 0.3615(4) -0.0615(2) 0.1008(4)
O39 O 0.2904(4) 0.1629(2) 0.2041(4)
Cu4 Cu 0.32144(8) -0.13852(4) 0.01091(7)
N2 N -0.1110(5) -0.1614(3) -0.4043(5)
N3 N -0.0760(6) 0.1873(3) -0.3785(5)
O40 O -0.3257(4) 0.0155(2) 0.2550(4)
N4 N -0.7242(6) 0.1863(3) -0.3711(5)
N5 N -0.7597(5) -0.1577(3) -0.3950(4)
C2 C -0.1597(7) 0.1680(4) -0.4581(6)
H1 H -0.1310 0.1544 -0.5153
C4 C -0.5016(6) -0.1624(3) -0.3989(5)
C5 C -0.3325(7) 0.1888(3) -0.3763(6)
C6 C -0.6741(6) -0.1398(3) -0.3132(5)
H2 H -0.7016 -0.1252 -0.2559
C7 C -0.1215(6) 0.2094(3) -0.2986(6)
H3 H -0.0655 0.2236 -0.2431
C11 C -0.7162(6) -0.1763(3) -0.4766(5)
H7 H -0.7737 -0.1884 -0.5327
C12 C -0.2468(6) 0.2120(3) -0.2947(6)
H8 H -0.2738 0.2290 -0.2388
N7 N 0.4965(5) -0.1686(3) 0.0375(5)
C13 C -0.5570(7) 0.1820(4) -0.4628(6)
H9 H -0.5313 0.1781 -0.5246
C14 C -0.5918(6) -0.1788(3) -0.4840(5)
H10 H -0.5677 -0.1911 -0.5439
C16 C -0.4685(6) 0.1884(3) -0.3735(6)
C17 C -0.2877(6) 0.1675(3) -0.4591(5)
H12 H -0.3419 0.1529 -0.5154
C18 C -0.5468(6) -0.1426(3) -0.3134(5)
H13 H -0.4912 -0.1312 -0.2559
C19 C -0.6814(6) 0.1817(4) -0.4578(5)
H14 H -0.7384 0.1780 -0.5174
C20 C -0.3209(6) -0.1620(4) -0.4907(6)
H15 H -0.3757 -0.1622 -0.5519
N8 N 0.3024(6) -0.2113(3) -0.0849(5)
C23 C -0.6401(7) 0.1935(4) -0.2870(6)
H18 H -0.6684 0.1983 -0.2263
C25 C -0.1567(7) -0.1645(4) -0.3164(6)
H20 H -0.1002 -0.1660 -0.2562
C27 C -0.5148(7) 0.1943(4) -0.2853(6)
H22 H -0.4605 0.1989 -0.2244
C28 C -0.1954(7) -0.1605(4) -0.4903(6)
H23 H -0.1675 -0.1588 -0.5515
C29 C 0.7276(7) -0.2242(3) 0.0687(6)
H24 H 0.8054 -0.2432 0.0791
C30 C 0.5870(7) -0.1452(4) 0.1076(6)
H25 H 0.5712 -0.1102 0.1447
C31 C -0.3671(6) -0.1632(3) -0.4022(5)
C32 C 0.1976(7) -0.2295(3) -0.1476(6)
H26 H 0.1222 -0.2112 -0.1413
C33 C -0.2804(6) -0.1656(3) -0.3116(6)
H27 H -0.3068 -0.1678 -0.2499
C34 C 0.7058(7) -0.1727(3) 0.1260(6)
H28 H 0.7681 -0.1566 0.1754
C35 C 0.5183(7) -0.2186(3) -0.0161(6)
C36 C 0.6330(6) -0.2473(4) -0.0043(7)
H29 H 0.6465 -0.2814 -0.0443
C37 C 0.4088(6) -0.2411(3) -0.0917(5)
C38 C 0.2004(7) -0.2747(4) -0.2207(6)
H30 H 0.1281 -0.2849 -0.2654
C39 C 0.3069(8) -0.3040(4) -0.2273(6)
H31 H 0.3081 -0.3356 -0.2747
C40 C 0.4181(7) -0.2865(4) -0.1618(7)
H32 H 0.4938 -0.3052 -0.1663
O18_2 O 0.0193(4) -0.1182(3) -0.5771(4)
Cu2_2 Cu 0.06502(8) -0.15338(5) 0.60112(7)
Cu2_3 Cu -0.93498(8) -0.15338(5) -0.39888(7)
Cu3_2 Cu -0.90046(8) 0.18302(5) -0.37147(8)
N4_2 N 0.2758(6) 0.1863(3) -0.3711(5)
N5_2 N 0.2403(5) -0.1577(3) -0.3950(4)
Cu1 Cu 0.08867(9) 0.01364(5) -0.38893(9)
N1 N -0.0863(5) 0.0157(3) -0.3985(5)
C1 C -0.4791(6) 0.0116(3) -0.3927(5)
N6 N -0.7344(5) 0.0097(3) -0.3860(5)
C3 C -0.3455(6) 0.0139(3) -0.3986(5)
C8 C -0.2980(7) 0.0016(4) -0.4853(6)
H4 H -0.3516 -0.0076 -0.5451
C9 C -0.6521(7) 0.0264(4) -0.3054(6)
H5 H -0.6805 0.0372 -0.2466
C10 C -0.1715(7) 0.0030(4) -0.4832(7)
H6 H -0.1426 -0.0051 -0.5427
C15 C -0.1359(7) 0.0304(4) -0.3159(6)
H11 H -0.0819 0.0426 -0.2579
C21 C -0.2595(6) 0.0285(4) -0.3123(5)
H16 H -0.2866 0.0369 -0.2521
C22 C -0.5263(6) 0.0281(4) -0.3061(6)
H17 H -0.4719 0.0404 -0.2483
C24 C -0.5688(7) -0.0069(4) -0.4749(6)
H19 H -0.5444 -0.0189 -0.5347
C26 C -0.6905(7) -0.0074(4) -0.4679(6)
H21 H -0.7471 -0.0206 -0.5238
Cu1_2 Cu -0.91133(9) 0.01364(5) -0.38893(9)
N6_2 N 0.2656(5) 0.0097(3) -0.3860(5)
loop_
_geom_bond_atom_site_label_1
_geom_bond_atom_site_label_2
_geom_bond_site_symmetry_1
_geom_bond_site_symmetry_2
Mo1 O1 1_555 1_555
Mo2 O2 1_555 1_555
Mo3 O4 1_555 1_555
Mo4 O20 1_555 1_555
Mo5 O6 1_555 1_555
P1 O10 1_555 1_555
Mo6 O1 1_555 1_555
Mo7 O5 1_555 1_555
Mo8 O3 1_555 1_555
Mo9 O4 1_555 1_555
Mo10 O3 1_555 1_555
Mo11 O6 1_555 1_555
Cu1 N1 1_555 1_555
Mo12 O11 1_555 1_555
O1 Cu4 1_555 1_555
O5 Mo6 1_555 1_555
O7 Mo5 1_555 1_555
O8 Mo7 1_555 1_555
O9 Mo9 1_555 1_555
O10 Mo7 1_555 1_555
O11 Mo8 1_555 1_555
O12 Mo3 1_555 1_555
O13 Mo1 1_555 1_555
O14 Mo1 1_555 1_555
O15 Mo2 1_555 1_555
O16 Mo1 1_555 1_555
O17 Mo6 1_555 1_555
O18 Mo5 1_555 1_555
O19 Mo2 1_555 1_555
O20 Mo2 1_555 1_555
O21 Mo4 1_555 1_555
O22 Mo1 1_555 1_555
O23 Mo7 1_555 1_555
O24 Mo10 1_555 1_555
O25 Mo6 1_555 1_555
O26 Mo6 1_555 1_555
O27 Mo7 1_555 1_555
Cu2 O17 1_555 1_555
Cu3 O32 1_555 1_555
O28 Mo4 1_555 1_555
O29 Mo11 1_555 1_555
O30 Mo3 1_555 1_555
O31 Mo4 1_555 1_555
O32 Mo8 1_555 1_555
O33 Mo12 1_555 1_555
O34 Mo7 1_555 1_555
O35 Mo3 1_555 1_555
O36 Mo10 1_555 1_555
O37 Mo4 1_555 1_555
O38 Mo1 1_555 1_555
O39 Mo2 1_555 1_555
Cu4 O26 1_555 1_555
N1 C10 1_555 1_555
N2 Cu2 1_555 1_555
N3 Cu3 1_555 1_555
O40 Mo9 1_555 1_555
C1 C3 1_555 1_555
N4 C19 1_555 1_555
N5 C6 1_555 1_555
N6 C9 1_555 1_555
C2 N3 1_555 1_555
H1 C2 1_555 1_555
C3 C8 1_555 1_555
C4 C14 1_555 1_555
C5 C12 1_555 1_555
C6 H2 1_555 1_555
C7 N3 1_555 1_555
H3 C7 1_555 1_555
C8 H4 1_555 1_555
C9 H5 1_555 1_555
C10 C8 1_555 1_555
H6 C10 1_555 1_555
C11 N5 1_555 1_555
H7 C11 1_555 1_555
C12 C7 1_555 1_555
H8 C12 1_555 1_555
N7 Cu4 1_555 1_555
C13 H9 1_555 1_555
C14 C11 1_555 1_555
H10 C14 1_555 1_555
C15 N1 1_555 1_555
H11 C15 1_555 1_555
C16 C5 1_555 1_555
C17 C2 1_555 1_555
H12 C17 1_555 1_555
C18 C4 1_555 1_555
H13 C18 1_555 1_555
C19 C13 1_555 1_555
H14 C19 1_555 1_555
C20 H15 1_555 1_555
N8 Cu4 1_555 1_555
C21 C3 1_555 1_555
H16 C21 1_555 1_555
C22 C1 1_555 1_555
H17 C22 1_555 1_555
C23 N4 1_555 1_555
H18 C23 1_555 1_555
C24 C1 1_555 1_555
H19 C24 1_555 1_555
C25 N2 1_555 1_555
H20 C25 1_555 1_555
C26 N6 1_555 1_555
H21 C26 1_555 1_555
C27 C16 1_555 1_555
H22 C27 1_555 1_555
C28 N2 1_555 1_555
H23 C28 1_555 1_555
C29 H24 1_555 1_555
C30 N7 1_555 1_555
H25 C30 1_555 1_555
C31 C4 1_555 1_555
C32 N8 1_555 1_555
H26 C32 1_555 1_555
C33 C25 1_555 1_555
H27 C33 1_555 1_555
C34 C29 1_555 1_555
H28 C34 1_555 1_555
C35 N7 1_555 1_555
C36 C29 1_555 1_555
H29 C36 1_555 1_555
C37 N8 1_555 1_555
C38 C32 1_555 1_555
H30 C38 1_555 1_555
C39 C38 1_555 1_555
H31 C39 1_555 1_555
C40 C37 1_555 1_555
H32 C40 1_555 1_555
Cu1_2 N6 1_555 1_555
O18_2 Cu2 1_555 1_555
Cu2_2 O18 1_555 1_555
Cu2_3 N5 1_555 1_555
Cu3_2 N4 1_555 1_555
N4_2 Cu3 1_555 1_555
N5_2 Cu2 1_555 1_555
N6_2 Cu1 1_555 1_555
Mo2 O22 1_555 1_555
Mo3 O15 1_555 1_555
Mo3 O19 1_555 1_555
Mo4 O38 1_555 1_555
Mo5 O28 1_555 1_555
Mo5 O30 1_555 1_555
Mo5 O31 1_555 1_555
P1 O13 1_555 1_555
P1 O15 1_555 1_555
P1 O31 1_555 1_555
Mo6 O13 1_555 1_555
Mo8 O13 1_555 1_555
Mo8 O16 1_555 1_555
Mo8 O25 1_555 1_555
Mo9 O7 1_555 1_555
Mo9 O10 1_555 1_555
Mo9 O23 1_555 1_555
Mo10 O9 1_555 1_555
Mo10 O10 1_555 1_555
Mo10 O27 1_555 1_555
Mo11 O8 1_555 1_555
Mo11 O26 1_555 1_555
Mo11 O31 1_555 1_555
Mo11 O37 1_555 1_555
Mo12 O15 1_555 1_555
Mo12 O35 1_555 1_555
Mo12 O36 1_555 1_555
Mo12 O39 1_555 1_555
O37 Cu4 1_555 1_555
O38 Cu4 1_555 1_555
C5 C17 1_555 1_555
C6 C18 1_555 1_555
C9 C22 1_555 1_555
C13 C16 1_555 1_555
C15 C21 1_555 1_555
C20 C28 1_555 1_555
C20 C31 1_555 1_555
C23 C27 1_555 1_555
C24 C26 1_555 1_555
C30 C34 1_555 1_555
C31 C33 1_555 1_555
C35 C36 1_555 1_555
C35 C37 1_555 1_555
C39 C40 1_555 1_555

#END
