
#######################################################################
#
#                 Cambridge Crystallographic Data Centre
#                                CCDC 
#
#######################################################################
#
# If this CIF has been generated from an entry in the Cambridge 
# Structural Database, then it will include bibliographic, chemical, 
# crystal, experimental, refinement or atomic coordinate data resulting 
# from the CCDC's data processing and validation procedures.
#
#######################################################################

data_XETTEV
_symmetry_cell_setting           monoclinic
_symmetry_space_group_name_H-M   'C 2/m'
_symmetry_Int_Tables_number      12
_space_group_name_Hall           '-C 2y'
loop_
_symmetry_equiv_pos_site_id
_symmetry_equiv_pos_as_xyz
1 x,y,z
2 1/2+x,1/2+y,z
3 x,-y,z
4 1/2+x,1/2-y,z
5 -x,-y,-z
6 1/2-x,1/2-y,-z
7 -x,y,-z
8 1/2-x,1/2+y,-z
_cell_length_a                   19.0508(9)
_cell_length_b                   14.7910(4)
_cell_length_c                   12.6842(7)
_cell_angle_alpha                90
_cell_angle_beta                 114.377(2)
_cell_angle_gamma                90
_cell_volume                     3255.52
loop_
_atom_site_label
_atom_site_type_symbol
_atom_site_fract_x
_atom_site_fract_y
_atom_site_fract_z
H3 H -0.3430 -0.5000 0.0943
B1 B -0.4075(3) -0.5000 0.0571(5)
B3 B -0.4621(3) -0.4423(3) -0.0652(4)
H4 H -0.4342 -0.4014 -0.1118
B4 B -0.4556(3) -0.5978(3) 0.0642(3)
H6 H -0.4252 -0.6615 0.1066
H7 H -0.4327 -0.5000 0.2413
C18 C -0.4586(4) -0.5000 0.1444(5)
B3B B -0.4621(3) -0.5577(3) -0.0652(4)
H4B H -0.4342 -0.5986 -0.1118
B4F B -0.5444(3) -0.5978(3) -0.0642(3)
B1D B -0.5925(3) -0.5000 -0.0571(5)
H3D H -0.6570 -0.5000 -0.0943
B3F B -0.5379(3) -0.4423(3) 0.0652(4)
B3D B -0.5379(3) -0.5577(3) 0.0652(4)
H4F H -0.5658 -0.4014 0.1118
B4D B -0.5444(3) -0.4022(3) -0.0642(3)
H4D H -0.5658 -0.5986 0.1118
B4B B -0.4556(3) -0.4022(3) 0.0642(3)
H6D H -0.5748 -0.3385 -0.1066
C18D C -0.5414(4) -0.5000 -0.1444(5)
H6F H -0.5748 -0.6615 -0.1066
H7D H -0.5673 -0.5000 -0.2413
H6B H -0.4252 -0.3385 0.1066
N1 N -0.29677(19) -0.5000 -0.1366(3)
O5 O -0.2793(3) -0.3477(3) -0.0824(5)
H23 H -0.2495 -0.4289 0.0022
C16 C -0.3354(4) -0.5000 -0.2599(5)
H26 H -0.3822 -0.4631 -0.2840
C19 C -0.2801(2) -0.4190(3) -0.0807(5)
H26B H -0.3822 -0.5369 -0.2840
C19B C -0.2801(2) -0.5810(3) -0.0807(5)
O5B O -0.2793(3) -0.6523(3) -0.0824(5)
H23B H -0.2495 -0.5711 0.0022
Rb1 Rb -0.5000 0.13024(5) -0.5000
C1 C -0.2248(3) 0.5000 -0.5157(4)
H1 H -0.2500 0.5000 -0.6013
H2 H -0.1684 0.5000 -0.4918
O1 O -0.42687(11) 0.28166(13) -0.53975(17)
C2 C -0.24791(17) 0.41529(17) -0.4701(2)
O2 O -0.33490(11) 0.19367(12) -0.35798(16)
C3 C -0.32439(17) 0.38583(17) -0.5277(2)
H5 H -0.3578 0.5833 -0.5956
O3 O -0.91121(11) 0.41255(12) -1.10246(17)
C4 C -0.35231(16) 0.31337(17) -0.4885(2)
O4 O -0.55074(18) 1.0000 -0.6734(3)
C5 C -0.30262(16) 0.26566(17) -0.3899(2)
C6 C -0.22691(16) 0.29319(17) -0.3347(2)
H8 H -0.1929 0.2602 -0.2692
C7 C -0.19856(16) 0.36853(17) -0.3723(2)
C8 C -0.11516(16) 0.39570(18) -0.3011(3)
H9 H -0.0959 0.4301 -0.3507
H10 H -0.0833 0.3405 -0.2743
C9 C -0.10614(14) 0.45293(17) -0.1969(2)
C10 C -0.90046(15) 0.40718(17) -0.9040(2)
H11 H -0.9013 0.3430 -0.9046
C11 C -0.90572(14) 0.45241(18) -1.0017(2)
C12 C -0.51911(19) 0.3356(2) -0.3690(3)
H12 H -0.5345 0.3381 -0.3043
H13 H -0.4676 0.3088 -0.3427
H14 H -0.5182 0.3970 -0.3977
C13 C -0.71433(18) 0.14623(19) -0.7451(2)
H15 H -0.7304 0.1874 -0.8115
H16 H -0.6862 0.0950 -0.7581
H17 H -0.7599 0.1240 -0.7358
C14 C -0.91171(18) 0.31578(18) -1.1058(3)
H18 H -0.9539 0.2930 -1.0879
H19 H -0.9191 0.2954 -1.1832
H20 H -0.8625 0.2927 -1.0485
Rb1B Rb -0.5000 -0.13024(5) -0.5000
C2B C -0.24791(17) 0.58471(17) -0.4701(2)
C3B C -0.32439(17) 0.61417(17) -0.5277(2)
C4B C -0.35231(16) 0.68663(17) -0.4885(2)
O1B O -0.42687(11) 0.71834(13) -0.53975(17)
Rb1B_2 Rb -0.5000 0.86976(5) -0.5000
Rb1_2 Rb -0.5000 1.13024(5) -0.5000
O1D O -0.57313(11) 0.71834(13) -0.46025(17)
C4D C -0.64769(16) 0.68663(17) -0.5115(2)
C3D C -0.67561(17) 0.61417(17) -0.4723(2)
C2D C -0.75209(17) 0.58471(17) -0.5299(2)
C1D C -0.7752(3) 0.5000 -0.4843(4)
H1D H -0.7500 0.5000 -0.3987
H2D H -0.8316 0.5000 -0.5082
C2F C -0.75209(17) 0.41529(17) -0.5299(2)
C3F C -0.67561(17) 0.38583(17) -0.4723(2)
H5D H -0.6422 0.4167 -0.4044
C4F C -0.64769(16) 0.31337(17) -0.5115(2)
O1F O -0.57313(11) 0.28166(13) -0.46025(17)
C9B C -0.10614(14) 0.54707(17) -0.1969(2)
C8B C -0.11516(16) 0.60430(18) -0.3011(3)
C7B C -0.19856(16) 0.63147(17) -0.3723(2)
C6B C -0.22691(16) 0.70681(17) -0.3347(2)
C5B C -0.30262(16) 0.73434(17) -0.3899(2)
O2B O -0.33490(11) 0.80633(12) -0.35798(16)
O2D O -0.66510(11) 0.80633(12) -0.64202(16)
C5D C -0.69738(16) 0.73434(17) -0.6101(2)
C6D C -0.77309(16) 0.70681(17) -0.6653(2)
H8D H -0.8071 0.7398 -0.7308
C7D C -0.80144(16) 0.63147(17) -0.6277(2)
C8D C -0.88484(16) 0.60430(18) -0.6989(3)
H9D H -0.9041 0.5699 -0.6493
H10D H -0.9167 0.6595 -0.7257
C9D C -0.89386(14) 0.54707(17) -0.8031(2)
C9F C -0.89386(14) 0.45293(17) -0.8031(2)
C8F C -0.88484(16) 0.39570(18) -0.6989(3)
C7F C -0.80144(16) 0.36853(17) -0.6277(2)
C6F C -0.77309(16) 0.29319(17) -0.6653(2)
C5F C -0.69738(16) 0.26566(17) -0.6101(2)
O2F O -0.66510(11) 0.19367(12) -0.64202(16)
O4D O -0.44926(18) 0.0000 -0.3266(3)
H8F H -0.8071 0.2602 -0.7308
H9F H -0.9041 0.4301 -0.6493
H10F H -0.9167 0.3405 -0.7257
C11B C -0.90572(14) 0.54759(18) -1.0017(2)
O3B O -0.91121(11) 0.58745(12) -1.10246(17)
C14B C -0.91171(18) 0.68422(18) -1.1058(3)
H18B H -0.9539 0.7070 -1.0879
H19B H -0.9191 0.7046 -1.1832
H20B H -0.8625 0.7073 -1.0485
C10B C -0.90046(15) 0.59282(17) -0.9040(2)
H11B H -0.9013 0.6570 -0.9046
C13B C -0.71433(18) 0.85377(19) -0.7451(2)
H15B H -0.7304 0.8126 -0.8115
H16B H -0.6862 0.9050 -0.7581
H17B H -0.7599 0.8760 -0.7358
O4_2 O -0.55074(18) 0.0000 -0.6734(3)
O4D_2 O -0.44926(18) 1.0000 -0.3266(3)
C13D C -0.28567(18) 0.85377(19) -0.2549(2)
H15D H -0.2696 0.8126 -0.1885
H16D H -0.3138 0.9050 -0.2419
H17D H -0.2401 0.8760 -0.2642
H8B H -0.1929 0.7398 -0.2692
H9B H -0.0959 0.5699 -0.3507
H10B H -0.0833 0.6595 -0.2743
C10D C -0.09954(15) 0.59282(17) -0.0960(2)
H11D H -0.0987 0.6570 -0.0954
C11D C -0.09428(14) 0.54759(18) 0.0017(2)
O3D O -0.08879(11) 0.58745(12) 0.10246(17)
C14D C -0.08829(18) 0.68422(18) 0.1058(3)
H18D H -0.0461 0.7070 0.0879
H19D H -0.0809 0.7046 0.1832
H20D H -0.1375 0.7073 0.0485
C11F C -0.09428(14) 0.45241(18) 0.0017(2)
O3F O -0.08879(11) 0.41255(12) 0.10246(17)
C14F C -0.08829(18) 0.31578(18) 0.1058(3)
H18F H -0.0461 0.2930 0.0879
H19F H -0.0809 0.2954 0.1832
H20F H -0.1375 0.2927 0.0485
C10F C -0.09954(15) 0.40718(17) -0.0960(2)
H11F H -0.0987 0.3430 -0.0954
C13F C -0.28567(18) 0.14623(19) -0.2549(2)
H15F H -0.2696 0.1874 -0.1885
H16F H -0.3138 0.0950 -0.2419
H17F H -0.2401 0.1240 -0.2642
H5F H -0.6422 0.5833 -0.4044
C12B C -0.51911(19) 0.6644(2) -0.3690(3)
H12B H -0.5345 0.6619 -0.3043
H13B H -0.4676 0.6912 -0.3427
H14B H -0.5182 0.6030 -0.3977
C12D C -0.48089(19) 0.6644(2) -0.6310(3)
H12D H -0.4655 0.6619 -0.6957
H13D H -0.5324 0.6912 -0.6573
H14D H -0.4818 0.6030 -0.6023
H5B H -0.3578 0.4167 -0.5956
C12F C -0.48089(19) 0.3356(2) -0.6310(3)
H12F H -0.4655 0.3381 -0.6957
H13F H -0.5324 0.3088 -0.6573
H14F H -0.4818 0.3970 -0.6023
B2? B 0.4586(4) 0.5000 0.8556(5)
C15? C 0.7199(2) 0.5810(3) 0.9193(5)
H21? H 0.6718 0.6120 0.9080
H22? H 0.7493 0.6184 0.8879
H24? H 0.6507 0.4379 0.7124
H25? H 0.6987 0.5252 0.7072
C17? C 0.5925(3) 0.5000 1.0571(5)
H27? H 0.7413 0.5659 0.9992
loop_
_geom_bond_atom_site_label_1
_geom_bond_atom_site_label_2
_geom_bond_site_symmetry_1
_geom_bond_site_symmetry_2
Rb1 O1 1_555 1_555
C1 H1 1_555 1_555
H2 C1 1_555 1_555
H3 B1 1_555 1_555
O1 C4 1_555 1_555
C2 C1 1_555 1_555
B1 B3 1_555 1_555
B3 H4 1_555 1_555
O2 Rb1 1_555 1_555
C3 C2 1_555 1_555
H5 C3B 1_555 1_555
B4 B1 1_555 1_555
H6 B4 1_555 1_555
O3 C11 1_555 1_555
C4 C3 1_555 1_555
H7 C18 1_555 1_555
O4 Rb1B_2 1_555 1_555
N1 C16 1_555 1_555
C5 O2 1_555 1_555
O5 C19 1_555 1_555
C6 C5 1_555 1_555
H8 C6 1_555 1_555
C7 C2 1_555 1_555
C8 C7 1_555 1_555
H9 C8 1_555 1_555
H10 C8 1_555 1_555
C9 C8 1_555 1_555
C10 H11 1_555 1_555
C11 C10 1_555 1_555
C12 H12 1_555 1_555
H13 C12 1_555 1_555
H14 C12 1_555 1_555
C13 H15 1_555 1_555
H16 C13 1_555 1_555
H17 C13 1_555 1_555
C14 O3 1_555 1_555
H18 C14 1_555 1_555
H19 C14 1_555 1_555
H20 C14 1_555 1_555
H23 C19 1_555 1_555
C16 H26 1_555 1_555
C18 B1 1_555 1_555
C19 N1 1_555 1_555
Rb1B O4D 1_555 1_555
C2B C1 1_555 1_555
C3B C2B 1_555 1_555
C4B C3B 1_555 1_555
O1B C4B 1_555 1_555
Rb1B_2 O1B 1_555 1_555
Rb1_2 O4 1_555 1_555
O1D Rb1B_2 1_555 1_555
C4D O1D 1_555 1_555
C3D C4D 1_555 1_555
C2D C3D 1_555 1_555
C1D C2D 1_555 1_555
H1D C1D 1_555 1_555
H2D C1D 1_555 1_555
C2F C1D 1_555 1_555
C3F C2F 1_555 1_555
H5D C3F 1_555 1_555
C4F C3F 1_555 1_555
O1F Rb1 1_555 1_555
C9B C9 1_555 1_555
C8B C9B 1_555 1_555
C7B C2B 1_555 1_555
C6B C7B 1_555 1_555
C5B C4B 1_555 1_555
O2B Rb1B_2 1_555 1_555
O2D Rb1B_2 1_555 1_555
C5D C4D 1_555 1_555
C6D C5D 1_555 1_555
H8D C6D 1_555 1_555
C7D C2D 1_555 1_555
C8D C7D 1_555 1_555
H9D C8D 1_555 1_555
H10D C8D 1_555 1_555
C9D C8D 1_555 1_555
C9F C10 1_555 1_555
C8F C9F 1_555 1_555
C7F C2F 1_555 1_555
C6F C7F 1_555 1_555
C5F C4F 1_555 1_555
O2F Rb1 1_555 1_555
O4D Rb1 1_555 1_555
H8F C6F 1_555 1_555
H9F C8F 1_555 1_555
H10F C8F 1_555 1_555
C11B C11 1_555 1_555
O3B C11B 1_555 1_555
C14B O3B 1_555 1_555
H18B C14B 1_555 1_555
H19B C14B 1_555 1_555
H20B C14B 1_555 1_555
C10B C9D 1_555 1_555
H11B C10B 1_555 1_555
C13B O2D 1_555 1_555
H15B C13B 1_555 1_555
H16B C13B 1_555 1_555
H17B C13B 1_555 1_555
O4_2 Rb1 1_555 1_555
O4D_2 Rb1B_2 1_555 1_555
C13D O2B 1_555 1_555
H15D C13D 1_555 1_555
H16D C13D 1_555 1_555
H17D C13D 1_555 1_555
H8B C6B 1_555 1_555
H9B C8B 1_555 1_555
H10B C8B 1_555 1_555
C10D C9B 1_555 1_555
H11D C10D 1_555 1_555
C11D C10D 1_555 1_555
O3D C11D 1_555 1_555
C14D O3D 1_555 1_555
H18D C14D 1_555 1_555
H19D C14D 1_555 1_555
H20D C14D 1_555 1_555
C11F C11D 1_555 1_555
O3F C11F 1_555 1_555
C14F O3F 1_555 1_555
H18F C14F 1_555 1_555
H19F C14F 1_555 1_555
H20F C14F 1_555 1_555
C10F C9 1_555 1_555
H11F C10F 1_555 1_555
C13F O2 1_555 1_555
H15F C13F 1_555 1_555
H16F C13F 1_555 1_555
H17F C13F 1_555 1_555
H5F C3D 1_555 1_555
C12B O1D 1_555 1_555
H12B C12B 1_555 1_555
H13B C12B 1_555 1_555
H14B C12B 1_555 1_555
C12D O1B 1_555 1_555
H12D C12D 1_555 1_555
H13D C12D 1_555 1_555
H14D C12D 1_555 1_555
H5B C3 1_555 1_555
C12F O1 1_555 1_555
H12F C12F 1_555 1_555
H13F C12F 1_555 1_555
H14F C12F 1_555 1_555
B3B B1 1_555 1_555
H4B B3B 1_555 1_555
B4F B4 1_555 1_555
B1D B4F 1_555 1_555
H3D B1D 1_555 1_555
B3F C18 1_555 1_555
B3D B4 1_555 1_555
H4F B3F 1_555 1_555
B4D B3 1_555 1_555
H4D B3D 1_555 1_555
B4B B1 1_555 1_555
H6D B4D 1_555 1_555
C18D B3 1_555 1_555
H6F B4F 1_555 1_555
H7D C18D 1_555 1_555
H6B B4B 1_555 1_555
H26B C16 1_555 1_555
C19B N1 1_555 1_555
O5B C19B 1_555 1_555
H23B C19B 1_555 1_555
B3 B3B 1_555 1_555
B3 B4B 1_555 1_555
B4 B3B 1_555 1_555
B4 C18 1_555 1_555
C4 C5 1_555 1_555
C6 C7 1_555 1_555
C12 O1F 1_555 1_555
C13 O2F 1_555 1_555
C18 B3D 1_555 1_555
C18 B4B 1_555 1_555
Rb1B O4_2 1_555 1_555
Rb1_2 O4D_2 1_555 1_555
C4F O1F 1_555 1_555
C8B C7B 1_555 1_555
C6B C5B 1_555 1_555
C5B O2B 1_555 1_555
O2D C5D 1_555 1_555
C6D C7D 1_555 1_555
C9D C9F 1_555 1_555
C8F C7F 1_555 1_555
C6F C5F 1_555 1_555
C5F O2F 1_555 1_555
C11B C10B 1_555 1_555
C11F C10F 1_555 1_555
B3B B4F 1_555 1_555
B3B C18D 1_555 1_555
B4F B3D 1_555 1_555
B4F C18D 1_555 1_555
B1D B3F 1_555 1_555
B1D B4D 1_555 1_555
B1D B3D 1_555 1_555
B1D C18D 1_555 1_555
B3F B3D 1_555 1_555
B3F B4D 1_555 1_555
B3F B4B 1_555 1_555
B4D C18D 1_555 1_555
B4D B4B 1_555 1_555

#END
