
#######################################################################
#
#                 Cambridge Crystallographic Data Centre
#                                CCDC 
#
#######################################################################
#
# If this CIF has been generated from an entry in the Cambridge 
# Structural Database, then it will include bibliographic, chemical, 
# crystal, experimental, refinement or atomic coordinate data resulting 
# from the CCDC's data processing and validation procedures.
#
#######################################################################

data_XETTUL
_symmetry_cell_setting           monoclinic
_symmetry_space_group_name_H-M   'C 2/m'
_symmetry_Int_Tables_number      12
_space_group_name_Hall           '-C 2y'
loop_
_symmetry_equiv_pos_site_id
_symmetry_equiv_pos_as_xyz
1 x,y,z
2 1/2+x,1/2+y,z
3 x,-y,z
4 1/2+x,1/2-y,z
5 -x,-y,-z
6 1/2-x,1/2-y,-z
7 -x,y,-z
8 1/2-x,1/2+y,-z
_cell_length_a                   19.4855(4)
_cell_length_b                   14.6764(3)
_cell_length_c                   12.7126(2)
_cell_angle_alpha                90
_cell_angle_beta                 115.6030(10)
_cell_angle_gamma                90
_cell_volume                     3278.54
loop_
_atom_site_label
_atom_site_type_symbol
_atom_site_fract_x
_atom_site_fract_y
_atom_site_fract_z
N1 N 0.2065(2) 0.0000 0.3631(3)
O5 O 0.2141(4) 0.1483(5) 0.4167(8)
C15 C 0.2255(3) 0.0835(6) 0.4184(7)
H21 H 0.2518 0.0743 0.5029
C16 C 0.1665(4) 0.0000 0.2394(5)
C15B C 0.2255(3) -0.0835(6) 0.4184(7)
O5B O 0.2141(4) -0.1483(5) 0.4167(8)
H21B H 0.2518 -0.0743 0.5029
H3 H 0.4335 0.5000 0.2562
B2 B 0.4037(3) 0.5000 0.4320(4)
H4 H 0.3400 0.5000 0.3877
B3 B 0.45800(18) 0.4019(2) 0.4333(3)
H6 H 0.4304 0.3369 0.3890
B4 B 0.54405(19) 0.5592(2) 0.4374(3)
H7 H 0.5741 0.5990 0.3946
C19 C 0.4600(3) 0.5000 0.3539(4)
B3F B 0.54200(18) 0.4019(2) 0.5667(3)
B2F B 0.5963(3) 0.5000 0.5680(4)
H4F H 0.6600 0.5000 0.6123
B3D B 0.54200(18) 0.5981(2) 0.5667(3)
B3B B 0.45800(18) 0.5981(2) 0.4333(3)
B4D B 0.45595(19) 0.4408(2) 0.5626(3)
H6F H 0.5696 0.3369 0.6110
B4B B 0.54405(19) 0.4408(2) 0.4374(3)
H6B H 0.4304 0.6631 0.3890
B4F B 0.45595(19) 0.5592(2) 0.5626(3)
H6D H 0.5696 0.6631 0.6110
H7F H 0.4259 0.5990 0.6054
C19F C 0.5400(3) 0.5000 0.6461(4)
H3F H 0.5665 0.5000 0.7438
H7D H 0.4259 0.4010 0.6054
H7B H 0.5741 0.4010 0.3946
O1 O 0.06997(12) 0.21821(13) -0.04094(18)
C1 C 0.2676(3) 0.0000 -0.0205(4)
H1 H 0.2407 0.0000 -0.1068
H2 H 0.3230 0.0000 0.0019
O2 O 0.16249(13) 0.30755(14) 0.14171(18)
C2 C 0.24659(16) 0.08535(18) 0.0267(2)
O3 O 0.41583(12) 0.08774(13) 0.60473(18)
C3 C 0.17052(17) 0.11452(18) -0.0306(2)
H5 H 0.1366 0.0833 -0.0988
O4 O 0.0398(2) -0.5000 0.1636(3)
C4 C 0.14404(16) 0.18710(18) 0.0096(2)
C5 C 0.19419(17) 0.23530(18) 0.1090(2)
C6 C 0.26932(17) 0.20799(18) 0.1640(2)
H8 H 0.3036 0.2412 0.2299
C7 C 0.29674(16) 0.13251(18) 0.1254(2)
C8 C 0.01591(19) 0.1634(2) -0.1311(3)
H9 H -0.0344 0.1920 -0.1602
H10 H 0.0139 0.1028 -0.1000
H11 H 0.0310 0.1576 -0.1949
C9 C 0.2116(2) 0.3544(2) 0.2453(3)
H12 H 0.1836 0.4039 0.2609
H13 H 0.2550 0.3796 0.2352
H14 H 0.2301 0.3118 0.3112
C10 C 0.37932(17) 0.1054(2) 0.1954(3)
H15 H 0.4108 0.1612 0.2216
H16 H 0.3967 0.0708 0.1445
C11 C 0.39121(15) 0.04756(19) 0.3014(3)
C12 C 0.40061(15) 0.09365(19) 0.4036(2)
H17 H 0.4018 0.1584 0.4045
C13 C 0.40816(14) 0.04779(18) 0.5024(2)
C14 C 0.4157(2) 0.1852(2) 0.6069(3)
H18 H 0.4212 0.2062 0.6833
H19 H 0.3675 0.2079 0.5461
H20 H 0.4581 0.2083 0.5927
K1 K 0.0000 0.36643(9) 0.0000
C2B C 0.24659(16) -0.08535(18) 0.0267(2)
C3B C 0.17052(17) -0.11452(18) -0.0306(2)
H5B H 0.1366 -0.0833 -0.0988
C4B C 0.14404(16) -0.18710(18) 0.0096(2)
O1B O 0.06997(12) -0.21821(13) -0.04094(18)
C8B C 0.01591(19) -0.1634(2) -0.1311(3)
H9B H -0.0344 -0.1920 -0.1602
H10B H 0.0139 -0.1028 -0.1000
H11B H 0.0310 -0.1576 -0.1949
C5B C 0.19419(17) -0.23530(18) 0.1090(2)
O2B O 0.16249(13) -0.30755(14) 0.14171(18)
C9B C 0.2116(2) -0.3544(2) 0.2453(3)
H12B H 0.1836 -0.4039 0.2609
H13B H 0.2550 -0.3796 0.2352
H14B H 0.2301 -0.3118 0.3112
C6B C 0.26932(17) -0.20799(18) 0.1640(2)
H8B H 0.3036 -0.2412 0.2299
C7B C 0.29674(16) -0.13251(18) 0.1254(2)
C10B C 0.37932(17) -0.1054(2) 0.1954(3)
H15B H 0.4108 -0.1612 0.2216
H16B H 0.3967 -0.0708 0.1445
C11B C 0.39121(15) -0.04756(19) 0.3014(3)
C13B C 0.40816(14) -0.04779(18) 0.5024(2)
O3B O 0.41583(12) -0.08774(13) 0.60473(18)
C14B C 0.4157(2) -0.1852(2) 0.6069(3)
H18B H 0.4212 -0.2062 0.6833
H19B H 0.3675 -0.2079 0.5461
H20B H 0.4581 -0.2083 0.5927
C12B C 0.40061(15) -0.09365(19) 0.4036(2)
H17B H 0.4018 -0.1584 0.4045
O1F O -0.06997(12) 0.21821(13) 0.04094(18)
C1F C -0.2676(3) 0.0000 0.0205(4)
H1F H -0.2407 0.0000 0.1068
H2F H -0.3230 0.0000 -0.0019
O2F O -0.16249(13) 0.30755(14) -0.14171(18)
C2F C -0.24659(16) 0.08535(18) -0.0267(2)
O3F O -0.41583(12) 0.08774(13) -0.60473(18)
C3F C -0.17052(17) 0.11452(18) 0.0306(2)
H5F H -0.1366 0.0833 0.0988
C4F C -0.14404(16) 0.18710(18) -0.0096(2)
C5F C -0.19419(17) 0.23530(18) -0.1090(2)
C6F C -0.26932(17) 0.20799(18) -0.1640(2)
H8F H -0.3036 0.2412 -0.2299
C7F C -0.29674(16) 0.13251(18) -0.1254(2)
C8F C -0.01591(19) 0.1634(2) 0.1311(3)
H9F H 0.0344 0.1920 0.1602
H10F H -0.0139 0.1028 0.1000
H11F H -0.0310 0.1576 0.1949
C9F C -0.2116(2) 0.3544(2) -0.2453(3)
H12F H -0.1836 0.4039 -0.2609
H13F H -0.2550 0.3796 -0.2352
H14F H -0.2301 0.3118 -0.3112
C10F C -0.37932(17) 0.1054(2) -0.1954(3)
H15F H -0.4108 0.1612 -0.2216
H16F H -0.3967 0.0708 -0.1445
C11F C -0.39121(15) 0.04756(19) -0.3014(3)
C12F C -0.40061(15) 0.09365(19) -0.4036(2)
H17F H -0.4018 0.1584 -0.4045
C13F C -0.40816(14) 0.04779(18) -0.5024(2)
C14F C -0.4157(2) 0.1852(2) -0.6069(3)
H18F H -0.4212 0.2062 -0.6833
H19F H -0.3675 0.2079 -0.5461
H20F H -0.4581 0.2083 -0.5927
C2D C -0.24659(16) -0.08535(18) -0.0267(2)
C3D C -0.17052(17) -0.11452(18) 0.0306(2)
H5D H -0.1366 -0.0833 0.0988
C4D C -0.14404(16) -0.18710(18) -0.0096(2)
O1D O -0.06997(12) -0.21821(13) 0.04094(18)
C8D C -0.01591(19) -0.1634(2) 0.1311(3)
H9D H 0.0344 -0.1920 0.1602
H10D H -0.0139 -0.1028 0.1000
H11D H -0.0310 -0.1576 0.1949
C5D C -0.19419(17) -0.23530(18) -0.1090(2)
O2D O -0.16249(13) -0.30755(14) -0.14171(18)
C9D C -0.2116(2) -0.3544(2) -0.2453(3)
H12D H -0.1836 -0.4039 -0.2609
H13D H -0.2550 -0.3796 -0.2352
H14D H -0.2301 -0.3118 -0.3112
C6D C -0.26932(17) -0.20799(18) -0.1640(2)
H8D H -0.3036 -0.2412 -0.2299
C7D C -0.29674(16) -0.13251(18) -0.1254(2)
C10D C -0.37932(17) -0.1054(2) -0.1954(3)
H15D H -0.4108 -0.1612 -0.2216
H16D H -0.3967 -0.0708 -0.1445
C11D C -0.39121(15) -0.04756(19) -0.3014(3)
C13D C -0.40816(14) -0.04779(18) -0.5024(2)
O3D O -0.41583(12) -0.08774(13) -0.60473(18)
C14D C -0.4157(2) -0.1852(2) -0.6069(3)
H18D H -0.4212 -0.2062 -0.6833
H19D H -0.3675 -0.2079 -0.5461
H20D H -0.4581 -0.2083 -0.5927
C12D C -0.40061(15) -0.09365(19) -0.4036(2)
H17D H -0.4018 -0.1584 -0.4045
O4D O -0.0398(2) 0.5000 -0.1636(3)
K1B K 0.0000 -0.36643(9) 0.0000
K1B_2 K 0.0000 0.63357(9) 0.0000
O4_2 O 0.0398(2) 0.5000 0.1636(3)
O4D_2 O -0.0398(2) -0.5000 -0.1636(3)
K1_2 K 0.0000 -0.63357(9) 0.0000
B1? B 0.4600(3) 0.5000 0.3539(4)
H22? H 0.1791 0.1192 0.3995
H23? H 0.2589 0.1164 0.3920
H24? H 0.1569 0.0630 0.2111
H25? H 0.1178 -0.0318 0.2160
H26? H 0.1970 -0.0311 0.2060
C17? C 0.45800(18) 0.4019(2) 0.4333(3)
C18? C 0.45595(19) 0.4408(2) 0.5626(3)
C20? C 0.4037(3) 0.5000 0.4320(4)
C21? C 0.2255(3) 0.0835(6) 0.4184(7)
H27? H 0.2690 0.0732 0.4899
loop_
_geom_bond_atom_site_label_1
_geom_bond_atom_site_label_2
_geom_bond_site_symmetry_1
_geom_bond_site_symmetry_2
O1 C4 1_555 1_555
N1 C15 1_555 1_555
C1 H1 1_555 1_555
H2 C1 1_555 1_555
H3 C19 1_555 1_555
O2 C5 1_555 1_555
C2 C1 1_555 1_555
B2 H4 1_555 1_555
O3 C13 1_555 1_555
C3 C2 1_555 1_555
H5 C3 1_555 1_555
B3 B2 1_555 1_555
H6 B3 1_555 1_555
O4 K1B 1_555 1_555
C4 C3 1_555 1_555
B4 H7 1_555 1_555
O5 C15 1_555 1_555
C5 C4 1_555 1_555
C6 C5 1_555 1_555
H8 C6 1_555 1_555
C7 C2 1_555 1_555
C8 O1 1_555 1_555
H9 C8 1_555 1_555
H10 C8 1_555 1_555
H11 C8 1_555 1_555
C9 O2 1_555 1_555
H12 C9 1_555 1_555
H13 C9 1_555 1_555
H14 C9 1_555 1_555
C10 C7 1_555 1_555
H15 C10 1_555 1_555
H16 C10 1_555 1_555
C11 C10 1_555 1_555
C12 C11 1_555 1_555
H17 C12 1_555 1_555
C13 C12 1_555 1_555
C14 O3 1_555 1_555
H18 C14 1_555 1_555
H19 C14 1_555 1_555
H20 C14 1_555 1_555
C15 H21 1_555 1_555
C16 N1 1_555 1_555
K1 O1 1_555 1_555
C19 B2 1_555 1_555
C2B C1 1_555 1_555
C3B C2B 1_555 1_555
H5B C3B 1_555 1_555
C4B C3B 1_555 1_555
O1B C4B 1_555 1_555
C8B O1B 1_555 1_555
H9B C8B 1_555 1_555
H10B C8B 1_555 1_555
H11B C8B 1_555 1_555
C5B C4B 1_555 1_555
O2B C5B 1_555 1_555
C9B O2B 1_555 1_555
H12B C9B 1_555 1_555
H13B C9B 1_555 1_555
H14B C9B 1_555 1_555
C6B C5B 1_555 1_555
H8B C6B 1_555 1_555
C7B C2B 1_555 1_555
C10B C7B 1_555 1_555
H15B C10B 1_555 1_555
H16B C10B 1_555 1_555
C11B C11 1_555 1_555
C13B C13 1_555 1_555
O3B C13B 1_555 1_555
C14B O3B 1_555 1_555
H18B C14B 1_555 1_555
H19B C14B 1_555 1_555
H20B C14B 1_555 1_555
C12B C11B 1_555 1_555
H17B C12B 1_555 1_555
C15B N1 1_555 1_555
O5B C15B 1_555 1_555
H21B C15B 1_555 1_555
B3F B3 1_555 1_555
B2F B4 1_555 1_555
H4F B2F 1_555 1_555
B3D B4 1_555 1_555
B3B B2 1_555 1_555
B4D B2 1_555 1_555
H6F B3F 1_555 1_555
B4B B3 1_555 1_555
H6B B3B 1_555 1_555
B4F B2 1_555 1_555
H6D B3D 1_555 1_555
H7F B4F 1_555 1_555
C19F B3F 1_555 1_555
H3F C19F 1_555 1_555
H7D B4D 1_555 1_555
H7B B4B 1_555 1_555
O1F K1 1_555 1_555
C1F H1F 1_555 1_555
H2F C1F 1_555 1_555
O2F K1 1_555 1_555
C2F C1F 1_555 1_555
O3F C13F 1_555 1_555
C3F C2F 1_555 1_555
H5F C3F 1_555 1_555
C4F O1F 1_555 1_555
C5F O2F 1_555 1_555
C6F C5F 1_555 1_555
H8F C6F 1_555 1_555
C7F C2F 1_555 1_555
C8F O1F 1_555 1_555
H9F C8F 1_555 1_555
H10F C8F 1_555 1_555
H11F C8F 1_555 1_555
C9F O2F 1_555 1_555
H12F C9F 1_555 1_555
H13F C9F 1_555 1_555
H14F C9F 1_555 1_555
C10F C7F 1_555 1_555
H15F C10F 1_555 1_555
H16F C10F 1_555 1_555
C11F C10F 1_555 1_555
C12F C11F 1_555 1_555
H17F C12F 1_555 1_555
C13F C12F 1_555 1_555
C14F O3F 1_555 1_555
H18F C14F 1_555 1_555
H19F C14F 1_555 1_555
H20F C14F 1_555 1_555
C2D C1F 1_555 1_555
C3D C2D 1_555 1_555
H5D C3D 1_555 1_555
C4D C3D 1_555 1_555
O1D C4D 1_555 1_555
C8D O1D 1_555 1_555
H9D C8D 1_555 1_555
H10D C8D 1_555 1_555
H11D C8D 1_555 1_555
C5D C4D 1_555 1_555
O2D C5D 1_555 1_555
C9D O2D 1_555 1_555
H12D C9D 1_555 1_555
H13D C9D 1_555 1_555
H14D C9D 1_555 1_555
C6D C5D 1_555 1_555
H8D C6D 1_555 1_555
C7D C2D 1_555 1_555
C10D C7D 1_555 1_555
H15D C10D 1_555 1_555
H16D C10D 1_555 1_555
C11D C11F 1_555 1_555
C13D C13F 1_555 1_555
O3D C13D 1_555 1_555
C14D O3D 1_555 1_555
H18D C14D 1_555 1_555
H19D C14D 1_555 1_555
H20D C14D 1_555 1_555
C12D C11D 1_555 1_555
H17D C12D 1_555 1_555
O4D K1 1_555 1_555
K1B O1B 1_555 1_555
K1B_2 O4D 1_555 1_555
O4_2 K1 1_555 1_555
O4D_2 K1B 1_555 1_555
K1_2 O4 1_555 1_555
O2 K1 1_555 1_555
B3 C19 1_555 1_555
B3 B4D 1_555 1_555
B4 B3B 1_555 1_555
B4 B4B 1_555 1_555
B4 C19 1_555 1_555
C6 C7 1_555 1_555
C19 B3B 1_555 1_555
C19 B4B 1_555 1_555
O2B K1B 1_555 1_555
C6B C7B 1_555 1_555
C10B C11B 1_555 1_555
C13B C12B 1_555 1_555
B3F B2F 1_555 1_555
B3F B4B 1_555 1_555
B3F B4D 1_555 1_555
B2F B3D 1_555 1_555
B2F B4B 1_555 1_555
B2F C19F 1_555 1_555
B3D B3B 1_555 1_555
B3D B4F 1_555 1_555
B3D C19F 1_555 1_555
B3B B4F 1_555 1_555
B4D B4F 1_555 1_555
B4D C19F 1_555 1_555
B4F C19F 1_555 1_555
C3F C4F 1_555 1_555
C4F C5F 1_555 1_555
C6F C7F 1_555 1_555
O1D K1B 1_555 1_555
O2D K1B 1_555 1_555
C6D C7D 1_555 1_555
C10D C11D 1_555 1_555
C13D C12D 1_555 1_555
K1B_2 O4_2 1_555 1_555
O4D_2 K1_2 1_555 1_555

#END
