
#######################################################################
#
#                 Cambridge Crystallographic Data Centre
#                                CCDC 
#
#######################################################################
#
# If this CIF has been generated from an entry in the Cambridge 
# Structural Database, then it will include bibliographic, chemical, 
# crystal, experimental, refinement or atomic coordinate data resulting 
# from the CCDC's data processing and validation procedures.
#
#######################################################################

data_XETTOF
_symmetry_cell_setting           monoclinic
_symmetry_space_group_name_H-M   'C 2/m'
_symmetry_Int_Tables_number      12
_space_group_name_Hall           '-C 2y'
loop_
_symmetry_equiv_pos_site_id
_symmetry_equiv_pos_as_xyz
1 x,y,z
2 1/2+x,1/2+y,z
3 x,-y,z
4 1/2+x,1/2-y,z
5 -x,-y,-z
6 1/2-x,1/2-y,-z
7 -x,y,-z
8 1/2-x,1/2+y,-z
_cell_length_a                   19.2935(6)
_cell_length_b                   14.6661(6)
_cell_length_c                   12.7922(5)
_cell_angle_alpha                90
_cell_angle_beta                 114.731(2)
_cell_angle_gamma                90
_cell_volume                     3287.7
loop_
_atom_site_label
_atom_site_type_symbol
_atom_site_fract_x
_atom_site_fract_y
_atom_site_fract_z
N1 N 0.29547(16) 0.5000 0.1414(2)
O5 O 0.2866(3) 0.3491(3) 0.0905(5)
C15 C 0.27612(18) 0.4184(3) 0.0848(4)
H21 H 0.2488 0.4293 0.0019
C16 C 0.3369(3) 0.5000 0.2639(4)
H25 H 0.3467 0.4370 0.2918
H26 H 0.3068 0.5311 0.2988
C15B C 0.27612(18) 0.5816(3) 0.0848(4)
O5B O 0.2866(3) 0.6509(3) 0.0905(5)
H21B H 0.2488 0.5707 0.0019
H25B H 0.3467 0.5630 0.2918
H26B H 0.3068 0.4689 0.2988
B1 B 0.03908(14) 0.05910(18) -0.0707(2)
H3 H 0.0657 0.0989 -0.1191
B2 B 0.0963(2) 0.0000 0.0551(3)
H4 H 0.1602 0.0000 0.0910
B3 B -0.0470(2) 0.0000 -0.1447(3)
H6 H -0.0778 0.0000 -0.2409
B4 B 0.04439(16) 0.09827(18) 0.0620(2)
H7 H 0.0736 0.1633 0.1028
C17 C 0.03908(14) -0.05910(18) -0.0707(2)
H3B H 0.0657 -0.0989 -0.1191
B4B B 0.04439(16) -0.09827(18) 0.0620(2)
B1D B -0.03908(14) -0.05910(18) 0.0707(2)
B1F B -0.03908(14) 0.05910(18) 0.0707(2)
H3F H -0.0657 0.0989 0.1191
B2F B -0.0963(2) 0.0000 -0.0551(3)
H3D H -0.0657 -0.0989 0.1191
B3D B 0.0470(2) 0.0000 0.1447(3)
B4F B -0.04439(16) 0.09827(18) -0.0620(2)
H6D H 0.0778 0.0000 0.2409
H4F H -0.1602 0.0000 -0.0910
B4D B -0.04439(16) -0.09827(18) -0.0620(2)
H7B H 0.0736 -0.1633 0.1028
H7D H -0.0736 -0.1633 -0.1028
H7F H -0.0736 0.1633 -0.1028
Rb1 Rb 0.0000 0.36963(4) 0.5000
O1 O 0.07613(9) 0.21770(11) 0.46410(14)
C1 C 0.2768(2) 0.0000 0.4878(3)
H1 H 0.3327 0.0000 0.5116
H2 H 0.2516 0.0000 0.4026
O2 O 0.16693(9) 0.30673(10) 0.64547(13)
C2 C 0.25410(13) 0.08521(15) 0.53316(18)
O3 O 0.41280(9) 0.08807(10) 1.10272(13)
C3 C 0.17856(14) 0.11444(15) 0.47624(19)
H5 H 0.1455 0.0834 0.4085
O4 O 0.04922(15) -0.5000 0.6737(2)
C4 C 0.15041(13) 0.18681(15) 0.51512(19)
C5 C 0.19925(13) 0.23437(15) 0.61328(19)
C6 C 0.27440(13) 0.20749(15) 0.66856(19)
H8 H 0.3079 0.2408 0.7339
C7 C 0.30288(13) 0.13232(15) 0.63114(19)
C8 C 0.38554(13) 0.10519(16) 0.7020(2)
H9 H 0.4044 0.0705 0.6528
H10 H 0.4170 0.1610 0.7285
C9 C 0.39515(11) 0.04761(15) 0.8058(2)
C10 C 0.40209(12) 0.09362(15) 0.9058(2)
H11 H 0.4030 0.1584 0.9065
C11 C 0.40764(12) 0.04798(15) 1.00312(19)
C12 C 0.02366(15) 0.16444(19) 0.3713(2)
H12 H 0.0385 0.1659 0.3067
H13 H -0.0279 0.1895 0.3465
H14 H 0.0244 0.1013 0.3968
C13 C 0.21537(14) 0.35478(17) 0.7475(2)
H15 H 0.2325 0.3131 0.8134
H16 H 0.1870 0.4054 0.7609
H17 H 0.2598 0.3787 0.7379
C14 C 0.41208(15) 0.18561(16) 1.1050(2)
H18 H 0.4560 0.2092 1.0937
H19 H 0.4149 0.2064 1.1795
H20 H 0.3648 0.2081 1.0433
C2B C 0.25410(13) -0.08521(15) 0.53316(18)
C3B C 0.17856(14) -0.11444(15) 0.47624(19)
H5B H 0.1455 -0.0834 0.4085
C4B C 0.15041(13) -0.18681(15) 0.51512(19)
O1B O 0.07613(9) -0.21770(11) 0.46410(14)
C12B C 0.02366(15) -0.16444(19) 0.3713(2)
H12B H 0.0385 -0.1659 0.3067
H13B H -0.0279 -0.1895 0.3465
H14B H 0.0244 -0.1013 0.3968
C5B C 0.19925(13) -0.23437(15) 0.61328(19)
O2B O 0.16693(9) -0.30673(10) 0.64547(13)
C13B C 0.21537(14) -0.35478(17) 0.7475(2)
H15B H 0.2325 -0.3131 0.8134
H16B H 0.1870 -0.4054 0.7609
H17B H 0.2598 -0.3787 0.7379
C6B C 0.27440(13) -0.20749(15) 0.66856(19)
H8B H 0.3079 -0.2408 0.7339
C7B C 0.30288(13) -0.13232(15) 0.63114(19)
C8B C 0.38554(13) -0.10519(16) 0.7020(2)
H9B H 0.4044 -0.0705 0.6528
H10B H 0.4170 -0.1610 0.7285
C9B C 0.39515(11) -0.04761(15) 0.8058(2)
C11B C 0.40764(12) -0.04798(15) 1.00312(19)
O3B O 0.41280(9) -0.08807(10) 1.10272(13)
C14B C 0.41208(15) -0.18561(16) 1.1050(2)
H18B H 0.4560 -0.2092 1.0937
H19B H 0.4149 -0.2064 1.1795
H20B H 0.3648 -0.2081 1.0433
C10B C 0.40209(12) -0.09362(15) 0.9058(2)
H11B H 0.4030 -0.1584 0.9065
O1F O -0.07613(9) 0.21770(11) 0.53590(14)
C1F C -0.2768(2) 0.0000 0.5122(3)
H1F H -0.3327 0.0000 0.4884
H2F H -0.2516 0.0000 0.5974
O2F O -0.16693(9) 0.30673(10) 0.35453(13)
C2F C -0.25410(13) 0.08521(15) 0.46684(18)
O3F O -0.41280(9) 0.08807(10) -0.10272(13)
C3F C -0.17856(14) 0.11444(15) 0.52376(19)
H5F H -0.1455 0.0834 0.5915
C4F C -0.15041(13) 0.18681(15) 0.48488(19)
C5F C -0.19925(13) 0.23437(15) 0.38672(19)
C6F C -0.27440(13) 0.20749(15) 0.33144(19)
H8F H -0.3079 0.2408 0.2661
C7F C -0.30288(13) 0.13232(15) 0.36886(19)
C8F C -0.38554(13) 0.10519(16) 0.2980(2)
H9F H -0.4044 0.0705 0.3472
H10F H -0.4170 0.1610 0.2715
C9F C -0.39515(11) 0.04761(15) 0.1942(2)
C10F C -0.40209(12) 0.09362(15) 0.0942(2)
H11F H -0.4030 0.1584 0.0935
C11F C -0.40764(12) 0.04798(15) -0.00312(19)
C12F C -0.02366(15) 0.16444(19) 0.6287(2)
H12F H -0.0385 0.1659 0.6933
H13F H 0.0279 0.1895 0.6535
H14F H -0.0244 0.1013 0.6032
C13F C -0.21537(14) 0.35478(17) 0.2525(2)
H15F H -0.2325 0.3131 0.1866
H16F H -0.1870 0.4054 0.2391
H17F H -0.2598 0.3787 0.2621
C14F C -0.41208(15) 0.18561(16) -0.1050(2)
H18F H -0.4560 0.2092 -0.0937
H19F H -0.4149 0.2064 -0.1795
H20F H -0.3648 0.2081 -0.0433
C2D C -0.25410(13) -0.08521(15) 0.46684(18)
C3D C -0.17856(14) -0.11444(15) 0.52376(19)
H5D H -0.1455 -0.0834 0.5915
C4D C -0.15041(13) -0.18681(15) 0.48488(19)
O1D O -0.07613(9) -0.21770(11) 0.53590(14)
C12D C -0.02366(15) -0.16444(19) 0.6287(2)
H12D H -0.0385 -0.1659 0.6933
H13D H 0.0279 -0.1895 0.6535
H14D H -0.0244 -0.1013 0.6032
C5D C -0.19925(13) -0.23437(15) 0.38672(19)
O2D O -0.16693(9) -0.30673(10) 0.35453(13)
C13D C -0.21537(14) -0.35478(17) 0.2525(2)
H15D H -0.2325 -0.3131 0.1866
H16D H -0.1870 -0.4054 0.2391
H17D H -0.2598 -0.3787 0.2621
C6D C -0.27440(13) -0.20749(15) 0.33144(19)
H8D H -0.3079 -0.2408 0.2661
C7D C -0.30288(13) -0.13232(15) 0.36886(19)
C8D C -0.38554(13) -0.10519(16) 0.2980(2)
H9D H -0.4044 -0.0705 0.3472
H10D H -0.4170 -0.1610 0.2715
C9D C -0.39515(11) -0.04761(15) 0.1942(2)
C11D C -0.40764(12) -0.04798(15) -0.00312(19)
O3D O -0.41280(9) -0.08807(10) -0.10272(13)
C14D C -0.41208(15) -0.18561(16) -0.1050(2)
H18D H -0.4560 -0.2092 -0.0937
H19D H -0.4149 -0.2064 -0.1795
H20D H -0.3648 -0.2081 -0.0433
C10D C -0.40209(12) -0.09362(15) 0.0942(2)
H11D H -0.4030 -0.1584 0.0935
O4D O -0.04922(15) 0.5000 0.3263(2)
Rb1B Rb 0.0000 -0.36963(4) 0.5000
Rb1B_2 Rb 0.0000 0.63037(4) 0.5000
Rb1_2 Rb 0.0000 -0.63037(4) 0.5000
O4_2 O 0.04922(15) 0.5000 0.6737(2)
O4D_2 O -0.04922(15) -0.5000 0.3263(2)
H22? H 0.2432 0.3842 0.1121
H23? H 0.3225 0.3831 0.1000
H24? H 0.3855 0.5319 0.2850
C18? C 0.04439(16) 0.09827(18) 0.0620(2)
C19? C 0.0963(2) 0.0000 0.0551(3)
C20? C 0.0470(2) 0.0000 0.1447(3)
C21? C 0.27612(18) 0.4184(3) 0.0848(4)
H27? H 0.2375 0.4302 0.0102
O6? O 0.0000 0.36963(4) 0.5000
loop_
_geom_bond_atom_site_label_1
_geom_bond_atom_site_label_2
_geom_bond_site_symmetry_1
_geom_bond_site_symmetry_2
Rb1 O1 1_555 1_555
O1 C4 1_555 1_555
N1 C15 1_555 1_555
C1 H1 1_555 1_555
H2 C1 1_555 1_555
B1 H3 1_555 1_555
O2 Rb1 1_555 1_555
C2 C1 1_555 1_555
B2 B1 1_555 1_555
H4 B2 1_555 1_555
O3 C11 1_555 1_555
C3 C2 1_555 1_555
H5 C3 1_555 1_555
B3 B1 1_555 1_555
H6 B3 1_555 1_555
O4 Rb1B 1_555 1_555
C4 C3 1_555 1_555
B4 B1 1_555 1_555
H7 B4 1_555 1_555
O5 C15 1_555 1_555
C5 O2 1_555 1_555
C6 C5 1_555 1_555
H8 C6 1_555 1_555
C7 C2 1_555 1_555
C8 C7 1_555 1_555
H9 C8 1_555 1_555
H10 C8 1_555 1_555
C9 C8 1_555 1_555
C10 C9 1_555 1_555
H11 C10 1_555 1_555
C11 C10 1_555 1_555
C12 O1 1_555 1_555
H12 C12 1_555 1_555
H13 C12 1_555 1_555
H14 C12 1_555 1_555
C13 O2 1_555 1_555
H15 C13 1_555 1_555
H16 C13 1_555 1_555
H17 C13 1_555 1_555
C14 O3 1_555 1_555
H18 C14 1_555 1_555
H19 C14 1_555 1_555
H20 C14 1_555 1_555
C15 H21 1_555 1_555
C16 N1 1_555 1_555
H25 C16 1_555 1_555
H26 C16 1_555 1_555
C17 B1 1_555 1_555
C2B C1 1_555 1_555
C3B C2B 1_555 1_555
H5B C3B 1_555 1_555
C4B C3B 1_555 1_555
O1B C4B 1_555 1_555
C12B O1B 1_555 1_555
H12B C12B 1_555 1_555
H13B C12B 1_555 1_555
H14B C12B 1_555 1_555
C5B C4B 1_555 1_555
O2B C5B 1_555 1_555
C13B O2B 1_555 1_555
H15B C13B 1_555 1_555
H16B C13B 1_555 1_555
H17B C13B 1_555 1_555
C6B C5B 1_555 1_555
H8B C6B 1_555 1_555
C7B C2B 1_555 1_555
C8B C7B 1_555 1_555
H9B C8B 1_555 1_555
H10B C8B 1_555 1_555
C9B C9 1_555 1_555
C11B C11 1_555 1_555
O3B C11B 1_555 1_555
C14B O3B 1_555 1_555
H18B C14B 1_555 1_555
H19B C14B 1_555 1_555
H20B C14B 1_555 1_555
C10B C9B 1_555 1_555
H11B C10B 1_555 1_555
C15B N1 1_555 1_555
O5B C15B 1_555 1_555
H21B C15B 1_555 1_555
H25B C16 1_555 1_555
H26B C16 1_555 1_555
H3B C17 1_555 1_555
B4B B2 1_555 1_555
B1D B4B 1_555 1_555
B1F B4 1_555 1_555
H3F B1F 1_555 1_555
B2F B3 1_555 1_555
H3D B1D 1_555 1_555
B3D B2 1_555 1_555
B4F B1 1_555 1_555
H6D B3D 1_555 1_555
H4F B2F 1_555 1_555
B4D B3 1_555 1_555
H7B B4B 1_555 1_555
H7D B4D 1_555 1_555
H7F B4F 1_555 1_555
O1F Rb1 1_555 1_555
C1F H1F 1_555 1_555
H2F C1F 1_555 1_555
O2F Rb1 1_555 1_555
C2F C1F 1_555 1_555
O3F C11F 1_555 1_555
C3F C2F 1_555 1_555
H5F C3F 1_555 1_555
C4F O1F 1_555 1_555
C5F O2F 1_555 1_555
C6F C5F 1_555 1_555
H8F C6F 1_555 1_555
C7F C2F 1_555 1_555
C8F C7F 1_555 1_555
H9F C8F 1_555 1_555
H10F C8F 1_555 1_555
C9F C8F 1_555 1_555
C10F C9F 1_555 1_555
H11F C10F 1_555 1_555
C11F C10F 1_555 1_555
C12F O1F 1_555 1_555
H12F C12F 1_555 1_555
H13F C12F 1_555 1_555
H14F C12F 1_555 1_555
C13F O2F 1_555 1_555
H15F C13F 1_555 1_555
H16F C13F 1_555 1_555
H17F C13F 1_555 1_555
C14F O3F 1_555 1_555
H18F C14F 1_555 1_555
H19F C14F 1_555 1_555
H20F C14F 1_555 1_555
C2D C1F 1_555 1_555
C3D C2D 1_555 1_555
H5D C3D 1_555 1_555
C4D C3D 1_555 1_555
O1D C4D 1_555 1_555
C12D O1D 1_555 1_555
H12D C12D 1_555 1_555
H13D C12D 1_555 1_555
H14D C12D 1_555 1_555
C5D C4D 1_555 1_555
O2D C5D 1_555 1_555
C13D O2D 1_555 1_555
H15D C13D 1_555 1_555
H16D C13D 1_555 1_555
H17D C13D 1_555 1_555
C6D C5D 1_555 1_555
H8D C6D 1_555 1_555
C7D C2D 1_555 1_555
C8D C7D 1_555 1_555
H9D C8D 1_555 1_555
H10D C8D 1_555 1_555
C9D C9F 1_555 1_555
C11D C11F 1_555 1_555
O3D C11D 1_555 1_555
C14D O3D 1_555 1_555
H18D C14D 1_555 1_555
H19D C14D 1_555 1_555
H20D C14D 1_555 1_555
C10D C9D 1_555 1_555
H11D C10D 1_555 1_555
O4D Rb1 1_555 1_555
Rb1B O1B 1_555 1_555
Rb1B_2 O4D 1_555 1_555
Rb1_2 O4 1_555 1_555
O4_2 Rb1 1_555 1_555
O4D_2 Rb1B 1_555 1_555
B2 C17 1_555 1_555
B2 B4 1_555 1_555
B3 C17 1_555 1_555
B3 B4F 1_555 1_555
C4 C5 1_555 1_555
B4 B3D 1_555 1_555
B4 B4F 1_555 1_555
C6 C7 1_555 1_555
H26 H26B 1_555 1_555
C17 B4B 1_555 1_555
C17 B4D 1_555 1_555
O2B Rb1B 1_555 1_555
C6B C7B 1_555 1_555
C8B C9B 1_555 1_555
C11B C10B 1_555 1_555
B4B B4D 1_555 1_555
B4B B3D 1_555 1_555
B1D B1F 1_555 1_555
B1D B3D 1_555 1_555
B1D B2F 1_555 1_555
B1D B4D 1_555 1_555
B1F B2F 1_555 1_555
B1F B4F 1_555 1_555
B1F B3D 1_555 1_555
B2F B4F 1_555 1_555
B2F B4D 1_555 1_555
C3F C4F 1_555 1_555
C4F C5F 1_555 1_555
C6F C7F 1_555 1_555
O1D Rb1B 1_555 1_555
O2D Rb1B 1_555 1_555
C6D C7D 1_555 1_555
C8D C9D 1_555 1_555
C11D C10D 1_555 1_555
Rb1B_2 O4_2 1_555 1_555
Rb1_2 O4D_2 1_555 1_555

#END
