
#######################################################################
#
#                 Cambridge Crystallographic Data Centre
#                                CCDC 
#
#######################################################################
#
# If this CIF has been generated from an entry in the Cambridge 
# Structural Database, then it will include bibliographic, chemical, 
# crystal, experimental, refinement or atomic coordinate data resulting 
# from the CCDC's data processing and validation procedures.
#
#######################################################################

data_XETVEY
_symmetry_cell_setting           monoclinic
_symmetry_space_group_name_H-M   'C 2/c'
_symmetry_Int_Tables_number      15
_space_group_name_Hall           '-C 2yn'
loop_
_symmetry_equiv_pos_site_id
_symmetry_equiv_pos_as_xyz
1 x,y,z
2 1/2+x,1/2+y,z
3 -x,y,1/2-z
4 1/2-x,1/2+y,1/2-z
5 -x,-y,-z
6 1/2-x,1/2-y,-z
7 x,-y,1/2+z
8 1/2+x,1/2-y,1/2+z
_cell_length_a                   20.985(3)
_cell_length_b                   14.837(2)
_cell_length_c                   14.941(2)
_cell_angle_alpha                90
_cell_angle_beta                 92.090(3)
_cell_angle_gamma                90
_cell_volume                     4648.85
loop_
_atom_site_label
_atom_site_type_symbol
_atom_site_fract_x
_atom_site_fract_y
_atom_site_fract_z
Cd1 Cd 0.386510(18) -0.88511(3) -0.22712(2)
C1 C 0.3333(3) -0.6774(4) -0.2402(4)
H1 H 0.3030 -0.7002 -0.2003
C2 C 0.3304(3) -0.5881(4) -0.2634(4)
H2 H 0.2990 -0.5497 -0.2395
C3 C 0.3737(3) -0.5553(4) -0.3217(4)
H3 H 0.3730 -0.4936 -0.3386
C4 C 0.4188(3) -0.6137(4) -0.3555(4)
H4 H 0.4485 -0.5927 -0.3972
C5 C 0.4197(2) -0.7024(4) -0.3279(3)
C6 C 0.4695(2) -0.7671(4) -0.3574(3)
C7 C 0.4998(2) -0.9886(4) -0.3755(3)
C8 C 0.5525(2) -1.0564(4) -0.3739(3)
C9 C 0.5480(3) -1.1371(4) -0.4193(4)
H5 H 0.5116 -1.1499 -0.4567
C10 C 0.5968(3) -1.1991(4) -0.4100(4)
H6 H 0.5942 -1.2552 -0.4405
C11 C 0.6493(3) -1.1783(4) -0.3556(4)
H7 H 0.6835 -1.2199 -0.3474
C12 C 0.6510(3) -1.0958(4) -0.3136(4)
H8 H 0.6874 -1.0814 -0.2768
C13 C 0.3360(3) -0.8532(4) -0.0309(4)
C14 C 0.2837(3) -0.8746(4) 0.0357(4)
H9 H 0.3052 -0.8907 0.0936
H10 H 0.2597 -0.8183 0.0455
C15 C 0.2357(3) -0.9480(5) 0.0128(5)
H11 H 0.2000 -0.9441 0.0542
H12 H 0.2181 -0.9385 -0.0488
C16 C 0.2649(3) -1.0404(5) 0.0194(4)
H13 H 0.3074 -1.0392 -0.0072
H14 H 0.2378 -1.0834 -0.0156
C17 C 0.2720(3) -1.0737(4) 0.1172(4)
N1 N 0.3770(2) -0.7342(3) -0.2713(3)
N2 N 0.5197(2) -0.7345(3) -0.3983(3)
H15 H 0.5269 -0.6657 -0.4153
H16 H 0.5381 -0.7783 -0.4189
N3 N 0.4602(2) -0.8523(3) -0.3388(3)
N4 N 0.51413(19) -0.9069(3) -0.3521(3)
N5 N 0.4413(2) -1.0164(4) -0.4002(3)
H17 H 0.4384 -1.0812 -0.4257
H18 H 0.3872 -1.0021 -0.4155
N6 N 0.60433(19) -1.0347(3) -0.3217(3)
O1 O 0.3193(2) -0.8642(3) -0.1129(3)
O2 O 0.3892(2) -0.8289(3) -0.0007(3)
O3 O 0.32419(17) -1.0607(3) 0.1556(3)
O4 O 0.2256(2) -1.1061(4) 0.1531(4)
Cd1B Cd 0.613490(18) -0.88511(3) -0.27288(2)
Cd1F Cd 0.386510(18) -1.11489(3) 0.27288(2)
Cd1F_2 Cd 0.386510(18) -1.11489(3) -0.72712(2)
C1B C 0.6667(3) -0.6774(4) -0.2598(4)
H1B H 0.6970 -0.7002 -0.2997
C2B C 0.6696(3) -0.5881(4) -0.2366(4)
H2B H 0.7010 -0.5497 -0.2605
C3B C 0.6263(3) -0.5553(4) -0.1783(4)
H3B H 0.6270 -0.4936 -0.1614
C4B C 0.5812(3) -0.6137(4) -0.1445(4)
H4B H 0.5515 -0.5927 -0.1028
C5B C 0.5803(2) -0.7024(4) -0.1721(3)
C6B C 0.5305(2) -0.7671(4) -0.1426(3)
C7B C 0.5002(2) -0.9886(4) -0.1245(3)
C8B C 0.4475(2) -1.0564(4) -0.1261(3)
C9B C 0.4520(3) -1.1371(4) -0.0807(4)
H5B H 0.4884 -1.1499 -0.0433
C10B C 0.4032(3) -1.1991(4) -0.0900(4)
H6B H 0.4058 -1.2552 -0.0595
C11B C 0.3507(3) -1.1783(4) -0.1444(4)
H7B H 0.3165 -1.2199 -0.1526
C12B C 0.3490(3) -1.0958(4) -0.1864(4)
H8B H 0.3126 -1.0814 -0.2232
C13F C 0.3360(3) -1.1468(4) -0.5309(4)
C14F C 0.2837(3) -1.1254(4) -0.4643(4)
H9F H 0.3052 -1.1093 -0.4064
H10F H 0.2597 -1.1817 -0.4545
C15F C 0.2357(3) -1.0520(5) -0.4872(5)
H11F H 0.2000 -1.0559 -0.4458
H12F H 0.2181 -1.0615 -0.5488
C16F C 0.2649(3) -0.9596(5) -0.4806(4)
H13F H 0.3074 -0.9608 -0.5072
H14F H 0.2378 -0.9166 -0.5156
C17F C 0.2720(3) -0.9263(4) -0.3828(4)
N1B N 0.6230(2) -0.7342(3) -0.2287(3)
N2B N 0.4803(2) -0.7345(3) -0.1017(3)
H15B H 0.4731 -0.6657 -0.0847
H16B H 0.4619 -0.7783 -0.0811
N3B N 0.5398(2) -0.8523(3) -0.1612(3)
N4B N 0.48587(19) -0.9069(3) -0.1479(3)
N5B N 0.5587(2) -1.0164(4) -0.0998(3)
H17B H 0.5616 -1.0812 -0.0743
H18B H 0.6128 -1.0021 -0.0845
N6B N 0.39567(19) -1.0347(3) -0.1783(3)
O1F O 0.3193(2) -1.1358(3) -0.6129(3)
O1B O 0.6807(2) -0.8642(3) -0.3871(3)
O2F O 0.3892(2) -1.1711(3) -0.5007(3)
O3F O 0.32419(17) -0.9393(3) -0.3444(3)
O3D O 0.67581(17) -0.9393(3) -0.1556(3)
O4F O 0.2256(2) -0.8939(4) -0.3469(4)
O5 O 0.4090(3) -0.6861(6) 0.1161(5)
H19 H 0.4077 -0.7489 0.1284
H20 H 0.3722 -0.6578 0.1384
O6 O 0.5000 -0.6284(9) 0.2500
H21 H 0.4603 -0.6170 0.2196
H21B H 0.5397 -0.6170 0.2804
O7 O 0.4488(3) -0.5649(4) -0.0209(4)
H22 H 0.4189 -0.5896 0.0185
H23 H 0.4786 -0.5464 0.0248
O8 O 0.2970(3) -0.6719(4) 0.1906(3)
H24 H 0.2586 -0.6615 0.1566
H25 H 0.3048 -0.6421 0.2462
O9 O 0.4011(3) -0.4177(4) -0.1041(7)
H26 H 0.3595 -0.4007 -0.1249
H27 H 0.3949 -0.4747 -0.0768
loop_
_geom_bond_atom_site_label_1
_geom_bond_atom_site_label_2
_geom_bond_site_symmetry_1
_geom_bond_site_symmetry_2
Cd1 N1 1_555 1_555
C1 H1 1_555 1_555
C2 C1 1_555 1_555
H2 C2 1_555 1_555
C3 C2 1_555 1_555
H3 C3 1_555 1_555
C4 C3 1_555 1_555
H4 C4 1_555 1_555
C5 C4 1_555 1_555
C6 C5 1_555 1_555
C7 C8 1_555 1_555
C8 C9 1_555 1_555
C9 H5 1_555 1_555
C10 C9 1_555 1_555
H6 C10 1_555 1_555
C11 C10 1_555 1_555
H7 C11 1_555 1_555
C12 C11 1_555 1_555
H8 C12 1_555 1_555
C13 C14 1_555 1_555
C14 H9 1_555 1_555
H10 C14 1_555 1_555
C15 C14 1_555 1_555
H11 C15 1_555 1_555
H12 C15 1_555 1_555
C16 C15 1_555 1_555
H13 C16 1_555 1_555
H14 C16 1_555 1_555
C17 C16 1_555 1_555
N1 C1 1_555 1_555
N2 C6 1_555 1_555
H15 N2 1_555 1_555
H16 N2 1_555 1_555
N3 Cd1 1_555 1_555
N4 C7 1_555 1_555
N5 C7 1_555 1_555
H17 N5 1_555 1_555
H18 N5 1_555 1_555
N6 C8 1_555 1_555
O1 Cd1 1_555 1_555
O2 C13 1_555 1_555
O3 C17 1_555 1_555
O4 C17 1_555 1_555
O5 H19 1_555 1_555
H20 O5 1_555 1_555
O6 H21 1_555 1_555
O7 H22 1_555 1_555
H23 O7 1_555 1_555
O8 H24 1_555 1_555
H25 O8 1_555 1_555
O9 H26 1_555 1_555
H27 O9 1_555 1_555
Cd1B N4 1_555 1_555
Cd1F O3 1_555 1_555
Cd1F_2 O1F 1_555 1_555
C1B H1B 1_555 1_555
C2B C1B 1_555 1_555
H2B C2B 1_555 1_555
C3B C2B 1_555 1_555
H3B C3B 1_555 1_555
C4B C3B 1_555 1_555
H4B C4B 1_555 1_555
C5B C4B 1_555 1_555
C6B C5B 1_555 1_555
C7B C8B 1_555 1_555
C8B C9B 1_555 1_555
C9B H5B 1_555 1_555
C10B C9B 1_555 1_555
H6B C10B 1_555 1_555
C11B C10B 1_555 1_555
H7B C11B 1_555 1_555
C12B C11B 1_555 1_555
H8B C12B 1_555 1_555
C13F C14F 1_555 1_555
C14F H9F 1_555 1_555
H10F C14F 1_555 1_555
C15F C14F 1_555 1_555
H11F C15F 1_555 1_555
H12F C15F 1_555 1_555
C16F C15F 1_555 1_555
H13F C16F 1_555 1_555
H14F C16F 1_555 1_555
C17F C16F 1_555 1_555
N1B Cd1B 1_555 1_555
N2B C6B 1_555 1_555
H15B N2B 1_555 1_555
H16B N2B 1_555 1_555
N3B Cd1B 1_555 1_555
N4B Cd1 1_555 1_555
N5B C7B 1_555 1_555
H17B N5B 1_555 1_555
H18B N5B 1_555 1_555
N6B Cd1 1_555 1_555
O1F C13F 1_555 1_555
O1B Cd1B 1_555 1_555
O2F C13F 1_555 1_555
O3F Cd1 1_555 1_555
O3D Cd1B 1_555 1_555
O4F C17F 1_555 1_555
H21B O6 1_555 1_555
C5 N1 1_555 1_555
C6 N3 1_555 1_555
C12 N6 1_555 1_555
C13 O1 1_555 1_555
N3 N4 1_555 1_555
N6 Cd1B 1_555 1_555
C1B N1B 1_555 1_555
C5B N1B 1_555 1_555
C6B N3B 1_555 1_555
C7B N4B 1_555 1_555
C8B N6B 1_555 1_555
C12B N6B 1_555 1_555
C17F O3F 1_555 1_555
N3B N4B 1_555 1_555

#END
