
#######################################################################
#
#                 Cambridge Crystallographic Data Centre
#                                CCDC 
#
#######################################################################
#
# If this CIF has been generated from an entry in the Cambridge 
# Structural Database, then it will include bibliographic, chemical, 
# crystal, experimental, refinement or atomic coordinate data resulting 
# from the CCDC's data processing and validation procedures.
#
#######################################################################

data_XETVIC
_symmetry_cell_setting           monoclinic
_symmetry_space_group_name_H-M   'C 2/c'
_symmetry_Int_Tables_number      15
_space_group_name_Hall           '-C 2yn'
loop_
_symmetry_equiv_pos_site_id
_symmetry_equiv_pos_as_xyz
1 x,y,z
2 1/2+x,1/2+y,z
3 -x,y,1/2-z
4 1/2-x,1/2+y,1/2-z
5 -x,-y,-z
6 1/2-x,1/2-y,-z
7 x,-y,1/2+z
8 1/2+x,1/2-y,1/2+z
_cell_length_a                   22.387(2)
_cell_length_b                   13.1645(12)
_cell_length_c                   17.7277(16)
_cell_angle_alpha                90
_cell_angle_beta                 103.104(2)
_cell_angle_gamma                90
_cell_volume                     5088.55
loop_
_atom_site_label
_atom_site_type_symbol
_atom_site_fract_x
_atom_site_fract_y
_atom_site_fract_z
Cd1 Cd 0.103412(13) 0.62996(2) 0.227315(19)
C1 C 0.1342(2) 0.4058(4) 0.1694(3)
H1 H 0.1739 0.4203 0.2001
C2 C 0.1272(2) 0.3232(4) 0.1210(3)
H2 H 0.1614 0.2821 0.1175
C3 C 0.0699(2) 0.3016(4) 0.0778(3)
H3 H 0.0634 0.2443 0.0443
C4 C 0.0216(2) 0.3639(3) 0.0833(3)
H4 H -0.0185 0.3509 0.0531
C5 C 0.03231(18) 0.4448(3) 0.1332(2)
C6 C -0.01793(17) 0.5152(3) 0.1425(2)
C7 C -0.04787(17) 0.7641(3) 0.1575(2)
C8 C -0.09449(17) 0.8326(3) 0.1789(2)
C9 C -0.10993(18) 0.9243(3) 0.1429(3)
H5 H -0.0913 0.9462 0.1026
C10 C -0.1530(2) 0.9840(3) 0.1664(3)
H6 H -0.1640 1.0482 0.1428
C11 C -0.1795(2) 0.9502(4) 0.2235(3)
H7 H -0.2093 0.9902 0.2403
C12 C -0.1624(2) 0.8566(3) 0.2566(3)
H8 H -0.1809 0.8330 0.2964
C13 C 0.1480(2) 0.6761(3) 0.0852(3)
C14 C 0.1873(2) 0.6670(4) 0.0261(3)
H9 H 0.2120 0.6040 0.0362
H10 H 0.1602 0.6615 -0.0263
C15 C 0.2296(2) 0.7565(4) 0.0283(3)
H11 H 0.1958 0.8084 0.0256
H12 H 0.2605 0.7588 0.0783
C16 C 0.2257(2) 0.6059(3) 0.3787(3)
C17 C 0.2210(3) 0.6161(4) 0.4621(3)
H13 H 0.2316 0.5496 0.4878
H14 H 0.1776 0.6302 0.4625
C18 C 0.2603(2) 0.6967(3) 0.5107(3)
H15 H 0.2638 0.6882 0.5711
H16 H 0.3089 0.6841 0.5038
N1 N 0.08806(14) 0.4667(2) 0.1754(2)
N2 N -0.07431(15) 0.4766(3) 0.1327(2)
H17 H -0.0766 0.4209 0.1326
H18 H -0.1083 0.5154 0.1341
N3 N -0.00259(14) 0.6088(2) 0.15811(19)
N4 N -0.05105(14) 0.6676(2) 0.17361(19)
N5 N -0.00722(15) 0.8043(3) 0.1213(2)
H19 H -0.0073 0.8703 0.1203
H20 H 0.0230 0.7700 0.1106
N6 N -0.12088(15) 0.7985(2) 0.2348(2)
O1 O 0.17184(14) 0.6426(2) 0.15183(19)
O2 O 0.09607(13) 0.7139(2) 0.06704(18)
O3 O 0.27511(13) 0.6261(3) 0.36261(19)
O4 O 0.17925(13) 0.5721(2) 0.33094(19)
Cd1B Cd -0.103412(13) 0.62996(2) 0.272685(19)
Cd1E Cd 0.396588(13) 0.87004(2) -0.227315(19)
Cd1E_2 Cd 0.396588(13) 0.87004(2) 0.772685(19)
C1B C -0.1342(2) 0.4058(4) 0.3306(3)
H1B H -0.1739 0.4203 0.2999
C2B C -0.1272(2) 0.3232(4) 0.3790(3)
H2B H -0.1614 0.2821 0.3825
C3B C -0.0699(2) 0.3016(4) 0.4222(3)
H3B H -0.0634 0.2443 0.4557
C4B C -0.0216(2) 0.3639(3) 0.4167(3)
H4B H 0.0185 0.3509 0.4469
C5B C -0.03231(18) 0.4448(3) 0.3668(2)
C6B C 0.01793(17) 0.5152(3) 0.3575(2)
C7B C 0.04787(17) 0.7641(3) 0.3425(2)
C8B C 0.09449(17) 0.8326(3) 0.3211(2)
C9B C 0.10993(18) 0.9243(3) 0.3571(3)
H5B H 0.0913 0.9462 0.3974
C10B C 0.1530(2) 0.9840(3) 0.3336(3)
H6B H 0.1640 1.0482 0.3572
C11B C 0.1795(2) 0.9502(4) 0.2765(3)
H7B H 0.2093 0.9902 0.2597
C12B C 0.1624(2) 0.8566(3) 0.2434(3)
H8B H 0.1809 0.8330 0.2036
C13E C 0.3520(2) 0.8239(3) -0.0852(3)
C14E C 0.3127(2) 0.8330(4) -0.0261(3)
H9E H 0.2880 0.8960 -0.0362
H10E H 0.3398 0.8385 0.0263
C15E C 0.2704(2) 0.7435(4) -0.0283(3)
H11E H 0.3042 0.6916 -0.0256
H12E H 0.2395 0.7412 -0.0783
C16E C 0.2743(2) 0.8941(3) 0.6213(3)
C17E C 0.2790(3) 0.8839(4) 0.5379(3)
H13E H 0.2684 0.9504 0.5122
H14E H 0.3224 0.8698 0.5375
C18E C 0.2397(2) 0.8033(3) 0.4893(3)
H15E H 0.2362 0.8118 0.4289
H16E H 0.1911 0.8159 0.4962
N1B N -0.08806(14) 0.4667(2) 0.3246(2)
N2B N 0.07431(15) 0.4766(3) 0.3673(2)
H17B H 0.0766 0.4209 0.3674
H18B H 0.1083 0.5154 0.3659
N3B N 0.00259(14) 0.6088(2) 0.34189(19)
N4B N 0.05105(14) 0.6676(2) 0.32639(19)
N5B N 0.00722(15) 0.8043(3) 0.3787(2)
H19B H 0.0073 0.8703 0.3797
H20B H -0.0230 0.7700 0.3894
N6B N 0.12088(15) 0.7985(2) 0.2652(2)
O1E O 0.32816(14) 0.8574(2) -0.15183(19)
O1B O -0.17184(14) 0.6426(2) 0.34817(19)
O2E O 0.40393(13) 0.7861(2) -0.06704(18)
O3E O 0.22489(13) 0.8739(3) 0.63739(19)
O4E O 0.32075(13) 0.9279(2) 0.66906(19)
O4B O -0.17925(13) 0.5721(2) 0.16906(19)
O5 O 0.38349(16) 0.5423(3) 0.4421(2)
H21 H 0.3419 0.5521 0.4158
H22 H 0.3882 0.4811 0.4658
O6 O 0.48285(14) 0.5293(2) 0.3785(2)
H23 H 0.4503 0.5247 0.4063
H24 H 0.4766 0.5823 0.3412
O7 O 0.5000 0.6420(5) 0.2500
H25 H 0.4749 0.6967 0.2366
H25B H 0.5251 0.6967 0.2634
O8 O 0.39787(15) 0.7530(3) 0.1683(2)
H26 H 0.3731 0.7373 0.1986
H27 H 0.3856 0.7042 0.1283
O9 O 0.41401(15) 0.6346(3) 0.0402(2)
H28 H 0.4502 0.6051 0.0616
H29 H 0.4220 0.6939 0.0120
O10 O 0.29184(15) 0.7028(2) 0.2226(2)
H30 H 0.2978 0.6851 0.2727
H31 H 0.2538 0.6827 0.2093
loop_
_geom_bond_atom_site_label_1
_geom_bond_atom_site_label_2
_geom_bond_site_symmetry_1
_geom_bond_site_symmetry_2
Cd1 N1 1_555 1_555
C1 H1 1_555 1_555
C2 C1 1_555 1_555
H2 C2 1_555 1_555
C3 C2 1_555 1_555
H3 C3 1_555 1_555
C4 C3 1_555 1_555
H4 C4 1_555 1_555
C5 C4 1_555 1_555
C6 C5 1_555 1_555
C7 C8 1_555 1_555
C8 C9 1_555 1_555
C9 H5 1_555 1_555
C10 C9 1_555 1_555
H6 C10 1_555 1_555
C11 C10 1_555 1_555
H7 C11 1_555 1_555
C12 C11 1_555 1_555
H8 C12 1_555 1_555
C13 C14 1_555 1_555
C14 H9 1_555 1_555
H10 C14 1_555 1_555
C15 C14 1_555 1_555
H11 C15 1_555 1_555
H12 C15 1_555 1_555
C16 C17 1_555 1_555
C17 H13 1_555 1_555
H14 C17 1_555 1_555
C18 C17 1_555 1_555
H15 C18 1_555 1_555
H16 C18 1_555 1_555
N1 C1 1_555 1_555
N2 C6 1_555 1_555
H17 N2 1_555 1_555
H18 N2 1_555 1_555
N3 Cd1 1_555 1_555
N4 C7 1_555 1_555
N5 C7 1_555 1_555
H19 N5 1_555 1_555
H20 N5 1_555 1_555
N6 C8 1_555 1_555
O1 Cd1 1_555 1_555
O2 C13 1_555 1_555
O3 C16 1_555 1_555
O4 Cd1 1_555 1_555
O5 H21 1_555 1_555
H22 O5 1_555 1_555
O6 H23 1_555 1_555
H24 O6 1_555 1_555
O7 H25 1_555 1_555
O8 H26 1_555 1_555
H27 O8 1_555 1_555
O9 H28 1_555 1_555
H29 O9 1_555 1_555
O10 H30 1_555 1_555
H31 O10 1_555 1_555
Cd1B N4 1_555 1_555
Cd1E O1E 1_555 1_555
Cd1E_2 O4E 1_555 1_555
C1B H1B 1_555 1_555
C2B C1B 1_555 1_555
H2B C2B 1_555 1_555
C3B C2B 1_555 1_555
H3B C3B 1_555 1_555
C4B C3B 1_555 1_555
H4B C4B 1_555 1_555
C5B C4B 1_555 1_555
C6B C5B 1_555 1_555
C7B C8B 1_555 1_555
C8B C9B 1_555 1_555
C9B H5B 1_555 1_555
C10B C9B 1_555 1_555
H6B C10B 1_555 1_555
C11B C10B 1_555 1_555
H7B C11B 1_555 1_555
C12B C11B 1_555 1_555
H8B C12B 1_555 1_555
C13E C14E 1_555 1_555
C14E H9E 1_555 1_555
H10E C14E 1_555 1_555
C15E C15 1_555 1_555
H11E C15E 1_555 1_555
H12E C15E 1_555 1_555
C16E C17E 1_555 1_555
C17E H13E 1_555 1_555
H14E C17E 1_555 1_555
C18E C18 1_555 1_555
H15E C18E 1_555 1_555
H16E C18E 1_555 1_555
N1B Cd1B 1_555 1_555
N2B C6B 1_555 1_555
H17B N2B 1_555 1_555
H18B N2B 1_555 1_555
N3B Cd1B 1_555 1_555
N4B Cd1 1_555 1_555
N5B C7B 1_555 1_555
H19B N5B 1_555 1_555
H20B N5B 1_555 1_555
N6B Cd1 1_555 1_555
O1E C13E 1_555 1_555
O1B Cd1B 1_555 1_555
O2E C13E 1_555 1_555
O3E C16E 1_555 1_555
O4E C16E 1_555 1_555
O4B Cd1B 1_555 1_555
H25B O7 1_555 1_555
C5 N1 1_555 1_555
C6 N3 1_555 1_555
C12 N6 1_555 1_555
C13 O1 1_555 1_555
C16 O4 1_555 1_555
N3 N4 1_555 1_555
N6 Cd1B 1_555 1_555
C1B N1B 1_555 1_555
C5B N1B 1_555 1_555
C6B N3B 1_555 1_555
C7B N4B 1_555 1_555
C8B N6B 1_555 1_555
C12B N6B 1_555 1_555
C14E C15E 1_555 1_555
C17E C18E 1_555 1_555
N3B N4B 1_555 1_555

#END
