
#######################################################################
#
#                 Cambridge Crystallographic Data Centre
#                                CCDC 
#
#######################################################################
#
# If this CIF has been generated from an entry in the Cambridge 
# Structural Database, then it will include bibliographic, chemical, 
# crystal, experimental, refinement or atomic coordinate data resulting 
# from the CCDC's data processing and validation procedures.
#
#######################################################################

data_XETVAU
_symmetry_cell_setting           triclinic
_symmetry_space_group_name_H-M   'P -1'
_symmetry_Int_Tables_number      2
_space_group_name_Hall           '-P 1'
loop_
_symmetry_equiv_pos_site_id
_symmetry_equiv_pos_as_xyz
1 x,y,z
2 -x,-y,-z
_cell_length_a                   16.033(2)
_cell_length_b                   16.744(2)
_cell_length_c                   20.286(3)
_cell_angle_alpha                68.747(2)
_cell_angle_beta                 66.944(2)
_cell_angle_gamma                63.282(2)
_cell_volume                     4359.25
loop_
_atom_site_label
_atom_site_type_symbol
_atom_site_fract_x
_atom_site_fract_y
_atom_site_fract_z
Cd1 Cd -0.24269(5) 1.09480(5) -0.14089(4)
Cd2 Cd -0.18069(5) 0.87191(5) 0.08202(4)
Cd3 Cd -0.78537(5) 1.58360(5) -0.60479(4)
Cd4 Cd -0.72017(5) 1.36324(5) -0.38265(4)
C1 C -0.4631(7) 1.2427(8) -0.1166(6)
H1 H -0.4321 1.2795 -0.1579
C2 C -0.5605(8) 1.2767(8) -0.0913(6)
H2 H -0.5973 1.3347 -0.1159
C3 C -0.6066(8) 1.2259(8) -0.0286(7)
H3 H -0.6751 1.2489 -0.0088
C4 C -0.5500(7) 1.1409(7) 0.0043(6)
H4 H -0.5787 1.1044 0.0475
C5 C -0.4515(7) 1.1108(6) -0.0272(5)
C6 C -0.3854(7) 1.0177(7) 0.0024(5)
C7 C -0.1872(7) 0.8470(6) -0.0633(5)
C8 C -0.1099(7) 0.7599(7) -0.0399(5)
C9 C -0.0679(8) 0.6876(7) -0.0730(5)
H5 H -0.0899 0.6912 -0.1116
C10 C 0.0050(8) 0.6103(7) -0.0513(6)
H6 H 0.0342 0.5601 -0.0743
C11 C 0.0351(8) 0.6072(7) 0.0056(6)
H7 H 0.0871 0.5556 0.0213
C12 C -0.0118(8) 0.6804(7) 0.0388(6)
H8 H 0.0073 0.6763 0.0791
C13 C -0.0516(8) 1.0355(7) -0.2828(6)
H9 H -0.0993 1.0584 -0.3083
C14 C 0.0422(8) 1.0119(8) -0.3213(6)
H10 H 0.0595 1.0191 -0.3730
C15 C 0.1135(8) 0.9774(8) -0.2860(6)
H11 H 0.1801 0.9610 -0.3129
C16 C 0.0859(7) 0.9670(7) -0.2106(6)
H12 H 0.1331 0.9426 -0.1844
C17 C -0.0126(7) 0.9931(6) -0.1742(5)
C18 C -0.0484(7) 0.9819(7) -0.0933(5)
C19 C -0.2224(7) 1.0858(6) 0.0365(5)
C20 C -0.2778(7) 1.0710(6) 0.1173(5)
C21 C -0.3210(7) 1.1390(7) 0.1557(5)
H13 H -0.3165 1.1979 0.1320
C22 C -0.3718(8) 1.1205(8) 0.2305(6)
H14 H -0.4005 1.1653 0.2590
C23 C -0.3782(8) 1.0353(8) 0.2605(6)
H15 H -0.4162 1.0215 0.3096
C24 C -0.3293(8) 0.9691(8) 0.2194(5)
H16 H -0.3313 0.9092 0.2422
C25 C -0.7237(8) 1.4746(8) -0.7304(6)
H17 H -0.7754 1.5268 -0.7459
C26 C -0.6712(8) 1.4085(8) -0.7725(6)
H18 H -0.6866 1.4146 -0.8152
C27 C -0.5964(9) 1.3340(9) -0.7492(7)
H19 H -0.5590 1.2867 -0.7756
C28 C -0.5758(9) 1.3282(8) -0.6873(6)
H20 H -0.5226 1.2783 -0.6718
C29 C -0.6324(7) 1.3950(7) -0.6487(5)
C30 C -0.6151(6) 1.3918(6) -0.5802(5)
C31 C -0.6381(7) 1.5248(7) -0.4795(5)
C32 C -0.6357(7) 1.5156(7) -0.4043(5)
C33 C -0.5953(7) 1.5643(7) -0.3909(5)
H21 H -0.5681 1.6056 -0.4300
C34 C -0.5956(7) 1.5514(7) -0.3194(5)
H22 H -0.5668 1.5827 -0.3092
C35 C -0.6372(8) 1.4938(7) -0.2642(6)
H23 H -0.6390 1.4852 -0.2148
C36 C -0.6774(8) 1.4471(8) -0.2812(6)
H24 H -0.7055 1.4062 -0.2423
C37 C -0.8572(8) 1.7861(7) -0.5743(6)
H25 H -0.8203 1.7984 -0.6241
C38 C -0.9101(8) 1.8574(7) -0.5384(6)
H26 H -0.9075 1.9169 -0.5626
C39 C -0.9673(9) 1.8410(8) -0.4662(6)
H27 H -1.0042 1.8887 -0.4401
C40 C -0.9686(7) 1.7526(7) -0.4336(5)
H28 H -1.0093 1.7396 -0.3853
C41 C -0.9106(7) 1.6840(6) -0.4716(5)
C42 C -0.9036(7) 1.5867(6) -0.4381(5)
C43 C -0.8508(7) 1.3891(7) -0.4788(5)
C44 C -0.8091(7) 1.2869(7) -0.4538(5)
C45 C -0.8368(8) 1.2298(7) -0.4666(5)
H29 H -0.8894 1.2541 -0.4875
C46 C -0.7881(8) 1.1358(8) -0.4491(6)
H30 H -0.8045 1.0949 -0.4599
C47 C -0.7144(8) 1.1026(7) -0.4153(6)
H31 H -0.6795 1.0386 -0.4024
C48 C -0.6938(8) 1.1648(8) -0.4013(6)
H32 H -0.6443 1.1418 -0.3776
C49 C -0.0509(9) 0.8082(8) 0.1644(6)
C50 C 0.0181(12) 0.7678(12) 0.2105(8)
H33 H 0.0804 0.7289 0.1827
H34 H 0.0301 0.8194 0.2134
C51 C -0.0023(11) 0.7167(12) 0.2807(9)
H35 H -0.0205 0.6686 0.2787
H36 H -0.0610 0.7574 0.3099
C52 C 0.0708(8) 0.6706(8) 0.3228(6)
C53 C -0.5426(8) 1.2218(7) -0.3369(6)
C54 C -0.4776(8) 1.1696(11) -0.2866(7)
H37 H -0.5018 1.2035 -0.2477
H38 H -0.4858 1.1096 -0.2621
C55 C -0.3733(9) 1.1519(9) -0.3178(6)
H39 H -0.3637 1.2102 -0.3479
H40 H -0.3455 1.1094 -0.3507
C56 C -0.3189(7) 1.1112(7) -0.2604(5)
N1 N -0.4081(6) 1.1607(6) -0.0872(4)
N2 N -0.4164(6) 0.9774(6) 0.0722(4)
H49 H -0.4619 1.0165 0.1011
H50 H -0.4159 0.9229 0.0785
N3 N -0.3068(6) 0.9810(5) -0.0451(4)
N4 N -0.2450(6) 0.8962(5) -0.0153(4)
N5 N -0.1915(6) 0.8689(6) -0.1327(4)
H51 H -0.1942 0.9357 -0.1674
H52 H -0.1388 0.8307 -0.1686
N6 N -0.0834(6) 0.7579(6) 0.0176(4)
N7 N -0.0815(6) 1.0285(6) -0.2096(4)
N8 N 0.0134(6) 0.9208(6) -0.0534(4)
H53 H 0.0756 0.8655 -0.0767
H54 H -0.0030 0.9087 -0.0025
N9 N -0.1363(6) 1.0365(6) -0.0678(4)
N10 N -0.1703(6) 1.0145(6) 0.0093(4)
N11 N -0.2312(7) 1.1719(6) -0.0018(5)
H55 H -0.2001 1.1824 -0.0488
H56 H -0.2682 1.2180 0.0201
N12 N -0.2798(6) 0.9866(5) 0.1493(4)
N13 N -0.7054(6) 1.4689(6) -0.6695(4)
N14 N -0.5624(6) 1.3104(6) -0.5456(4)
H57 H -0.5428 1.2546 -0.5508
H58 H -0.5766 1.3142 -0.5073
N15 N -0.6526(6) 1.4675(5) -0.5597(4)
N16 N -0.6432(6) 1.4535(6) -0.4894(4)
N17 N -0.6278(6) 1.5985(6) -0.5315(5)
H59 H -0.6342 1.6013 -0.5786
H60 H -0.6435 1.6546 -0.5199
N18 N -0.6780(6) 1.4577(6) -0.3492(4)
N19 N -0.8558(6) 1.6991(5) -0.5415(4)
N20 N -0.9366(7) 1.5621(6) -0.3640(4)
H61 H -0.9578 1.6012 -0.3297
H62 H -0.8957 1.5050 -0.3669
N21 N -0.8652(6) 1.5311(6) -0.4809(4)
N22 N -0.8431(6) 1.4382(5) -0.4449(5)
N23 N -0.8865(6) 1.4205(6) -0.5363(4)
H63 H -0.9192 1.4834 -0.5436
H64 H -0.8537 1.3788 -0.5614
N24 N -0.7389(6) 1.2558(6) -0.4189(4)
O1 O -0.1234(5) 0.7840(5) 0.1856(4)
O2 O -0.0335(6) 0.8636(6) 0.1045(4)
O3 O 0.0573(6) 0.6123(6) 0.3814(4)
O4 O 0.1475(5) 0.6898(5) 0.2985(4)
O5 O -0.6334(5) 1.2442(5) -0.3055(4)
O6 O -0.5085(5) 1.2467(5) -0.4047(4)
O7 O -0.2885(5) 1.1611(5) -0.2502(3)
O8 O -0.3042(6) 1.0289(5) -0.2274(4)
O17 O -0.2435(5) 1.2412(5) -0.1626(4)
H65 H -0.2858 1.2908 -0.1416
H66 H -0.2219 1.2723 -0.2118
O18 O -0.2999(5) 0.7953(5) 0.1498(4)
H67 H -0.3052 0.7714 0.1995
H68 H -0.2804 0.7410 0.1405
O19 O -0.6539(5) 1.6444(5) -0.6844(4)
H69 H -0.6597 1.6827 -0.7251
H70 H -0.6031 1.6269 -0.6711
O20 O -0.8402(5) 1.3669(5) -0.2736(4)
H71 H -0.8774 1.4179 -0.2488
H72 H -0.8601 1.3227 -0.2460
Cd3_2 Cd 0.21463(5) 0.58360(5) 0.39521(4)
O3_2 O -0.9427(6) 1.6123(6) -0.6186(4)
O4_2 O -0.8525(5) 1.6898(5) -0.7015(4)
C57 C 0.4052(8) 0.6294(8) 0.0155(6)
C58 C 0.5156(9) 0.6066(9) -0.0094(7)
H41 H 0.5489 0.5540 -0.0332
H42 H 0.5396 0.5895 0.0338
C59 C 0.5382(9) 0.6918(8) -0.0644(7)
H43 H 0.5145 0.7074 -0.1074
H44 H 0.5017 0.7445 -0.0405
C60 C 0.6439(10) 0.6789(8) -0.0909(7)
O9 O 0.3628(6) 0.6544(5) -0.0335(5)
O10 O 0.3639(6) 0.6257(5) 0.0836(5)
O11 O 0.6671(7) 0.7443(6) -0.1408(5)
O12 O 0.7066(6) 0.6043(6) -0.0670(5)
C61 C -0.0305(7) 0.2692(7) 0.2555(5)
C62 C -0.1082(8) 0.2573(9) 0.2414(7)
H45 H -0.0791 0.2041 0.2186
H46 H -0.1373 0.3126 0.2061
C63 C -0.1869(8) 0.2424(8) 0.3108(6)
H47 H -0.2119 0.2938 0.3349
H48 H -0.1572 0.1854 0.3447
C64 C -0.2728(7) 0.2349(7) 0.3017(6)
O13 O 0.0494(6) 0.2041(7) 0.2567(4)
O14 O -0.0506(8) 0.3458(6) 0.2652(5)
O15 O -0.2833(6) 0.2552(5) 0.2399(4)
O16 O -0.3296(6) 0.2086(6) 0.3610(4)
O21 O -0.5510(5) 0.5571(5) 0.1988(4)
H73 H -0.5586 0.5477 0.1583
H74 H -0.4933 0.5061 0.1873
O22 O -0.1606(6) 0.2435(6) 0.0976(4)
H75 H -0.1955 0.2759 0.1359
H76 H -0.2113 0.2688 0.0817
O23 O -0.3859(6) 0.4067(5) 0.1504(4)
H77 H -0.3577 0.3718 0.1140
H78 H -0.3307 0.4113 0.1535
O24 O -0.2664(6) 0.5189(6) 0.0691(5)
H79 H -0.2901 0.5825 0.0470
H80 H -0.3112 0.4885 0.0864
O25 O -0.2157(5) 0.6307(5) 0.1078(4)
H81 H -0.2341 0.6010 0.0867
H82 H -0.1670 0.5876 0.1283
O26 O -0.0755(5) 0.5151(5) 0.1821(4)
H83 H -0.0073 0.4844 0.1744
H84 H -0.1027 0.4714 0.2178
O27 O 0.0821(8) 0.5143(8) 0.1958(7)
H85 H 0.1261 0.4593 0.2173
H86 H 0.1279 0.5363 0.1552
O28 O 0.2072(8) 0.5805(8) 0.0787(8)
H87 H 0.2570 0.6029 0.0448
H88 H 0.2185 0.5174 0.0870
O29 O 0.1600(6) 0.3238(7) 0.2342(5)
H89 H 0.1257 0.2896 0.2349
H90 H 0.2227 0.2801 0.2371
O30 O 0.1837(6) 0.2960(6) 0.3689(4)
H91 H 0.2259 0.2366 0.3787
H92 H 0.1819 0.3086 0.3198
O31 O 0.3328(8) 0.1093(7) 0.3406(6)
H93 H 0.3542 0.1181 0.2885
H94 H 0.2806 0.0877 0.3582
O32 O 0.4271(6) 0.0733(6) 0.1890(4)
H95 H 0.3966 0.0312 0.2088
H96 H 0.4137 0.1334 0.1919
O33 O 0.1748(7) 0.0710(6) 0.3390(5)
H97 H 0.1989 0.0315 0.3091
H98 H 0.1196 0.1049 0.3310
O34 O 0.1824(7) -0.0216(6) 0.4973(5)
H99 H 0.2157 -0.0681 0.5317
H100 H 0.1646 -0.0042 0.4558
O35 O 0.3246(5) -0.2149(6) 0.5053(4)
H101 H 0.3352 -0.2172 0.5489
H102 H 0.3096 -0.1507 0.4955
O36 O 0.4586(7) 0.0009(6) 0.4311(5)
H103 H 0.4075 0.0419 0.4090
H104 H 0.4662 -0.0226 0.4795
O37 O 0.4624(6) -0.1223(5) 0.5665(5)
H105 H 0.4775 -0.1056 0.5993
H106 H 0.3938 -0.1047 0.5805
loop_
_geom_bond_atom_site_label_1
_geom_bond_atom_site_label_2
_geom_bond_site_symmetry_1
_geom_bond_site_symmetry_2
Cd1 N1 1_555 1_555
Cd2 N4 1_555 1_555
Cd3 N13 1_555 1_555
Cd4 N16 1_555 1_555
C1 H1 1_555 1_555
C2 C1 1_555 1_555
H2 C2 1_555 1_555
C3 C2 1_555 1_555
H3 C3 1_555 1_555
C4 C3 1_555 1_555
H4 C4 1_555 1_555
C5 C4 1_555 1_555
C6 C5 1_555 1_555
C7 C8 1_555 1_555
C8 C9 1_555 1_555
C9 H5 1_555 1_555
C10 C9 1_555 1_555
H6 C10 1_555 1_555
C11 C10 1_555 1_555
H7 C11 1_555 1_555
C12 C11 1_555 1_555
H8 C12 1_555 1_555
C13 H9 1_555 1_555
C14 C13 1_555 1_555
H10 C14 1_555 1_555
C15 C14 1_555 1_555
H11 C15 1_555 1_555
C16 C15 1_555 1_555
H12 C16 1_555 1_555
C17 C16 1_555 1_555
C18 C17 1_555 1_555
C19 C20 1_555 1_555
C20 C21 1_555 1_555
C21 H13 1_555 1_555
C22 C21 1_555 1_555
H14 C22 1_555 1_555
C23 C22 1_555 1_555
H15 C23 1_555 1_555
C24 C23 1_555 1_555
H16 C24 1_555 1_555
C25 H17 1_555 1_555
C26 C25 1_555 1_555
H18 C26 1_555 1_555
C27 C26 1_555 1_555
H19 C27 1_555 1_555
C28 C27 1_555 1_555
H20 C28 1_555 1_555
C29 C28 1_555 1_555
C30 C29 1_555 1_555
C31 C32 1_555 1_555
C32 C33 1_555 1_555
C33 H21 1_555 1_555
C34 C33 1_555 1_555
H22 C34 1_555 1_555
C35 C34 1_555 1_555
H23 C35 1_555 1_555
C36 C35 1_555 1_555
H24 C36 1_555 1_555
C37 H25 1_555 1_555
C38 C37 1_555 1_555
H26 C38 1_555 1_555
C39 C38 1_555 1_555
H27 C39 1_555 1_555
C40 C39 1_555 1_555
H28 C40 1_555 1_555
C41 C40 1_555 1_555
C42 C41 1_555 1_555
C43 C44 1_555 1_555
C44 C45 1_555 1_555
C45 H29 1_555 1_555
C46 C45 1_555 1_555
H30 C46 1_555 1_555
C47 C46 1_555 1_555
H31 C47 1_555 1_555
C48 C47 1_555 1_555
H32 C48 1_555 1_555
C49 C50 1_555 1_555
C50 H33 1_555 1_555
H34 C50 1_555 1_555
C51 C50 1_555 1_555
H35 C51 1_555 1_555
H36 C51 1_555 1_555
C52 C51 1_555 1_555
C53 C54 1_555 1_555
C54 H37 1_555 1_555
H38 C54 1_555 1_555
C55 C54 1_555 1_555
H39 C55 1_555 1_555
H40 C55 1_555 1_555
C56 C55 1_555 1_555
C57 C58 1_555 1_555
C58 H41 1_555 1_555
H42 C58 1_555 1_555
C59 C58 1_555 1_555
H43 C59 1_555 1_555
H44 C59 1_555 1_555
C60 C59 1_555 1_555
C61 C62 1_555 1_555
C62 H45 1_555 1_555
H46 C62 1_555 1_555
C63 C62 1_555 1_555
H47 C63 1_555 1_555
H48 C63 1_555 1_555
C64 C63 1_555 1_555
N1 C1 1_555 1_555
N2 C6 1_555 1_555
H49 N2 1_555 1_555
H50 N2 1_555 1_555
N3 Cd1 1_555 1_555
N4 C7 1_555 1_555
N5 C7 1_555 1_555
H51 N5 1_555 1_555
H52 N5 1_555 1_555
N6 Cd2 1_555 1_555
N7 Cd1 1_555 1_555
N8 C18 1_555 1_555
H53 N8 1_555 1_555
H54 N8 1_555 1_555
N9 Cd1 1_555 1_555
N10 Cd2 1_555 1_555
N11 C19 1_555 1_555
H55 N11 1_555 1_555
H56 N11 1_555 1_555
N12 Cd2 1_555 1_555
N13 C25 1_555 1_555
N14 C30 1_555 1_555
H57 N14 1_555 1_555
H58 N14 1_555 1_555
N15 Cd3 1_555 1_555
N16 C31 1_555 1_555
N17 C31 1_555 1_555
H59 N17 1_555 1_555
H60 N17 1_555 1_555
N18 Cd4 1_555 1_555
N19 Cd3 1_555 1_555
N20 C42 1_555 1_555
H61 N20 1_555 1_555
H62 N20 1_555 1_555
N21 Cd3 1_555 1_555
N22 Cd4 1_555 1_555
N23 C43 1_555 1_555
H63 N23 1_555 1_555
H64 N23 1_555 1_555
N24 Cd4 1_555 1_555
O1 Cd2 1_555 1_555
O2 Cd2 1_555 1_555
O3 C52 1_555 1_555
O4 C52 1_555 1_555
O5 Cd4 1_555 1_555
O6 C53 1_555 1_555
O7 Cd1 1_555 1_555
O8 C56 1_555 1_555
O9 C57 1_555 1_555
O10 C57 1_555 1_555
O11 C60 1_555 1_555
O12 C60 1_555 1_555
O13 C61 1_555 1_555
O14 C61 1_555 1_555
O15 C64 1_555 1_555
O16 C64 1_555 1_555
O17 Cd1 1_555 1_555
H65 O17 1_555 1_555
H66 O17 1_555 1_555
O18 Cd2 1_555 1_555
H67 O18 1_555 1_555
H68 O18 1_555 1_555
O19 Cd3 1_555 1_555
H69 O19 1_555 1_555
H70 O19 1_555 1_555
O20 Cd4 1_555 1_555
H71 O20 1_555 1_555
H72 O20 1_555 1_555
O21 H73 1_555 1_555
H74 O21 1_555 1_555
O22 H75 1_555 1_555
H76 O22 1_555 1_555
O23 H77 1_555 1_555
H78 O23 1_555 1_555
O24 H79 1_555 1_555
H80 O24 1_555 1_555
O25 H81 1_555 1_555
H82 O25 1_555 1_555
O26 H83 1_555 1_555
H84 O26 1_555 1_555
O27 H85 1_555 1_555
H86 O27 1_555 1_555
O28 H87 1_555 1_555
H88 O28 1_555 1_555
O29 H89 1_555 1_555
H90 O29 1_555 1_555
O30 H91 1_555 1_555
H92 O30 1_555 1_555
O31 H93 1_555 1_555
H94 O31 1_555 1_555
O32 H95 1_555 1_555
H96 O32 1_555 1_555
O33 H97 1_555 1_555
H98 O33 1_555 1_555
O34 H99 1_555 1_555
H100 O34 1_555 1_555
O35 H101 1_555 1_555
H102 O35 1_555 1_555
O36 H103 1_555 1_555
H104 O36 1_555 1_555
O37 H105 1_555 1_555
H106 O37 1_555 1_555
Cd3_2 O3 1_555 1_555
O3_2 Cd3 1_555 1_555
O4_2 Cd3 1_555 1_555
C5 N1 1_555 1_555
C6 N3 1_555 1_555
C8 N6 1_555 1_555
C12 N6 1_555 1_555
C13 N7 1_555 1_555
C17 N7 1_555 1_555
C18 N9 1_555 1_555
C19 N10 1_555 1_555
C20 N12 1_555 1_555
C24 N12 1_555 1_555
C29 N13 1_555 1_555
C30 N15 1_555 1_555
C32 N18 1_555 1_555
C36 N18 1_555 1_555
C37 N19 1_555 1_555
C41 N19 1_555 1_555
C42 N21 1_555 1_555
C43 N22 1_555 1_555
C44 N24 1_555 1_555
C48 N24 1_555 1_555
C49 O1 1_555 1_555
C49 O2 1_555 1_555
C53 O5 1_555 1_555
C56 O7 1_555 1_555
N3 N4 1_555 1_555
N9 N10 1_555 1_555
N15 N16 1_555 1_555
N21 N22 1_555 1_555
O4 Cd3_2 1_555 1_555

#END
