
#######################################################################
#
#                 Cambridge Crystallographic Data Centre
#                                CCDC 
#
#######################################################################
#
# If this CIF has been generated from an entry in the Cambridge 
# Structural Database, then it will include bibliographic, chemical, 
# crystal, experimental, refinement or atomic coordinate data resulting 
# from the CCDC's data processing and validation procedures.
#
#######################################################################

data_XETYAY
_symmetry_cell_setting           monoclinic
_symmetry_space_group_name_H-M   'P 21/c'
_symmetry_Int_Tables_number      14
_space_group_name_Hall           '-P 2ybc'
loop_
_symmetry_equiv_pos_site_id
_symmetry_equiv_pos_as_xyz
1 x,y,z
2 -x,1/2+y,1/2-z
3 -x,-y,-z
4 x,1/2-y,1/2+z
_cell_length_a                   16.1468(6)
_cell_length_b                   10.7338(4)
_cell_length_c                   26.3710(11)
_cell_angle_alpha                90
_cell_angle_beta                 98.2540(13)
_cell_angle_gamma                90
_cell_volume                     4523.19
loop_
_atom_site_label
_atom_site_type_symbol
_atom_site_fract_x
_atom_site_fract_y
_atom_site_fract_z
Nb1 Nb 1.21488(2) 0.66330(3) 1.075952(15)
Mn1 Mn 1.5000 0.5000 1.0000
Mn2 Mn 0.87770(4) 0.77644(6) 1.00858(2)
Mn3 Mn 0.77655(4) 0.82665(6) 0.89002(2)
O1 O 1.7176(2) 0.1979(3) 1.13077(13)
O2 O 0.75609(16) 0.8205(3) 0.96801(11)
O3 O 0.90240(17) 0.7864(3) 0.92964(11)
O4 O 0.84854(19) 0.8213(3) 1.08206(12)
O5 O 0.9395(2) 0.6377(3) 0.73579(13)
O6 O 0.51979(18) 0.7550(3) 0.73737(12)
O7 O 0.9158(2) 0.9811(3) 1.01222(14)
N1 N 1.3975(3) 0.5845(4) 1.03412(15)
N2 N 1.0096(2) 0.7314(4) 1.03646(14)
N3 N 1.1541(3) 0.4267(3) 0.99349(14)
N4 N 1.2457(3) 0.3740(4) 1.12689(14)
N5 N 1.2047(3) 0.9714(4) 1.10109(14)
N6 N 1.2167(3) 0.8071(4) 0.96070(15)
N7 N 1.1171(3) 0.6836(4) 1.18154(15)
N8 N 1.3717(3) 0.6986(4) 1.17663(15)
N9 N 1.5552(2) 0.4208(4) 1.07941(14)
N10 N 0.5726(2) 0.6854(3) 1.01047(14)
N11 N 1.0738(3) 0.7674(4) 0.85749(15)
N12 N 0.7137(3) 0.8312(5) 1.17759(17)
N13 N 0.8272(2) 0.8381(4) 0.81200(13)
N14 N 0.6448(3) 0.8683(3) 0.85194(14)
C1 C 1.3361(3) 0.6132(4) 1.04882(17)
C2 C 1.0788(3) 0.7064(4) 1.04939(16)
C3 C 1.1734(3) 0.5129(4) 1.01869(16)
C4 C 1.2375(3) 0.4746(4) 1.11166(16)
C5 C 1.2092(3) 0.8666(4) 1.09190(16)
C6 C 1.2151(3) 0.7591(4) 0.99972(18)
C7 C 1.1503(3) 0.6726(4) 1.14582(16)
C8 C 1.3186(3) 0.6928(4) 1.14238(17)
C9 C 1.6183(3) 0.3366(5) 1.08284(17)
C10 C 1.6528(3) 0.2817(5) 1.12858(18)
C11 C 1.6224(3) 0.3127(5) 1.17306(18)
C12 C 1.5572(3) 0.3975(5) 1.17003(19)
C13 C 1.5257(3) 0.4491(5) 1.12272(18)
C14 C 0.6409(3) 0.7029(4) 0.98755(16)
C15 C 0.6872(3) 0.8134(4) 0.98969(16)
C16 C 0.6581(3) 0.9132(4) 1.01601(18)
C17 C 0.5882(3) 0.8964(5) 1.04035(19)
C18 C 0.5473(3) 0.7823(5) 1.03676(18)
C19 C 1.0104(3) 0.8157(5) 0.87928(17)
C20 C 0.9664(3) 0.7402(4) 0.90997(17)
C21 C 0.9923(3) 0.6157(5) 0.91681(18)
C22 C 1.0581(3) 0.5709(5) 0.89358(18)
C23 C 1.0988(3) 0.6488(5) 0.86405(17)
C24 C 0.7670(3) 0.8682(5) 1.14591(18)
C25 C 0.7940(3) 0.7854(5) 1.11000(17)
C26 C 0.7594(3) 0.6648(5) 1.10881(18)
C27 C 0.7038(4) 0.6325(5) 1.1418(2)
C28 C 0.6814(4) 0.7163(6) 1.1765(2)
C29 C 0.8600(3) 0.7385(4) 0.79187(16)
C30 C 0.9064(3) 0.7459(4) 0.75146(18)
C31 C 0.9195(3) 0.8609(5) 0.73038(17)
C32 C 0.8845(3) 0.9640(5) 0.75083(18)
C33 C 0.8390(3) 0.9495(4) 0.79077(17)
C34 C 0.6160(3) 0.8016(4) 0.81032(17)
C35 C 0.5413(3) 0.8306(5) 0.77864(16)
C36 C 0.4951(3) 0.9328(5) 0.79085(18)
C37 C 0.5253(3) 0.9995(5) 0.83454(19)
C38 C 0.5995(3) 0.9664(4) 0.86391(18)
H1 H 1.7312 0.1892 1.1014
H2 H 0.9680 0.6532 0.7123
H3 H 0.4821 0.7893 0.7168
H4 H 1.6399 0.3141 1.0525
H5 H 1.6455 0.2770 1.2049
H6 H 1.5341 0.4201 1.1999
H7 H 1.4811 0.5073 1.1212
H8 H 0.6590 0.6354 0.9686
H9 H 0.6856 0.9916 1.0173
H10 H 0.5684 0.9625 1.0594
H11 H 0.4995 0.7722 1.0536
H12 H 1.100(4) 0.824(6) 0.833(3)
H13 H 0.9953 0.9007 0.8739
H14 H 0.9646 0.5618 0.9375
H15 H 1.0750 0.4864 0.8981
H16 H 1.1444 0.6188 0.8484
H17 H 0.700(5) 0.899(7) 1.197(3)
H18 H 0.7869 0.9516 1.1477
H19 H 0.7745 0.6052 1.0851
H20 H 0.6807 0.5509 1.1404
H21 H 0.6437 0.6934 1.1994
H22 H 0.8513 0.6588 0.8059
H23 H 0.9514 0.8690 0.7029
H24 H 0.8918 1.0446 0.7373
H25 H 0.8149 1.0213 0.8039
H26 H 0.6476 0.7318 0.8019
H27 H 0.4446 0.9561 0.7699
H28 H 0.4945 1.0688 0.8443
H29 H 0.6192 1.0143 0.8935
H30 H 0.9300 1.0018 0.9839
H31 H 0.8863 1.0413 1.0193
Nb1B Nb 0.78512(2) 0.33670(3) 0.924048(15)
Mn2B Mn 1.12230(4) 0.22356(6) 0.99142(2)
Mn3B Mn 1.22345(4) 0.17335(6) 1.10998(2)
O2B O 1.24391(16) 0.1795(3) 1.03199(11)
O3B O 1.09760(17) 0.2136(3) 1.07036(11)
O4B O 1.15146(19) 0.1787(3) 0.91794(12)
O5B O 1.0605(2) 0.3623(3) 1.26421(13)
O6B O 1.48021(18) 0.2450(3) 1.26263(12)
O7B O 1.0842(2) 0.0189(3) 0.98778(14)
N1B N 0.6025(3) 0.4155(4) 0.96588(15)
N2B N 0.9904(2) 0.2686(4) 0.96354(14)
N3B N 0.8459(3) 0.5733(3) 1.00651(14)
N4B N 0.7543(3) 0.6260(4) 0.87311(14)
N5B N 0.7953(3) 0.0286(4) 0.89891(14)
N6B N 0.7833(3) 0.1929(4) 1.03930(15)
N7B N 0.8829(3) 0.3164(4) 0.81846(15)
N8B N 0.6283(3) 0.3014(4) 0.82337(15)
N10B N 1.4274(2) 0.3146(3) 0.98953(14)
N11B N 0.9262(3) 0.2326(4) 1.14251(15)
N12B N 1.2863(3) 0.1688(5) 0.82241(17)
N13B N 1.1728(2) 0.1619(4) 1.18800(13)
N14B N 1.3552(3) 0.1317(3) 1.14806(14)
C1B C 0.6639(3) 0.3868(4) 0.95118(17)
C2B C 0.9212(3) 0.2936(4) 0.95061(16)
C3B C 0.8266(3) 0.4871(4) 0.98131(16)
C4B C 0.7625(3) 0.5254(4) 0.88834(16)
C5B C 0.7908(3) 0.1334(4) 0.90810(16)
C6B C 0.7849(3) 0.2409(4) 1.00028(18)
C7B C 0.8497(3) 0.3274(4) 0.85418(16)
C8B C 0.6814(3) 0.3072(4) 0.85762(17)
C14B C 1.3591(3) 0.2971(4) 1.01245(16)
C15B C 1.3128(3) 0.1866(4) 1.01031(16)
C16B C 1.3419(3) 0.0868(4) 0.98399(18)
C17B C 1.4118(3) 0.1036(5) 0.95965(19)
C18B C 1.4527(3) 0.2177(5) 0.96324(18)
C19B C 0.9896(3) 0.1843(5) 1.12072(17)
C20B C 1.0336(3) 0.2598(4) 1.09003(17)
C21B C 1.0077(3) 0.3843(5) 1.08319(18)
C22B C 0.9419(3) 0.4291(5) 1.10642(18)
C23B C 0.9012(3) 0.3512(5) 1.13595(17)
C24B C 1.2330(3) 0.1318(5) 0.85409(18)
C25B C 1.2060(3) 0.2146(5) 0.89000(17)
C26B C 1.2406(3) 0.3352(5) 0.89119(18)
C27B C 1.2962(4) 0.3675(5) 0.8582(2)
C28B C 1.3186(4) 0.2837(6) 0.8235(2)
C29B C 1.1400(3) 0.2615(4) 1.20813(16)
C30B C 1.0936(3) 0.2541(4) 1.24854(18)
C31B C 1.0805(3) 0.1391(5) 1.26962(17)
C32B C 1.1155(3) 0.0360(5) 1.24917(18)
C33B C 1.1610(3) 0.0505(4) 1.20923(17)
C34B C 1.3840(3) 0.1984(4) 1.18968(17)
C35B C 1.4587(3) 0.1694(5) 1.22136(16)
C36B C 1.5049(3) 0.0672(5) 1.20915(18)
C37B C 1.4747(3) 0.0005(5) 1.16546(19)
C38B C 1.4005(3) 0.0336(4) 1.13609(18)
H2B H 1.0320 0.3468 1.2877
H3B H 1.5179 0.2107 1.2832
H8B H 1.3410 0.3646 1.0314
H9B H 1.3144 0.0084 0.9827
H10B H 1.4316 0.0375 0.9406
H11B H 1.5005 0.2278 0.9464
H12B H 0.900(4) 0.176(6) 1.167(3)
H13B H 1.0047 0.0993 1.1261
H14B H 1.0354 0.4382 1.0625
H15B H 0.9250 0.5136 1.1019
H16B H 0.8556 0.3812 1.1516
H17B H 1.300(5) 0.101(7) 0.803(3)
H18B H 1.2131 0.0484 0.8523
H19B H 1.2255 0.3948 0.9149
H20B H 1.3193 0.4491 0.8596
H21B H 1.3563 0.3066 0.8006
H22B H 1.1487 0.3412 1.1941
H23B H 1.0486 0.1310 1.2971
H24B H 1.1082 -0.0446 1.2627
H25B H 1.1851 -0.0213 1.1961
H26B H 1.3524 0.2682 1.1981
H27B H 1.5554 0.0439 1.2301
H28B H 1.5055 -0.0688 1.1557
H29B H 1.3808 -0.0143 1.1065
H30B H 1.0700 -0.0018 1.0161
H31B H 1.1137 -0.0413 0.9807
O1B O 1.2824(2) 0.8021(3) 0.86923(13)
N9B N 1.4448(2) 0.5792(4) 0.92059(14)
C9B C 1.3817(3) 0.6634(5) 0.91716(17)
C10B C 1.3472(3) 0.7183(5) 0.87142(18)
C11B C 1.3776(3) 0.6873(5) 0.82694(18)
C12B C 1.4428(3) 0.6025(5) 0.82997(19)
C13B C 1.4743(3) 0.5509(5) 0.87728(18)
H1B H 1.2688 0.8108 0.8986
H4B H 1.3601 0.6859 0.9475
H5B H 1.3545 0.7230 0.7951
H6B H 1.4659 0.5799 0.8001
H7B H 1.5189 0.4927 0.8788
Mn1_2 Mn 0.5000 0.5000 1.0000
Mn3_2 Mn 0.77655(4) -0.17335(6) 0.89002(2)
Mn3B_2 Mn 1.22345(4) 1.17335(6) 1.10998(2)
N1B_2 N 1.6025(3) 0.4155(4) 0.96588(15)
N5_2 N 1.2047(3) -0.0286(4) 1.10109(14)
N5B_2 N 0.7953(3) 1.0286(4) 0.89891(14)
N10_2 N 1.5726(2) 0.6854(3) 1.01047(14)
O8 O 0.98675(19) 0.6213(3) 0.64713(12)
H32 H 1.0247 0.6728 0.6439
H33 H 0.9490 0.6373 0.6230
O9 O 0.8689(3) 0.4028(4) 0.71983(13)
H34 H 0.8847 0.3658 0.7480
H35 H 0.8884 0.4754 0.7240
O10 O 0.7103(3) 0.4770(4) 0.74555(15)
H36 H 0.7043 0.4420 0.7732
H37 H 0.7527 0.4418 0.7362
loop_
_geom_bond_atom_site_label_1
_geom_bond_atom_site_label_2
_geom_bond_site_symmetry_1
_geom_bond_site_symmetry_2
Nb1 C1 1_555 1_555
Mn1 N1 1_555 1_555
Mn2 O2 1_555 1_555
Mn3 O2 1_555 1_555
O1 C10 1_555 1_555
O2 C15 1_555 1_555
O3 Mn2 1_555 1_555
O4 Mn2 1_555 1_555
O5 C30 1_555 1_555
O6 C35 1_555 1_555
O7 Mn2 1_555 1_555
N1 C1 1_555 1_555
N2 Mn2 1_555 1_555
N3 C3 1_555 1_555
N4 C4 1_555 1_555
N5 C5 1_555 1_555
N6 C6 1_555 1_555
N7 C7 1_555 1_555
N8 C8 1_555 1_555
N9 Mn1 1_555 1_555
N10 C14 1_555 1_555
N11 C19 1_555 1_555
N12 C24 1_555 1_555
N13 Mn3 1_555 1_555
N14 Mn3 1_555 1_555
C2 Nb1 1_555 1_555
C3 Nb1 1_555 1_555
C4 Nb1 1_555 1_555
C5 Nb1 1_555 1_555
C6 Nb1 1_555 1_555
C7 Nb1 1_555 1_555
C8 Nb1 1_555 1_555
C9 N9 1_555 1_555
C10 C9 1_555 1_555
C11 C10 1_555 1_555
C12 C11 1_555 1_555
C13 N9 1_555 1_555
C14 C15 1_555 1_555
C15 C16 1_555 1_555
C16 C17 1_555 1_555
C17 C18 1_555 1_555
C18 N10 1_555 1_555
C19 C20 1_555 1_555
C20 O3 1_555 1_555
C21 C20 1_555 1_555
C22 C21 1_555 1_555
C23 N11 1_555 1_555
C24 C25 1_555 1_555
C25 O4 1_555 1_555
C26 C25 1_555 1_555
C27 C26 1_555 1_555
C28 N12 1_555 1_555
C29 N13 1_555 1_555
C30 C29 1_555 1_555
C31 C30 1_555 1_555
C32 C31 1_555 1_555
C33 N13 1_555 1_555
C34 N14 1_555 1_555
C35 C34 1_555 1_555
C36 C35 1_555 1_555
C37 C36 1_555 1_555
C38 N14 1_555 1_555
H1 O1 1_555 1_555
H2 O5 1_555 1_555
H3 O6 1_555 1_555
H4 C9 1_555 1_555
H5 C11 1_555 1_555
H6 C12 1_555 1_555
H7 C13 1_555 1_555
H8 C14 1_555 1_555
H9 C16 1_555 1_555
H10 C17 1_555 1_555
H11 C18 1_555 1_555
H12 N11 1_555 1_555
H13 C19 1_555 1_555
H14 C21 1_555 1_555
H15 C22 1_555 1_555
H16 C23 1_555 1_555
H17 N12 1_555 1_555
H18 C24 1_555 1_555
H19 C26 1_555 1_555
H20 C27 1_555 1_555
H21 C28 1_555 1_555
H22 C29 1_555 1_555
H23 C31 1_555 1_555
H24 C32 1_555 1_555
H25 C33 1_555 1_555
H26 C34 1_555 1_555
H27 C36 1_555 1_555
H28 C37 1_555 1_555
H29 C38 1_555 1_555
H30 O7 1_555 1_555
H31 O7 1_555 1_555
O8 H32 1_555 1_555
H33 O8 1_555 1_555
O9 H34 1_555 1_555
H35 O9 1_555 1_555
O10 H36 1_555 1_555
H37 O10 1_555 1_555
Nb1B C1B 1_555 1_555
Mn2B N3 1_555 1_555
Mn3B N4 1_555 1_555
O2B Mn2B 1_555 1_555
O3B Mn2B 1_555 1_555
O4B Mn2B 1_555 1_555
O5B C30B 1_555 1_555
O6B C35B 1_555 1_555
O7B Mn2B 1_555 1_555
N1B C1B 1_555 1_555
N2B Mn2B 1_555 1_555
N3B Mn2 1_555 1_555
N4B Mn3 1_555 1_555
N5B C5B 1_555 1_555
N6B C6B 1_555 1_555
N7B C7B 1_555 1_555
N8B C8B 1_555 1_555
N10B Mn1 1_555 1_555
N11B C19B 1_555 1_555
N12B C24B 1_555 1_555
N13B Mn3B 1_555 1_555
N14B Mn3B 1_555 1_555
C2B Nb1B 1_555 1_555
C3B Nb1B 1_555 1_555
C4B Nb1B 1_555 1_555
C5B Nb1B 1_555 1_555
C6B Nb1B 1_555 1_555
C7B Nb1B 1_555 1_555
C8B Nb1B 1_555 1_555
C14B N10B 1_555 1_555
C15B O2B 1_555 1_555
C16B C15B 1_555 1_555
C17B C16B 1_555 1_555
C18B N10B 1_555 1_555
C19B C20B 1_555 1_555
C20B O3B 1_555 1_555
C21B C20B 1_555 1_555
C22B C21B 1_555 1_555
C23B N11B 1_555 1_555
C24B C25B 1_555 1_555
C25B O4B 1_555 1_555
C26B C25B 1_555 1_555
C27B C26B 1_555 1_555
C28B N12B 1_555 1_555
C29B N13B 1_555 1_555
C30B C29B 1_555 1_555
C31B C30B 1_555 1_555
C32B C31B 1_555 1_555
C33B N13B 1_555 1_555
C34B N14B 1_555 1_555
C35B C34B 1_555 1_555
C36B C35B 1_555 1_555
C37B C36B 1_555 1_555
C38B N14B 1_555 1_555
H2B O5B 1_555 1_555
H3B O6B 1_555 1_555
H8B C14B 1_555 1_555
H9B C16B 1_555 1_555
H10B C17B 1_555 1_555
H11B C18B 1_555 1_555
H12B N11B 1_555 1_555
H13B C19B 1_555 1_555
H14B C21B 1_555 1_555
H15B C22B 1_555 1_555
H16B C23B 1_555 1_555
H17B N12B 1_555 1_555
H18B C24B 1_555 1_555
H19B C26B 1_555 1_555
H20B C27B 1_555 1_555
H21B C28B 1_555 1_555
H22B C29B 1_555 1_555
H23B C31B 1_555 1_555
H24B C32B 1_555 1_555
H25B C33B 1_555 1_555
H26B C34B 1_555 1_555
H27B C36B 1_555 1_555
H28B C37B 1_555 1_555
H29B C38B 1_555 1_555
H30B O7B 1_555 1_555
H31B O7B 1_555 1_555
O1B C10B 1_555 1_555
N9B Mn1 1_555 1_555
C9B N9B 1_555 1_555
C10B C9B 1_555 1_555
C11B C10B 1_555 1_555
C12B C11B 1_555 1_555
C13B N9B 1_555 1_555
H1B O1B 1_555 1_555
H4B C9B 1_555 1_555
H5B C11B 1_555 1_555
H6B C12B 1_555 1_555
H7B C13B 1_555 1_555
Mn1_2 N10 1_555 1_555
Mn3_2 N5B 1_555 1_555
Mn3B_2 N5 1_555 1_555
N1B_2 Mn1 1_555 1_555
N5_2 Mn3B 1_555 1_555
N5B_2 Mn3 1_555 1_555
N10_2 Mn1 1_555 1_555
Mn3 O3 1_555 1_555
N2 C2 1_555 1_555
C12 C13 1_555 1_555
C22 C23 1_555 1_555
C27 C28 1_555 1_555
C32 C33 1_555 1_555
C37 C38 1_555 1_555
Mn3B O2B 1_555 1_555
Mn3B O3B 1_555 1_555
N1B Mn1_2 1_555 1_555
N2B C2B 1_555 1_555
N3B C3B 1_555 1_555
N4B C4B 1_555 1_555
C14B C15B 1_555 1_555
C17B C18B 1_555 1_555
C22B C23B 1_555 1_555
C27B C28B 1_555 1_555
C32B C33B 1_555 1_555
C37B C38B 1_555 1_555
C12B C13B 1_555 1_555

#END
