
#######################################################################
#
#                 Cambridge Crystallographic Data Centre
#                                CCDC 
#
#######################################################################
#
# If this CIF has been generated from an entry in the Cambridge 
# Structural Database, then it will include bibliographic, chemical, 
# crystal, experimental, refinement or atomic coordinate data resulting 
# from the CCDC's data processing and validation procedures.
#
#######################################################################

data_XEVBUW
_symmetry_cell_setting           monoclinic
_symmetry_space_group_name_H-M   'C 2/c'
_symmetry_Int_Tables_number      15
_space_group_name_Hall           '-C 2yn'
loop_
_symmetry_equiv_pos_site_id
_symmetry_equiv_pos_as_xyz
1 x,y,z
2 1/2+x,1/2+y,z
3 -x,y,1/2-z
4 1/2-x,1/2+y,1/2-z
5 -x,-y,-z
6 1/2-x,1/2-y,-z
7 x,-y,1/2+z
8 1/2+x,1/2-y,1/2+z
_cell_length_a                   18.0238(9)
_cell_length_b                   8.6269(4)
_cell_length_c                   10.9220(6)
_cell_angle_alpha                90
_cell_angle_beta                 114.019(4)
_cell_angle_gamma                90
_cell_volume                     1551.21
loop_
_atom_site_label
_atom_site_type_symbol
_atom_site_fract_x
_atom_site_fract_y
_atom_site_fract_z
Na1 Na 0.00000 0.0996(2) 0.25000
O1 O 0.11402(11) 0.2833(3) 0.2653(2)
N1 N 0.09525(12) 0.1764(3) 0.4758(2)
N2 N 0.0678(2) 0.0831(4) 0.6659(3)
C1 C 0.17196(13) 0.2104(3) 0.4917(2)
C2 C 0.18346(14) 0.2677(3) 0.3769(2)
C3 C 0.25926(14) 0.3045(3) 0.3866(2)
C4 C 0.08388(15) 0.1279(4) 0.5805(3)
C5 C 0.1153(2) 0.3705(6) 0.1518(3)
C6 C 0.1354(3) 0.2673(6) 0.0611(4)
C7 C 0.1307(5) 0.3600(8) -0.0582(5)
H1 H 0.2656 0.3402 0.3111
H2 H 0.1553 0.4527 0.1841
H3 H 0.0626 0.4176 0.1028
H4 H 0.0975 0.1815 0.0324
H5 H 0.1897 0.2256 0.1077
H6 H 0.137 0.2921 -0.123
H7 H 0.173 0.436 -0.0304
H8 H 0.0789 0.411 -0.097
Na1F Na 0.00000 -0.0996(2) 0.75000
Na1G Na 0.50000 0.4004(2) 0.75000
Na1A Na 0.50000 0.5996(2) 0.25000
O1E O 0.38598(11) 0.2167(3) 0.7347(2)
O1B O -0.11402(11) 0.2833(3) 0.2347(2)
N1E N 0.40475(12) 0.3236(3) 0.5242(2)
N1B N -0.09525(12) 0.1764(3) 0.0242(2)
N2E N 0.4322(2) 0.4169(4) 0.3341(3)
N2F N 0.0678(2) -0.0831(4) 0.1659(3)
N2D N -0.0678(2) -0.0831(4) 0.3341(3)
C1E C 0.32804(13) 0.2896(3) 0.5083(2)
C2E C 0.31654(14) 0.2323(3) 0.6231(2)
C3E C 0.24074(14) 0.1955(3) 0.6134(2)
C4E C 0.41612(15) 0.3721(4) 0.4195(3)
C5E C 0.3847(2) 0.1295(6) 0.8482(3)
C6E C 0.3646(3) 0.2327(6) 0.9389(4)
C7E C 0.3693(5) 0.1400(8) 1.0582(5)
H1E H 0.2344 0.1598 0.6889
H2E H 0.3447 0.0473 0.8159
H3E H 0.4374 0.0824 0.8972
H4E H 0.4025 0.3185 0.9676
H5E H 0.3103 0.2744 0.8923
H6E H 0.363 0.2079 1.123
H7E H 0.327 0.064 1.0304
H8E H 0.4211 0.089 1.097
loop_
_geom_bond_atom_site_label_1
_geom_bond_atom_site_label_2
_geom_bond_site_symmetry_1
_geom_bond_site_symmetry_2
Na1 O1 1_555 1_555
O1 C2 1_555 1_555
N1 Na1 1_555 1_555
N2 C4 1_555 1_555
C1 N1 1_555 1_555
C2 C1 1_555 1_555
C3 C2 1_555 1_555
C4 N1 1_555 1_555
C5 O1 1_555 1_555
C6 C5 1_555 1_555
C7 C6 1_555 1_555
H1 C3 1_555 1_555
H2 C5 1_555 1_555
H3 C5 1_555 1_555
H4 C6 1_555 1_555
H5 C6 1_555 1_555
H6 C7 1_555 1_555
H7 C7 1_555 1_555
H8 C7 1_555 1_555
Na1F N2 1_555 1_555
Na1G O1E 1_555 1_555
Na1A N2E 1_555 1_555
O1E C2E 1_555 1_555
O1B Na1 1_555 1_555
N1E Na1G 1_555 1_555
N1B Na1 1_555 1_555
N2E C4E 1_555 1_555
N2F Na1 1_555 1_555
N2D Na1 1_555 1_555
C1E C3 1_555 1_555
C2E C1E 1_555 1_555
C3E C1 1_555 1_555
C4E N1E 1_555 1_555
C5E O1E 1_555 1_555
C6E C5E 1_555 1_555
C7E C6E 1_555 1_555
H1E C3E 1_555 1_555
H2E C5E 1_555 1_555
H3E C5E 1_555 1_555
H4E C6E 1_555 1_555
H5E C6E 1_555 1_555
H6E C7E 1_555 1_555
H7E C7E 1_555 1_555
H8E C7E 1_555 1_555
N1E C1E 1_555 1_555
C2E C3E 1_555 1_555

#END
