
#######################################################################
#
#                 Cambridge Crystallographic Data Centre
#                                CCDC 
#
#######################################################################
#
# If this CIF has been generated from an entry in the Cambridge 
# Structural Database, then it will include bibliographic, chemical, 
# crystal, experimental, refinement or atomic coordinate data resulting 
# from the CCDC's data processing and validation procedures.
#
#######################################################################

data_XEVGAI01
_symmetry_cell_setting           triclinic
_symmetry_space_group_name_H-M   'P -1'
_symmetry_Int_Tables_number      2
_space_group_name_Hall           '-P 1'
loop_
_symmetry_equiv_pos_site_id
_symmetry_equiv_pos_as_xyz
1 x,y,z
2 -x,-y,-z
_cell_length_a                   8.1573(8)
_cell_length_b                   13.7300(14)
_cell_length_c                   13.9981(14)
_cell_angle_alpha                62.583(2)
_cell_angle_beta                 86.744(2)
_cell_angle_gamma                87.794(2)
_cell_volume                     1389.31
loop_
_atom_site_label
_atom_site_type_symbol
_atom_site_fract_x
_atom_site_fract_y
_atom_site_fract_z
Mn1 Mn -1.0000 0.0000 0.5000
Mn2 Mn -1.23789(3) -0.13299(2) 0.74643(2)
O1 O -1.14721(18) 0.01895(12) 0.62784(12)
O2 O -1.34350(19) -0.19486(13) 0.65270(13)
O3 O -1.02758(19) -0.23057(15) 0.77229(14)
O4 O -1.19222(19) -0.10310(13) 0.50072(12)
O5 O -1.1861(2) 0.05344(14) 0.76520(14)
N1 N -1.4900(2) -0.09351(15) 0.79324(14)
C1 C -0.7503(3) -0.28396(19) 0.76957(18)
N2 N -1.2454(2) -0.19340(16) 0.92682(15)
C2 C -0.8952(3) -0.21361(18) 0.71636(17)
C3 C -1.2896(3) -0.17744(17) 0.56004(18)
C4 C -1.1529(2) 0.08570(17) 0.66917(18)
C5 C -1.1129(3) 0.20155(19) 0.5940(2)
C6 C -0.7598(3) -0.3653(2) 0.86899(19)
C7 C -1.4234(3) -0.3412(2) 0.5706(2)
C8 C -1.3423(3) -0.2504(2) 0.5160(2)
C9 C -1.3841(3) -0.1670(2) 0.96886(18)
C10 C -1.5154(3) -0.11351(19) 0.89720(17)
C11 C -1.0991(4) 0.2760(2) 0.6267(2)
C12 C -1.6084(3) -0.0418(2) 0.7258(2)
H1 H -1.5916 -0.0265 0.6540
C13 C -1.0502(4) 0.3906(2) 0.5604(2)
C14 C -1.0079(4) 0.4331(2) 0.4514(2)
H2 H -1.0138 0.3886 0.4178
C15 C -0.9569(5) 0.5410(2) 0.3912(2)
H3 H -0.9275 0.5676 0.3184
C16 C -1.6610(3) -0.0839(2) 0.9363(2)
C17 C -1.7836(3) -0.0305(3) 0.8617(2)
H4 H -1.8827 -0.0097 0.8838
C18 C -1.7562(3) -0.0094(3) 0.7575(2)
H5 H -1.8359 0.0266 0.7076
C19 C -1.1201(4) -0.2385(3) 0.9909(2)
H6 H -1.0248 -0.2576 0.9633
C20 C -1.6742(4) -0.1061(3) 1.0470(2)
H7 H -1.7704 -0.0866 1.0734
C21 C -1.4011(4) -0.1858(3) 1.0765(2)
C22 C -1.5514(4) -0.1542(3) 1.1134(2)
H8 H -1.5639 -0.1674 1.1848
C23 C -1.2656(5) -0.2334(3) 1.1406(2)
H9 H -1.2713 -0.2479 1.2124
C24 C -1.5345(6) -0.5172(3) 0.6011(3)
H10 H -1.5607 -0.5319 0.6720
C25 C -1.1271(5) -0.2582(4) 1.0984(3)
H11 H -1.0368 -0.2883 1.1407
C26 C -1.5688(6) -0.5947(3) 0.5679(3)
H12 H -1.6165 -0.6601 0.6177
C27 C -1.4638(3) -0.4208(2) 0.5331(2)
O6 O -0.87378(19) -0.14157(13) 0.62131(12)
C28 C -0.6609(3) -0.5186(2) 1.0374(2)
H13 H -0.7697 -0.5313 1.0630
C29 C -0.5388(3) -0.5832(2) 1.1022(2)
H14 H -0.5662 -0.6389 1.1705
C30 C -0.6252(3) -0.43410(19) 0.93362(18)
H15 H -0.6528(19) -0.265(2) 0.7288(18)
H16 H -0.8646(17) -0.378(2) 0.9022(19)
H17 H -1.119(3) 0.251(2) 0.7003(9)
H18 H -1.090(3) 0.224(2) 0.5209(10)
H19 H -1.308(3) -0.231(2) 0.4451(11)
H20 H -1.447(4) -0.360(2) 0.6426(10)
O1A O -0.85279(18) 0.98105(12) 0.37216(12)
O5A O -0.8139(2) 0.94656(14) 0.23480(14)
C4A C -0.8471(2) 0.91430(17) 0.33083(18)
C5A C -0.8871(3) 0.79845(19) 0.4060(2)
C11A C -0.9009(4) 0.7240(2) 0.3733(2)
C13A C -0.9498(4) 0.6094(2) 0.4396(2)
C14A C -0.9921(4) 0.5669(2) 0.5486(2)
H2A H -0.9862 0.6114 0.5822
C15A C -1.0431(5) 0.4590(2) 0.6088(2)
H3A H -1.0725 0.4324 0.6816
H17A H -0.881(3) 0.749(2) 0.2997(9)
H18A H -0.910(3) 0.776(2) 0.4791(10)
O2A O -1.65650(19) -0.80514(13) 0.34730(13)
O4A O -1.80778(19) -0.89690(13) 0.49928(12)
C3A C -1.7104(3) -0.82256(17) 0.43996(18)
C7A C -1.5766(3) -0.6588(2) 0.4294(2)
C8A C -1.6577(3) -0.7496(2) 0.4840(2)
C24A C -1.4655(6) -0.4828(3) 0.3989(3)
H10A H -1.4393 -0.4681 0.3280
C26A C -1.4312(6) -0.4053(3) 0.4321(3)
H12A H -1.3835 -0.3399 0.3823
C27A C -1.5362(3) -0.5792(2) 0.4669(2)
H19A H -1.692(3) -0.769(2) 0.5549(11)
H20A H -1.553(4) -0.640(2) 0.3574(10)
O3A O 0.02758(19) -0.76943(15) 1.22771(14)
C1A C -0.2497(3) -0.71604(19) 1.23043(18)
C2A C -0.1048(3) -0.78639(18) 1.28364(17)
C6A C -0.2402(3) -0.6347(2) 1.13101(19)
O6A O -0.12622(19) -0.85843(13) 1.37869(12)
C28A C -0.3391(3) -0.4814(2) 0.9626(2)
H13A H -0.2303 -0.4687 0.9370
C29A C -0.4612(3) -0.4168(2) 0.8978(2)
H14A H -0.4338 -0.3611 0.8295
C30A C -0.3748(3) -0.56590(19) 1.06638(18)
H15A H -0.3472(19) -0.735(2) 1.2712(18)
H16A H -0.1354(17) -0.622(2) 1.0978(19)
Mn2A Mn -1.76211(3) -0.86701(2) 0.25357(2)
N1A N -1.5100(2) -0.90649(15) 0.20676(14)
N2A N -1.7546(2) -0.80660(16) 0.07318(15)
C9A C -1.6159(3) -0.8330(2) 0.03114(18)
C10A C -1.4846(3) -0.88649(19) 0.10280(17)
C12A C -1.3916(3) -0.9582(2) 0.2742(2)
H1A H -1.4084 -0.9735 0.3460
C16A C -1.3390(3) -0.9161(2) 0.0637(2)
C17A C -1.2164(3) -0.9695(3) 0.1383(2)
H4A H -1.1173 -0.9903 0.1162
C18A C -1.2438(3) -0.9906(3) 0.2425(2)
H5A H -1.1641 -1.0266 0.2924
C19A C -1.8799(4) -0.7615(3) 0.0091(2)
H6A H -1.9752 -0.7424 0.0367
C20A C -1.3258(4) -0.8939(3) -0.0470(2)
H7A H -1.2296 -0.9134 -0.0734
C21A C -1.5989(4) -0.8142(3) -0.0765(2)
C22A C -1.4486(4) -0.8458(3) -0.1134(2)
H8A H -1.4361 -0.8326 -0.1848
C23A C -1.7344(5) -0.7666(3) -0.1406(2)
H9A H -1.7287 -0.7521 -0.2124
C25A C -1.8729(5) -0.7418(4) -0.0984(3)
H11A H -1.9632 -0.7117 -0.1407
Mn1_2 Mn -2.0000 -1.0000 0.5000
Mn1_3 Mn -1.0000 1.0000 0.5000
Mn1_4 Mn 0.0000 -1.0000 1.5000
Mn2A_2 Mn -0.76211(3) 1.13299(2) 0.25357(2)
Mn2A_3 Mn 0.23789(3) -0.86701(2) 1.25357(2)
O1A_2 O -1.85279(18) -1.01895(12) 0.37216(12)
O1A_3 O -0.85279(18) -0.01895(12) 0.37216(12)
O3A_2 O -1.97242(19) -0.76943(15) 0.22771(14)
O4A_2 O -0.80778(19) 0.10310(13) 0.49928(12)
O6A_2 O -1.12622(19) 0.14157(13) 0.37869(12)
loop_
_geom_bond_atom_site_label_1
_geom_bond_atom_site_label_2
_geom_bond_site_symmetry_1
_geom_bond_site_symmetry_2
Mn1 O1 1_555 1_555
Mn2 O1 1_555 1_555
O1 C4 1_555 1_555
O2 Mn2 1_555 1_555
O3 Mn2 1_555 1_555
O4 Mn1 1_555 1_555
O5 C4 1_555 1_555
N1 Mn2 1_555 1_555
C1 C2 1_555 1_555
N2 Mn2 1_555 1_555
C2 O3 1_555 1_555
C3 O2 1_555 1_555
C4 C5 1_555 1_555
C5 C11 1_555 1_555
C6 C1 1_555 1_555
C7 C8 1_555 1_555
C8 C3 1_555 1_555
C9 N2 1_555 1_555
C10 N1 1_555 1_555
C11 C13 1_555 1_555
C12 N1 1_555 1_555
H1 C12 1_555 1_555
C13 C14 1_555 1_555
C14 H2 1_555 1_555
C15 C14 1_555 1_555
H3 C15 1_555 1_555
C16 C10 1_555 1_555
C17 C16 1_555 1_555
H4 C17 1_555 1_555
C18 C12 1_555 1_555
H5 C18 1_555 1_555
C19 N2 1_555 1_555
H6 C19 1_555 1_555
C20 C16 1_555 1_555
H7 C20 1_555 1_555
C21 C9 1_555 1_555
C22 C20 1_555 1_555
H8 C22 1_555 1_555
C23 C21 1_555 1_555
H9 C23 1_555 1_555
C24 H10 1_555 1_555
C25 C19 1_555 1_555
H11 C25 1_555 1_555
C26 C24 1_555 1_555
H12 C26 1_555 1_555
C27 C7 1_555 1_555
O6 Mn1 1_555 1_555
C28 H13 1_555 1_555
C29 C28 1_555 1_555
H14 C29 1_555 1_555
C30 C6 1_555 1_555
H15 C1 1_555 1_555
H16 C6 1_555 1_555
H17 C11 1_555 1_555
H18 C5 1_555 1_555
H19 C8 1_555 1_555
H20 C7 1_555 1_555
O1A C4A 1_555 1_555
O5A C4A 1_555 1_555
C4A C5A 1_555 1_555
C5A C11A 1_555 1_555
C11A C13A 1_555 1_555
C13A C15 1_555 1_555
C14A C13A 1_555 1_555
H2A C14A 1_555 1_555
C15A C13 1_555 1_555
H3A C15A 1_555 1_555
H17A C11A 1_555 1_555
H18A C5A 1_555 1_555
O2A C3A 1_555 1_555
O4A C3A 1_555 1_555
C3A C8A 1_555 1_555
C7A C8A 1_555 1_555
C8A H19A 1_555 1_555
C24A H10A 1_555 1_555
C26A C27 1_555 1_555
H12A C26A 1_555 1_555
C27A C26 1_555 1_555
H20A C7A 1_555 1_555
O3A C2A 1_555 1_555
C1A C2A 1_555 1_555
C2A O6A 1_555 1_555
C6A C1A 1_555 1_555
O6A Mn1_4 1_555 1_555
C28A H13A 1_555 1_555
C29A C30 1_555 1_555
H14A C29A 1_555 1_555
C30A C29 1_555 1_555
H15A C1A 1_555 1_555
H16A C6A 1_555 1_555
Mn2A O2A 1_555 1_555
N1A Mn2A 1_555 1_555
N2A Mn2A 1_555 1_555
C9A N2A 1_555 1_555
C10A N1A 1_555 1_555
C12A N1A 1_555 1_555
H1A C12A 1_555 1_555
C16A C10A 1_555 1_555
C17A C16A 1_555 1_555
H4A C17A 1_555 1_555
C18A C12A 1_555 1_555
H5A C18A 1_555 1_555
C19A N2A 1_555 1_555
H6A C19A 1_555 1_555
C20A C16A 1_555 1_555
H7A C20A 1_555 1_555
C21A C9A 1_555 1_555
C22A C20A 1_555 1_555
H8A C22A 1_555 1_555
C23A C21A 1_555 1_555
H9A C23A 1_555 1_555
C25A C19A 1_555 1_555
H11A C25A 1_555 1_555
Mn1_2 O4A 1_555 1_555
Mn1_3 O1A 1_555 1_555
Mn2A_2 O1A 1_555 1_555
Mn2A_3 O3A 1_555 1_555
O1A_2 Mn2A 1_555 1_555
O1A_3 Mn1 1_555 1_555
O3A_2 Mn2A 1_555 1_555
O4A_2 Mn1 1_555 1_555
O6A_2 Mn1 1_555 1_555
O4 C3 1_555 1_555
C2 O6 1_555 1_555
C9 C10 1_555 1_555
C17 C18 1_555 1_555
C21 C22 1_555 1_555
C23 C25 1_555 1_555
C24 C27 1_555 1_555
C28 C30 1_555 1_555
C14A C15A 1_555 1_555
C7A C27A 1_555 1_555
C24A C26A 1_555 1_555
C24A C27A 1_555 1_555
C6A C30A 1_555 1_555
C28A C29A 1_555 1_555
C28A C30A 1_555 1_555
C9A C10A 1_555 1_555
C17A C18A 1_555 1_555
C21A C22A 1_555 1_555
C23A C25A 1_555 1_555
Mn1_2 O1A_2 1_555 1_555

#END
