
#######################################################################
#
#                 Cambridge Crystallographic Data Centre
#                                CCDC 
#
#######################################################################
#
# If this CIF has been generated from an entry in the Cambridge 
# Structural Database, then it will include bibliographic, chemical, 
# crystal, experimental, refinement or atomic coordinate data resulting 
# from the CCDC's data processing and validation procedures.
#
#######################################################################

data_XEVGAI
_symmetry_cell_setting           triclinic
_symmetry_space_group_name_H-M   'P -1'
_symmetry_Int_Tables_number      2
_space_group_name_Hall           '-P 1'
loop_
_symmetry_equiv_pos_site_id
_symmetry_equiv_pos_as_xyz
1 x,y,z
2 -x,-y,-z
_cell_length_a                   8.0946(9)
_cell_length_b                   13.7803(14)
_cell_length_c                   14.0130(15)
_cell_angle_alpha                61.930(2)
_cell_angle_beta                 86.412(2)
_cell_angle_gamma                88.182(2)
_cell_volume                     1376.52
loop_
_atom_site_label
_atom_site_type_symbol
_atom_site_fract_x
_atom_site_fract_y
_atom_site_fract_z
Mn1 Mn 0.0000 0.0000 0.0000
Mn2 Mn -0.24305(3) -0.13701(2) 0.24710(2)
O1 O 0.14799(17) -0.01574(11) -0.12959(11)
O2 O -0.35024(18) -0.19461(12) 0.15082(11)
O3 O -0.12184(18) 0.14451(11) -0.12114(11)
O4 O 0.1925(2) -0.05256(13) -0.26574(12)
O5 O -0.19521(19) -0.10000(12) -0.00208(12)
N1 N -0.2462(2) -0.19450(14) 0.42749(14)
C1 C 0.1552(2) -0.08383(16) -0.16936(16)
N2 N -0.4955(2) -0.09817(14) 0.29516(14)
C2 C -0.0996(3) 0.21824(16) -0.21691(16)
C3 C -0.5184(3) -0.11638(17) 0.39910(16)
C4 C -0.2938(3) -0.17529(16) 0.05772(16)
C5 C 0.1123(3) -0.19985(17) -0.09328(18)
C6 C -0.2456(3) 0.28748(17) -0.26968(17)
C7 C -0.3722(3) 0.43586(17) -0.43429(17)
C8 C -0.2358(3) 0.36919(18) -0.37051(18)
C9 C -0.3374(3) 0.52097(19) -0.53952(18)
H1 H -0.2280 0.5355 -0.5664
C10 C -0.7889(3) -0.0339(2) 0.3647(2)
H2 H -0.8878 -0.0128 0.3873
C11 C -0.3448(3) -0.2486(2) 0.0135(2)
C12 C -0.5376(3) 0.41635(18) -0.39601(18)
H3 H -0.5640 0.3606 -0.3265
C13 C -0.6641(3) -0.0854(2) 0.43829(19)
C14 C -0.3992(3) -0.1826(2) 0.57686(19)
C15 C -0.6152(3) -0.0486(2) 0.22859(18)
H4 H -0.5998 -0.0354 0.1572
C16 C -0.3844(3) -0.16656(18) 0.46919(17)
C17 C -0.6755(3) -0.1051(2) 0.5484(2)
H5 H -0.7721 -0.0860 0.5753
C18 C -0.7641(3) -0.0151(2) 0.2606(2)
H6 H -0.8452 0.0196 0.2111
C19 C -0.1197(3) -0.2372(2) 0.4899(2)
H7 H -0.0249 -0.2566 0.4616
C20 C -0.5495(4) -0.1506(2) 0.6137(2)
H8 H -0.5604 -0.1616 0.6846
C21 C -0.2610(4) -0.2278(3) 0.6397(2)
H9 H -0.2642 -0.2394 0.7108
C22 C -0.1227(4) -0.2545(3) 0.5969(2)
H10 H -0.0310 -0.2840 0.6382
C23 C -0.4270(3) -0.34081(19) 0.0698(2)
C24 C 0.1020(3) -0.27449(18) -0.12592(19)
C25 C 0.0509(3) -0.38965(18) -0.0600(2)
C26 C -0.4658(3) -0.42065(19) 0.03275(19)
C27 C 0.0024(4) -0.43368(19) 0.0497(2)
H11 H 0.0043 -0.3900 0.0838
C28 C 0.0484(4) -0.45826(19) -0.1078(2)
H12 H 0.0817 -0.4306 -0.1806
C29 C -0.5444(5) -0.5162(3) 0.1005(3)
H13 H -0.5769 -0.5299 0.1706
C30 C -0.4225(6) -0.4064(3) -0.0680(3)
H14 H -0.3685 -0.3420 -0.1172
O6 O 0.03513(19) 0.23716(13) -0.27341(13)
H15 H -0.345(3) 0.2704(16) -0.2316(17)
H16 H -0.127(3) 0.3858(19) -0.407(2)
H17 H 0.090(3) -0.2179(19) -0.021(2)
H18 H 0.128(3) -0.256(2) -0.195(2)
H19 H -0.461(3) -0.359(2) 0.141(2)
H20 H -0.297(4) -0.230(2) -0.055(3)
O1A O -0.14799(17) -0.98426(11) 0.12959(11)
O4A O -0.1925(2) -0.94744(13) 0.26574(12)
C1A C -0.1552(2) -0.91617(16) 0.16936(16)
C5A C -0.1123(3) -0.80015(17) 0.09328(18)
C24A C -0.1020(3) -0.72551(18) 0.12592(19)
C25A C -0.0509(3) -0.61035(18) 0.0600(2)
C27A C -0.0024(4) -0.56632(19) -0.0497(2)
H11A H -0.0043 -0.6100 -0.0838
C28A C -0.0484(4) -0.54174(19) 0.1078(2)
H12A H -0.0817 -0.5694 0.1806
H17A H -0.090(3) -0.7821(19) 0.021(2)
H18A H -0.128(3) -0.744(2) 0.195(2)
O2A O -0.64976(18) -0.80539(12) -0.15082(11)
O5A O -0.80479(19) -0.90000(12) 0.00208(12)
C4A C -0.7062(3) -0.82471(16) -0.05772(16)
C11A C -0.6552(3) -0.7514(2) -0.0135(2)
C23A C -0.5730(3) -0.65919(19) -0.0698(2)
C26A C -0.5342(3) -0.57935(19) -0.03275(19)
C29A C -0.4556(5) -0.4838(3) -0.1005(3)
H13A H -0.4231 -0.4701 -0.1706
C30A C -0.5775(6) -0.5936(3) 0.0680(3)
H14A H -0.6315 -0.6580 0.1172
H19A H -0.539(3) -0.641(2) -0.141(2)
H20A H -0.703(4) -0.770(2) 0.055(3)
O3A O -0.87816(18) 0.85549(11) -0.87886(11)
C2A C -0.9004(3) 0.78176(16) -0.78309(16)
C6A C -0.7544(3) 0.71252(17) -0.73032(17)
C7A C -0.6278(3) 0.56414(17) -0.56571(17)
C8A C -0.7642(3) 0.63081(18) -0.62949(18)
C9A C -0.6626(3) 0.47903(19) -0.46048(18)
H1A H -0.7720 0.4645 -0.4336
C12A C -0.4624(3) 0.58365(18) -0.60399(18)
H3A H -0.4360 0.6394 -0.6735
O6A O -1.03513(19) 0.76284(13) -0.72659(13)
H15A H -0.655(3) 0.7296(16) -0.7684(17)
H16A H -0.873(3) 0.6142(19) -0.593(2)
Mn2A Mn -0.75695(3) -0.86299(2) -0.24710(2)
N1A N -0.7538(2) -0.80550(14) -0.42749(14)
N2A N -0.5045(2) -0.90183(14) -0.29516(14)
C3A C -0.4816(3) -0.88362(17) -0.39910(16)
C10A C -0.2111(3) -0.9661(2) -0.3647(2)
H2A H -0.1122 -0.9872 -0.3873
C13A C -0.3359(3) -0.9146(2) -0.43829(19)
C14A C -0.6008(3) -0.8174(2) -0.57686(19)
C15A C -0.3848(3) -0.9514(2) -0.22859(18)
H4A H -0.4002 -0.9646 -0.1572
C16A C -0.6156(3) -0.83344(18) -0.46919(17)
C17A C -0.3245(3) -0.8949(2) -0.5484(2)
H5A H -0.2279 -0.9140 -0.5753
C18A C -0.2359(3) -0.9849(2) -0.2606(2)
H6A H -0.1548 -1.0196 -0.2111
C19A C -0.8803(3) -0.7628(2) -0.4899(2)
H7A H -0.9751 -0.7434 -0.4616
C20A C -0.4505(4) -0.8494(2) -0.6137(2)
H8A H -0.4396 -0.8384 -0.6846
C21A C -0.7390(4) -0.7722(3) -0.6397(2)
H9A H -0.7358 -0.7606 -0.7108
C22A C -0.8773(4) -0.7455(3) -0.5969(2)
H10A H -0.9690 -0.7160 -0.6382
Mn1_2 Mn -1.0000 -1.0000 0.0000
Mn1_3 Mn -1.0000 1.0000 -1.0000
Mn1_4 Mn 0.0000 -1.0000 0.0000
Mn2_2 Mn -1.24305(3) 0.86299(2) -0.75290(2)
Mn2_3 Mn -0.24305(3) -1.13701(2) 0.24710(2)
Mn2A_2 Mn 0.24305(3) 0.13701(2) -0.24710(2)
O1_2 O -0.85201(17) -1.01574(11) -0.12959(11)
O1A_2 O -0.14799(17) 0.01574(11) 0.12959(11)
O3A_2 O 0.12184(18) -0.14451(11) 0.12114(11)
O5A_2 O 0.19521(19) 0.10000(12) 0.00208(12)
O6_2 O -0.96487(19) -0.76284(13) -0.27341(13)
O6A_2 O -0.03513(19) -0.23716(13) 0.27341(13)
loop_
_geom_bond_atom_site_label_1
_geom_bond_atom_site_label_2
_geom_bond_site_symmetry_1
_geom_bond_site_symmetry_2
Mn1 O1 1_555 1_555
Mn2 O2 1_555 1_555
O1 C1 1_555 1_555
O2 C4 1_555 1_555
O3 Mn1 1_555 1_555
O4 C1 1_555 1_555
O5 Mn1 1_555 1_555
N1 Mn2 1_555 1_555
C1 C5 1_555 1_555
N2 Mn2 1_555 1_555
C2 O3 1_555 1_555
C3 N2 1_555 1_555
C4 O5 1_555 1_555
C5 C24 1_555 1_555
C6 C2 1_555 1_555
C7 C8 1_555 1_555
C8 C6 1_555 1_555
C9 C7 1_555 1_555
H1 C9 1_555 1_555
C10 H2 1_555 1_555
C11 C4 1_555 1_555
C12 C7 1_555 1_555
H3 C12 1_555 1_555
C13 C3 1_555 1_555
C14 C16 1_555 1_555
C15 N2 1_555 1_555
H4 C15 1_555 1_555
C16 N1 1_555 1_555
C17 C13 1_555 1_555
H5 C17 1_555 1_555
C18 C10 1_555 1_555
H6 C18 1_555 1_555
C19 N1 1_555 1_555
H7 C19 1_555 1_555
C20 C14 1_555 1_555
H8 C20 1_555 1_555
C21 C14 1_555 1_555
H9 C21 1_555 1_555
C22 C19 1_555 1_555
H10 C22 1_555 1_555
C23 C11 1_555 1_555
C24 C25 1_555 1_555
C25 C27 1_555 1_555
C26 C23 1_555 1_555
C27 H11 1_555 1_555
C28 C25 1_555 1_555
H12 C28 1_555 1_555
C29 C26 1_555 1_555
H13 C29 1_555 1_555
C30 C26 1_555 1_555
H14 C30 1_555 1_555
O6 C2 1_555 1_555
H15 C6 1_555 1_555
H16 C8 1_555 1_555
H17 C5 1_555 1_555
H18 C24 1_555 1_555
H19 C23 1_555 1_555
H20 C11 1_555 1_555
O1A C1A 1_555 1_555
O4A C1A 1_555 1_555
C1A C5A 1_555 1_555
C5A C24A 1_555 1_555
C24A C25A 1_555 1_555
C25A C27A 1_555 1_555
C27A C28 1_555 1_555
H11A C27A 1_555 1_555
C28A C27 1_555 1_555
H12A C28A 1_555 1_555
H17A C5A 1_555 1_555
H18A C24A 1_555 1_555
O2A C4A 1_555 1_555
O5A C4A 1_555 1_555
C4A C11A 1_555 1_555
C11A C23A 1_555 1_555
C23A C26A 1_555 1_555
C26A C29A 1_555 1_555
C29A C30 1_555 1_555
H13A C29A 1_555 1_555
C30A C29 1_555 1_555
H14A C30A 1_555 1_555
H19A C23A 1_555 1_555
H20A C11A 1_555 1_555
O3A C2A 1_555 1_555
C2A C6A 1_555 1_555
C6A C8A 1_555 1_555
C7A C8A 1_555 1_555
C8A H16A 1_555 1_555
C9A C12 1_555 1_555
H1A C9A 1_555 1_555
C12A C9 1_555 1_555
H3A C12A 1_555 1_555
O6A C2A 1_555 1_555
H15A C6A 1_555 1_555
Mn2A O2A 1_555 1_555
N1A Mn2A 1_555 1_555
N2A Mn2A 1_555 1_555
C3A N2A 1_555 1_555
C10A H2A 1_555 1_555
C13A C3A 1_555 1_555
C14A C16A 1_555 1_555
C15A N2A 1_555 1_555
H4A C15A 1_555 1_555
C16A N1A 1_555 1_555
C17A C13A 1_555 1_555
H5A C17A 1_555 1_555
C18A C10A 1_555 1_555
H6A C18A 1_555 1_555
C19A N1A 1_555 1_555
H7A C19A 1_555 1_555
C20A C14A 1_555 1_555
H8A C20A 1_555 1_555
C21A C14A 1_555 1_555
H9A C21A 1_555 1_555
C22A C19A 1_555 1_555
H10A C22A 1_555 1_555
Mn1_2 O5A 1_555 1_555
Mn1_3 O3A 1_555 1_555
Mn1_4 O1A 1_555 1_555
Mn2_2 O6A 1_555 1_555
Mn2_3 O1A 1_555 1_555
Mn2A_2 O1 1_555 1_555
O1_2 Mn2A 1_555 1_555
O1A_2 Mn1 1_555 1_555
O3A_2 Mn1 1_555 1_555
O5A_2 Mn1 1_555 1_555
O6_2 Mn2A 1_555 1_555
O6A_2 Mn2 1_555 1_555
Mn2 O1A_2 1_555 1_555
C3 C16 1_555 1_555
C10 C13 1_555 1_555
C15 C18 1_555 1_555
C17 C20 1_555 1_555
C21 C22 1_555 1_555
O6 Mn2A_2 1_555 1_555
C25A C28A 1_555 1_555
C26A C30A 1_555 1_555
C7A C9A 1_555 1_555
C7A C12A 1_555 1_555
C3A C16A 1_555 1_555
C10A C13A 1_555 1_555
C15A C18A 1_555 1_555
C17A C20A 1_555 1_555
C21A C22A 1_555 1_555
Mn1_2 O1_2 1_555 1_555

#END
