
#######################################################################
#
#                 Cambridge Crystallographic Data Centre
#                                CCDC 
#
#######################################################################
#
# If this CIF has been generated from an entry in the Cambridge 
# Structural Database, then it will include bibliographic, chemical, 
# crystal, experimental, refinement or atomic coordinate data resulting 
# from the CCDC's data processing and validation procedures.
#
#######################################################################

data_XEVHIR
_symmetry_cell_setting           monoclinic
_symmetry_space_group_name_H-M   'P n'
_symmetry_Int_Tables_number      7
_space_group_name_Hall           'P -2yac'
loop_
_symmetry_equiv_pos_site_id
_symmetry_equiv_pos_as_xyz
1 x,y,z
2 1/2+x,-y,1/2+z
_cell_length_a                   22.1775(5)
_cell_length_b                   7.3566(2)
_cell_length_c                   22.1781(5)
_cell_angle_alpha                90
_cell_angle_beta                 94.0890(10)
_cell_angle_gamma                90
_cell_volume                     3609.17
loop_
_atom_site_label
_atom_site_type_symbol
_atom_site_fract_x
_atom_site_fract_y
_atom_site_fract_z
Zn5 Zn 0.88721(6) -0.4901(3) -0.06345(6)
Zn6 Zn 0.71001(6) -0.5131(2) 0.00975(6)
Zn7 Zn 0.63726(5) -0.49471(15) 0.18734(5)
Zn8 Zn 0.45996(5) -0.50237(12) 0.25964(5)
O33 O 0.8904(5) -0.7674(18) -0.0583(6)
O34 O 0.9774(5) -0.482(2) -0.0608(5)
O35 O 0.8911(5) -0.2093(17) -0.0609(5)
O36 O 0.8235(4) -0.4885(18) 0.0000(5)
O37 O 0.7746(4) -0.5073(13) 0.0802(5)
C25 C 0.8262(5) -0.5006(15) 0.0554(5)
C26 C 0.8807(3) -0.4941(8) 0.0933(4)
O38 O 0.9350(4) -0.4706(12) 0.0646(4)
C27 C 0.9809(5) -0.4669(14) 0.1093(5)
C28 C 0.9571(6) -0.483(2) 0.1641(6)
H9 H 0.9788 -0.4848 0.2015
C29 C 0.8928(5) -0.4956(14) 0.1540(5)
H10 H 0.8649 -0.5034 0.1833
C30 C 1.0445(4) -0.4517(11) 0.0911(4)
O39 O 1.0840(3) -0.4588(9) 0.1327(3)
O40 O 1.0518(4) -0.438(2) 0.0374(4)
O41 O 0.7124(5) -0.7962(15) 0.0072(5)
O42 O 0.7007(5) -0.2359(15) 0.0056(4)
O43 O 0.7062(4) -0.5188(16) -0.0806(4)
O44 O 0.6475(4) -0.5203(12) 0.0724(4)
O45 O 0.5660(5) -0.4961(14) 0.1217(5)
C31 C 0.5906(5) -0.5046(15) 0.0708(5)
C32 C 0.5519(4) -0.4998(13) 0.0157(4)
O46 O 0.5819(3) -0.5260(12) -0.0381(3)
C33 C 0.5389(6) -0.517(2) -0.0847(6)
C34 C 0.4820(6) -0.491(2) -0.0613(6)
H11 H 0.4448 -0.4835 -0.0834
C35 C 0.4926(5) -0.4777(18) 0.0036(5)
H12 H 0.4638 -0.4577 0.0314
C36 C 0.5568(4) -0.5336(11) -0.1449(4)
O47 O 0.5156(3) -0.5073(8) -0.1873(3)
O48 O 0.6081(3) -0.5804(11) -0.1543(3)
O49 O 0.6396(4) -0.2184(11) 0.1847(4)
O50 O 0.6414(4) -0.7737(11) 0.1969(4)
O51 O 0.7275(4) -0.4846(11) 0.1900(4)
O52 O 0.5741(3) -0.4857(8) 0.2498(3)
O53 O 0.5243(4) -0.5005(9) 0.3311(4)
C37 C 0.5762(4) -0.4981(8) 0.3059(4)
C38 C 0.6308(3) -0.5052(7) 0.3442(3)
O54 O 0.6848(3) -0.4923(9) 0.3149(3)
C39 C 0.7306(5) -0.5137(14) 0.3600(5)
C40 C 0.7075(6) -0.5353(17) 0.4148(5)
H13 H 0.7294 -0.5506 0.4518
C41 C 0.6432(5) -0.5297(14) 0.4046(4)
H14 H 0.6152 -0.5407 0.4337
C42 C 0.7943(5) -0.4862(16) 0.3419(5)
O55 O 0.8344(3) -0.5193(8) 0.3835(3)
O56 O 0.8013(3) -0.4382(11) 0.2880(3)
O57 O 0.4608(5) -0.7838(7) 0.2575(4)
O58 O 0.4529(4) -0.2237(8) 0.2558(3)
O59 O 0.4570(4) -0.5068(11) 0.1695(3)
O60 O 0.3972(3) -0.5116(9) 0.3216(3)
O61 O 0.3153(4) -0.5078(13) 0.3715(4)
C43 C 0.3401(4) -0.5054(10) 0.3210(4)
C44 C 0.3014(3) -0.4946(8) 0.2659(4)
O62 O 0.3317(3) -0.4969(9) 0.2114(3)
C45 C 0.2890(5) -0.4745(12) 0.1653(5)
C46 C 0.2318(5) -0.4651(13) 0.1888(5)
H15 H 0.1948 -0.4516 0.1668
C47 C 0.2415(4) -0.4801(13) 0.2534(4)
H16 H 0.2120 -0.4798 0.2811
C48 C 0.3065(4) -0.4805(9) 0.1047(4)
O63 O 0.3592(4) -0.5215(14) 0.0949(4)
O64 O 0.2649(3) -0.4510(8) 0.0628(3)
Zn5A Zn 0.38721(6) -0.5099(3) 0.43655(6)
O60A O 0.8972(3) -0.4884(9) -0.1784(3)
O61A O 0.8153(4) -0.4922(13) -0.1285(4)
Zn1 Zn 0.34538(4) 0.0227(2) -0.02112(4)
Zn2 Zn 0.16793(4) 0.04320(11) 0.05184(4)
Zn3 Zn 0.09465(4) 0.04250(12) 0.22897(4)
Zn4 Zn -0.08203(4) 0.0091(3) 0.30194(4)
O1 O 0.3578(3) 0.2956(9) -0.0160(3)
O2 O 0.3406(4) -0.2575(8) -0.0204(3)
O3 O 0.3494(4) 0.0121(11) 0.0705(4)
O4 O 0.2781(3) 0.0420(8) -0.0930(3)
O5 O 0.2307(3) 0.0443(11) -0.0107(3)
C1 C 0.2313(4) 0.0420(10) -0.0661(4)
C2 C 0.1721(4) 0.0478(12) -0.1047(4)
O6 O 0.1214(3) 0.0298(8) -0.0761(3)
C3 C 0.0752(4) 0.0199(11) -0.1193(5)
C4 C 0.0977(6) 0.0176(15) -0.1751(6)
H1 H 0.0757 0.0070 -0.2122
C5 C 0.1617(5) 0.0349(17) -0.1647(5)
H2 H 0.1901 0.0367 -0.1936
C6 C 0.0140(5) 0.0135(14) -0.1026(5)
O7 O -0.0294(4) 0.0113(14) -0.1417(4)
O8 O 0.0023(7) -0.040(6) -0.0503(8)
O9 O 0.1642(4) -0.2338(7) 0.0492(5)
O10 O 0.0767(3) 0.0386(9) 0.0478(3)
O11 O 0.1657(3) 0.3196(8) 0.0467(5)
O12 O 0.2394(3) 0.0366(7) 0.1183(3)
O13 O 0.1575(3) 0.0530(8) 0.1668(3)
C7 C 0.2119(4) 0.0403(9) 0.1661(3)
C8 C 0.2500(4) 0.0358(11) 0.2247(4)
O14 O 0.2228(3) 0.0325(8) 0.2754(3)
C9 C 0.2681(4) 0.0144(10) 0.3209(4)
C10 C 0.3209(5) 0.0003(13) 0.2980(6)
H3 H 0.3581 -0.0150 0.3195
C11 C 0.3109(5) 0.0125(14) 0.2356(5)
H4 H 0.3396 0.0061 0.2071
C12 C 0.2500(6) 0.011(2) 0.3862(6)
O15 O 0.2903(4) -0.0196(18) 0.4267(4)
O16 O 0.1956(4) 0.0327(19) 0.3951(4)
O17 O 0.0979(3) 0.0585(10) 0.3201(3)
O18 O 0.0940(4) 0.3194(9) 0.2301(3)
O19 O 0.1043(4) -0.2359(7) 0.2347(3)
O20 O 0.0273(3) 0.0218(11) 0.1562(3)
O21 O -0.0199(3) 0.0330(9) 0.2395(3)
C13 C -0.0192(4) 0.0217(13) 0.1835(4)
C14 C -0.0789(5) 0.016(2) 0.1444(5)
O22 O -0.1287(3) 0.0117(7) 0.1734(3)
C15 C -0.1747(4) 0.0003(11) 0.1304(5)
C16 C -0.1525(6) -0.0100(15) 0.0743(6)
H5 H -0.1747 -0.0171 0.0371
C17 C -0.0890(5) -0.0078(14) 0.0845(5)
H6 H -0.0604 -0.0201 0.0561
C18 C -0.2366(4) -0.0022(12) 0.1478(4)
O23 O -0.2796(5) -0.0143(17) 0.1078(4)
O24 O -0.2481(4) 0.0164(13) 0.2005(4)
O25 O -0.0811(3) 0.2856(10) 0.3075(4)
O26 O -0.0885(3) -0.2636(10) 0.2886(3)
O27 O -0.1732(3) 0.0192(7) 0.2978(3)
O28 O -0.0916(3) -0.0031(8) 0.4155(3)
O29 O -0.0101(3) -0.0129(8) 0.3682(3)
C19 C -0.0383(5) -0.0107(9) 0.4155(4)
C20 C 0.0005(5) -0.0203(13) 0.4744(5)
O30 O -0.0269(3) -0.0074(6) 0.5251(3)
C21 C 0.0183(4) -0.0105(8) 0.5710(4)
C22 C 0.0713(5) -0.0202(13) 0.5486(6)
H7 H 0.1086 -0.0222 0.5706
C23 C 0.0618(5) -0.0270(14) 0.4857(5)
H8 H 0.0908 -0.0345 0.4575
C24 C 0.0008(5) -0.0076(13) 0.6354(4)
O31 O 0.0410(4) -0.0074(12) 0.6771(4)
O32 O -0.0539(4) 0.0102(16) 0.6448(4)
Zn1A Zn -0.15462(4) -0.0227(2) 0.47888(4)
O28A O 0.4084(3) 0.0031(8) -0.0845(3)
O65? O 0.0041(7) 0.099(4) -0.0497(6)
loop_
_geom_bond_atom_site_label_1
_geom_bond_atom_site_label_2
_geom_bond_site_symmetry_1
_geom_bond_site_symmetry_2
Zn1 O1 1_555 1_555
Zn2 O5 1_555 1_555
Zn3 O13 1_555 1_555
Zn4 O21 1_555 1_555
O2 Zn1 1_555 1_555
O3 Zn1 1_555 1_555
O4 Zn1 1_555 1_555
O5 Zn1 1_555 1_555
C1 O4 1_555 1_555
C2 C1 1_555 1_555
O6 C2 1_555 1_555
C3 O6 1_555 1_555
C4 C3 1_555 1_555
H1 C4 1_555 1_555
C5 C2 1_555 1_555
H2 C5 1_555 1_555
C6 C3 1_555 1_555
O7 C6 1_555 1_555
O8 C6 1_555 1_555
O9 Zn2 1_555 1_555
O10 Zn2 1_555 1_555
O11 Zn2 1_555 1_555
O12 Zn2 1_555 1_555
O13 Zn2 1_555 1_555
C7 O12 1_555 1_555
C8 C7 1_555 1_555
O14 C8 1_555 1_555
C9 O14 1_555 1_555
C10 C9 1_555 1_555
H3 C10 1_555 1_555
C11 C8 1_555 1_555
H4 C11 1_555 1_555
C12 C9 1_555 1_555
O15 C12 1_555 1_555
O16 C12 1_555 1_555
O17 Zn3 1_555 1_555
O18 Zn3 1_555 1_555
O19 Zn3 1_555 1_555
O20 Zn3 1_555 1_555
O21 Zn3 1_555 1_555
C13 O20 1_555 1_555
C14 C13 1_555 1_555
O22 C14 1_555 1_555
C15 O22 1_555 1_555
C16 C15 1_555 1_555
H5 C16 1_555 1_555
C17 C14 1_555 1_555
H6 C17 1_555 1_555
C18 C15 1_555 1_555
O23 C18 1_555 1_555
O24 C18 1_555 1_555
O25 Zn4 1_555 1_555
O26 Zn4 1_555 1_555
O27 Zn4 1_555 1_555
O28 Zn4 1_555 1_555
O29 Zn4 1_555 1_555
C19 O28 1_555 1_555
C20 C19 1_555 1_555
O30 C20 1_555 1_555
C21 O30 1_555 1_555
C22 C21 1_555 1_555
H7 C22 1_555 1_555
C23 C20 1_555 1_555
H8 C23 1_555 1_555
C24 C21 1_555 1_555
O31 C24 1_555 1_555
O32 C24 1_555 1_555
Zn5 O33 1_555 1_555
Zn6 O36 1_555 1_555
Zn7 O44 1_555 1_555
Zn8 O52 1_555 1_555
O34 Zn5 1_555 1_555
O35 Zn5 1_555 1_555
O36 Zn5 1_555 1_555
O37 Zn6 1_555 1_555
C25 O36 1_555 1_555
C26 C25 1_555 1_555
O38 C26 1_555 1_555
C27 O38 1_555 1_555
C28 C27 1_555 1_555
H9 C28 1_555 1_555
C29 C26 1_555 1_555
H10 C29 1_555 1_555
C30 C27 1_555 1_555
O39 C30 1_555 1_555
O40 C30 1_555 1_555
O41 Zn6 1_555 1_555
O42 Zn6 1_555 1_555
O43 Zn6 1_555 1_555
O44 Zn6 1_555 1_555
O45 Zn7 1_555 1_555
C31 O44 1_555 1_555
C32 C31 1_555 1_555
O46 C32 1_555 1_555
C33 O46 1_555 1_555
C34 C33 1_555 1_555
H11 C34 1_555 1_555
C35 C32 1_555 1_555
H12 C35 1_555 1_555
C36 C33 1_555 1_555
O47 C36 1_555 1_555
O48 C36 1_555 1_555
O49 Zn7 1_555 1_555
O50 Zn7 1_555 1_555
O51 Zn7 1_555 1_555
O52 Zn7 1_555 1_555
O53 Zn8 1_555 1_555
C37 O52 1_555 1_555
C38 C37 1_555 1_555
O54 C38 1_555 1_555
C39 O54 1_555 1_555
C40 C39 1_555 1_555
H13 C40 1_555 1_555
C41 C38 1_555 1_555
H14 C41 1_555 1_555
C42 C39 1_555 1_555
O55 C42 1_555 1_555
O56 C42 1_555 1_555
O57 Zn8 1_555 1_555
O58 Zn8 1_555 1_555
O59 Zn8 1_555 1_555
O60 Zn8 1_555 1_555
O61 C43 1_555 1_555
C43 O60 1_555 1_555
C44 C43 1_555 1_555
O62 C44 1_555 1_555
C45 O62 1_555 1_555
C46 C45 1_555 1_555
H15 C46 1_555 1_555
C47 C44 1_555 1_555
H16 C47 1_555 1_555
C48 C45 1_555 1_555
O63 C48 1_555 1_555
O64 C48 1_555 1_555
Zn1A O28 1_555 1_555
O28A Zn1 1_555 1_555
Zn5A O60 1_555 1_555
O60A Zn5 1_555 1_555
O61A Zn5 1_555 1_555
O5 C1 1_555 1_555
C4 C5 1_555 1_555
O13 C7 1_555 1_555
C10 C11 1_555 1_555
O21 C13 1_555 1_555
C16 C17 1_555 1_555
O29 C19 1_555 1_555
C22 C23 1_555 1_555
O37 C25 1_555 1_555
C28 C29 1_555 1_555
O45 C31 1_555 1_555
C34 C35 1_555 1_555
O53 C37 1_555 1_555
C40 C41 1_555 1_555
O61 Zn5A 1_555 1_555
C46 C47 1_555 1_555

#END
