
#######################################################################
#
#                 Cambridge Crystallographic Data Centre
#                                CCDC 
#
#######################################################################
#
# If this CIF has been generated from an entry in the Cambridge 
# Structural Database, then it will include bibliographic, chemical, 
# crystal, experimental, refinement or atomic coordinate data resulting 
# from the CCDC's data processing and validation procedures.
#
#######################################################################

data_XEVJIT
_symmetry_cell_setting           orthorhombic
_symmetry_space_group_name_H-M   'P c c n'
_symmetry_Int_Tables_number      56
_space_group_name_Hall           '-P 2ab 2ac'
loop_
_symmetry_equiv_pos_site_id
_symmetry_equiv_pos_as_xyz
1 x,y,z
2 1/2-x,1/2-y,z
3 -x,1/2+y,1/2-z
4 1/2+x,-y,1/2-z
5 -x,-y,-z
6 1/2+x,1/2+y,-z
7 x,1/2-y,1/2+z
8 1/2-x,y,1/2+z
_cell_length_a                   17.5123(17)
_cell_length_b                   13.6834(15)
_cell_length_c                   15.2911(14)
_cell_angle_alpha                90
_cell_angle_beta                 90
_cell_angle_gamma                90
_cell_volume                     3664.17
loop_
_atom_site_label
_atom_site_type_symbol
_atom_site_fract_x
_atom_site_fract_y
_atom_site_fract_z
Co1 Co 0.44282(3) 0.47752(4) 0.11997(3)
O1 O 0.55799(15) 0.4867(2) 0.1428(2)
C1 C 0.6023(2) 0.5129(3) 0.0830(3)
C2 C 0.6832(2) 0.5293(3) 0.1022(3)
O2 O 0.70987(14) 0.5191(2) 0.18623(17)
C3 C 0.7870(2) 0.5350(3) 0.1822(3)
C4 C 0.8089(2) 0.5541(5) 0.0990(3)
H1 H 0.8591 0.5681 0.0793
C5 C 0.7417(2) 0.5492(4) 0.0474(3)
H2 H 0.7384 0.5581 -0.0141
O3 O 0.58395(18) 0.5284(3) 0.0059(2)
O4 O 0.90340(17) 0.5335(2) 0.2538(2)
O5 O 0.8003(2) 0.5219(2) 0.3361(2)
C6 C 0.8316(2) 0.5290(3) 0.2642(3)
N1 N 0.4305(2) 0.6333(3) 0.1200(2)
C7 C 0.4825(3) 0.6939(3) 0.1556(3)
H3 H 0.5269 0.6662 0.1812
C8 C 0.4745(3) 0.7944(3) 0.1567(3)
H4 H 0.5130 0.8340 0.1824
C9 C 0.4103(3) 0.8371(3) 0.1203(3)
C10 C 0.3561(3) 0.7750(3) 0.0840(4)
H5 H 0.3108 0.8009 0.0588
C11 C 0.3686(3) 0.6749(3) 0.0849(4)
H6 H 0.3312 0.6337 0.0592
C12 C 0.3982(3) 0.9436(3) 0.1183(3)
H7 H 0.3474 0.9678 0.1165
C13 C 0.4550(3) 1.0065(3) 0.1191(3)
H8 H 0.5052 0.9801 0.1211
C14 C 0.4486(3) 1.1135(3) 0.1171(3)
C15 C 0.5140(3) 1.1697(4) 0.1052(4)
H9 H 0.5619 1.1384 0.0970
C16 C 0.3814(3) 1.1649(4) 0.1272(4)
H10 H 0.3345 1.1307 0.1340
N2 N 0.4452(2) 1.3192(3) 0.1159(2)
C17 C 0.5100(3) 1.2693(4) 0.1051(4)
H11 H 0.5559 1.3051 0.0968
C18 C 0.3821(3) 1.2656(4) 0.1274(4)
H12 H 0.3351 1.2988 0.1361
Co1_2 Co 0.44282(3) 1.47752(4) 0.11997(3)
Co1C Co 0.94282(3) 0.52248(4) 0.38003(3)
Co1D Co 0.55718(3) 0.52248(4) -0.11997(3)
O3D O 0.41605(18) 0.4716(3) -0.0059(2)
O4C O 0.40340(17) 0.4665(2) 0.2462(2)
O5C O 0.3003(2) 0.4781(2) 0.1639(2)
N2_2 N 0.4452(2) 0.3192(3) 0.1159(2)
loop_
_geom_bond_atom_site_label_1
_geom_bond_atom_site_label_2
_geom_bond_site_symmetry_1
_geom_bond_site_symmetry_2
Co1 O1 1_555 1_555
O1 C1 1_555 1_555
C1 C2 1_555 1_555
C2 O2 1_555 1_555
O2 C3 1_555 1_555
C3 C4 1_555 1_555
C4 H1 1_555 1_555
C5 C2 1_555 1_555
H2 C5 1_555 1_555
O3 C1 1_555 1_555
O4 C6 1_555 1_555
O5 C6 1_555 1_555
C6 C3 1_555 1_555
N1 Co1 1_555 1_555
C7 N1 1_555 1_555
H3 C7 1_555 1_555
C8 C7 1_555 1_555
H4 C8 1_555 1_555
C9 C8 1_555 1_555
C10 C9 1_555 1_555
H5 C10 1_555 1_555
C11 N1 1_555 1_555
H6 C11 1_555 1_555
C12 C9 1_555 1_555
H7 C12 1_555 1_555
C13 C12 1_555 1_555
H8 C13 1_555 1_555
C14 C13 1_555 1_555
C15 C14 1_555 1_555
H9 C15 1_555 1_555
C16 C14 1_555 1_555
H10 C16 1_555 1_555
N2 C17 1_555 1_555
C17 C15 1_555 1_555
H11 C17 1_555 1_555
C18 C16 1_555 1_555
H12 C18 1_555 1_555
Co1_2 N2 1_555 1_555
Co1C O4 1_555 1_555
Co1D O3 1_555 1_555
O3D Co1 1_555 1_555
O4C Co1 1_555 1_555
O5C Co1 1_555 1_555
N2_2 Co1 1_555 1_555
C4 C5 1_555 1_555
O5 Co1C 1_555 1_555
C10 C11 1_555 1_555
N2 C18 1_555 1_555

#END
