
#######################################################################
#
#                 Cambridge Crystallographic Data Centre
#                                CCDC 
#
#######################################################################
#
# If this CIF has been generated from an entry in the Cambridge 
# Structural Database, then it will include bibliographic, chemical, 
# crystal, experimental, refinement or atomic coordinate data resulting 
# from the CCDC's data processing and validation procedures.
#
#######################################################################

data_XEVMOA
_symmetry_cell_setting           monoclinic
_symmetry_space_group_name_H-M   'C 2/c'
_symmetry_Int_Tables_number      15
_space_group_name_Hall           '-C 2yn'
loop_
_symmetry_equiv_pos_site_id
_symmetry_equiv_pos_as_xyz
1 x,y,z
2 1/2+x,1/2+y,z
3 x,-y,1/2+z
4 1/2+x,1/2-y,1/2+z
5 -x,-y,-z
6 1/2-x,1/2-y,-z
7 -x,y,1/2-z
8 1/2-x,1/2+y,1/2-z
_cell_length_a                   20.493(4)
_cell_length_b                   6.7080(10)
_cell_length_c                   15.939(3)
_cell_angle_alpha                90
_cell_angle_beta                 123.56(3)
_cell_angle_gamma                90
_cell_volume                     1825.85
loop_
_atom_site_label
_atom_site_type_symbol
_atom_site_fract_x
_atom_site_fract_y
_atom_site_fract_z
Ba1 Ba 0.5000 0.71598(11) 0.7500
O1 O 0.4556(2) 0.7116(10) 0.8909(3)
O2 O 0.3714(3) 0.6890(10) 0.9377(3)
O3 O 0.6128(3) 0.8391(9) 0.9465(3)
O4 O 0.5775(2) 0.7989(10) 1.0561(3)
H1 H 0.5287 0.7566 1.0095
O5 O 0.4563(3) 0.3618(9) 0.6397(4)
H2 H 0.5027 0.2631 0.7080
H3 H 0.4407 0.3676 0.5742
O6 O 0.4119(3) 1.0693(9) 0.7408(4)
H4 H 0.4464 1.0999 0.8102
H5 H 0.4153 1.2163 0.7188
N1 N 0.3389(3) 0.6160(10) 0.6978(4)
N2 N 0.2678(3) 0.6119(10) 0.6082(4)
H8 H 0.2516 0.4968 0.5423
C1 C 0.3875(4) 0.6890(13) 0.8744(5)
C2 C 0.3229(4) 0.6658(11) 0.7657(5)
C3 C 0.2426(4) 0.6896(12) 0.7213(5)
H9 H 0.2167 0.7547 0.7487
C4 C 0.2085(4) 0.6562(12) 0.6206(5)
C5 C 0.6287(4) 0.8276(12) 1.0332(5)
O1F O 0.5444(2) 0.7116(10) 0.6091(3)
O3F O 0.3872(3) 0.8391(9) 0.5535(3)
O5F O 0.5437(3) 0.3618(9) 0.8603(4)
O6F O 0.5881(3) 1.0693(9) 0.7592(4)
N1F N 0.6611(3) 0.6160(10) 0.8022(4)
C5C C 0.1287(4) 0.6724(12) 0.5332(5)
C4C C 0.7085(4) 0.8438(12) 1.1206(5)
O3C O 0.1128(3) 0.6609(9) 0.4465(3)
O4C O 0.0775(2) 0.7011(10) 0.5561(3)
H1C H 0.0287 0.7434 0.5095
Ba1C Ba 0.0000 0.78402(11) 0.2500
N2C N 0.7678(3) 0.8881(10) 1.1082(4)
C3C C 0.7426(4) 0.8104(12) 1.2213(5)
N1C N 0.8389(3) 0.8840(10) 1.1978(4)
H8C H 0.7516 1.0032 1.0423
C2C C 0.8229(4) 0.8342(11) 1.2657(5)
H9C H 0.7167 0.7453 1.2487
Ba1C_2 Ba 1.0000 0.78402(11) 1.2500
C1C C 0.8875(4) 0.8110(13) 1.3744(5)
O1C O 0.9556(2) 0.7884(10) 1.3909(3)
O2C O 0.8714(3) 0.8110(10) 1.4377(3)
H4F H 0.5536 1.0999 0.6898
H5F H 0.5847 1.2163 0.7812
H2F H 0.4973 0.2631 0.7920
H3F H 0.5593 0.3676 0.9258
O7 O 0.2561(3) 1.0893(9) 0.5619(4)
H6 H 0.2672 1.2167 0.5540
H7 H 0.2833 1.0894 0.6297
loop_
_geom_bond_atom_site_label_1
_geom_bond_atom_site_label_2
_geom_bond_site_symmetry_1
_geom_bond_site_symmetry_2
Ba1 O1 1_555 1_555
O1 C1 1_555 1_555
O2 C1 1_555 1_555
O3 Ba1 1_555 1_555
O4 H1 1_555 1_555
O5 Ba1 1_555 1_555
H2 O5 1_555 1_555
H3 O5 1_555 1_555
O6 Ba1 1_555 1_555
H4 O6 1_555 1_555
H5 O6 1_555 1_555
O7 H6 1_555 1_555
H7 O7 1_555 1_555
N1 Ba1 1_555 1_555
N2 N1 1_555 1_555
H8 N2 1_555 1_555
C1 C2 1_555 1_555
C2 N1 1_555 1_555
C3 C2 1_555 1_555
H9 C3 1_555 1_555
C4 N2 1_555 1_555
C5 O3 1_555 1_555
O1F Ba1 1_555 1_555
O3F Ba1 1_555 1_555
O5F Ba1 1_555 1_555
O6F Ba1 1_555 1_555
N1F Ba1 1_555 1_555
C5C C4 1_555 1_555
C4C C5 1_555 1_555
O3C C5C 1_555 1_555
O4C C5C 1_555 1_555
H1C O4C 1_555 1_555
Ba1C O3C 1_555 1_555
N2C C4C 1_555 1_555
C3C C4C 1_555 1_555
N1C N2C 1_555 1_555
H8C N2C 1_555 1_555
C2C C3C 1_555 1_555
H9C C3C 1_555 1_555
Ba1C_2 N1C 1_555 1_555
C1C C2C 1_555 1_555
O1C Ba1C_2 1_555 1_555
O2C C1C 1_555 1_555
H4F O6F 1_555 1_555
H5F O6F 1_555 1_555
H2F O5F 1_555 1_555
H3F O5F 1_555 1_555
O4 C5 1_555 1_555
C3 C4 1_555 1_555
N1C C2C 1_555 1_555
C1C O1C 1_555 1_555

#END
