
#######################################################################
#
#                 Cambridge Crystallographic Data Centre
#                                CCDC 
#
#######################################################################
#
# If this CIF has been generated from an entry in the Cambridge 
# Structural Database, then it will include bibliographic, chemical, 
# crystal, experimental, refinement or atomic coordinate data resulting 
# from the CCDC's data processing and validation procedures.
#
#######################################################################

data_XEVMAM
_symmetry_cell_setting           monoclinic
_symmetry_space_group_name_H-M   'P 21/c'
_symmetry_Int_Tables_number      14
_space_group_name_Hall           '-P 2ybc'
loop_
_symmetry_equiv_pos_site_id
_symmetry_equiv_pos_as_xyz
1 x,y,z
2 x,1/2-y,1/2+z
3 -x,-y,-z
4 -x,1/2+y,1/2-z
_cell_length_a                   6.6160(10)
_cell_length_b                   12.654(3)
_cell_length_c                   8.782(2)
_cell_angle_alpha                90
_cell_angle_beta                 103.65(3)
_cell_angle_gamma                90
_cell_volume                     714.453
loop_
_atom_site_label
_atom_site_type_symbol
_atom_site_fract_x
_atom_site_fract_y
_atom_site_fract_z
Ca1 Ca 0.2549(2) 0.67300(9) 0.11319(14)
O1 O 0.2489(7) 0.7026(3) 0.3858(5)
O2 O 0.2598(7) 0.6385(3) 0.6205(4)
O3 O 0.3807(7) 0.1817(3) 0.3343(5)
O4 O 0.1121(6) 0.1842(3) 0.4433(4)
O5 O 0.2582(8) 0.5532(3) -0.0928(5)
H1 H 0.2495 0.5821 -0.1927
H2 H 0.2782 0.4847 -0.0877
N1 N 0.2519(8) 0.5045(3) 0.2643(5)
N2 N 0.2512(8) 0.4003(4) 0.2440(6)
H3 H 0.2424 0.3700 0.1425
C1 C 0.2510(9) 0.6257(4) 0.4779(6)
C2 C 0.2445(10) 0.5175(4) 0.4148(6)
C3 C 0.2346(10) 0.4217(4) 0.4885(7)
H4 H 0.2212 0.4031 0.6005
C4 C 0.2386(10) 0.3477(4) 0.3749(6)
C5 C 0.2468(11) 0.2277(4) 0.3838(7)
O1A O 0.2489(7) 0.7974(3) -0.1142(5)
Ca1A Ca 0.2549(2) 0.82700(9) 0.61319(14)
O2A O 0.2598(7) 0.8615(3) 0.1205(4)
O3C O 0.6193(7) 0.6817(3) 0.1657(5)
O4C O -0.1121(6) 0.6842(3) 0.0567(4)
Ca1C Ca -0.2549(2) 0.17300(9) 0.38681(14)
Ca1C_2 Ca 0.7451(2) 0.17300(9) 0.38681(14)
loop_
_geom_bond_atom_site_label_1
_geom_bond_atom_site_label_2
_geom_bond_site_symmetry_1
_geom_bond_site_symmetry_2
Ca1 O1 1_555 1_555
O1 C1 1_555 1_555
O2 C1 1_555 1_555
O3 C5 1_555 1_555
O4 C5 1_555 1_555
O5 Ca1 1_555 1_555
H1 O5 1_555 1_555
H2 O5 1_555 1_555
N1 Ca1 1_555 1_555
N2 N1 1_555 1_555
H3 N2 1_555 1_555
C1 C2 1_555 1_555
C2 N1 1_555 1_555
C3 C2 1_555 1_555
H4 C3 1_555 1_555
C4 N2 1_555 1_555
C5 C4 1_555 1_555
O1A Ca1 1_555 1_555
Ca1A O1 1_555 1_555
O2A Ca1 1_555 1_555
O3C Ca1 1_555 1_555
O4C Ca1 1_555 1_555
Ca1C O4 1_555 1_555
Ca1C_2 O3 1_555 1_555
O2 Ca1A 1_555 1_555
C3 C4 1_555 1_555

#END
