
#######################################################################
#
#                 Cambridge Crystallographic Data Centre
#                                CCDC 
#
#######################################################################
#
# If this CIF has been generated from an entry in the Cambridge 
# Structural Database, then it will include bibliographic, chemical, 
# crystal, experimental, refinement or atomic coordinate data resulting 
# from the CCDC's data processing and validation procedures.
#
#######################################################################

data_XEVMIW
_symmetry_cell_setting           triclinic
_symmetry_space_group_name_H-M   'P -1'
_symmetry_Int_Tables_number      2
_space_group_name_Hall           '-P 1'
loop_
_symmetry_equiv_pos_site_id
_symmetry_equiv_pos_as_xyz
1 x,y,z
2 -x,-y,-z
_cell_length_a                   8.670(3)
_cell_length_b                   10.059(3)
_cell_length_c                   14.185(4)
_cell_angle_alpha                97.739(7)
_cell_angle_beta                 92.257(7)
_cell_angle_gamma                93.448(7)
_cell_volume                     1222.2
loop_
_atom_site_label
_atom_site_type_symbol
_atom_site_fract_x
_atom_site_fract_y
_atom_site_fract_z
Mo1 Mo 0.36713(10) 0.96244(8) 0.83777(6)
Mo2 Mo 0.52390(11) 0.70856(9) 0.68366(7)
Cu1 Cu 0.06766(14) 0.44114(11) 0.81876(8)
P1 P 0.1456(3) 0.7092(2) 0.71434(18)
F1 F 0.4648(6) 0.7658(5) 0.8263(4)
F2 F 0.4437(6) 0.9067(5) 0.6975(4)
F3 F 0.5751(8) 1.0264(7) 0.8596(5)
F4 F 0.7133(7) 0.7985(6) 0.7367(4)
O1 O 0.0627(8) 0.6000(6) 0.7587(5)
O2 O 0.2959(7) 0.6631(6) 0.6677(5)
O3 O 0.1844(7) 0.8355(6) 0.7875(5)
O4 O 0.3251(8) 0.9587(6) 0.9534(5)
O5 O 0.2899(9) 1.1037(6) 0.8104(5)
O6 O 0.5568(9) 0.7156(8) 0.5677(5)
O7 O 0.5644(9) 0.5514(7) 0.6993(5)
O8 O 0.2704(8) 0.3536(7) 0.7444(5)
N1 N 0.1895(9) 0.5087(7) 0.9416(6)
N2 N 0.0319(9) 0.2876(7) 0.8861(5)
N3 N -0.0956(9) 0.3306(7) 0.7299(5)
C1 C 0.2672(12) 0.6297(9) 0.9652(7)
H1 H 0.2570 0.6963 0.9242
C2 C 0.3622(13) 0.6601(10) 1.0482(7)
H2 H 0.4168 0.7455 1.0632
C3 C 0.3749(12) 0.5628(10) 1.1080(8)
H3 H 0.4412 0.5799 1.1638
C4 C 0.2908(12) 0.4410(9) 1.0861(7)
H4 H 0.2957 0.3751 1.1281
C5 C 0.1997(11) 0.4155(9) 1.0031(7)
C6 C 0.1092(11) 0.2876(8) 0.9706(6)
C7 C 0.0948(10) 0.1769(8) 1.0188(7)
H5 H 0.1440 0.1794 1.0801
C8 C 0.0073(11) 0.0613(9) 0.9765(6)
C9 C -0.0713(11) 0.0651(9) 0.8867(7)
H6 H -0.1328 -0.0114 0.8566
C10 C -0.0576(10) 0.1824(9) 0.8429(7)
C11 C -0.1358(10) 0.2068(8) 0.7540(6)
C12 C -0.2419(11) 0.1206(9) 0.7015(7)
H7 H -0.2651 0.0339 0.7188
C13 C -0.3166(12) 0.1590(10) 0.6226(7)
H8 H -0.3934 0.1005 0.5860
C14 C -0.2766(12) 0.2851(10) 0.5981(7)
H9 H -0.3252 0.3144 0.5440
C15 C -0.1663(12) 0.3666(10) 0.6529(7)
H10 H -0.1389 0.4526 0.6355
C16 C 0.0232(11) 0.7576(8) 0.6228(7)
H11 H 0.0210 0.6882 0.5661
H12 H -0.0834 0.7620 0.6450
C17 C 0.0765(11) 0.8938(8) 0.5943(6)
H13 H 0.0734 0.9642 0.6500
H14 H 0.1849 0.8911 0.5751
C18 C -0.0244(11) 0.9308(8) 0.5123(7)
H15 H -0.0172 0.8629 0.4555
H16 H -0.1337 0.9294 0.5303
P1A P -0.1456(3) 1.2908(2) 0.28566(18)
O1A O -0.0627(8) 1.4000(6) 0.2413(5)
O2A O -0.2959(7) 1.3369(6) 0.3323(5)
O3A O -0.1844(7) 1.1645(6) 0.2125(5)
C16A C -0.0232(11) 1.2424(8) 0.3772(7)
H11A H -0.0210 1.3118 0.4339
H12A H 0.0834 1.2380 0.3550
C17A C -0.0765(11) 1.1062(8) 0.4057(6)
H13A H -0.0734 1.0358 0.3500
H14A H -0.1849 1.1089 0.4249
C18A C 0.0244(11) 1.0692(8) 0.4877(7)
H15A H 0.0172 1.1371 0.5445
H16A H 0.1337 1.0706 0.4697
N1A N -0.1895(9) -0.5087(7) 1.0584(6)
N2A N -0.0319(9) -0.2876(7) 1.1139(5)
N3A N 0.0956(9) -0.3306(7) 1.2701(5)
C1A C -0.2672(12) -0.6297(9) 1.0348(7)
H1A H -0.2570 -0.6963 1.0758
C2A C -0.3622(13) -0.6601(10) 0.9518(7)
H2A H -0.4168 -0.7455 0.9368
C3A C -0.3749(12) -0.5628(10) 0.8920(8)
H3A H -0.4412 -0.5799 0.8362
C4A C -0.2908(12) -0.4410(9) 0.9139(7)
H4A H -0.2957 -0.3751 0.8719
C5A C -0.1997(11) -0.4155(9) 0.9969(7)
C6A C -0.1092(11) -0.2876(8) 1.0294(6)
C7A C -0.0948(10) -0.1769(8) 0.9812(7)
H5A H -0.1440 -0.1794 0.9199
C8A C -0.0073(11) -0.0613(9) 1.0235(6)
C9A C 0.0713(11) -0.0651(9) 1.1133(7)
H6A H 0.1328 0.0114 1.1434
C10A C 0.0576(10) -0.1824(9) 1.1571(7)
C11A C 0.1358(10) -0.2068(8) 1.2460(6)
C12A C 0.2419(11) -0.1206(9) 1.2985(7)
H7A H 0.2651 -0.0339 1.2812
C13A C 0.3166(12) -0.1590(10) 1.3774(7)
H8A H 0.3934 -0.1005 1.4140
C14A C 0.2766(12) -0.2851(10) 1.4019(7)
H9A H 0.3252 -0.3144 1.4560
C15A C 0.1663(12) -0.3666(10) 1.3471(7)
H10A H 0.1389 -0.4526 1.3645
Cu1A Cu -0.06766(14) -0.44114(11) 1.18124(8)
O8A O -0.2704(8) -0.3536(7) 1.2556(5)
Mo1A Mo -0.36713(10) 1.03756(8) 0.16223(6)
Mo2A Mo -0.52390(11) 1.29144(9) 0.31634(7)
F1A F -0.4648(6) 1.2342(5) 0.1737(4)
F2A F -0.4437(6) 1.0933(5) 0.3025(4)
F3A F -0.5751(8) 0.9736(7) 0.1404(5)
F4A F -0.7133(7) 1.2015(6) 0.2633(4)
O4A O -0.3251(8) 1.0413(6) 0.0466(5)
O5A O -0.2899(9) 0.8963(6) 0.1896(5)
O6A O -0.5568(9) 1.2844(8) 0.4323(5)
O7A O -0.5644(9) 1.4486(7) 0.3007(5)
Cu1A_2 Cu -0.06766(14) 1.55886(11) 0.18124(8)
O1A_2 O -0.0627(8) -0.6000(6) 1.2413(5)
O9 O 0.2390(16) 0.4053(12) 0.5630(9)
loop_
_geom_bond_atom_site_label_1
_geom_bond_atom_site_label_2
_geom_bond_site_symmetry_1
_geom_bond_site_symmetry_2
Mo1 F1 1_555 1_555
Mo2 F1 1_555 1_555
Cu1 O1 1_555 1_555
P1 O1 1_555 1_555
F2 Mo1 1_555 1_555
F3 Mo1 1_555 1_555
F4 Mo2 1_555 1_555
O2 Mo2 1_555 1_555
O3 Mo1 1_555 1_555
O4 Mo1 1_555 1_555
O5 Mo1 1_555 1_555
O6 Mo2 1_555 1_555
O7 Mo2 1_555 1_555
O8 Cu1 1_555 1_555
N1 Cu1 1_555 1_555
N2 Cu1 1_555 1_555
N3 Cu1 1_555 1_555
C1 N1 1_555 1_555
H1 C1 1_555 1_555
C2 C1 1_555 1_555
H2 C2 1_555 1_555
C3 C2 1_555 1_555
H3 C3 1_555 1_555
C4 C3 1_555 1_555
H4 C4 1_555 1_555
C5 N1 1_555 1_555
C6 N2 1_555 1_555
C7 C6 1_555 1_555
H5 C7 1_555 1_555
C8 C7 1_555 1_555
C9 C8 1_555 1_555
H6 C9 1_555 1_555
C10 N2 1_555 1_555
C11 N3 1_555 1_555
C12 C11 1_555 1_555
H7 C12 1_555 1_555
C13 C12 1_555 1_555
H8 C13 1_555 1_555
C14 C13 1_555 1_555
H9 C14 1_555 1_555
C15 N3 1_555 1_555
H10 C15 1_555 1_555
C16 P1 1_555 1_555
H11 C16 1_555 1_555
H12 C16 1_555 1_555
C17 C16 1_555 1_555
H13 C17 1_555 1_555
H14 C17 1_555 1_555
C18 C17 1_555 1_555
H15 C18 1_555 1_555
H16 C18 1_555 1_555
P1A O1A 1_555 1_555
O1A Cu1A_2 1_555 1_555
O2A P1A 1_555 1_555
O3A P1A 1_555 1_555
C16A P1A 1_555 1_555
H11A C16A 1_555 1_555
H12A C16A 1_555 1_555
C17A C16A 1_555 1_555
H13A C17A 1_555 1_555
H14A C17A 1_555 1_555
C18A C18 1_555 1_555
H15A C18A 1_555 1_555
H16A C18A 1_555 1_555
N1A C1A 1_555 1_555
N2A C6A 1_555 1_555
N3A C11A 1_555 1_555
C1A H1A 1_555 1_555
C2A C1A 1_555 1_555
H2A C2A 1_555 1_555
C3A C2A 1_555 1_555
H3A C3A 1_555 1_555
C4A C3A 1_555 1_555
H4A C4A 1_555 1_555
C5A N1A 1_555 1_555
C6A C5A 1_555 1_555
C7A C6A 1_555 1_555
H5A C7A 1_555 1_555
C8A C8 1_555 1_555
C9A C8A 1_555 1_555
H6A C9A 1_555 1_555
C10A N2A 1_555 1_555
C11A C10A 1_555 1_555
C12A C11A 1_555 1_555
H7A C12A 1_555 1_555
C13A C12A 1_555 1_555
H8A C13A 1_555 1_555
C14A C13A 1_555 1_555
H9A C14A 1_555 1_555
C15A N3A 1_555 1_555
H10A C15A 1_555 1_555
Cu1A N1A 1_555 1_555
O8A Cu1A 1_555 1_555
Mo1A O3A 1_555 1_555
Mo2A O2A 1_555 1_555
F1A Mo1A 1_555 1_555
F2A Mo1A 1_555 1_555
F3A Mo1A 1_555 1_555
F4A Mo2A 1_555 1_555
O4A Mo1A 1_555 1_555
O5A Mo1A 1_555 1_555
O6A Mo2A 1_555 1_555
O7A Mo2A 1_555 1_555
O1A_2 Cu1A 1_555 1_555
Mo2 F2 1_555 1_555
P1 O2 1_555 1_555
P1 O3 1_555 1_555
C4 C5 1_555 1_555
C5 C6 1_555 1_555
C9 C10 1_555 1_555
C10 C11 1_555 1_555
C14 C15 1_555 1_555
C17A C18A 1_555 1_555
N2A Cu1A 1_555 1_555
N3A Cu1A 1_555 1_555
C4A C5A 1_555 1_555
C7A C8A 1_555 1_555
C9A C10A 1_555 1_555
C14A C15A 1_555 1_555
Mo2A F1A 1_555 1_555
Mo2A F2A 1_555 1_555

#END
