
#######################################################################
#
#                 Cambridge Crystallographic Data Centre
#                                CCDC 
#
#######################################################################
#
# If this CIF has been generated from an entry in the Cambridge 
# Structural Database, then it will include bibliographic, chemical, 
# crystal, experimental, refinement or atomic coordinate data resulting 
# from the CCDC's data processing and validation procedures.
#
#######################################################################

data_XEVMOC
_symmetry_cell_setting           triclinic
_symmetry_space_group_name_H-M   'P -1'
_symmetry_Int_Tables_number      2
_space_group_name_Hall           '-P 1'
loop_
_symmetry_equiv_pos_site_id
_symmetry_equiv_pos_as_xyz
1 x,y,z
2 -x,-y,-z
_cell_length_a                   9.2086(5)
_cell_length_b                   9.6673(6)
_cell_length_c                   15.8062(9)
_cell_angle_alpha                92.471(2)
_cell_angle_beta                 103.8410(10)
_cell_angle_gamma                115.6630(10)
_cell_volume                     1214.05
loop_
_atom_site_label
_atom_site_type_symbol
_atom_site_fract_x
_atom_site_fract_y
_atom_site_fract_z
Mo1 Mo 0.45722(5) 0.34597(5) 0.34198(3)
Cu1 Cu 0.03641(7) -0.06437(6) 0.28754(4)
P1 P 0.07568(15) 0.21177(14) 0.17793(8)
P2 P 0.43602(15) 0.75233(14) -0.16463(8)
F1 F 0.2866(3) 0.1249(3) 0.34769(18)
F2 F 0.5983(4) 0.3361(4) 0.4309(2)
O1 O -0.0080(4) 0.0414(4) 0.1904(2)
O2 O 0.3407(4) 0.4105(3) 0.40149(19)
O3 O 0.5739(4) 0.5276(4) 0.3157(2)
O4 O 0.2590(4) 0.3043(4) 0.2265(2)
O5 O -0.0164(4) 0.3011(4) 0.2077(2)
H1 H -0.1199 0.2525 0.1817
O6 O 0.4731(4) 0.7616(4) -0.2537(2)
O7 O 0.6106(4) 0.8242(4) -0.0922(2)
H2 H 0.5953 0.8173 -0.0419
O8 O 0.3380(4) 0.8378(4) -0.1514(2)
N1 N 0.1638(5) -0.1623(4) 0.2407(3)
N2 N 0.0242(5) -0.2191(4) 0.3638(2)
N3 N -0.1240(5) -0.0477(4) 0.3524(3)
C1 C 0.2337(6) -0.1220(5) 0.1752(3)
H3 H 0.2115 -0.0513 0.1410
C2 C 0.3375(6) -0.1795(5) 0.1552(3)
H4 H 0.3837 -0.1503 0.1072
C3 C 0.3733(6) -0.2799(6) 0.2058(3)
H5 H 0.4468 -0.3184 0.1942
C4 C 0.3001(6) -0.3237(5) 0.2740(3)
H6 H 0.3217 -0.3934 0.3094
C5 C 0.1953(6) -0.2637(5) 0.2892(3)
C6 C 0.1062(6) -0.3032(5) 0.3579(3)
C7 C 0.0996(6) -0.4146(5) 0.4104(3)
H7 H 0.1587 -0.4730 0.4059
C8 C 0.0050(6) -0.4404(5) 0.4702(3)
C9 C -0.0820(6) -0.3531(5) 0.4742(3)
H8 H -0.1482 -0.3690 0.5140
C10 C -0.0700(5) -0.2437(5) 0.4192(3)
C11 C -0.1569(6) -0.1442(5) 0.4123(3)
C12 C -0.2646(6) -0.1517(5) 0.4614(3)
H9 H -0.2851 -0.2212 0.5028
C13 C -0.3429(6) -0.0557(6) 0.4493(3)
H10 H -0.4165 -0.0576 0.4828
C14 C -0.3114(6) 0.0417(6) 0.3880(3)
H11 H -0.3642 0.1073 0.3781
C15 C -0.2014(6) 0.0434(6) 0.3404(3)
H12 H -0.1803 0.1111 0.2982
C16 C 0.0519(6) 0.2156(6) 0.0616(3)
H13 H 0.0869 0.1424 0.0377
H14 H -0.0680 0.1805 0.0301
C17 C 0.1571(7) 0.3787(6) 0.0446(3)
H15 H 0.1034 0.4448 0.0546
H16 H 0.2697 0.4240 0.0882
C18 C 0.1785(7) 0.3836(6) -0.0478(3)
H17 H 0.2276 0.3141 -0.0593
H18 H 0.0667 0.3441 -0.0916
C19 C 0.3218(6) 0.5549(5) -0.1518(3)
H19 H 0.3860 0.4976 -0.1588
H20 H 0.2127 0.5048 -0.1984
C20 C 0.2904(6) 0.5460(6) -0.0600(3)
H21 H 0.2384 0.6140 -0.0508
H22 H 0.3999 0.5870 -0.0141
N1A N -0.1638(5) -0.8377(4) 0.7593(3)
N2A N -0.0242(5) -0.7809(4) 0.6362(2)
N3A N 0.1240(5) -0.9523(4) 0.6476(3)
C1A C -0.2337(6) -0.8780(5) 0.8248(3)
H3A H -0.2115 -0.9487 0.8590
C2A C -0.3375(6) -0.8205(5) 0.8448(3)
H4A H -0.3837 -0.8497 0.8928
C3A C -0.3733(6) -0.7201(6) 0.7942(3)
H5A H -0.4468 -0.6816 0.8058
C4A C -0.3001(6) -0.6763(5) 0.7260(3)
H6A H -0.3217 -0.6066 0.6906
C5A C -0.1953(6) -0.7363(5) 0.7108(3)
C6A C -0.1062(6) -0.6968(5) 0.6421(3)
C7A C -0.0996(6) -0.5854(5) 0.5896(3)
H7A H -0.1587 -0.5270 0.5941
C8A C -0.0050(6) -0.5596(5) 0.5298(3)
C9A C 0.0820(6) -0.6469(5) 0.5258(3)
H8A H 0.1482 -0.6310 0.4860
C10A C 0.0700(5) -0.7563(5) 0.5808(3)
C11A C 0.1569(6) -0.8558(5) 0.5877(3)
C12A C 0.2646(6) -0.8483(5) 0.5386(3)
H9A H 0.2851 -0.7788 0.4972
C13A C 0.3429(6) -0.9443(6) 0.5507(3)
H10A H 0.4165 -0.9424 0.5172
C14A C 0.3114(6) -1.0417(6) 0.6120(3)
H11A H 0.3642 -1.1073 0.6219
C15A C 0.2014(6) -1.0434(6) 0.6596(3)
H12A H 0.1803 -1.1111 0.7018
Mo1A Mo -0.45722(5) -1.34597(5) 0.65802(3)
Cu1A Cu -0.03641(7) -0.93563(6) 0.71246(4)
P1A P -0.07568(15) -1.21177(14) 0.82207(8)
P2A P -0.43602(15) -1.75233(14) 1.16463(8)
F1A F -0.2866(3) -1.1249(3) 0.65231(18)
F2A F -0.5983(4) -1.3361(4) 0.5691(2)
O1A O 0.0080(4) -1.0414(4) 0.8096(2)
O2A O -0.3407(4) -1.4105(3) 0.59851(19)
O3A O -0.5739(4) -1.5276(4) 0.6843(2)
O4A O -0.2590(4) -1.3043(4) 0.7735(2)
O5A O 0.0164(4) -1.3011(4) 0.7923(2)
H1A H 0.1199 -1.2525 0.8183
O6A O -0.4731(4) -1.7616(4) 1.2537(2)
O7A O -0.6106(4) -1.8242(4) 1.0922(2)
H2A H -0.5953 -1.8173 1.0419
O8A O -0.3380(4) -1.8378(4) 1.1514(2)
C16A C -0.0519(6) -1.2156(6) 0.9384(3)
H13A H -0.0869 -1.1424 0.9623
H14A H 0.0680 -1.1805 0.9699
C17A C -0.1571(7) -1.3787(6) 0.9554(3)
H15A H -0.1034 -1.4448 0.9454
H16A H -0.2697 -1.4240 0.9118
C18A C -0.1785(7) -1.3836(6) 1.0478(3)
H17A H -0.2276 -1.3141 1.0593
H18A H -0.0667 -1.3441 1.0916
C19A C -0.3218(6) -1.5549(5) 1.1518(3)
H19A H -0.3860 -1.4976 1.1588
H20A H -0.2127 -1.5048 1.1984
C20A C -0.2904(6) -1.5460(6) 1.0600(3)
H21A H -0.2384 -1.6140 1.0508
H22A H -0.3999 -1.5870 1.0141
Mo1_2 Mo -0.54278(5) -1.65403(5) 1.34198(3)
Mo1A_2 Mo 0.54278(5) 0.65403(5) -0.34198(3)
O6_2 O -0.5269(4) -1.2384(4) 0.7463(2)
O6A_2 O 0.5269(4) 0.2384(4) 0.2537(2)
O9 O 0.6599(4) 0.9057(4) 0.0757(2)
loop_
_geom_bond_atom_site_label_1
_geom_bond_atom_site_label_2
_geom_bond_site_symmetry_1
_geom_bond_site_symmetry_2
Mo1 F1 1_555 1_555
Cu1 F1 1_555 1_555
P1 O1 1_555 1_555
P2 O6 1_555 1_555
F2 Mo1 1_555 1_555
O1 Cu1 1_555 1_555
O2 Mo1 1_555 1_555
O3 Mo1 1_555 1_555
O4 Mo1 1_555 1_555
O5 P1 1_555 1_555
H1 O5 1_555 1_555
O6 Mo1A_2 1_555 1_555
O7 P2 1_555 1_555
H2 O7 1_555 1_555
O8 P2 1_555 1_555
N1 Cu1 1_555 1_555
N2 Cu1 1_555 1_555
N3 Cu1 1_555 1_555
C1 N1 1_555 1_555
H3 C1 1_555 1_555
C2 C1 1_555 1_555
H4 C2 1_555 1_555
C3 C2 1_555 1_555
H5 C3 1_555 1_555
C4 C3 1_555 1_555
H6 C4 1_555 1_555
C5 N1 1_555 1_555
C6 N2 1_555 1_555
C7 C6 1_555 1_555
H7 C7 1_555 1_555
C8 C7 1_555 1_555
C9 C8 1_555 1_555
H8 C9 1_555 1_555
C10 N2 1_555 1_555
C11 N3 1_555 1_555
C12 C11 1_555 1_555
H9 C12 1_555 1_555
C13 C12 1_555 1_555
H10 C13 1_555 1_555
C14 C13 1_555 1_555
H11 C14 1_555 1_555
C15 N3 1_555 1_555
H12 C15 1_555 1_555
C16 P1 1_555 1_555
H13 C16 1_555 1_555
H14 C16 1_555 1_555
C17 C16 1_555 1_555
H15 C17 1_555 1_555
H16 C17 1_555 1_555
C18 C17 1_555 1_555
H17 C18 1_555 1_555
H18 C18 1_555 1_555
C19 P2 1_555 1_555
H19 C19 1_555 1_555
H20 C19 1_555 1_555
C20 C18 1_555 1_555
H21 C20 1_555 1_555
H22 C20 1_555 1_555
N1A C1A 1_555 1_555
N2A C6A 1_555 1_555
N3A C11A 1_555 1_555
C1A H3A 1_555 1_555
C2A C1A 1_555 1_555
H4A C2A 1_555 1_555
C3A C2A 1_555 1_555
H5A C3A 1_555 1_555
C4A C3A 1_555 1_555
H6A C4A 1_555 1_555
C5A N1A 1_555 1_555
C6A C5A 1_555 1_555
C7A C6A 1_555 1_555
H7A C7A 1_555 1_555
C8A C8 1_555 1_555
C9A C8A 1_555 1_555
H8A C9A 1_555 1_555
C10A N2A 1_555 1_555
C11A C10A 1_555 1_555
C12A C11A 1_555 1_555
H9A C12A 1_555 1_555
C13A C12A 1_555 1_555
H10A C13A 1_555 1_555
C14A C13A 1_555 1_555
H11A C14A 1_555 1_555
C15A N3A 1_555 1_555
H12A C15A 1_555 1_555
Mo1A F1A 1_555 1_555
Cu1A N1A 1_555 1_555
P1A O1A 1_555 1_555
P2A O6A 1_555 1_555
F1A Cu1A 1_555 1_555
F2A Mo1A 1_555 1_555
O1A Cu1A 1_555 1_555
O2A Mo1A 1_555 1_555
O3A Mo1A 1_555 1_555
O4A Mo1A 1_555 1_555
O5A P1A 1_555 1_555
H1A O5A 1_555 1_555
O6A Mo1_2 1_555 1_555
O7A P2A 1_555 1_555
H2A O7A 1_555 1_555
O8A P2A 1_555 1_555
C16A P1A 1_555 1_555
H13A C16A 1_555 1_555
H14A C16A 1_555 1_555
C17A C16A 1_555 1_555
H15A C17A 1_555 1_555
H16A C17A 1_555 1_555
C18A C17A 1_555 1_555
H17A C18A 1_555 1_555
H18A C18A 1_555 1_555
C19A P2A 1_555 1_555
H19A C19A 1_555 1_555
H20A C19A 1_555 1_555
C20A C18A 1_555 1_555
H21A C20A 1_555 1_555
H22A C20A 1_555 1_555
O6_2 Mo1A 1_555 1_555
O6A_2 Mo1 1_555 1_555
P1 O4 1_555 1_555
C4 C5 1_555 1_555
C5 C6 1_555 1_555
C9 C10 1_555 1_555
C10 C11 1_555 1_555
C14 C15 1_555 1_555
C19 C20 1_555 1_555
N2A Cu1A 1_555 1_555
N3A Cu1A 1_555 1_555
C4A C5A 1_555 1_555
C7A C8A 1_555 1_555
C9A C10A 1_555 1_555
C14A C15A 1_555 1_555
P1A O4A 1_555 1_555
C19A C20A 1_555 1_555

#END
