
#######################################################################
#
#                 Cambridge Crystallographic Data Centre
#                                CCDC 
#
#######################################################################
#
# If this CIF has been generated from an entry in the Cambridge 
# Structural Database, then it will include bibliographic, chemical, 
# crystal, experimental, refinement or atomic coordinate data resulting 
# from the CCDC's data processing and validation procedures.
#
#######################################################################

data_XEVMIU
_symmetry_cell_setting           monoclinic
_symmetry_space_group_name_H-M   'P 21/c'
_symmetry_Int_Tables_number      14
_space_group_name_Hall           '-P 2ybc'
loop_
_symmetry_equiv_pos_site_id
_symmetry_equiv_pos_as_xyz
1 x,y,z
2 x,1/2-y,1/2+z
3 -x,-y,-z
4 -x,1/2+y,1/2-z
_cell_length_a                   9.213(2)
_cell_length_b                   12.088(2)
_cell_length_c                   6.1960(10)
_cell_angle_alpha                90
_cell_angle_beta                 98.96(3)
_cell_angle_gamma                90
_cell_volume                     681.608
loop_
_atom_site_label
_atom_site_type_symbol
_atom_site_fract_x
_atom_site_fract_y
_atom_site_fract_z
Sr1 Sr 0.00938(5) 0.37933(4) 0.23157(8)
O1 O 0.2938(4) 0.4157(3) 0.2650(6)
O2 O 0.1612(4) 0.5559(3) 0.1134(6)
O3 O 0.8858(4) 0.5566(3) 0.3553(6)
O4 O 0.8698(4) 0.7005(3) 0.1249(6)
O5 O -0.1475(4) 0.2078(3) 0.0224(6)
H1 H -0.2343 0.2265 -0.0140
H2 H -0.1497 0.1520 0.1209
N1 N 0.4191(4) 0.6840(3) 0.1351(8)
N2 N 0.5629(4) 0.7102(4) 0.1487(8)
H3 H 0.5921 0.7739 0.1133
C1 C 0.2841(5) 0.5118(4) 0.1932(8)
C2 C 0.4209(5) 0.5776(4) 0.1974(8)
C3 C 0.5635(5) 0.5388(4) 0.2591(9)
H4 H 0.5978 0.4779 0.2977
C4 C 0.6526(5) 0.6252(4) 0.2230(8)
C5 C 0.8155(5) 0.6290(4) 0.2368(8)
O2B O -0.1612(4) 0.4441(3) -0.1134(6)
O3_2 O -0.1142(4) 0.5566(3) 0.3553(6)
O3B O 0.1142(4) 0.4434(3) 0.6447(6)
O4B O 0.1302(4) 0.2995(3) -0.1249(6)
O4C O 0.1302(4) 0.2005(3) 0.3751(6)
O5A O -0.1475(4) 0.2922(3) 0.5224(6)
Sr1B Sr -0.00938(5) 0.62067(4) -0.23157(8)
Sr1_2 Sr 1.00938(5) 0.37933(4) 0.23157(8)
Sr1B_2 Sr 0.99062(5) 0.62067(4) 0.76843(8)
Sr1B_3 Sr 0.99062(5) 0.62067(4) -0.23157(8)
Sr1C Sr 0.99062(5) 0.87933(4) 0.26843(8)
Sr1A Sr 0.00938(5) 0.12067(4) -0.26843(8)
H1A H -0.2343 0.2735 0.4860
H2A H -0.1497 0.3480 0.6209
loop_
_geom_bond_atom_site_label_1
_geom_bond_atom_site_label_2
_geom_bond_site_symmetry_1
_geom_bond_site_symmetry_2
Sr1 O1 1_555 1_555
O1 C1 1_555 1_555
O2 Sr1 1_555 1_555
O3 C5 1_555 1_555
O4 C5 1_555 1_555
O5 Sr1 1_555 1_555
H1 O5 1_555 1_555
H2 O5 1_555 1_555
N1 N2 1_555 1_555
N2 H3 1_555 1_555
C1 O2 1_555 1_555
C2 N1 1_555 1_555
C3 C2 1_555 1_555
H4 C3 1_555 1_555
C4 N2 1_555 1_555
C5 C4 1_555 1_555
O2B Sr1 1_555 1_555
O3_2 Sr1 1_555 1_555
O3B Sr1 1_555 1_555
O4B Sr1 1_555 1_555
O4C Sr1 1_555 1_555
O5A Sr1 1_555 1_555
Sr1B O2 1_555 1_555
Sr1_2 O3 1_555 1_555
Sr1B_2 O3 1_555 1_555
Sr1B_3 O4 1_555 1_555
Sr1C O4 1_555 1_555
Sr1A O5 1_555 1_555
H1A O5A 1_555 1_555
H2A O5A 1_555 1_555
C1 C2 1_555 1_555
C3 C4 1_555 1_555
O2B Sr1B 1_555 1_555
O4B Sr1A 1_555 1_555

#END
