
#######################################################################
#
#                 Cambridge Crystallographic Data Centre
#                                CCDC 
#
#######################################################################
#
# If this CIF has been generated from an entry in the Cambridge 
# Structural Database, then it will include bibliographic, chemical, 
# crystal, experimental, refinement or atomic coordinate data resulting 
# from the CCDC's data processing and validation procedures.
#
#######################################################################

data_XEVMUG
_symmetry_cell_setting           triclinic
_symmetry_space_group_name_H-M   'P -1'
_symmetry_Int_Tables_number      2
_space_group_name_Hall           '-P 1'
loop_
_symmetry_equiv_pos_site_id
_symmetry_equiv_pos_as_xyz
1 x,y,z
2 -x,-y,-z
_cell_length_a                   7.1070(10)
_cell_length_b                   9.780(2)
_cell_length_c                   11.431(2)
_cell_angle_alpha                74.69(3)
_cell_angle_beta                 73.39(3)
_cell_angle_gamma                85.29(3)
_cell_volume                     734.336
loop_
_atom_site_label
_atom_site_type_symbol
_atom_site_fract_x
_atom_site_fract_y
_atom_site_fract_z
Ba1 Ba -0.11578(7) 0.17998(6) -0.15663(5)
Ba2 Ba -0.38155(7) -0.05451(6) -0.35111(5)
O1 O -0.0767(8) 0.1400(6) -0.3931(5)
O2 O 0.0672(8) 0.2340(6) -0.5959(6)
O3 O -0.4597(8) 0.8033(6) -0.5220(5)
O4 O -0.2681(8) 0.7707(7) -0.7059(6)
O5 O -0.3443(9) 0.2054(7) 0.0727(6)
O6 O -0.4437(9) 0.3129(7) 0.2283(6)
O7 O -0.1428(8) 0.8955(6) -0.1894(6)
O8 O -0.1323(9) 0.8783(7) 0.0045(6)
O9 O -0.4791(9) 0.0939(9) -0.1583(7)
H1 H -0.5942 0.0474 -0.1010
H2 H -0.5384 0.1709 -0.2092
O10 O -0.7604(8) -0.0612(7) -0.3817(6)
H3 H -0.8615 0.0057 -0.3526
H4 H -0.8046 -0.1442 -0.3443
N1 N -0.2646(10) 0.3955(8) -0.3719(7)
N2 N -0.3391(9) 0.5268(8) -0.4028(7)
H5 H -0.3836 0.5780 -0.3556
N3 N -0.2102(9) 0.4643(8) -0.0937(7)
N4 N -0.1614(9) 0.6027(8) -0.1414(7)
H6 H -0.1074 0.6294 -0.2256
C1 C -0.0517(11) 0.2398(9) -0.4906(8)
C2 C -0.1665(11) 0.3719(9) -0.4843(8)
C3 C -0.1787(11) 0.4867(10) -0.5831(8)
H7 H -0.1289 0.4823 -0.6833
C4 C -0.2918(11) 0.5863(9) -0.5276(8)
C5 C -0.3445(12) 0.7311(9) -0.5888(8)
C6 C -0.3626(12) 0.3119(10) 0.1167(9)
C7 C -0.2732(11) 0.4492(10) 0.0291(8)
C8 C -0.2643(11) 0.5773(9) 0.0606(8)
H8 H -0.2808 0.5585 0.1500
C9 C -0.1915(11) 0.6736(9) -0.0495(8)
C10 C -0.1515(10) 0.8251(8) -0.0824(8)
O8A O 0.1323(9) 0.1217(7) -0.0045(6)
Ba2A Ba -0.61845(7) 0.05451(6) -0.64889(5)
O3A O -0.5403(8) 0.1967(6) -0.4780(5)
O5A O -0.6557(9) -0.2054(7) -0.0727(6)
O10A O -0.2396(8) 0.0612(7) -0.6183(6)
Ba2A_2 Ba -0.61845(7) 0.05451(6) 0.35111(5)
Ba1A Ba 0.11578(7) -0.17998(6) 0.15663(5)
O2A O -0.0672(8) -0.2340(6) -0.4041(6)
O6A O -0.5563(9) -0.3129(7) -0.2283(6)
O3_2 O -0.4597(8) -0.1967(6) -0.5220(5)
O4A O 0.2681(8) 0.2293(7) -0.2941(6)
O7_2 O -0.1428(8) -0.1045(6) -0.1894(6)
O8_2 O -0.1323(9) -0.1217(7) 0.0045(6)
Ba1_2 Ba -0.11578(7) 1.17998(6) -0.15663(5)
Ba1A_2 Ba 0.11578(7) 0.82002(6) 0.15663(5)
Ba2_2 Ba -0.38155(7) 0.94549(6) -0.35111(5)
Ba2A_3 Ba -0.61845(7) 1.05451(6) -0.64889(5)
Ba1A_3 Ba 0.11578(7) 0.82002(6) -0.84337(5)
Ba2A_4 Ba 0.38155(7) 0.05451(6) -0.64889(5)
H3A H -0.1385 -0.0057 -0.6474
H4A H -0.1954 0.1442 -0.6557
loop_
_geom_bond_atom_site_label_1
_geom_bond_atom_site_label_2
_geom_bond_site_symmetry_1
_geom_bond_site_symmetry_2
Ba1 O1 1_555 1_555
Ba2 O1 1_555 1_555
O1 C1 1_555 1_555
O2 C1 1_555 1_555
O3 C5 1_555 1_555
O4 C5 1_555 1_555
O5 Ba1 1_555 1_555
O6 C6 1_555 1_555
O7 C10 1_555 1_555
O8 C10 1_555 1_555
O9 Ba1 1_555 1_555
H1 O9 1_555 1_555
H2 O9 1_555 1_555
O10 Ba2 1_555 1_555
H3 O10 1_555 1_555
H4 O10 1_555 1_555
N1 Ba1 1_555 1_555
N2 N1 1_555 1_555
H5 N2 1_555 1_555
N3 Ba1 1_555 1_555
N4 N3 1_555 1_555
H6 N4 1_555 1_555
C1 C2 1_555 1_555
C2 N1 1_555 1_555
C3 C2 1_555 1_555
H7 C3 1_555 1_555
C4 N2 1_555 1_555
C5 C4 1_555 1_555
C6 O5 1_555 1_555
C7 N3 1_555 1_555
C8 C7 1_555 1_555
H8 C8 1_555 1_555
C9 N4 1_555 1_555
C10 C9 1_555 1_555
O8A Ba1 1_555 1_555
Ba2A O10 1_555 1_555
O3A Ba2 1_555 1_555
O5A Ba2 1_555 1_555
O10A Ba2 1_555 1_555
Ba2A_2 O5 1_555 1_555
Ba1A O8A 1_555 1_555
O2A Ba2 1_555 1_555
O6A Ba2 1_555 1_555
O3_2 Ba2 1_555 1_555
O4A Ba1 1_555 1_555
O7_2 Ba1 1_555 1_555
O8_2 Ba1 1_555 1_555
Ba1_2 O7 1_555 1_555
Ba1A_2 O8 1_555 1_555
Ba2_2 O3 1_555 1_555
Ba2A_3 O3 1_555 1_555
Ba1A_3 O4 1_555 1_555
Ba2A_4 O2 1_555 1_555
H3A O10A 1_555 1_555
H4A O10A 1_555 1_555
Ba2 O7_2 1_555 1_555
Ba2 O9 1_555 1_555
O6 Ba2A_2 1_555 1_555
O7 Ba2_2 1_555 1_555
O8 Ba1_2 1_555 1_555
C3 C4 1_555 1_555
C6 C7 1_555 1_555
C8 C9 1_555 1_555
Ba2A O3_2 1_555 1_555
Ba2A O3A 1_555 1_555
Ba2A O10A 1_555 1_555
Ba1A O8_2 1_555 1_555

#END
