
#######################################################################
#
#                 Cambridge Crystallographic Data Centre
#                                CCDC 
#
#######################################################################
#
# If this CIF has been generated from an entry in the Cambridge 
# Structural Database, then it will include bibliographic, chemical, 
# crystal, experimental, refinement or atomic coordinate data resulting 
# from the CCDC's data processing and validation procedures.
#
#######################################################################

data_XEVNUJ
_symmetry_cell_setting           triclinic
_symmetry_space_group_name_H-M   'P -1'
_symmetry_Int_Tables_number      2
_space_group_name_Hall           '-P 1'
loop_
_symmetry_equiv_pos_site_id
_symmetry_equiv_pos_as_xyz
1 x,y,z
2 -x,-y,-z
_cell_length_a                   10.4478(16)
_cell_length_b                   15.021(2)
_cell_length_c                   15.994(2)
_cell_angle_alpha                100.314(3)
_cell_angle_beta                 104.841(3)
_cell_angle_gamma                90.885(3)
_cell_volume                     2382.14
loop_
_atom_site_label
_atom_site_type_symbol
_atom_site_fract_x
_atom_site_fract_y
_atom_site_fract_z
O23 O 0.7959(3) 0.73137(17) 0.44111(14)
H32 H 0.8698(15) 0.7542(19) 0.4429(18)
H33 H 0.811(3) 0.7139(19) 0.4887(11)
O24 O 0.6615(2) 0.63191(16) 0.27086(14)
H34 H 0.710(2) 0.6573(16) 0.3199(11)
H35 H 0.606(2) 0.6694(15) 0.2625(18)
O25 O 0.1307(2) 0.94241(12) 0.23448(13)
H36 H 0.1889(18) 0.9824(14) 0.239(2)
H37 H 0.0616(15) 0.9710(16) 0.229(2)
O26 O 0.1370(3) 0.78669(16) 0.10903(18)
H38 H 0.2180(12) 0.789(2) 0.1336(19)
H39 H 0.113(3) 0.833(2) 0.136(3)
O27 O 0.4211(6) 0.7744(3) 0.2601(4)
Mo1 Mo 0.233623(16) 0.650377(11) 0.841567(11)
Mo2 Mo -0.079810(17) 0.678204(12) 0.850645(12)
Mo3 Mo -0.223370(17) 0.798678(12) 0.696825(11)
Mo4 Mo 0.054725(17) 0.895964(11) 0.631389(11)
Mo5 Mo 0.309448(16) 0.770856(11) 0.698094(11)
Cu1 Cu 0.55852(3) 0.697635(18) 0.999645(17)
Cu2 Cu -0.52519(2) 0.752896(16) 0.515948(16)
P1 P 0.10264(5) 0.86405(3) 0.83446(3)
P2 P 0.00380(5) 0.66500(3) 0.65251(3)
O1 O 0.38185(15) 0.68090(10) 0.92387(10)
O2 O 0.22410(15) 0.53523(10) 0.82709(10)
O3 O 0.11007(14) 0.68563(10) 0.90715(10)
O4 O -0.11480(15) 0.56457(11) 0.84305(11)
O5 O -0.11962(16) 0.73051(11) 0.94468(10)
O6 O -0.23042(14) 0.70326(10) 0.76172(10)
O7 O -0.27244(15) 0.88756(11) 0.76151(10)
O8 O -0.36608(15) 0.76846(10) 0.60865(10)
O9 O -0.11829(14) 0.86479(10) 0.64661(10)
O10 O 0.05420(15) 1.01000(10) 0.63318(11)
O11 O 0.02012(15) 0.85104(10) 0.52092(10)
O12 O 0.24328(14) 0.88165(10) 0.66846(10)
O13 O 0.34402(15) 0.72092(10) 0.60129(10)
O14 O 0.46087(15) 0.81128(10) 0.76666(10)
O15 O 0.28960(14) 0.66021(10) 0.74014(10)
O16 O 0.22031(14) 0.80461(9) 0.82827(10)
O17 O 0.09114(14) 0.93444(10) 0.77599(10)
O18 O -0.03069(14) 0.80482(10) 0.80700(10)
O19 O -0.14007(15) 0.68384(10) 0.61948(10)
O20 O 0.09271(14) 0.74844(9) 0.65348(10)
O21 O 0.03244(14) 0.63937(10) 0.74429(10)
O22 O 0.62749(17) 0.79136(12) 0.92677(12)
N1 N -1.47001(19) 0.80796(13) 0.08327(13)
N2 N -1.27875(17) 0.70387(12) 0.09189(12)
N3 N -1.37069(18) 0.57732(13) -0.03999(12)
N4 N -0.57811(18) 0.88212(12) 0.53419(12)
N5 N -0.68170(17) 0.74263(12) 0.41887(12)
N6 N -0.50763(18) 0.62750(12) 0.44811(12)
C1 C -1.5747(2) 0.85823(18) 0.06965(17)
H1 H -1.6496 0.8359 0.0243
C2 C -1.5753(3) 0.94321(18) 0.12131(17)
H2 H -1.6498 0.9769 0.1114
C3 C -1.4624(2) 0.97658(16) 0.18797(16)
H3 H -1.4598 1.0336 0.2227
C4 C -1.3531(2) 0.92413(15) 0.20245(15)
H4 H -1.2768 0.9455 0.2469
C5 C -1.3601(2) 0.83933(15) 0.14934(15)
C6 C -1.2521(2) 0.77607(14) 0.15695(14)
C7 C -1.1353(2) 0.78481(15) 0.22367(15)
H5 H -1.1166 0.8352 0.2691
C8 C -1.0455(2) 0.71604(14) 0.22136(14)
C9 C -1.0784(2) 0.64043(14) 0.15252(14)
H6 H -1.0216 0.5935 0.1501
C10 C -1.1970(2) 0.63688(14) 0.08810(14)
C11 C -1.2507(2) 0.56226(14) 0.01151(14)
C12 C -1.1895(2) 0.48271(14) -0.00565(14)
H7 H -1.1062 0.4748 0.0295
C13 C -1.2531(2) 0.41457(16) -0.07579(16)
H8 H -1.2145 0.3599 -0.0873
C14 C -1.3761(2) 0.43034(17) -0.12845(16)
H9 H -1.4208 0.3865 -0.1763
C15 C -1.4309(2) 0.51229(17) -0.10840(15)
H10 H -1.5128 0.5225 -0.1439
C16 C -0.5130(2) 0.95214(14) 0.59499(15)
H11 H -0.4327 0.9430 0.6331
C17 C -0.5613(2) 1.03818(15) 0.60326(15)
H12 H -0.5132 1.0860 0.6454
C18 C -0.6820(2) 1.05132(15) 0.54781(15)
H13 H -0.7161 1.1083 0.5519
C19 C -0.7518(2) 0.97816(15) 0.48570(15)
H14 H -0.8340 0.9851 0.4486
C20 C -0.6963(2) 0.89478(14) 0.48017(14)
C21 C -0.7570(2) 0.81320(14) 0.41434(14)
C22 C -0.8784(2) 0.80594(14) 0.35125(14)
H15 H -0.9320 0.8548 0.3489
C23 C -0.9189(2) 0.72392(14) 0.29140(14)
C24 C -0.8361(2) 0.65106(15) 0.29825(14)
H16 H -0.8608 0.5957 0.2598
C25 C -0.7167(2) 0.66311(14) 0.36333(14)
C26 C -0.6148(2) 0.59616(14) 0.37997(14)
C27 C -0.6248(2) 0.50914(15) 0.33015(14)
H17 H -0.7008 0.4882 0.2852
C28 C -0.5199(2) 0.45417(15) 0.34846(15)
H18 H -0.5237 0.3960 0.3157
C29 C -0.4086(2) 0.48770(14) 0.41683(15)
H19 H -0.3365 0.4523 0.4297
C30 C -0.4058(2) 0.57448(14) 0.46581(14)
H20 H -0.3316 0.5962 0.5119
C31 C 0.1183(2) 0.92273(14) 0.94500(14)
H21 H 0.1305 0.8792 0.9840
H22 H 0.1964 0.9645 0.9636
C32 C -0.0042(2) 0.97584(16) 0.95335(14)
H23 H -0.0148 1.0203 0.9153
H24 H -0.0824 0.9342 0.9328
C33 C 0.0407(2) 0.57111(14) 0.58008(14)
C34 C 0.0270(5) 0.5918(3) 0.4888(3)
H25 H 0.0903 0.6414 0.4929
H26 H -0.0613 0.6115 0.4669
C35 C 0.0500(4) 0.5104(3) 0.4231(3)
H27 H 0.0328 0.5257 0.3650
H28 H 0.1418 0.4954 0.4403
H29 H 0.581(2) 0.7971(19) 0.8786(10)
H30 H 0.7020(13) 0.788(2) 0.9196(17)
H31 H 0.1315(12) 0.5585(18) 0.6028(16)
P1A P -0.10264(5) 1.13595(3) 1.16554(3)
O16A O -0.22031(14) 1.19539(9) 1.17173(10)
O17A O -0.09114(14) 1.06556(10) 1.22401(10)
O18A O 0.03069(14) 1.19518(10) 1.19300(10)
C31A C -0.1183(2) 1.07727(14) 1.05500(14)
H21A H -0.1305 1.1208 1.0160
H22A H -0.1964 1.0355 1.0364
C32A C 0.0042(2) 1.02416(16) 1.04665(14)
H23A H 0.0148 0.9797 1.0847
H24A H 0.0824 1.0658 1.0672
P2A P -0.00380(5) 0.33500(3) 0.34749(3)
O19A O 0.14007(15) 0.31616(10) 0.38052(10)
O20A O -0.09271(14) 0.25156(9) 0.34652(10)
O21A O -0.03244(14) 0.36063(10) 0.25571(10)
C33A C -0.0407(2) 0.42889(14) 0.41992(14)
C34A C -0.0270(5) 0.4082(3) 0.5112(3)
H25A H -0.0903 0.3586 0.5071
H26A H 0.0613 0.3885 0.5331
C35A C -0.0500(4) 0.4896(3) 0.5769(3)
H27A H -0.0328 0.4743 0.6350
H28A H -0.1418 0.5046 0.5597
H31A H -0.1315(12) 0.4415(18) 0.3972(16)
Mo1A Mo -0.233623(16) 0.349623(11) 0.158433(11)
Mo2A Mo 0.079810(17) 0.321796(12) 0.149355(12)
Mo3A Mo 0.223370(17) 0.201322(12) 0.303175(11)
Mo4A Mo -0.054725(17) 0.104036(11) 0.368611(11)
Mo5A Mo -0.309448(16) 0.229144(11) 0.301906(11)
Cu1A Cu -0.55852(3) 0.302365(18) 0.000355(17)
Cu2A Cu 0.52519(2) 0.247104(16) 0.484052(16)
O1A O -0.38185(15) 0.31910(10) 0.07613(10)
O2A O -0.22410(15) 0.46477(10) 0.17291(10)
O3A O -0.11007(14) 0.31437(10) 0.09285(10)
O4A O 0.11480(15) 0.43543(11) 0.15695(11)
O5A O 0.11962(16) 0.26949(11) 0.05532(10)
O6A O 0.23042(14) 0.29674(10) 0.23828(10)
O7A O 0.27244(15) 0.11244(11) 0.23849(10)
O8A O 0.36608(15) 0.23154(10) 0.39135(10)
O9A O 0.11829(14) 0.13521(10) 0.35339(10)
O10A O -0.05420(15) -0.01000(10) 0.36682(11)
O11A O -0.02012(15) 0.14896(10) 0.47908(10)
O12A O -0.24328(14) 0.11835(10) 0.33154(10)
O13A O -0.34402(15) 0.27908(10) 0.39871(10)
O14A O -0.46087(15) 0.18872(10) 0.23334(10)
O15A O -0.28960(14) 0.33979(10) 0.25986(10)
O22A O -0.62749(17) 0.20864(12) 0.07323(12)
N1A N 1.47001(19) 0.19204(13) 0.91673(13)
N2A N 1.27875(17) 0.29613(12) 0.90811(12)
N3A N 1.37069(18) 0.42268(13) 1.03999(12)
N4A N 0.57811(18) 0.11788(12) 0.46581(12)
N5A N 0.68170(17) 0.25737(12) 0.58113(12)
N6A N 0.50763(18) 0.37250(12) 0.55189(12)
C1A C 1.5747(2) 0.14177(18) 0.93035(17)
H1A H 1.6496 0.1641 0.9757
C2A C 1.5753(3) 0.05679(18) 0.87869(17)
H2A H 1.6498 0.0231 0.8886
C3A C 1.4624(2) 0.02342(16) 0.81203(16)
H3A H 1.4598 -0.0336 0.7773
C4A C 1.3531(2) 0.07587(15) 0.79755(15)
H4A H 1.2768 0.0545 0.7531
C5A C 1.3601(2) 0.16067(15) 0.85066(15)
C6A C 1.2521(2) 0.22393(14) 0.84305(14)
C7A C 1.1353(2) 0.21519(15) 0.77633(15)
H5A H 1.1166 0.1648 0.7309
C8A C 1.0455(2) 0.28396(14) 0.77864(14)
C9A C 1.0784(2) 0.35957(14) 0.84748(14)
H6A H 1.0216 0.4065 0.8499
C10A C 1.1970(2) 0.36312(14) 0.91190(14)
C11A C 1.2507(2) 0.43774(14) 0.98849(14)
C12A C 1.1895(2) 0.51729(14) 1.00565(14)
H7A H 1.1062 0.5252 0.9705
C13A C 1.2531(2) 0.58543(16) 1.07579(16)
H8A H 1.2145 0.6401 1.0873
C14A C 1.3761(2) 0.56966(17) 1.12845(16)
H9A H 1.4208 0.6135 1.1763
C15A C 1.4309(2) 0.48771(17) 1.10840(15)
H10A H 1.5128 0.4775 1.1439
C16A C 0.5130(2) 0.04786(14) 0.40501(15)
H11A H 0.4327 0.0570 0.3669
C17A C 0.5613(2) -0.03818(15) 0.39674(15)
H12A H 0.5132 -0.0860 0.3546
C18A C 0.6820(2) -0.05132(15) 0.45219(15)
H13A H 0.7161 -0.1083 0.4481
C19A C 0.7518(2) 0.02184(15) 0.51430(15)
H14A H 0.8340 0.0149 0.5514
C20A C 0.6963(2) 0.10522(14) 0.51983(14)
C21A C 0.7570(2) 0.18680(14) 0.58566(14)
C22A C 0.8784(2) 0.19406(14) 0.64875(14)
H15A H 0.9320 0.1452 0.6511
C23A C 0.9189(2) 0.27608(14) 0.70860(14)
C24A C 0.8361(2) 0.34894(15) 0.70175(14)
H16A H 0.8608 0.4043 0.7402
C25A C 0.7167(2) 0.33689(14) 0.63667(14)
C26A C 0.6148(2) 0.40384(14) 0.62003(14)
C27A C 0.6248(2) 0.49086(15) 0.66985(14)
H17A H 0.7008 0.5118 0.7148
C28A C 0.5199(2) 0.54583(15) 0.65154(15)
H18A H 0.5237 0.6040 0.6843
C29A C 0.4086(2) 0.51230(14) 0.58317(15)
H19A H 0.3365 0.5477 0.5703
C30A C 0.4058(2) 0.42552(14) 0.53419(14)
H20A H 0.3316 0.4038 0.4881
H29A H -0.581(2) 0.2029(19) 0.1214(10)
H30A H -0.7020(13) 0.212(2) 0.0804(17)
Mo1A_2 Mo -0.233623(16) 1.349623(11) 1.158433(11)
Mo2A_2 Mo 0.079810(17) 1.321796(12) 1.149355(12)
Mo3A_2 Mo 0.223370(17) 1.201322(12) 1.303175(11)
Mo4A_2 Mo -0.054725(17) 1.104036(11) 1.368611(11)
Mo5A_2 Mo -0.309448(16) 1.229144(11) 1.301906(11)
Cu1_2 Cu -1.44148(3) 0.697635(18) -0.000355(17)
Cu1A_2 Cu 1.44148(3) 0.302365(18) 1.000355(17)
Cu2_2 Cu 0.47481(2) 0.752896(16) 0.515948(16)
Cu2A_2 Cu -0.47481(2) 0.247104(16) 0.484052(16)
O13_2 O -0.65598(15) 0.72092(10) 0.60129(10)
O13A_2 O 0.65598(15) 0.27908(10) 0.39871(10)
O16A_2 O -0.22031(14) 0.19539(9) 0.17173(10)
O17A_2 O -0.09114(14) 0.06556(10) 0.22401(10)
O18A_2 O 0.03069(14) 0.19518(10) 0.19300(10)
N1_2 N 0.52999(19) 0.80796(13) 1.08327(13)
N1A_2 N -0.52999(19) 0.19204(13) -0.08327(13)
N2_2 N 0.72125(17) 0.70387(12) 1.09189(12)
N2A_2 N -0.72125(17) 0.29613(12) -0.09189(12)
N3_2 N 0.62931(18) 0.57732(13) 0.96001(12)
N3A_2 N -0.62931(18) 0.42268(13) 0.03999(12)
loop_
_geom_bond_atom_site_label_1
_geom_bond_atom_site_label_2
_geom_bond_site_symmetry_1
_geom_bond_site_symmetry_2
Mo1 O1 1_555 1_555
Mo2 O3 1_555 1_555
Mo3 O6 1_555 1_555
Mo4 O9 1_555 1_555
Mo5 O12 1_555 1_555
Cu1 O1 1_555 1_555
Cu2 O8 1_555 1_555
P1 O16 1_555 1_555
P2 O19 1_555 1_555
O2 Mo1 1_555 1_555
O3 Mo1 1_555 1_555
O4 Mo2 1_555 1_555
O5 Mo2 1_555 1_555
O6 Mo2 1_555 1_555
O7 Mo3 1_555 1_555
O8 Mo3 1_555 1_555
O9 Mo3 1_555 1_555
O10 Mo4 1_555 1_555
O11 Mo4 1_555 1_555
O12 Mo4 1_555 1_555
O13 Mo5 1_555 1_555
O14 Mo5 1_555 1_555
O15 Mo1 1_555 1_555
O16 Mo1 1_555 1_555
O17 Mo4 1_555 1_555
O18 Mo2 1_555 1_555
O19 Mo3 1_555 1_555
O20 Mo4 1_555 1_555
O21 Mo1 1_555 1_555
O22 Cu1 1_555 1_555
N1 C1 1_555 1_555
N2 C6 1_555 1_555
N3 C11 1_555 1_555
N4 Cu2 1_555 1_555
N5 Cu2 1_555 1_555
N6 Cu2 1_555 1_555
C1 H1 1_555 1_555
C2 C1 1_555 1_555
H2 C2 1_555 1_555
C3 C2 1_555 1_555
H3 C3 1_555 1_555
C4 C3 1_555 1_555
H4 C4 1_555 1_555
C5 N1 1_555 1_555
C6 C5 1_555 1_555
C7 C6 1_555 1_555
H5 C7 1_555 1_555
C8 C7 1_555 1_555
C9 C8 1_555 1_555
H6 C9 1_555 1_555
C10 N2 1_555 1_555
C11 C10 1_555 1_555
C12 C11 1_555 1_555
H7 C12 1_555 1_555
C13 C12 1_555 1_555
H8 C13 1_555 1_555
C14 C13 1_555 1_555
H9 C14 1_555 1_555
C15 N3 1_555 1_555
H10 C15 1_555 1_555
C16 N4 1_555 1_555
H11 C16 1_555 1_555
C17 C16 1_555 1_555
H12 C17 1_555 1_555
C18 C17 1_555 1_555
H13 C18 1_555 1_555
C19 C18 1_555 1_555
H14 C19 1_555 1_555
C20 N4 1_555 1_555
C21 N5 1_555 1_555
C22 C21 1_555 1_555
H15 C22 1_555 1_555
C23 C8 1_555 1_555
C24 C23 1_555 1_555
H16 C24 1_555 1_555
C25 N5 1_555 1_555
C26 N6 1_555 1_555
C27 C26 1_555 1_555
H17 C27 1_555 1_555
C28 C27 1_555 1_555
H18 C28 1_555 1_555
C29 C28 1_555 1_555
H19 C29 1_555 1_555
C30 N6 1_555 1_555
H20 C30 1_555 1_555
C31 P1 1_555 1_555
H21 C31 1_555 1_555
H22 C31 1_555 1_555
C32 C31 1_555 1_555
H23 C32 1_555 1_555
H24 C32 1_555 1_555
C33 P2 1_555 1_555
C34 C33 1_555 1_555
H25 C34 1_555 1_555
H26 C34 1_555 1_555
C35 C34 1_555 1_555
H27 C35 1_555 1_555
H28 C35 1_555 1_555
H29 O22 1_555 1_555
H30 O22 1_555 1_555
H31 C33 1_555 1_555
O23 H32 1_555 1_555
H33 O23 1_555 1_555
O24 H34 1_555 1_555
H35 O24 1_555 1_555
O25 H36 1_555 1_555
H37 O25 1_555 1_555
O26 H38 1_555 1_555
H39 O26 1_555 1_555
P1A O16A 1_555 1_555
O16A Mo1A_2 1_555 1_555
O17A P1A 1_555 1_555
O18A P1A 1_555 1_555
C31A P1A 1_555 1_555
H21A C31A 1_555 1_555
H22A C31A 1_555 1_555
C32A C32 1_555 1_555
H23A C32A 1_555 1_555
H24A C32A 1_555 1_555
P2A O19A 1_555 1_555
O19A Mo3A 1_555 1_555
O20A P2A 1_555 1_555
O21A P2A 1_555 1_555
C33A C35 1_555 1_555
C34A C33A 1_555 1_555
H25A C34A 1_555 1_555
H26A C34A 1_555 1_555
C35A C33 1_555 1_555
H27A C35A 1_555 1_555
H28A C35A 1_555 1_555
H31A C33A 1_555 1_555
Mo1A O21A 1_555 1_555
Mo2A O21A 1_555 1_555
Mo3A O6A 1_555 1_555
Mo4A O20A 1_555 1_555
Mo5A O20A 1_555 1_555
Cu1A O1A 1_555 1_555
Cu2A O8A 1_555 1_555
O1A Mo1A 1_555 1_555
O2A Mo1A 1_555 1_555
O3A Mo1A 1_555 1_555
O4A Mo2A 1_555 1_555
O5A Mo2A 1_555 1_555
O6A Mo2A 1_555 1_555
O7A Mo3A 1_555 1_555
O8A Mo3A 1_555 1_555
O9A Mo3A 1_555 1_555
O10A Mo4A 1_555 1_555
O11A Mo4A 1_555 1_555
O12A Mo4A 1_555 1_555
O13A Mo5A 1_555 1_555
O14A Mo5A 1_555 1_555
O15A Mo1A 1_555 1_555
O22A Cu1A 1_555 1_555
N1A C1A 1_555 1_555
N2A C6A 1_555 1_555
N3A C11A 1_555 1_555
N4A Cu2A 1_555 1_555
N5A Cu2A 1_555 1_555
N6A Cu2A 1_555 1_555
C1A H1A 1_555 1_555
C2A C1A 1_555 1_555
H2A C2A 1_555 1_555
C3A C2A 1_555 1_555
H3A C3A 1_555 1_555
C4A C3A 1_555 1_555
H4A C4A 1_555 1_555
C5A N1A 1_555 1_555
C6A C5A 1_555 1_555
C7A C6A 1_555 1_555
H5A C7A 1_555 1_555
C8A C7A 1_555 1_555
C9A C8A 1_555 1_555
H6A C9A 1_555 1_555
C10A N2A 1_555 1_555
C11A C10A 1_555 1_555
C12A C11A 1_555 1_555
H7A C12A 1_555 1_555
C13A C12A 1_555 1_555
H8A C13A 1_555 1_555
C14A C13A 1_555 1_555
H9A C14A 1_555 1_555
C15A N3A 1_555 1_555
H10A C15A 1_555 1_555
C16A N4A 1_555 1_555
H11A C16A 1_555 1_555
C17A C16A 1_555 1_555
H12A C17A 1_555 1_555
C18A C17A 1_555 1_555
H13A C18A 1_555 1_555
C19A C18A 1_555 1_555
H14A C19A 1_555 1_555
C20A N4A 1_555 1_555
C21A N5A 1_555 1_555
C22A C21A 1_555 1_555
H15A C22A 1_555 1_555
C23A C8A 1_555 1_555
C24A C23A 1_555 1_555
H16A C24A 1_555 1_555
C25A N5A 1_555 1_555
C26A N6A 1_555 1_555
C27A C26A 1_555 1_555
H17A C27A 1_555 1_555
C28A C27A 1_555 1_555
H18A C28A 1_555 1_555
C29A C28A 1_555 1_555
H19A C29A 1_555 1_555
C30A N6A 1_555 1_555
H20A C30A 1_555 1_555
H29A O22A 1_555 1_555
H30A O22A 1_555 1_555
Mo2A_2 O18A 1_555 1_555
Mo3A_2 O18A 1_555 1_555
Mo4A_2 O17A 1_555 1_555
Mo5A_2 O16A 1_555 1_555
Cu1_2 N1 1_555 1_555
Cu1A_2 N1A 1_555 1_555
Cu2_2 O13 1_555 1_555
Cu2A_2 O13A 1_555 1_555
O13_2 Cu2 1_555 1_555
O13A_2 Cu2A 1_555 1_555
O16A_2 Mo1A 1_555 1_555
O17A_2 Mo4A 1_555 1_555
O18A_2 Mo2A 1_555 1_555
N1_2 Cu1 1_555 1_555
N1A_2 Cu1A 1_555 1_555
N2_2 Cu1 1_555 1_555
N2A_2 Cu1A 1_555 1_555
N3_2 Cu1 1_555 1_555
N3A_2 Cu1A 1_555 1_555
Mo2 O21 1_555 1_555
Mo3 O18 1_555 1_555
Mo5 O15 1_555 1_555
Mo5 O16 1_555 1_555
Mo5 O20 1_555 1_555
P1 O17 1_555 1_555
P1 O18 1_555 1_555
P2 O20 1_555 1_555
P2 O21 1_555 1_555
N2 Cu1_2 1_555 1_555
N3 Cu1_2 1_555 1_555
C4 C5 1_555 1_555
C9 C10 1_555 1_555
C14 C15 1_555 1_555
C19 C20 1_555 1_555
C20 C21 1_555 1_555
C22 C23 1_555 1_555
C24 C25 1_555 1_555
C25 C26 1_555 1_555
C29 C30 1_555 1_555
C31A C32A 1_555 1_555
P2A C33A 1_555 1_555
C34A C35A 1_555 1_555
Mo2A O3A 1_555 1_555
Mo3A O18A_2 1_555 1_555
Mo4A O9A 1_555 1_555
Mo5A O12A 1_555 1_555
Mo5A O15A 1_555 1_555
Mo5A O16A_2 1_555 1_555
N2A Cu1A_2 1_555 1_555
N3A Cu1A_2 1_555 1_555
C4A C5A 1_555 1_555
C9A C10A 1_555 1_555
C14A C15A 1_555 1_555
C19A C20A 1_555 1_555
C20A C21A 1_555 1_555
C22A C23A 1_555 1_555
C24A C25A 1_555 1_555
C25A C26A 1_555 1_555
C29A C30A 1_555 1_555

#END
