
#######################################################################
#
#                 Cambridge Crystallographic Data Centre
#                                CCDC 
#
#######################################################################
#
# If this CIF has been generated from an entry in the Cambridge 
# Structural Database, then it will include bibliographic, chemical, 
# crystal, experimental, refinement or atomic coordinate data resulting 
# from the CCDC's data processing and validation procedures.
#
#######################################################################

data_XEVNER
_symmetry_cell_setting           triclinic
_symmetry_space_group_name_H-M   'P -1'
_symmetry_Int_Tables_number      2
_space_group_name_Hall           '-P 1'
loop_
_symmetry_equiv_pos_site_id
_symmetry_equiv_pos_as_xyz
1 x,y,z
2 -x,-y,-z
_cell_length_a                   10.5520(2)
_cell_length_b                   12.18490(10)
_cell_length_c                   12.8571(2)
_cell_angle_alpha                65.9950(10)
_cell_angle_beta                 72.07
_cell_angle_gamma                77.4770(10)
_cell_volume                     1428.78
loop_
_atom_site_label
_atom_site_type_symbol
_atom_site_fract_x
_atom_site_fract_y
_atom_site_fract_z
Cd1 Cd 0.0000 0.0000 0.0000
S1 S -0.22023(12) -0.42624(11) 0.55270(10)
S2 S -0.52347(13) -0.42650(12) 0.83729(13)
N1 N 0.1985(5) 0.1103(6) 0.0785(6)
O1 O 0.1668(5) 0.0288(4) 0.0692(4)
O2 O 0.1417(7) 0.2188(5) 0.0111(6)
O3 O 0.2977(6) 0.1194(5) 0.1020(5)
C1 C -0.5937(5) -0.4715(4) 0.7502(4)
H1 H -0.6866 -0.4858 0.7885
H2 H -0.5898 -0.4084 0.6732
C2 C -0.5119(4) -0.5857(4) 0.7386(3)
C3 C -0.5451(5) -0.6965(4) 0.8290(4)
H3 H -0.6164 -0.6969 0.8934
C4 C -0.4749(6) -0.8038(4) 0.8246(5)
H4 H -0.4981 -0.8760 0.8858
C5 C -0.3693(5) -0.8045(4) 0.7287(5)
H5 H -0.3207 -0.8770 0.7256
C6 C -0.3366(4) -0.6966(4) 0.6376(4)
H6 H -0.2670 -0.6978 0.5726
C7 C -0.4052(4) -0.5865(4) 0.6408(3)
C8 C -0.3651(4) -0.4712(4) 0.5384(4)
H7 H -0.4388 -0.4078 0.5376
H8 H -0.3438 -0.4843 0.4651
N2 N -0.0736(4) -0.1372(3) 0.1930(3)
C9 C 0.0004(5) -0.1892(5) 0.2729(4)
H9 H 0.0859 -0.1664 0.2529
C10 C -0.0439(5) -0.2744(4) 0.3825(4)
H10 H 0.0107 -0.3064 0.4349
C11 C -0.1695(4) -0.3122(4) 0.4148(4)
C12 C -0.2487(4) -0.2558(4) 0.3339(4)
H11 H -0.3354 -0.2752 0.3526
C13 C -0.1968(4) -0.1712(5) 0.2265(4)
H12 H -0.2508 -0.1352 0.1737
N3 N 0.1687(4) -0.1397(3) -0.0598(3)
C14 C 0.2769(5) -0.1874(5) -0.0161(5)
H13 H 0.2885 -0.1613 0.0388
C15 C 0.3710(5) -0.2722(5) -0.0478(5)
H14 H 0.4447 -0.3020 -0.0153
C16 C -0.6441(4) -0.3135(4) 0.8709(4)
C17 C 0.1584(5) -0.1770(5) -0.1403(4)
H15 H 0.0861 -0.1429 -0.1742
C18 C -0.7524(5) -0.2626(5) 0.8230(4)
H16 H -0.7654 -0.2855 0.7666
O1A O -0.1668(5) -0.0288(4) -0.0692(4)
N2A N 0.0736(4) 0.1372(3) -0.1930(3)
N3A N -0.1687(4) 0.1397(3) 0.0598(3)
C16_2 C 0.3559(4) -0.3135(4) -0.1291(4)
C15_2 C -0.6290(5) -0.2722(5) 0.9522(5)
C18_2 C 0.2476(5) -0.2626(5) -0.1770(4)
C17_2 C -0.8416(5) -0.1770(5) 0.8597(4)
N1A N -0.1985(5) -0.1103(6) -0.0785(6)
O2A O -0.1417(7) -0.2188(5) -0.0111(6)
O3A O -0.2977(6) -0.1194(5) -0.1020(5)
C14_2 C -0.7231(5) -0.1874(5) 0.9839(5)
H14_2 H -0.5553 -0.3020 0.9847
N3_2 N -0.8313(4) -0.1397(3) 0.9402(3)
H15_2 H -0.9139 -0.1429 0.8258
H13_2 H -0.7115 -0.1613 1.0388
Cd1_2 Cd -1.0000 0.0000 1.0000
S2_2 S 0.47653(13) -0.42650(12) -0.16271(13)
H16_2 H 0.2346 -0.2855 -0.2334
C1_2 C 0.4063(5) -0.4715(4) -0.2498(4)
H1_2 H 0.3134 -0.4858 -0.2115
H2_2 H 0.4102 -0.4084 -0.3268
C2_2 C 0.4881(4) -0.5857(4) -0.2614(3)
C3_2 C 0.4549(5) -0.6965(4) -0.1710(4)
C7_2 C 0.5948(4) -0.5865(4) -0.3592(3)
C6_2 C 0.6634(4) -0.6966(4) -0.3624(4)
C8_2 C 0.6349(4) -0.4712(4) -0.4616(4)
H3_2 H 0.3836 -0.6969 -0.1066
C4_2 C 0.5251(6) -0.8038(4) -0.1754(5)
S1_2 S 0.77977(12) -0.42624(11) -0.44730(10)
H7_2 H 0.5612 -0.4078 -0.4624
H8_2 H 0.6562 -0.4843 -0.5349
C5_2 C 0.6307(5) -0.8045(4) -0.2713(5)
H6_2 H 0.7330 -0.6978 -0.4274
H4_2 H 0.5019 -0.8760 -0.1142
C11_2 C 0.8305(4) -0.3122(4) -0.5852(4)
C10_2 C 0.9561(5) -0.2744(4) -0.6175(4)
C12_2 C 0.7513(4) -0.2558(4) -0.6661(4)
H11_2 H 0.6646 -0.2752 -0.6474
C13_2 C 0.8032(4) -0.1712(5) -0.7735(4)
C9_2 C 1.0004(5) -0.1892(5) -0.7271(4)
H10_2 H 1.0107 -0.3064 -0.5651
N2_2 N 0.9264(4) -0.1372(3) -0.8070(3)
H12_2 H 0.7492 -0.1352 -0.8263
H9_2 H 1.0859 -0.1664 -0.7471
Cd1_3 Cd 1.0000 0.0000 -1.0000
N2_3 N -1.0736(4) -0.1372(3) 1.1930(3)
H5_2 H 0.6793 -0.8770 -0.2744
O4 O 0.1094(9) -0.3524(12) 0.6453(7)
N4 N -0.0530(5) -0.4364(5) 0.7993(5)
C19 C -0.006(2) -0.5522(14) 0.808(2)
H17 H 0.0764 -0.5524 0.7487
H18 H -0.0707 -0.5876 0.7960
H19 H 0.0103 -0.5982 0.8841
C20 C -0.1749(14) -0.4252(17) 0.8826(17)
H20 H -0.2011 -0.3415 0.8717
H21 H -0.1625 -0.4692 0.9606
H22 H -0.2433 -0.4573 0.8719
C21 C -0.0012(14) -0.3408(15) 0.7144(11)
O5 O -0.5601(8) -0.1954(6) 0.5273(6)
N5 N -0.6490(11) -0.0074(6) 0.4349(7)
C22 C -0.611(3) 0.0897(18) 0.3529(17)
H23 H -0.5167 0.0789 0.3206
H24 H -0.6316 0.1533 0.3833
H25 H -0.6576 0.1106 0.2926
C23 C -0.791(2) -0.002(2) 0.4876(19)
H26 H -0.8121 -0.0785 0.5485
H27 H -0.8385 0.0165 0.4289
H28 H -0.8164 0.0598 0.5207
C24 C -0.591(2) -0.1051(11) 0.4792(15)
loop_
_geom_bond_atom_site_label_1
_geom_bond_atom_site_label_2
_geom_bond_site_symmetry_1
_geom_bond_site_symmetry_2
Cd1 O1 1_555 1_555
S1 C8 1_555 1_555
S2 C1 1_555 1_555
N1 O1 1_555 1_555
O2 N1 1_555 1_555
O3 N1 1_555 1_555
C1 H1 1_555 1_555
H2 C1 1_555 1_555
C2 C1 1_555 1_555
C3 C2 1_555 1_555
H3 C3 1_555 1_555
C4 C3 1_555 1_555
H4 C4 1_555 1_555
C5 C4 1_555 1_555
H5 C5 1_555 1_555
C6 C5 1_555 1_555
H6 C6 1_555 1_555
C7 C2 1_555 1_555
C8 C7 1_555 1_555
H7 C8 1_555 1_555
H8 C8 1_555 1_555
N2 Cd1 1_555 1_555
C9 N2 1_555 1_555
H9 C9 1_555 1_555
C10 C9 1_555 1_555
H10 C10 1_555 1_555
C11 S1 1_555 1_555
C12 C11 1_555 1_555
H11 C12 1_555 1_555
C13 N2 1_555 1_555
H12 C13 1_555 1_555
N3 Cd1 1_555 1_555
C14 N3 1_555 1_555
H13 C14 1_555 1_555
C15 C14 1_555 1_555
H14 C15 1_555 1_555
C16 S2 1_555 1_555
C17 N3 1_555 1_555
H15 C17 1_555 1_555
C18 C16 1_555 1_555
H16 C18 1_555 1_555
O4 C21 1_555 1_555
N4 C19 1_555 1_555
C19 H17 1_555 1_555
H18 C19 1_555 1_555
H19 C19 1_555 1_555
C20 N4 1_555 1_555
H20 C20 1_555 1_555
H21 C20 1_555 1_555
H22 C20 1_555 1_555
C21 N4 1_555 1_555
O5 C24 1_555 1_555
N5 C22 1_555 1_555
C22 H23 1_555 1_555
H24 C22 1_555 1_555
H25 C22 1_555 1_555
C23 N5 1_555 1_555
H26 C23 1_555 1_555
H27 C23 1_555 1_555
H28 C23 1_555 1_555
C24 N5 1_555 1_555
O1A Cd1 1_555 1_555
N2A Cd1 1_555 1_555
N3A Cd1 1_555 1_555
C16_2 C15 1_555 1_555
C15_2 C16 1_555 1_555
C18_2 C17 1_555 1_555
C17_2 C18 1_555 1_555
N1A O1A 1_555 1_555
O2A N1A 1_555 1_555
O3A N1A 1_555 1_555
C14_2 C15_2 1_555 1_555
H14_2 C15_2 1_555 1_555
N3_2 C17_2 1_555 1_555
H15_2 C17_2 1_555 1_555
H13_2 C14_2 1_555 1_555
Cd1_2 N3_2 1_555 1_555
S2_2 C16_2 1_555 1_555
H16_2 C18_2 1_555 1_555
C1_2 S2_2 1_555 1_555
H1_2 C1_2 1_555 1_555
H2_2 C1_2 1_555 1_555
C2_2 C1_2 1_555 1_555
C3_2 C2_2 1_555 1_555
C7_2 C2_2 1_555 1_555
C6_2 C7_2 1_555 1_555
C8_2 C7_2 1_555 1_555
H3_2 C3_2 1_555 1_555
C4_2 C3_2 1_555 1_555
S1_2 C8_2 1_555 1_555
H7_2 C8_2 1_555 1_555
H8_2 C8_2 1_555 1_555
C5_2 C6_2 1_555 1_555
H6_2 C6_2 1_555 1_555
H4_2 C4_2 1_555 1_555
C11_2 S1_2 1_555 1_555
C10_2 C11_2 1_555 1_555
C12_2 C11_2 1_555 1_555
H11_2 C12_2 1_555 1_555
C13_2 C12_2 1_555 1_555
C9_2 C10_2 1_555 1_555
H10_2 C10_2 1_555 1_555
N2_2 C13_2 1_555 1_555
H12_2 C13_2 1_555 1_555
H9_2 C9_2 1_555 1_555
Cd1_3 N2_2 1_555 1_555
N2_3 Cd1_2 1_555 1_555
H5_2 C5_2 1_555 1_555
C6 C7 1_555 1_555
C10 C11 1_555 1_555
C12 C13 1_555 1_555
C16_2 C18_2 1_555 1_555
C14_2 N3_2 1_555 1_555
C4_2 C5_2 1_555 1_555
C9_2 N2_2 1_555 1_555

#END
