
#######################################################################
#
#                 Cambridge Crystallographic Data Centre
#                                CCDC 
#
#######################################################################
#
# If this CIF has been generated from an entry in the Cambridge 
# Structural Database, then it will include bibliographic, chemical, 
# crystal, experimental, refinement or atomic coordinate data resulting 
# from the CCDC's data processing and validation procedures.
#
#######################################################################

data_XEVNET
_symmetry_cell_setting           monoclinic
_symmetry_space_group_name_H-M   'C 2/c'
_symmetry_Int_Tables_number      15
_space_group_name_Hall           '-C 2yn'
loop_
_symmetry_equiv_pos_site_id
_symmetry_equiv_pos_as_xyz
1 x,y,z
2 -x,y,1/2-z
3 1/2+x,1/2+y,z
4 1/2-x,1/2+y,1/2-z
5 -x,-y,-z
6 x,-y,1/2+z
7 1/2-x,1/2-y,-z
8 1/2+x,1/2-y,1/2+z
_cell_length_a                   14.2755(7)
_cell_length_b                   15.9451(8)
_cell_length_c                   18.4226(9)
_cell_angle_alpha                90
_cell_angle_beta                 93.6230(10)
_cell_angle_gamma                90
_cell_volume                     4185.05
loop_
_atom_site_label
_atom_site_type_symbol
_atom_site_fract_x
_atom_site_fract_y
_atom_site_fract_z
Mo1 Mo 0.04154(3) 0.11943(2) 0.58802(2)
Mo2 Mo 0.17537(3) -0.00381(2) 0.47082(2)
Cu1 Cu 0.35414(4) 0.09415(3) 0.73292(3)
P1 P 0.27109(8) 0.14637(7) 0.57680(6)
F1 F 0.12423(19) 0.00616(16) 0.57766(14)
O1 O 0.3498(2) 0.13380(18) 0.63490(15)
F2 F 0.09085(16) 0.10871(15) 0.48135(13)
O2 O 0.2706(2) 0.07425(18) 0.52148(16)
O3 O 0.1767(2) 0.15837(18) 0.61039(15)
O4 O 0.2057(2) 0.0875(2) 0.76573(17)
O5 O 0.2014(2) 0.0240(2) 0.38450(16)
N1 N 0.4043(2) 0.0597(2) 0.82839(19)
N2 N 0.3825(2) 0.2077(2) 0.77817(19)
O6 O -0.0593(2) 0.0566(2) 0.5496(2)
N3 N 0.3603(2) -0.0326(2) 0.71832(19)
O7 O 0.0021(2) 0.2196(2) 0.57299(17)
O8 O 0.0306(2) 0.1029(2) 0.67803(18)
C1 C 0.2912(3) 0.2404(3) 0.5276(2)
H1 H 0.2998 0.2878 0.5622
H2 H 0.3496 0.2345 0.5017
C2 C 0.4511(3) -0.0479(3) 0.9111(2)
H3 H 0.4579 -0.1059 0.9220
O9 O 0.2427(2) -0.0893(2) 0.48920(19)
C3 C 0.4651(3) 0.0969(3) 0.9463(2)
H4 H 0.4808 0.1391 0.9814
C4 C 0.3393(3) -0.1621(3) 0.6547(3)
H5 H 0.3230 -0.1904 0.6103
C5 C 0.3866(3) -0.0762(3) 0.7799(2)
C6 C 0.4287(3) 0.1186(3) 0.8773(2)
C7 C 0.3371(3) -0.0752(3) 0.6579(2)
H6 H 0.3183 -0.0449 0.6150
C8 C 0.4783(3) 0.0127(3) 0.9634(2)
C9 C 0.4175(3) 0.2049(3) 0.8483(2)
C10 C 0.4144(3) -0.0224(3) 0.8436(2)
C11 C 0.3655(4) -0.2067(3) 0.7168(3)
H7 H 0.3682 -0.2662 0.7158
C12 C 0.3880(3) -0.1628(3) 0.7813(3)
H8 H 0.4041 -0.1921 0.8253
C13 C 0.4435(3) 0.2768(3) 0.8863(2)
H9 H 0.4679 0.2734 0.9354
C14 C 0.3953(3) 0.3568(3) 0.7811(3)
H10 H 0.3860 0.4092 0.7571
C15 C 0.3711(3) 0.2832(3) 0.7461(2)
H11 H 0.3452 0.2857 0.6973
C16 C 0.4337(3) 0.3534(3) 0.8522(3)
H12 H 0.4530 0.4033 0.8770
P1F P 0.22891(8) 0.35363(7) 0.42320(6)
O1F O 0.1502(2) 0.36620(18) 0.36510(15)
O2F O 0.2294(2) 0.42575(18) 0.47852(16)
O3F O 0.3233(2) 0.34163(18) 0.38961(15)
C1F C 0.2088(3) 0.2596(3) 0.4724(2)
H1F H 0.2002 0.2122 0.4378
H2F H 0.1504 0.2655 0.4983
N1D N 0.5957(2) -0.0597(2) 1.17161(19)
N2D N 0.6175(2) -0.2077(2) 1.22183(19)
N3D N 0.6397(2) 0.0326(2) 1.28168(19)
C2D C 0.5489(3) 0.0479(3) 1.0889(2)
H3D H 0.5421 0.1059 1.0780
C3D C 0.5349(3) -0.0969(3) 1.0537(2)
H4D H 0.5192 -0.1391 1.0186
C4D C 0.6607(3) 0.1621(3) 1.3453(3)
H5D H 0.6770 0.1904 1.3897
C5D C 0.6134(3) 0.0762(3) 1.2201(2)
C6D C 0.5713(3) -0.1186(3) 1.1227(2)
C7D C 0.6629(3) 0.0752(3) 1.3421(2)
H6D H 0.6817 0.0449 1.3850
C8D C 0.5217(3) -0.0127(3) 1.0366(2)
C9D C 0.5825(3) -0.2049(3) 1.1517(2)
C10D C 0.5856(3) 0.0224(3) 1.1564(2)
C11D C 0.6345(4) 0.2067(3) 1.2832(3)
H7D H 0.6318 0.2662 1.2842
C12D C 0.6120(3) 0.1628(3) 1.2187(3)
H8D H 0.5959 0.1921 1.1747
C13D C 0.5565(3) -0.2768(3) 1.1137(2)
H9D H 0.5321 -0.2734 1.0646
C14D C 0.6047(3) -0.3568(3) 1.2189(3)
H10D H 0.6140 -0.4092 1.2429
C15D C 0.6289(3) -0.2832(3) 1.2539(2)
H11D H 0.6548 -0.2857 1.3027
C16D C 0.5663(3) -0.3534(3) 1.1478(3)
H12D H 0.5470 -0.4033 1.1230
Mo1D Mo -0.04154(3) -0.11943(2) 0.41198(2)
Mo2D Mo -0.17537(3) 0.00381(2) 0.52918(2)
F1D F -0.12423(19) -0.00616(16) 0.42234(14)
F2D F -0.09085(16) -0.10871(15) 0.51865(13)
O5D O -0.2014(2) -0.0240(2) 0.61550(16)
O6D O 0.0593(2) -0.0566(2) 0.4504(2)
O7D O -0.0021(2) -0.2196(2) 0.42701(17)
O8D O -0.0306(2) -0.1029(2) 0.32197(18)
O9D O -0.2427(2) 0.0893(2) 0.51080(19)
Cu1F Cu 0.14586(4) 0.40585(3) 0.26708(3)
O4F O 0.2943(2) 0.4125(2) 0.23427(17)
Mo1F Mo 0.45846(3) 0.38057(2) 0.41198(2)
Mo2F Mo 0.32463(3) 0.50381(2) 0.52918(2)
Cu1D Cu 0.64586(4) -0.09415(3) 1.26708(3)
O2D O -0.2706(2) -0.07425(18) 0.47852(16)
O3D O -0.1767(2) -0.15837(18) 0.38961(15)
N1F N 0.0957(2) 0.4403(2) 0.17161(19)
N2F N 0.1175(2) 0.2923(2) 0.22183(19)
N3F N 0.1397(2) 0.5326(2) 0.28168(19)
loop_
_geom_bond_atom_site_label_1
_geom_bond_atom_site_label_2
_geom_bond_site_symmetry_1
_geom_bond_site_symmetry_2
Mo1 F1 1_555 1_555
Mo2 F1 1_555 1_555
Cu1 O1 1_555 1_555
P1 O1 1_555 1_555
F2 Mo1 1_555 1_555
O2 Mo2 1_555 1_555
O3 Mo1 1_555 1_555
O4 Cu1 1_555 1_555
O5 Mo2 1_555 1_555
N1 Cu1 1_555 1_555
N2 Cu1 1_555 1_555
O6 Mo1 1_555 1_555
N3 Cu1 1_555 1_555
O7 Mo1 1_555 1_555
O8 Mo1 1_555 1_555
C1 P1 1_555 1_555
H1 C1 1_555 1_555
H2 C1 1_555 1_555
C2 H3 1_555 1_555
O9 Mo2 1_555 1_555
C3 H4 1_555 1_555
C4 H5 1_555 1_555
C5 N3 1_555 1_555
C6 N1 1_555 1_555
C7 N3 1_555 1_555
H6 C7 1_555 1_555
C8 C2 1_555 1_555
C9 N2 1_555 1_555
C10 N1 1_555 1_555
C11 C4 1_555 1_555
H7 C11 1_555 1_555
C12 C5 1_555 1_555
H8 C12 1_555 1_555
C13 C9 1_555 1_555
H9 C13 1_555 1_555
C14 H10 1_555 1_555
C15 N2 1_555 1_555
H11 C15 1_555 1_555
C16 C13 1_555 1_555
H12 C16 1_555 1_555
P1F O1F 1_555 1_555
O1F Cu1F 1_555 1_555
O2F P1F 1_555 1_555
O3F P1F 1_555 1_555
C1F C1 1_555 1_555
H1F C1F 1_555 1_555
H2F C1F 1_555 1_555
N1D C6D 1_555 1_555
N2D C9D 1_555 1_555
N3D C5D 1_555 1_555
C2D H3D 1_555 1_555
C3D H4D 1_555 1_555
C4D H5D 1_555 1_555
C5D C10D 1_555 1_555
C6D C3D 1_555 1_555
C7D N3D 1_555 1_555
H6D C7D 1_555 1_555
C8D C8 1_555 1_555
C9D C6D 1_555 1_555
C10D N1D 1_555 1_555
C11D C4D 1_555 1_555
H7D C11D 1_555 1_555
C12D C5D 1_555 1_555
H8D C12D 1_555 1_555
C13D C9D 1_555 1_555
H9D C13D 1_555 1_555
C14D H10D 1_555 1_555
C15D N2D 1_555 1_555
H11D C15D 1_555 1_555
C16D C13D 1_555 1_555
H12D C16D 1_555 1_555
Mo1D F1D 1_555 1_555
Mo2D O6 1_555 1_555
F1D Mo2D 1_555 1_555
F2D Mo1D 1_555 1_555
O5D Mo2D 1_555 1_555
O6D Mo2 1_555 1_555
O7D Mo1D 1_555 1_555
O8D Mo1D 1_555 1_555
O9D Mo2D 1_555 1_555
Cu1F O4F 1_555 1_555
Mo1F O3F 1_555 1_555
Mo2F O2F 1_555 1_555
Cu1D N1D 1_555 1_555
O2D Mo2D 1_555 1_555
O3D Mo1D 1_555 1_555
N1F Cu1F 1_555 1_555
N2F Cu1F 1_555 1_555
N3F Cu1F 1_555 1_555
Mo2 F2 1_555 1_555
P1 O2 1_555 1_555
P1 O3 1_555 1_555
C2 C10 1_555 1_555
C3 C6 1_555 1_555
C3 C8 1_555 1_555
C4 C7 1_555 1_555
C5 C10 1_555 1_555
C6 C9 1_555 1_555
C11 C12 1_555 1_555
C14 C15 1_555 1_555
C14 C16 1_555 1_555
P1F C1F 1_555 1_555
N2D Cu1D 1_555 1_555
N3D Cu1D 1_555 1_555
C2D C8D 1_555 1_555
C2D C10D 1_555 1_555
C3D C8D 1_555 1_555
C4D C7D 1_555 1_555
C11D C12D 1_555 1_555
C14D C15D 1_555 1_555
C14D C16D 1_555 1_555
Mo1D O6D 1_555 1_555
Mo2D F2D 1_555 1_555

#END
