
#######################################################################
#
#                 Cambridge Crystallographic Data Centre
#                                CCDC 
#
#######################################################################
#
# If this CIF has been generated from an entry in the Cambridge 
# Structural Database, then it will include bibliographic, chemical, 
# crystal, experimental, refinement or atomic coordinate data resulting 
# from the CCDC's data processing and validation procedures.
#
#######################################################################

data_XEVNIX
_symmetry_cell_setting           triclinic
_symmetry_space_group_name_H-M   'P -1'
_symmetry_Int_Tables_number      2
_space_group_name_Hall           '-P 1'
loop_
_symmetry_equiv_pos_site_id
_symmetry_equiv_pos_as_xyz
1 x,y,z
2 -x,-y,-z
_cell_length_a                   9.4285(10)
_cell_length_b                   13.1589(13)
_cell_length_c                   15.9484(16)
_cell_angle_alpha                86.836(2)
_cell_angle_beta                 78.190(2)
_cell_angle_gamma                84.923(2)
_cell_volume                     1927.82
loop_
_atom_site_label
_atom_site_type_symbol
_atom_site_fract_x
_atom_site_fract_y
_atom_site_fract_z
Mo1 Mo 1.11135(4) 0.75619(3) 0.44347(2)
Mo2 Mo 1.36479(4) 0.77998(3) 0.19927(2)
Cu1 Cu 0.80626(6) 0.72604(4) 0.16173(4)
Cu2 Cu 0.75053(6) 0.81431(4) 0.60470(4)
P1 P 1.00081(13) 0.83249(9) 0.26345(7)
P2 P 1.19071(13) 0.96833(9) 0.31849(7)
F1 F 1.3509(3) 0.6443(2) 0.17242(17)
F2 F 1.2811(3) 0.72587(19) 0.33134(15)
F3 F 1.2664(3) 0.7545(2) 0.49937(17)
O1 O 0.8647(3) 0.8243(2) 0.2290(2)
O2 O 1.1369(3) 0.7872(2) 0.20326(19)
O3 O 1.4016(4) 0.8276(2) 0.0972(2)
O4 O 1.5342(3) 0.7611(3) 0.2240(2)
O5 O 1.3165(3) 0.9164(2) 0.25272(19)
O6 O 1.2211(4) 1.0769(2) 0.3278(2)
O7 O 1.1666(3) 0.9051(2) 0.40237(19)
O8 O 0.9858(3) 0.7807(2) 0.3537(2)
O9 O 1.0926(3) 0.6258(2) 0.4480(2)
O10 O 0.9786(3) 0.7977(3) 0.5259(2)
O11 O 1.0461(4) 0.6759(3) 0.0812(2)
H1 H 1.1085 0.7034 0.1011
N1 N 0.7674(4) 0.8267(3) 0.0671(2)
N2 N 0.7158(4) 0.6396(3) 0.0978(2)
N3 N 0.8003(4) 0.5954(3) 0.2391(2)
N4 N 0.6802(4) 0.8832(3) 0.5031(2)
N5 N 0.6709(4) 0.6997(3) 0.5637(2)
N6 N 0.7976(4) 0.7038(3) 0.6895(2)
C1 C 0.7971(6) 0.9253(4) 0.0580(4)
H2 H 0.8413 0.9531 0.0991
C2 C 0.7646(7) 0.9877(5) -0.0099(4)
H3 H 0.7858 1.0573 -0.0155
C3 C 0.7011(6) 0.9457(4) -0.0690(3)
H4 H 0.6784 0.9871 -0.1160
C4 C 0.6697(5) 0.8449(4) -0.0613(3)
H5 H 0.6256 0.8160 -0.1020
C5 C 0.7050(5) 0.7872(4) 0.0082(3)
C6 C 0.6668(5) 0.6802(4) 0.0287(3)
C7 C 0.5830(5) 0.6265(4) -0.0120(3)
H6 H 0.5497 0.6555 -0.0610
C8 C 0.5479(5) 0.5291(4) 0.0199(3)
C9 C 0.6000(5) 0.4880(4) 0.0920(3)
H7 H 0.5789 0.4214 0.1144
C10 C 0.6834(5) 0.5470(4) 0.1298(3)
C11 C 0.7365(5) 0.5192(4) 0.2108(3)
C12 C 0.7201(5) 0.4264(4) 0.2541(3)
H8 H 0.6728 0.3751 0.2333
C13 C 0.7744(5) 0.4089(4) 0.3293(3)
H9 H 0.7662 0.3450 0.3600
C14 C 0.8396(5) 0.4853(4) 0.3580(3)
H10 H 0.8766 0.4752 0.4092
C15 C 0.8511(5) 0.5769(4) 0.3121(3)
H11 H 0.8967 0.6293 0.3326
C16 C 0.6992(5) 0.9787(3) 0.4719(3)
H12 H 0.7468 1.0220 0.5010
C17 C 0.6518(5) 1.0168(3) 0.3986(3)
H13 H 0.6676 1.0847 0.3775
C18 C 0.5815(5) 0.9542(4) 0.3573(3)
H14 H 0.5478 0.9787 0.3071
C19 C 0.5599(5) 0.8560(4) 0.3886(3)
H15 H 0.5097 0.8126 0.3610
C20 C 0.6122(5) 0.8216(3) 0.4606(3)
C21 C 0.6044(5) 0.7151(3) 0.4978(3)
C22 C 0.5369(5) 0.6376(3) 0.4704(3)
H16 H 0.4903 0.6494 0.4229
C23 C 0.5374(5) 0.5421(3) 0.5128(3)
C24 C 0.6112(5) 0.5286(4) 0.5817(3)
H17 H 0.6162 0.4642 0.6116
C25 C 0.6759(5) 0.6095(3) 0.6055(3)
C26 C 0.7530(5) 0.6112(3) 0.6782(3)
C27 C 0.7755(5) 0.5275(4) 0.7316(3)
H18 H 0.7465 0.4626 0.7216
C28 C 0.8420(5) 0.5403(4) 0.8005(3)
H19 H 0.8563 0.4845 0.8390
C29 C 0.8864(5) 0.6345(4) 0.8123(3)
H20 H 0.9320 0.6447 0.8587
C30 C 0.8633(5) 0.7138(4) 0.7549(3)
H21 H 0.8956 0.7785 0.7624
C31 C 1.0299(5) 0.9634(3) 0.2752(3)
H22 H 0.9450 0.9965 0.3141
H23 H 1.0416 1.0004 0.2188
N1A N 0.2326(4) 0.1733(3) -0.0671(2)
N2A N 0.2842(4) 0.3604(3) -0.0978(2)
N3A N 0.1997(4) 0.4046(3) -0.2391(2)
C1A C 0.2029(6) 0.0747(4) -0.0580(4)
H2A H 0.1587 0.0469 -0.0991
C2A C 0.2354(7) 0.0123(5) 0.0099(4)
H3A H 0.2142 -0.0573 0.0155
C3A C 0.2989(6) 0.0543(4) 0.0690(3)
H4A H 0.3216 0.0129 0.1160
C4A C 0.3303(5) 0.1551(4) 0.0613(3)
H5A H 0.3744 0.1840 0.1020
C5A C 0.2950(5) 0.2128(4) -0.0082(3)
C6A C 0.3332(5) 0.3198(4) -0.0287(3)
C7A C 0.4170(5) 0.3735(4) 0.0120(3)
H6A H 0.4503 0.3445 0.0610
C8A C 0.4521(5) 0.4709(4) -0.0199(3)
C9A C 0.4000(5) 0.5120(4) -0.0920(3)
H7A H 0.4211 0.5786 -0.1144
C10A C 0.3166(5) 0.4530(4) -0.1298(3)
C11A C 0.2635(5) 0.4808(4) -0.2108(3)
C12A C 0.2799(5) 0.5736(4) -0.2541(3)
H8A H 0.3272 0.6249 -0.2333
C13A C 0.2256(5) 0.5911(4) -0.3293(3)
H9A H 0.2338 0.6550 -0.3600
C14A C 0.1604(5) 0.5147(4) -0.3580(3)
H10A H 0.1234 0.5248 -0.4092
C15A C 0.1489(5) 0.4231(4) -0.3121(3)
H11A H 0.1033 0.3707 -0.3326
N4A N 0.3198(4) 0.1168(3) 0.4969(2)
N5A N 0.3291(4) 0.3003(3) 0.4363(2)
N6A N 0.2024(4) 0.2962(3) 0.3105(2)
C16A C 0.3008(5) 0.0213(3) 0.5281(3)
H12A H 0.2532 -0.0220 0.4990
C17A C 0.3482(5) -0.0168(3) 0.6014(3)
H13A H 0.3324 -0.0847 0.6225
C18A C 0.4185(5) 0.0458(4) 0.6427(3)
H14A H 0.4522 0.0213 0.6929
C19A C 0.4401(5) 0.1440(4) 0.6114(3)
H15A H 0.4903 0.1874 0.6390
C20A C 0.3878(5) 0.1784(3) 0.5394(3)
C21A C 0.3956(5) 0.2849(3) 0.5022(3)
C22A C 0.4631(5) 0.3624(3) 0.5296(3)
H16A H 0.5097 0.3506 0.5771
C23A C 0.4626(5) 0.4579(3) 0.4872(3)
C24A C 0.3888(5) 0.4714(4) 0.4183(3)
H17A H 0.3838 0.5358 0.3884
C25A C 0.3241(5) 0.3905(3) 0.3945(3)
C26A C 0.2470(5) 0.3888(3) 0.3218(3)
C27A C 0.2245(5) 0.4725(4) 0.2684(3)
H18A H 0.2535 0.5374 0.2784
C28A C 0.1580(5) 0.4597(4) 0.1995(3)
H19A H 0.1437 0.5155 0.1610
C29A C 0.1136(5) 0.3655(4) 0.1877(3)
H20A H 0.0680 0.3553 0.1413
C30A C 0.1367(5) 0.2862(4) 0.2451(3)
H21A H 0.1044 0.2215 0.2376
Mo1A Mo -0.11135(4) 0.24381(3) -0.44347(2)
Mo2A Mo -0.36479(4) 0.22002(3) -0.19927(2)
Cu1A Cu 0.19374(6) 0.27396(4) -0.16173(4)
Cu2A Cu 0.24947(6) 0.18569(4) -0.60470(4)
P1A P -0.00081(13) 0.16751(9) -0.26345(7)
P2A P -0.19071(13) 0.03167(9) -0.31849(7)
F1A F -0.3509(3) 0.3557(2) -0.17242(17)
F2A F -0.2811(3) 0.27413(19) -0.33134(15)
F3A F -0.2664(3) 0.2455(2) -0.49937(17)
O1A O 0.1353(3) 0.1757(2) -0.2290(2)
O2A O -0.1369(3) 0.2128(2) -0.20326(19)
O3A O -0.4016(4) 0.1724(2) -0.0972(2)
O4A O -0.5342(3) 0.2389(3) -0.2240(2)
O5A O -0.3165(3) 0.0836(2) -0.25272(19)
O6A O -0.2211(4) -0.0769(2) -0.3278(2)
O7A O -0.1666(3) 0.0949(2) -0.40237(19)
O8A O 0.0142(3) 0.2193(2) -0.3537(2)
O9A O -0.0926(3) 0.3742(2) -0.4480(2)
O10A O 0.0214(3) 0.2023(3) -0.5259(2)
O11A O -0.0461(4) 0.3241(3) -0.0812(2)
H1A H -0.1085 0.2966 -0.1011
C31A C -0.0299(5) 0.0366(3) -0.2752(3)
H22A H 0.0550 0.0035 -0.3141
H23A H -0.0416 -0.0004 -0.2188
Cu1_2 Cu 1.80626(6) 0.72604(4) 0.16173(4)
Cu1A_2 Cu -0.80626(6) 0.27396(4) -0.16173(4)
Cu2_2 Cu -0.24947(6) -0.18569(4) -0.39530(4)
Cu2A_2 Cu 0.24947(6) 0.18569(4) 0.39530(4)
Cu2A_3 Cu 1.24947(6) 1.18569(4) 0.39530(4)
O4_2 O 0.5342(3) 0.7611(3) 0.2240(2)
O4A_2 O 0.4658(3) 0.2389(3) -0.2240(2)
O6_2 O 0.2211(4) 0.0769(2) -0.6722(2)
O6A_2 O 0.7789(4) 0.9231(2) 0.6722(2)
N4A_2 N 0.3198(4) 0.1168(3) -0.5031(2)
N5A_2 N 0.3291(4) 0.3003(3) -0.5637(2)
N6A_2 N 0.2024(4) 0.2962(3) -0.6895(2)
loop_
_geom_bond_atom_site_label_1
_geom_bond_atom_site_label_2
_geom_bond_site_symmetry_1
_geom_bond_site_symmetry_2
Mo1 F2 1_555 1_555
Mo2 F1 1_555 1_555
Cu1 O1 1_555 1_555
Cu2 O10 1_555 1_555
P1 O1 1_555 1_555
P2 O5 1_555 1_555
F2 Mo2 1_555 1_555
F3 Mo1 1_555 1_555
O2 Mo2 1_555 1_555
O3 Mo2 1_555 1_555
O4 Mo2 1_555 1_555
O5 Mo2 1_555 1_555
O6 P2 1_555 1_555
O7 Mo1 1_555 1_555
O8 Mo1 1_555 1_555
O9 Mo1 1_555 1_555
O10 Mo1 1_555 1_555
O11 Cu1 1_555 1_555
H1 O11 1_555 1_555
N1 Cu1 1_555 1_555
N2 Cu1 1_555 1_555
N3 Cu1 1_555 1_555
N4 Cu2 1_555 1_555
N5 Cu2 1_555 1_555
N6 Cu2 1_555 1_555
C1 N1 1_555 1_555
H2 C1 1_555 1_555
C2 C1 1_555 1_555
H3 C2 1_555 1_555
C3 C2 1_555 1_555
H4 C3 1_555 1_555
C4 C3 1_555 1_555
H5 C4 1_555 1_555
C5 N1 1_555 1_555
C6 N2 1_555 1_555
C7 C6 1_555 1_555
H6 C7 1_555 1_555
C8 C7 1_555 1_555
C9 C8 1_555 1_555
H7 C9 1_555 1_555
C10 N2 1_555 1_555
C11 N3 1_555 1_555
C12 C11 1_555 1_555
H8 C12 1_555 1_555
C13 C12 1_555 1_555
H9 C13 1_555 1_555
C14 C13 1_555 1_555
H10 C14 1_555 1_555
C15 N3 1_555 1_555
H11 C15 1_555 1_555
C16 N4 1_555 1_555
H12 C16 1_555 1_555
C17 C16 1_555 1_555
H13 C17 1_555 1_555
C18 C17 1_555 1_555
H14 C18 1_555 1_555
C19 C18 1_555 1_555
H15 C19 1_555 1_555
C20 N4 1_555 1_555
C21 N5 1_555 1_555
C22 C21 1_555 1_555
H16 C22 1_555 1_555
C23 C22 1_555 1_555
C24 C23 1_555 1_555
H17 C24 1_555 1_555
C25 N5 1_555 1_555
C26 N6 1_555 1_555
C27 C26 1_555 1_555
H18 C27 1_555 1_555
C28 C27 1_555 1_555
H19 C28 1_555 1_555
C29 C28 1_555 1_555
H20 C29 1_555 1_555
C30 N6 1_555 1_555
H21 C30 1_555 1_555
C31 P1 1_555 1_555
H22 C31 1_555 1_555
H23 C31 1_555 1_555
N1A C1A 1_555 1_555
N2A C6A 1_555 1_555
N3A C11A 1_555 1_555
C1A H2A 1_555 1_555
C2A C1A 1_555 1_555
H3A C2A 1_555 1_555
C3A C2A 1_555 1_555
H4A C3A 1_555 1_555
C4A C3A 1_555 1_555
H5A C4A 1_555 1_555
C5A N1A 1_555 1_555
C6A C5A 1_555 1_555
C7A C6A 1_555 1_555
H6A C7A 1_555 1_555
C8A C8 1_555 1_555
C9A C8A 1_555 1_555
H7A C9A 1_555 1_555
C10A N2A 1_555 1_555
C11A C10A 1_555 1_555
C12A C11A 1_555 1_555
H8A C12A 1_555 1_555
C13A C12A 1_555 1_555
H9A C13A 1_555 1_555
C14A C13A 1_555 1_555
H10A C14A 1_555 1_555
C15A N3A 1_555 1_555
H11A C15A 1_555 1_555
N4A C16A 1_555 1_555
N5A C21A 1_555 1_555
N6A C26A 1_555 1_555
C16A H12A 1_555 1_555
C17A C16A 1_555 1_555
H13A C17A 1_555 1_555
C18A C17A 1_555 1_555
H14A C18A 1_555 1_555
C19A C18A 1_555 1_555
H15A C19A 1_555 1_555
C20A N4A 1_555 1_555
C21A C20A 1_555 1_555
C22A C21A 1_555 1_555
H16A C22A 1_555 1_555
C23A C23 1_555 1_555
C24A C23A 1_555 1_555
H17A C24A 1_555 1_555
C25A N5A 1_555 1_555
C26A C25A 1_555 1_555
C27A C26A 1_555 1_555
H18A C27A 1_555 1_555
C28A C27A 1_555 1_555
H19A C28A 1_555 1_555
C29A C28A 1_555 1_555
H20A C29A 1_555 1_555
C30A N6A 1_555 1_555
H21A C30A 1_555 1_555
Mo1A F2A 1_555 1_555
Mo2A F1A 1_555 1_555
Cu1A N1A 1_555 1_555
Cu2A O10A 1_555 1_555
P1A O1A 1_555 1_555
P2A O5A 1_555 1_555
F2A Mo2A 1_555 1_555
F3A Mo1A 1_555 1_555
O1A Cu1A 1_555 1_555
O2A Mo2A 1_555 1_555
O3A Mo2A 1_555 1_555
O4A Mo2A 1_555 1_555
O5A Mo2A 1_555 1_555
O6A P2A 1_555 1_555
O7A Mo1A 1_555 1_555
O8A Mo1A 1_555 1_555
O9A Mo1A 1_555 1_555
O10A Mo1A 1_555 1_555
O11A Cu1A 1_555 1_555
H1A O11A 1_555 1_555
C31A P1A 1_555 1_555
H22A C31A 1_555 1_555
H23A C31A 1_555 1_555
Cu1_2 O4 1_555 1_555
Cu1A_2 O4A 1_555 1_555
Cu2_2 O6A 1_555 1_555
Cu2A_2 N4A 1_555 1_555
Cu2A_3 O6 1_555 1_555
O4_2 Cu1 1_555 1_555
O4A_2 Cu1A 1_555 1_555
O6_2 Cu2A 1_555 1_555
O6A_2 Cu2 1_555 1_555
N4A_2 Cu2A 1_555 1_555
N5A_2 Cu2A 1_555 1_555
N6A_2 Cu2A 1_555 1_555
P1 O2 1_555 1_555
P1 O8 1_555 1_555
P2 O7 1_555 1_555
P2 C31 1_555 1_555
C4 C5 1_555 1_555
C5 C6 1_555 1_555
C9 C10 1_555 1_555
C10 C11 1_555 1_555
C14 C15 1_555 1_555
C19 C20 1_555 1_555
C20 C21 1_555 1_555
C24 C25 1_555 1_555
C25 C26 1_555 1_555
C29 C30 1_555 1_555
N2A Cu1A 1_555 1_555
N3A Cu1A 1_555 1_555
C4A C5A 1_555 1_555
C7A C8A 1_555 1_555
C9A C10A 1_555 1_555
C14A C15A 1_555 1_555
N5A Cu2A_2 1_555 1_555
N6A Cu2A_2 1_555 1_555
C19A C20A 1_555 1_555
C22A C23A 1_555 1_555
C24A C25A 1_555 1_555
C29A C30A 1_555 1_555
P1A O2A 1_555 1_555
P1A O8A 1_555 1_555
P2A O7A 1_555 1_555
P2A C31A 1_555 1_555

#END
