
#######################################################################
#
#                 Cambridge Crystallographic Data Centre
#                                CCDC 
#
#######################################################################
#
# If this CIF has been generated from an entry in the Cambridge 
# Structural Database, then it will include bibliographic, chemical, 
# crystal, experimental, refinement or atomic coordinate data resulting 
# from the CCDC's data processing and validation procedures.
#
#######################################################################

data_XEVNOD
_symmetry_cell_setting           triclinic
_symmetry_space_group_name_H-M   'P -1'
_symmetry_Int_Tables_number      2
_space_group_name_Hall           '-P 1'
loop_
_symmetry_equiv_pos_site_id
_symmetry_equiv_pos_as_xyz
1 x,y,z
2 -x,-y,-z
_cell_length_a                   10.5271(14)
_cell_length_b                   11.4603(15)
_cell_length_c                   20.941(3)
_cell_angle_alpha                98.655(3)
_cell_angle_beta                 95.150(3)
_cell_angle_gamma                117.037(2)
_cell_volume                     2188.49
loop_
_atom_site_label
_atom_site_type_symbol
_atom_site_fract_x
_atom_site_fract_y
_atom_site_fract_z
Mo1 Mo 0.52292(7) 0.62523(7) 0.12294(3)
Mo2 Mo 0.80332(7) 0.86110(7) 0.23735(3)
Mo3 Mo 0.87293(7) 0.71952(7) 0.35681(3)
Mo4 Mo 0.59638(7) 0.40604(7) 0.33786(3)
Mo5 Mo 0.40240(7) 0.32688(7) 0.16858(3)
Cu1 Cu 0.38241(10) 0.79337(10) 0.03566(5)
Cu2 Cu 0.82111(10) 0.85988(10) 0.50326(5)
P1 P 0.5118(2) 0.6279(2) 0.28849(10)
P2 P -0.2329(2) 0.5393(2) 0.20133(9)
O1 O 0.3715(6) 0.6418(6) 0.1006(3)
O2 O 0.6100(6) 0.6614(6) 0.0580(3)
O3 O 0.6175(6) 0.7945(5) 0.1854(3)
O4 O 0.9139(6) 0.9207(6) 0.1820(3)
O5 O 0.8205(6) 1.0024(6) 0.2863(3)
O6 O 0.9313(6) 0.8180(6) 0.2913(3)
O7 O 0.8960(6) 0.8445(6) 0.4245(3)
O8 O 1.0196(6) 0.6969(6) 0.3732(3)
O9 O 0.7371(6) 0.5776(6) 0.3914(3)
O10 O 0.4922(6) 0.3392(6) 0.3949(3)
O11 O 0.6948(6) 0.3205(6) 0.3314(3)
O12 O 0.4721(6) 0.3205(6) 0.2540(3)
O13 O 0.3820(6) 0.1821(6) 0.1211(3)
O14 O 0.2277(6) 0.2874(6) 0.1742(3)
O15 O 0.4447(6) 0.4354(6) 0.1024(3)
O16 O 0.4719(6) 0.5493(6) 0.2160(3)
O17 O 0.6730(5) 0.7356(6) 0.3060(3)
O18 O 0.4780(6) 0.5318(6) 0.3341(3)
O19 O -0.2648(6) 0.6450(5) 0.1770(3)
O20 O -0.2393(5) 0.5476(5) 0.2756(3)
O21 O -0.3392(6) 0.3988(6) 0.1632(3)
O22 O 0.4017(6) 0.6776(6) -0.0353(3)
O23 O 0.5809(8) 0.6906(7) 0.4735(3)
N1 N 0.8336(7) 1.2779(7) 0.9860(3)
N2 N 0.6422(7) 1.1013(7) 0.8912(3)
N3 N 0.4097(7) 1.0658(7) 0.9301(3)
N4 N 0.7465(7) 0.9867(7) 0.4841(3)
N5 N 0.7889(8) 0.9139(7) 0.5889(3)
N6 N 0.9004(8) 0.7634(7) 0.5535(3)
C1 C 0.9234(9) 1.3614(9) 1.0405(4)
H1 H 0.8856 1.3967 1.0732
C2 C 1.0701(9) 1.3992(9) 1.0516(4)
H2 H 1.1319 1.4594 1.0909
C3 C 1.1245(9) 1.3465(9) 1.0036(4)
H3 H 1.2245 1.3703 1.0098
C4 C 1.0324(9) 1.2596(9) 0.9471(4)
H4 H 1.0677 1.2227 0.9139
C5 C 0.8882(9) 1.2271(8) 0.9395(4)
C6 C 0.7772(9) 1.1336(8) 0.8817(4)
C7 C 0.8014(8) 1.0850(8) 0.8228(4)
H5 H 0.8968 1.1050 0.8165
C8 C 0.6822(9) 1.0050(8) 0.7720(4)
C9 C 0.5426(8) 0.9678(8) 0.7835(4)
H6 H 0.4609 0.9104 0.7500
C10 C 0.5248(8) 1.0164(8) 0.8453(4)
C11 C 0.3904(8) 0.9877(8) 0.8709(4)
C12 C 0.2538(8) 0.8881(8) 0.8378(4)
H7 H 0.2428 0.8329 0.7968
C13 C 0.1323(9) 0.8713(8) 0.8667(4)
H8 H 0.0371 0.8064 0.8451
C14 C 0.1554(9) 0.9513(8) 0.9270(4)
H9 H 0.0751 0.9412 0.9476
C15 C 0.2936(10) 1.0462(9) 0.9581(4)
H10 H 0.3070 1.0989 1.0002
C16 C 0.7315(9) 1.0189(8) 0.4262(4)
H11 H 0.7557 0.9785 0.3896
C17 C 0.6816(9) 1.1097(9) 0.4182(4)
H12 H 0.6704 1.1304 0.3765
C18 C 0.6484(9) 1.1697(9) 0.4715(4)
H13 H 0.6163 1.2338 0.4672
C19 C 0.6622(9) 1.1355(8) 0.5312(4)
H14 H 0.6392 1.1753 0.5685
C20 C 0.7106(8) 1.0413(8) 0.5357(4)
C21 C 0.7262(8) 0.9918(8) 0.5960(4)
C22 C 0.6812(8) 1.0157(8) 0.6546(4)
H15 H 0.6288 1.0646 0.6590
C23 C 0.7145(8) 0.9666(8) 0.7064(4)
C24 C 0.7868(8) 0.8906(8) 0.6991(4)
H16 H 0.8136 0.8598 0.7350
C25 C 0.8185(8) 0.8615(8) 0.6378(4)
C26 C 0.8823(9) 0.7735(9) 0.6178(4)
C27 C 0.9271(10) 0.7110(9) 0.6589(4)
H17 H 0.9143 0.7190 0.7034
C28 C 0.9913(10) 0.6364(10) 0.6339(5)
H18 H 1.0230 0.5925 0.6615
C29 C 1.0092(10) 0.6255(10) 0.5700(4)
H19 H 1.0547 0.5756 0.5531
C30 C 0.9601(10) 0.6881(9) 0.5300(4)
H20 H 0.9690 0.6774 0.4851
C31 C 0.4122(9) 0.7197(8) 0.2976(4)
H21 H 0.4516 0.7825 0.3411
H22 H 0.4306 0.7746 0.2639
C32 C 0.2475(8) 0.6366(9) 0.2922(4)
H23 H 0.2279 0.5791 0.3248
H24 H 0.2070 0.6983 0.3034
C33 C 0.1698(9) 0.5482(9) 0.2245(4)
H25 H 0.1934 0.4734 0.2173
H26 H 0.2062 0.6015 0.1909
C34 C -0.0487(8) 0.5844(8) 0.1941(4)
H27 H -0.0385 0.5874 0.1477
H28 H 0.0149 0.6758 0.2209
C35 C 0.0045(8) 0.4901(8) 0.2152(4)
H29 H -0.0414 0.4050 0.1818
H30 H -0.0272 0.4690 0.2571
Mo1_2 Mo -0.47708(7) 0.62523(7) 0.12294(3)
Mo2_2 Mo -0.19668(7) 0.86110(7) 0.23735(3)
Mo3_2 Mo -0.12707(7) 0.71952(7) 0.35681(3)
Mo4_2 Mo -0.40362(7) 0.40604(7) 0.33786(3)
Mo5_2 Mo -0.59760(7) 0.32688(7) 0.16858(3)
Cu1A Cu 0.61759(10) 1.20663(10) 0.96434(5)
O19_2 O 0.7352(6) 0.6450(5) 0.1770(3)
O20_2 O 0.7607(5) 0.5476(5) 0.2756(3)
O21_2 O 0.6608(6) 0.3988(6) 0.1632(3)
N1A N 0.1664(7) 0.7221(7) 0.0140(3)
N2A N 0.3578(7) 0.8987(7) 0.1088(3)
N3A N 0.5903(7) 0.9342(7) 0.0699(3)
loop_
_geom_bond_atom_site_label_1
_geom_bond_atom_site_label_2
_geom_bond_site_symmetry_1
_geom_bond_site_symmetry_2
Mo1 O1 1_555 1_555
Mo2 O3 1_555 1_555
Mo3 O6 1_555 1_555
Mo4 O9 1_555 1_555
Mo5 O12 1_555 1_555
Cu1 O1 1_555 1_555
Cu2 O7 1_555 1_555
P1 O16 1_555 1_555
P2 O19 1_555 1_555
O2 Mo1 1_555 1_555
O3 Mo1 1_555 1_555
O4 Mo2 1_555 1_555
O5 Mo2 1_555 1_555
O6 Mo2 1_555 1_555
O7 Mo3 1_555 1_555
O8 Mo3 1_555 1_555
O9 Mo3 1_555 1_555
O10 Mo4 1_555 1_555
O11 Mo4 1_555 1_555
O12 Mo4 1_555 1_555
O13 Mo5 1_555 1_555
O14 Mo5 1_555 1_555
O15 Mo1 1_555 1_555
O16 Mo1 1_555 1_555
O17 Mo2 1_555 1_555
O18 Mo4 1_555 1_555
O19 Mo1_2 1_555 1_555
O20 P2 1_555 1_555
O21 P2 1_555 1_555
O22 Cu1 1_555 1_555
O23 Cu2 1_555 1_555
N1 C1 1_555 1_555
N2 C6 1_555 1_555
N3 C11 1_555 1_555
N4 Cu2 1_555 1_555
N5 Cu2 1_555 1_555
N6 Cu2 1_555 1_555
C1 H1 1_555 1_555
C2 C1 1_555 1_555
H2 C2 1_555 1_555
C3 C2 1_555 1_555
H3 C3 1_555 1_555
C4 C3 1_555 1_555
H4 C4 1_555 1_555
C5 N1 1_555 1_555
C6 C5 1_555 1_555
C7 C6 1_555 1_555
H5 C7 1_555 1_555
C8 C7 1_555 1_555
C9 C8 1_555 1_555
H6 C9 1_555 1_555
C10 N2 1_555 1_555
C11 C10 1_555 1_555
C12 C11 1_555 1_555
H7 C12 1_555 1_555
C13 C12 1_555 1_555
H8 C13 1_555 1_555
C14 C13 1_555 1_555
H9 C14 1_555 1_555
C15 N3 1_555 1_555
H10 C15 1_555 1_555
C16 N4 1_555 1_555
H11 C16 1_555 1_555
C17 C16 1_555 1_555
H12 C17 1_555 1_555
C18 C17 1_555 1_555
H13 C18 1_555 1_555
C19 C18 1_555 1_555
H14 C19 1_555 1_555
C20 N4 1_555 1_555
C21 N5 1_555 1_555
C22 C21 1_555 1_555
H15 C22 1_555 1_555
C23 C8 1_555 1_555
C24 C23 1_555 1_555
H16 C24 1_555 1_555
C25 N5 1_555 1_555
C26 N6 1_555 1_555
C27 C26 1_555 1_555
H17 C27 1_555 1_555
C28 C27 1_555 1_555
H18 C28 1_555 1_555
C29 C28 1_555 1_555
H19 C29 1_555 1_555
C30 N6 1_555 1_555
H20 C30 1_555 1_555
C31 P1 1_555 1_555
H21 C31 1_555 1_555
H22 C31 1_555 1_555
C32 C31 1_555 1_555
H23 C32 1_555 1_555
H24 C32 1_555 1_555
C33 C32 1_555 1_555
H25 C33 1_555 1_555
H26 C33 1_555 1_555
C34 P2 1_555 1_555
H27 C34 1_555 1_555
H28 C34 1_555 1_555
C35 C33 1_555 1_555
H29 C35 1_555 1_555
H30 C35 1_555 1_555
Mo2_2 O19 1_555 1_555
Mo3_2 O20 1_555 1_555
Mo4_2 O20 1_555 1_555
Mo5_2 O21 1_555 1_555
Cu1A N1 1_555 1_555
O19_2 Mo1 1_555 1_555
O20_2 Mo3 1_555 1_555
O21_2 Mo5 1_555 1_555
N1A Cu1 1_555 1_555
N2A Cu1 1_555 1_555
N3A Cu1 1_555 1_555
Mo2 O19_2 1_555 1_555
Mo3 O17 1_555 1_555
Mo4 O20_2 1_555 1_555
Mo5 O15 1_555 1_555
Mo5 O16 1_555 1_555
P1 O17 1_555 1_555
P1 O18 1_555 1_555
N2 Cu1A 1_555 1_555
N3 Cu1A 1_555 1_555
C4 C5 1_555 1_555
C9 C10 1_555 1_555
C14 C15 1_555 1_555
C19 C20 1_555 1_555
C20 C21 1_555 1_555
C22 C23 1_555 1_555
C24 C25 1_555 1_555
C25 C26 1_555 1_555
C29 C30 1_555 1_555
C34 C35 1_555 1_555

#END
