
#######################################################################
#
#                 Cambridge Crystallographic Data Centre
#                                CCDC 
#
#######################################################################
#
# If this CIF has been generated from an entry in the Cambridge 
# Structural Database, then it will include bibliographic, chemical, 
# crystal, experimental, refinement or atomic coordinate data resulting 
# from the CCDC's data processing and validation procedures.
#
#######################################################################

data_XEVQOG
_symmetry_cell_setting           monoclinic
_symmetry_space_group_name_H-M   'P 21/c'
_symmetry_Int_Tables_number      14
_space_group_name_Hall           '-P 2ybc'
loop_
_symmetry_equiv_pos_site_id
_symmetry_equiv_pos_as_xyz
1 x,y,z
2 -x,1/2+y,1/2-z
3 -x,-y,-z
4 x,1/2-y,1/2+z
_cell_length_a                   8.814(3)
_cell_length_b                   28.742(9)
_cell_length_c                   6.1665(18)
_cell_angle_alpha                90
_cell_angle_beta                 99.385(5)
_cell_angle_gamma                90
_cell_volume                     1541.26
loop_
_atom_site_label
_atom_site_type_symbol
_atom_site_fract_x
_atom_site_fract_y
_atom_site_fract_z
Ag1 Ag -1.66639(10) 0.87807(3) 0.58824(15)
As1 As -0.87905(11) 0.81455(3) 1.02166(15)
As2 As -1.48965(10) 0.93552(3) 0.14111(15)
O1 O -0.8654(9) 0.8068(3) 1.3007(11)
H1 H -0.7918 0.8216 1.3644
O2 O -1.5696(8) 0.8869(2) 0.2208(11)
O3 O -0.8133(9) 0.8683(2) 0.9857(14)
H2 H -0.8788 0.8830 0.9039
O4 O -1.5841(8) 0.9790(2) 0.2564(12)
H3 H -1.5541 1.0044 0.2198
O5 O -0.7779(8) 0.7745(2) 0.9163(12)
O6 O -1.5136(8) 0.9427(2) -0.1290(11)
N1 N -1.5600(10) 0.8071(3) 0.6477(15)
H4 H -1.6095 0.7916 0.7419
H5 H -1.5737 0.7913 0.5200
N2 N -0.8105(9) 0.9440(3) 0.5424(14)
H6 H -0.8041 0.9575 0.6752
H7 H -0.7650 0.9634 0.4580
C1 C -1.1404(12) 0.8002(3) 0.6831(16)
H8 H -1.0688 0.7933 0.5924
C2 C -1.4016(12) 0.8082(3) 0.7337(17)
C3 C -1.1987(11) 0.8238(4) 1.0374(17)
H9 H -1.1675 0.8332 1.1821
C4 C -0.9685(11) 0.9417(3) 0.4500(15)
C5 C -1.2925(12) 0.7986(4) 0.6003(17)
H10 H -1.3242 0.7910 0.4533
C6 C -1.2801(11) 0.9371(3) 0.2682(15)
C7 C -1.0155(12) 0.9520(3) 0.2275(17)
H11 H -0.9429 0.9595 0.1394
C8 C -1.2317(11) 0.9258(3) 0.4870(16)
H12 H -1.3035 0.9172 0.5745
C9 C -1.0776(12) 0.9274(3) 0.5760(16)
H13 H -1.0462 0.9187 0.7217
C10 C -1.1703(11) 0.9509(3) 0.1383(16)
H14 H -1.2018 0.9593 -0.0078
C11 C -1.0895(11) 0.8121(3) 0.9037(16)
C12 C -1.3540(12) 0.8210(3) 0.9496(17)
H15 H -1.4271 0.8279 1.0379
Ag1_2 Ag -0.66639(10) 0.87807(3) 0.58824(15)
N2_2 N -1.8105(9) 0.9440(3) 0.5424(14)
loop_
_geom_bond_atom_site_label_1
_geom_bond_atom_site_label_2
_geom_bond_site_symmetry_1
_geom_bond_site_symmetry_2
Ag1 O2 1_555 1_555
As1 O1 1_555 1_555
As2 O2 1_555 1_555
O1 H1 1_555 1_555
O3 As1 1_555 1_555
H2 O3 1_555 1_555
O4 As2 1_555 1_555
H3 O4 1_555 1_555
O5 As1 1_555 1_555
O6 As2 1_555 1_555
N1 Ag1 1_555 1_555
H4 N1 1_555 1_555
H5 N1 1_555 1_555
N2 H6 1_555 1_555
H7 N2 1_555 1_555
C1 H8 1_555 1_555
C2 N1 1_555 1_555
C3 H9 1_555 1_555
C4 N2 1_555 1_555
C5 C1 1_555 1_555
H10 C5 1_555 1_555
C6 As2 1_555 1_555
C7 C4 1_555 1_555
H11 C7 1_555 1_555
C8 C6 1_555 1_555
H12 C8 1_555 1_555
C9 C4 1_555 1_555
H13 C9 1_555 1_555
C10 C6 1_555 1_555
H14 C10 1_555 1_555
C11 As1 1_555 1_555
C12 C2 1_555 1_555
H15 C12 1_555 1_555
Ag1_2 N2 1_555 1_555
N2_2 Ag1 1_555 1_555
C1 C11 1_555 1_555
C2 C5 1_555 1_555
C3 C11 1_555 1_555
C3 C12 1_555 1_555
C7 C10 1_555 1_555
C8 C9 1_555 1_555

#END
