
#######################################################################
#
#                 Cambridge Crystallographic Data Centre
#                                CCDC 
#
#######################################################################
#
# If this CIF has been generated from an entry in the Cambridge 
# Structural Database, then it will include bibliographic, chemical, 
# crystal, experimental, refinement or atomic coordinate data resulting 
# from the CCDC's data processing and validation procedures.
#
#######################################################################

data_XEVROG
_symmetry_cell_setting           monoclinic
_symmetry_space_group_name_H-M   'P 21/c'
_symmetry_Int_Tables_number      14
_space_group_name_Hall           '-P 2ybc'
loop_
_symmetry_equiv_pos_site_id
_symmetry_equiv_pos_as_xyz
1 x,y,z
2 -x,1/2+y,1/2-z
3 -x,-y,-z
4 x,1/2-y,1/2+z
_cell_length_a                   7.752(4)
_cell_length_b                   31.70(2)
_cell_length_c                   14.012(7)
_cell_angle_alpha                90
_cell_angle_beta                 109.439(7)
_cell_angle_gamma                90
_cell_volume                     3247.01
loop_
_atom_site_label
_atom_site_type_symbol
_atom_site_fract_x
_atom_site_fract_y
_atom_site_fract_z
Cd1 Cd -0.20789(12) 0.04621(3) 1.19436(6)
Cd2 Cd -0.36762(14) 0.15036(3) 0.52929(7)
Cd3 Cd 0.06761(12) 0.23471(3) 0.67837(7)
Br1 Br -0.2757(3) -0.02871(7) 1.22006(19)
Br2 Br -0.4779(2) 0.09521(7) 1.16727(15)
Br3 Br 0.0922(3) 0.06694(6) 1.32829(14)
Br4 Br -0.2666(2) 0.19443(6) 0.69855(14)
Cl1 Cl -0.5274(6) 0.19984(13) 0.3796(4)
Cl2 Cl -0.0236(4) 0.18975(11) 0.5194(2)
N1 N -0.1415(14) 0.0500(3) 1.0512(7)
N2 N -0.1549(14) 0.0445(3) 0.8929(7)
N3 N -0.2683(17) 0.1044(4) 0.4355(9)
H1 H -0.3326 0.1093 0.3683
H2 H -0.1473 0.1102 0.4453
N4 N -0.3434(13) 0.0765(3) 0.6150(7)
N5 N -0.6591(16) 0.1303(4) 0.5214(10)
H3 H -0.7191 0.1536 0.5340
H4 H -0.7218 0.1213 0.4567
N6 N 0.2567(14) 0.1881(3) 0.7923(8)
N7 N 0.5126(14) 0.1624(3) 0.8983(8)
N8 N 1.3188(17) 0.2411(5) 1.1284(12)
H5 H 1.4253 0.2426 1.1828
H6 H 1.3312 0.2584 1.0783
N9 N 0.9686(13) 0.1962(3) 1.0898(8)
N10 N 1.021(2) 0.2218(4) 1.2983(9)
H7 H 0.9551 0.2361 1.3318
H8 H 1.1322 0.2147 1.3449
C1 C -0.2483(17) 0.0411(4) 0.9569(9)
H9 H -0.3736 0.0333 0.9382
C2 C 0.0287(15) 0.0591(4) 1.0452(9)
H10 H 0.1348 0.0660 1.1007
C3 C 0.0194(17) 0.0567(4) 0.9456(9)
H11 H 0.1148 0.0624 0.9190
C4 C -0.231(2) 0.0369(4) 0.7836(9)
H12 H -0.3493 0.0220 0.7677
H13 H -0.1463 0.0187 0.7624
C5 C -0.2592(18) 0.0787(4) 0.7252(9)
H14 H -0.3359 0.0971 0.7516
H15 H -0.1386 0.0925 0.7407
C6 C -0.284(2) 0.0591(4) 0.4558(11)
H16 H -0.2022 0.0426 0.4287
H17 H -0.4113 0.0495 0.4209
C7 C -0.2336(19) 0.0511(4) 0.5681(10)
H18 H -0.2512 0.0208 0.5794
H19 H -0.1024 0.0577 0.6016
C8 C -0.5362(17) 0.0619(4) 0.5866(9)
H20 H -0.5432 0.0386 0.6321
H21 H -0.5753 0.0508 0.5167
C9 C -0.6660(19) 0.0964(6) 0.5928(12)
H22 H -0.7919 0.0851 0.5747
H23 H -0.6297 0.1077 0.6626
C10 C 0.4327(16) 0.1963(4) 0.8411(10)
H24 H 0.4932 0.2219 0.8365
C11 C 0.2266(19) 0.1486(5) 0.8182(12)
H25 H 0.1131 0.1341 0.7939
C12 C 0.3833(18) 0.1327(4) 0.8844(12)
H26 H 0.3986 0.1056 0.9150
C13 C 0.7110(16) 0.1586(4) 0.9574(10)
H27 H 0.7314 0.1340 1.0034
H28 H 0.7812 0.1540 0.9107
C14 C 0.7778(16) 0.1992(4) 1.0195(9)
H29 H 0.6960 0.2054 1.0589
H30 H 0.7689 0.2230 0.9724
C15 C 1.290(2) 0.1981(5) 1.0916(12)
H31 H 1.3663 0.1929 1.0485
H32 H 1.3327 0.1787 1.1502
C16 C 1.0992(19) 0.1877(5) 1.0333(12)
H33 H 1.0610 0.2044 0.9700
H34 H 1.0917 0.1575 1.0144
C17 C 0.990(2) 0.1660(4) 1.1730(10)
H35 H 0.9216 0.1399 1.1452
H36 H 1.1207 0.1585 1.2035
C18 C 0.922(2) 0.1832(5) 1.2538(12)
H37 H 0.9394 0.1617 1.3075
H38 H 0.7899 0.1894 1.2245
Cd3C Cd 1.06761(12) 0.26529(3) 1.17837(7)
N8C N 0.3188(17) 0.2589(5) 0.6284(12)
H5C H 0.4253 0.2574 0.6828
H6C H 0.3312 0.2416 0.5783
N9C N -0.0314(13) 0.3038(3) 0.5898(8)
N10C N 0.021(2) 0.2782(4) 0.7983(9)
H7C H -0.0449 0.2639 0.8318
H8C H 0.1322 0.2853 0.8449
loop_
_geom_bond_atom_site_label_1
_geom_bond_atom_site_label_2
_geom_bond_site_symmetry_1
_geom_bond_site_symmetry_2
Cd1 Br1 1_555 1_555
Cd2 Br4 1_555 1_555
Cd3 Br4 1_555 1_555
Br2 Cd1 1_555 1_555
Br3 Cd1 1_555 1_555
Cl1 Cd2 1_555 1_555
Cl2 Cd2 1_555 1_555
N1 Cd1 1_555 1_555
N2 C1 1_555 1_555
N3 Cd2 1_555 1_555
H1 N3 1_555 1_555
H2 N3 1_555 1_555
N4 Cd2 1_555 1_555
N5 Cd2 1_555 1_555
H3 N5 1_555 1_555
H4 N5 1_555 1_555
N6 Cd3 1_555 1_555
N7 C10 1_555 1_555
N8 H5 1_555 1_555
H6 N8 1_555 1_555
N9 C14 1_555 1_555
N10 H7 1_555 1_555
H8 N10 1_555 1_555
C1 N1 1_555 1_555
H9 C1 1_555 1_555
C2 N1 1_555 1_555
H10 C2 1_555 1_555
C3 N2 1_555 1_555
H11 C3 1_555 1_555
C4 N2 1_555 1_555
H12 C4 1_555 1_555
H13 C4 1_555 1_555
C5 N4 1_555 1_555
H14 C5 1_555 1_555
H15 C5 1_555 1_555
C6 N3 1_555 1_555
H16 C6 1_555 1_555
H17 C6 1_555 1_555
C7 N4 1_555 1_555
H18 C7 1_555 1_555
H19 C7 1_555 1_555
C8 N4 1_555 1_555
H20 C8 1_555 1_555
H21 C8 1_555 1_555
C9 N5 1_555 1_555
H22 C9 1_555 1_555
H23 C9 1_555 1_555
C10 N6 1_555 1_555
H24 C10 1_555 1_555
C11 N6 1_555 1_555
H25 C11 1_555 1_555
C12 N7 1_555 1_555
H26 C12 1_555 1_555
C13 N7 1_555 1_555
H27 C13 1_555 1_555
H28 C13 1_555 1_555
C14 C13 1_555 1_555
H29 C14 1_555 1_555
H30 C14 1_555 1_555
C15 N8 1_555 1_555
H31 C15 1_555 1_555
H32 C15 1_555 1_555
C16 N9 1_555 1_555
H33 C16 1_555 1_555
H34 C16 1_555 1_555
C17 N9 1_555 1_555
H35 C17 1_555 1_555
H36 C17 1_555 1_555
C18 N10 1_555 1_555
H37 C18 1_555 1_555
H38 C18 1_555 1_555
Cd3C N8 1_555 1_555
N8C Cd3 1_555 1_555
H5C N8C 1_555 1_555
H6C N8C 1_555 1_555
N9C Cd3 1_555 1_555
N10C Cd3 1_555 1_555
H7C N10C 1_555 1_555
H8C N10C 1_555 1_555
Cd3 Cl2 1_555 1_555
N9 Cd3C 1_555 1_555
N10 Cd3C 1_555 1_555
C2 C3 1_555 1_555
C4 C5 1_555 1_555
C6 C7 1_555 1_555
C8 C9 1_555 1_555
C11 C12 1_555 1_555
C15 C16 1_555 1_555
C17 C18 1_555 1_555

#END
