
#######################################################################
#
#                 Cambridge Crystallographic Data Centre
#                                CCDC 
#
#######################################################################
#
# If this CIF has been generated from an entry in the Cambridge 
# Structural Database, then it will include bibliographic, chemical, 
# crystal, experimental, refinement or atomic coordinate data resulting 
# from the CCDC's data processing and validation procedures.
#
#######################################################################

data_XEVRUM
_symmetry_cell_setting           monoclinic
_symmetry_space_group_name_H-M   'P 21/c'
_symmetry_Int_Tables_number      14
_space_group_name_Hall           '-P 2ybc'
loop_
_symmetry_equiv_pos_site_id
_symmetry_equiv_pos_as_xyz
1 x,y,z
2 -x,1/2+y,1/2-z
3 -x,-y,-z
4 x,1/2-y,1/2+z
_cell_length_a                   7.6564(15)
_cell_length_b                   31.433(6)
_cell_length_c                   13.925(3)
_cell_angle_alpha                90
_cell_angle_beta                 109.89(3)
_cell_angle_gamma                90
_cell_volume                     3151.33
loop_
_atom_site_label
_atom_site_type_symbol
_atom_site_fract_x
_atom_site_fract_y
_atom_site_fract_z
Cd1 Cd 0.20614(5) 0.047263(12) 0.80465(3)
Cd2 Cd 0.37512(6) 0.150655(12) 1.47084(3)
Cd3 Cd -0.06981(6) 0.233592(13) 1.32328(3)
Cl1 Cl 0.4633(2) 0.09543(6) 0.83030(15)
Cl2 Cl 0.2814(2) -0.02657(5) 0.78474(13)
Cl3 Cl -0.0833(2) 0.06668(5) 0.67216(12)
Cl4 Cl 0.0291(2) 0.18975(6) 1.48244(13)
Cl5 Cl 0.2627(2) 0.19191(5) 1.30533(12)
Cl6 Cl 0.5377(3) 0.20350(7) 1.6082(2)
N1 N 0.6662(7) 0.12952(17) 1.4785(4)
H1 H 0.7262 0.1521 1.4647
H2 H 0.7298 0.1210 1.5426
N2 N 0.2752(7) 0.10437(15) 1.5660(4)
H3 H 0.3406 0.1092 1.6323
H4 H 0.1555 0.1103 1.5567
N3 N 0.3442(6) 0.07621(13) 1.3839(3)
N4 N 0.1494(6) 0.04469(13) 1.1056(3)
N5 N 0.1348(6) 0.05068(13) 0.9465(3)
N6 N -0.3254(8) 0.25921(19) 1.3655(5)
H5 H -0.4279 0.2582 1.3094
H6 H -0.3439 0.2419 1.4126
N7 N -0.0148(9) 0.27519(17) 1.2050(4)
H7 H 0.0530 0.2605 1.1747
H8 H -0.1237 0.2818 1.1566
N8 N 0.0268(6) 0.30370(14) 1.4086(3)
N9 N 0.4811(6) 0.33853(13) 1.6024(3)
N10 N 0.7395(6) 0.31298(14) 1.7101(4)
C1 C 0.6675(9) 0.0951(2) 1.4083(5)
H9 H 0.7919 0.0836 1.4260
H10 H 0.6310 0.1061 1.3391
C2 C 0.5374(8) 0.06126(19) 1.4140(4)
H11 H 0.5442 0.0380 1.3696
H12 H 0.5753 0.0504 1.4833
C3 C 0.2889(10) 0.05899(19) 1.5456(5)
H13 H 0.2083 0.0428 1.5726
H14 H 0.4155 0.0493 1.5791
C4 C 0.2326(8) 0.05176(18) 1.4312(4)
H15 H 0.2445 0.0217 1.4186
H16 H 0.1030 0.0595 1.3992
C5 C 0.2572(8) 0.07879(16) 1.2723(4)
H17 H 0.3347 0.0965 1.2462
H18 H 0.1384 0.0930 1.2568
C6 C 0.2255(9) 0.03697(17) 1.2156(4)
H19 H 0.3421 0.0217 1.2320
H20 H 0.1398 0.0197 1.2364
C7 C 0.2424(7) 0.04175(16) 1.0401(4)
H21 H 0.3671 0.0343 1.0584
C8 C -0.0346(7) 0.06013(17) 0.9542(4)
H22 H -0.1393 0.0678 0.8995
C9 C -0.0288(7) 0.05683(17) 1.0501(4)
H23 H -0.1256 0.0617 1.0748
C10 C -0.3005(9) 0.3014(2) 1.4039(6)
H24 H -0.3735 0.3051 1.4482
H25 H -0.3487 0.3209 1.3470
C11 C -0.1061(9) 0.3130(2) 1.4613(6)
H26 H -0.1010 0.3432 1.4763
H27 H -0.0671 0.2979 1.5259
C12 C 0.0836(11) 0.3146(2) 1.2477(5)
H28 H 0.0695 0.3350 1.1933
H29 H 0.2150 0.3087 1.2801
C13 C 0.0077(10) 0.33270(18) 1.3240(5)
H30 H 0.0722 0.3590 1.3505
H31 H -0.1227 0.3394 1.2905
C14 C 0.2136(8) 0.30091(16) 1.4810(4)
H32 H 0.2965 0.2929 1.4447
H33 H 0.2178 0.2784 1.5295
C15 C 0.2856(8) 0.34194(18) 1.5400(5)
H34 H 0.2693 0.3653 1.4922
H35 H 0.2135 0.3482 1.5836
C16 C 0.5612(8) 0.3067(2) 1.6631(5)
H36 H 0.4984 0.2824 1.6717
C17 C 0.7721(9) 0.3511(2) 1.6785(6)
H37 H 0.8868 0.3647 1.6999
C18 C 0.6136(9) 0.3675(2) 1.6105(6)
H38 H 0.6000 0.3934 1.5767
Cd3C Cd 0.93019(6) 0.266408(13) 1.82328(3)
N10C N -0.2605(6) 0.18702(14) 1.2101(4)
loop_
_geom_bond_atom_site_label_1
_geom_bond_atom_site_label_2
_geom_bond_site_symmetry_1
_geom_bond_site_symmetry_2
Cd1 Cl1 1_555 1_555
Cd2 Cl4 1_555 1_555
Cd3 Cl4 1_555 1_555
Cl2 Cd1 1_555 1_555
Cl3 Cd1 1_555 1_555
Cl5 Cd2 1_555 1_555
Cl6 Cd2 1_555 1_555
N1 Cd2 1_555 1_555
H1 N1 1_555 1_555
H2 N1 1_555 1_555
N2 Cd2 1_555 1_555
H3 N2 1_555 1_555
H4 N2 1_555 1_555
N3 Cd2 1_555 1_555
N4 C6 1_555 1_555
N5 Cd1 1_555 1_555
N6 Cd3 1_555 1_555
H5 N6 1_555 1_555
H6 N6 1_555 1_555
N7 Cd3 1_555 1_555
H7 N7 1_555 1_555
H8 N7 1_555 1_555
N8 Cd3 1_555 1_555
N9 C15 1_555 1_555
N10 C16 1_555 1_555
C1 N1 1_555 1_555
H9 C1 1_555 1_555
H10 C1 1_555 1_555
C2 N3 1_555 1_555
H11 C2 1_555 1_555
H12 C2 1_555 1_555
C3 N2 1_555 1_555
H13 C3 1_555 1_555
H14 C3 1_555 1_555
C4 N3 1_555 1_555
H15 C4 1_555 1_555
H16 C4 1_555 1_555
C5 N3 1_555 1_555
H17 C5 1_555 1_555
H18 C5 1_555 1_555
C6 C5 1_555 1_555
H19 C6 1_555 1_555
H20 C6 1_555 1_555
C7 N4 1_555 1_555
H21 C7 1_555 1_555
C8 N5 1_555 1_555
H22 C8 1_555 1_555
C9 N4 1_555 1_555
H23 C9 1_555 1_555
C10 N6 1_555 1_555
H24 C10 1_555 1_555
H25 C10 1_555 1_555
C11 N8 1_555 1_555
H26 C11 1_555 1_555
H27 C11 1_555 1_555
C12 N7 1_555 1_555
H28 C12 1_555 1_555
H29 C12 1_555 1_555
C13 N8 1_555 1_555
H30 C13 1_555 1_555
H31 C13 1_555 1_555
C14 N8 1_555 1_555
H32 C14 1_555 1_555
H33 C14 1_555 1_555
C15 C14 1_555 1_555
H34 C15 1_555 1_555
H35 C15 1_555 1_555
C16 N9 1_555 1_555
H36 C16 1_555 1_555
C17 N10 1_555 1_555
H37 C17 1_555 1_555
C18 N9 1_555 1_555
H38 C18 1_555 1_555
Cd3C N10 1_555 1_555
N10C Cd3 1_555 1_555
Cd3 Cl5 1_555 1_555
N5 C7 1_555 1_555
C1 C2 1_555 1_555
C3 C4 1_555 1_555
C8 C9 1_555 1_555
C10 C11 1_555 1_555
C12 C13 1_555 1_555
C17 C18 1_555 1_555

#END
