
#######################################################################
#
#                 Cambridge Crystallographic Data Centre
#                                CCDC 
#
#######################################################################
#
# If this CIF has been generated from an entry in the Cambridge 
# Structural Database, then it will include bibliographic, chemical, 
# crystal, experimental, refinement or atomic coordinate data resulting 
# from the CCDC's data processing and validation procedures.
#
#######################################################################

data_XEVSAT
_symmetry_cell_setting           orthorhombic
_symmetry_space_group_name_H-M   'P b c n'
_symmetry_Int_Tables_number      60
_space_group_name_Hall           '-P 2n 2ab'
loop_
_symmetry_equiv_pos_site_id
_symmetry_equiv_pos_as_xyz
1 x,y,z
2 1/2+x,1/2-y,-z
3 -x,y,1/2-z
4 1/2-x,1/2-y,1/2+z
5 -x,-y,-z
6 1/2-x,1/2+y,z
7 x,-y,1/2+z
8 1/2+x,1/2+y,1/2-z
_cell_length_a                   22.95(2)
_cell_length_b                   8.435(7)
_cell_length_c                   17.36(2)
_cell_angle_alpha                90
_cell_angle_beta                 90
_cell_angle_gamma                90
_cell_volume                     3360.61
loop_
_atom_site_label
_atom_site_type_symbol
_atom_site_fract_x
_atom_site_fract_y
_atom_site_fract_z
Cd1 Cd 0.17902(3) 0.31747(9) 0.58252(4)
Cl1 Cl 0.28101(12) 0.3537(4) 0.5369(2)
N1 N 0.1301(5) 0.5494(12) 0.6022(6)
N2 N 0.1295(4) 0.3684(10) 0.4572(5)
N3 N 0.1140(4) 0.1164(11) 0.5701(5)
N4 N 0.2442(4) 0.2257(11) 0.3171(5)
N5 N 0.2942(4) 0.2238(12) 0.2088(5)
C1 C 0.0835(5) 0.566(2) 0.5461(8)
C2 C 0.1061(5) 0.528(1) 0.4647(7)
C3 C 0.0821(5) 0.247(2) 0.4522(7)
C4 C 0.0954(5) 0.0925(13) 0.4910(6)
C5 C 0.1688(5) 0.3660(13) 0.3892(6)
C6 C 0.1963(5) 0.2087(13) 0.3718(6)
C7 C 0.2439(5) 0.190(1) 0.2397(5)
C8 C 0.3303(5) 0.282(1) 0.2665(7)
C9 C 0.2979(5) 0.286(1) 0.3329(7)
H1 H 0.1146(5) 0.5520(12) 0.6542(6)
H2 H 0.1570(5) 0.6368(12) 0.5951(6)
H3 H 0.0531(5) 0.491(2) 0.5592(8)
H4 H 0.0679(5) 0.673(2) 0.5476(8)
H5 H 0.1367(5) 0.603(1) 0.4525(7)
H6 H 0.0742(5) 0.540(1) 0.4284(7)
H7 H 0.0474(5) 0.291(2) 0.4762(7)
H8 H 0.0744(5) 0.227(2) 0.3981(7)
H9 H 0.1268(5) 0.0411(13) 0.4631(6)
H10 H 0.0611(5) 0.0255(13) 0.4900(6)
H11 H 0.1320(4) 0.0200(11) 0.5891(5)
H12 H 0.0798(4) 0.1405(11) 0.6009(5)
H13 H 0.1470(5) 0.4004(13) 0.3443(6)
H14 H 0.2005(5) 0.4395(13) 0.3988(6)
H15 H 0.1669(5) 0.1405(13) 0.3491(6)
H16 H 0.2106(5) 0.1612(13) 0.4191(6)
H17 H 0.2105(5) 0.149(1) 0.2119(5)
H18 H 0.3704(5) 0.316(1) 0.2600(7)
H19 H 0.3111(5) 0.324(1) 0.3826(7)
Cd1C Cd 0.32098(3) 0.18253(9) 1.08252(4)
Cd1C_2 Cd 0.32098(3) 0.18253(9) 0.08252(4)
Cl1C Cl 0.21899(12) 0.1463(4) 1.0369(2)
N1C N 0.3699(5) -0.0494(12) 1.1022(6)
N2C N 0.3705(4) 0.1316(10) 0.9572(5)
N3C N 0.3860(4) 0.3836(11) 1.0701(5)
N4C N 0.2558(4) 0.2743(11) 0.8171(5)
N5C N 0.2058(4) 0.2762(12) 0.7088(5)
N5_2 N 0.2942(4) 0.2238(12) 1.2088(5)
C1C C 0.4165(5) -0.066(2) 1.0461(8)
C2C C 0.3939(5) -0.028(1) 0.9647(7)
C3C C 0.4179(5) 0.253(2) 0.9522(7)
C4C C 0.4046(5) 0.4075(13) 0.9910(6)
C5C C 0.3312(5) 0.1340(13) 0.8892(6)
C6C C 0.3037(5) 0.2913(13) 0.8718(6)
C7C C 0.2561(5) 0.310(1) 0.7397(5)
C8C C 0.1697(5) 0.218(1) 0.7665(7)
C9C C 0.2021(5) 0.214(1) 0.8329(7)
H1C H 0.3854(5) -0.0520(12) 1.1542(6)
H2C H 0.3430(5) -0.1368(12) 1.0951(6)
H3C H 0.4469(5) 0.009(2) 1.0592(8)
H4C H 0.4321(5) -0.173(2) 1.0476(8)
H5C H 0.3633(5) -0.103(1) 0.9525(7)
H6C H 0.4258(5) -0.040(1) 0.9284(7)
H7C H 0.4526(5) 0.209(2) 0.9762(7)
H8C H 0.4256(5) 0.273(2) 0.8981(7)
H9C H 0.3732(5) 0.4589(13) 0.9631(6)
H10C H 0.4389(5) 0.4745(13) 0.9900(6)
H11C H 0.3680(4) 0.4800(11) 1.0891(5)
H12C H 0.4202(4) 0.3595(11) 1.1009(5)
H13C H 0.3530(5) 0.0996(13) 0.8443(6)
H14C H 0.2995(5) 0.0605(13) 0.8988(6)
H15C H 0.3331(5) 0.3595(13) 0.8491(6)
H16C H 0.2894(5) 0.3388(13) 0.9191(6)
H17C H 0.2895(5) 0.351(1) 0.7119(5)
H18C H 0.1296(5) 0.184(1) 0.7600(7)
H19C H 0.1889(5) 0.176(1) 0.8826(7)
Cd2 Cd 0.0000 -0.00693(12) 0.2500
Cl2 Cl 0.0197(2) -0.1812(4) 0.3601(2)
Cl3 Cl -0.0848(2) 0.1555(5) 0.2805(2)
Cl2B Cl -0.0197(2) -0.1812(4) 0.1399(2)
Cl3B Cl 0.0848(2) 0.1555(5) 0.2195(2)
O1 O -0.045(1) 0.502(4) 0.258(2)
H20 H -0.077(1) 0.530(4) 0.235(2)
loop_
_geom_bond_atom_site_label_1
_geom_bond_atom_site_label_2
_geom_bond_site_symmetry_1
_geom_bond_site_symmetry_2
Cd1 Cl1 1_555 1_555
Cd2 Cl2 1_555 1_555
Cl3 Cd2 1_555 1_555
O1 H20 1_555 1_555
N1 Cd1 1_555 1_555
N2 Cd1 1_555 1_555
N3 Cd1 1_555 1_555
N4 C6 1_555 1_555
N5 C7 1_555 1_555
C1 N1 1_555 1_555
C2 N2 1_555 1_555
C3 N2 1_555 1_555
C4 N3 1_555 1_555
C5 N2 1_555 1_555
C6 C5 1_555 1_555
C7 N4 1_555 1_555
C8 N5 1_555 1_555
C9 N4 1_555 1_555
H1 N1 1_555 1_555
H2 N1 1_555 1_555
H3 C1 1_555 1_555
H4 C1 1_555 1_555
H5 C2 1_555 1_555
H6 C2 1_555 1_555
H7 C3 1_555 1_555
H8 C3 1_555 1_555
H9 C4 1_555 1_555
H10 C4 1_555 1_555
H11 N3 1_555 1_555
H12 N3 1_555 1_555
H13 C5 1_555 1_555
H14 C5 1_555 1_555
H15 C6 1_555 1_555
H16 C6 1_555 1_555
H17 C7 1_555 1_555
H18 C8 1_555 1_555
H19 C9 1_555 1_555
Cd1C Cl1C 1_555 1_555
Cd1C_2 N5 1_555 1_555
Cl2B Cd2 1_555 1_555
Cl3B Cd2 1_555 1_555
N1C Cd1C 1_555 1_555
N2C Cd1C 1_555 1_555
N3C Cd1C 1_555 1_555
N4C C6C 1_555 1_555
N5C Cd1 1_555 1_555
N5_2 Cd1C 1_555 1_555
C1C N1C 1_555 1_555
C2C N2C 1_555 1_555
C3C N2C 1_555 1_555
C4C N3C 1_555 1_555
C5C N2C 1_555 1_555
C6C C5C 1_555 1_555
C7C N4C 1_555 1_555
C8C N5C 1_555 1_555
C9C N4C 1_555 1_555
H1C N1C 1_555 1_555
H2C N1C 1_555 1_555
H3C C1C 1_555 1_555
H4C C1C 1_555 1_555
H5C C2C 1_555 1_555
H6C C2C 1_555 1_555
H7C C3C 1_555 1_555
H8C C3C 1_555 1_555
H9C C4C 1_555 1_555
H10C C4C 1_555 1_555
H11C N3C 1_555 1_555
H12C N3C 1_555 1_555
H13C C5C 1_555 1_555
H14C C5C 1_555 1_555
H15C C6C 1_555 1_555
H16C C6C 1_555 1_555
H17C C7C 1_555 1_555
H18C C8C 1_555 1_555
H19C C9C 1_555 1_555
C1 C2 1_555 1_555
C3 C4 1_555 1_555
C8 C9 1_555 1_555
N5C C7C 1_555 1_555
C1C C2C 1_555 1_555
C3C C4C 1_555 1_555
C8C C9C 1_555 1_555

#END
