
#######################################################################
#
#                 Cambridge Crystallographic Data Centre
#                                CCDC 
#
#######################################################################
#
# If this CIF has been generated from an entry in the Cambridge 
# Structural Database, then it will include bibliographic, chemical, 
# crystal, experimental, refinement or atomic coordinate data resulting 
# from the CCDC's data processing and validation procedures.
#
#######################################################################

data_XEVSIB
_symmetry_cell_setting           triclinic
_symmetry_space_group_name_H-M   'P -1'
_symmetry_Int_Tables_number      2
_space_group_name_Hall           '-P 1'
loop_
_symmetry_equiv_pos_site_id
_symmetry_equiv_pos_as_xyz
1 x,y,z
2 -x,-y,-z
_cell_length_a                   6.5372(13)
_cell_length_b                   9.0394(18)
_cell_length_c                   11.015(2)
_cell_angle_alpha                111.54(3)
_cell_angle_beta                 92.08(3)
_cell_angle_gamma                95.09(3)
_cell_volume                     601.388
loop_
_atom_site_label
_atom_site_type_symbol
_atom_site_fract_x
_atom_site_fract_y
_atom_site_fract_z
Co1 Co 0.24625(5) 0.31520(4) 0.08037(3)
Co2 Co -0.09708(5) 0.05349(4) -0.11111(3)
O1 O -0.0188(3) 0.1984(2) -0.2188(2)
O2 O 0.2609(3) 0.3487(3) -0.0984(2)
C1 C 0.2843(4) 0.6119(3) -0.3451(3)
H1 H 0.3330 0.7198 -0.3174
C2 C 0.2343(4) 0.5445(3) -0.2531(3)
C3 C 0.1378(4) 0.2890(3) -0.4282(3)
H2 H 0.0867 0.1816 -0.4566
C4 C 0.1311(4) 0.3032(3) -0.1958(3)
C5 C 0.1884(4) 0.3579(3) -0.5207(3)
C6 C 0.1637(4) 0.3808(3) -0.2943(3)
C7 C 0.2619(4) 0.5188(3) -0.4773(3)
H3 H 0.2966 0.5647 -0.5378
O3 O 0.0959(3) 0.7075(2) -0.0568(2)
O4 O 0.2503(3) 0.3282(3) -0.7351(2)
O5 O -0.4132(4) 0.0470(3) -0.1652(3)
O6 O 0.0640(4) 0.1250(2) -0.7073(2)
O7 O 0.4335(3) 0.7095(2) -0.0576(2)
O8 O 0.3267(4) 0.5658(3) 0.1608(3)
C8 C 0.2556(4) 0.6580(3) -0.1123(3)
C9 C 0.1644(4) 0.2614(3) -0.6659(3)
O9 O 0.1825(3) 0.0703(2) -0.01133(19)
H4 H -0.473(10) 0.043(9) -0.232(4)
H5 H 0.423(6) 0.579(7) 0.122(5)
H6 H -0.468(8) 0.125(4) -0.124(5)
H7 H 0.334(13) 0.583(9) 0.2372(19)
H8 H 0.271(7) 0.032(5) -0.053(5)
Co1A Co -0.24625(5) 0.68480(4) -0.08037(3)
Co1_2 Co 0.24625(5) 0.31520(4) -0.91963(3)
Co1A_2 Co 0.75375(5) 0.68480(4) -0.08037(3)
Co2A Co 0.09708(5) 0.94651(4) 0.11111(3)
Co2A_2 Co 0.09708(5) -0.05349(4) -0.88889(3)
Co2A_3 Co 0.09708(5) -0.05349(4) 0.11111(3)
O3A O -0.0959(3) 0.2925(2) 0.0568(2)
O4_2 O 0.2503(3) 0.3282(3) 0.2649(2)
O6A O -0.0640(4) -0.1250(2) -0.2927(2)
O7A O 0.5665(3) 0.2905(2) 0.0576(2)
O9A O -0.1825(3) -0.0703(2) 0.01133(19)
H8A H -0.271(7) -0.032(5) 0.053(5)
O10 O -0.6793(8) -0.0295(6) -0.3821(6)
O11 O -0.6263(16) -0.1549(15) -0.6115(9)
loop_
_geom_bond_atom_site_label_1
_geom_bond_atom_site_label_2
_geom_bond_site_symmetry_1
_geom_bond_site_symmetry_2
Co1 O2 1_555 1_555
Co2 O1 1_555 1_555
O1 C4 1_555 1_555
O2 C4 1_555 1_555
C1 H1 1_555 1_555
C2 C1 1_555 1_555
C3 H2 1_555 1_555
C4 C6 1_555 1_555
C5 C3 1_555 1_555
C6 C2 1_555 1_555
C7 C1 1_555 1_555
H3 C7 1_555 1_555
O3 C8 1_555 1_555
O4 C9 1_555 1_555
O5 Co2 1_555 1_555
O6 C9 1_555 1_555
O7 C8 1_555 1_555
O8 Co1 1_555 1_555
C8 C2 1_555 1_555
C9 C5 1_555 1_555
O9 Co1 1_555 1_555
H4 O5 1_555 1_555
H5 O8 1_555 1_555
H6 O5 1_555 1_555
H7 O8 1_555 1_555
H8 O9 1_555 1_555
Co1A O3 1_555 1_555
Co1_2 O4 1_555 1_555
Co1A_2 O7 1_555 1_555
Co2A O3 1_555 1_555
Co2A_2 O6 1_555 1_555
Co2A_3 O9 1_555 1_555
O3A Co1 1_555 1_555
O4_2 Co1 1_555 1_555
O6A Co2 1_555 1_555
O7A Co1 1_555 1_555
O9A Co2 1_555 1_555
H8A O9A 1_555 1_555
Co2 O9 1_555 1_555
Co2 O3A 1_555 1_555
C3 C6 1_555 1_555
C5 C7 1_555 1_555
Co2A_3 O9A 1_555 1_555

#END
