
#######################################################################
#
#                 Cambridge Crystallographic Data Centre
#                                CCDC 
#
#######################################################################
#
# If this CIF has been generated from an entry in the Cambridge 
# Structural Database, then it will include bibliographic, chemical, 
# crystal, experimental, refinement or atomic coordinate data resulting 
# from the CCDC's data processing and validation procedures.
#
#######################################################################

data_XEVVIE
_symmetry_cell_setting           triclinic
_symmetry_space_group_name_H-M   'P -1'
_symmetry_Int_Tables_number      2
_space_group_name_Hall           '-P 1'
loop_
_symmetry_equiv_pos_site_id
_symmetry_equiv_pos_as_xyz
1 x,y,z
2 -x,-y,-z
_cell_length_a                   8.719(2)
_cell_length_b                   8.827(2)
_cell_length_c                   15.908(4)
_cell_angle_alpha                78.617(4)
_cell_angle_beta                 84.047(4)
_cell_angle_gamma                68.241(4)
_cell_volume                     1114.1
loop_
_atom_site_label
_atom_site_type_symbol
_atom_site_fract_x
_atom_site_fract_y
_atom_site_fract_z
Fe1 Fe 0.27329(6) 0.74673(5) 0.57743(3)
Fe2 Fe 0.22794(5) 0.77370(5) 0.92897(3)
P1 P 0.15147(10) 1.14868(9) 0.97774(5)
H1 H 0.2419 1.1829 0.9878
O1 O 0.2882(3) 0.5479(3) 0.51891(15)
O2 O 0.2985(3) 0.8889(3) 0.66423(15)
O3 O 0.4731(3) 0.3436(3) 0.45808(16)
O4 O 0.2080(3) 0.9371(3) 0.46764(15)
O5 O -0.0091(3) 1.1446(3) 0.40697(16)
O6 O 0.2839(3) 0.5860(3) 0.70079(14)
O7 O 0.2266(3) 0.9625(3) 0.98304(15)
O8 O 0.0258(3) 1.1920(3) 1.05229(14)
O9 O 0.2906(3) 0.5616(3) 1.02870(15)
O10 O 0.2365(4) 0.9184(3) 0.80137(15)
O11 O 0.2411(3) 0.6059(3) 0.83981(14)
O12 O 0.4999(3) 0.3370(3) 1.08190(15)
O13 O 0.0891(3) 1.2422(3) 0.89044(15)
C1 C 0.2669(4) 0.8381(4) 0.7410(2)
C2 C 0.2640(4) 0.6612(4) 0.7632(2)
C3 C 0.0572(4) 1.0245(4) 0.4633(2)
C5 C 0.4311(4) 0.4685(4) 0.49315(18)
C11 C 0.4416(4) 0.4695(4) 1.03241(19)
Fe1A Fe 0.72671(6) 0.25327(5) 0.42257(3)
Fe1A_2 Fe -0.27329(6) 1.25327(5) 0.42257(3)
Fe2A Fe -0.22794(5) 1.22630(5) 1.07103(3)
Fe2A_2 Fe 0.77206(5) 0.22630(5) 1.07103(3)
Fe2A_3 Fe 0.77206(5) 0.22630(5) 0.07103(3)
P1A P -0.15147(10) 0.85132(9) 1.02226(5)
H1A H -0.2419 0.8171 1.0122
O1A O 0.7118(3) 0.4521(3) 0.48109(15)
O2A O 0.7015(3) 0.1111(3) 0.33577(15)
O3A O 0.5269(3) 0.6564(3) 0.54192(16)
O4A O -0.2080(3) 1.0629(3) 0.53236(15)
O4A_2 O 0.7920(3) 0.0629(3) 0.53236(15)
O5A O 0.0091(3) 0.8554(3) 0.59303(16)
O5_2 O 0.9909(3) 0.1446(3) 0.40697(16)
O6A O 0.7161(3) 0.4140(3) 0.29921(14)
O7A O -0.2266(3) 1.0375(3) 1.01696(15)
O8A O -0.0258(3) 0.8080(3) 0.94771(14)
O9A O 0.7094(3) 0.4384(3) 0.97130(15)
O9A_2 O -0.2906(3) 1.4384(3) 0.97130(15)
O10A O 0.7635(4) 0.0816(3) 0.19863(15)
O10A_2 O -0.2365(4) 1.0816(3) 1.19863(15)
O11A O 0.7589(3) 0.3941(3) 0.16019(14)
O11A_2 O -0.2411(3) 1.3941(3) 1.16019(14)
O12A O 0.5001(3) 0.6630(3) 0.91810(15)
O12_2 O -0.5001(3) 1.3370(3) 1.08190(15)
O13A O -0.0891(3) 0.7578(3) 1.10956(15)
C1A C 0.7331(4) 0.1619(4) 0.2590(2)
C2A C 0.7360(4) 0.3388(4) 0.2368(2)
C3A C -0.0572(4) 0.9755(4) 0.5367(2)
C5A C 0.5689(4) 0.5315(4) 0.50685(18)
C11A C 0.5584(4) 0.5305(4) 0.96759(19)
N1 N -0.1311(3) 0.4307(3) 0.71339(17)
N2 N -0.0976(4) 0.5866(3) 0.85840(17)
H2 H -0.1811 0.5697 0.8909
H3 H -0.0560 0.6443 0.8832
H4 H -0.0195 0.4896 0.8525
N3 N -0.1537(4) 0.1501(4) 0.84123(18)
C4 C -0.0181(5) 0.4452(4) 0.6393(2)
H5 H 0.0098 0.5422 0.6381
H6 H -0.0744 0.4611 0.5870
C6 C -0.2263(5) 0.3299(5) 0.6998(2)
C7 C -0.2408(5) 0.5954(4) 0.7300(2)
H7 H -0.3340 0.5840 0.7661
H8 H -0.2835 0.6647 0.6760
C8 C -0.1578(5) 0.6803(4) 0.7728(2)
H9 H -0.0654 0.6934 0.7366
H10 H -0.2354 0.7899 0.7790
N4 N 0.2387(4) 0.2744(4) 0.7162(2)
H11 H 0.2525 0.3690 0.7172
H12 H 0.3368 0.1949 0.7115
H13 H 0.1866 0.2466 0.7645
C9 C 0.1386(5) 0.2955(4) 0.6415(2)
H14 H 0.1112 0.1975 0.6448
H15 H 0.2033 0.3072 0.5889
C10 C -0.1585(7) 0.1519(7) 0.7467(3)
O14 O 0.4573(3) 0.9655(4) 0.34098(19)
O15 O 0.4932(6) 0.2915(8) 0.8655(4)
O16 O 0.5370(7) 0.9914(7) 0.8565(4)
C12? C -0.2980(14) 0.2630(14) 0.7880(7)
loop_
_geom_bond_atom_site_label_1
_geom_bond_atom_site_label_2
_geom_bond_site_symmetry_1
_geom_bond_site_symmetry_2
Fe1 O1 1_555 1_555
Fe2 O7 1_555 1_555
P1 H1 1_555 1_555
O1 C5 1_555 1_555
O2 Fe1 1_555 1_555
O3 C5 1_555 1_555
O4 Fe1 1_555 1_555
O5 C3 1_555 1_555
O6 Fe1 1_555 1_555
O7 P1 1_555 1_555
O8 P1 1_555 1_555
O9 Fe2 1_555 1_555
O10 Fe2 1_555 1_555
O11 Fe2 1_555 1_555
O12 C11 1_555 1_555
O13 P1 1_555 1_555
C1 O2 1_555 1_555
C2 O6 1_555 1_555
C3 O4 1_555 1_555
N1 C4 1_555 1_555
N2 H2 1_555 1_555
H3 N2 1_555 1_555
H4 N2 1_555 1_555
N3 C10 1_555 1_555
C4 H5 1_555 1_555
H6 C4 1_555 1_555
C5 C5A 1_555 1_555
C6 N1 1_555 1_555
C7 N1 1_555 1_555
H7 C7 1_555 1_555
H8 C7 1_555 1_555
C8 N2 1_555 1_555
H9 C8 1_555 1_555
H10 C8 1_555 1_555
N4 H11 1_555 1_555
H12 N4 1_555 1_555
H13 N4 1_555 1_555
C9 C4 1_555 1_555
H14 C9 1_555 1_555
H15 C9 1_555 1_555
C10 C6 1_555 1_555
C11 O9 1_555 1_555
Fe1A O3 1_555 1_555
Fe1A_2 O5 1_555 1_555
Fe2A O8 1_555 1_555
Fe2A_2 O12 1_555 1_555
Fe2A_3 O10A 1_555 1_555
P1A H1A 1_555 1_555
O1A Fe1A 1_555 1_555
O2A Fe1A 1_555 1_555
O3A Fe1 1_555 1_555
O4A Fe1A_2 1_555 1_555
O4A_2 Fe1A 1_555 1_555
O5A Fe1 1_555 1_555
O5_2 Fe1A 1_555 1_555
O6A Fe1A 1_555 1_555
O7A Fe2A 1_555 1_555
O8A Fe2 1_555 1_555
O9A Fe2A_2 1_555 1_555
O9A_2 Fe2A 1_555 1_555
O10A C1A 1_555 1_555
O10A_2 Fe2A 1_555 1_555
O11A Fe2A_3 1_555 1_555
O11A_2 Fe2A 1_555 1_555
O12A Fe2 1_555 1_555
O12_2 Fe2A 1_555 1_555
O13A P1A 1_555 1_555
C1A O2A 1_555 1_555
C2A O6A 1_555 1_555
C3A C3 1_555 1_555
C5A O1A 1_555 1_555
C11A C11 1_555 1_555
O10 C1 1_555 1_555
O11 C2 1_555 1_555
C1 C2 1_555 1_555
C7 C8 1_555 1_555
N4 C9 1_555 1_555
P1A O7A 1_555 1_555
P1A O8A 1_555 1_555
O3A C5A 1_555 1_555
O4A C3A 1_555 1_555
O5A C3A 1_555 1_555
O9A C11A 1_555 1_555
O11A C2A 1_555 1_555
O12A C11A 1_555 1_555
C1A C2A 1_555 1_555

#END
