
#######################################################################
#
#                 Cambridge Crystallographic Data Centre
#                                CCDC 
#
#######################################################################
#
# If this CIF has been generated from an entry in the Cambridge 
# Structural Database, then it will include bibliographic, chemical, 
# crystal, experimental, refinement or atomic coordinate data resulting 
# from the CCDC's data processing and validation procedures.
#
#######################################################################

data_XEVWAX
_symmetry_cell_setting           monoclinic
_symmetry_space_group_name_H-M   'P 21/c'
_symmetry_Int_Tables_number      14
_space_group_name_Hall           '-P 2ybc'
loop_
_symmetry_equiv_pos_site_id
_symmetry_equiv_pos_as_xyz
1 x,y,z
2 -x,1/2+y,1/2-z
3 -x,-y,-z
4 x,1/2-y,1/2+z
_cell_length_a                   7.684(4)
_cell_length_b                   8.651(4)
_cell_length_c                   10.053(5)
_cell_angle_alpha                90
_cell_angle_beta                 100.821(8)
_cell_angle_gamma                90
_cell_volume                     656.383
loop_
_atom_site_label
_atom_site_type_symbol
_atom_site_fract_x
_atom_site_fract_y
_atom_site_fract_z
Fe1 Fe 0.32917(6) 0.49056(4) 0.17880(4)
P1 P 0.34452(9) 0.20753(8) 0.39732(8)
H1 H 0.2159 0.1945 0.3719
O1 O 0.3820(3) 0.3732(2) 0.3603(2)
O2 O 0.4245(3) 0.0873(2) 0.3176(2)
O3 O 0.3884(3) 0.1875(2) 0.5496(2)
O4 O 0.1818(3) 0.6228(2) 0.0111(2)
O5 O -0.0569(3) 0.6013(2) -0.1514(2)
O6 O 0.2957(3) 0.7032(3) 0.2968(3)
C1 C 0.0360(4) 0.5647(3) -0.0414(3)
H7 H 0.225(5) 0.759(4) 0.330(5)
H8 H 0.389(4) 0.749(5) 0.335(5)
Fe1A Fe 0.67083(6) 0.99056(4) 0.32120(4)
Fe1A_2 Fe 0.67083(6) -0.00944(4) 0.32120(4)
Fe1C Fe 0.32917(6) 0.00944(4) 0.67880(4)
Fe1B Fe -0.32917(6) 0.50944(4) -0.17880(4)
Fe1B_2 Fe 0.67083(6) 0.50944(4) -0.17880(4)
P1A P 0.65548(9) 0.70753(8) 0.10268(8)
H1A H 0.7841 0.6945 0.1281
O1A O 0.6180(3) 0.8732(2) 0.1397(2)
O2A O 0.5755(3) 0.5873(2) 0.1824(2)
O2_2 O 0.4245(3) 1.0873(2) 0.3176(2)
O3A O 0.6116(3) 0.6875(2) -0.0496(2)
O3C O 0.3884(3) 0.3125(2) 0.0496(2)
O3B O 0.6116(3) 0.8125(2) 0.4504(2)
O4B O -0.1818(3) 0.3772(2) -0.0111(2)
O4A O 0.8182(3) 1.1228(2) 0.4889(2)
O5B O 0.0569(3) 0.3987(2) 0.1514(2)
O5C O 0.9431(3) 0.8987(2) 0.3486(2)
O6A O 0.7043(3) 1.2032(3) 0.2032(3)
C1B C -0.0360(4) 0.4353(3) 0.0414(3)
H7A H 0.775(5) 1.259(4) 0.170(5)
H8A H 0.611(4) 1.249(5) 0.165(5)
N1 N 0.2423(3) 0.5337(3) 0.5741(3)
H2 H 0.2850 0.4980 0.5036
H3 H 0.3094 0.5001 0.6505
H4 H 0.2431 0.6366 0.5730
C2 C 0.0583(4) 0.4780(4) 0.5659(3)
H5 H 0.0100 0.5214 0.6402
H6 H 0.0591 0.3663 0.5752
N1B N -0.2423(3) 0.4663(3) 0.4259(3)
H2B H -0.2850 0.5020 0.4964
H3B H -0.3094 0.4999 0.3495
H4B H -0.2431 0.3634 0.4270
C2B C -0.0583(4) 0.5220(4) 0.4341(3)
H5B H -0.0100 0.4786 0.3598
H6B H -0.0591 0.6337 0.4248
loop_
_geom_bond_atom_site_label_1
_geom_bond_atom_site_label_2
_geom_bond_site_symmetry_1
_geom_bond_site_symmetry_2
Fe1 O1 1_555 1_555
P1 H1 1_555 1_555
O1 P1 1_555 1_555
O2 P1 1_555 1_555
O3 P1 1_555 1_555
O4 Fe1 1_555 1_555
O5 C1 1_555 1_555
O6 Fe1 1_555 1_555
C1 O4 1_555 1_555
N1 H2 1_555 1_555
H3 N1 1_555 1_555
H4 N1 1_555 1_555
C2 N1 1_555 1_555
H5 C2 1_555 1_555
H6 C2 1_555 1_555
H7 O6 1_555 1_555
H8 O6 1_555 1_555
Fe1A O1A 1_555 1_555
Fe1A_2 O2 1_555 1_555
Fe1C O3 1_555 1_555
Fe1B O5 1_555 1_555
Fe1B_2 O3A 1_555 1_555
P1A H1A 1_555 1_555
O1A P1A 1_555 1_555
O2A Fe1 1_555 1_555
O2_2 Fe1A 1_555 1_555
O3A P1A 1_555 1_555
O3C Fe1 1_555 1_555
O3B Fe1A 1_555 1_555
O4B Fe1B 1_555 1_555
O4A Fe1A 1_555 1_555
O5B Fe1 1_555 1_555
O5C Fe1A 1_555 1_555
O6A Fe1A 1_555 1_555
C1B C1 1_555 1_555
N1B H2B 1_555 1_555
H3B N1B 1_555 1_555
H4B N1B 1_555 1_555
C2B C2 1_555 1_555
H5B C2B 1_555 1_555
H6B C2B 1_555 1_555
H7A O6A 1_555 1_555
H8A O6A 1_555 1_555
P1A O2A 1_555 1_555
O4B C1B 1_555 1_555
O5B C1B 1_555 1_555
N1B C2B 1_555 1_555

#END
