
#######################################################################
#
#                 Cambridge Crystallographic Data Centre
#                                CCDC 
#
#######################################################################
#
# If this CIF has been generated from an entry in the Cambridge 
# Structural Database, then it will include bibliographic, chemical, 
# crystal, experimental, refinement or atomic coordinate data resulting 
# from the CCDC's data processing and validation procedures.
#
#######################################################################

data_XEVWUS
_symmetry_cell_setting           monoclinic
_symmetry_space_group_name_H-M   'C c'
_symmetry_Int_Tables_number      9
_space_group_name_Hall           'C -2yc'
loop_
_symmetry_equiv_pos_site_id
_symmetry_equiv_pos_as_xyz
1 x,y,z
2 x,-y,1/2+z
3 1/2+x,1/2+y,z
4 1/2+x,1/2-y,1/2+z
_cell_length_a                   12.2269(16)
_cell_length_b                   9.1084(12)
_cell_length_c                   14.102(3)
_cell_angle_alpha                90
_cell_angle_beta                 110.3190(10)
_cell_angle_gamma                90
_cell_volume                     1472.78
loop_
_atom_site_label
_atom_site_type_symbol
_atom_site_fract_x
_atom_site_fract_y
_atom_site_fract_z
O1 O 0.4310(3) 0.1149(3) 0.5845(3)
H1 H 0.4994 0.0817 0.5962
H2 H 0.3798 0.0814 0.5313
O2 O 0.7729(3) -0.3569(3) 1.0402(2)
C1 C 0.7354(4) -0.3952(4) 0.9498(3)
O3 O 0.7047(3) 0.3506(3) 1.0892(2)
C2 C 0.6003(4) 0.3878(4) 1.0449(3)
C3 C 0.5297(4) 0.2955(5) 0.9551(3)
C4 C 0.4273(4) 0.3484(4) 0.8857(3)
H3 H 0.3981 0.4393 0.8954
C5 C 0.5697(4) 0.1588(4) 0.9386(3)
H4 H 0.6390 0.1215 0.9838
Ni1 Ni 0.33505(8) 0.00210(5) 0.65956(7)
N1 N 0.4073(3) 0.1324(4) 0.7854(3)
N2 N 0.4675(3) -0.1287(4) 0.7444(3)
C6 C 0.6245(4) -0.1552(5) 0.9011(3)
H5 H 0.6725 -0.1138 0.9616
C7 C 0.6401(4) -0.3002(5) 0.8779(3)
C8 C 0.5655(4) -0.3573(4) 0.7881(3)
H6 H 0.5719 -0.4551 0.7717
C9 C 0.5375(4) -0.0738(4) 0.8338(3)
C10 C 0.4821(4) -0.2694(5) 0.7235(3)
H7 H 0.4336 -0.3087 0.6626
O4 O 0.2254(3) -0.1161(3) 0.7208(2)
C11 C 0.5058(4) 0.0787(4) 0.8544(3)
C12 C 0.3688(4) 0.2645(4) 0.8019(3)
H8 H 0.3002 0.3009 0.7551
O5 O 0.5507(3) 0.4961(3) 1.0671(3)
O6 O 0.7670(3) -0.5062(3) 0.9133(3)
H9 H 0.165(4) -0.074(6) 0.681(2)
H10 H 0.2358(14) -0.0891(14) 0.7793(12)
O2C O 0.2729(3) -0.1431(3) 0.5402(2)
O3C O 0.2047(3) 0.1494(3) 0.5892(2)
Ni1C Ni 0.83505(8) -0.50210(5) 1.15956(7)
Ni1C_2 Ni 0.83505(8) 0.49790(5) 1.15956(7)
O7 O 0.6756(3) 0.9265(4) 0.1689(3)
H11 H 0.6989 0.8451 0.1925
H12 H 0.7274 0.9744 0.1558
O8 O 0.3369(3) 0.5685(4) 0.0832(3)
H13 H 0.4005 0.5454 0.0756
H14 H 0.3317 0.6561 0.0728
loop_
_geom_bond_atom_site_label_1
_geom_bond_atom_site_label_2
_geom_bond_site_symmetry_1
_geom_bond_site_symmetry_2
O1 H1 1_555 1_555
H2 O1 1_555 1_555
O2 C1 1_555 1_555
C1 C7 1_555 1_555
O3 C2 1_555 1_555
C2 C3 1_555 1_555
C3 C4 1_555 1_555
C4 H3 1_555 1_555
C5 C3 1_555 1_555
H4 C5 1_555 1_555
Ni1 O1 1_555 1_555
N1 Ni1 1_555 1_555
N2 Ni1 1_555 1_555
C6 H5 1_555 1_555
C7 C6 1_555 1_555
C8 C7 1_555 1_555
H6 C8 1_555 1_555
C9 N2 1_555 1_555
C10 N2 1_555 1_555
H7 C10 1_555 1_555
O4 Ni1 1_555 1_555
C11 C5 1_555 1_555
C12 C4 1_555 1_555
H8 C12 1_555 1_555
O5 C2 1_555 1_555
O6 C1 1_555 1_555
H9 O4 1_555 1_555
H10 O4 1_555 1_555
O7 H11 1_555 1_555
H12 O7 1_555 1_555
O8 H13 1_555 1_555
H14 O8 1_555 1_555
O2C Ni1 1_555 1_555
O3C Ni1 1_555 1_555
Ni1C O2 1_555 1_555
Ni1C_2 O3 1_555 1_555
N1 C11 1_555 1_555
N1 C12 1_555 1_555
C6 C9 1_555 1_555
C8 C10 1_555 1_555
C9 C11 1_555 1_555

#END
