
#######################################################################
#
#                 Cambridge Crystallographic Data Centre
#                                CCDC 
#
#######################################################################
#
# If this CIF has been generated from an entry in the Cambridge 
# Structural Database, then it will include bibliographic, chemical, 
# crystal, experimental, refinement or atomic coordinate data resulting 
# from the CCDC's data processing and validation procedures.
#
#######################################################################

data_XEVXUT
_symmetry_cell_setting           orthorhombic
_symmetry_space_group_name_H-M   'P b c a'
_symmetry_Int_Tables_number      61
_space_group_name_Hall           '-P 2ac 2ab'
loop_
_symmetry_equiv_pos_site_id
_symmetry_equiv_pos_as_xyz
1 x,y,z
2 1/2-x,-y,1/2+z
3 1/2+x,1/2-y,-z
4 -x,1/2+y,1/2-z
5 -x,-y,-z
6 1/2+x,y,1/2-z
7 1/2-x,1/2+y,z
8 x,1/2-y,1/2+z
_cell_length_a                   18.0941(7)
_cell_length_b                   14.3903(6)
_cell_length_c                   19.1497(8)
_cell_angle_alpha                90
_cell_angle_beta                 90
_cell_angle_gamma                90
_cell_volume                     4986.19
loop_
_atom_site_label
_atom_site_type_symbol
_atom_site_fract_x
_atom_site_fract_y
_atom_site_fract_z
Co1 Co 0.094406(12) 0.023321(16) 0.059706(13)
O1 O 0.55064(6) -0.39781(8) -0.09168(7)
O2 O 0.15870(7) 0.14979(9) 0.07108(7)
O3 O 0.17743(7) 0.03574(9) 0.14483(8)
C1 C 0.39810(9) 0.16192(13) 0.29436(10)
C2 C 0.48450(9) -0.38048(12) -0.07452(9)
C3 C 0.38445(9) -0.26158(12) -0.08125(10)
H1 H 0.3712 -0.2784 -0.0349
C4 C 0.33873(9) 0.20111(13) 0.24969(10)
N1 N 0.17265(8) -0.04877(11) -0.00424(9)
N2 N 0.51295(8) 0.08764(10) 0.37560(8)
C5 C 0.18938(9) 0.11789(12) 0.12490(10)
C6 C 0.29289(9) 0.14310(12) 0.21090(10)
H2 H 0.2980 0.0776 0.2149
C7 C 0.34410(9) -0.19270(12) -0.11620(10)
C8 C 0.28293(9) -0.14379(13) -0.07950(10)
C9 C 0.44381(9) -0.30570(12) -0.11370(10)
C10 C 0.23969(10) 0.17985(12) 0.16628(10)
C11 C 0.42109(10) -0.21681(14) -0.21803(11)
H3 H 0.4324 -0.2030 -0.2653
C12 C 0.49052(10) 0.04567(13) 0.31652(10)
H4 H 0.5148 -0.0097 0.3023
C13 C 0.43367(10) 0.07955(13) 0.27563(10)
H5 H 0.4188 0.0469 0.2349
C14 C 0.42267(10) 0.20609(14) 0.35450(11)
H6 H 0.4008 0.2629 0.3690
C15 C 0.27622(11) 0.33438(13) 0.20051(11)
H7 H 0.2701 0.3998 0.1973
C16 C 0.20775(11) -0.00895(14) -0.05784(12)
H8 H 0.1944 0.0526 -0.0704
C17 C 0.46262(10) -0.28262(13) -0.18222(10)
H9 H 0.5036 -0.3117 -0.2043
C18 C 0.19125(10) -0.13640(13) 0.01119(11)
H10 H 0.1663 -0.1665 0.0485
C19 C 0.24514(10) -0.18525(13) -0.02480(11)
H11 H 0.2562 -0.2474 -0.0119
C20 C 0.32932(10) 0.29744(13) 0.24453(11)
H12 H 0.3596 0.3378 0.2714
C21 C 0.36325(10) -0.17124(13) -0.18501(10)
H13 H 0.3363 -0.1249 -0.2095
C22 C 0.47931(10) 0.16668(13) 0.39319(11)
H14 H 0.4950 0.1976 0.4344
C23 C 0.23208(10) 0.27571(13) 0.16123(11)
H15 H 0.1962 0.3013 0.1305
C24 C 0.26256(11) -0.05279(14) -0.09594(12)
H16 H 0.2863 -0.0211 -0.1332
O4 O 0.44999(7) -0.42237(9) -0.02797(7)
Co1B Co 0.594406(12) -0.523321(16) -0.059706(13)
Co1E Co 0.594406(12) 0.023321(16) 0.440294(13)
Co1F Co 0.405594(12) -0.476679(16) 0.059706(13)
O1B O 0.05064(6) -0.10219(8) 0.09168(7)
N2E N 0.01295(8) 0.08764(10) 0.12440(8)
O4F O 0.05001(7) 0.07763(9) -0.02797(7)
O5 O 0.46568(18) 0.4450(2) 0.37261(19)
C25 C 0.4919(2) 0.5175(3) 0.3968(2)
H17 H 0.4609 0.5708 0.3973
N3 N 0.55999(16) 0.5269(2) 0.42244(14)
C26 C 0.5851(2) 0.6164(3) 0.4508(2)
H18 H 0.5451 0.6620 0.4471
H19 H 0.6280 0.6382 0.4242
H20 H 0.5989 0.6086 0.4999
C27 C 0.6113(2) 0.4528(3) 0.4250(3)
H21 H 0.5903 0.3983 0.4016
H22 H 0.6222 0.4375 0.4738
H23 H 0.6570 0.4713 0.4013
loop_
_geom_bond_atom_site_label_1
_geom_bond_atom_site_label_2
_geom_bond_site_symmetry_1
_geom_bond_site_symmetry_2
Co1 O2 1_555 1_555
O1 C2 1_555 1_555
O2 C5 1_555 1_555
O3 Co1 1_555 1_555
C1 C4 1_555 1_555
C2 C9 1_555 1_555
C3 H1 1_555 1_555
C4 C6 1_555 1_555
N1 Co1 1_555 1_555
N2 C12 1_555 1_555
C5 O3 1_555 1_555
C6 H2 1_555 1_555
C7 C3 1_555 1_555
C8 C7 1_555 1_555
C9 C3 1_555 1_555
C10 C5 1_555 1_555
C11 H3 1_555 1_555
C12 H4 1_555 1_555
C13 C1 1_555 1_555
H5 C13 1_555 1_555
C14 C1 1_555 1_555
H6 C14 1_555 1_555
C15 H7 1_555 1_555
C16 N1 1_555 1_555
H8 C16 1_555 1_555
C17 C9 1_555 1_555
H9 C17 1_555 1_555
C18 N1 1_555 1_555
H10 C18 1_555 1_555
C19 C8 1_555 1_555
H11 C19 1_555 1_555
C20 C4 1_555 1_555
H12 C20 1_555 1_555
C21 C7 1_555 1_555
H13 C21 1_555 1_555
C22 N2 1_555 1_555
H14 C22 1_555 1_555
C23 C10 1_555 1_555
H15 C23 1_555 1_555
C24 C8 1_555 1_555
H16 C24 1_555 1_555
O4 C2 1_555 1_555
O5 C25 1_555 1_555
C25 H17 1_555 1_555
N3 C25 1_555 1_555
C26 N3 1_555 1_555
H18 C26 1_555 1_555
H19 C26 1_555 1_555
H20 C26 1_555 1_555
C27 N3 1_555 1_555
H21 C27 1_555 1_555
H22 C27 1_555 1_555
H23 C27 1_555 1_555
Co1B O1 1_555 1_555
Co1E N2 1_555 1_555
Co1F O4 1_555 1_555
O1B Co1 1_555 1_555
N2E Co1 1_555 1_555
O4F Co1 1_555 1_555
C6 C10 1_555 1_555
C11 C17 1_555 1_555
C11 C21 1_555 1_555
C12 C13 1_555 1_555
C14 C22 1_555 1_555
C15 C20 1_555 1_555
C15 C23 1_555 1_555
C16 C24 1_555 1_555
C18 C19 1_555 1_555

#END
