
#######################################################################
#
#                 Cambridge Crystallographic Data Centre
#                                CCDC 
#
#######################################################################
#
# If this CIF has been generated from an entry in the Cambridge 
# Structural Database, then it will include bibliographic, chemical, 
# crystal, experimental, refinement or atomic coordinate data resulting 
# from the CCDC's data processing and validation procedures.
#
#######################################################################

data_XEVXUS
_symmetry_cell_setting           monoclinic
_symmetry_space_group_name_H-M   'P 21/m'
_symmetry_Int_Tables_number      11
_space_group_name_Hall           '-P 2yb'
loop_
_symmetry_equiv_pos_site_id
_symmetry_equiv_pos_as_xyz
1 x,y,z
2 -x,1/2+y,-z
3 -x,-y,-z
4 x,1/2-y,z
_cell_length_a                   7.2439(14)
_cell_length_b                   6.7374(13)
_cell_length_c                   14.488(3)
_cell_angle_alpha                90
_cell_angle_beta                 94.13(3)
_cell_angle_gamma                90
_cell_volume                     705.251
loop_
_atom_site_label
_atom_site_type_symbol
_atom_site_fract_x
_atom_site_fract_y
_atom_site_fract_z
H6 H -0.7911 1.3674 1.4706
H7 H -0.3676 1.1366 1.6218
O7 O -0.2941(6) 0.7500 0.8347(3)
Pr1 Pr -0.16605(3) 0.7500 1.308800(19)
O1 O -0.4981(5) 0.7500 1.2365(3)
N1 N -0.8465(7) 0.7500 0.9257(4)
H1 H -0.9256 0.7500 0.8767
C1 C -0.4490(6) 0.7500 1.1565(4)
O2 O -0.2828(4) 0.7500 1.1361(2)
N2 N -0.4049(5) 0.7500 1.4380(3)
C2 C -0.5931(6) 0.7500 1.0772(4)
O3 O 0.0926(3) 0.9149(4) 1.21816(18)
C3 C -0.7855(6) 0.7500 1.0892(3)
O4 O -0.2656(6) 1.0908(4) 1.2779(2)
C4 C -0.9113(7) 0.7500 1.0132(4)
H2 H -1.0404 0.7500 1.0208
O5 O -0.0670(7) 1.0027(7) 1.4273(4)
C5 C -0.6660(7) 0.7500 0.9150(3)
H3 H -0.6246 0.7500 0.8543
O6 O 0.0353(7) 0.9099(7) 1.4241(4)
C6 C -0.5421(7) 0.7500 0.9870(4)
H4 H -0.4143 0.7500 0.9763
C7 C 0.1340(6) 0.7500 1.1842(4)
C8 C -0.2949(6) 1.2500 1.3143(4)
C9 C -0.3900(6) 1.2500 1.4024(3)
C14 C -0.1242(9) 1.0835(10) 1.4984(5)
O3C O 0.0926(3) 0.5851(4) 1.21816(18)
C3_2 C 0.2145(6) 0.7500 1.0892(3)
O4C O -0.2656(6) 0.4092(4) 1.2779(2)
O4C_2 O -0.2656(6) 1.4092(4) 1.2779(2)
O5C O -0.0670(7) 0.4973(7) 1.4273(4)
O6C O 0.0353(7) 0.5901(7) 1.4241(4)
O6B O -0.0353(7) 1.0901(7) 1.5759(4)
C7_2 C -0.8660(6) 0.7500 1.1842(4)
C14B C 0.1242(9) 0.9165(10) 1.5016(5)
C10? C -0.5717(9) 1.3207(6) 1.3968(5)
H5? H -0.6279 1.3690 1.3400
C11? C -0.6676(9) 1.3189(6) 1.4753(6)
C12? C -0.4211(8) 1.1841(6) 1.5642(5)
C13? C -0.3118(8) 1.1789(6) 1.4895(5)
loop_
_geom_bond_atom_site_label_1
_geom_bond_atom_site_label_2
_geom_bond_site_symmetry_1
_geom_bond_site_symmetry_2
Pr1 O1 1_555 1_555
O1 C1 1_555 1_555
N1 H1 1_555 1_555
C1 O2 1_555 1_555
O2 Pr1 1_555 1_555
N2 Pr1 1_555 1_555
C2 C1 1_555 1_555
O3 Pr1 1_555 1_555
C3 C2 1_555 1_555
O4 Pr1 1_555 1_555
C4 N1 1_555 1_555
H2 C4 1_555 1_555
O5 Pr1 1_555 1_555
C5 N1 1_555 1_555
H3 C5 1_555 1_555
O6 Pr1 1_555 1_555
C6 C2 1_555 1_555
H4 C6 1_555 1_555
C7 O3 1_555 1_555
C8 O4 1_555 1_555
C9 C8 1_555 1_555
C14 O5 1_555 1_555
O3C Pr1 1_555 1_555
C3_2 C7 1_555 1_555
O4C Pr1 1_555 1_555
O4C_2 C8 1_555 1_555
O5C Pr1 1_555 1_555
O6C Pr1 1_555 1_555
O6B C14 1_555 1_555
C7_2 C3 1_555 1_555
C14B O6 1_555 1_555
C3 C4 1_555 1_555
O5 O6 1_555 1_555
C5 C6 1_555 1_555
C7 O3C 1_555 1_555
O5C O6C 1_555 1_555

#END
