
#######################################################################
#
#                 Cambridge Crystallographic Data Centre
#                                CCDC 
#
#######################################################################
#
# If this CIF has been generated from an entry in the Cambridge 
# Structural Database, then it will include bibliographic, chemical, 
# crystal, experimental, refinement or atomic coordinate data resulting 
# from the CCDC's data processing and validation procedures.
#
#######################################################################

data_XEVXON
_symmetry_cell_setting           tetragonal
_symmetry_space_group_name_H-M   'P 43 21 2'
_symmetry_Int_Tables_number      96
_space_group_name_Hall           'P 4nw 2abw'
loop_
_symmetry_equiv_pos_site_id
_symmetry_equiv_pos_as_xyz
1 x,y,z
2 1/2-y,1/2+x,3/4+z
3 -x,-y,1/2+z
4 1/2+y,1/2-x,1/4+z
5 1/2+x,1/2-y,1/4-z
6 1/2-x,1/2+y,3/4-z
7 y,x,-z
8 -y,-x,1/2-z
_cell_length_a                   11.4957(8)
_cell_length_b                   11.4957(8)
_cell_length_c                   37.257(4)
_cell_angle_alpha                90
_cell_angle_beta                 90
_cell_angle_gamma                90
_cell_volume                     4923.55
loop_
_atom_site_label
_atom_site_type_symbol
_atom_site_fract_x
_atom_site_fract_y
_atom_site_fract_z
Co1 Co 0.15481(6) 0.28694(6) 0.081525(17)
O1 O 0.1561(4) 0.4814(3) 0.08455(9)
O2 O -0.0340(3) 0.2902(4) 0.07637(9)
O3 O 0.2045(4) 0.3668(3) 0.12909(8)
O4 O 0.0769(3) 0.2256(4) 0.03391(9)
C1 C -0.3350(4) 0.2011(4) 0.01766(11)
C2 C 0.2192(6) 0.7780(5) 0.14881(12)
N1 N 0.1644(4) 1.1198(3) 0.10560(10)
C3 C -0.2379(4) 0.2377(4) 0.03624(12)
H1 H -0.2474 0.2832 0.0573
C4 C 0.1931(5) 0.6823(4) 0.12731(13)
H2 H 0.1605 0.6940 0.1042
C5 C 0.1890(4) 0.4682(4) 0.11648(12)
C6 C -0.4542(4) 0.2289(5) 0.03147(12)
N2 N -0.6768(3) 0.2723(4) 0.05990(10)
C7 C -0.1116(5) 0.1412(5) -0.00607(13)
H3 H -0.0359 0.1211 -0.0142
C8 C -0.1272(4) 0.2097(5) 0.02483(11)
C9 C -0.0227(4) 0.2446(4) 0.04634(12)
C10 C 0.1994(5) 0.8984(4) 0.13479(12)
C11 C 0.2139(5) 0.5710(4) 0.13930(12)
C12 C 0.0855(5) 1.0342(4) 0.10019(12)
H4 H 0.0179 1.0504 0.0864
C13 C -0.3197(4) 0.1319(5) -0.01309(13)
H5 H -0.3855 0.1047 -0.0260
C14 C 0.1006(5) 0.9235(4) 0.11423(12)
H6 H 0.0440 0.8649 0.1099
C15 C 0.2757(5) 0.9876(4) 0.14069(13)
H7 H 0.3421 0.9749 0.1553
C16 C 0.2573(4) 1.0968(4) 0.12556(12)
H8 H 0.3128 1.1566 0.1296
C17 C 0.2591(5) 0.5544(4) 0.17436(13)
H9 H 0.2713 0.4779 0.1832
C18 C -0.2101(5) 0.1038(5) -0.02451(13)
H10 H -0.2011 0.0576 -0.0455
C19 C 0.2694(6) 0.7615(5) 0.18286(13)
H11 H 0.2922 0.8263 0.1970
C20 C 0.2852(7) 0.6486(5) 0.19546(14)
H12 H 0.3144 0.6367 0.2190
C21 C -0.5847(16) 0.3428(13) 0.0670(4)
H13 H -0.5964 0.4084 0.0820
C22 C -0.4756(11) 0.3233(10) 0.0534(4)
H14 H -0.4142 0.3754 0.0590
C23 C -0.6563(9) 0.1767(13) 0.0394(4)
H15 H -0.7180 0.1236 0.0352
C24 C -0.5463(11) 0.1537(14) 0.0243(4)
H16 H -0.5352 0.0876 0.0094
Co1_2 Co -0.84519(6) 0.28694(6) 0.081525(17)
Co1_3 Co 0.15481(6) 1.28694(6) 0.081525(17)
N1_2 N 0.1644(4) 0.1198(3) 0.10560(10)
N2_2 N 0.3232(3) 0.2723(4) 0.05990(10)
N3 N -0.2447(7) 0.4544(5) -0.03631(18)
C29 C -0.1565(10) 0.4202(9) -0.0612(2)
H21 H -0.1552 0.3352 -0.0632
H22 H -0.0807 0.4479 -0.0528
H23 H -0.1733 0.4542 -0.0848
C30 C -0.3659(10) 0.4335(9) -0.0475(3)
H24 H -0.3801 0.3496 -0.0490
H25 H -0.3793 0.4691 -0.0710
H26 H -0.4190 0.4680 -0.0299
C31 C -0.2270(10) 0.5045(8) -0.0042(3)
O5 O -0.1269(8) 0.5236(9) 0.0084(3)
C25? C -0.6627(11) 0.233(2) 0.0267(4)
H17? H -0.7298 0.2224 0.0121
C26? C -0.5550(11) 0.208(2) 0.0122(4)
H18? H -0.5500 0.1754 -0.0112
C27? C -0.5811(14) 0.303(2) 0.0780(6)
H19? H -0.5890 0.3422 0.1003
C28? C -0.4702(14) 0.279(3) 0.0649(4)
H20? H -0.4042 0.2977 0.0792
O6? O -0.3049(15) 0.5306(11) 0.0119(3)
loop_
_geom_bond_atom_site_label_1
_geom_bond_atom_site_label_2
_geom_bond_site_symmetry_1
_geom_bond_site_symmetry_2
Co1 O1 1_555 1_555
O1 C5 1_555 1_555
O2 Co1 1_555 1_555
O3 Co1 1_555 1_555
O4 Co1 1_555 1_555
C1 C3 1_555 1_555
C2 C4 1_555 1_555
N1 C12 1_555 1_555
C3 H1 1_555 1_555
C4 H2 1_555 1_555
C5 O3 1_555 1_555
C6 C1 1_555 1_555
N2 C21 1_555 1_555
C7 H3 1_555 1_555
C8 C3 1_555 1_555
C9 O2 1_555 1_555
C10 C2 1_555 1_555
C11 C4 1_555 1_555
C12 H4 1_555 1_555
C13 C1 1_555 1_555
H5 C13 1_555 1_555
C14 C10 1_555 1_555
H6 C14 1_555 1_555
C15 C10 1_555 1_555
H7 C15 1_555 1_555
C16 N1 1_555 1_555
H8 C16 1_555 1_555
C17 C11 1_555 1_555
H9 C17 1_555 1_555
C18 C7 1_555 1_555
H10 C18 1_555 1_555
C19 C2 1_555 1_555
H11 C19 1_555 1_555
C20 C17 1_555 1_555
H12 C20 1_555 1_555
C21 H13 1_555 1_555
C22 C6 1_555 1_555
H14 C22 1_555 1_555
C23 N2 1_555 1_555
H15 C23 1_555 1_555
C24 C6 1_555 1_555
H16 C24 1_555 1_555
N3 C29 1_555 1_555
C29 H21 1_555 1_555
H22 C29 1_555 1_555
H23 C29 1_555 1_555
C30 N3 1_555 1_555
H24 C30 1_555 1_555
H25 C30 1_555 1_555
H26 C30 1_555 1_555
C31 N3 1_555 1_555
O5 C31 1_555 1_555
Co1_2 N2 1_555 1_555
Co1_3 N1 1_555 1_555
N1_2 Co1 1_555 1_555
N2_2 Co1 1_555 1_555
O4 C9 1_555 1_555
C5 C11 1_555 1_555
C7 C8 1_555 1_555
C8 C9 1_555 1_555
C12 C14 1_555 1_555
C13 C18 1_555 1_555
C15 C16 1_555 1_555
C19 C20 1_555 1_555
C21 C22 1_555 1_555
C23 C24 1_555 1_555

#END
