
#######################################################################
#
#                 Cambridge Crystallographic Data Centre
#                                CCDC 
#
#######################################################################
#
# If this CIF has been generated from an entry in the Cambridge 
# Structural Database, then it will include bibliographic, chemical, 
# crystal, experimental, refinement or atomic coordinate data resulting 
# from the CCDC's data processing and validation procedures.
#
#######################################################################

data_XEVYOM
_symmetry_cell_setting           monoclinic
_symmetry_space_group_name_H-M   'C 2/c'
_symmetry_Int_Tables_number      15
_space_group_name_Hall           '-C 2yn'
loop_
_symmetry_equiv_pos_site_id
_symmetry_equiv_pos_as_xyz
1 x,y,z
2 -x,y,1/2-z
3 1/2+x,1/2+y,z
4 1/2-x,1/2+y,1/2-z
5 -x,-y,-z
6 x,-y,1/2+z
7 1/2-x,1/2-y,-z
8 1/2+x,1/2-y,1/2+z
_cell_length_a                   16.110(8)
_cell_length_b                   20.380(5)
_cell_length_c                   11.01(1)
_cell_angle_alpha                90
_cell_angle_beta                 119.87(3)
_cell_angle_gamma                90
_cell_volume                     3134.62
loop_
_atom_site_label
_atom_site_type_symbol
_atom_site_fract_x
_atom_site_fract_y
_atom_site_fract_z
Cd1 Cd 0.5000 0.0000 0.5000
S1 S 0.6290(1) 0.07993(7) 0.4793(2)
S2 S 0.5367(5) -0.1097(2) 0.3866(6)
N1 N 0.6131(4) -0.0344(3) 0.7284(6)
N2 N 0.462(1) 0.0808(7) 0.600(2)
C1 C 0.6191(4) 0.0531(3) 0.3323(6)
C2 C 0.5000 -0.0931(5) 0.2500
S1D S 0.3710(1) -0.07993(7) 0.5207(2)
S2D S 0.4633(5) 0.1097(2) 0.6134(6)
N1D N 0.3869(4) 0.0344(3) 0.2716(6)
N2D N 0.538(1) -0.0808(7) 0.400(2)
C1E C 0.6191(4) -0.0531(3) 0.8323(6)
C2D C 0.5000 0.0931(5) 0.7500
N1E N 0.6131(4) 0.0344(3) 0.2284(6)
S2A S 0.4633(5) -0.1097(2) 0.1134(6)
N2E N 0.462(1) -0.0808(7) 0.100(2)
Cd1A Cd 0.5000 0.0000 0.0000
S1E S 0.6290(1) -0.07993(7) 0.9793(2)
Cd1A_2 Cd 0.5000 0.0000 1.0000
Na1 Na 1.0000 -0.1352(1) 0.7500
O1 O 1.0176(3) -0.2158(2) 0.6001(4)
O2 O 1.1653(3) -0.1769(2) 0.8511(4)
O3 O 0.8799(3) -0.0457(2) 0.6711(4)
O4 O 0.9365(3) -0.1016(2) 0.4951(4)
C3 C 1.1065(5) -0.2500(3) 0.6481(7)
C4 C 1.1630(4) -0.2429(3) 0.8045(7)
C5 C 1.2113(4) -0.1311(3) 0.8047(2)
C6 C 0.7838(4) -0.0671(3) 0.6259(7)
C7 C 0.8886(4) -0.0070(3) 0.5705(6)
C8 C 0.8737(4) -0.0457(3) 0.4454(6)
C9 C 0.9160(4) -0.1516(3) 0.4009(5)
C10 C 0.9595(4) -0.2120(3) 0.4548(6)
C11 C 0.9423(5) -0.2651(3) 0.3682(7)
C12 C 0.8813(5) -0.2580(4) 0.2253(7)
C13 C 0.8388(5) -0.1992(4) 0.1709(6)
C14 C 0.8557(5) -0.1455(5) 0.2577(6)
H1 H 1.0971 -0.2956 0.6212
H2 H 1.1427 -0.2312 0.6066
H3 H 1.2286 -0.2572 0.8402
H4 H 1.1358 -0.2706 0.8458
H5 H 1.2739 -0.1461 0.8270
H6 H 1.1749 -0.1257 0.7035
H7 H 0.7503 -0.0349 0.6497
H8 H 0.7486 -0.0728 0.5263
H9 H 0.8437 0.0293 0.5410
H10 H 0.9519 0.0126 0.6140
H11 H 0.8857 -0.0192 0.3837
H12 H 0.8076 -0.0595 0.3934
H13 H 0.9711 -0.3071 0.4076
H14 H 0.8685 -0.2947 0.1626
H15 H 0.7976 -0.1952 0.0694
H16 H 0.8239 -0.1035 0.2162
O1A O 0.9824(3) -0.2158(2) 0.8999(4)
O2A O 0.8347(3) -0.1769(2) 0.6489(4)
O3A O 1.1201(3) -0.0457(2) 0.8289(4)
O4A O 1.0635(3) -0.1016(2) 1.0049(4)
C6A C 1.2162(4) -0.0671(3) 0.8741(7)
C5A C 0.7887(4) -0.1311(3) 0.6953(2)
H5A H 0.7261 -0.1461 0.6730
H6A H 0.8251 -0.1257 0.7965
C3A C 0.8935(5) -0.2500(3) 0.8519(7)
C10A C 1.0405(4) -0.2120(3) 1.0452(6)
C8A C 1.1263(4) -0.0457(3) 1.0546(6)
C9A C 1.0840(4) -0.1516(3) 1.0991(5)
H7A H 1.2497 -0.0349 0.8503
H8A H 1.2514 -0.0728 0.9737
C4A C 0.8370(4) -0.2429(3) 0.6955(7)
H1A H 0.9029 -0.2956 0.8788
H2A H 0.8573 -0.2312 0.8934
C11A C 1.0577(5) -0.2651(3) 1.1318(7)
C14A C 1.1443(5) -0.1455(5) 1.2423(6)
C7A C 1.1114(4) -0.0070(3) 0.9295(6)
H11A H 1.1143 -0.0192 1.1163
H12A H 1.1924 -0.0595 1.1066
H9A H 1.1563 0.0293 0.9590
H10A H 1.0481 0.0126 0.8860
C12A C 1.1187(5) -0.2580(4) 1.2747(7)
H13A H 1.0289 -0.3071 1.0924
C13A C 1.1612(5) -0.1992(4) 1.3291(6)
H14A H 1.1315 -0.2947 1.3374
H16A H 1.1761 -0.1035 1.2838
H15A H 1.2024 -0.1952 1.4306
loop_
_geom_bond_atom_site_label_1
_geom_bond_atom_site_label_2
_geom_bond_site_symmetry_1
_geom_bond_site_symmetry_2
Cd1 S1 1_555 1_555
S1 C1 1_555 1_555
S2 Cd1 1_555 1_555
Na1 O1 1_555 1_555
O1 C3 1_555 1_555
O2 Na1 1_555 1_555
O3 Na1 1_555 1_555
O4 Na1 1_555 1_555
N1 Cd1 1_555 1_555
N2 Cd1 1_555 1_555
C1 N1E 1_555 1_555
C2 S2 1_555 1_555
C3 C4 1_555 1_555
C4 O2 1_555 1_555
C5 O2 1_555 1_555
C6 O3 1_555 1_555
C7 O3 1_555 1_555
C8 O4 1_555 1_555
C9 O4 1_555 1_555
C10 O1 1_555 1_555
C11 C10 1_555 1_555
C12 C11 1_555 1_555
C13 C12 1_555 1_555
C14 C9 1_555 1_555
H1 C3 1_555 1_555
H2 C3 1_555 1_555
H3 C4 1_555 1_555
H4 C4 1_555 1_555
H5 C5 1_555 1_555
H6 C5 1_555 1_555
H7 C6 1_555 1_555
H8 C6 1_555 1_555
H9 C7 1_555 1_555
H10 C7 1_555 1_555
H11 C8 1_555 1_555
H12 C8 1_555 1_555
H13 C11 1_555 1_555
H14 C12 1_555 1_555
H15 C13 1_555 1_555
H16 C14 1_555 1_555
S1D Cd1 1_555 1_555
S2D Cd1 1_555 1_555
N1D Cd1 1_555 1_555
N2D Cd1 1_555 1_555
O1A Na1 1_555 1_555
O2A Na1 1_555 1_555
O3A Na1 1_555 1_555
O4A Na1 1_555 1_555
C1E N1 1_555 1_555
C2D N2 1_555 1_555
N1E Cd1A 1_555 1_555
S2A C2 1_555 1_555
N2E C2 1_555 1_555
C6A C5 1_555 1_555
C5A C6 1_555 1_555
H5A C5A 1_555 1_555
H6A C5A 1_555 1_555
C3A O1A 1_555 1_555
C10A O1A 1_555 1_555
C8A O4A 1_555 1_555
C9A O4A 1_555 1_555
H7A C6A 1_555 1_555
H8A C6A 1_555 1_555
C4A O2A 1_555 1_555
H1A C3A 1_555 1_555
H2A C3A 1_555 1_555
C11A C10A 1_555 1_555
C14A C9A 1_555 1_555
C7A O3A 1_555 1_555
H11A C8A 1_555 1_555
H12A C8A 1_555 1_555
H9A C7A 1_555 1_555
H10A C7A 1_555 1_555
Cd1A S2A 1_555 1_555
S1E C1E 1_555 1_555
Cd1A_2 S1E 1_555 1_555
C12A C11A 1_555 1_555
H13A C11A 1_555 1_555
C13A C14A 1_555 1_555
H14A C12A 1_555 1_555
H16A C14A 1_555 1_555
H15A C13A 1_555 1_555
S2 N2D 1_555 1_555
N2 S2D 1_555 1_555
C2 N2D 1_555 1_555
C7 C8 1_555 1_555
C9 C10 1_555 1_555
C13 C14 1_555 1_555
S2D C2D 1_555 1_555
O2A C5A 1_555 1_555
O3A C6A 1_555 1_555
S2A N2E 1_555 1_555
N2E Cd1A 1_555 1_555
C3A C4A 1_555 1_555
C10A C9A 1_555 1_555
C8A C7A 1_555 1_555
C12A C13A 1_555 1_555

#END
