
#######################################################################
#
#                 Cambridge Crystallographic Data Centre
#                                CCDC 
#
#######################################################################
#
# If this CIF has been generated from an entry in the Cambridge 
# Structural Database, then it will include bibliographic, chemical, 
# crystal, experimental, refinement or atomic coordinate data resulting 
# from the CCDC's data processing and validation procedures.
#
#######################################################################

data_XEWCOT
_symmetry_cell_setting           triclinic
_symmetry_space_group_name_H-M   'P -1'
_symmetry_Int_Tables_number      2
_space_group_name_Hall           '-P 1'
loop_
_symmetry_equiv_pos_site_id
_symmetry_equiv_pos_as_xyz
1 x,y,z
2 -x,-y,-z
_cell_length_a                   10.905(5)
_cell_length_b                   13.194(7)
_cell_length_c                   14.970(8)
_cell_angle_alpha                110.429(7)
_cell_angle_beta                 95.307(6)
_cell_angle_gamma                91.644(6)
_cell_volume                     2005.48
loop_
_atom_site_label
_atom_site_type_symbol
_atom_site_fract_x
_atom_site_fract_y
_atom_site_fract_z
Cd1 Cd 0.07892(3) -0.00973(3) 0.61082(3)
S1 S -0.37363(11) 0.49271(10) 0.70088(11)
O1 O -0.0130(4) 0.2526(4) 0.5378(3)
N1 N 0.2649(4) 0.0826(4) 0.6069(3)
C1 C -0.0620(5) 0.1997(4) 0.5800(4)
Cd2 Cd 0.08591(3) 0.04417(3) 0.89242(3)
O2 O -0.0706(4) 0.0967(3) 0.5534(3)
N2 N 0.2490(4) -0.1191(4) 0.6193(3)
C2 C -0.1279(4) 0.2639(4) 0.6662(4)
O3 O 0.0654(3) 0.1530(3) 0.7355(3)
N3 N 0.2855(4) 0.1066(4) 0.8744(4)
C3 C -0.0266(5) 0.1775(4) 0.7816(4)
O4 O -0.0494(4) 0.1482(4) 0.8497(3)
N4 N 0.2288(4) -0.0800(4) 0.9062(4)
C4 C -0.1162(5) 0.2521(4) 0.7560(4)
O5 O -0.0966(3) 0.9517(3) 0.9004(3)
C5 C -0.1814(5) 0.3157(5) 0.8283(4)
H1 H -0.1721 0.3082 0.8881
O6 O -0.1088(4) 0.8203(3) 0.9605(3)
C6 C -0.2603(5) 0.3901(4) 0.8132(4)
H2 H -0.3045 0.4319 0.8617
O7 O 0.0465(3) 0.9015(3) 0.7440(3)
C7 C -0.2715(4) 0.4004(4) 0.7238(4)
O8 O -0.1001(4) 0.9160(3) 0.6376(3)
C8 C -0.2065(4) 0.3389(4) 0.6518(4)
H3 H -0.2153 0.3476 0.5926
O9 O -0.4346(4) 0.4426(3) 0.6054(3)
C9 C -0.1177(4) 0.8550(4) 0.8905(4)
O10 O -0.4464(3) 0.5311(3) 0.7808(3)
C10 C -0.1590(4) 0.7719(4) 0.7927(4)
C11 C -0.0588(5) 0.8757(4) 0.6983(4)
C12 C -0.1376(4) 0.7834(4) 0.7059(4)
C13 C -0.1829(5) 0.7040(4) 0.6198(4)
H4 H -0.1657 0.7115 0.5627
C14 C -0.2531(5) 0.6135(4) 0.6169(4)
H5 H -0.2834 0.5609 0.5586
C15 C -0.2771(4) 0.6032(4) 0.7016(4)
C16 C -0.2305(4) 0.6804(4) 0.7897(4)
H6 H -0.2468 0.6713 0.8464
C17 C 0.2711(6) 0.1796(5) 0.6009(5)
H7 H 0.1978 0.2123 0.5955
C18 C 0.3818(7) 0.2362(6) 0.6022(6)
H8 H 0.3821 0.3047 0.5977
C19 C 0.4887(6) 0.1890(6) 0.6103(5)
H9 H 0.5634 0.2257 0.6118
C20 C 0.4883(5) 0.0843(6) 0.6165(4)
C21 C 0.5968(5) 0.0279(7) 0.6235(5)
H10 H 0.6740 0.0607 0.6253
C22 C 0.5881(7) -0.0710(7) 0.6275(6)
H11 H 0.6599 -0.1063 0.6315
C23 C 0.4736(6) -0.1241(6) 0.6260(5)
C24 C 0.4608(7) -0.2281(7) 0.6296(5)
H12 H 0.5311 -0.2656 0.6327
C25 C 0.3470(8) -0.2768(7) 0.6288(6)
H13 H 0.3387 -0.3464 0.6306
C26 C 0.2443(6) -0.2162(5) 0.6250(5)
H14 H 0.1672 -0.2470 0.6267
C27 C 0.3632(5) -0.0730(5) 0.6202(4)
C28 C 0.3690(5) 0.0352(5) 0.6144(4)
C29 C 0.3129(6) 0.2014(6) 0.8653(5)
H15 H 0.2506 0.2478 0.8645
C30 C 0.4345(7) 0.2323(7) 0.8567(5)
H16 H 0.4521 0.2994 0.8517
C31 C 0.5246(7) 0.1657(8) 0.8557(5)
H17 H 0.6045 0.1859 0.8487
C32 C 0.4996(5) 0.0665(7) 0.8650(5)
C33 C 0.5905(6) -0.0102(9) 0.8663(5)
H18 H 0.6720 0.0057 0.8595
C34 C 0.5599(6) -0.1042(8) 0.8771(5)
H19 H 0.6210 -0.1520 0.8766
C35 C 0.4384(6) -0.1334(6) 0.8893(5)
C36 C 0.4048(7) -0.2291(7) 0.9035(5)
H20 H 0.4630 -0.2797 0.9020
C37 C 0.2888(7) -0.2481(6) 0.9192(6)
H21 H 0.2658 -0.3120 0.9282
C38 C 0.2026(6) -0.1709(6) 0.9220(6)
H22 H 0.1233 -0.1837 0.9355
C39 C 0.3448(5) -0.0603(5) 0.8907(4)
C40 C 0.3752(5) 0.0374(6) 0.8755(4)
Cd1_2 Cd 0.07892(3) 0.99027(3) 0.61082(3)
Cd1A Cd -0.07892(3) 0.00973(3) 0.38918(3)
Cd2_2 Cd 0.08591(3) 1.04417(3) 0.89242(3)
Cd2A Cd -0.08591(3) 0.95583(3) 1.10758(3)
O2A O 0.0706(4) -0.0967(3) 0.4466(3)
O5_2 O -0.0966(3) -0.0483(3) 0.9004(3)
O6A O 0.1088(4) 0.1797(3) 1.0395(3)
O7_2 O 0.0465(3) -0.0985(3) 0.7440(3)
O8_2 O -0.1001(4) -0.0840(3) 0.6376(3)
O11 O -0.0631(8) 0.6146(7) 0.9702(7)
H23 H -0.0702 0.6886 0.9885
H24 H -0.0252 0.5968 0.9142
O12 O 0.0461(11) 0.4708(9) 0.5832(9)
H25 H 0.0812 0.4112 0.5765
H26 H -0.0179 0.4559 0.5335
O13 O -0.4183(13) 0.4855(11) 1.0646(10)
H27 H -0.4145 0.4605 1.0037
H28 H -0.3417 0.5085 1.0891
O14 O -0.1603(15) 0.5238(14) 1.0866(12)
H29 H -0.1540 0.5828 1.0699
H30 H -0.1544 0.4631 1.0321
O15 O 0.045(2) 0.5452(19) 0.7856(17)
H31 H 0.0602 0.5297 0.7244
H32 H 0.1061 0.5234 0.8162
loop_
_geom_bond_atom_site_label_1
_geom_bond_atom_site_label_2
_geom_bond_site_symmetry_1
_geom_bond_site_symmetry_2
Cd1 N1 1_555 1_555
S1 C7 1_555 1_555
O1 C1 1_555 1_555
N1 C17 1_555 1_555
C1 O2 1_555 1_555
Cd2 N3 1_555 1_555
O2 Cd1 1_555 1_555
N2 Cd1 1_555 1_555
C2 C1 1_555 1_555
O3 Cd1 1_555 1_555
N3 C29 1_555 1_555
C3 O3 1_555 1_555
O4 Cd2 1_555 1_555
N4 Cd2 1_555 1_555
C4 C2 1_555 1_555
O5 C9 1_555 1_555
C5 C4 1_555 1_555
H1 C5 1_555 1_555
O6 C9 1_555 1_555
C6 C5 1_555 1_555
H2 C6 1_555 1_555
O7 C11 1_555 1_555
C7 C6 1_555 1_555
O8 C11 1_555 1_555
C8 C2 1_555 1_555
H3 C8 1_555 1_555
O9 S1 1_555 1_555
C9 C10 1_555 1_555
O10 S1 1_555 1_555
C10 C12 1_555 1_555
C11 C12 1_555 1_555
C12 C13 1_555 1_555
C13 H4 1_555 1_555
C14 C13 1_555 1_555
H5 C14 1_555 1_555
C15 S1 1_555 1_555
C16 C10 1_555 1_555
H6 C16 1_555 1_555
C17 H7 1_555 1_555
C18 C17 1_555 1_555
H8 C18 1_555 1_555
C19 C18 1_555 1_555
H9 C19 1_555 1_555
C20 C19 1_555 1_555
C21 C20 1_555 1_555
H10 C21 1_555 1_555
C22 C21 1_555 1_555
H11 C22 1_555 1_555
C23 C22 1_555 1_555
C24 C23 1_555 1_555
H12 C24 1_555 1_555
C25 C24 1_555 1_555
H13 C25 1_555 1_555
C26 N2 1_555 1_555
H14 C26 1_555 1_555
C27 N2 1_555 1_555
C28 N1 1_555 1_555
C29 H15 1_555 1_555
C30 C29 1_555 1_555
H16 C30 1_555 1_555
C31 C30 1_555 1_555
H17 C31 1_555 1_555
C32 C31 1_555 1_555
C33 C32 1_555 1_555
H18 C33 1_555 1_555
C34 C33 1_555 1_555
H19 C34 1_555 1_555
C35 C34 1_555 1_555
C36 C35 1_555 1_555
H20 C36 1_555 1_555
C37 C36 1_555 1_555
H21 C37 1_555 1_555
C38 N4 1_555 1_555
H22 C38 1_555 1_555
C39 N4 1_555 1_555
C40 N3 1_555 1_555
O11 H23 1_555 1_555
H24 O11 1_555 1_555
O12 H25 1_555 1_555
H26 O12 1_555 1_555
O13 H27 1_555 1_555
H28 O13 1_555 1_555
O14 H29 1_555 1_555
H30 O14 1_555 1_555
O15 H31 1_555 1_555
H32 O15 1_555 1_555
Cd1_2 O7 1_555 1_555
Cd1A O2 1_555 1_555
Cd2_2 O5 1_555 1_555
Cd2A O6 1_555 1_555
O2A Cd1 1_555 1_555
O5_2 Cd2 1_555 1_555
O6A Cd2 1_555 1_555
O7_2 Cd1 1_555 1_555
O8_2 Cd1 1_555 1_555
Cd2 O7_2 1_555 1_555
C3 O4 1_555 1_555
C3 C4 1_555 1_555
O7 Cd2_2 1_555 1_555
C7 C8 1_555 1_555
O8 Cd1_2 1_555 1_555
C14 C15 1_555 1_555
C15 C16 1_555 1_555
C20 C28 1_555 1_555
C23 C27 1_555 1_555
C25 C26 1_555 1_555
C27 C28 1_555 1_555
C32 C40 1_555 1_555
C35 C39 1_555 1_555
C37 C38 1_555 1_555
C39 C40 1_555 1_555
Cd1A O2A 1_555 1_555

#END
