
#######################################################################
#
#                 Cambridge Crystallographic Data Centre
#                                CCDC 
#
#######################################################################
#
# If this CIF has been generated from an entry in the Cambridge 
# Structural Database, then it will include bibliographic, chemical, 
# crystal, experimental, refinement or atomic coordinate data resulting 
# from the CCDC's data processing and validation procedures.
#
#######################################################################

data_XEWCIN
_symmetry_cell_setting           monoclinic
_symmetry_space_group_name_H-M   'P 21/n'
_symmetry_Int_Tables_number      14
_space_group_name_Hall           '-P 2yn'
loop_
_symmetry_equiv_pos_site_id
_symmetry_equiv_pos_as_xyz
1 x,y,z
2 1/2-x,1/2+y,1/2-z
3 -x,-y,-z
4 1/2+x,1/2-y,1/2+z
_cell_length_a                   11.8489(7)
_cell_length_b                   16.7123(6)
_cell_length_c                   18.8636(11)
_cell_angle_alpha                90
_cell_angle_beta                 105.170(4)
_cell_angle_gamma                90
_cell_volume                     3605.25
loop_
_atom_site_label
_atom_site_type_symbol
_atom_site_fract_x
_atom_site_fract_y
_atom_site_fract_z
Cd1 Cd 0.02556(2) 0.443487(14) 0.109917(13)
S1 S 0.33631(8) 0.08829(5) -0.01892(4)
O1 O 0.3858(2) 0.37211(16) 0.10782(14)
N1 N 0.5690(3) 0.5313(2) 0.19241(16)
C1 C 0.2542(3) 0.17788(18) -0.02626(16)
Cd2 Cd 0.37674(2) 0.486582(15) 0.173657(14)
O2 O 0.2232(2) 0.44051(14) 0.06823(13)
N2 N 0.3692(2) 0.61754(18) 0.13936(16)
C2 C 0.2971(3) 0.24059(19) 0.02062(16)
H1 H 0.3675 0.2350 0.0563
O3 O 0.0680(3) 0.44026(15) -0.10049(14)
N3 N 0.0491(3) 0.30765(17) 0.14396(15)
C3 C 0.2352(3) 0.31229(18) 0.01473(16)
O4 O -0.0166(2) 0.40614(17) -0.01332(14)
N4 N -0.1612(3) 0.3838(2) 0.09258(16)
C4 C 0.1284(3) 0.31993(19) -0.03853(16)
O5 O 0.4621(2) -0.03779(18) 0.25662(13)
C5 C 0.0866(3) 0.2560(2) -0.08488(17)
H2 H 0.0154 0.2608 -0.1200
O6 O 0.3032(2) -0.02224(17) 0.29344(12)
C6 C 0.1489(3) 0.1850(2) -0.07989(17)
H3 H 0.1207 0.1429 -0.1119
O7 O 0.1370(2) -0.17169(16) 0.19478(14)
C7 C 0.0559(3) 0.3952(2) -0.04971(17)
O8 O 0.0509(2) -0.05777(16) 0.21219(14)
C8 C 0.2845(3) 0.37974(19) 0.06642(17)
O9 O 0.4564(2) 0.10700(15) 0.01586(14)
C9 C 0.2798(3) 0.02961(19) 0.04234(17)
O10 O 0.3052(2) 0.04992(14) -0.08951(13)
C10 C 0.3389(3) 0.02433(19) 0.11586(17)
H4 H 0.4116 0.0485 0.1332
C11 C 0.2885(3) -0.01772(19) 0.16398(17)
C12 C 0.1740(3) -0.0084(2) 0.01480(19)
H5 H 0.1360 -0.0051 -0.0349
C13 C 0.1251(3) -0.0515(2) 0.06206(18)
H6 H 0.0546 -0.0782 0.0437
C14 C 0.1805(3) -0.05515(19) 0.13694(17)
C15 C 0.1199(3) -0.0997(2) 0.18598(17)
C16 C 0.3560(3) -0.0259(2) 0.24281(18)
C17 C 0.6668(4) 0.4893(3) 0.2200(2)
H7 H 0.6606 0.4349 0.2285
C18 C 0.7750(4) 0.5232(4) 0.2363(2)
H8 H 0.8410 0.4916 0.2540
C19 C 0.7867(4) 0.6026(4) 0.2269(2)
H9 H 0.8608 0.6256 0.2376
C20 C 0.6872(4) 0.6504(3) 0.2010(2)
C21 C 0.6889(5) 0.7357(3) 0.1931(2)
H10 H 0.7601 0.7625 0.2073
C22 C 0.5914(5) 0.7779(3) 0.1661(3)
H11 H 0.5961 0.8331 0.1608
C23 C 0.4798(4) 0.7391(2) 0.1451(2)
C24 C 0.3746(5) 0.7804(3) 0.1151(2)
H12 H 0.3754 0.8354 0.1076
C25 C 0.2713(5) 0.7394(3) 0.0971(2)
H13 H 0.2015 0.7658 0.0761
C26 C 0.2721(4) 0.6581(3) 0.1105(2)
H14 H 0.2013 0.6307 0.0987
C27 C 0.5786(3) 0.6111(2) 0.18316(18)
C28 C 0.4729(3) 0.6562(2) 0.15560(17)
C29 C 0.1499(4) 0.2706(2) 0.1707(2)
H15 H 0.2181 0.3009 0.1812
C30 C 0.1591(5) 0.1885(3) 0.1839(2)
H16 H 0.2319 0.1649 0.2026
C31 C 0.0605(6) 0.1436(3) 0.1691(2)
H17 H 0.0651 0.0886 0.1770
C32 C -0.0480(5) 0.1805(2) 0.1420(2)
C33 C -0.1564(6) 0.1377(3) 0.1269(3)
H18 H -0.1550 0.0829 0.1356
C34 C -0.2589(6) 0.1738(4) 0.1009(3)
H19 H -0.3272 0.1437 0.0909
C35 C -0.2657(4) 0.2586(3) 0.0878(2)
C36 C -0.3704(5) 0.2998(5) 0.0608(3)
H20 H -0.4410 0.2722 0.0503
C37 C -0.3698(4) 0.3795(5) 0.0500(3)
H21 H -0.4400 0.4065 0.0317
C38 C -0.2637(4) 0.4222(3) 0.0661(2)
H22 H -0.2642 0.4771 0.0585
C39 C -0.1614(3) 0.3045(3) 0.10261(18)
C40 C -0.0506(4) 0.2635(2) 0.12995(18)
Cd1A Cd 0.47444(2) -0.056513(14) 0.390083(13)
Cd1B Cd -0.02556(2) 0.556513(14) -0.109917(13)
Cd2A Cd 0.12326(2) -0.013418(15) 0.326343(14)
O3B O -0.0680(3) 0.55974(15) 0.10049(14)
O5A O 0.0379(2) 0.46221(18) 0.24338(13)
O6A O 0.1968(2) 0.47776(17) 0.20656(12)
O8A O 0.4491(2) 0.44223(16) 0.28781(14)
O11 O 0.0028(5) -0.2479(3) 0.2828(2)
H23 H 0.0543 -0.2304 0.2534
H24 H 0.0201 -0.2170 0.3237
loop_
_geom_bond_atom_site_label_1
_geom_bond_atom_site_label_2
_geom_bond_site_symmetry_1
_geom_bond_site_symmetry_2
Cd1 O2 1_555 1_555
S1 C1 1_555 1_555
O1 Cd2 1_555 1_555
N1 Cd2 1_555 1_555
C1 C2 1_555 1_555
Cd2 O2 1_555 1_555
O2 C8 1_555 1_555
N2 Cd2 1_555 1_555
C2 H1 1_555 1_555
O3 C7 1_555 1_555
N3 Cd1 1_555 1_555
C3 C2 1_555 1_555
O4 Cd1 1_555 1_555
N4 Cd1 1_555 1_555
C4 C3 1_555 1_555
O5 C16 1_555 1_555
C5 C4 1_555 1_555
H2 C5 1_555 1_555
O6 C16 1_555 1_555
C6 C1 1_555 1_555
H3 C6 1_555 1_555
O7 C15 1_555 1_555
C7 O4 1_555 1_555
O8 C15 1_555 1_555
C8 O1 1_555 1_555
O9 S1 1_555 1_555
C9 S1 1_555 1_555
O10 S1 1_555 1_555
C10 C9 1_555 1_555
H4 C10 1_555 1_555
C11 C10 1_555 1_555
C12 C9 1_555 1_555
H5 C12 1_555 1_555
C13 C12 1_555 1_555
H6 C13 1_555 1_555
C14 C11 1_555 1_555
C15 C14 1_555 1_555
C16 C11 1_555 1_555
C17 N1 1_555 1_555
H7 C17 1_555 1_555
C18 C17 1_555 1_555
H8 C18 1_555 1_555
C19 C18 1_555 1_555
H9 C19 1_555 1_555
C20 C19 1_555 1_555
C21 C20 1_555 1_555
H10 C21 1_555 1_555
C22 C21 1_555 1_555
H11 C22 1_555 1_555
C23 C22 1_555 1_555
C24 C23 1_555 1_555
H12 C24 1_555 1_555
C25 C24 1_555 1_555
H13 C25 1_555 1_555
C26 N2 1_555 1_555
H14 C26 1_555 1_555
C27 N1 1_555 1_555
C28 N2 1_555 1_555
C29 N3 1_555 1_555
H15 C29 1_555 1_555
C30 C29 1_555 1_555
H16 C30 1_555 1_555
C31 C30 1_555 1_555
H17 C31 1_555 1_555
C32 C31 1_555 1_555
C33 C32 1_555 1_555
H18 C33 1_555 1_555
C34 C33 1_555 1_555
H19 C34 1_555 1_555
C35 C34 1_555 1_555
C36 C35 1_555 1_555
H20 C36 1_555 1_555
C37 C36 1_555 1_555
H21 C37 1_555 1_555
C38 N4 1_555 1_555
H22 C38 1_555 1_555
C39 N4 1_555 1_555
C40 N3 1_555 1_555
O11 H23 1_555 1_555
H24 O11 1_555 1_555
Cd1A O5 1_555 1_555
Cd1B O3 1_555 1_555
Cd2A O6 1_555 1_555
O3B Cd1 1_555 1_555
O5A Cd1 1_555 1_555
O6A Cd1 1_555 1_555
O8A Cd2 1_555 1_555
Cd2 O6A 1_555 1_555
C3 C8 1_555 1_555
C4 C7 1_555 1_555
C5 C6 1_555 1_555
O6 Cd1A 1_555 1_555
O8 Cd2A 1_555 1_555
C13 C14 1_555 1_555
C20 C27 1_555 1_555
C23 C28 1_555 1_555
C25 C26 1_555 1_555
C27 C28 1_555 1_555
C32 C40 1_555 1_555
C35 C39 1_555 1_555
C37 C38 1_555 1_555
C39 C40 1_555 1_555

#END
