
#######################################################################
#
#                 Cambridge Crystallographic Data Centre
#                                CCDC 
#
#######################################################################
#
# If this CIF has been generated from an entry in the Cambridge 
# Structural Database, then it will include bibliographic, chemical, 
# crystal, experimental, refinement or atomic coordinate data resulting 
# from the CCDC's data processing and validation procedures.
#
#######################################################################

data_XEWCUZ
_symmetry_cell_setting           triclinic
_symmetry_space_group_name_H-M   'P -1'
_symmetry_Int_Tables_number      2
_space_group_name_Hall           '-P 1'
loop_
_symmetry_equiv_pos_site_id
_symmetry_equiv_pos_as_xyz
1 x,y,z
2 -x,-y,-z
_cell_length_a                   7.4706(18)
_cell_length_b                   10.994(2)
_cell_length_c                   16.357(4)
_cell_angle_alpha                71.743(7)
_cell_angle_beta                 86.791(7)
_cell_angle_gamma                76.869(7)
_cell_volume                     1242.28
loop_
_atom_site_label
_atom_site_type_symbol
_atom_site_fract_x
_atom_site_fract_y
_atom_site_fract_z
Cd1 Cd 0.331275(17) 0.110946(12) 0.556619(8)
S1 S 0.70544(6) -0.41840(4) 0.89931(3)
O1 O 0.83892(19) -0.53141(13) 0.94741(9)
O2 O 0.55635(19) -0.43586(14) 0.85543(9)
O3 O 0.60202(19) 0.07929(13) 0.65335(9)
O4 O 1.28052(18) -0.07360(14) 0.65364(10)
O5 O 1.02155(19) 0.05002(13) 0.58818(9)
O6 O 0.0459(2) -0.14853(17) 1.07482(11)
O7 O 0.2847(2) 0.00739(15) 1.11096(10)
O8 O 0.64920(18) -0.03253(14) 0.56222(8)
O9 O 0.4432(3) -0.16187(16) 1.21373(9)
O10 O 0.0711(2) -0.13136(18) 0.93541(11)
N1 N 0.3590(2) 0.31233(15) 0.46772(10)
N2 N 0.1944(2) 0.26851(16) 0.62512(10)
C1 C 0.3432(2) -0.20122(18) 1.01658(11)
C2 C 0.6874(2) -0.01690(17) 0.63127(11)
C3 C 1.1023(2) -0.24745(19) 0.76980(12)
H1 H 1.2294 -0.2603 0.7733
C4 C 0.7244(2) -0.21090(17) 0.75748(11)
H2 H 0.5975 -0.1996 0.7540
C5 C 0.7202(3) -0.3104(2) 1.02777(12)
H3 H 0.8458 -0.3468 1.0312
C6 C 1.0050(2) -0.14312(17) 0.70344(11)
C7 C 0.8250(2) -0.31318(17) 0.82318(11)
C8 C 1.1072(2) -0.04872(18) 0.64324(12)
C9 C 0.3792(3) -0.1017(2) 1.13470(12)
C10 C 0.8139(2) -0.12570(16) 0.69711(10)
C11 C 0.6093(2) -0.32660(18) 0.96866(11)
C12 C 1.0140(2) -0.33187(18) 0.83036(12)
H4 H 1.0799 -0.3998 0.8750
C13 C 0.1986(2) 0.39337(18) 0.57844(12)
C14 C 0.4431(3) 0.3328(2) 0.39255(13)
H5 H 0.4937 0.2611 0.3736
C15 C 0.2872(2) 0.41631(18) 0.49607(12)
C16 C 0.1374(3) -0.1565(2) 1.01366(14)
C17 C 0.4228(2) -0.27184(18) 0.96193(12)
H6 H 0.3511 -0.2823 0.9210
C18 C 0.6403(3) -0.2388(2) 1.08157(13)
H7 H 0.7132 -0.2271 1.1215
C19 C 0.4519(3) -0.18391(19) 1.07686(12)
C20 C 0.1193(3) 0.5015(2) 0.60758(14)
C21 C 0.2961(3) 0.54576(19) 0.44713(14)
C22 C 0.4586(3) 0.4578(2) 0.34068(14)
H8 H 0.5177 0.4689 0.2881
C23 C 0.3865(3) 0.5625(2) 0.36812(15)
H9 H 0.3968 0.6461 0.3344
C24 C 0.1123(3) 0.2476(2) 0.70059(14)
H10 H 0.1093 0.1617 0.7327
C25 C 0.2145(3) 0.6523(2) 0.47915(18)
H11 H 0.2208 0.7374 0.4469
C26 C 0.1290(3) 0.6312(2) 0.55486(19)
H12 H 0.0748 0.7025 0.5737
C27 C 0.0333(3) 0.4743(3) 0.68773(16)
H13 H -0.0217 0.5426 0.7092
C28 C 0.0301(3) 0.3489(3) 0.73399(15)
H14 H -0.0261 0.3305 0.7873
H15 H 0.4082 -0.1153 1.2501
H16 H -0.0531 -0.1082 0.9355
Cd1_2 Cd 1.331275(17) 0.110946(12) 0.556619(8)
Cd1A Cd 0.668725(17) -0.110946(12) 0.443381(8)
O4_2 O 0.28052(18) -0.07360(14) 0.65364(10)
O5_2 O 0.02155(19) 0.05002(13) 0.58818(9)
O8A O 0.35080(18) 0.03253(14) 0.43778(8)
loop_
_geom_bond_atom_site_label_1
_geom_bond_atom_site_label_2
_geom_bond_site_symmetry_1
_geom_bond_site_symmetry_2
Cd1 O3 1_555 1_555
S1 O1 1_555 1_555
O2 S1 1_555 1_555
O3 C2 1_555 1_555
O4 C8 1_555 1_555
O5 C8 1_555 1_555
O6 C16 1_555 1_555
O7 C9 1_555 1_555
O8 Cd1 1_555 1_555
O9 C9 1_555 1_555
O10 C16 1_555 1_555
N1 Cd1 1_555 1_555
N2 Cd1 1_555 1_555
C1 C16 1_555 1_555
C2 O8 1_555 1_555
C3 H1 1_555 1_555
C4 H2 1_555 1_555
C5 H3 1_555 1_555
C6 C3 1_555 1_555
C7 S1 1_555 1_555
C8 C6 1_555 1_555
C9 C19 1_555 1_555
C10 C2 1_555 1_555
C11 S1 1_555 1_555
C12 C3 1_555 1_555
H4 C12 1_555 1_555
C13 N2 1_555 1_555
C14 N1 1_555 1_555
H5 C14 1_555 1_555
C15 N1 1_555 1_555
C17 C1 1_555 1_555
H6 C17 1_555 1_555
C18 C5 1_555 1_555
H7 C18 1_555 1_555
C19 C1 1_555 1_555
C20 C13 1_555 1_555
C21 C15 1_555 1_555
C22 C14 1_555 1_555
H8 C22 1_555 1_555
C23 C21 1_555 1_555
H9 C23 1_555 1_555
C24 N2 1_555 1_555
H10 C24 1_555 1_555
C25 C21 1_555 1_555
H11 C25 1_555 1_555
C26 C20 1_555 1_555
H12 C26 1_555 1_555
C27 C20 1_555 1_555
H13 C27 1_555 1_555
C28 C24 1_555 1_555
H14 C28 1_555 1_555
H15 O9 1_555 1_555
H16 O10 1_555 1_555
Cd1_2 O4 1_555 1_555
Cd1A O8 1_555 1_555
O4_2 Cd1 1_555 1_555
O5_2 Cd1 1_555 1_555
O8A Cd1 1_555 1_555
O5 Cd1_2 1_555 1_555
C4 C7 1_555 1_555
C4 C10 1_555 1_555
C5 C11 1_555 1_555
C6 C10 1_555 1_555
C7 C12 1_555 1_555
C11 C17 1_555 1_555
C13 C15 1_555 1_555
C18 C19 1_555 1_555
C22 C23 1_555 1_555
C25 C26 1_555 1_555
C27 C28 1_555 1_555
Cd1A O8A 1_555 1_555

#END
