
#######################################################################
#
#                 Cambridge Crystallographic Data Centre
#                                CCDC 
#
#######################################################################
#
# If this CIF has been generated from an entry in the Cambridge 
# Structural Database, then it will include bibliographic, chemical, 
# crystal, experimental, refinement or atomic coordinate data resulting 
# from the CCDC's data processing and validation procedures.
#
#######################################################################

data_XEWDAG
_symmetry_cell_setting           monoclinic
_symmetry_space_group_name_H-M   'P 21'
_symmetry_Int_Tables_number      4
_space_group_name_Hall           'P 2yb'
loop_
_symmetry_equiv_pos_site_id
_symmetry_equiv_pos_as_xyz
1 x,y,z
2 -x,1/2+y,-z
_cell_length_a                   12.2428(8)
_cell_length_b                   67.775(5)
_cell_length_c                   12.2969(8)
_cell_angle_alpha                90
_cell_angle_beta                 107.103(1)
_cell_angle_gamma                90
_cell_volume                     9752.2
loop_
_atom_site_label
_atom_site_type_symbol
_atom_site_fract_x
_atom_site_fract_y
_atom_site_fract_z
Cd1 Cd 0.43467(6) 0.541151(10) 0.03517(6)
Cd2 Cd 0.41752(6) 0.705819(11) -0.37407(6)
Cd3 Cd 0.30702(6) 0.374532(10) 0.28799(6)
O1 O 0.1726(6) 0.37688(12) 0.3881(6)
O2 O 0.3428(6) 0.38594(10) 0.4898(6)
O3 O 0.5751(6) 0.53532(11) -0.0636(6)
O4 O 0.4123(6) 0.37198(12) 0.1511(6)
O5 O 0.4998(6) 0.38533(10) 0.3138(6)
O6 O 0.2407(6) 0.55359(10) 0.0027(6)
O7 O 0.2745(7) 0.70947(12) -0.2726(7)
O8 O 0.4487(6) 0.71921(11) -0.1824(6)
O9 O 0.3462(6) 0.54803(11) 0.1770(6)
O10 O 0.4014(6) 0.54262(11) -0.1688(6)
O11 O 0.5866(7) 0.53307(12) 0.1867(6)
O12 O 0.6135(6) 0.71358(10) -0.3539(6)
O13 O 0.5180(6) 0.70386(10) -0.5235(6)
O14 O 0.2683(6) 0.69280(11) -0.5142(6)
O15 O 0.1625(6) 0.35822(11) 0.1518(6)
O16 O -0.2161(6) 0.54729(12) 0.0202(7)
H1 H -0.2850 0.5435 -0.0067
O17 O -0.1873(7) 0.53016(17) 0.1784(7)
O18 O 0.1638(8) 0.36782(15) 0.9273(7)
O19 O 0.3198(9) 0.38468(19) 0.9457(8)
H2 H 0.346(13) 0.379(2) 1.008(7)
O20 O 1.0758(8) 0.7212(2) -0.3844(10)
H3 H 1.142(6) 0.718(2) -0.390(14)
O21 O 1.0487(8) 0.69905(19) -0.5135(9)
O22 O 0.2624(6) 0.70448(13) 0.2612(6)
O23 O 0.4398(7) 0.71100(15) 0.2607(7)
H4 H 0.4660 0.7092 0.3322
O24 O 0.5669(9) 0.53716(18) -0.6052(8)
H5 H 0.5727 0.5359 -0.6722
O25 O 0.4385(9) 0.56086(19) -0.6179(8)
O26 O 0.9650(7) 0.38873(14) 0.2991(8)
O27 O 0.9422(7) 0.36889(15) 0.1532(9)
H6 H 1.0092 0.3657 0.1530
N1 N 0.2504(8) 0.40605(12) 0.2023(7)
N2 N 0.1731(7) 0.45740(12) 0.0054(8)
H7 H 0.1091 0.4565 -0.0506
N3 N 0.3450(7) 0.51110(11) 0.0233(7)
N4 N 0.5955(7) 0.62909(12) -0.0560(8)
H8 H 0.6678 0.6310 -0.0184
N5 N 0.4737(7) 0.67685(11) -0.2752(7)
N6 N 0.4840(7) 0.57431(12) 0.0275(7)
N7 N 0.3917(8) 0.73862(12) -0.4327(8)
N8 N 0.4555(9) 0.79482(13) -0.5448(8)
H9 H 0.4297 0.7966 -0.6188
N9 N 0.6217(10) 0.84379(14) -0.3635(9)
C1 C 0.2025(9) 0.44087(13) 0.0766(9)
C2 C 0.3074(10) 0.43796(15) 0.1539(9)
H10 H 0.3650 0.4478 0.1656
C3 C 0.1251(9) 0.42564(16) 0.0655(9)
H11 H 0.0513 0.4270 0.0126
C4 C 0.1494(9) 0.40923(15) 0.1252(10)
H12 H 0.0926 0.3992 0.1130
C5 C 0.3285(9) 0.42053(14) 0.2147(9)
H13 H 0.4017 0.4187 0.2680
C6 C 0.2327(10) 0.47475(17) 0.0130(8)
C7 C 0.2195(9) 0.48652(15) -0.0852(9)
H14 H 0.1701 0.4822 -0.1562
C8 C 0.2983(9) 0.48300(14) 0.1157(9)
H15 H 0.3054 0.4764 0.1856
C9 C 0.3521(9) 0.50059(14) 0.1144(9)
H16 H 0.3983 0.5056 0.1852
C10 C 0.2764(9) 0.50394(17) -0.0798(10)
H17 H 0.2690 0.5113 -0.1475
C11 C 0.6249(8) 0.65973(15) -0.1382(9)
H18 H 0.7035 0.6594 -0.0958
C12 C 0.5499(9) 0.64396(16) -0.1258(9)
C13 C 0.5837(9) 0.67501(15) -0.2102(9)
H19 H 0.6357 0.6851 -0.2152
C14 C 0.4365(9) 0.64587(16) -0.1965(10)
H20 H 0.3829 0.6357 -0.1975
C15 C 0.4021(9) 0.66234(18) -0.2645(11)
H21 H 0.3236 0.6635 -0.3061
C16 C 0.5535(9) 0.61138(16) -0.0303(9)
C17 C 0.4401(9) 0.60547(17) -0.0642(11)
H22 H 0.3823 0.6142 -0.1067
C18 C 0.6295(9) 0.59811(15) 0.0367(9)
H23 H 0.7083 0.6014 0.0647
C19 C 0.5921(8) 0.58029(15) 0.0629(8)
H24 H 0.6469 0.5716 0.1095
C20 C 0.4118(10) 0.58699(17) -0.0361(12)
H25 H 0.3341 0.5831 -0.0647
C21 C 0.0385(9) 0.5441(2) 0.2711(9)
H26 H 0.0286 0.5521 0.3348
H27 H 0.0196 0.5302 0.2826
C22 C -0.0395(9) 0.55189(17) 0.1563(10)
H28 H -0.0537 0.5662 0.1665
C23 C 0.1600(9) 0.54566(17) 0.2655(10)
H29 H 0.1931 0.5324 0.2638
H30 H 0.2082 0.5529 0.3325
C24 C 0.0334(9) 0.55045(15) 0.0748(9)
C25 C 0.0392(10) 0.52844(17) 0.0360(10)
H31 H 0.0659 0.5200 0.1032
H32 H 0.0923 0.5275 -0.0098
H33 H -0.0370 0.5242 -0.0095
C26 C 0.3779(8) 0.76250(13) -0.5840(8)
H34 H 0.3538 0.7653 -0.6632
C27 C 0.3578(8) 0.74418(14) -0.5427(9)
H35 H 0.3167 0.7348 -0.5966
C28 C 0.4356(9) 0.77678(15) -0.5039(9)
C29 C 0.5143(12) 0.81095(18) -0.4780(12)
C30 C 0.4682(10) 0.77143(15) -0.3884(9)
H36 H 0.5068 0.7806 -0.3318
C31 C 0.4444(10) 0.75314(16) -0.3585(10)
H37 H 0.4660 0.7501 -0.2796
C32 C 0.2414(10) 0.38354(16) 0.4824(10)
C33 C 0.1910(10) 0.38894(16) 0.5755(9)
H38 H 0.1735 0.4034 0.5670
C34 C 0.2670(11) 0.38582(16) 0.7003(10)
C35 C 0.4958(9) 0.38152(16) 0.2123(10)
C36 C 0.3473(9) 0.71747(14) -0.1873(9)
C37 C 0.2508(8) 0.55236(14) 0.1065(9)
C38 C 0.5060(10) 0.54175(16) -0.1561(9)
C39 C 0.1537(8) 0.55702(14) 0.1550(8)
C40 C 0.6061(8) 0.71128(14) -0.4551(8)
C41 C 0.6997(9) 0.71908(16) -0.5066(10)
C42 C 0.8237(9) 0.71564(16) -0.4246(10)
C43 C 0.8598(11) 0.7283(3) -0.3169(13)
H39 H 0.8516 0.7423 -0.3380
H40 H 0.9398 0.7256 -0.2753
H41 H 0.8113 0.7253 -0.2684
C44 C 0.3193(11) 0.36542(18) 0.7117(11)
H42 H 0.3750 0.3648 0.6686
H43 H 0.2591 0.3556 0.6817
H44 H 0.3577 0.3626 0.7921
C45 C 0.1791(11) 0.38739(18) 0.7691(9)
C46 C 0.2185(11) 0.3787(2) 0.8865(11)
C47 C -0.0124(9) 0.56305(17) -0.0316(10)
H45 H 0.0363 0.5613 -0.0815
H46 H -0.0124 0.5770 -0.0097
H47 H -0.0906 0.5589 -0.0719
C48 C -0.1552(10) 0.54158(19) 0.1201(11)
C49 C 0.5872(12) 0.3879(2) 0.1620(11)
C50 C 0.8372(10) 0.69394(18) -0.3881(11)
H48 H 0.8134 0.6855 -0.4556
H49 H 0.7894 0.6912 -0.3384
H50 H 0.9174 0.6913 -0.3469
C51 C 0.0789(13) 0.3754(3) 0.6957(11)
H51 H 0.0064 0.3799 0.7073
H52 H 0.0892 0.3612 0.7165
C52 C 0.0761(11) 0.3783(3) 0.5686(10)
H53 H 0.0712 0.3655 0.5291
H54 H 0.0101 0.3866 0.5276
C53 C 0.3598(13) 0.40169(19) 0.7318(11)
H55 H 0.4127 0.3999 0.6863
H56 H 0.4018 0.4006 0.8128
H57 H 0.3243 0.4148 0.7164
C54 C 0.7001(9) 0.7090(2) -0.6148(9)
H58 H 0.6445 0.7152 -0.6810
H59 H 0.6806 0.6949 -0.6127
C55 C 0.8929(8) 0.71949(18) -0.5088(9)
H60 H 0.8954 0.7341 -0.5178
C56 C 1.0141(10) 0.71264(19) -0.4702(10)
C57 C 0.5602(9) 0.54852(18) -0.2473(9)
H61 H 0.5900 0.5621 -0.2230
C58 C 0.4789(8) 0.55127(17) -0.3709(8)
C59 C 0.5727(11) 0.5548(2) -0.4344(10)
C60 C 0.3055(11) 0.72521(18) -0.0921(10)
C61 C 0.2952(11) 0.71018(18) -0.0028(10)
C62 C 0.2910(9) 0.72223(17) 0.1027(9)
H62 H 0.2090 0.7259 0.0898
C63 C 0.3274(11) 0.71081(16) 0.2157(9)
C64 C 0.3532(13) 0.74120(17) 0.1001(10)
H63 H 0.4170 0.7429 0.1709
H64 H 0.3007 0.7526 0.0916
C65 C 0.6518(12) 0.82743(17) -0.3408(12)
H65 H 0.7175 0.8256 -0.2773
C66 C 0.5996(12) 0.80976(19) -0.3993(12)
H66 H 0.6328 0.7972 -0.3755
C67 C 0.4590(12) 0.82938(17) -0.5083(12)
H67 H 0.3874 0.8303 -0.5653
C68 C 0.5115(12) 0.84542(17) -0.4533(11)
H68 H 0.4773 0.8580 -0.4725
C69 C 0.4010(19) 0.7393(3) -0.0095(14)
H69 H 0.4044 0.7523 -0.0449
H70 H 0.4776 0.7331 0.0111
C70 C 0.3868(18) 0.6942(3) 0.0205(14)
H71 H 0.3845 0.6875 -0.0509
H72 H 0.3725 0.6846 0.0741
H73 H 0.4621 0.7002 0.0531
C71 C 0.1744(18) 0.6989(3) -0.0546(14)
H74 H 0.1121 0.7086 -0.0721
H75 H 0.1633 0.6894 0.0013
H76 H 0.1748 0.6919 -0.1243
C72 C 0.2099(18) 0.7381(3) -0.1378(14)
H77 H 0.2277 0.7473 -0.1917
H78 H 0.1941 0.7455 -0.0757
H79 H 0.1426 0.7303 -0.1770
C73 C 0.8237(10) 0.7115(3) -0.6214(11)
H80 H 0.8548 0.6987 -0.6367
H81 H 0.8252 0.7208 -0.6832
C74 C 0.6736(11) 0.74166(19) -0.5232(15)
H82 H 0.6762 0.7476 -0.4499
H83 H 0.5974 0.7436 -0.5769
H84 H 0.7309 0.7480 -0.5531
C75 C 0.1631(10) 0.57985(17) 0.1777(12)
H85 H 0.1022 0.5841 0.2095
H86 H 0.1552 0.5868 0.1060
H87 H 0.2376 0.5829 0.2317
C76 C 0.6636(10) 0.5370(2) -0.2556(10)
H88 H 0.6545 0.5228 -0.2425
H89 H 0.7340 0.5418 -0.1990
C77 C 0.5275(12) 0.5507(2) -0.5609(10)
C78 C 0.6154(13) 0.5762(2) -0.4240(11)
H90 H 0.6421 0.5800 -0.3436
H91 H 0.5528 0.5850 -0.4643
H92 H 0.6785 0.5774 -0.4576
C79 C 0.6684(10) 0.5406(3) -0.3759(9)
H93 H 0.6590 0.5280 -0.4183
H94 H 0.7434 0.5464 -0.3739
C80 C 0.3953(10) 0.5673(2) -0.3871(10)
H95 H 0.4351 0.5798 -0.3623
H96 H 0.3429 0.5646 -0.3420
H97 H 0.3518 0.5682 -0.4678
C81 C 0.4218(11) 0.5317(2) -0.4090(11)
H98 H 0.4801 0.5214 -0.3989
H99 H 0.3775 0.5325 -0.4895
H100 H 0.3706 0.5285 -0.3634
C82 C 0.1385(16) 0.4082(2) 0.7842(14)
H101 H 0.1081 0.4144 0.7095
H102 H 0.2028 0.4159 0.8308
H103 H 0.0785 0.4075 0.8221
C83 C 0.5831(16) 0.4096(4) 0.151(2)
H104 H 0.6434 0.4140 0.1185
H105 H 0.5949 0.4156 0.2257
H106 H 0.5084 0.4135 0.1002
C84 C 0.7056(18) 0.3812(4) 0.222(2)
C85 C 0.7884(17) 0.3896(4) 0.164(2)
H107 H 0.7878 0.4044 0.1597
C86 C 0.7325(11) 0.3669(2) 0.3109(13)
H108 H 0.8157 0.3655 0.3404
H109 H 0.6984 0.3542 0.2812
H110 H 0.7020 0.3713 0.3722
C87 C 0.9032(10) 0.3809(2) 0.2056(10)
C88 C 0.7387(16) 0.4009(3) 0.308(2)
H111 H 0.7214 0.4130 0.2620
H112 H 0.8203 0.4006 0.3495
H113 H 0.6937 0.4007 0.3617
C89 C 0.6127(16) 0.3714(4) 0.062(2)
H114 H 0.6202 0.3577 0.0916
H115 H 0.5510 0.3720 -0.0106
C90 C 0.7255(16) 0.3790(4) 0.049(2)
H116 H 0.7114 0.3883 -0.0152
H117 H 0.7722 0.3679 0.0352
Cd3A Cd 0.69298(6) 0.874532(10) -0.28799(6)
N9A N 0.3783(10) 0.34379(14) 0.3635(9)
Cd4 Cd 0.76323(6) 0.475954(10) 0.54175(6)
Cd5 Cd 0.89218(6) 0.640975(10) 0.26556(6)
Cd6 Cd 1.15297(6) 0.808632(10) 0.16258(6)
O28 O 1.0159(6) 0.81135(11) 0.2673(6)
O29 O 1.1793(7) 0.79753(11) 0.3553(6)
O30 O 1.2555(6) 0.80628(12) 0.0287(6)
O31 O 1.3534(6) 0.79672(11) 0.2009(7)
O32 O 1.0155(6) 0.82528(10) 0.0190(6)
O33 O 0.8619(6) 0.47107(10) 0.4001(6)
O34 O 0.6154(6) 0.48075(11) 0.6404(6)
O35 O 0.6116(6) 0.48534(12) 0.3896(6)
O36 O 0.7867(6) 0.47158(11) 0.7417(6)
O37 O 0.9583(6) 0.46353(12) 0.5775(7)
O38 O 0.7912(6) 0.64924(10) 0.4072(6)
O39 O 1.0488(6) 0.65276(11) 0.4160(6)
O40 O 1.0135(6) 0.63206(10) 0.1520(6)
O41 O 0.7018(6) 0.63482(11) 0.2455(6)
O42 O 0.8315(6) 0.63143(11) 0.0597(6)
O43 O 1.4007(7) 0.47273(15) 0.5666(7)
H118 H 1.4712 0.4756 0.5913
O44 O 1.3917(7) 0.48254(14) 0.3948(7)
O45 O 0.7505(9) 0.45906(14) 1.2003(7)
H119 H 0.775(11) 0.461(2) 1.273(3)
O46 O 0.6420(10) 0.48530(19) 1.1824(8)
O47 O 0.2307(7) 0.62611(12) 0.2472(7)
H120 H 0.185(8) 0.6319(16) 0.191(7)
O48 O 0.2328(8) 0.65702(16) 0.3082(11)
O49 O 0.8605(8) 0.63736(13) -0.3825(7)
H121 H 0.852(11) 0.6479(11) -0.423(9)
O50 O 1.0393(7) 0.64478(17) -0.3627(7)
O51 O 1.0211(9) 0.81366(16) 0.7996(7)
H122 H 1.0194 0.8172 0.8657
O52 O 1.1684(7) 0.79428(13) 0.8217(7)
O53 O 1.7926(7) 0.81646(15) 0.0238(8)
H123 H 1.8600 0.8192 0.0228
O54 O 1.8123(8) 0.79938(16) 0.1842(9)
N10 N 1.0065(7) 0.56058(11) 0.5688(7)
H124 H 1.0656 0.5623 0.6294
N11 N 0.9343(7) 0.60987(12) 0.3546(7)
N12 N 0.8440(7) 0.50654(11) 0.5580(7)
N13 N 1.2284(7) 0.83899(13) 0.2317(8)
N14 N 0.8675(7) 0.72696(11) 0.0288(7)
H125 H 0.8084 0.7285 -0.0319
N15 N 1.0704(7) 0.77751(13) 0.1042(7)
N16 N 0.8837(7) 0.67214(13) 0.1900(7)
N17 N 1.4086(10) 0.88817(14) 0.3977(9)
H126 H 1.4830 0.8863 0.4213
N18 N 1.2940(7) 0.94344(12) 0.4687(7)
C91 C 0.9797(9) 0.57600(16) 0.4939(9)
C92 C 0.9505(9) 0.54258(16) 0.5597(9)
C93 C 0.8716(9) 0.58026(15) 0.4251(9)
H127 H 0.8099 0.5716 0.4229
C94 C 1.0679(9) 0.58905(14) 0.4900(8)
H128 H 1.1446 0.5863 0.5331
C95 C 0.8771(8) 0.53504(13) 0.4608(9)
H129 H 0.8616 0.5422 0.3916
C96 C 0.9699(8) 0.53110(13) 0.6618(9)
H130 H 1.0188 0.5357 0.7324
C97 C 1.0420(9) 0.60618(14) 0.4216(9)
H131 H 1.1012 0.6153 0.4226
C98 C 0.8525(8) 0.59742(13) 0.3582(8)
H132 H 0.7767 0.6002 0.3130
C99 C 0.9150(9) 0.51334(14) 0.6530(9)
H133 H 0.9289 0.5054 0.7194
C100 C 0.8272(9) 0.51719(14) 0.4635(9)
H134 H 0.7779 0.5121 0.3946
C101 C 0.8750(8) 0.70900(14) 0.0829(8)
C102 C 0.9407(9) 0.74275(15) 0.0578(8)
C103 C 0.9272(9) 0.75824(15) -0.0223(9)
H135 H 0.8719 0.7572 -0.0947
C104 C 1.0219(9) 0.74529(15) 0.1605(10)
H136 H 1.0356 0.7353 0.2171
C105 C 1.0842(10) 0.76279(15) 0.1807(10)
H137 H 1.1397 0.7645 0.2526
C106 C 0.9952(9) 0.77484(15) 0.0057(8)
H138 H 0.9866 0.7849 -0.0502
C107 C 0.9805(9) 0.70051(14) 0.1447(8)
H139 H 1.0507 0.7072 0.1532
C108 C 0.7759(9) 0.69827(15) 0.0753(9)
H140 H 0.7031 0.7032 0.0330
C109 C 0.7863(9) 0.68032(14) 0.1312(9)
H141 H 0.7180 0.6733 0.1268
C110 C 0.9779(9) 0.68175(15) 0.1932(9)
H142 H 1.0488 0.6756 0.2307
C111 C 1.0786(9) 0.80187(14) 0.3508(9)
C112 C 1.3462(10) 0.79979(16) 0.0979(10)
C113 C 1.1888(13) 0.84977(19) 0.2980(14)
H143 H 1.1173 0.8464 0.3089
C114 C 1.2488(13) 0.86645(19) 0.3550(15)
H144 H 1.2189 0.8733 0.4074
C115 C 1.3414(13) 0.8727(2) 0.3392(15)
C116 C 1.3188(13) 0.84685(19) 0.1982(15)
H145 H 1.3399 0.8409 0.1375
C117 C 1.3676(9) 0.90629(15) 0.4219(10)
C118 C 1.4427(9) 0.92009(14) 0.4879(8)
H146 H 1.5215 0.9171 0.5188
C119 C 1.4026(10) 0.93760(16) 0.5072(9)
H147 H 1.4560 0.9467 0.5522
C120 C 1.2202(10) 0.92981(16) 0.4100(11)
H148 H 1.1411 0.9330 0.3875
C121 C 1.5963(11) 0.78199(19) 0.2166(13)
H149 H 1.6739 0.7843 0.2662
H150 H 1.5929 0.7691 0.1798
H151 H 1.5426 0.7822 0.2621
C122 C 1.5653(9) 0.79750(16) 0.1293(10)
C123 C 1.4453(9) 0.79444(17) 0.0510(10)
H152 H 1.4378 0.7800 0.0331
C124 C 1.5792(9) 0.81866(15) 0.1825(10)
H153 H 1.5583 0.8285 0.1216
H154 H 1.6588 0.8207 0.2280
H155 H 1.5291 0.8200 0.2314
C125 C 1.6330(9) 0.79717(19) 0.0393(10)
C126 C 1.5614(10) 0.8095(3) -0.0618(11)
H156 H 1.5794 0.8237 -0.0497
H157 H 1.5752 0.8053 -0.1338
C127 C 0.7026(9) 0.64105(18) 0.3420(9)
C128 C 1.7575(11) 0.8053(2) 0.0833(13)
C129 C 1.0281(10) 0.79429(16) 0.4412(9)
H158 H 0.9428 0.7941 0.4106
C130 C 0.6004(9) 0.63754(16) 0.3881(9)
H159 H 0.6199 0.6256 0.4377
C131 C 0.4834(8) 0.63318(13) 0.3004(8)
C132 C 0.4021(9) 0.63765(17) 0.3780(10)
C133 C 0.6825(9) 0.47386(15) 0.7327(9)
C134 C 0.6308(10) 0.46672(16) 0.8218(9)
C135 C 0.5300(11) 0.4791(2) 0.8331(10)
H160 H 0.5411 0.4931 0.8159
H161 H 0.4581 0.4744 0.7785
C136 C 0.7148(11) 0.46814(18) 0.9498(10)
C137 C 0.8030(12) 0.4508(2) 0.9780(12)
H162 H 0.7623 0.4382 0.9616
H163 H 0.8467 0.4514 1.0587
H164 H 0.8552 0.4521 0.9313
C138 C 0.6296(11) 0.4650(2) 1.0199(10)
H165 H 0.6076 0.4507 1.0151
C139 C 0.7729(13) 0.4885(2) 0.9718(11)
C140 C 0.6721(10) 0.4707(2) 1.1436(10)
C141 C 0.5839(10) 0.6541(2) 0.4642(13)
H166 H 0.6231 0.6510 0.5450
H167 H 0.6158 0.6666 0.4445
C142 C 1.4389(11) 0.8053(3) -0.0637(11)
H168 H 1.4006 0.7969 -0.1295
H169 H 1.3954 0.8178 -0.0696
C143 C 0.9509(13) 0.46435(18) 0.4721(13)
C144 C 1.0505(10) 0.45721(17) 0.4339(10)
C145 C 1.1397(11) 0.47404(19) 0.4275(12)
C146 C 1.2426(8) 0.46161(17) 0.4207(9)
H170 H 1.2296 0.4578 0.3392
C147 C 1.3528(9) 0.47342(18) 0.4581(10)
C148 C 0.2812(9) 0.64117(17) 0.3071(10)
C149 C 0.3970(10) 0.6211(2) 0.4613(10)
H171 H 0.4744 0.6181 0.5095
H172 H 0.3635 0.6093 0.4185
H173 H 0.3498 0.6253 0.5091
C150 C 0.4769(9) 0.61238(17) 0.2537(10)
H174 H 0.4023 0.6103 0.1973
H175 H 0.4866 0.6029 0.3159
H176 H 0.5375 0.6105 0.2175
C151 C 0.4588(9) 0.64835(17) 0.2013(10)
H177 H 0.3841 0.6456 0.1470
H178 H 0.5182 0.6474 0.1627
H179 H 0.4587 0.6617 0.2318
C152 C 0.9333(10) 0.62884(14) 0.0623(8)
C153 C 0.9615(9) 0.62091(14) -0.0419(8)
H180 H 1.0209 0.6104 -0.0156
C154 C 1.0072(10) 0.63609(17) -0.1134(10)
C155 C 0.8573(10) 0.61145(17) -0.1316(9)
H181 H 0.8321 0.5992 -0.1028
H182 H 0.7921 0.6207 -0.1555
C156 C 0.9992(10) 0.62304(18) -0.2252(9)
C157 C 1.1320(10) 0.64240(19) -0.0490(9)
C158 C 0.9091(12) 0.60734(17) -0.2277(10)
H183 H 0.8487 0.6077 -0.3018
H184 H 0.9446 0.5941 -0.2181
C159 C 0.9703(10) 0.63617(19) -0.3297(9)
C160 C 1.2526(10) 0.91122(15) 0.3798(11)
H185 H 1.1986 0.9024 0.3328
C161 C 1.3777(13) 0.86300(19) 0.2510(14)
H186 H 1.4417 0.8678 0.2301
C162 C 1.6537(13) 0.7753(3) 0.001(2)
H187 H 1.6985 0.7678 0.0672
H188 H 1.6955 0.7759 -0.0559
H189 H 1.5799 0.7688 -0.0322
C163 C 1.0725(17) 0.7733(3) 0.4835(14)
H190 H 1.1460 0.7705 0.4682
H191 H 1.0163 0.7631 0.4460
C164 C 1.0633(17) 0.8051(2) 0.5540(14)
C165 C 1.0880(18) 0.7740(3) 0.6138(14)
H192 H 1.1703 0.7742 0.6565
H193 H 1.0528 0.7622 0.6373
C166 C 1.1760(10) 0.81513(18) 0.5891(10)
H194 H 1.1901 0.8214 0.5227
H195 H 1.2360 0.8054 0.6213
H196 H 1.1762 0.8252 0.6465
C167 C 1.0268(10) 0.79388(19) 0.6410(10)
C168 C 0.961(2) 0.8221(4) 0.510(3)
H197 H 0.8861 0.8156 0.4861
H198 H 0.9729 0.8294 0.4452
H199 H 0.9638 0.8313 0.5719
C169 C 1.0700(11) 0.80201(19) 0.7595(12)
C170 C 0.4596(10) 0.65613(19) 0.4456(12)
H200 H 0.4307 0.6683 0.4019
H201 H 0.4426 0.6569 0.5194
C171 C 0.9305(10) 0.65412(16) -0.1421(10)
H202 H 0.8530 0.6500 -0.1851
H203 H 0.9603 0.6633 -0.1880
H204 H 0.9285 0.6607 -0.0716
C172 C 1.1137(11) 0.61316(19) -0.2197(10)
H205 H 1.1712 0.6233 -0.2178
H206 H 1.1042 0.6048 -0.2869
H207 H 1.1389 0.6050 -0.1509
C173 C 1.0946(14) 0.4868(3) 0.3174(18)
H208 H 1.0290 0.4947 0.3223
H209 H 1.0712 0.4781 0.2508
H210 H 1.1555 0.4956 0.3100
C174 C 1.1584(12) 0.4872(2) 0.5285(15)
H211 H 1.0877 0.4944 0.5239
H212 H 1.2195 0.4966 0.5299
H213 H 1.1801 0.4792 0.5980
C175 C 1.1295(14) 0.4431(3) 0.5212(19)
H214 H 1.0958 0.4297 0.5159
H215 H 1.1431 0.4481 0.5998
C176 C 1.2424(11) 0.44281(19) 0.4874(13)
H216 H 1.3094 0.4424 0.5561
H217 H 1.2449 0.4311 0.4401
C177 C 1.0056(14) 0.4467(3) 0.3225(18)
H218 H 1.0697 0.4420 0.2971
H219 H 0.9589 0.4558 0.2658
H220 H 0.9587 0.4355 0.3318
C178 C 0.5231(13) 0.4772(3) 0.9540(12)
H221 H 0.4519 0.4703 0.9546
H222 H 0.5243 0.4904 0.9890
C179 C 0.5916(14) 0.4457(2) 0.7931(12)
H223 H 0.5574 0.4407 0.8504
H224 H 0.6572 0.4375 0.7924
H225 H 0.5347 0.4453 0.7180
C180 C 0.9019(15) 0.7898(4) 0.6101(19)
H226 H 0.8849 0.7824 0.6716
H227 H 0.8787 0.7820 0.5398
H228 H 0.8598 0.8023 0.5986
Cd4A Cd 1.23677(6) 0.975954(10) 0.45825(6)
N18A N 0.7060(7) 0.44344(12) 0.5313(7)
O55 O 0.6656(7) 0.73268(12) -0.1457(7)
O56 O 0.1925(6) 0.56060(12) -0.2291(6)
O57 O -0.0010(7) 0.45368(13) -0.2003(6)
O58 O -0.0600(18) 0.3805(4) 0.9122(17)
loop_
_geom_bond_atom_site_label_1
_geom_bond_atom_site_label_2
_geom_bond_site_symmetry_1
_geom_bond_site_symmetry_2
Cd1 O3 1_555 1_555
Cd2 O7 1_555 1_555
Cd3 O1 1_555 1_555
O1 C32 1_555 1_555
O2 Cd3 1_555 1_555
O3 C38 1_555 1_555
O4 Cd3 1_555 1_555
O5 Cd3 1_555 1_555
O6 Cd1 1_555 1_555
O7 C36 1_555 1_555
O8 Cd2 1_555 1_555
O9 Cd1 1_555 1_555
O10 Cd1 1_555 1_555
O11 Cd1 1_555 1_555
O12 Cd2 1_555 1_555
O13 Cd2 1_555 1_555
O14 Cd2 1_555 1_555
O15 Cd3 1_555 1_555
O16 H1 1_555 1_555
O17 C48 1_555 1_555
O18 C46 1_555 1_555
O19 H2 1_555 1_555
O20 H3 1_555 1_555
O21 C56 1_555 1_555
O22 C63 1_555 1_555
O23 H4 1_555 1_555
O24 H5 1_555 1_555
O25 C77 1_555 1_555
O26 C87 1_555 1_555
O27 H6 1_555 1_555
N1 Cd3 1_555 1_555
N2 H7 1_555 1_555
N3 Cd1 1_555 1_555
N4 H8 1_555 1_555
N5 Cd2 1_555 1_555
N6 Cd1 1_555 1_555
N7 Cd2 1_555 1_555
N8 H9 1_555 1_555
N9 C65 1_555 1_555
C1 N2 1_555 1_555
C2 C1 1_555 1_555
H10 C2 1_555 1_555
C3 C1 1_555 1_555
H11 C3 1_555 1_555
C4 N1 1_555 1_555
H12 C4 1_555 1_555
C5 N1 1_555 1_555
H13 C5 1_555 1_555
C6 N2 1_555 1_555
C7 C6 1_555 1_555
H14 C7 1_555 1_555
C8 C6 1_555 1_555
H15 C8 1_555 1_555
C9 N3 1_555 1_555
H16 C9 1_555 1_555
C10 N3 1_555 1_555
H17 C10 1_555 1_555
C11 H18 1_555 1_555
C12 N4 1_555 1_555
C13 N5 1_555 1_555
H19 C13 1_555 1_555
C14 C12 1_555 1_555
H20 C14 1_555 1_555
C15 N5 1_555 1_555
H21 C15 1_555 1_555
C16 N4 1_555 1_555
C17 C16 1_555 1_555
H22 C17 1_555 1_555
C18 C16 1_555 1_555
H23 C18 1_555 1_555
C19 N6 1_555 1_555
H24 C19 1_555 1_555
C20 N6 1_555 1_555
H25 C20 1_555 1_555
C21 H26 1_555 1_555
H27 C21 1_555 1_555
C22 C21 1_555 1_555
H28 C22 1_555 1_555
C23 C21 1_555 1_555
H29 C23 1_555 1_555
H30 C23 1_555 1_555
C24 C22 1_555 1_555
C25 C24 1_555 1_555
H31 C25 1_555 1_555
H32 C25 1_555 1_555
H33 C25 1_555 1_555
C26 H34 1_555 1_555
C27 N7 1_555 1_555
H35 C27 1_555 1_555
C28 N8 1_555 1_555
C29 N8 1_555 1_555
C30 C28 1_555 1_555
H36 C30 1_555 1_555
C31 N7 1_555 1_555
H37 C31 1_555 1_555
C32 O2 1_555 1_555
C33 C32 1_555 1_555
H38 C33 1_555 1_555
C34 C33 1_555 1_555
C35 O4 1_555 1_555
C36 O8 1_555 1_555
C37 O6 1_555 1_555
C38 O10 1_555 1_555
C39 C23 1_555 1_555
C40 O12 1_555 1_555
C41 C40 1_555 1_555
C42 C41 1_555 1_555
C43 C42 1_555 1_555
H39 C43 1_555 1_555
H40 C43 1_555 1_555
H41 C43 1_555 1_555
C44 C34 1_555 1_555
H42 C44 1_555 1_555
H43 C44 1_555 1_555
H44 C44 1_555 1_555
C45 C34 1_555 1_555
C46 O19 1_555 1_555
C47 C24 1_555 1_555
H45 C47 1_555 1_555
H46 C47 1_555 1_555
H47 C47 1_555 1_555
C48 O16 1_555 1_555
C49 C35 1_555 1_555
C50 C42 1_555 1_555
H48 C50 1_555 1_555
H49 C50 1_555 1_555
H50 C50 1_555 1_555
C51 C45 1_555 1_555
H51 C51 1_555 1_555
H52 C51 1_555 1_555
C52 C33 1_555 1_555
H53 C52 1_555 1_555
H54 C52 1_555 1_555
C53 C34 1_555 1_555
H55 C53 1_555 1_555
H56 C53 1_555 1_555
H57 C53 1_555 1_555
C54 C41 1_555 1_555
H58 C54 1_555 1_555
H59 C54 1_555 1_555
C55 C42 1_555 1_555
H60 C55 1_555 1_555
C56 O20 1_555 1_555
C57 C38 1_555 1_555
H61 C57 1_555 1_555
C58 C57 1_555 1_555
C59 C58 1_555 1_555
C60 C36 1_555 1_555
C61 C60 1_555 1_555
C62 C61 1_555 1_555
H62 C62 1_555 1_555
C63 O23 1_555 1_555
C64 C62 1_555 1_555
H63 C64 1_555 1_555
H64 C64 1_555 1_555
C65 H65 1_555 1_555
C66 C29 1_555 1_555
H66 C66 1_555 1_555
C67 C29 1_555 1_555
H67 C67 1_555 1_555
C68 N9 1_555 1_555
H68 C68 1_555 1_555
C69 C60 1_555 1_555
H69 C69 1_555 1_555
H70 C69 1_555 1_555
C70 C61 1_555 1_555
H71 C70 1_555 1_555
H72 C70 1_555 1_555
H73 C70 1_555 1_555
C71 C61 1_555 1_555
H74 C71 1_555 1_555
H75 C71 1_555 1_555
H76 C71 1_555 1_555
C72 C60 1_555 1_555
H77 C72 1_555 1_555
H78 C72 1_555 1_555
H79 C72 1_555 1_555
C73 C54 1_555 1_555
H80 C73 1_555 1_555
H81 C73 1_555 1_555
C74 C41 1_555 1_555
H82 C74 1_555 1_555
H83 C74 1_555 1_555
H84 C74 1_555 1_555
C75 C39 1_555 1_555
H85 C75 1_555 1_555
H86 C75 1_555 1_555
H87 C75 1_555 1_555
C76 C57 1_555 1_555
H88 C76 1_555 1_555
H89 C76 1_555 1_555
C77 O24 1_555 1_555
C78 C59 1_555 1_555
H90 C78 1_555 1_555
H91 C78 1_555 1_555
H92 C78 1_555 1_555
C79 C59 1_555 1_555
H93 C79 1_555 1_555
H94 C79 1_555 1_555
C80 C58 1_555 1_555
H95 C80 1_555 1_555
H96 C80 1_555 1_555
H97 C80 1_555 1_555
C81 C58 1_555 1_555
H98 C81 1_555 1_555
H99 C81 1_555 1_555
H100 C81 1_555 1_555
C82 C45 1_555 1_555
H101 C82 1_555 1_555
H102 C82 1_555 1_555
H103 C82 1_555 1_555
C83 C49 1_555 1_555
H104 C83 1_555 1_555
H105 C83 1_555 1_555
H106 C83 1_555 1_555
C84 C49 1_555 1_555
C85 C84 1_555 1_555
H107 C85 1_555 1_555
C86 C84 1_555 1_555
H108 C86 1_555 1_555
H109 C86 1_555 1_555
H110 C86 1_555 1_555
C87 O27 1_555 1_555
C88 C84 1_555 1_555
H111 C88 1_555 1_555
H112 C88 1_555 1_555
H113 C88 1_555 1_555
C89 C49 1_555 1_555
H114 C89 1_555 1_555
H115 C89 1_555 1_555
C90 C85 1_555 1_555
H116 C90 1_555 1_555
H117 C90 1_555 1_555
Cd4 O33 1_555 1_555
Cd5 O38 1_555 1_555
Cd6 O28 1_555 1_555
O28 C111 1_555 1_555
O29 Cd6 1_555 1_555
O30 Cd6 1_555 1_555
O31 Cd6 1_555 1_555
O32 Cd6 1_555 1_555
O33 C143 1_555 1_555
O34 Cd4 1_555 1_555
O35 Cd4 1_555 1_555
O36 Cd4 1_555 1_555
O37 Cd4 1_555 1_555
O38 C127 1_555 1_555
O39 Cd5 1_555 1_555
O40 Cd5 1_555 1_555
O41 Cd5 1_555 1_555
O42 Cd5 1_555 1_555
O43 H118 1_555 1_555
O44 C147 1_555 1_555
O45 H119 1_555 1_555
O46 C140 1_555 1_555
O47 H120 1_555 1_555
O48 C148 1_555 1_555
O49 H121 1_555 1_555
O50 C159 1_555 1_555
O51 H122 1_555 1_555
O52 C169 1_555 1_555
O53 H123 1_555 1_555
O54 C128 1_555 1_555
N10 H124 1_555 1_555
N11 Cd5 1_555 1_555
N12 Cd4 1_555 1_555
N13 Cd6 1_555 1_555
N14 H125 1_555 1_555
N15 Cd6 1_555 1_555
N16 Cd5 1_555 1_555
N17 H126 1_555 1_555
N18 C119 1_555 1_555
C91 N10 1_555 1_555
C92 N10 1_555 1_555
C93 C91 1_555 1_555
H127 C93 1_555 1_555
C94 C91 1_555 1_555
H128 C94 1_555 1_555
C95 C92 1_555 1_555
H129 C95 1_555 1_555
C96 C92 1_555 1_555
H130 C96 1_555 1_555
C97 N11 1_555 1_555
H131 C97 1_555 1_555
C98 N11 1_555 1_555
H132 C98 1_555 1_555
C99 N12 1_555 1_555
H133 C99 1_555 1_555
C100 N12 1_555 1_555
H134 C100 1_555 1_555
C101 N14 1_555 1_555
C102 N14 1_555 1_555
C103 C102 1_555 1_555
H135 C103 1_555 1_555
C104 C102 1_555 1_555
H136 C104 1_555 1_555
C105 N15 1_555 1_555
H137 C105 1_555 1_555
C106 N15 1_555 1_555
H138 C106 1_555 1_555
C107 C101 1_555 1_555
H139 C107 1_555 1_555
C108 C101 1_555 1_555
H140 C108 1_555 1_555
C109 N16 1_555 1_555
H141 C109 1_555 1_555
C110 N16 1_555 1_555
H142 C110 1_555 1_555
C111 O29 1_555 1_555
C112 O30 1_555 1_555
C113 N13 1_555 1_555
H143 C113 1_555 1_555
C114 C113 1_555 1_555
H144 C114 1_555 1_555
C115 N17 1_555 1_555
C116 N13 1_555 1_555
H145 C116 1_555 1_555
C117 N17 1_555 1_555
C118 C117 1_555 1_555
H146 C118 1_555 1_555
C119 C118 1_555 1_555
H147 C119 1_555 1_555
C120 N18 1_555 1_555
H148 C120 1_555 1_555
C121 H149 1_555 1_555
H150 C121 1_555 1_555
H151 C121 1_555 1_555
C122 C121 1_555 1_555
C123 C112 1_555 1_555
H152 C123 1_555 1_555
C124 C122 1_555 1_555
H153 C124 1_555 1_555
H154 C124 1_555 1_555
H155 C124 1_555 1_555
C125 C122 1_555 1_555
C126 C125 1_555 1_555
H156 C126 1_555 1_555
H157 C126 1_555 1_555
C127 O41 1_555 1_555
C128 O53 1_555 1_555
C129 C111 1_555 1_555
H158 C129 1_555 1_555
C130 C127 1_555 1_555
H159 C130 1_555 1_555
C131 C130 1_555 1_555
C132 C131 1_555 1_555
C133 O34 1_555 1_555
C134 C133 1_555 1_555
C135 C134 1_555 1_555
H160 C135 1_555 1_555
H161 C135 1_555 1_555
C136 C134 1_555 1_555
C137 C136 1_555 1_555
H162 C137 1_555 1_555
H163 C137 1_555 1_555
H164 C137 1_555 1_555
C138 C136 1_555 1_555
H165 C138 1_555 1_555
C139 C136 1_555 1_555
C140 O45 1_555 1_555
C141 C130 1_555 1_555
H166 C141 1_555 1_555
H167 C141 1_555 1_555
C142 C123 1_555 1_555
H168 C142 1_555 1_555
H169 C142 1_555 1_555
C143 O37 1_555 1_555
C144 C143 1_555 1_555
C145 C144 1_555 1_555
C146 C145 1_555 1_555
H170 C146 1_555 1_555
C147 O43 1_555 1_555
C148 O47 1_555 1_555
C149 C132 1_555 1_555
H171 C149 1_555 1_555
H172 C149 1_555 1_555
H173 C149 1_555 1_555
C150 C131 1_555 1_555
H174 C150 1_555 1_555
H175 C150 1_555 1_555
H176 C150 1_555 1_555
C151 C131 1_555 1_555
H177 C151 1_555 1_555
H178 C151 1_555 1_555
H179 C151 1_555 1_555
C152 O40 1_555 1_555
C153 C152 1_555 1_555
H180 C153 1_555 1_555
C154 C153 1_555 1_555
C155 C153 1_555 1_555
H181 C155 1_555 1_555
H182 C155 1_555 1_555
C156 C154 1_555 1_555
C157 C154 1_555 1_555
C158 C155 1_555 1_555
H183 C158 1_555 1_555
H184 C158 1_555 1_555
C159 O49 1_555 1_555
C160 C117 1_555 1_555
H185 C160 1_555 1_555
C161 C115 1_555 1_555
H186 C161 1_555 1_555
C162 C125 1_555 1_555
H187 C162 1_555 1_555
H188 C162 1_555 1_555
H189 C162 1_555 1_555
C163 C129 1_555 1_555
H190 C163 1_555 1_555
H191 C163 1_555 1_555
C164 C129 1_555 1_555
C165 C163 1_555 1_555
H192 C165 1_555 1_555
H193 C165 1_555 1_555
C166 C164 1_555 1_555
H194 C166 1_555 1_555
H195 C166 1_555 1_555
H196 C166 1_555 1_555
C167 C164 1_555 1_555
C168 C164 1_555 1_555
H197 C168 1_555 1_555
H198 C168 1_555 1_555
H199 C168 1_555 1_555
C169 O51 1_555 1_555
C170 C132 1_555 1_555
H200 C170 1_555 1_555
H201 C170 1_555 1_555
C171 C154 1_555 1_555
H202 C171 1_555 1_555
H203 C171 1_555 1_555
H204 C171 1_555 1_555
C172 C156 1_555 1_555
H205 C172 1_555 1_555
H206 C172 1_555 1_555
H207 C172 1_555 1_555
C173 C145 1_555 1_555
H208 C173 1_555 1_555
H209 C173 1_555 1_555
H210 C173 1_555 1_555
C174 C145 1_555 1_555
H211 C174 1_555 1_555
H212 C174 1_555 1_555
H213 C174 1_555 1_555
C175 C144 1_555 1_555
H214 C175 1_555 1_555
H215 C175 1_555 1_555
C176 C146 1_555 1_555
H216 C176 1_555 1_555
H217 C176 1_555 1_555
C177 C144 1_555 1_555
H218 C177 1_555 1_555
H219 C177 1_555 1_555
H220 C177 1_555 1_555
C178 C135 1_555 1_555
H221 C178 1_555 1_555
H222 C178 1_555 1_555
C179 C134 1_555 1_555
H223 C179 1_555 1_555
H224 C179 1_555 1_555
H225 C179 1_555 1_555
C180 C167 1_555 1_555
H226 C180 1_555 1_555
H227 C180 1_555 1_555
H228 C180 1_555 1_555
Cd3A N9 1_555 1_555
N9A Cd3 1_555 1_555
Cd4A N18 1_555 1_555
N18A Cd4 1_555 1_555
O5 C35 1_555 1_555
O9 C37 1_555 1_555
O13 C40 1_555 1_555
C2 C5 1_555 1_555
C3 C4 1_555 1_555
C7 C10 1_555 1_555
C8 C9 1_555 1_555
C11 C12 1_555 1_555
C11 C13 1_555 1_555
C14 C15 1_555 1_555
C17 C20 1_555 1_555
C18 C19 1_555 1_555
C22 C48 1_555 1_555
C24 C39 1_555 1_555
C26 C27 1_555 1_555
C26 C28 1_555 1_555
C30 C31 1_555 1_555
C37 C39 1_555 1_555
C45 C46 1_555 1_555
C51 C52 1_555 1_555
C55 C56 1_555 1_555
C55 C73 1_555 1_555
C59 C77 1_555 1_555
C62 C63 1_555 1_555
C64 C69 1_555 1_555
C65 C66 1_555 1_555
C67 C68 1_555 1_555
C76 C79 1_555 1_555
C85 C87 1_555 1_555
C89 C90 1_555 1_555
O31 C112 1_555 1_555
O36 C133 1_555 1_555
O42 C152 1_555 1_555
C93 C98 1_555 1_555
C94 C97 1_555 1_555
C95 C100 1_555 1_555
C96 C99 1_555 1_555
C103 C106 1_555 1_555
C104 C105 1_555 1_555
C107 C110 1_555 1_555
C108 C109 1_555 1_555
C114 C115 1_555 1_555
C116 C161 1_555 1_555
C120 C160 1_555 1_555
C122 C123 1_555 1_555
C125 C128 1_555 1_555
C126 C142 1_555 1_555
C132 C148 1_555 1_555
C138 C140 1_555 1_555
C138 C178 1_555 1_555
C141 C170 1_555 1_555
C146 C147 1_555 1_555
C156 C158 1_555 1_555
C156 C159 1_555 1_555
C165 C167 1_555 1_555
C167 C169 1_555 1_555
C175 C176 1_555 1_555

#END
