
#######################################################################
#
#                 Cambridge Crystallographic Data Centre
#                                CCDC 
#
#######################################################################
#
# If this CIF has been generated from an entry in the Cambridge 
# Structural Database, then it will include bibliographic, chemical, 
# crystal, experimental, refinement or atomic coordinate data resulting 
# from the CCDC's data processing and validation procedures.
#
#######################################################################

data_XEWGEN
_symmetry_cell_setting           monoclinic
_symmetry_space_group_name_H-M   'P 21/c'
_symmetry_Int_Tables_number      14
_space_group_name_Hall           '-P 2ybc'
loop_
_symmetry_equiv_pos_site_id
_symmetry_equiv_pos_as_xyz
1 x,y,z
2 -x,1/2+y,1/2-z
3 -x,-y,-z
4 x,1/2-y,1/2+z
_cell_length_a                   18.893(2)
_cell_length_b                   10.0024(13)
_cell_length_c                   16.358(2)
_cell_angle_alpha                90
_cell_angle_beta                 113.086(2)
_cell_angle_gamma                90
_cell_volume                     2843.7
loop_
_atom_site_label
_atom_site_type_symbol
_atom_site_fract_x
_atom_site_fract_y
_atom_site_fract_z
Cd1 Cd 0.232078(17) 0.54981(3) 0.32376(2)
N1 N -0.2159(2) 0.1554(4) 0.0594(2)
N2 N -0.13010(19) 0.5592(4) -0.0265(2)
N3 N -0.2114(3) 0.9242(5) -0.1611(3)
N4 N 0.73533(19) 0.6591(4) 0.6056(2)
N5 N 0.55008(19) 0.9753(3) 0.4237(2)
N6 N 0.3896(2) 1.3319(4) 0.2553(3)
O1 O 0.12250(16) 0.6642(4) 0.22013(19)
O2 O 0.29632(17) 0.7428(3) 0.3093(2)
O3 O 0.37119(17) 0.5960(3) 0.4034(2)
C1 C -0.1694(2) 0.2614(4) 0.0741(3)
H1 H -0.1400 0.2848 0.1327
C2 C -0.1623(2) 0.3382(4) 0.0075(3)
C3 C -0.2065(3) 0.3022(5) -0.0790(3)
H2 H -0.2030 0.3500 -0.1261
C4 C -0.2558(3) 0.1947(5) -0.0951(3)
H3 H -0.2869 0.1704 -0.1530
C5 C -0.2584(3) 0.1243(5) -0.0246(3)
H4 H -0.2915 0.0515 -0.0361
C6 C -0.1098(2) 0.4546(4) 0.0302(3)
C7 C -0.0427(2) 0.4555(4) 0.1069(3)
H5 H -0.0301 0.3819 0.1447
C8 C 0.0049(2) 0.5647(4) 0.1268(3)
C9 C -0.0160(2) 0.6725(5) 0.0697(3)
H6 H 0.0152 0.7480 0.0818
C10 C -0.0839(2) 0.6676(4) -0.0061(3)
C11 C -0.1846(3) 0.8206(5) -0.1057(3)
H7 H -0.2198 0.7708 -0.0916
C12 C -0.1081(3) 0.7825(4) -0.0679(3)
C13 C -0.0558(3) 0.8574(5) -0.0882(3)
H8 H -0.0037 0.8360 -0.0640
C14 C -0.0827(4) 0.9663(6) -0.1459(4)
H9 H -0.0490 1.0189 -0.1608
C15 C -0.1592(4) 0.9935(6) -0.1797(4)
H10 H -0.1765 1.0655 -0.2185
C16 C 0.6644(2) 0.6903(4) 0.5489(3)
H11 H 0.6279 0.6224 0.5299
C17 C 0.6420(2) 0.8180(4) 0.5169(3)
C18 C 0.6974(3) 0.9176(5) 0.5460(3)
H12 H 0.6853 1.0050 0.5260
C19 C 0.7704(2) 0.8857(5) 0.6049(3)
H13 H 0.8080 0.9515 0.6254
C20 C 0.7872(2) 0.7566(5) 0.6332(3)
H14 H 0.8367 0.7362 0.6732
C21 C 0.5613(2) 0.8510(4) 0.4568(3)
C22 C 0.5015(2) 0.7609(4) 0.4375(3)
H15 H 0.5110 0.6748 0.4607
C23 C 0.4276(2) 0.7987(4) 0.3838(3)
C24 C 0.4162(2) 0.9271(4) 0.3496(3)
H16 H 0.3672 0.9554 0.3125
C25 C 0.4781(2) 1.0131(4) 0.3708(3)
C26 C 0.4003(3) 1.2054(5) 0.2825(3)
H17 H 0.3582 1.1482 0.2621
C27 C 0.4705(2) 1.1537(5) 0.3392(3)
C28 C 0.5317(3) 1.2396(5) 0.3653(3)
H18 H 0.5803 1.2094 0.4024
C29 C 0.5217(3) 1.3705(5) 0.3370(3)
H19 H 0.5631 1.4293 0.3545
C30 C 0.4502(3) 1.4119(5) 0.2830(3)
H20 H 0.4435 1.5006 0.2645
C31 C 0.3603(3) 0.7062(5) 0.3635(3)
O4 O 0.2494(2) 0.4477(4) 0.2085(2)
H21 H 0.214(2) 0.444(5) 0.1573(18)
H22 H 0.2910(19) 0.412(5) 0.211(3)
C32 C 0.0808(2) 0.5650(5) 0.2059(3)
O5 O 0.0977(2) 0.4630(4) 0.2537(2)
Cd1A Cd -0.232078(17) 0.04981(3) 0.17624(2)
Cd1B Cd 0.767922(17) 0.45019(3) 0.67624(2)
N1A N 0.2159(2) 0.6554(4) 0.4406(2)
N4B N 0.26467(19) 0.3409(4) 0.3944(2)
loop_
_geom_bond_atom_site_label_1
_geom_bond_atom_site_label_2
_geom_bond_site_symmetry_1
_geom_bond_site_symmetry_2
Cd1 O1 1_555 1_555
N1 C1 1_555 1_555
N2 C6 1_555 1_555
N3 C11 1_555 1_555
N4 C16 1_555 1_555
N5 C21 1_555 1_555
N6 C26 1_555 1_555
O1 C32 1_555 1_555
O2 Cd1 1_555 1_555
O3 Cd1 1_555 1_555
C1 H1 1_555 1_555
C2 C1 1_555 1_555
C3 C2 1_555 1_555
H2 C3 1_555 1_555
C4 C3 1_555 1_555
H3 C4 1_555 1_555
C5 N1 1_555 1_555
H4 C5 1_555 1_555
C6 C2 1_555 1_555
C7 C6 1_555 1_555
H5 C7 1_555 1_555
C8 C7 1_555 1_555
C9 C8 1_555 1_555
H6 C9 1_555 1_555
C10 N2 1_555 1_555
C11 H7 1_555 1_555
C12 C10 1_555 1_555
C13 C12 1_555 1_555
H8 C13 1_555 1_555
C14 C13 1_555 1_555
H9 C14 1_555 1_555
C15 N3 1_555 1_555
H10 C15 1_555 1_555
C16 H11 1_555 1_555
C17 C16 1_555 1_555
C18 C17 1_555 1_555
H12 C18 1_555 1_555
C19 C18 1_555 1_555
H13 C19 1_555 1_555
C20 N4 1_555 1_555
H14 C20 1_555 1_555
C21 C17 1_555 1_555
C22 C21 1_555 1_555
H15 C22 1_555 1_555
C23 C22 1_555 1_555
C24 C23 1_555 1_555
H16 C24 1_555 1_555
C25 N5 1_555 1_555
C26 H17 1_555 1_555
C27 C25 1_555 1_555
C28 C27 1_555 1_555
H18 C28 1_555 1_555
C29 C28 1_555 1_555
H19 C29 1_555 1_555
C30 N6 1_555 1_555
H20 C30 1_555 1_555
C31 O2 1_555 1_555
O4 Cd1 1_555 1_555
H21 O4 1_555 1_555
H22 O4 1_555 1_555
C32 C8 1_555 1_555
O5 Cd1 1_555 1_555
Cd1A N1 1_555 1_555
Cd1B N4 1_555 1_555
N1A Cd1 1_555 1_555
N4B Cd1 1_555 1_555
O3 C31 1_555 1_555
C4 C5 1_555 1_555
C9 C10 1_555 1_555
C11 C12 1_555 1_555
C14 C15 1_555 1_555
C19 C20 1_555 1_555
C23 C31 1_555 1_555
C24 C25 1_555 1_555
C26 C27 1_555 1_555
C29 C30 1_555 1_555
C32 O5 1_555 1_555

#END
