
#######################################################################
#
#                 Cambridge Crystallographic Data Centre
#                                CCDC 
#
#######################################################################
#
# If this CIF has been generated from an entry in the Cambridge 
# Structural Database, then it will include bibliographic, chemical, 
# crystal, experimental, refinement or atomic coordinate data resulting 
# from the CCDC's data processing and validation procedures.
#
#######################################################################

data_XEWGIR
_symmetry_cell_setting           triclinic
_symmetry_space_group_name_H-M   'P -1'
_symmetry_Int_Tables_number      2
_space_group_name_Hall           '-P 1'
loop_
_symmetry_equiv_pos_site_id
_symmetry_equiv_pos_as_xyz
1 x,y,z
2 -x,-y,-z
_cell_length_a                   8.0055(11)
_cell_length_b                   10.1466(13)
_cell_length_c                   14.3813(19)
_cell_angle_alpha                95.031(2)
_cell_angle_beta                 93.761(2)
_cell_angle_gamma                99.255(2)
_cell_volume                     1144.74
loop_
_atom_site_label
_atom_site_type_symbol
_atom_site_fract_x
_atom_site_fract_y
_atom_site_fract_z
Zn1 Zn 0.92002(10) 1.11882(7) 0.30077(5)
Zn2 Zn 0.57781(9) 1.28953(6) 0.26766(5)
N1 N 0.9784(6) 0.9287(4) 0.2881(3)
N2 N 1.1879(6) 0.5840(4) 0.1025(3)
N3 N 1.4379(6) 0.2725(4) 0.1356(3)
O1 O 1.1831(5) 0.7271(4) -0.2242(3)
O2 O 1.0274(6) 0.8540(4) -0.1515(3)
O3 O 0.8093(5) 1.1121(3) 0.4208(2)
O4 O 0.5433(5) 0.8811(3) 0.6862(3)
O5 O 0.3765(6) 0.9888(4) 0.7703(3)
O6 O 0.3595(5) 1.4734(4) 0.7403(3)
O7 O 0.5500(6) 1.5808(4) 0.6589(3)
O8 O 1.1555(6) 1.2152(4) 0.3555(3)
C1 C 1.0403(7) 0.8808(5) 0.2098(4)
H1 H 1.0671 0.9388 0.1644
C2 C 1.0661(7) 0.7484(5) 0.1934(4)
C3 C 1.0300(7) 0.6652(6) 0.2642(4)
H2 H 1.0476 0.5766 0.2572
C4 C 0.9681(7) 0.7152(6) 0.3444(4)
H3 H 0.9422 0.6604 0.3918
C5 C 0.9450(7) 0.8453(6) 0.3540(4)
H4 H 0.9039 0.8778 0.4089
C6 C 1.1235(7) 0.6977(5) 0.1032(4)
C7 C 1.1019(7) 0.7582(5) 0.0210(4)
H5 H 1.0586 0.8379 0.0223
C8 C 1.1447(7) 0.7000(5) -0.0621(4)
C9 C 1.2084(7) 0.5817(5) -0.0617(4)
H6 H 1.2361 0.5390 -0.1171
C10 C 1.2304(7) 0.5275(5) 0.0213(4)
C11 C 1.3642(7) 0.3768(5) 0.1172(4)
H7 H 1.3517 0.4372 0.1677
C12 C 1.3052(7) 0.4028(5) 0.0306(4)
C13 C 1.3234(7) 0.3128(5) -0.0450(4)
H8 H 1.2896 0.3279 -0.1057
C14 C 1.3935(8) 0.1997(5) -0.0278(4)
H9 H 1.4021 0.1354 -0.0767
C15 C 1.4497(7) 0.1838(5) 0.0620(4)
H10 H 1.4981 0.1084 0.0725
C16 C 1.1167(8) 0.7656(6) -0.1509(4)
C17 C 0.7556(8) 1.2157(6) 0.4508(4)
C18 C 0.6611(7) 1.2182(5) 0.5357(3)
C19 C 0.6268(7) 1.1056(5) 0.5837(4)
H11 H 0.6648 1.0271 0.5629
C20 C 0.5361(7) 1.1093(5) 0.6629(3)
C21 C 0.4819(7) 0.9856(5) 0.7108(4)
C22 C 0.4832(7) 1.2275(5) 0.6940(4)
H12 H 0.4215 1.2302 0.7465
C23 C 0.5210(7) 1.3431(5) 0.6479(4)
C24 C 0.6068(7) 1.3356(5) 0.5684(4)
H13 H 0.6289 1.4109 0.5358
C25 C 0.4709(8) 1.4726(6) 0.6841(4)
O9 O 0.7629(6) 1.3165(4) 0.4047(3)
Zn1A Zn 0.07998(10) 0.88118(7) 0.69923(5)
Zn1A_2 Zn 1.07998(10) 0.88118(7) -0.30077(5)
Zn2_2 Zn 1.57781(9) 0.28953(6) 0.26766(5)
Zn2A Zn 0.42219(9) 0.71047(6) 0.73234(5)
Zn2A_2 Zn 0.42219(9) 1.71047(6) 0.73234(5)
Zn2A_3 Zn 1.42219(9) 0.71047(6) -0.26766(5)
N3_2 N 0.4379(6) 1.2725(4) 0.1356(3)
O1A O 0.8169(5) 1.2729(4) 0.2242(3)
O2A O 0.9726(6) 1.1460(4) 0.1515(3)
O4A O 0.4567(5) 1.1189(3) 0.3138(3)
O5A O 0.6235(6) 1.0112(4) 0.2297(3)
O6A O 0.6405(5) 1.5266(4) 0.2597(3)
O7A O 0.4500(6) 1.4192(4) 0.3411(3)
O10 O 0.0674(14) 0.4398(10) 0.4487(8)
loop_
_geom_bond_atom_site_label_1
_geom_bond_atom_site_label_2
_geom_bond_site_symmetry_1
_geom_bond_site_symmetry_2
Zn1 N1 1_555 1_555
Zn2 O9 1_555 1_555
N1 C1 1_555 1_555
N2 C6 1_555 1_555
N3 C11 1_555 1_555
O1 C16 1_555 1_555
O2 C16 1_555 1_555
O3 Zn1 1_555 1_555
O4 C21 1_555 1_555
O5 C21 1_555 1_555
O6 C25 1_555 1_555
O7 C25 1_555 1_555
O8 Zn1 1_555 1_555
C1 H1 1_555 1_555
C2 C1 1_555 1_555
C3 C2 1_555 1_555
H2 C3 1_555 1_555
C4 C3 1_555 1_555
H3 C4 1_555 1_555
C5 N1 1_555 1_555
H4 C5 1_555 1_555
C6 C2 1_555 1_555
C7 C6 1_555 1_555
H5 C7 1_555 1_555
C8 C7 1_555 1_555
C9 C8 1_555 1_555
H6 C9 1_555 1_555
C10 N2 1_555 1_555
C11 H7 1_555 1_555
C12 C10 1_555 1_555
C13 C12 1_555 1_555
H8 C13 1_555 1_555
C14 C13 1_555 1_555
H9 C14 1_555 1_555
C15 N3 1_555 1_555
H10 C15 1_555 1_555
C16 C8 1_555 1_555
C17 O3 1_555 1_555
C18 C17 1_555 1_555
C19 C18 1_555 1_555
H11 C19 1_555 1_555
C20 C19 1_555 1_555
C21 C20 1_555 1_555
C22 C20 1_555 1_555
H12 C22 1_555 1_555
C23 C22 1_555 1_555
C24 C18 1_555 1_555
H13 C24 1_555 1_555
C25 C23 1_555 1_555
O9 C17 1_555 1_555
Zn1A O5 1_555 1_555
Zn1A_2 O1 1_555 1_555
Zn2_2 N3 1_555 1_555
Zn2A O4 1_555 1_555
Zn2A_2 O6 1_555 1_555
Zn2A_3 O1 1_555 1_555
N3_2 Zn2 1_555 1_555
O1A Zn1 1_555 1_555
O2A Zn1 1_555 1_555
O4A Zn2 1_555 1_555
O5A Zn1 1_555 1_555
O6A Zn2 1_555 1_555
O7A Zn2 1_555 1_555
Zn2 O1A 1_555 1_555
O2 Zn1A_2 1_555 1_555
O7 Zn2A_2 1_555 1_555
C4 C5 1_555 1_555
C9 C10 1_555 1_555
C11 C12 1_555 1_555
C14 C15 1_555 1_555
C23 C24 1_555 1_555

#END
