
#######################################################################
#
#                 Cambridge Crystallographic Data Centre
#                                CCDC 
#
#######################################################################
#
# If this CIF has been generated from an entry in the Cambridge 
# Structural Database, then it will include bibliographic, chemical, 
# crystal, experimental, refinement or atomic coordinate data resulting 
# from the CCDC's data processing and validation procedures.
#
#######################################################################

data_XEWGOX
_symmetry_cell_setting           triclinic
_symmetry_space_group_name_H-M   'P -1'
_symmetry_Int_Tables_number      2
_space_group_name_Hall           '-P 1'
loop_
_symmetry_equiv_pos_site_id
_symmetry_equiv_pos_as_xyz
1 x,y,z
2 -x,-y,-z
_cell_length_a                   8.091(4)
_cell_length_b                   9.239(4)
_cell_length_c                   11.775(7)
_cell_angle_alpha                68.058(5)
_cell_angle_beta                 81.922(8)
_cell_angle_gamma                78.924(6)
_cell_volume                     798.958
loop_
_atom_site_label
_atom_site_type_symbol
_atom_site_fract_x
_atom_site_fract_y
_atom_site_fract_z
Zn1 Zn 0.71252(5) 0.60077(5) 0.61438(4)
N1 N 0.2450(3) 0.2238(4) 1.3256(3)
N2 N 0.2557(3) 0.0350(3) 0.9969(3)
N3 N 0.2533(4) -0.2161(4) 0.7049(3)
O1 O 0.5832(3) 0.4811(3) 0.7805(2)
O2 O 0.5817(3) 0.3839(3) 0.6366(2)
O3 O 0.8364(3) 0.6543(3) 0.4427(2)
O4 O 1.0613(3) 0.5588(3) 0.3437(2)
O5 O 0.5005(3) 0.7409(3) 0.5227(2)
C1 C 0.1903(4) 0.0933(5) 1.4032(3)
H1 H 0.1693 0.0813 1.4857
C2 C 0.1630(5) -0.0260(5) 1.3672(3)
H2 H 0.1229 -0.1155 1.4240
C3 C 0.1967(4) -0.0092(4) 1.2448(3)
H3 H 0.1792 -0.0875 1.2182
C4 C 0.2565(4) 0.1249(4) 1.1625(3)
C5 C 0.2789(4) 0.2391(4) 1.2066(3)
H4 H 0.3189 0.3298 1.1519
C6 C 0.3018(4) 0.1434(4) 1.0302(3)
C7 C 0.3933(4) 0.2602(4) 0.9510(3)
H5 H 0.4256 0.3327 0.9777
C8 C 0.4351(4) 0.2653(4) 0.8307(3)
C9 C 0.3833(4) 0.1544(4) 0.7955(3)
H6 H 0.4066 0.1573 0.7152
C10 C 0.2967(4) 0.0397(4) 0.8808(3)
C11 C 0.2857(5) -0.0997(4) 0.7351(3)
H7 H 0.3346 -0.0186 0.6742
C12 C 0.2510(4) -0.0912(4) 0.8523(3)
C13 C 0.1809(5) -0.2128(5) 0.9405(4)
H8 H 0.1562 -0.2132 1.0202
C14 C 0.1467(5) -0.3353(5) 0.9111(4)
H9 H 0.0998 -0.4188 0.9707
C15 C 0.1830(5) -0.3316(5) 0.7923(4)
H10 H 0.1575 -0.4129 0.7726
C16 C 0.5396(4) 0.3840(4) 0.7440(3)
C17 C 0.9707(5) 0.5617(5) 0.4376(3)
H11 H 0.418(4) 0.748(6) 0.572(4)
H12 H 0.478(6) 0.689(5) 0.485(4)
O3A O 1.1636(3) 0.3457(3) 0.5573(2)
O4A O 0.9387(3) 0.4412(3) 0.6563(2)
C17A C 1.0293(5) 0.4383(5) 0.5624(3)
Zn1A Zn 0.28748(5) 0.39923(5) 1.38562(4)
N1A N 0.7550(3) 0.7762(4) 0.6744(3)
N2A N 0.7443(3) 0.9650(3) 1.0031(3)
N3A N 0.7467(4) 1.2161(4) 1.2951(3)
O1A O 0.4168(3) 0.5189(3) 1.2195(2)
O2A O 0.4183(3) 0.6161(3) 1.3634(2)
O5A O 0.4995(3) 0.2591(3) 1.4773(2)
C1A C 0.8097(4) 0.9067(5) 0.5968(3)
H1A H 0.8307 0.9187 0.5143
C2A C 0.8370(5) 1.0260(5) 0.6328(3)
H2A H 0.8771 1.1155 0.5760
C3A C 0.8033(4) 1.0092(4) 0.7552(3)
H3A H 0.8208 1.0875 0.7818
C4A C 0.7435(4) 0.8751(4) 0.8375(3)
C5A C 0.7211(4) 0.7609(4) 0.7934(3)
H4A H 0.6811 0.6702 0.8481
C6A C 0.6982(4) 0.8566(4) 0.9698(3)
C7A C 0.6067(4) 0.7398(4) 1.0490(3)
H5A H 0.5744 0.6673 1.0223
C8A C 0.5649(4) 0.7347(4) 1.1693(3)
C9A C 0.6167(4) 0.8456(4) 1.2045(3)
H6A H 0.5934 0.8427 1.2848
C10A C 0.7033(4) 0.9603(4) 1.1192(3)
C11A C 0.7143(5) 1.0997(4) 1.2649(3)
H7A H 0.6654 1.0186 1.3258
C12A C 0.7490(4) 1.0912(4) 1.1477(3)
C13A C 0.8191(5) 1.2128(5) 1.0595(4)
H8A H 0.8438 1.2132 0.9798
C14A C 0.8533(5) 1.3353(5) 1.0889(4)
H9A H 0.9002 1.4188 1.0293
C15A C 0.8170(5) 1.3316(5) 1.2077(4)
H10A H 0.8425 1.4129 1.2274
C16A C 0.4604(4) 0.6160(4) 1.2560(3)
H11A H 0.582(4) 0.252(6) 1.428(4)
H12A H 0.522(6) 0.311(5) 1.515(4)
Zn1A_2 Zn 1.28748(5) 0.39923(5) 0.38562(4)
O3A_2 O 0.1636(3) 0.3457(3) 1.5573(2)
O4_2 O 0.0613(3) 0.5588(3) 1.3437(2)
loop_
_geom_bond_atom_site_label_1
_geom_bond_atom_site_label_2
_geom_bond_site_symmetry_1
_geom_bond_site_symmetry_2
Zn1 O1 1_555 1_555
N1 C1 1_555 1_555
N2 C6 1_555 1_555
N3 C11 1_555 1_555
O1 C16 1_555 1_555
O2 Zn1 1_555 1_555
O3 Zn1 1_555 1_555
O4 C17 1_555 1_555
O5 Zn1 1_555 1_555
C1 H1 1_555 1_555
C2 C1 1_555 1_555
H2 C2 1_555 1_555
C3 C2 1_555 1_555
H3 C3 1_555 1_555
C4 C3 1_555 1_555
C5 N1 1_555 1_555
H4 C5 1_555 1_555
C6 C4 1_555 1_555
C7 C6 1_555 1_555
H5 C7 1_555 1_555
C8 C7 1_555 1_555
C9 C8 1_555 1_555
H6 C9 1_555 1_555
C10 N2 1_555 1_555
C11 H7 1_555 1_555
C12 C10 1_555 1_555
C13 C12 1_555 1_555
H8 C13 1_555 1_555
C14 C13 1_555 1_555
H9 C14 1_555 1_555
C15 N3 1_555 1_555
H10 C15 1_555 1_555
C16 O2 1_555 1_555
C17 O3 1_555 1_555
H11 O5 1_555 1_555
H12 O5 1_555 1_555
O3A C17A 1_555 1_555
O4A Zn1 1_555 1_555
C17A C17 1_555 1_555
Zn1A N1 1_555 1_555
N1A Zn1 1_555 1_555
N2A C6A 1_555 1_555
N3A C11A 1_555 1_555
O1A Zn1A 1_555 1_555
O2A Zn1A 1_555 1_555
O5A Zn1A 1_555 1_555
C1A N1A 1_555 1_555
H1A C1A 1_555 1_555
C2A C1A 1_555 1_555
H2A C2A 1_555 1_555
C3A C2A 1_555 1_555
H3A C3A 1_555 1_555
C4A C3A 1_555 1_555
C5A N1A 1_555 1_555
H4A C5A 1_555 1_555
C6A C4A 1_555 1_555
C7A C6A 1_555 1_555
H5A C7A 1_555 1_555
C8A C7A 1_555 1_555
C9A C8A 1_555 1_555
H6A C9A 1_555 1_555
C10A N2A 1_555 1_555
C11A H7A 1_555 1_555
C12A C10A 1_555 1_555
C13A C12A 1_555 1_555
H8A C13A 1_555 1_555
C14A C13A 1_555 1_555
H9A C14A 1_555 1_555
C15A N3A 1_555 1_555
H10A C15A 1_555 1_555
C16A O1A 1_555 1_555
H11A O5A 1_555 1_555
H12A O5A 1_555 1_555
Zn1A_2 O4 1_555 1_555
O3A_2 Zn1A 1_555 1_555
O4_2 Zn1A 1_555 1_555
C4 C5 1_555 1_555
C8 C16 1_555 1_555
C9 C10 1_555 1_555
C11 C12 1_555 1_555
C14 C15 1_555 1_555
O3A Zn1A_2 1_555 1_555
O4A C17A 1_555 1_555
O2A C16A 1_555 1_555
C4A C5A 1_555 1_555
C8A C16A 1_555 1_555
C9A C10A 1_555 1_555
C11A C12A 1_555 1_555
C14A C15A 1_555 1_555

#END
