
#######################################################################
#
#                 Cambridge Crystallographic Data Centre
#                                CCDC 
#
#######################################################################
#
# If this CIF has been generated from an entry in the Cambridge 
# Structural Database, then it will include bibliographic, chemical, 
# crystal, experimental, refinement or atomic coordinate data resulting 
# from the CCDC's data processing and validation procedures.
#
#######################################################################

data_XEWGAJ
_symmetry_cell_setting           triclinic
_symmetry_space_group_name_H-M   'P -1'
_symmetry_Int_Tables_number      2
_space_group_name_Hall           '-P 1'
loop_
_symmetry_equiv_pos_site_id
_symmetry_equiv_pos_as_xyz
1 x,y,z
2 -x,-y,-z
_cell_length_a                   9.6819(12)
_cell_length_b                   10.3291(12)
_cell_length_c                   12.1986(15)
_cell_angle_alpha                98.179(2)
_cell_angle_beta                 95.983(2)
_cell_angle_gamma                94.619(2)
_cell_volume                     1195.29
loop_
_atom_site_label
_atom_site_type_symbol
_atom_site_fract_x
_atom_site_fract_y
_atom_site_fract_z
Cd1 Cd 0.52831(3) 0.85775(3) 0.79864(2)
Cd2 Cd 0.84925(3) 1.06787(3) 0.89250(2)
N1 N 0.4452(4) 0.7825(3) 0.6100(3)
N2 N 0.1763(4) 0.4515(3) 0.5645(3)
N3 N -0.1037(3) 0.2369(3) 0.7925(3)
O1 O 0.6885(3) 0.9178(3) 0.9548(3)
O2 O 0.8971(3) 0.9086(3) 1.0362(3)
O3 O 0.5758(3) 0.9641(3) 1.1738(3)
O4 O 0.3754(3) 0.8366(3) 1.1219(3)
O5 O 0.4392(3) 0.3725(3) 1.1855(2)
O6 O 0.6300(3) 0.2856(3) 1.1409(2)
O7 O 0.2653(3) 0.0867(3) 0.2721(3)
O8 O 0.0412(4) 0.0928(4) 0.2396(3)
C1 C 0.3636(4) 0.6688(4) 0.5904(3)
H1 H 0.3188 0.6435 0.6489
C2 C 0.3414(4) 0.5864(4) 0.4892(3)
C3 C 0.4059(5) 0.6270(5) 0.4018(4)
H2 H 0.3964 0.5738 0.3327
C4 C 0.4841(6) 0.7470(5) 0.4187(4)
H3 H 0.5235 0.7779 0.3598
C5 C 0.5035(5) 0.8210(4) 0.5233(4)
H4 H 0.5591 0.9006 0.5343
C6 C 0.2537(4) 0.4600(4) 0.4807(3)
C7 C 0.2524(4) 0.3573(4) 0.3939(3)
H5 H 0.3108 0.3635 0.3386
C8 C 0.1620(4) 0.2447(4) 0.3911(3)
C9 C 0.0798(4) 0.2368(4) 0.4762(3)
H6 H 0.0171 0.1634 0.4752
C10 C 0.0928(4) 0.3411(4) 0.5634(3)
C11 C -0.0305(4) 0.2330(4) 0.7045(3)
H7 H -0.0062 0.1523 0.6721
C12 C 0.0103(4) 0.3446(4) 0.6602(3)
C13 C -0.0248(4) 0.4648(4) 0.7106(3)
H8 H 0.0048 0.5420 0.6855
C14 C -0.1042(5) 0.4684(4) 0.7987(4)
H9 H -0.1320 0.5475 0.8314
C15 C -0.1411(4) 0.3538(4) 0.8368(3)
H10 H -0.1945 0.3569 0.8961
C16 C 0.1546(5) 0.1347(4) 0.2939(3)
C17 C 0.7719(4) 0.8677(4) 1.0198(3)
C18 C 0.7174(4) 0.7510(3) 1.0673(3)
C19 C 0.5882(4) 0.7399(3) 1.1088(3)
C20 C 0.5043(4) 0.8554(4) 1.1347(3)
C21 C 0.5381(4) 0.6197(4) 1.1348(3)
H11 H 0.4507 0.6113 1.1597
C22 C 0.6147(4) 0.5117(4) 1.1247(3)
C23 C 0.7463(4) 0.5247(4) 1.0881(3)
H12 H 0.8007 0.4543 1.0835
C24 C 0.7954(4) 0.6432(4) 1.0586(3)
H13 H 0.8822 0.6510 1.0325
C25 C 0.5564(4) 0.3822(4) 1.1515(3)
O9 O 0.8701(4) 1.2074(3) 1.0608(3)
H14 H 0.909(5) 1.178(5) 1.112(4)
H15 H 0.805(6) 1.216(5) 1.080(4)
Cd1A Cd 0.47169(3) 0.14225(3) 0.20136(2)
Cd1A_2 Cd 0.47169(3) 0.14225(3) 1.20136(2)
Cd1A_3 Cd 0.47169(3) 1.14225(3) 1.20136(2)
Cd2_2 Cd -0.15075(3) 0.06787(3) 0.89250(2)
Cd2A Cd 0.15075(3) -0.06787(3) 0.10750(2)
Cd2A_2 Cd 0.15075(3) 0.93213(3) 1.10750(2)
Cd2A_3 Cd 1.15075(3) 0.93213(3) 1.10750(2)
N3_2 N 0.8963(3) 1.2369(3) 0.7925(3)
O2A O 1.1029(3) 1.0914(3) 0.9638(3)
O3A O 0.4242(3) 1.0359(3) 0.8262(3)
O4A O 0.6246(3) 1.1634(3) 0.8781(3)
O5A O 0.5608(3) 0.6275(3) 0.8145(2)
O6A O 0.3700(3) 0.7144(3) 0.8591(2)
O7A O 0.7347(3) 0.9133(3) 0.7279(3)
O8A O 0.9588(4) 0.9072(4) 0.7604(3)
O10 O 0.1947(7) -0.0033(7) 0.6459(6)
H16 H 0.2243 0.0182 0.7207
loop_
_geom_bond_atom_site_label_1
_geom_bond_atom_site_label_2
_geom_bond_site_symmetry_1
_geom_bond_site_symmetry_2
Cd1 N1 1_555 1_555
Cd2 O1 1_555 1_555
N1 C1 1_555 1_555
N2 C6 1_555 1_555
N3 C11 1_555 1_555
O1 Cd1 1_555 1_555
O2 Cd2 1_555 1_555
O3 C20 1_555 1_555
O4 C20 1_555 1_555
O5 C25 1_555 1_555
O6 C25 1_555 1_555
O7 C16 1_555 1_555
O8 C16 1_555 1_555
C1 H1 1_555 1_555
C2 C1 1_555 1_555
C3 C2 1_555 1_555
H2 C3 1_555 1_555
C4 C3 1_555 1_555
H3 C4 1_555 1_555
C5 N1 1_555 1_555
H4 C5 1_555 1_555
C6 C2 1_555 1_555
C7 C6 1_555 1_555
H5 C7 1_555 1_555
C8 C7 1_555 1_555
C9 C8 1_555 1_555
H6 C9 1_555 1_555
C10 N2 1_555 1_555
C11 H7 1_555 1_555
C12 C10 1_555 1_555
C13 C12 1_555 1_555
H8 C13 1_555 1_555
C14 C13 1_555 1_555
H9 C14 1_555 1_555
C15 N3 1_555 1_555
H10 C15 1_555 1_555
C16 C8 1_555 1_555
C17 O1 1_555 1_555
C18 C17 1_555 1_555
C19 C18 1_555 1_555
C20 C19 1_555 1_555
C21 C19 1_555 1_555
H11 C21 1_555 1_555
C22 C21 1_555 1_555
C23 C22 1_555 1_555
H12 C23 1_555 1_555
C24 C18 1_555 1_555
H13 C24 1_555 1_555
C25 C22 1_555 1_555
O9 Cd2 1_555 1_555
H14 O9 1_555 1_555
H15 O9 1_555 1_555
O10 H16 1_555 1_555
Cd1A O7 1_555 1_555
Cd1A_2 O5 1_555 1_555
Cd1A_3 O3 1_555 1_555
Cd2_2 N3 1_555 1_555
Cd2A O7 1_555 1_555
Cd2A_2 O4 1_555 1_555
Cd2A_3 O2 1_555 1_555
N3_2 Cd2 1_555 1_555
O2A Cd2 1_555 1_555
O3A Cd1 1_555 1_555
O4A Cd2 1_555 1_555
O5A Cd1 1_555 1_555
O6A Cd1 1_555 1_555
O7A Cd1 1_555 1_555
O8A Cd2 1_555 1_555
Cd2 O7A 1_555 1_555
O2 C17 1_555 1_555
O6 Cd1A_2 1_555 1_555
O8 Cd2A 1_555 1_555
C4 C5 1_555 1_555
C9 C10 1_555 1_555
C11 C12 1_555 1_555
C14 C15 1_555 1_555
C23 C24 1_555 1_555
Cd2A_3 O2A 1_555 1_555

#END
