
#######################################################################
#
#                 Cambridge Crystallographic Data Centre
#                                CCDC 
#
#######################################################################
#
# If this CIF has been generated from an entry in the Cambridge 
# Structural Database, then it will include bibliographic, chemical, 
# crystal, experimental, refinement or atomic coordinate data resulting 
# from the CCDC's data processing and validation procedures.
#
#######################################################################

data_XEWJEQ
_symmetry_cell_setting           triclinic
_symmetry_space_group_name_H-M   'P -1'
_symmetry_Int_Tables_number      2
_space_group_name_Hall           '-P 1'
loop_
_symmetry_equiv_pos_site_id
_symmetry_equiv_pos_as_xyz
1 x,y,z
2 -x,-y,-z
_cell_length_a                   10.9071(9)
_cell_length_b                   12.8656(10)
_cell_length_c                   13.8554(12)
_cell_angle_alpha                77.327(4)
_cell_angle_beta                 71.974(4)
_cell_angle_gamma                78.734(4)
_cell_volume                     1786.7
loop_
_atom_site_label
_atom_site_type_symbol
_atom_site_fract_x
_atom_site_fract_y
_atom_site_fract_z
Fe1 Fe 0.84313(12) 0.29897(9) 0.25377(10)
N1 N 0.8599(6) 0.4449(5) 0.2619(5)
N2 N 0.9647(7) 0.4973(5) 0.2121(6)
N3 N 0.9448(7) 0.5896(6) 0.2417(6)
N4 N 0.8272(8) 0.6030(6) 0.3107(6)
N5 N 0.6613(11) 0.4908(7) 0.3855(9)
H1 H 0.6102 0.5436 0.4153
N6 N 0.5063(10) 0.3721(8) 0.4746(8)
N7 N 0.5028(9) 0.2693(7) 0.4726(7)
N8 N 0.6065(8) 0.2296(6) 0.4095(6)
N9 N 0.6840(7) 0.3083(5) 0.3643(5)
C1 C 0.7789(9) 0.5105(7) 0.3214(8)
C2 C 0.6178(11) 0.3948(8) 0.4067(9)
N10 N 0.9993(6) 0.2947(5) 0.1389(6)
N11 N 1.1185(8) 0.2373(6) 0.1415(7)
N12 N 1.1968(8) 0.2545(8) 0.0510(7)
N13 N 1.1365(7) 0.3232(7) -0.0166(7)
N14 N 0.9198(6) 0.4117(5) 0.0067(6)
H2 H 0.9408 0.4594 -0.0497
N15 N 0.6940(6) 0.4459(5) 0.0142(6)
N16 N 0.5862(7) 0.4169(5) 0.0891(6)
N17 N 0.6147(6) 0.3647(5) 0.1707(6)
N18 N 0.7486(6) 0.3574(4) 0.1525(5)
C3 C 1.0152(7) 0.3446(6) 0.0424(7)
C4 C 0.7904(7) 0.4054(6) 0.0583(6)
N19 N 0.9437(8) 0.2388(5) 0.3522(6)
N20 N 1.0195(10) 0.2951(6) 0.3782(7)
N21 N 1.0686(9) 0.2314(6) 0.4485(7)
N22 N 1.0283(9) 0.1324(6) 0.4699(6)
N23 N 0.8917(7) 0.0588(5) 0.4047(6)
H3 H 0.8855 0.0022 0.4541
N24 N 0.8018(7) -0.0200(5) 0.3074(6)
N25 N 0.7605(8) 0.0172(6) 0.2221(6)
N26 N 0.7722(7) 0.1190(5) 0.1907(6)
N27 N 0.8231(6) 0.1497(5) 0.2551(5)
C5 C 0.9524(9) 0.1413(6) 0.4088(7)
C6 C 0.8404(8) 0.0635(6) 0.3241(6)
O1 O 0.4317(6) 0.1832(5) 0.1437(5)
N28 N 0.4044(7) 0.0709(6) 0.2980(6)
C7 C 0.4511(9) 0.1512(6) 0.2287(7)
H4 H 0.5061 0.1886 0.2460
C8 C 0.4381(11) 0.0309(9) 0.3902(8)
H5 H 0.4955 0.0764 0.3981
H6 H 0.4832 -0.0428 0.3889
H7 H 0.3590 0.0309 0.4483
C9 C 0.3067(15) 0.0194(13) 0.2811(13)
H8 H 0.2546 0.0725 0.2419
H9 H 0.2499 -0.0096 0.3477
H10 H 0.3500 -0.0391 0.2424
Na1 Na 0.3904(3) 0.3668(3) 0.0663(3)
O2 O 0.2518(5) 0.39897(8) 0.2123(7)
H11 H 0.1877 0.4585 0.2254
H12 H 0.1933 0.3486 0.2435
O3 O 1.6298(6) 0.0495(5) -0.0355(7)
N29 N 1.8278(7) 0.1067(6) -0.0787(7)
C10 C 1.7042(9) 0.1082(8) -0.0322(8)
H13 H 1.6664 0.1619 0.0099
C11 C 1.9089(13) 0.1760(11) -0.0697(11)
H14 H 1.9474 0.2161 -0.1379
H15 H 1.9783 0.1333 -0.0411
H16 H 1.8568 0.2266 -0.0240
C12 C 1.8953(19) 0.0167(15) -0.1303(15)
H17 H 1.9411 -0.0355 -0.0857
H18 H 1.9583 0.0425 -0.1949
H19 H 1.8322 -0.0177 -0.1453
Na2 Na 1.4084(3) 0.1326(3) -0.0077(3)
O4 O 1.3175(6) 0.14902(18) -0.1511(7)
H20 H 1.2956 0.0820 -0.1515
H21 H 1.2460 0.2039 -0.1453
O5 O 0.4973(10) 0.3043(7) -0.0940(7)
N30 N 0.6333(14) 0.3396(10) -0.2564(9)
C13 C 0.582(2) 0.3536(13) -0.1634(14)
H22 H 0.6114 0.4084 -0.1436
C14 C 0.609(4) 0.255(3) -0.297(3)
H23 H 0.6904 0.2074 -0.3190
H24 H 0.5452 0.2144 -0.2441
H25 H 0.5749 0.2864 -0.3565
C15 C 0.731(2) 0.4022(18) -0.3353(16)
H26 H 0.7988 0.3531 -0.3745
H27 H 0.6882 0.4541 -0.3821
H28 H 0.7703 0.4406 -0.3013
N12_2 N 0.1968(8) 0.2545(8) 0.0510(7)
N15A N 0.3060(6) 0.5541(5) -0.0142(6)
O1_2 O 1.4317(6) 0.1832(5) 0.1437(5)
Na1_2 Na 1.3904(3) 0.3668(3) 0.0663(3)
Na1A Na 0.6096(3) 0.6332(3) -0.0663(3)
O3A O 1.3702(6) -0.0495(5) 0.0355(7)
Na2_2 Na 0.4084(3) 0.1326(3) -0.0077(3)
Na2A Na 1.5916(3) -0.1326(3) 0.0077(3)
O5_2 O 1.4973(10) 0.3043(7) -0.0940(7)
N31 N 0.76708(7) 0.77004(6) 0.43071(4)
H29 H 0.7717 0.8244 0.3798
H30 H 0.6844 0.7759 0.4641
H31 H 0.8020 0.7265 0.3861
H32 H 0.7978 0.7639 0.4833
loop_
_geom_bond_atom_site_label_1
_geom_bond_atom_site_label_2
_geom_bond_site_symmetry_1
_geom_bond_site_symmetry_2
Fe1 N1 1_555 1_555
N1 N2 1_555 1_555
N2 N3 1_555 1_555
N3 N4 1_555 1_555
N4 C1 1_555 1_555
N5 H1 1_555 1_555
N6 N7 1_555 1_555
N7 N8 1_555 1_555
N8 N9 1_555 1_555
N9 Fe1 1_555 1_555
C1 N1 1_555 1_555
C2 N5 1_555 1_555
N10 Fe1 1_555 1_555
N11 N10 1_555 1_555
N12 N11 1_555 1_555
N13 N12 1_555 1_555
N14 H2 1_555 1_555
N15 N16 1_555 1_555
N16 N17 1_555 1_555
N17 N18 1_555 1_555
N18 Fe1 1_555 1_555
C3 N10 1_555 1_555
C4 N14 1_555 1_555
N19 Fe1 1_555 1_555
N20 N19 1_555 1_555
N21 N20 1_555 1_555
N22 N21 1_555 1_555
N23 H3 1_555 1_555
N24 N25 1_555 1_555
N25 N26 1_555 1_555
N26 N27 1_555 1_555
N27 Fe1 1_555 1_555
C5 N19 1_555 1_555
C6 N23 1_555 1_555
O1 C7 1_555 1_555
N28 C7 1_555 1_555
C7 H4 1_555 1_555
C8 N28 1_555 1_555
H5 C8 1_555 1_555
H6 C8 1_555 1_555
H7 C8 1_555 1_555
C9 N28 1_555 1_555
H8 C9 1_555 1_555
H9 C9 1_555 1_555
H10 C9 1_555 1_555
Na1 N16 1_555 1_555
O2 Na1 1_555 1_555
H11 O2 1_555 1_555
H12 O2 1_555 1_555
O3 C10 1_555 1_555
N29 C10 1_555 1_555
C10 H13 1_555 1_555
C11 N29 1_555 1_555
H14 C11 1_555 1_555
H15 C11 1_555 1_555
H16 C11 1_555 1_555
C12 N29 1_555 1_555
H17 C12 1_555 1_555
H18 C12 1_555 1_555
H19 C12 1_555 1_555
Na2 N12 1_555 1_555
O4 Na2 1_555 1_555
H20 O4 1_555 1_555
H21 O4 1_555 1_555
O5 Na1 1_555 1_555
N30 C13 1_555 1_555
C13 O5 1_555 1_555
H22 C13 1_555 1_555
C14 N30 1_555 1_555
H23 C14 1_555 1_555
H24 C14 1_555 1_555
H25 C14 1_555 1_555
C15 N30 1_555 1_555
H26 C15 1_555 1_555
H27 C15 1_555 1_555
H28 C15 1_555 1_555
N31 H29 1_555 1_555
H30 N31 1_555 1_555
H31 N31 1_555 1_555
H32 N31 1_555 1_555
N12_2 Na1 1_555 1_555
N15A Na1 1_555 1_555
O1_2 Na2 1_555 1_555
Na1_2 N12 1_555 1_555
Na1A N15 1_555 1_555
O3A Na2 1_555 1_555
Na2_2 O1 1_555 1_555
Na2A O3 1_555 1_555
O5_2 Na2 1_555 1_555
N5 C1 1_555 1_555
N6 C2 1_555 1_555
N9 C2 1_555 1_555
N13 C3 1_555 1_555
N14 C3 1_555 1_555
N15 C4 1_555 1_555
N18 C4 1_555 1_555
N22 C5 1_555 1_555
N23 C5 1_555 1_555
N24 C6 1_555 1_555
N27 C6 1_555 1_555
O1 Na1 1_555 1_555
O3 Na2 1_555 1_555
O5 Na2_2 1_555 1_555
N12_2 Na2_2 1_555 1_555
O1_2 Na1_2 1_555 1_555
Na1_2 O5_2 1_555 1_555
O3A Na2A 1_555 1_555

#END
