
#######################################################################
#
#                 Cambridge Crystallographic Data Centre
#                                CCDC 
#
#######################################################################
#
# If this CIF has been generated from an entry in the Cambridge 
# Structural Database, then it will include bibliographic, chemical, 
# crystal, experimental, refinement or atomic coordinate data resulting 
# from the CCDC's data processing and validation procedures.
#
#######################################################################

data_XEWLAN
_symmetry_cell_setting           triclinic
_symmetry_space_group_name_H-M   'P -1'
_symmetry_Int_Tables_number      2
_space_group_name_Hall           '-P 1'
loop_
_symmetry_equiv_pos_site_id
_symmetry_equiv_pos_as_xyz
1 x,y,z
2 -x,-y,-z
_cell_length_a                   15.3236(16)
_cell_length_b                   15.4411(17)
_cell_length_c                   21.331(3)
_cell_angle_alpha                111.181(3)
_cell_angle_beta                 106.205(4)
_cell_angle_gamma                92.444(3)
_cell_volume                     4460.85
loop_
_atom_site_label
_atom_site_type_symbol
_atom_site_fract_x
_atom_site_fract_y
_atom_site_fract_z
Y1 Y -0.25649(3) 0.00445(3) 0.24917(2)
K1 K -0.80412(6) -0.43045(6) 0.23374(5)
O1 O -0.27893(18) 0.01863(18) 0.14577(14)
O2 O -0.40937(17) -0.06553(17) 0.17237(14)
O3 O -0.53699(18) -0.13857(19) 0.08421(14)
O4 O -0.74613(19) -0.2981(2) 0.19536(17)
N1 N -0.3463(2) -0.0205(2) -0.03635(17)
N2 N -0.6958(2) -0.2602(2) 0.17018(18)
C1 C -0.2167(3) 0.0826(3) 0.0604(2)
H1 H -0.2087 0.1014 0.0229
H2 H -0.1635 0.0550 0.0778
H3 H -0.2220 0.1380 0.0995
C2 C -0.3023(3) 0.0116(3) 0.0316(2)
C3 C -0.4267(3) -0.0843(3) -0.0629(2)
C4 C -0.4684(3) -0.1182(3) -0.1363(2)
H4 H -0.4408 -0.0972 -0.1640
C5 C -0.5490(3) -0.1816(3) -0.1687(2)
H5 H -0.5767 -0.2050 -0.2187
C6 C -0.5886(3) -0.2105(3) -0.1281(2)
H6 H -0.6443 -0.2542 -0.1505
C7 C -0.5499(3) -0.1782(3) -0.0555(2)
H7 H -0.5797 -0.1996 -0.0290
C8 C -0.4661(3) -0.1132(3) -0.0196(2)
C9 C -0.4177(3) -0.0761(2) 0.0562(2)
C10 C -0.3323(3) -0.0157(3) 0.0818(2)
C11 C -0.4516(3) -0.0917(3) 0.1090(2)
C12 C -0.8339(3) -0.2202(3) 0.1037(3)
H8 H -0.8391 -0.2801 0.0644
H9 H -0.8588 -0.1740 0.0848
H10 H -0.8686 -0.2296 0.1335
C13 C -0.7251(3) -0.0967(3) 0.2139(3)
H11 H -0.7507 -0.1146 0.2456
H12 H -0.7596 -0.0511 0.1999
H13 H -0.6603 -0.0683 0.2386
C14 C -0.7326(3) -0.1841(3) 0.1479(2)
C15 C -0.6790(3) -0.1640(3) 0.1026(2)
H14 H -0.6993 -0.2158 0.0551
H15 H -0.6940 -0.1052 0.0964
C16 C -0.5767(3) -0.1541(3) 0.1341(2)
H16 H -0.5540 -0.0997 0.1809
C17 C -0.5525(3) -0.2444(3) 0.1422(2)
H17 H -0.4847 -0.2378 0.1617
H18 H -0.5726 -0.2964 0.0949
C18 C -0.5960(3) -0.2703(3) 0.1901(2)
C19 C -0.5497(3) -0.2091(3) 0.2680(2)
H19 H -0.5422 -0.1428 0.2743
H20 H -0.4892 -0.2264 0.2842
H21 H -0.5878 -0.2186 0.2957
C20 C -0.5912(3) -0.3738(3) 0.1781(3)
H22 H -0.6180 -0.3904 0.2098
H23 H -0.5268 -0.3835 0.1882
H24 H -0.6257 -0.4137 0.1288
O5 O -0.26644(19) -0.08577(18) 0.30944(13)
O6 O -0.26242(18) -0.16328(18) 0.17664(13)
O7 O -0.2536(2) -0.31600(18) 0.13824(14)
O8 O -0.2283(2) -0.4316(2) -0.12869(15)
N3 N -0.3180(2) -0.2670(2) 0.36491(19)
N4 N -0.2330(2) -0.4003(2) -0.06539(17)
C21 C -0.2807(3) -0.0987(3) 0.4303(2)
H25 H -0.3254 -0.0576 0.4211
H26 H -0.2181 -0.0649 0.4450
H27 H -0.2884 -0.1171 0.4681
C22 C -0.2962(3) -0.1848(3) 0.3642(2)
C23 C -0.3333(3) -0.3463(3) 0.3035(2)
C24 C -0.3612(3) -0.4325(3) 0.3065(3)
H28 H -0.3643 -0.4333 0.3501
C25 C -0.3836(3) -0.5144(3) 0.2484(3)
H29 H -0.4036 -0.5718 0.2510
C26 C -0.3768(3) -0.5129(3) 0.1856(3)
H30 H -0.3924 -0.5698 0.1447
C27 C -0.3477(3) -0.4298(3) 0.1814(2)
H31 H -0.3436 -0.4309 0.1375
C28 C -0.3238(3) -0.3431(3) 0.2409(2)
C29 C -0.2953(3) -0.2523(3) 0.2413(2)
C30 C -0.2859(3) -0.1710(3) 0.3024(2)
C31 C -0.2717(3) -0.2378(3) 0.1841(2)
C32 C -0.1321(3) -0.5091(3) -0.0391(2)
H32 H -0.1890 -0.5541 -0.0569
H33 H -0.0874 -0.5205 -0.0011
H34 H -0.1065 -0.5170 -0.0778
C33 C -0.0688(3) -0.3377(3) 0.0049(3)
H35 H -0.0593 -0.3434 -0.0399
H36 H -0.0142 -0.3510 0.0349
H37 H -0.0790 -0.2737 0.0294
C34 C -0.1530(3) -0.4083(3) -0.0102(2)
C35 C -0.1806(3) -0.3940(3) 0.0560(2)
H38 H -0.2221 -0.4512 0.0468
H39 H -0.1246 -0.3873 0.0954
C36 C -0.2280(3) -0.3098(3) 0.0794(2)
H40 H -0.1858 -0.2497 0.0945
C37 C -0.3137(3) -0.3200(3) 0.0187(2)
H41 H -0.3562 -0.3770 0.0085
H42 H -0.3452 -0.2651 0.0339
C38 C -0.2945(3) -0.3271(3) -0.0486(2)
C39 C -0.2468(3) -0.2332(3) -0.0429(2)
H43 H -0.1944 -0.2068 0.0009
H44 H -0.2908 -0.1889 -0.0422
H45 H -0.2249 -0.2444 -0.0837
C40 C -0.3839(3) -0.3608(3) -0.1106(2)
H46 H -0.3712 -0.3627 -0.1536
H47 H -0.4276 -0.3173 -0.1002
H48 H -0.4105 -0.4239 -0.1179
O9 O -0.11613(18) -0.01342(18) 0.24255(13)
O10 O -0.13590(19) 0.08272(18) 0.36685(13)
O11 O -0.00540(18) 0.13193(19) 0.45772(13)
O12 O -0.1173(2) 0.2960(2) 0.68974(14)
N5 N 0.1105(2) 0.0450(2) 0.24652(17)
N6 N -0.0919(2) 0.2578(2) 0.63483(16)
C41 C -0.0184(3) -0.0625(3) 0.1512(2)
H49 H 0.0260 -0.0686 0.1251
H50 H -0.0728 -0.0411 0.1280
H51 H -0.0368 -0.1237 0.1518
C42 C 0.0250(3) 0.0076(3) 0.2258(2)
C43 C 0.1503(3) 0.1086(3) 0.3159(2)
C44 C 0.2432(3) 0.1491(3) 0.3352(2)
H52 H 0.2739 0.1317 0.3005
C45 C 0.2898(3) 0.2116(3) 0.4013(2)
H53 H 0.3521 0.2383 0.4130
C46 C 0.2435(3) 0.2359(3) 0.4522(2)
H54 H 0.2754 0.2790 0.4992
C47 C 0.1529(3) 0.1985(3) 0.4351(2)
H55 H 0.1235 0.2170 0.4706
C48 C 0.1023(3) 0.1334(3) 0.3663(2)
C49 C 0.0065(3) 0.0908(3) 0.3422(2)
C50 C -0.0335(3) 0.0289(3) 0.2711(2)
C51 C -0.0515(3) 0.1016(3) 0.3876(2)
C52 C 0.0285(3) 0.1982(3) 0.7039(2)
H56 H 0.0710 0.2545 0.7142
H57 H 0.0627 0.1457 0.7025
H58 H -0.0008 0.2107 0.7410
C53 C -0.1167(3) 0.0917(3) 0.6186(2)
H59 H -0.1471 0.1101 0.6551
H60 H -0.0866 0.0373 0.6197
H61 H -0.1625 0.0751 0.5719
C54 C -0.0450(3) 0.1731(3) 0.6325(2)
C55 C 0.0018(3) 0.1519(3) 0.5753(2)
H62 H 0.0572 0.2000 0.5927
H63 H 0.0224 0.0900 0.5670
C56 C -0.0603(3) 0.1507(3) 0.5053(2)
H64 H -0.1154 0.1006 0.4855
C57 C -0.0893(3) 0.2460(3) 0.5172(2)
H65 H -0.1281 0.2456 0.4714
H66 H -0.0339 0.2940 0.5347
C58 C -0.1426(3) 0.2735(3) 0.5699(2)
C59 C -0.1472(3) 0.3791(3) 0.5936(2)
H67 H -0.1874 0.3956 0.6233
H68 H -0.1717 0.3942 0.5519
H69 H -0.0852 0.4151 0.6209
C60 C -0.2401(3) 0.2188(3) 0.5392(2)
H70 H -0.2393 0.1529 0.5111
H71 H -0.2796 0.2461 0.5090
H72 H -0.2642 0.2222 0.5779
O13 O -0.34574(17) 0.09046(17) 0.30581(14)
O14 O -0.21279(17) 0.17105(18) 0.27699(13)
O15 O -0.1982(2) 0.32674(18) 0.31122(15)
O16 O 0.0674(2) 0.4404(2) 0.21908(18)
N7 N -0.4388(2) 0.2670(3) 0.41528(18)
N8 N 0.0057(2) 0.4108(2) 0.23989(19)
C61 C -0.4922(3) 0.1001(3) 0.3550(2)
H73 H -0.4614 0.0596 0.3775
H74 H -0.5139 0.0660 0.3035
H75 H -0.5448 0.1183 0.3716
C62 C -0.4259(3) 0.1865(3) 0.3741(2)
C63 C -0.3772(3) 0.3464(3) 0.4331(2)
C64 C -0.3900(3) 0.4301(3) 0.4827(2)
H76 H -0.4396 0.4292 0.5011
C65 C -0.3319(4) 0.5135(3) 0.5051(3)
H77 H -0.3408 0.5696 0.5389
C66 C -0.2599(4) 0.5137(3) 0.4771(2)
H78 H -0.2198 0.5710 0.4921
C67 C -0.2453(3) 0.4329(3) 0.4283(2)
H79 H -0.1951 0.4353 0.4107
C68 C -0.3050(3) 0.3460(3) 0.4040(2)
C69 C -0.2935(3) 0.2567(3) 0.3553(2)
C70 C -0.3509(3) 0.1747(3) 0.3439(2)
C71 C -0.2317(3) 0.2453(3) 0.3123(2)
C72 C -0.0822(3) 0.5328(3) 0.2201(3)
H80 H -0.0514 0.5731 0.2700
H81 H -0.1439 0.5483 0.2048
H82 H -0.0463 0.5432 0.1912
C73 C -0.1303(3) 0.3647(3) 0.1319(2)
H83 H -0.0879 0.3732 0.1069
H84 H -0.1898 0.3809 0.1116
H85 H -0.1387 0.2990 0.1269
C74 C -0.0901(3) 0.4293(3) 0.2110(2)
C75 C -0.1484(3) 0.4135(3) 0.2540(2)
H86 H -0.2137 0.4124 0.2289
H87 H -0.1305 0.4675 0.3002
C76 C -0.1402(3) 0.3236(3) 0.2671(2)
H88 H -0.1628 0.2671 0.2215
C77 C -0.0414(3) 0.3250(3) 0.3063(2)
H89 H -0.0229 0.3785 0.3530
H90 H -0.0367 0.2664 0.3151
C78 C 0.0246(3) 0.3337(3) 0.2675(2)
C79 C 0.0178(3) 0.2413(3) 0.2034(3)
H91 H -0.0468 0.2187 0.1739
H92 H 0.0419 0.1934 0.2206
H93 H 0.0539 0.2534 0.1752
C80 C 0.1230(3) 0.3605(3) 0.3178(3)
H94 H 0.1658 0.3625 0.2915
H95 H 0.1364 0.3138 0.3389
H96 H 0.1301 0.4226 0.3554
N9 N -0.6389(6) -0.3926(6) 0.3404(4)
C81 C -0.5793(6) -0.3253(7) 0.3853(5)
C82 C -0.4987(5) -0.2479(6) 0.4434(4)
H97 H -0.4891 -0.2537 0.4890
H98 H -0.5141 -0.1855 0.4474
H99 H -0.4423 -0.2558 0.4302
K1_2 K 0.19588(6) 0.56955(6) 0.23374(5)
K1A K -0.19588(6) -0.56955(6) -0.23374(5)
K1A_2 K -0.19588(6) 0.43045(6) 0.76626(5)
O8A O -0.7717(2) -0.5684(2) 0.12869(15)
O12A O -0.8827(2) -0.2960(2) 0.31026(14)
O16_2 O -0.9326(2) -0.5596(2) 0.21908(18)
N10 N 0.0133(4) -0.8718(4) 0.0281(3)
C83 C 0.0746(5) -0.9034(5) 0.0581(4)
C84 C 0.1512(4) -0.9294(4) 0.1002(3)
H100 H 0.1822 -0.8752 0.1443
H101 H 0.1947 -0.9499 0.0737
H102 H 0.1292 -0.9810 0.1112
C85 C -0.6765(8) 0.2406(8) 0.2368(6)
H103 H -0.7085 0.2528 0.1948
H104 H -0.7210 0.2292 0.2593
H105 H -0.6464 0.1852 0.2226
C86 C -0.6100(9) 0.3189(11) 0.2849(7)
N11 N -0.5847(7) 0.4098(8) 0.3167(5)
O17 O -0.5000 0.0000 0.5000
loop_
_geom_bond_atom_site_label_1
_geom_bond_atom_site_label_2
_geom_bond_site_symmetry_1
_geom_bond_site_symmetry_2
Y1 O1 1_555 1_555
K1 O4 1_555 1_555
O1 C10 1_555 1_555
O2 Y1 1_555 1_555
O3 C11 1_555 1_555
O4 N2 1_555 1_555
N1 C2 1_555 1_555
N2 C14 1_555 1_555
C1 H1 1_555 1_555
H2 C1 1_555 1_555
H3 C1 1_555 1_555
C2 C1 1_555 1_555
C3 N1 1_555 1_555
C4 C3 1_555 1_555
H4 C4 1_555 1_555
C5 C4 1_555 1_555
H5 C5 1_555 1_555
C6 C5 1_555 1_555
H6 C6 1_555 1_555
C7 C6 1_555 1_555
H7 C7 1_555 1_555
C8 C3 1_555 1_555
C9 C8 1_555 1_555
C10 C2 1_555 1_555
C11 O2 1_555 1_555
C12 H8 1_555 1_555
H9 C12 1_555 1_555
H10 C12 1_555 1_555
C13 H11 1_555 1_555
H12 C13 1_555 1_555
H13 C13 1_555 1_555
C14 C12 1_555 1_555
C15 C14 1_555 1_555
H14 C15 1_555 1_555
H15 C15 1_555 1_555
C16 O3 1_555 1_555
H16 C16 1_555 1_555
C17 C16 1_555 1_555
H17 C17 1_555 1_555
H18 C17 1_555 1_555
C18 N2 1_555 1_555
C19 C18 1_555 1_555
H19 C19 1_555 1_555
H20 C19 1_555 1_555
H21 C19 1_555 1_555
C20 C18 1_555 1_555
H22 C20 1_555 1_555
H23 C20 1_555 1_555
H24 C20 1_555 1_555
O5 Y1 1_555 1_555
O6 Y1 1_555 1_555
O7 C31 1_555 1_555
O8 N4 1_555 1_555
N3 C22 1_555 1_555
N4 C34 1_555 1_555
C21 H25 1_555 1_555
H26 C21 1_555 1_555
H27 C21 1_555 1_555
C22 C21 1_555 1_555
C23 N3 1_555 1_555
C24 C23 1_555 1_555
H28 C24 1_555 1_555
C25 C24 1_555 1_555
H29 C25 1_555 1_555
C26 C25 1_555 1_555
H30 C26 1_555 1_555
C27 C26 1_555 1_555
H31 C27 1_555 1_555
C28 C23 1_555 1_555
C29 C28 1_555 1_555
C30 O5 1_555 1_555
C31 O6 1_555 1_555
C32 H32 1_555 1_555
H33 C32 1_555 1_555
H34 C32 1_555 1_555
C33 H35 1_555 1_555
H36 C33 1_555 1_555
H37 C33 1_555 1_555
C34 C32 1_555 1_555
C35 C34 1_555 1_555
H38 C35 1_555 1_555
H39 C35 1_555 1_555
C36 O7 1_555 1_555
H40 C36 1_555 1_555
C37 C36 1_555 1_555
H41 C37 1_555 1_555
H42 C37 1_555 1_555
C38 N4 1_555 1_555
C39 C38 1_555 1_555
H43 C39 1_555 1_555
H44 C39 1_555 1_555
H45 C39 1_555 1_555
C40 C38 1_555 1_555
H46 C40 1_555 1_555
H47 C40 1_555 1_555
H48 C40 1_555 1_555
O9 Y1 1_555 1_555
O10 Y1 1_555 1_555
O11 C51 1_555 1_555
O12 N6 1_555 1_555
N5 C42 1_555 1_555
N6 C54 1_555 1_555
C41 H49 1_555 1_555
H50 C41 1_555 1_555
H51 C41 1_555 1_555
C42 C41 1_555 1_555
C43 N5 1_555 1_555
C44 C43 1_555 1_555
H52 C44 1_555 1_555
C45 C44 1_555 1_555
H53 C45 1_555 1_555
C46 C45 1_555 1_555
H54 C46 1_555 1_555
C47 C46 1_555 1_555
H55 C47 1_555 1_555
C48 C43 1_555 1_555
C49 C48 1_555 1_555
C50 O9 1_555 1_555
C51 O10 1_555 1_555
C52 H56 1_555 1_555
H57 C52 1_555 1_555
H58 C52 1_555 1_555
C53 H59 1_555 1_555
H60 C53 1_555 1_555
H61 C53 1_555 1_555
C54 C52 1_555 1_555
C55 C54 1_555 1_555
H62 C55 1_555 1_555
H63 C55 1_555 1_555
C56 O11 1_555 1_555
H64 C56 1_555 1_555
C57 C56 1_555 1_555
H65 C57 1_555 1_555
H66 C57 1_555 1_555
C58 N6 1_555 1_555
C59 C58 1_555 1_555
H67 C59 1_555 1_555
H68 C59 1_555 1_555
H69 C59 1_555 1_555
C60 C58 1_555 1_555
H70 C60 1_555 1_555
H71 C60 1_555 1_555
H72 C60 1_555 1_555
O13 Y1 1_555 1_555
O14 Y1 1_555 1_555
O15 C71 1_555 1_555
O16 N8 1_555 1_555
N7 C62 1_555 1_555
N8 C74 1_555 1_555
C61 H73 1_555 1_555
H74 C61 1_555 1_555
H75 C61 1_555 1_555
C62 C61 1_555 1_555
C63 N7 1_555 1_555
C64 C63 1_555 1_555
H76 C64 1_555 1_555
C65 C64 1_555 1_555
H77 C65 1_555 1_555
C66 C65 1_555 1_555
H78 C66 1_555 1_555
C67 C66 1_555 1_555
H79 C67 1_555 1_555
C68 C63 1_555 1_555
C69 C68 1_555 1_555
C70 O13 1_555 1_555
C71 O14 1_555 1_555
C72 H80 1_555 1_555
H81 C72 1_555 1_555
H82 C72 1_555 1_555
C73 H83 1_555 1_555
H84 C73 1_555 1_555
H85 C73 1_555 1_555
C74 C72 1_555 1_555
C75 C74 1_555 1_555
H86 C75 1_555 1_555
H87 C75 1_555 1_555
C76 O15 1_555 1_555
H88 C76 1_555 1_555
C77 C76 1_555 1_555
H89 C77 1_555 1_555
H90 C77 1_555 1_555
C78 N8 1_555 1_555
C79 C78 1_555 1_555
H91 C79 1_555 1_555
H92 C79 1_555 1_555
H93 C79 1_555 1_555
C80 C78 1_555 1_555
H94 C80 1_555 1_555
H95 C80 1_555 1_555
H96 C80 1_555 1_555
N9 K1 1_555 1_555
C81 N9 1_555 1_555
C82 C81 1_555 1_555
H97 C82 1_555 1_555
H98 C82 1_555 1_555
H99 C82 1_555 1_555
N10 C83 1_555 1_555
C83 C84 1_555 1_555
C84 H100 1_555 1_555
H101 C84 1_555 1_555
H102 C84 1_555 1_555
C85 H103 1_555 1_555
H104 C85 1_555 1_555
H105 C85 1_555 1_555
C86 C85 1_555 1_555
N11 C86 1_555 1_555
K1_2 O16 1_555 1_555
K1A O8 1_555 1_555
K1A_2 O12 1_555 1_555
O8A K1 1_555 1_555
O12A K1 1_555 1_555
O16_2 K1 1_555 1_555
C7 C8 1_555 1_555
C9 C10 1_555 1_555
C9 C11 1_555 1_555
C13 C14 1_555 1_555
C15 C16 1_555 1_555
C17 C18 1_555 1_555
C22 C30 1_555 1_555
C27 C28 1_555 1_555
C29 C30 1_555 1_555
C29 C31 1_555 1_555
C33 C34 1_555 1_555
C35 C36 1_555 1_555
C37 C38 1_555 1_555
C42 C50 1_555 1_555
C47 C48 1_555 1_555
C49 C50 1_555 1_555
C49 C51 1_555 1_555
C53 C54 1_555 1_555
C55 C56 1_555 1_555
C57 C58 1_555 1_555
C62 C70 1_555 1_555
C67 C68 1_555 1_555
C69 C70 1_555 1_555
C69 C71 1_555 1_555
C73 C74 1_555 1_555
C75 C76 1_555 1_555
C77 C78 1_555 1_555

#END
