
#######################################################################
#
#                 Cambridge Crystallographic Data Centre
#                                CCDC 
#
#######################################################################
#
# If this CIF has been generated from an entry in the Cambridge 
# Structural Database, then it will include bibliographic, chemical, 
# crystal, experimental, refinement or atomic coordinate data resulting 
# from the CCDC's data processing and validation procedures.
#
#######################################################################

data_XEWNIX
_symmetry_cell_setting           monoclinic
_symmetry_space_group_name_H-M   'P 21/n'
_symmetry_Int_Tables_number      14
_space_group_name_Hall           '-P 2yn'
loop_
_symmetry_equiv_pos_site_id
_symmetry_equiv_pos_as_xyz
1 x,y,z
2 1/2-x,1/2+y,1/2-z
3 -x,-y,-z
4 1/2+x,1/2-y,1/2+z
_cell_length_a                   14.4400(10)
_cell_length_b                   13.4230(10)
_cell_length_c                   23.497(3)
_cell_angle_alpha                90
_cell_angle_beta                 104.440(10)
_cell_angle_gamma                90
_cell_volume                     4410.5
loop_
_atom_site_label
_atom_site_type_symbol
_atom_site_fract_x
_atom_site_fract_y
_atom_site_fract_z
O28 O 0.112(3) 0.302(3) 0.6494(19)
O29 O 0.098(4) 0.487(4) 0.528(2)
O30 O 0.163(4) 0.979(5) 0.762(3)
O31 O 0.257(6) 0.805(6) 0.741(3)
O32 O 0.161(4) 0.654(5) 0.692(3)
O33 O 0.007(5) 0.544(5) 0.386(3)
O34 O 0.404(11) 0.988(11) 0.781(6)
O35 O 0.268(8) 0.142(9) 0.700(5)
C1 C 0.524(2) 0.1587(19) 0.6994(11)
H1 H 0.4717 0.1766 0.7136
C2 C 0.511(2) 0.098(2) 0.6489(13)
H2 H 0.4514 0.0759 0.6285
C3 C 0.591(2) 0.0756(19) 0.6320(11)
H3 H 0.5847 0.0344 0.5994
C4 C 0.676(2) 0.107(2) 0.6581(12)
H4 H 0.7277 0.0885 0.6434
C5 C 0.6920(17) 0.1676(17) 0.7065(10)
C6 C 0.7791(17) 0.2126(16) 0.7357(10)
C7 C 0.8696(19) 0.1916(18) 0.7243(11)
H5 H 0.8758 0.1433 0.6971
C8 C 0.943(2) 0.242(2) 0.7533(13)
H6 H 1.0016 0.2291 0.7445
C9 C 0.944(2) 0.316(2) 0.7967(13)
H7 H 0.9975 0.3516 0.8161
C10 C 0.852(2) 0.327(2) 0.8067(11)
H8 H 0.8436 0.372 0.8351
C11 C 0.510(2) 0.368(2) 0.8347(11)
C12 C 0.5993(18) 0.4273(17) 0.8599(10)
C13 C 0.272(2) 0.430(2) 0.9092(12)
H9 H 0.2805 0.3814 0.8824
C14 C 0.1883(19) 0.4287(18) 0.9326(11)
H10 H 0.1391 0.3829 0.9198
C15 C 0.1852(19) 0.4956(19) 0.9729(11)
H11 H 0.1343 0.4919 0.9905
C16 C 0.2521(18) 0.5725(17) 0.9917(10)
H12 H 0.2461 0.6199 1.0194
C17 C 0.3277(19) 0.5711(18) 0.9653(10)
C18 C 0.4119(17) 0.6399(17) 0.9833(10)
C19 C 0.4101(18) 0.7158(16) 1.0245(10)
H13 H 0.3581 0.7284 1.0402
C20 C 0.497(2) 0.771(2) 1.0392(13)
H14 H 0.503 0.8215 1.067
C21 C 0.574(2) 0.7536(19) 1.0144(11)
H15 H 0.629 0.792 1.0253
C22 C 0.567(2) 0.679(2) 0.9740(12)
H16 H 0.6166 0.6679 0.9563
Cu1 Cu 0.6473(2) 0.2892(2) 0.79211(14)
Cu2 Cu 0.4570(2) 0.5179(2) 0.89823(15)
N1 N 0.6155(15) 0.1915(13) 0.7281(8)
N2 N 0.7777(15) 0.2767(14) 0.7778(8)
N3 N 0.3389(14) 0.5034(14) 0.9275(8)
N4 N 0.4829(15) 0.6198(14) 0.9589(8)
O1 O 0.6861(12) 0.1578(12) 0.8726(7)
O2 O 0.7818(13) 0.2138(13) 1.0991(7)
O3 O 0.9712(13) 0.3836(13) 0.9660(7)
O4 O 0.5955(13) 0.4412(12) 0.7262(7)
O5 O 0.7113(12) -0.2267(11) 0.9062(7)
O6 O 0.3120(13) 0.6733(12) 0.6343(7)
O7 O 0.7705(14) 0.1303(13) 0.9895(8)
O8 O 0.9185(14) 0.2436(13) 1.0371(8)
O9 O 0.8702(15) 0.2194(14) 0.9237(8)
O10 O 0.4575(14) 0.3726(14) 0.6305(8)
O11 O 1.0964(14) 0.2519(14) 1.0343(8)
O12 O 1.0533(13) 0.2223(13) 0.9225(7)
O13 O 0.8453(15) 0.0587(14) 0.8537(8)
O14 O 0.7485(14) -0.0276(14) 0.9230(8)
O15 O 0.6387(15) 0.3656(14) 0.6272(8)
O16 O 0.7914(13) -0.1401(12) 1.0154(7)
O17 O 0.4726(15) 0.5637(14) 0.6452(8)
O18 O 0.8163(15) 0.0137(16) 1.0837(9)
O19 O 0.930(2) 0.098(2) 0.9921(13)
O20 O 1.0377(19) -0.0124(19) 0.9391(11)
O21 O 1.051(2) 0.099(2) 0.9890(12)
O22 O 0.908(2) -0.021(2) 0.9408(12)
O23 O 0.5179(12) 0.2945(12) 0.8044(7)
O24 O 0.6777(11) 0.3987(10) 0.8520(6)
O25 O 0.4349(14) 0.3964(13) 0.8506(8)
O26 O 0.5905(12) 0.5038(13) 0.8910(7)
O27 O 0.4112(16) 0.6128(15) 0.8233(9)
Si1 Si 1.00000 0.00000 1.00000
W1 W 0.78682(9) 0.10536(9) 0.91354(5)
W2 W 0.85271(9) 0.14417(8) 1.06790(5)
W3 W 0.98254(8) 0.26003(7) 0.97782(5)
W4 W 0.56606(9) 0.46194(8) 0.65412(5)
W5 W 0.80398(8) -0.15508(8) 0.93617(5)
W6 W 0.36943(8) 0.61639(8) 0.59009(5)
C1A C 0.976(2) 0.6587(19) 0.8006(11)
H1A H 1.0283 0.6766 0.7864
C2A C 0.989(2) 0.598(2) 0.8511(13)
H2A H 1.0486 0.5759 0.8715
C3A C 0.909(2) 0.5756(19) 0.8680(11)
H3A H 0.9153 0.5344 0.9006
C4A C 0.824(2) 0.607(2) 0.8419(12)
H4A H 0.7723 0.5885 0.8566
C5A C 0.8080(17) 0.6676(17) 0.7935(10)
C6A C 0.7209(17) 0.7126(16) 0.7643(10)
C7A C 0.6304(19) 0.6916(18) 0.7757(11)
H5A H 0.6242 0.6433 0.8029
C8A C 0.557(2) 0.742(2) 0.7467(13)
H6A H 0.4984 0.7291 0.7555
C9A C 0.556(2) 0.816(2) 0.7033(13)
H7A H 0.5025 0.8516 0.6839
C10A C 0.648(2) 0.827(2) 0.6933(11)
H8A H 0.6564 0.872 0.6649
C11A C 0.990(2) 0.868(2) 0.6653(11)
C12A C 0.9007(18) 0.9273(17) 0.6401(10)
C13A C 1.228(2) 0.930(2) 0.5908(12)
H9A H 1.2195 0.8814 0.6176
C14A C 1.3117(19) 0.9287(18) 0.5674(11)
H10A H 1.3609 0.8829 0.5802
C15A C 1.3148(19) 0.9956(19) 0.5271(11)
H11A H 1.3657 0.9919 0.5095
C16A C 1.2479(18) 1.0725(17) 0.5083(10)
H12A H 1.2539 1.1199 0.4806
C17A C 1.1723(19) 1.0711(18) 0.5347(10)
C18A C 1.0881(17) 1.1399(17) 0.5167(10)
C19A C 1.0899(18) 1.2158(16) 0.4755(10)
H13A H 1.1419 1.2284 0.4598
C20A C 1.003(2) 1.271(2) 0.4608(13)
H14A H 0.997 1.3215 0.433
C21A C 0.926(2) 1.2536(19) 0.4856(11)
H15A H 0.871 1.292 0.4747
C22A C 0.933(2) 1.179(2) 0.5260(12)
H16A H 0.8834 1.1679 0.5437
Cu1A Cu 0.8527(2) 0.7892(2) 0.70789(14)
Cu1A_2 Cu 0.8527(2) -0.2108(2) 0.70789(14)
Cu2A Cu 1.0430(2) 1.0179(2) 0.60177(15)
N1A N 0.8845(15) 0.6915(13) 0.7719(8)
N2A N 0.7223(15) 0.7767(14) 0.7222(8)
N3A N 1.1611(14) 1.0034(14) 0.5725(8)
N4A N 1.0171(15) 1.1198(14) 0.5411(8)
O1A O 0.8139(12) 0.6578(12) 0.6274(7)
O2C O 0.2818(13) 0.2862(13) 0.5991(7)
O3B O 1.0288(13) -0.3836(13) 1.0340(7)
O4A O 0.9045(13) -0.0588(12) 0.7738(7)
O4A_2 O 0.9045(13) 0.9412(12) 0.7738(7)
O5A O 0.7887(12) 0.2733(11) 0.5938(7)
O6A O 1.1880(13) 0.1733(12) 0.8657(7)
O7A O 0.7295(14) 0.6303(13) 0.5105(8)
O7C O 0.2705(14) 0.3697(13) 0.4895(8)
O8C O 0.4185(14) 0.2564(13) 0.5371(8)
O8B O 1.0815(14) -0.2436(13) 0.9629(8)
O9A O 0.6298(15) 0.7194(14) 0.5763(8)
O9B O 1.1298(15) -0.2194(14) 1.0763(8)
O10C O 0.9575(14) 0.1274(14) 1.1305(8)
O10A O 1.0425(14) -0.1274(14) 0.8695(8)
O11B O 0.9036(14) -0.2519(14) 0.9657(8)
O11C O 0.5964(14) 0.2481(14) 0.5343(8)
O12A O 0.4467(13) 0.7223(13) 0.5775(7)
O12B O 0.9467(13) -0.2223(13) 1.0775(7)
O13A O 0.6547(15) 0.5587(14) 0.6463(8)
O14A O 0.7515(14) 0.4724(14) 0.5770(8)
O15A O 0.8613(15) -0.1344(14) 0.8728(8)
O16C O 0.2914(13) 0.6401(12) 0.5154(7)
O16A O 0.7086(13) 0.3599(12) 0.4846(7)
O16B O 1.2086(13) 0.1401(12) 0.9846(7)
O17A O 1.0274(15) 0.0637(14) 0.8548(8)
O18C O 0.3163(15) 0.4863(16) 0.5837(9)
O18B O 1.1837(15) -0.0137(16) 0.9163(9)
O19B O 1.070(2) -0.098(2) 1.0079(13)
O19A O 0.570(2) 0.598(2) 0.5079(13)
O19C O 0.430(2) 0.402(2) 0.4921(13)
O20B O 0.9623(19) 0.0124(19) 1.0609(11)
O20A O 0.4623(19) 0.4876(19) 0.5609(11)
O21B O 0.949(2) -0.099(2) 1.0110(12)
O21A O 0.449(2) 0.599(2) 0.5110(12)
O22B O 1.092(2) 0.021(2) 1.0592(12)
O22A O 0.592(2) 0.479(2) 0.5592(12)
O23A O 0.9821(12) 0.7945(12) 0.6956(7)
O24A O 0.8223(11) 0.8987(10) 0.6480(6)
O25A O 1.0651(14) 0.8964(13) 0.6494(8)
O26A O 0.9095(12) 1.0038(13) 0.6090(7)
O27A O 1.0888(16) 1.1128(15) 0.6767(9)
W1A W 0.71318(9) 0.60536(9) 0.58646(5)
W1B W 1.21318(9) -0.10536(9) 1.08646(5)
W2C W 0.35271(9) 0.35583(8) 0.56790(5)
W2B W 1.14729(9) -0.14417(8) 0.93210(5)
W2A W 0.64729(9) 0.64417(8) 0.43210(5)
W3B W 1.01746(8) -0.26003(7) 1.02218(5)
W3A W 0.51746(8) 0.76003(7) 0.52218(5)
W3C W 0.48254(8) 0.23997(7) 0.47782(5)
W4A W 0.93394(9) -0.03806(8) 0.84588(5)
W4C W 1.06606(9) 0.03806(8) 1.15412(5)
W5A W 0.69602(8) 0.34492(8) 0.56383(5)
W5B W 1.19602(8) 0.15508(8) 1.06383(5)
W5C W 0.30398(8) 0.65508(8) 0.43617(5)
W6A W 1.13057(8) 0.11639(8) 0.90991(5)
W6C W 0.86943(8) -0.11639(8) 1.09009(5)
loop_
_geom_bond_atom_site_label_1
_geom_bond_atom_site_label_2
_geom_bond_site_symmetry_1
_geom_bond_site_symmetry_2
C1 H1 1_555 1_555
C2 C1 1_555 1_555
H2 C2 1_555 1_555
C3 C2 1_555 1_555
H3 C3 1_555 1_555
C4 C3 1_555 1_555
H4 C4 1_555 1_555
C5 C4 1_555 1_555
C6 C5 1_555 1_555
C7 C6 1_555 1_555
H5 C7 1_555 1_555
C8 C7 1_555 1_555
H6 C8 1_555 1_555
C9 C8 1_555 1_555
H7 C9 1_555 1_555
C10 C9 1_555 1_555
H8 C10 1_555 1_555
C11 C12 1_555 1_555
C12 O24 1_555 1_555
C13 H9 1_555 1_555
C14 C13 1_555 1_555
H10 C14 1_555 1_555
C15 C14 1_555 1_555
H11 C15 1_555 1_555
C16 C15 1_555 1_555
H12 C16 1_555 1_555
C17 C16 1_555 1_555
C18 C17 1_555 1_555
C19 C18 1_555 1_555
H13 C19 1_555 1_555
C20 C19 1_555 1_555
H14 C20 1_555 1_555
C21 C20 1_555 1_555
H15 C21 1_555 1_555
C22 C21 1_555 1_555
H16 C22 1_555 1_555
Cu1 N1 1_555 1_555
Cu2 N3 1_555 1_555
N1 C1 1_555 1_555
N2 C6 1_555 1_555
N3 C13 1_555 1_555
N4 C18 1_555 1_555
O1 Cu1 1_555 1_555
O2 W2 1_555 1_555
O3 W3 1_555 1_555
O4 Cu1 1_555 1_555
O5 W5 1_555 1_555
O6 W6 1_555 1_555
O7 W1 1_555 1_555
O8 W2 1_555 1_555
O9 W1 1_555 1_555
O10 W4 1_555 1_555
O11 W3 1_555 1_555
O12 W3 1_555 1_555
O13 W1 1_555 1_555
O14 W1 1_555 1_555
O15 W4 1_555 1_555
O16 W5 1_555 1_555
O17 W4 1_555 1_555
O18 W2 1_555 1_555
O19 Si1 1_555 1_555
O20 Si1 1_555 1_555
O21 Si1 1_555 1_555
O22 Si1 1_555 1_555
O23 C11 1_555 1_555
O24 Cu1 1_555 1_555
O25 C11 1_555 1_555
O26 C12 1_555 1_555
O27 Cu2 1_555 1_555
Si1 O19B 1_555 1_555
W1 O1 1_555 1_555
W2 O7 1_555 1_555
W3 O8 1_555 1_555
W4 O4 1_555 1_555
W5 O14 1_555 1_555
W6 O17 1_555 1_555
C1A H1A 1_555 1_555
C2A C1A 1_555 1_555
H2A C2A 1_555 1_555
C3A C2A 1_555 1_555
H3A C3A 1_555 1_555
C4A C3A 1_555 1_555
H4A C4A 1_555 1_555
C5A C4A 1_555 1_555
C6A C5A 1_555 1_555
C7A C6A 1_555 1_555
H5A C7A 1_555 1_555
C8A C7A 1_555 1_555
H6A C8A 1_555 1_555
C9A C8A 1_555 1_555
H7A C9A 1_555 1_555
C10A C9A 1_555 1_555
H8A C10A 1_555 1_555
C11A C12A 1_555 1_555
C12A O24A 1_555 1_555
C13A H9A 1_555 1_555
C14A C13A 1_555 1_555
H10A C14A 1_555 1_555
C15A C14A 1_555 1_555
H11A C15A 1_555 1_555
C16A C15A 1_555 1_555
H12A C16A 1_555 1_555
C17A C16A 1_555 1_555
C18A C17A 1_555 1_555
C19A C18A 1_555 1_555
H13A C19A 1_555 1_555
C20A C19A 1_555 1_555
H14A C20A 1_555 1_555
C21A C20A 1_555 1_555
H15A C21A 1_555 1_555
C22A C21A 1_555 1_555
H16A C22A 1_555 1_555
Cu1A N1A 1_555 1_555
Cu1A_2 O4A 1_555 1_555
Cu2A N3A 1_555 1_555
N1A C1A 1_555 1_555
N2A C6A 1_555 1_555
N3A C13A 1_555 1_555
N4A C18A 1_555 1_555
O1A Cu1A 1_555 1_555
O2C W2C 1_555 1_555
O3B W3B 1_555 1_555
O4A W4A 1_555 1_555
O4A_2 Cu1A 1_555 1_555
O5A W5A 1_555 1_555
O6A W6A 1_555 1_555
O7A W1A 1_555 1_555
O7C W2C 1_555 1_555
O8C W2C 1_555 1_555
O8B W2B 1_555 1_555
O9A W1A 1_555 1_555
O9B W1B 1_555 1_555
O10C W2 1_555 1_555
O10A W2B 1_555 1_555
O11B W5 1_555 1_555
O11C W3C 1_555 1_555
O12A W6 1_555 1_555
O12B W3B 1_555 1_555
O13A W4 1_555 1_555
O14A W1A 1_555 1_555
O15A W5 1_555 1_555
O16C W6 1_555 1_555
O16A W5A 1_555 1_555
O16B W5B 1_555 1_555
O17A W4A 1_555 1_555
O18C W6 1_555 1_555
O18B W2B 1_555 1_555
O19B W1B 1_555 1_555
O19A W1A 1_555 1_555
O19C W2C 1_555 1_555
O20B Si1 1_555 1_555
O20A W4 1_555 1_555
O21B Si1 1_555 1_555
O21A W6 1_555 1_555
O22B Si1 1_555 1_555
O22A W4 1_555 1_555
O23A C11A 1_555 1_555
O24A Cu1A 1_555 1_555
O25A C11A 1_555 1_555
O26A C12A 1_555 1_555
O27A Cu2A 1_555 1_555
W1A O1A 1_555 1_555
W1B O22B 1_555 1_555
W2C O10 1_555 1_555
W2B O20 1_555 1_555
W2A O7A 1_555 1_555
W3B O8B 1_555 1_555
W3A O9A 1_555 1_555
W3C O8C 1_555 1_555
W4A O13 1_555 1_555
W4C O10C 1_555 1_555
W5A O15 1_555 1_555
W5B O11 1_555 1_555
W5C O16C 1_555 1_555
W6A O12 1_555 1_555
W6C O16 1_555 1_555
C5 N1 1_555 1_555
C10 N2 1_555 1_555
C17 N3 1_555 1_555
C22 N4 1_555 1_555
Cu1 N2 1_555 1_555
Cu1 O23 1_555 1_555
Cu2 N4 1_555 1_555
Cu2 O25 1_555 1_555
Cu2 O26 1_555 1_555
O9 W3 1_555 1_555
O18 W6C 1_555 1_555
O19 W1 1_555 1_555
O19 W2 1_555 1_555
O19 W3 1_555 1_555
O20 W4A 1_555 1_555
O20 W6A 1_555 1_555
O21 W3 1_555 1_555
O21 W6A 1_555 1_555
O22 W1 1_555 1_555
O22 W5 1_555 1_555
O22 W4A 1_555 1_555
W2 O20B 1_555 1_555
W6 O20A 1_555 1_555
C5A N1A 1_555 1_555
C10A N2A 1_555 1_555
C17A N3A 1_555 1_555
C22A N4A 1_555 1_555
Cu1A N2A 1_555 1_555
Cu1A O23A 1_555 1_555
Cu2A N4A 1_555 1_555
Cu2A O25A 1_555 1_555
Cu2A O26A 1_555 1_555
O9B W3B 1_555 1_555
O10A W4A 1_555 1_555
O11B W3B 1_555 1_555
O11C W5A 1_555 1_555
O12A W3A 1_555 1_555
O12B W6C 1_555 1_555
O13A W1A 1_555 1_555
O14A W5A 1_555 1_555
O15A W4A 1_555 1_555
O16B W6A 1_555 1_555
O17A W6A 1_555 1_555
O18C W2C 1_555 1_555
O18B W6A 1_555 1_555
O19B W2B 1_555 1_555
O19B W3B 1_555 1_555
O19A W2A 1_555 1_555
O19A W3A 1_555 1_555
O19C W3C 1_555 1_555
O20B W4C 1_555 1_555
O20B W6C 1_555 1_555
O20A W2C 1_555 1_555
O21B W3B 1_555 1_555
O21B W6C 1_555 1_555
O21A W3A 1_555 1_555
O22B W4C 1_555 1_555
O22B W5B 1_555 1_555
O22A W1A 1_555 1_555
O22A W5A 1_555 1_555

#END
