
#######################################################################
#
#                 Cambridge Crystallographic Data Centre
#                                CCDC 
#
#######################################################################
#
# If this CIF has been generated from an entry in the Cambridge 
# Structural Database, then it will include bibliographic, chemical, 
# crystal, experimental, refinement or atomic coordinate data resulting 
# from the CCDC's data processing and validation procedures.
#
#######################################################################

data_XEWRUO
_symmetry_cell_setting           tetragonal
_symmetry_space_group_name_H-M   'I 41/a'
_symmetry_Int_Tables_number      88
_space_group_name_Hall           '-I 4ad'
loop_
_symmetry_equiv_pos_site_id
_symmetry_equiv_pos_as_xyz
1 x,y,z
2 1/2-x,-y,1/2+z
3 3/4-y,1/4+x,1/4+z
4 3/4+y,3/4-x,3/4+z
5 1/2+x,1/2+y,1/2+z
6 -x,1/2-y,z
7 1/4-y,3/4+x,3/4+z
8 1/4+y,1/4-x,1/4+z
9 -x,-y,-z
10 1/2+x,y,1/2-z
11 1/4+y,3/4-x,3/4-z
12 1/4-y,1/4+x,1/4-z
13 1/2-x,1/2-y,1/2-z
14 x,1/2+y,-z
15 3/4+y,1/4-x,1/4-z
16 3/4-y,3/4+x,3/4-z
_cell_length_a                   9.94110(10)
_cell_length_b                   9.94110(10)
_cell_length_c                   17.4643(3)
_cell_angle_alpha                90
_cell_angle_beta                 90
_cell_angle_gamma                90
_cell_volume                     1725.92
loop_
_atom_site_label
_atom_site_type_symbol
_atom_site_fract_x
_atom_site_fract_y
_atom_site_fract_z
Cd1 Cd 0.5000 0.2500 0.114160(11)
N1 N 0.49006(19) 0.48890(19) 0.24258(9)
N2 N 0.55904(19) 0.43679(19) 0.18470(9)
N3 N 0.66777(19) 0.50978(19) 0.16983(10)
N4 N 0.55499(18) 0.59840(18) 0.26615(9)
N5 N 0.76164(18) 0.70683(17) 0.22434(8)
O1 O 0.72346(18) 0.17883(18) 0.17127(9)
H1 H 0.7121 0.1306 0.2045
H2 H 0.7951 0.2066 0.1639
C1 C 0.6623 0.6079 0.2209
N1L N 1.00994(19) 1.01110(19) 0.25742(9)
N2L N 0.94096(19) 1.06321(19) 0.31530(9)
N3L N 0.83223(19) 0.99022(19) 0.33017(10)
N4L N 0.94501(18) 0.90160(18) 0.23385(9)
N5L N 0.73836(18) 0.79317(17) 0.27566(8)
C1L C 0.8377 0.8921 0.2791
O1E O 0.27654(18) 0.32117(18) 0.17127(9)
H1E H 0.2879 0.3694 0.2045
H2E H 0.2049 0.2934 0.1639
Cd1B Cd 0.5000 0.7500 0.364160(11)
Cd1I Cd 1.0000 1.2500 0.385840(11)
Cd1K Cd 1.0000 0.7500 0.135840(11)
N2E N 0.44096(19) 0.06321(19) 0.18470(9)
N4C N 0.34840(18) 0.19501(18) 0.01615(9)
N4F N 0.65160(18) 0.30499(18) 0.01615(9)
O2 O 0.5000 0.2500 0.3750
H3 H 0.5000 0.2500 0.4199
H3J H 0.5000 0.2500 0.3301
H4? H 0.5500 0.1998 0.3541
loop_
_geom_bond_atom_site_label_1
_geom_bond_atom_site_label_2
_geom_bond_site_symmetry_1
_geom_bond_site_symmetry_2
Cd1 N2 1_555 1_555
N1 N2 1_555 1_555
N2 N3 1_555 1_555
N3 C1 1_555 1_555
N4 N1 1_555 1_555
N5 C1 1_555 1_555
O1 Cd1 1_555 1_555
H1 O1 1_555 1_555
H2 O1 1_555 1_555
C1 N4 1_555 1_555
O2 H3 1_555 1_555
N1L N2L 1_555 1_555
N2L N3L 1_555 1_555
N3L C1L 1_555 1_555
N4L N1L 1_555 1_555
N5L N5 1_555 1_555
C1L N4L 1_555 1_555
O1E Cd1 1_555 1_555
H1E O1E 1_555 1_555
H2E O1E 1_555 1_555
Cd1B N4 1_555 1_555
Cd1I N2L 1_555 1_555
Cd1K N4L 1_555 1_555
N2E Cd1 1_555 1_555
N4C Cd1 1_555 1_555
N4F Cd1 1_555 1_555
H3J O2 1_555 1_555
N5L C1L 1_555 1_555

#END
