
#######################################################################
#
#                 Cambridge Crystallographic Data Centre
#                                CCDC 
#
#######################################################################
#
# If this CIF has been generated from an entry in the Cambridge 
# Structural Database, then it will include bibliographic, chemical, 
# crystal, experimental, refinement or atomic coordinate data resulting 
# from the CCDC's data processing and validation procedures.
#
#######################################################################

data_XEWXUU
_symmetry_cell_setting           orthorhombic
_symmetry_space_group_name_H-M   'P n a 21'
_symmetry_Int_Tables_number      33
_space_group_name_Hall           'P 2c -2n'
loop_
_symmetry_equiv_pos_site_id
_symmetry_equiv_pos_as_xyz
1 x,y,z
2 -x,-y,1/2+z
3 1/2-x,1/2+y,1/2+z
4 1/2+x,1/2-y,z
_cell_length_a                   12.1545(4)
_cell_length_b                   13.0536(5)
_cell_length_c                   9.4980(4)
_cell_angle_alpha                90
_cell_angle_beta                 90
_cell_angle_gamma                90
_cell_volume                     1506.95
loop_
_atom_site_label
_atom_site_type_symbol
_atom_site_fract_x
_atom_site_fract_y
_atom_site_fract_z
C1 C 0.3786(3) 0.1640(3) 0.9479(5)
C2 C 0.8304(4) 0.0453(5) 0.4158(7)
H1 H 0.8939 0.0508 0.3528
H2 H 0.7674 0.0179 0.3635
H3 H 0.8482 -0.0008 0.4940
C3 C 0.4373(4) -0.1167(3) 0.7131(7)
H4 H 0.4299 -0.1093 0.6098
H5 H 0.3711 -0.0862 0.7571
C4 C 0.4419(4) -0.2302(3) 0.7497(8)
H6 H 0.3750 -0.2641 0.7160
H7 H 0.4475 -0.2383 0.8520
H8 H 0.5063 -0.2614 0.7046
C5 C 0.3861(3) 0.2718(3) 0.8944(5)
C6 C 0.4630(3) 0.3095(3) 0.7980(5)
C7 C 0.4555(3) 0.4118(3) 0.7506(10)
H9 H 0.5047 0.4357 0.6802
C8 C 0.3770(4) 0.4777(4) 0.8055(7)
H10 H 0.3735 0.5469 0.7749
C9 C 0.3027(4) 0.4408(4) 0.9071(7)
H11 H 0.2495 0.4854 0.9472
C10 C 0.3074(4) 0.3400(4) 0.9483(6)
H12 H 0.2557 0.3157 1.0154
C11 C 0.7093(3) 0.2564(3) 0.6169(4)
C12 C 0.7981(3) 0.3281(3) 0.5888(5)
C13 C 0.7182(3) 0.1554(3) 0.5590(5)
N1 N 0.5354(3) -0.0593(3) 0.7602(4)
H13 H 0.5956 -0.0851 0.7134
H14 H 0.5456 -0.0723 0.8545
N2 N 0.5469(2) 0.2444(2) 0.7376(6)
N3 N 0.6296(2) 0.2999(2) 0.6927(3)
N4 N 0.8698(3) 0.3835(3) 0.5676(4)
N5 N 0.6474(3) 0.0839(3) 0.5889(4)
O1 O 0.8032(3) 0.1457(3) 0.4706(4)
O2 O 0.4346(3) 0.0935(2) 0.8899(4)
O3 O 0.3165(3) 0.1446(3) 1.0493(4)
Cu1 Cu 0.53378(3) 0.09459(3) 0.73268(7)
N4C N 0.3698(3) 0.1165(3) 0.5676(4)
Cu1C Cu 1.03378(3) 0.40541(3) 0.73268(7)
loop_
_geom_bond_atom_site_label_1
_geom_bond_atom_site_label_2
_geom_bond_site_symmetry_1
_geom_bond_site_symmetry_2
C1 C5 1_555 1_555
C2 H1 1_555 1_555
H2 C2 1_555 1_555
H3 C2 1_555 1_555
C3 H4 1_555 1_555
H5 C3 1_555 1_555
C4 C3 1_555 1_555
H6 C4 1_555 1_555
H7 C4 1_555 1_555
H8 C4 1_555 1_555
C5 C6 1_555 1_555
C6 C7 1_555 1_555
C7 H9 1_555 1_555
C8 C7 1_555 1_555
H10 C8 1_555 1_555
C9 C8 1_555 1_555
H11 C9 1_555 1_555
C10 C5 1_555 1_555
H12 C10 1_555 1_555
C11 C12 1_555 1_555
C12 N4 1_555 1_555
C13 C11 1_555 1_555
N1 C3 1_555 1_555
H13 N1 1_555 1_555
H14 N1 1_555 1_555
N2 C6 1_555 1_555
N3 C11 1_555 1_555
N4 Cu1C 1_555 1_555
N5 C13 1_555 1_555
O1 C2 1_555 1_555
O2 C1 1_555 1_555
O3 C1 1_555 1_555
Cu1 N1 1_555 1_555
N4C Cu1 1_555 1_555
C9 C10 1_555 1_555
C13 O1 1_555 1_555
N2 N3 1_555 1_555
N2 Cu1 1_555 1_555
N5 Cu1 1_555 1_555
O2 Cu1 1_555 1_555

#END
