
#######################################################################
#
#                 Cambridge Crystallographic Data Centre
#                                CCDC 
#
#######################################################################
#
# If this CIF has been generated from an entry in the Cambridge 
# Structural Database, then it will include bibliographic, chemical, 
# crystal, experimental, refinement or atomic coordinate data resulting 
# from the CCDC's data processing and validation procedures.
#
#######################################################################

data_XEXFIQ
_symmetry_cell_setting           monoclinic
_symmetry_space_group_name_H-M   'P 21/c'
_symmetry_Int_Tables_number      14
_space_group_name_Hall           '-P 2ybc'
loop_
_symmetry_equiv_pos_site_id
_symmetry_equiv_pos_as_xyz
1 x,y,z
2 -x,1/2+y,1/2-z
3 -x,-y,-z
4 x,1/2-y,1/2+z
_cell_length_a                   14.7450(2)
_cell_length_b                   7.65000(10)
_cell_length_c                   11.6710(3)
_cell_angle_alpha                90
_cell_angle_beta                 105.8090(10)
_cell_angle_gamma                90
_cell_volume                     1266.68
loop_
_atom_site_label
_atom_site_type_symbol
_atom_site_fract_x
_atom_site_fract_y
_atom_site_fract_z
C1 C 0.1814(4) 0.0764(7) 0.2928(4)
C2 C 0.2530(4) -0.0262(7) 0.2687(4)
H1 H 0.2549 -0.0436 0.1888
C3 C 0.3206(4) -0.1014(7) 0.3607(5)
H2 H 0.3692 -0.1706 0.3447
C4 C 0.3170(4) -0.0752(7) 0.4778(4)
C5 C 0.2439(4) 0.0261(6) 0.4962(4)
H3 H 0.2402 0.0431 0.5754
C6 C 0.3871(4) -0.1481(6) 0.5829(6)
C7 C 0.5317(4) -0.2984(9) 0.6523(6)
H4 H 0.5045 -0.3931 0.6904
H5 H 0.5578 -0.2079 0.7130
C8 C 0.6073(5) -0.3693(9) 0.6030(7)
H6 H 0.5800 -0.4541 0.5401
H7 H 0.6553 -0.4270 0.6666
H8 H 0.6363 -0.2734 0.5699
C9 C 0.1649(4) 0.5419(7) 0.4085(5)
H9 H 0.2147 0.5308 0.4834
H10 H 0.1920 0.5267 0.3413
H11 H 0.1360 0.6580 0.4043
C10 C -0.0576(5) 0.1811(8) 0.4023(5)
H12 H -0.1160 0.2359 0.3554
H13 H -0.0498 0.0673 0.3675
H14 H -0.0606 0.1647 0.4844
N1 N 0.1785(3) 0.1008(6) 0.4064(4)
O1 O 0.3796(3) -0.1410(5) 0.6827(4)
O2 O 0.4595(3) -0.2229(6) 0.5535(3)
S1 S 0.09377(10) 0.18004(17) 0.18284(12)
Tl1 Tl 0.059480(13) 0.34524(2) 0.401170(15)
S1C S 0.09377(10) 0.31996(17) 0.68284(12)
Tl1C Tl 0.059480(13) 0.15476(2) -0.098830(15)
loop_
_geom_bond_atom_site_label_1
_geom_bond_atom_site_label_2
_geom_bond_site_symmetry_1
_geom_bond_site_symmetry_2
C1 C2 1_555 1_555
C2 H1 1_555 1_555
C3 C2 1_555 1_555
H2 C3 1_555 1_555
C4 C3 1_555 1_555
C5 C4 1_555 1_555
H3 C5 1_555 1_555
C6 C4 1_555 1_555
C7 H4 1_555 1_555
H5 C7 1_555 1_555
C8 C7 1_555 1_555
H6 C8 1_555 1_555
H7 C8 1_555 1_555
H8 C8 1_555 1_555
C9 H9 1_555 1_555
H10 C9 1_555 1_555
H11 C9 1_555 1_555
C10 H12 1_555 1_555
H13 C10 1_555 1_555
H14 C10 1_555 1_555
N1 C1 1_555 1_555
O1 C6 1_555 1_555
O2 C6 1_555 1_555
S1 C1 1_555 1_555
Tl1 C9 1_555 1_555
S1C Tl1 1_555 1_555
Tl1C S1 1_555 1_555
C5 N1 1_555 1_555
C7 O2 1_555 1_555
C10 Tl1 1_555 1_555
N1 Tl1 1_555 1_555
S1 Tl1 1_555 1_555

#END
