
#######################################################################
#
#                 Cambridge Crystallographic Data Centre
#                                CCDC 
#
#######################################################################
#
# If this CIF has been generated from an entry in the Cambridge 
# Structural Database, then it will include bibliographic, chemical, 
# crystal, experimental, refinement or atomic coordinate data resulting 
# from the CCDC's data processing and validation procedures.
#
#######################################################################

data_XEXFEN
_symmetry_cell_setting           monoclinic
_symmetry_space_group_name_H-M   'P 21/n'
_symmetry_Int_Tables_number      14
_space_group_name_Hall           '-P 2yn'
loop_
_symmetry_equiv_pos_site_id
_symmetry_equiv_pos_as_xyz
1 x,y,z
2 1/2-x,1/2+y,1/2-z
3 -x,-y,-z
4 1/2+x,1/2-y,1/2+z
_cell_length_a                   13.4640(12)
_cell_length_b                   8.2243(7)
_cell_length_c                   15.1533(13)
_cell_angle_alpha                90
_cell_angle_beta                 97.4180(10)
_cell_angle_gamma                90
_cell_volume                     1663.91
loop_
_atom_site_label
_atom_site_type_symbol
_atom_site_fract_x
_atom_site_fract_y
_atom_site_fract_z
Cu1 Cu 0.0000 0.0000 0.0000
Cu2 Cu 0.5000 0.5000 0.0000
O1 O 0.37901(17) 0.4491(3) 0.06298(15)
O2 O 0.26250(18) 0.3891(3) -0.13719(15)
O3 O 0.07192(17) 0.2517(3) -0.05480(15)
O4 O 0.1820(2) 0.3284(4) 0.14415(16)
O5 O 0.48714(19) 0.2474(3) -0.07010(15)
O6 O 0.3886(2) -0.1076(3) -0.11117(17)
O7 O 0.41860(18) 0.5775(3) -0.11042(16)
H1 H 0.390(3) 0.666(2) -0.111(3)
H2 H 0.3707(19) 0.517(4) -0.123(3)
N1 N -0.0423(2) 0.2097(4) 0.24050(18)
H3 H -0.0330 0.2105 0.2977
N2 N -0.03465(19) 0.1329(3) 0.10345(17)
N3 N 0.12860(19) -0.0537(3) 0.07486(17)
N4 N 0.2343(2) -0.1042(4) 0.19392(19)
H4 H 0.2579 -0.1187 0.2488
N5 N -0.00204(19) -0.1906(4) 0.22450(18)
H5 H -0.0494 -0.1724 0.2602
H6 H -0.0333 -0.2124 0.1697
C1 C 0.4499(3) -0.0481(4) -0.0509(2)
C2 C 0.4932(2) 0.1123(4) -0.0312(2)
C3 C 0.0596(2) -0.0389(4) 0.2205(2)
H7 H 0.0915 -0.0138 0.2808
C4 C -0.0060(2) 0.1006(4) 0.1880(2)
C5 C -0.0967(3) 0.3196(4) 0.1872(2)
H8 H -0.1311 0.4092 0.2053
C6 C -0.0908(3) 0.2724(4) 0.1026(2)
H9 H -0.1201 0.3259 0.0518
C7 C 0.1399(2) -0.0648(4) 0.1625(2)
C8 C 0.2219(3) -0.0845(5) 0.0496(2)
H10 H 0.2376 -0.0828 -0.0084
C9 C 0.2862(3) -0.1172(5) 0.1227(2)
H11 H 0.3536 -0.1437 0.1245
C10 C 0.0579(3) -0.3345(5) 0.2578(3)
H12 H 0.0146 -0.4271 0.2588
H13 H 0.0903 -0.3133 0.3169
H14 H 0.1076 -0.3564 0.2193
C11 C 0.2940(3) 0.3990(4) 0.0295(2)
C12 C 0.2418(2) 0.3702(4) -0.0593(2)
C13 C 0.1550(2) 0.3082(4) -0.0223(2)
C14 C 0.2049(3) 0.3434(5) 0.0680(2)
O5B O 0.51286(19) -0.2474(3) 0.07010(15)
O6B O 0.6114(2) 0.1076(3) 0.11117(17)
C1B C 0.5501(3) 0.0481(4) 0.0509(2)
C2B C 0.5068(2) -0.1123(4) 0.0312(2)
O1B O -0.37901(17) -0.4491(3) -0.06298(15)
O2B O -0.26250(18) -0.3891(3) 0.13719(15)
O3B O -0.07192(17) -0.2517(3) 0.05480(15)
O4B O -0.1820(2) -0.3284(4) -0.14415(16)
N1B N 0.0423(2) -0.2097(4) -0.24050(18)
H3B H 0.0330 -0.2105 -0.2977
N2B N 0.03465(19) -0.1329(3) -0.10345(17)
N3B N -0.12860(19) 0.0537(3) -0.07486(17)
N4B N -0.2343(2) 0.1042(4) -0.19392(19)
H4B H -0.2579 0.1187 -0.2488
N5B N 0.00204(19) 0.1906(4) -0.22450(18)
H5B H 0.0494 0.1724 -0.2602
H6B H 0.0333 0.2124 -0.1697
C3B C -0.0596(2) 0.0389(4) -0.2205(2)
H7B H -0.0915 0.0138 -0.2808
C4B C 0.0060(2) -0.1006(4) -0.1880(2)
C5B C 0.0967(3) -0.3196(4) -0.1872(2)
H8B H 0.1311 -0.4092 -0.2053
C6B C 0.0908(3) -0.2724(4) -0.1026(2)
H9B H 0.1201 -0.3259 -0.0518
C7B C -0.1399(2) 0.0648(4) -0.1625(2)
C8B C -0.2219(3) 0.0845(5) -0.0496(2)
H10B H -0.2376 0.0828 0.0084
C9B C -0.2862(3) 0.1172(5) -0.1227(2)
H11B H -0.3536 0.1437 -0.1245
C10B C -0.0579(3) 0.3345(5) -0.2578(3)
H12B H -0.0146 0.4271 -0.2588
H13B H -0.0903 0.3133 -0.3169
H14B H -0.1076 0.3564 -0.2193
C11B C -0.2940(3) -0.3990(4) -0.0295(2)
C12B C -0.2418(2) -0.3702(4) 0.0593(2)
C13B C -0.1550(2) -0.3082(4) 0.0223(2)
C14B C -0.2049(3) -0.3434(5) -0.0680(2)
O7B O 0.58140(18) 0.4225(3) 0.11042(16)
H1B H 0.610(3) 0.334(2) 0.111(3)
H2B H 0.6293(19) 0.483(4) 0.123(3)
Cu2_2 Cu -0.5000 -0.5000 0.0000
Cu2_3 Cu 0.5000 -0.5000 0.0000
O1B_2 O 0.62099(17) 0.5509(3) -0.06298(15)
O5B_2 O 0.51286(19) 0.7526(3) 0.07010(15)
O8 O 0.2068(3) 0.0773(5) -0.1980(3)
H15 H 0.251(3) 0.006(5) -0.193(4)
H16 H 0.231(4) 0.169(3) -0.188(4)
loop_
_geom_bond_atom_site_label_1
_geom_bond_atom_site_label_2
_geom_bond_site_symmetry_1
_geom_bond_site_symmetry_2
Cu1 O3 1_555 1_555
Cu2 O1 1_555 1_555
O1 C11 1_555 1_555
O2 C12 1_555 1_555
O3 C13 1_555 1_555
O4 C14 1_555 1_555
O5 Cu2 1_555 1_555
O6 C1 1_555 1_555
O7 Cu2 1_555 1_555
H1 O7 1_555 1_555
H2 O7 1_555 1_555
N1 H3 1_555 1_555
N2 Cu1 1_555 1_555
N3 Cu1 1_555 1_555
N4 H4 1_555 1_555
N5 H5 1_555 1_555
H6 N5 1_555 1_555
C1 C2 1_555 1_555
C2 O5 1_555 1_555
C3 N5 1_555 1_555
H7 C3 1_555 1_555
C4 N1 1_555 1_555
C5 N1 1_555 1_555
H8 C5 1_555 1_555
C6 N2 1_555 1_555
H9 C6 1_555 1_555
C7 N3 1_555 1_555
C8 N3 1_555 1_555
H10 C8 1_555 1_555
C9 N4 1_555 1_555
H11 C9 1_555 1_555
C10 N5 1_555 1_555
H12 C10 1_555 1_555
H13 C10 1_555 1_555
H14 C10 1_555 1_555
C11 C12 1_555 1_555
C12 C13 1_555 1_555
C13 C14 1_555 1_555
C14 C11 1_555 1_555
O8 H15 1_555 1_555
H16 O8 1_555 1_555
O5B C2B 1_555 1_555
O6B C1B 1_555 1_555
C1B C2 1_555 1_555
C2B C1 1_555 1_555
O1B C11B 1_555 1_555
O2B C12B 1_555 1_555
O3B Cu1 1_555 1_555
O4B C14B 1_555 1_555
N1B H3B 1_555 1_555
N2B Cu1 1_555 1_555
N3B Cu1 1_555 1_555
N4B H4B 1_555 1_555
N5B H5B 1_555 1_555
H6B N5B 1_555 1_555
C3B N5B 1_555 1_555
H7B C3B 1_555 1_555
C4B N1B 1_555 1_555
C5B N1B 1_555 1_555
H8B C5B 1_555 1_555
C6B N2B 1_555 1_555
H9B C6B 1_555 1_555
C7B N3B 1_555 1_555
C8B N3B 1_555 1_555
H10B C8B 1_555 1_555
C9B N4B 1_555 1_555
H11B C9B 1_555 1_555
C10B N5B 1_555 1_555
H12B C10B 1_555 1_555
H13B C10B 1_555 1_555
H14B C10B 1_555 1_555
C11B C12B 1_555 1_555
C12B C13B 1_555 1_555
C13B O3B 1_555 1_555
C14B C11B 1_555 1_555
O7B Cu2 1_555 1_555
H1B O7B 1_555 1_555
H2B O7B 1_555 1_555
Cu2_2 O1B 1_555 1_555
Cu2_3 O5B 1_555 1_555
O1B_2 Cu2 1_555 1_555
O5B_2 Cu2 1_555 1_555
N2 C4 1_555 1_555
N4 C7 1_555 1_555
C3 C4 1_555 1_555
C3 C7 1_555 1_555
C5 C6 1_555 1_555
C8 C9 1_555 1_555
C1B C2B 1_555 1_555
N2B C4B 1_555 1_555
N4B C7B 1_555 1_555
C3B C4B 1_555 1_555
C3B C7B 1_555 1_555
C5B C6B 1_555 1_555
C8B C9B 1_555 1_555
C13B C14B 1_555 1_555

#END
