
#######################################################################
#
#                 Cambridge Crystallographic Data Centre
#                                CCDC 
#
#######################################################################
#
# If this CIF has been generated from an entry in the Cambridge 
# Structural Database, then it will include bibliographic, chemical, 
# crystal, experimental, refinement or atomic coordinate data resulting 
# from the CCDC's data processing and validation procedures.
#
#######################################################################

data_XEXFOW
_symmetry_cell_setting           tetragonal
_symmetry_space_group_name_H-M   'I 41/a'
_symmetry_Int_Tables_number      88
_space_group_name_Hall           '-I 4ad'
loop_
_symmetry_equiv_pos_site_id
_symmetry_equiv_pos_as_xyz
1 x,y,z
2 3/4-y,1/4+x,1/4+z
3 1/4+y,1/4-x,1/4+z
4 1/2+x,1/2+y,1/2+z
5 1/4-y,3/4+x,3/4+z
6 -x,1/2-y,z
7 1/2-x,-y,1/2+z
8 3/4+y,3/4-x,3/4+z
9 -x,-y,-z
10 1/4+y,3/4-x,3/4-z
11 3/4-y,3/4+x,3/4-z
12 1/2-x,1/2-y,1/2-z
13 3/4+y,1/4-x,1/4-z
14 x,1/2+y,-z
15 1/2+x,y,1/2-z
16 1/4-y,1/4+x,1/4-z
_cell_length_a                   20.0750(5)
_cell_length_b                   20.0750(5)
_cell_length_c                   11.2770(4)
_cell_angle_alpha                90
_cell_angle_beta                 90
_cell_angle_gamma                90
_cell_volume                     4544.69
loop_
_atom_site_label
_atom_site_type_symbol
_atom_site_fract_x
_atom_site_fract_y
_atom_site_fract_z
Tl1 Tl 0.848265(10) 0.060093(10) 0.64258(2)
S1 S 0.83464(7) 0.04697(7) 0.88978(13)
O1 O 0.9447(2) 0.35851(18) 0.9659(4)
O2 O 0.9335(2) 0.3554(2) 0.7688(4)
N1 N 0.8793(2) 0.1553(2) 0.7848(4)
C1 C 0.8686(3) 0.1262(3) 0.8928(5)
C2 C 0.8832(2) 0.1616(3) 0.9978(5)
H1 H 0.8780 0.1406 1.0728
C3 C 0.9050(3) 0.2268(3) 0.9915(5)
H2 H 0.9146 0.2510 1.0619
C4 C 0.9128(3) 0.2567(3) 0.8805(5)
C5 C 0.9011(2) 0.2188(3) 0.7804(5)
H3 H 0.9088 0.2384 0.7049
C6 C 0.9312(3) 0.3280(3) 0.8642(5)
C7 C 0.9621(3) 0.4286(3) 0.9572(6)
H4 H 0.9730 0.4458 1.0362
H5 H 0.9244 0.4535 0.9246
H6 H 1.0008 0.4337 0.9049
C8 C 0.9505(3) 0.0299(3) 0.6390(6)
H7 H 0.9573 -0.0067 0.6952
H8 H 0.9788 0.0677 0.6612
H9 H 0.9621 0.0150 0.5589
C9 C 0.7539(3) 0.0969(3) 0.5831(6)
H10 H 0.7186 0.0663 0.6081
H11 H 0.7541 0.1004 0.4964
H12 H 0.7459 0.1410 0.6176
Tl1A Tl 0.689907(10) 0.098265(10) 0.89258(2)
S1G S 0.79697(7) -0.08464(7) 0.63978(13)
loop_
_geom_bond_atom_site_label_1
_geom_bond_atom_site_label_2
_geom_bond_site_symmetry_1
_geom_bond_site_symmetry_2
Tl1 S1 1_555 1_555
S1 C1 1_555 1_555
O1 C6 1_555 1_555
O2 C6 1_555 1_555
N1 Tl1 1_555 1_555
C1 N1 1_555 1_555
C2 C1 1_555 1_555
H1 C2 1_555 1_555
C3 C2 1_555 1_555
H2 C3 1_555 1_555
C4 C3 1_555 1_555
C5 N1 1_555 1_555
H3 C5 1_555 1_555
C6 C4 1_555 1_555
C7 O1 1_555 1_555
H4 C7 1_555 1_555
H5 C7 1_555 1_555
H6 C7 1_555 1_555
C8 Tl1 1_555 1_555
H7 C8 1_555 1_555
H8 C8 1_555 1_555
H9 C8 1_555 1_555
C9 Tl1 1_555 1_555
H10 C9 1_555 1_555
H11 C9 1_555 1_555
H12 C9 1_555 1_555
Tl1A S1 1_555 1_555
S1G Tl1 1_555 1_555
C4 C5 1_555 1_555

#END
