
#######################################################################
#
#                 Cambridge Crystallographic Data Centre
#                                CCDC 
#
#######################################################################
#
# If this CIF has been generated from an entry in the Cambridge 
# Structural Database, then it will include bibliographic, chemical, 
# crystal, experimental, refinement or atomic coordinate data resulting 
# from the CCDC's data processing and validation procedures.
#
#######################################################################

data_XEXJOA
_symmetry_cell_setting           triclinic
_symmetry_space_group_name_H-M   'P -1'
_symmetry_Int_Tables_number      2
_space_group_name_Hall           '-P 1'
loop_
_symmetry_equiv_pos_site_id
_symmetry_equiv_pos_as_xyz
1 x,y,z
2 -x,-y,-z
_cell_length_a                   6.8849(17)
_cell_length_b                   9.689(2)
_cell_length_c                   20.087(5)
_cell_angle_alpha                92.768(3)
_cell_angle_beta                 96.930(3)
_cell_angle_gamma                106.223(3)
_cell_volume                     1272.47
loop_
_atom_site_label
_atom_site_type_symbol
_atom_site_fract_x
_atom_site_fract_y
_atom_site_fract_z
Sn1 Sn 0.89696(5) 0.70849(4) 0.215131(18)
Sn2 Sn 0.47853(5) 0.19713(3) 0.284255(17)
F1 F 1.2268(8) 0.6395(7) 0.3796(3)
F2 F 1.3651(9) 0.8389(6) 0.4824(3)
F3 F 1.1103(11) 0.8791(6) 0.5698(3)
F4 F 0.7243(12) 0.7058(9) 0.5560(3)
F5 F 1.3854(7) 1.2088(6) 0.1089(2)
F6 F 1.3306(8) 1.3875(5) 0.0172(2)
F7 F 0.9552(8) 1.3633(4) -0.0475(2)
F8 F 0.6321(8) 1.1558(7) -0.0202(3)
O1 O 0.8410(7) 0.4992(4) 0.29308(19)
O2 O 0.6941(6) 0.3428(4) 0.36237(18)
O3 O 0.9158(6) 0.8690(4) 0.14325(19)
O4 O 1.1967(7) 1.0246(4) 0.19738(19)
C1 C 0.8088(8) 0.4645(5) 0.3494(3)
C2 C 0.8974(9) 0.5696(5) 0.4103(3)
C3 C 1.0943(11) 0.6547(7) 0.4204(3)
C4 C 1.1704(13) 0.7594(7) 0.4745(4)
C5 C 1.0404(17) 0.7766(8) 0.5184(4)
C6 C 0.8446(15) 0.6878(10) 0.5101(4)
C7 C 0.7720(13) 0.5836(8) 0.4574(3)
H1 H 0.6393 0.5228 0.4533
C8 C 1.0568(8) 0.9902(5) 0.1513(3)
C9 C 1.0324(9) 1.0875(5) 0.0969(2)
C10 C 1.1944(10) 1.1947(7) 0.0806(3)
C11 C 1.1677(12) 1.2856(6) 0.0324(3)
C12 C 0.9821(13) 1.2752(6) -0.0001(3)
C13 C 0.8169(11) 1.1675(8) 0.0136(3)
C14 C 0.8424(10) 1.0748(7) 0.0619(3)
H2 H 0.7297 1.0028 0.0709
C15 C 0.6575(11) 0.5630(7) 0.1506(3)
H3 H 0.5317 0.5846 0.1552
H4 H 0.6469 0.4664 0.1622
H5 H 0.6842 0.5712 0.1050
C16 C 0.8124(11) 0.8239(7) 0.2930(3)
H6 H 0.6713 0.8204 0.2824
H7 H 0.8954 0.9225 0.2974
H8 H 0.8321 0.7814 0.3345
C17 C 1.1913(10) 0.6849(7) 0.2167(3)
H9 H 1.2857 0.7570 0.2486
H10 H 1.2317 0.6962 0.1728
H11 H 1.1911 0.5908 0.2296
C18 C 0.3853(11) 0.0361(6) 0.3508(3)
H12 H 0.2899 0.0607 0.3769
H13 H 0.5024 0.0298 0.3804
H14 H 0.3215 -0.0551 0.3253
C19 C 0.2991(10) 0.3395(7) 0.2676(4)
H15 H 0.2149 0.3357 0.3027
H16 H 0.2139 0.3117 0.2249
H17 H 0.3866 0.4360 0.2677
C20 C 0.6881(10) 0.1642(7) 0.2220(3)
H18 H 0.7506 0.0942 0.2397
H19 H 0.7915 0.2536 0.2203
H20 H 0.6182 0.1298 0.1774
Sn2_2 Sn 1.47853(5) 1.19713(3) 0.284255(17)
O4_2 O 0.1967(7) 0.0246(4) 0.19738(19)
loop_
_geom_bond_atom_site_label_1
_geom_bond_atom_site_label_2
_geom_bond_site_symmetry_1
_geom_bond_site_symmetry_2
Sn1 O1 1_555 1_555
Sn2 O2 1_555 1_555
F1 C3 1_555 1_555
F2 C4 1_555 1_555
F3 C5 1_555 1_555
F4 C6 1_555 1_555
F5 C10 1_555 1_555
F6 C11 1_555 1_555
F7 C12 1_555 1_555
F8 C13 1_555 1_555
O1 C1 1_555 1_555
O2 C1 1_555 1_555
O3 Sn1 1_555 1_555
O4 C8 1_555 1_555
C1 C2 1_555 1_555
C2 C3 1_555 1_555
C3 C4 1_555 1_555
C4 C5 1_555 1_555
C5 C6 1_555 1_555
C6 C7 1_555 1_555
C7 C2 1_555 1_555
H1 C7 1_555 1_555
C8 O3 1_555 1_555
C9 C8 1_555 1_555
C10 C9 1_555 1_555
C11 C10 1_555 1_555
C12 C11 1_555 1_555
C13 C12 1_555 1_555
C14 C9 1_555 1_555
H2 C14 1_555 1_555
C15 Sn1 1_555 1_555
H3 C15 1_555 1_555
H4 C15 1_555 1_555
H5 C15 1_555 1_555
C16 Sn1 1_555 1_555
H6 C16 1_555 1_555
H7 C16 1_555 1_555
H8 C16 1_555 1_555
C17 Sn1 1_555 1_555
H9 C17 1_555 1_555
H10 C17 1_555 1_555
H11 C17 1_555 1_555
C18 Sn2 1_555 1_555
H12 C18 1_555 1_555
H13 C18 1_555 1_555
H14 C18 1_555 1_555
C19 Sn2 1_555 1_555
H15 C19 1_555 1_555
H16 C19 1_555 1_555
H17 C19 1_555 1_555
C20 Sn2 1_555 1_555
H18 C20 1_555 1_555
H19 C20 1_555 1_555
H20 C20 1_555 1_555
Sn2_2 O4 1_555 1_555
O4_2 Sn2 1_555 1_555
C13 C14 1_555 1_555

#END
