
#######################################################################
#
#                 Cambridge Crystallographic Data Centre
#                                CCDC 
#
#######################################################################
#
# If this CIF has been generated from an entry in the Cambridge 
# Structural Database, then it will include bibliographic, chemical, 
# crystal, experimental, refinement or atomic coordinate data resulting 
# from the CCDC's data processing and validation procedures.
#
#######################################################################

data_XEXLOB
_symmetry_cell_setting           triclinic
_symmetry_space_group_name_H-M   'P -1'
_symmetry_Int_Tables_number      2
_space_group_name_Hall           '-P 1'
loop_
_symmetry_equiv_pos_site_id
_symmetry_equiv_pos_as_xyz
1 x,y,z
2 -x,-y,-z
_cell_length_a                   7.954(5)
_cell_length_b                   10.061(6)
_cell_length_c                   11.955(4)
_cell_angle_alpha                92.47(4)
_cell_angle_beta                 96.64(5)
_cell_angle_gamma                99.58(4)
_cell_volume                     935.131
loop_
_atom_site_label
_atom_site_type_symbol
_atom_site_fract_x
_atom_site_fract_y
_atom_site_fract_z
Cu1 Cu 0.1032(1) 0.0033(1) 0.21025(7)
O1 O 0.0704(6) -0.1527(5) 0.1014(4)
O2 O -0.2180(6) -0.0445(6) 0.2245(4)
O3 O -0.0707(6) 0.0899(5) 0.1158(4)
N1 N 0.2118(8) -0.0951(6) 0.3335(5)
N2 N 0.1193(7) 0.1403(6) 0.3379(4)
N3 N -0.6657(7) 0.0955(6) 0.1341(5)
C1 C 0.263(1) -0.2155(8) 0.3246(7)
C2 C 0.332(1) -0.2741(9) 0.4147(8)
C3 C 0.351(1) -0.210(1) 0.5199(7)
C4 C 0.299(1) -0.086(1) 0.5297(6)
C5 C 0.2332(9) -0.0319(8) 0.4371(6)
C6 C 0.1803(9) 0.1029(8) 0.4377(6)
C7 C 0.192(1) 0.1865(9) 0.5348(6)
C8 C 0.142(1) 0.310(1) 0.5245(8)
C9 C 0.084(1) 0.3490(8) 0.4228(7)
C10 C 0.071(1) 0.2614(8) 0.3293(6)
C11 C -0.662(1) 0.1994(8) 0.0738(6)
C12 C -0.515(1) 0.2646(8) 0.0324(6)
C13 C -0.366(1) 0.2150(7) 0.0586(6)
C14 C -0.3649(9) 0.1048(7) 0.1213(5)
C15 C -0.5197(8) 0.0467(8) 0.1574(5)
C16 C -0.213(1) 0.0432(7) 0.1553(5)
N3_2 N 0.3343(7) 0.0955(6) 0.1341(5)
Cu1_2 Cu -0.8968(1) 0.0033(1) 0.21025(7)
O4 O 0.446(1) 0.4142(8) 0.3046(7)
O5 O 0.713(1) 0.4337(8) 0.2841(6)
O6 O 0.554(1) 0.5603(8) 0.2013(7)
N4 N 0.572(1) 0.4720(8) 0.2641(6)
O7 O -0.1236(8) -0.3949(6) 0.1057(5)
O8 O 0.167(1) -0.5083(8) 0.1251(6)
loop_
_geom_bond_atom_site_label_1
_geom_bond_atom_site_label_2
_geom_bond_site_symmetry_1
_geom_bond_site_symmetry_2
Cu1 O1 1_555 1_555
O2 Cu1 1_555 1_555
O3 Cu1 1_555 1_555
O4 N4 1_555 1_555
O5 N4 1_555 1_555
O6 N4 1_555 1_555
N1 Cu1 1_555 1_555
N2 Cu1 1_555 1_555
N3 C11 1_555 1_555
C1 N1 1_555 1_555
C2 C1 1_555 1_555
C3 C2 1_555 1_555
C4 C3 1_555 1_555
C5 N1 1_555 1_555
C6 N2 1_555 1_555
C7 C6 1_555 1_555
C8 C7 1_555 1_555
C9 C8 1_555 1_555
C10 N2 1_555 1_555
C11 C12 1_555 1_555
C12 C13 1_555 1_555
C13 C14 1_555 1_555
C14 C15 1_555 1_555
C15 N3 1_555 1_555
C16 O2 1_555 1_555
N3_2 Cu1 1_555 1_555
Cu1_2 N3 1_555 1_555
O3 C16 1_555 1_555
C4 C5 1_555 1_555
C5 C6 1_555 1_555
C9 C10 1_555 1_555
C14 C16 1_555 1_555

#END
