
#######################################################################
#
#                 Cambridge Crystallographic Data Centre
#                                CCDC 
#
#######################################################################
#
# If this CIF has been generated from an entry in the Cambridge 
# Structural Database, then it will include bibliographic, chemical, 
# crystal, experimental, refinement or atomic coordinate data resulting 
# from the CCDC's data processing and validation procedures.
#
#######################################################################

data_XEXNOF
_symmetry_cell_setting           monoclinic
_symmetry_space_group_name_H-M   'C c'
_symmetry_Int_Tables_number      9
_space_group_name_Hall           'C -2yc'
loop_
_symmetry_equiv_pos_site_id
_symmetry_equiv_pos_as_xyz
1 x,y,z
2 x,-y,1/2+z
3 1/2+x,1/2+y,z
4 1/2+x,1/2-y,1/2+z
_cell_length_a                   22.707(3)
_cell_length_b                   10.2165(11)
_cell_length_c                   15.1394(16)
_cell_angle_alpha                90
_cell_angle_beta                 124.5430(10)
_cell_angle_gamma                90
_cell_volume                     2892.94
loop_
_atom_site_label
_atom_site_type_symbol
_atom_site_fract_x
_atom_site_fract_y
_atom_site_fract_z
Co1 Co 1.032476(16) 0.44295(3) 0.58838(2)
N1 N 0.94124(11) 0.3845(2) 0.57497(16)
N2 N 0.85850(10) 0.35629(19) 0.60537(16)
N3 N 0.60336(11) 0.3260(2) 0.96178(17)
N4 N 0.55690(12) 0.2156(2) 1.03229(17)
O1 O 1.00656(13) 0.6142(2) 0.51862(18)
O2 O 1.03139(19) 0.5680(2) 0.4013(2)
O3 O 0.59322(11) 0.9559(2) -0.25359(15)
O4 O 0.66472(13) 1.0005(2) -0.30222(16)
O5 O 0.84611(11) 1.21072(19) 0.26824(16)
O6 O 0.92959(10) 1.2356(2) 0.21348(19)
S1 S 0.88013(3) 1.15615(6) 0.22055(5)
C1 C 1.01137(13) 0.6414(3) 0.44252(19)
C2 C 0.98395(12) 0.7766(2) 0.39358(19)
C3 C 0.99471(14) 0.8231(2) 0.3180(2)
H1 H 1.0222 0.7750 0.3018
C4 C 0.96500(15) 0.9398(2) 0.2666(2)
H2 H 0.9724 0.9712 0.2160
C5 C 0.92403(12) 1.0098(2) 0.29108(18)
C6 C 0.91505(17) 0.9676(3) 0.3684(3)
H3 H 0.8884 1.0166 0.3856
C7 C 0.94606(18) 0.8511(3) 0.4206(3)
H4 H 0.9412 0.8228 0.4746
C8 C 0.65282(15) 0.9913(3) -0.2333(2)
C9 C 0.70978(14) 1.0261(2) -0.1169(2)
C10 C 0.77445(16) 1.0740(3) -0.0918(2)
H5 H 0.7831 1.0804 -0.1447
C11 C 0.82605(14) 1.1120(3) 0.0115(2)
H6 H 0.8697 1.1438 0.0286
C12 C 0.81285(12) 1.1030(2) 0.08967(18)
C13 C 0.74821(13) 1.0575(2) 0.0662(2)
H7 H 0.7392 1.0538 0.1188
C14 C 0.69683(13) 1.0172(2) -0.0384(2)
H8 H 0.6534 0.9839 -0.0554
C15 C 0.91976(13) 0.4173(2) 0.6362(2)
H9 H 0.9438 0.4753 0.6935
C16 C 0.89143(15) 0.2980(3) 0.5014(2)
H10 H 0.8928 0.2579 0.4475
C17 C 0.84055(17) 0.2800(3) 0.5188(2)
H11 H 0.8007 0.2262 0.4798
C18 C 0.81974(12) 0.3638(2) 0.65445(18)
C19 C 0.83524(14) 0.4590(2) 0.7292(2)
H12 H 0.8713 0.5196 0.7493
C20 C 0.79679(15) 0.4632(3) 0.7736(2)
H13 H 0.8076 0.5274 0.8243
C21 C 0.74180(14) 0.3743(2) 0.7452(2)
C22 C 0.72743(16) 0.2811(3) 0.6695(2)
H14 H 0.6913 0.2203 0.6486
C23 C 0.76547(16) 0.2765(3) 0.6246(2)
H15 H 0.7544 0.2133 0.5731
C24 C 0.57135(12) 0.2148(2) 0.95991(19)
H16 H 0.5607 0.1458 0.9131
C25 C 0.57966(19) 0.3346(3) 1.0821(3)
H17 H 0.5759 0.3637 1.1369
C26 C 0.60876(19) 0.4039(3) 1.0386(3)
H18 H 0.6283 0.4876 1.0578
C27 C 0.63463(13) 0.3496(2) 0.9028(2)
C28 C 0.59911(13) 0.3141(3) 0.7965(2)
H19 H 0.5527 0.2819 0.7601
C29 C 0.63248(13) 0.3264(3) 0.7447(2)
H20 H 0.6081 0.3022 0.6730
C30 C 0.70229(13) 0.3746(2) 0.7971(2)
C31 C 0.73613(16) 0.4147(3) 0.9040(2)
H21 H 0.7816 0.4515 0.9400
C32 C 0.70284(16) 0.4001(3) 0.9566(2)
H22 H 0.7264 0.4244 1.0282
Co1B Co 0.532476(16) 0.94295(3) -0.41162(2)
Co1C Co 0.532476(16) 0.05705(3) 1.08838(2)
N4C N 1.05690(12) 0.2844(2) 0.53229(17)
O3B O 1.09322(11) 0.4559(2) 0.74641(15)
loop_
_geom_bond_atom_site_label_1
_geom_bond_atom_site_label_2
_geom_bond_site_symmetry_1
_geom_bond_site_symmetry_2
Co1 N1 1_555 1_555
N1 C15 1_555 1_555
N2 C15 1_555 1_555
N3 C24 1_555 1_555
N4 C24 1_555 1_555
O1 Co1 1_555 1_555
O2 C1 1_555 1_555
O3 C8 1_555 1_555
O4 C8 1_555 1_555
O5 S1 1_555 1_555
O6 S1 1_555 1_555
S1 C5 1_555 1_555
C1 O1 1_555 1_555
C2 C1 1_555 1_555
C3 C2 1_555 1_555
H1 C3 1_555 1_555
C4 C3 1_555 1_555
H2 C4 1_555 1_555
C5 C4 1_555 1_555
C6 C5 1_555 1_555
H3 C6 1_555 1_555
C7 C2 1_555 1_555
H4 C7 1_555 1_555
C8 C9 1_555 1_555
C9 C10 1_555 1_555
C10 H5 1_555 1_555
C11 C10 1_555 1_555
H6 C11 1_555 1_555
C12 S1 1_555 1_555
C13 C12 1_555 1_555
H7 C13 1_555 1_555
C14 C9 1_555 1_555
H8 C14 1_555 1_555
C15 H9 1_555 1_555
C16 N1 1_555 1_555
H10 C16 1_555 1_555
C17 N2 1_555 1_555
H11 C17 1_555 1_555
C18 N2 1_555 1_555
C19 C18 1_555 1_555
H12 C19 1_555 1_555
C20 C19 1_555 1_555
H13 C20 1_555 1_555
C21 C20 1_555 1_555
C22 C21 1_555 1_555
H14 C22 1_555 1_555
C23 C18 1_555 1_555
H15 C23 1_555 1_555
C24 H16 1_555 1_555
C25 N4 1_555 1_555
H17 C25 1_555 1_555
C26 N3 1_555 1_555
H18 C26 1_555 1_555
C27 N3 1_555 1_555
C28 C27 1_555 1_555
H19 C28 1_555 1_555
C29 C28 1_555 1_555
H20 C29 1_555 1_555
C30 C21 1_555 1_555
C31 C30 1_555 1_555
H21 C31 1_555 1_555
C32 C27 1_555 1_555
H22 C32 1_555 1_555
Co1B O3 1_555 1_555
Co1C N4 1_555 1_555
N4C Co1 1_555 1_555
O3B Co1 1_555 1_555
C6 C7 1_555 1_555
C11 C12 1_555 1_555
C13 C14 1_555 1_555
C16 C17 1_555 1_555
C22 C23 1_555 1_555
C25 C26 1_555 1_555
C29 C30 1_555 1_555
C31 C32 1_555 1_555

#END
