
#######################################################################
#
#                 Cambridge Crystallographic Data Centre
#                                CCDC 
#
#######################################################################
#
# If this CIF has been generated from an entry in the Cambridge 
# Structural Database, then it will include bibliographic, chemical, 
# crystal, experimental, refinement or atomic coordinate data resulting 
# from the CCDC's data processing and validation procedures.
#
#######################################################################

data_XEXPUN
_symmetry_cell_setting           orthorhombic
_symmetry_space_group_name_H-M   'P b c n'
_symmetry_Int_Tables_number      60
_space_group_name_Hall           '-P 2n 2ab'
loop_
_symmetry_equiv_pos_site_id
_symmetry_equiv_pos_as_xyz
1 x,y,z
2 1/2-x,1/2-y,1/2+z
3 -x,y,1/2-z
4 1/2+x,1/2-y,-z
5 -x,-y,-z
6 1/2+x,1/2+y,1/2-z
7 x,-y,1/2+z
8 1/2-x,1/2+y,z
_cell_length_a                   20.452(3)
_cell_length_b                   7.2803(10)
_cell_length_c                   21.203(3)
_cell_angle_alpha                90
_cell_angle_beta                 90
_cell_angle_gamma                90
_cell_volume                     3157.06
loop_
_atom_site_label
_atom_site_type_symbol
_atom_site_fract_x
_atom_site_fract_y
_atom_site_fract_z
Zn1 Zn 1.10708(2) 0.60170(8) 0.40713(2)
Cl1 Cl 1.13321(6) 0.3126(2) 0.37910(7)
N1 N 1.00720(18) 0.6031(5) 0.40620(16)
N2 N 0.77339(16) 0.5348(5) 0.33915(16)
N3 N 0.63572(17) 0.2706(5) 0.16509(17)
O1 O 0.66753(15) 0.8242(5) 0.52736(15)
O2 O 0.58844(18) 0.6606(7) 0.4851(2)
C1 C 0.9699(2) 0.6878(7) 0.4489(2)
H1 H 0.9904 0.7489 0.4820
C2 C 0.9028(2) 0.6894(7) 0.4466(2)
H2 H 0.8792 0.7484 0.4781
C3 C 0.8702(2) 0.6040(6) 0.3978(2)
C4 C 0.9092(2) 0.5155(7) 0.3528(2)
H3 H 0.8899 0.4559 0.3187
C5 C 0.9754(2) 0.5171(7) 0.3589(2)
H4 H 1.0001 0.4553 0.3289
C6 C 0.7980(2) 0.6014(6) 0.39268(19)
C7 C 0.7585(2) 0.6612(6) 0.4424(2)
H5 H 0.7770 0.7055 0.4795
C8 C 0.6915(2) 0.6530(6) 0.4353(2)
C9 C 0.6661(2) 0.5845(6) 0.3795(2)
H6 H 0.6211 0.5773 0.3737
C10 C 0.7083(2) 0.5268(6) 0.33226(19)
C11 C 0.7000(2) 0.2961(7) 0.1743(2)
H7 H 0.7290 0.2542 0.1437
C12 C 0.7247(2) 0.3805(6) 0.2265(2)
H8 H 0.7696 0.3941 0.2311
C13 C 0.6828(2) 0.4462(6) 0.2727(2)
C14 C 0.6166(2) 0.4254(7) 0.2620(2)
H9 H 0.5864 0.4704 0.2909
C15 C 0.5958(2) 0.3377(8) 0.2082(2)
H10 H 0.5510 0.3249 0.2018
C16 C 0.6453(2) 0.7148(7) 0.4865(2)
Zn1C Zn 0.60708(2) 0.89830(8) 0.59287(2)
Zn1E Zn 0.60708(2) 0.10170(8) 0.09287(2)
N3E N 1.13572(17) 0.7706(5) 0.33491(17)
O1C O 1.16753(15) 0.6758(5) 0.47264(15)
O3 O 1.0010(2) 0.9329(7) 0.6206(3)
H11 H 0.9610(15) 0.902(9) 0.611(3)
H12 H 1.024(3) 0.902(9) 0.588(2)
loop_
_geom_bond_atom_site_label_1
_geom_bond_atom_site_label_2
_geom_bond_site_symmetry_1
_geom_bond_site_symmetry_2
Zn1 Cl1 1_555 1_555
N1 Zn1 1_555 1_555
N2 C6 1_555 1_555
N3 C11 1_555 1_555
O1 C16 1_555 1_555
O2 C16 1_555 1_555
C1 N1 1_555 1_555
H1 C1 1_555 1_555
C2 C1 1_555 1_555
H2 C2 1_555 1_555
C3 C2 1_555 1_555
C4 C3 1_555 1_555
H3 C4 1_555 1_555
C5 N1 1_555 1_555
H4 C5 1_555 1_555
C6 C3 1_555 1_555
C7 C6 1_555 1_555
H5 C7 1_555 1_555
C8 C7 1_555 1_555
C9 C8 1_555 1_555
H6 C9 1_555 1_555
C10 N2 1_555 1_555
C11 H7 1_555 1_555
C12 C11 1_555 1_555
H8 C12 1_555 1_555
C13 C10 1_555 1_555
C14 C13 1_555 1_555
H9 C14 1_555 1_555
C15 N3 1_555 1_555
H10 C15 1_555 1_555
C16 C8 1_555 1_555
O3 H11 1_555 1_555
H12 O3 1_555 1_555
Zn1C O1 1_555 1_555
Zn1E N3 1_555 1_555
N3E Zn1 1_555 1_555
O1C Zn1 1_555 1_555
C4 C5 1_555 1_555
C9 C10 1_555 1_555
C12 C13 1_555 1_555
C14 C15 1_555 1_555

#END
