
#######################################################################
#
#                 Cambridge Crystallographic Data Centre
#                                CCDC 
#
#######################################################################
#
# If this CIF has been generated from an entry in the Cambridge 
# Structural Database, then it will include bibliographic, chemical, 
# crystal, experimental, refinement or atomic coordinate data resulting 
# from the CCDC's data processing and validation procedures.
#
#######################################################################

data_XEXPIB
_symmetry_cell_setting           monoclinic
_symmetry_space_group_name_H-M   'P 21/n'
_symmetry_Int_Tables_number      14
_space_group_name_Hall           '-P 2yn'
loop_
_symmetry_equiv_pos_site_id
_symmetry_equiv_pos_as_xyz
1 x,y,z
2 1/2-x,1/2+y,1/2-z
3 -x,-y,-z
4 1/2+x,1/2-y,1/2+z
_cell_length_a                   9.5561(7)
_cell_length_b                   16.1623(12)
_cell_length_c                   11.5060(8)
_cell_angle_alpha                90
_cell_angle_beta                 101.3980(10)
_cell_angle_gamma                90
_cell_volume                     1742.04
loop_
_atom_site_label
_atom_site_type_symbol
_atom_site_fract_x
_atom_site_fract_y
_atom_site_fract_z
Cu1 Cu 0.60794(4) 0.79766(2) 1.10292(3)
N1 N 0.5707(3) 0.82480(17) 0.9278(2)
N2 N 0.3255(3) 0.95314(16) 0.5494(2)
N3 N -0.0131(3) 1.18613(17) 0.4188(2)
O1 O 0.5763(2) 0.80626(13) 0.26807(18)
O2 O 0.3928(3) 0.86399(19) 0.1496(2)
O3 O 0.7219(3) 0.89885(16) 1.1240(2)
O4 O 0.8651(3) 0.80116(16) 1.0845(3)
C1 C 0.6286(4) 0.7913(2) 0.8428(3)
H1 H 0.6993 0.7514 0.8638
C2 C 0.5886(4) 0.8130(2) 0.7251(3)
H2 H 0.6317 0.7878 0.6686
C3 C 0.4845(3) 0.87208(18) 0.6911(3)
C4 C 0.4311(4) 0.9104(2) 0.7805(3)
H3 H 0.3648 0.9529 0.7626
C5 C 0.4767(4) 0.8854(2) 0.8958(3)
H4 H 0.4399 0.9122 0.9547
C6 C 0.4266(3) 0.89467(19) 0.5648(2)
C7 C 0.4739(3) 0.85836(19) 0.4704(2)
H5 H 0.5457 0.8186 0.4833
C8 C 0.4120(3) 0.88259(19) 0.3564(3)
C9 C 0.3062(3) 0.9418(2) 0.3401(3)
H6 H 0.2625 0.9582 0.2641
C10 C 0.2657(3) 0.97667(19) 0.4391(3)
C11 C -0.0164(4) 1.1361(2) 0.3250(3)
H7 H -0.0790 1.1490 0.2546
C12 C 0.0682(4) 1.0669(2) 0.3278(3)
H8 H 0.0621 1.0343 0.2603
C13 C 0.1624(3) 1.0457(2) 0.4313(3)
C14 C 0.1610(4) 1.0956(2) 0.5289(3)
H9 H 0.2190 1.0828 0.6014
C15 C 0.0749(4) 1.1637(2) 0.5189(3)
H10 H 0.0776 1.1963 0.5859
C16 C 0.4621(4) 0.8486(2) 0.2494(3)
C17 C 0.8336(4) 0.8746(2) 1.0930(3)
C18 C 0.9215(4) 0.9400(2) 1.0460(3)
C19 C 0.8647(4) 1.0177(2) 1.0161(3)
H11 H 0.7727 1.0297 1.0262
C20 C 0.9424(4) 1.0777(2) 0.9716(3)
H12 H 0.9034 1.1300 0.9535
O3B O 1.2781(3) 1.10115(16) 0.8760(2)
O4B O 1.1349(3) 1.19884(16) 0.9155(3)
C17B C 1.1664(4) 1.1254(2) 0.9070(3)
C18B C 1.0785(4) 1.0600(2) 0.9540(3)
C19B C 1.1353(4) 0.9823(2) 0.9839(3)
H11B H 1.2273 0.9703 0.9738
C20B C 1.0576(4) 0.9223(2) 1.0284(3)
H12B H 1.0966 0.8700 1.0465
Cu1B Cu 1.39206(4) 1.20234(2) 0.89708(3)
N1B N 1.4293(3) 1.17520(17) 1.0722(2)
N2B N 1.6745(3) 1.04686(16) 1.4506(2)
N3B N 2.0131(3) 0.81387(17) 1.5812(2)
O1B O 1.4237(2) 1.19374(13) 1.73193(18)
O2B O 1.6072(3) 1.13601(19) 1.8504(2)
C1B C 1.3714(4) 1.2087(2) 1.1572(3)
H1B H 1.3007 1.2486 1.1362
C2B C 1.4114(4) 1.1870(2) 1.2749(3)
H2B H 1.3683 1.2122 1.3314
C3B C 1.5155(3) 1.12792(18) 1.3089(3)
C4B C 1.5689(4) 1.0896(2) 1.2195(3)
H3B H 1.6352 1.0471 1.2374
C5B C 1.5233(4) 1.1146(2) 1.1042(3)
H4B H 1.5601 1.0878 1.0453
C6B C 1.5734(3) 1.10533(19) 1.4352(2)
C7B C 1.5261(3) 1.14164(19) 1.5296(2)
H5B H 1.4543 1.1814 1.5167
C8B C 1.5880(3) 1.11741(19) 1.6436(3)
C9B C 1.6938(3) 1.0582(2) 1.6599(3)
H6B H 1.7375 1.0418 1.7359
C10B C 1.7343(3) 1.02333(19) 1.5609(3)
C11B C 2.0164(4) 0.8639(2) 1.6750(3)
H7B H 2.0790 0.8510 1.7454
C12B C 1.9318(4) 0.9331(2) 1.6722(3)
H8B H 1.9379 0.9657 1.7397
C13B C 1.8376(3) 0.9543(2) 1.5687(3)
C14B C 1.8390(4) 0.9044(2) 1.4711(3)
H9B H 1.7810 0.9172 1.3986
C15B C 1.9251(4) 0.8363(2) 1.4811(3)
H10B H 1.9224 0.8037 1.4141
C16B C 1.5379(4) 1.1514(2) 1.7506(3)
Cu1_2 Cu 0.60794(4) 0.79766(2) 0.10292(3)
Cu1A Cu -0.10794(4) 1.29766(2) 0.39708(3)
Cu1B_2 Cu 1.39206(4) 1.20234(2) 1.89708(3)
Cu1C Cu 2.10794(4) 0.70234(2) 1.60292(3)
N3A N 0.5131(3) 0.68613(17) 1.0812(2)
N3C N 1.4869(3) 1.31387(17) 0.9188(2)
O1_2 O 0.5763(2) 0.80626(13) 1.26807(18)
O1B_2 O 1.4237(2) 1.19374(13) 0.73193(18)
O2_2 O 0.3928(3) 0.86399(19) 1.1496(2)
O2B_2 O 1.6072(3) 1.13601(19) 0.8504(2)
loop_
_geom_bond_atom_site_label_1
_geom_bond_atom_site_label_2
_geom_bond_site_symmetry_1
_geom_bond_site_symmetry_2
Cu1 N1 1_555 1_555
N1 C1 1_555 1_555
N2 C6 1_555 1_555
N3 C11 1_555 1_555
O1 C16 1_555 1_555
O2 C16 1_555 1_555
O3 Cu1 1_555 1_555
O4 Cu1 1_555 1_555
C1 H1 1_555 1_555
C2 C1 1_555 1_555
H2 C2 1_555 1_555
C3 C2 1_555 1_555
C4 C3 1_555 1_555
H3 C4 1_555 1_555
C5 N1 1_555 1_555
H4 C5 1_555 1_555
C6 C3 1_555 1_555
C7 C6 1_555 1_555
H5 C7 1_555 1_555
C8 C7 1_555 1_555
C9 C8 1_555 1_555
H6 C9 1_555 1_555
C10 N2 1_555 1_555
C11 H7 1_555 1_555
C12 C11 1_555 1_555
H8 C12 1_555 1_555
C13 C10 1_555 1_555
C14 C13 1_555 1_555
H9 C14 1_555 1_555
C15 N3 1_555 1_555
H10 C15 1_555 1_555
C16 C8 1_555 1_555
C17 O3 1_555 1_555
C18 C17 1_555 1_555
C19 C18 1_555 1_555
H11 C19 1_555 1_555
C20 C19 1_555 1_555
H12 C20 1_555 1_555
O3B C17B 1_555 1_555
O4B C17B 1_555 1_555
C17B C18B 1_555 1_555
C18B C20 1_555 1_555
C19B C18B 1_555 1_555
H11B C19B 1_555 1_555
C20B C18 1_555 1_555
H12B C20B 1_555 1_555
Cu1B O3B 1_555 1_555
N1B Cu1B 1_555 1_555
N2B C6B 1_555 1_555
N3B C11B 1_555 1_555
O1B C16B 1_555 1_555
O2B C16B 1_555 1_555
C1B N1B 1_555 1_555
H1B C1B 1_555 1_555
C2B C1B 1_555 1_555
H2B C2B 1_555 1_555
C3B C2B 1_555 1_555
C4B C3B 1_555 1_555
H3B C4B 1_555 1_555
C5B N1B 1_555 1_555
H4B C5B 1_555 1_555
C6B C3B 1_555 1_555
C7B C6B 1_555 1_555
H5B C7B 1_555 1_555
C8B C7B 1_555 1_555
C9B C8B 1_555 1_555
H6B C9B 1_555 1_555
C10B N2B 1_555 1_555
C11B H7B 1_555 1_555
C12B C11B 1_555 1_555
H8B C12B 1_555 1_555
C13B C10B 1_555 1_555
C14B C13B 1_555 1_555
H9B C14B 1_555 1_555
C15B N3B 1_555 1_555
H10B C15B 1_555 1_555
C16B C8B 1_555 1_555
Cu1_2 O1 1_555 1_555
Cu1A N3 1_555 1_555
Cu1B_2 O1B 1_555 1_555
Cu1C N3B 1_555 1_555
N3A Cu1 1_555 1_555
N3C Cu1B 1_555 1_555
O1_2 Cu1 1_555 1_555
O1B_2 Cu1B 1_555 1_555
O2_2 Cu1 1_555 1_555
O2B_2 Cu1B 1_555 1_555
O2 Cu1_2 1_555 1_555
O4 C17 1_555 1_555
C4 C5 1_555 1_555
C9 C10 1_555 1_555
C12 C13 1_555 1_555
C14 C15 1_555 1_555
O4B Cu1B 1_555 1_555
C19B C20B 1_555 1_555
O2B Cu1B_2 1_555 1_555
C4B C5B 1_555 1_555
C9B C10B 1_555 1_555
C12B C13B 1_555 1_555
C14B C15B 1_555 1_555

#END
