
#######################################################################
#
#                 Cambridge Crystallographic Data Centre
#                                CCDC 
#
#######################################################################
#
# If this CIF has been generated from an entry in the Cambridge 
# Structural Database, then it will include bibliographic, chemical, 
# crystal, experimental, refinement or atomic coordinate data resulting 
# from the CCDC's data processing and validation procedures.
#
#######################################################################

data_XEXPOH
_symmetry_cell_setting           triclinic
_symmetry_space_group_name_H-M   'P -1'
_symmetry_Int_Tables_number      2
_space_group_name_Hall           '-P 1'
loop_
_symmetry_equiv_pos_site_id
_symmetry_equiv_pos_as_xyz
1 x,y,z
2 -x,-y,-z
_cell_length_a                   7.769(4)
_cell_length_b                   9.854(5)
_cell_length_c                   11.197(6)
_cell_angle_alpha                82.189(9)
_cell_angle_beta                 80.792(9)
_cell_angle_gamma                73.980(9)
_cell_volume                     809.478
loop_
_atom_site_label
_atom_site_type_symbol
_atom_site_fract_x
_atom_site_fract_y
_atom_site_fract_z
Zn1 Zn 0.25293(6) 0.58720(4) 0.94871(4)
N1 N 0.1503(4) 0.6464(3) 0.1161(3)
N2 N -0.1702(4) 0.9186(3) 0.4627(3)
N3 N -0.6329(5) 1.3762(4) 0.5246(4)
O1 O 0.1404(4) 0.6142(3) 0.8012(2)
O2 O 0.0425(5) 0.8269(3) 0.8628(3)
O3 O 0.3246(4) 0.3795(3) 0.9638(3)
O4 O 0.5344(4) 0.3346(3) 1.0872(2)
C1 C 0.1638(6) 0.5591(4) 0.2160(4)
H1 H 0.2156 0.4631 0.2080
C2 C 0.1065(5) 0.6001(4) 0.3317(3)
H2 H 0.1238 0.5340 0.3992
C3 C 0.0229(5) 0.7409(4) 0.3455(3)
C4 C 0.0056(5) 0.8327(4) 0.2406(3)
H3 H -0.0508 0.9285 0.2458
C5 C 0.0700(5) 0.7842(4) 0.1307(3)
H4 H 0.0585 0.8488 0.0619
C6 C -0.0438(5) 0.7961(4) 0.4651(3)
C7 C 0.0271(5) 0.7296(4) 0.5711(3)
H5 H 0.1140 0.6431 0.5710
C8 C -0.0356(5) 0.7958(4) 0.6757(3)
C9 C -0.1701(5) 0.9205(4) 0.6738(3)
H6 H -0.2164 0.9646 0.7446
C10 C -0.2355(5) 0.9792(4) 0.5657(3)
C11 C -0.5864(6) 1.3190(5) 0.6323(4)
H7 H -0.6432 1.3671 0.6998
C12 C -0.4585(6) 1.1923(5) 0.6504(4)
H8 H -0.4287 1.1584 0.7281
C13 C -0.3751(5) 1.1163(4) 0.5534(3)
C14 C -0.4218(5) 1.1761(4) 0.4409(4)
H9 H -0.3686 1.1301 0.3718
C15 C -0.5479(6) 1.3044(5) 0.4319(4)
H10 H -0.5755 1.3437 0.3547
C16 C 0.0520(5) 0.7428(4) 0.7894(3)
C17 C 0.4431(5) 0.2968(4) 1.0210(3)
C18 C 0.4726(5) 0.1423(4) 1.0117(3)
C19 C 0.6066(5) 0.0436(4) 1.0660(4)
H11 H 0.6785 0.0724 1.1111
C20 C 0.6344(5) -0.0984(4) 1.0535(4)
H12 H 0.7263 -0.1650 1.0894
O3A O 0.6754(4) -0.3795(3) 1.0362(3)
O4A O 0.4656(4) -0.3346(3) 0.9128(2)
C17A C 0.5569(5) -0.2968(4) 0.9790(3)
C18A C 0.5274(5) -0.1423(4) 0.9883(3)
C19A C 0.3934(5) -0.0436(4) 0.9340(4)
H11A H 0.3215 -0.0724 0.8889
C20A C 0.3656(5) 0.0984(4) 0.9465(4)
H12A H 0.2737 0.1650 0.9106
Zn1A Zn 0.74707(6) -0.58720(4) 1.05129(4)
N1A N 0.8497(4) -0.6464(3) 1.8839(3)
N2A N 1.1702(4) -0.9186(3) 1.5373(3)
N3A N 1.6329(5) -1.3762(4) 1.4754(4)
O1A O 0.8596(4) -0.6142(3) 1.1988(2)
O2A O 0.9575(5) -0.8269(3) 1.1372(3)
C1A C 0.8362(6) -0.5591(4) 1.7840(4)
H1A H 0.7844 -0.4631 1.7920
C2A C 0.8935(5) -0.6001(4) 1.6683(3)
H2A H 0.8762 -0.5340 1.6008
C3A C 0.9771(5) -0.7409(4) 1.6545(3)
C4A C 0.9944(5) -0.8327(4) 1.7594(3)
H3A H 1.0508 -0.9285 1.7542
C5A C 0.9300(5) -0.7842(4) 1.8693(3)
H4A H 0.9415 -0.8488 1.9381
C6A C 1.0438(5) -0.7961(4) 1.5349(3)
C7A C 0.9729(5) -0.7296(4) 1.4289(3)
H5A H 0.8860 -0.6431 1.4290
C8A C 1.0356(5) -0.7958(4) 1.3243(3)
C9A C 1.1701(5) -0.9205(4) 1.3262(3)
H6A H 1.2164 -0.9646 1.2554
C10A C 1.2355(5) -0.9792(4) 1.4343(3)
C11A C 1.5864(6) -1.3190(5) 1.3677(4)
H7A H 1.6432 -1.3671 1.3002
C12A C 1.4585(6) -1.1923(5) 1.3496(4)
H8A H 1.4287 -1.1584 1.2719
C13A C 1.3751(5) -1.1163(4) 1.4466(3)
C14A C 1.4218(5) -1.1761(4) 1.5591(4)
H9A H 1.3686 -1.1301 1.6282
C15A C 1.5479(6) -1.3044(5) 1.5681(4)
H10A H 1.5755 -1.3437 1.6453
C16A C 0.9480(5) -0.7428(4) 1.2106(3)
Zn1_2 Zn 0.25293(6) -0.41280(4) 0.94871(4)
Zn1_3 Zn 0.25293(6) 0.58720(4) -0.05129(4)
Zn1A_2 Zn 0.74707(6) -0.58720(4) 2.05129(4)
Zn1A_3 Zn 0.74707(6) 0.41280(4) 1.05129(4)
N1_2 N 0.1503(4) 0.6464(3) 1.1161(3)
N1A_2 N 0.8497(4) -0.6464(3) 0.8839(3)
O4_2 O 0.5344(4) -0.6654(3) 1.0872(2)
O4A_2 O 0.4656(4) 0.6654(3) 0.9128(2)
loop_
_geom_bond_atom_site_label_1
_geom_bond_atom_site_label_2
_geom_bond_site_symmetry_1
_geom_bond_site_symmetry_2
Zn1 O1 1_555 1_555
N1 C1 1_555 1_555
N2 C6 1_555 1_555
N3 C11 1_555 1_555
O1 C16 1_555 1_555
O2 C16 1_555 1_555
O3 Zn1 1_555 1_555
O4 C17 1_555 1_555
C1 H1 1_555 1_555
C2 C1 1_555 1_555
H2 C2 1_555 1_555
C3 C2 1_555 1_555
C4 C3 1_555 1_555
H3 C4 1_555 1_555
C5 N1 1_555 1_555
H4 C5 1_555 1_555
C6 C3 1_555 1_555
C7 C6 1_555 1_555
H5 C7 1_555 1_555
C8 C7 1_555 1_555
C9 C8 1_555 1_555
H6 C9 1_555 1_555
C10 N2 1_555 1_555
C11 H7 1_555 1_555
C12 C11 1_555 1_555
H8 C12 1_555 1_555
C13 C10 1_555 1_555
C14 C13 1_555 1_555
H9 C14 1_555 1_555
C15 N3 1_555 1_555
H10 C15 1_555 1_555
C16 C8 1_555 1_555
C17 O3 1_555 1_555
C18 C17 1_555 1_555
C19 C18 1_555 1_555
H11 C19 1_555 1_555
C20 C19 1_555 1_555
H12 C20 1_555 1_555
O3A C17A 1_555 1_555
O4A C17A 1_555 1_555
C17A C18A 1_555 1_555
C18A C20 1_555 1_555
C19A C18A 1_555 1_555
H11A C19A 1_555 1_555
C20A C18 1_555 1_555
H12A C20A 1_555 1_555
Zn1A O3A 1_555 1_555
N1A C1A 1_555 1_555
N2A C6A 1_555 1_555
N3A C11A 1_555 1_555
O1A Zn1A 1_555 1_555
O2A C16A 1_555 1_555
C1A H1A 1_555 1_555
C2A C1A 1_555 1_555
H2A C2A 1_555 1_555
C3A C2A 1_555 1_555
C4A C3A 1_555 1_555
H3A C4A 1_555 1_555
C5A N1A 1_555 1_555
H4A C5A 1_555 1_555
C6A C3A 1_555 1_555
C7A C6A 1_555 1_555
H5A C7A 1_555 1_555
C8A C7A 1_555 1_555
C9A C8A 1_555 1_555
H6A C9A 1_555 1_555
C10A N2A 1_555 1_555
C11A H7A 1_555 1_555
C12A C11A 1_555 1_555
H8A C12A 1_555 1_555
C13A C10A 1_555 1_555
C14A C13A 1_555 1_555
H9A C14A 1_555 1_555
C15A N3A 1_555 1_555
H10A C15A 1_555 1_555
C16A O1A 1_555 1_555
Zn1_2 O4A 1_555 1_555
Zn1_3 N1 1_555 1_555
Zn1A_2 N1A 1_555 1_555
Zn1A_3 O4 1_555 1_555
N1_2 Zn1 1_555 1_555
N1A_2 Zn1A 1_555 1_555
O4_2 Zn1A 1_555 1_555
O4A_2 Zn1 1_555 1_555
C4 C5 1_555 1_555
C9 C10 1_555 1_555
C12 C13 1_555 1_555
C14 C15 1_555 1_555
C19A C20A 1_555 1_555
C4A C5A 1_555 1_555
C8A C16A 1_555 1_555
C9A C10A 1_555 1_555
C12A C13A 1_555 1_555
C14A C15A 1_555 1_555

#END
