
#######################################################################
#
#                 Cambridge Crystallographic Data Centre
#                                CCDC 
#
#######################################################################
#
# If this CIF has been generated from an entry in the Cambridge 
# Structural Database, then it will include bibliographic, chemical, 
# crystal, experimental, refinement or atomic coordinate data resulting 
# from the CCDC's data processing and validation procedures.
#
#######################################################################

data_XEXSAU
_symmetry_cell_setting           orthorhombic
_symmetry_space_group_name_H-M   'P b c a'
_symmetry_Int_Tables_number      61
_space_group_name_Hall           '-P 2ac 2ab'
loop_
_symmetry_equiv_pos_site_id
_symmetry_equiv_pos_as_xyz
1 x,y,z
2 1/2-x,-y,1/2+z
3 1/2+x,1/2-y,-z
4 -x,1/2+y,1/2-z
5 -x,-y,-z
6 1/2+x,y,1/2-z
7 1/2-x,1/2+y,z
8 x,1/2-y,1/2+z
_cell_length_a                   11.390(1)
_cell_length_b                   14.742(1)
_cell_length_c                   16.755(1)
_cell_angle_alpha                90
_cell_angle_beta                 90
_cell_angle_gamma                90
_cell_volume                     2813.36
loop_
_atom_site_label
_atom_site_type_symbol
_atom_site_fract_x
_atom_site_fract_y
_atom_site_fract_z
Sn1 Sn 0.6307(1) 0.1785(1) 0.6805(1)
Sn2 Sn 1.0906(1) 0.3884(1) 0.6335(1)
O1 O 0.7566(9) 0.2696(6) 0.7419(5)
O2 O 0.7506(8) 0.2383(6) 0.5850(5)
O3 O 0.7751(7) 0.0794(6) 0.6782(5)
O4 O 0.6548(7) 0.1139(7) 0.8142(5)
O5 O 1.2392(8) 0.5088(6) 0.6223(6)
O6 O 1.1134(8) 0.4836(7) 0.7541(5)
O7 O 0.9156(8) 0.3158(6) 0.5668(5)
O8 O 0.9134(10) 0.3605(8) 0.7150(6)
O9 O 1.1082(7) 0.4172(6) 0.4923(5)
O10 O 0.9780(7) 0.5044(6) 0.6032(5)
C2 C 0.8346(13) 0.2861(8) 0.6099(9)
C3 C 0.8351(14) 0.3094(10) 0.7003(9)
C4 C 0.8040(10) 0.0396(10) 0.7421(8)
C5 C 0.7316(11) 0.0572(9) 0.8186(8)
C6 C 1.0376(11) 0.4730(8) 0.4689(8)
C5C C 1.2684(11) 0.5572(9) 0.6814(8)
C4C C 1.1960(10) 0.5396(10) 0.7579(8)
C6D C 0.9624(11) 0.5270(8) 0.5311(8)
O6C O 0.8866(8) -0.0164(7) 0.7459(5)
O5C O 0.7608(8) 0.0088(6) 0.8777(6)
O10D O 1.0220(7) 0.4956(6) 0.3968(5)
O4C O 1.3452(7) 0.6139(7) 0.6858(5)
O3C O 1.2249(7) 0.5794(6) 0.8218(5)
O9D O 0.8918(7) 0.5828(6) 0.5077(5)
Sn2C Sn 0.9094(1) -0.1116(1) 0.8665(1)
Sn2D Sn 0.9094(1) 0.6116(1) 0.3665(1)
Sn1C Sn 1.3693(1) 0.6785(1) 0.8195(1)
O7C O 1.0844(8) -0.1842(6) 0.9332(5)
O8C O 1.0866(10) -0.1395(8) 0.7850(6)
O9C O 0.8918(7) -0.0828(6) 1.0077(5)
O10C O 1.0220(7) 0.0044(6) 0.8968(5)
O1C O 1.2434(9) 0.7696(6) 0.7581(5)
O2C O 1.2494(8) 0.7383(6) 0.9150(5)
C2C C 1.1654(13) -0.2139(8) 0.8901(9)
C3C C 1.1649(14) -0.1906(10) 0.7997(9)
O2C_2 O 1.2494(8) -0.2617(6) 0.9150(5)
O1C_2 O 1.2434(9) -0.2304(6) 0.7581(5)
Sn1C_2 Sn 1.3693(1) -0.3215(1) 0.8195(1)
O11 O 0.8377(15) 0.2603(15) 0.9121(10)
N1 N 1.1541(9) 0.4655(8) 0.9637(6)
N2 N 1.0132(9) 0.3936(8) 0.8953(6)
N3 N 1.0476(11) 0.3584(8) 1.0252(7)
C1 C 1.0708(11) 0.4052(9) 0.9611(8)
loop_
_geom_bond_atom_site_label_1
_geom_bond_atom_site_label_2
_geom_bond_site_symmetry_1
_geom_bond_site_symmetry_2
Sn1 O1 1_555 1_555
Sn2 O5 1_555 1_555
O1 C3 1_555 1_555
O2 Sn1 1_555 1_555
O3 Sn1 1_555 1_555
O4 Sn1 1_555 1_555
O5 C5C 1_555 1_555
O6 Sn2 1_555 1_555
O7 Sn2 1_555 1_555
O8 Sn2 1_555 1_555
O9 Sn2 1_555 1_555
O10 Sn2 1_555 1_555
N1 C1 1_555 1_555
N2 C1 1_555 1_555
N3 C1 1_555 1_555
C2 O2 1_555 1_555
C3 O8 1_555 1_555
C4 O3 1_555 1_555
C5 O4 1_555 1_555
C6 O9 1_555 1_555
C5C C4C 1_555 1_555
C4C O6 1_555 1_555
C6D O10 1_555 1_555
O6C C4 1_555 1_555
O5C C5 1_555 1_555
O10D C6 1_555 1_555
O4C C5C 1_555 1_555
O3C C4C 1_555 1_555
O9D C6D 1_555 1_555
Sn2C O6C 1_555 1_555
Sn2D O10D 1_555 1_555
Sn1C O4C 1_555 1_555
O7C Sn2C 1_555 1_555
O8C Sn2C 1_555 1_555
O9C Sn2C 1_555 1_555
O10C Sn2C 1_555 1_555
O1C Sn1C 1_555 1_555
O2C Sn1C 1_555 1_555
C2C O7C 1_555 1_555
C3C O8C 1_555 1_555
O2C_2 C2C 1_555 1_555
O1C_2 C3C 1_555 1_555
Sn1C_2 O2C_2 1_555 1_555
O7 C2 1_555 1_555
C2 C3 1_555 1_555
C4 C5 1_555 1_555
C6 C6D 1_555 1_555
O5C Sn2C 1_555 1_555
O3C Sn1C 1_555 1_555
O9D Sn2D 1_555 1_555
C2C C3C 1_555 1_555
O1C_2 Sn1C_2 1_555 1_555

#END
