
#######################################################################
#
#                 Cambridge Crystallographic Data Centre
#                                CCDC 
#
#######################################################################
#
# If this CIF has been generated from an entry in the Cambridge 
# Structural Database, then it will include bibliographic, chemical, 
# crystal, experimental, refinement or atomic coordinate data resulting 
# from the CCDC's data processing and validation procedures.
#
#######################################################################

data_XEXXEF
_symmetry_cell_setting           orthorhombic
_symmetry_space_group_name_H-M   'P c c n'
_symmetry_Int_Tables_number      56
_space_group_name_Hall           '-P 2ab 2ac'
loop_
_symmetry_equiv_pos_site_id
_symmetry_equiv_pos_as_xyz
1 x,y,z
2 1/2-x,1/2-y,z
3 1/2+x,-y,1/2-z
4 -x,1/2+y,1/2-z
5 -x,-y,-z
6 1/2+x,1/2+y,-z
7 1/2-x,y,1/2+z
8 x,1/2-y,1/2+z
_cell_length_a                   15.3803(19)
_cell_length_b                   15.4163(19)
_cell_length_c                   16.980(2)
_cell_angle_alpha                90
_cell_angle_beta                 90
_cell_angle_gamma                90
_cell_volume                     4026.08
loop_
_atom_site_label
_atom_site_type_symbol
_atom_site_fract_x
_atom_site_fract_y
_atom_site_fract_z
Sc1 Sc 0.2500 0.2500 0.19545(6)
O1 O 0.1907(2) 0.12838(18) 0.17045(18)
O2 O 0.1229(2) 0.28890(18) 0.16661(17)
O3 O 0.28083(19) 0.16995(18) 0.29375(16)
C1 C 0.1014(4) 0.0094(3) 0.1384(3)
H1 H 0.1470 -0.0223 0.1666
H2 H 0.1004 -0.0092 0.0832
H3 H 0.0449 -0.0026 0.1627
C2 C 0.1196(3) 0.1045(3) 0.1424(3)
C3 C 0.0563(3) 0.1644(3) 0.1146(3)
C4 C 0.0628(3) 0.2550(3) 0.1259(2)
C5 C -0.0032(3) 0.3155(3) 0.0913(3)
H4 H -0.0382 0.3409 0.1336
H5 H -0.0410 0.2833 0.0552
H6 H 0.0266 0.3618 0.0624
C6 C 0.2994(3) 0.0940(3) 0.4138(3)
H7 H 0.3016 0.0436 0.3786
H8 H 0.2557 0.0840 0.4548
H9 H 0.3564 0.1025 0.4382
C7 C -0.0190(3) 0.1302(3) 0.0754(3)
C8 C 0.2753(3) 0.1734(3) 0.3672(3)
C9 C 0.2500 0.2500 0.4070(4)
C10 C 0.2500 0.2500 0.4912(4)
N1 N -0.0793(3) 0.1020(3) 0.0444(3)
N2 N 0.2500 0.2500 0.5582(3)
O3A O 0.21917(19) 0.33005(18) 0.29375(16)
C6A C 0.2006(3) 0.4060(3) 0.4138(3)
H7A H 0.1984 0.4564 0.3786
H8A H 0.2443 0.4160 0.4548
H9A H 0.1436 0.3975 0.4382
C8A C 0.2247(3) 0.3266(3) 0.3672(3)
O1A O 0.3093(2) 0.37162(18) 0.17045(18)
O2A O 0.3771(2) 0.21110(18) 0.16661(17)
C1A C 0.3986(4) 0.4906(3) 0.1384(3)
H1A H 0.3530 0.5223 0.1666
H2A H 0.3996 0.5092 0.0832
H3A H 0.4551 0.5026 0.1627
C2A C 0.3804(3) 0.3955(3) 0.1424(3)
C3A C 0.4437(3) 0.3356(3) 0.1146(3)
C4A C 0.4372(3) 0.2450(3) 0.1259(2)
C5A C 0.5032(3) 0.1845(3) 0.0913(3)
H4A H 0.5382 0.1591 0.1336
H5A H 0.5410 0.2167 0.0552
H6A H 0.4734 0.1382 0.0624
C7A C 0.5190(3) 0.3698(3) 0.0754(3)
N1A N 0.5793(3) 0.3980(3) 0.0444(3)
Sc1F Sc 0.2500 0.2500 0.69545(6)
N2F N 0.2500 0.2500 0.0582(3)
Sc2 Sc 0.2500 0.7500 0.26317(6)
O4 O 0.1996(2) 0.62467(18) 0.23451(17)
O5 O 0.12002(19) 0.78008(18) 0.23576(17)
O6 O 0.28385(19) 0.67076(18) 0.36115(17)
C11 C 0.1238(3) 0.5009(3) 0.1887(3)
H10 H 0.1731 0.4712 0.2134
H11 H 0.1239 0.4892 0.1320
H12 H 0.0694 0.4797 0.2118
C12 C 0.1314(3) 0.5970(3) 0.2025(3)
C13 C 0.0621(3) 0.6533(3) 0.1784(2)
C14 C 0.0619(3) 0.7426(3) 0.1948(2)
C15 C -0.0089(3) 0.7985(3) 0.1620(3)
H13 H -0.0293 0.8386 0.2028
H14 H -0.0574 0.7619 0.1447
H15 H 0.0134 0.8316 0.1171
C16 C -0.0094(3) 0.6157(3) 0.1376(3)
C17 C 0.3084(3) 0.5978(3) 0.4817(3)
H16 H 0.3353 0.5549 0.4467
H17 H 0.2580 0.5718 0.5079
H18 H 0.3508 0.6164 0.5214
C18 C 0.2795(3) 0.6750(3) 0.4343(3)
C19 C 0.2500 0.7500 0.4746(4)
C20 C 0.2500 0.7500 0.5576(4)
N3 N -0.0675(3) 0.5865(3) 0.1036(3)
N4 N 0.2500 0.7500 0.6254(3)
O6A O 0.21615(19) 0.82924(18) 0.36115(17)
C17A C 0.1916(3) 0.9022(3) 0.4817(3)
H16A H 0.1647 0.9451 0.4467
H17A H 0.2420 0.9282 0.5079
H18A H 0.1492 0.8836 0.5214
C18A C 0.2205(3) 0.8250(3) 0.4343(3)
O4A O 0.3004(2) 0.87533(18) 0.23451(17)
O5A O 0.37998(19) 0.71992(18) 0.23576(17)
C11A C 0.3762(3) 0.9991(3) 0.1887(3)
H10A H 0.3269 1.0288 0.2134
H11A H 0.3761 1.0108 0.1320
H12A H 0.4306 1.0203 0.2118
C12A C 0.3686(3) 0.9030(3) 0.2025(3)
C13A C 0.4379(3) 0.8467(3) 0.1784(2)
C14A C 0.4381(3) 0.7574(3) 0.1948(2)
C15A C 0.5089(3) 0.7015(3) 0.1620(3)
H13A H 0.5293 0.6614 0.2028
H14A H 0.5574 0.7381 0.1447
H15A H 0.4866 0.6684 0.1171
C16A C 0.5094(3) 0.8843(3) 0.1376(3)
N3A N 0.5675(3) 0.9135(3) 0.1036(3)
Sc2F Sc 0.2500 0.7500 0.76317(6)
N4F N 0.2500 0.7500 0.1254(3)
loop_
_geom_bond_atom_site_label_1
_geom_bond_atom_site_label_2
_geom_bond_site_symmetry_1
_geom_bond_site_symmetry_2
Sc1 O1 1_555 1_555
O1 C2 1_555 1_555
O2 Sc1 1_555 1_555
O3 Sc1 1_555 1_555
C1 H1 1_555 1_555
H2 C1 1_555 1_555
H3 C1 1_555 1_555
C2 C1 1_555 1_555
C3 C2 1_555 1_555
C4 O2 1_555 1_555
C5 C4 1_555 1_555
H4 C5 1_555 1_555
H5 C5 1_555 1_555
H6 C5 1_555 1_555
C6 H7 1_555 1_555
H8 C6 1_555 1_555
H9 C6 1_555 1_555
C7 C3 1_555 1_555
C8 O3 1_555 1_555
C9 C8 1_555 1_555
C10 C9 1_555 1_555
N1 C7 1_555 1_555
N2 C10 1_555 1_555
Sc2 O4 1_555 1_555
O4 C12 1_555 1_555
O5 Sc2 1_555 1_555
O6 Sc2 1_555 1_555
C11 H10 1_555 1_555
H11 C11 1_555 1_555
H12 C11 1_555 1_555
C12 C11 1_555 1_555
C13 C12 1_555 1_555
C14 O5 1_555 1_555
C15 C14 1_555 1_555
H13 C15 1_555 1_555
H14 C15 1_555 1_555
H15 C15 1_555 1_555
C16 C13 1_555 1_555
C17 H16 1_555 1_555
H17 C17 1_555 1_555
H18 C17 1_555 1_555
C18 O6 1_555 1_555
C19 C18 1_555 1_555
C20 C19 1_555 1_555
N3 C16 1_555 1_555
N4 C20 1_555 1_555
O3A Sc1 1_555 1_555
C6A H7A 1_555 1_555
H8A C6A 1_555 1_555
H9A C6A 1_555 1_555
C8A C9 1_555 1_555
O1A Sc1 1_555 1_555
O2A Sc1 1_555 1_555
C1A H1A 1_555 1_555
H2A C1A 1_555 1_555
H3A C1A 1_555 1_555
C2A O1A 1_555 1_555
C3A C2A 1_555 1_555
C4A O2A 1_555 1_555
C5A C4A 1_555 1_555
H4A C5A 1_555 1_555
H5A C5A 1_555 1_555
H6A C5A 1_555 1_555
C7A C3A 1_555 1_555
N1A C7A 1_555 1_555
Sc1F N2 1_555 1_555
N2F Sc1 1_555 1_555
O6A Sc2 1_555 1_555
C17A H16A 1_555 1_555
H17A C17A 1_555 1_555
H18A C17A 1_555 1_555
C18A C19 1_555 1_555
O4A Sc2 1_555 1_555
O5A Sc2 1_555 1_555
C11A H10A 1_555 1_555
H11A C11A 1_555 1_555
H12A C11A 1_555 1_555
C12A O4A 1_555 1_555
C13A C12A 1_555 1_555
C14A O5A 1_555 1_555
C15A C14A 1_555 1_555
H13A C15A 1_555 1_555
H14A C15A 1_555 1_555
H15A C15A 1_555 1_555
C16A C13A 1_555 1_555
N3A C16A 1_555 1_555
Sc2F N4 1_555 1_555
N4F Sc2 1_555 1_555
C3 C4 1_555 1_555
C6 C8 1_555 1_555
C13 C14 1_555 1_555
C17 C18 1_555 1_555
O3A C8A 1_555 1_555
C6A C8A 1_555 1_555
C1A C2A 1_555 1_555
C3A C4A 1_555 1_555
O6A C18A 1_555 1_555
C17A C18A 1_555 1_555
C11A C12A 1_555 1_555
C13A C14A 1_555 1_555

#END
