
#######################################################################
#
#                 Cambridge Crystallographic Data Centre
#                                CCDC 
#
#######################################################################
#
# If this CIF has been generated from an entry in the Cambridge 
# Structural Database, then it will include bibliographic, chemical, 
# crystal, experimental, refinement or atomic coordinate data resulting 
# from the CCDC's data processing and validation procedures.
#
#######################################################################

data_XEYHAK
_symmetry_cell_setting           monoclinic
_symmetry_space_group_name_H-M   'P 21/c'
_symmetry_Int_Tables_number      14
_space_group_name_Hall           '-P 2ybc'
loop_
_symmetry_equiv_pos_site_id
_symmetry_equiv_pos_as_xyz
1 x,y,z
2 -x,1/2+y,1/2-z
3 -x,-y,-z
4 x,1/2-y,1/2+z
_cell_length_a                   9.799(2)
_cell_length_b                   6.614(2)
_cell_length_c                   10.407(2)
_cell_angle_alpha                90
_cell_angle_beta                 105.02(2)
_cell_angle_gamma                90
_cell_volume                     651.44
loop_
_atom_site_label
_atom_site_type_symbol
_atom_site_fract_x
_atom_site_fract_y
_atom_site_fract_z
Cu1 Cu 0.5000 0.0000 0.5000
O1 O 0.59735(18) 0.1953(3) 0.35015(18)
O2 O 0.53702(19) -0.2432(3) 0.40886(19)
O3 O 0.23384(18) 0.0106(2) 0.0122(2)
N1 N 0.3068(2) 0.0143(3) 0.3785(2)
N2 N -0.1492(3) -0.0128(3) 0.3570(3)
C1 C 0.1922(3) 0.0064(3) 0.3181(3)
C2 C 0.0512(2) -0.0019(3) 0.2404(3)
C3 C 0.0217(2) -0.0013(3) 0.1027(3)
C4 C 0.1060(3) 0.0051(3) 0.0057(3)
C5 C -0.0587(3) -0.0075(3) 0.3064(3)
H1 H 0.626(4) 0.302(6) 0.394(4)
H2 H 0.673(4) 0.123(5) 0.341(3)
H3 H 0.618(4) -0.294(6) 0.428(4)
H4 H 0.501(4) -0.272(6) 0.315(5)
C4B C -0.1060(3) -0.0051(3) -0.0057(3)
O3B O -0.23384(18) -0.0106(2) -0.0122(2)
C3B C -0.0217(2) 0.0013(3) -0.1027(3)
C2B C -0.0512(2) 0.0019(3) -0.2404(3)
C1B C -0.1922(3) -0.0064(3) -0.3181(3)
N1B N -0.3068(2) -0.0143(3) -0.3785(2)
C5B C 0.0587(3) 0.0075(3) -0.3064(3)
N2B N 0.1492(3) 0.0128(3) -0.3570(3)
O1B O 0.40265(18) -0.1953(3) 0.64985(18)
H1B H 0.374(4) -0.302(6) 0.606(4)
H2B H 0.327(4) -0.123(5) 0.659(3)
O2B O 0.46298(19) 0.2432(3) 0.59114(19)
H3B H 0.382(4) 0.294(6) 0.572(4)
H4B H 0.499(4) 0.272(6) 0.685(5)
N1B_2 N 0.6932(2) -0.0143(3) 0.6215(2)
Cu1_2 Cu -0.5000 0.0000 -0.5000
loop_
_geom_bond_atom_site_label_1
_geom_bond_atom_site_label_2
_geom_bond_site_symmetry_1
_geom_bond_site_symmetry_2
Cu1 O1 1_555 1_555
O1 H1 1_555 1_555
O2 Cu1 1_555 1_555
O3 C4 1_555 1_555
N1 Cu1 1_555 1_555
N2 C5 1_555 1_555
C1 N1 1_555 1_555
C2 C1 1_555 1_555
C3 C2 1_555 1_555
C4 C3 1_555 1_555
C5 C2 1_555 1_555
H2 O1 1_555 1_555
H3 O2 1_555 1_555
H4 O2 1_555 1_555
C4B C3 1_555 1_555
O3B C4B 1_555 1_555
C3B C4 1_555 1_555
C2B C3B 1_555 1_555
C1B C2B 1_555 1_555
N1B C1B 1_555 1_555
C5B C2B 1_555 1_555
N2B C5B 1_555 1_555
O1B Cu1 1_555 1_555
H1B O1B 1_555 1_555
H2B O1B 1_555 1_555
O2B Cu1 1_555 1_555
H3B O2B 1_555 1_555
H4B O2B 1_555 1_555
N1B_2 Cu1 1_555 1_555
Cu1_2 N1B 1_555 1_555
C4B C3B 1_555 1_555

#END
