
#######################################################################
#
#                 Cambridge Crystallographic Data Centre
#                                CCDC 
#
#######################################################################
#
# If this CIF has been generated from an entry in the Cambridge 
# Structural Database, then it will include bibliographic, chemical, 
# crystal, experimental, refinement or atomic coordinate data resulting 
# from the CCDC's data processing and validation procedures.
#
#######################################################################

data_XEYMEV
_symmetry_cell_setting           orthorhombic
_symmetry_space_group_name_H-M   'C m c a'
_symmetry_Int_Tables_number      64
_space_group_name_Hall           '-C 2ac 2'
loop_
_symmetry_equiv_pos_site_id
_symmetry_equiv_pos_as_xyz
1 x,y,z
2 -x,1/2-y,1/2+z
3 -x,1/2+y,1/2-z
4 x,-y,-z
5 1/2+x,1/2+y,z
6 1/2-x,-y,1/2+z
7 1/2-x,y,1/2-z
8 1/2+x,1/2-y,-z
9 -x,-y,-z
10 x,1/2+y,1/2-z
11 x,1/2-y,1/2+z
12 -x,y,z
13 1/2-x,1/2-y,-z
14 1/2+x,y,1/2-z
15 1/2+x,-y,1/2+z
16 1/2-x,1/2+y,z
_cell_length_a                   28.7510(8)
_cell_length_b                   18.0562(4)
_cell_length_c                   16.7272(5)
_cell_angle_alpha                90
_cell_angle_beta                 90
_cell_angle_gamma                90
_cell_volume                     8683.66
loop_
_atom_site_label
_atom_site_type_symbol
_atom_site_fract_x
_atom_site_fract_y
_atom_site_fract_z
I1 I 0.327100(3) 0.431730(5) 0.220420(6)
I2 I 0.218910(3) 0.257780(5) 0.123750(6)
Zn1 Zn 0.5000 0.048931(11) -0.074280(13)
Cu1 Cu 0.292280(7) 0.294059(10) 0.225110(12)
Cu2 Cu 0.236220(7) 0.399600(10) 0.171220(11)
O1 O 0.45117(4) 0.02866(6) 0.09853(7)
O2 O 0.45175(4) 0.10177(6) -0.00673(6)
N1 N 0.5000 0.18235(13) -0.30814(13)
N2 N 0.5000 0.10906(9) -0.17953(10)
N3 N 0.23129(4) 0.46242(6) 0.06596(7)
N4 N 0.33944(4) 0.22501(7) 0.17569(7)
C1 C 0.45731(10) 0.1918(2) -0.26734(18)
H1 H 0.4320 0.1736 -0.3004
H2 H 0.4521 0.2440 -0.2573
C2 C 0.25731(7) 0.42455(9) 0.00358(11)
H3 H 0.2462 0.3740 -0.0010
H4 H 0.2899 0.4229 0.0183
C3 C 0.18352(6) 0.47454(11) 0.03543(11)
H5 H 0.1645 0.4957 0.0775
H6 H 0.1700 0.4274 0.0203
C4 C 0.45784(8) 0.15051(19) -0.18948(17)
H7 H 0.4547 0.1855 -0.1458
H8 H 0.4315 0.1170 -0.1876
C5 C 0.25224(8) 0.53674(10) 0.07695(11)
H9 H 0.2825 0.5319 0.1019
H10 H 0.2327 0.5662 0.1119
C6 C 0.38492(5) 0.19470(9) 0.06048(10)
H11 H 0.3943 0.2064 0.0088
C7 C 0.35633(6) 0.16745(8) 0.21176(9)
H12 H 0.3468 0.1581 0.2639
C8 C 0.35410(6) 0.23766(9) 0.09941(10)
H13 H 0.3421 0.2785 0.0726
C9 C 0.43826(4) 0.08298(7) 0.06007(8)
C10 C 0.40272(4) 0.13175(7) 0.09948(9)
C11 C 0.38745(5) 0.11949(9) 0.17742(10)
H14 H 0.3983 0.0789 0.2061
C12 C 0.5000 0.0586(4) -0.2455(5)
C13 C 0.51593(18) 0.1050(3) -0.3282(4)
C1K C 0.54269(10) 0.1918(2) -0.26734(18)
H1K H 0.5680 0.1736 -0.3004
H2K H 0.5479 0.2440 -0.2573
C4K C 0.54216(8) 0.15051(19) -0.18948(17)
H7K H 0.5453 0.1855 -0.1458
H8K H 0.5685 0.1170 -0.1876
C13K C 0.48407(18) 0.1050(3) -0.3282(4)
N3C N 0.23129(4) 0.53758(6) -0.06596(7)
C2C C 0.25731(7) 0.57545(9) -0.00358(11)
H3C H 0.2462 0.6260 0.0010
H4C H 0.2899 0.5771 -0.0183
C3C C 0.18352(6) 0.52546(11) -0.03543(11)
H5C H 0.1645 0.5043 -0.0775
H6C H 0.1700 0.5726 -0.0203
C5C C 0.25224(8) 0.46326(10) -0.07695(11)
H9C H 0.2825 0.4681 -0.1019
H10C H 0.2327 0.4338 -0.1119
I1C I 0.327100(3) -0.431730(5) -0.220420(6)
I2C I 0.218910(3) -0.257780(5) -0.123750(6)
Cu1C Cu 0.292280(7) -0.294059(10) -0.225110(12)
Cu2C Cu 0.236220(7) -0.399600(10) -0.171220(11)
O1C O 0.45117(4) -0.02866(6) -0.09853(7)
O2C O 0.45175(4) -0.10177(6) 0.00673(6)
N4C N 0.33944(4) -0.22501(7) -0.17569(7)
C6C C 0.38492(5) -0.19470(9) -0.06048(10)
H11C H 0.3943 -0.2064 -0.0088
C7C C 0.35633(6) -0.16745(8) -0.21176(9)
H12C H 0.3468 -0.1581 -0.2639
C8C C 0.35410(6) -0.23766(9) -0.09941(10)
H13C H 0.3421 -0.2785 -0.0726
C9C C 0.43826(4) -0.08298(7) -0.06007(8)
C10C C 0.40272(4) -0.13175(7) -0.09948(9)
C11C C 0.38745(5) -0.11949(9) -0.17742(10)
H14C H 0.3983 -0.0789 -0.2061
I1E I 0.172900(3) -0.431730(5) -0.279580(6)
I1F I 0.172900(3) 0.431730(5) 0.279580(6)
I2E I 0.281090(3) -0.257780(5) -0.376250(6)
I2F I 0.281090(3) 0.257780(5) 0.376250(6)
Zn1C Zn 0.5000 -0.048931(11) 0.074280(13)
Cu1E Cu 0.207720(7) -0.294059(10) -0.274890(12)
Cu1F Cu 0.207720(7) 0.294059(10) 0.274890(12)
Cu2C_2 Cu 0.236220(7) 0.600400(10) -0.171220(11)
Cu2E Cu 0.263780(7) -0.399600(10) -0.328780(11)
Cu2F Cu 0.263780(7) 0.399600(10) 0.328780(11)
O1H O 0.54883(4) -0.02866(6) -0.09853(7)
O2K O 0.54825(4) 0.10177(6) -0.00673(6)
N3C_2 N 0.23129(4) -0.46242(6) -0.06596(7)
loop_
_geom_bond_atom_site_label_1
_geom_bond_atom_site_label_2
_geom_bond_site_symmetry_1
_geom_bond_site_symmetry_2
I1 Cu1 1_555 1_555
I2 Cu1 1_555 1_555
Zn1 O2 1_555 1_555
Cu1 Cu2 1_555 1_555
Cu2 I1 1_555 1_555
O1 C9 1_555 1_555
O2 C9 1_555 1_555
N1 C1 1_555 1_555
N2 Zn1 1_555 1_555
N3 Cu2 1_555 1_555
N4 Cu1 1_555 1_555
C1 H1 1_555 1_555
H2 C1 1_555 1_555
C2 N3 1_555 1_555
H3 C2 1_555 1_555
H4 C2 1_555 1_555
C3 N3 1_555 1_555
H5 C3 1_555 1_555
H6 C3 1_555 1_555
C4 N2 1_555 1_555
H7 C4 1_555 1_555
H8 C4 1_555 1_555
C5 N3 1_555 1_555
H9 C5 1_555 1_555
H10 C5 1_555 1_555
C6 H11 1_555 1_555
C7 N4 1_555 1_555
H12 C7 1_555 1_555
C8 N4 1_555 1_555
H13 C8 1_555 1_555
C9 C10 1_555 1_555
C10 C6 1_555 1_555
C11 C7 1_555 1_555
H14 C11 1_555 1_555
C12 N2 1_555 1_555
C13 N1 1_555 1_555
C1K N1 1_555 1_555
H1K C1K 1_555 1_555
H2K C1K 1_555 1_555
C4K N2 1_555 1_555
H7K C4K 1_555 1_555
H8K C4K 1_555 1_555
C13K N1 1_555 1_555
N3C C2C 1_555 1_555
C2C C5 1_555 1_555
H3C C2C 1_555 1_555
H4C C2C 1_555 1_555
C3C C3 1_555 1_555
H5C C3C 1_555 1_555
H6C C3C 1_555 1_555
C5C C2 1_555 1_555
H9C C5C 1_555 1_555
H10C C5C 1_555 1_555
I1C Cu1C 1_555 1_555
I2C Cu1C 1_555 1_555
Cu1C Cu2C 1_555 1_555
Cu2C I1C 1_555 1_555
O1C Zn1 1_555 1_555
O2C C9C 1_555 1_555
N4C Cu1C 1_555 1_555
C6C H11C 1_555 1_555
C7C N4C 1_555 1_555
H12C C7C 1_555 1_555
C8C N4C 1_555 1_555
H13C C8C 1_555 1_555
C9C O1C 1_555 1_555
C10C C6C 1_555 1_555
C11C C7C 1_555 1_555
H14C C11C 1_555 1_555
I1E Cu2C 1_555 1_555
I1F Cu2 1_555 1_555
I2E Cu1C 1_555 1_555
I2F Cu1 1_555 1_555
Zn1C O1 1_555 1_555
Cu1E I2C 1_555 1_555
Cu1F I2 1_555 1_555
Cu2C_2 N3C 1_555 1_555
Cu2E I1C 1_555 1_555
Cu2F I1 1_555 1_555
O1H Zn1 1_555 1_555
O2K Zn1 1_555 1_555
N3C_2 Cu2C 1_555 1_555
I2 Cu2 1_555 1_555
Cu1 Cu1F 1_555 1_555
Cu1 Cu2F 1_555 1_555
Cu2 Cu1F 1_555 1_555
Cu2 Cu2F 1_555 1_555
C1 C4 1_555 1_555
C6 C8 1_555 1_555
C10 C11 1_555 1_555
C12 C13 1_555 1_555
C12 C13K 1_555 1_555
C13 C13K 1_555 1_555
C1K C4K 1_555 1_555
N3C C3C 1_555 1_555
N3C C5C 1_555 1_555
I2C Cu2C 1_555 1_555
Cu1C Cu1E 1_555 1_555
Cu1C Cu2E 1_555 1_555
Cu2C Cu1E 1_555 1_555
Cu2C Cu2E 1_555 1_555
O2C Zn1C 1_555 1_555
C6C C8C 1_555 1_555
C9C C10C 1_555 1_555
C10C C11C 1_555 1_555
I1E Cu1E 1_555 1_555
I1E Cu2E 1_555 1_555
I1F Cu1F 1_555 1_555
I1F Cu2F 1_555 1_555
I2E Cu1E 1_555 1_555
I2E Cu2E 1_555 1_555
I2F Cu1F 1_555 1_555
I2F Cu2F 1_555 1_555
Cu1E Cu2E 1_555 1_555
Cu1F Cu2F 1_555 1_555

#END
