
#######################################################################
#
#                 Cambridge Crystallographic Data Centre
#                                CCDC 
#
#######################################################################
#
# If this CIF has been generated from an entry in the Cambridge 
# Structural Database, then it will include bibliographic, chemical, 
# crystal, experimental, refinement or atomic coordinate data resulting 
# from the CCDC's data processing and validation procedures.
#
#######################################################################

data_XEYMIZ
_symmetry_cell_setting           cubic
_symmetry_space_group_name_H-M   'P -4 3 n'
_symmetry_Int_Tables_number      218
_space_group_name_Hall           'P -4n 2 3'
loop_
_symmetry_equiv_pos_site_id
_symmetry_equiv_pos_as_xyz
1 x,y,z
2 -x,-y,z
3 -x,y,-z
4 x,-y,-z
5 z,x,y
6 z,-x,-y
7 -z,-x,y
8 -z,x,-y
9 y,z,x
10 -y,z,-x
11 y,-z,-x
12 -y,-z,x
13 1/2+y,1/2+x,1/2+z
14 1/2-y,1/2-x,1/2+z
15 1/2+y,1/2-x,1/2-z
16 1/2-y,1/2+x,1/2-z
17 1/2+x,1/2+z,1/2+y
18 1/2-x,1/2+z,1/2-y
19 1/2-x,1/2-z,1/2+y
20 1/2+x,1/2-z,1/2-y
21 1/2+z,1/2+y,1/2+x
22 1/2+z,1/2-y,1/2-x
23 1/2-z,1/2+y,1/2-x
24 1/2-z,1/2-y,1/2+x
_cell_length_a                   18.9120(3)
_cell_length_b                   18.9120(3)
_cell_length_c                   18.9120(3)
_cell_angle_alpha                90
_cell_angle_beta                 90
_cell_angle_gamma                90
_cell_volume                     6764.14
loop_
_atom_site_label
_atom_site_type_symbol
_atom_site_fract_x
_atom_site_fract_y
_atom_site_fract_z
Zn1 Zn 0.94017(15) 0.94017(15) 0.94017(15)
Zn2 Zn 0.8381(2) 0.8381(2) 0.8381(2)
Cu1 Cu 0.56067(18) 1.20043(19) 0.9630(2)
I1 I 0.44494(11) 1.16841(9) 0.89157(13)
O1 O 0.7793(10) 0.9194(13) 0.8741(13)
O2 O 0.8568(8) 0.9958(9) 0.9160(8)
O3 O 1.0000 1.0000 1.0000
N1 N 0.6368(14) 1.1311(11) 0.9363(12)
C1 C 0.6231(16) 1.070(2) 0.915(3)
H1 H 0.5752 1.0597 0.9095
C2 C 0.6696(16) 1.0128(19) 0.897(4)
H2 H 0.6560 0.9683 0.8809
C3 C 0.7410(12) 1.0366(15) 0.9076(13)
C4 C 0.7579(13) 1.0986(14) 0.9299(13)
H3 H 0.8048 1.1109 0.9381
C5 C 0.7057(13) 1.1446(14) 0.9408(15)
H4 H 0.7187 1.1905 0.9527
C6 C 0.7948(14) 0.9767(15) 0.8983(13)
O4 O 0.775(3) 0.775(3) 0.775(3)
Zn1A Zn 1.05983(15) 1.05983(15) 0.94017(15)
Zn2A Zn 1.1619(2) 1.1619(2) 0.8381(2)
Cu1A Cu 1.43933(18) 0.79957(19) 0.9630(2)
I1A I 1.55506(11) 0.83159(9) 0.89157(13)
O1A O 1.2207(10) 1.0806(13) 0.8741(13)
O2A O 1.1432(8) 1.0042(9) 0.9160(8)
N1A N 1.3632(14) 0.8689(11) 0.9363(12)
C1A C 1.3769(16) 0.930(2) 0.915(3)
H1A H 1.4248 0.9403 0.9095
C2A C 1.3304(16) 0.9872(19) 0.897(4)
H2A H 1.3440 1.0317 0.8809
C3A C 1.2590(12) 0.9634(15) 0.9076(13)
C4A C 1.2421(13) 0.9014(14) 0.9299(13)
H3A H 1.1952 0.8891 0.9381
C5A C 1.2943(13) 0.8554(14) 0.9408(15)
H4A H 1.2813 0.8095 0.9527
C6A C 1.2052(14) 1.0233(15) 0.8983(13)
O4A O 1.225(3) 1.225(3) 0.775(3)
Zn1B Zn 1.05983(15) 0.94017(15) 1.05983(15)
Zn2B Zn 1.1619(2) 0.8381(2) 1.1619(2)
Cu1B Cu 1.43933(18) 1.20043(19) 1.0370(2)
I1B I 1.55506(11) 1.16841(9) 1.10843(13)
O1B O 1.2207(10) 0.9194(13) 1.1259(13)
O2B O 1.1432(8) 0.9958(9) 1.0840(8)
N1B N 1.3632(14) 1.1311(11) 1.0637(12)
C1B C 1.3769(16) 1.070(2) 1.085(3)
H1B H 1.4248 1.0597 1.0905
C2B C 1.3304(16) 1.0128(19) 1.103(4)
H2B H 1.3440 0.9683 1.1191
C3B C 1.2590(12) 1.0366(15) 1.0924(13)
C4B C 1.2421(13) 1.0986(14) 1.0701(13)
H3B H 1.1952 1.1109 1.0619
C5B C 1.2943(13) 1.1446(14) 1.0592(15)
H4B H 1.2813 1.1905 1.0473
C6B C 1.2052(14) 0.9767(15) 1.1017(13)
O4B O 1.225(3) 0.775(3) 1.225(3)
Zn1C Zn 0.94017(15) 1.05983(15) 1.05983(15)
Zn2C Zn 0.8381(2) 1.1619(2) 1.1619(2)
Cu1C Cu 0.56067(18) 0.79957(19) 1.0370(2)
I1C I 0.44494(11) 0.83159(9) 1.10843(13)
O1C O 0.7793(10) 1.0806(13) 1.1259(13)
O2C O 0.8568(8) 1.0042(9) 1.0840(8)
N1C N 0.6368(14) 0.8689(11) 1.0637(12)
C1C C 0.6231(16) 0.930(2) 1.085(3)
H1C H 0.5752 0.9403 1.0905
C2C C 0.6696(16) 0.9872(19) 1.103(4)
H2C H 0.6560 1.0317 1.1191
C3C C 0.7410(12) 0.9634(15) 1.0924(13)
C4C C 0.7579(13) 0.9014(14) 1.0701(13)
H3C H 0.8048 0.8891 1.0619
C5C C 0.7057(13) 0.8554(14) 1.0592(15)
H4C H 0.7187 0.8095 1.0473
C6C C 0.7948(14) 1.0233(15) 1.1017(13)
O4C O 0.775(3) 1.225(3) 1.225(3)
Cu1D Cu 0.9630(2) 0.56067(18) 1.20043(19)
I1D I 0.89157(13) 0.44494(11) 1.16841(9)
O1D O 0.8741(13) 0.7793(10) 0.9194(13)
O2D O 0.9160(8) 0.8568(8) 0.9958(9)
N1D N 0.9363(12) 0.6368(14) 1.1311(11)
C1D C 0.915(3) 0.6231(16) 1.070(2)
H1D H 0.9095 0.5752 1.0597
C2D C 0.897(4) 0.6696(16) 1.0128(19)
H2D H 0.8809 0.6560 0.9683
C3D C 0.9076(13) 0.7410(12) 1.0366(15)
C4D C 0.9299(13) 0.7579(13) 1.0986(14)
H3D H 0.9381 0.8048 1.1109
C5D C 0.9408(15) 0.7057(13) 1.1446(14)
H4D H 0.9527 0.7187 1.1905
C6D C 0.8983(13) 0.7948(14) 0.9767(15)
Cu1E Cu 0.9630(2) 1.43933(18) 0.79957(19)
I1E I 0.89157(13) 1.55506(11) 0.83159(9)
O1E O 0.8741(13) 1.2207(10) 1.0806(13)
O2E O 0.9160(8) 1.1432(8) 1.0042(9)
N1E N 0.9363(12) 1.3632(14) 0.8689(11)
C1E C 0.915(3) 1.3769(16) 0.930(2)
H1E H 0.9095 1.4248 0.9403
C2E C 0.897(4) 1.3304(16) 0.9872(19)
H2E H 0.8809 1.3440 1.0317
C3E C 0.9076(13) 1.2590(12) 0.9634(15)
C4E C 0.9299(13) 1.2421(13) 0.9014(14)
H3E H 0.9381 1.1952 0.8891
C5E C 0.9408(15) 1.2943(13) 0.8554(14)
H4E H 0.9527 1.2813 0.8095
C6E C 0.8983(13) 1.2052(14) 1.0233(15)
Cu1F Cu 1.0370(2) 1.43933(18) 1.20043(19)
I1F I 1.10843(13) 1.55506(11) 1.16841(9)
O1F O 1.1259(13) 1.2207(10) 0.9194(13)
O2F O 1.0840(8) 1.1432(8) 0.9958(9)
N1F N 1.0637(12) 1.3632(14) 1.1311(11)
C1F C 1.085(3) 1.3769(16) 1.070(2)
H1F H 1.0905 1.4248 1.0597
C2F C 1.103(4) 1.3304(16) 1.0128(19)
H2F H 1.1191 1.3440 0.9683
C3F C 1.0924(13) 1.2590(12) 1.0366(15)
C4F C 1.0701(13) 1.2421(13) 1.0986(14)
H3F H 1.0619 1.1952 1.1109
C5F C 1.0592(15) 1.2943(13) 1.1446(14)
H4F H 1.0473 1.2813 1.1905
C6F C 1.1017(13) 1.2052(14) 0.9767(15)
Cu1G Cu 1.0370(2) 0.56067(18) 0.79957(19)
I1G I 1.10843(13) 0.44494(11) 0.83159(9)
O1G O 1.1259(13) 0.7793(10) 1.0806(13)
O2G O 1.0840(8) 0.8568(8) 1.0042(9)
N1G N 1.0637(12) 0.6368(14) 0.8689(11)
C1G C 1.085(3) 0.6231(16) 0.930(2)
H1G H 1.0905 0.5752 0.9403
C2G C 1.103(4) 0.6696(16) 0.9872(19)
H2G H 1.1191 0.6560 1.0317
C3G C 1.0924(13) 0.7410(12) 0.9634(15)
C4G C 1.0701(13) 0.7579(13) 0.9014(14)
H3G H 1.0619 0.8048 0.8891
C5G C 1.0592(15) 0.7057(13) 0.8554(14)
H4G H 1.0473 0.7187 0.8095
C6G C 1.1017(13) 0.7948(14) 1.0233(15)
Cu1H Cu 1.20043(19) 0.9630(2) 0.56067(18)
I1H I 1.16841(9) 0.89157(13) 0.44494(11)
O1H O 0.9194(13) 0.8741(13) 0.7793(10)
O2H O 0.9958(9) 0.9160(8) 0.8568(8)
N1H N 1.1311(11) 0.9363(12) 0.6368(14)
C1H C 1.070(2) 0.915(3) 0.6231(16)
H1H H 1.0597 0.9095 0.5752
C2H C 1.0128(19) 0.897(4) 0.6696(16)
H2H H 0.9683 0.8809 0.6560
C3H C 1.0366(15) 0.9076(13) 0.7410(12)
C4H C 1.0986(14) 0.9299(13) 0.7579(13)
H3H H 1.1109 0.9381 0.8048
C5H C 1.1446(14) 0.9408(15) 0.7057(13)
H4H H 1.1905 0.9527 0.7187
C6H C 0.9767(15) 0.8983(13) 0.7948(14)
Cu1I Cu 0.79957(19) 0.9630(2) 1.43933(18)
I1I I 0.83159(9) 0.89157(13) 1.55506(11)
O1I O 1.0806(13) 0.8741(13) 1.2207(10)
O2I O 1.0042(9) 0.9160(8) 1.1432(8)
N1I N 0.8689(11) 0.9363(12) 1.3632(14)
C1I C 0.930(2) 0.915(3) 1.3769(16)
H1I H 0.9403 0.9095 1.4248
C2I C 0.9872(19) 0.897(4) 1.3304(16)
H2I H 1.0317 0.8809 1.3440
C3I C 0.9634(15) 0.9076(13) 1.2590(12)
C4I C 0.9014(14) 0.9299(13) 1.2421(13)
H3I H 0.8891 0.9381 1.1952
C5I C 0.8554(14) 0.9408(15) 1.2943(13)
H4I H 0.8095 0.9527 1.2813
C6I C 1.0233(15) 0.8983(13) 1.2052(14)
Cu1J Cu 1.20043(19) 1.0370(2) 1.43933(18)
I1J I 1.16841(9) 1.10843(13) 1.55506(11)
O1J O 0.9194(13) 1.1259(13) 1.2207(10)
O2J O 0.9958(9) 1.0840(8) 1.1432(8)
N1J N 1.1311(11) 1.0637(12) 1.3632(14)
C1J C 1.070(2) 1.085(3) 1.3769(16)
H1J H 1.0597 1.0905 1.4248
C2J C 1.0128(19) 1.103(4) 1.3304(16)
H2J H 0.9683 1.1191 1.3440
C3J C 1.0366(15) 1.0924(13) 1.2590(12)
C4J C 1.0986(14) 1.0701(13) 1.2421(13)
H3J H 1.1109 1.0619 1.1952
C5J C 1.1446(14) 1.0592(15) 1.2943(13)
H4J H 1.1905 1.0473 1.2813
C6J C 0.9767(15) 1.1017(13) 1.2052(14)
Cu1K Cu 0.79957(19) 1.0370(2) 0.56067(18)
I1K I 0.83159(9) 1.10843(13) 0.44494(11)
O1K O 1.0806(13) 1.1259(13) 0.7793(10)
O2K O 1.0042(9) 1.0840(8) 0.8568(8)
N1K N 0.8689(11) 1.0637(12) 0.6368(14)
C1K C 0.930(2) 1.085(3) 0.6231(16)
H1K H 0.9403 1.0905 0.5752
C2K C 0.9872(19) 1.103(4) 0.6696(16)
H2K H 1.0317 1.1191 0.6560
C3K C 0.9634(15) 1.0924(13) 0.7410(12)
C4K C 0.9014(14) 1.0701(13) 0.7579(13)
H3K H 0.8891 1.0619 0.8048
C5K C 0.8554(14) 1.0592(15) 0.7057(13)
H4K H 0.8095 1.0473 0.7187
C6K C 1.0233(15) 1.1017(13) 0.7948(14)
Cu1_2 Cu 1.56067(18) 1.20043(19) 0.9630(2)
Cu1A_2 Cu 0.43933(18) 0.79957(19) 0.9630(2)
Cu1B_2 Cu 0.43933(18) 1.20043(19) 1.0370(2)
Cu1C_2 Cu 1.56067(18) 0.79957(19) 1.0370(2)
Cu1D_2 Cu 0.9630(2) 1.56067(18) 1.20043(19)
Cu1E_2 Cu 0.9630(2) 0.43933(18) 0.79957(19)
Cu1F_2 Cu 1.0370(2) 0.43933(18) 1.20043(19)
Cu1G_2 Cu 1.0370(2) 1.56067(18) 0.79957(19)
Cu1H_2 Cu 1.20043(19) 0.9630(2) 1.56067(18)
Cu1I_2 Cu 0.79957(19) 0.9630(2) 0.43933(18)
Cu1J_2 Cu 1.20043(19) 1.0370(2) 0.43933(18)
Cu1K_2 Cu 0.79957(19) 1.0370(2) 1.56067(18)
Cu1L Cu 0.70043(19) 1.06067(18) 0.4630(2)
Cu1L_2 Cu 0.70043(19) 1.06067(18) 1.4630(2)
Cu1M Cu 1.29957(19) 0.93933(18) 0.4630(2)
Cu1M_2 Cu 1.29957(19) 0.93933(18) 1.4630(2)
Cu1N Cu 0.70043(19) 0.93933(18) 0.5370(2)
Cu1N_2 Cu 0.70043(19) 0.93933(18) 1.5370(2)
Cu1O Cu 1.29957(19) 1.06067(18) 0.5370(2)
Cu1O_2 Cu 1.29957(19) 1.06067(18) 1.5370(2)
Cu1P Cu 1.06067(18) 0.4630(2) 0.70043(19)
Cu1P_2 Cu 1.06067(18) 1.4630(2) 0.70043(19)
Cu1Q Cu 0.93933(18) 0.4630(2) 1.29957(19)
Cu1Q_2 Cu 0.93933(18) 1.4630(2) 1.29957(19)
Cu1R Cu 0.93933(18) 0.5370(2) 0.70043(19)
Cu1R_2 Cu 0.93933(18) 1.5370(2) 0.70043(19)
Cu1S Cu 1.06067(18) 0.5370(2) 1.29957(19)
Cu1S_2 Cu 1.06067(18) 1.5370(2) 1.29957(19)
Cu1T Cu 0.4630(2) 0.70043(19) 1.06067(18)
Cu1T_2 Cu 1.4630(2) 0.70043(19) 1.06067(18)
Cu1U Cu 0.4630(2) 1.29957(19) 0.93933(18)
Cu1U_2 Cu 1.4630(2) 1.29957(19) 0.93933(18)
Cu1V Cu 0.5370(2) 0.70043(19) 0.93933(18)
Cu1V_2 Cu 1.5370(2) 0.70043(19) 0.93933(18)
Cu1W Cu 0.5370(2) 1.29957(19) 1.06067(18)
Cu1W_2 Cu 1.5370(2) 1.29957(19) 1.06067(18)
I1_2 I 1.44494(11) 1.16841(9) 0.89157(13)
I1A_2 I 0.55506(11) 0.83159(9) 0.89157(13)
I1B_2 I 0.55506(11) 1.16841(9) 1.10843(13)
I1C_2 I 1.44494(11) 0.83159(9) 1.10843(13)
I1D_2 I 0.89157(13) 1.44494(11) 1.16841(9)
I1E_2 I 0.89157(13) 0.55506(11) 0.83159(9)
I1F_2 I 1.10843(13) 0.55506(11) 1.16841(9)
I1G_2 I 1.10843(13) 1.44494(11) 0.83159(9)
I1H_2 I 1.16841(9) 0.89157(13) 1.44494(11)
I1I_2 I 0.83159(9) 0.89157(13) 0.55506(11)
I1J_2 I 1.16841(9) 1.10843(13) 0.55506(11)
I1K_2 I 0.83159(9) 1.10843(13) 1.44494(11)
I1L I 0.66841(9) 0.94494(11) 1.39157(13)
I1M I 1.33159(9) 1.05506(11) 1.39157(13)
I1N I 0.66841(9) 1.05506(11) 0.60843(13)
I1O I 1.33159(9) 0.94494(11) 0.60843(13)
I1P I 0.94494(11) 1.39157(13) 0.66841(9)
I1Q I 1.05506(11) 1.39157(13) 1.33159(9)
I1R I 1.05506(11) 0.60843(13) 0.66841(9)
I1S I 0.94494(11) 0.60843(13) 1.33159(9)
I1T I 1.39157(13) 0.66841(9) 0.94494(11)
I1U I 1.39157(13) 1.33159(9) 1.05506(11)
I1V I 0.60843(13) 0.66841(9) 1.05506(11)
I1W I 0.60843(13) 1.33159(9) 0.94494(11)
loop_
_geom_bond_atom_site_label_1
_geom_bond_atom_site_label_2
_geom_bond_site_symmetry_1
_geom_bond_site_symmetry_2
Zn1 O2 1_555 1_555
Zn2 O1 1_555 1_555
Cu1 I1 1_555 1_555
I1 Cu1B_2 1_555 1_555
O1 C6 1_555 1_555
O2 C6 1_555 1_555
O3 Zn1 1_555 1_555
N1 Cu1 1_555 1_555
C1 N1 1_555 1_555
H1 C1 1_555 1_555
C2 C1 1_555 1_555
H2 C2 1_555 1_555
C3 C2 1_555 1_555
C4 C3 1_555 1_555
H3 C4 1_555 1_555
C5 N1 1_555 1_555
H4 C5 1_555 1_555
C6 C3 1_555 1_555
O4 Zn2 1_555 1_555
Zn1A O3 1_555 1_555
Zn2A O1A 1_555 1_555
Cu1A I1A 1_555 1_555
I1A Cu1C_2 1_555 1_555
O1A C6A 1_555 1_555
O2A Zn1A 1_555 1_555
N1A Cu1A 1_555 1_555
C1A N1A 1_555 1_555
H1A C1A 1_555 1_555
C2A C1A 1_555 1_555
H2A C2A 1_555 1_555
C3A C2A 1_555 1_555
C4A C3A 1_555 1_555
H3A C4A 1_555 1_555
C5A N1A 1_555 1_555
H4A C5A 1_555 1_555
C6A O2A 1_555 1_555
O4A Zn2A 1_555 1_555
Zn1B O3 1_555 1_555
Zn2B O1B 1_555 1_555
Cu1B I1B 1_555 1_555
I1B Cu1_2 1_555 1_555
O1B C6B 1_555 1_555
O2B Zn1B 1_555 1_555
N1B Cu1B 1_555 1_555
C1B N1B 1_555 1_555
H1B C1B 1_555 1_555
C2B C1B 1_555 1_555
H2B C2B 1_555 1_555
C3B C2B 1_555 1_555
C4B C3B 1_555 1_555
H3B C4B 1_555 1_555
C5B N1B 1_555 1_555
H4B C5B 1_555 1_555
C6B O2B 1_555 1_555
O4B Zn2B 1_555 1_555
Zn1C O3 1_555 1_555
Zn2C O1C 1_555 1_555
Cu1C I1C 1_555 1_555
I1C Cu1A_2 1_555 1_555
O1C C6C 1_555 1_555
O2C Zn1C 1_555 1_555
N1C Cu1C 1_555 1_555
C1C N1C 1_555 1_555
H1C C1C 1_555 1_555
C2C C1C 1_555 1_555
H2C C2C 1_555 1_555
C3C C2C 1_555 1_555
C4C C3C 1_555 1_555
H3C C4C 1_555 1_555
C5C N1C 1_555 1_555
H4C C5C 1_555 1_555
C6C O2C 1_555 1_555
O4C Zn2C 1_555 1_555
Cu1D I1D 1_555 1_555
I1D Cu1F_2 1_555 1_555
O1D Zn2 1_555 1_555
O2D Zn1 1_555 1_555
N1D Cu1D 1_555 1_555
C1D N1D 1_555 1_555
H1D C1D 1_555 1_555
C2D C1D 1_555 1_555
H2D C2D 1_555 1_555
C3D C2D 1_555 1_555
C4D C3D 1_555 1_555
H3D C4D 1_555 1_555
C5D N1D 1_555 1_555
H4D C5D 1_555 1_555
C6D O1D 1_555 1_555
Cu1E I1E 1_555 1_555
I1E Cu1G_2 1_555 1_555
O1E Zn2C 1_555 1_555
O2E Zn1C 1_555 1_555
N1E Cu1E 1_555 1_555
C1E N1E 1_555 1_555
H1E C1E 1_555 1_555
C2E C1E 1_555 1_555
H2E C2E 1_555 1_555
C3E C2E 1_555 1_555
C4E C3E 1_555 1_555
H3E C4E 1_555 1_555
C5E N1E 1_555 1_555
H4E C5E 1_555 1_555
C6E O1E 1_555 1_555
Cu1F I1F 1_555 1_555
I1F Cu1D_2 1_555 1_555
O1F Zn2A 1_555 1_555
O2F Zn1A 1_555 1_555
N1F Cu1F 1_555 1_555
C1F N1F 1_555 1_555
H1F C1F 1_555 1_555
C2F C1F 1_555 1_555
H2F C2F 1_555 1_555
C3F C2F 1_555 1_555
C4F C3F 1_555 1_555
H3F C4F 1_555 1_555
C5F N1F 1_555 1_555
H4F C5F 1_555 1_555
C6F O1F 1_555 1_555
Cu1G I1G 1_555 1_555
I1G Cu1E_2 1_555 1_555
O1G Zn2B 1_555 1_555
O2G Zn1B 1_555 1_555
N1G Cu1G 1_555 1_555
C1G N1G 1_555 1_555
H1G C1G 1_555 1_555
C2G C1G 1_555 1_555
H2G C2G 1_555 1_555
C3G C2G 1_555 1_555
C4G C3G 1_555 1_555
H3G C4G 1_555 1_555
C5G N1G 1_555 1_555
H4G C5G 1_555 1_555
C6G O1G 1_555 1_555
Cu1H I1H 1_555 1_555
I1H Cu1J_2 1_555 1_555
O1H Zn2 1_555 1_555
O2H Zn1 1_555 1_555
N1H Cu1H 1_555 1_555
C1H N1H 1_555 1_555
H1H C1H 1_555 1_555
C2H C1H 1_555 1_555
H2H C2H 1_555 1_555
C3H C2H 1_555 1_555
C4H C3H 1_555 1_555
H3H C4H 1_555 1_555
C5H N1H 1_555 1_555
H4H C5H 1_555 1_555
C6H O1H 1_555 1_555
Cu1I I1I 1_555 1_555
I1I Cu1K_2 1_555 1_555
O1I Zn2B 1_555 1_555
O2I Zn1B 1_555 1_555
N1I Cu1I 1_555 1_555
C1I N1I 1_555 1_555
H1I C1I 1_555 1_555
C2I C1I 1_555 1_555
H2I C2I 1_555 1_555
C3I C2I 1_555 1_555
C4I C3I 1_555 1_555
H3I C4I 1_555 1_555
C5I N1I 1_555 1_555
H4I C5I 1_555 1_555
C6I O1I 1_555 1_555
Cu1J I1J 1_555 1_555
I1J Cu1H_2 1_555 1_555
O1J Zn2C 1_555 1_555
O2J Zn1C 1_555 1_555
N1J Cu1J 1_555 1_555
C1J N1J 1_555 1_555
H1J C1J 1_555 1_555
C2J C1J 1_555 1_555
H2J C2J 1_555 1_555
C3J C2J 1_555 1_555
C4J C3J 1_555 1_555
H3J C4J 1_555 1_555
C5J N1J 1_555 1_555
H4J C5J 1_555 1_555
C6J O1J 1_555 1_555
Cu1K I1K 1_555 1_555
I1K Cu1I_2 1_555 1_555
O1K Zn2A 1_555 1_555
O2K Zn1A 1_555 1_555
N1K Cu1K 1_555 1_555
C1K N1K 1_555 1_555
H1K C1K 1_555 1_555
C2K C1K 1_555 1_555
H2K C2K 1_555 1_555
C3K C2K 1_555 1_555
C4K C3K 1_555 1_555
H3K C4K 1_555 1_555
C5K N1K 1_555 1_555
H4K C5K 1_555 1_555
C6K O1K 1_555 1_555
Cu1_2 Cu1B 1_555 1_555
Cu1A_2 Cu1C 1_555 1_555
Cu1B_2 Cu1 1_555 1_555
Cu1C_2 Cu1A 1_555 1_555
Cu1D_2 Cu1F 1_555 1_555
Cu1E_2 Cu1G 1_555 1_555
Cu1F_2 Cu1D 1_555 1_555
Cu1G_2 Cu1E 1_555 1_555
Cu1H_2 Cu1J 1_555 1_555
Cu1I_2 Cu1K 1_555 1_555
Cu1J_2 Cu1H 1_555 1_555
Cu1K_2 Cu1I 1_555 1_555
Cu1L Cu1K 1_555 1_555
Cu1L_2 Cu1I 1_555 1_555
Cu1M Cu1H 1_555 1_555
Cu1M_2 Cu1J 1_555 1_555
Cu1N Cu1K 1_555 1_555
Cu1N_2 Cu1I 1_555 1_555
Cu1O Cu1H 1_555 1_555
Cu1O_2 Cu1J 1_555 1_555
Cu1P Cu1G 1_555 1_555
Cu1P_2 Cu1E 1_555 1_555
Cu1Q Cu1D 1_555 1_555
Cu1Q_2 Cu1F 1_555 1_555
Cu1R Cu1G 1_555 1_555
Cu1R_2 Cu1E 1_555 1_555
Cu1S Cu1D 1_555 1_555
Cu1S_2 Cu1F 1_555 1_555
Cu1T Cu1C 1_555 1_555
Cu1T_2 Cu1A 1_555 1_555
Cu1U Cu1 1_555 1_555
Cu1U_2 Cu1B 1_555 1_555
Cu1V Cu1C 1_555 1_555
Cu1V_2 Cu1A 1_555 1_555
Cu1W Cu1 1_555 1_555
Cu1W_2 Cu1B 1_555 1_555
I1_2 Cu1B 1_555 1_555
I1A_2 Cu1C 1_555 1_555
I1B_2 Cu1 1_555 1_555
I1C_2 Cu1A 1_555 1_555
I1D_2 Cu1F 1_555 1_555
I1E_2 Cu1G 1_555 1_555
I1F_2 Cu1D 1_555 1_555
I1G_2 Cu1E 1_555 1_555
I1H_2 Cu1J 1_555 1_555
I1I_2 Cu1K 1_555 1_555
I1J_2 Cu1H 1_555 1_555
I1K_2 Cu1I 1_555 1_555
I1L Cu1I 1_555 1_555
I1M Cu1J 1_555 1_555
I1N Cu1K 1_555 1_555
I1O Cu1H 1_555 1_555
I1P Cu1E 1_555 1_555
I1Q Cu1F 1_555 1_555
I1R Cu1G 1_555 1_555
I1S Cu1D 1_555 1_555
I1T Cu1A 1_555 1_555
I1U Cu1B 1_555 1_555
I1V Cu1C 1_555 1_555
I1W Cu1 1_555 1_555
I1 Cu1U 1_555 1_555
C4 C5 1_555 1_555
I1A Cu1V_2 1_555 1_555
C3A C6A 1_555 1_555
C4A C5A 1_555 1_555
I1B Cu1W_2 1_555 1_555
C3B C6B 1_555 1_555
C4B C5B 1_555 1_555
I1C Cu1T 1_555 1_555
C3C C6C 1_555 1_555
C4C C5C 1_555 1_555
I1D Cu1Q 1_555 1_555
O2D C6D 1_555 1_555
C3D C6D 1_555 1_555
C4D C5D 1_555 1_555
I1E Cu1R_2 1_555 1_555
O2E C6E 1_555 1_555
C3E C6E 1_555 1_555
C4E C5E 1_555 1_555
I1F Cu1S_2 1_555 1_555
O2F C6F 1_555 1_555
C3F C6F 1_555 1_555
C4F C5F 1_555 1_555
I1G Cu1P 1_555 1_555
O2G C6G 1_555 1_555
C3G C6G 1_555 1_555
C4G C5G 1_555 1_555
I1H Cu1M 1_555 1_555
O2H C6H 1_555 1_555
C3H C6H 1_555 1_555
C4H C5H 1_555 1_555
I1I Cu1N_2 1_555 1_555
O2I C6I 1_555 1_555
C3I C6I 1_555 1_555
C4I C5I 1_555 1_555
I1J Cu1O_2 1_555 1_555
O2J C6J 1_555 1_555
C3J C6J 1_555 1_555
C4J C5J 1_555 1_555
I1K Cu1L 1_555 1_555
O2K C6K 1_555 1_555
C3K C6K 1_555 1_555
C4K C5K 1_555 1_555
Cu1_2 Cu1U_2 1_555 1_555
Cu1_2 Cu1W_2 1_555 1_555
Cu1_2 I1_2 1_555 1_555
Cu1A_2 Cu1T 1_555 1_555
Cu1A_2 Cu1V 1_555 1_555
Cu1A_2 I1A_2 1_555 1_555
Cu1B_2 Cu1U 1_555 1_555
Cu1B_2 Cu1W 1_555 1_555
Cu1B_2 I1B_2 1_555 1_555
Cu1C_2 Cu1T_2 1_555 1_555
Cu1C_2 Cu1V_2 1_555 1_555
Cu1C_2 I1C_2 1_555 1_555
Cu1D_2 Cu1Q_2 1_555 1_555
Cu1D_2 Cu1S_2 1_555 1_555
Cu1D_2 I1D_2 1_555 1_555
Cu1E_2 Cu1P 1_555 1_555
Cu1E_2 Cu1R 1_555 1_555
Cu1E_2 I1E_2 1_555 1_555
Cu1F_2 Cu1Q 1_555 1_555
Cu1F_2 Cu1S 1_555 1_555
Cu1F_2 I1F_2 1_555 1_555
Cu1G_2 Cu1P_2 1_555 1_555
Cu1G_2 Cu1R_2 1_555 1_555
Cu1G_2 I1G_2 1_555 1_555
Cu1H_2 Cu1M_2 1_555 1_555
Cu1H_2 Cu1O_2 1_555 1_555
Cu1H_2 I1H_2 1_555 1_555
Cu1I_2 Cu1L 1_555 1_555
Cu1I_2 Cu1N 1_555 1_555
Cu1I_2 I1I_2 1_555 1_555
Cu1J_2 Cu1M 1_555 1_555
Cu1J_2 Cu1O 1_555 1_555
Cu1J_2 I1J_2 1_555 1_555
Cu1K_2 Cu1L_2 1_555 1_555
Cu1K_2 Cu1N_2 1_555 1_555
Cu1K_2 I1K_2 1_555 1_555
Cu1L Cu1N 1_555 1_555
Cu1L I1N 1_555 1_555
Cu1L_2 Cu1N_2 1_555 1_555
Cu1L_2 I1K_2 1_555 1_555
Cu1L_2 I1L 1_555 1_555
Cu1M Cu1O 1_555 1_555
Cu1M I1O 1_555 1_555
Cu1M_2 Cu1O_2 1_555 1_555
Cu1M_2 I1H_2 1_555 1_555
Cu1M_2 I1M 1_555 1_555
Cu1N I1I_2 1_555 1_555
Cu1N I1N 1_555 1_555
Cu1N_2 I1L 1_555 1_555
Cu1O I1J_2 1_555 1_555
Cu1O I1O 1_555 1_555
Cu1O_2 I1M 1_555 1_555
Cu1P Cu1R 1_555 1_555
Cu1P I1R 1_555 1_555
Cu1P_2 Cu1R_2 1_555 1_555
Cu1P_2 I1G_2 1_555 1_555
Cu1P_2 I1P 1_555 1_555
Cu1Q Cu1S 1_555 1_555
Cu1Q I1S 1_555 1_555
Cu1Q_2 Cu1S_2 1_555 1_555
Cu1Q_2 I1D_2 1_555 1_555
Cu1Q_2 I1Q 1_555 1_555
Cu1R I1E_2 1_555 1_555
Cu1R I1R 1_555 1_555
Cu1R_2 I1P 1_555 1_555
Cu1S I1F_2 1_555 1_555
Cu1S I1S 1_555 1_555
Cu1S_2 I1Q 1_555 1_555
Cu1T Cu1V 1_555 1_555
Cu1T I1V 1_555 1_555
Cu1T_2 Cu1V_2 1_555 1_555
Cu1T_2 I1C_2 1_555 1_555
Cu1T_2 I1T 1_555 1_555
Cu1U Cu1W 1_555 1_555
Cu1U I1W 1_555 1_555
Cu1U_2 Cu1W_2 1_555 1_555
Cu1U_2 I1_2 1_555 1_555
Cu1U_2 I1U 1_555 1_555
Cu1V I1A_2 1_555 1_555
Cu1V I1V 1_555 1_555
Cu1V_2 I1T 1_555 1_555
Cu1W I1B_2 1_555 1_555
Cu1W I1W 1_555 1_555
Cu1W_2 I1U 1_555 1_555

#END
