
#######################################################################
#
#                 Cambridge Crystallographic Data Centre
#                                CCDC 
#
#######################################################################
#
# If this CIF has been generated from an entry in the Cambridge 
# Structural Database, then it will include bibliographic, chemical, 
# crystal, experimental, refinement or atomic coordinate data resulting 
# from the CCDC's data processing and validation procedures.
#
#######################################################################

data_XEYNOG
_symmetry_cell_setting           monoclinic
_symmetry_space_group_name_H-M   'P 21/c'
_symmetry_Int_Tables_number      14
_space_group_name_Hall           '-P 2ybc'
loop_
_symmetry_equiv_pos_site_id
_symmetry_equiv_pos_as_xyz
1 x,y,z
2 -x,1/2+y,1/2-z
3 -x,-y,-z
4 x,1/2-y,1/2+z
_cell_length_a                   21.9799(7)
_cell_length_b                   5.45813(17)
_cell_length_c                   10.8462(3)
_cell_angle_alpha                90
_cell_angle_beta                 94.285(2)
_cell_angle_gamma                90
_cell_volume                     1297.57
loop_
_atom_site_label
_atom_site_type_symbol
_atom_site_fract_x
_atom_site_fract_y
_atom_site_fract_z
La1 La 0.7502(8) 0.0510(4) 0.0011(18)
O1 O 0.6766(17) 0.396(6) -0.123(3)
O2 O 0.8200(18) 0.331(5) 0.128(4)
P1 P 0.6686(8) -0.465(3) 0.1654(17)
O3 O 0.6810(12) -0.306(4) 0.0648(19)
O4 O 0.6764(13) -0.720(3) 0.141(3)
O5 O 0.7102(11) -0.384(5) 0.2822(19)
C1 C 0.5851(6) -0.424(4) 0.2137(9)
C2 C 0.5384(20) -0.456(4) 0.107(2)
C3 C 0.531(3) -0.277(6) 0.014(3)
C4 C 0.494(3) -0.322(7) -0.093(4)
P2 P 0.8303(8) -0.454(3) -0.1624(17)
O6 O 0.7904(11) -0.369(5) -0.2846(19)
O7 O 0.8222(13) -0.703(3) -0.141(3)
O8 O 0.8098(12) -0.278(4) -0.0691(20)
C5 C 0.9138(6) -0.380(2) -0.2005(9)
C6 C 0.9550(18) -0.442(5) -0.090(3)
C7 C 0.968(2) -0.280(6) 0.007(4)
C8 C 1.012(3) -0.319(7) 0.103(5)
P1B P 0.3314(8) -0.535(3) -0.1654(17)
O3B O 0.3190(12) -0.694(4) -0.0648(19)
O4B O 0.3236(13) -0.280(3) -0.141(3)
O5B O 0.2898(11) -0.616(5) -0.2822(19)
C1B C 0.4149(6) -0.576(4) -0.2137(9)
C2B C 0.4616(20) -0.544(4) -0.107(2)
C3B C 0.469(3) -0.723(6) -0.014(3)
C4B C 0.506(3) -0.678(7) 0.093(4)
P2B P 1.1697(8) -0.546(3) 0.1624(17)
O6B O 1.2096(11) -0.631(5) 0.2846(19)
O7B O 1.1778(13) -0.297(3) 0.141(3)
O8B O 1.1902(12) -0.722(4) 0.0691(20)
C5B C 1.0862(6) -0.620(2) 0.2005(9)
C6B C 1.0450(18) -0.558(5) 0.090(3)
C7B C 1.032(2) -0.720(6) -0.007(4)
C8B C 0.988(3) -0.681(7) -0.103(5)
La1B La 0.2498(8) -1.0510(4) -0.0011(18)
O1B O 0.3234(17) -1.396(6) 0.123(3)
O2B O 0.1800(18) -1.331(5) -0.128(4)
La1_2 La 0.7502(8) -0.9490(4) 0.0011(18)
La1A La 0.2498(8) -0.4490(4) -0.5011(18)
La1A_2 La 1.2498(8) -0.4490(4) 0.4989(18)
La1B_2 La 0.2498(8) -0.0510(4) -0.0011(18)
La1B_3 La 1.2498(8) -1.0510(4) -0.0011(18)
La1B_4 La 1.2498(8) -0.0510(4) -0.0011(18)
La1C La 0.7502(8) -0.5510(4) -0.4989(18)
La1C_2 La 0.7502(8) -0.5510(4) 0.5011(18)
O4_2 O 0.6764(13) 0.280(3) 0.141(3)
O4B_2 O 0.3236(13) -1.280(3) -0.141(3)
O5A O 0.2898(11) -0.884(5) 0.2178(19)
O5C O 0.7102(11) -0.116(5) -0.2178(19)
O6A O 0.2096(11) -0.869(5) -0.2154(19)
O6C O 0.7904(11) -0.131(5) 0.2154(19)
O7_2 O 0.8222(13) 0.297(3) -0.141(3)
O7B_2 O 0.1778(13) -1.297(3) 0.141(3)
O8B_2 O 0.1902(12) -0.722(4) 0.0691(20)
loop_
_geom_bond_atom_site_label_1
_geom_bond_atom_site_label_2
_geom_bond_site_symmetry_1
_geom_bond_site_symmetry_2
La1 O1 1_555 1_555
O2 La1 1_555 1_555
P1 O3 1_555 1_555
O3 La1 1_555 1_555
O4 P1 1_555 1_555
O5 P1 1_555 1_555
C1 P1 1_555 1_555
C2 C1 1_555 1_555
C3 C2 1_555 1_555
C4 C3 1_555 1_555
P2 O6 1_555 1_555
O6 La1C 1_555 1_555
O7 P2 1_555 1_555
O8 La1 1_555 1_555
C5 P2 1_555 1_555
C6 C5 1_555 1_555
C7 C6 1_555 1_555
C8 C7 1_555 1_555
P1B O3B 1_555 1_555
O3B La1B 1_555 1_555
O4B P1B 1_555 1_555
O5B P1B 1_555 1_555
C1B P1B 1_555 1_555
C2B C4 1_555 1_555
C3B C2B 1_555 1_555
C4B C2 1_555 1_555
P2B O6B 1_555 1_555
O6B La1A_2 1_555 1_555
O7B P2B 1_555 1_555
O8B P2B 1_555 1_555
C5B P2B 1_555 1_555
C6B C8 1_555 1_555
C7B C6B 1_555 1_555
C8B C6 1_555 1_555
La1B O1B 1_555 1_555
O2B La1B 1_555 1_555
La1_2 O4 1_555 1_555
La1A O5B 1_555 1_555
La1B_2 O4B 1_555 1_555
La1B_3 O8B 1_555 1_555
La1B_4 O7B 1_555 1_555
La1C_2 O5 1_555 1_555
O4_2 La1 1_555 1_555
O4B_2 La1B 1_555 1_555
O5A La1B 1_555 1_555
O5C La1 1_555 1_555
O6A La1B 1_555 1_555
O6C La1 1_555 1_555
O7_2 La1 1_555 1_555
O7B_2 La1B 1_555 1_555
O8B_2 La1B 1_555 1_555
P2 O8 1_555 1_555
O7 La1_2 1_555 1_555
C1B C2B 1_555 1_555
C3B C4B 1_555 1_555
C5B C6B 1_555 1_555
C7B C8B 1_555 1_555

#END
