
#######################################################################
#
#                 Cambridge Crystallographic Data Centre
#                                CCDC 
#
#######################################################################
#
# If this CIF has been generated from an entry in the Cambridge 
# Structural Database, then it will include bibliographic, chemical, 
# crystal, experimental, refinement or atomic coordinate data resulting 
# from the CCDC's data processing and validation procedures.
#
#######################################################################

data_XEYNOF01
_symmetry_cell_setting           orthorhombic
_symmetry_space_group_name_H-M   'P n a 21'
_symmetry_Int_Tables_number      33
_space_group_name_Hall           'P 2c -2n'
loop_
_symmetry_equiv_pos_site_id
_symmetry_equiv_pos_as_xyz
1 x,y,z
2 -x,-y,1/2+z
3 1/2+x,1/2-y,z
4 1/2-x,1/2+y,1/2+z
_cell_length_a                   30.205(7)
_cell_length_b                   10.824(3)
_cell_length_c                   7.2092(16)
_cell_angle_alpha                90
_cell_angle_beta                 90
_cell_angle_gamma                90
_cell_volume                     2356.97
loop_
_atom_site_label
_atom_site_type_symbol
_atom_site_fract_x
_atom_site_fract_y
_atom_site_fract_z
Sn1 Sn 0.068129(15) 0.40365(5) 0.43334(10)
Sn2 Sn 0.195366(18) -0.01532(5) 0.37802(8)
Cl1 Cl 0.20221(9) -0.2417(2) 0.4229(4)
Cl2 Cl 0.12116(8) -0.0334(3) 0.2649(5)
N1 N 0.1311(2) 0.4720(6) 0.2362(10)
N2 N 0.2063(3) 0.5093(7) 0.0226(15)
N3 N 0.0425(2) 0.2323(6) 0.6386(9)
N4 N 0.0048(2) 0.0550(7) 0.8664(11)
O1 O 0.12529(17) 0.2653(5) 0.4449(10)
O2 O 0.1886(2) 0.1961(6) 0.3241(11)
O3 O 0.0000(2) 0.4444(6) 0.5715(9)
O4 O -0.0456(2) 0.4092(6) 0.8111(9)
C1 C 0.1587(3) 0.2750(8) 0.3446(11)
C2 C 0.1633(3) 0.3883(8) 0.2277(13)
C3 C 0.2005(3) 0.4068(9) 0.1215(16)
H1 H 0.2223 0.3460 0.1188
C4 C 0.1742(3) 0.5941(8) 0.0309(12)
C5 C 0.1371(3) 0.5743(7) 0.1372(12)
H2 H 0.1153 0.6349 0.1401
C6 C 0.1800(3) 0.7118(8) -0.0750(16)
H3 H 0.2075 0.7094 -0.1417
H4 H 0.1802 0.7802 0.0097
H5 H 0.1559 0.7213 -0.1611
C7 C -0.0152(3) 0.3803(8) 0.7020(12)
C8 C 0.0052(3) 0.2553(8) 0.7297(12)
C9 C -0.0133(3) 0.1647(8) 0.8407(11)
H6 H -0.0399 0.1819 0.9002
C10 C 0.0425(3) 0.0327(8) 0.7802(12)
C11 C 0.0612(3) 0.1214(8) 0.6617(13)
H7 H 0.0872 0.1027 0.5980
C12 C 0.0652(3) -0.0870(8) 0.8115(18)
H8 H 0.0480 -0.1366 0.8952
H9 H 0.0939 -0.0724 0.8641
H10 H 0.0684 -0.1296 0.6955
C13 C 0.0424(3) 0.3023(9) 0.2097(13)
H11 H 0.0482 0.2160 0.2284
H12 H 0.0562 0.3290 0.0967
H13 H 0.0110 0.3155 0.2019
C14 C 0.0970(3) 0.5022(9) 0.6523(14)
H14 H 0.1080 0.4453 0.7433
H15 H 0.0752 0.5549 0.7081
H16 H 0.1210 0.5515 0.6057
C15 C 0.2364(4) -0.0078(10) 0.1454(14)
H17 H 0.2661 0.0112 0.1835
H18 H 0.2260 0.0551 0.0624
H19 H 0.2361 -0.0863 0.0834
C16 C 0.1902(3) 0.0295(10) 0.6630(14)
H20 H 0.1871 0.1173 0.6766
H21 H 0.2164 0.0026 0.7267
H22 H 0.1648 -0.0110 0.7151
Sn1A Sn -0.068129(15) 0.59635(5) 0.93334(10)
O4A O 0.0456(2) 0.5908(6) 0.3111(9)
loop_
_geom_bond_atom_site_label_1
_geom_bond_atom_site_label_2
_geom_bond_site_symmetry_1
_geom_bond_site_symmetry_2
Sn1 N1 1_555 1_555
Sn2 Cl1 1_555 1_555
Cl2 Sn2 1_555 1_555
N1 C2 1_555 1_555
N2 C3 1_555 1_555
N3 Sn1 1_555 1_555
N4 C9 1_555 1_555
O1 Sn1 1_555 1_555
O2 Sn2 1_555 1_555
O3 Sn1 1_555 1_555
O4 C7 1_555 1_555
C1 O1 1_555 1_555
C2 C1 1_555 1_555
C3 C2 1_555 1_555
H1 C3 1_555 1_555
C4 N2 1_555 1_555
C5 N1 1_555 1_555
H2 C5 1_555 1_555
C6 C4 1_555 1_555
H3 C6 1_555 1_555
H4 C6 1_555 1_555
H5 C6 1_555 1_555
C7 O3 1_555 1_555
C8 N3 1_555 1_555
C9 C8 1_555 1_555
H6 C9 1_555 1_555
C10 N4 1_555 1_555
C11 N3 1_555 1_555
H7 C11 1_555 1_555
C12 C10 1_555 1_555
H8 C12 1_555 1_555
H9 C12 1_555 1_555
H10 C12 1_555 1_555
C13 Sn1 1_555 1_555
H11 C13 1_555 1_555
H12 C13 1_555 1_555
H13 C13 1_555 1_555
C14 Sn1 1_555 1_555
H14 C14 1_555 1_555
H15 C14 1_555 1_555
H16 C14 1_555 1_555
C15 Sn2 1_555 1_555
H17 C15 1_555 1_555
H18 C15 1_555 1_555
H19 C15 1_555 1_555
C16 Sn2 1_555 1_555
H20 C16 1_555 1_555
H21 C16 1_555 1_555
H22 C16 1_555 1_555
Sn1A O4 1_555 1_555
O4A Sn1 1_555 1_555
O2 C1 1_555 1_555
C4 C5 1_555 1_555
C7 C8 1_555 1_555
C10 C11 1_555 1_555

#END
