
#######################################################################
#
#                 Cambridge Crystallographic Data Centre
#                                CCDC 
#
#######################################################################
#
# If this CIF has been generated from an entry in the Cambridge 
# Structural Database, then it will include bibliographic, chemical, 
# crystal, experimental, refinement or atomic coordinate data resulting 
# from the CCDC's data processing and validation procedures.
#
#######################################################################

data_XEYNIZ
_symmetry_cell_setting           triclinic
_symmetry_space_group_name_H-M   'P -1'
_symmetry_Int_Tables_number      2
_space_group_name_Hall           '-P 1'
loop_
_symmetry_equiv_pos_site_id
_symmetry_equiv_pos_as_xyz
1 x,y,z
2 -x,-y,-z
_cell_length_a                   10.6572(14)
_cell_length_b                   11.5515(15)
_cell_length_c                   18.860(3)
_cell_angle_alpha                82.867(2)
_cell_angle_beta                 78.588(2)
_cell_angle_gamma                71.823(2)
_cell_volume                     2157.45
loop_
_atom_site_label
_atom_site_type_symbol
_atom_site_fract_x
_atom_site_fract_y
_atom_site_fract_z
Sn1 Sn 0.44564(4) 0.73192(3) 0.20527(2)
Sn2 Sn -0.06027(3) 0.68264(3) 0.265581(19)
N1 N -0.0243(5) 0.7897(5) 0.0971(3)
N2 N 0.0888(6) 0.8628(6) -0.0399(3)
N3 N 0.4777(5) 0.5332(5) 0.3413(3)
N4 N 0.5773(6) 0.3725(6) 0.4519(3)
O1 O 0.2812(4) 0.8062(4) 0.1346(2)
O2 O 0.1258(4) 0.7379(4) 0.2071(2)
O3 O 0.6327(4) 0.6699(4) 0.2603(2)
O4 O 0.7772(4) 0.6058(4) 0.3365(2)
C1 C 0.1714(5) 0.7830(5) 0.1475(3)
C2 C 0.0949(5) 0.8080(5) 0.0855(3)
C3 C 0.1498(6) 0.8452(6) 0.0176(3)
H1 H 0.2330 0.8587 0.0115
C4 C -0.0293(7) 0.8440(6) -0.0288(4)
C5 C -0.0851(6) 0.8082(7) 0.0397(4)
H2 H -0.1692 0.7965 0.0460
C6 C -0.1003(9) 0.8610(8) -0.0928(4)
H3 H -0.1567 0.9437 -0.0969
H4 H -0.1540 0.8062 -0.0860
H5 H -0.0353 0.8440 -0.1363
C7 C 0.6729(5) 0.6075(5) 0.3150(3)
C8 C 0.5948(5) 0.5269(5) 0.3582(3)
C9 C 0.6424(7) 0.4467(6) 0.4134(4)
H6 H 0.7246 0.4440 0.4244
C10 C 0.4602(7) 0.3798(6) 0.4356(4)
C11 C 0.4130(6) 0.4594(6) 0.3805(4)
H7 H 0.3306 0.4620 0.3698
C12 C 0.3823(9) 0.2967(8) 0.4776(5)
H8 H 0.4310 0.2471 0.5138
H9 H 0.3698 0.2451 0.4451
H10 H 0.2965 0.3451 0.5006
C13 C 0.3159(6) 0.8228(6) 0.2952(3)
H11 H 0.2519 0.8939 0.2762
H12 H 0.2656 0.7688 0.3207
C14 C 0.3729(8) 0.8645(7) 0.3496(4)
H13 H 0.4314 0.9114 0.3240
H14 H 0.4281 0.7929 0.3735
C15 C 0.2751(10) 0.9397(9) 0.4063(5)
H15 H 0.2214 1.0122 0.3824
H16 H 0.2152 0.8936 0.4310
C16 C 0.3316(14) 0.9790(12) 0.4619(7)
H17 H 0.2600 1.0262 0.4957
H18 H 0.3884 1.0277 0.4387
H19 H 0.3830 0.9083 0.4872
C17 C 0.5489(6) 0.8435(5) 0.1327(3)
H20 H 0.6408 0.8203 0.1409
H21 H 0.5510 0.8265 0.0834
C18 C 0.4883(7) 0.9793(5) 0.1401(4)
H22 H 0.4862 0.9968 0.1894
H23 H 0.3964 1.0030 0.1317
C19 C 0.5635(7) 1.0559(6) 0.0882(4)
H24 H 0.6544 1.0346 0.0978
H25 H 0.5684 1.0364 0.0389
C20 C 0.4990(10) 1.1910(7) 0.0943(6)
H26 H 0.5504 1.2348 0.0602
H27 H 0.4960 1.2112 0.1425
H28 H 0.4096 1.2130 0.0839
C21 C 0.4743(8) 0.5556(6) 0.1695(4)
H29 H 0.5237 0.4943 0.2020
H30 H 0.3873 0.5432 0.1733
C22 C 0.5477(10) 0.5359(9) 0.0932(5)
H31 H 0.5348 0.4640 0.0777
H32 H 0.5072 0.6051 0.0619
C23 C 0.6936(10) 0.5202(10) 0.0822(6)
H33 H 0.7050 0.5921 0.0986
H34 H 0.7326 0.4514 0.1141
C24 C 0.7739(13) 0.5007(12) 0.0091(7)
H35 H 0.8659 0.4917 0.0110
H36 H 0.7406 0.5695 -0.0233
H37 H 0.7676 0.4281 -0.0080
C25 C -0.1934(7) 0.8610(6) 0.2645(4)
H38 H -0.2358 0.8727 0.2221
H39 H -0.2632 0.8644 0.3066
C26 C -0.1439(11) 0.9662(7) 0.2642(7)
H40 H -0.0869 0.9751 0.2181
H41 H -0.0905 0.9524 0.3022
C27 C -0.2650(13) 1.0880(8) 0.2764(8)
H42 H -0.3208 1.0987 0.2398
H43 H -0.3193 1.0799 0.3234
C28 C -0.2210(19) 1.1946(12) 0.2730(11)
H44 H -0.2976 1.2655 0.2801
H45 H -0.1679 1.2036 0.2263
H46 H -0.1682 1.1858 0.3101
C29 C 0.0415(6) 0.6306(6) 0.3563(3)
H47 H 0.0343 0.5509 0.3761
H48 H 0.1357 0.6219 0.3390
C30 C -0.0057(7) 0.7145(7) 0.4165(3)
H49 H -0.0997 0.7230 0.4345
H50 H 0.0014 0.7945 0.3971
C31 C 0.0713(8) 0.6730(8) 0.4803(4)
H51 H 0.0659 0.5924 0.4993
H52 H 0.1650 0.6667 0.4629
C32 C 0.0190(12) 0.7578(12) 0.5401(5)
H53 H 0.0693 0.7266 0.5789
H54 H -0.0737 0.7646 0.5576
H55 H 0.0280 0.8369 0.5223
C33 C -0.0264(7) 0.5419(6) 0.1946(4)
H56 H -0.1098 0.5498 0.1783
H57 H 0.0377 0.5539 0.1522
C34 C 0.0249(10) 0.4139(8) 0.2276(6)
H58 H -0.0272 0.4074 0.2755
H59 H 0.0111 0.3572 0.1983
C35 C 0.1710(11) 0.3772(9) 0.2339(6)
H60 H 0.2234 0.3812 0.1859
H61 H 0.1854 0.4353 0.2621
C36 C 0.2197(15) 0.2519(11) 0.2687(7)
H62 H 0.3131 0.2338 0.2713
H63 H 0.2079 0.1936 0.2405
H64 H 0.1697 0.2477 0.3167
Sn2_2 Sn 0.93973(3) 0.68264(3) 0.265581(19)
O4_2 O -0.2228(4) 0.6058(4) 0.3365(2)
loop_
_geom_bond_atom_site_label_1
_geom_bond_atom_site_label_2
_geom_bond_site_symmetry_1
_geom_bond_site_symmetry_2
Sn1 O1 1_555 1_555
Sn2 O2 1_555 1_555
N1 C2 1_555 1_555
N2 C3 1_555 1_555
N3 C8 1_555 1_555
N4 C9 1_555 1_555
O1 C1 1_555 1_555
O2 C1 1_555 1_555
O3 Sn1 1_555 1_555
O4 C7 1_555 1_555
C1 C2 1_555 1_555
C2 C3 1_555 1_555
C3 H1 1_555 1_555
C4 N2 1_555 1_555
C5 N1 1_555 1_555
H2 C5 1_555 1_555
C6 C4 1_555 1_555
H3 C6 1_555 1_555
H4 C6 1_555 1_555
H5 C6 1_555 1_555
C7 O3 1_555 1_555
C8 C7 1_555 1_555
C9 C8 1_555 1_555
H6 C9 1_555 1_555
C10 N4 1_555 1_555
C11 N3 1_555 1_555
H7 C11 1_555 1_555
C12 C10 1_555 1_555
H8 C12 1_555 1_555
H9 C12 1_555 1_555
H10 C12 1_555 1_555
C13 Sn1 1_555 1_555
H11 C13 1_555 1_555
H12 C13 1_555 1_555
C14 C13 1_555 1_555
H13 C14 1_555 1_555
H14 C14 1_555 1_555
C15 C14 1_555 1_555
H15 C15 1_555 1_555
H16 C15 1_555 1_555
C16 C15 1_555 1_555
H17 C16 1_555 1_555
H18 C16 1_555 1_555
H19 C16 1_555 1_555
C17 Sn1 1_555 1_555
H20 C17 1_555 1_555
H21 C17 1_555 1_555
C18 C17 1_555 1_555
H22 C18 1_555 1_555
H23 C18 1_555 1_555
C19 C18 1_555 1_555
H24 C19 1_555 1_555
H25 C19 1_555 1_555
C20 C19 1_555 1_555
H26 C20 1_555 1_555
H27 C20 1_555 1_555
H28 C20 1_555 1_555
C21 Sn1 1_555 1_555
H29 C21 1_555 1_555
H30 C21 1_555 1_555
C22 C21 1_555 1_555
H31 C22 1_555 1_555
H32 C22 1_555 1_555
C23 C22 1_555 1_555
H33 C23 1_555 1_555
H34 C23 1_555 1_555
C24 C23 1_555 1_555
H35 C24 1_555 1_555
H36 C24 1_555 1_555
H37 C24 1_555 1_555
C25 Sn2 1_555 1_555
H38 C25 1_555 1_555
H39 C25 1_555 1_555
C26 C25 1_555 1_555
H40 C26 1_555 1_555
H41 C26 1_555 1_555
C27 C26 1_555 1_555
H42 C27 1_555 1_555
H43 C27 1_555 1_555
C28 C27 1_555 1_555
H44 C28 1_555 1_555
H45 C28 1_555 1_555
H46 C28 1_555 1_555
C29 Sn2 1_555 1_555
H47 C29 1_555 1_555
H48 C29 1_555 1_555
C30 C29 1_555 1_555
H49 C30 1_555 1_555
H50 C30 1_555 1_555
C31 C30 1_555 1_555
H51 C31 1_555 1_555
H52 C31 1_555 1_555
C32 C31 1_555 1_555
H53 C32 1_555 1_555
H54 C32 1_555 1_555
H55 C32 1_555 1_555
C33 Sn2 1_555 1_555
H56 C33 1_555 1_555
H57 C33 1_555 1_555
C34 C33 1_555 1_555
H58 C34 1_555 1_555
H59 C34 1_555 1_555
C35 C34 1_555 1_555
H60 C35 1_555 1_555
H61 C35 1_555 1_555
C36 C35 1_555 1_555
H62 C36 1_555 1_555
H63 C36 1_555 1_555
H64 C36 1_555 1_555
Sn2_2 O4 1_555 1_555
O4_2 Sn2 1_555 1_555
C4 C5 1_555 1_555
C10 C11 1_555 1_555

#END
