
#######################################################################
#
#                 Cambridge Crystallographic Data Centre
#                                CCDC 
#
#######################################################################
#
# If this CIF has been generated from an entry in the Cambridge 
# Structural Database, then it will include bibliographic, chemical, 
# crystal, experimental, refinement or atomic coordinate data resulting 
# from the CCDC's data processing and validation procedures.
#
#######################################################################

data_XEYPAU
_symmetry_cell_setting           monoclinic
_symmetry_space_group_name_H-M   'P 2/n'
_symmetry_Int_Tables_number      13
_space_group_name_Hall           '-P 2yac'
loop_
_symmetry_equiv_pos_site_id
_symmetry_equiv_pos_as_xyz
1 x,y,z
2 1/2-x,y,1/2-z
3 -x,-y,-z
4 1/2+x,-y,1/2+z
_cell_length_a                   5.717(2)
_cell_length_b                   8.694(3)
_cell_length_c                   22.649(8)
_cell_angle_alpha                90
_cell_angle_beta                 94.384(16)
_cell_angle_gamma                90
_cell_volume                     1122.44
loop_
_atom_site_label
_atom_site_type_symbol
_atom_site_fract_x
_atom_site_fract_y
_atom_site_fract_z
La1 La 0.2500 0.2398(2) 0.2500
O1 O 0.437(3) 0.023(2) 0.3023(8)
O2 O 0.834(3) -0.0551(19) 0.3469(8)
O3 O 0.596(4) -0.253(3) 0.2861(9)
O4 O -0.045(3) 0.2311(18) 0.3236(7)
O5 O -0.090(3) 0.515(2) 0.3534(8)
O6 O -0.453(3) 0.362(2) 0.3158(8)
C1 C 0.463(5) -0.186(3) 0.3921(12)
H1 H 0.2941 -0.2073 0.3827
H2 H 0.5413 -0.2865 0.4004
C2 C 0.300(5) 0.006(3) 0.4618(12)
H3 H 0.1627 0.0133 0.4354
C3 C 0.489(5) -0.091(3) 0.4474(12)
C4 C 0.686(5) -0.090(3) 0.4870(11)
H4 H 0.8176 -0.1494 0.4780
C5 C -0.239(5) 0.297(3) 0.4249(11)
H5 H -0.3150 0.1946 0.4249
H6 H -0.0780 0.2845 0.4439
C6 C -0.603(4) 0.448(3) 0.4458(11)
H7 H -0.6771 0.4128 0.4094
C7 C -0.372(4) 0.403(3) 0.4632(11)
C8 C -0.270(5) 0.451(3) 0.5163(12)
H8 H -0.1154 0.4179 0.5288
P1 P 0.5795(12) -0.1038(9) 0.3279(3)
P2 P -0.2154(11) 0.3525(8) 0.3497(3)
O7 O 0.194(6) 0.553(4) 0.2673(14)
O1B O 0.563(3) -0.023(2) 0.6977(8)
O2B O 0.166(3) 0.0551(19) 0.6531(8)
O3B O 0.404(4) 0.253(3) 0.7139(9)
C1B C 0.537(5) 0.186(3) 0.6079(12)
H1B H 0.7059 0.2073 0.6173
H2B H 0.4587 0.2865 0.5996
C2B C 0.700(5) -0.006(3) 0.5382(12)
H3B H 0.8373 -0.0133 0.5646
C3B C 0.511(5) 0.091(3) 0.5526(12)
C4B C 0.314(5) 0.090(3) 0.5130(11)
H4B H 0.1824 0.1494 0.5220
P1B P 0.4205(12) 0.1038(9) 0.6721(3)
O4B O -0.955(3) 0.7689(18) 0.6764(7)
O5B O -0.910(3) 0.485(2) 0.6466(8)
O6B O -0.547(3) 0.638(2) 0.6842(8)
C5B C -0.761(5) 0.703(3) 0.5751(11)
H5B H -0.6850 0.8054 0.5751
H6B H -0.9220 0.7155 0.5561
C6B C -0.397(4) 0.552(3) 0.5542(11)
H7B H -0.3229 0.5872 0.5906
C7B C -0.628(4) 0.597(3) 0.5368(11)
C8B C -0.730(5) 0.549(3) 0.4837(12)
H8B H -0.8846 0.5821 0.4712
P2B P -0.7846(11) 0.6475(8) 0.6503(3)
O7A O 0.306(6) 0.553(4) 0.2327(14)
La1_2 La -0.7500 0.2398(2) 0.2500
La1B La -1.2500 0.7602(2) 0.7500
La1B_2 La -0.2500 0.7602(2) 0.7500
La1B_3 La 0.7500 -0.2398(2) 0.7500
O1A O 0.063(3) 0.023(2) 0.1977(8)
O4A O 0.545(3) 0.2311(18) 0.1764(7)
O6_2 O 0.547(3) 0.362(2) 0.3158(8)
O6A O -0.047(3) 0.362(2) 0.1842(8)
loop_
_geom_bond_atom_site_label_1
_geom_bond_atom_site_label_2
_geom_bond_site_symmetry_1
_geom_bond_site_symmetry_2
La1 O1 1_555 1_555
O1 P1 1_555 1_555
O2 P1 1_555 1_555
O3 P1 1_555 1_555
O4 La1 1_555 1_555
O5 P2 1_555 1_555
O6 P2 1_555 1_555
C1 H1 1_555 1_555
H2 C1 1_555 1_555
C2 H3 1_555 1_555
C3 C1 1_555 1_555
C4 C3 1_555 1_555
H4 C4 1_555 1_555
C5 H5 1_555 1_555
H6 C5 1_555 1_555
C6 H7 1_555 1_555
C7 C5 1_555 1_555
C8 C7 1_555 1_555
H8 C8 1_555 1_555
P1 C1 1_555 1_555
P2 O4 1_555 1_555
O7 La1 1_555 1_555
O1B P1B 1_555 1_555
O2B P1B 1_555 1_555
O3B P1B 1_555 1_555
C1B H1B 1_555 1_555
H2B C1B 1_555 1_555
C2B C4 1_555 1_555
H3B C2B 1_555 1_555
C3B C1B 1_555 1_555
C4B C2 1_555 1_555
H4B C4B 1_555 1_555
P1B C1B 1_555 1_555
O4B P2B 1_555 1_555
O5B P2B 1_555 1_555
O6B P2B 1_555 1_555
C5B H5B 1_555 1_555
H6B C5B 1_555 1_555
C6B C8 1_555 1_555
H7B C6B 1_555 1_555
C7B C5B 1_555 1_555
C8B C6 1_555 1_555
H8B C8B 1_555 1_555
P2B C5B 1_555 1_555
O7A La1 1_555 1_555
La1_2 O6 1_555 1_555
La1B O4B 1_555 1_555
La1B_2 O6B 1_555 1_555
La1B_3 O1B 1_555 1_555
O1A La1 1_555 1_555
O4A La1 1_555 1_555
O6_2 La1 1_555 1_555
O6A La1 1_555 1_555
C2 C3 1_555 1_555
C5 P2 1_555 1_555
C6 C7 1_555 1_555
O7 O7A 1_555 1_555
C2B C3B 1_555 1_555
C3B C4B 1_555 1_555
C6B C7B 1_555 1_555
C7B C8B 1_555 1_555

#END
