
#######################################################################
#
#                 Cambridge Crystallographic Data Centre
#                                CCDC 
#
#######################################################################
#
# If this CIF has been generated from an entry in the Cambridge 
# Structural Database, then it will include bibliographic, chemical, 
# crystal, experimental, refinement or atomic coordinate data resulting 
# from the CCDC's data processing and validation procedures.
#
#######################################################################

data_XEYPIC
_symmetry_cell_setting           triclinic
_symmetry_space_group_name_H-M   'P -1'
_symmetry_Int_Tables_number      2
_space_group_name_Hall           '-P 1'
loop_
_symmetry_equiv_pos_site_id
_symmetry_equiv_pos_as_xyz
1 x,y,z
2 -x,-y,-z
_cell_length_a                   7.6851(11)
_cell_length_b                   11.6395(16)
_cell_length_c                   12.7044(19)
_cell_angle_alpha                105.665(7)
_cell_angle_beta                 102.544(7)
_cell_angle_gamma                93.172(6)
_cell_volume                     1060.21
loop_
_atom_site_label
_atom_site_type_symbol
_atom_site_fract_x
_atom_site_fract_y
_atom_site_fract_z
La1 La 0.19854(2) 0.237640(15) 0.492125(14)
C1 C -0.2538(4) -0.0298(3) 0.1343(3)
H1 H -0.2519 -0.1111 0.1445
H2 H -0.3763 -0.0254 0.0917
C2 C -0.1237(4) -0.0149(3) 0.0642(2)
C3 C 0.0461(4) -0.0529(3) 0.0860(3)
H3 H 0.0792 -0.0891 0.1449
C4 C -0.1680(4) 0.0382(3) -0.0221(3)
H4 H -0.2828 0.0649 -0.0380
C5 C 0.6421(4) 0.3568(3) 0.8680(3)
H5 H 0.7628 0.3516 0.9124
H6 H 0.6420 0.4393 0.8605
C6 C 0.5075(4) 0.3397(3) 0.9346(2)
C7 C 0.3298(4) 0.3629(3) 0.9042(3)
H7 H 0.2906 0.3877 0.8385
C8 C 0.2096(4) 0.3500(3) 0.9694(3)
H8 H 0.0895 0.3666 0.9477
C9 C 0.2627(4) 0.3133(3) 1.0657(2)
C10 C 0.4403(4) 0.2902(3) 1.0961(3)
H9 H 0.4797 0.2652 1.1617
C11 C 0.5597(4) 0.3035(3) 1.0312(3)
H10 H 0.6799 0.2875 1.0534
C12 C 0.1355(4) 0.2965(3) 1.1365(2)
H11 H 0.1426 0.2158 1.1478
H12 H 0.0118 0.2973 1.0935
O1 O -0.2236(3) 0.20407(19) 0.24614(19)
H13 H -0.113(3) 0.254(3) 0.280(3)
O2 O -0.0257(3) 0.07645(18) 0.34154(18)
O3 O -0.3634(3) 0.05233(19) 0.32334(18)
O4 O 0.7696(3) 0.28074(19) 0.68444(19)
O5 O 0.4276(3) 0.2594(2) 0.66104(18)
O6 O 0.6237(3) 0.1227(2) 0.7435(2)
H14 H 0.507(3) 0.080(3) 0.721(3)
O7 O 0.0533(3) 0.50796(19) 1.25058(19)
H15 H 0.130(4) 0.581(2) 1.274(3)
O8 O 0.0851(3) 0.34585(18) 1.34566(17)
O9 O 0.3658(3) 0.45643(19) 1.32285(17)
P1 P -0.21095(9) 0.07886(7) 0.27110(6)
P2 P 0.60938(10) 0.25366(7) 0.72951(6)
P3 P 0.17100(9) 0.40564(7) 1.27336(6)
O10 O 0.3233(3) 0.1484(2) 0.31910(18)
H16 H 0.4421(17) 0.129(3) 0.319(3)
H17 H 0.241(3) 0.082(2) 0.271(3)
O11 O 0.4929(3) 0.35159(19) 0.48679(18)
H18 H 0.557(4) 0.413(2) 0.5498(16)
H19 H 0.467(5) 0.380(3) 0.4229(16)
O12 O 0.2325(3) 0.4701(2) 0.62200(19)
H20 H 0.142(3) 0.475(3) 0.662(2)
H21 H 0.345(2) 0.501(3) 0.673(2)
O13 O 0.0396(3) 0.1573(2) 0.6200(2)
H22 H 0.030(4) 0.0790(15) 0.630(3)
H23 H -0.052(4) 0.199(2) 0.647(3)
O14 O 0.2993(3) 0.0277(2) 0.48956(19)
H24 H 0.305(5) -0.010(3) 0.5466(19)
H25 H 0.321(5) -0.025(2) 0.4244(17)
O15 O -0.1054(3) 0.3228(2) 0.50186(19)
H26 H -0.188(4) 0.300(3) 0.540(3)
H27 H -0.147(4) 0.381(3) 0.467(3)
C1A C 0.2538(4) 0.0298(3) -0.1343(3)
H1A H 0.2519 0.1111 -0.1445
H2A H 0.3763 0.0254 -0.0917
C2A C 0.1237(4) 0.0149(3) -0.0642(2)
C3A C -0.0461(4) 0.0529(3) -0.0860(3)
H3A H -0.0792 0.0891 -0.1449
C4A C 0.1680(4) -0.0382(3) 0.0221(3)
H4A H 0.2828 -0.0649 0.0380
O1A O 0.2236(3) -0.20407(19) -0.24614(19)
H13A H 0.113(3) -0.254(3) -0.280(3)
O2A O 0.0257(3) -0.07645(18) -0.34154(18)
O3A O 0.3634(3) -0.05233(19) -0.32334(18)
P1A P 0.21095(9) -0.07886(7) -0.27110(6)
La1A La -0.19854(2) -0.237640(15) -0.492125(14)
C5A C -0.6421(4) -0.3568(3) -0.8680(3)
H5A H -0.7628 -0.3516 -0.9124
H6A H -0.6420 -0.4393 -0.8605
C6A C -0.5075(4) -0.3397(3) -0.9346(2)
C7A C -0.3298(4) -0.3629(3) -0.9042(3)
H7A H -0.2906 -0.3877 -0.8385
C8A C -0.2096(4) -0.3500(3) -0.9694(3)
H8A H -0.0895 -0.3666 -0.9477
C9A C -0.2627(4) -0.3133(3) -1.0657(2)
C10A C -0.4403(4) -0.2902(3) -1.0961(3)
H9A H -0.4797 -0.2652 -1.1617
C11A C -0.5597(4) -0.3035(3) -1.0312(3)
H10A H -0.6799 -0.2875 -1.0534
C12A C -0.1355(4) -0.2965(3) -1.1365(2)
H11A H -0.1426 -0.2158 -1.1478
H12A H -0.0118 -0.2973 -1.0935
O4A O -0.7696(3) -0.28074(19) -0.68444(19)
O5A O -0.4276(3) -0.2594(2) -0.66104(18)
O6A O -0.6237(3) -0.1227(2) -0.7435(2)
H14A H -0.507(3) -0.080(3) -0.721(3)
O7A O -0.0533(3) -0.50796(19) -1.25058(19)
H15A H -0.130(4) -0.581(2) -1.274(3)
O8A O -0.0851(3) -0.34585(18) -1.34566(17)
O9A O -0.3658(3) -0.45643(19) -1.32285(17)
P2A P -0.60938(10) -0.25366(7) -0.72951(6)
P3A P -0.17100(9) -0.40564(7) -1.27336(6)
O10A O -0.3233(3) -0.1484(2) -0.31910(18)
H16A H -0.4421(17) -0.129(3) -0.319(3)
H17A H -0.241(3) -0.082(2) -0.271(3)
O11A O -0.4929(3) -0.35159(19) -0.48679(18)
H18A H -0.557(4) -0.413(2) -0.5498(16)
H19A H -0.467(5) -0.380(3) -0.4229(16)
O12A O -0.2325(3) -0.4701(2) -0.62200(19)
H20A H -0.142(3) -0.475(3) -0.662(2)
H21A H -0.345(2) -0.501(3) -0.673(2)
O13A O -0.0396(3) -0.1573(2) -0.6200(2)
H22A H -0.030(4) -0.0790(15) -0.630(3)
H23A H 0.052(4) -0.199(2) -0.647(3)
O14A O -0.2993(3) -0.0277(2) -0.48956(19)
H24A H -0.305(5) 0.010(3) -0.5466(19)
H25A H -0.321(5) 0.025(2) -0.4244(17)
O15A O 0.1054(3) -0.3228(2) -0.50186(19)
H26A H 0.188(4) -0.300(3) -0.540(3)
H27A H 0.147(4) -0.381(3) -0.467(3)
La1_2 La 0.19854(2) 0.237640(15) 1.492125(14)
La1A_2 La -0.19854(2) -0.237640(15) -1.492125(14)
O8_2 O 0.0851(3) 0.34585(18) 0.34566(17)
O8A_2 O -0.0851(3) -0.34585(18) -0.34566(17)
loop_
_geom_bond_atom_site_label_1
_geom_bond_atom_site_label_2
_geom_bond_site_symmetry_1
_geom_bond_site_symmetry_2
La1 O2 1_555 1_555
C1 H1 1_555 1_555
H2 C1 1_555 1_555
C2 C1 1_555 1_555
C3 C2 1_555 1_555
H3 C3 1_555 1_555
C4 C2 1_555 1_555
H4 C4 1_555 1_555
C5 H5 1_555 1_555
H6 C5 1_555 1_555
C6 C5 1_555 1_555
C7 C6 1_555 1_555
H7 C7 1_555 1_555
C8 C7 1_555 1_555
H8 C8 1_555 1_555
C9 C8 1_555 1_555
C10 C9 1_555 1_555
H9 C10 1_555 1_555
C11 C6 1_555 1_555
H10 C11 1_555 1_555
C12 C9 1_555 1_555
H11 C12 1_555 1_555
H12 C12 1_555 1_555
O1 H13 1_555 1_555
O2 P1 1_555 1_555
O3 P1 1_555 1_555
O4 P2 1_555 1_555
O5 La1 1_555 1_555
O6 H14 1_555 1_555
O7 H15 1_555 1_555
O8 P3 1_555 1_555
O9 P3 1_555 1_555
P1 C1 1_555 1_555
P2 C5 1_555 1_555
P3 C12 1_555 1_555
O10 La1 1_555 1_555
H16 O10 1_555 1_555
H17 O10 1_555 1_555
O11 La1 1_555 1_555
H18 O11 1_555 1_555
H19 O11 1_555 1_555
O12 La1 1_555 1_555
H20 O12 1_555 1_555
H21 O12 1_555 1_555
O13 La1 1_555 1_555
H22 O13 1_555 1_555
H23 O13 1_555 1_555
O14 La1 1_555 1_555
H24 O14 1_555 1_555
H25 O14 1_555 1_555
O15 La1 1_555 1_555
H26 O15 1_555 1_555
H27 O15 1_555 1_555
C1A H1A 1_555 1_555
H2A C1A 1_555 1_555
C2A C1A 1_555 1_555
C3A C4 1_555 1_555
H3A C3A 1_555 1_555
C4A C3 1_555 1_555
H4A C4A 1_555 1_555
O1A H13A 1_555 1_555
O2A P1A 1_555 1_555
O3A P1A 1_555 1_555
P1A C1A 1_555 1_555
La1A O2A 1_555 1_555
C5A H5A 1_555 1_555
H6A C5A 1_555 1_555
C6A C5A 1_555 1_555
C7A C6A 1_555 1_555
H7A C7A 1_555 1_555
C8A C7A 1_555 1_555
H8A C8A 1_555 1_555
C9A C8A 1_555 1_555
C10A C9A 1_555 1_555
H9A C10A 1_555 1_555
C11A C6A 1_555 1_555
H10A C11A 1_555 1_555
C12A C9A 1_555 1_555
H11A C12A 1_555 1_555
H12A C12A 1_555 1_555
O4A P2A 1_555 1_555
O5A La1A 1_555 1_555
O6A H14A 1_555 1_555
O7A H15A 1_555 1_555
O8A P3A 1_555 1_555
O9A P3A 1_555 1_555
P2A C5A 1_555 1_555
P3A C12A 1_555 1_555
O10A La1A 1_555 1_555
H16A O10A 1_555 1_555
H17A O10A 1_555 1_555
O11A La1A 1_555 1_555
H18A O11A 1_555 1_555
H19A O11A 1_555 1_555
O12A La1A 1_555 1_555
H20A O12A 1_555 1_555
H21A O12A 1_555 1_555
O13A La1A 1_555 1_555
H22A O13A 1_555 1_555
H23A O13A 1_555 1_555
O14A La1A 1_555 1_555
H24A O14A 1_555 1_555
H25A O14A 1_555 1_555
O15A La1A 1_555 1_555
H26A O15A 1_555 1_555
H27A O15A 1_555 1_555
La1_2 O8 1_555 1_555
La1A_2 O8A 1_555 1_555
O8_2 La1 1_555 1_555
O8A_2 La1A 1_555 1_555
C10 C11 1_555 1_555
O1 P1 1_555 1_555
O5 P2 1_555 1_555
O6 P2 1_555 1_555
O7 P3 1_555 1_555
C2A C3A 1_555 1_555
C2A C4A 1_555 1_555
O1A P1A 1_555 1_555
C10A C11A 1_555 1_555
O5A P2A 1_555 1_555
O6A P2A 1_555 1_555
O7A P3A 1_555 1_555

#END
