
#######################################################################
#
#                 Cambridge Crystallographic Data Centre
#                                CCDC 
#
#######################################################################
#
# If this CIF has been generated from an entry in the Cambridge 
# Structural Database, then it will include bibliographic, chemical, 
# crystal, experimental, refinement or atomic coordinate data resulting 
# from the CCDC's data processing and validation procedures.
#
#######################################################################

data_XEYQEY
_symmetry_cell_setting           triclinic
_symmetry_space_group_name_H-M   'P -1'
_symmetry_Int_Tables_number      2
_space_group_name_Hall           '-P 1'
loop_
_symmetry_equiv_pos_site_id
_symmetry_equiv_pos_as_xyz
1 x,y,z
2 -x,-y,-z
_cell_length_a                   11.8240(10)
_cell_length_b                   11.8561(10)
_cell_length_c                   11.9130(10)
_cell_angle_alpha                115.0160(12)
_cell_angle_beta                 92.9560(13)
_cell_angle_gamma                114.4730(12)
_cell_volume                     1324.33
loop_
_atom_site_label
_atom_site_type_symbol
_atom_site_fract_x
_atom_site_fract_y
_atom_site_fract_z
La1 La 0.47729(2) 0.17958(2) 0.21672(2)
La2 La 0.83166(2) 0.53334(2) 0.54576(2)
O1 O 0.5814(3) 0.3422(3) 0.4696(3)
O2 O 0.4728(3) 0.1125(3) 0.4013(3)
O3 O 0.7209(3) 0.5906(3) 0.7237(3)
O4 O 0.7938(3) 0.3186(3) 0.5750(3)
O5 O 0.9185(3) 0.3484(3) 0.4483(3)
O6 O 0.8656(4) 0.0935(4) 0.1811(4)
O7 O 0.7142(3) 0.3714(3) 0.2803(3)
O8 O 0.8768(3) 0.5834(4) 0.3587(3)
O9 O 0.5530(3) 0.1724(4) 0.0321(3)
O10 O 0.5309(3) 0.5873(3) 0.7113(3)
O11 O 0.6690(4) 0.0836(4) -0.0812(4)
O12 O 1.0628(3) 0.2043(3) 0.3148(3)
N1 N 0.4513(4) 0.1612(4) 0.7587(4)
N2 N 0.8080(4) -0.0370(5) 0.5366(5)
N3 N 0.8499(5) 0.4699(6) -0.0888(5)
C1 C 0.5271(4) 0.2367(4) 0.4902(4)
C2 C 0.5188(4) 0.2657(5) 0.6238(4)
C3 C 0.4735(4) 0.1531(5) 0.6491(5)
H1 H 0.4576 0.0652 0.5837
C4 C 0.4729(6) 0.2888(5) 0.8520(5)
H2 H 0.4556 0.2970 0.9295
C5 C 0.5191(5) 0.4064(5) 0.8374(5)
H3 H 0.5329 0.4925 0.9045
C6 C 0.5456(4) 0.3986(5) 0.7225(4)
C7 C 0.6044(4) 0.5346(4) 0.7162(4)
C8 C 0.8555(4) 0.2782(5) 0.5008(4)
C9 C 0.8553(4) 0.1424(4) 0.4736(5)
C10 C 0.8147(5) 0.0851(5) 0.5538(5)
H4 H 0.7908 0.1344 0.6237
C11 C 0.8341(5) -0.1098(5) 0.4309(6)
H5 H 0.8249 -0.1977 0.4139
C12 C 0.8736(5) -0.0631(5) 0.3461(5)
H6 H 0.8901 -0.1190 0.2734
C13 C 0.8892(4) 0.0675(4) 0.3679(4)
C14 C 0.9410(4) 0.1249(5) 0.2795(5)
C15 C 0.7961(4) 0.4691(5) 0.2654(4)
C16 C 0.8024(4) 0.4559(5) 0.1336(4)
C17 C 0.8792(5) 0.5820(6) 0.1343(5)
H7 H 0.9196 0.6662 0.2125
C18 C 0.8968(5) 0.5859(6) 0.0250(6)
H8 H 0.9439 0.6737 0.0297
C19 C 0.7764(5) 0.3429(7) -0.0929(5)
H9 H 0.7446 0.2600 -0.1716
C20 C 0.7467(5) 0.3315(5) 0.0151(4)
C21 C 0.6481(5) 0.1856(5) -0.0114(4)
O13 O 0.6319(3) 0.0880(4) 0.2310(4)
H10 H 0.675(5) 0.110(5) 0.181(4)
H11 H 0.616(6) 0.004(3) 0.218(5)
O14 O 0.2679(4) 0.1324(4) 0.2916(4)
H12 H 0.217(5) 0.083(5) 0.325(6)
H13 H 0.242(5) 0.193(5) 0.294(6)
O15 O 0.2996(5) 0.1526(5) 0.0514(4)
H14 H 0.299(7) 0.231(4) 0.064(6)
H15 H 0.248(6) 0.081(4) -0.024(3)
O16 O 0.9775(4) 0.6033(5) 0.7572(4)
H16 H 1.053(3) 0.675(5) 0.808(4)
H17 H 0.931(5) 0.565(6) 0.799(5)
O17 O 0.6857(3) 0.6179(4) 0.4853(3)
H18 H 0.691(4) 0.685(4) 0.560(3)
H19 H 0.6051(19) 0.570(5) 0.437(4)
La1A La 0.52271(2) 0.82042(2) 0.78328(2)
La1A_2 La 0.52271(2) -0.17958(2) -0.21672(2)
La2A La 1.16834(2) 0.46666(2) 0.45424(2)
O5A O 1.0815(3) 0.6516(3) 0.5517(3)
O10A O 0.4691(3) 0.4127(3) 0.2887(3)
O11A O 0.3310(4) -0.0836(4) 0.0812(4)
O12A O 0.9372(3) 0.7957(3) 0.6852(3)
O18 O -0.0874(16) -0.1404(17) -0.0425(16)
O19? O 0.0300(19) -0.133(2) 0.038(2)
loop_
_geom_bond_atom_site_label_1
_geom_bond_atom_site_label_2
_geom_bond_site_symmetry_1
_geom_bond_site_symmetry_2
La1 O1 1_555 1_555
La2 O1 1_555 1_555
O1 C1 1_555 1_555
O2 La1 1_555 1_555
O3 La2 1_555 1_555
O4 La2 1_555 1_555
O5 La2 1_555 1_555
O6 C14 1_555 1_555
O7 La1 1_555 1_555
O8 La2 1_555 1_555
O9 La1 1_555 1_555
O10 C7 1_555 1_555
O11 C21 1_555 1_555
O12 C14 1_555 1_555
N1 C3 1_555 1_555
N2 C10 1_555 1_555
N3 C18 1_555 1_555
C1 O2 1_555 1_555
C2 C1 1_555 1_555
C3 C2 1_555 1_555
H1 C3 1_555 1_555
C4 N1 1_555 1_555
H2 C4 1_555 1_555
C5 C4 1_555 1_555
H3 C5 1_555 1_555
C6 C2 1_555 1_555
C7 O3 1_555 1_555
C8 O4 1_555 1_555
C9 C8 1_555 1_555
C10 C9 1_555 1_555
H4 C10 1_555 1_555
C11 N2 1_555 1_555
H5 C11 1_555 1_555
C12 C11 1_555 1_555
H6 C12 1_555 1_555
C13 C9 1_555 1_555
C14 C13 1_555 1_555
C15 O7 1_555 1_555
C16 C15 1_555 1_555
C17 C16 1_555 1_555
H7 C17 1_555 1_555
C18 C17 1_555 1_555
H8 C18 1_555 1_555
C19 N3 1_555 1_555
H9 C19 1_555 1_555
C20 C16 1_555 1_555
C21 O9 1_555 1_555
O13 La1 1_555 1_555
H10 O13 1_555 1_555
H11 O13 1_555 1_555
O14 La1 1_555 1_555
H12 O14 1_555 1_555
H13 O14 1_555 1_555
O15 La1 1_555 1_555
H14 O15 1_555 1_555
H15 O15 1_555 1_555
O16 La2 1_555 1_555
H16 O16 1_555 1_555
H17 O16 1_555 1_555
O17 La2 1_555 1_555
H18 O17 1_555 1_555
H19 O17 1_555 1_555
La1A O10 1_555 1_555
La1A_2 O11 1_555 1_555
La2A O5 1_555 1_555
O5A La2 1_555 1_555
O10A La1 1_555 1_555
O11A La1 1_555 1_555
O12A La2 1_555 1_555
La2 O7 1_555 1_555
O5 C8 1_555 1_555
O8 C15 1_555 1_555
O12 La2A 1_555 1_555
C5 C6 1_555 1_555
C6 C7 1_555 1_555
C12 C13 1_555 1_555
C19 C20 1_555 1_555
C20 C21 1_555 1_555
La2A O5A 1_555 1_555

#END
