
#######################################################################
#
#                 Cambridge Crystallographic Data Centre
#                                CCDC 
#
#######################################################################
#
# If this CIF has been generated from an entry in the Cambridge 
# Structural Database, then it will include bibliographic, chemical, 
# crystal, experimental, refinement or atomic coordinate data resulting 
# from the CCDC's data processing and validation procedures.
#
#######################################################################

data_XEYTIE
_symmetry_cell_setting           monoclinic
_symmetry_space_group_name_H-M   'P 21/c'
_symmetry_Int_Tables_number      14
_space_group_name_Hall           '-P 2ybc'
loop_
_symmetry_equiv_pos_site_id
_symmetry_equiv_pos_as_xyz
1 x,y,z
2 x,1/2-y,1/2+z
3 -x,-y,-z
4 -x,1/2+y,1/2-z
_cell_length_a                   6.456(7)
_cell_length_b                   20.235(4)
_cell_length_c                   20.242(3)
_cell_angle_alpha                90
_cell_angle_beta                 92.62(3)
_cell_angle_gamma                90
_cell_volume                     2641.59
loop_
_atom_site_label
_atom_site_type_symbol
_atom_site_fract_x
_atom_site_fract_y
_atom_site_fract_z
Mn1 Mn 0.26598(8) 0.27133(3) 1.18946(2)
S1 S 0.8603(2) 0.45763(5) 1.40621(5)
S2 S 0.7340(2) 0.45178(5) 1.49606(5)
F1 F 0.4725(7) 0.0404(2) 1.2095(2)
F2 F 0.7201(5) 0.0920(2) 1.2502(2)
F3 F 0.5165(6) 0.0432(2) 1.3126(2)
F4 F 0.0036(6) 0.2522(2) 1.4028(1)
F5 F -0.0286(7) 0.1488(2) 1.4051(2)
F6 F -0.2366(5) 0.2077(2) 1.3467(2)
F7 F 0.0115(7) 0.4936(2) 1.1763(2)
F8 F -0.2069(5) 0.4439(2) 1.1200(2)
F9 F 0.0151(9) 0.5022(2) 1.0734(2)
F10 F 0.4959(7) 0.2920(2) 0.9710(2)
F11 F 0.5542(7) 0.3943(2) 0.9732(2)
F12 F 0.7496(5) 0.3290(2) 1.0269(2)
O1 O 0.4254(4) 0.1792(1) 1.2123(1)
O2 O 0.0740(4) 0.2438(1) 1.2682(1)
O3 O 0.1024(4) 0.3617(1) 1.1669(1)
O4 O 0.4513(4) 0.2992(1) 1.1091(1)
N1 N 0.4702(5) 0.3289(2) 1.2643(1)
N2 N 1.0669(5) 0.2905(1) 1.6159(1)
C1 C 0.6568(6) 0.3509(2) 1.2509(2)
C2 C 0.7767(6) 0.3897(2) 1.2938(2)
C3 C 0.7034(6) 0.4047(2) 1.3543(2)
C4 C 0.5114(8) 0.3823(3) 1.3691(2)
C5 C 0.4014(7) 0.3455(3) 1.3232(2)
C6 C 0.8825(6) 0.3131(2) 1.6293(2)
C7 C 0.7763(6) 0.3606(2) 1.5927(2)
C8 C 0.8670(5) 0.3862(2) 1.5379(1)
C9 C 1.0570(6) 0.3623(2) 1.5216(2)
C10 C 1.1508(6) 0.3154(2) 1.5619(2)
C11 C 0.5249(8) 0.0779(2) 1.2583(3)
C12 C 0.3886(5) 0.1402(2) 1.2579(2)
C13 C 0.2415(6) 0.1457(2) 1.3063(2)
C14 C 0.1011(5) 0.1971(2) 1.3082(2)
C15 C -0.0402(7) 0.2003(2) 1.3666(2)
C16 C -0.0093(8) 0.4610(2) 1.1192(3)
C17 C 0.1321(6) 0.4007(2) 1.1201(2)
C18 C 0.2751(7) 0.3955(2) 1.0717(2)
C19 C 0.4193(6) 0.3452(2) 1.0693(2)
C20 C 0.5558(8) 0.3401(3) 1.0094(2)
H1 H 0.7116 0.3402 1.2085
H2 H 0.9101 0.4060 1.2818
H3 H 0.4559 0.3913 1.4114
H4 H 0.2631 0.3315 1.3339
H5 H 0.8165 0.2950 1.6673
H6 H 0.6408 0.3753 1.6041
H7 H 1.1230 0.3777 1.4825
H8 H 1.2868 0.3000 1.5509
H9 H 0.2385 0.1119 1.3405
H10 H 0.2749 0.4287 1.0377
N2A N 0.0669(5) 0.2095(1) 1.1159(1)
Mn1A Mn 1.26598(8) 0.22867(3) 1.68946(2)
loop_
_geom_bond_atom_site_label_1
_geom_bond_atom_site_label_2
_geom_bond_site_symmetry_1
_geom_bond_site_symmetry_2
Mn1 O1 1_555 1_555
S1 S2 1_555 1_555
S2 C8 1_555 1_555
F1 C11 1_555 1_555
F2 C11 1_555 1_555
F3 C11 1_555 1_555
F4 C15 1_555 1_555
F5 C15 1_555 1_555
F6 C15 1_555 1_555
F7 C16 1_555 1_555
F8 C16 1_555 1_555
F9 C16 1_555 1_555
F10 C20 1_555 1_555
F11 C20 1_555 1_555
F12 C20 1_555 1_555
O1 C12 1_555 1_555
O2 Mn1 1_555 1_555
O3 Mn1 1_555 1_555
O4 Mn1 1_555 1_555
N1 Mn1 1_555 1_555
N2 C6 1_555 1_555
C1 N1 1_555 1_555
C2 C1 1_555 1_555
C3 S1 1_555 1_555
C4 C3 1_555 1_555
C5 N1 1_555 1_555
C6 C7 1_555 1_555
C7 C8 1_555 1_555
C8 C9 1_555 1_555
C9 C10 1_555 1_555
C10 N2 1_555 1_555
C11 C12 1_555 1_555
C12 C13 1_555 1_555
C13 C14 1_555 1_555
C14 O2 1_555 1_555
C15 C14 1_555 1_555
C16 C17 1_555 1_555
C17 O3 1_555 1_555
C18 C17 1_555 1_555
C19 O4 1_555 1_555
C20 C19 1_555 1_555
H1 C1 1_555 1_555
H2 C2 1_555 1_555
H3 C4 1_555 1_555
H4 C5 1_555 1_555
H5 C6 1_555 1_555
H6 C7 1_555 1_555
H7 C9 1_555 1_555
H8 C10 1_555 1_555
H9 C13 1_555 1_555
H10 C18 1_555 1_555
N2A Mn1 1_555 1_555
Mn1A N2 1_555 1_555
C2 C3 1_555 1_555
C4 C5 1_555 1_555
C18 C19 1_555 1_555

#END
