
#######################################################################
#
#                 Cambridge Crystallographic Data Centre
#                                CCDC 
#
#######################################################################
#
# If this CIF has been generated from an entry in the Cambridge 
# Structural Database, then it will include bibliographic, chemical, 
# crystal, experimental, refinement or atomic coordinate data resulting 
# from the CCDC's data processing and validation procedures.
#
#######################################################################

data_XEYWUU
_symmetry_cell_setting           triclinic
_symmetry_space_group_name_H-M   'P -1'
_symmetry_Int_Tables_number      2
_space_group_name_Hall           '-P 1'
loop_
_symmetry_equiv_pos_site_id
_symmetry_equiv_pos_as_xyz
1 x,y,z
2 -x,-y,-z
_cell_length_a                   8.6551(3)
_cell_length_b                   9.0505(2)
_cell_length_c                   9.9267(3)
_cell_angle_alpha                100.6430(10)
_cell_angle_beta                 95.3480(10)
_cell_angle_gamma                94.5810(10)
_cell_volume                     757.13
loop_
_atom_site_label
_atom_site_type_symbol
_atom_site_fract_x
_atom_site_fract_y
_atom_site_fract_z
Cu1 Cu 0.78152(5) 0.14996(5) 0.13659(4)
O1 O 0.6616(3) 0.0963(3) -0.0504(2)
O2 O 0.4573(3) -0.0395(3) -0.1792(2)
O3 O 0.9974(3) 0.1967(3) 0.0323(3)
O4 O 1.1414(3) 0.0530(3) -0.1031(3)
O5 O 0.6320(3) 0.0540(3) 0.6239(3)
H1 H 0.5858 0.0225 0.6853
O6 O 0.4953(4) 0.6993(4) 0.4638(3)
H2 H 0.4716 0.7840 0.4503
N1 N 0.8810(4) 0.1917(3) 0.3332(3)
N2 N 0.7094(4) 0.3572(3) 0.1549(3)
C1 C 0.5341(4) 0.0154(4) -0.0668(3)
C2 C 1.0390(4) 0.0722(4) -0.0199(3)
C3 C 0.8129(4) 0.1287(4) 0.4279(4)
H3 H 0.7171 0.0670 0.4000
C4 C 0.8758(5) 0.1494(5) 0.5639(4)
C5 C 1.0166(6) 0.2363(6) 0.6027(5)
H4 H 1.0639 0.2527 0.6952
C6 C 1.0876(7) 0.2989(7) 0.5049(6)
H5 H 1.1862 0.3564 0.5289
C7 C 1.0154(5) 0.2778(5) 0.3730(5)
H6 H 1.0628 0.3261 0.3078
C8 C 0.7943(5) 0.0803(6) 0.6670(5)
H7 H 0.8364 -0.0164 0.6762
H8 H 0.8127 0.1489 0.7582
C9 C 0.6032(4) 0.4021(4) 0.2404(4)
H9 H 0.5666 0.3352 0.2964
C10 C 0.5447(5) 0.5412(4) 0.2509(4)
C11 C 0.6030(5) 0.6383(4) 0.1689(4)
H10 H 0.5675 0.7356 0.1739
C12 C 0.7106(5) 0.5936(4) 0.0817(4)
H11 H 0.7498 0.6591 0.0256
C13 C 0.7623(5) 0.4518(4) 0.0759(4)
H12 H 0.8368 0.4206 0.0147
C14 C 0.4291(5) 0.5853(5) 0.3503(5)
H13 H 0.3394 0.6225 0.3018
H14 H 0.3896 0.4952 0.3849
Cu1A Cu 0.21848(5) -0.14996(5) -0.13659(4)
Cu1A_2 Cu 1.21848(5) -0.14996(5) -0.13659(4)
O1A O 0.3384(3) -0.0963(3) 0.0504(2)
O2A O 0.5427(3) 0.0395(3) 0.1792(2)
O3A O 1.0026(3) -0.1967(3) -0.0323(3)
O3A_2 O 0.0026(3) -0.1967(3) -0.0323(3)
O4A O 0.8586(3) -0.0530(3) 0.1031(3)
O4_2 O 0.1414(3) 0.0530(3) -0.1031(3)
O5A O 0.3680(3) -0.0540(3) -0.6239(3)
H1A H 0.4142 -0.0225 -0.6853
O6A O 0.5047(4) -0.6993(4) -0.4638(3)
H2A H 0.5284 -0.7840 -0.4503
N1A N 0.1190(4) -0.1917(3) -0.3332(3)
N2A N 0.2906(4) -0.3572(3) -0.1549(3)
C1A C 0.4659(4) -0.0154(4) 0.0668(3)
C2A C 0.9610(4) -0.0722(4) 0.0199(3)
C3A C 0.1871(4) -0.1287(4) -0.4279(4)
H3A H 0.2829 -0.0670 -0.4000
C4A C 0.1242(5) -0.1494(5) -0.5639(4)
C5A C -0.0166(6) -0.2363(6) -0.6027(5)
H4A H -0.0639 -0.2527 -0.6952
C6A C -0.0876(7) -0.2989(7) -0.5049(6)
H5A H -0.1862 -0.3564 -0.5289
C7A C -0.0154(5) -0.2778(5) -0.3730(5)
H6A H -0.0628 -0.3261 -0.3078
C8A C 0.2057(5) -0.0803(6) -0.6670(5)
H7A H 0.1636 0.0164 -0.6762
H8A H 0.1873 -0.1489 -0.7582
C9A C 0.3968(4) -0.4021(4) -0.2404(4)
H9A H 0.4334 -0.3352 -0.2964
C10A C 0.4553(5) -0.5412(4) -0.2509(4)
C11A C 0.3970(5) -0.6383(4) -0.1689(4)
H10A H 0.4325 -0.7356 -0.1739
C12A C 0.2894(5) -0.5936(4) -0.0817(4)
H11A H 0.2502 -0.6591 -0.0256
C13A C 0.2377(5) -0.4518(4) -0.0759(4)
H12A H 0.1632 -0.4206 -0.0147
C14A C 0.5709(5) -0.5853(5) -0.3503(5)
H13A H 0.6606 -0.6225 -0.3018
H14A H 0.6104 -0.4952 -0.3849
loop_
_geom_bond_atom_site_label_1
_geom_bond_atom_site_label_2
_geom_bond_site_symmetry_1
_geom_bond_site_symmetry_2
Cu1 O1 1_555 1_555
O1 C1 1_555 1_555
O2 C1 1_555 1_555
O3 Cu1 1_555 1_555
O4 C2 1_555 1_555
O5 H1 1_555 1_555
O6 H2 1_555 1_555
N1 Cu1 1_555 1_555
N2 Cu1 1_555 1_555
C1 C1A 1_555 1_555
C2 O3 1_555 1_555
C3 N1 1_555 1_555
H3 C3 1_555 1_555
C4 C3 1_555 1_555
C5 C4 1_555 1_555
H4 C5 1_555 1_555
C6 C5 1_555 1_555
H5 C6 1_555 1_555
C7 N1 1_555 1_555
H6 C7 1_555 1_555
C8 O5 1_555 1_555
H7 C8 1_555 1_555
H8 C8 1_555 1_555
C9 N2 1_555 1_555
H9 C9 1_555 1_555
C10 C9 1_555 1_555
C11 C10 1_555 1_555
H10 C11 1_555 1_555
C12 C11 1_555 1_555
H11 C12 1_555 1_555
C13 N2 1_555 1_555
H12 C13 1_555 1_555
C14 O6 1_555 1_555
H13 C14 1_555 1_555
H14 C14 1_555 1_555
Cu1A O2 1_555 1_555
Cu1A_2 O4 1_555 1_555
O1A Cu1A 1_555 1_555
O2A Cu1 1_555 1_555
O3A Cu1A_2 1_555 1_555
O3A_2 Cu1A 1_555 1_555
O4A Cu1 1_555 1_555
O4_2 Cu1A 1_555 1_555
O5A H1A 1_555 1_555
O6A H2A 1_555 1_555
N1A Cu1A 1_555 1_555
N2A Cu1A 1_555 1_555
C1A O1A 1_555 1_555
C2A C2 1_555 1_555
C3A N1A 1_555 1_555
H3A C3A 1_555 1_555
C4A C3A 1_555 1_555
C5A C4A 1_555 1_555
H4A C5A 1_555 1_555
C6A C5A 1_555 1_555
H5A C6A 1_555 1_555
C7A N1A 1_555 1_555
H6A C7A 1_555 1_555
C8A O5A 1_555 1_555
H7A C8A 1_555 1_555
H8A C8A 1_555 1_555
C9A N2A 1_555 1_555
H9A C9A 1_555 1_555
C10A C9A 1_555 1_555
C11A C10A 1_555 1_555
H10A C11A 1_555 1_555
C12A C11A 1_555 1_555
H11A C12A 1_555 1_555
C13A N2A 1_555 1_555
H12A C13A 1_555 1_555
C14A O6A 1_555 1_555
H13A C14A 1_555 1_555
H14A C14A 1_555 1_555
C4 C8 1_555 1_555
C6 C7 1_555 1_555
C10 C14 1_555 1_555
C12 C13 1_555 1_555
O2A C1A 1_555 1_555
O3A C2A 1_555 1_555
O4A C2A 1_555 1_555
C4A C8A 1_555 1_555
C6A C7A 1_555 1_555
C10A C14A 1_555 1_555
C12A C13A 1_555 1_555

#END
