
#######################################################################
#
#                 Cambridge Crystallographic Data Centre
#                                CCDC 
#
#######################################################################
#
# If this CIF has been generated from an entry in the Cambridge 
# Structural Database, then it will include bibliographic, chemical, 
# crystal, experimental, refinement or atomic coordinate data resulting 
# from the CCDC's data processing and validation procedures.
#
#######################################################################

data_XEYXOQ
_symmetry_cell_setting           monoclinic
_symmetry_space_group_name_H-M   'P 21/n'
_symmetry_Int_Tables_number      14
_space_group_name_Hall           '-P 2yn'
loop_
_symmetry_equiv_pos_site_id
_symmetry_equiv_pos_as_xyz
1 x,y,z
2 1/2-x,1/2+y,1/2-z
3 -x,-y,-z
4 1/2+x,1/2-y,1/2+z
_cell_length_a                   8.60680(10)
_cell_length_b                   22.6633(3)
_cell_length_c                   12.3365(2)
_cell_angle_alpha                90
_cell_angle_beta                 90.2430(10)
_cell_angle_gamma                90
_cell_volume                     2406.32
loop_
_atom_site_label
_atom_site_type_symbol
_atom_site_fract_x
_atom_site_fract_y
_atom_site_fract_z
Co1 Co 0.63069(4) 0.807997(16) 0.57258(3)
N1 N 0.8815(3) 0.80432(12) 0.5624(2)
N2 N 0.6645(2) 0.86738(10) 0.69967(18)
N3 N 0.6348(3) 0.74501(10) 0.7125(2)
N4 N 1.3903(3) 0.82316(11) 0.5700(2)
N5 N 0.6141(3) 0.75145(12) 0.4441(2)
N6 N 0.6579(2) 0.89249(10) 0.4950(2)
N7 N 1.1250(3) 0.85858(13) 0.5490(3)
N8 N 0.5986(4) 0.66181(15) 0.3378(3)
N9 N 0.7959(3) 0.58593(13) 0.3161(2)
C1 C 0.8693(4) 1.03845(15) 0.9210(3)
H1 H 0.9073 1.0633 0.9750
C2 C 0.4763(4) 0.73161(17) 0.7542(3)
H2 H 0.4221 0.7685 0.7666
H3 H 0.4863 0.7117 0.8235
C3 C 0.3780(5) 0.69336(17) 0.6789(4)
H4 H 0.2706 0.6966 0.6987
H5 H 0.4105 0.6530 0.6851
H6 H 0.3910 0.7064 0.6055
C4 C 0.7549(6) 0.64723(18) 0.7750(4)
H7 H 0.8132 0.6144 0.7475
H8 H 0.6585 0.6333 0.8044
H9 H 0.8138 0.6666 0.8309
C5 C 1.0000(3) 0.82669(14) 0.5579(3)
C6 C 0.6149(3) 0.70902(15) 0.3950(3)
C7 C 0.7035(3) 0.92029(12) 0.6787(2)
C8 C 0.6941(3) 0.93700(12) 0.5626(2)
C9 C 0.6446(3) 0.90432(14) 0.3896(3)
H10 H 0.6202 0.8735 0.3426
C10 C 1.2639(3) 0.83645(13) 0.5617(3)
C11 C 0.7582(3) 0.96351(12) 0.7614(2)
C12 C 0.7223(4) 0.69028(14) 0.6841(3)
H11 H 0.8209 0.7019 0.6529
H12 H 0.6643 0.6696 0.6282
C13 C 0.6701(4) 0.84147(13) 0.8077(2)
H13 H 0.5682 0.8432 0.8409
H14 H 0.7425 0.8631 0.8532
C14 C 0.7092(4) 0.62301(15) 0.3286(3)
C15 C 0.9113(3) 0.98267(14) 0.7590(3)
H15 H 0.9772 0.9705 0.7038
C16 C 0.7174(4) 0.99417(14) 0.5251(3)
H16 H 0.7431 1.0244 0.5728
C17 C 0.7224(4) 0.77750(14) 0.7968(3)
H17 H 0.8321 0.7767 0.7791
H18 H 0.7093 0.7577 0.8659
C18 C 0.6616(4) 0.98241(13) 0.8438(3)
H19 H 0.5589 0.9697 0.8459
C19 C 0.7013(4) 1.00511(16) 0.4149(3)
H20 H 0.7153 1.0430 0.3879
C20 C 0.9647(4) 1.01993(15) 0.8392(3)
H21 H 1.0673 1.0327 0.8377
C21 C 0.6650(4) 0.95975(16) 0.3467(3)
H22 H 0.6542 0.9662 0.2726
C22 C 0.7175(4) 1.02012(15) 0.9228(3)
H23 H 0.6518 1.0332 0.9775
Co1_2 Co 1.63069(4) 0.807997(16) 0.57258(3)
N4_2 N 0.3903(3) 0.82316(11) 0.5700(2)
loop_
_geom_bond_atom_site_label_1
_geom_bond_atom_site_label_2
_geom_bond_site_symmetry_1
_geom_bond_site_symmetry_2
Co1 N1 1_555 1_555
N1 C5 1_555 1_555
N2 Co1 1_555 1_555
N3 Co1 1_555 1_555
N4 C10 1_555 1_555
N5 Co1 1_555 1_555
N6 Co1 1_555 1_555
N7 C5 1_555 1_555
N8 C6 1_555 1_555
N9 C14 1_555 1_555
C1 H1 1_555 1_555
C2 N3 1_555 1_555
H2 C2 1_555 1_555
H3 C2 1_555 1_555
C3 C2 1_555 1_555
H4 C3 1_555 1_555
H5 C3 1_555 1_555
H6 C3 1_555 1_555
C4 H7 1_555 1_555
H8 C4 1_555 1_555
H9 C4 1_555 1_555
C6 N5 1_555 1_555
C7 N2 1_555 1_555
C8 N6 1_555 1_555
C9 N6 1_555 1_555
H10 C9 1_555 1_555
C10 N7 1_555 1_555
C11 C7 1_555 1_555
C12 N3 1_555 1_555
H11 C12 1_555 1_555
H12 C12 1_555 1_555
C13 N2 1_555 1_555
H13 C13 1_555 1_555
H14 C13 1_555 1_555
C14 N8 1_555 1_555
C15 C11 1_555 1_555
H15 C15 1_555 1_555
C16 C8 1_555 1_555
H16 C16 1_555 1_555
C17 N3 1_555 1_555
H17 C17 1_555 1_555
H18 C17 1_555 1_555
C18 C11 1_555 1_555
H19 C18 1_555 1_555
C19 C16 1_555 1_555
H20 C19 1_555 1_555
C20 C1 1_555 1_555
H21 C20 1_555 1_555
C21 C9 1_555 1_555
H22 C21 1_555 1_555
C22 C1 1_555 1_555
H23 C22 1_555 1_555
Co1_2 N4 1_555 1_555
N4_2 Co1 1_555 1_555
C4 C12 1_555 1_555
C7 C8 1_555 1_555
C13 C17 1_555 1_555
C15 C20 1_555 1_555
C18 C22 1_555 1_555
C19 C21 1_555 1_555

#END
