
#######################################################################
#
#                 Cambridge Crystallographic Data Centre
#                                CCDC 
#
#######################################################################
#
# If this CIF has been generated from an entry in the Cambridge 
# Structural Database, then it will include bibliographic, chemical, 
# crystal, experimental, refinement or atomic coordinate data resulting 
# from the CCDC's data processing and validation procedures.
#
#######################################################################

data_XEYXIK
_symmetry_cell_setting           monoclinic
_symmetry_space_group_name_H-M   'P 21/n'
_symmetry_Int_Tables_number      14
_space_group_name_Hall           '-P 2yn'
loop_
_symmetry_equiv_pos_site_id
_symmetry_equiv_pos_as_xyz
1 x,y,z
2 1/2-x,1/2+y,1/2-z
3 -x,-y,-z
4 1/2+x,1/2-y,1/2+z
_cell_length_a                   8.5418(2)
_cell_length_b                   22.6727(5)
_cell_length_c                   12.2714(3)
_cell_angle_alpha                90
_cell_angle_beta                 90.3050(10)
_cell_angle_gamma                90
_cell_volume                     2376.52
loop_
_atom_site_label
_atom_site_type_symbol
_atom_site_fract_x
_atom_site_fract_y
_atom_site_fract_z
Ni1 Ni 0.63772(4) 0.809855(18) 0.57508(3)
N1 N 0.8847(3) 0.80632(14) 0.5653(2)
N2 N 0.6677(3) 0.86715(12) 0.6999(2)
N3 N 0.6384(3) 0.74510(12) 0.7085(2)
N4 N 1.3993(3) 0.82367(13) 0.5724(2)
N5 N 0.6208(3) 0.75455(14) 0.4456(2)
N6 N 0.6615(3) 0.89118(12) 0.4937(2)
N7 N 1.1333(3) 0.85843(15) 0.5449(3)
N8 N 0.6039(4) 0.66584(17) 0.3351(3)
N9 N 0.7956(4) 0.58748(15) 0.3175(3)
C1 C 0.8674(5) 1.03881(18) 0.9223(3)
H1 H 0.9042 1.0642 0.9762
C2 C 0.4795(5) 0.7307(2) 0.7492(3)
H2 H 0.4241 0.7672 0.7634
H3 H 0.4898 0.7098 0.8178
C3 C 0.3814(5) 0.69326(19) 0.6710(4)
H4 H 0.2726 0.6971 0.6890
H5 H 0.4121 0.6527 0.6773
H6 H 0.3978 0.7065 0.5976
C4 C 0.7620(7) 0.6473(2) 0.7705(4)
H7 H 0.8204 0.6145 0.7425
H8 H 0.6645 0.6334 0.7996
H9 H 0.8213 0.6663 0.8271
C5 C 1.0042(4) 0.82750(17) 0.5578(3)
C6 C 0.6214(4) 0.71254(18) 0.3953(3)
C7 C 0.7056(4) 0.92022(15) 0.6783(3)
C8 C 0.6961(4) 0.93661(15) 0.5611(3)
C9 C 0.6474(4) 0.90260(18) 0.3872(3)
H10 H 0.6237 0.8717 0.3402
C10 C 1.2731(4) 0.83640(16) 0.5615(3)
C11 C 0.7593(4) 0.96369(16) 0.7607(3)
C12 C 0.7299(5) 0.69092(17) 0.6794(3)
H11 H 0.8296 0.7034 0.6497
H12 H 0.6739 0.6704 0.6218
C13 C 0.6726(4) 0.84029(16) 0.8081(3)
H13 H 0.5695 0.8415 0.8408
H14 H 0.7446 0.8618 0.8548
C14 C 0.7107(4) 0.62533(18) 0.3275(3)
C15 C 0.9109(4) 0.98354(16) 0.7594(3)
H15 H 0.9776 0.9718 0.7038
C16 C 0.7174(4) 0.99328(17) 0.5231(3)
H16 H 0.7419 1.0239 0.5707
C17 C 0.7263(5) 0.77668(16) 0.7961(3)
H17 H 0.8372 0.7761 0.7794
H18 H 0.7117 0.7562 0.8647
C18 C 0.6603(4) 0.98179(16) 0.8448(3)
H19 H 0.5573 0.9685 0.8469
C19 C 0.7012(5) 1.00356(19) 0.4120(3)
H20 H 0.7142 1.0414 0.3844
C20 C 0.9651(5) 1.02073(17) 0.8401(3)
H21 H 1.0683 1.0337 0.8389
C21 C 0.6666(5) 0.9583(2) 0.3442(3)
H22 H 0.6558 0.9646 0.2696
C22 C 0.7158(5) 1.01931(18) 0.9245(3)
H23 H 0.6497 1.0315 0.9802
Ni1_2 Ni 1.63772(4) 0.809855(18) 0.57508(3)
N4_2 N 0.3993(3) 0.82367(13) 0.5724(2)
loop_
_geom_bond_atom_site_label_1
_geom_bond_atom_site_label_2
_geom_bond_site_symmetry_1
_geom_bond_site_symmetry_2
Ni1 N1 1_555 1_555
N1 C5 1_555 1_555
N2 Ni1 1_555 1_555
N3 Ni1 1_555 1_555
N4 C10 1_555 1_555
N5 Ni1 1_555 1_555
N6 Ni1 1_555 1_555
N7 C5 1_555 1_555
N8 C6 1_555 1_555
N9 C14 1_555 1_555
C1 H1 1_555 1_555
C2 N3 1_555 1_555
H2 C2 1_555 1_555
H3 C2 1_555 1_555
C3 C2 1_555 1_555
H4 C3 1_555 1_555
H5 C3 1_555 1_555
H6 C3 1_555 1_555
C4 H7 1_555 1_555
H8 C4 1_555 1_555
H9 C4 1_555 1_555
C6 N5 1_555 1_555
C7 N2 1_555 1_555
C8 N6 1_555 1_555
C9 N6 1_555 1_555
H10 C9 1_555 1_555
C10 N7 1_555 1_555
C11 C7 1_555 1_555
C12 N3 1_555 1_555
H11 C12 1_555 1_555
H12 C12 1_555 1_555
C13 N2 1_555 1_555
H13 C13 1_555 1_555
H14 C13 1_555 1_555
C14 N8 1_555 1_555
C15 C11 1_555 1_555
H15 C15 1_555 1_555
C16 C8 1_555 1_555
H16 C16 1_555 1_555
C17 N3 1_555 1_555
H17 C17 1_555 1_555
H18 C17 1_555 1_555
C18 C11 1_555 1_555
H19 C18 1_555 1_555
C19 C16 1_555 1_555
H20 C19 1_555 1_555
C20 C1 1_555 1_555
H21 C20 1_555 1_555
C21 C9 1_555 1_555
H22 C21 1_555 1_555
C22 C1 1_555 1_555
H23 C22 1_555 1_555
Ni1_2 N4 1_555 1_555
N4_2 Ni1 1_555 1_555
C4 C12 1_555 1_555
C7 C8 1_555 1_555
C13 C17 1_555 1_555
C15 C20 1_555 1_555
C18 C22 1_555 1_555
C19 C21 1_555 1_555

#END
