
#######################################################################
#
#                 Cambridge Crystallographic Data Centre
#                                CCDC 
#
#######################################################################
#
# If this CIF has been generated from an entry in the Cambridge 
# Structural Database, then it will include bibliographic, chemical, 
# crystal, experimental, refinement or atomic coordinate data resulting 
# from the CCDC's data processing and validation procedures.
#
#######################################################################

data_XEYYEH
_symmetry_cell_setting           triclinic
_symmetry_space_group_name_H-M   'P -1'
_symmetry_Int_Tables_number      2
_space_group_name_Hall           '-P 1'
loop_
_symmetry_equiv_pos_site_id
_symmetry_equiv_pos_as_xyz
1 x,y,z
2 -x,-y,-z
_cell_length_a                   7.8605(7)
_cell_length_b                   13.9577(12)
_cell_length_c                   14.0045(12)
_cell_angle_alpha                105.913(1)
_cell_angle_beta                 94.121(1)
_cell_angle_gamma                99.215(1)
_cell_volume                     1447.66
loop_
_atom_site_label
_atom_site_type_symbol
_atom_site_fract_x
_atom_site_fract_y
_atom_site_fract_z
Zn1 Zn 0.15725(5) 0.39976(3) 0.95514(3)
Zn2 Zn -0.46781(4) -0.42908(2) 0.60531(3)
O1 O 0.2950(3) 0.50046(19) 0.88301(19)
H1 H 0.315(5) 0.492(3) 0.8234(15)
H2 H 0.383(4) 0.538(3) 0.923(2)
O2 O -0.6078(3) -0.51391(16) 0.68474(17)
O3 O -0.6349(3) -0.61111(16) 0.52816(16)
O4 O -1.3082(3) -0.60112(16) 0.44959(16)
O5 O -1.2660(3) -0.50032(16) 0.60761(16)
O6 O -0.1756(7) 0.4763(2) 0.9317(3)
O7 O -0.0508(3) 0.35453(18) 0.84848(18)
O8 O -0.5869(3) 0.36912(18) 1.00550(18)
O9 O -0.7396(3) 0.26648(19) 0.86952(19)
O10 O -0.2870(4) -0.0110(2) 1.0487(2)
N1 N 0.0240(3) 0.3102(2) 1.0451(2)
N2 N -0.1869(4) -0.0009(2) 0.9034(2)
H3 H -0.126(5) 0.041(2) 0.877(3)
N3 N -0.3761(3) -0.29152(19) 0.70723(19)
C1 C 0.0005(6) 0.3486(3) 1.1403(3)
H4 H 0.0469 0.4181 1.1727
C2 C -0.0875(9) 0.2923(3) 1.1937(3)
H5 H -0.1011 0.3225 1.2616
C3 C -0.1561(7) 0.1915(3) 1.1478(3)
H6 H -0.2177 0.1514 1.1837
C4 C -0.1343(5) 0.1490(2) 1.0487(2)
C5 C -0.0418(4) 0.2118(2) 1.0017(2)
H7 H -0.0238 0.1832 0.9342
C6 C -0.2107(5) 0.0390(2) 1.0008(2)
C7 C -0.2535(4) -0.0995(2) 0.8419(2)
C8 C -0.2243(9) -0.1228(3) 0.7445(4)
H8 H -0.1601 -0.0724 0.7205
C9 C -0.2855(8) -0.2174(3) 0.6804(3)
H9 H -0.2614 -0.2305 0.6130
C10 C -0.4039(7) -0.2686(3) 0.8014(3)
H10 H -0.4698 -0.3199 0.8235
C11 C -0.3445(7) -0.1756(3) 0.8703(3)
H11 H -0.3673 -0.1648 0.9378
C12 C -0.6688(4) -0.5961(2) 0.6158(2)
C13 C -0.7848(4) -0.6800(2) 0.6443(2)
H12 H -0.7109 -0.7205 0.6704
H13 H -0.8506 -0.6488 0.6986
C14 C -0.9111(4) -0.7494(2) 0.5576(2)
C15 C -0.8914(4) -0.8495(2) 0.5195(3)
H14 H -0.8020 -0.8734 0.5502
C16 C -0.9999(5) -0.9148(2) 0.4374(3)
H15 H -0.9848 -0.9829 0.4119
C17 C -1.1298(4) -0.8802(2) 0.3933(2)
H16 H -1.2042 -0.9245 0.3366
C18 C -1.1528(4) -0.7809(2) 0.4310(2)
H17 H -1.2435 -0.7579 0.4001
C19 C -1.0445(4) -0.7143(2) 0.5138(2)
C20 C -1.0623(4) -0.6045(2) 0.5599(3)
H18 H -1.0427 -0.5907 0.6335
H19 H -0.9655 -0.5612 0.5414
C21 C -1.2274(4) -0.5676(2) 0.5364(2)
C22 C -0.1764(5) 0.3999(2) 0.8625(3)
C23 C -0.3378(5) 0.3599(3) 0.7882(3)
H20 H -0.4374 0.3828 0.8212
H21 H -0.3241 0.3902 0.7323
C24 C -0.3796(4) 0.2468(3) 0.7459(3)
C25 C -0.3553(5) 0.2014(5) 0.6479(3)
H22 H -0.3155 0.2427 0.6072
C26 C -0.3879(6) 0.0969(5) 0.6081(4)
H23 H -0.3670 0.0670 0.5415
C27 C -0.4496(6) 0.0375(4) 0.6647(4)
H24 H -0.4750 -0.0342 0.6369
C28 C -0.4763(5) 0.0812(3) 0.7640(3)
H25 H -0.5203 0.0392 0.8031
C29 C -0.4386(4) 0.1856(3) 0.8051(3)
C30 C -0.4606(4) 0.2316(2) 0.9130(2)
H26 H -0.3498 0.2762 0.9474
H27 H -0.4840 0.1764 0.9448
C31 C -0.6043(4) 0.2926(2) 0.9297(2)
Zn1_2 Zn -0.84275(5) 0.39976(3) 0.95514(3)
Zn1A Zn -0.15725(5) 0.60024(3) 1.04486(3)
Zn2_2 Zn -1.46781(4) -0.42908(2) 0.60531(3)
Zn2A Zn -1.53219(4) -0.57092(2) 0.39469(3)
Zn2A_2 Zn -0.53219(4) -0.57092(2) 0.39469(3)
O3A O -0.3651(3) -0.38889(16) 0.47184(16)
O4A O -0.6918(3) -0.39888(16) 0.55041(16)
O5_2 O -0.2660(3) -0.50032(16) 0.60761(16)
O6A O 0.1756(7) 0.5237(2) 1.0683(3)
O8_2 O 0.4131(3) 0.36912(18) 1.00550(18)
O9_2 O 0.2604(3) 0.26648(19) 0.86952(19)
O11 O -1.0144(4) 0.1110(2) 0.7659(2)
H28 H -0.920(4) 0.155(3) 0.782(4)
H29 H -0.989(6) 0.063(3) 0.784(4)
loop_
_geom_bond_atom_site_label_1
_geom_bond_atom_site_label_2
_geom_bond_site_symmetry_1
_geom_bond_site_symmetry_2
Zn1 O1 1_555 1_555
Zn2 O2 1_555 1_555
O1 H1 1_555 1_555
H2 O1 1_555 1_555
O2 C12 1_555 1_555
O3 Zn2 1_555 1_555
O4 C21 1_555 1_555
O5 C21 1_555 1_555
O6 C22 1_555 1_555
O7 Zn1 1_555 1_555
O8 C31 1_555 1_555
O9 C31 1_555 1_555
O10 C6 1_555 1_555
N1 Zn1 1_555 1_555
N2 H3 1_555 1_555
N3 Zn2 1_555 1_555
C1 N1 1_555 1_555
H4 C1 1_555 1_555
C2 C1 1_555 1_555
H5 C2 1_555 1_555
C3 C2 1_555 1_555
H6 C3 1_555 1_555
C4 C3 1_555 1_555
C5 N1 1_555 1_555
H7 C5 1_555 1_555
C6 N2 1_555 1_555
C7 N2 1_555 1_555
C8 C7 1_555 1_555
H8 C8 1_555 1_555
C9 N3 1_555 1_555
H9 C9 1_555 1_555
C10 N3 1_555 1_555
H10 C10 1_555 1_555
C11 C7 1_555 1_555
H11 C11 1_555 1_555
C12 O3 1_555 1_555
C13 C12 1_555 1_555
H12 C13 1_555 1_555
H13 C13 1_555 1_555
C14 C13 1_555 1_555
C15 C14 1_555 1_555
H14 C15 1_555 1_555
C16 C15 1_555 1_555
H15 C16 1_555 1_555
C17 C16 1_555 1_555
H16 C17 1_555 1_555
C18 C17 1_555 1_555
H17 C18 1_555 1_555
C19 C14 1_555 1_555
C20 C19 1_555 1_555
H18 C20 1_555 1_555
H19 C20 1_555 1_555
C21 C20 1_555 1_555
C22 O7 1_555 1_555
C23 C22 1_555 1_555
H20 C23 1_555 1_555
H21 C23 1_555 1_555
C24 C23 1_555 1_555
C25 C24 1_555 1_555
H22 C25 1_555 1_555
C26 C25 1_555 1_555
H23 C26 1_555 1_555
C27 C26 1_555 1_555
H24 C27 1_555 1_555
C28 C27 1_555 1_555
H25 C28 1_555 1_555
C29 C24 1_555 1_555
C30 C29 1_555 1_555
H26 C30 1_555 1_555
H27 C30 1_555 1_555
C31 C30 1_555 1_555
O11 H28 1_555 1_555
H29 O11 1_555 1_555
Zn1_2 O8 1_555 1_555
Zn1A O6 1_555 1_555
Zn2_2 O5 1_555 1_555
Zn2A O4 1_555 1_555
Zn2A_2 O3 1_555 1_555
O3A Zn2 1_555 1_555
O4A Zn2 1_555 1_555
O5_2 Zn2 1_555 1_555
O6A Zn1 1_555 1_555
O8_2 Zn1 1_555 1_555
O9_2 Zn1 1_555 1_555
O9 Zn1_2 1_555 1_555
C4 C5 1_555 1_555
C4 C6 1_555 1_555
C8 C9 1_555 1_555
C10 C11 1_555 1_555
C18 C19 1_555 1_555
C28 C29 1_555 1_555
Zn2A_2 O3A 1_555 1_555

#END
