
#######################################################################
#
#                 Cambridge Crystallographic Data Centre
#                                CCDC 
#
#######################################################################
#
# If this CIF has been generated from an entry in the Cambridge 
# Structural Database, then it will include bibliographic, chemical, 
# crystal, experimental, refinement or atomic coordinate data resulting 
# from the CCDC's data processing and validation procedures.
#
#######################################################################

data_XEYYOR
_symmetry_cell_setting           triclinic
_symmetry_space_group_name_H-M   'P -1'
_symmetry_Int_Tables_number      2
_space_group_name_Hall           '-P 1'
loop_
_symmetry_equiv_pos_site_id
_symmetry_equiv_pos_as_xyz
1 x,y,z
2 -x,-y,-z
_cell_length_a                   10.1138(18)
_cell_length_b                   10.4705(19)
_cell_length_c                   10.5267(19)
_cell_angle_alpha                64.777(2)
_cell_angle_beta                 63.518(2)
_cell_angle_gamma                70.775(2)
_cell_volume                     889.196
loop_
_atom_site_label
_atom_site_type_symbol
_atom_site_fract_x
_atom_site_fract_y
_atom_site_fract_z
Cd1 Cd 0.258248(13) 0.397918(12) 0.059175(13)
O1 O -0.40153(15) 0.50432(15) 0.19808(15)
O2 O -0.25052(15) 0.84079(14) 0.43063(14)
O3 O 0.14505(14) 0.22647(13) 0.04614(14)
O4 O -0.16732(15) 0.40483(14) 0.10591(14)
O5 O 0.07713(14) 0.27588(14) 0.25319(14)
N1 N -0.19907(16) 0.89046(16) 0.18183(16)
H1 H -0.150(2) 0.855(2) 0.110(2)
N2 N 0.17992(16) 0.54967(15) 0.19954(17)
N3 N -0.53273(16) 1.24701(15) 0.09802(16)
C1 C 0.04989(19) 0.64084(18) 0.2018(2)
H2 H 0.0083 0.6558 0.1304
C2 C -0.4453(2) 0.2264(2) 0.6328(2)
H3 H -0.5297 0.2451 0.7160
C3 C -0.5190(2) 1.18779(19) 0.2335(2)
H4 H -0.5882 1.2277 0.3098
C4 C -0.4314(2) 1.1905(2) -0.0085(2)
H5 H -0.4361 1.2329 -0.1065
C5 C -0.3035(2) 0.29590(18) 0.3650(2)
C6 C -0.02569(19) 0.71373(17) 0.30472(19)
C7 C -0.4282(2) 0.3201(2) 0.4881(2)
H6 H -0.5028 0.4025 0.4723
C8 C -0.3212(2) 1.0742(2) 0.0169(2)
H7 H -0.2526 1.0376 -0.0621
C9 C -0.06518(19) 0.13015(18) 0.2581(2)
H8 H -0.1034 0.1391 0.1824
H9 H -0.0218 0.0281 0.2970
C10 C 0.1698(2) 0.59875(19) 0.4059(2)
H10 H 0.2144 0.5823 0.4753
C11 C 0.2395(2) 0.53219(19) 0.2984(2)
H11 H 0.3338 0.4714 0.2941
C12 C 0.0345(2) 0.68944(19) 0.4112(2)
H12 H -0.0169 0.7347 0.4858
C13 C -0.17025(19) 0.81810(18) 0.31297(19)
C14 C -0.19578(19) 0.17078(18) 0.3862(2)
C15 C -0.4110(2) 1.07282(19) 0.2685(2)
H13 H -0.4049 1.0367 0.3656
C16 C -0.3377(2) 0.1051(2) 0.6546(2)
H14 H -0.3471 0.0408 0.7535
C17 C 0.05929(19) 0.21851(18) 0.17997(19)
C18 C -0.31090(19) 1.01025(18) 0.15970(19)
C19 C -0.2162(2) 0.07703(19) 0.5327(2)
H15 H -0.1450 -0.0083 0.5493
C20 C -0.2902(2) 0.40823(18) 0.2134(2)
Cd1_2 Cd -0.741752(13) 1.397918(12) 0.059175(13)
Cd1A Cd -0.258248(13) 0.602082(12) -0.059175(13)
O1A O 0.40153(15) 0.49568(15) -0.19808(15)
O4A O 0.16732(15) 0.59517(14) -0.10591(14)
N3_2 N 0.46727(16) 0.24701(15) 0.09802(16)
loop_
_geom_bond_atom_site_label_1
_geom_bond_atom_site_label_2
_geom_bond_site_symmetry_1
_geom_bond_site_symmetry_2
Cd1 O3 1_555 1_555
O1 C20 1_555 1_555
O2 C13 1_555 1_555
O3 C17 1_555 1_555
O4 C20 1_555 1_555
O5 Cd1 1_555 1_555
N1 H1 1_555 1_555
N2 Cd1 1_555 1_555
N3 C3 1_555 1_555
C1 N2 1_555 1_555
H2 C1 1_555 1_555
C2 H3 1_555 1_555
C3 H4 1_555 1_555
C4 N3 1_555 1_555
H5 C4 1_555 1_555
C5 C7 1_555 1_555
C6 C1 1_555 1_555
C7 C2 1_555 1_555
H6 C7 1_555 1_555
C8 C4 1_555 1_555
H7 C8 1_555 1_555
C9 H8 1_555 1_555
H9 C9 1_555 1_555
C10 H10 1_555 1_555
C11 N2 1_555 1_555
H11 C11 1_555 1_555
C12 C6 1_555 1_555
H12 C12 1_555 1_555
C13 N1 1_555 1_555
C14 C5 1_555 1_555
C15 C3 1_555 1_555
H13 C15 1_555 1_555
C16 C2 1_555 1_555
H14 C16 1_555 1_555
C17 O5 1_555 1_555
C18 N1 1_555 1_555
C19 C14 1_555 1_555
H15 C19 1_555 1_555
C20 C5 1_555 1_555
Cd1_2 N3 1_555 1_555
Cd1A O1 1_555 1_555
O1A Cd1 1_555 1_555
O4A Cd1 1_555 1_555
N3_2 Cd1 1_555 1_555
O4 Cd1A 1_555 1_555
C6 C13 1_555 1_555
C8 C18 1_555 1_555
C9 C14 1_555 1_555
C9 C17 1_555 1_555
C10 C11 1_555 1_555
C10 C12 1_555 1_555
C15 C18 1_555 1_555
C16 C19 1_555 1_555

#END
