
#######################################################################
#
#                 Cambridge Crystallographic Data Centre
#                                CCDC 
#
#######################################################################
#
# If this CIF has been generated from an entry in the Cambridge 
# Structural Database, then it will include bibliographic, chemical, 
# crystal, experimental, refinement or atomic coordinate data resulting 
# from the CCDC's data processing and validation procedures.
#
#######################################################################

data_XEYYAD
_symmetry_cell_setting           monoclinic
_symmetry_space_group_name_H-M   'P 21/c'
_symmetry_Int_Tables_number      14
_space_group_name_Hall           '-P 2ybc'
loop_
_symmetry_equiv_pos_site_id
_symmetry_equiv_pos_as_xyz
1 x,y,z
2 -x,1/2+y,1/2-z
3 -x,-y,-z
4 x,1/2-y,1/2+z
_cell_length_a                   9.985(12)
_cell_length_b                   11.527(13)
_cell_length_c                   16.243(19)
_cell_angle_alpha                90
_cell_angle_beta                 100.618(15)
_cell_angle_gamma                90
_cell_volume                     1837.51
loop_
_atom_site_label
_atom_site_type_symbol
_atom_site_fract_x
_atom_site_fract_y
_atom_site_fract_z
Zn1 Zn 0.42574(5) 0.69380(4) 0.05195(3)
O1 O 0.5649(4) 0.7219(3) 0.2268(2)
O2 O 0.6006(3) 0.6357(3) 0.1104(2)
O3 O 0.5513(3) 0.3388(3) 0.06378(19)
O4 O 0.7751(3) 0.3185(3) 0.1017(2)
O5 O 0.0682(3) 0.2275(3) 0.0062(2)
N1 N 0.2759(4) 0.5879(3) 0.0785(2)
N2 N 0.2943(4) 0.2180(3) 0.0648(2)
H1 H 0.366(3) 0.251(4) 0.096(2)
N3 N 0.3776(4) -0.1378(3) 0.0620(2)
C1 C 0.6312(5) 0.6573(4) 0.1897(3)
C2 C 0.7582(5) 0.5985(4) 0.2349(3)
C3 C 0.7697(5) 0.4779(4) 0.2387(3)
C4 C 0.8924(5) 0.4295(4) 0.2793(3)
H2 H 0.9018 0.3475 0.2824
C5 C 1.0001(5) 0.4986(5) 0.3150(3)
H3 H 1.0834 0.4639 0.3412
C6 C 0.9878(5) 0.6181(5) 0.3131(3)
H4 H 1.0614 0.6657 0.3390
C7 C 0.8673(5) 0.6675(4) 0.2730(3)
H5 H 0.8583 0.7496 0.2713
C8 C 0.6515(5) 0.3997(4) 0.2017(3)
H6 H 0.5656 0.4445 0.1957
H7 H 0.6458 0.3350 0.2410
C9 C 0.6643(5) 0.3498(4) 0.1168(3)
C10 C 0.1670(5) 0.6275(4) 0.1081(3)
H8 H 0.1651 0.7070 0.1234
C11 C 0.0587(5) 0.5585(4) 0.1172(3)
H9 H -0.0160 0.5898 0.1385
C12 C 0.0597(5) 0.4432(4) 0.0949(3)
H10 H -0.0151 0.3942 0.0995
C13 C 0.1721(4) 0.3997(4) 0.0656(3)
C14 C 0.2776(5) 0.4752(4) 0.0584(3)
H11 H 0.3545 0.4456 0.0384
C15 C 0.1716(5) 0.2744(4) 0.0412(3)
C16 C 0.3179(4) 0.0991(4) 0.0628(3)
C17 C 0.2218(5) 0.0195(4) 0.0226(3)
H12 H 0.1342 0.0445 -0.0047
C18 C 0.2571(5) -0.0959(4) 0.0237(3)
H13 H 0.1919 -0.1493 -0.0045
C19 C 0.4693(5) -0.0598(4) 0.1019(3)
H14 H 0.5550 -0.0875 0.1304
C20 C 0.4439(4) 0.0567(4) 0.1028(3)
H15 H 0.5116 0.1084 0.1305
Zn1_2 Zn 0.42574(5) -0.30620(4) 0.05195(3)
Zn1B Zn 0.57426(5) 0.30620(4) -0.05195(3)
O3B O 0.4487(3) 0.6612(3) -0.06378(19)
N3_2 N 0.3776(4) 0.8622(3) 0.0620(2)
loop_
_geom_bond_atom_site_label_1
_geom_bond_atom_site_label_2
_geom_bond_site_symmetry_1
_geom_bond_site_symmetry_2
Zn1 O2 1_555 1_555
O1 C1 1_555 1_555
O2 C1 1_555 1_555
O3 C9 1_555 1_555
O4 C9 1_555 1_555
O5 C15 1_555 1_555
N1 Zn1 1_555 1_555
N2 H1 1_555 1_555
N3 C18 1_555 1_555
C1 C2 1_555 1_555
C2 C3 1_555 1_555
C3 C4 1_555 1_555
C4 H2 1_555 1_555
C5 C4 1_555 1_555
H3 C5 1_555 1_555
C6 C5 1_555 1_555
H4 C6 1_555 1_555
C7 C2 1_555 1_555
H5 C7 1_555 1_555
C8 C3 1_555 1_555
H6 C8 1_555 1_555
H7 C8 1_555 1_555
C9 C8 1_555 1_555
C10 N1 1_555 1_555
H8 C10 1_555 1_555
C11 C10 1_555 1_555
H9 C11 1_555 1_555
C12 C11 1_555 1_555
H10 C12 1_555 1_555
C13 C12 1_555 1_555
C14 N1 1_555 1_555
H11 C14 1_555 1_555
C15 N2 1_555 1_555
C16 N2 1_555 1_555
C17 C16 1_555 1_555
H12 C17 1_555 1_555
C18 C17 1_555 1_555
H13 C18 1_555 1_555
C19 N3 1_555 1_555
H14 C19 1_555 1_555
C20 C16 1_555 1_555
H15 C20 1_555 1_555
Zn1_2 N3 1_555 1_555
Zn1B O3 1_555 1_555
O3B Zn1 1_555 1_555
N3_2 Zn1 1_555 1_555
C6 C7 1_555 1_555
C13 C14 1_555 1_555
C13 C15 1_555 1_555
C19 C20 1_555 1_555

#END
