
#######################################################################
#
#                 Cambridge Crystallographic Data Centre
#                                CCDC 
#
#######################################################################
#
# If this CIF has been generated from an entry in the Cambridge 
# Structural Database, then it will include bibliographic, chemical, 
# crystal, experimental, refinement or atomic coordinate data resulting 
# from the CCDC's data processing and validation procedures.
#
#######################################################################

data_XEYYUV
_symmetry_cell_setting           orthorhombic
_symmetry_space_group_name_H-M   'P b c n'
_symmetry_Int_Tables_number      60
_space_group_name_Hall           '-P 2n 2ab'
loop_
_symmetry_equiv_pos_site_id
_symmetry_equiv_pos_as_xyz
1 x,y,z
2 1/2+x,1/2+y,1/2-z
3 x,-y,1/2+z
4 1/2-x,1/2+y,z
5 -x,-y,-z
6 1/2-x,1/2-y,1/2+z
7 -x,y,1/2-z
8 1/2+x,1/2-y,-z
_cell_length_a                   13.164(3)
_cell_length_b                   9.649(2)
_cell_length_c                   6.6860(10)
_cell_angle_alpha                90
_cell_angle_beta                 90
_cell_angle_gamma                90
_cell_volume                     849.252
loop_
_atom_site_label
_atom_site_type_symbol
_atom_site_fract_x
_atom_site_fract_y
_atom_site_fract_z
K1 K 0.29845(3) 0.65414(3) 0.14770(6)
O1 O 0.5000 0.74264(16) 0.2500
C1 C 0.5000 0.8720(2) 0.2500
C2 C 0.41157(12) 0.96142(14) 0.2904(2)
O2 O 0.32378(9) 0.92178(12) 0.32603(18)
C3 C 0.44637(11) 1.10642(15) 0.2793(2)
O3 O 0.39176(9) 1.21006(11) 0.31287(18)
O4 O 0.40010(12) 0.42878(14) 0.0421(2)
H1 H 0.399(3) 0.369(3) 0.135(5)
H2 H 0.437(3) 0.405(3) -0.018(5)
C3F C 0.55363(11) 1.10642(15) 0.2207(2)
C2F C 0.58843(12) 0.96142(14) 0.2096(2)
O2F O 0.67622(9) 0.92178(12) 0.17397(18)
O3F O 0.60824(9) 1.21006(11) 0.18713(18)
K1F K 0.70155(3) 0.65414(3) 0.35230(6)
O4F O 0.59990(12) 0.42878(14) 0.4579(2)
H1F H 0.601(3) 0.369(3) 0.365(5)
H2F H 0.563(3) 0.405(3) 0.518(5)
O2C O 0.17622(9) 0.42178(12) 0.32603(18)
O2E O 0.17622(9) 0.57822(12) -0.17397(18)
O3B O 0.39176(9) 0.78994(11) -0.18713(18)
O3C O 0.10824(9) 0.71006(11) 0.31287(18)
K1C K 0.20155(3) 1.15414(3) 0.14770(6)
K1E K 0.20155(3) 0.84586(3) 0.64770(6)
K1B K 0.29845(3) 1.34586(3) 0.64770(6)
K1A K 0.79845(3) 1.15414(3) 0.35230(6)
K1G K 0.79845(3) 0.84586(3) -0.14770(6)
K1D K 0.70155(3) 1.34586(3) -0.14770(6)
O2A O 0.82378(9) 0.42178(12) 0.17397(18)
O2G O 0.82378(9) 0.57822(12) 0.67397(18)
O3A O 0.89176(9) 0.71006(11) 0.18713(18)
O3D O 0.60824(9) 0.78994(11) 0.68713(18)
loop_
_geom_bond_atom_site_label_1
_geom_bond_atom_site_label_2
_geom_bond_site_symmetry_1
_geom_bond_site_symmetry_2
K1 O1 1_555 1_555
O1 C1 1_555 1_555
C1 C2 1_555 1_555
C2 O2 1_555 1_555
O2 K1 1_555 1_555
C3 C2 1_555 1_555
O3 C3 1_555 1_555
O4 K1 1_555 1_555
H1 O4 1_555 1_555
H2 O4 1_555 1_555
C3F C3 1_555 1_555
C2F C1 1_555 1_555
O2F C2F 1_555 1_555
O3F C3F 1_555 1_555
K1F O1 1_555 1_555
O4F K1F 1_555 1_555
H1F O4F 1_555 1_555
H2F O4F 1_555 1_555
O2C K1 1_555 1_555
O2E K1 1_555 1_555
O3B K1 1_555 1_555
O3C K1 1_555 1_555
K1C O2 1_555 1_555
K1E O2 1_555 1_555
K1B O3 1_555 1_555
K1A O2F 1_555 1_555
K1G O2F 1_555 1_555
K1D O3F 1_555 1_555
O2A K1F 1_555 1_555
O2G K1F 1_555 1_555
O3A K1F 1_555 1_555
O3D K1F 1_555 1_555
O3 K1C 1_555 1_555
C3F C2F 1_555 1_555
O2F K1F 1_555 1_555
O3F K1A 1_555 1_555
O3C K1E 1_555 1_555
K1G O3A 1_555 1_555

#END
