
#######################################################################
#
#                 Cambridge Crystallographic Data Centre
#                                CCDC 
#
#######################################################################
#
# If this CIF has been generated from an entry in the Cambridge 
# Structural Database, then it will include bibliographic, chemical, 
# crystal, experimental, refinement or atomic coordinate data resulting 
# from the CCDC's data processing and validation procedures.
#
#######################################################################

data_XEYYIL
_symmetry_cell_setting           monoclinic
_symmetry_space_group_name_H-M   'P 21/c'
_symmetry_Int_Tables_number      14
_space_group_name_Hall           '-P 2ybc'
loop_
_symmetry_equiv_pos_site_id
_symmetry_equiv_pos_as_xyz
1 x,y,z
2 -x,1/2+y,1/2-z
3 -x,-y,-z
4 x,1/2-y,1/2+z
_cell_length_a                   8.0342(12)
_cell_length_b                   20.173(3)
_cell_length_c                   10.1252(15)
_cell_angle_alpha                90
_cell_angle_beta                 103.768(3)
_cell_angle_gamma                90
_cell_volume                     1593.88
loop_
_atom_site_label
_atom_site_type_symbol
_atom_site_fract_x
_atom_site_fract_y
_atom_site_fract_z
Cd1 Cd 0.15687(3) 0.520979(12) 0.29221(2)
O1 O 0.4339(3) 0.57914(11) 0.4553(2)
O2 O 0.9255(2) 0.45461(11) 0.1391(2)
O3 O 0.2168(3) 0.44381(12) 0.4646(2)
H1 H 0.323(2) 0.4363(16) 0.492(3)
H2 H 0.185(4) 0.4574(16) 0.532(2)
O4 O 0.1673(3) 0.60770(11) 0.4371(2)
O5 O 0.8668(3) 0.51933(11) 0.2968(2)
O6 O 0.1207(3) 0.59626(12) 0.1183(2)
H3 H 0.109(4) 0.5782(15) 0.044(2)
H4 H 0.060(4) 0.6298(12) 0.111(3)
O7 O -0.0351(3) 0.70746(13) 0.4017(3)
H5 H 0.023(4) 0.6696(12) 0.406(4)
O8 O -0.0703(3) 0.78773(12) 0.5387(3)
N1 N 0.3520(3) 0.46856(12) 0.1949(2)
C1 C 0.3062(4) 0.41522(16) 0.1166(3)
H6 H 0.1910 0.4003 0.1009
C2 C 0.4168(4) 0.38083(17) 0.0577(3)
H7 H 0.3782 0.3435 0.0016
C3 C 0.5854(4) 0.40141(16) 0.0813(3)
H8 H 0.6645 0.3787 0.0411
C4 C 0.6371(4) 0.45570(15) 0.1644(3)
C5 C 0.3269(4) 0.61585(16) 0.4888(3)
C6 C 0.3839(4) 0.67183(16) 0.5867(3)
C7 C 0.5157(4) 0.48828(16) 0.2174(3)
H9 H 0.5501 0.5264 0.2723
C8 C -0.0144(4) 0.73303(17) 0.5243(3)
C9 C 0.5553(4) 0.69087(16) 0.6107(3)
H10 H 0.6300 0.6668 0.5684
C10 C 0.0868(4) 0.69206(17) 0.6407(3)
H11 H 0.0633 0.6443 0.6225
H12 H 0.0537 0.7038 0.7260
C11 C 0.6195(4) 0.74358(17) 0.6940(3)
H13 H 0.7365 0.7559 0.7077
C12 C 0.3446(4) 0.75884(17) 0.7391(3)
H14 H 0.2733 0.7821 0.7859
C13 C 0.5130(4) 0.77801(17) 0.7569(3)
H15 H 0.5554 0.8151 0.8128
C14 C 0.2763(4) 0.70646(16) 0.6545(3)
C15 C 0.8215(4) 0.47805(16) 0.2018(3)
Cd1_2 Cd 1.15687(3) 0.520979(12) 0.29221(2)
O2_2 O -0.0745(2) 0.45461(11) 0.1391(2)
O5_2 O -0.1332(3) 0.51933(11) 0.2968(2)
loop_
_geom_bond_atom_site_label_1
_geom_bond_atom_site_label_2
_geom_bond_site_symmetry_1
_geom_bond_site_symmetry_2
Cd1 O1 1_555 1_555
O1 C5 1_555 1_555
O2 C15 1_555 1_555
O3 Cd1 1_555 1_555
H1 O3 1_555 1_555
H2 O3 1_555 1_555
O4 Cd1 1_555 1_555
O5 C15 1_555 1_555
O6 Cd1 1_555 1_555
H3 O6 1_555 1_555
H4 O6 1_555 1_555
O7 H5 1_555 1_555
O8 C8 1_555 1_555
N1 Cd1 1_555 1_555
C1 N1 1_555 1_555
H6 C1 1_555 1_555
C2 C1 1_555 1_555
H7 C2 1_555 1_555
C3 C2 1_555 1_555
H8 C3 1_555 1_555
C4 C3 1_555 1_555
C5 O4 1_555 1_555
C6 C5 1_555 1_555
C7 N1 1_555 1_555
H9 C7 1_555 1_555
C8 O7 1_555 1_555
C9 C6 1_555 1_555
H10 C9 1_555 1_555
C10 C8 1_555 1_555
H11 C10 1_555 1_555
H12 C10 1_555 1_555
C11 C9 1_555 1_555
H13 C11 1_555 1_555
C12 H14 1_555 1_555
C13 C11 1_555 1_555
H15 C13 1_555 1_555
C14 C6 1_555 1_555
C15 C4 1_555 1_555
Cd1_2 O2 1_555 1_555
O2_2 Cd1 1_555 1_555
O5_2 Cd1 1_555 1_555
O5 Cd1_2 1_555 1_555
C4 C7 1_555 1_555
C10 C14 1_555 1_555
C12 C13 1_555 1_555
C12 C14 1_555 1_555

#END
