
#######################################################################
#
#                 Cambridge Crystallographic Data Centre
#                                CCDC 
#
#######################################################################
#
# If this CIF has been generated from an entry in the Cambridge 
# Structural Database, then it will include bibliographic, chemical, 
# crystal, experimental, refinement or atomic coordinate data resulting 
# from the CCDC's data processing and validation procedures.
#
#######################################################################

data_XEZDEL
_symmetry_cell_setting           triclinic
_symmetry_space_group_name_H-M   'P -1'
_symmetry_Int_Tables_number      2
_space_group_name_Hall           '-P 1'
loop_
_symmetry_equiv_pos_site_id
_symmetry_equiv_pos_as_xyz
1 x,y,z
2 -x,-y,-z
_cell_length_a                   5.510(1)
_cell_length_b                   7.368(2)
_cell_length_c                   12.376(3)
_cell_angle_alpha                80.11(3)
_cell_angle_beta                 88.04(2)
_cell_angle_gamma                70.75(1)
_cell_volume                     467.16
loop_
_atom_site_label
_atom_site_type_symbol
_atom_site_fract_x
_atom_site_fract_y
_atom_site_fract_z
Co1 Co 0.1090(2) 1.22180(14) 0.29602(8)
Co2 Co 0.0000 1.0000 0.5000
Co3 Co 0.0000 0.5000 0.5000
O1 O -0.0635(11) 1.1129(8) 0.1977(4)
O2 O -0.2044(10) 1.0012(8) 0.3586(4)
O3 O -0.6925(9) 0.9684(7) 0.3932(4)
O4 O -0.3941(9) 0.6882(7) 0.4641(4)
O5 O -0.8109(10) 0.5995(8) 0.3571(4)
O6 O -0.7027(11) 0.3923(8) 0.2343(5)
O7 O -0.0858(9) 1.2981(7) 0.4300(4)
H1 H -0.2692(9) 1.3502(7) 0.4096(4)
C1 C -0.2819(14) 0.8789(10) 0.2040(6)
C2 C -0.4346(15) 0.7796(10) 0.2664(6)
C3 C -0.5147(15) 0.6460(10) 0.2179(6)
C4 C -0.4374(19) 0.6153(13) 0.1129(7)
H2 H -0.4863(19) 0.5256(13) 0.0822(7)
C5 C -0.2897(21) 0.7139(16) 0.0523(7)
H3 H -0.2389(21) 0.6899(16) -0.0178(7)
C6 C -0.2181(18) 0.8500(13) 0.0978(7)
H4 H -0.1266(18) 0.9220(13) 0.0562(7)
C7 C -0.1784(15) 1.0063(11) 0.2574(6)
C8 C -0.5063(14) 0.8092(10) 0.3834(6)
C9 C -0.6904(14) 0.5399(10) 0.2762(6)
O1A O 0.0635(11) 0.8871(8) 0.8023(4)
O2A O 0.2044(10) 0.9988(8) 0.6414(4)
O3A O 0.6925(9) 1.0316(7) 0.6068(4)
O4A O 0.3941(9) 1.3118(7) 0.5359(4)
O5A O 0.8109(10) 1.4005(8) 0.6429(4)
O6A O 0.7027(11) 1.6077(8) 0.7657(5)
C1A C 0.2819(14) 1.1211(10) 0.7960(6)
C2A C 0.4346(15) 1.2204(10) 0.7336(6)
C3A C 0.5147(15) 1.3540(10) 0.7821(6)
C4A C 0.4374(19) 1.3847(13) 0.8871(7)
H2A H 0.4863(19) 1.4744(13) 0.9178(7)
C5A C 0.2897(21) 1.2861(16) 0.9477(7)
H3A H 0.2389(21) 1.3101(16) 1.0178(7)
C6A C 0.2181(18) 1.1500(13) 0.9022(7)
H4A H 0.1266(18) 1.0780(13) 0.9438(7)
C7A C 0.1784(15) 0.9937(11) 0.7426(6)
C8A C 0.5063(14) 1.1908(10) 0.6166(6)
C9A C 0.6904(14) 1.4601(10) 0.7238(6)
O7A O 0.0858(9) 0.7019(7) 0.5700(4)
H1A H 0.2692(9) 0.6498(7) 0.5904(4)
Co1A Co -0.1090(2) 0.77820(14) 0.70398(8)
O3_2 O 0.3075(9) 0.9684(7) 0.3932(4)
O6_2 O 0.2973(11) 1.3923(8) 0.2343(5)
O3A_2 O -0.3075(9) 1.0316(7) 0.6068(4)
O4A_2 O 0.3941(9) 0.3118(7) 0.5359(4)
O5_2 O 0.1891(10) 0.5995(8) 0.3571(4)
O5A_2 O -0.1891(10) 0.4005(8) 0.6429(4)
O7_2 O -0.0858(9) 0.2981(7) 0.4300(4)
Co1_2 Co -0.8910(2) 1.22180(14) 0.29602(8)
Co2_2 Co -1.0000 1.0000 0.5000
Co3_2 Co -1.0000 0.5000 0.5000
Co1_3 Co -0.8910(2) 0.22180(14) 0.29602(8)
Co3_3 Co 0.0000 1.5000 0.5000
Co1A_2 Co 0.8910(2) 0.77820(14) 0.70398(8)
Co2_3 Co 1.0000 1.0000 0.5000
Co3_4 Co 1.0000 1.5000 0.5000
Co1A_3 Co 0.8910(2) 1.77820(14) 0.70398(8)
O6A_2 O -0.2973(11) 0.6077(8) 0.7657(5)
H1_2 H -0.2692(9) 0.3502(7) 0.4096(4)
loop_
_geom_bond_atom_site_label_1
_geom_bond_atom_site_label_2
_geom_bond_site_symmetry_1
_geom_bond_site_symmetry_2
Co1 O1 1_555 1_555
Co2 O2 1_555 1_555
Co3 O4 1_555 1_555
O1 C7 1_555 1_555
O2 C7 1_555 1_555
O3 C8 1_555 1_555
O4 C8 1_555 1_555
O5 C9 1_555 1_555
O6 C9 1_555 1_555
O7 Co1 1_555 1_555
H1 O7 1_555 1_555
C1 C2 1_555 1_555
C2 C3 1_555 1_555
C3 C4 1_555 1_555
C4 H2 1_555 1_555
C5 C4 1_555 1_555
H3 C5 1_555 1_555
C6 C1 1_555 1_555
H4 C6 1_555 1_555
C7 C1 1_555 1_555
C8 C2 1_555 1_555
C9 C3 1_555 1_555
O1A C7A 1_555 1_555
O2A Co2 1_555 1_555
O3A C8A 1_555 1_555
O4A C8A 1_555 1_555
O5A C9A 1_555 1_555
O6A C9A 1_555 1_555
C1A C2A 1_555 1_555
C2A C3A 1_555 1_555
C3A C4A 1_555 1_555
C4A H2A 1_555 1_555
C5A C4A 1_555 1_555
H3A C5A 1_555 1_555
C6A C1A 1_555 1_555
H4A C6A 1_555 1_555
C7A O2A 1_555 1_555
C8A C2A 1_555 1_555
C9A C3A 1_555 1_555
O7A Co2 1_555 1_555
H1A O7A 1_555 1_555
Co1A O1A 1_555 1_555
O3_2 Co1 1_555 1_555
O6_2 Co1 1_555 1_555
O3A_2 Co2 1_555 1_555
O4A_2 Co3 1_555 1_555
O5_2 Co3 1_555 1_555
O5A_2 Co3 1_555 1_555
O7_2 Co3 1_555 1_555
Co1_2 O3 1_555 1_555
Co2_2 O3 1_555 1_555
Co3_2 O5 1_555 1_555
Co1_3 O6 1_555 1_555
Co3_3 O7 1_555 1_555
Co1A_2 O3A 1_555 1_555
Co2_3 O3A 1_555 1_555
Co3_4 O5A 1_555 1_555
Co1A_3 O6A 1_555 1_555
O6A_2 Co1A 1_555 1_555
H1_2 O7_2 1_555 1_555
Co2 O7 1_555 1_555
Co2 O3_2 1_555 1_555
Co3 O7A 1_555 1_555
C5 C6 1_555 1_555
O4A Co3_3 1_555 1_555
C1A C7A 1_555 1_555
C5A C6A 1_555 1_555
O7A Co1A 1_555 1_555
Co1A O3A_2 1_555 1_555

#END
