
#######################################################################
#
#                 Cambridge Crystallographic Data Centre
#                                CCDC 
#
#######################################################################
#
# If this CIF has been generated from an entry in the Cambridge 
# Structural Database, then it will include bibliographic, chemical, 
# crystal, experimental, refinement or atomic coordinate data resulting 
# from the CCDC's data processing and validation procedures.
#
#######################################################################

data_XEZDAH
_symmetry_cell_setting           tetragonal
_symmetry_space_group_name_H-M   'I 41/a'
_symmetry_Int_Tables_number      88
_space_group_name_Hall           '-I 4ad'
loop_
_symmetry_equiv_pos_site_id
_symmetry_equiv_pos_as_xyz
1 x,y,z
2 3/4-y,1/4+x,1/4+z
3 1/2+x,1/2+y,1/2+z
4 1/4-y,3/4+x,3/4+z
5 1/4+y,1/4-x,1/4+z
6 1/2+x,y,1/2-z
7 1/4-y,1/4+x,1/4-z
8 x,1/2+y,-z
9 -x,-y,-z
10 1/4+y,3/4-x,3/4-z
11 1/2-x,1/2-y,1/2-z
12 3/4+y,1/4-x,1/4-z
13 3/4-y,3/4+x,3/4-z
14 1/2-x,-y,1/2+z
15 3/4+y,3/4-x,3/4+z
16 -x,1/2-y,z
_cell_length_a                   12.900(2)
_cell_length_b                   12.900(2)
_cell_length_c                   27.728(4)
_cell_angle_alpha                90
_cell_angle_beta                 90
_cell_angle_gamma                90
_cell_volume                     4614.22
loop_
_atom_site_label
_atom_site_type_symbol
_atom_site_fract_x
_atom_site_fract_y
_atom_site_fract_z
Co1 Co 0.0000 0.5000 0.0000
Co2 Co 0.5000 0.2500 0.24200(3)
Co3 Co 0.17958(5) 0.63511(5) -0.07089(2)
O1 O 0.1419(2) 0.4971(3) 0.03215(11)
O2 O 0.2589(3) 0.5584(3) -0.02118(12)
O3 O 0.2428(3) 0.2811(3) 0.06171(11)
O4 O 0.1430(2) 0.3567(2) 0.11668(10)
O5 O 0.3159(3) 0.3066(3) 0.18145(11)
O6 O 0.4736(3) 0.3662(3) 0.19798(12)
O7 O -0.0355(2) 0.3618(2) 0.03734(10)
H1 H 0.0154(2) 0.3570(2) 0.06347(10)
O8 O 0.3231(3) 0.6166(3) -0.11300(12)
C1 C 0.3173(4) 0.5087(3) 0.0561(2)
C2 C 0.3098(3) 0.4369(3) 0.0946(2)
C3 C 0.3868(3) 0.4388(3) 0.1307(2)
C4 C 0.4676(4) 0.5115(4) 0.1275(2)
H2 H 0.5169(4) 0.5138(4) 0.1519(2)
C5 C 0.4761(4) 0.5793(4) 0.0894(2)
H3 H 0.5311(4) 0.6258(4) 0.0878(2)
C6 C 0.4005(4) 0.5774(4) 0.0532(2)
H4 H 0.4058(4) 0.6222(4) 0.0270(2)
C7 C 0.2331(4) 0.5215(4) 0.0191(2)
C8 C 0.2257(3) 0.3533(4) 0.0915(2)
C9 C 0.3912(3) 0.3653(3) 0.17288(15)
O1H O -0.1419(2) 0.5029(3) -0.03215(11)
O2H O -0.2589(3) 0.4416(3) 0.02118(12)
O3H O -0.2428(3) 0.7189(3) -0.06171(11)
O4H O -0.1430(2) 0.6433(2) -0.11668(10)
O5H O -0.3159(3) 0.6934(3) -0.18145(11)
O6H O -0.4736(3) 0.6338(3) -0.19798(12)
C1H C -0.3173(4) 0.4913(3) -0.0561(2)
C2H C -0.3098(3) 0.5631(3) -0.0946(2)
C3H C -0.3868(3) 0.5612(3) -0.1307(2)
C4H C -0.4676(4) 0.4885(4) -0.1275(2)
H2H H -0.5169(4) 0.4862(4) -0.1519(2)
C5H C -0.4761(4) 0.4207(4) -0.0894(2)
H3H H -0.5311(4) 0.3742(4) -0.0878(2)
C6H C -0.4005(4) 0.4226(4) -0.0532(2)
H4H H -0.4058(4) 0.3778(4) -0.0270(2)
C7H C -0.2331(4) 0.4785(4) -0.0191(2)
C8H C -0.2257(3) 0.6467(4) -0.0915(2)
C9H C -0.3912(3) 0.6347(3) -0.17288(15)
O7H O 0.0355(2) 0.6382(2) -0.03734(10)
H1H H -0.0154(2) 0.6430(2) -0.06347(10)
Co3H Co -0.17958(5) 0.36489(5) 0.07089(2)
O8H O -0.3231(3) 0.3834(3) 0.11300(12)
O5F O -0.0566(3) 0.5659(3) 0.06855(11)
O5N O 0.0566(3) 0.4341(3) -0.06855(11)
O6O O 0.5264(3) 0.1338(3) 0.19798(12)
O7A O 0.3882(2) 0.2145(2) 0.28734(10)
O7D O 0.6118(2) 0.2855(2) 0.28734(10)
O3G O 0.2428(3) 0.7811(3) -0.06171(11)
O4N O 0.1067(2) 0.6070(2) -0.13332(10)
Co3G Co 0.17958(5) 0.13511(5) 0.07089(2)
Co3A Co 0.11489(5) 0.42958(5) 0.17911(2)
Co1A Co 0.2500 0.2500 0.2500
Co2C Co 0.0000 0.2500 -0.00800(3)
Co3O Co -0.17958(5) 0.86489(5) -0.07089(2)
Co3I Co -0.11489(5) 0.57042(5) -0.17911(2)
Co1C Co -0.2500 0.7500 -0.2500
Co2G Co -0.5000 0.7500 -0.24200(3)
Co2F Co 0.0000 0.7500 0.00800(3)
O3O O -0.2428(3) 0.2189(3) 0.06171(11)
O4F O -0.1067(2) 0.3930(2) 0.13332(10)
H1A H 0.3930(2) 0.2654(2) 0.31347(10)
H1D H 0.6070(2) 0.2346(2) 0.31347(10)
O9 O -0.5000 0.2500 0.0659(3)
O10 O 0.3850(9) 0.3207(9) -0.0097(4)
loop_
_geom_bond_atom_site_label_1
_geom_bond_atom_site_label_2
_geom_bond_site_symmetry_1
_geom_bond_site_symmetry_2
Co1 O1 1_555 1_555
Co2 O6 1_555 1_555
Co3 O2 1_555 1_555
O1 C7 1_555 1_555
O2 C7 1_555 1_555
O3 C8 1_555 1_555
O4 C8 1_555 1_555
O5 C9 1_555 1_555
O6 C9 1_555 1_555
O7 Co1 1_555 1_555
H1 O7 1_555 1_555
O8 Co3 1_555 1_555
C1 C2 1_555 1_555
C2 C3 1_555 1_555
C3 C4 1_555 1_555
C4 H2 1_555 1_555
C5 C4 1_555 1_555
H3 C5 1_555 1_555
C6 C1 1_555 1_555
H4 C6 1_555 1_555
C7 C1 1_555 1_555
C8 C2 1_555 1_555
C9 C3 1_555 1_555
O1H Co1 1_555 1_555
O2H C7H 1_555 1_555
O3H C8H 1_555 1_555
O4H C8H 1_555 1_555
O5H C9H 1_555 1_555
O6H C9H 1_555 1_555
C1H C2H 1_555 1_555
C2H C3H 1_555 1_555
C3H C4H 1_555 1_555
C4H H2H 1_555 1_555
C5H C4H 1_555 1_555
H3H C5H 1_555 1_555
C6H C1H 1_555 1_555
H4H C6H 1_555 1_555
C7H O1H 1_555 1_555
C8H C2H 1_555 1_555
C9H C3H 1_555 1_555
O7H Co1 1_555 1_555
H1H O7H 1_555 1_555
Co3H O7 1_555 1_555
O8H Co3H 1_555 1_555
O5F Co1 1_555 1_555
O5N Co1 1_555 1_555
O6O Co2 1_555 1_555
O7A Co2 1_555 1_555
O7D Co2 1_555 1_555
O3G Co3 1_555 1_555
O4N Co3 1_555 1_555
Co3G O3 1_555 1_555
Co3A O4 1_555 1_555
Co1A O5 1_555 1_555
Co2C O7 1_555 1_555
Co3O O3H 1_555 1_555
Co3I O4H 1_555 1_555
Co1C O5H 1_555 1_555
Co2G O6H 1_555 1_555
Co2F O7H 1_555 1_555
O3O Co3H 1_555 1_555
O4F Co3H 1_555 1_555
H1A O7A 1_555 1_555
H1D O7D 1_555 1_555
Co3 O7H 1_555 1_555
C5 C6 1_555 1_555
O2H Co3H 1_555 1_555
C1H C7H 1_555 1_555
C5H C6H 1_555 1_555
O7A Co1A 1_555 1_555

#END
