
#######################################################################
#
#                 Cambridge Crystallographic Data Centre
#                                CCDC 
#
#######################################################################
#
# If this CIF has been generated from an entry in the Cambridge 
# Structural Database, then it will include bibliographic, chemical, 
# crystal, experimental, refinement or atomic coordinate data resulting 
# from the CCDC's data processing and validation procedures.
#
#######################################################################

data_XEZFAK
_symmetry_cell_setting           monoclinic
_symmetry_space_group_name_H-M   'P 21/c'
_symmetry_Int_Tables_number      14
_space_group_name_Hall           '-P 2ybc'
loop_
_symmetry_equiv_pos_site_id
_symmetry_equiv_pos_as_xyz
1 x,y,z
2 -x,1/2+y,1/2-z
3 -x,-y,-z
4 x,1/2-y,1/2+z
_cell_length_a                   8.8952(4)
_cell_length_b                   23.8304(12)
_cell_length_c                   8.5796(4)
_cell_angle_alpha                90
_cell_angle_beta                 102.616(3)
_cell_angle_gamma                90
_cell_volume                     1774.76
loop_
_atom_site_label
_atom_site_type_symbol
_atom_site_fract_x
_atom_site_fract_y
_atom_site_fract_z
C1 C 0.3483(3) -0.13147(10) -0.4938(3)
H1 H 0.4414 -0.1319 -0.5264
C2 C 0.2761(3) -0.08084(11) -0.4877(3)
H2 H 0.3185 -0.0478 -0.5165
C3 C 0.1402(4) -0.08035(11) -0.4382(4)
H3 H 0.0890 -0.0467 -0.4321
C4 C 0.0794(3) -0.12994(11) -0.3973(4)
H4 H -0.0129 -0.1300 -0.3631
C5 C 0.1570(2) -0.17988(9) -0.4075(3)
C6 C 0.0996(2) -0.23570(9) -0.3699(3)
C7 C -0.0394(3) -0.24326(10) -0.3257(3)
H5 H -0.1012 -0.2125 -0.3163
C8 C -0.0860(3) -0.29666(12) -0.2955(3)
H6 H -0.1780 -0.3022 -0.2629
C9 C 0.0053(3) -0.34155(10) -0.3143(3)
H7 H -0.0254 -0.3780 -0.2984
C10 C 0.1430(3) -0.33145(9) -0.3571(3)
H8 H 0.2055 -0.3618 -0.3683
C11 C 0.5742(2) -0.19217(8) -0.1758(2)
C12 C 0.6245(2) -0.13992(8) -0.0844(2)
C13 C 0.7058(2) -0.10083(8) -0.1550(3)
H9 H 0.7285 -0.1089 -0.2534
C14 C 0.7531(2) -0.05059(9) -0.0815(3)
C15 C 0.7215(3) -0.03668(9) 0.0642(3)
H10 H 0.7523 -0.0025 0.1129
C16 C 0.6436(2) -0.07495(9) 0.1337(3)
C17 C 0.5892(2) -0.12796(8) 0.0668(2)
Mn1 Mn 0.42953(3) -0.259840(13) -0.40662(4)
N1 N 0.2909(2) -0.18028(7) -0.4549(2)
N2 N 0.19122(19) -0.27965(7) -0.3833(2)
N3 N 0.8387(2) -0.01098(8) -0.1582(3)
N4 N 0.6149(3) -0.06211(10) 0.2909(3)
O1 O 0.61876(16) -0.20166(6) -0.30199(17)
O2 O 0.47931(17) -0.22592(6) -0.13216(17)
O3 O 0.51650(17) -0.16014(6) 0.14472(18)
O4 O 0.5144(4) -0.03089(12) 0.3019(3)
O5 O 0.6918(3) -0.08540(15) 0.4041(3)
O6 O 0.8664(2) 0.03553(7) -0.0973(3)
O7 O 0.8809(2) -0.02572(8) -0.2783(2)
Mn1C Mn 0.42953(3) -0.240160(13) 0.09338(4)
O2C O 0.47931(17) -0.27408(6) -0.63216(17)
O3C O 0.51650(17) -0.33986(6) -0.35528(18)
loop_
_geom_bond_atom_site_label_1
_geom_bond_atom_site_label_2
_geom_bond_site_symmetry_1
_geom_bond_site_symmetry_2
C1 H1 1_555 1_555
C2 C1 1_555 1_555
H2 C2 1_555 1_555
C3 C2 1_555 1_555
H3 C3 1_555 1_555
C4 C3 1_555 1_555
H4 C4 1_555 1_555
C5 C4 1_555 1_555
C6 C5 1_555 1_555
C7 C6 1_555 1_555
H5 C7 1_555 1_555
C8 C7 1_555 1_555
H6 C8 1_555 1_555
C9 C8 1_555 1_555
H7 C9 1_555 1_555
C10 C9 1_555 1_555
H8 C10 1_555 1_555
C11 C12 1_555 1_555
C12 C13 1_555 1_555
C13 H9 1_555 1_555
C14 C13 1_555 1_555
C15 C14 1_555 1_555
H10 C15 1_555 1_555
C16 C15 1_555 1_555
C17 C12 1_555 1_555
Mn1 N1 1_555 1_555
N1 C1 1_555 1_555
N2 C6 1_555 1_555
N3 C14 1_555 1_555
N4 C16 1_555 1_555
O1 C11 1_555 1_555
O2 C11 1_555 1_555
O3 C17 1_555 1_555
O4 N4 1_555 1_555
O5 N4 1_555 1_555
O6 N3 1_555 1_555
O7 N3 1_555 1_555
Mn1C O2 1_555 1_555
O2C Mn1 1_555 1_555
O3C Mn1 1_555 1_555
C5 N1 1_555 1_555
C10 N2 1_555 1_555
C16 C17 1_555 1_555
Mn1 N2 1_555 1_555
Mn1 O1 1_555 1_555
Mn1 O2 1_555 1_555
O3 Mn1C 1_555 1_555

#END
