
#######################################################################
#
#                 Cambridge Crystallographic Data Centre
#                                CCDC 
#
#######################################################################
#
# If this CIF has been generated from an entry in the Cambridge 
# Structural Database, then it will include bibliographic, chemical, 
# crystal, experimental, refinement or atomic coordinate data resulting 
# from the CCDC's data processing and validation procedures.
#
#######################################################################

data_XEZLIY
_symmetry_cell_setting           monoclinic
_symmetry_space_group_name_H-M   'C 2/c'
_symmetry_Int_Tables_number      15
_space_group_name_Hall           '-C 2yn'
loop_
_symmetry_equiv_pos_site_id
_symmetry_equiv_pos_as_xyz
1 x,y,z
2 1/2+x,1/2+y,z
3 -x,y,1/2-z
4 1/2-x,1/2+y,1/2-z
5 -x,-y,-z
6 1/2-x,1/2-y,-z
7 x,-y,1/2+z
8 1/2+x,1/2-y,1/2+z
_cell_length_a                   19.162(6)
_cell_length_b                   13.386(4)
_cell_length_c                   15.951(5)
_cell_angle_alpha                90
_cell_angle_beta                 115.220(5)
_cell_angle_gamma                90
_cell_volume                     3701.47
loop_
_atom_site_label
_atom_site_type_symbol
_atom_site_fract_x
_atom_site_fract_y
_atom_site_fract_z
Ni1 Ni 0.0000 0.5000 0.0000
Ni2 Ni -0.2500 -0.2500 0.0000
O1 O -0.18279(10) -0.30588(11) 0.12812(11)
O2 O -0.34213(10) -0.23464(11) 0.03567(12)
O3 O -0.12371(12) -0.40925(17) 0.24302(15)
O4 O -0.35368(12) -0.21873(12) 0.16793(12)
O5 O -0.03539(9) 0.61394(12) 0.06475(11)
H1 H -0.0726(12) 0.6534(18) 0.0353(17)
H2 H -0.0080(13) 0.6422(19) 0.1143(14)
O6 O 0.10057(9) 0.47629(11) 0.11475(10)
H3 H 0.1160(14) 0.4158(13) 0.1302(17)
H4 H 0.1103(15) 0.5109(16) 0.1617(14)
N1 N -0.21114(10) -0.10848(12) 0.05751(12)
N2 N -0.05377(10) 0.39291(13) 0.04810(11)
N3 N -0.13472(13) 0.17537(15) 0.17331(14)
H5 H -0.1463(16) 0.194(2) 0.2178(16)
C1 C -0.13588(14) -0.08577(18) 0.09845(18)
H6 H -0.1005 -0.1345 0.1008
C2 C -0.10829(15) 0.0063(2) 0.1373(2)
H7 H -0.0556 0.0191 0.1644
C3 C -0.16045(13) 0.07962(15) 0.13528(14)
C4 C -0.23706(14) 0.05656(16) 0.09512(19)
H8 H -0.2735 0.1033 0.0938
C5 C -0.26010(14) -0.03709(16) 0.05635(19)
H9 H -0.3126 -0.0510 0.0279
C6 C -0.07622(13) 0.30259(16) 0.00965(14)
H10 H -0.0731 0.2896 -0.0459
C7 C -0.10356(14) 0.22787(16) 0.04683(15)
H11 H -0.1181 0.1666 0.0170
C8 C -0.10922(12) 0.24538(15) 0.13020(15)
C9 C -0.08776(13) 0.34021(17) 0.16938(15)
H12 H -0.0916 0.3561 0.2240
C10 C -0.06113(13) 0.40944(16) 0.12723(15)
H13 H -0.0472 0.4719 0.1549
C11 C -0.32947(15) -0.38046(15) 0.12910(15)
C12 C -0.25914(14) -0.43023(15) 0.15947(14)
C13 C -0.25763(16) -0.53290(16) 0.17831(15)
H14 H -0.2110 -0.5670 0.1995
C14 C -0.32358(17) -0.58441(16) 0.16621(16)
H15 H -0.3211 -0.6524 0.1790
C15 C -0.39318(18) -0.53485(19) 0.13507(19)
H16 H -0.4380 -0.5694 0.1260
C16 C -0.39598(17) -0.43280(18) 0.11736(19)
H17 H -0.4427 -0.3991 0.0975
C17 C -0.18408(16) -0.37822(16) 0.17722(16)
C18 C -0.34056(14) -0.26912(15) 0.11077(17)
Ni2A Ni 0.2500 1.2500 0.0000
O1E O -0.31721(10) -0.19412(11) -0.12812(11)
O2E O -0.15787(10) -0.26536(11) -0.03567(12)
O3E O -0.37629(12) -0.09075(17) -0.24302(15)
O4E O -0.14632(12) -0.28127(12) -0.16793(12)
O5D O 0.03539(9) 0.38606(12) -0.06475(11)
H1D H 0.0726(12) 0.3466(18) -0.0353(17)
H2D H 0.0080(13) 0.3578(19) -0.1143(14)
O6D O -0.10057(9) 0.52371(11) -0.11475(10)
H3D H -0.1160(14) 0.5842(13) -0.1302(17)
H4D H -0.1103(15) 0.4891(16) -0.1617(14)
N1D N 0.21114(10) 1.10848(12) -0.05751(12)
N1E N -0.28886(10) -0.39152(12) -0.05751(12)
N2D N 0.05377(10) 0.60709(13) -0.04810(11)
N3D N 0.13472(13) 0.82463(15) -0.17331(14)
H5D H 0.1463(16) 0.806(2) -0.2178(16)
C1D C 0.13588(14) 1.08577(18) -0.09845(18)
H6D H 0.1005 1.1345 -0.1008
C2D C 0.10829(15) 0.9937(2) -0.1373(2)
H7D H 0.0556 0.9809 -0.1644
C3D C 0.16045(13) 0.92038(15) -0.13528(14)
C4D C 0.23706(14) 0.94344(16) -0.09512(19)
H8D H 0.2735 0.8967 -0.0938
C5D C 0.26010(14) 1.03709(16) -0.05635(19)
H9D H 0.3126 1.0510 -0.0279
C6D C 0.07622(13) 0.69741(16) -0.00965(14)
H10D H 0.0731 0.7104 0.0459
C7D C 0.10356(14) 0.77213(16) -0.04683(15)
H11D H 0.1181 0.8334 -0.0170
C8D C 0.10922(12) 0.75462(15) -0.13020(15)
C9D C 0.08776(13) 0.65979(17) -0.16938(15)
H12D H 0.0916 0.6439 -0.2240
C10D C 0.06113(13) 0.59056(16) -0.12723(15)
H13D H 0.0472 0.5281 -0.1549
C11E C -0.17053(15) -0.11954(15) -0.12910(15)
C12E C -0.24086(14) -0.06977(15) -0.15947(14)
C13E C -0.24237(16) 0.03290(16) -0.17831(15)
H14E H -0.2890 0.0670 -0.1995
C14E C -0.17642(17) 0.08441(16) -0.16621(16)
H15E H -0.1789 0.1524 -0.1790
C15E C -0.10682(18) 0.03485(19) -0.13507(19)
H16E H -0.0620 0.0694 -0.1260
C16E C -0.10402(17) -0.06720(18) -0.11736(19)
H17E H -0.0573 -0.1009 -0.0975
C17E C -0.31592(16) -0.12178(16) -0.17722(16)
C18E C -0.15944(14) -0.23088(15) -0.11077(17)
O7 O 0.0451(4) 0.7550(4) 0.2014(5)
O8? O 0.0018(4) 0.7321(8) 0.2240(5)
loop_
_geom_bond_atom_site_label_1
_geom_bond_atom_site_label_2
_geom_bond_site_symmetry_1
_geom_bond_site_symmetry_2
Ni1 O5 1_555 1_555
Ni2 O1 1_555 1_555
O1 C17 1_555 1_555
O2 Ni2 1_555 1_555
O3 C17 1_555 1_555
O4 C18 1_555 1_555
O5 H1 1_555 1_555
H2 O5 1_555 1_555
O6 Ni1 1_555 1_555
H3 O6 1_555 1_555
H4 O6 1_555 1_555
N1 Ni2 1_555 1_555
N2 Ni1 1_555 1_555
N3 H5 1_555 1_555
C1 N1 1_555 1_555
H6 C1 1_555 1_555
C2 C1 1_555 1_555
H7 C2 1_555 1_555
C3 N3 1_555 1_555
C4 C3 1_555 1_555
H8 C4 1_555 1_555
C5 N1 1_555 1_555
H9 C5 1_555 1_555
C6 N2 1_555 1_555
H10 C6 1_555 1_555
C7 C6 1_555 1_555
H11 C7 1_555 1_555
C8 N3 1_555 1_555
C9 C8 1_555 1_555
H12 C9 1_555 1_555
C10 N2 1_555 1_555
H13 C10 1_555 1_555
C11 C12 1_555 1_555
C12 C13 1_555 1_555
C13 H14 1_555 1_555
C14 C13 1_555 1_555
H15 C14 1_555 1_555
C15 C14 1_555 1_555
H16 C15 1_555 1_555
C16 C11 1_555 1_555
H17 C16 1_555 1_555
C17 C12 1_555 1_555
C18 O2 1_555 1_555
Ni2A N1D 1_555 1_555
O1E Ni2 1_555 1_555
O2E Ni2 1_555 1_555
O3E C17E 1_555 1_555
O4E C18E 1_555 1_555
O5D Ni1 1_555 1_555
H1D O5D 1_555 1_555
H2D O5D 1_555 1_555
O6D Ni1 1_555 1_555
H3D O6D 1_555 1_555
H4D O6D 1_555 1_555
N1D C1D 1_555 1_555
N1E Ni2 1_555 1_555
N2D Ni1 1_555 1_555
N3D H5D 1_555 1_555
C1D H6D 1_555 1_555
C2D C1D 1_555 1_555
H7D C2D 1_555 1_555
C3D N3D 1_555 1_555
C4D C3D 1_555 1_555
H8D C4D 1_555 1_555
C5D N1D 1_555 1_555
H9D C5D 1_555 1_555
C6D N2D 1_555 1_555
H10D C6D 1_555 1_555
C7D C6D 1_555 1_555
H11D C7D 1_555 1_555
C8D N3D 1_555 1_555
C9D C8D 1_555 1_555
H12D C9D 1_555 1_555
C10D N2D 1_555 1_555
H13D C10D 1_555 1_555
C11E C12E 1_555 1_555
C12E C13E 1_555 1_555
C13E H14E 1_555 1_555
C14E C13E 1_555 1_555
H15E C14E 1_555 1_555
C15E C14E 1_555 1_555
H16E C15E 1_555 1_555
C16E C11E 1_555 1_555
H17E C16E 1_555 1_555
C17E O1E 1_555 1_555
C18E O2E 1_555 1_555
C2 C3 1_555 1_555
C4 C5 1_555 1_555
C7 C8 1_555 1_555
C9 C10 1_555 1_555
C11 C18 1_555 1_555
C15 C16 1_555 1_555
C2D C3D 1_555 1_555
C4D C5D 1_555 1_555
C7D C8D 1_555 1_555
C9D C10D 1_555 1_555
C11E C18E 1_555 1_555
C12E C17E 1_555 1_555
C15E C16E 1_555 1_555

#END
