
#######################################################################
#
#                 Cambridge Crystallographic Data Centre
#                                CCDC 
#
#######################################################################
#
# If this CIF has been generated from an entry in the Cambridge 
# Structural Database, then it will include bibliographic, chemical, 
# crystal, experimental, refinement or atomic coordinate data resulting 
# from the CCDC's data processing and validation procedures.
#
#######################################################################

data_XEZLEU
_symmetry_cell_setting           monoclinic
_symmetry_space_group_name_H-M   'C 2/c'
_symmetry_Int_Tables_number      15
_space_group_name_Hall           '-C 2yn'
loop_
_symmetry_equiv_pos_site_id
_symmetry_equiv_pos_as_xyz
1 x,y,z
2 1/2+x,1/2+y,z
3 -x,y,1/2-z
4 1/2-x,1/2+y,1/2-z
5 -x,-y,-z
6 1/2-x,1/2-y,-z
7 x,-y,1/2+z
8 1/2+x,1/2-y,1/2+z
_cell_length_a                   19.177(8)
_cell_length_b                   13.655(5)
_cell_length_c                   15.808(6)
_cell_angle_alpha                90
_cell_angle_beta                 116.980(7)
_cell_angle_gamma                90
_cell_volume                     3688.99
loop_
_atom_site_label
_atom_site_type_symbol
_atom_site_fract_x
_atom_site_fract_y
_atom_site_fract_z
Co1 Co 0.5000 0.0000 0.0000
Co2 Co 0.2500 0.7500 0.0000
O1 O 0.15579(12) 0.73542(13) 0.03447(14)
O2 O 0.15153(14) 0.71770(14) 0.17212(15)
O3 O 0.37873(16) 0.9177(2) 0.2387(2)
O4 O 0.31770(13) 0.80373(14) 0.13397(14)
O5 O 0.46769(13) -0.11312(15) 0.07252(15)
H1 H 0.4302(15) -0.154(2) 0.045(2)
H2 H 0.4981(16) -0.137(2) 0.1251(15)
O6 O 0.60168(12) 0.02822(14) 0.11855(14)
H3 H 0.612(2) 0.000(2) 0.168(2)
H4 H 0.6185(18) 0.0879(12) 0.131(2)
N1 N 0.44481(14) 0.10980(16) 0.04583(17)
N2 N 0.29032(14) 0.60567(15) 0.05897(16)
N3 N 0.36374(16) 0.32305(18) 0.16980(19)
H5 H 0.351(2) 0.300(2) 0.212(2)
C1 C 0.42411(18) 0.1990(2) 0.0077(2)
H6 H 0.4281 0.2122 -0.0476
C2 C 0.39735(19) 0.2726(2) 0.0446(2)
H7 H 0.3843 0.3333 0.0149
C3 C 0.38991(17) 0.2553(2) 0.1273(2)
C4 C 0.4100(2) 0.1616(2) 0.1665(2)
H8 H 0.4056 0.1457 0.2211
C5 C 0.4361(2) 0.0934(2) 0.1240(2)
H9 H 0.4486 0.0315 0.1513
C6 C 0.24097(18) 0.5394(2) 0.0629(2)
H10 H 0.1886 0.5569 0.0394
C7 C 0.26274(18) 0.4461(2) 0.0997(2)
H11 H 0.2260 0.4029 0.1016
C8 C 0.33931(18) 0.41838(19) 0.1332(2)
C9 C 0.39181(18) 0.4862(2) 0.1304(2)
H12 H 0.4443 0.4699 0.1528
C10 C 0.36544(18) 0.5786(2) 0.0940(2)
H13 H 0.4015 0.6240 0.0938
C11 C 0.24080(18) 0.9287(2) 0.15896(19)
C12 C 0.2407(2) 1.0298(2) 0.1751(2)
H14 H 0.2868 1.0650 0.1935
C13 C 0.1744(2) 1.0780(2) 0.1645(2)
H15 H 0.1762 1.1449 0.1765
C14 C 0.1050(2) 1.0271(2) 0.1360(2)
H16 H 0.0596 1.0595 0.1276
C15 C 0.1038(2) 0.9268(2) 0.1199(2)
H17 H 0.0575 0.8921 0.1018
C16 C 0.17072(18) 0.87766(19) 0.13054(19)
C17 C 0.16055(17) 0.76829(19) 0.1125(2)
C18 C 0.31723(19) 0.8804(2) 0.1775(2)
Co2A Co 0.7500 -0.7500 0.0000
O1E O 0.34421(12) 0.76458(13) -0.03447(14)
O2E O 0.34847(14) 0.78230(14) -0.17212(15)
O3E O 0.12127(16) 0.5823(2) -0.2387(2)
O4E O 0.18230(13) 0.69627(14) -0.13397(14)
O5D O 0.53231(13) 0.11312(15) -0.07252(15)
H1D H 0.5698(15) 0.154(2) -0.045(2)
H2D H 0.5019(16) 0.137(2) -0.1251(15)
O6D O 0.39832(12) -0.02822(14) -0.11855(14)
H3D H 0.388(2) 0.000(2) -0.168(2)
H4D H 0.3815(18) -0.0879(12) -0.131(2)
N1D N 0.55519(14) -0.10980(16) -0.04583(17)
N2D N 0.70968(14) -0.60567(15) -0.05897(16)
N2E N 0.20968(14) 0.89433(15) -0.05897(16)
N3D N 0.63626(16) -0.32305(18) -0.16980(19)
H5D H 0.649(2) -0.300(2) -0.212(2)
C1D C 0.57589(18) -0.1990(2) -0.0077(2)
H6D H 0.5719 -0.2122 0.0476
C2D C 0.60265(19) -0.2726(2) -0.0446(2)
H7D H 0.6157 -0.3333 -0.0149
C3D C 0.61009(17) -0.2553(2) -0.1273(2)
C4D C 0.5900(2) -0.1616(2) -0.1665(2)
H8D H 0.5944 -0.1457 -0.2211
C5D C 0.5639(2) -0.0934(2) -0.1240(2)
H9D H 0.5514 -0.0315 -0.1513
C6D C 0.75903(18) -0.5394(2) -0.0629(2)
H10D H 0.8114 -0.5569 -0.0394
C7D C 0.73726(18) -0.4461(2) -0.0997(2)
H11D H 0.7740 -0.4029 -0.1016
C8D C 0.66069(18) -0.41838(19) -0.1332(2)
C9D C 0.60819(18) -0.4862(2) -0.1304(2)
H12D H 0.5557 -0.4699 -0.1528
C10D C 0.63456(18) -0.5786(2) -0.0940(2)
H13D H 0.5985 -0.6240 -0.0938
C11E C 0.25920(18) 0.5713(2) -0.15896(19)
C12E C 0.2593(2) 0.4702(2) -0.1751(2)
H14E H 0.2132 0.4350 -0.1935
C13E C 0.3256(2) 0.4220(2) -0.1645(2)
H15E H 0.3238 0.3551 -0.1765
C14E C 0.3950(2) 0.4729(2) -0.1360(2)
H16E H 0.4404 0.4405 -0.1276
C15E C 0.3962(2) 0.5732(2) -0.1199(2)
H17E H 0.4425 0.6079 -0.1018
C16E C 0.32928(18) 0.62234(19) -0.13054(19)
C17E C 0.33945(17) 0.73171(19) -0.1125(2)
C18E C 0.18277(19) 0.6196(2) -0.1775(2)
O7 O 0.5524(4) -0.2691(5) 0.2112(5)
O8? O 0.5054(9) -0.2542(8) 0.2274(6)
loop_
_geom_bond_atom_site_label_1
_geom_bond_atom_site_label_2
_geom_bond_site_symmetry_1
_geom_bond_site_symmetry_2
Co1 O5 1_555 1_555
Co2 O1 1_555 1_555
O1 C17 1_555 1_555
O2 C17 1_555 1_555
O3 C18 1_555 1_555
O4 Co2 1_555 1_555
O5 H1 1_555 1_555
H2 O5 1_555 1_555
O6 Co1 1_555 1_555
H3 O6 1_555 1_555
H4 O6 1_555 1_555
N1 Co1 1_555 1_555
N2 Co2 1_555 1_555
N3 H5 1_555 1_555
C1 N1 1_555 1_555
H6 C1 1_555 1_555
C2 C1 1_555 1_555
H7 C2 1_555 1_555
C3 N3 1_555 1_555
C4 C3 1_555 1_555
H8 C4 1_555 1_555
C5 N1 1_555 1_555
H9 C5 1_555 1_555
C6 N2 1_555 1_555
H10 C6 1_555 1_555
C7 C6 1_555 1_555
H11 C7 1_555 1_555
C8 N3 1_555 1_555
C9 C8 1_555 1_555
H12 C9 1_555 1_555
C10 N2 1_555 1_555
H13 C10 1_555 1_555
C11 C12 1_555 1_555
C12 H14 1_555 1_555
C13 C12 1_555 1_555
H15 C13 1_555 1_555
C14 C13 1_555 1_555
H16 C14 1_555 1_555
C15 C14 1_555 1_555
H17 C15 1_555 1_555
C16 C11 1_555 1_555
C17 C16 1_555 1_555
C18 O4 1_555 1_555
Co2A N2D 1_555 1_555
O1E Co2 1_555 1_555
O2E C17E 1_555 1_555
O3E C18E 1_555 1_555
O4E Co2 1_555 1_555
O5D Co1 1_555 1_555
H1D O5D 1_555 1_555
H2D O5D 1_555 1_555
O6D Co1 1_555 1_555
H3D O6D 1_555 1_555
H4D O6D 1_555 1_555
N1D Co1 1_555 1_555
N2D C6D 1_555 1_555
N2E Co2 1_555 1_555
N3D H5D 1_555 1_555
C1D N1D 1_555 1_555
H6D C1D 1_555 1_555
C2D C1D 1_555 1_555
H7D C2D 1_555 1_555
C3D N3D 1_555 1_555
C4D C3D 1_555 1_555
H8D C4D 1_555 1_555
C5D N1D 1_555 1_555
H9D C5D 1_555 1_555
C6D H10D 1_555 1_555
C7D C6D 1_555 1_555
H11D C7D 1_555 1_555
C8D N3D 1_555 1_555
C9D C8D 1_555 1_555
H12D C9D 1_555 1_555
C10D N2D 1_555 1_555
H13D C10D 1_555 1_555
C11E C12E 1_555 1_555
C12E H14E 1_555 1_555
C13E C12E 1_555 1_555
H15E C13E 1_555 1_555
C14E C13E 1_555 1_555
H16E C14E 1_555 1_555
C15E C14E 1_555 1_555
H17E C15E 1_555 1_555
C16E C11E 1_555 1_555
C17E O1E 1_555 1_555
C18E O4E 1_555 1_555
C2 C3 1_555 1_555
C4 C5 1_555 1_555
C7 C8 1_555 1_555
C9 C10 1_555 1_555
C11 C18 1_555 1_555
C15 C16 1_555 1_555
C2D C3D 1_555 1_555
C4D C5D 1_555 1_555
C7D C8D 1_555 1_555
C9D C10D 1_555 1_555
C11E C18E 1_555 1_555
C15E C16E 1_555 1_555
C16E C17E 1_555 1_555

#END
