
#######################################################################
#
#                 Cambridge Crystallographic Data Centre
#                                CCDC 
#
#######################################################################
#
# If this CIF has been generated from an entry in the Cambridge 
# Structural Database, then it will include bibliographic, chemical, 
# crystal, experimental, refinement or atomic coordinate data resulting 
# from the CCDC's data processing and validation procedures.
#
#######################################################################

data_XEZLIZ
_symmetry_cell_setting           triclinic
_symmetry_space_group_name_H-M   'P -1'
_symmetry_Int_Tables_number      2
_space_group_name_Hall           '-P 1'
loop_
_symmetry_equiv_pos_site_id
_symmetry_equiv_pos_as_xyz
1 x,y,z
2 -x,-y,-z
_cell_length_a                   8.5227(3)
_cell_length_b                   8.6792(4)
_cell_length_c                   15.6198(6)
_cell_angle_alpha                99.6030(10)
_cell_angle_beta                 105.2330(10)
_cell_angle_gamma                96.3210(10)
_cell_volume                     1084.7
loop_
_atom_site_label
_atom_site_type_symbol
_atom_site_fract_x
_atom_site_fract_y
_atom_site_fract_z
Mn1 Mn 0.0000 0.5000 0.5000
O1 O -0.5818(3) -0.3026(4) -0.50430(18)
O2 O -0.7612(3) -0.3658(3) -0.42924(17)
O3 O -0.0751(3) 0.2073(3) -0.11290(18)
O4 O 0.2663(3) 0.5512(4) 0.34099(18)
H1 H 0.3052 0.5897 0.3967
O5 O 0.0906(3) 0.4029(3) 0.38937(17)
C1 C -0.6253(4) -0.3026(4) -0.4327(2)
C2 C -0.5066(4) -0.2119(4) -0.3455(3)
C3 C -0.3799(5) -0.0957(5) -0.3445(3)
H2 H -0.3600 -0.0817 -0.4000
C4 C -0.2831(5) -0.0007(6) -0.2645(4)
H3 H -0.1993 0.0802 -0.2656
C5 C -0.3058(6) -0.0214(6) -0.1828(4)
C6 C -0.4277(8) -0.1403(7) -0.1828(3)
H4 H -0.4425 -0.1581 -0.1269
C7 C -0.5297(6) -0.2348(5) -0.2643(3)
H5 H -0.6148 -0.3146 -0.2635
C8 C -0.1686(7) 0.1164(8) -0.0930(6)
C9 C -0.0980(6) 0.1952(7) 0.0573(4)
C10 C -0.1495(7) 0.1585(6) 0.1295(4)
H6 H -0.2418 0.0784 0.1191
C11 C -0.0681(6) 0.2372(5) 0.2153(3)
H7 H -0.1022 0.2083 0.2644
C12 C 0.0635(4) 0.3586(5) 0.2331(3)
C13 C 0.1115(5) 0.4001(7) 0.1617(3)
H8 H 0.1998 0.4844 0.1722
C14 C 0.0296(7) 0.3176(9) 0.0732(3)
H9 H 0.0627 0.3466 0.0237
C15 C 0.1437(4) 0.4406(4) 0.3282(2)
C16 C -0.2399(5) 0.7274(5) 0.4295(3)
H10 H -0.3077 0.6579 0.4510
C17 C -0.3079(7) 0.8466(6) 0.3917(4)
H11 H -0.4199 0.8569 0.3857
C18 C -0.2087(8) 0.9494(7) 0.3631(4)
H12 H -0.2518 1.0320 0.3362
C19 C -0.0490(7) 0.9328(6) 0.3733(4)
H13 H 0.0219 1.0048 0.3551
C20 C 0.0092(6) 0.8081(5) 0.4109(3)
H14 H 0.1212 0.7966 0.4178
N1 N -0.2134(6) 0.0756(7) -0.0380(5)
H15 H -0.2927 -0.0030 -0.0440
N2 N -0.0851(4) 0.7041(4) 0.4378(2)
O1A O -0.4182(3) 0.3026(4) 0.50430(18)
O2A O -0.2388(3) 0.3658(3) 0.42924(17)
O3A O -0.9249(3) -0.2073(3) 0.11290(18)
O4A O -1.2663(3) -0.5512(4) -0.34099(18)
H1A H -1.3052 -0.5897 -0.3967
O5A O -1.0906(3) -0.4029(3) -0.38937(17)
C1A C -0.3747(4) 0.3026(4) 0.4327(2)
C2A C -0.4934(4) 0.2119(4) 0.3455(3)
C3A C -0.6201(5) 0.0957(5) 0.3445(3)
H2A H -0.6400 0.0817 0.4000
C4A C -0.7169(5) 0.0007(6) 0.2645(4)
H3A H -0.8007 -0.0802 0.2656
C5A C -0.6942(6) 0.0214(6) 0.1828(4)
C6A C -0.5723(8) 0.1403(7) 0.1828(3)
H4A H -0.5575 0.1581 0.1269
C7A C -0.4703(6) 0.2348(5) 0.2643(3)
H5A H -0.3852 0.3146 0.2635
C8A C -0.8314(7) -0.1164(8) 0.0930(6)
C9A C -0.9020(6) -0.1952(7) -0.0573(4)
C10A C -0.8505(7) -0.1585(6) -0.1295(4)
H6A H -0.7582 -0.0784 -0.1191
C11A C -0.9319(6) -0.2372(5) -0.2153(3)
H7A H -0.8978 -0.2083 -0.2644
C12A C -1.0635(4) -0.3586(5) -0.2331(3)
C13A C -1.1115(5) -0.4001(7) -0.1617(3)
H8A H -1.1998 -0.4844 -0.1722
C14A C -1.0296(7) -0.3176(9) -0.0732(3)
H9A H -1.0627 -0.3466 -0.0237
C15A C -1.1437(4) -0.4406(4) -0.3282(2)
N1A N -0.7866(6) -0.0756(7) 0.0380(5)
H15A H -0.7073 0.0030 0.0440
C16A C 0.2399(5) 0.2726(5) 0.5705(3)
H10A H 0.3077 0.3421 0.5490
C17A C 0.3079(7) 0.1534(6) 0.6083(4)
H11A H 0.4199 0.1431 0.6143
C18A C 0.2087(8) 0.0506(7) 0.6369(4)
H12A H 0.2518 -0.0320 0.6638
C19A C 0.0490(7) 0.0672(6) 0.6267(4)
H13A H -0.0219 -0.0048 0.6449
C20A C -0.0092(6) 0.1919(5) 0.5891(3)
H14A H -0.1212 0.2034 0.5822
N2A N 0.0851(4) 0.2959(4) 0.5622(2)
Mn1_2 Mn -1.0000 -0.5000 -0.5000
O2_2 O 0.2388(3) 0.6342(3) 0.57076(17)
O5A_2 O -0.0906(3) 0.5971(3) 0.61063(17)
O6 O 0.5789(4) 0.8364(3) 0.0253(2)
C21 C 0.7461(7) 0.5784(6) 0.1691(4)
H16 H 0.8563 0.6189 0.1664
H17 H 0.7207 0.4639 0.1451
H18 H 0.7429 0.6001 0.2322
C22 C 0.4541(6) 0.6124(6) 0.1098(4)
H19 H 0.3868 0.6735 0.0715
H20 H 0.4403 0.6346 0.1708
H21 H 0.4191 0.4991 0.0836
C23 C 0.6712(5) 0.7652(5) 0.0729(3)
H22 H 0.7858 0.7905 0.0800
N3 N 0.6248(4) 0.6563(4) 0.1151(2)
loop_
_geom_bond_atom_site_label_1
_geom_bond_atom_site_label_2
_geom_bond_site_symmetry_1
_geom_bond_site_symmetry_2
Mn1 O5 1_555 1_555
O1 C1 1_555 1_555
O2 C1 1_555 1_555
O3 C8 1_555 1_555
O4 H1 1_555 1_555
O5 C15 1_555 1_555
C1 C2 1_555 1_555
C2 C3 1_555 1_555
C3 H2 1_555 1_555
C4 C3 1_555 1_555
H3 C4 1_555 1_555
C5 C4 1_555 1_555
C6 C5 1_555 1_555
H4 C6 1_555 1_555
C7 C2 1_555 1_555
H5 C7 1_555 1_555
C8 C5 1_555 1_555
C9 C10 1_555 1_555
C10 H6 1_555 1_555
C11 C10 1_555 1_555
H7 C11 1_555 1_555
C12 C11 1_555 1_555
C13 C12 1_555 1_555
H8 C13 1_555 1_555
C14 C9 1_555 1_555
H9 C14 1_555 1_555
C15 O4 1_555 1_555
C16 H10 1_555 1_555
C17 C16 1_555 1_555
H11 C17 1_555 1_555
C18 C17 1_555 1_555
H12 C18 1_555 1_555
C19 C18 1_555 1_555
H13 C19 1_555 1_555
C20 C19 1_555 1_555
H14 C20 1_555 1_555
N1 C8 1_555 1_555
H15 N1 1_555 1_555
N2 Mn1 1_555 1_555
O6 C23 1_555 1_555
C21 H16 1_555 1_555
H17 C21 1_555 1_555
H18 C21 1_555 1_555
C22 H19 1_555 1_555
H20 C22 1_555 1_555
H21 C22 1_555 1_555
C23 H22 1_555 1_555
N3 C21 1_555 1_555
O1A C1A 1_555 1_555
O2A Mn1 1_555 1_555
O3A C8A 1_555 1_555
O4A H1A 1_555 1_555
O5A C15A 1_555 1_555
C1A O2A 1_555 1_555
C2A C1A 1_555 1_555
C3A C2A 1_555 1_555
H2A C3A 1_555 1_555
C4A C3A 1_555 1_555
H3A C4A 1_555 1_555
C5A C4A 1_555 1_555
C6A C5A 1_555 1_555
H4A C6A 1_555 1_555
C7A C2A 1_555 1_555
H5A C7A 1_555 1_555
C8A C5A 1_555 1_555
C9A C10A 1_555 1_555
C10A H6A 1_555 1_555
C11A C10A 1_555 1_555
H7A C11A 1_555 1_555
C12A C11A 1_555 1_555
C13A C12A 1_555 1_555
H8A C13A 1_555 1_555
C14A C9A 1_555 1_555
H9A C14A 1_555 1_555
C15A O4A 1_555 1_555
N1A C8A 1_555 1_555
H15A N1A 1_555 1_555
C16A H10A 1_555 1_555
C17A C16A 1_555 1_555
H11A C17A 1_555 1_555
C18A C17A 1_555 1_555
H12A C18A 1_555 1_555
C19A C18A 1_555 1_555
H13A C19A 1_555 1_555
C20A C19A 1_555 1_555
H14A C20A 1_555 1_555
N2A Mn1 1_555 1_555
Mn1_2 O2 1_555 1_555
O2_2 Mn1 1_555 1_555
O5A_2 Mn1 1_555 1_555
C6 C7 1_555 1_555
C9 N1 1_555 1_555
C12 C15 1_555 1_555
C13 C14 1_555 1_555
C16 N2 1_555 1_555
C20 N2 1_555 1_555
C22 N3 1_555 1_555
C23 N3 1_555 1_555
O5A Mn1_2 1_555 1_555
C6A C7A 1_555 1_555
C9A N1A 1_555 1_555
C12A C15A 1_555 1_555
C13A C14A 1_555 1_555
C16A N2A 1_555 1_555
C20A N2A 1_555 1_555

#END
