
#######################################################################
#
#                 Cambridge Crystallographic Data Centre
#                                CCDC 
#
#######################################################################
#
# If this CIF has been generated from an entry in the Cambridge 
# Structural Database, then it will include bibliographic, chemical, 
# crystal, experimental, refinement or atomic coordinate data resulting 
# from the CCDC's data processing and validation procedures.
#
#######################################################################

data_XEZLUL
_symmetry_cell_setting           monoclinic
_symmetry_space_group_name_H-M   'C 2/c'
_symmetry_Int_Tables_number      15
_space_group_name_Hall           '-C 2yn'
loop_
_symmetry_equiv_pos_site_id
_symmetry_equiv_pos_as_xyz
1 x,y,z
2 -x,y,1/2-z
3 1/2+x,1/2+y,z
4 1/2-x,1/2+y,1/2-z
5 -x,-y,-z
6 x,-y,1/2+z
7 1/2-x,1/2-y,-z
8 1/2+x,1/2-y,1/2+z
_cell_length_a                   34.9517(13)
_cell_length_b                   6.1056(2)
_cell_length_c                   33.9177(12)
_cell_angle_alpha                90
_cell_angle_beta                 114.6340(10)
_cell_angle_gamma                90
_cell_volume                     6579.33
loop_
_atom_site_label
_atom_site_type_symbol
_atom_site_fract_x
_atom_site_fract_y
_atom_site_fract_z
N1 N 0.1099(4) -0.019(2) -0.0179(4)
H1 H 0.0993 0.1125 -0.0190
N2 N 0.2014(2) 0.3550(13) 0.2823(2)
N3 N 0.0557(2) 0.4933(12) 0.2194(2)
C1 C 0.0299(2) 0.3178(12) 0.2102(4)
H2 H 0.0414 0.1743 0.2163
C2 C -0.0123(2) 0.3463(16) 0.1925(5)
H3 H -0.0304 0.2228 0.1860
C3 C -0.0286(3) 0.5503(18) 0.1839(4)
H4 H -0.0583 0.5703 0.1714
C4 C -0.0028(3) 0.7258(16) 0.1931(4)
H5 H -0.0143 0.8692 0.1870
C5 C 0.0393(3) 0.6973(13) 0.2108(4)
H6 H 0.0575 0.8207 0.2172
Cd1 Cd 0.129095(18) 0.42352(10) 0.251907(19)
C6 C 0.1241(3) -0.2695(16) -0.1739(3)
C7 C 0.1224(3) -0.2006(16) -0.1327(3)
C8 C 0.1099(4) 0.006(2) -0.1274(4)
H7 H 0.1044 0.1125 -0.1495
C9 C 0.1054(4) 0.062(2) -0.0898(4)
H8 H 0.0958 0.2041 -0.0869
C10 C 0.1145(5) -0.089(3) -0.0565(4)
C11 C 0.1270(5) -0.295(3) -0.0615(4)
H9 H 0.1332 -0.4003 -0.0391
C12 C 0.1306(4) -0.348(2) -0.0995(3)
H10 H 0.1390 -0.4921 -0.1028
C13 C 0.1189(5) -0.122(3) 0.0168(4)
C14 C 0.1163(4) -0.005(2) 0.0549(4)
C15 C 0.1293(4) 0.210(2) 0.0656(3)
H11 H 0.1370 0.2967 0.0467
C16 C 0.1312(4) 0.299(2) 0.1040(3)
H12 H 0.1403 0.4458 0.1113
C17 C 0.1200(3) 0.1770(16) 0.1317(3)
C18 C 0.1053(3) -0.0370(18) 0.1189(3)
H13 H 0.0963 -0.1231 0.1368
C19 C 0.1039(4) -0.124(2) 0.0811(4)
H14 H 0.0941 -0.2690 0.0731
C20 C 0.1225(3) 0.2656(17) 0.1734(3)
C21 C 0.2271(3) 0.5010(17) 0.3095(3)
H15 H 0.2154 0.6271 0.3166
C22 C 0.2709(3) 0.476(2) 0.3280(4)
H16 H 0.2886 0.5840 0.3472
C23 C 0.2879(3) 0.2911(19) 0.3177(4)
H17 H 0.3175 0.2716 0.3290
C24 C 0.2618(3) 0.1407(19) 0.2915(4)
H18 H 0.2728 0.0090 0.2855
C25 C 0.2184(3) 0.1764(16) 0.2731(3)
H19 H 0.2005 0.0712 0.2534
O1 O 0.1318(5) -0.3234(19) 0.0230(4)
O2 O 0.14153(17) 0.8003(10) 0.25799(18)
H20 H 0.1249 0.8225 0.2318
H21 H 0.1440 0.9383 0.2614
O3 O 0.1168(2) 0.1375(11) 0.1998(2)
O4 O 0.1309(2) 0.4648(11) 0.1817(2)
O5 O 0.1166(2) -0.1331(11) -0.2039(2)
O6 O 0.1330(2) -0.4672(11) -0.1778(2)
Cd1E Cd 0.129095(18) -0.42352(10) -0.248093(19)
O5E O 0.1166(2) 0.1331(11) 0.2961(2)
O6E O 0.1330(2) 0.4672(11) 0.3222(2)
N4 N 0.0087(7) 0.653(4) -0.0663(14)
C26 C -0.0196(11) 0.495(6) -0.0960(11)
H22 H -0.0434 0.5715 -0.1182
H23 H -0.0298 0.3942 -0.0800
H24 H -0.0045 0.4115 -0.1099
C27 C 0.0036(13) 0.797(7) -0.0349(11)
H25 H 0.0301 0.8048 -0.0088
H26 H -0.0187 0.7408 -0.0273
H27 H -0.0040 0.9440 -0.0475
C28 C 0.0411(7) 0.495(3) -0.0303(8)
H28 H 0.0536 0.5295 -0.0003
O7 O 0.0484(5) 0.325(2) -0.0456(5)
C29 C 0.2565(7) 0.326(4) 0.0830(7)
C30 C 0.2194(5) 0.393(4) 0.0474(6)
H29 H 0.2062 0.5311 0.0461
C31 C 0.2039(9) 0.236(5) 0.0142(11)
H30 H 0.1798 0.2768 -0.0110
C32 C 0.2198(7) 0.027(3) 0.0139(6)
H31 H 0.2075 -0.0741 -0.0093
C33 C 0.2563(11) -0.018(5) 0.0522(8)
H32 H 0.2685 -0.1592 0.0553
C34 C 0.2755(6) 0.132(3) 0.0858(7)
H33 H 0.3011 0.0982 0.1099
Cl1 Cl 0.2756(2) 0.5044(11) 0.1252(2)
loop_
_geom_bond_atom_site_label_1
_geom_bond_atom_site_label_2
_geom_bond_site_symmetry_1
_geom_bond_site_symmetry_2
N1 H1 1_555 1_555
N2 Cd1 1_555 1_555
N3 C1 1_555 1_555
C1 H2 1_555 1_555
C2 C1 1_555 1_555
H3 C2 1_555 1_555
C3 C2 1_555 1_555
H4 C3 1_555 1_555
C4 C3 1_555 1_555
H5 C4 1_555 1_555
C5 N3 1_555 1_555
H6 C5 1_555 1_555
Cd1 N3 1_555 1_555
C6 C7 1_555 1_555
C7 C8 1_555 1_555
C8 H7 1_555 1_555
C9 C8 1_555 1_555
H8 C9 1_555 1_555
C10 N1 1_555 1_555
C11 C10 1_555 1_555
H9 C11 1_555 1_555
C12 C7 1_555 1_555
H10 C12 1_555 1_555
C13 N1 1_555 1_555
C14 C13 1_555 1_555
C15 C14 1_555 1_555
H11 C15 1_555 1_555
C16 C15 1_555 1_555
H12 C16 1_555 1_555
C17 C16 1_555 1_555
C18 C17 1_555 1_555
H13 C18 1_555 1_555
C19 C14 1_555 1_555
H14 C19 1_555 1_555
C20 C17 1_555 1_555
C21 N2 1_555 1_555
H15 C21 1_555 1_555
C22 C21 1_555 1_555
H16 C22 1_555 1_555
C23 C22 1_555 1_555
H17 C23 1_555 1_555
C24 C23 1_555 1_555
H18 C24 1_555 1_555
C25 N2 1_555 1_555
H19 C25 1_555 1_555
O1 C13 1_555 1_555
O2 Cd1 1_555 1_555
H20 O2 1_555 1_555
H21 O2 1_555 1_555
O3 Cd1 1_555 1_555
O4 Cd1 1_555 1_555
O5 C6 1_555 1_555
O6 C6 1_555 1_555
N4 C26 1_555 1_555
C26 H22 1_555 1_555
H23 C26 1_555 1_555
H24 C26 1_555 1_555
C27 N4 1_555 1_555
H25 C27 1_555 1_555
H26 C27 1_555 1_555
H27 C27 1_555 1_555
C28 N4 1_555 1_555
H28 C28 1_555 1_555
O7 C28 1_555 1_555
C29 C30 1_555 1_555
C30 H29 1_555 1_555
C31 C30 1_555 1_555
H30 C31 1_555 1_555
C32 C31 1_555 1_555
H31 C32 1_555 1_555
C33 C32 1_555 1_555
H32 C33 1_555 1_555
C34 C29 1_555 1_555
H33 C34 1_555 1_555
Cl1 C29 1_555 1_555
Cd1E O5 1_555 1_555
O5E Cd1 1_555 1_555
O6E Cd1 1_555 1_555
C4 C5 1_555 1_555
C9 C10 1_555 1_555
C11 C12 1_555 1_555
C18 C19 1_555 1_555
C20 O3 1_555 1_555
C20 O4 1_555 1_555
C24 C25 1_555 1_555
O6 Cd1E 1_555 1_555
C33 C34 1_555 1_555

#END
