
#######################################################################
#
#                 Cambridge Crystallographic Data Centre
#                                CCDC 
#
#######################################################################
#
# If this CIF has been generated from an entry in the Cambridge 
# Structural Database, then it will include bibliographic, chemical, 
# crystal, experimental, refinement or atomic coordinate data resulting 
# from the CCDC's data processing and validation procedures.
#
#######################################################################

data_XEZLOE
_symmetry_cell_setting           monoclinic
_symmetry_space_group_name_H-M   'C 2/c'
_symmetry_Int_Tables_number      15
_space_group_name_Hall           '-C 2yn'
loop_
_symmetry_equiv_pos_site_id
_symmetry_equiv_pos_as_xyz
1 x,y,z
2 1/2+x,1/2+y,z
3 -x,y,1/2-z
4 1/2-x,1/2+y,1/2-z
5 -x,-y,-z
6 1/2-x,1/2-y,-z
7 x,-y,1/2+z
8 1/2+x,1/2-y,1/2+z
_cell_length_a                   19.899(12)
_cell_length_b                   13.332(8)
_cell_length_c                   16.054(10)
_cell_angle_alpha                90
_cell_angle_beta                 114.437(9)
_cell_angle_gamma                90
_cell_volume                     3877.48
loop_
_atom_site_label
_atom_site_type_symbol
_atom_site_fract_x
_atom_site_fract_y
_atom_site_fract_z
Co1 Co 0.5000 0.0000 0.0000
Co2 Co 0.2500 -0.7500 0.0000
O1 O 0.16182(12) -0.73662(16) 0.04063(15)
O3 O 0.31628(13) -0.80448(17) 0.12629(15)
O4 O 0.37543(14) -0.9074(2) 0.23932(19)
O5 O 0.14733(16) -0.71827(18) 0.16926(18)
O6 O 0.46354(14) 0.12542(18) 0.05855(16)
H2 H 0.4842(18) 0.150(3) 0.1113(15)
H3 H 0.4251(14) 0.161(3) 0.031(2)
O7 O 0.59471(14) -0.02307(17) 0.11735(15)
H4 H 0.613(2) -0.0821(16) 0.129(2)
H5 H 0.612(2) 0.012(2) 0.1651(18)
N1 N 0.44546(16) -0.10394(19) 0.04951(18)
N2 N 0.28527(15) -0.60212(18) 0.05677(18)
N3 N 0.3555(2) -0.3155(2) 0.1663(2)
H6 H 0.347(2) -0.297(3) 0.214(2)
C1 C 0.4186(2) -0.1914(3) 0.0082(2)
H7 H 0.4206 -0.2036 -0.0478
C2 C 0.3886(3) -0.2639(3) 0.0423(3)
H8 H 0.3708 -0.3231 0.0100
C3 C 0.3850(2) -0.2481(2) 0.1264(2)
C4 C 0.4115(2) -0.1568(2) 0.1689(2)
H9 H 0.4099 -0.1420 0.2246
C5 C 0.4398(2) -0.0894(2) 0.1291(2)
H10 H 0.4566 -0.0287 0.1590
C6 C 0.3555(2) -0.5760(3) 0.0901(3)
H11 H 0.3897 -0.6229 0.0889
C7 C 0.3808(2) -0.4825(3) 0.1268(4)
H12 H 0.4308 -0.4674 0.1494
C8 C 0.3315(2) -0.4122(2) 0.1296(2)
C9 C 0.2601(2) -0.4393(3) 0.0984(3)
H13 H 0.2253 -0.3947 0.1017
C10 C 0.2387(2) -0.5339(3) 0.0616(3)
H14 H 0.1889 -0.5505 0.0389
C11 C 0.17801(18) -0.8805(2) 0.1370(2)
C12 C 0.1165(2) -0.9359(3) 0.1299(2)
H15 H 0.0715 -0.9033 0.1130
C13 C 0.1203(2) -1.0384(3) 0.1472(3)
C14 C 0.1878(2) -1.0852(3) 0.1745(2)
H16 H 0.1920 -1.1535 0.1874
C15 C 0.2492(2) -1.0303(2) 0.1829(2)
H17 H 0.2944 -1.0628 0.2017
C16 C 0.24567(19) -0.9280(2) 0.1641(2)
C17 C 0.16317(18) -0.7696(2) 0.1154(2)
C18 C 0.31672(19) -0.8760(2) 0.1767(2)
C19 C 0.0550(3) -1.0998(4) 0.1396(5)
H18 H 0.0123 -1.0575 0.1213
H19 H 0.0645 -1.1297 0.1978
H20 H 0.0464 -1.1516 0.0948
Co2A Co 0.7500 0.7500 0.0000
O1E O 0.33818(12) -0.76338(16) -0.04063(15)
O3E O 0.18372(13) -0.69552(17) -0.12629(15)
O4E O 0.12457(14) -0.5926(2) -0.23932(19)
O5E O 0.35267(16) -0.78173(18) -0.16926(18)
O6D O 0.53646(14) -0.12542(18) -0.05855(16)
H2D H 0.5158(18) -0.150(3) -0.1113(15)
H3D H 0.5749(14) -0.161(3) -0.031(2)
O7D O 0.40529(14) 0.02307(17) -0.11735(15)
H4D H 0.387(2) 0.0821(16) -0.129(2)
H5D H 0.388(2) -0.012(2) -0.1651(18)
N1D N 0.55454(16) 0.10394(19) -0.04951(18)
N2D N 0.71473(15) 0.60212(18) -0.05677(18)
N2E N 0.21473(15) -0.89788(18) -0.05677(18)
N3D N 0.6445(2) 0.3155(2) -0.1663(2)
H6D H 0.653(2) 0.297(3) -0.214(2)
C1D C 0.5814(2) 0.1914(3) -0.0082(2)
H7D H 0.5794 0.2036 0.0478
C2D C 0.6114(3) 0.2639(3) -0.0423(3)
H8D H 0.6292 0.3231 -0.0100
C3D C 0.6150(2) 0.2481(2) -0.1264(2)
C4D C 0.5885(2) 0.1568(2) -0.1689(2)
H9D H 0.5901 0.1420 -0.2246
C5D C 0.5602(2) 0.0894(2) -0.1291(2)
H10D H 0.5434 0.0287 -0.1590
C6D C 0.6445(2) 0.5760(3) -0.0901(3)
H11D H 0.6103 0.6229 -0.0889
C7D C 0.6192(2) 0.4825(3) -0.1268(4)
H12D H 0.5692 0.4674 -0.1494
C8D C 0.6685(2) 0.4122(2) -0.1296(2)
C9D C 0.7399(2) 0.4393(3) -0.0984(3)
H13D H 0.7747 0.3947 -0.1017
C10D C 0.7613(2) 0.5339(3) -0.0616(3)
H14D H 0.8111 0.5505 -0.0389
C11E C 0.32199(18) -0.6195(2) -0.1370(2)
C12E C 0.3835(2) -0.5641(3) -0.1299(2)
H15E H 0.4285 -0.5967 -0.1130
C13E C 0.3797(2) -0.4616(3) -0.1472(3)
C14E C 0.3122(2) -0.4148(3) -0.1745(2)
H16E H 0.3080 -0.3465 -0.1874
C15E C 0.2508(2) -0.4697(2) -0.1829(2)
H17E H 0.2056 -0.4372 -0.2017
C16E C 0.25433(19) -0.5720(2) -0.1641(2)
C17E C 0.33683(18) -0.7304(2) -0.1154(2)
C18E C 0.18328(19) -0.6240(2) -0.1767(2)
C19E C 0.4450(3) -0.4002(4) -0.1396(5)
H18E H 0.4877 -0.4425 -0.1213
H19E H 0.4355 -0.3703 -0.1978
H20E H 0.4536 -0.3484 -0.0948
O2 O 0.5000 -0.8040(5) 0.2500
H1 H 0.465(2) -0.846(4) 0.235(5)
H1B H 0.535(2) -0.846(4) 0.265(5)
loop_
_geom_bond_atom_site_label_1
_geom_bond_atom_site_label_2
_geom_bond_site_symmetry_1
_geom_bond_site_symmetry_2
Co1 O6 1_555 1_555
Co2 O1 1_555 1_555
O1 C17 1_555 1_555
O2 H1 1_555 1_555
O3 Co2 1_555 1_555
O4 C18 1_555 1_555
O5 C17 1_555 1_555
O6 H2 1_555 1_555
H3 O6 1_555 1_555
O7 Co1 1_555 1_555
H4 O7 1_555 1_555
H5 O7 1_555 1_555
N1 Co1 1_555 1_555
N2 Co2 1_555 1_555
N3 H6 1_555 1_555
C1 N1 1_555 1_555
H7 C1 1_555 1_555
C2 C1 1_555 1_555
H8 C2 1_555 1_555
C3 N3 1_555 1_555
C4 C3 1_555 1_555
H9 C4 1_555 1_555
C5 N1 1_555 1_555
H10 C5 1_555 1_555
C6 N2 1_555 1_555
H11 C6 1_555 1_555
C7 C6 1_555 1_555
H12 C7 1_555 1_555
C8 N3 1_555 1_555
C9 C8 1_555 1_555
H13 C9 1_555 1_555
C10 N2 1_555 1_555
H14 C10 1_555 1_555
C11 C12 1_555 1_555
C12 H15 1_555 1_555
C13 C12 1_555 1_555
C14 C13 1_555 1_555
H16 C14 1_555 1_555
C15 C14 1_555 1_555
H17 C15 1_555 1_555
C16 C11 1_555 1_555
C17 C11 1_555 1_555
C18 O3 1_555 1_555
C19 C13 1_555 1_555
H18 C19 1_555 1_555
H19 C19 1_555 1_555
H20 C19 1_555 1_555
Co2A N2D 1_555 1_555
O1E Co2 1_555 1_555
H1B O2 1_555 1_555
O3E Co2 1_555 1_555
O4E C18E 1_555 1_555
O5E C17E 1_555 1_555
O6D Co1 1_555 1_555
H2D O6D 1_555 1_555
H3D O6D 1_555 1_555
O7D Co1 1_555 1_555
H4D O7D 1_555 1_555
H5D O7D 1_555 1_555
N1D Co1 1_555 1_555
N2D C6D 1_555 1_555
N2E Co2 1_555 1_555
N3D H6D 1_555 1_555
C1D N1D 1_555 1_555
H7D C1D 1_555 1_555
C2D C1D 1_555 1_555
H8D C2D 1_555 1_555
C3D N3D 1_555 1_555
C4D C3D 1_555 1_555
H9D C4D 1_555 1_555
C5D N1D 1_555 1_555
H10D C5D 1_555 1_555
C6D H11D 1_555 1_555
C7D C6D 1_555 1_555
H12D C7D 1_555 1_555
C8D N3D 1_555 1_555
C9D C8D 1_555 1_555
H13D C9D 1_555 1_555
C10D N2D 1_555 1_555
H14D C10D 1_555 1_555
C11E C12E 1_555 1_555
C12E H15E 1_555 1_555
C13E C12E 1_555 1_555
C14E C13E 1_555 1_555
H16E C14E 1_555 1_555
C15E C14E 1_555 1_555
H17E C15E 1_555 1_555
C16E C11E 1_555 1_555
C17E O1E 1_555 1_555
C18E O3E 1_555 1_555
C19E C13E 1_555 1_555
H18E C19E 1_555 1_555
H19E C19E 1_555 1_555
H20E C19E 1_555 1_555
C2 C3 1_555 1_555
C4 C5 1_555 1_555
C7 C8 1_555 1_555
C9 C10 1_555 1_555
C15 C16 1_555 1_555
C16 C18 1_555 1_555
C2D C3D 1_555 1_555
C4D C5D 1_555 1_555
C7D C8D 1_555 1_555
C9D C10D 1_555 1_555
C11E C17E 1_555 1_555
C15E C16E 1_555 1_555
C16E C18E 1_555 1_555

#END
