
#######################################################################
#
#                 Cambridge Crystallographic Data Centre
#                                CCDC 
#
#######################################################################
#
# If this CIF has been generated from an entry in the Cambridge 
# Structural Database, then it will include bibliographic, chemical, 
# crystal, experimental, refinement or atomic coordinate data resulting 
# from the CCDC's data processing and validation procedures.
#
#######################################################################

data_XEZMEW
_symmetry_cell_setting           monoclinic
_symmetry_space_group_name_H-M   'C 2/c'
_symmetry_Int_Tables_number      15
_space_group_name_Hall           '-C 2yn'
loop_
_symmetry_equiv_pos_site_id
_symmetry_equiv_pos_as_xyz
1 x,y,z
2 -x,y,1/2-z
3 1/2+x,1/2+y,z
4 1/2-x,1/2+y,1/2-z
5 -x,-y,-z
6 x,-y,1/2+z
7 1/2-x,1/2-y,-z
8 1/2+x,1/2-y,1/2+z
_cell_length_a                   34.634(2)
_cell_length_b                   5.5604(4)
_cell_length_c                   16.3988(10)
_cell_angle_alpha                90
_cell_angle_beta                 100.453(2)
_cell_angle_gamma                90
_cell_volume                     3105.65
loop_
_atom_site_label
_atom_site_type_symbol
_atom_site_fract_x
_atom_site_fract_y
_atom_site_fract_z
Zn1 Zn 1.023974(18) 0.69280(11) 0.46469(4)
Zn2 Zn 0.99826(2) 1.17187(12) 0.36174(4)
Zn3 Zn 1.0000 0.67802(18) 0.2500
O1 O 1.43998(12) 0.1917(7) 0.2813(2)
O2 O 1.44051(12) 0.5622(8) 0.3335(3)
O3 O 1.0000 1.0000 0.5000
O4 O 0.98141(10) 1.4526(6) 0.4220(2)
O5 O 1.0000 1.3313(10) 0.2500
C1 C 1.3060(2) 0.264(2) 0.3497(5)
C2 C 1.3270(2) 0.469(2) 0.3802(5)
H1 H 1.3150 0.5861 0.4095
C3 C 1.36515(19) 0.5028(15) 0.3682(4)
H2 H 1.3793 0.6429 0.3891
C4 C 1.38261(17) 0.3324(11) 0.3257(3)
C5 C 1.36142(19) 0.1285(14) 0.2962(4)
H3 H 1.3733 0.0090 0.2676
C6 C 1.3236(2) 0.0975(19) 0.3080(4)
H4 H 1.3095 -0.0423 0.2868
C7 C 1.42410(16) 0.3650(11) 0.3121(3)
O6 O 1.02273(10) 0.8540(6) 0.3503(2)
O7 O 1.07999(11) 0.6068(7) 0.4691(2)
O8 O 1.06105(12) 0.2642(8) 0.4040(3)
O9 O 1.25298(14) -0.0475(8) 0.3636(3)
N1 N 1.2507(4) 0.3517(15) 0.3721(5)
H5 H 1.2641 0.4840 0.3676
C8 C 1.08685(16) 0.4156(11) 0.4325(3)
C9 C 1.12786(17) 0.3720(11) 0.4211(3)
C10 C 1.15653(19) 0.5409(15) 0.4474(4)
H6 H 1.1501 0.6813 0.4752
C11 C 1.1944(2) 0.510(2) 0.4343(5)
H7 H 1.2138 0.6270 0.4538
C12 C 1.2043(2) 0.310(2) 0.3930(5)
C13 C 1.1762(2) 0.1373(18) 0.3680(5)
H8 H 1.1830 -0.0041 0.3413
C14 C 1.1381(2) 0.1678(13) 0.3816(4)
H9 H 1.1189 0.0478 0.3636
C15 C 1.2583(5) 0.1624(18) 0.3662(5)
Zn1A Zn 0.976026(18) 0.69280(11) 0.03531(4)
Zn2A Zn 1.00174(2) 1.17187(12) 0.13826(4)
O1A O 0.56002(12) 0.1917(7) 0.2187(2)
O2A O 0.55949(12) 0.5622(8) 0.1665(3)
O4A O 1.01859(10) 1.4526(6) 0.0780(2)
C1A C 0.6940(2) 0.264(2) 0.1503(5)
C2A C 0.6730(2) 0.469(2) 0.1198(5)
H1A H 0.6850 0.5861 0.0905
C3A C 0.63485(19) 0.5028(15) 0.1318(4)
H2A H 0.6207 0.6429 0.1109
C4A C 0.61739(17) 0.3324(11) 0.1743(3)
C5A C 0.63858(19) 0.1285(14) 0.2038(4)
H3A H 0.6267 0.0090 0.2324
C6A C 0.6764(2) 0.0975(19) 0.1920(4)
H4A H 0.6905 -0.0423 0.2132
C7A C 0.57590(16) 0.3650(11) 0.1879(3)
O6A O 0.97727(10) 0.8540(6) 0.1497(2)
O7A O 0.92001(11) 0.6068(7) 0.0309(2)
O8A O 0.93895(12) 0.2642(8) 0.0960(3)
O9A O 0.74702(14) -0.0475(8) 0.1364(3)
N1A N 0.7493(4) 0.3517(15) 0.1279(5)
H5A H 0.7359 0.4840 0.1324
C8A C 0.91315(16) 0.4156(11) 0.0675(3)
C9A C 0.87214(17) 0.3720(11) 0.0789(3)
C10A C 0.84347(19) 0.5409(15) 0.0526(4)
H6A H 0.8499 0.6813 0.0248
C11A C 0.8056(2) 0.510(2) 0.0657(5)
H7A H 0.7862 0.6270 0.0462
C12A C 0.7957(2) 0.310(2) 0.1070(5)
C13A C 0.8238(2) 0.1373(18) 0.1320(5)
H8A H 0.8170 -0.0041 0.1587
C14A C 0.8619(2) 0.1678(13) 0.1184(4)
H9A H 0.8811 0.0478 0.1364
C15A C 0.7417(5) 0.1624(18) 0.1338(5)
Zn1_2 Zn 1.023974(18) 1.69280(11) 0.46469(4)
Zn1A_2 Zn 0.976026(18) 1.69280(11) 0.03531(4)
Zn1D Zn 0.976026(18) 1.30720(11) 0.53531(4)
Zn1E Zn 1.023974(18) 1.30720(11) -0.03531(4)
Zn2_2 Zn 0.99826(2) 0.17187(12) 0.36174(4)
Zn2A_2 Zn 1.00174(2) 0.17187(12) 0.13826(4)
Zn2B Zn 1.49826(2) 0.67187(12) 0.36174(4)
Zn2C Zn 0.50174(2) 0.67187(12) 0.13826(4)
Zn2D Zn 1.00174(2) 0.82813(12) 0.63826(4)
Zn3_2 Zn 1.0000 1.67802(18) 0.2500
Zn3B Zn 0.5000 0.17802(18) 0.2500
Zn3B_2 Zn 1.5000 0.17802(18) 0.2500
O1B O 0.93998(12) 0.6917(7) 0.2813(2)
O1C O 1.06002(12) 0.6917(7) 0.2187(2)
O2B O 0.94051(12) 1.0622(8) 0.3335(3)
O2C O 1.05949(12) 1.0622(8) 0.1665(3)
O3A O 1.0000 1.0000 0.0000
O4_2 O 0.98141(10) 0.4526(6) 0.4220(2)
O4A_2 O 1.01859(10) 0.4526(6) 0.0780(2)
O4D O 1.01859(10) 0.5474(6) 0.5780(2)
O4E O 0.98141(10) 0.5474(6) -0.0780(2)
O5_2 O 1.0000 0.3313(10) 0.2500
O8_2 O 1.06105(12) 1.2642(8) 0.4040(3)
O8A_2 O 0.93895(12) 1.2642(8) 0.0960(3)
loop_
_geom_bond_atom_site_label_1
_geom_bond_atom_site_label_2
_geom_bond_site_symmetry_1
_geom_bond_site_symmetry_2
Zn1 O3 1_555 1_555
Zn2 O3 1_555 1_555
Zn3 O6 1_555 1_555
O1 C7 1_555 1_555
O2 C7 1_555 1_555
O3 Zn1D 1_555 1_555
O4 Zn2 1_555 1_555
O5 Zn2 1_555 1_555
C1 C2 1_555 1_555
C2 H1 1_555 1_555
C3 C2 1_555 1_555
H2 C3 1_555 1_555
C4 C3 1_555 1_555
C5 C4 1_555 1_555
H3 C5 1_555 1_555
C6 C1 1_555 1_555
H4 C6 1_555 1_555
C7 C4 1_555 1_555
O6 Zn1 1_555 1_555
O7 Zn1 1_555 1_555
O8 C8 1_555 1_555
O9 C15 1_555 1_555
N1 H5 1_555 1_555
C8 O7 1_555 1_555
C9 C8 1_555 1_555
C10 C9 1_555 1_555
H6 C10 1_555 1_555
C11 C10 1_555 1_555
H7 C11 1_555 1_555
C12 N1 1_555 1_555
C13 C12 1_555 1_555
H8 C13 1_555 1_555
C14 C9 1_555 1_555
H9 C14 1_555 1_555
C15 C1 1_555 1_555
Zn1A O6A 1_555 1_555
Zn2A O5 1_555 1_555
O1A C7A 1_555 1_555
O2A C7A 1_555 1_555
O4A Zn2A 1_555 1_555
C1A C2A 1_555 1_555
C2A H1A 1_555 1_555
C3A C2A 1_555 1_555
H2A C3A 1_555 1_555
C4A C3A 1_555 1_555
C5A C4A 1_555 1_555
H3A C5A 1_555 1_555
C6A C1A 1_555 1_555
H4A C6A 1_555 1_555
C7A C4A 1_555 1_555
O6A Zn3 1_555 1_555
O7A Zn1A 1_555 1_555
O8A C8A 1_555 1_555
O9A C15A 1_555 1_555
N1A H5A 1_555 1_555
C8A O7A 1_555 1_555
C9A C8A 1_555 1_555
C10A C9A 1_555 1_555
H6A C10A 1_555 1_555
C11A C10A 1_555 1_555
H7A C11A 1_555 1_555
C12A N1A 1_555 1_555
C13A C12A 1_555 1_555
H8A C13A 1_555 1_555
C14A C9A 1_555 1_555
H9A C14A 1_555 1_555
C15A C1A 1_555 1_555
Zn1_2 O4 1_555 1_555
Zn1A_2 O4A 1_555 1_555
Zn1D O4 1_555 1_555
Zn1E O4A 1_555 1_555
Zn2_2 O8 1_555 1_555
Zn2A_2 O8A 1_555 1_555
Zn2B O2 1_555 1_555
Zn2C O2A 1_555 1_555
Zn2D O3 1_555 1_555
Zn3_2 O5 1_555 1_555
Zn3B O1A 1_555 1_555
Zn3B_2 O1 1_555 1_555
O1B Zn3 1_555 1_555
O1C Zn3 1_555 1_555
O2B Zn2 1_555 1_555
O2C Zn2A 1_555 1_555
O3A Zn1A 1_555 1_555
O4_2 Zn1 1_555 1_555
O4A_2 Zn1A 1_555 1_555
O4D Zn1 1_555 1_555
O4E Zn1A 1_555 1_555
O5_2 Zn3 1_555 1_555
O8_2 Zn2 1_555 1_555
O8A_2 Zn2A 1_555 1_555
Zn2 O6 1_555 1_555
C5 C6 1_555 1_555
N1 C15 1_555 1_555
C11 C12 1_555 1_555
C13 C14 1_555 1_555
Zn2A O6A 1_555 1_555
Zn2A O3A 1_555 1_555
C5A C6A 1_555 1_555
N1A C15A 1_555 1_555
C11A C12A 1_555 1_555
C13A C14A 1_555 1_555
Zn1E O3A 1_555 1_555
Zn2_2 O4_2 1_555 1_555
Zn2_2 O5_2 1_555 1_555
Zn2A_2 O4A_2 1_555 1_555
Zn2A_2 O5_2 1_555 1_555
Zn2D O4D 1_555 1_555

#END
