
#######################################################################
#
#                 Cambridge Crystallographic Data Centre
#                                CCDC 
#
#######################################################################
#
# If this CIF has been generated from an entry in the Cambridge 
# Structural Database, then it will include bibliographic, chemical, 
# crystal, experimental, refinement or atomic coordinate data resulting 
# from the CCDC's data processing and validation procedures.
#
#######################################################################

data_XEZMUK
_symmetry_cell_setting           rhombohedral
_symmetry_space_group_name_H-M   'R -3'
_symmetry_Int_Tables_number      148
_space_group_name_Hall           '-R 3'
loop_
_symmetry_equiv_pos_site_id
_symmetry_equiv_pos_as_xyz
1 x,y,z
2 -y,x-y,z
3 -x+y,-x,z
4 2/3+x,1/3+y,1/3+z
5 2/3-y,1/3+x-y,1/3+z
6 2/3-x+y,1/3-x,1/3+z
7 1/3+x,2/3+y,2/3+z
8 2/3+y,1/3-x+y,1/3-z
9 2/3+x-y,1/3+x,1/3-z
10 -x,-y,-z
11 y,-x+y,-z
12 x-y,x,-z
13 1/3-x,2/3-y,2/3-z
14 1/3+y,2/3-x+y,2/3-z
15 1/3+x-y,2/3+x,2/3-z
16 2/3-x,1/3-y,1/3-z
17 1/3-y,2/3+x-y,2/3+z
18 1/3-x+y,2/3-x,2/3+z
_cell_length_a                   14.9903(11)
_cell_length_b                   14.9903(11)
_cell_length_c                   12.8345(17)
_cell_angle_alpha                90
_cell_angle_beta                 90
_cell_angle_gamma                120.00
_cell_volume                     2497.64
loop_
_atom_site_label
_atom_site_type_symbol
_atom_site_fract_x
_atom_site_fract_y
_atom_site_fract_z
Co1 Co -0.11425(4) 0.01720(4) 0.18886(4)
Co2 Co 0.0000 0.0000 0.0000
O1 O 0.0000 0.0000 0.2717(3)
O2 O -0.11488(17) -0.09838(18) 0.10143(18)
O3 O -0.1047(2) 0.1433(2) 0.2703(2)
O4 O -0.1286(2) 0.2769(2) 0.2427(2)
N1 N -0.2377(2) -0.1026(3) 0.2773(2)
C1 C -0.1379(3) 0.1916(3) 0.2189(3)
C2 C -0.2503(3) -0.0828(4) 0.3860(3)
C3 C -0.3370(3) -0.1569(3) 0.2235(3)
H1 H -0.2141 -0.1556 0.2840
H2 H -0.3407 -0.1737 0.1536
H3 H -0.3382 -0.0905 0.2143
H4 H -0.1945 -0.0574 0.4239
H5 H -0.2660 -0.0142 0.3871
H6 H 0.0000 0.0000 0.3345
H7 H -0.1686 -0.1393 0.0657
C1O C -0.1954(3) 0.1417(3) 0.1144(3)
O3O O -0.2286(2) 0.1900(2) 0.0630(2)
O4O O -0.2047(2) 0.0564(2) 0.0906(2)
C3L C -0.3297(3) -0.1764(3) 0.4432(3)
N1L N -0.4290(2) -0.2307(3) 0.3894(2)
C2L C -0.4164(3) -0.2505(4) 0.2807(3)
H4L H -0.4722 -0.2759 0.2428
H5L H -0.4007 -0.3191 0.2796
H1L H -0.4526 -0.1777 0.3827
H2L H -0.3260 -0.1596 0.5131
H3L H -0.3285 -0.2428 0.4524
O2A O 0.09838(18) -0.01650(25) 0.10143(18)
H7A H 0.1393 -0.0293 0.0657
O2B O 0.01650(25) 0.11488(17) 0.10143(18)
H7B H 0.0293 0.1686 0.0657
O2I O 0.11488(17) 0.09838(18) -0.10143(18)
H7I H 0.1686 0.1393 -0.0657
O2J O -0.09838(18) 0.01650(25) -0.10143(18)
H7J H -0.1393 0.0293 -0.0657
O2K O -0.01650(25) -0.11488(17) -0.10143(18)
H7K H -0.0293 -0.1686 -0.0657
Co1A Co -0.01720(4) -0.13145(6) 0.18886(4)
Co1B Co 0.13145(6) 0.11425(4) 0.18886(4)
Co1I Co 0.11425(4) -0.01720(4) -0.18886(4)
Co1J Co 0.01720(4) 0.13145(6) -0.18886(4)
Co1K Co -0.13145(6) -0.11425(4) -0.18886(4)
O3A O -0.1433(2) -0.2480(3) 0.2703(2)
O4A O -0.2769(2) -0.4055(3) 0.2427(2)
C1A C -0.1916(3) -0.3295(4) 0.2189(3)
C1G C -0.1417(3) -0.3372(4) 0.1144(3)
O3G O -0.1900(2) -0.4187(3) 0.0630(2)
O4G O -0.0564(2) -0.2612(3) 0.0906(2)
N1A N 0.1026(3) -0.1351(4) 0.2773(2)
C2A C 0.0828(4) -0.1675(5) 0.3860(3)
C3A C 0.1569(3) -0.1801(4) 0.2235(3)
H1A H 0.1556 -0.0585 0.2840
H2A H 0.1737 -0.1670 0.1536
H3A H 0.0905 -0.2477 0.2143
H4A H 0.0574 -0.1371 0.4239
H5A H 0.0142 -0.2518 0.3871
C3M C 0.1764(3) -0.1532(4) 0.4432(3)
N1M N 0.2307(3) -0.1982(4) 0.3894(2)
C2M C 0.2505(4) -0.1658(5) 0.2807(3)
H4M H 0.2759 -0.1962 0.2428
H5M H 0.3191 -0.0815 0.2796
H1M H 0.1777 -0.2748 0.3827
H2M H 0.1596 -0.1663 0.5131
H3M H 0.2428 -0.0856 0.4524
O3B O 0.2480(3) 0.1047(2) 0.2703(2)
O4B O 0.4055(3) 0.1286(2) 0.2427(2)
C1B C 0.3295(4) 0.1379(3) 0.2189(3)
C1H C 0.3372(4) 0.1954(3) 0.1144(3)
O3H O 0.4187(3) 0.2286(2) 0.0630(2)
O4H O 0.2612(3) 0.2047(2) 0.0906(2)
N1B N 0.1351(4) 0.2377(2) 0.2773(2)
C2B C 0.1675(5) 0.2503(3) 0.3860(3)
C3B C 0.1801(4) 0.3370(3) 0.2235(3)
H1B H 0.0585 0.2141 0.2840
H2B H 0.1670 0.3407 0.1536
H3B H 0.2477 0.3382 0.2143
H4B H 0.1371 0.1945 0.4239
H5B H 0.2518 0.2660 0.3871
C3N C 0.1532(4) 0.3297(3) 0.4432(3)
N1N N 0.1982(4) 0.4290(2) 0.3894(2)
C2N C 0.1658(5) 0.4164(3) 0.2807(3)
H4N H 0.1962 0.4722 0.2428
H5N H 0.0815 0.4007 0.2796
H1N H 0.2748 0.4526 0.3827
H2N H 0.1663 0.3260 0.5131
H3N H 0.0856 0.3285 0.4524
O1I O 0.0000 0.0000 -0.2717(3)
H6I H 0.0000 0.0000 -0.3345
Co1O Co -0.21908(4) 0.31613(4) 0.14447(4)
Co1L Co -0.55242(4) -0.35053(4) 0.47781(4)
O3I O 0.1047(2) -0.1433(2) -0.2703(2)
O4F O 0.2047(2) -0.0564(2) -0.0906(2)
N1I N 0.2377(2) 0.1026(3) -0.2773(2)
O3J O 0.1433(2) 0.2480(3) -0.2703(2)
O4P O 0.0564(2) 0.2612(3) -0.0906(2)
N1J N -0.1026(3) 0.1351(4) -0.2773(2)
O3K O -0.2480(3) -0.1047(2) -0.2703(2)
O4Q O -0.2612(3) -0.2047(2) -0.0906(2)
N1K N -0.1351(4) -0.2377(2) -0.2773(2)
Co1G Co -0.31613(4) -0.53522(6) 0.14447(4)
Co1M Co 0.35053(4) -0.20188(6) 0.47781(4)
Co1H Co 0.53522(6) 0.21908(4) 0.14447(4)
Co1N Co 0.20188(6) 0.55242(4) 0.47781(4)
H1I H 0.2141 0.1556 -0.2840
H1J H -0.1556 0.0585 -0.2840
H1K H -0.0585 -0.2141 -0.2840
loop_
_geom_bond_atom_site_label_1
_geom_bond_atom_site_label_2
_geom_bond_site_symmetry_1
_geom_bond_site_symmetry_2
Co1 O1 1_555 1_555
Co2 O2 1_555 1_555
O1 H6 1_555 1_555
O2 Co1 1_555 1_555
O3 Co1 1_555 1_555
O4 C1 1_555 1_555
N1 Co1 1_555 1_555
C1 O3 1_555 1_555
C2 N1 1_555 1_555
C3 N1 1_555 1_555
H1 N1 1_555 1_555
H2 C3 1_555 1_555
H3 C3 1_555 1_555
H4 C2 1_555 1_555
H5 C2 1_555 1_555
H7 O2 1_555 1_555
C1O C1 1_555 1_555
O3O C1O 1_555 1_555
O4O Co1 1_555 1_555
C3L C2 1_555 1_555
N1L C3L 1_555 1_555
C2L C3 1_555 1_555
H4L C2L 1_555 1_555
H5L C2L 1_555 1_555
H1L N1L 1_555 1_555
H2L C3L 1_555 1_555
H3L C3L 1_555 1_555
O2A Co2 1_555 1_555
H7A O2A 1_555 1_555
O2B Co1 1_555 1_555
H7B O2B 1_555 1_555
O2I Co2 1_555 1_555
H7I O2I 1_555 1_555
O2J Co2 1_555 1_555
H7J O2J 1_555 1_555
O2K Co2 1_555 1_555
H7K O2K 1_555 1_555
Co1A O1 1_555 1_555
Co1B O1 1_555 1_555
Co1I O2I 1_555 1_555
Co1J O2I 1_555 1_555
Co1K O2J 1_555 1_555
O3A Co1A 1_555 1_555
O4A C1A 1_555 1_555
C1A O3A 1_555 1_555
C1G C1A 1_555 1_555
O3G C1G 1_555 1_555
O4G Co1A 1_555 1_555
N1A Co1A 1_555 1_555
C2A N1A 1_555 1_555
C3A N1A 1_555 1_555
H1A N1A 1_555 1_555
H2A C3A 1_555 1_555
H3A C3A 1_555 1_555
H4A C2A 1_555 1_555
H5A C2A 1_555 1_555
C3M C2A 1_555 1_555
N1M C3M 1_555 1_555
C2M C3A 1_555 1_555
H4M C2M 1_555 1_555
H5M C2M 1_555 1_555
H1M N1M 1_555 1_555
H2M C3M 1_555 1_555
H3M C3M 1_555 1_555
O3B Co1B 1_555 1_555
O4B C1B 1_555 1_555
C1B O3B 1_555 1_555
C1H C1B 1_555 1_555
O3H C1H 1_555 1_555
O4H Co1B 1_555 1_555
N1B Co1B 1_555 1_555
C2B N1B 1_555 1_555
C3B N1B 1_555 1_555
H1B N1B 1_555 1_555
H2B C3B 1_555 1_555
H3B C3B 1_555 1_555
H4B C2B 1_555 1_555
H5B C2B 1_555 1_555
C3N C2B 1_555 1_555
N1N C3N 1_555 1_555
C2N C3B 1_555 1_555
H4N C2N 1_555 1_555
H5N C2N 1_555 1_555
H1N N1N 1_555 1_555
H2N C3N 1_555 1_555
H3N C3N 1_555 1_555
O1I Co1I 1_555 1_555
H6I O1I 1_555 1_555
Co1O O4 1_555 1_555
Co1L N1L 1_555 1_555
O3I Co1I 1_555 1_555
O4F Co1I 1_555 1_555
N1I Co1I 1_555 1_555
O3J Co1J 1_555 1_555
O4P Co1J 1_555 1_555
N1J Co1J 1_555 1_555
O3K Co1K 1_555 1_555
O4Q Co1K 1_555 1_555
N1K Co1K 1_555 1_555
Co1G O4A 1_555 1_555
Co1M N1M 1_555 1_555
Co1H O4B 1_555 1_555
Co1N N1N 1_555 1_555
H1I N1I 1_555 1_555
H1J N1J 1_555 1_555
H1K N1K 1_555 1_555
Co2 O2B 1_555 1_555
O2 Co1A 1_555 1_555
C1O O4O 1_555 1_555
O3O Co1O 1_555 1_555
N1L C2L 1_555 1_555
O2A Co1A 1_555 1_555
O2A Co1B 1_555 1_555
O2B Co1B 1_555 1_555
O2J Co1J 1_555 1_555
O2K Co1K 1_555 1_555
O2K Co1I 1_555 1_555
Co1J O1I 1_555 1_555
Co1K O1I 1_555 1_555
C1G O4G 1_555 1_555
O3G Co1G 1_555 1_555
N1M C2M 1_555 1_555
C1H O4H 1_555 1_555
O3H Co1H 1_555 1_555
N1N C2N 1_555 1_555

#END
