
#######################################################################
#
#                 Cambridge Crystallographic Data Centre
#                                CCDC 
#
#######################################################################
#
# If this CIF has been generated from an entry in the Cambridge 
# Structural Database, then it will include bibliographic, chemical, 
# crystal, experimental, refinement or atomic coordinate data resulting 
# from the CCDC's data processing and validation procedures.
#
#######################################################################

data_XEZMAS
_symmetry_cell_setting           monoclinic
_symmetry_space_group_name_H-M   'C c'
_symmetry_Int_Tables_number      9
_space_group_name_Hall           'C -2yc'
loop_
_symmetry_equiv_pos_site_id
_symmetry_equiv_pos_as_xyz
1 x,y,z
2 x,-y,1/2+z
3 1/2+x,1/2+y,z
4 1/2+x,1/2-y,1/2+z
_cell_length_a                   6.9058(8)
_cell_length_b                   35.954(4)
_cell_length_c                   6.0158(7)
_cell_angle_alpha                90
_cell_angle_beta                 95.749(4)
_cell_angle_gamma                90
_cell_volume                     1486.16
loop_
_atom_site_label
_atom_site_type_symbol
_atom_site_fract_x
_atom_site_fract_y
_atom_site_fract_z
N1 N -0.1815(19) 0.2709(3) 0.861(3)
H1 H -0.1803 0.2609 0.7278
Ni1 Ni -0.2040(4) 0.49889(3) 0.5718(4)
O1 O -0.1800(11) 0.25887(18) 1.2066(12)
O2 O -0.2170(9) 0.44511(16) 0.6352(9)
O3 O -0.2997(10) 0.07071(16) 0.9421(12)
O4 O -0.0855(10) 0.07546(18) 0.6875(11)
O5 O -0.4095(9) 0.51063(19) 0.7924(11)
H2 H -0.4373 0.5281 0.8023
H3 H -0.4897 0.4997 0.8266
O6 O 0.0005(9) 0.49000(18) 0.3445(11)
H4 H 0.0592 0.4616 0.3640
H5 H 0.0847 0.5079 0.3774
O7 O -0.1883(9) 0.44751(16) 1.0096(10)
C1 C -0.1806(17) 0.2482(3) 1.021(2)
C2 C -0.1848(16) 0.2075(3) 0.929(3)
C3 C -0.1201(16) 0.1931(3) 0.742(3)
H6 H -0.0742 0.2096 0.6354
C4 C -0.1182(14) 0.1540(3) 0.700(2)
H7 H -0.0708 0.1441 0.5689
C5 C -0.1904(17) 0.13079(19) 0.8611(17)
C6 C -0.2594(14) 0.1465(3) 1.049(2)
H8 H -0.298(16) 0.130(3) 1.157(18)
C7 C -0.2544(14) 0.1838(3) 1.081(3)
H9 H -0.2999 0.1938 1.2127
C8 C -0.1928(18) 0.08965(17) 0.830(2)
C9 C -0.2005(17) 0.42994(16) 0.823(2)
C10 C -0.1944(18) 0.38860(18) 0.844(2)
C11 C -0.1392(15) 0.3715(2) 1.0448(19)
H10 H -0.1044 0.3863 1.1736
C12 C -0.1335(14) 0.3332(3) 1.062(2)
H11 H -0.0959 0.3217 1.2020
C13 C -0.1843(18) 0.3112(2) 0.869(2)
C14 C -0.2390(15) 0.3284(3) 0.673(2)
H12 H -0.2755 0.3136 0.5450
C15 C -0.2442(14) 0.3666(2) 0.6502(19)
H13 H -0.2802 0.3779 0.5092
Ni1A Ni -0.2040(4) 0.50111(3) 0.0718(4)
Ni1A_2 Ni -0.2040(4) 0.50111(3) 1.0718(4)
O5A O -0.4095(9) 0.48937(19) 0.2924(11)
O6A O 0.0005(9) 0.51000(18) 0.8445(11)
O7A O -0.1883(9) 0.55249(16) 0.5096(10)
O8 O -0.2022(12) 0.03625(11) 0.3275(14)
H14 H -0.2301 0.0512 0.1923
H15 H -0.1929 0.0487 0.4144
loop_
_geom_bond_atom_site_label_1
_geom_bond_atom_site_label_2
_geom_bond_site_symmetry_1
_geom_bond_site_symmetry_2
N1 H1 1_555 1_555
Ni1 O2 1_555 1_555
O1 C1 1_555 1_555
O2 C9 1_555 1_555
O3 C8 1_555 1_555
O4 C8 1_555 1_555
O5 Ni1 1_555 1_555
H2 O5 1_555 1_555
H3 O5 1_555 1_555
O6 Ni1 1_555 1_555
H4 O6 1_555 1_555
H5 O6 1_555 1_555
O7 C9 1_555 1_555
C1 N1 1_555 1_555
C2 C1 1_555 1_555
C3 C2 1_555 1_555
H6 C3 1_555 1_555
C4 C3 1_555 1_555
H7 C4 1_555 1_555
C5 C4 1_555 1_555
C6 C5 1_555 1_555
H8 C6 1_555 1_555
C7 C2 1_555 1_555
H9 C7 1_555 1_555
C8 C5 1_555 1_555
C9 C10 1_555 1_555
C10 C11 1_555 1_555
C11 H10 1_555 1_555
C12 C11 1_555 1_555
H11 C12 1_555 1_555
C13 N1 1_555 1_555
C14 C13 1_555 1_555
H12 C14 1_555 1_555
C15 C10 1_555 1_555
H13 C15 1_555 1_555
O8 H14 1_555 1_555
H15 O8 1_555 1_555
Ni1A O6 1_555 1_555
Ni1A_2 O5 1_555 1_555
O5A Ni1 1_555 1_555
O6A Ni1 1_555 1_555
O7A Ni1 1_555 1_555
O7 Ni1A_2 1_555 1_555
C6 C7 1_555 1_555
C12 C13 1_555 1_555
C14 C15 1_555 1_555
Ni1A O5A 1_555 1_555
Ni1A_2 O6A 1_555 1_555

#END
