
#######################################################################
#
#                 Cambridge Crystallographic Data Centre
#                                CCDC 
#
#######################################################################
#
# If this CIF has been generated from an entry in the Cambridge 
# Structural Database, then it will include bibliographic, chemical, 
# crystal, experimental, refinement or atomic coordinate data resulting 
# from the CCDC's data processing and validation procedures.
#
#######################################################################

data_XEZMOG
_symmetry_cell_setting           monoclinic
_symmetry_space_group_name_H-M   'P 21/c'
_symmetry_Int_Tables_number      14
_space_group_name_Hall           '-P 2ybc'
loop_
_symmetry_equiv_pos_site_id
_symmetry_equiv_pos_as_xyz
1 x,y,z
2 -x,1/2+y,1/2-z
3 -x,-y,-z
4 x,1/2-y,1/2+z
_cell_length_a                   16.0892(4)
_cell_length_b                   11.7307(3)
_cell_length_c                   7.2224(2)
_cell_angle_alpha                90
_cell_angle_beta                 97.8410(10)
_cell_angle_gamma                90
_cell_volume                     1350.39
loop_
_atom_site_label
_atom_site_type_symbol
_atom_site_fract_x
_atom_site_fract_y
_atom_site_fract_z
N1 N -0.04146(11) 0.63039(15) -0.2389(2)
H1 H -0.0213 0.6995 -0.2496
Cd1 Cd 0.470645(8) 0.641315(12) 0.04378(2)
O1 O -0.40406(8) 0.72374(12) -0.00352(19)
O2 O -0.41976(8) 0.54289(12) -0.0778(2)
O3 O -0.00672(9) 0.44215(12) -0.2497(2)
O4 O 0.35267(9) 0.78508(14) -0.4240(2)
O5 O 0.41065(9) 0.63257(12) -0.2758(2)
C1 C -0.37608(13) 0.63271(17) -0.0670(3)
C2 C -0.29037(13) 0.63086(17) -0.1226(3)
C3 C -0.23738(13) 0.72442(18) -0.0819(3)
H2 H -0.2576 0.7909 -0.0275
C4 C -0.15562(13) 0.72075(19) -0.1204(3)
H3 H -0.1197 0.7845 -0.0915
C5 C -0.12563(13) 0.62413(19) -0.2013(3)
C6 C -0.17828(13) 0.53079(19) -0.2461(3)
H4 H -0.1584 0.4653 -0.3036
C7 C -0.26049(13) 0.53477(18) -0.2054(3)
H5 H -0.2965 0.4712 -0.2345
C8 C 0.01214(13) 0.54278(19) -0.2606(3)
C9 C 0.09784(13) 0.58275(19) -0.2939(3)
C10 C 0.11245(13) 0.6887(2) -0.3714(3)
H6 H 0.0667 0.7385 -0.4094
C11 C 0.19328(13) 0.72170(18) -0.3933(3)
H7 H 0.2028 0.7934 -0.4479
C12 C 0.26047(12) 0.64952(16) -0.3350(3)
C13 C 0.24537(13) 0.54285(18) -0.2625(3)
H8 H 0.2909 0.4924 -0.2266
C14 C 0.16458(13) 0.50951(18) -0.2421(3)
H9 H 0.1549 0.4364 -0.1925
C15 C 0.34803(12) 0.68967(18) -0.3448(3)
O6 O 0.52552(9) 0.58777(13) 0.3385(2)
H10 H 0.5626 0.6289 0.3916
H11 H 0.5427 0.5242 0.3440
Cd1_2 Cd -0.529355(8) 0.641315(12) 0.04378(2)
Cd1B Cd -0.470645(8) 0.358685(12) -0.04378(2)
Cd1C Cd 0.470645(8) 0.858685(12) -0.45622(2)
O1_2 O 0.59594(8) 0.72374(12) -0.00352(19)
O2_2 O 0.58024(8) 0.54289(12) -0.0778(2)
O2B O 0.41976(8) 0.45711(12) 0.0778(2)
O4C O 0.35267(9) 0.71492(14) 0.0760(2)
loop_
_geom_bond_atom_site_label_1
_geom_bond_atom_site_label_2
_geom_bond_site_symmetry_1
_geom_bond_site_symmetry_2
N1 H1 1_555 1_555
Cd1 O5 1_555 1_555
O1 C1 1_555 1_555
O2 C1 1_555 1_555
O3 C8 1_555 1_555
O4 C15 1_555 1_555
O5 C15 1_555 1_555
C1 C2 1_555 1_555
C2 C3 1_555 1_555
C3 H2 1_555 1_555
C4 C3 1_555 1_555
H3 C4 1_555 1_555
C5 N1 1_555 1_555
C6 C5 1_555 1_555
H4 C6 1_555 1_555
C7 C2 1_555 1_555
H5 C7 1_555 1_555
C8 N1 1_555 1_555
C9 C8 1_555 1_555
C10 C9 1_555 1_555
H6 C10 1_555 1_555
C11 C10 1_555 1_555
H7 C11 1_555 1_555
C12 C11 1_555 1_555
C13 C12 1_555 1_555
H8 C13 1_555 1_555
C14 C9 1_555 1_555
H9 C14 1_555 1_555
C15 C12 1_555 1_555
O6 Cd1 1_555 1_555
H10 O6 1_555 1_555
H11 O6 1_555 1_555
Cd1_2 O1 1_555 1_555
Cd1B O2 1_555 1_555
Cd1C O4 1_555 1_555
O1_2 Cd1 1_555 1_555
O2_2 Cd1 1_555 1_555
O2B Cd1 1_555 1_555
O4C Cd1 1_555 1_555
O2 Cd1_2 1_555 1_555
C4 C5 1_555 1_555
C6 C7 1_555 1_555
C13 C14 1_555 1_555

#END
