
#######################################################################
#
#                 Cambridge Crystallographic Data Centre
#                                CCDC 
#
#######################################################################
#
# If this CIF has been generated from an entry in the Cambridge 
# Structural Database, then it will include bibliographic, chemical, 
# crystal, experimental, refinement or atomic coordinate data resulting 
# from the CCDC's data processing and validation procedures.
#
#######################################################################

data_XEZMIA
_symmetry_cell_setting           monoclinic
_symmetry_space_group_name_H-M   'P c'
_symmetry_Int_Tables_number      7
_space_group_name_Hall           'P -2yc'
loop_
_symmetry_equiv_pos_site_id
_symmetry_equiv_pos_as_xyz
1 x,y,z
2 x,-y,1/2+z
_cell_length_a                   14.6567(8)
_cell_length_b                   5.4421(3)
_cell_length_c                   8.7148(5)
_cell_angle_alpha                90
_cell_angle_beta                 93.3830(10)
_cell_angle_gamma                90
_cell_volume                     693.909
loop_
_atom_site_label
_atom_site_type_symbol
_atom_site_fract_x
_atom_site_fract_y
_atom_site_fract_z
N1 N 0.8367(4) 0.7270(10) 1.0384(6)
H1 H 0.8585 0.5783 1.0560
Zn1 Zn 1.33543(3) 0.43014(7) 1.63080(3)
O1 O 1.3374(2) 0.1029(6) 1.5316(3)
O2 O 0.4180(2) 0.8533(7) 0.7637(4)
O3 O 0.4635(2) 0.5133(8) 0.6549(5)
O4 O 0.8655(3) 1.1328(7) 1.0620(5)
O5 O 1.30330(19) 0.6390(6) 1.3446(3)
O6 O 1.2242(3) 0.5889(6) 1.5470(4)
C1 C 0.4787(3) 0.6986(9) 0.7391(5)
C2 C 0.5726(3) 0.7269(9) 0.8107(5)
C3 C 0.5965(4) 0.9250(10) 0.9053(7)
H2 H 0.5537 1.0523 0.9205
C4 C 0.6838(5) 0.9357(14) 0.9776(8)
H3 H 0.7004 1.0722 1.0412
C5 C 0.7472(3) 0.7481(14) 0.9577(6)
C6 C 0.7243(4) 0.5545(13) 0.8640(8)
H4 H 0.7673 0.4271 0.8495
C7 C 0.6376(4) 0.5441(11) 0.7895(7)
H5 H 0.6224 0.4101 0.7230
C8 C 0.8878(4) 0.9156(11) 1.0874(7)
C9 C 0.9757(3) 0.8297(14) 1.1696(6)
C10 C 1.0499(4) 0.9758(13) 1.1541(6)
H6 H 1.0446 1.1198 1.0927
C11 C 1.1340(4) 0.9149(9) 1.2284(6)
H7 H 1.1863 1.0138 1.2148
C12 C 1.1404(3) 0.7092(8) 1.3219(5)
C13 C 1.0657(4) 0.5627(10) 1.3412(6)
H8 H 1.0703 0.4259 1.4089
C14 C 0.9836(4) 0.6158(14) 1.2611(7)
H9 H 0.9328 0.5087 1.2678
C15 C 1.2284(3) 0.6435(7) 1.4054(4)
H10 H 1.3583 0.0989 1.4425
H11 H 1.3628 0.0534 1.6224
Zn1_2 Zn 0.33543(3) 0.43014(7) 0.63080(3)
Zn1A Zn 1.33543(3) 0.56986(7) 1.13080(3)
O3_2 O 1.4635(2) 0.5133(8) 1.6549(5)
O5A O 1.30330(19) 0.3610(6) 1.8446(3)
loop_
_geom_bond_atom_site_label_1
_geom_bond_atom_site_label_2
_geom_bond_site_symmetry_1
_geom_bond_site_symmetry_2
N1 H1 1_555 1_555
Zn1 O1 1_555 1_555
O1 H10 1_555 1_555
O2 C1 1_555 1_555
O3 C1 1_555 1_555
O4 C8 1_555 1_555
O5 C15 1_555 1_555
O6 Zn1 1_555 1_555
C1 C2 1_555 1_555
C2 C3 1_555 1_555
C3 H2 1_555 1_555
C4 C3 1_555 1_555
H3 C4 1_555 1_555
C5 N1 1_555 1_555
C6 C5 1_555 1_555
H4 C6 1_555 1_555
C7 C2 1_555 1_555
H5 C7 1_555 1_555
C8 N1 1_555 1_555
C9 C8 1_555 1_555
C10 C9 1_555 1_555
H6 C10 1_555 1_555
C11 C10 1_555 1_555
H7 C11 1_555 1_555
C12 C11 1_555 1_555
C13 C12 1_555 1_555
H8 C13 1_555 1_555
C14 C9 1_555 1_555
H9 C14 1_555 1_555
C15 O6 1_555 1_555
H11 O1 1_555 1_555
Zn1_2 O3 1_555 1_555
Zn1A O5 1_555 1_555
O3_2 Zn1 1_555 1_555
O5A Zn1 1_555 1_555
C4 C5 1_555 1_555
C6 C7 1_555 1_555
C12 C15 1_555 1_555
C13 C14 1_555 1_555

#END
