
#######################################################################
#
#                 Cambridge Crystallographic Data Centre
#                                CCDC 
#
#######################################################################
#
# If this CIF has been generated from an entry in the Cambridge 
# Structural Database, then it will include bibliographic, chemical, 
# crystal, experimental, refinement or atomic coordinate data resulting 
# from the CCDC's data processing and validation procedures.
#
#######################################################################

data_XEZNAS
_symmetry_cell_setting           monoclinic
_symmetry_space_group_name_H-M   'P 21/c'
_symmetry_Int_Tables_number      14
_space_group_name_Hall           '-P 2ybc'
loop_
_symmetry_equiv_pos_site_id
_symmetry_equiv_pos_as_xyz
1 x,y,z
2 -x,1/2+y,1/2-z
3 -x,-y,-z
4 x,1/2-y,1/2+z
_cell_length_a                   11.7987(18)
_cell_length_b                   8.8744(13)
_cell_length_c                   19.840(3)
_cell_angle_alpha                90
_cell_angle_beta                 105.777(2)
_cell_angle_gamma                90
_cell_volume                     1999.11
loop_
_atom_site_label
_atom_site_type_symbol
_atom_site_fract_x
_atom_site_fract_y
_atom_site_fract_z
Sn1 Sn 0.608322(19) 0.05927(3) 0.230704(11)
N1 N 0.7289(2) -0.1081(3) 0.20156(14)
N2 N 0.8239(3) -0.0612(3) 0.18018(16)
O1 O 0.5428(2) -0.1645(3) 0.24240(12)
O2 O 0.5688(2) -0.4112(3) 0.23489(13)
O3 O 0.7620(2) 0.1757(3) 0.20499(13)
S1 S 1.00934(13) 0.05217(15) 0.11948(9)
C1 C 0.5990(3) -0.2782(4) 0.22901(16)
C2 C 0.7059(3) -0.2501(4) 0.20454(17)
C3 C 0.7763(4) -0.3754(5) 0.1866(2)
H1 H 0.8413 -0.3347 0.1721
H2 H 0.7275 -0.4341 0.1492
H3 H 0.8056 -0.4383 0.2270
C4 C 0.8305(3) 0.0881(4) 0.18361(18)
C5 C 0.9282(3) 0.1553(4) 0.16178(19)
C6 C 0.9671(3) 0.3079(4) 0.17082(17)
H4 H 0.9344 0.3834 0.1922
C7 C 1.0639(4) 0.3256(6) 0.1418(2)
H5 H 1.1031 0.4168 0.1425
C8 C 1.0939(4) 0.2011(7) 0.1137(3)
H6 H 1.1556 0.1969 0.0930
C9 C 0.5026(3) 0.1063(4) 0.12824(19)
C10 C 0.5397(4) 0.2010(5) 0.0824(2)
H7 H 0.6108 0.2524 0.0977
C11 C 0.4710(5) 0.2187(6) 0.0143(2)
H8 H 0.4954 0.2834 -0.0158
C12 C 0.3676(5) 0.1416(6) -0.0088(2)
H9 H 0.3224 0.1534 -0.0549
C13 C 0.3302(5) 0.0477(6) 0.0349(3)
H10 H 0.2596 -0.0043 0.0186
C14 C 0.3969(4) 0.0293(5) 0.1036(2)
H11 H 0.3708 -0.0349 0.1333
C15 C 0.6921(3) 0.1002(4) 0.33787(19)
C16 C 0.7854(4) 0.1983(5) 0.3597(2)
H12 H 0.8095 0.2555 0.3268
C17 C 0.8434(5) 0.2126(6) 0.4299(2)
H13 H 0.9064 0.2790 0.4439
C18 C 0.8094(5) 0.1307(6) 0.4787(3)
H14 H 0.8492 0.1404 0.5259
C19 C 0.7156(5) 0.0333(6) 0.4581(3)
H15 H 0.6917 -0.0223 0.4915
C20 C 0.6569(4) 0.0176(5) 0.3882(2)
H16 H 0.5935 -0.0484 0.3746
Sn1A Sn 0.391678(19) -0.44073(3) 0.269296(11)
O2A O 0.4312(2) 0.0888(3) 0.26511(13)
loop_
_geom_bond_atom_site_label_1
_geom_bond_atom_site_label_2
_geom_bond_site_symmetry_1
_geom_bond_site_symmetry_2
Sn1 N1 1_555 1_555
N1 N2 1_555 1_555
N2 C4 1_555 1_555
O1 Sn1 1_555 1_555
O2 C1 1_555 1_555
O3 Sn1 1_555 1_555
S1 C5 1_555 1_555
C1 O1 1_555 1_555
C2 N1 1_555 1_555
C3 C2 1_555 1_555
H1 C3 1_555 1_555
H2 C3 1_555 1_555
H3 C3 1_555 1_555
C4 O3 1_555 1_555
C5 C4 1_555 1_555
C6 C5 1_555 1_555
H4 C6 1_555 1_555
C7 C6 1_555 1_555
H5 C7 1_555 1_555
C8 S1 1_555 1_555
H6 C8 1_555 1_555
C9 Sn1 1_555 1_555
C10 C9 1_555 1_555
H7 C10 1_555 1_555
C11 C10 1_555 1_555
H8 C11 1_555 1_555
C12 C11 1_555 1_555
H9 C12 1_555 1_555
C13 C12 1_555 1_555
H10 C13 1_555 1_555
C14 C9 1_555 1_555
H11 C14 1_555 1_555
C15 Sn1 1_555 1_555
C16 C15 1_555 1_555
H12 C16 1_555 1_555
C17 C16 1_555 1_555
H13 C17 1_555 1_555
C18 C17 1_555 1_555
H14 C18 1_555 1_555
C19 C18 1_555 1_555
H15 C19 1_555 1_555
C20 C15 1_555 1_555
H16 C20 1_555 1_555
Sn1A O2 1_555 1_555
O2A Sn1 1_555 1_555
C1 C2 1_555 1_555
C7 C8 1_555 1_555
C13 C14 1_555 1_555
C19 C20 1_555 1_555

#END
