
#######################################################################
#
#                 Cambridge Crystallographic Data Centre
#                                CCDC 
#
#######################################################################
#
# If this CIF has been generated from an entry in the Cambridge 
# Structural Database, then it will include bibliographic, chemical, 
# crystal, experimental, refinement or atomic coordinate data resulting 
# from the CCDC's data processing and validation procedures.
#
#######################################################################

data_XEZQEA
_symmetry_cell_setting           orthorhombic
_symmetry_space_group_name_H-M   'P n n a'
_symmetry_Int_Tables_number      52
_space_group_name_Hall           '-P 2a 2bc'
loop_
_symmetry_equiv_pos_site_id
_symmetry_equiv_pos_as_xyz
1 x,y,z
2 1/2-x,-y,z
3 1/2-x,1/2+y,1/2-z
4 x,1/2-y,1/2-z
5 -x,-y,-z
6 1/2+x,y,-z
7 1/2+x,1/2-y,1/2+z
8 -x,1/2+y,1/2+z
_cell_length_a                   7.5888(8)
_cell_length_b                   26.134(3)
_cell_length_c                   11.4340(12)
_cell_angle_alpha                90
_cell_angle_beta                 90
_cell_angle_gamma                90
_cell_volume                     2267.66
loop_
_atom_site_label
_atom_site_type_symbol
_atom_site_fract_x
_atom_site_fract_y
_atom_site_fract_z
Mn1 Mn 1.2500 0.5000 0.61173(3)
N1 N 1.1563(2) 0.45600(6) 0.77538(14)
O1 O 0.99241(19) 0.53862(5) 0.63267(12)
O2 O 0.8173(2) 0.56435(5) 0.48748(13)
C1 C 1.0195(4) 0.38668(10) 0.8761(3)
H1 H 0.9580 0.3560 0.8721
C2 C 1.0657(4) 0.40661(11) 0.9806(3)
H2 H 1.0368 0.3893 1.0490
C3 C 1.1567(3) 0.45306(10) 0.98696(19)
C4 C 1.2015(3) 0.47627(8) 0.88010(17)
C5 C 1.0656(3) 0.41291(8) 0.7744(2)
H3 H 1.0309 0.3995 0.7027
C6 C 0.9034(3) 0.57120(7) 0.58000(16)
C7 C 0.8934(3) 0.62463(7) 0.63076(15)
C8 C 0.7659(3) 0.65880(8) 0.5949(2)
H4 H 0.6853 0.6489 0.5380
C9 C 0.7551(3) 0.70792(8) 0.6420(2)
C10 C 0.8773(3) 0.72346(7) 0.72507(17)
C11 C 1.0064(3) 0.68927(8) 0.75926(19)
H5 H 1.0902 0.6994 0.8139
C12 C 1.0132(3) 0.64020(7) 0.71348(18)
H6 H 1.0997 0.6176 0.7390
C13 C 0.6175(11) 0.7422(2) 0.5968(7)
H7 H 0.6248 0.7746 0.6360
H8 H 0.5038 0.7273 0.6105
H9 H 0.6342 0.7471 0.5143
C14 C 1.2061(4) 0.47787(12) 1.09440(19)
H10 H 1.1762 0.4628 1.1653
N1A N 1.3437(2) 0.54400(6) 0.77538(14)
C1A C 1.4805(4) 0.61332(10) 0.8761(3)
H1A H 1.5420 0.6440 0.8721
C2A C 1.4343(4) 0.59339(11) 0.9806(3)
H2A H 1.4632 0.6107 1.0490
C3A C 1.3433(3) 0.54694(10) 0.98696(19)
C4A C 1.2985(3) 0.52373(8) 0.88010(17)
C5A C 1.4344(3) 0.58709(8) 0.7744(2)
H3A H 1.4691 0.6005 0.7027
C14A C 1.2939(4) 0.52213(12) 1.09440(19)
H10A H 1.3238 0.5372 1.1653
O1C O 0.99241(19) 0.96138(5) 0.86733(12)
O2C O 0.8173(2) 0.93565(5) 1.01252(13)
C6C C 0.9034(3) 0.92880(7) 0.92000(16)
C7C C 0.8934(3) 0.87537(7) 0.86924(15)
C8C C 0.7659(3) 0.84120(8) 0.9051(2)
H4C H 0.6853 0.8511 0.9620
C9C C 0.7551(3) 0.79208(8) 0.8580(2)
C10C C 0.8773(3) 0.77654(7) 0.77493(17)
C11C C 1.0064(3) 0.81073(8) 0.74074(19)
H5C H 1.0902 0.8006 0.6861
C12C C 1.0132(3) 0.85980(7) 0.78652(18)
H6C H 1.0997 0.8824 0.7610
C13C C 0.6175(11) 0.7578(2) 0.9032(7)
H7C H 0.6248 0.7254 0.8640
H8C H 0.5038 0.7727 0.8895
H9C H 0.6342 0.7529 0.9857
Mn1B Mn 1.2500 1.0000 0.88827(3)
Mn1D Mn 0.7500 0.5000 0.38827(3)
Mn1F Mn 0.7500 1.0000 1.11173(3)
O1A O 1.50759(19) 0.46138(5) 0.63267(12)
O2D O 1.1827(2) 0.43565(5) 0.51252(13)
O2E O 1.3173(2) 0.56435(5) 0.51252(13)
loop_
_geom_bond_atom_site_label_1
_geom_bond_atom_site_label_2
_geom_bond_site_symmetry_1
_geom_bond_site_symmetry_2
Mn1 N1 1_555 1_555
N1 C4 1_555 1_555
O1 Mn1 1_555 1_555
O2 C6 1_555 1_555
C1 H1 1_555 1_555
C2 C1 1_555 1_555
H2 C2 1_555 1_555
C3 C2 1_555 1_555
C4 C3 1_555 1_555
C5 N1 1_555 1_555
H3 C5 1_555 1_555
C6 O1 1_555 1_555
C7 C6 1_555 1_555
C8 C7 1_555 1_555
H4 C8 1_555 1_555
C9 C8 1_555 1_555
C10 C9 1_555 1_555
C11 C10 1_555 1_555
H5 C11 1_555 1_555
C12 C7 1_555 1_555
H6 C12 1_555 1_555
C13 C9 1_555 1_555
H7 C13 1_555 1_555
H8 C13 1_555 1_555
H9 C13 1_555 1_555
C14 C3 1_555 1_555
H10 C14 1_555 1_555
N1A Mn1 1_555 1_555
C1A H1A 1_555 1_555
C2A C1A 1_555 1_555
H2A C2A 1_555 1_555
C3A C2A 1_555 1_555
C4A C4 1_555 1_555
C5A N1A 1_555 1_555
H3A C5A 1_555 1_555
C14A C14 1_555 1_555
H10A C14A 1_555 1_555
O1C C6C 1_555 1_555
O2C C6C 1_555 1_555
C6C C7C 1_555 1_555
C7C C8C 1_555 1_555
C8C H4C 1_555 1_555
C9C C8C 1_555 1_555
C10C C10 1_555 1_555
C11C C10C 1_555 1_555
H5C C11C 1_555 1_555
C12C C7C 1_555 1_555
H6C C12C 1_555 1_555
C13C C9C 1_555 1_555
H7C C13C 1_555 1_555
H8C C13C 1_555 1_555
H9C C13C 1_555 1_555
Mn1B O1C 1_555 1_555
Mn1D O2 1_555 1_555
Mn1F O2C 1_555 1_555
O1A Mn1 1_555 1_555
O2D Mn1 1_555 1_555
O2E Mn1 1_555 1_555
C1 C5 1_555 1_555
C11 C12 1_555 1_555
N1A C4A 1_555 1_555
C1A C5A 1_555 1_555
C3A C4A 1_555 1_555
C3A C14A 1_555 1_555
C9C C10C 1_555 1_555
C11C C12C 1_555 1_555

#END
