
#######################################################################
#
#                 Cambridge Crystallographic Data Centre
#                                CCDC 
#
#######################################################################
#
# If this CIF has been generated from an entry in the Cambridge 
# Structural Database, then it will include bibliographic, chemical, 
# crystal, experimental, refinement or atomic coordinate data resulting 
# from the CCDC's data processing and validation procedures.
#
#######################################################################

data_XEZRIF
_symmetry_cell_setting           orthorhombic
_symmetry_space_group_name_H-M   'C 2 2 21'
_symmetry_Int_Tables_number      20
_space_group_name_Hall           'C 2n 2'
loop_
_symmetry_equiv_pos_site_id
_symmetry_equiv_pos_as_xyz
1 x,y,z
2 -x,-y,1/2+z
3 x,-y,-z
4 -x,y,1/2-z
5 1/2+x,1/2+y,z
6 1/2-x,1/2-y,1/2+z
7 1/2+x,1/2-y,-z
8 1/2-x,1/2+y,1/2-z
_cell_length_a                   17.2547(7)
_cell_length_b                   10.5045(3)
_cell_length_c                   26.6090(9)
_cell_angle_alpha                90
_cell_angle_beta                 90
_cell_angle_gamma                90
_cell_volume                     4822.93
loop_
_atom_site_label
_atom_site_type_symbol
_atom_site_fract_x
_atom_site_fract_y
_atom_site_fract_z
C19 C 0.6116(9) 2.3465(15) 1.2003(6)
H12 H 0.5594 2.3149 1.2001
H13 H 0.6173 2.4099 1.1746
H14 H 0.6229 2.3835 1.2325
C20 C 0.7515(9) 2.2978(17) 1.1896(6)
H15 H 0.7895 2.2333 1.1827
H16 H 0.7620 2.3356 1.2217
H17 H 0.7538 2.3620 1.1640
N1 N 0.6682(6) 2.2359(11) 1.1901(4)
H18 H 0.6647 2.2528 1.1571
H19 H 0.6552 2.1543 1.1842
Sr1 Sr 1.01588(4) 1.49998(9) 0.90407(3)
Sr2 Sr 0.91261(4) 1.20812(7) 1.00818(3)
Sr3 Sr 1.0000 1.57253(10) 0.7500
C1 C 0.7606(4) 1.4983(9) 0.9343(3)
C2 C 0.7193(5) 1.3850(8) 0.9339(3)
H1 H 0.7461 1.3082 0.9337
C3 C 0.6399(5) 1.3839(8) 0.9338(3)
C4 C 0.6007(4) 1.4959(9) 0.9336(3)
H2 H 0.5468 1.4958 0.9346
C5 C 0.6404(5) 1.6100(8) 0.9319(3)
C6 C 0.7205(5) 1.6119(8) 0.9316(3)
H3 H 0.7471 1.6887 0.9296
C7 C 0.8478(4) 1.4958(10) 0.9391(3)
C8 C 0.5979(6) 1.2562(8) 0.9361(3)
C9 C 0.5959(6) 1.7351(8) 0.9317(3)
C10 C 1.2235(5) 1.6594(8) 0.8301(4)
C11 C 1.2563(5) 1.5710(8) 0.8608(3)
H4 H 1.2266 1.5021 0.8714
C12 C 1.3322(5) 1.5803(8) 0.8767(3)
C13 C 1.3760(5) 1.6817(8) 0.8604(3)
H5 H 1.4267 1.6897 0.8718
C14 C 1.3466(5) 1.7744(8) 0.8268(3)
C15 C 1.2683(5) 1.7615(8) 0.8130(4)
H6 H 1.2459 1.8220 0.7920
C16 C 1.1396(6) 1.6494(9) 0.8124(4)
C17 C 1.3670(5) 1.4829(9) 0.9107(4)
C18 C 1.3963(5) 1.8775(8) 0.8056(4)
O1 O 0.8815(3) 1.3905(5) 0.9452(2)
O2 O 1.0457(5) 1.5000 1.0000
O3 O 0.8840(3) 1.5978(5) 0.9353(2)
O4 O 0.7672(3) 1.1338(5) 1.0001(3)
H7 H 0.7657 1.0529 0.9995
H8 H 0.7256 1.1853 0.9985
O5 O 0.6256(4) 1.8279(5) 0.9095(3)
O6 O 0.9462(4) 1.6943(8) 0.8345(3)
H9 H 0.9187 1.7660 0.8395
H10 H 0.9905 1.7395 0.8359
O7 O 0.5318(4) 1.7409(5) 0.9519(3)
O8 O 0.5253(4) 1.2558(5) 0.9295(2)
O9 O 0.6365(3) 1.1579(5) 0.9450(3)
O10 O 1.1141(4) 1.7226(6) 0.7802(3)
O11 O 1.1005(3) 1.5596(6) 0.8315(2)
O12 O 1.3518(4) 1.3704(6) 0.9035(3)
O13 O 1.4102(3) 1.5208(5) 0.9463(2)
O14 O 1.3756(4) 1.9311(6) 0.7657(2)
O15 O 1.4610(4) 1.9031(5) 0.8258(2)
H11 H 1.070(4) 1.550(7) 0.991(4)
H11B H 1.070(4) 1.450(7) 1.009(4)
Sr1B Sr 1.01588(4) 1.50002(9) 1.09593(3)
Sr2B Sr 0.91261(4) 1.79188(7) 0.99182(3)
C1B C 0.7606(4) 1.5017(9) 1.0657(3)
C2B C 0.7193(5) 1.6150(8) 1.0661(3)
H1B H 0.7461 1.6918 1.0663
C3B C 0.6399(5) 1.6161(8) 1.0662(3)
C4B C 0.6007(4) 1.5041(9) 1.0664(3)
H2B H 0.5468 1.5042 1.0654
C5B C 0.6404(5) 1.3900(8) 1.0681(3)
C6B C 0.7205(5) 1.3881(8) 1.0684(3)
H3B H 0.7471 1.3113 1.0704
C7B C 0.8478(4) 1.5042(10) 1.0609(3)
C8B C 0.5979(6) 1.7438(8) 1.0639(3)
C9B C 0.5959(6) 1.2649(8) 1.0683(3)
C10B C 1.2235(5) 1.3406(8) 1.1699(4)
C11B C 1.2563(5) 1.4290(8) 1.1392(3)
H4B H 1.2266 1.4979 1.1286
C12B C 1.3322(5) 1.4197(8) 1.1233(3)
C13B C 1.3760(5) 1.3183(8) 1.1396(3)
H5B H 1.4267 1.3103 1.1282
C14B C 1.3466(5) 1.2256(8) 1.1732(3)
C15B C 1.2683(5) 1.2385(8) 1.1870(4)
H6B H 1.2459 1.1780 1.2080
C16B C 1.1396(6) 1.3506(9) 1.1876(4)
C17B C 1.3670(5) 1.5171(9) 1.0893(4)
C18B C 1.3963(5) 1.1225(8) 1.1944(4)
O1B O 0.8815(3) 1.6095(5) 1.0548(2)
O3B O 0.8840(3) 1.4022(5) 1.0647(2)
O4B O 0.7672(3) 1.8662(5) 0.9999(3)
H7B H 0.7657 1.9471 1.0005
H8B H 0.7256 1.8147 1.0015
O5B O 0.6256(4) 1.1721(5) 1.0905(3)
O6B O 0.9462(4) 1.3057(8) 1.1655(3)
H9B H 0.9187 1.2340 1.1605
H10B H 0.9905 1.2605 1.1641
O7B O 0.5318(4) 1.2591(5) 1.0481(3)
O8B O 0.5253(4) 1.7442(5) 1.0705(2)
O9B O 0.6365(3) 1.8421(5) 1.0550(3)
O10B O 1.1141(4) 1.2774(6) 1.2198(3)
O11B O 1.1005(3) 1.4404(6) 1.1685(2)
O12B O 1.3518(4) 1.6296(6) 1.0965(3)
O13B O 1.4102(3) 1.4792(5) 1.0537(2)
O14B O 1.3756(4) 1.0689(6) 1.2343(2)
O15B O 1.4610(4) 1.0969(5) 1.1742(2)
Sr1D Sr 0.51588(4) 0.99998(9) 0.90407(3)
Sr1D_2 Sr 0.51588(4) 1.99998(9) 0.90407(3)
Sr1D_3 Sr 1.51588(4) 1.99998(9) 0.90407(3)
Sr1F Sr 0.51588(4) 1.00002(9) 1.09593(3)
Sr1F_2 Sr 0.51588(4) 2.00002(9) 1.09593(3)
Sr1F_3 Sr 1.51588(4) 1.00002(9) 1.09593(3)
Sr2D Sr 0.41261(4) 1.70812(7) 1.00818(3)
Sr2D_2 Sr 1.41261(4) 1.70812(7) 1.00818(3)
Sr2F Sr 0.41261(4) 1.29188(7) 0.99182(3)
Sr2F_2 Sr 1.41261(4) 1.29188(7) 0.99182(3)
Sr3A Sr 1.0000 1.42747(10) 1.2500
Sr3D Sr 1.5000 2.07253(10) 0.7500
Sr3E Sr 1.5000 0.92747(10) 1.2500
O5D O 1.1256(4) 1.3279(5) 0.9095(3)
O5F O 1.1256(4) 1.6721(5) 1.0905(3)
O6C O 1.0538(4) 1.6943(8) 0.6655(3)
O7D O 1.0318(4) 1.2409(5) 0.9519(3)
O7F O 1.0318(4) 1.7591(5) 1.0481(3)
O8D O 1.0253(4) 1.7558(5) 0.9295(2)
O8F O 1.0253(4) 1.2442(5) 1.0705(2)
O9D O 1.1365(3) 1.6579(5) 0.9450(3)
O9F O 1.1365(3) 1.3421(5) 1.0550(3)
O10C O 0.8859(4) 1.7226(6) 0.7198(3)
O11C O 0.8995(3) 1.5596(6) 0.6685(2)
O12D O 0.8518(4) 1.8704(6) 0.9035(3)
O12F O 0.8518(4) 1.1296(6) 1.0965(3)
O13D O 0.9102(3) 1.0208(5) 0.9463(2)
O13D_2 O 0.9102(3) 2.0208(5) 0.9463(2)
O13F O 0.9102(3) 0.9792(5) 1.0537(2)
O13F_2 O 0.9102(3) 1.9792(5) 1.0537(2)
O14D O 0.8756(4) 1.4311(6) 0.7657(2)
O14G O 1.1244(4) 1.4311(6) 0.7343(2)
O15D O 0.9610(4) 1.4031(5) 0.8258(2)
O15F O 0.9610(4) 1.5969(5) 1.1742(2)
O15G O 1.0390(4) 1.4031(5) 0.6742(2)
loop_
_geom_bond_atom_site_label_1
_geom_bond_atom_site_label_2
_geom_bond_site_symmetry_1
_geom_bond_site_symmetry_2
Sr1 O1 1_555 1_555
Sr2 O1 1_555 1_555
Sr3 O6 1_555 1_555
C1 C2 1_555 1_555
C2 H1 1_555 1_555
C3 C2 1_555 1_555
C4 C3 1_555 1_555
H2 C4 1_555 1_555
C5 C4 1_555 1_555
C6 C1 1_555 1_555
H3 C6 1_555 1_555
C7 C1 1_555 1_555
C8 C3 1_555 1_555
C9 C5 1_555 1_555
C10 C11 1_555 1_555
C11 H4 1_555 1_555
C12 C11 1_555 1_555
C13 C12 1_555 1_555
H5 C13 1_555 1_555
C14 C13 1_555 1_555
C15 C10 1_555 1_555
H6 C15 1_555 1_555
C16 C10 1_555 1_555
C17 C12 1_555 1_555
C18 C14 1_555 1_555
O1 C7 1_555 1_555
O2 Sr1 1_555 1_555
O3 Sr1 1_555 1_555
O4 Sr2 1_555 1_555
H7 O4 1_555 1_555
H8 O4 1_555 1_555
O5 C9 1_555 1_555
O6 Sr1 1_555 1_555
H9 O6 1_555 1_555
H10 O6 1_555 1_555
O7 C9 1_555 1_555
O8 C8 1_555 1_555
O9 C8 1_555 1_555
O10 Sr3 1_555 1_555
O11 Sr1 1_555 1_555
O12 C17 1_555 1_555
O13 C17 1_555 1_555
O14 C18 1_555 1_555
O15 C18 1_555 1_555
H11 O2 1_555 1_555
C19 H12 1_555 1_555
H13 C19 1_555 1_555
H14 C19 1_555 1_555
C20 H15 1_555 1_555
H16 C20 1_555 1_555
H17 C20 1_555 1_555
N1 C19 1_555 1_555
H18 N1 1_555 1_555
H19 N1 1_555 1_555
H11B O2 1_555 1_555
Sr1B O2 1_555 1_555
Sr2B O3 1_555 1_555
C1B C2B 1_555 1_555
C2B H1B 1_555 1_555
C3B C2B 1_555 1_555
C4B C3B 1_555 1_555
H2B C4B 1_555 1_555
C5B C4B 1_555 1_555
C6B C1B 1_555 1_555
H3B C6B 1_555 1_555
C7B C1B 1_555 1_555
C8B C3B 1_555 1_555
C9B C5B 1_555 1_555
C10B C11B 1_555 1_555
C11B H4B 1_555 1_555
C12B C11B 1_555 1_555
C13B C12B 1_555 1_555
H5B C13B 1_555 1_555
C14B C13B 1_555 1_555
C15B C10B 1_555 1_555
H6B C15B 1_555 1_555
C16B C10B 1_555 1_555
C17B C12B 1_555 1_555
C18B C14B 1_555 1_555
O1B Sr1B 1_555 1_555
O3B Sr2 1_555 1_555
O4B Sr2B 1_555 1_555
H7B O4B 1_555 1_555
H8B O4B 1_555 1_555
O5B C9B 1_555 1_555
O6B Sr1B 1_555 1_555
H9B O6B 1_555 1_555
H10B O6B 1_555 1_555
O7B C9B 1_555 1_555
O8B C8B 1_555 1_555
O9B C8B 1_555 1_555
O10B C16B 1_555 1_555
O11B Sr1B 1_555 1_555
O12B C17B 1_555 1_555
O13B C17B 1_555 1_555
O14B C18B 1_555 1_555
O15B C18B 1_555 1_555
Sr1D O8 1_555 1_555
Sr1D_2 O5 1_555 1_555
Sr1D_3 O15 1_555 1_555
Sr1F O5B 1_555 1_555
Sr1F_2 O8B 1_555 1_555
Sr1F_3 O15B 1_555 1_555
Sr2D O7 1_555 1_555
Sr2D_2 O13 1_555 1_555
Sr2F O8 1_555 1_555
Sr2F_2 O12 1_555 1_555
Sr3A O6B 1_555 1_555
Sr3D O14 1_555 1_555
Sr3E O14B 1_555 1_555
O5D Sr1 1_555 1_555
O5F Sr1B 1_555 1_555
O6C Sr3 1_555 1_555
O7D Sr1 1_555 1_555
O7F Sr1B 1_555 1_555
O8D Sr1 1_555 1_555
O8F Sr2 1_555 1_555
O9D Sr1 1_555 1_555
O9F Sr1B 1_555 1_555
O10C Sr3 1_555 1_555
O11C Sr3 1_555 1_555
O12D Sr2B 1_555 1_555
O12F Sr2 1_555 1_555
O13D Sr2 1_555 1_555
O13D_2 Sr2B 1_555 1_555
O13F Sr2 1_555 1_555
O13F_2 Sr2B 1_555 1_555
O14D Sr3 1_555 1_555
O14G Sr3 1_555 1_555
O15D Sr1 1_555 1_555
O15F Sr1B 1_555 1_555
O15G Sr3 1_555 1_555
Sr2 O7D 1_555 1_555
Sr3 O11 1_555 1_555
Sr3 O15D 1_555 1_555
C5 C6 1_555 1_555
C7 O3 1_555 1_555
C14 C15 1_555 1_555
C16 O10 1_555 1_555
C16 O11 1_555 1_555
O7 Sr1D_2 1_555 1_555
O9 Sr1D 1_555 1_555
O13 Sr2F_2 1_555 1_555
O15 Sr3D 1_555 1_555
C20 N1 1_555 1_555
Sr1B O3B 1_555 1_555
Sr1B O8F 1_555 1_555
Sr2B O1B 1_555 1_555
Sr2B O7F 1_555 1_555
Sr2B O8D 1_555 1_555
C5B C6B 1_555 1_555
C7B O1B 1_555 1_555
C7B O3B 1_555 1_555
C14B C15B 1_555 1_555
C16B O11B 1_555 1_555
O7B Sr1F 1_555 1_555
O7B Sr2F 1_555 1_555
O8B Sr2D 1_555 1_555
O9B Sr1F_2 1_555 1_555
O10B Sr3A 1_555 1_555
O11B Sr3A 1_555 1_555
O12B Sr2D_2 1_555 1_555
O13B Sr2D_2 1_555 1_555
O13B Sr2F_2 1_555 1_555
O15B Sr3E 1_555 1_555
Sr3A O15F 1_555 1_555

#END
