
#######################################################################
#
#                 Cambridge Crystallographic Data Centre
#                                CCDC 
#
#######################################################################
#
# If this CIF has been generated from an entry in the Cambridge 
# Structural Database, then it will include bibliographic, chemical, 
# crystal, experimental, refinement or atomic coordinate data resulting 
# from the CCDC's data processing and validation procedures.
#
#######################################################################

data_XEZVOP
_symmetry_cell_setting           monoclinic
_symmetry_space_group_name_H-M   'C 2/c'
_symmetry_Int_Tables_number      15
_space_group_name_Hall           '-C 2yn'
loop_
_symmetry_equiv_pos_site_id
_symmetry_equiv_pos_as_xyz
1 x,y,z
2 -x,y,1/2-z
3 1/2+x,1/2+y,z
4 1/2-x,1/2+y,1/2-z
5 -x,-y,-z
6 x,-y,1/2+z
7 1/2-x,1/2-y,-z
8 1/2+x,1/2-y,1/2+z
_cell_length_a                   20.1178(2)
_cell_length_b                   7.98150(10)
_cell_length_c                   14.03090(10)
_cell_angle_alpha                90
_cell_angle_beta                 120.9050(10)
_cell_angle_gamma                90
_cell_volume                     1933.07
loop_
_atom_site_label
_atom_site_type_symbol
_atom_site_fract_x
_atom_site_fract_y
_atom_site_fract_z
C1 C 0.84846(12) 0.5840(3) 0.46396(17)
C2 C 0.90998(13) 0.4850(3) 0.56146(18)
H1 H 0.9345 0.5571 0.6263
H2 H 0.9494 0.4505 0.5452
C3 C 0.87822(15) 0.3292(3) 0.5888(2)
H3 H 0.8462 0.2670 0.5207
H4 H 0.9214 0.2580 0.6383
C4 C 0.83084(13) 0.3662(3) 0.64221(18)
C5 C 0.60331(12) 0.5746(3) 0.10635(17)
C6 C 0.53899(13) 0.4575(3) 0.0317(2)
H5 H 0.5362 0.3679 0.0762
H6 H 0.5509 0.4075 -0.0207
Ce1 Ce 0.731002(6) 0.785060(13) 0.269796(9)
O1 O 0.83182(11) 0.7314(2) 0.47516(14)
O2 O 0.81420(10) 0.5181(2) 0.36761(13)
O3 O 0.59081(10) 0.72356(19) 0.11738(16)
O4 O 0.67297(9) 0.5171(2) 0.15885(13)
O5 O 0.81968(12) 0.5158(2) 0.65608(17)
O6 O 0.66445(11) 0.6089(2) 0.35151(15)
H7 H 0.6690 0.6513 0.4159
H8 H 0.6719 0.5061 0.3630
O7 O 0.80494(12) 0.2425(2) 0.66927(18)
C5D C 0.39669(12) 0.4254(3) -0.10635(17)
C6D C 0.46101(13) 0.5425(3) -0.0317(2)
H5D H 0.4638 0.6321 -0.0762
H6D H 0.4491 0.5925 0.0207
O3D O 0.40919(10) 0.27644(19) -0.11738(16)
O4D O 0.32703(9) 0.4829(2) -0.15885(13)
C1D C 0.15154(12) 0.4160(3) -0.46396(17)
C2D C 0.09002(13) 0.5150(3) -0.56146(18)
H1D H 0.0655 0.4429 -0.6263
H2D H 0.0506 0.5495 -0.5452
C3D C 0.12178(15) 0.6708(3) -0.5888(2)
H3D H 0.1538 0.7330 -0.5207
H4D H 0.0786 0.7420 -0.6383
C4D C 0.16916(13) 0.6338(3) -0.64221(18)
Ce1D Ce 0.268998(6) 0.214940(13) -0.269796(9)
O1D O 0.16818(11) 0.2686(2) -0.47516(14)
O2D O 0.18580(10) 0.4819(2) -0.36761(13)
O5D O 0.18032(12) 0.4842(2) -0.65608(17)
O6D O 0.33555(11) 0.3911(2) -0.35151(15)
H7D H 0.3310 0.3487 -0.4159
H8D H 0.3281 0.4939 -0.3630
O7D O 0.19506(12) 0.7575(2) -0.66927(18)
Ce1A Ce 0.268998(6) 0.785060(13) -0.769796(9)
Ce1B Ce 0.231002(6) 0.285060(13) -0.730204(9)
Ce1C Ce 0.768998(6) 0.285060(13) 0.230204(9)
Ce1E Ce 0.731002(6) 0.214940(13) 0.769796(9)
Ce1F Ce 0.768998(6) 0.714940(13) 0.730204(9)
Ce1G Ce 0.231002(6) 0.714940(13) -0.230204(9)
O2C O 0.68580(10) 1.0181(2) 0.13239(13)
O2G O 0.31420(10) -0.0181(2) -0.13239(13)
O4C O 0.82703(9) 1.0171(2) 0.34115(13)
O4G O 0.17297(9) -0.0171(2) -0.34115(13)
O5B O 0.31968(12) 0.0158(2) -0.34392(17)
O5F O 0.68032(12) 0.9842(2) 0.34392(17)
O7A O 0.19506(12) 0.2425(2) -0.16927(18)
O7E O 0.80494(12) 0.7575(2) 0.16927(18)
O8 O 0.0000 0.9923(7) 0.7500
H9 H 0.0471 0.9249 0.7652
H9A H -0.0471 0.9249 0.7348
loop_
_geom_bond_atom_site_label_1
_geom_bond_atom_site_label_2
_geom_bond_site_symmetry_1
_geom_bond_site_symmetry_2
C1 C2 1_555 1_555
C2 H1 1_555 1_555
H2 C2 1_555 1_555
C3 C2 1_555 1_555
H3 C3 1_555 1_555
H4 C3 1_555 1_555
C4 C3 1_555 1_555
C5 C6 1_555 1_555
C6 H5 1_555 1_555
H6 C6 1_555 1_555
Ce1 O1 1_555 1_555
O1 C1 1_555 1_555
O2 C1 1_555 1_555
O3 C5 1_555 1_555
O4 C5 1_555 1_555
O5 C4 1_555 1_555
O6 Ce1 1_555 1_555
H7 O6 1_555 1_555
H8 O6 1_555 1_555
O7 C4 1_555 1_555
O8 H9 1_555 1_555
C5D C6D 1_555 1_555
C6D C6 1_555 1_555
H5D C6D 1_555 1_555
H6D C6D 1_555 1_555
O3D C5D 1_555 1_555
O4D C5D 1_555 1_555
C1D C2D 1_555 1_555
C2D H1D 1_555 1_555
H2D C2D 1_555 1_555
C3D C2D 1_555 1_555
H3D C3D 1_555 1_555
H4D C3D 1_555 1_555
C4D C3D 1_555 1_555
Ce1D O3D 1_555 1_555
O1D C1D 1_555 1_555
O2D C1D 1_555 1_555
O5D C4D 1_555 1_555
O6D Ce1D 1_555 1_555
H7D O6D 1_555 1_555
H8D O6D 1_555 1_555
O7D C4D 1_555 1_555
Ce1A O7D 1_555 1_555
Ce1B O5D 1_555 1_555
Ce1C O2 1_555 1_555
Ce1E O7 1_555 1_555
Ce1F O5 1_555 1_555
Ce1G O4D 1_555 1_555
O2C Ce1 1_555 1_555
O2G Ce1D 1_555 1_555
O4C Ce1 1_555 1_555
O4G Ce1D 1_555 1_555
O5B Ce1D 1_555 1_555
O5F Ce1 1_555 1_555
O7A Ce1D 1_555 1_555
O7E Ce1 1_555 1_555
H9A O8 1_555 1_555
Ce1 O2 1_555 1_555
Ce1 O3 1_555 1_555
Ce1 O4 1_555 1_555
O4 Ce1C 1_555 1_555
O4D Ce1D 1_555 1_555
Ce1D O1D 1_555 1_555
Ce1D O2D 1_555 1_555
O2D Ce1G 1_555 1_555

#END
