
#######################################################################
#
#                 Cambridge Crystallographic Data Centre
#                                CCDC 
#
#######################################################################
#
# If this CIF has been generated from an entry in the Cambridge 
# Structural Database, then it will include bibliographic, chemical, 
# crystal, experimental, refinement or atomic coordinate data resulting 
# from the CCDC's data processing and validation procedures.
#
#######################################################################

data_XEZVIJ
_symmetry_cell_setting           monoclinic
_symmetry_space_group_name_H-M   'C 2/c'
_symmetry_Int_Tables_number      15
_space_group_name_Hall           '-C 2yn'
loop_
_symmetry_equiv_pos_site_id
_symmetry_equiv_pos_as_xyz
1 x,y,z
2 -x,y,1/2-z
3 1/2+x,1/2+y,z
4 1/2-x,1/2+y,1/2-z
5 -x,-y,-z
6 x,-y,1/2+z
7 1/2-x,1/2-y,-z
8 1/2+x,1/2-y,1/2+z
_cell_length_a                   19.7360(3)
_cell_length_b                   7.59790(10)
_cell_length_c                   13.7564(2)
_cell_angle_alpha                90
_cell_angle_beta                 121.3060(10)
_cell_angle_gamma                90
_cell_volume                     1762.47
loop_
_atom_site_label
_atom_site_type_symbol
_atom_site_fract_x
_atom_site_fract_y
_atom_site_fract_z
C1 C 0.84659(15) 0.0843(4) 0.9602(2)
C2 C 0.90946(16) -0.0169(4) 1.0615(2)
H1 H 0.9354 0.0617 1.1264
H2 H 0.9492 -0.0573 1.0451
C3 C 0.82987(16) -0.1287(4) 1.1483(2)
C4 C 0.87701(18) -0.1757(4) 1.0929(2)
H3 H 0.8433 -0.2433 1.0245
H4 H 0.9211 -0.2504 1.1445
C5 C 0.60603(16) 0.0757(4) 0.6082(2)
C6 C 0.53986(16) -0.0448(5) 0.5304(3)
H5 H 0.5380 -0.1424 0.5744
H6 H 0.5507 -0.0923 0.4745
O1 O 0.81259(11) 0.0174(3) 0.86107(15)
O2 O 0.82731(13) 0.2377(3) 0.97011(17)
O3 O 0.67820(11) 0.0178(3) 0.66193(15)
O4 O 0.59418(12) 0.2306(3) 0.62332(19)
O5 O 0.82030(12) 0.0292(3) 1.15990(17)
O6 O 0.66745(12) 0.1123(3) 0.84756(16)
H7 H 0.6733 0.1477 0.9105
H8 H 0.6758 0.0106 0.8547
O7 O 0.80272(15) -0.2554(3) 1.1775(2)
Yb1 Yb 0.730951(6) 0.281931(17) 0.770108(9)
C5D C 0.39397(16) -0.0757(4) 0.3918(2)
C6D C 0.46014(16) 0.0448(5) 0.4696(3)
H5D H 0.4620 0.1424 0.4256
H6D H 0.4493 0.0923 0.5255
O3D O 0.32180(11) -0.0178(3) 0.33807(15)
O4D O 0.40582(12) -0.2306(3) 0.37668(19)
C1D C 0.15341(15) -0.0843(4) 0.0398(2)
C2D C 0.09054(16) 0.0169(4) -0.0615(2)
H1D H 0.0646 -0.0617 -0.1264
H2D H 0.0508 0.0573 -0.0451
C3D C 0.17013(16) 0.1287(4) -0.1483(2)
C4D C 0.12299(18) 0.1757(4) -0.0929(2)
H3D H 0.1567 0.2433 -0.0245
H4D H 0.0789 0.2504 -0.1445
O1D O 0.18741(11) -0.0174(3) 0.13893(15)
O2D O 0.17269(13) -0.2377(3) 0.02989(17)
O5D O 0.17970(12) -0.0292(3) -0.15990(17)
O6D O 0.33255(12) -0.1123(3) 0.15244(16)
H7D H 0.3267 -0.1477 0.0895
H8D H 0.3242 -0.0106 0.1453
O7D O 0.19728(15) 0.2554(3) -0.1775(2)
Yb1D Yb 0.269049(6) -0.281931(17) 0.229892(9)
O1C O 0.68741(11) 0.5174(3) 0.63893(15)
O1G O 0.31259(11) -0.5174(3) 0.36107(15)
O3C O 0.82180(11) 0.5178(3) 0.83807(15)
O3G O 0.17820(11) -0.5178(3) 0.16193(15)
O5B O 0.32030(12) -0.4708(3) 0.15990(17)
O5F O 0.67970(12) 0.4708(3) 0.84010(17)
O7A O 0.19728(15) -0.2554(3) 0.3225(2)
O7E O 0.80272(15) 0.2554(3) 0.6775(2)
Yb1A Yb 0.269049(6) 0.281931(17) -0.270108(9)
Yb1B Yb 0.230951(6) -0.218069(17) -0.229892(9)
Yb1C Yb 0.769049(6) -0.218069(17) 0.729892(9)
Yb1E Yb 0.730951(6) -0.281931(17) 1.270108(9)
Yb1F Yb 0.769049(6) 0.218069(17) 1.229892(9)
Yb1G Yb 0.230951(6) 0.218069(17) 0.270108(9)
O8 O 0.5000 0.0281(9) 0.7500
H9 H 0.5412 0.0789 0.7587
H9A H 0.4588 0.0789 0.7413
loop_
_geom_bond_atom_site_label_1
_geom_bond_atom_site_label_2
_geom_bond_site_symmetry_1
_geom_bond_site_symmetry_2
C1 C2 1_555 1_555
C2 H1 1_555 1_555
H2 C2 1_555 1_555
C3 C4 1_555 1_555
C4 C2 1_555 1_555
H3 C4 1_555 1_555
H4 C4 1_555 1_555
C5 C6 1_555 1_555
C6 H5 1_555 1_555
H6 C6 1_555 1_555
O1 C1 1_555 1_555
O2 C1 1_555 1_555
O3 C5 1_555 1_555
O4 C5 1_555 1_555
O5 C3 1_555 1_555
O6 H7 1_555 1_555
H8 O6 1_555 1_555
O7 C3 1_555 1_555
Yb1 O1 1_555 1_555
O8 H9 1_555 1_555
C5D C6D 1_555 1_555
C6D C6 1_555 1_555
H5D C6D 1_555 1_555
H6D C6D 1_555 1_555
O3D C5D 1_555 1_555
O4D C5D 1_555 1_555
C1D C2D 1_555 1_555
C2D H1D 1_555 1_555
H2D C2D 1_555 1_555
C3D C4D 1_555 1_555
C4D C2D 1_555 1_555
H3D C4D 1_555 1_555
H4D C4D 1_555 1_555
O1D C1D 1_555 1_555
O2D C1D 1_555 1_555
O5D C3D 1_555 1_555
O6D H7D 1_555 1_555
H8D O6D 1_555 1_555
O7D C3D 1_555 1_555
Yb1D O3D 1_555 1_555
O1C Yb1 1_555 1_555
O1G Yb1D 1_555 1_555
O3C Yb1 1_555 1_555
O3G Yb1D 1_555 1_555
O5B Yb1D 1_555 1_555
O5F Yb1 1_555 1_555
O7A Yb1D 1_555 1_555
O7E Yb1 1_555 1_555
Yb1A O7D 1_555 1_555
Yb1B O5D 1_555 1_555
Yb1C O1 1_555 1_555
Yb1E O7 1_555 1_555
Yb1F O5 1_555 1_555
Yb1G O3D 1_555 1_555
H9A O8 1_555 1_555
O2 Yb1 1_555 1_555
O3 Yb1 1_555 1_555
O3 Yb1C 1_555 1_555
O4 Yb1 1_555 1_555
O6 Yb1 1_555 1_555
O4D Yb1D 1_555 1_555
O1D Yb1D 1_555 1_555
O1D Yb1G 1_555 1_555
O2D Yb1D 1_555 1_555
O6D Yb1D 1_555 1_555

#END
