
#######################################################################
#
#                 Cambridge Crystallographic Data Centre
#                                CCDC 
#
#######################################################################
#
# If this CIF has been generated from an entry in the Cambridge 
# Structural Database, then it will include bibliographic, chemical, 
# crystal, experimental, refinement or atomic coordinate data resulting 
# from the CCDC's data processing and validation procedures.
#
#######################################################################

data_XEZYUW
_symmetry_cell_setting           triclinic
_symmetry_space_group_name_H-M   'P -1'
_symmetry_Int_Tables_number      2
_space_group_name_Hall           '-P 1'
loop_
_symmetry_equiv_pos_site_id
_symmetry_equiv_pos_as_xyz
1 x,y,z
2 -x,-y,-z
_cell_length_a                   8.0597(6)
_cell_length_b                   8.2040(6)
_cell_length_c                   10.2850(8)
_cell_angle_alpha                72.1840(10)
_cell_angle_beta                 84.1800(10)
_cell_angle_gamma                76.6250(10)
_cell_volume                     629.544
loop_
_atom_site_label
_atom_site_type_symbol
_atom_site_fract_x
_atom_site_fract_y
_atom_site_fract_z
Zn1 Zn 0.40653(4) 0.85899(4) 0.21485(3)
V1 V 0.12280(5) 0.61110(5) 0.15118(4)
V2 V 0.26212(5) 1.27142(5) 0.02398(4)
O1 O 0.2236(2) 0.7618(2) 0.16338(19)
O2 O -0.0738(2) 0.7079(3) 0.06065(19)
O3 O 0.2597(2) 0.4709(2) 0.05965(19)
O4 O 0.2683(2) 1.1069(2) 0.16884(18)
O5 O 0.5667(2) 0.7737(3) 0.07175(19)
O6 O 0.0814(2) 0.4930(3) 0.30318(19)
N1 N 0.4095(3) 0.7391(3) 0.4249(2)
N2 N 0.6208(3) 0.9299(3) 0.2684(2)
C1 C 0.2931(3) 0.6509(3) 0.4986(3)
C2 C 0.2941(4) 0.5906(4) 0.6405(3)
C3 C 0.4161(3) 0.6246(3) 0.7083(3)
C4 C 0.5375(3) 0.7150(3) 0.6323(3)
C5 C 0.5319(3) 0.7688(3) 0.4904(3)
C6 C 0.6600(3) 0.8608(3) 0.4014(3)
C7 C 0.8112(4) 0.8728(4) 0.4494(3)
C8 C 0.9222(3) 0.9612(4) 0.3565(3)
C9 C 0.8797(3) 1.0356(4) 0.2206(3)
C10 C 0.7282(3) 1.0163(4) 0.1804(3)
H1 H 0.211(4) 0.631(4) 0.446(3)
H2 H 0.207(5) 0.537(5) 0.687(4)
H3 H 0.411(5) 0.589(5) 0.801(4)
H4 H 0.614(4) 0.742(4) 0.673(3)
H5 H 0.837(5) 0.812(5) 0.542(4)
H6 H 1.035(5) 0.965(5) 0.380(4)
H7 H 0.952(5) 1.096(5) 0.162(4)
H8 H 0.689(5) 1.068(5) 0.090(4)
O2A O 0.0738(2) 1.2921(3) -0.06065(19)
O3_2 O 0.2597(2) 1.4709(2) 0.05965(19)
O5A O 0.4333(2) 1.2263(3) -0.07175(19)
V2A V -0.26212(5) 0.72858(5) -0.02398(4)
V2_2 V 0.26212(5) 0.27142(5) 0.02398(4)
V2A_2 V 0.73788(5) 0.72858(5) -0.02398(4)
loop_
_geom_bond_atom_site_label_1
_geom_bond_atom_site_label_2
_geom_bond_site_symmetry_1
_geom_bond_site_symmetry_2
Zn1 O1 1_555 1_555
V1 O1 1_555 1_555
V2 O4 1_555 1_555
O2 V1 1_555 1_555
O3 V1 1_555 1_555
O4 Zn1 1_555 1_555
O5 Zn1 1_555 1_555
O6 V1 1_555 1_555
N1 Zn1 1_555 1_555
N2 Zn1 1_555 1_555
C1 N1 1_555 1_555
C2 C1 1_555 1_555
C3 C2 1_555 1_555
C4 C3 1_555 1_555
C5 N1 1_555 1_555
C6 N2 1_555 1_555
C7 C6 1_555 1_555
C8 C7 1_555 1_555
C9 C8 1_555 1_555
C10 N2 1_555 1_555
H1 C1 1_555 1_555
H2 C2 1_555 1_555
H3 C3 1_555 1_555
H4 C4 1_555 1_555
H5 C7 1_555 1_555
H6 C8 1_555 1_555
H7 C9 1_555 1_555
H8 C10 1_555 1_555
O2A V2 1_555 1_555
O3_2 V2 1_555 1_555
O5A V2 1_555 1_555
V2A O2 1_555 1_555
V2_2 O3 1_555 1_555
V2A_2 O5 1_555 1_555
C4 C5 1_555 1_555
C5 C6 1_555 1_555
C9 C10 1_555 1_555

#END
