
#######################################################################
#
#                 Cambridge Crystallographic Data Centre
#                                CCDC 
#
#######################################################################
#
# If this CIF has been generated from an entry in the Cambridge 
# Structural Database, then it will include bibliographic, chemical, 
# crystal, experimental, refinement or atomic coordinate data resulting 
# from the CCDC's data processing and validation procedures.
#
#######################################################################

data_XEZZAD01
_symmetry_cell_setting           triclinic
_symmetry_space_group_name_H-M   'P -1'
_symmetry_Int_Tables_number      2
_space_group_name_Hall           '-P 1'
loop_
_symmetry_equiv_pos_site_id
_symmetry_equiv_pos_as_xyz
1 x,y,z
2 -x,-y,-z
_cell_length_a                   8.0721(16)
_cell_length_b                   9.764(2)
_cell_length_c                   11.607(2)
_cell_angle_alpha                85.58(3)
_cell_angle_beta                 72.79(3)
_cell_angle_gamma                72.28(3)
_cell_volume                     832.313
loop_
_atom_site_label
_atom_site_type_symbol
_atom_site_fract_x
_atom_site_fract_y
_atom_site_fract_z
C1 C 0.2395(4) 0.5437(3) 0.9302(3)
C2 C 0.2805(5) 0.4323(3) 1.0073(3)
C3 C 0.4432(5) 0.3260(3) 0.9710(3)
C4 C 0.5612(4) 0.3335(3) 0.8579(3)
C5 C 0.5109(4) 0.4469(3) 0.7846(2)
C6 C 0.6235(4) 0.4644(3) 0.6616(2)
C7 C 0.7827(4) 0.3634(3) 0.6024(3)
C8 C 0.8728(4) 0.3894(3) 0.4858(3)
C9 C 0.8050(4) 0.5152(3) 0.4314(3)
C10 C 0.6460(4) 0.6144(3) 0.4955(3)
Cu1 Cu 0.31722(4) 0.71169(3) 0.70685(3)
H1 H 0.128(4) 0.617(3) 0.952(3)
H2 H 0.200(4) 0.430(3) 1.081(3)
H3 H 0.472(4) 0.254(4) 1.021(3)
H4 H 0.668(4) 0.267(3) 0.832(3)
H5 H 0.823(4) 0.284(4) 0.644(3)
H6 H 0.987(4) 0.315(3) 0.445(3)
H7 H 0.865(4) 0.532(3) 0.356(3)
H8 H 0.591(4) 0.703(3) 0.461(3)
N1 N 0.3521(3) 0.5516(2) 0.8213(2)
N2 N 0.5557(3) 0.5887(2) 0.6079(2)
O1 O 0.4258(3) 0.8537(2) 0.79009(18)
O2 O 0.6666(3) 0.9279(2) 0.58719(17)
O3 O 0.3006(3) 0.8439(2) 0.57234(18)
O4 O 0.0648(3) 0.8000(2) 0.79171(18)
O5 O 0.0000 1.0000 0.5000
O6 O 0.0361(3) 1.3383(2) 0.81792(17)
O7 O 0.6924(3) 0.9544(2) 0.82587(18)
O8 O 0.3910(2) 1.1332(2) 0.75539(17)
O9 O 0.1379(3) 1.1176(2) 0.65337(16)
O10 O -0.0633(3) 1.0792(2) 0.87494(17)
O11 O -0.1608(3) 0.8630(2) 1.02173(17)
V1 V 0.54061(6) 0.96749(5) 0.74290(4)
V2 V 0.12848(6) 1.16967(5) 0.81859(4)
V3 V -0.11097(6) 0.92167(5) 0.87896(4)
V4 V 0.19437(6) 1.00633(5) 0.53774(4)
C1A C 0.7605(4) 1.4563(3) 0.0698(3)
C2A C 0.7195(5) 1.5677(3) -0.0073(3)
C3A C 0.5568(5) 1.6740(3) 0.0290(3)
C4A C 0.4388(4) 1.6665(3) 0.1421(3)
C5A C 0.4891(4) 1.5531(3) 0.2154(2)
C6A C 0.3765(4) 1.5356(3) 0.3384(2)
C7A C 0.2173(4) 1.6366(3) 0.3976(3)
C8A C 0.1272(4) 1.6106(3) 0.5142(3)
C9A C 0.1950(4) 1.4848(3) 0.5686(3)
C10A C 0.3540(4) 1.3856(3) 0.5045(3)
Cu1A Cu 0.68278(4) 1.28831(3) 0.29315(3)
Cu1_2 Cu 1.31722(4) 0.71169(3) 0.70685(3)
H1A H 0.872(4) 1.383(3) 0.048(3)
H2A H 0.800(4) 1.570(3) -0.081(3)
H3A H 0.528(4) 1.746(4) -0.021(3)
H4A H 0.332(4) 1.733(3) 0.168(3)
H5A H 0.177(4) 1.716(4) 0.356(3)
H6A H 0.013(4) 1.685(3) 0.555(3)
H7A H 0.135(4) 1.468(3) 0.644(3)
H8A H 0.409(4) 1.297(3) 0.539(3)
N1A N 0.6479(3) 1.4484(2) 0.1787(2)
N2A N 0.4443(3) 1.4113(2) 0.3921(2)
O1A O 0.5742(3) 1.1463(2) 0.20991(18)
O2A O 0.3334(3) 1.0721(2) 0.41281(17)
O3A O 0.6994(3) 1.1561(2) 0.42766(18)
O4_2 O 1.0648(3) 0.8000(2) 0.79171(18)
O4A O 0.9352(3) 1.2000(2) 0.20829(18)
O5_2 O 1.0000 1.0000 0.5000
O6A O -0.0361(3) 0.6617(2) 1.18208(17)
O7_2 O -0.3076(3) 0.9544(2) 0.82587(18)
O7A O 0.3076(3) 1.0456(2) 0.17413(18)
O8A O 0.6090(2) 0.8668(2) 0.24461(17)
O8A_2 O -0.3910(2) 0.8668(2) 1.24461(17)
O9A O -0.1379(3) 0.8824(2) 1.34663(16)
O9A_2 O 0.8621(3) 0.8824(2) 0.34663(16)
O10A O 0.0633(3) 0.9208(2) 1.12506(17)
O10_2 O 0.9367(3) 1.0792(2) 0.87494(17)
O11A O 0.1608(3) 1.1370(2) 0.97827(17)
O11_2 O 0.8392(3) 0.8630(2) 1.02173(17)
V1A V 0.45939(6) 1.03251(5) 0.25710(4)
V1_2 V -0.45939(6) 0.96749(5) 0.74290(4)
V2A V -0.12848(6) 0.83033(5) 1.18141(4)
V2A_2 V 0.87152(6) 0.83033(5) 0.18141(4)
V3_2 V 0.88903(6) 0.92167(5) 0.87896(4)
V3A V 0.11097(6) 1.07833(5) 1.12104(4)
V4A V 0.80563(6) 0.99367(5) 0.46226(4)
V4A_2 V -0.19437(6) 0.99367(5) 0.46226(4)
V4A_3 V -0.19437(6) 0.99367(5) 1.46226(4)
loop_
_geom_bond_atom_site_label_1
_geom_bond_atom_site_label_2
_geom_bond_site_symmetry_1
_geom_bond_site_symmetry_2
C1 C2 1_555 1_555
C2 C3 1_555 1_555
C3 C4 1_555 1_555
C4 C5 1_555 1_555
C5 C6 1_555 1_555
C6 C7 1_555 1_555
C7 C8 1_555 1_555
C8 C9 1_555 1_555
C9 C10 1_555 1_555
C10 H8 1_555 1_555
Cu1 N1 1_555 1_555
H1 C1 1_555 1_555
H2 C2 1_555 1_555
H3 C3 1_555 1_555
H4 C4 1_555 1_555
H5 C7 1_555 1_555
H6 C8 1_555 1_555
H7 C9 1_555 1_555
N1 C1 1_555 1_555
N2 C6 1_555 1_555
O1 Cu1 1_555 1_555
O2 V1 1_555 1_555
O3 Cu1 1_555 1_555
O4 Cu1 1_555 1_555
O5 V4 1_555 1_555
O6 V2 1_555 1_555
O7 V1 1_555 1_555
O8 V1 1_555 1_555
O9 V2 1_555 1_555
O10 V2 1_555 1_555
O11 V3 1_555 1_555
V1 O1 1_555 1_555
V2 O8 1_555 1_555
V3 O4 1_555 1_555
V4 O3 1_555 1_555
C1A C2A 1_555 1_555
C2A C3A 1_555 1_555
C3A C4A 1_555 1_555
C4A C5A 1_555 1_555
C5A C6A 1_555 1_555
C6A C7A 1_555 1_555
C7A C8A 1_555 1_555
C8A C9A 1_555 1_555
C9A C10A 1_555 1_555
C10A H8A 1_555 1_555
Cu1A N1A 1_555 1_555
Cu1_2 O4_2 1_555 1_555
H1A C1A 1_555 1_555
H2A C2A 1_555 1_555
H3A C3A 1_555 1_555
H4A C4A 1_555 1_555
H5A C7A 1_555 1_555
H6A C8A 1_555 1_555
H7A C9A 1_555 1_555
N1A C1A 1_555 1_555
N2A C6A 1_555 1_555
O1A Cu1A 1_555 1_555
O2A V4 1_555 1_555
O3A Cu1A 1_555 1_555
O4_2 V3_2 1_555 1_555
O4A Cu1A 1_555 1_555
O5_2 V4A 1_555 1_555
O6A V2A 1_555 1_555
O7_2 V3 1_555 1_555
O7A V1A 1_555 1_555
O8A V1A 1_555 1_555
O8A_2 V2A 1_555 1_555
O9A V2A 1_555 1_555
O9A_2 V2A_2 1_555 1_555
O10A V2A 1_555 1_555
O10_2 V3_2 1_555 1_555
O11A V2 1_555 1_555
O11_2 V3_2 1_555 1_555
V1A O1A 1_555 1_555
V1_2 O7_2 1_555 1_555
V2A O11 1_555 1_555
V2A_2 O8A 1_555 1_555
V3_2 O7 1_555 1_555
V3A O10A 1_555 1_555
V4A O2 1_555 1_555
V4A_2 O5 1_555 1_555
V4A_3 O9A 1_555 1_555
C5 N1 1_555 1_555
C10 N2 1_555 1_555
Cu1 N2 1_555 1_555
O9 V4 1_555 1_555
O10 V3 1_555 1_555
C5A N1A 1_555 1_555
C10A N2A 1_555 1_555
Cu1A N2A 1_555 1_555
O2A V1A 1_555 1_555
O3A V4A 1_555 1_555
O9A_2 V4A 1_555 1_555
O11A V3A 1_555 1_555

#END
