
#######################################################################
#
#                 Cambridge Crystallographic Data Centre
#                                CCDC 
#
#######################################################################
#
# If this CIF has been generated from an entry in the Cambridge 
# Structural Database, then it will include bibliographic, chemical, 
# crystal, experimental, refinement or atomic coordinate data resulting 
# from the CCDC's data processing and validation procedures.
#
#######################################################################

data_XEZZEH
_symmetry_cell_setting           orthorhombic
_symmetry_space_group_name_H-M   'P b c a'
_symmetry_Int_Tables_number      61
_space_group_name_Hall           '-P 2ac 2ab'
loop_
_symmetry_equiv_pos_site_id
_symmetry_equiv_pos_as_xyz
1 x,y,z
2 1/2-x,-y,1/2+z
3 -x,1/2+y,1/2-z
4 1/2+x,1/2-y,-z
5 -x,-y,-z
6 1/2+x,y,1/2-z
7 x,1/2-y,1/2+z
8 1/2-x,1/2+y,z
_cell_length_a                   16.2789(4)
_cell_length_b                   10.5658(3)
_cell_length_c                   18.8712(5)
_cell_angle_alpha                90
_cell_angle_beta                 90
_cell_angle_gamma                90
_cell_volume                     3245.84
loop_
_atom_site_label
_atom_site_type_symbol
_atom_site_fract_x
_atom_site_fract_y
_atom_site_fract_z
Cu1 Cu 0.06021(3) 0.11994(4) 0.02405(3)
V1 V 0.21126(4) 0.25465(6) -0.08305(3)
V2 V 0.14184(4) -0.02818(6) -0.11638(4)
O1 O 0.14543(17) 0.3416(3) -0.12692(15)
O2 O 0.21419(18) 0.0972(3) -0.12353(15)
O3 O 0.31032(17) 0.3301(3) -0.08457(15)
O4 O 0.10156(18) -0.0555(3) -0.19295(15)
O5 O 0.06587(17) 0.0133(2) -0.05807(14)
O6 O 0.17902(17) 0.2416(3) -0.00060(15)
N1 N -0.01451(19) 0.2533(3) -0.01900(17)
N2 N 0.0366(2) 0.2197(3) 0.10723(18)
N3 N 0.1299(2) 0.0248(3) 0.09711(17)
C1 C -0.0319(3) 0.2693(4) -0.0876(2)
C2 C -0.0810(3) 0.3669(4) -0.1127(2)
C3 C -0.1140(3) 0.4499(4) -0.0632(2)
C4 C -0.0971(3) 0.4348(4) 0.0081(3)
C5 C -0.0460(2) 0.3356(4) 0.0286(2)
C6 C -0.0177(2) 0.3144(4) 0.1023(2)
C7 C -0.0389(3) 0.3844(4) 0.1620(2)
C8 C -0.0006(3) 0.3550(4) 0.2254(2)
C9 C 0.0560(3) 0.2585(4) 0.2299(2)
C10 C 0.0731(2) 0.1897(4) 0.1689(2)
C11 C 0.1296(3) 0.0800(4) 0.1624(2)
C12 C 0.1774(3) 0.0343(4) 0.2171(2)
C13 C 0.2260(3) -0.0724(4) 0.2060(2)
C14 C 0.2259(3) -0.1296(4) 0.1395(2)
C15 C 0.1779(3) -0.0765(4) 0.0861(2)
H1 H -0.008(2) 0.206(4) -0.120(2)
H2 H -0.092(3) 0.383(4) -0.164(2)
H3 H -0.148(3) 0.522(4) -0.077(2)
H4 H -0.116(3) 0.486(4) 0.042(2)
H5 H -0.073(3) 0.448(4) 0.159(2)
H6 H -0.006(3) 0.397(5) 0.258(3)
H7 H 0.087(3) 0.238(5) 0.279(3)
H8 H 0.177(2) 0.068(4) 0.260(2)
H9 H 0.261(3) -0.104(4) 0.244(2)
H10 H 0.261(3) -0.200(4) 0.129(2)
H11 H 0.178(2) -0.112(3) 0.040(2)
O3G O 0.18968(17) -0.1699(3) -0.08457(15)
V2G V 0.35816(4) 0.47182(6) -0.11638(4)
loop_
_geom_bond_atom_site_label_1
_geom_bond_atom_site_label_2
_geom_bond_site_symmetry_1
_geom_bond_site_symmetry_2
Cu1 O5 1_555 1_555
V1 O1 1_555 1_555
V2 O2 1_555 1_555
O2 V1 1_555 1_555
O3 V1 1_555 1_555
O4 V2 1_555 1_555
O5 V2 1_555 1_555
O6 Cu1 1_555 1_555
N1 Cu1 1_555 1_555
N2 Cu1 1_555 1_555
N3 Cu1 1_555 1_555
C1 N1 1_555 1_555
C2 C1 1_555 1_555
C3 C2 1_555 1_555
C4 C3 1_555 1_555
C5 N1 1_555 1_555
C6 N2 1_555 1_555
C7 C6 1_555 1_555
C8 C7 1_555 1_555
C9 C8 1_555 1_555
C10 N2 1_555 1_555
C11 N3 1_555 1_555
C12 C11 1_555 1_555
C13 C12 1_555 1_555
C14 C13 1_555 1_555
C15 N3 1_555 1_555
H1 C1 1_555 1_555
H2 C2 1_555 1_555
H3 C3 1_555 1_555
H4 C4 1_555 1_555
H5 C7 1_555 1_555
H6 C8 1_555 1_555
H7 C9 1_555 1_555
H8 C12 1_555 1_555
H9 C13 1_555 1_555
H10 C14 1_555 1_555
H11 C15 1_555 1_555
O3G V2 1_555 1_555
V2G O3 1_555 1_555
V1 O6 1_555 1_555
C4 C5 1_555 1_555
C5 C6 1_555 1_555
C9 C10 1_555 1_555
C10 C11 1_555 1_555
C14 C15 1_555 1_555

#END
