
#######################################################################
#
#                 Cambridge Crystallographic Data Centre
#                                CCDC 
#
#######################################################################
#
# If this CIF has been generated from an entry in the Cambridge 
# Structural Database, then it will include bibliographic, chemical, 
# crystal, experimental, refinement or atomic coordinate data resulting 
# from the CCDC's data processing and validation procedures.
#
#######################################################################

data_XEZZAD
_symmetry_cell_setting           triclinic
_symmetry_space_group_name_H-M   'P -1'
_symmetry_Int_Tables_number      2
_space_group_name_Hall           '-P 1'
loop_
_symmetry_equiv_pos_site_id
_symmetry_equiv_pos_as_xyz
1 x,y,z
2 -x,-y,-z
_cell_length_a                   8.0679(2)
_cell_length_b                   9.6449(3)
_cell_length_c                   11.6379(3)
_cell_angle_alpha                85.6480(10)
_cell_angle_beta                 72.6270(10)
_cell_angle_gamma                72.7340(10)
_cell_volume                     825.253
loop_
_atom_site_label
_atom_site_type_symbol
_atom_site_fract_x
_atom_site_fract_y
_atom_site_fract_z
Cu1 Cu 0.31588(5) 0.20898(4) 0.20673(3)
V1 V -0.11186(7) 0.41916(6) 0.37893(5)
V2 V 0.19665(7) 0.50560(6) 0.03691(5)
V3 V 0.12906(7) 0.67254(6) 0.31843(5)
V4 V 0.53606(7) 0.47069(6) 0.24376(5)
O1 O 0.4131(3) 0.3592(3) 0.2914(2)
O2 O 0.3011(3) 0.3408(3) 0.0715(2)
O3 O 0.0612(3) 0.2955(3) 0.2896(2)
O4 O 0.3376(3) 0.5723(3) -0.0885(2)
O5 O 0.0000 0.5000 0.0000
O6 O 0.1416(3) 0.6173(3) 0.15319(19)
O7 O 0.3917(3) 0.6407(3) 0.2552(2)
O8 O 0.0347(3) 0.8429(3) 0.3174(2)
O9 O -0.0616(3) 0.5784(3) 0.3746(2)
O10 O -0.3111(3) 0.4528(3) 0.3277(2)
O11 O -0.1601(3) 0.3586(3) 0.5218(2)
N1 N 0.3506(4) 0.0497(3) 0.3227(2)
N2 N 0.5567(4) 0.0864(3) 0.1092(2)
C1 C 0.2368(5) 0.0414(4) 0.4318(3)
C2 C 0.2798(5) -0.0695(4) 0.5103(3)
C3 C 0.4444(5) -0.1736(4) 0.4756(3)
C4 C 0.5119(4) -0.0538(3) 0.2878(3)
C5 C 0.6247(4) -0.0369(3) 0.1645(3)
C6 C 0.7857(5) -0.1391(4) 0.1055(3)
C7 C 0.8755(5) -0.1142(4) -0.0119(3)
C8 C 0.8071(5) 0.0120(4) -0.0676(3)
C9 C 0.6469(5) 0.1116(4) -0.0033(3)
C10 C 0.5637(5) -0.1670(4) 0.3630(3)
H1 H 0.134(5) 0.111(4) 0.452(3)
H2 H 0.198(5) -0.068(5) 0.586(4)
H3 H 0.477(4) -0.249(4) 0.526(3)
H4 H 0.671(5) -0.237(4) 0.340(3)
H5 H 0.828(5) -0.230(4) 0.147(3)
H6 H 0.982(6) -0.185(5) -0.052(4)
H7 H 0.862(5) 0.030(4) -0.144(4)
H8 H 0.596(5) 0.192(4) -0.032(3)
O4A O 0.6624(3) 0.4277(3) 0.0885(2)
O10_2 O 0.6889(3) 0.4528(3) 0.3277(2)
V1_2 V 0.88814(7) 0.41916(6) 0.37893(5)
V2A V 0.80335(7) 0.49440(6) -0.03691(5)
V3A V -0.12906(7) 0.32746(6) 0.68157(5)
V4A V 0.46394(7) 0.52931(6) -0.24376(5)
O11A O 0.1601(3) 0.6414(3) 0.4782(2)
O2A O 0.6989(3) 0.6592(3) -0.0715(2)
O6A O 0.8584(3) 0.3827(3) -0.15319(19)
O7A O -0.3917(3) 0.3593(3) 0.7448(2)
O8A O -0.0347(3) 0.1571(3) 0.6826(2)
O9A O 0.0616(3) 0.4216(3) 0.6254(2)
O1A O 0.5869(3) 0.6408(3) -0.2914(2)
Cu1A Cu 0.68412(5) 0.79102(4) -0.20673(3)
O3A O 0.9388(3) 0.7045(3) -0.2896(2)
N1A N 0.6494(4) 0.9503(3) -0.3227(2)
N2A N 0.4433(4) 0.9136(3) -0.1092(2)
C1A C 0.7632(5) 0.9586(4) -0.4318(3)
C2A C 0.7202(5) 1.0695(4) -0.5103(3)
C3A C 0.5556(5) 1.1736(4) -0.4756(3)
C4A C 0.4881(4) 1.0538(3) -0.2878(3)
C5A C 0.3753(4) 1.0369(3) -0.1645(3)
C6A C 0.2143(5) 1.1391(4) -0.1055(3)
C7A C 0.1245(5) 1.1142(4) 0.0119(3)
C8A C 0.1929(5) 0.9880(4) 0.0676(3)
C9A C 0.3531(5) 0.8884(4) 0.0033(3)
C10A C 0.4363(5) 1.1670(4) -0.3630(3)
H1A H 0.866(5) 0.889(4) -0.452(3)
H2A H 0.802(5) 1.068(5) -0.586(4)
H3A H 0.523(4) 1.249(4) -0.526(3)
H4A H 0.329(5) 1.237(4) -0.340(3)
H5A H 0.172(5) 1.230(4) -0.147(3)
H6A H 0.018(6) 1.185(5) 0.052(4)
H7A H 0.138(5) 0.970(4) 0.144(4)
H8A H 0.404(5) 0.808(4) 0.032(3)
V2A_2 V -0.19665(7) 0.49440(6) -0.03691(5)
V4_2 V -0.46394(7) 0.47069(6) 0.24376(5)
O3_2 O 1.0612(3) 0.2955(3) 0.2896(2)
O9_2 O 0.9384(3) 0.5784(3) 0.3746(2)
O11_2 O 0.8399(3) 0.3586(3) 0.5218(2)
O5_2 O 1.0000 0.5000 0.0000
O6A_2 O -0.1416(3) 0.3827(3) 0.84681(19)
O7A_2 O 0.6083(3) 0.3593(3) -0.2552(2)
O10A O 0.3111(3) 0.5472(3) -0.3277(2)
V1A V 0.11186(7) 0.58084(6) 0.62107(5)
V3A_2 V 0.87094(7) 0.32746(6) -0.31843(5)
V4A_2 V -0.53606(7) 0.52931(6) 0.75624(5)
V1A_2 V 1.11186(7) 0.58084(6) -0.37893(5)
loop_
_geom_bond_atom_site_label_1
_geom_bond_atom_site_label_2
_geom_bond_site_symmetry_1
_geom_bond_site_symmetry_2
Cu1 O1 1_555 1_555
V1 O3 1_555 1_555
V2 O2 1_555 1_555
V3 O6 1_555 1_555
V4 O1 1_555 1_555
O2 Cu1 1_555 1_555
O3 Cu1 1_555 1_555
O4 V2 1_555 1_555
O5 V2 1_555 1_555
O6 V2 1_555 1_555
O7 V3 1_555 1_555
O8 V3 1_555 1_555
O9 V1 1_555 1_555
O10 V1 1_555 1_555
O11 V1 1_555 1_555
N1 Cu1 1_555 1_555
N2 Cu1 1_555 1_555
C1 N1 1_555 1_555
C2 C1 1_555 1_555
C3 C2 1_555 1_555
C4 N1 1_555 1_555
C5 N2 1_555 1_555
C6 C5 1_555 1_555
C7 C6 1_555 1_555
C8 C7 1_555 1_555
C9 N2 1_555 1_555
C10 C3 1_555 1_555
H1 C1 1_555 1_555
H2 C2 1_555 1_555
H3 C3 1_555 1_555
H4 C10 1_555 1_555
H5 C6 1_555 1_555
H6 C7 1_555 1_555
H7 C8 1_555 1_555
H8 C9 1_555 1_555
O4A V4 1_555 1_555
O10_2 V4 1_555 1_555
V1_2 O10_2 1_555 1_555
V2A O4A 1_555 1_555
V3A O11 1_555 1_555
V4A O4 1_555 1_555
O11A V3 1_555 1_555
O2A V2A 1_555 1_555
O6A V2A 1_555 1_555
O7A V3A 1_555 1_555
O8A V3A 1_555 1_555
O9A V3A 1_555 1_555
O1A V4A 1_555 1_555
Cu1A O2A 1_555 1_555
O3A Cu1A 1_555 1_555
N1A Cu1A 1_555 1_555
N2A Cu1A 1_555 1_555
C1A N1A 1_555 1_555
C2A C1A 1_555 1_555
C3A C2A 1_555 1_555
C4A N1A 1_555 1_555
C5A N2A 1_555 1_555
C6A C5A 1_555 1_555
C7A C6A 1_555 1_555
C8A C7A 1_555 1_555
C9A N2A 1_555 1_555
C10A C3A 1_555 1_555
H1A C1A 1_555 1_555
H2A C2A 1_555 1_555
H3A C3A 1_555 1_555
H4A C10A 1_555 1_555
H5A C6A 1_555 1_555
H6A C7A 1_555 1_555
H7A C8A 1_555 1_555
H8A C9A 1_555 1_555
V2A_2 O5 1_555 1_555
V4_2 O10 1_555 1_555
O3_2 V1_2 1_555 1_555
O9_2 V1_2 1_555 1_555
O11_2 V1_2 1_555 1_555
O5_2 V2A 1_555 1_555
O6A_2 V3A 1_555 1_555
O7A_2 V4A 1_555 1_555
O10A V4A 1_555 1_555
V1A O11A 1_555 1_555
V3A_2 O6A 1_555 1_555
V4A_2 O7A 1_555 1_555
V1A_2 O3A 1_555 1_555
V3 O9 1_555 1_555
V4 O7 1_555 1_555
C4 C5 1_555 1_555
C4 C10 1_555 1_555
C8 C9 1_555 1_555
O9A V1A 1_555 1_555
O1A Cu1A 1_555 1_555
C4A C5A 1_555 1_555
C4A C10A 1_555 1_555
C8A C9A 1_555 1_555
O7A_2 V3A_2 1_555 1_555

#END
