
#######################################################################
#
#                 Cambridge Crystallographic Data Centre
#                                CCDC 
#
#######################################################################
#
# If this CIF has been generated from an entry in the Cambridge 
# Structural Database, then it will include bibliographic, chemical, 
# crystal, experimental, refinement or atomic coordinate data resulting 
# from the CCDC's data processing and validation procedures.
#
#######################################################################

data_XEZZIL
_symmetry_cell_setting           triclinic
_symmetry_space_group_name_H-M   'P 1'
_symmetry_Int_Tables_number      1
_space_group_name_Hall           'P 1'
loop_
_symmetry_equiv_pos_site_id
_symmetry_equiv_pos_as_xyz
1 x,y,z
_cell_length_a                   9.6981(8)
_cell_length_b                   10.1729(9)
_cell_length_c                   11.1223(10)
_cell_angle_alpha                66.556(2)
_cell_angle_beta                 81.654(2)
_cell_angle_gamma                74.412(2)
_cell_volume                     968.782
loop_
_atom_site_label
_atom_site_type_symbol
_atom_site_fract_x
_atom_site_fract_y
_atom_site_fract_z
Zn1 Zn 0.79122(6) 0.33570(6) 0.71648(6)
Zn2 Zn 0.49599(6) 0.03400(6) 1.24738(6)
V1 V 0.27826(9) 0.67727(9) 1.02759(9)
V2 V 0.99499(9) -0.30874(9) 0.87701(9)
V3 V 0.86750(10) 0.38847(10) 0.97328(9)
V4 V 0.54484(10) 0.37514(11) 1.13891(9)
V5 V 0.41440(10) -0.02883(10) 1.00328(9)
V6 V 0.73158(10) -0.00078(10) 0.81849(9)
O1 O 0.5074(5) 0.3655(5) 1.2877(4)
O2 O 0.7455(5) 0.0279(5) 0.6651(4)
O3 O 0.4377(4) 0.5480(5) 1.0261(4)
O4 O 0.8610(5) -0.1710(5) 0.9086(4)
O5 O 0.9642(5) 0.5195(5) 0.9771(4)
O6 O 0.3094(5) -0.1530(5) 1.0014(4)
O7 O 0.5541(5) -0.0206(5) 0.8781(4)
O8 O 0.7997(4) 0.4444(5) 0.8265(4)
O9 O 0.9775(4) 0.2306(5) 1.0016(4)
O10 O 0.3117(5) 0.1328(5) 0.9721(4)
O11 O 0.5060(4) 0.2325(5) 1.1228(4)
O12 O 0.4828(5) -0.0876(5) 1.1507(4)
O13 O 0.7314(4) 0.3724(5) 1.1011(4)
O14 O 0.7697(5) 0.1393(5) 0.8392(4)
O15 O 0.9911(4) -0.2872(4) 0.7265(4)
O16 O 1.1688(4) -0.2961(4) 0.8998(4)
O17 O 0.1960(4) 0.6179(4) 1.1670(4)
N1 N 0.5637(5) 0.4182(6) 0.6830(5)
N2 N 0.7829(5) 0.4462(5) 0.5156(5)
N3 N 1.0123(5) 0.2897(6) 0.6467(5)
N4 N 0.2783(5) 0.0708(5) 1.3256(4)
N5 N 0.5166(5) -0.0830(5) 1.4462(4)
N6 N 0.7258(5) -0.0471(6) 1.2694(5)
C1 C 0.4571(6) 0.3975(7) 0.7754(6)
H1 H 0.4806 0.3371 0.8614
C2 C 0.3154(7) 0.4609(7) 0.7492(6)
H2 H 0.2446 0.4451 0.8159
C3 C 0.2802(7) 0.5496(7) 0.6200(6)
H3 H 0.1849 0.5934 0.5989
C4 C 0.3888(7) 0.5720(7) 0.5229(6)
H4 H 0.3677 0.6321 0.4363
C5 C 0.5291(6) 0.5030(7) 0.5577(6)
C6 C 0.6538(7) 0.5177(6) 0.4606(6)
C7 C 0.6449(7) 0.5961(6) 0.3265(5)
H5 H 0.5565 0.6466 0.2896
C8 C 0.7703(7) 0.5978(7) 0.2482(6)
H6 H 0.7664 0.6495 0.1580
C9 C 0.9018(7) 0.5220(7) 0.3051(6)
H7 H 0.9865 0.5209 0.2537
C10 C 0.9036(6) 0.4475(7) 0.4414(5)
C11 C 1.0355(6) 0.3620(7) 0.5169(6)
C12 C 1.1732(6) 0.3500(7) 0.4579(6)
H8 H 1.1868 0.4007 0.3684
C13 C 1.2882(7) 0.2627(7) 0.5333(6)
H9 H 1.3805 0.2537 0.4954
C14 C 1.2652(7) 0.1877(7) 0.6670(6)
H10 H 1.3415 0.1267 0.7196
C15 C 1.1256(7) 0.2058(7) 0.7205(6)
H11 H 1.1102 0.1582 0.8103
C16 C 0.1616(6) 0.1528(7) 1.2547(6)
H12 H 0.1730 0.2044 1.1650
C17 C 0.0243(6) 0.1611(7) 1.3141(6)
H13 H -0.0549 0.2204 1.2648
C18 C 0.0063(7) 0.0820(7) 1.4450(6)
H14 H -0.0851 0.0856 1.4849
C19 C 0.1267(7) -0.0047(7) 1.5185(6)
H15 H 0.1169 -0.0597 1.6076
C20 C 0.2612(6) -0.0064(6) 1.4549(5)
C21 C 0.3958(6) -0.0911(7) 1.5245(6)
C22 C 0.4048(7) -0.1732(7) 1.6580(6)
H16 H 0.3223 -0.1791 1.7122
C23 C 0.5387(7) -0.2466(7) 1.7095(6)
H17 H 0.5464 -0.3023 1.7989
C24 C 0.6612(7) -0.2367(7) 1.6273(6)
H18 H 0.7516 -0.2841 1.6608
C25 C 0.6456(6) -0.1537(6) 1.4927(5)
C26 C 0.7668(7) -0.1356(7) 1.3942(6)
C27 C 0.9062(6) -0.2030(7) 1.4210(6)
H19 H 0.9318 -0.2626 1.5066
C28 C 1.0107(7) -0.1823(7) 1.3190(6)
H20 H 1.1064 -0.2289 1.3358
C29 C 0.9706(6) -0.0922(6) 1.1936(6)
H21 H 1.0386 -0.0774 1.1243
C30 C 0.8258(6) -0.0231(7) 1.1718(6)
H22 H 0.7985 0.0408 1.0876
O6_2 O 0.3094(5) 0.8470(5) 1.0014(4)
O16_2 O 0.1688(4) 0.7039(4) 0.8998(4)
O5_2 O 0.9642(5) -0.4805(5) 0.9771(4)
V2_2 V 0.99499(9) 0.69126(9) 0.87701(9)
V1_2 V 0.27826(9) -0.32273(9) 1.02759(9)
V1_3 V 1.27826(9) -0.32273(9) 1.02759(9)
loop_
_geom_bond_atom_site_label_1
_geom_bond_atom_site_label_2
_geom_bond_site_symmetry_1
_geom_bond_site_symmetry_2
Zn1 O8 1_555 1_555
Zn2 O11 1_555 1_555
V1 O3 1_555 1_555
V2 O4 1_555 1_555
V3 O5 1_555 1_555
V4 O1 1_555 1_555
V5 O6 1_555 1_555
V6 O2 1_555 1_555
O3 V4 1_555 1_555
O4 V6 1_555 1_555
O5 V2_2 1_555 1_555
O6 V1_2 1_555 1_555
O7 V5 1_555 1_555
O8 V3 1_555 1_555
O9 V3 1_555 1_555
O10 V5 1_555 1_555
O11 V4 1_555 1_555
O12 Zn2 1_555 1_555
O13 V3 1_555 1_555
O14 Zn1 1_555 1_555
O15 V2 1_555 1_555
O16 V2 1_555 1_555
O17 V1 1_555 1_555
N1 Zn1 1_555 1_555
N2 Zn1 1_555 1_555
N3 Zn1 1_555 1_555
N4 Zn2 1_555 1_555
N5 Zn2 1_555 1_555
N6 Zn2 1_555 1_555
C1 N1 1_555 1_555
H1 C1 1_555 1_555
C2 C1 1_555 1_555
H2 C2 1_555 1_555
C3 C2 1_555 1_555
H3 C3 1_555 1_555
C4 C3 1_555 1_555
H4 C4 1_555 1_555
C5 N1 1_555 1_555
C6 N2 1_555 1_555
C7 C6 1_555 1_555
H5 C7 1_555 1_555
C8 C7 1_555 1_555
H6 C8 1_555 1_555
C9 C8 1_555 1_555
H7 C9 1_555 1_555
C10 N2 1_555 1_555
C11 N3 1_555 1_555
C12 C11 1_555 1_555
H8 C12 1_555 1_555
C13 C12 1_555 1_555
H9 C13 1_555 1_555
C14 C13 1_555 1_555
H10 C14 1_555 1_555
C15 N3 1_555 1_555
H11 C15 1_555 1_555
C16 N4 1_555 1_555
H12 C16 1_555 1_555
C17 C16 1_555 1_555
H13 C17 1_555 1_555
C18 C17 1_555 1_555
H14 C18 1_555 1_555
C19 C18 1_555 1_555
H15 C19 1_555 1_555
C20 N4 1_555 1_555
C21 N5 1_555 1_555
C22 C21 1_555 1_555
H16 C22 1_555 1_555
C23 C22 1_555 1_555
H17 C23 1_555 1_555
C24 C23 1_555 1_555
H18 C24 1_555 1_555
C25 N5 1_555 1_555
C26 N6 1_555 1_555
C27 C26 1_555 1_555
H19 C27 1_555 1_555
C28 C27 1_555 1_555
H20 C28 1_555 1_555
C29 C28 1_555 1_555
H21 C29 1_555 1_555
C30 N6 1_555 1_555
H22 C30 1_555 1_555
O6_2 V1 1_555 1_555
O16_2 V1 1_555 1_555
O5_2 V2 1_555 1_555
V1_3 O16 1_555 1_555
V4 O13 1_555 1_555
V5 O12 1_555 1_555
V6 O7 1_555 1_555
V6 O14 1_555 1_555
C4 C5 1_555 1_555
C5 C6 1_555 1_555
C9 C10 1_555 1_555
C10 C11 1_555 1_555
C14 C15 1_555 1_555
C19 C20 1_555 1_555
C20 C21 1_555 1_555
C24 C25 1_555 1_555
C25 C26 1_555 1_555
C29 C30 1_555 1_555

#END
