
#######################################################################
#
#                 Cambridge Crystallographic Data Centre
#                                CCDC 
#
#######################################################################
#
# If this CIF has been generated from an entry in the Cambridge 
# Structural Database, then it will include bibliographic, chemical, 
# crystal, experimental, refinement or atomic coordinate data resulting 
# from the CCDC's data processing and validation procedures.
#
#######################################################################

data_XIBBUF
_symmetry_cell_setting           triclinic
_symmetry_space_group_name_H-M   'P -1'
_symmetry_Int_Tables_number      2
_space_group_name_Hall           '-P 1'
loop_
_symmetry_equiv_pos_site_id
_symmetry_equiv_pos_as_xyz
1 x,y,z
2 -x,-y,-z
_cell_length_a                   10.242(7)
_cell_length_b                   10.802(7)
_cell_length_c                   15.100(10)
_cell_angle_alpha                70.031(10)
_cell_angle_beta                 75.168(11)
_cell_angle_gamma                76.155(11)
_cell_volume                     1496.46
loop_
_atom_site_label
_atom_site_type_symbol
_atom_site_fract_x
_atom_site_fract_y
_atom_site_fract_z
C19 C 0.8434(9) 0.5737(7) 0.3059(6)
H16 H 0.9311 0.5552 0.3252
H17 H 0.7722 0.5863 0.3601
Cl1 Cl 0.8346(3) 0.7228(2) 0.20862(19)
Cl2 Cl 0.8241(3) 0.4392(2) 0.2776(2)
C20 C 0.8984(7) 0.2809(5) 0.5654(4)
H18 H 0.8164 0.3180 0.5380
H19 H 0.9621 0.3437 0.5351
Cl3 Cl 0.8559(2) 0.26124(19) 0.68868(14)
Cl4 Cl 0.9721(2) 0.13031(15) 0.54091(13)
O7 O 0.943(4) 0.479(3) 0.0450(12)
O7A O 1.057(4) 0.521(3) -0.0450(12)
Co1 Co 0.64099(7) 0.72381(5) 0.73106(5)
C1 C 0.7447(5) 0.7631(4) 0.8913(4)
H1 H 0.6722 0.7213 0.9312
C2 C 0.8134(5) 0.8221(5) 0.9296(4)
H2 H 0.7877 0.8189 0.9939
C3 C 0.9195(5) 0.8849(4) 0.8721(4)
C4 C 0.9589(6) 0.8808(4) 0.7778(4)
H3 H 1.0337 0.9185 0.7374
C5 C 0.8847(5) 0.8197(4) 0.7455(4)
H4 H 0.9113 0.8178 0.6822
C6 C 0.9929(6) 0.9572(5) 0.9057(4)
H5 H 1.0645 0.9989 0.8639
C7 C 0.5344(6) 0.4629(4) 0.8049(4)
H6 H 0.4721 0.5141 0.7656
C8 C 0.5184(6) 0.3327(4) 0.8565(4)
H7 H 0.4471 0.2974 0.8515
C9 C 0.6095(5) 0.2556(4) 0.9155(3)
C10 C 0.7148(6) 0.3121(4) 0.9180(4)
H8 H 0.7793 0.2625 0.9558
C11 C 0.7246(5) 0.4438(4) 0.8638(4)
H9 H 0.7965 0.4806 0.8663
C12 C 0.5947(6) 0.1172(4) 0.9740(4)
H10 H 0.6553 0.0679 1.0150
C13 C 0.5786(6) 1.0271(4) 0.6944(4)
H11 H 0.5618 0.9997 0.7612
C14 C 0.5550(6) 1.1618(5) 0.6471(4)
H12 H 0.5236 1.2237 0.6813
C15 C 0.5787(6) 1.2037(4) 0.5476(4)
C16 C 0.6277(6) 1.1086(5) 0.5004(4)
H13 H 0.6458 1.1338 0.4336
C17 C 0.6500(6) 0.9742(4) 0.5532(4)
H14 H 0.6836 0.9106 0.5205
C18 C 0.5545(6) 1.3462(5) 0.4924(4)
H15 H 0.5747 1.3708 0.4257
N1 N 0.7774(4) 0.7634(3) 0.7995(3)
N2 N 0.9586(5) 0.9627(4) 0.9916(3)
N3 N 0.6353(4) 0.5189(3) 0.8087(3)
N4 N 0.4996(5) 0.0655(3) 0.9683(3)
N5 N 0.6250(4) 0.9333(3) 0.6486(3)
N6 N 0.5070(6) 1.4350(4) 0.5341(4)
N7 N 0.7761(5) 0.6300(4) 0.5867(3)
N8 N 0.3801(5) 0.7801(4) 0.8075(3)
O1 O 0.8463(4) 0.6367(4) 0.6408(3)
O2 O 0.6490(4) 0.6749(3) 0.6044(3)
O3 O 0.8276(4) 0.5830(4) 0.5190(3)
O4 O 0.4765(4) 0.7728(3) 0.8484(3)
O5 O 0.4137(4) 0.7603(3) 0.7270(3)
O6 O 0.2603(5) 0.8085(5) 0.8453(4)
N2A N 1.0414(5) 1.0373(4) 1.0084(3)
C6A C 1.0071(6) 1.0428(5) 1.0943(4)
C3A C 1.0805(5) 1.1151(4) 1.1279(4)
C2A C 1.1866(5) 1.1779(5) 1.0704(4)
C1A C 1.2553(5) 1.2369(4) 1.1087(4)
H1A H 1.3278 1.2787 1.0688
N1A N 1.2226(4) 1.2366(3) 1.2005(3)
C5A C 1.1153(5) 1.1803(4) 1.2545(4)
C4A C 1.0411(6) 1.1192(4) 1.2222(4)
H3A H 0.9663 1.0815 1.2626
H4A H 1.0887 1.1822 1.3178
H2A H 1.2123 1.1811 1.0061
H5A H 0.9355 1.0011 1.1361
N4A N 0.5004(5) -0.0655(3) 1.0317(3)
C12A C 0.4053(6) -0.1172(4) 1.0260(4)
C9A C 0.3905(5) -0.2556(4) 1.0845(3)
C8A C 0.4816(6) -0.3327(4) 1.1435(4)
C7A C 0.4656(6) -0.4629(4) 1.1951(4)
H6A H 0.5279 -0.5141 1.2344
N3A N 0.3647(4) -0.5189(3) 1.1913(3)
C11A C 0.2754(5) -0.4438(4) 1.1362(4)
C10A C 0.2852(6) -0.3121(4) 1.0820(4)
H8A H 0.2207 -0.2625 1.0442
H9A H 0.2035 -0.4806 1.1337
H7A H 0.5529 -0.2974 1.1485
H10A H 0.3447 -0.0679 0.9850
N6A N 0.4930(6) 1.5650(4) 0.4659(4)
C18A C 0.4455(6) 1.6538(5) 0.5076(4)
C15A C 0.4213(6) 1.7963(4) 0.4524(4)
C14A C 0.4450(6) 1.8382(5) 0.3529(4)
C13A C 0.4214(6) 1.9729(4) 0.3056(4)
H11A H 0.4382 2.0003 0.2388
N5A N 0.3750(4) 2.0667(3) 0.3514(3)
C17A C 0.3500(6) 2.0258(4) 0.4468(4)
C16A C 0.3723(6) 1.8914(5) 0.4996(4)
H13A H 0.3542 1.8662 0.5664
H14A H 0.3164 2.0894 0.4795
H12A H 0.4764 1.7763 0.3187
H15A H 0.4253 1.6292 0.5743
Co1A Co 1.35901(7) 1.27619(5) 1.26894(5)
N7A N 1.2239(5) 1.3700(4) 1.4133(3)
O1A O 1.1537(4) 1.3633(4) 1.3592(3)
O2A O 1.3510(4) 1.3251(3) 1.3956(3)
O3A O 1.1724(4) 1.4170(4) 1.4810(3)
N8A N 1.6199(5) 1.2199(4) 1.1925(3)
O4A O 1.5235(4) 1.2272(3) 1.1516(3)
O5A O 1.5863(4) 1.2397(3) 1.2730(3)
O6A O 1.7397(5) 1.1915(5) 1.1547(4)
Co1A_2 Co 0.35901(7) -0.72381(5) 1.26894(5)
Co1A_3 Co 0.35901(7) 2.27619(5) 0.26894(5)
N3A_2 N 1.3647(4) 1.4811(3) 1.1913(3)
N5A_2 N 1.3750(4) 1.0667(3) 1.3514(3)
O8? O 0.831(6) 0.461(3) 0.054(2)
loop_
_geom_bond_atom_site_label_1
_geom_bond_atom_site_label_2
_geom_bond_site_symmetry_1
_geom_bond_site_symmetry_2
Co1 N1 1_555 1_555
C1 H1 1_555 1_555
C2 C1 1_555 1_555
H2 C2 1_555 1_555
C3 C2 1_555 1_555
C4 C3 1_555 1_555
H3 C4 1_555 1_555
C5 C4 1_555 1_555
H4 C5 1_555 1_555
C6 C3 1_555 1_555
H5 C6 1_555 1_555
C7 H6 1_555 1_555
C8 C7 1_555 1_555
H7 C8 1_555 1_555
C9 C8 1_555 1_555
C10 C9 1_555 1_555
H8 C10 1_555 1_555
C11 C10 1_555 1_555
H9 C11 1_555 1_555
C12 C9 1_555 1_555
H10 C12 1_555 1_555
C13 H11 1_555 1_555
C14 C13 1_555 1_555
H12 C14 1_555 1_555
C15 C14 1_555 1_555
C16 C15 1_555 1_555
H13 C16 1_555 1_555
C17 C16 1_555 1_555
H14 C17 1_555 1_555
C18 C15 1_555 1_555
H15 C18 1_555 1_555
N1 C1 1_555 1_555
N2 C6 1_555 1_555
N3 Co1 1_555 1_555
N4 C12 1_555 1_555
N5 Co1 1_555 1_555
N6 C18 1_555 1_555
N7 O1 1_555 1_555
N8 O4 1_555 1_555
O1 Co1 1_555 1_555
O2 Co1 1_555 1_555
O3 N7 1_555 1_555
O4 Co1 1_555 1_555
O5 Co1 1_555 1_555
O6 N8 1_555 1_555
C19 H16 1_555 1_555
H17 C19 1_555 1_555
Cl1 C19 1_555 1_555
Cl2 C19 1_555 1_555
C20 H18 1_555 1_555
H19 C20 1_555 1_555
Cl3 C20 1_555 1_555
Cl4 C20 1_555 1_555
O7 O7A 1_555 1_555
N2A N2 1_555 1_555
C6A N2A 1_555 1_555
C3A C6A 1_555 1_555
C2A C3A 1_555 1_555
C1A C2A 1_555 1_555
H1A C1A 1_555 1_555
N1A C1A 1_555 1_555
C5A N1A 1_555 1_555
C4A C3A 1_555 1_555
H3A C4A 1_555 1_555
H4A C5A 1_555 1_555
H2A C2A 1_555 1_555
H5A C6A 1_555 1_555
N4A N4 1_555 1_555
C12A N4A 1_555 1_555
C9A C12A 1_555 1_555
C8A C9A 1_555 1_555
C7A C8A 1_555 1_555
H6A C7A 1_555 1_555
N3A C7A 1_555 1_555
C11A N3A 1_555 1_555
C10A C9A 1_555 1_555
H8A C10A 1_555 1_555
H9A C11A 1_555 1_555
H7A C8A 1_555 1_555
H10A C12A 1_555 1_555
N6A N6 1_555 1_555
C18A N6A 1_555 1_555
C15A C18A 1_555 1_555
C14A C15A 1_555 1_555
C13A C14A 1_555 1_555
H11A C13A 1_555 1_555
N5A C13A 1_555 1_555
C17A N5A 1_555 1_555
C16A C15A 1_555 1_555
H13A C16A 1_555 1_555
H14A C17A 1_555 1_555
H12A C14A 1_555 1_555
H15A C18A 1_555 1_555
Co1A N1A 1_555 1_555
N7A O1A 1_555 1_555
O1A Co1A 1_555 1_555
O2A Co1A 1_555 1_555
O3A N7A 1_555 1_555
N8A O4A 1_555 1_555
O4A Co1A 1_555 1_555
O5A Co1A 1_555 1_555
O6A N8A 1_555 1_555
Co1A_2 N3A 1_555 1_555
Co1A_3 N5A 1_555 1_555
N3A_2 Co1A 1_555 1_555
N5A_2 Co1A 1_555 1_555
C5 N1 1_555 1_555
C7 N3 1_555 1_555
C11 N3 1_555 1_555
C13 N5 1_555 1_555
C17 N5 1_555 1_555
N7 O2 1_555 1_555
N8 O5 1_555 1_555
C5A C4A 1_555 1_555
C11A C10A 1_555 1_555
C17A C16A 1_555 1_555
N7A O2A 1_555 1_555
N8A O5A 1_555 1_555

#END
