
#######################################################################
#
#                 Cambridge Crystallographic Data Centre
#                                CCDC 
#
#######################################################################
#
# If this CIF has been generated from an entry in the Cambridge 
# Structural Database, then it will include bibliographic, chemical, 
# crystal, experimental, refinement or atomic coordinate data resulting 
# from the CCDC's data processing and validation procedures.
#
#######################################################################

data_XIBCIU
_symmetry_cell_setting           monoclinic
_symmetry_space_group_name_H-M   'P 21/n'
_symmetry_Int_Tables_number      14
_space_group_name_Hall           '-P 2yn'
loop_
_symmetry_equiv_pos_site_id
_symmetry_equiv_pos_as_xyz
1 x,y,z
2 1/2+x,1/2-y,1/2+z
3 -x,-y,-z
4 1/2-x,1/2+y,1/2-z
_cell_length_a                   14.432(3)
_cell_length_b                   14.544(3)
_cell_length_c                   15.448(3)
_cell_angle_alpha                90
_cell_angle_beta                 96.97(3)
_cell_angle_gamma                90
_cell_volume                     3218.56
loop_
_atom_site_label
_atom_site_type_symbol
_atom_site_fract_x
_atom_site_fract_y
_atom_site_fract_z
Co1 Co 0.73011(3) 0.48010(3) 0.58910(3)
C1 C 0.6785(3) 0.2843(3) 0.5232(3)
H1 H 0.7228 0.2973 0.4859
C2 C 0.6383(3) 0.1991(3) 0.5188(3)
H2 H 0.6543 0.1562 0.4785
C3 C 0.5730(3) 0.1768(3) 0.5750(3)
C4 C 0.5512(3) 0.2448(3) 0.6324(3)
H3 H 0.5085 0.2330 0.6716
C5 C 0.5930(3) 0.3296(3) 0.6311(3)
H4 H 0.5757 0.3750 0.6684
C6 C 0.5302(3) 0.0834(3) 0.5738(3)
C7 C 0.5048(4) 0.0443(3) 0.6573(3)
H5 H 0.4423 0.0625 0.6649
H6 H 0.5473 0.0670 0.7051
H7 H 0.5084 -0.0215 0.6554
C8 C 0.7830(3) 0.5149(3) 0.4050(3)
H8 H 0.8418 0.5260 0.4349
C9 C 0.7732(3) 0.5180(3) 0.3160(3)
H9 H 0.8245 0.5303 0.2868
C10 C 0.6858(3) 0.5026(3) 0.2689(2)
C11 C 0.6128(3) 0.4866(3) 0.3168(3)
H10 H 0.5527 0.4779 0.2886
C12 C 0.6288(3) 0.4834(3) 0.4062(3)
H11 H 0.5785 0.4714 0.4369
C13 C 0.6741(3) 0.5012(3) 0.1719(3)
C14 C 0.5796(4) 0.5068(4) 0.1218(3)
H12 H 0.5837 0.5368 0.0670
H13 H 0.5390 0.5413 0.1545
H14 H 0.5551 0.4459 0.1114
C15 C 0.7239(3) 0.5312(3) -0.2192(2)
H15 H 0.7036 0.5870 -0.2440
C16 C 0.7272(3) 0.5211(3) -0.1305(3)
H16 H 0.7086 0.5692 -0.0969
C17 C 0.7582(3) 0.4394(3) -0.0910(2)
C18 C 0.7856(3) 0.3710(3) -0.1452(3)
H17 H 0.8081 0.3152 -0.1220
C19 C 0.7790(3) 0.3866(3) -0.2342(2)
H18 H 0.7969 0.3397 -0.2695
C20 C 0.7620(3) 0.4264(3) 0.0054(2)
C21 C 0.7885(4) 0.3360(4) 0.0456(3)
H19 H 0.7995 0.3426 0.1079
H20 H 0.8443 0.3142 0.0243
H21 H 0.7389 0.2927 0.0307
N1 N 0.6576(2) 0.3502(2) 0.5785(2)
N2 N 0.5195(3) 0.0443(2) 0.4992(3)
N3 N 0.7129(2) 0.4967(2) 0.45175(19)
N4 N 0.7494(3) 0.4933(3) 0.1367(2)
N5 N 0.7486(2) 0.4645(2) -0.27204(19)
N6 N 0.7407(3) 0.4981(3) 0.0466(2)
N7 N 0.9131(2) 0.4638(3) 0.5995(2)
N8 N 0.6155(2) 0.6229(2) 0.5876(2)
O1 O 0.8598(2) 0.3970(2) 0.5799(2)
O2 O 0.8743(2) 0.5395(3) 0.6089(2)
O3 O 0.9983(2) 0.4560(3) 0.6086(3)
O4 O 0.7014(2) 0.6383(2) 0.5912(2)
O5 O 0.5924(2) 0.5402(2) 0.59646(19)
O6 O 0.5580(3) 0.6843(3) 0.5763(3)
N2B N 0.4805(3) -0.0443(2) 0.5008(3)
C6B C 0.4698(3) -0.0834(3) 0.4262(3)
C3B C 0.4270(3) -0.1768(3) 0.4250(3)
C2B C 0.3617(3) -0.1991(3) 0.4812(3)
C1B C 0.3215(3) -0.2843(3) 0.4768(3)
H1B H 0.2772 -0.2973 0.5141
N1B N 0.3424(2) -0.3502(2) 0.4215(2)
C5B C 0.4070(3) -0.3296(3) 0.3689(3)
C4B C 0.4488(3) -0.2448(3) 0.3676(3)
H3B H 0.4915 -0.2330 0.3284
H4B H 0.4243 -0.3750 0.3316
H2B H 0.3457 -0.1562 0.5215
C7B C 0.4952(4) -0.0443(3) 0.3427(3)
H5B H 0.5577 -0.0625 0.3351
H6B H 0.4527 -0.0670 0.2949
H7B H 0.4916 0.0215 0.3446
C8_2 C 0.7830(3) 0.5149(3) 1.4050(3)
H8_2 H 0.8418 0.5260 1.4349
C9_2 C 0.7732(3) 0.5180(3) 1.3160(3)
H9_2 H 0.8245 0.5303 1.2868
C10_2 C 0.6858(3) 0.5026(3) 1.2689(2)
C11_2 C 0.6128(3) 0.4866(3) 1.3168(3)
H10_2 H 0.5527 0.4779 1.2886
C12_2 C 0.6288(3) 0.4834(3) 1.4062(3)
H11_2 H 0.5785 0.4714 1.4369
C13_2 C 0.6741(3) 0.5012(3) 1.1719(3)
C14_2 C 0.5796(4) 0.5068(4) 1.1218(3)
H12_2 H 0.5837 0.5368 1.0670
H13_2 H 0.5390 0.5413 1.1545
H14_2 H 0.5551 0.4459 1.1114
C15_2 C 0.7239(3) 0.5312(3) 0.7808(2)
H15_2 H 0.7036 0.5870 0.7560
C16_2 C 0.7272(3) 0.5211(3) 0.8695(3)
H16_2 H 0.7086 0.5692 0.9031
C17_2 C 0.7582(3) 0.4394(3) 0.9090(2)
C18_2 C 0.7856(3) 0.3710(3) 0.8548(3)
H17_2 H 0.8081 0.3152 0.8780
C19_2 C 0.7790(3) 0.3866(3) 0.7658(2)
H18_2 H 0.7969 0.3397 0.7305
C20_2 C 0.7620(3) 0.4264(3) 1.0054(2)
C21_2 C 0.7885(4) 0.3360(4) 1.0456(3)
H19_2 H 0.7995 0.3426 1.1079
H20_2 H 0.8443 0.3142 1.0243
H21_2 H 0.7389 0.2927 1.0307
N3_2 N 0.7129(2) 0.4967(2) 1.45175(19)
N4_2 N 0.7494(3) 0.4933(3) 1.1367(2)
N5_2 N 0.7486(2) 0.4645(2) 0.72796(19)
N6_2 N 0.7407(3) 0.4981(3) 1.0466(2)
Co1B Co 0.26989(3) -0.48010(3) 0.41090(3)
N7B N 0.0869(2) -0.4638(3) 0.4005(2)
O1B O 0.1402(2) -0.3970(2) 0.4201(2)
O2B O 0.1257(2) -0.5395(3) 0.3911(2)
O3B O 0.0017(2) -0.4560(3) 0.3914(3)
N8B N 0.3845(2) -0.6229(2) 0.4124(2)
O4B O 0.2986(2) -0.6383(2) 0.4088(2)
O5B O 0.4076(2) -0.5402(2) 0.40354(19)
O6B O 0.4420(3) -0.6843(3) 0.4237(3)
Co1_2 Co 0.73011(3) 0.48010(3) -0.41090(3)
Co1_3 Co 0.73011(3) 0.48010(3) 1.58910(3)
N3B N 0.2871(2) -0.4967(2) 0.54825(19)
N5B N 0.2514(2) -0.4645(2) 0.27204(19)
C22 C 0.4694(6) 0.7782(6) 0.7477(7)
H22 H 0.4806 0.8394 0.7717
H23 H 0.4819 0.7801 0.6875
Cl1 Cl 0.5483(2) 0.70386(18) 0.8041(2)
Cl2 Cl 0.3569(2) 0.7533(2) 0.7490(3)
C23 C 0.0274(6) 0.7040(6) 0.5860(7)
H24 H 0.0429 0.7104 0.5270
H25 H 0.0102 0.6405 0.5944
Cl3 Cl -0.06448(19) 0.7731(2) 0.5995(3)
Cl4 Cl 0.12434(19) 0.7312(2) 0.6590(2)
loop_
_geom_bond_atom_site_label_1
_geom_bond_atom_site_label_2
_geom_bond_site_symmetry_1
_geom_bond_site_symmetry_2
Co1 N1 1_555 1_555
C1 H1 1_555 1_555
C2 C1 1_555 1_555
H2 C2 1_555 1_555
C3 C2 1_555 1_555
C4 C3 1_555 1_555
H3 C4 1_555 1_555
C5 C4 1_555 1_555
H4 C5 1_555 1_555
C6 C3 1_555 1_555
C7 C6 1_555 1_555
H5 C7 1_555 1_555
H6 C7 1_555 1_555
H7 C7 1_555 1_555
C8 H8 1_555 1_555
C9 C8 1_555 1_555
H9 C9 1_555 1_555
C10 C9 1_555 1_555
C11 C10 1_555 1_555
H10 C11 1_555 1_555
C12 C11 1_555 1_555
H11 C12 1_555 1_555
C13 C10 1_555 1_555
C14 C13 1_555 1_555
H12 C14 1_555 1_555
H13 C14 1_555 1_555
H14 C14 1_555 1_555
C15 H15 1_555 1_555
C16 C15 1_555 1_555
H16 C16 1_555 1_555
C17 C16 1_555 1_555
C18 C17 1_555 1_555
H17 C18 1_555 1_555
C19 C18 1_555 1_555
H18 C19 1_555 1_555
C20 C17 1_555 1_555
C21 C20 1_555 1_555
H19 C21 1_555 1_555
H20 C21 1_555 1_555
H21 C21 1_555 1_555
N1 C1 1_555 1_555
N2 C6 1_555 1_555
N3 Co1 1_555 1_555
N4 C13 1_555 1_555
N5 C15 1_555 1_555
N6 C20 1_555 1_555
N7 O1 1_555 1_555
N8 O4 1_555 1_555
O1 Co1 1_555 1_555
O2 Co1 1_555 1_555
O3 N7 1_555 1_555
O4 Co1 1_555 1_555
O5 Co1 1_555 1_555
O6 N8 1_555 1_555
C22 H22 1_555 1_555
H23 C22 1_555 1_555
Cl1 C22 1_555 1_555
Cl2 C22 1_555 1_555
C23 H24 1_555 1_555
H25 C23 1_555 1_555
Cl3 C23 1_555 1_555
Cl4 C23 1_555 1_555
N2B N2 1_555 1_555
C6B N2B 1_555 1_555
C3B C6B 1_555 1_555
C2B C3B 1_555 1_555
C1B C2B 1_555 1_555
H1B C1B 1_555 1_555
N1B C1B 1_555 1_555
C5B N1B 1_555 1_555
C4B C3B 1_555 1_555
H3B C4B 1_555 1_555
H4B C5B 1_555 1_555
H2B C2B 1_555 1_555
C7B C6B 1_555 1_555
H5B C7B 1_555 1_555
H6B C7B 1_555 1_555
H7B C7B 1_555 1_555
C8_2 H8_2 1_555 1_555
C9_2 C8_2 1_555 1_555
H9_2 C9_2 1_555 1_555
C10_2 C9_2 1_555 1_555
C11_2 C10_2 1_555 1_555
H10_2 C11_2 1_555 1_555
C12_2 C11_2 1_555 1_555
H11_2 C12_2 1_555 1_555
C13_2 C10_2 1_555 1_555
C14_2 C13_2 1_555 1_555
H12_2 C14_2 1_555 1_555
H13_2 C14_2 1_555 1_555
H14_2 C14_2 1_555 1_555
C15_2 H15_2 1_555 1_555
C16_2 C15_2 1_555 1_555
H16_2 C16_2 1_555 1_555
C17_2 C16_2 1_555 1_555
C18_2 C17_2 1_555 1_555
H17_2 C18_2 1_555 1_555
C19_2 C18_2 1_555 1_555
H18_2 C19_2 1_555 1_555
C20_2 C17_2 1_555 1_555
C21_2 C20_2 1_555 1_555
H19_2 C21_2 1_555 1_555
H20_2 C21_2 1_555 1_555
H21_2 C21_2 1_555 1_555
N3_2 C8_2 1_555 1_555
N4_2 C13_2 1_555 1_555
N5_2 Co1 1_555 1_555
N6_2 C20_2 1_555 1_555
Co1B N1B 1_555 1_555
N7B O1B 1_555 1_555
O1B Co1B 1_555 1_555
O2B Co1B 1_555 1_555
O3B N7B 1_555 1_555
N8B O4B 1_555 1_555
O4B Co1B 1_555 1_555
O5B Co1B 1_555 1_555
O6B N8B 1_555 1_555
Co1_2 N5 1_555 1_555
Co1_3 N3_2 1_555 1_555
N3B Co1B 1_555 1_555
N5B Co1B 1_555 1_555
C5 N1 1_555 1_555
C8 N3 1_555 1_555
C12 N3 1_555 1_555
C19 N5 1_555 1_555
N4 N6 1_555 1_555
N7 O2 1_555 1_555
N8 O5 1_555 1_555
C5B C4B 1_555 1_555
C12_2 N3_2 1_555 1_555
C15_2 N5_2 1_555 1_555
C19_2 N5_2 1_555 1_555
N4_2 N6_2 1_555 1_555
N7B O2B 1_555 1_555
N8B O5B 1_555 1_555

#END
