
#######################################################################
#
#                 Cambridge Crystallographic Data Centre
#                                CCDC 
#
#######################################################################
#
# If this CIF has been generated from an entry in the Cambridge 
# Structural Database, then it will include bibliographic, chemical, 
# crystal, experimental, refinement or atomic coordinate data resulting 
# from the CCDC's data processing and validation procedures.
#
#######################################################################

data_XIBCEQ
_symmetry_cell_setting           monoclinic
_symmetry_space_group_name_H-M   'C 2/c'
_symmetry_Int_Tables_number      15
_space_group_name_Hall           '-C 2yn'
loop_
_symmetry_equiv_pos_site_id
_symmetry_equiv_pos_as_xyz
1 x,y,z
2 1/2+x,1/2+y,z
3 x,-y,1/2+z
4 1/2+x,1/2-y,1/2+z
5 -x,-y,-z
6 1/2-x,1/2-y,-z
7 -x,y,1/2-z
8 1/2-x,1/2+y,1/2-z
_cell_length_a                   22.760(2)
_cell_length_b                   21.0103(19)
_cell_length_c                   25.521(2)
_cell_angle_alpha                90
_cell_angle_beta                 97.151(2)
_cell_angle_gamma                90
_cell_volume                     12109.1
loop_
_atom_site_label
_atom_site_type_symbol
_atom_site_fract_x
_atom_site_fract_y
_atom_site_fract_z
Co1 Co 0.0000 -0.04852(3) 0.2500
C1 C 0.0718(2) 0.07013(19) 0.23114(18)
H1 H 0.0415 0.0744 0.2034
C2 C 0.1176(2) 0.1134(2) 0.23477(19)
H2 H 0.1173 0.1463 0.2103
C3 C 0.1646(2) 0.1077(2) 0.27562(19)
C4 C 0.1607(2) 0.0592(2) 0.3106(2)
H3 H 0.1906 0.0534 0.3385
C5 C 0.1128(2) 0.0186(2) 0.30470(19)
H4 H 0.1112 -0.0134 0.3297
C6 C 0.2152(2) 0.1518(2) 0.2790(2)
C7 C 0.2642(3) 0.1458(4) 0.3232(3)
H5 H 0.2841 0.1059 0.3204
H6 H 0.2482 0.1477 0.3563
H7 H 0.2918 0.1800 0.3214
C8 C 0.2995(2) 0.2338(2) 0.2170(2)
C9 C 0.3017(3) 0.1812(3) 0.1782(2)
H8 H 0.3289 0.1491 0.1930
H9 H 0.3148 0.1976 0.1465
H10 H 0.2630 0.1630 0.1700
C10 C 0.4375(2) 0.32872(19) 0.20411(18)
H11 H 0.4713 0.3251 0.1872
C11 C 0.3956(2) 0.2809(2) 0.19695(19)
H12 H 0.4017 0.2460 0.1758
C12 C 0.3442(2) 0.2847(2) 0.22128(18)
C13 C 0.3383(2) 0.3388(2) 0.25124(18)
H13 H 0.3045 0.3443 0.2678
C14 C 0.38164(19) 0.3839(2) 0.25660(17)
H14 H 0.3762 0.4196 0.2770
N1 N 0.06852(4) 0.02258(4) 0.26498(4)
N2 N 0.21512(4) 0.19302(4) 0.24288(4)
N3 N 0.26023(4) 0.23816(4) 0.24813(4)
N4 N 0.43170(4) 0.37979(4) 0.23410(4)
N5 N 0.00747(4) -0.03622(4) 0.37034(4)
O1 O -0.02038(4) -0.05258(4) 0.32797(4)
O2 O 0.03335(4) -0.07654(4) 0.39631(4)
O3 O 0.01279(4) 0.01853(4) 0.38251(4)
C1F C -0.0718(2) 0.07013(19) 0.26886(18)
H1F H -0.0415 0.0744 0.2966
C2F C -0.1176(2) 0.1134(2) 0.26523(19)
H2F H -0.1173 0.1463 0.2897
C3F C -0.1646(2) 0.1077(2) 0.22438(19)
C4F C -0.1607(2) 0.0592(2) 0.1894(2)
H3F H -0.1906 0.0534 0.1615
C5F C -0.1128(2) 0.0186(2) 0.19530(19)
H4F H -0.1112 -0.0134 0.1703
C6F C -0.2152(2) 0.1518(2) 0.2210(2)
C7F C -0.2642(3) 0.1458(4) 0.1768(3)
H5F H -0.2841 0.1059 0.1796
H6F H -0.2482 0.1477 0.1437
H7F H -0.2918 0.1800 0.1786
C8F C -0.2995(2) 0.2338(2) 0.2830(2)
C9F C -0.3017(3) 0.1812(3) 0.3218(2)
H8F H -0.3289 0.1491 0.3070
H9F H -0.3148 0.1976 0.3535
H10F H -0.2630 0.1630 0.3300
C10F C -0.4375(2) 0.32872(19) 0.29589(18)
H11F H -0.4713 0.3251 0.3128
C11F C -0.3956(2) 0.2809(2) 0.30305(19)
H12F H -0.4017 0.2460 0.3242
C12F C -0.3442(2) 0.2847(2) 0.27872(18)
C13F C -0.3383(2) 0.3388(2) 0.24876(18)
H13F H -0.3045 0.3443 0.2322
C14F C -0.38164(19) 0.3839(2) 0.24340(17)
H14F H -0.3762 0.4196 0.2230
N1F N -0.06852(4) 0.02258(4) 0.23502(4)
N2F N -0.21512(4) 0.19302(4) 0.25712(4)
N3F N -0.26023(4) 0.23816(4) 0.25187(4)
N4F N -0.43170(4) 0.37979(4) 0.26590(4)
N5F N -0.00747(4) -0.03622(4) 0.12966(4)
O1F O 0.02038(4) -0.05258(4) 0.17203(4)
O2F O -0.03335(4) -0.07654(4) 0.10369(4)
O3F O -0.01279(4) 0.01853(4) 0.11749(4)
N4A N -0.06830(4) -0.12021(4) 0.23410(4)
N4G N 0.06830(4) -0.12021(4) 0.26590(4)
Co1A Co 0.5000 0.45148(3) 0.2500
Co1A_2 Co -0.5000 0.45148(3) 0.2500
Co2 Co 0.75568(2) 0.94180(2) 0.41300(2)
C15 C 0.6443(2) 0.8690(2) 0.4336(2)
H15 H 0.6460 0.8984 0.4610
C16 C 0.6010(2) 0.8234(2) 0.4303(2)
H16 H 0.5745 0.8222 0.4552
C17 C 0.5966(2) 0.7791(2) 0.3900(2)
C18 C 0.6378(2) 0.7841(2) 0.3543(2)
H17 H 0.6371 0.7556 0.3264
C19 C 0.6797(2) 0.8316(2) 0.3608(2)
H18 H 0.7066 0.8345 0.3363
C20 C 0.5505(2) 0.7288(2) 0.3860(2)
C21 C 0.5494(4) 0.6794(4) 0.3435(3)
H19 H 0.5730 0.6435 0.3566
H20 H 0.5652 0.6971 0.3135
H21 H 0.5094 0.6658 0.3332
C22 C 0.4696(2) 0.6429(2) 0.44821(19)
C23 C 0.5197(3) 0.6328(3) 0.4903(3)
H22 H 0.5442 0.5988 0.4802
H23 H 0.5046 0.6218 0.5226
H24 H 0.5426 0.6711 0.4953
C24 C 0.3694(2) 0.5050(2) 0.46582(19)
H25 H 0.3688 0.4703 0.4884
C25 C 0.4163(2) 0.5469(2) 0.47479(19)
H26 H 0.4463 0.5400 0.5025
C26 C 0.41847(19) 0.59862(19) 0.44274(18)
C27 C 0.3712(2) 0.6067(2) 0.40295(19)
H27 H 0.3696 0.6421 0.3810
C28 C 0.3275(2) 0.5626(2) 0.39652(19)
H28 H 0.2971 0.5685 0.3691
C29 C 0.6449(2) 1.0262(2) 0.3837(2)
H29 H 0.6377 0.9982 0.3554
C30 C 0.6048(2) 1.0743(2) 0.3882(2)
H30 H 0.5714 1.0779 0.3634
C31 C 0.6139(2) 1.1171(2) 0.4295(2)
C32 C 0.6647(2) 1.1091(2) 0.4644(2)
H31 H 0.6733 1.1371 0.4926
C33 C 0.7027(2) 1.0593(2) 0.4572(2)
H32 H 0.7365 1.0546 0.4814
C34 C 0.5710(2) 1.1684(2) 0.4354(2)
C35 C 0.5720(3) 1.2039(4) 0.4867(3)
H33 H 0.5914 1.2441 0.4841
H34 H 0.5930 1.1793 0.5147
H35 H 0.5321 1.2109 0.4940
C36 C 0.4209(3) 1.1437(2) 0.4120(3)
H36 H 0.3790 1.1403 0.4016
H37 H 0.4299 1.1317 0.4484
H38 H 0.4414 1.1161 0.3905
C37 C 0.4402(2) 1.2112(2) 0.40510(19)
C38 C 0.3090(2) 1.3079(2) 0.43380(19)
H39 H 0.2757 1.3024 0.4511
C39 C 0.3460(2) 1.2568(2) 0.4309(2)
H40 H 0.3369 1.2176 0.4447
C40 C 0.3968(2) 1.2644(2) 0.40715(18)
C41 C 0.4071(2) 1.3235(2) 0.38661(18)
H41 H 0.4410 1.3306 0.3705
C42 C 0.36747(4) 1.37123(4) 0.38999(4)
H42 H 0.3751 1.4105 0.3753
N6 N 0.68403(4) 0.87356(4) 0.39975(4)
N7 N 0.51379(4) 0.73135(4) 0.41888(4)
N8 N 0.46754(4) 0.68759(4) 0.41366(4)
N9 N 0.32508(4) 0.51091(4) 0.42708(4)
N10 N 0.69353(4) 1.01773(4) 0.41771(4)
N11 N 0.49279(4) 1.22736(4) 0.39943(4)
N12 N 0.53292(4) 1.17874(4) 0.39648(4)
N13 N 0.31786(4) 1.36512(4) 0.41330(4)
N14 N 0.76758(4) 0.90057(4) 0.52939(4)
N15 N 0.73982(4) 0.97547(4) 0.29353(4)
O4 O 0.75540(4) 0.93539(4) 0.49488(4)
O5 O 0.74023(4) 0.85526(4) 0.54057(4)
O6 O 0.82031(4) 0.89594(4) 0.54914(4)
O7 O 0.76133(4) 0.94397(4) 0.33122(4)
O8 O 0.72546(4) 0.95327(4) 0.25501(4)
O9 O 0.72660(4) 1.02846(4) 0.29188(4)
C15A C 1.1443(2) 1.3690(2) 0.4336(2)
H15A H 1.1460 1.3984 0.4610
C16A C 1.1010(2) 1.3234(2) 0.4303(2)
H16A H 1.0745 1.3222 0.4552
C17A C 1.0966(2) 1.2791(2) 0.3900(2)
C18A C 1.1378(2) 1.2841(2) 0.3543(2)
H17A H 1.1371 1.2556 0.3264
C19A C 1.1797(2) 1.3316(2) 0.3608(2)
H18A H 1.2066 1.3345 0.3363
C20A C 1.0505(2) 1.2288(2) 0.3860(2)
C21A C 1.0494(4) 1.1794(4) 0.3435(3)
H19A H 1.0730 1.1435 0.3566
H20A H 1.0652 1.1971 0.3135
H21A H 1.0094 1.1658 0.3332
C22A C 0.9696(2) 1.1429(2) 0.44821(19)
C23A C 1.0197(3) 1.1328(3) 0.4903(3)
H22A H 1.0442 1.0988 0.4802
H23A H 1.0046 1.1218 0.5226
H24A H 1.0426 1.1711 0.4953
C24A C 0.8694(2) 1.0050(2) 0.46582(19)
H25A H 0.8688 0.9703 0.4884
C25A C 0.9163(2) 1.0469(2) 0.47479(19)
H26A H 0.9463 1.0400 0.5025
C26A C 0.91847(19) 1.09862(19) 0.44274(18)
C27A C 0.8712(2) 1.1067(2) 0.40295(19)
H27A H 0.8696 1.1421 0.3810
C28A C 0.8275(2) 1.0626(2) 0.39652(19)
H28A H 0.7971 1.0685 0.3691
N6A N 1.18403(4) 1.37356(4) 0.39975(4)
N7A N 1.01379(4) 1.23135(4) 0.41888(4)
N8A N 0.96754(4) 1.18759(4) 0.41366(4)
N9A N 0.82508(4) 1.01091(4) 0.42708(4)
C29A C 1.1449(2) 0.5262(2) 0.3837(2)
H29A H 1.1377 0.4982 0.3554
C30A C 1.1048(2) 0.5743(2) 0.3882(2)
H30A H 1.0714 0.5779 0.3634
C31A C 1.1139(2) 0.6171(2) 0.4295(2)
C32A C 1.1647(2) 0.6091(2) 0.4644(2)
H31A H 1.1733 0.6371 0.4926
C33A C 1.2027(2) 0.5593(2) 0.4572(2)
H32A H 1.2365 0.5546 0.4814
C34A C 1.0710(2) 0.6684(2) 0.4354(2)
C35A C 1.0720(3) 0.7039(4) 0.4867(3)
H33A H 1.0914 0.7441 0.4841
H34A H 1.0930 0.6793 0.5147
H35A H 1.0321 0.7109 0.4940
C36A C 0.9209(3) 0.6437(2) 0.4120(3)
H36A H 0.8790 0.6403 0.4016
H37A H 0.9299 0.6317 0.4484
H38A H 0.9414 0.6161 0.3905
C37A C 0.9402(2) 0.7112(2) 0.40510(19)
C38A C 0.8090(2) 0.8079(2) 0.43380(19)
H39A H 0.7757 0.8024 0.4511
C39A C 0.8460(2) 0.7568(2) 0.4309(2)
H40A H 0.8369 0.7176 0.4447
C40A C 0.8968(2) 0.7644(2) 0.40715(18)
C41A C 0.9071(2) 0.8235(2) 0.38661(18)
H41A H 0.9410 0.8306 0.3705
C42A C 0.86747(4) 0.87123(4) 0.38999(4)
H42A H 0.8751 0.9105 0.3753
N10A N 1.19353(4) 0.51773(4) 0.41771(4)
N11A N 0.99279(4) 0.72736(4) 0.39943(4)
N12A N 1.03292(4) 0.67874(4) 0.39648(4)
N13A N 0.81786(4) 0.86512(4) 0.41330(4)
Co2A Co 1.25568(2) 1.44180(2) 0.41300(2)
Co2A_2 Co 0.25568(2) 0.44180(2) 0.41300(2)
Co2A_3 Co 0.25568(2) 1.44180(2) 0.41300(2)
Co2A_4 Co 1.25568(2) 0.44180(2) 0.41300(2)
N9_2 N 1.32508(4) 1.51091(4) 0.42708(4)
N10A_2 N 1.19353(4) 1.51773(4) 0.41771(4)
N13_2 N 1.31786(4) 1.36512(4) 0.41330(4)
O4A O 1.25540(4) 1.43539(4) 0.49488(4)
O7A O 1.26133(4) 1.44397(4) 0.33122(4)
N15A N 1.23982(4) 1.47547(4) 0.29353(4)
N14A N 1.26758(4) 1.40057(4) 0.52939(4)
O8A O 1.22546(4) 1.45327(4) 0.25501(4)
O9A O 1.22660(4) 1.52846(4) 0.29188(4)
O5A O 1.24023(4) 1.35526(4) 0.54057(4)
O6A O 1.32031(4) 1.39594(4) 0.54914(4)
C43 C 0.2372(8) 0.2908(7) 0.0833(8)
H43 H 0.2149 0.2535 0.0808
C44 C 0.2842(10) 0.2957(9) 0.0581(5)
H44 H 0.2951 0.2620 0.0378
C45 C 0.3158(5) 0.3487(12) 0.0618(6)
H45 H 0.3489 0.3522 0.0440
C46 C 0.3004(9) 0.3967(7) 0.0906(7)
H46 H 0.3227 0.4339 0.0931
C47 C 0.2534(10) 0.3917(9) 0.1158(5)
H47 H 0.2425 0.4255 0.1361
C48 C 0.2218(5) 0.3388(13) 0.1122(6)
H48 H 0.1886 0.3353 0.1299
C49 C 0.0000 0.5308(17) 0.2500
H49 H 0.0000 0.4866 0.2500
C50 C 0.0516(8) 0.5560(9) 0.2375(7)
H50 H 0.0845 0.5324 0.2310
C51 C 0.0481(7) 0.6202(9) 0.2358(5)
H51 H 0.0789 0.6441 0.2250
C52 C 0.0000 0.6492(12) 0.2500
H52 H 0.0000 0.6935 0.2500
C51F C -0.0481(7) 0.6202(9) 0.2642(5)
C50F C -0.0516(8) 0.5560(9) 0.2625(7)
H50F H -0.0845 0.5324 0.2690
H51F H -0.0789 0.6441 0.2750
C53? C 0.5790(10) 0.9020(11) 0.2607(9)
H53? H 0.5787 0.9388 0.2810
C54? C 0.5797(10) 0.7921(11) 0.2002(7)
H54? H 0.5800 0.7553 0.1800
C55? C 0.5331(10) 0.8581(12) 0.2601(8)
H55? H 0.5014 0.8658 0.2804
C56? C 0.6256(10) 0.8360(11) 0.2009(7)
H56? H 0.6565 0.8286 0.1810
C57? C 0.6252(10) 0.8910(11) 0.2311(9)
H57? H 0.6559 0.9203 0.2316
C58? C 0.5335(10) 0.8031(11) 0.2298(9)
H58? H 0.5020 0.7730 0.2294
C59? C 0.9476(10) 0.5003(6) 0.4842(7)
H59? H 0.9560 0.5164 0.5181
C60? C 0.9955(9) 0.4796(6) 0.4555(8)
H60? H 1.0344 0.4826 0.4710
C61? C 0.9824(10) 0.4543(7) 0.4022(7)
H61? H 1.0130 0.4411 0.3839
C62? C 0.9213(9) 0.4497(7) 0.3778(7)
H62? H 0.9129 0.4335 0.3437
C63? C 0.8734(8) 0.4703(5) 0.4065(7)
H63? H 0.8344 0.4674 0.3909
C64? C 0.8866(8) 0.4956(6) 0.4597(7)
H64? H 0.8559 0.5088 0.4781
loop_
_geom_bond_atom_site_label_1
_geom_bond_atom_site_label_2
_geom_bond_site_symmetry_1
_geom_bond_site_symmetry_2
Co1 N1 1_555 1_555
Co2 N6 1_555 1_555
C1 H1 1_555 1_555
C2 C1 1_555 1_555
H2 C2 1_555 1_555
C3 C2 1_555 1_555
C4 C3 1_555 1_555
H3 C4 1_555 1_555
C5 C4 1_555 1_555
H4 C5 1_555 1_555
C6 C3 1_555 1_555
C7 C6 1_555 1_555
H5 C7 1_555 1_555
H6 C7 1_555 1_555
H7 C7 1_555 1_555
C8 C9 1_555 1_555
C9 H8 1_555 1_555
H9 C9 1_555 1_555
H10 C9 1_555 1_555
C10 H11 1_555 1_555
C11 C10 1_555 1_555
H12 C11 1_555 1_555
C12 C8 1_555 1_555
C13 C12 1_555 1_555
H13 C13 1_555 1_555
C14 C13 1_555 1_555
H14 C14 1_555 1_555
C15 H15 1_555 1_555
C16 C15 1_555 1_555
H16 C16 1_555 1_555
C17 C16 1_555 1_555
C18 C17 1_555 1_555
H17 C18 1_555 1_555
C19 C18 1_555 1_555
H18 C19 1_555 1_555
C20 C17 1_555 1_555
C21 C20 1_555 1_555
H19 C21 1_555 1_555
H20 C21 1_555 1_555
H21 C21 1_555 1_555
C22 C23 1_555 1_555
C23 H22 1_555 1_555
H23 C23 1_555 1_555
H24 C23 1_555 1_555
C24 H25 1_555 1_555
C25 C24 1_555 1_555
H26 C25 1_555 1_555
C26 C22 1_555 1_555
C27 C26 1_555 1_555
H27 C27 1_555 1_555
C28 C27 1_555 1_555
H28 C28 1_555 1_555
C29 H29 1_555 1_555
C30 C29 1_555 1_555
H30 C30 1_555 1_555
C31 C30 1_555 1_555
C32 C31 1_555 1_555
H31 C32 1_555 1_555
C33 C32 1_555 1_555
H32 C33 1_555 1_555
C34 C31 1_555 1_555
C35 C34 1_555 1_555
H33 C35 1_555 1_555
H34 C35 1_555 1_555
H35 C35 1_555 1_555
C36 H36 1_555 1_555
H37 C36 1_555 1_555
H38 C36 1_555 1_555
C37 C36 1_555 1_555
C38 H39 1_555 1_555
C39 C38 1_555 1_555
H40 C39 1_555 1_555
C40 C37 1_555 1_555
C41 C40 1_555 1_555
H41 C41 1_555 1_555
C42 C41 1_555 1_555
H42 C42 1_555 1_555
N1 C1 1_555 1_555
N2 C6 1_555 1_555
N3 C8 1_555 1_555
N4 C10 1_555 1_555
N5 O1 1_555 1_555
N6 C15 1_555 1_555
N7 C20 1_555 1_555
N8 C22 1_555 1_555
N9 C24 1_555 1_555
N10 Co2 1_555 1_555
N11 C37 1_555 1_555
N12 C34 1_555 1_555
N13 C38 1_555 1_555
N14 O4 1_555 1_555
N15 O7 1_555 1_555
O1 Co1 1_555 1_555
O2 N5 1_555 1_555
O3 N5 1_555 1_555
O4 Co2 1_555 1_555
O5 N14 1_555 1_555
O6 N14 1_555 1_555
O7 Co2 1_555 1_555
O8 N15 1_555 1_555
O9 N15 1_555 1_555
C43 H43 1_555 1_555
C44 C43 1_555 1_555
H44 C44 1_555 1_555
C45 C44 1_555 1_555
H45 C45 1_555 1_555
C46 C45 1_555 1_555
H46 C46 1_555 1_555
C47 C46 1_555 1_555
H47 C47 1_555 1_555
C48 C43 1_555 1_555
H48 C48 1_555 1_555
C49 H49 1_555 1_555
C50 C49 1_555 1_555
H50 C50 1_555 1_555
C51 C50 1_555 1_555
H51 C51 1_555 1_555
C52 C51 1_555 1_555
H52 C52 1_555 1_555
C51F C52 1_555 1_555
C50F C49 1_555 1_555
H50F C50F 1_555 1_555
H51F C51F 1_555 1_555
C1F H1F 1_555 1_555
C2F C1F 1_555 1_555
H2F C2F 1_555 1_555
C3F C2F 1_555 1_555
C4F C3F 1_555 1_555
H3F C4F 1_555 1_555
C5F C4F 1_555 1_555
H4F C5F 1_555 1_555
C6F C3F 1_555 1_555
C7F C6F 1_555 1_555
H5F C7F 1_555 1_555
H6F C7F 1_555 1_555
H7F C7F 1_555 1_555
C8F C9F 1_555 1_555
C9F H8F 1_555 1_555
H9F C9F 1_555 1_555
H10F C9F 1_555 1_555
C10F H11F 1_555 1_555
C11F C10F 1_555 1_555
H12F C11F 1_555 1_555
C12F C8F 1_555 1_555
C13F C12F 1_555 1_555
H13F C13F 1_555 1_555
C14F C13F 1_555 1_555
H14F C14F 1_555 1_555
N1F Co1 1_555 1_555
N2F C6F 1_555 1_555
N3F C8F 1_555 1_555
N4F C10F 1_555 1_555
N5F O1F 1_555 1_555
O1F Co1 1_555 1_555
O2F N5F 1_555 1_555
O3F N5F 1_555 1_555
C15A H15A 1_555 1_555
C16A C15A 1_555 1_555
H16A C16A 1_555 1_555
C17A C16A 1_555 1_555
C18A C17A 1_555 1_555
H17A C18A 1_555 1_555
C19A C18A 1_555 1_555
H18A C19A 1_555 1_555
C20A C17A 1_555 1_555
C21A C20A 1_555 1_555
H19A C21A 1_555 1_555
H20A C21A 1_555 1_555
H21A C21A 1_555 1_555
C22A C23A 1_555 1_555
C23A H22A 1_555 1_555
H23A C23A 1_555 1_555
H24A C23A 1_555 1_555
C24A H25A 1_555 1_555
C25A C24A 1_555 1_555
H26A C25A 1_555 1_555
C26A C22A 1_555 1_555
C27A C26A 1_555 1_555
H27A C27A 1_555 1_555
C28A C27A 1_555 1_555
H28A C28A 1_555 1_555
N6A C15A 1_555 1_555
N7A C20A 1_555 1_555
N8A C22A 1_555 1_555
N9A Co2 1_555 1_555
C29A H29A 1_555 1_555
C30A C29A 1_555 1_555
H30A C30A 1_555 1_555
C31A C30A 1_555 1_555
C32A C31A 1_555 1_555
H31A C32A 1_555 1_555
C33A C32A 1_555 1_555
H32A C33A 1_555 1_555
C34A C31A 1_555 1_555
C35A C34A 1_555 1_555
H33A C35A 1_555 1_555
H34A C35A 1_555 1_555
H35A C35A 1_555 1_555
C36A H36A 1_555 1_555
H37A C36A 1_555 1_555
H38A C36A 1_555 1_555
C37A C36A 1_555 1_555
C38A H39A 1_555 1_555
C39A C38A 1_555 1_555
H40A C39A 1_555 1_555
C40A C37A 1_555 1_555
C41A C40A 1_555 1_555
H41A C41A 1_555 1_555
C42A C41A 1_555 1_555
H42A C42A 1_555 1_555
N10A C29A 1_555 1_555
N11A C37A 1_555 1_555
N12A C34A 1_555 1_555
N13A Co2 1_555 1_555
Co2A N6A 1_555 1_555
N4A Co1 1_555 1_555
N4G Co1 1_555 1_555
Co1A N4 1_555 1_555
Co2A_2 N9 1_555 1_555
Co2A_3 N13 1_555 1_555
Co1A_2 N4F 1_555 1_555
Co2A_4 N10A 1_555 1_555
N9_2 Co2A 1_555 1_555
N10A_2 Co2A 1_555 1_555
N13_2 Co2A 1_555 1_555
O4A Co2A 1_555 1_555
O7A Co2A 1_555 1_555
N15A O7A 1_555 1_555
N14A O4A 1_555 1_555
O8A N15A 1_555 1_555
O9A N15A 1_555 1_555
O5A N14A 1_555 1_555
O6A N14A 1_555 1_555
C5 N1 1_555 1_555
C11 C12 1_555 1_555
C14 N4 1_555 1_555
C19 N6 1_555 1_555
C25 C26 1_555 1_555
C28 N9 1_555 1_555
C29 N10 1_555 1_555
C33 N10 1_555 1_555
C39 C40 1_555 1_555
C42 N13 1_555 1_555
N2 N3 1_555 1_555
N7 N8 1_555 1_555
N11 N12 1_555 1_555
C47 C48 1_555 1_555
C51F C50F 1_555 1_555
C1F N1F 1_555 1_555
C5F N1F 1_555 1_555
C11F C12F 1_555 1_555
C14F N4F 1_555 1_555
N2F N3F 1_555 1_555
C19A N6A 1_555 1_555
C24A N9A 1_555 1_555
C25A C26A 1_555 1_555
C28A N9A 1_555 1_555
N7A N8A 1_555 1_555
C33A N10A 1_555 1_555
C38A N13A 1_555 1_555
C39A C40A 1_555 1_555
C42A N13A 1_555 1_555
N11A N12A 1_555 1_555

#END
