
#######################################################################
#
#                 Cambridge Crystallographic Data Centre
#                                CCDC 
#
#######################################################################
#
# If this CIF has been generated from an entry in the Cambridge 
# Structural Database, then it will include bibliographic, chemical, 
# crystal, experimental, refinement or atomic coordinate data resulting 
# from the CCDC's data processing and validation procedures.
#
#######################################################################

data_XIBCAM
_symmetry_cell_setting           monoclinic
_symmetry_space_group_name_H-M   'C 2/c'
_symmetry_Int_Tables_number      15
_space_group_name_Hall           '-C 2yn'
loop_
_symmetry_equiv_pos_site_id
_symmetry_equiv_pos_as_xyz
1 x,y,z
2 1/2+x,1/2+y,z
3 x,-y,1/2+z
4 1/2+x,1/2-y,1/2+z
5 -x,-y,-z
6 1/2-x,1/2-y,-z
7 -x,y,1/2-z
8 1/2-x,1/2+y,1/2-z
_cell_length_a                   20.815(8)
_cell_length_b                   23.427(9)
_cell_length_c                   17.291(6)
_cell_angle_alpha                90
_cell_angle_beta                 116.148(6)
_cell_angle_gamma                90
_cell_volume                     7568.75
loop_
_atom_site_label
_atom_site_type_symbol
_atom_site_fract_x
_atom_site_fract_y
_atom_site_fract_z
Ni1 Ni 1.0000 0.59973(2) 0.2500
N1 N 1.06263(18) 0.66660(11) 0.2338(2)
N2 N 1.43473(18) 1.03193(12) 0.2598(2)
N3 N 1.0648(2) 0.60622(14) 0.4480(2)
N7 N 1.2404(2) 0.81746(15) 0.2447(3)
N8 N 1.2653(2) 0.86787(15) 0.2223(3)
O1 O 1.07252(15) 0.60205(11) 0.38005(18)
O2 O 1.0061(2) 0.60151(17) 0.4473(3)
O3 O 1.1165(3) 0.6146(3) 0.5156(3)
C1 C 1.0292(2) 0.70764(15) 0.1755(3)
H1 H 0.9801 0.7048 0.1421
C2 C 1.0651(3) 0.75412(16) 0.1629(3)
H2 H 1.0402 0.7812 0.1210
C3 C 1.1373(2) 0.75982(15) 0.2125(3)
C4 C 1.1716(2) 0.71746(18) 0.2716(3)
H3 H 1.2208 0.7193 0.3056
C5 C 1.1330(2) 0.67260(16) 0.2802(3)
H4 H 1.1574 0.6447 0.3208
C6 C 1.1742(3) 0.80973(18) 0.1997(3)
H5 H 1.1482 0.8363 0.1574
C7 C 1.3692(2) 1.01971(17) 0.1998(3)
H6 H 1.3484 1.0439 0.1525
C8 C 1.3303(2) 0.97268(17) 0.2041(3)
H7 H 1.2842 0.9663 0.1613
C9 C 1.3605(2) 0.93574(16) 0.2721(3)
C10 C 1.4284(3) 0.94855(17) 0.3361(3)
H8 H 1.4497 0.9256 0.3848
C11 C 1.4636(3) 0.99573(15) 0.3262(3)
H9 H 1.5100 1.0028 0.3679
C12 C 1.3237(3) 0.88431(18) 0.2814(3)
H10 H 1.3443 0.8635 0.3323
N1F N 0.93737(18) 0.66660(11) 0.2662(2)
N2F N 0.56527(18) 1.03193(12) 0.2402(2)
N7F N 0.7596(2) 0.81746(15) 0.2553(3)
N8F N 0.7347(2) 0.86787(15) 0.2777(3)
C1F C 0.9708(2) 0.70764(15) 0.3245(3)
H1F H 1.0199 0.7048 0.3579
C2F C 0.9349(3) 0.75412(16) 0.3371(3)
H2F H 0.9598 0.7812 0.3790
C3F C 0.8627(2) 0.75982(15) 0.2875(3)
C4F C 0.8284(2) 0.71746(18) 0.2284(3)
H3F H 0.7792 0.7193 0.1944
C5F C 0.8670(2) 0.67260(16) 0.2198(3)
H4F H 0.8426 0.6447 0.1792
C6F C 0.8258(3) 0.80973(18) 0.3003(3)
H5F H 0.8518 0.8363 0.3426
C7F C 0.6308(2) 1.01971(17) 0.3002(3)
H6F H 0.6516 1.0439 0.3475
C8F C 0.6697(2) 0.97268(17) 0.2959(3)
H7F H 0.7158 0.9663 0.3387
C9F C 0.6395(2) 0.93574(16) 0.2279(3)
C10F C 0.5716(3) 0.94855(17) 0.1639(3)
H8F H 0.5503 0.9256 0.1152
C11F C 0.5364(3) 0.99573(15) 0.1738(3)
H9F H 0.4900 1.0028 0.1321
C12F C 0.6763(3) 0.88431(18) 0.2186(3)
H10F H 0.6557 0.8635 0.1677
N3F N 0.9352(2) 0.60622(14) 0.0520(2)
O1F O 0.92748(15) 0.60205(11) 0.11995(18)
O2F O 0.9939(2) 0.60151(17) 0.0527(3)
O3F O 0.8835(3) 0.6146(3) -0.0156(3)
N2A N 0.93473(18) 0.53193(12) 0.2598(2)
N2G N 1.06527(18) 0.53193(12) 0.2402(2)
Ni1A Ni 1.5000 1.09973(2) 0.2500
Ni1A_2 Ni 0.5000 1.09973(2) 0.2500
Ni2 Ni 0.5000 0.49954(2) 0.2500
N4 N 0.42364(19) 0.43826(13) 0.1771(2)
N5 N 0.56917(19) 0.56299(12) 0.3312(2)
N6 N 0.5833(4) 0.4799(3) 0.1383(4)
N9 N 0.2798(2) 0.26755(16) 0.0214(3)
N10 N 0.7265(2) 0.73164(15) 0.4675(3)
O4 O 0.5527(2) 0.50891(15) 0.1713(2)
O5 O 0.5754(4) 0.4272(2) 0.1340(5)
O6 O 0.6272(6) 0.4981(3) 0.1140(7)
C13 C 0.3554(2) 0.44669(16) 0.1587(3)
H11 H 0.3430 0.4807 0.1763
C14 C 0.3020(3) 0.40805(17) 0.1151(3)
H12 H 0.2549 0.4165 0.1029
C15 C 0.3189(2) 0.35644(17) 0.0895(3)
C16 C 0.3909(3) 0.34727(19) 0.1100(4)
H13 H 0.4051 0.3130 0.0953
C17 C 0.4404(3) 0.38861(18) 0.1519(4)
H14 H 0.4878 0.3820 0.1633
C18 C 0.2638(3) 0.31435(19) 0.0439(3)
H15 H 0.2164 0.3221 0.0313
C19 C 0.5910(3) 0.60743(16) 0.2998(3)
H16 H 0.5756 0.6098 0.2406
C20 C 0.6350(3) 0.64940(17) 0.3511(3)
H17 H 0.6476 0.6802 0.3266
C21 C 0.6605(2) 0.64570(16) 0.4394(3)
C22 C 0.6388(3) 0.59979(17) 0.4724(3)
H18 H 0.6546 0.5960 0.5316
C23 C 0.5931(2) 0.55974(16) 0.4164(3)
H19 H 0.5785 0.5292 0.4391
C24 C 0.7097(3) 0.68861(18) 0.4974(3)
H20 H 0.7285 0.6837 0.5567
N9E N 0.2202(2) 0.23245(16) -0.0214(3)
C18E C 0.2362(3) 0.18565(19) -0.0439(3)
C15E C 0.1811(2) 0.14356(17) -0.0895(3)
C14E C 0.1980(3) 0.09195(17) -0.1151(3)
C13E C 0.1446(2) 0.05331(16) -0.1587(3)
N4E N 0.07636(19) 0.06174(13) -0.1771(2)
C17E C 0.0596(3) 0.11139(18) -0.1519(4)
C16E C 0.1091(3) 0.15273(19) -0.1100(4)
H13E H 0.0949 0.1870 -0.0953
H14E H 0.0122 0.1180 -0.1633
H11E H 0.1570 0.0193 -0.1763
H12E H 0.2451 0.0835 -0.1029
H15E H 0.2836 0.1779 -0.0313
N10E N 0.7735(2) 0.76836(15) 0.5325(3)
C24E C 0.7903(3) 0.81139(18) 0.5026(3)
C21E C 0.8395(2) 0.85430(16) 0.5606(3)
C20E C 0.8650(3) 0.85060(17) 0.6489(3)
C19E C 0.9090(3) 0.89257(16) 0.7002(3)
N5E N 0.93083(19) 0.93701(12) 0.6688(2)
C23E C 0.9069(2) 0.94026(16) 0.5836(3)
C22E C 0.8612(3) 0.90021(17) 0.5276(3)
H18E H 0.8454 0.9040 0.4684
H19E H 0.9215 0.9708 0.5609
H16E H 0.9244 0.8902 0.7594
H17E H 0.8524 0.8198 0.6734
H20E H 0.7715 0.8163 0.4433
N6F N 0.4167(4) 0.4799(3) 0.3617(4)
O4F O 0.4473(2) 0.50891(15) 0.3287(2)
O5F O 0.4246(4) 0.4272(2) 0.3660(5)
O6F O 0.3728(6) 0.4981(3) 0.3860(7)
N4F N 0.57636(19) 0.43826(13) 0.3229(2)
N5F N 0.43083(19) 0.56299(12) 0.1688(2)
Ni2C Ni 0.0000 0.00046(2) -0.2500
Ni2C_2 Ni 1.0000 1.00046(2) 0.7500
O7 O 0.7861(8) 0.5373(6) 0.3916(11)
C25 C 0.8082(10) 0.5831(8) 0.3600(11)
H21 H 0.8436 0.5703 0.3417
H22 H 0.7677 0.5980 0.3099
C26 C 0.8362(8) 0.6247(6) 0.4179(14)
H23 H 0.8021 0.6556 0.4059
H24 H 0.8791 0.6397 0.4166
C27 C 0.8549(9) 0.5968(11) 0.5104(10)
H25 H 0.9055 0.5987 0.5494
H26 H 0.8270 0.6131 0.5374
C28 C 0.8326(12) 0.5416(9) 0.4792(12)
H27 H 0.8748 0.5188 0.4906
H28 H 0.8094 0.5249 0.5116
O8 O 0.9479(9) 0.8654(7) 0.9425(12)
C29 C 0.9856(8) 0.8129(9) 0.9673(11)
H29 H 1.0237 0.8119 0.9495
H30 H 1.0067 0.8086 1.0294
C30 C 0.9362(10) 0.7680(6) 0.9270(14)
H31 H 0.9512 0.7460 0.8902
H32 H 0.9341 0.7427 0.9701
C31 C 0.8680(9) 0.7928(6) 0.8772(13)
H33 H 0.8509 0.7824 0.8170
H34 H 0.8338 0.7791 0.8970
C32 C 0.8753(8) 0.8530(6) 0.8868(9)
H36 H 0.8616 0.8709 0.8312
O9 O 0.7968(11) 0.8982(9) 0.8796(16)
H37 H 0.8239 0.9409 0.9069
H35? H 0.8445 0.8676 0.9111
H38? H 0.8347 0.8688 0.8667
loop_
_geom_bond_atom_site_label_1
_geom_bond_atom_site_label_2
_geom_bond_site_symmetry_1
_geom_bond_site_symmetry_2
Ni1 N1 1_555 1_555
Ni2 N4 1_555 1_555
N1 C1 1_555 1_555
N2 C7 1_555 1_555
N3 O1 1_555 1_555
N4 C13 1_555 1_555
N5 Ni2 1_555 1_555
N6 O4 1_555 1_555
N7 N8 1_555 1_555
N8 C12 1_555 1_555
N9 C18 1_555 1_555
N10 C24 1_555 1_555
O1 Ni1 1_555 1_555
O2 N3 1_555 1_555
O3 N3 1_555 1_555
O4 Ni2 1_555 1_555
O5 N6 1_555 1_555
O6 N6 1_555 1_555
C1 H1 1_555 1_555
C2 C1 1_555 1_555
H2 C2 1_555 1_555
C3 C2 1_555 1_555
C4 C3 1_555 1_555
H3 C4 1_555 1_555
C5 N1 1_555 1_555
H4 C5 1_555 1_555
C6 N7 1_555 1_555
H5 C6 1_555 1_555
C7 H6 1_555 1_555
C8 C7 1_555 1_555
H7 C8 1_555 1_555
C9 C8 1_555 1_555
C10 C9 1_555 1_555
H8 C10 1_555 1_555
C11 N2 1_555 1_555
H9 C11 1_555 1_555
C12 C9 1_555 1_555
H10 C12 1_555 1_555
C13 H11 1_555 1_555
C14 C13 1_555 1_555
H12 C14 1_555 1_555
C15 C14 1_555 1_555
C16 C15 1_555 1_555
H13 C16 1_555 1_555
C17 N4 1_555 1_555
H14 C17 1_555 1_555
C18 C15 1_555 1_555
H15 C18 1_555 1_555
C19 N5 1_555 1_555
H16 C19 1_555 1_555
C20 C19 1_555 1_555
H17 C20 1_555 1_555
C21 C20 1_555 1_555
C22 C21 1_555 1_555
H18 C22 1_555 1_555
C23 N5 1_555 1_555
H19 C23 1_555 1_555
C24 C21 1_555 1_555
H20 C24 1_555 1_555
O7 C25 1_555 1_555
C25 H21 1_555 1_555
H22 C25 1_555 1_555
C26 C25 1_555 1_555
H23 C26 1_555 1_555
H24 C26 1_555 1_555
C27 C26 1_555 1_555
H25 C27 1_555 1_555
H26 C27 1_555 1_555
C28 O7 1_555 1_555
H27 C28 1_555 1_555
H28 C28 1_555 1_555
O8 C29 1_555 1_555
C29 H29 1_555 1_555
H30 C29 1_555 1_555
C30 C29 1_555 1_555
H31 C30 1_555 1_555
H32 C30 1_555 1_555
C31 C30 1_555 1_555
H33 C31 1_555 1_555
H34 C31 1_555 1_555
C32 O8 1_555 1_555
H36 C32 1_555 1_555
O9 H37 1_555 1_555
N9E N9 1_555 1_555
C18E N9E 1_555 1_555
C15E C18E 1_555 1_555
C14E C15E 1_555 1_555
C13E C14E 1_555 1_555
N4E C13E 1_555 1_555
C17E N4E 1_555 1_555
C16E C15E 1_555 1_555
H13E C16E 1_555 1_555
H14E C17E 1_555 1_555
H11E C13E 1_555 1_555
H12E C14E 1_555 1_555
H15E C18E 1_555 1_555
N10E N10 1_555 1_555
C24E N10E 1_555 1_555
C21E C24E 1_555 1_555
C20E C21E 1_555 1_555
C19E C20E 1_555 1_555
N5E C19E 1_555 1_555
C23E N5E 1_555 1_555
C22E C21E 1_555 1_555
H18E C22E 1_555 1_555
H19E C23E 1_555 1_555
H16E C19E 1_555 1_555
H17E C20E 1_555 1_555
H20E C24E 1_555 1_555
N1F Ni1 1_555 1_555
N2F C7F 1_555 1_555
N7F N8F 1_555 1_555
N8F C12F 1_555 1_555
C1F N1F 1_555 1_555
H1F C1F 1_555 1_555
C2F C1F 1_555 1_555
H2F C2F 1_555 1_555
C3F C2F 1_555 1_555
C4F C3F 1_555 1_555
H3F C4F 1_555 1_555
C5F N1F 1_555 1_555
H4F C5F 1_555 1_555
C6F N7F 1_555 1_555
H5F C6F 1_555 1_555
C7F H6F 1_555 1_555
C8F C7F 1_555 1_555
H7F C8F 1_555 1_555
C9F C8F 1_555 1_555
C10F C9F 1_555 1_555
H8F C10F 1_555 1_555
C11F N2F 1_555 1_555
H9F C11F 1_555 1_555
C12F C9F 1_555 1_555
H10F C12F 1_555 1_555
N3F O1F 1_555 1_555
O1F Ni1 1_555 1_555
O2F N3F 1_555 1_555
O3F N3F 1_555 1_555
N6F O4F 1_555 1_555
O4F Ni2 1_555 1_555
O5F N6F 1_555 1_555
O6F N6F 1_555 1_555
N2A Ni1 1_555 1_555
N2G Ni1 1_555 1_555
N4F Ni2 1_555 1_555
N5F Ni2 1_555 1_555
Ni1A N2 1_555 1_555
Ni2C N4E 1_555 1_555
Ni2C_2 N5E 1_555 1_555
Ni1A_2 N2F 1_555 1_555
C3 C6 1_555 1_555
C4 C5 1_555 1_555
C10 C11 1_555 1_555
C16 C17 1_555 1_555
C22 C23 1_555 1_555
C27 C28 1_555 1_555
C31 C32 1_555 1_555
C17E C16E 1_555 1_555
C23E C22E 1_555 1_555
C3F C6F 1_555 1_555
C4F C5F 1_555 1_555
C10F C11F 1_555 1_555

#END
