
#######################################################################
#
#                 Cambridge Crystallographic Data Centre
#                                CCDC 
#
#######################################################################
#
# If this CIF has been generated from an entry in the Cambridge 
# Structural Database, then it will include bibliographic, chemical, 
# crystal, experimental, refinement or atomic coordinate data resulting 
# from the CCDC's data processing and validation procedures.
#
#######################################################################

data_XIBHOG
_symmetry_cell_setting           monoclinic
_symmetry_space_group_name_H-M   'P 2/n'
_symmetry_Int_Tables_number      13
_space_group_name_Hall           '-P 2yac'
loop_
_symmetry_equiv_pos_site_id
_symmetry_equiv_pos_as_xyz
1 x,y,z
2 1/2-x,y,1/2-z
3 -x,-y,-z
4 1/2+x,-y,1/2+z
_cell_length_a                   11.3663(3)
_cell_length_b                   11.5179(2)
_cell_length_c                   16.5291(2)
_cell_angle_alpha                90
_cell_angle_beta                 101.5810(10)
_cell_angle_gamma                90
_cell_volume                     2119.87
loop_
_atom_site_label
_atom_site_type_symbol
_atom_site_fract_x
_atom_site_fract_y
_atom_site_fract_z
Co1 Co 0.7500 0.55592(6) 0.7500
O1 O 0.7907(2) 0.5576(3) 0.87807(15)
H1 H 0.748(3) 0.528(3) 0.907(2)
H2 H 0.857(2) 0.580(4) 0.901(2)
N1 N 0.9386(2) 0.5558(3) 0.74776(19)
C1 C 1.0156(3) 0.4942(4) 0.8022(2)
H3 H 0.9853 0.4487 0.8398
C2 C 1.1381(3) 0.4940(4) 0.8061(2)
H4 H 1.1886 0.4508 0.8462
C3 C 1.1844(3) 0.5587(3) 0.7496(2)
C4 C 1.1050(3) 0.6209(4) 0.6920(2)
H5 H 1.1326 0.6644 0.6522
C5 C 0.9843(3) 0.6187(4) 0.6934(2)
H6 H 0.9322 0.6628 0.6548
N2 N 0.7500 0.7469(4) 0.7500
C6 C 0.8079(5) 0.8080(4) 0.8133(3)
H7 H 0.8500 0.7679 0.8588
C7 C 0.8096(5) 0.9264(4) 0.8157(3)
H8 H 0.8515 0.9643 0.8624
C8 C 0.7500 0.9903(5) 0.7500
N3 N 0.7500 1.3632(4) 0.7500
C9 C 0.7522(4) 1.3014(4) 0.8183(3)
H9 H 0.7532 1.3415 0.8673
C10 C 0.7530(4) 1.1823(4) 0.8212(3)
H10 H 0.7556 1.1443 0.8711
C11 C 0.7500 1.1190(5) 0.7500
Co1_2 Co 0.7500 1.55592(6) 0.7500
Co1_3 Co 1.7500 0.55592(6) 0.7500
O1A O 0.7093(2) 0.5576(3) 0.62193(15)
H1A H 0.752(3) 0.528(3) 0.593(2)
H2A H 0.643(2) 0.580(4) 0.599(2)
N1A N 1.5614(2) 0.5558(3) 0.75224(19)
N1A_2 N 0.5614(2) 0.5558(3) 0.75224(19)
C1A C 1.4844(3) 0.4942(4) 0.6978(2)
H3A H 1.5147 0.4487 0.6602
C2A C 1.3619(3) 0.4940(4) 0.6939(2)
H4A H 1.3114 0.4508 0.6538
C3A C 1.3156(3) 0.5587(3) 0.7504(2)
C4A C 1.3950(3) 0.6209(4) 0.8080(2)
H5A H 1.3674 0.6644 0.8478
C5A C 1.5157(3) 0.6187(4) 0.8066(2)
H6A H 1.5678 0.6628 0.8452
C6A C 0.6921(5) 0.8080(4) 0.6867(3)
H7A H 0.6500 0.7679 0.6412
C7A C 0.6904(5) 0.9264(4) 0.6843(3)
H8A H 0.6485 0.9643 0.6376
N3_2 N 0.7500 0.3632(4) 0.7500
C9A C 0.7478(4) 1.3014(4) 0.6817(3)
H9A H 0.7468 1.3415 0.6327
C10A C 0.7470(4) 1.1823(4) 0.6788(3)
H10A H 0.7444 1.1443 0.6289
N4 N 0.5911(6) 0.9746(7) 1.2718(4)
C12 C 0.5931(5) 0.8635(5) 1.2762(3)
H11 H 0.6044 0.8262 1.3271
C13 C 0.5791(5) 0.8042(5) 1.2083(3)
H12 H 0.5793 0.7236 1.2121
C14 C 0.5641(4) 0.8527(4) 1.1310(3)
C15 C 0.5620(6) 0.9700(5) 1.1255(4)
H13 H 0.5518 1.0067 1.0745
C16 C 0.5753(7) 1.0333(6) 1.1971(5)
H14 H 0.5738 1.1140 1.1955
S1 S 0.54569(14) 0.76602(12) 1.04133(8)
O2 O 0.5477(7) 0.6470(6) 1.0676(6)
O3 O 0.6402(9) 0.7990(11) 0.9988(7)
O4 O 0.4263(7) 0.7985(7) 0.9939(5)
O8 O 0.6674(3) 0.4788(4) 0.9873(2)
H15 H 0.653(5) 0.539(3) 1.010(3)
H16 H 0.609(3) 0.438(4) 0.968(4)
O9 O 0.9930(4) 0.6295(4) 0.9825(3)
H17 H 1.048(4) 0.671(4) 0.974(4)
H18 H 0.999(6) 0.5608(17) 0.983(5)
O10 O 0.1690(5) 0.7678(7) 0.9371(4)
H19 H 0.224(6) 0.734(6) 0.968(4)
H20 H 0.146(7) 0.828(5) 0.958(4)
O11 O 0.8646(7) 0.8083(7) 1.0575(5)
O5? O 0.6064(14) 0.6555(12) 1.0761(12)
O6? O 0.6078(19) 0.821(2) 0.9857(15)
O7? O 0.4200(12) 0.7478(16) 1.0114(13)
O12? O 0.8871(8) 0.7348(8) 1.0710(5)
O13? O 0.9530(7) 1.0252(8) 1.0083(6)
O14? O 0.8130(9) 1.0161(9) 1.0145(7)
loop_
_geom_bond_atom_site_label_1
_geom_bond_atom_site_label_2
_geom_bond_site_symmetry_1
_geom_bond_site_symmetry_2
Co1 O1 1_555 1_555
O1 H1 1_555 1_555
H2 O1 1_555 1_555
N1 Co1 1_555 1_555
C1 N1 1_555 1_555
H3 C1 1_555 1_555
C2 C1 1_555 1_555
H4 C2 1_555 1_555
C3 C2 1_555 1_555
C4 C3 1_555 1_555
H5 C4 1_555 1_555
C5 N1 1_555 1_555
H6 C5 1_555 1_555
N2 Co1 1_555 1_555
C6 N2 1_555 1_555
H7 C6 1_555 1_555
C7 C6 1_555 1_555
H8 C7 1_555 1_555
C8 C7 1_555 1_555
N3 C9 1_555 1_555
C9 H9 1_555 1_555
C10 C9 1_555 1_555
H10 C10 1_555 1_555
C11 C8 1_555 1_555
N4 C12 1_555 1_555
C12 H11 1_555 1_555
C13 C12 1_555 1_555
H12 C13 1_555 1_555
C14 C13 1_555 1_555
C15 C14 1_555 1_555
H13 C15 1_555 1_555
C16 N4 1_555 1_555
H14 C16 1_555 1_555
S1 C14 1_555 1_555
O2 S1 1_555 1_555
O3 S1 1_555 1_555
O4 S1 1_555 1_555
O8 H15 1_555 1_555
H16 O8 1_555 1_555
O9 H17 1_555 1_555
H18 O9 1_555 1_555
O10 H19 1_555 1_555
H20 O10 1_555 1_555
Co1_2 N3 1_555 1_555
Co1_3 N1A 1_555 1_555
O1A Co1 1_555 1_555
H1A O1A 1_555 1_555
H2A O1A 1_555 1_555
N1A C1A 1_555 1_555
N1A_2 Co1 1_555 1_555
C1A H3A 1_555 1_555
C2A C1A 1_555 1_555
H4A C2A 1_555 1_555
C3A C3 1_555 1_555
C4A C3A 1_555 1_555
H5A C4A 1_555 1_555
C5A N1A 1_555 1_555
H6A C5A 1_555 1_555
C6A N2 1_555 1_555
H7A C6A 1_555 1_555
C7A C8 1_555 1_555
H8A C7A 1_555 1_555
N3_2 Co1 1_555 1_555
C9A N3 1_555 1_555
H9A C9A 1_555 1_555
C10A C11 1_555 1_555
H10A C10A 1_555 1_555
C4 C5 1_555 1_555
C10 C11 1_555 1_555
C15 C16 1_555 1_555
C2A C3A 1_555 1_555
C4A C5A 1_555 1_555
C6A C7A 1_555 1_555
C9A C10A 1_555 1_555

#END
