
#######################################################################
#
#                 Cambridge Crystallographic Data Centre
#                                CCDC 
#
#######################################################################
#
# If this CIF has been generated from an entry in the Cambridge 
# Structural Database, then it will include bibliographic, chemical, 
# crystal, experimental, refinement or atomic coordinate data resulting 
# from the CCDC's data processing and validation procedures.
#
#######################################################################

data_XIBHUM
_symmetry_cell_setting           orthorhombic
_symmetry_space_group_name_H-M   'P n a 21'
_symmetry_Int_Tables_number      33
_space_group_name_Hall           'P 2c -2n'
loop_
_symmetry_equiv_pos_site_id
_symmetry_equiv_pos_as_xyz
1 x,y,z
2 -x,-y,1/2+z
3 1/2+x,1/2-y,z
4 1/2-x,1/2+y,1/2+z
_cell_length_a                   18.085(4)
_cell_length_b                   9.6292(19)
_cell_length_c                   21.376(4)
_cell_angle_alpha                90
_cell_angle_beta                 90
_cell_angle_gamma                90
_cell_volume                     3722.5
loop_
_atom_site_label
_atom_site_type_symbol
_atom_site_fract_x
_atom_site_fract_y
_atom_site_fract_z
W1 W -0.13910(3) 0.98906(5) -0.47476(4)
S1 S -0.0470(2) 0.8551(4) -0.51008(17)
S2 S -0.1819(2) 1.1206(4) -0.55313(18)
S3 S -0.23078(19) 0.8562(4) -0.43837(16)
S4 S -0.09674(19) 1.1247(4) -0.39752(17)
Cu1 Cu -0.00475(9) 0.9702(2) -0.42341(8)
Cu2 Cu -0.09058(10) 0.98260(19) -0.59434(8)
Cu3 Cu -0.27366(9) 0.9689(2) -0.52454(8)
Cu4 Cu -0.19118(9) 0.9904(2) -0.35639(8)
N1 N 0.0160(6) 0.8237(13) -0.3505(5)
N2 N 0.0735(6) 0.8517(14) -0.3108(6)
N3 N 0.1395(7) 1.0284(13) -0.3648(6)
N4 N 0.0997(6) 1.0373(15) -0.4187(6)
N5 N -0.4163(7) 1.0269(12) -0.5821(5)
N6 N -0.3770(8) 1.0409(13) -0.5273(7)
N7 N -0.2943(6) 0.8210(14) -0.5975(6)
N8 N -0.3491(7) 0.8547(13) -0.6391(5)
N9 N -0.2323(7) 0.5905(14) -0.8086(6)
N10 N -0.1277(7) 0.6837(15) -0.7472(7)
N11 N -0.1226(7) 0.8470(15) -0.6631(6)
N12 N -0.0156(8) 1.0932(17) -0.6417(6)
N13 N 0.0887(7) 1.2149(14) -0.6918(6)
N14 N 0.1525(7) 1.1341(16) -0.7847(7)
C1 C 0.1622(9) 0.746(2) -0.2363(8)
H1 H 0.2054 0.7783 -0.2598
H2 H 0.1727 0.6541 -0.2184
H3 H 0.1512 0.8114 -0.2025
C2 C 0.0959(8) 0.7355(17) -0.2800(7)
C3 C 0.0491(9) 0.6304(18) -0.2984(7)
H4 H 0.0492 0.5368 -0.2843
C4 C 0.0014(7) 0.6902(15) -0.3419(6)
C5 C -0.0595(8) 0.615(2) -0.3753(8)
H5 H -0.1036 0.6737 -0.3770
H6 H -0.0711 0.5287 -0.3528
H7 H -0.0435 0.5923 -0.4179
C6 C 0.1000(8) 0.9908(17) -0.3071(8)
H8 H 0.1336 1.0001 -0.2709
H9 H 0.0578 1.0549 -0.3009
C7 C 0.2673(9) 1.057(2) -0.3224(8)
H10 H 0.3175 1.0639 -0.3394
H11 H 0.2620 0.9686 -0.2999
H12 H 0.2582 1.1340 -0.2936
C8 C 0.2125(8) 1.0622(18) -0.3749(7)
C9 C 0.2198(8) 1.092(2) -0.4366(7)
H13 H 0.2640 1.1191 -0.4573
C10 C 0.1486(8) 1.0734(17) -0.4647(10)
C11 C 0.1275(9) 1.0923(18) -0.5294(9)
H14 H 0.1434 1.0116 -0.5539
H15 H 0.1511 1.1762 -0.5459
H16 H 0.0736 1.1019 -0.5322
C12 C -0.5468(10) 1.049(2) -0.6263(8)
H17 H -0.5262 1.0808 -0.6662
H18 H -0.5892 1.1067 -0.6149
H19 H -0.5630 0.9518 -0.6306
C13 C -0.4885(8) 1.0581(18) -0.5760(7)
C14 C -0.4965(7) 1.0891(17) -0.5142(9)
H20 H -0.5416 1.1128 -0.4941
C15 C -0.4258(7) 1.0802(14) -0.4845(7)
C16 C -0.4013(8) 1.1024(19) -0.4179(7)
H21 H -0.3936 1.0122 -0.3977
H22 H -0.4395 1.1542 -0.3952
H23 H -0.3550 1.1552 -0.4175
C17 C -0.3773(9) 0.9936(16) -0.6382(7)
H24 H -0.3356 1.0592 -0.6432
H25 H -0.4109 1.0062 -0.6743
C18 C -0.4221(9) 0.7444(19) -0.7265(8)
H26 H -0.4043 0.6925 -0.7630
H27 H -0.4335 0.8400 -0.7389
H28 H -0.4668 0.6999 -0.7100
C19 C -0.3628(8) 0.7456(17) -0.6765(7)
C20 C -0.3191(8) 0.6419(18) -0.6595(7)
H29 H -0.3166 0.5528 -0.6784
C21 C -0.2770(8) 0.6884(17) -0.6083(8)
C22 C -0.2195(8) 0.6145(16) -0.5712(7)
H30 H -0.1705 0.6479 -0.5835
H31 H -0.2229 0.5144 -0.5792
H32 H -0.2274 0.6323 -0.5266
C23 C -0.1868(9) 0.6379(16) -0.7778(6)
C24 C -0.1290(7) 0.7698(15) -0.7021(7)
C25 C 0.0335(8) 1.1385(15) -0.6678(7)
C26 C 0.1212(8) 1.1638(16) -0.7419(7)
Cu4C Cu -0.30882(9) 0.4904(2) -0.85639(8)
Cu4A Cu 0.19118(9) 1.0096(2) -0.85639(8)
N9C N -0.2677(7) 1.0905(14) -0.3086(6)
N14A N -0.1525(7) 0.8659(16) -0.2847(7)
loop_
_geom_bond_atom_site_label_1
_geom_bond_atom_site_label_2
_geom_bond_site_symmetry_1
_geom_bond_site_symmetry_2
W1 S1 1_555 1_555
S1 Cu1 1_555 1_555
S2 W1 1_555 1_555
S3 W1 1_555 1_555
S4 W1 1_555 1_555
Cu1 S4 1_555 1_555
Cu2 S1 1_555 1_555
Cu3 S2 1_555 1_555
Cu4 S3 1_555 1_555
N1 Cu1 1_555 1_555
N2 N1 1_555 1_555
N3 N4 1_555 1_555
N4 Cu1 1_555 1_555
N5 N6 1_555 1_555
N6 Cu3 1_555 1_555
N7 Cu3 1_555 1_555
N8 N7 1_555 1_555
N9 C23 1_555 1_555
N10 C23 1_555 1_555
N11 Cu2 1_555 1_555
N12 Cu2 1_555 1_555
N13 C25 1_555 1_555
N14 C26 1_555 1_555
C1 H1 1_555 1_555
H2 C1 1_555 1_555
H3 C1 1_555 1_555
C2 N2 1_555 1_555
C3 C2 1_555 1_555
H4 C3 1_555 1_555
C4 N1 1_555 1_555
C5 C4 1_555 1_555
H5 C5 1_555 1_555
H6 C5 1_555 1_555
H7 C5 1_555 1_555
C6 N2 1_555 1_555
H8 C6 1_555 1_555
H9 C6 1_555 1_555
C7 H10 1_555 1_555
H11 C7 1_555 1_555
H12 C7 1_555 1_555
C8 N3 1_555 1_555
C9 C8 1_555 1_555
H13 C9 1_555 1_555
C10 N4 1_555 1_555
C11 C10 1_555 1_555
H14 C11 1_555 1_555
H15 C11 1_555 1_555
H16 C11 1_555 1_555
C12 H17 1_555 1_555
H18 C12 1_555 1_555
H19 C12 1_555 1_555
C13 N5 1_555 1_555
C14 C13 1_555 1_555
H20 C14 1_555 1_555
C15 N6 1_555 1_555
C16 C15 1_555 1_555
H21 C16 1_555 1_555
H22 C16 1_555 1_555
H23 C16 1_555 1_555
C17 N5 1_555 1_555
H24 C17 1_555 1_555
H25 C17 1_555 1_555
C18 H26 1_555 1_555
H27 C18 1_555 1_555
H28 C18 1_555 1_555
C19 N8 1_555 1_555
C20 C19 1_555 1_555
H29 C20 1_555 1_555
C21 N7 1_555 1_555
C22 C21 1_555 1_555
H30 C22 1_555 1_555
H31 C22 1_555 1_555
H32 C22 1_555 1_555
C24 N10 1_555 1_555
C25 N12 1_555 1_555
C26 N13 1_555 1_555
Cu4C N9 1_555 1_555
Cu4A N14 1_555 1_555
N9C Cu4 1_555 1_555
N14A Cu4 1_555 1_555
S2 Cu2 1_555 1_555
S3 Cu3 1_555 1_555
S4 Cu4 1_555 1_555
N3 C6 1_555 1_555
N8 C17 1_555 1_555
N11 C24 1_555 1_555
C1 C2 1_555 1_555
C3 C4 1_555 1_555
C7 C8 1_555 1_555
C9 C10 1_555 1_555
C12 C13 1_555 1_555
C14 C15 1_555 1_555
C18 C19 1_555 1_555
C20 C21 1_555 1_555

#END
