
#######################################################################
#
#                 Cambridge Crystallographic Data Centre
#                                CCDC 
#
#######################################################################
#
# If this CIF has been generated from an entry in the Cambridge 
# Structural Database, then it will include bibliographic, chemical, 
# crystal, experimental, refinement or atomic coordinate data resulting 
# from the CCDC's data processing and validation procedures.
#
#######################################################################

data_XIBJID
_symmetry_cell_setting           orthorhombic
_symmetry_space_group_name_H-M   'P b c a'
_symmetry_Int_Tables_number      61
_space_group_name_Hall           '-P 2ac 2ab'
loop_
_symmetry_equiv_pos_site_id
_symmetry_equiv_pos_as_xyz
1 x,y,z
2 1/2-x,-y,1/2+z
3 1/2+x,1/2-y,-z
4 -x,1/2+y,1/2-z
5 -x,-y,-z
6 1/2+x,y,1/2-z
7 1/2-x,1/2+y,z
8 x,1/2-y,1/2+z
_cell_length_a                   24.0268(17)
_cell_length_b                   17.7846(12)
_cell_length_c                   27.5304(19)
_cell_angle_alpha                90
_cell_angle_beta                 90
_cell_angle_gamma                90
_cell_volume                     11763.9
loop_
_atom_site_label
_atom_site_type_symbol
_atom_site_fract_x
_atom_site_fract_y
_atom_site_fract_z
C62 C 0.1538(7) -0.2462(8) 0.0073(7)
H42 H 0.1453 -0.2836 -0.0151
C63 C 0.1586(10) -0.1127(10) 0.0307(6)
H43 H 0.1468 -0.0663 0.0162
H44 H 0.1982 -0.1122 0.0349
H45 H 0.1409 -0.1185 0.0618
C64 C 0.1133(8) -0.1541(9) -0.0454(7)
H46 H 0.1091 -0.1004 -0.0462
H47 H 0.0773 -0.1774 -0.0459
H48 H 0.1343 -0.1701 -0.0733
N3 N 0.1429(4) -0.1758(6) -0.0010(4)
O10 O 0.1773(6) -0.2614(7) 0.0489(5)
O11 O 0.0438(5) 0.4888(9) 0.2039(7)
C1 C 0.0464(4) 0.1995(5) 0.0033(3)
H1 H 0.0465 0.2372 0.0267
C2 C 0.0488(4) 0.1240(5) 0.0169(3)
C3 C 0.0482(4) 0.0674(5) -0.0183(3)
H2 H 0.0506 0.0172 -0.0090
C4 C 0.0439(4) 0.0857(5) -0.0674(3)
H3 H 0.0412 0.0483 -0.0909
C5 C 0.0463(4) 0.1622(5) -0.1747(3)
H4 H 0.0459 0.1102 -0.1783
C6 C 0.0494(4) 0.2093(5) -0.2146(3)
H5 H 0.0522 0.1884 -0.2455
C7 C 0.0483(4) 0.2861(5) -0.2099(3)
C8 C 0.0460(4) 0.3194(5) -0.1642(3)
H6 H 0.0461 0.3715 -0.1613
C9 C 0.0428(4) 0.2947(4) -0.0695(3)
C10 C 0.0439(4) 0.2175(5) -0.0456(3)
C11 C 0.0440(4) 0.1605(5) -0.0801(3)
C12 C 0.0438(4) 0.1953(5) -0.1286(3)
C13 C 0.0435(4) 0.2745(5) -0.1228(3)
C14 C 0.0541(4) 0.1003(5) 0.0689(3)
C15 C 0.0529(4) 0.3363(6) -0.2543(3)
C16 C 0.0942(4) 0.3414(5) -0.0549(3)
H7 H 0.0926 0.3893 -0.0717
H8 H 0.0921 0.3517 -0.0203
C17 C 0.1498(4) 0.3052(6) -0.0655(4)
H9 H 0.1527 0.2966 -0.1002
H10 H 0.1511 0.2566 -0.0496
C18 C 0.2000(5) 0.3519(8) -0.0489(5)
H11 H 0.2338 0.3258 -0.0569
H12 H 0.1982 0.3593 -0.0144
H13 H 0.1995 0.3998 -0.0649
C19 C -0.0127(5) 0.3383(6) -0.0578(4)
C20 C -0.0235(9) 0.3664(11) -0.0093(7)
C21 C -0.0719(12) 0.4219(14) -0.0070(10)
C22 C -0.1460(4) 0.0050(5) 0.1537(3)
H14 H -0.1191 -0.0319 0.1491
C23 C -0.1297(4) 0.0784(5) 0.1649(3)
C24 C -0.1726(5) 0.1322(6) 0.1716(4)
H15 H -0.1630 0.1817 0.1785
C25 C -0.2282(4) 0.1133(6) 0.1681(4)
H16 H -0.2553 0.1498 0.1730
C26 C -0.3514(5) 0.0301(6) 0.1602(4)
H17 H -0.3574 0.0798 0.1693
C27 C -0.3954(5) -0.0173(6) 0.1541(4)
H18 H -0.4312 0.0007 0.1598
C28 C -0.3888(4) -0.0895(6) 0.1400(3)
C29 C -0.3346(4) -0.1171(6) 0.1316(4)
H19 H -0.3292 -0.1662 0.1209
C30 C -0.2276(4) -0.0896(5) 0.1363(4)
C31 C -0.2015(4) -0.0133(5) 0.1496(3)
C32 C -0.2438(5) 0.0396(6) 0.1572(3)
C33 C -0.2977(4) 0.0042(5) 0.1527(3)
C34 C -0.2900(5) -0.0706(5) 0.1394(3)
C35 C -0.0706(5) 0.0989(7) 0.1677(3)
C36 C -0.4369(4) -0.1443(7) 0.1371(4)
C37 C -0.2105(5) -0.1550(6) 0.1693(4)
H20 H -0.2296 -0.2001 0.1584
H21 H -0.1708 -0.1636 0.1654
C38 C -0.2224(6) -0.1439(7) 0.2218(4)
H22 H -0.2616 -0.1324 0.2261
H23 H -0.2010 -0.1016 0.2339
C39 C -0.2076(6) -0.2152(8) 0.2512(5)
H24 H -0.2153 -0.2068 0.2849
H25 H -0.1687 -0.2263 0.2471
H26 H -0.2294 -0.2568 0.2396
C40 C -0.2122(5) -0.1124(6) 0.0828(4)
H27 H -0.1723 -0.1199 0.0810
H28 H -0.2298 -0.1602 0.0756
C41 C -0.2286(5) -0.0575(7) 0.0448(4)
H29 H -0.2096 -0.0102 0.0504
H30 H -0.2684 -0.0484 0.0466
C42 C -0.2140(6) -0.0866(9) -0.0054(5)
H31 H -0.2252 -0.0504 -0.0293
H32 H -0.2331 -0.1332 -0.0110
H33 H -0.1746 -0.0945 -0.0074
C43 C 0.4224(4) 0.4057(6) 0.2253(3)
H34 H 0.4290 0.4354 0.2525
C44 C 0.4105(5) 0.3311(6) 0.2318(3)
H35 H 0.4094 0.3114 0.2631
C45 C 0.4002(8) 0.2855(7) 0.1933(4)
C46 C 0.4026(7) 0.3184(7) 0.1476(4)
H36 H 0.3954 0.2898 0.1201
C47 C 0.4154(6) 0.3915(6) 0.1433(3)
H37 H 0.4178 0.4117 0.1122
C48 C 0.4004(6) 0.1988(9) 0.1967(6)
C49 C 0.3681(13) 0.1581(19) 0.1653(11)
C50 C 0.3436(13) 0.1938(18) 0.1974(12)
C51 C 0.3368(7) 0.0888(9) 0.1799(6)
C52 C 0.1849(6) 0.0557(8) 0.2077(4)
H38 H 0.1647 0.0373 0.2339
C53 C 0.2419(6) 0.0567(7) 0.2122(4)
H39 H 0.2585 0.0375 0.2400
C54 C 0.2739(6) 0.0855(7) 0.1763(4)
C55 C 0.2446(7) 0.1160(10) 0.1385(5)
H40 H 0.2637 0.1419 0.1144
C56 C 0.1844(7) 0.1092(10) 0.1349(4)
H41 H 0.1662 0.1271 0.1074
C57 C 0.1140(19) 0.347(3) 0.1296(17)
C58 C 0.1580(18) 0.403(3) 0.1011(15)
C59 C 0.1799(9) 0.3482(13) 0.1101(8)
N1 N 0.4250(4) 0.4375(4) 0.1813(3)
N2 N 0.1561(4) 0.0787(5) 0.1691(3)
O1 O 0.0652(3) 0.0348(4) 0.0793(2)
O2 O 0.0486(3) 0.1510(4) 0.10137(19)
O3 O 0.0599(3) 0.3037(4) -0.2950(2)
O4 O 0.0501(3) 0.4050(4) -0.2495(2)
O5 O -0.0592(3) 0.1680(4) 0.1752(3)
O6 O -0.0362(3) 0.0488(4) 0.1631(2)
O7 O -0.4760(3) -0.1371(4) 0.1658(3)
O8 O -0.4350(3) -0.1966(4) 0.1060(3)
O9 O 0.0853(7) 0.3086(6) 0.1145(4)
Cd1 Cd 0.00883(4) 0.24394(4) 0.14350(3)
Cd2 Cd 0.05849(3) 0.06327(4) 0.167674(19)
N1F N 0.0750(4) -0.0625(4) 0.1813(3)
O3G O 0.0599(3) 0.1963(4) 0.2050(2)
O4G O 0.0501(3) 0.0950(4) 0.2505(2)
O7F O -0.0240(3) 0.3629(4) 0.1658(3)
O8F O -0.0650(3) 0.3034(4) 0.1060(3)
Cd1F Cd -0.50883(4) -0.25606(4) 0.14350(3)
Cd1G Cd 0.00883(4) 0.25606(4) -0.35650(3)
Cd2F Cd 0.44151(3) 0.56327(4) 0.167674(19)
Cd2G Cd 0.05849(3) 0.43673(4) -0.332326(19)
C60? C -0.0209(12) 0.4114(12) -0.0695(9)
C61? C -0.0793(15) 0.4400(19) -0.0422(14)
loop_
_geom_bond_atom_site_label_1
_geom_bond_atom_site_label_2
_geom_bond_site_symmetry_1
_geom_bond_site_symmetry_2
C1 H1 1_555 1_555
C2 C1 1_555 1_555
C3 C2 1_555 1_555
H2 C3 1_555 1_555
C4 C3 1_555 1_555
H3 C4 1_555 1_555
C5 H4 1_555 1_555
C6 C5 1_555 1_555
H5 C6 1_555 1_555
C7 C6 1_555 1_555
C8 C7 1_555 1_555
H6 C8 1_555 1_555
C9 C10 1_555 1_555
C10 C1 1_555 1_555
C11 C4 1_555 1_555
C12 C5 1_555 1_555
C13 C8 1_555 1_555
C14 C2 1_555 1_555
C15 C7 1_555 1_555
C16 C9 1_555 1_555
H7 C16 1_555 1_555
H8 C16 1_555 1_555
C17 C16 1_555 1_555
H9 C17 1_555 1_555
H10 C17 1_555 1_555
C18 C17 1_555 1_555
H11 C18 1_555 1_555
H12 C18 1_555 1_555
H13 C18 1_555 1_555
C19 C9 1_555 1_555
C20 C19 1_555 1_555
C21 C20 1_555 1_555
C22 H14 1_555 1_555
C23 C22 1_555 1_555
C24 C23 1_555 1_555
H15 C24 1_555 1_555
C25 C24 1_555 1_555
H16 C25 1_555 1_555
C26 H17 1_555 1_555
C27 C26 1_555 1_555
H18 C27 1_555 1_555
C28 C27 1_555 1_555
C29 C28 1_555 1_555
H19 C29 1_555 1_555
C30 C31 1_555 1_555
C31 C22 1_555 1_555
C32 C25 1_555 1_555
C33 C26 1_555 1_555
C34 C29 1_555 1_555
C35 C23 1_555 1_555
C36 C28 1_555 1_555
C37 C30 1_555 1_555
H20 C37 1_555 1_555
H21 C37 1_555 1_555
C38 C37 1_555 1_555
H22 C38 1_555 1_555
H23 C38 1_555 1_555
C39 C38 1_555 1_555
H24 C39 1_555 1_555
H25 C39 1_555 1_555
H26 C39 1_555 1_555
C40 C30 1_555 1_555
H27 C40 1_555 1_555
H28 C40 1_555 1_555
C41 C40 1_555 1_555
H29 C41 1_555 1_555
H30 C41 1_555 1_555
C42 C41 1_555 1_555
H31 C42 1_555 1_555
H32 C42 1_555 1_555
H33 C42 1_555 1_555
C43 H34 1_555 1_555
C44 C43 1_555 1_555
H35 C44 1_555 1_555
C45 C44 1_555 1_555
C46 C45 1_555 1_555
H36 C46 1_555 1_555
C47 C46 1_555 1_555
H37 C47 1_555 1_555
C48 C45 1_555 1_555
C49 C48 1_555 1_555
C50 C48 1_555 1_555
C51 C49 1_555 1_555
C52 H38 1_555 1_555
C53 C52 1_555 1_555
H39 C53 1_555 1_555
C54 C51 1_555 1_555
C55 C54 1_555 1_555
H40 C55 1_555 1_555
C56 C55 1_555 1_555
H41 C56 1_555 1_555
C57 C58 1_555 1_555
C58 C59 1_555 1_555
C59 C57 1_555 1_555
N1 C43 1_555 1_555
N2 C52 1_555 1_555
O1 C14 1_555 1_555
O2 C14 1_555 1_555
O3 C15 1_555 1_555
O4 C15 1_555 1_555
O5 C35 1_555 1_555
O6 C35 1_555 1_555
O7 C36 1_555 1_555
O8 C36 1_555 1_555
O9 C57 1_555 1_555
Cd1 O2 1_555 1_555
Cd2 N2 1_555 1_555
C62 H42 1_555 1_555
C63 H43 1_555 1_555
H44 C63 1_555 1_555
H45 C63 1_555 1_555
C64 H46 1_555 1_555
H47 C64 1_555 1_555
H48 C64 1_555 1_555
N3 C62 1_555 1_555
O10 C62 1_555 1_555
N1F Cd2 1_555 1_555
O3G Cd1 1_555 1_555
O4G Cd2 1_555 1_555
O7F Cd1 1_555 1_555
O8F Cd1 1_555 1_555
Cd1F O7 1_555 1_555
Cd1G O3 1_555 1_555
Cd2F N1 1_555 1_555
Cd2G O3 1_555 1_555
C9 C13 1_555 1_555
C10 C11 1_555 1_555
C11 C12 1_555 1_555
C12 C13 1_555 1_555
C30 C34 1_555 1_555
C31 C32 1_555 1_555
C32 C33 1_555 1_555
C33 C34 1_555 1_555
C47 N1 1_555 1_555
C49 C50 1_555 1_555
C53 C54 1_555 1_555
C56 N2 1_555 1_555
O1 Cd2 1_555 1_555
O2 Cd2 1_555 1_555
O4 Cd2G 1_555 1_555
O5 Cd1 1_555 1_555
O6 Cd2 1_555 1_555
O8 Cd1F 1_555 1_555
O9 Cd1 1_555 1_555
Cd2 O3G 1_555 1_555
C63 N3 1_555 1_555
C64 N3 1_555 1_555

#END
