
#######################################################################
#
#                 Cambridge Crystallographic Data Centre
#                                CCDC 
#
#######################################################################
#
# If this CIF has been generated from an entry in the Cambridge 
# Structural Database, then it will include bibliographic, chemical, 
# crystal, experimental, refinement or atomic coordinate data resulting 
# from the CCDC's data processing and validation procedures.
#
#######################################################################

data_XIBJEZ
_symmetry_cell_setting           orthorhombic
_symmetry_space_group_name_H-M   'F d d 2'
_symmetry_Int_Tables_number      43
_space_group_name_Hall           'F 2 -2d'
loop_
_symmetry_equiv_pos_site_id
_symmetry_equiv_pos_as_xyz
1 x,y,z
2 -x,-y,z
3 1/4-x,1/4+y,1/4+z
4 1/4+x,1/4-y,1/4+z
5 x,1/2+y,1/2+z
6 -x,1/2-y,1/2+z
7 1/4-x,3/4+y,3/4+z
8 1/4+x,3/4-y,3/4+z
9 1/2+x,y,1/2+z
10 1/2-x,-y,1/2+z
11 3/4-x,1/4+y,3/4+z
12 3/4+x,1/4-y,3/4+z
13 1/2+x,1/2+y,z
14 1/2-x,1/2-y,z
15 3/4-x,3/4+y,1/4+z
16 3/4+x,3/4-y,1/4+z
_cell_length_a                   16.6218(9)
_cell_length_b                   38.195(2)
_cell_length_c                   16.5678(9)
_cell_angle_alpha                90
_cell_angle_beta                 90
_cell_angle_gamma                90
_cell_volume                     10518.4
loop_
_atom_site_label
_atom_site_type_symbol
_atom_site_fract_x
_atom_site_fract_y
_atom_site_fract_z
C1 C 0.6144(3) 0.16520(12) -0.2289(3)
H1 H 0.5659 0.1557 -0.2115
C2 C 0.6526(3) 0.19053(12) -0.1834(3)
C3 C 0.7249(3) 0.20523(11) -0.2100(4)
H2 H 0.7501 0.2224 -0.1791
C4 C 0.7597(3) 0.19440(13) -0.2824(4)
H3 H 0.8071 0.2045 -0.3011
C5 C 0.8168(3) 0.15099(11) -0.4439(3)
H4 H 0.8555 0.1679 -0.4328
C6 C 0.8275(3) 0.12782(12) -0.5063(3)
H5 H 0.8744 0.1288 -0.5370
C7 C 0.7691(3) 0.10269(11) -0.5245(3)
C8 C 0.6991(2) 0.10072(11) -0.4782(3)
H6 H 0.6601 0.0840 -0.4896
C9 C 0.6193(3) 0.12569(11) -0.3571(3)
C10 C 0.6484(3) 0.15409(12) -0.3001(3)
C11 C 0.7216(3) 0.16814(11) -0.3258(3)
C12 C 0.7473(3) 0.14885(11) -0.3978(3)
C13 C 0.6887(3) 0.12365(11) -0.4162(3)
C14 C 0.5415(2) 0.13732(12) -0.4006(3)
H7 H 0.5241 0.1191 -0.4365
H8 H 0.5518 0.1583 -0.4308
H9 H 0.5002 0.1418 -0.3613
C15 C 0.6053(3) 0.09088(12) -0.3126(3)
H10 H 0.5875 0.0735 -0.3503
H11 H 0.5651 0.0941 -0.2717
H12 H 0.6547 0.0834 -0.2879
C16 C 0.6189(3) 0.20156(13) -0.1034(4)
C17 C 0.7830(3) 0.07661(12) -0.5911(3)
C18 C 0.4588(3) 0.26443(15) -0.0897(4)
H13 H 0.5054 0.2601 -0.1191
C19 C 0.3964(3) 0.28032(14) -0.1273(3)
H14 H 0.4013 0.2869 -0.1811
C20 C 0.3257(3) 0.28694(11) -0.0868(3)
C21 C 0.3249(3) 0.27867(12) -0.0051(3)
H15 H 0.2807 0.2844 0.0267
C22 C 0.3903(3) 0.26185(12) 0.0282(3)
H16 H 0.3874 0.2552 0.0821
C23 C 0.2518(3) 0.30129(11) -0.1292(3)
H17 H 0.2122 0.3077 -0.0889
H18 H 0.2287 0.2829 -0.1623
C24 C 0.2687(3) 0.33293(10) -0.1822(3)
H19 H 0.3096 0.3269 -0.2215
H20 H 0.2895 0.3518 -0.1490
C25 C 0.1930(3) 0.34564(11) -0.2266(3)
H21 H 0.1521 0.3518 -0.1875
H22 H 0.2059 0.3665 -0.2576
C26 C 0.1729(3) 0.28223(11) -0.4007(3)
H23 H 0.2003 0.2769 -0.4481
C27 C 0.2021(3) 0.30903(11) -0.3524(3)
H24 H 0.2488 0.3209 -0.3666
C28 C 0.1605(3) 0.31789(11) -0.2825(3)
C29 C 0.0928(3) 0.29932(13) -0.2636(3)
H25 H 0.0637 0.3044 -0.2170
C30 C 0.0681(3) 0.27274(14) -0.3153(4)
H26 H 0.0216 0.2604 -0.3025
N1 N 0.4565(2) 0.25458(11) -0.0116(3)
N2 N 0.1078(2) 0.26400(9) -0.3824(3)
O1 O 0.6548(2) 0.22358(9) -0.0609(3)
O2 O 0.5534(2) 0.18733(10) -0.0805(3)
O3 O 0.8493(2) 0.07674(8) -0.6280(2)
O4 O 0.72851(18) 0.05493(8) -0.6085(2)
Cd1 Cd 0.55864(2) 0.219528(9) 0.03935(3)
N2H N 0.6078(2) 0.26400(9) 0.1176(3)
O3K O 0.5993(2) 0.17326(8) 0.1220(2)
O4K O 0.47851(18) 0.19507(8) 0.1415(2)
Cd1C Cd 0.80864(2) 0.030472(9) -0.71065(3)
Cd1H Cd 0.05864(2) 0.219528(9) -0.46065(3)
loop_
_geom_bond_atom_site_label_1
_geom_bond_atom_site_label_2
_geom_bond_site_symmetry_1
_geom_bond_site_symmetry_2
C1 H1 1_555 1_555
C2 C1 1_555 1_555
C3 C2 1_555 1_555
H2 C3 1_555 1_555
C4 C3 1_555 1_555
H3 C4 1_555 1_555
C5 H4 1_555 1_555
C6 C5 1_555 1_555
H5 C6 1_555 1_555
C7 C6 1_555 1_555
C8 C7 1_555 1_555
H6 C8 1_555 1_555
C9 C10 1_555 1_555
C10 C1 1_555 1_555
C11 C4 1_555 1_555
C12 C5 1_555 1_555
C13 C8 1_555 1_555
C14 C9 1_555 1_555
H7 C14 1_555 1_555
H8 C14 1_555 1_555
H9 C14 1_555 1_555
C15 C9 1_555 1_555
H10 C15 1_555 1_555
H11 C15 1_555 1_555
H12 C15 1_555 1_555
C16 C2 1_555 1_555
C17 C7 1_555 1_555
C18 H13 1_555 1_555
C19 C18 1_555 1_555
H14 C19 1_555 1_555
C20 C19 1_555 1_555
C21 C20 1_555 1_555
H15 C21 1_555 1_555
C22 C21 1_555 1_555
H16 C22 1_555 1_555
C23 C20 1_555 1_555
H17 C23 1_555 1_555
H18 C23 1_555 1_555
C24 C23 1_555 1_555
H19 C24 1_555 1_555
H20 C24 1_555 1_555
C25 C24 1_555 1_555
H21 C25 1_555 1_555
H22 C25 1_555 1_555
C26 H23 1_555 1_555
C27 C26 1_555 1_555
H24 C27 1_555 1_555
C28 C25 1_555 1_555
C29 C28 1_555 1_555
H25 C29 1_555 1_555
C30 C29 1_555 1_555
H26 C30 1_555 1_555
N1 C18 1_555 1_555
N2 C26 1_555 1_555
O1 C16 1_555 1_555
O2 C16 1_555 1_555
O3 C17 1_555 1_555
O4 C17 1_555 1_555
Cd1 N1 1_555 1_555
N2H Cd1 1_555 1_555
O3K Cd1 1_555 1_555
O4K Cd1 1_555 1_555
Cd1C O3 1_555 1_555
Cd1H N2 1_555 1_555
C9 C13 1_555 1_555
C10 C11 1_555 1_555
C11 C12 1_555 1_555
C12 C13 1_555 1_555
C22 N1 1_555 1_555
C27 C28 1_555 1_555
C30 N2 1_555 1_555
O1 Cd1 1_555 1_555
O2 Cd1 1_555 1_555
O4 Cd1C 1_555 1_555

#END
