
#######################################################################
#
#                 Cambridge Crystallographic Data Centre
#                                CCDC 
#
#######################################################################
#
# If this CIF has been generated from an entry in the Cambridge 
# Structural Database, then it will include bibliographic, chemical, 
# crystal, experimental, refinement or atomic coordinate data resulting 
# from the CCDC's data processing and validation procedures.
#
#######################################################################

data_XIBMOK
_symmetry_cell_setting           orthorhombic
_symmetry_space_group_name_H-M   'P b c a'
_symmetry_Int_Tables_number      61
_space_group_name_Hall           '-P 2ac 2ab'
loop_
_symmetry_equiv_pos_site_id
_symmetry_equiv_pos_as_xyz
1 x,y,z
2 1/2+x,y,1/2-z
3 x,1/2-y,1/2+z
4 1/2-x,1/2+y,z
5 -x,-y,-z
6 1/2-x,-y,1/2+z
7 -x,1/2+y,1/2-z
8 1/2+x,1/2-y,-z
_cell_length_a                   17.059(10)
_cell_length_b                   11.247(5)
_cell_length_c                   24.520(8)
_cell_angle_alpha                90
_cell_angle_beta                 90
_cell_angle_gamma                90
_cell_volume                     4704.47
loop_
_atom_site_label
_atom_site_type_symbol
_atom_site_fract_x
_atom_site_fract_y
_atom_site_fract_z
Ag1 Ag 0.16478(3) 0.15356(4) 0.42122(2)
Ag2 Ag 0.10868(4) -0.30784(6) 0.72743(2)
S1 S 0.10572(10) 0.02169(16) 0.74186(7)
O1 O 0.1381(4) 0.0677(6) 0.5257(2)
O2 O 0.1929(3) 0.2433(6) 0.5106(2)
O3 O 0.2111(3) 0.3918(5) 0.5869(2)
H1 H 0.2372 0.3392 0.5598
O4 O 0.1402(3) 0.0485(5) 0.79400(19)
O5 O 0.0214(3) 0.0308(6) 0.7434(3)
O6 O 0.1306(5) -0.0894(5) 0.7195(2)
C1 C 0.1642(5) 0.1633(8) 0.5418(3)
C2 C 0.1645(4) 0.1930(6) 0.6019(2)
C3 C 0.1865(4) 0.3047(6) 0.6209(3)
C4 C 0.1819(4) 0.3303(6) 0.6770(3)
H2 H 0.1971 0.4075 0.6900
C5 C 0.1569(4) 0.2464(6) 0.7130(3)
H3 H 0.1518 0.2665 0.7509
C6 C 0.1382(4) 0.1322(6) 0.6952(2)
C7 C 0.1413(4) 0.1070(6) 0.6399(3)
H4 H 0.1276 0.0289 0.6274
C8 C -0.0159(4) 0.2034(6) 0.4532(2)
H5 H 0.0061 0.2052 0.4893
H6 H -0.0268 0.1221 0.4442
C9 C 0.0076(4) 0.2487(6) 0.3589(2)
H7 H -0.0032 0.1678 0.3488
H8 H 0.0446 0.2804 0.3332
C10 C 0.0570(4) 0.3781(6) 0.4288(3)
H9 H 0.0939 0.4115 0.4036
H10 H 0.0798 0.3813 0.4646
C11 C -0.0701(4) 0.3957(6) 0.4668(3)
H11 H -0.1177 0.4414 0.4668
H12 H -0.0484 0.3987 0.5028
C12 C -0.0487(4) 0.4439(6) 0.3736(3)
H13 H -0.0128 0.4787 0.3481
H14 H -0.0960 0.4900 0.3731
C13 C -0.1220(4) 0.2689(6) 0.3979(3)
H15 H -0.1339 0.1882 0.3881
H16 H -0.1700 0.3134 0.3976
C14 C 0.2283(4) -0.1098(5) 0.4046(2)
H17 H 0.2398 -0.1030 0.4428
H18 H 0.2708 -0.0746 0.3847
C15 C 0.2091(3) -0.2419(5) 0.3300(2)
H19 H 0.2068 -0.3232 0.3181
H20 H 0.2521 -0.2041 0.3116
C16 C 0.1550(4) -0.2882(6) 0.4179(3)
H21 H 0.1639 -0.2845 0.4565
H22 H 0.1500 -0.3704 0.4080
C17 C 0.0689(4) -0.2352(6) 0.3463(3)
H23 H 0.0207 -0.1960 0.3371
H24 H 0.0643 -0.3172 0.3360
C18 C 0.1425(4) -0.0546(6) 0.3317(2)
H25 H 0.1857 -0.0191 0.3126
H26 H 0.0958 -0.0121 0.3219
C19 C 0.0891(4) -0.1029(6) 0.4206(3)
H27 H 0.0413 -0.0619 0.4120
H28 H 0.0971 -0.0976 0.4592
N1 N 0.0426(3) 0.2516(5) 0.4138(2)
N2 N -0.0145(3) 0.4498(5) 0.4281(2)
N3 N -0.0667(3) 0.3199(5) 0.3563(2)
N4 N -0.0887(3) 0.2706(5) 0.4530(2)
N5 N 0.1559(3) -0.0437(4) 0.3917(2)
N6 N 0.2228(3) -0.2370(4) 0.38933(19)
N7 N 0.0820(3) -0.2276(5) 0.4052(2)
N8 N 0.1348(3) -0.1798(4) 0.31494(19)
N6C N 0.2772(3) 0.2630(4) 0.38933(19)
N3D N 0.0667(3) -0.3199(5) 0.6437(2)
N8B N 0.1348(3) -0.3202(4) 0.81494(19)
Ag2D Ag -0.10868(4) 0.30784(6) 0.27257(2)
Ag1C Ag 0.33522(3) -0.34644(4) 0.42122(2)
Ag2B Ag 0.10868(4) -0.19216(6) 0.22743(2)
loop_
_geom_bond_atom_site_label_1
_geom_bond_atom_site_label_2
_geom_bond_site_symmetry_1
_geom_bond_site_symmetry_2
Ag1 O2 1_555 1_555
Ag2 O6 1_555 1_555
S1 O4 1_555 1_555
O1 C1 1_555 1_555
O2 C1 1_555 1_555
O3 H1 1_555 1_555
O5 S1 1_555 1_555
O6 S1 1_555 1_555
C1 C2 1_555 1_555
C2 C3 1_555 1_555
C3 O3 1_555 1_555
C4 C3 1_555 1_555
H2 C4 1_555 1_555
C5 C4 1_555 1_555
H3 C5 1_555 1_555
C6 S1 1_555 1_555
C7 C2 1_555 1_555
H4 C7 1_555 1_555
C8 H5 1_555 1_555
H6 C8 1_555 1_555
C9 H7 1_555 1_555
H8 C9 1_555 1_555
C10 H9 1_555 1_555
H10 C10 1_555 1_555
C11 H11 1_555 1_555
H12 C11 1_555 1_555
C12 H13 1_555 1_555
H14 C12 1_555 1_555
C13 H15 1_555 1_555
H16 C13 1_555 1_555
C14 H17 1_555 1_555
H18 C14 1_555 1_555
C15 H19 1_555 1_555
H20 C15 1_555 1_555
C16 H21 1_555 1_555
H22 C16 1_555 1_555
C17 H23 1_555 1_555
H24 C17 1_555 1_555
C18 H25 1_555 1_555
H26 C18 1_555 1_555
C19 H27 1_555 1_555
H28 C19 1_555 1_555
N1 Ag1 1_555 1_555
N2 C10 1_555 1_555
N3 C9 1_555 1_555
N4 C8 1_555 1_555
N5 Ag1 1_555 1_555
N6 C14 1_555 1_555
N7 C16 1_555 1_555
N8 C15 1_555 1_555
N6C Ag1 1_555 1_555
N3D Ag2 1_555 1_555
N8B Ag2 1_555 1_555
Ag2D N3 1_555 1_555
Ag1C N6 1_555 1_555
Ag2B N8 1_555 1_555
C5 C6 1_555 1_555
C6 C7 1_555 1_555
C8 N1 1_555 1_555
C9 N1 1_555 1_555
C10 N1 1_555 1_555
C11 N2 1_555 1_555
C11 N4 1_555 1_555
C12 N3 1_555 1_555
C12 N2 1_555 1_555
C13 N4 1_555 1_555
C13 N3 1_555 1_555
C14 N5 1_555 1_555
C15 N6 1_555 1_555
C16 N6 1_555 1_555
C17 N7 1_555 1_555
C17 N8 1_555 1_555
C18 N5 1_555 1_555
C18 N8 1_555 1_555
C19 N7 1_555 1_555
C19 N5 1_555 1_555

#END
