
#######################################################################
#
#                 Cambridge Crystallographic Data Centre
#                                CCDC 
#
#######################################################################
#
# If this CIF has been generated from an entry in the Cambridge 
# Structural Database, then it will include bibliographic, chemical, 
# crystal, experimental, refinement or atomic coordinate data resulting 
# from the CCDC's data processing and validation procedures.
#
#######################################################################

data_XIBMEA
_symmetry_cell_setting           monoclinic
_symmetry_space_group_name_H-M   'P 21/c'
_symmetry_Int_Tables_number      14
_space_group_name_Hall           '-P 2ybc'
loop_
_symmetry_equiv_pos_site_id
_symmetry_equiv_pos_as_xyz
1 x,y,z
2 x,1/2-y,1/2+z
3 -x,-y,-z
4 -x,1/2+y,1/2-z
_cell_length_a                   12.219(3)
_cell_length_b                   10.842(3)
_cell_length_c                   13.006(3)
_cell_angle_alpha                90
_cell_angle_beta                 94.140(10)
_cell_angle_gamma                90
_cell_volume                     1718.52
loop_
_atom_site_label
_atom_site_type_symbol
_atom_site_fract_x
_atom_site_fract_y
_atom_site_fract_z
Ag1 Ag 0.001205(17) 0.068701(18) 0.105462(16)
O1 O -0.1086(2) 0.1953(2) 0.00176(18)
N1 N 0.10032(18) 0.22604(19) 0.20797(16)
O2 O -0.16677(18) 0.03714(19) -0.09624(18)
N2 N 0.2374(2) 0.2529(2) 0.35235(18)
C1 C -0.2579(2) 0.2282(3) -0.1187(2)
H1 H -0.2826 0.2983 -0.0816
C2 C 0.1682(2) 0.1644(3) 0.2920(2)
H2 H 0.2146 0.1044 0.2627
H3 H 0.1218 0.1220 0.3369
C3 C -0.1718(2) 0.1461(3) -0.0675(2)
C4 C -0.3025(2) 0.2064(2) -0.2122(2)
H4 H -0.2769 0.1350 -0.2470
C5 C 0.1756(2) 0.2894(3) 0.1419(2)
H5 H 0.1334 0.3306 0.0869
H6 H 0.2212 0.2293 0.1117
C6 C -0.3868(2) 0.2813(3) -0.2697(2)
C7 C -0.4164(3) 0.2539(4) -0.3711(3)
H7 H -0.3818 0.1869 -0.4046
C8 C 0.3085(2) 0.3158(3) 0.2830(2)
H8 H 0.3564 0.2570 0.2542
H9 H 0.3529 0.3750 0.3218
C9 C -0.4387(3) 0.3794(3) -0.2255(3)
H10 H -0.4220 0.3994 -0.1541
C10 C -0.5465(3) 0.4194(4) -0.3823(4)
H11 H -0.6037 0.4654 -0.4194
C11 C -0.4960(4) 0.3236(5) -0.4274(4)
H12 H -0.5162 0.3050 -0.4984
C12 C -0.5177(3) 0.4476(3) -0.2823(4)
H13 H -0.5492 0.5182 -0.2512
N3 N 0.09910(18) 0.41242(18) 0.31416(16)
C13 C 0.1742(2) 0.4708(2) 0.2445(2)
H14 H 0.2187 0.5305 0.2827
H15 H 0.1319 0.5133 0.1904
C14 C 0.0318(2) 0.3198(2) 0.25421(19)
H16 H -0.0170 0.2800 0.2984
H17 H -0.0119 0.3614 0.2005
C15 C 0.1661(2) 0.3453(3) 0.3952(2)
H18 H 0.2109 0.4040 0.4343
H19 H 0.1192 0.3058 0.4414
N4 N 0.24512(19) 0.3801(2) 0.19920(18)
O2B O 0.16677(18) -0.03714(19) 0.09624(18)
N3C N -0.09910(18) -0.08758(18) 0.18584(16)
Ag1B Ag -0.001205(17) -0.068701(18) -0.105462(16)
Ag1C Ag -0.001205(17) 0.568701(18) 0.394538(16)
O3 O -0.0980(4) 0.4467(3) 0.0310(3)
H20 H -0.0985 0.3598 0.0145
H21 H -0.1801 0.4743 0.0220
O4 O -0.3318(4) 0.5422(4) 0.0105(3)
H22 H -0.3049 0.6264 0.0488
H23 H -0.3219 0.5721 -0.0599
loop_
_geom_bond_atom_site_label_1
_geom_bond_atom_site_label_2
_geom_bond_site_symmetry_1
_geom_bond_site_symmetry_2
Ag1 O1 1_555 1_555
O1 C3 1_555 1_555
N1 Ag1 1_555 1_555
O2 C3 1_555 1_555
N2 C2 1_555 1_555
C1 H1 1_555 1_555
C2 N1 1_555 1_555
H2 C2 1_555 1_555
H3 C2 1_555 1_555
C3 C1 1_555 1_555
C4 C1 1_555 1_555
H4 C4 1_555 1_555
C5 N1 1_555 1_555
H5 C5 1_555 1_555
H6 C5 1_555 1_555
C6 C4 1_555 1_555
C7 C6 1_555 1_555
H7 C7 1_555 1_555
C8 N2 1_555 1_555
H8 C8 1_555 1_555
H9 C8 1_555 1_555
C9 C6 1_555 1_555
H10 C9 1_555 1_555
C10 H11 1_555 1_555
C11 C7 1_555 1_555
H12 C11 1_555 1_555
C12 C9 1_555 1_555
H13 C12 1_555 1_555
N3 C13 1_555 1_555
C13 H14 1_555 1_555
H15 C13 1_555 1_555
C14 N1 1_555 1_555
H16 C14 1_555 1_555
H17 C14 1_555 1_555
C15 N2 1_555 1_555
H18 C15 1_555 1_555
H19 C15 1_555 1_555
N4 C5 1_555 1_555
O3 H20 1_555 1_555
H21 O3 1_555 1_555
O4 H22 1_555 1_555
H23 O4 1_555 1_555
O2B Ag1 1_555 1_555
N3C Ag1 1_555 1_555
Ag1B O2 1_555 1_555
Ag1C N3 1_555 1_555
C8 N4 1_555 1_555
C10 C11 1_555 1_555
C10 C12 1_555 1_555
N3 C14 1_555 1_555
N3 C15 1_555 1_555
C13 N4 1_555 1_555

#END
