
#######################################################################
#
#                 Cambridge Crystallographic Data Centre
#                                CCDC 
#
#######################################################################
#
# If this CIF has been generated from an entry in the Cambridge 
# Structural Database, then it will include bibliographic, chemical, 
# crystal, experimental, refinement or atomic coordinate data resulting 
# from the CCDC's data processing and validation procedures.
#
#######################################################################

data_XIBNAY
_symmetry_cell_setting           monoclinic
_symmetry_space_group_name_H-M   'P 21/n'
_symmetry_Int_Tables_number      14
_space_group_name_Hall           '-P 2yn'
loop_
_symmetry_equiv_pos_site_id
_symmetry_equiv_pos_as_xyz
1 x,y,z
2 1/2-x,1/2+y,1/2-z
3 -x,-y,-z
4 1/2+x,1/2-y,1/2+z
_cell_length_a                   7.7541(16)
_cell_length_b                   17.086(3)
_cell_length_c                   11.383(2)
_cell_angle_alpha                90
_cell_angle_beta                 98.72(3)
_cell_angle_gamma                90
_cell_volume                     1490.66
loop_
_atom_site_label
_atom_site_type_symbol
_atom_site_fract_x
_atom_site_fract_y
_atom_site_fract_z
Cu1 Cu 0.49466(5) 0.911789(18) 0.42934(3)
Cl1 Cl 0.62722(12) 0.93107(5) 0.27020(7)
Cl2 Cl 0.31100(10) 1.01398(4) 0.38768(6)
N1 N 0.6271(3) 0.81352(13) 0.47460(19)
N2 N 0.7789(3) 0.78211(14) 0.4518(2)
N3 N 0.8033(4) 0.71605(14) 0.5078(2)
N4 N 0.6653(3) 0.70428(13) 0.5667(2)
N5 N 0.3410(3) 0.85939(13) 0.54312(19)
C1 C 0.5578(4) 0.76548(15) 0.5459(2)
C2 C 0.3945(4) 0.78746(15) 0.5848(2)
C3 C 0.3007(4) 0.74384(18) 0.6550(2)
H1 H 0.3382 0.6942 0.6811
C4 C 0.1490(4) 0.77560(19) 0.6857(3)
H2 H 0.0835 0.7474 0.7330
C5 C 0.0963(4) 0.84870(19) 0.6459(3)
H3 H -0.0043 0.8710 0.6666
C6 C 0.1958(4) 0.88893(17) 0.5742(3)
H4 H 0.1596 0.9384 0.5468
C7 C 0.6616(4) 0.63180(16) 0.6365(3)
H5 H 0.5999 0.6416 0.7030
H6 H 0.7801 0.6168 0.6682
C8 C 0.5738(4) 0.56504(15) 0.5631(2)
C9 C 0.5949(4) 0.55276(17) 0.4459(3)
H7 H 0.6594 0.5884 0.4086
C10 C 0.4777(4) 0.51128(16) 0.6168(2)
H8 H 0.4620 0.5183 0.6955
Cu1B Cu 0.50534(5) 1.088211(18) 0.57066(3)
Cu1B_2 Cu 0.50534(5) 0.088211(18) 0.57066(3)
Cl1B Cl 0.37278(12) 1.06893(5) 0.72980(7)
Cl2B Cl 0.68900(10) 0.98602(4) 0.61232(6)
N1B N 0.3729(3) 0.18648(13) 0.52540(19)
N1B_2 N 0.3729(3) 1.18648(13) 0.52540(19)
N2B N 0.2211(3) 0.21789(14) 0.5482(2)
N3B N 0.1967(4) 0.28395(14) 0.4922(2)
N4B N 0.3347(3) 0.29572(13) 0.4333(2)
N5B N 0.6590(3) 0.14061(13) 0.45688(19)
N5B_2 N 0.6590(3) 1.14061(13) 0.45688(19)
C1B C 0.4422(4) 0.23452(15) 0.4541(2)
C2B C 0.6055(4) 0.21254(15) 0.4152(2)
C3B C 0.6993(4) 0.25616(18) 0.3450(2)
H1B H 0.6618 0.3058 0.3189
C4B C 0.8510(4) 0.22440(19) 0.3143(3)
H2B H 0.9165 0.2526 0.2670
C5B C 0.9037(4) 0.15130(19) 0.3541(3)
H3B H 1.0043 0.1290 0.3334
C6B C 0.8042(4) 0.11107(17) 0.4258(3)
H4B H 0.8404 0.0616 0.4532
C7B C 0.3384(4) 0.36820(16) 0.3635(3)
H5B H 0.4001 0.3584 0.2970
H6B H 0.2199 0.3832 0.3318
C8B C 0.4262(4) 0.43496(15) 0.4369(2)
C9B C 0.4051(4) 0.44724(17) 0.5541(3)
H7B H 0.3406 0.4116 0.5914
C10B C 0.5223(4) 0.48872(16) 0.3832(2)
H8B H 0.5380 0.4817 0.3045
N6 N 0.2686(5) 0.7169(2) 0.3166(3)
C11 C 0.1944(5) 0.6666(2) 0.3496(3)
C12 C 0.0997(5) 0.6014(2) 0.3925(3)
H9 H 0.0080 0.6212 0.4321
H10 H 0.1784 0.5705 0.4471
H11 H 0.0503 0.5694 0.3265
loop_
_geom_bond_atom_site_label_1
_geom_bond_atom_site_label_2
_geom_bond_site_symmetry_1
_geom_bond_site_symmetry_2
Cu1 Cl1 1_555 1_555
Cl2 Cu1 1_555 1_555
N1 Cu1 1_555 1_555
N2 N1 1_555 1_555
N3 N2 1_555 1_555
N4 N3 1_555 1_555
N5 Cu1 1_555 1_555
N6 C11 1_555 1_555
C1 N1 1_555 1_555
C2 N5 1_555 1_555
C3 C2 1_555 1_555
H1 C3 1_555 1_555
C4 C3 1_555 1_555
H2 C4 1_555 1_555
C5 C4 1_555 1_555
H3 C5 1_555 1_555
C6 N5 1_555 1_555
H4 C6 1_555 1_555
C7 N4 1_555 1_555
H5 C7 1_555 1_555
H6 C7 1_555 1_555
C8 C7 1_555 1_555
C9 C8 1_555 1_555
H7 C9 1_555 1_555
C10 C8 1_555 1_555
H8 C10 1_555 1_555
C11 C12 1_555 1_555
C12 H9 1_555 1_555
H10 C12 1_555 1_555
H11 C12 1_555 1_555
Cu1B Cl2 1_555 1_555
Cu1B_2 N1B 1_555 1_555
Cl1B Cu1B 1_555 1_555
Cl2B Cu1 1_555 1_555
N1B N2B 1_555 1_555
N1B_2 Cu1B 1_555 1_555
N2B N3B 1_555 1_555
N3B N4B 1_555 1_555
N4B C1B 1_555 1_555
N5B Cu1B_2 1_555 1_555
N5B_2 Cu1B 1_555 1_555
C1B N1B 1_555 1_555
C2B N5B 1_555 1_555
C3B C2B 1_555 1_555
H1B C3B 1_555 1_555
C4B C3B 1_555 1_555
H2B C4B 1_555 1_555
C5B C4B 1_555 1_555
H3B C5B 1_555 1_555
C6B N5B 1_555 1_555
H4B C6B 1_555 1_555
C7B N4B 1_555 1_555
H5B C7B 1_555 1_555
H6B C7B 1_555 1_555
C8B C7B 1_555 1_555
C9B C10 1_555 1_555
H7B C9B 1_555 1_555
C10B C9 1_555 1_555
H8B C10B 1_555 1_555
N4 C1 1_555 1_555
C1 C2 1_555 1_555
C5 C6 1_555 1_555
Cu1B Cl2B 1_555 1_555
C1B C2B 1_555 1_555
C5B C6B 1_555 1_555
C8B C9B 1_555 1_555
C8B C10B 1_555 1_555

#END
