
#######################################################################
#
#                 Cambridge Crystallographic Data Centre
#                                CCDC 
#
#######################################################################
#
# If this CIF has been generated from an entry in the Cambridge 
# Structural Database, then it will include bibliographic, chemical, 
# crystal, experimental, refinement or atomic coordinate data resulting 
# from the CCDC's data processing and validation procedures.
#
#######################################################################

data_XIBNIF
_symmetry_cell_setting           orthorhombic
_symmetry_space_group_name_H-M   'P 2 2 21'
_symmetry_Int_Tables_number      17
_space_group_name_Hall           'P 2c 2'
loop_
_symmetry_equiv_pos_site_id
_symmetry_equiv_pos_as_xyz
1 x,y,z
2 x,-y,-z
3 -x,-y,1/2+z
4 -x,y,1/2-z
_cell_length_a                   11.664(2)
_cell_length_b                   15.176(2)
_cell_length_c                   36.90(2)
_cell_angle_alpha                90
_cell_angle_beta                 90
_cell_angle_gamma                90
_cell_volume                     6531.77
loop_
_atom_site_label
_atom_site_type_symbol
_atom_site_fract_x
_atom_site_fract_y
_atom_site_fract_z
Li1 Li 0.3529(15) 0.5000 1.0000
Li2 Li 0.5000 0.6387(12) 0.7500
Li3 Li 0.3119(8) 0.5146(7) 0.8638(3)
N1 N 0.3331(4) 0.6023(4) 0.90911(15)
C1 C 0.4544(7) 0.4034(4) 0.96306(19)
C2 C 0.2356(6) 0.4739(4) 0.94593(18)
H1 H 0.160(5) 0.4968(15) 0.9409(4)
C3 C 0.3533(7) 0.3616(5) 0.97439(19)
H2 H 0.3586(8) 0.306(4) 0.9892(10)
O1 O 0.1588(4) 0.5701(4) 0.86005(14)
C4 C 0.4525(6) 0.4819(5) 0.94312(19)
H3 H 0.533(5) 0.5134(19) 0.9352(5)
C5 C 0.2463(7) 0.3951(4) 0.96569(18)
B1 B 0.3394(7) 0.5236(5) 0.9324(2)
C6 C 0.2262(7) 0.6561(5) 0.9095(2)
H4 H 0.172(4) 0.6334(16) 0.9280(13)
C7 C 0.4305(7) 0.6636(4) 0.9107(2)
H5 H 0.489(3) 0.6469(9) 0.8927(8)
H6 H 0.4657(18) 0.6625(5) 0.9351(11)
C8 C 0.3838(7) 0.7541(5) 0.9024(2)
H7 H 0.3805(7) 0.7655(8) 0.8748(13)
H8 H 0.432(2) 0.803(2) 0.9146(6)
C9 C 0.1705(7) 0.6574(5) 0.8717(2)
H9 H 0.092(4) 0.6871(15) 0.8730(2)
H10 H 0.221(2) 0.6919(17) 0.8540(8)
C10 C 0.1437(6) 0.3485(4) 0.9803(2)
H11 H 0.141(2) 0.282(2) 0.9700(10)
H12 H 0.067(3) 0.383(2) 0.9722(10)
H13 H 0.1483(19) 0.347(2) 1.0095(9)
C11 C 0.0864(6) 0.5642(6) 0.8283(2)
H14 H 0.005(3) 0.579(3) 0.8351(4)
H15 H 0.089(3) 0.502(2) 0.8184(8)
H16 H 0.115(3) 0.607(3) 0.8093(8)
C12 C 0.2640(7) 0.7493(5) 0.9188(2)
H17 H 0.2665(7) 0.7596(7) 0.9483(13)
H18 H 0.207(3) 0.798(2) 0.9066(6)
C13 C 0.5677(7) 0.3654(6) 0.9743(2)
H19 H 0.624(3) 0.4153(19) 0.9800(14)
H20 H 0.600(3) 0.328(3) 0.9538(9)
H21 H 0.5568(11) 0.327(3) 0.9969(12)
O2 O 0.2742(5) 0.3898(3) 0.85243(14)
C14 C 0.4316(7) 0.4040(5) 0.8133(2)
H22 H 0.387(3) 0.4020(5) 0.7905(17)
C15 C 0.3260(6) 0.5639(5) 0.7713(2)
H23 H 0.3012(18) 0.507(4) 0.7637(6)
N2 N 0.4495(5) 0.4949(3) 0.82568(16)
C16 C 0.4062(7) 0.7337(5) 0.7905(2)
C17 C 0.4483(7) 0.6639(5) 0.8097(2)
H24 H 0.511(4) 0.6761(9) 0.8302(13)
C18 C 0.5630(7) 0.4994(5) 0.8437(2)
H25 H 0.5541(8) 0.4989(5) 0.8702(13)
H26 H 0.604(2) 0.553(3) 0.8366(4)
C19 C 0.2851(7) 0.6362(6) 0.7533(2)
C20 C 0.3218(7) 0.7193(5) 0.7634(2)
H27 H 0.286(2) 0.773(4) 0.7507(9)
C21 C 0.5527(10) 0.3684(6) 0.8082(3)
H28 H 0.5563(10) 0.304(4) 0.8151(5)
H29 H 0.5773(17) 0.3745(7) 0.7819(17)
C22 C 0.4385(8) 0.8300(5) 0.7971(2)
H30 H 0.410(4) 0.8487(14) 0.8214(11)
H31 H 0.403(4) 0.8677(16) 0.7780(11)
H32 H 0.523(3) 0.8365(9) 0.7963(15)
C23 C 0.1982(7) 0.6231(7) 0.7229(2)
H33 H 0.237(2) 0.628(4) 0.6991(11)
H34 H 0.138(4) 0.669(3) 0.7247(10)
H35 H 0.163(4) 0.564(3) 0.7252(10)
C24 C 0.1968(7) 0.3378(6) 0.8727(3)
H36 H 0.172(4) 0.289(3) 0.8583(9)
H37 H 0.132(4) 0.3727(19) 0.8793(14)
H38 H 0.234(2) 0.317(3) 0.8941(12)
B2 B 0.4099(8) 0.5708(5) 0.8033(2)
C25 C 0.3775(9) 0.3488(6) 0.8422(2)
H39 H 0.3584(11) 0.274(3) 0.8305(5)
H40 H 0.442(3) 0.3428(7) 0.8685(12)
C26 C 0.6263(10) 0.4200(7) 0.8314(4)
H41 H 0.701(5) 0.4391(15) 0.8170(10)
H42 H 0.652(2) 0.382(3) 0.8540(15)
N1A N 0.3331(4) 0.3977(4) 1.09089(15)
C1A C 0.4544(7) 0.5966(4) 1.03694(19)
C2A C 0.2356(6) 0.5261(4) 1.05407(18)
H1A H 0.160(5) 0.5032(15) 1.0591(4)
C3A C 0.3533(7) 0.6384(5) 1.02561(19)
H2A H 0.3586(8) 0.694(4) 1.0108(10)
O1A O 0.1588(4) 0.4299(4) 1.13995(14)
C4A C 0.4525(6) 0.5181(5) 1.05688(19)
H3A H 0.533(5) 0.4866(19) 1.0648(5)
C5A C 0.2463(7) 0.6049(4) 1.03431(18)
B1A B 0.3394(7) 0.4764(5) 1.0676(2)
C6A C 0.2262(7) 0.3439(5) 1.0905(2)
H4A H 0.172(4) 0.3666(16) 1.0720(13)
C7A C 0.4305(7) 0.3364(4) 1.0893(2)
H5A H 0.489(3) 0.3531(9) 1.1073(8)
H6A H 0.4657(18) 0.3375(5) 1.0649(11)
C8A C 0.3838(7) 0.2459(5) 1.0976(2)
H7A H 0.3805(7) 0.2345(8) 1.1252(13)
H8A H 0.432(2) 0.197(2) 1.0854(6)
C9A C 0.1705(7) 0.3426(5) 1.1283(2)
H9A H 0.092(4) 0.3129(15) 1.1270(2)
H10A H 0.221(2) 0.3081(17) 1.1460(8)
C10A C 0.1437(6) 0.6515(4) 1.0197(2)
H11A H 0.141(2) 0.718(2) 1.0300(10)
H12A H 0.067(3) 0.617(2) 1.0278(10)
H13A H 0.1483(19) 0.653(2) 0.9905(9)
C11A C 0.0864(6) 0.4358(6) 1.1717(2)
H14A H 0.005(3) 0.421(3) 1.1649(4)
H15A H 0.089(3) 0.498(2) 1.1816(8)
H16A H 0.115(3) 0.393(3) 1.1907(8)
C12A C 0.2640(7) 0.2507(5) 1.0812(2)
H17A H 0.2665(7) 0.2404(7) 1.0517(13)
H18A H 0.207(3) 0.202(2) 1.0934(6)
C13A C 0.5677(7) 0.6346(6) 1.0257(2)
H19A H 0.624(3) 0.5847(19) 1.0200(14)
H20A H 0.600(3) 0.672(3) 1.0462(9)
H21A H 0.5568(11) 0.673(3) 1.0031(12)
Li3A Li 0.3119(8) 0.4854(7) 1.1362(3)
O2A O 0.2742(5) 0.6102(3) 1.14757(14)
C14A C 0.4316(7) 0.5960(5) 1.1867(2)
H22A H 0.387(3) 0.5980(5) 1.2095(17)
C15A C 0.3260(6) 0.4361(5) 1.2287(2)
H23A H 0.3012(18) 0.493(4) 1.2363(6)
N2A N 0.4495(5) 0.5051(3) 1.17432(16)
C16A C 0.4062(7) 0.2663(5) 1.2095(2)
C17A C 0.4483(7) 0.3361(5) 1.1903(2)
H24A H 0.511(4) 0.3239(9) 1.1698(13)
C18A C 0.5630(7) 0.5006(5) 1.1563(2)
H25A H 0.5541(8) 0.5011(5) 1.1298(13)
H26A H 0.604(2) 0.447(3) 1.1634(4)
C19A C 0.2851(7) 0.3638(6) 1.2467(2)
C20A C 0.3218(7) 0.2807(5) 1.2366(2)
H27A H 0.286(2) 0.227(4) 1.2493(9)
C21A C 0.5527(10) 0.6316(6) 1.1918(3)
H28A H 0.5563(10) 0.696(4) 1.1849(5)
H29A H 0.5773(17) 0.6255(7) 1.2181(17)
C22A C 0.4385(8) 0.1700(5) 1.2029(2)
H30A H 0.410(4) 0.1513(14) 1.1786(11)
H31A H 0.403(4) 0.1323(16) 1.2220(11)
H32A H 0.523(3) 0.1635(9) 1.2037(15)
C23A C 0.1982(7) 0.3769(7) 1.2771(2)
H33A H 0.237(2) 0.372(4) 1.3009(11)
H34A H 0.138(4) 0.331(3) 1.2753(10)
H35A H 0.163(4) 0.436(3) 1.2748(10)
C24A C 0.1968(7) 0.6622(6) 1.1273(3)
H36A H 0.172(4) 0.711(3) 1.1417(9)
H37A H 0.132(4) 0.6273(19) 1.1207(14)
H38A H 0.234(2) 0.683(3) 1.1059(12)
B2A B 0.4099(8) 0.4292(5) 1.1967(2)
C25A C 0.3775(9) 0.6512(6) 1.1578(2)
H39A H 0.3584(11) 0.726(3) 1.1695(5)
H40A H 0.442(3) 0.6572(7) 1.1315(12)
C26A C 0.6263(10) 0.5800(7) 1.1686(4)
H41A H 0.701(5) 0.5609(15) 1.1830(10)
H42A H 0.652(2) 0.618(3) 1.1460(15)
C15C C 0.6740(6) 0.5639(5) 0.7287(2)
C16C C 0.5938(7) 0.7337(5) 0.7095(2)
C17C C 0.5517(7) 0.6639(5) 0.6903(2)
C19C C 0.7149(7) 0.6362(6) 0.7467(2)
C20C C 0.6782(7) 0.7193(5) 0.7366(2)
B2C B 0.5901(8) 0.5708(5) 0.6967(2)
Li2A Li 0.5000 0.3613(12) 1.2500
H23C H 0.6988(18) 0.507(4) 0.7363(6)
H24C H 0.489(4) 0.6761(9) 0.6698(13)
H27C H 0.714(2) 0.773(4) 0.7493(9)
Li4 Li 0.8173(13) 1.0000 1.0000
Li5 Li 1.0000 1.1350(11) 0.7500
Li6 Li 0.7933(11) 1.0160(9) 0.8626(4)
O3 O 0.6565(4) 1.0833(3) 0.85849(14)
N3 N 0.8277(5) 1.0991(4) 0.91007(16)
C27 C 0.7009(6) 0.9829(5) 0.94569(19)
H43 H 0.624(5) 1.018(2) 0.9391(4)
C28 C 0.6948(7) 0.9066(5) 0.9658(2)
C29 C 0.7342(6) 1.1656(5) 0.90835(19)
H44 H 0.668(4) 1.1491(10) 0.9291(11)
C30 C 0.7945(7) 0.8598(5) 0.9757(2)
H45 H 0.7863(10) 0.803(4) 0.9910(11)
C31 C 0.9014(8) 0.8870(5) 0.9657(2)
C32 C 0.9178(7) 0.9672(5) 0.9459(2)
H46 H 0.979(6) 0.9844(17) 0.9419(4)
C33 C 0.7917(7) 1.2513(5) 0.9188(2)
H47 H 0.754(2) 1.300(2) 0.9080(5)
H48 H 0.7918(7) 1.2588(6) 0.9443(12)
C34 C 0.9363(6) 1.1464(4) 0.91163(19)
H49 H 0.990(2) 1.1231(11) 0.8929(8)
H50 H 0.9722(17) 1.1389(6) 0.9360(10)
C35 C 0.9113(7) 1.2428(5) 0.9046(2)
H51 H 0.965(3) 1.281(2) 0.9180(7)
H52 H 0.9153(7) 1.2569(9) 0.8784(13)
B3 B 0.8158(7) 1.0174(5) 0.9329(2)
C36 C 0.6780(6) 1.1712(5) 0.8717(2)
H53 H 0.600(3) 1.2063(15) 0.8738(2)
H54 H 0.732(2) 1.2052(15) 0.8535(8)
C37 C 0.5869(7) 1.0864(6) 0.8262(2)
H55 H 0.510(3) 1.124(3) 0.8315(5)
H56 H 0.564(4) 1.021(2) 0.8183(8)
H57 H 0.634(2) 1.117(3) 0.8047(9)
C38 C 0.5805(7) 0.8715(5) 0.9794(2)
H58 H 0.570(2) 0.888(3) 1.0059(11)
H59 H 0.5792(18) 0.805(3) 0.9770(13)
H60 H 0.516(3) 0.898(3) 0.9644(11)
C39 C 1.0062(8) 0.8358(6) 0.9767(2)
H61 H 0.9878(16) 0.798(3) 0.9950(15)
H62 H 1.062(3) 0.8737(19) 0.9843(17)
H63 H 1.032(3) 0.804(4) 0.9574(10)
O4 O 0.7497(5) 0.8936(3) 0.85237(15)
C40 C 0.8246(6) 1.0548(5) 0.7703(2)
H64 H 0.7955(19) 0.993(4) 0.7622(5)
C41 C 0.9477(6) 1.1540(5) 0.80961(19)
H65 H 1.001(4) 1.1629(8) 0.8263(13)
C42 C 0.9119(8) 0.8941(5) 0.8133(2)
H66 H 0.882(4) 0.8941(5) 0.797(2)
C43 C 0.8250(7) 1.2121(6) 0.7615(2)
H67 H 0.798(2) 1.260(4) 0.7484(10)
C44 C 0.9013(7) 1.2261(5) 0.7901(2)
N4 N 0.9349(5) 0.9848(4) 0.82528(16)
C45 C 0.9401(7) 1.3182(5) 0.7990(2)
H68 H 0.916(4) 1.3571(17) 0.7804(10)
H69 H 1.021(3) 1.3195(9) 0.8007(14)
H70 H 0.908(4) 1.3359(16) 0.8214(11)
C46 C 1.0485(7) 0.9821(5) 0.8425(2)
H71 H 1.0404(8) 0.9733(6) 0.8689(14)
H72 H 1.089(2) 1.038(3) 0.8384(3)
C47 C 0.6665(8) 0.8457(6) 0.8727(2)
H73 H 0.638(4) 0.788(3) 0.8569(9)
H74 H 0.592(3) 0.889(2) 0.8784(12)
H75 H 0.705(2) 0.824(3) 0.8986(11)
B4 B 0.9062(8) 1.0625(6) 0.8018(2)
C48 C 0.7891(7) 1.1279(6) 0.7524(2)
C49 C 0.7060(7) 1.1254(6) 0.7213(3)
H76 H 0.742(2) 1.146(4) 0.7002(11)
H77 H 0.642(4) 1.161(3) 0.7267(8)
H78 H 0.681(4) 1.067(3) 0.7175(11)
C50 C 0.8441(11) 0.8465(7) 0.8416(3)
H79 H 0.820(2) 0.792(4) 0.8324(7)
H80 H 0.891(4) 0.8358(12) 0.8617(16)
C51 C 1.0278(10) 0.8490(7) 0.8094(4)
H81 H 1.0269 0.7917 0.8216
H82 H 1.0458 0.8396 0.7837
C52 C 1.1140(10) 0.9074(7) 0.8262(4)
H83 H 1.165(5) 0.928(2) 0.8091(16)
H84 H 1.154(4) 0.878(3) 0.8437(17)
O3A O 0.6565(4) 0.9167(3) 1.14151(14)
N3A N 0.8277(5) 0.9009(4) 1.08993(16)
C27A C 0.7009(6) 1.0171(5) 1.05431(19)
H43A H 0.624(5) 0.982(2) 1.0609(4)
C28A C 0.6948(7) 1.0934(5) 1.0342(2)
C29A C 0.7342(6) 0.8344(5) 1.09165(19)
H44A H 0.668(4) 0.8509(10) 1.0709(11)
C30A C 0.7945(7) 1.1402(5) 1.0243(2)
H45A H 0.7863(10) 1.197(4) 1.0090(11)
C31A C 0.9014(8) 1.1130(5) 1.0343(2)
C32A C 0.9178(7) 1.0328(5) 1.0541(2)
H46A H 0.979(6) 1.0156(17) 1.0581(4)
C33A C 0.7917(7) 0.7487(5) 1.0812(2)
H47A H 0.754(2) 0.700(2) 1.0920(5)
H48A H 0.7918(7) 0.7412(6) 1.0557(12)
C34A C 0.9363(6) 0.8536(4) 1.08837(19)
H49A H 0.990(2) 0.8769(11) 1.1071(8)
H50A H 0.9722(17) 0.8611(6) 1.0640(10)
C35A C 0.9113(7) 0.7572(5) 1.0954(2)
H51A H 0.965(3) 0.719(2) 1.0820(7)
H52A H 0.9153(7) 0.7431(9) 1.1216(13)
B3A B 0.8158(7) 0.9826(5) 1.0671(2)
C36A C 0.6780(6) 0.8288(5) 1.1283(2)
H53A H 0.600(3) 0.7937(15) 1.1262(2)
H54A H 0.732(2) 0.7948(15) 1.1465(8)
C37A C 0.5869(7) 0.9136(6) 1.1738(2)
H55A H 0.510(3) 0.876(3) 1.1685(5)
H56A H 0.564(4) 0.979(2) 1.1817(8)
H57A H 0.634(2) 0.883(3) 1.1953(9)
C38A C 0.5805(7) 1.1285(5) 1.0206(2)
H58A H 0.570(2) 1.112(3) 0.9941(11)
H59A H 0.5792(18) 1.195(3) 1.0230(13)
H60A H 0.516(3) 1.102(3) 1.0356(11)
C39A C 1.0062(8) 1.1642(6) 1.0233(2)
H61A H 0.9878(16) 1.202(3) 1.0050(15)
H62A H 1.062(3) 1.1263(19) 1.0157(17)
H63A H 1.032(3) 1.196(4) 1.0426(10)
Li6A Li 0.7933(11) 0.9840(9) 1.1374(4)
O4A O 0.7497(5) 1.1064(3) 1.14763(15)
C40A C 0.8246(6) 0.9452(5) 1.2297(2)
H64A H 0.7955(19) 1.007(4) 1.2378(5)
C41A C 0.9477(6) 0.8460(5) 1.19039(19)
H65A H 1.001(4) 0.8371(8) 1.1737(13)
C42A C 0.9119(8) 1.1059(5) 1.1867(2)
H66A H 0.882(4) 1.1059(5) 1.203(2)
C43A C 0.8250(7) 0.7879(6) 1.2385(2)
H67A H 0.798(2) 0.740(4) 1.2516(10)
C44A C 0.9013(7) 0.7739(5) 1.2099(2)
N4A N 0.9349(5) 1.0152(4) 1.17472(16)
C45A C 0.9401(7) 0.6818(5) 1.2010(2)
H68A H 0.916(4) 0.6429(17) 1.2196(10)
H69A H 1.021(3) 0.6805(9) 1.1993(14)
H70A H 0.908(4) 0.6641(16) 1.1786(11)
C46A C 1.0485(7) 1.0179(5) 1.1575(2)
H71A H 1.0404(8) 1.0267(6) 1.1311(14)
H72A H 1.089(2) 0.962(3) 1.1616(3)
C47A C 0.6665(8) 1.1543(6) 1.1273(2)
H73A H 0.638(4) 1.212(3) 1.1431(9)
H74A H 0.592(3) 1.111(2) 1.1216(12)
H75A H 0.705(2) 1.176(3) 1.1014(11)
B4A B 0.9062(8) 0.9375(6) 1.1982(2)
C48A C 0.7891(7) 0.8721(6) 1.2476(2)
C49A C 0.7060(7) 0.8746(6) 1.2787(3)
H76A H 0.742(2) 0.854(4) 1.2998(11)
H77A H 0.642(4) 0.839(3) 1.2733(8)
H78A H 0.681(4) 0.933(3) 1.2825(11)
C50A C 0.8441(11) 1.1535(7) 1.1584(3)
H79A H 0.820(2) 1.208(4) 1.1676(7)
H80A H 0.891(4) 1.1642(12) 1.1383(16)
C51A C 1.0278(10) 1.1510(7) 1.1906(4)
H81A H 1.0269 1.2083 1.1784
H82A H 1.0458 1.1604 1.2163
C52A C 1.1140(10) 1.0926(7) 1.1738(4)
H83A H 1.165(5) 1.072(2) 1.1909(16)
H84A H 1.154(4) 1.122(3) 1.1563(17)
C40C C 1.1754(6) 1.0548(5) 0.7297(2)
C41C C 1.0523(6) 1.1540(5) 0.69039(19)
C43C C 1.1750(7) 1.2121(6) 0.7385(2)
C44C C 1.0987(7) 1.2261(5) 0.7099(2)
B4C B 1.0938(8) 1.0625(6) 0.6982(2)
C48C C 1.2109(7) 1.1279(6) 0.7476(2)
Li5A Li 1.0000 0.8650(11) 1.2500
H64C H 1.2045(19) 0.993(4) 0.7378(5)
H65C H 0.999(4) 1.1629(8) 0.6737(13)
H67C H 1.202(2) 1.260(4) 0.7516(10)
O5 O 0.3597(9) 0.1259(6) 0.8902(2)
C53 C 0.3817(12) 0.1536(7) 0.9259(3)
H85 H 0.3838 0.2181 0.9265
H86 H 0.4572 0.1319 0.9333
C54 C 0.2975(12) 0.1229(10) 0.9512(4)
H87 H 0.2227 0.1484 0.9452
H88 H 0.3182 0.1424 0.9757
C55 C 0.2896(12) 0.0268(10) 0.9505(3)
H89 H 0.2276 0.0069 0.9664
H90 H 0.3616 0.0007 0.9591
C56 C 0.2663(11) -0.0017(7) 0.9119(4)
H91 H 0.2616 -0.0661 0.9107
H92 H 0.1930 0.0227 0.9037
C57 C 0.3577(11) 0.0294(9) 0.8889(4)
H93 H 0.3453 0.0094 0.8640
H94 H 0.4312 0.0058 0.8974
O6 O 0.8319(11) 0.5454(11) 0.8846(3)
C58 C 0.8685(16) 0.5172(11) 0.9484(4)
H95 H 0.7901 0.4987 0.9541
H96 H 0.9213 0.4863 0.9647
C59 C 0.8954(14) 0.4971(9) 0.9110(5)
H97 H 0.9772 0.5083 0.9070
H98 H 0.8822 0.4341 0.9069
C60 C 0.8417(18) 0.6363(10) 0.8890(5)
H99 H 0.9108 0.6562 0.8763
H100 H 0.7759 0.6646 0.8773
C61 C 0.847(3) 0.6649(18) 0.9245(6)
H101 H 0.7711 0.6879 0.9307
H102 H 0.9000 0.7151 0.9250
C62 C 0.880(2) 0.6087(12) 0.9526(7)
H103 H 0.8353 0.6254 0.9741
H104 H 0.9603 0.6208 0.9581
C63? C 0.764(2) 0.6142(14) 0.8959(5)
H105? H 0.7872 0.6660 0.8819
H106? H 0.6853 0.6002 0.8884
C64? C 0.7582(14) 0.6399(10) 0.9316(4)
H107? H 0.6768 0.6419 0.9381
H108? H 0.7863 0.7006 0.9326
C65? C 0.8131(19) 0.5944(13) 0.9590(5)
H109? H 0.7565 0.5795 0.9776
H110? H 0.8698 0.6336 0.9701
loop_
_geom_bond_atom_site_label_1
_geom_bond_atom_site_label_2
_geom_bond_site_symmetry_1
_geom_bond_site_symmetry_2
Li1 C1 1_555 1_555
Li2 C15 1_555 1_555
Li3 N1 1_555 1_555
N1 B1 1_555 1_555
C1 C3 1_555 1_555
C2 Li1 1_555 1_555
H1 C2 1_555 1_555
C3 Li1 1_555 1_555
H2 C3 1_555 1_555
O1 Li3 1_555 1_555
C4 Li1 1_555 1_555
H3 C4 1_555 1_555
C5 Li1 1_555 1_555
B1 Li1 1_555 1_555
C6 N1 1_555 1_555
H4 C6 1_555 1_555
C7 N1 1_555 1_555
H5 C7 1_555 1_555
H6 C7 1_555 1_555
C8 C7 1_555 1_555
H7 C8 1_555 1_555
H8 C8 1_555 1_555
C9 O1 1_555 1_555
H9 C9 1_555 1_555
H10 C9 1_555 1_555
C10 C5 1_555 1_555
H11 C10 1_555 1_555
H12 C10 1_555 1_555
H13 C10 1_555 1_555
C11 O1 1_555 1_555
H14 C11 1_555 1_555
H15 C11 1_555 1_555
H16 C11 1_555 1_555
C12 C6 1_555 1_555
H17 C12 1_555 1_555
H18 C12 1_555 1_555
C13 C1 1_555 1_555
H19 C13 1_555 1_555
H20 C13 1_555 1_555
H21 C13 1_555 1_555
O2 Li3 1_555 1_555
C14 H22 1_555 1_555
C15 H23 1_555 1_555
N2 Li3 1_555 1_555
C16 Li2 1_555 1_555
C17 Li2 1_555 1_555
H24 C17 1_555 1_555
C18 N2 1_555 1_555
H25 C18 1_555 1_555
H26 C18 1_555 1_555
C19 Li2 1_555 1_555
C20 Li2 1_555 1_555
H27 C20 1_555 1_555
C21 C14 1_555 1_555
H28 C21 1_555 1_555
H29 C21 1_555 1_555
C22 C16 1_555 1_555
H30 C22 1_555 1_555
H31 C22 1_555 1_555
H32 C22 1_555 1_555
C23 C19 1_555 1_555
H33 C23 1_555 1_555
H34 C23 1_555 1_555
H35 C23 1_555 1_555
C24 O2 1_555 1_555
H36 C24 1_555 1_555
H37 C24 1_555 1_555
H38 C24 1_555 1_555
B2 Li2 1_555 1_555
C25 O2 1_555 1_555
H39 C25 1_555 1_555
H40 C25 1_555 1_555
C26 C18 1_555 1_555
H41 C26 1_555 1_555
H42 C26 1_555 1_555
Li4 C27 1_555 1_555
Li5 C40 1_555 1_555
Li6 O3 1_555 1_555
O3 C36 1_555 1_555
N3 Li6 1_555 1_555
C27 H43 1_555 1_555
C28 Li4 1_555 1_555
C29 N3 1_555 1_555
H44 C29 1_555 1_555
C30 Li4 1_555 1_555
H45 C30 1_555 1_555
C31 Li4 1_555 1_555
C32 Li4 1_555 1_555
H46 C32 1_555 1_555
C33 C29 1_555 1_555
H47 C33 1_555 1_555
H48 C33 1_555 1_555
C34 N3 1_555 1_555
H49 C34 1_555 1_555
H50 C34 1_555 1_555
C35 C33 1_555 1_555
H51 C35 1_555 1_555
H52 C35 1_555 1_555
B3 Li4 1_555 1_555
C36 C29 1_555 1_555
H53 C36 1_555 1_555
H54 C36 1_555 1_555
C37 O3 1_555 1_555
H55 C37 1_555 1_555
H56 C37 1_555 1_555
H57 C37 1_555 1_555
C38 C28 1_555 1_555
H58 C38 1_555 1_555
H59 C38 1_555 1_555
H60 C38 1_555 1_555
C39 C31 1_555 1_555
H61 C39 1_555 1_555
H62 C39 1_555 1_555
H63 C39 1_555 1_555
O4 Li6 1_555 1_555
C40 H64 1_555 1_555
C41 Li5 1_555 1_555
H65 C41 1_555 1_555
C42 H66 1_555 1_555
C43 Li5 1_555 1_555
H67 C43 1_555 1_555
C44 Li5 1_555 1_555
N4 Li6 1_555 1_555
C45 C44 1_555 1_555
H68 C45 1_555 1_555
H69 C45 1_555 1_555
H70 C45 1_555 1_555
C46 N4 1_555 1_555
H71 C46 1_555 1_555
H72 C46 1_555 1_555
C47 O4 1_555 1_555
H73 C47 1_555 1_555
H74 C47 1_555 1_555
H75 C47 1_555 1_555
B4 Li5 1_555 1_555
C48 Li5 1_555 1_555
C49 C48 1_555 1_555
H76 C49 1_555 1_555
H77 C49 1_555 1_555
H78 C49 1_555 1_555
C50 O4 1_555 1_555
H79 C50 1_555 1_555
H80 C50 1_555 1_555
C51 C42 1_555 1_555
H81 C51 1_555 1_555
H82 C51 1_555 1_555
C52 C46 1_555 1_555
H83 C52 1_555 1_555
H84 C52 1_555 1_555
O5 C53 1_555 1_555
C53 H85 1_555 1_555
H86 C53 1_555 1_555
C54 C53 1_555 1_555
H87 C54 1_555 1_555
H88 C54 1_555 1_555
C55 C54 1_555 1_555
H89 C55 1_555 1_555
H90 C55 1_555 1_555
C56 C55 1_555 1_555
H91 C56 1_555 1_555
H92 C56 1_555 1_555
C57 O5 1_555 1_555
H93 C57 1_555 1_555
H94 C57 1_555 1_555
O6 C59 1_555 1_555
C58 H95 1_555 1_555
H96 C58 1_555 1_555
C59 C58 1_555 1_555
H97 C59 1_555 1_555
H98 C59 1_555 1_555
C60 O6 1_555 1_555
H99 C60 1_555 1_555
H100 C60 1_555 1_555
C61 C60 1_555 1_555
H101 C61 1_555 1_555
H102 C61 1_555 1_555
C62 C58 1_555 1_555
H103 C62 1_555 1_555
H104 C62 1_555 1_555
N1A B1A 1_555 1_555
C1A Li1 1_555 1_555
C2A Li1 1_555 1_555
H1A C2A 1_555 1_555
C3A Li1 1_555 1_555
H2A C3A 1_555 1_555
O1A C9A 1_555 1_555
C4A Li1 1_555 1_555
H3A C4A 1_555 1_555
C5A Li1 1_555 1_555
B1A Li1 1_555 1_555
C6A N1A 1_555 1_555
H4A C6A 1_555 1_555
C7A N1A 1_555 1_555
H5A C7A 1_555 1_555
H6A C7A 1_555 1_555
C8A C7A 1_555 1_555
H7A C8A 1_555 1_555
H8A C8A 1_555 1_555
C9A C6A 1_555 1_555
H9A C9A 1_555 1_555
H10A C9A 1_555 1_555
C10A C5A 1_555 1_555
H11A C10A 1_555 1_555
H12A C10A 1_555 1_555
H13A C10A 1_555 1_555
C11A O1A 1_555 1_555
H14A C11A 1_555 1_555
H15A C11A 1_555 1_555
H16A C11A 1_555 1_555
C12A C6A 1_555 1_555
H17A C12A 1_555 1_555
H18A C12A 1_555 1_555
C13A C1A 1_555 1_555
H19A C13A 1_555 1_555
H20A C13A 1_555 1_555
H21A C13A 1_555 1_555
Li3A N1A 1_555 1_555
O2A Li3A 1_555 1_555
C14A H22A 1_555 1_555
C15A H23A 1_555 1_555
N2A Li3A 1_555 1_555
C16A C17A 1_555 1_555
C17A H24A 1_555 1_555
C18A N2A 1_555 1_555
H25A C18A 1_555 1_555
H26A C18A 1_555 1_555
C19A C15A 1_555 1_555
C20A C16A 1_555 1_555
H27A C20A 1_555 1_555
C21A C14A 1_555 1_555
H28A C21A 1_555 1_555
H29A C21A 1_555 1_555
C22A C16A 1_555 1_555
H30A C22A 1_555 1_555
H31A C22A 1_555 1_555
H32A C22A 1_555 1_555
C23A C19A 1_555 1_555
H33A C23A 1_555 1_555
H34A C23A 1_555 1_555
H35A C23A 1_555 1_555
C24A O2A 1_555 1_555
H36A C24A 1_555 1_555
H37A C24A 1_555 1_555
H38A C24A 1_555 1_555
B2A C15A 1_555 1_555
C25A O2A 1_555 1_555
H39A C25A 1_555 1_555
H40A C25A 1_555 1_555
C26A C18A 1_555 1_555
H41A C26A 1_555 1_555
H42A C26A 1_555 1_555
O3A C36A 1_555 1_555
N3A C29A 1_555 1_555
C27A Li4 1_555 1_555
H43A C27A 1_555 1_555
C28A Li4 1_555 1_555
C29A H44A 1_555 1_555
C30A Li4 1_555 1_555
H45A C30A 1_555 1_555
C31A Li4 1_555 1_555
C32A Li4 1_555 1_555
H46A C32A 1_555 1_555
C33A C29A 1_555 1_555
H47A C33A 1_555 1_555
H48A C33A 1_555 1_555
C34A N3A 1_555 1_555
H49A C34A 1_555 1_555
H50A C34A 1_555 1_555
C35A C33A 1_555 1_555
H51A C35A 1_555 1_555
H52A C35A 1_555 1_555
B3A Li4 1_555 1_555
C36A C29A 1_555 1_555
H53A C36A 1_555 1_555
H54A C36A 1_555 1_555
C37A O3A 1_555 1_555
H55A C37A 1_555 1_555
H56A C37A 1_555 1_555
H57A C37A 1_555 1_555
C38A C28A 1_555 1_555
H58A C38A 1_555 1_555
H59A C38A 1_555 1_555
H60A C38A 1_555 1_555
C39A C31A 1_555 1_555
H61A C39A 1_555 1_555
H62A C39A 1_555 1_555
H63A C39A 1_555 1_555
Li6A O3A 1_555 1_555
O4A Li6A 1_555 1_555
C40A H64A 1_555 1_555
C41A H65A 1_555 1_555
C42A H66A 1_555 1_555
C43A H67A 1_555 1_555
C44A C41A 1_555 1_555
N4A Li6A 1_555 1_555
C45A C44A 1_555 1_555
H68A C45A 1_555 1_555
H69A C45A 1_555 1_555
H70A C45A 1_555 1_555
C46A N4A 1_555 1_555
H71A C46A 1_555 1_555
H72A C46A 1_555 1_555
C47A O4A 1_555 1_555
H73A C47A 1_555 1_555
H74A C47A 1_555 1_555
H75A C47A 1_555 1_555
B4A C40A 1_555 1_555
C48A C40A 1_555 1_555
C49A C48A 1_555 1_555
H76A C49A 1_555 1_555
H77A C49A 1_555 1_555
H78A C49A 1_555 1_555
C50A O4A 1_555 1_555
H79A C50A 1_555 1_555
H80A C50A 1_555 1_555
C51A C42A 1_555 1_555
H81A C51A 1_555 1_555
H82A C51A 1_555 1_555
C52A C46A 1_555 1_555
H83A C52A 1_555 1_555
H84A C52A 1_555 1_555
C15C Li2 1_555 1_555
C16C Li2 1_555 1_555
C17C Li2 1_555 1_555
C19C Li2 1_555 1_555
C20C Li2 1_555 1_555
B2C Li2 1_555 1_555
C40C Li5 1_555 1_555
C41C Li5 1_555 1_555
C43C Li5 1_555 1_555
C44C Li5 1_555 1_555
B4C Li5 1_555 1_555
C48C Li5 1_555 1_555
Li2A C15A 1_555 1_555
Li5A C40A 1_555 1_555
H23C C15C 1_555 1_555
H24C C17C 1_555 1_555
H27C C20C 1_555 1_555
H64C C40C 1_555 1_555
H65C C41C 1_555 1_555
H67C C43C 1_555 1_555
C1 C4 1_555 1_555
C2 B1 1_555 1_555
C2 C5 1_555 1_555
C3 C5 1_555 1_555
C4 B1 1_555 1_555
C6 C9 1_555 1_555
C8 C12 1_555 1_555
C14 C25 1_555 1_555
C14 N2 1_555 1_555
C15 B2 1_555 1_555
C15 C19 1_555 1_555
N2 B2 1_555 1_555
C16 C20 1_555 1_555
C16 C17 1_555 1_555
C17 B2 1_555 1_555
C19 C20 1_555 1_555
C21 C26 1_555 1_555
N3 B3 1_555 1_555
C27 B3 1_555 1_555
C27 C28 1_555 1_555
C28 C30 1_555 1_555
C30 C31 1_555 1_555
C31 C32 1_555 1_555
C32 B3 1_555 1_555
C34 C35 1_555 1_555
C40 B4 1_555 1_555
C40 C48 1_555 1_555
C41 C44 1_555 1_555
C41 B4 1_555 1_555
C42 C50 1_555 1_555
C42 N4 1_555 1_555
C43 C48 1_555 1_555
C43 C44 1_555 1_555
N4 B4 1_555 1_555
C51 C52 1_555 1_555
C56 C57 1_555 1_555
C61 C62 1_555 1_555
C1A C3A 1_555 1_555
C1A C4A 1_555 1_555
C2A B1A 1_555 1_555
C2A C5A 1_555 1_555
C3A C5A 1_555 1_555
O1A Li3A 1_555 1_555
C4A B1A 1_555 1_555
C8A C12A 1_555 1_555
C14A C25A 1_555 1_555
C14A N2A 1_555 1_555
N2A B2A 1_555 1_555
C16A Li2A 1_555 1_555
C17A B2A 1_555 1_555
C17A Li2A 1_555 1_555
C19A C20A 1_555 1_555
C19A Li2A 1_555 1_555
C20A Li2A 1_555 1_555
C21A C26A 1_555 1_555
B2A Li2A 1_555 1_555
N3A Li6A 1_555 1_555
N3A B3A 1_555 1_555
C27A B3A 1_555 1_555
C27A C28A 1_555 1_555
C28A C30A 1_555 1_555
C30A C31A 1_555 1_555
C31A C32A 1_555 1_555
C32A B3A 1_555 1_555
C34A C35A 1_555 1_555
C41A B4A 1_555 1_555
C41A Li5A 1_555 1_555
C42A C50A 1_555 1_555
C42A N4A 1_555 1_555
C43A C48A 1_555 1_555
C43A C44A 1_555 1_555
C43A Li5A 1_555 1_555
C44A Li5A 1_555 1_555
N4A B4A 1_555 1_555
B4A Li5A 1_555 1_555
C48A Li5A 1_555 1_555
C51A C52A 1_555 1_555
C15C C19C 1_555 1_555
C15C B2C 1_555 1_555
C16C C17C 1_555 1_555
C16C C20C 1_555 1_555
C17C B2C 1_555 1_555
C19C C20C 1_555 1_555
C40C B4C 1_555 1_555
C40C C48C 1_555 1_555
C41C C44C 1_555 1_555
C41C B4C 1_555 1_555
C43C C44C 1_555 1_555
C43C C48C 1_555 1_555

#END
