
#######################################################################
#
#                 Cambridge Crystallographic Data Centre
#                                CCDC 
#
#######################################################################
#
# If this CIF has been generated from an entry in the Cambridge 
# Structural Database, then it will include bibliographic, chemical, 
# crystal, experimental, refinement or atomic coordinate data resulting 
# from the CCDC's data processing and validation procedures.
#
#######################################################################

data_XIBPEE
_symmetry_cell_setting           monoclinic
_symmetry_space_group_name_H-M   'P 21/n'
_symmetry_Int_Tables_number      14
_space_group_name_Hall           '-P 2yn'
loop_
_symmetry_equiv_pos_site_id
_symmetry_equiv_pos_as_xyz
1 x,y,z
2 1/2-x,1/2+y,1/2-z
3 -x,-y,-z
4 1/2+x,1/2-y,1/2+z
_cell_length_a                   11.489(2)
_cell_length_b                   15.054(3)
_cell_length_c                   12.186(2)
_cell_angle_alpha                90
_cell_angle_beta                 116.40(3)
_cell_angle_gamma                90
_cell_volume                     1887.83
loop_
_atom_site_label
_atom_site_type_symbol
_atom_site_fract_x
_atom_site_fract_y
_atom_site_fract_z
C1 C 0.7332(3) 0.1315(2) 0.1950(3)
H1 H 0.8191 0.1351 0.2541
C2 C 0.6960(3) 0.1748(2) 0.0829(3)
H2 H 0.7569 0.2070 0.0685
C3 C 0.5696(3) 0.1698(2) -0.0061(3)
H3 H 0.5443 0.1985 -0.0809
C4 C 0.4793(3) 0.12080(17) 0.0176(2)
C5 C 0.5235(3) 0.07986(17) 0.1317(2)
C6 C 0.4358(3) 0.03080(16) 0.1645(2)
C7 C 0.4100(3) -0.0485(2) 0.3143(3)
H4 H 0.4446 -0.0726 0.3927
C8 C 0.2781(3) -0.0590(2) 0.2381(3)
H5 H 0.2262 -0.0899 0.2658
C9 C 0.2245(3) -0.0239(2) 0.1224(3)
H6 H 0.1363 -0.0305 0.0710
C10 C 0.3052(3) 0.02218(18) 0.0827(2)
C11 C 0.2585(3) 0.06214(19) -0.0377(2)
C12 C 0.3433(3) 0.10950(18) -0.0700(2)
C13 C 0.0940(3) 0.0854(2) -0.2255(3)
H7 H 0.0078 0.0788 -0.2830
C14 C 0.1779(3) 0.1324(2) -0.2585(3)
H8 H 0.1449 0.1558 -0.3373
C15 C 0.7913(3) -0.0997(2) 0.5856(3)
C16 C 0.7754(3) -0.15184(18) 0.6834(2)
C17 C 0.6542(2) -0.17430(18) 0.6734(2)
H9 H 0.5797 -0.1568 0.6048
C18 C 0.6435(2) -0.22260(18) 0.7650(2)
H10 H 0.5616 -0.2376 0.7571
C19 C 0.7535(3) -0.24917(17) 0.8691(2)
C20 C 0.7393(3) -0.30972(17) 0.9620(2)
C21 C 0.8750(3) -0.2246(2) 0.8810(3)
H11 H 0.9492 -0.2407 0.9508
C22 C 0.8864(3) -0.1763(2) 0.7896(3)
H12 H 0.9682 -0.1599 0.7986
N1 N 0.6482(2) 0.08504(15) 0.21921(19)
N2 N 0.4887(2) -0.00502(15) 0.2789(2)
N3 N 0.3022(3) 0.14565(18) -0.1839(2)
N4 N 0.1313(3) 0.05022(19) -0.1171(2)
O1 O 0.68910(19) -0.06388(15) 0.50352(17)
O2 O 0.9012(2) -0.0946(2) 0.5914(2)
O3 O 0.8644(2) 0.03403(15) 0.43798(19)
O4 O 0.83770(18) -0.35460(14) 1.02995(17)
O5 O 0.62939(19) -0.31435(14) 0.96002(19)
Cu1 Cu 0.67755(3) 0.02134(2) 0.37710(3)
H13 H 0.900(4) -0.008(2) 0.486(4)
H14 H 0.873(4) 0.0831(16) 0.475(3)
O4A O 0.66230(18) 0.14540(14) 0.47005(17)
Cu1A Cu 0.82245(3) -0.47866(2) 1.12290(3)
loop_
_geom_bond_atom_site_label_1
_geom_bond_atom_site_label_2
_geom_bond_site_symmetry_1
_geom_bond_site_symmetry_2
C1 H1 1_555 1_555
C2 C1 1_555 1_555
H2 C2 1_555 1_555
C3 C2 1_555 1_555
H3 C3 1_555 1_555
C4 C3 1_555 1_555
C5 C4 1_555 1_555
C6 C5 1_555 1_555
C7 H4 1_555 1_555
C8 C7 1_555 1_555
H5 C8 1_555 1_555
C9 C8 1_555 1_555
H6 C9 1_555 1_555
C10 C6 1_555 1_555
C11 C10 1_555 1_555
C12 C4 1_555 1_555
C13 H7 1_555 1_555
C14 C13 1_555 1_555
H8 C14 1_555 1_555
C15 C16 1_555 1_555
C16 C17 1_555 1_555
C17 H9 1_555 1_555
C18 C17 1_555 1_555
H10 C18 1_555 1_555
C19 C18 1_555 1_555
C20 C19 1_555 1_555
C21 C19 1_555 1_555
H11 C21 1_555 1_555
C22 C16 1_555 1_555
H12 C22 1_555 1_555
N1 C1 1_555 1_555
N2 C6 1_555 1_555
N3 C12 1_555 1_555
N4 C11 1_555 1_555
O1 C15 1_555 1_555
O2 C15 1_555 1_555
O3 Cu1 1_555 1_555
O4 C20 1_555 1_555
O5 C20 1_555 1_555
Cu1 N1 1_555 1_555
H13 O3 1_555 1_555
H14 O3 1_555 1_555
O4A Cu1 1_555 1_555
Cu1A O4 1_555 1_555
C5 N1 1_555 1_555
C7 N2 1_555 1_555
C9 C10 1_555 1_555
C11 C12 1_555 1_555
C13 N4 1_555 1_555
C14 N3 1_555 1_555
C21 C22 1_555 1_555
N2 Cu1 1_555 1_555
O1 Cu1 1_555 1_555

#END
