
#######################################################################
#
#                 Cambridge Crystallographic Data Centre
#                                CCDC 
#
#######################################################################
#
# If this CIF has been generated from an entry in the Cambridge 
# Structural Database, then it will include bibliographic, chemical, 
# crystal, experimental, refinement or atomic coordinate data resulting 
# from the CCDC's data processing and validation procedures.
#
#######################################################################

data_XIBPII
_symmetry_cell_setting           triclinic
_symmetry_space_group_name_H-M   'P -1'
_symmetry_Int_Tables_number      2
_space_group_name_Hall           '-P 1'
loop_
_symmetry_equiv_pos_site_id
_symmetry_equiv_pos_as_xyz
1 x,y,z
2 -x,-y,-z
_cell_length_a                   3.59870(10)
_cell_length_b                   9.12570(10)
_cell_length_c                   9.23110(10)
_cell_angle_alpha                91.1390(10)
_cell_angle_beta                 99.1590(10)
_cell_angle_gamma                91.5350(10)
_cell_volume                     299.093
loop_
_atom_site_label
_atom_site_type_symbol
_atom_site_fract_x
_atom_site_fract_y
_atom_site_fract_z
Na1 Na 0.66728(14) 0.37867(5) 0.36678(5)
O1 O 0.7313(2) 0.63292(8) 0.43532(8)
O2 O 0.9976(3) 0.81058(9) 0.00539(9)
O3 O 0.1071(3) 0.41444(9) 0.20571(9)
H1 H 0.0907 0.5030 0.1792
H2 H 0.0722 0.3602 0.1286
O4 O 0.6301(2) 1.11628(8) 0.34590(9)
N1 N 0.8174(3) 0.96382(9) 0.17353(9)
N2 N 0.8633(3) 0.70786(9) 0.21378(9)
N3 N 0.6671(3) 0.87183(9) 0.38559(9)
C1 C 0.8936(3) 0.82281(10) 0.12668(10)
C2 C 0.7006(3) 0.99226(10) 0.30372(10)
C3 C 0.7551(3) 0.73105(10) 0.34431(10)
H3 H 0.867(5) 1.038(2) 0.1154(18)
H4 H 0.609(5) 0.882(2) 0.475(2)
Na1A Na 0.33272(14) 0.62133(5) 0.63322(5)
Na1A_2 Na 1.33272(14) 0.62133(5) 0.63322(5)
Na1_2 Na -0.33272(14) 0.37867(5) 0.36678(5)
Na1_3 Na 0.66728(14) 1.37867(5) 0.36678(5)
O1A O 0.2687(2) 0.36708(8) 0.56468(8)
O1A_2 O 1.2687(2) 0.36708(8) 0.56468(8)
O3_2 O 1.1071(3) 0.41444(9) 0.20571(9)
H1_2 H 1.0907 0.5030 0.1792
H2_2 H 1.0722 0.3602 0.1286
O4_2 O 0.6301(2) 0.11628(8) 0.34590(9)
loop_
_geom_bond_atom_site_label_1
_geom_bond_atom_site_label_2
_geom_bond_site_symmetry_1
_geom_bond_site_symmetry_2
Na1 O1 1_555 1_555
O1 C3 1_555 1_555
O2 C1 1_555 1_555
O3 Na1 1_555 1_555
H1 O3 1_555 1_555
H2 O3 1_555 1_555
O4 C2 1_555 1_555
N1 C1 1_555 1_555
N2 C1 1_555 1_555
N3 C2 1_555 1_555
C2 N1 1_555 1_555
C3 N2 1_555 1_555
H3 N1 1_555 1_555
H4 N3 1_555 1_555
Na1A O1 1_555 1_555
Na1A_2 O1 1_555 1_555
Na1_2 O3 1_555 1_555
Na1_3 O4 1_555 1_555
O1A Na1 1_555 1_555
O1A_2 Na1 1_555 1_555
O3_2 Na1 1_555 1_555
H1_2 O3_2 1_555 1_555
H2_2 O3_2 1_555 1_555
O4_2 Na1 1_555 1_555
N3 C3 1_555 1_555
Na1A O1A 1_555 1_555
Na1A_2 O1A_2 1_555 1_555
Na1_2 O1A 1_555 1_555

#END
