
#######################################################################
#
#                 Cambridge Crystallographic Data Centre
#                                CCDC 
#
#######################################################################
#
# If this CIF has been generated from an entry in the Cambridge 
# Structural Database, then it will include bibliographic, chemical, 
# crystal, experimental, refinement or atomic coordinate data resulting 
# from the CCDC's data processing and validation procedures.
#
#######################################################################

data_XIBQOQ
_symmetry_cell_setting           monoclinic
_symmetry_space_group_name_H-M   'C 2/c'
_symmetry_Int_Tables_number      15
_space_group_name_Hall           '-C 2yn'
loop_
_symmetry_equiv_pos_site_id
_symmetry_equiv_pos_as_xyz
1 x,y,z
2 -x,y,1/2-z
3 1/2+x,1/2+y,z
4 1/2-x,1/2+y,1/2-z
5 -x,-y,-z
6 x,-y,1/2+z
7 1/2-x,1/2-y,-z
8 1/2+x,1/2-y,1/2+z
_cell_length_a                   10.5222(14)
_cell_length_b                   14.6134(19)
_cell_length_c                   39.044(5)
_cell_angle_alpha                90
_cell_angle_beta                 92.677(2)
_cell_angle_gamma                90
_cell_volume                     5997.05
loop_
_atom_site_label
_atom_site_type_symbol
_atom_site_fract_x
_atom_site_fract_y
_atom_site_fract_z
Dy1 Dy 0.53530(4) -0.00600(3) 0.048350(11)
Dy2 Dy 0.5000 0.21239(4) 0.2500
Dy3 Dy 0.5000 0.57973(4) 0.2500
N1 N -0.0568(6) -0.1270(5) 0.0492(2)
N2 N 0.7496(7) 0.3509(5) 0.1281(2)
N3 N 0.2151(7) 0.3846(5) 0.1439(2)
C1 C 0.0581(8) 0.0123(7) 0.0628(3)
H1 H -0.0248 0.0333 0.0685
H2 H 0.0986 0.0581 0.0494
H3 H 0.1086 0.0011 0.0835
C2 C -0.1862(8) -0.2639(6) 0.0445(3)
H4 H -0.1698 -0.2854 0.0675
H5 H -0.1998 -0.3153 0.0294
H6 H -0.2607 -0.2259 0.0436
C3 C -0.0126(8) -0.3275(6) -0.0111(3)
C4 C 0.0454(8) -0.0747(6) 0.0425(2)
C5 C -0.0734(8) -0.2092(6) 0.0333(2)
C6 C 0.0056(8) -0.2386(6) 0.0075(2)
C7 C 0.1045(8) -0.1807(5) -0.0009(2)
H7 H 0.1546 -0.1957 -0.0190
C8 C 0.1290(7) -0.1018(6) 0.0173(2)
C9 C 0.2518(8) -0.0509(6) 0.0105(3)
C10 C 0.5265(9) 0.1493(7) 0.1120(3)
C11 C 0.7679(9) 0.2398(7) 0.0834(3)
H8 H 0.8394 0.2788 0.0797
H9 H 0.7133 0.2380 0.0630
H10 H 0.7975 0.1791 0.0888
C12 C 0.7705(10) 0.4686(8) 0.1710(3)
H11 H 0.8535 0.4705 0.1617
H12 H 0.7788 0.4605 0.1954
H13 H 0.7266 0.5249 0.1658
C13 C 0.5310(8) 0.2785(6) 0.1523(2)
H14 H 0.4577 0.2531 0.1607
C14 C 0.5853(9) 0.2380(6) 0.1245(2)
C15 C 0.6951(9) 0.2765(6) 0.1127(2)
C16 C 0.6959(9) 0.3897(7) 0.1552(2)
C17 C 0.5833(8) 0.3569(6) 0.1681(2)
C18 C 0.5224(8) 0.3905(6) 0.1998(2)
C19 C 0.3112(9) 0.5345(6) 0.1490(3)
H15 H 0.4000 0.5222 0.1536
H16 H 0.2892 0.5915 0.1594
H17 H 0.2941 0.5381 0.1246
C20 C 0.1365(9) 0.2331(6) 0.1312(3)
H18 H 0.1164 0.2556 0.1085
H19 H 0.0694 0.1939 0.1382
H20 H 0.2148 0.1993 0.1314
C21 C 0.0383(10) 0.2341(7) 0.2041(2)
C22 C 0.1924(9) 0.5514(6) 0.2171(3)
C23 C 0.2338(8) 0.4591(6) 0.1634(3)
C24 C 0.1508(9) 0.3128(6) 0.1557(3)
C25 C 0.0963(8) 0.3137(5) 0.1873(2)
C26 C 0.1087(7) 0.3947(6) 0.2063(2)
H21 H 0.0700 0.3989 0.2272
C27 C 0.1775(8) 0.4689(6) 0.1948(2)
O1 O -0.0320(5) -0.4012(4) 0.00540(16)
O2 O -0.0056(6) -0.3288(4) -0.04271(17)
O3 O 0.2825(6) -0.0447(4) -0.02028(17)
O4 O 0.3182(5) -0.0254(4) 0.03638(17)
O5 O 0.4605(6) -0.0526(4) 0.10105(19)
H22 H 0.404(6) -0.089(4) 0.108(2)
H23 H 0.447(8) -0.001(3) 0.111(2)
O6 O 0.7146(6) -0.0629(5) 0.07672(17)
H24 H 0.780(5) -0.076(6) 0.0657(17)
H25 H 0.720(7) -0.098(5) 0.0943(14)
O7 O 0.5541(6) 0.1197(4) 0.08229(16)
O8 O 0.4552(7) 0.1085(5) 0.13144(19)
O9 O 0.7020(5) 0.2753(5) 0.2381(2)
H26 H 0.774(4) 0.255(5) 0.233(2)
H27 H 0.717(7) 0.325(4) 0.249(2)
O10 O 0.3618(6) 0.1522(5) 0.20657(18)
H28 H 0.288(4) 0.165(6) 0.199(2)
H29 H 0.394(7) 0.117(6) 0.1922(18)
O11 O 0.4515(6) 0.3354(4) 0.21489(16)
O12 O 0.5435(6) 0.4722(4) 0.21003(16)
O13 O 0.2990(6) 0.5688(5) 0.23080(19)
O14 O 0.0961(6) 0.5995(5) 0.22007(19)
O15 O -0.0660(8) 0.2394(6) 0.2171(3)
O16 O 0.0996(6) 0.1584(4) 0.20572(17)
Dy1A Dy 0.46470(4) -0.00600(3) 0.451650(11)
N1A N 1.0568(6) -0.1270(5) 0.4508(2)
N2A N 0.2504(7) 0.3509(5) 0.3719(2)
N3A N 0.7849(7) 0.3846(5) 0.3561(2)
C1A C 0.9419(8) 0.0123(7) 0.4372(3)
H1A H 1.0248 0.0333 0.4315
H2A H 0.9014 0.0581 0.4506
H3A H 0.8914 0.0011 0.4165
C2A C 1.1862(8) -0.2639(6) 0.4555(3)
H4A H 1.1698 -0.2854 0.4325
H5A H 1.1998 -0.3153 0.4706
H6A H 1.2607 -0.2259 0.4564
C3A C 1.0126(8) -0.3275(6) 0.5111(3)
C4A C 0.9546(8) -0.0747(6) 0.4575(2)
C5A C 1.0734(8) -0.2092(6) 0.4667(2)
C6A C 0.9944(8) -0.2386(6) 0.4925(2)
C7A C 0.8955(8) -0.1807(5) 0.5009(2)
H7A H 0.8454 -0.1957 0.5190
C8A C 0.8710(7) -0.1018(6) 0.4827(2)
C9A C 0.7482(8) -0.0509(6) 0.4895(3)
C10A C 0.4735(9) 0.1493(7) 0.3880(3)
C11A C 0.2321(9) 0.2398(7) 0.4166(3)
H8A H 0.1606 0.2788 0.4203
H9A H 0.2867 0.2380 0.4370
H10A H 0.2025 0.1791 0.4112
C12A C 0.2295(10) 0.4686(8) 0.3290(3)
H11A H 0.1465 0.4705 0.3383
H12A H 0.2212 0.4605 0.3046
H13A H 0.2734 0.5249 0.3342
C13A C 0.4690(8) 0.2785(6) 0.3477(2)
H14A H 0.5423 0.2531 0.3393
C14A C 0.4147(9) 0.2380(6) 0.3755(2)
C15A C 0.3049(9) 0.2765(6) 0.3873(2)
C16A C 0.3041(9) 0.3897(7) 0.3448(2)
C17A C 0.4167(8) 0.3569(6) 0.3319(2)
C18A C 0.4776(8) 0.3905(6) 0.3002(2)
C19A C 0.6888(9) 0.5345(6) 0.3510(3)
H15A H 0.6000 0.5222 0.3464
H16A H 0.7108 0.5915 0.3406
H17A H 0.7059 0.5381 0.3754
C20A C 0.8635(9) 0.2331(6) 0.3688(3)
H18A H 0.8836 0.2556 0.3915
H19A H 0.9306 0.1939 0.3618
H20A H 0.7852 0.1993 0.3686
C21A C 0.9617(10) 0.2341(7) 0.2959(2)
C22A C 0.8076(9) 0.5514(6) 0.2829(3)
C23A C 0.7662(8) 0.4591(6) 0.3366(3)
C24A C 0.8492(9) 0.3128(6) 0.3443(3)
C25A C 0.9037(8) 0.3137(5) 0.3127(2)
C26A C 0.8913(7) 0.3947(6) 0.2937(2)
H21A H 0.9300 0.3989 0.2728
C27A C 0.8225(8) 0.4689(6) 0.3052(2)
O1A O 1.0320(5) -0.4012(4) 0.49460(16)
O2A O 1.0056(6) -0.3288(4) 0.54271(17)
O3A O 0.7175(6) -0.0447(4) 0.52028(17)
O4A O 0.6818(5) -0.0254(4) 0.46362(17)
O5A O 0.5395(6) -0.0526(4) 0.39895(19)
H22A H 0.596(6) -0.089(4) 0.392(2)
H23A H 0.553(8) -0.001(3) 0.389(2)
O6A O 0.2854(6) -0.0629(5) 0.42328(17)
H24A H 0.220(5) -0.076(6) 0.4343(17)
H25A H 0.280(7) -0.098(5) 0.4057(14)
O7A O 0.4459(6) 0.1197(4) 0.41771(16)
O8A O 0.5448(7) 0.1085(5) 0.36856(19)
O9A O 0.2980(5) 0.2753(5) 0.2619(2)
H26A H 0.226(4) 0.255(5) 0.267(2)
H27A H 0.283(7) 0.325(4) 0.251(2)
O10A O 0.6382(6) 0.1522(5) 0.29343(18)
H28A H 0.712(4) 0.165(6) 0.301(2)
H29A H 0.606(7) 0.117(6) 0.3078(18)
O11A O 0.5485(6) 0.3354(4) 0.28511(16)
O12A O 0.4565(6) 0.4722(4) 0.28997(16)
O13A O 0.7010(6) 0.5688(5) 0.26920(19)
O14A O 0.9039(6) 0.5995(5) 0.27993(19)
O15A O 1.0660(8) 0.2394(6) 0.2829(3)
O16A O 0.9004(6) 0.1584(4) 0.29428(17)
Dy1B Dy 0.03530(4) -0.50600(3) 0.048350(11)
Dy1C Dy 0.96470(4) -0.50600(3) 0.451650(11)
Dy1D Dy 0.46470(4) 0.00600(3) -0.048350(11)
Dy1E Dy 0.53530(4) 0.00600(3) 0.548350(11)
Dy1F Dy -0.03530(4) -0.49400(3) -0.048350(11)
Dy1G Dy 1.03530(4) -0.49400(3) 0.548350(11)
Dy2B Dy 0.0000 0.71239(4) 0.2500
Dy2B_2 Dy 1.0000 0.71239(4) 0.2500
Dy3B Dy 0.0000 0.07973(4) 0.2500
Dy3B_2 Dy 1.0000 0.07973(4) 0.2500
O1B O 0.4680(5) 0.0988(4) 0.00540(16)
O1C O 0.5320(5) 0.0988(4) 0.49460(16)
O1F O 0.5320(5) -0.0988(4) -0.00540(16)
O1G O 0.4680(5) -0.0988(4) 0.50540(16)
O2F O 0.5056(6) -0.1712(4) 0.04271(17)
O2G O 0.4944(6) -0.1712(4) 0.45729(17)
O3D O 0.7175(6) 0.0447(4) 0.02028(17)
O3E O 0.2825(6) 0.0447(4) 0.47972(17)
O14B O 0.5961(6) 0.0995(5) 0.22007(19)
O14C O 0.4039(6) 0.0995(5) 0.27993(19)
O15B O 0.4340(8) 0.7394(6) 0.2171(3)
O15C O 0.5660(8) 0.7394(6) 0.2829(3)
O16B O 0.5996(6) 0.6584(4) 0.20572(17)
O16C O 0.4004(6) 0.6584(4) 0.29428(17)
loop_
_geom_bond_atom_site_label_1
_geom_bond_atom_site_label_2
_geom_bond_site_symmetry_1
_geom_bond_site_symmetry_2
Dy1 O4 1_555 1_555
Dy2 O9 1_555 1_555
Dy3 O12 1_555 1_555
N1 C4 1_555 1_555
N2 C15 1_555 1_555
N3 C23 1_555 1_555
C1 H1 1_555 1_555
H2 C1 1_555 1_555
H3 C1 1_555 1_555
C2 H4 1_555 1_555
H5 C2 1_555 1_555
H6 C2 1_555 1_555
C3 C6 1_555 1_555
C4 C1 1_555 1_555
C5 N1 1_555 1_555
C6 C5 1_555 1_555
C7 C6 1_555 1_555
H7 C7 1_555 1_555
C8 C4 1_555 1_555
C9 C8 1_555 1_555
C10 C14 1_555 1_555
C11 H8 1_555 1_555
H9 C11 1_555 1_555
H10 C11 1_555 1_555
C12 H11 1_555 1_555
H12 C12 1_555 1_555
H13 C12 1_555 1_555
C13 H14 1_555 1_555
C14 C13 1_555 1_555
C15 C11 1_555 1_555
C16 N2 1_555 1_555
C17 C13 1_555 1_555
C18 C17 1_555 1_555
C19 H15 1_555 1_555
H16 C19 1_555 1_555
H17 C19 1_555 1_555
C20 H18 1_555 1_555
H19 C20 1_555 1_555
H20 C20 1_555 1_555
C21 C25 1_555 1_555
C22 C27 1_555 1_555
C23 C19 1_555 1_555
C24 N3 1_555 1_555
C25 C24 1_555 1_555
C26 C25 1_555 1_555
H21 C26 1_555 1_555
C27 C23 1_555 1_555
O1 C3 1_555 1_555
O2 C3 1_555 1_555
O3 C9 1_555 1_555
O4 C9 1_555 1_555
O5 Dy1 1_555 1_555
H22 O5 1_555 1_555
H23 O5 1_555 1_555
O6 Dy1 1_555 1_555
H24 O6 1_555 1_555
H25 O6 1_555 1_555
O7 Dy1 1_555 1_555
O8 C10 1_555 1_555
O9 H26 1_555 1_555
H27 O9 1_555 1_555
O10 Dy2 1_555 1_555
H28 O10 1_555 1_555
H29 O10 1_555 1_555
O11 Dy2 1_555 1_555
O12 C18 1_555 1_555
O13 Dy3 1_555 1_555
O14 C22 1_555 1_555
O15 C21 1_555 1_555
O16 C21 1_555 1_555
Dy1A O4A 1_555 1_555
N1A C4A 1_555 1_555
N2A C15A 1_555 1_555
N3A C23A 1_555 1_555
C1A H1A 1_555 1_555
H2A C1A 1_555 1_555
H3A C1A 1_555 1_555
C2A H4A 1_555 1_555
H5A C2A 1_555 1_555
H6A C2A 1_555 1_555
C3A C6A 1_555 1_555
C4A C1A 1_555 1_555
C5A N1A 1_555 1_555
C6A C5A 1_555 1_555
C7A C6A 1_555 1_555
H7A C7A 1_555 1_555
C8A C4A 1_555 1_555
C9A C8A 1_555 1_555
C10A C14A 1_555 1_555
C11A H8A 1_555 1_555
H9A C11A 1_555 1_555
H10A C11A 1_555 1_555
C12A H11A 1_555 1_555
H12A C12A 1_555 1_555
H13A C12A 1_555 1_555
C13A H14A 1_555 1_555
C14A C13A 1_555 1_555
C15A C11A 1_555 1_555
C16A N2A 1_555 1_555
C17A C13A 1_555 1_555
C18A C17A 1_555 1_555
C19A H15A 1_555 1_555
H16A C19A 1_555 1_555
H17A C19A 1_555 1_555
C20A H18A 1_555 1_555
H19A C20A 1_555 1_555
H20A C20A 1_555 1_555
C21A C25A 1_555 1_555
C22A C27A 1_555 1_555
C23A C19A 1_555 1_555
C24A N3A 1_555 1_555
C25A C24A 1_555 1_555
C26A C25A 1_555 1_555
H21A C26A 1_555 1_555
C27A C23A 1_555 1_555
O1A C3A 1_555 1_555
O2A C3A 1_555 1_555
O3A C9A 1_555 1_555
O4A C9A 1_555 1_555
O5A Dy1A 1_555 1_555
H22A O5A 1_555 1_555
H23A O5A 1_555 1_555
O6A Dy1A 1_555 1_555
H24A O6A 1_555 1_555
H25A O6A 1_555 1_555
O7A Dy1A 1_555 1_555
O8A C10A 1_555 1_555
O9A Dy2 1_555 1_555
H26A O9A 1_555 1_555
H27A O9A 1_555 1_555
O10A Dy2 1_555 1_555
H28A O10A 1_555 1_555
H29A O10A 1_555 1_555
O11A Dy2 1_555 1_555
O12A Dy3 1_555 1_555
O13A Dy3 1_555 1_555
O14A C22A 1_555 1_555
O15A C21A 1_555 1_555
O16A C21A 1_555 1_555
Dy1B O1 1_555 1_555
Dy1C O1A 1_555 1_555
Dy1D O3 1_555 1_555
Dy1E O3A 1_555 1_555
Dy1F O1 1_555 1_555
Dy1G O1A 1_555 1_555
Dy2B O14 1_555 1_555
Dy2B_2 O14A 1_555 1_555
Dy3B O15 1_555 1_555
Dy3B_2 O15A 1_555 1_555
O1B Dy1 1_555 1_555
O1C Dy1A 1_555 1_555
O1F Dy1 1_555 1_555
O1G Dy1A 1_555 1_555
O2F Dy1 1_555 1_555
O2G Dy1A 1_555 1_555
O3D Dy1 1_555 1_555
O3E Dy1A 1_555 1_555
O14B Dy2 1_555 1_555
O14C Dy2 1_555 1_555
O15B Dy3 1_555 1_555
O15C Dy3 1_555 1_555
O16B Dy3 1_555 1_555
O16C Dy3 1_555 1_555
C2 C5 1_555 1_555
C7 C8 1_555 1_555
C10 O7 1_555 1_555
C12 C16 1_555 1_555
C14 C15 1_555 1_555
C16 C17 1_555 1_555
C18 O11 1_555 1_555
C20 C24 1_555 1_555
C22 O13 1_555 1_555
C26 C27 1_555 1_555
O2 Dy1F 1_555 1_555
O16 Dy3B 1_555 1_555
C2A C5A 1_555 1_555
C7A C8A 1_555 1_555
C10A O7A 1_555 1_555
C12A C16A 1_555 1_555
C14A C15A 1_555 1_555
C16A C17A 1_555 1_555
C18A O11A 1_555 1_555
C18A O12A 1_555 1_555
C20A C24A 1_555 1_555
C22A O13A 1_555 1_555
C26A C27A 1_555 1_555
O2A Dy1G 1_555 1_555
O16A Dy3B_2 1_555 1_555
Dy1D O1B 1_555 1_555
Dy1D O1F 1_555 1_555
Dy1E O1C 1_555 1_555
Dy1E O1G 1_555 1_555

#END
