
#######################################################################
#
#                 Cambridge Crystallographic Data Centre
#                                CCDC 
#
#######################################################################
#
# If this CIF has been generated from an entry in the Cambridge 
# Structural Database, then it will include bibliographic, chemical, 
# crystal, experimental, refinement or atomic coordinate data resulting 
# from the CCDC's data processing and validation procedures.
#
#######################################################################

data_XIBQUW
_symmetry_cell_setting           orthorhombic
_symmetry_space_group_name_H-M   'P b c a'
_symmetry_Int_Tables_number      61
_space_group_name_Hall           '-P 2ac 2ab'
loop_
_symmetry_equiv_pos_site_id
_symmetry_equiv_pos_as_xyz
1 x,y,z
2 1/2-x,-y,1/2+z
3 1/2+x,1/2-y,-z
4 -x,1/2+y,1/2-z
5 -x,-y,-z
6 1/2+x,y,1/2-z
7 1/2-x,1/2+y,z
8 x,1/2-y,1/2+z
_cell_length_a                   21.746(5)
_cell_length_b                   14.338(3)
_cell_length_c                   23.216(5)
_cell_angle_alpha                90
_cell_angle_beta                 90
_cell_angle_gamma                90
_cell_volume                     7238.61
loop_
_atom_site_label
_atom_site_type_symbol
_atom_site_fract_x
_atom_site_fract_y
_atom_site_fract_z
Dy1 Dy 0.03112(4) 0.08077(5) 0.16393(4)
Dy2 Dy 0.10172(3) 0.33468(5) 0.28426(3)
C1 C 0.1661(9) 0.3603(14) 0.3834(9)
C2 C 0.3021(9) 0.3116(15) 0.4080(9)
H1 H 0.3411 0.3000 0.4262
H2 H 0.3060 0.3631 0.3819
H3 H 0.2895 0.2570 0.3872
C3 C 0.2662(10) 0.3445(16) 0.6118(9)
H4 H 0.2570 0.2857 0.6295
H5 H 0.2515 0.3942 0.6359
H6 H 0.3099 0.3504 0.6069
C4 C 0.1272(10) 0.3831(15) 0.5905(10)
C5 C 0.1923(9) 0.3561(14) 0.4411(9)
C6 C 0.2531(10) 0.3353(16) 0.4550(10)
C7 C 0.2350(10) 0.3498(15) 0.5537(10)
C8 C 0.1735(9) 0.3670(15) 0.5431(10)
C9 C 0.1536(9) 0.3728(14) 0.4876(9)
H7 H 0.1128 0.3884 0.4806
C10 C -0.0519(8) 0.3567(12) 0.3108(9)
C11 C -0.1900(8) 0.4070(11) 0.2982(9)
H8 H -0.2320 0.4089 0.2857
H9 H -0.1672 0.4558 0.2796
H10 H -0.1884 0.4157 0.3392
C12 C -0.2354(9) 0.1123(12) 0.2144(9)
H11 H -0.2588 0.0800 0.2432
H12 H -0.2174 0.0679 0.1884
H13 H -0.2619 0.1535 0.1933
C13 C -0.1054(9) 0.0463(11) 0.2352(9)
C14 C -0.1247(9) 0.1408(11) 0.2505(9)
C15 C -0.0832(9) 0.2032(12) 0.2735(8)
H14 H -0.0425 0.1849 0.2783
C16 C -0.1006(8) 0.2934(12) 0.2899(8)
C17 C -0.1626(8) 0.3147(11) 0.2831(9)
C18 C -0.1854(8) 0.1678(11) 0.2429(9)
C19 C 0.0143(9) 0.3069(12) 0.1640(9)
C20 C -0.0168(10) 0.3281(13) 0.0380(9)
H15 H 0.0249 0.3089 0.0451
H16 H -0.0193 0.3579 0.0011
H17 H -0.0432 0.2746 0.0385
C21 C -0.1292(10) 0.6105(13) 0.0711(9)
H18 H -0.1665 0.6150 0.0931
H19 H -0.1389 0.5909 0.0326
H20 H -0.1094 0.6702 0.0700
C22 C -0.0795(10) 0.6147(13) 0.1965(10)
C23 C -0.0362(10) 0.3942(13) 0.0832(9)
C24 C -0.0862(10) 0.5390(13) 0.0991(10)
C25 C -0.0682(10) 0.5394(13) 0.1563(9)
C26 C -0.0356(9) 0.4611(12) 0.1753(9)
H21 H -0.0244 0.4577 0.2139
C27 C -0.0191(9) 0.3880(13) 0.1389(9)
N1 N 0.2735(8) 0.3317(13) 0.5075(8)
N2 N -0.2036(5) 0.2540(8) 0.2608(6)
H22 H 0.1648 0.2891 0.1872
H23 H 0.2112 0.2679 0.2236
H24 H -0.0689 -0.0006 0.0999
N3 N -0.0680(8) 0.4697(9) 0.0595(7)
H25 H -0.0619 0.0902 0.1133
O1 O 0.1107(6) 0.3899(9) 0.3766(6)
O2 O 0.1947(6) 0.3312(9) 0.3415(6)
O3 O 0.1340(6) 0.3625(10) 0.6419(7)
O4 O 0.0762(6) 0.4222(10) 0.5750(6)
O5 O 0.1727(5) 0.2765(8) 0.2225(5)
O6 O 0.0026(6) 0.3282(8) 0.3108(6)
O7 O -0.0668(6) 0.4359(8) 0.3279(6)
O8 O -0.0500(6) 0.0331(8) 0.2176(6)
O9 O -0.1388(6) -0.0238(8) 0.2437(6)
O10 O -0.0432(6) 0.0438(8) 0.0982(6)
O11 O 0.0006(6) 0.2270(8) 0.1479(6)
O12 O 0.0533(6) 0.3248(8) 0.2008(6)
O13 O -0.0999(6) 0.6910(8) 0.1758(6)
O14 O -0.0676(6) 0.6063(8) 0.2485(6)
Dy1C Dy -0.03112(4) 0.58077(5) 0.33607(4)
Dy1G Dy 0.03112(4) 0.41923(5) 0.66393(4)
Dy2C Dy -0.10172(3) -0.16532(5) 0.21574(3)
Dy2C_2 Dy -0.10172(3) 0.83468(5) 0.21574(3)
O3G O 0.1340(6) 0.1375(10) 0.1419(7)
O4G O 0.0762(6) 0.0778(10) 0.0750(6)
O7C O 0.0668(6) -0.0641(8) 0.1721(6)
O9C O 0.1388(6) 0.4762(8) 0.2563(6)
O13C O 0.0999(6) 0.1910(8) 0.3242(6)
O14C O 0.0676(6) 0.1063(8) 0.2515(6)
loop_
_geom_bond_atom_site_label_1
_geom_bond_atom_site_label_2
_geom_bond_site_symmetry_1
_geom_bond_site_symmetry_2
Dy1 O8 1_555 1_555
Dy2 O1 1_555 1_555
C1 C5 1_555 1_555
C2 H1 1_555 1_555
H2 C2 1_555 1_555
H3 C2 1_555 1_555
C3 H4 1_555 1_555
H5 C3 1_555 1_555
H6 C3 1_555 1_555
C4 C8 1_555 1_555
C5 C6 1_555 1_555
C6 C2 1_555 1_555
C7 C3 1_555 1_555
C8 C7 1_555 1_555
C9 C5 1_555 1_555
H7 C9 1_555 1_555
C10 C16 1_555 1_555
C11 H8 1_555 1_555
H9 C11 1_555 1_555
H10 C11 1_555 1_555
C12 H11 1_555 1_555
H12 C12 1_555 1_555
H13 C12 1_555 1_555
C13 C14 1_555 1_555
C14 C15 1_555 1_555
C15 H14 1_555 1_555
C16 C15 1_555 1_555
C17 C11 1_555 1_555
C18 C12 1_555 1_555
C19 C27 1_555 1_555
C20 H15 1_555 1_555
H16 C20 1_555 1_555
H17 C20 1_555 1_555
C21 H18 1_555 1_555
H19 C21 1_555 1_555
H20 C21 1_555 1_555
C22 C25 1_555 1_555
C23 C20 1_555 1_555
C24 C21 1_555 1_555
C25 C24 1_555 1_555
C26 C25 1_555 1_555
H21 C26 1_555 1_555
C27 C23 1_555 1_555
N1 C6 1_555 1_555
N2 C17 1_555 1_555
H22 O5 1_555 1_555
H23 O5 1_555 1_555
H24 O10 1_555 1_555
N3 C23 1_555 1_555
H25 O10 1_555 1_555
O1 C1 1_555 1_555
O2 Dy2 1_555 1_555
O3 C4 1_555 1_555
O4 C4 1_555 1_555
O5 Dy2 1_555 1_555
O6 Dy2 1_555 1_555
O7 C10 1_555 1_555
O8 C13 1_555 1_555
O9 C13 1_555 1_555
O10 Dy1 1_555 1_555
O11 Dy1 1_555 1_555
O12 Dy2 1_555 1_555
O13 C22 1_555 1_555
O14 C22 1_555 1_555
Dy1C O7 1_555 1_555
Dy1G O3 1_555 1_555
Dy2C O9 1_555 1_555
Dy2C_2 O13 1_555 1_555
O3G Dy1 1_555 1_555
O4G Dy1 1_555 1_555
O7C Dy1 1_555 1_555
O9C Dy2 1_555 1_555
O13C Dy2 1_555 1_555
O14C Dy1 1_555 1_555
C1 O2 1_555 1_555
C7 N1 1_555 1_555
C8 C9 1_555 1_555
C10 O6 1_555 1_555
C14 C18 1_555 1_555
C16 C17 1_555 1_555
C18 N2 1_555 1_555
C19 O11 1_555 1_555
C19 O12 1_555 1_555
C24 N3 1_555 1_555
C26 C27 1_555 1_555
O4 Dy1G 1_555 1_555
O14 Dy1C 1_555 1_555

#END
