
#######################################################################
#
#                 Cambridge Crystallographic Data Centre
#                                CCDC 
#
#######################################################################
#
# If this CIF has been generated from an entry in the Cambridge 
# Structural Database, then it will include bibliographic, chemical, 
# crystal, experimental, refinement or atomic coordinate data resulting 
# from the CCDC's data processing and validation procedures.
#
#######################################################################

data_XIBSIM
_symmetry_cell_setting           triclinic
_symmetry_space_group_name_H-M   'P -1'
_symmetry_Int_Tables_number      2
_space_group_name_Hall           '-P 1'
loop_
_symmetry_equiv_pos_site_id
_symmetry_equiv_pos_as_xyz
1 x,y,z
2 -x,-y,-z
_cell_length_a                   11.3860(4)
_cell_length_b                   13.2636(5)
_cell_length_c                   17.5503(7)
_cell_angle_alpha                92.2240(10)
_cell_angle_beta                 94.5070(10)
_cell_angle_gamma                96.0580(10)
_cell_volume                     2624.52
loop_
_atom_site_label
_atom_site_type_symbol
_atom_site_fract_x
_atom_site_fract_y
_atom_site_fract_z
Zn1 Zn 0.0000 0.0000 0.5000
Zn2 Zn -0.07456(2) 0.25189(2) 0.518747(15)
Zn3 Zn 0.23217(2) 0.270332(19) 0.033881(15)
S1 S 0.43789(6) 0.29388(6) -0.06516(4)
S2 S -0.20947(6) 0.43381(5) 0.59314(4)
O1 O 0.19465(17) 0.15728(12) -0.04379(10)
O2 O 0.24025(16) 0.18569(13) 0.12324(9)
O3 O 0.00173(17) 0.22483(13) -0.38284(10)
O4 O -0.23366(16) 0.17886(14) 0.50122(12)
O5 O 0.00387(18) 0.29278(14) 0.42696(11)
O6 O -0.12061(17) 0.39282(14) 0.54304(11)
O7 O 0.40858(17) 0.31069(15) 0.01822(11)
O8 O 0.0400(2) 0.13844(15) 0.45004(12)
O9 O 0.0468(2) 0.06390(15) -0.39447(11)
O10 O -0.17847(19) 0.02242(16) 0.50979(18)
N1 N 0.16355(18) 0.36780(15) -0.04520(12)
N2 N 0.18026(17) 0.38549(14) 0.10504(11)
C1 C 0.0465(2) 0.21147(18) 0.40700(14)
C2 C 0.1008(2) 0.20584(18) 0.33347(14)
C3 C 0.1011(2) 0.28719(18) 0.28660(14)
C4 C 0.1490(2) 0.28280(17) 0.21534(14)
C5 C 0.1973(2) 0.19276(18) 0.18944(13)
C6 C 0.2004(2) 0.10924(17) 0.24019(13)
C7 C 0.1504(2) 0.11795(18) 0.30888(14)
C8 C 0.2599(2) 0.01487(17) 0.21685(14)
C9 C 0.2593(3) -0.0625(2) 0.27961(16)
C10 C 0.1945(3) -0.0380(2) 0.14343(17)
C11 C 0.3898(2) 0.0468(2) 0.20240(17)
C12 C 0.1408(2) 0.37212(17) 0.17129(13)
C13 C 0.1649(2) 0.47595(17) 0.06650(13)
C14 C 0.1600(2) 0.57047(18) 0.10346(15)
C15 C 0.1455(2) 0.65519(18) 0.06050(16)
C16 C 0.1366(2) 0.64602(19) -0.01899(16)
C17 C 0.1430(2) 0.55235(18) -0.05639(14)
C18 C 0.1570(2) 0.46669(17) -0.01385(14)
C19 C 0.1224(2) 0.34200(18) -0.11476(14)
C20 C 0.1218(2) 0.24365(17) -0.15227(14)
C21 C 0.0801(2) 0.23738(18) -0.23009(14)
C22 C 0.0771(2) 0.14821(18) -0.27365(13)
C23 C 0.1131(2) 0.06201(18) -0.23832(14)
C24 C 0.1520(2) 0.06166(17) -0.16157(14)
C25 C 0.1582(2) 0.15556(17) -0.11530(13)
C26 C 0.1873(2) -0.03514(18) -0.12478(14)
C27 C 0.0997(3) -0.0650(2) -0.06436(15)
C28 C 0.3137(3) -0.0186(2) -0.08690(18)
C29 C 0.1803(3) -0.1243(2) -0.18394(16)
C30 C 0.0388(2) 0.14399(18) -0.35678(14)
C31 C -0.2537(2) 0.08329(19) 0.50295(15)
C32 C -0.4716(2) 0.1002(2) 0.48212(17)
C33 C -0.3817(2) 0.04015(19) 0.50149(15)
C34 C -0.4102(2) -0.0599(2) 0.51941(18)
C35 C -0.2177(3) 0.3535(3) 0.67206(19)
C36 C -0.3522(3) 0.3939(3) 0.5450(2)
C37 C 0.5532(3) 0.2132(3) -0.0605(2)
C38 C 0.5237(4) 0.4087(3) -0.0847(3)
H1 H 0.129(3) 0.697(2) -0.0494(18)
H2 H 0.072(3) 0.350(2) 0.3058(16)
H3 H 0.141(3) 0.719(2) 0.0854(18)
H4 H 0.055(2) 0.303(2) -0.2491(16)
H5 H 0.100(3) 0.011(3) -0.267(2)
H6 H 0.155(3) 0.071(2) 0.3376(18)
H7 H 0.298(4) -0.033(3) 0.332(2)
H8 H 0.427(3) -0.008(3) 0.190(2)
H9 H 0.127(4) -0.062(3) 0.149(2)
H10 H 0.399(3) 0.090(2) 0.1561(17)
H11 H 0.178(3) -0.090(2) 0.2892(18)
H12 H 0.103(3) 0.427(2) 0.1972(18)
H13 H -0.449(3) 0.166(3) 0.468(2)
H14 H 0.301(3) -0.120(3) 0.261(2)
H15 H 0.131(3) 0.550(3) -0.1110(11)
H16 H 0.416(3) 0.072(3) 0.248(2)
H17 H 0.084(2) 0.390(2) -0.1438(16)
H18 H -0.347(4) -0.096(3) 0.534(2)
H19 H 0.224(3) -0.100(3) 0.125(2)
H20 H 0.188(3) -0.003(3) 0.105(2)
H21 H 0.177(3) 0.577(2) 0.1611(19)
H22 H 0.090(3) -0.009(2) -0.026(2)
H23 H 0.214(3) -0.178(3) -0.160(2)
H24 H 0.326(3) 0.036(2) -0.0516(18)
H25 H 0.113(4) -0.131(3) -0.041(2)
H26 H -0.366(3) 0.316(3) 0.534(2)
H27 H -0.357(4) 0.428(3) 0.498(3)
H28 H 0.353(4) -0.001(3) -0.115(3)
H29 H 0.619(4) 0.236(3) -0.023(2)
H30 H 0.102(4) -0.137(3) -0.211(3)
H31 H 0.236(3) -0.115(2) -0.2281(18)
H32 H 0.341(4) -0.081(3) -0.064(2)
H33 H 0.581(3) 0.211(3) -0.114(2)
H34 H 0.521(4) 0.141(3) -0.049(2)
H35 H -0.414(3) 0.417(3) 0.579(2)
H36 H 0.019(3) -0.080(3) -0.083(2)
H37 H -0.294(4) 0.373(3) 0.708(3)
H38 H 0.473(4) 0.465(3) -0.082(3)
H39 H -0.227(3) 0.274(3) 0.650(2)
H40 H -0.142(4) 0.372(3) 0.706(3)
H41 H 0.545(4) 0.406(4) -0.1375(14)
H42 H 0.607(3) 0.409(4) -0.040(4)
O4A O -0.76634(16) -0.17886(14) 0.49878(12)
O10A O -0.82153(19) -0.02242(16) 0.49021(18)
C31A C -0.7463(2) -0.08329(19) 0.49705(15)
C32A C -0.5284(2) -0.1002(2) 0.51788(17)
C33A C -0.6183(2) -0.04015(19) 0.49851(15)
C34A C -0.5898(2) 0.0599(2) 0.48059(18)
H13A H -0.551(3) -0.166(3) 0.532(2)
H18A H -0.653(4) 0.096(3) 0.466(2)
Zn2A Zn -0.92544(2) -0.25189(2) 0.481253(15)
Zn3A Zn -1.23217(2) -0.270332(19) 0.966119(15)
S1A S -1.43789(6) -0.29388(6) 1.06516(4)
S2A S -0.79053(6) -0.43381(5) 0.40686(4)
O1A O -1.19465(17) -0.15728(12) 1.04379(10)
O2A O -1.24025(16) -0.18569(13) 0.87676(9)
O3A O -1.00173(17) -0.22483(13) 1.38284(10)
O5A O -1.00387(18) -0.29278(14) 0.57304(11)
O6A O -0.87939(17) -0.39282(14) 0.45696(11)
O7A O -1.40858(17) -0.31069(15) 0.98178(11)
O8A O -1.0400(2) -0.13844(15) 0.54996(12)
O9A O -1.0468(2) -0.06390(15) 1.39447(11)
N1A N -1.16355(18) -0.36780(15) 1.04520(12)
N2A N -1.18026(17) -0.38549(14) 0.89496(11)
C1A C -1.0465(2) -0.21147(18) 0.59300(14)
C2A C -1.1008(2) -0.20584(18) 0.66653(14)
C3A C -1.1011(2) -0.28719(18) 0.71340(14)
C4A C -1.1490(2) -0.28280(17) 0.78466(14)
C5A C -1.1973(2) -0.19276(18) 0.81056(13)
C6A C -1.2004(2) -0.10924(17) 0.75981(13)
C7A C -1.1504(2) -0.11795(18) 0.69112(14)
C8A C -1.2599(2) -0.01487(17) 0.78315(14)
C9A C -1.2593(3) 0.0625(2) 0.72039(16)
C10A C -1.1945(3) 0.0380(2) 0.85657(17)
C11A C -1.3898(2) -0.0468(2) 0.79760(17)
C12A C -1.1408(2) -0.37212(17) 0.82871(13)
C13A C -1.1649(2) -0.47595(17) 0.93350(13)
C14A C -1.1600(2) -0.57047(18) 0.89654(15)
C15A C -1.1455(2) -0.65519(18) 0.93950(16)
C16A C -1.1366(2) -0.64602(19) 1.01899(16)
C17A C -1.1430(2) -0.55235(18) 1.05639(14)
C18A C -1.1570(2) -0.46669(17) 1.01385(14)
C19A C -1.1224(2) -0.34200(18) 1.11476(14)
C20A C -1.1218(2) -0.24365(17) 1.15227(14)
C21A C -1.0801(2) -0.23738(18) 1.23009(14)
C22A C -1.0771(2) -0.14821(18) 1.27365(13)
C23A C -1.1131(2) -0.06201(18) 1.23832(14)
C24A C -1.1520(2) -0.06166(17) 1.16157(14)
C25A C -1.1582(2) -0.15556(17) 1.11530(13)
C26A C -1.1873(2) 0.03514(18) 1.12478(14)
C27A C -1.0997(3) 0.0650(2) 1.06436(15)
C28A C -1.3137(3) 0.0186(2) 1.08690(18)
C29A C -1.1803(3) 0.1243(2) 1.18394(16)
C30A C -1.0388(2) -0.14399(18) 1.35678(14)
C35A C -0.7823(3) -0.3535(3) 0.32794(19)
C36A C -0.6478(3) -0.3939(3) 0.4550(2)
C37A C -1.5532(3) -0.2132(3) 1.0605(2)
C38A C -1.5237(4) -0.4087(3) 1.0847(3)
H1A H -1.129(3) -0.697(2) 1.0494(18)
H2A H -1.072(3) -0.350(2) 0.6942(16)
H3A H -1.141(3) -0.719(2) 0.9146(18)
H4A H -1.055(2) -0.303(2) 1.2491(16)
H5A H -1.100(3) -0.011(3) 1.267(2)
H6A H -1.155(3) -0.071(2) 0.6624(18)
H7A H -1.298(4) 0.033(3) 0.668(2)
H8A H -1.427(3) 0.008(3) 0.810(2)
H9A H -1.127(4) 0.062(3) 0.851(2)
H10A H -1.399(3) -0.090(2) 0.8439(17)
H11A H -1.178(3) 0.090(2) 0.7108(18)
H12A H -1.103(3) -0.427(2) 0.8028(18)
H14A H -1.301(3) 0.120(3) 0.739(2)
H15A H -1.131(3) -0.550(3) 1.1110(11)
H16A H -1.416(3) -0.072(3) 0.752(2)
H17A H -1.084(2) -0.390(2) 1.1438(16)
H19A H -1.224(3) 0.100(3) 0.875(2)
H20A H -1.188(3) 0.003(3) 0.895(2)
H21A H -1.177(3) -0.577(2) 0.8389(19)
H22A H -1.090(3) 0.009(2) 1.026(2)
H23A H -1.214(3) 0.178(3) 1.160(2)
H24A H -1.326(3) -0.036(2) 1.0516(18)
H25A H -1.113(4) 0.131(3) 1.041(2)
H26A H -0.634(3) -0.316(3) 0.466(2)
H27A H -0.643(4) -0.428(3) 0.502(3)
H28A H -1.353(4) 0.001(3) 1.115(3)
H29A H -1.619(4) -0.236(3) 1.023(2)
H30A H -1.102(4) 0.137(3) 1.211(3)
H31A H -1.236(3) 0.115(2) 1.2281(18)
H32A H -1.341(4) 0.081(3) 1.064(2)
H33A H -1.581(3) -0.211(3) 1.114(2)
H34A H -1.521(4) -0.141(3) 1.049(2)
H35A H -0.586(3) -0.417(3) 0.421(2)
H36A H -1.019(3) 0.080(3) 1.083(2)
H37A H -0.706(4) -0.373(3) 0.292(3)
H38A H -1.473(4) -0.465(3) 1.082(3)
H39A H -0.773(3) -0.274(3) 0.350(2)
H40A H -0.858(4) -0.372(3) 0.294(3)
H41A H -1.545(4) -0.406(4) 1.1375(14)
H42A H -1.607(3) -0.409(4) 1.040(4)
Zn1_2 Zn -1.0000 0.0000 0.5000
Zn1_3 Zn -1.0000 0.0000 1.5000
Zn1_4 Zn 0.0000 0.0000 -0.5000
Zn2_2 Zn -0.07456(2) 0.25189(2) -0.481253(15)
Zn2A_2 Zn -0.92544(2) -0.25189(2) 1.481253(15)
O3_2 O 0.00173(17) 0.22483(13) 0.61716(10)
O3A_2 O -1.00173(17) -0.22483(13) 0.38284(10)
O8A_2 O -0.0400(2) -0.13844(15) 0.54996(12)
O9_2 O 0.0468(2) 0.06390(15) 0.60553(11)
O9A_2 O -0.0468(2) -0.06390(15) 0.39447(11)
O10A_2 O 0.17847(19) -0.02242(16) 0.49021(18)
S3 S 0.16721(6) 0.50810(5) -0.28724(4)
O11 O 0.0439(2) 0.49812(16) -0.26036(13)
C39 C 0.2055(3) 0.6398(2) -0.3032(2)
C40 C 0.1515(3) 0.4651(2) -0.38535(18)
H43 H 0.280(4) 0.652(3) -0.326(2)
H44 H 0.221(4) 0.685(4) -0.259(3)
H45 H 0.137(3) 0.666(2) -0.3396(19)
H46 H 0.106(4) 0.499(4) -0.419(3)
H47 H 0.235(3) 0.475(2) -0.410(2)
S4 S 0.43561(7) 0.41361(6) 0.30904(5)
O12 O 0.5463(2) 0.46919(18) 0.34922(17)
C41 C 0.4759(4) 0.3573(3) 0.2215(2)
C42 C 0.4108(4) 0.2994(3) 0.3580(2)
H48 H 0.482(2) 0.271(3) 0.360(2)
H49 H 0.397(4) 0.318(3) 0.4076(13)
H50 H 0.370(6) 0.239(3) 0.337(4)
H51 H 0.409(5) 0.322(4) 0.194(3)
H52 H 0.536(4) 0.306(3) 0.238(2)
H53 H 0.507(5) 0.403(4) 0.184(3)
S5 S 0.3897(2) 0.2221(2) -0.27791(17)
O13 O 0.5295(3) 0.2577(3) -0.24397(18)
C43 C 0.3498(5) 0.2888(4) -0.3454(6)
C44 C 0.3916(4) 0.1013(3) -0.3106(2)
H54 H 0.328(5) 0.082(4) -0.346(3)
H55 H 0.453(5) 0.075(4) -0.322(3)
S6? S 0.47168(11) 0.22730(10) -0.31761(8)
loop_
_geom_bond_atom_site_label_1
_geom_bond_atom_site_label_2
_geom_bond_site_symmetry_1
_geom_bond_site_symmetry_2
Zn1 O8 1_555 1_555
Zn2 O4 1_555 1_555
Zn3 O1 1_555 1_555
S1 O7 1_555 1_555
S2 O6 1_555 1_555
O1 C25 1_555 1_555
O2 Zn3 1_555 1_555
O3 C30 1_555 1_555
O4 C31 1_555 1_555
O5 Zn2 1_555 1_555
O6 Zn2 1_555 1_555
O7 Zn3 1_555 1_555
O8 Zn2 1_555 1_555
O9 C30 1_555 1_555
O10 Zn1 1_555 1_555
N1 Zn3 1_555 1_555
N2 Zn3 1_555 1_555
C1 O5 1_555 1_555
C2 C1 1_555 1_555
C3 C2 1_555 1_555
C4 C3 1_555 1_555
C5 O2 1_555 1_555
C6 C5 1_555 1_555
C7 C2 1_555 1_555
C8 C6 1_555 1_555
C9 C8 1_555 1_555
C10 C8 1_555 1_555
C11 C8 1_555 1_555
C12 N2 1_555 1_555
C13 N2 1_555 1_555
C14 C13 1_555 1_555
C15 C14 1_555 1_555
C16 C15 1_555 1_555
C17 C16 1_555 1_555
C18 N1 1_555 1_555
C19 N1 1_555 1_555
C20 C19 1_555 1_555
C21 C20 1_555 1_555
C22 C21 1_555 1_555
C23 C22 1_555 1_555
C24 C23 1_555 1_555
C25 C20 1_555 1_555
C26 C24 1_555 1_555
C27 C26 1_555 1_555
C28 C26 1_555 1_555
C29 C26 1_555 1_555
C30 C22 1_555 1_555
C31 O10 1_555 1_555
C32 C33 1_555 1_555
C33 C31 1_555 1_555
C34 C33 1_555 1_555
C35 S2 1_555 1_555
C36 S2 1_555 1_555
C37 S1 1_555 1_555
C38 S1 1_555 1_555
H1 C16 1_555 1_555
H2 C3 1_555 1_555
H3 C15 1_555 1_555
H4 C21 1_555 1_555
H5 C23 1_555 1_555
H6 C7 1_555 1_555
H7 C9 1_555 1_555
H8 C11 1_555 1_555
H9 C10 1_555 1_555
H10 C11 1_555 1_555
H11 C9 1_555 1_555
H12 C12 1_555 1_555
H13 C32 1_555 1_555
H14 C9 1_555 1_555
H15 C17 1_555 1_555
H16 C11 1_555 1_555
H17 C19 1_555 1_555
H18 C34 1_555 1_555
H19 C10 1_555 1_555
H20 C10 1_555 1_555
H21 C14 1_555 1_555
H22 C27 1_555 1_555
H23 C29 1_555 1_555
H24 C28 1_555 1_555
H25 C27 1_555 1_555
H26 C36 1_555 1_555
H27 C36 1_555 1_555
H28 C28 1_555 1_555
H29 C37 1_555 1_555
H30 C29 1_555 1_555
H31 C29 1_555 1_555
H32 C28 1_555 1_555
H33 C37 1_555 1_555
H34 C37 1_555 1_555
H35 C36 1_555 1_555
H36 C27 1_555 1_555
H37 C35 1_555 1_555
H38 C38 1_555 1_555
H39 C35 1_555 1_555
H40 C35 1_555 1_555
H41 C38 1_555 1_555
H42 C38 1_555 1_555
S3 O11 1_555 1_555
C39 S3 1_555 1_555
C40 S3 1_555 1_555
H43 C39 1_555 1_555
H44 C39 1_555 1_555
H45 C39 1_555 1_555
H46 C40 1_555 1_555
H47 C40 1_555 1_555
S4 O12 1_555 1_555
C41 S4 1_555 1_555
C42 S4 1_555 1_555
H48 C42 1_555 1_555
H49 C42 1_555 1_555
H50 C42 1_555 1_555
H51 C41 1_555 1_555
H52 C41 1_555 1_555
H53 C41 1_555 1_555
S5 O13 1_555 1_555
C43 S5 1_555 1_555
C44 S5 1_555 1_555
H54 C44 1_555 1_555
H55 C44 1_555 1_555
O4A C31A 1_555 1_555
O10A C31A 1_555 1_555
C31A C33A 1_555 1_555
C32A C34 1_555 1_555
C33A C32A 1_555 1_555
C34A C32 1_555 1_555
H13A C32A 1_555 1_555
H18A C34A 1_555 1_555
Zn2A O4A 1_555 1_555
Zn3A O1A 1_555 1_555
S1A O7A 1_555 1_555
S2A O6A 1_555 1_555
O1A C25A 1_555 1_555
O2A Zn3A 1_555 1_555
O3A C30A 1_555 1_555
O5A Zn2A 1_555 1_555
O6A Zn2A 1_555 1_555
O7A Zn3A 1_555 1_555
O8A Zn2A 1_555 1_555
O9A C30A 1_555 1_555
N1A Zn3A 1_555 1_555
N2A Zn3A 1_555 1_555
C1A O5A 1_555 1_555
C2A C1A 1_555 1_555
C3A C2A 1_555 1_555
C4A C3A 1_555 1_555
C5A O2A 1_555 1_555
C6A C5A 1_555 1_555
C7A C2A 1_555 1_555
C8A C6A 1_555 1_555
C9A C8A 1_555 1_555
C10A C8A 1_555 1_555
C11A C8A 1_555 1_555
C12A N2A 1_555 1_555
C13A N2A 1_555 1_555
C14A C13A 1_555 1_555
C15A C14A 1_555 1_555
C16A C15A 1_555 1_555
C17A C16A 1_555 1_555
C18A N1A 1_555 1_555
C19A N1A 1_555 1_555
C20A C19A 1_555 1_555
C21A C20A 1_555 1_555
C22A C21A 1_555 1_555
C23A C22A 1_555 1_555
C24A C23A 1_555 1_555
C25A C20A 1_555 1_555
C26A C24A 1_555 1_555
C27A C26A 1_555 1_555
C28A C26A 1_555 1_555
C29A C26A 1_555 1_555
C30A C22A 1_555 1_555
C35A S2A 1_555 1_555
C36A S2A 1_555 1_555
C37A S1A 1_555 1_555
C38A S1A 1_555 1_555
H1A C16A 1_555 1_555
H2A C3A 1_555 1_555
H3A C15A 1_555 1_555
H4A C21A 1_555 1_555
H5A C23A 1_555 1_555
H6A C7A 1_555 1_555
H7A C9A 1_555 1_555
H8A C11A 1_555 1_555
H9A C10A 1_555 1_555
H10A C11A 1_555 1_555
H11A C9A 1_555 1_555
H12A C12A 1_555 1_555
H14A C9A 1_555 1_555
H15A C17A 1_555 1_555
H16A C11A 1_555 1_555
H17A C19A 1_555 1_555
H19A C10A 1_555 1_555
H20A C10A 1_555 1_555
H21A C14A 1_555 1_555
H22A C27A 1_555 1_555
H23A C29A 1_555 1_555
H24A C28A 1_555 1_555
H25A C27A 1_555 1_555
H26A C36A 1_555 1_555
H27A C36A 1_555 1_555
H28A C28A 1_555 1_555
H29A C37A 1_555 1_555
H30A C29A 1_555 1_555
H31A C29A 1_555 1_555
H32A C28A 1_555 1_555
H33A C37A 1_555 1_555
H34A C37A 1_555 1_555
H35A C36A 1_555 1_555
H36A C27A 1_555 1_555
H37A C35A 1_555 1_555
H38A C38A 1_555 1_555
H39A C35A 1_555 1_555
H40A C35A 1_555 1_555
H41A C38A 1_555 1_555
H42A C38A 1_555 1_555
Zn1_2 O10A 1_555 1_555
Zn1_3 O9A 1_555 1_555
Zn1_4 O9 1_555 1_555
Zn2_2 O3 1_555 1_555
Zn2A_2 O3A 1_555 1_555
O3_2 Zn2 1_555 1_555
O3A_2 Zn2A 1_555 1_555
O8A_2 Zn1 1_555 1_555
O9_2 Zn1 1_555 1_555
O9A_2 Zn1 1_555 1_555
O10A_2 Zn1 1_555 1_555
O8 C1 1_555 1_555
C4 C5 1_555 1_555
C4 C12 1_555 1_555
C6 C7 1_555 1_555
C13 C18 1_555 1_555
C17 C18 1_555 1_555
C24 C25 1_555 1_555
C33A C34A 1_555 1_555
O8A C1A 1_555 1_555
O8A Zn1_2 1_555 1_555
C4A C5A 1_555 1_555
C4A C12A 1_555 1_555
C6A C7A 1_555 1_555
C13A C18A 1_555 1_555
C17A C18A 1_555 1_555
C24A C25A 1_555 1_555

#END
