
#######################################################################
#
#                 Cambridge Crystallographic Data Centre
#                                CCDC 
#
#######################################################################
#
# If this CIF has been generated from an entry in the Cambridge 
# Structural Database, then it will include bibliographic, chemical, 
# crystal, experimental, refinement or atomic coordinate data resulting 
# from the CCDC's data processing and validation procedures.
#
#######################################################################

data_XIBWOW
_symmetry_cell_setting           triclinic
_symmetry_space_group_name_H-M   'P -1'
_symmetry_Int_Tables_number      2
_space_group_name_Hall           '-P 1'
loop_
_symmetry_equiv_pos_site_id
_symmetry_equiv_pos_as_xyz
1 x,y,z
2 -x,-y,-z
_cell_length_a                   10.1381(9)
_cell_length_b                   10.3036(9)
_cell_length_c                   12.7118(11)
_cell_angle_alpha                80.201(2)
_cell_angle_beta                 71.4200(10)
_cell_angle_gamma                72.3350(10)
_cell_volume                     1195.33
loop_
_atom_site_label
_atom_site_type_symbol
_atom_site_fract_x
_atom_site_fract_y
_atom_site_fract_z
C1 C -0.6789(3) 1.2731(3) 0.4156(3)
C2 C -0.1845(3) 1.1914(3) 0.4685(2)
C3 C -0.3114(3) 1.2839(3) 0.4297(2)
C4 C -0.4271(3) 1.2333(3) 0.4353(2)
H1 H -0.4247 1.1426 0.4605
C5 C -0.5458(3) 1.3188(3) 0.4031(3)
C6 C -0.5467(3) 1.4530(3) 0.3636(3)
H2 H -0.6260 1.5102 0.3422
C7 C -0.4302(3) 1.5037(3) 0.3556(3)
C8 C -0.4441(3) 1.6502(3) 0.3159(3)
C9 C -0.3131(3) 1.4190(3) 0.3901(3)
H3 H -0.2362 1.4524 0.3867
C10 C 0.2391(3) 1.0213(3) 0.2524(3)
H4 H 0.2872 0.9545 0.2964
C11 C 0.2685(4) 1.0004(4) 0.1411(3)
C12 C 0.4314(4) 0.8352(4) 0.0026(3)
C13 C 0.5450(4) 0.7000(4) 0.0013(3)
H5 H 0.5023 0.6346 0.0550
H6 H 0.6221 0.7122 0.0251
C14 C 0.6099(4) 0.6408(4) -0.1114(3)
H7 H 0.5337 0.6273 -0.1357
H8 H 0.6539 0.7051 -0.1656
C15 C 0.7221(4) 0.5062(4) -0.1065(3)
C16 C 0.9115(3) 0.3375(3) -0.2305(3)
C17 C 0.9664(3) 0.3095(3) -0.3413(3)
H9 H 0.9375 0.3764 -0.3945
C18 C 1.1039(4) 0.0956(3) -0.2987(3)
H10 H 1.1694 0.0131 -0.3214
C19 C 1.0553(4) 0.1172(4) -0.1873(3)
H11 H 1.0891 0.0499 -0.1362
C20 C 0.9572(4) 0.2374(4) -0.1508(3)
H12 H 0.9222 0.2517 -0.0754
C21 C 0.1968(4) 1.0998(4) 0.0749(3)
H13 H 0.2134 1.0891 0.0002
C22 C 0.1002(4) 1.2148(4) 0.1236(3)
H14 H 0.0506 1.2831 0.0813
C23 C 0.0769(4) 1.2288(3) 0.2339(3)
H15 H 0.0118 1.3074 0.2650
N1 N 0.1457(3) 1.1322(3) 0.2990(2)
N2 N 0.3706(4) 0.8784(3) 0.1049(2)
H16 H 0.3985 0.8224 0.1568
N3 N 0.8104(3) 0.4649(3) -0.2065(2)
H17 H 0.8041 0.5238 -0.2627
N4 N 1.0591(3) 0.1905(3) -0.3754(2)
O1 O -0.7902(2) 1.3613(2) 0.4035(2)
O2 O -0.6737(2) 1.1474(2) 0.43849(19)
O3 O -0.0890(2) 1.2495(2) 0.46583(19)
O4 O -0.3394(3) 1.6995(2) 0.3186(2)
O5 O -0.5482(3) 1.7195(2) 0.2861(2)
O6 O -0.1813(2) 1.0709(2) 0.4979(2)
O7 O 0.3975(4) 0.8985(3) -0.0792(2)
O8 O 0.7286(4) 0.4394(3) -0.0188(3)
Cu1 Cu 0.11098(3) 1.15538(4) 0.46266(3)
N4_2 N 0.0591(3) 1.1905(3) 0.6246(2)
O1_2 O 0.2098(2) 1.3613(2) 0.4035(2)
O2_2 O 0.3263(2) 1.1474(2) 0.43849(19)
O6A O 0.1813(2) 0.9291(2) 0.5021(2)
Cu1_2 Cu -0.88902(3) 1.15538(4) 0.46266(3)
Cu1_3 Cu 1.11098(3) 0.15538(4) -0.53734(3)
Cu1A Cu -0.11098(3) 0.84462(4) 0.53734(3)
O9 O 0.4282(3) 0.0302(2) 0.7060(2)
H18 H 0.4996 -0.0263 0.6670
H19 H 0.4149 -0.0017 0.7737
O10 O 0.8722(19) 0.534(2) 0.1109(15)
H20 H 0.8261 0.5030 0.0799
H21 H 0.8109 0.5894 0.1567
loop_
_geom_bond_atom_site_label_1
_geom_bond_atom_site_label_2
_geom_bond_site_symmetry_1
_geom_bond_site_symmetry_2
C1 C5 1_555 1_555
C2 C3 1_555 1_555
C3 C4 1_555 1_555
C4 H1 1_555 1_555
C5 C4 1_555 1_555
C6 C5 1_555 1_555
H2 C6 1_555 1_555
C7 C6 1_555 1_555
C8 C7 1_555 1_555
C9 C3 1_555 1_555
H3 C9 1_555 1_555
C10 H4 1_555 1_555
C11 C10 1_555 1_555
C12 C13 1_555 1_555
C13 H5 1_555 1_555
H6 C13 1_555 1_555
C14 C13 1_555 1_555
H7 C14 1_555 1_555
H8 C14 1_555 1_555
C15 C14 1_555 1_555
C16 C17 1_555 1_555
C17 H9 1_555 1_555
C18 H10 1_555 1_555
C19 C18 1_555 1_555
H11 C19 1_555 1_555
C20 C16 1_555 1_555
H12 C20 1_555 1_555
C21 C11 1_555 1_555
H13 C21 1_555 1_555
C22 C21 1_555 1_555
H14 C22 1_555 1_555
C23 C22 1_555 1_555
H15 C23 1_555 1_555
N1 C10 1_555 1_555
N2 C11 1_555 1_555
H16 N2 1_555 1_555
N3 C15 1_555 1_555
H17 N3 1_555 1_555
N4 C17 1_555 1_555
O1 C1 1_555 1_555
O2 C1 1_555 1_555
O3 C2 1_555 1_555
O4 C8 1_555 1_555
O5 C8 1_555 1_555
O6 C2 1_555 1_555
O7 C12 1_555 1_555
O8 C15 1_555 1_555
Cu1 N1 1_555 1_555
O9 H18 1_555 1_555
H19 O9 1_555 1_555
O10 H20 1_555 1_555
H21 O10 1_555 1_555
N4_2 Cu1 1_555 1_555
O1_2 Cu1 1_555 1_555
O2_2 Cu1 1_555 1_555
O6A Cu1 1_555 1_555
Cu1_2 O1 1_555 1_555
Cu1_3 N4 1_555 1_555
Cu1A O6 1_555 1_555
C7 C9 1_555 1_555
C12 N2 1_555 1_555
C16 N3 1_555 1_555
C18 N4 1_555 1_555
C19 C20 1_555 1_555
C23 N1 1_555 1_555
O2 Cu1_2 1_555 1_555
O3 Cu1 1_555 1_555

#END
