
#######################################################################
#
#                 Cambridge Crystallographic Data Centre
#                                CCDC 
#
#######################################################################
#
# If this CIF has been generated from an entry in the Cambridge 
# Structural Database, then it will include bibliographic, chemical, 
# crystal, experimental, refinement or atomic coordinate data resulting 
# from the CCDC's data processing and validation procedures.
#
#######################################################################

data_XIBWIO
_symmetry_cell_setting           triclinic
_symmetry_space_group_name_H-M   'P -1'
_symmetry_Int_Tables_number      2
_space_group_name_Hall           '-P 1'
loop_
_symmetry_equiv_pos_site_id
_symmetry_equiv_pos_as_xyz
1 x,y,z
2 -x,-y,-z
_cell_length_a                   6.7682(10)
_cell_length_b                   7.4409(10)
_cell_length_c                   18.046(3)
_cell_angle_alpha                83.144(10)
_cell_angle_beta                 81.436(10)
_cell_angle_gamma                75.624(10)
_cell_volume                     867.323
loop_
_atom_site_label
_atom_site_type_symbol
_atom_site_fract_x
_atom_site_fract_y
_atom_site_fract_z
Li1 Li 0.6595(6) 0.1949(5) 0.0408(2)
O1 O 0.7435(3) 0.1078(3) -0.05592(10)
H1 H 0.735(5) -0.001(3) -0.057(2)
H2 H 0.831(4) 0.128(4) -0.0915(15)
O2 O 0.3619(3) 0.2437(3) 0.04097(10)
H3 H 0.272(4) 0.304(4) 0.0705(14)
H4 H 0.320(5) 0.280(4) -0.0001(13)
N1 N 0.7509(3) -0.3221(2) 0.11274(9)
S1 S 0.78199(9) -0.17210(7) 0.16320(3)
S2 S 0.82676(9) -0.54182(7) 0.12885(3)
O3 O 0.7164(3) 0.0053(2) 0.12138(9)
O4 O 0.9842(2) -0.2117(2) 0.18630(8)
O5 O 0.7848(3) -0.6152(2) 0.06354(8)
O6 O 1.0341(2) -0.6051(2) 0.14772(9)
C1 C 0.6036(4) -0.1737(3) 0.24576(12)
C2 C 0.6679(4) -0.2631(3) 0.31309(12)
H5 H 0.8096 -0.3158 0.3165
C3 C 0.5233(4) -0.2744(3) 0.37522(12)
H6 H 0.5658 -0.3354 0.4215
C4 C 0.3156(4) -0.1968(3) 0.37012(12)
C5 C 0.2534(4) -0.1041(3) 0.30254(12)
H7 H 0.1120 -0.0491 0.2993
C6 C 0.3973(4) -0.0921(3) 0.24024(12)
H8 H 0.3556 -0.0288 0.1942
C7 C 0.1579(4) -0.2149(3) 0.43528(13)
C8 C 0.6611(4) -0.6081(3) 0.20759(12)
C9 C 0.7410(4) -0.7135(3) 0.27001(12)
H9 H 0.8853 -0.7565 0.2702
C10 C 0.6069(4) -0.7547(3) 0.33188(12)
H10 H 0.6591 -0.8285 0.3746
C11 C 0.3958(4) -0.6882(3) 0.33154(12)
C12 C 0.3187(4) -0.5845(3) 0.26792(12)
H11 H 0.1744 -0.5410 0.2676
C13 C 0.4506(4) -0.5448(3) 0.20566(12)
H12 H 0.3985 -0.4754 0.1622
C14 C 0.2457(4) -0.7201(3) 0.39768(13)
O7 O -0.0254(3) -0.1342(2) 0.43316(9)
O8 O 0.2258(3) -0.3200(3) 0.49325(10)
H13 H 0.109(5) -0.320(6) 0.532(2)
O9 O 0.0595(3) -0.6488(3) 0.39625(10)
O10 O 0.3203(3) -0.8217(2) 0.45535(9)
H14 H 0.209(5) -0.838(5) 0.495(2)
O5_2 O 0.7848(3) 0.3848(2) 0.06354(8)
Li1_2 Li 0.6595(6) -0.8051(5) 0.0408(2)
loop_
_geom_bond_atom_site_label_1
_geom_bond_atom_site_label_2
_geom_bond_site_symmetry_1
_geom_bond_site_symmetry_2
Li1 O1 1_555 1_555
O1 H1 1_555 1_555
H2 O1 1_555 1_555
O2 Li1 1_555 1_555
H3 O2 1_555 1_555
H4 O2 1_555 1_555
N1 S1 1_555 1_555
S1 O3 1_555 1_555
S2 N1 1_555 1_555
O3 Li1 1_555 1_555
O4 S1 1_555 1_555
O5 S2 1_555 1_555
O6 S2 1_555 1_555
C1 S1 1_555 1_555
C2 C1 1_555 1_555
H5 C2 1_555 1_555
C3 C2 1_555 1_555
H6 C3 1_555 1_555
C4 C3 1_555 1_555
C5 C4 1_555 1_555
H7 C5 1_555 1_555
C6 C1 1_555 1_555
H8 C6 1_555 1_555
C7 C4 1_555 1_555
C8 S2 1_555 1_555
C9 C8 1_555 1_555
H9 C9 1_555 1_555
C10 C9 1_555 1_555
H10 C10 1_555 1_555
C11 C10 1_555 1_555
C12 C11 1_555 1_555
H11 C12 1_555 1_555
C13 C8 1_555 1_555
H12 C13 1_555 1_555
C14 C11 1_555 1_555
O7 C7 1_555 1_555
O8 C7 1_555 1_555
H13 O8 1_555 1_555
O9 C14 1_555 1_555
O10 C14 1_555 1_555
H14 O10 1_555 1_555
O5_2 Li1 1_555 1_555
Li1_2 O5 1_555 1_555
C5 C6 1_555 1_555
C12 C13 1_555 1_555

#END
