
#######################################################################
#
#                 Cambridge Crystallographic Data Centre
#                                CCDC 
#
#######################################################################
#
# If this CIF has been generated from an entry in the Cambridge 
# Structural Database, then it will include bibliographic, chemical, 
# crystal, experimental, refinement or atomic coordinate data resulting 
# from the CCDC's data processing and validation procedures.
#
#######################################################################

data_XIBWEM
_symmetry_cell_setting           monoclinic
_symmetry_space_group_name_H-M   'P 21/m'
_symmetry_Int_Tables_number      11
_space_group_name_Hall           '-P 2yb'
loop_
_symmetry_equiv_pos_site_id
_symmetry_equiv_pos_as_xyz
1 x,y,z
2 -x,1/2+y,-z
3 -x,-y,-z
4 x,1/2-y,z
_cell_length_a                   10.4014(2)
_cell_length_b                   16.5049(3)
_cell_length_c                   12.6499(2)
_cell_angle_alpha                90
_cell_angle_beta                 92.9894(17)
_cell_angle_gamma                90
_cell_volume                     2168.7
loop_
_atom_site_label
_atom_site_type_symbol
_atom_site_fract_x
_atom_site_fract_y
_atom_site_fract_z
W1 W 0.82010(3) 0.2500 0.11901(3)
S1 S 0.99685(19) 0.2500 0.02512(15)
S2 S 0.70065(13) 0.36056(9) 0.07808(10)
S3 S 0.8710(2) 0.2500 0.29217(15)
Cu1 Cu 0.86445(9) 0.35296(6) -0.04012(7)
Cu2 Cu 0.59426(13) 0.2500 0.00208(13)
Cu3 Cu 0.71202(9) 0.34711(5) 0.26190(6)
I1 I 0.72151(6) 0.2500 -0.19990(4)
I2 I 0.36196(5) 0.2500 -0.04844(5)
I3 I 0.50060(5) 0.2500 0.30392(4)
N1 N 0.6938(5) 0.4401(3) 0.3567(4)
N2 N 0.6329(5) 0.5115(3) 0.3311(4)
N3 N 0.1492(5) 0.4860(3) 0.1481(4)
N4 N 0.0863(5) 0.5584(3) 0.1334(4)
C1 C 0.8021(8) 0.3793(5) 0.5155(5)
H1 H 0.7481 0.3306 0.5123
H2 H 0.8207 0.3944 0.5897
H3 H 0.8829 0.3683 0.4817
C2 C 0.7339(7) 0.4461(4) 0.4599(5)
C3 C 0.6982(8) 0.5215(4) 0.4981(5)
H4 H 0.7160 0.5417 0.5676
C4 C 0.6329(8) 0.5612(4) 0.4174(6)
C5 C 0.5700(10) 0.6417(5) 0.4098(7)
H5 H 0.4808 0.6353 0.3824
H6 H 0.6166 0.6764 0.3619
H7 H 0.5712 0.6667 0.4802
C6 C 0.5691(6) 0.5239(4) 0.2288(5)
H8 H 0.6239 0.5020 0.1739
H9 H 0.5596 0.5829 0.2163
C7 C 0.4372(6) 0.4845(4) 0.2168(5)
H10 H 0.4449 0.4259 0.2321
H11 H 0.3796 0.5087 0.2681
C8 C 0.3802(6) 0.4967(5) 0.1057(5)
H12 H 0.4416 0.4745 0.0560
H13 H 0.3740 0.5557 0.0924
C9 C 0.2490(7) 0.4596(4) 0.0782(5)
H14 H 0.2221 0.4742 0.0044
H15 H 0.2564 0.3999 0.0819
C10 C 0.1559(6) 0.3642(4) 0.2649(5)
H16 H 0.2489 0.3682 0.2811
H17 H 0.1394 0.3250 0.2076
H18 H 0.1133 0.3462 0.3280
C11 C 0.1046(6) 0.4452(4) 0.2312(5)
C12 C 0.0090(6) 0.4917(4) 0.2703(5)
H19 H -0.0422 0.4786 0.3280
C13 C 0.0015(6) 0.5616(4) 0.2091(5)
C14 C -0.0841(8) 0.6323(5) 0.2214(6)
H20 H -0.1363 0.6407 0.1555
H21 H -0.0319 0.6806 0.2372
H22 H -0.1407 0.6222 0.2795
S2B S 0.29935(13) 0.63944(9) -0.07808(10)
Cu1B Cu 0.13555(9) 0.64704(6) 0.04012(7)
Cu3B Cu 0.28798(9) 0.65289(5) -0.26190(6)
N1B N 0.3062(5) 0.5599(3) -0.3567(4)
N2B N 0.3671(5) 0.4885(3) -0.3311(4)
N3B N 0.8508(5) 0.5140(3) -0.1481(4)
N4B N 0.9137(5) 0.4416(3) -0.1334(4)
C1B C 0.1979(8) 0.6207(5) -0.5155(5)
H1B H 0.2519 0.6694 -0.5123
H2B H 0.1793 0.6056 -0.5897
H3B H 0.1171 0.6317 -0.4817
C2B C 0.2661(7) 0.5539(4) -0.4599(5)
C3B C 0.3018(8) 0.4785(4) -0.4981(5)
H4B H 0.2840 0.4583 -0.5676
C4B C 0.3671(8) 0.4388(4) -0.4174(6)
C5B C 0.4300(10) 0.3583(5) -0.4098(7)
H5B H 0.5192 0.3647 -0.3824
H6B H 0.3834 0.3236 -0.3619
H7B H 0.4288 0.3333 -0.4802
C6B C 0.4309(6) 0.4761(4) -0.2288(5)
H8B H 0.3761 0.4980 -0.1739
H9B H 0.4404 0.4171 -0.2163
C7B C 0.5628(6) 0.5155(4) -0.2168(5)
H10B H 0.5551 0.5741 -0.2321
H11B H 0.6204 0.4913 -0.2681
C8B C 0.6198(6) 0.5033(5) -0.1057(5)
H12B H 0.5584 0.5255 -0.0560
H13B H 0.6260 0.4443 -0.0924
C9B C 0.7510(7) 0.5404(4) -0.0782(5)
H14B H 0.7779 0.5258 -0.0044
H15B H 0.7436 0.6001 -0.0819
C10B C 0.8441(6) 0.6358(4) -0.2649(5)
H16B H 0.7511 0.6318 -0.2811
H17B H 0.8606 0.6750 -0.2076
H18B H 0.8867 0.6538 -0.3280
C11B C 0.8954(6) 0.5548(4) -0.2312(5)
C12B C 0.9910(6) 0.5083(4) -0.2703(5)
H19B H 1.0422 0.5214 -0.3280
C13B C 0.9985(6) 0.4384(4) -0.2091(5)
C14B C 1.0841(8) 0.3677(5) -0.2214(6)
H20B H 1.1363 0.3593 -0.1555
H21B H 1.0319 0.3194 -0.2372
H22B H 1.1407 0.3778 -0.2795
W1A W 0.17990(3) 0.7500 -0.11901(3)
S1A S 0.00315(19) 0.7500 -0.02512(15)
S2C S 0.70065(13) 0.13944(9) 0.07808(10)
S3A S 0.1290(2) 0.7500 -0.29217(15)
Cu1C Cu 0.86445(9) 0.14704(6) -0.04012(7)
Cu2A Cu 0.40574(13) 0.7500 -0.00208(13)
Cu3C Cu 0.71202(9) 0.15289(5) 0.26190(6)
I1A I 0.27849(6) 0.7500 0.19990(4)
I3A I 0.49940(5) 0.7500 -0.30392(4)
loop_
_geom_bond_atom_site_label_1
_geom_bond_atom_site_label_2
_geom_bond_site_symmetry_1
_geom_bond_site_symmetry_2
W1 S1 1_555 1_555
S1 Cu1 1_555 1_555
S2 W1 1_555 1_555
S3 W1 1_555 1_555
Cu1 S2 1_555 1_555
Cu2 S2 1_555 1_555
Cu3 S2 1_555 1_555
I1 Cu1 1_555 1_555
I2 Cu2 1_555 1_555
I3 Cu3 1_555 1_555
N1 Cu3 1_555 1_555
N2 N1 1_555 1_555
N3 N4 1_555 1_555
N4 C13 1_555 1_555
C1 H1 1_555 1_555
H2 C1 1_555 1_555
H3 C1 1_555 1_555
C2 N1 1_555 1_555
C3 C2 1_555 1_555
H4 C3 1_555 1_555
C4 N2 1_555 1_555
C5 C4 1_555 1_555
H5 C5 1_555 1_555
H6 C5 1_555 1_555
H7 C5 1_555 1_555
C6 N2 1_555 1_555
H8 C6 1_555 1_555
H9 C6 1_555 1_555
C7 C6 1_555 1_555
H10 C7 1_555 1_555
H11 C7 1_555 1_555
C8 C7 1_555 1_555
H12 C8 1_555 1_555
H13 C8 1_555 1_555
C9 N3 1_555 1_555
H14 C9 1_555 1_555
H15 C9 1_555 1_555
C10 H16 1_555 1_555
H17 C10 1_555 1_555
H18 C10 1_555 1_555
C11 N3 1_555 1_555
C12 C11 1_555 1_555
H19 C12 1_555 1_555
C13 C12 1_555 1_555
C14 C13 1_555 1_555
H20 C14 1_555 1_555
H21 C14 1_555 1_555
H22 C14 1_555 1_555
S2B Cu1B 1_555 1_555
Cu1B N4 1_555 1_555
Cu3B S2B 1_555 1_555
N1B Cu3B 1_555 1_555
N2B N1B 1_555 1_555
N3B N4B 1_555 1_555
N4B Cu1 1_555 1_555
C1B H1B 1_555 1_555
H2B C1B 1_555 1_555
H3B C1B 1_555 1_555
C2B N1B 1_555 1_555
C3B C2B 1_555 1_555
H4B C3B 1_555 1_555
C4B N2B 1_555 1_555
C5B C4B 1_555 1_555
H5B C5B 1_555 1_555
H6B C5B 1_555 1_555
H7B C5B 1_555 1_555
C6B N2B 1_555 1_555
H8B C6B 1_555 1_555
H9B C6B 1_555 1_555
C7B C6B 1_555 1_555
H10B C7B 1_555 1_555
H11B C7B 1_555 1_555
C8B C7B 1_555 1_555
H12B C8B 1_555 1_555
H13B C8B 1_555 1_555
C9B N3B 1_555 1_555
H14B C9B 1_555 1_555
H15B C9B 1_555 1_555
C10B H16B 1_555 1_555
H17B C10B 1_555 1_555
H18B C10B 1_555 1_555
C11B N3B 1_555 1_555
C12B C11B 1_555 1_555
H19B C12B 1_555 1_555
C13B N4B 1_555 1_555
C14B C13B 1_555 1_555
H20B C14B 1_555 1_555
H21B C14B 1_555 1_555
H22B C14B 1_555 1_555
W1A S2B 1_555 1_555
S1A Cu1B 1_555 1_555
S2C W1 1_555 1_555
S3A Cu3B 1_555 1_555
Cu1C S1 1_555 1_555
Cu2A S2B 1_555 1_555
Cu3C S3 1_555 1_555
I1A Cu1B 1_555 1_555
I3A Cu3B 1_555 1_555
S3 Cu3 1_555 1_555
Cu2 I1 1_555 1_555
Cu2 S2C 1_555 1_555
I1 Cu1C 1_555 1_555
I3 Cu3C 1_555 1_555
C1 C2 1_555 1_555
C3 C4 1_555 1_555
C8 C9 1_555 1_555
C10 C11 1_555 1_555
C1B C2B 1_555 1_555
C3B C4B 1_555 1_555
C8B C9B 1_555 1_555
C10B C11B 1_555 1_555
C12B C13B 1_555 1_555
W1A S1A 1_555 1_555
W1A S3A 1_555 1_555
S2C Cu1C 1_555 1_555
S2C Cu3C 1_555 1_555
Cu2A I1A 1_555 1_555

#END
