
#######################################################################
#
#                 Cambridge Crystallographic Data Centre
#                                CCDC 
#
#######################################################################
#
# If this CIF has been generated from an entry in the Cambridge 
# Structural Database, then it will include bibliographic, chemical, 
# crystal, experimental, refinement or atomic coordinate data resulting 
# from the CCDC's data processing and validation procedures.
#
#######################################################################

data_XIBWUC
_symmetry_cell_setting           monoclinic
_symmetry_space_group_name_H-M   'P 21/c'
_symmetry_Int_Tables_number      14
_space_group_name_Hall           '-P 2ybc'
loop_
_symmetry_equiv_pos_site_id
_symmetry_equiv_pos_as_xyz
1 x,y,z
2 -x,1/2+y,1/2-z
3 -x,-y,-z
4 x,1/2-y,1/2+z
_cell_length_a                   5.8014(6)
_cell_length_b                   20.224(2)
_cell_length_c                   17.9295(19)
_cell_angle_alpha                90
_cell_angle_beta                 93.394(2)
_cell_angle_gamma                90
_cell_volume                     2099.93
loop_
_atom_site_label
_atom_site_type_symbol
_atom_site_fract_x
_atom_site_fract_y
_atom_site_fract_z
C1 C 0.9787(4) 0.04452(11) 0.22689(11)
C2 C 1.1804(4) 0.28053(10) 0.28091(11)
C3 C 1.2448(4) 0.20887(10) 0.28573(11)
C4 C 1.0916(4) 0.16142(11) 0.25545(12)
H1 H 0.9533 0.1746 0.2310
C5 C 1.1448(4) 0.09452(10) 0.26174(12)
C6 C 1.3482(4) 0.07525(11) 0.30024(13)
H2 H 1.3814 0.0305 0.3061
C7 C 1.5021(4) 0.12175(12) 0.32999(13)
H3 H 1.6384 0.1083 0.3554
C8 C 1.4527(4) 0.18845(11) 0.32185(13)
H4 H 1.5584 0.2198 0.3405
C9 C 0.8510(4) 0.36750(11) 0.39937(12)
H5 H 0.7816 0.3497 0.3558
C10 C 0.7480(4) 0.35630(11) 0.46657(12)
C11 C 0.4511(4) 0.28628(12) 0.52107(13)
C12 C 0.2435(4) 0.24454(13) 0.49793(12)
H6 H 0.2941 0.2046 0.4738
H7 H 0.1446 0.2688 0.4620
C13 C 0.1067(4) 0.22600(12) 0.56450(12)
H8 H 0.2108 0.2064 0.6026
H9 H 0.0435 0.2659 0.5852
C14 C -0.0875(4) 0.17844(13) 0.54578(13)
C15 C -0.3920(4) 0.11931(11) 0.61109(12)
C16 C -0.4899(4) 0.11594(11) 0.68007(12)
H10 H -0.4161 0.1378 0.7204
C17 C -0.7879(4) 0.05011(11) 0.63313(12)
H11 H -0.9226 0.0266 0.6401
C18 C -0.6995(4) 0.05053(13) 0.56379(13)
H12 H -0.7747 0.0273 0.5248
C19 C -0.5000(4) 0.08515(12) 0.55123(13)
H13 H -0.4397 0.0856 0.5043
C20 C 0.8517(4) 0.38338(12) 0.53146(13)
H14 H 0.7867 0.3780 0.5772
C21 C 1.0544(4) 0.41862(13) 0.52598(13)
H15 H 1.1289 0.4364 0.5688
C22 C 1.1468(4) 0.42765(12) 0.45766(13)
H16 H 1.2829 0.4517 0.4552
N1 N 1.0452(3) 0.40266(9) 0.39467(10)
N2 N 0.5455(3) 0.31866(10) 0.46307(10)
H17 H 0.4726 0.3155 0.4200
N3 N -0.1932(3) 0.15758(10) 0.60788(10)
H18 H -0.1289 0.1696 0.6502
N4 N -0.6850(3) 0.08281(9) 0.69125(10)
O1 O 1.0408(3) -0.01655(7) 0.23183(9)
O2 O 1.5123(3) 0.47223(8) 0.34526(9)
H19 H 1.4020 0.4900 0.3188
H20 H 1.6342 0.4764 0.3219
O3 O 0.7961(3) 0.06412(9) 0.19613(10)
O4 O 1.3240(2) 0.32254(7) 0.31152(8)
O5 O 0.9939(3) 0.29819(8) 0.24947(9)
O6 O 0.5315(3) 0.28929(11) 0.58502(9)
O7 O -0.1446(3) 0.16022(13) 0.48320(10)
Cu1 Cu 1.18101(4) 0.411938(12) 0.294318(14)
N4C N 1.3150(3) 0.41719(9) 0.19125(10)
O1A O 0.9592(3) 0.48345(7) 0.26817(9)
Cu1A Cu 0.81899(4) -0.088062(12) 0.205682(14)
Cu1C Cu -0.81899(4) 0.088062(12) 0.794318(14)
loop_
_geom_bond_atom_site_label_1
_geom_bond_atom_site_label_2
_geom_bond_site_symmetry_1
_geom_bond_site_symmetry_2
C1 C5 1_555 1_555
C2 C3 1_555 1_555
C3 C4 1_555 1_555
C4 H1 1_555 1_555
C5 C4 1_555 1_555
C6 C5 1_555 1_555
H2 C6 1_555 1_555
C7 C6 1_555 1_555
H3 C7 1_555 1_555
C8 C3 1_555 1_555
H4 C8 1_555 1_555
C9 H5 1_555 1_555
C10 C9 1_555 1_555
C11 C12 1_555 1_555
C12 H6 1_555 1_555
H7 C12 1_555 1_555
C13 C12 1_555 1_555
H8 C13 1_555 1_555
H9 C13 1_555 1_555
C14 C13 1_555 1_555
C15 C16 1_555 1_555
C16 H10 1_555 1_555
C17 H11 1_555 1_555
C18 C17 1_555 1_555
H12 C18 1_555 1_555
C19 C15 1_555 1_555
H13 C19 1_555 1_555
C20 C10 1_555 1_555
H14 C20 1_555 1_555
C21 C20 1_555 1_555
H15 C21 1_555 1_555
C22 C21 1_555 1_555
H16 C22 1_555 1_555
N1 C9 1_555 1_555
N2 C10 1_555 1_555
H17 N2 1_555 1_555
N3 C14 1_555 1_555
H18 N3 1_555 1_555
N4 C16 1_555 1_555
O1 C1 1_555 1_555
O2 H19 1_555 1_555
H20 O2 1_555 1_555
O3 C1 1_555 1_555
O4 C2 1_555 1_555
O5 C2 1_555 1_555
O6 C11 1_555 1_555
O7 C14 1_555 1_555
Cu1 N1 1_555 1_555
N4C Cu1 1_555 1_555
O1A Cu1 1_555 1_555
Cu1A O1 1_555 1_555
Cu1C N4 1_555 1_555
C7 C8 1_555 1_555
C11 N2 1_555 1_555
C15 N3 1_555 1_555
C17 N4 1_555 1_555
C18 C19 1_555 1_555
C22 N1 1_555 1_555
O2 Cu1 1_555 1_555
O4 Cu1 1_555 1_555
O5 Cu1 1_555 1_555

#END
