
#######################################################################
#
#                 Cambridge Crystallographic Data Centre
#                                CCDC 
#
#######################################################################
#
# If this CIF has been generated from an entry in the Cambridge 
# Structural Database, then it will include bibliographic, chemical, 
# crystal, experimental, refinement or atomic coordinate data resulting 
# from the CCDC's data processing and validation procedures.
#
#######################################################################

data_XIBWAI
_symmetry_cell_setting           monoclinic
_symmetry_space_group_name_H-M   'P 21/c'
_symmetry_Int_Tables_number      14
_space_group_name_Hall           '-P 2ybc'
loop_
_symmetry_equiv_pos_site_id
_symmetry_equiv_pos_as_xyz
1 x,y,z
2 -x,1/2+y,1/2-z
3 -x,-y,-z
4 x,1/2-y,1/2+z
_cell_length_a                   20.1170(11)
_cell_length_b                   18.9892(14)
_cell_length_c                   16.9251(10)
_cell_angle_alpha                90
_cell_angle_beta                 94.561(5)
_cell_angle_gamma                90
_cell_volume                     6445.01
loop_
_atom_site_label
_atom_site_type_symbol
_atom_site_fract_x
_atom_site_fract_y
_atom_site_fract_z
W1 W 0.11807(2) 0.59266(3) 0.31841(3)
S1 S 0.06948(13) 0.49492(18) 0.26400(18)
S2 S 0.19905(13) 0.55920(18) 0.40923(17)
S3 S 0.16522(14) 0.65199(19) 0.22354(18)
S4 S 0.04812(16) 0.6585(2) 0.3725(2)
Cu1 Cu 0.12731(7) 0.54757(10) 0.16949(9)
Cu2 Cu 0.15968(6) 0.46055(9) 0.34489(9)
Cu3 Cu 0.24999(6) 0.60356(9) 0.30320(8)
I1 I 0.25746(4) 0.46835(5) 0.21994(5)
W2 W 0.38790(2) 0.54584(3) 0.69590(3)
S5 S 0.34939(13) 0.57717(18) 0.81170(17)
S6 S 0.30169(12) 0.53531(18) 0.60511(17)
S7 S 0.43759(13) 0.44000(18) 0.71124(17)
S8 S 0.45517(15) 0.6245(2) 0.6589(2)
Cu4 Cu 0.39602(7) 0.46762(9) 0.82694(8)
Cu5 Cu 0.25832(6) 0.55202(9) 0.72510(8)
Cu6 Cu 0.33865(7) 0.42387(9) 0.63699(9)
I2 I 0.24789(4) 0.40194(5) 0.76295(5)
N1 N 0.1624(4) 0.3663(6) 0.3896(5)
N2 N 0.1652(4) 0.3499(6) 0.4696(5)
N3 N 0.1215(4) 0.5973(6) 0.6657(5)
N4 N 0.1721(4) 0.6002(6) 0.7241(5)
C1 C 0.1639(6) 0.2487(8) 0.5616(7)
H1 H 0.2048 0.2627 0.5930
H2 H 0.1621 0.1973 0.5575
H3 H 0.1250 0.2657 0.5874
C2 C 0.1636(5) 0.2800(7) 0.4807(7)
C3 C 0.1593(5) 0.2500(7) 0.4058(7)
H4 H 0.1566 0.2012 0.3935
C4 C 0.1598(5) 0.3039(7) 0.3539(7)
C5 C 0.1518(6) 0.2991(8) 0.2645(7)
H5 H 0.1842 0.3301 0.2419
H6 H 0.1065 0.3135 0.2455
H7 H 0.1594 0.2504 0.2481
C6 C 0.1642(5) 0.4057(7) 0.5288(7)
H8 H 0.1901 0.4463 0.5113
H9 H 0.1865 0.3884 0.5794
C7 C 0.0948(5) 0.4301(7) 0.5433(7)
H10 H 0.0668 0.3884 0.5522
H11 H 0.0752 0.4543 0.4951
C8 C 0.0923(5) 0.4793(7) 0.6131(7)
H12 H 0.0452 0.4870 0.6239
H13 H 0.1154 0.4570 0.6605
C9 C 0.1242(5) 0.5488(7) 0.5990(7)
H14 H 0.1714 0.5409 0.5887
H15 H 0.1014 0.5706 0.5511
C10 C 0.0118(5) 0.6533(7) 0.6205(7)
H16 H 0.0258 0.6660 0.5682
H17 H -0.0163 0.6908 0.6395
H18 H -0.0135 0.6092 0.6165
C11 C 0.0727(5) 0.6439(7) 0.6781(7)
C12 C 0.0910(5) 0.6781(7) 0.7477(7)
H19 H 0.0663 0.7132 0.7725
C13 C 0.1535(5) 0.6508(7) 0.7750(7)
C14 C 0.1933(5) 0.6692(7) 0.8481(7)
H20 H 0.2318 0.6375 0.8554
H21 H 0.1659 0.6644 0.8932
H22 H 0.2089 0.7179 0.8448
N5 N 0.0951(4) 0.5503(6) 0.0566(5)
N6 N 0.1116(4) 0.5088(6) -0.0046(5)
N7 N 0.4153(4) 0.4448(6) -0.0015(5)
N8 N 0.4321(4) 0.4268(6) -0.0743(5)
C15 C 0.0181(6) 0.6507(9) 0.0720(8)
H23 H 0.0155 0.6343 0.1265
H24 H -0.0269 0.6607 0.0481
H25 H 0.0451 0.6936 0.0721
C16 C 0.0495(5) 0.5946(8) 0.0247(7)
C17 C 0.0380(5) 0.5822(7) -0.0560(7)
H26 H 0.0083 0.6076 -0.0920
C18 C 0.0778(5) 0.5259(7) -0.0744(7)
C19 C 0.0899(5) 0.4912(8) -0.1493(7)
H27 H 0.1377 0.4923 -0.1566
H28 H 0.0654 0.5160 -0.1933
H29 H 0.0748 0.4422 -0.1480
C20 C 0.1668(5) 0.4588(7) 0.0066(7)
H30 H 0.1609 0.4208 -0.0333
H31 H 0.1672 0.4373 0.0599
C21 C 0.2322(5) 0.4965(7) -0.0018(6)
H32 H 0.2396 0.5313 0.0415
H33 H 0.2293 0.5225 -0.0527
C22 C 0.2916(5) 0.4464(7) 0.0005(6)
H34 H 0.2906 0.4144 0.0465
H35 H 0.2892 0.4174 -0.0483
C23 C 0.3564(5) 0.4886(7) 0.0069(7)
H36 H 0.3539 0.5253 -0.0348
H37 H 0.3611 0.5125 0.0590
C24 C 0.4483(5) 0.4308(8) 0.1408(7)
H38 H 0.4044 0.4138 0.1535
H39 H 0.4518 0.4814 0.1518
H40 H 0.4832 0.4057 0.1733
C25 C 0.4565(5) 0.4184(7) 0.0584(7)
C26 C 0.5043(5) 0.3806(7) 0.0204(7)
H41 H 0.5415 0.3564 0.0455
C27 C 0.4879(5) 0.3845(7) -0.0586(7)
C28 C 0.5224(6) 0.3513(8) -0.1248(7)
H42 H 0.5309 0.3872 -0.1643
H43 H 0.4940 0.3142 -0.1496
H44 H 0.5648 0.3308 -0.1035
N9 N 0.3353(4) 0.3451(5) 0.5652(5)
N10 N 0.3340(4) 0.3489(6) 0.4832(5)
N11 N 0.3847(4) 0.6358(6) 0.3769(6)
N12 N 0.3379(4) 0.6482(6) 0.3160(5)
C29 C 0.3472(6) 0.2502(7) 0.6629(7)
H45 H 0.3152 0.2760 0.6926
H46 H 0.3924 0.2584 0.6871
H47 H 0.3372 0.1998 0.6640
C30 C 0.3426(5) 0.2752(7) 0.5795(7)
C31 C 0.3467(5) 0.2381(7) 0.5101(7)
H48 H 0.3521 0.1886 0.5052
C32 C 0.3413(5) 0.2857(7) 0.4499(7)
C33 C 0.3456(6) 0.2764(7) 0.3630(7)
H49 H 0.3057 0.2964 0.3343
H50 H 0.3486 0.2261 0.3507
H51 H 0.3853 0.3006 0.3467
C34 C 0.3354(5) 0.4181(7) 0.4447(7)
H52 H 0.3086 0.4519 0.4734
H53 H 0.3151 0.4143 0.3896
C35 C 0.4067(5) 0.4454(7) 0.4437(7)
H54 H 0.4238 0.4574 0.4985
H55 H 0.4352 0.4076 0.4246
C36 C 0.4122(5) 0.5096(7) 0.3917(7)
H56 H 0.3895 0.5000 0.3387
H57 H 0.4598 0.5189 0.3849
C37 C 0.3812(5) 0.5749(7) 0.4268(7)
H58 H 0.3339 0.5651 0.4350
H59 H 0.4047 0.5852 0.4792
C38 C 0.4905(5) 0.6857(7) 0.4410(7)
H60 H 0.5187 0.7270 0.4341
H61 H 0.5168 0.6428 0.4354
H62 H 0.4738 0.6868 0.4938
C39 C 0.4342(5) 0.6862(7) 0.3807(7)
C40 C 0.4176(5) 0.7322(7) 0.3182(7)
H63 H 0.4419 0.7727 0.3043
C41 C 0.3579(5) 0.7070(7) 0.2798(7)
C42 C 0.3199(5) 0.7387(8) 0.2104(7)
H64 H 0.3112 0.7029 0.1692
H65 H 0.3459 0.7773 0.1896
H66 H 0.2774 0.7571 0.2263
Cu4_2 Cu 0.39602(7) 0.46762(9) -0.17306(8)
N8_2 N 0.4321(4) 0.4268(6) 0.9257(5)
O1 O 0.3106(4) 0.6438(6) 0.0196(6)
N13 N 0.2486(5) 0.7428(6) 0.0261(6)
C43 C 0.2593(6) 0.6728(8) 0.0344(8)
H67 H 0.2246 0.6448 0.0529
C44 C 0.1877(6) 0.7745(8) 0.0483(8)
H68 H 0.1567 0.7374 0.0621
H69 H 0.1674 0.8021 0.0037
H70 H 0.1975 0.8054 0.0941
C45 C 0.2989(6) 0.7851(8) -0.0033(8)
H71 H 0.3301 0.7551 -0.0296
H72 H 0.3229 0.8103 0.0406
H73 H 0.2785 0.8191 -0.0415
loop_
_geom_bond_atom_site_label_1
_geom_bond_atom_site_label_2
_geom_bond_site_symmetry_1
_geom_bond_site_symmetry_2
W1 S1 1_555 1_555
S1 Cu1 1_555 1_555
S2 W1 1_555 1_555
S3 W1 1_555 1_555
S4 W1 1_555 1_555
Cu1 S3 1_555 1_555
Cu2 S1 1_555 1_555
Cu3 S2 1_555 1_555
I1 Cu1 1_555 1_555
W2 S5 1_555 1_555
S5 Cu4 1_555 1_555
S6 W2 1_555 1_555
S7 W2 1_555 1_555
S8 W2 1_555 1_555
Cu4 S7 1_555 1_555
Cu5 S5 1_555 1_555
Cu6 S6 1_555 1_555
I2 Cu4 1_555 1_555
N1 Cu2 1_555 1_555
N2 N1 1_555 1_555
N3 N4 1_555 1_555
N4 Cu5 1_555 1_555
C1 H1 1_555 1_555
H2 C1 1_555 1_555
H3 C1 1_555 1_555
C2 N2 1_555 1_555
C3 C2 1_555 1_555
H4 C3 1_555 1_555
C4 N1 1_555 1_555
C5 C4 1_555 1_555
H5 C5 1_555 1_555
H6 C5 1_555 1_555
H7 C5 1_555 1_555
C6 N2 1_555 1_555
H8 C6 1_555 1_555
H9 C6 1_555 1_555
C7 C6 1_555 1_555
H10 C7 1_555 1_555
H11 C7 1_555 1_555
C8 C7 1_555 1_555
H12 C8 1_555 1_555
H13 C8 1_555 1_555
C9 N3 1_555 1_555
H14 C9 1_555 1_555
H15 C9 1_555 1_555
C10 H16 1_555 1_555
H17 C10 1_555 1_555
H18 C10 1_555 1_555
C11 N3 1_555 1_555
C12 C11 1_555 1_555
H19 C12 1_555 1_555
C13 N4 1_555 1_555
C14 C13 1_555 1_555
H20 C14 1_555 1_555
H21 C14 1_555 1_555
H22 C14 1_555 1_555
N5 Cu1 1_555 1_555
N6 N5 1_555 1_555
N7 N8 1_555 1_555
N8 C27 1_555 1_555
C15 H23 1_555 1_555
H24 C15 1_555 1_555
H25 C15 1_555 1_555
C16 N5 1_555 1_555
C17 C16 1_555 1_555
H26 C17 1_555 1_555
C18 N6 1_555 1_555
C19 C18 1_555 1_555
H27 C19 1_555 1_555
H28 C19 1_555 1_555
H29 C19 1_555 1_555
C20 N6 1_555 1_555
H30 C20 1_555 1_555
H31 C20 1_555 1_555
C21 C20 1_555 1_555
H32 C21 1_555 1_555
H33 C21 1_555 1_555
C22 C21 1_555 1_555
H34 C22 1_555 1_555
H35 C22 1_555 1_555
C23 N7 1_555 1_555
H36 C23 1_555 1_555
H37 C23 1_555 1_555
C24 H38 1_555 1_555
H39 C24 1_555 1_555
H40 C24 1_555 1_555
C25 N7 1_555 1_555
C26 C25 1_555 1_555
H41 C26 1_555 1_555
C27 C26 1_555 1_555
C28 C27 1_555 1_555
H42 C28 1_555 1_555
H43 C28 1_555 1_555
H44 C28 1_555 1_555
N9 Cu6 1_555 1_555
N10 N9 1_555 1_555
N11 N12 1_555 1_555
N12 Cu3 1_555 1_555
C29 H45 1_555 1_555
H46 C29 1_555 1_555
H47 C29 1_555 1_555
C30 N9 1_555 1_555
C31 C30 1_555 1_555
H48 C31 1_555 1_555
C32 N10 1_555 1_555
C33 C32 1_555 1_555
H49 C33 1_555 1_555
H50 C33 1_555 1_555
H51 C33 1_555 1_555
C34 N10 1_555 1_555
H52 C34 1_555 1_555
H53 C34 1_555 1_555
C35 C34 1_555 1_555
H54 C35 1_555 1_555
H55 C35 1_555 1_555
C36 C35 1_555 1_555
H56 C36 1_555 1_555
H57 C36 1_555 1_555
C37 N11 1_555 1_555
H58 C37 1_555 1_555
H59 C37 1_555 1_555
C38 H60 1_555 1_555
H61 C38 1_555 1_555
H62 C38 1_555 1_555
C39 N11 1_555 1_555
C40 C39 1_555 1_555
H63 C40 1_555 1_555
C41 N12 1_555 1_555
C42 C41 1_555 1_555
H64 C42 1_555 1_555
H65 C42 1_555 1_555
H66 C42 1_555 1_555
O1 C43 1_555 1_555
N13 C43 1_555 1_555
C43 H67 1_555 1_555
C44 N13 1_555 1_555
H68 C44 1_555 1_555
H69 C44 1_555 1_555
H70 C44 1_555 1_555
C45 N13 1_555 1_555
H71 C45 1_555 1_555
H72 C45 1_555 1_555
H73 C45 1_555 1_555
Cu4_2 N8 1_555 1_555
N8_2 Cu4 1_555 1_555
S2 Cu2 1_555 1_555
S3 Cu3 1_555 1_555
Cu2 I1 1_555 1_555
Cu3 I1 1_555 1_555
S6 Cu5 1_555 1_555
S7 Cu6 1_555 1_555
Cu5 I2 1_555 1_555
Cu6 I2 1_555 1_555
C1 C2 1_555 1_555
C3 C4 1_555 1_555
C8 C9 1_555 1_555
C10 C11 1_555 1_555
C12 C13 1_555 1_555
C15 C16 1_555 1_555
C17 C18 1_555 1_555
C22 C23 1_555 1_555
C24 C25 1_555 1_555
C29 C30 1_555 1_555
C31 C32 1_555 1_555
C36 C37 1_555 1_555
C38 C39 1_555 1_555
C40 C41 1_555 1_555

#END
