
#######################################################################
#
#                 Cambridge Crystallographic Data Centre
#                                CCDC 
#
#######################################################################
#
# If this CIF has been generated from an entry in the Cambridge 
# Structural Database, then it will include bibliographic, chemical, 
# crystal, experimental, refinement or atomic coordinate data resulting 
# from the CCDC's data processing and validation procedures.
#
#######################################################################

data_XIBYAI
_symmetry_cell_setting           monoclinic
_symmetry_space_group_name_H-M   'P 21/n'
_symmetry_Int_Tables_number      14
_space_group_name_Hall           '-P 2yn'
loop_
_symmetry_equiv_pos_site_id
_symmetry_equiv_pos_as_xyz
1 x,y,z
2 1/2+x,1/2-y,1/2+z
3 -x,-y,-z
4 1/2-x,1/2+y,1/2-z
_cell_length_a                   8.1498(3)
_cell_length_b                   14.2506(4)
_cell_length_c                   17.2404(6)
_cell_angle_alpha                90
_cell_angle_beta                 103.530(10)
_cell_angle_gamma                90
_cell_volume                     1946.72
loop_
_atom_site_label
_atom_site_type_symbol
_atom_site_fract_x
_atom_site_fract_y
_atom_site_fract_z
Mn1 Mn 0.0000 0.5000 0.0000
N1 N 0.10232(18) 0.49577(8) 0.12933(8)
C1 C 0.2002(2) 0.49217(9) 0.19051(10)
S1 S 0.33534(5) 0.48749(3) 0.27717(2)
N2 N 0.01006(14) 0.66820(9) 0.00453(7)
C2 C -0.07260(19) 0.81725(10) -0.05767(10)
H1 H -0.1447 0.8507 -0.0999
C3 C -0.08685(19) 0.72071(10) -0.05286(10)
H2 H -0.1701 0.6899 -0.0925
C4 C 0.1228(2) 0.71497(10) 0.06025(9)
H3 H 0.1920 0.6799 0.1023
C5 C 0.1443(2) 0.81139(10) 0.05999(10)
H4 H 0.2256 0.8407 0.1014
C6 C 0.04693(19) 0.86523(10) -0.00086(9)
C7 C 0.07337(19) 0.96990(10) -0.00722(10)
H5 H 0.0901 0.9840 -0.0611
H6 H 0.1779 0.9880 0.0320
O1 O 0.25746(16) 0.49904(8) -0.00848(9)
H7 H 0.334(3) 0.5006(12) 0.0315(15)
H8 H 0.302(3) 0.5011(13) -0.0476(16)
C7B C -0.07337(19) 1.03010(10) 0.00722(10)
C6B C -0.04693(19) 1.13477(10) 0.00086(9)
C2B C 0.07260(19) 1.18275(10) 0.05767(10)
H1B H 0.1447 1.1493 0.0999
C3B C 0.08685(19) 1.27929(10) 0.05286(10)
N2B N -0.01006(14) 1.33180(9) -0.00453(7)
C4B C -0.1228(2) 1.28503(10) -0.06025(9)
H3B H -0.1920 1.3201 -0.1023
C5B C -0.1443(2) 1.18861(10) -0.05999(10)
H4B H -0.2256 1.1593 -0.1014
H2B H 0.1701 1.3101 0.0925
H5B H -0.0901 1.0160 0.0611
H6B H -0.1779 1.0120 -0.0320
N1B N -0.10232(18) 0.50423(8) -0.12933(8)
C1B C -0.2002(2) 0.50783(9) -0.19051(10)
S1B S -0.33534(5) 0.51251(3) -0.27717(2)
O1B O -0.25746(16) 0.50096(8) 0.00848(9)
H7B H -0.334(3) 0.4994(12) -0.0315(15)
H8B H -0.302(3) 0.4989(13) 0.0476(16)
N2B_2 N -0.01006(14) 0.33180(9) -0.00453(7)
Mn1_2 Mn 0.0000 1.5000 0.0000
O2 O 0.54057(15) 0.50028(8) 0.11031(7)
H9 H 0.535(2) 0.4483(15) 0.1347(12)
H10 H 0.549(3) 0.5492(16) 0.1409(13)
N3 N 0.52551(17) 0.31778(9) 0.14842(9)
C8 C 0.5755(2) 0.17934(11) 0.07899(10)
H11 H 0.6055 0.1526 0.0338
C9 C 0.5692(2) 0.27536(11) 0.08717(11)
H12 H 0.5974 0.3135 0.0470
C10 C 0.48847(19) 0.26281(11) 0.20482(10)
H13 H 0.4569 0.2917 0.2488
C11 C 0.49394(19) 0.16598(11) 0.20204(10)
H14 H 0.4681 0.1297 0.2438
C12 C 0.53753(18) 0.12207(11) 0.13768(9)
N4 N 0.58989(19) -0.32846(9) 0.17721(9)
C13 C 0.6950(2) -0.18616(11) 0.13385(10)
H15 H 0.7487 -0.1558 0.0974
C14 C 0.6653(2) -0.28133(12) 0.12817(10)
H16 H 0.7001 -0.3152 0.0873
C15 C 0.5437(2) -0.27929(11) 0.23445(11)
H17 H 0.4907 -0.3116 0.2702
C16 C 0.5691(2) -0.18394(11) 0.24440(10)
H18 H 0.5340 -0.1520 0.2861
C17 C 0.64627(19) -0.13485(10) 0.19311(9)
C18 C 0.5395(2) 0.01713(10) 0.13164(10)
H19 H 0.5647 -0.0004 0.0801
H20 H 0.4256 -0.0071 0.1317
C19 C 0.6685(2) -0.03033(11) 0.19930(10)
H21 H 0.7843 -0.0134 0.1956
H22 H 0.6523 -0.0084 0.2515
loop_
_geom_bond_atom_site_label_1
_geom_bond_atom_site_label_2
_geom_bond_site_symmetry_1
_geom_bond_site_symmetry_2
Mn1 N1 1_555 1_555
N1 C1 1_555 1_555
C1 S1 1_555 1_555
N2 Mn1 1_555 1_555
C2 H1 1_555 1_555
C3 N2 1_555 1_555
H2 C3 1_555 1_555
C4 N2 1_555 1_555
H3 C4 1_555 1_555
C5 C4 1_555 1_555
H4 C5 1_555 1_555
C6 C2 1_555 1_555
C7 C6 1_555 1_555
H5 C7 1_555 1_555
H6 C7 1_555 1_555
O1 Mn1 1_555 1_555
H7 O1 1_555 1_555
H8 O1 1_555 1_555
O2 H9 1_555 1_555
H10 O2 1_555 1_555
N3 C9 1_555 1_555
C8 H11 1_555 1_555
C9 C8 1_555 1_555
H12 C9 1_555 1_555
C10 N3 1_555 1_555
H13 C10 1_555 1_555
C11 C10 1_555 1_555
H14 C11 1_555 1_555
C12 C8 1_555 1_555
N4 C14 1_555 1_555
C13 H15 1_555 1_555
C14 C13 1_555 1_555
H16 C14 1_555 1_555
C15 N4 1_555 1_555
H17 C15 1_555 1_555
C16 C15 1_555 1_555
H18 C16 1_555 1_555
C17 C13 1_555 1_555
C18 C12 1_555 1_555
H19 C18 1_555 1_555
H20 C18 1_555 1_555
C19 C17 1_555 1_555
H21 C19 1_555 1_555
H22 C19 1_555 1_555
C7B C7 1_555 1_555
C6B C7B 1_555 1_555
C2B C6B 1_555 1_555
H1B C2B 1_555 1_555
C3B C2B 1_555 1_555
N2B C3B 1_555 1_555
C4B N2B 1_555 1_555
H3B C4B 1_555 1_555
C5B C6B 1_555 1_555
H4B C5B 1_555 1_555
H2B C3B 1_555 1_555
H5B C7B 1_555 1_555
H6B C7B 1_555 1_555
N1B Mn1 1_555 1_555
C1B N1B 1_555 1_555
S1B C1B 1_555 1_555
O1B Mn1 1_555 1_555
H7B O1B 1_555 1_555
H8B O1B 1_555 1_555
N2B_2 Mn1 1_555 1_555
Mn1_2 N2B 1_555 1_555
C2 C3 1_555 1_555
C5 C6 1_555 1_555
C11 C12 1_555 1_555
C16 C17 1_555 1_555
C18 C19 1_555 1_555
C4B C5B 1_555 1_555

#END
