
#######################################################################
#
#                 Cambridge Crystallographic Data Centre
#                                CCDC 
#
#######################################################################
#
# If this CIF has been generated from an entry in the Cambridge 
# Structural Database, then it will include bibliographic, chemical, 
# crystal, experimental, refinement or atomic coordinate data resulting 
# from the CCDC's data processing and validation procedures.
#
#######################################################################

data_XICCUJ
_symmetry_cell_setting           triclinic
_symmetry_space_group_name_H-M   'P -1'
_symmetry_Int_Tables_number      2
_space_group_name_Hall           '-P 1'
loop_
_symmetry_equiv_pos_site_id
_symmetry_equiv_pos_as_xyz
1 x,y,z
2 -x,-y,-z
_cell_length_a                   8.082(2)
_cell_length_b                   8.388(2)
_cell_length_c                   11.349(3)
_cell_angle_alpha                87.853(9)
_cell_angle_beta                 87.533(10)
_cell_angle_gamma                87.018(9)
_cell_volume                     767.137
loop_
_atom_site_label
_atom_site_type_symbol
_atom_site_fract_x
_atom_site_fract_y
_atom_site_fract_z
Cd1 Cd 1.0000 0.0000 1.0000
O1 O 0.8068(3) 0.0578(3) 1.15192(17)
N1 N 0.8195(2) 0.39707(19) 0.76876(15)
N2 N 0.7950(3) 0.4775(2) 0.87003(18)
N3 N 0.9079(2) 0.2319(2) 0.90598(16)
N4 N 0.6309(2) 0.8139(2) 0.76688(15)
N5 N 0.5325(2) 0.8143(3) 0.86735(17)
N6 N 0.7927(2) 0.8709(2) 0.90543(15)
C1 C 0.5764(2) 0.4767(2) 0.65442(17)
C2 C 0.4851(2) 0.6218(2) 0.65281(17)
C3 C 0.3135(3) 0.6220(3) 0.6485(2)
H1 H 0.2515 0.7186 0.6461
C4 C 0.2340(3) 0.4804(3) 0.6478(2)
H2 H 0.1190 0.4822 0.6451
C5 C 0.3242(3) 0.3358(3) 0.6512(2)
H3 H 0.2707 0.2403 0.6516
C6 C 0.4944(3) 0.3351(3) 0.6539(2)
H4 H 0.5556 0.2381 0.6554
C7 C 0.7635(3) 0.4644(3) 0.65544(18)
H5 H 0.8067 0.3970 0.5924
H6 H 0.8063 0.5696 0.6414
C8 C 0.5644(3) 0.7807(2) 0.65188(18)
H7 H 0.6537 0.7818 0.5920
H8 H 0.4829 0.8648 0.6310
C9 C 0.8499(4) 0.3722(3) 0.9495(2)
H9 H 0.8488 0.3928 1.0294
C10 C 0.8855(3) 0.2532(2) 0.79147(19)
H10 H 0.9125 0.1773 0.7352
C11 C 0.6370(3) 0.8479(3) 0.9478(2)
H11 H 0.6058 0.8551 1.0273
C12 C 0.7839(3) 0.8460(2) 0.79146(18)
H12 H 0.8725 0.8504 0.7366
H13 H 0.827(4) 0.045(4) 1.212(3)
H14 H 0.727(4) 0.105(4) 1.138(3)
O1A O 1.1932(3) -0.0578(3) 0.84808(17)
N1A N 1.1805(2) -0.39707(19) 1.23124(15)
N2A N 1.2050(3) -0.4775(2) 1.12997(18)
N3A N 1.0921(2) -0.2319(2) 1.09402(16)
N4A N 1.3691(2) -0.8139(2) 1.23312(15)
N5A N 1.4675(2) -0.8143(3) 1.13265(17)
N6A N 1.2073(2) -0.8709(2) 1.09457(15)
C1A C 1.4236(2) -0.4767(2) 1.34558(17)
C2A C 1.5149(2) -0.6218(2) 1.34719(17)
C3A C 1.6865(3) -0.6220(3) 1.3515(2)
H1A H 1.7485 -0.7186 1.3539
C4A C 1.7660(3) -0.4804(3) 1.3522(2)
H2A H 1.8810 -0.4822 1.3549
C5A C 1.6758(3) -0.3358(3) 1.3488(2)
H3A H 1.7293 -0.2403 1.3484
C6A C 1.5056(3) -0.3351(3) 1.3461(2)
H4A H 1.4444 -0.2381 1.3446
C7A C 1.2365(3) -0.4644(3) 1.34456(18)
H5A H 1.1933 -0.3970 1.4076
H6A H 1.1937 -0.5696 1.3586
C8A C 1.4356(3) -0.7807(2) 1.34812(18)
H7A H 1.3463 -0.7818 1.4080
H8A H 1.5171 -0.8648 1.3690
C9A C 1.1501(4) -0.3722(3) 1.0505(2)
H9A H 1.1512 -0.3928 0.9706
C10A C 1.1145(3) -0.2532(2) 1.20853(19)
H10A H 1.0875 -0.1773 1.2648
C11A C 1.3630(3) -0.8479(3) 1.0522(2)
H11A H 1.3942 -0.8551 0.9727
C12A C 1.2161(3) -0.8460(2) 1.20854(18)
H12A H 1.1275 -0.8504 1.2634
H13A H 1.173(4) -0.045(4) 0.788(3)
H14A H 1.273(4) -0.105(4) 0.862(3)
Cd1_2 Cd 1.0000 -1.0000 1.0000
Cd1_3 Cd 1.0000 1.0000 1.0000
N6_2 N 0.7927(2) -0.1291(2) 0.90543(15)
N6A_2 N 1.2073(2) 0.1291(2) 1.09457(15)
Si1 Si 1.0000 0.0000 0.5000
F1 F 0.81877(15) 0.05894(15) 0.56528(11)
F2 F 0.90789(16) -0.00441(16) 0.36781(10)
F3 F 0.95772(16) -0.19148(14) 0.52920(11)
F1A F 1.18123(15) -0.05894(15) 0.43472(11)
F2A F 1.09211(16) 0.00441(16) 0.63219(10)
F3A F 1.04228(16) 0.19148(14) 0.47080(11)
loop_
_geom_bond_atom_site_label_1
_geom_bond_atom_site_label_2
_geom_bond_site_symmetry_1
_geom_bond_site_symmetry_2
Cd1 O1 1_555 1_555
O1 H13 1_555 1_555
N1 N2 1_555 1_555
N2 C9 1_555 1_555
N3 Cd1 1_555 1_555
N4 N5 1_555 1_555
N5 C11 1_555 1_555
N6 C11 1_555 1_555
C1 C2 1_555 1_555
C2 C3 1_555 1_555
C3 H1 1_555 1_555
C4 C3 1_555 1_555
H2 C4 1_555 1_555
C5 C4 1_555 1_555
H3 C5 1_555 1_555
C6 C1 1_555 1_555
H4 C6 1_555 1_555
C7 N1 1_555 1_555
H5 C7 1_555 1_555
H6 C7 1_555 1_555
C8 N4 1_555 1_555
H7 C8 1_555 1_555
H8 C8 1_555 1_555
C9 N3 1_555 1_555
H9 C9 1_555 1_555
C10 N1 1_555 1_555
H10 C10 1_555 1_555
C11 H11 1_555 1_555
C12 N4 1_555 1_555
H12 C12 1_555 1_555
H14 O1 1_555 1_555
Si1 F1 1_555 1_555
F2 Si1 1_555 1_555
F3 Si1 1_555 1_555
O1A Cd1 1_555 1_555
N1A N2A 1_555 1_555
N2A C9A 1_555 1_555
N3A Cd1 1_555 1_555
N4A N5A 1_555 1_555
N5A C11A 1_555 1_555
N6A C11A 1_555 1_555
C1A C2A 1_555 1_555
C2A C3A 1_555 1_555
C3A H1A 1_555 1_555
C4A C3A 1_555 1_555
H2A C4A 1_555 1_555
C5A C4A 1_555 1_555
H3A C5A 1_555 1_555
C6A C1A 1_555 1_555
H4A C6A 1_555 1_555
C7A N1A 1_555 1_555
H5A C7A 1_555 1_555
H6A C7A 1_555 1_555
C8A N4A 1_555 1_555
H7A C8A 1_555 1_555
H8A C8A 1_555 1_555
C9A N3A 1_555 1_555
H9A C9A 1_555 1_555
C10A N1A 1_555 1_555
H10A C10A 1_555 1_555
C11A H11A 1_555 1_555
C12A N4A 1_555 1_555
H12A C12A 1_555 1_555
H13A O1A 1_555 1_555
H14A O1A 1_555 1_555
Cd1_2 N6A 1_555 1_555
Cd1_3 N6 1_555 1_555
N6_2 Cd1 1_555 1_555
N6A_2 Cd1 1_555 1_555
F1A Si1 1_555 1_555
F2A Si1 1_555 1_555
F3A Si1 1_555 1_555
N3 C10 1_555 1_555
N6 C12 1_555 1_555
C1 C7 1_555 1_555
C2 C8 1_555 1_555
C5 C6 1_555 1_555
N3A C10A 1_555 1_555
N6A C12A 1_555 1_555
C1A C7A 1_555 1_555
C2A C8A 1_555 1_555
C5A C6A 1_555 1_555

#END
