
#######################################################################
#
#                 Cambridge Crystallographic Data Centre
#                                CCDC 
#
#######################################################################
#
# If this CIF has been generated from an entry in the Cambridge 
# Structural Database, then it will include bibliographic, chemical, 
# crystal, experimental, refinement or atomic coordinate data resulting 
# from the CCDC's data processing and validation procedures.
#
#######################################################################

data_XICDUI
_symmetry_cell_setting           orthorhombic
_symmetry_space_group_name_H-M   'P b c a'
_symmetry_Int_Tables_number      61
_space_group_name_Hall           '-P 2ac 2ab'
loop_
_symmetry_equiv_pos_site_id
_symmetry_equiv_pos_as_xyz
1 x,y,z
2 1/2+x,y,1/2-z
3 x,1/2-y,1/2+z
4 1/2-x,1/2+y,z
5 -x,-y,-z
6 1/2-x,-y,1/2+z
7 -x,1/2+y,1/2-z
8 1/2+x,1/2-y,-z
_cell_length_a                   8.9646(3)
_cell_length_b                   22.8924(9)
_cell_length_c                   23.9497(9)
_cell_angle_alpha                90
_cell_angle_beta                 90
_cell_angle_gamma                90
_cell_volume                     4914.99
loop_
_atom_site_label
_atom_site_type_symbol
_atom_site_fract_x
_atom_site_fract_y
_atom_site_fract_z
Cu1 Cu 0.49722(8) -0.27939(3) -0.57823(3)
N1 N 0.1553(6) -0.27283(19) -0.45839(18)
N2 N 0.3467(5) -0.2928(2) -0.51556(19)
N3 N 0.2193(5) -0.32541(18) -0.44464(17)
N4 N 0.4027(6) -0.2492(2) -0.1448(2)
N5 N 0.4005(7) -0.6436(2) -0.4164(2)
C1 C 0.2358(7) -0.2556(3) -0.5010(2)
H1 H 0.2178 -0.2199 -0.5201
C2 C 0.3337(6) -0.3357(3) -0.4790(2)
H2 H 0.3965 -0.3691 -0.4774
C3 C 0.1640(7) -0.3594(2) -0.3964(2)
H3 H 0.0525 -0.3592 -0.3979
C4 C 0.2118(6) -0.3305(2) -0.3411(2)
C5 C 0.3145(7) -0.2861(3) -0.3386(2)
H4 H 0.3547 -0.2701 -0.3720
C6 C 0.3590(8) -0.2647(3) -0.2869(3)
H5 H 0.4305 -0.2341 -0.2849
C7 C 0.2996(7) -0.2877(3) -0.2386(2)
C8 C 0.1955(8) -0.3322(3) -0.2408(2)
H6 H 0.1553 -0.3478 -0.2073
C9 C 0.1498(7) -0.3540(3) -0.2918(2)
H7 H 0.0778 -0.3844 -0.2937
C10 C 0.2155(6) -0.4224(2) -0.4007(2)
C11 C 0.3464(7) -0.4403(3) -0.3763(3)
H8 H 0.4049 -0.4134 -0.3556
C12 C 0.3935(8) -0.4981(3) -0.3819(3)
H9 H 0.4839 -0.5107 -0.3651
C13 C 0.3081(7) -0.5365(2) -0.4120(2)
C14 C 0.1794(8) -0.5198(3) -0.4368(3)
H10 H 0.1224 -0.5470 -0.4578
C15 C 0.1308(8) -0.4618(3) -0.4314(3)
H11 H 0.0406 -0.4496 -0.4486
C16 C 0.3542(7) -0.2664(3) -0.1858(3)
C17 C 0.3576(8) -0.5971(3) -0.4156(3)
Cu1G Cu -0.00278(8) -0.22061(3) -0.42177(3)
Cu1B Cu 0.49722(8) -0.22061(3) -0.07823(3)
Cu1D Cu 0.50278(8) -0.72061(3) -0.42177(3)
N1G N 0.6553(6) -0.22717(19) -0.54161(18)
N4B N 0.4027(6) -0.2508(2) -0.6448(2)
N5D N 0.5995(7) -0.3564(2) -0.5836(2)
B1 B 0.2761(12) 0.3897(4) 0.4202(3)
F1 F 0.1621(4) 0.37070(18) 0.45615(17)
F2 F 0.3712(5) 0.3459(2) 0.40737(19)
F3 F 0.3472(9) 0.4351(3) 0.4453(3)
F4 F 0.2025(8) 0.4066(3) 0.3709(2)
Cl1 Cl -0.7871(9) 0.5609(3) 0.4011(3)
C18 C -0.8287(19) 0.6304(8) 0.3760(6)
H12 H -0.7417 0.6563 0.3846
Cl2 Cl -0.9828(7) 0.6587(3) 0.4105(4)
Cl3 Cl -0.8501(13) 0.6287(4) 0.3034(4)
C19? C -0.842(4) 0.5303(9) 0.3382(10)
H13? H -0.8477 0.4877 0.3473
Cl4? Cl -0.734(4) 0.5312(15) 0.2775(12)
Cl5? Cl -0.996(2) 0.5402(13) 0.2920(13)
loop_
_geom_bond_atom_site_label_1
_geom_bond_atom_site_label_2
_geom_bond_site_symmetry_1
_geom_bond_site_symmetry_2
Cu1 N2 1_555 1_555
N1 N3 1_555 1_555
N2 C1 1_555 1_555
N3 C2 1_555 1_555
N4 C16 1_555 1_555
N5 C17 1_555 1_555
C1 N1 1_555 1_555
H1 C1 1_555 1_555
C2 N2 1_555 1_555
H2 C2 1_555 1_555
C3 N3 1_555 1_555
H3 C3 1_555 1_555
C4 C3 1_555 1_555
C5 C4 1_555 1_555
H4 C5 1_555 1_555
C6 C5 1_555 1_555
H5 C6 1_555 1_555
C7 C6 1_555 1_555
C8 C7 1_555 1_555
H6 C8 1_555 1_555
C9 C4 1_555 1_555
H7 C9 1_555 1_555
C10 C3 1_555 1_555
C11 C10 1_555 1_555
H8 C11 1_555 1_555
C12 C11 1_555 1_555
H9 C12 1_555 1_555
C13 C12 1_555 1_555
C14 C13 1_555 1_555
H10 C14 1_555 1_555
C15 C10 1_555 1_555
H11 C15 1_555 1_555
C16 C7 1_555 1_555
C17 C13 1_555 1_555
B1 F1 1_555 1_555
F2 B1 1_555 1_555
F3 B1 1_555 1_555
F4 B1 1_555 1_555
Cl1 C18 1_555 1_555
C18 H12 1_555 1_555
Cl2 C18 1_555 1_555
Cl3 C18 1_555 1_555
Cu1G N1 1_555 1_555
Cu1B N4 1_555 1_555
Cu1D N5 1_555 1_555
N1G Cu1 1_555 1_555
N4B Cu1 1_555 1_555
N5D Cu1 1_555 1_555
C8 C9 1_555 1_555
C14 C15 1_555 1_555

#END
