
#######################################################################
#
#                 Cambridge Crystallographic Data Centre
#                                CCDC 
#
#######################################################################
#
# If this CIF has been generated from an entry in the Cambridge 
# Structural Database, then it will include bibliographic, chemical, 
# crystal, experimental, refinement or atomic coordinate data resulting 
# from the CCDC's data processing and validation procedures.
#
#######################################################################

data_XICDAQ
_symmetry_cell_setting           triclinic
_symmetry_space_group_name_H-M   'P -1'
_symmetry_Int_Tables_number      2
_space_group_name_Hall           '-P 1'
loop_
_symmetry_equiv_pos_site_id
_symmetry_equiv_pos_as_xyz
1 x,y,z
2 -x,-y,-z
_cell_length_a                   8.559(3)
_cell_length_b                   9.301(3)
_cell_length_c                   9.768(3)
_cell_angle_alpha                94.515(8)
_cell_angle_beta                 95.466(9)
_cell_angle_gamma                97.572(10)
_cell_volume                     764.029
loop_
_atom_site_label
_atom_site_type_symbol
_atom_site_fract_x
_atom_site_fract_y
_atom_site_fract_z
Cd1 Cd 1.0000 0.0000 1.0000
N1 N 0.7345(2) 0.1414(2) 0.6327(2)
N2 N 0.8344(3) 0.0719(3) 0.5608(2)
N3 N 0.8819(2) 0.0497(2) 0.7866(2)
N4 N 0.6271(2) 0.1903(2) 0.2190(2)
N5 N 0.5632(3) 0.0476(3) 0.2133(3)
N6 N 0.7882(2) 0.0699(2) 0.1135(2)
N7 N 0.7935(3) -0.4958(2) 1.0019(3)
N8 N 0.8832(3) -0.2426(2) 0.9688(3)
N9 N 0.5455(3) -0.6493(2) 0.9069(3)
C1 C 0.6859(3) 0.3630(3) 0.5210(2)
C2 C 0.6481(3) 0.4052(3) 0.3888(2)
C3 C 0.7091(4) 0.5436(3) 0.3588(3)
H1 H 0.6846 0.5719 0.2710
C4 C 0.8050(4) 0.6401(3) 0.4557(4)
H2 H 0.8433 0.7329 0.4341
C5 C 0.8435(4) 0.5973(3) 0.5850(3)
H3 H 0.9092 0.6609 0.6510
C6 C 0.7846(4) 0.4604(3) 0.6166(3)
H4 H 0.8117 0.4326 0.7041
C7 C 0.6155(3) 0.2180(3) 0.5643(3)
H5 H 0.5362 0.2338 0.6264
H6 H 0.5628 0.1574 0.4833
C8 C 0.5445(3) 0.3065(3) 0.2778(3)
H7 H 0.4510 0.2625 0.3159
H8 H 0.5100 0.3636 0.2047
C9 C 0.9197(4) 0.0186(3) 0.6578(3)
H9 H 0.9999 -0.0362 0.6393
C10 C 0.7644(3) 0.1254(3) 0.7653(2)
H10 H 0.7095 0.1629 0.8344
C11 C 0.6638(4) -0.0196(3) 0.1486(3)
H11 H 0.6508 -0.1202 0.1286
C12 C 0.7600(3) 0.1998(3) 0.1612(3)
H12 H 0.8257 0.2865 0.1548
C13 C 0.8346(3) -0.3610(3) 0.9819(3)
C14 C 0.6583(3) -0.5698(3) 0.9483(3)
N1A N 1.2655(2) -0.1414(2) 0.3673(2)
N2A N 1.1656(3) -0.0719(3) 0.4392(2)
N3A N 1.1181(2) -0.0497(2) 0.2134(2)
N4A N 1.3729(2) -0.1903(2) 0.7810(2)
N5A N 1.4368(3) -0.0476(3) 0.7867(3)
N6A N 1.2118(2) -0.0699(2) 0.8865(2)
C1A C 1.3141(3) -0.3630(3) 0.4790(2)
C2A C 1.3519(3) -0.4052(3) 0.6112(2)
C3A C 1.2909(4) -0.5436(3) 0.6412(3)
H1A H 1.3154 -0.5719 0.7290
C4A C 1.1950(4) -0.6401(3) 0.5443(4)
H2A H 1.1567 -0.7329 0.5659
C5A C 1.1565(4) -0.5973(3) 0.4150(3)
H3A H 1.0908 -0.6609 0.3490
C6A C 1.2154(4) -0.4604(3) 0.3834(3)
H4A H 1.1883 -0.4326 0.2959
C7A C 1.3845(3) -0.2180(3) 0.4357(3)
H5A H 1.4638 -0.2338 0.3736
H6A H 1.4372 -0.1574 0.5167
C8A C 1.4555(3) -0.3065(3) 0.7222(3)
H7A H 1.5490 -0.2625 0.6841
H8A H 1.4900 -0.3636 0.7953
C9A C 1.0803(4) -0.0186(3) 0.3422(3)
H9A H 1.0001 0.0362 0.3607
C10A C 1.2356(3) -0.1254(3) 0.2347(2)
H10A H 1.2905 -0.1629 0.1656
C11A C 1.3362(4) 0.0196(3) 0.8514(3)
H11A H 1.3492 0.1202 0.8714
C12A C 1.2400(3) -0.1998(3) 0.8388(3)
H12A H 1.1743 -0.2865 0.8452
N7A N 1.2065(3) 0.4958(2) 0.9981(3)
N8A N 1.1168(3) 0.2426(2) 1.0312(3)
N9A N 1.4545(3) 0.6493(2) 1.0931(3)
C13A C 1.1654(3) 0.3610(3) 1.0181(3)
C14A C 1.3417(3) 0.5698(3) 1.0517(3)
Cd1_2 Cd 1.0000 0.0000 0.0000
N3A_2 N 1.1181(2) -0.0497(2) 1.2134(2)
N6_2 N 0.7882(2) 0.0699(2) 1.1135(2)
loop_
_geom_bond_atom_site_label_1
_geom_bond_atom_site_label_2
_geom_bond_site_symmetry_1
_geom_bond_site_symmetry_2
Cd1 N3 1_555 1_555
N1 N2 1_555 1_555
N2 C9 1_555 1_555
N3 C9 1_555 1_555
N4 N5 1_555 1_555
N5 C11 1_555 1_555
N6 C11 1_555 1_555
N7 C13 1_555 1_555
N8 Cd1 1_555 1_555
N9 C14 1_555 1_555
C1 C2 1_555 1_555
C2 C3 1_555 1_555
C3 H1 1_555 1_555
C4 C3 1_555 1_555
H2 C4 1_555 1_555
C5 C4 1_555 1_555
H3 C5 1_555 1_555
C6 C1 1_555 1_555
H4 C6 1_555 1_555
C7 N1 1_555 1_555
H5 C7 1_555 1_555
H6 C7 1_555 1_555
C8 N4 1_555 1_555
H7 C8 1_555 1_555
H8 C8 1_555 1_555
C9 H9 1_555 1_555
C10 N1 1_555 1_555
H10 C10 1_555 1_555
C11 H11 1_555 1_555
C12 N4 1_555 1_555
H12 C12 1_555 1_555
C13 N8 1_555 1_555
C14 N7 1_555 1_555
N1A N2A 1_555 1_555
N2A C9A 1_555 1_555
N3A C9A 1_555 1_555
N4A N5A 1_555 1_555
N5A C11A 1_555 1_555
N6A Cd1 1_555 1_555
C1A C2A 1_555 1_555
C2A C3A 1_555 1_555
C3A H1A 1_555 1_555
C4A C3A 1_555 1_555
H2A C4A 1_555 1_555
C5A C4A 1_555 1_555
H3A C5A 1_555 1_555
C6A C1A 1_555 1_555
H4A C6A 1_555 1_555
C7A N1A 1_555 1_555
H5A C7A 1_555 1_555
H6A C7A 1_555 1_555
C8A N4A 1_555 1_555
H7A C8A 1_555 1_555
H8A C8A 1_555 1_555
C9A H9A 1_555 1_555
C10A N1A 1_555 1_555
H10A C10A 1_555 1_555
C11A N6A 1_555 1_555
H11A C11A 1_555 1_555
C12A N4A 1_555 1_555
H12A C12A 1_555 1_555
N7A C13A 1_555 1_555
N8A Cd1 1_555 1_555
N9A C14A 1_555 1_555
C13A N8A 1_555 1_555
C14A N7A 1_555 1_555
Cd1_2 N6 1_555 1_555
N3A_2 Cd1 1_555 1_555
N6_2 Cd1 1_555 1_555
N3 C10 1_555 1_555
N6 C12 1_555 1_555
C1 C7 1_555 1_555
C2 C8 1_555 1_555
C5 C6 1_555 1_555
N3A C10A 1_555 1_555
N3A Cd1_2 1_555 1_555
N6A C12A 1_555 1_555
C1A C7A 1_555 1_555
C2A C8A 1_555 1_555
C5A C6A 1_555 1_555

#END
