
#######################################################################
#
#                 Cambridge Crystallographic Data Centre
#                                CCDC 
#
#######################################################################
#
# If this CIF has been generated from an entry in the Cambridge 
# Structural Database, then it will include bibliographic, chemical, 
# crystal, experimental, refinement or atomic coordinate data resulting 
# from the CCDC's data processing and validation procedures.
#
#######################################################################

data_XICDOC
_symmetry_cell_setting           triclinic
_symmetry_space_group_name_H-M   'P -1'
_symmetry_Int_Tables_number      2
_space_group_name_Hall           '-P 1'
loop_
_symmetry_equiv_pos_site_id
_symmetry_equiv_pos_as_xyz
1 x,y,z
2 -x,-y,-z
_cell_length_a                   8.015(4)
_cell_length_b                   9.160(7)
_cell_length_c                   11.942(9)
_cell_angle_alpha                81.20
_cell_angle_beta                 71.09
_cell_angle_gamma                74.880(10)
_cell_volume                     798.465
loop_
_atom_site_label
_atom_site_type_symbol
_atom_site_fract_x
_atom_site_fract_y
_atom_site_fract_z
Zn1 Zn 0.43862(10) 0.12257(8) 0.32713(6)
Zn2 Zn 0.01978(10) 0.25151(8) 0.53125(7)
V1 V 0.28141(14) -0.36567(12) 0.64947(9)
P1 P 0.2247(2) -0.07591(18) 0.55141(14)
P2 P 0.2850(2) 0.46088(17) 0.42753(14)
N1 N 0.6342(7) -0.0387(6) 0.2091(5)
N2 N 0.4234(7) 0.2285(6) 0.1614(5)
O1 O 0.3220(7) -0.0358(5) 0.4237(4)
O2 O 0.0938(6) 0.0596(5) 0.6153(4)
O3 O 0.1286(6) -0.2094(5) 0.5618(4)
O4 O 0.3588(6) -0.1648(5) 0.6230(4)
O5 O 0.1570(7) -0.3876(6) 0.7822(4)
O6 O 0.1447(6) 0.5832(5) 0.3817(4)
O7 O 0.4760(6) 0.4645(5) 0.3437(4)
O8 O 0.2734(6) 0.4783(5) 0.5576(4)
O9 O 0.2477(6) 0.3010(5) 0.4253(4)
C1 C 0.7352(9) -0.1721(8) 0.2336(6)
H1 H 0.7069 -0.2143 0.3144
C2 C 0.8789(11) -0.2534(9) 0.1488(8)
H2 H 0.9501 -0.3477 0.1719
C3 C 0.9160(10) -0.1979(9) 0.0316(7)
H3 H 1.0156 -0.2518 -0.0281
C4 C 0.8050(10) -0.0586(9) -0.0001(7)
C5 C 0.6696(9) 0.0168(8) 0.0927(6)
C6 C 0.8263(11) 0.0050(10) -0.1205(7)
H4 H 0.9185 -0.0475 -0.1844
C7 C 0.7163(11) 0.1358(11) -0.1448(7)
H5 H 0.7349 0.1778 -0.2255
C8 C 0.5743(11) 0.2147(8) -0.0525(6)
C9 C 0.5513(9) 0.1593(8) 0.0666(6)
C10 C 0.4527(11) 0.3512(9) -0.0729(7)
H6 H 0.4646 0.3968 -0.1522
C11 C 0.3179(11) 0.4177(9) 0.0221(7)
H7 H 0.2312 0.5074 0.0080
C12 C 0.3061(10) 0.3564(8) 0.1385(6)
H8 H 0.2118 0.4046 0.2037
O3A O -0.1286(6) 0.2094(5) 0.4382(4)
O4A O 0.6412(6) 0.1648(5) 0.3770(4)
Zn2A Zn -0.01978(10) -0.25151(8) 0.46875(7)
V1A V 0.71859(14) 0.36567(12) 0.35053(9)
Zn1A Zn 0.56138(10) -0.12257(8) 0.67287(6)
Zn2A_2 Zn -0.01978(10) 0.74849(8) 0.46875(7)
O6A O -0.1447(6) 0.4168(5) 0.6183(4)
O7A O 0.5240(6) -0.4645(5) 0.6563(4)
O8_2 O 0.2734(6) -0.5217(5) 0.5576(4)
V1_2 V 0.28141(14) 0.63433(12) 0.64947(9)
loop_
_geom_bond_atom_site_label_1
_geom_bond_atom_site_label_2
_geom_bond_site_symmetry_1
_geom_bond_site_symmetry_2
Zn1 N1 1_555 1_555
Zn2 O2 1_555 1_555
V1 O3 1_555 1_555
P1 O1 1_555 1_555
P2 O6 1_555 1_555
N1 C1 1_555 1_555
N2 Zn1 1_555 1_555
O1 Zn1 1_555 1_555
O2 P1 1_555 1_555
O3 P1 1_555 1_555
O4 V1 1_555 1_555
O5 V1 1_555 1_555
O6 Zn2A_2 1_555 1_555
O7 P2 1_555 1_555
O8 P2 1_555 1_555
O9 Zn1 1_555 1_555
C1 H1 1_555 1_555
C2 C1 1_555 1_555
H2 C2 1_555 1_555
C3 C2 1_555 1_555
H3 C3 1_555 1_555
C4 C3 1_555 1_555
C5 N1 1_555 1_555
C6 C4 1_555 1_555
H4 C6 1_555 1_555
C7 C6 1_555 1_555
H5 C7 1_555 1_555
C8 C7 1_555 1_555
C9 N2 1_555 1_555
C10 C8 1_555 1_555
H6 C10 1_555 1_555
C11 C10 1_555 1_555
H7 C11 1_555 1_555
C12 N2 1_555 1_555
H8 C12 1_555 1_555
O3A Zn2 1_555 1_555
O4A Zn1 1_555 1_555
Zn2A O3 1_555 1_555
V1A O7 1_555 1_555
Zn1A O4 1_555 1_555
O6A Zn2 1_555 1_555
O7A V1 1_555 1_555
O8_2 V1 1_555 1_555
V1_2 O8 1_555 1_555
Zn2 O9 1_555 1_555
P1 O4 1_555 1_555
P2 O9 1_555 1_555
C4 C5 1_555 1_555
C5 C9 1_555 1_555
C8 C9 1_555 1_555
C11 C12 1_555 1_555
O4A V1A 1_555 1_555

#END
