
#######################################################################
#
#                 Cambridge Crystallographic Data Centre
#                                CCDC 
#
#######################################################################
#
# If this CIF has been generated from an entry in the Cambridge 
# Structural Database, then it will include bibliographic, chemical, 
# crystal, experimental, refinement or atomic coordinate data resulting 
# from the CCDC's data processing and validation procedures.
#
#######################################################################

data_XICDOC01
_symmetry_cell_setting           triclinic
_symmetry_space_group_name_H-M   'P -1'
_symmetry_Int_Tables_number      2
_space_group_name_Hall           '-P 1'
loop_
_symmetry_equiv_pos_site_id
_symmetry_equiv_pos_as_xyz
1 x,y,z
2 -x,-y,-z
_cell_length_a                   7.9657(3)
_cell_length_b                   9.0824(4)
_cell_length_c                   11.8322(5)
_cell_angle_alpha                81.4210(10)
_cell_angle_beta                 71.3010(10)
_cell_angle_gamma                74.9980(10)
_cell_volume                     781.159
loop_
_atom_site_label
_atom_site_type_symbol
_atom_site_fract_x
_atom_site_fract_y
_atom_site_fract_z
Zn1 Zn 1.06229(4) 0.87913(4) 0.17356(3)
Zn2 Zn 1.47959(4) 0.74885(4) -0.03138(3)
V1 V 0.78120(7) 0.63377(6) 0.15032(5)
P1 P 0.72428(10) 0.92340(8) 0.05259(7)
P2 P 1.21530(10) 0.53933(8) 0.07373(7)
O1 O 1.2523(3) 0.6995(2) 0.07608(19)
O2 O 0.8598(3) 0.8339(2) 0.12397(19)
O3 O 0.5945(3) 1.0594(2) 0.11663(19)
O4 O 0.8211(3) 0.9624(2) -0.07598(19)
O5 O 0.6263(3) 0.7899(2) 0.06316(19)
O6 O 0.6559(3) 0.6106(3) 0.2844(2)
O7 O 1.0246(3) 0.5345(2) 0.15776(19)
O8 O 1.2253(3) 0.5223(2) -0.05611(19)
O9 O 1.3560(3) 0.4172(2) 0.11852(19)
N1 N 0.8663(3) 1.0406(3) 0.2917(2)
N2 N 1.0793(3) 0.7715(3) 0.3389(2)
C1 C 0.7653(4) 1.1749(4) 0.2654(3)
H1 H 0.7921 1.2162 0.1866
C2 C 0.6197(4) 1.2561(4) 0.3522(3)
H2 H 0.5488 1.3479 0.3305
C3 C 0.5827(4) 1.1993(4) 0.4695(3)
H3 H 0.4860 1.2519 0.5278
C4 C 0.6924(4) 1.0600(4) 0.5013(3)
C5 C 0.8302(4) 0.9843(3) 0.4082(3)
C6 C 0.6712(4) 0.9951(4) 0.6220(3)
H4 H 0.5793 1.0448 0.6843
C7 C 0.7832(4) 0.8624(4) 0.6464(3)
H5 H 0.7673 0.8225 0.7253
C8 C 0.9255(4) 0.7826(4) 0.5526(3)
C9 C 0.9483(4) 0.8411(3) 0.4327(3)
C10 C 1.0497(5) 0.6463(4) 0.5736(3)
H6 H 1.0402 0.6023 0.6510
C11 C 1.1846(5) 0.5801(4) 0.4776(3)
H7 H 1.2693 0.4922 0.4901
C12 C 1.1947(4) 0.6447(4) 0.3614(3)
H8 H 1.2855 0.5971 0.2977
O4A O 1.1789(3) 1.0376(2) 0.07598(19)
O3A O 1.4055(3) 0.9406(2) -0.11663(19)
O5_2 O 1.6263(3) 0.7899(2) 0.06316(19)
O9A O 1.6440(3) 0.5828(2) -0.11852(19)
O8A O 0.7747(3) 0.4777(2) 0.05611(19)
Zn2A Zn 0.52041(4) 1.25115(4) 0.03138(3)
Zn1A Zn 0.93771(4) 1.12087(4) -0.17356(3)
Zn2_2 Zn 0.47959(4) 0.74885(4) -0.03138(3)
V1A V 1.21880(7) 0.36623(6) -0.15032(5)
Zn2A_2 Zn 1.52041(4) 0.25115(4) 0.03138(3)
loop_
_geom_bond_atom_site_label_1
_geom_bond_atom_site_label_2
_geom_bond_site_symmetry_1
_geom_bond_site_symmetry_2
Zn1 O1 1_555 1_555
Zn2 O1 1_555 1_555
V1 O2 1_555 1_555
P1 O2 1_555 1_555
P2 O1 1_555 1_555
O2 Zn1 1_555 1_555
O3 P1 1_555 1_555
O4 P1 1_555 1_555
O5 V1 1_555 1_555
O6 V1 1_555 1_555
O7 V1 1_555 1_555
O8 P2 1_555 1_555
O9 P2 1_555 1_555
N1 Zn1 1_555 1_555
N2 Zn1 1_555 1_555
C1 N1 1_555 1_555
H1 C1 1_555 1_555
C2 C1 1_555 1_555
H2 C2 1_555 1_555
C3 C2 1_555 1_555
H3 C3 1_555 1_555
C4 C3 1_555 1_555
C5 N1 1_555 1_555
C6 C4 1_555 1_555
H4 C6 1_555 1_555
C7 C6 1_555 1_555
H5 C7 1_555 1_555
C8 C7 1_555 1_555
C9 N2 1_555 1_555
C10 C8 1_555 1_555
H6 C10 1_555 1_555
C11 C10 1_555 1_555
H7 C11 1_555 1_555
C12 N2 1_555 1_555
H8 C12 1_555 1_555
O4A Zn1 1_555 1_555
O3A Zn2 1_555 1_555
O5_2 Zn2 1_555 1_555
O9A Zn2 1_555 1_555
O8A V1 1_555 1_555
Zn2A O3 1_555 1_555
Zn1A O4 1_555 1_555
Zn2_2 O5 1_555 1_555
V1A O8 1_555 1_555
Zn2A_2 O9 1_555 1_555
P1 O5 1_555 1_555
P2 O7 1_555 1_555
C4 C5 1_555 1_555
C5 C9 1_555 1_555
C8 C9 1_555 1_555
C11 C12 1_555 1_555

#END
