
#######################################################################
#
#                 Cambridge Crystallographic Data Centre
#                                CCDC 
#
#######################################################################
#
# If this CIF has been generated from an entry in the Cambridge 
# Structural Database, then it will include bibliographic, chemical, 
# crystal, experimental, refinement or atomic coordinate data resulting 
# from the CCDC's data processing and validation procedures.
#
#######################################################################

data_XICDEU
_symmetry_cell_setting           monoclinic
_symmetry_space_group_name_H-M   'C 2/c'
_symmetry_Int_Tables_number      15
_space_group_name_Hall           '-C 2yn'
loop_
_symmetry_equiv_pos_site_id
_symmetry_equiv_pos_as_xyz
1 x,y,z
2 -x,y,1/2-z
3 1/2+x,1/2+y,z
4 1/2-x,1/2+y,1/2-z
5 -x,-y,-z
6 x,-y,1/2+z
7 1/2-x,1/2-y,-z
8 1/2+x,1/2-y,1/2+z
_cell_length_a                   23.410(5)
_cell_length_b                   9.1836(18)
_cell_length_c                   8.1392(17)
_cell_angle_alpha                90
_cell_angle_beta                 98.147(4)
_cell_angle_gamma                90
_cell_volume                     1732.17
loop_
_atom_site_label
_atom_site_type_symbol
_atom_site_fract_x
_atom_site_fract_y
_atom_site_fract_z
Cd1 Cd 0.7500 0.2500 0.5000
S1 S 0.81596(5) 0.27448(12) 0.80398(13)
N1 N 0.90407(11) 0.2071(3) 0.2444(3)
N2 N 0.91439(14) 0.0874(4) 0.3392(5)
N3 N 0.83239(11) 0.1929(3) 0.3857(3)
N4 N 0.76354(15) 0.5096(3) 0.9375(4)
C1 C 0.97393(13) 0.3973(4) 0.1953(4)
C2 C 0.94910(16) 0.5287(5) 0.1457(5)
H1 H 0.9143 0.5295 0.0744
C3 C 0.97401(19) 0.6577(5) 0.1979(6)
H2 H 0.9562 0.7452 0.1636
C4 C 0.94431(15) 0.2579(4) 0.1335(4)
H3 H 0.9233 0.2737 0.0233
H4 H 0.9731 0.1834 0.1253
C5 C 0.87002(16) 0.0836(4) 0.4214(5)
H5 H 0.8651 0.0112 0.4980
C6 C 0.85492(15) 0.2677(4) 0.2730(4)
H6 H 0.8388 0.3511 0.2209
C7 C 0.78440(14) 0.4130(4) 0.8800(4)
N1A N 1.09593(11) 0.2071(3) 0.2556(3)
N2A N 1.08561(14) 0.0874(4) 0.1608(5)
N3A N 1.16761(11) 0.1929(3) 0.1143(3)
C1A C 1.02607(13) 0.3973(4) 0.3047(4)
C2A C 1.05090(16) 0.5287(5) 0.3543(5)
H1A H 1.0857 0.5295 0.4256
C3A C 1.02599(19) 0.6577(5) 0.3021(6)
H2A H 1.0438 0.7452 0.3364
C4A C 1.05569(15) 0.2579(4) 0.3665(4)
H3A H 1.0767 0.2737 0.4767
H4A H 1.0269 0.1834 0.3747
C5A C 1.12998(16) 0.0836(4) 0.0786(5)
H5A H 1.1349 0.0112 0.0020
C6A C 1.14508(15) 0.2677(4) 0.2270(4)
H6A H 1.1612 0.3511 0.2791
S1F S 0.68404(5) 0.22552(12) 0.19602(13)
N4F N 0.73646(15) -0.0096(3) 0.0625(4)
C7F C 0.71560(14) 0.0870(4) 0.1200(4)
Cd1A Cd 1.2500 0.2500 0.0000
Cd1C Cd 0.7500 -0.2500 0.0000
Cd1C_2 Cd 0.7500 0.7500 1.0000
N3F N 0.66761(11) 0.3071(3) 0.6143(3)
N4C N 0.73646(15) 0.0096(3) 0.5625(4)
N4E N 0.76354(15) 0.4904(3) 0.4375(4)
loop_
_geom_bond_atom_site_label_1
_geom_bond_atom_site_label_2
_geom_bond_site_symmetry_1
_geom_bond_site_symmetry_2
Cd1 S1 1_555 1_555
S1 C7 1_555 1_555
N1 N2 1_555 1_555
N2 C5 1_555 1_555
N3 Cd1 1_555 1_555
N4 C7 1_555 1_555
C1 C2 1_555 1_555
C2 H1 1_555 1_555
C3 C2 1_555 1_555
H2 C3 1_555 1_555
C4 N1 1_555 1_555
H3 C4 1_555 1_555
H4 C4 1_555 1_555
C5 N3 1_555 1_555
H5 C5 1_555 1_555
C6 N1 1_555 1_555
H6 C6 1_555 1_555
N1A N2A 1_555 1_555
N2A C5A 1_555 1_555
N3A C5A 1_555 1_555
C1A C1 1_555 1_555
C2A C1A 1_555 1_555
H1A C2A 1_555 1_555
C3A C3 1_555 1_555
H2A C3A 1_555 1_555
C4A N1A 1_555 1_555
H3A C4A 1_555 1_555
H4A C4A 1_555 1_555
C5A H5A 1_555 1_555
C6A N1A 1_555 1_555
H6A C6A 1_555 1_555
S1F Cd1 1_555 1_555
N4F C7F 1_555 1_555
C7F S1F 1_555 1_555
Cd1A N3A 1_555 1_555
Cd1C N4F 1_555 1_555
Cd1C_2 N4 1_555 1_555
N3F Cd1 1_555 1_555
N4C Cd1 1_555 1_555
N4E Cd1 1_555 1_555
N3 C6 1_555 1_555
C1 C4 1_555 1_555
N3A C6A 1_555 1_555
C1A C4A 1_555 1_555
C2A C3A 1_555 1_555

#END
