
#######################################################################
#
#                 Cambridge Crystallographic Data Centre
#                                CCDC 
#
#######################################################################
#
# If this CIF has been generated from an entry in the Cambridge 
# Structural Database, then it will include bibliographic, chemical, 
# crystal, experimental, refinement or atomic coordinate data resulting 
# from the CCDC's data processing and validation procedures.
#
#######################################################################

data_XICFEW
_symmetry_cell_setting           triclinic
_symmetry_space_group_name_H-M   'P -1'
_symmetry_Int_Tables_number      2
_space_group_name_Hall           '-P 1'
loop_
_symmetry_equiv_pos_site_id
_symmetry_equiv_pos_as_xyz
1 x,y,z
2 -x,-y,-z
_cell_length_a                   11.5012(7)
_cell_length_b                   12.6965(8)
_cell_length_c                   15.0632(10)
_cell_angle_alpha                85.727(4)
_cell_angle_beta                 81.373(4)
_cell_angle_gamma                77.937(3)
_cell_volume                     2124.58
loop_
_atom_site_label
_atom_site_type_symbol
_atom_site_fract_x
_atom_site_fract_y
_atom_site_fract_z
Ag1 Ag 0.95647(3) 0.25925(2) 0.499997(19)
Ag2 Ag 1.0000 0.0000 0.5000
Ag3 Ag 1.0000 0.5000 0.5000
P1 P 0.89270(8) 0.15086(7) 0.72102(6)
P2 P 0.93969(8) 0.37979(7) 0.28103(6)
O1 O 0.9161(2) 0.14811(19) 0.62024(16)
O2 O 0.9269(2) 0.40196(18) 0.61276(17)
O3 O 0.9502(2) 0.37726(18) 0.37911(16)
O4 O 0.9386(2) 0.12313(19) 0.39384(17)
N1 N 0.8124(2) 0.4303(2) 0.6520(2)
N2 N 0.8286(2) 0.1442(2) 0.3677(2)
C1 C 0.8664(3) 0.2859(3) 0.7633(2)
H1 H 0.8431 0.2801 0.8292
H2 H 0.9438 0.3104 0.7527
C2 C 0.7745(3) 0.3724(3) 0.7262(2)
C3 C 0.6571(3) 0.4007(3) 0.7655(3)
H3 H 0.6287 0.3602 0.8168
C4 C 0.5802(3) 0.4874(3) 0.7313(3)
H4 H 0.4992 0.5068 0.7587
C5 C 0.6221(3) 0.5450(3) 0.6574(3)
H5 H 0.5702 0.6050 0.6332
C6 C 0.7385(3) 0.5164(3) 0.6184(3)
H6 H 0.7678 0.5570 0.5675
C7 C 0.7670(3) 0.0905(3) 0.7657(2)
C8 C 0.6935(3) 0.1202(3) 0.8459(3)
H7 H 0.7095 0.1738 0.8804
C9 C 0.5959(3) 0.0704(3) 0.8753(3)
H8 H 0.5448 0.0909 0.9294
C10 C 0.5739(3) -0.0086(3) 0.8254(3)
H9 H 0.5081 -0.0428 0.8457
C11 C 0.6469(4) -0.0381(3) 0.7465(3)
H10 H 0.6309 -0.0921 0.7125
C12 C 0.7434(3) 0.0106(3) 0.7165(3)
H11 H 0.7938 -0.0105 0.6622
C13 C 1.0204(3) 0.0834(3) 0.7730(2)
C14 C 1.1324(3) 0.1044(3) 0.7355(3)
H12 H 1.1394 0.1501 0.6829
C15 C 1.2333(3) 0.0583(3) 0.7752(3)
H13 H 1.3096 0.0725 0.7500
C16 C 1.2226(3) -0.0082(3) 0.8517(3)
H14 H 1.2920 -0.0401 0.8786
C17 C 1.1123(3) -0.0288(3) 0.8892(3)
H15 H 1.1058 -0.0742 0.9420
C18 C 1.0111(3) 0.0166(3) 0.8500(3)
H16 H 0.9351 0.0022 0.8757
C19 C 0.9146(3) 0.2532(3) 0.2445(2)
H17 H 0.9039 0.2631 0.1803
H18 H 0.9881 0.1975 0.2491
C20 C 0.8102(3) 0.2112(3) 0.2946(2)
C21 C 0.6972(3) 0.2338(3) 0.2684(3)
H19 H 0.6827 0.2806 0.2173
C22 C 0.6052(3) 0.1897(3) 0.3150(3)
H20 H 0.5277 0.2061 0.2967
C23 C 0.6277(3) 0.1210(3) 0.3890(3)
H21 H 0.5656 0.0893 0.4219
C24 C 0.7405(3) 0.0989(3) 0.4148(2)
H22 H 0.7563 0.0520 0.4655
C25 C 0.8213(3) 0.4877(3) 0.2518(2)
C26 C 0.7901(3) 0.5758(3) 0.3068(3)
H23 H 0.8277 0.5750 0.3590
C27 C 0.7041(3) 0.6645(3) 0.2854(3)
H24 H 0.6832 0.7245 0.3228
C28 C 0.6486(3) 0.6656(3) 0.2098(3)
H25 H 0.5898 0.7264 0.1952
C29 C 0.6790(3) 0.5781(3) 0.1556(3)
H26 H 0.6398 0.5786 0.1043
C30 C 0.7662(3) 0.4896(3) 0.1754(2)
H27 H 0.7881 0.4305 0.1369
C31 C 1.0748(3) 0.3987(3) 0.2098(2)
C32 C 1.1827(3) 0.3286(3) 0.2237(3)
H28 H 1.1836 0.2738 0.2703
C33 C 1.2881(3) 0.3396(3) 0.1691(3)
H29 H 1.3612 0.2916 0.1778
C34 C 1.2873(3) 0.4197(3) 0.1023(3)
H30 H 1.3601 0.4270 0.0655
C35 C 1.1821(3) 0.4894(3) 0.0882(3)
H31 H 1.1827 0.5446 0.0421
C36 C 1.0754(3) 0.4792(3) 0.1412(3)
H32 H 1.0027 0.5268 0.1310
Ag1A Ag 1.04353(3) -0.25925(2) 0.500003(19)
P1A P 1.10730(8) -0.15086(7) 0.27898(6)
P2A P 1.06031(8) -0.37979(7) 0.71897(6)
O1A O 1.0839(2) -0.14811(19) 0.37976(16)
O2A O 1.0731(2) -0.40196(18) 0.38724(17)
O3A O 1.0498(2) -0.37726(18) 0.62089(16)
O4A O 1.0614(2) -0.12313(19) 0.60616(17)
N1A N 1.1876(2) -0.4303(2) 0.3480(2)
N2A N 1.1714(2) -0.1442(2) 0.6323(2)
C1A C 1.1336(3) -0.2859(3) 0.2367(2)
H1A H 1.1569 -0.2801 0.1708
H2A H 1.0562 -0.3104 0.2473
C2A C 1.2255(3) -0.3724(3) 0.2738(2)
C3A C 1.3429(3) -0.4007(3) 0.2345(3)
H3A H 1.3713 -0.3602 0.1832
C4A C 1.4198(3) -0.4874(3) 0.2687(3)
H4A H 1.5008 -0.5068 0.2413
C5A C 1.3779(3) -0.5450(3) 0.3426(3)
H5A H 1.4298 -0.6050 0.3668
C6A C 1.2615(3) -0.5164(3) 0.3816(3)
H6A H 1.2322 -0.5570 0.4325
C7A C 1.2330(3) -0.0905(3) 0.2343(2)
C8A C 1.3065(3) -0.1202(3) 0.1541(3)
H7A H 1.2905 -0.1738 0.1196
C9A C 1.4041(3) -0.0704(3) 0.1247(3)
H8A H 1.4552 -0.0909 0.0706
C10A C 1.4261(3) 0.0086(3) 0.1746(3)
H9A H 1.4919 0.0428 0.1543
C11A C 1.3531(4) 0.0381(3) 0.2535(3)
H10A H 1.3691 0.0921 0.2875
C12A C 1.2566(3) -0.0106(3) 0.2835(3)
H11A H 1.2062 0.0105 0.3378
C13A C 0.9796(3) -0.0834(3) 0.2270(2)
C14A C 0.8676(3) -0.1044(3) 0.2645(3)
H12A H 0.8606 -0.1501 0.3171
C15A C 0.7667(3) -0.0583(3) 0.2248(3)
H13A H 0.6904 -0.0725 0.2500
C16A C 0.7774(3) 0.0082(3) 0.1483(3)
H14A H 0.7080 0.0401 0.1214
C17A C 0.8877(3) 0.0288(3) 0.1108(3)
H15A H 0.8942 0.0742 0.0580
C18A C 0.9889(3) -0.0166(3) 0.1500(3)
H16A H 1.0649 -0.0022 0.1243
C19A C 1.0854(3) -0.2532(3) 0.7555(2)
H17A H 1.0961 -0.2631 0.8197
H18A H 1.0119 -0.1975 0.7509
C20A C 1.1898(3) -0.2112(3) 0.7054(2)
C21A C 1.3028(3) -0.2338(3) 0.7316(3)
H19A H 1.3173 -0.2806 0.7827
C22A C 1.3948(3) -0.1897(3) 0.6850(3)
H20A H 1.4723 -0.2061 0.7033
C23A C 1.3723(3) -0.1210(3) 0.6110(3)
H21A H 1.4344 -0.0893 0.5781
C24A C 1.2595(3) -0.0989(3) 0.5852(2)
H22A H 1.2437 -0.0520 0.5345
C25A C 1.1787(3) -0.4877(3) 0.7482(2)
C26A C 1.2099(3) -0.5758(3) 0.6932(3)
H23A H 1.1723 -0.5750 0.6410
C27A C 1.2959(3) -0.6645(3) 0.7146(3)
H24A H 1.3168 -0.7245 0.6772
C28A C 1.3514(3) -0.6656(3) 0.7902(3)
H25A H 1.4102 -0.7264 0.8048
C29A C 1.3210(3) -0.5781(3) 0.8444(3)
H26A H 1.3602 -0.5786 0.8957
C30A C 1.2338(3) -0.4896(3) 0.8246(2)
H27A H 1.2119 -0.4305 0.8631
C31A C 0.9252(3) -0.3987(3) 0.7902(2)
C32A C 0.8173(3) -0.3286(3) 0.7763(3)
H28A H 0.8164 -0.2738 0.7297
C33A C 0.7119(3) -0.3396(3) 0.8309(3)
H29A H 0.6388 -0.2916 0.8222
C34A C 0.7127(3) -0.4197(3) 0.8977(3)
H30A H 0.6399 -0.4270 0.9345
C35A C 0.8179(3) -0.4894(3) 0.9118(3)
H31A H 0.8173 -0.5446 0.9579
C36A C 0.9246(3) -0.4792(3) 0.8588(3)
H32A H 0.9973 -0.5268 0.8690
Ag1A_2 Ag 1.04353(3) 0.74075(2) 0.500003(19)
Ag3_2 Ag 1.0000 -0.5000 0.5000
O2A_2 O 1.0731(2) 0.59804(18) 0.38724(17)
O3A_2 O 1.0498(2) 0.62274(18) 0.62089(16)
C37 C 0.8415(4) 0.7552(3) 0.0320(3)
H33 H 0.8144 0.7707 0.0960
H34 H 0.8193 0.6865 0.0209
Cl1 Cl 0.99820(9) 0.74001(8) 0.01071(7)
Cl2 Cl 0.76678(10) 0.85917(9) -0.03525(8)
C38 C 0.5354(4) 0.3291(3) 0.5418(3)
H35 H 0.4858 0.3872 0.5794
H36 H 0.4819 0.3024 0.5069
Cl3 Cl 0.60141(10) 0.22309(9) 0.61174(8)
Cl4 Cl 0.64583(10) 0.38203(9) 0.46656(8)
F1 F 0.4163(2) 0.6202(2) 0.90233(18)
F2 F 0.4266(2) 0.79191(19) 0.91862(18)
F3 F 0.26610(19) 0.7272(2) 0.98804(19)
F4 F 0.4484(2) 0.6719(2) 1.03553(16)
B1 B 0.3894(4) 0.7027(3) 0.9614(3)
F5 F 1.18418(19) 0.29033(16) 0.52396(15)
F6 F 1.18609(18) 0.13045(17) 0.46514(16)
B2 B 1.2592(4) 0.1968(3) 0.4870(3)
F7 F 1.3304(2) 0.22669(18) 0.41107(16)
F8 F 1.3298(2) 0.14414(18) 0.54945(16)
loop_
_geom_bond_atom_site_label_1
_geom_bond_atom_site_label_2
_geom_bond_site_symmetry_1
_geom_bond_site_symmetry_2
Ag1 Ag2 1_555 1_555
Ag2 O1 1_555 1_555
Ag3 Ag1 1_555 1_555
P1 O1 1_555 1_555
P2 O3 1_555 1_555
O1 Ag1 1_555 1_555
O2 Ag1 1_555 1_555
O3 Ag1 1_555 1_555
O4 Ag1 1_555 1_555
N1 O2 1_555 1_555
N2 O4 1_555 1_555
C1 P1 1_555 1_555
H1 C1 1_555 1_555
H2 C1 1_555 1_555
C2 N1 1_555 1_555
C3 C2 1_555 1_555
H3 C3 1_555 1_555
C4 C3 1_555 1_555
H4 C4 1_555 1_555
C5 C4 1_555 1_555
H5 C5 1_555 1_555
C6 N1 1_555 1_555
H6 C6 1_555 1_555
C7 P1 1_555 1_555
C8 C7 1_555 1_555
H7 C8 1_555 1_555
C9 C8 1_555 1_555
H8 C9 1_555 1_555
C10 C9 1_555 1_555
H9 C10 1_555 1_555
C11 C10 1_555 1_555
H10 C11 1_555 1_555
C12 C7 1_555 1_555
H11 C12 1_555 1_555
C13 P1 1_555 1_555
C14 C13 1_555 1_555
H12 C14 1_555 1_555
C15 C14 1_555 1_555
H13 C15 1_555 1_555
C16 C15 1_555 1_555
H14 C16 1_555 1_555
C17 C16 1_555 1_555
H15 C17 1_555 1_555
C18 C13 1_555 1_555
H16 C18 1_555 1_555
C19 P2 1_555 1_555
H17 C19 1_555 1_555
H18 C19 1_555 1_555
C20 N2 1_555 1_555
C21 C20 1_555 1_555
H19 C21 1_555 1_555
C22 C21 1_555 1_555
H20 C22 1_555 1_555
C23 C22 1_555 1_555
H21 C23 1_555 1_555
C24 N2 1_555 1_555
H22 C24 1_555 1_555
C25 P2 1_555 1_555
C26 C25 1_555 1_555
H23 C26 1_555 1_555
C27 C26 1_555 1_555
H24 C27 1_555 1_555
C28 C27 1_555 1_555
H25 C28 1_555 1_555
C29 C28 1_555 1_555
H26 C29 1_555 1_555
C30 C25 1_555 1_555
H27 C30 1_555 1_555
C31 P2 1_555 1_555
C32 C31 1_555 1_555
H28 C32 1_555 1_555
C33 C32 1_555 1_555
H29 C33 1_555 1_555
C34 C33 1_555 1_555
H30 C34 1_555 1_555
C35 C34 1_555 1_555
H31 C35 1_555 1_555
C36 C31 1_555 1_555
H32 C36 1_555 1_555
C37 H33 1_555 1_555
H34 C37 1_555 1_555
Cl1 C37 1_555 1_555
Cl2 C37 1_555 1_555
C38 H35 1_555 1_555
H36 C38 1_555 1_555
Cl3 C38 1_555 1_555
Cl4 C38 1_555 1_555
F1 B1 1_555 1_555
F2 B1 1_555 1_555
F3 B1 1_555 1_555
F4 B1 1_555 1_555
F5 B2 1_555 1_555
F6 B2 1_555 1_555
B2 F7 1_555 1_555
F8 B2 1_555 1_555
Ag1A Ag2 1_555 1_555
P1A O1A 1_555 1_555
P2A O3A 1_555 1_555
O1A Ag2 1_555 1_555
O2A Ag1A 1_555 1_555
O3A Ag1A 1_555 1_555
O4A Ag2 1_555 1_555
N1A O2A 1_555 1_555
N2A O4A 1_555 1_555
C1A P1A 1_555 1_555
H1A C1A 1_555 1_555
H2A C1A 1_555 1_555
C2A N1A 1_555 1_555
C3A C2A 1_555 1_555
H3A C3A 1_555 1_555
C4A C3A 1_555 1_555
H4A C4A 1_555 1_555
C5A C4A 1_555 1_555
H5A C5A 1_555 1_555
C6A N1A 1_555 1_555
H6A C6A 1_555 1_555
C7A P1A 1_555 1_555
C8A C7A 1_555 1_555
H7A C8A 1_555 1_555
C9A C8A 1_555 1_555
H8A C9A 1_555 1_555
C10A C9A 1_555 1_555
H9A C10A 1_555 1_555
C11A C10A 1_555 1_555
H10A C11A 1_555 1_555
C12A C7A 1_555 1_555
H11A C12A 1_555 1_555
C13A P1A 1_555 1_555
C14A C13A 1_555 1_555
H12A C14A 1_555 1_555
C15A C14A 1_555 1_555
H13A C15A 1_555 1_555
C16A C15A 1_555 1_555
H14A C16A 1_555 1_555
C17A C16A 1_555 1_555
H15A C17A 1_555 1_555
C18A C13A 1_555 1_555
H16A C18A 1_555 1_555
C19A P2A 1_555 1_555
H17A C19A 1_555 1_555
H18A C19A 1_555 1_555
C20A N2A 1_555 1_555
C21A C20A 1_555 1_555
H19A C21A 1_555 1_555
C22A C21A 1_555 1_555
H20A C22A 1_555 1_555
C23A C22A 1_555 1_555
H21A C23A 1_555 1_555
C24A N2A 1_555 1_555
H22A C24A 1_555 1_555
C25A P2A 1_555 1_555
C26A C25A 1_555 1_555
H23A C26A 1_555 1_555
C27A C26A 1_555 1_555
H24A C27A 1_555 1_555
C28A C27A 1_555 1_555
H25A C28A 1_555 1_555
C29A C28A 1_555 1_555
H26A C29A 1_555 1_555
C30A C25A 1_555 1_555
H27A C30A 1_555 1_555
C31A P2A 1_555 1_555
C32A C31A 1_555 1_555
H28A C32A 1_555 1_555
C33A C32A 1_555 1_555
H29A C33A 1_555 1_555
C34A C33A 1_555 1_555
H30A C34A 1_555 1_555
C35A C34A 1_555 1_555
H31A C35A 1_555 1_555
C36A C31A 1_555 1_555
H32A C36A 1_555 1_555
Ag1A_2 Ag3 1_555 1_555
Ag3_2 Ag1A 1_555 1_555
O2A_2 Ag3 1_555 1_555
O3A_2 Ag3 1_555 1_555
Ag2 O4 1_555 1_555
Ag3 O2 1_555 1_555
Ag3 O3 1_555 1_555
C1 C2 1_555 1_555
C5 C6 1_555 1_555
C11 C12 1_555 1_555
C17 C18 1_555 1_555
C19 C20 1_555 1_555
C23 C24 1_555 1_555
C29 C30 1_555 1_555
C35 C36 1_555 1_555
Ag1A O1A 1_555 1_555
Ag1A O4A 1_555 1_555
O2A Ag3_2 1_555 1_555
O3A Ag3_2 1_555 1_555
C1A C2A 1_555 1_555
C5A C6A 1_555 1_555
C11A C12A 1_555 1_555
C17A C18A 1_555 1_555
C19A C20A 1_555 1_555
C23A C24A 1_555 1_555
C29A C30A 1_555 1_555
C35A C36A 1_555 1_555
Ag1A_2 O2A_2 1_555 1_555
Ag1A_2 O3A_2 1_555 1_555

#END
