
#######################################################################
#
#                 Cambridge Crystallographic Data Centre
#                                CCDC 
#
#######################################################################
#
# If this CIF has been generated from an entry in the Cambridge 
# Structural Database, then it will include bibliographic, chemical, 
# crystal, experimental, refinement or atomic coordinate data resulting 
# from the CCDC's data processing and validation procedures.
#
#######################################################################

data_XICFIA
_symmetry_cell_setting           monoclinic
_symmetry_space_group_name_H-M   'C 2/c'
_symmetry_Int_Tables_number      15
_space_group_name_Hall           '-C 2yn'
loop_
_symmetry_equiv_pos_site_id
_symmetry_equiv_pos_as_xyz
1 x,y,z
2 -x,y,1/2-z
3 1/2+x,1/2+y,z
4 1/2-x,1/2+y,1/2-z
5 -x,-y,-z
6 x,-y,1/2+z
7 1/2-x,1/2-y,-z
8 1/2+x,1/2-y,1/2+z
_cell_length_a                   26.8758(13)
_cell_length_b                   9.6622(5)
_cell_length_c                   23.8190(12)
_cell_angle_alpha                90
_cell_angle_beta                 114.924(2)
_cell_angle_gamma                90
_cell_volume                     5609.25
loop_
_atom_site_label
_atom_site_type_symbol
_atom_site_fract_x
_atom_site_fract_y
_atom_site_fract_z
C21 C 0.1721(8) 0.6193(16) 0.1917(7)
H19 H 0.1879 0.6162 0.1609
H20 H 0.1326 0.5962 0.1702
Cl1 Cl 0.1798(2) 0.7863(5) 0.2233(2)
Cl2 Cl 0.20592(18) 0.4949(4) 0.25134(19)
Ag1 Ag 1.02211(2) 1.08252(5) 0.38008(2)
Ag2 Ag 1.0000 1.0000 0.5000
Ag3 Ag 1.0000 1.38406(7) 0.2500
S1 S 0.89089(7) 0.78730(17) 0.47947(8)
S2 S 0.92076(7) 1.08452(16) 0.21285(7)
P1 P 1.04607(7) 0.71739(16) 0.42830(7)
F1 F 0.7907(2) 0.8168(8) 0.3954(3)
F2 F 0.7980(2) 0.6713(6) 0.4637(3)
F3 F 0.8023(3) 0.8887(7) 0.4844(4)
F4 F 0.8331(2) 1.2234(6) 0.1992(2)
F5 F 0.82554(19) 1.1116(5) 0.1182(2)
F6 F 0.8224(2) 1.0025(6) 0.1949(3)
O1 O 1.03015(18) 0.8131(5) 0.5690(2)
O2 O 1.03451(19) 0.8680(4) 0.4303(2)
O3 O 0.9029(2) 0.9185(5) 0.4602(3)
O4 O 0.9097(2) 0.7686(6) 0.5454(3)
O5 O 0.9000(3) 0.6701(6) 0.4484(3)
O6 O 0.9363(2) 1.0841(5) 0.2786(2)
O7 O 0.9384(2) 1.2064(5) 0.1904(2)
O8 O 0.9301(2) 0.9569(5) 0.1874(2)
N1 N 1.0833(2) 0.7821(6) 0.5862(2)
C1 C 1.0504(3) 0.6251(7) 0.4966(3)
H1 H 1.0569 0.5256 0.4925
H2 H 1.0152 0.6342 0.5004
C2 C 1.0961(3) 0.6824(7) 0.5536(3)
C3 C 1.1503(3) 0.6435(7) 0.5742(3)
H3 H 1.1601 0.5737 0.5526
C4 C 1.1904(3) 0.7042(9) 0.6258(3)
H4 H 1.2276 0.6758 0.6404
C5 C 1.1752(3) 0.8082(9) 0.6558(3)
H5 H 1.2024 0.8532 0.6907
C6 C 1.1220(3) 0.8458(8) 0.6355(3)
H6 H 1.1119 0.9172 0.6562
C7 C 1.1104(3) 0.6858(7) 0.4239(3)
C8 C 1.1252(3) 0.5513(7) 0.4151(3)
H7 H 1.1010 0.4761 0.4107
C9 C 1.1754(3) 0.5284(8) 0.4126(3)
H8 H 1.1855 0.4374 0.4064
C10 C 1.2104(3) 0.6379(9) 0.4194(4)
H9 H 1.2444 0.6226 0.4172
C11 C 1.1958(3) 0.7702(8) 0.4293(4)
H10 H 1.2204 0.8450 0.4348
C12 C 1.1455(3) 0.7940(7) 0.4311(3)
H11 H 1.1355 0.8851 0.4373
C13 C 0.9945(3) 0.6314(6) 0.3623(3)
C14 C 0.9687(3) 0.7106(7) 0.3083(3)
H12 H 0.9768 0.8064 0.3086
C15 C 0.9318(3) 0.6491(7) 0.2550(3)
H13 H 0.9144 0.7027 0.2184
C16 C 0.9196(3) 0.5084(8) 0.2543(3)
H14 H 0.8942 0.4664 0.2172
C17 C 0.9447(3) 0.4296(7) 0.3081(3)
H15 H 0.9359 0.3343 0.3078
C18 C 0.9824(3) 0.4902(6) 0.3617(3)
H16 H 1.0001 0.4363 0.3981
C19 C 0.8163(4) 0.7912(10) 0.4531(5)
C20 C 0.8462(3) 1.1073(8) 0.1787(4)
H17 H 1.035504 1.485659 0.148386
H18 H 1.121371 1.478314 0.278738
Ag1A Ag 0.97789(2) 1.08252(5) 0.11992(2)
S2A S 1.07924(7) 1.08452(16) 0.28715(7)
P1A P 0.95393(7) 0.71739(16) 0.07170(7)
F4A F 1.1669(2) 1.2234(6) 0.3008(2)
F5A F 1.17446(19) 1.1116(5) 0.3818(2)
F6A F 1.1776(2) 1.0025(6) 0.3051(3)
O1A O 0.96985(18) 0.8131(5) -0.0690(2)
O2A O 0.96549(19) 0.8680(4) 0.0697(2)
O6A O 1.0637(2) 1.0841(5) 0.2214(2)
O7A O 1.0616(2) 1.2064(5) 0.3096(2)
O8A O 1.0699(2) 0.9569(5) 0.3126(2)
N1A N 0.9167(2) 0.7821(6) -0.0862(2)
C1A C 0.9496(3) 0.6251(7) 0.0034(3)
H1A H 0.9431 0.5256 0.0075
H2A H 0.9848 0.6342 -0.0004
C2A C 0.9039(3) 0.6824(7) -0.0536(3)
C3A C 0.8497(3) 0.6435(7) -0.0742(3)
H3A H 0.8399 0.5737 -0.0526
C4A C 0.8096(3) 0.7042(9) -0.1258(3)
H4A H 0.7724 0.6758 -0.1404
C5A C 0.8248(3) 0.8082(9) -0.1558(3)
H5A H 0.7976 0.8532 -0.1907
C6A C 0.8780(3) 0.8458(8) -0.1355(3)
H6A H 0.8881 0.9172 -0.1562
C7A C 0.8896(3) 0.6858(7) 0.0761(3)
C8A C 0.8748(3) 0.5513(7) 0.0849(3)
H7A H 0.8990 0.4761 0.0893
C9A C 0.8246(3) 0.5284(8) 0.0874(3)
H8A H 0.8145 0.4374 0.0936
C10A C 0.7896(3) 0.6379(9) 0.0806(4)
H9A H 0.7556 0.6226 0.0828
C11A C 0.8042(3) 0.7702(8) 0.0707(4)
H10A H 0.7796 0.8450 0.0652
C12A C 0.8545(3) 0.7940(7) 0.0689(3)
H11A H 0.8645 0.8851 0.0627
C13A C 1.0055(3) 0.6314(6) 0.1377(3)
C14A C 1.0313(3) 0.7106(7) 0.1917(3)
H12A H 1.0232 0.8064 0.1914
C15A C 1.0682(3) 0.6491(7) 0.2450(3)
H13A H 1.0856 0.7027 0.2816
C16A C 1.0804(3) 0.5084(8) 0.2457(3)
H14A H 1.1058 0.4664 0.2828
C17A C 1.0553(3) 0.4296(7) 0.1919(3)
H15A H 1.0641 0.3343 0.1922
C18A C 1.0176(3) 0.4902(6) 0.1383(3)
H16A H 0.9999 0.4363 0.1019
C20A C 1.1538(3) 1.1073(8) 0.3213(4)
S1D S 1.10911(7) 1.21270(17) 0.52053(8)
F1D F 1.2093(2) 1.1832(8) 0.6046(3)
F2D F 1.2020(2) 1.3287(6) 0.5363(3)
F3D F 1.1977(3) 1.1113(7) 0.5156(4)
O3D O 1.0971(2) 1.0815(5) 0.5398(3)
O4D O 1.0903(2) 1.2314(6) 0.4546(3)
O5D O 1.1000(3) 1.3299(6) 0.5516(3)
C19D C 1.1837(4) 1.2088(10) 0.5469(5)
Ag1D Ag 0.97789(2) 0.91748(5) 0.61992(2)
Ag1E Ag 1.02211(2) 0.91748(5) -0.11992(2)
Ag2A Ag 1.0000 1.0000 0.0000
Ag3_2 Ag 1.0000 0.38406(7) 0.2500
O1D O 0.96985(18) 1.1869(5) 0.4310(2)
O1E O 1.03015(18) 1.1869(5) 0.0690(2)
O2D O 0.96549(19) 1.1320(4) 0.5697(2)
O4E O 0.9097(2) 1.2314(6) 0.0454(3)
C16_2 C 0.9196(3) 1.5084(8) 0.2543(3)
C16A_2 C 1.0804(3) 1.5084(8) 0.2457(3)
C17_2 C 0.9447(3) 1.4296(7) 0.3081(3)
C17A_2 C 1.0553(3) 1.4296(7) 0.1919(3)
H17A H 0.964496 1.485659 0.351614
H18A H 0.878629 1.478314 0.221262
loop_
_geom_bond_atom_site_label_1
_geom_bond_atom_site_label_2
_geom_bond_site_symmetry_1
_geom_bond_site_symmetry_2
Ag1 O2 1_555 1_555
Ag2 O1 1_555 1_555
Ag3 O7 1_555 1_555
S1 O3 1_555 1_555
S2 O6 1_555 1_555
P1 O2 1_555 1_555
F1 C19 1_555 1_555
F2 C19 1_555 1_555
F3 C19 1_555 1_555
F4 C20 1_555 1_555
F5 C20 1_555 1_555
F6 C20 1_555 1_555
O1 N1 1_555 1_555
O2 Ag2 1_555 1_555
O3 Ag2 1_555 1_555
O4 S1 1_555 1_555
O5 S1 1_555 1_555
O6 Ag1 1_555 1_555
O7 S2 1_555 1_555
O8 S2 1_555 1_555
N1 C2 1_555 1_555
C1 P1 1_555 1_555
H1 C1 1_555 1_555
H2 C1 1_555 1_555
C2 C1 1_555 1_555
C3 C2 1_555 1_555
H3 C3 1_555 1_555
C4 C3 1_555 1_555
H4 C4 1_555 1_555
C5 C4 1_555 1_555
H5 C5 1_555 1_555
C6 N1 1_555 1_555
H6 C6 1_555 1_555
C7 P1 1_555 1_555
C8 C7 1_555 1_555
H7 C8 1_555 1_555
C9 C8 1_555 1_555
H8 C9 1_555 1_555
C10 C9 1_555 1_555
H9 C10 1_555 1_555
C11 C10 1_555 1_555
H10 C11 1_555 1_555
C12 C7 1_555 1_555
H11 C12 1_555 1_555
C13 P1 1_555 1_555
C14 C13 1_555 1_555
H12 C14 1_555 1_555
C15 C14 1_555 1_555
H13 C15 1_555 1_555
C16 C15 1_555 1_555
H14 C16 1_555 1_555
C17 C16 1_555 1_555
H15 C17 1_555 1_555
C18 C13 1_555 1_555
H16 C18 1_555 1_555
C19 S1 1_555 1_555
C20 S2 1_555 1_555
H17 C17A_2 1_555 1_555
H18 C16A_2 1_555 1_555
C21 H19 1_555 1_555
H20 C21 1_555 1_555
Cl1 C21 1_555 1_555
Cl2 C21 1_555 1_555
Ag1A O7 1_555 1_555
S2A O6A 1_555 1_555
P1A O2A 1_555 1_555
F4A C20A 1_555 1_555
F5A C20A 1_555 1_555
F6A C20A 1_555 1_555
O1A N1A 1_555 1_555
O2A Ag1A 1_555 1_555
O6A Ag1A 1_555 1_555
O7A Ag1 1_555 1_555
O8A S2A 1_555 1_555
N1A C2A 1_555 1_555
C1A P1A 1_555 1_555
H1A C1A 1_555 1_555
H2A C1A 1_555 1_555
C2A C1A 1_555 1_555
C3A C2A 1_555 1_555
H3A C3A 1_555 1_555
C4A C3A 1_555 1_555
H4A C4A 1_555 1_555
C5A C4A 1_555 1_555
H5A C5A 1_555 1_555
C6A N1A 1_555 1_555
H6A C6A 1_555 1_555
C7A P1A 1_555 1_555
C8A C7A 1_555 1_555
H7A C8A 1_555 1_555
C9A C8A 1_555 1_555
H8A C9A 1_555 1_555
C10A C9A 1_555 1_555
H9A C10A 1_555 1_555
C11A C10A 1_555 1_555
H10A C11A 1_555 1_555
C12A C7A 1_555 1_555
H11A C12A 1_555 1_555
C13A P1A 1_555 1_555
C14A C13A 1_555 1_555
H12A C14A 1_555 1_555
C15A C14A 1_555 1_555
H13A C15A 1_555 1_555
C16A C15A 1_555 1_555
H14A C16A 1_555 1_555
C17A C16A 1_555 1_555
H15A C17A 1_555 1_555
C18A C13A 1_555 1_555
H16A C18A 1_555 1_555
C20A S2A 1_555 1_555
S1D O3D 1_555 1_555
F1D C19D 1_555 1_555
F2D C19D 1_555 1_555
F3D C19D 1_555 1_555
O3D Ag2 1_555 1_555
O4D Ag1 1_555 1_555
O5D S1D 1_555 1_555
C19D S1D 1_555 1_555
Ag1D O1 1_555 1_555
Ag1E O1A 1_555 1_555
Ag2A O1A 1_555 1_555
Ag3_2 C16 1_555 1_555
O1D Ag1 1_555 1_555
O1E Ag1A 1_555 1_555
O2D Ag2 1_555 1_555
O4E Ag1A 1_555 1_555
C16_2 Ag3 1_555 1_555
C16A_2 Ag3 1_555 1_555
C17_2 Ag3 1_555 1_555
C17A_2 Ag3 1_555 1_555
H17A C17_2 1_555 1_555
H18A C16_2 1_555 1_555
Ag2 O1D 1_555 1_555
Ag3 O7A 1_555 1_555
O4 Ag1D 1_555 1_555
C5 C6 1_555 1_555
C11 C12 1_555 1_555
C17 C18 1_555 1_555
C17 Ag3_2 1_555 1_555
S2A O7A 1_555 1_555
O2A Ag2A 1_555 1_555
C5A C6A 1_555 1_555
C11A C12A 1_555 1_555
C16A Ag3_2 1_555 1_555
C17A C18A 1_555 1_555
C17A Ag3_2 1_555 1_555
S1D O4D 1_555 1_555
Ag1D O2D 1_555 1_555
Ag2A O1E 1_555 1_555
C16_2 C17_2 1_555 1_555
C16A_2 C17A_2 1_555 1_555

#END
