
#######################################################################
#
#                 Cambridge Crystallographic Data Centre
#                                CCDC 
#
#######################################################################
#
# If this CIF has been generated from an entry in the Cambridge 
# Structural Database, then it will include bibliographic, chemical, 
# crystal, experimental, refinement or atomic coordinate data resulting 
# from the CCDC's data processing and validation procedures.
#
#######################################################################

data_XICHEY
_symmetry_cell_setting           orthorhombic
_symmetry_space_group_name_H-M   'P b c a'
_symmetry_Int_Tables_number      61
_space_group_name_Hall           '-P 2ac 2ab'
loop_
_symmetry_equiv_pos_site_id
_symmetry_equiv_pos_as_xyz
1 x,y,z
2 1/2-x,-y,1/2+z
3 1/2+x,1/2-y,-z
4 -x,1/2+y,1/2-z
5 -x,-y,-z
6 1/2+x,y,1/2-z
7 1/2-x,1/2+y,z
8 x,1/2-y,1/2+z
_cell_length_a                   16.811(3)
_cell_length_b                   13.891(3)
_cell_length_c                   20.743(4)
_cell_angle_alpha                90
_cell_angle_beta                 90
_cell_angle_gamma                90
_cell_volume                     4843.94
loop_
_atom_site_label
_atom_site_type_symbol
_atom_site_fract_x
_atom_site_fract_y
_atom_site_fract_z
C1 C 0.14722(16) 0.7641(2) 0.00756(14)
C2 C 0.19757(17) 0.7604(2) -0.05221(14)
C3 C 0.16326(17) 0.75468(19) -0.11303(14)
H1 H 0.1070 0.7556 -0.1169
C4 C 0.20916(17) 0.7477(2) -0.16776(14)
C5 C 0.29217(18) 0.7476(2) -0.16198(14)
H2 H 0.3245 0.7431 -0.1994
C6 C 0.32714(18) 0.7542(2) -0.10167(14)
C7 C 0.28003(17) 0.7605(2) -0.04690(15)
H3 H 0.3042 0.7649 -0.0056
C8 C 0.17188(17) 0.74069(19) -0.23373(14)
C9 C 0.41554(19) 0.7510(2) -0.09555(15)
C10 C 0.0401(3) 0.5568(3) 0.1912(2)
H4 H 0.0057 0.5956 0.2166
C11 C 0.0364(2) 0.4582(3) 0.1992(2)
H5 H -0.0002 0.4313 0.2290
C12 C 0.08475(19) 0.4001(2) 0.16488(17)
C13 C 0.1349(3) 0.4453(3) 0.1222(3)
H6 H 0.1698 0.4081 0.0961
C14 C 0.1350(3) 0.5447(3) 0.1169(2)
H7 H 0.1707 0.5737 0.0872
C15 C 0.0832(2) 0.2911(3) 0.17438(18)
H8 H 0.1175 0.2744 0.2116
H9 H 0.0282 0.2711 0.1850
C16 C 0.1103(3) 0.2369(2) 0.1177(2)
H10 H 0.1664 0.2536 0.1084
H11 H 0.0779 0.2555 0.0798
C17 C 0.1037(2) 0.1291(3) 0.12803(18)
C18 C 0.1568(2) 0.0796(3) 0.1662(2)
H12 H 0.1972 0.1136 0.1888
C19 C 0.1514(2) -0.0190(2) 0.1717(2)
H13 H 0.1898 -0.0515 0.1973
C20 C 0.0433(2) -0.0231(2) 0.10750(19)
H14 H 0.0024 -0.0588 0.0868
C21 C 0.0448(3) 0.0755(3) 0.09879(19)
H15 H 0.0057 0.1061 0.0729
N1 N 0.08824(14) 0.60055(18) 0.15064(12)
N2 N 0.09553(14) -0.07069(18) 0.14314(12)
O1 O 0.18049(13) 0.75666(15) 0.06098(10)
O2 O 0.07360(13) 0.77539(19) -0.00025(12)
O3 O 0.09697(11) 0.73670(15) -0.23680(10)
O4 O 0.21577(12) 0.73927(14) -0.28254(9)
O5 O 0.45919(11) 0.73327(14) -0.14085(10)
O6 O 0.44044(15) 0.7704(3) -0.03786(12)
Cd1 Cd 0.101594(11) 0.764625(14) 0.149312(9)
H16 H 0.490(4) 0.746(4) -0.031(4)
N2_2 N 0.09553(14) 0.92931(18) 0.14314(12)
O3G O 0.09697(11) 0.76330(15) 0.26320(10)
O4G O 0.21577(12) 0.76073(14) 0.21746(9)
O5B O -0.04081(11) 0.76673(14) 0.14085(10)
Cd1_2 Cd 0.101594(11) -0.235375(14) 0.149312(9)
Cd1B Cd 0.601594(11) 0.735375(14) -0.149312(9)
Cd1G Cd 0.101594(11) 0.735375(14) -0.350688(9)
loop_
_geom_bond_atom_site_label_1
_geom_bond_atom_site_label_2
_geom_bond_site_symmetry_1
_geom_bond_site_symmetry_2
C1 C2 1_555 1_555
C2 C3 1_555 1_555
C3 H1 1_555 1_555
C4 C3 1_555 1_555
C5 C4 1_555 1_555
H2 C5 1_555 1_555
C6 C5 1_555 1_555
C7 C2 1_555 1_555
H3 C7 1_555 1_555
C8 C4 1_555 1_555
C9 C6 1_555 1_555
C10 H4 1_555 1_555
C11 C10 1_555 1_555
H5 C11 1_555 1_555
C12 C11 1_555 1_555
C13 C12 1_555 1_555
H6 C13 1_555 1_555
C14 C13 1_555 1_555
H7 C14 1_555 1_555
C15 C12 1_555 1_555
H8 C15 1_555 1_555
H9 C15 1_555 1_555
C16 C15 1_555 1_555
H10 C16 1_555 1_555
H11 C16 1_555 1_555
C17 C16 1_555 1_555
C18 C17 1_555 1_555
H12 C18 1_555 1_555
C19 C18 1_555 1_555
H13 C19 1_555 1_555
C20 H14 1_555 1_555
C21 C17 1_555 1_555
H15 C21 1_555 1_555
N1 C10 1_555 1_555
N2 C19 1_555 1_555
O1 C1 1_555 1_555
O2 C1 1_555 1_555
O3 C8 1_555 1_555
O4 C8 1_555 1_555
O5 C9 1_555 1_555
O6 C9 1_555 1_555
Cd1 N1 1_555 1_555
H16 O6 1_555 1_555
N2_2 Cd1 1_555 1_555
O3G Cd1 1_555 1_555
O4G Cd1 1_555 1_555
O5B Cd1 1_555 1_555
Cd1_2 N2 1_555 1_555
Cd1B O5 1_555 1_555
Cd1G O3 1_555 1_555
C6 C7 1_555 1_555
C14 N1 1_555 1_555
C20 C21 1_555 1_555
C20 N2 1_555 1_555
O1 Cd1 1_555 1_555
O4 Cd1G 1_555 1_555

#END
