
#######################################################################
#
#                 Cambridge Crystallographic Data Centre
#                                CCDC 
#
#######################################################################
#
# If this CIF has been generated from an entry in the Cambridge 
# Structural Database, then it will include bibliographic, chemical, 
# crystal, experimental, refinement or atomic coordinate data resulting 
# from the CCDC's data processing and validation procedures.
#
#######################################################################

data_XICJOK
_symmetry_cell_setting           triclinic
_symmetry_space_group_name_H-M   'P -1'
_symmetry_Int_Tables_number      2
_space_group_name_Hall           '-P 1'
loop_
_symmetry_equiv_pos_site_id
_symmetry_equiv_pos_as_xyz
1 x,y,z
2 -x,-y,-z
_cell_length_a                   10.300(2)
_cell_length_b                   11.960(2)
_cell_length_c                   14.114(3)
_cell_angle_alpha                70.96(3)
_cell_angle_beta                 70.79(3)
_cell_angle_gamma                66.70(3)
_cell_volume                     1468.92
loop_
_atom_site_label
_atom_site_type_symbol
_atom_site_fract_x
_atom_site_fract_y
_atom_site_fract_z
Cd1 Cd 0.554434(17) 0.194293(16) 0.537123(12)
N1 N 0.5646(2) 0.33726(18) 0.37858(14)
N2 N 0.5741(2) 1.0167(2) -0.32968(15)
O1 O 0.32117(18) 0.30913(17) 0.61646(13)
O2 O 0.32634(17) 0.18827(16) 0.52554(13)
O3 O -0.1551(2) 0.15247(18) 0.54107(14)
O4 O -0.35479(17) 0.30390(16) 0.58617(12)
O5 O 0.76418(19) 0.60885(16) -0.09214(12)
O6 O 0.6772(2) 0.05290(17) 0.42811(13)
H1 H 0.7663 0.0470 0.4038
H2 H 0.6735 -0.0206 0.4417
C1 C 0.0947(2) 0.3231(2) 0.59623(17)
C2 C 0.0209(3) 0.4301(3) 0.63486(19)
H3 H 0.0729 0.4694 0.6494
C3 C -0.1285(3) 0.4790(3) 0.6520(2)
H4 H -0.1780 0.5520 0.6775
C4 C -0.2054(3) 0.4211(2) 0.6317(2)
H5 H -0.3073 0.4539 0.6449
C5 C -0.1339(2) 0.3151(2) 0.59232(17)
C6 C 0.0168(2) 0.2670(2) 0.57406(17)
H6 H 0.0664 0.1956 0.5464
C7 C 0.2575(3) 0.2702(2) 0.57821(18)
C8 C -0.2195(3) 0.2530(2) 0.57123(17)
C9 C 0.6058(3) 0.4369(2) 0.35798(17)
H7 H 0.6193 0.4568 0.4124
C10 C 0.6295(3) 0.5124(2) 0.26037(17)
H8 H 0.6579 0.5820 0.2496
C11 C 0.6111(3) 0.4847(2) 0.17890(17)
C12 C 0.5595(3) 0.3859(2) 0.20119(18)
H9 H 0.5390 0.3673 0.1490
C13 C 0.5384(3) 0.3151(2) 0.30062(18)
H10 H 0.5039 0.2481 0.3143
C14 C 0.4693(3) 1.0077(3) -0.2448(2)
H11 H 0.3806 1.0735 -0.2418
C15 C 0.4826(3) 0.9079(3) -0.1608(2)
H12 H 0.4044 0.9067 -0.1029
C16 C 0.6128(3) 0.8087(2) -0.16221(18)
C17 C 0.7217(3) 0.8164(2) -0.25244(19)
H13 H 0.8107 0.7510 -0.2584
C18 C 0.6986(3) 0.9190(3) -0.33213(19)
H14 H 0.7737 0.9217 -0.3919
C19 C 0.4006(3) 0.8270(3) 0.1319(2)
H15 H 0.4845 0.8325 0.1403
C20 C 0.2657(4) 0.8987(3) 0.1775(3)
H16 H 0.2589 0.9529 0.2157
C21 C 0.1436(4) 0.8912(3) 0.1676(2)
H17 H 0.0517 0.9394 0.1989
C22 C 0.1552(4) 0.8136(4) 0.1121(3)
H18 H 0.0707 0.8088 0.1041
C23 C 0.2902(4) 0.7408(4) 0.0665(3)
H19 H 0.2958 0.6858 0.0296
C24 C 0.4146(3) 0.7479(2) 0.07451(18)
C25 C 1.0053(3) 0.3949(3) -0.0970(2)
H20 H 0.9899 0.4552 -0.1582
C26 C 1.1285(3) 0.2908(3) -0.0996(2)
H21 H 1.1952 0.2805 -0.1627
C27 C 1.1545(3) 0.2028(3) -0.0115(3)
H22 H 1.2382 0.1320 -0.0139
C28 C 1.0565(3) 0.2189(3) 0.0808(2)
H23 H 1.0749 0.1589 0.1416
C29 C 0.9325(3) 0.3209(3) 0.0858(2)
H24 H 0.8671 0.3301 0.1496
C30 C 0.9032(3) 0.4115(2) -0.00397(19)
C31 C 0.6478(3) 0.5553(2) 0.07068(17)
C32 C 0.5592(3) 0.6734(2) 0.02422(17)
C33 C 0.6352(3) 0.7025(2) -0.07553(18)
C34 C 0.7721(3) 0.5189(2) -0.00190(18)
Cd1_2 Cd -0.445566(17) 0.194293(16) 0.537123(12)
Cd1_3 Cd 0.554434(17) 1.194293(16) -0.462877(12)
N2_2 N 0.5741(2) 0.0167(2) 0.67032(15)
O4_2 O 0.64521(17) 0.30390(16) 0.58617(12)
O7 O 0.0409(2) -0.0644(2) 0.63841(16)
H25 H -0.0199 0.0053 0.6174
H26 H 0.0734 -0.1078 0.5934
loop_
_geom_bond_atom_site_label_1
_geom_bond_atom_site_label_2
_geom_bond_site_symmetry_1
_geom_bond_site_symmetry_2
Cd1 N1 1_555 1_555
N1 C9 1_555 1_555
N2 C14 1_555 1_555
O1 Cd1 1_555 1_555
O2 Cd1 1_555 1_555
O3 C8 1_555 1_555
O4 C8 1_555 1_555
O5 C33 1_555 1_555
O6 Cd1 1_555 1_555
H1 O6 1_555 1_555
H2 O6 1_555 1_555
C1 C2 1_555 1_555
C2 H3 1_555 1_555
C3 C2 1_555 1_555
H4 C3 1_555 1_555
C4 C3 1_555 1_555
H5 C4 1_555 1_555
C5 C4 1_555 1_555
C6 C1 1_555 1_555
H6 C6 1_555 1_555
C7 O1 1_555 1_555
C8 C5 1_555 1_555
C9 H7 1_555 1_555
C10 C9 1_555 1_555
H8 C10 1_555 1_555
C11 C10 1_555 1_555
C12 C11 1_555 1_555
H9 C12 1_555 1_555
C13 N1 1_555 1_555
H10 C13 1_555 1_555
C14 H11 1_555 1_555
C15 C14 1_555 1_555
H12 C15 1_555 1_555
C16 C15 1_555 1_555
C17 C16 1_555 1_555
H13 C17 1_555 1_555
C18 N2 1_555 1_555
H14 C18 1_555 1_555
C19 H15 1_555 1_555
C20 C19 1_555 1_555
H16 C20 1_555 1_555
C21 C20 1_555 1_555
H17 C21 1_555 1_555
C22 C21 1_555 1_555
H18 C22 1_555 1_555
C23 C22 1_555 1_555
H19 C23 1_555 1_555
C24 C19 1_555 1_555
C25 H20 1_555 1_555
C26 C25 1_555 1_555
H21 C26 1_555 1_555
C27 C26 1_555 1_555
H22 C27 1_555 1_555
C28 C27 1_555 1_555
H23 C28 1_555 1_555
C29 C28 1_555 1_555
H24 C29 1_555 1_555
C30 C25 1_555 1_555
C31 C11 1_555 1_555
C32 C24 1_555 1_555
C33 C16 1_555 1_555
C34 O5 1_555 1_555
O7 H25 1_555 1_555
H26 O7 1_555 1_555
Cd1_2 O4 1_555 1_555
Cd1_3 N2 1_555 1_555
N2_2 Cd1 1_555 1_555
O4_2 Cd1 1_555 1_555
O2 C7 1_555 1_555
C1 C7 1_555 1_555
C5 C6 1_555 1_555
C12 C13 1_555 1_555
C17 C18 1_555 1_555
C23 C24 1_555 1_555
C29 C30 1_555 1_555
C30 C34 1_555 1_555
C31 C32 1_555 1_555
C31 C34 1_555 1_555
C32 C33 1_555 1_555

#END
