
#######################################################################
#
#                 Cambridge Crystallographic Data Centre
#                                CCDC 
#
#######################################################################
#
# If this CIF has been generated from an entry in the Cambridge 
# Structural Database, then it will include bibliographic, chemical, 
# crystal, experimental, refinement or atomic coordinate data resulting 
# from the CCDC's data processing and validation procedures.
#
#######################################################################

data_XICJUQ
_symmetry_cell_setting           triclinic
_symmetry_space_group_name_H-M   'P -1'
_symmetry_Int_Tables_number      2
_space_group_name_Hall           '-P 1'
loop_
_symmetry_equiv_pos_site_id
_symmetry_equiv_pos_as_xyz
1 x,y,z
2 -x,-y,-z
_cell_length_a                   10.298(2)
_cell_length_b                   10.631(2)
_cell_length_c                   14.608(3)
_cell_angle_alpha                107.72(3)
_cell_angle_beta                 93.61(3)
_cell_angle_gamma                108.14(3)
_cell_volume                     1425.52
loop_
_atom_site_label
_atom_site_type_symbol
_atom_site_fract_x
_atom_site_fract_y
_atom_site_fract_z
Cd1 Cd 0.62347(7) 0.41552(8) 0.55156(7)
N1 N 0.6931(7) 0.6116(9) 0.6884(7)
N2 N 0.5466(8) 0.2316(9) 0.4057(8)
O1 O 0.7302(7) 0.2843(8) 0.6157(6)
O2 O 0.8553(6) 0.4149(7) 0.5413(5)
O3 O 1.4287(6) 0.3011(7) 0.6044(6)
O4 O 1.3648(6) 0.4404(7) 0.5409(5)
C1 C 0.6773(13) 0.6020(15) 0.7747(11)
H1 H 0.6273 0.5133 0.7779
C2 C 0.7327(17) 0.7209(18) 0.8661(11)
H2 H 0.7182 0.7097 0.9265
C3 C 0.8090(15) 0.8533(15) 0.8605(11)
C4 C 0.8157(11) 0.8630(13) 0.7702(10)
H3 H 0.8569 0.9510 0.7629
C5 C 0.7604(10) 0.7403(12) 0.6878(9)
H4 H 0.7720 0.7499 0.6266
C6 C 0.9086(14) 0.9896(16) 0.9461(11)
H5 H 0.8865 1.0740 0.9465
C7 C 0.9257(13) 0.9819(18) 1.0524(13)
H6 H 0.8782 0.8838 1.0494
C8 C 0.8766(16) 1.0837(14) 1.1324(12)
C9 C 0.8339(12) 1.0452(13) 1.2116(10)
H7 H 0.8007 0.9498 1.2062
C10 C 0.8408(11) 1.1476(13) 1.2971(10)
H8 H 0.8122 1.1223 1.3508
C11 C 0.8890(12) 1.2869(13) 1.3053(10)
H9 H 0.8989 1.3561 1.3661
C12 C 0.9228(13) 1.3274(14) 1.2276(11)
H10 H 0.9516 1.4227 1.2328
C13 C 0.9129(13) 1.2207(14) 1.1390(10)
H11 H 0.9319 1.2451 1.0833
C14 C 0.5582(10) 0.2437(12) 0.3148(10)
H12 H 0.5965 0.3347 0.3118
C15 C 0.5169(11) 0.1304(14) 0.2274(10)
H13 H 0.5243 0.1450 0.1674
C16 C 0.4654(12) -0.0023(14) 0.2311(11)
C17 C 0.4492(12) -0.0220(12) 0.3223(11)
H14 H 0.4120 -0.1124 0.3264
C18 C 0.4908(11) 0.0978(12) 0.4046(10)
H15 H 0.4792 0.0851 0.4648
C19 C 0.4181(15) -0.1261(15) 0.1355(12)
H16 H 0.4483 -0.1127 0.0787
C20 C 0.335(2) -0.2536(17) 0.1305(15)
H17 H 0.3033 -0.2677 0.1869
C21 C 0.2902(15) -0.3747(12) 0.0353(9)
C22 C 0.3602(13) -0.3771(12) -0.0432(11)
H18 H 0.4401 -0.3006 -0.0382
C23 C 0.3120(15) -0.4926(15) -0.1290(9)
H19 H 0.3594 -0.4943 -0.1821
C24 C 0.1939(15) -0.6058(12) -0.1364(9)
H20 H 0.1613 -0.6839 -0.1944
C25 C 0.1238(12) -0.6033(12) -0.0579(11)
H21 H 0.0439 -0.6798 -0.0629
C26 C 0.1720(15) -0.4878(14) 0.0279(9)
H22 H 0.1247 -0.4861 0.0810
C27 C 0.9533(8) 0.2668(9) 0.5918(8)
C28 C 0.9215(9) 0.1457(10) 0.6169(9)
H23 H 0.8323 0.1048 0.6291
C29 C 1.0228(10) 0.0852(11) 0.6240(10)
H24 H 0.9995 -0.0002 0.6363
C30 C 1.1593(9) 0.1514(10) 0.6128(8)
H25 H 1.2291 0.1145 0.6221
C31 C 1.1891(8) 0.2722(10) 0.5877(8)
C32 C 1.0869(8) 0.3285(10) 0.5756(7)
H26 H 1.1077 0.4083 0.5564
C33 C 0.8386(9) 0.3257(11) 0.5793(8)
C34 C 1.3396(9) 0.3424(11) 0.5778(8)
N1A N 1.3069(7) 1.3884(9) 1.3116(7)
C1A C 1.3227(13) 1.3980(15) 1.2253(11)
H1A H 1.3727 1.4867 1.2221
C2A C 1.2673(17) 1.2791(18) 1.1339(11)
H2A H 1.2818 1.2903 1.0735
C3A C 1.1910(15) 1.1467(15) 1.1395(11)
C4A C 1.1843(11) 1.1370(13) 1.2298(10)
H3A H 1.1431 1.0490 1.2371
C5A C 1.2396(10) 1.2597(12) 1.3122(9)
H4A H 1.2280 1.2501 1.3734
C6A C 1.0914(14) 1.0104(16) 1.0539(11)
H5A H 1.1135 0.9260 1.0535
C7A C 1.0743(13) 1.0181(18) 0.9476(13)
H6A H 1.1218 1.1162 0.9506
C8A C 1.1234(16) 0.9163(14) 0.8676(12)
C9A C 1.1661(12) 0.9548(13) 0.7884(10)
H7A H 1.1993 1.0502 0.7938
C10A C 1.1592(11) 0.8524(13) 0.7029(10)
H8A H 1.1878 0.8777 0.6492
C11A C 1.1110(12) 0.7131(13) 0.6947(10)
H9A H 1.1011 0.6439 0.6339
C12A C 1.0772(13) 0.6726(14) 0.7724(11)
H10A H 1.0484 0.5773 0.7672
C13A C 1.0871(13) 0.7793(14) 0.8610(10)
H11A H 1.0681 0.7549 0.9167
Cd1A Cd 1.37653(7) 0.58448(8) 0.44844(7)
N2A N 1.4534(8) 0.7684(9) 0.5943(8)
O1A O 1.2698(7) 0.7157(8) 0.3843(6)
O2A O 1.1447(6) 0.5851(7) 0.4587(5)
O3A O 0.5713(6) 0.6989(7) 0.3956(6)
O4A O 0.6352(6) 0.5596(7) 0.4591(5)
C14A C 1.4418(10) 0.7563(12) 0.6852(10)
H12A H 1.4035 0.6653 0.6882
C15A C 1.4831(11) 0.8696(14) 0.7726(10)
H13A H 1.4757 0.8550 0.8326
C16A C 1.5346(12) 1.0023(14) 0.7689(11)
C17A C 1.5508(12) 1.0220(12) 0.6777(11)
H14A H 1.5880 1.1124 0.6736
C18A C 1.5092(11) 0.9022(12) 0.5954(10)
H15A H 1.5208 0.9149 0.5352
C19A C 1.5819(15) 1.1261(15) 0.8645(12)
H16A H 1.5517 1.1127 0.9213
C20A C 1.665(2) 1.2536(17) 0.8695(15)
H17A H 1.6967 1.2677 0.8131
C21A C 1.7098(15) 1.3747(12) 0.9647(9)
C22A C 1.6398(13) 1.3771(12) 1.0432(11)
H18A H 1.5599 1.3006 1.0382
C23A C 1.6880(15) 1.4926(15) 1.1290(9)
H19A H 1.6406 1.4943 1.1821
C24A C 1.8061(15) 1.6058(12) 1.1364(9)
H20A H 1.8387 1.6839 1.1944
C25A C 1.8762(12) 1.6033(12) 1.0579(11)
H21A H 1.9561 1.6798 1.0629
C26A C 1.8280(15) 1.4878(14) 0.9721(9)
H22A H 1.8753 1.4861 0.9190
C27A C 1.0467(8) 0.7332(9) 0.4082(8)
C28A C 1.0785(9) 0.8543(10) 0.3831(9)
H23A H 1.1677 0.8952 0.3709
C29A C 0.9772(10) 0.9148(11) 0.3760(10)
H24A H 1.0005 1.0002 0.3637
C30A C 0.8407(9) 0.8486(10) 0.3872(8)
H25A H 0.7709 0.8855 0.3779
C31A C 0.8109(8) 0.7278(10) 0.4123(8)
C32A C 0.9131(8) 0.6715(10) 0.4244(7)
H26A H 0.8923 0.5917 0.4436
C33A C 1.1614(9) 0.6743(11) 0.4207(8)
C34A C 0.6604(9) 0.6576(11) 0.4222(8)
Cd1_2 Cd 1.62347(7) 0.41552(8) 0.55156(7)
Cd1A_2 Cd 0.37653(7) 0.58448(8) 0.44844(7)
Cd1A_3 Cd 1.37653(7) 1.58448(8) 1.44844(7)
N1A_2 N 1.3069(7) 0.3884(9) 0.3116(7)
O3_2 O 0.4287(6) 0.3011(7) 0.6044(6)
O3A_2 O 1.5713(6) 0.6989(7) 0.3956(6)
O4_2 O 0.3648(6) 0.4404(7) 0.5409(5)
O4A_2 O 1.6352(6) 0.5596(7) 0.4591(5)
loop_
_geom_bond_atom_site_label_1
_geom_bond_atom_site_label_2
_geom_bond_site_symmetry_1
_geom_bond_site_symmetry_2
Cd1 N1 1_555 1_555
N1 C1 1_555 1_555
N2 Cd1 1_555 1_555
O1 Cd1 1_555 1_555
O2 Cd1 1_555 1_555
O3 C34 1_555 1_555
O4 C34 1_555 1_555
C1 H1 1_555 1_555
C2 C1 1_555 1_555
H2 C2 1_555 1_555
C3 C2 1_555 1_555
C4 C3 1_555 1_555
H3 C4 1_555 1_555
C5 N1 1_555 1_555
H4 C5 1_555 1_555
C6 C3 1_555 1_555
H5 C6 1_555 1_555
C7 C6 1_555 1_555
H6 C7 1_555 1_555
C8 C7 1_555 1_555
C9 C8 1_555 1_555
H7 C9 1_555 1_555
C10 C9 1_555 1_555
H8 C10 1_555 1_555
C11 C10 1_555 1_555
H9 C11 1_555 1_555
C12 C11 1_555 1_555
H10 C12 1_555 1_555
C13 C8 1_555 1_555
H11 C13 1_555 1_555
C14 N2 1_555 1_555
H12 C14 1_555 1_555
C15 C14 1_555 1_555
H13 C15 1_555 1_555
C16 C15 1_555 1_555
C17 C16 1_555 1_555
H14 C17 1_555 1_555
C18 N2 1_555 1_555
H15 C18 1_555 1_555
C19 C16 1_555 1_555
H16 C19 1_555 1_555
C20 C19 1_555 1_555
H17 C20 1_555 1_555
C21 C20 1_555 1_555
C22 C21 1_555 1_555
H18 C22 1_555 1_555
C23 C22 1_555 1_555
H19 C23 1_555 1_555
C24 C23 1_555 1_555
H20 C24 1_555 1_555
C25 C24 1_555 1_555
H21 C25 1_555 1_555
C26 C21 1_555 1_555
H22 C26 1_555 1_555
C27 C28 1_555 1_555
C28 H23 1_555 1_555
C29 C28 1_555 1_555
H24 C29 1_555 1_555
C30 C29 1_555 1_555
H25 C30 1_555 1_555
C31 C30 1_555 1_555
C32 C27 1_555 1_555
H26 C32 1_555 1_555
C33 O1 1_555 1_555
C34 C31 1_555 1_555
N1A C1A 1_555 1_555
C1A H1A 1_555 1_555
C2A C1A 1_555 1_555
H2A C2A 1_555 1_555
C3A C2A 1_555 1_555
C4A C3A 1_555 1_555
H3A C4A 1_555 1_555
C5A N1A 1_555 1_555
H4A C5A 1_555 1_555
C6A C7 1_555 1_555
H5A C6A 1_555 1_555
C7A C6 1_555 1_555
H6A C7A 1_555 1_555
C8A C7A 1_555 1_555
C9A C8A 1_555 1_555
H7A C9A 1_555 1_555
C10A C9A 1_555 1_555
H8A C10A 1_555 1_555
C11A C10A 1_555 1_555
H9A C11A 1_555 1_555
C12A C11A 1_555 1_555
H10A C12A 1_555 1_555
C13A C8A 1_555 1_555
H11A C13A 1_555 1_555
Cd1A O4 1_555 1_555
N2A Cd1A 1_555 1_555
O1A Cd1A 1_555 1_555
O2A Cd1A 1_555 1_555
O3A C34A 1_555 1_555
O4A Cd1 1_555 1_555
C14A N2A 1_555 1_555
H12A C14A 1_555 1_555
C15A C14A 1_555 1_555
H13A C15A 1_555 1_555
C16A C15A 1_555 1_555
C17A C16A 1_555 1_555
H14A C17A 1_555 1_555
C18A N2A 1_555 1_555
H15A C18A 1_555 1_555
C19A C16A 1_555 1_555
H16A C19A 1_555 1_555
C20A C19A 1_555 1_555
H17A C20A 1_555 1_555
C21A C20A 1_555 1_555
C22A C21A 1_555 1_555
H18A C22A 1_555 1_555
C23A C22A 1_555 1_555
H19A C23A 1_555 1_555
C24A C23A 1_555 1_555
H20A C24A 1_555 1_555
C25A C24A 1_555 1_555
H21A C25A 1_555 1_555
C26A C21A 1_555 1_555
H22A C26A 1_555 1_555
C27A C28A 1_555 1_555
C28A H23A 1_555 1_555
C29A C28A 1_555 1_555
H24A C29A 1_555 1_555
C30A C29A 1_555 1_555
H25A C30A 1_555 1_555
C31A C30A 1_555 1_555
C32A C27A 1_555 1_555
H26A C32A 1_555 1_555
C33A O1A 1_555 1_555
C34A O4A 1_555 1_555
Cd1_2 O3 1_555 1_555
Cd1A_2 O3A 1_555 1_555
Cd1A_3 N1A 1_555 1_555
N1A_2 Cd1A 1_555 1_555
O3_2 Cd1 1_555 1_555
O3A_2 Cd1A 1_555 1_555
O4_2 Cd1 1_555 1_555
O4A_2 Cd1A 1_555 1_555
O2 C33 1_555 1_555
O4 Cd1_2 1_555 1_555
C4 C5 1_555 1_555
C12 C13 1_555 1_555
C17 C18 1_555 1_555
C25 C26 1_555 1_555
C27 C33 1_555 1_555
C31 C32 1_555 1_555
C3A C6A 1_555 1_555
C4A C5A 1_555 1_555
C6A C7A 1_555 1_555
C12A C13A 1_555 1_555
O2A C33A 1_555 1_555
O4A Cd1A_2 1_555 1_555
C17A C18A 1_555 1_555
C25A C26A 1_555 1_555
C27A C33A 1_555 1_555
C31A C32A 1_555 1_555
C31A C34A 1_555 1_555
Cd1_2 O4A_2 1_555 1_555
Cd1A_2 O4_2 1_555 1_555

#END
