
#######################################################################
#
#                 Cambridge Crystallographic Data Centre
#                                CCDC 
#
#######################################################################
#
# If this CIF has been generated from an entry in the Cambridge 
# Structural Database, then it will include bibliographic, chemical, 
# crystal, experimental, refinement or atomic coordinate data resulting 
# from the CCDC's data processing and validation procedures.
#
#######################################################################

data_XICKAX
_symmetry_cell_setting           triclinic
_symmetry_space_group_name_H-M   'P -1'
_symmetry_Int_Tables_number      2
_space_group_name_Hall           '-P 1'
loop_
_symmetry_equiv_pos_site_id
_symmetry_equiv_pos_as_xyz
1 x,y,z
2 -x,-y,-z
_cell_length_a                   10.258(2)
_cell_length_b                   10.714(2)
_cell_length_c                   14.328(3)
_cell_angle_alpha                106.41(3)
_cell_angle_beta                 93.68(3)
_cell_angle_gamma                108.85(3)
_cell_volume                     1408.43
loop_
_atom_site_label
_atom_site_type_symbol
_atom_site_fract_x
_atom_site_fract_y
_atom_site_fract_z
Cd1 Cd 0.37602(3) 0.58856(3) 0.45290(2)
N1 N 0.3065(4) 0.3973(4) 0.3129(3)
N2 N 0.4510(3) 0.7694(4) 0.6009(3)
O1 O 0.5731(3) 0.7054(3) 0.3995(2)
O2 O 0.6342(3) 0.5583(3) 0.4546(2)
O3 O 1.1445(3) 0.5881(3) 0.4622(2)
O4 O 1.2698(3) 0.7153(4) 0.3802(2)
C1 C 0.2364(5) 0.2657(5) 0.3110(4)
H1 H 0.2121 0.2512 0.3702
C2 C 0.1989(5) 0.1521(5) 0.2271(4)
H2 H 0.1526 0.0623 0.2301
C3 C 0.2291(5) 0.1704(5) 0.1399(4)
C4 C 0.3001(6) 0.3052(6) 0.1401(4)
H3 H 0.3231 0.3222 0.0813
C5 C 0.3368(5) 0.4153(6) 0.2290(4)
H4 H 0.3853 0.5061 0.2285
C6 C 0.1885(6) 0.0465(6) 0.0489(4)
H5 H 0.1429 -0.0407 0.0564
C7 C 0.2093(6) 0.0467(6) -0.0382(4)
H6 H 0.2563 0.1341 -0.0447
C8 C 0.1683(5) -0.0742(5) -0.1302(4)
C9 C 0.1121(6) -0.2116(7) -0.1322(4)
H7 H 0.1009 -0.2312 -0.0726
C10 C 0.0722(6) -0.3210(6) -0.2209(4)
H8 H 0.0348 -0.4137 -0.2212
C11 C 0.0878(5) -0.2924(6) -0.3078(4)
H9 H 0.0596 -0.3653 -0.3682
C12 C 0.1449(5) -0.1569(5) -0.3062(4)
H10 H 0.1572 -0.1376 -0.3657
C13 C 0.1843(5) -0.0491(5) -0.2185(4)
H11 H 0.2227 0.0431 -0.2189
C14 C 0.5072(5) 0.8992(5) 0.5969(3)
H12 H 0.5196 0.9103 0.5349
C15 C 0.5479(5) 1.0170(5) 0.6784(3)
H13 H 0.5849 1.1059 0.6716
C16 C 0.5331(5) 1.0020(5) 0.7712(3)
C17 C 0.4735(5) 0.8673(5) 0.7748(3)
H14 H 0.4595 0.8527 0.8357
C18 C 0.4352(4) 0.7554(5) 0.6894(3)
H15 H 0.3962 0.6653 0.6937
C19 C 0.5770(5) 1.1208(5) 0.8621(4)
H16 H 0.5449 1.1055 0.9193
C20 C 0.6607(6) 1.2514(6) 0.8696(4)
H17 H 0.6917 1.2665 0.8120
C21 C 0.7071(6) 1.3719(6) 0.9612(4)
C22 C 0.8229(8) 1.4880(7) 0.9668(5)
H18 H 0.8683 1.4884 0.9119
C23 C 0.8729(8) 1.6029(7) 1.0517(6)
H19 H 0.9517 1.6798 1.0543
C24 C 0.8058(9) 1.6034(8) 1.1324(5)
H20 H 0.8408 1.6798 1.1908
C25 C 0.6908(9) 1.4950(8) 1.1275(5)
H21 H 0.6420 1.4974 1.1810
C26 C 0.6437(8) 1.3774(7) 1.0416(5)
H22 H 0.5657 1.3003 1.0401
C27 C 0.8114(4) 0.7278(4) 0.4101(3)
C28 C 0.8460(4) 0.8500(4) 0.3860(3)
H23 H 0.7779 0.8893 0.3787
C29 C 0.9804(4) 0.9134(5) 0.3729(3)
H24 H 1.0044 0.9974 0.3584
C30 C 1.0792(4) 0.8544(5) 0.3810(3)
H25 H 1.1695 0.8969 0.3694
C31 C 1.0488(4) 0.7336(4) 0.4060(3)
C32 C 0.9134(4) 0.6710(4) 0.4217(3)
H26 H 0.8911 0.5901 0.4401
C33 C 0.6626(4) 0.6588(4) 0.4227(3)
C34 C 1.1610(4) 0.6747(4) 0.4160(3)
Cd1_2 Cd 1.37602(3) 0.58856(3) 0.45290(2)
Cd1A Cd 0.62398(3) 0.41144(3) 0.54710(2)
O2A O 0.3658(3) 0.4417(3) 0.5454(2)
O3_2 O 0.1445(3) 0.5881(3) 0.4622(2)
O4_2 O 0.2698(3) 0.7153(4) 0.3802(2)
loop_
_geom_bond_atom_site_label_1
_geom_bond_atom_site_label_2
_geom_bond_site_symmetry_1
_geom_bond_site_symmetry_2
Cd1 N1 1_555 1_555
N1 C1 1_555 1_555
N2 Cd1 1_555 1_555
O1 Cd1 1_555 1_555
O2 Cd1 1_555 1_555
O3 C34 1_555 1_555
O4 C34 1_555 1_555
C1 H1 1_555 1_555
C2 C1 1_555 1_555
H2 C2 1_555 1_555
C3 C2 1_555 1_555
C4 C3 1_555 1_555
H3 C4 1_555 1_555
C5 N1 1_555 1_555
H4 C5 1_555 1_555
C6 C3 1_555 1_555
H5 C6 1_555 1_555
C7 C6 1_555 1_555
H6 C7 1_555 1_555
C8 C7 1_555 1_555
C9 C8 1_555 1_555
H7 C9 1_555 1_555
C10 C9 1_555 1_555
H8 C10 1_555 1_555
C11 C10 1_555 1_555
H9 C11 1_555 1_555
C12 C11 1_555 1_555
H10 C12 1_555 1_555
C13 C8 1_555 1_555
H11 C13 1_555 1_555
C14 N2 1_555 1_555
H12 C14 1_555 1_555
C15 C14 1_555 1_555
H13 C15 1_555 1_555
C16 C15 1_555 1_555
C17 C16 1_555 1_555
H14 C17 1_555 1_555
C18 N2 1_555 1_555
H15 C18 1_555 1_555
C19 C16 1_555 1_555
H16 C19 1_555 1_555
C20 C19 1_555 1_555
H17 C20 1_555 1_555
C21 C20 1_555 1_555
C22 C21 1_555 1_555
H18 C22 1_555 1_555
C23 C22 1_555 1_555
H19 C23 1_555 1_555
C24 C23 1_555 1_555
H20 C24 1_555 1_555
C25 C24 1_555 1_555
H21 C25 1_555 1_555
C26 C21 1_555 1_555
H22 C26 1_555 1_555
C27 C28 1_555 1_555
C28 H23 1_555 1_555
C29 C28 1_555 1_555
H24 C29 1_555 1_555
C30 C29 1_555 1_555
H25 C30 1_555 1_555
C31 C30 1_555 1_555
C32 C27 1_555 1_555
H26 C32 1_555 1_555
C33 O1 1_555 1_555
C34 C31 1_555 1_555
Cd1_2 O3 1_555 1_555
Cd1A O2 1_555 1_555
O2A Cd1 1_555 1_555
O3_2 Cd1 1_555 1_555
O4_2 Cd1 1_555 1_555
O2 C33 1_555 1_555
O4 Cd1_2 1_555 1_555
C4 C5 1_555 1_555
C12 C13 1_555 1_555
C17 C18 1_555 1_555
C25 C26 1_555 1_555
C27 C33 1_555 1_555
C31 C32 1_555 1_555
Cd1A O2A 1_555 1_555

#END
