
#######################################################################
#
#                 Cambridge Crystallographic Data Centre
#                                CCDC 
#
#######################################################################
#
# If this CIF has been generated from an entry in the Cambridge 
# Structural Database, then it will include bibliographic, chemical, 
# crystal, experimental, refinement or atomic coordinate data resulting 
# from the CCDC's data processing and validation procedures.
#
#######################################################################

data_XICLEC
_symmetry_cell_setting           triclinic
_symmetry_space_group_name_H-M   'P -1'
_symmetry_Int_Tables_number      2
_space_group_name_Hall           '-P 1'
loop_
_symmetry_equiv_pos_site_id
_symmetry_equiv_pos_as_xyz
1 x,y,z
2 -x,-y,-z
_cell_length_a                   15.860(5)
_cell_length_b                   14.713(5)
_cell_length_c                   7.995(3)
_cell_angle_alpha                104.946(3)
_cell_angle_beta                 82.3390(10)
_cell_angle_gamma                68.821(3)
_cell_volume                     1626.78
loop_
_atom_site_label
_atom_site_type_symbol
_atom_site_fract_x
_atom_site_fract_y
_atom_site_fract_z
Pb1 Pb 0.5000 0.5000 0.0000
Pb2 Pb 0.5000 0.5000 -0.5000
I1 I 0.48660(3) 0.32866(3) 0.17213(5)
I2 I 0.36377(3) 0.67489(3) 0.36752(5)
I3 I 0.33676(3) 0.50168(3) -0.20546(5)
I3A I 0.66324(3) 0.49832(3) -0.79454(5)
I1A I 0.51340(3) 0.67134(3) -0.17213(5)
I2A I 0.63623(3) 0.32511(3) -0.36752(5)
Pb1_2 Pb 0.5000 0.5000 -1.0000
Pb2_2 Pb 0.5000 0.5000 0.5000
I1_2 I 0.48660(3) 0.32866(3) -0.82787(5)
I2_2 I 0.36377(3) 0.67489(3) -0.63248(5)
I3A_2 I 0.66324(3) 0.49832(3) 0.20546(5)
I4 I -0.04768(3) 0.73384(3) 1.04930(6)
Cu1 Cu -0.02210(5) 0.77055(4) 0.74078(9)
C1 C 0.1472(5) 0.6136(4) 0.4219(8)
H1 H 0.1834 0.6431 0.4776
C2 C 0.1889(6) 0.5348(5) 0.2596(9)
H2 H 0.2523 0.5113 0.2075
C3 C 0.1364(5) 0.4921(4) 0.1774(8)
H3 H 0.1628 0.4403 0.0664
C4 C 0.0444(5) 0.5258(4) 0.2586(7)
H4 H 0.0087 0.4943 0.2060
C5 C 0.0040(4) 0.6061(4) 0.4178(7)
C6 C -0.0950(4) 0.6503(4) 0.5133(7)
C7 C -0.1597(5) 0.6169(4) 0.4544(8)
H5 H -0.1423 0.5645 0.3454
C8 C -0.2473(5) 0.6598(5) 0.5534(10)
H6 H -0.2907 0.6359 0.5150
C9 C -0.2741(5) 0.7391(5) 0.7122(10)
H7 H -0.3355 0.7704 0.7812
C10 C -0.2083(4) 0.7705(4) 0.7653(9)
H8 H -0.2253 0.8239 0.8728
C11 C 0.1545(4) 0.7655(4) 0.8292(8)
H9 H 0.1635 0.7010 0.8382
C12 C 0.2223(4) 0.8006(5) 0.8564(9)
H10 H 0.2766 0.7600 0.8801
C13 C 0.2088(5) 0.8942(5) 0.8480(8)
H11 H 0.2539 0.9195 0.8677
C14 C 0.1278(4) 0.9542(4) 0.8101(8)
H12 H 0.1176 1.0196 0.8047
C15 C 0.0638(4) 0.9137(4) 0.7811(7)
C16 C -0.0248(4) 0.9681(4) 0.7353(7)
C17 C -0.0533(5) 1.0676(4) 0.7256(8)
H13 H -0.0166 1.1042 0.7474
C18 C -0.1358(5) 1.1101(4) 0.6837(9)
H14 H -0.1555 1.1761 0.6752
C19 C -0.1898(5) 1.0566(4) 0.6540(9)
H15 H -0.2467 1.0855 0.6267
C20 C -0.1582(4) 0.9594(4) 0.6655(9)
H16 H -0.1947 0.9226 0.6434
N1 N 0.0558(3) 0.6493(3) 0.5023(6)
N2 N -0.1208(3) 0.7274(3) 0.6690(6)
N3 N 0.0763(3) 0.8188(3) 0.7907(6)
N4 N -0.0784(3) 0.9144(3) 0.7063(6)
C21 C -0.4676(7) 0.8221(10) 0.3446(19)
H17 H -0.4420 0.7871 0.2182
H18 H -0.5270 0.8782 0.3656
H19 H -0.4755 0.7745 0.4010
C22 C -0.3379(9) 0.8249(14) 0.2691(13)
H20 H -0.2918 0.8498 0.2998
H21 H -0.3610 0.8493 0.1768
H22 H -0.3101 0.7507 0.2271
C23 C -0.4188(7) 0.9143(9) 0.5855(10)
H23 H -0.4650 0.9210 0.6787
N5 N -0.4085(5) 0.8596(6) 0.4137(10)
O1 O -0.3586(7) 0.9585(8) 0.6143(19)
O2 O -0.3869(7) 1.0237(7) 0.9690(15)
H24 H -0.3431(16) 0.995(2) 1.013(4)
H25 H -0.365(2) 1.053(2) 0.908(5)
loop_
_geom_bond_atom_site_label_1
_geom_bond_atom_site_label_2
_geom_bond_site_symmetry_1
_geom_bond_site_symmetry_2
Pb1 I1 1_555 1_555
Pb2 I3 1_555 1_555
I1 Pb2_2 1_555 1_555
I2 Pb1 1_555 1_555
I3 Pb1 1_555 1_555
I4 Cu1 1_555 1_555
Cu1 N1 1_555 1_555
C1 H1 1_555 1_555
C2 C1 1_555 1_555
H2 C2 1_555 1_555
C3 C2 1_555 1_555
H3 C3 1_555 1_555
C4 C3 1_555 1_555
H4 C4 1_555 1_555
C5 C4 1_555 1_555
C6 C5 1_555 1_555
C7 C6 1_555 1_555
H5 C7 1_555 1_555
C8 C7 1_555 1_555
H6 C8 1_555 1_555
C9 C8 1_555 1_555
H7 C9 1_555 1_555
C10 C9 1_555 1_555
H8 C10 1_555 1_555
C11 H9 1_555 1_555
C12 C11 1_555 1_555
H10 C12 1_555 1_555
C13 C12 1_555 1_555
H11 C13 1_555 1_555
C14 C13 1_555 1_555
H12 C14 1_555 1_555
C15 C14 1_555 1_555
C16 C15 1_555 1_555
C17 C16 1_555 1_555
H13 C17 1_555 1_555
C18 C17 1_555 1_555
H14 C18 1_555 1_555
C19 C18 1_555 1_555
H15 C19 1_555 1_555
C20 C19 1_555 1_555
H16 C20 1_555 1_555
N1 C1 1_555 1_555
N2 Cu1 1_555 1_555
N3 Cu1 1_555 1_555
N4 Cu1 1_555 1_555
C21 H17 1_555 1_555
H18 C21 1_555 1_555
H19 C21 1_555 1_555
C22 H20 1_555 1_555
H21 C22 1_555 1_555
H22 C22 1_555 1_555
C23 H23 1_555 1_555
N5 C21 1_555 1_555
O1 C23 1_555 1_555
O2 H24 1_555 1_555
H25 O2 1_555 1_555
I3A Pb2 1_555 1_555
I1A Pb1 1_555 1_555
I2A Pb1 1_555 1_555
Pb1_2 I3A 1_555 1_555
Pb2_2 I2 1_555 1_555
I1_2 Pb2 1_555 1_555
I2_2 Pb2 1_555 1_555
I3A_2 Pb1 1_555 1_555
Pb2 I1A 1_555 1_555
Pb2 I2A 1_555 1_555
C5 N1 1_555 1_555
C6 N2 1_555 1_555
C10 N2 1_555 1_555
C11 N3 1_555 1_555
C15 N3 1_555 1_555
C16 N4 1_555 1_555
C20 N4 1_555 1_555
C22 N5 1_555 1_555
C23 N5 1_555 1_555
Pb1_2 I1_2 1_555 1_555
Pb1_2 I2_2 1_555 1_555
Pb2_2 I3A_2 1_555 1_555

#END
