
#######################################################################
#
#                 Cambridge Crystallographic Data Centre
#                                CCDC 
#
#######################################################################
#
# If this CIF has been generated from an entry in the Cambridge 
# Structural Database, then it will include bibliographic, chemical, 
# crystal, experimental, refinement or atomic coordinate data resulting 
# from the CCDC's data processing and validation procedures.
#
#######################################################################

data_XICLAY
_symmetry_cell_setting           monoclinic
_symmetry_space_group_name_H-M   'P 21/c'
_symmetry_Int_Tables_number      14
_space_group_name_Hall           '-P 2ybc'
loop_
_symmetry_equiv_pos_site_id
_symmetry_equiv_pos_as_xyz
1 x,y,z
2 -x,1/2+y,1/2-z
3 -x,-y,-z
4 x,1/2-y,1/2+z
_cell_length_a                   17.943(6)
_cell_length_b                   19.378(6)
_cell_length_c                   7.853(2)
_cell_angle_alpha                90
_cell_angle_beta                 95.009(5)
_cell_angle_gamma                90
_cell_volume                     2720.06
loop_
_atom_site_label
_atom_site_type_symbol
_atom_site_fract_x
_atom_site_fract_y
_atom_site_fract_z
Pb1 Pb 0.627612(14) 0.749517(13) 0.26670(3)
I1 I 0.50832(3) 0.68223(2) -0.00800(6)
I2 I 0.75958(3) 0.69112(2) 0.04390(5)
I3 I 0.61225(3) 0.61740(2) 0.52603(6)
Pb1C Pb 0.627612(14) 0.750483(13) -0.23330(3)
Pb1C_2 Pb 0.627612(14) 0.750483(13) 0.76670(3)
I1C I 0.50832(3) 0.81777(2) 0.49200(6)
I2C I 0.75958(3) 0.80888(2) 0.54390(5)
I3C I 0.61225(3) 0.88260(2) 0.02603(6)
Cu1 Cu 1.17121(4) 0.59258(4) 0.66798(10)
I4 I 1.11320(4) 0.62399(3) 0.94903(7)
N1 N 1.0818(3) 0.6259(3) 0.5240(7)
N2 N 1.1459(3) 0.5032(3) 0.5184(7)
C1 C 0.9545(4) 0.6639(5) 0.3251(11)
H1 H 0.9116 0.6771 0.2578
C2 C 0.9873(5) 0.7077(4) 0.4413(12)
H2 H 0.9671 0.7513 0.4557
C3 C 1.1841(4) 0.4448(4) 0.5156(11)
H3 H 1.2232 0.4376 0.5995
C4 C 1.0896(4) 0.5137(4) 0.3968(9)
C5 C 0.9850(4) 0.5993(5) 0.3066(9)
H4 H 0.9624 0.5684 0.2276
C6 C 1.1095(6) 0.4047(5) 0.2693(12)
H5 H 1.0968 0.3720 0.1849
C7 C 1.0503(4) 0.5804(4) 0.4073(8)
C8 C 1.0508(4) 0.6876(4) 0.5386(10)
H6 H 1.0731 0.7185 0.6181
C9 C 1.1682(5) 0.3931(4) 0.3920(13)
H7 H 1.1962 0.3527 0.3927
C10 C 1.0711(4) 0.4640(5) 0.2747(9)
H8 H 1.0310 0.4719 0.1939
N3 N 1.2470(3) 0.6365(2) 0.5208(6)
C11 C 1.2313(3) 0.6788(3) 0.3793(7)
H9 H 1.1824 0.6930 0.3490
C12 C 1.2886(5) 0.7000(3) 0.2832(7)
H10 H 1.2781 0.7283 0.1885
C13 C 1.3617(4) 0.6788(4) 0.3285(10)
H11 H 1.4001 0.6929 0.2642
C14 C 1.3774(2) 0.6365(4) 0.4700(11)
H12 H 1.4263 0.6223 0.5003
C15 C 1.3201(3) 0.6153(3) 0.5661(8)
N4 N 1.2634(3) 0.5572(3) 0.7867(8)
C16 C 1.3287(4) 0.5710(3) 0.7095(7)
C17 C 1.3960(3) 0.5418(3) 0.7746(10)
H13 H 1.4397 0.5510 0.7229
C18 C 1.3981(3) 0.4989(3) 0.9167(11)
H14 H 1.4432 0.4794 0.9603
C19 C 1.3329(5) 0.4851(3) 0.9939(8)
H15 H 1.3343 0.4564 1.0890
C20 C 1.2655(4) 0.5143(3) 0.9288(8)
H16 H 1.2219 0.5051 0.9804
loop_
_geom_bond_atom_site_label_1
_geom_bond_atom_site_label_2
_geom_bond_site_symmetry_1
_geom_bond_site_symmetry_2
Pb1 I1 1_555 1_555
I1 Pb1C 1_555 1_555
I2 Pb1 1_555 1_555
I3 Pb1 1_555 1_555
Cu1 I4 1_555 1_555
N1 Cu1 1_555 1_555
N2 Cu1 1_555 1_555
C1 H1 1_555 1_555
C2 C1 1_555 1_555
H2 C2 1_555 1_555
C3 N2 1_555 1_555
H3 C3 1_555 1_555
C4 N2 1_555 1_555
C5 C1 1_555 1_555
H4 C5 1_555 1_555
C6 H5 1_555 1_555
C7 N1 1_555 1_555
C8 N1 1_555 1_555
H6 C8 1_555 1_555
C9 C3 1_555 1_555
H7 C9 1_555 1_555
C10 C4 1_555 1_555
H8 C10 1_555 1_555
N3 Cu1 1_555 1_555
C11 N3 1_555 1_555
H9 C11 1_555 1_555
C12 C11 1_555 1_555
H10 C12 1_555 1_555
C13 C12 1_555 1_555
H11 C13 1_555 1_555
C14 C13 1_555 1_555
H12 C14 1_555 1_555
C15 N3 1_555 1_555
N4 Cu1 1_555 1_555
C16 C15 1_555 1_555
C17 C16 1_555 1_555
H13 C17 1_555 1_555
C18 C17 1_555 1_555
H14 C18 1_555 1_555
C19 C18 1_555 1_555
H15 C19 1_555 1_555
C20 N4 1_555 1_555
H16 C20 1_555 1_555
Pb1C I2 1_555 1_555
Pb1C_2 I3 1_555 1_555
I1C Pb1 1_555 1_555
I2C Pb1 1_555 1_555
I3C Pb1 1_555 1_555
C2 C8 1_555 1_555
C4 C7 1_555 1_555
C5 C7 1_555 1_555
C6 C9 1_555 1_555
C6 C10 1_555 1_555
C14 C15 1_555 1_555
N4 C16 1_555 1_555
C19 C20 1_555 1_555
Pb1C I3C 1_555 1_555
Pb1C_2 I1C 1_555 1_555
Pb1C_2 I2C 1_555 1_555

#END
