
#######################################################################
#
#                 Cambridge Crystallographic Data Centre
#                                CCDC 
#
#######################################################################
#
# If this CIF has been generated from an entry in the Cambridge 
# Structural Database, then it will include bibliographic, chemical, 
# crystal, experimental, refinement or atomic coordinate data resulting 
# from the CCDC's data processing and validation procedures.
#
#######################################################################

data_XICQAC
_symmetry_cell_setting           orthorhombic
_symmetry_space_group_name_H-M   'P c a 21'
_symmetry_Int_Tables_number      29
_space_group_name_Hall           'P 2c -2ac'
loop_
_symmetry_equiv_pos_site_id
_symmetry_equiv_pos_as_xyz
1 x,y,z
2 -x,-y,1/2+z
3 1/2+x,-y,z
4 1/2-x,y,1/2+z
_cell_length_a                   11.9928(4)
_cell_length_b                   7.5678(3)
_cell_length_c                   17.5866(6)
_cell_angle_alpha                90
_cell_angle_beta                 90
_cell_angle_gamma                90
_cell_volume                     1596.14
loop_
_atom_site_label
_atom_site_type_symbol
_atom_site_fract_x
_atom_site_fract_y
_atom_site_fract_z
Mn1 Mn 0.66370(3) 0.40839(6) 0.99483(3)
S1 S 0.92889(6) 0.41722(9) 1.04695(5)
S2 S 0.76819(8) 0.39043(12) 0.82230(5)
S3 S 0.55201(8) 0.10493(13) 0.88152(6)
O1 O 0.83040(16) 0.3163(3) 1.01743(18)
O2 O 1.00434(17) 0.4588(3) 0.98024(14)
O3 O 0.7004(2) 0.4934(4) 0.88031(15)
O4 O 1.10529(19) 0.6475(4) 1.10696(14)
O5 O 1.0580(2) 0.8282(4) 1.19953(17)
O6 O 0.6085(3) 0.1474(4) 0.9558(2)
N1 N 0.7589(2) 0.6495(3) 1.04427(17)
C1 C 0.9206(2) 0.7655(4) 1.10767(19)
C2 C 0.8633(3) 0.9229(5) 1.1219(3)
H1 H 0.8976 1.0138 1.1487
C3 C 0.7549(3) 0.9425(5) 1.0956(3)
H2 H 0.7160 1.0474 1.1031
C4 C 0.8648(2) 0.6338(4) 1.06751(18)
C5 C 0.7066(3) 0.8025(4) 1.0580(2)
H3 H 0.6334 0.8148 1.0413
C6 C 1.0377(3) 0.7462(4) 1.1411(2)
C7 C 0.6951(4) 0.4186(9) 0.7357(3)
H4 H 0.6269 0.3523 0.7373
H5 H 0.7404 0.3773 0.6943
H6 H 0.6784 0.5416 0.7285
C8 C 0.8864(4) 0.5212(9) 0.8050(4)
H7 H 0.9342 0.5190 0.8488
H8 H 0.8637 0.6405 0.7949
H9 H 0.9260 0.4754 0.7618
C9 C 0.6028(5) -0.1044(7) 0.8529(4)
H10 H 0.6796 -0.0939 0.8381
H11 H 0.5597 -0.1466 0.8106
H12 H 0.5966 -0.1861 0.8944
C10 C 0.4135(4) 0.0396(9) 0.9039(4)
H13 H 0.3716 0.1409 0.9202
H14 H 0.4150 -0.0465 0.9440
H15 H 0.3790 -0.0108 0.8597
Mn1B Mn 1.16370(3) 0.59161(6) 0.99483(3)
O2B O 0.50434(17) 0.5412(3) 0.98024(14)
O4B O 0.60529(19) 0.3525(4) 1.10696(14)
loop_
_geom_bond_atom_site_label_1
_geom_bond_atom_site_label_2
_geom_bond_site_symmetry_1
_geom_bond_site_symmetry_2
Mn1 O1 1_555 1_555
S1 O1 1_555 1_555
S2 O3 1_555 1_555
S3 O6 1_555 1_555
O2 S1 1_555 1_555
O3 Mn1 1_555 1_555
O4 C6 1_555 1_555
O5 C6 1_555 1_555
O6 Mn1 1_555 1_555
N1 Mn1 1_555 1_555
C1 C2 1_555 1_555
C2 H1 1_555 1_555
C3 C2 1_555 1_555
H2 C3 1_555 1_555
C4 S1 1_555 1_555
C5 N1 1_555 1_555
H3 C5 1_555 1_555
C6 C1 1_555 1_555
C7 S2 1_555 1_555
H4 C7 1_555 1_555
H5 C7 1_555 1_555
H6 C7 1_555 1_555
C8 S2 1_555 1_555
H7 C8 1_555 1_555
H8 C8 1_555 1_555
H9 C8 1_555 1_555
C9 S3 1_555 1_555
H10 C9 1_555 1_555
H11 C9 1_555 1_555
H12 C9 1_555 1_555
C10 S3 1_555 1_555
H13 C10 1_555 1_555
H14 C10 1_555 1_555
H15 C10 1_555 1_555
Mn1B O2 1_555 1_555
O2B Mn1 1_555 1_555
O4B Mn1 1_555 1_555
O4 Mn1B 1_555 1_555
N1 C4 1_555 1_555
C1 C4 1_555 1_555
C3 C5 1_555 1_555

#END
