
#######################################################################
#
#                 Cambridge Crystallographic Data Centre
#                                CCDC 
#
#######################################################################
#
# If this CIF has been generated from an entry in the Cambridge 
# Structural Database, then it will include bibliographic, chemical, 
# crystal, experimental, refinement or atomic coordinate data resulting 
# from the CCDC's data processing and validation procedures.
#
#######################################################################

data_XICXIS
_symmetry_cell_setting           cubic
_symmetry_space_group_name_H-M   'F d -3 c'
_symmetry_Int_Tables_number      228
_space_group_name_Hall           '-F 4ud 2vw 3'
loop_
_symmetry_equiv_pos_site_id
_symmetry_equiv_pos_as_xyz
1 x,y,z
2 1/4-x,3/4-y,1/2+z
3 3/4-x,1/2+y,1/4-z
4 1/2+x,1/4-y,3/4-z
5 z,x,y
6 1/2+z,1/4-x,3/4-y
7 1/4-z,3/4-x,1/2+y
8 3/4-z,1/2+x,1/4-y
9 y,z,x
10 3/4-y,1/2+z,1/4-x
11 1/2+y,1/4-z,3/4-x
12 1/4-y,3/4-z,1/2+x
13 3/4+y,1/4+x,-z
14 1/2-y,1/2-x,1/2-z
15 1/4+y,-x,3/4+z
16 -y,3/4+x,1/4+z
17 3/4+x,1/4+z,-y
18 -x,3/4+z,1/4+y
19 1/2-x,1/2-z,1/2-y
20 1/4+x,-z,3/4+y
21 3/4+z,1/4+y,-x
22 1/4+z,-y,3/4+x
23 -z,3/4+y,1/4+x
24 1/2-z,1/2-y,1/2-x
25 x,1/2+y,1/2+z
26 1/4-x,1/4-y,z
27 3/4-x,y,3/4-z
28 1/2+x,3/4-y,1/4-z
29 z,1/2+x,1/2+y
30 1/2+z,3/4-x,1/4-y
31 1/4-z,1/4-x,y
32 3/4-z,x,3/4-y
33 y,1/2+z,1/2+x
34 3/4-y,z,3/4-x
35 1/2+y,3/4-z,1/4-x
36 1/4-y,1/4-z,x
37 3/4+y,3/4+x,1/2-z
38 1/2-y,-x,-z
39 1/4+y,1/2-x,1/4+z
40 -y,1/4+x,3/4+z
41 3/4+x,3/4+z,1/2-y
42 -x,1/4+z,3/4+y
43 1/2-x,-z,-y
44 1/4+x,1/2-z,1/4+y
45 3/4+z,3/4+y,1/2-x
46 1/4+z,1/2-y,1/4+x
47 -z,1/4+y,3/4+x
48 1/2-z,-y,-x
49 1/2+x,y,1/2+z
50 3/4-x,3/4-y,z
51 1/4-x,1/2+y,3/4-z
52 x,1/4-y,1/4-z
53 1/2+z,x,1/2+y
54 z,1/4-x,1/4-y
55 3/4-z,3/4-x,y
56 1/4-z,1/2+x,3/4-y
57 1/2+y,z,1/2+x
58 1/4-y,1/2+z,3/4-x
59 y,1/4-z,1/4-x
60 3/4-y,3/4-z,x
61 1/4+y,1/4+x,1/2-z
62 -y,1/2-x,-z
63 3/4+y,-x,1/4+z
64 1/2-y,3/4+x,3/4+z
65 1/4+x,1/4+z,1/2-y
66 1/2-x,3/4+z,3/4+y
67 -x,1/2-z,-y
68 3/4+x,-z,1/4+y
69 1/4+z,1/4+y,1/2-x
70 3/4+z,-y,1/4+x
71 1/2-z,3/4+y,3/4+x
72 -z,1/2-y,-x
73 1/2+x,1/2+y,z
74 3/4-x,1/4-y,1/2+z
75 1/4-x,y,1/4-z
76 x,3/4-y,3/4-z
77 1/2+z,1/2+x,y
78 z,3/4-x,3/4-y
79 3/4-z,1/4-x,1/2+y
80 1/4-z,x,1/4-y
81 1/2+y,1/2+z,x
82 1/4-y,z,1/4-x
83 y,3/4-z,3/4-x
84 3/4-y,1/4-z,1/2+x
85 1/4+y,3/4+x,-z
86 -y,-x,1/2-z
87 3/4+y,1/2-x,3/4+z
88 1/2-y,1/4+x,1/4+z
89 1/4+x,3/4+z,-y
90 1/2-x,1/4+z,1/4+y
91 -x,-z,1/2-y
92 3/4+x,1/2-z,3/4+y
93 1/4+z,3/4+y,-x
94 3/4+z,1/2-y,3/4+x
95 1/2-z,1/4+y,1/4+x
96 -z,-y,1/2-x
97 -x,-y,-z
98 3/4+x,1/4+y,1/2-z
99 1/4+x,1/2-y,3/4+z
100 1/2-x,3/4+y,1/4+z
101 -z,-x,-y
102 1/2-z,3/4+x,1/4+y
103 3/4+z,1/4+x,1/2-y
104 1/4+z,1/2-x,3/4+y
105 -y,-z,-x
106 1/4+y,1/2-z,3/4+x
107 1/2-y,3/4+z,1/4+x
108 3/4+y,1/4+z,1/2-x
109 1/4-y,3/4-x,z
110 1/2+y,1/2+x,1/2+z
111 3/4-y,x,1/4-z
112 y,1/4-x,3/4-z
113 1/4-x,3/4-z,y
114 x,1/4-z,3/4-y
115 1/2+x,1/2+z,1/2+y
116 3/4-x,z,1/4-y
117 1/4-z,3/4-y,x
118 3/4-z,y,1/4-x
119 z,1/4-y,3/4-x
120 1/2+z,1/2+y,1/2+x
121 -x,1/2-y,1/2-z
122 3/4+x,3/4+y,-z
123 1/4+x,-y,1/4+z
124 1/2-x,1/4+y,3/4+z
125 -z,1/2-x,1/2-y
126 1/2-z,1/4+x,3/4+y
127 3/4+z,3/4+x,-y
128 1/4+z,-x,1/4+y
129 -y,1/2-z,1/2-x
130 1/4+y,-z,1/4+x
131 1/2-y,1/4+z,3/4+x
132 3/4+y,3/4+z,-x
133 1/4-y,1/4-x,1/2+z
134 1/2+y,x,z
135 3/4-y,1/2+x,3/4-z
136 y,3/4-x,1/4-z
137 1/4-x,1/4-z,1/2+y
138 x,3/4-z,1/4-y
139 1/2+x,z,y
140 3/4-x,1/2+z,3/4-y
141 1/4-z,1/4-y,1/2+x
142 3/4-z,1/2+y,3/4-x
143 z,3/4-y,1/4-x
144 1/2+z,y,x
145 1/2-x,-y,1/2-z
146 1/4+x,1/4+y,-z
147 3/4+x,1/2-y,1/4+z
148 -x,3/4+y,3/4+z
149 1/2-z,-x,1/2-y
150 -z,3/4+x,3/4+y
151 1/4+z,1/4+x,-y
152 3/4+z,1/2-x,1/4+y
153 1/2-y,-z,1/2-x
154 3/4+y,1/2-z,1/4+x
155 -y,3/4+z,3/4+x
156 1/4+y,1/4+z,-x
157 3/4-y,3/4-x,1/2+z
158 y,1/2+x,z
159 1/4-y,x,3/4-z
160 1/2+y,1/4-x,1/4-z
161 3/4-x,3/4-z,1/2+y
162 1/2+x,1/4-z,1/4-y
163 x,1/2+z,y
164 1/4-x,z,3/4-y
165 3/4-z,3/4-y,1/2+x
166 1/4-z,y,3/4-x
167 1/2+z,1/4-y,1/4-x
168 z,1/2+y,x
169 1/2-x,1/2-y,-z
170 1/4+x,3/4+y,1/2-z
171 3/4+x,-y,3/4+z
172 -x,1/4+y,1/4+z
173 1/2-z,1/2-x,-y
174 -z,1/4+x,1/4+y
175 1/4+z,3/4+x,1/2-y
176 3/4+z,-x,3/4+y
177 1/2-y,1/2-z,-x
178 3/4+y,-z,3/4+x
179 -y,1/4+z,1/4+x
180 1/4+y,3/4+z,1/2-x
181 3/4-y,1/4-x,z
182 y,x,1/2+z
183 1/4-y,1/2+x,1/4-z
184 1/2+y,3/4-x,3/4-z
185 3/4-x,1/4-z,y
186 1/2+x,3/4-z,3/4-y
187 x,z,1/2+y
188 1/4-x,1/2+z,1/4-y
189 3/4-z,1/4-y,x
190 1/4-z,1/2+y,1/4-x
191 1/2+z,3/4-y,3/4-x
192 z,y,1/2+x
_cell_length_a                   36.3142(19)
_cell_length_b                   36.3142(19)
_cell_length_c                   36.3142(19)
_cell_angle_alpha                90
_cell_angle_beta                 90
_cell_angle_gamma                90
_cell_volume                     47888.3
loop_
_atom_site_label
_atom_site_type_symbol
_atom_site_fract_x
_atom_site_fract_y
_atom_site_fract_z
Zn1 Zn 0.2500 0.37574(2) 0.12426(2)
C1 C 0.22746(15) 0.44651(16) 0.15992(15)
H1 H 0.2128 0.4344 0.1770
C2 C 0.26206(16) 0.45845(19) 0.11312(17)
H2 H 0.2758 0.4557 0.0917
C3 C 0.25766(19) 0.4899(2) 0.13146(17)
H3 H 0.2676 0.5127 0.1252
C4 C 0.22672(12) 0.50736(13) 0.19083(13)
C5 C 0.19680(14) 0.50018(14) 0.21271(13)
H4 H 0.1811 0.4806 0.2077
C6 C 0.18779(17) 0.33210(18) 0.13257(17)
C7 C 0.1546(2) 0.3178(2) 0.1532(2)
H5 H 0.1615 0.3135 0.1786
H6 H 0.1357 0.3367 0.1530
C8 C 0.13882(18) 0.2837(2) 0.13811(19)
C9 C 0.1512(3) 0.2507(3) 0.1513(3)
H7 H 0.1698 0.2503 0.1688
C10 C 0.1364(3) 0.2185(3) 0.1390(3)
H8 H 0.1425 0.1965 0.1505
N1 N 0.24310(13) 0.43056(13) 0.13069(12)
N2 N 0.23581(11) 0.48240(11) 0.16118(11)
O1 O 0.20565(15) 0.35683(16) 0.14763(13)
O2 O 0.19611(13) 0.32010(13) 0.10295(14)
C1GB C 0.30349(16) 0.59008(15) 0.22746(15)
H1GB H 0.3156 0.5730 0.2128
C2GB C 0.29155(19) 0.63688(17) 0.26206(16)
H2GB H 0.2943 0.6583 0.2758
C3GB C 0.2601(2) 0.61854(17) 0.25766(19)
H3GB H 0.2373 0.6248 0.2676
C4GB C 0.24264(13) 0.55917(13) 0.22672(12)
C5GB C 0.24982(14) 0.53729(13) 0.19680(14)
H4GB H 0.2694 0.5423 0.1811
N1GB N 0.31944(13) 0.61931(12) 0.24310(13)
N2GB N 0.26760(11) 0.58882(11) 0.23581(11)
C1YB C 0.15992(15) 0.52254(15) 0.30349(16)
H1YB H 0.1770 0.5372 0.3156
C2YB C 0.11312(17) 0.48794(16) 0.29155(19)
H2YB H 0.0917 0.4742 0.2943
C3YB C 0.13146(17) 0.49234(19) 0.2601(2)
H3YB H 0.1252 0.4824 0.2373
C4YB C 0.19083(13) 0.52328(12) 0.24264(13)
C5YB C 0.21271(13) 0.55320(14) 0.24982(14)
H4YB H 0.2077 0.5689 0.2694
N1YB N 0.13069(12) 0.50690(13) 0.31944(13)
N2YB N 0.16118(11) 0.51419(11) 0.26760(11)
C6VB C 0.06221(17) 0.33210(18) 0.11743(17)
C7VB C 0.0954(2) 0.3178(2) 0.0968(2)
H5VB H 0.0885 0.3135 0.0714
H6VB H 0.1143 0.3367 0.0970
C8VB C 0.11118(18) 0.2837(2) 0.11189(19)
C9VB C 0.0988(3) 0.2507(3) 0.0987(3)
H7VB H 0.0802 0.2503 0.0812
C10VB C 0.1136(3) 0.2185(3) 0.1110(3)
H8VB H 0.1075 0.1965 0.0995
O1VB O 0.04435(15) 0.35683(16) 0.10237(13)
O2VB O 0.05389(13) 0.32010(13) 0.14705(14)
C1R C 0.27254(15) 0.34008(15) 0.05349(16)
H1R H 0.2872 0.3230 0.0656
C2R C 0.23794(16) 0.38688(17) 0.04155(19)
H2R H 0.2242 0.4083 0.0443
C3R C 0.24234(19) 0.36854(17) 0.0101(2)
H3R H 0.2324 0.3748 -0.0127
C4R C 0.27328(12) 0.30917(13) -0.00736(13)
C5R C 0.30320(14) 0.28729(13) -0.00018(14)
H4R H 0.3189 0.2923 0.0194
N1R N 0.25690(13) 0.36931(12) 0.06944(13)
N2R N 0.26419(11) 0.33882(11) 0.01760(11)
C1HC C 0.19651(16) 0.27254(15) -0.09008(15)
H1HC H 0.1844 0.2872 -0.0730
C2HC C 0.20845(19) 0.23794(16) -0.13688(17)
H2HC H 0.2057 0.2242 -0.1583
C3HC C 0.2399(2) 0.24234(19) -0.11854(17)
H3HC H 0.2627 0.2324 -0.1248
C4HC C 0.25736(13) 0.27328(12) -0.05917(13)
C5HC C 0.25018(14) 0.30320(14) -0.03729(13)
H4HC H 0.2306 0.3189 -0.0423
N1HC N 0.18056(13) 0.25690(13) -0.11931(12)
N2HC N 0.23240(11) 0.26419(11) -0.08882(11)
C1RB C 0.34008(15) 0.19651(16) -0.02254(15)
H1RB H 0.3230 0.1844 -0.0372
C2RB C 0.38688(17) 0.20845(19) 0.01206(16)
H2RB H 0.4083 0.2057 0.0258
C3RB C 0.36854(17) 0.2399(2) 0.00766(19)
H3RB H 0.3748 0.2627 0.0176
C4RB C 0.30917(13) 0.25736(13) -0.02328(12)
C5RB C 0.28729(13) 0.25018(14) -0.05320(14)
H4RB H 0.2923 0.2306 -0.0689
N1RB N 0.36931(12) 0.18056(13) -0.00690(13)
N2RB N 0.33882(11) 0.23240(11) -0.01419(11)
Zn1FB Zn 0.37574(2) 0.12574(2) 0.0000
C6R C 0.31221(17) 0.36743(17) 0.16790(18)
C7R C 0.3454(2) 0.3468(2) 0.1822(2)
H5R H 0.3385 0.3214 0.1865
H6R H 0.3643 0.3470 0.1633
C8R C 0.36118(18) 0.36189(19) 0.2163(2)
C9R C 0.3488(3) 0.3487(3) 0.2493(3)
H7R H 0.3302 0.3312 0.2497
C10R C 0.3636(3) 0.3610(3) 0.2815(3)
H8R H 0.3575 0.3495 0.3035
O1R O 0.29435(15) 0.35237(13) 0.14317(16)
O2R O 0.30389(13) 0.39705(14) 0.17990(13)
C6LB C 0.43779(17) 0.38257(17) 0.16790(18)
C7LB C 0.4046(2) 0.4032(2) 0.1822(2)
H5LB H 0.4115 0.4286 0.1865
H6LB H 0.3857 0.4030 0.1633
C8LB C 0.38882(18) 0.38811(19) 0.2163(2)
C9LB C 0.4012(3) 0.4013(3) 0.2493(3)
H7LB H 0.4198 0.4188 0.2497
C10LB C 0.3864(3) 0.3890(3) 0.2815(3)
H8LB H 0.3925 0.4005 0.3035
O1LB O 0.45565(15) 0.39763(13) 0.14317(16)
O2LB O 0.44611(13) 0.35295(14) 0.17990(13)
Zn1WA Zn 0.5000 0.37426(2) 0.12426(2)
C6FB C 0.33210(18) 0.11743(17) 0.06221(17)
C7FB C 0.3178(2) 0.0968(2) 0.0954(2)
H5FB H 0.3135 0.0714 0.0885
H6FB H 0.3367 0.0970 0.1143
C8FB C 0.2837(2) 0.11189(19) 0.11118(18)
C9FB C 0.2507(3) 0.0987(3) 0.0988(3)
H7FB H 0.2503 0.0812 0.0802
C10FB C 0.2185(3) 0.1110(3) 0.1136(3)
H8FB H 0.1965 0.0995 0.1075
O1FB O 0.35683(16) 0.10237(13) 0.04435(15)
O2FB O 0.32010(13) 0.14705(14) 0.05389(13)
C6H C 0.33210(18) 0.13257(17) 0.18779(17)
C7H C 0.3178(2) 0.1532(2) 0.1546(2)
H5H H 0.3135 0.1786 0.1615
H6H H 0.3367 0.1530 0.1357
C8H C 0.2837(2) 0.13811(19) 0.13882(18)
C9H C 0.2507(3) 0.1513(3) 0.1512(3)
H7H H 0.2503 0.1688 0.1698
C10H C 0.2185(3) 0.1390(3) 0.1364(3)
H8H H 0.1965 0.1505 0.1425
O1H O 0.35683(16) 0.14763(13) 0.20565(15)
O2H O 0.32010(13) 0.10295(14) 0.19611(13)
Zn1H Zn 0.37574(2) 0.12426(2) 0.2500
Zn1GB Zn 0.37426(2) 0.62574(2) 0.2500
Zn1VB Zn 0.0000 0.37574(2) 0.12574(2)
Zn1YB Zn 0.12426(2) 0.5000 0.37426(2)
Zn1AC Zn 0.12574(2) 0.2500 -0.12574(2)
N1WA N 0.50690(13) 0.31944(13) 0.13069(12)
N1FB N 0.43056(13) 0.11931(12) 0.00690(13)
N1LB N 0.49310(13) 0.38069(12) 0.06944(13)
O1WA O 0.54435(15) 0.39317(16) 0.14763(13)
O1RB O 0.35237(13) 0.10683(16) -0.04435(15)
loop_
_geom_bond_atom_site_label_1
_geom_bond_atom_site_label_2
_geom_bond_site_symmetry_1
_geom_bond_site_symmetry_2
Zn1 N1 1_555 1_555
C1 H1 1_555 1_555
C2 H2 1_555 1_555
C3 C2 1_555 1_555
H3 C3 1_555 1_555
C4 C5 1_555 1_555
C5 H4 1_555 1_555
C6 C7 1_555 1_555
C7 H5 1_555 1_555
H6 C7 1_555 1_555
C8 C7 1_555 1_555
C9 C8 1_555 1_555
H7 C9 1_555 1_555
C10 C9 1_555 1_555
H8 C10 1_555 1_555
N1 C1 1_555 1_555
N2 C1 1_555 1_555
O1 Zn1 1_555 1_555
O2 C6 1_555 1_555
C1GB H1GB 1_555 1_555
C2GB H2GB 1_555 1_555
C3GB C2GB 1_555 1_555
H3GB C3GB 1_555 1_555
C4GB C5GB 1_555 1_555
C5GB C4 1_555 1_555
H4GB C5GB 1_555 1_555
N1GB C1GB 1_555 1_555
N2GB C1GB 1_555 1_555
C1YB H1YB 1_555 1_555
C2YB H2YB 1_555 1_555
C3YB C2YB 1_555 1_555
H3YB C3YB 1_555 1_555
C4YB C5 1_555 1_555
C5YB C4GB 1_555 1_555
H4YB C5YB 1_555 1_555
N1YB C1YB 1_555 1_555
N2YB C1YB 1_555 1_555
C6VB C7VB 1_555 1_555
C7VB H5VB 1_555 1_555
H6VB C7VB 1_555 1_555
C8VB C8 1_555 1_555
C9VB C8VB 1_555 1_555
H7VB C9VB 1_555 1_555
C10VB C10 1_555 1_555
H8VB C10VB 1_555 1_555
O1VB C6VB 1_555 1_555
O2VB C6VB 1_555 1_555
C1R H1R 1_555 1_555
C2R H2R 1_555 1_555
C3R C2R 1_555 1_555
H3R C3R 1_555 1_555
C4R C5R 1_555 1_555
C5R H4R 1_555 1_555
N1R Zn1 1_555 1_555
N2R C1R 1_555 1_555
C1HC H1HC 1_555 1_555
C2HC H2HC 1_555 1_555
C3HC C2HC 1_555 1_555
H3HC C3HC 1_555 1_555
C4HC C5HC 1_555 1_555
C5HC C4R 1_555 1_555
H4HC C5HC 1_555 1_555
N1HC C1HC 1_555 1_555
N2HC C1HC 1_555 1_555
C1RB H1RB 1_555 1_555
C2RB H2RB 1_555 1_555
C3RB C2RB 1_555 1_555
H3RB C3RB 1_555 1_555
C4RB C5R 1_555 1_555
C5RB C4HC 1_555 1_555
H4RB C5RB 1_555 1_555
N1RB C1RB 1_555 1_555
N2RB C1RB 1_555 1_555
Zn1FB N1RB 1_555 1_555
C6R C7R 1_555 1_555
C7R H5R 1_555 1_555
H6R C7R 1_555 1_555
C8R C7R 1_555 1_555
C9R C8R 1_555 1_555
H7R C9R 1_555 1_555
C10R C9R 1_555 1_555
H8R C10R 1_555 1_555
O1R Zn1 1_555 1_555
O2R C6R 1_555 1_555
C6LB C7LB 1_555 1_555
C7LB H5LB 1_555 1_555
H6LB C7LB 1_555 1_555
C8LB C8R 1_555 1_555
C9LB C8LB 1_555 1_555
H7LB C9LB 1_555 1_555
C10LB C10R 1_555 1_555
H8LB C10LB 1_555 1_555
O1LB C6LB 1_555 1_555
O2LB C6LB 1_555 1_555
Zn1WA O1LB 1_555 1_555
C6FB C7FB 1_555 1_555
C7FB H5FB 1_555 1_555
H6FB C7FB 1_555 1_555
C8FB C7FB 1_555 1_555
C9FB C8FB 1_555 1_555
H7FB C9FB 1_555 1_555
C10FB C9FB 1_555 1_555
H8FB C10FB 1_555 1_555
O1FB Zn1FB 1_555 1_555
O2FB C6FB 1_555 1_555
C6H C7H 1_555 1_555
C7H H5H 1_555 1_555
H6H C7H 1_555 1_555
C8H C8FB 1_555 1_555
C9H C8H 1_555 1_555
H7H C9H 1_555 1_555
C10H C10FB 1_555 1_555
H8H C10H 1_555 1_555
O1H C6H 1_555 1_555
O2H C6H 1_555 1_555
Zn1H O1H 1_555 1_555
Zn1GB N1GB 1_555 1_555
Zn1VB O1VB 1_555 1_555
Zn1YB N1YB 1_555 1_555
Zn1AC N1HC 1_555 1_555
N1WA Zn1WA 1_555 1_555
N1FB Zn1FB 1_555 1_555
N1LB Zn1WA 1_555 1_555
O1WA Zn1WA 1_555 1_555
O1RB Zn1FB 1_555 1_555
C2 N1 1_555 1_555
C3 N2 1_555 1_555
C4 N2 1_555 1_555
C6 O1 1_555 1_555
C2GB N1GB 1_555 1_555
C3GB N2GB 1_555 1_555
C4GB N2GB 1_555 1_555
C2YB N1YB 1_555 1_555
C3YB N2YB 1_555 1_555
C4YB C5YB 1_555 1_555
C4YB N2YB 1_555 1_555
C7VB C8VB 1_555 1_555
C9VB C10VB 1_555 1_555
C1R N1R 1_555 1_555
C2R N1R 1_555 1_555
C3R N2R 1_555 1_555
C4R N2R 1_555 1_555
C2HC N1HC 1_555 1_555
C3HC N2HC 1_555 1_555
C4HC N2HC 1_555 1_555
C2RB N1RB 1_555 1_555
C3RB N2RB 1_555 1_555
C4RB C5RB 1_555 1_555
C4RB N2RB 1_555 1_555
C6R O1R 1_555 1_555
C7LB C8LB 1_555 1_555
C9LB C10LB 1_555 1_555
C6FB O1FB 1_555 1_555
C7H C8H 1_555 1_555
C9H C10H 1_555 1_555

#END
