
#######################################################################
#
#                 Cambridge Crystallographic Data Centre
#                                CCDC 
#
#######################################################################
#
# If this CIF has been generated from an entry in the Cambridge 
# Structural Database, then it will include bibliographic, chemical, 
# crystal, experimental, refinement or atomic coordinate data resulting 
# from the CCDC's data processing and validation procedures.
#
#######################################################################

data_XICXOY
_symmetry_cell_setting           monoclinic
_symmetry_space_group_name_H-M   'P 21/c'
_symmetry_Int_Tables_number      14
_space_group_name_Hall           '-P 2ybc'
loop_
_symmetry_equiv_pos_site_id
_symmetry_equiv_pos_as_xyz
1 x,y,z
2 -x,1/2+y,1/2-z
3 -x,-y,-z
4 x,1/2-y,1/2+z
_cell_length_a                   8.5692(12)
_cell_length_b                   20.821(3)
_cell_length_c                   15.037(2)
_cell_angle_alpha                90
_cell_angle_beta                 97.053(2)
_cell_angle_gamma                90
_cell_volume                     2662.59
loop_
_atom_site_label
_atom_site_type_symbol
_atom_site_fract_x
_atom_site_fract_y
_atom_site_fract_z
Zn1 Zn 0.35901(3) 0.276306(11) -0.041479(16)
C1 C 0.4494(3) 0.36028(11) 0.11407(15)
H1 H 0.5084 0.3858 0.0800
C2 C 0.2983(4) 0.28626(13) 0.15417(17)
H2 H 0.2324 0.2507 0.1521
C3 C 0.3430(3) 0.32165(13) 0.22751(17)
H3 H 0.3144 0.3152 0.2845
C4 C 0.5203(3) 0.41792(10) 0.25695(15)
C5 C 0.5701(3) 0.47310(10) 0.21628(15)
H4 H 0.5490 0.4789 0.1547
C6 C 0.6514(3) 0.51874(10) 0.26959(15)
C7 C 0.6834(3) 0.51145(10) 0.36137(15)
H5 H 0.7369 0.5432 0.3964
C8 C 0.6342(3) 0.45599(10) 0.39975(14)
C9 C 0.5534(3) 0.40843(10) 0.34833(15)
H6 H 0.5222 0.3709 0.3748
C10 C 0.6271(3) 0.60698(11) 0.15845(16)
H7 H 0.5310 0.5942 0.1282
C11 C 0.8394(3) 0.65992(12) 0.19878(16)
H8 H 0.9175 0.6911 0.2007
C12 C 0.8392(3) 0.60972(13) 0.25508(17)
H9 H 0.9159 0.5999 0.3024
C13 C 0.7753(5) 0.48104(18) 0.5484(2)
H10 H 0.8318 0.5149 0.5279
C14 C 0.6892(4) 0.41210(16) 0.63090(19)
H11 H 0.6727 0.3880 0.6810
C15 C 0.6164(4) 0.40260(15) 0.54826(18)
H12 H 0.5422 0.3712 0.5302
C16 C 0.1521(3) 0.16593(11) -0.04336(16)
C17 C 0.0122(3) 0.12988(13) -0.0936(2)
H13 H 0.0506 0.0900 -0.1163
H14 H -0.0599 0.1188 -0.0511
C18 C -0.0776(3) 0.16526(12) -0.17020(18)
C19 C -0.0729(4) 0.14333(16) -0.2574(2)
H15 H -0.0157 0.1065 -0.2666
C20 C -0.1508(4) 0.17482(19) -0.3304(2)
H16 H -0.1473 0.1590 -0.3879
C21 C -0.2333(4) 0.22946(17) -0.3175(2)
H17 H -0.2839 0.2517 -0.3664
C22 C -0.2412(3) 0.25135(15) -0.23244(18)
H18 H -0.3001 0.2879 -0.2242
C23 C -0.1637(3) 0.22047(12) -0.15843(16)
C24 C -0.1709(3) 0.24901(17) -0.06634(19)
H19 H -0.1453 0.2159 -0.0215
H20 H -0.0922 0.2826 -0.0559
C25 C -0.3303(3) 0.27683(14) -0.05519(16)
N1 N 0.3644(2) 0.31048(9) 0.08265(12)
N2 N 0.4394(2) 0.36926(9) 0.20195(12)
N3 N 0.7058(2) 0.65791(9) 0.13773(13)
N4 N 0.7037(2) 0.57575(9) 0.22915(13)
N5 N 0.6714(2) 0.44710(8) 0.49714(13)
N6 N 0.7903(4) 0.46193(15) 0.63114(18)
O1 O 0.1920(2) 0.21668(8) -0.08132(12)
O2 O 0.2176(3) 0.14463(10) 0.02605(14)
O3 O -0.3471(2) 0.33447(9) -0.04278(12)
O4 O -0.4427(2) 0.23572(8) -0.05871(12)
Zn1_2 Zn -0.64099(3) 0.276306(11) -0.041479(16)
Zn1B Zn 0.64099(3) 0.723694(11) 0.041479(16)
N3B N 0.2942(2) 0.34209(9) -0.13773(13)
O4_2 O 0.5573(2) 0.23572(8) -0.05871(12)
loop_
_geom_bond_atom_site_label_1
_geom_bond_atom_site_label_2
_geom_bond_site_symmetry_1
_geom_bond_site_symmetry_2
Zn1 N1 1_555 1_555
C1 H1 1_555 1_555
C2 H2 1_555 1_555
C3 C2 1_555 1_555
H3 C3 1_555 1_555
C4 C5 1_555 1_555
C5 H4 1_555 1_555
C6 C5 1_555 1_555
C7 C6 1_555 1_555
H5 C7 1_555 1_555
C8 C7 1_555 1_555
C9 C4 1_555 1_555
H6 C9 1_555 1_555
C10 H7 1_555 1_555
C11 H8 1_555 1_555
C12 C11 1_555 1_555
H9 C12 1_555 1_555
C13 H10 1_555 1_555
C14 H11 1_555 1_555
C15 C14 1_555 1_555
H12 C15 1_555 1_555
C16 C17 1_555 1_555
C17 H13 1_555 1_555
H14 C17 1_555 1_555
C18 C17 1_555 1_555
C19 C18 1_555 1_555
H15 C19 1_555 1_555
C20 C19 1_555 1_555
H16 C20 1_555 1_555
C21 C20 1_555 1_555
H17 C21 1_555 1_555
C22 C21 1_555 1_555
H18 C22 1_555 1_555
C23 C18 1_555 1_555
C24 C23 1_555 1_555
H19 C24 1_555 1_555
H20 C24 1_555 1_555
C25 C24 1_555 1_555
N1 C1 1_555 1_555
N2 C1 1_555 1_555
N3 C10 1_555 1_555
N4 C6 1_555 1_555
N5 C8 1_555 1_555
N6 C13 1_555 1_555
O1 Zn1 1_555 1_555
O2 C16 1_555 1_555
O3 C25 1_555 1_555
O4 C25 1_555 1_555
Zn1_2 O4 1_555 1_555
Zn1B N3 1_555 1_555
N3B Zn1 1_555 1_555
O4_2 Zn1 1_555 1_555
C2 N1 1_555 1_555
C3 N2 1_555 1_555
C4 N2 1_555 1_555
C8 C9 1_555 1_555
C10 N4 1_555 1_555
C11 N3 1_555 1_555
C12 N4 1_555 1_555
C13 N5 1_555 1_555
C14 N6 1_555 1_555
C15 N5 1_555 1_555
C16 O1 1_555 1_555
C22 C23 1_555 1_555

#END
