
#######################################################################
#
#                 Cambridge Crystallographic Data Centre
#                                CCDC 
#
#######################################################################
#
# If this CIF has been generated from an entry in the Cambridge 
# Structural Database, then it will include bibliographic, chemical, 
# crystal, experimental, refinement or atomic coordinate data resulting 
# from the CCDC's data processing and validation procedures.
#
#######################################################################

data_XICZUG
_symmetry_cell_setting           triclinic
_symmetry_space_group_name_H-M   'P -1'
_symmetry_Int_Tables_number      2
_space_group_name_Hall           '-P 1'
loop_
_symmetry_equiv_pos_site_id
_symmetry_equiv_pos_as_xyz
1 x,y,z
2 -x,-y,-z
_cell_length_a                   12.1335(3)
_cell_length_b                   15.0322(6)
_cell_length_c                   18.1077(7)
_cell_angle_alpha                102.6640(10)
_cell_angle_beta                 91.933(2)
_cell_angle_gamma                107.338(2)
_cell_volume                     3058.51
loop_
_atom_site_label
_atom_site_type_symbol
_atom_site_fract_x
_atom_site_fract_y
_atom_site_fract_z
Au1 Au 0.45469(3) 0.17446(3) 0.17002(2)
Au2 Au 0.44944(3) 0.26576(3) 0.33346(2)
Ag1 Ag 0.54745(8) 0.43322(7) 0.45390(5)
Ag2 Ag 0.57392(9) 0.08930(8) 0.05113(6)
C1 C 0.6132(10) 0.2616(9) 0.1493(7)
C2 C 0.7171(9) 0.2616(9) 0.1900(6)
C3 C 0.8204(10) 0.3284(9) 0.1926(7)
C4 C 0.8304(12) 0.3987(10) 0.1590(9)
C5 C 0.7296(13) 0.4034(10) 0.1187(9)
C6 C 0.6260(10) 0.3321(9) 0.1146(7)
F1 F 0.7137(6) 0.1918(5) 0.2275(4)
F2 F 0.9149(6) 0.3253(6) 0.2293(4)
F3 F 0.7340(9) 0.4734(7) 0.0838(8)
F4 F 0.5339(7) 0.3350(6) 0.0731(5)
C7 C 0.9439(14) 0.4742(11) 0.1598(11)
C8 C 1.0074(16) 0.4735(15) 0.0979(16)
C9 C 1.1143(17) 0.5366(16) 0.0970(19)
C10 C 1.1615(17) 0.6047(15) 0.1570(17)
C11 C 1.1082(18) 0.6105(15) 0.2207(16)
C12 C 0.9997(16) 0.5442(12) 0.2235(13)
F5 F 0.9608(12) 0.4005(11) 0.0313(11)
F6 F 1.1653(14) 0.5329(12) 0.0297(13)
Br1 Br 1.30874(19) 0.69598(19) 0.1539(2)
F7 F 1.1558(14) 0.6783(11) 0.2891(9)
F8 F 0.9441(14) 0.5467(10) 0.2869(7)
C13 C 0.5884(8) 0.2449(8) 0.3859(6)
C14 C 0.7043(8) 0.2988(7) 0.3805(6)
C15 C 0.7972(8) 0.2738(8) 0.4067(6)
C16 C 0.7827(9) 0.1963(8) 0.4385(5)
C17 C 0.6686(9) 0.1446(9) 0.4462(6)
C18 C 0.5770(8) 0.1710(8) 0.4216(6)
F9 F 0.7262(5) 0.3742(5) 0.3491(4)
F10 F 0.9051(5) 0.3271(5) 0.3974(4)
F11 F 0.6499(5) 0.0684(5) 0.4761(4)
F12 F 0.4686(5) 0.1156(5) 0.4300(4)
C19 C 0.8838(8) 0.1669(8) 0.4581(5)
C20 C 0.8969(9) 0.0808(8) 0.4203(6)
C21 C 0.9999(9) 0.0604(8) 0.4297(6)
C22 C 1.0936(9) 0.1263(9) 0.4791(6)
C23 C 1.0796(9) 0.2094(8) 0.5207(6)
C24 C 0.9764(8) 0.2298(8) 0.5102(5)
F13 F 0.8110(5) 0.0179(5) 0.3702(3)
F14 F 1.0086(6) -0.0221(5) 0.3889(4)
Br2 Br 1.23481(10) 0.10277(10) 0.48490(9)
F15 F 1.1659(5) 0.2714(5) 0.5705(4)
F16 F 0.9685(6) 0.3143(5) 0.5504(4)
P1 P 0.2898(2) 0.0640(2) 0.18719(14)
P2 P 0.2902(2) 0.2930(2) 0.28393(15)
C25 C 0.1599(8) 0.0939(8) 0.2199(5)
C26 C 0.1599(9) 0.1869(8) 0.2588(6)
C27 C 0.0544(9) 0.2004(8) 0.2756(6)
H1 H 0.0526 0.2611 0.3
C28 C -0.0478(9) 0.1250(9) 0.2566(6)
H2 H -0.1181 0.1353 0.2675
C29 C -0.0456(9) 0.0349(9) 0.2217(6)
H3 H -0.1141 -0.0164 0.2109
C30 C 0.0556(9) 0.0201(8) 0.2026(5)
H4 H 0.055 -0.0411 0.1774
C31 C 0.2317(9) -0.0196(8) 0.0956(5)
C32 C 0.1753(11) 0.0117(10) 0.0418(6)
H5 H 0.1684 0.0731 0.054
C33 C 0.1313(12) -0.0468(11) -0.0275(7)
H6 H 0.0973 -0.0246 -0.0634
C34 C 0.1367(12) -0.1411(12) -0.0455(7)
H7 H 0.0998 -0.1833 -0.0913
C35 C 0.1964(12) -0.1704(10) 0.0044(7)
H8 H 0.208 -0.23 -0.0092
C36 C 0.2407(11) -0.1088(9) 0.0774(7)
H9 H 0.2763 -0.1303 0.1131
C37 C 0.3235(10) -0.0062(9) 0.2502(6)
C38 C 0.4370(11) -0.0121(10) 0.2520(7)
H10 H 0.4907 0.0191 0.2232
C39 C 0.4675(13) -0.0676(11) 0.2995(7)
H11 H 0.5416 -0.0737 0.3004
C40 C 0.3902(15) -0.1118(13) 0.3437(9)
H12 H 0.411 -0.1474 0.3746
C41 C 0.2782(13) -0.1022(12) 0.3411(8)
H13 H 0.2247 -0.1313 0.3711
C42 C 0.2470(11) -0.0506(10) 0.2951(7)
H14 H 0.1725 -0.0455 0.2943
C43 C 0.3053(11) 0.3418(9) 0.1993(6)
C44 C 0.4015(13) 0.4178(9) 0.1999(7)
H15 H 0.4594 0.4407 0.2405
C45 C 0.4112(17) 0.4600(12) 0.1388(9)
H16 H 0.4736 0.5146 0.1403
C46 C 0.3308(18) 0.4231(14) 0.0761(9)
H17 H 0.3403 0.4494 0.0338
C47 C 0.2384(17) 0.3484(14) 0.0772(9)
H18 H 0.1811 0.3257 0.0362
C48 C 0.2240(14) 0.3041(11) 0.1352(7)
H19 H 0.1611 0.2495 0.1324
C49 C 0.2469(9) 0.3805(8) 0.3522(6)
C50 C 0.2509(9) 0.3762(8) 0.4302(6)
H20 H 0.28 0.3311 0.4444
C51 C 0.2128(9) 0.4373(8) 0.4861(7)
H21 H 0.2154 0.4334 0.5367
C52 C 0.1712(10) 0.5036(9) 0.4625(7)
H22 H 0.1424 0.5434 0.4981
C53 C 0.1700(12) 0.5139(10) 0.3882(8)
H23 H 0.1466 0.5624 0.3749
C54 C 0.2055(10) 0.4484(9) 0.3335(7)
H24 H 0.2005 0.4517 0.2829
O1 O 0.5106(8) 0.3624(6) 0.5490(5)
O2 O 0.4374(7) 0.4672(6) 0.6209(5)
C55 C 0.4694(11) 0.3942(9) 0.6050(7)
C56 C 0.4570(14) 0.3370(10) 0.6656(8)
F17 F 0.4139(10) 0.2440(7) 0.6363(6)
F18 F 0.5634(9) 0.3547(8) 0.7016(6)
F19 F 0.3922(10) 0.3602(8) 0.7193(6)
O3 O 0.6302(9) -0.0137(7) 0.1014(6)
O4 O 0.4920(9) -0.1445(7) 0.0399(6)
C57 C 0.5788(11) -0.1010(11) 0.0828(8)
C58 C 0.6327(14) -0.1599(13) 0.1199(10)
F20 F 0.5669(12) -0.2522(10) 0.1112(11)
F21 F 0.7314(9) -0.1659(8) 0.0891(6)
F22 F 0.6723(10) -0.1218(11) 0.1944(6)
Ag1A Ag 0.45255(8) 0.56678(7) 0.54610(5)
Ag2A Ag 0.42608(9) -0.08930(8) -0.05113(6)
O2A O 0.5626(7) 0.5328(6) 0.3791(5)
O4A O 0.5080(9) 0.1445(7) -0.0399(6)
C59 C 0.146(2) 0.2926(18) 0.8204(16)
H25 H 0.2175 0.2851 0.839
H26 H 0.1622 0.3578 0.8148
Cl1 Cl 0.0477(6) 0.2726(5) 0.8835(3)
Cl2 Cl 0.0915(11) 0.2109(7) 0.7312(4)
loop_
_geom_bond_atom_site_label_1
_geom_bond_atom_site_label_2
_geom_bond_site_symmetry_1
_geom_bond_site_symmetry_2
Au1 Au2 1_555 1_555
Au2 Ag1 1_555 1_555
Ag1 O1 1_555 1_555
Ag2 Au1 1_555 1_555
C1 Au1 1_555 1_555
C2 C1 1_555 1_555
C3 C2 1_555 1_555
C4 C3 1_555 1_555
C5 C4 1_555 1_555
C6 C1 1_555 1_555
F1 C2 1_555 1_555
F2 C3 1_555 1_555
F3 C5 1_555 1_555
F4 C6 1_555 1_555
C7 C4 1_555 1_555
C8 C7 1_555 1_555
C9 C8 1_555 1_555
C10 C9 1_555 1_555
C11 C10 1_555 1_555
C12 C7 1_555 1_555
F5 C8 1_555 1_555
F6 C9 1_555 1_555
Br1 C10 1_555 1_555
F7 C11 1_555 1_555
F8 C12 1_555 1_555
C13 Au2 1_555 1_555
C14 C13 1_555 1_555
C15 C14 1_555 1_555
C16 C15 1_555 1_555
C17 C16 1_555 1_555
C18 C13 1_555 1_555
F9 C14 1_555 1_555
F10 C15 1_555 1_555
F11 C17 1_555 1_555
F12 C18 1_555 1_555
C19 C16 1_555 1_555
C20 C19 1_555 1_555
C21 C20 1_555 1_555
C22 C21 1_555 1_555
C23 C22 1_555 1_555
C24 C19 1_555 1_555
F13 C20 1_555 1_555
F14 C21 1_555 1_555
Br2 C22 1_555 1_555
F15 C23 1_555 1_555
F16 C24 1_555 1_555
P1 Au1 1_555 1_555
P2 Au2 1_555 1_555
C25 P1 1_555 1_555
C26 P2 1_555 1_555
C27 C26 1_555 1_555
H1 C27 1_555 1_555
C28 C27 1_555 1_555
H2 C28 1_555 1_555
C29 C28 1_555 1_555
H3 C29 1_555 1_555
C30 C25 1_555 1_555
H4 C30 1_555 1_555
C31 P1 1_555 1_555
C32 C31 1_555 1_555
H5 C32 1_555 1_555
C33 C32 1_555 1_555
H6 C33 1_555 1_555
C34 C33 1_555 1_555
H7 C34 1_555 1_555
C35 C34 1_555 1_555
H8 C35 1_555 1_555
C36 C31 1_555 1_555
H9 C36 1_555 1_555
C37 P1 1_555 1_555
C38 C37 1_555 1_555
H10 C38 1_555 1_555
C39 C38 1_555 1_555
H11 C39 1_555 1_555
C40 C39 1_555 1_555
H12 C40 1_555 1_555
C41 C40 1_555 1_555
H13 C41 1_555 1_555
C42 C37 1_555 1_555
H14 C42 1_555 1_555
C43 P2 1_555 1_555
C44 C43 1_555 1_555
H15 C44 1_555 1_555
C45 C44 1_555 1_555
H16 C45 1_555 1_555
C46 C45 1_555 1_555
H17 C46 1_555 1_555
C47 C46 1_555 1_555
H18 C47 1_555 1_555
C48 C43 1_555 1_555
H19 C48 1_555 1_555
C49 P2 1_555 1_555
C50 C49 1_555 1_555
H20 C50 1_555 1_555
C51 C50 1_555 1_555
H21 C51 1_555 1_555
C52 C51 1_555 1_555
H22 C52 1_555 1_555
C53 C52 1_555 1_555
H23 C53 1_555 1_555
C54 C49 1_555 1_555
H24 C54 1_555 1_555
O1 C55 1_555 1_555
O2 C55 1_555 1_555
C55 C56 1_555 1_555
C56 F17 1_555 1_555
F18 C56 1_555 1_555
F19 C56 1_555 1_555
O3 Ag2 1_555 1_555
O4 C57 1_555 1_555
C57 O3 1_555 1_555
C58 C57 1_555 1_555
F20 C58 1_555 1_555
F21 C58 1_555 1_555
F22 C58 1_555 1_555
C59 H25 1_555 1_555
H26 C59 1_555 1_555
Cl1 C59 1_555 1_555
Cl2 C59 1_555 1_555
Ag1A Ag1 1_555 1_555
Ag2A Ag2 1_555 1_555
O2A Ag1 1_555 1_555
O4A Ag2 1_555 1_555
Ag2 C1 1_555 1_555
C5 C6 1_555 1_555
C11 C12 1_555 1_555
C17 C18 1_555 1_555
C23 C24 1_555 1_555
C25 C26 1_555 1_555
C29 C30 1_555 1_555
C35 C36 1_555 1_555
C41 C42 1_555 1_555
C47 C48 1_555 1_555
C53 C54 1_555 1_555
O2 Ag1A 1_555 1_555
O4 Ag2A 1_555 1_555

#END
