
#######################################################################
#
#                 Cambridge Crystallographic Data Centre
#                                CCDC 
#
#######################################################################
#
# If this CIF has been generated from an entry in the Cambridge 
# Structural Database, then it will include bibliographic, chemical, 
# crystal, experimental, refinement or atomic coordinate data resulting 
# from the CCDC's data processing and validation procedures.
#
#######################################################################

data_XIDBOD
_symmetry_cell_setting           monoclinic
_symmetry_space_group_name_H-M   'P 21/c'
_symmetry_Int_Tables_number      14
_space_group_name_Hall           '-P 2ybc'
loop_
_symmetry_equiv_pos_site_id
_symmetry_equiv_pos_as_xyz
1 x,y,z
2 -x,1/2+y,1/2-z
3 -x,-y,-z
4 x,1/2-y,1/2+z
_cell_length_a                   7.8497(7)
_cell_length_b                   14.0717(13)
_cell_length_c                   13.8997(11)
_cell_angle_alpha                90
_cell_angle_beta                 109.381(4)
_cell_angle_gamma                90
_cell_volume                     1448.34
loop_
_atom_site_label
_atom_site_type_symbol
_atom_site_fract_x
_atom_site_fract_y
_atom_site_fract_z
Cu1 Cu 0.68642(5) -0.06225(3) 0.88526(3)
O1 O 0.4784(3) 0.00762(18) 0.79938(18)
O2 O 0.2761(3) 0.01369(19) 0.88090(18)
O3 O 0.8268(3) 0.05919(15) 0.90864(17)
O4 O 1.0884(3) 0.11481(15) 1.01541(17)
N1 N 0.2425(4) 0.1078(2) 0.2563(2)
N2 N -0.0405(3) 0.15061(19) 0.5320(2)
N3 N -0.5329(3) 0.32600(19) 0.6054(2)
C1 C 0.3698(5) 0.0991(3) 0.3471(3)
H1 H 0.4888 0.0913 0.3494
C2 C 0.3351(4) 0.1007(3) 0.4378(3)
H2 H 0.4290 0.0929 0.4991
C3 C 0.1597(4) 0.1144(2) 0.4377(2)
C4 C 0.0292(4) 0.1296(2) 0.3439(3)
H3 H -0.0888 0.1435 0.3399
C5 C 0.0742(5) 0.1242(2) 0.2559(3)
H4 H -0.0168 0.1325 0.1934
C6 C 0.1175(4) 0.1129(2) 0.5346(2)
C7 C 0.2367(4) 0.0742(2) 0.6228(2)
H5 H 0.3454 0.0486 0.6219
C8 C 0.1960(4) 0.0732(2) 0.7112(2)
C9 C 0.0340(4) 0.1137(2) 0.7099(2)
H6 H 0.0015 0.1146 0.7684
C10 C -0.0787(4) 0.1530(2) 0.6195(2)
C11 C -0.4730(4) 0.2602(2) 0.6790(3)
H7 H -0.5308 0.2547 0.7273
C12 C -0.3297(4) 0.2005(2) 0.6865(3)
H8 H -0.2903 0.1570 0.7397
C13 C -0.2455(4) 0.2066(2) 0.6132(2)
C14 C -0.3151(4) 0.2709(2) 0.5338(3)
H9 H -0.2668 0.2745 0.4812
C15 C -0.4557(4) 0.3290(2) 0.5335(3)
H10 H -0.4990 0.3724 0.4806
C16 C 0.3245(4) 0.0277(2) 0.8073(2)
C17 C 0.9756(4) 0.0500(2) 0.9781(2)
O3B O 1.1732(3) -0.05919(15) 1.09136(17)
C17B C 1.0244(4) -0.0500(2) 1.0219(2)
O4B O 0.9116(3) -0.11481(15) 0.98459(17)
Cu1B Cu 0.31358(5) 0.06225(3) 0.11474(3)
O1B O 0.5216(3) -0.00762(18) 0.20062(18)
O2B O 0.7239(3) -0.01369(19) 0.11910(18)
N1B N 0.7575(4) -0.1078(2) 0.7437(2)
N2B N 1.0405(3) -0.15061(19) 0.4680(2)
N3B N 1.5329(3) -0.32600(19) 0.3946(2)
C1B C 0.6302(5) -0.0991(3) 0.6529(3)
H1B H 0.5112 -0.0913 0.6506
C2B C 0.6649(4) -0.1007(3) 0.5622(3)
H2B H 0.5710 -0.0929 0.5009
C3B C 0.8403(4) -0.1144(2) 0.5623(2)
C4B C 0.9708(4) -0.1296(2) 0.6561(3)
H3B H 1.0888 -0.1435 0.6601
C5B C 0.9258(5) -0.1242(2) 0.7441(3)
H4B H 1.0168 -0.1325 0.8066
C6B C 0.8825(4) -0.1129(2) 0.4654(2)
C7B C 0.7633(4) -0.0742(2) 0.3772(2)
H5B H 0.6546 -0.0486 0.3781
C8B C 0.8040(4) -0.0732(2) 0.2888(2)
C9B C 0.9660(4) -0.1137(2) 0.2901(2)
H6B H 0.9985 -0.1146 0.2316
C10B C 1.0787(4) -0.1530(2) 0.3805(2)
C11B C 1.4730(4) -0.2602(2) 0.3210(3)
H7B H 1.5308 -0.2547 0.2727
C12B C 1.3297(4) -0.2005(2) 0.3135(3)
H8B H 1.2903 -0.1570 0.2603
C13B C 1.2455(4) -0.2066(2) 0.3868(2)
C14B C 1.3151(4) -0.2709(2) 0.4662(3)
H9B H 1.2668 -0.2745 0.5188
C15B C 1.4557(4) -0.3290(2) 0.4665(3)
H10B H 1.4990 -0.3724 0.5194
C16B C 0.6755(4) -0.0277(2) 0.1927(2)
Cu1A Cu -0.68642(5) 0.43775(3) 0.61474(3)
Cu1B_2 Cu 1.31358(5) 0.06225(3) 1.11474(3)
Cu1C Cu 1.68642(5) -0.43775(3) 0.38526(3)
O3B_2 O 0.1732(3) -0.05919(15) 0.09136(17)
O4_2 O 0.0884(3) 0.11481(15) 0.01541(17)
N3A N 0.5329(3) -0.17400(19) 0.8946(2)
N3C N 0.4671(3) 0.17400(19) 0.1054(2)
loop_
_geom_bond_atom_site_label_1
_geom_bond_atom_site_label_2
_geom_bond_site_symmetry_1
_geom_bond_site_symmetry_2
Cu1 O1 1_555 1_555
O1 C16 1_555 1_555
O2 C16 1_555 1_555
O3 Cu1 1_555 1_555
O4 C17 1_555 1_555
N1 C1 1_555 1_555
N2 C6 1_555 1_555
N3 C11 1_555 1_555
C1 H1 1_555 1_555
C2 C1 1_555 1_555
H2 C2 1_555 1_555
C3 C2 1_555 1_555
C4 C3 1_555 1_555
H3 C4 1_555 1_555
C5 N1 1_555 1_555
H4 C5 1_555 1_555
C6 C3 1_555 1_555
C7 C6 1_555 1_555
H5 C7 1_555 1_555
C8 C7 1_555 1_555
C9 C8 1_555 1_555
H6 C9 1_555 1_555
C10 N2 1_555 1_555
C11 H7 1_555 1_555
C12 C11 1_555 1_555
H8 C12 1_555 1_555
C13 C10 1_555 1_555
C14 C13 1_555 1_555
H9 C14 1_555 1_555
C15 N3 1_555 1_555
H10 C15 1_555 1_555
C16 C8 1_555 1_555
C17 O3 1_555 1_555
O3B C17B 1_555 1_555
C17B C17 1_555 1_555
O4B Cu1 1_555 1_555
Cu1B N1 1_555 1_555
O1B Cu1B 1_555 1_555
O2B C16B 1_555 1_555
N1B Cu1 1_555 1_555
N2B C6B 1_555 1_555
N3B C11B 1_555 1_555
C1B N1B 1_555 1_555
H1B C1B 1_555 1_555
C2B C1B 1_555 1_555
H2B C2B 1_555 1_555
C3B C2B 1_555 1_555
C4B C3B 1_555 1_555
H3B C4B 1_555 1_555
C5B N1B 1_555 1_555
H4B C5B 1_555 1_555
C6B C3B 1_555 1_555
C7B C6B 1_555 1_555
H5B C7B 1_555 1_555
C8B C7B 1_555 1_555
C9B C8B 1_555 1_555
H6B C9B 1_555 1_555
C10B N2B 1_555 1_555
C11B H7B 1_555 1_555
C12B C11B 1_555 1_555
H8B C12B 1_555 1_555
C13B C10B 1_555 1_555
C14B C13B 1_555 1_555
H9B C14B 1_555 1_555
C15B N3B 1_555 1_555
H10B C15B 1_555 1_555
C16B O1B 1_555 1_555
Cu1A N3 1_555 1_555
Cu1B_2 O4 1_555 1_555
Cu1C N3B 1_555 1_555
O3B_2 Cu1B 1_555 1_555
O4_2 Cu1B 1_555 1_555
N3A Cu1 1_555 1_555
N3C Cu1B 1_555 1_555
C4 C5 1_555 1_555
C9 C10 1_555 1_555
C12 C13 1_555 1_555
C14 C15 1_555 1_555
O3B Cu1B_2 1_555 1_555
C17B O4B 1_555 1_555
C4B C5B 1_555 1_555
C8B C16B 1_555 1_555
C9B C10B 1_555 1_555
C12B C13B 1_555 1_555
C14B C15B 1_555 1_555

#END
