
#######################################################################
#
#                 Cambridge Crystallographic Data Centre
#                                CCDC 
#
#######################################################################
#
# If this CIF has been generated from an entry in the Cambridge 
# Structural Database, then it will include bibliographic, chemical, 
# crystal, experimental, refinement or atomic coordinate data resulting 
# from the CCDC's data processing and validation procedures.
#
#######################################################################

data_XIDCEU
_symmetry_cell_setting           orthorhombic
_symmetry_space_group_name_H-M   'P b c n'
_symmetry_Int_Tables_number      60
_space_group_name_Hall           '-P 2n 2ab'
loop_
_symmetry_equiv_pos_site_id
_symmetry_equiv_pos_as_xyz
1 x,y,z
2 1/2-x,1/2-y,1/2+z
3 -x,y,1/2-z
4 1/2+x,1/2-y,-z
5 -x,-y,-z
6 1/2+x,1/2+y,1/2-z
7 x,-y,1/2+z
8 1/2-x,1/2+y,z
_cell_length_a                   13.1218(10)
_cell_length_b                   20.9009(17)
_cell_length_c                   20.6305(16)
_cell_angle_alpha                90
_cell_angle_beta                 90
_cell_angle_gamma                90
_cell_volume                     5658.07
loop_
_atom_site_label
_atom_site_type_symbol
_atom_site_fract_x
_atom_site_fract_y
_atom_site_fract_z
Cd1 Cd 1.02567(2) 0.687575(11) 0.582459(11)
N1 N 1.0970(2) 0.58726(14) 0.61237(14)
N2 N 1.1422(2) 0.39072(13) 0.74868(13)
N3 N 1.0627(2) 0.31495(14) 0.97348(13)
N4 N 0.5595(3) 0.28755(16) 0.59787(15)
N5 N 0.6373(2) 0.49267(15) 0.71052(14)
N6 N 0.5329(4) 0.6055(3) 0.9136(2)
O1 O 1.3275(3) 0.25454(16) 0.58768(13)
O2 O 1.3775(2) 0.21688(12) 0.68192(13)
O3 O 0.8870(2) 0.65280(14) 0.63372(16)
O4 O 0.8725(3) 0.59246(18) 0.54701(15)
C1 C 1.1326(3) 0.54066(18) 0.57342(17)
H1 H 1.1393 0.5494 0.5294
C2 C 1.1596(3) 0.48098(18) 0.59516(17)
H2 H 1.1855 0.4509 0.5664
C3 C 1.1479(3) 0.46556(16) 0.66067(16)
C4 C 1.1101(3) 0.51399(17) 0.70027(16)
H3 H 1.0998 0.5063 0.7442
C5 C 1.0880(3) 0.57282(17) 0.67497(17)
H4 H 1.0653 0.6046 0.7031
C6 C 1.1742(3) 0.40193(16) 0.68792(16)
C7 C 1.2292(3) 0.35675(17) 0.65320(17)
H5 H 1.2487 0.3650 0.6107
C8 C 1.2548(3) 0.29956(17) 0.68234(17)
C9 C 1.2230(3) 0.28857(17) 0.74484(16)
H6 H 1.2394 0.2504 0.7656
C10 C 1.1659(3) 0.33506(17) 0.77676(16)
C11 C 1.0344(3) 0.36365(19) 0.93582(17)
H7 H 0.9908 0.3942 0.9532
C12 C 1.0658(3) 0.37130(18) 0.87297(17)
H8 H 1.0444 0.4067 0.8493
C13 C 1.1294(3) 0.32633(16) 0.84468(16)
C14 C 1.1593(3) 0.27543(18) 0.88326(17)
H9 H 1.2021 0.2439 0.8668
C15 C 1.1250(3) 0.27200(18) 0.94648(17)
H10 H 1.1467 0.2378 0.9718
C16 C 1.3239(3) 0.25264(19) 0.64804(19)
C17 C 0.5940(4) 0.3285(2) 0.5540(2)
H11 H 0.5919 0.3162 0.5107
C18 C 0.6327(4) 0.38803(19) 0.56844(18)
H12 H 0.6580 0.4141 0.5356
C19 C 0.6337(3) 0.40891(17) 0.63201(18)
C20 C 0.5979(3) 0.36606(19) 0.67767(18)
H13 H 0.5970 0.3776 0.7212
C21 C 0.5639(4) 0.3072(2) 0.65977(19)
H14 H 0.5426 0.2792 0.6920
C22 C 0.6712(3) 0.47295(17) 0.65280(17)
C23 C 0.7365(3) 0.50983(18) 0.61500(18)
H15 H 0.7582 0.4953 0.5747
C24 C 0.7686(3) 0.56864(18) 0.63843(18)
C25 C 0.7310(3) 0.58952(18) 0.69696(19)
H16 H 0.7495 0.6294 0.7132
C26 C 0.6646(3) 0.55026(18) 0.73170(17)
C27 C 0.5609(5) 0.6483(3) 0.8697(3)
H17 H 0.5504 0.6913 0.8790
C28 C 0.6048(4) 0.6329(2) 0.8109(2)
H18 H 0.6226 0.6651 0.7820
C29 C 0.6220(3) 0.5700(2) 0.79510(19)
C30 C 0.5931(3) 0.5251(2) 0.8404(2)
H19 H 0.6026 0.4817 0.8323
C31 C 0.5498(4) 0.5451(3) 0.8985(2)
H20 H 0.5316 0.5139 0.9285
C32 C 0.8483(3) 0.6074(2) 0.6020(2)
Cd1F Cd 1.02567(2) 0.312425(11) 1.082459(11)
Cd1G Cd 0.47433(2) 0.187575(11) 0.582459(11)
Cd1G_2 Cd 1.47433(2) 0.187575(11) 0.582459(11)
N3F N 1.0627(2) 0.68505(14) 0.47348(13)
N4G N 0.9405(3) 0.78755(16) 0.59787(15)
O1G O 1.1725(3) 0.75454(16) 0.58768(13)
O2G O 1.1225(2) 0.71688(12) 0.68192(13)
O5 O 0.3668(5) 0.6016(3) 1.0152(3)
H21 H 0.4167 0.6316 1.0021
H22 H 0.3783 0.5732 0.9812
loop_
_geom_bond_atom_site_label_1
_geom_bond_atom_site_label_2
_geom_bond_site_symmetry_1
_geom_bond_site_symmetry_2
Cd1 N1 1_555 1_555
N1 C1 1_555 1_555
N2 C6 1_555 1_555
N3 C11 1_555 1_555
N4 C17 1_555 1_555
N5 C22 1_555 1_555
N6 C27 1_555 1_555
O1 C16 1_555 1_555
O2 C16 1_555 1_555
O3 Cd1 1_555 1_555
O4 C32 1_555 1_555
C1 H1 1_555 1_555
C2 C1 1_555 1_555
H2 C2 1_555 1_555
C3 C2 1_555 1_555
C4 C3 1_555 1_555
H3 C4 1_555 1_555
C5 N1 1_555 1_555
H4 C5 1_555 1_555
C6 C3 1_555 1_555
C7 C6 1_555 1_555
H5 C7 1_555 1_555
C8 C7 1_555 1_555
C9 C8 1_555 1_555
H6 C9 1_555 1_555
C10 N2 1_555 1_555
C11 H7 1_555 1_555
C12 C11 1_555 1_555
H8 C12 1_555 1_555
C13 C10 1_555 1_555
C14 C13 1_555 1_555
H9 C14 1_555 1_555
C15 N3 1_555 1_555
H10 C15 1_555 1_555
C16 C8 1_555 1_555
C17 H11 1_555 1_555
C18 C17 1_555 1_555
H12 C18 1_555 1_555
C19 C18 1_555 1_555
C20 C19 1_555 1_555
H13 C20 1_555 1_555
C21 N4 1_555 1_555
H14 C21 1_555 1_555
C22 C19 1_555 1_555
C23 C22 1_555 1_555
H15 C23 1_555 1_555
C24 C23 1_555 1_555
C25 C24 1_555 1_555
H16 C25 1_555 1_555
C26 N5 1_555 1_555
C27 H17 1_555 1_555
C28 C27 1_555 1_555
H18 C28 1_555 1_555
C29 C26 1_555 1_555
C30 C29 1_555 1_555
H19 C30 1_555 1_555
C31 N6 1_555 1_555
H20 C31 1_555 1_555
C32 O3 1_555 1_555
O5 H21 1_555 1_555
H22 O5 1_555 1_555
Cd1F N3 1_555 1_555
Cd1G N4 1_555 1_555
Cd1G_2 O1 1_555 1_555
N3F Cd1 1_555 1_555
N4G Cd1 1_555 1_555
O1G Cd1 1_555 1_555
O2G Cd1 1_555 1_555
O2 Cd1G_2 1_555 1_555
C4 C5 1_555 1_555
C9 C10 1_555 1_555
C12 C13 1_555 1_555
C14 C15 1_555 1_555
C20 C21 1_555 1_555
C24 C32 1_555 1_555
C25 C26 1_555 1_555
C28 C29 1_555 1_555
C30 C31 1_555 1_555

#END
