
#######################################################################
#
#                 Cambridge Crystallographic Data Centre
#                                CCDC 
#
#######################################################################
#
# If this CIF has been generated from an entry in the Cambridge 
# Structural Database, then it will include bibliographic, chemical, 
# crystal, experimental, refinement or atomic coordinate data resulting 
# from the CCDC's data processing and validation procedures.
#
#######################################################################

data_XIDCAQ
_symmetry_cell_setting           monoclinic
_symmetry_space_group_name_H-M   'P 21/c'
_symmetry_Int_Tables_number      14
_space_group_name_Hall           '-P 2ybc'
loop_
_symmetry_equiv_pos_site_id
_symmetry_equiv_pos_as_xyz
1 x,y,z
2 -x,1/2+y,1/2-z
3 -x,-y,-z
4 x,1/2-y,1/2+z
_cell_length_a                   8.6115(7)
_cell_length_b                   13.5673(11)
_cell_length_c                   13.2854(11)
_cell_angle_alpha                90
_cell_angle_beta                 106.6160(10)
_cell_angle_gamma                90
_cell_volume                     1487.38
loop_
_atom_site_label
_atom_site_type_symbol
_atom_site_fract_x
_atom_site_fract_y
_atom_site_fract_z
Cd1 Cd 0.32312(2) 1.078681(14) 0.587567(13)
N1 N 0.7285(3) 0.88119(18) 1.24909(17)
N2 N 0.9985(3) 0.85961(16) 0.96091(16)
N3 N 1.4843(3) 0.69943(17) 0.90254(18)
O1 O 0.5280(2) 0.98161(17) 0.67993(15)
O2 O 0.7063(2) 0.95803(19) 0.58979(15)
O3 O 0.1685(2) 0.94191(14) 0.58524(14)
O4 O -0.0632(2) 0.87600(14) 0.49286(15)
C1 C 0.6151(3) 0.8939(2) 1.1573(2)
H1 H 0.5078 0.9003 1.1577
C2 C 0.6490(3) 0.8981(2) 1.0626(2)
H2 H 0.5655 0.9076 1.0011
C3 C 0.8072(3) 0.8881(2) 1.0580(2)
C4 C 0.9249(3) 0.8722(2) 1.1533(2)
H3 H 1.0326 0.8632 1.1550
C5 C 0.8808(3) 0.8698(2) 1.2448(2)
H4 H 0.9616 0.8597 1.3075
C6 C 0.8502(3) 0.89161(19) 0.95753(19)
C7 C 0.7420(3) 0.92418(19) 0.8649(2)
H5 H 0.6402 0.9470 0.8650
C8 C 0.7852(3) 0.92272(18) 0.7722(2)
C9 C 0.9375(3) 0.8867(2) 0.7749(2)
H6 H 0.9702 0.8835 0.7140
C10 C 1.0400(3) 0.85540(18) 0.8711(2)
C11 C 1.4247(3) 0.7606(2) 0.8215(2)
H7 H 1.4816 0.7671 0.7720
C12 C 1.2848(3) 0.8143(2) 0.8071(2)
H8 H 1.2478 0.8548 0.7487
C13 C 1.1991(3) 0.80708(19) 0.8813(2)
C14 C 1.2618(3) 0.7451(2) 0.9666(2)
H9 H 1.2093 0.7390 1.0185
C15 C 1.4014(3) 0.6929(2) 0.9740(2)
H10 H 1.4403 0.6512 1.0311
C16 C 0.6642(3) 0.9573(2) 0.67135(19)
C17 C 0.0298(3) 0.94776(19) 0.52233(19)
O3B O -0.1685(2) 1.05809(14) 0.41476(14)
O4B O 0.0632(2) 1.12400(14) 0.50714(15)
C17B C -0.0298(3) 1.05224(19) 0.47767(19)
Cd1B Cd -0.32312(2) 0.921319(14) 0.412433(13)
N1B N -0.7285(3) 1.11881(18) -0.24909(17)
N2B N -0.9985(3) 1.14039(16) 0.03909(16)
N3B N -1.4843(3) 1.30057(17) 0.09746(18)
O1B O -0.5280(2) 1.01839(17) 0.32007(15)
O2B O -0.7063(2) 1.04197(19) 0.41021(15)
C1B C -0.6151(3) 1.1061(2) -0.1573(2)
H1B H -0.5078 1.0997 -0.1577
C2B C -0.6490(3) 1.1019(2) -0.0626(2)
H2B H -0.5655 1.0924 -0.0011
C3B C -0.8072(3) 1.1119(2) -0.0580(2)
C4B C -0.9249(3) 1.1278(2) -0.1533(2)
H3B H -1.0326 1.1368 -0.1550
C5B C -0.8808(3) 1.1302(2) -0.2448(2)
H4B H -0.9616 1.1403 -0.3075
C6B C -0.8502(3) 1.10839(19) 0.04247(19)
C7B C -0.7420(3) 1.07582(19) 0.1351(2)
H5B H -0.6402 1.0530 0.1350
C8B C -0.7852(3) 1.07728(18) 0.2278(2)
C9B C -0.9375(3) 1.1133(2) 0.2251(2)
H6B H -0.9702 1.1165 0.2860
C10B C -1.0400(3) 1.14460(18) 0.1289(2)
C11B C -1.4247(3) 1.2394(2) 0.1785(2)
H7B H -1.4816 1.2329 0.2280
C12B C -1.2848(3) 1.1857(2) 0.1929(2)
H8B H -1.2478 1.1452 0.2513
C13B C -1.1991(3) 1.19292(19) 0.1187(2)
C14B C -1.2618(3) 1.2549(2) 0.0334(2)
H9B H -1.2093 1.2610 -0.0185
C15B C -1.4014(3) 1.3071(2) 0.0260(2)
H10B H -1.4403 1.3488 -0.0311
C16B C -0.6642(3) 1.0427(2) 0.32865(19)
Cd1_2 Cd -0.67688(2) 1.078681(14) -0.412433(13)
Cd1_3 Cd -0.67688(2) 1.078681(14) 0.587567(13)
Cd1A Cd 1.67688(2) 0.578681(14) 0.912433(13)
Cd1B_2 Cd 0.67688(2) 0.921319(14) 0.412433(13)
Cd1B_3 Cd 0.67688(2) 0.921319(14) 1.412433(13)
Cd1C Cd -1.67688(2) 1.421319(14) 0.087567(13)
N1_2 N -0.2715(3) 0.88119(18) 0.24909(17)
N1B_2 N 0.2715(3) 1.11881(18) 0.75091(17)
N3A N 0.5157(3) 1.19943(17) 0.59746(18)
N3C N -0.5157(3) 0.80057(17) 0.40254(18)
O2_2 O -0.2937(2) 0.95803(19) 0.58979(15)
O2B_2 O 0.2937(2) 1.04197(19) 0.41021(15)
loop_
_geom_bond_atom_site_label_1
_geom_bond_atom_site_label_2
_geom_bond_site_symmetry_1
_geom_bond_site_symmetry_2
Cd1 O1 1_555 1_555
N1 C1 1_555 1_555
N2 C6 1_555 1_555
N3 C11 1_555 1_555
O1 C16 1_555 1_555
O2 C16 1_555 1_555
O3 Cd1 1_555 1_555
O4 C17 1_555 1_555
C1 H1 1_555 1_555
C2 C1 1_555 1_555
H2 C2 1_555 1_555
C3 C2 1_555 1_555
C4 C3 1_555 1_555
H3 C4 1_555 1_555
C5 N1 1_555 1_555
H4 C5 1_555 1_555
C6 C3 1_555 1_555
C7 C6 1_555 1_555
H5 C7 1_555 1_555
C8 C7 1_555 1_555
C9 C8 1_555 1_555
H6 C9 1_555 1_555
C10 N2 1_555 1_555
C11 H7 1_555 1_555
C12 C11 1_555 1_555
H8 C12 1_555 1_555
C13 C10 1_555 1_555
C14 C13 1_555 1_555
H9 C14 1_555 1_555
C15 N3 1_555 1_555
H10 C15 1_555 1_555
C16 C8 1_555 1_555
C17 O3 1_555 1_555
O3B C17B 1_555 1_555
O4B Cd1 1_555 1_555
C17B C17 1_555 1_555
Cd1B O4 1_555 1_555
N1B C1B 1_555 1_555
N2B C6B 1_555 1_555
N3B C11B 1_555 1_555
O1B Cd1B 1_555 1_555
O2B C16B 1_555 1_555
C1B H1B 1_555 1_555
C2B C1B 1_555 1_555
H2B C2B 1_555 1_555
C3B C2B 1_555 1_555
C4B C3B 1_555 1_555
H3B C4B 1_555 1_555
C5B N1B 1_555 1_555
H4B C5B 1_555 1_555
C6B C3B 1_555 1_555
C7B C6B 1_555 1_555
H5B C7B 1_555 1_555
C8B C7B 1_555 1_555
C9B C8B 1_555 1_555
H6B C9B 1_555 1_555
C10B N2B 1_555 1_555
C11B H7B 1_555 1_555
C12B C11B 1_555 1_555
H8B C12B 1_555 1_555
C13B C10B 1_555 1_555
C14B C13B 1_555 1_555
H9B C14B 1_555 1_555
C15B N3B 1_555 1_555
H10B C15B 1_555 1_555
C16B O1B 1_555 1_555
Cd1_2 N1B 1_555 1_555
Cd1_3 O2B 1_555 1_555
Cd1A N3 1_555 1_555
Cd1B_2 O2 1_555 1_555
Cd1B_3 N1 1_555 1_555
Cd1C N3B 1_555 1_555
N1_2 Cd1B 1_555 1_555
N1B_2 Cd1 1_555 1_555
N3A Cd1 1_555 1_555
N3C Cd1B 1_555 1_555
O2_2 Cd1B 1_555 1_555
O2B_2 Cd1 1_555 1_555
C4 C5 1_555 1_555
C9 C10 1_555 1_555
C12 C13 1_555 1_555
C14 C15 1_555 1_555
O3B Cd1B 1_555 1_555
O4B C17B 1_555 1_555
C4B C5B 1_555 1_555
C8B C16B 1_555 1_555
C9B C10B 1_555 1_555
C12B C13B 1_555 1_555
C14B C15B 1_555 1_555

#END
