
#######################################################################
#
#                 Cambridge Crystallographic Data Centre
#                                CCDC 
#
#######################################################################
#
# If this CIF has been generated from an entry in the Cambridge 
# Structural Database, then it will include bibliographic, chemical, 
# crystal, experimental, refinement or atomic coordinate data resulting 
# from the CCDC's data processing and validation procedures.
#
#######################################################################

data_XIDCET
_symmetry_cell_setting           orthorhombic
_symmetry_space_group_name_H-M   'C m c 21'
_symmetry_Int_Tables_number      36
_space_group_name_Hall           'C 2n -2'
loop_
_symmetry_equiv_pos_site_id
_symmetry_equiv_pos_as_xyz
1 x,y,z
2 -x,-y,1/2+z
3 x,-y,1/2+z
4 -x,y,z
5 1/2+x,1/2+y,z
6 1/2-x,1/2-y,1/2+z
7 1/2+x,1/2-y,1/2+z
8 1/2-x,1/2+y,z
_cell_length_a                   25.7961(15)
_cell_length_b                   7.3246(4)
_cell_length_c                   8.0645(5)
_cell_angle_alpha                90
_cell_angle_beta                 90
_cell_angle_gamma                90
_cell_volume                     1523.76
loop_
_atom_site_label
_atom_site_type_symbol
_atom_site_fract_x
_atom_site_fract_y
_atom_site_fract_z
C1 C 0.94549(16) 0.6949(5) 0.7937(5)
C2 C 0.85449(18) 0.6808(6) 0.6941(6)
C3 C 0.80295(19) 0.6606(7) 0.6437(7)
H1 H 0.7812 0.5721 0.6942
C4 C 0.78456(19) 0.7709(7) 0.5199(7)
H2 H 0.7497 0.7569 0.4842
C5 C 0.81561(18) 0.9035(7) 0.4445(7)
H3 H 0.8019 0.9780 0.3586
C6 C 0.86671(17) 0.9257(6) 0.4962(6)
H4 H 0.8878 1.0175 0.4477
C7 C 0.88666(16) 0.8130(6) 0.6190(5)
Cs1 Cs 1.0000 0.84761(4) 0.3341
N1 N 0.93770(14) 0.8183(4) 0.6782(4)
P1 P 1.0000 0.6367(2) 0.9210(2)
S1 S 0.88973(4) 0.56057(13) 0.8396(3)
C1C C 1.05451(16) 0.6949(5) 0.7937(5)
C2C C 1.14551(18) 0.6808(6) 0.6941(6)
C3C C 1.19705(19) 0.6606(7) 0.6437(7)
H1C H 1.2188 0.5721 0.6942
C4C C 1.21544(19) 0.7709(7) 0.5199(7)
H2C H 1.2503 0.7569 0.4842
C5C C 1.18439(18) 0.9035(7) 0.4445(7)
H3C H 1.1981 0.9780 0.3586
C6C C 1.13329(17) 0.9257(6) 0.4962(6)
H4C H 1.1122 1.0175 0.4477
C7C C 1.11334(16) 0.8130(6) 0.6190(5)
Cs1A Cs 1.0000 1.15239(4) 0.8341
Cs1_2 Cs 1.0000 0.84761(4) 1.3341
Cs1A_2 Cs 1.0000 0.15239(4) 0.8341
N1C N 1.06230(14) 0.8183(4) 0.6782(4)
N1A N 1.06230(14) 1.1817(4) 0.1782(4)
N1B N 0.93770(14) 1.1817(4) 0.1782(4)
P1_2 P 1.0000 0.6367(2) -0.0790(2)
P1A P 1.0000 0.3633(2) 0.4210(2)
S1C S 1.11027(4) 0.56057(13) 0.8396(3)
loop_
_geom_bond_atom_site_label_1
_geom_bond_atom_site_label_2
_geom_bond_site_symmetry_1
_geom_bond_site_symmetry_2
C1 N1 1_555 1_555
C2 C3 1_555 1_555
C3 H1 1_555 1_555
C4 C3 1_555 1_555
H2 C4 1_555 1_555
C5 C4 1_555 1_555
H3 C5 1_555 1_555
C6 C5 1_555 1_555
H4 C6 1_555 1_555
C7 C2 1_555 1_555
Cs1 N1 1_555 1_555
N1 C7 1_555 1_555
P1 C1 1_555 1_555
S1 C1 1_555 1_555
C1C P1 1_555 1_555
C2C C3C 1_555 1_555
C3C H1C 1_555 1_555
C4C C3C 1_555 1_555
H2C C4C 1_555 1_555
C5C C4C 1_555 1_555
H3C C5C 1_555 1_555
C6C C5C 1_555 1_555
H4C C6C 1_555 1_555
C7C C2C 1_555 1_555
Cs1A N1 1_555 1_555
Cs1_2 P1 1_555 1_555
Cs1A_2 P1 1_555 1_555
N1C Cs1 1_555 1_555
N1A Cs1 1_555 1_555
N1B Cs1 1_555 1_555
P1_2 Cs1 1_555 1_555
P1A Cs1 1_555 1_555
S1C C1C 1_555 1_555
C2 S1 1_555 1_555
C6 C7 1_555 1_555
C1C N1C 1_555 1_555
C2C S1C 1_555 1_555
C6C C7C 1_555 1_555
C7C N1C 1_555 1_555
Cs1A N1C 1_555 1_555
Cs1A_2 P1A 1_555 1_555

#END
