
#######################################################################
#
#                 Cambridge Crystallographic Data Centre
#                                CCDC 
#
#######################################################################
#
# If this CIF has been generated from an entry in the Cambridge 
# Structural Database, then it will include bibliographic, chemical, 
# crystal, experimental, refinement or atomic coordinate data resulting 
# from the CCDC's data processing and validation procedures.
#
#######################################################################

data_XIDFAT01
_symmetry_cell_setting           monoclinic
_symmetry_space_group_name_H-M   'P 21/c'
_symmetry_Int_Tables_number      14
_space_group_name_Hall           '-P 2ybc'
loop_
_symmetry_equiv_pos_site_id
_symmetry_equiv_pos_as_xyz
1 x,y,z
2 -x,1/2+y,1/2-z
3 -x,-y,-z
4 x,1/2-y,1/2+z
_cell_length_a                   9.6938(14)
_cell_length_b                   13.682(2)
_cell_length_c                   16.569(2)
_cell_angle_alpha                90
_cell_angle_beta                 93.601(2)
_cell_angle_gamma                90
_cell_volume                     2193.22
loop_
_atom_site_label
_atom_site_type_symbol
_atom_site_fract_x
_atom_site_fract_y
_atom_site_fract_z
C1 C 1.9216(3) 0.0685(2) 0.41211(19)
H1 H 1.8274 0.0550 0.4088
C2 C 2.1399(4) 0.0567(3) 0.4029(2)
H2 H 2.2256 0.0314 0.3915
C3 C 2.1201(4) 0.1457(3) 0.4358(3)
C4 C 1.9053(3) 0.2345(2) 0.47316(19)
C5 C 1.9764(3) 0.2987(2) 0.52506(19)
H3 H 2.0701 0.2902 0.5389
C6 C 1.9036(3) 0.3762(2) 0.55597(18)
C7 C 1.7641(3) 0.3896(2) 0.53681(18)
H4 H 1.7167 0.4417 0.5581
C8 C 1.6972(3) 0.3236(2) 0.48526(19)
C9 C 1.7664(3) 0.2463(2) 0.4523(2)
H5 H 1.7201 0.2031 0.4168
C10 C 1.4558(4) 0.3654(3) 0.5153(2)
H6 H 1.4758 0.3802 0.5696
C11 C 1.3510(4) 0.3417(3) 0.4008(2)
H7 H 1.2816 0.3374 0.3596
C12 C 1.4853(4) 0.3218(3) 0.3926(2)
H8 H 1.5249 0.3011 0.3459
C13 C 1.9190(3) 0.4940(2) 0.66943(19)
H9 H 1.8266 0.4902 0.6811
C14 C 2.1130(3) 0.4677(3) 0.6118(2)
H10 H 2.1787 0.4441 0.5781
C15 C 2.1343(3) 0.5317(3) 0.6728(2)
H11 H 2.2188 0.5604 0.6882
C16 C 1.7130(3) 0.6571(2) 0.82241(18)
C17 C 1.5994(3) 0.7304(2) 0.80633(18)
C18 C 1.6284(3) 0.8209(2) 0.77311(19)
H12 H 1.7195 0.8390 0.7669
C19 C 1.5217(3) 0.8841(2) 0.7492(2)
C20 C 1.3865(3) 0.8566(2) 0.75737(19)
H13 H 1.3149 0.8979 0.7392
C21 C 1.3562(3) 0.7678(2) 0.79250(18)
C22 C 1.2066(3) 0.7376(2) 0.79579(19)
C23 C 1.4623(3) 0.7049(2) 0.81764(18)
H14 H 1.4424 0.6457 0.8420
N1 N 2.0156(3) 0.00849(19) 0.38874(16)
N2 N 1.9775(3) 0.15303(19) 0.44183(16)
N3 N 1.3312(3) 0.3693(2) 0.47904(19)
N4 N 1.5500(3) 0.3375(2) 0.46436(16)
N5 N 1.9753(3) 0.44380(19) 0.60903(15)
N6 N 2.0113(3) 0.54885(19) 0.70932(15)
O1 O 1.6867(2) 0.56921(17) 0.82518(16)
O2 O 1.8359(2) 0.69217(16) 0.82966(14)
O3 O 1.1846(2) 0.66311(16) 0.84040(13)
O4 O 1.1169(2) 0.78232(19) 0.75623(15)
O5 O 1.5556(2) 0.97141(17) 0.71612(17)
H15 H 1.4849 1.0020 0.7033
Zn1 Zn 1.99801(3) 0.61280(2) 0.81855(2)
N1C N 2.0156(3) 0.49151(19) 0.88874(16)
O3_2 O 2.1846(2) 0.66311(16) 0.84040(13)
Zn1_2 Zn 0.99801(3) 0.61280(2) 0.81855(2)
Zn1C Zn 1.99801(3) -0.11280(2) 0.31855(2)
loop_
_geom_bond_atom_site_label_1
_geom_bond_atom_site_label_2
_geom_bond_site_symmetry_1
_geom_bond_site_symmetry_2
C1 H1 1_555 1_555
C2 H2 1_555 1_555
C3 C2 1_555 1_555
C4 C5 1_555 1_555
C5 H3 1_555 1_555
C6 C5 1_555 1_555
C7 C6 1_555 1_555
H4 C7 1_555 1_555
C8 C7 1_555 1_555
C9 C4 1_555 1_555
H5 C9 1_555 1_555
C10 H6 1_555 1_555
C11 H7 1_555 1_555
C12 C11 1_555 1_555
H8 C12 1_555 1_555
C13 H9 1_555 1_555
C14 H10 1_555 1_555
C15 C14 1_555 1_555
H11 C15 1_555 1_555
C16 C17 1_555 1_555
C17 C18 1_555 1_555
C18 H12 1_555 1_555
C19 C18 1_555 1_555
C20 C19 1_555 1_555
H13 C20 1_555 1_555
C21 C20 1_555 1_555
C22 C21 1_555 1_555
C23 C17 1_555 1_555
H14 C23 1_555 1_555
N1 C1 1_555 1_555
N2 C1 1_555 1_555
N3 C10 1_555 1_555
N4 C8 1_555 1_555
N5 C6 1_555 1_555
N6 C13 1_555 1_555
O1 C16 1_555 1_555
O2 C16 1_555 1_555
O3 C22 1_555 1_555
O4 C22 1_555 1_555
O5 C19 1_555 1_555
H15 O5 1_555 1_555
Zn1 N6 1_555 1_555
N1C Zn1 1_555 1_555
O3_2 Zn1 1_555 1_555
Zn1_2 O3 1_555 1_555
Zn1C N1 1_555 1_555
C2 N1 1_555 1_555
C3 N2 1_555 1_555
C4 N2 1_555 1_555
C8 C9 1_555 1_555
C10 N4 1_555 1_555
C11 N3 1_555 1_555
C12 N4 1_555 1_555
C13 N5 1_555 1_555
C14 N5 1_555 1_555
C15 N6 1_555 1_555
C21 C23 1_555 1_555
O2 Zn1 1_555 1_555

#END
