
#######################################################################
#
#                 Cambridge Crystallographic Data Centre
#                                CCDC 
#
#######################################################################
#
# If this CIF has been generated from an entry in the Cambridge 
# Structural Database, then it will include bibliographic, chemical, 
# crystal, experimental, refinement or atomic coordinate data resulting 
# from the CCDC's data processing and validation procedures.
#
#######################################################################

data_XIDFEX
_symmetry_cell_setting           trigonal
_symmetry_space_group_name_H-M   'P -3 1 c'
_symmetry_Int_Tables_number      163
_space_group_name_Hall           "-P 3 2'c"
loop_
_symmetry_equiv_pos_site_id
_symmetry_equiv_pos_as_xyz
1 x,y,z
2 -y,x-y,z
3 -x+y,-x,z
4 -y,-x,1/2-z
5 x,x-y,1/2-z
6 -x+y,y,1/2-z
7 -x,-y,-z
8 y,-x+y,-z
9 x-y,x,-z
10 y,x,1/2+z
11 -x,-x+y,1/2+z
12 x-y,-y,1/2+z
_cell_length_a                   11.472(3)
_cell_length_b                   11.472(3)
_cell_length_c                   15.217(4)
_cell_angle_alpha                90
_cell_angle_beta                 90
_cell_angle_gamma                120
_cell_volume                     1734.35
loop_
_atom_site_label
_atom_site_type_symbol
_atom_site_fract_x
_atom_site_fract_y
_atom_site_fract_z
Zn1 Zn 0.0000 0.0000 0.5000
C1 C 0.2853(4) 0.5300(4) 0.6293(3)
N1 N 0.2365(3) 0.3897(3) 0.6262(2)
N2 N 0.1199(3) 0.1784(3) 0.5818(2)
C2 C 0.4232(4) 0.6174(4) 0.6294(3)
H1 H 0.4829 0.5849 0.6294
C3 C 0.1371(4) 0.2995(4) 0.5732(3)
H2 H 0.0872 0.3212 0.5353
C4 C 0.2119(5) 0.1904(5) 0.6442(4)
H3 H 0.2220 0.1195 0.6646
C5 C 0.2861(6) 0.3200(5) 0.6719(4)
H4 H 0.3554 0.3543 0.7130
C1A C 0.4700(4) 0.7553(6) 0.6293(3)
N1A N 0.6103(3) 0.8468(4) 0.6262(2)
N2A N 0.8216(3) 0.9415(4) 0.5818(2)
C2A C 0.3826(4) 0.8058(6) 0.6294(3)
H1A H 0.4151 0.8980 0.6294
C3A C 0.7005(4) 0.8376(6) 0.5732(3)
H2A H 0.6788 0.7660 0.5353
C4A C 0.8096(5) 1.0215(7) 0.6442(4)
H3A H 0.8805 1.1025 0.6646
C5A C 0.6800(5) 0.9661(8) 0.6719(4)
H4A H 0.6457 1.0011 0.7130
C1B C 0.2447(6) 0.7147(4) 0.6293(3)
N1B N 0.1532(4) 0.7635(3) 0.6262(2)
N2B N 0.0585(4) 0.8801(3) 0.5818(2)
C2B C 0.1942(6) 0.5768(4) 0.6294(3)
H1B H 0.1020 0.5171 0.6294
C3B C 0.1624(6) 0.8629(4) 0.5732(3)
H2B H 0.2340 0.9128 0.5353
C4B C -0.0215(7) 0.7881(5) 0.6442(4)
H3B H -0.1025 0.7780 0.6646
C5B C 0.0339(8) 0.7139(6) 0.6719(4)
H4B H -0.0011 0.6446 0.7130
C1F C -0.2853(4) -0.5300(4) 0.3707(3)
N1F N -0.2365(3) -0.3897(3) 0.3738(2)
N2F N -0.1199(3) -0.1784(3) 0.4182(2)
C2F C -0.4232(4) -0.6174(4) 0.3706(3)
H1F H -0.4829 -0.5849 0.3706
C3F C -0.1371(4) -0.2995(4) 0.4268(3)
H2F H -0.0872 -0.3212 0.4647
C4F C -0.2119(5) -0.1904(5) 0.3558(4)
H3F H -0.2220 -0.1195 0.3354
C5F C -0.2861(6) -0.3200(5) 0.3281(4)
H4F H -0.3554 -0.3543 0.2870
C1G C -0.4700(4) -0.7553(6) 0.3707(3)
N1G N -0.6103(3) -0.8468(4) 0.3738(2)
N2G N -0.8216(3) -0.9415(4) 0.4182(2)
C2G C -0.3826(4) -0.8058(6) 0.3706(3)
H1G H -0.4151 -0.8980 0.3706
C3G C -0.7005(4) -0.8376(6) 0.4268(3)
H2G H -0.6788 -0.7660 0.4647
C4G C -0.8096(5) -1.0215(7) 0.3558(4)
H3G H -0.8805 -1.1025 0.3354
C5G C -0.6800(5) -0.9661(8) 0.3281(4)
H4G H -0.6457 -1.0011 0.2870
C1H C -0.2447(6) -0.7147(4) 0.3707(3)
N1H N -0.1532(4) -0.7635(3) 0.3738(2)
N2H N -0.0585(4) -0.8801(3) 0.4182(2)
C2H C -0.1942(6) -0.5768(4) 0.3706(3)
H1H H -0.1020 -0.5171 0.3706
C3H C -0.1624(6) -0.8629(4) 0.4268(3)
H2H H -0.2340 -0.9128 0.4647
C4H C 0.0215(7) -0.7881(5) 0.3558(4)
H3H H 0.1025 -0.7780 0.3354
C5H C -0.0339(8) -0.7139(6) 0.3281(4)
H4H H 0.0011 -0.6446 0.2870
Zn1_2 Zn -1.0000 -1.0000 0.5000
Zn1_3 Zn 0.0000 -1.0000 0.5000
Zn1_4 Zn 0.0000 1.0000 0.5000
Zn1_5 Zn 1.0000 1.0000 0.5000
N2A_2 N -0.1784(3) -0.0585(4) 0.5818(2)
N2B_2 N 0.0585(4) -0.1199(3) 0.5818(2)
N2G_2 N 0.1784(3) 0.0585(4) 0.4182(2)
N2H_2 N -0.0585(4) 0.1199(3) 0.4182(2)
Cl1 Cl 0.4929(13) 0.3483(10) 0.8441(13)
loop_
_geom_bond_atom_site_label_1
_geom_bond_atom_site_label_2
_geom_bond_site_symmetry_1
_geom_bond_site_symmetry_2
Zn1 N2 1_555 1_555
C1 N1 1_555 1_555
N1 C3 1_555 1_555
N2 C3 1_555 1_555
C2 C1 1_555 1_555
H1 C2 1_555 1_555
C3 H2 1_555 1_555
C4 N2 1_555 1_555
H3 C4 1_555 1_555
C5 N1 1_555 1_555
H4 C5 1_555 1_555
C1A C2 1_555 1_555
N1A C1A 1_555 1_555
N2A C3A 1_555 1_555
C2A C1A 1_555 1_555
H1A C2A 1_555 1_555
C3A N1A 1_555 1_555
H2A C3A 1_555 1_555
C4A N2A 1_555 1_555
H3A C4A 1_555 1_555
C5A N1A 1_555 1_555
H4A C5A 1_555 1_555
C1B C2A 1_555 1_555
N1B C1B 1_555 1_555
N2B C3B 1_555 1_555
C2B C1 1_555 1_555
H1B C2B 1_555 1_555
C3B N1B 1_555 1_555
H2B C3B 1_555 1_555
C4B N2B 1_555 1_555
H3B C4B 1_555 1_555
C5B N1B 1_555 1_555
H4B C5B 1_555 1_555
C1F N1F 1_555 1_555
N1F C3F 1_555 1_555
N2F Zn1 1_555 1_555
C2F C1F 1_555 1_555
H1F C2F 1_555 1_555
C3F N2F 1_555 1_555
H2F C3F 1_555 1_555
C4F N2F 1_555 1_555
H3F C4F 1_555 1_555
C5F N1F 1_555 1_555
H4F C5F 1_555 1_555
C1G C2F 1_555 1_555
N1G C1G 1_555 1_555
N2G C3G 1_555 1_555
C2G C1G 1_555 1_555
H1G C2G 1_555 1_555
C3G N1G 1_555 1_555
H2G C3G 1_555 1_555
C4G N2G 1_555 1_555
H3G C4G 1_555 1_555
C5G N1G 1_555 1_555
H4G C5G 1_555 1_555
C1H C2G 1_555 1_555
N1H C1H 1_555 1_555
N2H C3H 1_555 1_555
C2H C1F 1_555 1_555
H1H C2H 1_555 1_555
C3H N1H 1_555 1_555
H2H C3H 1_555 1_555
C4H N2H 1_555 1_555
H3H C4H 1_555 1_555
C5H N1H 1_555 1_555
H4H C5H 1_555 1_555
Zn1_2 N2G 1_555 1_555
Zn1_3 N2H 1_555 1_555
Zn1_4 N2B 1_555 1_555
Zn1_5 N2A 1_555 1_555
N2A_2 Zn1 1_555 1_555
N2B_2 Zn1 1_555 1_555
N2G_2 Zn1 1_555 1_555
N2H_2 Zn1 1_555 1_555
C4 C5 1_555 1_555
C4A C5A 1_555 1_555
C1B C2B 1_555 1_555
C4B C5B 1_555 1_555
C4F C5F 1_555 1_555
C4G C5G 1_555 1_555
C1H C2H 1_555 1_555
C4H C5H 1_555 1_555

#END
