
#######################################################################
#
#                 Cambridge Crystallographic Data Centre
#                                CCDC 
#
#######################################################################
#
# If this CIF has been generated from an entry in the Cambridge 
# Structural Database, then it will include bibliographic, chemical, 
# crystal, experimental, refinement or atomic coordinate data resulting 
# from the CCDC's data processing and validation procedures.
#
#######################################################################

data_XIDHID
_symmetry_cell_setting           monoclinic
_symmetry_space_group_name_H-M   'C 2/c'
_symmetry_Int_Tables_number      15
_space_group_name_Hall           '-C 2yn'
loop_
_symmetry_equiv_pos_site_id
_symmetry_equiv_pos_as_xyz
1 x,y,z
2 -x,y,1/2-z
3 1/2+x,1/2+y,z
4 1/2-x,1/2+y,1/2-z
5 -x,-y,-z
6 x,-y,1/2+z
7 1/2-x,1/2-y,-z
8 1/2+x,1/2-y,1/2+z
_cell_length_a                   13.0090(5)
_cell_length_b                   13.9830(5)
_cell_length_c                   18.5070(6)
_cell_angle_alpha                90
_cell_angle_beta                 105.133(4)
_cell_angle_gamma                90
_cell_volume                     3249.77
loop_
_atom_site_label
_atom_site_type_symbol
_atom_site_fract_x
_atom_site_fract_y
_atom_site_fract_z
Cd1 Cd 0.801281(16) 0.127529(13) 0.528436(10)
C1 C 0.5095(2) 0.6023(2) 0.60263(15)
C2 C 0.6246(2) 0.59978(19) 0.64889(16)
H1 H 0.6707 0.6158 0.6171
H2 H 0.6348 0.6477 0.6880
C3 C 0.6449(2) 0.4891(2) 0.75306(15)
H3 H 0.6229 0.5386 0.7791
C4 C 0.6656(3) 0.4031(2) 0.78556(16)
H4 H 0.6571 0.3921 0.8332
C5 C 0.7002(2) 0.3304(2) 0.74590(15)
H5 H 0.7162 0.2708 0.7683
C6 C 0.7113(2) 0.34418(19) 0.67498(14)
C7 C 0.6846(2) 0.43540(19) 0.63930(14)
C8 C 0.7525(2) 0.26263(19) 0.63850(15)
C9 C 0.6149(2) 0.0380(2) 0.59060(17)
H6 H 0.6056 0.0961 0.6125
C10 C 0.5983(3) -0.1123(2) 0.55911(19)
H7 H 0.5773 -0.1760 0.5547
C11 C 0.6697(3) -0.0705(2) 0.52819(17)
H8 H 0.7062 -0.1011 0.4978
C12 C 0.4861(3) -0.0540(3) 0.64363(17)
H9 H 0.4472 -0.1133 0.6299
H10 H 0.4352 -0.0019 0.6328
C13 C 0.5395(3) -0.0552(3) 0.72617(17)
H11 H 0.5853 0.0004 0.7387
H12 H 0.5841 -0.1117 0.7379
N1 N 0.65519(18) 0.50562(15) 0.68314(12)
N2 N 0.5630(2) -0.04260(19) 0.59815(13)
N3 N 0.68050(19) 0.02463(17) 0.54828(13)
O1 O 0.48043(16) 0.67711(14) 0.56547(11)
O2 O 0.44878(15) 0.53448(14) 0.60436(11)
O3 O 0.68717(17) 0.45924(13) 0.57471(10)
O4 O 0.73725(19) 0.26345(14) 0.56782(10)
O5 O 0.7977(2) 0.19623(16) 0.67652(12)
C9A C 0.3851(2) 0.0380(2) 0.90940(17)
H6A H 0.3944 0.0961 0.8875
C10A C 0.4017(3) -0.1123(2) 0.94089(19)
H7A H 0.4227 -0.1760 0.9453
C11A C 0.3303(3) -0.0705(2) 0.97181(17)
H8A H 0.2938 -0.1011 1.0022
C12A C 0.5139(3) -0.0540(3) 0.85637(17)
H9A H 0.5528 -0.1133 0.8701
H10A H 0.5648 -0.0019 0.8672
C13A C 0.4605(3) -0.0552(3) 0.77383(17)
H11A H 0.4147 0.0004 0.7613
H12A H 0.4159 -0.1117 0.7621
N2A N 0.4370(2) -0.04260(19) 0.90185(13)
N3A N 0.31950(19) 0.02463(17) 0.95172(13)
Cd1A Cd 0.198719(16) 0.127529(13) 0.971564(10)
C1A C 0.4905(2) 0.6023(2) 0.89737(15)
C2A C 0.3754(2) 0.59978(19) 0.85111(16)
H1A H 0.3293 0.6158 0.8829
H2A H 0.3652 0.6477 0.8120
C3A C 0.3551(2) 0.4891(2) 0.74694(15)
H3A H 0.3771 0.5386 0.7209
C4A C 0.3344(3) 0.4031(2) 0.71444(16)
H4A H 0.3429 0.3921 0.6668
C5A C 0.2998(2) 0.3304(2) 0.75410(15)
H5A H 0.2838 0.2708 0.7317
C6A C 0.2887(2) 0.34418(19) 0.82502(14)
C7A C 0.3154(2) 0.43540(19) 0.86070(14)
C8A C 0.2475(2) 0.26263(19) 0.86150(15)
N1A N 0.34481(18) 0.50562(15) 0.81686(12)
O1A O 0.51957(16) 0.67711(14) 0.93453(11)
O2A O 0.55122(15) 0.53448(14) 0.89564(11)
O3A O 0.31283(17) 0.45924(13) 0.92529(10)
O4A O 0.26275(19) 0.26345(14) 0.93218(10)
O5A O 0.2023(2) 0.19623(16) 0.82348(12)
Cd1B Cd 0.301281(16) 0.627529(13) 0.528436(10)
Cd1C Cd 0.698719(16) 0.627529(13) 0.971564(10)
Cd1F Cd 0.698719(16) 0.372471(13) 0.471564(10)
Cd1G Cd 0.301281(16) 0.372471(13) 1.028436(10)
O1B O 0.98043(16) 0.17711(14) 0.56547(11)
O1C O 0.01957(16) 0.17711(14) 0.93453(11)
O2B O 0.94878(15) 0.03448(14) 0.60436(11)
O2C O 0.05122(15) 0.03448(14) 0.89564(11)
O3F O 0.81283(17) 0.04076(13) 0.42529(10)
O3G O 0.18717(17) 0.04076(13) 1.07471(10)
O4F O 0.76275(19) 0.23655(14) 0.43218(10)
O4G O 0.23725(19) 0.23655(14) 1.06782(10)
O6 O 0.4547(4) 0.1864(2) 0.6679(2)
O7 O 0.4425(3) 0.3343(2) 0.56714(18)
H13 H 0.469(4) 0.324(3) 0.535(2)
H14 H 0.445(4) 0.393(3) 0.576(2)
loop_
_geom_bond_atom_site_label_1
_geom_bond_atom_site_label_2
_geom_bond_site_symmetry_1
_geom_bond_site_symmetry_2
Cd1 N3 1_555 1_555
C1 C2 1_555 1_555
C2 H1 1_555 1_555
H2 C2 1_555 1_555
C3 H3 1_555 1_555
C4 C3 1_555 1_555
H4 C4 1_555 1_555
C5 C4 1_555 1_555
H5 C5 1_555 1_555
C6 C5 1_555 1_555
C7 C6 1_555 1_555
C8 C6 1_555 1_555
C9 H6 1_555 1_555
C10 H7 1_555 1_555
C11 C10 1_555 1_555
H8 C11 1_555 1_555
C12 H9 1_555 1_555
H10 C12 1_555 1_555
C13 C12 1_555 1_555
H11 C13 1_555 1_555
H12 C13 1_555 1_555
N1 C2 1_555 1_555
N2 C9 1_555 1_555
N3 C9 1_555 1_555
O1 C1 1_555 1_555
O2 C1 1_555 1_555
O3 C7 1_555 1_555
O4 Cd1 1_555 1_555
O5 C8 1_555 1_555
O7 H13 1_555 1_555
H14 O7 1_555 1_555
C9A H6A 1_555 1_555
C10A H7A 1_555 1_555
C11A C10A 1_555 1_555
H8A C11A 1_555 1_555
C12A H9A 1_555 1_555
H10A C12A 1_555 1_555
C13A C13 1_555 1_555
H11A C13A 1_555 1_555
H12A C13A 1_555 1_555
N2A C9A 1_555 1_555
N3A C9A 1_555 1_555
Cd1A N3A 1_555 1_555
C1A C2A 1_555 1_555
C2A H1A 1_555 1_555
H2A C2A 1_555 1_555
C3A H3A 1_555 1_555
C4A C3A 1_555 1_555
H4A C4A 1_555 1_555
C5A C4A 1_555 1_555
H5A C5A 1_555 1_555
C6A C5A 1_555 1_555
C7A C6A 1_555 1_555
C8A C6A 1_555 1_555
N1A C2A 1_555 1_555
O1A C1A 1_555 1_555
O2A C1A 1_555 1_555
O3A C7A 1_555 1_555
O4A Cd1A 1_555 1_555
O5A C8A 1_555 1_555
Cd1B O1 1_555 1_555
Cd1C O1A 1_555 1_555
Cd1F O3 1_555 1_555
Cd1G O3A 1_555 1_555
O1B Cd1 1_555 1_555
O1C Cd1A 1_555 1_555
O2B Cd1 1_555 1_555
O2C Cd1A 1_555 1_555
O3F Cd1 1_555 1_555
O3G Cd1A 1_555 1_555
O4F Cd1 1_555 1_555
O4G Cd1A 1_555 1_555
C3 N1 1_555 1_555
C7 N1 1_555 1_555
C8 O4 1_555 1_555
C10 N2 1_555 1_555
C11 N3 1_555 1_555
C12 N2 1_555 1_555
O2 Cd1B 1_555 1_555
O4 Cd1F 1_555 1_555
C10A N2A 1_555 1_555
C11A N3A 1_555 1_555
C12A C13A 1_555 1_555
C12A N2A 1_555 1_555
C3A N1A 1_555 1_555
C7A N1A 1_555 1_555
C8A O4A 1_555 1_555
O2A Cd1C 1_555 1_555
O4A Cd1G 1_555 1_555
Cd1F O4F 1_555 1_555
Cd1G O4G 1_555 1_555

#END
