
#######################################################################
#
#                 Cambridge Crystallographic Data Centre
#                                CCDC 
#
#######################################################################
#
# If this CIF has been generated from an entry in the Cambridge 
# Structural Database, then it will include bibliographic, chemical, 
# crystal, experimental, refinement or atomic coordinate data resulting 
# from the CCDC's data processing and validation procedures.
#
#######################################################################

data_XIDJEB
_symmetry_cell_setting           monoclinic
_symmetry_space_group_name_H-M   'P 21/n'
_symmetry_Int_Tables_number      14
_space_group_name_Hall           '-P 2yn'
loop_
_symmetry_equiv_pos_site_id
_symmetry_equiv_pos_as_xyz
1 x,y,z
2 1/2-x,1/2+y,1/2-z
3 -x,-y,-z
4 1/2+x,1/2-y,1/2+z
_cell_length_a                   13.4040(5)
_cell_length_b                   8.8800(3)
_cell_length_c                   13.8250(5)
_cell_angle_alpha                90
_cell_angle_beta                 100.921(3)
_cell_angle_gamma                90
_cell_volume                     1615.75
loop_
_atom_site_label
_atom_site_type_symbol
_atom_site_fract_x
_atom_site_fract_y
_atom_site_fract_z
Zn1 Zn 0.77958(3) 0.03041(4) 0.66718(2)
C1 C 0.5625(3) -0.0668(4) 0.6471(3)
C2 C 0.5024(2) -0.1989(3) 0.5948(2)
H1 H 0.4654 -0.2476 0.6400
H2 H 0.4532 -0.1610 0.5396
C3 C 0.5797(2) -0.3058(4) 0.4643(2)
H3 H 0.5464 -0.2323 0.4223
C4 C 0.6397(3) -0.4066(4) 0.4293(2)
H4 H 0.6498 -0.4011 0.3647
C5 C 0.6858(2) -0.5190(4) 0.4929(2)
H5 H 0.7239 -0.5926 0.4686
C6 C 0.6768(2) -0.5244(3) 0.5897(2)
C7 C 0.6203(2) -0.4088(3) 0.6279(2)
C8 C 0.7207(2) -0.6551(3) 0.6525(2)
C9 C 0.9443(2) -0.1423(3) 0.5897(2)
C10 C 0.8253(2) -0.0754(3) 0.4682(2)
C11 C 0.8935(2) -0.1639(3) 0.4288(2)
C12 C 1.0064(2) -0.1639(4) 0.6893(2)
H6 H 1.0642 -0.2255 0.6849
H7 H 0.9662 -0.2123 0.7308
H8 H 1.0291 -0.0677 0.7167
C13 C 0.7389(2) -0.0181(4) 0.4076(2)
H9 H 0.6931 0.0424 0.4325
C14 C 0.7240(3) -0.0548(4) 0.3092(3)
H10 H 0.6671 -0.0175 0.2669
C15 C 0.7916(3) -0.1460(4) 0.2711(2)
H11 H 0.7777 -0.1700 0.2044
C16 C 0.8783(3) -0.2018(4) 0.3294(2)
H12 H 0.9241 -0.2614 0.3038
C17 C 1.0572(2) -0.2982(4) 0.5026(3)
H13 H 1.1165 -0.2565 0.5453
H14 H 1.0697 -0.2973 0.4358
C18 C 1.0421(3) -0.4612(4) 0.5333(3)
H15 H 1.1046 -0.5167 0.5343
H16 H 1.0281 -0.4616 0.5996
N1 N 0.56729(18) -0.3098(3) 0.55900(18)
N2 N 0.85937(18) -0.0628(3) 0.56942(17)
N3 N 0.96904(19) -0.2036(3) 0.50763(18)
O1 O 0.63611(19) -0.0245(3) 0.60748(19)
O2 O 0.5336(2) -0.0110(3) 0.7175(3)
O3 O 0.61097(15) -0.3921(2) 0.71602(14)
O4 O 0.71999(17) -0.6561(2) 0.74277(15)
O5 O 0.75455(16) -0.7612(2) 0.60742(15)
C9B C 1.0557(2) -0.8577(3) 0.4103(2)
C10B C 1.1747(2) -0.9246(3) 0.5318(2)
C11B C 1.1065(2) -0.8361(3) 0.5712(2)
C12B C 0.9936(2) -0.8361(4) 0.3107(2)
H6B H 0.9358 -0.7745 0.3151
H7B H 1.0338 -0.7877 0.2692
H8B H 0.9709 -0.9323 0.2833
C13B C 1.2611(2) -0.9819(4) 0.5924(2)
H9B H 1.3069 -1.0424 0.5675
C14B C 1.2760(3) -0.9452(4) 0.6908(3)
H10B H 1.3329 -0.9825 0.7331
C15B C 1.2084(3) -0.8540(4) 0.7289(2)
H11B H 1.2223 -0.8300 0.7956
C16B C 1.1217(3) -0.7982(4) 0.6706(2)
H12B H 1.0759 -0.7386 0.6962
C17B C 0.9428(2) -0.7018(4) 0.4974(3)
H13B H 0.8835 -0.7435 0.4547
H14B H 0.9303 -0.7027 0.5642
C18B C 0.9579(3) -0.5388(4) 0.4667(3)
H15B H 0.8954 -0.4833 0.4657
H16B H 0.9719 -0.5384 0.4004
N2B N 1.14063(18) -0.9372(3) 0.43058(17)
N3B N 1.03096(19) -0.7964(3) 0.49237(18)
Zn1B Zn 1.22042(3) -1.03041(4) 0.33282(2)
C1B C 1.4375(3) -0.9332(4) 0.3529(3)
C2B C 1.4976(2) -0.8011(3) 0.4052(2)
H1B H 1.5346 -0.7524 0.3600
H2B H 1.5468 -0.8390 0.4604
C3B C 1.4203(2) -0.6942(4) 0.5357(2)
H3B H 1.4536 -0.7677 0.5777
C4B C 1.3603(3) -0.5934(4) 0.5707(2)
H4B H 1.3502 -0.5989 0.6353
C5B C 1.3142(2) -0.4810(4) 0.5071(2)
H5B H 1.2761 -0.4074 0.5314
C6B C 1.3232(2) -0.4756(3) 0.4103(2)
C7B C 1.3797(2) -0.5912(3) 0.3721(2)
C8B C 1.2793(2) -0.3449(3) 0.3475(2)
N1B N 1.43271(18) -0.6902(3) 0.44100(18)
O1B O 1.36389(19) -0.9755(3) 0.39252(19)
O2B O 1.4664(2) -0.9890(3) 0.2825(3)
O3B O 1.38903(15) -0.6079(2) 0.28398(14)
O4B O 1.28001(17) -0.3439(2) 0.25723(15)
O5B O 1.24545(16) -0.2388(2) 0.39258(15)
Zn1_2 Zn 0.77958(3) -0.96959(4) 0.66718(2)
Zn1A Zn 0.72042(3) -0.46959(4) 0.83282(2)
Zn1B_2 Zn 1.22042(3) -0.03041(4) 0.33282(2)
Zn1C Zn 1.27958(3) -0.53041(4) 0.16718(2)
O3A O 0.88903(15) 0.1079(2) 0.78398(14)
O3C O 1.11097(15) -1.1079(2) 0.21602(14)
O4A O 0.78001(17) -0.1561(2) 0.75723(15)
O4C O 1.21999(17) -0.8439(2) 0.24277(15)
O5_2 O 0.75455(16) 0.2388(2) 0.60742(15)
O5B_2 O 1.24545(16) -1.2388(2) 0.39258(15)
loop_
_geom_bond_atom_site_label_1
_geom_bond_atom_site_label_2
_geom_bond_site_symmetry_1
_geom_bond_site_symmetry_2
Zn1 N2 1_555 1_555
C1 C2 1_555 1_555
C2 H1 1_555 1_555
H2 C2 1_555 1_555
C3 H3 1_555 1_555
C4 C3 1_555 1_555
H4 C4 1_555 1_555
C5 C4 1_555 1_555
H5 C5 1_555 1_555
C6 C5 1_555 1_555
C7 C6 1_555 1_555
C8 C6 1_555 1_555
C9 C12 1_555 1_555
C10 C11 1_555 1_555
C11 C16 1_555 1_555
C12 H6 1_555 1_555
H7 C12 1_555 1_555
H8 C12 1_555 1_555
C13 C10 1_555 1_555
H9 C13 1_555 1_555
C14 C13 1_555 1_555
H10 C14 1_555 1_555
C15 C14 1_555 1_555
H11 C15 1_555 1_555
C16 C15 1_555 1_555
H12 C16 1_555 1_555
C17 H13 1_555 1_555
H14 C17 1_555 1_555
C18 C17 1_555 1_555
H15 C18 1_555 1_555
H16 C18 1_555 1_555
N1 C2 1_555 1_555
N2 C9 1_555 1_555
N3 C9 1_555 1_555
O1 Zn1 1_555 1_555
O2 C1 1_555 1_555
O3 C7 1_555 1_555
O4 C8 1_555 1_555
O5 C8 1_555 1_555
C9B C12B 1_555 1_555
C10B C11B 1_555 1_555
C11B C16B 1_555 1_555
C12B H6B 1_555 1_555
H7B C12B 1_555 1_555
H8B C12B 1_555 1_555
C13B C10B 1_555 1_555
H9B C13B 1_555 1_555
C14B C13B 1_555 1_555
H10B C14B 1_555 1_555
C15B C14B 1_555 1_555
H11B C15B 1_555 1_555
C16B C15B 1_555 1_555
H12B C16B 1_555 1_555
C17B H13B 1_555 1_555
H14B C17B 1_555 1_555
C18B C18 1_555 1_555
H15B C18B 1_555 1_555
H16B C18B 1_555 1_555
N2B C9B 1_555 1_555
N3B C9B 1_555 1_555
Zn1B N2B 1_555 1_555
C1B C2B 1_555 1_555
C2B H1B 1_555 1_555
H2B C2B 1_555 1_555
C3B H3B 1_555 1_555
C4B C3B 1_555 1_555
H4B C4B 1_555 1_555
C5B C4B 1_555 1_555
H5B C5B 1_555 1_555
C6B C5B 1_555 1_555
C7B C6B 1_555 1_555
C8B C6B 1_555 1_555
N1B C2B 1_555 1_555
O1B Zn1B 1_555 1_555
O2B C1B 1_555 1_555
O3B C7B 1_555 1_555
O4B C8B 1_555 1_555
O5B C8B 1_555 1_555
Zn1_2 O5 1_555 1_555
Zn1A O3 1_555 1_555
Zn1B_2 O5B 1_555 1_555
Zn1C O3B 1_555 1_555
O3A Zn1 1_555 1_555
O3C Zn1B 1_555 1_555
O4A Zn1 1_555 1_555
O4C Zn1B 1_555 1_555
O5_2 Zn1 1_555 1_555
O5B_2 Zn1B 1_555 1_555
C1 O1 1_555 1_555
C3 N1 1_555 1_555
C7 N1 1_555 1_555
C10 N2 1_555 1_555
C11 N3 1_555 1_555
C17 N3 1_555 1_555
O4 Zn1A 1_555 1_555
C10B N2B 1_555 1_555
C11B N3B 1_555 1_555
C17B C18B 1_555 1_555
C17B N3B 1_555 1_555
C1B O1B 1_555 1_555
C3B N1B 1_555 1_555
C7B N1B 1_555 1_555
O4B Zn1C 1_555 1_555

#END
