
#######################################################################
#
#                 Cambridge Crystallographic Data Centre
#                                CCDC 
#
#######################################################################
#
# If this CIF has been generated from an entry in the Cambridge 
# Structural Database, then it will include bibliographic, chemical, 
# crystal, experimental, refinement or atomic coordinate data resulting 
# from the CCDC's data processing and validation procedures.
#
#######################################################################

data_XIDJIF
_symmetry_cell_setting           triclinic
_symmetry_space_group_name_H-M   'P -1'
_symmetry_Int_Tables_number      2
_space_group_name_Hall           '-P 1'
loop_
_symmetry_equiv_pos_site_id
_symmetry_equiv_pos_as_xyz
1 x,y,z
2 -x,-y,-z
_cell_length_a                   9.1970(4)
_cell_length_b                   9.5290(4)
_cell_length_c                   9.8160(4)
_cell_angle_alpha                92.381(4)
_cell_angle_beta                 112.995(4)
_cell_angle_gamma                96.681(4)
_cell_volume                     782.954
loop_
_atom_site_label
_atom_site_type_symbol
_atom_site_fract_x
_atom_site_fract_y
_atom_site_fract_z
Zn1 Zn 0.84725(5) 0.56605(5) 0.01132(4)
C1 C 0.5596(5) 0.5247(6) -0.1893(5)
C2 C 0.4120(5) 0.4669(5) -0.3276(4)
H1 H 0.4416 0.4597 -0.4119
H2 H 0.3716 0.3722 -0.3141
C3 C 0.2708(5) 0.6535(5) -0.4595(5)
H3 H 0.3409 0.6633 -0.5070
C4 C 0.1550(6) 0.7369(5) -0.4901(5)
H4 H 0.1467 0.8060 -0.5559
C5 C 0.0483(5) 0.7178(5) -0.4215(5)
H5 H -0.0342 0.7725 -0.4451
C6 C 0.0620(5) 0.6205(4) -0.3200(4)
C7 C 0.1893(4) 0.5378(4) -0.2813(4)
C8 C -0.0585(4) 0.6062(4) -0.2506(4)
C9 C 1.0903(5) 0.8298(4) 0.0917(4)
H6 H 1.1525 0.7876 0.0512
C10 C 1.0127(5) 0.9857(4) 0.2086(4)
H7 H 1.0089 1.0674 0.2617
C11 C 1.2802(5) 1.0536(4) 0.2085(4)
H8 H 1.2599 1.1512 0.2095
H9 H 1.3264 1.0388 0.1364
C12 C 1.3957(5) 1.0275(4) 0.3598(4)
C13 C 1.3969(5) 1.0975(5) 0.4855(5)
H10 H 1.3278 1.1637 0.4769
C14 C 1.5002(5) 1.0703(5) 0.6245(5)
H11 H 1.4997 1.1183 0.7088
N1 N 0.2859(4) 0.5553(4) -0.3600(3)
N2 N 0.9496(4) 0.7710(3) 0.0845(3)
N3 N 0.9060(5) 0.8716(4) 0.1585(4)
N4 N 1.1293(4) 0.9572(3) 0.1650(3)
O1 O 0.6580(3) 0.4386(4) -0.1413(3)
O2 O 0.5791(4) 0.6480(4) -0.1350(4)
O3 O 0.2221(3) 0.4492(3) -0.1873(3)
O4 O -0.0157(3) 0.5590(3) -0.1212(3)
O5 O -0.1890(3) 0.6419(3) -0.3171(3)
C9A C 1.9097(5) 1.1702(4) 0.9083(4)
H6A H 1.8475 1.2124 0.9488
C10A C 1.9873(5) 1.0143(4) 0.7914(4)
H7A H 1.9911 0.9326 0.7383
C11A C 1.7198(5) 0.9464(4) 0.7915(4)
H8A H 1.7401 0.8488 0.7905
H9A H 1.6736 0.9612 0.8636
C12A C 1.6043(5) 0.9725(4) 0.6402(4)
C13A C 1.6031(5) 0.9025(5) 0.5145(5)
H10A H 1.6722 0.8363 0.5231
C14A C 1.4998(5) 0.9297(5) 0.3755(5)
H11A H 1.5003 0.8817 0.2912
N2A N 2.0504(4) 1.2290(3) 0.9155(3)
N3A N 2.0940(5) 1.1284(4) 0.8415(4)
N4A N 1.8707(4) 1.0428(3) 0.8350(3)
Zn1A Zn 0.15275(5) 0.43395(5) -0.01132(4)
C1A C 0.4404(5) 0.4753(6) 0.1893(5)
C2A C 0.5880(5) 0.5331(5) 0.3276(4)
H1A H 0.5584 0.5403 0.4119
H2A H 0.6284 0.6278 0.3141
C3A C 0.7292(5) 0.3465(5) 0.4595(5)
H3A H 0.6591 0.3367 0.5070
C4A C 0.8450(6) 0.2631(5) 0.4901(5)
H4A H 0.8533 0.1940 0.5559
C5A C 0.9517(5) 0.2822(5) 0.4215(5)
H5A H 1.0342 0.2275 0.4451
C6A C 0.9380(5) 0.3795(4) 0.3200(4)
C7A C 0.8107(4) 0.4622(4) 0.2813(4)
C8A C 1.0585(4) 0.3938(4) 0.2506(4)
N1A N 0.7141(4) 0.4447(4) 0.3600(3)
O1A O 0.3420(3) 0.5614(4) 0.1413(3)
O2A O 0.4209(4) 0.3520(4) 0.1350(4)
O3A O 0.7779(3) 0.5508(3) 0.1873(3)
O4A O 1.0157(3) 0.4410(3) 0.1212(3)
O5A O 1.1890(3) 0.3581(3) 0.3171(3)
Zn1_2 Zn -0.15275(5) 0.56605(5) 0.01132(4)
Zn1A_2 Zn 1.15275(5) 0.43395(5) -0.01132(4)
Zn1A_3 Zn 2.15275(5) 1.43395(5) 0.98868(4)
N2A_2 N 0.0504(4) 0.2290(3) -0.0845(3)
O4_2 O 0.9843(3) 0.5590(3) -0.1212(3)
O4A_2 O 0.0157(3) 0.4410(3) 0.1212(3)
O6 O 0.4369(9) 0.8160(8) 0.0090(8)
loop_
_geom_bond_atom_site_label_1
_geom_bond_atom_site_label_2
_geom_bond_site_symmetry_1
_geom_bond_site_symmetry_2
Zn1 N2 1_555 1_555
C1 C2 1_555 1_555
C2 H1 1_555 1_555
H2 C2 1_555 1_555
C3 H3 1_555 1_555
C4 C3 1_555 1_555
H4 C4 1_555 1_555
C5 C4 1_555 1_555
H5 C5 1_555 1_555
C6 C5 1_555 1_555
C7 C6 1_555 1_555
C8 C6 1_555 1_555
C9 H6 1_555 1_555
C10 H7 1_555 1_555
C11 H8 1_555 1_555
H9 C11 1_555 1_555
C12 C11 1_555 1_555
C13 C12 1_555 1_555
H10 C13 1_555 1_555
C14 C13 1_555 1_555
H11 C14 1_555 1_555
N1 C2 1_555 1_555
N2 C9 1_555 1_555
N3 C10 1_555 1_555
N4 C9 1_555 1_555
O1 Zn1 1_555 1_555
O2 Zn1 1_555 1_555
O3 C7 1_555 1_555
O4 C8 1_555 1_555
O5 C8 1_555 1_555
C9A H6A 1_555 1_555
C10A H7A 1_555 1_555
C11A H8A 1_555 1_555
H9A C11A 1_555 1_555
C12A C14 1_555 1_555
C13A C12A 1_555 1_555
H10A C13A 1_555 1_555
C14A C12 1_555 1_555
H11A C14A 1_555 1_555
N2A C9A 1_555 1_555
N3A C10A 1_555 1_555
N4A C9A 1_555 1_555
Zn1A O3 1_555 1_555
C1A C2A 1_555 1_555
C2A H1A 1_555 1_555
H2A C2A 1_555 1_555
C3A H3A 1_555 1_555
C4A C3A 1_555 1_555
H4A C4A 1_555 1_555
C5A C4A 1_555 1_555
H5A C5A 1_555 1_555
C6A C5A 1_555 1_555
C7A C6A 1_555 1_555
C8A C6A 1_555 1_555
N1A C2A 1_555 1_555
O1A Zn1A 1_555 1_555
O2A Zn1A 1_555 1_555
O3A Zn1 1_555 1_555
O4A Zn1 1_555 1_555
O5A C8A 1_555 1_555
Zn1_2 O4 1_555 1_555
Zn1A_2 O4A 1_555 1_555
Zn1A_3 N2A 1_555 1_555
N2A_2 Zn1A 1_555 1_555
O4_2 Zn1 1_555 1_555
O4A_2 Zn1A 1_555 1_555
C1 O1 1_555 1_555
C1 O2 1_555 1_555
C3 N1 1_555 1_555
C7 N1 1_555 1_555
C10 N4 1_555 1_555
C11 N4 1_555 1_555
N2 N3 1_555 1_555
O4 Zn1A 1_555 1_555
C10A N4A 1_555 1_555
C11A C12A 1_555 1_555
C11A N4A 1_555 1_555
C13A C14A 1_555 1_555
N2A N3A 1_555 1_555
C1A O1A 1_555 1_555
C1A O2A 1_555 1_555
C3A N1A 1_555 1_555
C7A N1A 1_555 1_555
C7A O3A 1_555 1_555
C8A O4A 1_555 1_555
Zn1_2 O4A_2 1_555 1_555
Zn1A_2 O4_2 1_555 1_555

#END
