
#######################################################################
#
#                 Cambridge Crystallographic Data Centre
#                                CCDC 
#
#######################################################################
#
# If this CIF has been generated from an entry in the Cambridge 
# Structural Database, then it will include bibliographic, chemical, 
# crystal, experimental, refinement or atomic coordinate data resulting 
# from the CCDC's data processing and validation procedures.
#
#######################################################################

data_XIDJUR
_symmetry_cell_setting           triclinic
_symmetry_space_group_name_H-M   'P -1'
_symmetry_Int_Tables_number      2
_space_group_name_Hall           '-P 1'
loop_
_symmetry_equiv_pos_site_id
_symmetry_equiv_pos_as_xyz
1 x,y,z
2 -x,-y,-z
_cell_length_a                   9.4220(8)
_cell_length_b                   9.5150(6)
_cell_length_c                   9.9770(7)
_cell_angle_alpha                90.163(5)
_cell_angle_beta                 100.941(6)
_cell_angle_gamma                112.843(7)
_cell_volume                     806.409
loop_
_atom_site_label
_atom_site_type_symbol
_atom_site_fract_x
_atom_site_fract_y
_atom_site_fract_z
Zn1 Zn 0.85325(3) 0.00274(3) 0.06642(3)
C1 C 0.5584(3) -0.2054(3) 0.0269(3)
C2 C 0.4036(3) -0.3337(3) -0.0413(3)
H1 H 0.3629 -0.3030 -0.1279
H2 H 0.4229 -0.4240 -0.0607
C3 C 0.2702(3) -0.4876(3) 0.1276(3)
H3 H 0.3333 -0.5425 0.1285
C4 C 0.1657(4) -0.5234(3) 0.2092(4)
H4 H 0.1572 -0.6007 0.2679
C5 C 0.0691(3) -0.4412(3) 0.2040(3)
H5 H -0.0067 -0.4679 0.2575
C6 C 0.0835(3) -0.3232(3) 0.1223(3)
C7 C 0.2011(3) -0.2809(3) 0.0404(3)
C8 C -0.0270(3) -0.2448(3) 0.1229(3)
C9 C 1.0915(3) 0.0913(3) 0.3289(3)
H6 H 1.1545 0.0527 0.2929
C10 C 0.9008(4) 0.1529(3) 0.3519(3)
H7 H 0.8055 0.1643 0.3335
C11 C 1.0088(4) 0.2027(3) 0.4699(3)
H8 H 1.0024 0.2539 0.5466
C12 C 1.2816(4) 0.2020(3) 0.5515(3)
H9 H 1.3229 0.1250 0.5395
H10 H 1.2659 0.2035 0.6447
C13 C 1.3979(3) 0.3569(3) 0.5271(3)
C14 C 1.4969(4) 0.3703(3) 0.4393(4)
H11 H 1.4965 0.2824 0.3980
C15 C 1.4024(4) 0.4877(4) 0.5890(4)
H12 H 1.3374 0.4811 0.6504
N1 N 0.2859(2) -0.3722(2) 0.0432(2)
N2 N 0.9525(3) 0.0827(2) 0.2629(2)
N3 N 1.1297(3) 0.1628(2) 0.4543(2)
O1 O 0.6603(2) -0.1616(2) -0.0480(2)
O2 O 0.5792(2) -0.1530(2) 0.1443(2)
O3 O 0.2348(2) -0.1728(2) -0.0350(2)
O4 O -0.0012(2) -0.12015(19) 0.0607(2)
O5 O -0.1365(2) -0.2988(2) 0.1811(2)
C9A C 1.9085(3) 0.9087(3) 0.6711(3)
H6A H 1.8455 0.9473 0.7071
C10A C 2.0992(4) 0.8471(3) 0.6481(3)
H7A H 2.1945 0.8357 0.6665
C11A C 1.9912(4) 0.7973(3) 0.5301(3)
H8A H 1.9976 0.7461 0.4534
C12A C 1.7184(4) 0.7980(3) 0.4485(3)
H9A H 1.6771 0.8750 0.4605
H10A H 1.7341 0.7965 0.3553
C13A C 1.6021(3) 0.6431(3) 0.4729(3)
C14A C 1.5031(4) 0.6297(3) 0.5607(4)
H11A H 1.5035 0.7176 0.6020
C15A C 1.5976(4) 0.5123(4) 0.4110(4)
H12A H 1.6626 0.5189 0.3496
N2A N 2.0475(3) 0.9173(2) 0.7371(2)
N3A N 1.8703(3) 0.8372(2) 0.5457(2)
Zn1A Zn 0.14675(3) -0.00274(3) -0.06642(3)
C1A C 0.4416(3) 0.2054(3) -0.0269(3)
C2A C 0.5964(3) 0.3337(3) 0.0413(3)
H1A H 0.6371 0.3030 0.1279
H2A H 0.5771 0.4240 0.0607
C3A C 0.7298(3) 0.4876(3) -0.1276(3)
H3A H 0.6667 0.5425 -0.1285
C4A C 0.8343(4) 0.5234(3) -0.2092(4)
H4A H 0.8428 0.6007 -0.2679
C5A C 0.9309(3) 0.4412(3) -0.2040(3)
H5A H 1.0067 0.4679 -0.2575
C6A C 0.9165(3) 0.3232(3) -0.1223(3)
C7A C 0.7989(3) 0.2809(3) -0.0404(3)
C8A C 1.0270(3) 0.2448(3) -0.1229(3)
N1A N 0.7141(2) 0.3722(2) -0.0432(2)
O1A O 0.3397(2) 0.1616(2) 0.0480(2)
O2A O 0.4208(2) 0.1530(2) -0.1443(2)
O3A O 0.7652(2) 0.1728(2) 0.0350(2)
O4A O 1.0012(2) 0.12015(19) -0.0607(2)
O5A O 1.1365(2) 0.2988(2) -0.1811(2)
Zn1_2 Zn -0.14675(3) 0.00274(3) 0.06642(3)
Zn1A_2 Zn 1.14675(3) -0.00274(3) -0.06642(3)
Zn1A_3 Zn 2.14675(3) 0.99726(3) 0.93358(3)
N2A_2 N 0.0475(3) -0.0827(2) -0.2629(2)
O4_2 O 0.9988(2) -0.12015(19) 0.0607(2)
O4A_2 O 0.0012(2) 0.12015(19) -0.0607(2)
O6 O 0.4518(6) 0.0202(5) 0.2780(4)
H13 H 0.405(15) 0.062(15) 0.212(11)
H14 H 0.517(13) -0.017(16) 0.250(14)
O7 O 0.3429(19) -0.1112(19) 0.4500(18)
loop_
_geom_bond_atom_site_label_1
_geom_bond_atom_site_label_2
_geom_bond_site_symmetry_1
_geom_bond_site_symmetry_2
Zn1 N2 1_555 1_555
C1 C2 1_555 1_555
C2 H1 1_555 1_555
H2 C2 1_555 1_555
C3 H3 1_555 1_555
C4 C3 1_555 1_555
H4 C4 1_555 1_555
C5 C4 1_555 1_555
H5 C5 1_555 1_555
C6 C5 1_555 1_555
C7 C6 1_555 1_555
C8 C6 1_555 1_555
C9 H6 1_555 1_555
C10 H7 1_555 1_555
C11 C10 1_555 1_555
H8 C11 1_555 1_555
C12 H9 1_555 1_555
H10 C12 1_555 1_555
C13 C12 1_555 1_555
C14 C13 1_555 1_555
H11 C14 1_555 1_555
C15 C13 1_555 1_555
H12 C15 1_555 1_555
N1 C2 1_555 1_555
N2 C9 1_555 1_555
N3 C9 1_555 1_555
O1 Zn1 1_555 1_555
O2 C1 1_555 1_555
O3 C7 1_555 1_555
O4 C8 1_555 1_555
O5 C8 1_555 1_555
O6 H13 1_555 1_555
H14 O6 1_555 1_555
C9A H6A 1_555 1_555
C10A H7A 1_555 1_555
C11A C10A 1_555 1_555
H8A C11A 1_555 1_555
C12A H9A 1_555 1_555
H10A C12A 1_555 1_555
C13A C12A 1_555 1_555
C14A C15 1_555 1_555
H11A C14A 1_555 1_555
C15A C14 1_555 1_555
H12A C15A 1_555 1_555
N2A C9A 1_555 1_555
N3A C9A 1_555 1_555
Zn1A O3 1_555 1_555
C1A C2A 1_555 1_555
C2A H1A 1_555 1_555
H2A C2A 1_555 1_555
C3A H3A 1_555 1_555
C4A C3A 1_555 1_555
H4A C4A 1_555 1_555
C5A C4A 1_555 1_555
H5A C5A 1_555 1_555
C6A C5A 1_555 1_555
C7A C6A 1_555 1_555
C8A C6A 1_555 1_555
N1A C2A 1_555 1_555
O1A Zn1A 1_555 1_555
O2A C1A 1_555 1_555
O3A Zn1 1_555 1_555
O4A Zn1 1_555 1_555
O5A C8A 1_555 1_555
Zn1_2 O4 1_555 1_555
Zn1A_2 O4A 1_555 1_555
Zn1A_3 N2A 1_555 1_555
N2A_2 Zn1A 1_555 1_555
O4_2 Zn1 1_555 1_555
O4A_2 Zn1A 1_555 1_555
C1 O1 1_555 1_555
C3 N1 1_555 1_555
C7 N1 1_555 1_555
C10 N2 1_555 1_555
C11 N3 1_555 1_555
C12 N3 1_555 1_555
O4 Zn1A 1_555 1_555
C10A N2A 1_555 1_555
C11A N3A 1_555 1_555
C12A N3A 1_555 1_555
C13A C14A 1_555 1_555
C13A C15A 1_555 1_555
C1A O1A 1_555 1_555
C3A N1A 1_555 1_555
C7A N1A 1_555 1_555
C7A O3A 1_555 1_555
C8A O4A 1_555 1_555
Zn1_2 O4A_2 1_555 1_555
Zn1A_2 O4_2 1_555 1_555

#END
