
#######################################################################
#
#                 Cambridge Crystallographic Data Centre
#                                CCDC 
#
#######################################################################
#
# If this CIF has been generated from an entry in the Cambridge 
# Structural Database, then it will include bibliographic, chemical, 
# crystal, experimental, refinement or atomic coordinate data resulting 
# from the CCDC's data processing and validation procedures.
#
#######################################################################

data_XIDKEC
_symmetry_cell_setting           monoclinic
_symmetry_space_group_name_H-M   'P 21/c'
_symmetry_Int_Tables_number      14
_space_group_name_Hall           '-P 2ybc'
loop_
_symmetry_equiv_pos_site_id
_symmetry_equiv_pos_as_xyz
1 x,y,z
2 -x,1/2+y,1/2-z
3 -x,-y,-z
4 x,1/2-y,1/2+z
_cell_length_a                   8.0560(4)
_cell_length_b                   10.2870(4)
_cell_length_c                   10.5660(4)
_cell_angle_alpha                90
_cell_angle_beta                 93.923(4)
_cell_angle_gamma                90
_cell_volume                     873.575
loop_
_atom_site_label
_atom_site_type_symbol
_atom_site_fract_x
_atom_site_fract_y
_atom_site_fract_z
Mn1 Mn -0.09087(4) 0.17535(3) 0.14143(3)
C1 C -0.2429(2) -0.00591(19) -0.07182(19)
C2 C -0.3963(2) 0.0205(2) -0.16062(19)
H1 H -0.4899 -0.0274 -0.1311
H2 H -0.4231 0.1124 -0.1577
C3 C -0.4078(3) -0.1403(2) -0.3293(2)
H3 H -0.4565 -0.1969 -0.2741
C4 C -0.3732(3) -0.1822(2) -0.4447(2)
H4 H -0.4022 -0.2658 -0.4714
C5 C -0.2930(3) -0.0982(2) -0.5241(2)
H5 H -0.2661 -0.1275 -0.6034
C6 C -0.2527(2) 0.02630(19) -0.48809(18)
C7 C -0.3010(2) 0.0737(2) -0.36847(19)
C8 C -0.1568(2) 0.1106(2) -0.57433(18)
N1 N -0.37279(19) -0.01630(17) -0.29162(15)
O1 O -0.12920(19) -0.07061(17) -0.11335(16)
O2 O -0.24927(18) 0.03789(16) 0.03815(14)
O3 O 0.0665(2) 0.31123(16) 0.26204(17)
O4 O -0.28782(19) 0.18835(14) -0.32788(14)
O5 O -0.08550(19) 0.21131(14) -0.53130(14)
O6 O -0.14968(19) 0.07206(13) -0.68700(13)
H6 H 0.041(3) 0.300(3) 0.334(3)
H7 H 0.080(3) 0.385(3) 0.252(3)
Mn1_2 Mn -0.09087(4) 0.17535(3) -0.85857(3)
Mn1B Mn 0.09087(4) -0.17535(3) -0.14143(3)
Mn1C Mn -0.09087(4) 0.32465(3) -0.35857(3)
O1B O 0.12920(19) 0.07061(17) 0.11335(16)
O4C O -0.28782(19) 0.31165(14) 0.17212(14)
O5C O -0.08550(19) 0.28869(14) -0.03130(14)
O6_2 O -0.14968(19) 0.07206(13) 0.31300(13)
loop_
_geom_bond_atom_site_label_1
_geom_bond_atom_site_label_2
_geom_bond_site_symmetry_1
_geom_bond_site_symmetry_2
Mn1 O2 1_555 1_555
C1 C2 1_555 1_555
C2 H1 1_555 1_555
H2 C2 1_555 1_555
C3 H3 1_555 1_555
C4 C3 1_555 1_555
H4 C4 1_555 1_555
C5 C4 1_555 1_555
H5 C5 1_555 1_555
C6 C5 1_555 1_555
C7 C6 1_555 1_555
C8 C6 1_555 1_555
N1 C2 1_555 1_555
O1 C1 1_555 1_555
O2 C1 1_555 1_555
O3 Mn1 1_555 1_555
O4 C7 1_555 1_555
O5 C8 1_555 1_555
O6 C8 1_555 1_555
H6 O3 1_555 1_555
H7 O3 1_555 1_555
Mn1_2 O6 1_555 1_555
Mn1B O1 1_555 1_555
Mn1C O4 1_555 1_555
O1B Mn1 1_555 1_555
O4C Mn1 1_555 1_555
O5C Mn1 1_555 1_555
O6_2 Mn1 1_555 1_555
C3 N1 1_555 1_555
C7 N1 1_555 1_555
O5 Mn1C 1_555 1_555

#END
