
#######################################################################
#
#                 Cambridge Crystallographic Data Centre
#                                CCDC 
#
#######################################################################
#
# If this CIF has been generated from an entry in the Cambridge 
# Structural Database, then it will include bibliographic, chemical, 
# crystal, experimental, refinement or atomic coordinate data resulting 
# from the CCDC's data processing and validation procedures.
#
#######################################################################

data_XIDKAY
_symmetry_cell_setting           monoclinic
_symmetry_space_group_name_H-M   'P 21/n'
_symmetry_Int_Tables_number      14
_space_group_name_Hall           '-P 2yn'
loop_
_symmetry_equiv_pos_site_id
_symmetry_equiv_pos_as_xyz
1 x,y,z
2 1/2-x,1/2+y,1/2-z
3 -x,-y,-z
4 1/2+x,1/2-y,1/2+z
_cell_length_a                   11.0970(5)
_cell_length_b                   5.0980(2)
_cell_length_c                   18.1260(8)
_cell_angle_alpha                90
_cell_angle_beta                 106.305(4)
_cell_angle_gamma                90
_cell_volume                     984.191
loop_
_atom_site_label
_atom_site_type_symbol
_atom_site_fract_x
_atom_site_fract_y
_atom_site_fract_z
Zn1 Zn 0.0000 0.5000 0.5000
Zn2 Zn -0.32210(3) 0.03509(6) 0.284944(19)
C1 C -0.0686(2) 0.6147(5) 0.72299(15)
C2 C -0.1761(2) 0.7893(5) 0.67720(16)
H1 H -0.2216 0.8615 0.7111
H2 H -0.1428 0.9336 0.6541
C3 C -0.3617(3) 0.5113(5) 0.63235(18)
H3 H -0.3867 0.5640 0.6749
C4 C -0.4252(3) 0.3186(6) 0.58620(18)
H4 H -0.4935 0.2367 0.5966
C5 C -0.3858(3) 0.2463(6) 0.52288(18)
H5 H -0.4289 0.1129 0.4913
C6 C -0.2866(2) 0.3621(5) 0.50470(16)
C7 C -0.2181(2) 0.5632(5) 0.55454(16)
C8 C -0.2533(3) 0.2739(5) 0.43380(16)
N1 N -0.2613(2) 0.6287(4) 0.61674(13)
O1 O -0.09069(19) 0.3842(4) 0.73322(13)
O2 O 0.03811(17) 0.7239(3) 0.74843(11)
O3 O -0.0053(2) 0.8095(4) 0.42261(13)
O4 O -0.12394(17) 0.6851(4) 0.54743(12)
O5 O -0.32755(17) 0.3433(3) 0.22016(11)
O6 O -0.15167(17) 0.3362(4) 0.42171(11)
O7 O -0.33555(18) 0.1345(4) 0.38793(12)
H6 H 0.025(3) 0.967(7) 0.433(2)
H7 H -0.058(3) 0.795(7) 0.385(2)
H8 H -0.376(3) 0.250(6) 0.1814(14)
H9 H -0.371(3) 0.470(5) 0.236(2)
Zn2B Zn 0.32210(3) 0.96491(6) 0.715056(19)
C1B C 0.0686(2) 0.3853(5) 0.27701(15)
C2B C 0.1761(2) 0.2107(5) 0.32280(16)
H1B H 0.2216 0.1385 0.2889
H2B H 0.1428 0.0664 0.3459
C3B C 0.3617(3) 0.4887(5) 0.36765(18)
H3B H 0.3867 0.4360 0.3251
C4B C 0.4252(3) 0.6814(6) 0.41380(18)
H4B H 0.4935 0.7633 0.4034
C5B C 0.3858(3) 0.7537(6) 0.47712(18)
H5B H 0.4289 0.8871 0.5087
C6B C 0.2866(2) 0.6379(5) 0.49530(16)
C7B C 0.2181(2) 0.4368(5) 0.44546(16)
C8B C 0.2533(3) 0.7261(5) 0.56620(16)
N1B N 0.2613(2) 0.3713(4) 0.38326(13)
O1B O 0.09069(19) 0.6158(4) 0.26678(13)
O2B O -0.03811(17) 0.2761(3) 0.25157(11)
O3B O 0.0053(2) 0.1905(4) 0.57739(13)
O4B O 0.12394(17) 0.3149(4) 0.45257(12)
O5B O 0.32755(17) 0.6567(3) 0.77984(11)
O6B O 0.15167(17) 0.6638(4) 0.57829(11)
O7B O 0.33555(18) 0.8655(4) 0.61207(12)
H6B H -0.025(3) 0.033(7) 0.567(2)
H7B H 0.058(3) 0.205(7) 0.615(2)
H8B H 0.376(3) 0.750(6) 0.8186(14)
H9B H 0.371(3) 0.530(5) 0.764(2)
Zn2A Zn -0.17790(3) 0.53509(6) 0.215056(19)
Zn2C Zn 0.17790(3) 0.46491(6) 0.784944(19)
O2A O 0.46189(17) 1.2239(3) 0.75157(11)
O2C O -0.46189(17) -0.2239(3) 0.24843(11)
O5A O -0.17245(17) -0.1567(3) 0.27984(11)
O5C O 0.17245(17) 1.1567(3) 0.72016(11)
loop_
_geom_bond_atom_site_label_1
_geom_bond_atom_site_label_2
_geom_bond_site_symmetry_1
_geom_bond_site_symmetry_2
Zn1 O3 1_555 1_555
Zn2 O5 1_555 1_555
C1 C2 1_555 1_555
C2 H1 1_555 1_555
H2 C2 1_555 1_555
C3 H3 1_555 1_555
C4 C3 1_555 1_555
H4 C4 1_555 1_555
C5 C4 1_555 1_555
H5 C5 1_555 1_555
C6 C5 1_555 1_555
C7 C6 1_555 1_555
C8 C6 1_555 1_555
N1 C2 1_555 1_555
O1 C1 1_555 1_555
O2 C1 1_555 1_555
O3 H6 1_555 1_555
O4 Zn1 1_555 1_555
O5 H8 1_555 1_555
O6 Zn1 1_555 1_555
O7 Zn2 1_555 1_555
H7 O3 1_555 1_555
H9 O5 1_555 1_555
Zn2B O5B 1_555 1_555
C1B C2B 1_555 1_555
C2B H1B 1_555 1_555
H2B C2B 1_555 1_555
C3B H3B 1_555 1_555
C4B C3B 1_555 1_555
H4B C4B 1_555 1_555
C5B C4B 1_555 1_555
H5B C5B 1_555 1_555
C6B C5B 1_555 1_555
C7B C6B 1_555 1_555
C8B C6B 1_555 1_555
N1B C2B 1_555 1_555
O1B C1B 1_555 1_555
O2B C1B 1_555 1_555
O3B Zn1 1_555 1_555
O4B Zn1 1_555 1_555
O5B H8B 1_555 1_555
O6B Zn1 1_555 1_555
O7B Zn2B 1_555 1_555
H6B O3B 1_555 1_555
H7B O3B 1_555 1_555
H9B O5B 1_555 1_555
Zn2A O5 1_555 1_555
Zn2C O2 1_555 1_555
O2A Zn2B 1_555 1_555
O2C Zn2 1_555 1_555
O5A Zn2 1_555 1_555
O5C Zn2B 1_555 1_555
C3 N1 1_555 1_555
C7 N1 1_555 1_555
C7 O4 1_555 1_555
C8 O6 1_555 1_555
C8 O7 1_555 1_555
C3B N1B 1_555 1_555
C7B N1B 1_555 1_555
C7B O4B 1_555 1_555
C8B O6B 1_555 1_555
C8B O7B 1_555 1_555
O2B Zn2A 1_555 1_555
O5B Zn2C 1_555 1_555

#END
