
#######################################################################
#
#                 Cambridge Crystallographic Data Centre
#                                CCDC 
#
#######################################################################
#
# If this CIF has been generated from an entry in the Cambridge 
# Structural Database, then it will include bibliographic, chemical, 
# crystal, experimental, refinement or atomic coordinate data resulting 
# from the CCDC's data processing and validation procedures.
#
#######################################################################

data_XIDKIG
_symmetry_cell_setting           orthorhombic
_symmetry_space_group_name_H-M   'P n a 21'
_symmetry_Int_Tables_number      33
_space_group_name_Hall           'P 2c -2n'
loop_
_symmetry_equiv_pos_site_id
_symmetry_equiv_pos_as_xyz
1 x,y,z
2 -x,-y,1/2+z
3 1/2-x,1/2+y,1/2+z
4 1/2+x,1/2-y,z
_cell_length_a                   18.1173(13)
_cell_length_b                   4.7442(3)
_cell_length_c                   19.4159(13)
_cell_angle_alpha                90
_cell_angle_beta                 90
_cell_angle_gamma                90
_cell_volume                     1668.84
loop_
_atom_site_label
_atom_site_type_symbol
_atom_site_fract_x
_atom_site_fract_y
_atom_site_fract_z
Mn1 Mn 0.21206(7) 0.1474(3) 0.67991(7)
Mn2 Mn 0.54548(7) -0.1448(3) 0.76245(7)
C1 C 0.4576(5) 0.310(3) 0.8201(7)
C2 C 0.3897(5) 0.4615(18) 0.8447(5)
H1 H 0.4033 0.5940 0.8806
H2 H 0.3687 0.5679 0.8068
C3 C 0.3383(5) 0.197(3) 0.9400(6)
H3 H 0.3718 0.2916 0.9680
C4 C 0.2940(6) -0.010(2) 0.9670(6)
H4 H 0.2986 -0.0659 1.0127
C5 C 0.2408(5) -0.135(2) 0.9227(6)
H5 H 0.2099 -0.2747 0.9401
C6 C 0.2339(5) -0.0596(19) 0.8570(5)
C7 C 0.2824(5) 0.1463(18) 0.8262(6)
C8 C 0.1732(5) -0.195(2) 0.8153(6)
C9 C 0.2983(5) -0.309(3) 0.6237(7)
C10 C 0.3680(5) -0.4565(19) 0.5975(6)
H6 H 0.3902 -0.5604 0.6352
H7 H 0.3542 -0.5914 0.5622
C11 C 0.4165(6) -0.178(2) 0.5044(6)
H8 H 0.3807 -0.2617 0.4770
C12 C 0.4594(6) 0.024(3) 0.4764(6)
H9 H 0.4534 0.0821 0.4311
C13 C 0.5137(5) 0.142(2) 0.5192(5)
H10 H 0.5448 0.2792 0.5012
C14 C 0.5227(5) 0.0617(19) 0.5864(5)
C15 C 0.4746(5) -0.157(2) 0.6164(6)
C16 C 0.5837(5) 0.192(2) 0.6266(7)
O1 O 0.4573(4) 0.0477(15) 0.8173(5)
O2 O 0.5107(4) 0.4627(15) 0.8057(5)
O3 O 0.2818(4) 0.2384(14) 0.7656(6)
O4 O 0.1600(3) -0.1125(13) 0.7547(4)
O5 O 0.1355(4) -0.3791(14) 0.8424(4)
O6 O 0.2460(4) -0.4514(14) 0.6424(4)
O7 O 0.2988(4) -0.0463(14) 0.6231(4)
O8 O 0.4753(4) -0.2445(14) 0.6735(6)
O9 O 0.6253(4) 0.3675(15) 0.5977(4)
O10 O 0.5968(3) 0.1163(12) 0.6881(4)
N1 N 0.3332(4) 0.2644(15) 0.8720(5)
N2 N 0.4229(5) -0.2613(15) 0.5689(6)
O11 O 0.1986(11) 0.356(5) 0.6767(15)
O12 O 0.5329(9) -0.347(4) 0.7584(13)
Mn1_2 Mn 0.21206(7) -0.8526(3) 0.67991(7)
Mn1C Mn 0.71206(7) 0.3526(3) 0.67991(7)
Mn2_2 Mn 0.54548(7) 0.8552(3) 0.76245(7)
Mn2C Mn 0.04548(7) -0.3552(3) 0.76245(7)
O2_2 O 0.5107(4) -0.5373(15) 0.8057(5)
O4C O 0.6600(3) -0.3875(13) 0.7547(4)
O5C O 0.6355(4) -0.1209(14) 0.8424(4)
O6_2 O 0.2460(4) 0.5486(14) 0.6424(4)
O9C O 0.1253(4) 0.1325(15) 0.5977(4)
O10C O 0.0968(3) 0.3837(12) 0.6881(4)
loop_
_geom_bond_atom_site_label_1
_geom_bond_atom_site_label_2
_geom_bond_site_symmetry_1
_geom_bond_site_symmetry_2
Mn1 O3 1_555 1_555
Mn2 O1 1_555 1_555
C1 C2 1_555 1_555
C2 H1 1_555 1_555
H2 C2 1_555 1_555
C3 H3 1_555 1_555
C4 C3 1_555 1_555
H4 C4 1_555 1_555
C5 C4 1_555 1_555
H5 C5 1_555 1_555
C6 C5 1_555 1_555
C7 C6 1_555 1_555
C8 C6 1_555 1_555
C9 C10 1_555 1_555
C10 H6 1_555 1_555
H7 C10 1_555 1_555
C11 H8 1_555 1_555
C12 C11 1_555 1_555
H9 C12 1_555 1_555
C13 C12 1_555 1_555
H10 C13 1_555 1_555
C14 C13 1_555 1_555
C15 C14 1_555 1_555
C16 C14 1_555 1_555
O1 C1 1_555 1_555
O2 C1 1_555 1_555
O3 C7 1_555 1_555
O4 Mn1 1_555 1_555
O5 C8 1_555 1_555
O6 C9 1_555 1_555
O7 Mn1 1_555 1_555
O8 Mn2 1_555 1_555
O9 C16 1_555 1_555
O10 Mn2 1_555 1_555
N1 C2 1_555 1_555
N2 C10 1_555 1_555
O11 Mn1 1_555 1_555
O12 Mn2 1_555 1_555
Mn1_2 O6 1_555 1_555
Mn1C O9 1_555 1_555
Mn2_2 O2 1_555 1_555
Mn2C O4 1_555 1_555
O2_2 Mn2 1_555 1_555
O4C Mn2 1_555 1_555
O5C Mn2 1_555 1_555
O6_2 Mn1 1_555 1_555
O9C Mn1 1_555 1_555
O10C Mn1 1_555 1_555
C3 N1 1_555 1_555
C7 N1 1_555 1_555
C8 O4 1_555 1_555
C9 O7 1_555 1_555
C11 N2 1_555 1_555
C15 O8 1_555 1_555
C15 N2 1_555 1_555
C16 O10 1_555 1_555
O5 Mn2C 1_555 1_555
O10 Mn1C 1_555 1_555

#END
