
#######################################################################
#
#                 Cambridge Crystallographic Data Centre
#                                CCDC 
#
#######################################################################
#
# If this CIF has been generated from an entry in the Cambridge 
# Structural Database, then it will include bibliographic, chemical, 
# crystal, experimental, refinement or atomic coordinate data resulting 
# from the CCDC's data processing and validation procedures.
#
#######################################################################

data_XIDQOQ01
_symmetry_cell_setting           monoclinic
_symmetry_space_group_name_H-M   'C 2/m'
_symmetry_Int_Tables_number      12
_space_group_name_Hall           '-C 2y'
loop_
_symmetry_equiv_pos_site_id
_symmetry_equiv_pos_as_xyz
1 x,y,z
2 x,-y,z
3 1/2+x,1/2+y,z
4 1/2+x,1/2-y,z
5 -x,-y,-z
6 -x,y,-z
7 1/2-x,1/2-y,-z
8 1/2-x,1/2+y,-z
_cell_length_a                   15.420(3)
_cell_length_b                   7.2200(10)
_cell_length_c                   6.9500(10)
_cell_angle_alpha                90
_cell_angle_beta                 112.94(3)
_cell_angle_gamma                90
_cell_volume                     712.566
loop_
_atom_site_label
_atom_site_type_symbol
_atom_site_fract_x
_atom_site_fract_y
_atom_site_fract_z
Co1 Co 0.5000 0.5000 0.5000
O1 O 0.64260(10) 0.5000 0.6958(3)
N1 N 0.77810(10) 0.5000 0.9799(3)
N2 N 0.53150(10) 0.2911(2) 0.3290(2)
N3 N 0.5844(2) 0.0000 0.2424(4)
C1 C 0.6859(2) 0.5000 0.8873(4)
C2 C 0.6462(2) 0.5000 1.0505(4)
C3 C 0.7281(2) 0.5000 1.2534(5)
C4 C 0.8145(2) 0.5000 1.2060(4)
C5 C 0.55450(10) 0.1516(2) 0.2916(2)
H1 H 0.812(2) 0.5000 0.912(5)
H2 H 0.6077 0.6092 1.0378
H3 H 0.6077 0.3908 1.0378
H4 H 0.7268 0.3909 1.3338
H5 H 0.7268 0.6091 1.3338
H6 H 0.8524 0.6094 1.2627
H7 H 0.8524 0.3906 1.2627
C5A C 0.55450(10) -0.1516(2) 0.2916(2)
N2A N 0.53150(10) -0.2911(2) 0.3290(2)
O1D O 0.35740(10) 0.5000 0.3042(3)
N1D N 0.22190(10) 0.5000 0.0201(3)
C1D C 0.3141(2) 0.5000 0.1127(4)
C2D C 0.3538(2) 0.5000 -0.0505(4)
C3D C 0.2719(2) 0.5000 -0.2534(5)
C4D C 0.1855(2) 0.5000 -0.2060(4)
H1D H 0.188(2) 0.5000 0.088(5)
H2D H 0.3923 0.3908 -0.0378
H3D H 0.3923 0.6092 -0.0378
H4D H 0.2732 0.6091 -0.3338
H5D H 0.2732 0.3909 -0.3338
H6D H 0.1476 0.3906 -0.2627
H7D H 0.1476 0.6094 -0.2627
N2A_2 N 0.53150(10) 0.7089(2) 0.3290(2)
N2D N 0.46850(10) 0.7089(2) 0.6710(2)
N2E N 0.46850(10) 0.2911(2) 0.6710(2)
N3E N 0.4156(2) 0.0000 0.7576(4)
C5E C 0.44550(10) 0.1516(2) 0.7084(2)
C5D C 0.44550(10) -0.1516(2) 0.7084(2)
N2D_2 N 0.46850(10) -0.2911(2) 0.6710(2)
Co1A Co 0.5000 -0.5000 0.5000
loop_
_geom_bond_atom_site_label_1
_geom_bond_atom_site_label_2
_geom_bond_site_symmetry_1
_geom_bond_site_symmetry_2
Co1 O1 1_555 1_555
O1 C1 1_555 1_555
N1 C1 1_555 1_555
N2 Co1 1_555 1_555
N3 C5 1_555 1_555
C1 C2 1_555 1_555
C2 C3 1_555 1_555
C3 C4 1_555 1_555
C4 N1 1_555 1_555
C5 N2 1_555 1_555
H1 N1 1_555 1_555
H2 C2 1_555 1_555
H3 C2 1_555 1_555
H4 C3 1_555 1_555
H5 C3 1_555 1_555
H6 C4 1_555 1_555
H7 C4 1_555 1_555
C5A N3 1_555 1_555
N2A C5A 1_555 1_555
O1D Co1 1_555 1_555
N1D C1D 1_555 1_555
C1D O1D 1_555 1_555
C2D C1D 1_555 1_555
C3D C2D 1_555 1_555
C4D N1D 1_555 1_555
H1D N1D 1_555 1_555
H2D C2D 1_555 1_555
H3D C2D 1_555 1_555
H4D C3D 1_555 1_555
H5D C3D 1_555 1_555
H6D C4D 1_555 1_555
H7D C4D 1_555 1_555
N2A_2 Co1 1_555 1_555
N2D Co1 1_555 1_555
N2E Co1 1_555 1_555
N3E C5E 1_555 1_555
C5E N2E 1_555 1_555
C5D N3E 1_555 1_555
N2D_2 C5D 1_555 1_555
Co1A N2A 1_555 1_555
C3D C4D 1_555 1_555
N2D_2 Co1A 1_555 1_555

#END
