
#######################################################################
#
#                 Cambridge Crystallographic Data Centre
#                                CCDC 
#
#######################################################################
#
# If this CIF has been generated from an entry in the Cambridge 
# Structural Database, then it will include bibliographic, chemical, 
# crystal, experimental, refinement or atomic coordinate data resulting 
# from the CCDC's data processing and validation procedures.
#
#######################################################################

data_XIDSIN
_symmetry_cell_setting           triclinic
_symmetry_space_group_name_H-M   'P -1'
_symmetry_Int_Tables_number      2
_space_group_name_Hall           '-P 1'
loop_
_symmetry_equiv_pos_site_id
_symmetry_equiv_pos_as_xyz
1 x,y,z
2 -x,-y,-z
_cell_length_a                   8.861(8)
_cell_length_b                   8.889(8)
_cell_length_c                   11.511(10)
_cell_angle_alpha                69.451(12)
_cell_angle_beta                 67.990(11)
_cell_angle_gamma                64.692(11)
_cell_volume                     739.959
loop_
_atom_site_label
_atom_site_type_symbol
_atom_site_fract_x
_atom_site_fract_y
_atom_site_fract_z
Pu1 Pu 0.86237(2) 0.43412(2) 0.149061(18)
Na1 Na 0.9834(3) 0.2621(3) 0.5272(2)
Na2 Na 0.6927(3) 0.1516(3) 0.5124(2)
Na3 Na 1.2851(3) 0.0520(3) 0.0099(2)
Na4 Na 0.7029(4) 0.4304(4) -0.1035(3)
O1 O 0.9695(5) 0.2426(5) 0.3335(4)
O2 O 1.0205(5) 0.1364(5) 0.1715(4)
O3 O 1.1147(5) -0.0369(5) 0.3457(4)
O4 O 0.7784(5) 0.5817(5) 0.3153(4)
O5 O 0.6506(5) 0.7156(5) 0.1599(4)
O6 O 0.5669(5) 0.8359(5) 0.3255(4)
O7 O 0.6257(5) 0.3381(6) 0.3154(4)
O8 O 0.6278(6) 0.3974(7) 0.1140(5)
O9 O 0.4091(5) 0.3251(5) 0.2641(4)
O10 O 1.1482(5) 0.4291(5) 0.0661(4)
O11 O 1.0339(5) 0.6120(5) 0.0589(4)
O12 O 0.6729(5) 0.4046(5) 0.5515(4)
O13 O 0.9331(10) 0.4633(17) 0.6294(15)
O14 O 1.2894(5) 0.1218(6) 0.5021(5)
O15 O 1.3228(6) -0.2202(6) 0.1540(5)
O16 O 1.1304(8) 0.0477(9) -0.1183(7)
O17 O 1.5642(6) -0.0925(6) -0.1268(4)
C1 C 1.0382(7) 0.1080(7) 0.2868(6)
C2 C 0.6608(7) 0.7169(7) 0.2686(6)
C3 C 0.5517(7) 0.3510(7) 0.2315(6)
Pu1A Pu 1.13763(2) 0.56588(2) -0.149061(18)
Na1A Na 1.0166(3) -0.2621(3) 0.4728(2)
Na1A_2 Na 1.0166(3) 0.7379(3) 0.4728(2)
Na2A Na 1.3073(3) -0.1516(3) 0.4876(2)
Na2A_2 Na 0.3073(3) 0.8484(3) 0.4876(2)
Na3A Na 0.7149(3) 0.9480(3) -0.0099(2)
Na3A_2 Na 1.7149(3) -0.0520(3) -0.0099(2)
Na4A Na 0.2971(4) 0.5696(4) 0.1035(3)
Na4A_2 Na 1.2971(4) 0.5696(4) 0.1035(3)
Na4A_3 Na 1.2971(4) -0.4304(4) 0.1035(3)
O3A O 0.8853(5) 0.0369(5) 0.6543(4)
O5A O 1.3494(5) 0.2844(5) -0.1599(4)
O6A O 0.4331(5) 0.1641(5) 0.6745(4)
O8A O 0.3722(6) 0.6026(7) -0.1140(5)
O9A O 0.5909(5) 0.6749(5) -0.2641(4)
O10A O 0.8518(5) 0.5709(5) -0.0661(4)
O11A O 0.9661(5) 0.3880(5) -0.0589(4)
O13A O 1.0669(10) 0.5367(17) 0.3706(15)
O14A O 0.7106(5) -0.1218(6) 0.4979(5)
O15A O 0.6772(6) 0.2202(6) -0.1540(5)
O17A O 1.4358(6) 0.0925(6) 0.1268(4)
loop_
_geom_bond_atom_site_label_1
_geom_bond_atom_site_label_2
_geom_bond_site_symmetry_1
_geom_bond_site_symmetry_2
Pu1 O1 1_555 1_555
Na1 O1 1_555 1_555
Na2 O1 1_555 1_555
Na3 O2 1_555 1_555
Na4 O8 1_555 1_555
O1 C1 1_555 1_555
O2 Pu1 1_555 1_555
O3 C1 1_555 1_555
O4 Pu1 1_555 1_555
O5 Pu1 1_555 1_555
O6 C2 1_555 1_555
O7 Pu1 1_555 1_555
O8 Pu1 1_555 1_555
O9 C3 1_555 1_555
O10 Pu1 1_555 1_555
O11 Pu1 1_555 1_555
O12 Na1 1_555 1_555
O13 Na1 1_555 1_555
O14 Na1 1_555 1_555
O15 Na3 1_555 1_555
O16 Na3 1_555 1_555
O17 Na3 1_555 1_555
C1 O2 1_555 1_555
C2 O4 1_555 1_555
C3 O7 1_555 1_555
Pu1A O10 1_555 1_555
Na1A O3 1_555 1_555
Na1A_2 O13 1_555 1_555
Na2A O3 1_555 1_555
Na2A_2 O6 1_555 1_555
Na3A O5 1_555 1_555
Na3A_2 O17 1_555 1_555
Na4A O8 1_555 1_555
Na4A_2 O10 1_555 1_555
Na4A_3 O15 1_555 1_555
O3A Na1 1_555 1_555
O5A Na3 1_555 1_555
O6A Na2 1_555 1_555
O8A Na4 1_555 1_555
O9A Na4 1_555 1_555
O10A Pu1 1_555 1_555
O11A Pu1 1_555 1_555
O13A Na1 1_555 1_555
O14A Na2 1_555 1_555
O15A Na4 1_555 1_555
O17A Na3 1_555 1_555
Na2 O7 1_555 1_555
Na2 O12 1_555 1_555
Na2 O3A 1_555 1_555
Na4 O10A 1_555 1_555
Na4 O11A 1_555 1_555
O5 C2 1_555 1_555
O8 C3 1_555 1_555
O9 Na4A 1_555 1_555
O10 O11 1_555 1_555
O11 Pu1A 1_555 1_555
O11 Na4A_2 1_555 1_555
O14 Na2A 1_555 1_555
Pu1A O5A 1_555 1_555
Pu1A O10A 1_555 1_555
Pu1A O11A 1_555 1_555
Na1A O14A 1_555 1_555
Na1A_2 O13A 1_555 1_555
Na3A_2 O17A 1_555 1_555
Na4A O8A 1_555 1_555
O10A O11A 1_555 1_555

#END
