
#######################################################################
#
#                 Cambridge Crystallographic Data Centre
#                                CCDC 
#
#######################################################################
#
# If this CIF has been generated from an entry in the Cambridge 
# Structural Database, then it will include bibliographic, chemical, 
# crystal, experimental, refinement or atomic coordinate data resulting 
# from the CCDC's data processing and validation procedures.
#
#######################################################################

data_XIDSUZ
_symmetry_cell_setting           orthorhombic
_symmetry_space_group_name_H-M   'P n n a'
_symmetry_Int_Tables_number      52
_space_group_name_Hall           '-P 2a 2bc'
loop_
_symmetry_equiv_pos_site_id
_symmetry_equiv_pos_as_xyz
1 x,y,z
2 1/2-x,-y,z
3 1/2-x,1/2+y,1/2-z
4 x,1/2-y,1/2-z
5 -x,-y,-z
6 1/2+x,y,-z
7 1/2+x,1/2-y,1/2+z
8 -x,1/2+y,1/2+z
_cell_length_a                   56.792(11)
_cell_length_b                   14.331(3)
_cell_length_c                   32.170(6)
_cell_angle_alpha                90
_cell_angle_beta                 90
_cell_angle_gamma                90
_cell_volume                     26182.7
loop_
_atom_site_label
_atom_site_type_symbol
_atom_site_fract_x
_atom_site_fract_y
_atom_site_fract_z
Cu1 Cu 0.406143(15) 0.88210(5) 0.48232(4)
O1 O 0.42279(9) 0.8810(4) 0.5613(3)
O2 O 0.44178(11) 0.8953(4) 0.6206(2)
O3 O 0.43883(9) 1.0146(4) 0.5787(2)
N1 N 0.43381(16) 0.9279(8) 0.5856(4)
Cu2 Cu 0.160322(18) 0.2500 0.7500
O4 O 0.15970(6) 0.0784(3) 0.72964(15)
O5 O 0.32916(12) 0.6073(4) 0.6061(3)
O6 O 0.26777(13) 0.4122(5) 0.6757(3)
O7 O 0.30319(9) 0.1535(3) 0.5246(2)
O8 O 0.39051(7) 0.8774(2) 0.4115(2)
N2 N 0.38277(11) 0.7889(3) 0.5051(4)
N3 N 0.18439(13) 0.2801(5) 0.71239(19)
N4 N 0.38476(12) -0.0158(4) 0.4985(3)
N5 N 0.33815(10) 0.5681(4) 0.5410(3)
H1 H 0.3356 0.5218 0.5236
N6 N 0.24391(11) 0.3184(3) 0.6286(2)
H2 H 0.2431 0.2834 0.6062
N7 N 0.34089(11) 0.2049(3) 0.5401(2)
H3 H 0.3489 0.2505 0.5518
C1 C 0.37283(16) 0.7859(7) 0.5450(3)
H4 H 0.3763 0.8341 0.5643
C2 C 0.35779(12) 0.7126(5) 0.5568(3)
H5 H 0.3515 0.7076 0.5841
C3 C 0.35254(13) 0.6452(5) 0.5245(4)
C4 C 0.36114(16) 0.6412(6) 0.4791(4)
H6 H 0.3571 0.5975 0.4581
C5 C 0.37726(12) 0.7222(8) 0.4761(3)
H7 H 0.3850 0.7290 0.4501
C6 C 0.32843(15) 0.5585(6) 0.5788(4)
C7 C 0.18794(11) 0.2488(6) 0.6780(3)
H8 H 0.1748 0.2130 0.6691
C8 C 0.20719(14) 0.2494(5) 0.6444(2)
H9 H 0.2073 0.2151 0.6192
C9 C 0.22499(14) 0.3126(5) 0.6591(3)
C10 C 0.22248(13) 0.3599(6) 0.6950(3)
H10 H 0.2341 0.4048 0.7023
C11 C 0.20456(15) 0.3464(4) 0.7207(3)
H11 H 0.2044 0.3806 0.7460
C12 C 0.2624(3) 0.3750(9) 0.6335(4)
C13 C 0.39234(13) 0.0575(6) 0.5269(3)
H12 H 0.4081 0.0547 0.5368
C14 C 0.37870(14) 0.1298(5) 0.5404(3)
H13 H 0.3842 0.1774 0.5584
C15 C 0.35440(15) 0.1261(6) 0.5238(3)
C16 C 0.34517(13) 0.0563(6) 0.4960(3)
H14 H 0.3295 0.0578 0.4859
C17 C 0.36077(17) -0.0120(5) 0.4855(3)
H15 H 0.3552 -0.0610 0.4681
C18 C 0.31751(15) 0.2136(5) 0.5388(3)
C19 C 0.31441(13) 0.4626(5) 0.5791(3)
C20 C 0.29600(13) 0.4619(5) 0.6074(3)
H16 H 0.2926 0.5120 0.6258
C21 C 0.28302(14) 0.3790(6) 0.6059(3)
C22 C 0.28994(14) 0.2971(5) 0.5880(3)
H17 H 0.2824 0.2399 0.5948
C23 C 0.30882(12) 0.2999(5) 0.5590(3)
C24 C 0.32192(11) 0.3851(5) 0.5544(3)
H18 H 0.3349 0.3898 0.5359
O9 O 0.07793(9) 0.4578(4) 0.6183(2)
O10 O 0.00294(8) 0.6216(4) 0.5932(2)
O11 O 0.01226(9) 0.1458(3) 0.5368(2)
N8 N 0.13618(10) 0.2668(5) 0.70681(17)
N9 N -0.06998(11) 0.7799(5) 0.5234(3)
N10 N -0.06914(12) -0.0222(4) 0.5336(3)
N11 N 0.07633(11) 0.3053(4) 0.6295(2)
H19 H 0.0685 0.2537 0.6241
N12 N -0.02286(11) 0.5569(4) 0.5463(2)
H20 H -0.0253 0.5087 0.5299
N13 N -0.02253(13) 0.2000(4) 0.5608(2)
H21 H -0.0290 0.2484 0.5731
C25 C 0.13318(13) 0.3417(5) 0.6832(3)
H22 H 0.1446 0.3896 0.6860
C26 C 0.11578(13) 0.3579(4) 0.6555(3)
H23 H 0.1159 0.4119 0.6384
C27 C 0.09745(16) 0.2925(5) 0.6528(3)
C28 C 0.09988(13) 0.2143(6) 0.6757(3)
H24 H 0.0883 0.1669 0.6723
C29 C 0.11754(13) 0.1977(5) 0.7034(3)
H25 H 0.1177 0.1428 0.7199
C30 C 0.06709(12) 0.3785(7) 0.6155(3)
C31 C -0.06786(13) 0.7094(6) 0.5000(3)
H26 H -0.0767 0.7076 0.4750
C32 C -0.05346(14) 0.6360(6) 0.5090(3)
H27 H -0.0536 0.5834 0.4909
C33 C -0.03855(14) 0.6347(6) 0.5436(3)
C34 C -0.03993(13) 0.7117(6) 0.5710(3)
H28 H -0.0304 0.7166 0.5952
C35 C -0.05672(14) 0.7818(5) 0.5594(4)
H29 H -0.0589 0.8330 0.5778
C36 C -0.00448(15) 0.5539(5) 0.5729(3)
C37 C -0.07507(13) 0.0463(7) 0.5585(3)
H30 H -0.0906 0.0458 0.5695
C38 C -0.06069(16) 0.1185(5) 0.5697(3)
H31 H -0.0653 0.1631 0.5900
C39 C -0.03838(18) 0.1232(6) 0.5493(3)
C40 C -0.03100(12) 0.0545(6) 0.5229(3)
H32 H -0.0155 0.0538 0.5117
C41 C -0.04874(18) -0.0197(5) 0.5128(3)
H33 H -0.0455 -0.0645 0.4918
C42 C 0.00092(14) 0.2036(6) 0.5543(3)
C43 C 0.04291(12) 0.3791(6) 0.5974(2)
C44 C 0.03049(15) 0.4616(5) 0.5948(3)
H34 H 0.0368 0.5169 0.6068
C45 C 0.00873(14) 0.4645(5) 0.5744(3)
C46 C -0.00175(11) 0.3793(6) 0.5642(2)
H35 H -0.0178 0.3784 0.5562
C47 C 0.01084(14) 0.2948(5) 0.5654(3)
C48 C 0.03180(16) 0.2917(4) 0.5852(3)
H36 H 0.0392 0.2337 0.5909
Cu1C Cu 0.406143(15) -0.38210(5) 1.01768(4)
Cu1_2 Cu 0.406143(15) -0.11790(5) 0.48232(4)
Cu1E Cu -0.093857(15) 0.88210(5) 0.51768(4)
Cu1E_2 Cu -0.093857(15) -0.11790(5) 0.51768(4)
Cu1C_2 Cu 0.406143(15) 0.61790(5) 1.01768(4)
Cu1F Cu -0.093857(15) -0.38210(5) 0.98232(4)
Cu1F_2 Cu -0.093857(15) 0.61790(5) 0.98232(4)
O1C O 0.42279(9) -0.3810(4) 0.9387(3)
O2C O 0.44178(11) -0.3953(4) 0.8794(2)
O3C O 0.43883(9) -0.5146(4) 0.9213(2)
N1C N 0.43381(16) -0.4279(8) 0.9144(4)
O4C O 0.15970(6) 0.4216(3) 0.77036(15)
O5C O 0.32916(12) -0.1073(4) 0.8939(3)
O6C O 0.26777(13) 0.0878(5) 0.8243(3)
O7C O 0.30319(9) 0.3465(3) 0.9754(2)
O8C O 0.39051(7) -0.3774(2) 1.0885(2)
N2C N 0.38277(11) -0.2889(3) 0.9949(4)
N3C N 0.18439(13) 0.2199(5) 0.78761(19)
N4C N 0.38476(12) 0.5158(4) 1.0015(3)
N4_2 N 0.38476(12) 0.9842(4) 0.4985(3)
N4C_2 N 0.38476(12) -0.4842(4) 1.0015(3)
N5C N 0.33815(10) -0.0681(4) 0.9590(3)
H1C H 0.3356 -0.0218 0.9764
N6C N 0.24391(11) 0.1816(3) 0.8714(2)
H2C H 0.2431 0.2166 0.8938
N7C N 0.34089(11) 0.2951(3) 0.9599(2)
H3C H 0.3489 0.2495 0.9482
C1C C 0.37283(16) -0.2859(7) 0.9550(3)
H4C H 0.3763 -0.3341 0.9357
C2C C 0.35779(12) -0.2126(5) 0.9432(3)
H5C H 0.3515 -0.2076 0.9159
C3C C 0.35254(13) -0.1452(5) 0.9755(4)
C4C C 0.36114(16) -0.1412(6) 1.0209(4)
H6C H 0.3571 -0.0975 1.0419
C5C C 0.37726(12) -0.2222(8) 1.0239(3)
H7C H 0.3850 -0.2290 1.0499
C6C C 0.32843(15) -0.0585(6) 0.9212(4)
C7C C 0.18794(11) 0.2512(6) 0.8220(3)
H8C H 0.1748 0.2870 0.8309
C8C C 0.20719(14) 0.2506(5) 0.8556(2)
H9C H 0.2073 0.2849 0.8808
C9C C 0.22499(14) 0.1874(5) 0.8409(3)
C10C C 0.22248(13) 0.1401(6) 0.8050(3)
H10C H 0.2341 0.0952 0.7977
C11C C 0.20456(15) 0.1536(4) 0.7793(3)
H11C H 0.2044 0.1194 0.7540
C12C C 0.2624(3) 0.1250(9) 0.8665(4)
C13C C 0.39234(13) 0.4425(6) 0.9731(3)
H12C H 0.4081 0.4453 0.9632
C14C C 0.37870(14) 0.3702(5) 0.9596(3)
H13C H 0.3842 0.3226 0.9416
C15C C 0.35440(15) 0.3739(6) 0.9762(3)
C16C C 0.34517(13) 0.4437(6) 1.0040(3)
H14C H 0.3295 0.4422 1.0141
C17C C 0.36077(17) 0.5120(5) 1.0145(3)
H15C H 0.3552 0.5610 1.0319
C18C C 0.31751(15) 0.2864(5) 0.9612(3)
C19C C 0.31441(13) 0.0374(5) 0.9209(3)
C20C C 0.29600(13) 0.0381(5) 0.8926(3)
H16C H 0.2926 -0.0120 0.8742
C21C C 0.28302(14) 0.1210(6) 0.8941(3)
C22C C 0.28994(14) 0.2029(5) 0.9120(3)
H17C H 0.2824 0.2601 0.9052
C23C C 0.30882(12) 0.2001(5) 0.9410(3)
C24C C 0.32192(11) 0.1149(5) 0.9456(3)
H18C H 0.3349 0.1102 0.9641
O9C O 0.07793(9) 0.0422(4) 0.8817(2)
O10C O 0.00294(8) -0.1216(4) 0.9068(2)
O11C O 0.01226(9) 0.3542(3) 0.9632(2)
N8C N 0.13618(10) 0.2332(5) 0.79319(17)
N9C N -0.06998(11) -0.2799(5) 0.9766(3)
N9E N 0.43002(11) 0.7799(5) 0.4766(3)
N9F N 0.43002(11) -0.2799(5) 1.0234(3)
N10C N -0.06914(12) 0.5222(4) 0.9664(3)
N10E N 0.43086(12) 0.9778(4) 0.4664(3)
N10F N 0.43086(12) -0.4778(4) 1.0336(3)
N11C N 0.07633(11) 0.1947(4) 0.8705(2)
H19C H 0.0685 0.2463 0.8759
N12C N -0.02286(11) -0.0569(4) 0.9537(2)
H20C H -0.0253 -0.0087 0.9701
N13C N -0.02253(13) 0.3000(4) 0.9392(2)
H21C H -0.0290 0.2516 0.9269
C25C C 0.13318(13) 0.1583(5) 0.8168(3)
H22C H 0.1446 0.1104 0.8140
C26C C 0.11578(13) 0.1421(4) 0.8445(3)
H23C H 0.1159 0.0881 0.8616
C27C C 0.09745(16) 0.2075(5) 0.8472(3)
C28C C 0.09988(13) 0.2857(6) 0.8243(3)
H24C H 0.0883 0.3331 0.8277
C29C C 0.11754(13) 0.3023(5) 0.7966(3)
H25C H 0.1177 0.3572 0.7801
C30C C 0.06709(12) 0.1215(7) 0.8845(3)
C31C C -0.06786(13) -0.2094(6) 1.0000(3)
H26C H -0.0767 -0.2076 1.0250
C32C C -0.05346(14) -0.1360(6) 0.9910(3)
H27C H -0.0536 -0.0834 1.0091
C33C C -0.03855(14) -0.1347(6) 0.9564(3)
C34C C -0.03993(13) -0.2117(6) 0.9290(3)
H28C H -0.0304 -0.2166 0.9048
C35C C -0.05672(14) -0.2818(5) 0.9406(4)
H29C H -0.0589 -0.3330 0.9222
C36C C -0.00448(15) -0.0539(5) 0.9271(3)
C37C C -0.07507(13) 0.4537(7) 0.9415(3)
H30C H -0.0906 0.4542 0.9305
C38C C -0.06069(16) 0.3815(5) 0.9303(3)
H31C H -0.0653 0.3369 0.9100
C39C C -0.03838(18) 0.3768(6) 0.9507(3)
C40C C -0.03100(12) 0.4455(6) 0.9771(3)
H32C H -0.0155 0.4462 0.9883
C41C C -0.04874(18) 0.5197(5) 0.9872(3)
H33C H -0.0455 0.5645 1.0082
C42C C 0.00092(14) 0.2964(6) 0.9457(3)
C43C C 0.04291(12) 0.1209(6) 0.9026(2)
C44C C 0.03049(15) 0.0384(5) 0.9052(3)
H34C H 0.0368 -0.0169 0.8932
C45C C 0.00873(14) 0.0355(5) 0.9256(3)
C46C C -0.00175(11) 0.1207(6) 0.9358(2)
H35C H -0.0178 0.1216 0.9438
C47C C 0.01084(14) 0.2052(5) 0.9346(3)
C48C C 0.03180(16) 0.2083(4) 0.9148(3)
H36C H 0.0392 0.2663 0.9091
loop_
_geom_bond_atom_site_label_1
_geom_bond_atom_site_label_2
_geom_bond_site_symmetry_1
_geom_bond_site_symmetry_2
Cu1 O1 1_555 1_555
O1 N1 1_555 1_555
O2 N1 1_555 1_555
O3 N1 1_555 1_555
Cu2 O4 1_555 1_555
O5 C6 1_555 1_555
O6 C12 1_555 1_555
O7 C18 1_555 1_555
O8 Cu1 1_555 1_555
N2 Cu1 1_555 1_555
N3 Cu2 1_555 1_555
N4 C13 1_555 1_555
N5 H1 1_555 1_555
N6 H2 1_555 1_555
N7 H3 1_555 1_555
C1 N2 1_555 1_555
H4 C1 1_555 1_555
C2 C1 1_555 1_555
H5 C2 1_555 1_555
C3 N5 1_555 1_555
C4 C3 1_555 1_555
H6 C4 1_555 1_555
C5 N2 1_555 1_555
H7 C5 1_555 1_555
C6 N5 1_555 1_555
C7 N3 1_555 1_555
H8 C7 1_555 1_555
C8 C7 1_555 1_555
H9 C8 1_555 1_555
C9 N6 1_555 1_555
C10 C9 1_555 1_555
H10 C10 1_555 1_555
C11 N3 1_555 1_555
H11 C11 1_555 1_555
C12 N6 1_555 1_555
C13 H12 1_555 1_555
C14 C13 1_555 1_555
H13 C14 1_555 1_555
C15 N7 1_555 1_555
C16 C15 1_555 1_555
H14 C16 1_555 1_555
C17 N4 1_555 1_555
H15 C17 1_555 1_555
C18 N7 1_555 1_555
C19 C6 1_555 1_555
C20 C19 1_555 1_555
H16 C20 1_555 1_555
C21 C12 1_555 1_555
C22 C21 1_555 1_555
H17 C22 1_555 1_555
C23 C18 1_555 1_555
C24 C19 1_555 1_555
H18 C24 1_555 1_555
O9 C30 1_555 1_555
O10 C36 1_555 1_555
O11 C42 1_555 1_555
N8 Cu2 1_555 1_555
N9 C31 1_555 1_555
N10 C37 1_555 1_555
N11 H19 1_555 1_555
N12 H20 1_555 1_555
N13 H21 1_555 1_555
C25 N8 1_555 1_555
H22 C25 1_555 1_555
C26 C25 1_555 1_555
H23 C26 1_555 1_555
C27 N11 1_555 1_555
C28 C27 1_555 1_555
H24 C28 1_555 1_555
C29 N8 1_555 1_555
H25 C29 1_555 1_555
C30 N11 1_555 1_555
C31 H26 1_555 1_555
C32 C31 1_555 1_555
H27 C32 1_555 1_555
C33 N12 1_555 1_555
C34 C33 1_555 1_555
H28 C34 1_555 1_555
C35 N9 1_555 1_555
H29 C35 1_555 1_555
C36 N12 1_555 1_555
C37 H30 1_555 1_555
C38 C37 1_555 1_555
H31 C38 1_555 1_555
C39 N13 1_555 1_555
C40 C39 1_555 1_555
H32 C40 1_555 1_555
C41 N10 1_555 1_555
H33 C41 1_555 1_555
C42 N13 1_555 1_555
C43 C30 1_555 1_555
C44 C43 1_555 1_555
H34 C44 1_555 1_555
C45 C36 1_555 1_555
C46 C45 1_555 1_555
H35 C46 1_555 1_555
C47 C42 1_555 1_555
C48 C43 1_555 1_555
H36 C48 1_555 1_555
Cu1C O1C 1_555 1_555
Cu1_2 N4 1_555 1_555
Cu1E N9 1_555 1_555
Cu1E_2 N10 1_555 1_555
Cu1C_2 N4C 1_555 1_555
Cu1F N9C 1_555 1_555
Cu1F_2 N10C 1_555 1_555
O1C N1C 1_555 1_555
O2C N1C 1_555 1_555
O3C N1C 1_555 1_555
O4C Cu2 1_555 1_555
O5C C6C 1_555 1_555
O6C C12C 1_555 1_555
O7C C18C 1_555 1_555
O8C Cu1C 1_555 1_555
N2C Cu1C 1_555 1_555
N3C Cu2 1_555 1_555
N4C C13C 1_555 1_555
N4_2 Cu1 1_555 1_555
N4C_2 Cu1C 1_555 1_555
N5C H1C 1_555 1_555
N6C H2C 1_555 1_555
N7C H3C 1_555 1_555
C1C N2C 1_555 1_555
H4C C1C 1_555 1_555
C2C C1C 1_555 1_555
H5C C2C 1_555 1_555
C3C N5C 1_555 1_555
C4C C3C 1_555 1_555
H6C C4C 1_555 1_555
C5C N2C 1_555 1_555
H7C C5C 1_555 1_555
C6C N5C 1_555 1_555
C7C N3C 1_555 1_555
H8C C7C 1_555 1_555
C8C C7C 1_555 1_555
H9C C8C 1_555 1_555
C9C N6C 1_555 1_555
C10C C9C 1_555 1_555
H10C C10C 1_555 1_555
C11C N3C 1_555 1_555
H11C C11C 1_555 1_555
C12C N6C 1_555 1_555
C13C H12C 1_555 1_555
C14C C13C 1_555 1_555
H13C C14C 1_555 1_555
C15C N7C 1_555 1_555
C16C C15C 1_555 1_555
H14C C16C 1_555 1_555
C17C N4C 1_555 1_555
H15C C17C 1_555 1_555
C18C N7C 1_555 1_555
C19C C6C 1_555 1_555
C20C C19C 1_555 1_555
H16C C20C 1_555 1_555
C21C C12C 1_555 1_555
C22C C21C 1_555 1_555
H17C C22C 1_555 1_555
C23C C18C 1_555 1_555
C24C C19C 1_555 1_555
H18C C24C 1_555 1_555
O9C C30C 1_555 1_555
O10C C36C 1_555 1_555
O11C C42C 1_555 1_555
N8C Cu2 1_555 1_555
N9C C31C 1_555 1_555
N9E Cu1 1_555 1_555
N9F Cu1C 1_555 1_555
N10C C37C 1_555 1_555
N10E Cu1 1_555 1_555
N10F Cu1C 1_555 1_555
N11C H19C 1_555 1_555
N12C H20C 1_555 1_555
N13C H21C 1_555 1_555
C25C N8C 1_555 1_555
H22C C25C 1_555 1_555
C26C C25C 1_555 1_555
H23C C26C 1_555 1_555
C27C N11C 1_555 1_555
C28C C27C 1_555 1_555
H24C C28C 1_555 1_555
C29C N8C 1_555 1_555
H25C C29C 1_555 1_555
C30C N11C 1_555 1_555
C31C H26C 1_555 1_555
C32C C31C 1_555 1_555
H27C C32C 1_555 1_555
C33C N12C 1_555 1_555
C34C C33C 1_555 1_555
H28C C34C 1_555 1_555
C35C N9C 1_555 1_555
H29C C35C 1_555 1_555
C36C N12C 1_555 1_555
C37C H30C 1_555 1_555
C38C C37C 1_555 1_555
H31C C38C 1_555 1_555
C39C N13C 1_555 1_555
C40C C39C 1_555 1_555
H32C C40C 1_555 1_555
C41C N10C 1_555 1_555
H33C C41C 1_555 1_555
C42C N13C 1_555 1_555
C43C C30C 1_555 1_555
C44C C43C 1_555 1_555
H34C C44C 1_555 1_555
C45C C36C 1_555 1_555
C46C C45C 1_555 1_555
H35C C46C 1_555 1_555
C47C C42C 1_555 1_555
C48C C43C 1_555 1_555
H36C C48C 1_555 1_555
C2 C3 1_555 1_555
C4 C5 1_555 1_555
C8 C9 1_555 1_555
C10 C11 1_555 1_555
C14 C15 1_555 1_555
C16 C17 1_555 1_555
C20 C21 1_555 1_555
C22 C23 1_555 1_555
C23 C24 1_555 1_555
C26 C27 1_555 1_555
C28 C29 1_555 1_555
C32 C33 1_555 1_555
C34 C35 1_555 1_555
C38 C39 1_555 1_555
C40 C41 1_555 1_555
C44 C45 1_555 1_555
C46 C47 1_555 1_555
C47 C48 1_555 1_555
C2C C3C 1_555 1_555
C4C C5C 1_555 1_555
C8C C9C 1_555 1_555
C10C C11C 1_555 1_555
C14C C15C 1_555 1_555
C16C C17C 1_555 1_555
C20C C21C 1_555 1_555
C22C C23C 1_555 1_555
C23C C24C 1_555 1_555
C26C C27C 1_555 1_555
C28C C29C 1_555 1_555
C32C C33C 1_555 1_555
C34C C35C 1_555 1_555
C38C C39C 1_555 1_555
C40C C41C 1_555 1_555
C44C C45C 1_555 1_555
C46C C47C 1_555 1_555
C47C C48C 1_555 1_555

#END
