
#######################################################################
#
#                 Cambridge Crystallographic Data Centre
#                                CCDC 
#
#######################################################################
#
# If this CIF has been generated from an entry in the Cambridge 
# Structural Database, then it will include bibliographic, chemical, 
# crystal, experimental, refinement or atomic coordinate data resulting 
# from the CCDC's data processing and validation procedures.
#
#######################################################################

data_XIDVUD
_symmetry_cell_setting           monoclinic
_symmetry_space_group_name_H-M   'C 2/c'
_symmetry_Int_Tables_number      15
_space_group_name_Hall           '-C 2yn'
loop_
_symmetry_equiv_pos_site_id
_symmetry_equiv_pos_as_xyz
1 x,y,z
2 -x,y,1/2-z
3 1/2+x,1/2+y,z
4 1/2-x,1/2+y,1/2-z
5 -x,-y,-z
6 x,-y,1/2+z
7 1/2-x,1/2-y,-z
8 1/2+x,1/2-y,1/2+z
_cell_length_a                   25.1252(4)
_cell_length_b                   11.7811(2)
_cell_length_c                   23.9790(4)
_cell_angle_alpha                90
_cell_angle_beta                 93.5960(10)
_cell_angle_gamma                90
_cell_volume                     7083.87
loop_
_atom_site_label
_atom_site_type_symbol
_atom_site_fract_x
_atom_site_fract_y
_atom_site_fract_z
C1 C 0.43047(6) 0.43980(13) 0.14413(6)
C2 C 0.43269(7) 0.43626(14) 0.08402(7)
H1 H 0.4047 0.4547 0.0571
C3 C 0.48256(7) 0.40145(14) 0.07355(7)
H2 H 0.4957 0.3879 0.0379
C4 C 0.51187(6) 0.38886(13) 0.12700(6)
C5 C 0.56671(6) 0.36758(13) 0.13356(7)
C6 C 0.59651(6) 0.38436(13) 0.18393(7)
C7 C 0.65392(6) 0.38501(14) 0.19068(7)
H3 H 0.6779 0.3644 0.1633
C8 C 0.66735(6) 0.42039(13) 0.24337(7)
H4 H 0.7024 0.4331 0.2593
C9 C 0.61826(6) 0.43507(13) 0.27060(7)
C10 C 0.61574(6) 0.45804(13) 0.32768(7)
C11 C 0.66564(6) 0.49974(14) 0.35825(6)
C12 C 0.69661(7) 0.43264(15) 0.39517(8)
H5 H 0.6854 0.3576 0.4031
C13 C 0.74400(7) 0.47453(16) 0.42074(8)
H6 H 0.7649 0.4276 0.4458
C14 C 0.76095(7) 0.58346(15) 0.41000(8)
H7 H 0.7933 0.6116 0.4275
C15 C 0.73029(7) 0.65081(16) 0.37360(8)
H8 H 0.7416 0.7259 0.366
C16 C 0.68293(7) 0.60995(15) 0.34785(8)
H9 H 0.6622 0.6575 0.323
C17 C 0.59447(6) 0.33066(14) 0.08324(6)
C18 C 0.63250(7) 0.39806(15) 0.05933(8)
H10 H 0.6412 0.4704 0.0748
C19 C 0.65786(8) 0.35957(17) 0.01267(8)
H11 H 0.6837 0.406 -0.0035
C20 C 0.64548(8) 0.25401(18) -0.01008(7)
H12 H 0.663 0.2279 -0.0416
C21 C 0.60754(8) 0.18643(16) 0.01312(7)
H13 H 0.5989 0.1142 -0.0026
C22 C 0.58209(7) 0.22468(15) 0.05947(7)
H14 H 0.556 0.1783 0.0752
C23 C 0.54315(6) 0.67313(13) 0.23822(6)
H15 H 0.5743 0.6327 0.2296
C24 C 0.54513(6) 0.79126(13) 0.23781(7)
H16 H 0.5769 0.8294 0.2293
C25 C 0.50000 0.85304(19) 0.25000
C26 C 0.50000 0.97881(18) 0.25000
C27 C 0.45391(6) 1.04053(13) 0.23492(7)
H17 H 0.4214 1.0024 0.2247
C28 C 0.45602(6) 1.15870(13) 0.23505(7)
H18 H 0.4245 1.1994 0.2239
Co1 Co 0.50000 0.41292(3) 0.25000
N1 N 0.47939(5) 0.41245(10) 0.16954(6)
N2 N 0.57556(5) 0.41259(10) 0.23375(6)
N3 N 0.50000 0.61301(16) 0.25000
N4 N 0.50000 1.21805(15) 0.25000
C1A C 0.56953(6) 0.43980(13) 0.35587(6)
C2A C 0.56731(7) 0.43626(14) 0.41598(7)
H1A H 0.5953 0.4547 0.4429
C3A C 0.51744(7) 0.40145(14) 0.42645(7)
H2A H 0.5043 0.3879 0.4621
C4A C 0.48813(6) 0.38886(13) 0.37300(6)
C5A C 0.43329(6) 0.36758(13) 0.36644(7)
C6A C 0.40349(6) 0.38436(13) 0.31607(7)
C7A C 0.34608(6) 0.38501(14) 0.30932(7)
H3A H 0.3221 0.3644 0.3367
C8A C 0.33265(6) 0.42039(13) 0.25663(7)
H4A H 0.2976 0.4331 0.2407
C9A C 0.38174(6) 0.43507(13) 0.22940(7)
C10A C 0.38426(6) 0.45804(13) 0.17232(7)
C11A C 0.33436(6) 0.49974(14) 0.14175(6)
C12A C 0.30339(7) 0.43264(15) 0.10483(8)
H5A H 0.3146 0.3576 0.0969
C13A C 0.25600(7) 0.47453(16) 0.07926(8)
H6A H 0.2351 0.4276 0.0542
C14A C 0.23905(7) 0.58346(15) 0.09000(8)
H7A H 0.2067 0.6116 0.0725
C15A C 0.26971(7) 0.65081(16) 0.12640(8)
H8A H 0.2584 0.7259 0.134
C16A C 0.31707(7) 0.60995(15) 0.15215(8)
H9A H 0.3378 0.6575 0.177
C17A C 0.40553(6) 0.33066(14) 0.41676(6)
C18A C 0.36750(7) 0.39806(15) 0.44067(8)
H10A H 0.3588 0.4704 0.4252
C19A C 0.34214(8) 0.35957(17) 0.48733(8)
H11A H 0.3163 0.406 0.5035
C20A C 0.35452(8) 0.25401(18) 0.51008(7)
H12A H 0.337 0.2279 0.5416
C21A C 0.39246(8) 0.18643(16) 0.48688(7)
H13A H 0.4011 0.1142 0.5026
C22A C 0.41791(7) 0.22468(15) 0.44053(7)
H14A H 0.444 0.1783 0.4248
N1A N 0.52061(5) 0.41245(10) 0.33046(6)
N2A N 0.42444(5) 0.41259(10) 0.26625(6)
C23A C 0.45685(6) 0.67313(13) 0.26178(6)
H15A H 0.4257 0.6327 0.2704
C24A C 0.45487(6) 0.79126(13) 0.26219(7)
H16A H 0.4231 0.8294 0.2707
C27A C 0.54609(6) 1.04053(13) 0.26508(7)
H17A H 0.5786 1.0024 0.2753
C28A C 0.54398(6) 1.15870(13) 0.26495(7)
H18A H 0.5755 1.1994 0.2761
Co1_2 Co 0.50000 1.41292(3) 0.25000
N4_2 N 0.50000 0.21805(15) 0.25000
C29 C 0.73729(6) 0.34877(13) 0.61659(6)
C30 C 0.69918(6) 0.35449(13) 0.65873(7)
H19 H 0.7052 0.3849 0.6953
C31 C 0.65291(6) 0.30849(13) 0.63679(7)
H20 H 0.6207 0.3012 0.6553
C32 C 0.66117(6) 0.27285(13) 0.58084(6)
C33 C 0.62358(6) 0.21817(13) 0.54530(7)
C34 C 0.63318(6) 0.17554(13) 0.49226(7)
C35 C 0.59263(7) 0.12358(14) 0.45492(7)
H21 H 0.5562 0.1127 0.4619
C36 C 0.61674(7) 0.09351(14) 0.40824(7)
H22 H 0.6005 0.0575 0.376
C37 C 0.67210(6) 0.12703(13) 0.41694(7)
C38 C 0.70974(6) 0.11390(13) 0.37687(7)
C39 C 0.69413(6) 0.05965(14) 0.32174(7)
C40 C 0.69312(7) -0.05839(14) 0.31622(7)
H23 H 0.6981 -0.1049 0.3485
C41 C 0.68482(7) -0.10822(15) 0.26394(7)
H24 H 0.6849 -0.1886 0.2606
C42 C 0.67646(7) -0.04140(15) 0.21652(7)
H25 H 0.6714 -0.0757 0.1807
C43 C 0.67549(7) 0.07602(15) 0.22183(7)
H26 H 0.6685 0.1222 0.1897
C44 C 0.68479(7) 0.12605(14) 0.27419(7)
H27 H 0.6847 0.2064 0.2774
C45 C 0.56966(6) 0.20026(14) 0.56716(6)
C46 C 0.53512(7) 0.29135(15) 0.57464(7)
H28 H 0.5454 0.366 0.5648
C47 C 0.48574(7) 0.27308(16) 0.59641(7)
H29 H 0.4624 0.3352 0.6012
C48 C 0.47060(7) 0.16459(16) 0.61112(7)
H30 H 0.4368 0.1523 0.6258
C49 C 0.50477(7) 0.07401(15) 0.60446(7)
H31 H 0.4945 -0.0003 0.6149
C50 C 0.55412(7) 0.09164(14) 0.58253(7)
H32 H 0.5774 0.0292 0.578
N5 N 0.68130(5) 0.17710(11) 0.46829(5)
N6 N 0.71287(5) 0.29931(12) 0.57001(6)
H33 H 0.7279(12) 0.286(3) 0.5401(13)
C29F C 0.76271(6) 0.15123(13) 0.38341(6)
C30F C 0.80082(6) 0.14551(13) 0.34127(7)
H19F H 0.7948 0.1151 0.3047
C31F C 0.84709(6) 0.19151(13) 0.36321(7)
H20F H 0.8793 0.1988 0.3447
C32F C 0.83883(6) 0.22715(13) 0.41916(6)
C33F C 0.87642(6) 0.28183(13) 0.45470(7)
C34F C 0.86682(6) 0.32446(13) 0.50774(7)
C35F C 0.90737(7) 0.37642(14) 0.54508(7)
H21F H 0.9438 0.3873 0.5381
C36F C 0.88326(7) 0.40649(14) 0.59176(7)
H22F H 0.8995 0.4425 0.624
C37F C 0.82790(6) 0.37297(13) 0.58306(7)
C38F C 0.79026(6) 0.38610(13) 0.62313(7)
C39F C 0.80587(6) 0.44035(14) 0.67826(7)
C40F C 0.80688(7) 0.55839(14) 0.68378(7)
H23F H 0.8019 0.6049 0.6515
C41F C 0.81518(7) 0.60822(15) 0.73606(7)
H24F H 0.8151 0.6886 0.7394
C42F C 0.82354(7) 0.54140(15) 0.78348(7)
H25F H 0.8286 0.5757 0.8193
C43F C 0.82451(7) 0.42398(15) 0.77817(7)
H26F H 0.8315 0.3778 0.8103
C44F C 0.81521(7) 0.37395(14) 0.72581(7)
H27F H 0.8153 0.2936 0.7226
C45F C 0.93034(6) 0.29974(14) 0.43284(6)
C46F C 0.96488(7) 0.20865(15) 0.42536(7)
H28F H 0.9546 0.134 0.4352
C47F C 1.01426(7) 0.22692(16) 0.40359(7)
H29F H 1.0376 0.1648 0.3988
C48F C 1.02940(7) 0.33541(16) 0.38888(7)
H30F H 1.0632 0.3477 0.3742
C49F C 0.99523(7) 0.42599(15) 0.39554(7)
H31F H 1.0055 0.5003 0.3851
C50F C 0.94588(7) 0.40836(14) 0.41747(7)
H32F H 0.9226 0.4708 0.422
N5F N 0.81870(5) 0.32290(11) 0.53171(5)
N6F N 0.78713(5) 0.20069(12) 0.42999(6)
H33F H 0.7721(12) 0.214(3) 0.4599(13)
Co2? Co 0.75000 0.25000 0.50000
loop_
_geom_bond_atom_site_label_1
_geom_bond_atom_site_label_2
_geom_bond_site_symmetry_1
_geom_bond_site_symmetry_2
C1 C2 1_555 1_555
C2 H1 1_555 1_555
C3 C2 1_555 1_555
H2 C3 1_555 1_555
C4 C3 1_555 1_555
C5 C4 1_555 1_555
C6 C5 1_555 1_555
C7 C6 1_555 1_555
H3 C7 1_555 1_555
C8 C7 1_555 1_555
H4 C8 1_555 1_555
C9 C8 1_555 1_555
C10 C9 1_555 1_555
C11 C10 1_555 1_555
C12 C11 1_555 1_555
H5 C12 1_555 1_555
C13 C12 1_555 1_555
H6 C13 1_555 1_555
C14 C13 1_555 1_555
H7 C14 1_555 1_555
C15 C14 1_555 1_555
H8 C15 1_555 1_555
C16 C11 1_555 1_555
H9 C16 1_555 1_555
C17 C5 1_555 1_555
C18 C17 1_555 1_555
H10 C18 1_555 1_555
C19 C18 1_555 1_555
H11 C19 1_555 1_555
C20 C19 1_555 1_555
H12 C20 1_555 1_555
C21 C20 1_555 1_555
H13 C21 1_555 1_555
C22 C17 1_555 1_555
H14 C22 1_555 1_555
C23 H15 1_555 1_555
C24 C23 1_555 1_555
H16 C24 1_555 1_555
C25 C24 1_555 1_555
C26 C25 1_555 1_555
C27 C26 1_555 1_555
H17 C27 1_555 1_555
C28 C27 1_555 1_555
H18 C28 1_555 1_555
Co1 N1 1_555 1_555
N1 C1 1_555 1_555
N2 C6 1_555 1_555
N3 C23 1_555 1_555
N4 C28 1_555 1_555
C29 C30 1_555 1_555
C30 H19 1_555 1_555
C31 C30 1_555 1_555
H20 C31 1_555 1_555
C32 C31 1_555 1_555
C33 C32 1_555 1_555
C34 C33 1_555 1_555
C35 C34 1_555 1_555
H21 C35 1_555 1_555
C36 C35 1_555 1_555
H22 C36 1_555 1_555
C37 C36 1_555 1_555
C38 C37 1_555 1_555
C39 C38 1_555 1_555
C40 C39 1_555 1_555
H23 C40 1_555 1_555
C41 C40 1_555 1_555
H24 C41 1_555 1_555
C42 C41 1_555 1_555
H25 C42 1_555 1_555
C43 C42 1_555 1_555
H26 C43 1_555 1_555
C44 C39 1_555 1_555
H27 C44 1_555 1_555
C45 C33 1_555 1_555
C46 C45 1_555 1_555
H28 C46 1_555 1_555
C47 C46 1_555 1_555
H29 C47 1_555 1_555
C48 C47 1_555 1_555
H30 C48 1_555 1_555
C49 C48 1_555 1_555
H31 C49 1_555 1_555
C50 C45 1_555 1_555
H32 C50 1_555 1_555
N5 C34 1_555 1_555
N6 C29 1_555 1_555
H33 N6 1_555 1_555
C1A C10 1_555 1_555
C2A C1A 1_555 1_555
H1A C2A 1_555 1_555
C3A C2A 1_555 1_555
H2A C3A 1_555 1_555
C4A C3A 1_555 1_555
C5A C4A 1_555 1_555
C6A C5A 1_555 1_555
C7A C6A 1_555 1_555
H3A C7A 1_555 1_555
C8A C7A 1_555 1_555
H4A C8A 1_555 1_555
C9A C8A 1_555 1_555
C10A C1 1_555 1_555
C11A C10A 1_555 1_555
C12A C11A 1_555 1_555
H5A C12A 1_555 1_555
C13A C12A 1_555 1_555
H6A C13A 1_555 1_555
C14A C13A 1_555 1_555
H7A C14A 1_555 1_555
C15A C14A 1_555 1_555
H8A C15A 1_555 1_555
C16A C11A 1_555 1_555
H9A C16A 1_555 1_555
C17A C5A 1_555 1_555
C18A C17A 1_555 1_555
H10A C18A 1_555 1_555
C19A C18A 1_555 1_555
H11A C19A 1_555 1_555
C20A C19A 1_555 1_555
H12A C20A 1_555 1_555
C21A C20A 1_555 1_555
H13A C21A 1_555 1_555
C22A C17A 1_555 1_555
H14A C22A 1_555 1_555
N1A Co1 1_555 1_555
N2A Co1 1_555 1_555
C23A N3 1_555 1_555
H15A C23A 1_555 1_555
C24A C25 1_555 1_555
H16A C24A 1_555 1_555
C27A C26 1_555 1_555
H17A C27A 1_555 1_555
C28A N4 1_555 1_555
H18A C28A 1_555 1_555
Co1_2 N4 1_555 1_555
N4_2 Co1 1_555 1_555
C29F C38 1_555 1_555
C30F C29F 1_555 1_555
H19F C30F 1_555 1_555
C31F C30F 1_555 1_555
H20F C31F 1_555 1_555
C32F C31F 1_555 1_555
C33F C32F 1_555 1_555
C34F C33F 1_555 1_555
C35F C34F 1_555 1_555
H21F C35F 1_555 1_555
C36F C35F 1_555 1_555
H22F C36F 1_555 1_555
C37F C36F 1_555 1_555
C38F C29 1_555 1_555
C39F C38F 1_555 1_555
C40F C39F 1_555 1_555
H23F C40F 1_555 1_555
C41F C40F 1_555 1_555
H24F C41F 1_555 1_555
C42F C41F 1_555 1_555
H25F C42F 1_555 1_555
C43F C42F 1_555 1_555
H26F C43F 1_555 1_555
C44F C39F 1_555 1_555
H27F C44F 1_555 1_555
C45F C33F 1_555 1_555
C46F C45F 1_555 1_555
H28F C46F 1_555 1_555
C47F C46F 1_555 1_555
H29F C47F 1_555 1_555
C48F C47F 1_555 1_555
H30F C48F 1_555 1_555
C49F C48F 1_555 1_555
H31F C49F 1_555 1_555
C50F C45F 1_555 1_555
H32F C50F 1_555 1_555
N5F C34F 1_555 1_555
N6F C29F 1_555 1_555
H33F N6F 1_555 1_555
C4 N1 1_555 1_555
C9 N2 1_555 1_555
C15 C16 1_555 1_555
C21 C22 1_555 1_555
Co1 N2 1_555 1_555
Co1 N3 1_555 1_555
C32 N6 1_555 1_555
C37 N5 1_555 1_555
C43 C44 1_555 1_555
C49 C50 1_555 1_555
C1A N1A 1_555 1_555
C4A N1A 1_555 1_555
C6A N2A 1_555 1_555
C9A C10A 1_555 1_555
C9A N2A 1_555 1_555
C15A C16A 1_555 1_555
C21A C22A 1_555 1_555
C23A C24A 1_555 1_555
C27A C28A 1_555 1_555
C32F N6F 1_555 1_555
C37F C38F 1_555 1_555
C37F N5F 1_555 1_555
C43F C44F 1_555 1_555
C49F C50F 1_555 1_555

#END
