
#######################################################################
#
#                 Cambridge Crystallographic Data Centre
#                                CCDC 
#
#######################################################################
#
# If this CIF has been generated from an entry in the Cambridge 
# Structural Database, then it will include bibliographic, chemical, 
# crystal, experimental, refinement or atomic coordinate data resulting 
# from the CCDC's data processing and validation procedures.
#
#######################################################################

data_XIDWAK
_symmetry_cell_setting           tetragonal
_symmetry_space_group_name_H-M   'I 41/a'
_symmetry_Int_Tables_number      88
_space_group_name_Hall           '-I 4ad'
loop_
_symmetry_equiv_pos_site_id
_symmetry_equiv_pos_as_xyz
1 x,y,z
2 1/2-x,-y,1/2+z
3 3/4-y,1/4+x,1/4+z
4 3/4+y,3/4-x,3/4+z
5 1/2+x,1/2+y,1/2+z
6 -x,1/2-y,z
7 1/4-y,3/4+x,3/4+z
8 1/4+y,1/4-x,1/4+z
9 -x,-y,-z
10 1/2+x,y,1/2-z
11 1/4+y,3/4-x,3/4-z
12 1/4-y,1/4+x,1/4-z
13 1/2-x,1/2-y,1/2-z
14 x,1/2+y,-z
15 3/4+y,1/4-x,1/4-z
16 3/4-y,3/4+x,3/4-z
_cell_length_a                   17.9776(2)
_cell_length_b                   17.9776(2)
_cell_length_c                   22.3567(3)
_cell_angle_alpha                90
_cell_angle_beta                 90
_cell_angle_gamma                90
_cell_volume                     7225.55
loop_
_atom_site_label
_atom_site_type_symbol
_atom_site_fract_x
_atom_site_fract_y
_atom_site_fract_z
C1 C 0.8891(2) 0.1260(2) 0.13283(15)
C2 C 0.8833(2) 0.0471(2) 0.12434(15)
H1 H 0.8396 0.0179 0.1292
C3 C 0.9508(2) 0.0219(2) 0.10820(17)
H2 H 0.9633 -0.0279 0.0984
C4 C 1.0003(2) 0.08443(19) 0.10856(14)
C5 C 0.8297(2) 0.1729(2) 0.14615(14)
C6 C 0.7578(2) 0.1366(2) 0.16030(16)
C7 C 0.7019(2) 0.1305(2) 0.11775(17)
H3 H 0.7059 0.1573 0.0812
C8 C 0.6406(2) 0.0864(3) 0.12773(17)
H4 H 0.6032 0.0814 0.098
C9 C 0.6343(2) 0.0493(2) 0.18148(18)
C10 C 0.6863(2) 0.0602(3) 0.22669(18)
H5 H 0.6793 0.038 0.2649
C11 C 0.7480(2) 0.1034(3) 0.21551(18)
H6 H 0.7841 0.1105 0.246
C12 C 1.0637(2) 0.2513(2) 0.00566(15)
H7 H 1.1093 0.2542 0.0269
C13 C 1.0656(2) 0.2486(2) -0.05604(15)
H8 H 1.112 0.2457 -0.0763
C14 C 1.00000 0.25000 -0.0885(2)
C15 C 1.00000 0.25000 -0.1549(2)
C16 C 0.9446(2) 0.2861(3) -0.18692(16)
H9 H 0.9057 0.3114 -0.1667
C17 C 0.9469(2) 0.2847(2) -0.24838(16)
H10 H 0.9088 0.3096 -0.2698
Co1 Co 1.00000 0.25000 0.125
Co2 Co 1.00000 0.25000 -0.375
N1 N 0.96121(17) 0.14807(17) 0.12221(11)
N2 N 1.00000 0.25000 0.03663(18)
N3 N 1.00000 0.25000 -0.2794(2)
S1 S 0.56162(5) -0.01560(5) 0.19472(5)
O1 O 0.59978(17) -0.08425(16) 0.21112(13)
O2 O 0.51561(18) 0.01196(17) 0.24314(16)
O3 O 0.5218(2) -0.0211(2) 0.13816(17)
O4 O 0.94171(16) 0.35080(15) -0.37623(10)
H11 H 0.966(2) 0.3890(14) -0.3752(17)
H12 H 0.910(2) 0.351(2) -0.4023(17)
C1K C 1.1240(2) 0.1391(2) 0.11717(15)
C2K C 1.2029(2) 0.1333(2) 0.12566(15)
H1K H 1.2321 0.0896 0.1208
C3K C 1.2281(2) 0.2008(2) 0.14180(17)
H2K H 1.2779 0.2133 0.1516
C4K C 1.16557(19) 0.2503(2) 0.14144(14)
C5K C 1.0771(2) 0.0797(2) 0.10385(14)
C6K C 1.1134(2) 0.0078(2) 0.08970(16)
C7K C 1.1195(2) -0.0481(2) 0.13225(17)
H3K H 1.0927 -0.0441 0.1688
C8K C 1.1636(3) -0.1094(2) 0.12227(17)
H4K H 1.1686 -0.1468 0.152
C9K C 1.2007(2) -0.1157(2) 0.06852(18)
C10K C 1.1898(3) -0.0637(2) 0.02331(18)
H5K H 1.212 -0.0707 -0.0149
C11K C 1.1466(3) -0.0020(2) 0.03449(18)
H6K H 1.1395 0.0341 0.004
N1K N 1.10193(17) 0.21121(17) 0.12779(11)
S1K S 1.26560(5) -0.18838(5) 0.05528(5)
O1K O 1.33425(16) -0.15022(17) 0.03888(13)
O2K O 1.23804(17) -0.23439(18) 0.00686(16)
O3K O 1.2711(2) -0.2282(2) 0.11184(17)
C1N C 0.8760(2) 0.3609(2) 0.11717(15)
C2N C 0.7971(2) 0.3667(2) 0.12566(15)
H1N H 0.7679 0.4104 0.1208
C3N C 0.7719(2) 0.2992(2) 0.14180(17)
H2N H 0.7221 0.2867 0.1516
C4N C 0.83443(19) 0.2497(2) 0.14144(14)
C5N C 0.9229(2) 0.4203(2) 0.10385(14)
C6N C 0.8866(2) 0.4922(2) 0.08970(16)
C7N C 0.8805(2) 0.5481(2) 0.13225(17)
H3N H 0.9073 0.5441 0.1688
C8N C 0.8364(3) 0.6094(2) 0.12227(17)
H4N H 0.8314 0.6468 0.152
C9N C 0.7993(2) 0.6157(2) 0.06852(18)
C10N C 0.8102(3) 0.5637(2) 0.02331(18)
H5N H 0.788 0.5707 -0.0149
C11N C 0.8534(3) 0.5020(2) 0.03449(18)
H6N H 0.8605 0.4659 0.004
N1N N 0.89807(17) 0.28879(17) 0.12779(11)
S1N S 0.73440(5) 0.68838(5) 0.05528(5)
O1N O 0.66575(16) 0.65022(17) 0.03888(13)
O2N O 0.76196(17) 0.73439(18) 0.00686(16)
O3N O 0.7289(2) 0.7282(2) 0.11184(17)
C1E C 1.1109(2) 0.3740(2) 0.13283(15)
C2E C 1.1167(2) 0.4529(2) 0.12434(15)
H1E H 1.1604 0.4821 0.1292
C3E C 1.0492(2) 0.4781(2) 0.10820(17)
H2E H 1.0367 0.5279 0.0984
C4E C 0.9997(2) 0.41557(19) 0.10856(14)
C5E C 1.1703(2) 0.3271(2) 0.14615(14)
C6E C 1.2422(2) 0.3634(2) 0.16030(16)
C7E C 1.2981(2) 0.3695(2) 0.11775(17)
H3E H 1.2941 0.3427 0.0812
C8E C 1.3594(2) 0.4136(3) 0.12773(17)
H4E H 1.3968 0.4186 0.098
C9E C 1.3657(2) 0.4507(2) 0.18148(18)
C10E C 1.3137(2) 0.4398(3) 0.22669(18)
H5E H 1.3207 0.462 0.2649
C11E C 1.2520(2) 0.3966(3) 0.21551(18)
H6E H 1.2159 0.3895 0.246
N1E N 1.03879(17) 0.35193(17) 0.12221(11)
S1E S 1.43838(5) 0.51560(5) 0.19472(5)
O1E O 1.40022(17) 0.58425(16) 0.21112(13)
O2E O 1.48439(18) 0.48804(17) 0.24314(16)
O3E O 1.4782(2) 0.5211(2) 0.13816(17)
C12E C 0.9363(2) 0.2487(2) 0.00566(15)
H7E H 0.8907 0.2458 0.0269
C13E C 0.9344(2) 0.2514(2) -0.05604(15)
H8E H 0.888 0.2543 -0.0763
C16E C 1.0554(2) 0.2139(3) -0.18692(16)
H9E H 1.0943 0.1886 -0.1667
C17E C 1.0531(2) 0.2153(2) -0.24838(16)
H10E H 1.0912 0.1904 -0.2698
O4E O 1.05829(16) 0.14920(15) -0.37623(10)
H11E H 1.034(2) 0.1110(14) -0.3752(17)
H12E H 1.090(2) 0.149(2) -0.4023(17)
C12K C 0.9987(2) 0.3137(2) -0.75566(15)
H7K H 0.9958 0.3593 -0.7769
C13K C 1.0014(2) 0.3156(2) -0.69396(15)
H8K H 1.0043 0.362 -0.6737
C14K C 1.00000 0.25000 -0.6615(2)
C15K C 1.00000 0.25000 -0.5951(2)
C16K C 0.9639(3) 0.1946(2) -0.56308(16)
H9K H 0.9386 0.1557 -0.5833
C17K C 0.9653(2) 0.1969(2) -0.50162(16)
H10K H 0.9404 0.1588 -0.4802
N2K N 1.00000 0.25000 -0.78663(18)
N3K N 1.00000 0.25000 -0.4706(2)
O4K O 0.89920(15) 0.19171(16) -0.37377(10)
H11K H 0.8610(14) 0.216(2) -0.3748(17)
H12K H 0.899(2) 0.160(2) -0.3477(17)
C12N C 1.0013(2) 0.1863(2) -0.75566(15)
H7N H 1.0042 0.1407 -0.7769
C13N C 0.9986(2) 0.1844(2) -0.69396(15)
H8N H 0.9957 0.138 -0.6737
C16N C 1.0361(3) 0.3054(2) -0.56308(16)
H9N H 1.0614 0.3443 -0.5833
C17N C 1.0347(2) 0.3031(2) -0.50162(16)
H10N H 1.0596 0.3412 -0.4802
O4N O 1.10080(15) 0.30829(16) -0.37377(10)
H11N H 1.1390(14) 0.284(2) -0.3748(17)
H12N H 1.101(2) 0.340(2) -0.3477(17)
Co1_2 Co 1.00000 0.25000 -0.875
N2K_2 N 1.00000 0.25000 0.21337(18)
O5 O 0.3566(5) 1.0000(7) 0.1959(6)
O6 O 0.3637(5) 1.0077(5) 0.0629(5)
O7 O 0.50000 1.00000 0.00000
O8? O 0.3636(5) 0.9559(6) 0.2428(5)
O9? O 0.3706(5) 1.0411(6) 0.1358(6)
O10? O 0.3540(5) 1.0119(5) 0.0127(5)
loop_
_geom_bond_atom_site_label_1
_geom_bond_atom_site_label_2
_geom_bond_site_symmetry_1
_geom_bond_site_symmetry_2
C1 C2 1_555 1_555
C2 H1 1_555 1_555
C3 C2 1_555 1_555
H2 C3 1_555 1_555
C4 C3 1_555 1_555
C5 C1 1_555 1_555
C6 C5 1_555 1_555
C7 C6 1_555 1_555
H3 C7 1_555 1_555
C8 C7 1_555 1_555
H4 C8 1_555 1_555
C9 C8 1_555 1_555
C10 C9 1_555 1_555
H5 C10 1_555 1_555
C11 C6 1_555 1_555
H6 C11 1_555 1_555
C12 H7 1_555 1_555
C13 C12 1_555 1_555
H8 C13 1_555 1_555
C14 C13 1_555 1_555
C15 C14 1_555 1_555
C16 C15 1_555 1_555
H9 C16 1_555 1_555
C17 C16 1_555 1_555
H10 C17 1_555 1_555
Co1 N1 1_555 1_555
Co2 N3 1_555 1_555
N1 C1 1_555 1_555
N2 C12 1_555 1_555
N3 C17 1_555 1_555
S1 C9 1_555 1_555
O1 S1 1_555 1_555
O2 S1 1_555 1_555
O3 S1 1_555 1_555
O4 Co2 1_555 1_555
H11 O4 1_555 1_555
H12 O4 1_555 1_555
C1K C2K 1_555 1_555
C2K H1K 1_555 1_555
C3K C2K 1_555 1_555
H2K C3K 1_555 1_555
C4K C3K 1_555 1_555
C5K C4 1_555 1_555
C6K C5K 1_555 1_555
C7K C6K 1_555 1_555
H3K C7K 1_555 1_555
C8K C7K 1_555 1_555
H4K C8K 1_555 1_555
C9K C8K 1_555 1_555
C10K C9K 1_555 1_555
H5K C10K 1_555 1_555
C11K C6K 1_555 1_555
H6K C11K 1_555 1_555
N1K Co1 1_555 1_555
S1K C9K 1_555 1_555
O1K S1K 1_555 1_555
O2K S1K 1_555 1_555
O3K S1K 1_555 1_555
C1N C2N 1_555 1_555
C2N H1N 1_555 1_555
C3N C2N 1_555 1_555
H2N C3N 1_555 1_555
C4N C5 1_555 1_555
C5N C1N 1_555 1_555
C6N C5N 1_555 1_555
C7N C6N 1_555 1_555
H3N C7N 1_555 1_555
C8N C7N 1_555 1_555
H4N C8N 1_555 1_555
C9N C8N 1_555 1_555
C10N C9N 1_555 1_555
H5N C10N 1_555 1_555
C11N C6N 1_555 1_555
H6N C11N 1_555 1_555
N1N Co1 1_555 1_555
S1N C9N 1_555 1_555
O1N S1N 1_555 1_555
O2N S1N 1_555 1_555
O3N S1N 1_555 1_555
C1E C2E 1_555 1_555
C2E H1E 1_555 1_555
C3E C2E 1_555 1_555
H2E C3E 1_555 1_555
C4E C5N 1_555 1_555
C5E C4K 1_555 1_555
C6E C5E 1_555 1_555
C7E C6E 1_555 1_555
H3E C7E 1_555 1_555
C8E C7E 1_555 1_555
H4E C8E 1_555 1_555
C9E C8E 1_555 1_555
C10E C9E 1_555 1_555
H5E C10E 1_555 1_555
C11E C6E 1_555 1_555
H6E C11E 1_555 1_555
N1E Co1 1_555 1_555
S1E C9E 1_555 1_555
O1E S1E 1_555 1_555
O2E S1E 1_555 1_555
O3E S1E 1_555 1_555
C12E N2 1_555 1_555
H7E C12E 1_555 1_555
C13E C14 1_555 1_555
H8E C13E 1_555 1_555
C16E C15 1_555 1_555
H9E C16E 1_555 1_555
C17E N3 1_555 1_555
H10E C17E 1_555 1_555
O4E Co2 1_555 1_555
H11E O4E 1_555 1_555
H12E O4E 1_555 1_555
C12K H7K 1_555 1_555
C13K C12K 1_555 1_555
H8K C13K 1_555 1_555
C14K C13K 1_555 1_555
C15K C14K 1_555 1_555
C16K C15K 1_555 1_555
H9K C16K 1_555 1_555
C17K C16K 1_555 1_555
H10K C17K 1_555 1_555
N2K C12K 1_555 1_555
N3K Co2 1_555 1_555
O4K Co2 1_555 1_555
H11K O4K 1_555 1_555
H12K O4K 1_555 1_555
C12N N2K 1_555 1_555
H7N C12N 1_555 1_555
C13N C14K 1_555 1_555
H8N C13N 1_555 1_555
C16N C15K 1_555 1_555
H9N C16N 1_555 1_555
C17N N3K 1_555 1_555
H10N C17N 1_555 1_555
O4N Co2 1_555 1_555
H11N O4N 1_555 1_555
H12N O4N 1_555 1_555
Co1_2 N2K 1_555 1_555
N2K_2 Co1 1_555 1_555
C4 N1 1_555 1_555
C10 C11 1_555 1_555
Co1 N2 1_555 1_555
C1K C5K 1_555 1_555
C1K N1K 1_555 1_555
C4K N1K 1_555 1_555
C10K C11K 1_555 1_555
C1N N1N 1_555 1_555
C3N C4N 1_555 1_555
C4N N1N 1_555 1_555
C10N C11N 1_555 1_555
C1E C5E 1_555 1_555
C1E N1E 1_555 1_555
C3E C4E 1_555 1_555
C4E N1E 1_555 1_555
C10E C11E 1_555 1_555
C12E C13E 1_555 1_555
C16E C17E 1_555 1_555
C17K N3K 1_555 1_555
C12N C13N 1_555 1_555
C16N C17N 1_555 1_555

#END
