
#######################################################################
#
#                 Cambridge Crystallographic Data Centre
#                                CCDC 
#
#######################################################################
#
# If this CIF has been generated from an entry in the Cambridge 
# Structural Database, then it will include bibliographic, chemical, 
# crystal, experimental, refinement or atomic coordinate data resulting 
# from the CCDC's data processing and validation procedures.
#
#######################################################################

data_XIDYAM
_symmetry_cell_setting           orthorhombic
_symmetry_space_group_name_H-M   'P b c a'
_symmetry_Int_Tables_number      61
_space_group_name_Hall           '-P 2ac 2ab'
loop_
_symmetry_equiv_pos_site_id
_symmetry_equiv_pos_as_xyz
1 x,y,z
2 1/2-x,-y,1/2+z
3 1/2+x,1/2-y,-z
4 -x,1/2+y,1/2-z
5 -x,-y,-z
6 1/2+x,y,1/2-z
7 1/2-x,1/2+y,z
8 x,1/2-y,1/2+z
_cell_length_a                   13.796(3)
_cell_length_b                   10.809(2)
_cell_length_c                   28.612(6)
_cell_angle_alpha                90
_cell_angle_beta                 90
_cell_angle_gamma                90
_cell_volume                     4266.65
loop_
_atom_site_label
_atom_site_type_symbol
_atom_site_fract_x
_atom_site_fract_y
_atom_site_fract_z
Zn1 Zn 0.63758(3) 0.21674(5) 0.408040(15)
O1 O 0.4957(2) 0.3185(3) 0.39030(12)
O2 O 0.54159(19) 0.1445(3) 0.35964(10)
O3 O 0.1338(3) 0.3433(4) 0.21937(13)
H1 H 0.1615 0.3325 0.1935
O4 O -0.2028(3) 0.1273(4) 0.39745(16)
O5 O -0.2625(2) 0.2867(3) 0.36487(10)
N1 N 0.6327(2) 0.3123(3) 0.47173(12)
N2 N 0.6298(2) 0.0685(3) 0.45496(11)
C1 C 0.4821(3) 0.2323(4) 0.36248(15)
C2 C 0.3933(3) 0.2310(3) 0.33292(13)
C3 C 0.3253(3) 0.3250(4) 0.33554(13)
H2 H 0.3346 0.3914 0.3568
C4 C 0.2453(3) 0.3228(3) 0.30782(13)
H3 H 0.1995 0.3882 0.3101
C5 C 0.2287(2) 0.2276(3) 0.27628(12)
C6 C 0.2963(3) 0.1341(3) 0.27340(12)
H4 H 0.2872 0.0682 0.2519
C7 C 0.3774(2) 0.1361(3) 0.30186(14)
H5 H 0.4231 0.0706 0.2999
C8 C 0.1378(3) 0.2306(4) 0.24612(14)
C9 C 0.0495(3) 0.2240(3) 0.27704(12)
C10 C 0.0291(3) 0.1182(3) 0.30262(12)
H6 H 0.0704 0.0482 0.3000
C11 C -0.0509(3) 0.1131(3) 0.33192(12)
H7 H -0.0638 0.0397 0.3491
C12 C -0.1121(3) 0.2137(3) 0.33641(13)
C13 C -0.0930(3) 0.3188(3) 0.31080(13)
H8 H -0.1351 0.3881 0.3131
C14 C -0.0125(3) 0.3245(3) 0.28154(12)
H9 H 0.0001 0.3981 0.2644
C15 C -0.1972(3) 0.2071(4) 0.36837(15)
C16 C 0.6299(3) 0.4323(4) 0.47907(17)
H10 H 0.6358 0.4866 0.4531
C17 C 0.6185(3) 0.4826(5) 0.52342(18)
H11 H 0.6170 0.5699 0.5274
C18 C 0.6095(3) 0.4069(4) 0.56116(17)
H12 H 0.6014 0.4409 0.5915
C19 C 0.6124(3) 0.2786(4) 0.55488(15)
C20 C 0.6240(2) 0.2357(4) 0.50886(14)
C21 C 0.6245(2) 0.1045(4) 0.50019(12)
C22 C 0.6043(4) 0.1914(5) 0.59186(13)
H13 H 0.5960 0.2203 0.6230
C23 C 0.6080(3) 0.0679(4) 0.58373(14)
H14 H 0.6039 0.0116 0.6091
C24 C 0.6181(3) 0.0221(4) 0.53719(14)
C25 C 0.6195(3) -0.1044(4) 0.52607(17)
H15 H 0.6154 -0.1649 0.5501
C26 C 0.6266(3) -0.1393(4) 0.48042(19)
H16 H 0.6290 -0.2246 0.4724
C27 C 0.6306(2) -0.0494(4) 0.44549(14)
H17 H 0.6339 -0.0750 0.4138
O6 O 0.1439(2) 0.1127(4) 0.21936(14)
H18 H 0.1140 0.1203 0.1939
Zn1_2 Zn -0.36242(3) 0.21674(5) 0.408040(15)
O4_2 O 0.7972(3) 0.1273(4) 0.39745(16)
O5_2 O 0.7375(2) 0.2867(3) 0.36487(10)
loop_
_geom_bond_atom_site_label_1
_geom_bond_atom_site_label_2
_geom_bond_site_symmetry_1
_geom_bond_site_symmetry_2
Zn1 O1 1_555 1_555
O1 C1 1_555 1_555
O2 Zn1 1_555 1_555
O3 H1 1_555 1_555
O4 C15 1_555 1_555
O5 C15 1_555 1_555
N1 Zn1 1_555 1_555
N2 Zn1 1_555 1_555
C1 O2 1_555 1_555
C2 C1 1_555 1_555
C3 C2 1_555 1_555
H2 C3 1_555 1_555
C4 C3 1_555 1_555
H3 C4 1_555 1_555
C5 C4 1_555 1_555
C6 C5 1_555 1_555
H4 C6 1_555 1_555
C7 C2 1_555 1_555
H5 C7 1_555 1_555
C8 O3 1_555 1_555
C9 C8 1_555 1_555
C10 C9 1_555 1_555
H6 C10 1_555 1_555
C11 C10 1_555 1_555
H7 C11 1_555 1_555
C12 C11 1_555 1_555
C13 C12 1_555 1_555
H8 C13 1_555 1_555
C14 C9 1_555 1_555
H9 C14 1_555 1_555
C15 C12 1_555 1_555
C16 N1 1_555 1_555
H10 C16 1_555 1_555
C17 C16 1_555 1_555
H11 C17 1_555 1_555
C18 C17 1_555 1_555
H12 C18 1_555 1_555
C19 C18 1_555 1_555
C20 N1 1_555 1_555
C21 N2 1_555 1_555
C22 C19 1_555 1_555
H13 C22 1_555 1_555
C23 C22 1_555 1_555
H14 C23 1_555 1_555
C24 C21 1_555 1_555
C25 C24 1_555 1_555
H15 C25 1_555 1_555
C26 C25 1_555 1_555
H16 C26 1_555 1_555
C27 N2 1_555 1_555
H17 C27 1_555 1_555
O6 C8 1_555 1_555
H18 O6 1_555 1_555
Zn1_2 O4 1_555 1_555
O4_2 Zn1 1_555 1_555
O5_2 Zn1 1_555 1_555
O5 Zn1_2 1_555 1_555
C5 C8 1_555 1_555
C6 C7 1_555 1_555
C13 C14 1_555 1_555
C19 C20 1_555 1_555
C20 C21 1_555 1_555
C23 C24 1_555 1_555
C26 C27 1_555 1_555

#END
