
#######################################################################
#
#                 Cambridge Crystallographic Data Centre
#                                CCDC 
#
#######################################################################
#
# If this CIF has been generated from an entry in the Cambridge 
# Structural Database, then it will include bibliographic, chemical, 
# crystal, experimental, refinement or atomic coordinate data resulting 
# from the CCDC's data processing and validation procedures.
#
#######################################################################

data_XIDYUG
_symmetry_cell_setting           triclinic
_symmetry_space_group_name_H-M   'P -1'
_symmetry_Int_Tables_number      2
_space_group_name_Hall           '-P 1'
loop_
_symmetry_equiv_pos_site_id
_symmetry_equiv_pos_as_xyz
1 x,y,z
2 -x,-y,-z
_cell_length_a                   10.311(6)
_cell_length_b                   11.229(6)
_cell_length_c                   14.021(8)
_cell_angle_alpha                107.475(7)
_cell_angle_beta                 96.101(7)
_cell_angle_gamma                96.513(7)
_cell_volume                     1521.5
loop_
_atom_site_label
_atom_site_type_symbol
_atom_site_fract_x
_atom_site_fract_y
_atom_site_fract_z
Cd1 Cd 0.801516(16) 0.630382(16) 0.179213(13)
O1 O 0.67349(17) 0.77512(19) 0.25373(16)
O2 O -0.01627(18) 0.7855(2) 0.26203(17)
O3 O 0.5346(2) 0.5992(2) 0.17782(18)
O4 O 0.04675(18) 0.61432(19) 0.16593(15)
N1 N 0.7598(2) 0.42407(19) 0.07724(16)
N2 N 0.6736(2) 0.2237(2) 0.03024(18)
N3 N 0.7875(2) 0.7051(2) 0.04211(16)
N4 N 0.7806(2) 0.7216(2) -0.11071(16)
N5 N 0.8017(2) 0.5532(2) -0.52741(16)
N6 N 0.8143(2) 0.5586(2) -0.68193(16)
C1 C 0.5581(3) 0.7129(3) 0.22762(19)
C2 C 0.4460(2) 0.7836(2) 0.26063(19)
C3 C 0.4712(2) 0.9071(2) 0.32545(19)
H1 H 0.5583 0.9457 0.3488
C4 C 0.3702(3) 0.9745(2) 0.3564(2)
C5 C 0.2412(2) 0.9134(3) 0.3222(2)
H2 H 0.1719 0.9563 0.3428
C6 C 0.2132(2) 0.7895(2) 0.25788(19)
C7 C 0.3163(2) 0.7257(2) 0.22659(19)
H3 H 0.2983 0.6434 0.1824
C8 C 0.0720(2) 0.7243(3) 0.2254(2)
C9 C 0.3990(3) 1.1086(3) 0.4255(3)
H4 H 0.4918 1.1305 0.4503
H5 H 0.3505 1.1171 0.4813
H6 H 0.3731 1.1640 0.3889
C10 C 0.7675(4) 0.8241(3) 0.0460(2)
H7 H 0.7589 0.8879 0.1041
C11 C 0.7623(4) 0.8353(3) -0.0474(2)
H8 H 0.7487 0.9068 -0.0652
C12 C 0.7950(3) 0.6451(2) -0.05350(19)
H9 H 0.8085 0.5615 -0.0780
C13 C 0.7820(3) 0.6847(3) -0.21825(19)
C14 C 0.7015(3) 0.5755(3) -0.2775(2)
H10 H 0.6442 0.5329 -0.2474
C15 C 0.7032(3) 0.5268(3) -0.3813(2)
C16 C 0.7890(3) 0.5968(3) -0.42179(19)
C17 C 0.8676(3) 0.7086(3) -0.3633(2)
H11 H 0.9218 0.7533 -0.3940
C18 C 0.9598(4) 0.8744(3) -0.1979(2)
H12 H 0.9119 0.9447 -0.1836
H13 H 1.0289 0.8893 -0.2356
H14 H 0.9975 0.8646 -0.1356
C19 C 0.6164(4) 0.4060(3) -0.4439(3)
H15 H 0.6658 0.3370 -0.4519
H16 H 0.5859 0.4120 -0.5092
H17 H 0.5421 0.3917 -0.4108
C20 C 0.8564(3) 0.4508(3) -0.6718(2)
H18 H 0.8859 0.3901 -0.7225
C21 C 0.8487(3) 0.4458(3) -0.5775(2)
H19 H 0.8709 0.3823 -0.5517
C22 C 0.7832(3) 0.6183(3) -0.5932(2)
H20 H 0.7525 0.6956 -0.5778
C23 C 0.6538(3) 0.3440(2) 0.0707(2)
H21 H 0.5750 0.3672 0.0913
C24 C 0.8516(3) 0.3518(3) 0.0388(2)
H22 H 0.9370 0.3832 0.0336
C25 C 0.8006(3) 0.2290(3) 0.0096(2)
H23 H 0.8431 0.1610 -0.0189
C26 C 0.5831(3) 0.1104(2) 0.0169(2)
C27 C 0.5533(3) 0.0768(3) 0.1006(2)
C28 C 0.6097(5) 0.1548(4) 0.2080(3)
H24 H 0.6991 0.1918 0.2103
H25 H 0.6081 0.1018 0.2504
H26 H 0.5578 0.2206 0.2317
C29 C 0.5322(3) 0.0362(3) -0.0809(2)
H27 H 0.5553 0.0621 -0.1347
C30 C 0.8671(3) 0.7556(3) -0.2591(2)
N1A N 0.2402(2) -0.42407(19) -0.07724(16)
N2A N 0.3264(2) -0.2237(2) -0.03024(18)
C23A C 0.3462(3) -0.3440(2) -0.0707(2)
H21A H 0.4250 -0.3672 -0.0913
C24A C 0.1484(3) -0.3518(3) -0.0388(2)
H22A H 0.0630 -0.3832 -0.0336
C25A C 0.1994(3) -0.2290(3) -0.0096(2)
H23A H 0.1569 -0.1610 0.0189
C26A C 0.4169(3) -0.1104(2) -0.0169(2)
C27A C 0.4467(3) -0.0768(3) -0.1006(2)
C28A C 0.3903(5) -0.1548(4) -0.2080(3)
H24A H 0.3009 -0.1918 -0.2103
H25A H 0.3919 -0.1018 -0.2504
H26A H 0.4422 -0.2206 -0.2317
C29A C 0.4678(3) -0.0362(3) 0.0809(2)
H27A H 0.4447 -0.0621 0.1347
Cd1A Cd 0.198484(16) -0.630382(16) -0.179213(13)
O1A O 0.32651(17) -0.77512(19) -0.25373(16)
O2A O 1.01627(18) -0.7855(2) -0.26203(17)
O3A O 0.4654(2) -0.5992(2) -0.17782(18)
O4A O 0.95325(18) -0.61432(19) -0.16593(15)
N3A N 0.2125(2) -0.7051(2) -0.04211(16)
N4A N 0.2194(2) -0.7216(2) 0.11071(16)
N5A N 0.1983(2) -0.5532(2) 0.52741(16)
N6A N 0.1857(2) -0.5586(2) 0.68193(16)
C1A C 0.4419(3) -0.7129(3) -0.22762(19)
C2A C 0.5540(2) -0.7836(2) -0.26063(19)
C3A C 0.5288(2) -0.9071(2) -0.32545(19)
H1A H 0.4417 -0.9457 -0.3488
C4A C 0.6298(3) -0.9745(2) -0.3564(2)
C5A C 0.7588(2) -0.9134(3) -0.3222(2)
H2A H 0.8281 -0.9563 -0.3428
C6A C 0.7868(2) -0.7895(2) -0.25788(19)
C7A C 0.6837(2) -0.7257(2) -0.22659(19)
H3A H 0.7017 -0.6434 -0.1824
C8A C 0.9280(2) -0.7243(3) -0.2254(2)
C9A C 0.6010(3) -1.1086(3) -0.4255(3)
H4A H 0.5082 -1.1305 -0.4503
H5A H 0.6495 -1.1171 -0.4813
H6A H 0.6269 -1.1640 -0.3889
C10A C 0.2325(4) -0.8241(3) -0.0460(2)
H7A H 0.2411 -0.8879 -0.1041
C11A C 0.2377(4) -0.8353(3) 0.0474(2)
H8A H 0.2513 -0.9068 0.0652
C12A C 0.2050(3) -0.6451(2) 0.05350(19)
H9A H 0.1915 -0.5615 0.0780
C13A C 0.2180(3) -0.6847(3) 0.21825(19)
C14A C 0.2985(3) -0.5755(3) 0.2775(2)
H10A H 0.3558 -0.5329 0.2474
C15A C 0.2968(3) -0.5268(3) 0.3813(2)
C16A C 0.2110(3) -0.5968(3) 0.42179(19)
C17A C 0.1324(3) -0.7086(3) 0.3633(2)
H11A H 0.0782 -0.7533 0.3940
C18A C 0.0402(4) -0.8744(3) 0.1979(2)
H12A H 0.0881 -0.9447 0.1836
H13A H -0.0289 -0.8893 0.2356
H14A H 0.0025 -0.8646 0.1356
C19A C 0.3836(4) -0.4060(3) 0.4439(3)
H15A H 0.3342 -0.3370 0.4519
H16A H 0.4141 -0.4120 0.5092
H17A H 0.4579 -0.3917 0.4108
C20A C 0.1436(3) -0.4508(3) 0.6718(2)
H18A H 0.1141 -0.3901 0.7225
C21A C 0.1513(3) -0.4458(3) 0.5775(2)
H19A H 0.1291 -0.3823 0.5517
C22A C 0.2168(3) -0.6183(3) 0.5932(2)
H20A H 0.2475 -0.6956 0.5778
C30A C 0.1329(3) -0.7556(3) 0.2591(2)
Cd1_2 Cd -0.198484(16) 0.630382(16) 0.179213(13)
Cd1_3 Cd 0.801516(16) 0.630382(16) -0.820787(13)
Cd1A_2 Cd 0.198484(16) -0.630382(16) 0.820787(13)
Cd1A_3 Cd 1.198484(16) -0.630382(16) -0.179213(13)
O2_2 O 0.98373(18) 0.7855(2) 0.26203(17)
O2A_2 O 0.01627(18) -0.7855(2) -0.26203(17)
O4_2 O 1.04675(18) 0.61432(19) 0.16593(15)
O4A_2 O -0.04675(18) -0.61432(19) -0.16593(15)
N6_2 N 0.8143(2) 0.5586(2) 0.31807(16)
N6A_2 N 0.1857(2) -0.5586(2) -0.31807(16)
O5 O 0.1470(4) 0.0266(4) 0.6308(4)
H28 H 0.2051 0.0620 0.6824
H29 H 0.0706 0.0311 0.6477
O6 O 0.9164(4) 0.2114(3) -0.4905(3)
H30 H 0.9640 0.1563 -0.4843
H31 H 0.8389 0.1751 -0.5184
loop_
_geom_bond_atom_site_label_1
_geom_bond_atom_site_label_2
_geom_bond_site_symmetry_1
_geom_bond_site_symmetry_2
Cd1 O1 1_555 1_555
O1 C1 1_555 1_555
O2 C8 1_555 1_555
O3 Cd1 1_555 1_555
O4 C8 1_555 1_555
N1 Cd1 1_555 1_555
N2 C23 1_555 1_555
N3 Cd1 1_555 1_555
N4 C11 1_555 1_555
N5 C16 1_555 1_555
N6 C20 1_555 1_555
C1 O3 1_555 1_555
C2 C1 1_555 1_555
C3 C2 1_555 1_555
H1 C3 1_555 1_555
C4 C3 1_555 1_555
C5 C4 1_555 1_555
H2 C5 1_555 1_555
C6 C5 1_555 1_555
C7 C2 1_555 1_555
H3 C7 1_555 1_555
C8 C6 1_555 1_555
C9 C4 1_555 1_555
H4 C9 1_555 1_555
H5 C9 1_555 1_555
H6 C9 1_555 1_555
C10 N3 1_555 1_555
H7 C10 1_555 1_555
C11 C10 1_555 1_555
H8 C11 1_555 1_555
C12 N3 1_555 1_555
H9 C12 1_555 1_555
C13 N4 1_555 1_555
C14 C13 1_555 1_555
H10 C14 1_555 1_555
C15 C14 1_555 1_555
C16 C15 1_555 1_555
C17 C16 1_555 1_555
H11 C17 1_555 1_555
C18 H12 1_555 1_555
H13 C18 1_555 1_555
H14 C18 1_555 1_555
C19 C15 1_555 1_555
H15 C19 1_555 1_555
H16 C19 1_555 1_555
H17 C19 1_555 1_555
C20 H18 1_555 1_555
C21 N5 1_555 1_555
H19 C21 1_555 1_555
C22 N5 1_555 1_555
H20 C22 1_555 1_555
C23 N1 1_555 1_555
H21 C23 1_555 1_555
C24 N1 1_555 1_555
H22 C24 1_555 1_555
C25 N2 1_555 1_555
H23 C25 1_555 1_555
C26 N2 1_555 1_555
C27 C26 1_555 1_555
C28 C27 1_555 1_555
H24 C28 1_555 1_555
H25 C28 1_555 1_555
H26 C28 1_555 1_555
C29 C26 1_555 1_555
H27 C29 1_555 1_555
C30 C13 1_555 1_555
O5 H28 1_555 1_555
H29 O5 1_555 1_555
O6 H30 1_555 1_555
H31 O6 1_555 1_555
N1A C23A 1_555 1_555
N2A C23A 1_555 1_555
C23A H21A 1_555 1_555
C24A N1A 1_555 1_555
H22A C24A 1_555 1_555
C25A N2A 1_555 1_555
H23A C25A 1_555 1_555
C26A N2A 1_555 1_555
C27A C29 1_555 1_555
C28A C27A 1_555 1_555
H24A C28A 1_555 1_555
H25A C28A 1_555 1_555
H26A C28A 1_555 1_555
C29A C27 1_555 1_555
H27A C29A 1_555 1_555
Cd1A N1A 1_555 1_555
O1A Cd1A 1_555 1_555
O2A C8A 1_555 1_555
O3A Cd1A 1_555 1_555
O4A C8A 1_555 1_555
N3A Cd1A 1_555 1_555
N4A C11A 1_555 1_555
N5A C16A 1_555 1_555
N6A C20A 1_555 1_555
C1A O1A 1_555 1_555
C2A C1A 1_555 1_555
C3A C2A 1_555 1_555
H1A C3A 1_555 1_555
C4A C3A 1_555 1_555
C5A C4A 1_555 1_555
H2A C5A 1_555 1_555
C6A C5A 1_555 1_555
C7A C2A 1_555 1_555
H3A C7A 1_555 1_555
C8A C6A 1_555 1_555
C9A C4A 1_555 1_555
H4A C9A 1_555 1_555
H5A C9A 1_555 1_555
H6A C9A 1_555 1_555
C10A N3A 1_555 1_555
H7A C10A 1_555 1_555
C11A C10A 1_555 1_555
H8A C11A 1_555 1_555
C12A N3A 1_555 1_555
H9A C12A 1_555 1_555
C13A N4A 1_555 1_555
C14A C13A 1_555 1_555
H10A C14A 1_555 1_555
C15A C14A 1_555 1_555
C16A C15A 1_555 1_555
C17A C16A 1_555 1_555
H11A C17A 1_555 1_555
C18A H12A 1_555 1_555
H13A C18A 1_555 1_555
H14A C18A 1_555 1_555
C19A C15A 1_555 1_555
H15A C19A 1_555 1_555
H16A C19A 1_555 1_555
H17A C19A 1_555 1_555
C20A H18A 1_555 1_555
C21A N5A 1_555 1_555
H19A C21A 1_555 1_555
C22A N5A 1_555 1_555
H20A C22A 1_555 1_555
C30A C13A 1_555 1_555
Cd1_2 O2 1_555 1_555
Cd1_3 N6 1_555 1_555
Cd1A_2 N6A 1_555 1_555
Cd1A_3 O2A 1_555 1_555
O2_2 Cd1 1_555 1_555
O2A_2 Cd1A 1_555 1_555
O4_2 Cd1 1_555 1_555
O4A_2 Cd1A 1_555 1_555
N6_2 Cd1 1_555 1_555
N6A_2 Cd1A 1_555 1_555
O4 Cd1_2 1_555 1_555
N4 C12 1_555 1_555
N6 C22 1_555 1_555
C6 C7 1_555 1_555
C17 C30 1_555 1_555
C18 C30 1_555 1_555
C20 C21 1_555 1_555
C24 C25 1_555 1_555
C24A C25A 1_555 1_555
C26A C27A 1_555 1_555
C26A C29A 1_555 1_555
O3A C1A 1_555 1_555
O4A Cd1A_3 1_555 1_555
N4A C12A 1_555 1_555
N6A C22A 1_555 1_555
C6A C7A 1_555 1_555
C17A C30A 1_555 1_555
C18A C30A 1_555 1_555
C20A C21A 1_555 1_555

#END
