
#######################################################################
#
#                 Cambridge Crystallographic Data Centre
#                                CCDC 
#
#######################################################################
#
# If this CIF has been generated from an entry in the Cambridge 
# Structural Database, then it will include bibliographic, chemical, 
# crystal, experimental, refinement or atomic coordinate data resulting 
# from the CCDC's data processing and validation procedures.
#
#######################################################################

data_XIDZOB
_symmetry_cell_setting           triclinic
_symmetry_space_group_name_H-M   'P -1'
_symmetry_Int_Tables_number      2
_space_group_name_Hall           '-P 1'
loop_
_symmetry_equiv_pos_site_id
_symmetry_equiv_pos_as_xyz
1 x,y,z
2 -x,-y,-z
_cell_length_a                   10.1730(7)
_cell_length_b                   10.8870(7)
_cell_length_c                   11.8100(8)
_cell_angle_alpha                117.1480(7)
_cell_angle_beta                 104.8090(7)
_cell_angle_gamma                99.4410(6)
_cell_volume                     1063.67
loop_
_atom_site_label
_atom_site_type_symbol
_atom_site_fract_x
_atom_site_fract_y
_atom_site_fract_z
Cd1 Cd -0.110600(17) 0.234830(18) 0.185883(15)
O1 O 0.1340(2) 0.1985(3) 0.1549(2)
O2 O 0.10727(18) 0.3158(2) 0.3520(2)
O3 O 0.5020(3) 0.4741(4) 0.7790(2)
O4 O 0.7066(3) 0.4542(3) 0.7793(2)
O5 O -0.1645(2) -0.0195(2) 0.09211(19)
H1 H -0.1002 -0.0366 0.1418
H2 H -0.2479 -0.0563 0.0901
O6 O 0.79896(18) 0.2632(2) 0.35531(19)
O7 O 0.6237(2) 0.1811(2) 0.15866(19)
N1 N -0.1613(2) 0.1852(2) -0.0323(2)
N2 N -0.1300(2) 0.4636(2) 0.2262(2)
N3 N -0.1109(2) 0.6964(2) 0.3172(2)
N4 N -0.2806(2) 0.1332(2) -0.2404(2)
C1 C 0.6705(3) 0.2351(3) 0.2859(3)
C2 C 0.1811(2) 0.2648(3) 0.2822(3)
C3 C 0.3344(2) 0.2872(3) 0.3611(2)
C4 C 0.4275(2) 0.2497(2) 0.2920(2)
H3 H 0.3935 0.2091 0.1974
C5 C 0.5697(2) 0.2720(2) 0.3615(2)
C6 C 0.6208(2) 0.3331(3) 0.5028(2)
H4 H 0.7161 0.3499 0.5513
C7 C 0.5270(3) 0.3685(3) 0.5700(2)
C8 C 0.3847(3) 0.3468(3) 0.5019(3)
H5 H 0.3241 0.3718 0.5497
N5 N 0.5827(3) 0.4363(3) 0.7199(2)
C9 C -0.0677(3) 0.5938(3) 0.3379(2)
H6 H -0.0027 0.6135 0.4203
C10 C -0.2061(3) 0.6236(3) 0.1826(3)
H7 H -0.2535 0.6645 0.1378
C11 C -0.0562(3) 0.8511(3) 0.4109(2)
C12 C 0.0008(3) 0.9074(3) 0.5508(3)
H8 H 0.0011 0.8451 0.5845
C13 C -0.0574(3) 0.9433(3) 0.3601(3)
H9 H -0.0963 0.9046 0.2658
C14 C -0.2168(3) 0.4824(3) 0.1291(3)
H10 H -0.2745 0.4080 0.0395
C15 C -0.0728(3) 0.2571(3) -0.0688(3)
H11 H 0.0219 0.3176 -0.0140
C16 C -0.2849(3) 0.1131(3) -0.1363(2)
H12 H -0.3651 0.0556 -0.1383
C17 C -0.1447(3) 0.2262(3) -0.1967(3)
H13 H -0.1095 0.2607 -0.2457
C18 C -0.3930(3) 0.0655(3) -0.3720(2)
C19 C -0.3589(3) 0.0123(3) -0.4888(3)
H14 H -0.2639 0.0210 -0.4806
C20 C -0.5332(3) 0.0536(3) -0.3830(2)
H15 H -0.5552 0.0897 -0.3045
N1A N -0.8387(2) -0.1852(2) -0.9677(2)
N4A N -0.7194(2) -0.1332(2) -0.7596(2)
C15A C -0.9272(3) -0.2571(3) -0.9312(3)
H11A H -1.0219 -0.3176 -0.9860
C16A C -0.7151(3) -0.1131(3) -0.8637(2)
H12A H -0.6349 -0.0556 -0.8617
C17A C -0.8553(3) -0.2262(3) -0.8033(3)
H13A H -0.8905 -0.2607 -0.7543
C18A C -0.6070(3) -0.0655(3) -0.6280(2)
C19A C -0.6411(3) -0.0123(3) -0.5112(3)
H14A H -0.7361 -0.0210 -0.5194
C20A C -0.4668(3) -0.0536(3) -0.6170(2)
H15A H -0.4448 -0.0897 -0.6955
N2A N 0.1300(2) 1.5364(2) 0.7738(2)
N3A N 0.1109(2) 1.3036(2) 0.6828(2)
C9A C 0.0677(3) 1.4062(3) 0.6621(2)
H6A H 0.0027 1.3865 0.5797
C10A C 0.2061(3) 1.3764(3) 0.8174(3)
H7A H 0.2535 1.3355 0.8622
C11A C 0.0562(3) 1.1489(3) 0.5891(2)
C12A C -0.0008(3) 1.0926(3) 0.4492(3)
H8A H -0.0011 1.1549 0.4155
C13A C 0.0574(3) 1.0567(3) 0.6399(3)
H9A H 0.0963 1.0954 0.7342
C14A C 0.2168(3) 1.5176(3) 0.8709(3)
H10A H 0.2745 1.5920 0.9605
Cd1A Cd -0.889400(17) -0.234830(18) -1.185883(15)
O1A O -1.1340(2) -0.1985(3) -1.1549(2)
O2A O -1.10727(18) -0.3158(2) -1.3520(2)
O3A O -1.5020(3) -0.4741(4) -1.7790(2)
O4A O -1.7066(3) -0.4542(3) -1.7793(2)
O5A O -0.8355(2) 0.0195(2) -1.09211(19)
H1A H -0.8998 0.0366 -1.1418
H2A H -0.7521 0.0563 -1.0901
O6A O -1.79896(18) -0.2632(2) -1.35531(19)
O7A O -1.6237(2) -0.1811(2) -1.15866(19)
C1A C -1.6705(3) -0.2351(3) -1.2859(3)
C2A C -1.1811(2) -0.2648(3) -1.2822(3)
C3A C -1.3344(2) -0.2872(3) -1.3611(2)
C4A C -1.4275(2) -0.2497(2) -1.2920(2)
H3A H -1.3935 -0.2091 -1.1974
C5A C -1.5697(2) -0.2720(2) -1.3615(2)
C6A C -1.6208(2) -0.3331(3) -1.5028(2)
H4A H -1.7161 -0.3499 -1.5513
C7A C -1.5270(3) -0.3685(3) -1.5700(2)
C8A C -1.3847(3) -0.3468(3) -1.5019(3)
H5A H -1.3241 -0.3718 -1.5497
N5A N -1.5827(3) -0.4363(3) -1.7199(2)
Cd1_2 Cd 0.889400(17) 0.234830(18) 0.185883(15)
Cd1A_2 Cd -1.889400(17) -0.234830(18) -1.185883(15)
Cd1A_3 Cd 0.110600(17) 1.765170(18) 0.814117(15)
O6_2 O -0.20104(18) 0.2632(2) 0.35531(19)
O6A_2 O -0.79896(18) -0.2632(2) -1.35531(19)
O7_2 O -0.3763(2) 0.1811(2) 0.15866(19)
O7A_2 O -0.6237(2) -0.1811(2) -1.15866(19)
N2A_2 N -0.8700(2) -0.4636(2) -1.2262(2)
O8 O 0.5679(3) 0.7889(3) 0.0305(3)
H16 H 0.5278 0.7804 0.0826
H17 H 0.5408 0.7069 -0.0436
loop_
_geom_bond_atom_site_label_1
_geom_bond_atom_site_label_2
_geom_bond_site_symmetry_1
_geom_bond_site_symmetry_2
Cd1 O1 1_555 1_555
O1 C2 1_555 1_555
O2 Cd1 1_555 1_555
O3 N5 1_555 1_555
O4 N5 1_555 1_555
O5 Cd1 1_555 1_555
H1 O5 1_555 1_555
H2 O5 1_555 1_555
O6 C1 1_555 1_555
O7 C1 1_555 1_555
N1 Cd1 1_555 1_555
N2 Cd1 1_555 1_555
N3 C9 1_555 1_555
N4 C16 1_555 1_555
C1 C5 1_555 1_555
C2 O2 1_555 1_555
C3 C2 1_555 1_555
C4 C3 1_555 1_555
H3 C4 1_555 1_555
C5 C4 1_555 1_555
C6 C5 1_555 1_555
H4 C6 1_555 1_555
C7 C6 1_555 1_555
C8 C3 1_555 1_555
H5 C8 1_555 1_555
N5 C7 1_555 1_555
C9 N2 1_555 1_555
H6 C9 1_555 1_555
C10 N3 1_555 1_555
H7 C10 1_555 1_555
C11 N3 1_555 1_555
C12 C11 1_555 1_555
H8 C12 1_555 1_555
C13 C11 1_555 1_555
H9 C13 1_555 1_555
C14 N2 1_555 1_555
H10 C14 1_555 1_555
C15 N1 1_555 1_555
H11 C15 1_555 1_555
C16 N1 1_555 1_555
H12 C16 1_555 1_555
C17 N4 1_555 1_555
H13 C17 1_555 1_555
C18 N4 1_555 1_555
C19 C18 1_555 1_555
H14 C19 1_555 1_555
C20 C18 1_555 1_555
H15 C20 1_555 1_555
O8 H16 1_555 1_555
H17 O8 1_555 1_555
N1A C15A 1_555 1_555
N4A C16A 1_555 1_555
C15A H11A 1_555 1_555
C16A N1A 1_555 1_555
H12A C16A 1_555 1_555
C17A N4A 1_555 1_555
H13A C17A 1_555 1_555
C18A N4A 1_555 1_555
C19A C20 1_555 1_555
H14A C19A 1_555 1_555
C20A C19 1_555 1_555
H15A C20A 1_555 1_555
N2A C9A 1_555 1_555
N3A C9A 1_555 1_555
C9A H6A 1_555 1_555
C10A N3A 1_555 1_555
H7A C10A 1_555 1_555
C11A N3A 1_555 1_555
C12A C13 1_555 1_555
H8A C12A 1_555 1_555
C13A C12 1_555 1_555
H9A C13A 1_555 1_555
C14A N2A 1_555 1_555
H10A C14A 1_555 1_555
Cd1A N1A 1_555 1_555
O1A Cd1A 1_555 1_555
O2A Cd1A 1_555 1_555
O3A N5A 1_555 1_555
O4A N5A 1_555 1_555
O5A Cd1A 1_555 1_555
H1A O5A 1_555 1_555
H2A O5A 1_555 1_555
O6A C1A 1_555 1_555
O7A C1A 1_555 1_555
C1A C5A 1_555 1_555
C2A O1A 1_555 1_555
C3A C2A 1_555 1_555
C4A C3A 1_555 1_555
H3A C4A 1_555 1_555
C5A C4A 1_555 1_555
C6A C5A 1_555 1_555
H4A C6A 1_555 1_555
C7A C6A 1_555 1_555
C8A C3A 1_555 1_555
H5A C8A 1_555 1_555
N5A C7A 1_555 1_555
Cd1_2 O6 1_555 1_555
Cd1A_2 O6A 1_555 1_555
Cd1A_3 N2A 1_555 1_555
O6_2 Cd1 1_555 1_555
O6A_2 Cd1A 1_555 1_555
O7_2 Cd1 1_555 1_555
O7A_2 Cd1A 1_555 1_555
N2A_2 Cd1A 1_555 1_555
O7 Cd1_2 1_555 1_555
C7 C8 1_555 1_555
C10 C14 1_555 1_555
C15 C17 1_555 1_555
C15A C17A 1_555 1_555
C18A C19A 1_555 1_555
C18A C20A 1_555 1_555
C10A C14A 1_555 1_555
C11A C12A 1_555 1_555
C11A C13A 1_555 1_555
O2A C2A 1_555 1_555
O7A Cd1A_2 1_555 1_555
C7A C8A 1_555 1_555

#END
