
#######################################################################
#
#                 Cambridge Crystallographic Data Centre
#                                CCDC 
#
#######################################################################
#
# If this CIF has been generated from an entry in the Cambridge 
# Structural Database, then it will include bibliographic, chemical, 
# crystal, experimental, refinement or atomic coordinate data resulting 
# from the CCDC's data processing and validation procedures.
#
#######################################################################

data_XIDZUH
_symmetry_cell_setting           monoclinic
_symmetry_space_group_name_H-M   'P 21/n'
_symmetry_Int_Tables_number      14
_space_group_name_Hall           '-P 2yn'
loop_
_symmetry_equiv_pos_site_id
_symmetry_equiv_pos_as_xyz
1 x,y,z
2 1/2-x,1/2+y,1/2-z
3 -x,-y,-z
4 1/2+x,1/2-y,1/2+z
_cell_length_a                   16.486(2)
_cell_length_b                   11.7598(13)
_cell_length_c                   20.518(3)
_cell_angle_alpha                90
_cell_angle_beta                 97.129(4)
_cell_angle_gamma                90
_cell_volume                     3947.12
loop_
_atom_site_label
_atom_site_type_symbol
_atom_site_fract_x
_atom_site_fract_y
_atom_site_fract_z
Co1 Co 0.37288(4) 0.26384(5) 0.47527(3)
Co2 Co 0.13475(4) 0.24824(5) 0.52391(3)
O1 O 0.3026(2) 0.1317(3) 0.4980(2)
O2 O 0.1873(2) 0.0929(3) 0.53800(18)
O3 O 0.52241(19) -0.1547(3) 0.50965(18)
O4 O 0.5025(2) -0.3290(3) 0.54407(18)
O5 O 0.2488(2) -0.4033(3) 0.6384(2)
O6 O 0.1423(2) -0.2986(3) 0.6125(2)
O7 O 0.3062(2) 0.4061(3) 0.44427(16)
O8 O 0.21141(19) 0.3809(3) 0.51223(17)
O9 O -0.03024(19) 0.6398(3) 0.48059(19)
O10 O -0.0084(2) 0.8205(3) 0.46248(19)
O11 O 0.2401(3) 0.9153(3) 0.3618(2)
O12 O 0.3395(2) 0.7966(3) 0.3656(2)
N1 N 0.3783(3) 0.1098(4) 0.2899(2)
N2 N 0.3545(3) 0.2141(5) 0.2658(2)
N3 N 0.3585(3) 0.2083(4) 0.3751(2)
N4 N 0.6510(3) 0.1284(4) 0.2171(2)
N5 N 0.6555(4) 0.2393(5) 0.2353(3)
N6 N 0.6524(3) 0.2231(4) 0.1261(2)
N7 N 0.4240(3) 0.4514(4) 0.6495(2)
N8 N 0.3791(3) 0.3706(4) 0.6760(2)
N9 N 0.3922(2) 0.3298(4) 0.5707(2)
N10 N 0.6297(3) 0.3207(4) 0.8208(2)
N11 N 0.5752(3) 0.2327(4) 0.8149(3)
N12 N 0.6155(3) 0.2731(4) 0.9214(2)
N13 N 0.2152(3) -0.3179(4) 0.6130(2)
N14 N 0.2705(3) 0.8223(4) 0.3757(2)
C1 C 0.4028(4) 0.0198(6) 0.2469(3)
H1 H 0.3636 0.0166 0.2069
H2 H 0.4015 -0.0537 0.2692
C2 C 0.4884(3) 0.0402(5) 0.2282(3)
H3 H 0.5010 -0.0199 0.1980
H4 H 0.4887 0.1128 0.2047
C3 C 0.5551(4) 0.0429(6) 0.2859(3)
H5 H 0.5483 -0.0220 0.3148
H6 H 0.5499 0.1126 0.3112
C4 C 0.6401(4) 0.0384(6) 0.2640(3)
H7 H 0.6814 0.0464 0.3024
H8 H 0.6480 -0.0356 0.2438
C5 C 0.3429(3) 0.2694(5) 0.3195(3)
H9 H 0.3252 0.3454 0.3191
C6 C 0.3810(3) 0.1084(5) 0.3539(3)
H10 H 0.3965 0.0455 0.3808
C7 C 0.6577(4) 0.2920(5) 0.1795(3)
H11 H 0.6625 0.3714 0.1765
C8 C 0.6486(3) 0.1206(5) 0.1525(3)
H12 H 0.6447 0.0521 0.1287
C9 C 0.4630(4) 0.5436(5) 0.6895(3)
H13 H 0.4215 0.5852 0.7103
H14 H 0.4884 0.5968 0.6613
C10 C 0.5283(3) 0.4971(5) 0.7428(2)
H15 H 0.5595 0.5607 0.7642
H16 H 0.5015 0.4573 0.7762
C11 C 0.5866(3) 0.4159(5) 0.7143(2)
H17 H 0.5559 0.3492 0.6964
H18 H 0.6089 0.4537 0.6778
C12 C 0.6560(4) 0.3772(6) 0.7634(3)
H19 H 0.6903 0.3246 0.7418
H20 H 0.6896 0.4432 0.7782
C13 C 0.3613(3) 0.3011(5) 0.6264(3)
H21 H 0.3293 0.2357 0.6294
C14 C 0.4322(3) 0.4274(4) 0.5878(3)
H22 H 0.4613 0.4713 0.5603
C15 C 0.5687(4) 0.2091(5) 0.8769(3)
H23 H 0.5339 0.1517 0.8892
C16 C 0.6517(3) 0.3429(5) 0.8836(3)
H24 H 0.6884 0.4008 0.8993
C17 C 0.2872(3) -0.0517(4) 0.5399(2)
C18 C 0.3648(3) -0.0843(4) 0.5286(2)
H25 H 0.3991 -0.0317 0.5111
C19 C 0.3928(3) -0.1952(4) 0.5430(2)
C20 C 0.3434(3) -0.2710(4) 0.5708(2)
H26 H 0.3620 -0.3450 0.5817
C21 C 0.2659(3) -0.2368(4) 0.5824(2)
C22 C 0.2355(3) -0.1293(4) 0.5662(2)
H27 H 0.1820 -0.1090 0.5726
C23 C 0.2565(3) 0.0679(4) 0.5244(2)
C24 C 0.4769(3) -0.2294(4) 0.5303(2)
C25 C 0.2096(3) 0.5522(4) 0.4517(2)
C26 C 0.1317(3) 0.5812(4) 0.4656(2)
H28 H 0.1006 0.5275 0.4856
C27 C 0.0993(3) 0.6885(4) 0.4502(2)
C28 C 0.1442(3) 0.7673(4) 0.4207(2)
H29 H 0.1229 0.8400 0.4100
C29 C 0.2224(3) 0.7370(4) 0.4069(2)
C30 C 0.2553(3) 0.6314(4) 0.4216(2)
H30 H 0.3078 0.6130 0.4115
C31 C 0.2447(3) 0.4366(4) 0.4705(2)
C32 C 0.0152(3) 0.7189(4) 0.4665(3)
Co1B Co 0.62712(4) -0.26384(5) 0.52473(3)
Co2B Co -0.13475(4) 0.75176(5) 0.47609(3)
Co2C Co 0.63475(4) 0.25176(5) 0.02391(3)
Co2C_2 Co 0.63475(4) 0.25176(5) 1.02391(3)
O3B O 0.47759(19) 0.1547(3) 0.49035(18)
O4B O 0.4975(2) 0.3290(3) 0.45593(18)
O9B O 0.03024(19) 0.3602(3) 0.51941(19)
O10B O 0.0084(2) 0.1795(3) 0.53752(19)
N6C N 0.1524(3) 0.2769(4) 0.6261(2)
N12C N 0.1155(3) 0.2269(4) 0.4214(2)
O13 O 0.1634(3) -0.0700(5) 0.6946(2)
H31 H 0.152(3) -0.095(6) 0.7334(16)
H32 H 0.116(2) -0.060(6) 0.672(2)
O14 O -0.0273(3) 1.0444(4) 0.4067(2)
H33 H -0.024(4) 1.090(4) 0.439(2)
H34 H -0.024(4) 0.976(2) 0.421(3)
loop_
_geom_bond_atom_site_label_1
_geom_bond_atom_site_label_2
_geom_bond_site_symmetry_1
_geom_bond_site_symmetry_2
Co1 O1 1_555 1_555
Co2 O2 1_555 1_555
O1 C23 1_555 1_555
O2 C23 1_555 1_555
O3 C24 1_555 1_555
O4 C24 1_555 1_555
O5 N13 1_555 1_555
O6 N13 1_555 1_555
O7 Co1 1_555 1_555
O8 Co2 1_555 1_555
O9 C32 1_555 1_555
O10 C32 1_555 1_555
O11 N14 1_555 1_555
O12 N14 1_555 1_555
N1 N2 1_555 1_555
N2 C5 1_555 1_555
N3 Co1 1_555 1_555
N4 N5 1_555 1_555
N5 C7 1_555 1_555
N6 C7 1_555 1_555
N7 N8 1_555 1_555
N8 C13 1_555 1_555
N9 Co1 1_555 1_555
N10 N11 1_555 1_555
N11 C15 1_555 1_555
N12 C15 1_555 1_555
N13 C21 1_555 1_555
N14 C29 1_555 1_555
C1 N1 1_555 1_555
H1 C1 1_555 1_555
H2 C1 1_555 1_555
C2 C1 1_555 1_555
H3 C2 1_555 1_555
H4 C2 1_555 1_555
C3 C2 1_555 1_555
H5 C3 1_555 1_555
H6 C3 1_555 1_555
C4 N4 1_555 1_555
H7 C4 1_555 1_555
H8 C4 1_555 1_555
C5 N3 1_555 1_555
H9 C5 1_555 1_555
C6 N1 1_555 1_555
H10 C6 1_555 1_555
C7 H11 1_555 1_555
C8 N4 1_555 1_555
H12 C8 1_555 1_555
C9 N7 1_555 1_555
H13 C9 1_555 1_555
H14 C9 1_555 1_555
C10 C9 1_555 1_555
H15 C10 1_555 1_555
H16 C10 1_555 1_555
C11 C10 1_555 1_555
H17 C11 1_555 1_555
H18 C11 1_555 1_555
C12 N10 1_555 1_555
H19 C12 1_555 1_555
H20 C12 1_555 1_555
C13 N9 1_555 1_555
H21 C13 1_555 1_555
C14 N7 1_555 1_555
H22 C14 1_555 1_555
C15 H23 1_555 1_555
C16 N10 1_555 1_555
H24 C16 1_555 1_555
C17 C18 1_555 1_555
C18 H25 1_555 1_555
C19 C18 1_555 1_555
C20 C19 1_555 1_555
H26 C20 1_555 1_555
C21 C20 1_555 1_555
C22 C17 1_555 1_555
H27 C22 1_555 1_555
C23 C17 1_555 1_555
C24 C19 1_555 1_555
C25 C26 1_555 1_555
C26 H28 1_555 1_555
C27 C26 1_555 1_555
C28 C27 1_555 1_555
H29 C28 1_555 1_555
C29 C28 1_555 1_555
C30 C25 1_555 1_555
H30 C30 1_555 1_555
C31 O7 1_555 1_555
C32 C27 1_555 1_555
O13 H31 1_555 1_555
H32 O13 1_555 1_555
O14 H33 1_555 1_555
H34 O14 1_555 1_555
Co1B O3 1_555 1_555
Co2B O9 1_555 1_555
Co2C N6 1_555 1_555
Co2C_2 N12 1_555 1_555
O3B Co1 1_555 1_555
O4B Co1 1_555 1_555
O9B Co2 1_555 1_555
O10B Co2 1_555 1_555
N6C Co2 1_555 1_555
N12C Co2 1_555 1_555
O4 Co1B 1_555 1_555
O8 C31 1_555 1_555
O10 Co2B 1_555 1_555
N3 C6 1_555 1_555
N6 C8 1_555 1_555
N9 C14 1_555 1_555
N12 C16 1_555 1_555
C3 C4 1_555 1_555
C11 C12 1_555 1_555
C21 C22 1_555 1_555
C25 C31 1_555 1_555
C29 C30 1_555 1_555

#END
