
#######################################################################
#
#                 Cambridge Crystallographic Data Centre
#                                CCDC 
#
#######################################################################
#
# If this CIF has been generated from an entry in the Cambridge 
# Structural Database, then it will include bibliographic, chemical, 
# crystal, experimental, refinement or atomic coordinate data resulting 
# from the CCDC's data processing and validation procedures.
#
#######################################################################

data_XIDZER
_symmetry_cell_setting           monoclinic
_symmetry_space_group_name_H-M   'P 21/c'
_symmetry_Int_Tables_number      14
_space_group_name_Hall           '-P 2ybc'
loop_
_symmetry_equiv_pos_site_id
_symmetry_equiv_pos_as_xyz
1 x,y,z
2 -x,1/2+y,1/2-z
3 -x,-y,-z
4 x,1/2-y,1/2+z
_cell_length_a                   9.616(4)
_cell_length_b                   28.514(11)
_cell_length_c                   12.458(5)
_cell_angle_alpha                90
_cell_angle_beta                 106.009(5)
_cell_angle_gamma                90
_cell_volume                     3283.39
loop_
_atom_site_label
_atom_site_type_symbol
_atom_site_fract_x
_atom_site_fract_y
_atom_site_fract_z
Cd1 Cd 1.00712(3) -0.092605(8) 0.19263(2)
Cd2 Cd 0.58060(3) 0.070076(8) 0.74839(2)
O1 O 0.1806(3) -0.06668(8) 1.10846(19)
O2 O 0.8677(3) -0.05608(8) 0.3290(2)
O3 O 0.7543(3) 0.10159(8) 0.65945(18)
O4 O 0.7978(3) -0.07638(8) 0.0520(2)
H1 H 0.7506 -0.1018 0.0314
H2 H 0.7452 -0.0572 0.0765
O5 O 0.0661(3) -0.13026(9) 1.0292(2)
O6 O 0.5416(3) -0.00482(8) 0.7814(2)
O7 O 1.0069(3) -0.01695(9) 0.2472(2)
C1 C 0.2439(4) 0.25983(11) 1.1196(3)
N1 N 0.4739(3) 0.19299(9) 0.9216(2)
N2 N 0.1624(3) 0.28276(9) 1.1851(2)
O8 O 0.4100(3) 0.03264(8) 0.8727(2)
O9 O 0.6413(3) 0.03603(9) 0.5915(2)
N3 N 0.5493(3) 0.13839(9) 0.8263(2)
O10 O 0.3646(3) 0.08888(8) 0.6142(2)
H3 H 0.3700 0.0811 0.5477
H4 H 0.2916 0.0739 0.6271
C2 C 0.1534(4) -0.09825(12) 1.0327(3)
C3 C 0.8060(4) 0.06813(11) 0.4999(2)
O11 O 1.0015(4) 0.18631(10) 0.4232(3)
N4 N 0.0605(3) 0.33821(9) 1.2594(2)
C4 C 0.9533(4) 0.10703(11) 0.4026(3)
N5 N 0.3534(4) -0.17315(11) 0.7480(3)
C5 C 0.9023(3) 0.02597(11) 0.3675(2)
C6 C 0.9699(3) 0.06653(11) 0.3474(3)
H5 H 1.0259 0.0664 0.2972
C7 C 0.2357(3) -0.09542(11) 0.9462(2)
C8 C 0.3846(3) -0.05047(11) 0.8553(2)
C9 C 0.4652(4) 0.14777(11) 0.8906(3)
H6 H 0.4067 0.1257 0.9121
C10 C 0.4036(4) -0.08998(11) 0.7962(3)
H7 H 0.4603 -0.0888 0.7467
C11 C 0.5719(5) 0.21348(13) 0.8739(4)
H8 H 0.6016 0.2446 0.8807
C12 C 0.2512(4) -0.13475(11) 0.8856(3)
H9 H 0.2058 -0.1628 0.8937
C13 C 0.9252(4) -0.01885(12) 0.3110(3)
O12 O 1.1008(4) 0.14743(10) 0.3174(3)
C14 C 0.3363(4) -0.13121(11) 0.8125(3)
C15 C 0.3011(3) -0.05353(11) 0.9302(2)
H10 H 0.2888 -0.0271 0.9703
O13 O 0.2966(4) -0.20922(10) 0.7650(3)
O14 O 0.4230(4) -0.16938(11) 0.6806(3)
C16 C 0.8734(4) 0.10884(11) 0.4797(3)
H11 H 0.8653 0.1366 0.5168
C17 C 0.3965(4) 0.21573(11) 0.9907(3)
C18 C 0.2303(5) 0.21249(12) 1.1017(4)
H12 H 0.1689 0.1952 1.1326
N6 N 1.0238(4) 0.15009(11) 0.3797(3)
C19 C 0.8190(3) 0.02708(11) 0.4433(2)
H13 H 0.7717 0.0001 0.4560
C20 C 0.3077(5) 0.19028(13) 1.0378(4)
H14 H 0.2995 0.1580 1.0269
C21 C 0.6162(5) 0.17985(12) 0.8158(3)
H15 H 0.6824 0.1840 0.7745
C22 C 0.0858(6) 0.26143(14) 1.2492(4)
H16 H 0.0775 0.2293 1.2591
C23 C 0.1441(4) 0.32878(11) 1.1942(3)
H17 H 0.1853 0.3515 1.1589
C24 C 0.4110(4) 0.26311(12) 1.0088(4)
H18 H 0.4710 0.2805 0.9767
C25 C 0.3362(5) 0.28499(13) 1.0746(4)
H19 H 0.3484 0.3170 1.0887
C26 C 0.0251(5) 0.29551(13) 1.2949(4)
H20 H -0.0322 0.2909 1.3431
C27 C 0.4487(4) -0.00420(11) 0.8365(3)
C28 C 0.7278(4) 0.06822(12) 0.5891(3)
Cd1_2 Cd 0.00712(3) -0.092605(8) 1.19263(2)
Cd1A Cd -0.00712(3) 0.407395(8) 1.30737(2)
Cd1B Cd 0.99288(3) 0.092605(8) 0.80737(2)
Cd2B Cd 0.41940(3) -0.070076(8) 1.25161(2)
O1_2 O 1.1806(3) -0.06668(8) 0.10846(19)
O1B O 0.8194(3) 0.06668(8) 0.89154(19)
O3B O 1.2457(3) -0.10159(8) 0.34055(18)
O5_2 O 1.0661(3) -0.13026(9) 0.0292(2)
N4A N 0.9395(3) -0.16179(9) 0.2406(2)
O15 O 0.3663(4) 0.06834(12) 0.4032(3)
H21 H 0.3130 0.0782 0.3411
H22 H 0.3758 0.0388 0.4002
O16 O 0.1849(4) 0.04677(10) 0.1549(3)
H23 H 0.1180 0.0273 0.1553
H24 H 0.2666 0.0332 0.1772
loop_
_geom_bond_atom_site_label_1
_geom_bond_atom_site_label_2
_geom_bond_site_symmetry_1
_geom_bond_site_symmetry_2
Cd1 O2 1_555 1_555
Cd2 O3 1_555 1_555
O1 C2 1_555 1_555
O2 C13 1_555 1_555
O3 C28 1_555 1_555
O4 Cd1 1_555 1_555
H1 O4 1_555 1_555
H2 O4 1_555 1_555
O5 C2 1_555 1_555
O6 Cd2 1_555 1_555
O7 Cd1 1_555 1_555
C1 N2 1_555 1_555
N1 C9 1_555 1_555
N2 C22 1_555 1_555
O8 Cd2 1_555 1_555
O9 Cd2 1_555 1_555
N3 Cd2 1_555 1_555
O10 Cd2 1_555 1_555
H3 O10 1_555 1_555
H4 O10 1_555 1_555
C2 C7 1_555 1_555
C3 C16 1_555 1_555
O11 N6 1_555 1_555
N4 C23 1_555 1_555
C4 C6 1_555 1_555
N5 C14 1_555 1_555
C5 C6 1_555 1_555
C6 H5 1_555 1_555
C7 C12 1_555 1_555
C8 C10 1_555 1_555
C9 N3 1_555 1_555
H6 C9 1_555 1_555
C10 H7 1_555 1_555
C11 N1 1_555 1_555
H8 C11 1_555 1_555
C12 H9 1_555 1_555
C13 O7 1_555 1_555
O12 N6 1_555 1_555
C14 C10 1_555 1_555
C15 C7 1_555 1_555
H10 C15 1_555 1_555
O13 N5 1_555 1_555
O14 N5 1_555 1_555
C16 C4 1_555 1_555
H11 C16 1_555 1_555
C17 N1 1_555 1_555
C18 C1 1_555 1_555
H12 C18 1_555 1_555
N6 C4 1_555 1_555
C19 C3 1_555 1_555
H13 C19 1_555 1_555
C20 C17 1_555 1_555
H14 C20 1_555 1_555
C21 N3 1_555 1_555
H15 C21 1_555 1_555
C22 H16 1_555 1_555
C23 N2 1_555 1_555
H17 C23 1_555 1_555
C24 C17 1_555 1_555
H18 C24 1_555 1_555
C25 C1 1_555 1_555
H19 C25 1_555 1_555
C26 N4 1_555 1_555
H20 C26 1_555 1_555
C27 O6 1_555 1_555
C28 O9 1_555 1_555
O15 H21 1_555 1_555
H22 O15 1_555 1_555
O16 H23 1_555 1_555
H24 O16 1_555 1_555
Cd1_2 O1 1_555 1_555
Cd1A N4 1_555 1_555
Cd1B O3 1_555 1_555
Cd2B O1 1_555 1_555
O1_2 Cd1 1_555 1_555
O1B Cd2 1_555 1_555
O3B Cd1 1_555 1_555
O5_2 Cd1 1_555 1_555
N4A Cd1 1_555 1_555
O5 Cd1_2 1_555 1_555
O8 C27 1_555 1_555
C3 C28 1_555 1_555
C5 C13 1_555 1_555
C5 C19 1_555 1_555
C8 C15 1_555 1_555
C8 C27 1_555 1_555
C11 C21 1_555 1_555
C12 C14 1_555 1_555
C18 C20 1_555 1_555
C22 C26 1_555 1_555
C24 C25 1_555 1_555
Cd1B O1B 1_555 1_555

#END
