
#######################################################################
#
#                 Cambridge Crystallographic Data Centre
#                                CCDC 
#
#######################################################################
#
# If this CIF has been generated from an entry in the Cambridge 
# Structural Database, then it will include bibliographic, chemical, 
# crystal, experimental, refinement or atomic coordinate data resulting 
# from the CCDC's data processing and validation procedures.
#
#######################################################################

data_XIDZIV
_symmetry_cell_setting           monoclinic
_symmetry_space_group_name_H-M   'P 21/n'
_symmetry_Int_Tables_number      14
_space_group_name_Hall           '-P 2yn'
loop_
_symmetry_equiv_pos_site_id
_symmetry_equiv_pos_as_xyz
1 x,y,z
2 1/2-x,1/2+y,1/2-z
3 -x,-y,-z
4 1/2+x,1/2-y,1/2+z
_cell_length_a                   9.866(2)
_cell_length_b                   14.137(3)
_cell_length_c                   13.808(3)
_cell_angle_alpha                90
_cell_angle_beta                 94.019(3)
_cell_angle_gamma                90
_cell_volume                     1921.14
loop_
_atom_site_label
_atom_site_type_symbol
_atom_site_fract_x
_atom_site_fract_y
_atom_site_fract_z
Cd1 Cd 0.46005(3) 0.358928(19) 0.486811(18)
O1 O 0.1727(3) 0.75158(18) 0.10062(18)
O2 O 0.3411(3) 0.64162(19) 0.4222(2)
C1 C 0.2120(4) 0.5414(3) 0.3150(2)
N1 N 0.3502(4) 0.3522(2) 0.7896(2)
C2 C 0.4016(4) 0.3548(3) 0.8899(3)
O3 O 0.3307(4) 0.4902(2) 0.4614(2)
C3 C 0.0907(4) 0.4361(3) 0.2032(3)
O4 O 0.0167(3) 0.6685(2) 0.0159(2)
N2 N 0.3572(4) 0.3522(2) 0.6305(2)
N3 N 0.5538(4) 0.3746(3) 1.3396(2)
C4 C 0.5026(5) 0.3645(3) 1.0802(3)
O5 O 0.0463(5) 0.3457(2) 0.1834(2)
H1 H 0.0175 0.3421 0.1264
C5 C 0.1927(4) 0.6146(3) 0.2467(3)
H2 H 0.2263 0.6747 0.2615
C6 C 0.2997(4) 0.5589(3) 0.4066(3)
N4 N 0.5543(4) 0.3721(2) 1.1800(2)
C7 C 0.1598(4) 0.4526(3) 0.2929(3)
H3 H 0.1708 0.4039 0.3381
C8 C 0.1239(4) 0.5978(3) 0.1575(3)
C9 C 0.3212(7) 0.3520(8) 0.9597(4)
H4 H 0.2279 0.3470 0.9456
C10 C 0.1038(4) 0.6777(3) 0.0851(3)
C11 C 0.0722(4) 0.5089(3) 0.1364(3)
H5 H 0.0246 0.4978 0.0770
C12 C 0.2183(5) 0.3588(4) 0.7510(4)
H6 H 0.1404 0.3626 0.7850
C13 C 0.6810(5) 0.3958(4) 1.3135(3)
H7 H 0.7552 0.4092 1.3567
C14 C 0.4804(5) 0.3612(3) 1.2576(3)
H8 H 0.3884 0.3460 1.2536
C15 C 0.4289(5) 0.3486(3) 0.7139(3)
H9 H 0.5232 0.3441 0.7201
C16 C 0.6835(5) 0.3946(4) 1.2166(3)
H10 H 0.7582 0.4067 1.1809
C17 C 0.5812(7) 0.3655(7) 1.0106(4)
H11 H 0.6746 0.3703 1.0242
C18 C 0.3734(8) 0.3563(9) 1.0567(4)
H12 H 0.3136 0.3533 1.1058
C19 C 0.2251(5) 0.3584(3) 0.6535(3)
H13 H 0.1505 0.3620 0.6085
C20 C 0.5287(7) 0.3594(8) 0.9147(4)
H14 H 0.5892 0.3586 0.8661
Cd1_2 Cd 0.46005(3) 0.358928(19) 1.486811(18)
Cd1A Cd 0.03995(3) 0.858928(19) 0.013189(18)
Cd1B Cd 0.53995(3) 0.641072(19) 0.513189(18)
O1A O 0.3273(3) 0.25158(18) 0.39938(18)
O2B O 0.6589(3) 0.35838(19) 0.5778(2)
O4A O 0.4833(3) 0.1685(2) 0.4841(2)
N3_2 N 0.5538(4) 0.3746(3) 0.3396(2)
loop_
_geom_bond_atom_site_label_1
_geom_bond_atom_site_label_2
_geom_bond_site_symmetry_1
_geom_bond_site_symmetry_2
Cd1 O3 1_555 1_555
O1 C10 1_555 1_555
O2 C6 1_555 1_555
C1 C5 1_555 1_555
N1 C2 1_555 1_555
C2 C9 1_555 1_555
O3 C6 1_555 1_555
C3 O5 1_555 1_555
O4 C10 1_555 1_555
N2 Cd1 1_555 1_555
N3 C13 1_555 1_555
C4 N4 1_555 1_555
O5 H1 1_555 1_555
C5 H2 1_555 1_555
C6 C1 1_555 1_555
N4 C14 1_555 1_555
C7 C1 1_555 1_555
H3 C7 1_555 1_555
C8 C5 1_555 1_555
C9 H4 1_555 1_555
C10 C8 1_555 1_555
C11 C3 1_555 1_555
H5 C11 1_555 1_555
C12 N1 1_555 1_555
H6 C12 1_555 1_555
C13 H7 1_555 1_555
C14 N3 1_555 1_555
H8 C14 1_555 1_555
C15 N1 1_555 1_555
H9 C15 1_555 1_555
C16 N4 1_555 1_555
H10 C16 1_555 1_555
C17 C4 1_555 1_555
H11 C17 1_555 1_555
C18 C4 1_555 1_555
H12 C18 1_555 1_555
C19 N2 1_555 1_555
H13 C19 1_555 1_555
C20 C2 1_555 1_555
H14 C20 1_555 1_555
Cd1_2 N3 1_555 1_555
Cd1A O1 1_555 1_555
Cd1B O2 1_555 1_555
O1A Cd1 1_555 1_555
O2B Cd1 1_555 1_555
O4A Cd1 1_555 1_555
N3_2 Cd1 1_555 1_555
C3 C7 1_555 1_555
O4 Cd1A 1_555 1_555
N2 C15 1_555 1_555
C8 C11 1_555 1_555
C9 C18 1_555 1_555
C12 C19 1_555 1_555
C13 C16 1_555 1_555
C17 C20 1_555 1_555

#END
