
#######################################################################
#
#                 Cambridge Crystallographic Data Centre
#                                CCDC 
#
#######################################################################
#
# If this CIF has been generated from an entry in the Cambridge 
# Structural Database, then it will include bibliographic, chemical, 
# crystal, experimental, refinement or atomic coordinate data resulting 
# from the CCDC's data processing and validation procedures.
#
#######################################################################

data_XIDZAN
_symmetry_cell_setting           triclinic
_symmetry_space_group_name_H-M   'P -1'
_symmetry_Int_Tables_number      2
_space_group_name_Hall           '-P 1'
loop_
_symmetry_equiv_pos_site_id
_symmetry_equiv_pos_as_xyz
1 x,y,z
2 -x,-y,-z
_cell_length_a                   7.843(3)
_cell_length_b                   10.053(4)
_cell_length_c                   11.639(5)
_cell_angle_alpha                90.144(5)
_cell_angle_beta                 94.641(5)
_cell_angle_gamma                109.953(4)
_cell_volume                     859.326
loop_
_atom_site_label
_atom_site_type_symbol
_atom_site_fract_x
_atom_site_fract_y
_atom_site_fract_z
Cd1 Cd -0.017866(18) 0.288373(14) 0.458927(11)
O1 O 0.1404(2) 0.44955(16) 0.34327(15)
O2 O 0.1717(3) 0.1710(2) 0.40310(16)
H1 H 0.1118 0.1008 0.3560
H2 H 0.2604 0.2284 0.3687
O3 O 0.2166(2) 0.59069(17) 0.50033(14)
O4 O 0.7636(2) 1.15596(16) 0.31716(14)
O5 O 0.3620(4) 0.6349(3) -0.02179(19)
O6 O 0.5274(4) 0.8507(3) -0.03532(17)
O7 O 0.7615(2) 1.04157(16) 0.47858(14)
N1 N 0.0586(3) 0.27760(19) 0.64835(15)
N2 N 0.0640(3) 0.19979(18) 0.82480(15)
C1 C 0.7071(3) 1.0464(2) 0.37451(18)
C2 C 0.2257(3) 0.5647(2) 0.39569(19)
C3 C 0.3456(3) 0.6809(2) 0.32632(18)
C4 C 0.4663(3) 0.8049(2) 0.38022(18)
H3 H 0.4768 0.8146 0.4602
C5 C 0.5717(3) 0.9148(2) 0.31590(18)
C6 C 0.5561(3) 0.9012(2) 0.19666(19)
H4 H 0.6210 0.9752 0.1523
C7 C 0.4409(3) 0.7741(2) 0.14527(18)
C8 C 0.3352(3) 0.6639(2) 0.20720(19)
H5 H 0.2588 0.5804 0.1700
N3 N 0.4414(3) 0.7520(2) 0.02023(17)
C9 C -0.0134(3) 0.1715(2) 0.71580(17)
H6 H -0.1058 0.0878 0.6912
C10 C 0.1909(3) 0.3790(2) 0.7174(2)
H7 H 0.2654 0.4659 0.6929
C11 C 0.1956(3) 0.3331(2) 0.8257(2)
H8 H 0.2723 0.3814 0.8888
C12 C 0.0298(3) 0.1005(2) 0.91627(17)
C13 C 0.0226(3) 0.1431(2) 1.02967(18)
C14 C 0.0438(5) 0.2916(3) 1.0678(2)
H9 H 0.1704 0.3445 1.0871
H10 H -0.0223 0.2886 1.1342
H11 H -0.0030 0.3365 1.0064
C15 C 0.0067(3) -0.0389(2) 0.88830(17)
H12 H 0.0111 -0.0639 0.8119
N1A N -0.0586(3) -0.27760(19) 1.35165(15)
N2A N -0.0640(3) -0.19979(18) 1.17520(15)
C9A C 0.0134(3) -0.1715(2) 1.28420(17)
H6A H 0.1058 -0.0878 1.3088
C10A C -0.1909(3) -0.3790(2) 1.2826(2)
H7A H -0.2654 -0.4659 1.3071
C11A C -0.1956(3) -0.3331(2) 1.1743(2)
H8A H -0.2723 -0.3814 1.1112
C12A C -0.0298(3) -0.1005(2) 1.08373(17)
C13A C -0.0226(3) -0.1431(2) 0.97033(18)
C14A C -0.0438(5) -0.2916(3) 0.9322(2)
H9A H -0.1704 -0.3445 0.9129
H10A H 0.0223 -0.2886 0.8658
H11A H 0.0030 -0.3365 0.9936
C15A C -0.0067(3) 0.0389(2) 1.11170(17)
H12A H -0.0111 0.0639 1.1881
Cd1A Cd 0.017866(18) -0.288373(14) 1.541073(11)
O1A O -0.1404(2) -0.44955(16) 1.65673(15)
O2A O -0.1717(3) -0.1710(2) 1.59690(16)
H1A H -0.1118 -0.1008 1.6440
H2A H -0.2604 -0.2284 1.6313
O3A O -0.2166(2) -0.59069(17) 1.49967(14)
O4A O -0.7636(2) -1.15596(16) 1.68284(14)
O5A O -0.3620(4) -0.6349(3) 2.02179(19)
O6A O -0.5274(4) -0.8507(3) 2.03532(17)
O7A O -0.7615(2) -1.04157(16) 1.52142(14)
C1A C -0.7071(3) -1.0464(2) 1.62549(18)
C2A C -0.2257(3) -0.5647(2) 1.60431(19)
C3A C -0.3456(3) -0.6809(2) 1.67368(18)
C4A C -0.4663(3) -0.8049(2) 1.61978(18)
H3A H -0.4768 -0.8146 1.5398
C5A C -0.5717(3) -0.9148(2) 1.68410(18)
C6A C -0.5561(3) -0.9012(2) 1.80334(19)
H4A H -0.6210 -0.9752 1.8477
C7A C -0.4409(3) -0.7741(2) 1.85473(18)
C8A C -0.3352(3) -0.6639(2) 1.79280(19)
H5A H -0.2588 -0.5804 1.8300
N3A N -0.4414(3) -0.7520(2) 1.97977(17)
Cd1_2 Cd -0.017866(18) -0.711627(14) 1.458927(11)
Cd1_3 Cd 0.982134(18) 1.288373(14) 0.458927(11)
Cd1A_2 Cd -0.982134(18) -1.288373(14) 1.541073(11)
Cd1A_3 Cd 0.017866(18) 0.711627(14) 0.541073(11)
O3_2 O 0.2166(2) -0.40931(17) 1.50033(14)
O3A_2 O -0.2166(2) 0.40931(17) 0.49967(14)
O4_2 O -0.2364(2) 0.15596(16) 0.31716(14)
O4A_2 O 0.2364(2) -0.15596(16) 1.68284(14)
O7_2 O -0.2385(2) 0.04157(16) 0.47858(14)
O7A_2 O 0.2385(2) -0.04157(16) 1.52142(14)
O8 O 0.4762(3) 0.2815(3) 0.2846(3)
H13 H 0.4059 0.2015 0.2570
H14 H 0.5799 0.2765 0.3063
loop_
_geom_bond_atom_site_label_1
_geom_bond_atom_site_label_2
_geom_bond_site_symmetry_1
_geom_bond_site_symmetry_2
Cd1 O1 1_555 1_555
O1 C2 1_555 1_555
O2 Cd1 1_555 1_555
H1 O2 1_555 1_555
H2 O2 1_555 1_555
O3 C2 1_555 1_555
O4 C1 1_555 1_555
O5 N3 1_555 1_555
O6 N3 1_555 1_555
O7 C1 1_555 1_555
N1 Cd1 1_555 1_555
N2 C9 1_555 1_555
C1 C5 1_555 1_555
C2 C3 1_555 1_555
C3 C4 1_555 1_555
C4 H3 1_555 1_555
C5 C4 1_555 1_555
C6 C5 1_555 1_555
H4 C6 1_555 1_555
C7 C6 1_555 1_555
C8 C3 1_555 1_555
H5 C8 1_555 1_555
N3 C7 1_555 1_555
C9 N1 1_555 1_555
H6 C9 1_555 1_555
C10 N1 1_555 1_555
H7 C10 1_555 1_555
C11 N2 1_555 1_555
H8 C11 1_555 1_555
C12 N2 1_555 1_555
C13 C12 1_555 1_555
C14 C13 1_555 1_555
H9 C14 1_555 1_555
H10 C14 1_555 1_555
H11 C14 1_555 1_555
C15 C12 1_555 1_555
H12 C15 1_555 1_555
O8 H13 1_555 1_555
H14 O8 1_555 1_555
N1A C9A 1_555 1_555
N2A C9A 1_555 1_555
C9A H6A 1_555 1_555
C10A N1A 1_555 1_555
H7A C10A 1_555 1_555
C11A N2A 1_555 1_555
H8A C11A 1_555 1_555
C12A N2A 1_555 1_555
C13A C15 1_555 1_555
C14A C13A 1_555 1_555
H9A C14A 1_555 1_555
H10A C14A 1_555 1_555
H11A C14A 1_555 1_555
C15A C13 1_555 1_555
H12A C15A 1_555 1_555
Cd1A N1A 1_555 1_555
O1A Cd1A 1_555 1_555
O2A Cd1A 1_555 1_555
H1A O2A 1_555 1_555
H2A O2A 1_555 1_555
O3A C2A 1_555 1_555
O4A C1A 1_555 1_555
O5A N3A 1_555 1_555
O6A N3A 1_555 1_555
O7A C1A 1_555 1_555
C1A C5A 1_555 1_555
C2A O1A 1_555 1_555
C3A C2A 1_555 1_555
C4A C3A 1_555 1_555
H3A C4A 1_555 1_555
C5A C4A 1_555 1_555
C6A C5A 1_555 1_555
H4A C6A 1_555 1_555
C7A C6A 1_555 1_555
C8A C3A 1_555 1_555
H5A C8A 1_555 1_555
N3A C7A 1_555 1_555
Cd1_2 O3A 1_555 1_555
Cd1_3 O4 1_555 1_555
Cd1A_2 O4A 1_555 1_555
Cd1A_3 O3 1_555 1_555
O3_2 Cd1A 1_555 1_555
O3A_2 Cd1 1_555 1_555
O4_2 Cd1 1_555 1_555
O4A_2 Cd1A 1_555 1_555
O7_2 Cd1 1_555 1_555
O7A_2 Cd1A 1_555 1_555
O7 Cd1_3 1_555 1_555
C7 C8 1_555 1_555
C10 C11 1_555 1_555
C10A C11A 1_555 1_555
C12A C13A 1_555 1_555
C12A C15A 1_555 1_555
O7A Cd1A_2 1_555 1_555
C7A C8A 1_555 1_555

#END
