
#######################################################################
#
#                 Cambridge Crystallographic Data Centre
#                                CCDC 
#
#######################################################################
#
# If this CIF has been generated from an entry in the Cambridge 
# Structural Database, then it will include bibliographic, chemical, 
# crystal, experimental, refinement or atomic coordinate data resulting 
# from the CCDC's data processing and validation procedures.
#
#######################################################################

data_XIFBEV
_symmetry_cell_setting           monoclinic
_symmetry_space_group_name_H-M   'C 2/c'
_symmetry_Int_Tables_number      15
_space_group_name_Hall           '-C 2yn'
loop_
_symmetry_equiv_pos_site_id
_symmetry_equiv_pos_as_xyz
1 x,y,z
2 -x,y,1/2-z
3 1/2+x,1/2+y,z
4 1/2-x,1/2+y,1/2-z
5 -x,-y,-z
6 x,-y,1/2+z
7 1/2-x,1/2-y,-z
8 1/2+x,1/2-y,1/2+z
_cell_length_a                   20.532(3)
_cell_length_b                   10.1509(8)
_cell_length_c                   19.793(4)
_cell_angle_alpha                90
_cell_angle_beta                 118.750(2)
_cell_angle_gamma                90
_cell_volume                     3616.69
loop_
_atom_site_label
_atom_site_type_symbol
_atom_site_fract_x
_atom_site_fract_y
_atom_site_fract_z
Co1 Co 0.12615(4) 0.39329(7) 0.42083(4)
O1 O 0.1406(2) 0.1780(4) 0.4348(2)
O2 O 0.1016(2) 0.2657(4) 0.3210(2)
O3 O 0.1027(2) -0.4363(4) 0.3580(2)
O4 O 0.1579(3) -0.3123(4) 0.4630(2)
O5 O 0.0208(3) -0.2245(5) 0.1066(3)
O6 O 0.0643(4) -0.0328(5) 0.1058(3)
O7 O 0.2362(2) 0.4143(4) 0.4401(2)
N1 N -0.1071(2) 0.3888(4) 0.3138(2)
N2 N -0.0999(3) 0.2970(5) 0.3671(3)
N3 N 0.0119(2) 0.3725(4) 0.3897(3)
N4 N -0.2094(2) 0.5359(4) 0.3413(2)
N5 N -0.1891(3) 0.6633(5) 0.3402(3)
N6 N -0.1639(2) 0.6021(4) 0.4597(2)
N7 N 0.0509(3) -0.1233(5) 0.1380(3)
C1 C -0.1787(3) 0.4244(6) 0.2499(3)
H1 H -0.1957 0.3539 0.2122
H2 H -0.1730 0.5029 0.2254
C2 C -0.2368(3) 0.4497(6) 0.2742(3)
H3 H -0.2800 0.4898 0.2317
H4 H -0.2522 0.3665 0.2861
C3 C -0.0279(3) 0.2916(6) 0.4112(4)
H5 H -0.0056 0.2366 0.4540
C4 C -0.0409(3) 0.4296(5) 0.3278(3)
H6 H -0.0325 0.4908 0.2978
C5 C -0.1625(4) 0.6966(6) 0.4122(3)
H7 H -0.1438 0.7804 0.4300
C6 C -0.1941(3) 0.5013(6) 0.4123(3)
H8 H -0.2033 0.4188 0.4264
C7 C 0.1094(3) 0.0325(5) 0.3299(3)
C8 C 0.1228(3) -0.0810(5) 0.3743(3)
H9 H 0.1398 -0.0722 0.4269
C9 C 0.1117(3) -0.2079(5) 0.3426(3)
C10 C 0.0870(3) -0.2188(5) 0.2641(3)
H10 H 0.0784 -0.3014 0.2410
C11 C 0.0754(3) -0.1065(5) 0.2204(3)
C12 C 0.0858(3) 0.0174(5) 0.2513(3)
H11 H 0.0772 0.0910 0.2201
C13 C 0.1183(3) 0.1665(5) 0.3629(3)
C14 C 0.1257(3) -0.3262(6) 0.3922(4)
H12 H 0.254(3) 0.486(4) 0.429(3)
H13 H 0.273(2) 0.388(5) 0.4843(19)
Co1_2 Co 0.12615(4) -0.60671(7) 0.42083(4)
Co1D Co -0.12615(4) 0.60671(7) 0.57917(4)
O3_2 O 0.1027(2) 0.5637(4) 0.3580(2)
N6D N 0.1639(2) 0.3979(4) 0.5403(2)
O8 O 0.2081(3) -0.1473(5) 0.5899(3)
H14 H 0.1646(18) -0.136(5) 0.589(3)
H15 H 0.196(3) -0.202(5) 0.550(2)
loop_
_geom_bond_atom_site_label_1
_geom_bond_atom_site_label_2
_geom_bond_site_symmetry_1
_geom_bond_site_symmetry_2
Co1 O1 1_555 1_555
O1 C13 1_555 1_555
O2 Co1 1_555 1_555
O3 C14 1_555 1_555
O4 C14 1_555 1_555
O5 N7 1_555 1_555
O6 N7 1_555 1_555
O7 Co1 1_555 1_555
N1 N2 1_555 1_555
N2 C3 1_555 1_555
N3 Co1 1_555 1_555
N4 N5 1_555 1_555
N5 C5 1_555 1_555
N6 C5 1_555 1_555
N7 C11 1_555 1_555
C1 N1 1_555 1_555
H1 C1 1_555 1_555
H2 C1 1_555 1_555
C2 N4 1_555 1_555
H3 C2 1_555 1_555
H4 C2 1_555 1_555
C3 N3 1_555 1_555
H5 C3 1_555 1_555
C4 N1 1_555 1_555
H6 C4 1_555 1_555
C5 H7 1_555 1_555
C6 N4 1_555 1_555
H8 C6 1_555 1_555
C7 C8 1_555 1_555
C8 H9 1_555 1_555
C9 C8 1_555 1_555
C10 C9 1_555 1_555
H10 C10 1_555 1_555
C11 C10 1_555 1_555
C12 C7 1_555 1_555
H11 C12 1_555 1_555
C13 O2 1_555 1_555
C14 C9 1_555 1_555
H12 O7 1_555 1_555
H13 O7 1_555 1_555
O8 H14 1_555 1_555
H15 O8 1_555 1_555
Co1_2 O3 1_555 1_555
Co1D N6 1_555 1_555
O3_2 Co1 1_555 1_555
N6D Co1 1_555 1_555
N3 C4 1_555 1_555
N6 C6 1_555 1_555
C1 C2 1_555 1_555
C7 C13 1_555 1_555
C11 C12 1_555 1_555

#END
