
#######################################################################
#
#                 Cambridge Crystallographic Data Centre
#                                CCDC 
#
#######################################################################
#
# If this CIF has been generated from an entry in the Cambridge 
# Structural Database, then it will include bibliographic, chemical, 
# crystal, experimental, refinement or atomic coordinate data resulting 
# from the CCDC's data processing and validation procedures.
#
#######################################################################

data_XIFBUL
_symmetry_cell_setting           orthorhombic
_symmetry_space_group_name_H-M   'P 21 21 21'
_symmetry_Int_Tables_number      19
_space_group_name_Hall           'P 2ac 2ab'
loop_
_symmetry_equiv_pos_site_id
_symmetry_equiv_pos_as_xyz
1 x,y,z
2 1/2-x,-y,1/2+z
3 1/2+x,1/2-y,-z
4 -x,1/2+y,1/2-z
_cell_length_a                   8.9689(9)
_cell_length_b                   15.5671(15)
_cell_length_c                   21.532(2)
_cell_angle_alpha                90
_cell_angle_beta                 90
_cell_angle_gamma                90
_cell_volume                     3006.29
loop_
_atom_site_label
_atom_site_type_symbol
_atom_site_fract_x
_atom_site_fract_y
_atom_site_fract_z
Cd1 Cd 0.30914(4) 0.84272(2) 0.057269(17)
Fe1 Fe -0.46148(9) 0.72527(5) 0.36778(4)
O1 O 0.0591(4) 0.8660(2) 0.03535(17)
N1 N 0.2536(4) 0.7225(3) 0.1196(2)
C1 C -0.2350(6) 0.7374(4) 0.3731(3)
O2 O 0.1551(4) 0.9796(2) 0.08068(18)
N2 N 0.0113(5) 0.5878(3) 0.2942(2)
C2 C -0.3044(7) 0.8182(3) 0.3635(3)
H1 H -0.2877 0.8554 0.3292
O3 O 0.4575(4) 0.9001(2) 0.13368(17)
N3 N -0.0857(6) 0.6136(3) 0.3385(3)
C3 C -0.4016(7) 0.8337(4) 0.4130(3)
H2 H -0.4617 0.8835 0.4181
O4 O 0.5787(4) 0.8035(2) 0.08153(18)
N4 N -0.3827(6) 0.5074(3) 0.2690(2)
C4 C -0.3954(8) 0.7634(5) 0.4538(3)
H3 H -0.4504 0.7576 0.4913
O5 O 0.3291(5) 0.7467(3) -0.02331(19)
N5 N -0.2971(6) 0.4710(3) 0.22447(18)
C5 C -0.2936(7) 0.7029(4) 0.4297(2)
H4 H -0.2685 0.6491 0.4477
N6 N -0.1246(5) 0.5633(3) 0.0234(2)
C6 C -0.5137(6) 0.6419(3) 0.2972(2)
C7 C -0.5703(7) 0.7254(4) 0.2846(3)
H5 H -0.5464 0.7594 0.2493
C8 C -0.6671(7) 0.7493(4) 0.3326(3)
H6 H -0.7192 0.8023 0.3358
C9 C -0.6734(7) 0.6812(4) 0.3751(3)
H7 H -0.7318 0.6801 0.4119
C10 C -0.5789(6) 0.6143(4) 0.3543(3)
H8 H -0.5621 0.5609 0.3745
C11 C -0.4170(6) 0.5904(3) 0.2570(2)
C12 C -0.3477(6) 0.6094(3) 0.2018(2)
H9 H -0.3482 0.6629 0.1805
C13 C -0.2754(6) 0.5331(3) 0.1835(2)
C14 C -0.1861(6) 0.5180(3) 0.1271(2)
C15 C -0.0872(6) 0.4503(4) 0.1212(3)
H10 H -0.0720 0.4118 0.1548
C16 C -0.0110(7) 0.4387(4) 0.0665(3)
H11 H 0.0540 0.3910 0.0614
C17 C -0.0302(6) 0.4973(4) 0.0192(3)
H12 H 0.0259 0.4904 -0.0179
C18 C -0.1993(7) 0.5721(3) 0.0771(2)
H13 H -0.2660 0.6192 0.0807
C19 C -0.1295(6) 0.6969(4) 0.3318(3)
C20 C -0.0540(6) 0.7264(4) 0.2806(2)
H14 H -0.0581 0.7828 0.2638
C21 C 0.0305(5) 0.6573(4) 0.2576(2)
C22 C 0.1310(5) 0.6524(4) 0.2043(2)
C23 C 0.2047(7) 0.5768(3) 0.1898(3)
H15 H 0.1871 0.5261 0.2132
C24 C 0.3031(8) 0.5763(3) 0.1414(3)
H16 H 0.3559 0.5253 0.1313
C25 C 0.3257(7) 0.6500(3) 0.1069(2)
H17 H 0.3944 0.6489 0.0733
C26 C 0.1588(6) 0.7227(3) 0.1671(2)
H18 H 0.1070 0.7745 0.1759
C27 C 0.7017(7) 0.8653(3) 0.1693(3)
H19 H 0.7123 0.9258 0.1811
H20 H 0.7933 0.8457 0.1489
H21 H 0.6837 0.8306 0.2066
C28 C 0.5727(6) 0.8556(3) 0.1255(3)
C29 C -0.0983(6) 0.9887(3) 0.0463(3)
H22 H -0.1285 1.0152 0.0856
H23 H -0.1748 0.9477 0.0330
H24 H -0.0864 1.0333 0.0146
C30 C 0.0485(6) 0.9420(3) 0.0552(3)
H25 H -0.104(6) 0.576(3) 0.3669(19)
H26 H -0.407(6) 0.476(3) 0.3004(17)
H27 H 0.256(4) 0.724(3) -0.044(2)
H28 H 0.413(3) 0.721(3) -0.028(3)
Cd1B Cd -0.19086(4) 0.65728(2) -0.057269(17)
N6B N 0.3754(5) 0.9367(3) -0.0234(2)
O6 O -0.0205(6) 0.4084(3) 0.2803(2)
H29 H 0.005(7) 0.4621(13) 0.284(3)
H30 H -0.102(4) 0.418(4) 0.260(2)
loop_
_geom_bond_atom_site_label_1
_geom_bond_atom_site_label_2
_geom_bond_site_symmetry_1
_geom_bond_site_symmetry_2
Cd1 O1 1_555 1_555
Fe1 C1 1_555 1_555
O1 C30 1_555 1_555
N1 Cd1 1_555 1_555
C1 C2 1_555 1_555
O2 Cd1 1_555 1_555
N2 N3 1_555 1_555
C2 Fe1 1_555 1_555
H1 C2 1_555 1_555
O3 Cd1 1_555 1_555
N3 C19 1_555 1_555
C3 Fe1 1_555 1_555
H2 C3 1_555 1_555
O4 Cd1 1_555 1_555
N4 N5 1_555 1_555
C4 Fe1 1_555 1_555
H3 C4 1_555 1_555
O5 Cd1 1_555 1_555
N5 C13 1_555 1_555
C5 Fe1 1_555 1_555
H4 C5 1_555 1_555
N6 C17 1_555 1_555
C6 Fe1 1_555 1_555
C7 Fe1 1_555 1_555
H5 C7 1_555 1_555
C8 Fe1 1_555 1_555
H6 C8 1_555 1_555
C9 Fe1 1_555 1_555
H7 C9 1_555 1_555
C10 Fe1 1_555 1_555
H8 C10 1_555 1_555
C11 N4 1_555 1_555
C12 C11 1_555 1_555
H9 C12 1_555 1_555
C13 C12 1_555 1_555
C14 C13 1_555 1_555
C15 C14 1_555 1_555
H10 C15 1_555 1_555
C16 C15 1_555 1_555
H11 C16 1_555 1_555
C17 C16 1_555 1_555
H12 C17 1_555 1_555
C18 N6 1_555 1_555
H13 C18 1_555 1_555
C19 C1 1_555 1_555
C20 C19 1_555 1_555
H14 C20 1_555 1_555
C21 N2 1_555 1_555
C22 C21 1_555 1_555
C23 C22 1_555 1_555
H15 C23 1_555 1_555
C24 C23 1_555 1_555
H16 C24 1_555 1_555
C25 N1 1_555 1_555
H17 C25 1_555 1_555
C26 N1 1_555 1_555
H18 C26 1_555 1_555
C27 H19 1_555 1_555
H20 C27 1_555 1_555
H21 C27 1_555 1_555
C28 O3 1_555 1_555
C29 H22 1_555 1_555
H23 C29 1_555 1_555
H24 C29 1_555 1_555
C30 O2 1_555 1_555
H25 N3 1_555 1_555
H26 N4 1_555 1_555
H27 O5 1_555 1_555
H28 O5 1_555 1_555
O6 H29 1_555 1_555
H30 O6 1_555 1_555
Cd1B N6 1_555 1_555
N6B Cd1 1_555 1_555
C1 C5 1_555 1_555
C2 C3 1_555 1_555
C3 C4 1_555 1_555
O4 C28 1_555 1_555
C4 C5 1_555 1_555
C6 C7 1_555 1_555
C6 C10 1_555 1_555
C6 C11 1_555 1_555
C7 C8 1_555 1_555
C8 C9 1_555 1_555
C9 C10 1_555 1_555
C14 C18 1_555 1_555
C20 C21 1_555 1_555
C22 C26 1_555 1_555
C24 C25 1_555 1_555
C27 C28 1_555 1_555
C29 C30 1_555 1_555

#END
