
#######################################################################
#
#                 Cambridge Crystallographic Data Centre
#                                CCDC 
#
#######################################################################
#
# If this CIF has been generated from an entry in the Cambridge 
# Structural Database, then it will include bibliographic, chemical, 
# crystal, experimental, refinement or atomic coordinate data resulting 
# from the CCDC's data processing and validation procedures.
#
#######################################################################

data_XIFBAR
_symmetry_cell_setting           triclinic
_symmetry_space_group_name_H-M   'P -1'
_symmetry_Int_Tables_number      2
_space_group_name_Hall           '-P 1'
loop_
_symmetry_equiv_pos_site_id
_symmetry_equiv_pos_as_xyz
1 x,y,z
2 -x,-y,-z
_cell_length_a                   10.0019(7)
_cell_length_b                   10.1564(4)
_cell_length_c                   10.9316(9)
_cell_angle_alpha                72.504(10)
_cell_angle_beta                 81.728(11)
_cell_angle_gamma                68.363(9)
_cell_volume                     983.787
loop_
_atom_site_label
_atom_site_type_symbol
_atom_site_fract_x
_atom_site_fract_y
_atom_site_fract_z
Co1 Co 0.08976(5) 0.54469(5) 0.70054(5)
O1 O 0.0098(3) 0.7174(2) 0.7789(2)
O2 O 0.1245(3) 0.8484(3) 0.6326(3)
O3 O 0.0852(3) 1.3398(2) 0.6718(2)
O4 O -0.0458(3) 1.4221(2) 0.8299(2)
O5 O -0.2987(3) 1.1216(3) 1.1366(3)
O6 O -0.3303(3) 0.9445(3) 1.0893(3)
O7 O -0.0832(3) 0.6661(3) 0.5748(2)
H1 H -0.073(4) 0.662(4) 0.495(2)
H2 H -0.124(4) 0.761(2) 0.567(4)
N1 N 0.3344(3) 0.3515(3) 1.0331(3)
N2 N 0.4422(3) 0.2865(3) 0.9569(3)
N3 N 0.2459(3) 0.4308(3) 0.8430(3)
N4 N 0.3920(3) 0.4606(3) 1.3964(3)
N5 N 0.3567(3) 0.6097(3) 1.3577(3)
N6 N 0.2405(3) 0.5406(3) 1.5442(3)
N7 N -0.2780(3) 1.0412(3) 1.0669(3)
C1 C 0.3572(4) 0.3267(4) 1.1681(3)
H3 H 0.4009 0.2210 1.2076
H4 H 0.2643 0.3625 1.2126
C2 C 0.4540(4) 0.4049(4) 1.1834(3)
H5 H 0.4044 0.5112 1.1525
H6 H 0.5413 0.3786 1.1290
C3 C 0.4977(4) 0.3691(4) 1.3209(4)
H7 H 0.5112 0.2656 1.3635
H8 H 0.5903 0.3824 1.3190
C4 C 0.3835(4) 0.3374(4) 0.8444(3)
H9 H 0.4332 0.3109 0.7708
C5 C 0.2197(4) 0.4367(4) 0.9638(3)
H10 H 0.1320 0.4932 0.9961
C6 C 0.2651(4) 0.6524(4) 1.4489(3)
H11 H 0.2203 0.7517 1.4484
C7 C 0.3238(4) 0.4217(4) 1.5055(3)
H12 H 0.3322 0.3243 1.5501
C8 C -0.0309(4) 0.9587(3) 0.7884(3)
C9 C 0.0077(4) 1.0837(3) 0.7478(3)
H13 H 0.0725 1.0932 0.6770
C10 C -0.0477(3) 1.1952(3) 0.8099(3)
C11 C -0.1433(3) 1.1820(3) 0.9141(3)
H14 H -0.1805 1.2555 0.9579
C12 C -0.1828(4) 1.0584(3) 0.9523(3)
C13 C -0.1292(4) 0.9464(4) 0.8909(4)
H15 H -0.1589 0.8641 0.9182
C14 C 0.0409(4) 0.8330(4) 0.7266(4)
C15 C -0.0014(3) 1.3279(3) 0.7676(3)
Co1_2 Co 0.08976(5) 0.54469(5) 1.70054(5)
Co1_3 Co 0.08976(5) 1.54469(5) 0.70054(5)
O3_2 O 0.0852(3) 0.3398(2) 0.6718(2)
O4_2 O -0.0458(3) 0.4221(2) 0.8299(2)
N6_2 N 0.2405(3) 0.5406(3) 0.5442(3)
O8 O -0.2683(3) 0.9658(3) 0.5122(3)
H16 H -0.333(4) 1.005(5) 0.568(4)
H17 H -0.222(5) 1.024(5) 0.464(4)
O9 O -0.5390(4) 1.0686(4) 0.6395(4)
H18 H -0.608(4) 1.053(6) 0.608(5)
H19 H -0.571(5) 1.049(6) 0.722(2)
loop_
_geom_bond_atom_site_label_1
_geom_bond_atom_site_label_2
_geom_bond_site_symmetry_1
_geom_bond_site_symmetry_2
Co1 O1 1_555 1_555
O1 C14 1_555 1_555
O2 C14 1_555 1_555
O3 C15 1_555 1_555
O4 C15 1_555 1_555
O5 N7 1_555 1_555
O6 N7 1_555 1_555
O7 Co1 1_555 1_555
H1 O7 1_555 1_555
H2 O7 1_555 1_555
N1 N2 1_555 1_555
N2 C4 1_555 1_555
N3 Co1 1_555 1_555
N4 N5 1_555 1_555
N5 C6 1_555 1_555
N6 C6 1_555 1_555
N7 C12 1_555 1_555
C1 N1 1_555 1_555
H3 C1 1_555 1_555
H4 C1 1_555 1_555
C2 C1 1_555 1_555
H5 C2 1_555 1_555
H6 C2 1_555 1_555
C3 N4 1_555 1_555
H7 C3 1_555 1_555
H8 C3 1_555 1_555
C4 N3 1_555 1_555
H9 C4 1_555 1_555
C5 N1 1_555 1_555
H10 C5 1_555 1_555
C6 H11 1_555 1_555
C7 N4 1_555 1_555
H12 C7 1_555 1_555
C8 C9 1_555 1_555
C9 H13 1_555 1_555
C10 C9 1_555 1_555
C11 C10 1_555 1_555
H14 C11 1_555 1_555
C12 C11 1_555 1_555
C13 C8 1_555 1_555
H15 C13 1_555 1_555
C14 C8 1_555 1_555
C15 C10 1_555 1_555
O8 H16 1_555 1_555
H17 O8 1_555 1_555
O9 H18 1_555 1_555
H19 O9 1_555 1_555
Co1_2 N6 1_555 1_555
Co1_3 O3 1_555 1_555
O3_2 Co1 1_555 1_555
O4_2 Co1 1_555 1_555
N6_2 Co1 1_555 1_555
O4 Co1_3 1_555 1_555
N3 C5 1_555 1_555
N6 C7 1_555 1_555
C2 C3 1_555 1_555
C12 C13 1_555 1_555

#END
