
#######################################################################
#
#                 Cambridge Crystallographic Data Centre
#                                CCDC 
#
#######################################################################
#
# If this CIF has been generated from an entry in the Cambridge 
# Structural Database, then it will include bibliographic, chemical, 
# crystal, experimental, refinement or atomic coordinate data resulting 
# from the CCDC's data processing and validation procedures.
#
#######################################################################

data_XIFCIY
_symmetry_cell_setting           orthorhombic
_symmetry_space_group_name_H-M   'P b c a'
_symmetry_Int_Tables_number      61
_space_group_name_Hall           '-P 2ac 2ab'
loop_
_symmetry_equiv_pos_site_id
_symmetry_equiv_pos_as_xyz
1 x,y,z
2 1/2+x,y,1/2-z
3 x,1/2-y,1/2+z
4 1/2-x,1/2+y,z
5 -x,-y,-z
6 1/2-x,-y,1/2+z
7 -x,1/2+y,1/2-z
8 1/2+x,1/2-y,-z
_cell_length_a                   11.406(2)
_cell_length_b                   16.680(3)
_cell_length_c                   10.922(2)
_cell_angle_alpha                90
_cell_angle_beta                 90
_cell_angle_gamma                90
_cell_volume                     2077.93
loop_
_atom_site_label
_atom_site_type_symbol
_atom_site_fract_x
_atom_site_fract_y
_atom_site_fract_z
Cu1 Cu 0.60741(9) 0.49193(6) 0.06494(9)
S1 S 0.55636(19) 0.42289(11) -0.11742(18)
S2 S 0.72783(19) 0.58073(12) -0.03376(18)
S3 S 0.8488(2) 0.59178(13) -0.27390(19)
S4 S 0.67005(19) 0.47013(12) -0.24234(18)
C5 C 0.7445(6) 0.5519(4) -0.1770(6)
Cu1D Cu 0.39259(9) 0.50807(6) -0.06494(9)
S1D S 0.44364(19) 0.57711(11) 0.11742(18)
S3E S 0.6512(2) 0.40822(13) 0.22610(19)
Cu1E Cu 0.89259(9) 0.50807(6) -0.43506(9)
N1 N 0.9245(5) 0.3170(3) -0.0362(6)
C1 C 0.9385(8) 0.4069(4) -0.0305(8)
H1 H 0.8738 0.4297 0.0136
H2 H 0.9402 0.4283 -0.1121
H3 H 1.0104 0.4199 0.0106
C2 C 1.0323(7) 0.2805(5) -0.0895(9)
H4 H 1.0986 0.2935 -0.0391
H5 H 1.0446 0.3012 -0.1705
H6 H 1.0232 0.2233 -0.0933
C3 C 0.9040(9) 0.2862(5) 0.0885(8)
H7 H 0.8356 0.3114 0.1224
H8 H 0.9707 0.2980 0.1390
H9 H 0.8922 0.2293 0.0854
C4 C 0.8215(8) 0.2982(5) -0.1152(10)
H10 H 0.8140 0.2412 -0.1235
H11 H 0.8325 0.3219 -0.1945
H12 H 0.7518 0.3196 -0.0784
loop_
_geom_bond_atom_site_label_1
_geom_bond_atom_site_label_2
_geom_bond_site_symmetry_1
_geom_bond_site_symmetry_2
Cu1 S1 1_555 1_555
S1 S4 1_555 1_555
S2 Cu1 1_555 1_555
S3 C5 1_555 1_555
S4 C5 1_555 1_555
N1 C1 1_555 1_555
C1 H1 1_555 1_555
H2 C1 1_555 1_555
H3 C1 1_555 1_555
C2 N1 1_555 1_555
H4 C2 1_555 1_555
H5 C2 1_555 1_555
H6 C2 1_555 1_555
C3 N1 1_555 1_555
H7 C3 1_555 1_555
H8 C3 1_555 1_555
H9 C3 1_555 1_555
C4 N1 1_555 1_555
H10 C4 1_555 1_555
H11 C4 1_555 1_555
H12 C4 1_555 1_555
C5 S2 1_555 1_555
Cu1D Cu1 1_555 1_555
S1D Cu1 1_555 1_555
S3E Cu1 1_555 1_555
Cu1E S3 1_555 1_555
S1 Cu1D 1_555 1_555
Cu1D S1D 1_555 1_555

#END
