
#######################################################################
#
#                 Cambridge Crystallographic Data Centre
#                                CCDC 
#
#######################################################################
#
# If this CIF has been generated from an entry in the Cambridge 
# Structural Database, then it will include bibliographic, chemical, 
# crystal, experimental, refinement or atomic coordinate data resulting 
# from the CCDC's data processing and validation procedures.
#
#######################################################################

data_XIFDAT
_symmetry_cell_setting           orthorhombic
_symmetry_space_group_name_H-M   'P n m a'
_symmetry_Int_Tables_number      62
_space_group_name_Hall           '-P 2ac 2n'
loop_
_symmetry_equiv_pos_site_id
_symmetry_equiv_pos_as_xyz
1 x,y,z
2 1/2-x,-y,1/2+z
3 1/2+x,1/2-y,1/2-z
4 -x,1/2+y,-z
5 -x,-y,-z
6 1/2+x,y,1/2-z
7 1/2-x,1/2+y,1/2+z
8 x,1/2-y,z
_cell_length_a                   8.0152(4)
_cell_length_b                   16.7945(7)
_cell_length_c                   13.4928(6)
_cell_angle_alpha                90
_cell_angle_beta                 90
_cell_angle_gamma                90
_cell_volume                     1816.28
loop_
_atom_site_label
_atom_site_type_symbol
_atom_site_fract_x
_atom_site_fract_y
_atom_site_fract_z
I1 I 0.28195(7) -0.05244(3) 0.43322(4)
Cu1 Cu 0.03620(15) 0.2500 0.22398(7)
Cu2 Cu 0.10126(14) 0.2500 -0.14024(7)
N1 N 0.0658(7) 0.1613(4) 0.3252(3)
N2 N 0.0791(7) 0.1785(3) 0.4247(3)
N3 N 0.0548(9) 0.2500 0.0012(6)
N4 N -0.0778(11) 0.2500 -0.2382(6)
C1 C 0.1434(13) 0.0523(5) 0.2136(5)
H1 H 0.0752 0.0815 0.1678
H2 H 0.1056 -0.0019 0.2167
H3 H 0.2574 0.0535 0.1917
C2 C 0.1309(8) 0.0895(4) 0.3150(5)
C3 C 0.1829(8) 0.0598(4) 0.4069(5)
C4 C 0.1484(8) 0.1184(4) 0.4751(4)
C5 C 0.1811(10) 0.1210(5) 0.5843(5)
H4 H 0.2662 0.1597 0.5980
H5 H 0.2176 0.0695 0.6065
H6 H 0.0806 0.1354 0.6186
C6 C -0.0009(12) 0.2500 0.4604(6)
H7 H -0.1166 0.2500 0.4394
H8 H 0.0009 0.2500 0.5323
C7 C 0.0359(12) 0.2500 0.0847(7)
C8 C -0.1829(11) 0.2500 -0.2954(6)
I1G I 0.28195(7) 0.55244(3) 0.43322(4)
N1G N 0.0658(7) 0.3387(4) 0.3252(3)
N2G N 0.0791(7) 0.3215(3) 0.4247(3)
C1G C 0.1434(13) 0.4477(5) 0.2136(5)
H1G H 0.0752 0.4185 0.1678
H2G H 0.1056 0.5019 0.2167
H3G H 0.2574 0.4465 0.1917
C2G C 0.1309(8) 0.4105(4) 0.3150(5)
C3G C 0.1829(8) 0.4402(4) 0.4069(5)
C4G C 0.1484(8) 0.3816(4) 0.4751(4)
C5G C 0.1811(10) 0.3790(5) 0.5843(5)
H4G H 0.2662 0.3403 0.5980
H5G H 0.2176 0.4305 0.6065
H6G H 0.0806 0.3646 0.6186
Cu2B Cu -0.39874(14) 0.2500 -0.35976(7)
C8B C 0.3171(11) 0.2500 -0.2046(6)
loop_
_geom_bond_atom_site_label_1
_geom_bond_atom_site_label_2
_geom_bond_site_symmetry_1
_geom_bond_site_symmetry_2
I1 C3 1_555 1_555
Cu1 N1 1_555 1_555
Cu2 N3 1_555 1_555
N1 N2 1_555 1_555
N2 C4 1_555 1_555
N3 C7 1_555 1_555
N4 Cu2 1_555 1_555
C1 H1 1_555 1_555
H2 C1 1_555 1_555
H3 C1 1_555 1_555
C2 N1 1_555 1_555
C3 C2 1_555 1_555
C4 C3 1_555 1_555
C5 C4 1_555 1_555
H4 C5 1_555 1_555
H5 C5 1_555 1_555
H6 C5 1_555 1_555
C6 N2 1_555 1_555
H7 C6 1_555 1_555
H8 C6 1_555 1_555
C7 Cu1 1_555 1_555
C8 N4 1_555 1_555
I1G C3G 1_555 1_555
N1G Cu1 1_555 1_555
N2G C6 1_555 1_555
C1G H1G 1_555 1_555
H2G C1G 1_555 1_555
H3G C1G 1_555 1_555
C2G N1G 1_555 1_555
C3G C2G 1_555 1_555
C4G N2G 1_555 1_555
C5G C4G 1_555 1_555
H4G C5G 1_555 1_555
H5G C5G 1_555 1_555
H6G C5G 1_555 1_555
Cu2B C8 1_555 1_555
C8B Cu2 1_555 1_555
C1 C2 1_555 1_555
N1G N2G 1_555 1_555
C1G C2G 1_555 1_555
C3G C4G 1_555 1_555

#END
