
#######################################################################
#
#                 Cambridge Crystallographic Data Centre
#                                CCDC 
#
#######################################################################
#
# If this CIF has been generated from an entry in the Cambridge 
# Structural Database, then it will include bibliographic, chemical, 
# crystal, experimental, refinement or atomic coordinate data resulting 
# from the CCDC's data processing and validation procedures.
#
#######################################################################

data_XIFFOJ
_symmetry_cell_setting           monoclinic
_symmetry_space_group_name_H-M   'P 21/c'
_symmetry_Int_Tables_number      14
_space_group_name_Hall           '-P 2ybc'
loop_
_symmetry_equiv_pos_site_id
_symmetry_equiv_pos_as_xyz
1 x,y,z
2 -x,1/2+y,1/2-z
3 -x,-y,-z
4 x,1/2-y,1/2+z
_cell_length_a                   13.591(3)
_cell_length_b                   26.495(5)
_cell_length_c                   7.4948(15)
_cell_angle_alpha                90
_cell_angle_beta                 96.05(3)
_cell_angle_gamma                90
_cell_volume                     2683.8
loop_
_atom_site_label
_atom_site_type_symbol
_atom_site_fract_x
_atom_site_fract_y
_atom_site_fract_z
I1 I 0.49953(3) 0.291612(15) 0.89762(5)
Cu1 Cu 0.40929(5) 0.27057(3) 0.58541(10)
S1 S 0.20557(11) 0.34593(5) 0.6509(2)
N1 N 0.3700(3) 0.33861(16) 0.4664(6)
N2 N 0.2792(4) 0.41500(17) 0.4699(6)
N3 N 0.2646(3) 0.24825(16) 0.6001(6)
N4 N 0.1037(3) 0.26599(16) 0.6823(6)
C1 C 0.2956(4) 0.3670(2) 0.5135(7)
C2 C 0.4270(4) 0.3615(2) 0.3545(8)
H1 H 0.4772 0.3426 0.3119
C3 C 0.4167(4) 0.4111(2) 0.2980(8)
C4 C 0.3394(4) 0.4379(2) 0.3651(7)
C5 C 0.489(6) 0.434(4) 0.181(7)
H2 H 0.5449 0.4473 0.2560
H3 H 0.4574 0.4607 0.1103
H4 H 0.5114 0.4085 0.1037
C6 C 0.3129(5) 0.4915(2) 0.3184(8)
C7 C 0.2133(5) 0.5043(2) 0.2953(8)
H5 H 0.1658 0.4802 0.3145
C8 C 0.1844(5) 0.5526(2) 0.2439(8)
H6 H 0.1174 0.5603 0.2248
C9 C 0.2545(5) 0.5900(2) 0.2202(9)
C10 C 0.3542(5) 0.5774(2) 0.2515(8)
H7 H 0.4019 0.6020 0.2406
C11 C 0.3835(5) 0.5285(2) 0.2988(8)
H8 H 0.4505 0.5205 0.3173
C12 C 0.236(3) 0.6441(4) 0.158(2)
H9 H 0.2069 0.6442 0.0362
H10 H 0.2979 0.6620 0.1671
H11 H 0.1922 0.6602 0.2331
C13 C 0.1927(4) 0.27915(19) 0.6400(7)
C14 C 0.2387(4) 0.19978(19) 0.5882(7)
H12 H 0.2849 0.1770 0.5528
C15 C 0.1487(4) 0.1810(2) 0.6244(7)
C16 C 0.0810(4) 0.2165(2) 0.6810(7)
C17 C 0.1251(5) 0.1251(2) 0.5923(9)
H13 H 0.1733 0.1104 0.5231
H14 H 0.0604 0.1218 0.5282
H15 H 0.1267 0.1080 0.7055
C18 C -0.0186(4) 0.20360(19) 0.7313(7)
C19 C -0.0979(4) 0.2352(2) 0.6769(7)
H16 H -0.0872 0.2645 0.6132
C20 C -0.1928(4) 0.2236(2) 0.7164(8)
H17 H -0.2450 0.2449 0.6781
C21 C -0.2107(4) 0.1799(2) 0.8135(7)
C22 C -0.1299(4) 0.1498(2) 0.8718(7)
H18 H -0.1395 0.1214 0.9408
C23 C -0.0350(4) 0.1609(2) 0.8298(8)
H19 H 0.0175 0.1397 0.8681
C24 C -0.3137(5) 0.1663(3) 0.8496(9)
H20 H -0.3136 0.1332 0.9020
H21 H -0.3563 0.1665 0.7390
H22 H -0.3371 0.1904 0.9309
I1C I 0.49953(3) 0.208388(15) 0.39762(5)
Cu1C Cu 0.40929(5) 0.22943(3) 1.08541(10)
N5 N 0.1322(12) 0.5065(7) 0.772(2)
C27 C 0.2150(12) 0.5077(8) 0.788(3)
C28 C 0.3165(13) 0.4855(8) 0.820(3)
C25? C 0.477(6) 0.428(4) 0.150(7)
H23? H 0.5333 0.4467 0.2005
H24? H 0.4364 0.4491 0.0672
H25? H 0.4979 0.3990 0.0875
C26? C 0.206(3) 0.6404(6) 0.165(2)
H26? H 0.1818 0.6393 0.0402
H27? H 0.2543 0.6669 0.1849
H28? H 0.1524 0.6467 0.2352
loop_
_geom_bond_atom_site_label_1
_geom_bond_atom_site_label_2
_geom_bond_site_symmetry_1
_geom_bond_site_symmetry_2
I1 Cu1 1_555 1_555
Cu1 N1 1_555 1_555
S1 C1 1_555 1_555
N1 C1 1_555 1_555
N2 C1 1_555 1_555
N3 Cu1 1_555 1_555
N4 C13 1_555 1_555
C2 N1 1_555 1_555
H1 C2 1_555 1_555
C3 C2 1_555 1_555
C4 N2 1_555 1_555
C5 C3 1_555 1_555
H2 C5 1_555 1_555
H3 C5 1_555 1_555
H4 C5 1_555 1_555
C6 C4 1_555 1_555
C7 C6 1_555 1_555
H5 C7 1_555 1_555
C8 C7 1_555 1_555
H6 C8 1_555 1_555
C9 C8 1_555 1_555
C10 C9 1_555 1_555
H7 C10 1_555 1_555
C11 C6 1_555 1_555
H8 C11 1_555 1_555
C12 C9 1_555 1_555
H9 C12 1_555 1_555
H10 C12 1_555 1_555
H11 C12 1_555 1_555
C13 S1 1_555 1_555
C14 N3 1_555 1_555
H12 C14 1_555 1_555
C15 C14 1_555 1_555
C16 N4 1_555 1_555
C17 C15 1_555 1_555
H13 C17 1_555 1_555
H14 C17 1_555 1_555
H15 C17 1_555 1_555
C18 C16 1_555 1_555
C19 C18 1_555 1_555
H16 C19 1_555 1_555
C20 C19 1_555 1_555
H17 C20 1_555 1_555
C21 C20 1_555 1_555
C22 C21 1_555 1_555
H18 C22 1_555 1_555
C23 C18 1_555 1_555
H19 C23 1_555 1_555
C24 C21 1_555 1_555
H20 C24 1_555 1_555
H21 C24 1_555 1_555
H22 C24 1_555 1_555
N5 C27 1_555 1_555
C27 C28 1_555 1_555
I1C Cu1 1_555 1_555
Cu1C I1 1_555 1_555
N3 C13 1_555 1_555
C3 C4 1_555 1_555
C10 C11 1_555 1_555
C15 C16 1_555 1_555
C22 C23 1_555 1_555

#END
