
#######################################################################
#
#                 Cambridge Crystallographic Data Centre
#                                CCDC 
#
#######################################################################
#
# If this CIF has been generated from an entry in the Cambridge 
# Structural Database, then it will include bibliographic, chemical, 
# crystal, experimental, refinement or atomic coordinate data resulting 
# from the CCDC's data processing and validation procedures.
#
#######################################################################

data_XIFGAW
_symmetry_cell_setting           monoclinic
_symmetry_space_group_name_H-M   'P 21/n'
_symmetry_Int_Tables_number      14
_space_group_name_Hall           '-P 2yn'
loop_
_symmetry_equiv_pos_site_id
_symmetry_equiv_pos_as_xyz
1 x,y,z
2 1/2-x,1/2+y,1/2-z
3 -x,-y,-z
4 1/2+x,1/2-y,1/2+z
_cell_length_a                   10.1086(9)
_cell_length_b                   9.9364(9)
_cell_length_c                   31.377(3)
_cell_angle_alpha                90
_cell_angle_beta                 91.387(2)
_cell_angle_gamma                90
_cell_volume                     3150.68
loop_
_atom_site_label
_atom_site_type_symbol
_atom_site_fract_x
_atom_site_fract_y
_atom_site_fract_z
Cd1 Cd 0.11049(2) 0.68098(2) 0.116032(7)
Cd2 Cd 0.13923(3) 1.00838(2) 0.153074(7)
N1 N 0.1686(3) 0.6097(3) 0.18363(8)
N2 N -0.0804(3) 0.5621(3) 0.14072(9)
H1 H -0.0745 0.4761 0.1310
N3 N 0.0854(3) 0.7154(3) 0.04377(9)
N4 N 0.2549(3) 0.5199(3) 0.08239(10)
H2 H 0.2055 0.4453 0.0765
N5 N 0.0541(3) 1.2355(3) 0.10511(9)
N6 N 0.0674(3) 0.9269(3) 0.21599(9)
N7 N 0.0534(3) 0.8020(4) 0.28217(11)
N8 N 0.2099(4) 0.6515(3) 0.31693(10)
O1 O 0.2707(2) 0.8376(2) 0.13706(7)
O2 O 0.7158(2) 0.7913(3) 0.24226(8)
O3 O 0.0002(2) 0.8804(2) 0.11483(7)
O4 O -0.3644(2) 1.0995(3) 0.00037(8)
O5 O 0.1390(3) 1.1564(3) 0.09129(7)
O6 O 0.0114(3) 1.2151(2) 0.14181(8)
O7 O 0.0143(3) 1.3314(3) 0.08347(9)
C1 C 0.3793(3) 0.7252(3) 0.19674(10)
C2 C 0.3770(3) 0.8184(3) 0.16268(10)
C3 C 0.4912(3) 0.8962(4) 0.15721(11)
H3 H 0.4926 0.9584 0.1351
C4 C 0.6004(4) 0.8833(4) 0.18348(11)
H4 H 0.6749 0.9354 0.1785
C5 C 0.6018(3) 0.7943(4) 0.21719(11)
C6 C 0.4924(3) 0.7166(3) 0.22367(11)
H5 H 0.4927 0.6567 0.2464
C7 C 0.2720(3) 0.6351(3) 0.20637(10)
H6 H 0.2791 0.5902 0.2323
C8 C 0.0735(4) 0.5131(4) 0.20054(12)
H7 H 0.0818 0.5098 0.2314
H8 H 0.0911 0.4239 0.1895
C9 C -0.0647(4) 0.5569(4) 0.18731(12)
H9 H -0.1285 0.4943 0.1987
H10 H -0.0823 0.6451 0.1991
C10 C -0.2123(4) 0.6131(5) 0.12750(15)
H11 H -0.2156 0.7093 0.1326
H12 H -0.2787 0.5709 0.1449
C11 C -0.2449(5) 0.5865(6) 0.08156(17)
H13 H -0.1762 0.6224 0.0643
H14 H -0.3275 0.6289 0.0739
H15 H -0.2520 0.4913 0.0770
C12 C 0.7218(4) 0.6960(5) 0.27571(14)
H16 H 0.6546 0.7159 0.2959
H17 H 0.8072 0.7001 0.2897
H18 H 0.7076 0.6074 0.2643
C13 C -0.0857(3) 0.8893(3) 0.04222(9)
C14 C -0.0865(3) 0.9277(3) 0.08561(9)
C15 C -0.1825(3) 1.0202(3) 0.09773(11)
H19 H -0.1859 1.0459 0.1262
C16 C -0.2722(3) 1.0745(4) 0.06897(11)
H20 H -0.3339 1.1367 0.0782
C17 C -0.2716(3) 1.0374(4) 0.02630(11)
C18 C -0.1796(3) 0.9462(4) 0.01340(10)
H21 H -0.1787 0.9210 -0.0151
C19 C 0.0048(3) 0.7937(4) 0.02403(10)
H22 H 0.0041 0.7886 -0.0056
C20 C 0.1634(4) 0.6232(5) 0.01808(12)
H23 H 0.1866 0.6671 -0.0083
H24 H 0.1108 0.5443 0.0110
C21 C 0.2873(4) 0.5807(4) 0.04172(13)
H25 H 0.3353 0.5165 0.0247
H26 H 0.3437 0.6584 0.0466
C22 C 0.3702(5) 0.4758(5) 0.10804(16)
H27 H 0.3405 0.4512 0.1361
H28 H 0.4300 0.5516 0.1115
C23 C 0.4470(5) 0.3587(5) 0.09020(18)
H29 H 0.3883 0.2841 0.0852
H30 H 0.5156 0.3327 0.1102
H31 H 0.4859 0.3850 0.0639
C24 C -0.3773(4) 1.0512(5) -0.04192(12)
H32 H -0.2967 1.0679 -0.0566
H33 H -0.4492 1.0967 -0.0563
H34 H -0.3946 0.9562 -0.0415
C25 C 0.0668(3) 0.8642(3) 0.24658(11)
C26 C 0.1410(4) 0.7227(4) 0.29922(11)
Cd2A Cd 0.36077(3) 0.50838(2) 0.346926(7)
N8A N 0.2901(4) 1.1515(3) 0.18307(10)
loop_
_geom_bond_atom_site_label_1
_geom_bond_atom_site_label_2
_geom_bond_site_symmetry_1
_geom_bond_site_symmetry_2
Cd1 N1 1_555 1_555
Cd2 N6 1_555 1_555
N1 C7 1_555 1_555
N2 Cd1 1_555 1_555
H1 N2 1_555 1_555
N3 Cd1 1_555 1_555
N4 Cd1 1_555 1_555
H2 N4 1_555 1_555
N5 O5 1_555 1_555
N6 C25 1_555 1_555
N7 C25 1_555 1_555
N8 C26 1_555 1_555
O1 Cd1 1_555 1_555
O2 C5 1_555 1_555
O3 Cd1 1_555 1_555
O4 C17 1_555 1_555
O5 Cd2 1_555 1_555
O6 Cd2 1_555 1_555
O7 N5 1_555 1_555
C1 C2 1_555 1_555
C2 O1 1_555 1_555
C3 C2 1_555 1_555
H3 C3 1_555 1_555
C4 C3 1_555 1_555
H4 C4 1_555 1_555
C5 C4 1_555 1_555
C6 C1 1_555 1_555
H5 C6 1_555 1_555
C7 C1 1_555 1_555
H6 C7 1_555 1_555
C8 N1 1_555 1_555
H7 C8 1_555 1_555
H8 C8 1_555 1_555
C9 N2 1_555 1_555
H9 C9 1_555 1_555
H10 C9 1_555 1_555
C10 N2 1_555 1_555
H11 C10 1_555 1_555
H12 C10 1_555 1_555
C11 C10 1_555 1_555
H13 C11 1_555 1_555
H14 C11 1_555 1_555
H15 C11 1_555 1_555
C12 O2 1_555 1_555
H16 C12 1_555 1_555
H17 C12 1_555 1_555
H18 C12 1_555 1_555
C13 C14 1_555 1_555
C14 O3 1_555 1_555
C15 C14 1_555 1_555
H19 C15 1_555 1_555
C16 C15 1_555 1_555
H20 C16 1_555 1_555
C17 C16 1_555 1_555
C18 C13 1_555 1_555
H21 C18 1_555 1_555
C19 N3 1_555 1_555
H22 C19 1_555 1_555
C20 N3 1_555 1_555
H23 C20 1_555 1_555
H24 C20 1_555 1_555
C21 N4 1_555 1_555
H25 C21 1_555 1_555
H26 C21 1_555 1_555
C22 N4 1_555 1_555
H27 C22 1_555 1_555
H28 C22 1_555 1_555
C23 C22 1_555 1_555
H29 C23 1_555 1_555
H30 C23 1_555 1_555
H31 C23 1_555 1_555
C24 O4 1_555 1_555
H32 C24 1_555 1_555
H33 C24 1_555 1_555
H34 C24 1_555 1_555
C26 N7 1_555 1_555
Cd2A N8 1_555 1_555
N8A Cd2 1_555 1_555
Cd2 O1 1_555 1_555
Cd2 O3 1_555 1_555
N5 O6 1_555 1_555
C5 C6 1_555 1_555
C8 C9 1_555 1_555
C13 C19 1_555 1_555
C17 C18 1_555 1_555
C20 C21 1_555 1_555

#END
