
#######################################################################
#
#                 Cambridge Crystallographic Data Centre
#                                CCDC 
#
#######################################################################
#
# If this CIF has been generated from an entry in the Cambridge 
# Structural Database, then it will include bibliographic, chemical, 
# crystal, experimental, refinement or atomic coordinate data resulting 
# from the CCDC's data processing and validation procedures.
#
#######################################################################

data_XIFHOL
_symmetry_cell_setting           monoclinic
_symmetry_space_group_name_H-M   'P 21/n'
_symmetry_Int_Tables_number      14
_space_group_name_Hall           '-P 2yn'
loop_
_symmetry_equiv_pos_site_id
_symmetry_equiv_pos_as_xyz
1 x,y,z
2 1/2-x,1/2+y,1/2-z
3 -x,-y,-z
4 1/2+x,1/2-y,1/2+z
_cell_length_a                   10.6712(7)
_cell_length_b                   21.4989(14)
_cell_length_c                   22.9381(15)
_cell_angle_alpha                90
_cell_angle_beta                 96.8120(10)
_cell_angle_gamma                90
_cell_volume                     5225.29
loop_
_atom_site_label
_atom_site_type_symbol
_atom_site_fract_x
_atom_site_fract_y
_atom_site_fract_z
N1 N 1.0203(3) 0.16620(17) 0.55775(17)
C1 C 0.5646(3) 0.01426(16) 0.42179(16)
H1 H 0.5997 -0.0064 0.3898
H2 H 0.5411 -0.0175 0.4485
C2 C 0.6640(3) 0.05658(17) 0.45397(16)
H3 H 0.6341 0.0708 0.4900
H4 H 0.6740 0.0928 0.4298
C3 C 0.4499(3) 0.05008(16) 0.39796(15)
C4 C 0.8791(4) 0.07245(18) 0.50155(17)
N2 N 0.2491(4) 0.1220(2) 0.3535(2)
C5 C 0.8704(4) 0.0868(2) 0.56034(18)
H5 H 0.8164 0.0643 0.5814
C6 C 0.9612(4) 0.1078(2) 0.47277(18)
H6 H 0.9695 0.0997 0.4336
C7 C 0.7929(4) 0.02593(18) 0.46915(19)
H7 H 0.7851 -0.0105 0.4934
H8 H 0.8264 0.0130 0.4336
C8 C 0.9414(5) 0.1340(2) 0.58667(19)
H9 H 0.9344 0.1438 0.6256
C9 C 0.3881(4) 0.0890(2) 0.43321(18)
H10 H 0.4144 0.0909 0.4733
C10 C 1.0302(4) 0.1547(2) 0.5016(2)
H11 H 1.0843 0.1785 0.4817
C11 C 0.2889(4) 0.1245(2) 0.4097(2)
H12 H 0.2490 0.1509 0.4339
C12 C 0.4071(5) 0.0492(2) 0.3385(2)
H13 H 0.4460 0.0242 0.3129
C13 C 0.3066(6) 0.0858(3) 0.3183(2)
H14 H 0.2776 0.0852 0.2785
N3 N 1.2720(3) 0.08145(15) 0.72923(16)
C14 C 0.9452(4) 0.04354(18) 0.81253(19)
H15 H 0.8703 0.0603 0.7898
H16 H 0.9517 0.0617 0.8515
N4 N 0.7499(5) 0.0024(2) 1.00859(17)
C15 C 1.0594(4) 0.06068(17) 0.78371(18)
C16 C 1.0548(4) 0.0582(2) 0.72306(19)
H17 H 0.9792 0.0492 0.7001
C17 C 1.1736(4) 0.07485(18) 0.8158(2)
H18 H 1.1795 0.0779 0.8564
C18 C 0.9329(4) -0.02692(18) 0.81717(17)
H19 H 0.9999 -0.0424 0.8457
H20 H 0.9436 -0.0454 0.7795
C19 C 1.2793(4) 0.08457(19) 0.7872(2)
H21 H 1.3563 0.0934 0.8091
C20 C 0.7864(4) -0.03022(17) 0.89631(16)
C21 C 0.8057(4) -0.04743(19) 0.83520(16)
H22 H 0.7388 -0.0290 0.8084
H23 H 0.7987 -0.0922 0.8311
C22 C 1.1616(5) 0.0689(2) 0.6971(2)
H24 H 1.1577 0.0676 0.6564
C23 C 0.8633(5) -0.0541(2) 0.94393(19)
H25 H 0.9285 -0.0813 0.9382
C24 C 0.6889(5) 0.0088(2) 0.90647(19)
H26 H 0.6346 0.0246 0.8753
C25 C 0.8425(5) -0.0370(3) 0.9999(2)
H27 H 0.8936 -0.0531 1.0320
C26 C 0.6729(6) 0.0240(3) 0.9631(2)
H28 H 0.6067 0.0502 0.9700
O1 O 0.9061(2) 0.30997(12) 0.36958(10)
Mo1 Mo 0.72633(3) 0.236852(12) 0.198414(11)
Mo2 Mo 0.83553(3) 0.200103(13) 0.074973(11)
Mo3 Mo 0.96070(3) 0.335723(13) 0.104147(12)
Mo4 Mo 1.04264(3) 0.214103(13) 0.202134(11)
Mo5 Mo 1.11691(3) 0.362933(14) 0.232529(13)
Mo6 Mo 0.65180(3) 0.087880(13) 0.168738(12)
Mo7 Mo 0.93468(3) 0.248331(13) 0.325987(11)
Mo8 Mo 0.81124(3) 0.112933(14) 0.294877(12)
O2 O 0.8595(2) 0.26421(10) 0.15411(9)
O3 O 0.6579(2) 0.16541(10) 0.23033(9)
O4 O 0.9606(2) 0.26052(11) 0.05959(9)
O5 O 1.1734(2) 0.18047(11) 0.23897(10)
O6 O 0.7630(2) 0.28141(10) 0.26164(9)
O7 O 0.9099(2) 0.18598(10) 0.24631(9)
O8 O 0.7461(2) 0.16426(10) 0.13492(9)
O9 O 0.9728(2) 0.38337(11) 0.17930(10)
O10 O 0.7941(2) 0.06819(10) 0.21936(10)
O11 O 0.5975(2) 0.27263(11) 0.16165(10)
O12 O 1.1081(2) 0.28601(10) 0.16937(10)
O13 O 1.0218(2) 0.28684(10) 0.26582(9)
O14 O 0.9501(3) 0.08058(12) 0.32446(11)
O15 O 1.0632(2) 0.21145(12) 0.36313(10)
O16 O 0.8669(3) 0.13766(12) 0.03285(10)
O17 O 0.7101(2) 0.23658(12) 0.03609(11)
O18 O 1.0743(2) 0.37443(12) 0.07264(11)
N5 N 0.4953(3) 0.14048(13) 0.11186(12)
O19 O 0.8103(2) 0.18797(11) 0.34100(9)
O20 O 1.0091(2) 0.16802(10) 0.13940(9)
O21 O 0.5320(2) 0.05468(13) 0.20000(11)
O22 O 1.2392(3) 0.39529(13) 0.20119(12)
O23 O 0.6703(3) 0.04128(12) 0.10881(11)
O24 O 0.6983(3) 0.07336(13) 0.32567(11)
N6 N -0.2289(3) 0.18448(13) -0.20594(12)
O25 O 0.8218(2) 0.36910(12) 0.07568(11)
O26 O 1.0916(3) 0.41121(12) 0.28903(12)
C27 C 0.5009(4) 0.14467(19) 0.05398(15)
H29 H 0.5649 0.1234 0.0383
C28 C -0.2365(3) 0.18437(18) -0.14804(15)
H30 H -0.3071 0.1667 -0.1344
C29 C 0.4174(4) 0.1786(2) 0.01661(16)
H31 H 0.4247 0.1793 -0.0234
C30 C 0.4022(3) 0.17144(17) 0.13317(15)
H32 H 0.3956 0.1688 0.1732
C31 C -0.0390(3) 0.23699(17) -0.12640(15)
C32 C -0.0317(4) 0.2380(2) -0.18607(17)
H33 H 0.0370 0.2566 -0.2005
C33 C 0.1411(3) 0.21832(18) -0.04501(16)
H34 H 0.0863 0.1924 -0.0244
H35 H 0.1866 0.1916 -0.0694
C34 C -0.1442(4) 0.20924(19) -0.10822(15)
H36 H -0.1527 0.2074 -0.0684
C35 C 0.3219(3) 0.21196(17) 0.03857(16)
C36 C 0.3154(3) 0.20716(18) 0.09870(16)
H37 H 0.2524 0.2281 0.1156
C37 C 0.2346(4) 0.25250(18) -0.00069(17)
H38 H 0.2850 0.2800 -0.0220
H39 H 0.1873 0.2783 0.0237
C38 C -0.1268(3) 0.21135(18) -0.22453(16)
H40 H -0.1198 0.2121 -0.2646
C39 C 0.0619(4) 0.26529(18) -0.08357(17)
H41 H 0.1176 0.2895 -0.1052
H42 H 0.0226 0.2937 -0.0584
Mo5C Mo -0.38309(3) 0.137067(14) -0.267471(13)
N6C N 1.2711(3) 0.31552(13) 0.29406(12)
loop_
_geom_bond_atom_site_label_1
_geom_bond_atom_site_label_2
_geom_bond_site_symmetry_1
_geom_bond_site_symmetry_2
N1 C8 1_555 1_555
C1 H1 1_555 1_555
H2 C1 1_555 1_555
C2 C1 1_555 1_555
H3 C2 1_555 1_555
H4 C2 1_555 1_555
C3 C1 1_555 1_555
C4 C5 1_555 1_555
N2 C11 1_555 1_555
C5 H5 1_555 1_555
C6 C4 1_555 1_555
H6 C6 1_555 1_555
C7 C2 1_555 1_555
H7 C7 1_555 1_555
H8 C7 1_555 1_555
C8 C5 1_555 1_555
H9 C8 1_555 1_555
C9 C3 1_555 1_555
H10 C9 1_555 1_555
C10 N1 1_555 1_555
H11 C10 1_555 1_555
C11 C9 1_555 1_555
H12 C11 1_555 1_555
C12 C3 1_555 1_555
H13 C12 1_555 1_555
C13 N2 1_555 1_555
H14 C13 1_555 1_555
N3 C19 1_555 1_555
C14 H15 1_555 1_555
H16 C14 1_555 1_555
N4 C25 1_555 1_555
C15 C14 1_555 1_555
C16 C15 1_555 1_555
H17 C16 1_555 1_555
C17 C15 1_555 1_555
H18 C17 1_555 1_555
C18 C14 1_555 1_555
H19 C18 1_555 1_555
H20 C18 1_555 1_555
C19 C17 1_555 1_555
H21 C19 1_555 1_555
C20 C21 1_555 1_555
C21 C18 1_555 1_555
H22 C21 1_555 1_555
H23 C21 1_555 1_555
C22 N3 1_555 1_555
H24 C22 1_555 1_555
C23 C20 1_555 1_555
H25 C23 1_555 1_555
C24 C20 1_555 1_555
H26 C24 1_555 1_555
C25 C23 1_555 1_555
H27 C25 1_555 1_555
C26 N4 1_555 1_555
H28 C26 1_555 1_555
O1 Mo7 1_555 1_555
Mo1 O2 1_555 1_555
Mo2 O2 1_555 1_555
Mo3 O2 1_555 1_555
Mo4 O2 1_555 1_555
Mo5 O9 1_555 1_555
Mo6 O3 1_555 1_555
Mo7 O6 1_555 1_555
Mo8 O3 1_555 1_555
O3 Mo1 1_555 1_555
O4 Mo2 1_555 1_555
O5 Mo4 1_555 1_555
O6 Mo1 1_555 1_555
O7 Mo1 1_555 1_555
O8 Mo1 1_555 1_555
O9 Mo3 1_555 1_555
O10 Mo6 1_555 1_555
O11 Mo1 1_555 1_555
O12 Mo3 1_555 1_555
O13 Mo4 1_555 1_555
O14 Mo8 1_555 1_555
O15 Mo7 1_555 1_555
O16 Mo2 1_555 1_555
O17 Mo2 1_555 1_555
O18 Mo3 1_555 1_555
N5 Mo6 1_555 1_555
O19 Mo7 1_555 1_555
O20 Mo2 1_555 1_555
O21 Mo6 1_555 1_555
O22 Mo5 1_555 1_555
O23 Mo6 1_555 1_555
O24 Mo8 1_555 1_555
N6 C28 1_555 1_555
O25 Mo3 1_555 1_555
O26 Mo5 1_555 1_555
C27 N5 1_555 1_555
H29 C27 1_555 1_555
C28 H30 1_555 1_555
C29 C27 1_555 1_555
H31 C29 1_555 1_555
C30 N5 1_555 1_555
H32 C30 1_555 1_555
C31 C32 1_555 1_555
C32 H33 1_555 1_555
C33 H34 1_555 1_555
H35 C33 1_555 1_555
C34 C28 1_555 1_555
H36 C34 1_555 1_555
C35 C29 1_555 1_555
C36 C30 1_555 1_555
H37 C36 1_555 1_555
C37 C33 1_555 1_555
H38 C37 1_555 1_555
H39 C37 1_555 1_555
C38 N6 1_555 1_555
H40 C38 1_555 1_555
C39 C31 1_555 1_555
H41 C39 1_555 1_555
H42 C39 1_555 1_555
Mo5C N6 1_555 1_555
N6C Mo5 1_555 1_555
C4 C7 1_555 1_555
C6 C10 1_555 1_555
C12 C13 1_555 1_555
C16 C22 1_555 1_555
C24 C26 1_555 1_555
Mo2 O8 1_555 1_555
Mo3 O4 1_555 1_555
Mo4 O7 1_555 1_555
Mo4 O12 1_555 1_555
Mo4 O20 1_555 1_555
Mo5 O12 1_555 1_555
Mo5 O13 1_555 1_555
Mo6 O8 1_555 1_555
Mo7 O7 1_555 1_555
Mo7 O13 1_555 1_555
Mo8 O7 1_555 1_555
Mo8 O10 1_555 1_555
Mo8 O19 1_555 1_555
C31 C34 1_555 1_555
C32 C38 1_555 1_555
C33 C39 1_555 1_555
C35 C36 1_555 1_555
C35 C37 1_555 1_555

#END
