
#######################################################################
#
#                 Cambridge Crystallographic Data Centre
#                                CCDC 
#
#######################################################################
#
# If this CIF has been generated from an entry in the Cambridge 
# Structural Database, then it will include bibliographic, chemical, 
# crystal, experimental, refinement or atomic coordinate data resulting 
# from the CCDC's data processing and validation procedures.
#
#######################################################################

data_XIFJIH
_symmetry_cell_setting           monoclinic
_symmetry_space_group_name_H-M   'C 2/c'
_symmetry_Int_Tables_number      15
_space_group_name_Hall           '-C 2yn'
loop_
_symmetry_equiv_pos_site_id
_symmetry_equiv_pos_as_xyz
1 x,y,z
2 -x,y,1/2-z
3 1/2+x,1/2+y,z
4 1/2-x,1/2+y,1/2-z
5 -x,-y,-z
6 x,-y,1/2+z
7 1/2-x,1/2-y,-z
8 1/2+x,1/2-y,1/2+z
_cell_length_a                   18.170(5)
_cell_length_b                   11.067(5)
_cell_length_c                   18.487(5)
_cell_angle_alpha                90
_cell_angle_beta                 118.954(5)
_cell_angle_gamma                90
_cell_volume                     3252.85
loop_
_atom_site_label
_atom_site_type_symbol
_atom_site_fract_x
_atom_site_fract_y
_atom_site_fract_z
Co1 Co 0.0000 0.07018(7) 0.2500
O1 O 0.12781(16) 0.0655(2) 0.27937(16)
O2 O 0.13830(17) 0.1807(3) 0.18541(18)
O3 O 0.28029(18) 0.2108(3) 0.19306(19)
H1 H 0.2302 0.2218 0.1776
O4 O 0.0195(2) 0.1973(3) 0.3410(2)
N1 N 0.4681(2) -0.4306(3) 0.65887(19)
N2 N 0.3724(2) -0.1592(3) 0.4761(2)
N3 N 0.4188(2) -0.1246(3) 0.4472(2)
C1 C 0.1691(3) 0.1099(4) 0.2475(2)
C2 C 0.2602(2) 0.0790(3) 0.2851(2)
C3 C 0.3117(3) 0.1315(4) 0.2558(3)
C4 C 0.3967(3) 0.1001(4) 0.2916(3)
H2 H 0.4304 0.1352 0.2723
C5 C 0.4308(2) 0.0172(4) 0.3552(2)
H3 H 0.4874 -0.0031 0.3790
C6 C 0.3803(2) -0.0360(4) 0.3839(2)
C7 C 0.2957(2) -0.0041(3) 0.3488(2)
H4 H 0.2624 -0.0393 0.3686
C8 C 0.4085(3) -0.2519(4) 0.5383(3)
C9 C 0.4644(3) -0.3346(4) 0.5396(3)
H5 H 0.4834 -0.3325 0.5011
C10 C 0.4925(3) -0.4244(4) 0.6023(3)
H6 H 0.5303 -0.4822 0.6035
C11 C 0.4113(3) -0.3464(4) 0.6530(3)
H7 H 0.3922 -0.3490 0.6915
C12 C 0.3798(3) -0.2563(4) 0.5932(3)
H8 H 0.3402 -0.2011 0.5911
H9 H -0.029(4) 0.207(5) 0.338(3)
H10 H 0.032(4) 0.253(5) 0.338(3)
O1A O -0.12781(16) 0.0655(2) 0.22063(16)
O2A O -0.13830(17) 0.1807(3) 0.31459(18)
O3A O -0.28029(18) 0.2108(3) 0.30694(19)
H1A H -0.2302 0.2218 0.3224
O4A O -0.0195(2) 0.1973(3) 0.1590(2)
N1A N -0.4681(2) -0.4306(3) -0.15887(19)
N2A N -0.3724(2) -0.1592(3) 0.0239(2)
N3A N -0.4188(2) -0.1246(3) 0.0528(2)
C1A C -0.1691(3) 0.1099(4) 0.2525(2)
C2A C -0.2602(2) 0.0790(3) 0.2149(2)
C3A C -0.3117(3) 0.1315(4) 0.2442(3)
C4A C -0.3967(3) 0.1001(4) 0.2084(3)
H2A H -0.4304 0.1352 0.2277
C5A C -0.4308(2) 0.0172(4) 0.1448(2)
H3A H -0.4874 -0.0031 0.1210
C6A C -0.3803(2) -0.0360(4) 0.1161(2)
C7A C -0.2957(2) -0.0041(3) 0.1512(2)
H4A H -0.2624 -0.0393 0.1314
C8A C -0.4085(3) -0.2519(4) -0.0383(3)
C9A C -0.4644(3) -0.3346(4) -0.0396(3)
H5A H -0.4834 -0.3325 -0.0011
C10A C -0.4925(3) -0.4244(4) -0.1023(3)
H6A H -0.5303 -0.4822 -0.1035
C11A C -0.4113(3) -0.3464(4) -0.1530(3)
H7A H -0.3922 -0.3490 -0.1915
C12A C -0.3798(3) -0.2563(4) -0.0932(3)
H8A H -0.3402 -0.2011 -0.0911
H9A H 0.029(4) 0.207(5) 0.162(3)
H10A H -0.032(4) 0.253(5) 0.162(3)
Co1F Co -0.5000 -0.57018(7) -0.2500
Co1F_2 Co 0.5000 -0.57018(7) 0.7500
N1F N 0.0319(2) -0.0694(3) 0.34113(19)
N1G N -0.0319(2) -0.0694(3) 0.15887(19)
O5 O 0.3886(2) 0.1001(3) 0.6315(3)
N4 N 0.2499(2) 0.1069(3) 0.5819(2)
C13 C 0.3273(3) 0.1157(4) 0.6412(3)
H11 H 0.3365 0.1349 0.6939
C14 C 0.2284(4) 0.0767(6) 0.4985(3)
H12 H 0.1683 0.0748 0.4649
H13 H 0.2511 -0.0012 0.4975
H14 H 0.2514 0.1363 0.4773
C15 C 0.1802(3) 0.1245(5) 0.5995(4)
H15 H 0.1277 0.1147 0.5494
H16 H 0.1831 0.2043 0.6210
H17 H 0.1840 0.0659 0.6394
loop_
_geom_bond_atom_site_label_1
_geom_bond_atom_site_label_2
_geom_bond_site_symmetry_1
_geom_bond_site_symmetry_2
Co1 O1 1_555 1_555
O1 C1 1_555 1_555
O2 C1 1_555 1_555
O3 H1 1_555 1_555
O4 Co1 1_555 1_555
N1 C10 1_555 1_555
N2 N3 1_555 1_555
N3 C6 1_555 1_555
C1 C2 1_555 1_555
C2 C3 1_555 1_555
C3 O3 1_555 1_555
C4 C3 1_555 1_555
H2 C4 1_555 1_555
C5 C4 1_555 1_555
H3 C5 1_555 1_555
C6 C5 1_555 1_555
C7 C2 1_555 1_555
H4 C7 1_555 1_555
C8 N2 1_555 1_555
C9 C8 1_555 1_555
H5 C9 1_555 1_555
C10 C9 1_555 1_555
H6 C10 1_555 1_555
C11 N1 1_555 1_555
H7 C11 1_555 1_555
C12 C8 1_555 1_555
H8 C12 1_555 1_555
H9 O4 1_555 1_555
H10 O4 1_555 1_555
O5 C13 1_555 1_555
N4 C13 1_555 1_555
C13 H11 1_555 1_555
C14 N4 1_555 1_555
H12 C14 1_555 1_555
H13 C14 1_555 1_555
H14 C14 1_555 1_555
C15 N4 1_555 1_555
H15 C15 1_555 1_555
H16 C15 1_555 1_555
H17 C15 1_555 1_555
O1A Co1 1_555 1_555
O2A C1A 1_555 1_555
O3A H1A 1_555 1_555
O4A Co1 1_555 1_555
N1A C10A 1_555 1_555
N2A N3A 1_555 1_555
N3A C6A 1_555 1_555
C1A O1A 1_555 1_555
C2A C1A 1_555 1_555
C3A O3A 1_555 1_555
C4A C3A 1_555 1_555
H2A C4A 1_555 1_555
C5A C4A 1_555 1_555
H3A C5A 1_555 1_555
C6A C5A 1_555 1_555
C7A C2A 1_555 1_555
H4A C7A 1_555 1_555
C8A N2A 1_555 1_555
C9A C8A 1_555 1_555
H5A C9A 1_555 1_555
C10A C9A 1_555 1_555
H6A C10A 1_555 1_555
C11A N1A 1_555 1_555
H7A C11A 1_555 1_555
C12A C8A 1_555 1_555
H8A C12A 1_555 1_555
H9A O4A 1_555 1_555
H10A O4A 1_555 1_555
Co1F N1A 1_555 1_555
Co1F_2 N1 1_555 1_555
N1F Co1 1_555 1_555
N1G Co1 1_555 1_555
C6 C7 1_555 1_555
C11 C12 1_555 1_555
C2A C3A 1_555 1_555
C6A C7A 1_555 1_555
C11A C12A 1_555 1_555

#END
