
#######################################################################
#
#                 Cambridge Crystallographic Data Centre
#                                CCDC 
#
#######################################################################
#
# If this CIF has been generated from an entry in the Cambridge 
# Structural Database, then it will include bibliographic, chemical, 
# crystal, experimental, refinement or atomic coordinate data resulting 
# from the CCDC's data processing and validation procedures.
#
#######################################################################

data_XIFJED
_symmetry_cell_setting           triclinic
_symmetry_space_group_name_H-M   'P -1'
_symmetry_Int_Tables_number      2
_space_group_name_Hall           '-P 1'
loop_
_symmetry_equiv_pos_site_id
_symmetry_equiv_pos_as_xyz
1 x,y,z
2 -x,-y,-z
_cell_length_a                   7.9448(12)
_cell_length_b                   11.1929(17)
_cell_length_c                   18.000(3)
_cell_angle_alpha                85.128(2)
_cell_angle_beta                 81.477(2)
_cell_angle_gamma                85.234(2)
_cell_volume                     1573.22
loop_
_atom_site_label
_atom_site_type_symbol
_atom_site_fract_x
_atom_site_fract_y
_atom_site_fract_z
Cd1 Cd 0.24719(8) 0.67367(6) 0.45164(4)
Cd2 Cd 0.25495(9) 0.86364(7) 1.08230(4)
O1 O 0.3443(9) 0.7999(8) 0.9542(4)
O2 O 0.0743(10) 0.8250(10) 0.9944(4)
O3 O 0.1684(9) 0.6721(6) 0.5896(4)
O4 O 0.4353(9) 0.6407(6) 0.5447(4)
O5 O -0.0429(8) 0.6566(6) 0.4493(4)
O6 O 0.1025(8) 0.6888(7) 0.3361(4)
O7 O 0.2556(8) 0.4674(6) 0.4441(4)
H1 H 0.357(4) 0.437(8) 0.442(5)
H2 H 0.195(9) 0.431(8) 0.481(4)
O8 O -0.6074(8) 0.9339(7) 1.1893(4)
O9 O -0.4574(8) 0.8857(7) 1.0814(4)
O10 O 0.2279(9) 1.0682(7) 1.0439(4)
H3 H 0.310(7) 1.076(10) 1.009(4)
H4 H 0.134(6) 1.097(9) 1.031(5)
O11 O 0.3300(11) 0.6714(7) 1.1257(5)
H5 H 0.412(11) 0.657(9) 1.091(5)
H6 H 0.281(13) 0.609(6) 1.144(6)
N1 N -0.5004(9) 0.6703(7) 0.3623(4)
N2 N -0.0006(10) 0.8947(8) 1.1639(4)
N3 N 0.2529(11) 0.8815(8) 0.4471(5)
N4 N 0.2793(14) 1.1264(9) 0.3013(5)
H7 H 0.261(15) 1.206(2) 0.291(5)
H8 H 0.277(15) 1.095(8) 0.257(3)
C1 C 0.2942(12) 0.7209(10) 0.8117(5)
H9 H 0.3597 0.6486 0.8310
H10 H 0.3720 0.7868 0.8006
C2 C 0.2302(12) 0.6945(10) 0.7395(5)
H11 H 0.1636 0.6225 0.7497
H12 H 0.1526 0.7630 0.7242
C3 C 0.1473(13) 0.7566(11) 0.8718(6)
H13 H 0.0762 0.8233 0.8497
H14 H 0.0756 0.6875 0.8848
C4 C 0.1946(13) 0.7950(10) 0.9433(6)
C5 C 0.3725(13) 0.6732(10) 0.6752(5)
H15 H 0.4466 0.7412 0.6697
H16 H 0.4424 0.5996 0.6891
C6 C -0.1914(11) 0.6617(9) 0.3440(5)
C7 C -0.0333(12) 0.6692(8) 0.3780(6)
C8 C 0.3195(13) 0.6597(9) 0.5999(5)
C9 C -0.3529(11) 0.6760(8) 0.3883(5)
H17 H -0.3568 0.6907 0.4398
C10 C -0.4946(12) 0.6515(10) 0.2890(6)
H18 H -0.5989 0.6466 0.2699
C11 C -0.3449(12) 0.6391(9) 0.2407(6)
H19 H -0.3459 0.6276 0.1891
C12 C -0.1900(13) 0.6436(9) 0.2687(6)
H20 H -0.0847 0.6342 0.2362
C13 C -0.1519(13) 0.8907(9) 1.1392(6)
H21 H -0.1527 0.8619 1.0911
C14 C -0.0038(12) 0.9333(10) 1.2319(5)
H22 H 0.1018 0.9362 1.2503
C15 C -0.1500(13) 0.9689(9) 1.2770(6)
H23 H -0.1457 0.9951 1.3255
C16 C -0.3044(12) 0.9261(9) 1.1800(5)
C17 C -0.3053(13) 0.9661(10) 1.2505(6)
H24 H -0.4093 0.9910 1.2802
C18 C -0.4683(12) 0.9163(9) 1.1483(6)
C19 C 0.218(2) 0.9428(11) 0.5092(7)
H25 H 0.2006 0.9003 0.5574
C20 C 0.2709(12) 0.9421(9) 0.3806(6)
H26 H 0.2942 0.8982 0.3369
C21 C 0.208(2) 1.0664(11) 0.5037(8)
H27 H 0.1872 1.1084 0.5482
C22 C 0.2268(17) 1.1295(11) 0.4351(7)
H28 H 0.2188 1.2149 0.4318
C23 C 0.2573(13) 1.0692(9) 0.3709(6)
Cd1_2 Cd -0.75281(8) 0.67367(6) 0.45164(4)
Cd2_2 Cd -0.74505(9) 0.86364(7) 1.08230(4)
O8_2 O 0.3926(8) 0.9339(7) 1.1893(4)
O9_2 O 0.5426(8) 0.8857(7) 1.0814(4)
N1_2 N 0.4996(9) 0.6703(7) 0.3623(4)
O12 O 1.0656(15) 0.4252(13) 0.9300(7)
O13 O 0.6040(14) 0.5688(11) 1.0371(7)
O14 O 0.6665(12) 0.7371(10) 0.8872(6)
H29 H 0.685(19) 0.798(7) 0.908(6)
H30 H 0.65(2) 0.677(7) 0.918(5)
O15 O 0.8412(11) 0.5312(7) 0.8299(5)
H31 H 0.865(16) 0.563(8) 0.785(2)
H32 H 0.837(16) 0.580(7) 0.864(4)
O16 O 0.8713(10) 0.6124(7) 0.6819(4)
H33 H 0.811(11) 0.578(10) 0.655(4)
H34 H 0.961(8) 0.633(10) 0.653(4)
loop_
_geom_bond_atom_site_label_1
_geom_bond_atom_site_label_2
_geom_bond_site_symmetry_1
_geom_bond_site_symmetry_2
Cd1 O3 1_555 1_555
Cd2 O1 1_555 1_555
O1 C4 1_555 1_555
O2 Cd2 1_555 1_555
O3 C8 1_555 1_555
O4 Cd1 1_555 1_555
O5 Cd1 1_555 1_555
O6 Cd1 1_555 1_555
O7 Cd1 1_555 1_555
H1 O7 1_555 1_555
H2 O7 1_555 1_555
O8 C18 1_555 1_555
O9 C18 1_555 1_555
O10 Cd2 1_555 1_555
H3 O10 1_555 1_555
H4 O10 1_555 1_555
O11 Cd2 1_555 1_555
H5 O11 1_555 1_555
H6 O11 1_555 1_555
N1 C9 1_555 1_555
N2 Cd2 1_555 1_555
N3 Cd1 1_555 1_555
N4 H7 1_555 1_555
H8 N4 1_555 1_555
C1 H9 1_555 1_555
H10 C1 1_555 1_555
C2 C1 1_555 1_555
H11 C2 1_555 1_555
H12 C2 1_555 1_555
C3 C1 1_555 1_555
H13 C3 1_555 1_555
H14 C3 1_555 1_555
C4 O2 1_555 1_555
C5 C2 1_555 1_555
H15 C5 1_555 1_555
H16 C5 1_555 1_555
C6 C7 1_555 1_555
C7 O5 1_555 1_555
C8 O4 1_555 1_555
C9 C6 1_555 1_555
H17 C9 1_555 1_555
C10 N1 1_555 1_555
H18 C10 1_555 1_555
C11 C10 1_555 1_555
H19 C11 1_555 1_555
C12 C6 1_555 1_555
H20 C12 1_555 1_555
C13 N2 1_555 1_555
H21 C13 1_555 1_555
C14 N2 1_555 1_555
H22 C14 1_555 1_555
C15 C14 1_555 1_555
H23 C15 1_555 1_555
C16 C13 1_555 1_555
C17 C15 1_555 1_555
H24 C17 1_555 1_555
C18 C16 1_555 1_555
C19 N3 1_555 1_555
H25 C19 1_555 1_555
C20 N3 1_555 1_555
H26 C20 1_555 1_555
C21 C19 1_555 1_555
H27 C21 1_555 1_555
C22 C21 1_555 1_555
H28 C22 1_555 1_555
C23 N4 1_555 1_555
O14 H29 1_555 1_555
H30 O14 1_555 1_555
O15 H31 1_555 1_555
H32 O15 1_555 1_555
O16 H33 1_555 1_555
H34 O16 1_555 1_555
Cd1_2 N1 1_555 1_555
Cd2_2 O8 1_555 1_555
O8_2 Cd2 1_555 1_555
O9_2 Cd2 1_555 1_555
N1_2 Cd1 1_555 1_555
O6 C7 1_555 1_555
O9 Cd2_2 1_555 1_555
C3 C4 1_555 1_555
C5 C8 1_555 1_555
C11 C12 1_555 1_555
C16 C17 1_555 1_555
C20 C23 1_555 1_555
C22 C23 1_555 1_555

#END
