
#######################################################################
#
#                 Cambridge Crystallographic Data Centre
#                                CCDC 
#
#######################################################################
#
# If this CIF has been generated from an entry in the Cambridge 
# Structural Database, then it will include bibliographic, chemical, 
# crystal, experimental, refinement or atomic coordinate data resulting 
# from the CCDC's data processing and validation procedures.
#
#######################################################################

data_XIFJUT
_symmetry_cell_setting           monoclinic
_symmetry_space_group_name_H-M   'C 2/c'
_symmetry_Int_Tables_number      15
_space_group_name_Hall           '-C 2yn'
loop_
_symmetry_equiv_pos_site_id
_symmetry_equiv_pos_as_xyz
1 x,y,z
2 -x,y,1/2-z
3 1/2+x,1/2+y,z
4 1/2-x,1/2+y,1/2-z
5 -x,-y,-z
6 x,-y,1/2+z
7 1/2-x,1/2-y,-z
8 1/2+x,1/2-y,1/2+z
_cell_length_a                   18.423(5)
_cell_length_b                   11.190(7)
_cell_length_c                   18.324(5)
_cell_angle_alpha                90
_cell_angle_beta                 118.351(4)
_cell_angle_gamma                90
_cell_volume                     3324.46
loop_
_atom_site_label
_atom_site_type_symbol
_atom_site_fract_x
_atom_site_fract_y
_atom_site_fract_z
Cd1 Cd 0.5000 0.08099(3) 0.7500
O1 O 0.36353(15) 0.0733(2) 0.71689(17)
O2 O 0.35259(16) 0.1920(3) 0.80869(18)
O3 O 0.21438(17) 0.2209(3) 0.80513(18)
H1 H 0.2634 0.2324 0.8198
N1 N 0.03354(19) -0.4275(3) 0.34778(18)
N2 N 0.1262(2) -0.1551(3) 0.5275(2)
N3 N 0.0801(2) -0.1177(3) 0.5555(2)
C1 C 0.3237(2) 0.1195(3) 0.7488(2)
C2 C 0.2338(2) 0.0868(3) 0.7135(2)
C3 C 0.1842(2) 0.1394(4) 0.7437(2)
C4 C 0.1013(2) 0.1075(4) 0.7104(3)
H2 H 0.0687 0.1419 0.7310
C5 C 0.0675(2) 0.0247(4) 0.6468(2)
H3 H 0.0119 0.0050 0.6238
C6 C 0.1165(2) -0.0291(3) 0.6170(2)
C7 C 0.1998(2) 0.0032(3) 0.6510(2)
H4 H 0.2326 -0.0324 0.6311
C8 C 0.0906(2) -0.2478(4) 0.4658(2)
C9 C 0.1207(2) -0.2577(4) 0.4113(2)
H5 H 0.1609 -0.2053 0.4135
C10 C 0.0902(2) -0.3475(4) 0.3526(2)
H6 H 0.1098 -0.3530 0.3144
C11 C 0.0064(2) -0.4170(3) 0.4029(3)
H7 H -0.0323 -0.4721 0.4009
C12 C 0.0328(2) -0.3276(4) 0.4639(2)
H8 H 0.0122 -0.3224 0.5014
O4 O 0.51340(16) 0.2097(3) 0.85197(18)
H9 H 0.4661(18) 0.227(4) 0.856(3)
H10 H 0.531(3) 0.286(3) 0.844(3)
O1A O 0.63647(15) 0.0733(2) 0.78311(17)
O2A O 0.64741(16) 0.1920(3) 0.69131(18)
O3A O 0.78562(17) 0.2209(3) 0.69487(18)
H1A H 0.7366 0.2324 0.6802
N1A N 0.96646(19) -0.4275(3) 1.15222(18)
N2A N 0.8738(2) -0.1551(3) 0.9725(2)
N3A N 0.9199(2) -0.1177(3) 0.9445(2)
C1A C 0.6763(2) 0.1195(3) 0.7512(2)
C2A C 0.7662(2) 0.0868(3) 0.7865(2)
C3A C 0.8158(2) 0.1394(4) 0.7563(2)
C4A C 0.8987(2) 0.1075(4) 0.7896(3)
H2A H 0.9313 0.1419 0.7690
C5A C 0.9325(2) 0.0247(4) 0.8532(2)
H3A H 0.9881 0.0050 0.8762
C6A C 0.8835(2) -0.0291(3) 0.8830(2)
C7A C 0.8002(2) 0.0032(3) 0.8490(2)
H4A H 0.7674 -0.0324 0.8689
C8A C 0.9094(2) -0.2478(4) 1.0342(2)
C9A C 0.8793(2) -0.2577(4) 1.0887(2)
H5A H 0.8391 -0.2053 1.0865
C10A C 0.9098(2) -0.3475(4) 1.1474(2)
H6A H 0.8902 -0.3530 1.1856
C11A C 0.9936(2) -0.4170(3) 1.0971(3)
H7A H 1.0323 -0.4721 1.0991
C12A C 0.9672(2) -0.3276(4) 1.0361(2)
H8A H 0.9878 -0.3224 0.9986
O4A O 0.48660(16) 0.2097(3) 0.64803(18)
H9A H 0.5339(18) 0.227(4) 0.644(3)
H10A H 0.469(3) 0.286(3) 0.656(3)
Cd1F Cd 0.0000 -0.58099(3) 0.2500
Cd1F_2 Cd 1.0000 -0.58099(3) 1.2500
N1F N 0.46646(19) -0.0725(3) 0.65222(18)
N1G N 0.53354(19) -0.0725(3) 0.84778(18)
O5 O 0.1127(2) 0.1014(3) 0.3829(3)
N4 N 0.2470(2) 0.1048(3) 0.4176(2)
C13 C 0.1678(3) 0.1141(4) 0.3638(3)
H11 H 0.1530 0.1311 0.3089
C14 C 0.3085(3) 0.1156(5) 0.3892(4)
H12 H 0.3626 0.1068 0.4356
H13 H 0.3038 0.1927 0.3644
H14 H 0.2995 0.0544 0.3491
C15 C 0.2750(4) 0.0762(6) 0.5028(3)
H15 H 0.3342 0.0736 0.5316
H16 H 0.2535 -0.0003 0.5067
H17 H 0.2561 0.1361 0.5273
loop_
_geom_bond_atom_site_label_1
_geom_bond_atom_site_label_2
_geom_bond_site_symmetry_1
_geom_bond_site_symmetry_2
Cd1 O1 1_555 1_555
O1 C1 1_555 1_555
O2 C1 1_555 1_555
O3 H1 1_555 1_555
N1 C10 1_555 1_555
N2 N3 1_555 1_555
N3 C6 1_555 1_555
C1 C2 1_555 1_555
C2 C3 1_555 1_555
C3 O3 1_555 1_555
C4 C3 1_555 1_555
H2 C4 1_555 1_555
C5 C4 1_555 1_555
H3 C5 1_555 1_555
C6 C5 1_555 1_555
C7 C2 1_555 1_555
H4 C7 1_555 1_555
C8 N2 1_555 1_555
C9 C8 1_555 1_555
H5 C9 1_555 1_555
C10 C9 1_555 1_555
H6 C10 1_555 1_555
C11 N1 1_555 1_555
H7 C11 1_555 1_555
C12 C8 1_555 1_555
H8 C12 1_555 1_555
O4 Cd1 1_555 1_555
H9 O4 1_555 1_555
H10 O4 1_555 1_555
O5 C13 1_555 1_555
N4 C13 1_555 1_555
C13 H11 1_555 1_555
C14 N4 1_555 1_555
H12 C14 1_555 1_555
H13 C14 1_555 1_555
H14 C14 1_555 1_555
C15 N4 1_555 1_555
H15 C15 1_555 1_555
H16 C15 1_555 1_555
H17 C15 1_555 1_555
O1A Cd1 1_555 1_555
O2A C1A 1_555 1_555
O3A H1A 1_555 1_555
N1A C10A 1_555 1_555
N2A N3A 1_555 1_555
N3A C6A 1_555 1_555
C1A O1A 1_555 1_555
C2A C1A 1_555 1_555
C3A O3A 1_555 1_555
C4A C3A 1_555 1_555
H2A C4A 1_555 1_555
C5A C4A 1_555 1_555
H3A C5A 1_555 1_555
C6A C5A 1_555 1_555
C7A C2A 1_555 1_555
H4A C7A 1_555 1_555
C8A N2A 1_555 1_555
C9A C8A 1_555 1_555
H5A C9A 1_555 1_555
C10A C9A 1_555 1_555
H6A C10A 1_555 1_555
C11A N1A 1_555 1_555
H7A C11A 1_555 1_555
C12A C8A 1_555 1_555
H8A C12A 1_555 1_555
O4A Cd1 1_555 1_555
H9A O4A 1_555 1_555
H10A O4A 1_555 1_555
Cd1F N1 1_555 1_555
Cd1F_2 N1A 1_555 1_555
N1F Cd1 1_555 1_555
N1G Cd1 1_555 1_555
C6 C7 1_555 1_555
C11 C12 1_555 1_555
C2A C3A 1_555 1_555
C6A C7A 1_555 1_555
C11A C12A 1_555 1_555

#END
