
#######################################################################
#
#                 Cambridge Crystallographic Data Centre
#                                CCDC 
#
#######################################################################
#
# If this CIF has been generated from an entry in the Cambridge 
# Structural Database, then it will include bibliographic, chemical, 
# crystal, experimental, refinement or atomic coordinate data resulting 
# from the CCDC's data processing and validation procedures.
#
#######################################################################

data_XIFKII
_symmetry_cell_setting           orthorhombic
_symmetry_space_group_name_H-M   'P 21 21 21'
_symmetry_Int_Tables_number      19
_space_group_name_Hall           'P 2ac 2ab'
loop_
_symmetry_equiv_pos_site_id
_symmetry_equiv_pos_as_xyz
1 x,y,z
2 1/2-x,-y,1/2+z
3 1/2+x,1/2-y,-z
4 -x,1/2+y,1/2-z
_cell_length_a                   8.6820(2)
_cell_length_b                   9.5640(2)
_cell_length_c                   16.6110(3)
_cell_angle_alpha                90
_cell_angle_beta                 90
_cell_angle_gamma                90
_cell_volume                     1379.29
loop_
_atom_site_label
_atom_site_type_symbol
_atom_site_fract_x
_atom_site_fract_y
_atom_site_fract_z
Ca1 Ca 0.88899(3) 0.21427(2) 0.056650(14)
O1 O 0.61588(10) 0.22174(10) 0.03589(5)
C1 C 0.58419(14) 0.09270(13) 0.15765(7)
C2 C 0.52265(14) 0.17405(13) 0.08673(7)
N1 N 0.73485(13) 0.06202(12) 0.15434(7)
O2 O 1.09430(12) 0.14442(13) 0.14148(6)
O3 O 0.93098(19) 0.47117(13) 0.07960(7)
C3 C 0.55138(19) -0.03332(18) 0.28018(9)
H1 H 0.4905 -0.0631 0.3230
C4 C 0.48944(16) 0.04832(16) 0.21957(8)
H2 H 0.3858 0.0730 0.2204
C5 C 0.70423(19) -0.06974(18) 0.27615(9)
H3 H 0.7481 -0.1266 0.3154
O4 O 0.8802(2) 0.59431(13) 0.18562(8)
N2 N 0.87910(16) 0.48160(13) 0.14926(7)
O5 O 0.82779(18) 0.37347(14) 0.18020(8)
C6 C 0.79191(17) -0.02008(16) 0.21241(9)
H4 H 0.8953 -0.0451 0.2099
O6 O 0.37931(10) 0.18829(11) 0.07967(5)
O7 O 0.90704(15) -0.00012(11) -0.00992(7)
N3 N 0.8445(2) -0.19812(15) -0.07607(8)
C7 C 0.8117(2) -0.07662(17) -0.04250(9)
H5 H 0.7097 -0.0469 -0.0435
C8 C 0.7265(3) -0.2803(3) -0.11641(17)
H6 H 0.6286 -0.2345 -0.1110
H7 H 0.7211 -0.3715 -0.0924
H8 H 0.7518 -0.2893 -0.1724
C9 C 1.0019(3) -0.2500(3) -0.07697(15)
H9 H 1.0701 -0.1786 -0.0573
H10 H 1.0302 -0.2744 -0.1310
H11 H 1.0094 -0.3311 -0.0431
H12 H 1.100(2) 0.123(2) 0.1906(13)
H13 H 1.189(3) 0.154(2) 0.1264(13)
Ca1B Ca 0.38899(3) 0.28573(2) -0.056650(14)
O1B O 1.11588(10) 0.27826(10) -0.03589(5)
O6B O 0.87931(10) 0.31171(11) -0.07967(5)
loop_
_geom_bond_atom_site_label_1
_geom_bond_atom_site_label_2
_geom_bond_site_symmetry_1
_geom_bond_site_symmetry_2
Ca1 O1 1_555 1_555
O1 C2 1_555 1_555
C1 C2 1_555 1_555
C2 O6 1_555 1_555
N1 Ca1 1_555 1_555
O2 Ca1 1_555 1_555
O3 Ca1 1_555 1_555
C3 H1 1_555 1_555
C4 C1 1_555 1_555
H2 C4 1_555 1_555
C5 C3 1_555 1_555
H3 C5 1_555 1_555
O4 N2 1_555 1_555
N2 O3 1_555 1_555
O5 Ca1 1_555 1_555
C6 N1 1_555 1_555
H4 C6 1_555 1_555
O6 Ca1B 1_555 1_555
O7 Ca1 1_555 1_555
N3 C7 1_555 1_555
C7 O7 1_555 1_555
H5 C7 1_555 1_555
C8 N3 1_555 1_555
H6 C8 1_555 1_555
H7 C8 1_555 1_555
H8 C8 1_555 1_555
C9 N3 1_555 1_555
H9 C9 1_555 1_555
H10 C9 1_555 1_555
H11 C9 1_555 1_555
H12 O2 1_555 1_555
H13 O2 1_555 1_555
Ca1B O1 1_555 1_555
O1B Ca1 1_555 1_555
O6B Ca1 1_555 1_555
C1 N1 1_555 1_555
C3 C4 1_555 1_555
C5 C6 1_555 1_555
N2 O5 1_555 1_555

#END
