
#######################################################################
#
#                 Cambridge Crystallographic Data Centre
#                                CCDC 
#
#######################################################################
#
# If this CIF has been generated from an entry in the Cambridge 
# Structural Database, then it will include bibliographic, chemical, 
# crystal, experimental, refinement or atomic coordinate data resulting 
# from the CCDC's data processing and validation procedures.
#
#######################################################################

data_XIFKAA
_symmetry_cell_setting           monoclinic
_symmetry_space_group_name_H-M   'C 2/c'
_symmetry_Int_Tables_number      15
_space_group_name_Hall           '-C 2yn'
loop_
_symmetry_equiv_pos_site_id
_symmetry_equiv_pos_as_xyz
1 x,y,z
2 -x,y,1/2-z
3 1/2+x,1/2+y,z
4 1/2-x,1/2+y,1/2-z
5 -x,-y,-z
6 x,-y,1/2+z
7 1/2-x,1/2-y,-z
8 1/2+x,1/2-y,1/2+z
_cell_length_a                   18.151(5)
_cell_length_b                   11.169(5)
_cell_length_c                   18.400(5)
_cell_angle_alpha                90
_cell_angle_beta                 118.825(5)
_cell_angle_gamma                90
_cell_volume                     3268.02
loop_
_atom_site_label
_atom_site_type_symbol
_atom_site_fract_x
_atom_site_fract_y
_atom_site_fract_z
Zn1 Zn 0.0000 0.07086(6) 0.2500
O1 O -0.12897(16) 0.0662(2) 0.21924(16)
O2 O -0.14053(17) 0.1819(3) 0.31250(18)
O3 O -0.28265(18) 0.2127(3) 0.30424(19)
H1 H -0.2326 0.2238 0.3197
N1 N -0.46709(19) -0.4310(3) -0.15804(19)
N2 N -0.3724(2) -0.1613(3) 0.0247(2)
N3 N -0.4194(2) -0.1257(3) 0.0530(2)
C1 C -0.1705(2) 0.1113(4) 0.2509(2)
C2 C -0.2616(2) 0.0788(3) 0.2135(2)
C3 C -0.3135(2) 0.1321(4) 0.2422(2)
C4 C -0.3983(2) 0.1004(4) 0.2069(3)
H2 H -0.4324 0.1360 0.2256
C5 C -0.4315(2) 0.0166(4) 0.1445(2)
H3 H -0.4879 -0.0043 0.1212
C6 C -0.3808(2) -0.0372(4) 0.1160(2)
C7 C -0.2969(2) -0.0046(4) 0.1506(2)
H4 H -0.2636 -0.0399 0.1310
C8 C -0.4083(2) -0.2538(4) -0.0371(3)
C9 C -0.4658(3) -0.3353(4) -0.0398(2)
H5 H -0.4861 -0.3323 -0.0021
C10 C -0.4929(3) -0.4239(4) -0.1017(3)
H6 H -0.5311 -0.4808 -0.1033
C11 C -0.4105(2) -0.3483(4) -0.1525(3)
H7 H -0.3915 -0.3512 -0.1913
C12 C -0.3787(3) -0.2591(4) -0.0927(3)
H8 H -0.3387 -0.2050 -0.0905
O4 O 0.0187(2) 0.1955(3) 0.3419(2)
H9 H 0.033(3) 0.245(4) 0.339(3)
H10 H -0.031(4) 0.214(5) 0.336(4)
O1A O 0.12897(16) 0.0662(2) 0.28076(16)
O2A O 0.14053(17) 0.1819(3) 0.18750(18)
O3A O 0.28265(18) 0.2127(3) 0.19576(19)
H1A H 0.2326 0.2238 0.1803
N1A N 0.46709(19) -0.4310(3) 0.65804(19)
N2A N 0.3724(2) -0.1613(3) 0.4753(2)
N3A N 0.4194(2) -0.1257(3) 0.4470(2)
C1A C 0.1705(2) 0.1113(4) 0.2491(2)
C2A C 0.2616(2) 0.0788(3) 0.2865(2)
C3A C 0.3135(2) 0.1321(4) 0.2578(2)
C4A C 0.3983(2) 0.1004(4) 0.2931(3)
H2A H 0.4324 0.1360 0.2744
C5A C 0.4315(2) 0.0166(4) 0.3555(2)
H3A H 0.4879 -0.0043 0.3788
C6A C 0.3808(2) -0.0372(4) 0.3840(2)
C7A C 0.2969(2) -0.0046(4) 0.3494(2)
H4A H 0.2636 -0.0399 0.3690
C8A C 0.4083(2) -0.2538(4) 0.5371(3)
C9A C 0.4658(3) -0.3353(4) 0.5398(2)
H5A H 0.4861 -0.3323 0.5021
C10A C 0.4929(3) -0.4239(4) 0.6017(3)
H6A H 0.5311 -0.4808 0.6033
C11A C 0.4105(2) -0.3483(4) 0.6525(3)
H7A H 0.3915 -0.3512 0.6913
C12A C 0.3787(3) -0.2591(4) 0.5927(3)
H8A H 0.3387 -0.2050 0.5905
O4A O -0.0187(2) 0.1955(3) 0.1581(2)
H9A H -0.033(3) 0.245(4) 0.161(3)
H10A H 0.031(4) 0.214(5) 0.164(4)
Zn1F Zn -0.5000 -0.57086(6) -0.2500
Zn1F_2 Zn 0.5000 -0.57086(6) 0.7500
N1F N -0.03291(19) -0.0690(3) 0.15804(19)
N1G N 0.03291(19) -0.0690(3) 0.34196(19)
O5 O -0.3900(2) 0.1038(4) -0.1313(3)
N4 N -0.2516(2) 0.1068(3) -0.0820(2)
C13 C -0.3285(3) 0.1173(5) -0.1417(3)
H11 H -0.3374 0.1359 -0.1946
C14 C -0.2274(4) 0.0793(6) 0.0021(4)
H12 H -0.1671 0.0768 0.0339
H13 H -0.2500 0.0028 0.0048
H14 H -0.2486 0.1397 0.0243
C15 C -0.1824(4) 0.1205(6) -0.1022(4)
H15 H -0.1295 0.1107 -0.0527
H16 H -0.1850 0.1988 -0.1248
H17 H -0.1879 0.0609 -0.1421
loop_
_geom_bond_atom_site_label_1
_geom_bond_atom_site_label_2
_geom_bond_site_symmetry_1
_geom_bond_site_symmetry_2
Zn1 O1 1_555 1_555
O1 C1 1_555 1_555
O2 C1 1_555 1_555
O3 H1 1_555 1_555
N1 C10 1_555 1_555
N2 N3 1_555 1_555
N3 C6 1_555 1_555
C1 C2 1_555 1_555
C2 C3 1_555 1_555
C3 O3 1_555 1_555
C4 C3 1_555 1_555
H2 C4 1_555 1_555
C5 C4 1_555 1_555
H3 C5 1_555 1_555
C6 C5 1_555 1_555
C7 C2 1_555 1_555
H4 C7 1_555 1_555
C8 N2 1_555 1_555
C9 C8 1_555 1_555
H5 C9 1_555 1_555
C10 C9 1_555 1_555
H6 C10 1_555 1_555
C11 N1 1_555 1_555
H7 C11 1_555 1_555
C12 C8 1_555 1_555
H8 C12 1_555 1_555
O4 Zn1 1_555 1_555
H9 O4 1_555 1_555
H10 O4 1_555 1_555
O5 C13 1_555 1_555
N4 C13 1_555 1_555
C13 H11 1_555 1_555
C14 N4 1_555 1_555
H12 C14 1_555 1_555
H13 C14 1_555 1_555
H14 C14 1_555 1_555
C15 N4 1_555 1_555
H15 C15 1_555 1_555
H16 C15 1_555 1_555
H17 C15 1_555 1_555
O1A Zn1 1_555 1_555
O2A C1A 1_555 1_555
O3A H1A 1_555 1_555
N1A C10A 1_555 1_555
N2A N3A 1_555 1_555
N3A C6A 1_555 1_555
C1A O1A 1_555 1_555
C2A C1A 1_555 1_555
C3A O3A 1_555 1_555
C4A C3A 1_555 1_555
H2A C4A 1_555 1_555
C5A C4A 1_555 1_555
H3A C5A 1_555 1_555
C6A C5A 1_555 1_555
C7A C2A 1_555 1_555
H4A C7A 1_555 1_555
C8A N2A 1_555 1_555
C9A C8A 1_555 1_555
H5A C9A 1_555 1_555
C10A C9A 1_555 1_555
H6A C10A 1_555 1_555
C11A N1A 1_555 1_555
H7A C11A 1_555 1_555
C12A C8A 1_555 1_555
H8A C12A 1_555 1_555
O4A Zn1 1_555 1_555
H9A O4A 1_555 1_555
H10A O4A 1_555 1_555
Zn1F N1 1_555 1_555
Zn1F_2 N1A 1_555 1_555
N1F Zn1 1_555 1_555
N1G Zn1 1_555 1_555
C6 C7 1_555 1_555
C11 C12 1_555 1_555
C2A C3A 1_555 1_555
C6A C7A 1_555 1_555
C11A C12A 1_555 1_555

#END
