
#######################################################################
#
#                 Cambridge Crystallographic Data Centre
#                                CCDC 
#
#######################################################################
#
# If this CIF has been generated from an entry in the Cambridge 
# Structural Database, then it will include bibliographic, chemical, 
# crystal, experimental, refinement or atomic coordinate data resulting 
# from the CCDC's data processing and validation procedures.
#
#######################################################################

data_XIFLOP
_symmetry_cell_setting           tetragonal
_symmetry_space_group_name_H-M   'P 42/n m c'
_symmetry_Int_Tables_number      137
_space_group_name_Hall           '-P 4ac 2a'
loop_
_symmetry_equiv_pos_site_id
_symmetry_equiv_pos_as_xyz
1 x,y,z
2 1/2-x,1/2-y,z
3 1/2-y,x,1/2+z
4 y,1/2-x,1/2+z
5 -x,1/2+y,-z
6 1/2+x,-y,-z
7 1/2+y,1/2+x,1/2-z
8 -y,-x,1/2-z
9 -x,-y,-z
10 1/2+x,1/2+y,-z
11 1/2+y,-x,1/2-z
12 -y,1/2+x,1/2-z
13 x,1/2-y,z
14 1/2-x,y,z
15 1/2-y,1/2-x,1/2+z
16 y,x,1/2+z
_cell_length_a                   16.1780(2)
_cell_length_b                   16.1780(2)
_cell_length_c                   6.8377(2)
_cell_angle_alpha                90
_cell_angle_beta                 90
_cell_angle_gamma                90
_cell_volume                     1789.62
loop_
_atom_site_label
_atom_site_type_symbol
_atom_site_fract_x
_atom_site_fract_y
_atom_site_fract_z
O3 O 0.1807(4) 0.2500 -0.8068(12)
Cd1 Cd 0.45721(2) 0.54279(2) 0.2500
N1 N 0.3187(3) 0.5277(3) 0.2164(7)
O1 O 0.3294(3) 0.4197(4) -0.2447(8)
O2 O 0.4269(2) 0.4814(3) -0.0688(6)
C1 C 0.2500 0.5908(7) 0.5040(14)
C2 C 0.3534(3) 0.4615(4) -0.0963(9)
C3 C 0.2930(3) 0.4893(3) 0.0488(8)
C4 C 0.2500 0.5492(5) 0.3127(13)
C5 C 0.1791(10) 0.6191(14) 0.600(3)
N1M N 0.1813(3) 0.5277(3) 0.2164(7)
O1M O 0.1706(3) 0.4197(4) -0.2447(8)
O2M O 0.0731(2) 0.4814(3) -0.0688(6)
C2M C 0.1466(3) 0.4615(4) -0.0963(9)
C3M C 0.2070(3) 0.4893(3) 0.0488(8)
C5M C 0.3209(10) 0.6191(14) 0.600(3)
Cd1B Cd -0.04279(2) 0.45721(2) -0.2500
Cd1H Cd 0.54279(2) 0.45721(2) -0.2500
Cd1J Cd 0.04279(2) 0.54279(2) 0.2500
N1G N 0.4723(3) 0.6813(3) 0.2836(7)
O2G O 0.5186(3) 0.5731(2) 0.5688(6)
O2H O 0.5731(2) 0.5186(3) 0.0688(6)
O2O O 0.4814(3) 0.4269(2) 0.4312(6)
loop_
_geom_bond_atom_site_label_1
_geom_bond_atom_site_label_2
_geom_bond_site_symmetry_1
_geom_bond_site_symmetry_2
Cd1 N1 1_555 1_555
N1 C3 1_555 1_555
O1 C2 1_555 1_555
O2 Cd1 1_555 1_555
C1 C4 1_555 1_555
C2 O2 1_555 1_555
C3 C2 1_555 1_555
C4 N1 1_555 1_555
C5 C1 1_555 1_555
N1M C4 1_555 1_555
O1M C2M 1_555 1_555
O2M C2M 1_555 1_555
C2M C3M 1_555 1_555
C3M C3 1_555 1_555
C5M C1 1_555 1_555
Cd1B O2M 1_555 1_555
Cd1H O2 1_555 1_555
Cd1J N1M 1_555 1_555
N1G Cd1 1_555 1_555
O2G Cd1 1_555 1_555
O2H Cd1 1_555 1_555
O2O Cd1 1_555 1_555
N1M C3M 1_555 1_555
O2M Cd1J 1_555 1_555
Cd1H O2H 1_555 1_555

#END
