
#######################################################################
#
#                 Cambridge Crystallographic Data Centre
#                                CCDC 
#
#######################################################################
#
# If this CIF has been generated from an entry in the Cambridge 
# Structural Database, then it will include bibliographic, chemical, 
# crystal, experimental, refinement or atomic coordinate data resulting 
# from the CCDC's data processing and validation procedures.
#
#######################################################################

data_XIFNAB
_symmetry_cell_setting           monoclinic
_symmetry_space_group_name_H-M   'C 2/c'
_symmetry_Int_Tables_number      15
_space_group_name_Hall           '-C 2yn'
loop_
_symmetry_equiv_pos_site_id
_symmetry_equiv_pos_as_xyz
1 x,y,z
2 1/2+x,1/2+y,z
3 x,-y,1/2+z
4 1/2+x,1/2-y,1/2+z
5 -x,-y,-z
6 1/2-x,1/2-y,-z
7 -x,y,1/2-z
8 1/2-x,1/2+y,1/2-z
_cell_length_a                   14.678(3)
_cell_length_b                   11.866(2)
_cell_length_c                   19.655(4)
_cell_angle_alpha                90
_cell_angle_beta                 102.17(3)
_cell_angle_gamma                90
_cell_volume                     3346.36
loop_
_atom_site_label
_atom_site_type_symbol
_atom_site_fract_x
_atom_site_fract_y
_atom_site_fract_z
Cd1 Cd 0.0000 0.11623(3) 0.2500
P1 P 0.08988(6) 0.07721(7) 0.11684(4)
S1 S -0.04713(5) 0.10302(8) 0.11081(4)
S2 S 0.16729(5) 0.11043(7) 0.21226(4)
N1 N 0.0000 0.3176(3) 0.2500
C1 C 0.0758(3) 0.3756(3) 0.2480(2)
C2 C 0.0787(3) 0.4925(3) 0.2481(2)
C3 C 0.0000 0.5528(4) 0.2500
C4 C 0.0000 0.6776(3) 0.2500
C5 C -0.0788(2) 0.7383(3) 0.22180(19)
C6 C -0.0757(2) 0.8548(3) 0.22234(18)
N2 N 0.0000 0.9122(3) 0.2500
C7 C 0.1254(3) 0.1636(4) 0.0503(2)
C8 C 0.1041(3) 0.2892(4) 0.0521(3)
C9 C 0.1896(6) 0.3554(6) 0.0922(4)
C10 C 0.0770(6) 0.3335(7) -0.0250(5)
C11 C 0.1061(3) -0.0694(3) 0.0940(2)
C12 C 0.2017(3) -0.1239(3) 0.1152(2)
C13 C 0.2712(4) -0.0761(6) 0.0767(4)
C14 C 0.1934(5) -0.2514(4) 0.1057(4)
H1 H 0.129(3) 0.335(3) 0.251(2)
H2 H 0.132(2) 0.524(3) 0.2487(18)
H3 H -0.134(2) 0.708(3) 0.2048(14)
H4 H -0.128(2) 0.896(3) 0.2027(16)
H5 H 0.193(2) 0.153(3) 0.0571(16)
H6 H 0.095(3) 0.133(3) 0.007(2)
H7 H 0.069(3) 0.329(4) 0.086(2)
H8 H 0.208(4) 0.341(5) 0.143(4)
H9 H 0.160(5) 0.438(7) 0.097(4)
H10 H 0.230(6) 0.361(7) 0.066(5)
H11 H 0.127(5) 0.307(6) -0.044(4)
H12 H 0.064(5) 0.405(6) -0.007(4)
H13 H 0.083(2) -0.076(3) 0.0411(18)
H14 H 0.067(2) -0.110(3) 0.1140(18)
H15 H 0.222(2) -0.114(3) 0.1603(17)
H16 H 0.321(3) -0.121(4) 0.081(2)
H17 H 0.249(3) -0.087(3) 0.027(2)
H18 H 0.278(3) -0.004(4) 0.089(2)
H19 H 0.166(3) -0.263(3) 0.055(2)
H20 H 0.253(3) -0.283(4) 0.117(2)
H21 H 0.150(3) -0.278(4) 0.123(3)
C2F C -0.0787(3) 0.4925(3) 0.2519(2)
C1F C -0.0758(3) 0.3756(3) 0.2520(2)
H1F H -0.129(3) 0.335(3) 0.249(2)
H2F H -0.132(2) 0.524(3) 0.2513(18)
C6F C 0.0757(2) 0.8548(3) 0.27766(18)
C5F C 0.0788(2) 0.7383(3) 0.27820(19)
H3F H 0.134(2) 0.708(3) 0.2952(14)
H4F H 0.128(2) 0.896(3) 0.2973(16)
P1F P -0.08988(6) 0.07721(7) 0.38316(4)
S1F S 0.04713(5) 0.10302(8) 0.38919(4)
S2F S -0.16729(5) 0.11043(7) 0.28774(4)
C7F C -0.1254(3) 0.1636(4) 0.4497(2)
C8F C -0.1041(3) 0.2892(4) 0.4479(3)
C9F C -0.1896(6) 0.3554(6) 0.4078(4)
C10F C -0.0770(6) 0.3335(7) 0.5250(5)
C11F C -0.1061(3) -0.0694(3) 0.4060(2)
C12F C -0.2017(3) -0.1239(3) 0.3848(2)
C13F C -0.2712(4) -0.0761(6) 0.4233(4)
C14F C -0.1934(5) -0.2514(4) 0.3943(4)
H5F H -0.193(2) 0.153(3) 0.4429(16)
H6F H -0.095(3) 0.133(3) 0.493(2)
H7F H -0.069(3) 0.329(4) 0.414(2)
H8F H -0.208(4) 0.341(5) 0.357(4)
H9F H -0.160(5) 0.438(7) 0.403(4)
H10F H -0.230(6) 0.361(7) 0.434(5)
H11F H -0.127(5) 0.307(6) 0.544(4)
H12F H -0.064(5) 0.405(6) 0.507(4)
H13F H -0.083(2) -0.076(3) 0.4589(18)
H14F H -0.067(2) -0.110(3) 0.3860(18)
H15F H -0.222(2) -0.114(3) 0.3397(17)
H16F H -0.321(3) -0.121(4) 0.419(2)
H17F H -0.249(3) -0.087(3) 0.473(2)
H18F H -0.278(3) -0.004(4) 0.411(2)
H19F H -0.166(3) -0.263(3) 0.445(2)
H20F H -0.253(3) -0.283(4) 0.383(2)
H21F H -0.150(3) -0.278(4) 0.377(3)
N2_2 N 0.0000 -0.0878(3) 0.2500
Cd1_2 Cd 0.0000 1.11623(3) 0.2500
loop_
_geom_bond_atom_site_label_1
_geom_bond_atom_site_label_2
_geom_bond_site_symmetry_1
_geom_bond_site_symmetry_2
Cd1 S1 1_555 1_555
P1 S1 1_555 1_555
S2 Cd1 1_555 1_555
N1 Cd1 1_555 1_555
C1 N1 1_555 1_555
C2 C1 1_555 1_555
C3 C2 1_555 1_555
C4 C3 1_555 1_555
C5 C4 1_555 1_555
C6 C5 1_555 1_555
N2 C6 1_555 1_555
C7 P1 1_555 1_555
C8 C7 1_555 1_555
C9 C8 1_555 1_555
C10 C8 1_555 1_555
C11 P1 1_555 1_555
C12 C11 1_555 1_555
C13 C12 1_555 1_555
C14 C12 1_555 1_555
H1 C1 1_555 1_555
H2 C2 1_555 1_555
H3 C5 1_555 1_555
H4 C6 1_555 1_555
H5 C7 1_555 1_555
H6 C7 1_555 1_555
H7 C8 1_555 1_555
H8 C9 1_555 1_555
H9 C9 1_555 1_555
H10 C9 1_555 1_555
H11 C10 1_555 1_555
H12 C10 1_555 1_555
H13 C11 1_555 1_555
H14 C11 1_555 1_555
H15 C12 1_555 1_555
H16 C13 1_555 1_555
H17 C13 1_555 1_555
H18 C13 1_555 1_555
H19 C14 1_555 1_555
H20 C14 1_555 1_555
H21 C14 1_555 1_555
C2F C3 1_555 1_555
C1F N1 1_555 1_555
H1F C1F 1_555 1_555
H2F C2F 1_555 1_555
C6F N2 1_555 1_555
C5F C4 1_555 1_555
H3F C5F 1_555 1_555
H4F C6F 1_555 1_555
P1F S1F 1_555 1_555
S1F Cd1 1_555 1_555
S2F Cd1 1_555 1_555
C7F P1F 1_555 1_555
C8F C7F 1_555 1_555
C9F C8F 1_555 1_555
C10F C8F 1_555 1_555
C11F P1F 1_555 1_555
C12F C11F 1_555 1_555
C13F C12F 1_555 1_555
C14F C12F 1_555 1_555
H5F C7F 1_555 1_555
H6F C7F 1_555 1_555
H7F C8F 1_555 1_555
H8F C9F 1_555 1_555
H9F C9F 1_555 1_555
H10F C9F 1_555 1_555
H11F C10F 1_555 1_555
H12F C10F 1_555 1_555
H13F C11F 1_555 1_555
H14F C11F 1_555 1_555
H15F C12F 1_555 1_555
H16F C13F 1_555 1_555
H17F C13F 1_555 1_555
H18F C13F 1_555 1_555
H19F C14F 1_555 1_555
H20F C14F 1_555 1_555
H21F C14F 1_555 1_555
N2_2 Cd1 1_555 1_555
Cd1_2 N2 1_555 1_555
P1 S2 1_555 1_555
C2F C1F 1_555 1_555
C6F C5F 1_555 1_555
P1F S2F 1_555 1_555

#END
