
#######################################################################
#
#                 Cambridge Crystallographic Data Centre
#                                CCDC 
#
#######################################################################
#
# If this CIF has been generated from an entry in the Cambridge 
# Structural Database, then it will include bibliographic, chemical, 
# crystal, experimental, refinement or atomic coordinate data resulting 
# from the CCDC's data processing and validation procedures.
#
#######################################################################

data_XIFNUX
_symmetry_cell_setting           triclinic
_symmetry_space_group_name_H-M   'P -1'
_symmetry_Int_Tables_number      2
_space_group_name_Hall           '-P 1'
loop_
_symmetry_equiv_pos_site_id
_symmetry_equiv_pos_as_xyz
1 x,y,z
2 -x,-y,-z
_cell_length_a                   5.4755(4)
_cell_length_b                   9.7344(7)
_cell_length_c                   10.4118(7)
_cell_angle_alpha                66.600(2)
_cell_angle_beta                 76.852(2)
_cell_angle_gamma                83.026(2)
_cell_volume                     495.662
loop_
_atom_site_label
_atom_site_type_symbol
_atom_site_fract_x
_atom_site_fract_y
_atom_site_fract_z
Mn1 Mn 0.5000 0.0000 0.5000
O1 O 0.7089(2) 0.09175(16) 0.28603(12)
O2 O 0.4654(2) 0.06270(17) 0.15319(14)
O3 O 0.2407(2) -0.09509(14) 0.42463(13)
H1 H 0.2664 -0.0405 0.3322
H2 H 0.0792 -0.1199 0.4606
N1 N 0.7500(3) -0.20759(18) 0.54345(17)
N2 N 0.7392(3) -0.30920(18) 0.65557(18)
N3 N 0.7296(5) -0.4097(2) 0.7641(2)
N4 N 1.2247(2) 0.30549(14) -0.19153(14)
C1 C 0.6521(3) 0.10871(18) 0.17040(17)
C2 C 0.8439(3) 0.18910(17) 0.03782(16)
C3 C 1.0149(3) 0.28143(19) 0.04033(17)
H3 H 1.0021 0.3039 0.1205
C4 C 1.2035(3) 0.33950(19) -0.07625(18)
H4 H 1.3171 0.4027 -0.0754
C5 C 1.0550(3) 0.22123(18) -0.19893(16)
H5 H 1.0688 0.2027 -0.2813
C6 C 0.8615(3) 0.16245(18) -0.08549(17)
H6 H 0.7433 0.1052 -0.0912
C7 C 1.4442(3) 0.35429(19) -0.31076(17)
H7 H 1.5095 0.2705 -0.3380
H8 H 1.5749 0.3826 -0.2777
C8 C 1.3836(3) 0.48402(19) -0.44001(17)
H9 H 1.3342 0.5719 -0.4168
H10 H 1.2454 0.4599 -0.4705
O1A O 2.2911(2) 0.90825(16) -1.28603(12)
O2A O 2.5346(2) 0.93730(17) -1.15319(14)
N4A N 1.7753(2) 0.69451(14) -0.80847(14)
C1A C 2.3479(3) 0.89129(18) -1.17040(17)
C2A C 2.1561(3) 0.81090(17) -1.03782(16)
C3A C 1.9851(3) 0.71857(19) -1.04033(17)
H3A H 1.9979 0.6961 -1.1205
C4A C 1.7965(3) 0.66050(19) -0.92375(18)
H4A H 1.6829 0.5973 -0.9246
C5A C 1.9450(3) 0.77877(18) -0.80107(16)
H5A H 1.9312 0.7973 -0.7187
C6A C 2.1385(3) 0.83755(18) -0.91451(17)
H6A H 2.2567 0.8948 -0.9088
C7A C 1.5558(3) 0.64571(19) -0.68924(17)
H7A H 1.4905 0.7295 -0.6620
H8A H 1.4251 0.6174 -0.7223
C8A C 1.6164(3) 0.51598(19) -0.55999(17)
H9A H 1.6658 0.4281 -0.5832
H10A H 1.7546 0.5401 -0.5295
O3A O 0.7593(2) 0.09509(14) 0.57537(13)
H1A H 0.7336 0.0405 0.6678
H2A H 0.9208 0.1199 0.5394
N1A N 0.2500(3) 0.20759(18) 0.45655(17)
N2A N 0.2608(3) 0.30920(18) 0.34443(18)
N3A N 0.2704(5) 0.4097(2) 0.2359(2)
Mn1_2 Mn 2.5000 1.0000 -1.5000
O1A_2 O 0.2911(2) -0.09175(16) 0.71397(12)
loop_
_geom_bond_atom_site_label_1
_geom_bond_atom_site_label_2
_geom_bond_site_symmetry_1
_geom_bond_site_symmetry_2
Mn1 O1 1_555 1_555
O1 C1 1_555 1_555
O2 C1 1_555 1_555
O3 Mn1 1_555 1_555
H1 O3 1_555 1_555
H2 O3 1_555 1_555
N1 Mn1 1_555 1_555
N2 N1 1_555 1_555
N3 N2 1_555 1_555
N4 C4 1_555 1_555
C1 C2 1_555 1_555
C2 C3 1_555 1_555
C3 H3 1_555 1_555
C4 C3 1_555 1_555
H4 C4 1_555 1_555
C5 N4 1_555 1_555
H5 C5 1_555 1_555
C6 C2 1_555 1_555
H6 C6 1_555 1_555
C7 N4 1_555 1_555
H7 C7 1_555 1_555
H8 C7 1_555 1_555
C8 C7 1_555 1_555
H9 C8 1_555 1_555
H10 C8 1_555 1_555
O1A C1A 1_555 1_555
O2A C1A 1_555 1_555
N4A C4A 1_555 1_555
C1A C2A 1_555 1_555
C2A C3A 1_555 1_555
C3A H3A 1_555 1_555
C4A C3A 1_555 1_555
H4A C4A 1_555 1_555
C5A N4A 1_555 1_555
H5A C5A 1_555 1_555
C6A C2A 1_555 1_555
H6A C6A 1_555 1_555
C7A N4A 1_555 1_555
H7A C7A 1_555 1_555
H8A C7A 1_555 1_555
C8A C8 1_555 1_555
H9A C8A 1_555 1_555
H10A C8A 1_555 1_555
O3A Mn1 1_555 1_555
H1A O3A 1_555 1_555
H2A O3A 1_555 1_555
N1A Mn1 1_555 1_555
N2A N1A 1_555 1_555
N3A N2A 1_555 1_555
Mn1_2 O1A 1_555 1_555
O1A_2 Mn1 1_555 1_555
C5 C6 1_555 1_555
C5A C6A 1_555 1_555
C7A C8A 1_555 1_555

#END
