
#######################################################################
#
#                 Cambridge Crystallographic Data Centre
#                                CCDC 
#
#######################################################################
#
# If this CIF has been generated from an entry in the Cambridge 
# Structural Database, then it will include bibliographic, chemical, 
# crystal, experimental, refinement or atomic coordinate data resulting 
# from the CCDC's data processing and validation procedures.
#
#######################################################################

data_XIFPIN
_symmetry_cell_setting           monoclinic
_symmetry_space_group_name_H-M   'P 21/c'
_symmetry_Int_Tables_number      14
_space_group_name_Hall           '-P 2ybc'
loop_
_symmetry_equiv_pos_site_id
_symmetry_equiv_pos_as_xyz
1 x,y,z
2 -x,1/2+y,1/2-z
3 -x,-y,-z
4 x,1/2-y,1/2+z
_cell_length_a                   12.7129(10)
_cell_length_b                   7.8758(6)
_cell_length_c                   15.9859(13)
_cell_angle_alpha                90
_cell_angle_beta                 91.3320(10)
_cell_angle_gamma                90
_cell_volume                     1600.14
loop_
_atom_site_label
_atom_site_type_symbol
_atom_site_fract_x
_atom_site_fract_y
_atom_site_fract_z
Zn1 Zn 0.33560(2) 0.49503(3) 0.222901(16)
O1 O 0.36682(13) 0.24806(19) 0.20874(10)
O2 O 0.34591(14) 0.3450(2) 0.07979(10)
O3 O 0.39144(14) -0.3072(2) -0.14600(10)
O4 O 0.33929(15) -0.0372(2) -0.15701(11)
N1 N 0.18631(17) 0.5377(3) 0.18480(14)
N2 N 0.03304(16) 0.6549(3) 0.15821(14)
N3 N 0.46023(14) -0.3770(2) 0.17112(11)
H1 H 0.5007 -0.3331 0.2127
H2 H 0.4997 -0.4517 0.1430
C1 C 0.36211(18) 0.2263(3) 0.12887(14)
C2 C 0.37790(18) 0.0507(3) 0.09584(14)
C3 C 0.40923(17) -0.0825(3) 0.14831(14)
H3 H 0.4171 -0.0644 0.2056
C4 C 0.42868(17) -0.2419(3) 0.11500(13)
C5 C 0.41541(17) -0.2699(3) 0.03000(13)
H4 H 0.4288 -0.3767 0.0079
C6 C 0.38198(17) -0.1385(3) -0.02259(14)
C7 C 0.36372(19) 0.0213(3) 0.01044(15)
H5 H 0.3419 0.1093 -0.0246
C8 C 0.37084(17) -0.1669(3) -0.11546(14)
C9 C 0.1238(2) 0.4248(4) 0.13916(18)
H6 H 0.1436 0.3160 0.1232
C10 C 0.0303(2) 0.4973(3) 0.1217(2)
H7 H -0.0253 0.4501 0.0908
C11 C 0.12903(19) 0.6756(3) 0.19515(16)
C12 C 0.1635(2) 0.8338(4) 0.2382(2)
H8 H 0.2357 0.8226 0.2564
H9 H 0.1204 0.8531 0.2858
H10 H 0.1567 0.9278 0.2003
C13 C -0.0452(2) 0.7880(4) 0.14343(18)
H11 H -0.0488 0.8593 0.1928
H12 H -0.1138 0.7362 0.1343
C14 C -0.01981(19) 0.8962(4) 0.06920(17)
C15 C -0.0861(2) 1.0291(4) 0.0485(2)
H13 H -0.1446 1.0499 0.0808
C16 C 0.0671(2) 0.8683(4) 0.01953(19)
H14 H 0.1128 0.7794 0.0323
N1B N -0.18631(17) 1.4623(3) -0.18480(14)
N2B N -0.03304(16) 1.3451(3) -0.15821(14)
C9B C -0.1238(2) 1.5752(4) -0.13916(18)
H6B H -0.1436 1.6840 -0.1232
C10B C -0.0303(2) 1.5027(3) -0.1217(2)
H7B H 0.0253 1.5499 -0.0908
C11B C -0.12903(19) 1.3244(3) -0.19515(16)
C12B C -0.1635(2) 1.1662(4) -0.2382(2)
H8B H -0.2357 1.1774 -0.2564
H9B H -0.1204 1.1469 -0.2858
H10B H -0.1567 1.0722 -0.2003
C13B C 0.0452(2) 1.2120(4) -0.14343(18)
H11B H 0.0488 1.1407 -0.1928
H12B H 0.1138 1.2638 -0.1343
C14B C 0.01981(19) 1.1038(4) -0.06920(17)
C15B C 0.0861(2) 0.9709(4) -0.0485(2)
H13B H 0.1446 0.9501 -0.0808
C16B C -0.0671(2) 1.1317(4) -0.01953(19)
H14B H -0.1128 1.2206 -0.0323
Zn1B Zn -0.33560(2) 1.50497(3) -0.222901(16)
O1B O -0.36682(13) 1.75194(19) -0.20874(10)
O2B O -0.34591(14) 1.6550(2) -0.07979(10)
O3B O -0.39144(14) 2.3072(2) 0.14600(10)
O4B O -0.33929(15) 2.0372(2) 0.15701(11)
N3B N -0.46023(14) 2.3770(2) -0.17112(11)
H1B H -0.5007 2.3331 -0.2127
H2B H -0.4997 2.4517 -0.1430
C1B C -0.36211(18) 1.7737(3) -0.12887(14)
C2B C -0.37790(18) 1.9493(3) -0.09584(14)
C3B C -0.40923(17) 2.0825(3) -0.14831(14)
H3B H -0.4171 2.0644 -0.2056
C4B C -0.42868(17) 2.2419(3) -0.11500(13)
C5B C -0.41541(17) 2.2699(3) -0.03000(13)
H4B H -0.4288 2.3767 -0.0079
C6B C -0.38198(17) 2.1385(3) 0.02259(14)
C7B C -0.36372(19) 1.9787(3) -0.01044(15)
H5B H -0.3419 1.8907 0.0246
C8B C -0.37084(17) 2.1669(3) 0.11546(14)
Zn1_2 Zn 0.33560(2) -0.50497(3) 0.222901(16)
Zn1A Zn -0.33560(2) 1.99503(3) 0.277099(16)
Zn1B_2 Zn -0.33560(2) 2.50497(3) -0.222901(16)
Zn1C Zn 0.33560(2) 0.00497(3) -0.277099(16)
O4A O -0.33929(15) 1.4628(2) -0.34299(11)
O4C O 0.33929(15) 0.5372(2) 0.34299(11)
N3_2 N 0.46023(14) 0.6230(2) 0.17112(11)
N3B_2 N -0.46023(14) 1.3770(2) -0.17112(11)
O5 O 0.2320(2) 0.4640(4) 0.93050(18)
H15 H 0.2620 0.4259 0.9747
H16 H 0.2746 0.5302 0.9064
loop_
_geom_bond_atom_site_label_1
_geom_bond_atom_site_label_2
_geom_bond_site_symmetry_1
_geom_bond_site_symmetry_2
Zn1 O1 1_555 1_555
O1 C1 1_555 1_555
O2 C1 1_555 1_555
O3 C8 1_555 1_555
O4 C8 1_555 1_555
N1 Zn1 1_555 1_555
N2 C10 1_555 1_555
N3 H1 1_555 1_555
H2 N3 1_555 1_555
C1 C2 1_555 1_555
C2 C3 1_555 1_555
C3 H3 1_555 1_555
C4 N3 1_555 1_555
C5 C4 1_555 1_555
H4 C5 1_555 1_555
C6 C5 1_555 1_555
C7 C2 1_555 1_555
H5 C7 1_555 1_555
C8 C6 1_555 1_555
C9 N1 1_555 1_555
H6 C9 1_555 1_555
C10 C9 1_555 1_555
H7 C10 1_555 1_555
C11 N1 1_555 1_555
C12 C11 1_555 1_555
H8 C12 1_555 1_555
H9 C12 1_555 1_555
H10 C12 1_555 1_555
C13 N2 1_555 1_555
H11 C13 1_555 1_555
H12 C13 1_555 1_555
C14 C13 1_555 1_555
C15 C14 1_555 1_555
H13 C15 1_555 1_555
C16 C14 1_555 1_555
H14 C16 1_555 1_555
O5 H15 1_555 1_555
H16 O5 1_555 1_555
N1B C9B 1_555 1_555
N2B C10B 1_555 1_555
C9B H6B 1_555 1_555
C10B C9B 1_555 1_555
H7B C10B 1_555 1_555
C11B N1B 1_555 1_555
C12B C11B 1_555 1_555
H8B C12B 1_555 1_555
H9B C12B 1_555 1_555
H10B C12B 1_555 1_555
C13B N2B 1_555 1_555
H11B C13B 1_555 1_555
H12B C13B 1_555 1_555
C14B C13B 1_555 1_555
C15B C16 1_555 1_555
H13B C15B 1_555 1_555
C16B C15 1_555 1_555
H14B C16B 1_555 1_555
Zn1B N1B 1_555 1_555
O1B Zn1B 1_555 1_555
O2B C1B 1_555 1_555
O3B C8B 1_555 1_555
O4B C8B 1_555 1_555
N3B H1B 1_555 1_555
H2B N3B 1_555 1_555
C1B O1B 1_555 1_555
C2B C1B 1_555 1_555
C3B C2B 1_555 1_555
H3B C3B 1_555 1_555
C4B N3B 1_555 1_555
C5B C4B 1_555 1_555
H4B C5B 1_555 1_555
C6B C5B 1_555 1_555
C7B C2B 1_555 1_555
H5B C7B 1_555 1_555
C8B C6B 1_555 1_555
Zn1_2 N3 1_555 1_555
Zn1A O4B 1_555 1_555
Zn1B_2 N3B 1_555 1_555
Zn1C O4 1_555 1_555
O4A Zn1B 1_555 1_555
O4C Zn1 1_555 1_555
N3_2 Zn1 1_555 1_555
N3B_2 Zn1B 1_555 1_555
N2 C11 1_555 1_555
C3 C4 1_555 1_555
C6 C7 1_555 1_555
N2B C11B 1_555 1_555
C14B C15B 1_555 1_555
C14B C16B 1_555 1_555
C3B C4B 1_555 1_555
C6B C7B 1_555 1_555

#END
