
#######################################################################
#
#                 Cambridge Crystallographic Data Centre
#                                CCDC 
#
#######################################################################
#
# If this CIF has been generated from an entry in the Cambridge 
# Structural Database, then it will include bibliographic, chemical, 
# crystal, experimental, refinement or atomic coordinate data resulting 
# from the CCDC's data processing and validation procedures.
#
#######################################################################

data_XIFPEJ
_symmetry_cell_setting           triclinic
_symmetry_space_group_name_H-M   'P -1'
_symmetry_Int_Tables_number      2
_space_group_name_Hall           '-P 1'
loop_
_symmetry_equiv_pos_site_id
_symmetry_equiv_pos_as_xyz
1 x,y,z
2 -x,-y,-z
_cell_length_a                   7.09300(10)
_cell_length_b                   7.29310(10)
_cell_length_c                   9.3585(2)
_cell_angle_alpha                78.7210(10)
_cell_angle_beta                 69.9550(10)
_cell_angle_gamma                65.1680(10)
_cell_volume                     411.983
loop_
_atom_site_label
_atom_site_type_symbol
_atom_site_fract_x
_atom_site_fract_y
_atom_site_fract_z
Co1 Co 0.5000 0.5000 0.5000
N1 N 0.2493(3) 0.7838(2) 0.56581(19)
N2 N 0.4118(3) 0.5542(2) 0.28865(19)
H1 H 0.2543 0.6315 0.3239
H2 H 0.5106 0.6220 0.2360
N3 N 0.2934(3) 1.3430(3) 0.6053(2)
N4 N 0.0895(3) 1.1259(2) 0.6554(2)
C1 C 0.1820(3) 0.9450(3) 0.6045(2)
C2 C 0.4380(3) 0.3920(3) 0.2086(2)
C3 C 0.4885(3) 0.0798(3) 0.04524(19)
C4 C 0.2072(3) 1.2339(3) 0.6256(2)
C5 C 0.6343(3) 0.2932(3) 0.1047(2)
H3 H 0.7510 0.3301 0.0881
C6 C 0.6587(3) 0.1394(3) 0.0252(2)
H4 H 0.7927 0.0741 -0.0436
C7 C 0.2949(4) 0.1778(4) 0.1539(3)
H5 H 0.1784 0.1397 0.1727
C8 C 0.2699(3) 0.3301(3) 0.2351(3)
H6 H 0.1387 0.3910 0.3081
N2A N 0.5882(3) -0.5542(2) -0.28865(19)
H1A H 0.7457 -0.6315 -0.3239
H2A H 0.4894 -0.6220 -0.2360
C2A C 0.5620(3) -0.3920(3) -0.2086(2)
C3A C 0.5115(3) -0.0798(3) -0.04524(19)
C5A C 0.3657(3) -0.2932(3) -0.1047(2)
H3A H 0.2490 -0.3301 -0.0881
C6A C 0.3413(3) -0.1394(3) -0.0252(2)
H4A H 0.2073 -0.0741 0.0436
C7A C 0.7051(4) -0.1778(4) -0.1539(3)
H5A H 0.8216 -0.1397 -0.1727
C8A C 0.7301(3) -0.3301(3) -0.2351(3)
H6A H 0.8613 -0.3910 -0.3081
N1A N 0.7507(3) 0.2162(2) 0.43419(19)
N3A N 0.7066(3) -0.3430(3) 0.3947(2)
N4A N 0.9105(3) -0.1259(2) 0.3446(2)
C1A C 0.8180(3) 0.0550(3) 0.3955(2)
C4A C 0.7928(3) -0.2339(3) 0.3744(2)
Co1_2 Co 0.5000 -0.5000 -0.5000
Co1_3 Co 0.5000 -0.5000 0.5000
Co1_4 Co 0.5000 1.5000 0.5000
N2A_2 N 0.5882(3) 0.4458(2) 0.71135(19)
N3_2 N 0.2934(3) 0.3430(3) 0.6053(2)
N3A_2 N 0.7066(3) 0.6570(3) 0.3947(2)
loop_
_geom_bond_atom_site_label_1
_geom_bond_atom_site_label_2
_geom_bond_site_symmetry_1
_geom_bond_site_symmetry_2
Co1 N1 1_555 1_555
N1 C1 1_555 1_555
N2 Co1 1_555 1_555
H1 N2 1_555 1_555
H2 N2 1_555 1_555
N3 C4 1_555 1_555
N4 C1 1_555 1_555
C2 N2 1_555 1_555
C3 C6 1_555 1_555
C4 N4 1_555 1_555
C5 C2 1_555 1_555
H3 C5 1_555 1_555
C6 C5 1_555 1_555
H4 C6 1_555 1_555
C7 C3 1_555 1_555
H5 C7 1_555 1_555
C8 C2 1_555 1_555
H6 C8 1_555 1_555
N2A H1A 1_555 1_555
H2A N2A 1_555 1_555
C2A N2A 1_555 1_555
C3A C3 1_555 1_555
C5A C2A 1_555 1_555
H3A C5A 1_555 1_555
C6A C3A 1_555 1_555
H4A C6A 1_555 1_555
C7A C3A 1_555 1_555
H5A C7A 1_555 1_555
C8A C2A 1_555 1_555
H6A C8A 1_555 1_555
N1A Co1 1_555 1_555
N3A C4A 1_555 1_555
N4A C1A 1_555 1_555
C1A N1A 1_555 1_555
C4A N4A 1_555 1_555
Co1_2 N2A 1_555 1_555
Co1_3 N3A 1_555 1_555
Co1_4 N3 1_555 1_555
N2A_2 Co1 1_555 1_555
N3_2 Co1 1_555 1_555
N3A_2 Co1 1_555 1_555
C7 C8 1_555 1_555
C5A C6A 1_555 1_555
C7A C8A 1_555 1_555

#END
