
#######################################################################
#
#                 Cambridge Crystallographic Data Centre
#                                CCDC 
#
#######################################################################
#
# If this CIF has been generated from an entry in the Cambridge 
# Structural Database, then it will include bibliographic, chemical, 
# crystal, experimental, refinement or atomic coordinate data resulting 
# from the CCDC's data processing and validation procedures.
#
#######################################################################

data_XIFQEK
_symmetry_cell_setting           triclinic
_symmetry_space_group_name_H-M   'P -1'
_symmetry_Int_Tables_number      2
_space_group_name_Hall           '-P 1'
loop_
_symmetry_equiv_pos_site_id
_symmetry_equiv_pos_as_xyz
1 x,y,z
2 -x,-y,-z
_cell_length_a                   9.2155(8)
_cell_length_b                   9.9581(8)
_cell_length_c                   12.2028(10)
_cell_angle_alpha                97.482(7)
_cell_angle_beta                 110.398(8)
_cell_angle_gamma                94.259(7)
_cell_volume                     1032.02
loop_
_atom_site_label
_atom_site_type_symbol
_atom_site_fract_x
_atom_site_fract_y
_atom_site_fract_z
Cu1 Cu 0.5000 0.5000 0.5000
Cu2 Cu -0.29350(4) 0.61702(4) 0.32523(3)
Cl1 Cl -0.42733(8) 0.42404(7) 0.29483(6)
Cl2 Cl 0.56906(8) 0.72759(7) 0.48608(6)
N1 N 0.2818(3) 0.5057(2) 0.3908(2)
C1 C -0.1555(3) 1.1817(3) 0.3541(2)
H1 H -0.1524 1.2780 0.3598
C2 C 0.0686(3) 0.6352(3) 0.3238(3)
N2 N 0.1844(3) 1.0581(3) 0.1974(2)
C3 C -0.0029(3) 0.5364(3) 0.2227(3)
H2 H -0.0996 0.5474 0.1645
N3 N 0.0750(3) 0.8900(2) 0.3575(2)
C4 C 0.2123(3) 0.4104(3) 0.2939(3)
H3 H 0.2622 0.3323 0.2833
N4 N 0.2314(3) 0.9441(2) 0.2424(2)
C5 C -0.0199(3) 1.1235(3) 0.3650(2)
H4 H 0.0762 1.1772 0.3786
C6 C -0.0332(3) 0.9819(3) 0.3547(2)
C7 C 0.2089(3) 0.6151(3) 0.4061(2)
H5 H 0.2559 0.6809 0.4762
N5 N 0.1843(3) 1.0453(3) 0.0897(2)
C8 C -0.1729(3) 0.9019(3) 0.3376(2)
C9 C 0.0697(3) 0.4223(3) 0.2088(3)
H6 H 0.0223 0.3526 0.1416
C10 C 0.3354(4) 0.6700(3) 0.0594(3)
H7 H 0.3709 0.5830 0.0556
C11 C 0.2319(3) 0.9297(3) 0.3594(2)
H8 H 0.2768 1.0174 0.4139
H9 H 0.2992 0.8598 0.3901
N6 N -0.1495(3) 0.7647(2) 0.3296(2)
C12 C -0.3088(3) 0.9618(3) 0.3275(2)
H10 H -0.4044 0.9084 0.3159
C13 C 0.2321(3) 0.9209(3) 0.0630(3)
C14 C 0.2614(3) 0.8536(3) 0.1603(3)
C15 C -0.0023(3) 0.7619(3) 0.3387(2)
C16 C 0.3140(3) 0.7250(3) 0.1614(3)
H11 H 0.3334 0.6792 0.2277
C17 C -0.2973(3) 1.1022(3) 0.3351(2)
H12 H -0.3876 1.1461 0.3272
C18 C 0.3068(4) 0.7375(4) -0.0402(3)
H13 H 0.3239 0.6949 -0.1081
C19 C 0.2550(4) 0.8628(4) -0.0402(3)
H14 H 0.2355 0.9083 -0.1066
Cu2A Cu 0.29350(4) 0.38298(4) 0.67477(3)
Cl1A Cl 0.42733(8) 0.57596(7) 0.70517(6)
N1A N -0.2818(3) 0.4943(2) 0.6092(2)
C1A C 0.1555(3) -0.1817(3) 0.6459(2)
H1A H 0.1524 -0.2780 0.6402
C2A C -0.0686(3) 0.3648(3) 0.6762(3)
N2A N -0.1844(3) -0.0581(3) 0.8026(2)
C3A C 0.0029(3) 0.4636(3) 0.7773(3)
H2A H 0.0996 0.4526 0.8355
N3A N -0.0750(3) 0.1100(2) 0.6425(2)
C4A C -0.2123(3) 0.5896(3) 0.7061(3)
H3A H -0.2622 0.6677 0.7167
N4A N -0.2314(3) 0.0559(2) 0.7576(2)
C5A C 0.0199(3) -0.1235(3) 0.6350(2)
H4A H -0.0762 -0.1772 0.6214
C6A C 0.0332(3) 0.0181(3) 0.6453(2)
C7A C -0.2089(3) 0.3849(3) 0.5939(2)
H5A H -0.2559 0.3191 0.5238
N5A N -0.1843(3) -0.0453(3) 0.9103(2)
C8A C 0.1729(3) 0.0981(3) 0.6624(2)
C9A C -0.0697(3) 0.5777(3) 0.7912(3)
H6A H -0.0223 0.6474 0.8584
C10A C -0.3354(4) 0.3300(3) 0.9406(3)
H7A H -0.3709 0.4170 0.9444
C11A C -0.2319(3) 0.0703(3) 0.6406(2)
H8A H -0.2768 -0.0174 0.5861
H9A H -0.2992 0.1402 0.6099
N6A N 0.1495(3) 0.2353(2) 0.6704(2)
C12A C 0.3088(3) 0.0382(3) 0.6725(2)
H10A H 0.4044 0.0916 0.6841
C13A C -0.2321(3) 0.0791(3) 0.9370(3)
C14A C -0.2614(3) 0.1464(3) 0.8397(3)
C15A C 0.0023(3) 0.2381(3) 0.6613(2)
C16A C -0.3140(3) 0.2750(3) 0.8386(3)
H11A H -0.3334 0.3208 0.7723
C17A C 0.2973(3) -0.1022(3) 0.6649(2)
H12A H 0.3876 -0.1461 0.6728
C18A C -0.3068(4) 0.2625(4) 1.0402(3)
H13A H -0.3239 0.3051 1.1081
C19A C -0.2550(4) 0.1372(4) 1.0402(3)
H14A H -0.2355 0.0917 1.1066
Cl2A Cl 0.43094(8) 0.27241(7) 0.51392(6)
Cu1_2 Cu -0.5000 0.5000 0.5000
Cu2_2 Cu 0.70650(4) 0.61702(4) 0.32523(3)
Cl1_2 Cl 0.57267(8) 0.42404(7) 0.29483(6)
Cl2_2 Cl -0.43094(8) 0.72759(7) 0.48608(6)
N1A_2 N 0.7182(3) 0.4943(2) 0.6092(2)
O1 O -0.1369(3) 0.7653(3) 0.0713(2)
H15 H -0.1165 0.8245 0.0338
C20 C -0.3012(4) 0.7360(4) 0.0373(3)
H16 H -0.3475 0.6995 -0.0477
H17 H -0.3445 0.8199 0.0540
H18 H -0.3250 0.6683 0.0823
loop_
_geom_bond_atom_site_label_1
_geom_bond_atom_site_label_2
_geom_bond_site_symmetry_1
_geom_bond_site_symmetry_2
Cu1 Cl2 1_555 1_555
Cu2 Cl1 1_555 1_555
Cl1 Cu1_2 1_555 1_555
Cl2 Cu2_2 1_555 1_555
N1 Cu1 1_555 1_555
C1 H1 1_555 1_555
C2 C3 1_555 1_555
N2 N4 1_555 1_555
C3 H2 1_555 1_555
N3 C6 1_555 1_555
C4 N1 1_555 1_555
H3 C4 1_555 1_555
N4 C11 1_555 1_555
C5 C1 1_555 1_555
H4 C5 1_555 1_555
C6 C5 1_555 1_555
C7 N1 1_555 1_555
H5 C7 1_555 1_555
N5 N2 1_555 1_555
C8 C6 1_555 1_555
C9 C3 1_555 1_555
H6 C9 1_555 1_555
C10 H7 1_555 1_555
C11 N3 1_555 1_555
H8 C11 1_555 1_555
H9 C11 1_555 1_555
N6 Cu2 1_555 1_555
C12 C8 1_555 1_555
H10 C12 1_555 1_555
C13 N5 1_555 1_555
C14 N4 1_555 1_555
C15 C2 1_555 1_555
C16 C10 1_555 1_555
H11 C16 1_555 1_555
C17 C1 1_555 1_555
H12 C17 1_555 1_555
C18 C10 1_555 1_555
H13 C18 1_555 1_555
C19 C13 1_555 1_555
H14 C19 1_555 1_555
O1 H15 1_555 1_555
C20 O1 1_555 1_555
H16 C20 1_555 1_555
H17 C20 1_555 1_555
H18 C20 1_555 1_555
Cu2A Cl1A 1_555 1_555
Cl1A Cu1 1_555 1_555
N1A C4A 1_555 1_555
C1A H1A 1_555 1_555
C2A C3A 1_555 1_555
N2A N4A 1_555 1_555
C3A H2A 1_555 1_555
N3A C6A 1_555 1_555
C4A H3A 1_555 1_555
N4A C11A 1_555 1_555
C5A C1A 1_555 1_555
H4A C5A 1_555 1_555
C6A C5A 1_555 1_555
C7A N1A 1_555 1_555
H5A C7A 1_555 1_555
N5A N2A 1_555 1_555
C8A C6A 1_555 1_555
C9A C3A 1_555 1_555
H6A C9A 1_555 1_555
C10A H7A 1_555 1_555
C11A N3A 1_555 1_555
H8A C11A 1_555 1_555
H9A C11A 1_555 1_555
N6A Cu2A 1_555 1_555
C12A C8A 1_555 1_555
H10A C12A 1_555 1_555
C13A N5A 1_555 1_555
C14A N4A 1_555 1_555
C15A C2A 1_555 1_555
C16A C10A 1_555 1_555
H11A C16A 1_555 1_555
C17A C1A 1_555 1_555
H12A C17A 1_555 1_555
C18A C10A 1_555 1_555
H13A C18A 1_555 1_555
C19A C13A 1_555 1_555
H14A C19A 1_555 1_555
Cl2A Cu1 1_555 1_555
Cu1_2 N1A 1_555 1_555
Cu2_2 Cl1_2 1_555 1_555
Cl1_2 Cu1 1_555 1_555
Cl2_2 Cu2 1_555 1_555
N1A_2 Cu1 1_555 1_555
C2 C7 1_555 1_555
N3 C15 1_555 1_555
C4 C9 1_555 1_555
C8 N6 1_555 1_555
N6 C15 1_555 1_555
C12 C17 1_555 1_555
C13 C14 1_555 1_555
C14 C16 1_555 1_555
C18 C19 1_555 1_555
Cu2A Cl2A 1_555 1_555
C2A C7A 1_555 1_555
N3A C15A 1_555 1_555
C4A C9A 1_555 1_555
C8A N6A 1_555 1_555
N6A C15A 1_555 1_555
C12A C17A 1_555 1_555
C13A C14A 1_555 1_555
C14A C16A 1_555 1_555
C18A C19A 1_555 1_555
Cu1_2 Cl2_2 1_555 1_555

#END
