
#######################################################################
#
#                 Cambridge Crystallographic Data Centre
#                                CCDC 
#
#######################################################################
#
# If this CIF has been generated from an entry in the Cambridge 
# Structural Database, then it will include bibliographic, chemical, 
# crystal, experimental, refinement or atomic coordinate data resulting 
# from the CCDC's data processing and validation procedures.
#
#######################################################################

data_XIFWAK
_symmetry_cell_setting           orthorhombic
_symmetry_space_group_name_H-M   'C m c a'
_symmetry_Int_Tables_number      64
_space_group_name_Hall           '-C 2ac 2'
loop_
_symmetry_equiv_pos_site_id
_symmetry_equiv_pos_as_xyz
1 x,y,z
2 1/2+x,1/2+y,z
3 x,1/2+y,1/2-z
4 x,1/2-y,1/2+z
5 -x,y,z
6 1/2+x,y,1/2-z
7 1/2+x,-y,1/2+z
8 1/2-x,1/2+y,z
9 -x,-y,-z
10 1/2-x,1/2-y,-z
11 -x,1/2-y,1/2+z
12 -x,1/2+y,1/2-z
13 x,-y,-z
14 1/2-x,-y,1/2+z
15 1/2-x,y,1/2-z
16 1/2+x,1/2-y,-z
_cell_length_a                   16.2075(8)
_cell_length_b                   10.3223(4)
_cell_length_c                   18.2280(8)
_cell_angle_alpha                90
_cell_angle_beta                 90
_cell_angle_gamma                90
_cell_volume                     3049.52
loop_
_atom_site_label
_atom_site_type_symbol
_atom_site_fract_x
_atom_site_fract_y
_atom_site_fract_z
Ag1 Ag 0.87697(3) 0.0000 0.5000
N1 N 0.88010(19) 0.0193(3) 0.38304(16)
H1 H 0.8912 0.1045 0.3720
H2 H 0.9234 -0.0295 0.3656
C2 C 0.8042(2) -0.0196(4) 0.34263(19)
H3 H 0.8108 0.0018 0.2900
H4 H 0.7566 0.0302 0.3617
C3 C 0.8224(2) -0.2869(4) 0.4663(2)
H5 H 0.8728 -0.3124 0.4440
C4 C 0.7867(2) -0.1635(4) 0.35043(18)
H6 H 0.7390 -0.1857 0.3190
H7 H 0.8350 -0.2123 0.3318
C5 C 0.7686(2) -0.2079(4) 0.42773(19)
C6 C 0.6955(2) -0.1702(4) 0.4632(2)
H8 H 0.6578 -0.1146 0.4387
C6I C 0.8045(2) -0.3298(4) 0.5368(2)
C5I C 0.7314(2) -0.2921(4) 0.57227(19)
C3I C 0.6776(2) -0.2131(4) 0.5337(2)
H5I H 0.6272 -0.1876 0.5560
C4I C 0.7133(2) -0.3365(4) 0.64957(18)
C2I C 0.6958(2) -0.4804(4) 0.65737(19)
N1I N 0.61990(19) -0.5193(3) 0.61696(16)
H1I H 0.6088 -0.6045 0.6280
H2I H 0.5766 -0.4705 0.6344
H3I H 0.6892 -0.5018 0.7100
H4I H 0.7434 -0.5302 0.6383
H6I H 0.7610 -0.3143 0.6810
H7I H 0.6650 -0.2877 0.6682
H8I H 0.8422 -0.3854 0.5613
N1L N 0.88010(19) -0.0193(3) 0.61696(16)
Ag1G Ag 0.62303(3) -0.5000 0.5000
H1L H 0.8912 -0.1045 0.6280
H2L H 0.9234 0.0295 0.6344
S1 S 1.0000 -0.33177(13) 0.71261(7)
F1 F 1.0000 -0.4716(3) 0.59225(18)
C1 C 1.0000 -0.4870(6) 0.6650(3)
O1 O 1.0000 -0.3686(3) 0.78904(19)
F2 F 1.06626(17) -0.5562(2) 0.68221(15)
O2 O 0.92497(19) -0.2727(3) 0.68789(15)
F2D F 0.93374(17) -0.5562(2) 0.68221(15)
O2D O 1.07503(19) -0.2727(3) 0.68789(15)
loop_
_geom_bond_atom_site_label_1
_geom_bond_atom_site_label_2
_geom_bond_site_symmetry_1
_geom_bond_site_symmetry_2
Ag1 N1 1_555 1_555
S1 C1 1_555 1_555
N1 H1 1_555 1_555
H2 N1 1_555 1_555
F1 C1 1_555 1_555
C1 F2 1_555 1_555
O1 S1 1_555 1_555
C2 N1 1_555 1_555
H3 C2 1_555 1_555
H4 C2 1_555 1_555
O2 S1 1_555 1_555
C3 H5 1_555 1_555
C4 C2 1_555 1_555
H6 C4 1_555 1_555
H7 C4 1_555 1_555
C5 C3 1_555 1_555
C6 C5 1_555 1_555
H8 C6 1_555 1_555
F2D C1 1_555 1_555
O2D S1 1_555 1_555
C6I C3 1_555 1_555
C5I C6I 1_555 1_555
C3I C6 1_555 1_555
H5I C3I 1_555 1_555
C4I C5I 1_555 1_555
C2I C4I 1_555 1_555
N1I C2I 1_555 1_555
H1I N1I 1_555 1_555
H2I N1I 1_555 1_555
H3I C2I 1_555 1_555
H4I C2I 1_555 1_555
H6I C4I 1_555 1_555
H7I C4I 1_555 1_555
H8I C6I 1_555 1_555
N1L Ag1 1_555 1_555
Ag1G N1I 1_555 1_555
H1L N1L 1_555 1_555
H2L N1L 1_555 1_555
C4 C5 1_555 1_555
C5I C3I 1_555 1_555

#END
