
#######################################################################
#
#                 Cambridge Crystallographic Data Centre
#                                CCDC 
#
#######################################################################
#
# If this CIF has been generated from an entry in the Cambridge 
# Structural Database, then it will include bibliographic, chemical, 
# crystal, experimental, refinement or atomic coordinate data resulting 
# from the CCDC's data processing and validation procedures.
#
#######################################################################

data_XIFXUG
_symmetry_cell_setting           monoclinic
_symmetry_space_group_name_H-M   'C 2/c'
_symmetry_Int_Tables_number      15
_space_group_name_Hall           '-C 2yn'
loop_
_symmetry_equiv_pos_site_id
_symmetry_equiv_pos_as_xyz
1 x,y,z
2 1/2+x,1/2+y,z
3 -x,y,1/2-z
4 1/2-x,1/2+y,1/2-z
5 -x,-y,-z
6 1/2-x,1/2-y,-z
7 x,-y,1/2+z
8 1/2+x,1/2-y,1/2+z
_cell_length_a                   6.866(4)
_cell_length_b                   9.204(5)
_cell_length_c                   9.459(5)
_cell_angle_alpha                90
_cell_angle_beta                 108.156(9)
_cell_angle_gamma                90
_cell_volume                     567.997
loop_
_atom_site_label
_atom_site_type_symbol
_atom_site_fract_x
_atom_site_fract_y
_atom_site_fract_z
C1 C 0.2298(6) 0.3735(5) 0.1594(5)
C2 C 0.1575(6) 0.2870(5) 0.0160(5)
H1 H 0.086(4) 0.359(3) -0.080(2)
H2 H -0.078(6) 0.186(8) -0.042(4)
Mg1 Mg 0.0000 0.1491(2) 0.2500
O1 O 0.2215(4) 0.3112(3) 0.2755(3)
O2 O 0.2927(5) 0.4985(3) 0.1522(3)
O3 O 0.0215(5) 0.1768(3) 0.0377(3)
C1E C 0.2702(6) 0.1265(5) -0.1594(5)
C2E C 0.3425(6) 0.2130(5) -0.0160(5)
H1E H 0.414(4) 0.141(3) 0.080(2)
H2E H 0.578(6) 0.314(8) 0.042(4)
H2B H 0.078(6) 0.186(8) 0.542(4)
Mg1A Mg 0.5000 0.6491(2) 0.2500
Mg1E Mg 0.5000 0.3509(2) -0.2500
Mg1D Mg 0.0000 -0.1491(2) -0.2500
O1E O 0.2785(4) 0.1888(3) -0.2755(3)
O1B O -0.2215(4) 0.3112(3) 0.2245(3)
O2E O 0.2073(5) 0.0015(3) -0.1522(3)
O2A O -0.2073(5) -0.0015(3) 0.1522(3)
O2C O 0.2073(5) -0.0015(3) 0.3478(3)
O3E O 0.4785(5) 0.3232(3) -0.0377(3)
O3B O -0.0215(5) 0.1768(3) 0.4623(3)
loop_
_geom_bond_atom_site_label_1
_geom_bond_atom_site_label_2
_geom_bond_site_symmetry_1
_geom_bond_site_symmetry_2
C1 C2 1_555 1_555
C2 H1 1_555 1_555
H2 O3 1_555 1_555
Mg1 O1 1_555 1_555
O1 C1 1_555 1_555
O2 C1 1_555 1_555
O3 C2 1_555 1_555
C1E C2E 1_555 1_555
C2E C2 1_555 1_555
H1E C2E 1_555 1_555
H2E O3E 1_555 1_555
H2B O3B 1_555 1_555
Mg1A O2 1_555 1_555
Mg1E O1E 1_555 1_555
Mg1D O2E 1_555 1_555
O1E C1E 1_555 1_555
O1B Mg1 1_555 1_555
O2E C1E 1_555 1_555
O2A Mg1 1_555 1_555
O2C Mg1 1_555 1_555
O3E C2E 1_555 1_555
O3B Mg1 1_555 1_555
Mg1 O3 1_555 1_555
Mg1E O3E 1_555 1_555

#END
