
#######################################################################
#
#                 Cambridge Crystallographic Data Centre
#                                CCDC 
#
#######################################################################
#
# If this CIF has been generated from an entry in the Cambridge 
# Structural Database, then it will include bibliographic, chemical, 
# crystal, experimental, refinement or atomic coordinate data resulting 
# from the CCDC's data processing and validation procedures.
#
#######################################################################

data_XIFXAM
_symmetry_cell_setting           monoclinic
_symmetry_space_group_name_H-M   'P 21/c'
_symmetry_Int_Tables_number      14
_space_group_name_Hall           '-P 2ybc'
loop_
_symmetry_equiv_pos_site_id
_symmetry_equiv_pos_as_xyz
1 x,y,z
2 -x,1/2+y,1/2-z
3 -x,-y,-z
4 x,1/2-y,1/2+z
_cell_length_a                   9.6336(6)
_cell_length_b                   7.1404(4)
_cell_length_c                   14.3617(9)
_cell_angle_alpha                90
_cell_angle_beta                 91.842(1)
_cell_angle_gamma                90
_cell_volume                     987.399
loop_
_atom_site_label
_atom_site_type_symbol
_atom_site_fract_x
_atom_site_fract_y
_atom_site_fract_z
Cs1 Cs 0.54427(2) 0.17978(3) 0.65414(1)
S1 S -0.28403(8) 0.15131(11) 0.89817(6)
O1 O 0.3158(2) 0.1043(4) 0.82894(19)
O2 O -0.3044(2) 0.1452(4) 0.99723(18)
O3 O -0.3197(2) 0.3363(3) 0.85771(17)
O4 O -0.3512(2) 0.0028(3) 0.84462(18)
O5 O 0.1744(2) 0.3955(3) 1.06005(17)
O6 O 0.3534(2) 0.3355(3) 0.96905(18)
C1 C 0.1316(3) 0.2130(4) 0.9258(2)
C2 C 0.1800(3) 0.1120(5) 0.8498(2)
C3 C 0.0865(3) 0.0138(5) 0.7922(2)
C4 C -0.0540(3) 0.0207(5) 0.8083(2)
C5 C -0.1037(3) 0.1243(4) 0.8824(2)
C6 C -0.0103(3) 0.2170(4) 0.9422(2)
C7 C 0.2306(3) 0.3177(4) 0.9869(3)
H1 H 0.329(4) 0.184(5) 0.877(3)
H2 H 0.11870 -0.05660 0.74290
H3 H -0.11610 -0.04440 0.76930
H4 H -0.04270 0.28180 0.99330
H5 H 0.224(5) 0.487(7) 1.088(3)
Cs1A Cs 0.45573(2) -0.32022(3) 0.84586(1)
Cs1A_2 Cs 0.45573(2) 0.67978(3) 0.84586(1)
Cs1C Cs -0.45573(2) 0.32022(3) 1.15414(1)
Cs1_2 Cs -0.45573(2) 0.17978(3) 0.65414(1)
Cs1A_3 Cs -0.54427(2) 0.67978(3) 0.84586(1)
Cs1A_4 Cs -0.54427(2) -0.32022(3) 0.84586(1)
Cs1C_2 Cs 0.54427(2) 0.32022(3) 1.15414(1)
O1A O 0.6842(2) 0.6043(4) 0.67106(19)
O2C O 0.6956(2) 0.3548(4) 0.49723(18)
O3_2 O 0.6803(2) 0.3363(3) 0.85771(17)
O3A O 0.3197(2) -0.1637(3) 0.64229(17)
O4_2 O 0.6488(2) 0.0028(3) 0.84462(18)
O4A O 0.3512(2) 0.5028(3) 0.65538(18)
O6C O 0.3534(2) 0.1645(3) 0.46905(18)
O6A O 0.6466(2) -0.1645(3) 0.53095(18)
H1A H 0.671(4) 0.684(5) 0.623(3)
loop_
_geom_bond_atom_site_label_1
_geom_bond_atom_site_label_2
_geom_bond_site_symmetry_1
_geom_bond_site_symmetry_2
Cs1 O1 1_555 1_555
S1 O2 1_555 1_555
O1 C2 1_555 1_555
O2 Cs1C 1_555 1_555
O3 S1 1_555 1_555
O4 S1 1_555 1_555
O5 C7 1_555 1_555
O6 C7 1_555 1_555
C1 C2 1_555 1_555
C2 C3 1_555 1_555
C3 C4 1_555 1_555
C4 C5 1_555 1_555
C5 S1 1_555 1_555
C6 C1 1_555 1_555
C7 C1 1_555 1_555
H1 O1 1_555 1_555
H2 C3 1_555 1_555
H3 C4 1_555 1_555
H4 C6 1_555 1_555
H5 O5 1_555 1_555
Cs1A O1 1_555 1_555
Cs1A_2 O6 1_555 1_555
Cs1_2 O3 1_555 1_555
Cs1A_3 O3 1_555 1_555
Cs1A_4 O4 1_555 1_555
Cs1C_2 O6 1_555 1_555
O1A Cs1 1_555 1_555
O2C Cs1 1_555 1_555
O3_2 Cs1 1_555 1_555
O3A Cs1 1_555 1_555
O4_2 Cs1 1_555 1_555
O4A Cs1 1_555 1_555
O6C Cs1 1_555 1_555
O6A Cs1 1_555 1_555
H1A O1A 1_555 1_555
O4 Cs1_2 1_555 1_555
C5 C6 1_555 1_555
Cs1A O3A 1_555 1_555
Cs1A O4_2 1_555 1_555
Cs1A_2 O1A 1_555 1_555
Cs1A_2 O3_2 1_555 1_555
Cs1A_2 O4A 1_555 1_555

#END
