
#######################################################################
#
#                 Cambridge Crystallographic Data Centre
#                                CCDC 
#
#######################################################################
#
# If this CIF has been generated from an entry in the Cambridge 
# Structural Database, then it will include bibliographic, chemical, 
# crystal, experimental, refinement or atomic coordinate data resulting 
# from the CCDC's data processing and validation procedures.
#
#######################################################################

data_XIGFEY
_symmetry_cell_setting           monoclinic
_symmetry_space_group_name_H-M   'P 21/n'
_symmetry_Int_Tables_number      14
_space_group_name_Hall           '-P 2yn'
loop_
_symmetry_equiv_pos_site_id
_symmetry_equiv_pos_as_xyz
1 x,y,z
2 1/2+x,1/2-y,1/2+z
3 -x,-y,-z
4 1/2-x,1/2+y,1/2-z
_cell_length_a                   4.8180(7)
_cell_length_b                   15.197(2)
_cell_length_c                   6.4863(9)
_cell_angle_alpha                90
_cell_angle_beta                 91.724(2)
_cell_angle_gamma                90
_cell_volume                     474.706
loop_
_atom_site_label
_atom_site_type_symbol
_atom_site_fract_x
_atom_site_fract_y
_atom_site_fract_z
Se1 Se -0.0284(2) 0.38114(5) 0.08083(12)
Zn1 Zn -0.5326(2) 0.30387(6) -0.18347(14)
O1 O -0.3745(11) 0.3717(4) 0.0521(9)
O2 O 0.0680(11) 0.3167(4) -0.1163(9)
O3 O 0.0420(11) 0.3213(4) 0.2973(9)
N1 N -0.4732(14) 0.3772(4) -0.4389(10)
H1 H -0.5816(14) 0.3561(4) -0.5430(10)
H2 H -0.2954(14) 0.3718(4) -0.4755(10)
C1 C -0.5362(19) 0.4708(5) -0.4098(13)
H3 H -0.7328(19) 0.4769(5) -0.3851(13)
H4 H -0.4353(19) 0.4915(5) -0.2875(13)
C1B C -0.4638(19) 0.5292(5) -0.5902(13)
N1B N -0.5268(14) 0.6228(4) -0.5611(10)
H1B H -0.4184(14) 0.6439(4) -0.4570(10)
H2B H -0.7046(14) 0.6282(4) -0.5245(10)
H3B H -0.2672(19) 0.5231(5) -0.6149(13)
H4B H -0.5647(19) 0.5085(5) -0.7125(13)
Se1_2 Se -1.0284(2) 0.38114(5) 0.08083(12)
O1_2 O -1.3745(11) 0.3717(4) 0.0521(9)
O2_2 O -0.9320(11) 0.3167(4) -0.1163(9)
O3_2 O -0.9580(11) 0.3213(4) 0.2973(9)
Zn1_2 Zn -1.5326(2) 0.30387(6) -0.18347(14)
O3A O -0.4580(11) 0.1787(4) -0.2027(9)
Zn1_3 Zn 0.4674(2) 0.30387(6) -0.18347(14)
Zn1A Zn -0.0326(2) 0.19613(6) 0.31653(14)
Zn1B Zn -0.4674(2) 0.69613(6) -0.81653(14)
Zn1A_2 Zn -1.0326(2) 0.19613(6) 0.31653(14)
O2_3 O -1.9320(11) 0.3167(4) -0.1163(9)
O3A_2 O -1.4580(11) 0.1787(4) -0.2027(9)
N1_2 N -1.4732(14) 0.3772(4) -0.4389(10)
H1_2 H -1.5816(14) 0.3561(4) -0.5430(10)
H2_2 H -1.2954(14) 0.3718(4) -0.4755(10)
loop_
_geom_bond_atom_site_label_1
_geom_bond_atom_site_label_2
_geom_bond_site_symmetry_1
_geom_bond_site_symmetry_2
Se1 O1 1_555 1_555
Zn1 O1 1_555 1_555
O2 Se1 1_555 1_555
O3 Se1 1_555 1_555
N1 Zn1 1_555 1_555
H1 N1 1_555 1_555
H2 N1 1_555 1_555
C1 N1 1_555 1_555
H3 C1 1_555 1_555
H4 C1 1_555 1_555
C1B C1 1_555 1_555
N1B C1B 1_555 1_555
H1B N1B 1_555 1_555
H2B N1B 1_555 1_555
H3B C1B 1_555 1_555
H4B C1B 1_555 1_555
Se1_2 O1_2 1_555 1_555
O1_2 Zn1_2 1_555 1_555
O2_2 Zn1 1_555 1_555
O3_2 Se1_2 1_555 1_555
Zn1_2 O2_3 1_555 1_555
O3A Zn1 1_555 1_555
Zn1_3 O2 1_555 1_555
Zn1A O3 1_555 1_555
Zn1B N1B 1_555 1_555
Zn1A_2 O3_2 1_555 1_555
O3A_2 Zn1_2 1_555 1_555
N1_2 Zn1_2 1_555 1_555
H1_2 N1_2 1_555 1_555
H2_2 N1_2 1_555 1_555
Se1_2 O2_2 1_555 1_555

#END
