
#######################################################################
#
#                 Cambridge Crystallographic Data Centre
#                                CCDC 
#
#######################################################################
#
# If this CIF has been generated from an entry in the Cambridge 
# Structural Database, then it will include bibliographic, chemical, 
# crystal, experimental, refinement or atomic coordinate data resulting 
# from the CCDC's data processing and validation procedures.
#
#######################################################################

data_XIGHEB
_symmetry_cell_setting           monoclinic
_symmetry_space_group_name_H-M   'C 2/c'
_symmetry_Int_Tables_number      15
_space_group_name_Hall           '-C 2yn'
loop_
_symmetry_equiv_pos_site_id
_symmetry_equiv_pos_as_xyz
1 x,y,z
2 1/2+x,1/2+y,z
3 -x,y,1/2-z
4 1/2-x,1/2+y,1/2-z
5 -x,-y,-z
6 1/2-x,1/2-y,-z
7 x,-y,1/2+z
8 1/2+x,1/2-y,1/2+z
_cell_length_a                   35.91(4)
_cell_length_b                   14.833(17)
_cell_length_c                   32.04(4)
_cell_angle_alpha                90
_cell_angle_beta                 102.977(16)
_cell_angle_gamma                90
_cell_volume                     16630.3
loop_
_atom_site_label
_atom_site_type_symbol
_atom_site_fract_x
_atom_site_fract_y
_atom_site_fract_z
C5 C 0.5000 0.7733(15) 0.2500
C8 C 0.4788(10) 0.702(2) 0.2160(11)
O2 O 0.4792(9) 0.807(2) 0.2806(9)
C8B C 0.5212(10) 0.702(2) 0.2840(11)
O2B O 0.5208(9) 0.807(2) 0.2194(9)
C9 C 0.6785(3) 0.4411(8) 0.4413(4)
C10 C 0.6790(4) 0.5248(8) 0.4201(4)
C11 C 0.7129(4) 0.5707(10) 0.4219(5)
H1 H 0.7124 0.6273 0.4079
C12 C 0.7479(4) 0.5347(10) 0.4441(5)
H2 H 0.7710 0.5671 0.4453
C13 C 0.7489(4) 0.4533(11) 0.4638(5)
H3 H 0.7727 0.4283 0.4780
C14 C 0.7148(4) 0.4055(11) 0.4636(5)
H4 H 0.7159 0.3496 0.4782
C15 C 0.6447(3) 0.3885(9) 0.4378(4)
H5 H 0.6464 0.3308 0.4510
C16 C 0.5769(3) 0.3643(9) 0.4118(4)
C17 C 0.5782(4) 0.2686(9) 0.4159(4)
H6 H 0.6019 0.2377 0.4236
C18 C 0.5430(4) 0.2205(11) 0.4082(5)
C19 C 0.5100(4) 0.2610(13) 0.3987(7)
H7 H 0.4872 0.2272 0.3974
C20 C 0.5076(5) 0.3573(13) 0.3901(7)
H8 H 0.4843 0.3861 0.3770
C21 C 0.5422(4) 0.4046(10) 0.4024(6)
H9 H 0.5411 0.4685 0.4041
Cl1 Cl 0.54491(12) 0.1043(3) 0.41082(12)
N1 N 0.6113(3) 0.4184(7) 0.4169(3)
O3 O 0.6454(3) 0.5624(6) 0.3991(4)
C22 C 0.6237(4) 0.5549(10) 0.7923(4)
C23 C 0.5960(5) 0.5833(13) 0.7590(6)
C24 C 0.5791(5) 0.5147(15) 0.7273(5)
H10 H 0.5589 0.5304 0.7038
C25 C 0.5934(5) 0.4224(14) 0.7318(6)
H11 H 0.5829 0.3782 0.7110
C26 C 0.6212(5) 0.4006(12) 0.7650(5)
H12 H 0.6309 0.3408 0.7678
C27 C 0.6365(4) 0.4656(10) 0.7962(5)
H13 H 0.6558 0.4485 0.8204
C28 C 0.6424(3) 0.6209(10) 0.8264(4)
H14 H 0.6614 0.6002 0.8501
C29 C 0.6536(4) 0.7659(9) 0.8556(4)
C30 C 0.6909(4) 0.7551(9) 0.8775(4)
H15 H 0.7044 0.7022 0.8731
C31 C 0.7092(5) 0.8201(11) 0.9058(5)
C32 C 0.6910(6) 0.8933(11) 0.9142(5)
H16 H 0.7033 0.9360 0.9349
C33 C 0.6536(6) 0.9057(13) 0.8919(7)
H17 H 0.6403 0.9582 0.8973
C34 C 0.6356(5) 0.8462(9) 0.8629(5)
H18 H 0.6105 0.8587 0.8472
Cl2 Cl 0.75895(13) 0.8056(3) 0.92953(14)
N2 N 0.6334(3) 0.7028(8) 0.8237(4)
O4 O 0.5834(3) 0.6696(8) 0.7513(4)
I1 I 0.395480(15) 0.76237(3) 0.90472(2)
I2 I 0.724753(16) 1.23084(4) 0.78916(2)
I3 I 0.619284(18) 1.15515(4) 0.693255(19)
I4 I 0.356550(16) 0.91676(4) 1.010910(19)
I5 I 0.62482(2) 1.74269(4) 1.04369(2)
I6 I 0.532430(18) 1.65371(4) 1.11554(2)
Zn1 Zn 0.66465(3) 1.13170(6) 0.76684(3)
Zn2 Zn 0.37553(2) 0.90645(5) 0.93862(3)
Zn3 Zn 0.59000(3) 1.62888(6) 1.08142(3)
C35 C 0.6430(3) 1.2119(6) 0.8447(3)
H19 H 0.6646 1.2489 0.8447
C36 C 0.6227(3) 1.2293(6) 0.8744(3)
H20 H 0.6296 1.2782 0.8938
C37 C 0.5920(2) 1.1764(5) 0.8765(3)
C38 C 0.5683(2) 1.1955(5) 0.9088(2)
C39 C 0.5366(2) 1.3922(5) 1.0129(2)
H21 H 0.5138 1.3591 1.0119
C40 C 0.5634(2) 1.3624(5) 0.9899(2)
C41 C 0.5440(2) 1.4711(5) 1.0370(3)
H22 H 0.5257 1.4915 1.0523
C42 C 0.5967(2) 1.4127(5) 0.9919(3)
H23 H 0.6154 1.3950 0.9767
C43 C 0.5204(2) 1.1550(4) 0.9408(2)
C44 C 0.6013(2) 1.4907(5) 1.0176(3)
H24 H 0.6239 1.5252 1.0194
C45 C 0.5561(2) 1.2782(4) 0.9630(3)
C46 C 0.4858(2) 1.0986(4) 0.9421(2)
C47 C 0.6054(3) 1.0927(7) 0.8170(3)
H25 H 0.5994 1.0440 0.7974
C48 C 0.5828(3) 1.1062(7) 0.8473(4)
H26 H 0.5616 1.0681 0.8477
C49 C 0.69574(19) 0.5805(4) 0.7380(2)
C50 C 0.8235(2) 0.5521(5) 0.8956(3)
H27 H 0.8381 0.5856 0.9189
C51 C 0.8116(2) 0.4187(5) 0.8587(2)
H28 H 0.8171 0.3566 0.8561
C52 C 0.6738(2) 0.5275(5) 0.7009(2)
C53 C 0.6566(2) 0.3919(5) 0.6596(3)
H29 H 0.6606 0.3293 0.6559
C54 C 0.6555(2) 0.9364(5) 0.7468(3)
H30 H 0.6329 0.9582 0.7282
C55 C 0.7827(2) 0.4578(5) 0.8278(3)
H31 H 0.7694 0.4235 0.8040
C56 C 0.77345(18) 0.5474(4) 0.8321(2)
C57 C 0.70566(19) 0.7139(5) 0.7736(2)
C58 C 0.74259(19) 0.5909(4) 0.7994(2)
C59 C 0.6963(2) 0.8110(5) 0.7746(3)
C60 C 0.7202(2) 0.8725(5) 0.8016(3)
H32 H 0.7425 0.8521 0.8213
C61 C 0.7107(2) 0.9627(5) 0.7991(3)
H33 H 0.7272 1.0038 0.8172
C62 C 0.6461(3) 0.5720(6) 0.6694(3)
H34 H 0.6419 0.6348 0.6717
C63 C 0.7948(2) 0.5961(5) 0.8669(3)
H35 H 0.7896 0.6580 0.8707
C64 C 0.6252(3) 0.5235(6) 0.6355(3)
H36 H 0.6066 0.5545 0.6146
C65 C 0.6788(2) 0.4357(5) 0.6953(3)
H37 H 0.6972 0.4029 0.7155
C66 C 0.6633(2) 0.8439(5) 0.7471(3)
H38 H 0.6464 0.8040 0.7289
C67 C 0.4362(2) 1.0002(6) 0.9059(3)
H39 H 0.4239 0.9685 0.8808
C68 C 0.4380(2) 1.0412(6) 0.9759(3)
H40 H 0.4275 1.0378 1.0005
C69 C 0.4698(2) 1.0950(5) 0.9773(3)
H41 H 0.4805 1.1290 1.0023
C70 C 0.4681(2) 1.0506(6) 0.9043(3)
H42 H 0.4779 1.0531 0.8791
N3 N 0.42138(16) 0.9933(4) 0.9406(2)
N4 N 0.53944(16) 1.1371(4) 0.9099(2)
N5 N 0.57724(17) 1.2687(4) 0.9333(2)
N6 N 0.52820(16) 1.2222(4) 0.9705(2)
N7 N 0.63520(18) 1.1464(4) 0.8150(2)
N8 N 0.57634(19) 1.5193(4) 1.0393(2)
N9 N 0.62982(19) 0.4346(4) 0.6304(2)
N10 N 0.68476(17) 0.6667(4) 0.7405(2)
N11 N 0.72405(16) 0.5395(4) 0.7661(2)
N12 N 0.73445(16) 0.6796(4) 0.8047(2)
N13 N 0.83204(16) 0.4647(4) 0.8922(2)
N14 N 0.67893(17) 0.9961(4) 0.7720(2)
I1A I 0.895480(15) 0.26237(3) 0.90472(2)
I2A I 1.224753(16) 0.73084(4) 0.78916(2)
I3A I 1.119284(18) 0.65515(4) 0.693255(19)
I4A I 0.856550(16) 0.41676(4) 1.010910(19)
I5F I 0.62482(2) 0.25731(4) 0.54369(2)
I6F I 0.532430(18) 0.34629(4) 0.61554(2)
Zn1A Zn 1.16465(3) 0.63170(6) 0.76684(3)
Zn1A_2 Zn 0.16465(3) 1.63170(6) 0.76684(3)
Zn2A Zn 0.87553(2) 0.40645(5) 0.93862(3)
Zn3F Zn 0.59000(3) 0.37112(6) 0.58142(3)
Zn3G Zn 0.09000(3) 0.87112(6) 0.58142(3)
Zn3A Zn 1.09000(3) 1.12888(6) 1.08142(3)
C35A C 1.1430(3) 0.7119(6) 0.8447(3)
H19A H 1.1646 0.7489 0.8447
C36A C 1.1227(3) 0.7293(6) 0.8744(3)
H20A H 1.1296 0.7782 0.8938
C37A C 1.0920(2) 0.6764(5) 0.8765(3)
C38A C 1.0683(2) 0.6955(5) 0.9088(2)
C39A C 1.0366(2) 0.8922(5) 1.0129(2)
H21A H 1.0138 0.8591 1.0119
C40A C 1.0634(2) 0.8624(5) 0.9899(2)
C41A C 1.0440(2) 0.9711(5) 1.0370(3)
H22A H 1.0257 0.9915 1.0523
C42A C 1.0967(2) 0.9127(5) 0.9919(3)
H23A H 1.1154 0.8950 0.9767
C43A C 1.0204(2) 0.6550(4) 0.9408(2)
C44A C 1.1013(2) 0.9907(5) 1.0176(3)
H24A H 1.1239 1.0252 1.0194
C45A C 1.0561(2) 0.7782(4) 0.9630(3)
C46A C 0.9858(2) 0.5986(4) 0.9421(2)
C47A C 1.1054(3) 0.5927(7) 0.8170(3)
H25A H 1.0994 0.5440 0.7974
C48A C 1.0828(3) 0.6062(7) 0.8473(4)
H26A H 1.0616 0.5681 0.8477
C49A C 0.19574(19) 1.0805(4) 0.7380(2)
C50A C 0.3235(2) 1.0521(5) 0.8956(3)
H27A H 0.3381 1.0856 0.9189
C51A C 0.3116(2) 0.9187(5) 0.8587(2)
H28A H 0.3171 0.8566 0.8561
C52A C 0.1738(2) 1.0275(5) 0.7009(2)
C53A C 0.1566(2) 0.8919(5) 0.6596(3)
H29A H 0.1606 0.8293 0.6559
C54A C 0.1555(2) 1.4364(5) 0.7468(3)
H30A H 0.1329 1.4582 0.7282
C55A C 0.2827(2) 0.9578(5) 0.8278(3)
H31A H 0.2694 0.9235 0.8040
C56A C 0.27345(18) 1.0474(4) 0.8321(2)
C57A C 0.20566(19) 1.2139(5) 0.7736(2)
C58A C 0.24259(19) 1.0909(4) 0.7994(2)
C59A C 0.1963(2) 1.3110(5) 0.7746(3)
C60A C 0.2202(2) 1.3725(5) 0.8016(3)
H32A H 0.2425 1.3521 0.8213
C61A C 0.2107(2) 1.4627(5) 0.7991(3)
H33A H 0.2272 1.5038 0.8172
C62A C 0.1461(3) 1.0720(6) 0.6694(3)
H34A H 0.1419 1.1348 0.6717
C63A C 0.2948(2) 1.0961(5) 0.8669(3)
H35A H 0.2896 1.1580 0.8707
C64A C 0.1252(3) 1.0235(6) 0.6355(3)
H36A H 0.1066 1.0545 0.6146
C65A C 0.1788(2) 0.9357(5) 0.6953(3)
H37A H 0.1972 0.9029 0.7155
C66A C 0.1633(2) 1.3439(5) 0.7471(3)
H38A H 0.1464 1.3040 0.7289
C67A C 0.9362(2) 0.5002(6) 0.9059(3)
H39A H 0.9239 0.4685 0.8808
C68A C 0.9380(2) 0.5412(6) 0.9759(3)
H40A H 0.9275 0.5378 1.0005
C69A C 0.9698(2) 0.5950(5) 0.9773(3)
H41A H 0.9805 0.6290 1.0023
C70A C 0.9681(2) 0.5506(6) 0.9043(3)
H42A H 0.9779 0.5531 0.8791
N3A N 0.92138(16) 0.4933(4) 0.9406(2)
N4A N 1.03944(16) 0.6371(4) 0.9099(2)
N5A N 1.07724(17) 0.7687(4) 0.9333(2)
N6A N 1.02820(16) 0.7222(4) 0.9705(2)
N7A N 1.13520(18) 0.6464(4) 0.8150(2)
N8A N 1.07634(19) 1.0193(4) 1.0393(2)
N8F N 0.57634(19) 0.4807(4) 0.5393(2)
N9A N 0.12982(19) 0.9346(4) 0.6304(2)
N9F N 0.62982(19) 1.5654(4) 1.1304(2)
N10A N 0.18476(17) 1.1667(4) 0.7405(2)
N11A N 0.22405(16) 1.0395(4) 0.7661(2)
N12A N 0.23445(16) 1.1796(4) 0.8047(2)
N13A N 0.33204(16) 0.9647(4) 0.8922(2)
N14A N 0.17893(17) 1.4961(4) 0.7720(2)
N14A_2 N 1.17893(17) 0.4961(4) 0.7720(2)
C1 C 0.7749(4) 0.1639(10) 0.9346(6)
C2 C 0.7903(5) 0.0769(15) 0.9150(10)
C3 C 0.7298(4) 0.1342(12) 0.9276(7)
C4 C 0.7999(7) 0.168(2) 0.9819(9)
O1 O 0.7744(5) 0.2439(11) 0.9086(7)
C6? C 0.5390(9) 0.725(3) 0.2714(15)
C7? C 0.5179(10) 0.8640(19) 0.2322(11)
loop_
_geom_bond_atom_site_label_1
_geom_bond_atom_site_label_2
_geom_bond_site_symmetry_1
_geom_bond_site_symmetry_2
C1 C2 1_555 1_555
C3 C1 1_555 1_555
C4 C1 1_555 1_555
O1 C1 1_555 1_555
C5 C8 1_555 1_555
O2 C5 1_555 1_555
C9 C10 1_555 1_555
C10 C11 1_555 1_555
C11 H1 1_555 1_555
C12 C11 1_555 1_555
H2 C12 1_555 1_555
C13 C12 1_555 1_555
H3 C13 1_555 1_555
C14 C9 1_555 1_555
H4 C14 1_555 1_555
C15 C9 1_555 1_555
H5 C15 1_555 1_555
C16 C17 1_555 1_555
C17 H6 1_555 1_555
C18 C17 1_555 1_555
C19 C18 1_555 1_555
H7 C19 1_555 1_555
C20 C19 1_555 1_555
H8 C20 1_555 1_555
C21 C16 1_555 1_555
H9 C21 1_555 1_555
Cl1 C18 1_555 1_555
N1 C15 1_555 1_555
O3 C10 1_555 1_555
C22 C23 1_555 1_555
C23 C24 1_555 1_555
C24 H10 1_555 1_555
C25 C24 1_555 1_555
H11 C25 1_555 1_555
C26 C25 1_555 1_555
H12 C26 1_555 1_555
C27 C22 1_555 1_555
H13 C27 1_555 1_555
C28 C22 1_555 1_555
H14 C28 1_555 1_555
C29 C30 1_555 1_555
C30 H15 1_555 1_555
C31 C30 1_555 1_555
C32 C31 1_555 1_555
H16 C32 1_555 1_555
C33 C32 1_555 1_555
H17 C33 1_555 1_555
C34 C29 1_555 1_555
H18 C34 1_555 1_555
Cl2 C31 1_555 1_555
N2 C28 1_555 1_555
O4 C23 1_555 1_555
I1 Zn2 1_555 1_555
I2 Zn1 1_555 1_555
I3 Zn1 1_555 1_555
I4 Zn2 1_555 1_555
I5 Zn3 1_555 1_555
I6 Zn3 1_555 1_555
Zn1 N7 1_555 1_555
Zn2 N3 1_555 1_555
Zn3 N8 1_555 1_555
C35 H19 1_555 1_555
C36 C35 1_555 1_555
H20 C36 1_555 1_555
C37 C36 1_555 1_555
C38 C37 1_555 1_555
C39 H21 1_555 1_555
C40 C39 1_555 1_555
C41 C39 1_555 1_555
H22 C41 1_555 1_555
C42 C40 1_555 1_555
H23 C42 1_555 1_555
C43 C46 1_555 1_555
C44 C42 1_555 1_555
H24 C44 1_555 1_555
C45 C40 1_555 1_555
C46 C69 1_555 1_555
C47 H25 1_555 1_555
C48 C37 1_555 1_555
H26 C48 1_555 1_555
C49 C52 1_555 1_555
C50 H27 1_555 1_555
C51 H28 1_555 1_555
C52 C62 1_555 1_555
C53 H29 1_555 1_555
C54 H30 1_555 1_555
C55 C51 1_555 1_555
H31 C55 1_555 1_555
C56 C55 1_555 1_555
C57 C59 1_555 1_555
C58 C56 1_555 1_555
C59 C60 1_555 1_555
C60 H32 1_555 1_555
C61 C60 1_555 1_555
H33 C61 1_555 1_555
C62 H34 1_555 1_555
C63 C50 1_555 1_555
H35 C63 1_555 1_555
C64 C62 1_555 1_555
H36 C64 1_555 1_555
C65 C52 1_555 1_555
H37 C65 1_555 1_555
C66 C54 1_555 1_555
H38 C66 1_555 1_555
C67 H39 1_555 1_555
C68 H40 1_555 1_555
C69 C68 1_555 1_555
H41 C69 1_555 1_555
C70 C46 1_555 1_555
H42 C70 1_555 1_555
N3 C67 1_555 1_555
N4 C38 1_555 1_555
N5 C38 1_555 1_555
N6 C43 1_555 1_555
N7 C35 1_555 1_555
N8 C41 1_555 1_555
N9 C53 1_555 1_555
N10 C49 1_555 1_555
N11 C49 1_555 1_555
N12 C57 1_555 1_555
N13 C50 1_555 1_555
N14 Zn1 1_555 1_555
C8B C5 1_555 1_555
O2B C5 1_555 1_555
I1A Zn2A 1_555 1_555
I2A Zn1A 1_555 1_555
I3A Zn1A 1_555 1_555
I4A Zn2A 1_555 1_555
I5F Zn3F 1_555 1_555
I6F Zn3F 1_555 1_555
Zn1A N7A 1_555 1_555
Zn1A_2 N14A 1_555 1_555
Zn2A N13 1_555 1_555
Zn3F N9 1_555 1_555
Zn3G N9A 1_555 1_555
Zn3A N8A 1_555 1_555
C35A H19A 1_555 1_555
C36A C35A 1_555 1_555
H20A C36A 1_555 1_555
C37A C36A 1_555 1_555
C38A C37A 1_555 1_555
C39A H21A 1_555 1_555
C40A C39A 1_555 1_555
C41A C39A 1_555 1_555
H22A C41A 1_555 1_555
C42A C40A 1_555 1_555
H23A C42A 1_555 1_555
C43A C46A 1_555 1_555
C44A C42A 1_555 1_555
H24A C44A 1_555 1_555
C45A C40A 1_555 1_555
C46A C69A 1_555 1_555
C47A H25A 1_555 1_555
C48A C37A 1_555 1_555
H26A C48A 1_555 1_555
C49A C52A 1_555 1_555
C50A H27A 1_555 1_555
C51A H28A 1_555 1_555
C52A C62A 1_555 1_555
C53A H29A 1_555 1_555
C54A H30A 1_555 1_555
C55A C51A 1_555 1_555
H31A C55A 1_555 1_555
C56A C55A 1_555 1_555
C57A C59A 1_555 1_555
C58A C56A 1_555 1_555
C59A C60A 1_555 1_555
C60A H32A 1_555 1_555
C61A C60A 1_555 1_555
H33A C61A 1_555 1_555
C62A H34A 1_555 1_555
C63A C50A 1_555 1_555
H35A C63A 1_555 1_555
C64A C62A 1_555 1_555
H36A C64A 1_555 1_555
C65A C52A 1_555 1_555
H37A C65A 1_555 1_555
C66A C54A 1_555 1_555
H38A C66A 1_555 1_555
C67A H39A 1_555 1_555
C68A H40A 1_555 1_555
C69A C68A 1_555 1_555
H41A C69A 1_555 1_555
C70A C46A 1_555 1_555
H42A C70A 1_555 1_555
N3A Zn2A 1_555 1_555
N4A C38A 1_555 1_555
N5A C38A 1_555 1_555
N6A C43A 1_555 1_555
N7A C35A 1_555 1_555
N8A C41A 1_555 1_555
N8F Zn3F 1_555 1_555
N9A C53A 1_555 1_555
N9F Zn3 1_555 1_555
N10A C49A 1_555 1_555
N11A C49A 1_555 1_555
N12A C57A 1_555 1_555
N13A Zn2 1_555 1_555
N14A C54A 1_555 1_555
N14A_2 Zn1A 1_555 1_555
C13 C14 1_555 1_555
C16 N1 1_555 1_555
C20 C21 1_555 1_555
C26 C27 1_555 1_555
C29 N2 1_555 1_555
C33 C34 1_555 1_555
C43 N4 1_555 1_555
C44 N8 1_555 1_555
C45 N5 1_555 1_555
C45 N6 1_555 1_555
C47 C48 1_555 1_555
C47 N7 1_555 1_555
C51 N13 1_555 1_555
C53 C65 1_555 1_555
C54 N14 1_555 1_555
C56 C63 1_555 1_555
C57 N10 1_555 1_555
C58 N11 1_555 1_555
C58 N12 1_555 1_555
C59 C66 1_555 1_555
C61 N14 1_555 1_555
C64 N9 1_555 1_555
C67 C70 1_555 1_555
C68 N3 1_555 1_555
C43A N4A 1_555 1_555
C44A N8A 1_555 1_555
C45A N5A 1_555 1_555
C45A N6A 1_555 1_555
C47A C48A 1_555 1_555
C47A N7A 1_555 1_555
C50A N13A 1_555 1_555
C51A N13A 1_555 1_555
C53A C65A 1_555 1_555
C56A C63A 1_555 1_555
C57A N10A 1_555 1_555
C58A N11A 1_555 1_555
C58A N12A 1_555 1_555
C59A C66A 1_555 1_555
C61A N14A 1_555 1_555
C64A N9A 1_555 1_555
C67A C70A 1_555 1_555
C67A N3A 1_555 1_555
C68A N3A 1_555 1_555

#END
