
#######################################################################
#
#                 Cambridge Crystallographic Data Centre
#                                CCDC 
#
#######################################################################
#
# If this CIF has been generated from an entry in the Cambridge 
# Structural Database, then it will include bibliographic, chemical, 
# crystal, experimental, refinement or atomic coordinate data resulting 
# from the CCDC's data processing and validation procedures.
#
#######################################################################

data_XIGJUU
_symmetry_cell_setting           triclinic
_symmetry_space_group_name_H-M   'P -1'
_symmetry_Int_Tables_number      2
_space_group_name_Hall           '-P 1'
loop_
_symmetry_equiv_pos_site_id
_symmetry_equiv_pos_as_xyz
1 x,y,z
2 -x,-y,-z
_cell_length_a                   9.3410(4)
_cell_length_b                   12.5779(6)
_cell_length_c                   14.0193(5)
_cell_angle_alpha                103.842(4)
_cell_angle_beta                 105.081(3)
_cell_angle_gamma                99.784(4)
_cell_volume                     1496.11
loop_
_atom_site_label
_atom_site_type_symbol
_atom_site_fract_x
_atom_site_fract_y
_atom_site_fract_z
Cd1 Cd 0.5000 1.0000 0.5000
C1 C 0.4010(2) 0.94535(17) 0.25165(15)
C2 C 0.4204(2) 0.88773(16) 0.14871(14)
C3 C 0.3553(2) 0.91744(17) 0.06081(14)
H1 H 0.3001 0.9724 0.0654
C4 C 0.3720(2) 0.86576(17) -0.03420(14)
C5 C 0.4539(2) 0.78440(17) -0.04099(15)
H2 H 0.4662 0.7503 -0.1040
C6 C 0.5181(2) 0.75319(17) 0.04581(15)
C7 C 0.5024(2) 0.80559(17) 0.14082(15)
H3 H 0.5471 0.7854 0.1991
C8 C 0.3010(2) 0.89709(17) -0.12833(15)
C9 C 0.6003(2) 0.66235(18) 0.03510(16)
C10 C 0.8017(2) 0.89130(18) 0.56665(15)
H4 H 0.7836 0.8852 0.6275
C11 C 0.7983(2) 0.93323(18) 0.43011(15)
H5 H 0.7737 0.9645 0.3760
C12 C 0.9830(2) 0.76379(18) 0.55763(16)
H6 H 0.9738 0.7568 0.6233
H7 H 1.0903 0.7929 0.5670
C13 C 0.9248(2) 0.64918(18) 0.47782(15)
C14 C 1.0147(3) 0.6092(2) 0.42015(16)
H8 H 1.1114 0.6532 0.4309
C15 C 0.9623(3) 0.5049(2) 0.34719(19)
H9 H 1.0240 0.4785 0.3093
C16 C 0.8194(3) 0.4394(2) 0.32996(18)
H10 H 0.7845 0.3689 0.2803
C17 C 0.7811(2) 0.58194(18) 0.46036(16)
H11 H 0.7203 0.6076 0.4993
C18 C 0.7267(2) 0.47807(18) 0.38659(16)
C19 C 0.5706(3) 0.4052(2) 0.36908(19)
H12 H 0.5283 0.3598 0.2971
H13 H 0.5031 0.4533 0.3833
C20 C 0.5866(3) 0.27851(19) 0.56675(17)
H14 H 0.5912 0.2787 0.6339
C21 C 0.5756(2) 0.22188(18) 0.41164(17)
H15 H 0.5709 0.1778 0.3468
N1 N 0.73638(19) 0.94972(15) 0.50829(13)
N2 N 0.89572(19) 0.86954(15) 0.43720(12)
N3 N 0.89662(18) 0.84282(14) 0.52589(12)
N4 N 0.5824(2) 0.18491(14) 0.49345(13)
N5 N 0.5839(2) 0.36927(16) 0.53586(15)
N6 N 0.5763(2) 0.32995(15) 0.43521(14)
O1 O 0.46606(17) 0.91590(13) 0.32749(10)
O2 O 0.32437(17) 1.01731(13) 0.25553(10)
O3 O 0.2223(2) 0.97269(15) -0.10947(11)
H16 H 0.1891 0.9906 -0.1619
O4 O 0.31383(19) 0.85836(14) -0.21236(11)
O5 O 0.6057(2) 0.61372(15) -0.05246(12)
O6 O 0.6636(2) 0.63910(15) 0.11745(12)
H17 H 0.7030 0.5865 0.1029
C10A C 0.1983(2) 0.10870(18) 0.43335(15)
H4A H 0.2164 0.1148 0.3725
C11A C 0.2017(2) 0.06677(18) 0.56989(15)
H5A H 0.2263 0.0355 0.6240
C12A C 0.0170(2) 0.23621(18) 0.44237(16)
H6A H 0.0262 0.2432 0.3767
H7A H -0.0903 0.2071 0.4330
C13A C 0.0752(2) 0.35082(18) 0.52218(15)
C14A C -0.0147(3) 0.3908(2) 0.57985(16)
H8A H -0.1114 0.3468 0.5691
C15A C 0.0377(3) 0.4951(2) 0.65281(19)
H9A H -0.0240 0.5215 0.6907
C16A C 0.1806(3) 0.5606(2) 0.67004(18)
H10A H 0.2155 0.6311 0.7197
C17A C 0.2189(2) 0.41806(18) 0.53964(16)
H11A H 0.2797 0.3924 0.5007
C18A C 0.2733(2) 0.52193(18) 0.61341(16)
C19A C 0.4294(3) 0.5948(2) 0.63092(19)
H12A H 0.4717 0.6402 0.7029
H13A H 0.4969 0.5467 0.6167
C20A C 0.4134(3) 0.72149(19) 0.43325(17)
H14A H 0.4088 0.7213 0.3661
C21A C 0.4244(2) 0.77812(18) 0.58836(17)
H15A H 0.4291 0.8222 0.6532
N1A N 0.26362(19) 0.05028(15) 0.49171(13)
N2A N 0.10428(19) 0.13046(15) 0.56280(12)
N3A N 0.10338(18) 0.15718(14) 0.47411(12)
N4A N 0.4176(2) 0.81509(14) 0.50655(13)
N5A N 0.4161(2) 0.63073(16) 0.46414(15)
N6A N 0.4237(2) 0.67005(15) 0.56479(14)
C1A C 0.5990(2) 1.05465(17) 0.74835(15)
C2A C 0.5796(2) 1.11227(16) 0.85129(14)
C3A C 0.6447(2) 1.08256(17) 0.93919(14)
H1A H 0.6999 1.0276 0.9346
C4A C 0.6280(2) 1.13424(17) 1.03420(14)
C5A C 0.5461(2) 1.21560(17) 1.04099(15)
H2A H 0.5338 1.2497 1.1040
C6A C 0.4819(2) 1.24681(17) 0.95419(15)
C7A C 0.4976(2) 1.19441(17) 0.85918(15)
H3A H 0.4529 1.2146 0.8009
C8A C 0.6990(2) 1.10291(17) 1.12833(15)
C9A C 0.3997(2) 1.33765(18) 0.96490(16)
O1A O 0.53394(17) 1.08410(13) 0.67251(10)
O2A O 0.67563(17) 0.98269(13) 0.74447(10)
O3A O 0.7777(2) 1.02731(15) 1.10947(11)
H16A H 0.8109 1.0094 1.1619
O4A O 0.68617(19) 1.14164(14) 1.21236(11)
O5A O 0.3943(2) 1.38628(15) 1.05246(12)
O6A O 0.3364(2) 1.36090(15) 0.88255(12)
H17A H 0.2970 1.4135 0.8971
Cd1_2 Cd 0.5000 0.0000 0.5000
N1A_2 N 0.26362(19) 1.05028(15) 0.49171(13)
N4_2 N 0.5824(2) 1.18491(14) 0.49345(13)
C22 C 0.1282(3) 0.1930(2) 1.15353(17)
C23 C -0.1831(2) 0.43034(17) 0.99980(16)
C24 C 0.0188(2) 0.15612(19) 0.77946(15)
C25 C -0.0039(2) 0.20901(17) 0.88011(15)
C26 C 0.0619(2) 0.17577(18) 0.96542(15)
H18 H 0.1131 0.1186 0.9578
C27 C 0.0520(2) 0.22687(18) 1.06169(15)
C28 C -0.0274(2) 0.31015(18) 1.07224(15)
H19 H -0.0346 0.3445 1.1368
C29 C -0.0961(2) 0.34274(17) 0.98740(15)
C30 C -0.0830(2) 0.29272(17) 0.89115(15)
H20 H -0.1273 0.3154 0.8343
O7 O 0.08105(19) 0.07919(14) 0.76561(11)
O8 O -0.03247(19) 0.20243(15) 0.70757(11)
H21 H -0.0035 0.1788 0.6579
O9 O -0.2465(2) 0.45512(14) 0.91832(12)
H22 H -0.2868 0.5070 0.9337
O10 O -0.1917(2) 0.47542(14) 1.08720(12)
O11 O 0.1317(2) 0.23628(17) 1.23998(12)
O12 O 0.166(4) 0.095(2) 1.1239(8)
H23 H 0.2164 0.0819 1.1749
O13? O 0.231(5) 0.137(3) 1.1364(13)
H24? H 0.2549 0.1066 1.1820
loop_
_geom_bond_atom_site_label_1
_geom_bond_atom_site_label_2
_geom_bond_site_symmetry_1
_geom_bond_site_symmetry_2
Cd1 N1 1_555 1_555
C1 C2 1_555 1_555
C2 C3 1_555 1_555
C3 H1 1_555 1_555
C4 C3 1_555 1_555
C5 C4 1_555 1_555
H2 C5 1_555 1_555
C6 C5 1_555 1_555
C7 C2 1_555 1_555
H3 C7 1_555 1_555
C8 C4 1_555 1_555
C9 C6 1_555 1_555
C10 H4 1_555 1_555
C11 H5 1_555 1_555
C12 H6 1_555 1_555
H7 C12 1_555 1_555
C13 C12 1_555 1_555
C14 C13 1_555 1_555
H8 C14 1_555 1_555
C15 C14 1_555 1_555
H9 C15 1_555 1_555
C16 C15 1_555 1_555
H10 C16 1_555 1_555
C17 C13 1_555 1_555
H11 C17 1_555 1_555
C18 C16 1_555 1_555
C19 C18 1_555 1_555
H12 C19 1_555 1_555
H13 C19 1_555 1_555
C20 H14 1_555 1_555
C21 H15 1_555 1_555
N1 C10 1_555 1_555
N2 C11 1_555 1_555
N3 C10 1_555 1_555
N4 C20 1_555 1_555
N5 C20 1_555 1_555
N6 C19 1_555 1_555
O1 Cd1 1_555 1_555
O2 C1 1_555 1_555
O3 C8 1_555 1_555
H16 O3 1_555 1_555
O4 C8 1_555 1_555
O5 C9 1_555 1_555
O6 C9 1_555 1_555
H17 O6 1_555 1_555
C22 C27 1_555 1_555
C23 C29 1_555 1_555
C24 C25 1_555 1_555
C25 C26 1_555 1_555
C26 H18 1_555 1_555
C27 C26 1_555 1_555
C28 C27 1_555 1_555
H19 C28 1_555 1_555
C29 C28 1_555 1_555
C30 C25 1_555 1_555
H20 C30 1_555 1_555
O7 C24 1_555 1_555
O8 C24 1_555 1_555
H21 O8 1_555 1_555
O9 C23 1_555 1_555
H22 O9 1_555 1_555
O10 C23 1_555 1_555
O11 C22 1_555 1_555
O12 C22 1_555 1_555
H23 O12 1_555 1_555
C10A H4A 1_555 1_555
C11A H5A 1_555 1_555
C12A H6A 1_555 1_555
H7A C12A 1_555 1_555
C13A C12A 1_555 1_555
C14A C13A 1_555 1_555
H8A C14A 1_555 1_555
C15A C14A 1_555 1_555
H9A C15A 1_555 1_555
C16A C15A 1_555 1_555
H10A C16A 1_555 1_555
C17A C13A 1_555 1_555
H11A C17A 1_555 1_555
C18A C16A 1_555 1_555
C19A C18A 1_555 1_555
H12A C19A 1_555 1_555
H13A C19A 1_555 1_555
C20A H14A 1_555 1_555
C21A H15A 1_555 1_555
N1A C10A 1_555 1_555
N2A C11A 1_555 1_555
N3A C10A 1_555 1_555
N4A Cd1 1_555 1_555
N5A C20A 1_555 1_555
N6A C19A 1_555 1_555
C1A C2A 1_555 1_555
C2A C3A 1_555 1_555
C3A H1A 1_555 1_555
C4A C3A 1_555 1_555
C5A C4A 1_555 1_555
H2A C5A 1_555 1_555
C6A C5A 1_555 1_555
C7A C2A 1_555 1_555
H3A C7A 1_555 1_555
C8A C4A 1_555 1_555
C9A C6A 1_555 1_555
O1A Cd1 1_555 1_555
O2A C1A 1_555 1_555
O3A C8A 1_555 1_555
H16A O3A 1_555 1_555
O4A C8A 1_555 1_555
O5A C9A 1_555 1_555
O6A C9A 1_555 1_555
H17A O6A 1_555 1_555
Cd1_2 N4 1_555 1_555
N1A_2 Cd1 1_555 1_555
N4_2 Cd1 1_555 1_555
C1 O1 1_555 1_555
C6 C7 1_555 1_555
C11 N1 1_555 1_555
C12 N3 1_555 1_555
C17 C18 1_555 1_555
C21 N4 1_555 1_555
C21 N6 1_555 1_555
N2 N3 1_555 1_555
N5 N6 1_555 1_555
C29 C30 1_555 1_555
C11A N1A 1_555 1_555
C12A N3A 1_555 1_555
C17A C18A 1_555 1_555
C20A N4A 1_555 1_555
C21A N4A 1_555 1_555
C21A N6A 1_555 1_555
N1A Cd1_2 1_555 1_555
N2A N3A 1_555 1_555
N5A N6A 1_555 1_555
C1A O1A 1_555 1_555
C6A C7A 1_555 1_555

#END
