
#######################################################################
#
#                 Cambridge Crystallographic Data Centre
#                                CCDC 
#
#######################################################################
#
# If this CIF has been generated from an entry in the Cambridge 
# Structural Database, then it will include bibliographic, chemical, 
# crystal, experimental, refinement or atomic coordinate data resulting 
# from the CCDC's data processing and validation procedures.
#
#######################################################################

data_XIGKEF
_symmetry_cell_setting           orthorhombic
_symmetry_space_group_name_H-M   'P b c a'
_symmetry_Int_Tables_number      61
_space_group_name_Hall           '-P 2ac 2ab'
loop_
_symmetry_equiv_pos_site_id
_symmetry_equiv_pos_as_xyz
1 x,y,z
2 1/2-x,-y,1/2+z
3 -x,1/2+y,1/2-z
4 1/2+x,1/2-y,-z
5 -x,-y,-z
6 1/2+x,y,1/2-z
7 x,1/2-y,1/2+z
8 1/2-x,1/2+y,z
_cell_length_a                   10.135(3)
_cell_length_b                   13.562(4)
_cell_length_c                   20.655(6)
_cell_angle_alpha                90
_cell_angle_beta                 90
_cell_angle_gamma                90
_cell_volume                     2839.05
loop_
_atom_site_label
_atom_site_type_symbol
_atom_site_fract_x
_atom_site_fract_y
_atom_site_fract_z
Br1 Br 0.47826(11) 0.61643(9) 0.42900(6)
Br2 Br 0.32846(13) 0.37679(10) 0.34678(6)
C1 C 0.9423(11) 0.3720(8) 0.4937(5)
C2 C 0.8970(11) 0.3861(9) 0.5569(5)
H1 H 0.8064 0.3986 0.5651
C3 C 0.9865(11) 0.3817(8) 0.6068(5)
C4 C 1.1193(10) 0.3614(7) 0.5955(5)
H2 H 1.1794 0.3554 0.6306
C5 C 1.1619(12) 0.3500(9) 0.5328(6)
H3 H 1.2531 0.3394 0.5247
C6 C 1.0752(11) 0.3539(8) 0.4815(6)
H4 H 1.1056 0.3444 0.4384
C7 C 0.8643(13) 0.3416(10) 0.3793(6)
H5 H 0.9402 0.3085 0.3633
C8 C 0.7342(11) 0.4237(9) 0.4423(5)
H6 H 0.6988 0.4580 0.4785
C9 C 0.8249(12) 0.3801(9) 0.6995(6)
H7 H 0.7554 0.3447 0.6792
C10 C 1.0119(12) 0.4559(9) 0.7166(5)
H8 H 1.0977 0.4826 0.7109
N1 N 0.6766(9) 0.4153(7) 0.3854(4)
N2 N 0.7552(11) 0.3611(8) 0.3446(4)
N3 N 0.8502(9) 0.3766(7) 0.4413(4)
N4 N 0.9414(9) 0.4613(7) 0.7700(5)
N5 N 0.8239(10) 0.4124(8) 0.7598(5)
N6 N 0.9421(9) 0.4057(7) 0.6707(5)
Zn1 Zn 0.50903(12) 0.48354(10) 0.35666(6)
N4A N 0.5586(9) 0.5387(7) 0.2700(5)
Zn1A Zn 0.99097(12) 0.51646(10) 0.85666(6)
O1 O 0.0641(9) 0.2734(8) 0.2600(5)
H9 H 0.0992 0.2899 0.2243
H10 H 0.1151 0.2921 0.2903
loop_
_geom_bond_atom_site_label_1
_geom_bond_atom_site_label_2
_geom_bond_site_symmetry_1
_geom_bond_site_symmetry_2
Br1 Zn1 1_555 1_555
Br2 Zn1 1_555 1_555
C1 C2 1_555 1_555
C2 H1 1_555 1_555
C3 C2 1_555 1_555
C4 C3 1_555 1_555
H2 C4 1_555 1_555
C5 C4 1_555 1_555
H3 C5 1_555 1_555
C6 C1 1_555 1_555
H4 C6 1_555 1_555
C7 H5 1_555 1_555
C8 H6 1_555 1_555
C9 H7 1_555 1_555
C10 H8 1_555 1_555
N1 C8 1_555 1_555
N2 C7 1_555 1_555
N3 C1 1_555 1_555
N4 C10 1_555 1_555
N5 C9 1_555 1_555
N6 C3 1_555 1_555
Zn1 N1 1_555 1_555
O1 H9 1_555 1_555
H10 O1 1_555 1_555
N4A Zn1 1_555 1_555
Zn1A N4 1_555 1_555
C5 C6 1_555 1_555
C7 N3 1_555 1_555
C8 N3 1_555 1_555
C9 N6 1_555 1_555
C10 N6 1_555 1_555
N1 N2 1_555 1_555
N4 N5 1_555 1_555

#END
