
#######################################################################
#
#                 Cambridge Crystallographic Data Centre
#                                CCDC 
#
#######################################################################
#
# If this CIF has been generated from an entry in the Cambridge 
# Structural Database, then it will include bibliographic, chemical, 
# crystal, experimental, refinement or atomic coordinate data resulting 
# from the CCDC's data processing and validation procedures.
#
#######################################################################

data_XIGKAA
_symmetry_cell_setting           monoclinic
_symmetry_space_group_name_H-M   'P 2/n'
_symmetry_Int_Tables_number      13
_space_group_name_Hall           '-P 2yac'
loop_
_symmetry_equiv_pos_site_id
_symmetry_equiv_pos_as_xyz
1 x,y,z
2 1/2-x,y,1/2-z
3 -x,-y,-z
4 1/2+x,-y,1/2+z
_cell_length_a                   12.5302(12)
_cell_length_b                   8.4288(8)
_cell_length_c                   14.9355(14)
_cell_angle_alpha                90
_cell_angle_beta                 109.308(2)
_cell_angle_gamma                90
_cell_volume                     1488.68
loop_
_atom_site_label
_atom_site_type_symbol
_atom_site_fract_x
_atom_site_fract_y
_atom_site_fract_z
Ag1 Ag 0.6300(1) 0.4766(1) 0.0419(1)
N1 N 0.6036(2) 0.2694(3) -0.0614(2)
N2 N 0.6115(3) 0.3956(5) -0.8248(2)
N3 N 0.6345(3) -0.2879(3) -0.0134(2)
C1 C 0.6128(2) 0.1201(3) -0.0282(2)
C2 C 0.6176(2) -0.0082(3) -0.0844(2)
C3 C 0.6126(2) 0.0156(3) -0.1781(2)
C4 C 0.6027(2) 0.1692(3) -0.2123(2)
C5 C 0.5984(2) 0.2926(3) -0.1513(2)
C6 C 0.6000(2) 0.2021(4) -0.3070(2)
C7 C 0.6026(2) 0.2312(4) -0.3841(2)
C8 C 0.6080(2) 0.2654(4) -0.4767(2)
C9 C 0.6197(3) 0.4215(4) -0.5027(2)
C10 C 0.6216(3) 0.4562(4) -0.5935(2)
C11 C 0.6144(2) 0.3293(4) -0.6558(2)
C12 C 0.6065(3) 0.1732(5) -0.6297(2)
C13 C 0.6020(3) 0.1415(4) -0.5404(2)
C14 C 0.6131(3) 0.3649(5) -0.7507(2)
C15 C 0.6283(3) -0.1646(4) -0.0452(2)
H1 H 0.6180(30) 0.1020(50) 0.0340(20)
H2 H 0.6170(30) -0.0660(40) -0.2170(20)
H3 H 0.5950(30) 0.3900(50) -0.1730(20)
H4 H 0.6260(30) 0.4950(40) -0.4610(20)
H5 H 0.6320(30) 0.5700(40) -0.6140(20)
H6 H 0.6040(30) 0.0990(40) -0.6670(20)
H7 H 0.5930(40) 0.0400(50) -0.5230(30)
Ag1_2 Ag 0.6300(1) 0.4766(1) 1.0419(1)
Ag1_3 Ag 0.6300(1) 0.4766(1) -0.9581(1)
Ag1_4 Ag 0.6300(1) -0.5234(1) 0.0419(1)
Ag1_5 Ag 0.6300(1) -0.5234(1) 1.0419(1)
N1_2 N 0.6036(2) 0.2694(3) 0.9386(2)
N2_2 N 0.6115(3) 0.3956(5) 0.1752(2)
N2_3 N 0.6115(3) 0.3956(5) 1.1752(2)
N3_2 N 0.6345(3) -0.2879(3) 0.9866(2)
N3_3 N 0.6345(3) 0.7121(3) -0.0134(2)
N3_4 N 0.6345(3) 0.7121(3) 0.9866(2)
C1_2 C 0.6128(2) 0.1201(3) 0.9718(2)
C2_2 C 0.6176(2) -0.0082(3) 0.9156(2)
C3_2 C 0.6126(2) 0.0156(3) 0.8219(2)
C4_2 C 0.6027(2) 0.1692(3) 0.7877(2)
C5_2 C 0.5984(2) 0.2926(3) 0.8487(2)
C6_2 C 0.6000(2) 0.2021(4) 0.6930(2)
C7_2 C 0.6026(2) 0.2312(4) 0.6159(2)
C8_2 C 0.6080(2) 0.2654(4) 0.5233(2)
C9_2 C 0.6197(3) 0.4215(4) 0.4973(2)
C10_2 C 0.6216(3) 0.4562(4) 0.4065(2)
C11_2 C 0.6144(2) 0.3293(4) 0.3442(2)
C12_2 C 0.6065(3) 0.1732(5) 0.3703(2)
C13_2 C 0.6020(3) 0.1415(4) 0.4596(2)
C14_2 C 0.6131(3) 0.3649(5) 0.2493(2)
C15_2 C 0.6283(3) -0.1646(4) 0.9548(2)
H1_2 H 0.6180(30) 0.1020(50) 1.0340(20)
H2_2 H 0.6170(30) -0.0660(40) 0.7830(20)
H3_2 H 0.5950(30) 0.3900(50) 0.8270(20)
H4_2 H 0.6260(30) 0.4950(40) 0.5390(20)
H5_2 H 0.6320(30) 0.5700(40) 0.3860(20)
H6_2 H 0.6040(30) 0.0990(40) 0.3330(20)
H7_2 H 0.5930(40) 0.0400(50) 0.4770(30)
F1 F 0.6725(3) 0.9597(4) 0.1866(2)
F2 F 0.8050(3) 0.7791(6) 0.2040(3)
B1 B 0.7500 0.8654(9) 0.2500
F1A F 0.8275(3) 0.9597(4) 0.3134(2)
F2A F 0.6950(3) 0.7791(6) 0.2960(3)
F3 F 0.8060(3) 0.7690(5) 0.8239(2)
F4 F 0.6544(7) 0.6372(12) 0.7786(6)
B2 B 0.7500 0.6707(7) 0.7500
F3A F 0.6940(3) 0.7690(5) 0.6761(2)
F4A F 0.8456(7) 0.6372(12) 0.7214(6)
F5? F 0.7080(20) 0.5480(30) 0.7677(13)
loop_
_geom_bond_atom_site_label_1
_geom_bond_atom_site_label_2
_geom_bond_site_symmetry_1
_geom_bond_site_symmetry_2
Ag1 N1 1_555 1_555
F1 B1 1_555 1_555
F2 B1 1_555 1_555
F3 B2 1_555 1_555
F4 B2 1_555 1_555
N1 C1 1_555 1_555
N2 C14 1_555 1_555
N3 C15 1_555 1_555
C1 C2 1_555 1_555
C2 C3 1_555 1_555
C3 C4 1_555 1_555
C4 C5 1_555 1_555
C5 N1 1_555 1_555
C6 C4 1_555 1_555
C7 C6 1_555 1_555
C8 C7 1_555 1_555
C9 C8 1_555 1_555
C10 C9 1_555 1_555
C11 C10 1_555 1_555
C12 C11 1_555 1_555
C13 C8 1_555 1_555
C14 C11 1_555 1_555
C15 C2 1_555 1_555
B1 F1A 1_555 1_555
B2 F3A 1_555 1_555
H1 C1 1_555 1_555
H2 C3 1_555 1_555
H3 C5 1_555 1_555
H4 C9 1_555 1_555
H5 C10 1_555 1_555
H6 C12 1_555 1_555
H7 C13 1_555 1_555
Ag1_2 N1_2 1_555 1_555
Ag1_3 N2 1_555 1_555
Ag1_4 N3 1_555 1_555
Ag1_5 N3_2 1_555 1_555
F2A B1 1_555 1_555
F4A B2 1_555 1_555
N1_2 C1_2 1_555 1_555
N2_2 Ag1 1_555 1_555
N2_3 Ag1_2 1_555 1_555
N3_2 C15_2 1_555 1_555
N3_3 Ag1 1_555 1_555
N3_4 Ag1_2 1_555 1_555
C1_2 C2_2 1_555 1_555
C2_2 C3_2 1_555 1_555
C3_2 C4_2 1_555 1_555
C4_2 C5_2 1_555 1_555
C5_2 N1_2 1_555 1_555
C6_2 C4_2 1_555 1_555
C7_2 C6_2 1_555 1_555
C8_2 C7_2 1_555 1_555
C9_2 C8_2 1_555 1_555
C10_2 C9_2 1_555 1_555
C11_2 C10_2 1_555 1_555
C12_2 C11_2 1_555 1_555
C13_2 C8_2 1_555 1_555
C14_2 N2_2 1_555 1_555
C15_2 C2_2 1_555 1_555
H1_2 C1_2 1_555 1_555
H2_2 C3_2 1_555 1_555
H3_2 C5_2 1_555 1_555
H4_2 C9_2 1_555 1_555
H5_2 C10_2 1_555 1_555
H6_2 C12_2 1_555 1_555
H7_2 C13_2 1_555 1_555
C12 C13 1_555 1_555
C11_2 C14_2 1_555 1_555
C12_2 C13_2 1_555 1_555

#END
