
#######################################################################
#
#                 Cambridge Crystallographic Data Centre
#                                CCDC 
#
#######################################################################
#
# If this CIF has been generated from an entry in the Cambridge 
# Structural Database, then it will include bibliographic, chemical, 
# crystal, experimental, refinement or atomic coordinate data resulting 
# from the CCDC's data processing and validation procedures.
#
#######################################################################

data_XIGLIK
_symmetry_cell_setting           triclinic
_symmetry_space_group_name_H-M   'P -1'
_symmetry_Int_Tables_number      2
_space_group_name_Hall           '-P 1'
loop_
_symmetry_equiv_pos_site_id
_symmetry_equiv_pos_as_xyz
1 x,y,z
2 -x,-y,-z
_cell_length_a                   7.5550(5)
_cell_length_b                   9.5468(6)
_cell_length_c                   10.3006(6)
_cell_angle_alpha                113.6790(10)
_cell_angle_beta                 91.9870(10)
_cell_angle_gamma                104.3270(10)
_cell_volume                     651.666
loop_
_atom_site_label
_atom_site_type_symbol
_atom_site_fract_x
_atom_site_fract_y
_atom_site_fract_z
Cd1 Cd 0.0000 -0.5000 0.0000
O1 O 0.1830(4) -0.6672(3) -0.1021(3)
H1 H 0.1692 -0.7088 -0.1921
H2 H 0.1696 -0.7418 -0.0763
N1 N 0.4392(4) -0.0342(3) 0.2071(3)
N2 N 0.2598(4) -0.2779(4) 0.0971(3)
N3 N 0.4143(4) -0.2821(3) 0.1715(3)
N4 N 0.8007(4) 0.4721(3) 0.5799(3)
N5 N 0.9474(4) 0.5292(4) 0.7896(4)
N6 N 0.9498(5) 0.6716(4) 0.7825(5)
C1 C 0.2788(6) -0.1312(4) 0.1205(4)
H3 H 0.1917 -0.0960 0.0819
C2 C 0.5174(5) -0.1344(4) 0.2362(4)
H4 H 0.6322 -0.1012 0.2960
C3 C 0.5107(5) 0.1351(4) 0.2587(4)
C4 C 0.6155(5) 0.2204(4) 0.3930(4)
H5 H 0.6364 0.1680 0.4509
C5 C 0.6897(5) 0.3839(4) 0.4419(4)
C6 C 0.6547(7) 0.4619(4) 0.3597(4)
H6 H 0.7037 0.5743 0.3945
C7 C 0.5478(8) 0.3738(5) 0.2270(5)
H7 H 0.5229 0.4266 0.1705
C8 C 0.4758(7) 0.2101(5) 0.1739(4)
H8 H 0.4039 0.1502 0.0814
C9 C 0.8593(5) 0.4135(4) 0.6677(4)
H9 H 0.8392 0.3033 0.6439
C10 C 0.8625(6) 0.6341(5) 0.6579(6)
H10 H 0.8435 0.7094 0.6245
O1A O -0.1830(4) -0.3328(3) 0.1021(3)
H1A H -0.1692 -0.2912 0.1921
H2A H -0.1696 -0.2582 0.0763
N1A N -0.4392(4) -0.9658(3) -0.2071(3)
N2A N -0.2598(4) -0.7221(4) -0.0971(3)
N3A N -0.4143(4) -0.7179(3) -0.1715(3)
N4A N -0.8007(4) -1.4721(3) -0.5799(3)
N5A N -0.9474(4) -1.5292(4) -0.7896(4)
N6A N -0.9498(5) -1.6716(4) -0.7825(5)
C1A C -0.2788(6) -0.8688(4) -0.1205(4)
H3A H -0.1917 -0.9040 -0.0819
C2A C -0.5174(5) -0.8656(4) -0.2362(4)
H4A H -0.6322 -0.8988 -0.2960
C3A C -0.5107(5) -1.1351(4) -0.2587(4)
C4A C -0.6155(5) -1.2204(4) -0.3930(4)
H5A H -0.6364 -1.1680 -0.4509
C5A C -0.6897(5) -1.3839(4) -0.4419(4)
C6A C -0.6547(7) -1.4619(4) -0.3597(4)
H6A H -0.7037 -1.5743 -0.3945
C7A C -0.5478(8) -1.3738(5) -0.2270(5)
H7A H -0.5229 -1.4266 -0.1705
C8A C -0.4758(7) -1.2101(5) -0.1739(4)
H8A H -0.4039 -1.1502 -0.0814
C9A C -0.8593(5) -1.4135(4) -0.6677(4)
H9A H -0.8392 -1.3033 -0.6439
C10A C -0.8625(6) -1.6341(5) -0.6579(6)
H10A H -0.8435 -1.7094 -0.6245
Cd1_2 Cd -1.0000 -1.5000 -1.0000
Cd1_3 Cd 1.0000 0.5000 1.0000
N5_2 N -0.0526(4) -0.4708(4) -0.2104(4)
N5A_2 N 0.0526(4) -0.5292(4) 0.2104(4)
Si1 Si 0.0000 0.0000 0.5000
F1 F 0.1913(3) -0.0430(2) 0.4393(2)
F2 F 0.1296(3) 0.1876(2) 0.6096(2)
F3 F 0.0334(3) -0.0608(3) 0.6275(3)
F1A F -0.1913(3) 0.0430(2) 0.5607(2)
F2A F -0.1296(3) -0.1876(2) 0.3904(2)
F3A F -0.0334(3) 0.0608(3) 0.3725(3)
O2 O 0.1262(4) 1.0333(3) 0.9139(3)
H11 H 0.1040 0.9842 0.8240
H12 H 0.0490 0.9801 0.9464
loop_
_geom_bond_atom_site_label_1
_geom_bond_atom_site_label_2
_geom_bond_site_symmetry_1
_geom_bond_site_symmetry_2
Cd1 O1 1_555 1_555
O1 H1 1_555 1_555
H2 O1 1_555 1_555
N1 C1 1_555 1_555
N2 Cd1 1_555 1_555
N3 N2 1_555 1_555
N4 C5 1_555 1_555
N5 N6 1_555 1_555
N6 C10 1_555 1_555
C1 N2 1_555 1_555
H3 C1 1_555 1_555
C2 N1 1_555 1_555
H4 C2 1_555 1_555
C3 N1 1_555 1_555
C4 C3 1_555 1_555
H5 C4 1_555 1_555
C5 C4 1_555 1_555
C6 C5 1_555 1_555
H6 C6 1_555 1_555
C7 C6 1_555 1_555
H7 C7 1_555 1_555
C8 C3 1_555 1_555
H8 C8 1_555 1_555
C9 N4 1_555 1_555
H9 C9 1_555 1_555
C10 N4 1_555 1_555
H10 C10 1_555 1_555
Si1 F1 1_555 1_555
F2 Si1 1_555 1_555
F3 Si1 1_555 1_555
O2 H11 1_555 1_555
H12 O2 1_555 1_555
O1A Cd1 1_555 1_555
H1A O1A 1_555 1_555
H2A O1A 1_555 1_555
N1A C1A 1_555 1_555
N2A Cd1 1_555 1_555
N3A N2A 1_555 1_555
N4A C5A 1_555 1_555
N5A N6A 1_555 1_555
N6A C10A 1_555 1_555
C1A N2A 1_555 1_555
H3A C1A 1_555 1_555
C2A N1A 1_555 1_555
H4A C2A 1_555 1_555
C3A N1A 1_555 1_555
C4A C3A 1_555 1_555
H5A C4A 1_555 1_555
C5A C4A 1_555 1_555
C6A C5A 1_555 1_555
H6A C6A 1_555 1_555
C7A C6A 1_555 1_555
H7A C7A 1_555 1_555
C8A C3A 1_555 1_555
H8A C8A 1_555 1_555
C9A N4A 1_555 1_555
H9A C9A 1_555 1_555
C10A N4A 1_555 1_555
H10A C10A 1_555 1_555
Cd1_2 N5A 1_555 1_555
Cd1_3 N5 1_555 1_555
N5_2 Cd1 1_555 1_555
N5A_2 Cd1 1_555 1_555
F1A Si1 1_555 1_555
F2A Si1 1_555 1_555
F3A Si1 1_555 1_555
N3 C2 1_555 1_555
N5 C9 1_555 1_555
C7 C8 1_555 1_555
N3A C2A 1_555 1_555
N5A C9A 1_555 1_555
C7A C8A 1_555 1_555

#END
