
#######################################################################
#
#                 Cambridge Crystallographic Data Centre
#                                CCDC 
#
#######################################################################
#
# If this CIF has been generated from an entry in the Cambridge 
# Structural Database, then it will include bibliographic, chemical, 
# crystal, experimental, refinement or atomic coordinate data resulting 
# from the CCDC's data processing and validation procedures.
#
#######################################################################

data_XIGMOQ
_symmetry_cell_setting           monoclinic
_symmetry_space_group_name_H-M   'P 21/n'
_symmetry_Int_Tables_number      14
_space_group_name_Hall           '-P 2yn'
loop_
_symmetry_equiv_pos_site_id
_symmetry_equiv_pos_as_xyz
1 x,y,z
2 1/2-x,1/2+y,1/2-z
3 -x,-y,-z
4 1/2+x,1/2-y,1/2+z
_cell_length_a                   8.705(3)
_cell_length_b                   19.454(6)
_cell_length_c                   5.5105(18)
_cell_angle_alpha                90
_cell_angle_beta                 101.741(5)
_cell_angle_gamma                90
_cell_volume                     913.662
loop_
_atom_site_label
_atom_site_type_symbol
_atom_site_fract_x
_atom_site_fract_y
_atom_site_fract_z
U1 U 1.0001(1) 0.1663(1) 0.0192(1)
O1 O 0.8769(7) 0.1654(3) -0.2775(9)
O2 O 1.1200(6) 0.1608(3) 0.3164(9)
O3 O 1.0749(6) 0.2773(3) -0.1592(10)
O4 O 1.2402(6) 0.3327(2) -0.3539(10)
O5 O 1.4266(6) 0.2249(3) -0.2944(10)
O6 O 1.2629(6) 0.1704(2) -0.0972(10)
O7 O 1.1140(7) 0.0588(2) -0.1180(11)
O8 O 1.1139(7) -0.0559(3) -0.1300(11)
C1 C 1.1974(8) 0.2821(3) -0.2444(12)
C2 C 1.3063(8) 0.2208(3) -0.2080(12)
C3 C 1.0656(10) 0.0009(3) -0.0716(15)
U1C U 0.5001(1) 0.3337(1) 0.5192(1)
U1C_2 U 1.5001(1) 0.3337(1) -0.4808(1)
U1B U 0.9999(1) -0.1663(1) -0.0192(1)
O1C O 0.3769(7) 0.3346(3) 0.2225(9)
O2C O 0.6200(6) 0.3392(3) 0.8164(9)
O3C O 0.5749(6) 0.2227(3) 0.3408(10)
O4C O 0.7402(6) 0.1673(2) 0.1461(10)
O4_2 O 0.2402(6) 0.3327(2) 0.6461(10)
O5C O 0.9266(6) 0.2751(3) 0.2056(10)
O5_2 O 0.4266(6) 0.2249(3) 0.7056(10)
O6C O 0.7629(6) 0.3296(2) 0.4028(10)
O7B O 0.8860(7) -0.0588(2) 0.1180(11)
O7C O 0.6140(7) 0.4412(2) 0.3820(11)
O8B O 0.8861(7) 0.0559(3) 0.1300(11)
O8A O 0.3861(7) 0.4441(3) 0.6300(11)
C1C C 0.6974(8) 0.2179(3) 0.2556(12)
C2C C 0.8063(8) 0.2792(3) 0.2920(12)
C3B C 0.9344(10) -0.0009(3) 0.0716(15)
N1 N 0.7380(30) 0.0265(11) 0.5300(40)
O9 O 0.5093(19) 0.0635(17) 1.0065(30)
O10 O 0.5576(30) 0.0892(15) 0.6875(50)
O11 O -0.0683(30) 0.4051(15) 0.8803(50)
N2? N 0.7580(30) -0.0107(9) 0.5330(40)
loop_
_geom_bond_atom_site_label_1
_geom_bond_atom_site_label_2
_geom_bond_site_symmetry_1
_geom_bond_site_symmetry_2
U1 O1 1_555 1_555
O2 U1 1_555 1_555
O3 U1 1_555 1_555
O4 C1 1_555 1_555
O5 C2 1_555 1_555
O6 U1 1_555 1_555
O7 U1 1_555 1_555
O8 C3 1_555 1_555
C1 O3 1_555 1_555
C2 O6 1_555 1_555
C3 O7 1_555 1_555
U1C O1C 1_555 1_555
U1C_2 O4 1_555 1_555
U1B O8 1_555 1_555
O2C U1C 1_555 1_555
O3C U1C 1_555 1_555
O4C U1 1_555 1_555
O4_2 U1C 1_555 1_555
O5C U1 1_555 1_555
O5_2 U1C 1_555 1_555
O6C U1C 1_555 1_555
O7B U1B 1_555 1_555
O7C U1C 1_555 1_555
O8B U1 1_555 1_555
O8A U1C 1_555 1_555
C1C O3C 1_555 1_555
C2C O5C 1_555 1_555
C3B C3 1_555 1_555
O5 U1C_2 1_555 1_555
C1 C2 1_555 1_555
O4C C1C 1_555 1_555
O6C C2C 1_555 1_555
O7B C3B 1_555 1_555
O8B C3B 1_555 1_555
C1C C2C 1_555 1_555

#END
