
#######################################################################
#
#                 Cambridge Crystallographic Data Centre
#                                CCDC 
#
#######################################################################
#
# If this CIF has been generated from an entry in the Cambridge 
# Structural Database, then it will include bibliographic, chemical, 
# crystal, experimental, refinement or atomic coordinate data resulting 
# from the CCDC's data processing and validation procedures.
#
#######################################################################

data_XIGMUW
_symmetry_cell_setting           monoclinic
_symmetry_space_group_name_H-M   'P 21/n'
_symmetry_Int_Tables_number      14
_space_group_name_Hall           '-P 2yn'
loop_
_symmetry_equiv_pos_site_id
_symmetry_equiv_pos_as_xyz
1 x,y,z
2 1/2-x,1/2+y,1/2-z
3 -x,-y,-z
4 1/2+x,1/2-y,1/2+z
_cell_length_a                   8.958(3)
_cell_length_b                   19.601(7)
_cell_length_c                   11.007(4)
_cell_angle_alpha                90
_cell_angle_beta                 112.928(5)
_cell_angle_gamma                90
_cell_volume                     1779.98
loop_
_atom_site_label
_atom_site_type_symbol
_atom_site_fract_x
_atom_site_fract_y
_atom_site_fract_z
U1 U 0.5099(1) 0.1643(1) 0.5081(1)
O1 O 0.3803(14) 0.1577(6) 0.5920(10)
O2 O 0.6444(16) 0.1621(7) 0.4273(11)
C1 C 0.8108(18) 0.2180(8) 0.7786(14)
C2 C 0.6930(20) 0.2800(9) 0.7385(16)
O3 O 0.7708(12) 0.1658(6) 0.7029(8)
O4 O 0.9417(14) 0.2259(7) 0.8789(11)
O5 O 0.5734(13) 0.2721(6) 0.6393(10)
O6 O 0.7473(15) 0.3289(7) 0.8177(11)
C3 C 0.5580(17) -0.0010(8) 0.5741(9)
O7 O 0.6046(14) 0.0580(7) 0.6226(10)
O8 O 0.6074(12) -0.0610(6) 0.6150(9)
U1C U 0.0099(1) 0.3357(1) 0.0081(1)
U1C_2 U 1.0099(1) 0.3357(1) 1.0081(1)
U1B U 0.4901(1) -0.1643(1) 0.4919(1)
O1C O -0.1197(14) 0.3423(6) 0.0920(10)
O2C O 0.1444(16) 0.3379(7) -0.0727(11)
C1C C 0.3108(18) 0.2820(8) 0.2786(14)
C2C C 0.1930(20) 0.2200(9) 0.2385(16)
O3C O 0.2708(12) 0.3342(6) 0.2029(8)
O4C O 0.4417(14) 0.2741(7) 0.3789(11)
O4_2 O -0.0583(14) 0.2259(7) -0.1211(11)
O5C O 0.0734(13) 0.2279(6) 0.1393(10)
O6C O 0.2473(15) 0.1711(7) 0.3177(11)
O6_2 O -0.2527(15) 0.3289(7) -0.1823(11)
C3B C 0.4420(17) 0.0010(8) 0.4259(9)
O7B O 0.3954(14) -0.0580(7) 0.3774(10)
O7C O 0.1046(14) 0.4420(7) 0.1226(10)
O8B O 0.3926(12) 0.0610(6) 0.3850(9)
O8A O -0.1074(12) 0.4390(6) -0.1150(9)
U2 U 0.4898(1) 0.1644(1) 0.9919(1)
O9 O 0.3634(12) 0.1618(5) 1.0808(8)
O10 O 0.6236(13) 0.1639(6) 0.9070(9)
C4 C 0.4264(14) -0.0006(8) 0.9350(10)
O11 O 0.3764(12) 0.0529(6) 0.8751(9)
O12 O 0.3781(13) -0.0570(7) 0.8805(10)
C5 C 0.2894(17) 0.2752(7) 0.7567(13)
C6 C 0.1770(19) 0.2147(8) 0.7175(14)
O13 O 0.4146(13) 0.2731(6) 0.8615(10)
O14 O 0.2600(11) 0.3275(6) 0.61840(8)
O15 O 0.0555(13) 0.2204(6) 0.6121(10)
O16 O 0.2211(14) 0.1670(7) 0.7942(10)
U2B U 0.5102(1) -0.1644(1) 1.0081(1)
U2C U -0.0102(1) 0.3356(1) 0.4919(1)
U2C_2 U 0.9898(1) 0.3356(1) 1.4919(1)
O9B O 0.6366(12) -0.1618(5) 0.9192(8)
O10B O 0.3764(13) -0.1639(6) 1.0930(9)
C4B C 0.5736(14) 0.0006(8) 1.0650(10)
O11B O 0.6236(12) -0.0529(6) 1.1249(9)
O12B O 0.6219(13) 0.0570(7) 1.1195(10)
C5C C 0.7894(17) 0.2248(7) 1.2567(13)
C6C C 0.6770(19) 0.2853(8) 1.2175(14)
O13C O 0.9146(13) 0.2269(6) 1.3615(10)
O13B O 0.5854(13) -0.2731(6) 1.1385(10)
O14C O 0.7600(11) 0.1725(6) 1.11840(8)
O14A O 0.2400(11) -0.1725(6) 0.88160(8)
O15C O 0.5555(13) 0.2796(6) 1.1121(10)
O15A O 0.4445(13) -0.2796(6) 0.8879(10)
O16C O 0.7211(14) 0.3330(7) 1.2942(10)
O16B O 0.7789(14) -0.1670(7) 1.2058(10)
O17 O 0.7581(15) 0.0064(6) 0.9060(12)
O18 O 1.0034(17) 0.562(6) 0.7418(12)
N1 N 1.0032(18) -0.0996(8) 0.5492(14)
N2 N 1.0078(14) 0.0856(7) 1.0565(10)
N3 N 1.0007(17) 0.0818(8) 1.1891(14)
O19? O 0.7488(16) -0.149(7) 0.3946(12)
loop_
_geom_bond_atom_site_label_1
_geom_bond_atom_site_label_2
_geom_bond_site_symmetry_1
_geom_bond_site_symmetry_2
U1 O1 1_555 1_555
O2 U1 1_555 1_555
C1 C2 1_555 1_555
C2 O5 1_555 1_555
O3 U1 1_555 1_555
O4 C1 1_555 1_555
O5 U1 1_555 1_555
O6 C2 1_555 1_555
C3 O7 1_555 1_555
O7 U1 1_555 1_555
O8 C3 1_555 1_555
U2 O9 1_555 1_555
O10 U2 1_555 1_555
C4 O11 1_555 1_555
O11 U2 1_555 1_555
O12 C4 1_555 1_555
C5 C6 1_555 1_555
C6 O15 1_555 1_555
O13 U2 1_555 1_555
O14 C5 1_555 1_555
O15 U2C 1_555 1_555
O16 U2 1_555 1_555
N2 N3 1_555 1_555
U1C O1C 1_555 1_555
U1C_2 O4 1_555 1_555
U1B O8 1_555 1_555
O2C U1C 1_555 1_555
C1C C2C 1_555 1_555
C2C O5C 1_555 1_555
O3C U1C 1_555 1_555
O4C U1 1_555 1_555
O4_2 U1C 1_555 1_555
O5C U1C 1_555 1_555
O6C U1 1_555 1_555
O6_2 U1C 1_555 1_555
C3B C3 1_555 1_555
O7B U1B 1_555 1_555
O7C U1C 1_555 1_555
O8B U1 1_555 1_555
O8A U1C 1_555 1_555
U2B O12 1_555 1_555
U2C O14 1_555 1_555
U2C_2 O13C 1_555 1_555
O9B U2B 1_555 1_555
O10B U2B 1_555 1_555
C4B C4 1_555 1_555
O11B U2B 1_555 1_555
O12B U2 1_555 1_555
C5C C6C 1_555 1_555
C6C O15C 1_555 1_555
O13C C5C 1_555 1_555
O13B U2B 1_555 1_555
O14C U2 1_555 1_555
O14A U2B 1_555 1_555
O15C U2 1_555 1_555
O15A U2B 1_555 1_555
O16C U2C_2 1_555 1_555
O16B U2B 1_555 1_555
C1 O3 1_555 1_555
O6 U1C_2 1_555 1_555
C5 O13 1_555 1_555
C6 O16 1_555 1_555
C1C O3C 1_555 1_555
C1C O4C 1_555 1_555
C2C O6C 1_555 1_555
C3B O7B 1_555 1_555
C3B O8B 1_555 1_555
C4B O11B 1_555 1_555
C4B O12B 1_555 1_555
C5C O14C 1_555 1_555
C6C O16C 1_555 1_555

#END
