
#######################################################################
#
#                 Cambridge Crystallographic Data Centre
#                                CCDC 
#
#######################################################################
#
# If this CIF has been generated from an entry in the Cambridge 
# Structural Database, then it will include bibliographic, chemical, 
# crystal, experimental, refinement or atomic coordinate data resulting 
# from the CCDC's data processing and validation procedures.
#
#######################################################################

data_XIGNOR01
_symmetry_cell_setting           orthorhombic
_symmetry_space_group_name_H-M   'P c c n'
_symmetry_Int_Tables_number      56
_space_group_name_Hall           '-P 2ab 2ac'
loop_
_symmetry_equiv_pos_site_id
_symmetry_equiv_pos_as_xyz
1 x,y,z
2 1/2-x,1/2-y,z
3 1/2+x,-y,1/2-z
4 -x,1/2+y,1/2-z
5 -x,-y,-z
6 1/2+x,1/2+y,-z
7 1/2-x,y,1/2+z
8 x,1/2-y,1/2+z
_cell_length_a                   22.0440(3)
_cell_length_b                   22.0952(9)
_cell_length_c                   9.2199(6)
_cell_angle_alpha                90
_cell_angle_beta                 90
_cell_angle_gamma                90
_cell_volume                     4490.71
loop_
_atom_site_label
_atom_site_type_symbol
_atom_site_fract_x
_atom_site_fract_y
_atom_site_fract_z
O5 O 0.2500 0.7500 0.7719(5)
C11 C 0.36787(18) 0.6383(2) 0.5254(5)
H13 H 0.3874 0.6419 0.4291
H14 H 0.3791 0.5988 0.5684
O6 O 0.37598(11) 0.74419(14) 0.5502(3)
O7 O 0.30325(11) 0.64337(13) 0.5125(3)
O8 O 0.31164(12) 0.85245(13) 0.5324(3)
Na2 Na 0.2500 0.7500 0.5205(5)
C12 C 0.21018(19) 0.60261(18) 0.4431(4)
C13 C 0.38735(19) 0.6889(2) 0.6219(5)
H15 H 0.3645 0.6874 0.7143
H16 H 0.4311 0.6852 0.6442
C14 C 0.39025(19) 0.7949(2) 0.6376(5)
H17 H 0.4338 0.7943 0.6636
H18 H 0.3661 0.7939 0.7281
C15 C 0.27343(19) 0.60108(19) 0.4309(5)
C16 C 0.37583(17) 0.8506(2) 0.5532(5)
H19 H 0.3894 0.8870 0.6068
H20 H 0.3968 0.8497 0.4583
C17 C 0.2658(2) 0.5196(2) 0.2645(5)
H21 H 0.2849 0.4915 0.2013
C18 C 0.1757(2) 0.5615(2) 0.3669(5)
H22 H 0.1328 0.5618 0.3763
C19 C 0.2034(2) 0.5199(2) 0.2765(5)
H23 H 0.1797 0.4917 0.2232
C20 C 0.3008(2) 0.5595(2) 0.3430(4)
H24 H 0.3438 0.5581 0.3361
C11A C 0.13213(18) 0.8617(2) 0.5254(5)
H13A H 0.1126 0.8581 0.4291
H14A H 0.1209 0.9012 0.5684
O6A O 0.12402(11) 0.75581(14) 0.5502(3)
O7A O 0.19675(11) 0.85663(13) 0.5125(3)
O8A O 0.18836(12) 0.64755(13) 0.5324(3)
C12A C 0.28982(19) 0.89739(18) 0.4431(4)
C13A C 0.11265(19) 0.8111(2) 0.6219(5)
H15A H 0.1355 0.8126 0.7143
H16A H 0.0689 0.8148 0.6442
C14A C 0.10975(19) 0.7051(2) 0.6376(5)
H17A H 0.0662 0.7057 0.6636
H18A H 0.1339 0.7061 0.7281
C15A C 0.22657(19) 0.89892(19) 0.4309(5)
C16A C 0.12417(17) 0.6494(2) 0.5532(5)
H19A H 0.1106 0.6130 0.6068
H20A H 0.1032 0.6503 0.4583
C17A C 0.2342(2) 0.9804(2) 0.2645(5)
H21A H 0.2151 1.0085 0.2013
C18A C 0.3243(2) 0.9385(2) 0.3669(5)
H22A H 0.3672 0.9382 0.3763
C19A C 0.2966(2) 0.9801(2) 0.2765(5)
H23A H 0.3203 1.0083 0.2232
C20A C 0.1992(2) 0.9405(2) 0.3430(4)
H24A H 0.1562 0.9419 0.3361
O5F O 0.2500 0.7500 0.2719(5)
Na2F Na 0.2500 0.7500 1.0205(5)
I1 I 0.5000 0.5000 0.0000
I2 I 0.504115(19) 0.530428(18) 0.30733(4)
I2D I 0.495885(19) 0.469572(18) -0.30733(4)
O1 O 0.7500 0.7500 0.3635(5)
Na1 Na 0.7500 0.7500 0.6128(5)
O2 O 0.73358(11) 0.87144(11) 0.5922(3)
O3 O 0.64947(12) 0.67381(12) 0.5865(3)
O4 O 0.64081(12) 0.78776(13) 0.6355(3)
C1 C 0.59984(16) 0.7526(2) 0.7084(4)
C2 C 0.67444(19) 0.87884(19) 0.5325(5)
H1 H 0.6718 0.8584 0.4371
H2 H 0.6655 0.9224 0.5187
C3 C 0.62990(17) 0.85141(19) 0.6362(5)
H3 H 0.6359 0.8681 0.7349
H4 H 0.5878 0.8602 0.6050
C4 C 0.77837(18) 0.89664(18) 0.4990(5)
H5 H 0.7699 0.9400 0.4811
H6 H 0.7787 0.8752 0.4048
C5 C 0.60441(18) 0.6909(2) 0.6809(5)
C6 C 0.52246(19) 0.6719(3) 0.8459(5)
H7 H 0.4960 0.6444 0.8938
C7 C 0.51861(18) 0.7336(2) 0.8735(5)
H8 H 0.4895 0.7480 0.9411
C8 C 0.66120(19) 0.61078(19) 0.5753(5)
H9 H 0.6287 0.5907 0.5190
H10 H 0.6628 0.5922 0.6729
C9 C 0.56491(18) 0.6509(2) 0.7487(5)
H11 H 0.5672 0.6089 0.7279
C10 C 0.55632(18) 0.7743(2) 0.8043(5)
H12 H 0.5526 0.8165 0.8219
O2A O 0.76642(11) 0.62856(11) 0.5922(3)
O3A O 0.85053(12) 0.82619(12) 0.5865(3)
O4A O 0.85919(12) 0.71224(13) 0.6355(3)
C1A C 0.90016(16) 0.7474(2) 0.7084(4)
C2A C 0.82556(19) 0.62116(19) 0.5325(5)
H1A H 0.8282 0.6416 0.4371
H2A H 0.8345 0.5776 0.5187
C3A C 0.87010(17) 0.64859(19) 0.6362(5)
H3A H 0.8641 0.6319 0.7349
H4A H 0.9122 0.6398 0.6050
C4A C 0.72163(18) 0.60336(18) 0.4990(5)
H5A H 0.7301 0.5600 0.4811
H6A H 0.7213 0.6248 0.4048
C5A C 0.89559(18) 0.8091(2) 0.6809(5)
C6A C 0.97754(19) 0.8281(3) 0.8459(5)
H7A H 1.0040 0.8556 0.8938
C7A C 0.98139(18) 0.7664(2) 0.8735(5)
H8A H 1.0105 0.7520 0.9411
C8A C 0.83880(19) 0.88922(19) 0.5753(5)
H9A H 0.8713 0.9093 0.5190
H10A H 0.8372 0.9078 0.6729
C9A C 0.93509(18) 0.8491(2) 0.7487(5)
H11A H 0.9328 0.8911 0.7279
C10A C 0.94368(18) 0.7257(2) 0.8043(5)
H12A H 0.9474 0.6835 0.8219
O1F O 0.7500 0.7500 0.8635(5)
Na1F Na 0.7500 0.7500 0.1128(5)
loop_
_geom_bond_atom_site_label_1
_geom_bond_atom_site_label_2
_geom_bond_site_symmetry_1
_geom_bond_site_symmetry_2
O1 Na1 1_555 1_555
Na1 O2 1_555 1_555
O2 C2 1_555 1_555
O3 Na1 1_555 1_555
O4 Na1 1_555 1_555
C1 O4 1_555 1_555
C2 H1 1_555 1_555
H2 C2 1_555 1_555
C3 O4 1_555 1_555
H3 C3 1_555 1_555
H4 C3 1_555 1_555
C4 O2 1_555 1_555
H5 C4 1_555 1_555
H6 C4 1_555 1_555
C5 O3 1_555 1_555
C6 H7 1_555 1_555
C7 C6 1_555 1_555
H8 C7 1_555 1_555
C8 O3 1_555 1_555
H9 C8 1_555 1_555
H10 C8 1_555 1_555
C9 C5 1_555 1_555
H11 C9 1_555 1_555
C10 C1 1_555 1_555
H12 C10 1_555 1_555
O5 Na2 1_555 1_555
C11 H13 1_555 1_555
H14 C11 1_555 1_555
O6 Na2 1_555 1_555
O7 C11 1_555 1_555
O8 Na2 1_555 1_555
Na2 O7 1_555 1_555
C12 C15 1_555 1_555
C13 C11 1_555 1_555
H15 C13 1_555 1_555
H16 C13 1_555 1_555
C14 O6 1_555 1_555
H17 C14 1_555 1_555
H18 C14 1_555 1_555
C15 O7 1_555 1_555
C16 O8 1_555 1_555
H19 C16 1_555 1_555
H20 C16 1_555 1_555
C17 H21 1_555 1_555
C18 C12 1_555 1_555
H22 C18 1_555 1_555
C19 C17 1_555 1_555
H23 C19 1_555 1_555
C20 C15 1_555 1_555
H24 C20 1_555 1_555
I1 I2 1_555 1_555
O2A Na1 1_555 1_555
O3A Na1 1_555 1_555
O4A Na1 1_555 1_555
C1A O4A 1_555 1_555
C2A O2A 1_555 1_555
H1A C2A 1_555 1_555
H2A C2A 1_555 1_555
C3A O4A 1_555 1_555
H3A C3A 1_555 1_555
H4A C3A 1_555 1_555
C4A C8 1_555 1_555
H5A C4A 1_555 1_555
H6A C4A 1_555 1_555
C5A O3A 1_555 1_555
C6A H7A 1_555 1_555
C7A C6A 1_555 1_555
H8A C7A 1_555 1_555
C8A C4 1_555 1_555
H9A C8A 1_555 1_555
H10A C8A 1_555 1_555
C9A C5A 1_555 1_555
H11A C9A 1_555 1_555
C10A C1A 1_555 1_555
H12A C10A 1_555 1_555
O1F Na1 1_555 1_555
Na1F O1 1_555 1_555
C11A H13A 1_555 1_555
H14A C11A 1_555 1_555
O6A Na2 1_555 1_555
O7A Na2 1_555 1_555
O8A Na2 1_555 1_555
C12A O8 1_555 1_555
C13A C11A 1_555 1_555
H15A C13A 1_555 1_555
H16A C13A 1_555 1_555
C14A O6A 1_555 1_555
H17A C14A 1_555 1_555
H18A C14A 1_555 1_555
C15A O7A 1_555 1_555
C16A O8A 1_555 1_555
H19A C16A 1_555 1_555
H20A C16A 1_555 1_555
C17A H21A 1_555 1_555
C18A C12A 1_555 1_555
H22A C18A 1_555 1_555
C19A C17A 1_555 1_555
H23A C19A 1_555 1_555
C20A C15A 1_555 1_555
H24A C20A 1_555 1_555
O5F Na2 1_555 1_555
Na2F O5 1_555 1_555
I2D I1 1_555 1_555
C1 C5 1_555 1_555
C2 C3 1_555 1_555
C6 C9 1_555 1_555
C7 C10 1_555 1_555
O6 C13 1_555 1_555
C12 O8A 1_555 1_555
C14 C16 1_555 1_555
C17 C20 1_555 1_555
C18 C19 1_555 1_555
O2A C4A 1_555 1_555
O3A C8A 1_555 1_555
C1A C5A 1_555 1_555
C2A C3A 1_555 1_555
C6A C9A 1_555 1_555
C7A C10A 1_555 1_555
C11A O7A 1_555 1_555
O6A C13A 1_555 1_555
C12A C15A 1_555 1_555
C14A C16A 1_555 1_555
C17A C20A 1_555 1_555
C18A C19A 1_555 1_555

#END
