
#######################################################################
#
#                 Cambridge Crystallographic Data Centre
#                                CCDC 
#
#######################################################################
#
# If this CIF has been generated from an entry in the Cambridge 
# Structural Database, then it will include bibliographic, chemical, 
# crystal, experimental, refinement or atomic coordinate data resulting 
# from the CCDC's data processing and validation procedures.
#
#######################################################################

data_XIGNOR
_symmetry_cell_setting           orthorhombic
_symmetry_space_group_name_H-M   'P n a a'
_symmetry_Int_Tables_number      56
_space_group_name_Hall           '-P 2ac 2bc'
loop_
_symmetry_equiv_pos_site_id
_symmetry_equiv_pos_as_xyz
1 x,y,z
2 1/2-x,-y,1/2+z
3 x,1/2-y,1/2-z
4 1/2-x,1/2+y,-z
5 -x,-y,-z
6 1/2+x,y,1/2-z
7 -x,1/2+y,1/2+z
8 1/2+x,1/2-y,z
_cell_length_a                   9.3159(13)
_cell_length_b                   22.133(5)
_cell_length_c                   22.239(4)
_cell_angle_alpha                90
_cell_angle_beta                 90
_cell_angle_gamma                90
_cell_volume                     4585.43
loop_
_atom_site_label
_atom_site_type_symbol
_atom_site_fract_x
_atom_site_fract_y
_atom_site_fract_z
I1 I 1.0000 0.0000 1.0000
I2 I 1.30489(9) -0.00518(6) 0.97122(4)
I2D I 0.69511(9) 0.00518(6) 1.02878(4)
O1 O 1.1340(8) -0.1403(3) 0.7876(3)
C1 C 1.2034(10) -0.0999(4) 0.7519(5)
C2 C 1.2989(10) -0.0568(4) 0.7738(5)
H1 H 1.3173 -0.0537 0.8148
C3 C 1.1794(10) -0.1042(4) 0.6922(4)
C4 C 1.2447(11) -0.0657(4) 0.6519(5)
H2 H 1.2245 -0.0683 0.6111
C5 C 1.3399(13) -0.0232(4) 0.6729(6)
H3 H 1.3865 0.0022 0.6459
C6 C 1.3668(11) -0.0180(4) 0.7328(6)
H4 H 1.4304 0.0113 0.7466
O2 O 1.0854(7) -0.1493(3) 0.6745(3)
C7 C 1.1343(11) -0.1297(4) 0.8507(5)
H5 H 1.1022 -0.0889 0.8593
H6 H 1.2302 -0.1348 0.8669
C8 C 1.0338(10) -0.1747(4) 0.8779(4)
H7 H 1.0208 -0.1660 0.9203
H8 H 0.9410 -0.1722 0.8583
C9 C 1.0752(11) -0.1622(5) 0.6118(4)
H9 H 1.1703 -0.1637 0.5941
H10 H 1.0208 -0.1307 0.5917
O3 O 1.0908(6) -0.2332(3) 0.8709(2)
C10 C 1.0027(11) -0.2209(4) 0.6045(4)
H11 H 0.9108 -0.2203 0.6249
H12 H 0.9858 -0.2288 0.5622
Na1 Na 1.1111(10) -0.2500 0.7500
O4 O 1.3617(9) -0.2500 0.7500
O1B O 1.1340(8) -0.3597(3) 0.7124(3)
C1B C 1.2034(10) -0.4001(4) 0.7481(5)
C2B C 1.2989(10) -0.4432(4) 0.7262(5)
H1B H 1.3173 -0.4463 0.6852
C3B C 1.1794(10) -0.3958(4) 0.8078(4)
C4B C 1.2447(11) -0.4343(4) 0.8481(5)
H2B H 1.2245 -0.4317 0.8889
C5B C 1.3399(13) -0.4768(4) 0.8271(6)
H3B H 1.3865 -0.5022 0.8541
C6B C 1.3668(11) -0.4820(4) 0.7672(6)
H4B H 1.4304 -0.5113 0.7534
O2B O 1.0854(7) -0.3507(3) 0.8255(3)
C7B C 1.1343(11) -0.3703(4) 0.6493(5)
H5B H 1.1022 -0.4111 0.6407
H6B H 1.2302 -0.3652 0.6331
C8B C 1.0338(10) -0.3253(4) 0.6221(4)
H7B H 1.0208 -0.3340 0.5797
H8B H 0.9410 -0.3278 0.6417
C9B C 1.0752(11) -0.3378(5) 0.8882(4)
H9B H 1.1703 -0.3363 0.9059
H10B H 1.0208 -0.3693 0.9083
O3B O 1.0908(6) -0.2668(3) 0.6291(2)
C10B C 1.0027(11) -0.2791(4) 0.8955(4)
H11B H 0.9108 -0.2797 0.8751
H12B H 0.9858 -0.2712 0.9378
Na1E Na 1.6111(10) -0.2500 0.7500
O4E O 0.8617(9) -0.2500 0.7500
O5 O 1.0275(7) 0.1881(3) 0.8524(3)
O6 O 1.0092(7) 0.3038(2) 0.8558(3)
O7 O 1.0470(6) 0.3746(2) 0.7549(3)
C11 C 1.1178(11) 0.3867(4) 0.8106(4)
H13 H 1.1384 0.4295 0.8140
H14 H 1.2078 0.3647 0.8123
C12 C 0.9421(10) 0.2108(5) 0.8964(4)
C13 C 0.9293(10) 0.2737(5) 0.8977(4)
C14 C 0.8646(11) 0.1763(5) 0.9381(4)
H15 H 0.8730 0.1345 0.9381
C15 C 1.0210(11) 0.3669(4) 0.8612(4)
H16 H 1.0623 0.3778 0.8997
H17 H 0.9275 0.3859 0.8576
C16 C 1.1317(11) 0.3902(4) 0.7047(5)
H18 H 1.2211 0.3677 0.7053
H19 H 1.1539 0.4330 0.7054
C17 C 0.7768(11) 0.2042(6) 0.9788(5)
H20 H 0.7246 0.1810 1.0060
C18 C 1.0478(10) 0.1251(4) 0.8506(4)
H21 H 0.9557 0.1047 0.8498
H22 H 1.0996 0.1119 0.8862
C19 C 0.8417(10) 0.3019(5) 0.9405(5)
H23 H 0.8349 0.3438 0.9427
C20 C 0.7650(10) 0.2647(6) 0.9798(4)
H24 H 0.7035 0.2825 1.0076
O5B O 1.0275(7) 0.3119(3) 0.6476(3)
O6B O 1.0092(7) 0.1962(2) 0.6442(3)
O7B O 1.0470(6) 0.1254(2) 0.7451(3)
C11B C 1.1178(11) 0.1133(4) 0.6894(4)
H13B H 1.1384 0.0705 0.6860
H14B H 1.2078 0.1353 0.6877
C12B C 0.9421(10) 0.2892(5) 0.6036(4)
C13B C 0.9293(10) 0.2263(5) 0.6023(4)
C14B C 0.8646(11) 0.3237(5) 0.5619(4)
H15B H 0.8730 0.3655 0.5619
C15B C 1.0210(11) 0.1331(4) 0.6388(4)
H16B H 1.0623 0.1222 0.6003
H17B H 0.9275 0.1141 0.6424
C16B C 1.1317(11) 0.1098(4) 0.7953(5)
H18B H 1.2211 0.1323 0.7947
H19B H 1.1539 0.0670 0.7946
C17B C 0.7768(11) 0.2958(6) 0.5212(5)
H20B H 0.7246 0.3190 0.4940
C18B C 1.0478(10) 0.3749(4) 0.6494(4)
H21B H 0.9557 0.3953 0.6502
H22B H 1.0996 0.3881 0.6138
C19B C 0.8417(10) 0.1981(5) 0.5595(5)
H23B H 0.8349 0.1562 0.5573
C20B C 0.7650(10) 0.2353(6) 0.5202(4)
H24B H 0.7035 0.2175 0.4924
O8 O 0.7687(10) 0.2500 0.7500
Na2? Na 1.0157(11) 0.2500 0.7500
loop_
_geom_bond_atom_site_label_1
_geom_bond_atom_site_label_2
_geom_bond_site_symmetry_1
_geom_bond_site_symmetry_2
I1 I2 1_555 1_555
O1 C1 1_555 1_555
C1 C2 1_555 1_555
C2 H1 1_555 1_555
C3 C1 1_555 1_555
C4 C3 1_555 1_555
H2 C4 1_555 1_555
C5 C4 1_555 1_555
H3 C5 1_555 1_555
C6 C2 1_555 1_555
H4 C6 1_555 1_555
O2 C3 1_555 1_555
C7 O1 1_555 1_555
H5 C7 1_555 1_555
H6 C7 1_555 1_555
C8 C7 1_555 1_555
H7 C8 1_555 1_555
H8 C8 1_555 1_555
C9 O2 1_555 1_555
H9 C9 1_555 1_555
H10 C9 1_555 1_555
O3 C8 1_555 1_555
C10 C9 1_555 1_555
H11 C10 1_555 1_555
H12 C10 1_555 1_555
Na1 O1 1_555 1_555
O4 Na1 1_555 1_555
O5 C12 1_555 1_555
O6 C13 1_555 1_555
O7 C11 1_555 1_555
C11 H13 1_555 1_555
H14 C11 1_555 1_555
C12 C13 1_555 1_555
C13 C19 1_555 1_555
C14 C12 1_555 1_555
H15 C14 1_555 1_555
C15 O6 1_555 1_555
H16 C15 1_555 1_555
H17 C15 1_555 1_555
C16 O7 1_555 1_555
H18 C16 1_555 1_555
H19 C16 1_555 1_555
C17 C14 1_555 1_555
H20 C17 1_555 1_555
C18 O5 1_555 1_555
H21 C18 1_555 1_555
H22 C18 1_555 1_555
C19 H23 1_555 1_555
C20 C17 1_555 1_555
H24 C20 1_555 1_555
I2D I1 1_555 1_555
O1B Na1 1_555 1_555
C1B O1B 1_555 1_555
C2B C1B 1_555 1_555
H1B C2B 1_555 1_555
C3B C1B 1_555 1_555
C4B C3B 1_555 1_555
H2B C4B 1_555 1_555
C5B C4B 1_555 1_555
H3B C5B 1_555 1_555
C6B C2B 1_555 1_555
H4B C6B 1_555 1_555
O2B Na1 1_555 1_555
C7B O1B 1_555 1_555
H5B C7B 1_555 1_555
H6B C7B 1_555 1_555
C8B C7B 1_555 1_555
H7B C8B 1_555 1_555
H8B C8B 1_555 1_555
C9B O2B 1_555 1_555
H9B C9B 1_555 1_555
H10B C9B 1_555 1_555
O3B C10 1_555 1_555
C10B O3 1_555 1_555
H11B C10B 1_555 1_555
H12B C10B 1_555 1_555
Na1E O4 1_555 1_555
O4E Na1 1_555 1_555
O5B C12B 1_555 1_555
O6B C13B 1_555 1_555
O7B C11B 1_555 1_555
C11B H13B 1_555 1_555
H14B C11B 1_555 1_555
C12B C13B 1_555 1_555
C13B C19B 1_555 1_555
C14B C12B 1_555 1_555
H15B C14B 1_555 1_555
C15B O6B 1_555 1_555
H16B C15B 1_555 1_555
H17B C15B 1_555 1_555
C16B C18 1_555 1_555
H18B C16B 1_555 1_555
H19B C16B 1_555 1_555
C17B C14B 1_555 1_555
H20B C17B 1_555 1_555
C18B C16 1_555 1_555
H21B C18B 1_555 1_555
H22B C18B 1_555 1_555
C19B H23B 1_555 1_555
C20B C17B 1_555 1_555
H24B C20B 1_555 1_555
C5 C6 1_555 1_555
O2 Na1 1_555 1_555
O3 Na1 1_555 1_555
Na1 O3B 1_555 1_555
C11 C15 1_555 1_555
C19 C20 1_555 1_555
C3B O2B 1_555 1_555
C5B C6B 1_555 1_555
C8B O3B 1_555 1_555
C9B C10B 1_555 1_555
O5B C18B 1_555 1_555
O7B C16B 1_555 1_555
C11B C15B 1_555 1_555
C19B C20B 1_555 1_555

#END
