
#######################################################################
#
#                 Cambridge Crystallographic Data Centre
#                                CCDC 
#
#######################################################################
#
# If this CIF has been generated from an entry in the Cambridge 
# Structural Database, then it will include bibliographic, chemical, 
# crystal, experimental, refinement or atomic coordinate data resulting 
# from the CCDC's data processing and validation procedures.
#
#######################################################################

data_XIGPOT
_symmetry_cell_setting           monoclinic
_symmetry_space_group_name_H-M   'P 21/c'
_symmetry_Int_Tables_number      14
_space_group_name_Hall           '-P 2ybc'
loop_
_symmetry_equiv_pos_site_id
_symmetry_equiv_pos_as_xyz
1 x,y,z
2 -x,1/2+y,1/2-z
3 -x,-y,-z
4 x,1/2-y,1/2+z
_cell_length_a                   11.859(2)
_cell_length_b                   6.3786(11)
_cell_length_c                   10.7701(18)
_cell_angle_alpha                90
_cell_angle_beta                 95.931(2)
_cell_angle_gamma                90
_cell_volume                     810.33
loop_
_atom_site_label
_atom_site_type_symbol
_atom_site_fract_x
_atom_site_fract_y
_atom_site_fract_z
Cu1 Cu 0.54906(3) 0.95775(7) 0.87338(4)
N1 N 0.4041(2) 0.9498(5) 0.9516(3)
N2 N 0.3123(3) 0.9197(5) 0.8920(3)
N3 N 0.2279(3) 0.8931(7) 0.8336(3)
N4 N 0.4824(3) 0.8284(5) 0.7138(3)
N5 N 0.4285(3) 0.9441(5) 0.6421(3)
N6 N 0.3783(4) 1.0523(7) 0.5718(4)
N7 N 0.7023(2) 0.9593(6) 0.8129(3)
N8 N 0.7996(3) 1.0058(10) 0.8824(4)
N9 N 0.8838(3) 0.9752(10) 0.8180(4)
N10 N 0.8410(3) 0.9090(6) 0.7063(3)
C1 C 0.7312(3) 0.9021(6) 0.7047(4)
H1 H 0.6811 0.8624 0.6367
C2 C 0.9147(6) 0.8572(9) 0.6095(6)
H2 H 0.9767 0.7718 0.6472
H3 H 0.8716 0.7717 0.5469
C3 C 0.9612(4) 1.0257(7) 0.5484(4)
H4 H 1.0026 1.1131 0.6112
H5 H 0.8991 1.1091 0.5090
Cu1B Cu 0.45094(3) 1.04225(7) 1.12662(4)
Cu1B_2 Cu 1.45094(3) 1.04225(7) 0.12662(4)
N1B N 0.5959(2) 1.0502(5) 1.0484(3)
N2B N 0.6877(3) 1.0803(5) 1.1080(3)
N3B N 0.7721(3) 1.1069(7) 1.1664(3)
N4B N 0.5176(3) 1.1716(5) 1.2862(3)
N5B N 0.5715(3) 1.0559(5) 1.3579(3)
N6B N 0.6217(4) 0.9477(7) 1.4282(4)
N7B N 1.2977(2) 1.0407(6) 0.1871(3)
N7B_2 N 0.2977(2) 1.0407(6) 1.1871(3)
N8B N 1.2004(3) 0.9942(10) 0.1176(4)
N9B N 1.1162(3) 1.0248(10) 0.1820(4)
N10B N 1.1590(3) 1.0910(6) 0.2937(3)
C1B C 1.2688(3) 1.0979(6) 0.2953(4)
H1B H 1.3189 1.1376 0.3633
C2B C 1.0853(6) 1.1428(9) 0.3905(6)
H2B H 1.0233 1.2282 0.3528
H3B H 1.1284 1.2283 0.4531
C3B C 1.0388(4) 0.9743(7) 0.4516(4)
H4B H 0.9974 0.8869 0.3888
H5B H 1.1009 0.8909 0.4910
loop_
_geom_bond_atom_site_label_1
_geom_bond_atom_site_label_2
_geom_bond_site_symmetry_1
_geom_bond_site_symmetry_2
Cu1 N1 1_555 1_555
N1 N2 1_555 1_555
N2 N3 1_555 1_555
N4 Cu1 1_555 1_555
N5 N4 1_555 1_555
N6 N5 1_555 1_555
N7 Cu1 1_555 1_555
N8 N7 1_555 1_555
N9 N8 1_555 1_555
N10 N9 1_555 1_555
C1 N7 1_555 1_555
H1 C1 1_555 1_555
C2 N10 1_555 1_555
H2 C2 1_555 1_555
H3 C2 1_555 1_555
C3 C2 1_555 1_555
H4 C3 1_555 1_555
H5 C3 1_555 1_555
Cu1B N1 1_555 1_555
Cu1B_2 N7B 1_555 1_555
N1B Cu1 1_555 1_555
N2B N1B 1_555 1_555
N3B N2B 1_555 1_555
N4B Cu1B 1_555 1_555
N5B N4B 1_555 1_555
N6B N5B 1_555 1_555
N7B N8B 1_555 1_555
N7B_2 Cu1B 1_555 1_555
N8B N9B 1_555 1_555
N9B N10B 1_555 1_555
N10B C1B 1_555 1_555
C1B N7B 1_555 1_555
H1B C1B 1_555 1_555
C2B N10B 1_555 1_555
H2B C2B 1_555 1_555
H3B C2B 1_555 1_555
C3B C3 1_555 1_555
H4B C3B 1_555 1_555
H5B C3B 1_555 1_555
N10 C1 1_555 1_555
Cu1B N1B 1_555 1_555
C2B C3B 1_555 1_555

#END
