
#######################################################################
#
#                 Cambridge Crystallographic Data Centre
#                                CCDC 
#
#######################################################################
#
# If this CIF has been generated from an entry in the Cambridge 
# Structural Database, then it will include bibliographic, chemical, 
# crystal, experimental, refinement or atomic coordinate data resulting 
# from the CCDC's data processing and validation procedures.
#
#######################################################################

data_XIGWUH
_symmetry_cell_setting           triclinic
_symmetry_space_group_name_H-M   'P -1'
_symmetry_Int_Tables_number      2
_space_group_name_Hall           '-P 1'
loop_
_symmetry_equiv_pos_site_id
_symmetry_equiv_pos_as_xyz
1 x,y,z
2 -x,-y,-z
_cell_length_a                   5.53651(11)
_cell_length_b                   8.1058(3)
_cell_length_c                   9.1108(2)
_cell_angle_alpha                98.086(2)
_cell_angle_beta                 102.0847(16)
_cell_angle_gamma                101.4987(19)
_cell_volume                     384.624
loop_
_atom_site_label
_atom_site_type_symbol
_atom_site_fract_x
_atom_site_fract_y
_atom_site_fract_z
P1 P -0.1518(7) -0.0122(8) 0.2627(4)
P2 P -0.0944(7) 0.3408(7) 0.1498(4)
Na1 Na -0.5425(7) 0.6265(9) 0.1563(5)
O1 O -0.3231(14) -0.1030(15) 0.3623(9)
O2 O -0.2119(14) -0.1095(15) 0.1071(8)
O3 O 0.1283(10) 0.0369(14) 0.3564(8)
O4 O -0.2585(12) 0.4757(12) 0.1325(7)
O5 O -0.1653(11) 0.2225(14) -0.0154(7)
O6 O 0.1881(11) 0.4144(13) 0.2207(8)
N1 N -0.5181(12) 0.1551(15) 0.2009(7)
C1 C -0.2364(14) 0.2020(19) 0.2643(10)
C2 C -0.2002(16) 0.3029(17) 0.4283(10)
H1 H -0.23908 -0.08842 0.45130
H2 H -0.59564 0.12310 0.26919
H3 H -0.56649 0.24522 0.17275
H4 H -0.02088 0.35841 0.47085
H5 H -0.29612 0.39237 0.42348
H6 H -0.25879 0.22830 0.49336
H7 H -0.55873 0.07302 0.12121
H8 H -0.03482 0.20831 -0.03895
Na1_2 Na -0.5425(7) -0.3735(9) 0.1563(5)
Na1_3 Na 0.4575(7) 0.6265(9) 0.1563(5)
Na1A Na -0.4575(7) 0.3735(9) -0.1563(5)
O1_2 O -0.3231(14) 0.8970(15) 0.3623(9)
O2_2 O -0.2119(14) 0.8905(15) 0.1071(8)
O4A O -0.7415(12) 0.5243(12) -0.1325(7)
O5A O -0.8347(11) 0.7775(14) 0.0154(7)
O6_2 O -0.8119(11) 0.4144(13) 0.2207(8)
loop_
_geom_bond_atom_site_label_1
_geom_bond_atom_site_label_2
_geom_bond_site_symmetry_1
_geom_bond_site_symmetry_2
P1 O1 1_555 1_555
P2 O4 1_555 1_555
Na1 O4 1_555 1_555
O1 H1 1_555 1_555
O2 P1 1_555 1_555
O3 P1 1_555 1_555
O4 Na1A 1_555 1_555
O5 P2 1_555 1_555
O6 P2 1_555 1_555
N1 C1 1_555 1_555
C1 P1 1_555 1_555
C2 C1 1_555 1_555
H2 N1 1_555 1_555
H3 N1 1_555 1_555
H4 C2 1_555 1_555
H5 C2 1_555 1_555
H6 C2 1_555 1_555
H7 N1 1_555 1_555
H8 O5 1_555 1_555
Na1_2 O1 1_555 1_555
Na1_3 O6 1_555 1_555
Na1A O5 1_555 1_555
O1_2 Na1 1_555 1_555
O2_2 Na1 1_555 1_555
O4A Na1 1_555 1_555
O5A Na1 1_555 1_555
O6_2 Na1 1_555 1_555
P2 C1 1_555 1_555
O2 Na1_2 1_555 1_555
Na1A O4A 1_555 1_555

#END
