
#######################################################################
#
#                 Cambridge Crystallographic Data Centre
#                                CCDC 
#
#######################################################################
#
# If this CIF has been generated from an entry in the Cambridge 
# Structural Database, then it will include bibliographic, chemical, 
# crystal, experimental, refinement or atomic coordinate data resulting 
# from the CCDC's data processing and validation procedures.
#
#######################################################################

data_XIGXAO
_symmetry_cell_setting           triclinic
_symmetry_space_group_name_H-M   'P -1'
_symmetry_Int_Tables_number      2
_space_group_name_Hall           '-P 1'
loop_
_symmetry_equiv_pos_site_id
_symmetry_equiv_pos_as_xyz
1 x,y,z
2 -x,-y,-z
_cell_length_a                   7.7417(2)
_cell_length_b                   10.8543(3)
_cell_length_c                   12.5527(3)
_cell_angle_alpha                109.4630(10)
_cell_angle_beta                 90.6150(10)
_cell_angle_gamma                101.8840(10)
_cell_volume                     969.615
loop_
_atom_site_label
_atom_site_type_symbol
_atom_site_fract_x
_atom_site_fract_y
_atom_site_fract_z
Zn1 Zn 0.14134(3) 0.49867(2) 0.10074(2)
Zn2 Zn 0.50942(3) 0.65047(2) 0.03857(2)
O1 O 0.32138(18) 0.48139(14) -0.01538(12)
H1 H 0.2569 0.4639 -0.0842
O2 O 0.2794(2) 0.63903(15) 0.24711(13)
O3 O 0.55968(19) 0.69616(15) 0.20663(12)
C1 C 0.4393(3) 0.6962(2) 0.27420(18)
C2 C 0.4942(3) 0.7731(2) 0.39765(19)
C3 C 0.6711(3) 0.8227(2) 0.43883(19)
H2 H 0.7621 0.8064 0.3892
C4 C 0.7139(3) 0.8967(2) 0.5541(2)
H3 H 0.8347 0.9298 0.5828
C5 C 0.5823(3) 0.9224(2) 0.6269(2)
H4 H 0.6129 0.9733 0.7050
C6 C 0.4056(3) 0.8736(2) 0.5853(2)
C7 C 0.3619(3) 0.7988(2) 0.47147(19)
H5 H 0.2409 0.7646 0.4434
O4 O 0.2625(2) 0.89205(17) 0.64821(13)
C8 C 0.2982(3) 0.9825(2) 0.76311(18)
H6 H 0.3633 1.0722 0.7656
H7 H 0.3705 0.9488 0.8080
C9 C 0.1203(3) 0.9900(2) 0.80975(18)
C10 C 0.0182(3) 0.8770(2) 0.82545(18)
H8 H 0.0579 0.7956 0.8017
C11 C -0.1416(3) 0.8809(2) 0.87551(18)
C12 C -0.1999(3) 1.0002(2) 0.90958(18)
H9 H -0.3082 1.0042 0.9441
C13 C -0.0991(3) 1.1143(2) 0.89307(18)
C14 C 0.0603(3) 1.1081(2) 0.84335(18)
H10 H 0.1287 1.1856 0.8323
C15 C -0.1670(3) 1.2417(2) 0.92897(19)
O5 O -0.32929(19) 1.22689(15) 0.93683(14)
O6 O -0.05636(19) 1.35294(14) 0.94505(13)
C16 C -0.2387(3) 0.7582(2) 0.89795(18)
O7 O -0.36216(19) 0.77105(14) 0.96256(13)
O8 O -0.1881(2) 0.65203(15) 0.85050(13)
O9 O -0.09392(19) 0.48666(15) 0.18739(13)
C17 C -0.0911(3) 0.5199(2) 0.2922(2)
H11 H 0.0165 0.5723 0.3356
N1 N -0.2275(3) 0.4876(2) 0.34796(16)
C18 C -0.3948(3) 0.4044(3) 0.2870(2)
H12 H -0.4802 0.4607 0.2904
H13 H -0.4410 0.3372 0.3219
H14 H -0.3761 0.3593 0.2077
C19 C -0.2192(4) 0.5367(3) 0.4717(2)
H15 H -0.0998 0.5898 0.5026
H16 H -0.2466 0.4604 0.4987
H17 H -0.3055 0.5927 0.4969
Zn1_2 Zn 0.14134(3) 1.49867(2) 1.10074(2)
Zn1A Zn -0.14134(3) 0.50133(2) 0.89926(2)
Zn1A_2 Zn -0.14134(3) 1.50133(2) 0.89926(2)
Zn2_2 Zn -0.49058(3) 0.65047(2) 1.03857(2)
Zn2A Zn -0.50942(3) 1.34953(2) 0.96143(2)
Zn2A_2 Zn 0.49058(3) 0.34953(2) -0.03857(2)
O1A O 0.67862(18) 0.51861(14) 0.01538(12)
O5A O 0.32929(19) 0.77311(15) 0.06317(14)
O6_2 O -0.05636(19) 0.35294(14) -0.05495(13)
O6A O 0.05636(19) 0.64706(14) 0.05495(13)
O7_2 O 0.63784(19) 0.77105(14) -0.03744(13)
O8A O 0.1881(2) 0.34797(15) 0.14950(13)
loop_
_geom_bond_atom_site_label_1
_geom_bond_atom_site_label_2
_geom_bond_site_symmetry_1
_geom_bond_site_symmetry_2
Zn1 O1 1_555 1_555
Zn2 O1 1_555 1_555
O1 H1 1_555 1_555
O2 Zn1 1_555 1_555
O3 Zn2 1_555 1_555
C1 O2 1_555 1_555
C2 C1 1_555 1_555
C3 C2 1_555 1_555
H2 C3 1_555 1_555
C4 C3 1_555 1_555
H3 C4 1_555 1_555
C5 C4 1_555 1_555
H4 C5 1_555 1_555
C6 C5 1_555 1_555
C7 C2 1_555 1_555
H5 C7 1_555 1_555
O4 C6 1_555 1_555
C8 O4 1_555 1_555
H6 C8 1_555 1_555
H7 C8 1_555 1_555
C9 C8 1_555 1_555
C10 C9 1_555 1_555
H8 C10 1_555 1_555
C11 C10 1_555 1_555
C12 C11 1_555 1_555
H9 C12 1_555 1_555
C13 C12 1_555 1_555
C14 C9 1_555 1_555
H10 C14 1_555 1_555
C15 C13 1_555 1_555
O5 C15 1_555 1_555
O6 C15 1_555 1_555
C16 C11 1_555 1_555
O7 C16 1_555 1_555
O8 C16 1_555 1_555
O9 Zn1 1_555 1_555
C17 O9 1_555 1_555
H11 C17 1_555 1_555
N1 C17 1_555 1_555
C18 N1 1_555 1_555
H12 C18 1_555 1_555
H13 C18 1_555 1_555
H14 C18 1_555 1_555
C19 N1 1_555 1_555
H15 C19 1_555 1_555
H16 C19 1_555 1_555
H17 C19 1_555 1_555
Zn1_2 O6 1_555 1_555
Zn1A O8 1_555 1_555
Zn1A_2 O6 1_555 1_555
Zn2_2 O7 1_555 1_555
Zn2A O5 1_555 1_555
Zn2A_2 O1 1_555 1_555
O1A Zn2 1_555 1_555
O5A Zn2 1_555 1_555
O6_2 Zn1 1_555 1_555
O6A Zn1 1_555 1_555
O7_2 Zn2 1_555 1_555
O8A Zn1 1_555 1_555
O3 C1 1_555 1_555
C6 C7 1_555 1_555
C13 C14 1_555 1_555
Zn2A_2 O1A 1_555 1_555

#END
