
#######################################################################
#
#                 Cambridge Crystallographic Data Centre
#                                CCDC 
#
#######################################################################
#
# If this CIF has been generated from an entry in the Cambridge 
# Structural Database, then it will include bibliographic, chemical, 
# crystal, experimental, refinement or atomic coordinate data resulting 
# from the CCDC's data processing and validation procedures.
#
#######################################################################

data_XIGZUK
_symmetry_cell_setting           monoclinic
_symmetry_space_group_name_H-M   'P 2'
_symmetry_Int_Tables_number      3
_space_group_name_Hall           'P 2y'
loop_
_symmetry_equiv_pos_site_id
_symmetry_equiv_pos_as_xyz
1 x,y,z
2 -x,y,-z
_cell_length_a                   21.9780(6)
_cell_length_b                   9.3770(2)
_cell_length_c                   22.0090(6)
_cell_angle_alpha                90
_cell_angle_beta                 89.943(2)
_cell_angle_gamma                90
_cell_volume                     4535.78
loop_
_atom_site_label
_atom_site_type_symbol
_atom_site_fract_x
_atom_site_fract_y
_atom_site_fract_z
K1 K 0.0000 0.6026(4) 0.0000
K2 K 0.0000 0.1005(5) 0.0000
O1 O 0.0620(4) 0.6114(10) 0.1050(4)
O2 O 0.1271(4) 0.6227(10) -0.0052(4)
O3 O -0.0534(4) 0.5958(10) 0.1094(4)
O4 O -0.0543(4) 0.0964(11) -0.1091(4)
O5 O -0.1274(4) 0.1227(10) -0.0050(4)
O6 O 0.0621(4) 0.1104(11) -0.1048(4)
O7 O 0.0000 0.7952(14) 0.0000
O8 O 0.0000 0.3166(14) 0.0000
C1 C -0.0251(7) 0.5054(15) 0.1492(6)
C2 C -0.0526(7) 0.4177(14) 0.1913(6)
H1 H -0.0957 0.4159 0.1941
C3 C -0.0178(7) 0.3304(16) 0.2303(5)
H2 H -0.0369 0.2644 0.2570
C4 C 0.0432(6) 0.3432(16) 0.2287(5)
H3 H 0.0668 0.2864 0.2556
C5 C 0.0741(7) 0.4374(15) 0.1887(6)
H4 H 0.1171 0.4471 0.1898
C6 C 0.0390(7) 0.5154(15) 0.1475(6)
C7 C 0.1275(6) 0.6220(15) 0.0999(6)
H5 H 0.1441 0.6739 0.1354
H6 H 0.1457 0.5254 0.0991
C8 C 0.1422(6) 0.6958(16) 0.0457(5)
H7 H 0.1208 0.7886 0.0455
H8 H 0.1865 0.7153 0.0452
C9 C 0.1373(7) 0.6969(17) -0.0603(5)
H9 H 0.1809 0.7214 -0.0645
H10 H 0.1132 0.7861 -0.0610
C10 C 0.1173(6) 0.5973(17) -0.1123(6)
H11 H 0.1314 0.6345 -0.1520
H12 H 0.1340 0.5002 -0.1065
C11 C 0.0396(7) 0.0178(15) -0.1476(6)
C12 C 0.0736(7) -0.0627(15) -0.1882(6)
H13 H 0.1168 -0.0599 -0.1877
C13 C 0.0425(6) -0.1481(15) -0.2300(6)
H14 H 0.0656 -0.1998 -0.2591
C14 C -0.0188(6) -0.1610(16) -0.2311(5)
H15 H -0.0379 -0.2238 -0.2591
C15 C -0.0533(7) -0.0816(14) -0.1911(6)
H16 H -0.0964 -0.0881 -0.1918
C16 C -0.0241(7) 0.0098(15) -0.1490(6)
C17 C -0.1186(6) 0.0959(17) -0.1140(6)
H17 H -0.1354 -0.0015 -0.1093
H18 H -0.1322 0.1363 -0.1533
C18 C -0.1373(7) 0.1948(17) -0.0591(5)
H19 H -0.1128 0.2834 -0.0599
H20 H -0.1808 0.2212 -0.0625
C19 C -0.1411(6) 0.1991(16) 0.0467(6)
H21 H -0.1848 0.2248 0.0460
H22 H -0.1173 0.2887 0.0467
C20 C -0.1282(6) 0.1208(16) 0.1026(6)
H23 H -0.1469 0.0248 0.1014
H24 H -0.1440 0.1728 0.1384
O1A O -0.0620(4) 0.6114(10) -0.1050(4)
O2A O -0.1271(4) 0.6227(10) 0.0052(4)
O3A O 0.0534(4) 0.5958(10) -0.1094(4)
C1A C 0.0251(7) 0.5054(15) -0.1492(6)
C2A C 0.0526(7) 0.4177(14) -0.1913(6)
H1A H 0.0957 0.4159 -0.1941
C3A C 0.0178(7) 0.3304(16) -0.2303(5)
H2A H 0.0369 0.2644 -0.2570
C4A C -0.0432(6) 0.3432(16) -0.2287(5)
H3A H -0.0668 0.2864 -0.2556
C5A C -0.0741(7) 0.4374(15) -0.1887(6)
H4A H -0.1171 0.4471 -0.1898
C6A C -0.0390(7) 0.5154(15) -0.1475(6)
C7A C -0.1275(6) 0.6220(15) -0.0999(6)
H5A H -0.1441 0.6739 -0.1354
H6A H -0.1457 0.5254 -0.0991
C8A C -0.1422(6) 0.6958(16) -0.0457(5)
H7A H -0.1208 0.7886 -0.0455
H8A H -0.1865 0.7153 -0.0452
C9A C -0.1373(7) 0.6969(17) 0.0603(5)
H9A H -0.1809 0.7214 0.0645
H10A H -0.1132 0.7861 0.0610
C10A C -0.1173(6) 0.5973(17) 0.1123(6)
H11A H -0.1314 0.6345 0.1520
H12A H -0.1340 0.5002 0.1065
O4A O 0.0543(4) 0.0964(11) 0.1091(4)
O5A O 0.1274(4) 0.1227(10) 0.0050(4)
O6A O -0.0621(4) 0.1104(11) 0.1048(4)
C11A C -0.0396(7) 0.0178(15) 0.1476(6)
C12A C -0.0736(7) -0.0627(15) 0.1882(6)
H13A H -0.1168 -0.0599 0.1877
C13A C -0.0425(6) -0.1481(15) 0.2300(6)
H14A H -0.0656 -0.1998 0.2591
C14A C 0.0188(6) -0.1610(16) 0.2311(5)
H15A H 0.0379 -0.2238 0.2591
C15A C 0.0533(7) -0.0816(14) 0.1911(6)
H16A H 0.0964 -0.0881 0.1918
C16A C 0.0241(7) 0.0098(15) 0.1490(6)
C17A C 0.1186(6) 0.0959(17) 0.1140(6)
H17A H 0.1354 -0.0015 0.1093
H18A H 0.1322 0.1363 0.1533
C18A C 0.1373(7) 0.1948(17) 0.0591(5)
H19A H 0.1128 0.2834 0.0599
H20A H 0.1808 0.2212 0.0625
C19A C 0.1411(6) 0.1991(16) -0.0467(6)
H21A H 0.1848 0.2248 -0.0460
H22A H 0.1173 0.2887 -0.0467
C20A C 0.1282(6) 0.1208(16) -0.1026(6)
H23A H 0.1469 0.0248 -0.1014
H24A H 0.1440 0.1728 -0.1384
K2_2 K 0.0000 1.1005(5) 0.0000
O7_2 O 0.0000 -0.2048(14) 0.0000
K3 K 0.0000 0.4656(5) 0.5000
O9 O 0.1112(4) 0.4424(10) 0.4616(4)
O10 O 0.1030(4) 0.4887(10) 0.5761(4)
O11 O -0.0164(4) 0.4826(10) 0.6221(3)
O12 O 0.0000 0.7435(13) 0.5000
O13 O 0.0000 0.1634(14) 0.5000
C21 C 0.1517(6) 0.3775(15) 0.4940(6)
C22 C 0.1946(6) 0.2712(15) 0.4720(6)
H25 H 0.1962 0.2527 0.4296
C23 C 0.2328(5) 0.1964(15) 0.5096(6)
H26 H 0.2618 0.1323 0.4930
C24 C 0.2287(6) 0.2151(14) 0.5717(6)
H27 H 0.2541 0.1618 0.5982
C25 C 0.1851(5) 0.3172(14) 0.5962(6)
H28 H 0.1826 0.3302 0.6390
C26 C 0.1472(6) 0.3961(15) 0.5586(7)
C27 C 0.0916(6) 0.4928(15) 0.6376(6)
H29 H 0.1244 0.5455 0.6587
H30 H 0.0901 0.3947 0.6542
C28 C 0.0299(5) 0.5681(15) 0.6481(6)
H31 H 0.0224 0.5804 0.6921
H32 H 0.0302 0.6635 0.6288
C29 C -0.0758(5) 0.5389(16) 0.6331(6)
H33 H -0.0793 0.6359 0.6157
H34 H -0.0835 0.5449 0.6774
C30 C -0.1205(6) 0.4429(16) 0.6044(6)
H35 H -0.1156 0.3451 0.6206
H36 H -0.1623 0.4757 0.6139
O9A O -0.1112(4) 0.4424(10) 0.5384(4)
O10A O -0.1030(4) 0.4887(10) 0.4239(4)
O11A O 0.0164(4) 0.4826(10) 0.3779(3)
C21A C -0.1517(6) 0.3775(15) 0.5060(6)
C22A C -0.1946(6) 0.2712(15) 0.5280(6)
H25A H -0.1962 0.2527 0.5704
C23A C -0.2328(5) 0.1964(15) 0.4904(6)
H26A H -0.2618 0.1323 0.5070
C24A C -0.2287(6) 0.2151(14) 0.4283(6)
H27A H -0.2541 0.1618 0.4018
C25A C -0.1851(5) 0.3172(14) 0.4038(6)
H28A H -0.1826 0.3302 0.3610
C26A C -0.1472(6) 0.3961(15) 0.4414(7)
C27A C -0.0916(6) 0.4928(15) 0.3624(6)
H29A H -0.1244 0.5455 0.3413
H30A H -0.0901 0.3947 0.3458
C28A C -0.0299(5) 0.5681(15) 0.3519(6)
H31A H -0.0224 0.5804 0.3079
H32A H -0.0302 0.6635 0.3712
C29A C 0.0758(5) 0.5389(16) 0.3669(6)
H33A H 0.0793 0.6359 0.3843
H34A H 0.0835 0.5449 0.3226
C30A C 0.1205(6) 0.4429(16) 0.3956(6)
H35A H 0.1156 0.3451 0.3794
H36A H 0.1623 0.4757 0.3861
K4 K 0.5000 0.1762(5) 1.0000
O14 O 0.6013(4) 0.1621(10) 0.9248(4)
O15 O 0.4828(4) 0.1664(10) 0.8763(3)
O16 O 0.6154(3) 0.1894(11) 1.0406(3)
O17 O 0.5000 0.4924(14) 1.0000
O18 O 0.5000 -0.1026(14) 1.0000
C31 C 0.6540(6) 0.2816(15) 1.0042(6)
C32 C 0.6961(5) 0.3638(14) 1.0260(6)
H37 H 0.7009 0.3767 1.0686
C33 C 0.7349(6) 0.4337(14) 0.9837(6)
H38 H 0.7662 0.4943 0.9985
C34 C 0.7284(6) 0.4165(14) 0.9222(6)
H39 H 0.7529 0.4688 0.8944
C35 C 0.6865(5) 0.3237(15) 0.9024(6)
H40 H 0.6839 0.3039 0.8602
C36 C 0.6466(6) 0.2556(15) 0.9422(6)
C37 C 0.5894(6) 0.1492(15) 0.8607(6)
H41 H 0.6229 0.0973 0.8403
H42 H 0.5855 0.2447 0.8419
C38 C 0.5322(5) 0.0698(15) 0.8548(6)
H43 H 0.5334 -0.0178 0.8799
H44 H 0.5252 0.0422 0.8120
C39 C 0.4230(6) 0.1016(17) 0.8689(6)
H45 H 0.4218 0.0076 0.8894
H46 H 0.4142 0.0871 0.8252
C40 C 0.6228(6) 0.1975(16) 1.1041(6)
H47 H 0.6164 0.2966 1.1183
H48 H 0.6643 0.1671 1.1157
O14A O 0.3987(4) 0.1621(10) 1.0752(4)
O15A O 0.5172(4) 0.1664(10) 1.1237(3)
O16A O 0.3846(3) 0.1894(11) 0.9594(3)
C31A C 0.3460(6) 0.2816(15) 0.9958(6)
C32A C 0.3039(5) 0.3638(14) 0.9740(6)
H37A H 0.2991 0.3767 0.9314
C33A C 0.2651(6) 0.4337(14) 1.0163(6)
H38A H 0.2338 0.4943 1.0015
C34A C 0.2716(6) 0.4165(14) 1.0778(6)
H39A H 0.2471 0.4688 1.1056
C35A C 0.3135(5) 0.3237(15) 1.0976(6)
H40A H 0.3161 0.3039 1.1398
C36A C 0.3534(6) 0.2556(15) 1.0578(6)
C37A C 0.4106(6) 0.1492(15) 1.1393(6)
H41A H 0.3771 0.0973 1.1597
H42A H 0.4145 0.2447 1.1581
C38A C 0.4678(5) 0.0698(15) 1.1452(6)
H43A H 0.4666 -0.0178 1.1201
H44A H 0.4748 0.0422 1.1880
C39A C 0.5770(6) 0.1016(17) 1.1311(6)
H45A H 0.5782 0.0076 1.1106
H46A H 0.5858 0.0871 1.1748
C40A C 0.3772(6) 0.1975(16) 0.8959(6)
H47A H 0.3836 0.2966 0.8817
H48A H 0.3357 0.1671 0.8843
Br1 Br 0.24507(6) 0.26876(14) 0.27594(7)
I1 I 0.25006(5) 0.57321(18) 0.25027(6)
I2 I 0.25449(6) 0.87922(12) 0.22385(7)
Br2 Br 0.75505(6) 0.76779(14) 0.27615(7)
I3 I 0.75027(5) 1.07232(18) 0.25052(6)
I4 I 0.74546(6) 1.37853(12) 0.22409(7)
O19 O 0.8895(4) 0.9430(10) 0.4609(4)
O20 O 0.9842(4) 0.9811(10) 0.3761(4)
O21 O 0.8984(4) 0.9882(10) 0.5754(4)
C41 C 0.8525(6) 0.8976(15) 0.5581(7)
C42 C 0.8155(5) 0.8181(15) 0.5978(6)
H49 H 0.8188 0.8294 0.6405
C43 C 0.7723(6) 0.7187(14) 0.5718(6)
H50 H 0.7454 0.6682 0.5979
C44 C 0.7695(5) 0.6961(15) 0.5104(6)
H51 H 0.7421 0.6272 0.4944
C45 C 0.8056(5) 0.7716(14) 0.4725(6)
H52 H 0.8033 0.7538 0.4300
C46 C 0.8486(6) 0.8812(14) 0.4951(6)
C47 C 0.8795(5) 0.9404(15) 0.3960(6)
H53 H 0.8376 0.9719 0.3867
H54 H 0.8850 0.8423 0.3803
C48 C 0.9253(5) 1.0402(16) 0.3665(6)
H55 H 0.9170 1.0488 0.3224
H56 H 0.9227 1.1363 0.3850
C49 C 0.9724(5) 1.0662(15) 0.6487(6)
H57 H 0.9729 1.1610 0.6289
H58 H 0.9803 1.0795 0.6926
C50 C 0.9083(6) 0.9922(15) 0.6390(6)
H59 H 0.9085 0.8945 0.6560
H60 H 0.8758 1.0477 0.6593
O19A O 1.1105(4) 0.9430(10) 0.5391(4)
O20A O 1.0158(4) 0.9811(10) 0.6239(4)
O21A O 1.1016(4) 0.9882(10) 0.4246(4)
C41A C 1.1475(6) 0.8976(15) 0.4419(7)
C42A C 1.1845(5) 0.8181(15) 0.4022(6)
H49A H 1.1812 0.8294 0.3595
C43A C 1.2277(6) 0.7187(14) 0.4282(6)
H50A H 1.2546 0.6682 0.4021
C44A C 1.2305(5) 0.6961(15) 0.4896(6)
H51A H 1.2579 0.6272 0.5056
C45A C 1.1944(5) 0.7716(14) 0.5275(6)
H52A H 1.1967 0.7538 0.5700
C46A C 1.1514(6) 0.8812(14) 0.5049(6)
C47A C 1.1205(5) 0.9404(15) 0.6040(6)
H53A H 1.1624 0.9719 0.6133
H54A H 1.1150 0.8423 0.6197
C48A C 1.0747(5) 1.0402(16) 0.6335(6)
H55A H 1.0830 1.0488 0.6776
H56A H 1.0773 1.1363 0.6150
C49A C 1.0276(5) 1.0662(15) 0.3513(6)
H57A H 1.0271 1.1610 0.3711
H58A H 1.0197 1.0795 0.3074
C50A C 1.0917(6) 0.9922(15) 0.3610(6)
H59A H 1.0915 0.8945 0.3440
H60A H 1.1242 1.0477 0.3407
O22 O 0.3994(4) 0.6609(10) 0.9250(4)
O23 O 0.3858(4) 0.6916(11) 1.0410(4)
O24 O 0.4838(4) 0.6678(10) 1.1256(3)
C51 C 0.3532(6) 0.7534(15) 0.9422(6)
C52 C 0.3143(6) 0.8189(15) 0.9011(6)
H61 H 0.3171 0.7984 0.8589
C53 C 0.2726(6) 0.9120(14) 0.9219(6)
H62 H 0.2470 0.9620 0.8945
C54 C 0.2677(6) 0.9333(14) 0.9828(6)
H63 H 0.2383 0.9998 0.9969
C55 C 0.3034(6) 0.8634(15) 1.0260(6)
H64 H 0.2971 0.8747 1.0684
C56 C 0.3468(6) 0.7800(15) 1.0036(6)
C57 C 0.3782(6) 0.6999(17) 1.1041(6)
H65 H 0.3365 0.6703 1.1156
H66 H 0.3849 0.7987 1.1184
C58 C 0.4243(6) 0.6010(17) 1.1315(6)
H67 H 0.4148 0.5840 1.1749
H68 H 0.4239 0.5082 1.1101
C59 C 0.4711(6) 0.5722(15) 0.8539(6)
H69 H 0.4717 0.4838 0.8784
H70 H 0.4784 0.5467 0.8108
C60 C 0.4106(6) 0.6465(15) 0.8605(6)
H71 H 0.4120 0.7415 0.8409
H72 H 0.3780 0.5896 0.8412
O22A O 0.6006(4) 0.6609(10) 1.0750(4)
O23A O 0.6142(4) 0.6916(11) 0.9590(4)
O24A O 0.5162(4) 0.6678(10) 0.8744(3)
C51A C 0.6468(6) 0.7534(15) 1.0578(6)
C52A C 0.6857(6) 0.8189(15) 1.0989(6)
H61A H 0.6829 0.7984 1.1411
C53A C 0.7274(6) 0.9120(14) 1.0781(6)
H62A H 0.7530 0.9620 1.1055
C54A C 0.7323(6) 0.9333(14) 1.0172(6)
H63A H 0.7617 0.9998 1.0031
C55A C 0.6966(6) 0.8634(15) 0.9740(6)
H64A H 0.7029 0.8747 0.9316
C56A C 0.6532(6) 0.7800(15) 0.9964(6)
C57A C 0.6218(6) 0.6999(17) 0.8959(6)
H65A H 0.6635 0.6703 0.8844
H66A H 0.6151 0.7987 0.8816
C58A C 0.5757(6) 0.6010(17) 0.8685(6)
H67A H 0.5852 0.5840 0.8251
H68A H 0.5761 0.5082 0.8899
C59A C 0.5289(6) 0.5722(15) 1.1461(6)
H69A H 0.5283 0.4838 1.1216
H70A H 0.5216 0.5467 1.1892
C60A C 0.5894(6) 0.6465(15) 1.1395(6)
H71A H 0.5880 0.7415 1.1591
H72A H 0.6220 0.5896 1.1588
O25 O 0.4387(5) 0.0415(11) 0.6063(4)
O26 O 0.3728(4) 0.0277(11) 0.4940(4)
O27 O 0.5548(4) 0.0610(11) 0.6095(4)
C61 C 0.6406(6) -0.0440(17) 0.5638(6)
H73 H 0.6198 -0.1375 0.5654
H74 H 0.6849 -0.0600 0.5678
C62 C 0.6194(6) 0.0458(16) 0.6119(6)
H75 H 0.6312 0.0041 0.6515
H76 H 0.6387 0.1408 0.6084
C63 C 0.5255(6) 0.1418(14) 0.6516(6)
C64 C 0.5521(6) 0.2302(14) 0.6915(7)
H77 H 0.5952 0.2370 0.6939
C65 C 0.5143(5) 0.3134(16) 0.7303(6)
H78 H 0.5329 0.3770 0.7582
C66 C 0.4524(5) 0.3056(14) 0.7289(6)
H79 H 0.4278 0.3648 0.7538
C67 C 0.4271(6) 0.2068(15) 0.6892(6)
H80 H 0.3843 0.1932 0.6901
C68 C 0.4603(6) 0.1286(14) 0.6494(6)
C69 C 0.3743(6) 0.0245(15) 0.6024(6)
H81 H 0.3545 0.1192 0.5999
H82 H 0.3590 -0.0245 0.6392
C70 C 0.3584(6) -0.0642(15) 0.5453(6)
H83 H 0.3828 -0.1527 0.5438
H84 H 0.3147 -0.0900 0.5451
O25A O 0.5613(5) 0.0415(11) 0.3937(4)
O26A O 0.6272(4) 0.0277(11) 0.5060(4)
O27A O 0.4452(4) 0.0610(11) 0.3905(4)
C61A C 0.3594(6) -0.0440(17) 0.4362(6)
H73A H 0.3802 -0.1375 0.4346
H74A H 0.3151 -0.0600 0.4322
C62A C 0.3806(6) 0.0458(16) 0.3881(6)
H75A H 0.3688 0.0041 0.3485
H76A H 0.3613 0.1408 0.3916
C63A C 0.4745(6) 0.1418(14) 0.3484(6)
C64A C 0.4479(6) 0.2302(14) 0.3085(7)
H77A H 0.4048 0.2370 0.3061
C65A C 0.4857(5) 0.3134(16) 0.2697(6)
H78A H 0.4671 0.3770 0.2418
C66A C 0.5476(5) 0.3056(14) 0.2711(6)
H79A H 0.5722 0.3648 0.2462
C67A C 0.5729(6) 0.2068(15) 0.3108(6)
H80A H 0.6157 0.1932 0.3099
C68A C 0.5397(6) 0.1286(14) 0.3506(6)
C69A C 0.6257(6) 0.0245(15) 0.3976(6)
H81A H 0.6455 0.1192 0.4001
H82A H 0.6410 -0.0245 0.3608
C70A C 0.6416(6) -0.0642(15) 0.4547(6)
H83A H 0.6172 -0.1527 0.4562
H84A H 0.6853 -0.0900 0.4549
O28 O 0.4388(5) 0.5440(11) 0.3938(4)
O29 O 0.3735(4) 0.5276(11) 0.5063(4)
O30 O 0.5546(4) 0.5598(11) 0.3909(4)
C71 C 0.5244(6) 0.6384(14) 0.3479(6)
C72 C 0.5519(6) 0.7286(14) 0.3076(6)
H85 H 0.5950 0.7357 0.3061
C73 C 0.5167(6) 0.8081(16) 0.2696(6)
H86 H 0.5360 0.8717 0.2421
C74 C 0.4540(6) 0.7997(15) 0.2697(6)
H87 H 0.4305 0.8562 0.2426
C75 C 0.4262(6) 0.7077(16) 0.3098(6)
H88 H 0.3831 0.6991 0.3103
C76 C 0.4608(6) 0.6283(15) 0.3492(6)
C77 C 0.3736(6) 0.5276(15) 0.3965(6)
H89 H 0.3585 0.4799 0.3593
H90 H 0.3536 0.6218 0.4001
C78 C 0.3597(6) 0.4338(15) 0.4541(6)
H91 H 0.3165 0.4038 0.4548
H92 H 0.3858 0.3477 0.4548
C79 C 0.3592(6) 0.4571(17) 0.5627(6)
H93 H 0.3799 0.3634 0.5646
H94 H 0.3148 0.4411 0.5658
C80 C 0.3799(6) 0.5481(17) 0.6131(6)
H95 H 0.3610 0.6437 0.6101
H96 H 0.3681 0.5054 0.6525
O28A O 0.5612(5) 0.5440(11) 0.6062(4)
O29A O 0.6265(4) 0.5276(11) 0.4937(4)
O30A O 0.4454(4) 0.5598(11) 0.6091(4)
C71A C 0.4756(6) 0.6384(14) 0.6521(6)
C72A C 0.4481(6) 0.7286(14) 0.6924(6)
H85A H 0.4050 0.7357 0.6939
C73A C 0.4833(6) 0.8081(16) 0.7304(6)
H86A H 0.4640 0.8717 0.7579
C74A C 0.5460(6) 0.7997(15) 0.7303(6)
H87A H 0.5695 0.8562 0.7574
C75A C 0.5738(6) 0.7077(16) 0.6902(6)
H88A H 0.6169 0.6991 0.6897
C76A C 0.5392(6) 0.6283(15) 0.6508(6)
C77A C 0.6264(6) 0.5276(15) 0.6035(6)
H89A H 0.6415 0.4799 0.6407
H90A H 0.6464 0.6218 0.5999
C78A C 0.6403(6) 0.4338(15) 0.5459(6)
H91A H 0.6835 0.4038 0.5452
H92A H 0.6142 0.3477 0.5452
C79A C 0.6408(6) 0.4571(17) 0.4373(6)
H93A H 0.6201 0.3634 0.4354
H94A H 0.6852 0.4411 0.4342
C80A C 0.6201(6) 0.5481(17) 0.3869(6)
H95A H 0.6390 0.6437 0.3899
H96A H 0.6319 0.5054 0.3475
O31 O 0.5000 0.7344(13) 0.5000
O32 O 0.5000 0.2586(14) 0.5000
loop_
_geom_bond_atom_site_label_1
_geom_bond_atom_site_label_2
_geom_bond_site_symmetry_1
_geom_bond_site_symmetry_2
K1 O1 1_555 1_555
K2 O4 1_555 1_555
O1 C6 1_555 1_555
O2 K1 1_555 1_555
O3 K1 1_555 1_555
O4 C16 1_555 1_555
O5 K2 1_555 1_555
O6 K2 1_555 1_555
O7 K1 1_555 1_555
O8 K1 1_555 1_555
C1 O3 1_555 1_555
C2 C1 1_555 1_555
H1 C2 1_555 1_555
C3 C2 1_555 1_555
H2 C3 1_555 1_555
C4 C3 1_555 1_555
H3 C4 1_555 1_555
C5 C4 1_555 1_555
H4 C5 1_555 1_555
C6 C1 1_555 1_555
C7 O1 1_555 1_555
H5 C7 1_555 1_555
H6 C7 1_555 1_555
C8 O2 1_555 1_555
H7 C8 1_555 1_555
H8 C8 1_555 1_555
C9 O2 1_555 1_555
H9 C9 1_555 1_555
H10 C9 1_555 1_555
C10 C9 1_555 1_555
H11 C10 1_555 1_555
H12 C10 1_555 1_555
C11 O6 1_555 1_555
C12 C11 1_555 1_555
H13 C12 1_555 1_555
C13 C12 1_555 1_555
H14 C13 1_555 1_555
C14 C13 1_555 1_555
H15 C14 1_555 1_555
C15 C14 1_555 1_555
H16 C15 1_555 1_555
C16 C11 1_555 1_555
C17 O4 1_555 1_555
H17 C17 1_555 1_555
H18 C17 1_555 1_555
C18 O5 1_555 1_555
H19 C18 1_555 1_555
H20 C18 1_555 1_555
C19 O5 1_555 1_555
H21 C19 1_555 1_555
H22 C19 1_555 1_555
C20 C19 1_555 1_555
H23 C20 1_555 1_555
H24 C20 1_555 1_555
K3 O9 1_555 1_555
O9 C21 1_555 1_555
O10 K3 1_555 1_555
O11 K3 1_555 1_555
O12 K3 1_555 1_555
O13 K3 1_555 1_555
C21 C22 1_555 1_555
C22 H25 1_555 1_555
C23 C22 1_555 1_555
H26 C23 1_555 1_555
C24 C23 1_555 1_555
H27 C24 1_555 1_555
C25 C24 1_555 1_555
H28 C25 1_555 1_555
C26 O10 1_555 1_555
C27 O10 1_555 1_555
H29 C27 1_555 1_555
H30 C27 1_555 1_555
C28 O11 1_555 1_555
H31 C28 1_555 1_555
H32 C28 1_555 1_555
C29 O11 1_555 1_555
H33 C29 1_555 1_555
H34 C29 1_555 1_555
C30 C29 1_555 1_555
H35 C30 1_555 1_555
H36 C30 1_555 1_555
K4 O14 1_555 1_555
O14 C36 1_555 1_555
O15 K4 1_555 1_555
O16 K4 1_555 1_555
O17 K4 1_555 1_555
O18 K4 1_555 1_555
C31 O16 1_555 1_555
C32 C31 1_555 1_555
H37 C32 1_555 1_555
C33 C32 1_555 1_555
H38 C33 1_555 1_555
C34 C33 1_555 1_555
H39 C34 1_555 1_555
C35 C34 1_555 1_555
H40 C35 1_555 1_555
C36 C31 1_555 1_555
C37 O14 1_555 1_555
H41 C37 1_555 1_555
H42 C37 1_555 1_555
C38 O15 1_555 1_555
H43 C38 1_555 1_555
H44 C38 1_555 1_555
C39 O15 1_555 1_555
H45 C39 1_555 1_555
H46 C39 1_555 1_555
C40 O16 1_555 1_555
H47 C40 1_555 1_555
H48 C40 1_555 1_555
Br1 I1 1_555 1_555
I1 I2 1_555 1_555
Br2 I3 1_555 1_555
I3 I4 1_555 1_555
O19 C46 1_555 1_555
O20 C48 1_555 1_555
O21 C41 1_555 1_555
C41 C42 1_555 1_555
C42 H49 1_555 1_555
C43 C42 1_555 1_555
H50 C43 1_555 1_555
C44 C43 1_555 1_555
H51 C44 1_555 1_555
C45 C44 1_555 1_555
H52 C45 1_555 1_555
C46 C41 1_555 1_555
C47 O19 1_555 1_555
H53 C47 1_555 1_555
H54 C47 1_555 1_555
C48 C47 1_555 1_555
H55 C48 1_555 1_555
H56 C48 1_555 1_555
C49 H57 1_555 1_555
H58 C49 1_555 1_555
C50 O21 1_555 1_555
H59 C50 1_555 1_555
H60 C50 1_555 1_555
O22 C51 1_555 1_555
O23 C56 1_555 1_555
O24 C58 1_555 1_555
C51 C52 1_555 1_555
C52 H61 1_555 1_555
C53 C52 1_555 1_555
H62 C53 1_555 1_555
C54 C53 1_555 1_555
H63 C54 1_555 1_555
C55 C54 1_555 1_555
H64 C55 1_555 1_555
C56 C51 1_555 1_555
C57 O23 1_555 1_555
H65 C57 1_555 1_555
H66 C57 1_555 1_555
C58 C57 1_555 1_555
H67 C58 1_555 1_555
H68 C58 1_555 1_555
C59 H69 1_555 1_555
H70 C59 1_555 1_555
C60 O22 1_555 1_555
H71 C60 1_555 1_555
H72 C60 1_555 1_555
O25 C68 1_555 1_555
O26 C70 1_555 1_555
O27 C62 1_555 1_555
C61 H73 1_555 1_555
H74 C61 1_555 1_555
C62 C61 1_555 1_555
H75 C62 1_555 1_555
H76 C62 1_555 1_555
C63 O27 1_555 1_555
C64 C63 1_555 1_555
H77 C64 1_555 1_555
C65 C64 1_555 1_555
H78 C65 1_555 1_555
C66 C65 1_555 1_555
H79 C66 1_555 1_555
C67 C66 1_555 1_555
H80 C67 1_555 1_555
C68 C63 1_555 1_555
C69 O25 1_555 1_555
H81 C69 1_555 1_555
H82 C69 1_555 1_555
C70 C69 1_555 1_555
H83 C70 1_555 1_555
H84 C70 1_555 1_555
O28 C76 1_555 1_555
O29 C78 1_555 1_555
O30 C71 1_555 1_555
C71 C72 1_555 1_555
C72 H85 1_555 1_555
C73 C72 1_555 1_555
H86 C73 1_555 1_555
C74 C73 1_555 1_555
H87 C74 1_555 1_555
C75 C74 1_555 1_555
H88 C75 1_555 1_555
C76 C71 1_555 1_555
C77 O28 1_555 1_555
H89 C77 1_555 1_555
H90 C77 1_555 1_555
C78 C77 1_555 1_555
H91 C78 1_555 1_555
H92 C78 1_555 1_555
C79 O29 1_555 1_555
H93 C79 1_555 1_555
H94 C79 1_555 1_555
C80 C79 1_555 1_555
H95 C80 1_555 1_555
H96 C80 1_555 1_555
O1A K1 1_555 1_555
O2A K1 1_555 1_555
O3A K1 1_555 1_555
C1A O3A 1_555 1_555
C2A C1A 1_555 1_555
H1A C2A 1_555 1_555
C3A C2A 1_555 1_555
H2A C3A 1_555 1_555
C4A C3A 1_555 1_555
H3A C4A 1_555 1_555
C5A C4A 1_555 1_555
H4A C5A 1_555 1_555
C6A O1A 1_555 1_555
C7A O1A 1_555 1_555
H5A C7A 1_555 1_555
H6A C7A 1_555 1_555
C8A O2A 1_555 1_555
H7A C8A 1_555 1_555
H8A C8A 1_555 1_555
C9A O2A 1_555 1_555
H9A C9A 1_555 1_555
H10A C9A 1_555 1_555
C10A O3 1_555 1_555
H11A C10A 1_555 1_555
H12A C10A 1_555 1_555
O4A K2 1_555 1_555
O5A K2 1_555 1_555
O6A K2 1_555 1_555
C11A O6A 1_555 1_555
C12A C11A 1_555 1_555
H13A C12A 1_555 1_555
C13A C12A 1_555 1_555
H14A C13A 1_555 1_555
C14A C13A 1_555 1_555
H15A C14A 1_555 1_555
C15A C14A 1_555 1_555
H16A C15A 1_555 1_555
C16A O4A 1_555 1_555
C17A O4A 1_555 1_555
H17A C17A 1_555 1_555
H18A C17A 1_555 1_555
C18A O5A 1_555 1_555
H19A C18A 1_555 1_555
H20A C18A 1_555 1_555
C19A O5A 1_555 1_555
H21A C19A 1_555 1_555
H22A C19A 1_555 1_555
C20A O6 1_555 1_555
H23A C20A 1_555 1_555
H24A C20A 1_555 1_555
K2_2 O7 1_555 1_555
O7_2 K2 1_555 1_555
O9A K3 1_555 1_555
O10A K3 1_555 1_555
O11A K3 1_555 1_555
C21A O9A 1_555 1_555
C22A C21A 1_555 1_555
H25A C22A 1_555 1_555
C23A C22A 1_555 1_555
H26A C23A 1_555 1_555
C24A C23A 1_555 1_555
H27A C24A 1_555 1_555
C25A C24A 1_555 1_555
H28A C25A 1_555 1_555
C26A O10A 1_555 1_555
C27A O10A 1_555 1_555
H29A C27A 1_555 1_555
H30A C27A 1_555 1_555
C28A O11A 1_555 1_555
H31A C28A 1_555 1_555
H32A C28A 1_555 1_555
C29A O11A 1_555 1_555
H33A C29A 1_555 1_555
H34A C29A 1_555 1_555
C30A O9 1_555 1_555
H35A C30A 1_555 1_555
H36A C30A 1_555 1_555
O14A K4 1_555 1_555
O15A K4 1_555 1_555
O16A K4 1_555 1_555
C31A O16A 1_555 1_555
C32A C31A 1_555 1_555
H37A C32A 1_555 1_555
C33A C32A 1_555 1_555
H38A C33A 1_555 1_555
C34A C33A 1_555 1_555
H39A C34A 1_555 1_555
C35A C34A 1_555 1_555
H40A C35A 1_555 1_555
C36A O14A 1_555 1_555
C37A O14A 1_555 1_555
H41A C37A 1_555 1_555
H42A C37A 1_555 1_555
C38A O15A 1_555 1_555
H43A C38A 1_555 1_555
H44A C38A 1_555 1_555
C39A C40 1_555 1_555
H45A C39A 1_555 1_555
H46A C39A 1_555 1_555
C40A C39 1_555 1_555
H47A C40A 1_555 1_555
H48A C40A 1_555 1_555
O19A C46A 1_555 1_555
O20A C49 1_555 1_555
O21A C41A 1_555 1_555
C41A C42A 1_555 1_555
C42A H49A 1_555 1_555
C43A C42A 1_555 1_555
H50A C43A 1_555 1_555
C44A C43A 1_555 1_555
H51A C44A 1_555 1_555
C45A C44A 1_555 1_555
H52A C45A 1_555 1_555
C46A C41A 1_555 1_555
C47A O19A 1_555 1_555
H53A C47A 1_555 1_555
H54A C47A 1_555 1_555
C48A O20A 1_555 1_555
H55A C48A 1_555 1_555
H56A C48A 1_555 1_555
C49A O20 1_555 1_555
H57A C49A 1_555 1_555
H58A C49A 1_555 1_555
C50A O21A 1_555 1_555
H59A C50A 1_555 1_555
H60A C50A 1_555 1_555
O22A C51A 1_555 1_555
O23A C56A 1_555 1_555
O24A C59 1_555 1_555
C51A C52A 1_555 1_555
C52A H61A 1_555 1_555
C53A C52A 1_555 1_555
H62A C53A 1_555 1_555
C54A C53A 1_555 1_555
H63A C54A 1_555 1_555
C55A C54A 1_555 1_555
H64A C55A 1_555 1_555
C56A C51A 1_555 1_555
C57A O23A 1_555 1_555
H65A C57A 1_555 1_555
H66A C57A 1_555 1_555
C58A O24A 1_555 1_555
H67A C58A 1_555 1_555
H68A C58A 1_555 1_555
C59A O24 1_555 1_555
H69A C59A 1_555 1_555
H70A C59A 1_555 1_555
C60A O22A 1_555 1_555
H71A C60A 1_555 1_555
H72A C60A 1_555 1_555
O25A C68A 1_555 1_555
O26A C61 1_555 1_555
O27A C62A 1_555 1_555
C61A O26 1_555 1_555
H73A C61A 1_555 1_555
H74A C61A 1_555 1_555
C62A C61A 1_555 1_555
H75A C62A 1_555 1_555
H76A C62A 1_555 1_555
C63A O27A 1_555 1_555
C64A C63A 1_555 1_555
H77A C64A 1_555 1_555
C65A C64A 1_555 1_555
H78A C65A 1_555 1_555
C66A C65A 1_555 1_555
H79A C66A 1_555 1_555
C67A C66A 1_555 1_555
H80A C67A 1_555 1_555
C68A C63A 1_555 1_555
C69A O25A 1_555 1_555
H81A C69A 1_555 1_555
H82A C69A 1_555 1_555
C70A O26A 1_555 1_555
H83A C70A 1_555 1_555
H84A C70A 1_555 1_555
O28A C76A 1_555 1_555
O29A C78A 1_555 1_555
O30A C80 1_555 1_555
C71A O30A 1_555 1_555
C72A C71A 1_555 1_555
H85A C72A 1_555 1_555
C73A C72A 1_555 1_555
H86A C73A 1_555 1_555
C74A C73A 1_555 1_555
H87A C74A 1_555 1_555
C75A C74A 1_555 1_555
H88A C75A 1_555 1_555
C76A C71A 1_555 1_555
C77A O28A 1_555 1_555
H89A C77A 1_555 1_555
H90A C77A 1_555 1_555
C78A C77A 1_555 1_555
H91A C78A 1_555 1_555
H92A C78A 1_555 1_555
C79A O29A 1_555 1_555
H93A C79A 1_555 1_555
H94A C79A 1_555 1_555
C80A O30 1_555 1_555
H95A C80A 1_555 1_555
H96A C80A 1_555 1_555
K2 O8 1_555 1_555
C5 C6 1_555 1_555
C7 C8 1_555 1_555
C10 O3A 1_555 1_555
C15 C16 1_555 1_555
C17 C18 1_555 1_555
C20 O6A 1_555 1_555
C21 C26 1_555 1_555
C25 C26 1_555 1_555
C27 C28 1_555 1_555
C30 O9A 1_555 1_555
C35 C36 1_555 1_555
C37 C38 1_555 1_555
C45 C46 1_555 1_555
C49 C50 1_555 1_555
C55 C56 1_555 1_555
C59 C60 1_555 1_555
C67 C68 1_555 1_555
C75 C76 1_555 1_555
C1A C6A 1_555 1_555
C5A C6A 1_555 1_555
C7A C8A 1_555 1_555
C9A C10A 1_555 1_555
C11A C16A 1_555 1_555
C15A C16A 1_555 1_555
C17A C18A 1_555 1_555
C19A C20A 1_555 1_555
C21A C26A 1_555 1_555
C25A C26A 1_555 1_555
C27A C28A 1_555 1_555
C29A C30A 1_555 1_555
O15A C39A 1_555 1_555
O16A C40A 1_555 1_555
C31A C36A 1_555 1_555
C35A C36A 1_555 1_555
C37A C38A 1_555 1_555
C45A C46A 1_555 1_555
C47A C48A 1_555 1_555
C49A C50A 1_555 1_555
C55A C56A 1_555 1_555
C57A C58A 1_555 1_555
C59A C60A 1_555 1_555
C67A C68A 1_555 1_555
C69A C70A 1_555 1_555
C75A C76A 1_555 1_555
C79A C80A 1_555 1_555

#END
