
#######################################################################
#
#                 Cambridge Crystallographic Data Centre
#                                CCDC 
#
#######################################################################
#
# If this CIF has been generated from an entry in the Cambridge 
# Structural Database, then it will include bibliographic, chemical, 
# crystal, experimental, refinement or atomic coordinate data resulting 
# from the CCDC's data processing and validation procedures.
#
#######################################################################

data_XIGZOE
_symmetry_cell_setting           monoclinic
_symmetry_space_group_name_H-M   'P 2'
_symmetry_Int_Tables_number      3
_space_group_name_Hall           'P 2y'
loop_
_symmetry_equiv_pos_site_id
_symmetry_equiv_pos_as_xyz
1 x,y,z
2 -x,y,-z
_cell_length_a                   21.9698(7)
_cell_length_b                   9.3665(3)
_cell_length_c                   21.9960(8)
_cell_angle_alpha                90
_cell_angle_beta                 89.974(3)
_cell_angle_gamma                90
_cell_volume                     4526.34
loop_
_atom_site_label
_atom_site_type_symbol
_atom_site_fract_x
_atom_site_fract_y
_atom_site_fract_z
C21 C 0.0264(6) 0.7912(11) 0.3474(5)
C22 C 0.0541(5) 0.8820(11) 0.3082(5)
H25 H 0.0962 0.8902 0.3077
C23 C 0.0191(5) 0.9615(13) 0.2693(5)
H26 H 0.0379 1.0219 0.2415
C24 C -0.0414(5) 0.9535(12) 0.2706(5)
H27 H -0.0633 1.0112 0.2440
C25 C -0.0751(5) 0.8602(12) 0.3111(5)
H28 H -0.1174 0.8553 0.3107
C26 C -0.0400(5) 0.7786(10) 0.3505(4)
C27 C -0.1273(5) 0.6814(12) 0.3980(5)
H29 H -0.1433 0.6343 0.3622
H30 H -0.1454 0.7755 0.4009
C28 C -0.1417(5) 0.5970(12) 0.4530(5)
H31 H -0.1847 0.5737 0.4536
H32 H -0.1187 0.5086 0.4527
C29 C 0.1405(5) 0.6184(11) 0.4349(5)
H33 H 0.1844 0.6104 0.4312
H34 H 0.1238 0.5227 0.4328
C30 C 0.1185(5) 0.6971(13) 0.3850(5)
H35 H 0.1284 0.6479 0.3475
H36 H 0.1376 0.7904 0.3841
C31 C 0.0383(6) 1.2786(12) 0.3503(5)
C32 C 0.0741(5) 1.3616(12) 0.3117(4)
H37 H 0.1162 1.3548 0.3136
C33 C 0.0465(5) 1.4564(13) 0.2696(5)
H38 H 0.0701 1.5091 0.2426
C34 C -0.0146(5) 1.4686(13) 0.2696(5)
H39 H -0.0326 1.5347 0.2437
C35 C -0.0534(6) 1.3831(12) 0.3083(4)
H40 H -0.0956 1.3879 0.3056
C36 C 0.0257(5) 1.2964(12) 0.6516(5)
C37 C 0.1150(5) 1.2002(12) 0.6119(5)
H41 H 0.1271 1.1588 0.6505
H42 H 0.1313 1.2963 0.6099
C38 C 0.1409(5) 1.1147(12) 0.5620(5)
H43 H 0.1848 1.1082 0.5666
H44 H 0.1243 1.0188 0.5630
C39 C 0.1422(5) 1.0996(11) 0.4532(5)
H45 H 0.1207 1.0092 0.4539
H46 H 0.1855 1.0796 0.4534
C40 C 0.1268(5) 1.1756(11) 0.3985(4)
H47 H 0.1461 1.2688 0.3989
H48 H 0.1417 1.1235 0.3635
O9 O -0.0628(3) 0.6929(8) 0.3938(3)
O10 O -0.1264(4) 0.6780(9) 0.5052(4)
O11 O 0.0548(3) 0.7126(9) 0.3901(3)
O12 O 0.0529(3) 1.2062(9) 0.6092(3)
O13 O 0.1268(3) 1.1794(7) 0.5064(3)
O14 O 0.0624(4) 1.1922(8) 0.3942(3)
O15 O 0.0000 0.900(2) 0.5000
O16 O 0.0000 0.516(2) 0.5000
Na3 Na 0.0000 0.6828(7) 0.5000
Na4 Na 0.0000 1.2012(7) 0.5000
C21A C -0.0264(6) 0.7912(11) 0.6526(5)
C22A C -0.0541(5) 0.8820(11) 0.6918(5)
H25A H -0.0962 0.8902 0.6923
C23A C -0.0191(5) 0.9615(13) 0.7307(5)
H26A H -0.0379 1.0219 0.7585
C24A C 0.0414(5) 0.9535(12) 0.7294(5)
H27A H 0.0633 1.0112 0.7560
C25A C 0.0751(5) 0.8602(12) 0.6889(5)
H28A H 0.1174 0.8553 0.6893
C26A C 0.0400(5) 0.7786(10) 0.6495(4)
C27A C 0.1273(5) 0.6814(12) 0.6020(5)
H29A H 0.1433 0.6343 0.6378
H30A H 0.1454 0.7755 0.5991
C28A C 0.1417(5) 0.5970(12) 0.5470(5)
H31A H 0.1847 0.5737 0.5464
H32A H 0.1187 0.5086 0.5473
C29A C -0.1405(5) 0.6184(11) 0.5651(5)
H33A H -0.1844 0.6104 0.5688
H34A H -0.1238 0.5227 0.5672
C30A C -0.1185(5) 0.6971(13) 0.6150(5)
H35A H -0.1284 0.6479 0.6525
H36A H -0.1376 0.7904 0.6159
O9A O 0.0628(3) 0.6929(8) 0.6062(3)
O10A O 0.1264(4) 0.6780(9) 0.4948(4)
O11A O -0.0548(3) 0.7126(9) 0.6099(3)
C31A C -0.0383(6) 1.2786(12) 0.6497(5)
C32A C -0.0741(5) 1.3616(12) 0.6883(4)
H37A H -0.1162 1.3548 0.6864
C33A C -0.0465(5) 1.4564(13) 0.7304(5)
H38A H -0.0701 1.5091 0.7574
C34A C 0.0146(5) 1.4686(13) 0.7304(5)
H39A H 0.0326 1.5347 0.7563
C35A C 0.0534(6) 1.3831(12) 0.6917(4)
H40A H 0.0956 1.3879 0.6944
C36A C -0.0257(5) 1.2964(12) 0.3484(5)
C37A C -0.1150(5) 1.2002(12) 0.3881(5)
H41A H -0.1271 1.1588 0.3495
H42A H -0.1313 1.2963 0.3901
C38A C -0.1409(5) 1.1147(12) 0.4380(5)
H43A H -0.1848 1.1082 0.4334
H44A H -0.1243 1.0188 0.4370
C39A C -0.1422(5) 1.0996(11) 0.5468(5)
H45A H -0.1207 1.0092 0.5461
H46A H -0.1855 1.0796 0.5466
C40A C -0.1268(5) 1.1756(11) 0.6015(4)
H47A H -0.1461 1.2688 0.6011
H48A H -0.1417 1.1235 0.6365
O12A O -0.0529(3) 1.2062(9) 0.3908(3)
O13A O -0.1268(3) 1.1794(7) 0.4936(3)
O14A O -0.0624(4) 1.1922(8) 0.6058(3)
O16_2 O 0.0000 1.516(2) 0.5000
Na4_2 Na 0.0000 0.2012(7) 0.5000
C41 C 0.8483(4) 0.9330(12) 0.0058(4)
C42 C 0.8036(4) 1.0203(11) 0.0242(5)
H49 H 0.7972 1.0331 0.0657
C43 C 0.7679(5) 1.0898(12) -0.0153(5)
H50 H 0.7388 1.1536 -0.0009
C44 C 0.7731(5) 1.0695(12) -0.0728(5)
H51 H 0.7476 1.1186 -0.0993
C45 C 0.8147(4) 0.9790(13) -0.0955(6)
H52 H 0.8174 0.9675 -0.1374
C46 C 0.8535(5) 0.9030(11) -0.0588(4)
C47 C 0.9114(6) 0.8020(12) -0.1390(5)
H53 H 0.9127 0.8963 -0.1572
H54 H 0.8798 0.7473 -0.1592
C48 C 0.9733(5) 0.7273(12) -0.1472(5)
H55 H 0.9739 0.6372 -0.1255
H56 H 0.9811 0.7089 -0.1899
C49 C 0.9265(5) 0.7506(11) 0.1318(5)
H57 H 0.9184 0.7332 0.1746
H58 H 0.9253 0.6604 0.1102
C50 C 0.8787(4) 0.8600(9) 0.1044(3)
H59 H 0.8376 0.8360 0.1169
H60 H 0.8878 0.9568 0.1171
C51 C 1.1509(5) 1.4280(13) 0.0075(5)
C52 C 1.1961(4) 1.5256(12) 0.0262(6)
H61 H 1.2000 1.5438 0.0676
C53 C 1.2335(5) 1.5934(12) -0.0118(5)
H62 H 1.2636 1.6530 0.0038
C54 C 1.2285(5) 1.5772(11) -0.0705(5)
H63 H 1.2532 1.6303 -0.0964
C55 C 1.1855(4) 1.4789(13) -0.0955(6)
H64 H 1.1834 1.4669 -0.1374
C56 C 0.8538(4) 1.3998(10) 0.0578(4)
C57 C 0.9087(5) 1.3045(12) 0.1393(5)
H65 H 0.8770 1.2502 0.1595
H66 H 0.9094 1.4000 0.1562
C58 C 0.9687(5) 1.2344(12) 0.1481(5)
H67 H 0.9758 1.2194 0.1912
H68 H 0.9686 1.1419 0.1283
C59 C 1.0764(5) 1.2541(13) 0.1310(5)
H69 H 1.0777 1.1627 0.1103
H70 H 1.0851 1.2390 0.1738
C60 C 1.1228(5) 1.3573(12) 0.1031(5)
H71 H 1.1158 1.4538 0.1175
H72 H 1.1639 1.3292 0.1138
O17 O 0.8979(3) 0.8136(8) -0.0751(3)
O18 O 1.0166(3) 0.8194(8) -0.1237(3)
O19 O 0.8858(3) 0.8446(8) 0.0395(3)
O20 O 0.8972(3) 1.3105(8) 0.0753(3)
O21 O 1.0164(4) 1.3207(9) 0.1234(3)
O22 O 1.1141(3) 1.3492(8) 0.0404(3)
O23 O 1.0000 0.546(2) 0.0000
O24 O 1.0000 1.140(2) 0.0000
Na5 Na 1.0000 0.8285(7) 0.0000
Na6 Na 1.0000 1.3379(7) 0.0000
C41A C 1.1517(4) 0.9330(12) -0.0058(4)
C42A C 1.1964(4) 1.0203(11) -0.0242(5)
H49A H 1.2028 1.0331 -0.0657
C43A C 1.2321(5) 1.0898(12) 0.0153(5)
H50A H 1.2612 1.1536 0.0009
C44A C 1.2269(5) 1.0695(12) 0.0728(5)
H51A H 1.2524 1.1186 0.0993
C45A C 1.1853(4) 0.9790(13) 0.0955(6)
H52A H 1.1826 0.9675 0.1374
C46A C 1.1465(5) 0.9030(11) 0.0588(4)
C47A C 1.0886(6) 0.8020(12) 0.1390(5)
H53A H 1.0873 0.8963 0.1572
H54A H 1.1202 0.7473 0.1592
C48A C 1.0267(5) 0.7273(12) 0.1472(5)
H55A H 1.0261 0.6372 0.1255
H56A H 1.0189 0.7089 0.1899
C49A C 1.0735(5) 0.7506(11) -0.1318(5)
H57A H 1.0816 0.7332 -0.1746
H58A H 1.0747 0.6604 -0.1102
C50A C 1.1213(4) 0.8600(9) -0.1044(3)
H59A H 1.1624 0.8360 -0.1169
H60A H 1.1122 0.9568 -0.1171
O17A O 1.1021(3) 0.8136(8) 0.0751(3)
O18A O 0.9834(3) 0.8194(8) 0.1237(3)
O19A O 1.1142(3) 0.8446(8) -0.0395(3)
C51A C 0.8491(5) 1.4280(13) -0.0075(5)
C52A C 0.8039(4) 1.5256(12) -0.0262(6)
H61A H 0.8000 1.5438 -0.0676
C53A C 0.7665(5) 1.5934(12) 0.0118(5)
H62A H 0.7364 1.6530 -0.0038
C54A C 0.7715(5) 1.5772(11) 0.0705(5)
H63A H 0.7468 1.6303 0.0964
C55A C 0.8145(4) 1.4789(13) 0.0955(6)
H64A H 0.8166 1.4669 0.1374
C56A C 1.1462(4) 1.3998(10) -0.0578(4)
C57A C 1.0913(5) 1.3045(12) -0.1393(5)
H65A H 1.1230 1.2502 -0.1595
H66A H 1.0906 1.4000 -0.1562
C58A C 1.0313(5) 1.2344(12) -0.1481(5)
H67A H 1.0242 1.2194 -0.1912
H68A H 1.0314 1.1419 -0.1283
C59A C 0.9236(5) 1.2541(13) -0.1310(5)
H69A H 0.9223 1.1627 -0.1103
H70A H 0.9149 1.2390 -0.1738
C60A C 0.8772(5) 1.3573(12) -0.1031(5)
H71A H 0.8842 1.4538 -0.1175
H72A H 0.8361 1.3292 -0.1138
O20A O 1.1028(3) 1.3105(8) -0.0753(3)
O21A O 0.9836(4) 1.3207(9) -0.1234(3)
O22A O 0.8859(3) 1.3492(8) -0.0404(3)
O23_2 O 1.0000 1.546(2) 0.0000
Na6_2 Na 1.0000 0.3379(7) 0.0000
C61 C 0.5236(5) 0.1619(11) 0.1503(4)
C62 C 0.5506(5) 0.0706(11) 0.1914(5)
H73 H 0.5928 0.0621 0.1909
C63 C 0.5191(5) -0.0068(12) 0.2321(5)
H74 H 0.5386 -0.0624 0.2612
C64 C 0.4564(5) -0.0001(13) 0.2289(5)
H75 H 0.4336 -0.0587 0.2544
C65 C 0.4261(5) 0.0903(11) 0.1895(5)
H76 H 0.3839 0.0978 0.1906
C66 C 0.4600(5) 0.1701(10) 0.1479(4)
C67 C 0.3733(4) 0.2726(15) 0.1011(6)
H77 H 0.3570 0.3168 0.1375
H78 H 0.3549 0.1792 0.0964
C68 C 0.3598(5) 0.3651(11) 0.0455(5)
H79 H 0.3175 0.3948 0.0451
H80 H 0.3856 0.4492 0.0450
C69 C 0.6383(5) 0.3498(11) 0.0608(5)
H81 H 0.6133 0.4350 0.0626
H82 H 0.6807 0.3779 0.0631
C70 C 0.6223(4) 0.2487(12) 0.1133(5)
H83 H 0.6406 0.1555 0.1077
H84 H 0.6351 0.2876 0.1521
C71 C 0.5237(5) -0.3425(11) -0.1500(4)
C72 C 0.5505(5) -0.4277(11) -0.1923(5)
H85 H 0.5927 -0.4294 -0.1955
C73 C 0.5152(5) -0.5135(13) -0.2317(6)
H86 H 0.5339 -0.5763 -0.2586
C74 C 0.4520(5) -0.5028(12) -0.2296(5)
H87 H 0.4274 -0.5579 -0.2547
C75 C 0.4277(5) -0.4085(11) -0.1893(5)
H88 H 0.3857 -0.3959 -0.1897
C76 C 0.5391(6) -0.3306(12) 0.1481(5)
C77 C 0.6259(4) -0.2245(12) 0.1023(5)
H89 H 0.6449 -0.3179 0.1006
H90 H 0.6406 -0.1751 0.1381
C78 C 0.6411(5) -0.1390(11) 0.0449(5)
H91 H 0.6170 -0.0524 0.0433
H92 H 0.6839 -0.1130 0.0446
C79 C 0.6390(5) -0.1478(11) -0.0579(4)
H93 H 0.6818 -0.1229 -0.0609
H94 H 0.6148 -0.0612 -0.0584
C80 C 0.6195(4) -0.2525(13) -0.1104(4)
H95 H 0.6338 -0.2181 -0.1495
H96 H 0.6357 -0.3474 -0.1035
O25 O 0.4386(3) 0.2593(8) 0.1058(3)
O26 O 0.3731(3) 0.2732(8) -0.0052(3)
O27 O 0.5564(3) 0.2415(8) 0.1090(3)
O28 O 0.5604(3) -0.2390(9) 0.1048(3)
O29 O 0.6274(3) -0.2288(6) -0.0058(3)
O30 O 0.5542(3) -0.2533(8) -0.1081(3)
O31 O 0.5000 0.040(2) 0.0000
O32 O 0.5000 0.453(2) 0.0000
Na7 Na 0.5000 0.2589(7) 0.0000
Na8 Na 0.5000 -0.2567(7) 0.0000
C61A C 0.4764(5) 0.1619(11) -0.1503(4)
C62A C 0.4494(5) 0.0706(11) -0.1914(5)
H73A H 0.4072 0.0621 -0.1909
C63A C 0.4809(5) -0.0068(12) -0.2321(5)
H74A H 0.4614 -0.0624 -0.2612
C64A C 0.5436(5) -0.0001(13) -0.2289(5)
H75A H 0.5664 -0.0587 -0.2544
C65A C 0.5739(5) 0.0903(11) -0.1895(5)
H76A H 0.6161 0.0978 -0.1906
C66A C 0.5400(5) 0.1701(10) -0.1479(4)
C67A C 0.6267(4) 0.2726(15) -0.1011(6)
H77A H 0.6430 0.3168 -0.1375
H78A H 0.6451 0.1792 -0.0964
C68A C 0.6402(5) 0.3651(11) -0.0455(5)
H79A H 0.6825 0.3948 -0.0451
H80A H 0.6144 0.4492 -0.0450
C69A C 0.3617(5) 0.3498(11) -0.0608(5)
H81A H 0.3867 0.4350 -0.0626
H82A H 0.3193 0.3779 -0.0631
C70A C 0.3777(4) 0.2487(12) -0.1133(5)
H83A H 0.3594 0.1555 -0.1077
H84A H 0.3649 0.2876 -0.1521
O25A O 0.5614(3) 0.2593(8) -0.1058(3)
O26A O 0.6269(3) 0.2732(8) 0.0052(3)
O27A O 0.4436(3) 0.2415(8) -0.1090(3)
C71A C 0.4763(5) -0.3425(11) 0.1500(4)
C72A C 0.4495(5) -0.4277(11) 0.1923(5)
H85A H 0.4073 -0.4294 0.1955
C73A C 0.4848(5) -0.5135(13) 0.2317(6)
H86A H 0.4661 -0.5763 0.2586
C74A C 0.5480(5) -0.5028(12) 0.2296(5)
H87A H 0.5726 -0.5579 0.2547
C75A C 0.5723(5) -0.4085(11) 0.1893(5)
H88A H 0.6143 -0.3959 0.1897
C76A C 0.4609(6) -0.3306(12) -0.1481(5)
C77A C 0.3741(4) -0.2245(12) -0.1023(5)
H89A H 0.3551 -0.3179 -0.1006
H90A H 0.3594 -0.1751 -0.1381
C78A C 0.3589(5) -0.1390(11) -0.0449(5)
H91A H 0.3830 -0.0524 -0.0433
H92A H 0.3161 -0.1130 -0.0446
C79A C 0.3610(5) -0.1478(11) 0.0579(4)
H93A H 0.3182 -0.1229 0.0609
H94A H 0.3852 -0.0612 0.0584
C80A C 0.3805(4) -0.2525(13) 0.1104(4)
H95A H 0.3662 -0.2181 0.1495
H96A H 0.3643 -0.3474 0.1035
O28A O 0.4396(3) -0.2390(9) -0.1048(3)
O29A O 0.3726(3) -0.2288(6) 0.0058(3)
O30A O 0.4458(3) -0.2533(8) 0.1081(3)
O32_2 O 0.5000 -0.547(2) 0.0000
Na8_2 Na 0.5000 0.7433(7) 0.0000
Br1 Br 0.74526(5) 0.41726(10) 0.27667(5)
I1 I 0.74959(5) 0.72168(14) 0.25063(4)
I2 I 0.75473(5) 1.02828(9) 0.22468(6)
Br2 Br 0.25472(5) 0.92236(10) 0.27637(5)
I3 I 0.25009(5) 1.22715(14) 0.25056(4)
I4 I 0.24526(5) 1.53298(10) 0.22436(6)
C1 C 0.3523(5) 0.0414(12) 0.5593(6)
C2 C 0.3154(5) -0.0239(11) 0.5989(5)
H1 H 0.3192 -0.0049 0.6403
C3 C 0.2728(5) -0.1172(11) 0.5795(5)
H2 H 0.2469 -0.1617 0.6070
C4 C 0.2684(5) -0.1466(13) 0.5152(5)
H3 H 0.2416 -0.2161 0.5012
C5 C 0.3056(5) -0.0678(12) 0.4730(5)
H4 H 0.3021 -0.0794 0.4311
C6 C 0.3470(4) 0.0262(9) 0.4985(5)
C7 C 0.3807(5) 0.0977(12) 0.3945(4)
H5 H 0.3859 0.0014 0.3791
H6 H 0.3400 0.1295 0.3842
C8 C 0.4254(5) 0.1921(12) 0.3666(5)
H7 H 0.4176 0.2006 0.3234
H8 H 0.4229 0.2864 0.3846
C9 C 0.4715(5) 0.2282(11) 0.6466(5)
H9 H 0.4721 0.3180 0.6246
H10 H 0.4782 0.2475 0.6894
C10 C 0.4112(5) 0.1532(12) 0.6374(4)
H11 H 0.4126 0.0600 0.6566
H12 H 0.3791 0.2081 0.6566
C11 C 0.6529(5) -0.4699(10) 0.4972(5)
C12 C 0.6944(5) -0.5742(12) 0.4698(5)
H13 H 0.6956 -0.5905 0.4282
C13 C 0.7335(5) -0.6505(13) 0.5120(5)
H14 H 0.7617 -0.7160 0.4972
C14 C 0.7290(5) -0.6257(12) 0.5764(5)
H15 H 0.7541 -0.6750 0.6032
C15 C 0.6861(5) -0.5255(11) 0.5987(5)
H16 H 0.6833 -0.5066 0.6401
C16 C 0.6475(4) -0.4546(12) 0.5568(6)
C17 C 0.5901(4) -0.3521(12) 0.6382(4)
H17 H 0.6225 -0.3004 0.6585
H18 H 0.5882 -0.4476 0.6552
C18 C 0.4676(5) -0.2792(12) 0.3525(5)
H19 H 0.4738 -0.2623 0.3094
H20 H 0.4669 -0.1875 0.3730
C19 C 0.5768(5) -0.3130(11) 0.3681(5)
H21 H 0.5854 -0.3078 0.3249
H22 H 0.5790 -0.2167 0.3842
C20 C 0.6213(6) -0.3946(16) 0.3956(6)
H23 H 0.6609 -0.3526 0.3875
H24 H 0.6210 -0.4898 0.3782
O1 O 0.3884(3) 0.0984(10) 0.4607(3)
O2 O 0.5170(3) 0.1350(6) 0.6238(3)
O3 O 0.3987(3) 0.1375(9) 0.5759(4)
O4 O 0.6017(3) -0.3592(9) 0.5759(3)
O5 O 0.5170(3) -0.3650(7) 0.3761(3)
O6 O 0.6123(3) -0.4041(9) 0.4598(3)
O7 O 0.5000 -0.187(2) 0.5000
O8 O 0.5000 0.377(2) 0.5000
Na1 Na 0.5000 0.1330(7) 0.5000
Na2 Na 0.5000 -0.3772(7) 0.5000
C1A C 0.6477(5) 0.0414(12) 0.4407(6)
C2A C 0.6846(5) -0.0239(11) 0.4011(5)
H1A H 0.6808 -0.0049 0.3597
C3A C 0.7272(5) -0.1172(11) 0.4205(5)
H2A H 0.7531 -0.1617 0.3930
C4A C 0.7316(5) -0.1466(13) 0.4848(5)
H3A H 0.7584 -0.2161 0.4988
C5A C 0.6944(5) -0.0678(12) 0.5270(5)
H4A H 0.6979 -0.0794 0.5689
C6A C 0.6530(4) 0.0262(9) 0.5015(5)
C7A C 0.6193(5) 0.0977(12) 0.6055(4)
H5A H 0.6141 0.0014 0.6209
H6A H 0.6600 0.1295 0.6158
C8A C 0.5746(5) 0.1921(12) 0.6334(5)
H7A H 0.5824 0.2006 0.6766
H8A H 0.5771 0.2864 0.6154
C9A C 0.5285(5) 0.2282(11) 0.3534(5)
H9A H 0.5279 0.3180 0.3754
H10A H 0.5218 0.2475 0.3106
C10A C 0.5888(5) 0.1532(12) 0.3626(4)
H11A H 0.5874 0.0600 0.3434
H12A H 0.6209 0.2081 0.3434
O1A O 0.6116(3) 0.0984(10) 0.5393(3)
O2A O 0.4830(3) 0.1350(6) 0.3762(3)
O3A O 0.6013(3) 0.1375(9) 0.4241(4)
C11A C 0.3471(5) -0.4699(10) 0.5028(5)
C12A C 0.3056(5) -0.5742(12) 0.5302(5)
H13A H 0.3044 -0.5905 0.5718
C13A C 0.2665(5) -0.6505(13) 0.4880(5)
H14A H 0.2383 -0.7160 0.5028
C14A C 0.2710(5) -0.6257(12) 0.4236(5)
H15A H 0.2459 -0.6750 0.3968
C15A C 0.3139(5) -0.5255(11) 0.4013(5)
H16A H 0.3167 -0.5066 0.3599
C16A C 0.3525(4) -0.4546(12) 0.4432(6)
C17A C 0.4099(4) -0.3521(12) 0.3618(4)
H17A H 0.3775 -0.3004 0.3415
H18A H 0.4118 -0.4476 0.3448
C18A C 0.5324(5) -0.2792(12) 0.6475(5)
H19A H 0.5262 -0.2623 0.6906
H20A H 0.5331 -0.1875 0.6270
C19A C 0.4232(5) -0.3130(11) 0.6319(5)
H21A H 0.4146 -0.3078 0.6751
H22A H 0.4210 -0.2167 0.6158
C20A C 0.3787(6) -0.3946(16) 0.6044(6)
H23A H 0.3391 -0.3526 0.6125
H24A H 0.3790 -0.4898 0.6218
O4A O 0.3983(3) -0.3592(9) 0.4241(3)
O5A O 0.4830(3) -0.3650(7) 0.6239(3)
O6A O 0.3877(3) -0.4041(9) 0.5402(3)
O8_2 O 0.5000 -0.623(2) 0.5000
Na2_2 Na 0.5000 0.6228(7) 0.5000
loop_
_geom_bond_atom_site_label_1
_geom_bond_atom_site_label_2
_geom_bond_site_symmetry_1
_geom_bond_site_symmetry_2
C1 C2 1_555 1_555
C2 H1 1_555 1_555
C3 C2 1_555 1_555
H2 C3 1_555 1_555
C4 C3 1_555 1_555
H3 C4 1_555 1_555
C5 C4 1_555 1_555
H4 C5 1_555 1_555
C6 C1 1_555 1_555
C7 H5 1_555 1_555
H6 C7 1_555 1_555
C8 C7 1_555 1_555
H7 C8 1_555 1_555
H8 C8 1_555 1_555
C9 H9 1_555 1_555
H10 C9 1_555 1_555
C10 C9 1_555 1_555
H11 C10 1_555 1_555
H12 C10 1_555 1_555
C11 C12 1_555 1_555
C12 H13 1_555 1_555
C13 C12 1_555 1_555
H14 C13 1_555 1_555
C14 C13 1_555 1_555
H15 C14 1_555 1_555
C15 C14 1_555 1_555
H16 C15 1_555 1_555
C16 C11 1_555 1_555
C17 H17 1_555 1_555
H18 C17 1_555 1_555
C18 H19 1_555 1_555
H20 C18 1_555 1_555
C19 H21 1_555 1_555
H22 C19 1_555 1_555
C20 C19 1_555 1_555
H23 C20 1_555 1_555
H24 C20 1_555 1_555
O1 C6 1_555 1_555
O2 C9 1_555 1_555
O3 C1 1_555 1_555
O4 C16 1_555 1_555
O5 C18 1_555 1_555
O6 C11 1_555 1_555
O7 Na1 1_555 1_555
O8 Na1 1_555 1_555
Na1 O1 1_555 1_555
Na2 O4 1_555 1_555
C21 C22 1_555 1_555
C22 H25 1_555 1_555
C23 C22 1_555 1_555
H26 C23 1_555 1_555
C24 C23 1_555 1_555
H27 C24 1_555 1_555
C25 C24 1_555 1_555
H28 C25 1_555 1_555
C26 C21 1_555 1_555
C27 H29 1_555 1_555
H30 C27 1_555 1_555
C28 C27 1_555 1_555
H31 C28 1_555 1_555
H32 C28 1_555 1_555
C29 H33 1_555 1_555
H34 C29 1_555 1_555
C30 C29 1_555 1_555
H35 C30 1_555 1_555
H36 C30 1_555 1_555
C31 C32 1_555 1_555
C32 H37 1_555 1_555
C33 C32 1_555 1_555
H38 C33 1_555 1_555
C34 C33 1_555 1_555
H39 C34 1_555 1_555
C35 C34 1_555 1_555
H40 C35 1_555 1_555
C36 O12 1_555 1_555
C37 H41 1_555 1_555
H42 C37 1_555 1_555
C38 C37 1_555 1_555
H43 C38 1_555 1_555
H44 C38 1_555 1_555
C39 H45 1_555 1_555
H46 C39 1_555 1_555
C40 C39 1_555 1_555
H47 C40 1_555 1_555
H48 C40 1_555 1_555
O9 C26 1_555 1_555
O10 C28 1_555 1_555
O11 C21 1_555 1_555
O12 C37 1_555 1_555
O13 C38 1_555 1_555
O14 C31 1_555 1_555
O15 Na3 1_555 1_555
O16 Na3 1_555 1_555
Na3 O9 1_555 1_555
Na4 O12 1_555 1_555
C41 C42 1_555 1_555
C42 H49 1_555 1_555
C43 C42 1_555 1_555
H50 C43 1_555 1_555
C44 C43 1_555 1_555
H51 C44 1_555 1_555
C45 C44 1_555 1_555
H52 C45 1_555 1_555
C46 C41 1_555 1_555
C47 H53 1_555 1_555
H54 C47 1_555 1_555
C48 C47 1_555 1_555
H55 C48 1_555 1_555
H56 C48 1_555 1_555
C49 H57 1_555 1_555
H58 C49 1_555 1_555
C50 C49 1_555 1_555
H59 C50 1_555 1_555
H60 C50 1_555 1_555
C51 C52 1_555 1_555
C52 H61 1_555 1_555
C53 C52 1_555 1_555
H62 C53 1_555 1_555
C54 C53 1_555 1_555
H63 C54 1_555 1_555
C55 C54 1_555 1_555
H64 C55 1_555 1_555
C56 O20 1_555 1_555
C57 H65 1_555 1_555
H66 C57 1_555 1_555
C58 C57 1_555 1_555
H67 C58 1_555 1_555
H68 C58 1_555 1_555
C59 H69 1_555 1_555
H70 C59 1_555 1_555
C60 C59 1_555 1_555
H71 C60 1_555 1_555
H72 C60 1_555 1_555
O17 C46 1_555 1_555
O18 C48 1_555 1_555
O19 C41 1_555 1_555
O20 C57 1_555 1_555
O21 C58 1_555 1_555
O22 C51 1_555 1_555
O23 Na5 1_555 1_555
O24 Na5 1_555 1_555
Na5 O17 1_555 1_555
Na6 O20 1_555 1_555
C61 C62 1_555 1_555
C62 H73 1_555 1_555
C63 C62 1_555 1_555
H74 C63 1_555 1_555
C64 C63 1_555 1_555
H75 C64 1_555 1_555
C65 C64 1_555 1_555
H76 C65 1_555 1_555
C66 C61 1_555 1_555
C67 H77 1_555 1_555
H78 C67 1_555 1_555
C68 C67 1_555 1_555
H79 C68 1_555 1_555
H80 C68 1_555 1_555
C69 H81 1_555 1_555
H82 C69 1_555 1_555
C70 C69 1_555 1_555
H83 C70 1_555 1_555
H84 C70 1_555 1_555
C71 C72 1_555 1_555
C72 H85 1_555 1_555
C73 C72 1_555 1_555
H86 C73 1_555 1_555
C74 C73 1_555 1_555
H87 C74 1_555 1_555
C75 C74 1_555 1_555
H88 C75 1_555 1_555
C76 O28 1_555 1_555
C77 H89 1_555 1_555
H90 C77 1_555 1_555
C78 C77 1_555 1_555
H91 C78 1_555 1_555
H92 C78 1_555 1_555
C79 H93 1_555 1_555
H94 C79 1_555 1_555
C80 C79 1_555 1_555
H95 C80 1_555 1_555
H96 C80 1_555 1_555
O25 C66 1_555 1_555
O26 C68 1_555 1_555
O27 C61 1_555 1_555
O28 C77 1_555 1_555
O29 C78 1_555 1_555
O30 C71 1_555 1_555
O31 Na7 1_555 1_555
O32 Na7 1_555 1_555
Na7 O25 1_555 1_555
Na8 O28 1_555 1_555
Br1 I1 1_555 1_555
I1 I2 1_555 1_555
Br2 I3 1_555 1_555
I3 I4 1_555 1_555
C1A C2A 1_555 1_555
C2A H1A 1_555 1_555
C3A C2A 1_555 1_555
H2A C3A 1_555 1_555
C4A C3A 1_555 1_555
H3A C4A 1_555 1_555
C5A C4A 1_555 1_555
H4A C5A 1_555 1_555
C6A C1A 1_555 1_555
C7A H5A 1_555 1_555
H6A C7A 1_555 1_555
C8A O2 1_555 1_555
H7A C8A 1_555 1_555
H8A C8A 1_555 1_555
C9A H9A 1_555 1_555
H10A C9A 1_555 1_555
C10A C9A 1_555 1_555
H11A C10A 1_555 1_555
H12A C10A 1_555 1_555
O1A Na1 1_555 1_555
O2A C8 1_555 1_555
O3A Na1 1_555 1_555
C11A C12A 1_555 1_555
C12A H13A 1_555 1_555
C13A C12A 1_555 1_555
H14A C13A 1_555 1_555
C14A C13A 1_555 1_555
H15A C14A 1_555 1_555
C15A C14A 1_555 1_555
H16A C15A 1_555 1_555
C16A C11A 1_555 1_555
C17A C18 1_555 1_555
H17A C17A 1_555 1_555
H18A C17A 1_555 1_555
C18A C17 1_555 1_555
H19A C18A 1_555 1_555
H20A C18A 1_555 1_555
C19A H21A 1_555 1_555
H22A C19A 1_555 1_555
C20A C19A 1_555 1_555
H23A C20A 1_555 1_555
H24A C20A 1_555 1_555
O4A Na2 1_555 1_555
O5A Na2 1_555 1_555
O6A Na2 1_555 1_555
O8_2 Na2 1_555 1_555
Na2_2 O8 1_555 1_555
C21A C22A 1_555 1_555
C22A H25A 1_555 1_555
C23A C22A 1_555 1_555
H26A C23A 1_555 1_555
C24A C23A 1_555 1_555
H27A C24A 1_555 1_555
C25A C24A 1_555 1_555
H28A C25A 1_555 1_555
C26A C21A 1_555 1_555
C27A H29A 1_555 1_555
H30A C27A 1_555 1_555
C28A C27A 1_555 1_555
H31A C28A 1_555 1_555
H32A C28A 1_555 1_555
C29A O10 1_555 1_555
H33A C29A 1_555 1_555
H34A C29A 1_555 1_555
C30A C29A 1_555 1_555
H35A C30A 1_555 1_555
H36A C30A 1_555 1_555
O9A Na3 1_555 1_555
O10A C29 1_555 1_555
O11A Na3 1_555 1_555
C31A C36 1_555 1_555
C32A C31A 1_555 1_555
H37A C32A 1_555 1_555
C33A C32A 1_555 1_555
H38A C33A 1_555 1_555
C34A C33A 1_555 1_555
H39A C34A 1_555 1_555
C35A C36 1_555 1_555
H40A C35A 1_555 1_555
C36A C31 1_555 1_555
C37A H41A 1_555 1_555
H42A C37A 1_555 1_555
C38A C37A 1_555 1_555
H43A C38A 1_555 1_555
H44A C38A 1_555 1_555
C39A H45A 1_555 1_555
H46A C39A 1_555 1_555
C40A C39A 1_555 1_555
H47A C40A 1_555 1_555
H48A C40A 1_555 1_555
O12A Na4 1_555 1_555
O13A Na4 1_555 1_555
O14A Na4 1_555 1_555
O16_2 Na4 1_555 1_555
Na4_2 O16 1_555 1_555
C41A C42A 1_555 1_555
C42A H49A 1_555 1_555
C43A C42A 1_555 1_555
H50A C43A 1_555 1_555
C44A C43A 1_555 1_555
H51A C44A 1_555 1_555
C45A C44A 1_555 1_555
H52A C45A 1_555 1_555
C46A C41A 1_555 1_555
C47A H53A 1_555 1_555
H54A C47A 1_555 1_555
C48A C47A 1_555 1_555
H55A C48A 1_555 1_555
H56A C48A 1_555 1_555
C49A O18 1_555 1_555
H57A C49A 1_555 1_555
H58A C49A 1_555 1_555
C50A C49A 1_555 1_555
H59A C50A 1_555 1_555
H60A C50A 1_555 1_555
O17A Na5 1_555 1_555
O18A C49 1_555 1_555
O19A Na5 1_555 1_555
C51A C56 1_555 1_555
C52A C51A 1_555 1_555
H61A C52A 1_555 1_555
C53A C52A 1_555 1_555
H62A C53A 1_555 1_555
C54A C53A 1_555 1_555
H63A C54A 1_555 1_555
C55A C56 1_555 1_555
H64A C55A 1_555 1_555
C56A C51 1_555 1_555
C57A H65A 1_555 1_555
H66A C57A 1_555 1_555
C58A C57A 1_555 1_555
H67A C58A 1_555 1_555
H68A C58A 1_555 1_555
C59A H69A 1_555 1_555
H70A C59A 1_555 1_555
C60A C59A 1_555 1_555
H71A C60A 1_555 1_555
H72A C60A 1_555 1_555
O20A Na6 1_555 1_555
O21A Na6 1_555 1_555
O22A Na6 1_555 1_555
O23_2 Na6 1_555 1_555
Na6_2 O23 1_555 1_555
C61A C62A 1_555 1_555
C62A H73A 1_555 1_555
C63A C62A 1_555 1_555
H74A C63A 1_555 1_555
C64A C63A 1_555 1_555
H75A C64A 1_555 1_555
C65A C64A 1_555 1_555
H76A C65A 1_555 1_555
C66A C61A 1_555 1_555
C67A H77A 1_555 1_555
H78A C67A 1_555 1_555
C68A C67A 1_555 1_555
H79A C68A 1_555 1_555
H80A C68A 1_555 1_555
C69A O26 1_555 1_555
H81A C69A 1_555 1_555
H82A C69A 1_555 1_555
C70A C69A 1_555 1_555
H83A C70A 1_555 1_555
H84A C70A 1_555 1_555
O25A Na7 1_555 1_555
O26A C69 1_555 1_555
O27A Na7 1_555 1_555
C71A C76 1_555 1_555
C72A C71A 1_555 1_555
H85A C72A 1_555 1_555
C73A C72A 1_555 1_555
H86A C73A 1_555 1_555
C74A C73A 1_555 1_555
H87A C74A 1_555 1_555
C75A C76 1_555 1_555
H88A C75A 1_555 1_555
C76A C71 1_555 1_555
C77A H89A 1_555 1_555
H90A C77A 1_555 1_555
C78A C77A 1_555 1_555
H91A C78A 1_555 1_555
H92A C78A 1_555 1_555
C79A H93A 1_555 1_555
H94A C79A 1_555 1_555
C80A C79A 1_555 1_555
H95A C80A 1_555 1_555
H96A C80A 1_555 1_555
O28A Na8 1_555 1_555
O29A Na8 1_555 1_555
O30A Na8 1_555 1_555
O32_2 Na8 1_555 1_555
Na8_2 O32 1_555 1_555
C5 C6 1_555 1_555
C7 O1 1_555 1_555
C10 O3 1_555 1_555
C15 C16 1_555 1_555
C17 O4 1_555 1_555
C19 O5 1_555 1_555
C20 O6 1_555 1_555
O2 Na1 1_555 1_555
O3 Na1 1_555 1_555
O5 Na2 1_555 1_555
O6 Na2 1_555 1_555
O7 Na2 1_555 1_555
Na1 O2A 1_555 1_555
C25 C26 1_555 1_555
C27 O9 1_555 1_555
C30 O11 1_555 1_555
C35 C36A 1_555 1_555
C39 O13 1_555 1_555
C40 O14 1_555 1_555
O10 Na3 1_555 1_555
O11 Na3 1_555 1_555
O13 Na4 1_555 1_555
O14 Na4 1_555 1_555
O15 Na4 1_555 1_555
Na3 O10A 1_555 1_555
C45 C46 1_555 1_555
C47 O17 1_555 1_555
C50 O19 1_555 1_555
C55 C56A 1_555 1_555
C59 O21 1_555 1_555
C60 O22 1_555 1_555
O18 Na5 1_555 1_555
O19 Na5 1_555 1_555
O21 Na6 1_555 1_555
O22 Na6 1_555 1_555
O24 Na6 1_555 1_555
Na5 O18A 1_555 1_555
C65 C66 1_555 1_555
C67 O25 1_555 1_555
C70 O27 1_555 1_555
C75 C76A 1_555 1_555
C79 O29 1_555 1_555
C80 O30 1_555 1_555
O26 Na7 1_555 1_555
O27 Na7 1_555 1_555
O29 Na8 1_555 1_555
O30 Na8 1_555 1_555
O31 Na8 1_555 1_555
Na7 O26A 1_555 1_555
C1A O3A 1_555 1_555
C5A C6A 1_555 1_555
C6A O1A 1_555 1_555
C7A C8A 1_555 1_555
C7A O1A 1_555 1_555
C9A O2A 1_555 1_555
C10A O3A 1_555 1_555
C11A O6A 1_555 1_555
C15A C16A 1_555 1_555
C16A O4A 1_555 1_555
C17A O4A 1_555 1_555
C18A O5A 1_555 1_555
C19A O5A 1_555 1_555
C20A O6A 1_555 1_555
C21A O11A 1_555 1_555
C25A C26A 1_555 1_555
C26A O9A 1_555 1_555
C27A O9A 1_555 1_555
C28A O10A 1_555 1_555
C30A O11A 1_555 1_555
C31A O14A 1_555 1_555
C34A C35A 1_555 1_555
C36A O12A 1_555 1_555
C37A O12A 1_555 1_555
C38A O13A 1_555 1_555
C39A O13A 1_555 1_555
C40A O14A 1_555 1_555
C41A O19A 1_555 1_555
C45A C46A 1_555 1_555
C46A O17A 1_555 1_555
C47A O17A 1_555 1_555
C48A O18A 1_555 1_555
C50A O19A 1_555 1_555
C51A O22A 1_555 1_555
C54A C55A 1_555 1_555
C56A O20A 1_555 1_555
C57A O20A 1_555 1_555
C58A O21A 1_555 1_555
C59A O21A 1_555 1_555
C60A O22A 1_555 1_555
C61A O27A 1_555 1_555
C65A C66A 1_555 1_555
C66A O25A 1_555 1_555
C67A O25A 1_555 1_555
C68A O26A 1_555 1_555
C70A O27A 1_555 1_555
C71A O30A 1_555 1_555
C74A C75A 1_555 1_555
C76A O28A 1_555 1_555
C77A O28A 1_555 1_555
C78A O29A 1_555 1_555
C79A O29A 1_555 1_555
C80A O30A 1_555 1_555

#END
