
#######################################################################
#
#                 Cambridge Crystallographic Data Centre
#                                CCDC 
#
#######################################################################
#
# If this CIF has been generated from an entry in the Cambridge 
# Structural Database, then it will include bibliographic, chemical, 
# crystal, experimental, refinement or atomic coordinate data resulting 
# from the CCDC's data processing and validation procedures.
#
#######################################################################

data_XIHBIB
_symmetry_cell_setting           monoclinic
_symmetry_space_group_name_H-M   'P 2'
_symmetry_Int_Tables_number      3
_space_group_name_Hall           'P 2y'
loop_
_symmetry_equiv_pos_site_id
_symmetry_equiv_pos_as_xyz
1 x,y,z
2 -x,y,-z
_cell_length_a                   21.9848(7)
_cell_length_b                   9.3733(2)
_cell_length_c                   22.0038(7)
_cell_angle_alpha                90
_cell_angle_beta                 89.995(2)
_cell_angle_gamma                90
_cell_volume                     4534.33
loop_
_atom_site_label
_atom_site_type_symbol
_atom_site_fract_x
_atom_site_fract_y
_atom_site_fract_z
K1 K 0.5000 -0.4312(16) 0.5000
K2 K 0.5000 0.0629(16) 0.5000
O1 O 0.6120(5) -0.4544(19) 0.5385(4)
O2 O 0.5171(5) -0.421(2) 0.6230(4)
O3 O 0.6012(5) -0.416(2) 0.4246(5)
O4 O 0.6118(5) 0.048(2) 0.4602(4)
O5 O 0.5161(5) 0.079(2) 0.3759(4)
O6 O 0.3989(5) 0.085(2) 0.4250(5)
O7 O 0.5000 -0.2532 0.5000
O8 O 0.5000 0.330(3) 0.5000
C1 C 0.6472(7) -0.510(2) 0.4409(8)
C2 C 0.6844(7) -0.582(2) 0.4001(8)
H1 H 0.6829 -0.5638 0.3585
C3 C 0.7279(7) -0.692(2) 0.4267(7)
H2 H 0.7504 -0.7542 0.4025
C4 C 0.7314(7) -0.694(2) 0.4855(8)
H3 H 0.7627 -0.7488 0.5018
C5 C 0.6951(7) -0.626(2) 0.5268(8)
H4 H 0.6995 -0.6412 0.5684
C6 C 0.6515(8) -0.534(2) 0.5042(8)
C7 C 0.6221(7) -0.466(2) 0.6049(8)
H5 H 0.6630 -0.4369 0.6155
H6 H 0.6158 -0.5635 0.6186
C8 C 0.5749(7) -0.366(2) 0.6329(8)
H7 H 0.5823 -0.3563 0.6762
H8 H 0.5782 -0.2720 0.6146
C9 C 0.4683(7) -0.333(2) 0.6473(8)
H9 H 0.4674 -0.2421 0.6264
H10 H 0.4753 -0.3155 0.6902
C10 C 0.4105(7) -0.406(2) 0.6391(7)
H11 H 0.4123 -0.5008 0.6569
H12 H 0.3782 -0.3533 0.6589
C11 C 0.6473(7) -0.011(2) 0.5587(8)
C12 C 0.6851(7) -0.082(2) 0.5979(8)
H13 H 0.6836 -0.0648 0.6394
C13 C 0.7292(7) -0.189(2) 0.5719(7)
H14 H 0.7532 -0.2463 0.5966
C14 C 0.7317(7) -0.195(2) 0.5130(8)
H15 H 0.7608 -0.2555 0.4962
C15 C 0.6966(7) -0.124(2) 0.4748(8)
H16 H 0.7010 -0.1366 0.4332
C16 C 0.6540(7) -0.031(2) 0.4963(8)
C17 C 0.6217(7) 0.039(2) 0.3934(8)
H17 H 0.6153 -0.0577 0.3789
H18 H 0.6626 0.0685 0.3829
C18 C 0.5750(7) 0.140(2) 0.3668(8)
H19 H 0.5776 0.2320 0.3866
H20 H 0.5826 0.1530 0.3237
C19 C 0.4736(7) 0.171(2) 0.3513(7)
H21 H 0.4816 0.1862 0.3084
H22 H 0.4743 0.2620 0.3720
C20 C 0.4088(8) 0.093(2) 0.3607(7)
H23 H 0.3767 0.1471 0.3414
H24 H 0.4096 -0.0021 0.3431
O1A O 0.3880(5) -0.4544(19) 0.4615(4)
O2A O 0.4829(5) -0.421(2) 0.3770(4)
O3A O 0.3988(5) -0.416(2) 0.5754(5)
C1A C 0.3528(7) -0.510(2) 0.5591(8)
C2A C 0.3156(7) -0.582(2) 0.5999(8)
H1A H 0.3171 -0.5638 0.6415
C3A C 0.2721(7) -0.692(2) 0.5733(7)
H2A H 0.2496 -0.7542 0.5975
C4A C 0.2686(7) -0.694(2) 0.5145(8)
H3A H 0.2373 -0.7488 0.4982
C5A C 0.3049(7) -0.626(2) 0.4732(8)
H4A H 0.3005 -0.6412 0.4316
C6A C 0.3485(8) -0.534(2) 0.4958(8)
C7A C 0.3779(7) -0.466(2) 0.3951(8)
H5A H 0.3370 -0.4369 0.3845
H6A H 0.3842 -0.5635 0.3814
C8A C 0.4251(7) -0.366(2) 0.3671(8)
H7A H 0.4177 -0.3563 0.3238
H8A H 0.4218 -0.2720 0.3854
C9A C 0.5317(7) -0.333(2) 0.3527(8)
H9A H 0.5326 -0.2421 0.3736
H10A H 0.5247 -0.3155 0.3098
C10A C 0.5895(7) -0.406(2) 0.3609(7)
H11A H 0.5877 -0.5008 0.3431
H12A H 0.6218 -0.3533 0.3411
O4A O 0.3882(5) 0.048(2) 0.5398(4)
O5A O 0.4839(5) 0.079(2) 0.6241(4)
O6A O 0.6011(5) 0.085(2) 0.5750(5)
C11A C 0.3527(7) -0.011(2) 0.4413(8)
C12A C 0.3149(7) -0.082(2) 0.4021(8)
H13A H 0.3164 -0.0648 0.3606
C13A C 0.2708(7) -0.189(2) 0.4281(7)
H14A H 0.2468 -0.2463 0.4034
C14A C 0.2683(7) -0.195(2) 0.4870(8)
H15A H 0.2392 -0.2555 0.5038
C15A C 0.3034(7) -0.124(2) 0.5252(8)
H16A H 0.2990 -0.1366 0.5668
C16A C 0.3460(7) -0.031(2) 0.5037(8)
C17A C 0.3783(7) 0.039(2) 0.6066(8)
H17A H 0.3847 -0.0577 0.6211
H18A H 0.3374 0.0685 0.6171
C18A C 0.4250(7) 0.140(2) 0.6332(8)
H19A H 0.4224 0.2320 0.6134
H20A H 0.4174 0.1530 0.6763
C19A C 0.5264(7) 0.171(2) 0.6487(7)
H21A H 0.5184 0.1862 0.6916
H22A H 0.5257 0.2620 0.6280
C20A C 0.5912(8) 0.093(2) 0.6393(7)
H23A H 0.6233 0.1471 0.6586
H24A H 0.5904 -0.0021 0.6569
K1_2 K 0.5000 0.5688(16) 0.5000
O8_2 O 0.5000 -0.670(3) 0.5000
K3 K 1.0000 0.1390(17) 0.5000
O9 O 0.9372(5) 0.133(2) 0.3940(5)
O10 O 1.0556(5) 0.150(2) 0.3907(4)
O11 O 1.1277(5) 0.126(2) 0.4936(5)
O12 O 1.0000 -0.165(3) 0.5000
O13 O 1.0000 0.446(2) 0.5000
C21 C 0.9587(8) 0.227(2) 0.3511(7)
C22 C 0.9279(8) 0.303(2) 0.3097(7)
H25 H 0.8858 0.2953 0.3074
C23 C 0.9593(8) 0.397(2) 0.2689(8)
H26 H 0.9375 0.4552 0.2424
C24 C 1.0141(8) 0.400(2) 0.2691(7)
H27 H 1.0329 0.4603 0.2411
C25 C 1.0505(8) 0.325(2) 0.3065(7)
H28 H 1.0925 0.3311 0.3019
C26 C 1.0277(8) 0.241(2) 0.3501(7)
C27 C 1.1199(8) 0.139(2) 0.3894(7)
H29 H 1.1380 0.2329 0.3950
H30 H 1.1332 0.1017 0.3506
C28 C 1.1385(8) 0.045(2) 0.4382(7)
H31 H 1.1812 0.0199 0.4343
H32 H 1.1145 -0.0420 0.4379
C29 C 1.1416(8) 0.036(2) 0.5452(7)
H33 H 1.1842 0.0093 0.5449
H34 H 1.1172 -0.0502 0.5439
C30 C 1.1270(8) 0.121(2) 0.6013(7)
H35 H 1.1432 0.0737 0.6370
H36 H 1.1452 0.2152 0.5985
O9A O 1.0628(5) 0.133(2) 0.6060(5)
O10A O 0.9444(5) 0.150(2) 0.6093(4)
O11A O 0.8723(5) 0.126(2) 0.5064(5)
C21A C 1.0413(8) 0.227(2) 0.6489(7)
C22A C 1.0721(8) 0.303(2) 0.6903(7)
H25A H 1.1142 0.2953 0.6926
C23A C 1.0407(8) 0.397(2) 0.7311(8)
H26A H 1.0625 0.4552 0.7576
C24A C 0.9859(8) 0.400(2) 0.7309(7)
H27A H 0.9671 0.4603 0.7589
C25A C 0.9495(8) 0.325(2) 0.6935(7)
H28A H 0.9075 0.3311 0.6981
C26A C 0.9723(8) 0.241(2) 0.6499(7)
C27A C 0.8801(8) 0.139(2) 0.6106(7)
H29A H 0.8620 0.2329 0.6050
H30A H 0.8668 0.1017 0.6494
C28A C 0.8615(8) 0.045(2) 0.5618(7)
H31A H 0.8188 0.0199 0.5657
H32A H 0.8855 -0.0420 0.5621
C29A C 0.8584(8) 0.036(2) 0.4548(7)
H33A H 0.8158 0.0093 0.4551
H34A H 0.8828 -0.0502 0.4561
C30A C 0.8730(8) 0.121(2) 0.3987(7)
H35A H 0.8568 0.0737 0.3630
H36A H 0.8548 0.2152 0.4015
K4 K 0.5000 0.6951(16) 0.0000
O14 O 0.5550(5) 0.691(2) 0.1106(5)
O15 O 0.6270(5) 0.719(2) 0.0059(5)
O16 O 0.4377(5) 0.704(2) 0.1062(5)
O17 O 0.5000 0.408(2) 0.0000
O18 O 0.5000 0.994(3) 0.0000
C31 C 0.4588(7) 0.613(2) 0.1482(7)
C32 C 0.4261(7) 0.532(2) 0.1882(7)
H37 H 0.3839 0.5410 0.1881
C33 C 0.4506(7) 0.441(2) 0.2272(7)
H38 H 0.4257 0.3871 0.2525
C34 C 0.5167(8) 0.426(2) 0.2308(8)
H39 H 0.5345 0.3617 0.2578
C35 C 0.5534(7) 0.512(2) 0.1912(7)
H40 H 0.5956 0.5104 0.1938
C36 C 0.5255(7) 0.597(2) 0.1502(7)
C37 C 0.6174(7) 0.689(2) 0.1142(7)
H41 H 0.6328 0.5923 0.1090
H42 H 0.6311 0.7248 0.1532
C38 C 0.6391(7) 0.785(2) 0.0625(7)
H43 H 0.6182 0.8764 0.0646
H44 H 0.6824 0.8028 0.0664
C39 C 0.6410(7) 0.803(3) -0.0436(7)
H45 H 0.6838 0.8280 -0.0431
H46 H 0.6172 0.8899 -0.0430
C40 C 0.6257(7) 0.713(2) -0.1022(7)
H47 H 0.6423 0.7591 -0.1380
H48 H 0.6432 0.6182 -0.0990
O14A O 0.4450(5) 0.691(2) -0.1106(5)
O15A O 0.3730(5) 0.719(2) -0.0059(5)
O16A O 0.5623(5) 0.704(2) -0.1062(5)
C31A C 0.5412(7) 0.613(2) -0.1482(7)
C32A C 0.5739(7) 0.532(2) -0.1882(7)
H37A H 0.6161 0.5410 -0.1881
C33A C 0.5494(7) 0.441(2) -0.2272(7)
H38A H 0.5743 0.3871 -0.2525
C34A C 0.4833(8) 0.426(2) -0.2308(8)
H39A H 0.4655 0.3617 -0.2578
C35A C 0.4466(7) 0.512(2) -0.1912(7)
H40A H 0.4044 0.5104 -0.1938
C36A C 0.4745(7) 0.597(2) -0.1502(7)
C37A C 0.3826(7) 0.689(2) -0.1142(7)
H41A H 0.3672 0.5923 -0.1090
H42A H 0.3689 0.7248 -0.1532
C38A C 0.3609(7) 0.785(2) -0.0625(7)
H43A H 0.3818 0.8764 -0.0646
H44A H 0.3176 0.8028 -0.0664
C39A C 0.3590(7) 0.803(3) 0.0436(7)
H45A H 0.3162 0.8280 0.0431
H46A H 0.3828 0.8899 0.0430
C40A C 0.3743(7) 0.713(2) 0.1022(7)
H47A H 0.3577 0.7591 0.1380
H48A H 0.3568 0.6182 0.0990
Br1 Br 0.75436(9) 0.9746(15) 0.77593(9)
Br2 Br 0.74475(9) 0.3643(15) 0.72418(9)
I1 I 0.75045(7) 0.6669(16) 0.75023(6)
Br3 Br 0.75547(9) 1.4760(15) 0.22383(10)
Br4 Br 0.74571(9) 0.8654(15) 0.27557(9)
I2 I 0.74983(7) 1.1682(16) 0.24915(6)
O19 O 0.9456(5) 0.655(2) 0.3916(4)
O20 O 0.8743(5) 0.626(2) 0.4948(5)
O21 O 1.0611(5) 0.635(2) 0.3948(4)
C41 C 1.0378(8) 0.724(2) 0.3504(7)
C42 C 1.0733(8) 0.801(2) 0.3097(7)
H49 H 1.1155 0.7942 0.3083
C43 C 1.0385(8) 0.895(2) 0.2693(7)
H50 H 1.0598 0.9519 0.2420
C44 C 0.9833(8) 0.902(2) 0.2695(8)
H51 H 0.9636 0.9639 0.2429
C45 C 0.9506(7) 0.822(2) 0.3080(7)
H52 H 0.9085 0.8279 0.3058
C46 C 0.9757(7) 0.732(2) 0.3504(7)
C47 C 0.8807(7) 0.637(2) 0.3889(7)
H53 H 0.8697 0.5919 0.3507
H54 H 0.8609 0.7290 0.3907
C48 C 0.8599(7) 0.549(2) 0.4388(7)
H55 H 0.8805 0.4572 0.4383
H56 H 0.8165 0.5326 0.4357
C49 C 0.8579(7) 0.537(2) 0.5471(7)
H57 H 0.8806 0.4482 0.5461
H58 H 0.8148 0.5145 0.5461
C50 C 0.8727(7) 0.617(2) 0.6026(7)
H59 H 0.8530 0.7100 0.6017
H60 H 0.8585 0.5661 0.6382
O19A O 1.0544(5) 0.655(2) 0.6084(4)
O20A O 1.1257(5) 0.626(2) 0.5052(5)
O21A O 0.9389(5) 0.635(2) 0.6052(4)
C41A C 0.9622(8) 0.724(2) 0.6496(7)
C42A C 0.9267(8) 0.801(2) 0.6903(7)
H49A H 0.8845 0.7942 0.6917
C43A C 0.9615(8) 0.895(2) 0.7307(7)
H50A H 0.9402 0.9519 0.7580
C44A C 1.0167(8) 0.902(2) 0.7305(8)
H51A H 1.0364 0.9639 0.7571
C45A C 1.0494(7) 0.822(2) 0.6920(7)
H52A H 1.0915 0.8279 0.6942
C46A C 1.0243(7) 0.732(2) 0.6496(7)
C47A C 1.1193(7) 0.637(2) 0.6111(7)
H53A H 1.1303 0.5919 0.6493
H54A H 1.1391 0.7290 0.6093
C48A C 1.1401(7) 0.549(2) 0.5612(7)
H55A H 1.1195 0.4572 0.5617
H56A H 1.1835 0.5326 0.5643
C49A C 1.1421(7) 0.537(2) 0.4529(7)
H57A H 1.1194 0.4482 0.4539
H58A H 1.1852 0.5145 0.4539
C50A C 1.1273(7) 0.617(2) 0.3974(7)
H59A H 1.1470 0.7100 0.3983
H60A H 1.1415 0.5661 0.3618
O22 O 0.5609(5) 0.201(2) 0.1057(5)
O23 O 0.6255(5) 0.220(2) -0.0050(5)
O24 O 0.4454(5) 0.184(2) 0.1091(5)
C51 C 0.4772(7) 0.108(2) 0.1504(7)
C52 C 0.4470(7) 0.013(2) 0.1902(7)
H61 H 0.4048 0.0099 0.1905
C53 C 0.4810(7) -0.077(2) 0.2300(8)
H62 H 0.4627 -0.1442 0.2554
C54 C 0.5487(7) -0.056(2) 0.2274(8)
H63 H 0.5734 -0.1063 0.2542
C55 C 0.5745(7) 0.034(2) 0.1878(7)
H64 H 0.6167 0.0409 0.1856
C56 C 0.5376(7) 0.119(2) 0.1492(7)
C57 C 0.6259(7) 0.214(3) 0.1030(7)
H65 H 0.6445 0.1208 0.1009
H66 H 0.6409 0.2628 0.1390
C58 C 0.6415(7) 0.301(3) 0.0461(7)
H67 H 0.6193 0.3901 0.0461
H68 H 0.6847 0.3219 0.0453
C59 C 0.6398(7) 0.284(2) -0.0611(7)
H69 H 0.6835 0.2968 -0.0638
H70 H 0.6208 0.3768 -0.0632
C60 C 0.6183(7) 0.193(2) -0.1148(7)
H71 H 0.6294 0.2378 -0.1529
H72 H 0.6366 0.0988 -0.1133
O22A O 0.4391(5) 0.201(2) -0.1057(5)
O23A O 0.3745(5) 0.220(2) 0.0050(5)
O24A O 0.5546(5) 0.184(2) -0.1091(5)
C51A C 0.5228(7) 0.108(2) -0.1504(7)
C52A C 0.5530(7) 0.013(2) -0.1902(7)
H61A H 0.5952 0.0099 -0.1905
C53A C 0.5190(7) -0.077(2) -0.2300(8)
H62A H 0.5373 -0.1442 -0.2554
C54A C 0.4513(7) -0.056(2) -0.2274(8)
H63A H 0.4266 -0.1063 -0.2542
C55A C 0.4255(7) 0.034(2) -0.1878(7)
H64A H 0.3833 0.0409 -0.1856
C56A C 0.4624(7) 0.119(2) -0.1492(7)
C57A C 0.3741(7) 0.214(3) -0.1030(7)
H65A H 0.3555 0.1208 -0.1009
H66A H 0.3591 0.2628 -0.1390
C58A C 0.3585(7) 0.301(3) -0.0461(7)
H67A H 0.3807 0.3901 -0.0461
H68A H 0.3153 0.3219 -0.0453
C59A C 0.3602(7) 0.284(2) 0.0611(7)
H69A H 0.3165 0.2968 0.0638
H70A H 0.3792 0.3768 0.0632
C60A C 0.3817(7) 0.193(2) 0.1148(7)
H71A H 0.3706 0.2378 0.1529
H72A H 0.3634 0.0988 0.1133
O25 O 0.8865(5) 0.795(2) 0.9588(5)
O26 O 0.9841(5) 0.762(2) 0.8745(5)
O27 O 1.1032(5) 0.755(2) 0.9244(5)
C61 C 0.8522(7) 0.849(2) 1.0579(8)
C62 C 0.8130(7) 0.922(2) 1.0962(8)
H73 H 0.8173 0.9082 1.1379
C63 C 0.7720(7) 1.005(2) 1.0781(7)
H74 H 0.7442 1.0399 1.1062
C64 C 0.7664(7) 1.048(2) 1.0138(7)
H75 H 0.7411 1.1219 1.0010
C65 C 0.8038(7) 0.967(2) 0.9729(8)
H76 H 0.7991 0.9781 0.9312
C66 C 0.8473(8) 0.870(2) 0.9952(8)
C67 C 0.8792(7) 0.793(3) 0.8963(7)
H77 H 0.8846 0.8884 0.8802
H78 H 0.8384 0.7613 0.8862
C68 C 0.9248(7) 0.695(3) 0.8689(7)
H79 H 0.9246 0.6038 0.8901
H80 H 0.9153 0.6776 0.8265
C69 C 1.0287(7) 0.674(3) 0.8524(7)
H81 H 1.0222 0.6566 0.8094
H82 H 1.0275 0.5830 0.8735
C70 C 1.0920(7) 0.748(3) 0.8626(7)
H83 H 1.1238 0.6933 0.8427
H84 H 1.0915 0.8430 0.8454
O25A O 1.1135(5) 0.795(2) 1.0412(5)
O26A O 1.0159(5) 0.762(2) 1.1255(5)
O27A O 0.8968(5) 0.755(2) 1.0756(5)
C61A C 1.1478(7) 0.849(2) 0.9421(8)
C62A C 1.1870(7) 0.922(2) 0.9038(8)
H73A H 1.1827 0.9082 0.8621
C63A C 1.2280(7) 1.005(2) 0.9219(7)
H74A H 1.2558 1.0399 0.8938
C64A C 1.2336(7) 1.048(2) 0.9862(7)
H75A H 1.2589 1.1219 0.9990
C65A C 1.1962(7) 0.967(2) 1.0271(8)
H76A H 1.2009 0.9781 1.0688
C66A C 1.1527(8) 0.870(2) 1.0048(8)
C67A C 1.1208(7) 0.793(3) 1.1037(7)
H77A H 1.1154 0.8884 1.1198
H78A H 1.1616 0.7613 1.1138
C68A C 1.0752(7) 0.695(3) 1.1311(7)
H79A H 1.0754 0.6038 1.1099
H80A H 1.0847 0.6776 1.1735
C69A C 0.9713(7) 0.674(3) 1.1476(7)
H81A H 0.9778 0.6566 1.1906
H82A H 0.9725 0.5830 1.1265
C70A C 0.9080(7) 0.748(3) 1.1374(7)
H83A H 0.8762 0.6933 1.1573
H84A H 0.9085 0.8430 1.1546
O28 O 0.1145(5) 0.297(2) -0.0402(5)
O29 O 0.0162(5) 0.265(2) -0.1246(5)
O30 O -0.1027(5) 0.256(2) -0.0764(5)
C71 C 0.1468(7) 0.347(2) 0.0581(7)
C72 C 0.1857(8) 0.421(2) 0.0974(7)
H85 H 0.1800 0.4094 0.1390
C73 C 0.2279(7) 0.501(2) 0.0799(7)
H86 H 0.2561 0.5343 0.1080
C74 C 0.2338(7) 0.545(3) 0.0135(7)
H87 H 0.2605 0.6156 0.0005
C75 C 0.1953(7) 0.468(2) -0.0271(7)
H88 H 0.1990 0.4830 -0.0687
C76 C 0.1511(8) 0.370(3) -0.0050(7)
C77 C 0.1214(7) 0.300(3) -0.1029(7)
H89 H 0.1621 0.2687 -0.1137
H90 H 0.1158 0.3963 -0.1177
C78 C 0.0755(7) 0.203(3) -0.1313(7)
H91 H 0.0847 0.1902 -0.1741
H92 H 0.0765 0.1105 -0.1117
C79 C -0.0330(7) 0.178(3) -0.1466(7)
H93 H -0.0273 0.1590 -0.1896
H94 H -0.0327 0.0871 -0.1254
C80 C -0.0903(7) 0.247(3) -0.1374(7)
H95 H -0.0892 0.3417 -0.1550
H96 H -0.1222 0.1931 -0.1575
O28A O -0.1145(5) 0.297(2) 0.0402(5)
O29A O -0.0162(5) 0.265(2) 0.1246(5)
O30A O 0.1027(5) 0.256(2) 0.0764(5)
C71A C -0.1468(7) 0.347(2) -0.0581(7)
C72A C -0.1857(8) 0.421(2) -0.0974(7)
H85A H -0.1800 0.4094 -0.1390
C73A C -0.2279(7) 0.501(2) -0.0799(7)
H86A H -0.2561 0.5343 -0.1080
C74A C -0.2338(7) 0.545(3) -0.0135(7)
H87A H -0.2605 0.6156 -0.0005
C75A C -0.1953(7) 0.468(2) 0.0271(7)
H88A H -0.1990 0.4830 0.0687
C76A C -0.1511(8) 0.370(3) 0.0050(7)
C77A C -0.1214(7) 0.300(3) 0.1029(7)
H89A H -0.1621 0.2687 0.1137
H90A H -0.1158 0.3963 0.1177
C78A C -0.0755(7) 0.203(3) 0.1313(7)
H91A H -0.0847 0.1902 0.1741
H92A H -0.0765 0.1105 0.1117
C79A C 0.0330(7) 0.178(3) 0.1466(7)
H93A H 0.0273 0.1590 0.1896
H94A H 0.0327 0.0871 0.1254
C80A C 0.0903(7) 0.247(3) 0.1374(7)
H95A H 0.0892 0.3417 0.1550
H96A H 0.1222 0.1931 0.1575
O31 O 0.0000 0.092(2) 0.0000
O32 O 0.0000 0.505(3) 0.0000
loop_
_geom_bond_atom_site_label_1
_geom_bond_atom_site_label_2
_geom_bond_site_symmetry_1
_geom_bond_site_symmetry_2
K1 O1 1_555 1_555
K2 O4 1_555 1_555
O1 C6 1_555 1_555
O2 K1 1_555 1_555
O3 K1 1_555 1_555
O4 C16 1_555 1_555
O5 K2 1_555 1_555
O6 K2 1_555 1_555
O7 K1 1_555 1_555
O8 K2 1_555 1_555
C1 O3 1_555 1_555
C2 C1 1_555 1_555
H1 C2 1_555 1_555
C3 C2 1_555 1_555
H2 C3 1_555 1_555
C4 C3 1_555 1_555
H3 C4 1_555 1_555
C5 C4 1_555 1_555
H4 C5 1_555 1_555
C6 C1 1_555 1_555
C7 O1 1_555 1_555
H5 C7 1_555 1_555
H6 C7 1_555 1_555
C8 O2 1_555 1_555
H7 C8 1_555 1_555
H8 C8 1_555 1_555
C9 O2 1_555 1_555
H9 C9 1_555 1_555
H10 C9 1_555 1_555
C10 C9 1_555 1_555
H11 C10 1_555 1_555
H12 C10 1_555 1_555
C11 C12 1_555 1_555
C12 H13 1_555 1_555
C13 C12 1_555 1_555
H14 C13 1_555 1_555
C14 C13 1_555 1_555
H15 C14 1_555 1_555
C15 C14 1_555 1_555
H16 C15 1_555 1_555
C16 C11 1_555 1_555
C17 O4 1_555 1_555
H17 C17 1_555 1_555
H18 C17 1_555 1_555
C18 O5 1_555 1_555
H19 C18 1_555 1_555
H20 C18 1_555 1_555
C19 O5 1_555 1_555
H21 C19 1_555 1_555
H22 C19 1_555 1_555
C20 O6 1_555 1_555
H23 C20 1_555 1_555
H24 C20 1_555 1_555
K3 O9 1_555 1_555
O9 C21 1_555 1_555
O10 K3 1_555 1_555
O11 K3 1_555 1_555
O12 K3 1_555 1_555
O13 K3 1_555 1_555
C21 C22 1_555 1_555
C22 H25 1_555 1_555
C23 C22 1_555 1_555
H26 C23 1_555 1_555
C24 C23 1_555 1_555
H27 C24 1_555 1_555
C25 C24 1_555 1_555
H28 C25 1_555 1_555
C26 O10 1_555 1_555
C27 O10 1_555 1_555
H29 C27 1_555 1_555
H30 C27 1_555 1_555
C28 O11 1_555 1_555
H31 C28 1_555 1_555
H32 C28 1_555 1_555
C29 O11 1_555 1_555
H33 C29 1_555 1_555
H34 C29 1_555 1_555
C30 C29 1_555 1_555
H35 C30 1_555 1_555
H36 C30 1_555 1_555
K4 O14 1_555 1_555
O14 C36 1_555 1_555
O15 K4 1_555 1_555
O16 K4 1_555 1_555
O17 K4 1_555 1_555
O18 K4 1_555 1_555
C31 O16 1_555 1_555
C32 C31 1_555 1_555
H37 C32 1_555 1_555
C33 C32 1_555 1_555
H38 C33 1_555 1_555
C34 C33 1_555 1_555
H39 C34 1_555 1_555
C35 C34 1_555 1_555
H40 C35 1_555 1_555
C36 C31 1_555 1_555
C37 O14 1_555 1_555
H41 C37 1_555 1_555
H42 C37 1_555 1_555
C38 O15 1_555 1_555
H43 C38 1_555 1_555
H44 C38 1_555 1_555
C39 O15 1_555 1_555
H45 C39 1_555 1_555
H46 C39 1_555 1_555
C40 C39 1_555 1_555
H47 C40 1_555 1_555
H48 C40 1_555 1_555
Br1 I1 1_555 1_555
Br2 I1 1_555 1_555
Br3 I2 1_555 1_555
Br4 I2 1_555 1_555
O19 C46 1_555 1_555
O20 C48 1_555 1_555
O21 C41 1_555 1_555
C41 C42 1_555 1_555
C42 H49 1_555 1_555
C43 C42 1_555 1_555
H50 C43 1_555 1_555
C44 C43 1_555 1_555
H51 C44 1_555 1_555
C45 C44 1_555 1_555
H52 C45 1_555 1_555
C46 C41 1_555 1_555
C47 O19 1_555 1_555
H53 C47 1_555 1_555
H54 C47 1_555 1_555
C48 C47 1_555 1_555
H55 C48 1_555 1_555
H56 C48 1_555 1_555
C49 O20 1_555 1_555
H57 C49 1_555 1_555
H58 C49 1_555 1_555
C50 C49 1_555 1_555
H59 C50 1_555 1_555
H60 C50 1_555 1_555
O22 C56 1_555 1_555
O23 C58 1_555 1_555
O24 C51 1_555 1_555
C51 C52 1_555 1_555
C52 H61 1_555 1_555
C53 C52 1_555 1_555
H62 C53 1_555 1_555
C54 C53 1_555 1_555
H63 C54 1_555 1_555
C55 C54 1_555 1_555
H64 C55 1_555 1_555
C56 C51 1_555 1_555
C57 O22 1_555 1_555
H65 C57 1_555 1_555
H66 C57 1_555 1_555
C58 C57 1_555 1_555
H67 C58 1_555 1_555
H68 C58 1_555 1_555
C59 O23 1_555 1_555
H69 C59 1_555 1_555
H70 C59 1_555 1_555
C60 C59 1_555 1_555
H71 C60 1_555 1_555
H72 C60 1_555 1_555
O25 C66 1_555 1_555
O26 C68 1_555 1_555
O27 C70 1_555 1_555
C61 C62 1_555 1_555
C62 H73 1_555 1_555
C63 C62 1_555 1_555
H74 C63 1_555 1_555
C64 C63 1_555 1_555
H75 C64 1_555 1_555
C65 C64 1_555 1_555
H76 C65 1_555 1_555
C66 C61 1_555 1_555
C67 O25 1_555 1_555
H77 C67 1_555 1_555
H78 C67 1_555 1_555
C68 C67 1_555 1_555
H79 C68 1_555 1_555
H80 C68 1_555 1_555
C69 O26 1_555 1_555
H81 C69 1_555 1_555
H82 C69 1_555 1_555
C70 C69 1_555 1_555
H83 C70 1_555 1_555
H84 C70 1_555 1_555
O28 C76 1_555 1_555
O29 C78 1_555 1_555
O30 C80 1_555 1_555
C71 C72 1_555 1_555
C72 H85 1_555 1_555
C73 C72 1_555 1_555
H86 C73 1_555 1_555
C74 C73 1_555 1_555
H87 C74 1_555 1_555
C75 C74 1_555 1_555
H88 C75 1_555 1_555
C76 C71 1_555 1_555
C77 O28 1_555 1_555
H89 C77 1_555 1_555
H90 C77 1_555 1_555
C78 C77 1_555 1_555
H91 C78 1_555 1_555
H92 C78 1_555 1_555
C79 O29 1_555 1_555
H93 C79 1_555 1_555
H94 C79 1_555 1_555
C80 C79 1_555 1_555
H95 C80 1_555 1_555
H96 C80 1_555 1_555
O1A K1 1_555 1_555
O2A K1 1_555 1_555
O3A K1 1_555 1_555
C1A O3A 1_555 1_555
C2A C1A 1_555 1_555
H1A C2A 1_555 1_555
C3A C2A 1_555 1_555
H2A C3A 1_555 1_555
C4A C3A 1_555 1_555
H3A C4A 1_555 1_555
C5A C4A 1_555 1_555
H4A C5A 1_555 1_555
C6A O1A 1_555 1_555
C7A O1A 1_555 1_555
H5A C7A 1_555 1_555
H6A C7A 1_555 1_555
C8A O2A 1_555 1_555
H7A C8A 1_555 1_555
H8A C8A 1_555 1_555
C9A O2A 1_555 1_555
H9A C9A 1_555 1_555
H10A C9A 1_555 1_555
C10A O3 1_555 1_555
H11A C10A 1_555 1_555
H12A C10A 1_555 1_555
O4A K2 1_555 1_555
O5A K2 1_555 1_555
O6A K2 1_555 1_555
C11A O6 1_555 1_555
C12A C11A 1_555 1_555
H13A C12A 1_555 1_555
C13A C12A 1_555 1_555
H14A C13A 1_555 1_555
C14A C13A 1_555 1_555
H15A C14A 1_555 1_555
C15A C14A 1_555 1_555
H16A C15A 1_555 1_555
C16A O4A 1_555 1_555
C17A O4A 1_555 1_555
H17A C17A 1_555 1_555
H18A C17A 1_555 1_555
C18A O5A 1_555 1_555
H19A C18A 1_555 1_555
H20A C18A 1_555 1_555
C19A O5A 1_555 1_555
H21A C19A 1_555 1_555
H22A C19A 1_555 1_555
C20A O6A 1_555 1_555
H23A C20A 1_555 1_555
H24A C20A 1_555 1_555
K1_2 O8 1_555 1_555
O8_2 K1 1_555 1_555
O9A K3 1_555 1_555
O10A K3 1_555 1_555
O11A K3 1_555 1_555
C21A O9A 1_555 1_555
C22A C21A 1_555 1_555
H25A C22A 1_555 1_555
C23A C22A 1_555 1_555
H26A C23A 1_555 1_555
C24A C23A 1_555 1_555
H27A C24A 1_555 1_555
C25A C24A 1_555 1_555
H28A C25A 1_555 1_555
C26A O10A 1_555 1_555
C27A O10A 1_555 1_555
H29A C27A 1_555 1_555
H30A C27A 1_555 1_555
C28A O11A 1_555 1_555
H31A C28A 1_555 1_555
H32A C28A 1_555 1_555
C29A O11A 1_555 1_555
H33A C29A 1_555 1_555
H34A C29A 1_555 1_555
C30A O9 1_555 1_555
H35A C30A 1_555 1_555
H36A C30A 1_555 1_555
O14A K4 1_555 1_555
O15A K4 1_555 1_555
O16A K4 1_555 1_555
C31A O16A 1_555 1_555
C32A C31A 1_555 1_555
H37A C32A 1_555 1_555
C33A C32A 1_555 1_555
H38A C33A 1_555 1_555
C34A C33A 1_555 1_555
H39A C34A 1_555 1_555
C35A C34A 1_555 1_555
H40A C35A 1_555 1_555
C36A O14A 1_555 1_555
C37A O14A 1_555 1_555
H41A C37A 1_555 1_555
H42A C37A 1_555 1_555
C38A O15A 1_555 1_555
H43A C38A 1_555 1_555
H44A C38A 1_555 1_555
C39A O15A 1_555 1_555
H45A C39A 1_555 1_555
H46A C39A 1_555 1_555
C40A O16 1_555 1_555
H47A C40A 1_555 1_555
H48A C40A 1_555 1_555
O19A C46A 1_555 1_555
O20A C48A 1_555 1_555
O21A C50 1_555 1_555
C41A O21A 1_555 1_555
C42A C41A 1_555 1_555
H49A C42A 1_555 1_555
C43A C42A 1_555 1_555
H50A C43A 1_555 1_555
C44A C43A 1_555 1_555
H51A C44A 1_555 1_555
C45A C44A 1_555 1_555
H52A C45A 1_555 1_555
C46A C41A 1_555 1_555
C47A O19A 1_555 1_555
H53A C47A 1_555 1_555
H54A C47A 1_555 1_555
C48A C47A 1_555 1_555
H55A C48A 1_555 1_555
H56A C48A 1_555 1_555
C49A O20A 1_555 1_555
H57A C49A 1_555 1_555
H58A C49A 1_555 1_555
C50A O21 1_555 1_555
H59A C50A 1_555 1_555
H60A C50A 1_555 1_555
O22A C56A 1_555 1_555
O23A C58A 1_555 1_555
O24A C60 1_555 1_555
C51A O24A 1_555 1_555
C52A C51A 1_555 1_555
H61A C52A 1_555 1_555
C53A C52A 1_555 1_555
H62A C53A 1_555 1_555
C54A C53A 1_555 1_555
H63A C54A 1_555 1_555
C55A C54A 1_555 1_555
H64A C55A 1_555 1_555
C56A C51A 1_555 1_555
C57A O22A 1_555 1_555
H65A C57A 1_555 1_555
H66A C57A 1_555 1_555
C58A C57A 1_555 1_555
H67A C58A 1_555 1_555
H68A C58A 1_555 1_555
C59A O23A 1_555 1_555
H69A C59A 1_555 1_555
H70A C59A 1_555 1_555
C60A O24 1_555 1_555
H71A C60A 1_555 1_555
H72A C60A 1_555 1_555
O25A C66A 1_555 1_555
O26A C68A 1_555 1_555
O27A C61 1_555 1_555
C61A O27 1_555 1_555
C62A C61A 1_555 1_555
H73A C62A 1_555 1_555
C63A C62A 1_555 1_555
H74A C63A 1_555 1_555
C64A C63A 1_555 1_555
H75A C64A 1_555 1_555
C65A C64A 1_555 1_555
H76A C65A 1_555 1_555
C66A C61A 1_555 1_555
C67A O25A 1_555 1_555
H77A C67A 1_555 1_555
H78A C67A 1_555 1_555
C68A C67A 1_555 1_555
H79A C68A 1_555 1_555
H80A C68A 1_555 1_555
C69A O26A 1_555 1_555
H81A C69A 1_555 1_555
H82A C69A 1_555 1_555
C70A O27A 1_555 1_555
H83A C70A 1_555 1_555
H84A C70A 1_555 1_555
O28A C76A 1_555 1_555
O29A C78A 1_555 1_555
O30A C71 1_555 1_555
C71A O30 1_555 1_555
C72A C71A 1_555 1_555
H85A C72A 1_555 1_555
C73A C72A 1_555 1_555
H86A C73A 1_555 1_555
C74A C73A 1_555 1_555
H87A C74A 1_555 1_555
C75A C74A 1_555 1_555
H88A C75A 1_555 1_555
C76A C71A 1_555 1_555
C77A O28A 1_555 1_555
H89A C77A 1_555 1_555
H90A C77A 1_555 1_555
C78A C77A 1_555 1_555
H91A C78A 1_555 1_555
H92A C78A 1_555 1_555
C79A O29A 1_555 1_555
H93A C79A 1_555 1_555
H94A C79A 1_555 1_555
C80A O30A 1_555 1_555
H95A C80A 1_555 1_555
H96A C80A 1_555 1_555
K2 O7 1_555 1_555
C5 C6 1_555 1_555
C7 C8 1_555 1_555
C10 O3A 1_555 1_555
C11 O6A 1_555 1_555
C15 C16 1_555 1_555
C17 C18 1_555 1_555
C19 C20 1_555 1_555
C21 C26 1_555 1_555
C25 C26 1_555 1_555
C27 C28 1_555 1_555
C30 O9A 1_555 1_555
C35 C36 1_555 1_555
C37 C38 1_555 1_555
C40 O16A 1_555 1_555
C45 C46 1_555 1_555
C55 C56 1_555 1_555
C65 C66 1_555 1_555
C75 C76 1_555 1_555
C1A C6A 1_555 1_555
C5A C6A 1_555 1_555
C7A C8A 1_555 1_555
C9A C10A 1_555 1_555
C11A C16A 1_555 1_555
C15A C16A 1_555 1_555
C17A C18A 1_555 1_555
C19A C20A 1_555 1_555
C21A C26A 1_555 1_555
C25A C26A 1_555 1_555
C27A C28A 1_555 1_555
C29A C30A 1_555 1_555
C31A C36A 1_555 1_555
C35A C36A 1_555 1_555
C37A C38A 1_555 1_555
C39A C40A 1_555 1_555
C45A C46A 1_555 1_555
C49A C50A 1_555 1_555
C55A C56A 1_555 1_555
C59A C60A 1_555 1_555
C65A C66A 1_555 1_555
C69A C70A 1_555 1_555
C75A C76A 1_555 1_555
C79A C80A 1_555 1_555

#END
