
#######################################################################
#
#                 Cambridge Crystallographic Data Centre
#                                CCDC 
#
#######################################################################
#
# If this CIF has been generated from an entry in the Cambridge 
# Structural Database, then it will include bibliographic, chemical, 
# crystal, experimental, refinement or atomic coordinate data resulting 
# from the CCDC's data processing and validation procedures.
#
#######################################################################

data_XIHBOG
_symmetry_cell_setting           triclinic
_symmetry_space_group_name_H-M   'P -1'
_symmetry_Int_Tables_number      2
_space_group_name_Hall           '-P 1'
loop_
_symmetry_equiv_pos_site_id
_symmetry_equiv_pos_as_xyz
1 x,y,z
2 -x,-y,-z
_cell_length_a                   9.7919(8)
_cell_length_b                   10.4119(8)
_cell_length_c                   11.6410(9)
_cell_angle_alpha                68.443(3)
_cell_angle_beta                 70.157(2)
_cell_angle_gamma                73.657(4)
_cell_volume                     1021.49
loop_
_atom_site_label
_atom_site_type_symbol
_atom_site_fract_x
_atom_site_fract_y
_atom_site_fract_z
Ag1 Ag 0.32869(2) 0.20793(2) 0.42041(2)
S1 S 0.43670(7) -0.12667(6) 0.35039(6)
O1 O 0.3304(2) -0.0275(2) 0.4102(2)
O2 O 0.5774(2) -0.1687(2) 0.3797(2)
O3 O 0.4470(2) -0.0986(2) 0.2173(2)
C1 C 0.3546(3) -0.2847(2) 0.4295(2)
F1 F 0.4276(2) -0.3853(2) 0.3753(2)
F2 F 0.2151(2) -0.2590(2) 0.4236(2)
F3 F 0.3522(2) -0.3349(2) 0.5521(2)
N1 N 0.1320(3) 0.3108(2) 0.5417(2)
N2 N -0.4465(2) 0.1977(2) 1.2817(2)
N3 N 0.2359(3) 0.3017(2) 1.2136(2)
C2 C -0.0195(3) 0.3105(2) 0.8573(2)
C3 C -0.1296(3) 0.2315(2) 0.9402(2)
C4 C -0.1092(3) 0.1405(2) 1.0587(2)
C5 C 0.0204(3) 0.1240(2) 1.0935(2)
C6 C 0.1291(2) 0.2027(2) 1.0076(2)
C7 C 0.1089(3) 0.2988(2) 0.8912(2)
C8 C -0.0379(4) 0.4100(3) 0.7278(3)
H1 H -0.1353(36) 0.4248(29) 0.7254(30)
H2 H -0.0114(33) 0.4941(32) 0.7087(30)
C9 C 0.0560(3) 0.3553(2) 0.6220(2)
C10 C -0.2686(3) 0.2467(3) 0.9029(3)
H3 H -0.3161(34) 0.1564(31) 0.9492(30)
H4 H -0.2409(35) 0.2566(30) 0.8141(32)
C11 C -0.3852(3) 0.3739(3) 0.9268(3)
H5 H -0.4678(39) 0.3874(32) 0.8972(33)
H6 H -0.3446(37) 0.4591(34) 0.8826(33)
H7 H -0.4198(38) 0.3658(32) 1.0151(36)
C12 C -0.2265(3) 0.0543(3) 1.1522(3)
H8 H -0.2716(33) 0.0199(28) 1.1089(29)
H9 H -0.1875(33) -0.0333(30) 1.2225(30)
C13 C -0.3511(3) 0.1357(2) 1.2243(3)
C14 C 0.0415(3) 0.0264(3) 1.2220(3)
H10 H 0.1462(35) 0.0059(28) 1.2172(29)
H11 H 0.0201(32) -0.0573(31) 1.2337(28)
C15 C -0.0470(4) 0.0844(3) 1.3338(3)
H12 H -0.0429(38) 0.0147(34) 1.4161(36)
H13 H -0.1523(41) 0.1171(34) 1.3353(34)
H14 H -0.0109(38) 0.1701(35) 1.3285(33)
C16 C 0.2731(3) 0.1814(3) 1.0419(3)
H15 H 0.3172(32) 0.0903(29) 1.0759(28)
H16 H 0.3495(32) 0.2228(27) 0.9627(29)
C17 C 0.2533(3) 0.2484(2) 1.1389(3)
C18 C 0.2202(3) 0.3936(3) 0.8056(3)
H17 H 0.2153(31) 0.4249(28) 0.7184(30)
H18 H 0.3139(34) 0.3418(28) 0.8003(28)
C19 C 0.1957(4) 0.5201(3) 0.8525(3)
H19 H 0.2643(40) 0.5800(35) 0.7994(36)
H20 H 0.2083(39) 0.4916(33) 0.9375(37)
H21 H 0.0979(41) 0.5775(34) 0.8492(34)
O2A O 0.4226(2) 0.1687(2) 0.6203(2)
N2_2 N 0.5535(2) 0.1977(2) 0.2817(2)
N3_2 N 0.2359(3) 0.3017(2) 0.2136(2)
Ag1A Ag 0.67131(2) -0.20793(2) 0.57959(2)
Ag1_2 Ag -0.67131(2) 0.20793(2) 1.42041(2)
Ag1_3 Ag 0.32869(2) 0.20793(2) 1.42041(2)
loop_
_geom_bond_atom_site_label_1
_geom_bond_atom_site_label_2
_geom_bond_site_symmetry_1
_geom_bond_site_symmetry_2
Ag1 O1 1_555 1_555
S1 O1 1_555 1_555
O2 S1 1_555 1_555
O3 S1 1_555 1_555
C1 S1 1_555 1_555
F1 C1 1_555 1_555
F2 C1 1_555 1_555
F3 C1 1_555 1_555
N1 Ag1 1_555 1_555
N2 C13 1_555 1_555
N3 C17 1_555 1_555
C2 C3 1_555 1_555
C3 C4 1_555 1_555
C4 C5 1_555 1_555
C5 C6 1_555 1_555
C6 C7 1_555 1_555
C7 C2 1_555 1_555
C8 C2 1_555 1_555
H1 C8 1_555 1_555
H2 C8 1_555 1_555
C9 N1 1_555 1_555
C10 C3 1_555 1_555
H3 C10 1_555 1_555
H4 C10 1_555 1_555
C11 C10 1_555 1_555
H5 C11 1_555 1_555
H6 C11 1_555 1_555
H7 C11 1_555 1_555
C12 C4 1_555 1_555
H8 C12 1_555 1_555
H9 C12 1_555 1_555
C13 C12 1_555 1_555
C14 C5 1_555 1_555
H10 C14 1_555 1_555
H11 C14 1_555 1_555
C15 C14 1_555 1_555
H12 C15 1_555 1_555
H13 C15 1_555 1_555
H14 C15 1_555 1_555
C16 C6 1_555 1_555
H15 C16 1_555 1_555
H16 C16 1_555 1_555
C17 C16 1_555 1_555
C18 C7 1_555 1_555
H17 C18 1_555 1_555
H18 C18 1_555 1_555
C19 C18 1_555 1_555
H19 C19 1_555 1_555
H20 C19 1_555 1_555
H21 C19 1_555 1_555
O2A Ag1 1_555 1_555
N2_2 Ag1 1_555 1_555
N3_2 Ag1 1_555 1_555
Ag1A O2 1_555 1_555
Ag1_2 N2 1_555 1_555
Ag1_3 N3 1_555 1_555
C8 C9 1_555 1_555

#END
