
#######################################################################
#
#                 Cambridge Crystallographic Data Centre
#                                CCDC 
#
#######################################################################
#
# If this CIF has been generated from an entry in the Cambridge 
# Structural Database, then it will include bibliographic, chemical, 
# crystal, experimental, refinement or atomic coordinate data resulting 
# from the CCDC's data processing and validation procedures.
#
#######################################################################

data_XIHCOI
_symmetry_cell_setting           orthorhombic
_symmetry_space_group_name_H-M   'P b c a'
_symmetry_Int_Tables_number      61
_space_group_name_Hall           '-P 2ac 2ab'
loop_
_symmetry_equiv_pos_site_id
_symmetry_equiv_pos_as_xyz
1 x,y,z
2 1/2-x,-y,1/2+z
3 1/2+x,1/2-y,-z
4 -x,1/2+y,1/2-z
5 -x,-y,-z
6 1/2+x,y,1/2-z
7 1/2-x,1/2+y,z
8 x,1/2-y,1/2+z
_cell_length_a                   7.4502(15)
_cell_length_b                   16.337(3)
_cell_length_c                   30.484(6)
_cell_angle_alpha                90
_cell_angle_beta                 90
_cell_angle_gamma                90
_cell_volume                     3710.33
loop_
_atom_site_label
_atom_site_type_symbol
_atom_site_fract_x
_atom_site_fract_y
_atom_site_fract_z
C1 C 0.7747(8) 0.3800(3) 0.05341(17)
C2 C 0.7963(7) 0.4517(3) 0.08524(19)
H1 H 0.7504 0.5006 0.0712
H2 H 0.7221 0.4412 0.1108
C3 C 0.9738(7) 0.5385(3) 0.1331(2)
H3 H 0.9120 0.5205 0.1594
H4 H 0.9065 0.5835 0.1204
C4 C 1.1619(7) 0.5668(4) 0.14463(19)
H5 H 1.1876 0.6185 0.1302
H6 H 1.1722 0.5747 0.1761
C5 C 1.1074(7) 0.4951(3) 0.06417(17)
H7 H 1.0686 0.5477 0.0528
H8 H 1.1024 0.4556 0.0405
C6 C 1.3006(7) 0.5019(4) 0.08117(19)
H9 H 1.3713 0.4557 0.0711
H10 H 1.3559 0.5519 0.0705
C7 C 1.0644(7) 0.3958(3) 0.12398(19)
H11 H 1.0895 0.3526 0.1031
H12 H 0.9799 0.3750 0.1455
C8 C 1.2366(9) 0.4218(4) 0.1466(2)
H13 H 1.2176 0.4248 0.1780
H14 H 1.3302 0.3819 0.1410
Cd1 Cd 0.51895(5) 0.25781(2) 0.004663(13)
Cl1 Cl 0.76339(19) 0.15082(9) 0.03319(5)
Cl2 Cl 0.25908(18) 0.21954(9) 0.05834(4)
N1 N 0.9849(6) 0.4687(3) 0.10063(14)
N2 N 1.2919(5) 0.5028(3) 0.12966(16)
H15 H 1.4026 0.5150 0.1404
O1 O 0.6146(5) 0.3649(2) 0.04458(13)
O2 O 0.9115(5) 0.3463(2) 0.03861(14)
Cd1B Cd 0.01895(5) 0.24219(2) -0.004663(13)
Cd1B_2 Cd 1.01895(5) 0.24219(2) -0.004663(13)
Cl1B Cl 0.26339(19) 0.34918(9) -0.03319(5)
Cl2B Cl 0.75908(18) 0.28046(9) -0.05834(4)
O2B O 0.4115(5) 0.1537(2) -0.03861(14)
Cd2 Cd 0.15774(6) 0.25813(2) 0.257302(14)
Cl3 Cl 0.41295(19) 0.37021(8) 0.25836(5)
Cl4 Cl 0.1115(2) 0.26059(10) 0.34011(5)
Cl5 Cl -0.09139(19) 0.14587(8) 0.24397(5)
O3 O 0.1928(5) 0.2558(2) 0.18047(12)
H16 H 0.1521 0.2147 0.1666
H17 H 0.3050 0.2592 0.1757
Cd2E Cd -0.34226(6) 0.25813(2) 0.242698(14)
Cd2E_2 Cd 0.65774(6) 0.25813(2) 0.242698(14)
Cl3E Cl -0.08705(19) 0.37021(8) 0.24164(5)
Cl5E Cl 0.40861(19) 0.14587(8) 0.25603(5)
O4 O 0.9571(5) 0.1538(3) 0.13180(13)
H18 H 0.8779 0.1756 0.1481
H19 H 0.9698 0.1832 0.1090
O5 O 0.9076(5) 0.9902(2) 0.18192(13)
H20 H 0.8968 1.0325 0.1979
H21 H 0.9121 0.9483 0.1984
loop_
_geom_bond_atom_site_label_1
_geom_bond_atom_site_label_2
_geom_bond_site_symmetry_1
_geom_bond_site_symmetry_2
C1 C2 1_555 1_555
C2 H1 1_555 1_555
H2 C2 1_555 1_555
C3 H3 1_555 1_555
H4 C3 1_555 1_555
C4 C3 1_555 1_555
H5 C4 1_555 1_555
H6 C4 1_555 1_555
C5 H7 1_555 1_555
H8 C5 1_555 1_555
C6 C5 1_555 1_555
H9 C6 1_555 1_555
H10 C6 1_555 1_555
C7 H11 1_555 1_555
H12 C7 1_555 1_555
C8 C7 1_555 1_555
H13 C8 1_555 1_555
H14 C8 1_555 1_555
Cd1 Cl1 1_555 1_555
Cl1 Cd1B_2 1_555 1_555
Cl2 Cd1 1_555 1_555
N1 C2 1_555 1_555
N2 C4 1_555 1_555
H15 N2 1_555 1_555
O1 C1 1_555 1_555
O2 C1 1_555 1_555
Cd2 Cl3 1_555 1_555
Cl3 Cd2E_2 1_555 1_555
Cl4 Cd2 1_555 1_555
Cl5 Cd2 1_555 1_555
O3 Cd2 1_555 1_555
H16 O3 1_555 1_555
H17 O3 1_555 1_555
O4 H18 1_555 1_555
H19 O4 1_555 1_555
O5 H20 1_555 1_555
H21 O5 1_555 1_555
Cd1B Cl2 1_555 1_555
Cd1B_2 O2 1_555 1_555
Cl1B Cd1 1_555 1_555
Cl2B Cd1 1_555 1_555
O2B Cd1 1_555 1_555
Cd2E Cl5 1_555 1_555
Cd2E_2 Cl5E 1_555 1_555
Cl3E Cd2 1_555 1_555
Cl5E Cd2 1_555 1_555
C3 N1 1_555 1_555
C5 N1 1_555 1_555
C6 N2 1_555 1_555
C7 N1 1_555 1_555
C8 N2 1_555 1_555
Cd1 O1 1_555 1_555
Cd1B Cl1B 1_555 1_555
Cd1B_2 Cl2B 1_555 1_555
Cd2E Cl3E 1_555 1_555

#END
