
#######################################################################
#
#                 Cambridge Crystallographic Data Centre
#                                CCDC 
#
#######################################################################
#
# If this CIF has been generated from an entry in the Cambridge 
# Structural Database, then it will include bibliographic, chemical, 
# crystal, experimental, refinement or atomic coordinate data resulting 
# from the CCDC's data processing and validation procedures.
#
#######################################################################

data_XIHCEX
_symmetry_cell_setting           monoclinic
_symmetry_space_group_name_H-M   'P 21/n'
_symmetry_Int_Tables_number      14
_space_group_name_Hall           '-P 2yn'
loop_
_symmetry_equiv_pos_site_id
_symmetry_equiv_pos_as_xyz
1 x,y,z
2 1/2-x,1/2+y,1/2-z
3 -x,-y,-z
4 1/2+x,1/2-y,1/2+z
_cell_length_a                   15.1133(5)
_cell_length_b                   10.6803(3)
_cell_length_c                   17.2704(6)
_cell_angle_alpha                90
_cell_angle_beta                 108.896(1)
_cell_angle_gamma                90
_cell_volume                     2637.46
loop_
_atom_site_label
_atom_site_type_symbol
_atom_site_fract_x
_atom_site_fract_y
_atom_site_fract_z
Ag1 Ag 0.02830(2) 0.74565(2) 0.62151(2)
N1 N 0.1583(2) 0.7190(2) 0.5986(2)
N2 N 0.4906(2) 1.1644(3) 0.7627(2)
N3 N 0.1099(2) 1.1573(2) 0.4104(2)
C1 C 0.3449(2) 0.8153(2) 0.5476(2)
C2 C 0.4233(2) 0.8696(2) 0.6052(2)
C3 C 0.4496(2) 0.9906(2) 0.5902(2)
C4 C 0.3963(2) 1.0603(2) 0.5233(2)
C5 C 0.3196(2) 1.0030(3) 0.4654(2)
C6 C 0.2938(2) 0.8796(3) 0.4769(2)
C7 C 0.3119(2) 0.6864(3) 0.5643(2)
H1 H 0.3004(2) 0.6325(3) 0.5153(2)
H2 H 0.3604(2) 0.6462(3) 0.6105(2)
C8 C 0.2249(2) 0.7013(3) 0.5844(2)
C9 C 0.4773(3) 0.8014(3) 0.6830(2)
H3 H 0.5110(13) 0.8623(3) 0.7245(5)
H4 H 0.5220(11) 0.7438(16) 0.6717(4)
H5 H 0.4337(3) 0.7540(17) 0.7032(8)
C10 C 0.5372(2) 1.0498(3) 0.6497(2)
H6 H 0.5839(2) 0.9838(3) 0.6741(2)
H7 H 0.5649(2) 1.1091(3) 0.6200(2)
C11 C 0.5137(2) 1.1158(3) 0.7143(2)
C12 C 0.4190(2) 1.1967(3) 0.5154(2)
H8 H 0.4417(16) 1.2349(6) 0.5698(2)
H9 H 0.3626(4) 1.2405(5) 0.4820(12)
H10 H 0.4674(12) 1.2030(3) 0.4891(13)
C13 C 0.2626(2) 1.0746(3) 0.3898(2)
H11 H 0.3001(2) 1.1452(3) 0.3800(2)
H12 H 0.2468(2) 1.0186(3) 0.3416(2)
C14 C 0.1763(2) 1.1230(3) 0.4002(2)
C15 C 0.2096(2) 0.8210(3) 0.4142(2)
H13 H 0.2114(8) 0.8386(18) 0.3591(2)
H14 H 0.1523(2) 0.8561(16) 0.4202(9)
H15 H 0.2106(9) 0.7302(4) 0.4228(9)
N2A N 0.0094(2) 0.6644(3) 0.7373(2)
N3B N -0.1099(2) 0.8427(2) 0.5896(2)
Ag1A Ag 0.47170(2) 1.24565(2) 0.87849(2)
Ag1B Ag -0.02830(2) 1.25435(2) 0.37849(2)
S1 S 0.27127(6) 0.45903(7) 0.34656(5)
O1 O 0.2046(2) 0.5483(2) 0.3003(2)
O2 O 0.2797(2) 0.3482(2) 0.3038(2)
O3 O 0.2700(2) 0.4411(2) 0.42778(14)
C16 C 0.3828(2) 0.5375(3) 0.3623(2)
F1 F 0.45426(15) 0.4684(2) 0.4059(2)
F2 F 0.38686(14) 0.6440(2) 0.4022(2)
F3 F 0.3973(2) 0.5633(3) 0.29263(14)
C17 C 0.1103(5) 0.9770(5) 0.7382(5)
H16 H 0.0683(5) 0.9510(5) 0.7658(5)
C18 C 0.0799(4) 1.0410(6) 0.6665(6)
H17 H 0.0157(4) 1.0622(6) 0.6428(6)
C19 C 0.1434(6) 1.0745(5) 0.6286(4)
H18 H 0.1232(6) 1.1182(5) 0.5780(4)
C20 C 0.2325(5) 1.0457(5) 0.6628(5)
H19 H 0.2758(5) 1.0693(5) 0.6360(5)
C21 C 0.2623(4) 0.9868(5) 0.7313(4)
H20 H 0.3271(4) 0.9688(5) 0.7545(4)
C22 C 0.2046(6) 0.9513(5) 0.7695(3)
H21 H 0.2281(6) 0.9070(5) 0.8197(3)
C23 C -0.0473(4) 0.4858(5) 0.5548(3)
H22 H -0.0798(4) 0.4757(5) 0.5931(3)
C24 C -0.0785(3) 0.5672(5) 0.4926(4)
H23 H -0.1335(3) 0.6145(5) 0.4869(4)
C25 C 0.0317(4) 0.4174(4) 0.5623(3)
H24 H 0.0541(4) 0.3592(4) 0.6059(3)
C25B C -0.0317(4) 0.5826(4) 0.4377(3)
C23B C 0.0473(4) 0.5142(5) 0.4452(3)
H22B H 0.0798(4) 0.5243(5) 0.4069(3)
C24B C 0.0785(3) 0.4328(5) 0.5074(4)
H23B H 0.1335(3) 0.3855(5) 0.5131(4)
H24B H -0.0541(4) 0.6408(4) 0.3941(3)
loop_
_geom_bond_atom_site_label_1
_geom_bond_atom_site_label_2
_geom_bond_site_symmetry_1
_geom_bond_site_symmetry_2
Ag1 N1 1_555 1_555
N1 C8 1_555 1_555
N2 C11 1_555 1_555
N3 C14 1_555 1_555
C1 C2 1_555 1_555
C2 C3 1_555 1_555
C3 C4 1_555 1_555
C4 C5 1_555 1_555
C5 C6 1_555 1_555
C6 C1 1_555 1_555
C7 C1 1_555 1_555
H1 C7 1_555 1_555
H2 C7 1_555 1_555
C8 C7 1_555 1_555
C9 C2 1_555 1_555
H3 C9 1_555 1_555
H4 C9 1_555 1_555
H5 C9 1_555 1_555
C10 C3 1_555 1_555
H6 C10 1_555 1_555
H7 C10 1_555 1_555
C11 C10 1_555 1_555
C12 C4 1_555 1_555
H8 C12 1_555 1_555
H9 C12 1_555 1_555
H10 C12 1_555 1_555
C13 C5 1_555 1_555
H11 C13 1_555 1_555
H12 C13 1_555 1_555
C14 C13 1_555 1_555
C15 C6 1_555 1_555
H13 C15 1_555 1_555
H14 C15 1_555 1_555
H15 C15 1_555 1_555
S1 O1 1_555 1_555
O2 S1 1_555 1_555
O3 S1 1_555 1_555
C16 S1 1_555 1_555
F1 C16 1_555 1_555
F2 C16 1_555 1_555
F3 C16 1_555 1_555
C17 H16 1_555 1_555
C18 C17 1_555 1_555
H17 C18 1_555 1_555
C19 C18 1_555 1_555
H18 C19 1_555 1_555
C20 C19 1_555 1_555
H19 C20 1_555 1_555
C21 C20 1_555 1_555
H20 C21 1_555 1_555
C22 C17 1_555 1_555
H21 C22 1_555 1_555
C23 H22 1_555 1_555
C24 C23 1_555 1_555
H23 C24 1_555 1_555
C25 C23 1_555 1_555
H24 C25 1_555 1_555
C25B C24 1_555 1_555
C23B C25B 1_555 1_555
H22B C23B 1_555 1_555
C24B C25 1_555 1_555
H23B C24B 1_555 1_555
H24B C25B 1_555 1_555
N2A Ag1 1_555 1_555
N3B Ag1 1_555 1_555
Ag1A N2 1_555 1_555
Ag1B N3 1_555 1_555
C21 C22 1_555 1_555
C23B C24B 1_555 1_555

#END
