
#######################################################################
#
#                 Cambridge Crystallographic Data Centre
#                                CCDC 
#
#######################################################################
#
# If this CIF has been generated from an entry in the Cambridge 
# Structural Database, then it will include bibliographic, chemical, 
# crystal, experimental, refinement or atomic coordinate data resulting 
# from the CCDC's data processing and validation procedures.
#
#######################################################################

data_XIHCEY
_symmetry_cell_setting           monoclinic
_symmetry_space_group_name_H-M   'P 2'
_symmetry_Int_Tables_number      3
_space_group_name_Hall           'P 2y'
loop_
_symmetry_equiv_pos_site_id
_symmetry_equiv_pos_as_xyz
1 x,y,z
2 -x,y,-z
_cell_length_a                   21.9132(9)
_cell_length_b                   9.3473(3)
_cell_length_c                   21.9139(9)
_cell_angle_alpha                90
_cell_angle_beta                 90.067(3)
_cell_angle_gamma                90
_cell_volume                     4488.6
loop_
_atom_site_label
_atom_site_type_symbol
_atom_site_fract_x
_atom_site_fract_y
_atom_site_fract_z
K1 K 0.5000 -0.0056(4) 1.0000
K2 K 0.5000 0.4901(4) 1.0000
O1 O 0.4619(5) 0.0166(14) 0.8898(5)
O2 O 0.3777(5) -0.0210(15) 0.9838(6)
O3 O 0.4231(6) -0.0275(15) 1.1039(6)
O4 O 0.4250(6) 0.4758(16) 0.8982(6)
O5 O 0.3763(6) 0.4799(16) 1.0155(6)
O6 O 0.5415(5) 0.5222(13) 0.8878(6)
O7 O 0.5000 -0.2108(17) 1.0000
O8 O 0.5000 0.202(2) 1.0000
C1 C 0.5562(8) 0.068(2) 0.8535(8)
C2 C 0.5988(7) 0.1299(14) 0.8149(7)
H1 H 0.6407 0.1036 0.8148
C3 C 0.5713(7) 0.2505(14) 0.7703(7)
H2 H 0.5966 0.3130 0.7473
C4 C 0.5188(7) 0.2559(18) 0.7679(7)
H3 H 0.5040 0.3187 0.7372
C5 C 0.4697(7) 0.1843(19) 0.8034(8)
H4 H 0.4272 0.1997 0.7977
C6 C 0.4960(8) 0.087(2) 0.8481(8)
C7 C 0.3932(8) 0.025(2) 0.8779(8)
H5 H 0.3832 -0.0059 0.8358
H6 H 0.3776 0.1227 0.8845
C8 C 0.3666(8) -0.082(2) 0.9261(8)
H7 H 0.3223 -0.0959 0.9195
H8 H 0.3870 -0.1766 0.9228
C9 C 0.3512(9) -0.115(2) 1.0306(8)
H9 H 0.3719 -0.2090 1.0304
H10 H 0.3072 -0.1299 1.0227
C10 C 0.3608(8) -0.038(2) 1.0935(8)
H11 H 0.3420 0.0580 1.0927
H12 H 0.3413 -0.0945 1.1265
C11 C 0.5030(7) 0.587(2) 0.8472(7)
C12 C 0.5283(8) 0.686(2) 0.8077(7)
H13 H 0.5712 0.7005 0.8074
C13 C 0.4927(6) 0.7599(17) 0.7702(7)
H14 H 0.5088 0.8289 0.7428
C14 C 0.4208(6) 0.7268(15) 0.7738(7)
H15 H 0.3935 0.7734 0.7466
C15 C 0.3988(6) 0.6330(15) 0.8154(7)
H16 H 0.3566 0.6107 0.8179
C16 C 0.4413(8) 0.571(2) 0.8539(8)
C17 C 0.3596(8) 0.464(2) 0.9109(8)
H17 H 0.3413 0.5608 0.9127
H18 H 0.3393 0.4104 0.8776
C18 C 0.3496(7) 0.390(2) 0.9692(8)
H19 H 0.3054 0.3767 0.9768
H20 H 0.3695 0.2948 0.9689
C19 C 0.6332(8) 0.419(2) 0.9274(7)
H21 H 0.6122 0.3256 0.9247
H22 H 0.6774 0.4036 0.9205
C20 C 0.6080(7) 0.521(2) 0.8801(8)
H23 H 0.6249 0.6179 0.8862
H24 H 0.6188 0.4879 0.8386
O1A O 0.5381(5) 0.0166(14) 1.1102(5)
O2A O 0.6223(5) -0.0210(15) 1.0162(6)
O3A O 0.5769(6) -0.0275(15) 0.8961(6)
C1A C 0.4438(8) 0.068(2) 1.1465(8)
C2A C 0.4012(7) 0.1299(14) 1.1851(7)
H1A H 0.3593 0.1036 1.1852
C3A C 0.4287(7) 0.2505(14) 1.2297(7)
H2A H 0.4034 0.3130 1.2527
C4A C 0.4812(7) 0.2559(18) 1.2321(7)
H3A H 0.4960 0.3187 1.2628
C5A C 0.5303(7) 0.1843(19) 1.1966(8)
H4A H 0.5728 0.1997 1.2023
C6A C 0.5040(8) 0.087(2) 1.1519(8)
C7A C 0.6068(8) 0.025(2) 1.1221(8)
H5A H 0.6168 -0.0059 1.1642
H6A H 0.6224 0.1227 1.1155
C8A C 0.6334(8) -0.082(2) 1.0739(8)
H7A H 0.6777 -0.0959 1.0805
H8A H 0.6130 -0.1766 1.0772
C9A C 0.6488(9) -0.115(2) 0.9694(8)
H9A H 0.6281 -0.2090 0.9696
H10A H 0.6928 -0.1299 0.9773
C10A C 0.6392(8) -0.038(2) 0.9065(8)
H11A H 0.6580 0.0580 0.9073
H12A H 0.6587 -0.0945 0.8735
O4A O 0.5750(6) 0.4758(16) 1.1018(6)
O5A O 0.6237(6) 0.4799(16) 0.9845(6)
O6A O 0.4585(5) 0.5222(13) 1.1122(6)
C11A C 0.4970(7) 0.587(2) 1.1528(7)
C12A C 0.4717(8) 0.686(2) 1.1923(7)
H13A H 0.4288 0.7005 1.1926
C13A C 0.5073(6) 0.7599(17) 1.2298(7)
H14A H 0.4912 0.8289 1.2572
C14A C 0.5792(6) 0.7268(15) 1.2262(7)
H15A H 0.6065 0.7734 1.2534
C15A C 0.6012(6) 0.6330(15) 1.1846(7)
H16A H 0.6434 0.6107 1.1821
C16A C 0.5587(8) 0.571(2) 1.1461(8)
C17A C 0.6404(8) 0.464(2) 1.0891(8)
H17A H 0.6587 0.5608 1.0873
H18A H 0.6607 0.4104 1.1224
C18A C 0.6504(7) 0.390(2) 1.0308(8)
H19A H 0.6946 0.3767 1.0232
H20A H 0.6305 0.2948 1.0311
C19A C 0.3668(8) 0.419(2) 1.0726(7)
H21A H 0.3878 0.3256 1.0753
H22A H 0.3226 0.4036 1.0795
C20A C 0.3920(7) 0.521(2) 1.1199(8)
H23A H 0.3751 0.6179 1.1138
H24A H 0.3812 0.4879 1.1614
K2_2 K 0.5000 -0.5099(4) 1.0000
O7_2 O 0.5000 0.7892(17) 1.0000
K3 K 1.0000 0.3540(4) 1.0000
O9 O 0.8942(6) 0.3499(17) 0.9376(6)
O10 O 1.0064(6) 0.3357(15) 0.8733(6)
O11 O 0.8880(5) 0.3647(14) 1.0544(6)
O12 O 1.0000 0.057(2) 1.0000
O13 O 1.0000 0.6565(16) 1.0000
C21 C 0.8489(8) 0.4511(19) 1.0230(9)
C22 C 0.8088(8) 0.542(2) 1.0531(9)
H25 H 0.8085 0.5522 1.0962
C23 C 0.7659(6) 0.6232(17) 1.0120(7)
H26 H 0.7363 0.6844 1.0299
C24 C 0.7680(7) 0.6119(17) 0.9500(7)
H27 H 0.7404 0.6658 0.9258
C25 C 0.8111(7) 0.5205(19) 0.9212(7)
H28 H 0.8143 0.5163 0.8780
C26 C 0.8500(7) 0.4340(16) 0.9599(8)
C27 C 0.8954(7) 0.334(2) 0.8742(9)
H29 H 0.8956 0.4288 0.8541
H30 H 0.8591 0.2803 0.8601
C28 C 0.9511(7) 0.2552(19) 0.8592(9)
H31 H 0.9516 0.1642 0.8824
H32 H 0.9508 0.2314 0.8152
C29 C 0.9356(7) 0.2744(18) 1.1414(8)
H33 H 0.9324 0.2629 1.1862
H34 H 0.9326 0.1782 1.1227
C30 C 0.8841(6) 0.364(2) 1.1194(8)
H35 H 0.8446 0.3236 1.1327
H36 H 0.8876 0.4629 1.1355
O9A O 1.1058(6) 0.3499(17) 1.0624(6)
O10A O 0.9936(6) 0.3357(15) 1.1267(6)
O11A O 1.1120(5) 0.3647(14) 0.9456(6)
C21A C 1.1511(8) 0.4511(19) 0.9770(9)
C22A C 1.1912(8) 0.542(2) 0.9469(9)
H25A H 1.1915 0.5522 0.9038
C23A C 1.2341(6) 0.6232(17) 0.9880(7)
H26A H 1.2637 0.6844 0.9701
C24A C 1.2320(7) 0.6119(17) 1.0500(7)
H27A H 1.2596 0.6658 1.0742
C25A C 1.1889(7) 0.5205(19) 1.0788(7)
H28A H 1.1857 0.5163 1.1220
C26A C 1.1500(7) 0.4340(16) 1.0401(8)
C27A C 1.1046(7) 0.334(2) 1.1258(9)
H29A H 1.1044 0.4288 1.1459
H30A H 1.1409 0.2803 1.1399
C28A C 1.0489(7) 0.2552(19) 1.1408(9)
H31A H 1.0484 0.1642 1.1176
H32A H 1.0492 0.2314 1.1848
C29A C 1.0644(7) 0.2744(18) 0.8586(8)
H33A H 1.0676 0.2629 0.8138
H34A H 1.0674 0.1782 0.8773
C30A C 1.1159(6) 0.364(2) 0.8806(8)
H35A H 1.1554 0.3236 0.8673
H36A H 1.1124 0.4629 0.8645
K4 K 0.5000 0.9208(4) 0.5000
O14 O 0.3897(6) 0.9129(14) 0.4451(6)
O15 O 0.4939(6) 0.9391(16) 0.3728(6)
O16 O 0.3937(6) 0.9188(14) 0.5627(6)
O17 O 0.5000 0.6211(15) 0.5000
C31 C 0.3516(8) 0.831(2) 0.5423(8)
C32 C 0.3120(8) 0.753(2) 0.5778(7)
H37 H 0.3121 0.7566 0.6211
C33 C 0.2684(7) 0.6606(18) 0.5418(6)
H38 H 0.2396 0.6052 0.5639
C34 C 0.2675(7) 0.6512(18) 0.4787(6)
H39 H 0.2389 0.5927 0.4578
C35 C 0.3062(8) 0.7236(17) 0.4510(7)
H40 H 0.3073 0.7106 0.4080
C36 C 0.3478(8) 0.820(2) 0.4742(8)
C37 C 0.3855(8) 0.921(2) 0.3819(8)
H41 H 0.3458 0.9627 0.3698
H42 H 0.3888 0.8241 0.3638
C38 C 0.4371(9) 1.014(2) 0.3600(9)
H43 H 0.4331 1.0320 0.3156
H44 H 0.4364 1.1073 0.3814
C39 C 0.5427(7) 1.0287(19) 0.3570(8)
H45 H 0.5407 1.1194 0.3802
H46 H 0.5415 1.0511 0.3128
C40 C 0.3969(8) 0.944(2) 0.6267(8)
H47 H 0.3963 0.8518 0.6487
H48 H 0.3609 1.0004 0.6397
O18 O 0.5000 1.205(2) 0.5000
O14A O 0.6103(6) 0.9129(14) 0.5549(6)
O15A O 0.5061(6) 0.9391(16) 0.6272(6)
O16A O 0.6063(6) 0.9188(14) 0.4373(6)
C31A C 0.6484(8) 0.831(2) 0.4577(8)
C32A C 0.6880(8) 0.753(2) 0.4222(7)
H37A H 0.6879 0.7566 0.3789
C33A C 0.7316(7) 0.6606(18) 0.4582(6)
H38A H 0.7604 0.6052 0.4361
C34A C 0.7325(7) 0.6512(18) 0.5213(6)
H39A H 0.7611 0.5927 0.5422
C35A C 0.6938(8) 0.7236(17) 0.5490(7)
H40A H 0.6927 0.7106 0.5920
C36A C 0.6522(8) 0.820(2) 0.5258(8)
C37A C 0.6145(8) 0.921(2) 0.6181(8)
H41A H 0.6542 0.9627 0.6302
H42A H 0.6112 0.8241 0.6362
C38A C 0.5629(9) 1.014(2) 0.6400(9)
H43A H 0.5669 1.0320 0.6844
H44A H 0.5636 1.1073 0.6186
C39A C 0.4573(7) 1.0287(19) 0.6430(8)
H45A H 0.4593 1.1194 0.6198
H46A H 0.4585 1.0511 0.6872
C40A C 0.6031(8) 0.944(2) 0.3733(8)
H47A H 0.6037 0.8518 0.3513
H48A H 0.6391 1.0004 0.3603
O19 O 1.1096(6) 0.8745(15) 1.0539(6)
O20 O 1.0060(6) 0.8396(16) 1.1269(6)
O21 O 1.1053(6) 0.8439(14) 0.9378(6)
C41 C 1.1510(7) 0.9409(19) 0.9627(8)
C42 C 1.1905(7) 1.0216(19) 0.9297(7)
H49 H 1.1903 1.0049 0.8869
C43 C 1.2276(6) 1.1160(16) 0.9481(6)
H50 H 1.2515 1.1728 0.9213
C44 C 1.2299(7) 1.1285(16) 1.0108(6)
H51 H 1.2568 1.1977 1.0278
C45 C 1.1918(7) 1.0375(16) 1.0545(8)
H52 H 1.1957 1.0380 1.0976
C46 C 1.1503(8) 0.953(2) 1.0218(9)
C47 C 1.1120(8) 0.865(2) 1.1203(8)
H53 H 1.1069 0.9615 1.1385
H54 H 1.1518 0.8262 1.1335
C48 C 1.0624(9) 0.771(2) 1.1401(9)
H55 H 1.0648 0.6783 1.1182
H56 H 1.0658 0.7519 1.1844
C49 C 1.0490(7) 0.7579(19) 0.8601(8)
H57 H 1.0496 0.6703 0.8855
H58 H 1.0490 0.7284 0.8167
C50 C 1.1011(8) 0.839(2) 0.8723(8)
H59 H 1.0968 0.9371 0.8553
H60 H 1.1378 0.7941 0.8545
O19A O 0.8904(6) 0.8745(15) 0.9461(6)
O20A O 0.9940(6) 0.8396(16) 0.8731(6)
O21A O 0.8947(6) 0.8439(14) 1.0622(6)
C41A C 0.8490(7) 0.9409(19) 1.0373(8)
C42A C 0.8095(7) 1.0216(19) 1.0703(7)
H49A H 0.8097 1.0049 1.1131
C43A C 0.7724(6) 1.1160(16) 1.0519(6)
H50A H 0.7485 1.1728 1.0787
C44A C 0.7701(7) 1.1285(16) 0.9892(6)
H51A H 0.7432 1.1977 0.9722
C45A C 0.8082(7) 1.0375(16) 0.9455(8)
H52A H 0.8043 1.0380 0.9024
C46A C 0.8497(8) 0.953(2) 0.9782(9)
C47A C 0.8880(8) 0.865(2) 0.8797(8)
H53A H 0.8931 0.9615 0.8615
H54A H 0.8482 0.8262 0.8665
C48A C 0.9376(9) 0.771(2) 0.8599(9)
H55A H 0.9352 0.6783 0.8818
H56A H 0.9342 0.7519 0.8156
C49A C 0.9510(7) 0.7579(19) 1.1399(8)
H57A H 0.9504 0.6703 1.1145
H58A H 0.9510 0.7284 1.1833
C50A C 0.8989(8) 0.839(2) 1.1277(8)
H59A H 0.9032 0.9371 1.1447
H60A H 0.8622 0.7941 1.1455
O22 O 0.3936(6) 0.4260(16) 0.4377(6)
O23 O 0.5043(6) 0.4363(15) 0.3715(6)
O24 O 0.3929(5) 0.4022(15) 0.5553(5)
C51 C 0.3497(9) 0.318(2) 0.5250(9)
C52 C 0.3068(9) 0.231(2) 0.5517(9)
H61 H 0.3024 0.2341 0.5948
C53 C 0.2719(7) 0.1451(17) 0.5205(7)
H62 H 0.2466 0.0776 0.5408
C54 C 0.2721(7) 0.1534(18) 0.4579(7)
H63 H 0.2468 0.0922 0.4342
C55 C 0.3101(8) 0.253(2) 0.4296(7)
H64 H 0.3065 0.2695 0.3869
C56 C 0.3513(8) 0.3263(18) 0.4616(8)
C57 C 0.3996(8) 0.435(2) 0.3726(8)
H65 H 0.3628 0.4800 0.3547
H66 H 0.4046 0.3389 0.3549
C58 C 0.4571(7) 0.529(2) 0.3588(9)
H67 H 0.4579 0.5600 0.3156
H68 H 0.4586 0.6144 0.3855
C59 C 0.5595(7) 0.5170(18) 0.3608(8)
H69 H 0.5598 0.6058 0.3854
H70 H 0.5635 0.5422 0.3172
C60 C 0.6094(7) 0.418(2) 0.3803(8)
H71 H 0.6042 0.3242 0.3603
H72 H 0.6494 0.4581 0.3681
O22A O 0.6064(6) 0.4260(16) 0.5623(6)
O23A O 0.4957(6) 0.4363(15) 0.6285(6)
O24A O 0.6071(5) 0.4022(15) 0.4447(5)
C51A C 0.6503(9) 0.318(2) 0.4750(9)
C52A C 0.6932(9) 0.231(2) 0.4483(9)
H61A H 0.6976 0.2341 0.4052
C53A C 0.7281(7) 0.1451(17) 0.4795(7)
H62A H 0.7534 0.0776 0.4592
C54A C 0.7279(7) 0.1534(18) 0.5421(7)
H63A H 0.7532 0.0922 0.5658
C55A C 0.6899(8) 0.253(2) 0.5704(7)
H64A H 0.6935 0.2695 0.6131
C56A C 0.6487(8) 0.3263(18) 0.5384(8)
C57A C 0.6004(8) 0.435(2) 0.6274(8)
H65A H 0.6372 0.4800 0.6453
H66A H 0.5954 0.3389 0.6451
C58A C 0.5429(7) 0.529(2) 0.6412(9)
H67A H 0.5421 0.5600 0.6844
H68A H 0.5414 0.6144 0.6145
C59A C 0.4405(7) 0.5170(18) 0.6392(8)
H69A H 0.4402 0.6058 0.6146
H70A H 0.4365 0.5422 0.6828
C60A C 0.3906(7) 0.418(2) 0.6197(8)
H71A H 0.3958 0.3242 0.6397
H72A H 0.3506 0.4581 0.6319
O25 O 1.0428(5) 0.7617(15) 0.6152(5)
O26 O 1.1270(5) 0.7917(15) 0.5173(6)
O27 O 0.9253(5) 0.7990(14) 0.6013(6)
C61 C 0.9391(8) 0.707(2) 0.6480(9)
C62 C 0.9043(7) 0.6241(14) 0.6875(8)
H73 H 0.8613 0.6294 0.6821
C63 C 0.9212(6) 0.5495(14) 0.7263(7)
H74 H 0.8928 0.5130 0.7551
C64 C 0.9917(6) 0.5072(17) 0.7322(7)
H75 H 1.0077 0.4373 0.7593
C65 C 1.0242(6) 0.583(2) 0.6939(7)
H76 H 1.0670 0.5676 0.6957
C66 C 1.0063(8) 0.6770(19) 0.6538(9)
C67 C 1.1032(8) 0.760(2) 0.6211(9)
H77 H 1.1183 0.6610 0.6168
H78 H 1.1144 0.7946 0.6624
C68 C 1.1317(8) 0.849(2) 0.5765(8)
H79 H 1.1754 0.8600 0.5870
H80 H 1.1126 0.9445 0.5772
C69 C 0.8523(8) 0.883(2) 0.5291(8)
H81 H 0.8089 0.9073 0.5222
H82 H 0.8764 0.9722 0.5292
C70 C 0.8592(8) 0.809(2) 0.5880(8)
H83 H 0.8382 0.8632 0.6206
H84 H 0.8410 0.7120 0.5858
O25A O 0.9572(5) 0.7617(15) 0.3848(5)
O26A O 0.8730(5) 0.7917(15) 0.4827(6)
O27A O 1.0747(5) 0.7990(14) 0.3987(6)
C61A C 1.0609(8) 0.707(2) 0.3520(9)
C62A C 1.0957(7) 0.6241(14) 0.3125(8)
H73A H 1.1387 0.6294 0.3179
C63A C 1.0788(6) 0.5495(14) 0.2737(7)
H74A H 1.1072 0.5130 0.2449
C64A C 1.0083(6) 0.5072(17) 0.2678(7)
H75A H 0.9923 0.4373 0.2407
C65A C 0.9758(6) 0.583(2) 0.3061(7)
H76A H 0.9330 0.5676 0.3043
C66A C 0.9937(8) 0.6770(19) 0.3462(9)
C67A C 0.8968(8) 0.760(2) 0.3789(9)
H77A H 0.8817 0.6610 0.3832
H78A H 0.8856 0.7946 0.3376
C68A C 0.8683(8) 0.849(2) 0.4235(8)
H79A H 0.8246 0.8600 0.4130
H80A H 0.8874 0.9445 0.4228
C69A C 1.1477(8) 0.883(2) 0.4709(8)
H81A H 1.1911 0.9073 0.4778
H82A H 1.1236 0.9722 0.4708
C70A C 1.1408(8) 0.809(2) 0.4120(8)
H83A H 1.1618 0.8632 0.3794
H84A H 1.1590 0.7120 0.4142
O28 O 0.9240(5) 0.2986(15) 0.3969(6)
O29 O 0.8757(5) 0.2930(15) 0.5174(6)
O30 O 1.0394(5) 0.2668(13) 0.3860(6)
C71 C 1.0069(7) 0.1760(18) 0.3471(8)
C72 C 1.0265(8) 0.085(2) 0.3029(7)
H85 H 1.0689 0.0706 0.2963
C73 C 0.9814(6) 0.0115(17) 0.2657(7)
H86 H 0.9951 -0.0501 0.2341
C74 C 0.9295(6) 0.0247(14) 0.2731(7)
H87 H 0.9021 -0.0344 0.2508
C75 C 0.9063(6) 0.1231(15) 0.3131(7)
H88 H 0.8633 0.1349 0.3151
C76 C 0.9434(9) 0.208(2) 0.3518(8)
C77 C 0.8611(8) 0.306(2) 0.4074(8)
H89 H 0.8432 0.2084 0.4097
H90 H 0.8403 0.3596 0.3746
C78 C 0.8550(7) 0.385(2) 0.4704(8)
H91 H 0.8797 0.4740 0.4700
H92 H 0.8118 0.4119 0.4777
C79 C 0.8685(8) 0.354(2) 0.5779(8)
H93 H 0.8246 0.3645 0.5874
H94 H 0.8878 0.4493 0.5796
C80 C 0.8977(7) 0.257(2) 0.6229(8)
H95 H 0.8870 0.2864 0.6649
H96 H 0.8838 0.1573 0.6166
O28A O 1.0760(5) 0.2986(15) 0.6031(6)
O29A O 1.1243(5) 0.2930(15) 0.4826(6)
O30A O 0.9606(5) 0.2668(13) 0.6140(6)
C71A C 0.9931(7) 0.1760(18) 0.6529(8)
C72A C 0.9735(8) 0.085(2) 0.6971(7)
H85A H 0.9311 0.0706 0.7037
C73A C 1.0186(6) 0.0115(17) 0.7343(7)
H86A H 1.0049 -0.0501 0.7659
C74A C 1.0705(6) 0.0247(14) 0.7269(7)
H87A H 1.0979 -0.0344 0.7492
C75A C 1.0937(6) 0.1231(15) 0.6869(7)
H88A H 1.1367 0.1349 0.6849
C76A C 1.0566(9) 0.208(2) 0.6482(8)
C77A C 1.1389(8) 0.306(2) 0.5926(8)
H89A H 1.1568 0.2084 0.5903
H90A H 1.1597 0.3596 0.6254
C78A C 1.1450(7) 0.385(2) 0.5296(8)
H91A H 1.1203 0.4740 0.5300
H92A H 1.1882 0.4119 0.5223
C79A C 1.1315(8) 0.354(2) 0.4221(8)
H93A H 1.1754 0.3645 0.4126
H94A H 1.1122 0.4493 0.4204
C80A C 1.1023(7) 0.257(2) 0.3771(8)
H95A H 1.1130 0.2864 0.3351
H96A H 1.1162 0.1573 0.3834
O31 O 1.0000 0.060(3) 0.5000
O32 O 1.0000 0.496(2) 0.5000
I1 I 0.77716(8) 0.57741(15) 0.25482(7)
I2 I 0.74978(8) 0.8886(3) 0.25027(8)
I3 I 0.72438(9) 1.19168(15) 0.24630(9)
I4 I 0.77644(6) 0.08349(12) 0.74571(6)
I5 I 0.74789(8) 0.3898(3) 0.75020(8)
I6 I 0.72374(11) 0.69733(17) 0.75495(11)
loop_
_geom_bond_atom_site_label_1
_geom_bond_atom_site_label_2
_geom_bond_site_symmetry_1
_geom_bond_site_symmetry_2
K1 O1 1_555 1_555
K2 O4 1_555 1_555
O1 C6 1_555 1_555
O2 K1 1_555 1_555
O3 K1 1_555 1_555
O4 C16 1_555 1_555
O5 K2 1_555 1_555
O6 K2 1_555 1_555
O7 K1 1_555 1_555
O8 K1 1_555 1_555
C1 C2 1_555 1_555
C2 H1 1_555 1_555
C3 C2 1_555 1_555
H2 C3 1_555 1_555
C4 C3 1_555 1_555
H3 C4 1_555 1_555
C5 C4 1_555 1_555
H4 C5 1_555 1_555
C6 C1 1_555 1_555
C7 O1 1_555 1_555
H5 C7 1_555 1_555
H6 C7 1_555 1_555
C8 O2 1_555 1_555
H7 C8 1_555 1_555
H8 C8 1_555 1_555
C9 O2 1_555 1_555
H9 C9 1_555 1_555
H10 C9 1_555 1_555
C10 O3 1_555 1_555
H11 C10 1_555 1_555
H12 C10 1_555 1_555
C11 O6 1_555 1_555
C12 C11 1_555 1_555
H13 C12 1_555 1_555
C13 C12 1_555 1_555
H14 C13 1_555 1_555
C14 C13 1_555 1_555
H15 C14 1_555 1_555
C15 C14 1_555 1_555
H16 C15 1_555 1_555
C16 C11 1_555 1_555
C17 O4 1_555 1_555
H17 C17 1_555 1_555
H18 C17 1_555 1_555
C18 O5 1_555 1_555
H19 C18 1_555 1_555
H20 C18 1_555 1_555
C19 H21 1_555 1_555
H22 C19 1_555 1_555
C20 O6 1_555 1_555
H23 C20 1_555 1_555
H24 C20 1_555 1_555
K3 O9 1_555 1_555
O9 C26 1_555 1_555
O10 K3 1_555 1_555
O11 K3 1_555 1_555
O12 K3 1_555 1_555
O13 K3 1_555 1_555
C21 O11 1_555 1_555
C22 C21 1_555 1_555
H25 C22 1_555 1_555
C23 C22 1_555 1_555
H26 C23 1_555 1_555
C24 C23 1_555 1_555
H27 C24 1_555 1_555
C25 C24 1_555 1_555
H28 C25 1_555 1_555
C26 C21 1_555 1_555
C27 O9 1_555 1_555
H29 C27 1_555 1_555
H30 C27 1_555 1_555
C28 O10 1_555 1_555
H31 C28 1_555 1_555
H32 C28 1_555 1_555
C29 H33 1_555 1_555
H34 C29 1_555 1_555
C30 O11 1_555 1_555
H35 C30 1_555 1_555
H36 C30 1_555 1_555
K4 O14 1_555 1_555
O14 C36 1_555 1_555
O15 K4 1_555 1_555
O16 K4 1_555 1_555
O17 K4 1_555 1_555
C31 O16 1_555 1_555
C32 C31 1_555 1_555
H37 C32 1_555 1_555
C33 C32 1_555 1_555
H38 C33 1_555 1_555
C34 C33 1_555 1_555
H39 C34 1_555 1_555
C35 C34 1_555 1_555
H40 C35 1_555 1_555
C36 C31 1_555 1_555
C37 O14 1_555 1_555
H41 C37 1_555 1_555
H42 C37 1_555 1_555
C38 O15 1_555 1_555
H43 C38 1_555 1_555
H44 C38 1_555 1_555
C39 O15 1_555 1_555
H45 C39 1_555 1_555
H46 C39 1_555 1_555
C40 O16 1_555 1_555
H47 C40 1_555 1_555
H48 C40 1_555 1_555
O18 K4 1_555 1_555
O19 C46 1_555 1_555
O20 C48 1_555 1_555
O21 C41 1_555 1_555
C41 C42 1_555 1_555
C42 H49 1_555 1_555
C43 C42 1_555 1_555
H50 C43 1_555 1_555
C44 C43 1_555 1_555
H51 C44 1_555 1_555
C45 C44 1_555 1_555
H52 C45 1_555 1_555
C46 C41 1_555 1_555
C47 O19 1_555 1_555
H53 C47 1_555 1_555
H54 C47 1_555 1_555
C48 C47 1_555 1_555
H55 C48 1_555 1_555
H56 C48 1_555 1_555
C49 H57 1_555 1_555
H58 C49 1_555 1_555
C50 O21 1_555 1_555
H59 C50 1_555 1_555
H60 C50 1_555 1_555
O22 C56 1_555 1_555
O23 C58 1_555 1_555
O24 C51 1_555 1_555
C51 C52 1_555 1_555
C52 H61 1_555 1_555
C53 C52 1_555 1_555
H62 C53 1_555 1_555
C54 C53 1_555 1_555
H63 C54 1_555 1_555
C55 C54 1_555 1_555
H64 C55 1_555 1_555
C56 C51 1_555 1_555
C57 O22 1_555 1_555
H65 C57 1_555 1_555
H66 C57 1_555 1_555
C58 C57 1_555 1_555
H67 C58 1_555 1_555
H68 C58 1_555 1_555
C59 O23 1_555 1_555
H69 C59 1_555 1_555
H70 C59 1_555 1_555
C60 C59 1_555 1_555
H71 C60 1_555 1_555
H72 C60 1_555 1_555
O25 C66 1_555 1_555
O26 C68 1_555 1_555
O27 C61 1_555 1_555
C61 C62 1_555 1_555
C62 H73 1_555 1_555
C63 C62 1_555 1_555
H74 C63 1_555 1_555
C64 C63 1_555 1_555
H75 C64 1_555 1_555
C65 C64 1_555 1_555
H76 C65 1_555 1_555
C66 C61 1_555 1_555
C67 O25 1_555 1_555
H77 C67 1_555 1_555
H78 C67 1_555 1_555
C68 C67 1_555 1_555
H79 C68 1_555 1_555
H80 C68 1_555 1_555
C69 H81 1_555 1_555
H82 C69 1_555 1_555
C70 O27 1_555 1_555
H83 C70 1_555 1_555
H84 C70 1_555 1_555
O28 C76 1_555 1_555
O29 C78 1_555 1_555
O30 C71 1_555 1_555
C71 C72 1_555 1_555
C72 H85 1_555 1_555
C73 C72 1_555 1_555
H86 C73 1_555 1_555
C74 C73 1_555 1_555
H87 C74 1_555 1_555
C75 C74 1_555 1_555
H88 C75 1_555 1_555
C76 C71 1_555 1_555
C77 O28 1_555 1_555
H89 C77 1_555 1_555
H90 C77 1_555 1_555
C78 C77 1_555 1_555
H91 C78 1_555 1_555
H92 C78 1_555 1_555
C79 O29 1_555 1_555
H93 C79 1_555 1_555
H94 C79 1_555 1_555
C80 C79 1_555 1_555
H95 C80 1_555 1_555
H96 C80 1_555 1_555
I1 I2 1_555 1_555
I2 I3 1_555 1_555
I4 I5 1_555 1_555
I5 I6 1_555 1_555
O1A K1 1_555 1_555
O2A K1 1_555 1_555
O3A K1 1_555 1_555
C1A O3 1_555 1_555
C2A C1A 1_555 1_555
H1A C2A 1_555 1_555
C3A C2A 1_555 1_555
H2A C3A 1_555 1_555
C4A C3A 1_555 1_555
H3A C4A 1_555 1_555
C5A C4A 1_555 1_555
H4A C5A 1_555 1_555
C6A O1A 1_555 1_555
C7A O1A 1_555 1_555
H5A C7A 1_555 1_555
H6A C7A 1_555 1_555
C8A O2A 1_555 1_555
H7A C8A 1_555 1_555
H8A C8A 1_555 1_555
C9A O2A 1_555 1_555
H9A C9A 1_555 1_555
H10A C9A 1_555 1_555
C10A O3A 1_555 1_555
H11A C10A 1_555 1_555
H12A C10A 1_555 1_555
O4A K2 1_555 1_555
O5A K2 1_555 1_555
O6A K2 1_555 1_555
C11A O6A 1_555 1_555
C12A C11A 1_555 1_555
H13A C12A 1_555 1_555
C13A C12A 1_555 1_555
H14A C13A 1_555 1_555
C14A C13A 1_555 1_555
H15A C14A 1_555 1_555
C15A C14A 1_555 1_555
H16A C15A 1_555 1_555
C16A O4A 1_555 1_555
C17A O4A 1_555 1_555
H17A C17A 1_555 1_555
H18A C17A 1_555 1_555
C18A O5A 1_555 1_555
H19A C18A 1_555 1_555
H20A C18A 1_555 1_555
C19A O5 1_555 1_555
H21A C19A 1_555 1_555
H22A C19A 1_555 1_555
C20A O6A 1_555 1_555
H23A C20A 1_555 1_555
H24A C20A 1_555 1_555
K2_2 O7 1_555 1_555
O7_2 K2 1_555 1_555
O9A K3 1_555 1_555
O10A K3 1_555 1_555
O11A K3 1_555 1_555
C21A O11A 1_555 1_555
C22A C21A 1_555 1_555
H25A C22A 1_555 1_555
C23A C22A 1_555 1_555
H26A C23A 1_555 1_555
C24A C23A 1_555 1_555
H27A C24A 1_555 1_555
C25A C24A 1_555 1_555
H28A C25A 1_555 1_555
C26A O9A 1_555 1_555
C27A O9A 1_555 1_555
H29A C27A 1_555 1_555
H30A C27A 1_555 1_555
C28A O10A 1_555 1_555
H31A C28A 1_555 1_555
H32A C28A 1_555 1_555
C29A O10 1_555 1_555
H33A C29A 1_555 1_555
H34A C29A 1_555 1_555
C30A O11A 1_555 1_555
H35A C30A 1_555 1_555
H36A C30A 1_555 1_555
O14A K4 1_555 1_555
O15A K4 1_555 1_555
O16A K4 1_555 1_555
C31A O16A 1_555 1_555
C32A C31A 1_555 1_555
H37A C32A 1_555 1_555
C33A C32A 1_555 1_555
H38A C33A 1_555 1_555
C34A C33A 1_555 1_555
H39A C34A 1_555 1_555
C35A C34A 1_555 1_555
H40A C35A 1_555 1_555
C36A O14A 1_555 1_555
C37A O14A 1_555 1_555
H41A C37A 1_555 1_555
H42A C37A 1_555 1_555
C38A O15A 1_555 1_555
H43A C38A 1_555 1_555
H44A C38A 1_555 1_555
C39A C40 1_555 1_555
H45A C39A 1_555 1_555
H46A C39A 1_555 1_555
C40A C39 1_555 1_555
H47A C40A 1_555 1_555
H48A C40A 1_555 1_555
O19A C46A 1_555 1_555
O20A C49 1_555 1_555
O21A C41A 1_555 1_555
C41A C42A 1_555 1_555
C42A H49A 1_555 1_555
C43A C42A 1_555 1_555
H50A C43A 1_555 1_555
C44A C43A 1_555 1_555
H51A C44A 1_555 1_555
C45A C44A 1_555 1_555
H52A C45A 1_555 1_555
C46A C41A 1_555 1_555
C47A O19A 1_555 1_555
H53A C47A 1_555 1_555
H54A C47A 1_555 1_555
C48A O20A 1_555 1_555
H55A C48A 1_555 1_555
H56A C48A 1_555 1_555
C49A O20 1_555 1_555
H57A C49A 1_555 1_555
H58A C49A 1_555 1_555
C50A O21A 1_555 1_555
H59A C50A 1_555 1_555
H60A C50A 1_555 1_555
O22A C56A 1_555 1_555
O23A C58A 1_555 1_555
O24A C60 1_555 1_555
C51A O24A 1_555 1_555
C52A C51A 1_555 1_555
H61A C52A 1_555 1_555
C53A C52A 1_555 1_555
H62A C53A 1_555 1_555
C54A C53A 1_555 1_555
H63A C54A 1_555 1_555
C55A C54A 1_555 1_555
H64A C55A 1_555 1_555
C56A C51A 1_555 1_555
C57A O22A 1_555 1_555
H65A C57A 1_555 1_555
H66A C57A 1_555 1_555
C58A C57A 1_555 1_555
H67A C58A 1_555 1_555
H68A C58A 1_555 1_555
C59A O23A 1_555 1_555
H69A C59A 1_555 1_555
H70A C59A 1_555 1_555
C60A O24 1_555 1_555
H71A C60A 1_555 1_555
H72A C60A 1_555 1_555
O25A C66A 1_555 1_555
O26A C69 1_555 1_555
O27A C61A 1_555 1_555
C61A C62A 1_555 1_555
C62A H73A 1_555 1_555
C63A C62A 1_555 1_555
H74A C63A 1_555 1_555
C64A C63A 1_555 1_555
H75A C64A 1_555 1_555
C65A C64A 1_555 1_555
H76A C65A 1_555 1_555
C66A C61A 1_555 1_555
C67A O25A 1_555 1_555
H77A C67A 1_555 1_555
H78A C67A 1_555 1_555
C68A O26A 1_555 1_555
H79A C68A 1_555 1_555
H80A C68A 1_555 1_555
C69A O26 1_555 1_555
H81A C69A 1_555 1_555
H82A C69A 1_555 1_555
C70A O27A 1_555 1_555
H83A C70A 1_555 1_555
H84A C70A 1_555 1_555
O28A C76A 1_555 1_555
O29A C78A 1_555 1_555
O30A C80 1_555 1_555
C71A O30A 1_555 1_555
C72A C71A 1_555 1_555
H85A C72A 1_555 1_555
C73A C72A 1_555 1_555
H86A C73A 1_555 1_555
C74A C73A 1_555 1_555
H87A C74A 1_555 1_555
C75A C74A 1_555 1_555
H88A C75A 1_555 1_555
C76A C71A 1_555 1_555
C77A O28A 1_555 1_555
H89A C77A 1_555 1_555
H90A C77A 1_555 1_555
C78A C77A 1_555 1_555
H91A C78A 1_555 1_555
H92A C78A 1_555 1_555
C79A O29A 1_555 1_555
H93A C79A 1_555 1_555
H94A C79A 1_555 1_555
C80A O30 1_555 1_555
H95A C80A 1_555 1_555
H96A C80A 1_555 1_555
K2 O8 1_555 1_555
C1 O3A 1_555 1_555
C5 C6 1_555 1_555
C7 C8 1_555 1_555
C9 C10 1_555 1_555
C15 C16 1_555 1_555
C17 C18 1_555 1_555
C19 C20 1_555 1_555
C19 O5A 1_555 1_555
C25 C26 1_555 1_555
C27 C28 1_555 1_555
C29 C30 1_555 1_555
C29 O10A 1_555 1_555
C35 C36 1_555 1_555
C37 C38 1_555 1_555
C45 C46 1_555 1_555
C49 C50 1_555 1_555
C55 C56 1_555 1_555
C65 C66 1_555 1_555
C69 C70 1_555 1_555
C75 C76 1_555 1_555
C1A C6A 1_555 1_555
C5A C6A 1_555 1_555
C7A C8A 1_555 1_555
C9A C10A 1_555 1_555
C11A C16A 1_555 1_555
C15A C16A 1_555 1_555
C17A C18A 1_555 1_555
C19A C20A 1_555 1_555
C21A C26A 1_555 1_555
C25A C26A 1_555 1_555
C27A C28A 1_555 1_555
C29A C30A 1_555 1_555
O15A C39A 1_555 1_555
O16A C40A 1_555 1_555
C31A C36A 1_555 1_555
C35A C36A 1_555 1_555
C37A C38A 1_555 1_555
C45A C46A 1_555 1_555
C47A C48A 1_555 1_555
C49A C50A 1_555 1_555
C55A C56A 1_555 1_555
C59A C60A 1_555 1_555
C65A C66A 1_555 1_555
C67A C68A 1_555 1_555
C69A C70A 1_555 1_555
C75A C76A 1_555 1_555
C79A C80A 1_555 1_555

#END
