
#######################################################################
#
#                 Cambridge Crystallographic Data Centre
#                                CCDC 
#
#######################################################################
#
# If this CIF has been generated from an entry in the Cambridge 
# Structural Database, then it will include bibliographic, chemical, 
# crystal, experimental, refinement or atomic coordinate data resulting 
# from the CCDC's data processing and validation procedures.
#
#######################################################################

data_XIHCIB
_symmetry_cell_setting           orthorhombic
_symmetry_space_group_name_H-M   'P 21 21 21'
_symmetry_Int_Tables_number      19
_space_group_name_Hall           'P 2ac 2ab'
loop_
_symmetry_equiv_pos_site_id
_symmetry_equiv_pos_as_xyz
1 x,y,z
2 1/2-x,-y,1/2+z
3 1/2+x,1/2-y,-z
4 -x,1/2+y,1/2-z
_cell_length_a                   8.6769(6)
_cell_length_b                   9.0601(6)
_cell_length_c                   39.097(3)
_cell_angle_alpha                90
_cell_angle_beta                 90
_cell_angle_gamma                90
_cell_volume                     3073.56
loop_
_atom_site_label
_atom_site_type_symbol
_atom_site_fract_x
_atom_site_fract_y
_atom_site_fract_z
Ag1 Ag 0.73437(6) 0.02432(5) 0.625491(13)
N1 N 0.5999(7) 0.1304(6) 0.66876(15)
N2 N -0.2346(7) -0.0088(6) 0.7371(2)
N3 N 0.3099(7) 0.2804(6) 0.86450(13)
C1 C 0.3535(6) 0.1335(6) 0.74062(15)
C2 C 0.2348(7) 0.0479(6) 0.72650(13)
C3 C 0.1549(6) -0.0494(6) 0.74806(15)
C4 C 0.1817(6) -0.0527(7) 0.78295(15)
C5 C 0.3007(6) 0.0321(7) 0.79668(14)
C6 C 0.3905(7) 0.1241(6) 0.77533(15)
C7 C 0.4380(8) 0.2459(7) 0.7179(2)
H1 H 0.3611(8) 0.3133(7) 0.7076(2)
H2 H 0.5073(8) 0.3058(7) 0.7324(2)
C8 C 0.5289(8) 0.1789(7) 0.6904(2)
C9 C 0.1991(7) 0.0575(7) 0.68834(14)
H3 H 0.0887(11) 0.0409(43) 0.6846(2)
H4 H 0.2584(36) -0.0177(30) 0.6760(2)
H5 H 0.2273(43) 0.1556(17) 0.6798(3)
C10 C 0.0280(7) -0.1465(7) 0.7326(2)
H6 H 0.0526(7) -0.1678(7) 0.7084(2)
H7 H 0.0234(7) -0.2415(7) 0.7451(2)
C11 C -0.1210(8) -0.0732(7) 0.7347(2)
C12 C 0.0806(7) -0.1486(7) 0.8052(2)
H8 H -0.0268(9) -0.1396(34) 0.7977(7)
H9 H 0.0893(36) -0.1168(29) 0.8290(2)
H10 H 0.1136(30) -0.2517(9) 0.8032(8)
C13 C 0.3405(8) 0.0254(7) 0.83458(14)
H11 H 0.2731(8) -0.0480(7) 0.84589(14)
H12 H 0.4485(8) -0.0080(7) 0.83720(14)
C14 C 0.3218(7) 0.1696(7) 0.85168(15)
C15 C 0.5223(7) 0.2112(7) 0.7894(2)
H13 H 0.6078(18) 0.2103(35) 0.7730(5)
H14 H 0.5563(29) 0.1672(26) 0.8110(5)
H15 H 0.4894(14) 0.3132(13) 0.7934(9)
N4 N 0.6385(6) 0.1568(6) 0.58065(14)
N5 N 0.7838(7) 0.9694(7) 0.51282(15)
N6 N 0.4877(6) 0.4624(6) 0.38708(13)
C16 C 0.6420(7) 0.4112(6) 0.51247(14)
C17 C 0.7368(7) 0.5217(6) 0.52575(13)
C18 C 0.8344(6) 0.5985(6) 0.50307(15)
C19 C 0.8348(6) 0.5694(6) 0.46814(14)
C20 C 0.7449(6) 0.4527(6) 0.45581(13)
C21 C 0.6486(6) 0.3709(6) 0.47774(15)
C22 C 0.5228(7) 0.3369(7) 0.53538(15)
H16 H 0.4643(7) 0.4141(7) 0.54774(15)
H17 H 0.4490(7) 0.2820(7) 0.52084(15)
C23 C 0.5899(8) 0.2348(8) 0.5604(2)
C24 C 0.7377(7) 0.5557(6) 0.56365(13)
H18 H 0.7458(46) 0.6626(7) 0.56702(13)
H19 H 0.8259(28) 0.5067(37) 0.5744(2)
H20 H 0.6420(23) 0.5197(40) 0.5740(2)
C25 C 0.9368(7) 0.7210(7) 0.5174(2)
H21 H 0.9638(7) 0.6985(7) 0.5415(2)
H22 H 1.0335(7) 0.7269(7) 0.5041(2)
C26 C 0.8554(8) 0.8626(8) 0.5157(2)
C27 C 0.9327(7) 0.6634(7) 0.44481(15)
H23 H 0.9243(34) 0.7671(8) 0.4517(6)
H24 H 0.8968(28) 0.6524(33) 0.4212(2)
H25 H 1.0404(10) 0.6318(28) 0.4464(7)
C28 C 0.7478(7) 0.4109(6) 0.41792(13)
H26 H 0.8307(7) 0.4670(6) 0.40637(13)
H27 H 0.7723(7) 0.3045(6) 0.41578(13)
C29 C 0.6003(7) 0.4409(7) 0.40061(14)
C30 C 0.5520(7) 0.2446(6) 0.4645(2)
H28 H 0.5855(28) 0.2187(26) 0.4413(4)
H29 H 0.4434(9) 0.2741(15) 0.4640(9)
H30 H 0.5645(32) 0.1589(14) 0.4795(5)
N3C N 0.6901(7) -0.2196(6) 0.63550(13)
N6B N 0.9877(6) 0.0376(6) 0.61292(13)
Ag1C Ag 0.26563(6) 0.52432(5) 0.874509(13)
Ag1B Ag 0.23437(6) 0.47568(5) 0.374509(13)
C31 C 0.1592(8) 0.6635(7) 0.6271(2)
F1 F 0.1022(6) 0.7056(5) 0.59715(11)
F2 F 0.2714(5) 0.7581(4) 0.63468(9)
F3 F 0.0511(5) 0.6801(5) 0.65043(12)
S1 S 0.2287(2) 0.47555(15) 0.62577(4)
O1 O 0.2813(5) 0.4517(5) 0.66013(11)
O2 O 0.3452(6) 0.4784(6) 0.60038(13)
O3 O 0.0927(6) 0.3941(5) 0.61695(12)
loop_
_geom_bond_atom_site_label_1
_geom_bond_atom_site_label_2
_geom_bond_site_symmetry_1
_geom_bond_site_symmetry_2
Ag1 N1 1_555 1_555
N1 C8 1_555 1_555
N2 C11 1_555 1_555
N3 C14 1_555 1_555
C1 C2 1_555 1_555
C2 C3 1_555 1_555
C3 C4 1_555 1_555
C4 C5 1_555 1_555
C5 C6 1_555 1_555
C6 C1 1_555 1_555
C7 C1 1_555 1_555
H1 C7 1_555 1_555
H2 C7 1_555 1_555
C8 C7 1_555 1_555
C9 C2 1_555 1_555
H3 C9 1_555 1_555
H4 C9 1_555 1_555
H5 C9 1_555 1_555
C10 C3 1_555 1_555
H6 C10 1_555 1_555
H7 C10 1_555 1_555
C11 C10 1_555 1_555
C12 C4 1_555 1_555
H8 C12 1_555 1_555
H9 C12 1_555 1_555
H10 C12 1_555 1_555
C13 C5 1_555 1_555
H11 C13 1_555 1_555
H12 C13 1_555 1_555
C14 C13 1_555 1_555
C15 C6 1_555 1_555
H13 C15 1_555 1_555
H14 C15 1_555 1_555
H15 C15 1_555 1_555
N4 Ag1 1_555 1_555
N5 C26 1_555 1_555
N6 C29 1_555 1_555
C16 C17 1_555 1_555
C17 C18 1_555 1_555
C18 C19 1_555 1_555
C19 C20 1_555 1_555
C20 C21 1_555 1_555
C21 C16 1_555 1_555
C22 C16 1_555 1_555
H16 C22 1_555 1_555
H17 C22 1_555 1_555
C23 N4 1_555 1_555
C24 C17 1_555 1_555
H18 C24 1_555 1_555
H19 C24 1_555 1_555
H20 C24 1_555 1_555
C25 C18 1_555 1_555
H21 C25 1_555 1_555
H22 C25 1_555 1_555
C26 C25 1_555 1_555
C27 C19 1_555 1_555
H23 C27 1_555 1_555
H24 C27 1_555 1_555
H25 C27 1_555 1_555
C28 C20 1_555 1_555
H26 C28 1_555 1_555
H27 C28 1_555 1_555
C29 C28 1_555 1_555
C30 C21 1_555 1_555
H28 C30 1_555 1_555
H29 C30 1_555 1_555
H30 C30 1_555 1_555
C31 F1 1_555 1_555
F2 C31 1_555 1_555
F3 C31 1_555 1_555
S1 C31 1_555 1_555
O1 S1 1_555 1_555
O2 S1 1_555 1_555
O3 S1 1_555 1_555
N3C Ag1 1_555 1_555
N6B Ag1 1_555 1_555
Ag1C N3 1_555 1_555
Ag1B N6 1_555 1_555
C22 C23 1_555 1_555

#END
