
#######################################################################
#
#                 Cambridge Crystallographic Data Centre
#                                CCDC 
#
#######################################################################
#
# If this CIF has been generated from an entry in the Cambridge 
# Structural Database, then it will include bibliographic, chemical, 
# crystal, experimental, refinement or atomic coordinate data resulting 
# from the CCDC's data processing and validation procedures.
#
#######################################################################

data_XIHDEY
_symmetry_cell_setting           triclinic
_symmetry_space_group_name_H-M   'P -1'
_symmetry_Int_Tables_number      2
_space_group_name_Hall           '-P 1'
loop_
_symmetry_equiv_pos_site_id
_symmetry_equiv_pos_as_xyz
1 x,y,z
2 -x,-y,-z
_cell_length_a                   9.1908(6)
_cell_length_b                   9.2776(7)
_cell_length_c                   11.2535(9)
_cell_angle_alpha                101.820(3)
_cell_angle_beta                 104.168(3)
_cell_angle_gamma                106.010(4)
_cell_volume                     855.26
loop_
_atom_site_label
_atom_site_type_symbol
_atom_site_fract_x
_atom_site_fract_y
_atom_site_fract_z
Ag1 Ag 0.35363(4) 0.68995(4) 0.44222(3)
N1 N 0.3413(4) 0.8913(4) 0.5687(3)
C1 C 0.4066(4) 1.0195(4) 0.8919(3)
C2 C 0.3537(4) 0.8811(4) 0.9234(4)
C3 C 0.5545(4) 1.1408(4) 0.9673(4)
C4 C 0.3029(4) 1.0425(5) 0.7728(4)
H1 H 0.1892(4) 1.0028(5) 0.7677(4)
H2 H 0.3327(4) 1.1558(5) 0.7804(4)
C5 C 0.3228(4) 0.9610(5) 0.6567(4)
C6 C 0.1992(4) 0.7534(5) 0.8395(4)
H3 H 0.1861(17) 0.7482(23) 0.7494(4)
H4 H 0.1097(5) 0.7764(18) 0.8618(19)
H5 H 0.2012(15) 0.6527(7) 0.8526(21)
C7 C 0.6149(5) 1.2853(5) 0.9289(4)
H6 H 0.5622(26) 1.2650(11) 0.8372(7)
H7 H 0.5914(30) 1.3712(10) 0.9781(20)
H8 H 0.7306(7) 1.3143(20) 0.9463(26)
N2 N 0.2522(4) 0.4987(4) 0.2632(4)
C8 C 0.1333(4) 0.1326(5) 0.0473(4)
C9 C 0.0130(5) 0.1179(5) -0.0625(4)
C10 C 0.1208(5) 0.0203(6) 0.1119(4)
C11 C 0.2828(5) 0.2812(6) 0.0976(5)
H9 H 0.3770(5) 0.2552(6) 0.1378(5)
H10 H 0.3012(5) 0.3198(6) 0.0249(5)
C12 C 0.2658(5) 0.4038(5) 0.1908(5)
C13 C 0.0249(7) 0.2503(7) -0.1229(6)
H11 H 0.1169(28) 0.2672(30) -0.1543(33)
H12 H 0.0384(46) 0.3464(13) -0.0589(11)
H13 H -0.0730(20) 0.2232(20) -0.1947(24)
C14 C 0.2492(6) 0.0462(7) 0.2367(5)
H14 H 0.3034(35) 0.1589(7) 0.2787(21)
H15 H 0.1997(9) -0.0023(43) 0.2933(17)
H16 H 0.3271(29) -0.0015(45) 0.2184(6)
S1 S 0.67615(11) 0.59605(12) 0.36298(10)
O1 O 0.6172(3) 0.7109(4) 0.4221(3)
O2 O 0.6316(4) 0.4476(4) 0.3889(3)
O3 O 0.6615(3) 0.5836(3) 0.2314(3)
C15 C 0.8909(5) 0.6856(5) 0.4461(4)
F1 F 0.9702(3) 0.5993(4) 0.4002(3)
F2 F 0.9459(3) 0.8259(3) 0.4307(3)
F3 F 0.9244(3) 0.7030(4) 0.5697(3)
C3A C 0.4455(4) 0.8592(4) 1.0327(4)
C1A C 0.5934(4) 0.9805(4) 1.1081(3)
C4A C 0.6971(4) 0.9575(5) 1.2272(4)
C5A C 0.6772(4) 1.0390(5) 1.3433(4)
N1A N 0.6587(4) 1.1087(4) 1.4313(3)
H1A H 0.8108(4) 0.9972(5) 1.2323(4)
H2A H 0.6673(4) 0.8442(5) 1.2196(4)
C2A C 0.6463(4) 1.1189(4) 1.0766(4)
C6A C 0.8008(4) 1.2466(5) 1.1605(4)
H3A H 0.8139(17) 1.2518(23) 1.2506(4)
H4A H 0.8903(5) 1.2236(18) 1.1382(19)
H5A H 0.7988(15) 1.3473(7) 1.1474(21)
C7A C 0.3851(5) 0.7147(5) 1.0711(4)
H6A H 0.4378(26) 0.7350(11) 1.1628(7)
H7A H 0.4086(30) 0.6288(10) 1.0219(20)
H8A H 0.2694(7) 0.6857(20) 1.0537(26)
C10A C -0.1208(5) -0.0203(6) -0.1119(4)
C8A C -0.1333(4) -0.1326(5) -0.0473(4)
C11A C -0.2828(5) -0.2812(6) -0.0976(5)
C12A C -0.2658(5) -0.4038(5) -0.1908(5)
N2A N -0.2522(4) -0.4987(4) -0.2632(4)
H9A H -0.3770(5) -0.2552(6) -0.1378(5)
H10A H -0.3012(5) -0.3198(6) -0.0249(5)
C9A C -0.0130(5) -0.1179(5) 0.0625(4)
C13A C -0.0249(7) -0.2503(7) 0.1229(6)
H11A H -0.1169(28) -0.2672(30) 0.1543(33)
H12A H -0.0384(46) -0.3464(13) 0.0589(11)
H13A H 0.0730(20) -0.2232(20) 0.1947(24)
C14A C -0.2492(6) -0.0462(7) -0.2367(5)
H14A H -0.3034(35) -0.1589(7) -0.2787(21)
H15A H -0.1997(9) 0.0023(43) -0.2933(17)
H16A H -0.3271(29) 0.0015(45) -0.2184(6)
S1A S 0.32385(11) 0.40395(12) 0.63702(10)
O1A O 0.3828(3) 0.2891(4) 0.5779(3)
O2A O 0.3684(4) 0.5524(4) 0.6111(3)
O3A O 0.3385(3) 0.4164(3) 0.7686(3)
C15A C 0.1091(5) 0.3144(5) 0.5539(4)
F1A F 0.0298(3) 0.4007(4) 0.5998(3)
F2A F 0.0541(3) 0.1741(3) 0.5693(3)
F3A F 0.0756(3) 0.2970(4) 0.4303(3)
Ag1A Ag 0.64637(4) 1.31005(4) 1.55778(3)
Ag1A_2 Ag 0.64637(4) 0.31005(4) 0.55778(3)
Ag1A_3 Ag -0.35363(4) -0.68995(4) -0.44222(3)
N1A_2 N 0.6587(4) 0.1087(4) 0.4313(3)
N2A_2 N 0.7478(4) 0.5013(4) 0.7368(4)
loop_
_geom_bond_atom_site_label_1
_geom_bond_atom_site_label_2
_geom_bond_site_symmetry_1
_geom_bond_site_symmetry_2
Ag1 N1 1_555 1_555
N1 C5 1_555 1_555
C1 C2 1_555 1_555
C2 C6 1_555 1_555
C3 C1 1_555 1_555
C4 C1 1_555 1_555
H1 C4 1_555 1_555
H2 C4 1_555 1_555
C5 C4 1_555 1_555
C6 H3 1_555 1_555
H4 C6 1_555 1_555
H5 C6 1_555 1_555
C7 C3 1_555 1_555
H6 C7 1_555 1_555
H7 C7 1_555 1_555
H8 C7 1_555 1_555
N2 Ag1 1_555 1_555
C8 C9 1_555 1_555
C9 C13 1_555 1_555
C10 C8 1_555 1_555
C11 C8 1_555 1_555
H9 C11 1_555 1_555
H10 C11 1_555 1_555
C12 N2 1_555 1_555
C13 H11 1_555 1_555
H12 C13 1_555 1_555
H13 C13 1_555 1_555
C14 C10 1_555 1_555
H14 C14 1_555 1_555
H15 C14 1_555 1_555
H16 C14 1_555 1_555
S1 O1 1_555 1_555
O1 Ag1 1_555 1_555
O2 S1 1_555 1_555
O3 S1 1_555 1_555
C15 S1 1_555 1_555
F1 C15 1_555 1_555
F2 C15 1_555 1_555
F3 C15 1_555 1_555
C3A C2 1_555 1_555
C1A C3A 1_555 1_555
C4A C1A 1_555 1_555
C5A C4A 1_555 1_555
N1A C5A 1_555 1_555
H1A C4A 1_555 1_555
H2A C4A 1_555 1_555
C2A C3 1_555 1_555
C6A C2A 1_555 1_555
H3A C6A 1_555 1_555
H4A C6A 1_555 1_555
H5A C6A 1_555 1_555
C7A C3A 1_555 1_555
H6A C7A 1_555 1_555
H7A C7A 1_555 1_555
H8A C7A 1_555 1_555
C10A C9 1_555 1_555
C8A C10A 1_555 1_555
C11A C8A 1_555 1_555
C12A C11A 1_555 1_555
N2A C12A 1_555 1_555
H9A C11A 1_555 1_555
H10A C11A 1_555 1_555
C9A C10 1_555 1_555
C13A C9A 1_555 1_555
H11A C13A 1_555 1_555
H12A C13A 1_555 1_555
H13A C13A 1_555 1_555
C14A C10A 1_555 1_555
H14A C14A 1_555 1_555
H15A C14A 1_555 1_555
H16A C14A 1_555 1_555
S1A O1A 1_555 1_555
O1A Ag1A_2 1_555 1_555
O2A Ag1 1_555 1_555
O3A S1A 1_555 1_555
C15A S1A 1_555 1_555
F1A C15A 1_555 1_555
F2A C15A 1_555 1_555
F3A C15A 1_555 1_555
Ag1A N1A 1_555 1_555
Ag1A_2 O2 1_555 1_555
Ag1A_3 N2A 1_555 1_555
N1A_2 Ag1A_2 1_555 1_555
N2A_2 Ag1A_2 1_555 1_555
C11 C12 1_555 1_555
C1A C2A 1_555 1_555
C8A C9A 1_555 1_555
S1A O2A 1_555 1_555

#END
