
#######################################################################
#
#                 Cambridge Crystallographic Data Centre
#                                CCDC 
#
#######################################################################
#
# If this CIF has been generated from an entry in the Cambridge 
# Structural Database, then it will include bibliographic, chemical, 
# crystal, experimental, refinement or atomic coordinate data resulting 
# from the CCDC's data processing and validation procedures.
#
#######################################################################

data_XIHFAV
_symmetry_cell_setting           triclinic
_symmetry_space_group_name_H-M   'P -1'
_symmetry_Int_Tables_number      2
_space_group_name_Hall           '-P 1'
loop_
_symmetry_equiv_pos_site_id
_symmetry_equiv_pos_as_xyz
1 x,y,z
2 -x,-y,-z
_cell_length_a                   4.2155(8)
_cell_length_b                   11.254(2)
_cell_length_c                   12.196(2)
_cell_angle_alpha                80.34(3)
_cell_angle_beta                 88.44(3)
_cell_angle_gamma                83.10(3)
_cell_volume                     566.243
loop_
_atom_site_label
_atom_site_type_symbol
_atom_site_fract_x
_atom_site_fract_y
_atom_site_fract_z
I1 I 0.20833(10) 0.60762(4) 0.61170(4)
I2 I 0.03343(12) 0.19625(4) 0.98435(4)
I3 I 0.78813(11) -0.10306(4) 0.67342(4)
Cu1 Cu 0.2762(2) 0.41181(8) 0.51703(7)
N1 N 0.3239(15) 0.2641(5) 0.6413(5)
C1 C 0.4013(17) 0.0653(6) 0.8126(6)
H1 H 0.4282 -0.0015 0.8706
C2 C 0.5338(16) 0.0590(6) 0.7070(6)
C3 C 0.4940(17) 0.1592(6) 0.6250(6)
H2 H 0.5887 0.1544 0.5549
C4 C 0.2306(16) 0.1729(6) 0.8279(5)
C5 C 0.1910(16) 0.2699(6) 0.7417(6)
H3 H 0.0675 0.3419 0.7537
I1A I -0.20833(10) 0.39238(4) 0.38830(4)
Cu1A Cu -0.2762(2) 0.58819(8) 0.48297(7)
I2A I -0.03343(12) 0.80375(4) 0.01565(4)
I3A I -0.78813(11) 1.10306(4) 0.32658(4)
N1A N -0.3239(15) 0.7359(5) 0.3587(5)
C1A C -0.4013(17) 0.9347(6) 0.1874(6)
H1A H -0.4282 1.0015 0.1294
C2A C -0.5338(16) 0.9410(6) 0.2930(6)
C3A C -0.4940(17) 0.8408(6) 0.3750(6)
H2A H -0.5887 0.8456 0.4451
C4A C -0.2306(16) 0.8271(6) 0.1721(5)
C5A C -0.1910(16) 0.7301(6) 0.2583(6)
H3A H -0.0675 0.6581 0.2463
Cu1A_2 Cu 0.7238(2) 0.58819(8) 0.48297(7)
I1A_2 I 0.79167(10) 0.39238(4) 0.38830(4)
Cu1_2 Cu -0.7238(2) 0.41181(8) 0.51703(7)
I1_2 I -0.79167(10) 0.60762(4) 0.61170(4)
I4 I 0.43318(11) 0.52993(4) 0.88978(4)
I4A I 0.56682(11) 0.47007(4) 1.11022(4)
loop_
_geom_bond_atom_site_label_1
_geom_bond_atom_site_label_2
_geom_bond_site_symmetry_1
_geom_bond_site_symmetry_2
I1 Cu1 1_555 1_555
I2 C4 1_555 1_555
I3 C2 1_555 1_555
I4 I4A 1_555 1_555
Cu1 N1 1_555 1_555
N1 C3 1_555 1_555
C1 H1 1_555 1_555
C2 C1 1_555 1_555
C3 C2 1_555 1_555
H2 C3 1_555 1_555
C4 C1 1_555 1_555
C5 N1 1_555 1_555
H3 C5 1_555 1_555
I1A Cu1 1_555 1_555
Cu1A I1 1_555 1_555
I2A C4A 1_555 1_555
I3A C2A 1_555 1_555
N1A Cu1A 1_555 1_555
C1A H1A 1_555 1_555
C2A C1A 1_555 1_555
C3A N1A 1_555 1_555
H2A C3A 1_555 1_555
C4A C1A 1_555 1_555
C5A N1A 1_555 1_555
H3A C5A 1_555 1_555
Cu1A_2 I1 1_555 1_555
I1A_2 Cu1 1_555 1_555
Cu1_2 I1A 1_555 1_555
I1_2 Cu1A 1_555 1_555
C4 C5 1_555 1_555
I1A Cu1A 1_555 1_555
C2A C3A 1_555 1_555
C4A C5A 1_555 1_555
Cu1A_2 I1A_2 1_555 1_555
Cu1_2 I1_2 1_555 1_555

#END
