
#######################################################################
#
#                 Cambridge Crystallographic Data Centre
#                                CCDC 
#
#######################################################################
#
# If this CIF has been generated from an entry in the Cambridge 
# Structural Database, then it will include bibliographic, chemical, 
# crystal, experimental, refinement or atomic coordinate data resulting 
# from the CCDC's data processing and validation procedures.
#
#######################################################################

data_XIHLOR
_symmetry_cell_setting           monoclinic
_symmetry_space_group_name_H-M   'P 2/c'
_symmetry_Int_Tables_number      13
_space_group_name_Hall           '-P 2yc'
loop_
_symmetry_equiv_pos_site_id
_symmetry_equiv_pos_as_xyz
1 x,y,z
2 -x,y,1/2-z
3 -x,-y,-z
4 x,-y,1/2+z
_cell_length_a                   10.060(4)
_cell_length_b                   4.5742(18)
_cell_length_c                   12.170(5)
_cell_angle_alpha                90
_cell_angle_beta                 107.30(1)
_cell_angle_gamma                90
_cell_volume                     534.685
loop_
_atom_site_label
_atom_site_type_symbol
_atom_site_fract_x
_atom_site_fract_y
_atom_site_fract_z
K1 K 0.5000 0.1927(2) 0.2500
N1 N 0.2426(3) 0.6309(6) 0.3417(2)
O1 O 0.4227(2) 0.1891(5) 0.4461(2)
O2 O 0.1464(2) 0.8507(5) 0.3185(2)
O3 O 0.3782(2) 0.2892(5) 0.6124(2)
N2 N 0.1626(3) 0.7229(6) 0.6036(2)
N3 N 0.1011(3) 0.9129(6) 0.4151(2)
C1 C 0.3609(3) 0.3280(6) 0.5092(2)
C2 C 0.1712(3) 0.7299(7) 0.4951(2)
C3 C 0.2591(3) 0.5538(6) 0.4481(2)
H1 H 0.5000 0.0000 0.5000
H2 H 0.0910(30) 0.8210(60) 0.6190(30)
H3 H 0.2040(30) 0.5700(60) 0.6460(20)
N1B N 0.7574(3) -0.6309(6) 0.6583(2)
O1B O 0.5773(2) -0.1891(5) 0.5539(2)
O2B O 0.8536(2) -0.8507(5) 0.6815(2)
O3B O 0.6218(2) -0.2892(5) 0.3876(2)
N2B N 0.8374(3) -0.7229(6) 0.3964(2)
N3B N 0.8989(3) -0.9129(6) 0.5849(2)
C1B C 0.6391(3) -0.3280(6) 0.4908(2)
C2B C 0.8288(3) -0.7299(7) 0.5049(2)
C3B C 0.7409(3) -0.5538(6) 0.5519(2)
H2B H 0.9090(30) -0.8210(60) 0.3810(30)
H3B H 0.7960(30) -0.5700(60) 0.3540(20)
K1_2 K 0.5000 -0.8073(2) 0.2500
K1B K 0.5000 -0.1927(2) 0.7500
K1B_2 K 0.5000 0.8073(2) 0.7500
O1A O 0.5773(2) 0.1891(5) 0.0539(2)
O3B_2 O 0.6218(2) 0.7108(5) 0.3876(2)
O3C O 0.3782(2) -0.2892(5) 0.1124(2)
O3C_2 O 0.3782(2) 0.7108(5) 0.1124(2)
N2B_2 N 0.8374(3) 0.2771(6) 0.3964(2)
N2C N 0.1626(3) 0.2771(6) 0.1036(2)
loop_
_geom_bond_atom_site_label_1
_geom_bond_atom_site_label_2
_geom_bond_site_symmetry_1
_geom_bond_site_symmetry_2
K1 O1 1_555 1_555
N1 O2 1_555 1_555
O1 C1 1_555 1_555
O2 N3 1_555 1_555
O3 C1 1_555 1_555
N2 C2 1_555 1_555
N3 C2 1_555 1_555
C1 C3 1_555 1_555
C2 C3 1_555 1_555
C3 N1 1_555 1_555
H1 O1 1_555 1_555
H2 N2 1_555 1_555
H3 N2 1_555 1_555
N1B O2B 1_555 1_555
O1B H1 1_555 1_555
O2B N3B 1_555 1_555
O3B K1 1_555 1_555
N2B C2B 1_555 1_555
N3B C2B 1_555 1_555
C1B O1B 1_555 1_555
C2B C3B 1_555 1_555
C3B N1B 1_555 1_555
H2B N2B 1_555 1_555
H3B N2B 1_555 1_555
K1_2 O3B 1_555 1_555
K1B O3 1_555 1_555
K1B_2 O3 1_555 1_555
O1A K1 1_555 1_555
O3B_2 K1 1_555 1_555
O3C K1 1_555 1_555
O3C_2 K1 1_555 1_555
N2B_2 K1 1_555 1_555
N2C K1 1_555 1_555
N2 K1B_2 1_555 1_555
O1B K1B 1_555 1_555
O3B C1B 1_555 1_555
N2B K1_2 1_555 1_555
C1B C3B 1_555 1_555
K1_2 O3C 1_555 1_555

#END
