
#######################################################################
#
#                 Cambridge Crystallographic Data Centre
#                                CCDC 
#
#######################################################################
#
# If this CIF has been generated from an entry in the Cambridge 
# Structural Database, then it will include bibliographic, chemical, 
# crystal, experimental, refinement or atomic coordinate data resulting 
# from the CCDC's data processing and validation procedures.
#
#######################################################################

data_XIHQAH
_symmetry_cell_setting           monoclinic
_symmetry_space_group_name_H-M   'C 2/c'
_symmetry_Int_Tables_number      15
_space_group_name_Hall           '-C 2yn'
loop_
_symmetry_equiv_pos_site_id
_symmetry_equiv_pos_as_xyz
1 x,y,z
2 1/2+x,1/2+y,z
3 -x,y,1/2-z
4 1/2-x,1/2+y,1/2-z
5 -x,-y,-z
6 1/2-x,1/2-y,-z
7 x,-y,1/2+z
8 1/2+x,1/2-y,1/2+z
_cell_length_a                   13.867(6)
_cell_length_b                   15.911(7)
_cell_length_c                   15.752(6)
_cell_angle_alpha                90
_cell_angle_beta                 96.080(7)
_cell_angle_gamma                90
_cell_volume                     3455.94
loop_
_atom_site_label
_atom_site_type_symbol
_atom_site_fract_x
_atom_site_fract_y
_atom_site_fract_z
Eu1 Eu 1.0000 0.07903(3) 1.2500
N1 N 0.6590(4) 0.1580(3) 0.9437(3)
H1 H 0.6049 0.1847 0.9421
N2 N 1.2304(4) 0.1137(3) 0.9450(3)
H2 H 1.2295 0.1010 0.8919
O1 O 0.8459(3) 0.1299(3) 1.1718(2)
O2 O 0.9303(3) 0.0399(2) 1.1034(2)
O3 O 0.8911(3) 0.0175(3) 0.7985(2)
O4 O 0.7669(3) 0.0744(3) 0.7198(2)
O5 O 1.0526(3) 0.1871(2) 1.1659(2)
O6 O 1.0109(3) 0.2568(3) 1.0453(2)
O7 O 1.4216(3) 0.1476(3) 1.2034(3)
O8 O 1.4511(4) 0.0324(3) 1.1330(3)
C1 C 0.6591(5) 0.1775(4) 1.0953(3)
H3 H 0.6052 0.2124 1.0745
H4 H 0.7041 0.2096 1.1327
H5 H 0.6362 0.1306 1.1258
C2 C 0.7083(4) 0.1463(3) 1.0220(3)
C3 C 0.7951(4) 0.1041(3) 1.0232(3)
C4 C 0.8260(4) 0.0756(3) 0.9476(3)
H6 H 0.8846 0.0467 0.9495
C5 C 0.7732(4) 0.0884(3) 0.8697(3)
C6 C 0.6860(4) 0.1323(3) 0.8681(3)
C7 C 0.6181(5) 0.1532(4) 0.7928(4)
H7 H 0.5619 0.1803 0.8107
H8 H 0.5990 0.1026 0.7623
H9 H 0.6493 0.1902 0.7561
C8 C 0.8601(4) 0.0903(4) 1.1050(3)
C9 C 0.8136(4) 0.0565(4) 0.7886(4)
C10 C 1.0693(4) 0.1624(4) 0.9007(3)
H10 H 1.0747 0.2171 0.8760
H11 H 1.0084 0.1580 0.9244
H12 H 1.0725 0.1203 0.8575
C11 C 1.1495(4) 0.1499(4) 0.9690(3)
C12 C 1.1506(4) 0.1700(3) 1.0555(3)
C13 C 1.2341(4) 0.1517(3) 1.1103(4)
H13 H 1.2352 0.1646 1.1680
C14 C 1.3153(4) 0.1152(3) 1.0813(4)
C15 C 1.3122(4) 0.0952(3) 0.9952(4)
C16 C 1.3902(5) 0.0556(4) 0.9514(4)
H14 H 1.3666 0.0444 0.8930
H15 H 1.4095 0.0038 0.9795
H16 H 1.4448 0.0928 0.9535
C17 C 1.0638(5) 0.2080(4) 1.0911(4)
C18 C 1.4046(4) 0.0940(4) 1.1428(4)
H17 H 1.5000 0.144(6) 1.2500
Eu1F Eu 1.0000 -0.07903(3) 0.7500
Eu1_2 Eu 2.0000 0.07903(3) 1.2500
Eu1F_2 Eu 1.0000 -0.07903(3) 1.7500
N1B N 1.3410(4) 0.1580(3) 1.5563(3)
H1B H 1.3951 0.1847 1.5579
N2B N 1.7696(4) 0.1137(3) 1.5550(3)
H2B H 1.7705 0.1010 1.6081
O1B O 1.1541(3) 0.1299(3) 1.3282(2)
O2B O 1.0697(3) 0.0399(2) 1.3966(2)
O3B O 1.1089(3) 0.0175(3) 1.7015(2)
O3F O 0.8911(3) -0.0175(3) 1.2985(2)
O3D O 1.1089(3) -0.0175(3) 1.2015(2)
O4B O 1.2331(3) 0.0744(3) 1.7802(2)
O5B O 1.9474(3) 0.1871(2) 1.3341(2)
O5B_2 O 0.9474(3) 0.1871(2) 1.3341(2)
O6B O 1.9891(3) 0.2568(3) 1.4547(2)
O7B O 1.5784(3) 0.1476(3) 1.2966(3)
O8B O 1.5489(4) 0.0324(3) 1.3670(3)
C1B C 1.3409(5) 0.1775(4) 1.4047(3)
H3B H 1.3948 0.2124 1.4255
H4B H 1.2959 0.2096 1.3673
H5B H 1.3638 0.1306 1.3742
C2B C 1.2917(4) 0.1463(3) 1.4780(3)
C3B C 1.2049(4) 0.1041(3) 1.4768(3)
C4B C 1.1740(4) 0.0756(3) 1.5524(3)
H6B H 1.1154 0.0467 1.5505
C5B C 1.2268(4) 0.0884(3) 1.6303(3)
C6B C 1.3140(4) 0.1323(3) 1.6319(3)
C7B C 1.3819(5) 0.1532(4) 1.7072(4)
H7B H 1.4381 0.1803 1.6893
H8B H 1.4010 0.1026 1.7377
H9B H 1.3507 0.1902 1.7439
C8B C 1.1399(4) 0.0903(4) 1.3950(3)
C9B C 1.1864(4) 0.0565(4) 1.7114(4)
C10B C 1.9307(4) 0.1624(4) 1.5993(3)
H10B H 1.9253 0.2171 1.6240
H11B H 1.9916 0.1580 1.5756
H12B H 1.9275 0.1203 1.6425
C11B C 1.8505(4) 0.1499(4) 1.5310(3)
C12B C 1.8494(4) 0.1700(3) 1.4445(3)
C13B C 1.7659(4) 0.1517(3) 1.3897(4)
H13B H 1.7648 0.1646 1.3320
C14B C 1.6847(4) 0.1152(3) 1.4187(4)
C15B C 1.6878(4) 0.0952(3) 1.5048(4)
C16B C 1.6098(5) 0.0556(4) 1.5486(4)
H14B H 1.6334 0.0444 1.6070
H15B H 1.5905 0.0038 1.5205
H16B H 1.5552 0.0928 1.5465
C17B C 1.9362(5) 0.2080(4) 1.4089(4)
C18B C 1.5954(4) 0.0940(4) 1.3572(4)
loop_
_geom_bond_atom_site_label_1
_geom_bond_atom_site_label_2
_geom_bond_site_symmetry_1
_geom_bond_site_symmetry_2
Eu1 O1 1_555 1_555
N1 H1 1_555 1_555
N2 H2 1_555 1_555
O1 C8 1_555 1_555
O2 Eu1 1_555 1_555
O3 C9 1_555 1_555
O4 C9 1_555 1_555
O5 Eu1 1_555 1_555
O6 C17 1_555 1_555
O7 C18 1_555 1_555
O8 C18 1_555 1_555
C1 H3 1_555 1_555
H4 C1 1_555 1_555
H5 C1 1_555 1_555
C2 N1 1_555 1_555
C3 C2 1_555 1_555
C4 C3 1_555 1_555
H6 C4 1_555 1_555
C5 C4 1_555 1_555
C6 N1 1_555 1_555
C7 C6 1_555 1_555
H7 C7 1_555 1_555
H8 C7 1_555 1_555
H9 C7 1_555 1_555
C8 O2 1_555 1_555
C9 C5 1_555 1_555
C10 H10 1_555 1_555
H11 C10 1_555 1_555
H12 C10 1_555 1_555
C11 N2 1_555 1_555
C12 C11 1_555 1_555
C13 C12 1_555 1_555
H13 C13 1_555 1_555
C14 C13 1_555 1_555
C15 N2 1_555 1_555
C16 C15 1_555 1_555
H14 C16 1_555 1_555
H15 C16 1_555 1_555
H16 C16 1_555 1_555
C17 O5 1_555 1_555
C18 C14 1_555 1_555
H17 O7 1_555 1_555
Eu1F O3 1_555 1_555
Eu1_2 O5B 1_555 1_555
Eu1F_2 O3B 1_555 1_555
N1B H1B 1_555 1_555
N2B H2B 1_555 1_555
O1B Eu1 1_555 1_555
O2B Eu1 1_555 1_555
O3B C9B 1_555 1_555
O3F Eu1 1_555 1_555
O3D Eu1 1_555 1_555
O4B C9B 1_555 1_555
O5B C17B 1_555 1_555
O5B_2 Eu1 1_555 1_555
O6B C17B 1_555 1_555
O7B H17 1_555 1_555
O8B C18B 1_555 1_555
C1B H3B 1_555 1_555
H4B C1B 1_555 1_555
H5B C1B 1_555 1_555
C2B N1B 1_555 1_555
C3B C2B 1_555 1_555
C4B C3B 1_555 1_555
H6B C4B 1_555 1_555
C5B C4B 1_555 1_555
C6B N1B 1_555 1_555
C7B C6B 1_555 1_555
H7B C7B 1_555 1_555
H8B C7B 1_555 1_555
H9B C7B 1_555 1_555
C8B O1B 1_555 1_555
C9B C5B 1_555 1_555
C10B H10B 1_555 1_555
H11B C10B 1_555 1_555
H12B C10B 1_555 1_555
C11B N2B 1_555 1_555
C12B C11B 1_555 1_555
C13B C12B 1_555 1_555
H13B C13B 1_555 1_555
C14B C13B 1_555 1_555
C15B N2B 1_555 1_555
C16B C15B 1_555 1_555
H14B C16B 1_555 1_555
H15B C16B 1_555 1_555
H16B C16B 1_555 1_555
C17B C12B 1_555 1_555
C18B O7B 1_555 1_555
C1 C2 1_555 1_555
C3 C8 1_555 1_555
C5 C6 1_555 1_555
C10 C11 1_555 1_555
C12 C17 1_555 1_555
C14 C15 1_555 1_555
O2B C8B 1_555 1_555
C1B C2B 1_555 1_555
C3B C8B 1_555 1_555
C5B C6B 1_555 1_555
C10B C11B 1_555 1_555
C14B C15B 1_555 1_555
C14B C18B 1_555 1_555

#END
