
#######################################################################
#
#                 Cambridge Crystallographic Data Centre
#                                CCDC 
#
#######################################################################
#
# If this CIF has been generated from an entry in the Cambridge 
# Structural Database, then it will include bibliographic, chemical, 
# crystal, experimental, refinement or atomic coordinate data resulting 
# from the CCDC's data processing and validation procedures.
#
#######################################################################

data_XIHQEL
_symmetry_cell_setting           triclinic
_symmetry_space_group_name_H-M   'P -1'
_symmetry_Int_Tables_number      2
_space_group_name_Hall           '-P 1'
loop_
_symmetry_equiv_pos_site_id
_symmetry_equiv_pos_as_xyz
1 x,y,z
2 -x,-y,-z
_cell_length_a                   7.1913(2)
_cell_length_b                   8.7811(2)
_cell_length_c                   15.7915(5)
_cell_angle_alpha                97.1847(10)
_cell_angle_beta                 102.8871(11)
_cell_angle_gamma                103.5564(11)
_cell_volume                     928.298
loop_
_atom_site_label
_atom_site_type_symbol
_atom_site_fract_x
_atom_site_fract_y
_atom_site_fract_z
Mn1 Mn -0.45895(5) 1.18014(4) 0.30126(2)
C1 C -0.6635(4) 1.1833(3) 0.45956(18)
C2 C -0.7242(4) 1.0328(3) 0.56145(19)
C3 C -0.2196(3) 1.0350(3) 0.17903(15)
C4 C 0.0852(4) 0.9904(2) 0.20443(18)
C5 C -0.0086(4) 1.3877(3) 0.38870(19)
H1 H 0.0063 1.2931 0.4063
C6 C 0.1551(4) 1.5174(3) 0.4110(2)
H2 H 0.2772 1.5108 0.4434
C7 C 0.1339(4) 1.6555(3) 0.3846(2)
H3 H 0.2418 1.7452 0.3986
C8 C -0.0499(4) 1.6609(3) 0.33665(18)
H4 H -0.0666 1.7543 0.3180
C9 C -0.2083(3) 1.5266(2) 0.31668(15)
C10 C -0.4078(3) 1.5233(2) 0.26469(15)
C11 C -0.8079(3) 1.3046(2) 0.12002(15)
C12 C -1.0069(3) 1.3169(2) 0.07507(15)
C13 C -1.0826(4) 1.4378(3) 0.10602(17)
H5 H -1.0067 1.5112 0.1567
C14 C -1.2834(4) 1.2272(3) -0.03760(18)
H6 H -1.3586 1.1553 -0.0890
C15 C -1.3585(4) 1.3454(3) -0.00590(18)
H7 H -1.4833 1.3503 -0.0359
C16 C -0.4490(5) 1.6738(3) 0.2421(2)
H8 H -0.5843 1.6517 0.2084
H9 H -0.3625 1.7179 0.2077
H10 H -0.4268 1.7487 0.2955
N1 N -0.5764(3) 1.2471(3) 0.41582(15)
N2 N -0.7788(4) 1.1176(4) 0.5037(2)
N3 N -0.6913(3) 0.9584(2) 0.61397(15)
N4 N -0.3398(3) 1.0954(2) 0.18934(14)
N5 N -0.0996(3) 0.9541(2) 0.15969(16)
N6 N 0.2501(3) 1.0113(2) 0.23968(15)
N7 N -0.1876(3) 1.3904(2) 0.34315(12)
N8 N -0.5377(3) 1.3879(2) 0.23921(12)
N9 N -0.7276(3) 1.3958(2) 0.19637(13)
N10 N -1.1073(3) 1.2106(2) 0.00190(14)
N11 N -1.2587(3) 1.4532(3) 0.06638(15)
N12 N -0.7301(3) 1.2073(2) 0.07524(13)
H11 H -0.6123 1.2006 0.0974
H12 H -0.7979 1.1514 0.0243
Mn1A Mn -0.54105(5) 0.81986(4) 0.69874(2)
Mn1_2 Mn 0.54105(5) 1.18014(4) 0.30126(2)
N3A N -0.3087(3) 1.0416(2) 0.38603(15)
N6_2 N -0.7499(3) 1.0113(2) 0.23968(15)
loop_
_geom_bond_atom_site_label_1
_geom_bond_atom_site_label_2
_geom_bond_site_symmetry_1
_geom_bond_site_symmetry_2
Mn1 N1 1_555 1_555
C1 N1 1_555 1_555
C2 N2 1_555 1_555
C3 N4 1_555 1_555
C4 N5 1_555 1_555
C5 H1 1_555 1_555
C6 C5 1_555 1_555
H2 C6 1_555 1_555
C7 C6 1_555 1_555
H3 C7 1_555 1_555
C8 C7 1_555 1_555
H4 C8 1_555 1_555
C9 C8 1_555 1_555
C10 C9 1_555 1_555
C11 C12 1_555 1_555
C12 C13 1_555 1_555
C13 H5 1_555 1_555
C14 H6 1_555 1_555
C15 C14 1_555 1_555
H7 C15 1_555 1_555
C16 C10 1_555 1_555
H8 C16 1_555 1_555
H9 C16 1_555 1_555
H10 C16 1_555 1_555
N2 C1 1_555 1_555
N3 C2 1_555 1_555
N4 Mn1 1_555 1_555
N5 C3 1_555 1_555
N6 C4 1_555 1_555
N7 Mn1 1_555 1_555
N8 Mn1 1_555 1_555
N9 C11 1_555 1_555
N10 C12 1_555 1_555
N11 C13 1_555 1_555
N12 C11 1_555 1_555
H11 N12 1_555 1_555
H12 N12 1_555 1_555
Mn1A N3 1_555 1_555
Mn1_2 N6 1_555 1_555
N3A Mn1 1_555 1_555
N6_2 Mn1 1_555 1_555
C5 N7 1_555 1_555
C9 N7 1_555 1_555
C10 N8 1_555 1_555
C14 N10 1_555 1_555
C15 N11 1_555 1_555
N8 N9 1_555 1_555

#END
