
#######################################################################
#
#                 Cambridge Crystallographic Data Centre
#                                CCDC 
#
#######################################################################
#
# If this CIF has been generated from an entry in the Cambridge 
# Structural Database, then it will include bibliographic, chemical, 
# crystal, experimental, refinement or atomic coordinate data resulting 
# from the CCDC's data processing and validation procedures.
#
#######################################################################

data_XIHQIP
_symmetry_cell_setting           triclinic
_symmetry_space_group_name_H-M   'P -1'
_symmetry_Int_Tables_number      2
_space_group_name_Hall           '-P 1'
loop_
_symmetry_equiv_pos_site_id
_symmetry_equiv_pos_as_xyz
1 x,y,z
2 -x,-y,-z
_cell_length_a                   7.5113(2)
_cell_length_b                   8.0064(2)
_cell_length_c                   16.0347(5)
_cell_angle_alpha                75.8792(11)
_cell_angle_beta                 79.3521(9)
_cell_angle_gamma                75.4456(19)
_cell_volume                     897.291
loop_
_atom_site_label
_atom_site_type_symbol
_atom_site_fract_x
_atom_site_fract_y
_atom_site_fract_z
Cd1 Cd -0.23144(2) 0.17123(3) 0.207054(12)
C1 C 0.1147(4) 0.2004(4) 0.04211(19)
C2 C 0.2671(4) 0.0738(4) -0.0693(2)
C3 C 0.1286(4) -0.0236(4) 0.31302(18)
C4 C 0.4049(4) 0.0179(4) 0.33119(17)
C5 C -0.5997(4) 0.4063(4) 0.1149(2)
H1 H -0.5936 0.3033 0.0965
C6 C -0.7452(5) 0.5472(5) 0.0956(3)
H2 H -0.8364 0.5381 0.0658
C7 C -0.7537(4) 0.6994(5) 0.1206(2)
H3 H -0.8501 0.7965 0.1076
C8 C -0.6178(4) 0.7082(4) 0.16539(19)
H4 H -0.6206 0.8114 0.1829
C9 C -0.4773(3) 0.5614(4) 0.18385(16)
C10 C -0.3329(3) 0.5622(4) 0.23419(17)
H5 H -0.3216 0.6681 0.2447
C11 C -0.0768(3) 0.3387(3) 0.38212(17)
C12 C 0.0786(3) 0.3392(3) 0.42799(16)
C13 C 0.2153(4) 0.4311(4) 0.38801(19)
H6 H 0.2103 0.4933 0.3310
C14 C 0.3517(4) 0.3424(4) 0.5098(2)
H7 H 0.4459 0.3397 0.5408
C15 C 0.2158(4) 0.2529(4) 0.5496(2)
H8 H 0.2196 0.1924 0.6069
N1 N -0.0066(4) 0.2464(4) 0.09085(17)
N2 N 0.2634(4) 0.1578(5) -0.0088(2)
N3 N 0.2881(4) 0.0016(4) -0.12371(19)
N4 N 0.0057(3) -0.0079(3) 0.27674(15)
N5 N 0.2618(3) -0.0519(3) 0.36036(16)
N6 N 0.5370(3) 0.0714(4) 0.31355(17)
N7 N -0.4673(3) 0.4112(3) 0.15879(14)
N8 N -0.2236(3) 0.4198(3) 0.26343(13)
N9 N -0.0833(3) 0.4372(3) 0.30547(14)
N10 N 0.0786(3) 0.2497(3) 0.50890(15)
N11 N 0.3539(3) 0.4332(4) 0.42856(17)
N12 N -0.1966(3) 0.2399(3) 0.42602(14)
H9 H -0.2907 0.2377 0.4032
H10 H -0.1796 0.1786 0.4771
Cd1A Cd 0.23144(2) -0.17123(3) -0.207054(12)
Cd1_2 Cd 0.76856(2) 0.17123(3) 0.207054(12)
N3A N -0.2881(4) -0.0016(4) 0.12371(19)
N6_2 N -0.4630(3) 0.0714(4) 0.31355(17)
loop_
_geom_bond_atom_site_label_1
_geom_bond_atom_site_label_2
_geom_bond_site_symmetry_1
_geom_bond_site_symmetry_2
Cd1 N1 1_555 1_555
C1 N1 1_555 1_555
C2 N2 1_555 1_555
C3 N4 1_555 1_555
C4 N5 1_555 1_555
C5 H1 1_555 1_555
C6 C5 1_555 1_555
H2 C6 1_555 1_555
C7 C6 1_555 1_555
H3 C7 1_555 1_555
C8 C7 1_555 1_555
H4 C8 1_555 1_555
C9 C8 1_555 1_555
C10 C9 1_555 1_555
H5 C10 1_555 1_555
C11 C12 1_555 1_555
C12 C13 1_555 1_555
C13 H6 1_555 1_555
C14 H7 1_555 1_555
C15 C14 1_555 1_555
H8 C15 1_555 1_555
N2 C1 1_555 1_555
N3 C2 1_555 1_555
N4 Cd1 1_555 1_555
N5 C3 1_555 1_555
N6 C4 1_555 1_555
N7 Cd1 1_555 1_555
N8 Cd1 1_555 1_555
N9 C11 1_555 1_555
N10 C12 1_555 1_555
N11 C13 1_555 1_555
N12 C11 1_555 1_555
H9 N12 1_555 1_555
H10 N12 1_555 1_555
Cd1A N3 1_555 1_555
Cd1_2 N6 1_555 1_555
N3A Cd1 1_555 1_555
N6_2 Cd1 1_555 1_555
C5 N7 1_555 1_555
C9 N7 1_555 1_555
C10 N8 1_555 1_555
C14 N11 1_555 1_555
C15 N10 1_555 1_555
N8 N9 1_555 1_555

#END
