
#######################################################################
#
#                 Cambridge Crystallographic Data Centre
#                                CCDC 
#
#######################################################################
#
# If this CIF has been generated from an entry in the Cambridge 
# Structural Database, then it will include bibliographic, chemical, 
# crystal, experimental, refinement or atomic coordinate data resulting 
# from the CCDC's data processing and validation procedures.
#
#######################################################################

data_XIHROW
_symmetry_cell_setting           monoclinic
_symmetry_space_group_name_H-M   'P 21/n'
_symmetry_Int_Tables_number      14
_space_group_name_Hall           '-P 2yn'
loop_
_symmetry_equiv_pos_site_id
_symmetry_equiv_pos_as_xyz
1 x,y,z
2 1/2-x,1/2+y,1/2-z
3 -x,-y,-z
4 1/2+x,1/2-y,1/2+z
_cell_length_a                   15.627(3)
_cell_length_b                   13.3733(8)
_cell_length_c                   15.645(3)
_cell_angle_alpha                90
_cell_angle_beta                 114.290(4)
_cell_angle_gamma                90
_cell_volume                     2980.13
loop_
_atom_site_label
_atom_site_type_symbol
_atom_site_fract_x
_atom_site_fract_y
_atom_site_fract_z
Co1 Co 0.65382(9) 0.48783(7) 0.21146(8)
O1 O 0.5457(5) 0.3984(4) 0.2313(4)
O2 O 0.5081(4) 0.5053(4) 0.1188(4)
O3 O 0.3991(5) 0.4226(6) 0.1384(5)
O4 O 0.7614(6) 0.4467(7) 0.3325(6)
O5 O 0.9064(6) 0.4167(7) 0.4231(6)
O6 O 0.8537(8) 0.3992(10) 0.2820(8)
N1 N 0.6552(5) 0.3657(5) 0.1202(4)
N2 N 0.6098(5) 0.1115(5) -0.1391(5)
N3 N 0.6369(6) -0.1611(5) -0.4424(5)
N4 N 0.6264(5) -0.3994(5) -0.6999(5)
N5 N 0.7011(6) 0.5913(5) 0.1390(5)
N6 N 0.8825(5) 0.8282(5) 0.0248(5)
N7 N 0.4810(7) 0.4397(6) 0.1629(6)
N8 N 0.8410(10) 0.4211(7) 0.3501(7)
C1 C 0.6521(6) 0.3751(6) 0.0351(6)
H1 H 0.6602 0.4386 0.0153
C2 C 0.6373(6) 0.2957(6) -0.0269(6)
H2 H 0.6334 0.3071 -0.0871
C3 C 0.6287(6) 0.2007(6) 0.0013(6)
C4 C 0.6342(8) 0.1917(6) 0.0911(7)
H3 H 0.6296 0.1288 0.1142
C5 C 0.6462(7) 0.2731(6) 0.1464(6)
H4 H 0.6484 0.2637 0.2061
C6 C 0.6178(7) 0.1124(6) -0.0564(7)
H5 H 0.6168 0.0509 -0.0291
C7 C 0.6001(6) 0.0192(6) -0.1866(5)
C8 C 0.5661(6) -0.0652(6) -0.1644(6)
H6 H 0.5451 -0.0643 -0.1167
C9 C 0.5626(7) -0.1539(7) -0.2132(6)
H7 H 0.5435 -0.2124 -0.1941
C10 C 0.5864(7) -0.1576(6) -0.2878(6)
H8 H 0.5832 -0.2174 -0.3192
C11 C 0.6154(6) -0.0701(6) -0.3161(5)
C12 C 0.6381(7) -0.0692(6) -0.3955(6)
C13 C 0.6676(8) 0.0170(7) -0.4210(7)
H9 H 0.6832 0.0169 -0.4724
C14 C 0.6749(8) 0.1063(7) -0.3711(7)
H10 H 0.6938 0.1648 -0.3905
C15 C 0.6545(7) 0.1075(6) -0.2948(6)
H11 H 0.6620 0.1663 -0.2606
C16 C 0.6217(6) 0.0203(6) -0.2669(5)
C17 C 0.5973(7) -0.1628(7) -0.5293(7)
H12 H 0.5630 -0.1069 -0.5601
C18 C 0.6020(7) -0.2493(7) -0.5867(7)
C19 C 0.6398(7) -0.3378(6) -0.5512(6)
H13 H 0.6585 -0.3507 -0.4876
C20 C 0.6510(7) -0.4096(6) -0.6083(6)
H14 H 0.6779 -0.4701 -0.5809
C21 C 0.5840(8) -0.3138(8) -0.7342(7)
H15 H 0.5611 -0.3042 -0.7987
C22 C 0.5713(8) -0.2375(8) -0.6811(7)
H16 H 0.5420 -0.1784 -0.7097
C23 C 0.6430(7) 0.6483(7) 0.0763(6)
H17 H 0.5793 0.6390 0.0602
C24 C 0.6700(7) 0.7247(6) 0.0300(6)
H18 H 0.6255 0.7661 -0.0135
C25 C 0.7636(7) 0.7362(6) 0.0512(6)
C26 C 0.8268(7) 0.6717(7) 0.1160(6)
H19 H 0.8906 0.6760 0.1301
C27 C 0.7940(7) 0.6015(6) 0.1589(6)
H20 H 0.8367 0.5594 0.2034
C28 C 0.7957(8) 0.8176(6) 0.0055(6)
H21 H 0.7519 0.8604 -0.0371
C29 C 0.9063(7) 0.9038(6) -0.0252(7)
C30 C 0.8550(7) 0.9190(7) -0.1198(6)
H22 H 0.8019 0.8803 -0.1520
C31 C 0.8815(7) 0.9918(7) -0.1679(6)
H23 H 0.8472 1.0000 -0.2321
C32 C 0.9568(7) 1.0506(6) -0.1218(6)
H24 H 0.9728 1.0997 -0.1547
C33 C 0.9882(6) 0.9611(5) 0.0248(5)
Co1_2 Co 0.65382(9) 1.48783(7) 1.21146(8)
Co1_3 Co 0.65382(9) -0.51217(7) -0.78854(8)
Co1B Co 1.34618(9) 1.51217(7) -0.21146(8)
O1_2 O 0.5457(5) 1.3984(4) 1.2313(4)
O2_2 O 0.5081(4) 1.5053(4) 1.1188(4)
O3_2 O 0.3991(5) 1.4226(6) 1.1384(5)
O4_2 O 0.7614(6) 1.4467(7) 1.3325(6)
O5_2 O 0.9064(6) 1.4167(7) 1.4231(6)
O6_2 O 0.8537(8) 1.3992(10) 1.2820(8)
N1_2 N 0.6552(5) 1.3657(5) 1.1202(4)
N2_2 N 0.6098(5) 1.1115(5) 0.8609(5)
N3_2 N 0.6369(6) 0.8389(5) 0.5576(5)
N4_2 N 0.6264(5) 0.6006(5) 0.3001(5)
N4_3 N 0.6264(5) 1.6006(5) 1.3001(5)
N5B N 1.2989(6) 1.4087(5) -0.1390(5)
N5_2 N 0.7011(6) 1.5913(5) 1.1390(5)
N6B N 1.1175(5) 1.1718(5) -0.0248(5)
N7_2 N 0.4810(7) 1.4397(6) 1.1629(6)
N8_2 N 0.8410(10) 1.4211(7) 1.3501(7)
C1_2 C 0.6521(6) 1.3751(6) 1.0351(6)
H1_2 H 0.6602 1.4386 1.0153
C2_2 C 0.6373(6) 1.2957(6) 0.9731(6)
H2_2 H 0.6334 1.3071 0.9129
C3_2 C 0.6287(6) 1.2007(6) 1.0013(6)
C4_2 C 0.6342(8) 1.1917(6) 1.0911(7)
H3_2 H 0.6296 1.1288 1.1142
C5_2 C 0.6462(7) 1.2731(6) 1.1464(6)
H4_2 H 0.6484 1.2637 1.2061
C6_2 C 0.6178(7) 1.1124(6) 0.9436(7)
H5_2 H 0.6168 1.0509 0.9709
C7_2 C 0.6001(6) 1.0192(6) 0.8134(5)
C8_2 C 0.5661(6) 0.9348(6) 0.8356(6)
H6_2 H 0.5451 0.9357 0.8833
C9_2 C 0.5626(7) 0.8461(7) 0.7868(6)
H7_2 H 0.5435 0.7876 0.8059
C10_2 C 0.5864(7) 0.8424(6) 0.7122(6)
H8_2 H 0.5832 0.7826 0.6808
C11_2 C 0.6154(6) 0.9299(6) 0.6839(5)
C12_2 C 0.6381(7) 0.9308(6) 0.6045(6)
C13_2 C 0.6676(8) 1.0170(7) 0.5790(7)
H9_2 H 0.6832 1.0169 0.5276
C14_2 C 0.6749(8) 1.1063(7) 0.6289(7)
H10_2 H 0.6938 1.1648 0.6095
C15_2 C 0.6545(7) 1.1075(6) 0.7052(6)
H11_2 H 0.6620 1.1663 0.7394
C16_2 C 0.6217(6) 1.0203(6) 0.7331(5)
C17_2 C 0.5973(7) 0.8372(7) 0.4707(7)
H12_2 H 0.5630 0.8931 0.4399
C18_2 C 0.6020(7) 0.7507(7) 0.4133(7)
C19_2 C 0.6398(7) 0.6622(6) 0.4488(6)
H13_2 H 0.6585 0.6493 0.5124
C20_2 C 0.6510(7) 0.5904(6) 0.3917(6)
H14_2 H 0.6779 0.5299 0.4191
C21_2 C 0.5840(8) 0.6862(8) 0.2658(7)
H15_2 H 0.5611 0.6958 0.2013
C22_2 C 0.5713(8) 0.7625(8) 0.3189(7)
H16_2 H 0.5420 0.8216 0.2903
C23B C 1.3570(7) 1.3517(7) -0.0763(6)
H17B H 1.4207 1.3610 -0.0602
C24B C 1.3300(7) 1.2753(6) -0.0300(6)
H18B H 1.3745 1.2339 0.0135
C25B C 1.2364(7) 1.2638(6) -0.0512(6)
C26B C 1.1732(7) 1.3283(7) -0.1160(6)
H19B H 1.1094 1.3240 -0.1301
C27B C 1.2060(7) 1.3985(6) -0.1589(6)
H20B H 1.1633 1.4406 -0.2034
C28B C 1.2043(8) 1.1824(6) -0.0055(6)
H21B H 1.2481 1.1396 0.0371
C29B C 1.0937(7) 1.0962(6) 0.0252(7)
C30B C 1.1450(7) 1.0810(7) 0.1198(6)
H22B H 1.1981 1.1197 0.1520
C31B C 1.1185(7) 1.0082(7) 0.1679(6)
H23B H 1.1528 1.0000 0.2321
C32B C 1.0432(7) 0.9494(6) 0.1218(6)
H24B H 1.0272 0.9003 0.1547
C33B C 1.0118(6) 1.0389(5) -0.0248(5)
loop_
_geom_bond_atom_site_label_1
_geom_bond_atom_site_label_2
_geom_bond_site_symmetry_1
_geom_bond_site_symmetry_2
Co1 O1 1_555 1_555
O1 N7 1_555 1_555
O2 Co1 1_555 1_555
O3 N7 1_555 1_555
O4 Co1 1_555 1_555
O5 N8 1_555 1_555
O6 N8 1_555 1_555
N1 Co1 1_555 1_555
N2 C6 1_555 1_555
N3 C12 1_555 1_555
N4 C20 1_555 1_555
N5 Co1 1_555 1_555
N6 C28 1_555 1_555
N7 O2 1_555 1_555
N8 O4 1_555 1_555
C1 N1 1_555 1_555
H1 C1 1_555 1_555
C2 C1 1_555 1_555
H2 C2 1_555 1_555
C3 C2 1_555 1_555
C4 C3 1_555 1_555
H3 C4 1_555 1_555
C5 N1 1_555 1_555
H4 C5 1_555 1_555
C6 C3 1_555 1_555
H5 C6 1_555 1_555
C7 N2 1_555 1_555
C8 C7 1_555 1_555
H6 C8 1_555 1_555
C9 C8 1_555 1_555
H7 C9 1_555 1_555
C10 C9 1_555 1_555
H8 C10 1_555 1_555
C11 C10 1_555 1_555
C12 C11 1_555 1_555
C13 C12 1_555 1_555
H9 C13 1_555 1_555
C14 C13 1_555 1_555
H10 C14 1_555 1_555
C15 C14 1_555 1_555
H11 C15 1_555 1_555
C16 C7 1_555 1_555
C17 N3 1_555 1_555
H12 C17 1_555 1_555
C18 C17 1_555 1_555
C19 C18 1_555 1_555
H13 C19 1_555 1_555
C20 C19 1_555 1_555
H14 C20 1_555 1_555
C21 N4 1_555 1_555
H15 C21 1_555 1_555
C22 C18 1_555 1_555
H16 C22 1_555 1_555
C23 N5 1_555 1_555
H17 C23 1_555 1_555
C24 C23 1_555 1_555
H18 C24 1_555 1_555
C25 C24 1_555 1_555
C26 C25 1_555 1_555
H19 C26 1_555 1_555
C27 N5 1_555 1_555
H20 C27 1_555 1_555
C28 C25 1_555 1_555
H21 C28 1_555 1_555
C29 N6 1_555 1_555
C30 C29 1_555 1_555
H22 C30 1_555 1_555
C31 C30 1_555 1_555
H23 C31 1_555 1_555
C32 C31 1_555 1_555
H24 C32 1_555 1_555
C33 C29 1_555 1_555
Co1_2 O1_2 1_555 1_555
Co1_3 N4 1_555 1_555
Co1B N5B 1_555 1_555
O1_2 N7_2 1_555 1_555
O2_2 Co1_2 1_555 1_555
O3_2 N7_2 1_555 1_555
O4_2 Co1_2 1_555 1_555
O5_2 N8_2 1_555 1_555
O6_2 N8_2 1_555 1_555
N1_2 Co1_2 1_555 1_555
N2_2 C6_2 1_555 1_555
N3_2 C12_2 1_555 1_555
N4_2 Co1 1_555 1_555
N4_3 Co1_2 1_555 1_555
N5B C23B 1_555 1_555
N5_2 Co1_2 1_555 1_555
N6B C28B 1_555 1_555
N7_2 O2_2 1_555 1_555
N8_2 O4_2 1_555 1_555
C1_2 N1_2 1_555 1_555
H1_2 C1_2 1_555 1_555
C2_2 C1_2 1_555 1_555
H2_2 C2_2 1_555 1_555
C3_2 C2_2 1_555 1_555
C4_2 C3_2 1_555 1_555
H3_2 C4_2 1_555 1_555
C5_2 N1_2 1_555 1_555
H4_2 C5_2 1_555 1_555
C6_2 C3_2 1_555 1_555
H5_2 C6_2 1_555 1_555
C7_2 N2_2 1_555 1_555
C8_2 C7_2 1_555 1_555
H6_2 C8_2 1_555 1_555
C9_2 C8_2 1_555 1_555
H7_2 C9_2 1_555 1_555
C10_2 C9_2 1_555 1_555
H8_2 C10_2 1_555 1_555
C11_2 C10_2 1_555 1_555
C12_2 C11_2 1_555 1_555
C13_2 C12_2 1_555 1_555
H9_2 C13_2 1_555 1_555
C14_2 C13_2 1_555 1_555
H10_2 C14_2 1_555 1_555
C15_2 C14_2 1_555 1_555
H11_2 C15_2 1_555 1_555
C16_2 C7_2 1_555 1_555
C17_2 N3_2 1_555 1_555
H12_2 C17_2 1_555 1_555
C18_2 C17_2 1_555 1_555
C19_2 C18_2 1_555 1_555
H13_2 C19_2 1_555 1_555
C20_2 N4_2 1_555 1_555
H14_2 C20_2 1_555 1_555
C21_2 N4_2 1_555 1_555
H15_2 C21_2 1_555 1_555
C22_2 C18_2 1_555 1_555
H16_2 C22_2 1_555 1_555
C23B H17B 1_555 1_555
C24B C23B 1_555 1_555
H18B C24B 1_555 1_555
C25B C24B 1_555 1_555
C26B C25B 1_555 1_555
H19B C26B 1_555 1_555
C27B N5B 1_555 1_555
H20B C27B 1_555 1_555
C28B C25B 1_555 1_555
H21B C28B 1_555 1_555
C29B N6B 1_555 1_555
C30B C29B 1_555 1_555
H22B C30B 1_555 1_555
C31B C30B 1_555 1_555
H23B C31B 1_555 1_555
C32B C33 1_555 1_555
H24B C32B 1_555 1_555
C33B C32 1_555 1_555
C4 C5 1_555 1_555
C11 C16 1_555 1_555
C15 C16 1_555 1_555
C21 C22 1_555 1_555
C26 C27 1_555 1_555
C33 C33B 1_555 1_555
C4_2 C5_2 1_555 1_555
C11_2 C16_2 1_555 1_555
C15_2 C16_2 1_555 1_555
C19_2 C20_2 1_555 1_555
C21_2 C22_2 1_555 1_555
C26B C27B 1_555 1_555
C29B C33B 1_555 1_555
C31B C32B 1_555 1_555

#END
