
#######################################################################
#
#                 Cambridge Crystallographic Data Centre
#                                CCDC 
#
#######################################################################
#
# If this CIF has been generated from an entry in the Cambridge 
# Structural Database, then it will include bibliographic, chemical, 
# crystal, experimental, refinement or atomic coordinate data resulting 
# from the CCDC's data processing and validation procedures.
#
#######################################################################

data_XIHSEN
_symmetry_cell_setting           monoclinic
_symmetry_space_group_name_H-M   'C 2/c'
_symmetry_Int_Tables_number      15
_space_group_name_Hall           '-C 2yn'
loop_
_symmetry_equiv_pos_site_id
_symmetry_equiv_pos_as_xyz
1 x,y,z
2 1/2+x,1/2+y,z
3 -x,y,1/2-z
4 1/2-x,1/2+y,1/2-z
5 -x,-y,-z
6 1/2-x,1/2-y,-z
7 x,-y,1/2+z
8 1/2+x,1/2-y,1/2+z
_cell_length_a                   13.3709(13)
_cell_length_b                   18.062(2)
_cell_length_c                   20.932(2)
_cell_angle_alpha                90
_cell_angle_beta                 99.315(10)
_cell_angle_gamma                90
_cell_volume                     4988.53
loop_
_atom_site_label
_atom_site_type_symbol
_atom_site_fract_x
_atom_site_fract_y
_atom_site_fract_z
Co1 Co 0.73299(5) 0.24328(3) 0.19161(3)
Co2 Co 0.5000 0.25194(4) 0.2500
O1 O 0.6563(3) 0.15050(19) 0.15944(16)
O2 O 0.4988(3) 0.17134(17) 0.17848(14)
O3 O 0.6613(2) 0.25692(16) 0.27662(13)
O4 O 0.8064(3) 0.19847(19) 0.28233(15)
O5 O 0.4853(3) 0.33735(18) 0.31576(15)
O6 O 0.3575(3) 0.3102(2) 0.37014(17)
C1 C 0.5627(4) 0.1412(2) 0.1493(2)
C2 C 0.5220(4) 0.0884(2) 0.0949(2)
C3 C 0.4181(4) 0.0814(3) 0.0742(2)
H1 H 0.3735 0.1071 0.0959
C4 C 0.3804(4) 0.0373(3) 0.0227(2)
H2 H 0.3107 0.0337 0.0095
C5 C 0.4475(3) -0.0030(2) -0.0107(2)
C6 C 0.5879(4) 0.0501(3) 0.0638(2)
H3 H 0.6572 0.0550 0.0776
C7 C 0.7383(4) 0.2255(2) 0.3099(2)
C8 C 0.7500(4) 0.2235(3) 0.3818(2)
C9 C 0.6971(4) 0.2715(3) 0.4141(2)
H4 H 0.6492 0.3028 0.3908
C10 C 0.7143(4) 0.2743(3) 0.4825(2)
C11 C 0.6614(4) 0.3243(3) 0.5171(2)
H5 H 0.6153 0.3574 0.4945
C12 C 0.8226(4) 0.1756(3) 0.4165(2)
H6 H 0.8596 0.1438 0.3943
C13 C 0.4320(4) 0.3468(3) 0.3599(2)
C14 C 0.4654(4) 0.4114(3) 0.4056(2)
C15 C 0.4263(4) 0.4189(3) 0.4613(2)
H7 H 0.3750 0.3873 0.4696
C16 C 0.4632(4) 0.4749(3) 0.5074(2)
C17 C 0.4262(5) 0.4828(3) 0.5663(2)
H8 H 0.3777 0.4499 0.5766
C18 C 0.5389(5) 0.4614(3) 0.3917(3)
H9 H 0.5646 0.4566 0.3532
O7 O 0.8453(4) 0.2174(3) 0.1391(2)
N1 N 0.9498(4) 0.2933(3) 0.0963(3)
C19 C 0.9250(6) 0.2543(5) 0.1426(4)
H10 H 0.9696 0.2534 0.1816
C20 C 0.8879(11) 0.2929(8) 0.0339(5)
H11 H 0.8321 0.2596 0.0341
H12 H 0.9275 0.2771 0.0020
H13 H 0.8625 0.3419 0.0235
C21 C 1.0376(6) 0.3398(5) 0.1033(5)
H14 H 1.0736 0.3361 0.1467
H15 H 1.0171 0.3902 0.0944
H16 H 1.0809 0.3243 0.0735
O8 O 0.8173(4) 0.3456(3) 0.2229(2)
N2 N 0.7723(7) 0.4672(5) 0.2358(4)
C22 C 0.7606(8) 0.3951(6) 0.2375(5)
H17 H 0.7020 0.3789 0.2517
C23 C 0.6920(11) 0.5202(9) 0.2530(7)
H18 H 0.6288 0.4944 0.2512
H19 H 0.6835 0.5606 0.2227
H20 H 0.7131 0.5391 0.2959
C24 C 0.8532(17) 0.4916(14) 0.2181(10)
H21 H 0.8918 0.4509 0.2055
H22 H 0.8927 0.5176 0.2535
H23 H 0.8357 0.5247 0.1822
Co1D Co 0.26701(5) -0.24328(3) -0.19161(3)
Co1B Co 0.26701(5) 0.24328(3) 0.30839(3)
Co1E Co 0.76701(5) 0.25672(3) 0.80839(3)
Co1F Co 0.73299(5) 0.75672(3) 0.69161(3)
Co2F Co 0.5000 -0.25194(4) -0.2500
Co2G Co 1.0000 0.24806(4) 0.7500
Co2F_2 Co 0.5000 0.74806(4) 0.7500
O1D O 0.3437(3) -0.15050(19) -0.15944(16)
O2D O 0.5012(3) -0.17134(17) -0.17848(14)
O2B O 0.5012(3) 0.17134(17) 0.32152(14)
O3E O 0.8387(2) 0.24308(16) 0.72338(13)
O3B O 0.3387(2) 0.25692(16) 0.22338(13)
O3D O 0.3387(2) -0.25692(16) -0.27662(13)
O4E O 0.6936(3) 0.30153(19) 0.71767(15)
O4D O 0.1936(3) -0.19847(19) -0.28233(15)
O5D O 0.5147(3) 0.66265(18) 0.68424(15)
O5B O 0.5147(3) 0.33735(18) 0.18424(15)
O6D O 0.6425(3) 0.6898(2) 0.62986(17)
O6B O 0.6425(3) 0.3102(2) 0.12986(17)
O6F O 0.3575(3) -0.3102(2) -0.12986(17)
C1D C 0.4373(4) -0.1412(2) -0.1493(2)
C2D C 0.4780(4) -0.0884(2) -0.0949(2)
C3D C 0.5819(4) -0.0814(3) -0.0742(2)
H1D H 0.6265 -0.1071 -0.0959
C4D C 0.6196(4) -0.0373(3) -0.0227(2)
H2D H 0.6893 -0.0337 -0.0095
C5D C 0.5525(3) 0.0030(2) 0.0107(2)
C6D C 0.4121(4) -0.0501(3) -0.0638(2)
H3D H 0.3428 -0.0550 -0.0776
C7E C 0.7617(4) 0.2745(2) 0.6901(2)
C8E C 0.7500(4) 0.2765(3) 0.6182(2)
C9E C 0.8029(4) 0.2285(3) 0.5859(2)
H4E H 0.8508 0.1972 0.6092
C10E C 0.7857(4) 0.2257(3) 0.5175(2)
C11E C 0.8386(4) 0.1757(3) 0.4829(2)
H5E H 0.8847 0.1426 0.5055
C12E C 0.6774(4) 0.3244(3) 0.5835(2)
H6E H 0.6404 0.3562 0.6057
C13D C 0.5680(4) 0.6532(3) 0.6401(2)
C14D C 0.5346(4) 0.5886(3) 0.5944(2)
C15D C 0.5737(4) 0.5811(3) 0.5387(2)
H7D H 0.6250 0.6127 0.5304
C16D C 0.5368(4) 0.5251(3) 0.4926(2)
C17D C 0.5738(5) 0.5172(3) 0.4337(2)
H8D H 0.6223 0.5501 0.4234
C18D C 0.4611(5) 0.5386(3) 0.6083(3)
H9D H 0.4354 0.5434 0.6468
O7D O 0.1547(4) -0.2174(3) -0.1391(2)
N1D N 0.0502(4) -0.2933(3) -0.0963(3)
C19D C 0.0750(6) -0.2543(5) -0.1426(4)
H10D H 0.0304 -0.2534 -0.1816
C20D C 0.1121(11) -0.2929(8) -0.0339(5)
H11D H 0.1679 -0.2596 -0.0341
H12D H 0.0725 -0.2771 -0.0020
H13D H 0.1375 -0.3419 -0.0235
C21D C -0.0376(6) -0.3398(5) -0.1033(5)
H14D H -0.0736 -0.3361 -0.1467
H15D H -0.0171 -0.3902 -0.0944
H16D H -0.0809 -0.3243 -0.0735
O8D O 0.1827(4) -0.3456(3) -0.2229(2)
N2D N 0.2277(7) -0.4672(5) -0.2358(4)
C22D C 0.2394(8) -0.3951(6) -0.2375(5)
H17D H 0.2980 -0.3789 -0.2517
C23D C 0.3080(11) -0.5202(9) -0.2530(7)
H18D H 0.3712 -0.4944 -0.2512
H19D H 0.3165 -0.5606 -0.2227
H20D H 0.2869 -0.5391 -0.2959
C24D C 0.1468(17) -0.4916(14) -0.2181(10)
H21D H 0.1082 -0.4509 -0.2055
H22D H 0.1073 -0.5176 -0.2535
H23D H 0.1643 -0.5247 -0.1822
loop_
_geom_bond_atom_site_label_1
_geom_bond_atom_site_label_2
_geom_bond_site_symmetry_1
_geom_bond_site_symmetry_2
Co1 O1 1_555 1_555
Co2 O2 1_555 1_555
O1 C1 1_555 1_555
O2 C1 1_555 1_555
O3 Co1 1_555 1_555
O4 Co1 1_555 1_555
O5 Co2 1_555 1_555
O6 C13 1_555 1_555
C1 C2 1_555 1_555
C2 C3 1_555 1_555
C3 H1 1_555 1_555
C4 C3 1_555 1_555
H2 C4 1_555 1_555
C5 C4 1_555 1_555
C6 C2 1_555 1_555
H3 C6 1_555 1_555
C7 O3 1_555 1_555
C8 C7 1_555 1_555
C9 C8 1_555 1_555
H4 C9 1_555 1_555
C10 C9 1_555 1_555
C11 C10 1_555 1_555
H5 C11 1_555 1_555
C12 C8 1_555 1_555
H6 C12 1_555 1_555
C13 O5 1_555 1_555
C14 C13 1_555 1_555
C15 C14 1_555 1_555
H7 C15 1_555 1_555
C16 C15 1_555 1_555
C17 C16 1_555 1_555
H8 C17 1_555 1_555
C18 C14 1_555 1_555
H9 C18 1_555 1_555
O7 Co1 1_555 1_555
N1 C19 1_555 1_555
C19 O7 1_555 1_555
H10 C19 1_555 1_555
C20 N1 1_555 1_555
H11 C20 1_555 1_555
H12 C20 1_555 1_555
H13 C20 1_555 1_555
C21 N1 1_555 1_555
H14 C21 1_555 1_555
H15 C21 1_555 1_555
H16 C21 1_555 1_555
O8 Co1 1_555 1_555
N2 C22 1_555 1_555
C22 O8 1_555 1_555
H17 C22 1_555 1_555
C23 N2 1_555 1_555
H18 C23 1_555 1_555
H19 C23 1_555 1_555
H20 C23 1_555 1_555
C24 N2 1_555 1_555
H21 C24 1_555 1_555
H22 C24 1_555 1_555
H23 C24 1_555 1_555
Co1D O1D 1_555 1_555
Co1B O6 1_555 1_555
Co1E O3E 1_555 1_555
Co1F O6D 1_555 1_555
Co2F O2D 1_555 1_555
Co2G O3E 1_555 1_555
Co2F_2 O5D 1_555 1_555
O1D C1D 1_555 1_555
O2D C1D 1_555 1_555
O2B Co2 1_555 1_555
O3E C7E 1_555 1_555
O3B Co2 1_555 1_555
O3D Co1D 1_555 1_555
O4E Co1E 1_555 1_555
O4D Co1D 1_555 1_555
O5D C13D 1_555 1_555
O5B Co2 1_555 1_555
O6D C13D 1_555 1_555
O6B Co1 1_555 1_555
O6F Co1D 1_555 1_555
C1D C2D 1_555 1_555
C2D C3D 1_555 1_555
C3D H1D 1_555 1_555
C4D C3D 1_555 1_555
H2D C4D 1_555 1_555
C5D C5 1_555 1_555
C6D C5 1_555 1_555
H3D C6D 1_555 1_555
C7E O4E 1_555 1_555
C8E C7E 1_555 1_555
C9E C8E 1_555 1_555
H4E C9E 1_555 1_555
C10E C10 1_555 1_555
C11E C12 1_555 1_555
H5E C11E 1_555 1_555
C12E C11 1_555 1_555
H6E C12E 1_555 1_555
C13D C14D 1_555 1_555
C14D C15D 1_555 1_555
C15D H7D 1_555 1_555
C16D C16 1_555 1_555
C17D C18 1_555 1_555
H8D C17D 1_555 1_555
C18D C17 1_555 1_555
H9D C18D 1_555 1_555
O7D Co1D 1_555 1_555
N1D C19D 1_555 1_555
C19D O7D 1_555 1_555
H10D C19D 1_555 1_555
C20D N1D 1_555 1_555
H11D C20D 1_555 1_555
H12D C20D 1_555 1_555
H13D C20D 1_555 1_555
C21D N1D 1_555 1_555
H14D C21D 1_555 1_555
H15D C21D 1_555 1_555
H16D C21D 1_555 1_555
O8D Co1D 1_555 1_555
N2D C22D 1_555 1_555
C22D O8D 1_555 1_555
H17D C22D 1_555 1_555
C23D N2D 1_555 1_555
H18D C23D 1_555 1_555
H19D C23D 1_555 1_555
H20D C23D 1_555 1_555
C24D N2D 1_555 1_555
H21D C24D 1_555 1_555
H22D C24D 1_555 1_555
H23D C24D 1_555 1_555
Co2 O3 1_555 1_555
O4 C7 1_555 1_555
C6 C5D 1_555 1_555
Co1B O3B 1_555 1_555
Co2F O3D 1_555 1_555
C2D C6D 1_555 1_555
C4D C5D 1_555 1_555
C8E C12E 1_555 1_555
C9E C10E 1_555 1_555
C10E C11E 1_555 1_555
C14D C18D 1_555 1_555
C15D C16D 1_555 1_555
C16D C17D 1_555 1_555

#END
