
#######################################################################
#
#                 Cambridge Crystallographic Data Centre
#                                CCDC 
#
#######################################################################
#
# If this CIF has been generated from an entry in the Cambridge 
# Structural Database, then it will include bibliographic, chemical, 
# crystal, experimental, refinement or atomic coordinate data resulting 
# from the CCDC's data processing and validation procedures.
#
#######################################################################

data_XIHSAJ
_symmetry_cell_setting           monoclinic
_symmetry_space_group_name_H-M   'C 2/c'
_symmetry_Int_Tables_number      15
_space_group_name_Hall           '-C 2yn'
loop_
_symmetry_equiv_pos_site_id
_symmetry_equiv_pos_as_xyz
1 x,y,z
2 1/2+x,1/2+y,z
3 -x,y,1/2-z
4 1/2-x,1/2+y,1/2-z
5 -x,-y,-z
6 1/2-x,1/2-y,-z
7 x,-y,1/2+z
8 1/2+x,1/2-y,1/2+z
_cell_length_a                   14.2654(18)
_cell_length_b                   18.457(3)
_cell_length_c                   20.630(4)
_cell_angle_alpha                90
_cell_angle_beta                 98.935(10)
_cell_angle_gamma                90
_cell_volume                     5365.89
loop_
_atom_site_label
_atom_site_type_symbol
_atom_site_fract_x
_atom_site_fract_y
_atom_site_fract_z
Co1 Co 0.0000 0.25153(5) 0.7500
Co2 Co 0.21811(6) 0.24574(4) 0.68669(4)
O1 O -0.0040(3) 0.1732(2) 0.6775(2)
O2 O 0.1439(3) 0.1555(2) 0.6550(2)
O3 O 0.0093(3) 0.3341(2) 0.6826(2)
O4 O 0.1317(4) 0.3138(3) 0.6290(2)
O5 O -0.1535(3) 0.2565(2) 0.72535(18)
O6 O -0.2856(3) 0.1942(3) 0.7233(2)
C1 C 0.0561(4) 0.1444(3) 0.6463(3)
C2 C 0.0196(5) 0.0912(3) 0.5927(3)
C3 C 0.0819(4) 0.0480(3) 0.5659(3)
H1 H 0.1462 0.0496 0.5827
C4 C -0.1123(5) 0.0441(4) 0.5157(4)
H2 H -0.1769 0.0434 0.4994
C5 C -0.0786(5) 0.0886(4) 0.5671(3)
H3 H -0.1208 0.1176 0.5856
C6 C 0.0496(4) 0.0009(3) 0.5130(3)
C7 C 0.0588(5) 0.3471(3) 0.6396(3)
C8 C 0.0272(4) 0.4092(3) 0.5934(3)
C9 C -0.0428(5) 0.4589(4) 0.6081(3)
H4 H -0.0688 0.4530 0.6464
C10 C -0.0724(6) 0.5150(4) 0.5673(3)
H5 H -0.1175 0.5472 0.5782
C11 C -0.0345(5) 0.5246(3) 0.5077(3)
C12 C 0.0656(5) 0.4186(4) 0.5371(3)
H6 H 0.1129 0.3873 0.5279
C13 C -0.2238(4) 0.2221(3) 0.6935(3)
C14 C -0.2387(4) 0.2211(3) 0.6204(3)
C15 C -0.3006(5) 0.1690(4) 0.5865(3)
H7 H -0.3282 0.1338 0.6098
C16 C -0.3198(5) 0.1703(4) 0.5194(3)
H8 H -0.3594 0.1352 0.4974
C17 C -0.1985(5) 0.2726(3) 0.5867(3)
H9 H -0.1569 0.3059 0.6094
C18 C -0.2809(5) 0.2236(4) 0.4835(3)
O7 O 0.3085(4) 0.2221(3) 0.6224(3)
N1 N 0.4192(10) 0.2741(7) 0.5767(6)
C19 C 0.3860(12) 0.2389(9) 0.6181(8)
C20 C 0.4713(19) 0.2072(14) 0.6589(13)
H10 H 0.4519 0.1778 0.6929
H11 H 0.5116 0.2455 0.6784
H12 H 0.5052 0.1780 0.6319
C21 C 0.5131(13) 0.2997(11) 0.5654(9)
H13 H 0.5063 0.3274 0.5255
H14 H 0.5536 0.2588 0.5617
H15 H 0.5406 0.3295 0.6015
C22 C 0.3268(15) 0.3147(12) 0.5322(10)
H16 H 0.3484 0.3441 0.4990
H17 H 0.2953 0.3447 0.5601
H18 H 0.2834 0.2787 0.5117
O8 O 0.3096(4) 0.3373(3) 0.7168(3)
N2 N 0.3628(11) 0.4499(9) 0.7185(7)
C23 C 0.2975(8) 0.4025(6) 0.7275(5)
C24 C 0.2294(15) 0.4287(12) 0.7680(10)
H19 H 0.2303 0.4807 0.7689
H20 H 0.2461 0.4104 0.8118
H21 H 0.1669 0.4122 0.7500
C25 C 0.3381(18) 0.5327(14) 0.7290(12)
H22 H 0.3872 0.5628 0.7165
H23 H 0.3335 0.5408 0.7744
H24 H 0.2786 0.5444 0.7025
C26 C 0.4489(16) 0.4247(12) 0.6881(11)
H25 H 0.4865 0.4659 0.6802
H26 H 0.4275 0.4003 0.6474
H27 H 0.4865 0.3921 0.7178
Co1D Co 0.0000 -0.25153(5) 0.2500
Co1D_2 Co 0.0000 0.74847(5) 0.2500
Co1E Co -0.5000 0.24847(5) 0.2500
Co2D Co -0.21811(6) -0.24574(4) 0.31331(4)
Co2B Co -0.21811(6) 0.24574(4) 0.81331(4)
Co2D_2 Co -0.21811(6) 0.75426(4) 0.31331(4)
Co2G Co -0.28189(6) 0.25426(4) 0.18669(4)
O1D O 0.0040(3) -0.1732(2) 0.3225(2)
O1B O 0.0040(3) 0.1732(2) 0.8225(2)
O2D O -0.1439(3) -0.1555(2) 0.3450(2)
O3D O -0.0093(3) 0.6659(2) 0.3174(2)
O3B O -0.0093(3) 0.3341(2) 0.8174(2)
O4D O -0.1317(4) 0.6862(3) 0.3710(2)
O4D_2 O -0.1317(4) -0.3138(3) 0.3710(2)
O5E O -0.3465(3) 0.2435(2) 0.27465(18)
O5B O 0.1535(3) 0.2565(2) 0.77465(18)
O5F O -0.1535(3) -0.2565(2) 0.22535(18)
O6E O -0.2144(3) 0.3058(3) 0.2767(2)
O6B O 0.2856(3) 0.1942(3) 0.7767(2)
O6F O -0.2856(3) -0.1942(3) 0.2233(2)
C1D C -0.0561(4) -0.1444(3) 0.3537(3)
C2D C -0.0196(5) -0.0912(3) 0.4073(3)
C3D C -0.0819(4) -0.0480(3) 0.4341(3)
H1D H -0.1462 -0.0496 0.4173
C4D C 0.1123(5) -0.0441(4) 0.4843(4)
H2D H 0.1769 -0.0434 0.5006
C5D C 0.0786(5) -0.0886(4) 0.4329(3)
H3D H 0.1208 -0.1176 0.4144
C6D C -0.0496(4) -0.0009(3) 0.4870(3)
C7D C -0.0588(5) 0.6529(3) 0.3604(3)
C8D C -0.0272(4) 0.5908(3) 0.4066(3)
C9D C 0.0428(5) 0.5411(4) 0.3919(3)
H4D H 0.0688 0.5470 0.3536
C10D C 0.0724(6) 0.4850(4) 0.4327(3)
H5D H 0.1175 0.4528 0.4218
C11D C 0.0345(5) 0.4754(3) 0.4923(3)
C12D C -0.0656(5) 0.5814(4) 0.4629(3)
H6D H -0.1129 0.6127 0.4721
C13E C -0.2762(4) 0.2779(3) 0.3065(3)
C14E C -0.2613(4) 0.2789(3) 0.3796(3)
C15E C -0.1994(5) 0.3310(4) 0.4135(3)
H7E H -0.1718 0.3662 0.3902
C16E C -0.1802(5) 0.3297(4) 0.4806(3)
H8E H -0.1406 0.3648 0.5026
C17E C -0.3015(5) 0.2274(3) 0.4133(3)
H9E H -0.3431 0.1941 0.3906
C18E C -0.2191(5) 0.2764(4) 0.5165(3)
O7D O -0.3085(4) -0.2221(3) 0.3776(3)
N1D N -0.4192(10) -0.2741(7) 0.4233(6)
C19D C -0.3860(12) -0.2389(9) 0.3819(8)
C20D C -0.4713(19) -0.2072(14) 0.3411(13)
H10D H -0.4519 -0.1778 0.3071
H11D H -0.5116 -0.2455 0.3216
H12D H -0.5052 -0.1780 0.3681
C21D C -0.5131(13) -0.2997(11) 0.4346(9)
H13D H -0.5063 -0.3274 0.4745
H14D H -0.5536 -0.2588 0.4383
H15D H -0.5406 -0.3295 0.3985
C22D C -0.3268(15) -0.3147(12) 0.4678(10)
H16D H -0.3484 -0.3441 0.5010
H17D H -0.2953 -0.3447 0.4399
H18D H -0.2834 -0.2787 0.4883
O8D O -0.3096(4) -0.3373(3) 0.2832(3)
N2D N -0.3628(11) -0.4499(9) 0.2815(7)
C23D C -0.2975(8) -0.4025(6) 0.2725(5)
C24D C -0.2294(15) -0.4287(12) 0.2320(10)
H19D H -0.2303 -0.4807 0.2311
H20D H -0.2461 -0.4104 0.1882
H21D H -0.1669 -0.4122 0.2500
C25D C -0.3381(18) -0.5327(14) 0.2710(12)
H22D H -0.3872 -0.5628 0.2835
H23D H -0.3335 -0.5408 0.2256
H24D H -0.2786 -0.5444 0.2975
C26D C -0.4489(16) -0.4247(12) 0.3119(11)
H25D H -0.4865 -0.4659 0.3198
H26D H -0.4275 -0.4003 0.3526
H27D H -0.4865 -0.3921 0.2822
loop_
_geom_bond_atom_site_label_1
_geom_bond_atom_site_label_2
_geom_bond_site_symmetry_1
_geom_bond_site_symmetry_2
Co1 O1 1_555 1_555
Co2 O2 1_555 1_555
O1 C1 1_555 1_555
O2 C1 1_555 1_555
O3 Co1 1_555 1_555
O4 Co2 1_555 1_555
O5 Co1 1_555 1_555
O6 C13 1_555 1_555
C1 C2 1_555 1_555
C2 C3 1_555 1_555
C3 H1 1_555 1_555
C4 H2 1_555 1_555
C5 C2 1_555 1_555
H3 C5 1_555 1_555
C6 C3 1_555 1_555
C7 O3 1_555 1_555
C8 C7 1_555 1_555
C9 C8 1_555 1_555
H4 C9 1_555 1_555
C10 C9 1_555 1_555
H5 C10 1_555 1_555
C11 C10 1_555 1_555
C12 C8 1_555 1_555
H6 C12 1_555 1_555
C13 O5 1_555 1_555
C14 C13 1_555 1_555
C15 C14 1_555 1_555
H7 C15 1_555 1_555
C16 C15 1_555 1_555
H8 C16 1_555 1_555
C17 C14 1_555 1_555
H9 C17 1_555 1_555
C18 C16 1_555 1_555
O7 Co2 1_555 1_555
N1 C19 1_555 1_555
C19 O7 1_555 1_555
C20 C19 1_555 1_555
H10 C20 1_555 1_555
H11 C20 1_555 1_555
H12 C20 1_555 1_555
C21 N1 1_555 1_555
H13 C21 1_555 1_555
H14 C21 1_555 1_555
H15 C21 1_555 1_555
C22 N1 1_555 1_555
H16 C22 1_555 1_555
H17 C22 1_555 1_555
H18 C22 1_555 1_555
O8 Co2 1_555 1_555
N2 C23 1_555 1_555
C23 O8 1_555 1_555
C24 C23 1_555 1_555
H19 C24 1_555 1_555
H20 C24 1_555 1_555
H21 C24 1_555 1_555
C25 N2 1_555 1_555
H22 C25 1_555 1_555
H23 C25 1_555 1_555
H24 C25 1_555 1_555
C26 N2 1_555 1_555
H25 C26 1_555 1_555
H26 C26 1_555 1_555
H27 C26 1_555 1_555
Co1D O1D 1_555 1_555
Co1D_2 O3D 1_555 1_555
Co1E O5E 1_555 1_555
Co2D O2D 1_555 1_555
Co2B O5 1_555 1_555
Co2D_2 O4D 1_555 1_555
Co2G O5E 1_555 1_555
O1D C1D 1_555 1_555
O1B Co1 1_555 1_555
O2D C1D 1_555 1_555
O3D C7D 1_555 1_555
O3B Co1 1_555 1_555
O4D C7D 1_555 1_555
O4D_2 Co2D 1_555 1_555
O5E C13E 1_555 1_555
O5B Co1 1_555 1_555
O5F Co1D 1_555 1_555
O6E Co2G 1_555 1_555
O6B Co2 1_555 1_555
O6F Co2D 1_555 1_555
C1D C2D 1_555 1_555
C2D C3D 1_555 1_555
C3D H1D 1_555 1_555
C4D C6 1_555 1_555
H2D C4D 1_555 1_555
C5D C2D 1_555 1_555
H3D C5D 1_555 1_555
C6D C4 1_555 1_555
C7D C8D 1_555 1_555
C8D C9D 1_555 1_555
C9D H4D 1_555 1_555
C10D C9D 1_555 1_555
H5D C10D 1_555 1_555
C11D C11 1_555 1_555
C12D C11 1_555 1_555
H6D C12D 1_555 1_555
C13E O6E 1_555 1_555
C14E C13E 1_555 1_555
C15E C14E 1_555 1_555
H7E C15E 1_555 1_555
C16E C15E 1_555 1_555
H8E C16E 1_555 1_555
C17E C18 1_555 1_555
H9E C17E 1_555 1_555
C18E C17 1_555 1_555
O7D Co2D 1_555 1_555
N1D C19D 1_555 1_555
C19D O7D 1_555 1_555
C20D C19D 1_555 1_555
H10D C20D 1_555 1_555
H11D C20D 1_555 1_555
H12D C20D 1_555 1_555
C21D N1D 1_555 1_555
H13D C21D 1_555 1_555
H14D C21D 1_555 1_555
H15D C21D 1_555 1_555
C22D N1D 1_555 1_555
H16D C22D 1_555 1_555
H17D C22D 1_555 1_555
H18D C22D 1_555 1_555
O8D Co2D 1_555 1_555
N2D C23D 1_555 1_555
C23D O8D 1_555 1_555
C24D C23D 1_555 1_555
H19D C24D 1_555 1_555
H20D C24D 1_555 1_555
H21D C24D 1_555 1_555
C25D N2D 1_555 1_555
H22D C25D 1_555 1_555
H23D C25D 1_555 1_555
H24D C25D 1_555 1_555
C26D N2D 1_555 1_555
H25D C26D 1_555 1_555
H26D C26D 1_555 1_555
H27D C26D 1_555 1_555
Co2 O5B 1_555 1_555
O4 C7 1_555 1_555
O6 Co2B 1_555 1_555
C4 C5 1_555 1_555
C6 C6D 1_555 1_555
C12 C11D 1_555 1_555
C18 C18E 1_555 1_555
Co2D O5F 1_555 1_555
C3D C6D 1_555 1_555
C4D C5D 1_555 1_555
C8D C12D 1_555 1_555
C10D C11D 1_555 1_555
C14E C17E 1_555 1_555
C16E C18E 1_555 1_555

#END
