
#######################################################################
#
#                 Cambridge Crystallographic Data Centre
#                                CCDC 
#
#######################################################################
#
# If this CIF has been generated from an entry in the Cambridge 
# Structural Database, then it will include bibliographic, chemical, 
# crystal, experimental, refinement or atomic coordinate data resulting 
# from the CCDC's data processing and validation procedures.
#
#######################################################################

data_XIHWUI
_symmetry_cell_setting           monoclinic
_symmetry_space_group_name_H-M   'P 21/c'
_symmetry_Int_Tables_number      14
_space_group_name_Hall           '-P 2ybc'
loop_
_symmetry_equiv_pos_site_id
_symmetry_equiv_pos_as_xyz
1 x,y,z
2 -x,1/2+y,1/2-z
3 -x,-y,-z
4 x,1/2-y,1/2+z
_cell_length_a                   12.6283(13)
_cell_length_b                   14.9622(17)
_cell_length_c                   18.9869(16)
_cell_angle_alpha                90
_cell_angle_beta                 123.236(5)
_cell_angle_gamma                90
_cell_volume                     3000.67
loop_
_atom_site_label
_atom_site_type_symbol
_atom_site_fract_x
_atom_site_fract_y
_atom_site_fract_z
C1 C 0.1272(4) 0.6100(3) 0.9242(3)
C2 C 0.2035(4) 0.6086(3) 0.8851(3)
C3 C 0.3100(5) 0.5544(4) 0.9161(3)
H1 H 0.3336 0.5151 0.9603
C4 C 0.3800(5) 0.5596(4) 0.8804(3)
H2 H 0.4534 0.5258 0.9025
C5 C 0.3418(4) 0.6149(3) 0.8118(3)
C6 C 0.2368(5) 0.6654(3) 0.7796(3)
H3 H 0.2109 0.7015 0.7330
C7 C 0.1682(5) 0.6633(3) 0.8161(3)
H4 H 0.0966 0.6991 0.7942
C8 C 0.4238(4) 0.6201(3) 0.7752(3)
C9 C 0.5570(4) 0.6204(3) 0.8292(3)
H5 H 0.5930 0.6150 0.8868
C10 C 0.6368(4) 0.6282(3) 0.8008(3)
C11 C 0.7760(4) 0.6335(3) 0.8666(3)
C12 C 0.5854(4) 0.6362(3) 0.7142(3)
C13 C 0.4519(4) 0.6346(3) 0.6597(3)
H6 H 0.4162 0.6390 0.6021
C14 C 0.3717(4) 0.6267(3) 0.6878(3)
C15 C 0.2316(4) 0.6223(3) 0.6214(3)
C16 C 0.6654(4) 0.6426(3) 0.6762(3)
C17 C 0.7701(5) 0.5914(3) 0.7078(3)
H7 H 0.7963 0.5550 0.7543
C18 C 0.8382(5) 0.5937(3) 0.6705(3)
H8 H 0.9091 0.5573 0.6913
C19 C 0.8025(4) 0.6494(3) 0.6023(3)
C20 C 0.6972(5) 0.7043(3) 0.5724(3)
H9 H 0.6740 0.7441 0.5286
C21 C 0.6269(5) 0.6990(3) 0.6088(3)
H10 H 0.5543 0.7334 0.5877
C22 C 0.8774(4) 0.6479(3) 0.5621(3)
C23 C 0.0316(7) 0.8811(4) 0.7521(4)
H11 H 0.0686 0.8311 0.7404
H12 H 0.0563 0.9362 0.7379
C24 C -0.1071(8) 0.8730(5) 0.7044(5)
H13 H -0.1335 0.8149 0.6774
H14 H -0.1465 0.9188 0.6613
C25 C -0.1450(6) 0.8839(4) 0.7664(3)
H15 H -0.1889 0.9401 0.7575
H16 H -0.1999 0.8354 0.7612
C26 C -0.0243(5) 0.8822(3) 0.8504(3)
C27 C 0.2048(6) 0.8795(4) 0.9109(4)
H17 H 0.2241 0.9328 0.9439
H18 H 0.2578 0.8763 0.8893
H19 H 0.2197 0.8282 0.9456
Mn1 Mn 0.00429(6) 0.75184(4) 0.98574(4)
Mn2 Mn 0.0000 0.5000 0.5000
Mn3 Mn 0.0000 0.5000 1.0000
N1 N 0.0718(4) 0.8812(3) 0.8408(3)
O1 O 0.1015(3) 0.5376(2) 0.9435(2)
O2 O 0.0981(3) 0.6861(2) 0.9363(2)
O3 O 0.8274(3) 0.5645(2) 0.9085(2)
O4 O 0.8285(3) 0.7074(2) 0.8759(2)
O5 O 0.1821(3) 0.5462(2) 0.6030(2)
O6 O 0.1788(3) 0.6952(2) 0.5880(2)
O7 O 0.9146(3) 0.5735(2) 0.5541(2)
O8 O 0.8959(3) 0.7219(2) 0.5387(2)
O9 O -0.0125(3) 0.88171(18) 0.9216(2)
O10 O 0.0511(3) 0.62674(18) 1.07604(19)
H20 H 0.1405 0.6264 1.1203
H21 H 0.0033 0.6308 1.1021
C1B C -0.1272(4) 0.3900(3) 0.0758(3)
C2B C -0.2035(4) 0.3914(3) 0.1149(3)
C3B C -0.3100(5) 0.4456(4) 0.0839(3)
H1B H -0.3336 0.4849 0.0397
C4B C -0.3800(5) 0.4404(4) 0.1196(3)
H2B H -0.4534 0.4742 0.0975
C5B C -0.3418(4) 0.3851(3) 0.1882(3)
C6B C -0.2368(5) 0.3346(3) 0.2204(3)
H3B H -0.2109 0.2985 0.2670
C7B C -0.1682(5) 0.3367(3) 0.1839(3)
H4B H -0.0966 0.3009 0.2058
C8B C -0.4238(4) 0.3799(3) 0.2248(3)
C9B C -0.5570(4) 0.3796(3) 0.1708(3)
H5B H -0.5930 0.3850 0.1132
C10B C -0.6368(4) 0.3718(3) 0.1992(3)
C11B C -0.7760(4) 0.3665(3) 0.1334(3)
C12B C -0.5854(4) 0.3638(3) 0.2858(3)
C13B C -0.4519(4) 0.3654(3) 0.3403(3)
H6B H -0.4162 0.3610 0.3979
C14B C -0.3717(4) 0.3733(3) 0.3122(3)
C15B C -0.2316(4) 0.3777(3) 0.3786(3)
C16B C -0.6654(4) 0.3574(3) 0.3238(3)
C17B C -0.7701(5) 0.4086(3) 0.2922(3)
H7B H -0.7963 0.4450 0.2457
C18B C -0.8382(5) 0.4063(3) 0.3295(3)
H8B H -0.9091 0.4427 0.3087
C19B C -0.8025(4) 0.3506(3) 0.3977(3)
C20B C -0.6972(5) 0.2957(3) 0.4276(3)
H9B H -0.6740 0.2559 0.4714
C21B C -0.6269(5) 0.3010(3) 0.3912(3)
H10B H -0.5543 0.2666 0.4123
C22B C -0.8774(4) 0.3521(3) 0.4379(3)
C23B C -0.0316(7) 0.1189(4) 0.2479(4)
H11B H -0.0686 0.1689 0.2596
H12B H -0.0563 0.0638 0.2621
C24B C 0.1071(8) 0.1270(5) 0.2956(5)
H13B H 0.1335 0.1851 0.3226
H14B H 0.1465 0.0812 0.3387
C25B C 0.1450(6) 0.1161(4) 0.2336(3)
H15B H 0.1889 0.0599 0.2425
H16B H 0.1999 0.1646 0.2388
C26B C 0.0243(5) 0.1178(3) 0.1496(3)
C27B C -0.2048(6) 0.1205(4) 0.0891(4)
H17B H -0.2241 0.0672 0.0561
H18B H -0.2578 0.1237 0.1107
H19B H -0.2197 0.1718 0.0544
Mn1B Mn -0.00429(6) 0.24816(4) 0.01426(4)
N1B N -0.0718(4) 0.1188(3) 0.1592(3)
O1B O -0.1015(3) 0.4624(2) 0.0565(2)
O2B O -0.0981(3) 0.3139(2) 0.0637(2)
O3B O -0.8274(3) 0.4355(2) 0.0915(2)
O4B O -0.8285(3) 0.2926(2) 0.1241(2)
O5B O -0.1821(3) 0.4538(2) 0.3970(2)
O6B O -0.1788(3) 0.3048(2) 0.4120(2)
O7B O -0.9146(3) 0.4265(2) 0.4459(2)
O8B O -0.8959(3) 0.2781(2) 0.4613(2)
O9B O 0.0125(3) 0.11829(18) 0.0784(2)
O10B O -0.0511(3) 0.37326(18) -0.07604(19)
H20B H -0.1405 0.3736 -0.1203
H21B H -0.0033 0.3692 -0.1021
Mn1_2 Mn 1.00429(6) 0.75184(4) 0.98574(4)
Mn1A Mn -1.00429(6) 0.25184(4) 0.51426(4)
Mn1A_2 Mn -0.00429(6) 0.25184(4) 0.51426(4)
Mn1B_2 Mn -1.00429(6) 0.24816(4) 0.01426(4)
Mn1C Mn 0.00429(6) 0.74816(4) 0.48574(4)
Mn1C_2 Mn 1.00429(6) 0.74816(4) 0.48574(4)
Mn2_2 Mn -1.0000 0.5000 0.5000
Mn2_3 Mn 1.0000 0.5000 0.5000
Mn2A Mn 0.0000 0.0000 0.0000
Mn2A_2 Mn 0.0000 1.0000 1.0000
Mn3_2 Mn -1.0000 0.5000 0.0000
Mn3_3 Mn 0.0000 0.5000 0.0000
Mn3_4 Mn 1.0000 0.5000 1.0000
O1B_2 O -0.1015(3) 0.4624(2) 1.0565(2)
O3_2 O -0.1726(3) 0.5645(2) 0.9085(2)
O3B_2 O 0.1726(3) 0.4355(2) 1.0915(2)
O4_2 O -0.1715(3) 0.7074(2) 0.8759(2)
O4B_2 O 0.1715(3) 0.2926(2) 0.1241(2)
O6A O -0.1788(3) 0.1952(2) -0.0880(2)
O6C O 0.1788(3) 0.8048(2) 1.0880(2)
O7_2 O -0.0854(3) 0.5735(2) 0.5541(2)
O7B_2 O 0.0854(3) 0.4265(2) 0.4459(2)
O8A O 0.1041(3) 0.2219(2) -0.0387(2)
O8C O -0.1041(3) 0.7781(2) 1.0387(2)
O9A O 0.0125(3) 0.38171(18) 0.5784(2)
O9C O -0.0125(3) 0.61829(18) 0.4216(2)
O10B_2 O -0.0511(3) 0.37326(18) 0.92396(19)
C28 C 0.5720(7) 0.8784(4) 0.7748(7)
H22 H 0.6101 0.8278 0.7649
H23 H 0.6073 0.9329 0.7681
C29 C 0.5959(11) 0.8740(6) 0.8560(9)
H24 H 0.6545 0.9211 0.8904
H25 H 0.6354 0.8171 0.8814
C30 C 0.4752(6) 0.8837(5) 0.8546(7)
H26 H 0.4722 0.9400 0.8789
H27 H 0.4634 0.8345 0.8829
C31 C 0.3713(7) 0.8807(4) 0.7506(6)
C32 C 0.3727(8) 0.8789(5) 0.6352(5)
H28 H 0.3279 0.8236 0.6127
H29 H 0.4315 0.8869 0.6187
H30 H 0.3134 0.9276 0.6140
N2 N 0.4321(9) 0.8772(4) 0.7146(8)
O11 O 0.2594(4) 0.8809(2) 0.7244(2)
loop_
_geom_bond_atom_site_label_1
_geom_bond_atom_site_label_2
_geom_bond_site_symmetry_1
_geom_bond_site_symmetry_2
C1 C2 1_555 1_555
C2 C3 1_555 1_555
C3 H1 1_555 1_555
C4 C3 1_555 1_555
H2 C4 1_555 1_555
C5 C4 1_555 1_555
C6 C5 1_555 1_555
H3 C6 1_555 1_555
C7 C2 1_555 1_555
H4 C7 1_555 1_555
C8 C5 1_555 1_555
C9 C8 1_555 1_555
H5 C9 1_555 1_555
C10 C9 1_555 1_555
C11 C10 1_555 1_555
C12 C10 1_555 1_555
C13 C12 1_555 1_555
H6 C13 1_555 1_555
C14 C8 1_555 1_555
C15 C14 1_555 1_555
C16 C12 1_555 1_555
C17 C16 1_555 1_555
H7 C17 1_555 1_555
C18 C17 1_555 1_555
H8 C18 1_555 1_555
C19 C18 1_555 1_555
C20 C19 1_555 1_555
H9 C20 1_555 1_555
C21 C16 1_555 1_555
H10 C21 1_555 1_555
C22 C19 1_555 1_555
C23 H11 1_555 1_555
H12 C23 1_555 1_555
C24 C23 1_555 1_555
H13 C24 1_555 1_555
H14 C24 1_555 1_555
C25 C24 1_555 1_555
H15 C25 1_555 1_555
H16 C25 1_555 1_555
C26 C25 1_555 1_555
C27 H17 1_555 1_555
H18 C27 1_555 1_555
H19 C27 1_555 1_555
Mn1 O2 1_555 1_555
Mn2 O5 1_555 1_555
Mn3 O1 1_555 1_555
N1 C23 1_555 1_555
O1 C1 1_555 1_555
O2 C1 1_555 1_555
O3 C11 1_555 1_555
O4 C11 1_555 1_555
O5 C15 1_555 1_555
O6 C15 1_555 1_555
O7 C22 1_555 1_555
O8 C22 1_555 1_555
O9 C26 1_555 1_555
O10 Mn1 1_555 1_555
H20 O10 1_555 1_555
H21 O10 1_555 1_555
C28 H22 1_555 1_555
H23 C28 1_555 1_555
C29 C28 1_555 1_555
H24 C29 1_555 1_555
H25 C29 1_555 1_555
C30 C29 1_555 1_555
H26 C30 1_555 1_555
H27 C30 1_555 1_555
C31 C30 1_555 1_555
C32 H28 1_555 1_555
H29 C32 1_555 1_555
H30 C32 1_555 1_555
N2 C28 1_555 1_555
O11 C31 1_555 1_555
C1B C2B 1_555 1_555
C2B C3B 1_555 1_555
C3B H1B 1_555 1_555
C4B C3B 1_555 1_555
H2B C4B 1_555 1_555
C5B C4B 1_555 1_555
C6B C5B 1_555 1_555
H3B C6B 1_555 1_555
C7B C2B 1_555 1_555
H4B C7B 1_555 1_555
C8B C5B 1_555 1_555
C9B C8B 1_555 1_555
H5B C9B 1_555 1_555
C10B C9B 1_555 1_555
C11B C10B 1_555 1_555
C12B C10B 1_555 1_555
C13B C12B 1_555 1_555
H6B C13B 1_555 1_555
C14B C8B 1_555 1_555
C15B C14B 1_555 1_555
C16B C12B 1_555 1_555
C17B C16B 1_555 1_555
H7B C17B 1_555 1_555
C18B C17B 1_555 1_555
H8B C18B 1_555 1_555
C19B C18B 1_555 1_555
C20B C19B 1_555 1_555
H9B C20B 1_555 1_555
C21B C16B 1_555 1_555
H10B C21B 1_555 1_555
C22B C19B 1_555 1_555
C23B H11B 1_555 1_555
H12B C23B 1_555 1_555
C24B C23B 1_555 1_555
H13B C24B 1_555 1_555
H14B C24B 1_555 1_555
C25B C24B 1_555 1_555
H15B C25B 1_555 1_555
H16B C25B 1_555 1_555
C26B C25B 1_555 1_555
C27B H17B 1_555 1_555
H18B C27B 1_555 1_555
H19B C27B 1_555 1_555
Mn1B O2B 1_555 1_555
N1B C23B 1_555 1_555
O1B C1B 1_555 1_555
O2B C1B 1_555 1_555
O3B C11B 1_555 1_555
O4B C11B 1_555 1_555
O5B Mn2 1_555 1_555
O6B C15B 1_555 1_555
O7B C22B 1_555 1_555
O8B C22B 1_555 1_555
O9B C26B 1_555 1_555
O10B Mn1B 1_555 1_555
H20B O10B 1_555 1_555
H21B O10B 1_555 1_555
Mn1_2 O4 1_555 1_555
Mn1A O8B 1_555 1_555
Mn1A_2 O6B 1_555 1_555
Mn1B_2 O4B 1_555 1_555
Mn1C O6 1_555 1_555
Mn1C_2 O8 1_555 1_555
Mn2_2 O7B 1_555 1_555
Mn2_3 O7 1_555 1_555
Mn2A O9B 1_555 1_555
Mn2A_2 O9 1_555 1_555
Mn3_2 O3B 1_555 1_555
Mn3_3 O1B 1_555 1_555
Mn3_4 O3 1_555 1_555
O1B_2 Mn3 1_555 1_555
O3_2 Mn3 1_555 1_555
O3B_2 Mn3 1_555 1_555
O4_2 Mn1 1_555 1_555
O4B_2 Mn1B 1_555 1_555
O6A Mn1B 1_555 1_555
O6C Mn1 1_555 1_555
O7_2 Mn2 1_555 1_555
O7B_2 Mn2 1_555 1_555
O8A Mn1B 1_555 1_555
O8C Mn1 1_555 1_555
O9A Mn2 1_555 1_555
O9C Mn2 1_555 1_555
O10B_2 Mn3 1_555 1_555
C6 C7 1_555 1_555
C13 C14 1_555 1_555
C20 C21 1_555 1_555
C26 N1 1_555 1_555
C27 N1 1_555 1_555
Mn1 O9 1_555 1_555
Mn3 O10 1_555 1_555
C31 N2 1_555 1_555
C32 N2 1_555 1_555
C6B C7B 1_555 1_555
C13B C14B 1_555 1_555
C15B O5B 1_555 1_555
C20B C21B 1_555 1_555
C26B N1B 1_555 1_555
C27B N1B 1_555 1_555
Mn1B O9B 1_555 1_555
O10B Mn3_3 1_555 1_555
Mn1A_2 O9A 1_555 1_555
Mn1C O9C 1_555 1_555

#END
