
#######################################################################
#
#                 Cambridge Crystallographic Data Centre
#                                CCDC 
#
#######################################################################
#
# If this CIF has been generated from an entry in the Cambridge 
# Structural Database, then it will include bibliographic, chemical, 
# crystal, experimental, refinement or atomic coordinate data resulting 
# from the CCDC's data processing and validation procedures.
#
#######################################################################

data_XIHXOD
_symmetry_cell_setting           monoclinic
_symmetry_space_group_name_H-M   'P 21/n'
_symmetry_Int_Tables_number      14
_space_group_name_Hall           '-P 2yn'
loop_
_symmetry_equiv_pos_site_id
_symmetry_equiv_pos_as_xyz
1 x,y,z
2 1/2-x,1/2+y,1/2-z
3 -x,-y,-z
4 1/2+x,1/2-y,1/2+z
_cell_length_a                   12.0288(9)
_cell_length_b                   10.2873(8)
_cell_length_c                   17.0184(15)
_cell_angle_alpha                90
_cell_angle_beta                 96.400(6)
_cell_angle_gamma                90
_cell_volume                     2092.8
loop_
_atom_site_label
_atom_site_type_symbol
_atom_site_fract_x
_atom_site_fract_y
_atom_site_fract_z
Cd1 Cd 0.34609(2) 0.50694(2) 0.193469(16)
C1 C 0.0765(4) 0.4943(3) 0.3335(3)
C2 C 0.0359(3) 0.3786(4) 0.3623(2)
C3 C 0.0240(4) 0.6105(4) 0.3493(3)
H1 H 0.0495 0.6882 0.3299
C4 C -0.0656(4) 0.6114(5) 0.3936(3)
H2 H -0.1001 0.6897 0.4035
C5 C 0.6936(3) 0.2681(4) 0.5195(2)
C6 C -0.0544(4) 0.3826(5) 0.4079(3)
H3 H -0.0811 0.3060 0.4280
O1 O 0.1881(2) 0.2262(3) 0.37043(19)
C7 C 0.4781(3) 0.2129(4) 0.3658(2)
N1 N 0.7396(3) 0.2228(3) 0.5896(2)
H4 H 0.7324 0.2601 0.6340
O2 O 0.0227(3) 0.1606(3) 0.3187(2)
C8 C -0.1035(5) 0.4988(4) 0.4227(4)
H5 H -0.1632 0.5007 0.4529
C9 C 0.7214(3) 0.1815(4) 0.4628(2)
C10 C 0.7871(3) 0.0855(4) 0.5056(2)
C11 C 0.8394(4) -0.0317(5) 0.4727(3)
H6 H 0.8800 -0.0797 0.5151
H7 H 0.8898 -0.0048 0.4359
H8 H 0.7821 -0.0860 0.4462
N2 N 0.4542(3) 0.3786(3) 0.2800(2)
C12 C 0.5822(3) 0.2473(4) 0.3461(2)
N3 N 0.7983(3) 0.1123(3) 0.58271(19)
N4 N 0.4047(3) 0.2930(3) 0.3258(2)
H9 H 0.3338 0.2904 0.3289
C13 C 0.5631(3) 0.3512(4) 0.2930(2)
C14 C 0.6922(4) 0.1827(4) 0.3746(2)
H10 H 0.7514 0.2271 0.3510
H11 H 0.6900 0.0937 0.3557
C15 C 0.6257(4) 0.3912(5) 0.5158(3)
H12 H 0.6253 0.4259 0.5681
H13 H 0.5504 0.3727 0.4938
H14 H 0.6582 0.4535 0.4831
C16 C 0.0871(3) 0.2483(4) 0.3492(2)
C17 C 0.4464(4) 0.1096(5) 0.4202(3)
H15 H 0.3668 0.1104 0.4214
H16 H 0.4829 0.1253 0.4724
H17 H 0.4690 0.0264 0.4019
C18 C 0.6474(4) 0.4273(6) 0.2537(3)
H18 H 0.6099 0.4935 0.2209
H19 H 0.6866 0.3702 0.2217
H20 H 0.6997 0.4671 0.2932
O3 O 0.2363(3) 0.5910(3) 0.28600(18)
O4 O 0.1810(3) 0.4025(3) 0.23707(18)
C19 C 0.1704(4) 0.4950(3) 0.2825(3)
Cd1A Cd 0.15391(2) 0.00694(2) 0.306531(16)
Cd1C Cd 0.84609(2) -0.00694(2) 0.693469(16)
O1A O 0.3119(2) 0.7262(3) 0.12957(19)
O2A O 0.4773(3) 0.6606(3) 0.1813(2)
N3C N 0.2983(3) 0.3877(3) 0.08271(19)
O5 O 0.685(2) 0.684(2) 0.4666(16)
O6? O 0.554(3) 0.818(2) 0.3421(14)
O7? O 0.524(3) 0.760(3) 0.3444(18)
O8? O 0.597(4) 0.774(6) 0.333(3)
loop_
_geom_bond_atom_site_label_1
_geom_bond_atom_site_label_2
_geom_bond_site_symmetry_1
_geom_bond_site_symmetry_2
Cd1 N2 1_555 1_555
C1 C2 1_555 1_555
C2 C6 1_555 1_555
C3 C1 1_555 1_555
H1 C3 1_555 1_555
C4 C3 1_555 1_555
H2 C4 1_555 1_555
C5 N1 1_555 1_555
C6 H3 1_555 1_555
O1 C16 1_555 1_555
C7 C12 1_555 1_555
N1 H4 1_555 1_555
O2 C16 1_555 1_555
C8 C4 1_555 1_555
H5 C8 1_555 1_555
C9 C5 1_555 1_555
C10 C9 1_555 1_555
C11 C10 1_555 1_555
H6 C11 1_555 1_555
H7 C11 1_555 1_555
H8 C11 1_555 1_555
N2 N4 1_555 1_555
C12 C13 1_555 1_555
N3 N1 1_555 1_555
N4 C7 1_555 1_555
H9 N4 1_555 1_555
C13 N2 1_555 1_555
C14 C9 1_555 1_555
H10 C14 1_555 1_555
H11 C14 1_555 1_555
C15 C5 1_555 1_555
H12 C15 1_555 1_555
H13 C15 1_555 1_555
H14 C15 1_555 1_555
C16 C2 1_555 1_555
C17 C7 1_555 1_555
H15 C17 1_555 1_555
H16 C17 1_555 1_555
H17 C17 1_555 1_555
C18 C13 1_555 1_555
H18 C18 1_555 1_555
H19 C18 1_555 1_555
H20 C18 1_555 1_555
O3 Cd1 1_555 1_555
O4 Cd1 1_555 1_555
C19 C1 1_555 1_555
Cd1A O1 1_555 1_555
Cd1C N3 1_555 1_555
O1A Cd1 1_555 1_555
O2A Cd1 1_555 1_555
N3C Cd1 1_555 1_555
C6 C8 1_555 1_555
O2 Cd1A 1_555 1_555
C10 N3 1_555 1_555
C12 C14 1_555 1_555
O3 C19 1_555 1_555
O4 C19 1_555 1_555

#END
