
#######################################################################
#
#                 Cambridge Crystallographic Data Centre
#                                CCDC 
#
#######################################################################
#
# If this CIF has been generated from an entry in the Cambridge 
# Structural Database, then it will include bibliographic, chemical, 
# crystal, experimental, refinement or atomic coordinate data resulting 
# from the CCDC's data processing and validation procedures.
#
#######################################################################

data_XIHXUJ
_symmetry_cell_setting           triclinic
_symmetry_space_group_name_H-M   'P -1'
_symmetry_Int_Tables_number      2
_space_group_name_Hall           '-P 1'
loop_
_symmetry_equiv_pos_site_id
_symmetry_equiv_pos_as_xyz
1 x,y,z
2 -x,-y,-z
_cell_length_a                   9.8799(16)
_cell_length_b                   10.0359(15)
_cell_length_c                   12.070(2)
_cell_angle_alpha                103.223(4)
_cell_angle_beta                 109.450(5)
_cell_angle_gamma                96.942(6)
_cell_volume                     1072.96
loop_
_atom_site_label
_atom_site_type_symbol
_atom_site_fract_x
_atom_site_fract_y
_atom_site_fract_z
Cd1 Cd 0.42531(6) 0.02040(6) 0.33564(5)
O1 O 0.3733(7) 0.8742(6) 0.4343(6)
O2 O 0.3993(7) 0.2384(6) 0.3451(6)
N1 N 0.2536(9) -0.0613(8) 0.1307(7)
O3 O 0.3761(9) 0.7127(7) 0.2768(6)
N2 N 0.2097(9) -0.2032(8) 0.0788(7)
H1 H 0.2281 -0.2624 0.1205
O4 O 0.2864(8) 0.1673(6) 0.4578(6)
N3 N 0.3707(7) -0.0027(7) -0.2929(6)
C1 C 0.3533(9) 0.7464(8) 0.3738(8)
C2 C 0.3294(8) 0.5016(8) 0.3922(7)
H2 H 0.3768 0.4805 0.3376
N4 N 0.2729(8) 0.0730(7) -0.3400(6)
H3 H 0.2865 0.1291 -0.3814
C3 C 0.1364(11) -0.2412(10) -0.0413(8)
C4 C 0.2881(8) 0.3989(8) 0.4423(7)
C5 C 0.1698(9) -0.0430(9) -0.2460(8)
C6 C 0.2006(9) -0.0109(9) 0.0352(8)
C7 C 0.1547(10) 0.0493(9) -0.3142(8)
C8 C 0.3255(9) 0.2602(8) 0.4133(7)
C9 C 0.3011(9) 0.6355(8) 0.4222(7)
C10 C 0.2123(11) 0.4309(9) 0.5203(9)
H4 H 0.1829 0.3638 0.5542
C11 C 0.0594(10) -0.1036(11) -0.1990(8)
H5 H -0.0098 -0.0430 -0.1976
H6 H 0.0046 -0.1944 -0.2557
C12 C 0.0314(12) 0.1291(13) -0.3521(12)
H7 H 0.0531 0.1862 -0.4004
H8 H 0.0246 0.1877 -0.2799
H9 H -0.0603 0.0634 -0.3994
C13 C 0.2263(9) 0.6653(9) 0.5011(8)
H10 H 0.2076 0.7543 0.5222
C14 C 0.3086(9) -0.0712(9) -0.2330(7)
C15 C 0.1802(11) 0.5644(9) 0.5479(9)
H11 H 0.1272 0.5843 0.5982
C16 C 0.1273(9) -0.1204(10) -0.0737(8)
C17 C 0.3896(11) -0.1652(11) -0.1680(9)
H12 H 0.4830 -0.1614 -0.1766
H13 H 0.3331 -0.2597 -0.2032
H14 H 0.4046 -0.1347 -0.0826
C18 C 0.2182(11) 0.1423(10) 0.0480(9)
H15 H 0.2851 0.1941 0.1293
H16 H 0.1245 0.1675 0.0337
H17 H 0.2564 0.1639 -0.0108
C19 C 0.0770(15) -0.3930(12) -0.1117(11)
H18 H 0.1073 -0.4497 -0.0576
H19 H 0.1139 -0.4155 -0.1763
H20 H -0.0284 -0.4110 -0.1464
Cd1_2 Cd 0.42531(6) 1.02040(6) 0.33564(5)
Cd1A Cd 0.57469(6) -0.02040(6) -0.33564(5)
Cd1A_2 Cd 0.57469(6) 0.97960(6) 0.66436(5)
O1_2 O 0.3733(7) -0.1258(6) 0.4343(6)
O1A O 0.6267(7) 0.1258(6) 0.5657(6)
N3A N 0.6293(7) 0.0027(7) 0.2929(6)
O5 O 0.552(8) 0.543(8) 0.161(7)
H21 H 0.4946 0.5848 0.1879
H22 H 0.5152 0.5171 0.0835
loop_
_geom_bond_atom_site_label_1
_geom_bond_atom_site_label_2
_geom_bond_site_symmetry_1
_geom_bond_site_symmetry_2
Cd1 O2 1_555 1_555
O1 C1 1_555 1_555
O2 C8 1_555 1_555
N1 Cd1 1_555 1_555
O3 C1 1_555 1_555
N2 N1 1_555 1_555
H1 N2 1_555 1_555
O4 Cd1 1_555 1_555
N3 N4 1_555 1_555
C1 C9 1_555 1_555
C2 H2 1_555 1_555
N4 H3 1_555 1_555
C3 N2 1_555 1_555
C4 C2 1_555 1_555
C5 C7 1_555 1_555
C6 N1 1_555 1_555
C7 N4 1_555 1_555
C8 O4 1_555 1_555
C9 C2 1_555 1_555
C10 C4 1_555 1_555
H4 C10 1_555 1_555
C11 C5 1_555 1_555
H5 C11 1_555 1_555
H6 C11 1_555 1_555
C12 C7 1_555 1_555
H7 C12 1_555 1_555
H8 C12 1_555 1_555
H9 C12 1_555 1_555
C13 C9 1_555 1_555
H10 C13 1_555 1_555
C14 N3 1_555 1_555
C15 C10 1_555 1_555
H11 C15 1_555 1_555
C16 C3 1_555 1_555
C17 C14 1_555 1_555
H12 C17 1_555 1_555
H13 C17 1_555 1_555
H14 C17 1_555 1_555
C18 C6 1_555 1_555
H15 C18 1_555 1_555
H16 C18 1_555 1_555
H17 C18 1_555 1_555
C19 C3 1_555 1_555
H18 C19 1_555 1_555
H19 C19 1_555 1_555
H20 C19 1_555 1_555
O5 H21 1_555 1_555
H22 O5 1_555 1_555
Cd1_2 O1 1_555 1_555
Cd1A N3 1_555 1_555
Cd1A_2 O1 1_555 1_555
O1_2 Cd1 1_555 1_555
O1A Cd1 1_555 1_555
N3A Cd1 1_555 1_555
C4 C8 1_555 1_555
C5 C14 1_555 1_555
C6 C16 1_555 1_555
C11 C16 1_555 1_555
C13 C15 1_555 1_555

#END
