
#######################################################################
#
#                 Cambridge Crystallographic Data Centre
#                                CCDC 
#
#######################################################################
#
# If this CIF has been generated from an entry in the Cambridge 
# Structural Database, then it will include bibliographic, chemical, 
# crystal, experimental, refinement or atomic coordinate data resulting 
# from the CCDC's data processing and validation procedures.
#
#######################################################################

data_XIHXET
_symmetry_cell_setting           monoclinic
_symmetry_space_group_name_H-M   'P 21/c'
_symmetry_Int_Tables_number      14
_space_group_name_Hall           '-P 2ybc'
loop_
_symmetry_equiv_pos_site_id
_symmetry_equiv_pos_as_xyz
1 x,y,z
2 -x,1/2+y,1/2-z
3 -x,-y,-z
4 x,1/2-y,1/2+z
_cell_length_a                   12.463(2)
_cell_length_b                   7.4574(13)
_cell_length_c                   29.451(6)
_cell_angle_alpha                90
_cell_angle_beta                 96.324(3)
_cell_angle_gamma                90
_cell_volume                     2720.57
loop_
_atom_site_label
_atom_site_type_symbol
_atom_site_fract_x
_atom_site_fract_y
_atom_site_fract_z
C1 C 0.8092(3) 0.7336(5) 0.46847(12)
C2 C 0.6967(3) 0.7217(5) 0.44546(12)
C3 C 0.6207(3) 0.6105(5) 0.46197(13)
H1 H 0.6408 0.5380 0.4872
C4 C 0.5155(3) 0.6059(5) 0.44155(13)
H2 H 0.4649 0.5354 0.4542
C5 C 0.4844(3) 0.7039(5) 0.40281(11)
C6 C 0.5630(3) 0.8087(5) 0.38454(13)
H3 H 0.5451 0.8707 0.3574
C7 C 0.6656(3) 0.8202(5) 0.40634(12)
H4 H 0.7153 0.8956 0.3947
C8 C 0.3695(3) 0.7145(5) 0.38226(12)
C9 C 0.2878(3) 0.7329(5) 0.41118(12)
H5 H 0.3069 0.7291 0.4426
C10 C 0.1801(3) 0.7563(4) 0.39505(12)
C11 C 0.1025(3) 0.7692(5) 0.43107(12)
C12 C 0.1493(3) 0.7672(4) 0.34790(12)
C13 C 0.2300(3) 0.7509(5) 0.31891(12)
H6 H 0.2112 0.7590 0.2875
C14 C 0.3378(3) 0.7229(4) 0.33529(12)
C15 C 0.4149(3) 0.6889(5) 0.30042(12)
C16 C 0.0339(3) 0.7947(5) 0.32828(12)
C17 C -0.0287(3) 0.9249(5) 0.34505(13)
H7 H 0.0013 1.0007 0.3681
C18 C -0.1364(3) 0.9448(5) 0.32799(13)
H8 H -0.1776 1.0353 0.3392
C19 C -0.1829(3) 0.8301(5) 0.29425(12)
C20 C -0.1186(3) 0.7024(5) 0.27622(14)
H9 H -0.1483 0.6265 0.2531
C21 C -0.0103(3) 0.6870(5) 0.29245(13)
H10 H 0.0330 0.6045 0.2793
C22 C -0.3042(3) 0.8371(5) 0.27977(12)
C23 C -0.1593(3) 0.2515(5) 0.43806(15)
H11 H -0.2093 0.1935 0.4541
C24 C -0.1217(4) 0.4175(7) 0.37085(17)
H12 H -0.0500 0.4177 0.3866
H13 H -0.1461 0.5388 0.3660
H14 H -0.1212 0.3583 0.3419
C25 C -0.3074(4) 0.3106(7) 0.37964(19)
H15 H -0.3473 0.2466 0.4005
H16 H -0.3127 0.2482 0.3510
H17 H -0.3366 0.4291 0.3750
C26 C 0.6446(5) 0.6972(7) 0.15648(19)
H18 H 0.6925 0.7305 0.1815
C27 C 0.7851(6) 0.7693(8) 0.1093(3)
H19 H 0.8238 0.7998 0.1383
H20 H 0.7807 0.8727 0.0897
H21 H 0.8224 0.6748 0.0954
C28 C 0.6071(6) 0.6580(9) 0.0748(2)
H22 H 0.5384 0.6210 0.0835
H23 H 0.6393 0.5604 0.0599
H24 H 0.5972 0.7581 0.0543
Mn1 Mn 0.0000 0.5000 0.5000
Mn2 Mn 0.0000 1.0000 0.5000
Mn3 Mn 0.51589(4) 0.56814(7) 0.232705(18)
N1 N -0.1946(3) 0.3224(5) 0.39842(12)
N2 N 0.6784(4) 0.7107(6) 0.11592(18)
O1 O 0.8438(2) 0.5993(4) 0.49150(10)
O2 O 0.8605(2) 0.8752(3) 0.46402(9)
O3 O 0.0516(2) 0.6304(3) 0.43919(9)
O4 O 0.1008(2) 0.9177(3) 0.45104(9)
O5 O 0.41796(19) 0.7995(3) 0.26759(8)
O6 O 0.4665(2) 0.5466(3) 0.30244(9)
O7 O -0.35510(19) 0.9707(3) 0.29175(9)
O8 O -0.3422(2) 0.7054(4) 0.25696(11)
O9 O -0.0639(2) 0.2558(3) 0.45581(9)
O10 O 0.5519(2) 0.6426(4) 0.16443(10)
C1B C -0.8092(3) 0.2664(5) 0.53153(12)
C2B C -0.6967(3) 0.2783(5) 0.55454(12)
C3B C -0.6207(3) 0.3895(5) 0.53803(13)
H1B H -0.6408 0.4620 0.5128
C4B C -0.5155(3) 0.3941(5) 0.55845(13)
H2B H -0.4649 0.4646 0.5458
C5B C -0.4844(3) 0.2961(5) 0.59719(11)
C6B C -0.5630(3) 0.1913(5) 0.61546(13)
H3B H -0.5451 0.1293 0.6426
C7B C -0.6656(3) 0.1798(5) 0.59366(12)
H4B H -0.7153 0.1044 0.6053
C8B C -0.3695(3) 0.2855(5) 0.61774(12)
C9B C -0.2878(3) 0.2671(5) 0.58882(12)
H5B H -0.3069 0.2709 0.5574
C10B C -0.1801(3) 0.2437(4) 0.60495(12)
C11B C -0.1025(3) 0.2308(5) 0.56893(12)
C12B C -0.1493(3) 0.2328(4) 0.65210(12)
C13B C -0.2300(3) 0.2491(5) 0.68109(12)
H6B H -0.2112 0.2410 0.7125
C14B C -0.3378(3) 0.2771(4) 0.66471(12)
C15B C -0.4149(3) 0.3111(5) 0.69958(12)
C16B C -0.0339(3) 0.2053(5) 0.67172(12)
C17B C 0.0287(3) 0.0751(5) 0.65495(13)
H7B H -0.0013 -0.0007 0.6319
C18B C 0.1364(3) 0.0552(5) 0.67201(13)
H8B H 0.1776 -0.0353 0.6608
C19B C 0.1829(3) 0.1699(5) 0.70575(12)
C20B C 0.1186(3) 0.2976(5) 0.72378(14)
H9B H 0.1483 0.3735 0.7469
C21B C 0.0103(3) 0.3130(5) 0.70755(13)
H10B H -0.0330 0.3955 0.7207
C22B C 0.3042(3) 0.1629(5) 0.72023(12)
C23B C 0.1593(3) 0.7485(5) 0.56194(15)
H11B H 0.2093 0.8065 0.5459
C24B C 0.1217(4) 0.5825(7) 0.62915(17)
H12B H 0.0500 0.5823 0.6134
H13B H 0.1461 0.4612 0.6340
H14B H 0.1212 0.6417 0.6581
C25B C 0.3074(4) 0.6894(7) 0.62036(19)
H15B H 0.3473 0.7534 0.5995
H16B H 0.3127 0.7518 0.6490
H17B H 0.3366 0.5709 0.6250
C26B C -0.6446(5) 0.3028(7) 0.84352(19)
H18B H -0.6925 0.2695 0.8185
C27B C -0.7851(6) 0.2307(8) 0.8907(3)
H19B H -0.8238 0.2002 0.8617
H20B H -0.7807 0.1273 0.9103
H21B H -0.8224 0.3252 0.9046
C28B C -0.6071(6) 0.3420(9) 0.9252(2)
H22B H -0.5384 0.3790 0.9165
H23B H -0.6393 0.4396 0.9401
H24B H -0.5972 0.2419 0.9457
Mn3B Mn -0.51589(4) 0.43186(7) 0.767295(18)
N1B N 0.1946(3) 0.6776(5) 0.60158(12)
N2B N -0.6784(4) 0.2893(6) 0.88408(18)
O1B O -0.8438(2) 0.4007(4) 0.50850(10)
O2B O -0.8605(2) 0.1248(3) 0.53598(9)
O3B O -0.0516(2) 0.3696(3) 0.56081(9)
O4B O -0.1008(2) 0.0823(3) 0.54896(9)
O5B O -0.41796(19) 0.2005(3) 0.73241(8)
O6B O -0.4665(2) 0.4534(3) 0.69756(9)
O7B O 0.35510(19) 0.0293(3) 0.70825(9)
O8B O 0.3422(2) 0.2946(4) 0.74304(11)
O9B O 0.0639(2) 0.7442(3) 0.54419(9)
O10B O -0.5519(2) 0.3574(4) 0.83557(10)
Mn1_2 Mn -1.0000 0.5000 0.5000
Mn1_3 Mn 1.0000 0.5000 0.5000
Mn2_2 Mn -1.0000 0.0000 0.5000
Mn2_3 Mn 0.0000 0.0000 0.5000
Mn2_4 Mn 1.0000 1.0000 0.5000
Mn3_2 Mn -0.48411(4) 0.56814(7) 0.232705(18)
Mn3A Mn -0.51589(4) 1.06814(7) 0.267295(18)
Mn3A_2 Mn 0.48411(4) 1.06814(7) 0.267295(18)
Mn3B_2 Mn 0.48411(4) 0.43186(7) 0.767295(18)
Mn3C Mn -0.48411(4) -0.06814(7) 0.732705(18)
Mn3C_2 Mn 0.51589(4) -0.06814(7) 0.732705(18)
O1_2 O -0.1562(2) 0.5993(4) 0.49150(10)
O1B_2 O 0.1562(2) 0.4007(4) 0.50850(10)
O2_2 O -0.1395(2) 0.8752(3) 0.46402(9)
O2B_2 O 0.1395(2) 1.1248(3) 0.53598(9)
O4B_2 O -0.1008(2) 1.0823(3) 0.54896(9)
O5A O 0.58204(19) 0.2995(3) 0.23241(8)
O5C O -0.58204(19) 0.7005(3) 0.76759(8)
O7A O 0.35510(19) 0.4707(3) 0.20825(9)
O7C O -0.35510(19) 0.5293(3) 0.79175(9)
O8_2 O 0.6578(2) 0.7054(4) 0.25696(11)
O8B_2 O -0.6578(2) 0.2946(4) 0.74304(11)
O9_2 O -0.0639(2) 1.2558(3) 0.45581(9)
loop_
_geom_bond_atom_site_label_1
_geom_bond_atom_site_label_2
_geom_bond_site_symmetry_1
_geom_bond_site_symmetry_2
C1 C2 1_555 1_555
C2 C3 1_555 1_555
C3 H1 1_555 1_555
C4 C3 1_555 1_555
H2 C4 1_555 1_555
C5 C4 1_555 1_555
C6 C5 1_555 1_555
H3 C6 1_555 1_555
C7 C2 1_555 1_555
H4 C7 1_555 1_555
C8 C5 1_555 1_555
C9 C8 1_555 1_555
H5 C9 1_555 1_555
C10 C9 1_555 1_555
C11 C10 1_555 1_555
C12 C10 1_555 1_555
C13 C12 1_555 1_555
H6 C13 1_555 1_555
C14 C8 1_555 1_555
C15 C14 1_555 1_555
C16 C12 1_555 1_555
C17 C16 1_555 1_555
H7 C17 1_555 1_555
C18 C17 1_555 1_555
H8 C18 1_555 1_555
C19 C18 1_555 1_555
C20 C19 1_555 1_555
H9 C20 1_555 1_555
C21 C16 1_555 1_555
H10 C21 1_555 1_555
C22 C19 1_555 1_555
C23 H11 1_555 1_555
C24 H12 1_555 1_555
H13 C24 1_555 1_555
H14 C24 1_555 1_555
C25 H15 1_555 1_555
H16 C25 1_555 1_555
H17 C25 1_555 1_555
C26 H18 1_555 1_555
C27 H19 1_555 1_555
H20 C27 1_555 1_555
H21 C27 1_555 1_555
C28 H22 1_555 1_555
H23 C28 1_555 1_555
H24 C28 1_555 1_555
Mn1 O3 1_555 1_555
Mn2 O4 1_555 1_555
Mn3 O5 1_555 1_555
N1 C23 1_555 1_555
N2 C26 1_555 1_555
O1 C1 1_555 1_555
O2 C1 1_555 1_555
O3 C11 1_555 1_555
O4 C11 1_555 1_555
O5 C15 1_555 1_555
O6 C15 1_555 1_555
O7 C22 1_555 1_555
O8 C22 1_555 1_555
O9 C23 1_555 1_555
O10 C26 1_555 1_555
C1B C2B 1_555 1_555
C2B C3B 1_555 1_555
C3B H1B 1_555 1_555
C4B C3B 1_555 1_555
H2B C4B 1_555 1_555
C5B C4B 1_555 1_555
C6B C5B 1_555 1_555
H3B C6B 1_555 1_555
C7B C2B 1_555 1_555
H4B C7B 1_555 1_555
C8B C5B 1_555 1_555
C9B C8B 1_555 1_555
H5B C9B 1_555 1_555
C10B C9B 1_555 1_555
C11B C10B 1_555 1_555
C12B C10B 1_555 1_555
C13B C12B 1_555 1_555
H6B C13B 1_555 1_555
C14B C8B 1_555 1_555
C15B C14B 1_555 1_555
C16B C12B 1_555 1_555
C17B C16B 1_555 1_555
H7B C17B 1_555 1_555
C18B C17B 1_555 1_555
H8B C18B 1_555 1_555
C19B C18B 1_555 1_555
C20B C19B 1_555 1_555
H9B C20B 1_555 1_555
C21B C16B 1_555 1_555
H10B C21B 1_555 1_555
C22B C19B 1_555 1_555
C23B H11B 1_555 1_555
C24B H12B 1_555 1_555
H13B C24B 1_555 1_555
H14B C24B 1_555 1_555
C25B H15B 1_555 1_555
H16B C25B 1_555 1_555
H17B C25B 1_555 1_555
C26B H18B 1_555 1_555
C27B H19B 1_555 1_555
H20B C27B 1_555 1_555
H21B C27B 1_555 1_555
C28B H22B 1_555 1_555
H23B C28B 1_555 1_555
H24B C28B 1_555 1_555
Mn3B O5B 1_555 1_555
N1B C23B 1_555 1_555
N2B C26B 1_555 1_555
O1B C1B 1_555 1_555
O2B C1B 1_555 1_555
O3B Mn1 1_555 1_555
O4B C11B 1_555 1_555
O5B C15B 1_555 1_555
O6B C15B 1_555 1_555
O7B C22B 1_555 1_555
O8B C22B 1_555 1_555
O9B Mn1 1_555 1_555
O10B C26B 1_555 1_555
Mn1_2 O1B 1_555 1_555
Mn1_3 O1 1_555 1_555
Mn2_2 O2B 1_555 1_555
Mn2_3 O9 1_555 1_555
Mn2_4 O2 1_555 1_555
Mn3_2 O8 1_555 1_555
Mn3A O7 1_555 1_555
Mn3A_2 O5 1_555 1_555
Mn3B_2 O8B 1_555 1_555
Mn3C O5B 1_555 1_555
Mn3C_2 O7B 1_555 1_555
O1_2 Mn1 1_555 1_555
O1B_2 Mn1 1_555 1_555
O2_2 Mn2 1_555 1_555
O2B_2 Mn2 1_555 1_555
O4B_2 Mn2 1_555 1_555
O5A Mn3 1_555 1_555
O5C Mn3B 1_555 1_555
O7A Mn3 1_555 1_555
O7C Mn3B 1_555 1_555
O8_2 Mn3 1_555 1_555
O8B_2 Mn3B 1_555 1_555
O9_2 Mn2 1_555 1_555
C6 C7 1_555 1_555
C13 C14 1_555 1_555
C20 C21 1_555 1_555
C24 N1 1_555 1_555
C25 N1 1_555 1_555
C27 N2 1_555 1_555
C28 N2 1_555 1_555
Mn1 O9 1_555 1_555
Mn2 O9B 1_555 1_555
Mn3 O6 1_555 1_555
Mn3 O10 1_555 1_555
C6B C7B 1_555 1_555
C11B O3B 1_555 1_555
C13B C14B 1_555 1_555
C20B C21B 1_555 1_555
C23B O9B 1_555 1_555
C24B N1B 1_555 1_555
C25B N1B 1_555 1_555
C27B N2B 1_555 1_555
C28B N2B 1_555 1_555
Mn3B O6B 1_555 1_555
Mn3B O10B 1_555 1_555
O4B Mn2_3 1_555 1_555

#END
