
#######################################################################
#
#                 Cambridge Crystallographic Data Centre
#                                CCDC 
#
#######################################################################
#
# If this CIF has been generated from an entry in the Cambridge 
# Structural Database, then it will include bibliographic, chemical, 
# crystal, experimental, refinement or atomic coordinate data resulting 
# from the CCDC's data processing and validation procedures.
#
#######################################################################

data_XIHYAQ
_symmetry_cell_setting           triclinic
_symmetry_space_group_name_H-M   'P -1'
_symmetry_Int_Tables_number      2
_space_group_name_Hall           '-P 1'
loop_
_symmetry_equiv_pos_site_id
_symmetry_equiv_pos_as_xyz
1 x,y,z
2 -x,-y,-z
_cell_length_a                   9.17(2)
_cell_length_b                   11.31(2)
_cell_length_c                   11.92(3)
_cell_angle_alpha                99.587(14)
_cell_angle_beta                 109.51(2)
_cell_angle_gamma                107.60(3)
_cell_volume                     1060.35
loop_
_atom_site_label
_atom_site_type_symbol
_atom_site_fract_x
_atom_site_fract_y
_atom_site_fract_z
Cd1 Cd 0.70098(4) 0.17931(3) 0.24854(3)
O1 O 0.4353(5) 0.0248(4) 0.1259(4)
N1 N 0.6498(5) -0.1107(4) 0.1334(4)
H1 H 0.5499 -0.1186 0.0887
N2 N 0.7672(5) -0.0012(4) 0.2258(4)
N3 N 0.9875(5) -0.3523(4) 0.4988(4)
H2 H 0.9416 -0.3969 0.5385
C1 C 1.0200(6) -0.2666(4) 0.3515(4)
O2 O 0.4362(5) 0.2042(4) 0.2277(4)
C2 C 0.7091(6) -0.2047(5) 0.1207(5)
N4 N 1.1526(5) -0.2742(4) 0.5457(4)
C3 C 0.9022(6) -0.0288(5) 0.2733(4)
C4 C 0.8717(6) -0.1567(5) 0.2104(4)
C5 C 0.1706(6) 0.0454(5) 0.0744(4)
C6 C 0.0867(6) -0.0795(5) -0.0061(5)
H3 H 0.1450 -0.1333 -0.0107
C7 C 0.9885(6) -0.2277(5) 0.2329(4)
H4 H 1.0949 -0.1727 0.2361
H5 H 0.9419 -0.3052 0.1628
C8 C 0.9047(6) -0.3509(4) 0.3821(5)
C9 C 1.1721(6) -0.2231(5) 0.4552(5)
C10 C -0.0828(7) -0.1252(5) -0.0797(5)
H6 H -0.1383 -0.2098 -0.1330
C11 C 0.3582(6) 0.0945(5) 0.1487(5)
C12 C 1.0620(7) 0.0710(5) 0.3755(5)
H7 H 1.0455 0.1495 0.4003
H8 H 1.1494 0.0888 0.3460
H9 H 1.0932 0.0385 0.4457
O3 O 0.7232(8) 0.2755(5) 0.1024(6)
O4 O 0.9763(9) 0.3632(5) 0.2550(6)
C13 C 0.6088(8) -0.3327(6) 0.0229(6)
H10 H 0.4993 -0.3358 -0.0245
H11 H 0.5985 -0.4009 0.0617
H12 H 0.6639 -0.3439 -0.0314
C14 C 0.7212(7) -0.4299(7) 0.3129(6)
H13 H 0.6817 -0.4776 0.3635
H14 H 0.7013 -0.4895 0.2368
H15 H 0.6627 -0.3734 0.2940
C15 C 0.9407(10) 0.4281(6) 0.0710(7)
C16 C 1.3404(8) -0.1318(9) 0.4757(7)
H16 H 1.4200 -0.1205 0.5572
H17 H 1.3359 -0.0494 0.4692
H18 H 1.3741 -0.1666 0.4138
C17 C 1.1060(11) 0.5164(7) 0.1199(7)
H19 H 1.1778 0.5280 0.2010
C18 C 0.8787(13) 0.3523(8) 0.1500(8)
C19 C 0.8353(11) 0.4122(7) -0.0480(8)
H20 H 0.7244 0.3538 -0.0810
O1A O -0.4353(5) -0.0248(4) -0.1259(4)
O2A O -0.4362(5) -0.2042(4) -0.2277(4)
C5A C -0.1706(6) -0.0454(5) -0.0744(4)
C6A C -0.0867(6) 0.0795(5) 0.0061(5)
H3A H -0.1450 0.1333 0.0107
C10A C 0.0828(7) 0.1252(5) 0.0797(5)
H6A H 0.1383 0.2098 0.1330
C11A C -0.3582(6) -0.0945(5) -0.1487(5)
O3A O 1.2768(8) 0.7245(5) -0.1024(6)
O4A O 1.0237(9) 0.6368(5) -0.2550(6)
C15A C 1.0593(10) 0.5719(6) -0.0710(7)
C17A C 0.8940(11) 0.4836(7) -0.1199(7)
H19A H 0.8222 0.4720 -0.2010
C18A C 1.1213(13) 0.6477(8) -0.1500(8)
C19A C 1.1647(11) 0.5878(7) 0.0480(8)
H20A H 1.2756 0.6462 0.0810
Cd1A Cd -0.70098(4) -0.17931(3) -0.24854(3)
N1A N -0.6498(5) 0.1107(4) -0.1334(4)
H1A H -0.5499 0.1186 -0.0887
N2A N -0.7672(5) 0.0012(4) -0.2258(4)
N3A N -0.9875(5) 0.3523(4) -0.4988(4)
H2A H -0.9416 0.3969 -0.5385
C1A C -1.0200(6) 0.2666(4) -0.3515(4)
C2A C -0.7091(6) 0.2047(5) -0.1207(5)
N4A N -1.1526(5) 0.2742(4) -0.5457(4)
C3A C -0.9022(6) 0.0288(5) -0.2733(4)
C4A C -0.8717(6) 0.1567(5) -0.2104(4)
C7A C -0.9885(6) 0.2277(5) -0.2329(4)
H4A H -1.0949 0.1727 -0.2361
H5A H -0.9419 0.3052 -0.1628
C8A C -0.9047(6) 0.3509(4) -0.3821(5)
C9A C -1.1721(6) 0.2231(5) -0.4552(5)
C12A C -1.0620(7) -0.0710(5) -0.3755(5)
H7A H -1.0455 -0.1495 -0.4003
H8A H -1.1494 -0.0888 -0.3460
H9A H -1.0932 -0.0385 -0.4457
C13A C -0.6088(8) 0.3327(6) -0.0229(6)
H10A H -0.4993 0.3358 0.0245
H11A H -0.5985 0.4009 -0.0617
H12A H -0.6639 0.3439 0.0314
C14A C -0.7212(7) 0.4299(7) -0.3129(6)
H13A H -0.6817 0.4776 -0.3635
H14A H -0.7013 0.4895 -0.2368
H15A H -0.6627 0.3734 -0.2940
C16A C -1.3404(8) 0.1318(9) -0.4757(7)
H16A H -1.4200 0.1205 -0.5572
H17A H -1.3359 0.0494 -0.4692
H18A H -1.3741 0.1666 -0.4138
Cd1_2 Cd -1.29902(4) 0.17931(3) -0.75146(3)
Cd1A_2 Cd 1.29902(4) -0.17931(3) 0.75146(3)
Cd1A_3 Cd 1.29902(4) 0.82069(3) -0.24854(3)
N4_2 N -0.8474(5) -0.2742(4) -0.4543(4)
N4A_2 N 0.8474(5) 0.2742(4) 0.4543(4)
O3A_2 O -0.7232(8) -0.2755(5) -0.1024(6)
O4A_2 O -0.9763(9) -0.3632(5) -0.2550(6)
O5 O 0.3637(17) -0.6082(15) 0.3926(14)
O6 O 0.440(2) -0.6765(17) 0.4514(16)
O7? O 0.273(2) -0.5243(19) 0.4136(13)
loop_
_geom_bond_atom_site_label_1
_geom_bond_atom_site_label_2
_geom_bond_site_symmetry_1
_geom_bond_site_symmetry_2
Cd1 O1 1_555 1_555
O1 C11 1_555 1_555
N1 H1 1_555 1_555
N2 Cd1 1_555 1_555
N3 H2 1_555 1_555
C1 C7 1_555 1_555
O2 Cd1 1_555 1_555
C2 N1 1_555 1_555
N4 N3 1_555 1_555
C3 N2 1_555 1_555
C4 C2 1_555 1_555
C5 C6 1_555 1_555
C6 H3 1_555 1_555
C7 C4 1_555 1_555
H4 C7 1_555 1_555
H5 C7 1_555 1_555
C8 N3 1_555 1_555
C9 C1 1_555 1_555
C10 C6 1_555 1_555
H6 C10 1_555 1_555
C11 O2 1_555 1_555
C12 C3 1_555 1_555
H7 C12 1_555 1_555
H8 C12 1_555 1_555
H9 C12 1_555 1_555
O3 Cd1 1_555 1_555
O4 Cd1 1_555 1_555
C13 C2 1_555 1_555
H10 C13 1_555 1_555
H11 C13 1_555 1_555
H12 C13 1_555 1_555
C14 C8 1_555 1_555
H13 C14 1_555 1_555
H14 C14 1_555 1_555
H15 C14 1_555 1_555
C15 C17 1_555 1_555
C16 C9 1_555 1_555
H16 C16 1_555 1_555
H17 C16 1_555 1_555
H18 C16 1_555 1_555
C17 H19 1_555 1_555
C18 O3 1_555 1_555
C19 C15 1_555 1_555
H20 C19 1_555 1_555
O1A C11A 1_555 1_555
O2A C11A 1_555 1_555
C5A C10 1_555 1_555
C6A C5A 1_555 1_555
H3A C6A 1_555 1_555
C10A C5 1_555 1_555
H6A C10A 1_555 1_555
C11A C5A 1_555 1_555
O3A C18A 1_555 1_555
O4A C18A 1_555 1_555
C15A C17A 1_555 1_555
C17A C19 1_555 1_555
H19A C17A 1_555 1_555
C18A C15A 1_555 1_555
C19A C17 1_555 1_555
H20A C19A 1_555 1_555
Cd1A O1A 1_555 1_555
N1A H1A 1_555 1_555
N2A Cd1A 1_555 1_555
N3A H2A 1_555 1_555
C1A C7A 1_555 1_555
C2A N1A 1_555 1_555
N4A N3A 1_555 1_555
C3A N2A 1_555 1_555
C4A C2A 1_555 1_555
C7A C4A 1_555 1_555
H4A C7A 1_555 1_555
H5A C7A 1_555 1_555
C8A N3A 1_555 1_555
C9A C1A 1_555 1_555
C12A C3A 1_555 1_555
H7A C12A 1_555 1_555
H8A C12A 1_555 1_555
H9A C12A 1_555 1_555
C13A C2A 1_555 1_555
H10A C13A 1_555 1_555
H11A C13A 1_555 1_555
H12A C13A 1_555 1_555
C14A C8A 1_555 1_555
H13A C14A 1_555 1_555
H14A C14A 1_555 1_555
H15A C14A 1_555 1_555
C16A C9A 1_555 1_555
H16A C16A 1_555 1_555
H17A C16A 1_555 1_555
H18A C16A 1_555 1_555
Cd1_2 N4A 1_555 1_555
Cd1A_2 N4 1_555 1_555
Cd1A_3 O3A 1_555 1_555
N4_2 Cd1A 1_555 1_555
N4A_2 Cd1 1_555 1_555
O3A_2 Cd1A 1_555 1_555
O4A_2 Cd1A 1_555 1_555
N1 N2 1_555 1_555
C1 C8 1_555 1_555
N4 C9 1_555 1_555
C3 C4 1_555 1_555
C5 C11 1_555 1_555
O4 C18 1_555 1_555
C15 C18 1_555 1_555
O2A Cd1A 1_555 1_555
C6A C10A 1_555 1_555
O4A Cd1A_3 1_555 1_555
C15A C19A 1_555 1_555
N1A N2A 1_555 1_555
C1A C8A 1_555 1_555
N4A C9A 1_555 1_555
C3A C4A 1_555 1_555

#END
