
#######################################################################
#
#                 Cambridge Crystallographic Data Centre
#                                CCDC 
#
#######################################################################
#
# If this CIF has been generated from an entry in the Cambridge 
# Structural Database, then it will include bibliographic, chemical, 
# crystal, experimental, refinement or atomic coordinate data resulting 
# from the CCDC's data processing and validation procedures.
#
#######################################################################

data_XIHYEU
_symmetry_cell_setting           monoclinic
_symmetry_space_group_name_H-M   'P 21/n'
_symmetry_Int_Tables_number      14
_space_group_name_Hall           '-P 2yn'
loop_
_symmetry_equiv_pos_site_id
_symmetry_equiv_pos_as_xyz
1 x,y,z
2 1/2-x,1/2+y,1/2-z
3 -x,-y,-z
4 1/2+x,1/2-y,1/2+z
_cell_length_a                   12.3835(11)
_cell_length_b                   10.2910(6)
_cell_length_c                   16.6384(13)
_cell_angle_alpha                90
_cell_angle_beta                 99.875(4)
_cell_angle_gamma                90
_cell_volume                     2088.96
loop_
_atom_site_label
_atom_site_type_symbol
_atom_site_fract_x
_atom_site_fract_y
_atom_site_fract_z
Co1 Co 0.33881(3) 0.98767(4) 0.19606(2)
N1 N 0.7406(2) 0.7344(3) 0.59671(16)
H1 H 0.7321 0.7690 0.6423
C1 C 0.4937(3) 0.7130(3) 0.3633(2)
C2 C 0.0954(3) 0.9721(3) 0.3282(2)
C3 C 0.7882(2) 0.6009(3) 0.51073(18)
C4 C 0.7037(3) 0.7872(4) 0.5239(2)
C5 C 0.8383(4) 0.4855(4) 0.4779(2)
H2 H 0.8718 0.4314 0.5223
H3 H 0.8929 0.5135 0.4471
H4 H 0.7826 0.4372 0.4432
N2 N 0.4125(2) 0.7848(3) 0.32209(17)
H5 H 0.3445 0.7740 0.3252
C6 C -0.0494(3) 1.0856(4) 0.3790(3)
H6 H -0.0872 1.1621 0.3849
N3 N 0.4490(2) 0.8763(3) 0.27504(15)
C7 C -0.0253(3) 0.8583(4) 0.4030(2)
H7 H -0.0467 0.7820 0.4258
C8 C 0.0629(3) 0.8561(3) 0.36082(19)
C9 C 0.5902(2) 0.7609(3) 0.34342(18)
C10 C 0.0388(3) 1.0861(4) 0.3377(2)
H8 H 0.0602 1.1633 0.3161
C11 C 0.5588(3) 0.8624(3) 0.28847(19)
C12 C 0.7314(2) 0.7027(3) 0.46590(18)
N4 N 0.7930(2) 0.6203(3) 0.59061(15)
C13 C -0.0806(3) 0.9713(4) 0.4113(3)
H9 H -0.1397 0.9709 0.4391
C14 C 0.6318(3) 0.9470(5) 0.2475(3)
H10 H 0.5880 1.0094 0.2134
H11 H 0.6711 0.8942 0.2147
H12 H 0.6829 0.9917 0.2881
C15 C 0.7041(3) 0.7124(4) 0.3741(2)
H13 H 0.7562 0.7703 0.3552
H14 H 0.7124 0.6272 0.3509
C16 C 0.4731(3) 0.6044(4) 0.4179(3)
H15 H 0.3958 0.5974 0.4181
H16 H 0.5107 0.6213 0.4723
H17 H 0.4995 0.5245 0.3986
C17 C 0.6437(4) 0.9133(4) 0.5181(3)
H18 H 0.6397 0.9442 0.5719
H19 H 0.5710 0.9012 0.4881
H20 H 0.6819 0.9757 0.4905
O1 O 0.20305(19) 0.8713(2) 0.24092(14)
O2 O 0.0642(2) 0.6361(2) 0.32172(16)
O3 O 0.2401(2) 1.0734(2) 0.27164(15)
O4 O 0.21993(19) 0.7172(3) 0.38675(16)
C18 C 0.1841(3) 0.9723(3) 0.27790(19)
C19 C 0.1223(3) 0.7298(3) 0.35576(19)
Co1A Co 0.16119(3) 0.48767(4) 0.30394(2)
Co1C Co 0.83881(3) 0.51233(4) 0.69606(2)
N4C N 0.2930(2) 0.8797(3) 0.09061(15)
O2A O 0.4358(2) 1.1361(2) 0.17828(16)
O5 O 0.2852(8) 0.8039(10) 0.5607(7)
H21 H 0.2753 0.7744 0.5123
H22 H 0.3484 0.7808 0.5849
O6 O 0.4898(8) 0.7524(9) 0.6554(6)
O7? O 0.396(4) 0.688(4) 0.684(3)
loop_
_geom_bond_atom_site_label_1
_geom_bond_atom_site_label_2
_geom_bond_site_symmetry_1
_geom_bond_site_symmetry_2
Co1 N3 1_555 1_555
N1 H1 1_555 1_555
C1 N2 1_555 1_555
C2 C8 1_555 1_555
C3 C5 1_555 1_555
C4 N1 1_555 1_555
C5 H2 1_555 1_555
H3 C5 1_555 1_555
H4 C5 1_555 1_555
N2 H5 1_555 1_555
C6 H6 1_555 1_555
N3 N2 1_555 1_555
C7 H7 1_555 1_555
C8 C7 1_555 1_555
C9 C1 1_555 1_555
C10 C2 1_555 1_555
H8 C10 1_555 1_555
C11 N3 1_555 1_555
C12 C3 1_555 1_555
N4 N1 1_555 1_555
C13 C6 1_555 1_555
H9 C13 1_555 1_555
C14 C11 1_555 1_555
H10 C14 1_555 1_555
H11 C14 1_555 1_555
H12 C14 1_555 1_555
C15 C9 1_555 1_555
H13 C15 1_555 1_555
H14 C15 1_555 1_555
C16 C1 1_555 1_555
H15 C16 1_555 1_555
H16 C16 1_555 1_555
H17 C16 1_555 1_555
C17 C4 1_555 1_555
H18 C17 1_555 1_555
H19 C17 1_555 1_555
H20 C17 1_555 1_555
O1 Co1 1_555 1_555
O2 C19 1_555 1_555
O3 Co1 1_555 1_555
O4 C19 1_555 1_555
C18 C2 1_555 1_555
C19 C8 1_555 1_555
O5 H21 1_555 1_555
H22 O5 1_555 1_555
Co1A O2 1_555 1_555
Co1C N4 1_555 1_555
N4C Co1 1_555 1_555
O2A Co1 1_555 1_555
C3 N4 1_555 1_555
C4 C12 1_555 1_555
C6 C10 1_555 1_555
C7 C13 1_555 1_555
C9 C11 1_555 1_555
C12 C15 1_555 1_555
O1 C18 1_555 1_555
O3 C18 1_555 1_555

#END
