
#######################################################################
#
#                 Cambridge Crystallographic Data Centre
#                                CCDC 
#
#######################################################################
#
# If this CIF has been generated from an entry in the Cambridge 
# Structural Database, then it will include bibliographic, chemical, 
# crystal, experimental, refinement or atomic coordinate data resulting 
# from the CCDC's data processing and validation procedures.
#
#######################################################################

data_XIHYIY
_symmetry_cell_setting           monoclinic
_symmetry_space_group_name_H-M   'P 21/n'
_symmetry_Int_Tables_number      14
_space_group_name_Hall           '-P 2yn'
loop_
_symmetry_equiv_pos_site_id
_symmetry_equiv_pos_as_xyz
1 x,y,z
2 1/2-x,1/2+y,1/2-z
3 -x,-y,-z
4 1/2+x,1/2-y,1/2+z
_cell_length_a                   8.8940(11)
_cell_length_b                   14.231(2)
_cell_length_c                   15.1546(18)
_cell_angle_alpha                90
_cell_angle_beta                 98.410(9)
_cell_angle_gamma                90
_cell_volume                     1897.5
loop_
_atom_site_label
_atom_site_type_symbol
_atom_site_fract_x
_atom_site_fract_y
_atom_site_fract_z
Co1 Co 0.15989(4) 0.25151(2) 0.76987(2)
N1 N 0.5132(2) 0.43982(14) 1.24219(13)
H1 H 0.5896 0.4666 1.2736
C1 C 0.1490(2) 0.41539(17) 0.99588(15)
N2 N 0.4937(2) 0.34572(15) 1.23580(14)
N3 N 0.1093(2) 0.35200(15) 0.85797(14)
N4 N 0.1867(2) 0.43425(15) 0.85714(14)
H2 H 0.2162 0.4578 0.8103
O1 O 0.1511(2) 0.30166(14) 0.64911(12)
O2 O 0.2779(3) 0.43253(17) 0.68498(13)
C2 C 0.3626(3) 0.33283(18) 1.18114(16)
C3 C 0.0869(3) 0.34047(18) 0.94302(16)
O3 O -0.1702(2) 0.29533(17) 0.35276(13)
C4 C 0.0433(3) 0.39383(18) 0.38443(16)
C5 C 0.3978(3) 0.48652(17) 1.19310(15)
C6 C 0.2078(3) 0.37929(19) 0.62925(16)
C7 C 0.2788(3) 0.4731(2) 0.50147(17)
H3 H 0.3566 0.5005 0.5408
C8 C 0.1857(3) 0.40572(17) 0.53256(16)
C9 C 0.2118(3) 0.47435(17) 0.93797(15)
C10 C 0.2981(3) 0.41958(17) 1.15239(14)
C11 C 0.0692(3) 0.36545(18) 0.47331(15)
H4 H 0.0082 0.3193 0.4932
C12 C -0.0871(3) 0.3546(2) 0.32097(18)
C13 C 0.1381(3) 0.4605(2) 0.35458(18)
H5 H 0.1222 0.4791 0.2951
C14 C 0.1483(3) 0.43421(19) 1.09345(15)
H6 H 0.0732 0.3937 1.1143
H7 H 0.1162 0.4986 1.1002
C15 C 0.2566(3) 0.4996(2) 0.41307(19)
H8 H 0.3208 0.5435 0.3926
O4 O -0.1119(3) 0.3801(2) 0.24342(16)
C16 C 0.3947(4) 0.59154(19) 1.1912(2)
H9 H 0.4838 0.6155 1.2276
H10 H 0.3057 0.6136 1.2137
H11 H 0.3927 0.6129 1.1309
C17 C 0.2921(3) 0.5667(2) 0.95223(19)
H12 H 0.3213 0.5878 0.8970
H13 H 0.3810 0.5595 0.9959
H14 H 0.2253 0.6121 0.9729
C18 C 0.3017(4) 0.2369(2) 1.1584(3)
H15 H 0.3706 0.1909 1.1875
H16 H 0.2910 0.2280 1.0950
H17 H 0.2044 0.2302 1.1779
C19 C 0.0039(4) 0.2542(2) 0.9677(2)
H18 H -0.0234 0.2159 0.9157
H19 H -0.0864 0.2728 0.9910
H20 H 0.0686 0.2190 1.0121
Co1C Co -0.34011(4) 0.24849(2) 0.26987(2)
Co1C_2 Co 0.65989(4) 0.24849(2) 1.26987(2)
N2C N -0.0063(2) 0.15428(15) 0.73580(14)
O3C O 0.3298(2) 0.20467(17) 0.85276(13)
loop_
_geom_bond_atom_site_label_1
_geom_bond_atom_site_label_2
_geom_bond_site_symmetry_1
_geom_bond_site_symmetry_2
Co1 N3 1_555 1_555
N1 H1 1_555 1_555
C1 C3 1_555 1_555
N2 N1 1_555 1_555
N3 N4 1_555 1_555
N4 H2 1_555 1_555
O1 Co1 1_555 1_555
O2 C6 1_555 1_555
C2 N2 1_555 1_555
C3 N3 1_555 1_555
O3 C12 1_555 1_555
C4 C11 1_555 1_555
C5 N1 1_555 1_555
C6 O1 1_555 1_555
C7 H3 1_555 1_555
C8 C6 1_555 1_555
C9 C1 1_555 1_555
C10 C2 1_555 1_555
C11 C8 1_555 1_555
H4 C11 1_555 1_555
C12 C4 1_555 1_555
C13 C4 1_555 1_555
H5 C13 1_555 1_555
C14 C1 1_555 1_555
H6 C14 1_555 1_555
H7 C14 1_555 1_555
C15 C7 1_555 1_555
H8 C15 1_555 1_555
O4 C12 1_555 1_555
C16 C5 1_555 1_555
H9 C16 1_555 1_555
H10 C16 1_555 1_555
H11 C16 1_555 1_555
C17 C9 1_555 1_555
H12 C17 1_555 1_555
H13 C17 1_555 1_555
H14 C17 1_555 1_555
C18 C2 1_555 1_555
H15 C18 1_555 1_555
H16 C18 1_555 1_555
H17 C18 1_555 1_555
C19 C3 1_555 1_555
H18 C19 1_555 1_555
H19 C19 1_555 1_555
H20 C19 1_555 1_555
Co1C O3 1_555 1_555
Co1C_2 N2 1_555 1_555
N2C Co1 1_555 1_555
O3C Co1 1_555 1_555
N4 C9 1_555 1_555
C5 C10 1_555 1_555
C7 C8 1_555 1_555
C10 C14 1_555 1_555
C13 C15 1_555 1_555

#END
