
#######################################################################
#
#                 Cambridge Crystallographic Data Centre
#                                CCDC 
#
#######################################################################
#
# If this CIF has been generated from an entry in the Cambridge 
# Structural Database, then it will include bibliographic, chemical, 
# crystal, experimental, refinement or atomic coordinate data resulting 
# from the CCDC's data processing and validation procedures.
#
#######################################################################

data_XIHZEV
_symmetry_cell_setting           triclinic
_symmetry_space_group_name_H-M   'P -1'
_symmetry_Int_Tables_number      2
_space_group_name_Hall           '-P 1'
loop_
_symmetry_equiv_pos_site_id
_symmetry_equiv_pos_as_xyz
1 x,y,z
2 -x,-y,-z
_cell_length_a                   13.0333(8)
_cell_length_b                   13.5524(7)
_cell_length_c                   27.8507(18)
_cell_angle_alpha                92.526(4)
_cell_angle_beta                 95.448(4)
_cell_angle_gamma                99.997(4)
_cell_volume                     4813.55
loop_
_atom_site_label
_atom_site_type_symbol
_atom_site_fract_x
_atom_site_fract_y
_atom_site_fract_z
Co1 Co 0.60439(5) 0.50648(4) 0.56075(2)
O1 O 0.5909(2) 0.4882(2) 0.63675(11)
O2 O 0.7466(2) 0.5427(2) 0.61559(11)
O3 O 0.6996(2) 0.53138(19) 0.50539(11)
O4 O 0.5546(2) 0.53204(19) 0.45739(11)
O5 O 0.8253(2) 0.6245(2) 0.84517(11)
O6 O 0.6905(2) 0.5483(2) 0.92400(11)
O7 O 0.8302(3) 0.7981(2) 0.94647(13)
O8 O 1.0003(3) 0.8497(2) 0.87006(12)
O9 O 0.8739(2) 0.5869(2) 0.29917(12)
O10 O 1.0948(2) 0.7362(2) 0.32260(11)
O11 O 0.9446(2) 0.8430(2) 0.25578(12)
O12 O 0.7440(2) 0.6946(2) 0.21421(11)
N1 N 0.5961(3) 0.6628(2) 0.56649(13)
N2 N 0.6130(3) 1.3514(2) 0.55359(13)
C1 C 0.7250(3) 0.5481(3) 0.69993(17)
C2 C 0.8122(3) 0.6231(3) 0.71370(17)
H1 H 0.8498 0.6558 0.6896
C3 C 0.8446(4) 0.6506(3) 0.76201(17)
C4 C 0.9315(4) 0.7409(3) 0.77782(18)
H2 H 0.9807 0.7224 0.8038
H3 H 0.9713 0.7607 0.7502
C5 C 0.8842(4) 0.8291(3) 0.79615(18)
C6 C 0.8054(4) 0.8630(3) 0.76789(19)
H4 H 0.7839 0.8327 0.7363
C7 C 0.7575(4) 0.9389(4) 0.7840(2)
H5 H 0.7058 0.9625 0.7634
C8 C 0.7858(4) 0.9810(4) 0.8311(2)
H6 H 0.7505 1.0312 0.8430
C9 C 0.8651(4) 0.9503(3) 0.86089(19)
C10 C 0.8911(4) 0.9941(4) 0.91296(19)
H7 H 0.9515 0.9677 0.9285
H8 H 0.9105 1.0680 0.9133
C11 C 0.7969(4) 0.9658(4) 0.94070(19)
C12 C 0.7327(5) 1.0340(4) 0.9503(2)
H9 H 0.7546 1.1026 0.9446
C13 C 0.6373(5) 1.0042(4) 0.9682(2)
H10 H 0.5954 1.0524 0.9758
C14 C 0.6032(5) 0.9028(4) 0.9749(2)
H11 H 0.5364 0.8818 0.9858
C15 C 0.6658(4) 0.8326(4) 0.96606(19)
C16 C 0.6236(4) 0.7202(4) 0.96826(18)
H12 H 0.6808 0.6862 0.9813
H13 H 0.5679 0.7106 0.9903
C17 C 0.5795(4) 0.6734(3) 0.91805(18)
C18 C 0.5024(4) 0.7123(4) 0.89147(19)
H14 H 0.4736 0.7650 0.9057
C19 C 0.4667(4) 0.6761(4) 0.8447(2)
H15 H 0.4127 0.7026 0.8271
C20 C 0.5100(4) 0.6007(4) 0.82361(18)
H16 H 0.4868 0.5775 0.7910
C21 C 0.5857(4) 0.5587(3) 0.84874(18)
C22 C 0.6366(4) 0.4808(3) 0.82374(17)
H17 H 0.6825 0.4528 0.8479
H18 H 0.5816 0.4251 0.8091
C23 C 0.7008(4) 0.5257(3) 0.78477(17)
C24 C 0.6697(4) 0.5024(3) 0.73610(17)
H19 H 0.6084 0.4536 0.7269
C25 C 0.7916(4) 0.5998(3) 0.79697(17)
C26 C 0.6172(4) 0.5925(3) 0.89695(18)
C27 C 0.7636(4) 0.8661(4) 0.95176(18)
C28 C 0.9157(4) 0.8764(3) 0.84166(19)
C29 C 0.6866(4) 0.5241(3) 0.64780(17)
C30 C 0.8948(4) 0.5606(4) 0.86429(19)
H20 H 0.9486 0.5552 0.8420
H21 H 0.8547 0.4925 0.8672
C31 C 0.9460(5) 0.6026(4) 0.9122(2)
H22 H 0.8924 0.6038 0.9350
H23 H 0.9820 0.6725 0.9096
C32 C 1.0271(5) 0.5377(5) 0.9316(3)
H24 H 0.9899 0.4726 0.9401
H25 H 1.0695 0.5726 0.9603
H26 H 1.0728 0.5271 0.9066
C33 C 1.0969(4) 0.9109(5) 0.8611(2)
H27 H 1.0915 0.9828 0.8645
H28 H 1.1132 0.8956 0.8279
C34 C 1.1855(7) 0.8877(7) 0.8990(4)
H29 H 1.2466 0.9432 0.9026
H30 H 1.1594 0.8769 0.9309
C35 C 1.2116(8) 0.8010(9) 0.8795(4)
H31 H 1.1477 0.7520 0.8696
H32 H 1.2559 0.7730 0.9038
H33 H 1.2498 0.8166 0.8514
C36 C 0.9255(5) 0.8129(5) 0.9828(2)
H34 H 0.9834 0.7895 0.9676
H35 H 0.9476 0.8854 0.9918
C37 C 0.9078(6) 0.7586(5) 1.0272(2)
H36 H 0.9768 0.7540 1.0443
H37 H 0.8713 0.6893 1.0175
C38 C 0.8424(6) 0.8067(5) 1.0638(3)
H38 H 0.8714 0.8784 1.0700
H39 H 0.8459 0.7731 1.0942
H40 H 0.7692 0.7986 1.0500
C39 C 0.6415(4) 0.4660(3) 0.95003(18)
H41 H 0.5891 0.4192 0.9280
H42 H 0.6055 0.4915 0.9764
C40 C 0.7268(4) 0.4133(4) 0.9703(2)
H43 H 0.7787 0.4617 0.9918
H44 H 0.7631 0.3903 0.9434
C41 C 0.6869(5) 0.3244(4) 0.9983(2)
H45 H 0.6618 0.3478 1.0281
H46 H 0.7437 0.2872 1.0064
H47 H 0.6292 0.2803 0.9786
C42 C 0.7128(4) 0.5515(3) 0.42156(17)
C43 C 0.8218(4) 0.5683(3) 0.42639(17)
H48 H 0.8583 0.5702 0.4577
C44 C 0.8788(4) 0.5824(3) 0.38684(18)
C45 C 0.9987(3) 0.6135(3) 0.39548(17)
H49 H 1.0249 0.5837 0.4250
H50 H 1.0307 0.5871 0.3679
C46 C 1.0315(3) 0.7275(3) 0.40116(17)
C47 C 1.0161(3) 0.7773(3) 0.44406(18)
H51 H 0.9912 0.7396 0.4699
C48 C 1.0368(4) 0.8812(3) 0.44945(18)
H52 H 1.0303 0.9146 0.4794
C49 C 1.0669(4) 0.9356(3) 0.41102(19)
H53 H 1.0766 1.0067 0.4143
C50 C 1.0837(3) 0.8892(3) 0.36718(17)
C51 C 1.1060(4) 0.9517(3) 0.32386(18)
H54 H 1.1652 1.0075 0.3335
H55 H 1.1266 0.9092 0.2979
C52 C 1.0108(4) 0.9943(3) 0.30468(18)
C53 C 0.9965(4) 1.0880(3) 0.32180(18)
H56 H 1.0483 1.1269 0.3446
C54 C 0.9075(4) 1.1257(4) 0.30614(19)
H57 H 0.8980 1.1895 0.3187
C55 C 0.8323(4) 1.0702(4) 0.27204(19)
H58 H 0.7724 1.0969 0.2607
C56 C 0.8443(4) 0.9761(3) 0.25449(18)
C57 C 0.7583(4) 0.9115(4) 0.21909(18)
H59 H 0.7178 0.9554 0.2007
H60 H 0.7907 0.8723 0.1958
C58 C 0.6859(4) 0.8410(3) 0.24680(17)
C59 C 0.6191(4) 0.8796(4) 0.27605(19)
H61 H 0.6147 0.9488 0.2758
C60 C 0.5594(4) 0.8191(4) 0.30529(18)
H62 H 0.5120 0.8459 0.3239
C61 C 0.5687(4) 0.7185(3) 0.30757(17)
H63 H 0.5295 0.6776 0.3287
C62 C 0.6348(3) 0.6770(3) 0.27915(17)
C63 C 0.6533(4) 0.5694(3) 0.28563(17)
H64 H 0.5852 0.5230 0.2832
H65 H 0.6936 0.5489 0.2597
C64 C 0.7136(4) 0.5631(3) 0.33476(16)
C65 C 0.6615(4) 0.5505(3) 0.37551(17)
H66 H 0.5872 0.5406 0.3719
C66 C 0.8235(4) 0.5760(3) 0.34070(17)
C67 C 1.0711(3) 0.7835(3) 0.36428(17)
C68 C 0.9334(4) 0.9401(3) 0.27126(18)
C69 C 0.6871(4) 0.7379(4) 0.24672(17)
C70 C 0.6527(4) 0.5380(3) 0.46441(17)
C71 C 0.9398(4) 0.5160(4) 0.2876(2)
H67 H 0.9429 0.4694 0.3139
H68 H 1.0118 0.5525 0.2855
C72 C 0.9010(6) 0.4577(5) 0.2416(3)
H69 H 0.8806 0.5042 0.2176
H70 H 0.9593 0.4285 0.2298
C73 C 0.8127(6) 0.3771(5) 0.2439(4)
H71 H 0.8313 0.3308 0.2679
H72 H 0.7946 0.3408 0.2121
H73 H 0.7525 0.4053 0.2530
C74 C 0.6797(4) 0.6572(4) 0.16996(17)
H74 H 0.6626 0.7143 0.1517
H75 H 0.6133 0.6163 0.1776
C75 C 0.7356(5) 0.5948(5) 0.1398(2)
H76 H 0.7485 0.5356 0.1575
H77 H 0.8044 0.6345 0.1345
C76 C 0.6746(4) 0.5596(5) 0.0914(2)
H78 H 0.6095 0.5146 0.0963
H79 H 0.7168 0.5238 0.0719
H80 H 0.6578 0.6178 0.0746
C77 C 0.9981(4) 0.8404(3) 0.21335(19)
H81 H 1.0671 0.8855 0.2187
H82 H 0.9566 0.8636 0.1858
C78 C 1.0125(4) 0.7354(4) 0.2023(2)
H83 H 0.9432 0.6910 0.1967
H84 H 1.0523 0.7122 0.2304
C79 C 1.0712(5) 0.7284(4) 0.1577(2)
H85 H 1.0324 0.7524 0.1300
H86 H 1.0776 0.6583 0.1506
H87 H 1.1412 0.7698 0.1638
C80 C 1.1881(4) 0.6920(4) 0.3297(2)
H88 H 1.1782 0.6293 0.3088
H89 H 1.1977 0.6739 0.3637
C81 C 1.2831(4) 0.7588(4) 0.3187(2)
H90 H 1.3442 0.7266 0.3280
H91 H 1.2914 0.8218 0.3392
C82 C 1.2859(4) 0.7856(4) 0.26608(18)
H92 H 1.2861 0.7248 0.2456
H93 H 1.3494 0.8345 0.2630
H94 H 1.2241 0.8144 0.2558
C83 C 0.6865(4) 0.7289(3) 0.57420(17)
H95 H 0.7509 0.7049 0.5749
C84 C 0.6885(4) 0.8314(3) 0.58121(18)
H96 H 0.7538 0.8760 0.5870
C85 C 0.5966(4) 0.8690(3) 0.57985(17)
C86 C 0.5040(4) 0.8007(3) 0.57024(17)
H97 H 0.4386 0.8231 0.5680
C87 C 0.5073(4) 0.6993(3) 0.56395(16)
H98 H 0.4429 0.6534 0.5575
C88 C 0.5973(4) 0.9802(3) 0.58717(19)
H99 H 0.5263 0.9909 0.5932
H100 H 0.6460 1.0076 0.6160
C89 C 0.6303(4) 1.0356(3) 0.54412(18)
H101 H 0.5855 1.0035 0.5150
H102 H 0.7034 1.0288 0.5399
C90 C 0.6237(4) 1.1460(3) 0.54759(16)
C91 C 0.5370(4) 1.1800(3) 0.56222(17)
H103 H 0.4792 1.1335 0.5707
C92 C 0.5343(4) 1.2816(3) 0.56453(17)
H104 H 0.4735 1.3029 0.5744
C93 C 0.7055(4) 1.2188(3) 0.53685(17)
H105 H 0.7676 1.1996 0.5273
C94 C 0.6971(4) 1.3191(3) 0.53997(17)
H106 H 0.7542 1.3673 0.5320
Co1_2 Co 0.60439(5) 1.50648(4) 0.56075(2)
Co1A Co 0.39561(5) 0.49352(4) 0.43925(2)
O4A O 0.4454(2) 0.46796(19) 0.54261(11)
N2_2 N 0.6130(3) 0.3514(2) 0.55359(13)
O13 O 0.5424(4) 0.7706(3) 0.07806(15)
N3 N 0.4993(4) 0.8839(4) 0.13154(19)
C95 C 0.5091(5) 0.9889(5) 0.1478(3)
H107 H 0.5526 1.0309 0.1270
H108 H 0.5419 0.9992 0.1812
H109 H 0.4395 1.0073 0.1462
C96 C 0.4316(5) 0.8110(6) 0.1550(3)
H110 H 0.4342 0.7436 0.1415
H111 H 0.3596 0.8235 0.1500
H112 H 0.4545 0.8159 0.1898
C97 C 0.5484(5) 0.8571(5) 0.0947(2)
H113 H 0.5914 0.9088 0.0800
O14 O 1.0668(3) 1.1784(2) 0.44242(13)
N4 N 0.9460(3) 1.2803(3) 0.42918(16)
C98 C 0.9753(5) 1.1905(4) 0.43372(19)
H114 H 0.9219 1.1325 0.4300
C99 C 0.8371(4) 1.2904(4) 0.4180(2)
H115 H 0.7923 1.2242 0.4170
H116 H 0.8284 1.3192 0.3865
H117 H 0.8173 1.3346 0.4430
C100 C 1.0230(4) 1.3712(4) 0.4339(2)
H118 H 1.0892 1.3578 0.4497
H119 H 0.9983 1.4225 0.4535
H120 H 1.0339 1.3953 0.4018
O15 O 0.6883(3) 1.0409(2) 0.42756(14)
N5 N 0.7569(3) 0.9001(3) 0.41066(15)
C101 C 0.7953(4) 0.8388(4) 0.37455(19)
H121 H 0.7892 0.8687 0.3432
H122 H 0.7536 0.7709 0.3720
H123 H 0.8689 0.8356 0.3842
C102 C 0.7541(4) 0.8653(4) 0.45901(19)
H124 H 0.7201 0.9092 0.4787
H125 H 0.8258 0.8664 0.4736
H126 H 0.7146 0.7965 0.4575
C103 C 0.7245(4) 0.9856(4) 0.3995(2)
H127 H 0.7297 1.0054 0.3674
O16 O 0.4013(3) 0.8677(3) 0.76033(17)
N6 N 0.4640(3) 0.7610(3) 0.70831(17)
C104 C 0.3722(5) 0.7517(5) 0.6742(2)
H128 H 0.3119 0.7606 0.6914
H129 H 0.3586 0.6850 0.6574
H130 H 0.3835 0.8031 0.6507
C105 C 0.5486(4) 0.7108(4) 0.6984(2)
H131 H 0.5892 0.7472 0.6748
H132 H 0.5203 0.6422 0.6853
H133 H 0.5940 0.7089 0.7284
C106 C 0.4707(5) 0.8188(4) 0.7492(3)
H134 H 0.5318 0.8233 0.7713
loop_
_geom_bond_atom_site_label_1
_geom_bond_atom_site_label_2
_geom_bond_site_symmetry_1
_geom_bond_site_symmetry_2
Co1 O1 1_555 1_555
O1 C29 1_555 1_555
O2 Co1 1_555 1_555
O3 Co1 1_555 1_555
O4 C70 1_555 1_555
O5 C25 1_555 1_555
O6 C26 1_555 1_555
O7 C27 1_555 1_555
O8 C28 1_555 1_555
O9 C66 1_555 1_555
O10 C67 1_555 1_555
O11 C68 1_555 1_555
O12 C69 1_555 1_555
N1 Co1 1_555 1_555
N2 C92 1_555 1_555
C1 C2 1_555 1_555
C2 H1 1_555 1_555
C3 C2 1_555 1_555
C4 C3 1_555 1_555
H2 C4 1_555 1_555
H3 C4 1_555 1_555
C5 C4 1_555 1_555
C6 C5 1_555 1_555
H4 C6 1_555 1_555
C7 C6 1_555 1_555
H5 C7 1_555 1_555
C8 C7 1_555 1_555
H6 C8 1_555 1_555
C9 C8 1_555 1_555
C10 C9 1_555 1_555
H7 C10 1_555 1_555
H8 C10 1_555 1_555
C11 C10 1_555 1_555
C12 C11 1_555 1_555
H9 C12 1_555 1_555
C13 C12 1_555 1_555
H10 C13 1_555 1_555
C14 C13 1_555 1_555
H11 C14 1_555 1_555
C15 C14 1_555 1_555
C16 C15 1_555 1_555
H12 C16 1_555 1_555
H13 C16 1_555 1_555
C17 C16 1_555 1_555
C18 C17 1_555 1_555
H14 C18 1_555 1_555
C19 C18 1_555 1_555
H15 C19 1_555 1_555
C20 C19 1_555 1_555
H16 C20 1_555 1_555
C21 C20 1_555 1_555
C22 C21 1_555 1_555
H17 C22 1_555 1_555
H18 C22 1_555 1_555
C23 C22 1_555 1_555
C24 C1 1_555 1_555
H19 C24 1_555 1_555
C25 C3 1_555 1_555
C26 C17 1_555 1_555
C27 C11 1_555 1_555
C28 C5 1_555 1_555
C29 O2 1_555 1_555
C30 O5 1_555 1_555
H20 C30 1_555 1_555
H21 C30 1_555 1_555
C31 C30 1_555 1_555
H22 C31 1_555 1_555
H23 C31 1_555 1_555
C32 C31 1_555 1_555
H24 C32 1_555 1_555
H25 C32 1_555 1_555
H26 C32 1_555 1_555
C33 O8 1_555 1_555
H27 C33 1_555 1_555
H28 C33 1_555 1_555
C34 C33 1_555 1_555
H29 C34 1_555 1_555
H30 C34 1_555 1_555
C35 C34 1_555 1_555
H31 C35 1_555 1_555
H32 C35 1_555 1_555
H33 C35 1_555 1_555
C36 O7 1_555 1_555
H34 C36 1_555 1_555
H35 C36 1_555 1_555
C37 C36 1_555 1_555
H36 C37 1_555 1_555
H37 C37 1_555 1_555
C38 C37 1_555 1_555
H38 C38 1_555 1_555
H39 C38 1_555 1_555
H40 C38 1_555 1_555
C39 O6 1_555 1_555
H41 C39 1_555 1_555
H42 C39 1_555 1_555
C40 C39 1_555 1_555
H43 C40 1_555 1_555
H44 C40 1_555 1_555
C41 C40 1_555 1_555
H45 C41 1_555 1_555
H46 C41 1_555 1_555
H47 C41 1_555 1_555
C42 C43 1_555 1_555
C43 H48 1_555 1_555
C44 C43 1_555 1_555
C45 C44 1_555 1_555
H49 C45 1_555 1_555
H50 C45 1_555 1_555
C46 C45 1_555 1_555
C47 C46 1_555 1_555
H51 C47 1_555 1_555
C48 C47 1_555 1_555
H52 C48 1_555 1_555
C49 C48 1_555 1_555
H53 C49 1_555 1_555
C50 C49 1_555 1_555
C51 C50 1_555 1_555
H54 C51 1_555 1_555
H55 C51 1_555 1_555
C52 C51 1_555 1_555
C53 C52 1_555 1_555
H56 C53 1_555 1_555
C54 C53 1_555 1_555
H57 C54 1_555 1_555
C55 C54 1_555 1_555
H58 C55 1_555 1_555
C56 C55 1_555 1_555
C57 C56 1_555 1_555
H59 C57 1_555 1_555
H60 C57 1_555 1_555
C58 C57 1_555 1_555
C59 C58 1_555 1_555
H61 C59 1_555 1_555
C60 C59 1_555 1_555
H62 C60 1_555 1_555
C61 C60 1_555 1_555
H63 C61 1_555 1_555
C62 C61 1_555 1_555
C63 C62 1_555 1_555
H64 C63 1_555 1_555
H65 C63 1_555 1_555
C64 C63 1_555 1_555
C65 C42 1_555 1_555
H66 C65 1_555 1_555
C66 C44 1_555 1_555
C67 C46 1_555 1_555
C68 C52 1_555 1_555
C69 C58 1_555 1_555
C70 O3 1_555 1_555
C71 O9 1_555 1_555
H67 C71 1_555 1_555
H68 C71 1_555 1_555
C72 C71 1_555 1_555
H69 C72 1_555 1_555
H70 C72 1_555 1_555
C73 C72 1_555 1_555
H71 C73 1_555 1_555
H72 C73 1_555 1_555
H73 C73 1_555 1_555
C74 O12 1_555 1_555
H74 C74 1_555 1_555
H75 C74 1_555 1_555
C75 C74 1_555 1_555
H76 C75 1_555 1_555
H77 C75 1_555 1_555
C76 C75 1_555 1_555
H78 C76 1_555 1_555
H79 C76 1_555 1_555
H80 C76 1_555 1_555
C77 O11 1_555 1_555
H81 C77 1_555 1_555
H82 C77 1_555 1_555
C78 C77 1_555 1_555
H83 C78 1_555 1_555
H84 C78 1_555 1_555
C79 C78 1_555 1_555
H85 C79 1_555 1_555
H86 C79 1_555 1_555
H87 C79 1_555 1_555
C80 O10 1_555 1_555
H88 C80 1_555 1_555
H89 C80 1_555 1_555
C81 C80 1_555 1_555
H90 C81 1_555 1_555
H91 C81 1_555 1_555
C82 C81 1_555 1_555
H92 C82 1_555 1_555
H93 C82 1_555 1_555
H94 C82 1_555 1_555
C83 N1 1_555 1_555
H95 C83 1_555 1_555
C84 C83 1_555 1_555
H96 C84 1_555 1_555
C85 C84 1_555 1_555
C86 C85 1_555 1_555
H97 C86 1_555 1_555
C87 N1 1_555 1_555
H98 C87 1_555 1_555
C88 C85 1_555 1_555
H99 C88 1_555 1_555
H100 C88 1_555 1_555
C89 C88 1_555 1_555
H101 C89 1_555 1_555
H102 C89 1_555 1_555
C90 C89 1_555 1_555
C91 C90 1_555 1_555
H103 C91 1_555 1_555
C92 C91 1_555 1_555
H104 C92 1_555 1_555
C93 C90 1_555 1_555
H105 C93 1_555 1_555
C94 N2 1_555 1_555
H106 C94 1_555 1_555
O13 C97 1_555 1_555
N3 C95 1_555 1_555
C95 H107 1_555 1_555
H108 C95 1_555 1_555
H109 C95 1_555 1_555
C96 N3 1_555 1_555
H110 C96 1_555 1_555
H111 C96 1_555 1_555
H112 C96 1_555 1_555
C97 N3 1_555 1_555
H113 C97 1_555 1_555
O14 C98 1_555 1_555
N4 C98 1_555 1_555
C98 H114 1_555 1_555
C99 N4 1_555 1_555
H115 C99 1_555 1_555
H116 C99 1_555 1_555
H117 C99 1_555 1_555
C100 N4 1_555 1_555
H118 C100 1_555 1_555
H119 C100 1_555 1_555
H120 C100 1_555 1_555
O15 C103 1_555 1_555
N5 C101 1_555 1_555
C101 H121 1_555 1_555
H122 C101 1_555 1_555
H123 C101 1_555 1_555
C102 N5 1_555 1_555
H124 C102 1_555 1_555
H125 C102 1_555 1_555
H126 C102 1_555 1_555
C103 N5 1_555 1_555
H127 C103 1_555 1_555
O16 C106 1_555 1_555
N6 C104 1_555 1_555
C104 H128 1_555 1_555
H129 C104 1_555 1_555
H130 C104 1_555 1_555
C105 N6 1_555 1_555
H131 C105 1_555 1_555
H132 C105 1_555 1_555
H133 C105 1_555 1_555
C106 N6 1_555 1_555
H134 C106 1_555 1_555
Co1_2 N2 1_555 1_555
Co1A O4 1_555 1_555
O4A Co1 1_555 1_555
N2_2 Co1 1_555 1_555
C1 C29 1_555 1_555
C9 C28 1_555 1_555
C15 C27 1_555 1_555
C21 C26 1_555 1_555
C23 C24 1_555 1_555
C23 C25 1_555 1_555
C42 C70 1_555 1_555
C50 C67 1_555 1_555
C56 C68 1_555 1_555
C62 C69 1_555 1_555
C64 C65 1_555 1_555
C64 C66 1_555 1_555
C86 C87 1_555 1_555
C93 C94 1_555 1_555

#END
