
#######################################################################
#
#                 Cambridge Crystallographic Data Centre
#                                CCDC 
#
#######################################################################
#
# If this CIF has been generated from an entry in the Cambridge 
# Structural Database, then it will include bibliographic, chemical, 
# crystal, experimental, refinement or atomic coordinate data resulting 
# from the CCDC's data processing and validation procedures.
#
#######################################################################

data_XIHZAR
_symmetry_cell_setting           triclinic
_symmetry_space_group_name_H-M   'P -1'
_symmetry_Int_Tables_number      2
_space_group_name_Hall           '-P 1'
loop_
_symmetry_equiv_pos_site_id
_symmetry_equiv_pos_as_xyz
1 x,y,z
2 -x,-y,-z
_cell_length_a                   12.9816(18)
_cell_length_b                   13.578(2)
_cell_length_c                   27.769(4)
_cell_angle_alpha                93.021(4)
_cell_angle_beta                 95.356(4)
_cell_angle_gamma                99.979(4)
_cell_volume                     4787.73
loop_
_atom_site_label
_atom_site_type_symbol
_atom_site_fract_x
_atom_site_fract_y
_atom_site_fract_z
Co1 Co 0.60462(8) 0.50295(7) 0.56075(4)
O1 O 0.8270(4) 0.6230(4) 0.84541(19)
O2 O 1.0019(4) 0.8486(4) 0.87098(19)
O3 O 0.8301(5) 0.7969(4) 0.9471(2)
O4 O 0.6915(4) 0.5462(4) 0.92407(19)
O5 O 0.5916(4) 0.4831(4) 0.63659(17)
O6 O 0.7472(4) 0.5449(3) 0.61474(18)
O7 O 0.8727(4) 0.5933(4) 0.29907(19)
O8 O 0.7439(4) 0.6967(4) 0.2139(2)
O9 O 0.9471(4) 0.8476(4) 0.2561(2)
O10 O 1.0946(4) 0.7410(4) 0.32266(19)
O11 O 0.6991(4) 0.5286(3) 0.50458(18)
O12 O 0.5530(4) 0.5409(3) 0.45788(17)
N1 N 0.5898(5) 0.6562(4) 0.5660(2)
N2 N 0.6157(5) 1.3491(4) 0.5534(2)
C1 C 0.7025(7) 0.5249(6) 0.7849(3)
C2 C 0.6708(6) 0.5011(5) 0.7359(3)
H1 H 0.6098 0.4518 0.7265
C3 C 0.7259(6) 0.5476(6) 0.7001(3)
C4 C 0.8128(6) 0.6216(6) 0.7140(3)
H2 H 0.8502 0.6536 0.6896
C5 C 0.8468(6) 0.6505(6) 0.7619(3)
C6 C 0.7934(7) 0.5978(6) 0.7970(3)
C7 C 0.9321(6) 0.7401(6) 0.7785(3)
H3 H 0.9806 0.7216 0.8047
H4 H 0.9732 0.7598 0.7511
C8 C 0.8850(7) 0.8277(6) 0.7966(3)
C9 C 0.8055(7) 0.8616(6) 0.7688(3)
H5 H 0.7848 0.8322 0.7368
C10 C 0.7557(7) 0.9355(7) 0.7854(4)
H6 H 0.7014 0.9567 0.7654
C11 C 0.7861(8) 0.9786(6) 0.8319(4)
H7 H 0.7525 1.0305 0.8437
C12 C 0.8657(7) 0.9473(6) 0.8622(3)
C13 C 0.9171(7) 0.8751(6) 0.8432(3)
C14 C 0.8907(7) 0.9919(6) 0.9149(3)
H8 H 0.9506 0.9653 0.9308
H9 H 0.9107 1.0657 0.9154
C15 C 0.7954(8) 0.9645(8) 0.9416(3)
C16 C 0.7293(9) 1.0313(8) 0.9520(4)
H10 H 0.7509 1.1003 0.9472
C17 C 0.6350(9) 1.0010(8) 0.9687(4)
H11 H 0.5916 1.0482 0.9759
C18 C 0.6025(8) 0.8996(8) 0.9752(3)
H12 H 0.5353 0.8780 0.9858
C19 C 0.6655(8) 0.8298(7) 0.9667(3)
C20 C 0.7634(8) 0.8653(7) 0.9529(3)
C21 C 0.6238(7) 0.7177(7) 0.9685(3)
H13 H 0.6812 0.6842 0.9817
H14 H 0.5673 0.7079 0.9903
C22 C 0.5812(7) 0.6710(7) 0.9183(3)
C23 C 0.5032(7) 0.7087(7) 0.8918(4)
H15 H 0.4740 0.7612 0.9062
C24 C 0.4665(7) 0.6718(7) 0.8447(3)
H16 H 0.4114 0.6970 0.8272
C25 C 0.5121(7) 0.5975(7) 0.8238(3)
H17 H 0.4906 0.5744 0.7909
C26 C 0.5873(7) 0.5565(6) 0.8493(3)
C27 C 0.6175(6) 0.5902(6) 0.8967(3)
C28 C 0.6380(6) 0.4791(6) 0.8237(3)
H18 H 0.5827 0.4237 0.8086
H19 H 0.6841 0.4508 0.8476
C29 C 0.6874(8) 0.5238(6) 0.6474(3)
C30 C 0.8977(7) 0.5577(7) 0.8635(3)
H20 H 0.9519 0.5532 0.8410
H21 H 0.8579 0.4895 0.8661
C31 C 0.9479(7) 0.6017(8) 0.9118(4)
H22 H 0.8937 0.6034 0.9345
H23 H 0.9843 0.6713 0.9092
C32 C 1.0291(8) 0.5364(8) 0.9315(4)
H24 H 0.9914 0.4714 0.9395
H25 H 1.0710 0.5710 0.9606
H26 H 1.0757 0.5260 0.9066
C33 C 1.0983(7) 0.9101(8) 0.8624(4)
H27 H 1.0924 0.9817 0.8664
H28 H 1.1143 0.8956 0.8289
C34 C 1.1862(12) 0.8882(12) 0.8986(6)
H29 H 1.2481 0.9429 0.9011
H30 H 1.1619 0.8799 0.9311
C35 C 1.2107(12) 0.7985(14) 0.8793(6)
H31 H 1.1466 0.7476 0.8736
H32 H 1.2618 0.7752 0.9022
H33 H 1.2408 0.8101 0.8486
C36 C 0.9250(8) 0.8130(8) 0.9833(3)
H34 H 0.9844 0.7929 0.9676
H35 H 0.9445 0.8854 0.9935
C37 C 0.9089(9) 0.7558(9) 1.0269(4)
H36 H 0.9784 0.7507 1.0436
H37 H 0.8717 0.6870 1.0164
C38 C 0.8428(10) 0.8054(9) 1.0645(4)
H38 H 0.8703 0.8775 1.0697
H39 H 0.8491 0.7742 1.0955
H40 H 0.7687 0.7948 1.0515
C39 C 0.6414(7) 0.4645(6) 0.9499(3)
H41 H 0.5886 0.4178 0.9277
H42 H 0.6056 0.4903 0.9765
C40 C 0.7274(7) 0.4116(7) 0.9698(3)
H43 H 0.7630 0.3877 0.9426
H44 H 0.7802 0.4600 0.9912
C41 C 0.6872(8) 0.3245(8) 0.9978(4)
H45 H 0.6546 0.3482 1.0256
H46 H 0.7457 0.2920 1.0093
H47 H 0.6348 0.2764 0.9768
C42 C 0.8210(7) 0.5723(5) 0.4258(3)
H48 H 0.8577 0.5731 0.4571
C43 C 0.7131(7) 0.5562(5) 0.4212(3)
C44 C 0.6589(6) 0.5566(5) 0.3755(3)
H49 H 0.5843 0.5485 0.3724
C45 C 0.7126(7) 0.5688(5) 0.3342(3)
C46 C 0.8222(7) 0.5812(6) 0.3407(3)
C47 C 0.6509(6) 0.5749(6) 0.2856(3)
H50 H 0.5824 0.5288 0.2836
H51 H 0.6901 0.5535 0.2592
C48 C 0.6323(6) 0.6811(6) 0.2789(3)
C49 C 0.5660(6) 0.7239(7) 0.3069(3)
H52 H 0.5258 0.6840 0.3280
C50 C 0.5577(6) 0.8234(7) 0.3044(3)
H53 H 0.5100 0.8509 0.3228
C51 C 0.6202(6) 0.8847(6) 0.2745(3)
H54 H 0.6162 0.9538 0.2737
C52 C 0.6867(6) 0.8443(7) 0.2466(3)
C53 C 0.6882(6) 0.7415(7) 0.2457(3)
C54 C 0.7607(7) 0.9152(6) 0.2190(3)
H55 H 0.7204 0.9594 0.2009
H56 H 0.7926 0.8758 0.1954
C55 C 0.8481(7) 0.9793(7) 0.2544(3)
C56 C 0.8335(7) 1.0735(7) 0.2715(3)
H57 H 0.7728 1.0992 0.2601
C57 C 0.9086(9) 1.1288(7) 0.3053(3)
H58 H 0.8990 1.1931 0.3172
C58 C 0.9966(8) 1.0934(7) 0.3222(3)
H59 H 1.0474 1.1332 0.3454
C59 C 1.0117(7) 0.9993(7) 0.3055(3)
C60 C 0.9362(7) 0.9427(7) 0.2717(3)
C61 C 1.1067(6) 0.9571(6) 0.3250(3)
H60 H 1.1657 1.0130 0.3355
H61 H 1.1287 0.9153 0.2989
C62 C 1.0822(6) 0.8928(6) 0.3685(3)
C63 C 1.0646(6) 0.9415(6) 0.4124(3)
H62 H 1.0740 1.0126 0.4159
C64 C 1.0338(6) 0.8858(6) 0.4500(3)
H63 H 1.0266 0.9181 0.4804
C65 C 1.0127(6) 0.7806(6) 0.4435(3)
H64 H 0.9866 0.7427 0.4689
C66 C 1.0290(6) 0.7318(6) 0.4013(3)
C67 C 1.0700(6) 0.7890(6) 0.3645(3)
C68 C 0.9969(6) 0.6194(6) 0.3951(3)
H65 H 1.0226 0.5897 0.4247
H66 H 1.0301 0.5934 0.3676
C69 C 0.8788(6) 0.5877(6) 0.3858(3)
C70 C 0.9405(8) 0.5217(8) 0.2869(3)
H67 H 0.9473 0.4776 0.3139
H68 H 1.0116 0.5586 0.2829
C71 C 0.8970(11) 0.4597(10) 0.2418(5)
H69 H 0.9539 0.4298 0.2287
H70 H 0.8726 0.5037 0.2175
C72 C 0.8085(10) 0.3782(10) 0.2483(6)
H71 H 0.8334 0.3309 0.2701
H72 H 0.7809 0.3429 0.2168
H73 H 0.7527 0.4068 0.2623
C73 C 0.6789(7) 0.6589(6) 0.1697(3)
H74 H 0.6620 0.7155 0.1512
H75 H 0.6121 0.6184 0.1773
C74 C 0.7363(8) 0.5959(8) 0.1401(3)
H76 H 0.7497 0.5377 0.1581
H77 H 0.8051 0.6356 0.1345
C75 C 0.6733(7) 0.5582(7) 0.0908(3)
H78 H 0.6081 0.5136 0.0961
H79 H 0.7155 0.5214 0.0714
H80 H 0.6564 0.6155 0.0736
C76 C 1.0013(7) 0.8436(6) 0.2136(3)
H81 H 1.0714 0.8871 0.2194
H82 H 0.9611 0.8681 0.1861
C77 C 1.0134(7) 0.7369(6) 0.2016(3)
H83 H 0.9431 0.6937 0.1953
H84 H 1.0523 0.7121 0.2295
C78 C 1.0727(8) 0.7314(7) 0.1571(3)
H85 H 1.0347 0.7573 0.1298
H86 H 1.0781 0.6615 0.1489
H87 H 1.1433 0.7717 0.1640
C79 C 1.1888(7) 0.6980(7) 0.3296(3)
H88 H 1.1793 0.6351 0.3087
H89 H 1.1990 0.6808 0.3637
C80 C 1.2834(7) 0.7653(7) 0.3183(3)
H90 H 1.3454 0.7344 0.3277
H91 H 1.2909 0.8289 0.3386
C81 C 1.2850(7) 0.7902(7) 0.2647(3)
H92 H 1.2816 0.7283 0.2443
H93 H 1.3500 0.8366 0.2609
H94 H 1.2243 0.8213 0.2549
C82 C 0.4990(6) 0.6883(5) 0.5638(3)
H95 H 0.4365 0.6398 0.5626
C83 C 0.4892(6) 0.7883(5) 0.5629(3)
H96 H 0.4218 0.8068 0.5614
C84 C 0.5789(6) 0.8607(5) 0.5643(3)
C85 C 0.6749(6) 0.8262(5) 0.5668(3)
H97 H 0.7388 0.8728 0.5678
C86 C 0.6772(6) 0.7264(5) 0.5678(3)
H98 H 0.7435 0.7054 0.5698
C87 C 0.5688(6) 0.9663(6) 0.5617(3)
H99 H 0.5016 0.9825 0.5655
C88 C 0.6450(7) 1.0417(6) 0.5545(3)
H100 H 0.7125 1.0268 0.5501
C89 C 0.6309(7) 1.1460(6) 0.5528(3)
C90 C 0.5431(6) 1.1811(6) 0.5670(3)
H101 H 0.4862 1.1359 0.5772
C91 C 0.5389(6) 1.2814(6) 0.5663(3)
H102 H 0.4775 1.3033 0.5755
C92 C 0.7001(6) 1.3170(6) 0.5398(3)
H103 H 0.7555 1.3646 0.5300
C93 C 0.7114(6) 1.2177(6) 0.5392(3)
H104 H 0.7737 1.1984 0.5296
C94 C 0.6506(7) 0.5413(5) 0.4646(3)
Co1_2 Co 0.60462(8) 1.50295(7) 0.56075(4)
Co1A Co 0.39538(8) 0.49705(7) 0.43925(4)
O12A O 0.4470(4) 0.4591(3) 0.54212(17)
N2_2 N 0.6157(5) 0.3491(4) 0.5534(2)
O13 O 0.9274(5) 0.8157(4) 0.5560(2)
N3 N 1.0480(6) 0.7120(6) 0.5702(3)
C95 C 1.0199(9) 0.8026(7) 0.5653(3)
H105 H 1.0740 0.8601 0.5693
C96 C 0.9697(7) 0.6231(6) 0.5656(4)
H106 H 1.0036 0.5647 0.5701
H107 H 0.9308 0.6164 0.5332
H108 H 0.9210 0.6272 0.5902
C97 C 1.1557(7) 0.7042(7) 0.5815(3)
H109 H 1.1615 0.6335 0.5837
H110 H 1.1827 0.7413 0.6127
H111 H 1.1969 0.7324 0.5561
O14 O 0.6955(5) 0.0555(4) 0.4246(2)
N4 N 0.7551(5) -0.0896(5) 0.4084(2)
C98 C 0.7476(7) -0.1231(6) 0.4571(3)
H112 H 0.8184 -0.1159 0.4742
H113 H 0.7133 -0.1936 0.4551
H114 H 0.7062 -0.0823 0.4747
C99 C 0.7935(7) -0.1547(6) 0.3741(3)
H115 H 0.8077 -0.2147 0.3898
H116 H 0.8585 -0.1192 0.3631
H117 H 0.7404 -0.1744 0.3462
C100 C 0.7291(7) -0.0026(7) 0.3974(3)
H118 H 0.7374 0.0165 0.3654
O15 O 0.4567(6) 0.2290(6) 0.9219(3)
N5 N 0.5002(7) 0.1140(7) 0.8683(3)
C101 C 0.4528(9) 0.1417(10) 0.9051(4)
H119 H 0.4116 0.0900 0.9203
C102 C 0.5677(9) 0.1851(10) 0.8443(4)
H120 H 0.5960 0.1504 0.8181
H121 H 0.6257 0.2198 0.8675
H122 H 0.5278 0.2340 0.8307
C103 C 0.4905(9) 0.0083(9) 0.8523(5)
H123 H 0.5316 0.0021 0.8247
H124 H 0.4164 -0.0201 0.8423
H125 H 0.5169 -0.0280 0.8790
O16 O 0.5984(6) 1.1372(5) 0.2375(3)
N6 N 0.5361(7) 1.2388(6) 0.2939(3)
C104 C 0.5297(9) 1.1872(9) 0.2513(5)
H126 H 0.4691 1.1874 0.2293
C105 C 0.6268(9) 1.2415(10) 0.3276(4)
H127 H 0.6202 1.2817 0.3571
H128 H 0.6898 1.2716 0.3131
H129 H 0.6326 1.1732 0.3356
C106 C 0.4477(7) 1.2859(7) 0.3028(3)
H130 H 0.4606 1.3213 0.3351
H131 H 0.3840 1.2347 0.3012
H132 H 0.4385 1.3338 0.2783
loop_
_geom_bond_atom_site_label_1
_geom_bond_atom_site_label_2
_geom_bond_site_symmetry_1
_geom_bond_site_symmetry_2
Co1 O5 1_555 1_555
O1 C6 1_555 1_555
O2 C13 1_555 1_555
O3 C20 1_555 1_555
O4 C27 1_555 1_555
O5 C29 1_555 1_555
O6 Co1 1_555 1_555
O7 C46 1_555 1_555
O8 C53 1_555 1_555
O9 C60 1_555 1_555
O10 C67 1_555 1_555
O11 Co1 1_555 1_555
O12 C94 1_555 1_555
N1 Co1 1_555 1_555
N2 C91 1_555 1_555
C1 C2 1_555 1_555
C2 H1 1_555 1_555
C3 C2 1_555 1_555
C4 C3 1_555 1_555
H2 C4 1_555 1_555
C5 C4 1_555 1_555
C6 C1 1_555 1_555
C7 C5 1_555 1_555
H3 C7 1_555 1_555
H4 C7 1_555 1_555
C8 C7 1_555 1_555
C9 C8 1_555 1_555
H5 C9 1_555 1_555
C10 C9 1_555 1_555
H6 C10 1_555 1_555
C11 C10 1_555 1_555
H7 C11 1_555 1_555
C12 C11 1_555 1_555
C13 C8 1_555 1_555
C14 C12 1_555 1_555
H8 C14 1_555 1_555
H9 C14 1_555 1_555
C15 C14 1_555 1_555
C16 C15 1_555 1_555
H10 C16 1_555 1_555
C17 C16 1_555 1_555
H11 C17 1_555 1_555
C18 C17 1_555 1_555
H12 C18 1_555 1_555
C19 C18 1_555 1_555
C20 C15 1_555 1_555
C21 C19 1_555 1_555
H13 C21 1_555 1_555
H14 C21 1_555 1_555
C22 C21 1_555 1_555
C23 C22 1_555 1_555
H15 C23 1_555 1_555
C24 C23 1_555 1_555
H16 C24 1_555 1_555
C25 C24 1_555 1_555
H17 C25 1_555 1_555
C26 C25 1_555 1_555
C27 C22 1_555 1_555
C28 C1 1_555 1_555
H18 C28 1_555 1_555
H19 C28 1_555 1_555
C29 O6 1_555 1_555
C30 O1 1_555 1_555
H20 C30 1_555 1_555
H21 C30 1_555 1_555
C31 C30 1_555 1_555
H22 C31 1_555 1_555
H23 C31 1_555 1_555
C32 C31 1_555 1_555
H24 C32 1_555 1_555
H25 C32 1_555 1_555
H26 C32 1_555 1_555
C33 O2 1_555 1_555
H27 C33 1_555 1_555
H28 C33 1_555 1_555
C34 C33 1_555 1_555
H29 C34 1_555 1_555
H30 C34 1_555 1_555
C35 C34 1_555 1_555
H31 C35 1_555 1_555
H32 C35 1_555 1_555
H33 C35 1_555 1_555
C36 O3 1_555 1_555
H34 C36 1_555 1_555
H35 C36 1_555 1_555
C37 C36 1_555 1_555
H36 C37 1_555 1_555
H37 C37 1_555 1_555
C38 C37 1_555 1_555
H38 C38 1_555 1_555
H39 C38 1_555 1_555
H40 C38 1_555 1_555
C39 O4 1_555 1_555
H41 C39 1_555 1_555
H42 C39 1_555 1_555
C40 C39 1_555 1_555
H43 C40 1_555 1_555
H44 C40 1_555 1_555
C41 C40 1_555 1_555
H45 C41 1_555 1_555
H46 C41 1_555 1_555
H47 C41 1_555 1_555
C42 H48 1_555 1_555
C43 C42 1_555 1_555
C44 C43 1_555 1_555
H49 C44 1_555 1_555
C45 C44 1_555 1_555
C46 C45 1_555 1_555
C47 C45 1_555 1_555
H50 C47 1_555 1_555
H51 C47 1_555 1_555
C48 C47 1_555 1_555
C49 C48 1_555 1_555
H52 C49 1_555 1_555
C50 C49 1_555 1_555
H53 C50 1_555 1_555
C51 C50 1_555 1_555
H54 C51 1_555 1_555
C52 C51 1_555 1_555
C53 C48 1_555 1_555
C54 C52 1_555 1_555
H55 C54 1_555 1_555
H56 C54 1_555 1_555
C55 C54 1_555 1_555
C56 C55 1_555 1_555
H57 C56 1_555 1_555
C57 C56 1_555 1_555
H58 C57 1_555 1_555
C58 C57 1_555 1_555
H59 C58 1_555 1_555
C59 C58 1_555 1_555
C60 C55 1_555 1_555
C61 C59 1_555 1_555
H60 C61 1_555 1_555
H61 C61 1_555 1_555
C62 C61 1_555 1_555
C63 C62 1_555 1_555
H62 C63 1_555 1_555
C64 C63 1_555 1_555
H63 C64 1_555 1_555
C65 C64 1_555 1_555
H64 C65 1_555 1_555
C66 C65 1_555 1_555
C67 C62 1_555 1_555
C68 C66 1_555 1_555
H65 C68 1_555 1_555
H66 C68 1_555 1_555
C69 C42 1_555 1_555
C70 O7 1_555 1_555
H67 C70 1_555 1_555
H68 C70 1_555 1_555
C71 C70 1_555 1_555
H69 C71 1_555 1_555
H70 C71 1_555 1_555
C72 C71 1_555 1_555
H71 C72 1_555 1_555
H72 C72 1_555 1_555
H73 C72 1_555 1_555
C73 O8 1_555 1_555
H74 C73 1_555 1_555
H75 C73 1_555 1_555
C74 C73 1_555 1_555
H76 C74 1_555 1_555
H77 C74 1_555 1_555
C75 C74 1_555 1_555
H78 C75 1_555 1_555
H79 C75 1_555 1_555
H80 C75 1_555 1_555
C76 O9 1_555 1_555
H81 C76 1_555 1_555
H82 C76 1_555 1_555
C77 C76 1_555 1_555
H83 C77 1_555 1_555
H84 C77 1_555 1_555
C78 C77 1_555 1_555
H85 C78 1_555 1_555
H86 C78 1_555 1_555
H87 C78 1_555 1_555
C79 O10 1_555 1_555
H88 C79 1_555 1_555
H89 C79 1_555 1_555
C80 C79 1_555 1_555
H90 C80 1_555 1_555
H91 C80 1_555 1_555
C81 C80 1_555 1_555
H92 C81 1_555 1_555
H93 C81 1_555 1_555
H94 C81 1_555 1_555
C82 N1 1_555 1_555
H95 C82 1_555 1_555
C83 C82 1_555 1_555
H96 C83 1_555 1_555
C84 C83 1_555 1_555
C85 C84 1_555 1_555
H97 C85 1_555 1_555
C86 N1 1_555 1_555
H98 C86 1_555 1_555
C87 C84 1_555 1_555
H99 C87 1_555 1_555
C88 C87 1_555 1_555
H100 C88 1_555 1_555
C89 C88 1_555 1_555
C90 C89 1_555 1_555
H101 C90 1_555 1_555
C91 C90 1_555 1_555
H102 C91 1_555 1_555
C92 N2 1_555 1_555
H103 C92 1_555 1_555
C93 C89 1_555 1_555
H104 C93 1_555 1_555
C94 O11 1_555 1_555
O13 C95 1_555 1_555
N3 C95 1_555 1_555
C95 H105 1_555 1_555
C96 N3 1_555 1_555
H106 C96 1_555 1_555
H107 C96 1_555 1_555
H108 C96 1_555 1_555
C97 N3 1_555 1_555
H109 C97 1_555 1_555
H110 C97 1_555 1_555
H111 C97 1_555 1_555
O14 C100 1_555 1_555
N4 C98 1_555 1_555
C98 H112 1_555 1_555
H113 C98 1_555 1_555
H114 C98 1_555 1_555
C99 N4 1_555 1_555
H115 C99 1_555 1_555
H116 C99 1_555 1_555
H117 C99 1_555 1_555
C100 N4 1_555 1_555
H118 C100 1_555 1_555
O15 C101 1_555 1_555
N5 C101 1_555 1_555
C101 H119 1_555 1_555
C102 N5 1_555 1_555
H120 C102 1_555 1_555
H121 C102 1_555 1_555
H122 C102 1_555 1_555
C103 N5 1_555 1_555
H123 C103 1_555 1_555
H124 C103 1_555 1_555
H125 C103 1_555 1_555
O16 C104 1_555 1_555
N6 C104 1_555 1_555
C104 H126 1_555 1_555
C105 N6 1_555 1_555
H127 C105 1_555 1_555
H128 C105 1_555 1_555
H129 C105 1_555 1_555
C106 N6 1_555 1_555
H130 C106 1_555 1_555
H131 C106 1_555 1_555
H132 C106 1_555 1_555
Co1_2 N2 1_555 1_555
Co1A O12 1_555 1_555
O12A Co1 1_555 1_555
N2_2 Co1 1_555 1_555
C3 C29 1_555 1_555
C5 C6 1_555 1_555
C12 C13 1_555 1_555
C19 C20 1_555 1_555
C26 C27 1_555 1_555
C26 C28 1_555 1_555
C43 C94 1_555 1_555
C46 C69 1_555 1_555
C52 C53 1_555 1_555
C59 C60 1_555 1_555
C66 C67 1_555 1_555
C68 C69 1_555 1_555
C85 C86 1_555 1_555
C92 C93 1_555 1_555

#END
