
#######################################################################
#
#                 Cambridge Crystallographic Data Centre
#                                CCDC 
#
#######################################################################
#
# If this CIF has been generated from an entry in the Cambridge 
# Structural Database, then it will include bibliographic, chemical, 
# crystal, experimental, refinement or atomic coordinate data resulting 
# from the CCDC's data processing and validation procedures.
#
#######################################################################

data_XIHZAQ
_symmetry_cell_setting           orthorhombic
_symmetry_space_group_name_H-M   'P b c a'
_symmetry_Int_Tables_number      61
_space_group_name_Hall           '-P 2ac 2ab'
loop_
_symmetry_equiv_pos_site_id
_symmetry_equiv_pos_as_xyz
1 x,y,z
2 1/2-x,-y,1/2+z
3 -x,1/2+y,1/2-z
4 1/2+x,1/2-y,-z
5 -x,-y,-z
6 1/2+x,y,1/2-z
7 x,1/2-y,1/2+z
8 1/2-x,1/2+y,z
_cell_length_a                   9.739(5)
_cell_length_b                   9.498(5)
_cell_length_c                   15.940(8)
_cell_angle_alpha                90
_cell_angle_beta                 90
_cell_angle_gamma                90
_cell_volume                     1474.47
loop_
_atom_site_label
_atom_site_type_symbol
_atom_site_fract_x
_atom_site_fract_y
_atom_site_fract_z
Fe1 Fe 0.70352(5) 0.09908(5) 0.44920(3)
P1 P 0.61719(9) -0.17009(10) 0.56977(5)
P2 P 0.61858(9) -0.32214(10) 0.83123(5)
O1 O 0.6518(3) -0.0212(3) 0.54297(15)
O2 O 0.7161(3) -0.2784(3) 0.53489(15)
O3 O 0.6290(3) -0.4707(3) 0.86330(15)
O4 O 0.7322(3) -0.2251(3) 0.85836(16)
O5 O 0.4694(2) -0.2103(3) 0.54565(14)
O6 O 0.8935(3) -0.0090(4) 0.4368(2)
O7 O 0.4771(3) -0.2547(4) 0.8569(2)
H1 H 0.461(5) -0.311(4) 0.886(3)
C1 C 0.6148(4) -0.3222(4) 0.7187(2)
C2 C 0.6312(4) -0.1754(4) 0.6820(2)
H2 H 0.540(4) -0.366(5) 0.701(3)
H3 H 0.569(4) -0.121(4) 0.699(2)
H4 H 0.720(4) -0.130(5) 0.697(2)
H5 H 0.913(6) -0.092(7) 0.442(3)
H6 H 0.953(6) 0.032(7) 0.415(4)
H7 H 0.693(4) -0.375(5) 0.703(3)
Fe1G Fe 0.79648(5) -0.40092(5) 0.44920(3)
Fe1F Fe 0.70352(5) -0.59908(5) 0.94920(3)
Fe1A Fe 0.79648(5) -0.09908(5) 0.94920(3)
Fe1D Fe 0.29648(5) -0.09908(5) 0.55080(3)
O2G O 0.7839(3) 0.2216(3) 0.53489(15)
O3F O 0.6290(3) -0.0293(3) 0.36330(15)
O4A O 0.7678(3) 0.2251(3) 0.35836(16)
O5D O 0.5306(2) 0.2103(3) 0.45435(14)
loop_
_geom_bond_atom_site_label_1
_geom_bond_atom_site_label_2
_geom_bond_site_symmetry_1
_geom_bond_site_symmetry_2
Fe1 O1 1_555 1_555
P1 O1 1_555 1_555
P2 O3 1_555 1_555
O2 P1 1_555 1_555
O3 Fe1F 1_555 1_555
O4 P2 1_555 1_555
O5 P1 1_555 1_555
O6 Fe1 1_555 1_555
O7 P2 1_555 1_555
H1 O7 1_555 1_555
C1 P2 1_555 1_555
C2 P1 1_555 1_555
H2 C1 1_555 1_555
H3 C2 1_555 1_555
H4 C2 1_555 1_555
H5 O6 1_555 1_555
H6 O6 1_555 1_555
H7 C1 1_555 1_555
Fe1G O2 1_555 1_555
Fe1A O4 1_555 1_555
Fe1D O5 1_555 1_555
O2G Fe1 1_555 1_555
O3F Fe1 1_555 1_555
O4A Fe1 1_555 1_555
O5D Fe1 1_555 1_555
C1 C2 1_555 1_555

#END
