
#######################################################################
#
#                 Cambridge Crystallographic Data Centre
#                                CCDC 
#
#######################################################################
#
# If this CIF has been generated from an entry in the Cambridge 
# Structural Database, then it will include bibliographic, chemical, 
# crystal, experimental, refinement or atomic coordinate data resulting 
# from the CCDC's data processing and validation procedures.
#
#######################################################################

data_XIJFAZ
_symmetry_cell_setting           monoclinic
_symmetry_space_group_name_H-M   'C c'
_symmetry_Int_Tables_number      9
_space_group_name_Hall           'C -2yc'
loop_
_symmetry_equiv_pos_site_id
_symmetry_equiv_pos_as_xyz
1 x,y,z
2 x,-y,1/2+z
3 1/2+x,1/2+y,z
4 1/2+x,1/2-y,1/2+z
_cell_length_a                   20.8323(12)
_cell_length_b                   13.9352(19)
_cell_length_c                   15.2755(13)
_cell_angle_alpha                90
_cell_angle_beta                 92.253(3)
_cell_angle_gamma                90
_cell_volume                     4431.08
loop_
_atom_site_label
_atom_site_type_symbol
_atom_site_fract_x
_atom_site_fract_y
_atom_site_fract_z
C1 C 0.1083(5) 0.7339(8) 0.8780(7)
C2 C 0.1528(4) 0.7127(8) 0.9558(6)
C3 C 0.1510(4) 0.7826(7) 1.0249(5)
H1 H 0.1212 0.8322 1.0201
C4 C 0.1914(5) 0.7788(7) 1.0975(7)
C5 C 0.1804(6) 0.8616(7) 1.1649(7)
C6 C 0.4547(4) 0.7010(7) 1.1903(7)
C7 C 0.4098(4) 0.6264(6) 1.1431(5)
C8 C 0.4431(5) 0.5413(7) 1.1250(7)
H2 H 0.4867 0.5350 1.1389
C9 C 0.4057(4) 0.4623(6) 1.0831(5)
C10 C 0.4379(4) 0.3647(7) 1.0724(6)
C11 C 0.0619(5) 0.5405(8) 1.1896(7)
C12 C 0.1225(4) 0.5204(7) 1.1355(6)
C13 C 0.1238(5) 0.4159(6) 1.1204(7)
H3 H 0.0909 0.3759 1.1376
C14 C 0.1806(4) 0.3787(6) 1.0763(5)
C15 C 0.1853(4) 0.2670(7) 1.0621(6)
C16 C 0.2734(5) 0.4229(6) 0.8730(5)
H4 H 0.2663 0.3775 0.9162
C17 C 0.2678(4) 0.3966(7) 0.7817(5)
H5 H 0.2577 0.3341 0.7648
C18 C 0.2938(5) 0.5561(7) 0.7449(5)
H6 H 0.3019 0.6009 0.7016
C19 C 0.2984(4) 0.5825(6) 0.8348(5)
C20 C 0.3123(4) 0.6754(6) 0.8626(5)
C21 C 0.3219(5) 0.7504(6) 0.8005(6)
H7 H 0.3181 0.7388 0.7406
C22 C 0.3377(5) 0.8455(7) 0.8340(6)
C23 C 0.3423(5) 0.8568(8) 0.9246(7)
C24 C 0.3343(4) 0.7804(7) 0.9822(7)
H8 H 0.3401 0.7890 1.0424
C25 C 0.3431(4) 0.9614(7) 0.9592(6)
H9 H 0.3389 0.9708 1.0223
C26 C 0.2951(5) 1.0193(8) 0.8947(7)
H10 H 0.2852 1.0838 0.9138
H11 H 0.2567 0.9844 0.8759
C27 C 0.3533(6) 1.0123(8) 0.8290(7)
H12 H 0.3548 1.0710 0.7938
C28 C 0.3521(5) 0.9278(7) 0.7702(7)
H13 H 0.3932 0.9186 0.7436
H14 H 0.3187 0.9336 0.7245
C29 C 0.3955(5) 1.0246(6) 0.9116(6)
C30 C 0.4463(5) 0.9604(8) 0.8893(7)
H15 H 0.4718 0.9896 0.8456
H16 H 0.4282 0.9016 0.8667
H17 H 0.4729 0.9470 0.9406
C31 C 0.4062(5) 1.1283(8) 0.9573(6)
H18 H 0.3694 1.1681 0.9445
H19 H 0.4437 1.1581 0.9350
H20 H 0.4117 1.1203 1.0196
Dy1 Dy 0.266553(19) 0.57776(2) 1.05637(2)
F1 F 0.1448(3) 0.7853(4) 0.8197(4)
F2 F 0.0909(3) 0.6555(4) 0.8357(4)
F3 F 0.0594(3) 0.7838(4) 0.8948(4)
F4 F 0.2349(3) 0.9104(4) 1.1740(4)
F5 F 0.1359(3) 0.9187(4) 1.1350(4)
F6 F 0.1728(3) 0.8205(4) 1.2412(4)
F7 F 0.4598(3) 0.7774(4) 1.1369(4)
F8 F 0.4315(3) 0.7211(5) 1.2654(4)
F9 F 0.5122(3) 0.6657(4) 1.1969(4)
F10 F 0.4351(3) 0.3381(4) 0.9931(4)
F11 F 0.4145(3) 0.2971(4) 1.1221(4)
F12 F 0.5019(3) 0.3755(4) 1.0979(4)
F13 F 0.0786(3) 0.5693(5) 1.2623(4)
F14 F 0.0352(3) 0.6194(4) 1.1519(4)
F15 F 0.0279(3) 0.4615(4) 1.1926(4)
F16 F 0.1985(3) 0.2610(4) 0.9792(3)
F17 F 0.2314(3) 0.2328(4) 1.1102(4)
F18 F 0.1297(3) 0.2252(4) 1.0753(4)
N1 N 0.2775(4) 0.4635(6) 0.7227(4)
N2 N 0.2885(4) 0.5113(5) 0.8945(4)
N3 N 0.3179(3) 0.6928(5) 0.9483(5)
O1 O 0.1723(3) 0.6442(5) 0.9601(4)
O2 O 0.2347(3) 0.7267(4) 1.1152(3)
O3 O 0.3537(3) 0.6468(5) 1.1257(4)
O4 O 0.3505(3) 0.4660(4) 1.0590(4)
O5 O 0.1593(3) 0.5723(4) 1.1291(4)
O6 O 0.2235(3) 0.4256(4) 1.0514(4)
Dy1A Dy 0.266553(19) 0.42224(2) 0.55637(2)
N1A N 0.2775(4) 0.5365(6) 1.2227(4)
O7 O 0.0843(7) 0.0574(10) 0.9113(11)
H21 H 0.0867 0.1182 0.9078
H22 H 0.0596 0.0363 0.8700
O8 O 0.4612(9) 0.5132(14) 0.8663(13)
H23 H 0.4962 0.4816 0.8664
H24 H 0.4570 0.5453 0.8191
O9 O 0.5244(13) 0.2486(16) 0.3874(16)
H25 H 0.5177 0.2755 0.4361
H26 H 0.4915 0.2554 0.3532
loop_
_geom_bond_atom_site_label_1
_geom_bond_atom_site_label_2
_geom_bond_site_symmetry_1
_geom_bond_site_symmetry_2
C1 C2 1_555 1_555
C2 C3 1_555 1_555
C3 H1 1_555 1_555
C4 C3 1_555 1_555
C5 C4 1_555 1_555
C6 C7 1_555 1_555
C7 C8 1_555 1_555
C8 H2 1_555 1_555
C9 C8 1_555 1_555
C10 C9 1_555 1_555
C11 C12 1_555 1_555
C12 C13 1_555 1_555
C13 H3 1_555 1_555
C14 C13 1_555 1_555
C15 C14 1_555 1_555
C16 H4 1_555 1_555
C17 C16 1_555 1_555
H5 C17 1_555 1_555
C18 H6 1_555 1_555
C19 C18 1_555 1_555
C20 C19 1_555 1_555
C21 C20 1_555 1_555
H7 C21 1_555 1_555
C22 C21 1_555 1_555
C23 C22 1_555 1_555
C24 C23 1_555 1_555
H8 C24 1_555 1_555
C25 C23 1_555 1_555
H9 C25 1_555 1_555
C26 C25 1_555 1_555
H10 C26 1_555 1_555
H11 C26 1_555 1_555
C27 C26 1_555 1_555
H12 C27 1_555 1_555
C28 C22 1_555 1_555
H13 C28 1_555 1_555
H14 C28 1_555 1_555
C29 C25 1_555 1_555
C30 C29 1_555 1_555
H15 C30 1_555 1_555
H16 C30 1_555 1_555
H17 C30 1_555 1_555
C31 C29 1_555 1_555
H18 C31 1_555 1_555
H19 C31 1_555 1_555
H20 C31 1_555 1_555
Dy1 N2 1_555 1_555
F1 C1 1_555 1_555
F2 C1 1_555 1_555
F3 C1 1_555 1_555
F4 C5 1_555 1_555
F5 C5 1_555 1_555
F6 C5 1_555 1_555
F7 C6 1_555 1_555
F8 C6 1_555 1_555
F9 C6 1_555 1_555
F10 C10 1_555 1_555
F11 C10 1_555 1_555
F12 C10 1_555 1_555
F13 C11 1_555 1_555
F14 C11 1_555 1_555
F15 C11 1_555 1_555
F16 C15 1_555 1_555
F17 C15 1_555 1_555
F18 C15 1_555 1_555
N1 C17 1_555 1_555
N2 C16 1_555 1_555
N3 C20 1_555 1_555
O1 C2 1_555 1_555
O2 C4 1_555 1_555
O3 C7 1_555 1_555
O4 C9 1_555 1_555
O5 C12 1_555 1_555
O6 C14 1_555 1_555
O7 H21 1_555 1_555
H22 O7 1_555 1_555
O8 H23 1_555 1_555
H24 O8 1_555 1_555
O9 H25 1_555 1_555
H26 O9 1_555 1_555
Dy1A N1 1_555 1_555
N1A Dy1 1_555 1_555
C18 N1 1_555 1_555
C19 N2 1_555 1_555
C24 N3 1_555 1_555
C27 C28 1_555 1_555
C27 C29 1_555 1_555
Dy1 N3 1_555 1_555
Dy1 O1 1_555 1_555
Dy1 O2 1_555 1_555
Dy1 O3 1_555 1_555
Dy1 O4 1_555 1_555
Dy1 O5 1_555 1_555
Dy1 O6 1_555 1_555

#END
