
#######################################################################
#
#                 Cambridge Crystallographic Data Centre
#                                CCDC 
#
#######################################################################
#
# If this CIF has been generated from an entry in the Cambridge 
# Structural Database, then it will include bibliographic, chemical, 
# crystal, experimental, refinement or atomic coordinate data resulting 
# from the CCDC's data processing and validation procedures.
#
#######################################################################

data_XIJNUA
_symmetry_cell_setting           hexagonal
_symmetry_space_group_name_H-M   'P 62 2 2'
_symmetry_Int_Tables_number      180
_space_group_name_Hall           "P 62 2' (0,0,4)"
loop_
_symmetry_equiv_pos_site_id
_symmetry_equiv_pos_as_xyz
1 x,y,z
2 -y,x-y,2/3+z
3 -x+y,-x,1/3+z
4 -x,-y,z
5 y,-x+y,2/3+z
6 x-y,x,1/3+z
7 y,x,2/3-z
8 x-y,-y,-z
9 -x,-x+y,1/3-z
10 -y,-x,2/3-z
11 -x+y,y,-z
12 x,x-y,1/3-z
_cell_length_a                   27.919(2)
_cell_length_b                   27.919(2)
_cell_length_c                   30.995(5)
_cell_angle_alpha                90
_cell_angle_beta                 90
_cell_angle_gamma                120
_cell_volume                     20922.9
loop_
_atom_site_label
_atom_site_type_symbol
_atom_site_fract_x
_atom_site_fract_y
_atom_site_fract_z
Cd1 Cd 1.0000 0.5000 0.1667
Cd2 Cd 0.8773(2) 0.5401(2) 0.16719(17)
Cd3 Cd 1.0029(2) 0.6090(2) 0.0755(2)
Cd4 Cd 0.8844(2) 0.4414(2) 0.06893(15)
Cd5 Cd 0.84704(19) 0.5614(2) 0.04554(17)
S1 S 0.7992(6) 0.5984(11) 0.0000
S2 S 0.9404(5) 0.5221(4) 0.1193(4)
S3 S 0.8221(6) 0.4572(7) 0.2116(7)
S4 S 1.0462(9) 0.5778(8) 0.0249(6)
S5 S 0.8124(9) 0.5575(10) 0.1197(7)
S6 S 0.9430(13) 0.6315(14) 0.0295(13)
S7 S 0.8252(10) 0.4711(9) 0.0234(6)
S8 S 0.9439(9) 0.6259(9) 0.2081(9)
C1 C 0.736(3) 0.430(3) 0.117(2)
C2 C 0.752(4) 0.491(2) 0.110(4)
C3 C 0.780(4) 0.475(5) 0.242(3)
C4 C 0.749(4) 0.508(4) 0.231(3)
C5 C 0.708(7) 0.521(8) 0.257(5)
C6 C 0.679(3) 0.381(3) 0.107(2)
C7 C 0.756(5) 0.449(5) 0.289(3)
S2C S 1.0596(5) 0.4779(4) 0.1193(4)
Cd2C Cd 1.1227(2) 0.4599(2) 0.16719(17)
Cd3C Cd 0.9971(2) 0.3910(2) 0.0755(2)
Cd4C Cd 1.1156(2) 0.5586(2) 0.06893(15)
S8H S 1.0561(9) 0.6820(13) 0.1252(9)
S3K S 0.8221(6) 0.3649(9) 0.1217(7)
C3K C 0.780(4) 0.305(6) 0.091(3)
C4K C 0.749(4) 0.241(6) 0.102(3)
C5K C 0.708(7) 0.187(11) 0.076(5)
C7K C 0.756(5) 0.307(7) 0.044(3)
S4C S 0.9538(9) 0.4222(8) 0.0249(6)
S5C S 1.1876(9) 0.4425(10) 0.1197(7)
C1C C 1.264(3) 0.570(3) 0.117(2)
C2C C 1.248(4) 0.509(2) 0.110(4)
C6C C 1.321(3) 0.619(3) 0.107(2)
S6C S 1.0570(13) 0.3685(14) 0.0295(13)
S7C S 1.1748(10) 0.5289(9) 0.0234(6)
Cd5C Cd 1.15296(19) 0.4386(2) 0.04554(17)
S2K S 0.9404(5) 0.4183(6) 0.2140(4)
S2H S 1.0596(5) 0.5817(6) 0.2140(4)
Cd5J Cd 0.71436(28) 0.5614(2) -0.04554(17)
Cd4K Cd 0.8844(2) 0.4430(3) 0.26440(15)
Cd3H Cd 0.9971(2) 0.6061(3) 0.2578(2)
S3C S 1.1779(6) 0.5428(7) 0.2116(7)
S8C S 1.0561(9) 0.3741(9) 0.2081(9)
S8K S 0.9439(9) 0.3180(13) 0.1252(9)
S3H S 1.1779(6) 0.6351(9) 0.1217(7)
Cd2H Cd 1.1227(2) 0.6628(3) 0.16614(17)
Cd2K Cd 0.8773(2) 0.3372(3) 0.16614(17)
S1C S 1.2008(6) 0.4016(11) 0.0000
loop_
_geom_bond_atom_site_label_1
_geom_bond_atom_site_label_2
_geom_bond_site_symmetry_1
_geom_bond_site_symmetry_2
Cd1 S2 1_555 1_555
Cd2 S2 1_555 1_555
Cd3 S2 1_555 1_555
Cd4 S2 1_555 1_555
Cd5 S1 1_555 1_555
S1 Cd5J 1_555 1_555
S3 Cd2 1_555 1_555
S4 Cd3 1_555 1_555
S5 Cd2 1_555 1_555
S6 Cd3 1_555 1_555
S7 Cd4 1_555 1_555
S8 Cd2 1_555 1_555
C1 C2 1_555 1_555
C2 S5 1_555 1_555
C3 S3 1_555 1_555
C4 C3 1_555 1_555
C5 C4 1_555 1_555
C6 C1 1_555 1_555
C7 C3 1_555 1_555
S2C Cd1 1_555 1_555
Cd2C S2C 1_555 1_555
Cd3C S2C 1_555 1_555
Cd4C S4 1_555 1_555
S8H Cd3 1_555 1_555
S3K Cd4 1_555 1_555
C3K S3K 1_555 1_555
C4K C3K 1_555 1_555
C5K C4K 1_555 1_555
C7K C3K 1_555 1_555
S4C Cd4 1_555 1_555
S5C Cd2C 1_555 1_555
C1C C2C 1_555 1_555
C2C S5C 1_555 1_555
C6C C1C 1_555 1_555
S6C Cd3C 1_555 1_555
S7C Cd4C 1_555 1_555
Cd5C S5C 1_555 1_555
S2K Cd1 1_555 1_555
S2H Cd1 1_555 1_555
Cd4K S3 1_555 1_555
Cd3H S8 1_555 1_555
S3C Cd2C 1_555 1_555
S8C Cd2C 1_555 1_555
S8K Cd3C 1_555 1_555
S3H Cd4C 1_555 1_555
Cd2H S8H 1_555 1_555
Cd2K S3K 1_555 1_555
S1C Cd5C 1_555 1_555
Cd5 S5 1_555 1_555
Cd5 S6 1_555 1_555
Cd5 S7 1_555 1_555
S2C Cd4C 1_555 1_555
Cd3C S4C 1_555 1_555
S6C Cd5C 1_555 1_555
S7C Cd5C 1_555 1_555
S2K Cd2K 1_555 1_555
S2K Cd4K 1_555 1_555
S2H Cd2H 1_555 1_555
S2H Cd3H 1_555 1_555
S8K Cd2K 1_555 1_555
S3H Cd2H 1_555 1_555

#END
