
#######################################################################
#
#                 Cambridge Crystallographic Data Centre
#                                CCDC 
#
#######################################################################
#
# If this CIF has been generated from an entry in the Cambridge 
# Structural Database, then it will include bibliographic, chemical, 
# crystal, experimental, refinement or atomic coordinate data resulting 
# from the CCDC's data processing and validation procedures.
#
#######################################################################

data_XIJNOU
_symmetry_cell_setting           monoclinic
_symmetry_space_group_name_H-M   'C 2/c'
_symmetry_Int_Tables_number      15
_space_group_name_Hall           '-C 2yn'
loop_
_symmetry_equiv_pos_site_id
_symmetry_equiv_pos_as_xyz
1 x,y,z
2 1/2+x,1/2+y,z
3 -x,y,1/2-z
4 1/2-x,1/2+y,1/2-z
5 -x,-y,-z
6 1/2-x,1/2-y,-z
7 x,-y,1/2+z
8 1/2+x,1/2-y,1/2+z
_cell_length_a                   62.8179(7)
_cell_length_b                   20.1911(2)
_cell_length_c                   41.4214(5)
_cell_angle_alpha                90
_cell_angle_beta                 127.7400(10)
_cell_angle_gamma                90
_cell_volume                     41546.3
loop_
_atom_site_label
_atom_site_type_symbol
_atom_site_fract_x
_atom_site_fract_y
_atom_site_fract_z
Cd1 Cd 0.11982(3) 1.23238(7) 0.67159(4)
Cd2 Cd 0.24415(3) 1.30668(7) 0.73264(4)
Cd3 Cd 0.20268(3) 0.99086(7) 0.69150(4)
Cd4 Cd 0.19721(3) 1.17184(7) 0.73234(4)
Cd5 Cd 0.16254(2) 1.30118(6) 0.63392(4)
Cd6 Cd 0.13817(2) 1.10526(6) 0.61682(4)
Cd7 Cd 0.14432(2) 1.20596(6) 0.53732(4)
Cd8 Cd 0.21235(2) 1.15796(6) 0.64806(3)
Cd9 Cd 0.06150(3) 1.32883(7) 0.69765(4)
Cd10 Cd 0.09130(2) 1.71027(7) 0.90971(4)
Cd11 Cd -0.01173(2) 1.38473(7) 0.66678(4)
Cd12 Cd -0.01254(2) 1.65701(7) 0.66696(4)
Cd13 Cd 0.05628(2) 1.67062(7) 0.78802(4)
Cd14 Cd 0.07073(2) 1.51891(6) 0.86876(4)
Cd15 Cd 0.05551(2) 1.36877(7) 0.78872(4)
Cd16 Cd 0.05173(2) 1.52103(6) 0.71961(4)
Cd17 Cd 0.0000 1.52089(8) 0.7500
S1 S 0.17779(8) 1.1834(2) 0.65819(12)
S2 S 0.2016(3) 1.0513(3) 0.7435(3)
S3 S 0.13065(12) 1.2238(3) 0.46662(16)
S4 S 0.28587(11) 1.3755(3) 0.77885(17)
S5 S 0.08031(12) 1.2563(3) 0.6705(2)
S6 S 0.16757(10) 1.2476(3) 0.73693(15)
S7 S 0.24539(9) 1.2136(2) 0.77486(14)
S8 S 0.11119(8) 1.1501(2) 0.54463(13)
S9 S 0.23584(9) 1.0512(3) 0.68560(14)
S10 S 0.24307(9) 1.2574(3) 0.67478(15)
S11 S 0.15671(9) 0.9906(2) 0.62205(15)
S12 S 0.15427(10) 1.3212(2) 0.56686(15)
S13 S 0.19939(9) 1.3666(2) 0.69608(14)
S14 S 0.11484(9) 1.1120(2) 0.64935(15)
S15 S 0.11606(9) 1.2995(2) 0.61586(15)
S16 S 0.18745(8) 1.1394(2) 0.57228(12)
S17 S 0.01739(12) 1.7334(3) 0.72734(17)
S18 S 0.01131(10) 1.3066(3) 0.64910(17)
S19 S 0.10473(10) 1.5896(3) 0.92988(13)
S20 S 0.02913(10) 1.3061(2) 0.80546(15)
S21 S 0.09065(9) 1.4506(2) 0.84245(13)
S22 S 0.04451(10) 1.4624(3) 0.88949(14)
S23 S 0.07272(8) 1.4486(2) 0.69580(13)
S24 S 0.07982(11) 1.2974(3) 0.76988(16)
S25 S 0.08462(9) 1.5957(2) 0.77897(13)
S26 S 0.03533(7) 1.5916(2) 0.80944(11)
S27 S 0.02380(7) 1.4487(2) 0.73129(11)
S28 S 0.08170(11) 1.7556(3) 0.84534(14)
S29 S 0.04653(10) 1.7218(3) 0.89648(16)
S30 S 0.01170(9) 1.5742(3) 0.65428(14)
C1 C 0.1784(5) 1.1493(9) 0.8323(7)
C2 C 0.1791(4) 1.1647(9) 0.8002(7)
C3 C 0.1676(3) 1.2233(10) 0.7786(5)
C4 C 0.1555(3) 1.2665(8) 0.7891(6)
C5 C 0.1549(4) 1.2511(11) 0.8212(7)
C6 C 0.1663(5) 1.1924(13) 0.8428(6)
C7 C 0.1965(9) 1.086(3) 0.8604(14)
C8 C 0.1053(3) 1.1116(12) 0.4265(6)
C9 C 0.1294(4) 1.1466(7) 0.4488(5)
C10 C 0.1523(3) 1.1186(10) 0.4567(5)
C11 C 0.1512(4) 1.0556(10) 0.4422(6)
C12 C 0.1271(5) 1.0206(7) 0.4199(6)
C13 C 0.1042(4) 1.0486(11) 0.4120(6)
C14 C 0.1799(9) 1.034(2) 0.4559(14)
C15 C 0.0729(5) 1.1778(9) 0.6782(8)
C16 C 0.0890(3) 1.1324(14) 0.7094(6)
C17 C 0.0780(7) 1.0734(12) 0.7103(8)
C18 C 0.0509(7) 1.0599(10) 0.6800(11)
C19 C 0.0348(4) 1.1052(16) 0.6488(8)
C20 C 0.0459(5) 1.1642(13) 0.6479(6)
C21 C 0.019(2) 1.068(5) 0.636(3)
C22 C 0.1166(4) 1.3586(10) 0.5319(6)
C23 C 0.2018(8) 1.0050(16) 0.7730(10)
C24 C 0.1851(6) 0.966(2) 0.7764(13)
C25 C 0.1961(11) 0.924(2) 0.8097(17)
C26 C 0.2238(12) 0.921(3) 0.8398(13)
C27 C 0.2405(7) 0.961(3) 0.8364(13)
C28 C 0.2295(8) 1.002(2) 0.8030(15)
C29 C 0.1830(16) 0.854(4) 0.806(2)
C30 C 0.1173(4) 0.8960(12) 0.5943(5)
C31 C 0.1001(4) 0.8560(10) 0.5961(7)
C32 C 0.1009(4) 0.8576(10) 0.6304(9)
C33 C 0.1190(5) 0.8991(12) 0.6629(7)
C34 C 0.1362(4) 0.9391(9) 0.6611(5)
C35 C 0.1354(3) 0.9375(9) 0.6268(6)
C36 C 0.0807(6) 0.8060(15) 0.5688(9)
C37 C 0.3073(3) 1.3179(8) 0.8531(6)
C38 C 0.3074(3) 1.3237(7) 0.8197(4)
C39 C 0.3244(4) 1.2841(9) 0.8172(5)
C40 C 0.3413(3) 1.2387(9) 0.8479(7)
C41 C 0.3412(3) 1.2330(8) 0.8813(5)
C42 C 0.3242(4) 1.2726(10) 0.8838(4)
C43 C 0.3230(8) 1.268(2) 0.9164(12)
C44 C 0.0868(3) 1.5096(6) 0.6082(4)
C45 C 0.1119(3) 1.4994(6) 0.6177(4)
C46 C 0.12123(19) 1.4354(7) 0.6212(4)
C47 C 0.1054(3) 1.3815(5) 0.6151(4)
C48 C 0.0802(2) 1.3916(6) 0.6056(4)
C49 C 0.0709(2) 1.4557(8) 0.6022(4)
C50 C 0.1297(5) 1.5570(15) 0.6248(8)
C51 C 0.2891(3) 1.1838(8) 0.7331(4)
C52 C 0.2738(2) 1.2117(7) 0.6943(5)
C53 C 0.2814(3) 1.2027(8) 0.6693(3)
C54 C 0.3042(3) 1.1659(8) 0.6831(5)
C55 C 0.3195(3) 1.1381(8) 0.7219(5)
C56 C 0.3119(3) 1.1470(8) 0.7469(4)
C57 C 0.3128(6) 1.1452(18) 0.6559(10)
C58 C 0.2104(3) 1.4961(10) 0.7069(4)
C59 C 0.2032(3) 1.4430(7) 0.6806(6)
C60 C 0.1956(4) 1.4539(10) 0.6417(5)
C61 C 0.1953(4) 1.5179(13) 0.6291(5)
C62 C 0.2025(4) 1.5710(8) 0.6553(8)
C63 C 0.2101(4) 1.5601(8) 0.6942(7)
C64 C 0.1750(10) 1.543(3) 0.5850(16)
C65 C 0.2074(2) 1.1808(7) 0.5615(4)
C66 C 0.2216(3) 1.1418(5) 0.5529(4)
C67 C 0.2379(3) 1.1714(8) 0.5449(4)
C68 C 0.2400(3) 1.2399(9) 0.5455(5)
C69 C 0.2259(3) 1.2790(5) 0.5541(5)
C70 C 0.2095(3) 1.2494(7) 0.5621(4)
C71 C 0.2509(7) 1.1291(18) 0.5309(10)
C72 C 0.2602(3) 1.0016(9) 0.6177(6)
C73 C 0.2593(3) 1.0245(7) 0.6485(4)
C74 C 0.2366(3) 1.0131(7) 0.6463(4)
C75 C 0.2148(2) 0.9787(8) 0.6134(5)
C76 C 0.2157(3) 0.9558(8) 0.5826(4)
C77 C 0.2384(4) 0.9672(9) 0.5847(5)
C78 C 0.1905(9) 0.928(3) 0.5443(15)
C79 C 0.2361(3) 1.3106(7) 0.8108(4)
C80 C 0.2460(3) 1.2474(7) 0.8138(4)
C81 C 0.2542(3) 1.2072(6) 0.8468(5)
C82 C 0.2525(4) 1.2302(9) 0.8768(4)
C83 C 0.2426(4) 1.2933(10) 0.8737(5)
C84 C 0.2344(3) 1.3335(7) 0.8407(6)
C85 C 0.2574(11) 1.183(3) 0.9107(17)
C86 C 0.1016(4) 1.0706(7) 0.5190(4)
C87 C 0.0779(3) 1.0434(10) 0.5090(6)
C88 C 0.0693(3) 0.9817(11) 0.4904(6)
C89 C 0.0844(5) 0.9470(8) 0.4818(6)
C90 C 0.1081(4) 0.9742(10) 0.4918(6)
C91 C 0.1167(3) 1.0359(10) 0.5104(5)
C92 C 0.0503(12) 0.941(3) 0.4949(18)
C93 C 0.0638(4) 1.1519(7) 0.5793(6)
C94 C 0.0800(2) 1.1016(10) 0.6065(4)
C95 C 0.0691(4) 1.0392(8) 0.6021(6)
C96 C 0.0420(4) 1.0273(9) 0.5706(7)
C97 C 0.0259(3) 1.0777(13) 0.5434(5)
C98 C 0.0368(4) 1.1400(10) 0.5478(5)
C99 C 0.0279(14) 0.982(4) 0.572(2)
C100 C 0.1258(2) 1.4481(7) 0.7240(3)
C101 C 0.10915(17) 1.4477(7) 0.7356(3)
C102 C 0.1203(3) 1.4486(7) 0.7767(4)
C103 C 0.1481(3) 1.4501(8) 0.8063(3)
C104 C 0.16475(18) 1.4505(8) 0.7947(4)
C105 C 0.1536(2) 1.4496(7) 0.7536(4)
C106 C 0.1704(5) 1.4444(13) 0.7403(7)
C107 C 0.1191(3) 1.4047(8) 0.8835(4)
C108 C 0.1258(3) 1.4058(8) 0.9223(6)
C109 C 0.1499(4) 1.3779(10) 0.9550(4)
C110 C 0.1673(3) 1.3490(10) 0.9489(6)
C111 C 0.1605(4) 1.3480(10) 0.9100(7)
C112 C 0.1364(4) 1.3758(9) 0.8773(5)
C113 C 0.1559(9) 1.373(2) 0.9973(14)
C114 C -0.0057(5) 1.623(2) 0.5949(8)
C115 C 0.0216(5) 1.6166(11) 0.6267(5)
C116 C 0.0404(4) 1.6294(16) 0.6203(6)
C117 C 0.0320(4) 1.6491(14) 0.5819(7)
C118 C 0.0047(4) 1.6559(10) 0.5500(5)
C119 C -0.0142(3) 1.643(2) 0.5565(7)
C120 C -0.0482(8) 1.653(2) 0.5079(12)
C121 C 0.0377(2) 1.1966(8) 0.8493(5)
C122 C 0.0496(3) 1.2458(6) 0.8418(4)
C123 C 0.0771(3) 1.2437(7) 0.8612(5)
C124 C 0.0926(2) 1.1924(9) 0.8880(4)
C125 C 0.0807(3) 1.1432(7) 0.8954(4)
C126 C 0.0532(4) 1.1453(7) 0.8761(5)
C127 C 0.1250(7) 1.1953(17) 0.9078(10)
C128 C 0.1375(4) 1.5814(10) 0.9061(5)
C129 C 0.1624(5) 1.5671(12) 0.9155(8)
C130 C 0.1845(3) 1.5548(12) 0.9557(9)
C131 C 0.1817(4) 1.5566(13) 0.9865(6)
C132 C 0.1569(5) 1.5709(12) 0.9771(6)
C133 C 0.1347(3) 1.5832(9) 0.9369(7)
C134 C 0.1680(10) 1.565(3) 0.8877(16)
C135 C 0.0674(4) 1.4208(12) 0.9315(6)
C136 C 0.0712(4) 1.3528(12) 0.9321(7)
C137 C 0.0884(6) 1.3200(10) 0.9692(11)
C138 C 0.1018(5) 1.3551(18) 1.0056(7)
C139 C 0.0980(5) 1.4231(18) 1.0049(6)
C140 C 0.0808(5) 1.4559(9) 0.9679(10)
C141 C 0.0902(9) 1.261(3) 0.9752(13)
C142 C 0.0393(4) 1.2066(11) 0.7442(5)
C143 C 0.0670(4) 1.2147(8) 0.7682(6)
C144 C 0.0840(3) 1.1617(13) 0.7906(5)
C145 C 0.0732(6) 1.1006(10) 0.7890(7)
C146 C 0.0454(6) 1.0925(9) 0.7651(8)
C147 C 0.0285(3) 1.1455(14) 0.7427(7)
C148 C 0.0913(14) 1.060(4) 0.815(2)
C149 C 0.0001(4) 1.3309(12) 0.5993(6)
C150 C 0.0037(4) 1.3950(11) 0.5912(7)
C151 C -0.0088(6) 1.4149(12) 0.5512(10)
C152 C -0.0250(6) 1.371(2) 0.5192(5)
C153 C -0.0286(5) 1.3066(18) 0.5273(8)
C154 C -0.0161(5) 1.2867(10) 0.5674(10)
C155 C 0.013(3) 1.479(9) 0.546(4)
C156 C 0.1105(4) 1.8465(11) 0.8404(6)
C157 C 0.1109(4) 1.7861(11) 0.8567(6)
C158 C 0.1349(5) 1.7518(8) 0.8827(6)
C159 C 0.1587(4) 1.7779(14) 0.8924(6)
C160 C 0.1583(5) 1.8384(15) 0.8760(9)
C161 C 0.1343(7) 1.8727(9) 0.8500(8)
C162 C 0.1875(8) 1.765(2) 0.9297(12)
C163 C 0.0278(11) 1.898(3) 0.8452(15)
C164 C 0.0263(10) 1.933(2) 0.873(2)
C165 C 0.0323(9) 1.901(3) 0.9073(16)
C166 C 0.0399(10) 1.835(4) 0.9145(13)
C167 C 0.0415(12) 1.800(2) 0.887(2)
C168 C 0.0354(11) 1.831(3) 0.8525(16)
C169 C 0.0266(8) 1.926(2) 0.8095(14)
C170 C 0.0279(8) 1.782(2) 0.6791(12)
C171 C 0.0337(6) 1.7935(17) 0.7169(13)
C172 C 0.0482(7) 1.850(2) 0.7392(8)
C173 C 0.0568(7) 1.8941(15) 0.7239(17)
C174 C 0.0510(10) 1.883(3) 0.6861(19)
C175 C 0.0365(11) 1.827(3) 0.6637(10)
C176 C 0.0376(10) 1.821(3) 0.6290(16)
C177 C 0.1090(4) 1.7110(9) 0.7796(4)
C178 C 0.1195(4) 1.7533(7) 0.7661(7)
C179 C 0.1190(4) 1.7350(9) 0.7333(7)
C180 C 0.1080(4) 1.6745(10) 0.7140(4)
C181 C 0.0975(3) 1.6322(7) 0.7276(4)
C182 C 0.0980(3) 1.6505(8) 0.7604(4)
C183 C 0.1067(7) 1.6510(18) 0.6767(10)
S27B S -0.02380(7) 1.4487(2) 0.76871(11)
Cd15B Cd -0.05551(2) 1.36877(7) 0.71128(4)
S20B S -0.02913(10) 1.3061(2) 0.69454(15)
C122B C -0.0496(3) 1.2458(6) 0.6582(4)
C121B C -0.0377(2) 1.1966(8) 0.6507(5)
C126B C -0.0532(4) 1.1453(7) 0.6239(5)
C125B C -0.0807(3) 1.1432(7) 0.6046(4)
C124B C -0.0926(2) 1.1924(9) 0.6120(4)
C123B C -0.0771(3) 1.2437(7) 0.6388(5)
C127B C -0.1250(7) 1.1953(17) 0.5922(10)
S21B S -0.09065(9) 1.4506(2) 0.65755(13)
Cd14B Cd -0.07073(2) 1.51891(6) 0.63124(4)
S19B S -0.10473(10) 1.5896(3) 0.57012(13)
C133B C -0.1347(3) 1.5832(9) 0.5631(7)
C128B C -0.1375(4) 1.5814(10) 0.5939(5)
C129B C -0.1624(5) 1.5671(12) 0.5845(8)
C130B C -0.1845(3) 1.5548(12) 0.5443(9)
C131B C -0.1817(4) 1.5566(13) 0.5135(6)
C132B C -0.1569(5) 1.5709(12) 0.5229(6)
C134B C -0.1680(10) 1.565(3) 0.6123(16)
S22B S -0.04451(10) 1.4624(3) 0.61051(14)
C135B C -0.0674(4) 1.4208(12) 0.5685(6)
C136B C -0.0712(4) 1.3528(12) 0.5679(7)
C137B C -0.0884(6) 1.3200(10) 0.5308(11)
C138B C -0.1018(5) 1.3551(18) 0.4944(7)
C139B C -0.0980(5) 1.4231(18) 0.4951(6)
C140B C -0.0808(5) 1.4559(9) 0.5321(10)
C141B C -0.0902(9) 1.261(3) 0.5248(13)
S26B S -0.03533(7) 1.5916(2) 0.69056(11)
Cd13B Cd -0.05628(2) 1.67062(7) 0.71198(4)
S17B S -0.01739(12) 1.7334(3) 0.77266(17)
C171B C -0.0337(6) 1.7935(17) 0.7831(13)
C170B C -0.0279(8) 1.782(2) 0.8209(12)
C175B C -0.0365(11) 1.827(3) 0.8363(10)
C174B C -0.0510(10) 1.883(3) 0.8139(19)
C173B C -0.0568(7) 1.8941(15) 0.7761(17)
C172B C -0.0482(7) 1.850(2) 0.7608(8)
C176B C -0.0376(10) 1.821(3) 0.8710(16)
S25B S -0.08462(9) 1.5957(2) 0.72103(13)
Cd16B Cd -0.05173(2) 1.52103(6) 0.78039(4)
S23B S -0.07272(8) 1.4486(2) 0.80420(13)
C101B C -0.10915(17) 1.4477(7) 0.7644(3)
C100B C -0.1258(2) 1.4481(7) 0.7760(3)
C105B C -0.1536(2) 1.4496(7) 0.7464(4)
C104B C -0.16475(18) 1.4505(8) 0.7053(4)
C103B C -0.1481(3) 1.4501(8) 0.6937(3)
C102B C -0.1203(3) 1.4486(7) 0.7233(4)
C106B C -0.1704(5) 1.4444(13) 0.7597(7)
S30B S -0.01170(9) 1.5742(3) 0.84572(14)
C115B C -0.0216(5) 1.6166(11) 0.8733(5)
C114B C 0.0057(5) 1.623(2) 0.9051(8)
C119B C 0.0142(3) 1.643(2) 0.9435(7)
C118B C -0.0047(4) 1.6559(10) 0.9500(5)
C117B C -0.0320(4) 1.6491(14) 0.9181(7)
C116B C -0.0404(4) 1.6294(16) 0.8797(6)
C120B C 0.0482(8) 1.653(2) 0.9921(12)
C182B C -0.0980(3) 1.6505(8) 0.7396(4)
C177B C -0.1090(4) 1.7110(9) 0.7204(4)
C178B C -0.1195(4) 1.7533(7) 0.7339(7)
C179B C -0.1190(4) 1.7350(9) 0.7667(7)
C180B C -0.1080(4) 1.6745(10) 0.7860(4)
C181B C -0.0975(3) 1.6322(7) 0.7724(4)
C183B C -0.1067(7) 1.6510(18) 0.8233(10)
S28B S -0.08170(11) 1.7556(3) 0.65466(14)
C157B C -0.1109(4) 1.7861(11) 0.6433(6)
C156B C -0.1105(4) 1.8465(11) 0.6596(6)
C161B C -0.1343(7) 1.8727(9) 0.6500(8)
C160B C -0.1583(5) 1.8384(15) 0.6240(9)
C159B C -0.1587(4) 1.7779(14) 0.6076(6)
C158B C -0.1349(5) 1.7518(8) 0.6173(6)
C162B C -0.1875(8) 1.765(2) 0.5703(12)
C107B C -0.1191(3) 1.4047(8) 0.6165(4)
C108B C -0.1258(3) 1.4058(8) 0.5777(6)
C109B C -0.1499(4) 1.3779(10) 0.5450(4)
C110B C -0.1673(3) 1.3490(10) 0.5511(6)
C111B C -0.1605(4) 1.3480(10) 0.5900(7)
C112B C -0.1364(4) 1.3758(9) 0.6227(5)
C113B C -0.1559(9) 1.373(2) 0.5027(14)
S24B S -0.07982(11) 1.2974(3) 0.73012(16)
C143B C -0.0670(4) 1.2147(8) 0.7318(6)
C142B C -0.0393(4) 1.2066(11) 0.7558(5)
C147B C -0.0285(3) 1.1455(14) 0.7573(7)
C146B C -0.0454(6) 1.0925(9) 0.7349(8)
C145B C -0.0732(6) 1.1006(10) 0.7110(7)
C144B C -0.0840(3) 1.1617(13) 0.7094(5)
C148B C -0.0913(14) 1.060(4) 0.685(2)
Cd9B Cd -0.06150(3) 1.32883(7) 0.80235(4)
Cd10B Cd -0.09130(2) 1.71027(7) 0.59029(4)
Cd11B Cd 0.01173(2) 1.38473(7) 0.83322(4)
Cd12B Cd 0.01254(2) 1.65701(7) 0.83304(4)
S4C S 0.21413(11) 0.8755(3) 0.72115(17)
C37C C 0.1927(3) 0.8179(8) 0.6469(6)
C38C C 0.1926(3) 0.8237(7) 0.6803(4)
C39C C 0.1756(4) 0.7841(9) 0.6828(5)
C40C C 0.1587(3) 0.7387(9) 0.6521(7)
C41C C 0.1588(3) 0.7330(8) 0.6187(5)
C42C C 0.1758(4) 0.7726(10) 0.6162(4)
C43C C 0.1770(8) 0.768(2) 0.5836(12)
S3F S 0.13065(12) 1.7762(3) 0.96662(16)
C8F C 0.1053(3) 1.8884(12) 0.9265(6)
C9F C 0.1294(4) 1.8534(7) 0.9488(5)
C10F C 0.1523(3) 1.8814(10) 0.9567(5)
C11F C 0.1512(4) 1.9444(10) 0.9422(6)
C12F C 0.1271(5) 1.9794(7) 0.9199(6)
C13F C 0.1042(4) 1.9514(11) 0.9120(6)
C14F C 0.1799(9) 1.966(2) 0.9559(14)
S29B S -0.04653(10) 1.7218(3) 0.60352(16)
C163B C -0.0278(11) 1.898(3) 0.6548(15)
C164B C -0.0263(10) 1.933(2) 0.627(2)
C165B C -0.0323(9) 1.901(3) 0.5927(16)
C166B C -0.0399(10) 1.835(4) 0.5855(13)
C167B C -0.0415(12) 1.800(2) 0.613(2)
C168B C -0.0354(11) 1.831(3) 0.6475(16)
C169B C -0.0266(8) 1.926(2) 0.6905(14)
S5B S -0.08031(12) 1.2563(3) 0.8295(2)
C15B C -0.0729(5) 1.1778(9) 0.8218(8)
C16B C -0.0890(3) 1.1324(14) 0.7906(6)
C17B C -0.0780(7) 1.0734(12) 0.7897(8)
C18B C -0.0509(7) 1.0599(10) 0.8200(11)
C19B C -0.0348(4) 1.1052(16) 0.8512(8)
C20B C -0.0459(5) 1.1642(13) 0.8521(6)
C21B C -0.019(2) 1.068(5) 0.864(3)
S18B S -0.01131(10) 1.3066(3) 0.85090(17)
C149B C -0.0001(4) 1.3309(12) 0.9007(6)
C150B C -0.0037(4) 1.3950(11) 0.9088(7)
C151B C 0.0088(6) 1.4149(12) 0.9488(10)
C152B C 0.0250(6) 1.371(2) 0.9808(5)
C153B C 0.0286(5) 1.3066(18) 0.9727(8)
C154B C 0.0161(5) 1.2867(10) 0.9326(10)
C155B C -0.013(3) 1.479(9) 0.954(4)
Cd1B Cd -0.11982(3) 1.23238(7) 0.82841(4)
Cd2C Cd 0.25585(3) 0.80668(7) 0.76736(4)
Cd3C Cd 0.29732(3) 1.49086(7) 0.80850(4)
Cd7F Cd 0.14432(2) 1.79404(6) 1.03732(4)
S6B S -0.16757(10) 1.2476(3) 0.76307(15)
C1B C -0.1784(5) 1.1493(9) 0.6677(7)
C2B C -0.1791(4) 1.1647(9) 0.6998(7)
C3B C -0.1676(3) 1.2233(10) 0.7214(5)
C4B C -0.1555(3) 1.2665(8) 0.7109(6)
C5B C -0.1549(4) 1.2511(11) 0.6788(7)
C6B C -0.1663(5) 1.1924(13) 0.6572(6)
C7B C -0.1965(9) 1.086(3) 0.6396(14)
S14B S -0.11484(9) 1.1120(2) 0.85065(15)
C93B C -0.0638(4) 1.1519(7) 0.9207(6)
C94B C -0.0800(2) 1.1016(10) 0.8935(4)
C95B C -0.0691(4) 1.0392(8) 0.8979(6)
C96B C -0.0420(4) 1.0273(9) 0.9294(7)
C97B C -0.0259(3) 1.0777(13) 0.9566(5)
C98B C -0.0368(4) 1.1400(10) 0.9522(5)
C99B C -0.0279(14) 0.982(4) 0.928(2)
S15B S -0.11606(9) 1.2995(2) 0.88414(15)
C44B C -0.0868(3) 1.5096(6) 0.8918(4)
C45B C -0.1119(3) 1.4994(6) 0.8823(4)
C46B C -0.12123(19) 1.4354(7) 0.8788(4)
C47B C -0.1054(3) 1.3815(5) 0.8849(4)
C48B C -0.0802(2) 1.3916(6) 0.8944(4)
C49B C -0.0709(2) 1.4557(8) 0.8978(4)
C50B C -0.1297(5) 1.5570(15) 0.8752(8)
S7C S 0.25461(9) 0.7136(2) 0.72514(14)
C79C C 0.2639(3) 0.8106(7) 0.6892(4)
C80C C 0.2540(3) 0.7474(7) 0.6862(4)
C81C C 0.2458(3) 0.7072(6) 0.6532(5)
C82C C 0.2475(4) 0.7302(9) 0.6232(4)
C83C C 0.2574(4) 0.7933(10) 0.6263(5)
C84C C 0.2656(3) 0.8335(7) 0.6593(6)
C85C C 0.2426(11) 0.683(3) 0.5893(17)
S10C S 0.25693(9) 0.7574(3) 0.82522(15)
C51C C 0.2109(3) 0.6838(8) 0.7669(4)
C52C C 0.2262(2) 0.7117(7) 0.8057(5)
C53C C 0.2186(3) 0.7027(8) 0.8307(3)
C54C C 0.1958(3) 0.6659(8) 0.8169(5)
C55C C 0.1805(3) 0.6381(8) 0.7781(5)
C56C C 0.1881(3) 0.6470(8) 0.7531(4)
C57C C 0.1872(6) 0.6452(18) 0.8441(10)
S13C S 0.30061(9) 0.8666(2) 0.80392(14)
C58C C 0.2896(3) 0.9961(10) 0.7931(4)
C59C C 0.2968(3) 0.9430(7) 0.8194(6)
C60C C 0.3044(4) 0.9539(10) 0.8583(5)
C61C C 0.3047(4) 1.0179(13) 0.8709(5)
C62C C 0.2975(4) 1.0710(8) 0.8447(8)
C63C C 0.2899(4) 1.0601(8) 0.8058(7)
C64C C 0.3250(10) 1.043(3) 0.9150(16)
S2C S 0.2984(3) 1.5513(3) 0.7565(3)
C23C C 0.2982(8) 1.5050(16) 0.7270(10)
C24C C 0.3149(6) 1.466(2) 0.7236(13)
C25C C 0.3039(11) 1.424(2) 0.6903(17)
C26C C 0.2762(12) 1.421(3) 0.6602(13)
C27C C 0.2595(7) 1.461(3) 0.6636(13)
C28C C 0.2705(8) 1.502(2) 0.6970(15)
C29C C 0.3170(16) 1.354(4) 0.694(2)
S9C S 0.26416(9) 1.5512(3) 0.81440(14)
C72C C 0.2398(3) 1.5016(9) 0.8823(6)
C73C C 0.2407(3) 1.5245(7) 0.8515(4)
C74C C 0.2634(3) 1.5131(7) 0.8537(4)
C75C C 0.2852(2) 1.4787(8) 0.8866(5)
C76C C 0.2843(3) 1.4558(8) 0.9174(4)
C77C C 0.2616(4) 1.4672(9) 0.9153(5)
C78C C 0.3095(9) 1.428(3) 0.9557(15)
S11C S 0.34329(9) 1.4906(2) 0.87795(15)
C30C C 0.3827(4) 1.3960(12) 0.9057(5)
C31C C 0.3999(4) 1.3560(10) 0.9039(7)
C32C C 0.3991(4) 1.3576(10) 0.8696(9)
C33C C 0.3810(5) 1.3991(12) 0.8371(7)
C34C C 0.3638(4) 1.4391(9) 0.8389(5)
C35C C 0.3646(3) 1.4375(9) 0.8732(6)
C36C C 0.4193(6) 1.3060(15) 0.9312(9)
S16F S 0.18745(8) 1.8606(2) 1.07228(12)
C65F C 0.2074(2) 1.8192(7) 1.0615(4)
C66F C 0.2216(3) 1.8582(5) 1.0529(4)
C67F C 0.2379(3) 1.8286(8) 1.0449(4)
C68F C 0.2400(3) 1.7601(9) 1.0455(5)
C69F C 0.2259(3) 1.7210(5) 1.0541(5)
C70F C 0.2095(3) 1.7506(7) 1.0621(4)
C71F C 0.2509(7) 1.8709(18) 1.0309(10)
S8F S 0.11119(8) 1.8499(2) 1.04463(13)
C86F C 0.1016(4) 1.9294(7) 1.0190(4)
C87F C 0.0779(3) 1.9566(10) 1.0090(6)
C88F C 0.0693(3) 2.0183(11) 0.9904(6)
C89F C 0.0844(5) 2.0530(8) 0.9818(6)
C90F C 0.1081(4) 2.0258(10) 0.9918(6)
C91F C 0.1167(3) 1.9641(10) 1.0104(5)
C92F C 0.0503(12) 2.059(3) 0.9949(18)
S12F S 0.15427(10) 1.6788(2) 1.06686(15)
C22F C 0.1166(4) 1.6414(10) 1.0319(6)
Cd4C Cd 0.30279(3) 1.67184(7) 0.76766(4)
Cd5F Cd 0.16254(2) 1.69882(6) 1.13392(4)
Cd6F Cd 0.13817(2) 1.89474(6) 1.11682(4)
Cd8C Cd 0.28765(2) 0.65796(6) 0.85194(3)
S1C S 0.32221(8) 1.6834(2) 0.84181(12)
Cd10F Cd 0.09130(2) 1.28973(7) 0.40971(4)
S3D S -0.13065(12) 1.7762(3) 0.53338(16)
Cd4B Cd -0.19721(3) 1.17184(7) 0.76766(4)
Cd6B Cd -0.13817(2) 1.10526(6) 0.88318(4)
Cd5B Cd -0.16254(2) 1.30118(6) 0.86608(4)
Cd4C_2 Cd 0.30279(3) 0.67184(7) 0.76766(4)
Cd5C Cd 0.33746(2) 0.80118(6) 0.86608(4)
Cd8C_2 Cd 0.28765(2) 1.65796(6) 0.85194(3)
Cd6C Cd 0.36183(2) 1.60526(6) 0.88318(4)
Cd8F Cd 0.21235(2) 1.84204(6) 1.14806(3)
S6C S 0.33243(10) 1.7476(3) 0.76307(15)
S7C_2 S 0.25461(9) 1.7136(2) 0.72514(14)
S1F S 0.17779(8) 1.8166(2) 1.15819(12)
S15F S 0.11606(9) 1.7005(2) 1.11586(15)
S13F S 0.19939(9) 1.6334(2) 1.19608(14)
S14F S 0.11484(9) 1.8880(2) 1.14935(15)
S11F S 0.15671(9) 2.0094(2) 1.12205(15)
S1C_2 S 0.32221(8) 0.6834(2) 0.84181(12)
S16C S 0.31255(8) 0.6394(2) 0.92772(12)
S9C_2 S 0.26416(9) 0.5512(3) 0.81440(14)
Cd5C_2 Cd 0.33746(2) 1.80118(6) 0.86608(4)
loop_
_geom_bond_atom_site_label_1
_geom_bond_atom_site_label_2
_geom_bond_site_symmetry_1
_geom_bond_site_symmetry_2
Cd1 S5 1_555 1_555
Cd2 S4 1_555 1_555
Cd3 S2 1_555 1_555
Cd4 S1 1_555 1_555
Cd5 S1 1_555 1_555
Cd6 S1 1_555 1_555
Cd7 S3 1_555 1_555
Cd8 S1 1_555 1_555
Cd9 S5 1_555 1_555
Cd10 S19 1_555 1_555
Cd11 S18 1_555 1_555
Cd12 S17 1_555 1_555
Cd13 S17 1_555 1_555
Cd14 S19 1_555 1_555
Cd15 S20 1_555 1_555
Cd16 S23 1_555 1_555
Cd17 S26 1_555 1_555
S2 Cd4 1_555 1_555
S3 C9 1_555 1_555
S4 C38 1_555 1_555
S5 C15 1_555 1_555
S6 Cd1 1_555 1_555
S7 Cd2 1_555 1_555
S8 Cd6 1_555 1_555
S9 Cd3 1_555 1_555
S10 Cd2 1_555 1_555
S11 Cd3 1_555 1_555
S12 Cd5 1_555 1_555
S13 Cd2 1_555 1_555
S14 Cd1 1_555 1_555
S15 Cd1 1_555 1_555
S16 Cd7 1_555 1_555
S17 C171 1_555 1_555
S18 Cd9 1_555 1_555
S19 C133 1_555 1_555
S20 C122 1_555 1_555
S21 Cd14 1_555 1_555
S22 Cd14 1_555 1_555
S23 Cd9 1_555 1_555
S24 Cd9 1_555 1_555
S25 Cd13 1_555 1_555
S26 Cd13 1_555 1_555
S27 Cd11 1_555 1_555
S28 Cd10 1_555 1_555
S29 Cd10 1_555 1_555
S30 Cd12 1_555 1_555
C1 C2 1_555 1_555
C2 C3 1_555 1_555
C3 S6 1_555 1_555
C4 C3 1_555 1_555
C5 C4 1_555 1_555
C6 C1 1_555 1_555
C7 C1 1_555 1_555
C8 C9 1_555 1_555
C9 C10 1_555 1_555
C10 C11 1_555 1_555
C11 C12 1_555 1_555
C12 C13 1_555 1_555
C13 C8 1_555 1_555
C14 C11 1_555 1_555
C15 C16 1_555 1_555
C16 C17 1_555 1_555
C17 C18 1_555 1_555
C18 C19 1_555 1_555
C19 C20 1_555 1_555
C20 C15 1_555 1_555
C21 C19 1_555 1_555
C22 S12 1_555 1_555
C23 S2 1_555 1_555
C24 C23 1_555 1_555
C25 C24 1_555 1_555
C26 C25 1_555 1_555
C27 C26 1_555 1_555
C28 C23 1_555 1_555
C29 C25 1_555 1_555
C30 C31 1_555 1_555
C31 C32 1_555 1_555
C32 C33 1_555 1_555
C33 C34 1_555 1_555
C34 C35 1_555 1_555
C35 S11 1_555 1_555
C36 C31 1_555 1_555
C37 C38 1_555 1_555
C38 C39 1_555 1_555
C39 C40 1_555 1_555
C40 C41 1_555 1_555
C41 C42 1_555 1_555
C42 C37 1_555 1_555
C43 C42 1_555 1_555
C44 C45 1_555 1_555
C45 C46 1_555 1_555
C46 C47 1_555 1_555
C47 S15 1_555 1_555
C48 C47 1_555 1_555
C49 C44 1_555 1_555
C50 C45 1_555 1_555
C51 C52 1_555 1_555
C52 S10 1_555 1_555
C53 C52 1_555 1_555
C54 C53 1_555 1_555
C55 C54 1_555 1_555
C56 C51 1_555 1_555
C57 C54 1_555 1_555
C58 C59 1_555 1_555
C59 S13 1_555 1_555
C60 C59 1_555 1_555
C61 C60 1_555 1_555
C62 C61 1_555 1_555
C63 C58 1_555 1_555
C64 C61 1_555 1_555
C65 S16 1_555 1_555
C66 C65 1_555 1_555
C67 C66 1_555 1_555
C68 C67 1_555 1_555
C69 C68 1_555 1_555
C70 C65 1_555 1_555
C71 C67 1_555 1_555
C72 C73 1_555 1_555
C73 C74 1_555 1_555
C74 S9 1_555 1_555
C75 C74 1_555 1_555
C76 C75 1_555 1_555
C77 C72 1_555 1_555
C78 C76 1_555 1_555
C79 C80 1_555 1_555
C80 S7 1_555 1_555
C81 C80 1_555 1_555
C82 C81 1_555 1_555
C83 C82 1_555 1_555
C84 C79 1_555 1_555
C85 C82 1_555 1_555
C86 S8 1_555 1_555
C87 C86 1_555 1_555
C88 C87 1_555 1_555
C89 C88 1_555 1_555
C90 C89 1_555 1_555
C91 C86 1_555 1_555
C92 C88 1_555 1_555
C93 C94 1_555 1_555
C94 S14 1_555 1_555
C95 C94 1_555 1_555
C96 C95 1_555 1_555
C97 C96 1_555 1_555
C98 C93 1_555 1_555
C99 C96 1_555 1_555
C100 C101 1_555 1_555
C101 S23 1_555 1_555
C102 C101 1_555 1_555
C103 C102 1_555 1_555
C104 C103 1_555 1_555
C105 C100 1_555 1_555
C106 C105 1_555 1_555
C107 S21 1_555 1_555
C108 C107 1_555 1_555
C109 C108 1_555 1_555
C110 C109 1_555 1_555
C111 C110 1_555 1_555
C112 C107 1_555 1_555
C113 C109 1_555 1_555
C114 C115 1_555 1_555
C115 S30 1_555 1_555
C116 C115 1_555 1_555
C117 C116 1_555 1_555
C118 C117 1_555 1_555
C119 C114 1_555 1_555
C120 C119 1_555 1_555
C121 C122 1_555 1_555
C122 C123 1_555 1_555
C123 C124 1_555 1_555
C124 C125 1_555 1_555
C125 C126 1_555 1_555
C126 C121 1_555 1_555
C127 C124 1_555 1_555
C128 C129 1_555 1_555
C129 C130 1_555 1_555
C130 C131 1_555 1_555
C131 C132 1_555 1_555
C132 C133 1_555 1_555
C133 C128 1_555 1_555
C134 C129 1_555 1_555
C135 S22 1_555 1_555
C136 C135 1_555 1_555
C137 C136 1_555 1_555
C138 C137 1_555 1_555
C139 C138 1_555 1_555
C140 C135 1_555 1_555
C141 C137 1_555 1_555
C142 C143 1_555 1_555
C143 S24 1_555 1_555
C144 C143 1_555 1_555
C145 C144 1_555 1_555
C146 C145 1_555 1_555
C147 C142 1_555 1_555
C148 C145 1_555 1_555
C149 S18 1_555 1_555
C150 C149 1_555 1_555
C151 C150 1_555 1_555
C152 C151 1_555 1_555
C153 C152 1_555 1_555
C154 C149 1_555 1_555
C155 C151 1_555 1_555
C156 C157 1_555 1_555
C157 S28 1_555 1_555
C158 C157 1_555 1_555
C159 C158 1_555 1_555
C160 C159 1_555 1_555
C161 C156 1_555 1_555
C162 C159 1_555 1_555
C163 C164 1_555 1_555
C164 C165 1_555 1_555
C165 C166 1_555 1_555
C166 C167 1_555 1_555
C167 S29 1_555 1_555
C168 C163 1_555 1_555
C169 C163 1_555 1_555
C170 C171 1_555 1_555
C171 C172 1_555 1_555
C172 C173 1_555 1_555
C173 C174 1_555 1_555
C174 C175 1_555 1_555
C175 C170 1_555 1_555
C176 C175 1_555 1_555
C177 C178 1_555 1_555
C178 C179 1_555 1_555
C179 C180 1_555 1_555
C180 C181 1_555 1_555
C181 C182 1_555 1_555
C182 S25 1_555 1_555
C183 C180 1_555 1_555
S27B Cd17 1_555 1_555
Cd15B S27B 1_555 1_555
S20B Cd11 1_555 1_555
C122B S20B 1_555 1_555
C121B C122B 1_555 1_555
C126B C121B 1_555 1_555
C125B C126B 1_555 1_555
C124B C125B 1_555 1_555
C123B C122B 1_555 1_555
C127B C124B 1_555 1_555
S21B Cd15B 1_555 1_555
Cd14B S21B 1_555 1_555
S19B Cd14B 1_555 1_555
C133B S19B 1_555 1_555
C128B C133B 1_555 1_555
C129B C128B 1_555 1_555
C130B C129B 1_555 1_555
C131B C130B 1_555 1_555
C132B C133B 1_555 1_555
C134B C129B 1_555 1_555
S22B Cd11 1_555 1_555
C135B S22B 1_555 1_555
C136B C135B 1_555 1_555
C137B C136B 1_555 1_555
C138B C137B 1_555 1_555
C139B C138B 1_555 1_555
C140B C135B 1_555 1_555
C141B C137B 1_555 1_555
S26B Cd12 1_555 1_555
Cd13B S26B 1_555 1_555
S17B Cd13B 1_555 1_555
C171B S17B 1_555 1_555
C170B C171B 1_555 1_555
C175B C170B 1_555 1_555
C174B C175B 1_555 1_555
C173B C174B 1_555 1_555
C172B C171B 1_555 1_555
C176B C175B 1_555 1_555
S25B Cd13B 1_555 1_555
Cd16B S27B 1_555 1_555
S23B Cd16B 1_555 1_555
C101B S23B 1_555 1_555
C100B C101B 1_555 1_555
C105B C100B 1_555 1_555
C104B C105B 1_555 1_555
C103B C104B 1_555 1_555
C102B C101B 1_555 1_555
C106B C105B 1_555 1_555
S30B Cd16B 1_555 1_555
C115B S30B 1_555 1_555
C114B C115B 1_555 1_555
C119B C114B 1_555 1_555
C118B C119B 1_555 1_555
C117B C118B 1_555 1_555
C116B C115B 1_555 1_555
C120B C119B 1_555 1_555
C182B S25B 1_555 1_555
C177B C182B 1_555 1_555
C178B C177B 1_555 1_555
C179B C178B 1_555 1_555
C180B C179B 1_555 1_555
C181B C182B 1_555 1_555
C183B C180B 1_555 1_555
S28B Cd13B 1_555 1_555
C157B S28B 1_555 1_555
C156B C157B 1_555 1_555
C161B C156B 1_555 1_555
C160B C161B 1_555 1_555
C159B C160B 1_555 1_555
C158B C157B 1_555 1_555
C162B C159B 1_555 1_555
C107B S21B 1_555 1_555
C108B C107B 1_555 1_555
C109B C108B 1_555 1_555
C110B C109B 1_555 1_555
C111B C110B 1_555 1_555
C112B C107B 1_555 1_555
C113B C109B 1_555 1_555
S24B Cd15B 1_555 1_555
C143B S24B 1_555 1_555
C142B C143B 1_555 1_555
C147B C142B 1_555 1_555
C146B C147B 1_555 1_555
C145B C146B 1_555 1_555
C144B C143B 1_555 1_555
C148B C145B 1_555 1_555
Cd9B S23B 1_555 1_555
Cd10B S19B 1_555 1_555
Cd11B S20 1_555 1_555
Cd12B S26 1_555 1_555
S4C Cd3 1_555 1_555
C37C C38C 1_555 1_555
C38C S4C 1_555 1_555
C39C C38C 1_555 1_555
C40C C39C 1_555 1_555
C41C C40C 1_555 1_555
C42C C37C 1_555 1_555
C43C C42C 1_555 1_555
S3F Cd10 1_555 1_555
C8F C9F 1_555 1_555
C9F S3F 1_555 1_555
C10F C9F 1_555 1_555
C11F C10F 1_555 1_555
C12F C11F 1_555 1_555
C13F C8F 1_555 1_555
C14F C11F 1_555 1_555
S29B Cd12 1_555 1_555
C163B C164B 1_555 1_555
C164B C165B 1_555 1_555
C165B C166B 1_555 1_555
C166B C167B 1_555 1_555
C167B S29B 1_555 1_555
C168B C163B 1_555 1_555
C169B C163B 1_555 1_555
S5B Cd9B 1_555 1_555
C15B S5B 1_555 1_555
C16B C15B 1_555 1_555
C17B C16B 1_555 1_555
C18B C17B 1_555 1_555
C19B C18B 1_555 1_555
C20B C15B 1_555 1_555
C21B C19B 1_555 1_555
S18B Cd9B 1_555 1_555
C149B S18B 1_555 1_555
C150B C149B 1_555 1_555
C151B C150B 1_555 1_555
C152B C151B 1_555 1_555
C153B C152B 1_555 1_555
C154B C149B 1_555 1_555
C155B C151B 1_555 1_555
Cd1B S5B 1_555 1_555
Cd2C S4C 1_555 1_555
Cd3C S4 1_555 1_555
Cd7F S3F 1_555 1_555
S6B Cd1B 1_555 1_555
C1B C2B 1_555 1_555
C2B C3B 1_555 1_555
C3B S6B 1_555 1_555
C4B C3B 1_555 1_555
C5B C4B 1_555 1_555
C6B C1B 1_555 1_555
C7B C1B 1_555 1_555
S14B Cd1B 1_555 1_555
C93B C94B 1_555 1_555
C94B S14B 1_555 1_555
C95B C94B 1_555 1_555
C96B C95B 1_555 1_555
C97B C96B 1_555 1_555
C98B C93B 1_555 1_555
C99B C96B 1_555 1_555
S15B Cd1B 1_555 1_555
C44B C45B 1_555 1_555
C45B C46B 1_555 1_555
C46B C47B 1_555 1_555
C47B S15B 1_555 1_555
C48B C47B 1_555 1_555
C49B C44B 1_555 1_555
C50B C45B 1_555 1_555
S7C Cd2C 1_555 1_555
C79C C80C 1_555 1_555
C80C S7C 1_555 1_555
C81C C80C 1_555 1_555
C82C C81C 1_555 1_555
C83C C82C 1_555 1_555
C84C C79C 1_555 1_555
C85C C82C 1_555 1_555
S10C Cd2C 1_555 1_555
C51C C52C 1_555 1_555
C52C S10C 1_555 1_555
C53C C52C 1_555 1_555
C54C C53C 1_555 1_555
C55C C54C 1_555 1_555
C56C C51C 1_555 1_555
C57C C54C 1_555 1_555
S13C Cd2C 1_555 1_555
C58C C59C 1_555 1_555
C59C S13C 1_555 1_555
C60C C59C 1_555 1_555
C61C C60C 1_555 1_555
C62C C61C 1_555 1_555
C63C C58C 1_555 1_555
C64C C61C 1_555 1_555
S2C Cd3C 1_555 1_555
C23C S2C 1_555 1_555
C24C C23C 1_555 1_555
C25C C24C 1_555 1_555
C26C C25C 1_555 1_555
C27C C26C 1_555 1_555
C28C C23C 1_555 1_555
C29C C25C 1_555 1_555
S9C Cd3C 1_555 1_555
C72C C73C 1_555 1_555
C73C C74C 1_555 1_555
C74C S9C 1_555 1_555
C75C C74C 1_555 1_555
C76C C75C 1_555 1_555
C77C C72C 1_555 1_555
C78C C76C 1_555 1_555
S11C Cd3C 1_555 1_555
C30C C31C 1_555 1_555
C31C C32C 1_555 1_555
C32C C33C 1_555 1_555
C33C C34C 1_555 1_555
C34C C35C 1_555 1_555
C35C S11C 1_555 1_555
C36C C31C 1_555 1_555
S16F Cd7F 1_555 1_555
C65F S16F 1_555 1_555
C66F C65F 1_555 1_555
C67F C66F 1_555 1_555
C68F C67F 1_555 1_555
C69F C68F 1_555 1_555
C70F C65F 1_555 1_555
C71F C67F 1_555 1_555
S8F Cd7F 1_555 1_555
C86F S8F 1_555 1_555
C87F C86F 1_555 1_555
C88F C87F 1_555 1_555
C89F C88F 1_555 1_555
C90F C89F 1_555 1_555
C91F C86F 1_555 1_555
C92F C88F 1_555 1_555
S12F Cd7F 1_555 1_555
C22F S12F 1_555 1_555
Cd4C S2C 1_555 1_555
Cd5F S12F 1_555 1_555
Cd6F S8F 1_555 1_555
Cd8C S10C 1_555 1_555
S1C Cd4C 1_555 1_555
Cd10F S3 1_555 1_555
S3D Cd10B 1_555 1_555
Cd4B S6B 1_555 1_555
Cd6B S14B 1_555 1_555
Cd5B S15B 1_555 1_555
Cd4C_2 S7C 1_555 1_555
Cd5C S13C 1_555 1_555
Cd8C_2 S9C 1_555 1_555
Cd6C S11C 1_555 1_555
Cd8F S16F 1_555 1_555
S6C Cd4C 1_555 1_555
S7C_2 Cd4C 1_555 1_555
S1F Cd5F 1_555 1_555
S15F Cd5F 1_555 1_555
S13F Cd5F 1_555 1_555
S14F Cd6F 1_555 1_555
S11F Cd6F 1_555 1_555
S1C_2 Cd8C 1_555 1_555
S16C Cd8C 1_555 1_555
S9C_2 Cd8C 1_555 1_555
Cd5C_2 S1C 1_555 1_555
Cd4 S6 1_555 1_555
Cd4 S7 1_555 1_555
Cd5 S15 1_555 1_555
Cd5 S13 1_555 1_555
Cd6 S14 1_555 1_555
Cd6 S11 1_555 1_555
Cd7 S8 1_555 1_555
Cd7 S12 1_555 1_555
Cd8 S10 1_555 1_555
Cd8 S16 1_555 1_555
Cd8 S9 1_555 1_555
Cd13 S28 1_555 1_555
Cd14 S26 1_555 1_555
Cd15 S27 1_555 1_555
Cd15 S21 1_555 1_555
Cd15 S24 1_555 1_555
Cd16 S25 1_555 1_555
Cd16 S27 1_555 1_555
Cd16 S30 1_555 1_555
Cd17 S26B 1_555 1_555
Cd17 S27 1_555 1_555
S22 Cd11B 1_555 1_555
S29 Cd12B 1_555 1_555
C5 C6 1_555 1_555
C27 C28 1_555 1_555
C30 C35 1_555 1_555
C48 C49 1_555 1_555
C55 C56 1_555 1_555
C62 C63 1_555 1_555
C69 C70 1_555 1_555
C76 C77 1_555 1_555
C83 C84 1_555 1_555
C90 C91 1_555 1_555
C97 C98 1_555 1_555
C104 C105 1_555 1_555
C111 C112 1_555 1_555
C118 C119 1_555 1_555
C139 C140 1_555 1_555
C146 C147 1_555 1_555
C153 C154 1_555 1_555
C160 C161 1_555 1_555
C167 C168 1_555 1_555
C177 C182 1_555 1_555
S27B Cd11B 1_555 1_555
Cd15B S20B 1_555 1_555
C124B C123B 1_555 1_555
Cd14B S22B 1_555 1_555
Cd14B S26B 1_555 1_555
C131B C132B 1_555 1_555
C139B C140B 1_555 1_555
S17B Cd12B 1_555 1_555
C173B C172B 1_555 1_555
S25B Cd16B 1_555 1_555
C103B C102B 1_555 1_555
S30B Cd12B 1_555 1_555
C117B C116B 1_555 1_555
C180B C181B 1_555 1_555
S28B Cd10B 1_555 1_555
C159B C158B 1_555 1_555
C111B C112B 1_555 1_555
S24B Cd9B 1_555 1_555
C145B C144B 1_555 1_555
Cd10B S29B 1_555 1_555
Cd11B S18B 1_555 1_555
C41C C42C 1_555 1_555
C12F C13F 1_555 1_555
C167B C168B 1_555 1_555
C19B C20B 1_555 1_555
C153B C154B 1_555 1_555
C5B C6B 1_555 1_555
C97B C98B 1_555 1_555
C48B C49B 1_555 1_555
C83C C84C 1_555 1_555
C55C C56C 1_555 1_555
C62C C63C 1_555 1_555
C27C C28C 1_555 1_555
C76C C77C 1_555 1_555
C30C C35C 1_555 1_555
C69F C70F 1_555 1_555
C90F C91F 1_555 1_555
Cd6F S1F 1_555 1_555
S1C Cd6C 1_555 1_555
S1C Cd8C_2 1_555 1_555
Cd4C_2 S1C_2 1_555 1_555
Cd5C S1C_2 1_555 1_555
Cd8F S1F 1_555 1_555

#END
