
#######################################################################
#
#                 Cambridge Crystallographic Data Centre
#                                CCDC 
#
#######################################################################
#
# If this CIF has been generated from an entry in the Cambridge 
# Structural Database, then it will include bibliographic, chemical, 
# crystal, experimental, refinement or atomic coordinate data resulting 
# from the CCDC's data processing and validation procedures.
#
#######################################################################

data_XIJPEM
_symmetry_cell_setting           hexagonal
_symmetry_space_group_name_H-M   'P 61 2 2'
_symmetry_Int_Tables_number      178
_space_group_name_Hall           "P 61 2' (0,0,5)"
loop_
_symmetry_equiv_pos_site_id
_symmetry_equiv_pos_as_xyz
1 x,y,z
2 -y,x-y,1/3+z
3 -x+y,-x,2/3+z
4 -x,-y,1/2+z
5 y,-x+y,5/6+z
6 x-y,x,1/6+z
7 y,x,1/3-z
8 x-y,-y,-z
9 -x,-x+y,2/3-z
10 -y,-x,5/6-z
11 -x+y,y,1/2-z
12 x,x-y,1/6-z
_cell_length_a                   34.1978(3)
_cell_length_b                   34.1978(3)
_cell_length_c                   45.9516(5)
_cell_angle_alpha                90
_cell_angle_beta                 90
_cell_angle_gamma                120
_cell_volume                     46540.1
loop_
_atom_site_label
_atom_site_type_symbol
_atom_site_fract_x
_atom_site_fract_y
_atom_site_fract_z
Cd1 Cd 0.567301(12) 0.512160(12) -0.050466(8)
Cd2 Cd 0.430850(12) 0.476233(12) -0.055396(8)
Cd3 Cd 0.707819(13) 0.895362(12) 0.116742(8)
Cd4 Cd 0.281207(12) 0.098674(12) 0.115420(8)
Cd5 Cd 0.608915(12) 0.846603(12) 0.052879(8)
Cd6 Cd 0.381739(12) 0.146304(12) 0.054220(8)
Cd7 Cd 0.408032(12) 0.267312(12) 0.029448(8)
Cd8 Cd 0.581559(13) 0.722400(13) 0.030631(8)
Cd9 Cd 0.523801(13) 0.597666(13) -0.028918(8)
Cd10 Cd 0.470096(13) 0.386984(13) -0.035871(8)
Cd11 Cd 0.738599(13) 0.799430(13) 0.131467(8)
Cd12 Cd 0.255315(12) 0.059920(12) 0.033292(8)
S1 S 0.33087(5) 0.16544(3) 0.0833
S2 S 0.66007(5) 0.83003(3) 0.0833
S3 S 0.44026(4) 0.55289(4) -0.04377(3)
S4 S 0.55570(4) 0.43369(4) -0.04189(3)
S5 S 0.54379(4) 0.76964(4) 0.03885(3)
S6 S 0.26526(4) 0.03223(4) 0.08303(3)
S7 S 0.77505(4) 0.88544(4) 0.12719(3)
S8 S 0.44820(4) 0.22356(4) 0.04291(3)
S9 S 0.72468(5) 0.96288(4) 0.08520(3)
S10 S 0.58794(5) 0.69489(4) 0.08165(3)
S11 S 0.63823(4) 0.56236(4) -0.07907(3)
S12 S 0.54601(4) 0.54254(4) -0.00682(3)
S13 S 0.50238(3) 0.49762(3) -0.0833
S14 S 0.21466(4) 0.11007(4) 0.12500(3)
S15 S 0.39519(4) 0.29786(4) 0.07713(3)
S16 S 0.33261(4) 0.10856(4) 0.01038(3)
S17 S 0.66190(4) 0.88806(5) 0.01124(3)
S18 S 0.33085(4) 0.21529(4) 0.00691(3)
S19 S 0.52043(5) 0.64888(5) 0.00934(3)
S20 S 0.43915(4) 0.43368(4) -0.01306(3)
S21 S 0.57228(4) 0.62909(4) -0.07435(3)
S22 S 0.65753(4) 0.77271(4) 0.00690(3)
S23 S 0.45975(5) 0.31694(5) -0.01030(4)
S24 S 0.79113(7) 0.79113(7) 0.1667
S25 S 0.20187(8) 0.0000 0.0000
C1 C 0.67940(18) 0.74009(18) -0.00851(11)
C2 C 0.8431(2) 0.8431(2) 0.1667
C3 C 0.5310(2) 0.7841(2) 0.00402(13)
C4 C 0.57985(17) 0.44206(18) -0.00639(12)
C5 C 0.51386(19) 0.32617(19) -0.00007(13)
C6 C 0.4802(2) 0.3430(2) 0.10227(13)
H1 H 0.4776 0.3149 0.1049
C7 C 0.6206(2) 0.4429(2) -0.00397(15)
H2 H 0.6333 0.4377 -0.0204
C8 C 0.6777(2) 0.54560(19) -0.06765(13)
C9 C 0.19840(19) 0.08470(18) 0.16002(12)
C10 C 0.5180(2) 0.3819(2) 0.11266(14)
H3 H 0.5406 0.3795 0.1223
C11 C 0.1503(2) 0.0000 0.0000
C12 C 0.5817(3) 0.4569(3) 0.04436(16)
H4 H 0.5684 0.4608 0.0609
C13 C 0.4908(3) 0.7851(3) 0.00169(17)
H5 H 0.4710 0.7763 0.0173
C14 C 0.35255(18) 0.07516(18) -0.00665(11)
C15 C 0.57342(19) 0.68024(17) -0.08368(12)
C16 C 0.46698(18) 0.21251(17) 0.00915(11)
C17 C 0.40768(18) 0.54186(19) -0.01123(12)
C18 C 0.44654(17) 0.34674(17) 0.08810(11)
C19 C 0.31171(18) 0.24751(18) -0.01227(11)
C20 C 0.5602(2) 0.4493(2) 0.01766(14)
H6 H 0.5330 0.4491 0.0160
C21 C 0.2269(2) 0.1033(2) 0.18470(12)
H7 H 0.2542 0.1303 0.1833
C22 C 0.21268(19) -0.01463(18) 0.09354(12)
C23 C 0.6430(3) 0.4514(3) 0.02268(18)
C24 C 0.20799(19) -0.0576(2) 0.09192(13)
H8 H 0.2316 -0.0607 0.0846
C25 C 0.5107(2) 0.2180(2) 0.00846(13)
H9 H 0.5290 0.2283 0.0249
C26 C 0.64210(18) 0.92151(18) -0.00608(11)
C27 C 0.1733(3) 0.0406(3) 0.21319(17)
H10 H 0.1653 0.0255 0.2309
C28 C 0.59438(18) 0.57155(18) 0.01600(12)
C29 C 0.1441(2) 0.0223(2) 0.18970(16)
C30 C 0.3859(2) 0.5103(2) 0.03720(15)
C31 C 0.3515(3) 0.5205(2) 0.03694(17)
H11 H 0.3324 0.5131 0.0529
C32 C 0.4777(2) 0.6606(2) -0.00300(13)
C33 C 0.4397(2) 0.19718(19) -0.01525(12)
H12 H 0.4112 0.1944 -0.0149
C34 C 0.1575(2) 0.0449(2) 0.16272(13)
H13 H 0.1388 0.0330 0.1466
C35 C 0.4144(2) 0.5217(2) 0.01323(13)
H14 H 0.4382 0.5159 0.0135
C36 C 0.4804(3) 0.7994(3) -0.0245(2)
C37 C 0.6715(2) 0.5026(2) -0.07175(13)
H15 H 0.6454 0.4809 -0.0810
C38 C 0.53045(19) 0.65463(19) 0.09125(12)
C39 C 0.2133(2) 0.0803(2) 0.21098(16)
H16 H 0.2317 0.0920 0.2273
C40 C 0.2682(2) 0.24097(19) -0.00784(13)
H17 H 0.2493 0.2199 0.0058
C41 C 0.5265(2) 0.2081(2) -0.01675(15)
H18 H 0.5556 0.2125 -0.0176
C42 C 0.6121(2) 0.7211(2) -0.07653(13)
H19 H 0.6355 0.7207 -0.0664
C43 C 0.4515(2) 0.3890(2) 0.08386(14)
H20 H 0.4292 0.3918 0.0740
C44 C 0.3086(2) 0.3868(2) 0.01144(14)
C45 C 0.4520(2) 0.6321(2) 0.09864(15)
C46 C 0.1773(2) -0.0102(2) 0.10380(14)
H21 H 0.1795 0.0180 0.1043
C47 C 0.38406(18) 0.39985(18) 0.00183(12)
C48 C 0.5217(2) 0.6117(2) 0.09968(15)
H22 H 0.5444 0.6043 0.0996
C49 C 0.4960(2) 0.6642(2) 0.09061(13)
H23 H 0.5020 0.6926 0.0847
C50 C 0.3255(2) 0.0430(2) -0.02772(13)
H24 H 0.2967 0.0382 -0.0317
C51 C 0.3501(2) 0.4101(2) -0.00299(13)
H25 H 0.3550 0.4329 -0.0160
C52 C 0.8194(2) 0.9345(2) 0.22015(15)
H26 H 0.8297 0.9442 0.2390
C53 C 0.1343(2) -0.0904(2) 0.11226(15)
H27 H 0.1083 -0.1154 0.1191
C54 C 0.4980(2) 0.1916(2) -0.04053(16)
H28 H 0.5082 0.1839 -0.0572
C55 C 0.8439(2) 0.9609(2) 0.19704(15)
C56 C 0.79009(19) 0.90408(18) 0.16397(12)
C57 C 0.7648(2) 0.8786(2) 0.18804(13)
H29 H 0.7380 0.8516 0.1851
C58 C 0.4546(2) 0.1859(2) -0.04042(15)
C59 C 0.5221(2) 0.4236(3) 0.10885(16)
H30 H 0.5472 0.4491 0.1162
C60 C 0.1377(2) -0.0487(2) 0.11345(16)
H31 H 0.1139 -0.0459 0.1207
C61 C 0.3731(2) 0.5518(2) -0.01139(15)
H32 H 0.3683 0.5651 -0.0276
C62 C 0.8292(2) 0.9450(2) 0.16857(14)
H33 H 0.8460 0.9621 0.1527
C63 C 0.8868(3) 1.0054(3) 0.20088(19)
H34 H 0.8927 1.0119 0.2213
H35 H 0.8836 1.0289 0.1917
H36 H 0.9114 1.0039 0.1921
C64 C 0.4125(2) 0.0596(2) -0.01759(14)
C65 C 0.3852(2) 0.0273(2) -0.03780(15)
H37 H 0.3960 0.0114 -0.0482
C66 C 0.5827(2) 0.9381(2) -0.01682(15)
C67 C 0.6560(2) 0.9823(2) -0.03868(15)
H38 H 0.6756 1.0062 -0.0504
C68 C 0.6120(2) 0.9728(2) -0.03490(15)
H39 H 0.6020 0.9900 -0.0446
C69 C 0.5947(2) 0.6007(2) 0.03750(14)
H40 H 0.5705 0.6058 0.0393
C70 C 0.8155(2) 1.0035(2) 0.10042(15)
H41 H 0.8162 0.9803 0.0903
C71 C 0.1686(2) -0.0958(2) 0.10111(15)
C72 C 0.3453(3) 0.5416(2) 0.01316(16)
H42 H 0.3226 0.5491 0.0134
C73 C 0.7201(2) 0.7621(2) -0.02294(15)
H43 H 0.7363 0.7935 -0.0228
C74 C 0.8522(3) 1.0700(3) 0.13001(17)
H44 H 0.8782 1.0921 0.1391
C75 C 0.5352(3) 0.9286(3) -0.0127(2)
H45 H 0.5304 0.9492 -0.0242
H46 H 0.5303 0.9322 0.0075
H47 H 0.5144 0.8981 -0.0187
C76 C 0.5981(2) 0.9125(2) -0.00236(14)
H48 H 0.5787 0.8892 0.0099
C77 C 0.7759(2) 1.0049(2) 0.10203(13)
C78 C 0.8541(3) 1.0368(3) 0.11404(16)
H49 H 0.8812 1.0368 0.1124
C79 C 0.39626(19) 0.08317(19) -0.00220(12)
H50 H 0.4148 0.1047 0.0113
C80 C 0.7418(3) 0.5238(3) -0.04746(17)
H51 H 0.7626 0.5164 -0.0403
C81 C 0.3390(2) 0.2779(2) -0.03353(14)
H52 H 0.3672 0.2813 -0.0375
C82 C 0.3347(2) 0.3408(2) 0.03456(14)
H53 H 0.3296 0.3174 0.0471
C83 C 0.5701(3) 0.3373(3) 0.03596(17)
C84 C 0.6161(2) 0.7620(2) -0.08425(15)
C85 C 0.5609(2) 0.7969(2) -0.01890(15)
H54 H 0.5872 0.7953 -0.0173
C86 C 0.5423(2) 0.7212(2) -0.10698(16)
H55 H 0.5188 0.7217 -0.1169
C87 C 0.5290(2) 0.3346(2) 0.02851(15)
H56 H 0.5119 0.3386 0.0427
C88 C 0.3013(2) 0.3518(2) 0.03057(16)
H57 H 0.2740 0.3361 0.0405
C89 C 0.6312(2) 0.6219(2) 0.05593(16)
H58 H 0.6321 0.6420 0.0699
C90 C 0.0996(3) -0.0208(3) 0.1917(2)
H59 H 0.0951 -0.0321 0.2113
H60 H 0.0995 -0.0427 0.1787
H61 H 0.0757 -0.0151 0.1865
C91 C 0.5380(2) 0.6805(2) -0.09909(14)
H62 H 0.5121 0.6535 -0.1038
C92 C 0.63051(19) 0.5640(2) 0.01377(13)
H63 H 0.6304 0.5449 -0.0007
C93 C 0.3412(2) 0.0189(2) -0.04238(15)
H64 H 0.3225 -0.0032 -0.0555
C94 C 0.7035(2) 0.4912(2) -0.06240(15)
C95 C 0.5810(3) 0.7615(3) -0.10047(16)
H65 H 0.5838 0.7886 -0.1069
C96 C 0.7377(3) 0.7390(3) -0.03770(17)
C97 C 0.6718(2) 0.6694(2) -0.02451(14)
H66 H 0.6548 0.6381 -0.0256
C98 C 0.4738(3) 0.6709(3) -0.03087(17)
H67 H 0.4949 0.6738 -0.0447
C99 C 0.7794(2) 0.8931(2) 0.21602(15)
H68 H 0.7630 0.8758 0.2319
C100 C 0.2809(3) 0.2964(3) -0.04383(17)
H69 H 0.2707 0.3127 -0.0544
C101 C 0.4897(3) 0.4278(3) 0.09435(16)
C102 C 0.8638(2) 0.8625(2) 0.14048(15)
H70 H 0.8511 0.8486 0.1228
C103 C 0.7738(2) 1.0377(2) 0.11858(14)
H71 H 0.7467 1.0377 0.1203
C104 C 0.5514(3) 0.8123(3) -0.0446(2)
H72 H 0.5717 0.8223 -0.0600
C105 C 0.8126(3) 1.0710(3) 0.13284(16)
C106 C 0.6708(2) 0.9557(2) -0.02491(14)
H73 H 0.6998 0.9608 -0.0283
C107 C 0.4598(3) 0.0687(3) -0.01201(17)
H74 H 0.4739 0.0918 0.0025
H75 H 0.4770 0.0785 -0.0297
H76 H 0.4587 0.0416 -0.0053
C108 C 0.9042(3) 0.9035(3) 0.14145(18)
C109 C 0.7129(2) 0.6917(2) -0.03798(15)
H77 H 0.7244 0.6755 -0.0473
C110 C 0.6673(2) 0.5849(2) 0.03299(15)
C111 C 0.7058(3) 0.5753(3) 0.03109(19)
H78 H 0.7277 0.5922 0.0459
H79 H 0.7197 0.5841 0.0123
H80 H 0.6945 0.5437 0.0340
C112 C 0.3909(3) 0.4842(3) 0.06194(18)
H81 H 0.4164 0.4804 0.0584
H82 H 0.3641 0.4551 0.0633
H83 H 0.3952 0.5004 0.0798
C113 C 0.7164(2) 0.5776(2) -0.05329(15)
H84 H 0.7210 0.6065 -0.0502
C114 C 0.3242(2) 0.3034(2) -0.04880(16)
H85 H 0.3430 0.3248 -0.0622
C115 C 0.6666(3) 0.6135(2) 0.05392(16)
H86 H 0.6905 0.6274 0.0670
C116 C 0.7488(3) 0.5663(3) -0.04331(19)
H87 H 0.7748 0.5879 -0.0340
C117 C 0.6547(2) 0.6930(2) -0.00905(14)
H88 H 0.6273 0.6774 0.0007
C118 C 0.2725(3) 0.4000(3) 0.0062(2)
H89 H 0.2837 0.4246 -0.0074
H90 H 0.2653 0.4091 0.0242
H91 H 0.2458 0.3746 -0.0016
C119 C 0.4370(3) 0.6776(3) -0.0389(2)
C120 C 0.2068(3) 0.2587(3) -0.01746(19)
H92 H 0.2015 0.2782 -0.0298
H93 H 0.2049 0.2658 0.0026
H94 H 0.1845 0.2278 -0.0212
C121 C 0.2531(2) 0.2656(2) -0.02340(15)
C122 C 0.6585(3) 0.8062(3) -0.07628(19)
H95 H 0.6785 0.7998 -0.0652
H96 H 0.6503 0.8245 -0.0649
H97 H 0.6734 0.8221 -0.0937
C123 C 0.4440(3) 0.5902(3) 0.10750(17)
H98 H 0.4150 0.5684 0.1131
C124 C 0.4232(3) 0.1656(3) -0.06607(18)
H99 H 0.3951 0.1646 -0.0620
H100 H 0.4176 0.1355 -0.0695
H101 H 0.4368 0.1838 -0.0830
C125 C 0.5412(2) 0.3226(2) -0.02094(16)
H102 H 0.5316 0.3172 -0.0402
C126 C 0.3756(2) 0.3642(2) 0.02012(14)
H103 H 0.3975 0.3560 0.0227
C127 C 0.1647(3) -0.1428(3) 0.09866(19)
H104 H 0.1359 -0.1654 0.1060
H105 H 0.1883 -0.1430 0.1098
H106 H 0.1675 -0.1490 0.0786
C128 C 0.4781(3) 0.5803(3) 0.10819(19)
H107 H 0.4719 0.5519 0.1145
C129 C 0.6963(3) 0.4444(3) -0.06744(18)
H108 H 0.6686 0.4267 -0.0780
H109 H 0.6946 0.4303 -0.0491
H110 H 0.7210 0.4464 -0.0785
C130 C 0.1335(3) 0.0057(3) -0.02610(18)
H111 H 0.1490 0.0098 -0.0435
C131 C 0.4457(3) 0.6566(3) 0.01755(18)
H112 H 0.4480 0.6491 0.0367
C132 C 0.5821(3) 0.3268(3) -0.01380(18)
H113 H 0.6002 0.3246 -0.0281
C133 C 0.9231(4) 0.9231(4) 0.1667
H114 H 0.9503 0.9503 0.1667
C134 C 0.4144(3) 0.6426(3) 0.09714(19)
H115 H 0.3867 0.6166 0.1033
H116 H 0.4112 0.6501 0.0775
H117 H 0.4211 0.6676 0.1097
C135 C 0.5956(3) 0.3340(3) 0.01441(19)
H118 H 0.6233 0.3369 0.0192
C136 C 0.4077(3) 0.6735(3) -0.0184(2)
H119 H 0.3839 0.6777 -0.0239
C137 C 0.5105(3) 0.8124(3) -0.0467(2)
H120 H 0.5038 0.8218 -0.0640
C138 C 0.8102(4) 1.1068(3) 0.1508(2)
H121 H 0.8394 1.1268 0.1590
H122 H 0.7887 1.0928 0.1662
H123 H 0.8012 1.1238 0.1386
C139 C 0.6876(3) 0.4532(4) 0.0255(2)
H124 H 0.6977 0.4595 0.0453
H125 H 0.7094 0.4766 0.0131
H126 H 0.6843 0.4247 0.0198
C140 C 0.4102(3) 0.6638(3) 0.0097(2)
H127 H 0.3892 0.6620 0.0234
C141 C 0.4939(3) 0.4734(3) 0.0892(2)
H128 H 0.5215 0.4966 0.0977
H129 H 0.4688 0.4741 0.0981
H130 H 0.4940 0.4786 0.0687
C142 C 0.0720(5) 0.0000 0.0000
H131 H 0.0448 0.0000 0.0000
C143 C 0.4374(4) 0.8004(4) -0.0271(3)
H132 H 0.4355 0.8109 -0.0461
H133 H 0.4369 0.8205 -0.0127
H134 H 0.4123 0.7706 -0.0241
C144 C 0.7829(4) 0.7639(4) -0.0539(2)
H135 H 0.7955 0.7959 -0.0516
H136 H 0.7780 0.7564 -0.0743
H137 H 0.8033 0.7551 -0.0462
C145 C 0.0912(4) 0.0049(4) -0.0252(2)
C146 C 0.5849(4) 0.3434(4) 0.0670(2)
H138 H 0.6134 0.3445 0.0683
H139 H 0.5628 0.3185 0.0783
H140 H 0.5879 0.3711 0.0743
C147 C 0.6227(3) 0.4587(3) 0.0463(2)
H141 H 0.6372 0.4650 0.0643
C148 C 0.4301(5) 0.6854(5) -0.0695(3)
H142 H 0.4041 0.6890 -0.0709
H143 H 0.4255 0.6601 -0.0811
H144 H 0.4562 0.7122 -0.0764
C149 C 0.9216(8) 0.9246(8) 0.1109(5)
H145 H 0.9494 0.9527 0.1129
H146 H 0.8995 0.9298 0.1016
H147 H 0.9266 0.9042 0.0992
C150 C 0.0808(9) 0.0101(9) -0.0651(5)
H148 H 0.0528 0.0101 -0.0673
H149 H 0.0791 -0.0149 -0.0756
H150 H 0.1050 0.0379 -0.0727
Cd1I Cd 0.487840(12) 0.432699(12) -0.116201(8)
Cd2I Cd 0.523767(12) 0.569150(12) -0.111271(8)
Cd3K Cd 0.707819(13) 0.812457(18) 0.049925(8)
Cd4K Cd 0.281207(12) 0.182533(17) 0.051247(8)
Cd5K Cd 0.608915(12) 0.762312(17) 0.113788(8)
Cd6K Cd 0.381739(12) 0.235435(17) 0.112447(8)
Cd10I Cd 0.613016(13) 0.529904(13) -0.130796(8)
Cd11K Cd 0.738599(13) 0.939169(18) 0.035200(8)
Cd11F Cd 0.799430(13) 0.738599(13) 0.201866(8)
Cd12K Cd 0.255315(12) 0.195395(17) 0.133375(8)
Cd12G Cd 0.195395(17) -0.059920(12) -0.033292(8)
S9K S 0.72468(5) 0.76180(6) 0.08147(3)
S10K S 0.58794(5) 0.89305(6) 0.08502(3)
S11I S 0.43764(4) 0.36177(4) -0.08760(3)
S14K S 0.21466(4) 0.10459(6) 0.04167(3)
S15K S 0.39519(4) 0.09733(6) 0.08954(3)
S17K S 0.66190(4) 0.77384(6) 0.15543(3)
S18K S 0.33085(4) 0.11556(6) 0.15976(3)
S21I S 0.37091(4) 0.42772(4) -0.09232(3)
S22K S 0.65753(4) 0.88482(6) 0.15977(3)
C102F C 0.8625(2) 0.8638(2) 0.19285(15)
C108F C 0.9035(3) 0.9042(3) 0.19188(18)
C130G C 0.1278(4) -0.0057(3) 0.02610(18)
C145G C 0.0863(6) -0.0049(4) 0.0252(2)
loop_
_geom_bond_atom_site_label_1
_geom_bond_atom_site_label_2
_geom_bond_site_symmetry_1
_geom_bond_site_symmetry_2
Cd1 S4 1_555 1_555
Cd2 S3 1_555 1_555
Cd3 S2 1_555 1_555
Cd4 S1 1_555 1_555
Cd5 S2 1_555 1_555
Cd6 S1 1_555 1_555
Cd7 S8 1_555 1_555
Cd8 S5 1_555 1_555
Cd9 S3 1_555 1_555
Cd10 S4 1_555 1_555
Cd11 S7 1_555 1_555
Cd12 S6 1_555 1_555
S1 Cd4K 1_555 1_555
S2 Cd3K 1_555 1_555
S3 C17 1_555 1_555
S4 C4 1_555 1_555
S5 Cd5 1_555 1_555
S6 Cd4 1_555 1_555
S7 Cd3 1_555 1_555
S8 Cd6 1_555 1_555
S9 Cd3 1_555 1_555
S10 Cd8 1_555 1_555
S11 Cd1 1_555 1_555
S12 Cd1 1_555 1_555
S13 Cd1 1_555 1_555
S14 Cd4 1_555 1_555
S15 Cd7 1_555 1_555
S16 Cd6 1_555 1_555
S17 Cd5 1_555 1_555
S18 Cd7 1_555 1_555
S19 Cd8 1_555 1_555
S20 Cd2 1_555 1_555
S21 Cd9 1_555 1_555
S22 Cd8 1_555 1_555
S23 Cd7 1_555 1_555
S24 Cd11 1_555 1_555
S25 Cd12 1_555 1_555
C1 S22 1_555 1_555
C2 S24 1_555 1_555
C3 S5 1_555 1_555
C4 C7 1_555 1_555
C5 S23 1_555 1_555
C6 H1 1_555 1_555
C7 H2 1_555 1_555
C8 S11 1_555 1_555
C9 S14 1_555 1_555
C10 C6 1_555 1_555
H3 C10 1_555 1_555
C11 S25 1_555 1_555
C12 H4 1_555 1_555
C13 C3 1_555 1_555
H5 C13 1_555 1_555
C14 S16 1_555 1_555
C15 S21 1_555 1_555
C16 S8 1_555 1_555
C17 C35 1_555 1_555
C18 S15 1_555 1_555
C19 S18 1_555 1_555
C20 C4 1_555 1_555
H6 C20 1_555 1_555
C21 C9 1_555 1_555
H7 C21 1_555 1_555
C22 S6 1_555 1_555
C23 C7 1_555 1_555
C24 C22 1_555 1_555
H8 C24 1_555 1_555
C25 C16 1_555 1_555
H9 C25 1_555 1_555
C26 S17 1_555 1_555
C27 H10 1_555 1_555
C28 S12 1_555 1_555
C29 C27 1_555 1_555
C30 C31 1_555 1_555
C31 H11 1_555 1_555
C32 S19 1_555 1_555
C33 C16 1_555 1_555
H12 C33 1_555 1_555
C34 C9 1_555 1_555
H13 C34 1_555 1_555
C35 C30 1_555 1_555
H14 C35 1_555 1_555
C36 C13 1_555 1_555
C37 C8 1_555 1_555
H15 C37 1_555 1_555
C38 S10 1_555 1_555
C39 C21 1_555 1_555
H16 C39 1_555 1_555
C40 C19 1_555 1_555
H17 C40 1_555 1_555
C41 C25 1_555 1_555
H18 C41 1_555 1_555
C42 C15 1_555 1_555
H19 C42 1_555 1_555
C43 C18 1_555 1_555
H20 C43 1_555 1_555
C44 C51 1_555 1_555
C45 C49 1_555 1_555
C46 C22 1_555 1_555
H21 C46 1_555 1_555
C47 S20 1_555 1_555
C48 C38 1_555 1_555
H22 C48 1_555 1_555
C49 C38 1_555 1_555
H23 C49 1_555 1_555
C50 C14 1_555 1_555
H24 C50 1_555 1_555
C51 C47 1_555 1_555
H25 C51 1_555 1_555
C52 H26 1_555 1_555
C53 H27 1_555 1_555
C54 C41 1_555 1_555
H28 C54 1_555 1_555
C55 C52 1_555 1_555
C56 S7 1_555 1_555
C57 C56 1_555 1_555
H29 C57 1_555 1_555
C58 C33 1_555 1_555
C59 C10 1_555 1_555
H30 C59 1_555 1_555
C60 C46 1_555 1_555
H31 C60 1_555 1_555
C61 C17 1_555 1_555
H32 C61 1_555 1_555
C62 C55 1_555 1_555
H33 C62 1_555 1_555
C63 C55 1_555 1_555
H34 C63 1_555 1_555
H35 C63 1_555 1_555
H36 C63 1_555 1_555
C64 C65 1_555 1_555
C65 H37 1_555 1_555
C66 C68 1_555 1_555
C67 H38 1_555 1_555
C68 C67 1_555 1_555
H39 C68 1_555 1_555
C69 C28 1_555 1_555
H40 C69 1_555 1_555
C70 H41 1_555 1_555
C71 C24 1_555 1_555
C72 C31 1_555 1_555
H42 C72 1_555 1_555
C73 C1 1_555 1_555
H43 C73 1_555 1_555
C74 H44 1_555 1_555
C75 C66 1_555 1_555
H45 C75 1_555 1_555
H46 C75 1_555 1_555
H47 C75 1_555 1_555
C76 C26 1_555 1_555
H48 C76 1_555 1_555
C77 S9 1_555 1_555
C78 C70 1_555 1_555
H49 C78 1_555 1_555
C79 C14 1_555 1_555
H50 C79 1_555 1_555
C80 H51 1_555 1_555
C81 C19 1_555 1_555
H52 C81 1_555 1_555
C82 H53 1_555 1_555
C83 C87 1_555 1_555
C84 C42 1_555 1_555
C85 C3 1_555 1_555
H54 C85 1_555 1_555
C86 H55 1_555 1_555
C87 C5 1_555 1_555
H56 C87 1_555 1_555
C88 C44 1_555 1_555
H57 C88 1_555 1_555
C89 C69 1_555 1_555
H58 C89 1_555 1_555
C90 C29 1_555 1_555
H59 C90 1_555 1_555
H60 C90 1_555 1_555
H61 C90 1_555 1_555
C91 C15 1_555 1_555
H62 C91 1_555 1_555
C92 C28 1_555 1_555
H63 C92 1_555 1_555
C93 C50 1_555 1_555
H64 C93 1_555 1_555
C94 C37 1_555 1_555
C95 C84 1_555 1_555
H65 C95 1_555 1_555
C96 C73 1_555 1_555
C97 H66 1_555 1_555
C98 C32 1_555 1_555
H67 C98 1_555 1_555
C99 C52 1_555 1_555
H68 C99 1_555 1_555
C100 H69 1_555 1_555
C101 C43 1_555 1_555
C102 C2 1_555 1_555
H70 C102 1_555 1_555
C103 C77 1_555 1_555
H71 C103 1_555 1_555
C104 C85 1_555 1_555
H72 C104 1_555 1_555
C105 C74 1_555 1_555
C106 C26 1_555 1_555
H73 C106 1_555 1_555
C107 C64 1_555 1_555
H74 C107 1_555 1_555
H75 C107 1_555 1_555
H76 C107 1_555 1_555
C108 C102 1_555 1_555
C109 C96 1_555 1_555
H77 C109 1_555 1_555
C110 C92 1_555 1_555
C111 C110 1_555 1_555
H78 C111 1_555 1_555
H79 C111 1_555 1_555
H80 C111 1_555 1_555
C112 C30 1_555 1_555
H81 C112 1_555 1_555
H82 C112 1_555 1_555
H83 C112 1_555 1_555
C113 C8 1_555 1_555
H84 C113 1_555 1_555
C114 C81 1_555 1_555
H85 C114 1_555 1_555
C115 C89 1_555 1_555
H86 C115 1_555 1_555
C116 C80 1_555 1_555
H87 C116 1_555 1_555
C117 C1 1_555 1_555
H88 C117 1_555 1_555
C118 C44 1_555 1_555
H89 C118 1_555 1_555
H90 C118 1_555 1_555
H91 C118 1_555 1_555
C119 C98 1_555 1_555
C120 H92 1_555 1_555
H93 C120 1_555 1_555
H94 C120 1_555 1_555
C121 C40 1_555 1_555
C122 C84 1_555 1_555
H95 C122 1_555 1_555
H96 C122 1_555 1_555
H97 C122 1_555 1_555
C123 C45 1_555 1_555
H98 C123 1_555 1_555
C124 C58 1_555 1_555
H99 C124 1_555 1_555
H100 C124 1_555 1_555
H101 C124 1_555 1_555
C125 C5 1_555 1_555
H102 C125 1_555 1_555
C126 C47 1_555 1_555
H103 C126 1_555 1_555
C127 C71 1_555 1_555
H104 C127 1_555 1_555
H105 C127 1_555 1_555
H106 C127 1_555 1_555
C128 C48 1_555 1_555
H107 C128 1_555 1_555
C129 C94 1_555 1_555
H108 C129 1_555 1_555
H109 C129 1_555 1_555
H110 C129 1_555 1_555
C130 C11 1_555 1_555
H111 C130 1_555 1_555
C131 C32 1_555 1_555
H112 C131 1_555 1_555
C132 C125 1_555 1_555
H113 C132 1_555 1_555
C133 C108 1_555 1_555
H114 C133 1_555 1_555
C134 C45 1_555 1_555
H115 C134 1_555 1_555
H116 C134 1_555 1_555
H117 C134 1_555 1_555
C135 C83 1_555 1_555
H118 C135 1_555 1_555
C136 C119 1_555 1_555
H119 C136 1_555 1_555
C137 C36 1_555 1_555
H120 C137 1_555 1_555
C138 C105 1_555 1_555
H121 C138 1_555 1_555
H122 C138 1_555 1_555
H123 C138 1_555 1_555
C139 C23 1_555 1_555
H124 C139 1_555 1_555
H125 C139 1_555 1_555
H126 C139 1_555 1_555
C140 C131 1_555 1_555
H127 C140 1_555 1_555
C141 C101 1_555 1_555
H128 C141 1_555 1_555
H129 C141 1_555 1_555
H130 C141 1_555 1_555
C142 H131 1_555 1_555
C143 C36 1_555 1_555
H132 C143 1_555 1_555
H133 C143 1_555 1_555
H134 C143 1_555 1_555
C144 C96 1_555 1_555
H135 C144 1_555 1_555
H136 C144 1_555 1_555
H137 C144 1_555 1_555
C145 C130 1_555 1_555
C146 C83 1_555 1_555
H138 C146 1_555 1_555
H139 C146 1_555 1_555
H140 C146 1_555 1_555
C147 C12 1_555 1_555
H141 C147 1_555 1_555
C148 C119 1_555 1_555
H142 C148 1_555 1_555
H143 C148 1_555 1_555
H144 C148 1_555 1_555
C149 C108 1_555 1_555
H145 C149 1_555 1_555
H146 C149 1_555 1_555
H147 C149 1_555 1_555
C150 C145 1_555 1_555
H148 C150 1_555 1_555
H149 C150 1_555 1_555
H150 C150 1_555 1_555
Cd1I S13 1_555 1_555
Cd2I S13 1_555 1_555
Cd3K S22 1_555 1_555
Cd4K S18 1_555 1_555
Cd5K S2 1_555 1_555
Cd6K S1 1_555 1_555
Cd10I S11 1_555 1_555
Cd11K S9 1_555 1_555
Cd11F S24 1_555 1_555
Cd12K S14 1_555 1_555
Cd12G S25 1_555 1_555
S9K Cd11 1_555 1_555
S10K Cd5 1_555 1_555
S11I Cd10 1_555 1_555
S14K Cd12 1_555 1_555
S15K Cd6 1_555 1_555
S17K Cd11 1_555 1_555
S18K Cd4 1_555 1_555
S21I Cd2 1_555 1_555
S22K Cd3 1_555 1_555
C102F C2 1_555 1_555
C108F C133 1_555 1_555
C130G C11 1_555 1_555
C145G C142 1_555 1_555
Cd2 S13 1_555 1_555
Cd9 S12 1_555 1_555
Cd9 S19 1_555 1_555
Cd10 S20 1_555 1_555
Cd10 S23 1_555 1_555
Cd12 S16 1_555 1_555
S10 Cd5K 1_555 1_555
S15 Cd6K 1_555 1_555
S17 Cd11K 1_555 1_555
S21 Cd2I 1_555 1_555
C6 C18 1_555 1_555
C12 C20 1_555 1_555
C23 C147 1_555 1_555
C27 C39 1_555 1_555
C29 C34 1_555 1_555
C53 C60 1_555 1_555
C53 C71 1_555 1_555
C54 C58 1_555 1_555
C56 C62 1_555 1_555
C57 C99 1_555 1_555
C59 C101 1_555 1_555
C61 C72 1_555 1_555
C64 C79 1_555 1_555
C65 C93 1_555 1_555
C66 C76 1_555 1_555
C67 C106 1_555 1_555
C70 C77 1_555 1_555
C74 C78 1_555 1_555
C80 C94 1_555 1_555
C82 C88 1_555 1_555
C82 C126 1_555 1_555
C86 C91 1_555 1_555
C86 C95 1_555 1_555
C97 C109 1_555 1_555
C97 C117 1_555 1_555
C100 C114 1_555 1_555
C100 C121 1_555 1_555
C103 C105 1_555 1_555
C104 C137 1_555 1_555
C110 C115 1_555 1_555
C113 C116 1_555 1_555
C120 C121 1_555 1_555
C123 C128 1_555 1_555
C132 C135 1_555 1_555
C136 C140 1_555 1_555
C142 C145 1_555 1_555
Cd1I S11I 1_555 1_555
Cd3K S9K 1_555 1_555
Cd4K S14K 1_555 1_555
Cd5K S17K 1_555 1_555
C102F C108F 1_555 1_555
C130G C145G 1_555 1_555

#END
