
#######################################################################
#
#                 Cambridge Crystallographic Data Centre
#                                CCDC 
#
#######################################################################
#
# If this CIF has been generated from an entry in the Cambridge 
# Structural Database, then it will include bibliographic, chemical, 
# crystal, experimental, refinement or atomic coordinate data resulting 
# from the CCDC's data processing and validation procedures.
#
#######################################################################

data_XIJPIR
_symmetry_cell_setting           triclinic
_symmetry_space_group_name_H-M   'P -1'
_symmetry_Int_Tables_number      2
_space_group_name_Hall           '-P 1'
loop_
_symmetry_equiv_pos_site_id
_symmetry_equiv_pos_as_xyz
1 x,y,z
2 -x,-y,-z
_cell_length_a                   10.8341(15)
_cell_length_b                   10.8631(15)
_cell_length_c                   12.1669(17)
_cell_angle_alpha                64.502(2)
_cell_angle_beta                 85.092(2)
_cell_angle_gamma                71.087(1)
_cell_volume                     1220.25
loop_
_atom_site_label
_atom_site_type_symbol
_atom_site_fract_x
_atom_site_fract_y
_atom_site_fract_z
Cd1 Cd 0.42328(2) 0.71042(3) 0.96530(2)
Cl1 Cl 0.35510(8) 0.53321(9) 0.92965(10)
Cl2 Cl 0.44308(10) 0.76800(11) 1.13490(9)
N1 N 1.2126(3) 0.8765(3) 0.8920(3)
N2 N 1.0055(3) 0.9662(3) 0.8174(2)
N3 N 0.5370(3) 0.8198(3) 0.8102(2)
N4 N 0.6124(2) 0.9929(3) 0.6758(2)
C1 C 1.1185(3) 0.8562(4) 0.8464(3)
H1 H 1.1293 0.7739 0.8354
C2 C 1.1561(3) 1.0115(3) 0.8921(3)
C3 C 1.2075(3) 1.0913(4) 0.9286(3)
H2 H 1.2932 1.0542 0.9613
C4 C 1.1299(3) 1.2256(4) 0.9158(3)
C5 C 1.1858(4) 1.3110(4) 0.9555(4)
H3 H 1.2734 1.2550 0.9901
H4 H 1.1329 1.3347 1.0155
H5 H 1.1868 1.3980 0.8863
C6 C 0.9994(3) 1.2826(4) 0.8666(3)
C7 C 0.9145(4) 1.4305(5) 0.8524(4)
H6 H 0.8263 1.4466 0.8288
H7 H 0.9471 1.5021 0.7909
H8 H 0.9162 1.4368 0.9286
C8 C 0.9467(3) 1.2037(4) 0.8316(3)
H9 H 0.8606 1.2398 0.8002
C9 C 1.0270(3) 1.0687(4) 0.8452(3)
C10 C 0.8860(3) 0.9842(4) 0.7554(3)
H10 H 0.8108 1.0174 0.7966
H11 H 0.8882 0.8916 0.7612
C11 C 0.5531(3) 0.9446(4) 0.7818(3)
H12 H 0.5265 0.9949 0.8297
C12 C 0.6339(3) 0.8910(4) 0.6296(3)
C13 C 0.6849(3) 0.8841(4) 0.5229(3)
H13 H 0.7114 0.9588 0.4645
C14 C 0.6952(3) 0.7637(4) 0.5060(3)
C15 C 0.7502(4) 0.7536(5) 0.3899(4)
H14 H 0.7568 0.8452 0.3328
H15 H 0.6932 0.7265 0.3547
H16 H 0.8353 0.6825 0.4088
C16 C 0.6548(3) 0.6498(4) 0.5946(3)
C17 C 0.6677(4) 0.5179(4) 0.5760(4)
H17 H 0.6302 0.4554 0.6418
H18 H 0.7585 0.4681 0.5743
H19 H 0.6227 0.5460 0.5002
C18 C 0.5995(3) 0.6607(4) 0.6983(3)
H20 H 0.5698 0.5881 0.7556
C19 C 0.5892(3) 0.7821(4) 0.7152(3)
C20 C 0.6222(3) 1.1390(4) 0.6145(3)
H21 H 0.6062 1.1795 0.6735
H22 H 0.5522 1.1969 0.5509
C21 C 0.7487(3) 1.1557(3) 0.5576(3)
C22 C 0.8704(3) 1.0907(4) 0.6216(3)
C23 C 0.9772(3) 1.1256(4) 0.5616(3)
H23 H 1.0591 1.0805 0.6032
C24 C 0.9651(4) 1.2256(4) 0.4418(3)
H24 H 1.0378 1.2490 0.4040
C25 C 0.8451(4) 1.2908(4) 0.3782(3)
H25 H 0.8360 1.3587 0.2974
C26 C 0.7386(3) 1.2542(4) 0.4357(3)
H26 H 0.6580 1.2962 0.3921
Cd1_2 Cd 1.42328(2) 0.71042(3) 0.96530(2)
Cd1A Cd 0.57672(2) 0.28958(3) 1.03470(2)
Cl1A Cl 0.64490(8) 0.46679(9) 1.07035(10)
N1_2 N 0.2126(3) 0.8765(3) 0.8920(3)
loop_
_geom_bond_atom_site_label_1
_geom_bond_atom_site_label_2
_geom_bond_site_symmetry_1
_geom_bond_site_symmetry_2
Cd1 Cl1 1_555 1_555
Cl1 Cd1A 1_555 1_555
Cl2 Cd1 1_555 1_555
N1 C1 1_555 1_555
N2 C1 1_555 1_555
N3 Cd1 1_555 1_555
N4 C11 1_555 1_555
C1 H1 1_555 1_555
C2 N1 1_555 1_555
C3 C2 1_555 1_555
H2 C3 1_555 1_555
C4 C3 1_555 1_555
C5 C4 1_555 1_555
H3 C5 1_555 1_555
H4 C5 1_555 1_555
H5 C5 1_555 1_555
C6 C4 1_555 1_555
C7 C6 1_555 1_555
H6 C7 1_555 1_555
H7 C7 1_555 1_555
H8 C7 1_555 1_555
C8 C6 1_555 1_555
H9 C8 1_555 1_555
C9 N2 1_555 1_555
C10 N2 1_555 1_555
H10 C10 1_555 1_555
H11 C10 1_555 1_555
C11 N3 1_555 1_555
H12 C11 1_555 1_555
C12 N4 1_555 1_555
C13 C12 1_555 1_555
H13 C13 1_555 1_555
C14 C13 1_555 1_555
C15 C14 1_555 1_555
H14 C15 1_555 1_555
H15 C15 1_555 1_555
H16 C15 1_555 1_555
C16 C14 1_555 1_555
C17 C16 1_555 1_555
H17 C17 1_555 1_555
H18 C17 1_555 1_555
H19 C17 1_555 1_555
C18 C16 1_555 1_555
H20 C18 1_555 1_555
C19 N3 1_555 1_555
C20 N4 1_555 1_555
H21 C20 1_555 1_555
H22 C20 1_555 1_555
C21 C20 1_555 1_555
C22 C10 1_555 1_555
C23 C22 1_555 1_555
H23 C23 1_555 1_555
C24 C23 1_555 1_555
H24 C24 1_555 1_555
C25 C24 1_555 1_555
H25 C25 1_555 1_555
C26 C21 1_555 1_555
H26 C26 1_555 1_555
Cd1_2 N1 1_555 1_555
Cd1A Cl1A 1_555 1_555
Cl1A Cd1 1_555 1_555
N1_2 Cd1 1_555 1_555
C2 C9 1_555 1_555
C8 C9 1_555 1_555
C12 C19 1_555 1_555
C18 C19 1_555 1_555
C21 C22 1_555 1_555
C25 C26 1_555 1_555

#END
