
#######################################################################
#
#                 Cambridge Crystallographic Data Centre
#                                CCDC 
#
#######################################################################
#
# If this CIF has been generated from an entry in the Cambridge 
# Structural Database, then it will include bibliographic, chemical, 
# crystal, experimental, refinement or atomic coordinate data resulting 
# from the CCDC's data processing and validation procedures.
#
#######################################################################

data_XIJPOX
_symmetry_cell_setting           monoclinic
_symmetry_space_group_name_H-M   'C 2/m'
_symmetry_Int_Tables_number      12
_space_group_name_Hall           '-C 2y'
loop_
_symmetry_equiv_pos_site_id
_symmetry_equiv_pos_as_xyz
1 x,y,z
2 -x,y,-z
3 1/2+x,1/2+y,z
4 1/2-x,1/2+y,-z
5 -x,-y,-z
6 x,-y,z
7 1/2-x,1/2-y,-z
8 1/2+x,1/2-y,z
_cell_length_a                   21.074(2)
_cell_length_b                   16.5844(17)
_cell_length_c                   11.4834(12)
_cell_angle_alpha                90
_cell_angle_beta                 121.2760(10)
_cell_angle_gamma                90
_cell_volume                     3430.2
loop_
_atom_site_label
_atom_site_type_symbol
_atom_site_fract_x
_atom_site_fract_y
_atom_site_fract_z
Cd1 Cd 0.350281(17) 0.5000 0.10994(3)
O1 O 0.46182(12) 0.56538(15) 0.1440(3)
O2 O 0.6083(3) 0.5283(4) 0.6714(4)
O3 O 0.7195(2) 0.5000 0.7728(4)
N1 N 0.28973(13) 0.39169(15) -0.0243(2)
N2 N 0.27706(14) 0.28473(15) -0.1514(2)
C1 C 0.32233(17) 0.3429(2) -0.0674(3)
H1 H 0.3718 0.3480 -0.0425
C2 C 0.21733(16) 0.36277(18) -0.0831(3)
C3 C 0.15784(17) 0.38841(19) -0.0728(3)
H2 H 0.1634 0.4313 -0.0160
C4 C 0.09037(18) 0.3499(2) -0.1471(3)
C5 C 0.08182(18) 0.2846(2) -0.2332(3)
C6 C 0.14097(18) 0.25695(19) -0.2407(3)
H3 H 0.1360 0.2130 -0.2951
C7 C 0.20824(17) 0.29654(18) -0.1647(3)
C8 C 0.02542(19) 0.3780(2) -0.1345(4)
H4 H 0.0418 0.4196 -0.0669
H5 H 0.0066 0.3333 -0.1082
H6 H -0.0131 0.3986 -0.2207
C9 C 0.0064(2) 0.2444(3) -0.3199(4)
H7 H 0.0111 0.1993 -0.3673
H8 H -0.0281 0.2826 -0.3847
H9 H -0.0112 0.2261 -0.2623
C10 C 0.29712(19) 0.2216(2) -0.2158(3)
H10 H 0.2754 0.1711 -0.2111
H11 H 0.3506 0.2151 -0.1643
C11 C 0.27211(16) 0.23861(18) -0.3629(3)
C12 C 0.30040(17) 0.19117(19) -0.4246(3)
H12 H 0.3347 0.1511 -0.3743
C13 C 0.22132(17) 0.29773(19) -0.4405(3)
H13 H 0.2015 0.3304 -0.4014
C14 C 0.5800(2) 0.5000 0.2289(4)
H14 H 0.5876 0.5000 0.1517
C15 C 0.61824(16) 0.42475(19) 0.3137(3)
H15 H 0.5918 0.3772 0.2622
H16 H 0.6685 0.4220 0.3314
C16 C 0.62080(17) 0.42491(19) 0.4484(3)
H17 H 0.6470 0.3773 0.5002
H18 H 0.5706 0.4227 0.4309
C17 C 0.6594(2) 0.5000 0.5317(4)
H19 H 0.7105 0.5000 0.5513
C18 C 0.4957(2) 0.5000 0.1698(4)
C19 C 0.6623(3) 0.5000 0.6664(5)
O1E O 0.46182(12) 0.43462(15) 0.1440(3)
O2E O 0.6083(3) 0.4717(4) 0.6714(4)
C15E C 0.61824(16) 0.57525(19) 0.3137(3)
H15E H 0.5918 0.6228 0.2622
H16E H 0.6685 0.5780 0.3314
C16E C 0.62080(17) 0.57509(19) 0.4484(3)
H17E H 0.6470 0.6227 0.5002
H18E H 0.5706 0.5773 0.4309
N1F N 0.21027(13) 0.10831(15) -0.9757(2)
N2F N 0.22294(14) 0.21527(15) -0.8486(2)
C1F C 0.17767(17) 0.1571(2) -0.9326(3)
H1F H 0.1282 0.1520 -0.9575
C2F C 0.28267(16) 0.13723(18) -0.9169(3)
C3F C 0.34216(17) 0.11159(19) -0.9272(3)
H2F H 0.3366 0.0687 -0.9840
C4F C 0.40963(18) 0.1501(2) -0.8529(3)
C5F C 0.41818(18) 0.2154(2) -0.7668(3)
C6F C 0.35903(18) 0.24305(19) -0.7593(3)
H3F H 0.3640 0.2870 -0.7049
C7F C 0.29176(17) 0.20346(18) -0.8353(3)
C8F C 0.47458(19) 0.1220(2) -0.8655(4)
H4F H 0.4582 0.0804 -0.9331
H5F H 0.4934 0.1667 -0.8918
H6F H 0.5131 0.1014 -0.7793
C9F C 0.4936(2) 0.2556(3) -0.6801(4)
H7F H 0.4889 0.3007 -0.6327
H8F H 0.5281 0.2174 -0.6153
H9F H 0.5112 0.2739 -0.7377
C10F C 0.20288(19) 0.2784(2) -0.7842(3)
H10F H 0.2246 0.3289 -0.7889
H11F H 0.1494 0.2849 -0.8357
C11F C 0.22789(16) 0.26139(18) -0.6371(3)
C12F C 0.19960(17) 0.30883(19) -0.5754(3)
H12F H 0.1653 0.3489 -0.6257
C13F C 0.27868(17) 0.20227(19) -0.5595(3)
H13F H 0.2985 0.1696 -0.5986
Cd1A Cd 0.649719(17) 0.5000 0.89006(3)
Cd1C Cd 0.149719(17) 0.0000 -1.10994(3)
O2A O 0.3917(3) 0.5283(4) 0.3286(4)
O2D O 0.3917(3) 0.4717(4) 0.3286(4)
O3A O 0.2805(2) 0.5000 0.2272(4)
N1E N 0.28973(13) 0.60831(15) -0.0243(2)
loop_
_geom_bond_atom_site_label_1
_geom_bond_atom_site_label_2
_geom_bond_site_symmetry_1
_geom_bond_site_symmetry_2
Cd1 O1 1_555 1_555
O1 C18 1_555 1_555
O2 C19 1_555 1_555
O3 C19 1_555 1_555
N1 Cd1 1_555 1_555
N2 C1 1_555 1_555
C1 N1 1_555 1_555
H1 C1 1_555 1_555
C2 N1 1_555 1_555
C3 C2 1_555 1_555
H2 C3 1_555 1_555
C4 C3 1_555 1_555
C5 C4 1_555 1_555
C6 C5 1_555 1_555
H3 C6 1_555 1_555
C7 N2 1_555 1_555
C8 C4 1_555 1_555
H4 C8 1_555 1_555
H5 C8 1_555 1_555
H6 C8 1_555 1_555
C9 C5 1_555 1_555
H7 C9 1_555 1_555
H8 C9 1_555 1_555
H9 C9 1_555 1_555
C10 N2 1_555 1_555
H10 C10 1_555 1_555
H11 C10 1_555 1_555
C11 C10 1_555 1_555
C12 C11 1_555 1_555
H12 C12 1_555 1_555
C13 C11 1_555 1_555
H13 C13 1_555 1_555
C14 H14 1_555 1_555
C15 C14 1_555 1_555
H15 C15 1_555 1_555
H16 C15 1_555 1_555
C16 C15 1_555 1_555
H17 C16 1_555 1_555
H18 C16 1_555 1_555
C17 C16 1_555 1_555
H19 C17 1_555 1_555
C18 C14 1_555 1_555
C19 C17 1_555 1_555
O1E Cd1 1_555 1_555
O2E O2 1_555 1_555
C15E C14 1_555 1_555
H15E C15E 1_555 1_555
H16E C15E 1_555 1_555
C16E C17 1_555 1_555
H17E C16E 1_555 1_555
H18E C16E 1_555 1_555
N1F C1F 1_555 1_555
N2F C1F 1_555 1_555
C1F H1F 1_555 1_555
C2F N1F 1_555 1_555
C3F C2F 1_555 1_555
H2F C3F 1_555 1_555
C4F C3F 1_555 1_555
C5F C4F 1_555 1_555
C6F C5F 1_555 1_555
H3F C6F 1_555 1_555
C7F N2F 1_555 1_555
C8F C4F 1_555 1_555
H4F C8F 1_555 1_555
H5F C8F 1_555 1_555
H6F C8F 1_555 1_555
C9F C5F 1_555 1_555
H7F C9F 1_555 1_555
H8F C9F 1_555 1_555
H9F C9F 1_555 1_555
C10F N2F 1_555 1_555
H10F C10F 1_555 1_555
H11F C10F 1_555 1_555
C11F C10F 1_555 1_555
C12F C13 1_555 1_555
H12F C12F 1_555 1_555
C13F C12 1_555 1_555
H13F C13F 1_555 1_555
Cd1A O2 1_555 1_555
Cd1C N1F 1_555 1_555
O2A Cd1 1_555 1_555
O2D Cd1 1_555 1_555
O3A Cd1 1_555 1_555
N1E Cd1 1_555 1_555
O3 Cd1A 1_555 1_555
C2 C7 1_555 1_555
C6 C7 1_555 1_555
C18 O1E 1_555 1_555
C19 O2E 1_555 1_555
O2E Cd1A 1_555 1_555
C15E C16E 1_555 1_555
C2F C7F 1_555 1_555
C6F C7F 1_555 1_555
C11F C12F 1_555 1_555
C11F C13F 1_555 1_555
O2A O2D 1_555 1_555

#END
