
#######################################################################
#
#                 Cambridge Crystallographic Data Centre
#                                CCDC 
#
#######################################################################
#
# If this CIF has been generated from an entry in the Cambridge 
# Structural Database, then it will include bibliographic, chemical, 
# crystal, experimental, refinement or atomic coordinate data resulting 
# from the CCDC's data processing and validation procedures.
#
#######################################################################

data_XIJQOX
_symmetry_cell_setting           triclinic
_symmetry_space_group_name_H-M   'P -1'
_symmetry_Int_Tables_number      2
_space_group_name_Hall           '-P 1'
loop_
_symmetry_equiv_pos_site_id
_symmetry_equiv_pos_as_xyz
1 x,y,z
2 -x,-y,-z
_cell_length_a                   11.3364(12)
_cell_length_b                   15.1363(16)
_cell_length_c                   18.0214(19)
_cell_angle_alpha                87.884(2)
_cell_angle_beta                 72.040(2)
_cell_angle_gamma                88.328(2)
_cell_volume                     2939.11
loop_
_atom_site_label
_atom_site_type_symbol
_atom_site_fract_x
_atom_site_fract_y
_atom_site_fract_z
Zn1 Zn 0.45735(2) 0.754611(17) 0.556706(16)
Zn2 Zn 0.57853(2) 0.743473(18) -0.090282(16)
N1 N 0.64340(19) 0.75401(13) 0.55717(12)
N2 N 1.26654(18) 0.75736(13) 0.56202(12)
C1 C 0.6711(2) 0.75864(17) 0.62414(15)
H1 H 0.6047 0.7587 0.6717
C2 C 0.7901(2) 0.76325(18) 0.62771(15)
H2 H 0.8044 0.7665 0.6767
C3 C 0.8895(2) 0.76315(15) 0.55911(14)
C4 C 0.8612(2) 0.75964(17) 0.48962(14)
H3 H 0.9258 0.7602 0.4412
C5 C 0.7397(2) 0.75544(17) 0.49087(14)
H4 H 0.7227 0.7534 0.4425
C6 C 1.1774(2) 0.80307(16) 0.61503(14)
H5 H 1.2000 0.8339 0.6534
C7 C 1.0555(2) 0.80716(16) 0.61614(14)
H6 H 0.9960 0.8396 0.6551
C8 C 1.0190(2) 0.76362(16) 0.55998(14)
C9 C 1.1111(2) 0.71749(16) 0.50478(14)
H7 H 1.0915 0.6878 0.4647
C10 C 1.2307(2) 0.71506(16) 0.50842(15)
H8 H 1.2913 0.6816 0.4710
N3 N 0.50370(18) 0.75550(13) 0.43125(11)
N4 N 0.52289(18) 0.75103(13) 0.03514(12)
C11 C 0.5335(2) 0.68159(16) 0.38934(14)
H9 H 0.5539 0.6291 0.4137
C12 C 0.5356(2) 0.67913(16) 0.31284(14)
H10 H 0.5567 0.6257 0.2854
C13 C 0.5067(2) 0.75529(16) 0.27552(14)
C14 C 0.4788(2) 0.83164(16) 0.31818(15)
H11 H 0.4603 0.8854 0.2948
C15 C 0.4780(2) 0.82900(16) 0.39508(14)
H12 H 0.4584 0.8818 0.4236
C16 C 0.5463(2) 0.82500(16) 0.06701(15)
H13 H 0.5678 0.8768 0.0347
C17 C 0.5407(2) 0.82926(16) 0.14414(15)
H14 H 0.5582 0.8829 0.1641
C18 C 0.5092(2) 0.75437(16) 0.19274(14)
C19 C 0.4808(2) 0.67840(16) 0.16057(14)
H15 H 0.4563 0.6263 0.1921
C20 C 0.4886(2) 0.67964(16) 0.08263(14)
H16 H 0.4689 0.6275 0.0615
N5 N 0.76931(19) 0.73379(13) -0.09314(12)
N6 N 1.39624(18) 0.74148(13) -0.09660(12)
C21 C 0.8606(2) 0.75045(17) -0.15972(15)
H17 H 0.8384 0.7643 -0.2056
C22 C 0.9847(2) 0.74864(17) -0.16527(15)
H18 H 1.0456 0.7599 -0.2142
C23 C 1.0203(2) 0.73027(16) -0.09910(14)
C24 C 0.9262(2) 0.71011(16) -0.03074(15)
H19 H 0.9457 0.6949 0.0158
C25 C 0.8046(2) 0.71219(16) -0.03037(15)
H20 H 0.7423 0.6975 0.0171
C26 C 1.2992(2) 0.75974(17) -0.03360(14)
H21 H 1.3155 0.7762 0.0126
C27 C 1.1780(2) 0.75589(17) -0.03253(15)
H22 H 1.1129 0.7684 0.0139
C28 C 1.1504(2) 0.73356(16) -0.09962(14)
C29 C 1.2505(2) 0.71691(16) -0.16542(14)
H23 H 1.2368 0.7027 -0.2130
C30 C 1.3697(2) 0.72112(16) -0.16132(14)
H24 H 1.4366 0.7089 -0.2069
N7 N 0.6079(2) 0.90781(14) -0.16606(13)
O1 O 0.57186(19) 0.88989(14) -0.09350(11)
O2 O 0.6378(2) 0.84315(15) -0.20888(15)
O3 O 0.6125(2) 0.98347(14) -0.19037(14)
N8 N 0.43500(19) 0.59236(13) 0.62360(12)
O4 O 0.41557(17) 0.66239(12) 0.66174(11)
O5 O 0.46156(17) 0.60184(12) 0.55030(10)
O6 O 0.4278(2) 0.51931(12) 0.65554(12)
N9 N 0.43725(19) 0.91125(14) 0.62750(13)
O7 O 0.46724(18) 0.89932(13) 0.55449(11)
O8 O 0.44341(19) 0.98409(12) 0.65250(11)
O9 O 0.40307(17) 0.84445(12) 0.67158(12)
N10 N 0.61744(19) 0.58215(14) -0.14939(13)
O10 O 0.57619(16) 0.59033(12) -0.07639(10)
O11 O 0.63865(16) 0.65318(12) -0.19091(10)
O12 O 0.63677(19) 0.50944(12) -0.17882(12)
Zn1_2 Zn -0.54265(2) 0.754611(17) 0.556706(16)
Zn1_3 Zn 1.45735(2) 0.754611(17) 0.556706(16)
Zn2_2 Zn -0.42147(2) 0.743473(18) -0.090282(16)
Zn2_3 Zn 1.57853(2) 0.743473(18) -0.090282(16)
N1_2 N -0.35660(19) 0.75401(13) 0.55717(12)
N2_2 N 0.26654(18) 0.75736(13) 0.56202(12)
N2_3 N -0.73346(18) 0.75736(13) 0.56202(12)
C1_2 C -0.3289(2) 0.75864(17) 0.62414(15)
H1_2 H -0.3953 0.7587 0.6717
C2_2 C -0.2099(2) 0.76325(18) 0.62771(15)
H2_2 H -0.1956 0.7665 0.6767
C3_2 C -0.1105(2) 0.76315(15) 0.55911(14)
C4_2 C -0.1388(2) 0.75964(17) 0.48962(14)
H3_2 H -0.0742 0.7602 0.4412
C5_2 C -0.2603(2) 0.75544(17) 0.49087(14)
H4_2 H -0.2773 0.7534 0.4425
C6_2 C 0.1774(2) 0.80307(16) 0.61503(14)
H5_2 H 0.2000 0.8339 0.6534
C7_2 C 0.0555(2) 0.80716(16) 0.61614(14)
H6_2 H -0.0040 0.8396 0.6551
C8_2 C 0.0190(2) 0.76362(16) 0.55998(14)
C9_2 C 0.1111(2) 0.71749(16) 0.50478(14)
H7_2 H 0.0915 0.6878 0.4647
C10_2 C 0.2307(2) 0.71506(16) 0.50842(15)
H8_2 H 0.2913 0.6816 0.4710
N3_2 N -0.49630(18) 0.75550(13) 0.43125(11)
N4_2 N -0.47711(18) 0.75103(13) 0.03514(12)
C11_2 C -0.4665(2) 0.68159(16) 0.38934(14)
H9_2 H -0.4461 0.6291 0.4137
C12_2 C -0.4644(2) 0.67913(16) 0.31284(14)
H10_2 H -0.4433 0.6257 0.2854
C13_2 C -0.4933(2) 0.75529(16) 0.27552(14)
C14_2 C -0.5212(2) 0.83164(16) 0.31818(15)
H11_2 H -0.5397 0.8854 0.2948
C15_2 C -0.5220(2) 0.82900(16) 0.39508(14)
H12_2 H -0.5416 0.8818 0.4236
C16_2 C -0.4537(2) 0.82500(16) 0.06701(15)
H13_2 H -0.4322 0.8768 0.0347
C17_2 C -0.4593(2) 0.82926(16) 0.14414(15)
H14_2 H -0.4418 0.8829 0.1641
C18_2 C -0.4908(2) 0.75437(16) 0.19274(14)
C19_2 C -0.5192(2) 0.67840(16) 0.16057(14)
H15_2 H -0.5437 0.6263 0.1921
C20_2 C -0.5114(2) 0.67964(16) 0.08263(14)
H16_2 H -0.5311 0.6275 0.0615
N5_2 N -0.23069(19) 0.73379(13) -0.09314(12)
N6_2 N 0.39624(18) 0.74148(13) -0.09660(12)
N6_3 N -0.60376(18) 0.74148(13) -0.09660(12)
C21_2 C -0.1394(2) 0.75045(17) -0.15972(15)
H17_2 H -0.1616 0.7643 -0.2056
C22_2 C -0.0153(2) 0.74864(17) -0.16527(15)
H18_2 H 0.0456 0.7599 -0.2142
C23_2 C 0.0203(2) 0.73027(16) -0.09910(14)
C24_2 C -0.0738(2) 0.71011(16) -0.03074(15)
H19_2 H -0.0543 0.6949 0.0158
C25_2 C -0.1954(2) 0.71219(16) -0.03037(15)
H20_2 H -0.2577 0.6975 0.0171
C26_2 C 0.2992(2) 0.75974(17) -0.03360(14)
H21_2 H 0.3155 0.7762 0.0126
C27_2 C 0.1780(2) 0.75589(17) -0.03253(15)
H22_2 H 0.1129 0.7684 0.0139
C28_2 C 0.1504(2) 0.73356(16) -0.09962(14)
C29_2 C 0.2505(2) 0.71691(16) -0.16542(14)
H23_2 H 0.2368 0.7027 -0.2130
C30_2 C 0.3697(2) 0.72112(16) -0.16132(14)
H24_2 H 0.4366 0.7089 -0.2069
N7_2 N -0.3921(2) 0.90781(14) -0.16606(13)
O1_2 O -0.42814(19) 0.88989(14) -0.09350(11)
O2_2 O -0.3622(2) 0.84315(15) -0.20888(15)
O3_2 O -0.3875(2) 0.98347(14) -0.19037(14)
N8_2 N -0.56500(19) 0.59236(13) 0.62360(12)
O4_2 O -0.58443(17) 0.66239(12) 0.66174(11)
O5_2 O -0.53844(17) 0.60184(12) 0.55030(10)
O6_2 O -0.5722(2) 0.51931(12) 0.65554(12)
N9_2 N -0.56275(19) 0.91125(14) 0.62750(13)
O7_2 O -0.53276(18) 0.89932(13) 0.55449(11)
O8_2 O -0.55659(19) 0.98409(12) 0.65250(11)
O9_2 O -0.59693(17) 0.84445(12) 0.67158(12)
N10_2 N -0.38256(19) 0.58215(14) -0.14939(13)
O10_2 O -0.42381(16) 0.59033(12) -0.07639(10)
O11_2 O -0.36135(16) 0.65318(12) -0.19091(10)
O12_2 O -0.36323(19) 0.50944(12) -0.17882(12)
C31 C 0.0705(3) 1.03241(18) 1.11672(18)
H25 H 0.0759 1.0465 1.1665
C32 C 0.1758(3) 1.01545(18) 1.05854(18)
H26 H 0.2534 1.0178 1.0682
C33 C 0.1724(3) 0.99404(17) 0.98262(17)
C34 C 0.0562(3) 0.99078(16) 0.96929(16)
C35 C -0.0491(3) 1.02991(17) 1.10580(17)
C36 C -0.1600(3) 1.04664(18) 1.16501(18)
H27 H -0.1571 1.0602 1.2155
C37 C -0.2732(3) 1.04398(18) 1.15176(18)
H28 H -0.3470 1.0559 1.1930
C38 C 0.2804(3) 0.97591(17) 0.92099(18)
H29 H 0.3590 0.9773 0.9293
C31A C -0.0705(3) 0.96759(18) 0.88328(18)
H25A H -0.0759 0.9535 0.8335
C32A C -0.1758(3) 0.98455(18) 0.94146(18)
H26A H -0.2534 0.9822 0.9318
C33A C -0.1724(3) 1.00596(17) 1.01738(17)
C34A C -0.0562(3) 1.00922(16) 1.03071(16)
C35A C 0.0491(3) 0.97009(17) 0.89420(17)
C36A C 0.1600(3) 0.95336(18) 0.83499(18)
H27A H 0.1571 0.9398 0.7845
C37A C 0.2732(3) 0.95602(18) 0.84824(18)
H28A H 0.3470 0.9441 0.8070
C38A C -0.2804(3) 1.02409(17) 1.07901(18)
H29A H -0.3590 1.0227 1.0707
C39 C 0.2172(3) 0.46540(17) 0.41055(18)
H30 H 0.2880 0.4518 0.3678
C40 C 0.2328(3) 0.48374(18) 0.47930(18)
H31 H 0.3138 0.4815 0.4844
C41 C 0.1279(3) 0.50679(17) 0.54566(16)
C42 C 0.1417(3) 0.52917(18) 0.61673(18)
H32 H 0.2216 0.5260 0.6236
C43 C 0.0401(3) 0.55598(18) 0.67764(17)
H33 H 0.0515 0.5734 0.7250
C44 C -0.0784(3) 0.55768(18) 0.67006(17)
H34 H -0.1474 0.5749 0.7127
C45 C 0.0966(3) 0.46578(17) 0.39971(16)
C46 C 0.0083(2) 0.50993(16) 0.53639(15)
C39A C -0.2172(3) 0.53460(17) 0.58945(18)
H30A H -0.2880 0.5482 0.6322
C40A C -0.2328(3) 0.51626(18) 0.52070(18)
H31A H -0.3138 0.5185 0.5156
C41A C -0.1279(3) 0.49321(17) 0.45434(16)
C42A C -0.1417(3) 0.47083(18) 0.38327(18)
H32A H -0.2216 0.4740 0.3764
C43A C -0.0401(3) 0.44402(18) 0.32236(17)
H33A H -0.0515 0.4266 0.2750
C44A C 0.0784(3) 0.44232(18) 0.32994(17)
H34A H 0.1474 0.4251 0.2873
C45A C -0.0966(3) 0.53422(17) 0.60029(16)
C46A C -0.0083(2) 0.49007(16) 0.46361(15)
C47 C -0.1564(3) 0.46635(17) 0.92949(16)
H35 H -0.2288 0.4561 0.9154
C48 C -0.0450(3) 0.46315(17) 0.87479(16)
H36 H -0.0402 0.4494 0.8229
C49 C 0.0680(3) 0.48009(17) 0.89285(15)
C50 C 0.0593(2) 0.49904(16) 0.97104(15)
C51 C -0.1680(3) 0.48506(16) 1.00906(16)
C52 C -0.2832(3) 0.48802(17) 1.06670(17)
H37 H -0.3566 0.4783 1.0535
C53 C -0.2909(3) 0.50514(18) 1.14313(16)
H38 H -0.3696 0.5056 1.1821
C54 C 0.1859(3) 0.47851(17) 0.83680(16)
H39 H 0.1933 0.4660 0.7843
C47A C 0.1564(3) 0.53365(17) 1.07051(16)
H35A H 0.2288 0.5439 1.0846
C48A C 0.0450(3) 0.53685(17) 1.12521(16)
H36A H 0.0402 0.5506 1.1771
C49A C -0.0680(3) 0.51991(17) 1.10715(15)
C50A C -0.0593(2) 0.50096(16) 1.02896(15)
C51A C 0.1680(3) 0.51494(16) 0.99094(16)
C52A C 0.2832(3) 0.51198(17) 0.93330(17)
H37A H 0.3566 0.5217 0.9465
C53A C 0.2909(3) 0.49486(18) 0.85687(16)
H38A H 0.3696 0.4944 0.8179
C54A C -0.1859(3) 0.52149(17) 1.16320(16)
H39A H -0.1933 0.5340 1.2157
C55 C 1.0469(3) 0.0466(2) 0.6562(2)
H40 H 1.0104 0.0584 0.7100
C56 C 0.9717(4) 0.0283(2) 0.60492(19)
C57 C 0.8451(4) 0.0238(2) 0.6316(2)
H41 H 0.8044 0.0352 0.6850
C58 C 0.7769(3) 0.00473(19) 0.58761(19)
H42 H 0.6895 0.0015 0.6105
C59 C 0.8312(4) -0.01198(19) 0.5038(2)
C60 C 1.0313(3) 0.00979(17) 0.52696(16)
C61 C 0.7655(4) -0.0298(2) 0.4546(2)
H43 H 0.6775 -0.0312 0.4729
C62 C 1.1714(4) 0.0457(2) 0.6216(2)
H44 H 1.2206 0.0575 0.6542
C55A C 0.9531(3) -0.0466(2) 0.3438(2)
H40A H 0.9896 -0.0584 0.2900
C56A C 1.0283(4) -0.0283(2) 0.39508(19)
C57A C 1.1549(4) -0.0238(2) 0.3684(2)
H41A H 1.1956 -0.0352 0.3150
C58A C 1.2231(3) -0.00473(19) 0.41239(19)
H42A H 1.3105 -0.0015 0.3895
C59A C 1.1688(4) 0.01198(19) 0.4962(2)
C60A C 0.9687(3) -0.00979(17) 0.47304(16)
C61A C 1.2345(4) 0.0298(2) 0.5454(2)
H43A H 1.3225 0.0312 0.5271
C62A C 0.8286(4) -0.0457(2) 0.3784(2)
H44A H 0.7794 -0.0575 0.3458
Cl1 Cl -0.16778(8) 0.79610(6) 0.17520(5)
C63 C -0.0459(3) 0.76508(18) 0.21139(17)
C64 C -0.0658(3) 0.70306(19) 0.27202(17)
H45 H -0.1451 0.6780 0.2946
C65 C 0.0317(3) 0.67846(19) 0.29900(17)
H46 H 0.0195 0.6354 0.3402
C66 C 0.1472(3) 0.7153(2) 0.26715(19)
H47 H 0.2140 0.6977 0.2860
C67 C 0.1639(3) 0.7785(2) 0.20695(19)
H48 H 0.2427 0.8048 0.1850
C68 C 0.0674(3) 0.80339(19) 0.17891(17)
H49 H 0.0791 0.8464 0.1377
loop_
_geom_bond_atom_site_label_1
_geom_bond_atom_site_label_2
_geom_bond_site_symmetry_1
_geom_bond_site_symmetry_2
Zn1 N1 1_555 1_555
Zn2 N4 1_555 1_555
N1 C1 1_555 1_555
N2 C6 1_555 1_555
C1 H1 1_555 1_555
C2 C1 1_555 1_555
H2 C2 1_555 1_555
C3 C2 1_555 1_555
C4 C3 1_555 1_555
H3 C4 1_555 1_555
C5 N1 1_555 1_555
H4 C5 1_555 1_555
C6 H5 1_555 1_555
C7 C6 1_555 1_555
H6 C7 1_555 1_555
C8 C3 1_555 1_555
C9 C8 1_555 1_555
H7 C9 1_555 1_555
C10 N2 1_555 1_555
H8 C10 1_555 1_555
N3 Zn1 1_555 1_555
N4 C16 1_555 1_555
C11 N3 1_555 1_555
H9 C11 1_555 1_555
C12 C11 1_555 1_555
H10 C12 1_555 1_555
C13 C12 1_555 1_555
C14 C13 1_555 1_555
H11 C14 1_555 1_555
C15 N3 1_555 1_555
H12 C15 1_555 1_555
C16 H13 1_555 1_555
C17 C16 1_555 1_555
H14 C17 1_555 1_555
C18 C13 1_555 1_555
C19 C18 1_555 1_555
H15 C19 1_555 1_555
C20 N4 1_555 1_555
H16 C20 1_555 1_555
N5 Zn2 1_555 1_555
N6 C26 1_555 1_555
C21 N5 1_555 1_555
H17 C21 1_555 1_555
C22 C21 1_555 1_555
H18 C22 1_555 1_555
C23 C22 1_555 1_555
C24 C23 1_555 1_555
H19 C24 1_555 1_555
C25 N5 1_555 1_555
H20 C25 1_555 1_555
C26 H21 1_555 1_555
C27 C26 1_555 1_555
H22 C27 1_555 1_555
C28 C23 1_555 1_555
C29 C28 1_555 1_555
H23 C29 1_555 1_555
C30 N6 1_555 1_555
H24 C30 1_555 1_555
N7 O1 1_555 1_555
O1 Zn2 1_555 1_555
O2 Zn2 1_555 1_555
O3 N7 1_555 1_555
N8 O4 1_555 1_555
O4 Zn1 1_555 1_555
O5 Zn1 1_555 1_555
O6 N8 1_555 1_555
N9 O7 1_555 1_555
O7 Zn1 1_555 1_555
O8 N9 1_555 1_555
O9 Zn1 1_555 1_555
N10 O10 1_555 1_555
O10 Zn2 1_555 1_555
O11 Zn2 1_555 1_555
O12 N10 1_555 1_555
C31 H25 1_555 1_555
C32 C31 1_555 1_555
H26 C32 1_555 1_555
C33 C32 1_555 1_555
C34 C33 1_555 1_555
C35 C31 1_555 1_555
C36 C35 1_555 1_555
H27 C36 1_555 1_555
C37 C36 1_555 1_555
H28 C37 1_555 1_555
C38 C33 1_555 1_555
H29 C38 1_555 1_555
C39 H30 1_555 1_555
C40 C39 1_555 1_555
H31 C40 1_555 1_555
C41 C40 1_555 1_555
C42 C41 1_555 1_555
H32 C42 1_555 1_555
C43 C42 1_555 1_555
H33 C43 1_555 1_555
C44 C43 1_555 1_555
H34 C44 1_555 1_555
C45 C39 1_555 1_555
C46 C41 1_555 1_555
C47 H35 1_555 1_555
C48 C47 1_555 1_555
H36 C48 1_555 1_555
C49 C48 1_555 1_555
C50 C49 1_555 1_555
C51 C47 1_555 1_555
C52 C51 1_555 1_555
H37 C52 1_555 1_555
C53 C52 1_555 1_555
H38 C53 1_555 1_555
C54 C49 1_555 1_555
H39 C54 1_555 1_555
C55 H40 1_555 1_555
C56 C55 1_555 1_555
C57 C56 1_555 1_555
H41 C57 1_555 1_555
C58 C57 1_555 1_555
H42 C58 1_555 1_555
C59 C58 1_555 1_555
C60 C56 1_555 1_555
C61 C59 1_555 1_555
H43 C61 1_555 1_555
C62 C55 1_555 1_555
H44 C62 1_555 1_555
Cl1 C63 1_555 1_555
C63 C64 1_555 1_555
C64 H45 1_555 1_555
C65 C64 1_555 1_555
H46 C65 1_555 1_555
C66 C65 1_555 1_555
H47 C66 1_555 1_555
C67 C66 1_555 1_555
H48 C67 1_555 1_555
C68 C63 1_555 1_555
H49 C68 1_555 1_555
Zn1_2 N1_2 1_555 1_555
Zn1_3 N2 1_555 1_555
Zn2_2 N4_2 1_555 1_555
Zn2_3 N6 1_555 1_555
N1_2 C1_2 1_555 1_555
N2_2 Zn1 1_555 1_555
N2_3 Zn1_2 1_555 1_555
C1_2 H1_2 1_555 1_555
C2_2 C1_2 1_555 1_555
H2_2 C2_2 1_555 1_555
C3_2 C2_2 1_555 1_555
C4_2 C3_2 1_555 1_555
H3_2 C4_2 1_555 1_555
C5_2 N1_2 1_555 1_555
H4_2 C5_2 1_555 1_555
C6_2 N2_2 1_555 1_555
H5_2 C6_2 1_555 1_555
C7_2 C6_2 1_555 1_555
H6_2 C7_2 1_555 1_555
C8_2 C3_2 1_555 1_555
C9_2 C8_2 1_555 1_555
H7_2 C9_2 1_555 1_555
C10_2 N2_2 1_555 1_555
H8_2 C10_2 1_555 1_555
N3_2 Zn1_2 1_555 1_555
N4_2 C16_2 1_555 1_555
C11_2 N3_2 1_555 1_555
H9_2 C11_2 1_555 1_555
C12_2 C11_2 1_555 1_555
H10_2 C12_2 1_555 1_555
C13_2 C12_2 1_555 1_555
C14_2 C13_2 1_555 1_555
H11_2 C14_2 1_555 1_555
C15_2 N3_2 1_555 1_555
H12_2 C15_2 1_555 1_555
C16_2 H13_2 1_555 1_555
C17_2 C16_2 1_555 1_555
H14_2 C17_2 1_555 1_555
C18_2 C13_2 1_555 1_555
C19_2 C18_2 1_555 1_555
H15_2 C19_2 1_555 1_555
C20_2 N4_2 1_555 1_555
H16_2 C20_2 1_555 1_555
N5_2 Zn2_2 1_555 1_555
N6_2 Zn2 1_555 1_555
N6_3 Zn2_2 1_555 1_555
C21_2 N5_2 1_555 1_555
H17_2 C21_2 1_555 1_555
C22_2 C21_2 1_555 1_555
H18_2 C22_2 1_555 1_555
C23_2 C22_2 1_555 1_555
C24_2 C23_2 1_555 1_555
H19_2 C24_2 1_555 1_555
C25_2 N5_2 1_555 1_555
H20_2 C25_2 1_555 1_555
C26_2 N6_2 1_555 1_555
H21_2 C26_2 1_555 1_555
C27_2 C26_2 1_555 1_555
H22_2 C27_2 1_555 1_555
C28_2 C23_2 1_555 1_555
C29_2 C28_2 1_555 1_555
H23_2 C29_2 1_555 1_555
C30_2 N6_2 1_555 1_555
H24_2 C30_2 1_555 1_555
N7_2 O1_2 1_555 1_555
O1_2 Zn2_2 1_555 1_555
O2_2 Zn2_2 1_555 1_555
O3_2 N7_2 1_555 1_555
N8_2 O4_2 1_555 1_555
O4_2 Zn1_2 1_555 1_555
O5_2 Zn1_2 1_555 1_555
O6_2 N8_2 1_555 1_555
N9_2 O7_2 1_555 1_555
O7_2 Zn1_2 1_555 1_555
O8_2 N9_2 1_555 1_555
O9_2 Zn1_2 1_555 1_555
N10_2 O10_2 1_555 1_555
O10_2 Zn2_2 1_555 1_555
O11_2 Zn2_2 1_555 1_555
O12_2 N10_2 1_555 1_555
C31A H25A 1_555 1_555
C32A C31A 1_555 1_555
H26A C32A 1_555 1_555
C33A C32A 1_555 1_555
C34A C34 1_555 1_555
C35A C34 1_555 1_555
C36A C35A 1_555 1_555
H27A C36A 1_555 1_555
C37A C38 1_555 1_555
H28A C37A 1_555 1_555
C38A C37 1_555 1_555
H29A C38A 1_555 1_555
C39A H30A 1_555 1_555
C40A C39A 1_555 1_555
H31A C40A 1_555 1_555
C41A C40A 1_555 1_555
C42A C41A 1_555 1_555
H32A C42A 1_555 1_555
C43A C42A 1_555 1_555
H33A C43A 1_555 1_555
C44A C45 1_555 1_555
H34A C44A 1_555 1_555
C45A C44 1_555 1_555
C46A C45 1_555 1_555
C47A H35A 1_555 1_555
C48A C47A 1_555 1_555
H36A C48A 1_555 1_555
C49A C48A 1_555 1_555
C50A C50 1_555 1_555
C51A C50 1_555 1_555
C52A C51A 1_555 1_555
H37A C52A 1_555 1_555
C53A C54 1_555 1_555
H38A C53A 1_555 1_555
C54A C53 1_555 1_555
H39A C54A 1_555 1_555
C55A H40A 1_555 1_555
C56A C55A 1_555 1_555
C57A C56A 1_555 1_555
H41A C57A 1_555 1_555
C58A C57A 1_555 1_555
H42A C58A 1_555 1_555
C59A C60 1_555 1_555
C60A C59 1_555 1_555
C61A C62 1_555 1_555
H43A C61A 1_555 1_555
C62A C61 1_555 1_555
H44A C62A 1_555 1_555
C4 C5 1_555 1_555
C7 C8 1_555 1_555
C9 C10 1_555 1_555
C14 C15 1_555 1_555
C17 C18 1_555 1_555
C19 C20 1_555 1_555
C24 C25 1_555 1_555
C27 C28 1_555 1_555
C29 C30 1_555 1_555
N7 O2 1_555 1_555
N8 O5 1_555 1_555
N9 O9 1_555 1_555
N10 O11 1_555 1_555
C35 C34A 1_555 1_555
C46 C45A 1_555 1_555
C46 C46A 1_555 1_555
C51 C50A 1_555 1_555
C60 C60A 1_555 1_555
C67 C68 1_555 1_555
C4_2 C5_2 1_555 1_555
C7_2 C8_2 1_555 1_555
C9_2 C10_2 1_555 1_555
C14_2 C15_2 1_555 1_555
C17_2 C18_2 1_555 1_555
C19_2 C20_2 1_555 1_555
C24_2 C25_2 1_555 1_555
C27_2 C28_2 1_555 1_555
C29_2 C30_2 1_555 1_555
N7_2 O2_2 1_555 1_555
N8_2 O5_2 1_555 1_555
N9_2 O9_2 1_555 1_555
N10_2 O11_2 1_555 1_555
C31A C35A 1_555 1_555
C33A C34A 1_555 1_555
C33A C38A 1_555 1_555
C36A C37A 1_555 1_555
C39A C45A 1_555 1_555
C41A C46A 1_555 1_555
C43A C44A 1_555 1_555
C47A C51A 1_555 1_555
C49A C50A 1_555 1_555
C49A C54A 1_555 1_555
C52A C53A 1_555 1_555
C55A C62A 1_555 1_555
C56A C60A 1_555 1_555
C58A C59A 1_555 1_555
C59A C61A 1_555 1_555

#END
