
#######################################################################
#
#                 Cambridge Crystallographic Data Centre
#                                CCDC 
#
#######################################################################
#
# If this CIF has been generated from an entry in the Cambridge 
# Structural Database, then it will include bibliographic, chemical, 
# crystal, experimental, refinement or atomic coordinate data resulting 
# from the CCDC's data processing and validation procedures.
#
#######################################################################

data_XIJQUD
_symmetry_cell_setting           monoclinic
_symmetry_space_group_name_H-M   'C 2/c'
_symmetry_Int_Tables_number      15
_space_group_name_Hall           '-C 2yn'
loop_
_symmetry_equiv_pos_site_id
_symmetry_equiv_pos_as_xyz
1 x,y,z
2 1/2+x,1/2+y,z
3 -x,y,1/2-z
4 1/2-x,1/2+y,1/2-z
5 -x,-y,-z
6 1/2-x,1/2-y,-z
7 x,-y,1/2+z
8 1/2+x,1/2-y,1/2+z
_cell_length_a                   16.5243(17)
_cell_length_b                   11.4671(11)
_cell_length_c                   22.731(2)
_cell_angle_alpha                90
_cell_angle_beta                 99.120(2)
_cell_angle_gamma                90
_cell_volume                     4252.75
loop_
_atom_site_label
_atom_site_type_symbol
_atom_site_fract_x
_atom_site_fract_y
_atom_site_fract_z
Zn1 Zn 0.0000 0.49292(3) 0.2500
N1 N 0.00254(11) 0.49230(15) 0.15671(8)
C1 C -0.05263(14) 0.4312(2) 0.11936(10)
H1 H -0.0915 0.3852 0.1356
C2 C -0.05557(14) 0.4323(2) 0.05827(10)
H2 H -0.0960 0.3879 0.0336
C3 C 0.00064(14) 0.49830(18) 0.03274(10)
C4 C 0.05748(14) 0.5616(2) 0.07206(10)
H3 H 0.0972 0.6081 0.0571
C5 C 0.05637(13) 0.55725(19) 0.13230(10)
H4 H 0.0954 0.6022 0.1579
N2 N 0.0000 0.3043(2) 0.2500
N3 N 0.0000 -0.3152(2) 0.2500
C6 C 0.06451(14) 0.2433(2) 0.23751(10)
H5 H 0.1107 0.2850 0.2284
C7 C 0.06700(14) 0.1231(2) 0.23721(10)
H6 H 0.1142 0.0838 0.2283
C8 C 0.0000 0.0594(3) 0.2500
C9 C 0.07000(14) -0.2538(2) 0.26252(10)
H7 H 0.1201 -0.2953 0.2720
C10 C 0.07269(14) -0.1333(2) 0.26227(10)
H8 H 0.1238 -0.0939 0.2704
C11 C 0.0000 -0.0700(3) 0.2500
N4 N 0.19758(12) 0.50150(16) 0.25261(9)
O1 O 0.13181(9) 0.49302(13) 0.27541(7)
O2 O 0.21213(11) 0.43001(15) 0.21472(8)
O3 O 0.24542(11) 0.58193(16) 0.26988(8)
Zn1_2 Zn 0.0000 -0.50708(3) 0.2500
Zn1F Zn 0.0000 0.50708(3) -0.2500
N1D N -0.00254(11) 0.50770(15) -0.15671(8)
N1B N -0.00254(11) 0.49230(15) 0.34329(8)
C1D C 0.05263(14) 0.5688(2) -0.11936(10)
H1D H 0.0915 0.6148 -0.1356
C2D C 0.05557(14) 0.5677(2) -0.05827(10)
H2D H 0.0960 0.6121 -0.0336
C3D C -0.00064(14) 0.50170(18) -0.03274(10)
C4D C -0.05748(14) 0.4384(2) -0.07206(10)
H3D H -0.0972 0.3919 -0.0571
C5D C -0.05637(13) 0.44275(19) -0.13230(10)
H4D H -0.0954 0.3978 -0.1579
N3_2 N 0.0000 0.6848(2) 0.2500
C6B C -0.06451(14) 0.2433(2) 0.26249(10)
H5B H -0.1107 0.2850 0.2716
C7B C -0.06700(14) 0.1231(2) 0.26279(10)
H6B H -0.1142 0.0838 0.2717
C9B C -0.07000(14) -0.2538(2) 0.23748(10)
H7B H -0.1201 -0.2953 0.2280
C10B C -0.07269(14) -0.1333(2) 0.23773(10)
H8B H -0.1238 -0.0939 0.2296
N4B N -0.19758(12) 0.50150(16) 0.24739(9)
O1B O -0.13181(9) 0.49302(13) 0.22459(7)
O2B O -0.21213(11) 0.43001(15) 0.28528(8)
O3B O -0.24542(11) 0.58193(16) 0.23012(8)
C12 C 0.20222(15) 0.9575(2) 0.01631(11)
H9 H 0.1865 1.0290 0.0323
C13 C 0.22444(14) 0.8600(2) 0.05571(11)
C14 C 0.22285(15) 0.8665(2) 0.11689(11)
H10 H 0.2069 0.9371 0.1337
C15 C 0.24431(15) 0.7707(2) 0.15339(11)
H11 H 0.2421 0.7761 0.1948
C16 C 0.26901(15) 0.6672(2) 0.12997(11)
H12 H 0.2840 0.6028 0.1556
C17 C 0.27207(14) 0.6566(2) 0.06906(10)
C18 C 0.20338(15) 0.9489(2) -0.04277(11)
H13 H 0.1876 1.0143 -0.0676
C19 C 0.24916(13) 0.7544(2) 0.03126(10)
C12E C 0.29778(15) 0.5425(2) -0.01631(11)
H9E H 0.3135 0.4710 -0.0323
C13E C 0.27556(14) 0.6400(2) -0.05571(11)
C14E C 0.27715(15) 0.6335(2) -0.11689(11)
H10E H 0.2931 0.5629 -0.1337
C15E C 0.25569(15) 0.7293(2) -0.15339(11)
H11E H 0.2579 0.7239 -0.1948
C16E C 0.23099(15) 0.8328(2) -0.12997(11)
H12E H 0.2160 0.8972 -0.1556
C17E C 0.22793(14) 0.8434(2) -0.06906(10)
C18E C 0.29662(15) 0.5511(2) 0.04277(11)
H13E H 0.3124 0.4857 0.0676
C19E C 0.25084(13) 0.7456(2) -0.03126(10)
Cl1 Cl 0.85065(4) 0.70147(6) 1.08959(3)
Cl2 Cl 1.00576(4) 0.86531(6) 1.09953(3)
C20 C 0.88690(16) 0.7481(2) 1.02610(11)
C21 C 0.95645(16) 0.8187(2) 1.03037(11)
C22 C 0.98603(17) 0.8531(2) 0.97973(12)
H14 H 1.0337 0.9004 0.9826
C23 C 0.94527(18) 0.8179(2) 0.92461(12)
H15 H 0.9650 0.8424 0.8896
C24 C 0.87694(17) 0.7483(2) 0.91964(12)
H16 H 0.8495 0.7253 0.8815
C25 C 0.84819(16) 0.7118(2) 0.97065(12)
H17 H 0.8019 0.6619 0.9676
loop_
_geom_bond_atom_site_label_1
_geom_bond_atom_site_label_2
_geom_bond_site_symmetry_1
_geom_bond_site_symmetry_2
Zn1 N1 1_555 1_555
N1 C1 1_555 1_555
C1 H1 1_555 1_555
C2 C1 1_555 1_555
H2 C2 1_555 1_555
C3 C2 1_555 1_555
C4 C3 1_555 1_555
H3 C4 1_555 1_555
C5 N1 1_555 1_555
H4 C5 1_555 1_555
N2 Zn1 1_555 1_555
N3 C9 1_555 1_555
C6 N2 1_555 1_555
H5 C6 1_555 1_555
C7 C6 1_555 1_555
H6 C7 1_555 1_555
C8 C7 1_555 1_555
C9 H7 1_555 1_555
C10 C9 1_555 1_555
H8 C10 1_555 1_555
C11 C8 1_555 1_555
N4 O1 1_555 1_555
O1 Zn1 1_555 1_555
O2 N4 1_555 1_555
O3 N4 1_555 1_555
C12 H9 1_555 1_555
C13 C12 1_555 1_555
C14 C13 1_555 1_555
H10 C14 1_555 1_555
C15 C14 1_555 1_555
H11 C15 1_555 1_555
C16 C15 1_555 1_555
H12 C16 1_555 1_555
C17 C16 1_555 1_555
C18 C12 1_555 1_555
H13 C18 1_555 1_555
C19 C13 1_555 1_555
Cl1 C20 1_555 1_555
Cl2 C21 1_555 1_555
C20 C21 1_555 1_555
C21 C22 1_555 1_555
C22 H14 1_555 1_555
C23 C22 1_555 1_555
H15 C23 1_555 1_555
C24 C23 1_555 1_555
H16 C24 1_555 1_555
C25 C20 1_555 1_555
H17 C25 1_555 1_555
Zn1_2 N3 1_555 1_555
Zn1F N1D 1_555 1_555
N1D C1D 1_555 1_555
N1B Zn1 1_555 1_555
C1D H1D 1_555 1_555
C2D C1D 1_555 1_555
H2D C2D 1_555 1_555
C3D C3 1_555 1_555
C4D C3D 1_555 1_555
H3D C4D 1_555 1_555
C5D N1D 1_555 1_555
H4D C5D 1_555 1_555
N3_2 Zn1 1_555 1_555
C6B N2 1_555 1_555
H5B C6B 1_555 1_555
C7B C8 1_555 1_555
H6B C7B 1_555 1_555
C9B N3 1_555 1_555
H7B C9B 1_555 1_555
C10B C11 1_555 1_555
H8B C10B 1_555 1_555
N4B O1B 1_555 1_555
O1B Zn1 1_555 1_555
O2B N4B 1_555 1_555
O3B N4B 1_555 1_555
C12E H9E 1_555 1_555
C13E C12E 1_555 1_555
C14E C13E 1_555 1_555
H10E C14E 1_555 1_555
C15E C14E 1_555 1_555
H11E C15E 1_555 1_555
C16E C15E 1_555 1_555
H12E C16E 1_555 1_555
C17E C18 1_555 1_555
C18E C17 1_555 1_555
H13E C18E 1_555 1_555
C19E C19 1_555 1_555
C4 C5 1_555 1_555
C10 C11 1_555 1_555
C17 C19 1_555 1_555
C24 C25 1_555 1_555
C2D C3D 1_555 1_555
C4D C5D 1_555 1_555
C6B C7B 1_555 1_555
C9B C10B 1_555 1_555
C12E C18E 1_555 1_555
C13E C19E 1_555 1_555
C16E C17E 1_555 1_555
C17E C19E 1_555 1_555

#END
