
#######################################################################
#
#                 Cambridge Crystallographic Data Centre
#                                CCDC 
#
#######################################################################
#
# If this CIF has been generated from an entry in the Cambridge 
# Structural Database, then it will include bibliographic, chemical, 
# crystal, experimental, refinement or atomic coordinate data resulting 
# from the CCDC's data processing and validation procedures.
#
#######################################################################

data_XIJQEN
_symmetry_cell_setting           triclinic
_symmetry_space_group_name_H-M   'P -1'
_symmetry_Int_Tables_number      2
_space_group_name_Hall           '-P 1'
loop_
_symmetry_equiv_pos_site_id
_symmetry_equiv_pos_as_xyz
1 x,y,z
2 -x,-y,-z
_cell_length_a                   11.3503(9)
_cell_length_b                   15.1148(12)
_cell_length_c                   18.0032(14)
_cell_angle_alpha                87.766(2)
_cell_angle_beta                 72.397(2)
_cell_angle_gamma                87.527(2)
_cell_volume                     2940.13
loop_
_atom_site_label
_atom_site_type_symbol
_atom_site_fract_x
_atom_site_fract_y
_atom_site_fract_z
Zn1 Zn 0.45513(3) 0.754510(17) 0.557502(16)
Zn2 Zn 0.58380(3) 0.743159(18) -0.091155(16)
O1 O 0.46535(17) 0.89832(12) 0.55559(10)
O2 O 0.39858(18) 0.84725(12) 0.67373(12)
O3 O 0.46031(17) 0.60070(12) 0.55205(10)
O4 O 0.41444(17) 0.66472(11) 0.66209(10)
O5 O 0.44517(19) 0.98535(12) 0.65180(11)
O6 O 0.4270(2) 0.52086(12) 0.65866(12)
O7 O 0.57275(19) 0.89416(15) -0.09209(11)
O8 O 0.63609(19) 0.83934(15) -0.20469(14)
O9 O 0.58055(17) 0.59020(12) -0.07592(10)
O10 O 0.64298(17) 0.65088(12) -0.19068(11)
O11 O 0.6108(2) 0.98160(14) -0.19312(13)
O12 O 0.63814(19) 0.50732(12) -0.17740(12)
N1 N 0.50130(19) 0.75416(13) 0.43211(11)
N2 N 0.52952(19) 0.75124(13) 0.03395(11)
N3 N 0.64132(19) 0.75211(13) 0.55864(12)
N4 N 1.26419(19) 0.75885(13) 0.56220(12)
N5 N 0.77418(19) 0.73413(13) -0.09348(12)
N6 N 1.40101(19) 0.74321(13) -0.09670(11)
N7 N 0.4358(2) 0.91211(13) 0.62859(13)
N8 N 0.43425(19) 0.59312(13) 0.62533(12)
N9 N 0.6068(2) 0.90741(14) -0.16511(13)
N10 N 0.62059(19) 0.58098(14) -0.14880(13)
C1 C 0.5297(2) 0.67986(16) 0.39054(14)
H1 H 0.5484 0.6267 0.4153
C2 C 0.5329(2) 0.67780(15) 0.31331(14)
H2 H 0.5531 0.6240 0.2860
C3 C 0.5064(2) 0.75514(15) 0.27564(14)
C4 C 0.4799(2) 0.83179(16) 0.31813(14)
H3 H 0.4634 0.8862 0.2944
C5 C 0.4777(2) 0.82859(16) 0.39511(14)
H4 H 0.4584 0.8817 0.4235
C6 C 0.5549(2) 0.82431(16) 0.06609(15)
H5 H 0.5801 0.8754 0.0335
C7 C 0.5461(3) 0.82848(16) 0.14375(14)
H6 H 0.5648 0.8815 0.1639
C8 C 0.5096(2) 0.75450(15) 0.19269(14)
C9 C 0.4795(2) 0.68011(16) 0.16024(14)
H7 H 0.4514 0.6289 0.1919
C10 C 0.4906(2) 0.68092(16) 0.08175(14)
H8 H 0.4698 0.6294 0.0605
C11 C 0.7364(2) 0.75162(17) 0.49241(14)
H9 H 0.7187 0.7478 0.4443
C12 C 0.8578(2) 0.75628(16) 0.49073(15)
H10 H 0.9218 0.7553 0.4424
C13 C 0.8869(2) 0.76243(15) 0.56012(14)
C14 C 0.7890(2) 0.76482(18) 0.62840(15)
H11 H 0.8041 0.7699 0.6771
C15 C 0.6692(2) 0.75977(17) 0.62526(15)
H12 H 0.6035 0.7618 0.6727
C16 C 1.2290(2) 0.71525(16) 0.50913(15)
H13 H 1.2899 0.6814 0.4721
C17 C 1.1092(2) 0.71719(16) 0.50573(15)
H14 H 1.0898 0.6868 0.4659
C18 C 1.0169(2) 0.76349(15) 0.56047(14)
C19 C 1.0530(2) 0.80858(16) 0.61624(14)
H15 H 0.9934 0.8414 0.6549
C20 C 1.1756(2) 0.80506(16) 0.61470(14)
H16 H 1.1983 0.8368 0.6525
C21 C 0.8106(2) 0.71078(16) -0.03092(15)
H17 H 0.7494 0.6937 0.0158
C22 C 0.9320(2) 0.71022(16) -0.03075(15)
H18 H 0.9523 0.6944 0.0156
C23 C 1.0247(2) 0.73292(15) -0.09853(14)
C24 C 0.9881(2) 0.75360(17) -0.16446(14)
H19 H 1.0481 0.7673 -0.2128
C25 C 0.8642(2) 0.75410(18) -0.15940(15)
H20 H 0.8414 0.7694 -0.2050
C26 C 1.3043(2) 0.76141(16) -0.03340(14)
H21 H 1.3212 0.7770 0.0129
C27 C 1.1829(2) 0.75870(16) -0.03209(14)
H22 H 1.1184 0.7716 0.0143
C28 C 1.1552(2) 0.73685(15) -0.09936(14)
C29 C 1.2537(2) 0.71962(16) -0.16525(14)
H23 H 1.2393 0.7056 -0.2127
C30 C 1.3735(2) 0.72306(16) -0.16137(14)
H24 H 1.4398 0.7105 -0.2070
Zn1_2 Zn -0.54487(3) 0.754510(17) 0.557502(16)
Zn1_3 Zn 1.45513(3) 0.754510(17) 0.557502(16)
Zn2_2 Zn -0.41620(3) 0.743159(18) -0.091155(16)
Zn2_3 Zn 1.58380(3) 0.743159(18) -0.091155(16)
O1_2 O -0.53465(17) 0.89832(12) 0.55559(10)
O2_2 O -0.60142(18) 0.84725(12) 0.67373(12)
O3_2 O -0.53969(17) 0.60070(12) 0.55205(10)
O4_2 O -0.58556(17) 0.66472(11) 0.66209(10)
O5_2 O -0.55483(19) 0.98535(12) 0.65180(11)
O6_2 O -0.5730(2) 0.52086(12) 0.65866(12)
O7_2 O -0.42725(19) 0.89416(15) -0.09209(11)
O8_2 O -0.36391(19) 0.83934(15) -0.20469(14)
O9_2 O -0.41945(17) 0.59020(12) -0.07592(10)
O10_2 O -0.35702(17) 0.65088(12) -0.19068(11)
O11_2 O -0.3892(2) 0.98160(14) -0.19312(13)
O12_2 O -0.36186(19) 0.50732(12) -0.17740(12)
N1_2 N -0.49870(19) 0.75416(13) 0.43211(11)
N2_2 N -0.47048(19) 0.75124(13) 0.03395(11)
N3_2 N -0.35868(19) 0.75211(13) 0.55864(12)
N4_2 N 0.26419(19) 0.75885(13) 0.56220(12)
N4_3 N -0.73581(19) 0.75885(13) 0.56220(12)
N5_2 N -0.22582(19) 0.73413(13) -0.09348(12)
N6_2 N 0.40101(19) 0.74321(13) -0.09670(11)
N6_3 N -0.59899(19) 0.74321(13) -0.09670(11)
N7_2 N -0.5642(2) 0.91211(13) 0.62859(13)
N8_2 N -0.56575(19) 0.59312(13) 0.62533(12)
N9_2 N -0.3932(2) 0.90741(14) -0.16511(13)
N10_2 N -0.37941(19) 0.58098(14) -0.14880(13)
C1_2 C -0.4703(2) 0.67986(16) 0.39054(14)
H1_2 H -0.4516 0.6267 0.4153
C2_2 C -0.4671(2) 0.67780(15) 0.31331(14)
H2_2 H -0.4469 0.6240 0.2860
C3_2 C -0.4936(2) 0.75514(15) 0.27564(14)
C4_2 C -0.5201(2) 0.83179(16) 0.31813(14)
H3_2 H -0.5366 0.8862 0.2944
C5_2 C -0.5223(2) 0.82859(16) 0.39511(14)
H4_2 H -0.5416 0.8817 0.4235
C6_2 C -0.4451(2) 0.82431(16) 0.06609(15)
H5_2 H -0.4199 0.8754 0.0335
C7_2 C -0.4539(3) 0.82848(16) 0.14375(14)
H6_2 H -0.4352 0.8815 0.1639
C8_2 C -0.4904(2) 0.75450(15) 0.19269(14)
C9_2 C -0.5205(2) 0.68011(16) 0.16024(14)
H7_2 H -0.5486 0.6289 0.1919
C10_2 C -0.5094(2) 0.68092(16) 0.08175(14)
H8_2 H -0.5302 0.6294 0.0605
C11_2 C -0.2636(2) 0.75162(17) 0.49241(14)
H9_2 H -0.2813 0.7478 0.4443
C12_2 C -0.1422(2) 0.75628(16) 0.49073(15)
H10_2 H -0.0782 0.7553 0.4424
C13_2 C -0.1131(2) 0.76243(15) 0.56012(14)
C14_2 C -0.2110(2) 0.76482(18) 0.62840(15)
H11_2 H -0.1959 0.7699 0.6771
C15_2 C -0.3308(2) 0.75977(17) 0.62526(15)
H12_2 H -0.3965 0.7618 0.6727
C16_2 C 0.2290(2) 0.71525(16) 0.50913(15)
H13_2 H 0.2899 0.6814 0.4721
C17_2 C 0.1092(2) 0.71719(16) 0.50573(15)
H14_2 H 0.0898 0.6868 0.4659
C18_2 C 0.0169(2) 0.76349(15) 0.56047(14)
C19_2 C 0.0530(2) 0.80858(16) 0.61624(14)
H15_2 H -0.0066 0.8414 0.6549
C20_2 C 0.1756(2) 0.80506(16) 0.61470(14)
H16_2 H 0.1983 0.8368 0.6525
C21_2 C -0.1894(2) 0.71078(16) -0.03092(15)
H17_2 H -0.2506 0.6937 0.0158
C22_2 C -0.0680(2) 0.71022(16) -0.03075(15)
H18_2 H -0.0477 0.6944 0.0156
C23_2 C 0.0247(2) 0.73292(15) -0.09853(14)
C24_2 C -0.0119(2) 0.75360(17) -0.16446(14)
H19_2 H 0.0481 0.7673 -0.2128
C25_2 C -0.1358(2) 0.75410(18) -0.15940(15)
H20_2 H -0.1586 0.7694 -0.2050
C26_2 C 0.3043(2) 0.76141(16) -0.03340(14)
H21_2 H 0.3212 0.7770 0.0129
C27_2 C 0.1829(2) 0.75870(16) -0.03209(14)
H22_2 H 0.1184 0.7716 0.0143
C28_2 C 0.1552(2) 0.73685(15) -0.09936(14)
C29_2 C 0.2537(2) 0.71962(16) -0.16525(14)
H23_2 H 0.2393 0.7056 -0.2127
C30_2 C 0.3735(2) 0.72306(16) -0.16137(14)
H24_2 H 0.4398 0.7105 -0.2070
C31 C 1.0524(3) 0.05189(19) 0.65021(19)
H25 H 1.0152 0.0663 0.7033
C32 C 0.9771(3) 0.03116(18) 0.60355(17)
C33 C 1.0361(3) 0.01087(16) 0.52474(15)
C34 C 0.8463(3) 0.02754(19) 0.63306(18)
H26 H 0.8064 0.0405 0.6862
C35 C 0.7780(3) 0.00634(18) 0.58794(17)
H27 H 0.6909 0.0033 0.6103
C36 C 1.1681(3) 0.01211(17) 0.49339(18)
C37 C 1.2374(3) 0.03208(18) 0.54212(19)
H28 H 1.3251 0.0326 0.5225
C38 C 1.1783(3) 0.05116(19) 0.61913(19)
H29 H 1.2269 0.0643 0.6517
C31A C 0.9476(3) -0.05189(19) 0.34979(19)
H25A H 0.9848 -0.0663 0.2967
C32A C 1.0229(3) -0.03116(18) 0.39645(17)
C33A C 0.9639(3) -0.01087(16) 0.47526(15)
C34A C 1.1537(3) -0.02754(19) 0.36694(18)
H26A H 1.1936 -0.0405 0.3138
C35A C 1.2220(3) -0.00634(18) 0.41206(17)
H27A H 1.3091 -0.0033 0.3897
C36A C 0.8319(3) -0.01211(17) 0.50661(18)
C37A C 0.7626(3) -0.03208(18) 0.45788(19)
H28A H 0.6749 -0.0326 0.4775
C38A C 0.8217(3) -0.05116(19) 0.38087(19)
H29A H 0.7731 -0.0643 0.3483
C39 C 0.2822(3) 0.51561(16) 0.93773(16)
H30 H 0.3538 0.5271 0.9522
C40 C 0.1663(3) 0.51765(16) 0.99391(15)
C41 C 0.0593(2) 0.49925(15) 0.97196(14)
C42 C 0.0725(3) 0.47881(16) 0.89343(15)
C43 C 0.1904(3) 0.47835(17) 0.83918(16)
H31 H 0.2000 0.4650 0.7865
C44 C 0.2937(3) 0.49699(17) 0.86099(16)
H32 H 0.3729 0.4970 0.8231
C45 C -0.0380(3) 0.45967(17) 0.87375(15)
H33 H -0.0308 0.4455 0.8216
C46 C 0.1500(3) 0.53877(17) 1.07337(16)
H34 H 0.2202 0.5519 1.0888
C39A C -0.2822(3) 0.48439(16) 1.06227(16)
H30A H -0.3538 0.4729 1.0478
C40A C -0.1663(3) 0.48235(16) 1.00609(15)
C41A C -0.0593(2) 0.50075(15) 1.02804(14)
C42A C -0.0725(3) 0.52119(16) 1.10657(15)
C43A C -0.1904(3) 0.52165(17) 1.16082(16)
H31A H -0.2000 0.5350 1.2135
C44A C -0.2937(3) 0.50301(17) 1.13901(16)
H32A H -0.3729 0.5030 1.1769
C45A C 0.0380(3) 0.54033(17) 1.12625(15)
H33A H 0.0308 0.5545 1.1784
C46A C -0.1500(3) 0.46123(17) 0.92663(16)
H34A H -0.2202 0.4481 0.9112
C47 C 0.9576(3) 0.44515(19) 0.32272(18)
H35 H 0.9457 0.4284 0.2752
C48 C 0.8570(3) 0.47077(18) 0.38352(19)
H36 H 0.7770 0.4731 0.3769
C49 C 0.8710(3) 0.49341(16) 0.45504(17)
C50 C 0.9914(2) 0.49015(16) 0.46358(15)
C51 C 0.7674(3) 0.51575(17) 0.52169(19)
H37 H 0.6862 0.5174 0.5169
C52 C 0.7831(3) 0.53433(17) 0.59062(18)
H38 H 0.7129 0.5484 0.6335
C53 C 1.0949(3) 0.46671(16) 0.39945(17)
C54 C 1.0759(3) 0.44333(18) 0.32955(17)
H39 H 1.1445 0.4262 0.2867
C47A C 1.0424(3) 0.55485(19) 0.67728(18)
H35A H 1.0543 0.5716 0.7248
C48A C 1.1430(3) 0.52923(18) 0.61648(19)
H36A H 1.2230 0.5269 0.6231
C49A C 1.1290(3) 0.50659(16) 0.54496(17)
C50A C 1.0086(2) 0.50985(16) 0.53642(15)
C51A C 1.2326(3) 0.48425(17) 0.47831(19)
H37A H 1.3138 0.4826 0.4831
C52A C 1.2169(3) 0.46567(17) 0.40938(18)
H38A H 1.2871 0.4516 0.3665
C53A C 0.9051(3) 0.53329(16) 0.60055(17)
C54A C 0.9241(3) 0.55667(18) 0.67045(17)
H39A H 0.8555 0.5738 0.7133
C55 C 1.0498(3) -0.02471(17) -0.10675(16)
C56 C 0.9304(3) -0.02446(18) -0.11877(17)
H40 H 0.9255 -0.0352 -0.1694
C57 C 0.8253(3) -0.00943(18) -0.06070(17)
H41 H 0.7481 -0.0098 -0.0711
C58 C 0.8279(3) 0.00720(16) 0.01675(16)
C59 C 1.0555(2) -0.00783(16) -0.03073(15)
C60 C 0.7204(3) 0.02384(17) 0.07823(18)
H42 H 0.6422 0.0242 0.0691
C61 C 0.7262(3) 0.03983(17) 0.15214(17)
H43 H 0.6521 0.0504 0.1933
C62 C 1.1610(3) -0.04044(18) -0.16645(17)
H44 H 1.1585 -0.0517 -0.2175
C55A C 0.9502(3) 0.02471(17) 0.10675(16)
C56A C 1.0696(3) 0.02446(18) 0.11877(17)
H40A H 1.0745 0.0352 0.1694
C57A C 1.1747(3) 0.00943(18) 0.06070(17)
H41A H 1.2519 0.0098 0.0711
C58A C 1.1721(3) -0.00720(16) -0.01675(16)
C59A C 0.9445(2) 0.00783(16) 0.03073(15)
C60A C 1.2796(3) -0.02384(17) -0.07823(18)
H42A H 1.3578 -0.0242 -0.0691
C61A C 1.2738(3) -0.03983(17) -0.15214(17)
H43A H 1.3479 -0.0504 -0.1933
C62A C 0.8390(3) 0.04044(18) 0.16645(17)
H44A H 0.8415 0.0517 0.2175
C63 C 1.1147(4) 0.7270(3) 0.2468(2)
H45 H 1.1945 0.7175 0.2529
C64 C 1.0152(4) 0.6822(2) 0.29397(18)
H46 H 1.0258 0.6417 0.3333
C65 C 0.9005(4) 0.6965(2) 0.28394(19)
H47 H 0.8320 0.6655 0.3166
C66 C 0.8833(4) 0.7545(2) 0.2278(2)
H48 H 0.8034 0.7637 0.2216
C67 C 0.9813(4) 0.7992(2) 0.1805(2)
H49 H 0.9695 0.8392 0.1412
C68 C 1.0964(4) 0.7866(2) 0.1896(2)
H50 H 1.1640 0.8185 0.1570
loop_
_geom_bond_atom_site_label_1
_geom_bond_atom_site_label_2
_geom_bond_site_symmetry_1
_geom_bond_site_symmetry_2
Zn1 O1 1_555 1_555
Zn2 O7 1_555 1_555
O1 N7 1_555 1_555
O2 Zn1 1_555 1_555
O3 Zn1 1_555 1_555
O4 Zn1 1_555 1_555
O5 N7 1_555 1_555
O6 N8 1_555 1_555
O7 N9 1_555 1_555
O8 Zn2 1_555 1_555
O9 Zn2 1_555 1_555
O10 Zn2 1_555 1_555
O11 N9 1_555 1_555
O12 N10 1_555 1_555
N1 Zn1 1_555 1_555
N2 Zn2 1_555 1_555
N3 Zn1 1_555 1_555
N4 C16 1_555 1_555
N5 Zn2 1_555 1_555
N6 C26 1_555 1_555
N7 O2 1_555 1_555
N8 O3 1_555 1_555
N9 O8 1_555 1_555
N10 O9 1_555 1_555
C1 N1 1_555 1_555
H1 C1 1_555 1_555
C2 C1 1_555 1_555
H2 C2 1_555 1_555
C3 C2 1_555 1_555
C4 C3 1_555 1_555
H3 C4 1_555 1_555
C5 N1 1_555 1_555
H4 C5 1_555 1_555
C6 N2 1_555 1_555
H5 C6 1_555 1_555
C7 C6 1_555 1_555
H6 C7 1_555 1_555
C8 C3 1_555 1_555
C9 C8 1_555 1_555
H7 C9 1_555 1_555
C10 N2 1_555 1_555
H8 C10 1_555 1_555
C11 N3 1_555 1_555
H9 C11 1_555 1_555
C12 C11 1_555 1_555
H10 C12 1_555 1_555
C13 C12 1_555 1_555
C14 C13 1_555 1_555
H11 C14 1_555 1_555
C15 N3 1_555 1_555
H12 C15 1_555 1_555
C16 H13 1_555 1_555
C17 C16 1_555 1_555
H14 C17 1_555 1_555
C18 C13 1_555 1_555
C19 C18 1_555 1_555
H15 C19 1_555 1_555
C20 N4 1_555 1_555
H16 C20 1_555 1_555
C21 N5 1_555 1_555
H17 C21 1_555 1_555
C22 C21 1_555 1_555
H18 C22 1_555 1_555
C23 C22 1_555 1_555
C24 C23 1_555 1_555
H19 C24 1_555 1_555
C25 N5 1_555 1_555
H20 C25 1_555 1_555
C26 H21 1_555 1_555
C27 C26 1_555 1_555
H22 C27 1_555 1_555
C28 C23 1_555 1_555
C29 C28 1_555 1_555
H23 C29 1_555 1_555
C30 N6 1_555 1_555
H24 C30 1_555 1_555
C31 H25 1_555 1_555
C32 C31 1_555 1_555
C33 C32 1_555 1_555
C34 C32 1_555 1_555
H26 C34 1_555 1_555
C35 C34 1_555 1_555
H27 C35 1_555 1_555
C36 C33 1_555 1_555
C37 C36 1_555 1_555
H28 C37 1_555 1_555
C38 C31 1_555 1_555
H29 C38 1_555 1_555
C39 H30 1_555 1_555
C40 C39 1_555 1_555
C41 C40 1_555 1_555
C42 C41 1_555 1_555
C43 C42 1_555 1_555
H31 C43 1_555 1_555
C44 C39 1_555 1_555
H32 C44 1_555 1_555
C45 C42 1_555 1_555
H33 C45 1_555 1_555
C46 C40 1_555 1_555
H34 C46 1_555 1_555
C47 H35 1_555 1_555
C48 C47 1_555 1_555
H36 C48 1_555 1_555
C49 C48 1_555 1_555
C50 C49 1_555 1_555
C51 C49 1_555 1_555
H37 C51 1_555 1_555
C52 C51 1_555 1_555
H38 C52 1_555 1_555
C53 C50 1_555 1_555
C54 C47 1_555 1_555
H39 C54 1_555 1_555
C55 C56 1_555 1_555
C56 H40 1_555 1_555
C57 C56 1_555 1_555
H41 C57 1_555 1_555
C58 C57 1_555 1_555
C59 C55 1_555 1_555
C60 C58 1_555 1_555
H42 C60 1_555 1_555
C61 C60 1_555 1_555
H43 C61 1_555 1_555
C62 C55 1_555 1_555
H44 C62 1_555 1_555
C63 H45 1_555 1_555
C64 C63 1_555 1_555
H46 C64 1_555 1_555
C65 C64 1_555 1_555
H47 C65 1_555 1_555
C66 C65 1_555 1_555
H48 C66 1_555 1_555
C67 C66 1_555 1_555
H49 C67 1_555 1_555
C68 C63 1_555 1_555
H50 C68 1_555 1_555
Zn1_2 O1_2 1_555 1_555
Zn1_3 N4 1_555 1_555
Zn2_2 O7_2 1_555 1_555
Zn2_3 N6 1_555 1_555
O1_2 N7_2 1_555 1_555
O2_2 Zn1_2 1_555 1_555
O3_2 Zn1_2 1_555 1_555
O4_2 Zn1_2 1_555 1_555
O5_2 N7_2 1_555 1_555
O6_2 N8_2 1_555 1_555
O7_2 N9_2 1_555 1_555
O8_2 Zn2_2 1_555 1_555
O9_2 Zn2_2 1_555 1_555
O10_2 Zn2_2 1_555 1_555
O11_2 N9_2 1_555 1_555
O12_2 N10_2 1_555 1_555
N1_2 Zn1_2 1_555 1_555
N2_2 Zn2_2 1_555 1_555
N3_2 Zn1_2 1_555 1_555
N4_2 Zn1 1_555 1_555
N4_3 Zn1_2 1_555 1_555
N5_2 Zn2_2 1_555 1_555
N6_2 Zn2 1_555 1_555
N6_3 Zn2_2 1_555 1_555
N7_2 O2_2 1_555 1_555
N8_2 O3_2 1_555 1_555
N9_2 O8_2 1_555 1_555
N10_2 O9_2 1_555 1_555
C1_2 N1_2 1_555 1_555
H1_2 C1_2 1_555 1_555
C2_2 C1_2 1_555 1_555
H2_2 C2_2 1_555 1_555
C3_2 C2_2 1_555 1_555
C4_2 C3_2 1_555 1_555
H3_2 C4_2 1_555 1_555
C5_2 N1_2 1_555 1_555
H4_2 C5_2 1_555 1_555
C6_2 N2_2 1_555 1_555
H5_2 C6_2 1_555 1_555
C7_2 C6_2 1_555 1_555
H6_2 C7_2 1_555 1_555
C8_2 C3_2 1_555 1_555
C9_2 C8_2 1_555 1_555
H7_2 C9_2 1_555 1_555
C10_2 N2_2 1_555 1_555
H8_2 C10_2 1_555 1_555
C11_2 N3_2 1_555 1_555
H9_2 C11_2 1_555 1_555
C12_2 C11_2 1_555 1_555
H10_2 C12_2 1_555 1_555
C13_2 C12_2 1_555 1_555
C14_2 C13_2 1_555 1_555
H11_2 C14_2 1_555 1_555
C15_2 N3_2 1_555 1_555
H12_2 C15_2 1_555 1_555
C16_2 N4_2 1_555 1_555
H13_2 C16_2 1_555 1_555
C17_2 C16_2 1_555 1_555
H14_2 C17_2 1_555 1_555
C18_2 C13_2 1_555 1_555
C19_2 C18_2 1_555 1_555
H15_2 C19_2 1_555 1_555
C20_2 N4_2 1_555 1_555
H16_2 C20_2 1_555 1_555
C21_2 N5_2 1_555 1_555
H17_2 C21_2 1_555 1_555
C22_2 C21_2 1_555 1_555
H18_2 C22_2 1_555 1_555
C23_2 C22_2 1_555 1_555
C24_2 C23_2 1_555 1_555
H19_2 C24_2 1_555 1_555
C25_2 N5_2 1_555 1_555
H20_2 C25_2 1_555 1_555
C26_2 N6_2 1_555 1_555
H21_2 C26_2 1_555 1_555
C27_2 C26_2 1_555 1_555
H22_2 C27_2 1_555 1_555
C28_2 C23_2 1_555 1_555
C29_2 C28_2 1_555 1_555
H23_2 C29_2 1_555 1_555
C30_2 N6_2 1_555 1_555
H24_2 C30_2 1_555 1_555
C31A H25A 1_555 1_555
C32A C31A 1_555 1_555
C33A C33 1_555 1_555
C34A C32A 1_555 1_555
H26A C34A 1_555 1_555
C35A C36 1_555 1_555
H27A C35A 1_555 1_555
C36A C35 1_555 1_555
C37A C36A 1_555 1_555
H28A C37A 1_555 1_555
C38A C31A 1_555 1_555
H29A C38A 1_555 1_555
C39A H30A 1_555 1_555
C40A C39A 1_555 1_555
C41A C41 1_555 1_555
C42A C41A 1_555 1_555
C43A C42A 1_555 1_555
H31A C43A 1_555 1_555
C44A C39A 1_555 1_555
H32A C44A 1_555 1_555
C45A C46 1_555 1_555
H33A C45A 1_555 1_555
C46A C45 1_555 1_555
H34A C46A 1_555 1_555
C47A H35A 1_555 1_555
C48A C47A 1_555 1_555
H36A C48A 1_555 1_555
C49A C48A 1_555 1_555
C50A C50 1_555 1_555
C51A C49A 1_555 1_555
H37A C51A 1_555 1_555
C52A C53 1_555 1_555
H38A C52A 1_555 1_555
C53A C52 1_555 1_555
C54A C47A 1_555 1_555
H39A C54A 1_555 1_555
C55A C56A 1_555 1_555
C56A H40A 1_555 1_555
C57A C56A 1_555 1_555
H41A C57A 1_555 1_555
C58A C59 1_555 1_555
C59A C58 1_555 1_555
C60A C58A 1_555 1_555
H42A C60A 1_555 1_555
C61A C62 1_555 1_555
H43A C61A 1_555 1_555
C62A C61 1_555 1_555
H44A C62A 1_555 1_555
O4 N8 1_555 1_555
O10 N10 1_555 1_555
C4 C5 1_555 1_555
C7 C8 1_555 1_555
C9 C10 1_555 1_555
C14 C15 1_555 1_555
C17 C18 1_555 1_555
C19 C20 1_555 1_555
C24 C25 1_555 1_555
C27 C28 1_555 1_555
C29 C30 1_555 1_555
C37 C38 1_555 1_555
C43 C44 1_555 1_555
C53 C54 1_555 1_555
C59 C59A 1_555 1_555
C67 C68 1_555 1_555
O4_2 N8_2 1_555 1_555
O10_2 N10_2 1_555 1_555
C4_2 C5_2 1_555 1_555
C7_2 C8_2 1_555 1_555
C9_2 C10_2 1_555 1_555
C14_2 C15_2 1_555 1_555
C17_2 C18_2 1_555 1_555
C19_2 C20_2 1_555 1_555
C24_2 C25_2 1_555 1_555
C27_2 C28_2 1_555 1_555
C29_2 C30_2 1_555 1_555
C32A C33A 1_555 1_555
C33A C36A 1_555 1_555
C34A C35A 1_555 1_555
C37A C38A 1_555 1_555
C40A C41A 1_555 1_555
C40A C46A 1_555 1_555
C42A C45A 1_555 1_555
C43A C44A 1_555 1_555
C49A C50A 1_555 1_555
C50A C53A 1_555 1_555
C51A C52A 1_555 1_555
C53A C54A 1_555 1_555
C55A C59A 1_555 1_555
C55A C62A 1_555 1_555
C57A C58A 1_555 1_555
C60A C61A 1_555 1_555

#END
