
#######################################################################
#
#                 Cambridge Crystallographic Data Centre
#                                CCDC 
#
#######################################################################
#
# If this CIF has been generated from an entry in the Cambridge 
# Structural Database, then it will include bibliographic, chemical, 
# crystal, experimental, refinement or atomic coordinate data resulting 
# from the CCDC's data processing and validation procedures.
#
#######################################################################

data_XIJXEV
_symmetry_cell_setting           orthorhombic
_symmetry_space_group_name_H-M   'P 21 21 21'
_symmetry_Int_Tables_number      19
_space_group_name_Hall           'P 2ac 2ab'
loop_
_symmetry_equiv_pos_site_id
_symmetry_equiv_pos_as_xyz
1 x,y,z
2 1/2-x,-y,1/2+z
3 -x,1/2+y,1/2-z
4 1/2+x,1/2-y,-z
_cell_length_a                   8.3785(9)
_cell_length_b                   8.3670(9)
_cell_length_c                   30.081(3)
_cell_angle_alpha                90
_cell_angle_beta                 90
_cell_angle_gamma                90
_cell_volume                     2108.77
loop_
_atom_site_label
_atom_site_type_symbol
_atom_site_fract_x
_atom_site_fract_y
_atom_site_fract_z
Sr1 Sr 0.2499(2) 0.74440(16) 0.22562(2)
O1 O 0.3645(13) 0.9686(11) 0.1767(3)
H1 H 0.4480 0.9437 0.1658
H2 H 0.2918 1.0156 0.1654
O2 O 0.4800(13) 0.6251(11) 0.1767(3)
H3 H 0.5256 0.6999 0.1661
H4 H 0.4505 0.5447 0.1649
O3 O 0.0208(12) 0.8528(11) 0.1768(3)
H5 H -0.0307 0.7809 0.1667
H6 H 0.0460 0.9347 0.1650
O4 O 0.2689(13) 0.4676(9) 0.2674(3)
H7 H 0.3321 0.4074 0.2566
H8 H 0.2927 0.4457 0.2924
O5 O 0.1362(13) 0.5019(11) 0.1786(3)
H9 H 0.0532 0.5312 0.1682
H10 H 0.2085 0.4573 0.1664
O6 O 0.5200(11) 0.7632(14) 0.2691(4)
H11 H 0.5485 0.6872 0.2831
H12 H 0.4902 0.8182 0.2892
O7 O 0.2372(13) 1.0077(9) 0.2671(3)
H13 H 0.3108 1.0386 0.2817
H14 H 0.1775 1.0735 0.2573
O8 O -0.0234(12) 0.7418(13) 0.2671(4)
H15 H -0.0891 0.8028 0.2579
H16 H -0.0454 0.7144 0.2918
V1 V 0.7455(3) 0.2456(3) 0.11082(4)
O9 O 0.7449(15) 0.2395(11) 0.16329(15)
O10 O 0.6486(12) -0.1139(11) 0.1406(3)
O11 O 0.7863(11) 0.0174(9) 0.0906(3)
O12 O 0.7004(11) -0.5360(10) 0.0918(3)
O13 O 0.8522(12) -0.3954(11) 0.1407(3)
O14 O 0.5221(10) 0.1970(11) 0.0887(3)
O15 O 0.3858(13) 0.3551(12) 0.1363(4)
O16 O 0.1123(13) 0.1398(13) 0.1361(4)
O17 O -0.0333(10) 0.2808(10) 0.0889(3)
C1 C 0.7363(19) -0.1085(12) 0.1069(4)
C2 C 0.7350(13) -0.2551(17) 0.0770(2)
C3 C 0.7791(17) -0.4055(13) 0.1048(4)
C4 C 0.5720(14) -0.262(2) 0.0526(4)
H17 H 0.5599 -0.3664 0.0382
H18 H 0.5676 -0.1775 0.0301
H19 H 0.4855 -0.2465 0.0741
C5 C 0.8779(14) -0.252(2) 0.0448(4)
H20 H 0.9712 -0.2071 0.0599
H21 H 0.8515 -0.1862 0.0189
H22 H 0.9020 -0.3613 0.0350
C6 C 0.3921(14) 0.2707(18) 0.1033(4)
C7 C 0.2450(16) 0.2551(15) 0.0726(2)
C8 C 0.0933(15) 0.2256(17) 0.1016(4)
C9 C 0.243(2) 0.4147(14) 0.0465(5)
H23 H 0.1517 0.4152 0.0260
H24 H 0.3419 0.4259 0.0296
H25 H 0.2323 0.5040 0.0674
C10 C 0.268(2) 0.1127(15) 0.0409(5)
H26 H 0.1730 0.1008 0.0221
H27 H 0.2841 0.0148 0.0582
H28 H 0.3615 0.1316 0.0220
V1_2 V -0.2545(3) 0.2456(3) 0.11082(4)
V1_3 V 0.7455(3) -0.7544(3) 0.11082(4)
O12_2 O 0.7004(11) 0.4640(10) 0.0918(3)
O17_2 O 0.9667(10) 0.2808(10) 0.0889(3)
loop_
_geom_bond_atom_site_label_1
_geom_bond_atom_site_label_2
_geom_bond_site_symmetry_1
_geom_bond_site_symmetry_2
Sr1 O1 1_555 1_555
O1 H1 1_555 1_555
H2 O1 1_555 1_555
O2 Sr1 1_555 1_555
H3 O2 1_555 1_555
H4 O2 1_555 1_555
O3 Sr1 1_555 1_555
H5 O3 1_555 1_555
H6 O3 1_555 1_555
O4 Sr1 1_555 1_555
H7 O4 1_555 1_555
H8 O4 1_555 1_555
O5 Sr1 1_555 1_555
H9 O5 1_555 1_555
H10 O5 1_555 1_555
O6 Sr1 1_555 1_555
H11 O6 1_555 1_555
H12 O6 1_555 1_555
O7 Sr1 1_555 1_555
H13 O7 1_555 1_555
H14 O7 1_555 1_555
O8 Sr1 1_555 1_555
H15 O8 1_555 1_555
H16 O8 1_555 1_555
V1 O9 1_555 1_555
O10 C1 1_555 1_555
O11 V1 1_555 1_555
O12 C3 1_555 1_555
O13 C3 1_555 1_555
O14 V1 1_555 1_555
O15 C6 1_555 1_555
O16 C8 1_555 1_555
O17 C8 1_555 1_555
C1 O11 1_555 1_555
C2 C1 1_555 1_555
C3 C2 1_555 1_555
C4 C2 1_555 1_555
H17 C4 1_555 1_555
H18 C4 1_555 1_555
H19 C4 1_555 1_555
C5 C2 1_555 1_555
H20 C5 1_555 1_555
H21 C5 1_555 1_555
H22 C5 1_555 1_555
C6 O14 1_555 1_555
C7 C6 1_555 1_555
C8 C7 1_555 1_555
C9 C7 1_555 1_555
H23 C9 1_555 1_555
H24 C9 1_555 1_555
H25 C9 1_555 1_555
C10 C7 1_555 1_555
H26 C10 1_555 1_555
H27 C10 1_555 1_555
H28 C10 1_555 1_555
V1_2 O17 1_555 1_555
V1_3 O12 1_555 1_555
O12_2 V1 1_555 1_555
O17_2 V1 1_555 1_555

#END
