
#######################################################################
#
#                 Cambridge Crystallographic Data Centre
#                                CCDC 
#
#######################################################################
#
# If this CIF has been generated from an entry in the Cambridge 
# Structural Database, then it will include bibliographic, chemical, 
# crystal, experimental, refinement or atomic coordinate data resulting 
# from the CCDC's data processing and validation procedures.
#
#######################################################################

data_XIKHOO
_symmetry_cell_setting           monoclinic
_symmetry_space_group_name_H-M   'P 21/c'
_symmetry_Int_Tables_number      14
_space_group_name_Hall           '-P 2ybc'
loop_
_symmetry_equiv_pos_site_id
_symmetry_equiv_pos_as_xyz
1 x,y,z
2 -x,1/2+y,1/2-z
3 -x,-y,-z
4 x,1/2-y,1/2+z
_cell_length_a                   13.1826(2)
_cell_length_b                   12.8268(2)
_cell_length_c                   16.4122(3)
_cell_angle_alpha                90
_cell_angle_beta                 105.964(1)
_cell_angle_gamma                90
_cell_volume                     2668.12
loop_
_atom_site_label
_atom_site_type_symbol
_atom_site_fract_x
_atom_site_fract_y
_atom_site_fract_z
Br1 Br 0.1641(1) 0.7208(1) 0.3904(1)
Cu1 Cu -0.0148(1) 0.7416(1) 0.3109(1)
N1 N -0.2090(3) 0.6719(2) 0.1926(2)
C1 C -0.2606(4) 0.5857(3) 0.1479(3)
C2 C -0.2545(3) 0.7734(3) 0.1946(3)
C3 C -0.2352(3) 0.8504(3) 0.1421(3)
C4 C -0.3162(4) 0.7905(3) 0.2497(3)
C5 C -0.3387(4) 0.9697(3) 0.2009(3)
C6 C -0.2779(4) 0.9483(4) 0.1463(3)
C7 C -0.3570(4) 0.8900(4) 0.2513(3)
C8 C -0.3822(6) 1.0771(5) 0.2060(5)
C9 C -0.1082(3) 0.6487(3) 0.2344(3)
C10 C -0.3355(6) 0.7061(5) 0.3062(5)
N2 N -0.0983(3) 0.5473(3) 0.2144(2)
C11 C 0.0520(3) 0.4748(3) 0.1727(3)
C12 C 0.1356(5) 0.5476(5) 0.0749(4)
C13 C 0.0000(4) 0.4871(4) 0.2427(3)
C14 C -0.1910(4) 0.5083(4) 0.1619(3)
C15 C 0.0903(4) 0.5599(4) 0.1394(3)
C16 C 0.1436(4) 0.4488(5) 0.0444(3)
C18 C -0.1718(5) 0.8282(5) 0.0796(4)
N3 N 0.0585(3) 0.3777(3) 0.1435(2)
C20 C 0.1045(4) 0.3676(4) 0.0798(3)
H1 H -0.1680(40) 0.8810(50) 0.0590(30)
H2 H -0.2100(40) 0.7760(40) 0.0380(30)
H3 H -0.1050(40) 0.7980(40) 0.1060(30)
H4 H -0.4430(50) 1.0840(50) 0.1660(40)
H5 H -0.2700(30) 0.9980(30) 0.1200(20)
H6 H -0.1940(30) 0.4420(30) 0.1430(20)
H7 H -0.3770(50) 0.7280(40) 0.3400(40)
H8 H -0.3290(40) 0.5940(30) 0.1130(30)
H9 H -0.2710(50) 0.6840(50) 0.3490(40)
H10 H -0.3770(50) 0.6570(40) 0.2770(40)
H11 H -0.3550(50) 1.1240(50) 0.1800(40)
H12 H -0.3880(40) 0.9070(40) 0.2930(30)
H13 H 0.1020(30) 0.2940(30) 0.0560(20)
H14 H 0.0430(40) 0.5210(30) 0.2870(30)
H15 H -0.4120(60) 1.0880(60) 0.2560(50)
H16 H 0.1720(40) 0.4360(40) -0.0030(30)
H17 H 0.1610(40) 0.5910(40) 0.0550(30)
H18 H -0.0180(30) 0.4210(30) 0.2650(20)
H19 H 0.0830(30) 0.6220(30) 0.1590(30)
N3A N -0.0585(3) 0.8777(3) 0.3565(2)
Cu1A Cu 0.0148(1) 0.2416(1) 0.1891(1)
Cl1 Cl 0.4666(1) 0.2981(1) 0.4853(1)
Cl5 Cl 0.5484(2) 0.1316(2) 0.5981(2)
Cl6 Cl 0.5883(2) 0.1397(2) 0.4350(1)
C17 C 0.5691(4) 0.2096(5) 0.5196(4)
D1 D 0.6330(30) 0.2480(30) 0.5400(20)
Cl2 Cl 0.2185(2) 0.8143(1) 0.1895(1)
Cl3 Cl 0.3371(1) 0.9424(1) 0.1021(1)
Cl4 Cl 0.1189(1) 0.9832(1) 0.0841(1)
C19 C 0.2161(5) 0.8868(4) 0.0979(3)
D2 D 0.1990(40) 0.8400(30) 0.0580(30)
loop_
_geom_bond_atom_site_label_1
_geom_bond_atom_site_label_2
_geom_bond_site_symmetry_1
_geom_bond_site_symmetry_2
Br1 Cu1 1_555 1_555
Cu1 C9 1_555 1_555
N1 C1 1_555 1_555
C1 C14 1_555 1_555
C2 N1 1_555 1_555
C3 C2 1_555 1_555
C4 C2 1_555 1_555
C5 C6 1_555 1_555
C6 C3 1_555 1_555
C7 C4 1_555 1_555
C8 C5 1_555 1_555
C9 N1 1_555 1_555
C10 C4 1_555 1_555
Cl1 C17 1_555 1_555
Cl2 C19 1_555 1_555
Cl3 C19 1_555 1_555
Cl4 C19 1_555 1_555
Cl5 C17 1_555 1_555
Cl6 C17 1_555 1_555
N2 C9 1_555 1_555
C11 C13 1_555 1_555
C12 C15 1_555 1_555
C13 N2 1_555 1_555
C14 N2 1_555 1_555
C15 C11 1_555 1_555
C16 C12 1_555 1_555
C17 D1 1_555 1_555
C18 C3 1_555 1_555
C19 D2 1_555 1_555
N3 C11 1_555 1_555
C20 C16 1_555 1_555
H1 C18 1_555 1_555
H2 C18 1_555 1_555
H3 C18 1_555 1_555
H4 C8 1_555 1_555
H5 C6 1_555 1_555
H6 C14 1_555 1_555
H7 C10 1_555 1_555
H8 C1 1_555 1_555
H9 C10 1_555 1_555
H10 C10 1_555 1_555
H11 C8 1_555 1_555
H12 C7 1_555 1_555
H13 C20 1_555 1_555
H14 C13 1_555 1_555
H15 C8 1_555 1_555
H16 C16 1_555 1_555
H17 C12 1_555 1_555
H18 C13 1_555 1_555
H19 C15 1_555 1_555
N3A Cu1 1_555 1_555
Cu1A N3 1_555 1_555
C5 C7 1_555 1_555
N3 C20 1_555 1_555

#END
