
#######################################################################
#
#                 Cambridge Crystallographic Data Centre
#                                CCDC 
#
#######################################################################
#
# If this CIF has been generated from an entry in the Cambridge 
# Structural Database, then it will include bibliographic, chemical, 
# crystal, experimental, refinement or atomic coordinate data resulting 
# from the CCDC's data processing and validation procedures.
#
#######################################################################

data_XIKVIX
_symmetry_cell_setting           triclinic
_symmetry_space_group_name_H-M   'P -1'
_symmetry_Int_Tables_number      2
_space_group_name_Hall           '-P 1'
loop_
_symmetry_equiv_pos_site_id
_symmetry_equiv_pos_as_xyz
1 x,y,z
2 -x,-y,-z
_cell_length_a                   8.9608(18)
_cell_length_b                   8.9816(18)
_cell_length_c                   10.804(2)
_cell_angle_alpha                75.99(3)
_cell_angle_beta                 71.09(3)
_cell_angle_gamma                83.30(3)
_cell_volume                     797.44
loop_
_atom_site_label
_atom_site_type_symbol
_atom_site_fract_x
_atom_site_fract_y
_atom_site_fract_z
Ag1 Ag 0.36832(2) 0.36786(2) 0.060832(18)
N1 N 0.2426(3) 0.4890(2) 0.2149(2)
N2 N -0.1451(3) 0.8152(2) 0.5065(2)
N3 N -0.1980(3) 0.8996(3) 0.6078(2)
N4 N -0.5349(3) 1.2325(2) 0.9117(2)
C1 C 0.3015(3) 0.5068(3) 0.3104(3)
H1 H 0.4007 0.4581 0.3132
C2 C 0.2238(3) 0.5927(3) 0.4042(3)
H2 H 0.2690 0.6028 0.4700
C3 C 0.0771(3) 0.6650(3) 0.4012(2)
C4 C 0.0148(3) 0.6433(3) 0.3041(3)
H3 H -0.0855 0.6882 0.3005
C5 C 0.1001(3) 0.5563(3) 0.2138(3)
H4 H 0.0568 0.5430 0.1479
C6 C -0.0050(3) 0.7582(3) 0.4990(3)
H5 H 0.0462 0.7768 0.5580
C7 C -0.3364(3) 0.9599(3) 0.6199(3)
H6 H -0.3941 0.9449 0.5644
C8 C -0.4057(3) 1.0528(3) 0.7210(3)
C9 C -0.3297(3) 1.0618(3) 0.8132(3)
H7 H -0.2320 1.0071 0.8118
C10 C -0.3976(3) 1.1503(3) 0.9058(2)
H8 H -0.3455 1.1540 0.9689
C11 C -0.6086(3) 1.2238(3) 0.8233(3)
H9 H -0.7058 1.2803 0.8266
C12 C -0.5486(3) 1.1358(3) 0.7276(3)
H10 H -0.6042 1.1321 0.6671
Ag1_2 Ag -0.63168(2) 1.36786(2) 1.060832(18)
N4_2 N 0.4651(3) 0.2325(2) -0.0883(2)
S1 S 0.26232(8) 0.68538(8) 0.79915(7)
F1 F -0.0358(2) 0.7776(2) 0.8486(2)
F2 F 0.1221(3) 0.9605(2) 0.7756(2)
F3 F 0.0766(3) 0.8337(2) 0.9775(2)
O1 O 0.2826(3) 0.7020(3) 0.6605(2)
O2 O 0.2017(3) 0.5404(2) 0.8843(3)
O3 O 0.3899(3) 0.7370(3) 0.8300(2)
C13 C 0.0992(3) 0.8217(3) 0.8526(3)
loop_
_geom_bond_atom_site_label_1
_geom_bond_atom_site_label_2
_geom_bond_site_symmetry_1
_geom_bond_site_symmetry_2
Ag1 N1 1_555 1_555
S1 O1 1_555 1_555
F1 C13 1_555 1_555
F2 C13 1_555 1_555
F3 C13 1_555 1_555
O2 S1 1_555 1_555
O3 S1 1_555 1_555
N1 C1 1_555 1_555
N2 N3 1_555 1_555
N3 C7 1_555 1_555
N4 C10 1_555 1_555
C1 H1 1_555 1_555
C2 C1 1_555 1_555
H2 C2 1_555 1_555
C3 C2 1_555 1_555
C4 C3 1_555 1_555
H3 C4 1_555 1_555
C5 N1 1_555 1_555
H4 C5 1_555 1_555
C6 N2 1_555 1_555
H5 C6 1_555 1_555
C7 H6 1_555 1_555
C8 C7 1_555 1_555
C9 C8 1_555 1_555
H7 C9 1_555 1_555
C10 C9 1_555 1_555
H8 C10 1_555 1_555
C11 N4 1_555 1_555
H9 C11 1_555 1_555
C12 C8 1_555 1_555
H10 C12 1_555 1_555
C13 S1 1_555 1_555
Ag1_2 N4 1_555 1_555
N4_2 Ag1 1_555 1_555
C3 C6 1_555 1_555
C4 C5 1_555 1_555
C11 C12 1_555 1_555

#END
