
#######################################################################
#
#                 Cambridge Crystallographic Data Centre
#                                CCDC 
#
#######################################################################
#
# If this CIF has been generated from an entry in the Cambridge 
# Structural Database, then it will include bibliographic, chemical, 
# crystal, experimental, refinement or atomic coordinate data resulting 
# from the CCDC's data processing and validation procedures.
#
#######################################################################

data_XIKXOF
_symmetry_cell_setting           orthorhombic
_symmetry_space_group_name_H-M   'P b c a'
_symmetry_Int_Tables_number      61
_space_group_name_Hall           '-P 2ac 2ab'
loop_
_symmetry_equiv_pos_site_id
_symmetry_equiv_pos_as_xyz
1 x,y,z
2 1/2-x,-y,1/2+z
3 -x,1/2+y,1/2-z
4 1/2+x,1/2-y,-z
5 -x,-y,-z
6 1/2+x,y,1/2-z
7 x,1/2-y,1/2+z
8 1/2-x,1/2+y,z
_cell_length_a                   8.8050(5)
_cell_length_b                   8.8051(7)
_cell_length_c                   16.6614(14)
_cell_angle_alpha                90
_cell_angle_beta                 90
_cell_angle_gamma                90
_cell_volume                     1291.74
loop_
_atom_site_label
_atom_site_type_symbol
_atom_site_fract_x
_atom_site_fract_y
_atom_site_fract_z
Zn1 Zn 0.32416(4) 0.09443(4) 0.670742(19)
C1 C 0.4213(3) -0.0248(3) 0.50171(16)
C2 C 0.2054(4) -0.1293(4) 0.4651(2)
H1 H 0.1320 -0.1817 0.4361
C3 C 0.1870(3) -0.0582(4) 0.5357(2)
H2 H 0.0966 -0.0540 0.5645
N1 N 0.3221(3) 0.0079(3) 0.55921(14)
N2 N 0.3541(3) -0.1087(3) 0.44472(17)
H3 H 0.387(4) -0.139(4) 0.405(2)
O1 O 0.4899(2) 0.2367(2) 0.68551(11)
O2 O 0.4137(2) 0.3524(3) 0.81871(12)
H4 H 0.344(4) 0.389(4) 0.795(3)
O3 O 0.6592(2) 0.4261(2) 0.75213(13)
O4 O 0.6231(2) 0.1699(3) 0.81547(13)
P1 P 0.55013(7) 0.29324(8) 0.76628(4)
Zn1D Zn 0.67584(4) -0.09443(4) 0.329258(19)
Zn1B Zn 0.67584(4) 0.59443(4) 0.829258(19)
Zn1E Zn 0.82416(4) 0.09443(4) 0.829258(19)
Zn1B_2 Zn 0.67584(4) -0.40557(4) 0.829258(19)
Zn1G Zn 0.17584(4) -0.40557(4) 0.670742(19)
C1D C 0.5787(3) 0.0248(3) 0.49829(16)
C2D C 0.7946(4) 0.1293(4) 0.5349(2)
H1D H 0.8680 0.1817 0.5639
C3D C 0.8130(3) 0.0582(4) 0.4643(2)
H2D H 0.9034 0.0540 0.4355
N1D N 0.6779(3) -0.0079(3) 0.44079(14)
N2D N 0.6459(3) 0.1087(3) 0.55528(17)
H3D H 0.613(4) 0.139(4) 0.595(2)
O1B O 0.5101(2) -0.2633(2) 0.81449(11)
O1D O 0.5101(2) -0.2367(2) 0.31449(11)
O2B O 0.5863(2) -0.1476(3) 0.68129(12)
H4B H 0.656(4) -0.111(4) 0.705(3)
O3B O 0.3408(2) -0.0739(2) 0.74787(13)
O3F O 0.6592(2) 0.0739(2) 0.25213(13)
O4B O 0.3769(2) -0.3301(3) 0.68453(13)
O4E O 0.1231(2) 0.1699(3) 0.68453(13)
O4A O 0.8769(2) -0.1699(3) 0.31547(13)
P1B P 0.44987(7) -0.20676(8) 0.73372(4)
loop_
_geom_bond_atom_site_label_1
_geom_bond_atom_site_label_2
_geom_bond_site_symmetry_1
_geom_bond_site_symmetry_2
Zn1 N1 1_555 1_555
C1 N1 1_555 1_555
C2 H1 1_555 1_555
C3 C2 1_555 1_555
H2 C3 1_555 1_555
N1 C3 1_555 1_555
N2 C1 1_555 1_555
H3 N2 1_555 1_555
O1 Zn1 1_555 1_555
O2 H4 1_555 1_555
O3 P1 1_555 1_555
O4 P1 1_555 1_555
P1 O1 1_555 1_555
Zn1D N1D 1_555 1_555
Zn1B O3 1_555 1_555
Zn1E O4 1_555 1_555
Zn1B_2 O1B 1_555 1_555
Zn1G O4B 1_555 1_555
C1D C1 1_555 1_555
C2D H1D 1_555 1_555
C3D C2D 1_555 1_555
H2D C3D 1_555 1_555
N1D C1D 1_555 1_555
N2D C1D 1_555 1_555
H3D N2D 1_555 1_555
O1B P1B 1_555 1_555
O1D Zn1D 1_555 1_555
O2B H4B 1_555 1_555
O3B Zn1 1_555 1_555
O3F Zn1D 1_555 1_555
O4B P1B 1_555 1_555
O4E Zn1 1_555 1_555
O4A Zn1D 1_555 1_555
P1B O2B 1_555 1_555
C2 N2 1_555 1_555
O2 P1 1_555 1_555
C2D N2D 1_555 1_555
C3D N1D 1_555 1_555
O3B P1B 1_555 1_555

#END
