
#######################################################################
#
#                 Cambridge Crystallographic Data Centre
#                                CCDC 
#
#######################################################################
#
# If this CIF has been generated from an entry in the Cambridge 
# Structural Database, then it will include bibliographic, chemical, 
# crystal, experimental, refinement or atomic coordinate data resulting 
# from the CCDC's data processing and validation procedures.
#
#######################################################################

data_XIKYUM
_symmetry_cell_setting           triclinic
_symmetry_space_group_name_H-M   'P -1'
_symmetry_Int_Tables_number      2
_space_group_name_Hall           '-P 1'
loop_
_symmetry_equiv_pos_site_id
_symmetry_equiv_pos_as_xyz
1 x,y,z
2 -x,-y,-z
_cell_length_a                   7.7818(13)
_cell_length_b                   9.6799(16)
_cell_length_c                   9.9742(15)
_cell_angle_alpha                106.500(10)
_cell_angle_beta                 91.120(10)
_cell_angle_gamma                106.500(10)
_cell_volume                     686.606
loop_
_atom_site_label
_atom_site_type_symbol
_atom_site_fract_x
_atom_site_fract_y
_atom_site_fract_z
Ag1 Ag -0.17114(4) 0.45886(4) -0.42132(3)
N1 N -0.1379(5) 0.2995(4) -0.3042(4)
N2 N 0.2373(5) 0.4241(4) 0.0284(4)
N3 N 0.3507(5) 0.4542(4) 0.1490(4)
N4 N 0.7448(5) 0.6106(4) 0.4777(4)
C1 C -0.2417(6) 0.1603(5) -0.3322(4)
H1 H -0.3284 0.1221 -0.4125
C2 C -0.2351(6) 0.0603(5) -0.2512(5)
H2 H -0.3170 -0.0391 -0.2792
C3 C -0.1162(6) 0.1037(5) -0.1371(5)
H3 H -0.1094 0.0398 -0.0817
C4 C -0.0069(6) 0.2470(5) -0.1082(4)
C5 C -0.0209(6) 0.3421(5) -0.1940(4)
H4 H 0.0603 0.4418 -0.1685
C6 C 0.1217(6) 0.2981(5) 0.0121(5)
H5 H 0.1204 0.2411 0.0756
C7 C 0.4537(6) 0.5846(5) 0.1682(4)
H6 H 0.4445 0.6407 0.1056
C8 C 0.5824(6) 0.6447(5) 0.2847(4)
C9 C 0.6240(6) 0.5568(5) 0.3700(4)
H7 H 0.5579 0.4525 0.3449
C10 C 0.8239(6) 0.7563(5) 0.5078(5)
H8 H 0.9100 0.8032 0.5886
C11 C 0.7911(6) 0.8506(5) 0.4285(5)
H9 H 0.8563 0.9552 0.4575
C12 C 0.6709(6) 0.7940(5) 0.3151(5)
H10 H 0.6489 0.8537 0.2597
Ag1_2 Ag 0.82886(4) 0.45886(4) 0.57868(3)
N4_2 N -0.2552(5) 0.6106(4) -0.5223(4)
S1 S 0.24710(15) 0.79114(12) -0.26031(11)
O1 O 0.1198(5) 0.6446(4) -0.2912(4)
O2 O 0.1607(5) 0.9035(4) -0.2162(4)
O3 O 0.3649(5) 0.8196(5) -0.3689(4)
C13 C 0.3873(7) 0.7910(5) -0.1196(5)
H11 H 0.4457 0.7119 -0.1524
H12 H 0.3147 0.7713 -0.0441
H13 H 0.4795 0.8896 -0.0841
loop_
_geom_bond_atom_site_label_1
_geom_bond_atom_site_label_2
_geom_bond_site_symmetry_1
_geom_bond_site_symmetry_2
Ag1 N1 1_555 1_555
S1 O1 1_555 1_555
O2 S1 1_555 1_555
O3 S1 1_555 1_555
N1 C1 1_555 1_555
N2 N3 1_555 1_555
N3 C7 1_555 1_555
N4 C9 1_555 1_555
C1 H1 1_555 1_555
C2 C1 1_555 1_555
H2 C2 1_555 1_555
C3 C2 1_555 1_555
H3 C3 1_555 1_555
C4 C3 1_555 1_555
C5 N1 1_555 1_555
H4 C5 1_555 1_555
C6 N2 1_555 1_555
H5 C6 1_555 1_555
C7 H6 1_555 1_555
C8 C7 1_555 1_555
C9 C8 1_555 1_555
H7 C9 1_555 1_555
C10 N4 1_555 1_555
H8 C10 1_555 1_555
C11 C10 1_555 1_555
H9 C11 1_555 1_555
C12 C8 1_555 1_555
H10 C12 1_555 1_555
C13 S1 1_555 1_555
H11 C13 1_555 1_555
H12 C13 1_555 1_555
H13 C13 1_555 1_555
Ag1_2 N4 1_555 1_555
N4_2 Ag1 1_555 1_555
C4 C5 1_555 1_555
C4 C6 1_555 1_555
C11 C12 1_555 1_555

#END
