
#######################################################################
#
#                 Cambridge Crystallographic Data Centre
#                                CCDC 
#
#######################################################################
#
# If this CIF has been generated from an entry in the Cambridge 
# Structural Database, then it will include bibliographic, chemical, 
# crystal, experimental, refinement or atomic coordinate data resulting 
# from the CCDC's data processing and validation procedures.
#
#######################################################################

data_XIKZAT
_symmetry_cell_setting           triclinic
_symmetry_space_group_name_H-M   'P -1'
_symmetry_Int_Tables_number      2
_space_group_name_Hall           '-P 1'
loop_
_symmetry_equiv_pos_site_id
_symmetry_equiv_pos_as_xyz
1 x,y,z
2 -x,-y,-z
_cell_length_a                   6.6535(6)
_cell_length_b                   8.4170(8)
_cell_length_c                   10.3399(9)
_cell_angle_alpha                78.493(2)
_cell_angle_beta                 79.524(2)
_cell_angle_gamma                71.284(2)
_cell_volume                     533.069
loop_
_atom_site_label
_atom_site_type_symbol
_atom_site_fract_x
_atom_site_fract_y
_atom_site_fract_z
Zn1 Zn 0.0000 0.0000 0.0000
O1 O 0.19351(14) 0.09480(11) -0.15435(9)
O2 O 0.52743(14) 0.02875(12) -0.25947(9)
O3 O 0.96403(14) -0.15685(12) -0.14797(9)
O4 O 0.87264(15) -0.31878(12) -0.25892(9)
N1 N 0.28879(16) -0.17768(13) 0.03105(10)
C1 C 0.45027(19) -0.15066(15) -0.06130(11)
C2 C 0.65942(19) -0.25589(15) -0.05727(12)
C3 C 0.6983(2) -0.38953(16) 0.04854(12)
H1 H 0.8366 -0.4613 0.0549
C4 C 0.5320(2) -0.41542(16) 0.14380(12)
H2 H 0.5570 -0.5034 0.2149
C5 C 0.32724(19) -0.30735(16) 0.13094(12)
H3 H 0.2139 -0.3254 0.1933
C6 C 0.38876(19) 0.00268(15) -0.16781(12)
C7 C 0.84343(19) -0.23815(15) -0.16344(12)
Zn1_2 Zn 1.0000 0.0000 0.0000
Zn1_3 Zn -1.0000 0.0000 0.0000
O1A O -0.19351(14) -0.09480(11) 0.15435(9)
O2A O -0.52743(14) -0.02875(12) 0.25947(9)
O3A O -0.96403(14) 0.15685(12) 0.14797(9)
O3_2 O -0.03597(14) -0.15685(12) -0.14797(9)
O3A_2 O 0.03597(14) 0.15685(12) 0.14797(9)
O4A O -0.87264(15) 0.31878(12) 0.25892(9)
N1A N -0.28879(16) 0.17768(13) -0.03105(10)
C1A C -0.45027(19) 0.15066(15) 0.06130(11)
C2A C -0.65942(19) 0.25589(15) 0.05727(12)
C3A C -0.6983(2) 0.38953(16) -0.04854(12)
H1A H -0.8366 0.4613 -0.0549
C4A C -0.5320(2) 0.41542(16) -0.14380(12)
H2A H -0.5570 0.5034 -0.2149
C5A C -0.32724(19) 0.30735(16) -0.13094(12)
H3A H -0.2139 0.3254 -0.1933
C6A C -0.38876(19) -0.00268(15) 0.16781(12)
C7A C -0.84343(19) 0.23815(15) 0.16344(12)
N2 N -0.16806(17) 0.12631(13) -0.56677(10)
H4 H -0.3041 0.1894 -0.5687
H5 H -0.1003 0.1518 -0.6465
C8 C -0.0706(2) 0.16761(16) -0.46338(13)
H6 H -0.1517 0.1488 -0.3768
H7 H -0.0750 0.2862 -0.4828
C9 C -0.1594(2) -0.05685(16) -0.53871(13)
H8 H -0.2420 -0.0797 -0.4534
H9 H -0.2215 -0.0831 -0.6067
N2A N 0.16806(17) -0.12631(13) -0.43323(10)
H4A H 0.3041 -0.1894 -0.4313
H5A H 0.1003 -0.1518 -0.3535
C8A C 0.0706(2) -0.16761(16) -0.53662(13)
H6A H 0.1517 -0.1488 -0.6232
H7A H 0.0750 -0.2862 -0.5172
C9A C 0.1594(2) 0.05685(16) -0.46129(13)
H8A H 0.2420 0.0797 -0.5466
H9A H 0.2215 0.0831 -0.3933
O5 O -0.42260(15) 0.66016(12) -0.41719(10)
H10 H -0.3478 0.6809 -0.3678
H11 H -0.3500 0.6226 -0.4871
O6 O 0.14990(16) 0.39242(12) -0.35148(9)
H12 H 0.0730 0.4798 -0.3174
H13 H 0.1794 0.3169 -0.2840
loop_
_geom_bond_atom_site_label_1
_geom_bond_atom_site_label_2
_geom_bond_site_symmetry_1
_geom_bond_site_symmetry_2
Zn1 O1 1_555 1_555
O1 C6 1_555 1_555
O2 C6 1_555 1_555
O3 C7 1_555 1_555
O4 C7 1_555 1_555
N1 Zn1 1_555 1_555
C1 N1 1_555 1_555
C2 C1 1_555 1_555
C3 C2 1_555 1_555
H1 C3 1_555 1_555
C4 C3 1_555 1_555
H2 C4 1_555 1_555
C5 N1 1_555 1_555
H3 C5 1_555 1_555
C6 C1 1_555 1_555
C7 C2 1_555 1_555
N2 H4 1_555 1_555
H5 N2 1_555 1_555
C8 N2 1_555 1_555
H6 C8 1_555 1_555
H7 C8 1_555 1_555
C9 N2 1_555 1_555
H8 C9 1_555 1_555
H9 C9 1_555 1_555
O5 H10 1_555 1_555
H11 O5 1_555 1_555
O6 H12 1_555 1_555
H13 O6 1_555 1_555
Zn1_2 O3 1_555 1_555
Zn1_3 O3A 1_555 1_555
O1A Zn1 1_555 1_555
O2A C6A 1_555 1_555
O3A C7A 1_555 1_555
O3_2 Zn1 1_555 1_555
O3A_2 Zn1 1_555 1_555
O4A C7A 1_555 1_555
N1A Zn1 1_555 1_555
C1A N1A 1_555 1_555
C2A C1A 1_555 1_555
C3A C2A 1_555 1_555
H1A C3A 1_555 1_555
C4A C3A 1_555 1_555
H2A C4A 1_555 1_555
C5A N1A 1_555 1_555
H3A C5A 1_555 1_555
C6A O1A 1_555 1_555
C7A C2A 1_555 1_555
N2A H4A 1_555 1_555
H5A N2A 1_555 1_555
C8A C9 1_555 1_555
H6A C8A 1_555 1_555
H7A C8A 1_555 1_555
C9A C8 1_555 1_555
H8A C9A 1_555 1_555
H9A C9A 1_555 1_555
C4 C5 1_555 1_555
C1A C6A 1_555 1_555
C4A C5A 1_555 1_555
N2A C8A 1_555 1_555
N2A C9A 1_555 1_555

#END
