
#######################################################################
#
#                 Cambridge Crystallographic Data Centre
#                                CCDC 
#
#######################################################################
#
# If this CIF has been generated from an entry in the Cambridge 
# Structural Database, then it will include bibliographic, chemical, 
# crystal, experimental, refinement or atomic coordinate data resulting 
# from the CCDC's data processing and validation procedures.
#
#######################################################################

data_XILBIE
_symmetry_cell_setting           orthorhombic
_symmetry_space_group_name_H-M   'P 21 21 21'
_symmetry_Int_Tables_number      19
_space_group_name_Hall           'P 2ac 2ab'
loop_
_symmetry_equiv_pos_site_id
_symmetry_equiv_pos_as_xyz
1 x,y,z
2 1/2+x,1/2-y,-z
3 -x,1/2+y,1/2-z
4 1/2-x,-y,1/2+z
_cell_length_a                   7.018(5)
_cell_length_b                   10.364(8)
_cell_length_c                   20.72(2)
_cell_angle_alpha                90
_cell_angle_beta                 90
_cell_angle_gamma                90
_cell_volume                     1507.06
loop_
_atom_site_label
_atom_site_type_symbol
_atom_site_fract_x
_atom_site_fract_y
_atom_site_fract_z
Cu1 Cu 0.36399(6) 0.09559(4) 0.61800(2)
O1 O 0.2334(3) -0.0709(2) 0.62360(10)
O2 O 0.0185(4) -0.1830(3) 0.67890(10)
O3 O -0.4093(3) 0.0429(2) 0.68320(10)
O4 O -0.1666(4) 0.1431(3) 0.63430(10)
N1 N 0.4276(4) 0.2784(3) 0.59660(10)
N2 N 0.4572(4) 0.0421(3) 0.53180(10)
N3 N 0.3895(4) 0.2443(3) 0.48510(10)
N4 N 0.1925(4) 0.1424(3) 0.69240(10)
C1 C 0.4647(5) 0.3616(4) 0.6454(2)
C2 C 0.4876(5) 0.4911(4) 0.6369(2)
C3 C 0.4779(5) 0.5399(4) 0.5744(2)
C4 C 0.4460(5) 0.4572(4) 0.5240(2)
C5 C 0.4214(5) 0.3259(3) 0.5365(2)
C6 C 0.4331(5) 0.1137(4) 0.4789(2)
C7 C 0.4491(5) 0.0626(4) 0.4165(2)
C8 C 0.4944(5) -0.0649(4) 0.4100(2)
C9 C 0.5273(5) -0.1404(4) 0.4643(2)
C10 C 0.5064(5) -0.0835(4) 0.5240(2)
C11 C 0.1157(5) -0.0845(3) 0.6693(2)
C12 C 0.0989(5) 0.0253(3) 0.7183(2)
C13 C -0.1098(5) 0.0490(3) 0.7371(2)
C14 C -0.2371(5) 0.0801(4) 0.6797(2)
H1 H 0.4750 0.3286 0.6870
H2 H 0.5091 0.5454 0.6719
H3 H 0.4930 0.6278 0.5670
H4 H 0.4407 0.4882 0.4819
H5 H 0.4294 0.1143 0.3804
H6 H 0.5034 -0.1013 0.3691
H7 H 0.5622 -0.2266 0.4605
H8 H 0.5271 -0.1335 0.5605
H9 H 0.3351 0.2789 0.4522
H10 H 0.2615 0.1804 0.7237
H11 H 0.1034 0.1988 0.6790
H12 H 0.1678 -0.0007 0.7574
H13 H -0.1588 -0.0272 0.7586
H14 H -0.1153 0.1200 0.7675
Cu1_2 Cu -0.63601(6) 0.09559(4) 0.61800(2)
O3_2 O 0.5907(3) 0.0429(2) 0.68320(10)
O5 O 0.3663(4) 0.2681(2) 0.81060(10)
H15 H 0.4061 0.3424 0.8139
H16 H 0.2480 0.2763 0.8131
loop_
_geom_bond_atom_site_label_1
_geom_bond_atom_site_label_2
_geom_bond_site_symmetry_1
_geom_bond_site_symmetry_2
Cu1 O1 1_555 1_555
O1 C11 1_555 1_555
O2 C11 1_555 1_555
O3 C14 1_555 1_555
O4 C14 1_555 1_555
O5 H15 1_555 1_555
N1 Cu1 1_555 1_555
N2 Cu1 1_555 1_555
N3 C5 1_555 1_555
N4 Cu1 1_555 1_555
C1 N1 1_555 1_555
C2 C1 1_555 1_555
C3 C2 1_555 1_555
C4 C3 1_555 1_555
C5 N1 1_555 1_555
C6 N2 1_555 1_555
C7 C6 1_555 1_555
C8 C7 1_555 1_555
C9 C8 1_555 1_555
C10 N2 1_555 1_555
C11 C12 1_555 1_555
C12 N4 1_555 1_555
C13 C12 1_555 1_555
C14 C13 1_555 1_555
H1 C1 1_555 1_555
H2 C2 1_555 1_555
H3 C3 1_555 1_555
H4 C4 1_555 1_555
H5 C7 1_555 1_555
H6 C8 1_555 1_555
H7 C9 1_555 1_555
H8 C10 1_555 1_555
H9 N3 1_555 1_555
H10 N4 1_555 1_555
H11 N4 1_555 1_555
H12 C12 1_555 1_555
H13 C13 1_555 1_555
H14 C13 1_555 1_555
H16 O5 1_555 1_555
Cu1_2 O3 1_555 1_555
O3_2 Cu1 1_555 1_555
N3 C6 1_555 1_555
C4 C5 1_555 1_555
C9 C10 1_555 1_555

#END
