
#######################################################################
#
#                 Cambridge Crystallographic Data Centre
#                                CCDC 
#
#######################################################################
#
# If this CIF has been generated from an entry in the Cambridge 
# Structural Database, then it will include bibliographic, chemical, 
# crystal, experimental, refinement or atomic coordinate data resulting 
# from the CCDC's data processing and validation procedures.
#
#######################################################################

data_XILBAW
_symmetry_cell_setting           triclinic
_symmetry_space_group_name_H-M   'P -1'
_symmetry_Int_Tables_number      2
_space_group_name_Hall           '-P 1'
loop_
_symmetry_equiv_pos_site_id
_symmetry_equiv_pos_as_xyz
1 x,y,z
2 -x,-y,-z
_cell_length_a                   6.7327(11)
_cell_length_b                   10.1503(17)
_cell_length_c                   20.249(3)
_cell_angle_alpha                78.521(3)
_cell_angle_beta                 83.357(3)
_cell_angle_gamma                77.113(3)
_cell_volume                     1318.27
loop_
_atom_site_label
_atom_site_type_symbol
_atom_site_fract_x
_atom_site_fract_y
_atom_site_fract_z
Pb1 Pb 0.49390(3) 0.79973(2) 0.293309(10)
Pb2 Pb 0.07338(3) 0.681658(19) 0.205959(10)
O1 O 0.3686(6) 0.5548(4) 0.2779(2)
O2 O 0.6821(6) 0.5951(4) 0.2572(2)
O3 O 0.7606(6) -0.1078(4) 0.2138(2)
O4 O 1.0651(6) -0.0907(4) 0.2364(2)
O5 O 0.8092(6) 0.7332(4) 0.3482(2)
O6 O 0.5560(6) 0.6398(5) 0.4009(2)
O7 O 0.3786(6) 0.7598(4) 0.1514(2)
O8 O 0.1058(6) 0.8232(4) 0.0934(2)
O9 O 0.4368(8) 0.9887(5) 0.3696(3)
O10 O 0.1395(8) 0.4857(5) 0.1317(3)
C1 C 0.6404(8) 0.3726(5) 0.2533(3)
C2 C 0.8410(9) 0.3127(6) 0.2657(3)
H1 H 0.9255 0.3641 0.2786
C3 C 0.9179(9) 0.1773(6) 0.2592(3)
H2 H 1.0531 0.1354 0.2690
C4 C 0.7941(8) 0.1038(5) 0.2381(3)
C5 C 0.5969(9) 0.1660(6) 0.2233(3)
H3 H 0.5155 0.1169 0.2072
C6 C 0.5179(9) 0.2987(6) 0.2316(3)
H4 H 0.3817 0.3394 0.2227
C7 C 0.5572(9) 0.5174(5) 0.2632(3)
C8 C 0.8810(9) -0.0405(6) 0.2293(3)
C9 C 0.8759(9) 0.5726(6) 0.4494(3)
C10 C 1.0735(9) 0.5929(6) 0.4484(3)
H5 H 1.1236 0.6555 0.4133
C11 C 0.7381(9) 0.6534(6) 0.3962(3)
C12 C 0.8054(9) 0.4786(6) 0.5013(3)
H6 H 0.6722 0.4640 0.5018
C13 C 0.2876(9) 0.8267(6) 0.1006(3)
C14 C 0.3981(8) 0.9159(5) 0.0480(3)
C15 C 0.5835(8) 0.9424(6) 0.0614(3)
H7 H 0.6399 0.9026 0.1029
C16 C 0.3171(8) 0.9733(6) -0.0138(3)
H8 H 0.1938 0.9544 -0.0230
C17 C 0.5294(12) 1.0507(7) 0.3975(3)
C18 C 0.7348(12) 0.9995(7) 0.4256(4)
H9 H 0.7333 0.9176 0.4605
H10 H 0.8398 0.9759 0.3897
C19 C 0.7776(14) 1.1124(10) 0.4549(5)
H11 H 0.9021 1.1409 0.4325
H12 H 0.7954 1.0826 0.5033
C20 C 0.5956(13) 1.2285(8) 0.4433(4)
H13 H 0.5307 1.2525 0.4864
H14 H 0.6363 1.3099 0.4152
C21 C 0.2615(12) 1.2598(8) 0.3909(4)
H15 H 0.1928 1.2076 0.3691
H16 H 0.2799 1.3432 0.3600
H17 H 0.1795 1.2834 0.4311
C22 C -0.0052(11) 0.4676(7) 0.1046(3)
C23 C -0.1965(10) 0.5733(7) 0.0896(4)
H18 H -0.2691 0.5997 0.1313
H19 H -0.1648 0.6556 0.0595
C24 C -0.3207(14) 0.5057(10) 0.0563(4)
H20 H -0.3416 0.5545 0.0099
H21 H -0.4545 0.5058 0.0811
C25 C -0.2025(14) 0.3580(10) 0.0561(4)
H22 H -0.2762 0.2916 0.0844
H23 H -0.1780 0.3379 0.0101
C26 C 0.1454(15) 0.2341(8) 0.0906(5)
H24 H 0.2605 0.2524 0.1094
H25 H 0.1886 0.2087 0.0466
H26 H 0.0950 0.1595 0.1205
N1 N 0.4575(9) 1.1788(6) 0.4093(3)
N2 N -0.0156(11) 0.3562(6) 0.0834(3)
Pb1_2 Pb 0.49390(3) 1.79973(2) 0.293309(10)
Pb1_3 Pb 0.49390(3) -0.20027(2) 0.293309(10)
Pb1A Pb 1.50610(3) 0.20027(2) 0.706691(10)
Pb2_2 Pb 0.07338(3) 1.681658(19) 0.205959(10)
Pb2_3 Pb 1.07338(3) -0.318342(19) 0.205959(10)
Pb2A Pb 0.92662(3) 1.318342(19) -0.205959(10)
Pb2_4 Pb 1.07338(3) 0.681658(19) 0.205959(10)
O1_2 O 0.3686(6) 1.5548(4) 0.2779(2)
O2_2 O 0.6821(6) 1.5951(4) 0.2572(2)
O3_2 O 0.7606(6) 0.8922(4) 0.2138(2)
O3_3 O -0.2394(6) 0.8922(4) 0.2138(2)
O3_4 O 0.7606(6) 1.8922(4) 0.2138(2)
O3_5 O -0.2394(6) 1.8922(4) 0.2138(2)
O4_2 O 1.0651(6) 0.9093(4) 0.2364(2)
O4_3 O 0.0651(6) 0.9093(4) 0.2364(2)
O4_4 O 0.0651(6) 1.9093(4) 0.2364(2)
O5A O 1.1908(6) 0.2668(4) 0.6518(2)
O5_2 O 0.8092(6) 1.7332(4) 0.3482(2)
O6A O 1.4440(6) 0.3602(5) 0.5991(2)
O6_2 O 0.5560(6) 1.6398(5) 0.4009(2)
O7A O 0.6214(6) 1.2402(4) -0.1514(2)
O7_2 O 0.3786(6) 1.7598(4) 0.1514(2)
O8A O 0.8942(6) 1.1768(4) -0.0934(2)
O8_2 O 0.1058(6) 1.8232(4) 0.0934(2)
O9_2 O 0.4368(8) 1.9887(5) 0.3696(3)
O10_2 O 0.1395(8) 1.4857(5) 0.1317(3)
C1_2 C 0.6404(8) 1.3726(5) 0.2533(3)
C2_2 C 0.8410(9) 1.3127(6) 0.2657(3)
H1_2 H 0.9255 1.3641 0.2786
C3_2 C 0.9179(9) 1.1773(6) 0.2592(3)
H2_2 H 1.0531 1.1354 0.2690
C4_2 C 0.7941(8) 1.1038(5) 0.2381(3)
C5_2 C 0.5969(9) 1.1660(6) 0.2233(3)
H3_2 H 0.5155 1.1169 0.2072
C6_2 C 0.5179(9) 1.2987(6) 0.2316(3)
H4_2 H 0.3817 1.3394 0.2227
C7_2 C 0.5572(9) 1.5174(5) 0.2632(3)
C8_2 C 0.8810(9) 0.9595(6) 0.2293(3)
C9A C 1.1241(9) 0.4274(6) 0.5506(3)
C10A C 0.9265(9) 0.4071(6) 0.5516(3)
H5A H 0.8764 0.3445 0.5867
C11A C 1.2619(9) 0.3466(6) 0.6038(3)
C12A C 1.1946(9) 0.5214(6) 0.4987(3)
H6A H 1.3278 0.5360 0.4982
C13A C 0.7124(9) 1.1733(6) -0.1006(3)
C14A C 0.6019(8) 1.0841(5) -0.0480(3)
C15A C 0.4165(8) 1.0576(6) -0.0614(3)
H7A H 0.3601 1.0974 -0.1029
C16A C 0.6829(8) 1.0267(6) 0.0138(3)
H8A H 0.8062 1.0456 0.0230
C17_2 C 0.5294(12) 2.0507(7) 0.3975(3)
C18_2 C 0.7348(12) 1.9995(7) 0.4256(4)
H9_2 H 0.7333 1.9176 0.4605
H10_2 H 0.8398 1.9759 0.3897
C19_2 C 0.7776(14) 2.1124(10) 0.4549(5)
H11_2 H 0.9021 2.1409 0.4325
H12_2 H 0.7954 2.0826 0.5033
C20_2 C 0.5956(13) 2.2285(8) 0.4433(4)
H13_2 H 0.5307 2.2525 0.4864
H14_2 H 0.6363 2.3099 0.4152
C21_2 C 0.2615(12) 2.2598(8) 0.3909(4)
H15_2 H 0.1928 2.2076 0.3691
H16_2 H 0.2799 2.3432 0.3600
H17_2 H 0.1795 2.2834 0.4311
C22_2 C -0.0052(11) 1.4676(7) 0.1046(3)
C23_2 C -0.1965(10) 1.5733(7) 0.0896(4)
H18_2 H -0.2691 1.5997 0.1313
H19_2 H -0.1648 1.6556 0.0595
C24_2 C -0.3207(14) 1.5057(10) 0.0563(4)
H20_2 H -0.3416 1.5545 0.0099
H21_2 H -0.4545 1.5058 0.0811
C25_2 C -0.2025(14) 1.3580(10) 0.0561(4)
H22_2 H -0.2762 1.2916 0.0844
H23_2 H -0.1780 1.3379 0.0101
C26_2 C 0.1454(15) 1.2341(8) 0.0906(5)
H24_2 H 0.2605 1.2524 0.1094
H25_2 H 0.1886 1.2087 0.0466
H26_2 H 0.0950 1.1595 0.1205
N1_2 N 0.4575(9) 2.1788(6) 0.4093(3)
N2_2 N -0.0156(11) 1.3562(6) 0.0834(3)
loop_
_geom_bond_atom_site_label_1
_geom_bond_atom_site_label_2
_geom_bond_site_symmetry_1
_geom_bond_site_symmetry_2
Pb1 O2 1_555 1_555
Pb2 O1 1_555 1_555
O1 C7 1_555 1_555
O2 C7 1_555 1_555
O3 C8 1_555 1_555
O4 C8 1_555 1_555
O5 Pb1 1_555 1_555
O6 Pb1 1_555 1_555
O7 Pb2 1_555 1_555
O8 Pb2 1_555 1_555
O9 Pb1 1_555 1_555
O10 Pb2 1_555 1_555
C1 C2 1_555 1_555
C2 H1 1_555 1_555
C3 C2 1_555 1_555
H2 C3 1_555 1_555
C4 C3 1_555 1_555
C5 C4 1_555 1_555
H3 C5 1_555 1_555
C6 C1 1_555 1_555
H4 C6 1_555 1_555
C7 C1 1_555 1_555
C8 C4 1_555 1_555
C9 C10 1_555 1_555
C10 H5 1_555 1_555
C11 O5 1_555 1_555
C12 C9 1_555 1_555
H6 C12 1_555 1_555
C13 O7 1_555 1_555
C14 C13 1_555 1_555
C15 C14 1_555 1_555
H7 C15 1_555 1_555
C16 C14 1_555 1_555
H8 C16 1_555 1_555
C17 O9 1_555 1_555
C18 C17 1_555 1_555
H9 C18 1_555 1_555
H10 C18 1_555 1_555
C19 C18 1_555 1_555
H11 C19 1_555 1_555
H12 C19 1_555 1_555
C20 C19 1_555 1_555
H13 C20 1_555 1_555
H14 C20 1_555 1_555
C21 H15 1_555 1_555
H16 C21 1_555 1_555
H17 C21 1_555 1_555
C22 O10 1_555 1_555
C23 C22 1_555 1_555
H18 C23 1_555 1_555
H19 C23 1_555 1_555
C24 C23 1_555 1_555
H20 C24 1_555 1_555
H21 C24 1_555 1_555
C25 C24 1_555 1_555
H22 C25 1_555 1_555
H23 C25 1_555 1_555
C26 H24 1_555 1_555
H25 C26 1_555 1_555
H26 C26 1_555 1_555
N1 C17 1_555 1_555
N2 C22 1_555 1_555
Pb1_2 O2_2 1_555 1_555
Pb1_3 O3 1_555 1_555
Pb1A O5A 1_555 1_555
Pb2_2 O1_2 1_555 1_555
Pb2_3 O3 1_555 1_555
Pb2A O7A 1_555 1_555
Pb2_4 O3_2 1_555 1_555
O1_2 C7_2 1_555 1_555
O2_2 C7_2 1_555 1_555
O3_2 Pb1 1_555 1_555
O3_3 Pb2 1_555 1_555
O3_4 Pb1_2 1_555 1_555
O3_5 Pb2_2 1_555 1_555
O4_2 Pb2_4 1_555 1_555
O4_3 Pb2 1_555 1_555
O4_4 Pb2_2 1_555 1_555
O5A C11A 1_555 1_555
O5_2 Pb1_2 1_555 1_555
O6A Pb1A 1_555 1_555
O6_2 Pb1_2 1_555 1_555
O7A C13A 1_555 1_555
O7_2 Pb2_2 1_555 1_555
O8A Pb2A 1_555 1_555
O8_2 Pb2_2 1_555 1_555
O9_2 Pb1_2 1_555 1_555
O10_2 Pb2_2 1_555 1_555
C1_2 C2_2 1_555 1_555
C2_2 H1_2 1_555 1_555
C3_2 C2_2 1_555 1_555
H2_2 C3_2 1_555 1_555
C4_2 C3_2 1_555 1_555
C5_2 C4_2 1_555 1_555
H3_2 C5_2 1_555 1_555
C6_2 C1_2 1_555 1_555
H4_2 C6_2 1_555 1_555
C7_2 C1_2 1_555 1_555
C8_2 O3_2 1_555 1_555
C9A C10A 1_555 1_555
C10A C12 1_555 1_555
H5A C10A 1_555 1_555
C11A O6A 1_555 1_555
C12A C10 1_555 1_555
H6A C12A 1_555 1_555
C13A O8A 1_555 1_555
C14A C13A 1_555 1_555
C15A C16 1_555 1_555
H7A C15A 1_555 1_555
C16A C15 1_555 1_555
H8A C16A 1_555 1_555
C17_2 O9_2 1_555 1_555
C18_2 C17_2 1_555 1_555
H9_2 C18_2 1_555 1_555
H10_2 C18_2 1_555 1_555
C19_2 C18_2 1_555 1_555
H11_2 C19_2 1_555 1_555
H12_2 C19_2 1_555 1_555
C20_2 C19_2 1_555 1_555
H13_2 C20_2 1_555 1_555
H14_2 C20_2 1_555 1_555
C21_2 H15_2 1_555 1_555
H16_2 C21_2 1_555 1_555
H17_2 C21_2 1_555 1_555
C22_2 O10_2 1_555 1_555
C23_2 C22_2 1_555 1_555
H18_2 C23_2 1_555 1_555
H19_2 C23_2 1_555 1_555
C24_2 C23_2 1_555 1_555
H20_2 C24_2 1_555 1_555
H21_2 C24_2 1_555 1_555
C25_2 C24_2 1_555 1_555
H22_2 C25_2 1_555 1_555
H23_2 C25_2 1_555 1_555
C26_2 H24_2 1_555 1_555
H25_2 C26_2 1_555 1_555
H26_2 C26_2 1_555 1_555
N1_2 C17_2 1_555 1_555
N2_2 C22_2 1_555 1_555
O4 Pb2_3 1_555 1_555
O6 C11 1_555 1_555
O8 C13 1_555 1_555
C5 C6 1_555 1_555
C9 C11 1_555 1_555
C20 N1 1_555 1_555
C21 N1 1_555 1_555
C25 N2 1_555 1_555
C26 N2 1_555 1_555
O4_2 C8_2 1_555 1_555
C4_2 C8_2 1_555 1_555
C5_2 C6_2 1_555 1_555
C9A C11A 1_555 1_555
C9A C12A 1_555 1_555
C14A C15A 1_555 1_555
C14A C16A 1_555 1_555
C20_2 N1_2 1_555 1_555
C21_2 N1_2 1_555 1_555
C25_2 N2_2 1_555 1_555
C26_2 N2_2 1_555 1_555

#END
