
#######################################################################
#
#                 Cambridge Crystallographic Data Centre
#                                CCDC 
#
#######################################################################
#
# If this CIF has been generated from an entry in the Cambridge 
# Structural Database, then it will include bibliographic, chemical, 
# crystal, experimental, refinement or atomic coordinate data resulting 
# from the CCDC's data processing and validation procedures.
#
#######################################################################

data_XILCEA
_symmetry_cell_setting           triclinic
_symmetry_space_group_name_H-M   'P -1'
_symmetry_Int_Tables_number      2
_space_group_name_Hall           '-P 1'
loop_
_symmetry_equiv_pos_site_id
_symmetry_equiv_pos_as_xyz
1 x,y,z
2 -x,-y,-z
_cell_length_a                   9.5840(17)
_cell_length_b                   9.852(3)
_cell_length_c                   12.345(3)
_cell_angle_alpha                77.48(3)
_cell_angle_beta                 77.958(15)
_cell_angle_gamma                68.19(3)
_cell_volume                     1045.86
loop_
_atom_site_label
_atom_site_type_symbol
_atom_site_fract_x
_atom_site_fract_y
_atom_site_fract_z
Zn1 Zn 0.16109(5) 0.97690(5) 0.09426(4)
Zn2 Zn 0.51238(5) 0.31854(5) 0.10380(4)
Zn3 Zn 0.64612(5) 0.80407(5) 0.07118(4)
Zn4 Zn 0.36458(6) 0.78517(5) 0.35738(4)
P1 P 0.39532(11) 0.65959(11) 0.14998(8)
P2 P 0.38745(11) 1.05753(11) 0.18598(8)
P3 P -0.17588(11) 1.09000(11) 0.15534(9)
O1 O 0.2347(3) 0.7722(3) 0.1569(3)
O2 O 0.3881(3) 0.5140(3) 0.1306(3)
O3 O 0.5008(3) 0.7132(3) 0.0474(2)
O4 O 0.4647(3) 0.6433(3) 0.2545(2)
O5 O 0.3860(3) 1.2082(3) 0.2006(2)
O6 O 0.2934(3) 0.9956(3) 0.2860(2)
O7 O 0.5505(3) 0.9487(3) 0.1720(2)
O8 O 0.3136(3) 1.0789(3) 0.0788(2)
O9 O -0.2849(3) 1.2482(3) 0.1356(3)
O10 O -0.0256(3) 1.0879(3) 0.1793(3)
O11 O -0.2449(4) 1.0055(4) 0.2662(3)
H1 H -0.3268 0.9931 0.2466
O12 O -0.1540(3) 1.0005(3) 0.0633(3)
N1 N 0.8342(4) 0.6484(4) 0.1155(3)
N2 N 1.0717(5) 0.5357(5) 0.1424(4)
H2 H 1.1639 0.5218 0.1488
N3 N 0.5240(5) 0.7351(5) 0.4553(3)
N4 N 0.6369(5) 0.7009(5) 0.5995(4)
H3 H 0.6552 0.7138 0.6611
N5 N 0.1707(5) 0.7810(4) 0.4553(3)
N6 N -0.0205(7) 0.8401(6) 0.5874(5)
H4 H -0.0711 0.8588 0.6519
C1 C 0.9647(5) 0.6656(5) 0.1195(5)
H5 H 0.9787 0.7565 0.1077
C2 C 1.0101(6) 0.4284(5) 0.1540(5)
H6 H 1.0594 0.3269 0.1700
C3 C 0.8631(5) 0.4978(5) 0.1376(4)
H7 H 0.7933 0.4516 0.1408
C4 C 0.5168(6) 0.7816(6) 0.5486(4)
H8 H 0.4376 0.8610 0.5757
C5 C 0.7258(8) 0.5942(7) 0.5371(6)
H9 H 0.8171 0.5208 0.5527
C6 C 0.6556(7) 0.6159(6) 0.4478(5)
H10 H 0.6908 0.5589 0.3903
C7 C 0.1284(8) 0.8041(6) 0.5598(5)
H11 H 0.1944 0.7962 0.6082
C8 C -0.0786(7) 0.8421(7) 0.4966(7)
H12 H -0.1806 0.8651 0.4917
C9 C 0.0403(6) 0.8039(6) 0.4132(5)
H13 H 0.0343 0.7951 0.3410
O12A O 0.1540(3) 0.9995(3) -0.0633(3)
O3A O 0.4992(3) 0.2868(3) -0.0474(2)
O5_2 O 0.3860(3) 0.2082(3) 0.2006(2)
O9_2 O 0.7151(3) 0.2482(3) 0.1356(3)
O8A O 0.6864(3) 0.9211(3) -0.0788(2)
Zn2A Zn 0.48762(5) 0.68146(5) -0.10380(4)
Zn2_2 Zn 0.51238(5) 1.31854(5) 0.10380(4)
Zn3A Zn 0.35388(5) 1.19593(5) -0.07118(4)
Zn2_3 Zn -0.48762(5) 1.31854(5) 0.10380(4)
Zn1A Zn -0.16109(5) 1.02310(5) -0.09426(4)
loop_
_geom_bond_atom_site_label_1
_geom_bond_atom_site_label_2
_geom_bond_site_symmetry_1
_geom_bond_site_symmetry_2
Zn1 O1 1_555 1_555
Zn2 O2 1_555 1_555
Zn3 O3 1_555 1_555
Zn4 O4 1_555 1_555
P1 O1 1_555 1_555
P2 O5 1_555 1_555
P3 O9 1_555 1_555
O2 P1 1_555 1_555
O3 P1 1_555 1_555
O4 P1 1_555 1_555
O5 Zn2_2 1_555 1_555
O6 Zn4 1_555 1_555
O7 Zn3 1_555 1_555
O8 Zn1 1_555 1_555
O9 Zn2_3 1_555 1_555
O10 Zn1 1_555 1_555
O11 P3 1_555 1_555
H1 O11 1_555 1_555
O12 P3 1_555 1_555
N1 Zn3 1_555 1_555
N2 H2 1_555 1_555
N3 Zn4 1_555 1_555
N4 H3 1_555 1_555
N5 Zn4 1_555 1_555
N6 H4 1_555 1_555
C1 N1 1_555 1_555
H5 C1 1_555 1_555
C2 N2 1_555 1_555
H6 C2 1_555 1_555
C3 N1 1_555 1_555
H7 C3 1_555 1_555
C4 N3 1_555 1_555
H8 C4 1_555 1_555
C5 N4 1_555 1_555
H9 C5 1_555 1_555
C6 N3 1_555 1_555
H10 C6 1_555 1_555
C7 N5 1_555 1_555
H11 C7 1_555 1_555
C8 N6 1_555 1_555
H12 C8 1_555 1_555
C9 N5 1_555 1_555
H13 C9 1_555 1_555
O12A Zn1 1_555 1_555
O3A Zn2 1_555 1_555
O5_2 Zn2 1_555 1_555
O9_2 Zn2 1_555 1_555
O8A Zn3 1_555 1_555
Zn2A O3 1_555 1_555
Zn3A O8 1_555 1_555
Zn1A O12 1_555 1_555
P2 O6 1_555 1_555
P2 O7 1_555 1_555
P2 O8 1_555 1_555
P3 O10 1_555 1_555
N2 C1 1_555 1_555
N4 C4 1_555 1_555
N6 C7 1_555 1_555
C2 C3 1_555 1_555
C5 C6 1_555 1_555
C8 C9 1_555 1_555

#END
