
#######################################################################
#
#                 Cambridge Crystallographic Data Centre
#                                CCDC 
#
#######################################################################
#
# If this CIF has been generated from an entry in the Cambridge 
# Structural Database, then it will include bibliographic, chemical, 
# crystal, experimental, refinement or atomic coordinate data resulting 
# from the CCDC's data processing and validation procedures.
#
#######################################################################

data_XILCEA01
_symmetry_cell_setting           triclinic
_symmetry_space_group_name_H-M   'P -1'
_symmetry_Int_Tables_number      2
_space_group_name_Hall           '-P 1'
loop_
_symmetry_equiv_pos_site_id
_symmetry_equiv_pos_as_xyz
1 x,y,z
2 -x,-y,-z
_cell_length_a                   9.5663(15)
_cell_length_b                   9.8530(16)
_cell_length_c                   12.3658(19)
_cell_angle_alpha                77.495(4)
_cell_angle_beta                 77.893(4)
_cell_angle_gamma                68.175(3)
_cell_volume                     1045.55
loop_
_atom_site_label
_atom_site_type_symbol
_atom_site_fract_x
_atom_site_fract_y
_atom_site_fract_z
Zn1 Zn 0.13551(6) 0.71468(6) 0.64264(4)
Zn2 Zn 0.14607(5) 0.30418(5) 1.07109(4)
Zn3 Zn 0.01235(5) 0.81856(5) 1.10374(4)
Zn4 Zn 0.33897(5) 0.52307(5) 0.90576(4)
P1 P 0.11259(12) 0.44229(12) 0.81399(9)
P2 P 0.10447(12) 0.84051(12) 0.85011(9)
P3 P 0.32417(12) 0.59005(12) 1.15533(9)
O1 O 0.2068(3) 0.5037(3) 0.7142(2)
O2 O 0.0357(3) 0.8568(3) 0.7456(2)
O3 O 0.1862(3) 0.4213(3) 0.9212(2)
O4 O -0.0010(3) 0.7865(3) 0.9525(2)
O5 O -0.0503(3) 0.5509(3) 0.8279(2)
O6 O 0.1143(3) 0.2917(3) 0.7992(2)
O7 O 0.1117(3) 0.9851(3) 0.8695(3)
O8 O 0.2150(3) 0.7480(4) 1.1355(3)
O9 O 0.4744(3) 0.5883(3) 1.1788(2)
O10 O 0.2648(3) 0.7284(3) 0.8429(3)
O11 O 0.3463(3) 0.5010(3) 1.0631(2)
O12 O 0.2553(4) 0.5054(4) 1.2659(3)
H1 H 0.1734 0.5035 1.2571
N1 N 0.3287(5) 0.7191(4) 0.5446(3)
N2 N 0.5218(7) 0.6603(6) 0.4142(5)
H2 H 0.5733 0.6416 0.3499
N3 N -0.0243(5) 0.7651(5) 0.5447(3)
N4 N -0.1375(6) 0.7993(6) 0.4009(4)
H3 H -0.1558 0.7871 0.3391
N5 N 0.3345(4) 0.1493(4) 1.1149(3)
N6 N 0.5716(4) 0.0363(5) 1.1422(4)
H4 H 0.6639 0.0229 1.1482
C1 C 0.3709(8) 0.6954(6) 0.4412(5)
H5 H 0.3054 0.7020 0.3929
C2 C 0.5788(8) 0.6593(8) 0.5048(7)
H6 H 0.6805 0.6376 0.5106
C3 C 0.4603(6) 0.6958(6) 0.5847(5)
H7 H 0.4659 0.7042 0.6571
C4 C -0.0171(6) 0.7184(6) 0.4513(4)
H8 H 0.0620 0.6390 0.4242
C5 C -0.2265(7) 0.9044(7) 0.4642(6)
H9 H -0.3188 0.9769 0.4494
C6 C -0.1563(7) 0.8841(6) 0.5520(5)
H10 H -0.1914 0.9416 0.6091
C7 C 0.4642(6) 0.1653(6) 1.1194(4)
H11 H 0.4782 0.2562 1.1079
C8 C 0.5104(6) -0.0716(6) 1.1543(5)
H12 H 0.5597 -0.1730 1.1708
C9 C 0.3629(6) -0.0016(5) 1.1375(4)
H13 H 0.2927 -0.0476 1.1408
O4A O 0.0010(3) 0.2135(3) 1.0475(2)
O5A O 0.0503(3) 0.4491(3) 1.1721(2)
O6A O -0.1143(3) 0.7083(3) 1.2008(2)
O7A O -0.1117(3) 1.0149(3) 1.1305(3)
O9A O 0.5256(3) 0.4117(3) 0.8212(2)
Zn2A Zn -0.14607(5) 0.69582(5) 0.92891(4)
Zn3A Zn -0.01235(5) 0.18144(5) 0.89626(4)
Zn3A_2 Zn -0.01235(5) 1.18144(5) 0.89626(4)
Zn4A Zn 0.66103(5) 0.47693(5) 1.09424(4)
loop_
_geom_bond_atom_site_label_1
_geom_bond_atom_site_label_2
_geom_bond_site_symmetry_1
_geom_bond_site_symmetry_2
Zn1 O1 1_555 1_555
Zn2 O3 1_555 1_555
Zn3 O4 1_555 1_555
Zn4 O3 1_555 1_555
P1 O1 1_555 1_555
P2 O2 1_555 1_555
P3 O8 1_555 1_555
O2 Zn1 1_555 1_555
O3 P1 1_555 1_555
O4 P2 1_555 1_555
O5 P1 1_555 1_555
O6 P1 1_555 1_555
O7 P2 1_555 1_555
O8 Zn3 1_555 1_555
O9 P3 1_555 1_555
O10 Zn4 1_555 1_555
O11 Zn4 1_555 1_555
O12 P3 1_555 1_555
H1 O12 1_555 1_555
N1 Zn1 1_555 1_555
N2 H2 1_555 1_555
N3 Zn1 1_555 1_555
N4 H3 1_555 1_555
N5 Zn2 1_555 1_555
N6 H4 1_555 1_555
C1 N1 1_555 1_555
H5 C1 1_555 1_555
C2 N2 1_555 1_555
H6 C2 1_555 1_555
C3 N1 1_555 1_555
H7 C3 1_555 1_555
C4 N3 1_555 1_555
H8 C4 1_555 1_555
C5 N4 1_555 1_555
H9 C5 1_555 1_555
C6 N3 1_555 1_555
H10 C6 1_555 1_555
C7 N5 1_555 1_555
H11 C7 1_555 1_555
C8 N6 1_555 1_555
H12 C8 1_555 1_555
C9 N5 1_555 1_555
H13 C9 1_555 1_555
O4A Zn2 1_555 1_555
O5A Zn2 1_555 1_555
O6A Zn3 1_555 1_555
O7A Zn3 1_555 1_555
O9A Zn4 1_555 1_555
Zn2A O4 1_555 1_555
Zn3A O6 1_555 1_555
Zn3A_2 O7 1_555 1_555
Zn4A O9 1_555 1_555
P2 O10 1_555 1_555
P3 O11 1_555 1_555
O5 Zn2A 1_555 1_555
N2 C1 1_555 1_555
N4 C4 1_555 1_555
N6 C7 1_555 1_555
C2 C3 1_555 1_555
C5 C6 1_555 1_555
C8 C9 1_555 1_555
O4A Zn3A 1_555 1_555

#END
