
#######################################################################
#
#                 Cambridge Crystallographic Data Centre
#                                CCDC 
#
#######################################################################
#
# If this CIF has been generated from an entry in the Cambridge 
# Structural Database, then it will include bibliographic, chemical, 
# crystal, experimental, refinement or atomic coordinate data resulting 
# from the CCDC's data processing and validation procedures.
#
#######################################################################

data_XILDUS
_symmetry_cell_setting           monoclinic
_symmetry_space_group_name_H-M   'P 21'
_symmetry_Int_Tables_number      4
_space_group_name_Hall           'P 2yb'
loop_
_symmetry_equiv_pos_site_id
_symmetry_equiv_pos_as_xyz
1 x,y,z
2 -x,1/2+y,-z
_cell_length_a                   8.6965(9)
_cell_length_b                   6.5597(7)
_cell_length_c                   11.8601(13)
_cell_angle_alpha                90
_cell_angle_beta                 109.245(2)
_cell_angle_gamma                90
_cell_volume                     638.768
loop_
_atom_site_label
_atom_site_type_symbol
_atom_site_fract_x
_atom_site_fract_y
_atom_site_fract_z
Mn1 Mn 0.20518(4) 0.28461(8) 0.01852(3)
C1 C 0.2386(4) -0.0499(5) -0.1771(3)
H1 H 0.2845 -0.1357 -0.1123
C2 C 0.2498(4) -0.1043(6) -0.2863(3)
H2 H 0.3023 -0.2240 -0.2948
C3 C 0.1817(4) 0.0222(6) -0.3828(3)
H3 H 0.1896 -0.0090 -0.4572
C4 C 0.1025(4) 0.1938(6) -0.3673(3)
H4 H 0.0545 0.2800 -0.4316
C5 C 0.0938(3) 0.2397(5) -0.2553(3)
C6 C 0.0090(3) 0.4189(5) -0.2304(2)
C7 C -0.1260(4) 0.6830(5) -0.2408(3)
C8 C -0.2227(4) 0.8677(5) -0.2788(3)
C9 C -0.2739(4) 0.9397(6) -0.3957(3)
H5 H -0.2508 0.8674 -0.4556
C10 C -0.3587(5) 1.1186(6) -0.4209(3)
H6 H -0.3943 1.1689 -0.4985
C11 C -0.3914(4) 1.2242(6) -0.3312(3)
H7 H -0.4469 1.3477 -0.3463
C12 C -0.3394(4) 1.1413(6) -0.2185(3)
H8 H -0.3627 1.2112 -0.1579
N1 N 0.0114(3) 0.4542(4) -0.1192(2)
N2 N -0.0767(3) 0.6266(4) -0.1258(2)
N3 N -0.0742(3) 0.5565(4) -0.3107(2)
N4 N 0.1652(3) 0.1196(4) -0.1599(2)
N5 N -0.2582(3) 0.9683(4) -0.1913(2)
N6 N 0.3757(3) 0.4973(5) -0.0301(3)
N7 N 0.4788(3) 0.5367(4) -0.0680(2)
N8 N 0.5818(3) 0.5817(5) -0.1066(3)
Mn1A Mn -0.20518(4) 0.78461(8) -0.01852(3)
Mn1A_2 Mn 0.79482(4) 0.78461(8) -0.01852(3)
N2A N 0.0767(3) 0.1266(4) 0.1258(2)
N5A N 0.2582(3) 0.4683(4) 0.1913(2)
N8A N 0.4182(3) 0.0817(5) 0.1066(3)
loop_
_geom_bond_atom_site_label_1
_geom_bond_atom_site_label_2
_geom_bond_site_symmetry_1
_geom_bond_site_symmetry_2
Mn1 N1 1_555 1_555
C1 H1 1_555 1_555
C2 C1 1_555 1_555
H2 C2 1_555 1_555
C3 C2 1_555 1_555
H3 C3 1_555 1_555
C4 C3 1_555 1_555
H4 C4 1_555 1_555
C5 C4 1_555 1_555
C6 C5 1_555 1_555
C7 C8 1_555 1_555
C8 C9 1_555 1_555
C9 H5 1_555 1_555
C10 C9 1_555 1_555
H6 C10 1_555 1_555
C11 C10 1_555 1_555
H7 C11 1_555 1_555
C12 C11 1_555 1_555
H8 C12 1_555 1_555
N1 C6 1_555 1_555
N2 C7 1_555 1_555
N3 C6 1_555 1_555
N4 Mn1 1_555 1_555
N5 C8 1_555 1_555
N6 Mn1 1_555 1_555
N7 N6 1_555 1_555
N8 N7 1_555 1_555
Mn1A N2 1_555 1_555
Mn1A_2 N8 1_555 1_555
N2A Mn1 1_555 1_555
N5A Mn1 1_555 1_555
N8A Mn1 1_555 1_555
C1 N4 1_555 1_555
C5 N4 1_555 1_555
C7 N3 1_555 1_555
C12 N5 1_555 1_555
N1 N2 1_555 1_555
N5 Mn1A 1_555 1_555

#END
