
#######################################################################
#
#                 Cambridge Crystallographic Data Centre
#                                CCDC 
#
#######################################################################
#
# If this CIF has been generated from an entry in the Cambridge 
# Structural Database, then it will include bibliographic, chemical, 
# crystal, experimental, refinement or atomic coordinate data resulting 
# from the CCDC's data processing and validation procedures.
#
#######################################################################

data_XILFAB
_symmetry_cell_setting           monoclinic
_symmetry_space_group_name_H-M   'P 21/n'
_symmetry_Int_Tables_number      14
_space_group_name_Hall           '-P 2yn'
loop_
_symmetry_equiv_pos_site_id
_symmetry_equiv_pos_as_xyz
1 x,y,z
2 1/2-x,1/2+y,1/2-z
3 -x,-y,-z
4 1/2+x,1/2-y,1/2+z
_cell_length_a                   10.3749(8)
_cell_length_b                   17.7228(14)
_cell_length_c                   14.3154(11)
_cell_angle_alpha                90
_cell_angle_beta                 106.919(2)
_cell_angle_gamma                90
_cell_volume                     2518.28
loop_
_atom_site_label
_atom_site_type_symbol
_atom_site_fract_x
_atom_site_fract_y
_atom_site_fract_z
K1 K 0.41279(10) 0.93281(5) 0.41109(6)
Zn1 Zn 0.51185(4) 1.058251(18) 0.22812(3)
C1 C 0.3823(4) 0.93103(19) 0.1371(3)
C2 C 0.3149(4) 0.85465(18) 0.1359(2)
C3 C 0.1822(4) 0.84189(19) 0.0805(2)
C4 C 0.1204(4) 0.77249(19) 0.0835(2)
C5 C 0.1896(3) 0.71553(17) 0.1439(2)
C6 C 0.3233(4) 0.72755(18) 0.1979(3)
C7 C 0.3853(3) 0.79668(19) 0.1938(3)
C8 C 0.1216(4) 0.64127(18) 0.1539(3)
C9 C 0.7220(3) 1.0178(2) 0.3819(3)
C10 C 0.8669(3) 1.00796(19) 0.4420(2)
C11 C 0.9172(4) 0.93712(18) 0.4754(3)
C12 C 1.0503(4) 0.92987(19) 0.5335(3)
C13 C 0.0785(6) 0.8421(3) 0.2938(4)
H1 H 0.0679 0.7899 0.2957
C14 C 0.0407(7) 0.9732(3) 0.2577(5)
H2 H 0.0752 0.9864 0.3255
H3 H -0.0333 1.0057 0.2267
H4 H 0.1106 0.9788 0.2266
C15 C -0.1366(6) 0.8816(4) 0.1899(5)
H5 H -0.1546 0.8284 0.1886
H6 H -0.1456 0.8990 0.1248
H7 H -0.1997 0.9078 0.2157
C16 C 0.6396(7) 1.1645(3) 0.1261(5)
H8 H 0.6366 1.1907 0.0668
H9 H 0.7247 1.1393 0.1503
H10 H 0.6288 1.2000 0.1739
C17 C 0.4013(8) 1.1458(4) 0.0499(4)
H11 H 0.3647 1.1738 0.0936
H12 H 0.3380 1.1078 0.0174
H13 H 0.4185 1.1794 0.0023
Cl1 Cl 0.54970(11) 0.81111(6) 0.26159(10)
Cl2 Cl 0.41001(12) 0.65704(6) 0.27235(9)
Cl3 Cl 0.09321(13) 0.91424(6) 0.00966(8)
Cl4 Cl -0.04254(11) 0.75538(6) 0.01424(8)
Cl5 Cl 0.81543(10) 0.85913(6) 0.44430(8)
Cl6 Cl 1.11294(11) 0.84147(5) 0.57420(8)
N1 N -0.0050(5) 0.8955(2) 0.2493(3)
N2 N 0.5305(4) 1.10882(15) 0.1066(2)
H14 H 0.5473 1.0779 0.0664
O1 O 0.3925(3) 0.96998(13) 0.21237(17)
O2 O 0.4255(5) 0.94887(17) 0.0698(2)
O3 O 0.0620(3) 0.64453(13) 0.22008(18)
O4 O 0.1325(3) 0.58780(15) 0.1035(2)
O5 O 0.7014(3) 1.02818(16) 0.29166(18)
O6 O 0.6348(3) 1.01598(18) 0.4238(2)
O7 O 0.1936(4) 0.8518(2) 0.3427(3)
C9B C 1.2780(3) 0.9822(2) 0.6181(3)
C10B C 1.1331(3) 0.99204(19) 0.5580(2)
C11B C 1.0828(4) 1.06288(18) 0.5246(3)
C12B C 0.9497(4) 1.07013(19) 0.4665(3)
Cl5B Cl 1.18457(10) 1.14087(6) 0.55570(8)
Cl6B Cl 0.88706(11) 1.15853(5) 0.42580(8)
O5B O 1.2986(3) 0.97182(16) 0.70834(18)
O6B O 1.3652(3) 0.98402(18) 0.5762(2)
K1B K 0.58721(10) 1.06719(5) 0.58891(6)
Zn1B Zn 0.48815(4) 0.941749(18) 0.77188(3)
C1B C 0.6177(4) 1.06897(19) 0.8629(3)
C2B C 0.6851(4) 1.14535(18) 0.8641(2)
C3B C 0.8178(4) 1.15811(19) 0.9195(2)
C4B C 0.8796(4) 1.22751(19) 0.9165(2)
C5B C 0.8104(3) 1.28447(17) 0.8561(2)
C6B C 0.6767(4) 1.27245(18) 0.8021(3)
C7B C 0.6147(3) 1.20332(19) 0.8062(3)
C8B C 0.8784(4) 1.35873(18) 0.8461(3)
C13B C 0.9215(6) 1.1579(3) 0.7062(4)
H1B H 0.9321 1.2101 0.7043
C14B C 0.9593(7) 1.0268(3) 0.7423(5)
H2B H 0.9248 1.0136 0.6745
H3B H 1.0333 0.9943 0.7733
H4B H 0.8894 1.0212 0.7734
C15B C 1.1366(6) 1.1184(4) 0.8101(5)
H5B H 1.1546 1.1716 0.8114
H6B H 1.1456 1.1010 0.8752
H7B H 1.1997 1.0922 0.7843
C16B C 0.3604(7) 0.8355(3) 0.8739(5)
H8B H 0.3634 0.8093 0.9332
H9B H 0.2753 0.8607 0.8497
H10B H 0.3712 0.8000 0.8261
C17B C 0.5987(8) 0.8542(4) 0.9501(4)
H11B H 0.6353 0.8262 0.9064
H12B H 0.6620 0.8922 0.9826
H13B H 0.5815 0.8206 0.9977
Cl1B Cl 0.45030(11) 1.18889(6) 0.73841(10)
Cl2B Cl 0.58999(12) 1.34296(6) 0.72765(9)
Cl3B Cl 0.90679(13) 1.08576(6) 0.99034(8)
Cl4B Cl 1.04254(11) 1.24462(6) 0.98576(8)
N1B N 1.0050(5) 1.1045(2) 0.7507(3)
N2B N 0.4695(4) 0.89118(15) 0.8934(2)
H14B H 0.4527 0.9221 0.9336
O1B O 0.6075(3) 1.03002(13) 0.78763(17)
O2B O 0.5745(5) 1.05113(17) 0.9302(2)
O3B O 0.9380(3) 1.35547(13) 0.77992(18)
O4B O 0.8675(3) 1.41220(15) 0.8965(2)
O7B O 0.8064(4) 1.1482(2) 0.6573(3)
K1_2 K 1.41279(10) 0.93281(5) 0.41109(6)
K1A K 0.08721(10) 0.43281(5) 0.08891(6)
K1A_2 K 1.08721(10) 1.43281(5) 1.08891(6)
K1B_2 K 1.58721(10) 1.06719(5) 0.58891(6)
K1C K -0.08721(10) 0.56719(5) -0.08891(6)
K1C_2 K 0.91279(10) 1.56719(5) 0.91109(6)
Zn1A Zn -0.01185(4) 0.558251(18) 0.27188(3)
Zn1B_2 Zn 1.48815(4) 0.941749(18) 0.77188(3)
Zn1C Zn 1.01185(4) 1.441749(18) 0.72812(3)
O3A O 0.4380(3) 1.14453(13) 0.27992(18)
O3C O 0.5620(3) 0.85547(13) 0.72008(18)
O4A O 0.3675(3) 1.08780(15) 0.3965(2)
O4C O 0.6325(3) 0.91220(15) 0.6035(2)
O5B_2 O 0.2986(3) 0.97182(16) 0.70834(18)
O6B_2 O 0.3652(3) 0.98402(18) 0.5762(2)
loop_
_geom_bond_atom_site_label_1
_geom_bond_atom_site_label_2
_geom_bond_site_symmetry_1
_geom_bond_site_symmetry_2
K1 O1 1_555 1_555
Zn1 N2 1_555 1_555
C1 C2 1_555 1_555
C2 C3 1_555 1_555
C3 C4 1_555 1_555
C4 C5 1_555 1_555
C5 C6 1_555 1_555
C6 C7 1_555 1_555
C7 C2 1_555 1_555
C8 C5 1_555 1_555
C9 C10 1_555 1_555
C10 C11 1_555 1_555
C11 C12 1_555 1_555
C12 Cl6 1_555 1_555
C13 H1 1_555 1_555
C14 H2 1_555 1_555
H3 C14 1_555 1_555
H4 C14 1_555 1_555
C15 H5 1_555 1_555
H6 C15 1_555 1_555
H7 C15 1_555 1_555
C16 H8 1_555 1_555
H9 C16 1_555 1_555
H10 C16 1_555 1_555
C17 H11 1_555 1_555
H12 C17 1_555 1_555
H13 C17 1_555 1_555
Cl1 C7 1_555 1_555
Cl2 C6 1_555 1_555
Cl3 C3 1_555 1_555
Cl4 C4 1_555 1_555
Cl5 C11 1_555 1_555
N1 C13 1_555 1_555
N2 C16 1_555 1_555
H14 N2 1_555 1_555
O1 Zn1 1_555 1_555
O2 C1 1_555 1_555
O3 C8 1_555 1_555
O4 C8 1_555 1_555
O5 Zn1 1_555 1_555
O6 K1 1_555 1_555
O7 K1 1_555 1_555
C9B C10B 1_555 1_555
C10B C12 1_555 1_555
C11B C10B 1_555 1_555
C12B C10 1_555 1_555
Cl5B C11B 1_555 1_555
Cl6B C12B 1_555 1_555
O5B C9B 1_555 1_555
O6B C9B 1_555 1_555
K1B O6 1_555 1_555
Zn1B N2B 1_555 1_555
C1B C2B 1_555 1_555
C2B C3B 1_555 1_555
C3B C4B 1_555 1_555
C4B C5B 1_555 1_555
C5B C6B 1_555 1_555
C6B C7B 1_555 1_555
C7B C2B 1_555 1_555
C8B C5B 1_555 1_555
C13B H1B 1_555 1_555
C14B H2B 1_555 1_555
H3B C14B 1_555 1_555
H4B C14B 1_555 1_555
C15B H5B 1_555 1_555
H6B C15B 1_555 1_555
H7B C15B 1_555 1_555
C16B H8B 1_555 1_555
H9B C16B 1_555 1_555
H10B C16B 1_555 1_555
C17B H11B 1_555 1_555
H12B C17B 1_555 1_555
H13B C17B 1_555 1_555
Cl1B C7B 1_555 1_555
Cl2B C6B 1_555 1_555
Cl3B C3B 1_555 1_555
Cl4B C4B 1_555 1_555
N1B C13B 1_555 1_555
N2B C16B 1_555 1_555
H14B N2B 1_555 1_555
O1B K1B 1_555 1_555
O2B C1B 1_555 1_555
O3B C8B 1_555 1_555
O4B C8B 1_555 1_555
O7B K1B 1_555 1_555
K1_2 O6B 1_555 1_555
K1A O4 1_555 1_555
K1A_2 O4B 1_555 1_555
K1B_2 O6B 1_555 1_555
K1C O4 1_555 1_555
K1C_2 O4B 1_555 1_555
Zn1A O3 1_555 1_555
Zn1B_2 O5B 1_555 1_555
Zn1C O3B 1_555 1_555
O3A Zn1 1_555 1_555
O3C Zn1B 1_555 1_555
O4A K1 1_555 1_555
O4C K1 1_555 1_555
O5B_2 Zn1B 1_555 1_555
O6B_2 K1 1_555 1_555
C1 O1 1_555 1_555
C9 O5 1_555 1_555
C9 O6 1_555 1_555
C13 O7 1_555 1_555
C14 N1 1_555 1_555
C15 N1 1_555 1_555
C17 N2 1_555 1_555
C11B C12B 1_555 1_555
K1B O4A 1_555 1_555
K1B O4C 1_555 1_555
K1B O6B_2 1_555 1_555
Zn1B O1B 1_555 1_555
C1B O1B 1_555 1_555
C13B O7B 1_555 1_555
C14B N1B 1_555 1_555
C15B N1B 1_555 1_555
C17B N2B 1_555 1_555

#END
