
#######################################################################
#
#                 Cambridge Crystallographic Data Centre
#                                CCDC 
#
#######################################################################
#
# If this CIF has been generated from an entry in the Cambridge 
# Structural Database, then it will include bibliographic, chemical, 
# crystal, experimental, refinement or atomic coordinate data resulting 
# from the CCDC's data processing and validation procedures.
#
#######################################################################

data_XILGOP
_symmetry_cell_setting           orthorhombic
_symmetry_space_group_name_H-M   'P n n a'
_symmetry_Int_Tables_number      52
_space_group_name_Hall           '-P 2a 2bc'
loop_
_symmetry_equiv_pos_site_id
_symmetry_equiv_pos_as_xyz
1 x,y,z
2 1/2-x,-y,z
3 1/2-x,1/2+y,1/2-z
4 x,1/2-y,1/2-z
5 -x,-y,-z
6 1/2+x,y,-z
7 1/2+x,1/2-y,1/2+z
8 -x,1/2+y,1/2+z
_cell_length_a                   14.476(3)
_cell_length_b                   12.643(3)
_cell_length_c                   8.2179(16)
_cell_angle_alpha                90
_cell_angle_beta                 90
_cell_angle_gamma                90
_cell_volume                     1504.04
loop_
_atom_site_label
_atom_site_type_symbol
_atom_site_fract_x
_atom_site_fract_y
_atom_site_fract_z
Co1 Co 0.48472(3) 0.7500 -0.7500
Na1 Na 0.26971(6) 0.85584(7) -0.39364(11)
N1 N 0.46109(12) 0.59694(13) -0.6959(2)
O1 O 0.38369(11) 0.75524(11) -0.5514(2)
C1 C 0.39461(13) 0.57119(16) -0.5917(2)
C2 C 0.48779(15) 0.41704(17) -0.7593(3)
H1 H 0.5199 0.3657 -0.8174
C3 C 0.50857(14) 0.52354(17) -0.7765(2)
C4 C 0.37083(15) 0.46689(17) -0.5658(3)
H2 H 0.3247 0.4489 -0.4920
C5 C 0.41763(16) 0.38953(17) -0.6527(3)
H3 H 0.4018 0.3188 -0.6394
O2 O 0.29805(11) 0.65269(13) -0.39208(19)
C6 C 0.35443(14) 0.66626(16) -0.5038(3)
O3 O 0.59125(11) 0.66942(12) -0.87976(19)
C7 C 0.58828(14) 0.56926(16) -0.8724(3)
O4 O 0.64704(10) 0.50923(12) -0.9290(2)
Na1C Na 0.26971(6) 0.64416(7) -1.10636(11)
Na1C_2 Na 0.26971(6) 0.64416(7) -0.10636(11)
Na1F Na 0.76971(6) 0.64416(7) -0.89364(11)
Na1G Na 0.73029(6) 0.35584(7) -0.89364(11)
Na1_2 Na 0.26971(6) 0.85584(7) -1.39364(11)
Na1E Na 0.76971(6) 0.85584(7) -0.60636(11)
Na1D Na 0.73029(6) 1.14416(7) -0.60636(11)
N1C N 0.46109(12) 0.90306(13) -0.8041(2)
O1C O 0.38369(11) 0.74476(11) -0.9486(2)
C1C C 0.39461(13) 0.92881(16) -0.9083(2)
C2C C 0.48779(15) 1.08296(17) -0.7407(3)
H1C H 0.5199 1.1343 -0.6826
C3C C 0.50857(14) 0.97646(17) -0.7235(2)
C4C C 0.37083(15) 1.03311(17) -0.9342(3)
H2C H 0.3247 1.0511 -1.0080
C5C C 0.41763(16) 1.11047(17) -0.8473(3)
H3C H 0.4018 1.1812 -0.8606
O2C O 0.29805(11) 0.84731(13) -1.10792(19)
O2C_2 O 0.29805(11) 0.84731(13) -0.10792(19)
O2_2 O 0.29805(11) 0.65269(13) -1.39208(19)
C6C C 0.35443(14) 0.83374(16) -0.9962(3)
O3C O 0.59125(11) 0.83058(12) -0.62024(19)
O3F O 0.09125(11) 0.83058(12) -0.37976(19)
O3E O 0.09125(11) 0.66942(12) -1.12024(19)
C7C C 0.58828(14) 0.93074(16) -0.6276(3)
O4C O 0.64704(10) 0.99077(12) -0.5710(2)
O4F O 0.14704(10) 0.99077(12) -0.4290(2)
O4G O 0.35296(10) 1.00923(12) -0.4290(2)
O4E O 0.14704(10) 0.50923(12) -1.0710(2)
O4D O 0.35296(10) 0.49077(12) -1.0710(2)
loop_
_geom_bond_atom_site_label_1
_geom_bond_atom_site_label_2
_geom_bond_site_symmetry_1
_geom_bond_site_symmetry_2
Co1 N1 1_555 1_555
Na1 O1 1_555 1_555
N1 C1 1_555 1_555
O1 Co1 1_555 1_555
C1 C4 1_555 1_555
C2 H1 1_555 1_555
C3 N1 1_555 1_555
C4 H2 1_555 1_555
C5 C2 1_555 1_555
H3 C5 1_555 1_555
O2 Na1 1_555 1_555
C6 O1 1_555 1_555
O3 Co1 1_555 1_555
C7 C3 1_555 1_555
O4 C7 1_555 1_555
Na1C O1C 1_555 1_555
Na1C_2 O2 1_555 1_555
Na1F O3 1_555 1_555
Na1G O4 1_555 1_555
Na1_2 O2C 1_555 1_555
Na1E O3C 1_555 1_555
Na1D O4C 1_555 1_555
N1C Co1 1_555 1_555
O1C Co1 1_555 1_555
C1C N1C 1_555 1_555
C2C H1C 1_555 1_555
C3C N1C 1_555 1_555
C4C C1C 1_555 1_555
H2C C4C 1_555 1_555
C5C C2C 1_555 1_555
H3C C5C 1_555 1_555
O2C Na1C 1_555 1_555
O2C_2 Na1 1_555 1_555
O2_2 Na1C 1_555 1_555
C6C O1C 1_555 1_555
O3C Co1 1_555 1_555
O3F Na1 1_555 1_555
O3E Na1C 1_555 1_555
C7C C3C 1_555 1_555
O4C Na1E 1_555 1_555
O4F Na1 1_555 1_555
O4G Na1 1_555 1_555
O4E Na1C 1_555 1_555
O4D Na1C 1_555 1_555
C1 C6 1_555 1_555
C2 C3 1_555 1_555
C4 C5 1_555 1_555
O2 C6 1_555 1_555
O3 C7 1_555 1_555
O4 Na1F 1_555 1_555
Na1C_2 O2C_2 1_555 1_555
Na1_2 O2_2 1_555 1_555
C1C C6C 1_555 1_555
C2C C3C 1_555 1_555
C4C C5C 1_555 1_555
O2C C6C 1_555 1_555
O3C C7C 1_555 1_555
C7C O4C 1_555 1_555

#END
