
#######################################################################
#
#                 Cambridge Crystallographic Data Centre
#                                CCDC 
#
#######################################################################
#
# If this CIF has been generated from an entry in the Cambridge 
# Structural Database, then it will include bibliographic, chemical, 
# crystal, experimental, refinement or atomic coordinate data resulting 
# from the CCDC's data processing and validation procedures.
#
#######################################################################

data_XILHUW
_symmetry_cell_setting           monoclinic
_symmetry_space_group_name_H-M   'C 2/c'
_symmetry_Int_Tables_number      15
_space_group_name_Hall           '-C 2yn'
loop_
_symmetry_equiv_pos_site_id
_symmetry_equiv_pos_as_xyz
1 x,y,z
2 1/2+x,1/2+y,z
3 -x,y,1/2-z
4 1/2-x,1/2+y,1/2-z
5 -x,-y,-z
6 1/2-x,1/2-y,-z
7 x,-y,1/2+z
8 1/2+x,1/2-y,1/2+z
_cell_length_a                   28.7995(17)
_cell_length_b                   8.0475(5)
_cell_length_c                   15.2845(9)
_cell_angle_alpha                90
_cell_angle_beta                 114.2620(10)
_cell_angle_gamma                90
_cell_volume                     3229.52
loop_
_atom_site_label
_atom_site_type_symbol
_atom_site_fract_x
_atom_site_fract_y
_atom_site_fract_z
Zn1 Zn 0.126630(9) 0.87864(3) 0.431899(16)
N1 N 0.08079(7) 0.8761(2) 0.50917(13)
O1 O 0.07901(6) 1.0274(2) 0.80930(11)
O2 O 0.14500(7) 1.0907(2) 0.77747(13)
C1 C 0.10001(8) 0.9447(3) 0.59501(15)
H1 H 0.1312 0.9988 0.6141
C2 C 0.03160(9) 0.8594(3) 0.63348(16)
H2 H 0.0155 0.8544 0.6752
C3 C 0.00951(8) 0.7822(3) 0.54283(15)
C4 C 0.07678(8) 0.9417(3) 0.65969(15)
C5 C 0.10280(9) 1.0280(3) 0.75489(15)
C6 C 0.01183(9) 0.7247(3) 0.38800(15)
H3 H 0.0278 0.7340 0.3462
C7 C -0.05816(10) 0.6271(3) 0.4220(2)
H4 H -0.0889 0.5703 0.4019
C8 C 0.03451(8) 0.7944(2) 0.48051(14)
C9 C -0.03377(10) 0.6432(3) 0.35961(18)
H5 H -0.0488 0.5979 0.2983
C10 C -0.03718(9) 0.6940(3) 0.51180(18)
H6 H -0.0535 0.6819 0.5528
N2 N 0.17247(7) 1.0863(2) 0.49329(13)
O3 O 0.16472(6) 1.67676(19) 0.47914(12)
O4 O 0.10349(7) 1.5261(2) 0.36969(13)
C11 C 0.17215(8) 1.3862(2) 0.49059(16)
C12 C 0.15142(8) 1.2295(2) 0.45446(15)
H7 H 0.1210 1.2263 0.3998
C13 C 0.14361(9) 1.5398(3) 0.44045(16)
C14 C 0.24106(8) 1.2430(3) 0.61467(15)
C15 C 0.21666(8) 1.3917(2) 0.57096(16)
H8 H 0.2309 1.4937 0.5969
C16 C 0.24291(9) 0.9402(3) 0.61506(17)
H9 H 0.2283 0.8389 0.5886
C17 C 0.21828(8) 1.0899(2) 0.57371(15)
C18 C 0.28822(9) 0.9438(3) 0.69407(18)
H10 H 0.3045 0.8446 0.7204
C19 C 0.31046(10) 1.0950(3) 0.7359(2)
H11 H 0.3410 1.0951 0.7903
C20 C 0.28758(8) 1.2421(3) 0.69749(17)
H12 H 0.3026 1.3420 0.7257
Zn1F Zn 0.126630(9) 1.12136(3) 0.931899(16)
Zn1_2 Zn 0.126630(9) 1.87864(3) 0.431899(16)
O1F O 0.07901(6) 0.9726(2) 0.30930(11)
O3_2 O 0.16472(6) 0.67676(19) 0.47914(12)
loop_
_geom_bond_atom_site_label_1
_geom_bond_atom_site_label_2
_geom_bond_site_symmetry_1
_geom_bond_site_symmetry_2
Zn1 N1 1_555 1_555
N1 C1 1_555 1_555
O1 C5 1_555 1_555
O2 C5 1_555 1_555
C1 H1 1_555 1_555
C2 H2 1_555 1_555
C3 C2 1_555 1_555
C4 C1 1_555 1_555
C5 C4 1_555 1_555
C6 H3 1_555 1_555
C7 H4 1_555 1_555
C8 N1 1_555 1_555
C9 C6 1_555 1_555
H5 C9 1_555 1_555
C10 C3 1_555 1_555
H6 C10 1_555 1_555
N2 Zn1 1_555 1_555
O3 C13 1_555 1_555
O4 C13 1_555 1_555
C11 C12 1_555 1_555
C12 N2 1_555 1_555
H7 C12 1_555 1_555
C13 C11 1_555 1_555
C14 C15 1_555 1_555
C15 C11 1_555 1_555
H8 C15 1_555 1_555
C16 H9 1_555 1_555
C17 N2 1_555 1_555
C18 C16 1_555 1_555
H10 C18 1_555 1_555
C19 C18 1_555 1_555
H11 C19 1_555 1_555
C20 C14 1_555 1_555
H12 C20 1_555 1_555
Zn1F O1 1_555 1_555
Zn1_2 O3 1_555 1_555
O1F Zn1 1_555 1_555
O3_2 Zn1 1_555 1_555
C2 C4 1_555 1_555
C3 C8 1_555 1_555
C6 C8 1_555 1_555
C7 C9 1_555 1_555
C7 C10 1_555 1_555
C14 C17 1_555 1_555
C16 C17 1_555 1_555
C19 C20 1_555 1_555

#END
