
#######################################################################
#
#                 Cambridge Crystallographic Data Centre
#                                CCDC 
#
#######################################################################
#
# If this CIF has been generated from an entry in the Cambridge 
# Structural Database, then it will include bibliographic, chemical, 
# crystal, experimental, refinement or atomic coordinate data resulting 
# from the CCDC's data processing and validation procedures.
#
#######################################################################

data_XILHUW02
_symmetry_cell_setting           monoclinic
_symmetry_space_group_name_H-M   'C 2/c'
_symmetry_Int_Tables_number      15
_space_group_name_Hall           '-C 2yn'
loop_
_symmetry_equiv_pos_site_id
_symmetry_equiv_pos_as_xyz
1 x,y,z
2 -x,y,1/2-z
3 1/2+x,1/2+y,z
4 1/2-x,1/2+y,1/2-z
5 -x,-y,-z
6 x,-y,1/2+z
7 1/2-x,1/2-y,-z
8 1/2+x,1/2-y,1/2+z
_cell_length_a                   28.967(6)
_cell_length_b                   8.0530(16)
_cell_length_c                   15.285(3)
_cell_angle_alpha                90
_cell_angle_beta                 114.27(3)
_cell_angle_gamma                90
_cell_volume                     3250.42
loop_
_atom_site_label
_atom_site_type_symbol
_atom_site_fract_x
_atom_site_fract_y
_atom_site_fract_z
Zn1 Zn 0.626608(14) 0.12168(4) -0.06737(3)
O1 O 0.57907(10) -0.0280(3) 0.30962(19)
O2 O 0.64499(10) -0.0908(3) 0.2781(2)
O3 O 0.66449(10) -0.6765(3) -0.0204(2)
O4 O 0.60358(10) -0.5257(3) -0.1296(2)
N1 N 0.58061(10) 0.1241(3) 0.00938(19)
N2 N 0.67248(10) -0.0854(3) -0.0061(2)
C1 C 0.59995(13) 0.0556(4) 0.0951(3)
H1 H 0.6310 0.0023 0.1138
C2 C 0.57706(13) 0.0570(4) 0.1607(2)
C3 C 0.53189(13) 0.1400(4) 0.1335(3)
H2 H 0.5158 0.1453 0.1751
C4 C 0.50973(13) 0.2172(4) 0.0429(3)
C5 C 0.53456(13) 0.2052(4) -0.0197(3)
C6 C 0.46331(14) 0.3040(5) 0.0119(3)
H3 H 0.4469 0.3151 0.0526
C7 C 0.44263(14) 0.3716(5) -0.0780(3)
H4 H 0.4120 0.4284 -0.0981
C8 C 0.46683(14) 0.3566(4) -0.1404(3)
H5 H 0.4520 0.4022 -0.2016
C9 C 0.51213(13) 0.2755(4) -0.1119(3)
H6 H 0.5281 0.2668 -0.1534
C10 C 0.60273(14) -0.0287(4) 0.2554(3)
C11 C 0.65180(12) -0.2299(4) -0.0448(3)
H7 H 0.6217 -0.2271 -0.0997
C12 C 0.67211(12) -0.3862(4) -0.0088(3)
C13 C 0.71652(13) -0.3915(4) 0.0710(3)
H8 H 0.7307 -0.4933 0.0970
C14 C 0.74125(13) -0.2420(4) 0.1146(3)
C15 C 0.71826(12) -0.0898(4) 0.0742(3)
C16 C 0.78756(14) -0.2422(5) 0.1972(3)
H9 H 0.8025 -0.3420 0.2253
C17 C 0.81017(15) -0.0948(5) 0.2353(3)
H10 H 0.8406 -0.0949 0.2896
C18 C 0.78820(14) 0.0563(5) 0.1937(3)
H11 H 0.8045 0.1554 0.2200
C19 C 0.74315(14) 0.0596(4) 0.1150(3)
H12 H 0.7288 0.1608 0.0882
C20 C 0.64356(14) -0.5395(4) -0.0590(3)
Zn1_2 Zn 0.626608(14) -0.87832(4) -0.06737(3)
Zn1E Zn 0.626608(14) -0.12168(4) 0.43263(3)
O1E O 0.57907(10) 0.0280(3) -0.19038(19)
O3_2 O 0.66449(10) 0.3235(3) -0.0204(2)
loop_
_geom_bond_atom_site_label_1
_geom_bond_atom_site_label_2
_geom_bond_site_symmetry_1
_geom_bond_site_symmetry_2
Zn1 N1 1_555 1_555
O1 C10 1_555 1_555
O2 C10 1_555 1_555
O3 C20 1_555 1_555
O4 C20 1_555 1_555
N1 C1 1_555 1_555
N2 Zn1 1_555 1_555
C1 H1 1_555 1_555
C2 C1 1_555 1_555
C3 C2 1_555 1_555
H2 C3 1_555 1_555
C4 C3 1_555 1_555
C5 N1 1_555 1_555
C6 C4 1_555 1_555
H3 C6 1_555 1_555
C7 C6 1_555 1_555
H4 C7 1_555 1_555
C8 C7 1_555 1_555
H5 C8 1_555 1_555
C9 C5 1_555 1_555
H6 C9 1_555 1_555
C10 C2 1_555 1_555
C11 N2 1_555 1_555
H7 C11 1_555 1_555
C12 C11 1_555 1_555
C13 C12 1_555 1_555
H8 C13 1_555 1_555
C14 C13 1_555 1_555
C15 N2 1_555 1_555
C16 C14 1_555 1_555
H9 C16 1_555 1_555
C17 C16 1_555 1_555
H10 C17 1_555 1_555
C18 C17 1_555 1_555
H11 C18 1_555 1_555
C19 C15 1_555 1_555
H12 C19 1_555 1_555
C20 C12 1_555 1_555
Zn1_2 O3 1_555 1_555
Zn1E O1 1_555 1_555
O1E Zn1 1_555 1_555
O3_2 Zn1 1_555 1_555
C4 C5 1_555 1_555
C8 C9 1_555 1_555
C14 C15 1_555 1_555
C18 C19 1_555 1_555

#END
