
#######################################################################
#
#                 Cambridge Crystallographic Data Centre
#                                CCDC 
#
#######################################################################
#
# If this CIF has been generated from an entry in the Cambridge 
# Structural Database, then it will include bibliographic, chemical, 
# crystal, experimental, refinement or atomic coordinate data resulting 
# from the CCDC's data processing and validation procedures.
#
#######################################################################

data_XILHAC
_symmetry_cell_setting           monoclinic
_symmetry_space_group_name_H-M   'C 2/c'
_symmetry_Int_Tables_number      15
_space_group_name_Hall           '-C 2yn'
loop_
_symmetry_equiv_pos_site_id
_symmetry_equiv_pos_as_xyz
1 x,y,z
2 1/2+x,1/2+y,z
3 -x,y,1/2-z
4 1/2-x,1/2+y,1/2-z
5 -x,-y,-z
6 1/2-x,1/2-y,-z
7 x,-y,1/2+z
8 1/2+x,1/2-y,1/2+z
_cell_length_a                   21.260(4)
_cell_length_b                   7.5010(15)
_cell_length_c                   20.819(4)
_cell_angle_alpha                90
_cell_angle_beta                 109.17(3)
_cell_angle_gamma                90
_cell_volume                     3135.93
loop_
_atom_site_label
_atom_site_type_symbol
_atom_site_fract_x
_atom_site_fract_y
_atom_site_fract_z
Cu1 Cu 0.210963(17) 0.14358(5) 0.138649(17)
N1 N 0.28595(12) 0.0478(3) 0.10998(11)
N2 N 0.16109(12) 0.1064(3) 0.03976(12)
C1 C 0.34873(15) 0.0172(5) 0.14787(16)
H1 H 0.3616 0.0384 0.1944
C2 C 0.39574(17) -0.0458(5) 0.12009(19)
H2 H 0.4390 -0.0674 0.1485
C3 C 0.37948(18) -0.0761(5) 0.05218(19)
C4 C 0.31229(17) -0.0472(4) 0.01027(16)
C5 C 0.2868(2) -0.0771(5) -0.06134(18)
H3 H 0.3152 -0.1194 -0.0837
C6 C 0.2223(2) -0.0452(5) -0.09741(16)
H4 H 0.2076 -0.0655 -0.1441
C7 C 0.17582(18) 0.0183(4) -0.06652(15)
C8 C 0.10791(19) 0.0569(5) -0.10138(16)
C9 C 0.07013(19) 0.1179(5) -0.06408(17)
H5 H 0.0254 0.1439 -0.0858
C10 C 0.09741(17) 0.1416(5) 0.00558(16)
H6 H 0.0703 0.1837 0.0294
C11 C 0.19947(15) 0.0465(4) 0.00405(14)
C12 C 0.26794(15) 0.0136(4) 0.04252(14)
C13 C 0.4312(2) -0.1361(6) 0.0215(2)
H7 H 0.4743 -0.1361 0.0559
H8 H 0.4314 -0.0561 -0.0144
H9 H 0.4207 -0.2543 0.0035
C14 C 0.0778(2) 0.0341(7) -0.17721(17)
H10 H 0.0340 0.0855 -0.1925
H11 H 0.0749 -0.0906 -0.1882
H12 H 0.1053 0.0927 -0.1993
O1 O 0.13880(11) 0.2811(3) 0.14987(11)
O2 O 0.05869(16) 0.3299(5) 0.19201(18)
C15 C 0.26801(16) 0.3385(5) 0.26276(16)
H13 H 0.2273 0.3974 0.2488
O3 O 0.27603(11) 0.2211(3) 0.22475(11)
O4 O 0.30860(11) 0.3856(3) 0.31750(10)
C16 C 0.09874(19) 0.2349(6) 0.1778(2)
H14 H 0.0990 0.1150 0.1893
Cu1C Cu 0.289037(17) 0.64358(5) 0.361351(17)
O4C O 0.19140(11) -0.1144(3) 0.18250(10)
O5 O 0.06640(15) 0.6969(5) 0.1560(2)
H15 H 0.0635 0.5850 0.1555
H16 H 0.1033 0.7409 0.1635
loop_
_geom_bond_atom_site_label_1
_geom_bond_atom_site_label_2
_geom_bond_site_symmetry_1
_geom_bond_site_symmetry_2
Cu1 N1 1_555 1_555
N1 C1 1_555 1_555
N2 Cu1 1_555 1_555
C1 H1 1_555 1_555
C2 C1 1_555 1_555
H2 C2 1_555 1_555
C3 C2 1_555 1_555
C4 C3 1_555 1_555
C5 C4 1_555 1_555
H3 C5 1_555 1_555
C6 C5 1_555 1_555
H4 C6 1_555 1_555
C7 C6 1_555 1_555
C8 C7 1_555 1_555
C9 C8 1_555 1_555
H5 C9 1_555 1_555
C10 N2 1_555 1_555
H6 C10 1_555 1_555
C11 N2 1_555 1_555
C12 N1 1_555 1_555
C13 C3 1_555 1_555
H7 C13 1_555 1_555
H8 C13 1_555 1_555
H9 C13 1_555 1_555
C14 C8 1_555 1_555
H10 C14 1_555 1_555
H11 C14 1_555 1_555
H12 C14 1_555 1_555
O1 Cu1 1_555 1_555
O2 C16 1_555 1_555
C15 H13 1_555 1_555
O3 Cu1 1_555 1_555
O4 C15 1_555 1_555
C16 O1 1_555 1_555
H14 C16 1_555 1_555
O5 H15 1_555 1_555
H16 O5 1_555 1_555
Cu1C O4 1_555 1_555
O4C Cu1 1_555 1_555
C4 C12 1_555 1_555
C7 C11 1_555 1_555
C9 C10 1_555 1_555
C11 C12 1_555 1_555
C15 O3 1_555 1_555

#END
