
#######################################################################
#
#                 Cambridge Crystallographic Data Centre
#                                CCDC 
#
#######################################################################
#
# If this CIF has been generated from an entry in the Cambridge 
# Structural Database, then it will include bibliographic, chemical, 
# crystal, experimental, refinement or atomic coordinate data resulting 
# from the CCDC's data processing and validation procedures.
#
#######################################################################

data_XILHUW01
_symmetry_cell_setting           monoclinic
_symmetry_space_group_name_H-M   'C 2/c'
_symmetry_Int_Tables_number      15
_space_group_name_Hall           '-C 2yn'
loop_
_symmetry_equiv_pos_site_id
_symmetry_equiv_pos_as_xyz
1 x,y,z
2 -x,y,1/2-z
3 1/2+x,1/2+y,z
4 1/2-x,1/2+y,1/2-z
5 -x,-y,-z
6 x,-y,1/2+z
7 1/2-x,1/2-y,-z
8 1/2+x,1/2-y,1/2+z
_cell_length_a                   29.004(9)
_cell_length_b                   8.040(3)
_cell_length_c                   15.251(5)
_cell_angle_alpha                90
_cell_angle_beta                 114.337(4)
_cell_angle_gamma                90
_cell_volume                     3240.38
loop_
_atom_site_label
_atom_site_type_symbol
_atom_site_fract_x
_atom_site_fract_y
_atom_site_fract_z
Zn1 Zn 0.12649(2) 0.62177(8) 0.43298(5)
O1 O 0.10341(16) -0.0261(5) 0.3711(3)
O2 O 0.16418(15) -0.1769(5) 0.4801(3)
O3 O 0.14469(16) 0.4092(6) 0.7787(3)
O4 O 0.07932(15) 0.4724(5) 0.8103(3)
N1 N 0.17259(16) 0.4139(5) 0.4941(3)
N2 N 0.08072(16) 0.6242(6) 0.5097(3)
C1 C 0.1519(2) 0.2692(7) 0.4558(4)
H1 H 0.1215 0.2721 0.4012
C2 C 0.1721(2) 0.1134(7) 0.4911(4)
C3 C 0.1434(2) -0.0406(8) 0.4416(4)
C4 C 0.2163(2) 0.1114(7) 0.5701(4)
H2 H 0.2307 0.0093 0.5956
C5 C 0.2416(2) 0.2575(8) 0.6152(4)
C6 C 0.2875(2) 0.2585(8) 0.6963(4)
H3 H 0.3027 0.1587 0.7243
C7 C 0.3101(2) 0.4057(9) 0.7344(5)
H4 H 0.3404 0.4057 0.7890
C8 C 0.2885(2) 0.5556(9) 0.6930(4)
H5 H 0.3049 0.6551 0.7186
C9 C 0.2433(2) 0.5575(8) 0.6149(4)
H6 H 0.2287 0.6587 0.5882
C10 C 0.2183(2) 0.4096(7) 0.5743(4)
C11 C 0.1000(2) 0.5562(7) 0.5965(4)
H7 H 0.1312 0.5033 0.6161
C12 C 0.0768(2) 0.5582(7) 0.6605(4)
C13 C 0.1029(3) 0.4702(7) 0.7552(4)
C14 C 0.0323(2) 0.6394(7) 0.6333(4)
H8 H 0.0163 0.6435 0.6750
C15 C 0.0096(2) 0.7182(7) 0.5429(4)
C16 C -0.0366(2) 0.8042(8) 0.5111(5)
H9 H -0.0533 0.8145 0.5514
C17 C -0.0569(2) 0.8727(8) 0.4213(5)
H10 H -0.0872 0.9311 0.4011
C18 C -0.0327(2) 0.8560(8) 0.3596(4)
H11 H -0.0475 0.9000 0.2977
C19 C 0.0121(2) 0.7762(7) 0.3894(4)
H12 H 0.0281 0.7681 0.3478
C20 C 0.0350(2) 0.7056(7) 0.4804(4)
Zn1_2 Zn 0.12649(2) -0.37823(8) 0.43298(5)
Zn1E Zn 0.12649(2) 0.37823(8) 0.93298(5)
O2_2 O 0.16418(15) 0.8231(5) 0.4801(3)
O4E O 0.07932(15) 0.5276(5) 0.3103(3)
loop_
_geom_bond_atom_site_label_1
_geom_bond_atom_site_label_2
_geom_bond_site_symmetry_1
_geom_bond_site_symmetry_2
Zn1 N1 1_555 1_555
O1 C3 1_555 1_555
O2 C3 1_555 1_555
O3 C13 1_555 1_555
O4 C13 1_555 1_555
N1 C1 1_555 1_555
N2 Zn1 1_555 1_555
C1 H1 1_555 1_555
C2 C1 1_555 1_555
C3 C2 1_555 1_555
C4 C2 1_555 1_555
H2 C4 1_555 1_555
C5 C4 1_555 1_555
C6 C5 1_555 1_555
H3 C6 1_555 1_555
C7 C6 1_555 1_555
H4 C7 1_555 1_555
C8 C7 1_555 1_555
H5 C8 1_555 1_555
C9 C8 1_555 1_555
H6 C9 1_555 1_555
C10 N1 1_555 1_555
C11 N2 1_555 1_555
H7 C11 1_555 1_555
C12 C11 1_555 1_555
C13 C12 1_555 1_555
C14 C12 1_555 1_555
H8 C14 1_555 1_555
C15 C14 1_555 1_555
C16 C15 1_555 1_555
H9 C16 1_555 1_555
C17 C16 1_555 1_555
H10 C17 1_555 1_555
C18 C17 1_555 1_555
H11 C18 1_555 1_555
C19 C18 1_555 1_555
H12 C19 1_555 1_555
C20 N2 1_555 1_555
Zn1_2 O2 1_555 1_555
Zn1E O4 1_555 1_555
O2_2 Zn1 1_555 1_555
O4E Zn1 1_555 1_555
C5 C10 1_555 1_555
C9 C10 1_555 1_555
C15 C20 1_555 1_555
C19 C20 1_555 1_555

#END
