
#######################################################################
#
#                 Cambridge Crystallographic Data Centre
#                                CCDC 
#
#######################################################################
#
# If this CIF has been generated from an entry in the Cambridge 
# Structural Database, then it will include bibliographic, chemical, 
# crystal, experimental, refinement or atomic coordinate data resulting 
# from the CCDC's data processing and validation procedures.
#
#######################################################################

data_XILLAG
_symmetry_cell_setting           monoclinic
_symmetry_space_group_name_H-M   'P 21/c'
_symmetry_Int_Tables_number      14
_space_group_name_Hall           '-P 2ybc'
loop_
_symmetry_equiv_pos_site_id
_symmetry_equiv_pos_as_xyz
1 x,y,z
2 -x,1/2+y,1/2-z
3 -x,-y,-z
4 x,1/2-y,1/2+z
_cell_length_a                   5.937(2)
_cell_length_b                   15.785(6)
_cell_length_c                   7.167(3)
_cell_angle_alpha                90
_cell_angle_beta                 100.416(4)
_cell_angle_gamma                90
_cell_volume                     660.591
loop_
_atom_site_label
_atom_site_type_symbol
_atom_site_fract_x
_atom_site_fract_y
_atom_site_fract_z
Na1 Na 0.96700(12) 0.32021(4) 0.29951(10)
Mn1 Mn 0.77063(4) 0.103030(16) 0.20734(4)
O1 O 0.6514(2) 0.22956(7) 0.23592(18)
O2 O 0.3505(2) 0.30411(8) 0.2916(2)
O3 O 0.3964(2) 0.08804(8) 0.21439(18)
O4 O 0.0795(2) 0.16909(8) 0.16136(18)
O5 O 1.1091(2) 0.47555(8) 0.23774(18)
O6 O 0.9065(2) 0.39565(8) 0.01103(19)
O7 O 0.6836(2) 0.41824(8) 0.40310(18)
H1 H 0.556(3) 0.3905(12) 0.357(3)
H2 H 0.676(4) 0.4710(8) 0.359(3)
C1 C 0.4430(3) 0.23836(11) 0.2476(2)
C2 C 0.2918(3) 0.15739(11) 0.2036(2)
C3 C 1.0052(3) 0.46294(11) 0.0720(3)
Na1_2 Na 1.96700(12) 0.32021(4) 0.29951(10)
Na1_3 Na -0.03300(12) 0.32021(4) 0.29951(10)
Na1C Na -0.03300(12) 0.17979(4) -0.20049(10)
Na1B Na 1.03300(12) 0.67979(4) -0.29951(10)
Na1C_2 Na 0.96700(12) 0.17979(4) -0.20049(10)
Mn1_2 Mn 1.77063(4) 0.103030(16) 0.20734(4)
Mn1_3 Mn -0.22937(4) 0.103030(16) 0.20734(4)
Mn1A Mn 1.22937(4) 0.603030(16) 0.29266(4)
Mn1C Mn 0.77063(4) 0.396970(16) -0.29266(4)
Mn1C_2 Mn 0.77063(4) 0.396970(16) 0.70734(4)
O1_2 O 1.6514(2) 0.22956(7) 0.23592(18)
O2_2 O 1.3505(2) 0.30411(8) 0.2916(2)
O2_3 O 2.3505(2) 0.30411(8) 0.2916(2)
O3_2 O 1.3964(2) 0.08804(8) 0.21439(18)
O4_2 O 1.0795(2) 0.16909(8) 0.16136(18)
O4C O 1.0795(2) 0.33091(8) 0.66136(18)
O4_3 O 2.0795(2) 0.16909(8) 0.16136(18)
O4C_2 O 2.0795(2) 0.33091(8) 0.66136(18)
O5B O 0.8909(2) 0.52445(8) -0.23774(18)
O5A O 0.8909(2) -0.02445(8) 0.26226(18)
O5_2 O 2.1091(2) 0.47555(8) 0.23774(18)
O5A_2 O 1.8909(2) -0.02445(8) 0.26226(18)
O6B O 1.0935(2) 0.60435(8) -0.01103(19)
O6C O 0.9065(2) 0.10435(8) 0.51103(19)
O6_2 O 1.9065(2) 0.39565(8) 0.01103(19)
O6C_2 O 1.9065(2) 0.10435(8) 0.51103(19)
O7C O 0.6836(2) 0.08176(8) -0.09690(18)
O7_2 O 1.6836(2) 0.41824(8) 0.40310(18)
O7C_2 O 1.6836(2) 0.08176(8) -0.09690(18)
H1C H 0.556(3) 0.1095(12) -0.143(3)
H1_2 H 1.556(3) 0.3905(12) 0.357(3)
H1C_2 H 1.556(3) 0.1095(12) -0.143(3)
H2C H 0.676(4) 0.0290(8) -0.141(3)
H2_2 H 1.676(4) 0.4710(8) 0.359(3)
H2C_2 H 1.676(4) 0.0290(8) -0.141(3)
C1_2 C 1.4430(3) 0.23836(11) 0.2476(2)
C2_2 C 1.2918(3) 0.15739(11) 0.2036(2)
C3B C 0.9948(3) 0.53706(11) -0.0720(3)
loop_
_geom_bond_atom_site_label_1
_geom_bond_atom_site_label_2
_geom_bond_site_symmetry_1
_geom_bond_site_symmetry_2
Na1 O1 1_555 1_555
Mn1 O1 1_555 1_555
O1 C1 1_555 1_555
O2 C1 1_555 1_555
O3 Mn1 1_555 1_555
O4 C2 1_555 1_555
O5 Na1 1_555 1_555
O6 Na1 1_555 1_555
O7 Na1 1_555 1_555
H1 O7 1_555 1_555
H2 O7 1_555 1_555
C1 C2 1_555 1_555
C2 O3 1_555 1_555
C3 O5 1_555 1_555
Na1_2 O1_2 1_555 1_555
Na1_3 O2 1_555 1_555
Na1C O4 1_555 1_555
Na1B O5B 1_555 1_555
Na1C_2 O4_2 1_555 1_555
Mn1_2 O1_2 1_555 1_555
Mn1_3 O4 1_555 1_555
Mn1A O5 1_555 1_555
Mn1C O6 1_555 1_555
Mn1C_2 O7 1_555 1_555
O1_2 C1_2 1_555 1_555
O2_2 Na1 1_555 1_555
O2_3 Na1_2 1_555 1_555
O3_2 Mn1_2 1_555 1_555
O4_2 Na1 1_555 1_555
O4C Na1 1_555 1_555
O4_3 Na1_2 1_555 1_555
O4C_2 Na1_2 1_555 1_555
O5B Mn1C 1_555 1_555
O5A Mn1 1_555 1_555
O5_2 Na1_2 1_555 1_555
O5A_2 Mn1_2 1_555 1_555
O6B Na1B 1_555 1_555
O6C Mn1 1_555 1_555
O6_2 Na1_2 1_555 1_555
O6C_2 Mn1_2 1_555 1_555
O7C Mn1 1_555 1_555
O7_2 Na1_2 1_555 1_555
O7C_2 Mn1_2 1_555 1_555
H1C O7C 1_555 1_555
H1_2 O7_2 1_555 1_555
H1C_2 O7C_2 1_555 1_555
H2C O7C 1_555 1_555
H2_2 O7_2 1_555 1_555
H2C_2 O7C_2 1_555 1_555
C1_2 O2_2 1_555 1_555
C2_2 O3_2 1_555 1_555
C3B C3 1_555 1_555
Mn1 O4_2 1_555 1_555
O4 Na1_3 1_555 1_555
O6 C3 1_555 1_555
Na1C_2 O7C 1_555 1_555
Mn1_2 O4_3 1_555 1_555
Mn1A O6B 1_555 1_555
Mn1C_2 O4C 1_555 1_555
O4_2 C2_2 1_555 1_555
O5B C3B 1_555 1_555
O6B C3B 1_555 1_555
C1_2 C2_2 1_555 1_555

#END
