
#######################################################################
#
#                 Cambridge Crystallographic Data Centre
#                                CCDC 
#
#######################################################################
#
# If this CIF has been generated from an entry in the Cambridge 
# Structural Database, then it will include bibliographic, chemical, 
# crystal, experimental, refinement or atomic coordinate data resulting 
# from the CCDC's data processing and validation procedures.
#
#######################################################################

data_XILLIP
_symmetry_cell_setting           monoclinic
_symmetry_space_group_name_H-M   'P 21/c'
_symmetry_Int_Tables_number      14
_space_group_name_Hall           '-P 2ybc'
loop_
_symmetry_equiv_pos_site_id
_symmetry_equiv_pos_as_xyz
1 x,y,z
2 -x,1/2+y,1/2-z
3 -x,-y,-z
4 x,1/2-y,1/2+z
_cell_length_a                   21.703(3)
_cell_length_b                   20.062(3)
_cell_length_c                   22.121(3)
_cell_angle_alpha                90
_cell_angle_beta                 108.799(2)
_cell_angle_gamma                90
_cell_volume                     9117.81
loop_
_atom_site_label
_atom_site_type_symbol
_atom_site_fract_x
_atom_site_fract_y
_atom_site_fract_z
O1 O 0.56279(16) 0.64713(13) 0.82859(15)
O2 O 0.6001(2) 0.64189(17) 0.7427(2)
O3 O 0.51249(13) 0.57555(14) 0.74275(15)
O4 O 0.61522(17) 0.54974(14) 0.81044(16)
Cl1 Cl 0.57279(4) 0.60276(3) 0.78161(4)
O5 O 0.1712(3) 0.4366(3) 0.8423(3)
O6 O 0.2229(5) 0.5157(5) 0.8064(6)
O7 O 0.1399(6) 0.4516(7) 0.7344(4)
O8 O 0.2428(5) 0.4057(5) 0.7866(5)
Cl2 Cl 0.1949(2) 0.4519(3) 0.7898(3)
O13 O 0.5633(2) 0.8295(2) 0.99838(18)
O14 O 0.5462(2) 0.88138(18) 0.9001(2)
O15 O 0.52046(14) 0.77091(13) 0.90272(14)
O16 O 0.45757(15) 0.85316(17) 0.93175(17)
Cl4 Cl 0.52183(4) 0.83437(4) 0.93401(4)
O17 O 0.14203(15) 0.3816(2) 1.10813(16)
O18 O 0.0529(3) 0.3559(3) 1.0247(3)
O19 O 0.1097(3) 0.4456(4) 1.0215(3)
O20 O 0.0461(4) 0.4380(6) 1.0722(7)
Cl5 Cl 0.09016(4) 0.40651(4) 1.05689(4)
Zn1 Zn 0.139367(14) 0.662554(14) 0.944142(14)
Zn2 Zn 0.602024(16) 0.862189(14) 0.740175(15)
C1 C 0.27805(13) 0.42294(13) 1.02273(13)
C2 C 0.29995(13) 0.40663(13) 0.97331(13)
H1 H 0.3007 0.4387 0.9420
C3 C 0.32133(13) 0.34090(13) 0.97001(13)
C4 C 0.32219(14) 0.29411(13) 1.01674(13)
H2 H 0.3382 0.2503 1.0152
C5 C 0.29903(14) 0.31318(14) 1.06545(13)
C6 C 0.27652(14) 0.37732(14) 1.06981(13)
H3 H 0.2607 0.3896 1.1036
C7 C 0.21487(14) 0.52510(13) 0.97968(13)
H4 H 0.1987 0.5108 0.9365
C8 C 0.23513(14) 0.58377(14) 1.06562(14)
H5 H 0.2353 0.6196 1.0938
C9 C 0.26861(15) 0.52636(14) 1.08293(14)
H6 H 0.2955 0.5142 1.1246
C10 C 0.36852(14) 0.36260(13) 0.88340(13)
H7 H 0.3753 0.4091 0.8907
C11 C 0.36491(16) 0.26281(13) 0.84424(14)
H8 H 0.3689 0.2269 0.8178
C12 C 0.34263(16) 0.25792(14) 0.89432(14)
H9 H 0.3284 0.2185 0.9097
C13 C 0.34999(14) 0.22636(13) 1.14500(13)
H10 H 0.3893 0.2227 1.1351
C14 C 0.27518(15) 0.21256(15) 1.18958(15)
H11 H 0.2532 0.1965 1.2175
C15 C 0.25106(15) 0.25817(16) 1.14274(15)
H12 H 0.2100 0.2798 1.1316
C16 C 0.04556(13) 0.64368(13) 1.14492(13)
C17 C 0.01555(13) 0.58154(13) 1.13485(12)
H13 H 0.0102 0.5577 1.0964
C18 C -0.00648(13) 0.55491(13) 1.18216(12)
C19 C 0.00012(13) 0.58971(13) 1.23823(13)
H14 H -0.0162 0.5718 1.2698
C20 C 0.03069(14) 0.65049(14) 1.24695(13)
C21 C 0.05350(13) 0.67941(14) 1.20056(13)
H15 H 0.0737 0.7220 1.2070
C22 C 0.09105(13) 0.64176(13) 1.05534(12)
H16 H 0.0966 0.5949 1.0540
C23 C 0.08913(15) 0.74761(13) 1.03464(14)
H17 H 0.0939 0.7888 1.0154
C24 C 0.06430(16) 0.74056(14) 1.08272(14)
H18 H 0.0486 0.7751 1.1033
C25 C -0.06775(13) 0.46092(13) 1.11602(13)
H19 H -0.0701 0.4788 1.0756
C26 C -0.07911(14) 0.39675(14) 1.19021(13)
H20 H -0.0917 0.3600 1.2107
C27 C -0.04519(15) 0.44996(14) 1.22019(14)
H21 H -0.0295 0.4577 1.2649
C28 C 0.08948(13) 0.72379(13) 1.33797(13)
H22 H 0.1294 0.7259 1.3289
C29 C 0.01552(16) 0.73948(17) 1.38178(15)
H23 H -0.0063 0.7548 1.4101
C30 C -0.01049(16) 0.69781(19) 1.33165(16)
H24 H -0.0531 0.6794 1.3182
C31 C 0.32786(13) 0.70216(13) 0.83517(13)
C32 C 0.36030(13) 0.75571(12) 0.81905(13)
H25 H 0.3591 0.7989 0.8362
C33 C 0.39468(13) 0.74337(13) 0.77654(13)
C34 C 0.39561(13) 0.68086(13) 0.74971(13)
H26 H 0.4182 0.6736 0.7199
C35 C 0.36241(13) 0.62918(12) 0.76787(13)
C36 C 0.32849(13) 0.63855(12) 0.81035(13)
H27 H 0.3063 0.6027 0.8223
C37 C 0.23997(12) 0.67827(13) 0.88072(13)
H28 H 0.2208 0.6426 0.8528
C38 C 0.26062(14) 0.75252(14) 0.95557(14)
H29 H 0.2574 0.7782 0.9905
C39 C 0.30630(14) 0.76037(14) 0.92763(14)
H30 H 0.3406 0.7921 0.9385
C40 C 0.49042(14) 0.78810(14) 0.75507(14)
H31 H 0.5135 0.7471 0.7605
C41 C 0.46376(16) 0.89282(14) 0.73821(16)
H32 H 0.4660 0.9390 0.7296
C42 C 0.41312(16) 0.86215(14) 0.74898(17)
H33 H 0.3735 0.8822 0.7491
C43 C 0.37442(13) 0.50765(12) 0.77518(13)
H34 H 0.3766 0.5041 0.8187
C44 C 0.37537(19) 0.48346(15) 0.67992(15)
H35 H 0.3786 0.4592 0.6442
C45 C 0.36500(18) 0.55009(15) 0.68138(15)
H36 H 0.3590 0.5807 0.6472
N1 N 0.20057(11) 0.58302(11) 1.00101(11)
N2 N 0.25578(11) 0.48904(11) 1.02799(11)
N3 N 0.38121(12) 0.32940(11) 0.83737(11)
N4 N 0.34449(12) 0.32168(11) 0.91888(11)
N5 N 0.33673(12) 0.19280(11) 1.19065(11)
N6 N 0.29961(12) 0.26677(11) 1.11415(11)
N7 N 0.10675(11) 0.68539(11) 1.01742(10)
N8 N 0.06603(11) 0.67372(11) 1.09628(10)
N9 N -0.09299(11) 0.40386(11) 1.12464(11)
N10 N -0.03766(11) 0.49108(11) 1.17315(10)
N11 N 0.07761(11) 0.75613(11) 1.38561(11)
N12 N 0.03734(12) 0.68774(12) 1.30426(11)
N13 N 0.21858(11) 0.70127(10) 0.92616(10)
N14 N 0.29360(10) 0.71301(10) 0.87951(11)
N15 N 0.51243(12) 0.84610(11) 0.74173(12)
N16 N 0.43012(12) 0.79605(11) 0.75974(12)
N17 N 0.38042(12) 0.45686(11) 0.73863(11)
N18 N 0.36483(11) 0.56430(10) 0.74172(11)
Zn1B Zn -0.139367(14) 0.337446(14) 1.055858(14)
Zn1C Zn 0.139367(14) 0.837446(14) 1.444142(14)
Zn2A Zn 0.397976(16) 0.362189(14) 0.759825(15)
Zn2B Zn 0.397976(16) 0.137811(14) 1.259825(15)
N3A N 0.61879(12) 0.82940(11) 0.66263(11)
N5B N 0.66327(12) 0.80720(11) 0.80935(11)
N9B N 0.09299(11) 0.59614(11) 0.87536(11)
N11C N 0.07761(11) 0.74387(11) 0.88561(11)
N17A N 0.61958(12) 0.95686(11) 0.76137(11)
O9? O 0.2243(4) 0.5007(5) 0.7357(4)
O10? O 0.2188(8) 0.5025(7) 0.8327(5)
O11? O 0.1410(6) 0.4409(8) 0.7536(7)
O12? O 0.2535(12) 0.4014(14) 0.8016(13)
Cl3? Cl 0.2084(4) 0.4611(4) 0.7809(4)
loop_
_geom_bond_atom_site_label_1
_geom_bond_atom_site_label_2
_geom_bond_site_symmetry_1
_geom_bond_site_symmetry_2
Zn1 N1 1_555 1_555
Zn2 N15 1_555 1_555
C1 C2 1_555 1_555
C2 H1 1_555 1_555
C3 C2 1_555 1_555
C4 C3 1_555 1_555
H2 C4 1_555 1_555
C5 C4 1_555 1_555
C6 C1 1_555 1_555
H3 C6 1_555 1_555
C7 H4 1_555 1_555
C8 H5 1_555 1_555
C9 C8 1_555 1_555
H6 C9 1_555 1_555
C10 H7 1_555 1_555
C11 H8 1_555 1_555
C12 C11 1_555 1_555
H9 C12 1_555 1_555
C13 H10 1_555 1_555
C14 H11 1_555 1_555
C15 C14 1_555 1_555
H12 C15 1_555 1_555
C16 C17 1_555 1_555
C17 H13 1_555 1_555
C18 C17 1_555 1_555
C19 C18 1_555 1_555
H14 C19 1_555 1_555
C20 C19 1_555 1_555
C21 C16 1_555 1_555
H15 C21 1_555 1_555
C22 H16 1_555 1_555
C23 H17 1_555 1_555
C24 C23 1_555 1_555
H18 C24 1_555 1_555
C25 H19 1_555 1_555
C26 H20 1_555 1_555
C27 C26 1_555 1_555
H21 C27 1_555 1_555
C28 H22 1_555 1_555
C29 H23 1_555 1_555
C30 C29 1_555 1_555
H24 C30 1_555 1_555
C31 C32 1_555 1_555
C32 H25 1_555 1_555
C33 C32 1_555 1_555
C34 C33 1_555 1_555
H26 C34 1_555 1_555
C35 C34 1_555 1_555
C36 C31 1_555 1_555
H27 C36 1_555 1_555
C37 H28 1_555 1_555
C38 H29 1_555 1_555
C39 C38 1_555 1_555
H30 C39 1_555 1_555
C40 H31 1_555 1_555
C41 H32 1_555 1_555
C42 C41 1_555 1_555
H33 C42 1_555 1_555
C43 H34 1_555 1_555
C44 H35 1_555 1_555
C45 C44 1_555 1_555
H36 C45 1_555 1_555
N1 C7 1_555 1_555
N2 C1 1_555 1_555
N3 C10 1_555 1_555
N4 C3 1_555 1_555
N5 C13 1_555 1_555
N6 C5 1_555 1_555
N7 Zn1 1_555 1_555
N8 C16 1_555 1_555
N9 C25 1_555 1_555
N10 C18 1_555 1_555
N11 C28 1_555 1_555
N12 C20 1_555 1_555
N13 Zn1 1_555 1_555
N14 C31 1_555 1_555
N15 C40 1_555 1_555
N16 C33 1_555 1_555
N17 C43 1_555 1_555
N18 C35 1_555 1_555
O1 Cl1 1_555 1_555
O2 Cl1 1_555 1_555
O3 Cl1 1_555 1_555
O4 Cl1 1_555 1_555
O5 Cl2 1_555 1_555
O6 Cl2 1_555 1_555
O7 Cl2 1_555 1_555
O8 Cl2 1_555 1_555
O13 Cl4 1_555 1_555
O14 Cl4 1_555 1_555
O15 Cl4 1_555 1_555
O16 Cl4 1_555 1_555
O17 Cl5 1_555 1_555
O18 Cl5 1_555 1_555
O19 Cl5 1_555 1_555
O20 Cl5 1_555 1_555
Zn1B N9 1_555 1_555
Zn1C N11 1_555 1_555
Zn2A N3 1_555 1_555
Zn2B N5 1_555 1_555
N3A Zn2 1_555 1_555
N5B Zn2 1_555 1_555
N9B Zn1 1_555 1_555
N11C Zn1 1_555 1_555
N17A Zn2 1_555 1_555
C5 C6 1_555 1_555
C7 N2 1_555 1_555
C8 N1 1_555 1_555
C9 N2 1_555 1_555
C10 N4 1_555 1_555
C11 N3 1_555 1_555
C12 N4 1_555 1_555
C13 N6 1_555 1_555
C14 N5 1_555 1_555
C15 N6 1_555 1_555
C20 C21 1_555 1_555
C22 N7 1_555 1_555
C22 N8 1_555 1_555
C23 N7 1_555 1_555
C24 N8 1_555 1_555
C25 N10 1_555 1_555
C26 N9 1_555 1_555
C27 N10 1_555 1_555
C28 N12 1_555 1_555
C29 N11 1_555 1_555
C30 N12 1_555 1_555
C35 C36 1_555 1_555
C37 N13 1_555 1_555
C37 N14 1_555 1_555
C38 N13 1_555 1_555
C39 N14 1_555 1_555
C40 N16 1_555 1_555
C41 N15 1_555 1_555
C42 N16 1_555 1_555
C43 N18 1_555 1_555
C44 N17 1_555 1_555
C45 N18 1_555 1_555
N17 Zn2A 1_555 1_555

#END
