
#######################################################################
#
#                 Cambridge Crystallographic Data Centre
#                                CCDC 
#
#######################################################################
#
# If this CIF has been generated from an entry in the Cambridge 
# Structural Database, then it will include bibliographic, chemical, 
# crystal, experimental, refinement or atomic coordinate data resulting 
# from the CCDC's data processing and validation procedures.
#
#######################################################################

data_XILPUE
_symmetry_cell_setting           monoclinic
_symmetry_space_group_name_H-M   'P c'
_symmetry_Int_Tables_number      7
_space_group_name_Hall           'P -2yc'
loop_
_symmetry_equiv_pos_site_id
_symmetry_equiv_pos_as_xyz
1 x,y,z
2 x,-y,1/2+z
_cell_length_a                   4.8362(4)
_cell_length_b                   10.5820(9)
_cell_length_c                   10.1164(7)
_cell_angle_alpha                90
_cell_angle_beta                 102.183(5)
_cell_angle_gamma                90
_cell_volume                     506.064
loop_
_atom_site_label
_atom_site_type_symbol
_atom_site_fract_x
_atom_site_fract_y
_atom_site_fract_z
Zn1 Zn 0.03320(7) 0.76339(4) -0.06177(5)
Cl1 Cl 0.0646(3) 0.96102(10) -0.13316(14)
Cl2 Cl -0.0059(2) 0.61405(10) -0.21919(13)
C1 C -0.6014(10) 0.8408(5) 0.6340(4)
H1 H -0.5410 0.9268 0.6288
H2 H -0.5093 0.8052 0.7192
H3 H -0.8026 0.8386 0.6263
C2 C -0.5820(10) 0.6411(4) 0.5010(5)
H4 H -0.6770 0.5893 0.5510
C3 C -0.4760(9) 0.6061(4) 0.3952(4)
H5 H -0.4854 0.5260 0.3566
C4 C -0.3872(8) 0.8075(4) 0.4347(5)
H6 H -0.3244 0.8899 0.4289
C5 C -0.2156(8) 0.7217(4) 0.2374(4)
H7 H -0.1028 0.6465 0.2335
H8 H -0.0889 0.7938 0.2495
C6 C -0.4246(8) 0.7356(4) 0.1059(4)
N1 N -0.5262(8) 0.7668(3) 0.5229(4)
N2 N -0.3487(7) 0.7124(4) 0.3538(4)
O1 O -0.3325(6) 0.7498(3) 0.0018(3)
O2 O -0.6839(5) 0.7312(3) 0.1078(3)
Zn1_2 Zn -0.96680(7) 0.76339(4) -0.06177(5)
O2_2 O 0.3161(5) 0.7312(3) 0.1078(3)
loop_
_geom_bond_atom_site_label_1
_geom_bond_atom_site_label_2
_geom_bond_site_symmetry_1
_geom_bond_site_symmetry_2
Zn1 Cl1 1_555 1_555
Cl2 Zn1 1_555 1_555
C1 H1 1_555 1_555
H2 C1 1_555 1_555
H3 C1 1_555 1_555
C2 H4 1_555 1_555
C3 C2 1_555 1_555
H5 C3 1_555 1_555
C4 H6 1_555 1_555
C5 H7 1_555 1_555
H8 C5 1_555 1_555
C6 C5 1_555 1_555
N1 C1 1_555 1_555
N2 C3 1_555 1_555
O1 Zn1 1_555 1_555
O2 C6 1_555 1_555
Zn1_2 O2 1_555 1_555
O2_2 Zn1 1_555 1_555
C2 N1 1_555 1_555
C4 N1 1_555 1_555
C4 N2 1_555 1_555
C5 N2 1_555 1_555
C6 O1 1_555 1_555

#END
