
#######################################################################
#
#                 Cambridge Crystallographic Data Centre
#                                CCDC 
#
#######################################################################
#
# If this CIF has been generated from an entry in the Cambridge 
# Structural Database, then it will include bibliographic, chemical, 
# crystal, experimental, refinement or atomic coordinate data resulting 
# from the CCDC's data processing and validation procedures.
#
#######################################################################

data_XILRUH
_symmetry_cell_setting           monoclinic
_symmetry_space_group_name_H-M   'C c'
_symmetry_Int_Tables_number      9
_space_group_name_Hall           'C -2yc'
loop_
_symmetry_equiv_pos_site_id
_symmetry_equiv_pos_as_xyz
1 x,y,z
2 x,-y,1/2+z
3 1/2+x,1/2+y,z
4 1/2+x,1/2-y,1/2+z
_cell_length_a                   12.8719(4)
_cell_length_b                   10.7856(3)
_cell_length_c                   20.9230(7)
_cell_angle_alpha                90
_cell_angle_beta                 104.019(2)
_cell_angle_gamma                90
_cell_volume                     2818.25
loop_
_atom_site_label
_atom_site_type_symbol
_atom_site_fract_x
_atom_site_fract_y
_atom_site_fract_z
C1 C -0.3092(6) 0.7429(7) 0.2472(4)
H1 H -0.2848 0.7008 0.2868
C2 C 0.7483(6) 0.3624(8) 0.1060(4)
C3 C -0.1394(6) 0.6887(7) 0.2115(4)
C4 C -0.2462(6) 0.7515(7) 0.2029(4)
C5 C -0.4081(6) 0.7972(7) 0.2322(4)
H2 H -0.4531 0.7859 0.2604
C6 C -0.4464(6) 1.1811(8) -0.0190(4)
H3 H -0.3819 1.1411 -0.0177
C7 C 0.6934(7) 0.4006(8) 0.1578(4)
C8 C -0.2804(6) 0.8216(7) 0.1448(4)
H4 H -0.2376 0.8274 0.1150
C9 C 0.0581(6) 0.5742(8) 0.3556(4)
H5 H 0.0115 0.5685 0.3832
C10 C 0.5368(8) 0.4629(9) 0.1909(5)
H6 H 0.4652 0.4867 0.1791
C11 C 0.0230(5) 0.6261(6) 0.2938(4)
C12 C -0.4432(7) 0.8694(7) 0.1754(4)
H7 H -0.5096 0.9084 0.1669
C13 C -0.5061(6) 1.1457(7) 0.0227(4)
C14 C 0.0951(6) 0.6331(7) 0.2556(4)
H8 H 0.0753 0.6674 0.2137
C15 C 0.1607(8) 0.5310(9) 0.3766(5)
H9 H 0.1820 0.4949 0.4181
C16 C 0.8024(7) 0.2500(9) 0.1104(4)
H10 H 0.8114 0.2026 0.1485
C17 C -0.3781(6) 0.8816(6) 0.1326(4)
C18 C 0.8429(7) 0.2078(8) 0.0590(4)
H11 H 0.8799 0.1331 0.0631
C19 C 0.8290(6) 0.2750(7) 0.0019(4)
C20 C 0.6942(7) 0.4191(7) 0.2741(4)
H12 H 0.7314 0.4153 0.3181
C21 C 0.1968(6) 0.5892(7) 0.2797(4)
H13 H 0.2447 0.5946 0.2530
C22 C 0.5882(7) 0.4519(7) 0.2574(4)
C23 C 0.5889(7) 0.4398(9) 0.1429(5)
H14 H 0.5529 0.4508 0.0991
C24 C -0.4033(7) 0.9621(8) 0.0734(4)
C25 C -0.4791(7) 1.2740(8) -0.0626(4)
H15 H -0.4364 1.2937 -0.0912
C26 C 0.7378(7) 0.4331(8) 0.0498(5)
H16 H 0.7038 0.5097 0.0465
C27 C 0.7459(7) 0.3912(8) 0.2241(4)
H17 H 0.8170 0.3658 0.2355
C28 C 0.5294(8) 0.4739(8) 0.3082(6)
C29 C -0.6017(7) 1.2088(9) 0.0180(5)
H18 H -0.6469 1.1858 0.0445
C30 C -0.6292(7) 1.3042(9) -0.0254(5)
H19 H -0.6923 1.3470 -0.0264
C31 C 0.7788(7) 0.3889(8) -0.0027(4)
H20 H 0.7720 0.4366 -0.0405
C32 C 0.8592(6) 0.2202(9) -0.0591(4)
N1 N 0.2309(5) 0.5391(6) 0.3393(3)
N2 N -0.0826(5) 0.6729(6) 0.2756(3)
H21 H -0.1130 0.6927 0.3065
N3 N -0.4765(5) 1.0550(6) 0.0706(3)
H22 H -0.5080 1.0575 0.1024
N4 N -0.5696(5) 1.3399(6) -0.0672(3)
O1 O -0.1069(4) 0.6546(5) 0.1647(3)
O2 O -0.3554(6) 0.9500(6) 0.0299(3)
O3 O 0.4334(6) 0.5027(7) 0.2925(4)
O4 O 0.5737(8) 0.4601(8) 0.3677(5)
O5 O 0.8527(5) 0.2839(7) -0.1075(3)
O6 O 0.8873(5) 0.1073(6) -0.0520(3)
Zn1 Zn 0.39207(10) 0.50416(8) 0.37742(7)
N4A N 0.4304(5) 0.6601(6) 0.4328(3)
O6C O 0.3873(5) 0.3927(6) 0.4480(3)
Zn1A Zn -0.60793(10) 1.49584(8) -0.12258(7)
Zn1C Zn 0.89207(10) -0.00416(8) -0.12258(7)
loop_
_geom_bond_atom_site_label_1
_geom_bond_atom_site_label_2
_geom_bond_site_symmetry_1
_geom_bond_site_symmetry_2
C1 H1 1_555 1_555
C2 C7 1_555 1_555
C3 C4 1_555 1_555
C4 C1 1_555 1_555
C5 C1 1_555 1_555
H2 C5 1_555 1_555
C6 H3 1_555 1_555
C7 C23 1_555 1_555
C8 C4 1_555 1_555
H4 C8 1_555 1_555
C9 H5 1_555 1_555
C10 H6 1_555 1_555
C11 C9 1_555 1_555
C12 C5 1_555 1_555
H7 C12 1_555 1_555
C13 C6 1_555 1_555
C14 C11 1_555 1_555
H8 C14 1_555 1_555
C15 C9 1_555 1_555
H9 C15 1_555 1_555
C16 C2 1_555 1_555
H10 C16 1_555 1_555
C17 C8 1_555 1_555
C18 C16 1_555 1_555
H11 C18 1_555 1_555
C19 C18 1_555 1_555
C20 H12 1_555 1_555
C21 C14 1_555 1_555
H13 C21 1_555 1_555
C22 C10 1_555 1_555
C23 C10 1_555 1_555
H14 C23 1_555 1_555
C24 C17 1_555 1_555
C25 C6 1_555 1_555
H15 C25 1_555 1_555
C26 C2 1_555 1_555
H16 C26 1_555 1_555
C27 C7 1_555 1_555
H17 C27 1_555 1_555
C28 C22 1_555 1_555
C29 C13 1_555 1_555
H18 C29 1_555 1_555
C30 C29 1_555 1_555
H19 C30 1_555 1_555
C31 C19 1_555 1_555
H20 C31 1_555 1_555
C32 C19 1_555 1_555
N1 C15 1_555 1_555
N2 C3 1_555 1_555
H21 N2 1_555 1_555
N3 C13 1_555 1_555
H22 N3 1_555 1_555
N4 C25 1_555 1_555
O1 C3 1_555 1_555
O2 C24 1_555 1_555
O3 C28 1_555 1_555
O4 C28 1_555 1_555
O5 C32 1_555 1_555
O6 C32 1_555 1_555
Zn1 N1 1_555 1_555
N4A Zn1 1_555 1_555
O6C Zn1 1_555 1_555
Zn1A N4 1_555 1_555
Zn1C O6 1_555 1_555
C11 N2 1_555 1_555
C12 C17 1_555 1_555
C20 C22 1_555 1_555
C20 C27 1_555 1_555
C21 N1 1_555 1_555
C24 N3 1_555 1_555
C26 C31 1_555 1_555
C30 N4 1_555 1_555
O3 Zn1 1_555 1_555
O4 Zn1 1_555 1_555

#END
