
#######################################################################
#
#                 Cambridge Crystallographic Data Centre
#                                CCDC 
#
#######################################################################
#
# If this CIF has been generated from an entry in the Cambridge 
# Structural Database, then it will include bibliographic, chemical, 
# crystal, experimental, refinement or atomic coordinate data resulting 
# from the CCDC's data processing and validation procedures.
#
#######################################################################

data_XILSUI
_symmetry_cell_setting           monoclinic
_symmetry_space_group_name_H-M   'C 2/m'
_symmetry_Int_Tables_number      12
_space_group_name_Hall           '-C 2y'
loop_
_symmetry_equiv_pos_site_id
_symmetry_equiv_pos_as_xyz
1 x,y,z
2 -x,y,-z
3 1/2+x,1/2+y,z
4 1/2-x,1/2+y,-z
5 -x,-y,-z
6 x,-y,z
7 1/2-x,1/2-y,-z
8 1/2+x,1/2-y,z
_cell_length_a                   22.136(4)
_cell_length_b                   16.647(4)
_cell_length_c                   16.551(3)
_cell_angle_alpha                90
_cell_angle_beta                 114.63(2)
_cell_angle_gamma                90
_cell_volume                     5544.11
loop_
_atom_site_label
_atom_site_type_symbol
_atom_site_fract_x
_atom_site_fract_y
_atom_site_fract_z
Zn1 Zn 0.07332(7) 0.0000 -0.46376(9)
O1 O 0.0739(4) 0.0846(3) -0.3775(4)
O2 O -0.0400(4) 0.0853(4) -0.4390(4)
O3 O 0.3583(4) 0.1356(6) -0.4546(7)
N1 N 0.0000 0.3817(5) 0.0000
N2 N 0.0121(6) 0.5000 -0.1107(7)
N3 N 0.1659(5) 0.0000 -0.4559(8)
N4 N 0.3558(6) 0.0000 -0.4608(9)
C1 C 0.0025(6) 0.2482(5) -0.0392(6)
H1 H 0.0040 0.2034 -0.0719
C2 C 0.0051(6) 0.3307(4) -0.0626(7)
C3 C 0.0133(6) 0.3549(5) -0.1391(6)
C4 C 0.0143(6) 0.4347(5) -0.1619(6)
C5 C 0.0195(6) 0.4594(5) -0.2412(6)
H2 H 0.0224 0.4261 -0.2845
C6 C 0.0155(8) 0.2915(5) -0.2016(7)
C7 C -0.0403(7) 0.2669(7) -0.2652(9)
H3 H -0.0798 0.2904 -0.2699
C8 C -0.0437(6) 0.2049(6) -0.3289(7)
H4 H -0.0837 0.1877 -0.3733
C9 C 0.0160(7) 0.1740(5) -0.3186(7)
C10 C 0.0738(7) 0.1953(6) -0.2531(8)
H5 H 0.1130 0.1701 -0.2470
C11 C 0.0751(7) 0.2579(7) -0.1919(8)
H6 H 0.1150 0.2750 -0.1471
C12 C 0.0160(7) 0.1061(5) -0.3847(7)
C13 C 0.2184(10) 0.0000 -0.3912(13)
H7 H 0.2145 0.0000 -0.3374
C14 C 0.2860(8) 0.0000 -0.3825(12)
H8 H 0.3227 0.0000 -0.3279
C15 C 0.2908(7) 0.0000 -0.4589(12)
C16 C 0.2381(10) 0.0000 -0.5325(13)
H9 H 0.2425 0.0000 -0.5859
C17 C 0.1720(8) 0.0000 -0.5341(10)
H10 H 0.1345 0.0000 -0.5879
C18 C 0.3810(7) 0.0732(9) -0.4680(9)
C19 C 0.4708(5) 0.1457(8) -0.4921(9)
H11 H 0.4513 0.1940 -0.4877
C20 C 0.4434(5) 0.0748(8) -0.4835(8)
C21 C 0.4689(7) 0.0000 -0.4928(9)
O4 O 0.1105(5) 0.5000 0.0715(14)
Ti1 Ti 0.2025(12) 0.5000 0.168(2)
O5 O 0.2973 0.5000 0.1497
O6 O 0.1612 0.4429 0.2396
O7 O 0.2702 0.4245 0.2795
O8 O 0.1868 0.4066 0.0797
Mn1 Mn 0.0000 0.5000 0.0000
O1A O -0.0739(4) 0.0846(3) 0.3775(4)
O2A O 0.0400(4) 0.0853(4) 0.4390(4)
N2A N -0.0121(6) 0.5000 0.1107(7)
C1A C -0.0025(6) 0.2482(5) 0.0392(6)
H1A H -0.0040 0.2034 0.0719
C2A C -0.0051(6) 0.3307(4) 0.0626(7)
C3A C -0.0133(6) 0.3549(5) 0.1391(6)
C4A C -0.0143(6) 0.4347(5) 0.1619(6)
C5A C -0.0195(6) 0.4594(5) 0.2412(6)
H2A H -0.0224 0.4261 0.2845
C6A C -0.0155(8) 0.2915(5) 0.2016(7)
C7A C 0.0403(7) 0.2669(7) 0.2652(9)
H3A H 0.0798 0.2904 0.2699
C8A C 0.0437(6) 0.2049(6) 0.3289(7)
H4A H 0.0837 0.1877 0.3733
C9A C -0.0160(7) 0.1740(5) 0.3186(7)
C10A C -0.0738(7) 0.1953(6) 0.2531(8)
H5A H -0.1130 0.1701 0.2470
C11A C -0.0751(7) 0.2579(7) 0.1919(8)
H6A H -0.1150 0.2750 0.1471
C12A C -0.0160(7) 0.1061(5) 0.3847(7)
O1D O -0.0739(4) 0.9154(3) 0.3775(4)
O2D O 0.0400(4) 0.9147(4) 0.4390(4)
N1D N 0.0000 0.6183(5) 0.0000
C1D C -0.0025(6) 0.7518(5) 0.0392(6)
H1D H -0.0040 0.7966 0.0719
C2D C -0.0051(6) 0.6693(4) 0.0626(7)
C3D C -0.0133(6) 0.6451(5) 0.1391(6)
C4D C -0.0143(6) 0.5653(5) 0.1619(6)
C5D C -0.0195(6) 0.5406(5) 0.2412(6)
H2D H -0.0224 0.5739 0.2845
C6D C -0.0155(8) 0.7085(5) 0.2016(7)
C7D C 0.0403(7) 0.7331(7) 0.2652(9)
H3D H 0.0798 0.7096 0.2699
C8D C 0.0437(6) 0.7951(6) 0.3289(7)
H4D H 0.0837 0.8123 0.3733
C9D C -0.0160(7) 0.8260(5) 0.3186(7)
C10D C -0.0738(7) 0.8047(6) 0.2531(8)
H5D H -0.1130 0.8299 0.2470
C11D C -0.0751(7) 0.7421(7) 0.1919(8)
H6D H -0.1150 0.7250 0.1471
C12D C -0.0160(7) 0.8939(5) 0.3847(7)
O1E O 0.0739(4) 0.9154(3) -0.3775(4)
O2E O -0.0400(4) 0.9147(4) -0.4390(4)
C1E C 0.0025(6) 0.7518(5) -0.0392(6)
H1E H 0.0040 0.7966 -0.0719
C2E C 0.0051(6) 0.6693(4) -0.0626(7)
C3E C 0.0133(6) 0.6451(5) -0.1391(6)
C4E C 0.0143(6) 0.5653(5) -0.1619(6)
C5E C 0.0195(6) 0.5406(5) -0.2412(6)
H2E H 0.0224 0.5739 -0.2845
C6E C 0.0155(8) 0.7085(5) -0.2016(7)
C7E C -0.0403(7) 0.7331(7) -0.2652(9)
H3E H -0.0798 0.7096 -0.2699
C8E C -0.0437(6) 0.7951(6) -0.3289(7)
H4E H -0.0837 0.8123 -0.3733
C9E C 0.0160(7) 0.8260(5) -0.3186(7)
C10E C 0.0738(7) 0.8047(6) -0.2531(8)
H5E H 0.1130 0.8299 -0.2470
C11E C 0.0751(7) 0.7421(7) -0.1919(8)
H6E H 0.1150 0.7250 -0.1471
C12E C 0.0160(7) 0.8939(5) -0.3847(7)
O3A O 0.6417(4) 0.1356(6) -0.5454(7)
N3A N 0.8341(5) 0.0000 -0.5441(8)
N4A N 0.6442(6) 0.0000 -0.5392(9)
C13A C 0.7816(10) 0.0000 -0.6088(13)
H7A H 0.7855 0.0000 -0.6626
C14A C 0.7140(8) 0.0000 -0.6175(12)
H8A H 0.6773 0.0000 -0.6721
C15A C 0.7092(7) 0.0000 -0.5411(12)
C16A C 0.7619(10) 0.0000 -0.4675(13)
H9A H 0.7575 0.0000 -0.4141
C17A C 0.8280(8) 0.0000 -0.4659(10)
H10A H 0.8655 0.0000 -0.4121
C18A C 0.6190(7) 0.0732(9) -0.5320(9)
C19A C 0.5292(5) 0.1457(8) -0.5079(9)
H11A H 0.5487 0.1940 -0.5123
C20A C 0.5566(5) 0.0748(8) -0.5165(8)
C21A C 0.5311(7) 0.0000 -0.5072(9)
O3D O 0.6417(4) -0.1356(6) -0.5454(7)
C18D C 0.6190(7) -0.0732(9) -0.5320(9)
C19D C 0.5292(5) -0.1457(8) -0.5079(9)
H11D H 0.5487 -0.1940 -0.5123
C20D C 0.5566(5) -0.0748(8) -0.5165(8)
O3E O 0.3583(4) -0.1356(6) -0.4546(7)
C18E C 0.3810(7) -0.0732(9) -0.4680(9)
C19E C 0.4708(5) -0.1457(8) -0.4921(9)
H11E H 0.4513 -0.1940 -0.4877
C20E C 0.4434(5) -0.0748(8) -0.4835(8)
Zn1A Zn -0.07332(7) 0.0000 -0.53624(9)
O4A O -0.1105(5) 0.5000 -0.0715(14)
Ti1A Ti -0.2025(12) 0.5000 -0.168(2)
O5A O -0.2973 0.5000 -0.1497
O6A O -0.1612 0.4429 -0.2396
O7A O -0.2702 0.4245 -0.2795
O8A O -0.1868 0.4066 -0.0797
O6E O 0.1612 0.5571 0.2396
O7E O 0.2702 0.5755 0.2795
O8E O 0.1868 0.5934 0.0797
O6D O -0.1612 0.5571 -0.2396
O7D O -0.2702 0.5755 -0.2795
O8D O -0.1868 0.5934 -0.0797
Zn1_2 Zn 0.07332(7) 0.0000 0.53624(9)
Zn1_3 Zn 0.07332(7) 1.0000 -0.46376(9)
Zn1_4 Zn 0.07332(7) 1.0000 0.53624(9)
Zn1A_2 Zn -0.07332(7) 0.0000 0.46376(9)
Zn1A_3 Zn -0.07332(7) 1.0000 -0.53624(9)
Zn1A_4 Zn -0.07332(7) 1.0000 0.46376(9)
Zn1A_5 Zn 0.92668(7) 0.0000 -0.53624(9)
O1A_2 O -0.0739(4) 0.0846(3) -0.6225(4)
O1D_2 O -0.0739(4) -0.0846(3) -0.6225(4)
O1E_2 O 0.0739(4) -0.0846(3) -0.3775(4)
O2A_2 O 0.0400(4) 0.0853(4) -0.5610(4)
O2D_2 O 0.0400(4) -0.0853(4) -0.5610(4)
O2E_2 O -0.0400(4) -0.0853(4) -0.4390(4)
N3A_2 N -0.1659(5) 0.0000 -0.5441(8)
loop_
_geom_bond_atom_site_label_1
_geom_bond_atom_site_label_2
_geom_bond_site_symmetry_1
_geom_bond_site_symmetry_2
Zn1 O1 1_555 1_555
O1 C12 1_555 1_555
O2 C12 1_555 1_555
O3 C18 1_555 1_555
N1 C2 1_555 1_555
N2 C4 1_555 1_555
N3 Zn1 1_555 1_555
N4 C15 1_555 1_555
C1 H1 1_555 1_555
C2 C1 1_555 1_555
C3 C2 1_555 1_555
C4 C3 1_555 1_555
C5 C4 1_555 1_555
H2 C5 1_555 1_555
C6 C3 1_555 1_555
C7 C6 1_555 1_555
H3 C7 1_555 1_555
C8 C7 1_555 1_555
H4 C8 1_555 1_555
C9 C8 1_555 1_555
C10 C9 1_555 1_555
H5 C10 1_555 1_555
C11 C6 1_555 1_555
H6 C11 1_555 1_555
C12 C9 1_555 1_555
C13 N3 1_555 1_555
H7 C13 1_555 1_555
C14 C13 1_555 1_555
H8 C14 1_555 1_555
C15 C14 1_555 1_555
C16 C15 1_555 1_555
H9 C16 1_555 1_555
C17 N3 1_555 1_555
H10 C17 1_555 1_555
C18 N4 1_555 1_555
C19 H11 1_555 1_555
C20 C18 1_555 1_555
C21 C20 1_555 1_555
O4 Ti1 1_555 1_555
Ti1 O5 1_555 1_555
O6 Ti1 1_555 1_555
O7 Ti1 1_555 1_555
O8 Ti1 1_555 1_555
Mn1 N1 1_555 1_555
O1A C12A 1_555 1_555
O2A C12A 1_555 1_555
N2A Mn1 1_555 1_555
C1A C1 1_555 1_555
H1A C1A 1_555 1_555
C2A N1 1_555 1_555
C3A C2A 1_555 1_555
C4A N2A 1_555 1_555
C5A C4A 1_555 1_555
H2A C5A 1_555 1_555
C6A C3A 1_555 1_555
C7A C6A 1_555 1_555
H3A C7A 1_555 1_555
C8A C7A 1_555 1_555
H4A C8A 1_555 1_555
C9A C8A 1_555 1_555
C10A C9A 1_555 1_555
H5A C10A 1_555 1_555
C11A C6A 1_555 1_555
H6A C11A 1_555 1_555
C12A C9A 1_555 1_555
O1D C12D 1_555 1_555
O2D C12D 1_555 1_555
N1D Mn1 1_555 1_555
C1D H1D 1_555 1_555
C2D N1D 1_555 1_555
C3D C2D 1_555 1_555
C4D N2A 1_555 1_555
C5D C5A 1_555 1_555
H2D C5D 1_555 1_555
C6D C3D 1_555 1_555
C7D C6D 1_555 1_555
H3D C7D 1_555 1_555
C8D C7D 1_555 1_555
H4D C8D 1_555 1_555
C9D C8D 1_555 1_555
C10D C9D 1_555 1_555
H5D C10D 1_555 1_555
C11D C6D 1_555 1_555
H6D C11D 1_555 1_555
C12D C9D 1_555 1_555
O1E C12E 1_555 1_555
O2E C12E 1_555 1_555
C1E C1D 1_555 1_555
H1E C1E 1_555 1_555
C2E N1D 1_555 1_555
C3E C2E 1_555 1_555
C4E N2 1_555 1_555
C5E C5 1_555 1_555
H2E C5E 1_555 1_555
C6E C3E 1_555 1_555
C7E C6E 1_555 1_555
H3E C7E 1_555 1_555
C8E C7E 1_555 1_555
H4E C8E 1_555 1_555
C9E C8E 1_555 1_555
C10E C9E 1_555 1_555
H5E C10E 1_555 1_555
C11E C6E 1_555 1_555
H6E C11E 1_555 1_555
C12E C9E 1_555 1_555
O3A C18A 1_555 1_555
N3A C13A 1_555 1_555
N4A C15A 1_555 1_555
C13A H7A 1_555 1_555
C14A C13A 1_555 1_555
H8A C14A 1_555 1_555
C15A C14A 1_555 1_555
C16A C15A 1_555 1_555
H9A C16A 1_555 1_555
C17A N3A 1_555 1_555
H10A C17A 1_555 1_555
C18A N4A 1_555 1_555
C19A C19 1_555 1_555
H11A C19A 1_555 1_555
C20A C18A 1_555 1_555
C21A C21 1_555 1_555
O3D C18D 1_555 1_555
C18D N4A 1_555 1_555
C19D H11D 1_555 1_555
C20D C21A 1_555 1_555
O3E C18E 1_555 1_555
C18E N4 1_555 1_555
C19E C19D 1_555 1_555
H11E C19E 1_555 1_555
C20E C21 1_555 1_555
Zn1A O2 1_555 1_555
O4A Mn1 1_555 1_555
Ti1A O4A 1_555 1_555
O5A Ti1A 1_555 1_555
O6A Ti1A 1_555 1_555
O7A Ti1A 1_555 1_555
O8A Ti1A 1_555 1_555
O6E Ti1 1_555 1_555
O7E Ti1 1_555 1_555
O8E Ti1 1_555 1_555
O6D Ti1A 1_555 1_555
O7D Ti1A 1_555 1_555
O8D Ti1A 1_555 1_555
Zn1_2 O2A 1_555 1_555
Zn1_3 O1E 1_555 1_555
Zn1_4 O2D 1_555 1_555
Zn1A_2 O1A 1_555 1_555
Zn1A_3 O2E 1_555 1_555
Zn1A_4 O1D 1_555 1_555
Zn1A_5 N3A 1_555 1_555
O1A_2 Zn1A 1_555 1_555
O1D_2 Zn1A 1_555 1_555
O1E_2 Zn1 1_555 1_555
O2A_2 Zn1 1_555 1_555
O2D_2 Zn1 1_555 1_555
O2E_2 Zn1A 1_555 1_555
N3A_2 Zn1A 1_555 1_555
N2 Mn1 1_555 1_555
C10 C11 1_555 1_555
C16 C17 1_555 1_555
C19 C20 1_555 1_555
O4 Mn1 1_555 1_555
C1A C2A 1_555 1_555
C3A C4A 1_555 1_555
C10A C11A 1_555 1_555
C1D C2D 1_555 1_555
C3D C4D 1_555 1_555
C4D C5D 1_555 1_555
C10D C11D 1_555 1_555
C1E C2E 1_555 1_555
C3E C4E 1_555 1_555
C4E C5E 1_555 1_555
C10E C11E 1_555 1_555
C16A C17A 1_555 1_555
C19A C20A 1_555 1_555
C20A C21A 1_555 1_555
C18D C20D 1_555 1_555
C19D C20D 1_555 1_555
C18E C20E 1_555 1_555
C19E C20E 1_555 1_555

#END
