
#######################################################################
#
#                 Cambridge Crystallographic Data Centre
#                                CCDC 
#
#######################################################################
#
# If this CIF has been generated from an entry in the Cambridge 
# Structural Database, then it will include bibliographic, chemical, 
# crystal, experimental, refinement or atomic coordinate data resulting 
# from the CCDC's data processing and validation procedures.
#
#######################################################################

data_XILSIW
_symmetry_cell_setting           triclinic
_symmetry_space_group_name_H-M   'P -1'
_symmetry_Int_Tables_number      2
_space_group_name_Hall           '-P 1'
loop_
_symmetry_equiv_pos_site_id
_symmetry_equiv_pos_as_xyz
1 x,y,z
2 -x,-y,-z
_cell_length_a                   9.8606(15)
_cell_length_b                   11.6737(17)
_cell_length_c                   12.5124(18)
_cell_angle_alpha                66.930(2)
_cell_angle_beta                 74.602(3)
_cell_angle_gamma                65.787(2)
_cell_volume                     1199.07
loop_
_atom_site_label
_atom_site_type_symbol
_atom_site_fract_x
_atom_site_fract_y
_atom_site_fract_z
Cd1 Cd 0.58309(4) 0.12632(3) 0.35238(3)
Cd2 Cd 1.0000 0.0000 0.0000
C1 C 0.6754(6) 0.3398(5) 0.3822(5)
C2 C 0.6512(6) 0.4778(5) 0.3809(4)
C3 C 0.5427(6) 0.5910(5) 0.3213(5)
C4 C 0.5290(6) 0.7169(5) 0.3141(5)
C5 C 0.6189(6) 0.7369(5) 0.3688(4)
C6 C 0.7221(7) 0.6239(6) 0.4309(5)
C7 C 0.7382(7) 0.4992(6) 0.4364(5)
C8 C 0.6031(6) 0.8752(5) 0.3617(5)
C9 C 0.7360(6) 0.2376(5) 0.0696(5)
C10 C 0.6125(6) 0.3739(5) 0.0348(4)
C11 C 0.4897(6) 0.3922(5) -0.0110(5)
C12 C 0.6201(6) 0.4848(5) 0.0453(5)
C13 C 0.2936(7) 0.3518(6) 0.2564(6)
H1 H 0.3281 0.4013 0.2787
C14 C 0.0706(12) 0.5441(11) 0.2124(12)
H2 H 0.1215 0.5800 0.2399
H3 H -0.0231 0.5453 0.2609
H4 H 0.0524 0.5968 0.1330
C15 C 0.1039(11) 0.3356(11) 0.1819(10)
H5 H 0.1817 0.2540 0.1770
H6 H 0.0692 0.3875 0.1067
H7 H 0.0221 0.3166 0.2385
C16 C 0.8390(9) -0.0651(8) 0.5330(7)
H8 H 0.7527 -0.0385 0.5872
H9 H 0.9256 -0.0660 0.5551
H10 H 0.8546 -0.1523 0.5341
C17 C 0.9253(10) 0.1566(8) -0.2764(7)
H11 H 0.8425 0.2149 -0.2404
H12 H 0.8919 0.1435 -0.3348
H13 H 1.0022 0.1953 -0.3126
C18 C 1.278(2) 0.088(2) -0.0043(12)
H14 H 1.3696 0.0956 -0.0519
H15 H 1.2983 0.0046 0.0574
H16 H 1.2313 0.1590 0.0289
F1 F 0.4467(4) 0.5828(3) 0.2677(4)
F2 F 0.4242(5) 0.8228(3) 0.2520(4)
F3 F 0.8117(5) 0.6364(4) 0.4871(4)
F4 F 0.8433(5) 0.3963(4) 0.4993(4)
F5 F 0.4740(4) 0.2886(3) -0.0216(4)
F6 F 0.7389(4) 0.4725(4) 0.0886(4)
N1 N 0.1623(7) 0.4095(6) 0.2173(6)
O1 O 0.5665(4) 0.3183(4) 0.3710(4)
O2 O 0.8062(6) 0.2607(5) 0.3882(6)
O3 O 0.6453(7) 0.9484(5) 0.2680(4)
O4 O 0.5504(6) 0.9087(4) 0.4490(4)
O5 O 0.7441(4) 0.1773(4) 0.1761(3)
O6 O 0.8198(5) 0.2020(4) -0.0129(4)
O7 O 0.3741(5) 0.2347(5) 0.2653(4)
O8 O 0.8149(4) 0.0280(4) 0.4157(4)
H17 H 0.8160 0.0937 0.4244
O9 O 0.9842(5) 0.0312(5) -0.1891(4)
H18 H 1.0712 0.0179 -0.2203
O10 O 1.1836(6) 0.0964(6) -0.0715(5)
H19 H 1.1242 0.1725 -0.0815
C9A C 0.2640(6) 0.7624(5) -0.0696(5)
C10A C 0.3875(6) 0.6261(5) -0.0348(4)
C11A C 0.5103(6) 0.6078(5) 0.0110(5)
C12A C 0.3799(6) 0.5152(5) -0.0453(5)
F5A F 0.5260(4) 0.7114(3) 0.0216(4)
F6A F 0.2611(4) 0.5275(4) -0.0886(4)
O5A O 0.2559(4) 0.8227(4) -0.1761(3)
O6A O 0.1802(5) 0.7980(4) 0.0129(4)
Cd1A Cd 0.41691(4) 0.87368(3) -0.35238(3)
C1A C 0.3246(6) 0.6602(5) -0.3822(5)
C2A C 0.3488(6) 0.5222(5) -0.3809(4)
C3A C 0.4573(6) 0.4090(5) -0.3213(5)
C4A C 0.4710(6) 0.2831(5) -0.3141(5)
C5A C 0.3811(6) 0.2631(5) -0.3688(4)
C6A C 0.2779(7) 0.3761(6) -0.4309(5)
C7A C 0.2618(7) 0.5008(6) -0.4364(5)
C8A C 0.3969(6) 0.1248(5) -0.3617(5)
C13A C 0.7064(7) 0.6482(6) -0.2564(6)
H1A H 0.6719 0.5987 -0.2787
C14A C 0.9294(12) 0.4559(11) -0.2124(12)
H2A H 0.8785 0.4200 -0.2399
H3A H 1.0231 0.4547 -0.2609
H4A H 0.9476 0.4032 -0.1330
C15A C 0.8961(11) 0.6644(11) -0.1819(10)
H5A H 0.8183 0.7460 -0.1770
H6A H 0.9308 0.6125 -0.1067
H7A H 0.9779 0.6834 -0.2385
C16A C 0.1610(9) 1.0651(8) -0.5330(7)
H8A H 0.2473 1.0385 -0.5872
H9A H 0.0744 1.0660 -0.5551
H10A H 0.1454 1.1523 -0.5341
F1A F 0.5533(4) 0.4172(3) -0.2677(4)
F2A F 0.5758(5) 0.1772(3) -0.2520(4)
F3A F 0.1883(5) 0.3636(4) -0.4871(4)
F4A F 0.1567(5) 0.6037(4) -0.4993(4)
N1A N 0.8377(7) 0.5905(6) -0.2173(6)
O1A O 0.4335(4) 0.6817(4) -0.3710(4)
O2A O 0.1938(6) 0.7393(5) -0.3882(6)
O3A O 0.3547(7) 0.0516(5) -0.2680(4)
O4A O 0.4496(6) 0.0913(4) -0.4490(4)
O7A O 0.6259(5) 0.7653(5) -0.2653(4)
O8A O 0.1851(4) 0.9720(4) -0.4157(4)
H17A H 0.1840 0.9063 -0.4244
C17A C 1.0747(10) -0.1566(8) 0.2764(7)
H11A H 1.1575 -0.2149 0.2404
H12A H 1.1081 -0.1435 0.3348
H13A H 0.9978 -0.1953 0.3126
O9A O 1.0158(5) -0.0312(5) 0.1891(4)
H18A H 0.9288 -0.0179 0.2203
C18A C 0.722(2) -0.088(2) 0.0043(12)
H14A H 0.6304 -0.0956 0.0519
H15A H 0.7017 -0.0046 -0.0574
H16A H 0.7687 -0.1590 -0.0289
O10A O 0.8164(6) -0.0964(6) 0.0715(5)
H19A H 0.8758 -0.1725 0.0815
Cd1_2 Cd 0.58309(4) 0.12632(3) -0.64762(3)
Cd1_3 Cd 0.58309(4) 1.12632(3) 0.35238(3)
Cd1A_2 Cd 0.41691(4) -0.12632(3) -0.35238(3)
Cd1A_3 Cd 0.41691(4) 0.87368(3) 0.64762(3)
Cd2_2 Cd 0.0000 1.0000 0.0000
O3_2 O 0.6453(7) -0.0516(5) 0.2680(4)
O3A_2 O 0.3547(7) 1.0516(5) -0.2680(4)
O4_2 O 0.5504(6) -0.0913(4) 0.4490(4)
O4_3 O 0.5504(6) 0.9087(4) -0.5510(4)
O4A_2 O 0.4496(6) 0.0913(4) 0.5510(4)
O4A_3 O 0.4496(6) 1.0913(4) -0.4490(4)
O6A_2 O 1.1802(5) -0.2020(4) 0.0129(4)
loop_
_geom_bond_atom_site_label_1
_geom_bond_atom_site_label_2
_geom_bond_site_symmetry_1
_geom_bond_site_symmetry_2
Cd1 O1 1_555 1_555
Cd2 O6 1_555 1_555
C1 C2 1_555 1_555
C2 C3 1_555 1_555
C3 C4 1_555 1_555
C4 C5 1_555 1_555
C5 C6 1_555 1_555
C6 C7 1_555 1_555
C7 C2 1_555 1_555
C8 C5 1_555 1_555
C9 C10 1_555 1_555
C10 C11 1_555 1_555
C11 F5 1_555 1_555
C12 C10 1_555 1_555
C13 H1 1_555 1_555
C14 H2 1_555 1_555
H3 C14 1_555 1_555
H4 C14 1_555 1_555
C15 H5 1_555 1_555
H6 C15 1_555 1_555
H7 C15 1_555 1_555
C16 H8 1_555 1_555
H9 C16 1_555 1_555
H10 C16 1_555 1_555
C17 H11 1_555 1_555
H12 C17 1_555 1_555
H13 C17 1_555 1_555
C18 H14 1_555 1_555
H15 C18 1_555 1_555
H16 C18 1_555 1_555
F1 C3 1_555 1_555
F2 C4 1_555 1_555
F3 C6 1_555 1_555
F4 C7 1_555 1_555
F6 C12 1_555 1_555
N1 C13 1_555 1_555
O1 C1 1_555 1_555
O2 C1 1_555 1_555
O3 C8 1_555 1_555
O4 C8 1_555 1_555
O5 Cd1 1_555 1_555
O6 C9 1_555 1_555
O7 Cd1 1_555 1_555
O8 Cd1 1_555 1_555
H17 O8 1_555 1_555
O9 Cd2 1_555 1_555
H18 O9 1_555 1_555
O10 Cd2 1_555 1_555
H19 O10 1_555 1_555
C9A C10A 1_555 1_555
C10A C11A 1_555 1_555
C11A C12 1_555 1_555
C12A C11 1_555 1_555
F5A C11A 1_555 1_555
F6A C12A 1_555 1_555
O5A C9A 1_555 1_555
O6A C9A 1_555 1_555
Cd1A O5A 1_555 1_555
C1A C2A 1_555 1_555
C2A C3A 1_555 1_555
C3A C4A 1_555 1_555
C4A C5A 1_555 1_555
C5A C6A 1_555 1_555
C6A C7A 1_555 1_555
C7A C2A 1_555 1_555
C8A C5A 1_555 1_555
C13A H1A 1_555 1_555
C14A H2A 1_555 1_555
H3A C14A 1_555 1_555
H4A C14A 1_555 1_555
C15A H5A 1_555 1_555
H6A C15A 1_555 1_555
H7A C15A 1_555 1_555
C16A H8A 1_555 1_555
H9A C16A 1_555 1_555
H10A C16A 1_555 1_555
F1A C3A 1_555 1_555
F2A C4A 1_555 1_555
F3A C6A 1_555 1_555
F4A C7A 1_555 1_555
N1A C13A 1_555 1_555
O1A Cd1A 1_555 1_555
O2A C1A 1_555 1_555
O3A C8A 1_555 1_555
O4A C8A 1_555 1_555
O7A Cd1A 1_555 1_555
O8A Cd1A 1_555 1_555
H17A O8A 1_555 1_555
C17A H11A 1_555 1_555
H12A C17A 1_555 1_555
H13A C17A 1_555 1_555
O9A Cd2 1_555 1_555
H18A O9A 1_555 1_555
C18A H14A 1_555 1_555
H15A C18A 1_555 1_555
H16A C18A 1_555 1_555
O10A Cd2 1_555 1_555
H19A O10A 1_555 1_555
Cd1_2 O4A 1_555 1_555
Cd1_3 O3 1_555 1_555
Cd1A_2 O3A 1_555 1_555
Cd1A_3 O4 1_555 1_555
Cd2_2 O6A 1_555 1_555
O3_2 Cd1 1_555 1_555
O3A_2 Cd1A 1_555 1_555
O4_2 Cd1 1_555 1_555
O4_3 Cd1A 1_555 1_555
O4A_2 Cd1 1_555 1_555
O4A_3 Cd1A 1_555 1_555
O6A_2 Cd2 1_555 1_555
C9 O5 1_555 1_555
C13 O7 1_555 1_555
C14 N1 1_555 1_555
C15 N1 1_555 1_555
C16 O8 1_555 1_555
C17 O9 1_555 1_555
C18 O10 1_555 1_555
O4 Cd1_3 1_555 1_555
C10A C12A 1_555 1_555
C1A O1A 1_555 1_555
C13A O7A 1_555 1_555
C14A N1A 1_555 1_555
C15A N1A 1_555 1_555
C16A O8A 1_555 1_555
O4A Cd1A_2 1_555 1_555
C17A O9A 1_555 1_555
C18A O10A 1_555 1_555

#END
