
#######################################################################
#
#                 Cambridge Crystallographic Data Centre
#                                CCDC 
#
#######################################################################
#
# If this CIF has been generated from an entry in the Cambridge 
# Structural Database, then it will include bibliographic, chemical, 
# crystal, experimental, refinement or atomic coordinate data resulting 
# from the CCDC's data processing and validation procedures.
#
#######################################################################

data_XILSOC
_symmetry_cell_setting           monoclinic
_symmetry_space_group_name_H-M   'P 21/c'
_symmetry_Int_Tables_number      14
_space_group_name_Hall           '-P 2ybc'
loop_
_symmetry_equiv_pos_site_id
_symmetry_equiv_pos_as_xyz
1 x,y,z
2 -x,1/2+y,1/2-z
3 -x,-y,-z
4 x,1/2-y,1/2+z
_cell_length_a                   5.4767(7)
_cell_length_b                   10.4619(13)
_cell_length_c                   17.4891(19)
_cell_angle_alpha                90
_cell_angle_beta                 106.381(4)
_cell_angle_gamma                90
_cell_volume                     961.391
loop_
_atom_site_label
_atom_site_type_symbol
_atom_site_fract_x
_atom_site_fract_y
_atom_site_fract_z
Cd1 Cd 0.0000 0.0000 0.0000
C1 C 0.1390(5) 0.2857(2) -0.02439(17)
C2 C 0.3275(5) 0.3964(2) -0.01136(16)
C3 C 0.4276(6) 0.4510(3) 0.06237(17)
C4 C 0.5962(6) 0.5522(3) 0.07359(17)
C5 C -0.0771(7) 0.1666(3) 0.1433(2)
H1 H 0.0363 0.2184 0.1268
C6 C -0.0592(9) 0.3261(4) 0.2445(2)
H2 H 0.0243 0.3076 0.2995
H3 H -0.1977 0.3841 0.2412
H4 H 0.0601 0.3645 0.2204
C7 C -0.3367(8) 0.1351(4) 0.2317(3)
H5 H -0.4072 0.0680 0.1946
H6 H -0.4709 0.1903 0.2370
H7 H -0.2516 0.0987 0.2826
F1 F 0.3557(4) 0.40742(19) 0.12517(11)
F2 F 0.6831(4) 0.60303(19) 0.14714(11)
N1 N -0.1569(5) 0.2078(3) 0.20280(16)
O1 O 0.2312(4) 0.17944(19) 0.00060(15)
O2 O -0.0835(5) 0.3099(2) -0.0585(2)
O3 O -0.1393(5) 0.0646(2) 0.10716(15)
O4 O 0.3598(4) -0.0938(2) 0.08345(15)
H8 H 0.3206 -0.1693 0.0845
H9 H 0.4781 -0.0715 0.0663
C1B C 0.8610(5) 0.7143(2) 0.02439(17)
C2B C 0.6725(5) 0.6036(2) 0.01136(16)
C3B C 0.5724(6) 0.5490(3) -0.06237(17)
C4B C 0.4038(6) 0.4478(3) -0.07359(17)
F1B F 0.6443(4) 0.59258(19) -0.12517(11)
F2B F 0.3169(4) 0.39697(19) -0.14714(11)
O1B O 0.7688(4) 0.82056(19) -0.00060(15)
O2B O 1.0835(5) 0.6901(2) 0.0585(2)
C5B C 0.0771(7) -0.1666(3) -0.1433(2)
H1B H -0.0363 -0.2184 -0.1268
C6B C 0.0592(9) -0.3261(4) -0.2445(2)
H2B H -0.0243 -0.3076 -0.2995
H3B H 0.1977 -0.3841 -0.2412
H4B H -0.0601 -0.3645 -0.2204
C7B C 0.3367(8) -0.1351(4) -0.2317(3)
H5B H 0.4072 -0.0680 -0.1946
H6B H 0.4709 -0.1903 -0.2370
H7B H 0.2516 -0.0987 -0.2826
N1B N 0.1569(5) -0.2078(3) -0.20280(16)
O3B O 0.1393(5) -0.0646(2) -0.10716(15)
O4B O -0.3598(4) 0.0938(2) -0.08345(15)
H8B H -0.3206 0.1693 -0.0845
H9B H -0.4781 0.0715 -0.0663
Cd1_2 Cd 1.0000 1.0000 0.0000
O1B_2 O -0.2312(4) -0.17944(19) -0.00060(15)
loop_
_geom_bond_atom_site_label_1
_geom_bond_atom_site_label_2
_geom_bond_site_symmetry_1
_geom_bond_site_symmetry_2
Cd1 O1 1_555 1_555
C1 C2 1_555 1_555
C2 C3 1_555 1_555
C3 C4 1_555 1_555
C4 F2 1_555 1_555
C5 H1 1_555 1_555
C6 H2 1_555 1_555
H3 C6 1_555 1_555
H4 C6 1_555 1_555
C7 H5 1_555 1_555
H6 C7 1_555 1_555
H7 C7 1_555 1_555
F1 C3 1_555 1_555
N1 C5 1_555 1_555
O1 C1 1_555 1_555
O2 C1 1_555 1_555
O3 Cd1 1_555 1_555
O4 Cd1 1_555 1_555
H8 O4 1_555 1_555
H9 O4 1_555 1_555
C1B C2B 1_555 1_555
C2B C4 1_555 1_555
C3B C2B 1_555 1_555
C4B C2 1_555 1_555
F1B C3B 1_555 1_555
F2B C4B 1_555 1_555
O1B C1B 1_555 1_555
O2B C1B 1_555 1_555
C5B H1B 1_555 1_555
C6B H2B 1_555 1_555
H3B C6B 1_555 1_555
H4B C6B 1_555 1_555
C7B H5B 1_555 1_555
H6B C7B 1_555 1_555
H7B C7B 1_555 1_555
N1B C5B 1_555 1_555
O3B Cd1 1_555 1_555
O4B Cd1 1_555 1_555
H8B O4B 1_555 1_555
H9B O4B 1_555 1_555
Cd1_2 O1B 1_555 1_555
O1B_2 Cd1 1_555 1_555
C5 O3 1_555 1_555
C6 N1 1_555 1_555
C7 N1 1_555 1_555
C3B C4B 1_555 1_555
C5B O3B 1_555 1_555
C6B N1B 1_555 1_555
C7B N1B 1_555 1_555

#END
